# Generated by pormake.
# Topology iac, (4,6)-cn, num edge types: 1
# Building blocks:
#     Node 0, Type 0, BuildingBlock: CEKHIL_clean_sbu_0, # of connection points: 4
#     Node 1, Type 0, BuildingBlock: CEKHIL_clean_sbu_0, # of connection points: 4
#     Node 2, Type 0, BuildingBlock: CEKHIL_clean_sbu_0, # of connection points: 4
#     Node 3, Type 0, BuildingBlock: CEKHIL_clean_sbu_0, # of connection points: 4
#     Node 4, Type 0, BuildingBlock: CEKHIL_clean_sbu_0, # of connection points: 4
#     Node 5, Type 0, BuildingBlock: CEKHIL_clean_sbu_0, # of connection points: 4
#     Node 6, Type 0, BuildingBlock: CEKHIL_clean_sbu_0, # of connection points: 4
#     Node 7, Type 0, BuildingBlock: CEKHIL_clean_sbu_0, # of connection points: 4
#     Node 8, Type 0, BuildingBlock: CEKHIL_clean_sbu_0, # of connection points: 4
#     Node 9, Type 0, BuildingBlock: CEKHIL_clean_sbu_0, # of connection points: 4
#     Node 10, Type 0, BuildingBlock: CEKHIL_clean_sbu_0, # of connection points: 4
#     Node 11, Type 0, BuildingBlock: CEKHIL_clean_sbu_0, # of connection points: 4
#     Node 12, Type 0, BuildingBlock: CEKHIL_clean_sbu_0, # of connection points: 4
#     Node 13, Type 0, BuildingBlock: CEKHIL_clean_sbu_0, # of connection points: 4
#     Node 14, Type 0, BuildingBlock: CEKHIL_clean_sbu_0, # of connection points: 4
#     Node 15, Type 0, BuildingBlock: CEKHIL_clean_sbu_0, # of connection points: 4
#     Node 16, Type 0, BuildingBlock: CEKHIL_clean_sbu_0, # of connection points: 4
#     Node 17, Type 0, BuildingBlock: CEKHIL_clean_sbu_0, # of connection points: 4
#     Node 18, Type 0, BuildingBlock: CEKHIL_clean_sbu_0, # of connection points: 4
#     Node 19, Type 0, BuildingBlock: CEKHIL_clean_sbu_0, # of connection points: 4
#     Node 20, Type 0, BuildingBlock: CEKHIL_clean_sbu_0, # of connection points: 4
#     Node 21, Type 0, BuildingBlock: CEKHIL_clean_sbu_0, # of connection points: 4
#     Node 22, Type 0, BuildingBlock: CEKHIL_clean_sbu_0, # of connection points: 4
#     Node 23, Type 0, BuildingBlock: CEKHIL_clean_sbu_0, # of connection points: 4
#     Node 24, Type 1, BuildingBlock: FUNLAD_clean_sbu_0, # of connection points: 6
#     Node 25, Type 1, BuildingBlock: FUNLAD_clean_sbu_0, # of connection points: 6
#     Node 26, Type 1, BuildingBlock: FUNLAD_clean_sbu_0, # of connection points: 6
#     Node 27, Type 1, BuildingBlock: FUNLAD_clean_sbu_0, # of connection points: 6
#     Node 28, Type 1, BuildingBlock: FUNLAD_clean_sbu_0, # of connection points: 6
#     Node 29, Type 1, BuildingBlock: FUNLAD_clean_sbu_0, # of connection points: 6
#     Node 30, Type 1, BuildingBlock: FUNLAD_clean_sbu_0, # of connection points: 6
#     Node 31, Type 1, BuildingBlock: FUNLAD_clean_sbu_0, # of connection points: 6
#     Node 32, Type 1, BuildingBlock: FUNLAD_clean_sbu_0, # of connection points: 6
#     Node 33, Type 1, BuildingBlock: FUNLAD_clean_sbu_0, # of connection points: 6
#     Node 34, Type 1, BuildingBlock: FUNLAD_clean_sbu_0, # of connection points: 6
#     Node 35, Type 1, BuildingBlock: FUNLAD_clean_sbu_0, # of connection points: 6
#     Node 36, Type 1, BuildingBlock: FUNLAD_clean_sbu_0, # of connection points: 6
#     Node 37, Type 1, BuildingBlock: FUNLAD_clean_sbu_0, # of connection points: 6
#     Node 38, Type 1, BuildingBlock: FUNLAD_clean_sbu_0, # of connection points: 6
#     Node 39, Type 1, BuildingBlock: FUNLAD_clean_sbu_0, # of connection points: 6
#     Edge 40, Type (0, 1), BuildingBlock: TEMPAE_clean_linker_10, # of connection points: 2
#     Edge 41, Type (0, 1), BuildingBlock: TEMPAE_clean_linker_10, # of connection points: 2
#     Edge 42, Type (0, 1), BuildingBlock: TEMPAE_clean_linker_10, # of connection points: 2
#     Edge 43, Type (0, 1), BuildingBlock: TEMPAE_clean_linker_10, # of connection points: 2
#     Edge 44, Type (0, 1), BuildingBlock: TEMPAE_clean_linker_10, # of connection points: 2
#     Edge 45, Type (0, 1), BuildingBlock: TEMPAE_clean_linker_10, # of connection points: 2
#     Edge 46, Type (0, 1), BuildingBlock: TEMPAE_clean_linker_10, # of connection points: 2
#     Edge 47, Type (0, 1), BuildingBlock: TEMPAE_clean_linker_10, # of connection points: 2
#     Edge 48, Type (0, 1), BuildingBlock: TEMPAE_clean_linker_10, # of connection points: 2
#     Edge 49, Type (0, 1), BuildingBlock: TEMPAE_clean_linker_10, # of connection points: 2
#     Edge 50, Type (0, 1), BuildingBlock: TEMPAE_clean_linker_10, # of connection points: 2
#     Edge 51, Type (0, 1), BuildingBlock: TEMPAE_clean_linker_10, # of connection points: 2
#     Edge 52, Type (0, 1), BuildingBlock: TEMPAE_clean_linker_10, # of connection points: 2
#     Edge 53, Type (0, 1), BuildingBlock: TEMPAE_clean_linker_10, # of connection points: 2
#     Edge 54, Type (0, 1), BuildingBlock: TEMPAE_clean_linker_10, # of connection points: 2
#     Edge 55, Type (0, 1), BuildingBlock: TEMPAE_clean_linker_10, # of connection points: 2
#     Edge 56, Type (0, 1), BuildingBlock: TEMPAE_clean_linker_10, # of connection points: 2
#     Edge 57, Type (0, 1), BuildingBlock: TEMPAE_clean_linker_10, # of connection points: 2
#     Edge 58, Type (0, 1), BuildingBlock: TEMPAE_clean_linker_10, # of connection points: 2
#     Edge 59, Type (0, 1), BuildingBlock: TEMPAE_clean_linker_10, # of connection points: 2
#     Edge 60, Type (0, 1), BuildingBlock: TEMPAE_clean_linker_10, # of connection points: 2
#     Edge 61, Type (0, 1), BuildingBlock: TEMPAE_clean_linker_10, # of connection points: 2
#     Edge 62, Type (0, 1), BuildingBlock: TEMPAE_clean_linker_10, # of connection points: 2
#     Edge 63, Type (0, 1), BuildingBlock: TEMPAE_clean_linker_10, # of connection points: 2
#     Edge 64, Type (0, 1), BuildingBlock: TEMPAE_clean_linker_10, # of connection points: 2
#     Edge 65, Type (0, 1), BuildingBlock: TEMPAE_clean_linker_10, # of connection points: 2
#     Edge 66, Type (0, 1), BuildingBlock: TEMPAE_clean_linker_10, # of connection points: 2
#     Edge 67, Type (0, 1), BuildingBlock: TEMPAE_clean_linker_10, # of connection points: 2
#     Edge 68, Type (0, 1), BuildingBlock: TEMPAE_clean_linker_10, # of connection points: 2
#     Edge 69, Type (0, 1), BuildingBlock: TEMPAE_clean_linker_10, # of connection points: 2
#     Edge 70, Type (0, 1), BuildingBlock: TEMPAE_clean_linker_10, # of connection points: 2
#     Edge 71, Type (0, 1), BuildingBlock: TEMPAE_clean_linker_10, # of connection points: 2
#     Edge 72, Type (0, 1), BuildingBlock: TEMPAE_clean_linker_10, # of connection points: 2
#     Edge 73, Type (0, 1), BuildingBlock: TEMPAE_clean_linker_10, # of connection points: 2
#     Edge 74, Type (0, 1), BuildingBlock: TEMPAE_clean_linker_10, # of connection points: 2
#     Edge 75, Type (0, 1), BuildingBlock: TEMPAE_clean_linker_10, # of connection points: 2
#     Edge 76, Type (0, 1), BuildingBlock: TEMPAE_clean_linker_10, # of connection points: 2
#     Edge 77, Type (0, 1), BuildingBlock: TEMPAE_clean_linker_10, # of connection points: 2
#     Edge 78, Type (0, 1), BuildingBlock: TEMPAE_clean_linker_10, # of connection points: 2
#     Edge 79, Type (0, 1), BuildingBlock: TEMPAE_clean_linker_10, # of connection points: 2
#     Edge 80, Type (0, 1), BuildingBlock: TEMPAE_clean_linker_10, # of connection points: 2
#     Edge 81, Type (0, 1), BuildingBlock: TEMPAE_clean_linker_10, # of connection points: 2
#     Edge 82, Type (0, 1), BuildingBlock: TEMPAE_clean_linker_10, # of connection points: 2
#     Edge 83, Type (0, 1), BuildingBlock: TEMPAE_clean_linker_10, # of connection points: 2
#     Edge 84, Type (0, 1), BuildingBlock: TEMPAE_clean_linker_10, # of connection points: 2
#     Edge 85, Type (0, 1), BuildingBlock: TEMPAE_clean_linker_10, # of connection points: 2
#     Edge 86, Type (0, 1), BuildingBlock: TEMPAE_clean_linker_10, # of connection points: 2
#     Edge 87, Type (0, 1), BuildingBlock: TEMPAE_clean_linker_10, # of connection points: 2
#     Edge 88, Type (0, 1), BuildingBlock: TEMPAE_clean_linker_10, # of connection points: 2
#     Edge 89, Type (0, 1), BuildingBlock: TEMPAE_clean_linker_10, # of connection points: 2
#     Edge 90, Type (0, 1), BuildingBlock: TEMPAE_clean_linker_10, # of connection points: 2
#     Edge 91, Type (0, 1), BuildingBlock: TEMPAE_clean_linker_10, # of connection points: 2
#     Edge 92, Type (0, 1), BuildingBlock: TEMPAE_clean_linker_10, # of connection points: 2
#     Edge 93, Type (0, 1), BuildingBlock: TEMPAE_clean_linker_10, # of connection points: 2
#     Edge 94, Type (0, 1), BuildingBlock: TEMPAE_clean_linker_10, # of connection points: 2
#     Edge 95, Type (0, 1), BuildingBlock: TEMPAE_clean_linker_10, # of connection points: 2
#     Edge 96, Type (0, 1), BuildingBlock: TEMPAE_clean_linker_10, # of connection points: 2
#     Edge 97, Type (0, 1), BuildingBlock: TEMPAE_clean_linker_10, # of connection points: 2
#     Edge 98, Type (0, 1), BuildingBlock: TEMPAE_clean_linker_10, # of connection points: 2
#     Edge 99, Type (0, 1), BuildingBlock: TEMPAE_clean_linker_10, # of connection points: 2
#     Edge 100, Type (0, 1), BuildingBlock: TEMPAE_clean_linker_10, # of connection points: 2
#     Edge 101, Type (0, 1), BuildingBlock: TEMPAE_clean_linker_10, # of connection points: 2
#     Edge 102, Type (0, 1), BuildingBlock: TEMPAE_clean_linker_10, # of connection points: 2
#     Edge 103, Type (0, 1), BuildingBlock: TEMPAE_clean_linker_10, # of connection points: 2
#     Edge 104, Type (0, 1), BuildingBlock: TEMPAE_clean_linker_10, # of connection points: 2
#     Edge 105, Type (0, 1), BuildingBlock: TEMPAE_clean_linker_10, # of connection points: 2
#     Edge 106, Type (0, 1), BuildingBlock: TEMPAE_clean_linker_10, # of connection points: 2
#     Edge 107, Type (0, 1), BuildingBlock: TEMPAE_clean_linker_10, # of connection points: 2
#     Edge 108, Type (0, 1), BuildingBlock: TEMPAE_clean_linker_10, # of connection points: 2
#     Edge 109, Type (0, 1), BuildingBlock: TEMPAE_clean_linker_10, # of connection points: 2
#     Edge 110, Type (0, 1), BuildingBlock: TEMPAE_clean_linker_10, # of connection points: 2
#     Edge 111, Type (0, 1), BuildingBlock: TEMPAE_clean_linker_10, # of connection points: 2
#     Edge 112, Type (0, 1), BuildingBlock: TEMPAE_clean_linker_10, # of connection points: 2
#     Edge 113, Type (0, 1), BuildingBlock: TEMPAE_clean_linker_10, # of connection points: 2
#     Edge 114, Type (0, 1), BuildingBlock: TEMPAE_clean_linker_10, # of connection points: 2
#     Edge 115, Type (0, 1), BuildingBlock: TEMPAE_clean_linker_10, # of connection points: 2
#     Edge 116, Type (0, 1), BuildingBlock: TEMPAE_clean_linker_10, # of connection points: 2
#     Edge 117, Type (0, 1), BuildingBlock: TEMPAE_clean_linker_10, # of connection points: 2
#     Edge 118, Type (0, 1), BuildingBlock: TEMPAE_clean_linker_10, # of connection points: 2
#     Edge 119, Type (0, 1), BuildingBlock: TEMPAE_clean_linker_10, # of connection points: 2
#     Edge 120, Type (0, 1), BuildingBlock: TEMPAE_clean_linker_10, # of connection points: 2
#     Edge 121, Type (0, 1), BuildingBlock: TEMPAE_clean_linker_10, # of connection points: 2
#     Edge 122, Type (0, 1), BuildingBlock: TEMPAE_clean_linker_10, # of connection points: 2
#     Edge 123, Type (0, 1), BuildingBlock: TEMPAE_clean_linker_10, # of connection points: 2
#     Edge 124, Type (0, 1), BuildingBlock: TEMPAE_clean_linker_10, # of connection points: 2
#     Edge 125, Type (0, 1), BuildingBlock: TEMPAE_clean_linker_10, # of connection points: 2
#     Edge 126, Type (0, 1), BuildingBlock: TEMPAE_clean_linker_10, # of connection points: 2
#     Edge 127, Type (0, 1), BuildingBlock: TEMPAE_clean_linker_10, # of connection points: 2
#     Edge 128, Type (0, 1), BuildingBlock: TEMPAE_clean_linker_10, # of connection points: 2
#     Edge 129, Type (0, 1), BuildingBlock: TEMPAE_clean_linker_10, # of connection points: 2
#     Edge 130, Type (0, 1), BuildingBlock: TEMPAE_clean_linker_10, # of connection points: 2
#     Edge 131, Type (0, 1), BuildingBlock: TEMPAE_clean_linker_10, # of connection points: 2
#     Edge 132, Type (0, 1), BuildingBlock: TEMPAE_clean_linker_10, # of connection points: 2
#     Edge 133, Type (0, 1), BuildingBlock: TEMPAE_clean_linker_10, # of connection points: 2
#     Edge 134, Type (0, 1), BuildingBlock: TEMPAE_clean_linker_10, # of connection points: 2
#     Edge 135, Type (0, 1), BuildingBlock: TEMPAE_clean_linker_10, # of connection points: 2
# Relax obj value: 0.319
# Max RMSD: 0.281
# Mean RMSD: 0.132
data_MOF--net-iac--node1-CEKHIL_clean_sbu_0--node2-FUNLAD_clean_sbu_0--edge1-TEMPAE_clean_linker_10
_symmetry_space_group_name_H-M    P1
_symmetry_Int_Tables_number       1
_symmetry_cell_setting            triclinic
loop_
_symmetry_equiv_pos_as_xyz
'x, y, z'
_cell_length_a     56.018572
_cell_length_b     53.290646
_cell_length_c     58.800243
_cell_angle_alpha  89.933571
_cell_angle_beta   92.212219
_cell_angle_gamma 90.553177
loop_
_atom_site_label
_atom_site_type_symbol
_atom_site_fract_x
_atom_site_fract_y
_atom_site_fract_z
_atom_type_partial_charge
Co0 Co 0.05774 0.22482 0.14733 0.0
O1 O 0.02729 0.21015 0.13855 0.0
O2 O 0.0462 0.20481 0.17197 0.0
C3 C 0.04911 0.26344 0.13459 0.0
O4 O 0.08821 0.23772 0.16313 0.0
Co5 Co 0.09202 0.24889 0.11297 0.0
O6 O 0.10486 0.26652 0.14064 0.0
C7 C 0.08782 0.19354 0.11678 0.0
C8 C 0.02721 0.20086 0.15899 0.0
C9 C 0.10253 0.25626 0.15999 0.0
O10 O 0.07489 0.19555 0.13431 0.0
O11 O 0.09498 0.21241 0.10525 0.0
O12 O 0.04211 0.25629 0.15441 0.0
O13 O 0.05947 0.24668 0.12274 0.0
Co14 Co 0.02999 0.76432 0.38914 0.0
O15 O 0.06472 0.76179 0.3934 0.0
O16 O 0.04486 0.75412 0.36113 0.0
C17 C 0.02769 0.80229 0.4071 0.0
O18 O 0.99483 0.76569 0.37639 0.0
Co19 Co 0.99425 0.76877 0.42731 0.0
O20 O 0.97065 0.77912 0.40322 0.0
C21 C 0.01679 0.71953 0.41864 0.0
C22 C 0.06542 0.75574 0.37204 0.0
C23 C 0.97426 0.77356 0.38261 0.0
O24 O 0.02622 0.7281 0.40035 0.0
O25 O 0.00482 0.73325 0.43188 0.0
O26 O 0.03288 0.80113 0.38576 0.0
O27 O 0.0246 0.78094 0.41689 0.0
Co28 Co 0.55867 0.72831 0.65733 0.0
O29 O 0.5251 0.72091 0.65504 0.0
O30 O 0.54752 0.71943 0.68693 0.0
C31 C 0.55707 0.76333 0.63633 0.0
O32 O 0.59333 0.73587 0.66648 0.0
Co33 Co 0.59014 0.73 0.61499 0.0
O34 O 0.61193 0.74978 0.63564 0.0
C35 C 0.57179 0.68161 0.63231 0.0
C36 C 0.52656 0.7169 0.67683 0.0
C37 C 0.61079 0.74719 0.65709 0.0
O38 O 0.56566 0.69234 0.65071 0.0
O39 O 0.58031 0.69364 0.61553 0.0
O40 O 0.5521 0.76411 0.65774 0.0
O41 O 0.56094 0.74136 0.62811 0.0
Co42 Co 0.54037 0.25899 0.89185 0.0
O43 O 0.57514 0.25626 0.89546 0.0
O44 O 0.55469 0.24982 0.86329 0.0
C45 C 0.53754 0.29637 0.91069 0.0
O46 O 0.50491 0.26083 0.88015 0.0
Co47 Co 0.50588 0.26139 0.93199 0.0
O48 O 0.48165 0.27202 0.90866 0.0
C49 C 0.52745 0.21266 0.91973 0.0
C50 C 0.57544 0.25104 0.87388 0.0
C51 C 0.48454 0.26775 0.88765 0.0
O52 O 0.53649 0.2223 0.90169 0.0
O53 O 0.51627 0.22563 0.93417 0.0
O54 O 0.54348 0.29589 0.88955 0.0
O55 O 0.535 0.27467 0.91999 0.0
Co56 Co 0.15641 0.00181 0.26225 0.0
O57 O 0.15485 0.96649 0.26912 0.0
O58 O 0.18443 0.98556 0.25176 0.0
C59 C 0.14498 0.01531 0.29634 0.0
O60 O 0.16539 0.0372 0.25293 0.0
Co61 Co 0.11255 0.03676 0.26209 0.0
O62 O 0.13597 0.06446 0.25854 0.0
C63 C 0.1186 0.00159 0.22407 0.0
C64 C 0.1753 0.96489 0.25949 0.0
C65 C 0.15722 0.05964 0.2531 0.0
O66 O 0.13936 0.99547 0.23216 0.0
O67 O 0.10465 0.01654 0.23404 0.0
O68 O 0.16713 0.00933 0.29351 0.0
O69 O 0.13037 0.01143 0.27916 0.0
Co70 Co 0.2805 0.90496 0.53991 0.0
O71 O 0.24665 0.8984 0.53978 0.0
O72 O 0.26404 0.9333 0.55259 0.0
C73 C 0.28546 0.89163 0.50408 0.0
O74 O 0.31474 0.91905 0.54129 0.0
Co75 Co 0.31679 0.86183 0.53326 0.0
O76 O 0.33792 0.89031 0.52517 0.0
C77 C 0.29039 0.86544 0.57561 0.0
C78 C 0.24439 0.92063 0.54835 0.0
C79 C 0.33426 0.91258 0.53202 0.0
O80 O 0.28442 0.88822 0.5708 0.0
O81 O 0.30132 0.85128 0.56193 0.0
O82 O 0.27787 0.91424 0.50757 0.0
O83 O 0.28789 0.87772 0.52191 0.0
Co84 Co 0.40399 0.02681 0.75185 0.0
O85 O 0.40669 0.06269 0.75047 0.0
O86 O 0.37777 0.0404 0.7333 0.0
C87 C 0.41049 0.02369 0.78963 0.0
O88 O 0.39462 0.98966 0.75097 0.0
Co89 Co 0.44705 0.99445 0.76848 0.0
O90 O 0.42099 0.97001 0.77446 0.0
C91 C 0.4469 0.01764 0.72289 0.0
C92 C 0.38687 0.06237 0.73832 0.0
C93 C 0.40083 0.97091 0.76368 0.0
O94 O 0.42478 0.02363 0.72456 0.0
O95 O 0.45936 0.00773 0.7392 0.0
O96 O 0.3893 0.02893 0.78134 0.0
O97 O 0.42722 0.02284 0.77517 0.0
Co98 Co 0.30542 0.12266 0.01301 0.0
O99 O 0.33855 0.13098 0.0179 0.0
O100 O 0.31881 0.10218 0.03718 0.0
C101 C 0.30554 0.12067 0.97518 0.0
O102 O 0.27198 0.10784 0.01187 0.0
Co103 Co 0.27082 0.15852 0.98673 0.0
O104 O 0.24863 0.12913 0.98672 0.0
C105 C 0.29057 0.17228 0.03192 0.0
C106 C 0.33885 0.1138 0.03359 0.0
C107 C 0.25261 0.11031 -0.00031 0.0
O108 O 0.29687 0.14938 0.0352 0.0
O109 O 0.28205 0.18044 0.01284 0.0
O110 O 0.31247 0.10136 0.98714 0.0
O111 O 0.30096 0.14079 0.9863 0.0
Co112 Co 0.778 0.41001 0.03806 0.0
O113 O 0.74442 0.4018 0.03847 0.0
O114 O 0.76021 0.43862 0.04822 0.0
C115 C 0.78383 0.39334 0.00356 0.0
O116 O 0.81138 0.42618 0.03845 0.0
Co117 Co 0.81732 0.3695 0.03512 0.0
O118 O 0.83616 0.39817 0.02368 0.0
C119 C 0.79399 0.37803 0.07865 0.0
C120 C 0.74117 0.42468 0.04516 0.0
C121 C 0.83119 0.42053 0.02931 0.0
O122 O 0.78258 0.39701 0.07028 0.0
O123 O 0.80776 0.36424 0.06724 0.0
O124 O 0.77508 0.41576 0.00519 0.0
O125 O 0.78708 0.38136 0.02248 0.0
Co126 Co 0.90468 0.53295 0.25855 0.0
O127 O 0.90156 0.56869 0.25971 0.0
O128 O 0.87571 0.54312 0.24193 0.0
C129 C 0.91377 0.52749 0.29564 0.0
O130 O 0.9016 0.49486 0.25526 0.0
Co131 Co 0.95368 0.50851 0.27071 0.0
O132 O 0.93302 0.47843 0.27487 0.0
C133 C 0.94661 0.53551 0.22733 0.0
C134 C 0.88165 0.56592 0.24797 0.0
C135 C 0.91221 0.47636 0.26543 0.0
O136 O 0.92394 0.53616 0.23026 0.0
O137 O 0.9617 0.52729 0.24239 0.0
O138 O 0.89159 0.52953 0.28869 0.0
O139 O 0.9295 0.53134 0.28053 0.0
Co140 Co 0.81838 0.64333 0.51674 0.0
O141 O 0.85106 0.63446 0.51448 0.0
O142 O 0.82501 0.61444 0.5357 0.0
C143 C 0.80974 0.64845 0.47984 0.0
O144 O 0.78293 0.64672 0.52204 0.0
Co145 Co 0.80182 0.69659 0.50263 0.0
O146 O 0.76995 0.67986 0.50154 0.0
C147 C 0.828 0.68985 0.54619 0.0
C148 C 0.84669 0.61643 0.52862 0.0
C149 C 0.76603 0.65966 0.51247 0.0
O150 O 0.8273 0.66606 0.54287 0.0
O151 O 0.81972 0.7058 0.53172 0.0
O152 O 0.80988 0.62605 0.48859 0.0
O153 O 0.81786 0.6664 0.4929 0.0
Co154 Co 0.6509 0.49396 0.75681 0.0
O155 O 0.65004 0.45794 0.75959 0.0
O156 O 0.68077 0.48026 0.74777 0.0
C157 C 0.63552 0.5027 0.79066 0.0
O158 O 0.65944 0.53086 0.75308 0.0
Co159 Co 0.60513 0.52607 0.75524 0.0
O160 O 0.62753 0.55499 0.75873 0.0
C161 C 0.61645 0.49512 0.71567 0.0
C162 C 0.67175 0.4584 0.75251 0.0
C163 C 0.6498 0.55241 0.75584 0.0
O164 O 0.63743 0.49123 0.72457 0.0
O165 O 0.60028 0.50684 0.72608 0.0
O166 O 0.65801 0.49727 0.78938 0.0
O167 O 0.62276 0.50032 0.77198 0.0
Co168 Co 0.99404 0.82492 0.87712 0.0
O169 O 0.02287 0.84229 0.86985 0.0
O170 O 0.00411 0.81406 0.84774 0.0
C171 C 0.97426 0.85783 0.89005 0.0
O172 O 0.96379 0.80402 0.87898 0.0
Co173 Co 0.97909 0.82292 0.92786 0.0
O174 O 0.95222 0.8019 0.91533 0.0
C175 C 0.01931 0.79334 0.91332 0.0
C176 C 0.02215 0.82935 0.85114 0.0
C177 C 0.94966 0.79632 0.89429 0.0
O178 O 0.01302 0.79713 0.89232 0.0
O179 O 0.01055 0.80556 0.9297 0.0
O180 O 0.9747 0.85435 0.86818 0.0
O181 O 0.98775 0.84359 0.90249 0.0
Co182 Co 0.02007 0.26465 0.65861 0.0
O183 O 0.98539 0.26524 0.65471 0.0
O184 O 0.00445 0.25468 0.68661 0.0
C185 C 0.02602 0.30274 0.64173 0.0
O186 O 0.05567 0.26332 0.66981 0.0
Co187 Co 0.05273 0.26567 0.61692 0.0
O188 O 0.0794 0.26793 0.63994 0.0
C189 C 0.02769 0.21871 0.62852 0.0
C190 C 0.98408 0.25872 0.67588 0.0
C191 C 0.07658 0.2653 0.66121 0.0
O192 O 0.02102 0.22829 0.64745 0.0
O193 O 0.03847 0.23124 0.61339 0.0
O194 O 0.02023 0.30135 0.66289 0.0
O195 O 0.02636 0.28154 0.63123 0.0
Co196 Co 0.50882 0.3192 0.38259 0.0
O197 O 0.54046 0.33089 0.39079 0.0
O198 O 0.53169 0.29982 0.36671 0.0
C199 C 0.49478 0.3583 0.37718 0.0
O200 O 0.47896 0.30249 0.36938 0.0
Co201 Co 0.46528 0.33285 0.41025 0.0
O202 O 0.44608 0.3179 0.38466 0.0
C203 C 0.49878 0.29426 0.42748 0.0
C204 C 0.54779 0.3143 0.37658 0.0
C205 C 0.45621 0.30397 0.37044 0.0
O206 O 0.50963 0.29498 0.40863 0.0
O207 O 0.48197 0.30928 0.43221 0.0
O208 O 0.50531 0.34669 0.36099 0.0
O209 O 0.4934 0.34598 0.39605 0.0
Co210 Co 0.50858 0.76003 0.15583 0.0
O211 O 0.47395 0.75932 0.15171 0.0
O212 O 0.49321 0.74884 0.18355 0.0
C213 C 0.5128 0.79873 0.13978 0.0
O214 O 0.54409 0.75995 0.16735 0.0
Co215 Co 0.54207 0.76444 0.11489 0.0
O216 O 0.5682 0.76774 0.13826 0.0
C217 C 0.52036 0.71518 0.12576 0.0
C218 C 0.47278 0.75256 0.17282 0.0
C219 C 0.56504 0.76378 0.15929 0.0
O220 O 0.51106 0.7241 0.14386 0.0
O221 O 0.53186 0.72854 0.11171 0.0
O222 O 0.50721 0.79647 0.16092 0.0
O223 O 0.51431 0.7779 0.12884 0.0
Co224 Co 0.9025 0.00698 0.81058 0.0
O225 O 0.90348 0.04234 0.80418 0.0
O226 O 0.87248 0.01723 0.79639 0.0
C227 C 0.91726 0.01103 0.84636 0.0
O228 O 0.89423 0.9701 0.81536 0.0
Co229 Co 0.94753 0.97636 0.82345 0.0
O230 O 0.92503 0.94908 0.83136 0.0
C231 C 0.93676 0.98986 0.77514 0.0
C232 C 0.88147 0.03983 0.79678 0.0
C233 C 0.90329 0.95012 0.82432 0.0
O234 O 0.91652 0.99919 0.78029 0.0
O235 O 0.952 0.98163 0.79008 0.0
O236 O 0.89463 0.01403 0.84187 0.0
O237 O 0.93049 0.00696 0.82928 0.0
Co238 Co 0.7913 0.12069 0.48639 0.0
O239 O 0.82553 0.1228 0.48987 0.0
O240 O 0.80402 0.08846 0.49569 0.0
C241 C 0.7898 0.14104 0.45261 0.0
O242 O 0.75601 0.11108 0.48473 0.0
Co243 Co 0.75963 0.16814 0.48269 0.0
O244 O 0.73253 0.14432 0.47737 0.0
C245 C 0.78087 0.15211 0.52725 0.0
C246 C 0.82495 0.09918 0.4952 0.0
C247 C 0.73533 0.12097 0.48112 0.0
O248 O 0.78781 0.13127 0.51885 0.0
O249 O 0.77172 0.16997 0.51531 0.0
O250 O 0.79371 0.11705 0.45342 0.0
O251 O 0.78772 0.15189 0.472 0.0
Co252 Co 0.66324 0.02044 0.30891 0.0
O253 O 0.66006 0.98434 0.30795 0.0
O254 O 0.69353 0.00554 0.30247 0.0
C255 C 0.64291 0.025 0.34118 0.0
O256 O 0.6742 0.05696 0.30849 0.0
Co257 Co 0.62034 0.05681 0.30724 0.0
O258 O 0.64426 0.08405 0.31268 0.0
C259 C 0.63533 0.0314 0.26517 0.0
C260 C 0.68265 0.98396 0.30373 0.0
C261 C 0.66628 0.07941 0.3104 0.0
O262 O 0.65414 0.02269 0.27553 0.0
O263 O 0.61909 0.04338 0.27529 0.0
O264 O 0.6655 0.01954 0.34227 0.0
O265 O 0.63332 0.02664 0.32096 0.0
Co266 Co 0.76477 0.92324 0.00054 0.0
O267 O 0.73936 0.89907 0.99675 0.0
O268 O 0.74002 0.9308 0.02115 0.0
C269 C 0.76622 0.92839 0.96255 0.0
O270 O 0.78656 0.95265 0.00886 0.0
Co271 Co 0.81379 0.91665 0.98263 0.0
O272 O 0.81791 0.95324 0.98672 0.0
C273 C 0.80207 0.89159 0.02547 0.0
C274 C 0.72839 0.91205 0.01169 0.0
C275 C 0.80508 0.96365 0.00129 0.0
O276 O 0.78133 0.9016 0.02388 0.0
O277 O 0.81779 0.89463 0.01044 0.0
O278 O 0.752 0.94154 0.97461 0.0
O279 O 0.78006 0.91305 0.97395 0.0
Co280 Co 0.28815 0.62218 0.9894 0.0
O281 O 0.32254 0.62205 0.99136 0.0
O282 O 0.2994 0.58874 0.99643 0.0
C283 C 0.28525 0.64502 0.95699 0.0
O284 O 0.2525 0.61474 0.98901 0.0
Co285 Co 0.2591 0.67181 0.99025 0.0
O286 O 0.23067 0.64975 0.98464 0.0
C287 C 0.28154 0.65111 0.03263 0.0
C288 C 0.32083 0.59824 0.9958 0.0
C289 C 0.23236 0.62604 0.98687 0.0
O290 O 0.28685 0.63058 0.02262 0.0
O291 O 0.27296 0.67037 0.02226 0.0
O292 O 0.28845 0.6209 0.95603 0.0
O293 O 0.28524 0.65442 0.97713 0.0
Co294 Co 0.16218 0.51016 0.81667 0.0
O295 O 0.1586 0.47409 0.81636 0.0
O296 O 0.19221 0.49477 0.81013 0.0
C297 C 0.14253 0.515 0.84921 0.0
O298 O 0.17346 0.54655 0.81558 0.0
Co299 Co 0.11976 0.54722 0.81614 0.0
O300 O 0.14417 0.57404 0.8212 0.0
C301 C 0.13329 0.52132 0.77366 0.0
C302 C 0.1812 0.47336 0.81225 0.0
C303 C 0.16595 0.56909 0.81797 0.0
O304 O 0.15229 0.51217 0.78341 0.0
O305 O 0.11764 0.5336 0.78431 0.0
O306 O 0.16514 0.50965 0.85001 0.0
O307 O 0.13261 0.51673 0.82916 0.0
Co308 Co 0.24669 0.36413 0.50834 0.0
O309 O 0.21572 0.37551 0.51557 0.0
O310 O 0.24582 0.40018 0.50566 0.0
C311 C 0.23383 0.33296 0.48533 0.0
O312 O 0.28092 0.35906 0.49966 0.0
Co313 Co 0.26299 0.31006 0.52133 0.0
O314 O 0.29285 0.31946 0.50616 0.0
C315 C 0.26254 0.35012 0.55614 0.0
C316 C 0.22371 0.39792 0.51143 0.0
C317 C 0.29684 0.34184 0.49952 0.0
O318 O 0.25779 0.36678 0.54094 0.0
O319 O 0.26293 0.32651 0.55207 0.0
O320 O 0.23532 0.35578 0.47769 0.0
O321 O 0.23822 0.33006 0.50686 0.0
Co322 Co 0.39851 0.51109 0.31208 0.0
O323 O 0.39973 0.54637 0.30508 0.0
O324 O 0.36944 0.52072 0.29602 0.0
C325 C 0.41096 0.51582 0.34866 0.0
O326 O 0.38979 0.47436 0.31692 0.0
Co327 Co 0.44273 0.48049 0.32766 0.0
O328 O 0.41997 0.45268 0.33324 0.0
C329 C 0.43507 0.49344 0.27885 0.0
C330 C 0.37812 0.54343 0.29663 0.0
C331 C 0.39846 0.45405 0.32556 0.0
O332 O 0.41444 0.5026 0.28284 0.0
O333 O 0.44952 0.48554 0.29465 0.0
O334 O 0.38872 0.51922 0.34261 0.0
O335 O 0.42525 0.5111 0.33249 0.0
C336 C 0.00605 0.00719 0.99637 0.0
N337 N 0.98233 0.00075 0.06232 0.0
C338 C 0.97161 0.02297 0.05736 0.0
C339 C 0.94915 0.02809 0.06541 0.0
C340 C 0.93774 0.01036 0.07914 0.0
C341 C 0.95078 0.98919 0.08651 0.0
C342 C 0.97295 0.98444 0.07744 0.0
Zn343 Zn 0.01146 0.99166 0.04458 0.0
C344 C 0.00572 0.94305 0.0205 0.0
N345 N 0.07407 0.97517 0.00765 0.0
C346 C 0.07929 0.99205 0.99108 0.0
C347 C 0.09132 0.95984 0.0167 0.0
C348 C 0.11527 0.96392 0.01176 0.0
C349 C 0.12118 0.98329 0.99677 0.0
C350 C 0.1028 0.99612 0.98511 0.0
Zn351 Zn 0.04344 0.98159 0.02522 0.0
O352 O 0.99561 0.00833 0.01508 0.0
C353 C 0.048 0.03133 0.04787 0.0
O354 O 0.0266 0.99749 0.99601 0.0
H355 H 0.08703 0.94618 0.02954 0.0
H356 H 0.97972 0.03606 0.04584 0.0
H357 H 0.06589 0.0046 0.98419 0.0
O358 O 0.02733 0.02561 0.05432 0.0
O359 O 0.05893 0.01643 0.0352 0.0
H360 H 0.98199 0.96708 0.0815 0.0
O361 O 0.05907 0.96569 0.0548 0.0
O362 O 0.02727 0.97454 0.07372 0.0
O363 O 0.02731 0.94725 0.01534 0.0
O364 O 0.99548 0.95787 0.03387 0.0
C365 C 0.04809 0.96539 0.07324 0.0
H366 H 0.94011 0.04469 0.05909 0.0
H367 H 0.94318 0.97539 0.09772 0.0
H368 H 0.1291 0.9536 0.02101 0.0
H369 H 0.10671 0.01141 0.97363 0.0
C370 C 0.3132 0.75478 0.25157 0.0
N371 N 0.24624 0.72799 0.22748 0.0
C372 C 0.25064 0.74031 0.20779 0.0
C373 C 0.24847 0.72773 0.18705 0.0
C374 C 0.24222 0.70222 0.18679 0.0
C375 C 0.23603 0.69043 0.20704 0.0
C376 C 0.23783 0.70392 0.22737 0.0
Zn377 Zn 0.25989 0.74296 0.25707 0.0
C378 C 0.2835 0.70219 0.28496 0.0
N379 N 0.29239 0.77185 0.31797 0.0
C380 C 0.30406 0.79433 0.31711 0.0
C381 C 0.28608 0.76167 0.3381 0.0
C382 C 0.28978 0.77514 0.35825 0.0
C383 C 0.2999 0.79936 0.3576 0.0
C384 C 0.30802 0.80851 0.33686 0.0
Zn385 Zn 0.27843 0.7566 0.28866 0.0
O386 O 0.29402 0.7477 0.24099 0.0
C387 C 0.25548 0.7975 0.26026 0.0
O388 O 0.31225 0.76066 0.2725 0.0
H389 H 0.27677 0.74381 0.33835 0.0
H390 H 0.25775 0.75924 0.20829 0.0
H391 H 0.3088 0.8021 0.30087 0.0
O392 O 0.2489 0.77954 0.24721 0.0
O393 O 0.26827 0.79282 0.27801 0.0
H394 H 0.23438 0.6945 0.24322 0.0
O395 O 0.24404 0.75289 0.30445 0.0
O396 O 0.22618 0.73772 0.27354 0.0
O397 O 0.28879 0.71971 0.299 0.0
O398 O 0.27119 0.7072 0.26704 0.0
C399 C 0.22509 0.74466 0.29421 0.0
H400 H 0.25363 0.73721 0.17166 0.0
H401 H 0.23123 0.67069 0.20729 0.0
H402 H 0.28371 0.76722 0.37401 0.0
H403 H 0.31584 0.8271 0.33562 0.0
C404 C 0.52615 0.03027 0.57228 0.0
N405 N 0.55324 0.972 0.53424 0.0
C406 C 0.56812 0.96762 0.55259 0.0
C407 C 0.57306 0.94313 0.55936 0.0
C408 C 0.56258 0.92303 0.54709 0.0
C409 C 0.5486 0.9281 0.52731 0.0
C410 C 0.54408 0.95292 0.52118 0.0
Zn411 Zn 0.54182 0.00737 0.52876 0.0
C412 C 0.48867 0.00801 0.52111 0.0
N413 N 0.51713 0.08143 0.51929 0.0
C414 C 0.52494 0.09925 0.53445 0.0
C415 C 0.50428 0.08756 0.50005 0.0
C416 C 0.49994 0.11265 0.49482 0.0
C417 C 0.50872 0.13156 0.50967 0.0
C418 C 0.52075 0.12454 0.53003 0.0
Zn419 Zn 0.52804 0.04568 0.52418 0.0
O420 O 0.53602 0.01103 0.56421 0.0
C421 C 0.58131 0.04428 0.53086 0.0
O422 O 0.52122 0.04857 0.55917 0.0
H423 H 0.49833 0.07304 0.48826 0.0
H424 H 0.57512 0.98313 0.56272 0.0
H425 H 0.53525 0.09393 0.54958 0.0
O426 O 0.57716 0.02089 0.53215 0.0
O427 O 0.56387 0.05935 0.52933 0.0
H428 H 0.53234 0.95693 0.50663 0.0
O429 O 0.53548 0.04264 0.48912 0.0
O430 O 0.54748 0.00386 0.49362 0.0
O431 O 0.49209 0.03151 0.51868 0.0
O432 O 0.50655 0.99393 0.52486 0.0
C433 C 0.54442 0.02294 0.48091 0.0
H434 H 0.5837 0.94005 0.57487 0.0
H435 H 0.54043 0.91306 0.51727 0.0
H436 H 0.49086 0.11717 0.47877 0.0
H437 H 0.52751 0.13846 0.5421 0.0
C438 C 0.29774 0.2215 0.75297 0.0
N439 N 0.2585 0.23386 0.81018 0.0
C440 C 0.24677 0.2127 0.80282 0.0
C441 C 0.24084 0.19398 0.8182 0.0
C442 C 0.24691 0.19722 0.84133 0.0
C443 C 0.2572 0.22013 0.84869 0.0
C444 C 0.26298 0.23831 0.83268 0.0
Zn445 Zn 0.27355 0.25572 0.7863 0.0
C446 C 0.32514 0.26802 0.79782 0.0
N447 N 0.30559 0.29654 0.73383 0.0
C448 C 0.30431 0.28908 0.71175 0.0
C449 C 0.31612 0.31873 0.74019 0.0
C450 C 0.32438 0.33528 0.72381 0.0
C451 C 0.32231 0.32847 0.70085 0.0
C452 C 0.31283 0.30476 0.69491 0.0
Zn453 Zn 0.29008 0.27523 0.75773 0.0
O454 O 0.28601 0.22244 0.77099 0.0
C455 C 0.23848 0.26308 0.7463 0.0
O456 O 0.30237 0.24178 0.74261 0.0
H457 H 0.31724 0.32411 0.75793 0.0
H458 H 0.24344 0.20952 0.78482 0.0
H459 H 0.29579 0.27142 0.70711 0.0
O460 O 0.24076 0.2538 0.76619 0.0
O461 O 0.25669 0.27329 0.7376 0.0
H462 H 0.27244 0.2552 0.83807 0.0
O463 O 0.27743 0.30811 0.77258 0.0
O464 O 0.2611 0.28951 0.80145 0.0
O465 O 0.32292 0.27736 0.77795 0.0
O466 O 0.30691 0.25769 0.80634 0.0
C467 C 0.26541 0.30947 0.79037 0.0
H468 H 0.23289 0.17658 0.81195 0.0
H469 H 0.26248 0.22317 0.8664 0.0
H470 H 0.33136 0.35354 0.72889 0.0
H471 H 0.31048 0.29911 0.67726 0.0
C472 C 0.07876 0.99229 0.54088 0.0
N473 N 0.0501 0.03217 0.48558 0.0
C474 C 0.07081 0.04578 0.48677 0.0
C475 C 0.08262 0.05172 0.46693 0.0
C476 C 0.07283 0.04357 0.44593 0.0
C477 C 0.05064 0.03122 0.44503 0.0
C478 C 0.03944 0.02572 0.46522 0.0
Zn479 Zn 0.03791 0.01559 0.51418 0.0
C480 C 0.02754 0.95997 0.50446 0.0
N481 N 0.01416 0.97855 0.57354 0.0
C482 C 0.02763 0.98392 0.5927 0.0
C483 C 0.99162 0.96896 0.57479 0.0
C484 C 0.9811 0.96655 0.59591 0.0
C485 C 0.99397 0.97418 0.61572 0.0
C486 C 0.01788 0.98175 0.61402 0.0
Zn487 Zn 0.02589 0.99404 0.54405 0.0
O488 O 0.07358 0.00649 0.52409 0.0
C489 C 0.0356 0.04984 0.5534 0.0
O490 O 0.06201 0.98387 0.55283 0.0
H491 H 0.98112 0.96502 0.55936 0.0
H492 H 0.07904 0.05053 0.50316 0.0
H493 H 0.04531 0.99194 0.59144 0.0
O494 O 0.04064 0.05034 0.53248 0.0
O495 O 0.02993 0.02895 0.56226 0.0
H496 H 0.02309 0.01474 0.46469 0.0
O497 O 0.99057 0.0045 0.53494 0.0
O498 O 0.00187 0.02445 0.50449 0.0
O499 O 0.02126 0.95944 0.52509 0.0
O500 O 0.03513 0.98052 0.49624 0.0
C501 C 0.98532 0.01748 0.51737 0.0
H502 H 0.09991 0.061 0.46809 0.0
H503 H 0.04283 0.02448 0.429 0.0
H504 H 0.9626 0.96057 0.59656 0.0
H505 H 0.02853 0.98736 0.62896 0.0
C506 C 0.27428 0.78026 0.72691 0.0
N507 N 0.3279 0.74252 0.7644 0.0
C508 C 0.33038 0.72649 0.74668 0.0
C509 C 0.35293 0.71762 0.74162 0.0
C510 C 0.37299 0.72554 0.75484 0.0
C511 C 0.36975 0.74116 0.77362 0.0
C512 C 0.34691 0.74943 0.77816 0.0
Zn513 Zn 0.29578 0.75843 0.76961 0.0
C514 C 0.3018 0.81344 0.77855 0.0
N515 N 0.22913 0.79278 0.78048 0.0
C516 C 0.21073 0.78787 0.7653 0.0
C517 C 0.22583 0.80624 0.79972 0.0
C518 C 0.20305 0.81439 0.80479 0.0
C519 C 0.1836 0.80878 0.78981 0.0
C520 C 0.18771 0.79587 0.76959 0.0
Zn521 Zn 0.26141 0.7771 0.77527 0.0
O522 O 0.29162 0.76695 0.73435 0.0
C523 C 0.25599 0.72185 0.76733 0.0
O524 O 0.25833 0.78673 0.74044 0.0
H525 H 0.24074 0.80995 0.8115 0.0
H526 H 0.31499 0.7213 0.73598 0.0
H527 H 0.21373 0.77693 0.75021 0.0
O528 O 0.27851 0.72333 0.76582 0.0
O529 O 0.24404 0.7418 0.76948 0.0
H530 H 0.34448 0.76208 0.79223 0.0
O531 O 0.26474 0.76674 0.81016 0.0
O532 O 0.29972 0.75024 0.80451 0.0
O533 O 0.27938 0.81241 0.78132 0.0
O534 O 0.31275 0.79344 0.77398 0.0
C535 C 0.28289 0.75475 0.81771 0.0
H536 H 0.35481 0.7058 0.72683 0.0
H537 H 0.38483 0.74754 0.78425 0.0
H538 H 0.20055 0.82449 0.82048 0.0
H539 H 0.17311 0.79096 0.75776 0.0
C540 C 0.51947 0.95936 0.04809 0.0
N541 N 0.55944 0.02402 0.06263 0.0
C542 C 0.5498 0.02062 0.0833 0.0
C543 C 0.56395 0.02291 0.10311 0.0
C544 C 0.58821 0.02893 0.10169 0.0
C545 C 0.59751 0.03413 0.08038 0.0
C546 C 0.58266 0.03139 0.06081 0.0
Zn547 Zn 0.53927 0.01106 0.03545 0.0
C548 C 0.56797 0.97735 0.00712 0.0
N549 N 0.4977 0.97819 0.98112 0.0
C550 C 0.47403 0.97319 0.98346 0.0
C551 C 0.50758 0.9778 0.96035 0.0
C552 C 0.49329 0.97371 0.94077 0.0
C553 C 0.46856 0.97049 0.94257 0.0
C554 C 0.45898 0.96952 0.96424 0.0
Zn555 Zn 0.51797 0.99184 0.00797 0.0
O556 O 0.53258 0.97777 0.05462 0.0
C557 C 0.48888 0.02499 0.0368 0.0
O558 O 0.50919 0.96013 0.02843 0.0
H559 H 0.52632 0.98224 0.95881 0.0
H560 H 0.53143 0.0145 0.08442 0.0
H561 H 0.46654 0.97352 0.00013 0.0
O562 O 0.50848 0.02829 0.04798 0.0
O563 O 0.48834 0.0111 0.01929 0.0
H564 H 0.58999 0.03373 0.04418 0.0
O565 O 0.52704 0.02429 0.98761 0.0
O566 O 0.54598 0.04379 0.01586 0.0
O567 O 0.54791 0.97217 0.99746 0.0
O568 O 0.56951 0.99375 0.02274 0.0
C569 C 0.53829 0.04364 0.9952 0.0
H570 H 0.55626 0.01897 0.11938 0.0
H571 H 0.61623 0.03885 0.07884 0.0
H572 H 0.50124 0.97499 0.92429 0.0
H573 H 0.43994 0.96715 0.96619 0.0
C574 C 0.26874 0.20492 0.25679 0.0
N575 N 0.3091 0.25769 0.22199 0.0
C576 C 0.32006 0.23824 0.21188 0.0
C577 C 0.32493 0.23942 0.18888 0.0
C578 C 0.31807 0.26064 0.17618 0.0
C579 C 0.30839 0.28118 0.18735 0.0
C580 C 0.30422 0.27937 0.21053 0.0
Zn581 Zn 0.29591 0.25218 0.25322 0.0
C582 C 0.247 0.27306 0.25495 0.0
N583 N 0.26672 0.2417 0.31779 0.0
C584 C 0.27086 0.21936 0.32847 0.0
C585 C 0.25234 0.25923 0.3267 0.0
C586 C 0.2416 0.25469 0.34724 0.0
C587 C 0.24598 0.23207 0.35884 0.0
C588 C 0.26081 0.21424 0.34933 0.0
Zn589 Zn 0.28073 0.2482 0.28711 0.0
O590 O 0.27997 0.21731 0.24206 0.0
C591 C 0.32981 0.22752 0.28474 0.0
O592 O 0.26712 0.21374 0.27663 0.0
H593 H 0.24938 0.27686 0.31796 0.0
H594 H 0.32358 0.22112 0.22126 0.0
H595 H 0.28211 0.20555 0.32089 0.0
O596 O 0.3271 0.23396 0.26405 0.0
O597 O 0.31299 0.23125 0.29819 0.0
H598 H 0.29566 0.29467 0.219 0.0
O599 O 0.29492 0.28319 0.29797 0.0
O600 O 0.31146 0.28674 0.26486 0.0
O601 O 0.24838 0.26531 0.27537 0.0
O602 O 0.26474 0.27037 0.2425 0.0
C603 C 0.30818 0.29533 0.28468 0.0
H604 H 0.33205 0.22303 0.18072 0.0
H605 H 0.30282 0.29778 0.17799 0.0
H606 H 0.23081 0.2692 0.3545 0.0
H607 H 0.26485 0.19682 0.3581 0.0
C608 C 0.57271 0.48958 0.03842 0.0
N609 N 0.53867 0.52364 0.98187 0.0
C610 C 0.55964 0.5364 0.97976 0.0
C611 C 0.56897 0.5401 0.95826 0.0
C612 C 0.55657 0.53046 0.93893 0.0
C613 C 0.53407 0.51924 0.94151 0.0
C614 C 0.52545 0.51595 0.96323 0.0
Zn615 Zn 0.52935 0.50944 0.01265 0.0
C616 C 0.52102 0.45276 0.00706 0.0
N617 N 0.51107 0.47599 0.0758 0.0
C618 C 0.52526 0.48357 0.09386 0.0
C619 C 0.48923 0.46535 0.07895 0.0
C620 C 0.4802 0.46387 0.10082 0.0
C621 C 0.4938 0.4735 0.11948 0.0
C622 C 0.51701 0.48238 0.11588 0.0
Zn623 Zn 0.52036 0.48938 0.04452 0.0
O624 O 0.5659 0.50158 0.02067 0.0
C625 C 0.52814 0.54614 0.04991 0.0
O626 O 0.55718 0.48223 0.05222 0.0
H627 H 0.47807 0.45969 0.0644 0.0
H628 H 0.56994 0.54222 0.99481 0.0
H629 H 0.54234 0.49244 0.09112 0.0
O630 O 0.53257 0.54559 0.02882 0.0
O631 O 0.52328 0.52566 0.05989 0.0
H632 H 0.50892 0.50568 0.96524 0.0
O633 O 0.48362 0.49712 0.03619 0.0
O634 O 0.49304 0.51692 0.00502 0.0
O635 O 0.51762 0.453 0.02839 0.0
O636 O 0.52556 0.47327 0.99697 0.0
C637 C 0.47726 0.50952 0.01851 0.0
H638 H 0.58643 0.54878 0.95697 0.0
H639 H 0.52383 0.51186 0.92697 0.0
H640 H 0.46219 0.45688 0.10285 0.0
H641 H 0.52826 0.48955 0.12984 0.0
C642 C 0.78379 0.28976 0.22817 0.0
N643 N 0.83706 0.24073 0.2532 0.0
C644 C 0.83455 0.22634 0.23413 0.0
C645 C 0.85444 0.21484 0.22518 0.0
C646 C 0.87702 0.21848 0.23589 0.0
C647 C 0.87893 0.2327 0.25595 0.0
C648 C 0.85861 0.24365 0.26439 0.0
Zn649 Zn 0.80873 0.25962 0.26508 0.0
C650 C 0.82238 0.31209 0.27866 0.0
N651 N 0.74998 0.29937 0.28928 0.0
C652 C 0.72862 0.29832 0.27752 0.0
C653 C 0.75207 0.30954 0.31048 0.0
C654 C 0.73182 0.31751 0.32134 0.0
C655 C 0.70934 0.31505 0.31017 0.0
C656 C 0.70794 0.30619 0.28768 0.0
Zn657 Zn 0.77817 0.28111 0.2769 0.0
O658 O 0.79959 0.27295 0.23138 0.0
C659 C 0.76462 0.2287 0.26438 0.0
O660 O 0.77171 0.29693 0.24473 0.0
H661 H 0.76928 0.31018 0.31947 0.0
H662 H 0.81722 0.22431 0.22554 0.0
H663 H 0.72742 0.29 0.26074 0.0
O664 O 0.78683 0.22742 0.261 0.0
O665 O 0.75557 0.2497 0.26917 0.0
H666 H 0.86014 0.25501 0.27961 0.0
O667 O 0.78455 0.26468 0.30898 0.0
O668 O 0.81716 0.24623 0.29857 0.0
O669 O 0.80088 0.31228 0.28483 0.0
O670 O 0.83045 0.29225 0.26991 0.0
C671 C 0.80186 0.25014 0.31354 0.0
H672 H 0.85237 0.20417 0.20955 0.0
H673 H 0.89606 0.23576 0.26473 0.0
H674 H 0.73356 0.32447 0.33863 0.0
H675 H 0.69087 0.30378 0.2786 0.0
C676 C 0.03547 0.46221 0.54806 0.0
N677 N 0.05782 0.53322 0.56973 0.0
C678 C 0.04738 0.5253 0.58901 0.0
C679 C 0.05989 0.52631 0.60984 0.0
C680 C 0.08335 0.53561 0.61091 0.0
C681 C 0.09302 0.54591 0.59129 0.0
C682 C 0.07983 0.54442 0.5706 0.0
Zn683 Zn 0.04303 0.51873 0.54019 0.0
C684 C 0.08102 0.49924 0.51114 0.0
N685 N 0.0137 0.48169 0.48136 0.0
C686 C 0.99255 0.46902 0.48246 0.0
C687 C 0.02324 0.48733 0.46103 0.0
C688 C 0.01059 0.4818 0.44075 0.0
C689 C 0.9878 0.47076 0.4415 0.0
C690 C 0.97909 0.46355 0.46259 0.0
Zn691 Zn 0.02858 0.49755 0.51013 0.0
O692 O 0.04314 0.48265 0.5569 0.0
C693 C 0.9906 0.51729 0.53942 0.0
O694 O 0.02753 0.46234 0.52752 0.0
H695 H 0.03992 0.49767 0.46054 0.0
H696 H 0.03014 0.51602 0.58804 0.0
H697 H 0.98534 0.46462 0.4988 0.0
O698 O 0.00837 0.52556 0.55126 0.0
O699 O 0.99415 0.50541 0.52119 0.0
H700 H 0.08792 0.55036 0.55506 0.0
O701 O 0.02949 0.53321 0.49297 0.0
O702 O 0.04296 0.55438 0.52285 0.0
O703 O 0.06346 0.48995 0.49957 0.0
O704 O 0.07717 0.51195 0.52881 0.0
C705 C 0.03609 0.55404 0.5019 0.0
H706 H 0.05184 0.51847 0.62477 0.0
H707 H 0.11111 0.55331 0.59165 0.0
H708 H 0.01769 0.48796 0.42478 0.0
H709 H 0.96154 0.45504 0.46373 0.0
C710 C 0.78572 0.72223 0.24941 0.0
N711 N 0.75101 0.74775 0.30588 0.0
C712 C 0.73733 0.72665 0.30307 0.0
C713 C 0.73039 0.71295 0.32191 0.0
C714 C 0.73758 0.72116 0.34375 0.0
C715 C 0.74997 0.74411 0.34622 0.0
C716 C 0.75664 0.75717 0.32689 0.0
Zn717 Zn 0.76576 0.76271 0.27802 0.0
C718 C 0.81861 0.77364 0.28609 0.0
N719 N 0.79602 0.79166 0.21818 0.0
C720 C 0.78973 0.78006 0.19823 0.0
C721 C 0.81074 0.81213 0.21876 0.0
C722 C 0.81926 0.82207 0.19857 0.0
C723 C 0.81252 0.81082 0.17765 0.0
C724 C 0.79777 0.78936 0.17772 0.0
Zn725 Zn 0.78179 0.77782 0.24704 0.0
O726 O 0.77473 0.72609 0.26753 0.0
C727 C 0.72879 0.76656 0.23986 0.0
O728 O 0.79089 0.74082 0.23694 0.0
H729 H 0.81554 0.82099 0.23486 0.0
H730 H 0.73299 0.71956 0.28618 0.0
H731 H 0.778 0.76383 0.19815 0.0
O732 O 0.73179 0.75984 0.26048 0.0
O733 O 0.74681 0.77472 0.2294 0.0
H734 H 0.76753 0.77397 0.32864 0.0
O735 O 0.77249 0.81448 0.25726 0.0
O736 O 0.75702 0.79967 0.28834 0.0
O737 O 0.8164 0.78096 0.26544 0.0
O738 O 0.80014 0.76536 0.29573 0.0
C739 C 0.76175 0.81823 0.2756 0.0
H740 H 0.72088 0.69531 0.31942 0.0
H741 H 0.75616 0.75083 0.36282 0.0
H742 H 0.83072 0.83855 0.19931 0.0
H743 H 0.7917 0.78035 0.16202 0.0
C744 C 0.82273 0.25646 0.7521 0.0
N745 N 0.75636 0.22888 0.72654 0.0
C746 C 0.76078 0.24189 0.7072 0.0
C747 C 0.75802 0.23026 0.68605 0.0
C748 C 0.75114 0.20495 0.68497 0.0
C749 C 0.74527 0.19235 0.70491 0.0
C750 C 0.7477 0.20491 0.72571 0.0
Zn751 Zn 0.7694 0.24328 0.75663 0.0
C752 C 0.79268 0.20249 0.78429 0.0
N753 N 0.80026 0.2719 0.81847 0.0
C754 C 0.8111 0.29487 0.81857 0.0
C755 C 0.7941 0.26055 0.83813 0.0
C756 C 0.79705 0.2732 0.8588 0.0
C757 C 0.80627 0.29781 0.85917 0.0
C758 C 0.81431 0.30825 0.83888 0.0
Zn759 Zn 0.78711 0.25729 0.78853 0.0
O760 O 0.80396 0.24863 0.74125 0.0
C761 C 0.76381 0.29794 0.76023 0.0
O762 O 0.82115 0.26249 0.77294 0.0
H763 H 0.78541 0.24234 0.83763 0.0
H764 H 0.7681 0.26071 0.70824 0.0
H765 H 0.81575 0.30358 0.8027 0.0
O766 O 0.75835 0.27975 0.74704 0.0
O767 O 0.77622 0.29376 0.77834 0.0
H768 H 0.74429 0.19491 0.74128 0.0
O769 O 0.75266 0.2525 0.80378 0.0
O770 O 0.73528 0.23752 0.77257 0.0
O771 O 0.79792 0.22007 0.79831 0.0
O772 O 0.78052 0.20748 0.76628 0.0
C773 C 0.7339 0.24414 0.79331 0.0
H774 H 0.76297 0.24031 0.67089 0.0
H775 H 0.74004 0.17273 0.70451 0.0
H776 H 0.79105 0.2643 0.87416 0.0
H777 H 0.82143 0.32721 0.83841 0.0
C778 C 0.75322 0.70574 0.78307 0.0
N779 N 0.81407 0.73392 0.75117 0.0
C780 C 0.81921 0.70951 0.74695 0.0
C781 C 0.82987 0.70295 0.72674 0.0
C782 C 0.83536 0.72176 0.71097 0.0
C783 C 0.83142 0.74689 0.71656 0.0
C784 C 0.82055 0.75257 0.73677 0.0
Zn785 Zn 0.79286 0.7434 0.777 0.0
C786 C 0.75144 0.77255 0.75899 0.0
N787 N 0.7471 0.76556 0.82955 0.0
C788 C 0.75851 0.77149 0.84971 0.0
C789 C 0.7245 0.77372 0.82453 0.0
C790 C 0.71396 0.79121 0.83864 0.0
C791 C 0.72652 0.79937 0.85837 0.0
C792 C 0.74831 0.78813 0.86459 0.0
Zn793 Zn 0.76822 0.75343 0.80416 0.0
O794 O 0.77148 0.71055 0.77152 0.0
C795 C 0.81017 0.72436 0.82164 0.0
O796 O 0.7475 0.72071 0.79875 0.0
H797 H 0.71552 0.76866 0.80858 0.0
H798 H 0.81391 0.69501 0.75867 0.0
H799 H 0.77664 0.76563 0.85331 0.0
O800 O 0.81522 0.72461 0.80076 0.0
O801 O 0.79079 0.73413 0.8276 0.0
H802 H 0.81601 0.77181 0.74025 0.0
O803 O 0.78927 0.78618 0.80976 0.0
O804 O 0.81366 0.77642 0.78307 0.0
O805 O 0.74629 0.77251 0.7798 0.0
O806 O 0.77049 0.76211 0.75319 0.0
C807 C 0.80776 0.79118 0.79877 0.0
H808 H 0.83272 0.68334 0.72297 0.0
H809 H 0.83502 0.76189 0.70467 0.0
H810 H 0.6971 0.7996 0.83338 0.0
H811 H 0.75869 0.79432 0.87952 0.0
C812 C 0.49724 0.52329 0.49793 0.0
N813 N 0.48961 0.46036 0.53894 0.0
C814 C 0.46719 0.4689 0.54218 0.0
C815 C 0.44759 0.45263 0.5398 0.0
C816 C 0.4512 0.4275 0.53383 0.0
C817 C 0.47462 0.41879 0.5323 0.0
C818 C 0.49372 0.43563 0.53508 0.0
Zn819 Zn 0.51604 0.48566 0.53276 0.0
C820 C 0.5406 0.47088 0.49012 0.0
N821 N 0.56946 0.53774 0.51382 0.0
C822 C 0.56585 0.56294 0.51425 0.0
C823 C 0.59131 0.52812 0.50988 0.0
C824 C 0.61075 0.54399 0.50668 0.0
C825 C 0.60775 0.57009 0.50749 0.0
C826 C 0.58488 0.57957 0.51111 0.0
Zn827 Zn 0.54301 0.51296 0.52098 0.0
O828 O 0.49162 0.50529 0.51093 0.0
C829 C 0.51866 0.52866 0.56295 0.0
O830 O 0.51859 0.53161 0.49876 0.0
H831 H 0.59382 0.50803 0.50979 0.0
H832 H 0.46433 0.48869 0.54493 0.0
H833 H 0.54831 0.57013 0.51748 0.0
O834 O 0.50731 0.50797 0.56114 0.0
O835 O 0.53354 0.53498 0.54822 0.0
H836 H 0.51169 0.42928 0.53251 0.0
O837 O 0.56711 0.49394 0.5438 0.0
O838 O 0.54038 0.46646 0.55444 0.0
O839 O 0.55213 0.49115 0.49338 0.0
O840 O 0.52536 0.46388 0.5043 0.0
C841 C 0.56139 0.4756 0.55641 0.0
H842 H 0.42974 0.46005 0.54098 0.0
H843 H 0.47805 0.39945 0.52795 0.0
H844 H 0.62812 0.53583 0.5044 0.0
H845 H 0.58179 0.59958 0.51172 0.0
C846 C 0.01911 0.54838 0.07495 0.0
N847 N 0.0462 0.48311 0.04793 0.0
C848 C 0.05855 0.48125 0.06823 0.0
C849 C 0.06065 0.4581 0.07913 0.0
C850 C 0.04996 0.43679 0.06895 0.0
C851 C 0.03866 0.43902 0.04732 0.0
C852 C 0.03691 0.46252 0.03708 0.0
Zn853 Zn 0.03719 0.51742 0.03596 0.0
C854 C 0.98409 0.51844 0.02499 0.0
N855 N 0.01545 0.58944 0.01408 0.0
C856 C 0.02703 0.60958 0.02369 0.0
C857 C 0.00345 0.59122 0.99358 0.0
C858 C 0.0045 0.61341 0.98103 0.0
C859 C 0.0183 0.63353 0.98966 0.0
C860 C 0.02893 0.63191 0.01154 0.0
Zn861 Zn 0.02376 0.55487 0.0263 0.0
O862 O 0.02927 0.5282 0.0694 0.0
C863 C 0.07706 0.55288 0.03634 0.0
O864 O 0.01455 0.56482 0.05976 0.0
H865 H 0.99472 0.57484 0.98613 0.0
H866 H 0.06569 0.49794 0.07655 0.0
H867 H 0.03648 0.6077 0.03998 0.0
O868 O 0.0728 0.52982 0.03987 0.0
O869 O 0.05978 0.56762 0.03211 0.0
H870 H 0.02713 0.4645 0.02097 0.0
O871 O 0.03356 0.54482 0.99308 0.0
O872 O 0.04514 0.50699 0.00265 0.0
O873 O 0.98784 0.5414 0.02022 0.0
O874 O 0.00158 0.5049 0.03149 0.0
C875 C 0.04282 0.52409 0.98772 0.0
H876 H 0.06944 0.45714 0.09583 0.0
H877 H 0.03061 0.42289 0.03872 0.0
H878 H 0.9961 0.61423 0.96414 0.0
H879 H 0.03952 0.64733 0.01866 0.0
C880 C 0.08787 0.14692 0.12129 0.0
C881 C 0.09236 0.16817 0.10797 0.0
C882 C 0.08675 0.12298 0.11147 0.0
C883 C 0.08967 0.12049 0.08779 0.0
C884 C 0.0969 0.14141 0.07487 0.0
C885 C 0.09833 0.16505 0.08518 0.0
C886 C 0.07999 0.10081 0.12596 0.0
C887 C 0.1004 0.13941 0.04961 0.0
C888 C 0.08406 0.05589 0.06082 0.0
C889 C 0.05939 0.05468 0.05598 0.0
C890 C 0.09451 0.07735 0.071 0.0
C891 C 0.07985 0.09799 0.07593 0.0
C892 C 0.05508 0.09712 0.07008 0.0
C893 C 0.04512 0.07532 0.06043 0.0
C894 C 0.12086 0.07735 0.07742 0.0
C895 C 0.03891 0.119 0.07449 0.0
H896 H 0.08388 0.14911 0.13907 0.0
H897 H 0.10221 0.18132 0.07483 0.0
H898 H 0.06077 0.09628 0.12281 0.0
H899 H 0.09035 0.08401 0.12147 0.0
H900 H 0.08302 0.10476 0.1444 0.0
H901 H 0.11014 0.15596 0.04297 0.0
H902 H 0.11036 0.1222 0.04554 0.0
H903 H 0.08267 0.13817 0.04055 0.0
H904 H 0.095 0.0397 0.05757 0.0
H905 H 0.02606 0.07433 0.05649 0.0
H906 H 0.12926 0.09584 0.074 0.0
H907 H 0.13046 0.06262 0.06814 0.0
H908 H 0.12323 0.07363 0.09594 0.0
H909 H 0.03811 0.12224 0.09308 0.0
H910 H 0.02042 0.11581 0.0675 0.0
H911 H 0.0461 0.13637 0.06676 0.0
C912 C 0.09092 0.76012 0.33782 0.0
C913 C 0.08852 0.7523 0.36044 0.0
C914 C 0.11299 0.75859 0.32704 0.0
C915 C 0.13313 0.74797 0.33874 0.0
C916 C 0.13053 0.73928 0.36137 0.0
C917 C 0.10852 0.74205 0.37207 0.0
C918 C 0.11492 0.76906 0.30331 0.0
C919 C 0.15105 0.72696 0.37432 0.0
C920 C 0.18444 0.72602 0.30201 0.0
C921 C 0.20178 0.74488 0.3059 0.0
C922 C 0.1624 0.72637 0.31303 0.0
C923 C 0.15698 0.74667 0.32756 0.0
C924 C 0.17435 0.76598 0.33116 0.0
C925 C 0.1966 0.76457 0.32073 0.0
C926 C 0.145 0.70486 0.30927 0.0
C927 C 0.16925 0.78851 0.34567 0.0
H928 H 0.07568 0.76832 0.32876 0.0
H929 H 0.10684 0.73584 0.38951 0.0
H930 H 0.12901 0.78385 0.30326 0.0
H931 H 0.12027 0.75412 0.2915 0.0
H932 H 0.09786 0.77723 0.29669 0.0
H933 H 0.14566 0.71927 0.39095 0.0
H934 H 0.15827 0.71149 0.36408 0.0
H935 H 0.16574 0.74077 0.37748 0.0
H936 H 0.18829 0.71068 0.29068 0.0
H937 H 0.20975 0.7794 0.32365 0.0
H938 H 0.12834 0.71168 0.30066 0.0
H939 H 0.14007 0.69682 0.32589 0.0
H940 H 0.15243 0.68971 0.29876 0.0
H941 H 0.15275 0.79784 0.33909 0.0
H942 H 0.18414 0.80245 0.34603 0.0
H943 H 0.1661 0.78251 0.36337 0.0
C944 C 0.56552 0.78398 0.59954 0.0
C945 C 0.55962 0.78607 0.62242 0.0
C946 C 0.5675 0.8053 0.58581 0.0
C947 C 0.56343 0.82919 0.59523 0.0
C948 C 0.55783 0.83146 0.61841 0.0
C949 C 0.55599 0.8098 0.63177 0.0
C950 C 0.57347 0.80224 0.56114 0.0
C951 C 0.55338 0.85673 0.62898 0.0
C952 C 0.58509 0.88848 0.56685 0.0
C953 C 0.56381 0.89736 0.55658 0.0
C954 C 0.58545 0.86579 0.57892 0.0
C955 C 0.56402 0.85179 0.58066 0.0
C956 C 0.54274 0.86006 0.56943 0.0
C957 C 0.54289 0.88281 0.55754 0.0
C958 C 0.60849 0.85735 0.59058 0.0
C959 C 0.51956 0.84553 0.57088 0.0
H960 H 0.56839 0.76563 0.59225 0.0
H961 H 0.55149 0.81144 0.64947 0.0
H962 H 0.55839 0.80891 0.55001 0.0
H963 H 0.58933 0.81389 0.55727 0.0
H964 H 0.57716 0.78242 0.55674 0.0
H965 H 0.55 0.8553 0.64743 0.0
H966 H 0.56898 0.86935 0.62675 0.0
H967 H 0.53772 0.86563 0.62026 0.0
H968 H 0.60133 0.8996 0.56593 0.0
H969 H 0.5263 0.88978 0.54995 0.0
H970 H 0.61234 0.83768 0.58589 0.0
H971 H 0.60672 0.85784 0.60931 0.0
H972 H 0.62392 0.8694 0.58616 0.0
H973 H 0.52209 0.82569 0.5659 0.0
H974 H 0.50505 0.8536 0.55981 0.0
H975 H 0.51375 0.84553 0.5887 0.0
C976 C 0.44406 0.28541 0.8777 0.0
C977 C 0.46284 0.26953 0.87203 0.0
C978 C 0.42227 0.2857 0.86492 0.0
C979 C 0.4187 0.26936 0.84608 0.0
C980 C 0.43774 0.25362 0.83993 0.0
C981 C 0.45963 0.25406 0.85282 0.0
C982 C 0.40286 0.30324 0.87192 0.0
C983 C 0.43472 0.23568 0.82018 0.0
C984 C 0.35347 0.25304 0.8294 0.0
C985 C 0.34895 0.26849 0.81037 0.0
C986 C 0.37615 0.25269 0.84077 0.0
C987 C 0.39484 0.26849 0.83328 0.0
C988 C 0.39032 0.28422 0.81416 0.0
C989 C 0.36762 0.28388 0.80288 0.0
C990 C 0.3801 0.23538 0.86087 0.0
C991 C 0.40942 0.30171 0.80576 0.0
H992 H 0.44632 0.29757 0.89241 0.0
H993 H 0.47385 0.24154 0.84839 0.0
H994 H 0.3968 0.31497 0.85724 0.0
H995 H 0.38717 0.29221 0.87735 0.0
H996 H 0.40887 0.3158 0.88612 0.0
H997 H 0.45136 0.22527 0.81706 0.0
H998 H 0.42029 0.22193 0.82359 0.0
H999 H 0.42926 0.24601 0.80447 0.0
H1000 H 0.33934 0.2409 0.83526 0.0
H1001 H 0.36442 0.29593 0.78824 0.0
H1002 H 0.38441 0.24654 0.87643 0.0
H1003 H 0.39556 0.22306 0.85805 0.0
H1004 H 0.36419 0.22342 0.86396 0.0
H1005 H 0.41501 0.31511 0.81943 0.0
H1006 H 0.40325 0.31255 0.79052 0.0
H1007 H 0.42545 0.29091 0.80144 0.0
C1008 C 0.01748 0.84814 0.41119 0.0
C1009 C 0.02726 0.82605 0.42037 0.0
C1010 C 0.01628 0.87017 0.42447 0.0
C1011 C 0.02601 0.87044 0.44716 0.0
C1012 C 0.03642 0.84825 0.45621 0.0
C1013 C 0.03645 0.82631 0.44292 0.0
C1014 C 0.00428 0.89305 0.41436 0.0
C1015 C 0.04789 0.84775 0.47987 0.0
C1016 C 0.0445 0.93338 0.47403 0.0
C1017 C 0.02686 0.937 0.49 0.0
C1018 C 0.04447 0.9119 0.46009 0.0
C1019 C 0.02578 0.89388 0.46141 0.0
C1020 C 0.00755 0.89777 0.47714 0.0
C1021 C 0.00857 0.91899 0.49155 0.0
C1022 C 0.0648 0.90821 0.44434 0.0
C1023 C 0.98687 0.87957 0.47866 0.0
H1024 H 0.01015 0.84797 0.39385 0.0
H1025 H 0.0442 0.80933 0.45006 0.0
H1026 H 0.98981 0.89919 0.42541 0.0
H1027 H 0.01731 0.90879 0.41351 0.0
H1028 H 0.99654 0.88949 0.39697 0.0
H1029 H 0.05619 0.82938 0.48402 0.0
H1030 H 0.06184 0.86263 0.48156 0.0
H1031 H 0.03437 0.8517 0.49265 0.0
H1032 H 0.05877 0.94717 0.47281 0.0
H1033 H 0.99473 0.92181 0.50365 0.0
H1034 H 0.05784 0.9068 0.42647 0.0
H1035 H 0.07398 0.89033 0.44851 0.0
H1036 H 0.07813 0.92376 0.44552 0.0
H1037 H 0.97826 0.87663 0.46154 0.0
H1038 H 0.9732 0.88623 0.49038 0.0
H1039 H 0.99341 0.86108 0.48477 0.0
C1040 C 0.48241 0.71324 0.67857 0.0
C1041 C 0.50495 0.71157 0.68963 0.0
C1042 C 0.46153 0.71178 0.69083 0.0
C1043 C 0.46325 0.70821 0.71469 0.0
C1044 C 0.48587 0.70468 0.72573 0.0
C1045 C 0.50655 0.70661 0.71306 0.0
C1046 C 0.43774 0.7158 0.67843 0.0
C1047 C 0.48831 0.70025 0.75106 0.0
C1048 C 0.4137 0.73978 0.74522 0.0
C1049 C 0.3973 0.72002 0.74747 0.0
C1050 C 0.43576 0.73587 0.73551 0.0
C1051 C 0.44166 0.7115 0.72815 0.0
C1052 C 0.42575 0.69116 0.73156 0.0
C1053 C 0.40355 0.69573 0.74097 0.0
C1054 C 0.45208 0.75814 0.73188 0.0
C1055 C 0.43172 0.66485 0.72438 0.0
H1056 H 0.48105 0.71688 0.66043 0.0
H1057 H 0.52395 0.70501 0.72163 0.0
H1058 H 0.42492 0.70069 0.68269 0.0
H1059 H 0.43007 0.73383 0.68394 0.0
H1060 H 0.43933 0.71632 0.65967 0.0
H1061 H 0.5065 0.69384 0.75637 0.0
H1062 H 0.48471 0.71794 0.76019 0.0
H1063 H 0.47505 0.68607 0.75646 0.0
H1064 H 0.40876 0.75863 0.74997 0.0
H1065 H 0.39089 0.68042 0.74289 0.0
H1066 H 0.45363 0.76154 0.71337 0.0
H1067 H 0.47027 0.75431 0.73907 0.0
H1068 H 0.44546 0.77553 0.73981 0.0
H1069 H 0.43071 0.66355 0.70554 0.0
H1070 H 0.41925 0.6507 0.73132 0.0
H1071 H 0.45024 0.6601 0.7301 0.0
C1072 C 0.54999 0.17157 0.91976 0.0
C1073 C 0.52975 0.18538 0.92509 0.0
C1074 C 0.55347 0.14705 0.92848 0.0
C1075 C 0.53628 0.13612 0.94274 0.0
C1076 C 0.51527 0.14956 0.94706 0.0
C1077 C 0.5123 0.17384 0.93823 0.0
C1078 C 0.57602 0.13331 0.92328 0.0
C1079 C 0.49629 0.13877 0.96193 0.0
C1080 C 0.53135 0.06668 0.95806 0.0
C1081 C 0.54077 0.06641 0.98057 0.0
C1082 C 0.53117 0.08885 0.94495 0.0
C1083 C 0.54052 0.11146 0.95453 0.0
C1084 C 0.55115 0.11099 0.97681 0.0
C1085 C 0.55118 0.08855 0.98951 0.0
C1086 C 0.5198 0.08835 0.92126 0.0
C1087 C 0.56132 0.13456 0.9878 0.0
H1088 H 0.56362 0.18033 0.90974 0.0
H1089 H 0.49643 0.18418 0.94223 0.0
H1090 H 0.58767 0.13212 0.93893 0.0
H1091 H 0.57178 0.11382 0.91775 0.0
H1092 H 0.58615 0.14287 0.90984 0.0
H1093 H 0.4804 0.15102 0.96261 0.0
H1094 H 0.49038 0.12004 0.95557 0.0
H1095 H 0.50378 0.13621 0.97952 0.0
H1096 H 0.52339 0.0497 0.95086 0.0
H1097 H 0.55863 0.08863 0.00679 0.0
H1098 H 0.5313 0.09826 0.90914 0.0
H1099 H 0.50249 0.09829 0.92121 0.0
H1100 H 0.51645 0.06889 0.91508 0.0
H1101 H 0.57362 0.14419 0.97622 0.0
H1102 H 0.57114 0.13064 0.00417 0.0
H1103 H 0.5466 0.1477 0.9911 0.0
C1104 C 0.12451 0.28912 0.18264 0.0
C1105 C 0.11911 0.26376 0.17869 0.0
C1106 C 0.1424 0.29616 0.19879 0.0
C1107 C 0.15584 0.27729 0.2102 0.0
C1108 C 0.14951 0.25167 0.20707 0.0
C1109 C 0.13084 0.24526 0.19162 0.0
C1110 C 0.14775 0.32368 0.2026 0.0
C1111 C 0.1637 0.23087 0.21851 0.0
C1112 C 0.22208 0.28366 0.22064 0.0
C1113 C 0.22403 0.28113 0.24438 0.0
C1114 C 0.19975 0.28441 0.2093 0.0
C1115 C 0.17889 0.28356 0.2221 0.0
C1116 C 0.18079 0.28435 0.24616 0.0
C1117 C 0.20344 0.2827 0.25711 0.0
C1118 C 0.19859 0.28339 0.18358 0.0
C1119 C 0.15892 0.28498 0.26033 0.0
H1120 H 0.11502 0.3034 0.17285 0.0
H1121 H 0.12654 0.22565 0.18849 0.0
H1122 H 0.15349 0.3274 0.22057 0.0
H1123 H 0.16245 0.32968 0.19167 0.0
H1124 H 0.13192 0.33535 0.19813 0.0
H1125 H 0.18221 0.23111 0.2124 0.0
H1126 H 0.16488 0.23375 0.23719 0.0
H1127 H 0.15573 0.21203 0.21502 0.0
H1128 H 0.23795 0.28293 0.21068 0.0
H1129 H 0.20488 0.28129 0.27551 0.0
H1130 H 0.18685 0.29832 0.17651 0.0
H1131 H 0.19085 0.26509 0.1779 0.0
H1132 H 0.21648 0.28559 0.17624 0.0
H1133 H 0.16326 0.29231 0.2777 0.0
H1134 H 0.15157 0.2657 0.26202 0.0
H1135 H 0.14479 0.29677 0.25215 0.0
C1136 C 0.09753 0.00661 0.18663 0.0
C1137 C 0.11054 0.99139 0.20189 0.0
C1138 C 0.0894 0.99739 0.16547 0.0
C1139 C 0.09377 0.97205 0.1598 0.0
C1140 C 0.10694 0.95654 0.17516 0.0
C1141 C 0.11552 0.96656 0.19601 0.0
C1142 C 0.07604 0.01479 0.14923 0.0
C1143 C 0.11142 0.92933 0.16982 0.0
C1144 C 0.04833 0.95374 0.1142 0.0
C1145 C 0.061 0.95917 0.09471 0.0
C1146 C 0.05971 0.9548 0.13581 0.0
C1147 C 0.08404 0.9622 0.13779 0.0
C1148 C 0.09744 0.9651 0.11804 0.0
C1149 C 0.08576 0.9632 0.09663 0.0
C1150 C 0.04506 0.95068 0.15651 0.0
C1151 C 0.12333 0.97331 0.11939 0.0
H1152 H 0.09398 0.02591 0.19116 0.0
H1153 H 0.12552 0.95481 0.20797 0.0
H1154 H 0.08462 0.01513 0.13253 0.0
H1155 H 0.05743 0.0079 0.14626 0.0
H1156 H 0.07543 0.03432 0.15578 0.0
H1157 H 0.12321 0.92026 0.18298 0.0
H1158 H 0.09416 0.91894 0.16867 0.0
H1159 H 0.11969 0.92757 0.15307 0.0
H1160 H 0.02923 0.95025 0.11268 0.0
H1161 H 0.09563 0.96736 0.08154 0.0
H1162 H 0.04024 0.96912 0.1637 0.0
H1163 H 0.05543 0.94032 0.16989 0.0
H1164 H 0.02829 0.94011 0.15227 0.0
H1165 H 0.12434 0.99373 0.12306 0.0
H1166 H 0.13227 0.96988 0.10315 0.0
H1167 H 0.13334 0.96349 0.13333 0.0
C1168 C 0.28565 0.89543 0.46156 0.0
C1169 C 0.29145 0.88203 0.4815 0.0
C1170 C 0.28909 0.88477 0.44008 0.0
C1171 C 0.29852 0.86027 0.4387 0.0
C1172 C 0.30563 0.84734 0.45881 0.0
C1173 C 0.30197 0.85836 0.47993 0.0
C1174 C 0.28148 0.89916 0.41895 0.0
C1175 C 0.31581 0.8212 0.4581 0.0
C1176 C 0.27912 0.81664 0.39075 0.0
C1177 C 0.29966 0.81581 0.37789 0.0
C1178 C 0.27825 0.83186 0.41006 0.0
C1179 C 0.2984 0.84673 0.41666 0.0
C1180 C 0.31894 0.84666 0.40336 0.0
C1181 C 0.31933 0.83115 0.38407 0.0
C1182 C 0.25598 0.83143 0.42377 0.0
C1183 C 0.34071 0.86233 0.40991 0.0
H1184 H 0.27764 0.9138 0.46272 0.0
H1185 H 0.30671 0.84798 0.49527 0.0
H1186 H 0.29552 0.89844 0.40617 0.0
H1187 H 0.2651 0.89038 0.41113 0.0
H1188 H 0.27764 0.91911 0.42272 0.0
H1189 H 0.32253 0.81474 0.47512 0.0
H1190 H 0.30178 0.80783 0.45176 0.0
H1191 H 0.33066 0.82047 0.44619 0.0
H1192 H 0.26361 0.80537 0.38567 0.0
H1193 H 0.3352 0.83062 0.37411 0.0
H1194 H 0.24942 0.85078 0.42617 0.0
H1195 H 0.26018 0.82354 0.44092 0.0
H1196 H 0.24138 0.82 0.41555 0.0
H1197 H 0.33555 0.88202 0.4131 0.0
H1198 H 0.35421 0.86217 0.39656 0.0
H1199 H 0.3491 0.85502 0.42595 0.0
C1200 C 0.44563 0.02223 0.68036 0.0
C1201 C 0.45878 0.02198 0.70112 0.0
C1202 C 0.45717 0.02455 0.65962 0.0
C1203 C 0.48238 0.02722 0.65974 0.0
C1204 C 0.49563 0.02787 0.68071 0.0
C1205 C 0.48371 0.025 0.7011 0.0
C1206 C 0.44247 0.0234 0.63758 0.0
C1207 C 0.52246 0.0312 0.68159 0.0
C1208 C 0.51461 0.00711 0.60718 0.0
C1209 C 0.51751 0.02999 0.59576 0.0
C1210 C 0.50327 0.00598 0.62803 0.0
C1211 C 0.49503 0.02834 0.63794 0.0
C1212 C 0.49875 0.05163 0.62695 0.0
C1213 C 0.50975 0.05215 0.60587 0.0
C1214 C 0.49942 0.98074 0.63909 0.0
C1215 C 0.4907 0.07592 0.63722 0.0
H1216 H 0.42639 0.01981 0.68027 0.0
H1217 H 0.49398 0.02512 0.71711 0.0
H1218 H 0.44575 0.04042 0.62723 0.0
H1219 H 0.44791 0.00699 0.62746 0.0
H1220 H 0.42301 0.02182 0.6404 0.0
H1221 H 0.52994 0.0329 0.6993 0.0
H1222 H 0.53087 0.01494 0.67341 0.0
H1223 H 0.52753 0.04822 0.67195 0.0
H1224 H 0.52032 0.98986 0.59937 0.0
H1225 H 0.51194 0.0699 0.59713 0.0
H1226 H 0.48001 0.97714 0.64067 0.0
H1227 H 0.50769 0.98062 0.65653 0.0
H1228 H 0.50705 0.96514 0.62926 0.0
H1229 H 0.47097 0.0758 0.63824 0.0
H1230 H 0.4961 0.09255 0.62716 0.0
H1231 H 0.4983 0.07791 0.65484 0.0
C1232 C 0.27949 0.1045 0.94349 0.0
C1233 C 0.29904 0.11924 0.95099 0.0
C1234 C 0.26761 0.10968 0.92257 0.0
C1235 C 0.27584 0.12982 0.90915 0.0
C1236 C 0.29736 0.14262 0.91562 0.0
C1237 C 0.30851 0.13734 0.93668 0.0
C1238 C 0.24501 0.09532 0.91621 0.0
C1239 C 0.30719 0.16384 0.90156 0.0
C1240 C 0.2578 0.15327 0.85116 0.0
C1241 C 0.24664 0.17567 0.85714 0.0
C1242 C 0.26471 0.13574 0.86788 0.0
C1243 C 0.26041 0.141 0.89089 0.0
C1244 C 0.24605 0.1617 0.89645 0.0
C1245 C 0.23944 0.17894 0.87944 0.0
C1246 C 0.27922 0.11341 0.86122 0.0
C1247 C 0.24037 0.16749 0.92077 0.0
H1248 H 0.27213 0.09062 0.95484 0.0
H1249 H 0.32364 0.14868 0.94274 0.0
H1250 H 0.22959 0.10495 0.92351 0.0
H1251 H 0.24187 0.09428 0.89749 0.0
H1252 H 0.2456 0.07598 0.92327 0.0
H1253 H 0.32535 0.16982 0.90773 0.0
H1254 H 0.30803 0.15819 0.88347 0.0
H1255 H 0.2952 0.18026 0.90233 0.0
H1256 H 0.26327 0.15055 0.83386 0.0
H1257 H 0.23032 0.196 0.88391 0.0
H1258 H 0.27543 0.09692 0.87209 0.0
H1259 H 0.29851 0.11808 0.86353 0.0
H1260 H 0.27562 0.10828 0.8431 0.0
H1261 H 0.23488 0.15021 0.92979 0.0
H1262 H 0.22592 0.18153 0.92178 0.0
H1263 H 0.25659 0.17514 0.92984 0.0
C1264 C 0.15226 0.03354 0.33529 0.0
C1265 C 0.13636 0.02446 0.31819 0.0
C1266 C 0.144 0.04053 0.35663 0.0
C1267 C 0.11943 0.03772 0.36099 0.0
C1268 C 0.10326 0.02929 0.34349 0.0
C1269 C 0.1119 0.02304 0.32224 0.0
C1270 C 0.16164 0.05003 0.37474 0.0
C1271 C 0.07698 0.02558 0.34755 0.0
C1272 C 0.09851 0.02154 0.41952 0.0
C1273 C 0.08732 0.04372 0.42564 0.0
C1274 C 0.11028 0.01984 0.39904 0.0
C1275 C 0.11075 0.04089 0.38435 0.0
C1276 C 0.10043 0.0638 0.39104 0.0
C1277 C 0.08871 0.06494 0.41172 0.0
C1278 C 0.12098 0.99506 0.39257 0.0
C1279 C 0.10075 0.08664 0.37587 0.0
H1280 H 0.17116 0.03491 0.33209 0.0
H1281 H 0.09953 0.01602 0.30905 0.0
H1282 H 0.15484 0.06725 0.38278 0.0
H1283 H 0.16395 0.0357 0.38832 0.0
H1284 H 0.1794 0.05426 0.36779 0.0
H1285 H 0.06661 0.02019 0.33179 0.0
H1286 H 0.07466 0.01061 0.36044 0.0
H1287 H 0.06932 0.043 0.35438 0.0
H1288 H 0.09735 0.00523 0.4305 0.0
H1289 H 0.07997 0.08205 0.41665 0.0
H1290 H 0.1397 0.99779 0.38753 0.0
H1291 H 0.11078 0.98707 0.37768 0.0
H1292 H 0.12076 0.98119 0.40669 0.0
H1293 H 0.11892 0.08992 0.36953 0.0
H1294 H 0.09497 0.10377 0.38481 0.0
H1295 H 0.08855 0.08351 0.36081 0.0
C1296 C 0.28629 0.86811 0.6179 0.0
C1297 C 0.28427 0.8543 0.59766 0.0
C1298 C 0.28315 0.85633 0.63904 0.0
C1299 C 0.27728 0.83039 0.63974 0.0
C1300 C 0.27396 0.81679 0.61921 0.0
C1301 C 0.27777 0.82884 0.59847 0.0
C1302 C 0.28717 0.87134 0.66062 0.0
C1303 C 0.26716 0.78929 0.61915 0.0
C1304 C 0.29558 0.79203 0.69189 0.0
C1305 C 0.2743 0.79097 0.70368 0.0
C1306 C 0.29681 0.80507 0.67123 0.0
C1307 C 0.27615 0.81693 0.66187 0.0
C1308 C 0.25443 0.8153 0.67333 0.0
C1309 C 0.25381 0.80252 0.69422 0.0
C1310 C 0.32038 0.80655 0.65962 0.0
C1311 C 0.23191 0.8272 0.66363 0.0
H1312 H 0.29139 0.88777 0.61727 0.0
H1313 H 0.27589 0.81821 0.58278 0.0
H1314 H 0.27157 0.86939 0.67156 0.0
H1315 H 0.30292 0.86395 0.67041 0.0
H1316 H 0.29027 0.89159 0.65716 0.0
H1317 H 0.26311 0.78207 0.60169 0.0
H1318 H 0.28201 0.77818 0.62691 0.0
H1319 H 0.2513 0.78608 0.62955 0.0
H1320 H 0.31156 0.78343 0.69923 0.0
H1321 H 0.23732 0.8018 0.70327 0.0
H1322 H 0.3257 0.82648 0.65732 0.0
H1323 H 0.31854 0.79799 0.64244 0.0
H1324 H 0.33491 0.79682 0.66941 0.0
H1325 H 0.23459 0.84777 0.66201 0.0
H1326 H 0.21633 0.82368 0.67436 0.0
H1327 H 0.22768 0.81981 0.64629 0.0
C1328 C 0.39816 0.99908 0.82333 0.0
C1329 C 0.41467 0.01498 0.8131 0.0
C1330 C 0.40329 0.98867 0.8449 0.0
C1331 C 0.42503 0.99513 0.85664 0.0
C1332 C 0.44141 0.01176 0.84649 0.0
C1333 C 0.43619 0.02111 0.82464 0.0
C1334 C 0.38585 0.9703 0.85483 0.0
C1335 C 0.46459 0.01953 0.85862 0.0
C1336 C 0.43597 0.99149 0.92025 0.0
C1337 C 0.45289 0.97232 0.92187 0.0
C1338 C 0.42514 0.99794 0.89919 0.0
C1339 C 0.43117 0.98457 0.87946 0.0
C1340 C 0.44642 0.96358 0.88145 0.0
C1341 C 0.4574 0.9579 0.90265 0.0
C1342 C 0.40921 0.02062 0.89778 0.0
C1343 C 0.45275 0.94843 0.86089 0.0
H1344 H 0.38171 0.99399 0.81407 0.0
H1345 H 0.44892 0.03335 0.81656 0.0
H1346 H 0.39472 0.95202 0.85794 0.0
H1347 H 0.38001 0.9772 0.87149 0.0
H1348 H 0.36983 0.96715 0.84343 0.0
H1349 H 0.47473 0.03361 0.84881 0.0
H1350 H 0.46099 0.02759 0.87552 0.0
H1351 H 0.47604 0.00288 0.86154 0.0
H1352 H 0.43267 0.0028 0.9351 0.0
H1353 H 0.47041 0.94298 0.90399 0.0
H1354 H 0.39307 0.01677 0.88677 0.0
H1355 H 0.41903 0.03644 0.89001 0.0
H1356 H 0.40351 0.02661 0.91481 0.0
H1357 H 0.43668 0.94474 0.84973 0.0
H1358 H 0.46097 0.93023 0.8658 0.0
H1359 H 0.46568 0.9592 0.8508 0.0
C1360 C 0.29368 0.18129 0.07337 0.0
C1361 C 0.29397 0.19005 0.05094 0.0
C1362 C 0.2981 0.19759 0.09169 0.0
C1363 C 0.30347 0.22317 0.08742 0.0
C1364 C 0.30368 0.23219 0.06481 0.0
C1365 C 0.29867 0.21551 0.04677 0.0
C1366 C 0.29722 0.18735 0.11563 0.0
C1367 C 0.30981 0.25921 0.0597 0.0
C1368 C 0.29424 0.26143 0.13989 0.0
C1369 C 0.31658 0.25881 0.15116 0.0
C1370 C 0.29017 0.25198 0.11787 0.0
C1371 C 0.30903 0.24003 0.10694 0.0
C1372 C 0.33232 0.24019 0.11718 0.0
C1373 C 0.33579 0.24938 0.13939 0.0
C1374 C 0.26505 0.25207 0.1076 0.0
C1375 C 0.35303 0.22825 0.10575 0.0
H1376 H 0.28992 0.16164 0.0766 0.0
H1377 H 0.29917 0.22224 0.02939 0.0
H1378 H 0.31507 0.18922 0.12435 0.0
H1379 H 0.28448 0.19829 0.12557 0.0
H1380 H 0.29172 0.16727 0.11596 0.0
H1381 H 0.30785 0.26357 0.04125 0.0
H1382 H 0.29824 0.272 0.06914 0.0
H1383 H 0.32854 0.26325 0.06551 0.0
H1384 H 0.27933 0.26857 0.14907 0.0
H1385 H 0.35309 0.24757 0.14812 0.0
H1386 H 0.25691 0.23315 0.10956 0.0
H1387 H 0.26502 0.25635 0.08914 0.0
H1388 H 0.25365 0.26591 0.11606 0.0
H1389 H 0.35158 0.20754 0.10729 0.0
H1390 H 0.37047 0.23432 0.11366 0.0
H1391 H 0.35275 0.23293 0.08735 0.0
C1392 C 0.21064 0.09422 0.99551 0.0
C1393 C 0.23496 0.08961 -0.00023 0.0
C1394 C 0.1939 0.07446 0.99517 0.0
C1395 C 0.20182 0.04949 -0.00149 0.0
C1396 C 0.22642 0.04472 0.0024 0.0
C1397 C 0.24268 0.06489 0.00326 0.0
C1398 C 0.16771 0.08033 0.99148 0.0
C1399 C 0.23556 0.01832 0.00548 0.0
C1400 C 0.15461 0.00409 0.01825 0.0
C1401 C 0.14534 0.99463 0.99747 0.0
C1402 C 0.17376 0.02119 0.01896 0.0
C1403 C 0.18417 0.02853 -0.0016 0.0
C1404 C 0.17615 0.01743 0.97757 0.0
C1405 C 0.15653 0.00083 0.9773 0.0
C1406 C 0.18145 0.03295 0.04146 0.0
C1407 C 0.18724 0.02433 0.95539 0.0
H1408 H 0.20467 0.11332 0.99279 0.0
H1409 H 0.26156 0.06123 0.00615 0.0
H1410 H 0.16045 0.07067 0.97597 0.0
H1411 H 0.15756 0.07324 0.00604 0.0
H1412 H 0.16448 0.10077 0.9896 0.0
H1413 H 0.25534 0.01775 0.00767 0.0
H1414 H 0.22766 0.00954 0.0206 0.0
H1415 H 0.22998 0.00672 0.9905 0.0
H1416 H 0.14561 -0.00028 0.0338 0.0
H1417 H 0.14918 0.99365 0.96124 0.0
H1418 H 0.17618 0.05297 0.04146 0.0
H1419 H 0.20115 0.03238 0.04403 0.0
H1420 H 0.17318 0.02345 0.05607 0.0
H1421 H 0.18215 0.04374 0.95055 0.0
H1422 H 0.1813 0.01151 0.94135 0.0
H1423 H 0.20702 0.02388 0.95724 0.0
C1424 C 0.71332 0.45909 0.05572 0.0
C1425 C 0.71678 0.4347 0.0476 0.0
C1426 C 0.69027 0.46928 0.05639 0.0
C1427 C 0.67027 0.45484 0.0485 0.0
C1428 C 0.67363 0.42999 0.04083 0.0
C1429 C 0.6968 0.4202 0.04059 0.0
C1430 C 0.68739 0.49572 0.06498 0.0
C1431 C 0.65284 0.41399 0.03212 0.0
C1432 C 0.60636 0.47112 0.06226 0.0
C1433 C 0.59823 0.48281 0.04204 0.0
C1434 C 0.63006 0.46281 0.065 0.0
C1435 C 0.64592 0.46599 0.04701 0.0
C1436 C 0.638 0.47843 0.02685 0.0
C1437 C 0.61434 0.4868 0.02466 0.0
C1438 C 0.63791 0.44994 0.08688 0.0
C1439 C 0.65425 0.48205 0.00718 0.0
H1440 H 0.72866 0.47039 0.06124 0.0
H1441 H 0.69928 0.40134 0.03427 0.0
H1442 H 0.68083 0.50794 0.05084 0.0
H1443 H 0.67385 0.49612 0.07826 0.0
H1444 H 0.70442 0.50374 0.07219 0.0
H1445 H 0.65835 0.39474 0.02753 0.0
H1446 H 0.63911 0.41258 0.04517 0.0
H1447 H 0.6443 0.4229 0.01684 0.0
H1448 H 0.5941 0.46807 0.07583 0.0
H1449 H 0.60826 0.49581 0.00897 0.0
H1450 H 0.65474 0.45856 0.09388 0.0
H1451 H 0.6416 0.42991 0.08348 0.0
H1452 H 0.62417 0.45095 0.09997 0.0
H1453 H 0.67103 0.49168 0.01302 0.0
H1454 H 0.64575 0.4932 0.99314 0.0
H1455 H 0.65921 0.4635 0.00034 0.0
C1456 C 0.88079 0.44512 0.25216 0.0
C1457 C 0.89949 0.45199 0.2675 0.0
C1458 C 0.86852 0.42216 0.25452 0.0
C1459 C 0.87479 0.40598 0.27291 0.0
C1460 C 0.89341 0.41303 0.28862 0.0
C1461 C 0.90564 0.43581 0.28562 0.0
C1462 C 0.84891 0.41516 0.23729 0.0
C1463 C 0.90034 0.39659 0.30871 0.0
C1464 C 0.82862 0.3572 0.2897 0.0
C1465 C 0.83694 0.3355 0.27921 0.0
C1466 C 0.84099 0.38017 0.28816 0.0
C1467 C 0.86204 0.38154 0.27561 0.0
C1468 C 0.87081 0.3596 0.26541 0.0
C1469 C 0.85825 0.33683 0.26744 0.0
C1470 C 0.83127 0.40307 0.29958 0.0
C1471 C 0.89314 0.3603 0.25181 0.0
H1472 H 0.87593 0.45756 0.23818 0.0
H1473 H 0.91977 0.44119 0.29782 0.0
H1474 H 0.85317 0.39712 0.22902 0.0
H1475 H 0.83182 0.41239 0.24591 0.0
H1476 H 0.84632 0.42969 0.22388 0.0
H1477 H 0.9149 0.40506 0.31964 0.0
H1478 H 0.88463 0.39322 0.31926 0.0
H1479 H 0.90631 0.37805 0.30266 0.0
H1480 H 0.81218 0.35635 0.29883 0.0
H1481 H 0.86477 0.32022 0.25916 0.0
H1482 H 0.82615 0.4173 0.28655 0.0
H1483 H 0.84524 0.41171 0.31103 0.0
H1484 H 0.81541 0.3986 0.30966 0.0
H1485 H 0.8906 0.37326 0.23715 0.0
H1486 H 0.89783 0.3415 0.24527 0.0
H1487 H 0.90843 0.36762 0.26246 0.0
C1488 C 0.86124 0.57831 0.54982 0.0
C1489 C 0.86576 0.59903 0.53586 0.0
C1490 C 0.87941 0.56114 0.55548 0.0
C1491 C 0.90235 0.56482 0.54669 0.0
C1492 C 0.9071 0.58619 0.5332 0.0
C1493 C 0.88878 0.60302 0.52804 0.0
C1494 C 0.87376 0.53875 0.57012 0.0
C1495 C 0.93138 0.59095 0.52353 0.0
C1496 C 0.96202 0.53895 0.56418 0.0
C1497 C 0.96606 0.52372 0.54531 0.0
C1498 C 0.93972 0.55005 0.56677 0.0
C1499 C 0.92139 0.54597 0.54993 0.0
C1500 C 0.92444 0.528 0.53263 0.0
C1501 C 0.94682 0.51701 0.53054 0.0
C1502 C 0.93673 0.56835 0.58598 0.0
C1503 C 0.90513 0.52276 0.5146 0.0
H1504 H 0.84346 0.57525 0.556 0.0
H1505 H 0.89246 0.61914 0.51743 0.0
H1506 H 0.86989 0.52226 0.55905 0.0
H1507 H 0.8891 0.53396 0.58177 0.0
H1508 H 0.85785 0.54209 0.58037 0.0
H1509 H 0.93214 0.60877 0.51375 0.0
H1510 H 0.94531 0.59175 0.53744 0.0
H1511 H 0.93593 0.57533 0.51205 0.0
H1512 H 0.97667 0.54362 0.57606 0.0
H1513 H 0.94964 0.50467 0.51626 0.0
H1514 H 0.91847 0.56705 0.59257 0.0
H1515 H 0.93939 0.58775 0.5796 0.0
H1516 H 0.94996 0.56505 0.60021 0.0
H1517 H 0.88743 0.52099 0.52229 0.0
H1518 H 0.90863 0.50534 0.50496 0.0
H1519 H 0.90426 0.53867 0.5024 0.0
C1520 C 0.1967 0.0756 0.24037 0.0
C1521 C 0.17351 0.08058 0.24734 0.0
C1522 C 0.21324 0.09509 0.2373 0.0
C1523 C 0.20647 0.12011 0.2414 0.0
C1524 C 0.18264 0.12543 0.24683 0.0
C1525 C 0.16642 0.10558 0.24974 0.0
C1526 C 0.23841 0.08873 0.23121 0.0
C1527 C 0.17471 0.15195 0.25118 0.0
C1528 C 0.25145 0.16459 0.26912 0.0
C1529 C 0.25619 0.18117 0.25131 0.0
C1530 C 0.23603 0.14409 0.26576 0.0
C1531 C 0.22504 0.14003 0.24399 0.0
C1532 C 0.23079 0.15585 0.22556 0.0
C1533 C 0.24644 0.17634 0.22944 0.0
C1534 C 0.23058 0.12757 0.28586 0.0
C1535 C 0.21948 0.15198 0.20211 0.0
H1536 H 0.20227 0.05638 0.23806 0.0
H1537 H 0.14847 0.10967 0.25481 0.0
H1538 H 0.24483 0.1017 0.21794 0.0
H1539 H 0.25053 0.09097 0.24647 0.0
H1540 H 0.23978 0.06914 0.225 0.0
H1541 H 0.15501 0.15325 0.25231 0.0
H1542 H 0.18315 0.15877 0.26743 0.0
H1543 H 0.18054 0.16469 0.23749 0.0
H1544 H 0.25918 0.16818 0.28601 0.0
H1545 H 0.24999 0.18927 0.2157 0.0
H1546 H 0.23374 0.1076 0.28172 0.0
H1547 H 0.21146 0.12932 0.28985 0.0
H1548 H 0.24161 0.13256 0.30133 0.0
H1549 H 0.21953 0.13185 0.19734 0.0
H1550 H 0.22878 0.16299 0.189 0.0
H1551 H 0.20057 0.15801 0.20205 0.0
C1552 C 0.36758 0.9298 0.50982 0.0
C1553 C 0.35364 0.93126 0.52907 0.0
C1554 C 0.38763 0.94538 0.50742 0.0
C1555 C 0.39433 0.96249 0.52497 0.0
C1556 C 0.37969 0.96488 0.544 0.0
C1557 C 0.35929 0.9494 0.5457 0.0
C1558 C 0.40238 0.94252 0.48663 0.0
C1559 C 0.38639 0.98261 0.56324 0.0
C1560 C 0.46124 0.97321 0.53165 0.0
C1561 C 0.46428 0.99695 0.52174 0.0
C1562 C 0.43853 0.96231 0.53342 0.0
C1563 C 0.41819 0.97518 0.52468 0.0
C1564 C 0.42102 0.9992 0.51467 0.0
C1565 C 0.44406 0.00994 0.51352 0.0
C1566 C 0.43639 0.93682 0.5445 0.0
C1567 C 0.3998 0.0133 0.50483 0.0
H1568 H 0.36301 0.91606 0.49673 0.0
H1569 H 0.34854 0.95056 0.56059 0.0
H1570 H 0.40664 0.96116 0.47932 0.0
H1571 H 0.41956 0.93342 0.49151 0.0
H1572 H 0.3931 0.93092 0.47325 0.0
H1573 H 0.37182 0.9845 0.5754 0.0
H1574 H 0.40251 0.97553 0.57267 0.0
H1575 H 0.39093 0.00146 0.55655 0.0
H1576 H 0.47668 0.96313 0.53837 0.0
H1577 H 0.44626 0.02833 0.50593 0.0
H1578 H 0.4294 0.92292 0.53182 0.0
H1579 H 0.42353 0.93753 0.55836 0.0
H1580 H 0.45378 0.93002 0.5517 0.0
H1581 H 0.39129 0.0024 0.49058 0.0
H1582 H 0.40485 0.03216 0.49841 0.0
H1583 H 0.3862 0.01553 0.51787 0.0
C1584 C 0.87331 0.61148 0.25154 0.0
C1585 C 0.86608 0.5878 0.2433 0.0
C1586 C 0.8582 0.6322 0.24958 0.0
C1587 C 0.83527 0.62934 0.23887 0.0
C1588 C 0.82818 0.60576 0.22961 0.0
C1589 C 0.84366 0.58516 0.23204 0.0
C1590 C 0.86649 0.65696 0.25979 0.0
C1591 C 0.80402 0.60212 0.21779 0.0
C1592 C 0.79225 0.6774 0.26029 0.0
C1593 C 0.79466 0.69681 0.24436 0.0
C1594 C 0.80409 0.65454 0.25784 0.0
C1595 C 0.8185 0.65086 0.23889 0.0
C1596 C 0.81945 0.66958 0.22183 0.0
C1597 C 0.80762 0.69242 0.22482 0.0
C1598 C 0.80263 0.63513 0.27649 0.0
C1599 C 0.83428 0.66622 0.20118 0.0
H1600 H 0.89063 0.61376 0.26019 0.0
H1601 H 0.83799 0.56694 0.22557 0.0
H1602 H 0.86538 0.67199 0.24674 0.0
H1603 H 0.85466 0.66231 0.27365 0.0
H1604 H 0.88515 0.65625 0.26686 0.0
H1605 H 0.80227 0.58355 0.20929 0.0
H1606 H 0.78986 0.60359 0.23038 0.0
H1607 H 0.80078 0.61705 0.20491 0.0
H1608 H 0.78214 0.6805 0.27536 0.0
H1609 H 0.80937 0.7072 0.2123 0.0
H1610 H 0.82006 0.63425 0.28608 0.0
H1611 H 0.79892 0.61626 0.26918 0.0
H1612 H 0.78856 0.63952 0.28865 0.0
H1613 H 0.85349 0.66816 0.20624 0.0
H1614 H 0.82997 0.68037 0.1878 0.0
H1615 H 0.83151 0.64718 0.19387 0.0
C1616 C 0.70835 0.43582 0.74111 0.0
C1617 C 0.68582 0.43522 0.75071 0.0
C1618 C 0.7224 0.41417 0.74043 0.0
C1619 C 0.71377 0.39151 0.74979 0.0
C1620 C 0.69083 0.39069 0.7591 0.0
C1621 C 0.67709 0.41254 0.75934 0.0
C1622 C 0.74666 0.41566 0.73015 0.0
C1623 C 0.68106 0.3669 0.76938 0.0
C1624 C 0.73952 0.32787 0.73622 0.0
C1625 C 0.75371 0.32315 0.75592 0.0
C1626 C 0.72723 0.35058 0.73348 0.0
C1627 C 0.72905 0.36886 0.75092 0.0
C1628 C 0.74421 0.36467 0.77034 0.0
C1629 C 0.75644 0.34192 0.77256 0.0
C1630 C 0.71147 0.35453 0.71239 0.0
C1631 C 0.74659 0.38368 0.78935 0.0
H1632 H 0.71514 0.45328 0.7343 0.0
H1633 H 0.65969 0.41195 0.76679 0.0
H1634 H 0.76078 0.41222 0.7435 0.0
H1635 H 0.74824 0.40089 0.71703 0.0
H1636 H 0.75009 0.43423 0.72225 0.0
H1637 H 0.66262 0.36922 0.7753 0.0
H1638 H 0.68097 0.35147 0.75673 0.0
H1639 H 0.69274 0.36106 0.78407 0.0
H1640 H 0.73741 0.31352 0.72323 0.0
H1641 H 0.7674 0.33847 0.78782 0.0
H1642 H 0.71525 0.3731 0.7047 0.0
H1643 H 0.69246 0.35441 0.71704 0.0
H1644 H 0.71393 0.33974 0.69941 0.0
H1645 H 0.75133 0.4024 0.7825 0.0
H1646 H 0.76035 0.37833 0.80255 0.0
H1647 H 0.72921 0.38552 0.7976 0.0
C1648 C 0.97 0.90058 0.9035 0.0
C1649 C 0.95998 0.8766 0.90119 0.0
C1650 C 0.96933 0.91318 0.92437 0.0
C1651 C 0.95837 0.90122 0.94287 0.0
C1652 C 0.94399 0.87966 0.9389 0.0
C1653 C 0.94472 0.86767 0.91776 0.0
C1654 C 0.98381 0.937 0.92748 0.0
C1655 C 0.93107 0.86707 0.95789 0.0
C1656 C 0.00143 0.9075 0.99333 0.0
C1657 C 0.99081 0.92646 0.00571 0.0
C1658 C 0.98974 0.89736 0.97392 0.0
C1659 C 0.96732 0.90716 0.96633 0.0
C1660 C 0.95553 0.92455 0.98002 0.0
C1661 C 0.96728 0.93362 -0.00014 0.0
C1662 C 0.00231 0.87755 0.96059 0.0
C1663 C 0.93122 0.93492 0.97351 0.0
H1664 H 0.98157 0.90764 0.89051 0.0
H1665 H 0.93648 0.8493 0.9156 0.0
H1666 H 0.97717 0.94879 0.94138 0.0
H1667 H 0.00268 0.93218 0.93179 0.0
H1668 H 0.98346 0.94804 0.91145 0.0
H1669 H 0.94425 0.85734 0.96932 0.0
H1670 H 0.92184 0.88117 0.96817 0.0
H1671 H 0.91777 0.85301 0.95131 0.0
H1672 H 0.01949 0.90176 -0.00204 0.0
H1673 H 0.95882 0.94819 0.00949 0.0
H1674 H 0.00936 0.88603 0.94493 0.0
H1675 H 0.98967 0.86228 0.95532 0.0
H1676 H 0.0175 0.86922 0.97058 0.0
H1677 H 0.93121 0.95561 0.97587 0.0
H1678 H 0.91796 0.92695 0.98514 0.0
H1679 H 0.92519 0.93055 0.95577 0.0
C1680 C 0.94118 0.27176 0.67855 0.0
C1681 C 0.96057 0.25771 0.6873 0.0
C1682 C 0.91905 0.272 0.68927 0.0
C1683 C 0.91567 0.25718 0.70897 0.0
C1684 C 0.93509 0.24259 0.71769 0.0
C1685 C 0.95733 0.24336 0.70702 0.0
C1686 C 0.89933 0.28843 0.67962 0.0
C1687 C 0.93228 0.22593 0.73819 0.0
C1688 C 0.86497 0.27312 0.74877 0.0
C1689 C 0.84637 0.25712 0.74088 0.0
C1690 C 0.8874 0.27352 0.73848 0.0
C1691 C 0.89183 0.25691 0.72027 0.0
C1692 C 0.8732 0.24043 0.71251 0.0
C1693 C 0.85071 0.24101 0.72261 0.0
C1694 C 0.90629 0.29198 0.74696 0.0
C1695 C 0.87707 0.2219 0.69364 0.0
H1696 H 0.94347 0.28314 0.66349 0.0
H1697 H 0.97211 0.23237 0.71391 0.0
H1698 H 0.88366 0.27673 0.67419 0.0
H1699 H 0.89337 0.30147 0.69293 0.0
H1700 H 0.90501 0.29964 0.6648 0.0
H1701 H 0.94867 0.21506 0.74244 0.0
H1702 H 0.92795 0.23742 0.75317 0.0
H1703 H 0.91717 0.2126 0.73502 0.0
H1704 H 0.86187 0.28568 0.76281 0.0
H1705 H 0.83664 0.22833 0.71652 0.0
H1706 H 0.91186 0.30412 0.73273 0.0
H1707 H 0.92236 0.28181 0.75339 0.0
H1708 H 0.89995 0.3041 0.7608 0.0
H1709 H 0.88108 0.23204 0.67774 0.0
H1710 H 0.86125 0.20954 0.69025 0.0
H1711 H 0.89271 0.21 0.69812 0.0
C1712 C 0.51522 0.25181 0.43547 0.0
C1713 C 0.50425 0.27348 0.4434 0.0
C1714 C 0.51714 0.23032 0.44907 0.0
C1715 C 0.50827 0.2307 0.47127 0.0
C1716 C 0.49876 0.25305 0.47999 0.0
C1717 C 0.49663 0.27417 0.46584 0.0
C1718 C 0.52728 0.20675 0.43911 0.0
C1719 C 0.48983 0.25429 0.50385 0.0
C1720 C 0.48685 0.16718 0.4909 0.0
C1721 C 0.50717 0.15831 0.50289 0.0
C1722 C 0.48659 0.19127 0.48139 0.0
C1723 C 0.50698 0.20699 0.48432 0.0
C1724 C 0.52692 0.19884 0.49772 0.0
C1725 C 0.52687 0.17447 0.50668 0.0
C1726 C 0.46501 0.19932 0.46709 0.0
C1727 C 0.54882 0.21527 0.50151 0.0
H1728 H 0.52118 0.25112 0.41816 0.0
H1729 H 0.48843 0.291 0.47216 0.0
H1730 H 0.54158 0.19912 0.45062 0.0
H1731 H 0.51303 0.19219 0.43735 0.0
H1732 H 0.53474 0.21005 0.42212 0.0
H1733 H 0.48616 0.27385 0.50911 0.0
H1734 H 0.47307 0.24314 0.50483 0.0
H1735 H 0.50305 0.24603 0.51617 0.0
H1736 H 0.4714 0.15498 0.48833 0.0
H1737 H 0.54278 0.16773 0.51571 0.0
H1738 H 0.47001 0.20158 0.44912 0.0
H1739 H 0.4586 0.21776 0.47294 0.0
H1740 H 0.45006 0.18551 0.46768 0.0
H1741 H 0.55881 0.21628 0.48561 0.0
H1742 H 0.56097 0.20791 0.51527 0.0
H1743 H 0.5437 0.23469 0.5059 0.0
C1744 C 0.59132 0.77812 0.19274 0.0
C1745 C 0.58706 0.76201 0.17417 0.0
C1746 C 0.61394 0.77906 0.2043 0.0
C1747 C 0.63256 0.76311 0.19745 0.0
C1748 C 0.62784 0.74607 0.17931 0.0
C1749 C 0.60537 0.74602 0.16774 0.0
C1750 C 0.61823 0.79782 0.22324 0.0
C1751 C 0.64673 0.72823 0.17172 0.0
C1752 C 0.69859 0.77995 0.2093 0.0
C1753 C 0.70435 0.7655 0.22868 0.0
C1754 C 0.67522 0.77987 0.19938 0.0
C1755 C 0.65715 0.76454 0.20869 0.0
C1756 C 0.66297 0.74973 0.22813 0.0
C1757 C 0.68631 0.75059 0.23798 0.0
C1758 C 0.66985 0.79627 0.17891 0.0
C1759 C 0.64459 0.73264 0.23835 0.0
H1760 H 0.57737 0.79083 0.1975 0.0
H1761 H 0.60218 0.73361 0.15332 0.0
H1762 H 0.6249 0.78822 0.23894 0.0
H1763 H 0.63223 0.81149 0.2184 0.0
H1764 H 0.60181 0.80828 0.2271 0.0
H1765 H 0.63972 0.71491 0.1585 0.0
H1766 H 0.66181 0.73899 0.16469 0.0
H1767 H 0.65399 0.7173 0.18645 0.0
H1768 H 0.71227 0.79171 0.20209 0.0
H1769 H 0.69052 0.73929 0.25292 0.0
H1770 H 0.65457 0.80868 0.18223 0.0
H1771 H 0.66457 0.78444 0.16402 0.0
H1772 H 0.68541 0.80811 0.17444 0.0
H1773 H 0.62893 0.74366 0.24334 0.0
H1774 H 0.65184 0.72243 0.25355 0.0
H1775 H 0.63808 0.7187 0.2255 0.0
C1776 C 0.00679 0.18306 0.60858 0.0
C1777 C 0.02482 0.19154 0.62394 0.0
C1778 C 0.00752 0.15885 0.59901 0.0
C1779 C 0.02709 0.14295 0.60451 0.0
C1780 C 0.04479 0.15111 0.62084 0.0
C1781 C 0.04342 0.1753 0.63033 0.0
C1782 C 0.98807 0.15089 0.58199 0.0
C1783 C 0.06605 0.13499 0.62713 0.0
C1784 C 0.02332 0.07358 0.58795 0.0
C1785 C 0.03465 0.07342 0.56701 0.0
C1786 C 0.02076 0.09594 0.60035 0.0
C1787 C 0.03004 0.11878 0.59186 0.0
C1788 C 0.04195 0.11864 0.57099 0.0
C1789 C 0.04394 0.09606 0.55877 0.0
C1790 C 0.00768 0.0952 0.62232 0.0
C1791 C 0.05246 0.14243 0.56143 0.0
H1792 H 0.99273 0.19585 0.60318 0.0
H1793 H 0.05774 0.18212 0.64171 0.0
H1794 H 0.99541 0.15003 0.56476 0.0
H1795 H 0.98134 0.13183 0.58612 0.0
H1796 H 0.97282 0.16407 0.58149 0.0
H1797 H 0.07698 0.14294 0.6416 0.0
H1798 H 0.06015 0.11577 0.6317 0.0
H1799 H 0.07753 0.13332 0.61225 0.0
H1800 H 0.0159 0.05626 0.59446 0.0
H1801 H 0.05274 0.09618 0.54267 0.0
H1802 H 0.99158 0.10713 0.62074 0.0
H1803 H 0.0192 0.10297 0.63642 0.0
H1804 H 0.00205 0.07586 0.62694 0.0
H1805 H 0.03808 0.15621 0.55784 0.0
H1806 H 0.06194 0.13905 0.54549 0.0
H1807 H 0.0652 0.15107 0.57412 0.0
C1808 C 0.58089 0.29533 0.35552 0.0
C1809 C 0.57294 0.31387 0.3702 0.0
C1810 C 0.60402 0.29642 0.34731 0.0
C1811 C 0.61937 0.31663 0.35382 0.0
C1812 C 0.61168 0.33501 0.36916 0.0
C1813 C 0.58854 0.33334 0.37726 0.0
C1814 C 0.61178 0.27633 0.33114 0.0
C1815 C 0.62756 0.35687 0.37636 0.0
C1816 C 0.68499 0.30728 0.34402 0.0
C1817 C 0.68727 0.31861 0.32267 0.0
C1818 C 0.66314 0.30724 0.35479 0.0
C1819 C 0.6432 0.31889 0.34393 0.0
C1820 C 0.64567 0.33139 0.32288 0.0
C1821 C 0.66772 0.33101 0.31243 0.0
C1822 C 0.6611 0.29364 0.37719 0.0
C1823 C 0.62481 0.3443 0.31097 0.0
H1824 H 0.56888 0.28025 0.35006 0.0
H1825 H 0.58241 0.34781 0.38853 0.0
H1826 H 0.61527 0.2848 0.31433 0.0
H1827 H 0.6287 0.26779 0.33762 0.0
H1828 H 0.59812 0.26123 0.32867 0.0
H1829 H 0.61926 0.36892 0.38922 0.0
H1830 H 0.6449 0.35001 0.38356 0.0
H1831 H 0.63147 0.36857 0.36131 0.0
H1832 H 0.70001 0.29735 0.35182 0.0
H1833 H 0.66955 0.33991 0.29599 0.0
H1834 H 0.64928 0.27695 0.37479 0.0
H1835 H 0.65285 0.30592 0.38986 0.0
H1836 H 0.67872 0.28733 0.38425 0.0
H1837 H 0.61103 0.33015 0.3057 0.0
H1838 H 0.63018 0.3548 0.29563 0.0
H1839 H 0.6164 0.35754 0.32273 0.0
C1840 C 0.50423 0.84477 0.13657 0.0
C1841 C 0.51517 0.82331 0.12816 0.0
C1842 C 0.50435 0.86753 0.12436 0.0
C1843 C 0.51617 0.86901 0.1035 0.0
C1844 C 0.52793 0.84758 0.09536 0.0
C1845 C 0.52704 0.82496 0.10762 0.0
C1846 C 0.49129 0.88979 0.13347 0.0
C1847 C 0.54127 0.84847 0.07353 0.0
C1848 C 0.49966 0.91868 0.05891 0.0
C1849 C 0.51765 0.93681 0.06287 0.0
C1850 C 0.49854 0.8969 0.07243 0.0
C1851 C 0.51614 0.89285 0.09002 0.0
C1852 C 0.53426 0.91117 0.09414 0.0
C1853 C 0.53464 0.93298 0.0807 0.0
C1854 C 0.47867 0.87807 0.06774 0.0
C1855 C 0.55366 0.90743 0.11235 0.0
H1856 H 0.49485 0.84354 0.15232 0.0
H1857 H 0.5356 0.80847 0.10107 0.0
H1858 H 0.5037 0.90601 0.13574 0.0
H1859 H 0.47696 0.89553 0.12103 0.0
H1860 H 0.48314 0.88568 0.15001 0.0
H1861 H 0.55046 0.83056 0.07011 0.0
H1862 H 0.52869 0.85251 0.05899 0.0
H1863 H 0.55477 0.86385 0.07429 0.0
H1864 H 0.48642 0.92153 0.04524 0.0
H1865 H 0.54874 0.94678 0.08381 0.0
H1866 H 0.4691 0.87418 0.08357 0.0
H1867 H 0.48624 0.86007 0.06207 0.0
H1868 H 0.46556 0.88468 0.05445 0.0
H1869 H 0.54567 0.90428 0.1291 0.0
H1870 H 0.56612 0.92375 0.11381 0.0
H1871 H 0.56408 0.89047 0.10846 0.0
C1872 C 0.9254 0.7574 0.89825 0.0
C1873 C 0.92946 0.7802 0.88711 0.0
C1874 C 0.90654 0.74146 0.89099 0.0
C1875 C 0.89114 0.74906 0.87268 0.0
C1876 C 0.89502 0.7724 0.86169 0.0
C1877 C 0.91446 0.78749 0.86882 0.0
C1878 C 0.90341 0.7164 0.90254 0.0
C1879 C 0.87856 0.78159 0.84251 0.0
C1880 C 0.85182 0.71193 0.83221 0.0
C1881 C 0.8294 0.7199 0.839 0.0
C1882 C 0.87257 0.71832 0.84505 0.0
C1883 C 0.87061 0.73317 0.86481 0.0
C1884 C 0.84788 0.73751 0.87362 0.0
C1885 C 0.82742 0.73035 0.86072 0.0
C1886 C 0.89655 0.71229 0.8357 0.0
C1887 C 0.84495 0.7531 0.89473 0.0
H1888 H 0.93736 0.75179 0.91225 0.0
H1889 H 0.9177 0.80525 0.8604 0.0
H1890 H 0.88476 0.71388 0.90787 0.0
H1891 H 0.90694 0.70113 0.89035 0.0
H1892 H 0.9157 0.71424 0.91769 0.0
H1893 H 0.88377 0.80046 0.83627 0.0
H1894 H 0.87865 0.7683 0.828 0.0
H1895 H 0.85995 0.78249 0.84826 0.0
H1896 H 0.85343 0.70317 0.81571 0.0
H1897 H 0.81009 0.73596 0.86642 0.0
H1898 H 0.90988 0.70819 0.84962 0.0
H1899 H 0.90316 0.72874 0.82611 0.0
H1900 H 0.89532 0.696 0.82393 0.0
H1901 H 0.85887 0.74873 0.90802 0.0
H1902 H 0.82708 0.75015 0.90193 0.0
H1903 H 0.84682 0.77326 0.89029 0.0
C1904 C 0.92366 0.99547 0.88575 0.0
C1905 C 0.92768 0.0138 0.86935 0.0
C1906 C 0.93534 0.99685 0.90723 0.0
C1907 C 0.95078 0.01754 0.91243 0.0
C1908 C 0.9535 0.03694 0.89623 0.0
C1909 C 0.9423 0.03452 0.87462 0.0
C1910 C 0.9311 0.97572 0.92375 0.0
C1911 C 0.96854 0.06 0.90153 0.0
C1912 C 0.9699 0.02314 0.97482 0.0
C1913 C 0.99313 0.01354 0.9748 0.0
C1914 C 0.95619 0.02554 0.95447 0.0
C1915 C 0.96581 0.01775 0.93375 0.0
C1916 C 0.98955 0.00888 0.93355 0.0
C1917 C 0.00301 0.00724 0.95404 0.0
C1918 C 0.9311 0.03546 0.95526 0.0
C1919 C 1.0009 0.00061 0.91191 0.0
H1920 H 0.91211 0.97956 0.88151 0.0
H1921 H 0.94499 0.04883 0.8618 0.0
H1922 H 0.94322 0.97623 0.93906 0.0
H1923 H 0.91242 0.97661 0.92934 0.0
H1924 H 0.93305 0.95736 0.91512 0.0
H1925 H 0.96466 0.07543 0.88925 0.0
H1926 H 0.96546 0.06685 0.91899 0.0
H1927 H 0.98772 0.0553 0.90068 0.0
H1928 H 0.96216 0.02808 0.99081 0.0
H1929 H 0.021 -7e-05 0.95383 0.0
H1930 H 0.91815 0.01982 0.95222 0.0
H1931 H 0.92787 0.04963 0.94166 0.0
H1932 H 0.92754 0.04409 0.97197 0.0
H1933 H 0.98769 0.99238 0.89945 0.0
H1934 H 0.01513 0.98659 0.91548 0.0
H1935 H 0.00937 0.01709 0.90385 0.0
C1936 C 0.78871 0.17733 0.56215 0.0
C1937 C 0.78072 0.15489 0.55205 0.0
C1938 C 0.78477 0.18219 0.58509 0.0
C1939 C 0.77173 0.16457 0.59786 0.0
C1940 C 0.7644 0.14143 0.58791 0.0
C1941 C 0.76931 0.13671 0.56509 0.0
C1942 C 0.79354 0.20674 0.59533 0.0
C1943 C 0.74997 0.12247 0.6008 0.0
C1944 C 0.77339 0.17539 0.66151 0.0
C1945 C 0.75376 0.19115 0.66363 0.0
C1946 C 0.77898 0.1656 0.64028 0.0
C1947 C 0.76425 0.17143 0.62094 0.0
C1948 C 0.74351 0.18608 0.62336 0.0
C1949 C 0.73871 0.19615 0.64471 0.0
C1950 C 0.80149 0.15053 0.63831 0.0
C1951 C 0.72706 0.19219 0.60321 0.0
H1952 H 0.79748 0.19134 0.55191 0.0
H1953 H 0.7628 0.11954 0.55703 0.0
H1954 H 0.77809 0.21891 0.59859 0.0
H1955 H 0.80315 0.20341 0.6119 0.0
H1956 H 0.80568 0.21701 0.58396 0.0
H1957 H 0.74777 0.10444 0.59146 0.0
H1958 H 0.75852 0.11872 0.61778 0.0
H1959 H 0.73199 0.13017 0.60364 0.0
H1960 H 0.78514 0.17193 0.67626 0.0
H1961 H 0.72363 0.20849 0.64652 0.0
H1962 H 0.81482 0.16173 0.62907 0.0
H1963 H 0.79785 0.13316 0.62836 0.0
H1964 H 0.80948 0.14533 0.65523 0.0
H1965 H 0.73623 0.20527 0.59165 0.0
H1966 H 0.71027 0.20108 0.60844 0.0
H1967 H 0.72246 0.17493 0.59339 0.0
C1968 C 0.6032 0.02785 0.35861 0.0
C1969 C 0.62818 0.02698 0.36147 0.0
C1970 C 0.58852 0.02775 0.37738 0.0
C1971 C 0.59904 0.02715 0.39962 0.0
C1972 C 0.62427 0.02706 0.40269 0.0
C1973 C 0.63858 0.02677 0.38353 0.0
C1974 C 0.56172 0.0277 0.37339 0.0
C1975 C 0.63612 0.02692 0.42619 0.0
C1976 C 0.56139 0.04701 0.44879 0.0
C1977 C 0.55532 0.02379 0.45838 0.0
C1978 C 0.57559 0.0484 0.42966 0.0
C1979 C 0.58355 0.02601 0.41962 0.0
C1980 C 0.57667 0.00249 0.42866 0.0
C1981 C 0.56281 0.00166 0.44805 0.0
C1982 C 0.58284 0.07384 0.42076 0.0
C1983 C 0.58446 0.9782 0.41819 0.0
H1984 H 0.595 0.02797 0.34161 0.0
H1985 H 0.65785 0.02617 0.38583 0.0
H1986 H 0.5539 0.01041 0.3807 0.0
H1987 H 0.55385 0.0439 0.38215 0.0
H1988 H 0.55637 0.02861 0.35502 0.0
H1989 H 0.65589 0.02839 0.4257 0.0
H1990 H 0.62952 0.04274 0.43638 0.0
H1991 H 0.63142 0.00933 0.43516 0.0
H1992 H 0.55602 0.06423 0.45687 0.0
H1993 H 0.55829 0.98367 0.45545 0.0
H1994 H 0.57804 0.07537 0.40233 0.0
H1995 H 0.60251 0.0762 0.42274 0.0
H1996 H 0.57426 0.08943 0.42983 0.0
H1997 H 0.57904 0.9777 0.39984 0.0
H1998 H 0.57673 0.9615 0.42663 0.0
H1999 H 0.60422 0.9769 0.41944 0.0
C2000 C 0.78948 0.86592 0.05829 0.0
C2001 C 0.80797 0.87686 0.04619 0.0
C2002 C 0.79408 0.85421 0.07928 0.0
C2003 C 0.81776 0.85364 0.08857 0.0
C2004 C 0.83668 0.86387 0.07611 0.0
C2005 C 0.83157 0.87528 0.05492 0.0
C2006 C 0.77341 0.84319 0.09187 0.0
C2007 C 0.86211 0.86375 0.08557 0.0
C2008 C 0.81726 0.8484 0.15259 0.0
C2009 C 0.81892 0.82237 0.15566 0.0
C2010 C 0.81891 0.85916 0.13092 0.0
C2011 C 0.82208 0.84347 0.11188 0.0
C2012 C 0.82567 0.81745 0.11513 0.0
C2013 C 0.82413 0.80722 0.13702 0.0
C2014 C 0.81528 0.88706 0.1282 0.0
C2015 C 0.82925 0.80012 0.09529 0.0
H2016 H 0.77124 0.86689 0.0515 0.0
H2017 H 0.84589 0.88389 0.04569 0.0
H2018 H 0.77703 0.82335 0.09643 0.0
H2019 H 0.77123 0.85364 0.10796 0.0
H2020 H 0.75631 0.84395 0.08169 0.0
H2021 H 0.87503 0.86981 0.07274 0.0
H2022 H 0.86382 0.87667 0.10034 0.0
H2023 H 0.86701 0.84476 0.09178 0.0
H2024 H 0.81314 0.86027 0.16684 0.0
H2025 H 0.826 0.78714 0.13937 0.0
H2026 H 0.79731 0.8905 0.12027 0.0
H2027 H 0.82864 0.89523 0.1168 0.0
H2028 H 0.81662 0.89704 0.14479 0.0
H2029 H 0.81208 0.79775 0.08543 0.0
H2030 H 0.83546 0.7813 0.10093 0.0
H2031 H 0.84239 0.80821 0.08362 0.0
C2032 C 0.92697 0.99589 0.7333 0.0
C2033 C 0.9428 0.98775 0.75083 0.0
C2034 C 0.93275 0.99356 0.71032 0.0
C2035 C 0.95483 0.98285 0.7048 0.0
C2036 C 0.97072 0.9744 0.72238 0.0
C2037 C 0.96454 0.97696 0.74509 0.0
C2038 C 0.91539 0.00281 0.69198 0.0
C2039 C 0.9945 0.96296 0.71722 0.0
C2040 C 0.96769 0.95756 0.64614 0.0
C2041 C 0.98215 0.97678 0.63773 0.0
C2042 C 0.95769 0.9597 0.66762 0.0
C2043 C 0.9622 0.98162 0.6808 0.0
C2044 C 0.97586 0.00152 0.67186 0.0
C2045 C 0.98565 0.99884 0.65046 0.0
C2046 C 0.94318 0.93812 0.6766 0.0
C2047 C 0.98098 0.02526 0.68527 0.0
H2048 H 0.9101 0.00416 0.73749 0.0
H2049 H 0.97693 0.97049 0.75839 0.0
H2050 H 0.92368 0.01836 0.68241 0.0
H2051 H 0.91107 0.98756 0.67963 0.0
H2052 H 0.89851 0.00961 0.69902 0.0
H2053 H 0.00444 0.95648 0.73282 0.0
H2054 H 0.99179 0.94676 0.70555 0.0
H2055 H 0.00574 0.97696 0.70849 0.0
H2056 H 0.96486 0.94056 0.63627 0.0
H2057 H 0.99631 0.01403 0.64373 0.0
H2058 H 0.92605 0.94496 0.68301 0.0
H2059 H 0.9531 0.92925 0.69115 0.0
H2060 H 0.93927 0.92357 0.66342 0.0
H2061 H 0.96415 0.03319 0.69138 0.0
H2062 H 0.99012 0.03979 0.67509 0.0
H2063 H 0.99252 0.0209 0.7005 0.0
C2064 C 0.79145 0.18216 0.43264 0.0
C2065 C 0.79089 0.15588 0.43142 0.0
C2066 C 0.79418 0.19684 0.41313 0.0
C2067 C 0.79609 0.185 0.39176 0.0
C2068 C 0.79536 0.15844 0.39035 0.0
C2069 C 0.79278 0.14418 0.41025 0.0
C2070 C 0.79509 0.22508 0.41542 0.0
C2071 C 0.79657 0.14493 0.3679 0.0
C2072 C 0.77873 0.22649 0.34166 0.0
C2073 C 0.80107 0.23415 0.33399 0.0
C2074 C 0.7769 0.2096 0.35976 0.0
C2075 C 0.79793 0.20074 0.37099 0.0
C2076 C 0.82059 0.2082 0.36322 0.0
C2077 C 0.82189 0.22458 0.34452 0.0
C2078 C 0.75244 0.2012 0.36682 0.0
C2079 C 0.84336 0.19893 0.37474 0.0
H2080 H 0.79014 0.19136 0.44897 0.0
H2081 H 0.79228 0.12387 0.40921 0.0
H2082 H 0.81175 0.23257 0.40823 0.0
H2083 H 0.77986 0.23347 0.40559 0.0
H2084 H 0.79436 0.2313 0.4334 0.0
H2085 H 0.80333 0.12553 0.37024 0.0
H2086 H 0.7783 0.14361 0.36001 0.0
H2087 H 0.80809 0.155 0.35589 0.0
H2088 H 0.76254 0.23317 0.33303 0.0
H2089 H 0.83914 0.23011 0.33829 0.0
H2090 H 0.7379 0.20877 0.35549 0.0
H2091 H 0.74951 0.20741 0.38449 0.0
H2092 H 0.75121 0.18041 0.36661 0.0
H2093 H 0.84417 0.20483 0.39285 0.0
H2094 H 0.85954 0.20617 0.36645 0.0
H2095 H 0.8436 0.17811 0.37446 0.0
C2096 C 0.60985 0.03203 0.22955 0.0
C2097 C 0.63241 0.02855 0.24019 0.0
C2098 C 0.60671 0.03128 0.20586 0.0
C2099 C 0.62666 0.02706 0.19235 0.0
C2100 C 0.64945 0.0231 0.2029 0.0
C2101 C 0.65206 0.02379 0.22678 0.0
C2102 C 0.58199 0.03522 0.19529 0.0
C2103 C 0.67107 0.01859 0.18898 0.0
C2104 C 0.60552 0.00492 0.13422 0.0
C2105 C 0.60358 0.02774 0.12252 0.0
C2106 C 0.61533 0.004 0.15645 0.0
C2107 C 0.62306 0.02654 0.16721 0.0
C2108 C 0.62305 0.0493 0.15469 0.0
C2109 C 0.61327 0.04963 0.13233 0.0
C2110 C 0.61523 0.97931 0.16908 0.0
C2111 C 0.63125 0.07369 0.16556 0.0
H2112 H 0.59453 0.03549 0.23978 0.0
H2113 H 0.66958 0.02125 0.23489 0.0
H2114 H 0.58207 0.05179 0.18385 0.0
H2115 H 0.5765 0.01871 0.1848 0.0
H2116 H 0.56838 0.03816 0.20825 0.0
H2117 H 0.6873 0.01464 0.1998 0.0
H2118 H 0.66769 0.00257 0.17722 0.0
H2119 H 0.67462 0.03532 0.17835 0.0
H2120 H 0.59808 0.988 0.12641 0.0
H2121 H 0.61166 0.06723 0.12316 0.0
H2122 H 0.60043 0.97914 0.1811 0.0
H2123 H 0.63215 0.9768 0.17921 0.0
H2124 H 0.61266 0.96311 0.15732 0.0
H2125 H 0.6176 0.08011 0.17738 0.0
H2126 H 0.63392 0.08864 0.1527 0.0
H2127 H 0.64818 0.07111 0.17567 0.0
C2128 C 0.73395 0.92359 0.93259 0.0
C2129 C 0.7582 0.92129 0.93925 0.0
C2130 C 0.72369 0.90829 0.91541 0.0
C2131 C 0.73819 0.8908 0.90449 0.0
C2132 C 0.76328 0.89131 0.90875 0.0
C2133 C 0.773 0.9065 0.92625 0.0
C2134 C 0.69697 0.90874 0.91107 0.0
C2135 C 0.77953 0.87358 0.89681 0.0
C2136 C 0.72033 0.82369 0.89355 0.0
C2137 C 0.72042 0.82291 0.8698 0.0
C2138 C 0.72357 0.84646 0.90515 0.0
C2139 C 0.72726 0.86879 0.89256 0.0
C2140 C 0.72449 0.86846 0.86857 0.0
C2141 C 0.72103 0.84539 0.8574 0.0
C2142 C 0.72571 0.84611 0.93084 0.0
C2143 C 0.72778 0.89188 0.85455 0.0
H2144 H 0.72237 0.93523 0.9424 0.0
H2145 H 0.7918 0.90501 0.93114 0.0
H2146 H 0.69207 0.90474 0.89297 0.0
H2147 H 0.68855 0.89406 0.9216 0.0
H2148 H 0.68943 0.92714 0.91579 0.0
H2149 H 0.79866 0.87888 0.89952 0.0
H2150 H 0.77694 0.85427 0.90344 0.0
H2151 H 0.77515 0.87322 0.87826 0.0
H2152 H 0.71981 0.80624 0.90304 0.0
H2153 H 0.72126 0.84475 0.83897 0.0
H2154 H 0.71526 0.86155 0.93808 0.0
H2155 H 0.74469 0.84899 0.93643 0.0
H2156 H 0.7194 0.82803 0.938 0.0
H2157 H 0.71872 0.89007 0.83748 0.0
H2158 H 0.74712 0.89503 0.85211 0.0
H2159 H 0.72082 0.90864 0.86319 0.0
C2160 C 0.83653 0.99653 0.00713 0.0
C2161 C 0.81509 0.9856 0.01387 0.0
C2162 C 0.85143 0.00939 0.02289 0.0
C2163 C 0.8445 0.01131 0.04576 0.0
C2164 C 0.82088 0.00496 0.05125 0.0
C2165 C 0.80634 0.99195 0.03518 0.0
C2166 C 0.87608 0.01725 0.01588 0.0
C2167 C 0.81207 0.00866 0.07491 0.0
C2168 C 0.89822 0.98851 0.07805 0.0
C2169 C 0.91126 0.01101 0.08065 0.0
C2170 C 0.87453 0.98855 0.06976 0.0
C2171 C 0.86371 0.01169 0.06383 0.0
C2172 C 0.87514 0.03443 0.07045 0.0
C2173 C 0.89889 0.03383 0.07898 0.0
C2174 C 0.86256 0.96363 0.06414 0.0
C2175 C 0.86355 0.05948 0.06615 0.0
H2176 H 0.84293 0.99267 0.99033 0.0
H2177 H 0.78928 0.98452 0.04029 0.0
H2178 H 0.88077 0.03613 0.02266 0.0
H2179 H 0.88946 0.00384 0.02299 0.0
H2180 H 0.87745 0.01762 0.99708 0.0
H2181 H 0.79259 0.01244 0.07429 0.0
H2182 H 0.81501 0.99126 0.08497 0.0
H2183 H 0.82162 0.02433 0.08385 0.0
H2184 H 0.90713 0.97063 0.07969 0.0
H2185 H 0.90835 0.05138 0.08222 0.0
H2186 H 0.86175 0.96082 0.04542 0.0
H2187 H 0.84402 0.96325 0.07005 0.0
H2188 H 0.87231 0.94759 0.07207 0.0
H2189 H 0.87018 0.06763 0.05017 0.0
H2190 H 0.8685 0.07276 0.08014 0.0
H2191 H 0.8438 0.05788 0.06452 0.0
C2192 C 0.34134 0.55663 0.99792 0.0
C2193 C 0.34242 0.58285 -0.00012 0.0
C2194 C 0.36206 0.5421 0.00084 0.0
C2195 C 0.38423 0.55407 0.0063 0.0
C2196 C 0.38526 0.58048 0.00884 0.0
C2197 C 0.3644 0.59455 0.00537 0.0
C2198 C 0.36034 0.51403 0.99762 0.0
C2199 C 0.40845 0.59395 0.01505 0.0
C2200 C 0.4369 0.51881 0.03302 0.0
C2201 C 0.45217 0.51744 0.01471 0.0
C2202 C 0.41428 0.52985 0.03036 0.0
C2203 C 0.40661 0.53927 0.00878 0.0
C2204 C 0.42139 0.53652 0.98996 0.0
C2205 C 0.44408 0.52587 0.9932 0.0
C2206 C 0.39922 0.53273 0.05092 0.0
C2207 C 0.41369 0.54586 0.96658 0.0
H2208 H 0.32439 0.54753 0.99357 0.0
H2209 H 0.3653 0.61479 0.00709 0.0
H2210 H 0.37152 0.50834 0.98336 0.0
H2211 H 0.36738 0.50427 0.0131 0.0
H2212 H 0.3417 0.50754 0.99389 0.0
H2213 H 0.40599 0.61442 0.01748 0.0
H2214 H 0.41653 0.586 0.03098 0.0
H2215 H 0.42137 0.5912 0.00146 0.0
H2216 H 0.4431 0.51244 0.04972 0.0
H2217 H 0.45574 0.52467 0.97895 0.0
H2218 H 0.38075 0.52584 0.04714 0.0
H2219 H 0.39807 0.5529 0.05536 0.0
H2220 H 0.40673 0.52244 0.06597 0.0
H2221 H 0.39541 0.53896 0.96189 0.0
H2222 H 0.426 0.53982 0.95332 0.0
H2223 H 0.41316 0.56667 0.96664 0.0
C2224 C 0.19657 0.58778 0.79352 0.0
C2225 C 0.18215 0.59003 0.81237 0.0
C2226 C 0.20938 0.60844 0.78538 0.0
C2227 C 0.20842 0.63171 0.79686 0.0
C2228 C 0.19484 0.63375 0.81663 0.0
C2229 C 0.1814 0.613 0.82386 0.0
C2230 C 0.22304 0.60565 0.76389 0.0
C2231 C 0.19428 0.65794 0.82994 0.0
C2232 C 0.25699 0.67992 0.78571 0.0
C2233 C 0.24463 0.69736 0.77191 0.0
C2234 C 0.24539 0.65859 0.79411 0.0
C2235 C 0.2211 0.65406 0.78781 0.0
C2236 C 0.20882 0.67107 0.77304 0.0
C2237 C 0.22061 0.69283 0.76565 0.0
C2238 C 0.25894 0.64136 0.81032 0.0
C2239 C 0.1831 0.66653 0.76542 0.0
H2240 H 0.19681 0.57014 0.78436 0.0
H2241 H 0.17022 0.61473 0.83841 0.0
H2242 H 0.21567 0.61858 0.75063 0.0
H2243 H 0.24206 0.61092 0.7671 0.0
H2244 H 0.22214 0.5862 0.7571 0.0
H2245 H 0.18432 0.6559 0.84582 0.0
H2246 H 0.21276 0.6644 0.83445 0.0
H2247 H 0.18571 0.67281 0.81933 0.0
H2248 H 0.27542 0.6837 0.79103 0.0
H2249 H 0.211 0.70645 0.7552 0.0
H2250 H 0.26122 0.62281 0.80221 0.0
H2251 H 0.24871 0.63822 0.82588 0.0
H2252 H 0.27688 0.64897 0.81542 0.0
H2253 H 0.18095 0.64746 0.758 0.0
H2254 H 0.17672 0.6805 0.7526 0.0
H2255 H 0.17153 0.66744 0.78028 0.0
C2256 C 0.18695 0.41735 0.52458 0.0
C2257 C 0.20755 0.41937 0.512 0.0
C2258 C 0.16919 0.43548 0.52276 0.0
C2259 C 0.17208 0.45603 0.50779 0.0
C2260 C 0.19352 0.45903 0.49608 0.0
C2261 C 0.21117 0.44057 0.49839 0.0
C2262 C 0.14677 0.43187 0.53598 0.0
C2263 C 0.19725 0.48077 0.48011 0.0
C2264 C 0.11045 0.47559 0.48897 0.0
C2265 C 0.1058 0.49319 0.50585 0.0
C2266 C 0.13325 0.46532 0.48753 0.0
C2267 C 0.15157 0.47284 0.50342 0.0
C2268 C 0.14771 0.49283 0.51856 0.0
C2269 C 0.12478 0.50281 0.5196 0.0
C2270 C 0.13693 0.44443 0.47075 0.0
C2271 C 0.16695 0.50171 0.53543 0.0
H2272 H 0.18435 0.4011 0.53536 0.0
H2273 H 0.22716 0.44207 0.48864 0.0
H2274 H 0.14308 0.449 0.54589 0.0
H2275 H 0.13126 0.42855 0.52401 0.0
H2276 H 0.14809 0.41573 0.54793 0.0
H2277 H 0.21643 0.48351 0.47654 0.0
H2278 H 0.18735 0.47704 0.46374 0.0
H2279 H 0.19027 0.49844 0.48715 0.0
H2280 H 0.09596 0.4685 0.47796 0.0
H2281 H 0.12144 0.51693 0.53232 0.0
H2282 H 0.1368 0.42616 0.47984 0.0
H2283 H 0.15448 0.44649 0.46281 0.0
H2284 H 0.12265 0.44394 0.45711 0.0
H2285 H 0.16807 0.48844 0.54998 0.0
H2286 H 0.16304 0.52065 0.54215 0.0
H2287 H 0.18466 0.50223 0.52763 0.0
C2288 C 0.89739 0.90471 0.83444 0.0
C2289 C 0.88848 0.92686 0.82446 0.0
C2290 C 0.88453 0.88199 0.83247 0.0
C2291 C 0.86237 0.88138 0.82006 0.0
C2292 C 0.85285 0.90383 0.81076 0.0
C2293 C 0.86595 0.92629 0.81315 0.0
C2294 C 0.89508 0.85851 0.843 0.0
C2295 C 0.82921 0.90398 0.7975 0.0
C2296 C 0.84075 0.82152 0.79065 0.0
C2297 C 0.82243 0.81366 0.80467 0.0
C2298 C 0.85432 0.84319 0.79583 0.0
C2299 C 0.84962 0.85716 0.81562 0.0
C2300 C 0.83172 0.84881 0.83027 0.0
C2301 C 0.81822 0.82727 0.82452 0.0
C2302 C 0.87326 0.85151 0.77978 0.0
C2303 C 0.82636 0.86293 0.85169 0.0
H2304 H 0.91468 0.90494 0.84338 0.0
H2305 H 0.85882 0.94325 0.80544 0.0
H2306 H 0.88151 0.84824 0.85275 0.0
H2307 H 0.9008 0.84582 0.82935 0.0
H2308 H 0.9108 0.86268 0.85453 0.0
H2309 H 0.82383 0.92318 0.79216 0.0
H2310 H 0.83039 0.89217 0.78205 0.0
H2311 H 0.81497 0.89579 0.80789 0.0
H2312 H 0.8442 0.81101 0.77537 0.0
H2313 H 0.80428 0.82114 0.83562 0.0
H2314 H 0.89072 0.85366 0.78916 0.0
H2315 H 0.86858 0.87011 0.77247 0.0
H2316 H 0.87533 0.83805 0.76559 0.0
H2317 H 0.84311 0.86822 0.86126 0.0
H2318 H 0.81497 0.85174 0.86306 0.0
H2319 H 0.81688 0.88052 0.84714 0.0
C2320 C 0.71459 0.08996 0.50516 0.0
C2321 C 0.71393 0.10577 0.48606 0.0
C2322 C 0.69365 0.07888 0.51306 0.0
C2323 C 0.67162 0.08301 0.50112 0.0
C2324 C 0.67107 0.09779 0.48103 0.0
C2325 C 0.69218 0.10948 0.47402 0.0
C2326 C 0.69495 0.06382 0.53485 0.0
C2327 C 0.6481 0.10169 0.46725 0.0
C2328 C 0.62012 0.03841 0.51261 0.0
C2329 C 0.60562 0.05328 0.52599 0.0
C2330 C 0.6415 0.04791 0.5042 0.0
C2331 C 0.64906 0.07255 0.51006 0.0
C2332 C 0.63495 0.08731 0.52434 0.0
C2333 C 0.61312 0.07767 0.53175 0.0
C2334 C 0.65561 0.0318 0.48853 0.0
C2335 C 0.64271 0.11343 0.53146 0.0
H2336 H 0.73131 0.08746 0.51478 0.0
H2337 H 0.69165 0.12177 0.45931 0.0
H2338 H 0.68405 0.07298 0.54779 0.0
H2339 H 0.68738 0.04475 0.53191 0.0
H2340 H 0.71354 0.06203 0.5419 0.0
H2341 H 0.65109 0.11164 0.45098 0.0
H2342 H 0.63929 0.08335 0.46339 0.0
H2343 H 0.63558 0.11283 0.47724 0.0
H2344 H 0.61412 0.01972 0.50766 0.0
H2345 H 0.60181 0.08925 0.54189 0.0
H2346 H 0.67274 0.02642 0.49718 0.0
H2347 H 0.66001 0.04246 0.47299 0.0
H2348 H 0.64578 0.0144 0.48333 0.0
H2349 H 0.66108 0.11307 0.53923 0.0
H2350 H 0.63058 0.12176 0.54385 0.0
H2351 H 0.64313 0.12582 0.51631 0.0
C2352 C 0.18128 0.42711 0.80546 0.0
C2353 C 0.19391 0.44926 0.81088 0.0
C2354 C 0.19315 0.40412 0.80387 0.0
C2355 C 0.21815 0.40318 0.80843 0.0
C2356 C 0.23084 0.42539 0.81467 0.0
C2357 C 0.21861 0.44825 0.8155 0.0
C2358 C 0.17907 0.38101 0.79653 0.0
C2359 C 0.25739 0.42508 0.82013 0.0
C2360 C 0.2453 0.33835 0.81749 0.0
C2361 C 0.25458 0.33381 0.7961 0.0
C2362 C 0.23395 0.36118 0.82206 0.0
C2363 C 0.23128 0.37947 0.80462 0.0
C2364 C 0.2407 0.37493 0.78306 0.0
C2365 C 0.25245 0.35237 0.77918 0.0
C2366 C 0.22465 0.36567 0.84543 0.0
C2367 C 0.23781 0.39362 0.76381 0.0
H2368 H 0.16217 0.42785 0.80188 0.0
H2369 H 0.22837 0.4653 0.82002 0.0
H2370 H 0.18557 0.3741 0.7801 0.0
H2371 H 0.18178 0.36576 0.80918 0.0
H2372 H 0.15962 0.3847 0.79441 0.0
H2373 H 0.26417 0.44338 0.82685 0.0
H2374 H 0.2617 0.41025 0.83287 0.0
H2375 H 0.26707 0.42057 0.80458 0.0
H2376 H 0.24693 0.3241 0.83062 0.0
H2377 H 0.25934 0.34897 0.76249 0.0
H2378 H 0.20491 0.3673 0.84433 0.0
H2379 H 0.23191 0.38364 0.85241 0.0
H2380 H 0.22946 0.35031 0.85751 0.0
H2381 H 0.21856 0.39702 0.76001 0.0
H2382 H 0.24604 0.38711 0.748 0.0
H2383 H 0.24611 0.41186 0.76884 0.0
C2384 C 0.37323 0.58873 0.28709 0.0
C2385 C 0.3629 0.56532 0.29166 0.0
C2386 C 0.35922 0.61039 0.28562 0.0
C2387 C 0.33446 0.60863 0.28947 0.0
C2388 C 0.32387 0.58494 0.29367 0.0
C2389 C 0.33819 0.56349 0.29441 0.0
C2390 C 0.371 0.63523 0.28036 0.0
C2391 C 0.29762 0.58239 0.29826 0.0
C2392 C 0.30549 0.66922 0.30774 0.0
C2393 C 0.29426 0.67705 0.28729 0.0
C2394 C 0.31794 0.64645 0.30893 0.0
C2395 C 0.31966 0.63162 0.28907 0.0
C2396 C 0.30796 0.63922 0.26852 0.0
C2397 C 0.29516 0.66165 0.26797 0.0
C2398 C 0.32972 0.63855 0.33129 0.0
C2399 C 0.30979 0.62425 0.24685 0.0
H2400 H 0.39234 0.59015 0.28501 0.0
H2401 H 0.33022 0.54545 0.29829 0.0
H2402 H 0.36159 0.64427 0.2656 0.0
H2403 H 0.36976 0.64808 0.29509 0.0
H2404 H 0.39013 0.63315 0.27647 0.0
H2405 H 0.29209 0.56256 0.30094 0.0
H2406 H 0.29353 0.59336 0.31364 0.0
H2407 H 0.28668 0.59019 0.28386 0.0
H2408 H 0.30482 0.68104 0.32269 0.0
H2409 H 0.28672 0.66763 0.25199 0.0
H2410 H 0.34941 0.63876 0.32988 0.0
H2411 H 0.32432 0.61906 0.33551 0.0
H2412 H 0.32509 0.65108 0.34551 0.0
H2413 H 0.32873 0.62354 0.24202 0.0
H2414 H 0.29903 0.6324 0.23245 0.0
H2415 H 0.30373 0.60463 0.24951 0.0
C2416 C 0.57204 0.64249 0.60918 0.0
C2417 C 0.56609 0.65463 0.62929 0.0
C2418 C 0.56267 0.61875 0.60373 0.0
C2419 C 0.54713 0.60676 0.61889 0.0
C2420 C 0.54267 0.6179 0.64008 0.0
C2421 C 0.55215 0.64183 0.64502 0.0
C2422 C 0.56834 0.6072 0.5811 0.0
C2423 C 0.52672 0.60534 0.65688 0.0
C2424 C 0.50563 0.56591 0.58346 0.0
C2425 C 0.51859 0.54368 0.58361 0.0
C2426 C 0.51309 0.58601 0.59742 0.0
C2427 C 0.53424 0.5837 0.61127 0.0
C2428 C 0.54572 0.56025 0.61332 0.0
C2429 C 0.53759 0.54036 0.59945 0.0
C2430 C 0.50026 0.61069 0.59493 0.0
C2431 C 0.5682 0.55713 0.62803 0.0
H2432 H 0.5831 0.65203 0.59709 0.0
H2433 H 0.54761 0.65095 0.66073 0.0
H2434 H 0.5753 0.58794 0.58362 0.0
H2435 H 0.5518 0.60573 0.57014 0.0
H2436 H 0.58174 0.61837 0.57187 0.0
H2437 H 0.52873 0.61397 0.67404 0.0
H2438 H 0.50781 0.60712 0.65083 0.0
H2439 H 0.53065 0.58502 0.6583 0.0
H2440 H 0.49124 0.56847 0.57082 0.0
H2441 H 0.54783 0.5232 0.59902 0.0
H2442 H 0.51078 0.62355 0.58422 0.0
H2443 H 0.49854 0.61978 0.61174 0.0
H2444 H 0.48217 0.6083 0.58676 0.0
H2445 H 0.57556 0.53796 0.62692 0.0
H2446 H 0.56442 0.56117 0.64603 0.0
H2447 H 0.58216 0.57064 0.62284 0.0
C2448 C 0.60011 0.25663 0.83921 0.0
C2449 C 0.5983 0.24816 0.86172 0.0
C2450 C 0.62191 0.25565 0.82791 0.0
C2451 C 0.64241 0.24495 0.83894 0.0
C2452 C 0.64042 0.2356 0.86144 0.0
C2453 C 0.61864 0.23782 0.87268 0.0
C2454 C 0.62319 0.26681 0.80439 0.0
C2455 C 0.66133 0.22321 0.87369 0.0
C2456 C 0.69337 0.22486 0.80085 0.0
C2457 C 0.71055 0.24385 0.80497 0.0
C2458 C 0.67149 0.2246 0.81216 0.0
C2459 C 0.66604 0.24438 0.82727 0.0
C2460 C 0.6832 0.26385 0.83105 0.0
C2461 C 0.70529 0.26307 0.82029 0.0
C2462 C 0.65431 0.20294 0.80816 0.0
C2463 C 0.67807 0.28587 0.84618 0.0
H2464 H 0.5846 0.26491 0.83066 0.0
H2465 H 0.61744 0.23111 0.89001 0.0
H2466 H 0.63702 0.28188 0.80442 0.0
H2467 H 0.62856 0.25232 0.79213 0.0
H2468 H 0.60588 0.27483 0.79825 0.0
H2469 H 0.6564 0.21492 0.89022 0.0
H2470 H 0.66854 0.20819 0.86292 0.0
H2471 H 0.67589 0.23714 0.87694 0.0
H2472 H 0.69729 0.20987 0.78916 0.0
H2473 H 0.7183 0.27798 0.82342 0.0
H2474 H 0.63735 0.20977 0.80015 0.0
H2475 H 0.64994 0.19422 0.82466 0.0
H2476 H 0.66167 0.18831 0.79702 0.0
H2477 H 0.66127 0.29504 0.84016 0.0
H2478 H 0.69272 0.30008 0.84653 0.0
H2479 H 0.67545 0.27931 0.86381 0.0
C2480 C 0.04188 0.30897 0.14159 0.0
C2481 C 0.0482 0.28968 0.1269 0.0
C2482 C 0.04195 0.33405 0.13426 0.0
C2483 C 0.04834 0.33969 0.11175 0.0
C2484 C 0.0546 0.32021 0.09687 0.0
C2485 C 0.05448 0.29545 0.10465 0.0
C2486 C 0.0353 0.35448 0.15054 0.0
C2487 C 0.06135 0.3255 0.07267 0.0
C2488 C 0.02809 0.39846 0.08117 0.0
C2489 C 0.04931 0.41264 0.0813 0.0
C2490 C 0.02722 0.37511 0.09199 0.0
C2491 C 0.04806 0.36582 0.10328 0.0
C2492 C 0.06928 0.38048 0.10431 0.0
C2493 C 0.06966 0.40378 0.09324 0.0
C2494 C 0.00429 0.35995 0.09054 0.0
C2495 C 0.09181 0.3711 0.11626 0.0
H2496 H 0.03714 0.30452 0.15885 0.0
H2497 H 0.05933 0.28056 0.09322 0.0
H2498 H 0.05024 0.3682 0.15267 0.0
H2499 H 0.01961 0.36487 0.1435 0.0
H2500 H 0.03099 0.34696 0.16755 0.0
H2501 H 0.0659 0.30816 0.06337 0.0
H2502 H 0.04635 0.33483 0.06325 0.0
H2503 H 0.07693 0.3385 0.07259 0.0
H2504 H 0.01215 0.40557 0.07245 0.0
H2505 H 0.08608 0.41472 0.09336 0.0
H2506 H 0.99936 0.3536 0.10773 0.0
H2507 H 0.00686 0.3429 0.08013 0.0
H2508 H 0.98919 0.37075 0.08277 0.0
H2509 H 0.08799 0.36439 0.13362 0.0
H2510 H 0.10597 0.38583 0.11758 0.0
H2511 H 0.09879 0.35494 0.10676 0.0
C2512 C 0.95087 0.75886 0.34709 0.0
C2513 C 0.95335 0.77508 0.36588 0.0
C2514 C 0.92982 0.75857 0.33291 0.0
C2515 C 0.91088 0.77528 0.3372 0.0
C2516 C 0.91379 0.79237 0.35559 0.0
C2517 C 0.9347 0.79186 0.36975 0.0
C2518 C 0.92749 0.73969 0.31384 0.0
C2519 C 0.89452 0.81094 0.36068 0.0
C2520 C 0.8618 0.78819 0.29109 0.0
C2521 C 0.84245 0.77393 0.29875 0.0
C2522 C 0.88413 0.78869 0.30323 0.0
C2523 C 0.88756 0.77417 0.32335 0.0
C2524 C 0.8682 0.75935 0.33086 0.0
C2525 C 0.84598 0.75961 0.31868 0.0
C2526 C 0.90395 0.80518 0.29475 0.0
C2527 C 0.87091 0.74322 0.3519 0.0
H2528 H 0.96499 0.74568 0.344 0.0
H2529 H 0.93638 0.80463 0.38407 0.0
H2530 H 0.91261 0.72643 0.31712 0.0
H2531 H 0.92303 0.74928 0.2975 0.0
H2532 H 0.94409 0.72878 0.31199 0.0
H2533 H 0.9002 0.82428 0.37439 0.0
H2534 H 0.88948 0.8218 0.34514 0.0
H2535 H 0.87829 0.80077 0.36599 0.0
H2536 H 0.85938 0.79936 0.27577 0.0
H2537 H 0.83134 0.74831 0.32474 0.0
H2538 H 0.92003 0.79381 0.29186 0.0
H2539 H 0.90906 0.81944 0.30784 0.0
H2540 H 0.89871 0.81499 0.27867 0.0
H2541 H 0.88638 0.73054 0.35046 0.0
H2542 H 0.8547 0.73166 0.35481 0.0
H2543 H 0.87454 0.75525 0.36705 0.0
C2544 C 0.51547 0.32084 0.93943 0.0
C2545 C 0.5335 0.31991 0.92354 0.0
C2546 C 0.51212 0.34236 0.95277 0.0
C2547 C 0.52785 0.3632 0.951 0.0
C2548 C 0.5462 0.36231 0.93501 0.0
C2549 C 0.54848 0.34089 0.92116 0.0
C2550 C 0.4917 0.34277 0.96878 0.0
C2551 C 0.56388 0.38368 0.93301 0.0
C2552 C 0.51043 0.42829 0.97174 0.0
C2553 C 0.52093 0.42902 0.99379 0.0
C2554 C 0.51191 0.4068 0.95796 0.0
C2555 C 0.52517 0.38581 0.96595 0.0
C2556 C 0.53591 0.38653 0.98823 0.0
C2557 C 0.53327 0.40792 0.00202 0.0
C2558 C 0.49936 0.40662 0.93477 0.0
C2559 C 0.55088 0.36504 0.99722 0.0
H2560 H 0.50377 0.30473 0.94131 0.0
H2561 H 0.56263 0.34015 0.90912 0.0
H2562 H 0.49875 0.34385 0.98664 0.0
H2563 H 0.48065 0.35968 0.96555 0.0
H2564 H 0.48004 0.32585 0.96697 0.0
H2565 H 0.57752 0.37983 0.92028 0.0
H2566 H 0.55443 0.40115 0.92805 0.0
H2567 H 0.57311 0.38717 0.94977 0.0
H2568 H 0.50094 0.44461 0.96528 0.0
H2569 H 0.5418 0.4086 0.01888 0.0
H2570 H 0.48771 0.38972 0.93291 0.0
H2571 H 0.51268 0.40571 0.92134 0.0
H2572 H 0.48827 0.42357 0.93179 0.0
H2573 H 0.53996 0.3476 0.99762 0.0
H2574 H 0.55854 0.36871 0.01462 0.0
H2575 H 0.56574 0.36161 0.98569 0.0
C2576 C 0.00451 0.18342 0.19123 0.0
C2577 C 0.00492 0.19098 0.1684 0.0
C2578 C 0.98282 0.18135 0.20229 0.0
C2579 C 0.96125 0.18733 0.19025 0.0
C2580 C 0.9614 0.19196 0.16654 0.0
C2581 C 0.98329 0.19353 0.15585 0.0
C2582 C 0.98332 0.17552 0.22742 0.0
C2583 C 0.93883 0.1984 0.15301 0.0
C2584 C 0.90074 0.18481 0.21754 0.0
C2585 C 0.89882 0.20963 0.22512 0.0
C2586 C 0.9213 0.17685 0.20672 0.0
C2587 C 0.93995 0.19434 0.20301 0.0
C2588 C 0.93802 0.21938 0.21076 0.0
C2589 C 0.91756 0.22663 0.22184 0.0
C2590 C 0.92298 0.14993 0.19908 0.0
C2591 C 0.95733 0.23877 0.2069 0.0
H2592 H 0.02117 0.18097 0.20094 0.0
H2593 H 0.98345 0.19902 0.13809 0.0
H2594 H 0.9822 0.19328 0.23714 0.0
H2595 H 0.96784 0.16356 0.2318 0.0
H2596 H 1.00006 0.16591 0.23299 0.0
H2597 H 0.94122 0.19694 0.13439 0.0
H2598 H 0.92381 0.18598 0.15767 0.0
H2599 H 0.93376 0.21798 0.15692 0.0
H2600 H 0.88622 0.17166 0.22019 0.0
H2601 H 0.91592 0.2459 0.22742 0.0
H2602 H 0.94016 0.14175 0.20531 0.0
H2603 H 0.92261 0.14909 0.18023 0.0
H2604 H 0.90807 0.13816 0.20523 0.0
H2605 H 0.97451 0.23255 0.21496 0.0
H2606 H 0.95296 0.25742 0.21396 0.0
H2607 H 0.96004 0.24091 0.1884 0.0
C2608 C 0.00202 0.68137 0.43858 0.0
C2609 C 0.01992 0.69288 0.42596 0.0
C2610 C 0.00556 0.65809 0.44937 0.0
C2611 C 0.02771 0.64577 0.44777 0.0
C2612 C 0.04556 0.6567 0.43424 0.0
C2613 C 0.04143 0.68009 0.4234 0.0
C2614 C 0.98582 0.64715 0.46322 0.0
C2615 C 0.06941 0.64423 0.43203 0.0
C2616 C 0.04237 0.60079 0.49706 0.0
C2617 C 0.03538 0.57745 0.4878 0.0
C2618 C 0.04088 0.62297 0.48396 0.0
C2619 C 0.03214 0.62197 0.46099 0.0
C2620 C 0.02561 0.59839 0.45141 0.0
C2621 C 0.02732 0.57653 0.46485 0.0
C2622 C 0.04805 0.64764 0.49494 0.0
C2623 C 0.01608 0.59632 0.4271 0.0
H2624 H 0.98526 0.691 0.44057 0.0
H2625 H 0.05545 0.68891 0.41393 0.0
H2626 H 0.98159 0.62768 0.45765 0.0
H2627 H 0.99176 0.64631 0.48143 0.0
H2628 H 0.96921 0.65836 0.46177 0.0
H2629 H 0.08068 0.65397 0.41956 0.0
H2630 H 0.07914 0.64411 0.44882 0.0
H2631 H 0.06685 0.62439 0.42669 0.0
H2632 H 0.04873 0.6018 0.51468 0.0
H2633 H 0.02193 0.55867 0.45738 0.0
H2634 H 0.03212 0.65973 0.49607 0.0
H2635 H 0.06103 0.65774 0.48437 0.0
H2636 H 0.05615 0.64513 0.51233 0.0
H2637 H 0.99865 0.60596 0.42528 0.0
H2638 H 0.01355 0.5765 0.42161 0.0
H2639 H 0.02843 0.60577 0.41545 0.0
C2640 C 0.63849 0.74262 0.69077 0.0
C2641 C 0.63089 0.75644 0.67165 0.0
C2642 C 0.65852 0.75027 0.70405 0.0
C2643 C 0.67068 0.77276 0.69844 0.0
C2644 C 0.66233 0.78746 0.67979 0.0
C2645 C 0.64274 0.77884 0.6663 0.0
C2646 C 0.66715 0.73378 0.72356 0.0
C2647 C 0.67432 0.81196 0.67382 0.0
C2648 C 0.7122 0.79152 0.74756 0.0
C2649 C 0.73324 0.77967 0.74142 0.0
C2650 C 0.69211 0.79187 0.73257 0.0
C2651 C 0.69308 0.77956 0.71131 0.0
C2652 C 0.715 0.7699 0.70418 0.0
C2653 C 0.73495 0.7704 0.71924 0.0
C2654 C 0.66931 0.80338 0.74033 0.0
C2655 C 0.71677 0.75644 0.68172 0.0
H2656 H 0.62929 0.72528 0.69484 0.0
H2657 H 0.63657 0.78969 0.65164 0.0
H2658 H 0.68566 0.72757 0.72075 0.0
H2659 H 0.66753 0.74452 0.73972 0.0
H2660 H 0.65566 0.71687 0.72558 0.0
H2661 H 0.66329 0.82307 0.66143 0.0
H2662 H 0.67796 0.82344 0.68933 0.0
H2663 H 0.69173 0.80818 0.66622 0.0
H2664 H 0.7109 0.79909 0.76457 0.0
H2665 H 0.75123 0.7614 0.71429 0.0
H2666 H 0.65721 0.78832 0.74624 0.0
H2667 H 0.65988 0.81336 0.72611 0.0
H2668 H 0.67277 0.81672 0.75461 0.0
H2669 H 0.73559 0.75282 0.67751 0.0
H2670 H 0.70819 0.76743 0.66769 0.0
H2671 H 0.70717 0.73815 0.68254 0.0
C2672 C 0.62706 0.47192 0.68022 0.0
C2673 C 0.61072 0.4862 0.69215 0.0
C2674 C 0.62192 0.46431 0.65765 0.0
C2675 C 0.60023 0.47173 0.64657 0.0
C2676 C 0.58323 0.48517 0.65889 0.0
C2677 C 0.58865 0.49207 0.68147 0.0
C2678 C 0.63997 0.44866 0.64577 0.0
C2679 C 0.55906 0.49232 0.64862 0.0
C2680 C 0.59482 0.48637 0.58385 0.0
C2681 C 0.57672 0.46943 0.5767 0.0
C2682 C 0.60421 0.48606 0.60629 0.0
C2683 C 0.59592 0.46778 0.62169 0.0
C2684 C 0.58009 0.44861 0.61368 0.0
C2685 C 0.57037 0.44985 0.59132 0.0
C2686 C 0.62145 0.50662 0.61396 0.0
C2687 C 0.57183 0.42802 0.62922 0.0
H2688 H 0.64397 0.46676 0.68842 0.0
H2689 H 0.57558 0.50254 0.69062 0.0
H2690 H 0.63135 0.43624 0.63266 0.0
H2691 H 0.6528 0.46123 0.63733 0.0
H2692 H 0.65035 0.43689 0.65815 0.0
H2693 H 0.55245 0.50981 0.65637 0.0
H2694 H 0.5592 0.49495 0.62995 0.0
H2695 H 0.54603 0.47715 0.65217 0.0
H2696 H 0.60012 0.50136 0.57259 0.0
H2697 H 0.55667 0.43642 0.58582 0.0
H2698 H 0.63888 0.49831 0.61911 0.0
H2699 H 0.61473 0.51652 0.62899 0.0
H2700 H 0.62445 0.52067 0.60036 0.0
H2701 H 0.58659 0.42197 0.64108 0.0
H2702 H 0.56497 0.41148 0.61942 0.0
H2703 H 0.55717 0.43509 0.63954 0.0
C2704 C 0.8017 0.35877 0.98176 0.0
C2705 C 0.79041 0.38214 0.98176 0.0
C2706 C 0.80645 0.34661 0.96136 0.0
C2707 C 0.79963 0.35805 0.94043 0.0
C2708 C 0.78915 0.38215 0.94025 0.0
C2709 C 0.78467 0.39396 0.96099 0.0
C2710 C 0.81772 0.32097 0.96227 0.0
C2711 C 0.7817 0.39492 0.91822 0.0
C2712 C 0.82387 0.32943 0.88691 0.0
C2713 C 0.80501 0.31334 0.87999 0.0
C2714 C 0.82226 0.34457 0.90633 0.0
C2715 C 0.80128 0.34358 0.91899 0.0
C2716 C 0.78208 0.32765 0.91187 0.0
C2717 C 0.78417 0.31277 0.89247 0.0
C2718 C 0.84309 0.36132 0.9135 0.0
C2719 C 0.75936 0.3261 0.92488 0.0
H2720 H 0.80637 0.3496 0.99775 0.0
H2721 H 0.77603 0.41208 0.96093 0.0
H2722 H 0.80453 0.30667 0.95598 0.0
H2723 H 0.83315 0.32032 0.95103 0.0
H2724 H 0.82392 0.31571 0.9798 0.0
H2725 H 0.77615 0.41462 0.92089 0.0
H2726 H 0.79655 0.39483 0.90627 0.0
H2727 H 0.7665 0.38447 0.90995 0.0
H2728 H 0.83999 0.32994 0.87729 0.0
H2729 H 0.76928 0.30088 0.88688 0.0
H2730 H 0.85045 0.35535 0.93041 0.0
H2731 H 0.83706 0.38097 0.91523 0.0
H2732 H 0.85763 0.36087 0.90118 0.0
H2733 H 0.76343 0.31922 0.94241 0.0
H2734 H 0.74582 0.31336 0.91664 0.0
H2735 H 0.75147 0.34502 0.92635 0.0
C2736 C 0.94222 0.54003 0.18499 0.0
C2737 C 0.95592 0.54343 0.20522 0.0
C2738 C 0.95223 0.54418 0.16375 0.0
C2739 C 0.97631 0.55244 0.16281 0.0
C2740 C 0.98961 0.55761 0.18323 0.0
C2741 C 0.97935 0.55276 0.20418 0.0
C2742 C 0.93756 0.53809 0.14235 0.0
C2743 C 0.01513 0.56696 0.18298 0.0
C2744 C 0.01114 0.53004 0.11291 0.0
C2745 C 0.01022 0.55085 0.09825 0.0
C2746 C 1.00026 0.53047 0.13393 0.0
C2747 C 0.9885 0.55243 0.14077 0.0
C2748 C 0.98826 0.57388 0.12651 0.0
C2749 C 0.99897 0.57277 0.10528 0.0
C2750 C 1.00079 0.50709 0.14852 0.0
C2751 C 0.97632 0.59778 0.1335 0.0
H2752 H 0.92411 0.5328 0.18573 0.0
H2753 H 0.9899 0.55578 0.21981 0.0
H2754 H 0.93852 0.55374 0.12996 0.0
H2755 H 0.94494 0.52123 0.13418 0.0
H2756 H 0.91851 0.53433 0.14585 0.0
H2757 H 0.02178 0.57351 0.20003 0.0
H2758 H 0.02683 0.55162 0.17746 0.0
H2759 H 0.01681 0.5826 0.17065 0.0
H2760 H 0.0197 0.51295 0.10764 0.0
H2761 H 0.99818 0.58891 0.09405 0.0
H2762 H 0.98227 0.50061 0.15146 0.0
H2763 H 0.00943 0.51127 0.1654 0.0
H2764 H 0.01058 0.49152 0.14063 0.0
H2765 H 0.95683 0.59446 0.13469 0.0
H2766 H 0.97917 0.61332 0.12126 0.0
H2767 H 0.98325 0.60374 0.15061 0.0
C2768 C 0.7737 0.64165 0.45472 0.0
C2769 C 0.79564 0.65392 0.45904 0.0
C2770 C 0.75862 0.6489 0.43636 0.0
C2771 C 0.76616 0.66832 0.42182 0.0
C2772 C 0.78874 0.68015 0.4258 0.0
C2773 C 0.80302 0.67307 0.44468 0.0
C2774 C 0.73433 0.63658 0.43326 0.0
C2775 C 0.79771 0.70056 0.41032 0.0
C2776 C 0.74707 0.68003 0.36124 0.0
C2777 C 0.73692 0.70383 0.36328 0.0
C2778 C 0.75423 0.66638 0.3806 0.0
C2779 C 0.75087 0.67681 0.40232 0.0
C2780 C 0.73745 0.69899 0.4044 0.0
C2781 C 0.73087 0.71252 0.38474 0.0
C2782 C 0.76823 0.64261 0.3777 0.0
C2783 C 0.73256 0.70996 0.42739 0.0
H2784 H 0.76784 0.62719 0.4663 0.0
H2785 H 0.81998 0.68253 0.44827 0.0
H2786 H 0.72995 0.63259 0.41506 0.0
H2787 H 0.73313 0.61882 0.44309 0.0
H2788 H 0.72056 0.64953 0.43935 0.0
H2789 H 0.81621 0.70676 0.41517 0.0
H2790 H 0.79741 0.69383 0.39246 0.0
H2791 H 0.78585 0.71707 0.41091 0.0
H2792 H 0.75175 0.67323 0.34463 0.0
H2793 H 0.72263 0.73074 0.38625 0.0
H2794 H 0.76321 0.62824 0.39036 0.0
H2795 H 0.78757 0.64682 0.38052 0.0
H2796 H 0.76542 0.63462 0.36034 0.0
H2797 H 0.72775 0.69498 0.43956 0.0
H2798 H 0.71793 0.72388 0.42625 0.0
H2799 H 0.74893 0.71955 0.43435 0.0
C2800 C 0.63822 0.50889 0.83279 0.0
C2801 C 0.62509 0.51086 0.8121 0.0
C2802 C 0.62782 0.51458 0.85348 0.0
C2803 C 0.60381 0.52268 0.85339 0.0
C2804 C 0.59087 0.52588 0.83245 0.0
C2805 C 0.60163 0.51977 0.81205 0.0
C2806 C 0.64214 0.51074 0.87547 0.0
C2807 C 0.56534 0.53475 0.83164 0.0
C2808 C 0.56787 0.50647 0.90473 0.0
C2809 C 0.56813 0.52922 0.9167 0.0
C2810 C 0.57943 0.50418 0.88416 0.0
C2811 C 0.59147 0.52523 0.8752 0.0
C2812 C 0.59172 0.54834 0.88709 0.0
C2813 C 0.58017 0.55002 0.90785 0.0
C2814 C 0.57898 0.4791 0.87217 0.0
C2815 C 0.60419 0.57122 0.8779 0.0
H2816 H 0.6564 0.50208 0.8329 0.0
H2817 H 0.59148 0.52157 0.79607 0.0
H2818 H 0.6414 0.52769 0.88633 0.0
H2819 H 0.6343 0.49495 0.88508 0.0
H2820 H 0.66115 0.50646 0.87255 0.0
H2821 H 0.55866 0.53884 0.814 0.0
H2822 H 0.55366 0.52011 0.83893 0.0
H2823 H 0.56368 0.55191 0.8421 0.0
H2824 H 0.55903 0.49018 0.91175 0.0
H2825 H 0.58038 0.56762 0.91709 0.0
H2826 H 0.5975 0.47246 0.87019 0.0
H2827 H 0.57063 0.48105 0.85485 0.0
H2828 H 0.56894 0.46456 0.88152 0.0
H2829 H 0.62345 0.56734 0.87616 0.0
H2830 H 0.60242 0.58788 0.88902 0.0
H2831 H 0.59667 0.57578 0.86067 0.0
C2832 C 0.76742 0.36274 0.10864 0.0
C2833 C 0.79019 0.37029 0.10223 0.0
C2834 C 0.76431 0.35025 0.1294 0.0
C2835 C 0.78441 0.34596 0.14423 0.0
C2836 C 0.80721 0.35503 0.13834 0.0
C2837 C 0.8099 0.36664 0.11717 0.0
C2838 C 0.73984 0.34036 0.13481 0.0
C2839 C 0.82894 0.35165 0.15402 0.0
C2840 C 0.77579 0.32876 0.20604 0.0
C2841 C 0.78157 0.3032 0.20624 0.0
C2842 C 0.77628 0.34288 0.18592 0.0
C2843 C 0.78197 0.33094 0.16537 0.0
C2844 C 0.78675 0.30486 0.1653 0.0
C2845 C 0.78693 0.29137 0.18585 0.0
C2846 C 0.77189 0.37077 0.18689 0.0
C2847 C 0.79224 0.29132 0.14361 0.0
H2848 H 0.7523 0.36519 0.09679 0.0
H2849 H 0.82752 0.37239 0.11203 0.0
H2850 H 0.74005 0.31953 0.13497 0.0
H2851 H 0.7349 0.34654 0.15199 0.0
H2852 H 0.72584 0.34662 0.12221 0.0
H2853 H 0.84477 0.36206 0.148 0.0
H2854 H 0.8252 0.35816 0.17144 0.0
H2855 H 0.83343 0.33145 0.15522 0.0
H2856 H 0.77197 0.33805 0.22187 0.0
H2857 H 0.79137 0.27161 0.186 0.0
H2858 H 0.75782 0.37619 0.17409 0.0
H2859 H 0.78844 0.3811 0.18266 0.0
H2860 H 0.76644 0.37692 0.20395 0.0
H2861 H 0.77837 0.29541 0.13016 0.0
H2862 H 0.7932 0.27067 0.14604 0.0
H2863 H 0.80959 0.29807 0.13736 0.0
C2864 C 0.90934 0.4954 0.32597 0.0
C2865 C 0.92069 0.517 0.31793 0.0
C2866 C 0.91778 0.4836 0.34603 0.0
C2867 C 0.93736 0.49436 0.35862 0.0
C2868 C 0.94835 0.51666 0.35077 0.0
C2869 C 0.94017 0.52739 0.33023 0.0
C2870 C 0.9063 0.45931 0.35335 0.0
C2871 C 0.96891 0.52909 0.36396 0.0
C2872 C 0.95039 0.48422 0.42131 0.0
C2873 C 0.97189 0.47106 0.42089 0.0
C2874 C 0.93775 0.49034 0.40107 0.0
C2875 C 0.9467 0.48267 0.38003 0.0
C2876 C 0.96712 0.46723 0.3797 0.0
C2877 C 0.97973 0.4619 0.40018 0.0
C2878 C 0.91627 0.50713 0.40216 0.0
C2879 C 0.97677 0.45805 0.35762 0.0
H2880 H 0.89456 0.48715 0.31603 0.0
H2881 H 0.94893 0.54403 0.32378 0.0
H2882 H 0.91981 0.44422 0.35409 0.0
H2883 H 0.89946 0.46127 0.3707 0.0
H2884 H 0.89132 0.45337 0.34156 0.0
H2885 H 0.97452 0.54707 0.35613 0.0
H2886 H 0.96384 0.53285 0.38169 0.0
H2887 H 0.98449 0.51638 0.36484 0.0
H2888 H 0.94446 0.49152 0.43734 0.0
H2889 H 0.99632 0.4516 0.39993 0.0
H2890 H 0.9015 0.50023 0.39065 0.0
H2891 H 0.92119 0.52627 0.39639 0.0
H2892 H 0.90967 0.50849 0.41969 0.0
H2893 H 0.96205 0.45146 0.34588 0.0
H2894 H 0.98967 0.44254 0.36043 0.0
H2895 H 0.98609 0.47373 0.34912 0.0
C2896 C 0.85358 0.68414 0.58127 0.0
C2897 C 0.83689 0.69856 0.56873 0.0
C2898 C 0.8586 0.68901 0.60436 0.0
C2899 C 0.84621 0.70835 0.61516 0.0
C2900 C 0.83079 0.72423 0.60215 0.0
C2901 C 0.82648 0.71926 0.57894 0.0
C2902 C 0.87569 0.67217 0.61753 0.0
C2903 C 0.81711 0.74496 0.61312 0.0
C2904 C 0.82702 0.69791 0.6753 0.0
C2905 C 0.84138 0.71531 0.68745 0.0
C2906 C 0.82909 0.69486 0.65185 0.0
C2907 C 0.84616 0.70938 0.64034 0.0
C2908 C 0.86176 0.72584 0.65273 0.0
C2909 C 0.85902 0.7288 0.6762 0.0
C2910 C 0.812 0.67719 0.63921 0.0
C2911 C 0.88052 0.74114 0.64107 0.0
H2912 H 0.86193 0.66833 0.57326 0.0
H2913 H 0.81358 0.73041 0.56926 0.0
H2914 H 0.88734 0.68327 0.62952 0.0
H2915 H 0.8654 0.65863 0.62774 0.0
H2916 H 0.88711 0.66138 0.60607 0.0
H2917 H 0.80814 0.75739 0.60031 0.0
H2918 H 0.80327 0.73661 0.6239 0.0
H2919 H 0.82916 0.75654 0.62432 0.0
H2920 H 0.81311 0.68776 0.68389 0.0
H2921 H 0.87018 0.74222 0.68564 0.0
H2922 H 0.82203 0.66351 0.62918 0.0
H2923 H 0.80043 0.68798 0.62706 0.0
H2924 H 0.80038 0.66664 0.65084 0.0
H2925 H 0.89048 0.72924 0.62929 0.0
H2926 H 0.89343 0.75007 0.65347 0.0
H2927 H 0.87178 0.75614 0.63075 0.0
C2928 C 0.72352 0.65978 0.49786 0.0
C2929 C 0.74129 0.64973 0.51262 0.0
C2930 C 0.70059 0.64903 0.49614 0.0
C2931 C 0.69532 0.62776 0.5095 0.0
C2932 C 0.71297 0.61784 0.52477 0.0
C2933 C 0.73576 0.62895 0.52615 0.0
C2934 C 0.68223 0.66002 0.47958 0.0
C2935 C 0.70802 0.59504 0.53919 0.0
C2936 C 0.63193 0.60733 0.52092 0.0
C2937 C 0.62881 0.587 0.50594 0.0
C2938 C 0.65313 0.62157 0.52154 0.0
C2939 C 0.67166 0.61514 0.507 0.0
C2940 C 0.6682 0.59537 0.49114 0.0
C2941 C 0.64674 0.58163 0.49071 0.0
C2942 C 0.65613 0.64274 0.53848 0.0
C2943 C 0.68756 0.58799 0.47532 0.0
H2944 H 0.7277 0.67564 0.4871 0.0
H2945 H 0.74937 0.62103 0.53754 0.0
H2946 H 0.67749 0.64613 0.46607 0.0
H2947 H 0.66562 0.66431 0.48844 0.0
H2948 H 0.68878 0.67743 0.47137 0.0
H2949 H 0.72346 0.59013 0.55071 0.0
H2950 H 0.69229 0.59834 0.54964 0.0
H2951 H 0.70369 0.57869 0.52805 0.0
H2952 H 0.61825 0.61146 0.53287 0.0
H2953 H 0.64423 0.56623 0.4788 0.0
H2954 H 0.66231 0.66005 0.5299 0.0
H2955 H 0.66998 0.63777 0.55167 0.0
H2956 H 0.63927 0.64685 0.54705 0.0
H2957 H 0.69363 0.60453 0.46557 0.0
H2958 H 0.68151 0.57314 0.4631 0.0
H2959 H 0.70326 0.58096 0.48541 0.0
C2960 C 0.21766 0.95508 0.56128 0.0
C2961 C 0.22038 0.93142 0.55133 0.0
C2962 C 0.19497 0.96611 0.5623 0.0
C2963 C 0.17463 0.95332 0.55284 0.0
C2964 C 0.17725 0.92913 0.54336 0.0
C2965 C 0.20001 0.91845 0.54287 0.0
C2966 C 0.19286 0.99174 0.57287 0.0
C2967 C 0.15611 0.91492 0.53287 0.0
C2968 C 0.11053 0.9707 0.56492 0.0
C2969 C 0.10387 0.98438 0.54531 0.0
C2970 C 0.13388 0.96148 0.56818 0.0
C2971 C 0.15084 0.9657 0.55128 0.0
C2972 C 0.14439 0.98015 0.53181 0.0
C2973 C 0.12109 0.98943 0.52915 0.0
C2974 C 0.14017 0.94652 0.58935 0.0
C2975 C 0.16178 0.98487 0.51324 0.0
H2976 H 0.23329 0.96518 0.56794 0.0
H2977 H 0.2019 0.90016 0.53513 0.0
H2978 H 0.18768 0.0056 0.55953 0.0
H2979 H 0.17864 0.99161 0.58549 0.0
H2980 H 0.20988 0.99812 0.58142 0.0
H2981 H 0.16099 0.89588 0.52705 0.0
H2982 H 0.14182 0.91302 0.54531 0.0
H2983 H 0.14856 0.92551 0.51805 0.0
H2984 H 0.09741 0.96685 0.57756 0.0
H2985 H 0.11615 -3e-05 0.51393 0.0
H2986 H 0.15707 0.95368 0.59752 0.0
H2987 H 0.14306 0.92664 0.58472 0.0
H2988 H 0.1259 0.94719 0.60193 0.0
H2989 H 0.17861 0.99321 0.5205 0.0
H2990 H 0.15442 0.9976 0.49979 0.0
H2991 H 0.16638 0.96679 0.50521 0.0
C2992 C 0.38439 0.93655 0.78732 0.0
C2993 C 0.38393 0.94976 0.76666 0.0
C2994 C 0.36919 0.91591 0.79058 0.0
C2995 C 0.35347 0.9079 0.77256 0.0
C2996 C 0.35244 0.92159 0.75185 0.0
C2997 C 0.36751 0.94259 0.74924 0.0
C2998 C 0.37054 0.90221 0.81309 0.0
C2999 C 0.33616 0.91343 0.73212 0.0
C3000 C 0.3385 0.83838 0.77087 0.0
C3001 C 0.31502 0.8377 0.77842 0.0
C3002 C 0.35101 0.86109 0.76874 0.0
C3003 C 0.33998 0.88382 0.77463 0.0
C3004 C 0.31646 0.88334 0.7827 0.0
C3005 C 0.30416 0.86026 0.78434 0.0
C3006 C 0.37598 0.86074 0.75991 0.0
C3007 C 0.30429 0.90718 0.7895 0.0
H3008 H 0.39671 0.94237 0.80104 0.0
H3009 H 0.36705 0.95285 0.7333 0.0
H3010 H 0.35239 0.89938 0.81961 0.0
H3011 H 0.37834 0.88338 0.81072 0.0
H3012 H 0.38168 0.91247 0.82615 0.0
H3013 H 0.33619 0.92706 0.71781 0.0
H3014 H 0.34197 0.89494 0.72578 0.0
H3015 H 0.31759 0.91105 0.73771 0.0
H3016 H 0.34706 0.82111 0.76609 0.0
H3017 H 0.28603 0.85991 0.79015 0.0
H3018 H 0.38884 0.86869 0.77285 0.0
H3019 H 0.37689 0.87264 0.74446 0.0
H3020 H 0.38179 0.84151 0.7556 0.0
H3021 H 0.31527 0.91703 0.80289 0.0
H3022 H 0.28621 0.90357 0.79598 0.0
H3023 H 0.30262 0.92003 0.77468 0.0
C3024 C 0.36236 0.08449 0.05865 0.0
C3025 C 0.36159 0.10571 0.04455 0.0
C3026 C 0.38415 0.07279 0.06412 0.0
C3027 C 0.40534 0.08245 0.05497 0.0
C3028 C 0.40495 0.10568 0.0433 0.0
C3029 C 0.38301 0.11712 0.03829 0.0
C3030 C 0.38408 0.0486 0.07747 0.0
C3031 C 0.42725 0.11683 0.03357 0.0
C3032 C 0.46648 0.05279 0.06283 0.0
C3033 C 0.46699 0.038 0.04312 0.0
C3034 C 0.44602 0.06652 0.06775 0.0
C3035 C 0.426 0.06572 0.05234 0.0
C3036 C 0.42621 0.05011 0.03287 0.0
C3037 C 0.44661 0.03634 0.02862 0.0
C3038 C 0.44629 0.08252 0.08891 0.0
C3039 C 0.40524 0.04872 0.0159 0.0
H3040 H 0.34586 0.07593 0.06402 0.0
H3041 H 0.38256 0.13391 0.02786 0.0
H3042 H 0.38434 0.03251 0.06552 0.0
H3043 H 0.40018 0.04735 0.089 0.0
H3044 H 0.36788 0.04677 0.0877 0.0
H3045 H 0.4247 0.13669 0.02831 0.0
H3046 H 0.44249 0.11591 0.04613 0.0
H3047 H 0.43206 0.10585 0.01841 0.0
H3048 H 0.48214 0.05397 0.07421 0.0
H3049 H 0.4468 0.02484 0.01343 0.0
H3050 H 0.42851 0.08264 0.0966 0.0
H3051 H 0.45093 0.10214 0.08441 0.0
H3052 H 0.45978 0.07589 0.10185 0.0
H3053 H 0.38882 0.04295 0.02456 0.0
H3054 H 0.40818 0.03522 0.00191 0.0
H3055 H 0.40199 0.0675 0.00828 0.0
C3056 C 0.68971 0.57263 0.76332 0.0
C3057 C 0.66544 0.57494 0.75692 0.0
C3058 C 0.70437 0.5939 0.76654 0.0
C3059 C 0.69466 0.61805 0.76283 0.0
C3060 C 0.67043 0.62048 0.75545 0.0
C3061 C 0.65602 0.59889 0.75284 0.0
C3062 C 0.73003 0.59057 0.77476 0.0
C3063 C 0.6596 0.64591 0.75082 0.0
C3064 C 0.72379 0.67306 0.79445 0.0
C3065 C 0.73841 0.68324 0.77791 0.0
C3066 C 0.70955 0.65176 0.78976 0.0
C3067 C 0.70954 0.64076 0.76785 0.0
C3068 C 0.72401 0.6512 0.75097 0.0
C3069 C 0.73851 0.67217 0.75629 0.0
C3070 C 0.69469 0.64088 0.80834 0.0
C3071 C 0.72406 0.64032 0.72727 0.0
H3072 H 0.69707 0.55419 0.76666 0.0
H3073 H 0.63732 0.60078 0.74772 0.0
H3074 H 0.74224 0.60011 0.76304 0.0
H3075 H 0.73287 0.5994 0.79174 0.0
H3076 H 0.73506 0.57049 0.77609 0.0
H3077 H 0.64111 0.64447 0.74337 0.0
H3078 H 0.65917 0.65674 0.7669 0.0
H3079 H 0.67071 0.65677 0.73899 0.0
H3080 H 0.72374 0.68154 0.8112 0.0
H3081 H 0.7496 0.68018 0.74338 0.0
H3082 H 0.69967 0.62104 0.8115 0.0
H3083 H 0.6755 0.64102 0.80294 0.0
H3084 H 0.69702 0.65144 0.82457 0.0
H3085 H 0.73583 0.65108 0.71593 0.0
H3086 H 0.70564 0.64014 0.71961 0.0
H3087 H 0.73016 0.62059 0.72801 0.0
C3088 C 0.86539 0.43776 0.00829 0.0
C3089 C 0.8498 0.44001 0.02624 0.0
C3090 C 0.88521 0.45381 0.00655 0.0
C3091 C 0.88986 0.47229 0.02345 0.0
C3092 C 0.87342 0.4756 0.04093 0.0
C3093 C 0.85339 0.45953 0.04199 0.0
C3094 C 0.90199 0.44987 0.9874 0.0
C3095 C 0.87786 0.49489 0.05941 0.0
C3096 C 0.95582 0.4845 0.0357 0.0
C3097 C 0.95966 0.50741 0.02456 0.0
C3098 C 0.93308 0.47342 0.03601 0.0
C3099 C 0.91355 0.4853 0.02461 0.0
C3100 C 0.91716 0.50856 0.01346 0.0
C3101 C 0.94019 0.51947 0.01371 0.0
C3102 C 0.93006 0.44874 0.04832 0.0
C3103 C 0.89682 0.5216 0.00089 0.0
H3104 H 0.86245 0.42291 0.99586 0.0
H3105 H 0.84136 0.46131 0.0559 0.0
H3106 H 0.90674 0.46807 0.9795 0.0
H3107 H 0.91879 0.44138 0.99426 0.0
H3108 H 0.89415 0.43728 0.97399 0.0
H3109 H 0.86194 0.49754 0.06981 0.0
H3110 H 0.89293 0.48874 0.07083 0.0
H3111 H 0.88301 0.51322 0.05202 0.0
H3112 H 0.97066 0.47514 0.04439 0.0
H3113 H 0.94302 0.53721 0.00513 0.0
H3114 H 0.92448 0.43388 0.03598 0.0
H3115 H 0.91581 0.45026 0.06083 0.0
H3116 H 0.94678 0.44272 0.05745 0.0
H3117 H 0.89006 0.5097 0.98652 0.0
H3118 H 0.90227 0.54015 0.99407 0.0
H3119 H 0.88176 0.52431 0.01233 0.0
C3120 C 0.38372 0.10877 0.74162 0.0
C3121 C 0.37406 0.08605 0.73326 0.0
C3122 C 0.37031 0.13083 0.74101 0.0
C3123 C 0.34673 0.13033 0.73145 0.0
C3124 C 0.33753 0.10794 0.72134 0.0
C3125 C 0.35126 0.08595 0.72253 0.0
C3126 C 0.38082 0.15421 0.75213 0.0
C3127 C 0.31271 0.10683 0.71047 0.0
C3128 C 0.30623 0.17621 0.75986 0.0
C3129 C 0.30754 0.19722 0.74555 0.0
C3130 C 0.31796 0.1539 0.75483 0.0
C3131 C 0.33104 0.15233 0.73476 0.0
C3132 C 0.33116 0.17289 0.71946 0.0
C3133 C 0.31958 0.19522 0.72514 0.0
C3134 C 0.31753 0.13256 0.77176 0.0
C3135 C 0.3444 0.17171 0.69764 0.0
H3136 H 0.40139 0.10911 0.7498 0.0
H3137 H 0.34373 0.06851 0.71589 0.0
H3138 H 0.37904 0.17048 0.74043 0.0
H3139 H 0.37085 0.15866 0.76755 0.0
H3140 H 0.39999 0.15203 0.75722 0.0
H3141 H 0.30982 0.08967 0.69998 0.0
H3142 H 0.29936 0.10684 0.72392 0.0
H3143 H 0.30934 0.12356 0.6996 0.0
H3144 H 0.29689 0.17749 0.77562 0.0
H3145 H 0.32048 0.21128 0.71387 0.0
H3146 H 0.33579 0.12967 0.77927 0.0
H3147 H 0.31188 0.11486 0.76315 0.0
H3148 H 0.3053 0.13616 0.78581 0.0
H3149 H 0.36392 0.17266 0.70156 0.0
H3150 H 0.33959 0.18744 0.68597 0.0
H3151 H 0.3406 0.15369 0.68871 0.0
C3152 C 0.17863 0.9191 0.2678 0.0
C3153 C 0.18751 0.94064 0.25722 0.0
C3154 C 0.19036 0.89607 0.26626 0.0
C3155 C 0.21135 0.89455 0.25368 0.0
C3156 C 0.2201 0.9161 0.24252 0.0
C3157 C 0.20812 0.93895 0.24452 0.0
C3158 C 0.18059 0.87351 0.27854 0.0
C3159 C 0.24233 0.91511 0.22884 0.0
C3160 C 0.25307 0.84228 0.272 0.0
C3161 C 0.24655 0.82325 0.25643 0.0
C3162 C 0.24236 0.86589 0.27076 0.0
C3163 C 0.22481 0.87069 0.2534 0.0
C3164 C 0.21905 0.85207 0.23688 0.0
C3165 C 0.22996 0.82848 0.23861 0.0
C3166 C 0.249 0.88526 0.28871 0.0
C3167 C 0.20061 0.85667 0.21797 0.0
H3168 H 0.16269 0.92029 0.27761 0.0
H3169 H 0.21497 0.95551 0.23616 0.0
H3170 H 0.17733 0.85779 0.26642 0.0
H3171 H 0.19389 0.86703 0.29168 0.0
H3172 H 0.16364 0.87764 0.28694 0.0
H3173 H 0.24593 0.93313 0.22004 0.0
H3174 H 0.25799 0.91064 0.2402 0.0
H3175 H 0.24061 0.89996 0.21593 0.0
H3176 H 0.26598 0.83848 0.28576 0.0
H3177 H 0.22489 0.8139 0.22647 0.0
H3178 H 0.23336 0.88889 0.29922 0.0
H3179 H 0.25398 0.90328 0.28063 0.0
H3180 H 0.2641 0.87916 0.30015 0.0
H3181 H 0.1827 0.85828 0.22523 0.0
H3182 H 0.19996 0.84131 0.2052 0.0
H3183 H 0.20443 0.87463 0.2092 0.0
C3184 C 0.48147 0.39731 0.39413 0.0
C3185 C 0.49637 0.38565 0.37893 0.0
C3186 C 0.49023 0.41694 0.40791 0.0
C3187 C 0.51427 0.42504 0.40594 0.0
C3188 C 0.52759 0.4165 0.38757 0.0
C3189 C 0.51814 0.39708 0.3738 0.0
C3190 C 0.47492 0.42552 0.42695 0.0
C3191 C 0.55305 0.425 0.3846 0.0
C3192 C 0.53744 0.47381 0.44824 0.0
C3193 C 0.54036 0.45887 0.46776 0.0
C3194 C 0.53016 0.46314 0.4273 0.0
C3195 C 0.52671 0.43684 0.42594 0.0
C3196 C 0.53247 0.42153 0.44513 0.0
C3197 C 0.53851 0.43283 0.46604 0.0
C3198 C 0.52548 0.48035 0.40723 0.0
C3199 C 0.53084 0.39323 0.44402 0.0
H3200 H 0.46443 0.38864 0.39778 0.0
H3201 H 0.52948 0.38826 0.36165 0.0
H3202 H 0.48179 0.44294 0.43527 0.0
H3203 H 0.45632 0.42858 0.42038 0.0
H3204 H 0.47415 0.41054 0.44005 0.0
H3205 H 0.56119 0.41589 0.36982 0.0
H3206 H 0.55366 0.44558 0.38203 0.0
H3207 H 0.5641 0.42065 0.40017 0.0
H3208 H 0.5389 0.49407 0.4497 0.0
H3209 H 0.54092 0.42139 0.48121 0.0
H3210 H 0.51241 0.47234 0.39451 0.0
H3211 H 0.54254 0.48385 0.39874 0.0
H3212 H 0.51903 0.4989 0.41284 0.0
H3213 H 0.54113 0.38431 0.45835 0.0
H3214 H 0.53764 0.38616 0.42776 0.0
H3215 H 0.51191 0.38718 0.445 0.0
C3216 C 0.44628 0.73746 0.20421 0.0
C3217 C 0.44938 0.75162 0.18436 0.0
C3218 C 0.42424 0.73721 0.21524 0.0
C3219 C 0.40498 0.75216 0.20677 0.0
C3220 C 0.40821 0.76671 0.18689 0.0
C3221 C 0.43009 0.76595 0.17581 0.0
C3222 C 0.42152 0.72079 0.23592 0.0
C3223 C 0.38864 0.78351 0.17749 0.0
C3224 C 0.34007 0.73809 0.22178 0.0
C3225 C 0.33656 0.75458 0.23996 0.0
C3226 C 0.36228 0.73666 0.21129 0.0
C3227 C 0.38148 0.75267 0.21856 0.0
C3228 C 0.37791 0.76963 0.23671 0.0
C3229 C 0.35572 0.77008 0.2474 0.0
C3230 C 0.36527 0.71776 0.19253 0.0
C3231 C 0.39745 0.78762 0.24466 0.0
H3232 H 0.461 0.72631 0.21097 0.0
H3233 H 0.43232 0.77722 0.16066 0.0
H3234 H 0.41798 0.73254 0.25095 0.0
H3235 H 0.40596 0.70794 0.23321 0.0
H3236 H 0.43768 0.70941 0.23981 0.0
H3237 H 0.39418 0.79433 0.16239 0.0
H3238 H 0.37258 0.77214 0.17258 0.0
H3239 H 0.38336 0.79692 0.19079 0.0
H3240 H 0.32554 0.72577 0.21606 0.0
H3241 H 0.35324 0.7829 0.26139 0.0
H3242 H 0.38071 0.70551 0.1968 0.0
H3243 H 0.36912 0.72757 0.17642 0.0
H3244 H 0.3491 0.70578 0.18961 0.0
H3245 H 0.41338 0.77705 0.25082 0.0
H3246 H 0.39175 0.80006 0.25856 0.0
H3247 H 0.40298 0.79947 0.23021 0.0
C3248 C 0.04096 0.76741 0.9423 0.0
C3249 C 0.03252 0.77036 0.91969 0.0
C3250 C 0.04403 0.74349 0.95171 0.0
C3251 C 0.03907 0.72218 0.93795 0.0
C3252 C 0.03455 0.72514 0.91426 0.0
C3253 C 0.03122 0.74935 0.90533 0.0
C3254 C 0.0493 0.7412 0.977 0.0
C3255 C 0.03039 0.70279 0.89885 0.0
C3256 C 0.04668 0.65988 0.96841 0.0
C3257 C 0.02334 0.6553 0.9752 0.0
C3258 C 0.052 0.68088 0.95506 0.0
C3259 C 0.03361 0.69794 0.94911 0.0
C3260 C 0.00985 0.69294 0.95554 0.0
C3261 C 0.00497 0.67143 0.96831 0.0
C3262 C 0.07733 0.68505 0.94794 0.0
C3263 C 0.98972 0.71078 0.94966 0.0
H3264 H 0.04267 0.78369 0.95332 0.0
H3265 H 0.02516 0.75147 0.8877 0.0
H3266 H 0.03265 0.73587 0.98552 0.0
H3267 H 0.06258 0.72633 0.98071 0.0
H3268 H 0.05614 0.7591 0.98454 0.0
H3269 H 0.03291 0.70778 0.88075 0.0
H3270 H 0.04262 0.68725 0.90372 0.0
H3271 H 0.0118 0.69581 0.90043 0.0
H3272 H 0.06076 0.64701 0.97358 0.0
H3273 H 0.98694 0.66759 0.97356 0.0
H3274 H 0.08628 0.6991 0.95935 0.0
H3275 H 0.07771 0.69244 0.93031 0.0
H3276 H 0.08783 0.66748 0.949 0.0
H3277 H 0.99368 0.72941 0.95742 0.0
H3278 H 0.97229 0.70394 0.95573 0.0
H3279 H 0.98801 0.71348 0.93097 0.0
C3280 C 0.10184 0.27614 0.69666 0.0
C3281 C 0.09888 0.26336 0.67588 0.0
C3282 C 0.12416 0.27644 0.70884 0.0
C3283 C 0.14381 0.26309 0.70038 0.0
C3284 C 0.14049 0.24938 0.67986 0.0
C3285 C 0.11831 0.24998 0.6678 0.0
C3286 C 0.12694 0.29171 0.73038 0.0
C3287 C 0.1605 0.23426 0.67042 0.0
C3288 C 0.20884 0.28039 0.71697 0.0
C3289 C 0.21451 0.26285 0.73413 0.0
C3290 C 0.18578 0.28117 0.70638 0.0
C3291 C 0.16797 0.26359 0.71263 0.0
C3292 C 0.17372 0.24566 0.72976 0.0
C3293 C 0.19672 0.24571 0.74044 0.0
C3294 C 0.18045 0.30091 0.68853 0.0
C3295 C 0.15569 0.2261 0.7366 0.0
H3296 H 0.08703 0.28675 0.70289 0.0
H3297 H 0.11616 0.23993 0.65181 0.0
H3298 H 0.13323 0.27965 0.74473 0.0
H3299 H 0.1407 0.30656 0.72823 0.0
H3300 H 0.10998 0.30071 0.73495 0.0
H3301 H 0.15465 0.2234 0.65505 0.0
H3302 H 0.1754 0.24693 0.66587 0.0
H3303 H 0.16763 0.221 0.68351 0.0
H3304 H 0.2223 0.29392 0.71213 0.0
H3305 H 0.20086 0.23204 0.75365 0.0
H3306 H 0.16454 0.31179 0.69309 0.0
H3307 H 0.17619 0.29182 0.67188 0.0
H3308 H 0.19569 0.31411 0.6865 0.0
H3309 H 0.13942 0.2353 0.74261 0.0
H3310 H 0.16284 0.21353 0.75027 0.0
H3311 H 0.15016 0.21448 0.72162 0.0
C3312 C 0.54122 0.67517 0.11954 0.0
C3313 C 0.51956 0.68796 0.12081 0.0
C3314 C 0.54224 0.65124 0.10966 0.0
C3315 C 0.5211 0.63987 0.10035 0.0
C3316 C 0.49895 0.65226 0.10249 0.0
C3317 C 0.49844 0.67619 0.11275 0.0
C3318 C 0.56619 0.63871 0.10811 0.0
C3319 C 0.476 0.64088 0.09278 0.0
C3320 C 0.52913 0.59346 0.05172 0.0
C3321 C 0.5271 0.57023 0.06276 0.0
C3322 C 0.52685 0.61619 0.06367 0.0
C3323 C 0.52253 0.61579 0.0873 0.0
C3324 C 0.52056 0.59239 0.09854 0.0
C3325 C 0.52283 0.56999 0.08619 0.0
C3326 C 0.52907 0.64069 0.05098 0.0
C3327 C 0.51616 0.591 0.12369 0.0
H3328 H 0.55763 0.68447 0.12545 0.0
H3329 H 0.48176 0.6863 0.11323 0.0
H3330 H 0.56526 0.61918 0.11459 0.0
H3331 H 0.57114 0.63774 0.09005 0.0
H3332 H 0.58057 0.64897 0.11789 0.0
H3333 H 0.46009 0.65172 0.09753 0.0
H3334 H 0.47653 0.64033 0.07394 0.0
H3335 H 0.47393 0.62126 0.09876 0.0
H3336 H 0.53226 0.59392 0.03365 0.0
H3337 H 0.52115 0.5522 0.09496 0.0
H3338 H 0.54436 0.65178 0.05829 0.0
H3339 H 0.51275 0.652 0.05292 0.0
H3340 H 0.53176 0.63786 0.03254 0.0
H3341 H 0.53107 0.60034 0.13347 0.0
H3342 H 0.51448 0.57136 0.12982 0.0
H3343 H 0.49958 0.60116 0.12747 0.0
C3344 C 0.04716 0.80942 0.82213 0.0
C3345 C 0.04254 0.83 0.83604 0.0
C3346 C 0.06907 0.80749 0.81149 0.0
C3347 C 0.08645 0.82678 0.81463 0.0
C3348 C 0.08096 0.84859 0.827 0.0
C3349 C 0.0591 0.84985 0.83772 0.0
C3350 C 0.07432 0.78387 0.79851 0.0
C3351 C 0.09884 0.86977 0.83037 0.0
C3352 C 0.15138 0.80769 0.81775 0.0
C3353 C 0.15892 0.81442 0.79613 0.0
C3354 C 0.12779 0.8115 0.82383 0.0
C3355 C 0.11139 0.82259 0.80797 0.0
C3356 C 0.11893 0.82969 0.78617 0.0
C3357 C 0.14265 0.82533 0.78042 0.0
C3358 C 0.12037 0.80341 0.84719 0.0
C3359 C 0.102 0.84187 0.76899 0.0
H3360 H 0.03438 0.79404 0.82081 0.0
H3361 H 0.05543 0.86593 0.84827 0.0
H3362 H 0.0826 0.78845 0.78217 0.0
H3363 H 0.08727 0.77238 0.80866 0.0
H3364 H 0.05796 0.77237 0.79493 0.0
H3365 H 0.09055 0.88686 0.83729 0.0
H3366 H 0.11337 0.86376 0.84247 0.0
H3367 H 0.10711 0.87463 0.81408 0.0
H3368 H 0.16385 0.79884 0.82975 0.0
H3369 H 0.14853 0.83059 0.76371 0.0
H3370 H 0.10534 0.78973 0.84561 0.0
H3371 H 0.11399 0.81983 0.85672 0.0
H3372 H 0.13523 0.79465 0.85732 0.0
H3373 H 0.08657 0.82919 0.76508 0.0
H3374 H 0.11075 0.84652 0.75287 0.0
H3375 H 0.0948 0.85935 0.77619 0.0
C3376 C 0.0181 0.34869 0.63632 0.0
C3377 C 0.02978 0.32689 0.62965 0.0
C3378 C 0.01944 0.37097 0.62345 0.0
C3379 C 0.03341 0.37174 0.60383 0.0
C3380 C 0.04605 0.35002 0.59764 0.0
C3381 C 0.04375 0.32779 0.61037 0.0
C3382 C 0.0052 0.39342 0.6304 0.0
C3383 C 0.06175 0.35015 0.57734 0.0
C3384 C 0.01907 0.4193 0.55665 0.0
C3385 C 0.03535 0.43879 0.56191 0.0
C3386 C 0.01805 0.3976 0.5703 0.0
C3387 C 0.03416 0.39492 0.58935 0.0
C3388 C 0.05096 0.41436 0.59446 0.0
C3389 C 0.05112 0.43617 0.5809 0.0
C3390 C 0.99945 0.37769 0.56453 0.0
C3391 C 0.06891 0.41207 0.61415 0.0
H3392 H 0.00709 0.34803 0.65106 0.0
H3393 H 0.05292 0.31104 0.6052 0.0
H3394 H 0.01715 0.40995 0.63309 0.0
H3395 H 0.99203 0.3983 0.61655 0.0
H3396 H 0.99548 0.38995 0.64622 0.0
H3397 H 0.07186 0.33243 0.57585 0.0
H3398 H 0.05066 0.3528 0.5615 0.0
H3399 H 0.07465 0.36607 0.57859 0.0
H3400 H 0.00668 0.42128 0.54215 0.0
H3401 H 0.06384 0.4511 0.58502 0.0
H3402 H 0.98815 0.37436 0.57936 0.0
H3403 H 0.00825 0.35971 0.56073 0.0
H3404 H 0.98772 0.38295 0.54966 0.0
H3405 H 0.05954 0.41008 0.63034 0.0
H3406 H 0.08116 0.42857 0.61555 0.0
H3407 H 0.07972 0.39493 0.61212 0.0
C3408 C 0.41829 0.29396 0.34893 0.0
C3409 C 0.4414 0.28707 0.35599 0.0
C3410 C 0.40368 0.27751 0.33602 0.0
C3411 C 0.41226 0.2533 0.3307 0.0
C3412 C 0.43554 0.24616 0.33796 0.0
C3413 C 0.45004 0.26337 0.3502 0.0
C3414 C 0.37901 0.28601 0.32819 0.0
C3415 C 0.44522 0.22048 0.33295 0.0
C3416 C 0.35704 0.21635 0.31735 0.0
C3417 C 0.35393 0.2224 0.29424 0.0
C3418 C 0.3783 0.22282 0.32927 0.0
C3419 C 0.39629 0.23586 0.3177 0.0
C3420 C 0.39492 0.23757 0.29371 0.0
C3421 C 0.37369 0.23041 0.28211 0.0
C3422 C 0.37991 0.21925 0.35474 0.0
C3423 C 0.41411 0.25067 0.28069 0.0
H3424 H 0.41171 0.31229 0.35341 0.0
H3425 H 0.46791 0.25796 0.35587 0.0
H3426 H 0.37707 0.28504 0.30936 0.0
H3427 H 0.36522 0.27345 0.33523 0.0
H3428 H 0.37525 0.3055 0.33355 0.0
H3429 H 0.46024 0.21552 0.34495 0.0
H3430 H 0.43115 0.20575 0.33385 0.0
H3431 H 0.45202 0.22033 0.31549 0.0
H3432 H 0.34203 0.20929 0.32664 0.0
H3433 H 0.37163 0.23436 0.26405 0.0
H3434 H 0.37477 0.23692 0.36316 0.0
H3435 H 0.39844 0.21476 0.36062 0.0
H3436 H 0.36769 0.20405 0.36024 0.0
H3437 H 0.4122 0.27128 0.28254 0.0
H3438 H 0.41273 0.24602 0.26227 0.0
H3439 H 0.43213 0.24557 0.2875 0.0
C3440 C 0.41307 0.54048 0.38461 0.0
C3441 C 0.41988 0.51945 0.37222 0.0
C3442 C 0.42316 0.54526 0.40645 0.0
C3443 C 0.43979 0.52815 0.41621 0.0
C3444 C 0.44582 0.50635 0.40398 0.0
C3445 C 0.43612 0.5025 0.38194 0.0
C3446 C 0.41655 0.56886 0.4188 0.0
C3447 C 0.46213 0.48676 0.41432 0.0
C3448 C 0.48862 0.5435 0.46021 0.0
C3449 C 0.48028 0.53082 0.47929 0.0
C3450 C 0.47465 0.54467 0.43992 0.0
C3451 C 0.45177 0.53308 0.43879 0.0
C3452 C 0.44235 0.52251 0.45866 0.0
C3453 C 0.45675 0.52148 0.47869 0.0
C3454 C 0.48541 0.55598 0.41906 0.0
C3455 C 0.41797 0.51018 0.45831 0.0
H3456 H 0.40057 0.55366 0.37686 0.0
H3457 H 0.44103 0.48608 0.37237 0.0
H3458 H 0.41041 0.56421 0.43603 0.0
H3459 H 0.43254 0.58118 0.42107 0.0
H3460 H 0.40231 0.57948 0.40945 0.0
H3461 H 0.45251 0.4766 0.4277 0.0
H3462 H 0.4678 0.47297 0.4015 0.0
H3463 H 0.47823 0.49547 0.42263 0.0
H3464 H 0.50676 0.55079 0.46051 0.0
H3465 H 0.45006 0.51187 0.49345 0.0
H3466 H 0.47226 0.56797 0.40972 0.0
H3467 H 0.49041 0.54068 0.4074 0.0
H3468 H 0.50167 0.56736 0.4234 0.0
H3469 H 0.4048 0.52129 0.44807 0.0
H3470 H 0.41133 0.50774 0.47575 0.0
H3471 H 0.41901 0.49138 0.45035 0.0
C3472 C 0.26897 0.63335 0.06921 0.0
C3473 C 0.2817 0.65174 0.05755 0.0
C3474 C 0.26293 0.63715 0.09188 0.0
C3475 C 0.27037 0.65956 0.10306 0.0
C3476 C 0.28518 0.67701 0.09192 0.0
C3477 C 0.29031 0.67308 0.06909 0.0
C3478 C 0.24684 0.61833 0.10305 0.0
C3479 C 0.29411 0.70076 0.10352 0.0
C3480 C 0.23338 0.69272 0.14594 0.0
C3481 C 0.24616 0.68743 0.16621 0.0
C3482 C 0.24005 0.68208 0.12538 0.0
C3483 C 0.26044 0.66652 0.12517 0.0
C3484 C 0.27268 0.6602 0.14584 0.0
C3485 C 0.26522 0.67061 0.16623 0.0
C3486 C 0.22617 0.68875 0.10373 0.0
C3487 C 0.2947 0.64408 0.14627 0.0
H3488 H 0.262 0.61703 0.06005 0.0
H3489 H 0.30009 0.68726 0.05992 0.0
H3490 H 0.25314 0.61455 0.12082 0.0
H3491 H 0.22857 0.62613 0.10367 0.0
H3492 H 0.24574 0.6003 0.09357 0.0
H3493 H 0.30801 0.71048 0.0937 0.0
H3494 H 0.27898 0.71379 0.10543 0.0
H3495 H 0.30164 0.69656 0.12081 0.0
H3496 H 0.21872 0.70585 0.1461 0.0
H3497 H 0.27525 0.6669 0.18201 0.0
H3498 H 0.22209 0.67164 0.09351 0.0
H3499 H 0.23711 0.70143 0.09326 0.0
H3500 H 0.20915 0.69831 0.10716 0.0
H3501 H 0.29185 0.62727 0.13536 0.0
H3502 H 0.29996 0.6379 0.16379 0.0
H3503 H 0.30977 0.65498 0.13936 0.0
C3504 C 0.13872 0.51951 0.89142 0.0
C3505 C 0.12807 0.5169 0.8696 0.0
C3506 C 0.12461 0.52065 0.91067 0.0
C3507 C 0.0994 0.51856 0.90793 0.0
C3508 C 0.08866 0.51578 0.88593 0.0
C3509 C 0.1031 0.51524 0.86704 0.0
C3510 C 0.1366 0.52421 0.9339 0.0
C3511 C 0.06189 0.51321 0.88232 0.0
C3512 C 0.06378 0.49887 0.95879 0.0
C3513 C 0.05479 0.52193 0.96585 0.0
C3514 C 0.07821 0.49745 0.93984 0.0
C3515 C 0.08409 0.51967 0.92796 0.0
C3516 C 0.07479 0.54293 0.93483 0.0
C3517 C 0.06006 0.54374 0.95352 0.0
C3518 C 0.08745 0.47224 0.93271 0.0
C3519 C 0.08092 0.56708 0.9228 0.0
H3520 H 0.158 0.52084 0.89343 0.0
H3521 H 0.09475 0.51301 0.85022 0.0
H3522 H 0.12974 0.54137 0.94199 0.0
H3523 H 0.13226 0.50815 0.94507 0.0
H3524 H 0.15633 0.5259 0.93312 0.0
H3525 H 0.05642 0.51055 0.86412 0.0
H3526 H 0.05524 0.49698 0.89216 0.0
H3527 H 0.05301 0.5302 0.88868 0.0
H3528 H 0.05989 0.48199 0.96833 0.0
H3529 H 0.05349 0.56171 0.95905 0.0
H3530 H 0.10726 0.47232 0.93398 0.0
H3531 H 0.08208 0.46849 0.91466 0.0
H3532 H 0.08069 0.45667 0.94335 0.0
H3533 H 0.10054 0.57022 0.92376 0.0
H3534 H 0.07218 0.58362 0.93027 0.0
H3535 H 0.07538 0.56584 0.90451 0.0
C3536 C 0.28633 0.3793 0.58123 0.0
C3537 C 0.27089 0.3585 0.57884 0.0
C3538 C 0.29881 0.38405 0.60194 0.0
C3539 C 0.29543 0.3677 0.62051 0.0
C3540 C 0.27814 0.34806 0.61863 0.0
C3541 C 0.26626 0.34359 0.59771 0.0
C3542 C 0.31682 0.40529 0.60311 0.0
C3543 C 0.27343 0.3304 0.63815 0.0
C3544 C 0.33721 0.34041 0.6632 0.0
C3545 C 0.3253 0.34716 0.68272 0.0
C3546 C 0.33068 0.35109 0.64216 0.0
C3547 C 0.3116 0.36833 0.641 0.0
C3548 C 0.30338 0.37897 0.66122 0.0
C3549 C 0.31036 0.36812 0.68211 0.0
C3550 C 0.34106 0.34055 0.62095 0.0
C3551 C 0.28412 0.39853 0.66062 0.0
H3552 H 0.28998 0.3908 0.56651 0.0
H3553 H 0.25411 0.3277 0.5958 0.0
H3554 H 0.32035 0.41207 0.62076 0.0
H3555 H 0.3339 0.39871 0.59637 0.0
H3556 H 0.31064 0.42127 0.59233 0.0
H3557 H 0.25799 0.31764 0.63436 0.0
H3558 H 0.28942 0.31873 0.64178 0.0
H3559 H 0.2698 0.34111 0.65378 0.0
H3560 H 0.34931 0.32463 0.6639 0.0
H3561 H 0.30151 0.37372 0.69735 0.0
H3562 H 0.34322 0.35545 0.60798 0.0
H3563 H 0.32872 0.32602 0.61357 0.0
H3564 H 0.35867 0.33172 0.62469 0.0
H3565 H 0.28607 0.41149 0.64601 0.0
H3566 H 0.28448 0.40957 0.67665 0.0
H3567 H 0.2664 0.3891 0.65865 0.0
C3568 C 0.46481 0.48086 0.2503 0.0
C3569 C 0.44245 0.49105 0.25491 0.0
C3570 C 0.47202 0.47777 0.22791 0.0
C3571 C 0.45658 0.48504 0.20953 0.0
C3572 C 0.434 0.49535 0.21394 0.0
C3573 C 0.4272 0.49824 0.23658 0.0
C3574 C 0.49629 0.46681 0.22396 0.0
C3575 C 0.41709 0.5034 0.19476 0.0
C3576 C 0.4869 0.49899 0.15426 0.0
C3577 C 0.48332 0.47647 0.14218 0.0
C3578 C 0.47772 0.50226 0.17589 0.0
C3579 C 0.46456 0.48254 0.18576 0.0
C3580 C 0.46033 0.45997 0.17345 0.0
C3581 C 0.46972 0.45722 0.15175 0.0
C3582 C 0.48254 0.52667 0.18836 0.0
C3583 C 0.44641 0.43851 0.18344 0.0
H3584 H 0.4768 0.47519 0.26423 0.0
H3585 H 0.40989 0.50607 0.23987 0.0
H3586 H 0.49436 0.44984 0.2131 0.0
H3587 H 0.50737 0.48057 0.21476 0.0
H3588 H 0.50598 0.46162 0.24009 0.0
H3589 H 0.40002 0.51066 0.201 0.0
H3590 H 0.42561 0.51827 0.18453 0.0
H3591 H 0.41307 0.48734 0.1832 0.0
H3592 H 0.49689 0.5142 0.14673 0.0
H3593 H 0.46688 0.4398 0.1425 0.0
H3594 H 0.49361 0.52311 0.20407 0.0
H3595 H 0.46552 0.53494 0.19363 0.0
H3596 H 0.492 0.54062 0.17782 0.0
H3597 H 0.45618 0.43124 0.19881 0.0
H3598 H 0.44347 0.42283 0.17119 0.0
H3599 H 0.4288 0.44513 0.18888 0.0
C3600 C 0.28089 0.65124 0.91468 0.0
C3601 C 0.2827 0.66131 0.93669 0.0
C3602 C 0.2797 0.66706 0.8955 0.0
C3603 C 0.28071 0.69345 0.89851 0.0
C3604 C 0.28211 0.70364 0.92071 0.0
C3605 C 0.28294 0.68746 0.93949 0.0
C3606 C 0.27776 0.65558 0.87204 0.0
C3607 C 0.28335 0.73165 0.92462 0.0
C3608 C 0.30385 0.73274 0.85005 0.0
C3609 C 0.28264 0.74216 0.84009 0.0
C3610 C 0.30347 0.71714 0.86926 0.0
C3611 C 0.28131 0.71049 0.8785 0.0
C3612 C 0.25986 0.72035 0.86881 0.0
C3613 C 0.2608 0.73627 0.84982 0.0
C3614 C 0.32676 0.70732 0.87936 0.0
C3615 C 0.23587 0.71339 0.87797 0.0
H3616 H 0.28058 0.63105 0.91244 0.0
H3617 H 0.28434 0.69541 0.95646 0.0
H3618 H 0.26231 0.66358 0.86224 0.0
H3619 H 0.29401 0.6602 0.86262 0.0
H3620 H 0.27561 0.63484 0.87261 0.0
H3621 H 0.28371 0.73656 0.94299 0.0
H3622 H 0.29965 0.73952 0.91705 0.0
H3623 H 0.26776 0.74087 0.91606 0.0
H3624 H 0.32075 0.73713 0.8425 0.0
H3625 H 0.2443 0.7431 0.84194 0.0
H3626 H 0.32693 0.68655 0.87819 0.0
H3627 H 0.32858 0.71227 0.89768 0.0
H3628 H 0.3425 0.71493 0.87061 0.0
H3629 H 0.2327 0.6929 0.87599 0.0
H3630 H 0.22095 0.72346 0.86908 0.0
H3631 H 0.23559 0.71764 0.89642 0.0
C3632 C 0.10658 0.52284 0.73898 0.0
C3633 C 0.12955 0.51928 0.7487 0.0
C3634 C 0.1027 0.5244 0.7154 0.0
C3635 C 0.12229 0.52231 0.70106 0.0
C3636 C 0.14544 0.51775 0.71062 0.0
C3637 C 0.14882 0.51624 0.73442 0.0
C3638 C 0.07764 0.52892 0.7059 0.0
C3639 C 0.16668 0.51527 0.6958 0.0
C3640 C 0.10015 0.50786 0.64122 0.0
C3641 C 0.09795 0.53205 0.63205 0.0
C3642 C 0.11024 0.50411 0.66309 0.0
C3643 C 0.11803 0.52513 0.67612 0.0
C3644 C 0.11762 0.54941 0.66619 0.0
C3645 C 0.1076 0.55259 0.64411 0.0
C3646 C 0.11061 0.4779 0.67288 0.0
C3647 C 0.12584 0.57226 0.67956 0.0
H3648 H 0.09155 0.52493 0.74988 0.0
H3649 H 0.16663 0.51363 0.74184 0.0
H3650 H 0.07709 0.54687 0.69631 0.0
H3651 H 0.07218 0.51375 0.69383 0.0
H3652 H 0.06435 0.52975 0.71941 0.0
H3653 H 0.183 0.50944 0.70567 0.0
H3654 H 0.16283 0.5014 0.68206 0.0
H3655 H 0.17035 0.53354 0.6875 0.0
H3656 H 0.09297 0.49195 0.63162 0.0
H3657 H 0.10594 0.57124 0.63688 0.0
H3658 H 0.09621 0.4759 0.68522 0.0
H3659 H 0.12783 0.4743 0.68221 0.0
H3660 H 0.10776 0.46338 0.65949 0.0
H3661 H 0.11261 0.57654 0.69254 0.0
H3662 H 0.12777 0.589 0.66848 0.0
H3663 H 0.14318 0.56872 0.68869 0.0
C3664 C 0.22452 0.28763 0.47852 0.0
C3665 C 0.23014 0.31147 0.46999 0.0
C3666 C 0.22244 0.2668 0.46398 0.0
C3667 C 0.22688 0.26996 0.44064 0.0
C3668 C 0.2319 0.29423 0.43193 0.0
C3669 C 0.23316 0.3147 0.44671 0.0
C3670 C 0.21623 0.24157 0.47394 0.0
C3671 C 0.23685 0.29862 0.4071 0.0
C3672 C 0.25581 0.2287 0.39991 0.0
C3673 C 0.23826 0.2296 0.38235 0.0
C3674 C 0.25107 0.23811 0.42145 0.0
C3675 C 0.2283 0.24827 0.42511 0.0
C3676 C 0.20934 0.24402 0.40898 0.0
C3677 C 0.21464 0.23508 0.3874 0.0
C3678 C 0.2715 0.24127 0.43871 0.0
C3679 C 0.18438 0.25276 0.41315 0.0
H3680 H 0.22191 0.2852 0.49657 0.0
H3681 H 0.23741 0.33315 0.44012 0.0
H3682 H 0.20812 0.22858 0.46102 0.0
H3683 H 0.23271 0.23291 0.48133 0.0
H3684 H 0.20365 0.24372 0.48794 0.0
H3685 H 0.2412 0.31856 0.40342 0.0
H3686 H 0.25206 0.28697 0.40202 0.0
H3687 H 0.22101 0.29312 0.39628 0.0
H3688 H 0.27401 0.224 0.39604 0.0
H3689 H 0.20094 0.23507 0.37386 0.0
H3690 H 0.26553 0.23722 0.4561 0.0
H3691 H 0.27804 0.261 0.43841 0.0
H3692 H 0.28664 0.22877 0.43504 0.0
H3693 H 0.18016 0.2505 0.43134 0.0
H3694 H 0.17095 0.24222 0.40244 0.0
H3695 H 0.18292 0.27296 0.40876 0.0
C3696 C 0.34074 0.33528 0.50506 0.0
C3697 C 0.32184 0.34981 0.49607 0.0
C3698 C 0.36367 0.3457 0.50858 0.0
C3699 C 0.36778 0.37107 0.50267 0.0
C3700 C 0.3495 0.38489 0.49125 0.0
C3701 C 0.3267 0.37408 0.4881 0.0
C3702 C 0.38278 0.33029 0.52064 0.0
C3703 C 0.35333 0.41185 0.48423 0.0
C3704 C 0.41045 0.40997 0.54009 0.0
C3705 C 0.43061 0.41133 0.52681 0.0
C3706 C 0.39009 0.39636 0.53262 0.0
C3707 C 0.38986 0.38416 0.51119 0.0
C3708 C 0.41031 0.38519 0.49785 0.0
C3709 C 0.43052 0.39869 0.50589 0.0
C3710 C 0.36867 0.39545 0.54747 0.0
C3711 C 0.41058 0.37272 0.47482 0.0
H3712 H 0.33726 0.31645 0.51117 0.0
H3713 H 0.31229 0.38532 0.48082 0.0
H3714 H 0.40019 0.33279 0.51253 0.0
H3715 H 0.3851 0.33676 0.53853 0.0
H3716 H 0.37809 0.30999 0.52075 0.0
H3717 H 0.33879 0.41856 0.47243 0.0
H3718 H 0.35391 0.42396 0.49958 0.0
H3719 H 0.37063 0.41418 0.47588 0.0
H3720 H 0.41057 0.41971 0.55628 0.0
H3721 H 0.446 0.40012 0.49542 0.0
H3722 H 0.36352 0.37568 0.55085 0.0
H3723 H 0.3532 0.40449 0.53854 0.0
H3724 H 0.37211 0.40511 0.56403 0.0
H3725 H 0.42832 0.37425 0.46708 0.0
H3726 H 0.39707 0.38151 0.46312 0.0
H3727 H 0.40568 0.35258 0.47626 0.0
C3728 C 0.84816 0.05927 0.49578 0.0
C3729 C 0.84731 0.08521 0.49952 0.0
C3730 C 0.86989 0.04633 0.49803 0.0
C3731 C 0.89105 0.0596 0.50471 0.0
C3732 C 0.89008 0.08567 0.50914 0.0
C3733 C 0.86828 0.0982 0.50621 0.0
C3734 C 0.87031 0.01863 0.49276 0.0
C3735 C 0.9121 0.10039 0.51686 0.0
C3736 C 0.9444 0.02531 0.53095 0.0
C3737 C 0.96046 0.02602 0.51321 0.0
C3738 C 0.92151 0.03559 0.52823 0.0
C3739 C 0.91431 0.04641 0.50711 0.0
C3740 C 0.93003 0.04616 0.4888 0.0
C3741 C 0.95305 0.03621 0.49214 0.0
C3742 C 0.90548 0.0359 0.5483 0.0
C3743 C 0.9228 0.05707 0.46588 0.0
H3744 H 0.832 0.04924 0.49039 0.0
H3745 H 0.86764 0.11825 0.50923 0.0
H3746 H 0.88242 0.01519 0.47861 0.0
H3747 H 0.87746 0.00806 0.50774 0.0
H3748 H 0.8523 0.01104 0.48788 0.0
H3749 H 0.90811 0.12033 0.52051 0.0
H3750 H 0.9203 0.09179 0.53244 0.0
H3751 H 0.92558 0.09982 0.50354 0.0
H3752 H 0.95003 0.01758 0.54733 0.0
H3753 H 0.96532 0.03666 0.47833 0.0
H3754 H 0.88778 0.02756 0.54353 0.0
H3755 H 0.90245 0.05558 0.55352 0.0
H3756 H 0.91322 0.02548 0.56316 0.0
H3757 H 0.90526 0.04921 0.45986 0.0
H3758 H 0.93615 0.05329 0.45285 0.0
H3759 H 0.92074 0.07768 0.46739 0.0
C3760 C 0.6799 0.12403 0.3161 0.0
C3761 C 0.68264 0.10059 0.30581 0.0
C3762 C 0.69389 0.14478 0.3098 0.0
C3763 C 0.71023 0.1422 0.29214 0.0
C3764 C 0.71311 0.11851 0.28182 0.0
C3765 C 0.69958 0.09792 0.28905 0.0
C3766 C 0.69105 0.1695 0.32187 0.0
C3767 C 0.72989 0.11507 0.26258 0.0
C3768 C 0.728 0.20152 0.26046 0.0
C3769 C 0.75124 0.20558 0.2693 0.0
C3770 C 0.71458 0.1806 0.26738 0.0
C3771 C 0.72429 0.16423 0.28432 0.0
C3772 C 0.74763 0.16868 0.29357 0.0
C3773 C 0.76098 0.18902 0.28561 0.0
C3774 C 0.69001 0.17606 0.25665 0.0
C3775 C 0.75828 0.15244 0.31234 0.0
H3776 H 0.66679 0.12612 0.32904 0.0
H3777 H 0.70145 0.07992 0.28075 0.0
H3778 H 0.7087 0.1765 0.32851 0.0
H3779 H 0.68389 0.18374 0.30973 0.0
H3780 H 0.67884 0.16796 0.33626 0.0
H3781 H 0.72975 0.09549 0.2561 0.0
H3782 H 0.72479 0.12783 0.24831 0.0
H3783 H 0.74841 0.12012 0.26832 0.0
H3784 H 0.72041 0.21465 0.24815 0.0
H3785 H 0.77872 0.19271 0.29298 0.0
H3786 H 0.67637 0.17734 0.26975 0.0
H3787 H 0.68882 0.15684 0.24941 0.0
H3788 H 0.68557 0.18977 0.24291 0.0
H3789 H 0.74649 0.15238 0.32708 0.0
H3790 H 0.77636 0.15904 0.3182 0.0
H3791 H 0.75957 0.13277 0.30641 0.0
C3792 C 0.68871 0.9022 0.99407 0.0
C3793 C 0.7024 0.9098 0.01335 0.0
C3794 C 0.66442 0.90796 0.99188 0.0
C3795 C 0.65366 0.92087 0.00975 0.0
C3796 C 0.66671 0.92538 0.03049 0.0
C3797 C 0.69117 0.92017 0.03191 0.0
C3798 C 0.65127 0.90308 0.9694 0.0
C3799 C 0.6555 0.93816 0.05028 0.0
C3800 C 0.6103 0.97331 0.99786 0.0
C3801 C 0.5887 0.9619 0.00315 0.0
C3802 C 0.63139 0.95948 -0.00162 0.0
C3803 C 0.63082 0.934 0.00535 0.0
C3804 C 0.6088 0.92217 0.00988 0.0
C3805 C 0.58782 0.93629 0.00841 0.0
C3806 C 0.65447 0.97255 0.9927 0.0
C3807 C 0.60757 0.8953 0.01791 0.0
H3808 H 0.69741 0.89418 0.97963 0.0
H3809 H 0.70177 0.92577 0.0469 0.0
H3810 H 0.63243 0.89748 0.97185 0.0
H3811 H 0.65117 0.92059 0.95915 0.0
H3812 H 0.66004 0.88824 0.95951 0.0
H3813 H 0.66643 0.93588 0.06632 0.0
H3814 H 0.65385 0.95852 0.04665 0.0
H3815 H 0.63729 0.93056 0.05285 0.0
H3816 H 0.61075 0.99321 0.99399 0.0
H3817 H 0.57099 0.92778 0.01296 0.0
H3818 H 0.66453 0.96105 0.98067 0.0
H3819 H 0.66586 0.97495 0.00841 0.0
H3820 H 0.65137 0.99134 0.98501 0.0
H3821 H 0.61889 0.88307 0.00764 0.0
H3822 H 0.58899 0.88779 0.01713 0.0
H3823 H 0.61452 0.89425 0.03582 0.0
C3824 C 0.39361 0.40745 0.32999 0.0
C3825 C 0.38365 0.43079 0.32419 0.0
C3826 C 0.38095 0.385 0.32557 0.0
C3827 C 0.35769 0.38589 0.31531 0.0
C3828 C 0.34704 0.4094 0.31059 0.0
C3829 C 0.36013 0.43154 0.31506 0.0
C3830 C 0.39279 0.36031 0.3312 0.0
C3831 C 0.32221 0.41116 0.29978 0.0
C3832 C 0.3361 0.33134 0.27823 0.0
C3833 C 0.32056 0.31865 0.29254 0.0
C3834 C 0.34846 0.35305 0.28559 0.0
C3835 C 0.34521 0.36237 0.30779 0.0
C3836 C 0.32969 0.34959 0.32239 0.0
C3837 C 0.31755 0.32786 0.3146 0.0
C3838 C 0.36504 0.36603 0.26956 0.0
C3839 C 0.3258 0.35894 0.34618 0.0
H3840 H 0.41168 0.40661 0.33721 0.0
H3841 H 0.35215 0.44944 0.31067 0.0
H3842 H 0.38236 0.35014 0.34401 0.0
H3843 H 0.39308 0.3483 0.31581 0.0
H3844 H 0.4114 0.36279 0.33812 0.0
H3845 H 0.31572 0.43079 0.29897 0.0
H3846 H 0.32217 0.40356 0.28222 0.0
H3847 H 0.30944 0.39967 0.30943 0.0
H3848 H 0.33869 0.32428 0.26124 0.0
H3849 H 0.30572 0.31807 0.32585 0.0
H3850 H 0.38334 0.36714 0.27742 0.0
H3851 H 0.35902 0.38554 0.26636 0.0
H3852 H 0.36584 0.35619 0.25297 0.0
H3853 H 0.34305 0.35966 0.35607 0.0
H3854 H 0.31312 0.34684 0.35541 0.0
H3855 H 0.31874 0.37832 0.34549 0.0
C3856 C 0.18906 0.6154 0.97973 0.0
C3857 C 0.21058 0.61179 0.99213 0.0
C3858 C 0.16776 0.60413 0.98676 0.0
C3859 C 0.16793 0.59001 0.00724 0.0
C3860 C 0.18973 0.5862 0.01966 0.0
C3861 C 0.21086 0.59674 0.01171 0.0
C3862 C 0.14504 0.60764 0.97251 0.0
C3863 C 0.19058 0.57203 0.04194 0.0
C3864 C 0.10892 0.58599 0.03697 0.0
C3865 C 0.10155 0.56139 0.03193 0.0
C3866 C 0.13088 0.59529 0.02964 0.0
C3867 C 0.14522 0.57995 0.0161 0.0
C3868 C 0.13779 0.55507 0.01097 0.0
C3869 C 0.11627 0.54593 0.01935 0.0
C3870 C 0.13853 0.62168 0.03603 0.0
C3871 C 0.15215 0.53837 0.99602 0.0
H3872 H 0.18889 0.62715 0.96466 0.0
H3873 H 0.22745 0.59442 0.02158 0.0
H3874 H 0.13644 0.58917 0.96877 0.0
H3875 H 0.13221 0.61886 0.98207 0.0
H3876 H 0.14829 0.61732 0.95616 0.0
H3877 H 0.20902 0.57069 0.04949 0.0
H3878 H 0.17926 0.58157 0.0543 0.0
H3879 H 0.18326 0.55279 0.03945 0.0
H3880 H 0.09737 0.59801 0.04644 0.0
H3881 H 0.11027 0.52708 0.01492 0.0
H3882 H 0.13905 0.63351 0.02052 0.0
H3883 H 0.15683 0.62164 0.04397 0.0
H3884 H 0.12626 0.63044 0.04804 0.0
H3885 H 0.15635 0.54829 0.98004 0.0
H3886 H 0.14259 0.52057 0.99159 0.0
H3887 H 0.16939 0.53372 0.00486 0.0
C3888 C 0.72033 0.95918 0.30275 0.0
C3889 C 0.69534 0.96007 0.30048 0.0
C3890 C 0.73254 0.93655 0.29985 0.0
C3891 C 0.71947 0.91445 0.29403 0.0
C3892 C 0.69423 0.91531 0.29162 0.0
C3893 C 0.68246 0.93805 0.29513 0.0
C3894 C 0.75941 0.93629 0.30304 0.0
C3895 C 0.67966 0.89228 0.28499 0.0
C3896 C 0.75036 0.86165 0.26368 0.0
C3897 C 0.753 0.84362 0.28097 0.0
C3898 C 0.7398 0.8849 0.26779 0.0
C3899 C 0.73214 0.89051 0.28986 0.0
C3900 C 0.73563 0.87279 0.30763 0.0
C3901 C 0.74578 0.84942 0.30291 0.0
C3902 C 0.73603 0.90308 0.24828 0.0
C3903 C 0.72819 0.87829 0.3315 0.0
H3904 H 0.73035 0.97613 0.30706 0.0
H3905 H 0.66315 0.93867 0.29326 0.0
H3906 H 0.7648 0.92203 0.31597 0.0
H3907 H 0.76758 0.93092 0.28689 0.0
H3908 H 0.76684 0.95482 0.30851 0.0
H3909 H 0.66021 0.89613 0.28363 0.0
H3910 H 0.68536 0.88507 0.26837 0.0
H3911 H 0.6828 0.87717 0.29772 0.0
H3912 H 0.75574 0.85724 0.24663 0.0
H3913 H 0.74787 0.83561 0.31638 0.0
H3914 H 0.74437 0.92151 0.25262 0.0
H3915 H 0.71662 0.90625 0.24517 0.0
H3916 H 0.74361 0.89618 0.23229 0.0
H3917 H 0.73596 0.89648 0.33742 0.0
H3918 H 0.73386 0.8634 0.34374 0.0
H3919 H 0.70848 0.87996 0.33169 0.0
C3920 C 0.84216 0.06142 0.79611 0.0
C3921 C 0.86668 0.06215 0.79221 0.0
C3922 C 0.82861 0.08347 0.79548 0.0
C3923 C 0.83979 0.10661 0.79027 0.0
C3924 C 0.86434 0.10722 0.78537 0.0
C3925 C 0.87756 0.08502 0.78669 0.0
C3926 C 0.80257 0.08215 0.80115 0.0
C3927 C 0.87674 0.1314 0.77906 0.0
C3928 C 0.80225 0.16077 0.76821 0.0
C3929 C 0.8027 0.17701 0.78705 0.0
C3930 C 0.81387 0.13764 0.76918 0.0
C3931 C 0.82584 0.13021 0.78965 0.0
C3932 C 0.82552 0.14597 0.80906 0.0
C3933 C 0.81416 0.16937 0.80746 0.0
C3934 C 0.8142 0.12167 0.74797 0.0
C3935 C 0.83769 0.13838 0.83132 0.0
H3936 H 0.83379 0.0438 0.80073 0.0
H3937 H 0.89654 0.0856 0.7837 0.0
H3938 H 0.79953 0.09385 0.81635 0.0
H3939 H 0.79132 0.08986 0.78692 0.0
H3940 H 0.79651 0.06266 0.80462 0.0
H3941 H 0.89563 0.12845 0.77471 0.0
H3942 H 0.86718 0.14024 0.76429 0.0
H3943 H 0.87639 0.14483 0.79343 0.0
H3944 H 0.79357 0.16653 0.75228 0.0
H3945 H 0.81451 0.18179 0.82206 0.0
H3946 H 0.80748 0.10248 0.75152 0.0
H3947 H 0.83284 0.11987 0.74249 0.0
H3948 H 0.80321 0.12971 0.73366 0.0
H3949 H 0.83166 0.11932 0.83631 0.0
H3950 H 0.83406 0.15166 0.84529 0.0
H3951 H 0.85728 0.1376 0.82934 0.0
loop_
_geom_bond_atom_site_label_1
_geom_bond_atom_site_label_2
_geom_bond_distance
_geom_bond_site_symmetry_2
_ccdc_geom_bond_type
Co0 O1 2.216 . S
Co0 O2 2.091 . S
Co0 O4 2.004 . S
Co0 O10 2.021 . S
Co0 O12 2.137 . S
Co0 O13 2.244 . S
O1 Co0 2.216 . S
O1 C8 1.247 . S
O2 Co0 2.091 . S
O2 C8 1.261 . S
C3 O12 1.247 . S
C3 O13 1.272 . S
O4 Co0 2.004 . S
O4 C9 1.259 . S
Co5 O6 2.061 . S
Co5 O11 2.052 . S
Co5 O13 2.135 . S
O6 Co5 2.061 . S
O6 C9 1.235 . S
C7 O10 1.238 . S
C7 O11 1.241 . S
C8 O1 1.247 . S
C8 O2 1.261 . S
C9 O4 1.259 . S
C9 O6 1.235 . S
O10 Co0 2.021 . S
O10 C7 1.238 . S
O11 Co5 2.052 . S
O11 C7 1.241 . S
O12 Co0 2.137 . S
O12 C3 1.247 . S
O13 Co0 2.244 . S
O13 C3 1.272 . S
O13 Co5 2.135 . S
Co14 O15 2.216 . S
Co14 O16 2.091 . S
Co14 O18 2.004 . S
Co14 O24 2.021 . S
Co14 O26 2.137 . S
Co14 O27 2.244 . S
O15 Co14 2.216 . S
O15 C22 1.247 . S
O16 Co14 2.091 . S
O16 C22 1.261 . S
C17 O26 1.247 . S
C17 O27 1.272 . S
O18 Co14 2.004 . S
O18 C23 1.259 1_455 S
Co19 O20 2.061 . S
Co19 O25 2.052 1_655 S
Co19 O27 2.135 1_655 S
O20 Co19 2.061 . S
O20 C23 1.235 . S
C21 O24 1.238 . S
C21 O25 1.241 . S
C22 O15 1.247 . S
C22 O16 1.261 . S
C23 O18 1.259 1_655 S
C23 O20 1.235 . S
O24 Co14 2.021 . S
O24 C21 1.238 . S
O25 Co19 2.052 1_455 S
O25 C21 1.241 . S
O26 Co14 2.137 . S
O26 C17 1.247 . S
O27 Co14 2.244 . S
O27 C17 1.272 . S
O27 Co19 2.135 1_455 S
Co28 O29 2.216 . S
Co28 O30 2.091 . S
Co28 O32 2.004 . S
Co28 O38 2.021 . S
Co28 O40 2.137 . S
Co28 O41 2.244 . S
O29 Co28 2.216 . S
O29 C36 1.247 . S
O30 Co28 2.091 . S
O30 C36 1.261 . S
C31 O40 1.247 . S
C31 O41 1.272 . S
O32 Co28 2.004 . S
O32 C37 1.259 . S
Co33 O34 2.061 . S
Co33 O39 2.052 . S
Co33 O41 2.135 . S
O34 Co33 2.061 . S
O34 C37 1.235 . S
C35 O38 1.238 . S
C35 O39 1.241 . S
C36 O29 1.247 . S
C36 O30 1.261 . S
C37 O32 1.259 . S
C37 O34 1.235 . S
O38 Co28 2.021 . S
O38 C35 1.238 . S
O39 Co33 2.052 . S
O39 C35 1.241 . S
O40 Co28 2.137 . S
O40 C31 1.247 . S
O41 Co28 2.244 . S
O41 C31 1.272 . S
O41 Co33 2.135 . S
Co42 O43 2.216 . S
Co42 O44 2.091 . S
Co42 O46 2.004 . S
Co42 O52 2.021 . S
Co42 O54 2.137 . S
Co42 O55 2.244 . S
O43 Co42 2.216 . S
O43 C50 1.247 . S
O44 Co42 2.091 . S
O44 C50 1.261 . S
C45 O54 1.247 . S
C45 O55 1.272 . S
O46 Co42 2.004 . S
O46 C51 1.259 . S
Co47 O48 2.061 . S
Co47 O53 2.052 . S
Co47 O55 2.135 . S
O48 Co47 2.061 . S
O48 C51 1.235 . S
C49 O52 1.238 . S
C49 O53 1.241 . S
C50 O43 1.247 . S
C50 O44 1.261 . S
C51 O46 1.259 . S
C51 O48 1.235 . S
O52 Co42 2.021 . S
O52 C49 1.238 . S
O53 Co47 2.052 . S
O53 C49 1.241 . S
O54 Co42 2.137 . S
O54 C45 1.247 . S
O55 Co42 2.244 . S
O55 C45 1.272 . S
O55 Co47 2.135 . S
Co56 O57 2.216 1_545 S
Co56 O58 2.091 1_545 S
Co56 O60 2.004 . S
Co56 O66 2.021 . S
Co56 O68 2.137 . S
Co56 O69 2.244 . S
O57 Co56 2.216 1_565 S
O57 C64 1.247 . S
O58 Co56 2.091 1_565 S
O58 C64 1.261 . S
C59 O68 1.247 . S
C59 O69 1.272 . S
O60 Co56 2.004 . S
O60 C65 1.259 . S
Co61 O62 2.061 . S
Co61 O67 2.052 . S
Co61 O69 2.135 . S
O62 Co61 2.061 . S
O62 C65 1.235 . S
C63 O66 1.238 . S
C63 O67 1.241 . S
C64 O57 1.247 . S
C64 O58 1.261 . S
C65 O60 1.259 . S
C65 O62 1.235 . S
O66 Co56 2.021 . S
O66 C63 1.238 . S
O67 Co61 2.052 . S
O67 C63 1.241 . S
O68 Co56 2.137 . S
O68 C59 1.247 . S
O69 Co56 2.244 . S
O69 C59 1.272 . S
O69 Co61 2.135 . S
Co70 O71 2.216 . S
Co70 O72 2.091 . S
Co70 O74 2.004 . S
Co70 O80 2.021 . S
Co70 O82 2.137 . S
Co70 O83 2.244 . S
O71 Co70 2.216 . S
O71 C78 1.247 . S
O72 Co70 2.091 . S
O72 C78 1.261 . S
C73 O82 1.247 . S
C73 O83 1.272 . S
O74 Co70 2.004 . S
O74 C79 1.259 . S
Co75 O76 2.061 . S
Co75 O81 2.052 . S
Co75 O83 2.135 . S
O76 Co75 2.061 . S
O76 C79 1.235 . S
C77 O80 1.238 . S
C77 O81 1.241 . S
C78 O71 1.247 . S
C78 O72 1.261 . S
C79 O74 1.259 . S
C79 O76 1.235 . S
O80 Co70 2.021 . S
O80 C77 1.238 . S
O81 Co75 2.052 . S
O81 C77 1.241 . S
O82 Co70 2.137 . S
O82 C73 1.247 . S
O83 Co70 2.244 . S
O83 C73 1.272 . S
O83 Co75 2.135 . S
Co84 O85 2.216 . S
Co84 O86 2.091 . S
Co84 O88 2.004 1_545 S
Co84 O94 2.021 . S
Co84 O96 2.137 . S
Co84 O97 2.244 . S
O85 Co84 2.216 . S
O85 C92 1.247 . S
O86 Co84 2.091 . S
O86 C92 1.261 . S
C87 O96 1.247 . S
C87 O97 1.272 . S
O88 Co84 2.004 1_565 S
O88 C93 1.259 . S
Co89 O90 2.061 . S
Co89 O95 2.052 . S
Co89 O97 2.135 1_565 S
O90 Co89 2.061 . S
O90 C93 1.235 . S
C91 O94 1.238 . S
C91 O95 1.241 1_545 S
C92 O85 1.247 . S
C92 O86 1.261 . S
C93 O88 1.259 . S
C93 O90 1.235 . S
O94 Co84 2.021 . S
O94 C91 1.238 . S
O95 Co89 2.052 . S
O95 C91 1.241 1_565 S
O96 Co84 2.137 . S
O96 C87 1.247 . S
O97 Co84 2.244 . S
O97 C87 1.272 . S
O97 Co89 2.135 1_545 S
Co98 O99 2.216 . S
Co98 O100 2.091 . S
Co98 O102 2.004 . S
Co98 O108 2.021 . S
Co98 O110 2.137 1_554 S
Co98 O111 2.244 . S
O99 Co98 2.216 . S
O99 C106 1.247 . S
O100 Co98 2.091 . S
O100 C106 1.261 . S
C101 O110 1.247 . S
C101 O111 1.272 1_556 S
O102 Co98 2.004 . S
O102 C107 1.259 . S
Co103 O104 2.061 . S
Co103 O109 2.052 . S
Co103 O111 2.135 . S
O104 Co103 2.061 . S
O104 C107 1.235 . S
C105 O108 1.238 . S
C105 O109 1.241 . S
C106 O99 1.247 . S
C106 O100 1.261 . S
C107 O102 1.259 . S
C107 O104 1.235 . S
O108 Co98 2.021 . S
O108 C105 1.238 . S
O109 Co103 2.052 . S
O109 C105 1.241 . S
O110 Co98 2.137 1_556 S
O110 C101 1.247 . S
O111 Co98 2.244 . S
O111 C101 1.272 1_554 S
O111 Co103 2.135 . S
Co112 O113 2.216 . S
Co112 O114 2.091 . S
Co112 O116 2.004 . S
Co112 O122 2.021 . S
Co112 O124 2.137 . S
Co112 O125 2.244 . S
O113 Co112 2.216 . S
O113 C120 1.247 . S
O114 Co112 2.091 . S
O114 C120 1.261 . S
C115 O124 1.247 . S
C115 O125 1.272 . S
O116 Co112 2.004 . S
O116 C121 1.259 . S
Co117 O118 2.061 . S
Co117 O123 2.052 . S
Co117 O125 2.135 . S
O118 Co117 2.061 . S
O118 C121 1.235 . S
C119 O122 1.238 . S
C119 O123 1.241 . S
C120 O113 1.247 . S
C120 O114 1.261 . S
C121 O116 1.259 . S
C121 O118 1.235 . S
O122 Co112 2.021 . S
O122 C119 1.238 . S
O123 Co117 2.052 . S
O123 C119 1.241 . S
O124 Co112 2.137 . S
O124 C115 1.247 . S
O125 Co112 2.244 . S
O125 C115 1.272 . S
O125 Co117 2.135 . S
Co126 O127 2.216 . S
Co126 O128 2.091 . S
Co126 O130 2.004 . S
Co126 O136 2.021 . S
Co126 O138 2.137 . S
Co126 O139 2.244 . S
O127 Co126 2.216 . S
O127 C134 1.247 . S
O128 Co126 2.091 . S
O128 C134 1.261 . S
C129 O138 1.247 . S
C129 O139 1.272 . S
O130 Co126 2.004 . S
O130 C135 1.259 . S
Co131 O132 2.061 . S
Co131 O137 2.052 . S
Co131 O139 2.135 . S
O132 Co131 2.061 . S
O132 C135 1.235 . S
C133 O136 1.238 . S
C133 O137 1.241 . S
C134 O127 1.247 . S
C134 O128 1.261 . S
C135 O130 1.259 . S
C135 O132 1.235 . S
O136 Co126 2.021 . S
O136 C133 1.238 . S
O137 Co131 2.052 . S
O137 C133 1.241 . S
O138 Co126 2.137 . S
O138 C129 1.247 . S
O139 Co126 2.244 . S
O139 C129 1.272 . S
O139 Co131 2.135 . S
Co140 O141 2.216 . S
Co140 O142 2.091 . S
Co140 O144 2.004 . S
Co140 O150 2.021 . S
Co140 O152 2.137 . S
Co140 O153 2.244 . S
O141 Co140 2.216 . S
O141 C148 1.247 . S
O142 Co140 2.091 . S
O142 C148 1.261 . S
C143 O152 1.247 . S
C143 O153 1.272 . S
O144 Co140 2.004 . S
O144 C149 1.259 . S
Co145 O146 2.061 . S
Co145 O151 2.052 . S
Co145 O153 2.135 . S
O146 Co145 2.061 . S
O146 C149 1.235 . S
C147 O150 1.238 . S
C147 O151 1.241 . S
C148 O141 1.247 . S
C148 O142 1.261 . S
C149 O144 1.259 . S
C149 O146 1.235 . S
O150 Co140 2.021 . S
O150 C147 1.238 . S
O151 Co145 2.052 . S
O151 C147 1.241 . S
O152 Co140 2.137 . S
O152 C143 1.247 . S
O153 Co140 2.244 . S
O153 C143 1.272 . S
O153 Co145 2.135 . S
Co154 O155 2.216 . S
Co154 O156 2.091 . S
Co154 O158 2.004 . S
Co154 O164 2.021 . S
Co154 O166 2.137 . S
Co154 O167 2.244 . S
O155 Co154 2.216 . S
O155 C162 1.247 . S
O156 Co154 2.091 . S
O156 C162 1.261 . S
C157 O166 1.247 . S
C157 O167 1.272 . S
O158 Co154 2.004 . S
O158 C163 1.259 . S
Co159 O160 2.061 . S
Co159 O165 2.052 . S
Co159 O167 2.135 . S
O160 Co159 2.061 . S
O160 C163 1.235 . S
C161 O164 1.238 . S
C161 O165 1.241 . S
C162 O155 1.247 . S
C162 O156 1.261 . S
C163 O158 1.259 . S
C163 O160 1.235 . S
O164 Co154 2.021 . S
O164 C161 1.238 . S
O165 Co159 2.052 . S
O165 C161 1.241 . S
O166 Co154 2.137 . S
O166 C157 1.247 . S
O167 Co154 2.244 . S
O167 C157 1.272 . S
O167 Co159 2.135 . S
Co168 O169 2.216 . S
Co168 O170 2.091 . S
Co168 O172 2.004 1_455 S
Co168 O178 2.021 . S
Co168 O180 2.137 . S
Co168 O181 2.244 1_455 S
O169 Co168 2.216 . S
O169 C176 1.247 . S
O170 Co168 2.091 . S
O170 C176 1.261 . S
C171 O180 1.247 . S
C171 O181 1.272 1_455 S
O172 Co168 2.004 1_655 S
O172 C177 1.259 . S
Co173 O174 2.061 . S
Co173 O179 2.052 . S
Co173 O181 2.135 . S
O174 Co173 2.061 . S
O174 C177 1.235 . S
C175 O178 1.238 1_655 S
C175 O179 1.241 . S
C176 O169 1.247 . S
C176 O170 1.261 . S
C177 O172 1.259 . S
C177 O174 1.235 . S
O178 Co168 2.021 . S
O178 C175 1.238 1_455 S
O179 Co173 2.052 . S
O179 C175 1.241 . S
O180 Co168 2.137 . S
O180 C171 1.247 . S
O181 Co168 2.244 1_655 S
O181 C171 1.272 1_655 S
O181 Co173 2.135 . S
Co182 O183 2.216 1_455 S
Co182 O184 2.091 . S
Co182 O186 2.004 . S
Co182 O192 2.021 . S
Co182 O194 2.137 . S
Co182 O195 2.244 . S
O183 Co182 2.216 1_655 S
O183 C190 1.247 . S
O184 Co182 2.091 . S
O184 C190 1.261 1_455 S
C185 O194 1.247 . S
C185 O195 1.272 . S
O186 Co182 2.004 . S
O186 C191 1.259 . S
Co187 O188 2.061 . S
Co187 O193 2.052 . S
Co187 O195 2.135 . S
O188 Co187 2.061 . S
O188 C191 1.235 . S
C189 O192 1.238 . S
C189 O193 1.241 . S
C190 O183 1.247 . S
C190 O184 1.261 1_655 S
C191 O186 1.259 . S
C191 O188 1.235 . S
O192 Co182 2.021 . S
O192 C189 1.238 . S
O193 Co187 2.052 . S
O193 C189 1.241 . S
O194 Co182 2.137 . S
O194 C185 1.247 . S
O195 Co182 2.244 . S
O195 C185 1.272 . S
O195 Co187 2.135 . S
Co196 O197 2.216 . S
Co196 O198 2.091 . S
Co196 O200 2.004 . S
Co196 O206 2.021 . S
Co196 O208 2.137 . S
Co196 O209 2.244 . S
O197 Co196 2.216 . S
O197 C204 1.247 . S
O198 Co196 2.091 . S
O198 C204 1.261 . S
C199 O208 1.247 . S
C199 O209 1.272 . S
O200 Co196 2.004 . S
O200 C205 1.259 . S
Co201 O202 2.061 . S
Co201 O207 2.052 . S
Co201 O209 2.135 . S
O202 Co201 2.061 . S
O202 C205 1.235 . S
C203 O206 1.238 . S
C203 O207 1.241 . S
C204 O197 1.247 . S
C204 O198 1.261 . S
C205 O200 1.259 . S
C205 O202 1.235 . S
O206 Co196 2.021 . S
O206 C203 1.238 . S
O207 Co201 2.052 . S
O207 C203 1.241 . S
O208 Co196 2.137 . S
O208 C199 1.247 . S
O209 Co196 2.244 . S
O209 C199 1.272 . S
O209 Co201 2.135 . S
Co210 O211 2.216 . S
Co210 O212 2.091 . S
Co210 O214 2.004 . S
Co210 O220 2.021 . S
Co210 O222 2.137 . S
Co210 O223 2.244 . S
O211 Co210 2.216 . S
O211 C218 1.247 . S
O212 Co210 2.091 . S
O212 C218 1.261 . S
C213 O222 1.247 . S
C213 O223 1.272 . S
O214 Co210 2.004 . S
O214 C219 1.259 . S
Co215 O216 2.061 . S
Co215 O221 2.052 . S
Co215 O223 2.135 . S
O216 Co215 2.061 . S
O216 C219 1.235 . S
C217 O220 1.238 . S
C217 O221 1.241 . S
C218 O211 1.247 . S
C218 O212 1.261 . S
C219 O214 1.259 . S
C219 O216 1.235 . S
O220 Co210 2.021 . S
O220 C217 1.238 . S
O221 Co215 2.052 . S
O221 C217 1.241 . S
O222 Co210 2.137 . S
O222 C213 1.247 . S
O223 Co210 2.244 . S
O223 C213 1.272 . S
O223 Co215 2.135 . S
Co224 O225 2.216 . S
Co224 O226 2.091 . S
Co224 O228 2.004 1_545 S
Co224 O234 2.021 . S
Co224 O236 2.137 . S
Co224 O237 2.244 1_545 S
O225 Co224 2.216 . S
O225 C232 1.247 . S
O226 Co224 2.091 . S
O226 C232 1.261 . S
C227 O236 1.247 . S
C227 O237 1.272 1_545 S
O228 Co224 2.004 1_565 S
O228 C233 1.259 . S
Co229 O230 2.061 . S
Co229 O235 2.052 . S
Co229 O237 2.135 . S
O230 Co229 2.061 . S
O230 C233 1.235 . S
C231 O234 1.238 . S
C231 O235 1.241 1_545 S
C232 O225 1.247 . S
C232 O226 1.261 . S
C233 O228 1.259 . S
C233 O230 1.235 . S
O234 Co224 2.021 . S
O234 C231 1.238 . S
O235 Co229 2.052 . S
O235 C231 1.241 1_565 S
O236 Co224 2.137 . S
O236 C227 1.247 . S
O237 Co224 2.244 1_565 S
O237 C227 1.272 1_565 S
O237 Co229 2.135 . S
Co238 O239 2.216 . S
Co238 O240 2.091 . S
Co238 O242 2.004 . S
Co238 O248 2.021 . S
Co238 O250 2.137 . S
Co238 O251 2.244 . S
O239 Co238 2.216 . S
O239 C246 1.247 . S
O240 Co238 2.091 . S
O240 C246 1.261 . S
C241 O250 1.247 . S
C241 O251 1.272 . S
O242 Co238 2.004 . S
O242 C247 1.259 . S
Co243 O244 2.061 . S
Co243 O249 2.052 . S
Co243 O251 2.135 . S
O244 Co243 2.061 . S
O244 C247 1.235 . S
C245 O248 1.238 . S
C245 O249 1.241 . S
C246 O239 1.247 . S
C246 O240 1.261 . S
C247 O242 1.259 . S
C247 O244 1.235 . S
O248 Co238 2.021 . S
O248 C245 1.238 . S
O249 Co243 2.052 . S
O249 C245 1.241 . S
O250 Co238 2.137 . S
O250 C241 1.247 . S
O251 Co238 2.244 . S
O251 C241 1.272 . S
O251 Co243 2.135 . S
Co252 O253 2.216 1_545 S
Co252 O254 2.091 1_545 S
Co252 O256 2.004 . S
Co252 O262 2.021 . S
Co252 O264 2.137 . S
Co252 O265 2.244 . S
O253 Co252 2.216 1_565 S
O253 C260 1.247 . S
O254 Co252 2.091 1_565 S
O254 C260 1.261 . S
C255 O264 1.247 . S
C255 O265 1.272 . S
O256 Co252 2.004 . S
O256 C261 1.259 . S
Co257 O258 2.061 . S
Co257 O263 2.052 . S
Co257 O265 2.135 . S
O258 Co257 2.061 . S
O258 C261 1.235 . S
C259 O262 1.238 . S
C259 O263 1.241 . S
C260 O253 1.247 . S
C260 O254 1.261 . S
C261 O256 1.259 . S
C261 O258 1.235 . S
O262 Co252 2.021 . S
O262 C259 1.238 . S
O263 Co257 2.052 . S
O263 C259 1.241 . S
O264 Co252 2.137 . S
O264 C255 1.247 . S
O265 Co252 2.244 . S
O265 C255 1.272 . S
O265 Co257 2.135 . S
Co266 O267 2.216 . S
Co266 O268 2.091 . S
Co266 O270 2.004 . S
Co266 O276 2.021 . S
Co266 O278 2.137 1_554 S
Co266 O279 2.244 . S
O267 Co266 2.216 . S
O267 C274 1.247 . S
O268 Co266 2.091 . S
O268 C274 1.261 . S
C269 O278 1.247 . S
C269 O279 1.272 1_556 S
O270 Co266 2.004 . S
O270 C275 1.259 . S
Co271 O272 2.061 . S
Co271 O277 2.052 . S
Co271 O279 2.135 . S
O272 Co271 2.061 . S
O272 C275 1.235 . S
C273 O276 1.238 . S
C273 O277 1.241 . S
C274 O267 1.247 . S
C274 O268 1.261 . S
C275 O270 1.259 . S
C275 O272 1.235 . S
O276 Co266 2.021 . S
O276 C273 1.238 . S
O277 Co271 2.052 . S
O277 C273 1.241 . S
O278 Co266 2.137 1_556 S
O278 C269 1.247 . S
O279 Co266 2.244 . S
O279 C269 1.272 1_554 S
O279 Co271 2.135 . S
Co280 O281 2.216 . S
Co280 O282 2.087 1_556 S
Co280 O284 2.004 . S
Co280 O290 2.021 1_556 S
Co280 O292 2.137 . S
Co280 O293 2.244 . S
O281 Co280 2.216 . S
O281 C288 1.243 1_556 S
O282 Co280 2.087 1_554 S
O282 C288 1.261 . S
C283 O292 1.247 . S
C283 O293 1.272 . S
O284 Co280 2.004 . S
O284 C289 1.259 . S
Co285 O286 2.061 1_556 S
Co285 O291 2.052 1_556 S
Co285 O293 2.135 . S
O286 Co285 2.061 1_554 S
O286 C289 1.234 1_554 S
C287 O290 1.238 . S
C287 O291 1.241 . S
C288 O281 1.243 1_554 S
C288 O282 1.261 . S
C289 O284 1.259 . S
C289 O286 1.234 1_556 S
O290 Co280 2.021 1_554 S
O290 C287 1.238 . S
O291 Co285 2.052 1_554 S
O291 C287 1.241 . S
O292 Co280 2.137 . S
O292 C283 1.247 . S
O293 Co280 2.244 . S
O293 C283 1.272 . S
O293 Co285 2.135 . S
Co294 O295 2.216 . S
Co294 O296 2.091 . S
Co294 O298 2.004 . S
Co294 O304 2.021 . S
Co294 O306 2.137 . S
Co294 O307 2.244 . S
O295 Co294 2.216 . S
O295 C302 1.247 . S
O296 Co294 2.091 . S
O296 C302 1.261 . S
C297 O306 1.247 . S
C297 O307 1.272 . S
O298 Co294 2.004 . S
O298 C303 1.259 . S
Co299 O300 2.061 . S
Co299 O305 2.052 . S
Co299 O307 2.135 . S
O300 Co299 2.061 . S
O300 C303 1.235 . S
C301 O304 1.238 . S
C301 O305 1.241 . S
C302 O295 1.247 . S
C302 O296 1.261 . S
C303 O298 1.259 . S
C303 O300 1.235 . S
O304 Co294 2.021 . S
O304 C301 1.238 . S
O305 Co299 2.052 . S
O305 C301 1.241 . S
O306 Co294 2.137 . S
O306 C297 1.247 . S
O307 Co294 2.244 . S
O307 C297 1.272 . S
O307 Co299 2.135 . S
Co308 O309 2.216 . S
Co308 O310 2.091 . S
Co308 O312 2.004 . S
Co308 O318 2.021 . S
Co308 O320 2.137 . S
Co308 O321 2.244 . S
O309 Co308 2.216 . S
O309 C316 1.247 . S
O310 Co308 2.091 . S
O310 C316 1.261 . S
C311 O320 1.247 . S
C311 O321 1.272 . S
O312 Co308 2.004 . S
O312 C317 1.259 . S
Co313 O314 2.061 . S
Co313 O319 2.052 . S
Co313 O321 2.135 . S
O314 Co313 2.061 . S
O314 C317 1.235 . S
C315 O318 1.238 . S
C315 O319 1.241 . S
C316 O309 1.247 . S
C316 O310 1.261 . S
C317 O312 1.259 . S
C317 O314 1.235 . S
O318 Co308 2.021 . S
O318 C315 1.238 . S
O319 Co313 2.052 . S
O319 C315 1.241 . S
O320 Co308 2.137 . S
O320 C311 1.247 . S
O321 Co308 2.244 . S
O321 C311 1.272 . S
O321 Co313 2.135 . S
Co322 O323 2.216 . S
Co322 O324 2.091 . S
Co322 O326 2.004 . S
Co322 O332 2.021 . S
Co322 O334 2.137 . S
Co322 O335 2.244 . S
O323 Co322 2.216 . S
O323 C330 1.247 . S
O324 Co322 2.091 . S
O324 C330 1.261 . S
C325 O334 1.247 . S
C325 O335 1.272 . S
O326 Co322 2.004 . S
O326 C331 1.259 . S
Co327 O328 2.061 . S
Co327 O333 2.052 . S
Co327 O335 2.135 . S
O328 Co327 2.061 . S
O328 C331 1.235 . S
C329 O332 1.238 . S
C329 O333 1.241 . S
C330 O323 1.247 . S
C330 O324 1.261 . S
C331 O326 1.259 . S
C331 O328 1.235 . S
O332 Co322 2.021 . S
O332 C329 1.238 . S
O333 Co327 2.052 . S
O333 C329 1.241 . S
O334 Co322 2.137 . S
O334 C325 1.247 . S
O335 Co322 2.244 . S
O335 C325 1.272 . S
O335 Co327 2.135 . S
C336 O352 1.254 1_455 S
C336 O354 1.254 . S
N337 C338 1.333 1_565 S
N337 C342 1.307 . S
N337 Zn343 2.020 1_665 S
C338 N337 1.333 1_545 S
C338 C339 1.380 . S
C338 H356 0.952 . S
C339 C338 1.380 . S
C339 C340 1.388 1_545 S
C339 H366 0.950 . S
C340 C339 1.388 1_565 S
C340 C341 1.357 . S
C341 C340 1.357 . S
C341 C342 1.370 . S
C341 H367 0.950 . S
C342 N337 1.307 . S
C342 C341 1.370 . S
C342 H360 0.948 . S
Zn343 N337 2.020 1_445 S
Zn343 O352 2.035 1_454 S
Zn343 O358 2.034 . S
Zn343 O362 2.025 1_545 S
Zn343 O364 2.024 1_545 S
C344 O363 1.246 . S
C344 O364 1.249 . S
N345 C346 1.307 1_554 S
N345 C347 1.333 . S
N345 Zn351 2.020 . S
C346 N345 1.307 1_556 S
C346 C350 1.370 . S
C346 H357 0.948 . S
C347 N345 1.333 . S
C347 C348 1.379 . S
C347 H355 0.952 . S
C348 C347 1.379 . S
C348 C349 1.394 . S
C348 H368 0.949 . S
C349 C348 1.394 . S
C349 C350 1.355 1_554 S
C350 C346 1.370 . S
C350 C349 1.355 1_556 S
C350 H369 0.950 . S
Zn351 N345 2.020 . S
Zn351 O354 2.025 1_554 S
Zn351 O359 2.024 . S
Zn351 O361 2.039 . S
Zn351 O363 2.034 1_545 S
O352 C336 1.254 1_655 S
O352 Zn343 2.035 1_656 S
C353 O358 1.246 . S
C353 O359 1.249 . S
O354 C336 1.254 . S
O354 Zn351 2.025 1_556 S
H355 C347 0.952 . S
H356 C338 0.952 . S
H357 C346 0.948 . S
O358 Zn343 2.034 . S
O358 C353 1.246 . S
O359 Zn351 2.024 . S
O359 C353 1.249 . S
H360 C342 0.948 . S
O361 Zn351 2.039 . S
O361 C365 1.251 1_545 S
O362 Zn343 2.025 1_565 S
O362 C365 1.254 . S
O363 C344 1.246 . S
O363 Zn351 2.034 1_565 S
O364 Zn343 2.024 1_565 S
O364 C344 1.249 . S
C365 O361 1.251 1_565 S
C365 O362 1.254 . S
H366 C339 0.950 . S
H367 C341 0.950 . S
H368 C348 0.949 . S
H369 C350 0.950 . S
C370 O386 1.251 . S
C370 O388 1.254 . S
N371 C372 1.333 . S
N371 C376 1.307 . S
N371 Zn377 2.020 . S
C372 N371 1.333 . S
C372 C373 1.379 . S
C372 H390 0.952 . S
C373 C372 1.379 . S
C373 C374 1.390 . S
C373 H400 0.949 . S
C374 C373 1.390 . S
C374 C375 1.357 . S
C375 C374 1.357 . S
C375 C376 1.370 . S
C375 H401 0.950 . S
C376 N371 1.307 . S
C376 C375 1.370 . S
C376 H394 0.948 . S
Zn377 N371 2.020 . S
Zn377 O386 2.039 . S
Zn377 O392 2.034 . S
Zn377 O396 2.025 . S
Zn377 O398 2.024 . S
C378 O397 1.246 . S
C378 O398 1.249 . S
N379 C380 1.307 . S
N379 C381 1.333 . S
N379 Zn385 2.020 . S
C380 N379 1.307 . S
C380 C384 1.370 . S
C380 H391 0.948 . S
C381 N379 1.333 . S
C381 C382 1.379 . S
C381 H389 0.952 . S
C382 C381 1.379 . S
C382 C383 1.390 . S
C382 H402 0.949 . S
C383 C382 1.390 . S
C383 C384 1.357 . S
C384 C380 1.370 . S
C384 C383 1.357 . S
C384 H403 0.950 . S
Zn385 N379 2.020 . S
Zn385 O388 2.025 . S
Zn385 O393 2.024 . S
Zn385 O395 2.039 . S
Zn385 O397 2.034 . S
O386 C370 1.251 . S
O386 Zn377 2.039 . S
C387 O392 1.246 . S
C387 O393 1.249 . S
O388 C370 1.254 . S
O388 Zn385 2.025 . S
H389 C381 0.952 . S
H390 C372 0.952 . S
H391 C380 0.948 . S
O392 Zn377 2.034 . S
O392 C387 1.246 . S
O393 Zn385 2.024 . S
O393 C387 1.249 . S
H394 C376 0.948 . S
O395 Zn385 2.039 . S
O395 C399 1.251 . S
O396 Zn377 2.025 . S
O396 C399 1.254 . S
O397 C378 1.246 . S
O397 Zn385 2.034 . S
O398 Zn377 2.024 . S
O398 C378 1.249 . S
C399 O395 1.251 . S
C399 O396 1.254 . S
H400 C373 0.949 . S
H401 C375 0.950 . S
H402 C382 0.949 . S
H403 C384 0.950 . S
C404 O420 1.289 . S
C404 O422 1.254 . S
N405 C406 1.333 . S
N405 C410 1.307 . S
N405 Zn411 2.020 . S
C406 N405 1.333 . S
C406 C407 1.379 . S
C406 H424 0.952 . S
C407 C406 1.379 . S
C407 C408 1.390 . S
C407 H434 0.949 . S
C408 C407 1.390 . S
C408 C409 1.357 . S
C409 C408 1.357 . S
C409 C410 1.370 . S
C409 H435 0.950 . S
C410 N405 1.307 . S
C410 C409 1.370 . S
C410 H428 0.948 . S
Zn411 N405 2.020 . S
Zn411 O420 2.024 1_565 S
Zn411 O426 2.034 1_565 S
Zn411 O430 2.025 . S
Zn411 O432 2.024 . S
C412 O431 1.246 1_565 S
C412 O432 1.249 . S
N413 C414 1.307 . S
N413 C415 1.333 . S
N413 Zn419 2.020 . S
C414 N413 1.307 . S
C414 C418 1.370 . S
C414 H425 0.948 . S
C415 N413 1.333 . S
C415 C416 1.379 . S
C415 H423 0.952 . S
C416 C415 1.379 . S
C416 C417 1.390 . S
C416 H436 0.949 . S
C417 C416 1.390 . S
C417 C418 1.357 . S
C418 C414 1.370 . S
C418 C417 1.357 . S
C418 H437 0.950 . S
Zn419 N413 2.020 . S
Zn419 O422 2.025 . S
Zn419 O427 2.024 . S
Zn419 O429 2.039 . S
Zn419 O431 2.034 . S
O420 C404 1.289 . S
O420 Zn411 2.024 1_545 S
C421 O426 1.246 . S
C421 O427 1.249 . S
O422 C404 1.254 . S
O422 Zn419 2.025 . S
H423 C415 0.952 . S
H424 C406 0.952 . S
H425 C414 0.948 . S
O426 Zn411 2.034 1_545 S
O426 C421 1.246 . S
O427 Zn419 2.024 . S
O427 C421 1.249 . S
H428 C410 0.948 . S
O429 Zn419 2.039 . S
O429 C433 1.251 . S
O430 Zn411 2.025 . S
O430 C433 1.254 1_565 S
O431 C412 1.246 1_545 S
O431 Zn419 2.034 . S
O432 Zn411 2.024 . S
O432 C412 1.249 . S
C433 O429 1.251 . S
C433 O430 1.254 1_545 S
H434 C407 0.949 . S
H435 C409 0.950 . S
H436 C416 0.949 . S
H437 C418 0.950 . S
C438 O454 1.251 . S
C438 O456 1.254 . S
N439 C440 1.333 . S
N439 C444 1.307 . S
N439 Zn445 2.020 . S
C440 N439 1.333 . S
C440 C441 1.379 . S
C440 H458 0.952 . S
C441 C440 1.379 . S
C441 C442 1.390 . S
C441 H468 0.949 . S
C442 C441 1.390 . S
C442 C443 1.357 . S
C443 C442 1.357 . S
C443 C444 1.370 . S
C443 H469 0.950 . S
C444 N439 1.307 . S
C444 C443 1.370 . S
C444 H462 0.948 . S
Zn445 N439 2.020 . S
Zn445 O454 2.039 . S
Zn445 O460 2.034 . S
Zn445 O464 2.025 . S
Zn445 O466 2.024 . S
C446 O465 1.246 . S
C446 O466 1.249 . S
N447 C448 1.307 . S
N447 C449 1.333 . S
N447 Zn453 2.020 . S
C448 N447 1.307 . S
C448 C452 1.370 . S
C448 H459 0.948 . S
C449 N447 1.333 . S
C449 C450 1.379 . S
C449 H457 0.952 . S
C450 C449 1.379 . S
C450 C451 1.390 . S
C450 H470 0.949 . S
C451 C450 1.390 . S
C451 C452 1.357 . S
C452 C448 1.370 . S
C452 C451 1.357 . S
C452 H471 0.950 . S
Zn453 N447 2.020 . S
Zn453 O456 2.025 . S
Zn453 O461 2.024 . S
Zn453 O463 2.039 . S
Zn453 O465 2.034 . S
O454 C438 1.251 . S
O454 Zn445 2.039 . S
C455 O460 1.246 . S
C455 O461 1.249 . S
O456 C438 1.254 . S
O456 Zn453 2.025 . S
H457 C449 0.952 . S
H458 C440 0.952 . S
H459 C448 0.948 . S
O460 Zn445 2.034 . S
O460 C455 1.246 . S
O461 Zn453 2.024 . S
O461 C455 1.249 . S
H462 C444 0.948 . S
O463 Zn453 2.039 . S
O463 C467 1.251 . S
O464 Zn445 2.025 . S
O464 C467 1.254 . S
O465 C446 1.246 . S
O465 Zn453 2.034 . S
O466 Zn445 2.024 . S
O466 C446 1.249 . S
C467 O463 1.251 . S
C467 O464 1.254 . S
H468 C441 0.949 . S
H469 C443 0.950 . S
H470 C450 0.949 . S
H471 C452 0.950 . S
C472 O488 1.251 1_565 S
C472 O490 1.254 . S
N473 C474 1.333 . S
N473 C478 1.307 . S
N473 Zn479 2.020 . S
C474 N473 1.333 . S
C474 C475 1.379 . S
C474 H492 0.952 . S
C475 C474 1.379 . S
C475 C476 1.390 . S
C475 H502 0.949 . S
C476 C475 1.390 . S
C476 C477 1.357 . S
C477 C476 1.357 . S
C477 C478 1.370 . S
C477 H503 0.950 . S
C478 N473 1.307 . S
C478 C477 1.370 . S
C478 H496 0.948 . S
Zn479 N473 2.020 . S
Zn479 O488 2.039 . S
Zn479 O494 2.034 . S
Zn479 O498 2.025 . S
Zn479 O500 2.024 1_545 S
C480 O499 1.246 . S
C480 O500 1.249 . S
N481 C482 1.307 . S
N481 C483 1.333 1_455 S
N481 Zn487 2.020 1_565 S
C482 N481 1.307 . S
C482 C486 1.370 . S
C482 H493 0.950 . S
C483 N481 1.333 1_655 S
C483 C484 1.379 . S
C483 H491 0.952 . S
C484 C483 1.379 . S
C484 C485 1.390 . S
C484 H504 0.949 . S
C485 C484 1.390 . S
C485 C486 1.357 1_655 S
C486 C482 1.370 . S
C486 C485 1.357 1_455 S
C486 H505 0.950 . S
Zn487 N481 2.020 1_545 S
Zn487 O490 2.025 1_545 S
Zn487 O495 2.024 . S
Zn487 O497 2.039 1_455 S
Zn487 O499 2.034 1_545 S
O488 C472 1.251 1_545 S
O488 Zn479 2.039 . S
C489 O494 1.246 . S
C489 O495 1.249 . S
O490 C472 1.254 . S
O490 Zn487 2.025 1_565 S
H491 C483 0.952 . S
H492 C474 0.952 . S
H493 C482 0.950 . S
O494 Zn479 2.034 . S
O494 C489 1.246 . S
O495 Zn487 2.024 . S
O495 C489 1.249 . S
H496 C478 0.948 . S
O497 Zn487 2.039 1_655 S
O497 C501 1.251 . S
O498 Zn479 2.025 . S
O498 C501 1.254 1_455 S
O499 C480 1.246 . S
O499 Zn487 2.034 1_565 S
O500 Zn479 2.024 1_565 S
O500 C480 1.249 . S
C501 O497 1.251 . S
C501 O498 1.254 1_655 S
H502 C475 0.949 . S
H503 C477 0.950 . S
H504 C484 0.949 . S
H505 C486 0.950 . S
C506 O522 1.251 . S
C506 O524 1.254 . S
N507 C508 1.333 . S
N507 C512 1.307 . S
N507 Zn513 2.020 . S
C508 N507 1.333 . S
C508 C509 1.379 . S
C508 H526 0.952 . S
C509 C508 1.379 . S
C509 C510 1.390 . S
C509 H536 0.949 . S
C510 C509 1.390 . S
C510 C511 1.357 . S
C511 C510 1.357 . S
C511 C512 1.370 . S
C511 H537 0.950 . S
C512 N507 1.307 . S
C512 C511 1.370 . S
C512 H530 0.948 . S
Zn513 N507 2.020 . S
Zn513 O522 2.039 . S
Zn513 O528 2.034 . S
Zn513 O532 2.025 . S
Zn513 O534 2.024 . S
C514 O533 1.246 . S
C514 O534 1.249 . S
N515 C516 1.307 . S
N515 C517 1.333 . S
N515 Zn521 2.020 . S
C516 N515 1.307 . S
C516 C520 1.370 . S
C516 H527 0.948 . S
C517 N515 1.333 . S
C517 C518 1.379 . S
C517 H525 0.952 . S
C518 C517 1.379 . S
C518 C519 1.390 . S
C518 H538 0.949 . S
C519 C518 1.390 . S
C519 C520 1.357 . S
C520 C516 1.370 . S
C520 C519 1.357 . S
C520 H539 0.950 . S
Zn521 N515 2.020 . S
Zn521 O524 2.025 . S
Zn521 O529 2.024 . S
Zn521 O531 2.039 . S
Zn521 O533 2.034 . S
O522 C506 1.251 . S
O522 Zn513 2.039 . S
C523 O528 1.246 . S
C523 O529 1.249 . S
O524 C506 1.254 . S
O524 Zn521 2.025 . S
H525 C517 0.952 . S
H526 C508 0.952 . S
H527 C516 0.948 . S
O528 Zn513 2.034 . S
O528 C523 1.246 . S
O529 Zn521 2.024 . S
O529 C523 1.249 . S
H530 C512 0.948 . S
O531 Zn521 2.039 . S
O531 C535 1.251 . S
O532 Zn513 2.025 . S
O532 C535 1.254 . S
O533 C514 1.246 . S
O533 Zn521 2.034 . S
O534 Zn513 2.024 . S
O534 C514 1.249 . S
C535 O531 1.251 . S
C535 O532 1.254 . S
H536 C509 0.949 . S
H537 C511 0.950 . S
H538 C518 0.949 . S
H539 C520 0.950 . S
C540 O556 1.251 . S
C540 O558 1.254 . S
N541 C542 1.333 . S
N541 C546 1.307 . S
N541 Zn547 2.020 . S
C542 N541 1.333 . S
C542 C543 1.379 . S
C542 H560 0.952 . S
C543 C542 1.379 . S
C543 C544 1.390 . S
C543 H570 0.949 . S
C544 C543 1.390 . S
C544 C545 1.357 . S
C545 C544 1.357 . S
C545 C546 1.370 . S
C545 H571 0.950 . S
C546 N541 1.307 . S
C546 C545 1.370 . S
C546 H564 0.948 . S
Zn547 N541 2.020 . S
Zn547 O556 2.039 1_545 S
Zn547 O562 2.034 . S
Zn547 O566 2.025 . S
Zn547 O568 2.024 . S
C548 O567 1.246 . S
C548 O568 1.249 1_565 S
N549 C550 1.307 . S
N549 C551 1.333 1_565 S
N549 Zn555 2.020 1_566 S
C550 N549 1.307 . S
C550 C554 1.370 . S
C550 H561 0.948 . S
C551 N549 1.333 1_545 S
C551 C552 1.382 . S
C551 H559 0.952 . S
C552 C551 1.382 . S
C552 C553 1.382 1_545 S
C552 H572 0.955 . S
C553 C552 1.382 1_565 S
C553 C554 1.357 . S
C554 C550 1.370 . S
C554 C553 1.357 . S
C554 H573 0.950 . S
Zn555 N549 2.020 1_544 S
Zn555 O558 2.025 1_545 S
Zn555 O563 2.024 . S
Zn555 O565 2.039 1_554 S
Zn555 O567 2.034 1_545 S
O556 C540 1.251 . S
O556 Zn547 2.039 1_565 S
C557 O562 1.246 . S
C557 O563 1.249 . S
O558 C540 1.254 . S
O558 Zn555 2.025 1_565 S
H559 C551 0.952 . S
H560 C542 0.952 . S
H561 C550 0.948 . S
O562 Zn547 2.034 . S
O562 C557 1.246 . S
O563 Zn555 2.024 . S
O563 C557 1.249 . S
H564 C546 0.948 . S
O565 Zn555 2.039 1_556 S
O565 C569 1.251 1_556 S
O566 Zn547 2.025 . S
O566 C569 1.254 . S
O567 C548 1.246 . S
O567 Zn555 2.034 1_565 S
O568 Zn547 2.024 . S
O568 C548 1.249 1_545 S
C569 O565 1.251 1_554 S
C569 O566 1.254 . S
H570 C543 0.949 . S
H571 C545 0.950 . S
H572 C552 0.955 . S
H573 C554 0.950 . S
C574 O590 1.251 . S
C574 O592 1.254 . S
N575 C576 1.333 . S
N575 C580 1.307 . S
N575 Zn581 2.020 . S
C576 N575 1.333 . S
C576 C577 1.379 . S
C576 H594 0.952 . S
C577 C576 1.379 . S
C577 C578 1.390 . S
C577 H604 0.949 . S
C578 C577 1.390 . S
C578 C579 1.357 . S
C579 C578 1.357 . S
C579 C580 1.370 . S
C579 H605 0.950 . S
C580 N575 1.307 . S
C580 C579 1.370 . S
C580 H598 0.948 . S
Zn581 N575 2.020 . S
Zn581 O590 2.039 . S
Zn581 O596 2.034 . S
Zn581 O600 2.025 . S
Zn581 O602 2.024 . S
C582 O601 1.246 . S
C582 O602 1.249 . S
N583 C584 1.307 . S
N583 C585 1.333 . S
N583 Zn589 2.020 . S
C584 N583 1.307 . S
C584 C588 1.370 . S
C584 H595 0.948 . S
C585 N583 1.333 . S
C585 C586 1.379 . S
C585 H593 0.952 . S
C586 C585 1.379 . S
C586 C587 1.390 . S
C586 H606 0.949 . S
C587 C586 1.390 . S
C587 C588 1.357 . S
C588 C584 1.370 . S
C588 C587 1.357 . S
C588 H607 0.950 . S
Zn589 N583 2.020 . S
Zn589 O592 2.025 . S
Zn589 O597 2.024 . S
Zn589 O599 2.039 . S
Zn589 O601 2.034 . S
O590 C574 1.251 . S
O590 Zn581 2.039 . S
C591 O596 1.246 . S
C591 O597 1.249 . S
O592 C574 1.254 . S
O592 Zn589 2.025 . S
H593 C585 0.952 . S
H594 C576 0.952 . S
H595 C584 0.948 . S
O596 Zn581 2.034 . S
O596 C591 1.246 . S
O597 Zn589 2.024 . S
O597 C591 1.249 . S
H598 C580 0.948 . S
O599 Zn589 2.039 . S
O599 C603 1.251 . S
O600 Zn581 2.025 . S
O600 C603 1.254 . S
O601 C582 1.246 . S
O601 Zn589 2.034 . S
O602 Zn581 2.024 . S
O602 C582 1.249 . S
C603 O599 1.251 . S
C603 O600 1.254 . S
H604 C577 0.949 . S
H605 C579 0.950 . S
H606 C586 0.949 . S
H607 C588 0.950 . S
C608 O624 1.251 . S
C608 O626 1.254 . S
N609 C610 1.333 . S
N609 C614 1.307 . S
N609 Zn615 2.020 1_556 S
C610 N609 1.333 . S
C610 C611 1.379 . S
C610 H628 0.952 . S
C611 C610 1.379 . S
C611 C612 1.390 . S
C611 H638 0.949 . S
C612 C611 1.390 . S
C612 C613 1.357 . S
C613 C612 1.357 . S
C613 C614 1.370 . S
C613 H639 0.950 . S
C614 N609 1.307 . S
C614 C613 1.370 . S
C614 H632 0.948 . S
Zn615 N609 2.020 1_554 S
Zn615 O624 2.039 . S
Zn615 O630 2.034 . S
Zn615 O634 2.027 . S
Zn615 O636 2.024 1_554 S
C616 O635 1.246 . S
C616 O636 1.249 1_554 S
N617 C618 1.307 . S
N617 C619 1.333 . S
N617 Zn623 2.020 . S
C618 N617 1.307 . S
C618 C622 1.370 . S
C618 H629 0.948 . S
C619 N617 1.333 . S
C619 C620 1.379 . S
C619 H627 0.952 . S
C620 C619 1.379 . S
C620 C621 1.390 . S
C620 H640 0.949 . S
C621 C620 1.390 . S
C621 C622 1.357 . S
C622 C618 1.370 . S
C622 C621 1.357 . S
C622 H641 0.950 . S
Zn623 N617 2.020 . S
Zn623 O626 2.025 . S
Zn623 O631 2.024 . S
Zn623 O633 2.039 . S
Zn623 O635 2.034 . S
O624 C608 1.251 . S
O624 Zn615 2.039 . S
C625 O630 1.246 . S
C625 O631 1.249 . S
O626 C608 1.254 . S
O626 Zn623 2.025 . S
H627 C619 0.952 . S
H628 C610 0.952 . S
H629 C618 0.948 . S
O630 Zn615 2.034 . S
O630 C625 1.246 . S
O631 Zn623 2.024 . S
O631 C625 1.249 . S
H632 C614 0.948 . S
O633 Zn623 2.039 . S
O633 C637 1.251 . S
O634 Zn615 2.027 . S
O634 C637 1.281 . S
O635 C616 1.246 . S
O635 Zn623 2.034 . S
O636 Zn615 2.024 1_556 S
O636 C616 1.249 1_556 S
C637 O633 1.251 . S
C637 O634 1.281 . S
H638 C611 0.949 . S
H639 C613 0.950 . S
H640 C620 0.949 . S
H641 C622 0.950 . S
C642 O658 1.251 . S
C642 O660 1.254 . S
N643 C644 1.333 . S
N643 C648 1.307 . S
N643 Zn649 2.020 . S
C644 N643 1.333 . S
C644 C645 1.379 . S
C644 H662 0.952 . S
C645 C644 1.379 . S
C645 C646 1.390 . S
C645 H672 0.949 . S
C646 C645 1.390 . S
C646 C647 1.357 . S
C647 C646 1.357 . S
C647 C648 1.370 . S
C647 H673 0.950 . S
C648 N643 1.307 . S
C648 C647 1.370 . S
C648 H666 0.948 . S
Zn649 N643 2.020 . S
Zn649 O658 2.039 . S
Zn649 O664 2.034 . S
Zn649 O668 2.025 . S
Zn649 O670 2.024 . S
C650 O669 1.246 . S
C650 O670 1.249 . S
N651 C652 1.307 . S
N651 C653 1.333 . S
N651 Zn657 2.020 . S
C652 N651 1.307 . S
C652 C656 1.370 . S
C652 H663 0.948 . S
C653 N651 1.333 . S
C653 C654 1.379 . S
C653 H661 0.952 . S
C654 C653 1.379 . S
C654 C655 1.390 . S
C654 H674 0.949 . S
C655 C654 1.390 . S
C655 C656 1.357 . S
C656 C652 1.370 . S
C656 C655 1.357 . S
C656 H675 0.950 . S
Zn657 N651 2.020 . S
Zn657 O660 2.025 . S
Zn657 O665 2.024 . S
Zn657 O667 2.039 . S
Zn657 O669 2.034 . S
O658 C642 1.251 . S
O658 Zn649 2.039 . S
C659 O664 1.246 . S
C659 O665 1.249 . S
O660 C642 1.254 . S
O660 Zn657 2.025 . S
H661 C653 0.952 . S
H662 C644 0.952 . S
H663 C652 0.948 . S
O664 Zn649 2.034 . S
O664 C659 1.246 . S
O665 Zn657 2.024 . S
O665 C659 1.249 . S
H666 C648 0.948 . S
O667 Zn657 2.039 . S
O667 C671 1.251 . S
O668 Zn649 2.025 . S
O668 C671 1.254 . S
O669 C650 1.246 . S
O669 Zn657 2.034 . S
O670 Zn649 2.024 . S
O670 C650 1.249 . S
C671 O667 1.251 . S
C671 O668 1.254 . S
H672 C645 0.949 . S
H673 C647 0.950 . S
H674 C654 0.949 . S
H675 C656 0.950 . S
C676 O692 1.251 . S
C676 O694 1.254 . S
N677 C678 1.333 . S
N677 C682 1.307 . S
N677 Zn683 2.020 . S
C678 N677 1.333 . S
C678 C679 1.379 . S
C678 H696 0.952 . S
C679 C678 1.379 . S
C679 C680 1.390 . S
C679 H706 0.949 . S
C680 C679 1.390 . S
C680 C681 1.357 . S
C681 C680 1.357 . S
C681 C682 1.370 . S
C681 H707 0.950 . S
C682 N677 1.307 . S
C682 C681 1.370 . S
C682 H700 0.948 . S
Zn683 N677 2.020 . S
Zn683 O692 2.039 . S
Zn683 O698 2.034 . S
Zn683 O702 2.025 . S
Zn683 O704 2.024 . S
C684 O703 1.246 . S
C684 O704 1.249 . S
N685 C686 1.307 1_455 S
N685 C687 1.333 . S
N685 Zn691 2.020 . S
C686 N685 1.307 1_655 S
C686 C690 1.370 . S
C686 H697 0.948 . S
C687 N685 1.333 . S
C687 C688 1.379 . S
C687 H695 0.952 . S
C688 C687 1.379 . S
C688 C689 1.390 1_455 S
C688 H708 0.949 . S
C689 C688 1.390 1_655 S
C689 C690 1.357 . S
C690 C686 1.370 . S
C690 C689 1.357 . S
C690 H709 0.950 . S
Zn691 N685 2.020 . S
Zn691 O694 2.025 . S
Zn691 O699 2.024 1_455 S
Zn691 O701 2.039 . S
Zn691 O703 2.034 . S
O692 C676 1.251 . S
O692 Zn683 2.039 . S
C693 O698 1.246 1_655 S
C693 O699 1.249 . S
O694 C676 1.254 . S
O694 Zn691 2.025 . S
H695 C687 0.952 . S
H696 C678 0.952 . S
H697 C686 0.948 . S
O698 Zn683 2.034 . S
O698 C693 1.246 1_455 S
O699 Zn691 2.024 1_655 S
O699 C693 1.249 . S
H700 C682 0.948 . S
O701 Zn691 2.039 . S
O701 C705 1.251 . S
O702 Zn683 2.025 . S
O702 C705 1.254 . S
O703 C684 1.246 . S
O703 Zn691 2.034 . S
O704 Zn683 2.024 . S
O704 C684 1.249 . S
C705 O701 1.251 . S
C705 O702 1.254 . S
H706 C679 0.949 . S
H707 C681 0.950 . S
H708 C688 0.949 . S
H709 C690 0.950 . S
C710 O726 1.251 . S
C710 O728 1.254 . S
N711 C712 1.333 . S
N711 C716 1.307 . S
N711 Zn717 2.020 . S
C712 N711 1.333 . S
C712 C713 1.379 . S
C712 H730 0.952 . S
C713 C712 1.379 . S
C713 C714 1.390 . S
C713 H740 0.949 . S
C714 C713 1.390 . S
C714 C715 1.357 . S
C715 C714 1.357 . S
C715 C716 1.370 . S
C715 H741 0.950 . S
C716 N711 1.307 . S
C716 C715 1.370 . S
C716 H734 0.948 . S
Zn717 N711 2.020 . S
Zn717 O726 2.039 . S
Zn717 O732 2.034 . S
Zn717 O736 2.025 . S
Zn717 O738 2.024 . S
C718 O737 1.246 . S
C718 O738 1.249 . S
N719 C720 1.307 . S
N719 C721 1.333 . S
N719 Zn725 2.020 . S
C720 N719 1.307 . S
C720 C724 1.370 . S
C720 H731 0.948 . S
C721 N719 1.333 . S
C721 C722 1.379 . S
C721 H729 0.952 . S
C722 C721 1.379 . S
C722 C723 1.390 . S
C722 H742 0.949 . S
C723 C722 1.390 . S
C723 C724 1.357 . S
C724 C720 1.370 . S
C724 C723 1.357 . S
C724 H743 0.950 . S
Zn725 N719 2.020 . S
Zn725 O728 2.025 . S
Zn725 O733 2.024 . S
Zn725 O735 2.039 . S
Zn725 O737 2.034 . S
O726 C710 1.251 . S
O726 Zn717 2.039 . S
C727 O732 1.246 . S
C727 O733 1.249 . S
O728 C710 1.254 . S
O728 Zn725 2.025 . S
H729 C721 0.952 . S
H730 C712 0.952 . S
H731 C720 0.948 . S
O732 Zn717 2.034 . S
O732 C727 1.246 . S
O733 Zn725 2.024 . S
O733 C727 1.249 . S
H734 C716 0.948 . S
O735 Zn725 2.039 . S
O735 C739 1.251 . S
O736 Zn717 2.025 . S
O736 C739 1.254 . S
O737 C718 1.246 . S
O737 Zn725 2.034 . S
O738 Zn717 2.024 . S
O738 C718 1.249 . S
C739 O735 1.251 . S
C739 O736 1.254 . S
H740 C713 0.949 . S
H741 C715 0.950 . S
H742 C722 0.949 . S
H743 C724 0.950 . S
C744 O760 1.251 . S
C744 O762 1.254 . S
N745 C746 1.333 . S
N745 C750 1.307 . S
N745 Zn751 2.020 . S
C746 N745 1.333 . S
C746 C747 1.379 . S
C746 H764 0.952 . S
C747 C746 1.379 . S
C747 C748 1.390 . S
C747 H774 0.949 . S
C748 C747 1.390 . S
C748 C749 1.357 . S
C749 C748 1.357 . S
C749 C750 1.370 . S
C749 H775 0.950 . S
C750 N745 1.307 . S
C750 C749 1.370 . S
C750 H768 0.948 . S
Zn751 N745 2.020 . S
Zn751 O760 2.039 . S
Zn751 O766 2.034 . S
Zn751 O770 2.025 . S
Zn751 O772 2.024 . S
C752 O771 1.246 . S
C752 O772 1.249 . S
N753 C754 1.307 . S
N753 C755 1.333 . S
N753 Zn759 2.020 . S
C754 N753 1.307 . S
C754 C758 1.370 . S
C754 H765 0.948 . S
C755 N753 1.333 . S
C755 C756 1.379 . S
C755 H763 0.952 . S
C756 C755 1.379 . S
C756 C757 1.390 . S
C756 H776 0.949 . S
C757 C756 1.390 . S
C757 C758 1.357 . S
C758 C754 1.370 . S
C758 C757 1.357 . S
C758 H777 0.950 . S
Zn759 N753 2.020 . S
Zn759 O762 2.025 . S
Zn759 O767 2.024 . S
Zn759 O769 2.039 . S
Zn759 O771 2.034 . S
O760 C744 1.251 . S
O760 Zn751 2.039 . S
C761 O766 1.246 . S
C761 O767 1.249 . S
O762 C744 1.254 . S
O762 Zn759 2.025 . S
H763 C755 0.952 . S
H764 C746 0.952 . S
H765 C754 0.948 . S
O766 Zn751 2.034 . S
O766 C761 1.246 . S
O767 Zn759 2.024 . S
O767 C761 1.249 . S
H768 C750 0.948 . S
O769 Zn759 2.039 . S
O769 C773 1.251 . S
O770 Zn751 2.025 . S
O770 C773 1.254 . S
O771 C752 1.246 . S
O771 Zn759 2.034 . S
O772 Zn751 2.024 . S
O772 C752 1.249 . S
C773 O769 1.251 . S
C773 O770 1.254 . S
H774 C747 0.949 . S
H775 C749 0.950 . S
H776 C756 0.949 . S
H777 C758 0.950 . S
C778 O794 1.251 . S
C778 O796 1.254 . S
N779 C780 1.333 . S
N779 C784 1.307 . S
N779 Zn785 2.020 . S
C780 N779 1.333 . S
C780 C781 1.379 . S
C780 H798 0.952 . S
C781 C780 1.379 . S
C781 C782 1.390 . S
C781 H808 0.949 . S
C782 C781 1.390 . S
C782 C783 1.357 . S
C783 C782 1.357 . S
C783 C784 1.370 . S
C783 H809 0.950 . S
C784 N779 1.307 . S
C784 C783 1.370 . S
C784 H802 0.948 . S
Zn785 N779 2.020 . S
Zn785 O794 2.039 . S
Zn785 O800 2.034 . S
Zn785 O804 2.025 . S
Zn785 O806 2.024 . S
C786 O805 1.246 . S
C786 O806 1.249 . S
N787 C788 1.307 . S
N787 C789 1.333 . S
N787 Zn793 2.020 . S
C788 N787 1.307 . S
C788 C792 1.370 . S
C788 H799 0.948 . S
C789 N787 1.333 . S
C789 C790 1.379 . S
C789 H797 0.952 . S
C790 C789 1.379 . S
C790 C791 1.390 . S
C790 H810 0.949 . S
C791 C790 1.390 . S
C791 C792 1.357 . S
C792 C788 1.370 . S
C792 C791 1.357 . S
C792 H811 0.950 . S
Zn793 N787 2.020 . S
Zn793 O796 2.025 . S
Zn793 O801 2.024 . S
Zn793 O803 2.039 . S
Zn793 O805 2.034 . S
O794 C778 1.251 . S
O794 Zn785 2.039 . S
C795 O800 1.246 . S
C795 O801 1.249 . S
O796 C778 1.254 . S
O796 Zn793 2.025 . S
H797 C789 0.952 . S
H798 C780 0.952 . S
H799 C788 0.948 . S
O800 Zn785 2.034 . S
O800 C795 1.246 . S
O801 Zn793 2.024 . S
O801 C795 1.249 . S
H802 C784 0.948 . S
O803 Zn793 2.039 . S
O803 C807 1.251 . S
O804 Zn785 2.025 . S
O804 C807 1.254 . S
O805 C786 1.246 . S
O805 Zn793 2.034 . S
O806 Zn785 2.024 . S
O806 C786 1.249 . S
C807 O803 1.251 . S
C807 O804 1.254 . S
H808 C781 0.949 . S
H809 C783 0.950 . S
H810 C790 0.949 . S
H811 C792 0.950 . S
C812 O828 1.251 . S
C812 O830 1.254 . S
N813 C814 1.333 . S
N813 C818 1.307 . S
N813 Zn819 2.020 . S
C814 N813 1.333 . S
C814 C815 1.379 . S
C814 H832 0.952 . S
C815 C814 1.379 . S
C815 C816 1.390 . S
C815 H842 0.949 . S
C816 C815 1.390 . S
C816 C817 1.357 . S
C817 C816 1.357 . S
C817 C818 1.370 . S
C817 H843 0.950 . S
C818 N813 1.307 . S
C818 C817 1.370 . S
C818 H836 0.948 . S
Zn819 N813 2.020 . S
Zn819 O828 2.039 . S
Zn819 O834 2.034 . S
Zn819 O838 2.025 . S
Zn819 O840 2.024 . S
C820 O839 1.246 . S
C820 O840 1.249 . S
N821 C822 1.307 . S
N821 C823 1.333 . S
N821 Zn827 2.020 . S
C822 N821 1.307 . S
C822 C826 1.370 . S
C822 H833 0.948 . S
C823 N821 1.333 . S
C823 C824 1.379 . S
C823 H831 0.952 . S
C824 C823 1.379 . S
C824 C825 1.390 . S
C824 H844 0.949 . S
C825 C824 1.390 . S
C825 C826 1.357 . S
C826 C822 1.370 . S
C826 C825 1.357 . S
C826 H845 0.950 . S
Zn827 N821 2.020 . S
Zn827 O830 2.025 . S
Zn827 O835 2.024 . S
Zn827 O837 2.039 . S
Zn827 O839 2.034 . S
O828 C812 1.251 . S
O828 Zn819 2.039 . S
C829 O834 1.246 . S
C829 O835 1.249 . S
O830 C812 1.254 . S
O830 Zn827 2.025 . S
H831 C823 0.952 . S
H832 C814 0.952 . S
H833 C822 0.948 . S
O834 Zn819 2.034 . S
O834 C829 1.246 . S
O835 Zn827 2.024 . S
O835 C829 1.249 . S
H836 C818 0.948 . S
O837 Zn827 2.039 . S
O837 C841 1.251 . S
O838 Zn819 2.025 . S
O838 C841 1.254 . S
O839 C820 1.246 . S
O839 Zn827 2.034 . S
O840 Zn819 2.024 . S
O840 C820 1.249 . S
C841 O837 1.251 . S
C841 O838 1.254 . S
H842 C815 0.949 . S
H843 C817 0.950 . S
H844 C824 0.949 . S
H845 C826 0.950 . S
C846 O862 1.251 . S
C846 O864 1.254 . S
N847 C848 1.333 . S
N847 C852 1.307 . S
N847 Zn853 2.020 . S
C848 N847 1.333 . S
C848 C849 1.379 . S
C848 H866 0.952 . S
C849 C848 1.379 . S
C849 C850 1.390 . S
C849 H876 0.949 . S
C850 C849 1.390 . S
C850 C851 1.357 . S
C851 C850 1.357 . S
C851 C852 1.370 . S
C851 H877 0.950 . S
C852 N847 1.307 . S
C852 C851 1.370 . S
C852 H870 0.948 . S
Zn853 N847 2.020 . S
Zn853 O862 2.039 . S
Zn853 O868 2.034 . S
Zn853 O872 2.023 . S
Zn853 O874 2.024 . S
C854 O873 1.246 . S
C854 O874 1.249 1_655 S
N855 C856 1.307 . S
N855 C857 1.333 1_554 S
N855 Zn861 2.020 . S
C856 N855 1.307 . S
C856 C860 1.370 . S
C856 H867 0.948 . S
C857 N855 1.333 1_556 S
C857 C858 1.392 . S
C857 H865 0.952 . S
C858 C857 1.392 . S
C858 C859 1.383 1_455 S
C858 H878 0.942 1_455 S
C859 C858 1.383 1_655 S
C859 C860 1.346 1_656 S
C860 C856 1.370 . S
C860 C859 1.346 1_454 S
C860 H879 0.950 . S
Zn861 N855 2.020 . S
Zn861 O864 2.025 . S
Zn861 O869 2.024 . S
Zn861 O871 2.039 1_554 S
Zn861 O873 2.034 1_455 S
O862 C846 1.251 . S
O862 Zn853 2.039 . S
C863 O868 1.246 . S
C863 O869 1.249 . S
O864 C846 1.254 . S
O864 Zn861 2.025 . S
H865 C857 0.952 . S
H866 C848 0.952 . S
H867 C856 0.948 . S
O868 Zn853 2.034 . S
O868 C863 1.246 . S
O869 Zn861 2.024 . S
O869 C863 1.249 . S
H870 C852 0.948 . S
O871 Zn861 2.039 1_556 S
O871 C875 1.251 . S
O872 Zn853 2.023 . S
O872 C875 1.256 1_554 S
O873 C854 1.246 . S
O873 Zn861 2.034 1_655 S
O874 Zn853 2.024 . S
O874 C854 1.249 1_455 S
C875 O871 1.251 . S
C875 O872 1.256 1_556 S
H876 C849 0.949 . S
H877 C851 0.950 . S
H878 C858 0.942 1_655 S
H879 C860 0.950 . S
C880 C881 1.391 . S
C880 C882 1.394 . S
C880 H896 0.931 . S
C881 C880 1.391 . S
C881 C885 1.376 . S
C882 C880 1.394 . S
C882 C883 1.369 . S
C882 C886 1.531 . S
C883 C882 1.369 . S
C883 C884 1.410 . S
C883 C891 1.503 . S
C884 C883 1.410 . S
C884 C885 1.392 . S
C884 C887 1.511 . S
C885 C881 1.376 . S
C885 C884 1.392 . S
C885 H897 0.929 . S
C886 C882 1.531 . S
C886 H898 0.960 . S
C886 H899 0.962 1_455 S
C886 H900 0.960 . S
C887 C884 1.511 . S
C887 H901 0.961 . S
C887 H902 0.961 . S
C887 H903 0.961 . S
C888 C889 1.370 . S
C888 C890 1.363 . S
C888 H904 0.931 . S
C889 C888 1.370 . S
C889 C893 1.408 . S
C890 C888 1.363 . S
C890 C891 1.370 . S
C890 C894 1.524 . S
C891 C883 1.503 . S
C891 C890 1.370 . S
C891 C892 1.403 . S
C892 C891 1.403 . S
C892 C893 1.404 . S
C892 C895 1.539 . S
C893 C889 1.408 . S
C893 C892 1.404 . S
C893 H905 0.930 . S
C894 C890 1.524 . S
C894 H906 0.956 . S
C894 H907 0.961 . S
C894 H908 0.961 . S
C895 C892 1.539 . S
C895 H909 0.958 . S
C895 H910 0.961 . S
C895 H911 0.960 . S
H896 C880 0.931 . S
H897 C885 0.929 . S
H898 C886 0.960 . S
H899 C886 0.962 1_655 S
H900 C886 0.960 . S
H901 C887 0.961 . S
H902 C887 0.961 . S
H903 C887 0.961 . S
H904 C888 0.931 . S
H905 C893 0.930 . S
H906 C894 0.956 . S
H907 C894 0.961 . S
H908 C894 0.961 . S
H909 C895 0.958 . S
H910 C895 0.961 . S
H911 C895 0.960 . S
C912 C913 1.391 . S
C912 C914 1.394 . S
C912 H928 0.931 . S
C913 C912 1.391 . S
C913 C917 1.376 . S
C914 C912 1.394 . S
C914 C915 1.369 . S
C914 C918 1.531 . S
C915 C914 1.369 . S
C915 C916 1.410 . S
C915 C923 1.503 . S
C916 C915 1.410 . S
C916 C917 1.392 . S
C916 C919 1.511 . S
C917 C913 1.376 . S
C917 C916 1.392 . S
C917 H929 0.929 . S
C918 C914 1.531 . S
C918 H930 0.960 . S
C918 H931 0.962 . S
C918 H932 0.960 . S
C919 C916 1.511 . S
C919 H933 0.961 . S
C919 H934 0.961 . S
C919 H935 0.961 . S
C920 C921 1.370 . S
C920 C922 1.363 . S
C920 H936 0.931 . S
C921 C920 1.370 . S
C921 C925 1.408 . S
C922 C920 1.363 . S
C922 C923 1.370 . S
C922 C926 1.524 . S
C923 C915 1.503 . S
C923 C922 1.370 . S
C923 C924 1.403 . S
C924 C923 1.403 . S
C924 C925 1.404 . S
C924 C927 1.539 . S
C925 C921 1.408 . S
C925 C924 1.404 . S
C925 H937 0.930 . S
C926 C922 1.524 . S
C926 H938 0.956 . S
C926 H939 0.961 . S
C926 H940 0.961 . S
C927 C924 1.539 . S
C927 H941 0.958 . S
C927 H942 0.961 . S
C927 H943 0.960 . S
H928 C912 0.931 . S
H929 C917 0.929 . S
H930 C918 0.960 . S
H931 C918 0.962 . S
H932 C918 0.960 . S
H933 C919 0.961 . S
H934 C919 0.961 . S
H935 C919 0.961 . S
H936 C920 0.931 . S
H937 C925 0.930 . S
H938 C926 0.956 . S
H939 C926 0.961 . S
H940 C926 0.961 . S
H941 C927 0.958 . S
H942 C927 0.961 . S
H943 C927 0.960 . S
C944 C945 1.391 . S
C944 C946 1.394 . S
C944 H960 0.931 . S
C945 C944 1.391 . S
C945 C949 1.376 . S
C946 C944 1.394 . S
C946 C947 1.369 . S
C946 C950 1.531 . S
C947 C946 1.369 . S
C947 C948 1.410 . S
C947 C955 1.503 . S
C948 C947 1.410 . S
C948 C949 1.392 . S
C948 C951 1.511 . S
C949 C945 1.376 . S
C949 C948 1.392 . S
C949 H961 0.929 . S
C950 C946 1.531 . S
C950 H962 0.960 . S
C950 H963 0.962 . S
C950 H964 0.960 . S
C951 C948 1.511 . S
C951 H965 0.961 . S
C951 H966 0.961 . S
C951 H967 0.961 . S
C952 C953 1.370 . S
C952 C954 1.363 . S
C952 H968 0.931 . S
C953 C952 1.370 . S
C953 C957 1.408 . S
C954 C952 1.363 . S
C954 C955 1.370 . S
C954 C958 1.524 . S
C955 C947 1.503 . S
C955 C954 1.370 . S
C955 C956 1.403 . S
C956 C955 1.403 . S
C956 C957 1.404 . S
C956 C959 1.539 . S
C957 C953 1.408 . S
C957 C956 1.404 . S
C957 H969 0.930 . S
C958 C954 1.524 . S
C958 H970 0.956 . S
C958 H971 0.961 . S
C958 H972 0.961 . S
C959 C956 1.539 . S
C959 H973 0.958 . S
C959 H974 0.961 . S
C959 H975 0.960 . S
H960 C944 0.931 . S
H961 C949 0.929 . S
H962 C950 0.960 . S
H963 C950 0.962 . S
H964 C950 0.960 . S
H965 C951 0.961 . S
H966 C951 0.961 . S
H967 C951 0.961 . S
H968 C952 0.931 . S
H969 C957 0.930 . S
H970 C958 0.956 . S
H971 C958 0.961 . S
H972 C958 0.961 . S
H973 C959 0.958 . S
H974 C959 0.961 . S
H975 C959 0.960 . S
C976 C977 1.391 . S
C976 C978 1.394 . S
C976 H992 0.931 . S
C977 C976 1.391 . S
C977 C981 1.376 . S
C978 C976 1.394 . S
C978 C979 1.369 . S
C978 C982 1.531 . S
C979 C978 1.369 . S
C979 C980 1.410 . S
C979 C987 1.503 . S
C980 C979 1.410 . S
C980 C981 1.392 . S
C980 C983 1.511 . S
C981 C977 1.376 . S
C981 C980 1.392 . S
C981 H993 0.929 . S
C982 C978 1.531 . S
C982 H994 0.960 . S
C982 H995 0.962 . S
C982 H996 0.960 . S
C983 C980 1.511 . S
C983 H997 0.961 . S
C983 H998 0.961 . S
C983 H999 0.961 . S
C984 C985 1.370 . S
C984 C986 1.363 . S
C984 H1000 0.931 . S
C985 C984 1.370 . S
C985 C989 1.408 . S
C986 C984 1.363 . S
C986 C987 1.370 . S
C986 C990 1.524 . S
C987 C979 1.503 . S
C987 C986 1.370 . S
C987 C988 1.403 . S
C988 C987 1.403 . S
C988 C989 1.404 . S
C988 C991 1.539 . S
C989 C985 1.408 . S
C989 C988 1.404 . S
C989 H1001 0.930 . S
C990 C986 1.524 . S
C990 H1002 0.956 . S
C990 H1003 0.961 . S
C990 H1004 0.961 . S
C991 C988 1.539 . S
C991 H1005 0.958 . S
C991 H1006 0.961 . S
C991 H1007 0.960 . S
H992 C976 0.931 . S
H993 C981 0.929 . S
H994 C982 0.960 . S
H995 C982 0.962 . S
H996 C982 0.960 . S
H997 C983 0.961 . S
H998 C983 0.961 . S
H999 C983 0.961 . S
H1000 C984 0.931 . S
H1001 C989 0.930 . S
H1002 C990 0.956 . S
H1003 C990 0.961 . S
H1004 C990 0.961 . S
H1005 C991 0.958 . S
H1006 C991 0.961 . S
H1007 C991 0.960 . S
C1008 C1009 1.391 . S
C1008 C1010 1.394 . S
C1008 H1024 0.931 . S
C1009 C1008 1.391 . S
C1009 C1013 1.376 . S
C1010 C1008 1.394 . S
C1010 C1011 1.369 . S
C1010 C1014 1.531 . S
C1011 C1010 1.369 . S
C1011 C1012 1.410 . S
C1011 C1019 1.503 . S
C1012 C1011 1.410 . S
C1012 C1013 1.392 . S
C1012 C1015 1.511 . S
C1013 C1009 1.376 . S
C1013 C1012 1.392 . S
C1013 H1025 0.929 . S
C1014 C1010 1.531 . S
C1014 H1026 0.960 . S
C1014 H1027 0.962 . S
C1014 H1028 0.960 . S
C1015 C1012 1.511 . S
C1015 H1029 0.961 . S
C1015 H1030 0.961 . S
C1015 H1031 0.961 . S
C1016 C1017 1.370 . S
C1016 C1018 1.363 . S
C1016 H1032 0.931 . S
C1017 C1016 1.370 . S
C1017 C1021 1.408 1_455 S
C1018 C1016 1.363 . S
C1018 C1019 1.370 . S
C1018 C1022 1.524 . S
C1019 C1011 1.503 . S
C1019 C1018 1.370 . S
C1019 C1020 1.403 1_455 S
C1020 C1019 1.403 1_655 S
C1020 C1021 1.404 . S
C1020 C1023 1.539 . S
C1021 C1017 1.408 1_655 S
C1021 C1020 1.404 . S
C1021 H1033 0.930 . S
C1022 C1018 1.524 . S
C1022 H1034 0.956 . S
C1022 H1035 0.961 . S
C1022 H1036 0.961 . S
C1023 C1020 1.539 . S
C1023 H1037 0.958 . S
C1023 H1038 0.961 . S
C1023 H1039 0.960 . S
H1024 C1008 0.931 . S
H1025 C1013 0.929 . S
H1026 C1014 0.960 . S
H1027 C1014 0.962 . S
H1028 C1014 0.960 . S
H1029 C1015 0.961 . S
H1030 C1015 0.961 . S
H1031 C1015 0.961 . S
H1032 C1016 0.931 . S
H1033 C1021 0.930 . S
H1034 C1022 0.956 . S
H1035 C1022 0.961 . S
H1036 C1022 0.961 . S
H1037 C1023 0.958 . S
H1038 C1023 0.961 . S
H1039 C1023 0.960 . S
C1040 C1041 1.391 . S
C1040 C1042 1.394 . S
C1040 H1056 0.931 . S
C1041 C1040 1.391 . S
C1041 C1045 1.376 . S
C1042 C1040 1.394 . S
C1042 C1043 1.369 . S
C1042 C1046 1.531 . S
C1043 C1042 1.369 . S
C1043 C1044 1.410 . S
C1043 C1051 1.503 . S
C1044 C1043 1.410 . S
C1044 C1045 1.392 . S
C1044 C1047 1.511 . S
C1045 C1041 1.376 . S
C1045 C1044 1.392 . S
C1045 H1057 0.929 . S
C1046 C1042 1.531 . S
C1046 H1058 0.960 . S
C1046 H1059 0.962 . S
C1046 H1060 0.960 . S
C1047 C1044 1.511 . S
C1047 H1061 0.961 . S
C1047 H1062 0.961 . S
C1047 H1063 0.961 . S
C1048 C1049 1.370 . S
C1048 C1050 1.363 . S
C1048 H1064 0.931 . S
C1049 C1048 1.370 . S
C1049 C1053 1.408 . S
C1050 C1048 1.363 . S
C1050 C1051 1.370 . S
C1050 C1054 1.524 . S
C1051 C1043 1.503 . S
C1051 C1050 1.370 . S
C1051 C1052 1.403 . S
C1052 C1051 1.403 . S
C1052 C1053 1.404 . S
C1052 C1055 1.539 . S
C1053 C1049 1.408 . S
C1053 C1052 1.404 . S
C1053 H1065 0.930 . S
C1054 C1050 1.524 . S
C1054 H1066 0.956 . S
C1054 H1067 0.961 . S
C1054 H1068 0.961 . S
C1055 C1052 1.539 . S
C1055 H1069 0.958 . S
C1055 H1070 0.961 . S
C1055 H1071 0.960 . S
H1056 C1040 0.931 . S
H1057 C1045 0.929 . S
H1058 C1046 0.960 . S
H1059 C1046 0.962 . S
H1060 C1046 0.960 . S
H1061 C1047 0.961 . S
H1062 C1047 0.961 . S
H1063 C1047 0.961 . S
H1064 C1048 0.931 . S
H1065 C1053 0.930 . S
H1066 C1054 0.956 . S
H1067 C1054 0.961 . S
H1068 C1054 0.961 . S
H1069 C1055 0.958 . S
H1070 C1055 0.961 . S
H1071 C1055 0.960 . S
C1072 C1073 1.391 . S
C1072 C1074 1.394 . S
C1072 H1088 0.931 . S
C1073 C1072 1.391 . S
C1073 C1077 1.376 . S
C1074 C1072 1.394 . S
C1074 C1075 1.369 . S
C1074 C1078 1.531 . S
C1075 C1074 1.369 . S
C1075 C1076 1.410 . S
C1075 C1083 1.503 . S
C1076 C1075 1.410 . S
C1076 C1077 1.392 . S
C1076 C1079 1.511 . S
C1077 C1073 1.376 . S
C1077 C1076 1.392 . S
C1077 H1089 0.929 . S
C1078 C1074 1.531 . S
C1078 H1090 0.960 . S
C1078 H1091 0.962 . S
C1078 H1092 0.960 . S
C1079 C1076 1.511 . S
C1079 H1093 0.961 . S
C1079 H1094 0.961 . S
C1079 H1095 0.961 . S
C1080 C1081 1.370 . S
C1080 C1082 1.363 . S
C1080 H1096 0.931 . S
C1081 C1080 1.370 . S
C1081 C1085 1.408 1_556 S
C1082 C1080 1.363 . S
C1082 C1083 1.370 . S
C1082 C1086 1.524 . S
C1083 C1075 1.503 . S
C1083 C1082 1.370 . S
C1083 C1084 1.403 . S
C1084 C1083 1.403 . S
C1084 C1085 1.404 1_556 S
C1084 C1087 1.539 1_556 S
C1085 C1081 1.408 1_554 S
C1085 C1084 1.404 1_554 S
C1085 H1097 0.930 . S
C1086 C1082 1.524 . S
C1086 H1098 0.956 . S
C1086 H1099 0.961 . S
C1086 H1100 0.961 . S
C1087 C1084 1.539 1_554 S
C1087 H1101 0.958 . S
C1087 H1102 0.961 . S
C1087 H1103 0.960 1_554 S
H1088 C1072 0.931 . S
H1089 C1077 0.929 . S
H1090 C1078 0.960 . S
H1091 C1078 0.962 . S
H1092 C1078 0.960 . S
H1093 C1079 0.961 . S
H1094 C1079 0.961 . S
H1095 C1079 0.961 . S
H1096 C1080 0.931 . S
H1097 C1085 0.930 . S
H1098 C1086 0.956 . S
H1099 C1086 0.961 . S
H1100 C1086 0.961 . S
H1101 C1087 0.958 . S
H1102 C1087 0.961 . S
H1103 C1087 0.960 1_556 S
C1104 C1105 1.391 . S
C1104 C1106 1.394 . S
C1104 H1120 0.931 . S
C1105 C1104 1.391 . S
C1105 C1109 1.376 . S
C1106 C1104 1.394 . S
C1106 C1107 1.369 . S
C1106 C1110 1.531 . S
C1107 C1106 1.369 . S
C1107 C1108 1.410 . S
C1107 C1115 1.503 . S
C1108 C1107 1.410 . S
C1108 C1109 1.392 . S
C1108 C1111 1.511 . S
C1109 C1105 1.376 . S
C1109 C1108 1.392 . S
C1109 H1121 0.929 . S
C1110 C1106 1.531 . S
C1110 H1122 0.960 . S
C1110 H1123 0.962 . S
C1110 H1124 0.960 . S
C1111 C1108 1.511 . S
C1111 H1125 0.961 . S
C1111 H1126 0.961 . S
C1111 H1127 0.961 . S
C1112 C1113 1.370 . S
C1112 C1114 1.363 . S
C1112 H1128 0.931 . S
C1113 C1112 1.370 . S
C1113 C1117 1.408 . S
C1114 C1112 1.363 . S
C1114 C1115 1.370 . S
C1114 C1118 1.524 . S
C1115 C1107 1.503 . S
C1115 C1114 1.370 . S
C1115 C1116 1.403 . S
C1116 C1115 1.403 . S
C1116 C1117 1.404 . S
C1116 C1119 1.539 . S
C1117 C1113 1.408 . S
C1117 C1116 1.404 . S
C1117 H1129 0.930 . S
C1118 C1114 1.524 . S
C1118 H1130 0.956 . S
C1118 H1131 0.961 . S
C1118 H1132 0.961 . S
C1119 C1116 1.539 . S
C1119 H1133 0.958 . S
C1119 H1134 0.961 . S
C1119 H1135 0.960 . S
H1120 C1104 0.931 . S
H1121 C1109 0.929 . S
H1122 C1110 0.960 . S
H1123 C1110 0.962 . S
H1124 C1110 0.960 . S
H1125 C1111 0.961 . S
H1126 C1111 0.961 . S
H1127 C1111 0.961 . S
H1128 C1112 0.931 . S
H1129 C1117 0.930 . S
H1130 C1118 0.956 . S
H1131 C1118 0.961 . S
H1132 C1118 0.961 . S
H1133 C1119 0.958 . S
H1134 C1119 0.961 . S
H1135 C1119 0.960 . S
C1136 C1137 1.391 . S
C1136 C1138 1.394 . S
C1136 H1152 0.931 . S
C1137 C1136 1.391 . S
C1137 C1141 1.376 . S
C1138 C1136 1.394 . S
C1138 C1139 1.369 . S
C1138 C1142 1.531 . S
C1139 C1138 1.369 . S
C1139 C1140 1.410 . S
C1139 C1147 1.503 . S
C1140 C1139 1.410 . S
C1140 C1141 1.392 . S
C1140 C1143 1.511 1_545 S
C1141 C1137 1.376 . S
C1141 C1140 1.392 . S
C1141 H1153 0.941 . S
C1142 C1138 1.531 . S
C1142 H1154 0.960 . S
C1142 H1155 0.962 . S
C1142 H1156 0.960 . S
C1143 C1140 1.511 1_565 S
C1143 H1157 0.961 . S
C1143 H1158 0.961 . S
C1143 H1159 0.961 1_565 S
C1144 C1145 1.370 . S
C1144 C1146 1.363 . S
C1144 H1160 0.931 . S
C1145 C1144 1.370 . S
C1145 C1149 1.408 1_565 S
C1146 C1144 1.363 . S
C1146 C1147 1.370 1_565 S
C1146 C1150 1.524 . S
C1147 C1139 1.503 . S
C1147 C1146 1.370 1_545 S
C1147 C1148 1.403 . S
C1148 C1147 1.403 . S
C1148 C1149 1.404 . S
C1148 C1151 1.539 . S
C1149 C1145 1.408 1_545 S
C1149 C1148 1.404 . S
C1149 H1161 0.930 . S
C1150 C1146 1.524 . S
C1150 H1162 0.956 . S
C1150 H1163 0.961 . S
C1150 H1164 0.961 . S
C1151 C1148 1.539 . S
C1151 H1165 0.958 . S
C1151 H1166 0.961 . S
C1151 H1167 0.960 . S
H1152 C1136 0.931 . S
H1153 C1141 0.941 . S
H1154 C1142 0.960 . S
H1155 C1142 0.962 . S
H1156 C1142 0.960 . S
H1157 C1143 0.961 . S
H1158 C1143 0.961 . S
H1159 C1143 0.961 1_545 S
H1160 C1144 0.931 . S
H1161 C1149 0.930 . S
H1162 C1150 0.956 . S
H1163 C1150 0.961 . S
H1164 C1150 0.961 . S
H1165 C1151 0.958 . S
H1166 C1151 0.961 . S
H1167 C1151 0.960 . S
C1168 C1169 1.391 . S
C1168 C1170 1.394 . S
C1168 H1184 0.931 . S
C1169 C1168 1.391 . S
C1169 C1173 1.376 . S
C1170 C1168 1.394 . S
C1170 C1171 1.369 . S
C1170 C1174 1.531 . S
C1171 C1170 1.369 . S
C1171 C1172 1.410 . S
C1171 C1179 1.503 . S
C1172 C1171 1.410 . S
C1172 C1173 1.392 . S
C1172 C1175 1.511 . S
C1173 C1169 1.376 . S
C1173 C1172 1.392 . S
C1173 H1185 0.929 . S
C1174 C1170 1.531 . S
C1174 H1186 0.960 . S
C1174 H1187 0.962 . S
C1174 H1188 0.960 . S
C1175 C1172 1.511 . S
C1175 H1189 0.961 . S
C1175 H1190 0.961 . S
C1175 H1191 0.961 . S
C1176 C1177 1.370 . S
C1176 C1178 1.363 . S
C1176 H1192 0.931 . S
C1177 C1176 1.370 . S
C1177 C1181 1.408 . S
C1178 C1176 1.363 . S
C1178 C1179 1.370 . S
C1178 C1182 1.524 . S
C1179 C1171 1.503 . S
C1179 C1178 1.370 . S
C1179 C1180 1.403 . S
C1180 C1179 1.403 . S
C1180 C1181 1.404 . S
C1180 C1183 1.539 . S
C1181 C1177 1.408 . S
C1181 C1180 1.404 . S
C1181 H1193 0.930 . S
C1182 C1178 1.524 . S
C1182 H1194 0.956 . S
C1182 H1195 0.961 . S
C1182 H1196 0.961 . S
C1183 C1180 1.539 . S
C1183 H1197 0.958 . S
C1183 H1198 0.961 . S
C1183 H1199 0.960 . S
H1184 C1168 0.931 . S
H1185 C1173 0.929 . S
H1186 C1174 0.960 . S
H1187 C1174 0.962 . S
H1188 C1174 0.960 . S
H1189 C1175 0.961 . S
H1190 C1175 0.961 . S
H1191 C1175 0.961 . S
H1192 C1176 0.931 . S
H1193 C1181 0.930 . S
H1194 C1182 0.956 . S
H1195 C1182 0.961 . S
H1196 C1182 0.961 . S
H1197 C1183 0.958 . S
H1198 C1183 0.961 . S
H1199 C1183 0.960 . S
C1200 C1201 1.391 . S
C1200 C1202 1.394 . S
C1200 H1216 0.931 . S
C1201 C1200 1.391 . S
C1201 C1205 1.367 1_545 S
C1202 C1200 1.394 . S
C1202 C1203 1.369 . S
C1202 C1206 1.531 . S
C1203 C1202 1.369 . S
C1203 C1204 1.410 . S
C1203 C1211 1.503 . S
C1204 C1203 1.410 . S
C1204 C1205 1.390 1_545 S
C1204 C1207 1.511 1_545 S
C1205 C1201 1.367 1_565 S
C1205 C1204 1.390 1_565 S
C1205 H1217 0.940 . S
C1206 C1202 1.531 . S
C1206 H1218 0.960 . S
C1206 H1219 0.962 . S
C1206 H1220 0.960 . S
C1207 C1204 1.511 1_565 S
C1207 H1221 0.961 . S
C1207 H1222 0.961 . S
C1207 H1223 0.961 . S
C1208 C1209 1.370 . S
C1208 C1210 1.363 . S
C1208 H1224 0.931 1_545 S
C1209 C1208 1.370 . S
C1209 C1213 1.408 . S
C1210 C1208 1.363 . S
C1210 C1211 1.370 . S
C1210 C1214 1.524 1_545 S
C1211 C1203 1.503 . S
C1211 C1210 1.370 . S
C1211 C1212 1.403 . S
C1212 C1211 1.403 . S
C1212 C1213 1.404 . S
C1212 C1215 1.539 . S
C1213 C1209 1.408 . S
C1213 C1212 1.404 . S
C1213 H1225 0.930 . S
C1214 C1210 1.524 1_565 S
C1214 H1226 0.956 . S
C1214 H1227 0.961 . S
C1214 H1228 0.961 . S
C1215 C1212 1.539 . S
C1215 H1229 0.958 . S
C1215 H1230 0.961 . S
C1215 H1231 0.960 . S
H1216 C1200 0.931 . S
H1217 C1205 0.940 . S
H1218 C1206 0.960 . S
H1219 C1206 0.962 . S
H1220 C1206 0.960 . S
H1221 C1207 0.961 . S
H1222 C1207 0.961 . S
H1223 C1207 0.961 . S
H1224 C1208 0.931 1_565 S
H1225 C1213 0.930 . S
H1226 C1214 0.956 . S
H1227 C1214 0.961 . S
H1228 C1214 0.961 . S
H1229 C1215 0.958 . S
H1230 C1215 0.961 . S
H1231 C1215 0.960 . S
C1232 C1233 1.391 . S
C1232 C1234 1.394 . S
C1232 H1248 0.931 . S
C1233 C1232 1.391 . S
C1233 C1237 1.376 . S
C1234 C1232 1.394 . S
C1234 C1235 1.369 . S
C1234 C1238 1.531 . S
C1235 C1234 1.369 . S
C1235 C1236 1.410 . S
C1235 C1243 1.503 . S
C1236 C1235 1.410 . S
C1236 C1237 1.392 . S
C1236 C1239 1.511 . S
C1237 C1233 1.376 . S
C1237 C1236 1.392 . S
C1237 H1249 0.929 . S
C1238 C1234 1.531 . S
C1238 H1250 0.960 . S
C1238 H1251 0.962 . S
C1238 H1252 0.960 . S
C1239 C1236 1.511 . S
C1239 H1253 0.961 . S
C1239 H1254 0.961 . S
C1239 H1255 0.961 . S
C1240 C1241 1.370 . S
C1240 C1242 1.363 . S
C1240 H1256 0.931 . S
C1241 C1240 1.370 . S
C1241 C1245 1.408 . S
C1242 C1240 1.363 . S
C1242 C1243 1.370 . S
C1242 C1246 1.524 . S
C1243 C1235 1.503 . S
C1243 C1242 1.370 . S
C1243 C1244 1.403 . S
C1244 C1243 1.403 . S
C1244 C1245 1.404 . S
C1244 C1247 1.539 . S
C1245 C1241 1.408 . S
C1245 C1244 1.404 . S
C1245 H1257 0.930 . S
C1246 C1242 1.524 . S
C1246 H1258 0.956 . S
C1246 H1259 0.961 . S
C1246 H1260 0.961 . S
C1247 C1244 1.539 . S
C1247 H1261 0.958 . S
C1247 H1262 0.961 . S
C1247 H1263 0.960 . S
H1248 C1232 0.931 . S
H1249 C1237 0.929 . S
H1250 C1238 0.960 . S
H1251 C1238 0.962 . S
H1252 C1238 0.960 . S
H1253 C1239 0.961 . S
H1254 C1239 0.961 . S
H1255 C1239 0.961 . S
H1256 C1240 0.931 . S
H1257 C1245 0.930 . S
H1258 C1246 0.956 . S
H1259 C1246 0.961 . S
H1260 C1246 0.961 . S
H1261 C1247 0.958 . S
H1262 C1247 0.961 . S
H1263 C1247 0.960 . S
C1264 C1265 1.391 . S
C1264 C1266 1.394 . S
C1264 H1280 0.931 . S
C1265 C1264 1.391 . S
C1265 C1269 1.376 . S
C1266 C1264 1.394 . S
C1266 C1267 1.369 . S
C1266 C1270 1.531 . S
C1267 C1266 1.369 . S
C1267 C1268 1.410 . S
C1267 C1275 1.503 . S
C1268 C1267 1.410 . S
C1268 C1269 1.392 . S
C1268 C1271 1.511 1_545 S
C1269 C1265 1.376 . S
C1269 C1268 1.392 . S
C1269 H1281 0.929 1_545 S
C1270 C1266 1.531 . S
C1270 H1282 0.960 . S
C1270 H1283 0.962 . S
C1270 H1284 0.960 . S
C1271 C1268 1.511 1_565 S
C1271 H1285 0.961 . S
C1271 H1286 0.961 . S
C1271 H1287 0.961 1_565 S
C1272 C1273 1.370 . S
C1272 C1274 1.363 . S
C1272 H1288 0.931 . S
C1273 C1272 1.370 . S
C1273 C1277 1.408 . S
C1274 C1272 1.363 . S
C1274 C1275 1.370 . S
C1274 C1278 1.524 . S
C1275 C1267 1.503 . S
C1275 C1274 1.370 . S
C1275 C1276 1.403 . S
C1276 C1275 1.403 . S
C1276 C1277 1.404 . S
C1276 C1279 1.539 . S
C1277 C1273 1.408 . S
C1277 C1276 1.404 . S
C1277 H1289 0.930 . S
C1278 C1274 1.524 . S
C1278 H1290 0.956 . S
C1278 H1291 0.961 1_545 S
C1278 H1292 0.961 . S
C1279 C1276 1.539 . S
C1279 H1293 0.958 . S
C1279 H1294 0.961 . S
C1279 H1295 0.960 . S
H1280 C1264 0.931 . S
H1281 C1269 0.929 1_565 S
H1282 C1270 0.960 . S
H1283 C1270 0.962 . S
H1284 C1270 0.960 . S
H1285 C1271 0.961 . S
H1286 C1271 0.961 . S
H1287 C1271 0.961 1_545 S
H1288 C1272 0.931 . S
H1289 C1277 0.930 . S
H1290 C1278 0.956 . S
H1291 C1278 0.961 1_565 S
H1292 C1278 0.961 . S
H1293 C1279 0.958 . S
H1294 C1279 0.961 . S
H1295 C1279 0.960 . S
C1296 C1297 1.391 . S
C1296 C1298 1.394 . S
C1296 H1312 0.931 . S
C1297 C1296 1.391 . S
C1297 C1301 1.376 . S
C1298 C1296 1.394 . S
C1298 C1299 1.369 . S
C1298 C1302 1.531 . S
C1299 C1298 1.369 . S
C1299 C1300 1.410 . S
C1299 C1307 1.503 . S
C1300 C1299 1.410 . S
C1300 C1301 1.392 . S
C1300 C1303 1.511 . S
C1301 C1297 1.376 . S
C1301 C1300 1.392 . S
C1301 H1313 0.929 . S
C1302 C1298 1.531 . S
C1302 H1314 0.960 . S
C1302 H1315 0.962 . S
C1302 H1316 0.960 . S
C1303 C1300 1.511 . S
C1303 H1317 0.961 . S
C1303 H1318 0.961 . S
C1303 H1319 0.961 . S
C1304 C1305 1.370 . S
C1304 C1306 1.363 . S
C1304 H1320 0.931 . S
C1305 C1304 1.370 . S
C1305 C1309 1.408 . S
C1306 C1304 1.363 . S
C1306 C1307 1.370 . S
C1306 C1310 1.524 . S
C1307 C1299 1.503 . S
C1307 C1306 1.370 . S
C1307 C1308 1.403 . S
C1308 C1307 1.403 . S
C1308 C1309 1.404 . S
C1308 C1311 1.539 . S
C1309 C1305 1.408 . S
C1309 C1308 1.404 . S
C1309 H1321 0.930 . S
C1310 C1306 1.524 . S
C1310 H1322 0.956 . S
C1310 H1323 0.961 . S
C1310 H1324 0.961 . S
C1311 C1308 1.539 . S
C1311 H1325 0.958 . S
C1311 H1326 0.961 . S
C1311 H1327 0.960 . S
H1312 C1296 0.931 . S
H1313 C1301 0.929 . S
H1314 C1302 0.960 . S
H1315 C1302 0.962 . S
H1316 C1302 0.960 . S
H1317 C1303 0.961 . S
H1318 C1303 0.961 . S
H1319 C1303 0.961 . S
H1320 C1304 0.931 . S
H1321 C1309 0.930 . S
H1322 C1310 0.956 . S
H1323 C1310 0.961 . S
H1324 C1310 0.961 . S
H1325 C1311 0.958 . S
H1326 C1311 0.961 . S
H1327 C1311 0.960 . S
C1328 C1329 1.391 1_565 S
C1328 C1330 1.394 . S
C1328 H1344 0.931 . S
C1329 C1328 1.391 1_545 S
C1329 C1333 1.376 . S
C1330 C1328 1.394 . S
C1330 C1331 1.369 . S
C1330 C1334 1.531 . S
C1331 C1330 1.369 . S
C1331 C1332 1.410 1_565 S
C1331 C1339 1.503 . S
C1332 C1331 1.410 1_545 S
C1332 C1333 1.392 . S
C1332 C1335 1.511 . S
C1333 C1329 1.376 . S
C1333 C1332 1.392 . S
C1333 H1345 0.929 . S
C1334 C1330 1.531 . S
C1334 H1346 0.960 . S
C1334 H1347 0.962 . S
C1334 H1348 0.960 . S
C1335 C1332 1.511 . S
C1335 H1349 0.961 . S
C1335 H1350 0.961 . S
C1335 H1351 0.961 . S
C1336 C1337 1.370 . S
C1336 C1338 1.363 . S
C1336 H1352 0.931 . S
C1337 C1336 1.370 . S
C1337 C1341 1.408 . S
C1338 C1336 1.363 . S
C1338 C1339 1.370 . S
C1338 C1342 1.524 . S
C1339 C1331 1.503 . S
C1339 C1338 1.370 . S
C1339 C1340 1.403 . S
C1340 C1339 1.403 . S
C1340 C1341 1.404 . S
C1340 C1343 1.539 1_565 S
C1341 C1337 1.408 . S
C1341 C1340 1.404 . S
C1341 H1353 0.930 . S
C1342 C1338 1.524 . S
C1342 H1354 0.956 . S
C1342 H1355 0.961 . S
C1342 H1356 0.961 . S
C1343 C1340 1.539 1_545 S
C1343 H1357 0.958 1_545 S
C1343 H1358 0.961 . S
C1343 H1359 0.960 . S
H1344 C1328 0.931 . S
H1345 C1333 0.929 . S
H1346 C1334 0.960 . S
H1347 C1334 0.962 . S
H1348 C1334 0.960 . S
H1349 C1335 0.961 . S
H1350 C1335 0.961 . S
H1351 C1335 0.961 . S
H1352 C1336 0.931 . S
H1353 C1341 0.930 . S
H1354 C1342 0.956 . S
H1355 C1342 0.961 . S
H1356 C1342 0.961 . S
H1357 C1343 0.958 1_565 S
H1358 C1343 0.961 . S
H1359 C1343 0.960 . S
C1360 C1361 1.391 . S
C1360 C1362 1.394 . S
C1360 H1376 0.931 . S
C1361 C1360 1.391 . S
C1361 C1365 1.376 . S
C1362 C1360 1.394 . S
C1362 C1363 1.369 . S
C1362 C1366 1.531 . S
C1363 C1362 1.369 . S
C1363 C1364 1.410 . S
C1363 C1371 1.503 . S
C1364 C1363 1.410 . S
C1364 C1365 1.392 . S
C1364 C1367 1.511 . S
C1365 C1361 1.376 . S
C1365 C1364 1.392 . S
C1365 H1377 0.929 . S
C1366 C1362 1.531 . S
C1366 H1378 0.960 . S
C1366 H1379 0.962 . S
C1366 H1380 0.960 . S
C1367 C1364 1.511 . S
C1367 H1381 0.961 . S
C1367 H1382 0.961 . S
C1367 H1383 0.961 . S
C1368 C1369 1.370 . S
C1368 C1370 1.363 . S
C1368 H1384 0.931 . S
C1369 C1368 1.370 . S
C1369 C1373 1.408 . S
C1370 C1368 1.363 . S
C1370 C1371 1.370 . S
C1370 C1374 1.524 . S
C1371 C1363 1.503 . S
C1371 C1370 1.370 . S
C1371 C1372 1.403 . S
C1372 C1371 1.403 . S
C1372 C1373 1.404 . S
C1372 C1375 1.539 . S
C1373 C1369 1.408 . S
C1373 C1372 1.404 . S
C1373 H1385 0.930 . S
C1374 C1370 1.524 . S
C1374 H1386 0.956 . S
C1374 H1387 0.961 . S
C1374 H1388 0.961 . S
C1375 C1372 1.539 . S
C1375 H1389 0.958 . S
C1375 H1390 0.961 . S
C1375 H1391 0.960 . S
H1376 C1360 0.931 . S
H1377 C1365 0.929 . S
H1378 C1366 0.960 . S
H1379 C1366 0.962 . S
H1380 C1366 0.960 . S
H1381 C1367 0.961 . S
H1382 C1367 0.961 . S
H1383 C1367 0.961 . S
H1384 C1368 0.931 . S
H1385 C1373 0.930 . S
H1386 C1374 0.956 . S
H1387 C1374 0.961 . S
H1388 C1374 0.961 . S
H1389 C1375 0.958 . S
H1390 C1375 0.961 . S
H1391 C1375 0.960 . S
C1392 C1393 1.391 . S
C1392 C1394 1.394 . S
C1392 H1408 0.931 . S
C1393 C1392 1.391 . S
C1393 C1397 1.376 . S
C1394 C1392 1.394 . S
C1394 C1395 1.369 . S
C1394 C1398 1.531 . S
C1395 C1394 1.369 . S
C1395 C1396 1.410 . S
C1395 C1403 1.503 . S
C1396 C1395 1.410 . S
C1396 C1397 1.392 . S
C1396 C1399 1.511 1_554 S
C1397 C1393 1.376 . S
C1397 C1396 1.392 . S
C1397 H1409 0.929 . S
C1398 C1394 1.531 . S
C1398 H1410 0.960 . S
C1398 H1411 0.962 . S
C1398 H1412 0.960 . S
C1399 C1396 1.511 1_556 S
C1399 H1413 0.969 . S
C1399 H1414 0.961 . S
C1399 H1415 0.961 . S
C1400 C1401 1.370 1_554 S
C1400 C1402 1.363 . S
C1400 H1416 0.931 . S
C1401 C1400 1.370 1_556 S
C1401 C1405 1.408 . S
C1402 C1400 1.363 . S
C1402 C1403 1.370 . S
C1402 C1406 1.524 . S
C1403 C1395 1.503 . S
C1403 C1402 1.370 . S
C1403 C1404 1.403 1_554 S
C1404 C1403 1.403 1_556 S
C1404 C1405 1.404 . S
C1404 C1407 1.539 . S
C1405 C1401 1.408 . S
C1405 C1404 1.404 . S
C1405 H1417 0.930 . S
C1406 C1402 1.524 . S
C1406 H1418 0.956 . S
C1406 H1419 0.961 . S
C1406 H1420 0.961 . S
C1407 C1404 1.539 . S
C1407 H1421 0.958 . S
C1407 H1422 0.961 . S
C1407 H1423 0.960 . S
H1408 C1392 0.931 . S
H1409 C1397 0.929 . S
H1410 C1398 0.960 . S
H1411 C1398 0.962 . S
H1412 C1398 0.960 . S
H1413 C1399 0.969 . S
H1414 C1399 0.961 . S
H1415 C1399 0.961 . S
H1416 C1400 0.931 . S
H1417 C1405 0.930 . S
H1418 C1406 0.956 . S
H1419 C1406 0.961 . S
H1420 C1406 0.961 . S
H1421 C1407 0.958 . S
H1422 C1407 0.961 . S
H1423 C1407 0.960 . S
C1424 C1425 1.391 . S
C1424 C1426 1.394 . S
C1424 H1440 0.931 . S
C1425 C1424 1.391 . S
C1425 C1429 1.376 . S
C1426 C1424 1.394 . S
C1426 C1427 1.369 . S
C1426 C1430 1.531 . S
C1427 C1426 1.369 . S
C1427 C1428 1.410 . S
C1427 C1435 1.503 . S
C1428 C1427 1.410 . S
C1428 C1429 1.392 . S
C1428 C1431 1.511 . S
C1429 C1425 1.376 . S
C1429 C1428 1.392 . S
C1429 H1441 0.929 . S
C1430 C1426 1.531 . S
C1430 H1442 0.960 . S
C1430 H1443 0.962 . S
C1430 H1444 0.960 . S
C1431 C1428 1.511 . S
C1431 H1445 0.961 . S
C1431 H1446 0.961 . S
C1431 H1447 0.961 . S
C1432 C1433 1.370 . S
C1432 C1434 1.363 . S
C1432 H1448 0.931 . S
C1433 C1432 1.370 . S
C1433 C1437 1.408 . S
C1434 C1432 1.363 . S
C1434 C1435 1.370 . S
C1434 C1438 1.524 . S
C1435 C1427 1.503 . S
C1435 C1434 1.370 . S
C1435 C1436 1.403 . S
C1436 C1435 1.403 . S
C1436 C1437 1.404 . S
C1436 C1439 1.539 1_554 S
C1437 C1433 1.408 . S
C1437 C1436 1.404 . S
C1437 H1449 0.930 . S
C1438 C1434 1.524 . S
C1438 H1450 0.956 . S
C1438 H1451 0.961 . S
C1438 H1452 0.961 . S
C1439 C1436 1.539 1_556 S
C1439 H1453 0.958 . S
C1439 H1454 0.961 . S
C1439 H1455 0.960 1_556 S
H1440 C1424 0.931 . S
H1441 C1429 0.929 . S
H1442 C1430 0.960 . S
H1443 C1430 0.962 . S
H1444 C1430 0.960 . S
H1445 C1431 0.961 . S
H1446 C1431 0.961 . S
H1447 C1431 0.961 . S
H1448 C1432 0.931 . S
H1449 C1437 0.930 . S
H1450 C1438 0.956 . S
H1451 C1438 0.961 . S
H1452 C1438 0.961 . S
H1453 C1439 0.958 . S
H1454 C1439 0.961 . S
H1455 C1439 0.960 1_554 S
C1456 C1457 1.391 . S
C1456 C1458 1.394 . S
C1456 H1472 0.931 . S
C1457 C1456 1.391 . S
C1457 C1461 1.376 . S
C1458 C1456 1.394 . S
C1458 C1459 1.369 . S
C1458 C1462 1.531 . S
C1459 C1458 1.369 . S
C1459 C1460 1.410 . S
C1459 C1467 1.503 . S
C1460 C1459 1.410 . S
C1460 C1461 1.392 . S
C1460 C1463 1.511 . S
C1461 C1457 1.376 . S
C1461 C1460 1.392 . S
C1461 H1473 0.929 . S
C1462 C1458 1.531 . S
C1462 H1474 0.960 . S
C1462 H1475 0.962 . S
C1462 H1476 0.960 . S
C1463 C1460 1.511 . S
C1463 H1477 0.961 . S
C1463 H1478 0.961 . S
C1463 H1479 0.961 . S
C1464 C1465 1.370 . S
C1464 C1466 1.363 . S
C1464 H1480 0.931 . S
C1465 C1464 1.370 . S
C1465 C1469 1.408 . S
C1466 C1464 1.363 . S
C1466 C1467 1.370 . S
C1466 C1470 1.524 . S
C1467 C1459 1.503 . S
C1467 C1466 1.370 . S
C1467 C1468 1.403 . S
C1468 C1467 1.403 . S
C1468 C1469 1.404 . S
C1468 C1471 1.539 . S
C1469 C1465 1.408 . S
C1469 C1468 1.404 . S
C1469 H1481 0.930 . S
C1470 C1466 1.524 . S
C1470 H1482 0.956 . S
C1470 H1483 0.961 . S
C1470 H1484 0.961 . S
C1471 C1468 1.539 . S
C1471 H1485 0.958 . S
C1471 H1486 0.961 . S
C1471 H1487 0.960 . S
H1472 C1456 0.931 . S
H1473 C1461 0.929 . S
H1474 C1462 0.960 . S
H1475 C1462 0.962 . S
H1476 C1462 0.960 . S
H1477 C1463 0.961 . S
H1478 C1463 0.961 . S
H1479 C1463 0.961 . S
H1480 C1464 0.931 . S
H1481 C1469 0.930 . S
H1482 C1470 0.956 . S
H1483 C1470 0.961 . S
H1484 C1470 0.961 . S
H1485 C1471 0.958 . S
H1486 C1471 0.961 . S
H1487 C1471 0.960 . S
C1488 C1489 1.391 . S
C1488 C1490 1.394 . S
C1488 H1504 0.931 . S
C1489 C1488 1.391 . S
C1489 C1493 1.376 . S
C1490 C1488 1.394 . S
C1490 C1491 1.369 . S
C1490 C1494 1.531 . S
C1491 C1490 1.369 . S
C1491 C1492 1.410 . S
C1491 C1499 1.503 . S
C1492 C1491 1.410 . S
C1492 C1493 1.392 . S
C1492 C1495 1.511 . S
C1493 C1489 1.376 . S
C1493 C1492 1.392 . S
C1493 H1505 0.929 . S
C1494 C1490 1.531 . S
C1494 H1506 0.960 . S
C1494 H1507 0.962 . S
C1494 H1508 0.960 . S
C1495 C1492 1.511 . S
C1495 H1509 0.961 . S
C1495 H1510 0.961 . S
C1495 H1511 0.961 . S
C1496 C1497 1.370 . S
C1496 C1498 1.363 . S
C1496 H1512 0.931 . S
C1497 C1496 1.370 . S
C1497 C1501 1.408 . S
C1498 C1496 1.363 . S
C1498 C1499 1.370 . S
C1498 C1502 1.524 . S
C1499 C1491 1.503 . S
C1499 C1498 1.370 . S
C1499 C1500 1.403 . S
C1500 C1499 1.403 . S
C1500 C1501 1.404 . S
C1500 C1503 1.539 . S
C1501 C1497 1.408 . S
C1501 C1500 1.404 . S
C1501 H1513 0.930 . S
C1502 C1498 1.524 . S
C1502 H1514 0.956 . S
C1502 H1515 0.961 . S
C1502 H1516 0.961 . S
C1503 C1500 1.539 . S
C1503 H1517 0.958 . S
C1503 H1518 0.961 . S
C1503 H1519 0.960 . S
H1504 C1488 0.931 . S
H1505 C1493 0.929 . S
H1506 C1494 0.960 . S
H1507 C1494 0.962 . S
H1508 C1494 0.960 . S
H1509 C1495 0.961 . S
H1510 C1495 0.961 . S
H1511 C1495 0.961 . S
H1512 C1496 0.931 . S
H1513 C1501 0.930 . S
H1514 C1502 0.956 . S
H1515 C1502 0.961 . S
H1516 C1502 0.961 . S
H1517 C1503 0.958 . S
H1518 C1503 0.961 . S
H1519 C1503 0.960 . S
C1520 C1521 1.391 . S
C1520 C1522 1.394 . S
C1520 H1536 0.931 . S
C1521 C1520 1.391 . S
C1521 C1525 1.376 . S
C1522 C1520 1.394 . S
C1522 C1523 1.369 . S
C1522 C1526 1.531 . S
C1523 C1522 1.369 . S
C1523 C1524 1.410 . S
C1523 C1531 1.503 . S
C1524 C1523 1.410 . S
C1524 C1525 1.392 . S
C1524 C1527 1.511 . S
C1525 C1521 1.376 . S
C1525 C1524 1.392 . S
C1525 H1537 0.929 . S
C1526 C1522 1.531 . S
C1526 H1538 0.960 . S
C1526 H1539 0.962 . S
C1526 H1540 0.960 . S
C1527 C1524 1.511 . S
C1527 H1541 0.961 . S
C1527 H1542 0.961 . S
C1527 H1543 0.961 . S
C1528 C1529 1.370 . S
C1528 C1530 1.363 . S
C1528 H1544 0.931 . S
C1529 C1528 1.370 . S
C1529 C1533 1.408 . S
C1530 C1528 1.363 . S
C1530 C1531 1.370 . S
C1530 C1534 1.524 . S
C1531 C1523 1.503 . S
C1531 C1530 1.370 . S
C1531 C1532 1.403 . S
C1532 C1531 1.403 . S
C1532 C1533 1.404 . S
C1532 C1535 1.539 . S
C1533 C1529 1.408 . S
C1533 C1532 1.404 . S
C1533 H1545 0.930 . S
C1534 C1530 1.524 . S
C1534 H1546 0.956 . S
C1534 H1547 0.961 . S
C1534 H1548 0.961 . S
C1535 C1532 1.539 . S
C1535 H1549 0.958 . S
C1535 H1550 0.961 . S
C1535 H1551 0.960 . S
H1536 C1520 0.931 . S
H1537 C1525 0.929 . S
H1538 C1526 0.960 . S
H1539 C1526 0.962 . S
H1540 C1526 0.960 . S
H1541 C1527 0.961 . S
H1542 C1527 0.961 . S
H1543 C1527 0.961 . S
H1544 C1528 0.931 . S
H1545 C1533 0.930 . S
H1546 C1534 0.956 . S
H1547 C1534 0.961 . S
H1548 C1534 0.961 . S
H1549 C1535 0.958 . S
H1550 C1535 0.961 . S
H1551 C1535 0.960 . S
C1552 C1553 1.391 . S
C1552 C1554 1.394 . S
C1552 H1568 0.931 . S
C1553 C1552 1.391 . S
C1553 C1557 1.376 . S
C1554 C1552 1.394 . S
C1554 C1555 1.369 . S
C1554 C1558 1.531 . S
C1555 C1554 1.369 . S
C1555 C1556 1.410 . S
C1555 C1563 1.503 . S
C1556 C1555 1.410 . S
C1556 C1557 1.392 . S
C1556 C1559 1.511 . S
C1557 C1553 1.376 . S
C1557 C1556 1.392 . S
C1557 H1569 0.929 . S
C1558 C1554 1.531 . S
C1558 H1570 0.960 . S
C1558 H1571 0.962 . S
C1558 H1572 0.960 . S
C1559 C1556 1.511 . S
C1559 H1573 0.961 . S
C1559 H1574 0.961 . S
C1559 H1575 0.961 . S
C1560 C1561 1.370 . S
C1560 C1562 1.363 . S
C1560 H1576 0.931 . S
C1561 C1560 1.370 . S
C1561 C1565 1.408 1_565 S
C1562 C1560 1.363 . S
C1562 C1563 1.370 . S
C1562 C1566 1.524 . S
C1563 C1555 1.503 . S
C1563 C1562 1.370 . S
C1563 C1564 1.403 . S
C1564 C1563 1.403 . S
C1564 C1565 1.404 1_565 S
C1564 C1567 1.539 1_565 S
C1565 C1561 1.408 1_545 S
C1565 C1564 1.404 1_545 S
C1565 H1577 0.930 . S
C1566 C1562 1.524 . S
C1566 H1578 0.956 . S
C1566 H1579 0.961 . S
C1566 H1580 0.961 . S
C1567 C1564 1.539 1_545 S
C1567 H1581 0.958 . S
C1567 H1582 0.961 . S
C1567 H1583 0.960 . S
H1568 C1552 0.931 . S
H1569 C1557 0.929 . S
H1570 C1558 0.960 . S
H1571 C1558 0.962 . S
H1572 C1558 0.960 . S
H1573 C1559 0.961 . S
H1574 C1559 0.961 . S
H1575 C1559 0.961 . S
H1576 C1560 0.931 . S
H1577 C1565 0.930 . S
H1578 C1566 0.956 . S
H1579 C1566 0.961 . S
H1580 C1566 0.961 . S
H1581 C1567 0.958 . S
H1582 C1567 0.961 . S
H1583 C1567 0.960 . S
C1584 C1585 1.391 . S
C1584 C1586 1.394 . S
C1584 H1600 0.931 . S
C1585 C1584 1.391 . S
C1585 C1589 1.376 . S
C1586 C1584 1.394 . S
C1586 C1587 1.369 . S
C1586 C1590 1.531 . S
C1587 C1586 1.369 . S
C1587 C1588 1.410 . S
C1587 C1595 1.503 . S
C1588 C1587 1.410 . S
C1588 C1589 1.392 . S
C1588 C1591 1.511 . S
C1589 C1585 1.376 . S
C1589 C1588 1.392 . S
C1589 H1601 0.929 . S
C1590 C1586 1.531 . S
C1590 H1602 0.960 . S
C1590 H1603 0.962 . S
C1590 H1604 0.960 . S
C1591 C1588 1.511 . S
C1591 H1605 0.961 . S
C1591 H1606 0.961 . S
C1591 H1607 0.961 . S
C1592 C1593 1.370 . S
C1592 C1594 1.363 . S
C1592 H1608 0.931 . S
C1593 C1592 1.370 . S
C1593 C1597 1.408 . S
C1594 C1592 1.363 . S
C1594 C1595 1.370 . S
C1594 C1598 1.524 . S
C1595 C1587 1.503 . S
C1595 C1594 1.370 . S
C1595 C1596 1.403 . S
C1596 C1595 1.403 . S
C1596 C1597 1.404 . S
C1596 C1599 1.539 . S
C1597 C1593 1.408 . S
C1597 C1596 1.404 . S
C1597 H1609 0.930 . S
C1598 C1594 1.524 . S
C1598 H1610 0.956 . S
C1598 H1611 0.961 . S
C1598 H1612 0.961 . S
C1599 C1596 1.539 . S
C1599 H1613 0.958 . S
C1599 H1614 0.961 . S
C1599 H1615 0.960 . S
H1600 C1584 0.931 . S
H1601 C1589 0.929 . S
H1602 C1590 0.960 . S
H1603 C1590 0.962 . S
H1604 C1590 0.960 . S
H1605 C1591 0.961 . S
H1606 C1591 0.961 . S
H1607 C1591 0.961 . S
H1608 C1592 0.931 . S
H1609 C1597 0.930 . S
H1610 C1598 0.956 . S
H1611 C1598 0.961 . S
H1612 C1598 0.961 . S
H1613 C1599 0.958 . S
H1614 C1599 0.961 . S
H1615 C1599 0.960 . S
C1616 C1617 1.391 . S
C1616 C1618 1.394 . S
C1616 H1632 0.931 . S
C1617 C1616 1.391 . S
C1617 C1621 1.376 . S
C1618 C1616 1.394 . S
C1618 C1619 1.369 . S
C1618 C1622 1.531 . S
C1619 C1618 1.369 . S
C1619 C1620 1.410 . S
C1619 C1627 1.503 . S
C1620 C1619 1.410 . S
C1620 C1621 1.392 . S
C1620 C1623 1.511 . S
C1621 C1617 1.376 . S
C1621 C1620 1.392 . S
C1621 H1633 0.929 . S
C1622 C1618 1.531 . S
C1622 H1634 0.960 . S
C1622 H1635 0.962 . S
C1622 H1636 0.960 . S
C1623 C1620 1.511 . S
C1623 H1637 0.961 . S
C1623 H1638 0.961 . S
C1623 H1639 0.961 . S
C1624 C1625 1.370 . S
C1624 C1626 1.363 . S
C1624 H1640 0.931 . S
C1625 C1624 1.370 . S
C1625 C1629 1.408 . S
C1626 C1624 1.363 . S
C1626 C1627 1.370 . S
C1626 C1630 1.524 . S
C1627 C1619 1.503 . S
C1627 C1626 1.370 . S
C1627 C1628 1.403 . S
C1628 C1627 1.403 . S
C1628 C1629 1.404 . S
C1628 C1631 1.539 . S
C1629 C1625 1.408 . S
C1629 C1628 1.404 . S
C1629 H1641 0.930 . S
C1630 C1626 1.524 . S
C1630 H1642 0.956 . S
C1630 H1643 0.961 . S
C1630 H1644 0.961 . S
C1631 C1628 1.539 . S
C1631 H1645 0.958 . S
C1631 H1646 0.961 . S
C1631 H1647 0.960 . S
H1632 C1616 0.931 . S
H1633 C1621 0.929 . S
H1634 C1622 0.960 . S
H1635 C1622 0.962 . S
H1636 C1622 0.960 . S
H1637 C1623 0.961 . S
H1638 C1623 0.961 . S
H1639 C1623 0.961 . S
H1640 C1624 0.931 . S
H1641 C1629 0.930 . S
H1642 C1630 0.956 . S
H1643 C1630 0.961 . S
H1644 C1630 0.961 . S
H1645 C1631 0.958 . S
H1646 C1631 0.961 . S
H1647 C1631 0.960 . S
C1648 C1649 1.396 1_455 S
C1648 C1650 1.394 . S
C1648 H1664 0.931 . S
C1649 C1648 1.396 1_655 S
C1649 C1653 1.372 . S
C1650 C1648 1.394 . S
C1650 C1651 1.369 . S
C1650 C1654 1.531 . S
C1651 C1650 1.369 . S
C1651 C1652 1.410 1_455 S
C1651 C1659 1.503 . S
C1652 C1651 1.410 1_655 S
C1652 C1653 1.392 . S
C1652 C1655 1.511 . S
C1653 C1649 1.372 . S
C1653 C1652 1.392 . S
C1653 H1665 0.929 . S
C1654 C1650 1.531 . S
C1654 H1666 0.960 . S
C1654 H1667 0.962 . S
C1654 H1668 0.960 . S
C1655 C1652 1.511 . S
C1655 H1669 0.961 . S
C1655 H1670 0.961 . S
C1655 H1671 0.961 . S
C1656 C1657 1.372 . S
C1656 C1658 1.383 . S
C1656 H1672 0.909 1_556 S
C1657 C1656 1.372 . S
C1657 C1661 1.408 . S
C1658 C1656 1.383 . S
C1658 C1659 1.370 . S
C1658 C1662 1.524 . S
C1659 C1651 1.503 . S
C1659 C1658 1.370 . S
C1659 C1660 1.403 . S
C1660 C1659 1.403 . S
C1660 C1661 1.404 . S
C1660 C1663 1.539 1_455 S
C1661 C1657 1.408 . S
C1661 C1660 1.404 . S
C1661 H1673 0.930 . S
C1662 C1658 1.524 . S
C1662 H1674 0.956 . S
C1662 H1675 0.961 . S
C1662 H1676 0.921 1_556 S
C1663 C1660 1.539 1_655 S
C1663 H1677 0.958 1_655 S
C1663 H1678 0.961 . S
C1663 H1679 0.960 . S
H1664 C1648 0.931 . S
H1665 C1653 0.929 . S
H1666 C1654 0.960 . S
H1667 C1654 0.962 . S
H1668 C1654 0.960 . S
H1669 C1655 0.961 . S
H1670 C1655 0.961 . S
H1671 C1655 0.961 . S
H1672 C1656 0.909 1_554 S
H1673 C1661 0.930 . S
H1674 C1662 0.956 . S
H1675 C1662 0.961 . S
H1676 C1662 0.921 1_554 S
H1677 C1663 0.958 1_455 S
H1678 C1663 0.961 . S
H1679 C1663 0.960 . S
C1680 C1681 1.391 . S
C1680 C1682 1.394 . S
C1680 H1696 0.931 . S
C1681 C1680 1.391 . S
C1681 C1685 1.376 . S
C1682 C1680 1.394 . S
C1682 C1683 1.369 . S
C1682 C1686 1.531 . S
C1683 C1682 1.369 . S
C1683 C1684 1.410 . S
C1683 C1691 1.503 . S
C1684 C1683 1.410 . S
C1684 C1685 1.392 . S
C1684 C1687 1.511 . S
C1685 C1681 1.376 . S
C1685 C1684 1.392 . S
C1685 H1697 0.929 . S
C1686 C1682 1.531 . S
C1686 H1698 0.960 . S
C1686 H1699 0.962 . S
C1686 H1700 0.960 . S
C1687 C1684 1.511 . S
C1687 H1701 0.961 . S
C1687 H1702 0.961 . S
C1687 H1703 0.961 . S
C1688 C1689 1.370 . S
C1688 C1690 1.363 . S
C1688 H1704 0.931 . S
C1689 C1688 1.370 . S
C1689 C1693 1.408 . S
C1690 C1688 1.363 . S
C1690 C1691 1.370 . S
C1690 C1694 1.524 . S
C1691 C1683 1.503 . S
C1691 C1690 1.370 . S
C1691 C1692 1.403 . S
C1692 C1691 1.403 . S
C1692 C1693 1.404 . S
C1692 C1695 1.539 . S
C1693 C1689 1.408 . S
C1693 C1692 1.404 . S
C1693 H1705 0.930 . S
C1694 C1690 1.524 . S
C1694 H1706 0.956 . S
C1694 H1707 0.961 . S
C1694 H1708 0.961 . S
C1695 C1692 1.539 . S
C1695 H1709 0.958 . S
C1695 H1710 0.961 . S
C1695 H1711 0.960 . S
H1696 C1680 0.931 . S
H1697 C1685 0.929 . S
H1698 C1686 0.960 . S
H1699 C1686 0.962 . S
H1700 C1686 0.960 . S
H1701 C1687 0.961 . S
H1702 C1687 0.961 . S
H1703 C1687 0.961 . S
H1704 C1688 0.931 . S
H1705 C1693 0.930 . S
H1706 C1694 0.956 . S
H1707 C1694 0.961 . S
H1708 C1694 0.961 . S
H1709 C1695 0.958 . S
H1710 C1695 0.961 . S
H1711 C1695 0.960 . S
C1712 C1713 1.391 . S
C1712 C1714 1.394 . S
C1712 H1728 0.931 . S
C1713 C1712 1.391 . S
C1713 C1717 1.376 . S
C1714 C1712 1.394 . S
C1714 C1715 1.369 . S
C1714 C1718 1.531 . S
C1715 C1714 1.369 . S
C1715 C1716 1.410 . S
C1715 C1723 1.503 . S
C1716 C1715 1.410 . S
C1716 C1717 1.392 . S
C1716 C1719 1.511 . S
C1717 C1713 1.376 . S
C1717 C1716 1.392 . S
C1717 H1729 0.929 . S
C1718 C1714 1.531 . S
C1718 H1730 0.960 . S
C1718 H1731 0.962 . S
C1718 H1732 0.960 . S
C1719 C1716 1.511 . S
C1719 H1733 0.961 . S
C1719 H1734 0.961 . S
C1719 H1735 0.961 . S
C1720 C1721 1.370 . S
C1720 C1722 1.363 . S
C1720 H1736 0.931 . S
C1721 C1720 1.370 . S
C1721 C1725 1.408 . S
C1722 C1720 1.363 . S
C1722 C1723 1.370 . S
C1722 C1726 1.524 . S
C1723 C1715 1.503 . S
C1723 C1722 1.370 . S
C1723 C1724 1.403 . S
C1724 C1723 1.403 . S
C1724 C1725 1.404 . S
C1724 C1727 1.539 . S
C1725 C1721 1.408 . S
C1725 C1724 1.404 . S
C1725 H1737 0.930 . S
C1726 C1722 1.524 . S
C1726 H1738 0.956 . S
C1726 H1739 0.961 . S
C1726 H1740 0.961 . S
C1727 C1724 1.539 . S
C1727 H1741 0.958 . S
C1727 H1742 0.961 . S
C1727 H1743 0.960 . S
H1728 C1712 0.931 . S
H1729 C1717 0.929 . S
H1730 C1718 0.960 . S
H1731 C1718 0.962 . S
H1732 C1718 0.960 . S
H1733 C1719 0.961 . S
H1734 C1719 0.961 . S
H1735 C1719 0.961 . S
H1736 C1720 0.931 . S
H1737 C1725 0.930 . S
H1738 C1726 0.956 . S
H1739 C1726 0.961 . S
H1740 C1726 0.961 . S
H1741 C1727 0.958 . S
H1742 C1727 0.961 . S
H1743 C1727 0.960 . S
C1744 C1745 1.391 . S
C1744 C1746 1.394 . S
C1744 H1760 0.931 . S
C1745 C1744 1.391 . S
C1745 C1749 1.376 . S
C1746 C1744 1.394 . S
C1746 C1747 1.369 . S
C1746 C1750 1.531 . S
C1747 C1746 1.369 . S
C1747 C1748 1.410 . S
C1747 C1755 1.503 . S
C1748 C1747 1.410 . S
C1748 C1749 1.392 . S
C1748 C1751 1.511 . S
C1749 C1745 1.376 . S
C1749 C1748 1.392 . S
C1749 H1761 0.929 . S
C1750 C1746 1.531 . S
C1750 H1762 0.960 . S
C1750 H1763 0.962 . S
C1750 H1764 0.960 . S
C1751 C1748 1.511 . S
C1751 H1765 0.961 . S
C1751 H1766 0.961 . S
C1751 H1767 0.961 . S
C1752 C1753 1.370 . S
C1752 C1754 1.363 . S
C1752 H1768 0.931 . S
C1753 C1752 1.370 . S
C1753 C1757 1.408 . S
C1754 C1752 1.363 . S
C1754 C1755 1.370 . S
C1754 C1758 1.524 . S
C1755 C1747 1.503 . S
C1755 C1754 1.370 . S
C1755 C1756 1.403 . S
C1756 C1755 1.403 . S
C1756 C1757 1.404 . S
C1756 C1759 1.539 . S
C1757 C1753 1.408 . S
C1757 C1756 1.404 . S
C1757 H1769 0.930 . S
C1758 C1754 1.524 . S
C1758 H1770 0.956 . S
C1758 H1771 0.961 . S
C1758 H1772 0.961 . S
C1759 C1756 1.539 . S
C1759 H1773 0.958 . S
C1759 H1774 0.961 . S
C1759 H1775 0.960 . S
H1760 C1744 0.931 . S
H1761 C1749 0.929 . S
H1762 C1750 0.960 . S
H1763 C1750 0.962 . S
H1764 C1750 0.960 . S
H1765 C1751 0.961 . S
H1766 C1751 0.961 . S
H1767 C1751 0.961 . S
H1768 C1752 0.931 . S
H1769 C1757 0.930 . S
H1770 C1758 0.956 . S
H1771 C1758 0.961 . S
H1772 C1758 0.961 . S
H1773 C1759 0.958 . S
H1774 C1759 0.961 . S
H1775 C1759 0.960 . S
C1776 C1777 1.391 . S
C1776 C1778 1.394 . S
C1776 H1792 0.931 . S
C1777 C1776 1.391 . S
C1777 C1781 1.376 . S
C1778 C1776 1.394 . S
C1778 C1779 1.369 . S
C1778 C1782 1.531 . S
C1779 C1778 1.369 . S
C1779 C1780 1.410 . S
C1779 C1787 1.503 . S
C1780 C1779 1.410 . S
C1780 C1781 1.392 . S
C1780 C1783 1.511 . S
C1781 C1777 1.376 . S
C1781 C1780 1.392 . S
C1781 H1793 0.929 . S
C1782 C1778 1.531 . S
C1782 H1794 0.960 . S
C1782 H1795 0.962 . S
C1782 H1796 0.960 . S
C1783 C1780 1.511 . S
C1783 H1797 0.961 . S
C1783 H1798 0.961 . S
C1783 H1799 0.961 . S
C1784 C1785 1.370 . S
C1784 C1786 1.363 . S
C1784 H1800 0.931 . S
C1785 C1784 1.370 . S
C1785 C1789 1.408 . S
C1786 C1784 1.363 . S
C1786 C1787 1.370 . S
C1786 C1790 1.524 1_455 S
C1787 C1779 1.503 . S
C1787 C1786 1.370 . S
C1787 C1788 1.403 . S
C1788 C1787 1.403 . S
C1788 C1789 1.404 . S
C1788 C1791 1.539 . S
C1789 C1785 1.408 . S
C1789 C1788 1.404 . S
C1789 H1801 0.930 . S
C1790 C1786 1.524 1_655 S
C1790 H1802 0.956 . S
C1790 H1803 0.956 1_655 S
C1790 H1804 0.961 . S
C1791 C1788 1.539 . S
C1791 H1805 0.958 . S
C1791 H1806 0.961 . S
C1791 H1807 0.960 . S
H1792 C1776 0.931 . S
H1793 C1781 0.929 . S
H1794 C1782 0.960 . S
H1795 C1782 0.962 . S
H1796 C1782 0.960 . S
H1797 C1783 0.961 . S
H1798 C1783 0.961 . S
H1799 C1783 0.961 . S
H1800 C1784 0.931 . S
H1801 C1789 0.930 . S
H1802 C1790 0.956 . S
H1803 C1790 0.956 1_455 S
H1804 C1790 0.961 . S
H1805 C1791 0.958 . S
H1806 C1791 0.961 . S
H1807 C1791 0.960 . S
C1808 C1809 1.391 . S
C1808 C1810 1.394 . S
C1808 H1824 0.931 . S
C1809 C1808 1.391 . S
C1809 C1813 1.376 . S
C1810 C1808 1.394 . S
C1810 C1811 1.369 . S
C1810 C1814 1.531 . S
C1811 C1810 1.369 . S
C1811 C1812 1.410 . S
C1811 C1819 1.503 . S
C1812 C1811 1.410 . S
C1812 C1813 1.392 . S
C1812 C1815 1.511 . S
C1813 C1809 1.376 . S
C1813 C1812 1.392 . S
C1813 H1825 0.929 . S
C1814 C1810 1.531 . S
C1814 H1826 0.960 . S
C1814 H1827 0.962 . S
C1814 H1828 0.960 . S
C1815 C1812 1.511 . S
C1815 H1829 0.961 . S
C1815 H1830 0.961 . S
C1815 H1831 0.961 . S
C1816 C1817 1.370 . S
C1816 C1818 1.363 . S
C1816 H1832 0.931 . S
C1817 C1816 1.370 . S
C1817 C1821 1.408 . S
C1818 C1816 1.363 . S
C1818 C1819 1.370 . S
C1818 C1822 1.524 . S
C1819 C1811 1.503 . S
C1819 C1818 1.370 . S
C1819 C1820 1.403 . S
C1820 C1819 1.403 . S
C1820 C1821 1.404 . S
C1820 C1823 1.539 . S
C1821 C1817 1.408 . S
C1821 C1820 1.404 . S
C1821 H1833 0.930 . S
C1822 C1818 1.524 . S
C1822 H1834 0.956 . S
C1822 H1835 0.961 . S
C1822 H1836 0.961 . S
C1823 C1820 1.539 . S
C1823 H1837 0.958 . S
C1823 H1838 0.961 . S
C1823 H1839 0.960 . S
H1824 C1808 0.931 . S
H1825 C1813 0.929 . S
H1826 C1814 0.960 . S
H1827 C1814 0.962 . S
H1828 C1814 0.960 . S
H1829 C1815 0.961 . S
H1830 C1815 0.961 . S
H1831 C1815 0.961 . S
H1832 C1816 0.931 . S
H1833 C1821 0.930 . S
H1834 C1822 0.956 . S
H1835 C1822 0.961 . S
H1836 C1822 0.961 . S
H1837 C1823 0.958 . S
H1838 C1823 0.961 . S
H1839 C1823 0.960 . S
C1840 C1841 1.391 . S
C1840 C1842 1.394 . S
C1840 H1856 0.931 . S
C1841 C1840 1.391 . S
C1841 C1845 1.376 . S
C1842 C1840 1.394 . S
C1842 C1843 1.369 . S
C1842 C1846 1.531 . S
C1843 C1842 1.369 . S
C1843 C1844 1.410 . S
C1843 C1851 1.503 . S
C1844 C1843 1.410 . S
C1844 C1845 1.392 . S
C1844 C1847 1.511 . S
C1845 C1841 1.376 . S
C1845 C1844 1.392 . S
C1845 H1857 0.929 . S
C1846 C1842 1.531 . S
C1846 H1858 0.960 . S
C1846 H1859 0.962 . S
C1846 H1860 0.960 . S
C1847 C1844 1.511 . S
C1847 H1861 0.961 . S
C1847 H1862 0.961 . S
C1847 H1863 0.961 . S
C1848 C1849 1.370 . S
C1848 C1850 1.363 . S
C1848 H1864 0.931 . S
C1849 C1848 1.370 . S
C1849 C1853 1.408 . S
C1850 C1848 1.363 . S
C1850 C1851 1.370 . S
C1850 C1854 1.524 . S
C1851 C1843 1.503 . S
C1851 C1850 1.370 . S
C1851 C1852 1.403 . S
C1852 C1851 1.403 . S
C1852 C1853 1.404 . S
C1852 C1855 1.539 . S
C1853 C1849 1.408 . S
C1853 C1852 1.404 . S
C1853 H1865 0.930 . S
C1854 C1850 1.524 . S
C1854 H1866 0.956 . S
C1854 H1867 0.961 . S
C1854 H1868 0.961 . S
C1855 C1852 1.539 . S
C1855 H1869 0.958 . S
C1855 H1870 0.961 . S
C1855 H1871 0.960 . S
H1856 C1840 0.931 . S
H1857 C1845 0.929 . S
H1858 C1846 0.960 . S
H1859 C1846 0.962 . S
H1860 C1846 0.960 . S
H1861 C1847 0.961 . S
H1862 C1847 0.961 . S
H1863 C1847 0.961 . S
H1864 C1848 0.931 . S
H1865 C1853 0.930 . S
H1866 C1854 0.956 . S
H1867 C1854 0.961 . S
H1868 C1854 0.961 . S
H1869 C1855 0.958 . S
H1870 C1855 0.961 . S
H1871 C1855 0.960 . S
C1872 C1873 1.391 . S
C1872 C1874 1.394 . S
C1872 H1888 0.931 . S
C1873 C1872 1.391 . S
C1873 C1877 1.376 . S
C1874 C1872 1.394 . S
C1874 C1875 1.369 . S
C1874 C1878 1.531 . S
C1875 C1874 1.369 . S
C1875 C1876 1.410 . S
C1875 C1883 1.503 . S
C1876 C1875 1.410 . S
C1876 C1877 1.392 . S
C1876 C1879 1.511 . S
C1877 C1873 1.376 . S
C1877 C1876 1.392 . S
C1877 H1889 0.929 . S
C1878 C1874 1.531 . S
C1878 H1890 0.960 . S
C1878 H1891 0.962 . S
C1878 H1892 0.960 . S
C1879 C1876 1.511 . S
C1879 H1893 0.961 . S
C1879 H1894 0.961 . S
C1879 H1895 0.961 . S
C1880 C1881 1.370 . S
C1880 C1882 1.363 . S
C1880 H1896 0.931 . S
C1881 C1880 1.370 . S
C1881 C1885 1.408 . S
C1882 C1880 1.363 . S
C1882 C1883 1.370 . S
C1882 C1886 1.524 . S
C1883 C1875 1.503 . S
C1883 C1882 1.370 . S
C1883 C1884 1.403 . S
C1884 C1883 1.403 . S
C1884 C1885 1.404 . S
C1884 C1887 1.539 . S
C1885 C1881 1.408 . S
C1885 C1884 1.404 . S
C1885 H1897 0.930 . S
C1886 C1882 1.524 . S
C1886 H1898 0.956 . S
C1886 H1899 0.961 . S
C1886 H1900 0.961 . S
C1887 C1884 1.539 . S
C1887 H1901 0.958 . S
C1887 H1902 0.961 . S
C1887 H1903 0.960 . S
H1888 C1872 0.931 . S
H1889 C1877 0.929 . S
H1890 C1878 0.960 . S
H1891 C1878 0.962 . S
H1892 C1878 0.960 . S
H1893 C1879 0.961 . S
H1894 C1879 0.961 . S
H1895 C1879 0.961 . S
H1896 C1880 0.931 . S
H1897 C1885 0.930 . S
H1898 C1886 0.956 . S
H1899 C1886 0.961 . S
H1900 C1886 0.961 . S
H1901 C1887 0.958 . S
H1902 C1887 0.961 . S
H1903 C1887 0.960 . S
C1904 C1905 1.391 1_565 S
C1904 C1906 1.394 . S
C1904 H1920 0.931 . S
C1905 C1904 1.391 1_545 S
C1905 C1909 1.376 . S
C1906 C1904 1.394 . S
C1906 C1907 1.369 1_565 S
C1906 C1910 1.531 . S
C1907 C1906 1.369 1_545 S
C1907 C1908 1.410 . S
C1907 C1915 1.503 . S
C1908 C1907 1.410 . S
C1908 C1909 1.392 . S
C1908 C1911 1.511 . S
C1909 C1905 1.376 . S
C1909 C1908 1.392 . S
C1909 H1921 0.929 . S
C1910 C1906 1.531 . S
C1910 H1922 0.960 . S
C1910 H1923 0.962 . S
C1910 H1924 0.960 . S
C1911 C1908 1.511 . S
C1911 H1925 0.961 . S
C1911 H1926 0.961 . S
C1911 H1927 0.961 1_655 S
C1912 C1913 1.370 1_655 S
C1912 C1914 1.363 . S
C1912 H1928 0.931 . S
C1913 C1912 1.370 1_455 S
C1913 C1917 1.408 . S
C1914 C1912 1.363 . S
C1914 C1915 1.370 . S
C1914 C1918 1.524 . S
C1915 C1907 1.503 . S
C1915 C1914 1.370 . S
C1915 C1916 1.403 1_545 S
C1916 C1915 1.403 1_565 S
C1916 C1917 1.404 1_665 S
C1916 C1919 1.539 1_655 S
C1917 C1913 1.408 . S
C1917 C1916 1.404 1_445 S
C1917 H1929 0.930 1_545 S
C1918 C1914 1.524 . S
C1918 H1930 0.956 . S
C1918 H1931 0.961 . S
C1918 H1932 0.961 . S
C1919 C1916 1.539 1_455 S
C1919 H1933 0.958 1_455 S
C1919 H1934 0.961 . S
C1919 H1935 0.960 1_455 S
H1920 C1904 0.931 . S
H1921 C1909 0.929 . S
H1922 C1910 0.960 . S
H1923 C1910 0.962 . S
H1924 C1910 0.960 . S
H1925 C1911 0.961 . S
H1926 C1911 0.961 . S
H1927 C1911 0.961 1_455 S
H1928 C1912 0.931 . S
H1929 C1917 0.930 1_565 S
H1930 C1918 0.956 . S
H1931 C1918 0.961 . S
H1932 C1918 0.961 . S
H1933 C1919 0.958 1_655 S
H1934 C1919 0.961 . S
H1935 C1919 0.960 1_655 S
C1936 C1937 1.391 . S
C1936 C1938 1.394 . S
C1936 H1952 0.931 . S
C1937 C1936 1.391 . S
C1937 C1941 1.376 . S
C1938 C1936 1.394 . S
C1938 C1939 1.369 . S
C1938 C1942 1.531 . S
C1939 C1938 1.369 . S
C1939 C1940 1.410 . S
C1939 C1947 1.503 . S
C1940 C1939 1.410 . S
C1940 C1941 1.392 . S
C1940 C1943 1.511 . S
C1941 C1937 1.376 . S
C1941 C1940 1.392 . S
C1941 H1953 0.929 . S
C1942 C1938 1.531 . S
C1942 H1954 0.960 . S
C1942 H1955 0.962 . S
C1942 H1956 0.960 . S
C1943 C1940 1.511 . S
C1943 H1957 0.961 . S
C1943 H1958 0.961 . S
C1943 H1959 0.961 . S
C1944 C1945 1.370 . S
C1944 C1946 1.363 . S
C1944 H1960 0.931 . S
C1945 C1944 1.370 . S
C1945 C1949 1.408 . S
C1946 C1944 1.363 . S
C1946 C1947 1.370 . S
C1946 C1950 1.524 . S
C1947 C1939 1.503 . S
C1947 C1946 1.370 . S
C1947 C1948 1.403 . S
C1948 C1947 1.403 . S
C1948 C1949 1.404 . S
C1948 C1951 1.539 . S
C1949 C1945 1.408 . S
C1949 C1948 1.404 . S
C1949 H1961 0.930 . S
C1950 C1946 1.524 . S
C1950 H1962 0.956 . S
C1950 H1963 0.961 . S
C1950 H1964 0.961 . S
C1951 C1948 1.539 . S
C1951 H1965 0.958 . S
C1951 H1966 0.961 . S
C1951 H1967 0.960 . S
H1952 C1936 0.931 . S
H1953 C1941 0.929 . S
H1954 C1942 0.960 . S
H1955 C1942 0.962 . S
H1956 C1942 0.960 . S
H1957 C1943 0.961 . S
H1958 C1943 0.961 . S
H1959 C1943 0.961 . S
H1960 C1944 0.931 . S
H1961 C1949 0.930 . S
H1962 C1950 0.956 . S
H1963 C1950 0.961 . S
H1964 C1950 0.961 . S
H1965 C1951 0.958 . S
H1966 C1951 0.961 . S
H1967 C1951 0.960 . S
C1968 C1969 1.391 1_565 S
C1968 C1970 1.394 . S
C1968 H1984 0.931 . S
C1969 C1968 1.391 1_545 S
C1969 C1973 1.376 . S
C1970 C1968 1.394 . S
C1970 C1971 1.369 1_565 S
C1970 C1974 1.531 . S
C1971 C1970 1.369 1_545 S
C1971 C1972 1.410 . S
C1971 C1979 1.503 . S
C1972 C1971 1.410 . S
C1972 C1973 1.392 . S
C1972 C1975 1.511 . S
C1973 C1969 1.376 . S
C1973 C1972 1.392 . S
C1973 H1985 0.929 . S
C1974 C1970 1.531 . S
C1974 H1986 0.960 . S
C1974 H1987 0.962 . S
C1974 H1988 0.960 . S
C1975 C1972 1.511 . S
C1975 H1989 0.961 . S
C1975 H1990 0.961 . S
C1975 H1991 0.961 . S
C1976 C1977 1.373 . S
C1976 C1978 1.363 . S
C1976 H1992 0.931 . S
C1977 C1976 1.373 . S
C1977 C1981 1.405 1_545 S
C1978 C1976 1.363 . S
C1978 C1979 1.370 . S
C1978 C1982 1.524 . S
C1979 C1971 1.503 . S
C1979 C1978 1.370 . S
C1979 C1980 1.403 1_545 S
C1980 C1979 1.403 1_565 S
C1980 C1981 1.404 . S
C1980 C1983 1.539 . S
C1981 C1977 1.405 1_565 S
C1981 C1980 1.404 . S
C1981 H1993 0.930 . S
C1982 C1978 1.524 . S
C1982 H1994 0.956 . S
C1982 H1995 0.961 . S
C1982 H1996 0.961 . S
C1983 C1980 1.539 . S
C1983 H1997 0.958 . S
C1983 H1998 0.961 . S
C1983 H1999 0.960 . S
H1984 C1968 0.931 . S
H1985 C1973 0.929 . S
H1986 C1974 0.960 . S
H1987 C1974 0.962 . S
H1988 C1974 0.960 . S
H1989 C1975 0.961 . S
H1990 C1975 0.961 . S
H1991 C1975 0.961 . S
H1992 C1976 0.931 . S
H1993 C1981 0.930 . S
H1994 C1982 0.956 . S
H1995 C1982 0.961 . S
H1996 C1982 0.961 . S
H1997 C1983 0.958 . S
H1998 C1983 0.961 . S
H1999 C1983 0.960 . S
C2000 C2001 1.391 . S
C2000 C2002 1.394 . S
C2000 H2016 0.931 . S
C2001 C2000 1.391 . S
C2001 C2005 1.376 . S
C2002 C2000 1.394 . S
C2002 C2003 1.369 . S
C2002 C2006 1.531 . S
C2003 C2002 1.369 . S
C2003 C2004 1.410 . S
C2003 C2011 1.503 . S
C2004 C2003 1.410 . S
C2004 C2005 1.392 . S
C2004 C2007 1.511 . S
C2005 C2001 1.376 . S
C2005 C2004 1.392 . S
C2005 H2017 0.929 . S
C2006 C2002 1.531 . S
C2006 H2018 0.960 . S
C2006 H2019 0.962 . S
C2006 H2020 0.960 . S
C2007 C2004 1.511 . S
C2007 H2021 0.961 . S
C2007 H2022 0.961 . S
C2007 H2023 0.961 . S
C2008 C2009 1.370 . S
C2008 C2010 1.363 . S
C2008 H2024 0.931 . S
C2009 C2008 1.370 . S
C2009 C2013 1.408 . S
C2010 C2008 1.363 . S
C2010 C2011 1.370 . S
C2010 C2014 1.524 . S
C2011 C2003 1.503 . S
C2011 C2010 1.370 . S
C2011 C2012 1.403 . S
C2012 C2011 1.403 . S
C2012 C2013 1.404 . S
C2012 C2015 1.539 . S
C2013 C2009 1.408 . S
C2013 C2012 1.404 . S
C2013 H2025 0.930 . S
C2014 C2010 1.524 . S
C2014 H2026 0.956 . S
C2014 H2027 0.961 . S
C2014 H2028 0.961 . S
C2015 C2012 1.539 . S
C2015 H2029 0.958 . S
C2015 H2030 0.961 . S
C2015 H2031 0.960 . S
H2016 C2000 0.931 . S
H2017 C2005 0.929 . S
H2018 C2006 0.960 . S
H2019 C2006 0.962 . S
H2020 C2006 0.960 . S
H2021 C2007 0.961 . S
H2022 C2007 0.961 . S
H2023 C2007 0.961 . S
H2024 C2008 0.931 . S
H2025 C2013 0.930 . S
H2026 C2014 0.956 . S
H2027 C2014 0.961 . S
H2028 C2014 0.961 . S
H2029 C2015 0.958 . S
H2030 C2015 0.961 . S
H2031 C2015 0.960 . S
C2032 C2033 1.391 . S
C2032 C2034 1.394 . S
C2032 H2048 0.931 . S
C2033 C2032 1.391 . S
C2033 C2037 1.376 1_545 S
C2034 C2032 1.394 . S
C2034 C2035 1.369 1_545 S
C2034 C2038 1.531 . S
C2035 C2034 1.369 1_565 S
C2035 C2036 1.410 . S
C2035 C2043 1.503 . S
C2036 C2035 1.410 . S
C2036 C2037 1.392 . S
C2036 C2039 1.511 . S
C2037 C2033 1.376 1_565 S
C2037 C2036 1.392 . S
C2037 H2049 0.929 . S
C2038 C2034 1.531 . S
C2038 H2050 0.960 . S
C2038 H2051 0.962 . S
C2038 H2052 0.960 . S
C2039 C2036 1.511 . S
C2039 H2053 0.961 . S
C2039 H2054 0.961 . S
C2039 H2055 0.961 . S
C2040 C2041 1.370 . S
C2040 C2042 1.363 . S
C2040 H2056 0.931 . S
C2041 C2040 1.370 . S
C2041 C2045 1.408 . S
C2042 C2040 1.363 . S
C2042 C2043 1.370 . S
C2042 C2046 1.524 . S
C2043 C2035 1.503 . S
C2043 C2042 1.370 . S
C2043 C2044 1.403 . S
C2044 C2043 1.403 . S
C2044 C2045 1.404 . S
C2044 C2047 1.539 1_665 S
C2045 C2041 1.408 . S
C2045 C2044 1.404 . S
C2045 H2057 0.930 1_655 S
C2046 C2042 1.524 . S
C2046 H2058 0.956 . S
C2046 H2059 0.961 . S
C2046 H2060 0.961 . S
C2047 C2044 1.539 1_445 S
C2047 H2061 0.958 . S
C2047 H2062 0.961 1_545 S
C2047 H2063 0.960 1_545 S
H2048 C2032 0.931 . S
H2049 C2037 0.929 . S
H2050 C2038 0.960 . S
H2051 C2038 0.962 . S
H2052 C2038 0.960 . S
H2053 C2039 0.961 . S
H2054 C2039 0.961 . S
H2055 C2039 0.961 . S
H2056 C2040 0.931 . S
H2057 C2045 0.930 1_455 S
H2058 C2046 0.956 . S
H2059 C2046 0.961 . S
H2060 C2046 0.961 . S
H2061 C2047 0.958 . S
H2062 C2047 0.961 1_565 S
H2063 C2047 0.960 1_565 S
C2064 C2065 1.391 . S
C2064 C2066 1.394 . S
C2064 H2080 0.931 . S
C2065 C2064 1.391 . S
C2065 C2069 1.376 . S
C2066 C2064 1.394 . S
C2066 C2067 1.369 . S
C2066 C2070 1.531 . S
C2067 C2066 1.369 . S
C2067 C2068 1.410 . S
C2067 C2075 1.503 . S
C2068 C2067 1.410 . S
C2068 C2069 1.392 . S
C2068 C2071 1.511 . S
C2069 C2065 1.376 . S
C2069 C2068 1.392 . S
C2069 H2081 0.929 . S
C2070 C2066 1.531 . S
C2070 H2082 0.960 . S
C2070 H2083 0.962 . S
C2070 H2084 0.960 . S
C2071 C2068 1.511 . S
C2071 H2085 0.961 . S
C2071 H2086 0.961 . S
C2071 H2087 0.961 . S
C2072 C2073 1.370 . S
C2072 C2074 1.363 . S
C2072 H2088 0.931 . S
C2073 C2072 1.370 . S
C2073 C2077 1.408 . S
C2074 C2072 1.363 . S
C2074 C2075 1.370 . S
C2074 C2078 1.524 . S
C2075 C2067 1.503 . S
C2075 C2074 1.370 . S
C2075 C2076 1.403 . S
C2076 C2075 1.403 . S
C2076 C2077 1.404 . S
C2076 C2079 1.539 . S
C2077 C2073 1.408 . S
C2077 C2076 1.404 . S
C2077 H2089 0.930 . S
C2078 C2074 1.524 . S
C2078 H2090 0.956 . S
C2078 H2091 0.961 . S
C2078 H2092 0.961 . S
C2079 C2076 1.539 . S
C2079 H2093 0.958 . S
C2079 H2094 0.961 . S
C2079 H2095 0.960 . S
H2080 C2064 0.931 . S
H2081 C2069 0.929 . S
H2082 C2070 0.960 . S
H2083 C2070 0.962 . S
H2084 C2070 0.960 . S
H2085 C2071 0.961 . S
H2086 C2071 0.961 . S
H2087 C2071 0.961 . S
H2088 C2072 0.931 . S
H2089 C2077 0.930 . S
H2090 C2078 0.956 . S
H2091 C2078 0.961 . S
H2092 C2078 0.961 . S
H2093 C2079 0.958 . S
H2094 C2079 0.961 . S
H2095 C2079 0.960 . S
C2096 C2097 1.391 . S
C2096 C2098 1.394 . S
C2096 H2112 0.931 . S
C2097 C2096 1.391 . S
C2097 C2101 1.376 . S
C2098 C2096 1.394 . S
C2098 C2099 1.369 . S
C2098 C2102 1.531 . S
C2099 C2098 1.369 . S
C2099 C2100 1.410 . S
C2099 C2107 1.503 . S
C2100 C2099 1.410 . S
C2100 C2101 1.392 . S
C2100 C2103 1.511 . S
C2101 C2097 1.376 . S
C2101 C2100 1.392 . S
C2101 H2113 0.929 . S
C2102 C2098 1.531 . S
C2102 H2114 0.960 . S
C2102 H2115 0.962 . S
C2102 H2116 0.960 . S
C2103 C2100 1.511 . S
C2103 H2117 0.961 . S
C2103 H2118 0.961 . S
C2103 H2119 0.961 . S
C2104 C2105 1.370 . S
C2104 C2106 1.363 . S
C2104 H2120 0.931 . S
C2105 C2104 1.370 . S
C2105 C2109 1.408 . S
C2106 C2104 1.363 . S
C2106 C2107 1.370 . S
C2106 C2110 1.524 1_545 S
C2107 C2099 1.503 . S
C2107 C2106 1.370 . S
C2107 C2108 1.403 . S
C2108 C2107 1.403 . S
C2108 C2109 1.404 . S
C2108 C2111 1.539 . S
C2109 C2105 1.408 . S
C2109 C2108 1.404 . S
C2109 H2121 0.930 . S
C2110 C2106 1.524 1_565 S
C2110 H2122 0.956 . S
C2110 H2123 0.961 . S
C2110 H2124 0.961 . S
C2111 C2108 1.539 . S
C2111 H2125 0.958 . S
C2111 H2126 0.961 . S
C2111 H2127 0.960 . S
H2112 C2096 0.931 . S
H2113 C2101 0.929 . S
H2114 C2102 0.960 . S
H2115 C2102 0.962 . S
H2116 C2102 0.960 . S
H2117 C2103 0.961 . S
H2118 C2103 0.961 . S
H2119 C2103 0.961 . S
H2120 C2104 0.931 . S
H2121 C2109 0.930 . S
H2122 C2110 0.956 . S
H2123 C2110 0.961 . S
H2124 C2110 0.961 . S
H2125 C2111 0.958 . S
H2126 C2111 0.961 . S
H2127 C2111 0.960 . S
C2128 C2129 1.391 . S
C2128 C2130 1.394 . S
C2128 H2144 0.931 . S
C2129 C2128 1.391 . S
C2129 C2133 1.376 . S
C2130 C2128 1.394 . S
C2130 C2131 1.369 . S
C2130 C2134 1.531 . S
C2131 C2130 1.369 . S
C2131 C2132 1.410 . S
C2131 C2139 1.503 . S
C2132 C2131 1.410 . S
C2132 C2133 1.392 . S
C2132 C2135 1.511 . S
C2133 C2129 1.376 . S
C2133 C2132 1.392 . S
C2133 H2145 0.929 . S
C2134 C2130 1.531 . S
C2134 H2146 0.960 . S
C2134 H2147 0.962 . S
C2134 H2148 0.960 . S
C2135 C2132 1.511 . S
C2135 H2149 0.961 . S
C2135 H2150 0.961 . S
C2135 H2151 0.961 . S
C2136 C2137 1.370 . S
C2136 C2138 1.363 . S
C2136 H2152 0.931 . S
C2137 C2136 1.370 . S
C2137 C2141 1.408 . S
C2138 C2136 1.363 . S
C2138 C2139 1.370 . S
C2138 C2142 1.524 . S
C2139 C2131 1.503 . S
C2139 C2138 1.370 . S
C2139 C2140 1.403 . S
C2140 C2139 1.403 . S
C2140 C2141 1.404 . S
C2140 C2143 1.539 . S
C2141 C2137 1.408 . S
C2141 C2140 1.404 . S
C2141 H2153 0.930 . S
C2142 C2138 1.524 . S
C2142 H2154 0.956 . S
C2142 H2155 0.961 . S
C2142 H2156 0.961 . S
C2143 C2140 1.539 . S
C2143 H2157 0.958 . S
C2143 H2158 0.961 . S
C2143 H2159 0.960 . S
H2144 C2128 0.931 . S
H2145 C2133 0.929 . S
H2146 C2134 0.960 . S
H2147 C2134 0.962 . S
H2148 C2134 0.960 . S
H2149 C2135 0.961 . S
H2150 C2135 0.961 . S
H2151 C2135 0.961 . S
H2152 C2136 0.931 . S
H2153 C2141 0.930 . S
H2154 C2142 0.956 . S
H2155 C2142 0.961 . S
H2156 C2142 0.961 . S
H2157 C2143 0.958 . S
H2158 C2143 0.961 . S
H2159 C2143 0.960 . S
C2160 C2161 1.391 . S
C2160 C2162 1.394 . S
C2160 H2176 0.931 1_554 S
C2161 C2160 1.391 . S
C2161 C2165 1.376 . S
C2162 C2160 1.394 . S
C2162 C2163 1.369 . S
C2162 C2166 1.531 . S
C2163 C2162 1.369 . S
C2163 C2164 1.410 . S
C2163 C2171 1.503 . S
C2164 C2163 1.410 . S
C2164 C2165 1.392 . S
C2164 C2167 1.511 . S
C2165 C2161 1.376 . S
C2165 C2164 1.392 . S
C2165 H2177 0.929 . S
C2166 C2162 1.531 . S
C2166 H2178 0.960 . S
C2166 H2179 0.962 1_554 S
C2166 H2180 0.960 1_554 S
C2167 C2164 1.511 . S
C2167 H2181 0.961 . S
C2167 H2182 0.961 . S
C2167 H2183 0.961 . S
C2168 C2169 1.370 . S
C2168 C2170 1.363 . S
C2168 H2184 0.931 . S
C2169 C2168 1.370 . S
C2169 C2173 1.408 . S
C2170 C2168 1.363 . S
C2170 C2171 1.370 . S
C2170 C2174 1.524 . S
C2171 C2163 1.503 . S
C2171 C2170 1.370 . S
C2171 C2172 1.403 . S
C2172 C2171 1.403 . S
C2172 C2173 1.404 . S
C2172 C2175 1.539 1_565 S
C2173 C2169 1.408 . S
C2173 C2172 1.404 . S
C2173 H2185 0.930 1_565 S
C2174 C2170 1.524 . S
C2174 H2186 0.956 . S
C2174 H2187 0.961 . S
C2174 H2188 0.961 . S
C2175 C2172 1.539 1_545 S
C2175 H2189 0.958 . S
C2175 H2190 0.961 . S
C2175 H2191 0.960 1_545 S
H2176 C2160 0.931 1_556 S
H2177 C2165 0.929 . S
H2178 C2166 0.960 . S
H2179 C2166 0.962 1_556 S
H2180 C2166 0.960 1_556 S
H2181 C2167 0.961 . S
H2182 C2167 0.961 . S
H2183 C2167 0.961 . S
H2184 C2168 0.931 . S
H2185 C2173 0.930 1_545 S
H2186 C2174 0.956 . S
H2187 C2174 0.961 . S
H2188 C2174 0.961 . S
H2189 C2175 0.958 . S
H2190 C2175 0.961 . S
H2191 C2175 0.960 1_565 S
C2192 C2193 1.391 1_556 S
C2192 C2194 1.394 . S
C2192 H2208 0.931 . S
C2193 C2192 1.391 1_554 S
C2193 C2197 1.376 . S
C2194 C2192 1.394 . S
C2194 C2195 1.369 1_556 S
C2194 C2198 1.531 . S
C2195 C2194 1.369 1_554 S
C2195 C2196 1.410 . S
C2195 C2203 1.503 . S
C2196 C2195 1.410 . S
C2196 C2197 1.392 . S
C2196 C2199 1.511 . S
C2197 C2193 1.376 . S
C2197 C2196 1.392 . S
C2197 H2209 0.929 . S
C2198 C2194 1.531 . S
C2198 H2210 0.960 . S
C2198 H2211 0.962 . S
C2198 H2212 0.960 . S
C2199 C2196 1.511 . S
C2199 H2213 0.961 . S
C2199 H2214 0.961 . S
C2199 H2215 0.961 . S
C2200 C2201 1.370 . S
C2200 C2202 1.363 . S
C2200 H2216 0.931 . S
C2201 C2200 1.370 . S
C2201 C2205 1.408 1_554 S
C2202 C2200 1.363 . S
C2202 C2203 1.370 . S
C2202 C2206 1.524 . S
C2203 C2195 1.503 . S
C2203 C2202 1.370 . S
C2203 C2204 1.403 1_554 S
C2204 C2203 1.403 1_556 S
C2204 C2205 1.404 . S
C2204 C2207 1.539 . S
C2205 C2201 1.408 1_556 S
C2205 C2204 1.404 . S
C2205 H2217 0.930 . S
C2206 C2202 1.524 . S
C2206 H2218 0.956 . S
C2206 H2219 0.961 . S
C2206 H2220 0.961 . S
C2207 C2204 1.539 . S
C2207 H2221 0.958 . S
C2207 H2222 0.961 . S
C2207 H2223 0.960 . S
H2208 C2192 0.931 . S
H2209 C2197 0.929 . S
H2210 C2198 0.960 . S
H2211 C2198 0.962 . S
H2212 C2198 0.960 . S
H2213 C2199 0.961 . S
H2214 C2199 0.961 . S
H2215 C2199 0.961 . S
H2216 C2200 0.931 . S
H2217 C2205 0.930 . S
H2218 C2206 0.956 . S
H2219 C2206 0.961 . S
H2220 C2206 0.961 . S
H2221 C2207 0.958 . S
H2222 C2207 0.961 . S
H2223 C2207 0.960 . S
C2224 C2225 1.391 . S
C2224 C2226 1.394 . S
C2224 H2240 0.931 . S
C2225 C2224 1.391 . S
C2225 C2229 1.376 . S
C2226 C2224 1.394 . S
C2226 C2227 1.369 . S
C2226 C2230 1.531 . S
C2227 C2226 1.369 . S
C2227 C2228 1.410 . S
C2227 C2235 1.503 . S
C2228 C2227 1.410 . S
C2228 C2229 1.392 . S
C2228 C2231 1.511 . S
C2229 C2225 1.376 . S
C2229 C2228 1.392 . S
C2229 H2241 0.929 . S
C2230 C2226 1.531 . S
C2230 H2242 0.960 . S
C2230 H2243 0.962 . S
C2230 H2244 0.960 . S
C2231 C2228 1.511 . S
C2231 H2245 0.961 . S
C2231 H2246 0.961 . S
C2231 H2247 0.961 . S
C2232 C2233 1.370 . S
C2232 C2234 1.363 . S
C2232 H2248 0.931 . S
C2233 C2232 1.370 . S
C2233 C2237 1.408 . S
C2234 C2232 1.363 . S
C2234 C2235 1.370 . S
C2234 C2238 1.524 . S
C2235 C2227 1.503 . S
C2235 C2234 1.370 . S
C2235 C2236 1.403 . S
C2236 C2235 1.403 . S
C2236 C2237 1.404 . S
C2236 C2239 1.539 . S
C2237 C2233 1.408 . S
C2237 C2236 1.404 . S
C2237 H2249 0.930 . S
C2238 C2234 1.524 . S
C2238 H2250 0.956 . S
C2238 H2251 0.961 . S
C2238 H2252 0.961 . S
C2239 C2236 1.539 . S
C2239 H2253 0.958 . S
C2239 H2254 0.961 . S
C2239 H2255 0.960 . S
H2240 C2224 0.931 . S
H2241 C2229 0.929 . S
H2242 C2230 0.960 . S
H2243 C2230 0.962 . S
H2244 C2230 0.960 . S
H2245 C2231 0.961 . S
H2246 C2231 0.961 . S
H2247 C2231 0.961 . S
H2248 C2232 0.931 . S
H2249 C2237 0.930 . S
H2250 C2238 0.956 . S
H2251 C2238 0.961 . S
H2252 C2238 0.961 . S
H2253 C2239 0.958 . S
H2254 C2239 0.961 . S
H2255 C2239 0.960 . S
C2256 C2257 1.391 . S
C2256 C2258 1.394 . S
C2256 H2272 0.931 . S
C2257 C2256 1.391 . S
C2257 C2261 1.376 . S
C2258 C2256 1.394 . S
C2258 C2259 1.369 . S
C2258 C2262 1.531 . S
C2259 C2258 1.369 . S
C2259 C2260 1.410 . S
C2259 C2267 1.503 . S
C2260 C2259 1.410 . S
C2260 C2261 1.392 . S
C2260 C2263 1.511 . S
C2261 C2257 1.376 . S
C2261 C2260 1.392 . S
C2261 H2273 0.929 . S
C2262 C2258 1.531 . S
C2262 H2274 0.960 . S
C2262 H2275 0.962 . S
C2262 H2276 0.960 . S
C2263 C2260 1.511 . S
C2263 H2277 0.961 . S
C2263 H2278 0.961 . S
C2263 H2279 0.961 . S
C2264 C2265 1.370 . S
C2264 C2266 1.363 . S
C2264 H2280 0.931 . S
C2265 C2264 1.370 . S
C2265 C2269 1.408 . S
C2266 C2264 1.363 . S
C2266 C2267 1.370 . S
C2266 C2270 1.524 . S
C2267 C2259 1.503 . S
C2267 C2266 1.370 . S
C2267 C2268 1.403 . S
C2268 C2267 1.403 . S
C2268 C2269 1.404 . S
C2268 C2271 1.539 . S
C2269 C2265 1.408 . S
C2269 C2268 1.404 . S
C2269 H2281 0.930 . S
C2270 C2266 1.524 . S
C2270 H2282 0.956 . S
C2270 H2283 0.961 . S
C2270 H2284 0.961 . S
C2271 C2268 1.539 . S
C2271 H2285 0.958 . S
C2271 H2286 0.961 . S
C2271 H2287 0.960 . S
H2272 C2256 0.931 . S
H2273 C2261 0.929 . S
H2274 C2262 0.960 . S
H2275 C2262 0.962 . S
H2276 C2262 0.960 . S
H2277 C2263 0.961 . S
H2278 C2263 0.961 . S
H2279 C2263 0.961 . S
H2280 C2264 0.931 . S
H2281 C2269 0.930 . S
H2282 C2270 0.956 . S
H2283 C2270 0.961 . S
H2284 C2270 0.961 . S
H2285 C2271 0.958 . S
H2286 C2271 0.961 . S
H2287 C2271 0.960 . S
C2288 C2289 1.391 . S
C2288 C2290 1.394 . S
C2288 H2304 0.931 . S
C2289 C2288 1.391 . S
C2289 C2293 1.376 . S
C2290 C2288 1.394 . S
C2290 C2291 1.369 . S
C2290 C2294 1.531 . S
C2291 C2290 1.369 . S
C2291 C2292 1.410 . S
C2291 C2299 1.503 . S
C2292 C2291 1.410 . S
C2292 C2293 1.392 . S
C2292 C2295 1.511 . S
C2293 C2289 1.376 . S
C2293 C2292 1.392 . S
C2293 H2305 0.929 . S
C2294 C2290 1.531 . S
C2294 H2306 0.960 . S
C2294 H2307 0.962 . S
C2294 H2308 0.960 . S
C2295 C2292 1.511 . S
C2295 H2309 0.961 . S
C2295 H2310 0.961 . S
C2295 H2311 0.961 . S
C2296 C2297 1.370 . S
C2296 C2298 1.363 . S
C2296 H2312 0.931 . S
C2297 C2296 1.370 . S
C2297 C2301 1.408 . S
C2298 C2296 1.363 . S
C2298 C2299 1.370 . S
C2298 C2302 1.524 . S
C2299 C2291 1.503 . S
C2299 C2298 1.370 . S
C2299 C2300 1.403 . S
C2300 C2299 1.403 . S
C2300 C2301 1.404 . S
C2300 C2303 1.539 . S
C2301 C2297 1.408 . S
C2301 C2300 1.404 . S
C2301 H2313 0.930 . S
C2302 C2298 1.524 . S
C2302 H2314 0.956 . S
C2302 H2315 0.961 . S
C2302 H2316 0.961 . S
C2303 C2300 1.539 . S
C2303 H2317 0.958 . S
C2303 H2318 0.961 . S
C2303 H2319 0.960 . S
H2304 C2288 0.931 . S
H2305 C2293 0.929 . S
H2306 C2294 0.960 . S
H2307 C2294 0.962 . S
H2308 C2294 0.960 . S
H2309 C2295 0.961 . S
H2310 C2295 0.961 . S
H2311 C2295 0.961 . S
H2312 C2296 0.931 . S
H2313 C2301 0.930 . S
H2314 C2302 0.956 . S
H2315 C2302 0.961 . S
H2316 C2302 0.961 . S
H2317 C2303 0.958 . S
H2318 C2303 0.961 . S
H2319 C2303 0.960 . S
C2320 C2321 1.391 . S
C2320 C2322 1.394 . S
C2320 H2336 0.931 . S
C2321 C2320 1.391 . S
C2321 C2325 1.376 . S
C2322 C2320 1.394 . S
C2322 C2323 1.369 . S
C2322 C2326 1.531 . S
C2323 C2322 1.369 . S
C2323 C2324 1.410 . S
C2323 C2331 1.503 . S
C2324 C2323 1.410 . S
C2324 C2325 1.392 . S
C2324 C2327 1.511 . S
C2325 C2321 1.376 . S
C2325 C2324 1.392 . S
C2325 H2337 0.929 . S
C2326 C2322 1.531 . S
C2326 H2338 0.960 . S
C2326 H2339 0.962 . S
C2326 H2340 0.960 . S
C2327 C2324 1.511 . S
C2327 H2341 0.961 . S
C2327 H2342 0.961 . S
C2327 H2343 0.961 . S
C2328 C2329 1.370 . S
C2328 C2330 1.363 . S
C2328 H2344 0.931 . S
C2329 C2328 1.370 . S
C2329 C2333 1.408 . S
C2330 C2328 1.363 . S
C2330 C2331 1.370 . S
C2330 C2334 1.524 . S
C2331 C2323 1.503 . S
C2331 C2330 1.370 . S
C2331 C2332 1.403 . S
C2332 C2331 1.403 . S
C2332 C2333 1.404 . S
C2332 C2335 1.539 . S
C2333 C2329 1.408 . S
C2333 C2332 1.404 . S
C2333 H2345 0.930 . S
C2334 C2330 1.524 . S
C2334 H2346 0.956 . S
C2334 H2347 0.961 . S
C2334 H2348 0.961 . S
C2335 C2332 1.539 . S
C2335 H2349 0.958 . S
C2335 H2350 0.961 . S
C2335 H2351 0.960 . S
H2336 C2320 0.931 . S
H2337 C2325 0.929 . S
H2338 C2326 0.960 . S
H2339 C2326 0.962 . S
H2340 C2326 0.960 . S
H2341 C2327 0.961 . S
H2342 C2327 0.961 . S
H2343 C2327 0.961 . S
H2344 C2328 0.931 . S
H2345 C2333 0.930 . S
H2346 C2334 0.956 . S
H2347 C2334 0.961 . S
H2348 C2334 0.961 . S
H2349 C2335 0.958 . S
H2350 C2335 0.961 . S
H2351 C2335 0.960 . S
C2352 C2353 1.391 . S
C2352 C2354 1.394 . S
C2352 H2368 0.931 . S
C2353 C2352 1.391 . S
C2353 C2357 1.376 . S
C2354 C2352 1.394 . S
C2354 C2355 1.369 . S
C2354 C2358 1.531 . S
C2355 C2354 1.369 . S
C2355 C2356 1.410 . S
C2355 C2363 1.503 . S
C2356 C2355 1.410 . S
C2356 C2357 1.392 . S
C2356 C2359 1.511 . S
C2357 C2353 1.376 . S
C2357 C2356 1.392 . S
C2357 H2369 0.929 . S
C2358 C2354 1.531 . S
C2358 H2370 0.960 . S
C2358 H2371 0.962 . S
C2358 H2372 0.960 . S
C2359 C2356 1.511 . S
C2359 H2373 0.961 . S
C2359 H2374 0.961 . S
C2359 H2375 0.961 . S
C2360 C2361 1.370 . S
C2360 C2362 1.363 . S
C2360 H2376 0.931 . S
C2361 C2360 1.370 . S
C2361 C2365 1.408 . S
C2362 C2360 1.363 . S
C2362 C2363 1.370 . S
C2362 C2366 1.524 . S
C2363 C2355 1.503 . S
C2363 C2362 1.370 . S
C2363 C2364 1.403 . S
C2364 C2363 1.403 . S
C2364 C2365 1.404 . S
C2364 C2367 1.539 . S
C2365 C2361 1.408 . S
C2365 C2364 1.404 . S
C2365 H2377 0.930 . S
C2366 C2362 1.524 . S
C2366 H2378 0.956 . S
C2366 H2379 0.961 . S
C2366 H2380 0.961 . S
C2367 C2364 1.539 . S
C2367 H2381 0.958 . S
C2367 H2382 0.961 . S
C2367 H2383 0.960 . S
H2368 C2352 0.931 . S
H2369 C2357 0.929 . S
H2370 C2358 0.960 . S
H2371 C2358 0.962 . S
H2372 C2358 0.960 . S
H2373 C2359 0.961 . S
H2374 C2359 0.961 . S
H2375 C2359 0.961 . S
H2376 C2360 0.931 . S
H2377 C2365 0.930 . S
H2378 C2366 0.956 . S
H2379 C2366 0.961 . S
H2380 C2366 0.961 . S
H2381 C2367 0.958 . S
H2382 C2367 0.961 . S
H2383 C2367 0.960 . S
C2384 C2385 1.391 . S
C2384 C2386 1.394 . S
C2384 H2400 0.931 . S
C2385 C2384 1.391 . S
C2385 C2389 1.376 . S
C2386 C2384 1.394 . S
C2386 C2387 1.369 . S
C2386 C2390 1.531 . S
C2387 C2386 1.369 . S
C2387 C2388 1.410 . S
C2387 C2395 1.503 . S
C2388 C2387 1.410 . S
C2388 C2389 1.392 . S
C2388 C2391 1.511 . S
C2389 C2385 1.376 . S
C2389 C2388 1.392 . S
C2389 H2401 0.929 . S
C2390 C2386 1.531 . S
C2390 H2402 0.960 . S
C2390 H2403 0.962 . S
C2390 H2404 0.960 . S
C2391 C2388 1.511 . S
C2391 H2405 0.961 . S
C2391 H2406 0.961 . S
C2391 H2407 0.961 . S
C2392 C2393 1.370 . S
C2392 C2394 1.363 . S
C2392 H2408 0.931 . S
C2393 C2392 1.370 . S
C2393 C2397 1.408 . S
C2394 C2392 1.363 . S
C2394 C2395 1.370 . S
C2394 C2398 1.524 . S
C2395 C2387 1.503 . S
C2395 C2394 1.370 . S
C2395 C2396 1.403 . S
C2396 C2395 1.403 . S
C2396 C2397 1.404 . S
C2396 C2399 1.539 . S
C2397 C2393 1.408 . S
C2397 C2396 1.404 . S
C2397 H2409 0.930 . S
C2398 C2394 1.524 . S
C2398 H2410 0.956 . S
C2398 H2411 0.961 . S
C2398 H2412 0.961 . S
C2399 C2396 1.539 . S
C2399 H2413 0.958 . S
C2399 H2414 0.961 . S
C2399 H2415 0.960 . S
H2400 C2384 0.931 . S
H2401 C2389 0.929 . S
H2402 C2390 0.960 . S
H2403 C2390 0.962 . S
H2404 C2390 0.960 . S
H2405 C2391 0.961 . S
H2406 C2391 0.961 . S
H2407 C2391 0.961 . S
H2408 C2392 0.931 . S
H2409 C2397 0.930 . S
H2410 C2398 0.956 . S
H2411 C2398 0.961 . S
H2412 C2398 0.961 . S
H2413 C2399 0.958 . S
H2414 C2399 0.961 . S
H2415 C2399 0.960 . S
C2416 C2417 1.391 . S
C2416 C2418 1.394 . S
C2416 H2432 0.931 . S
C2417 C2416 1.391 . S
C2417 C2421 1.376 . S
C2418 C2416 1.394 . S
C2418 C2419 1.369 . S
C2418 C2422 1.531 . S
C2419 C2418 1.369 . S
C2419 C2420 1.410 . S
C2419 C2427 1.503 . S
C2420 C2419 1.410 . S
C2420 C2421 1.392 . S
C2420 C2423 1.511 . S
C2421 C2417 1.376 . S
C2421 C2420 1.392 . S
C2421 H2433 0.929 . S
C2422 C2418 1.531 . S
C2422 H2434 0.960 . S
C2422 H2435 0.962 . S
C2422 H2436 0.960 . S
C2423 C2420 1.511 . S
C2423 H2437 0.961 . S
C2423 H2438 0.961 . S
C2423 H2439 0.961 . S
C2424 C2425 1.370 . S
C2424 C2426 1.363 . S
C2424 H2440 0.931 . S
C2425 C2424 1.370 . S
C2425 C2429 1.408 . S
C2426 C2424 1.363 . S
C2426 C2427 1.370 . S
C2426 C2430 1.524 . S
C2427 C2419 1.503 . S
C2427 C2426 1.370 . S
C2427 C2428 1.403 . S
C2428 C2427 1.403 . S
C2428 C2429 1.404 . S
C2428 C2431 1.539 . S
C2429 C2425 1.408 . S
C2429 C2428 1.404 . S
C2429 H2441 0.930 . S
C2430 C2426 1.524 . S
C2430 H2442 0.956 . S
C2430 H2443 0.961 . S
C2430 H2444 0.961 . S
C2431 C2428 1.539 . S
C2431 H2445 0.958 . S
C2431 H2446 0.961 . S
C2431 H2447 0.960 . S
H2432 C2416 0.931 . S
H2433 C2421 0.929 . S
H2434 C2422 0.960 . S
H2435 C2422 0.962 . S
H2436 C2422 0.960 . S
H2437 C2423 0.961 . S
H2438 C2423 0.961 . S
H2439 C2423 0.961 . S
H2440 C2424 0.931 . S
H2441 C2429 0.930 . S
H2442 C2430 0.956 . S
H2443 C2430 0.961 . S
H2444 C2430 0.961 . S
H2445 C2431 0.958 . S
H2446 C2431 0.961 . S
H2447 C2431 0.960 . S
C2448 C2449 1.391 . S
C2448 C2450 1.394 . S
C2448 H2464 0.931 . S
C2449 C2448 1.391 . S
C2449 C2453 1.376 . S
C2450 C2448 1.394 . S
C2450 C2451 1.369 . S
C2450 C2454 1.531 . S
C2451 C2450 1.369 . S
C2451 C2452 1.410 . S
C2451 C2459 1.503 . S
C2452 C2451 1.410 . S
C2452 C2453 1.392 . S
C2452 C2455 1.511 . S
C2453 C2449 1.376 . S
C2453 C2452 1.392 . S
C2453 H2465 0.929 . S
C2454 C2450 1.531 . S
C2454 H2466 0.960 . S
C2454 H2467 0.962 . S
C2454 H2468 0.960 . S
C2455 C2452 1.511 . S
C2455 H2469 0.961 . S
C2455 H2470 0.961 . S
C2455 H2471 0.961 . S
C2456 C2457 1.370 . S
C2456 C2458 1.363 . S
C2456 H2472 0.931 . S
C2457 C2456 1.370 . S
C2457 C2461 1.408 . S
C2458 C2456 1.363 . S
C2458 C2459 1.370 . S
C2458 C2462 1.524 . S
C2459 C2451 1.503 . S
C2459 C2458 1.370 . S
C2459 C2460 1.403 . S
C2460 C2459 1.403 . S
C2460 C2461 1.404 . S
C2460 C2463 1.539 . S
C2461 C2457 1.408 . S
C2461 C2460 1.404 . S
C2461 H2473 0.930 . S
C2462 C2458 1.524 . S
C2462 H2474 0.956 . S
C2462 H2475 0.961 . S
C2462 H2476 0.961 . S
C2463 C2460 1.539 . S
C2463 H2477 0.958 . S
C2463 H2478 0.961 . S
C2463 H2479 0.960 . S
H2464 C2448 0.931 . S
H2465 C2453 0.929 . S
H2466 C2454 0.960 . S
H2467 C2454 0.962 . S
H2468 C2454 0.960 . S
H2469 C2455 0.961 . S
H2470 C2455 0.961 . S
H2471 C2455 0.961 . S
H2472 C2456 0.931 . S
H2473 C2461 0.930 . S
H2474 C2462 0.956 . S
H2475 C2462 0.961 . S
H2476 C2462 0.961 . S
H2477 C2463 0.958 . S
H2478 C2463 0.961 . S
H2479 C2463 0.960 . S
C2480 C2481 1.391 . S
C2480 C2482 1.394 . S
C2480 H2496 0.931 . S
C2481 C2480 1.391 . S
C2481 C2485 1.376 . S
C2482 C2480 1.394 . S
C2482 C2483 1.369 . S
C2482 C2486 1.531 . S
C2483 C2482 1.369 . S
C2483 C2484 1.410 . S
C2483 C2491 1.503 . S
C2484 C2483 1.410 . S
C2484 C2485 1.392 . S
C2484 C2487 1.511 . S
C2485 C2481 1.376 . S
C2485 C2484 1.392 . S
C2485 H2497 0.929 . S
C2486 C2482 1.531 . S
C2486 H2498 0.960 . S
C2486 H2499 0.962 . S
C2486 H2500 0.960 . S
C2487 C2484 1.511 . S
C2487 H2501 0.961 . S
C2487 H2502 0.961 . S
C2487 H2503 0.961 . S
C2488 C2489 1.370 . S
C2488 C2490 1.363 . S
C2488 H2504 0.931 . S
C2489 C2488 1.370 . S
C2489 C2493 1.408 . S
C2490 C2488 1.363 . S
C2490 C2491 1.370 . S
C2490 C2494 1.524 . S
C2491 C2483 1.503 . S
C2491 C2490 1.370 . S
C2491 C2492 1.403 . S
C2492 C2491 1.403 . S
C2492 C2493 1.404 . S
C2492 C2495 1.539 . S
C2493 C2489 1.408 . S
C2493 C2492 1.404 . S
C2493 H2505 0.930 . S
C2494 C2490 1.524 . S
C2494 H2506 0.956 . S
C2494 H2507 0.961 . S
C2494 H2508 0.961 . S
C2495 C2492 1.539 . S
C2495 H2509 0.958 . S
C2495 H2510 0.961 . S
C2495 H2511 0.960 . S
H2496 C2480 0.931 . S
H2497 C2485 0.929 . S
H2498 C2486 0.960 . S
H2499 C2486 0.962 . S
H2500 C2486 0.960 . S
H2501 C2487 0.961 . S
H2502 C2487 0.961 . S
H2503 C2487 0.961 . S
H2504 C2488 0.931 . S
H2505 C2493 0.930 . S
H2506 C2494 0.956 . S
H2507 C2494 0.961 . S
H2508 C2494 0.961 . S
H2509 C2495 0.958 . S
H2510 C2495 0.961 . S
H2511 C2495 0.960 . S
C2512 C2513 1.391 . S
C2512 C2514 1.394 . S
C2512 H2528 0.931 . S
C2513 C2512 1.391 . S
C2513 C2517 1.376 . S
C2514 C2512 1.394 . S
C2514 C2515 1.369 . S
C2514 C2518 1.531 . S
C2515 C2514 1.369 . S
C2515 C2516 1.410 . S
C2515 C2523 1.503 . S
C2516 C2515 1.410 . S
C2516 C2517 1.392 . S
C2516 C2519 1.511 . S
C2517 C2513 1.376 . S
C2517 C2516 1.392 . S
C2517 H2529 0.929 . S
C2518 C2514 1.531 . S
C2518 H2530 0.960 . S
C2518 H2531 0.962 . S
C2518 H2532 0.960 . S
C2519 C2516 1.511 . S
C2519 H2533 0.961 . S
C2519 H2534 0.961 . S
C2519 H2535 0.961 . S
C2520 C2521 1.370 . S
C2520 C2522 1.363 . S
C2520 H2536 0.931 . S
C2521 C2520 1.370 . S
C2521 C2525 1.408 . S
C2522 C2520 1.363 . S
C2522 C2523 1.370 . S
C2522 C2526 1.524 . S
C2523 C2515 1.503 . S
C2523 C2522 1.370 . S
C2523 C2524 1.403 . S
C2524 C2523 1.403 . S
C2524 C2525 1.404 . S
C2524 C2527 1.539 . S
C2525 C2521 1.408 . S
C2525 C2524 1.404 . S
C2525 H2537 0.930 . S
C2526 C2522 1.524 . S
C2526 H2538 0.956 . S
C2526 H2539 0.961 . S
C2526 H2540 0.961 . S
C2527 C2524 1.539 . S
C2527 H2541 0.958 . S
C2527 H2542 0.961 . S
C2527 H2543 0.960 . S
H2528 C2512 0.931 . S
H2529 C2517 0.929 . S
H2530 C2518 0.960 . S
H2531 C2518 0.962 . S
H2532 C2518 0.960 . S
H2533 C2519 0.961 . S
H2534 C2519 0.961 . S
H2535 C2519 0.961 . S
H2536 C2520 0.931 . S
H2537 C2525 0.930 . S
H2538 C2526 0.956 . S
H2539 C2526 0.961 . S
H2540 C2526 0.961 . S
H2541 C2527 0.958 . S
H2542 C2527 0.961 . S
H2543 C2527 0.960 . S
C2544 C2545 1.391 . S
C2544 C2546 1.394 . S
C2544 H2560 0.931 . S
C2545 C2544 1.391 . S
C2545 C2549 1.376 . S
C2546 C2544 1.394 . S
C2546 C2547 1.369 . S
C2546 C2550 1.531 . S
C2547 C2546 1.369 . S
C2547 C2548 1.410 . S
C2547 C2555 1.503 . S
C2548 C2547 1.410 . S
C2548 C2549 1.392 . S
C2548 C2551 1.511 . S
C2549 C2545 1.376 . S
C2549 C2548 1.392 . S
C2549 H2561 0.929 . S
C2550 C2546 1.531 . S
C2550 H2562 0.960 . S
C2550 H2563 0.962 . S
C2550 H2564 0.960 . S
C2551 C2548 1.511 . S
C2551 H2565 0.961 . S
C2551 H2566 0.961 . S
C2551 H2567 0.961 . S
C2552 C2553 1.386 . S
C2552 C2554 1.363 . S
C2552 H2568 0.931 . S
C2553 C2552 1.386 . S
C2553 C2557 1.401 1_556 S
C2554 C2552 1.363 . S
C2554 C2555 1.370 . S
C2554 C2558 1.524 . S
C2555 C2547 1.503 . S
C2555 C2554 1.370 . S
C2555 C2556 1.403 . S
C2556 C2555 1.403 . S
C2556 C2557 1.404 1_556 S
C2556 C2559 1.539 1_556 S
C2557 C2553 1.401 1_554 S
C2557 C2556 1.404 1_554 S
C2557 H2569 0.930 . S
C2558 C2554 1.524 . S
C2558 H2570 0.956 . S
C2558 H2571 0.961 . S
C2558 H2572 0.961 . S
C2559 C2556 1.539 1_554 S
C2559 H2573 0.958 . S
C2559 H2574 0.961 . S
C2559 H2575 0.961 . S
H2560 C2544 0.931 . S
H2561 C2549 0.929 . S
H2562 C2550 0.960 . S
H2563 C2550 0.962 . S
H2564 C2550 0.960 . S
H2565 C2551 0.961 . S
H2566 C2551 0.961 . S
H2567 C2551 0.961 . S
H2568 C2552 0.931 . S
H2569 C2557 0.930 . S
H2570 C2558 0.956 . S
H2571 C2558 0.961 . S
H2572 C2558 0.961 . S
H2573 C2559 0.958 . S
H2574 C2559 0.961 . S
H2575 C2559 0.961 . S
C2576 C2577 1.391 1_655 S
C2576 C2578 1.394 . S
C2576 H2592 0.931 1_655 S
C2577 C2576 1.391 1_455 S
C2577 C2581 1.376 1_455 S
C2578 C2576 1.394 . S
C2578 C2579 1.369 . S
C2578 C2582 1.531 . S
C2579 C2578 1.369 . S
C2579 C2580 1.410 . S
C2579 C2587 1.503 . S
C2580 C2579 1.410 . S
C2580 C2581 1.392 . S
C2580 C2583 1.511 . S
C2581 C2577 1.376 1_655 S
C2581 C2580 1.392 . S
C2581 H2593 0.929 . S
C2582 C2578 1.531 . S
C2582 H2594 0.960 . S
C2582 H2595 0.962 . S
C2582 H2596 0.960 . S
C2583 C2580 1.511 . S
C2583 H2597 0.961 . S
C2583 H2598 0.961 . S
C2583 H2599 0.961 . S
C2584 C2585 1.370 . S
C2584 C2586 1.363 . S
C2584 H2600 0.931 . S
C2585 C2584 1.370 . S
C2585 C2589 1.408 . S
C2586 C2584 1.363 . S
C2586 C2587 1.370 . S
C2586 C2590 1.524 . S
C2587 C2579 1.503 . S
C2587 C2586 1.370 . S
C2587 C2588 1.403 . S
C2588 C2587 1.403 . S
C2588 C2589 1.404 . S
C2588 C2591 1.539 . S
C2589 C2585 1.408 . S
C2589 C2588 1.404 . S
C2589 H2601 0.930 . S
C2590 C2586 1.524 . S
C2590 H2602 0.956 . S
C2590 H2603 0.961 . S
C2590 H2604 0.961 . S
C2591 C2588 1.539 . S
C2591 H2605 0.958 . S
C2591 H2606 0.961 . S
C2591 H2607 0.960 . S
H2592 C2576 0.931 1_455 S
H2593 C2581 0.929 . S
H2594 C2582 0.960 . S
H2595 C2582 0.962 . S
H2596 C2582 0.960 . S
H2597 C2583 0.961 . S
H2598 C2583 0.961 . S
H2599 C2583 0.961 . S
H2600 C2584 0.931 . S
H2601 C2589 0.930 . S
H2602 C2590 0.956 . S
H2603 C2590 0.961 . S
H2604 C2590 0.961 . S
H2605 C2591 0.958 . S
H2606 C2591 0.961 . S
H2607 C2591 0.960 . S
C2608 C2609 1.391 . S
C2608 C2610 1.394 . S
C2608 H2624 0.931 . S
C2609 C2608 1.391 . S
C2609 C2613 1.376 . S
C2610 C2608 1.394 . S
C2610 C2611 1.369 . S
C2610 C2614 1.531 . S
C2611 C2610 1.369 . S
C2611 C2612 1.410 . S
C2611 C2619 1.503 . S
C2612 C2611 1.410 . S
C2612 C2613 1.392 . S
C2612 C2615 1.511 . S
C2613 C2609 1.376 . S
C2613 C2612 1.392 . S
C2613 H2625 0.929 . S
C2614 C2610 1.531 . S
C2614 H2626 0.952 1_455 S
C2614 H2627 0.962 . S
C2614 H2628 0.960 1_455 S
C2615 C2612 1.511 . S
C2615 H2629 0.961 . S
C2615 H2630 0.961 . S
C2615 H2631 0.961 . S
C2616 C2617 1.370 . S
C2616 C2618 1.363 . S
C2616 H2632 0.931 . S
C2617 C2616 1.370 . S
C2617 C2621 1.408 . S
C2618 C2616 1.363 . S
C2618 C2619 1.370 . S
C2618 C2622 1.524 . S
C2619 C2611 1.503 . S
C2619 C2618 1.370 . S
C2619 C2620 1.403 . S
C2620 C2619 1.403 . S
C2620 C2621 1.404 . S
C2620 C2623 1.539 1_455 S
C2621 C2617 1.408 . S
C2621 C2620 1.404 . S
C2621 H2633 0.930 . S
C2622 C2618 1.524 . S
C2622 H2634 0.956 . S
C2622 H2635 0.961 . S
C2622 H2636 0.961 . S
C2623 C2620 1.539 1_655 S
C2623 H2637 0.958 . S
C2623 H2638 0.961 . S
C2623 H2639 0.969 . S
H2624 C2608 0.931 . S
H2625 C2613 0.929 . S
H2626 C2614 0.952 1_655 S
H2627 C2614 0.962 . S
H2628 C2614 0.960 1_655 S
H2629 C2615 0.961 . S
H2630 C2615 0.961 . S
H2631 C2615 0.961 . S
H2632 C2616 0.931 . S
H2633 C2621 0.930 . S
H2634 C2622 0.956 . S
H2635 C2622 0.961 . S
H2636 C2622 0.961 . S
H2637 C2623 0.958 . S
H2638 C2623 0.961 . S
H2639 C2623 0.969 . S
C2640 C2641 1.391 . S
C2640 C2642 1.394 . S
C2640 H2656 0.931 . S
C2641 C2640 1.391 . S
C2641 C2645 1.376 . S
C2642 C2640 1.394 . S
C2642 C2643 1.369 . S
C2642 C2646 1.531 . S
C2643 C2642 1.369 . S
C2643 C2644 1.410 . S
C2643 C2651 1.503 . S
C2644 C2643 1.410 . S
C2644 C2645 1.392 . S
C2644 C2647 1.511 . S
C2645 C2641 1.376 . S
C2645 C2644 1.392 . S
C2645 H2657 0.929 . S
C2646 C2642 1.531 . S
C2646 H2658 0.960 . S
C2646 H2659 0.962 . S
C2646 H2660 0.960 . S
C2647 C2644 1.511 . S
C2647 H2661 0.961 . S
C2647 H2662 0.961 . S
C2647 H2663 0.961 . S
C2648 C2649 1.370 . S
C2648 C2650 1.363 . S
C2648 H2664 0.931 . S
C2649 C2648 1.370 . S
C2649 C2653 1.408 . S
C2650 C2648 1.363 . S
C2650 C2651 1.370 . S
C2650 C2654 1.524 . S
C2651 C2643 1.503 . S
C2651 C2650 1.370 . S
C2651 C2652 1.403 . S
C2652 C2651 1.403 . S
C2652 C2653 1.404 . S
C2652 C2655 1.539 . S
C2653 C2649 1.408 . S
C2653 C2652 1.404 . S
C2653 H2665 0.930 . S
C2654 C2650 1.524 . S
C2654 H2666 0.956 . S
C2654 H2667 0.961 . S
C2654 H2668 0.961 . S
C2655 C2652 1.539 . S
C2655 H2669 0.958 . S
C2655 H2670 0.961 . S
C2655 H2671 0.960 . S
H2656 C2640 0.931 . S
H2657 C2645 0.929 . S
H2658 C2646 0.960 . S
H2659 C2646 0.962 . S
H2660 C2646 0.960 . S
H2661 C2647 0.961 . S
H2662 C2647 0.961 . S
H2663 C2647 0.961 . S
H2664 C2648 0.931 . S
H2665 C2653 0.930 . S
H2666 C2654 0.956 . S
H2667 C2654 0.961 . S
H2668 C2654 0.961 . S
H2669 C2655 0.958 . S
H2670 C2655 0.961 . S
H2671 C2655 0.960 . S
C2672 C2673 1.391 . S
C2672 C2674 1.394 . S
C2672 H2688 0.931 . S
C2673 C2672 1.391 . S
C2673 C2677 1.376 . S
C2674 C2672 1.394 . S
C2674 C2675 1.369 . S
C2674 C2678 1.531 . S
C2675 C2674 1.369 . S
C2675 C2676 1.410 . S
C2675 C2683 1.503 . S
C2676 C2675 1.410 . S
C2676 C2677 1.392 . S
C2676 C2679 1.511 . S
C2677 C2673 1.376 . S
C2677 C2676 1.392 . S
C2677 H2689 0.929 . S
C2678 C2674 1.531 . S
C2678 H2690 0.960 . S
C2678 H2691 0.962 . S
C2678 H2692 0.960 . S
C2679 C2676 1.511 . S
C2679 H2693 0.961 . S
C2679 H2694 0.961 . S
C2679 H2695 0.961 . S
C2680 C2681 1.370 . S
C2680 C2682 1.363 . S
C2680 H2696 0.931 . S
C2681 C2680 1.370 . S
C2681 C2685 1.408 . S
C2682 C2680 1.363 . S
C2682 C2683 1.370 . S
C2682 C2686 1.524 . S
C2683 C2675 1.503 . S
C2683 C2682 1.370 . S
C2683 C2684 1.403 . S
C2684 C2683 1.403 . S
C2684 C2685 1.404 . S
C2684 C2687 1.539 . S
C2685 C2681 1.408 . S
C2685 C2684 1.404 . S
C2685 H2697 0.930 . S
C2686 C2682 1.524 . S
C2686 H2698 0.956 . S
C2686 H2699 0.961 . S
C2686 H2700 0.961 . S
C2687 C2684 1.539 . S
C2687 H2701 0.958 . S
C2687 H2702 0.961 . S
C2687 H2703 0.960 . S
H2688 C2672 0.931 . S
H2689 C2677 0.929 . S
H2690 C2678 0.960 . S
H2691 C2678 0.962 . S
H2692 C2678 0.960 . S
H2693 C2679 0.961 . S
H2694 C2679 0.961 . S
H2695 C2679 0.961 . S
H2696 C2680 0.931 . S
H2697 C2685 0.930 . S
H2698 C2686 0.956 . S
H2699 C2686 0.961 . S
H2700 C2686 0.961 . S
H2701 C2687 0.958 . S
H2702 C2687 0.961 . S
H2703 C2687 0.960 . S
C2704 C2705 1.391 . S
C2704 C2706 1.394 . S
C2704 H2720 0.931 1_556 S
C2705 C2704 1.391 . S
C2705 C2709 1.376 . S
C2706 C2704 1.394 . S
C2706 C2707 1.369 . S
C2706 C2710 1.531 . S
C2707 C2706 1.369 . S
C2707 C2708 1.410 . S
C2707 C2715 1.503 . S
C2708 C2707 1.410 . S
C2708 C2709 1.392 . S
C2708 C2711 1.511 . S
C2709 C2705 1.376 . S
C2709 C2708 1.392 . S
C2709 H2721 0.929 . S
C2710 C2706 1.531 . S
C2710 H2722 0.960 . S
C2710 H2723 0.962 . S
C2710 H2724 0.960 . S
C2711 C2708 1.511 . S
C2711 H2725 0.961 . S
C2711 H2726 0.961 . S
C2711 H2727 0.961 . S
C2712 C2713 1.370 . S
C2712 C2714 1.363 . S
C2712 H2728 0.931 . S
C2713 C2712 1.370 . S
C2713 C2717 1.408 . S
C2714 C2712 1.363 . S
C2714 C2715 1.370 . S
C2714 C2718 1.524 . S
C2715 C2707 1.503 . S
C2715 C2714 1.370 . S
C2715 C2716 1.403 . S
C2716 C2715 1.403 . S
C2716 C2717 1.404 . S
C2716 C2719 1.539 . S
C2717 C2713 1.408 . S
C2717 C2716 1.404 . S
C2717 H2729 0.930 . S
C2718 C2714 1.524 . S
C2718 H2730 0.956 . S
C2718 H2731 0.961 . S
C2718 H2732 0.961 . S
C2719 C2716 1.539 . S
C2719 H2733 0.958 . S
C2719 H2734 0.961 . S
C2719 H2735 0.960 . S
H2720 C2704 0.931 1_554 S
H2721 C2709 0.929 . S
H2722 C2710 0.960 . S
H2723 C2710 0.962 . S
H2724 C2710 0.960 . S
H2725 C2711 0.961 . S
H2726 C2711 0.961 . S
H2727 C2711 0.961 . S
H2728 C2712 0.931 . S
H2729 C2717 0.930 . S
H2730 C2718 0.956 . S
H2731 C2718 0.961 . S
H2732 C2718 0.961 . S
H2733 C2719 0.958 . S
H2734 C2719 0.961 . S
H2735 C2719 0.960 . S
C2736 C2737 1.391 . S
C2736 C2738 1.394 . S
C2736 H2752 0.931 . S
C2737 C2736 1.391 . S
C2737 C2741 1.376 . S
C2738 C2736 1.394 . S
C2738 C2739 1.369 . S
C2738 C2742 1.531 . S
C2739 C2738 1.369 . S
C2739 C2740 1.410 . S
C2739 C2747 1.503 . S
C2740 C2739 1.410 . S
C2740 C2741 1.392 . S
C2740 C2743 1.511 . S
C2741 C2737 1.376 . S
C2741 C2740 1.392 . S
C2741 H2753 0.929 . S
C2742 C2738 1.531 . S
C2742 H2754 0.960 . S
C2742 H2755 0.962 . S
C2742 H2756 0.960 . S
C2743 C2740 1.511 . S
C2743 H2757 0.961 . S
C2743 H2758 0.961 . S
C2743 H2759 0.961 1_655 S
C2744 C2745 1.370 1_655 S
C2744 C2746 1.363 . S
C2744 H2760 0.931 . S
C2745 C2744 1.370 1_455 S
C2745 C2749 1.410 . S
C2746 C2744 1.363 . S
C2746 C2747 1.370 . S
C2746 C2750 1.524 . S
C2747 C2739 1.503 . S
C2747 C2746 1.370 . S
C2747 C2748 1.403 . S
C2748 C2747 1.403 . S
C2748 C2749 1.384 1_655 S
C2748 C2751 1.539 . S
C2749 C2745 1.410 . S
C2749 C2748 1.384 1_455 S
C2749 H2761 0.948 . S
C2750 C2746 1.524 . S
C2750 H2762 0.956 . S
C2750 H2763 0.961 . S
C2750 H2764 0.961 . S
C2751 C2748 1.539 . S
C2751 H2765 0.958 . S
C2751 H2766 0.961 1_655 S
C2751 H2767 0.960 . S
H2752 C2736 0.931 . S
H2753 C2741 0.929 . S
H2754 C2742 0.960 . S
H2755 C2742 0.962 . S
H2756 C2742 0.960 . S
H2757 C2743 0.961 . S
H2758 C2743 0.961 . S
H2759 C2743 0.961 1_455 S
H2760 C2744 0.931 . S
H2761 C2749 0.948 . S
H2762 C2750 0.956 . S
H2763 C2750 0.961 . S
H2764 C2750 0.961 . S
H2765 C2751 0.958 . S
H2766 C2751 0.961 1_455 S
H2767 C2751 0.960 . S
C2768 C2769 1.391 . S
C2768 C2770 1.394 . S
C2768 H2784 0.931 . S
C2769 C2768 1.391 . S
C2769 C2773 1.376 . S
C2770 C2768 1.394 . S
C2770 C2771 1.369 . S
C2770 C2774 1.531 . S
C2771 C2770 1.369 . S
C2771 C2772 1.410 . S
C2771 C2779 1.503 . S
C2772 C2771 1.410 . S
C2772 C2773 1.392 . S
C2772 C2775 1.511 . S
C2773 C2769 1.376 . S
C2773 C2772 1.392 . S
C2773 H2785 0.929 . S
C2774 C2770 1.531 . S
C2774 H2786 0.960 . S
C2774 H2787 0.962 . S
C2774 H2788 0.960 . S
C2775 C2772 1.511 . S
C2775 H2789 0.961 . S
C2775 H2790 0.961 . S
C2775 H2791 0.961 . S
C2776 C2777 1.370 . S
C2776 C2778 1.363 . S
C2776 H2792 0.931 . S
C2777 C2776 1.370 . S
C2777 C2781 1.408 . S
C2778 C2776 1.363 . S
C2778 C2779 1.370 . S
C2778 C2782 1.524 . S
C2779 C2771 1.503 . S
C2779 C2778 1.370 . S
C2779 C2780 1.403 . S
C2780 C2779 1.403 . S
C2780 C2781 1.404 . S
C2780 C2783 1.539 . S
C2781 C2777 1.408 . S
C2781 C2780 1.404 . S
C2781 H2793 0.930 . S
C2782 C2778 1.524 . S
C2782 H2794 0.956 . S
C2782 H2795 0.961 . S
C2782 H2796 0.961 . S
C2783 C2780 1.539 . S
C2783 H2797 0.958 . S
C2783 H2798 0.961 . S
C2783 H2799 0.960 . S
H2784 C2768 0.931 . S
H2785 C2773 0.929 . S
H2786 C2774 0.960 . S
H2787 C2774 0.962 . S
H2788 C2774 0.960 . S
H2789 C2775 0.961 . S
H2790 C2775 0.961 . S
H2791 C2775 0.961 . S
H2792 C2776 0.931 . S
H2793 C2781 0.930 . S
H2794 C2782 0.956 . S
H2795 C2782 0.961 . S
H2796 C2782 0.961 . S
H2797 C2783 0.958 . S
H2798 C2783 0.961 . S
H2799 C2783 0.960 . S
C2800 C2801 1.391 . S
C2800 C2802 1.394 . S
C2800 H2816 0.931 . S
C2801 C2800 1.391 . S
C2801 C2805 1.376 . S
C2802 C2800 1.394 . S
C2802 C2803 1.369 . S
C2802 C2806 1.531 . S
C2803 C2802 1.369 . S
C2803 C2804 1.410 . S
C2803 C2811 1.503 . S
C2804 C2803 1.410 . S
C2804 C2805 1.392 . S
C2804 C2807 1.511 . S
C2805 C2801 1.376 . S
C2805 C2804 1.392 . S
C2805 H2817 0.929 . S
C2806 C2802 1.531 . S
C2806 H2818 0.960 . S
C2806 H2819 0.962 . S
C2806 H2820 0.960 . S
C2807 C2804 1.511 . S
C2807 H2821 0.961 . S
C2807 H2822 0.961 . S
C2807 H2823 0.961 . S
C2808 C2809 1.370 . S
C2808 C2810 1.363 . S
C2808 H2824 0.931 . S
C2809 C2808 1.370 . S
C2809 C2813 1.408 . S
C2810 C2808 1.363 . S
C2810 C2811 1.370 . S
C2810 C2814 1.524 . S
C2811 C2803 1.503 . S
C2811 C2810 1.370 . S
C2811 C2812 1.403 . S
C2812 C2811 1.403 . S
C2812 C2813 1.404 . S
C2812 C2815 1.539 . S
C2813 C2809 1.408 . S
C2813 C2812 1.404 . S
C2813 H2825 0.930 . S
C2814 C2810 1.524 . S
C2814 H2826 0.956 . S
C2814 H2827 0.961 . S
C2814 H2828 0.961 . S
C2815 C2812 1.539 . S
C2815 H2829 0.958 . S
C2815 H2830 0.961 . S
C2815 H2831 0.960 . S
H2816 C2800 0.931 . S
H2817 C2805 0.929 . S
H2818 C2806 0.960 . S
H2819 C2806 0.962 . S
H2820 C2806 0.960 . S
H2821 C2807 0.961 . S
H2822 C2807 0.961 . S
H2823 C2807 0.961 . S
H2824 C2808 0.931 . S
H2825 C2813 0.930 . S
H2826 C2814 0.956 . S
H2827 C2814 0.961 . S
H2828 C2814 0.961 . S
H2829 C2815 0.958 . S
H2830 C2815 0.961 . S
H2831 C2815 0.960 . S
C2832 C2833 1.391 . S
C2832 C2834 1.394 . S
C2832 H2848 0.931 . S
C2833 C2832 1.391 . S
C2833 C2837 1.376 . S
C2834 C2832 1.394 . S
C2834 C2835 1.369 . S
C2834 C2838 1.531 . S
C2835 C2834 1.369 . S
C2835 C2836 1.410 . S
C2835 C2843 1.503 . S
C2836 C2835 1.410 . S
C2836 C2837 1.392 . S
C2836 C2839 1.511 . S
C2837 C2833 1.376 . S
C2837 C2836 1.392 . S
C2837 H2849 0.929 . S
C2838 C2834 1.531 . S
C2838 H2850 0.960 . S
C2838 H2851 0.962 . S
C2838 H2852 0.960 . S
C2839 C2836 1.511 . S
C2839 H2853 0.961 . S
C2839 H2854 0.961 . S
C2839 H2855 0.961 . S
C2840 C2841 1.370 . S
C2840 C2842 1.363 . S
C2840 H2856 0.931 . S
C2841 C2840 1.370 . S
C2841 C2845 1.408 . S
C2842 C2840 1.363 . S
C2842 C2843 1.370 . S
C2842 C2846 1.524 . S
C2843 C2835 1.503 . S
C2843 C2842 1.370 . S
C2843 C2844 1.403 . S
C2844 C2843 1.403 . S
C2844 C2845 1.404 . S
C2844 C2847 1.539 . S
C2845 C2841 1.408 . S
C2845 C2844 1.404 . S
C2845 H2857 0.930 . S
C2846 C2842 1.524 . S
C2846 H2858 0.956 . S
C2846 H2859 0.961 . S
C2846 H2860 0.961 . S
C2847 C2844 1.539 . S
C2847 H2861 0.958 . S
C2847 H2862 0.961 . S
C2847 H2863 0.960 . S
H2848 C2832 0.931 . S
H2849 C2837 0.929 . S
H2850 C2838 0.960 . S
H2851 C2838 0.962 . S
H2852 C2838 0.960 . S
H2853 C2839 0.961 . S
H2854 C2839 0.961 . S
H2855 C2839 0.961 . S
H2856 C2840 0.931 . S
H2857 C2845 0.930 . S
H2858 C2846 0.956 . S
H2859 C2846 0.961 . S
H2860 C2846 0.961 . S
H2861 C2847 0.958 . S
H2862 C2847 0.961 . S
H2863 C2847 0.960 . S
C2864 C2865 1.391 . S
C2864 C2866 1.394 . S
C2864 H2880 0.931 . S
C2865 C2864 1.391 . S
C2865 C2869 1.376 . S
C2866 C2864 1.394 . S
C2866 C2867 1.369 . S
C2866 C2870 1.531 . S
C2867 C2866 1.369 . S
C2867 C2868 1.410 . S
C2867 C2875 1.503 . S
C2868 C2867 1.410 . S
C2868 C2869 1.392 . S
C2868 C2871 1.511 . S
C2869 C2865 1.376 . S
C2869 C2868 1.392 . S
C2869 H2881 0.929 . S
C2870 C2866 1.531 . S
C2870 H2882 0.960 . S
C2870 H2883 0.962 . S
C2870 H2884 0.960 . S
C2871 C2868 1.511 . S
C2871 H2885 0.961 . S
C2871 H2886 0.961 . S
C2871 H2887 0.961 . S
C2872 C2873 1.370 . S
C2872 C2874 1.363 . S
C2872 H2888 0.931 . S
C2873 C2872 1.370 . S
C2873 C2877 1.408 . S
C2874 C2872 1.363 . S
C2874 C2875 1.370 . S
C2874 C2878 1.524 . S
C2875 C2867 1.503 . S
C2875 C2874 1.370 . S
C2875 C2876 1.403 . S
C2876 C2875 1.403 . S
C2876 C2877 1.404 . S
C2876 C2879 1.539 . S
C2877 C2873 1.408 . S
C2877 C2876 1.404 . S
C2877 H2889 0.930 1_655 S
C2878 C2874 1.524 . S
C2878 H2890 0.956 . S
C2878 H2891 0.961 . S
C2878 H2892 0.961 . S
C2879 C2876 1.539 . S
C2879 H2893 0.958 . S
C2879 H2894 0.961 1_655 S
C2879 H2895 0.960 . S
H2880 C2864 0.931 . S
H2881 C2869 0.929 . S
H2882 C2870 0.960 . S
H2883 C2870 0.962 . S
H2884 C2870 0.960 . S
H2885 C2871 0.961 . S
H2886 C2871 0.961 . S
H2887 C2871 0.961 . S
H2888 C2872 0.931 . S
H2889 C2877 0.930 1_455 S
H2890 C2878 0.956 . S
H2891 C2878 0.961 . S
H2892 C2878 0.961 . S
H2893 C2879 0.958 . S
H2894 C2879 0.961 1_455 S
H2895 C2879 0.960 . S
C2896 C2897 1.391 . S
C2896 C2898 1.394 . S
C2896 H2912 0.931 . S
C2897 C2896 1.391 . S
C2897 C2901 1.376 . S
C2898 C2896 1.394 . S
C2898 C2899 1.369 . S
C2898 C2902 1.531 . S
C2899 C2898 1.369 . S
C2899 C2900 1.410 . S
C2899 C2907 1.503 . S
C2900 C2899 1.410 . S
C2900 C2901 1.392 . S
C2900 C2903 1.511 . S
C2901 C2897 1.376 . S
C2901 C2900 1.392 . S
C2901 H2913 0.929 . S
C2902 C2898 1.531 . S
C2902 H2914 0.960 . S
C2902 H2915 0.962 . S
C2902 H2916 0.960 . S
C2903 C2900 1.511 . S
C2903 H2917 0.961 . S
C2903 H2918 0.961 . S
C2903 H2919 0.961 . S
C2904 C2905 1.370 . S
C2904 C2906 1.363 . S
C2904 H2920 0.931 . S
C2905 C2904 1.370 . S
C2905 C2909 1.408 . S
C2906 C2904 1.363 . S
C2906 C2907 1.370 . S
C2906 C2910 1.524 . S
C2907 C2899 1.503 . S
C2907 C2906 1.370 . S
C2907 C2908 1.403 . S
C2908 C2907 1.403 . S
C2908 C2909 1.404 . S
C2908 C2911 1.539 . S
C2909 C2905 1.408 . S
C2909 C2908 1.404 . S
C2909 H2921 0.930 . S
C2910 C2906 1.524 . S
C2910 H2922 0.956 . S
C2910 H2923 0.961 . S
C2910 H2924 0.961 . S
C2911 C2908 1.539 . S
C2911 H2925 0.958 . S
C2911 H2926 0.961 . S
C2911 H2927 0.960 . S
H2912 C2896 0.931 . S
H2913 C2901 0.929 . S
H2914 C2902 0.960 . S
H2915 C2902 0.962 . S
H2916 C2902 0.960 . S
H2917 C2903 0.961 . S
H2918 C2903 0.961 . S
H2919 C2903 0.961 . S
H2920 C2904 0.931 . S
H2921 C2909 0.930 . S
H2922 C2910 0.956 . S
H2923 C2910 0.961 . S
H2924 C2910 0.961 . S
H2925 C2911 0.958 . S
H2926 C2911 0.961 . S
H2927 C2911 0.960 . S
C2928 C2929 1.391 . S
C2928 C2930 1.394 . S
C2928 H2944 0.931 . S
C2929 C2928 1.391 . S
C2929 C2933 1.376 . S
C2930 C2928 1.394 . S
C2930 C2931 1.369 . S
C2930 C2934 1.531 . S
C2931 C2930 1.369 . S
C2931 C2932 1.410 . S
C2931 C2939 1.503 . S
C2932 C2931 1.410 . S
C2932 C2933 1.392 . S
C2932 C2935 1.511 . S
C2933 C2929 1.376 . S
C2933 C2932 1.392 . S
C2933 H2945 0.929 . S
C2934 C2930 1.531 . S
C2934 H2946 0.960 . S
C2934 H2947 0.962 . S
C2934 H2948 0.960 . S
C2935 C2932 1.511 . S
C2935 H2949 0.961 . S
C2935 H2950 0.961 . S
C2935 H2951 0.961 . S
C2936 C2937 1.370 . S
C2936 C2938 1.363 . S
C2936 H2952 0.931 . S
C2937 C2936 1.370 . S
C2937 C2941 1.408 . S
C2938 C2936 1.363 . S
C2938 C2939 1.370 . S
C2938 C2942 1.524 . S
C2939 C2931 1.503 . S
C2939 C2938 1.370 . S
C2939 C2940 1.403 . S
C2940 C2939 1.403 . S
C2940 C2941 1.404 . S
C2940 C2943 1.539 . S
C2941 C2937 1.408 . S
C2941 C2940 1.404 . S
C2941 H2953 0.930 . S
C2942 C2938 1.524 . S
C2942 H2954 0.956 . S
C2942 H2955 0.961 . S
C2942 H2956 0.961 . S
C2943 C2940 1.539 . S
C2943 H2957 0.958 . S
C2943 H2958 0.961 . S
C2943 H2959 0.960 . S
H2944 C2928 0.931 . S
H2945 C2933 0.929 . S
H2946 C2934 0.960 . S
H2947 C2934 0.962 . S
H2948 C2934 0.960 . S
H2949 C2935 0.961 . S
H2950 C2935 0.961 . S
H2951 C2935 0.961 . S
H2952 C2936 0.931 . S
H2953 C2941 0.930 . S
H2954 C2942 0.956 . S
H2955 C2942 0.961 . S
H2956 C2942 0.961 . S
H2957 C2943 0.958 . S
H2958 C2943 0.961 . S
H2959 C2943 0.960 . S
C2960 C2961 1.391 . S
C2960 C2962 1.394 . S
C2960 H2976 0.931 . S
C2961 C2960 1.391 . S
C2961 C2965 1.376 . S
C2962 C2960 1.394 . S
C2962 C2963 1.369 . S
C2962 C2966 1.531 . S
C2963 C2962 1.369 . S
C2963 C2964 1.410 . S
C2963 C2971 1.503 . S
C2964 C2963 1.410 . S
C2964 C2965 1.392 . S
C2964 C2967 1.511 . S
C2965 C2961 1.376 . S
C2965 C2964 1.392 . S
C2965 H2977 0.929 . S
C2966 C2962 1.531 . S
C2966 H2978 0.960 . S
C2966 H2979 0.962 . S
C2966 H2980 0.960 . S
C2967 C2964 1.511 . S
C2967 H2981 0.961 . S
C2967 H2982 0.961 . S
C2967 H2983 0.961 . S
C2968 C2969 1.370 . S
C2968 C2970 1.363 . S
C2968 H2984 0.931 . S
C2969 C2968 1.370 . S
C2969 C2973 1.408 1_565 S
C2970 C2968 1.363 . S
C2970 C2971 1.370 . S
C2970 C2974 1.524 . S
C2971 C2963 1.503 . S
C2971 C2970 1.370 . S
C2971 C2972 1.403 . S
C2972 C2971 1.403 . S
C2972 C2973 1.404 1_565 S
C2972 C2975 1.539 1_565 S
C2973 C2969 1.408 1_545 S
C2973 C2972 1.404 1_545 S
C2973 H2985 0.930 . S
C2974 C2970 1.524 . S
C2974 H2986 0.956 . S
C2974 H2987 0.961 . S
C2974 H2988 0.961 . S
C2975 C2972 1.539 1_545 S
C2975 H2989 0.958 . S
C2975 H2990 0.961 . S
C2975 H2991 0.937 1_545 S
H2976 C2960 0.931 . S
H2977 C2965 0.929 . S
H2978 C2966 0.960 . S
H2979 C2966 0.962 . S
H2980 C2966 0.960 . S
H2981 C2967 0.961 . S
H2982 C2967 0.961 . S
H2983 C2967 0.961 . S
H2984 C2968 0.931 . S
H2985 C2973 0.930 . S
H2986 C2974 0.956 . S
H2987 C2974 0.961 . S
H2988 C2974 0.961 . S
H2989 C2975 0.958 . S
H2990 C2975 0.961 . S
H2991 C2975 0.937 1_565 S
C2992 C2993 1.391 . S
C2992 C2994 1.394 . S
C2992 H3008 0.931 . S
C2993 C2992 1.391 . S
C2993 C2997 1.376 . S
C2994 C2992 1.394 . S
C2994 C2995 1.369 . S
C2994 C2998 1.531 . S
C2995 C2994 1.369 . S
C2995 C2996 1.410 . S
C2995 C3003 1.503 . S
C2996 C2995 1.410 . S
C2996 C2997 1.392 . S
C2996 C2999 1.511 . S
C2997 C2993 1.376 . S
C2997 C2996 1.392 . S
C2997 H3009 0.929 . S
C2998 C2994 1.531 . S
C2998 H3010 0.960 . S
C2998 H3011 0.962 . S
C2998 H3012 0.960 . S
C2999 C2996 1.511 . S
C2999 H3013 0.961 . S
C2999 H3014 0.961 . S
C2999 H3015 0.961 . S
C3000 C3001 1.370 . S
C3000 C3002 1.363 . S
C3000 H3016 0.931 . S
C3001 C3000 1.370 . S
C3001 C3005 1.408 . S
C3002 C3000 1.363 . S
C3002 C3003 1.370 . S
C3002 C3006 1.524 . S
C3003 C2995 1.503 . S
C3003 C3002 1.370 . S
C3003 C3004 1.403 . S
C3004 C3003 1.403 . S
C3004 C3005 1.404 . S
C3004 C3007 1.539 . S
C3005 C3001 1.408 . S
C3005 C3004 1.404 . S
C3005 H3017 0.930 . S
C3006 C3002 1.524 . S
C3006 H3018 0.956 . S
C3006 H3019 0.961 . S
C3006 H3020 0.961 . S
C3007 C3004 1.539 . S
C3007 H3021 0.958 . S
C3007 H3022 0.961 . S
C3007 H3023 0.960 . S
H3008 C2992 0.931 . S
H3009 C2997 0.929 . S
H3010 C2998 0.960 . S
H3011 C2998 0.962 . S
H3012 C2998 0.960 . S
H3013 C2999 0.961 . S
H3014 C2999 0.961 . S
H3015 C2999 0.961 . S
H3016 C3000 0.931 . S
H3017 C3005 0.930 . S
H3018 C3006 0.956 . S
H3019 C3006 0.961 . S
H3020 C3006 0.961 . S
H3021 C3007 0.958 . S
H3022 C3007 0.961 . S
H3023 C3007 0.960 . S
C3024 C3025 1.391 . S
C3024 C3026 1.394 . S
C3024 H3040 0.931 . S
C3025 C3024 1.391 . S
C3025 C3029 1.376 . S
C3026 C3024 1.394 . S
C3026 C3027 1.369 . S
C3026 C3030 1.531 . S
C3027 C3026 1.369 . S
C3027 C3028 1.410 . S
C3027 C3035 1.503 . S
C3028 C3027 1.410 . S
C3028 C3029 1.392 . S
C3028 C3031 1.511 . S
C3029 C3025 1.376 . S
C3029 C3028 1.392 . S
C3029 H3041 0.929 . S
C3030 C3026 1.531 . S
C3030 H3042 0.960 . S
C3030 H3043 0.962 . S
C3030 H3044 0.960 . S
C3031 C3028 1.511 . S
C3031 H3045 0.961 . S
C3031 H3046 0.961 . S
C3031 H3047 0.961 . S
C3032 C3033 1.370 . S
C3032 C3034 1.363 . S
C3032 H3048 0.931 . S
C3033 C3032 1.370 . S
C3033 C3037 1.408 . S
C3034 C3032 1.363 . S
C3034 C3035 1.370 . S
C3034 C3038 1.524 . S
C3035 C3027 1.503 . S
C3035 C3034 1.370 . S
C3035 C3036 1.403 . S
C3036 C3035 1.403 . S
C3036 C3037 1.404 . S
C3036 C3039 1.539 1_554 S
C3037 C3033 1.408 . S
C3037 C3036 1.404 . S
C3037 H3049 0.930 . S
C3038 C3034 1.524 . S
C3038 H3050 0.956 . S
C3038 H3051 0.961 . S
C3038 H3052 0.961 . S
C3039 C3036 1.539 1_556 S
C3039 H3053 0.958 . S
C3039 H3054 0.961 . S
C3039 H3055 0.960 . S
H3040 C3024 0.931 . S
H3041 C3029 0.929 . S
H3042 C3030 0.960 . S
H3043 C3030 0.962 . S
H3044 C3030 0.960 . S
H3045 C3031 0.961 . S
H3046 C3031 0.961 . S
H3047 C3031 0.961 . S
H3048 C3032 0.931 . S
H3049 C3037 0.930 . S
H3050 C3038 0.956 . S
H3051 C3038 0.961 . S
H3052 C3038 0.961 . S
H3053 C3039 0.958 . S
H3054 C3039 0.961 . S
H3055 C3039 0.960 . S
C3056 C3057 1.391 . S
C3056 C3058 1.394 . S
C3056 H3072 0.931 . S
C3057 C3056 1.391 . S
C3057 C3061 1.376 . S
C3058 C3056 1.394 . S
C3058 C3059 1.369 . S
C3058 C3062 1.531 . S
C3059 C3058 1.369 . S
C3059 C3060 1.410 . S
C3059 C3067 1.503 . S
C3060 C3059 1.410 . S
C3060 C3061 1.392 . S
C3060 C3063 1.511 . S
C3061 C3057 1.376 . S
C3061 C3060 1.392 . S
C3061 H3073 0.929 . S
C3062 C3058 1.531 . S
C3062 H3074 0.960 . S
C3062 H3075 0.962 . S
C3062 H3076 0.960 . S
C3063 C3060 1.511 . S
C3063 H3077 0.961 . S
C3063 H3078 0.961 . S
C3063 H3079 0.961 . S
C3064 C3065 1.370 . S
C3064 C3066 1.363 . S
C3064 H3080 0.931 . S
C3065 C3064 1.370 . S
C3065 C3069 1.408 . S
C3066 C3064 1.363 . S
C3066 C3067 1.370 . S
C3066 C3070 1.524 . S
C3067 C3059 1.503 . S
C3067 C3066 1.370 . S
C3067 C3068 1.403 . S
C3068 C3067 1.403 . S
C3068 C3069 1.404 . S
C3068 C3071 1.539 . S
C3069 C3065 1.408 . S
C3069 C3068 1.404 . S
C3069 H3081 0.930 . S
C3070 C3066 1.524 . S
C3070 H3082 0.956 . S
C3070 H3083 0.961 . S
C3070 H3084 0.961 . S
C3071 C3068 1.539 . S
C3071 H3085 0.958 . S
C3071 H3086 0.961 . S
C3071 H3087 0.960 . S
H3072 C3056 0.931 . S
H3073 C3061 0.929 . S
H3074 C3062 0.960 . S
H3075 C3062 0.962 . S
H3076 C3062 0.960 . S
H3077 C3063 0.961 . S
H3078 C3063 0.961 . S
H3079 C3063 0.961 . S
H3080 C3064 0.931 . S
H3081 C3069 0.930 . S
H3082 C3070 0.956 . S
H3083 C3070 0.961 . S
H3084 C3070 0.961 . S
H3085 C3071 0.958 . S
H3086 C3071 0.961 . S
H3087 C3071 0.960 . S
C3088 C3089 1.391 . S
C3088 C3090 1.394 . S
C3088 H3104 0.931 . S
C3089 C3088 1.391 . S
C3089 C3093 1.376 . S
C3090 C3088 1.394 . S
C3090 C3091 1.369 . S
C3090 C3094 1.531 1_554 S
C3091 C3090 1.369 . S
C3091 C3092 1.410 . S
C3091 C3099 1.503 . S
C3092 C3091 1.410 . S
C3092 C3093 1.392 . S
C3092 C3095 1.511 . S
C3093 C3089 1.376 . S
C3093 C3092 1.392 . S
C3093 H3105 0.929 . S
C3094 C3090 1.531 1_556 S
C3094 H3106 0.960 . S
C3094 H3107 0.962 . S
C3094 H3108 0.960 . S
C3095 C3092 1.511 . S
C3095 H3109 0.961 . S
C3095 H3110 0.961 . S
C3095 H3111 0.961 . S
C3096 C3097 1.370 . S
C3096 C3098 1.363 . S
C3096 H3112 0.931 . S
C3097 C3096 1.370 . S
C3097 C3101 1.408 . S
C3098 C3096 1.363 . S
C3098 C3099 1.370 . S
C3098 C3102 1.524 . S
C3099 C3091 1.503 . S
C3099 C3098 1.370 . S
C3099 C3100 1.403 . S
C3100 C3099 1.403 . S
C3100 C3101 1.404 . S
C3100 C3103 1.539 . S
C3101 C3097 1.408 . S
C3101 C3100 1.404 . S
C3101 H3113 0.930 . S
C3102 C3098 1.524 . S
C3102 H3114 0.956 . S
C3102 H3115 0.961 . S
C3102 H3116 0.961 . S
C3103 C3100 1.539 . S
C3103 H3117 0.958 . S
C3103 H3118 0.961 . S
C3103 H3119 0.960 . S
H3104 C3088 0.931 . S
H3105 C3093 0.929 . S
H3106 C3094 0.960 . S
H3107 C3094 0.962 . S
H3108 C3094 0.960 . S
H3109 C3095 0.961 . S
H3110 C3095 0.961 . S
H3111 C3095 0.961 . S
H3112 C3096 0.931 . S
H3113 C3101 0.930 . S
H3114 C3102 0.956 . S
H3115 C3102 0.961 . S
H3116 C3102 0.961 . S
H3117 C3103 0.958 . S
H3118 C3103 0.961 . S
H3119 C3103 0.960 . S
C3120 C3121 1.391 . S
C3120 C3122 1.394 . S
C3120 H3136 0.931 . S
C3121 C3120 1.391 . S
C3121 C3125 1.376 . S
C3122 C3120 1.394 . S
C3122 C3123 1.369 . S
C3122 C3126 1.531 . S
C3123 C3122 1.369 . S
C3123 C3124 1.410 . S
C3123 C3131 1.503 . S
C3124 C3123 1.410 . S
C3124 C3125 1.392 . S
C3124 C3127 1.511 . S
C3125 C3121 1.376 . S
C3125 C3124 1.392 . S
C3125 H3137 0.929 . S
C3126 C3122 1.531 . S
C3126 H3138 0.960 . S
C3126 H3139 0.962 . S
C3126 H3140 0.960 . S
C3127 C3124 1.511 . S
C3127 H3141 0.961 . S
C3127 H3142 0.961 . S
C3127 H3143 0.961 . S
C3128 C3129 1.370 . S
C3128 C3130 1.363 . S
C3128 H3144 0.931 . S
C3129 C3128 1.370 . S
C3129 C3133 1.408 . S
C3130 C3128 1.363 . S
C3130 C3131 1.370 . S
C3130 C3134 1.524 . S
C3131 C3123 1.503 . S
C3131 C3130 1.370 . S
C3131 C3132 1.403 . S
C3132 C3131 1.403 . S
C3132 C3133 1.404 . S
C3132 C3135 1.539 . S
C3133 C3129 1.408 . S
C3133 C3132 1.404 . S
C3133 H3145 0.930 . S
C3134 C3130 1.524 . S
C3134 H3146 0.956 . S
C3134 H3147 0.961 . S
C3134 H3148 0.961 . S
C3135 C3132 1.539 . S
C3135 H3149 0.958 . S
C3135 H3150 0.961 . S
C3135 H3151 0.960 . S
H3136 C3120 0.931 . S
H3137 C3125 0.929 . S
H3138 C3126 0.960 . S
H3139 C3126 0.962 . S
H3140 C3126 0.960 . S
H3141 C3127 0.961 . S
H3142 C3127 0.961 . S
H3143 C3127 0.961 . S
H3144 C3128 0.931 . S
H3145 C3133 0.930 . S
H3146 C3134 0.956 . S
H3147 C3134 0.961 . S
H3148 C3134 0.961 . S
H3149 C3135 0.958 . S
H3150 C3135 0.961 . S
H3151 C3135 0.960 . S
C3152 C3153 1.391 . S
C3152 C3154 1.394 . S
C3152 H3168 0.931 . S
C3153 C3152 1.391 . S
C3153 C3157 1.376 . S
C3154 C3152 1.394 . S
C3154 C3155 1.369 . S
C3154 C3158 1.531 . S
C3155 C3154 1.369 . S
C3155 C3156 1.410 . S
C3155 C3163 1.503 . S
C3156 C3155 1.410 . S
C3156 C3157 1.392 . S
C3156 C3159 1.511 . S
C3157 C3153 1.376 . S
C3157 C3156 1.392 . S
C3157 H3169 0.929 . S
C3158 C3154 1.531 . S
C3158 H3170 0.960 . S
C3158 H3171 0.962 . S
C3158 H3172 0.960 . S
C3159 C3156 1.511 . S
C3159 H3173 0.961 . S
C3159 H3174 0.961 . S
C3159 H3175 0.961 . S
C3160 C3161 1.370 . S
C3160 C3162 1.363 . S
C3160 H3176 0.931 . S
C3161 C3160 1.370 . S
C3161 C3165 1.408 . S
C3162 C3160 1.363 . S
C3162 C3163 1.370 . S
C3162 C3166 1.524 . S
C3163 C3155 1.503 . S
C3163 C3162 1.370 . S
C3163 C3164 1.403 . S
C3164 C3163 1.403 . S
C3164 C3165 1.404 . S
C3164 C3167 1.539 . S
C3165 C3161 1.408 . S
C3165 C3164 1.404 . S
C3165 H3177 0.930 . S
C3166 C3162 1.524 . S
C3166 H3178 0.956 . S
C3166 H3179 0.961 . S
C3166 H3180 0.961 . S
C3167 C3164 1.539 . S
C3167 H3181 0.958 . S
C3167 H3182 0.961 . S
C3167 H3183 0.960 . S
H3168 C3152 0.931 . S
H3169 C3157 0.929 . S
H3170 C3158 0.960 . S
H3171 C3158 0.962 . S
H3172 C3158 0.960 . S
H3173 C3159 0.961 . S
H3174 C3159 0.961 . S
H3175 C3159 0.961 . S
H3176 C3160 0.931 . S
H3177 C3165 0.930 . S
H3178 C3166 0.956 . S
H3179 C3166 0.961 . S
H3180 C3166 0.961 . S
H3181 C3167 0.958 . S
H3182 C3167 0.961 . S
H3183 C3167 0.960 . S
C3184 C3185 1.391 . S
C3184 C3186 1.394 . S
C3184 H3200 0.931 . S
C3185 C3184 1.391 . S
C3185 C3189 1.376 . S
C3186 C3184 1.394 . S
C3186 C3187 1.369 . S
C3186 C3190 1.531 . S
C3187 C3186 1.369 . S
C3187 C3188 1.410 . S
C3187 C3195 1.503 . S
C3188 C3187 1.410 . S
C3188 C3189 1.392 . S
C3188 C3191 1.511 . S
C3189 C3185 1.376 . S
C3189 C3188 1.392 . S
C3189 H3201 0.929 . S
C3190 C3186 1.531 . S
C3190 H3202 0.960 . S
C3190 H3203 0.962 . S
C3190 H3204 0.960 . S
C3191 C3188 1.511 . S
C3191 H3205 0.961 . S
C3191 H3206 0.961 . S
C3191 H3207 0.961 . S
C3192 C3193 1.370 . S
C3192 C3194 1.363 . S
C3192 H3208 0.931 . S
C3193 C3192 1.370 . S
C3193 C3197 1.408 . S
C3194 C3192 1.363 . S
C3194 C3195 1.370 . S
C3194 C3198 1.524 . S
C3195 C3187 1.503 . S
C3195 C3194 1.370 . S
C3195 C3196 1.403 . S
C3196 C3195 1.403 . S
C3196 C3197 1.404 . S
C3196 C3199 1.539 . S
C3197 C3193 1.408 . S
C3197 C3196 1.404 . S
C3197 H3209 0.930 . S
C3198 C3194 1.524 . S
C3198 H3210 0.956 . S
C3198 H3211 0.961 . S
C3198 H3212 0.961 . S
C3199 C3196 1.539 . S
C3199 H3213 0.958 . S
C3199 H3214 0.961 . S
C3199 H3215 0.960 . S
H3200 C3184 0.931 . S
H3201 C3189 0.929 . S
H3202 C3190 0.960 . S
H3203 C3190 0.962 . S
H3204 C3190 0.960 . S
H3205 C3191 0.961 . S
H3206 C3191 0.961 . S
H3207 C3191 0.961 . S
H3208 C3192 0.931 . S
H3209 C3197 0.930 . S
H3210 C3198 0.956 . S
H3211 C3198 0.961 . S
H3212 C3198 0.961 . S
H3213 C3199 0.958 . S
H3214 C3199 0.961 . S
H3215 C3199 0.960 . S
C3216 C3217 1.391 . S
C3216 C3218 1.394 . S
C3216 H3232 0.931 . S
C3217 C3216 1.391 . S
C3217 C3221 1.376 . S
C3218 C3216 1.394 . S
C3218 C3219 1.369 . S
C3218 C3222 1.531 . S
C3219 C3218 1.369 . S
C3219 C3220 1.410 . S
C3219 C3227 1.503 . S
C3220 C3219 1.410 . S
C3220 C3221 1.392 . S
C3220 C3223 1.511 . S
C3221 C3217 1.376 . S
C3221 C3220 1.392 . S
C3221 H3233 0.929 . S
C3222 C3218 1.531 . S
C3222 H3234 0.960 . S
C3222 H3235 0.962 . S
C3222 H3236 0.960 . S
C3223 C3220 1.511 . S
C3223 H3237 0.961 . S
C3223 H3238 0.961 . S
C3223 H3239 0.961 . S
C3224 C3225 1.370 . S
C3224 C3226 1.363 . S
C3224 H3240 0.931 . S
C3225 C3224 1.370 . S
C3225 C3229 1.408 . S
C3226 C3224 1.363 . S
C3226 C3227 1.370 . S
C3226 C3230 1.524 . S
C3227 C3219 1.503 . S
C3227 C3226 1.370 . S
C3227 C3228 1.403 . S
C3228 C3227 1.403 . S
C3228 C3229 1.404 . S
C3228 C3231 1.539 . S
C3229 C3225 1.408 . S
C3229 C3228 1.404 . S
C3229 H3241 0.930 . S
C3230 C3226 1.524 . S
C3230 H3242 0.956 . S
C3230 H3243 0.961 . S
C3230 H3244 0.961 . S
C3231 C3228 1.539 . S
C3231 H3245 0.958 . S
C3231 H3246 0.961 . S
C3231 H3247 0.960 . S
H3232 C3216 0.931 . S
H3233 C3221 0.929 . S
H3234 C3222 0.960 . S
H3235 C3222 0.962 . S
H3236 C3222 0.960 . S
H3237 C3223 0.961 . S
H3238 C3223 0.961 . S
H3239 C3223 0.961 . S
H3240 C3224 0.931 . S
H3241 C3229 0.930 . S
H3242 C3230 0.956 . S
H3243 C3230 0.961 . S
H3244 C3230 0.961 . S
H3245 C3231 0.958 . S
H3246 C3231 0.961 . S
H3247 C3231 0.960 . S
C3248 C3249 1.363 1_455 S
C3248 C3250 1.394 . S
C3248 H3264 0.931 . S
C3249 C3248 1.363 1_655 S
C3249 C3253 1.409 . S
C3250 C3248 1.394 . S
C3250 C3251 1.369 1_455 S
C3250 C3254 1.531 . S
C3251 C3250 1.369 1_655 S
C3251 C3252 1.410 . S
C3251 C3259 1.503 . S
C3252 C3251 1.410 . S
C3252 C3253 1.392 . S
C3252 C3255 1.511 . S
C3253 C3249 1.409 . S
C3253 C3252 1.392 . S
C3253 H3265 0.929 . S
C3254 C3250 1.531 . S
C3254 H3266 0.960 . S
C3254 H3267 0.962 . S
C3254 H3268 0.960 . S
C3255 C3252 1.511 . S
C3255 H3269 0.961 . S
C3255 H3270 0.961 . S
C3255 H3271 0.961 . S
C3256 C3257 1.370 1_455 S
C3256 C3258 1.363 . S
C3256 H3272 0.931 . S
C3257 C3256 1.370 1_655 S
C3257 C3261 1.408 . S
C3258 C3256 1.363 . S
C3258 C3259 1.370 1_455 S
C3258 C3262 1.524 . S
C3259 C3251 1.503 . S
C3259 C3258 1.370 1_655 S
C3259 C3260 1.403 . S
C3260 C3259 1.403 . S
C3260 C3261 1.404 . S
C3260 C3263 1.539 . S
C3261 C3257 1.408 . S
C3261 C3260 1.404 . S
C3261 H3273 0.930 1_556 S
C3262 C3258 1.524 . S
C3262 H3274 0.956 . S
C3262 H3275 0.961 . S
C3262 H3276 0.961 . S
C3263 C3260 1.539 . S
C3263 H3277 0.958 . S
C3263 H3278 0.961 . S
C3263 H3279 0.960 . S
H3264 C3248 0.931 . S
H3265 C3253 0.929 . S
H3266 C3254 0.960 . S
H3267 C3254 0.962 . S
H3268 C3254 0.960 . S
H3269 C3255 0.961 . S
H3270 C3255 0.961 . S
H3271 C3255 0.961 . S
H3272 C3256 0.931 . S
H3273 C3261 0.930 1_554 S
H3274 C3262 0.956 . S
H3275 C3262 0.961 . S
H3276 C3262 0.961 . S
H3277 C3263 0.958 . S
H3278 C3263 0.961 . S
H3279 C3263 0.960 . S
C3280 C3281 1.391 . S
C3280 C3282 1.394 . S
C3280 H3296 0.931 . S
C3281 C3280 1.391 . S
C3281 C3285 1.376 . S
C3282 C3280 1.394 . S
C3282 C3283 1.369 . S
C3282 C3286 1.531 . S
C3283 C3282 1.369 . S
C3283 C3284 1.410 . S
C3283 C3291 1.503 . S
C3284 C3283 1.410 . S
C3284 C3285 1.392 . S
C3284 C3287 1.511 . S
C3285 C3281 1.376 . S
C3285 C3284 1.392 . S
C3285 H3297 0.929 . S
C3286 C3282 1.531 . S
C3286 H3298 0.960 . S
C3286 H3299 0.962 . S
C3286 H3300 0.960 . S
C3287 C3284 1.511 . S
C3287 H3301 0.961 . S
C3287 H3302 0.961 . S
C3287 H3303 0.961 . S
C3288 C3289 1.370 . S
C3288 C3290 1.363 . S
C3288 H3304 0.931 . S
C3289 C3288 1.370 . S
C3289 C3293 1.408 . S
C3290 C3288 1.363 . S
C3290 C3291 1.370 . S
C3290 C3294 1.524 . S
C3291 C3283 1.503 . S
C3291 C3290 1.370 . S
C3291 C3292 1.403 . S
C3292 C3291 1.403 . S
C3292 C3293 1.404 . S
C3292 C3295 1.539 . S
C3293 C3289 1.408 . S
C3293 C3292 1.404 . S
C3293 H3305 0.930 . S
C3294 C3290 1.524 . S
C3294 H3306 0.956 . S
C3294 H3307 0.961 . S
C3294 H3308 0.961 . S
C3295 C3292 1.539 . S
C3295 H3309 0.958 . S
C3295 H3310 0.961 . S
C3295 H3311 0.960 . S
H3296 C3280 0.931 . S
H3297 C3285 0.929 . S
H3298 C3286 0.960 . S
H3299 C3286 0.962 . S
H3300 C3286 0.960 . S
H3301 C3287 0.961 . S
H3302 C3287 0.961 . S
H3303 C3287 0.961 . S
H3304 C3288 0.931 . S
H3305 C3293 0.930 . S
H3306 C3294 0.956 . S
H3307 C3294 0.961 . S
H3308 C3294 0.961 . S
H3309 C3295 0.958 . S
H3310 C3295 0.961 . S
H3311 C3295 0.960 . S
C3312 C3313 1.391 . S
C3312 C3314 1.394 . S
C3312 H3328 0.931 . S
C3313 C3312 1.391 . S
C3313 C3317 1.376 . S
C3314 C3312 1.394 . S
C3314 C3315 1.369 . S
C3314 C3318 1.531 . S
C3315 C3314 1.369 . S
C3315 C3316 1.410 . S
C3315 C3323 1.503 . S
C3316 C3315 1.410 . S
C3316 C3317 1.392 . S
C3316 C3319 1.511 . S
C3317 C3313 1.376 . S
C3317 C3316 1.392 . S
C3317 H3329 0.929 . S
C3318 C3314 1.531 . S
C3318 H3330 0.960 . S
C3318 H3331 0.962 . S
C3318 H3332 0.960 . S
C3319 C3316 1.511 . S
C3319 H3333 0.961 . S
C3319 H3334 0.961 . S
C3319 H3335 0.961 . S
C3320 C3321 1.370 . S
C3320 C3322 1.363 . S
C3320 H3336 0.931 . S
C3321 C3320 1.370 . S
C3321 C3325 1.408 . S
C3322 C3320 1.363 . S
C3322 C3323 1.370 . S
C3322 C3326 1.524 . S
C3323 C3315 1.503 . S
C3323 C3322 1.370 . S
C3323 C3324 1.403 . S
C3324 C3323 1.403 . S
C3324 C3325 1.404 . S
C3324 C3327 1.539 . S
C3325 C3321 1.408 . S
C3325 C3324 1.404 . S
C3325 H3337 0.930 . S
C3326 C3322 1.524 . S
C3326 H3338 0.956 . S
C3326 H3339 0.961 . S
C3326 H3340 0.961 . S
C3327 C3324 1.539 . S
C3327 H3341 0.958 . S
C3327 H3342 0.961 . S
C3327 H3343 0.960 . S
H3328 C3312 0.931 . S
H3329 C3317 0.929 . S
H3330 C3318 0.960 . S
H3331 C3318 0.962 . S
H3332 C3318 0.960 . S
H3333 C3319 0.961 . S
H3334 C3319 0.961 . S
H3335 C3319 0.961 . S
H3336 C3320 0.931 . S
H3337 C3325 0.930 . S
H3338 C3326 0.956 . S
H3339 C3326 0.961 . S
H3340 C3326 0.961 . S
H3341 C3327 0.958 . S
H3342 C3327 0.961 . S
H3343 C3327 0.960 . S
C3344 C3345 1.391 . S
C3344 C3346 1.394 . S
C3344 H3360 0.931 . S
C3345 C3344 1.391 . S
C3345 C3349 1.376 . S
C3346 C3344 1.394 . S
C3346 C3347 1.369 . S
C3346 C3350 1.531 . S
C3347 C3346 1.369 . S
C3347 C3348 1.410 . S
C3347 C3355 1.503 . S
C3348 C3347 1.410 . S
C3348 C3349 1.392 . S
C3348 C3351 1.511 . S
C3349 C3345 1.376 . S
C3349 C3348 1.392 . S
C3349 H3361 0.929 . S
C3350 C3346 1.531 . S
C3350 H3362 0.960 . S
C3350 H3363 0.962 . S
C3350 H3364 0.960 . S
C3351 C3348 1.511 . S
C3351 H3365 0.961 . S
C3351 H3366 0.961 . S
C3351 H3367 0.961 . S
C3352 C3353 1.370 . S
C3352 C3354 1.363 . S
C3352 H3368 0.931 . S
C3353 C3352 1.370 . S
C3353 C3357 1.408 . S
C3354 C3352 1.363 . S
C3354 C3355 1.370 . S
C3354 C3358 1.524 . S
C3355 C3347 1.503 . S
C3355 C3354 1.370 . S
C3355 C3356 1.403 . S
C3356 C3355 1.403 . S
C3356 C3357 1.404 . S
C3356 C3359 1.539 . S
C3357 C3353 1.408 . S
C3357 C3356 1.404 . S
C3357 H3369 0.930 . S
C3358 C3354 1.524 . S
C3358 H3370 0.956 . S
C3358 H3371 0.961 . S
C3358 H3372 0.961 . S
C3359 C3356 1.539 . S
C3359 H3373 0.958 . S
C3359 H3374 0.961 . S
C3359 H3375 0.960 . S
H3360 C3344 0.931 . S
H3361 C3349 0.929 . S
H3362 C3350 0.960 . S
H3363 C3350 0.962 . S
H3364 C3350 0.960 . S
H3365 C3351 0.961 . S
H3366 C3351 0.961 . S
H3367 C3351 0.961 . S
H3368 C3352 0.931 . S
H3369 C3357 0.930 . S
H3370 C3358 0.956 . S
H3371 C3358 0.961 . S
H3372 C3358 0.961 . S
H3373 C3359 0.958 . S
H3374 C3359 0.961 . S
H3375 C3359 0.960 . S
C3376 C3377 1.391 . S
C3376 C3378 1.394 . S
C3376 H3392 0.931 . S
C3377 C3376 1.391 . S
C3377 C3381 1.376 . S
C3378 C3376 1.394 . S
C3378 C3379 1.369 . S
C3378 C3382 1.531 1_455 S
C3379 C3378 1.369 . S
C3379 C3380 1.410 . S
C3379 C3387 1.503 . S
C3380 C3379 1.410 . S
C3380 C3381 1.392 . S
C3380 C3383 1.511 . S
C3381 C3377 1.376 . S
C3381 C3380 1.392 . S
C3381 H3393 0.929 . S
C3382 C3378 1.531 1_655 S
C3382 H3394 0.960 . S
C3382 H3395 0.962 . S
C3382 H3396 0.960 . S
C3383 C3380 1.511 . S
C3383 H3397 0.961 . S
C3383 H3398 0.961 . S
C3383 H3399 0.961 . S
C3384 C3385 1.370 . S
C3384 C3386 1.363 . S
C3384 H3400 0.931 . S
C3385 C3384 1.370 . S
C3385 C3389 1.408 . S
C3386 C3384 1.363 . S
C3386 C3387 1.370 . S
C3386 C3390 1.524 . S
C3387 C3379 1.503 . S
C3387 C3386 1.370 . S
C3387 C3388 1.403 . S
C3388 C3387 1.403 . S
C3388 C3389 1.404 . S
C3388 C3391 1.539 . S
C3389 C3385 1.408 . S
C3389 C3388 1.404 . S
C3389 H3401 0.930 . S
C3390 C3386 1.524 . S
C3390 H3402 0.956 1_455 S
C3390 H3403 0.961 . S
C3390 H3404 0.961 1_455 S
C3391 C3388 1.539 . S
C3391 H3405 0.958 . S
C3391 H3406 0.961 . S
C3391 H3407 0.960 . S
H3392 C3376 0.931 . S
H3393 C3381 0.929 . S
H3394 C3382 0.960 . S
H3395 C3382 0.962 . S
H3396 C3382 0.960 . S
H3397 C3383 0.961 . S
H3398 C3383 0.961 . S
H3399 C3383 0.961 . S
H3400 C3384 0.931 . S
H3401 C3389 0.930 . S
H3402 C3390 0.956 1_655 S
H3403 C3390 0.961 . S
H3404 C3390 0.961 1_655 S
H3405 C3391 0.958 . S
H3406 C3391 0.961 . S
H3407 C3391 0.960 . S
C3408 C3409 1.391 . S
C3408 C3410 1.394 . S
C3408 H3424 0.931 . S
C3409 C3408 1.391 . S
C3409 C3413 1.376 . S
C3410 C3408 1.394 . S
C3410 C3411 1.369 . S
C3410 C3414 1.531 . S
C3411 C3410 1.369 . S
C3411 C3412 1.410 . S
C3411 C3419 1.503 . S
C3412 C3411 1.410 . S
C3412 C3413 1.392 . S
C3412 C3415 1.511 . S
C3413 C3409 1.376 . S
C3413 C3412 1.392 . S
C3413 H3425 0.929 . S
C3414 C3410 1.531 . S
C3414 H3426 0.960 . S
C3414 H3427 0.962 . S
C3414 H3428 0.960 . S
C3415 C3412 1.511 . S
C3415 H3429 0.961 . S
C3415 H3430 0.961 . S
C3415 H3431 0.961 . S
C3416 C3417 1.370 . S
C3416 C3418 1.363 . S
C3416 H3432 0.931 . S
C3417 C3416 1.370 . S
C3417 C3421 1.408 . S
C3418 C3416 1.363 . S
C3418 C3419 1.370 . S
C3418 C3422 1.524 . S
C3419 C3411 1.503 . S
C3419 C3418 1.370 . S
C3419 C3420 1.403 . S
C3420 C3419 1.403 . S
C3420 C3421 1.404 . S
C3420 C3423 1.539 . S
C3421 C3417 1.408 . S
C3421 C3420 1.404 . S
C3421 H3433 0.930 . S
C3422 C3418 1.524 . S
C3422 H3434 0.956 . S
C3422 H3435 0.961 . S
C3422 H3436 0.961 . S
C3423 C3420 1.539 . S
C3423 H3437 0.958 . S
C3423 H3438 0.961 . S
C3423 H3439 0.960 . S
H3424 C3408 0.931 . S
H3425 C3413 0.929 . S
H3426 C3414 0.960 . S
H3427 C3414 0.962 . S
H3428 C3414 0.960 . S
H3429 C3415 0.961 . S
H3430 C3415 0.961 . S
H3431 C3415 0.961 . S
H3432 C3416 0.931 . S
H3433 C3421 0.930 . S
H3434 C3422 0.956 . S
H3435 C3422 0.961 . S
H3436 C3422 0.961 . S
H3437 C3423 0.958 . S
H3438 C3423 0.961 . S
H3439 C3423 0.960 . S
C3440 C3441 1.391 . S
C3440 C3442 1.394 . S
C3440 H3456 0.931 . S
C3441 C3440 1.391 . S
C3441 C3445 1.376 . S
C3442 C3440 1.394 . S
C3442 C3443 1.369 . S
C3442 C3446 1.531 . S
C3443 C3442 1.369 . S
C3443 C3444 1.410 . S
C3443 C3451 1.503 . S
C3444 C3443 1.410 . S
C3444 C3445 1.392 . S
C3444 C3447 1.511 . S
C3445 C3441 1.376 . S
C3445 C3444 1.392 . S
C3445 H3457 0.929 . S
C3446 C3442 1.531 . S
C3446 H3458 0.960 . S
C3446 H3459 0.962 . S
C3446 H3460 0.960 . S
C3447 C3444 1.511 . S
C3447 H3461 0.961 . S
C3447 H3462 0.961 . S
C3447 H3463 0.961 . S
C3448 C3449 1.370 . S
C3448 C3450 1.363 . S
C3448 H3464 0.931 . S
C3449 C3448 1.370 . S
C3449 C3453 1.408 . S
C3450 C3448 1.363 . S
C3450 C3451 1.370 . S
C3450 C3454 1.524 . S
C3451 C3443 1.503 . S
C3451 C3450 1.370 . S
C3451 C3452 1.403 . S
C3452 C3451 1.403 . S
C3452 C3453 1.404 . S
C3452 C3455 1.539 . S
C3453 C3449 1.408 . S
C3453 C3452 1.404 . S
C3453 H3465 0.930 . S
C3454 C3450 1.524 . S
C3454 H3466 0.956 . S
C3454 H3467 0.961 . S
C3454 H3468 0.961 . S
C3455 C3452 1.539 . S
C3455 H3469 0.958 . S
C3455 H3470 0.961 . S
C3455 H3471 0.960 . S
H3456 C3440 0.931 . S
H3457 C3445 0.929 . S
H3458 C3446 0.960 . S
H3459 C3446 0.962 . S
H3460 C3446 0.960 . S
H3461 C3447 0.961 . S
H3462 C3447 0.961 . S
H3463 C3447 0.961 . S
H3464 C3448 0.931 . S
H3465 C3453 0.930 . S
H3466 C3454 0.956 . S
H3467 C3454 0.961 . S
H3468 C3454 0.961 . S
H3469 C3455 0.958 . S
H3470 C3455 0.961 . S
H3471 C3455 0.960 . S
C3472 C3473 1.391 . S
C3472 C3474 1.394 . S
C3472 H3488 0.931 . S
C3473 C3472 1.391 . S
C3473 C3477 1.376 . S
C3474 C3472 1.394 . S
C3474 C3475 1.369 . S
C3474 C3478 1.531 . S
C3475 C3474 1.369 . S
C3475 C3476 1.410 . S
C3475 C3483 1.503 . S
C3476 C3475 1.410 . S
C3476 C3477 1.392 . S
C3476 C3479 1.511 . S
C3477 C3473 1.376 . S
C3477 C3476 1.392 . S
C3477 H3489 0.929 . S
C3478 C3474 1.531 . S
C3478 H3490 0.960 . S
C3478 H3491 0.962 . S
C3478 H3492 0.960 . S
C3479 C3476 1.511 . S
C3479 H3493 0.961 . S
C3479 H3494 0.961 . S
C3479 H3495 0.961 . S
C3480 C3481 1.370 . S
C3480 C3482 1.363 . S
C3480 H3496 0.931 . S
C3481 C3480 1.370 . S
C3481 C3485 1.408 . S
C3482 C3480 1.363 . S
C3482 C3483 1.370 . S
C3482 C3486 1.524 . S
C3483 C3475 1.503 . S
C3483 C3482 1.370 . S
C3483 C3484 1.403 . S
C3484 C3483 1.403 . S
C3484 C3485 1.404 . S
C3484 C3487 1.539 . S
C3485 C3481 1.408 . S
C3485 C3484 1.404 . S
C3485 H3497 0.930 . S
C3486 C3482 1.524 . S
C3486 H3498 0.956 . S
C3486 H3499 0.961 . S
C3486 H3500 0.961 . S
C3487 C3484 1.539 . S
C3487 H3501 0.958 . S
C3487 H3502 0.961 . S
C3487 H3503 0.960 . S
H3488 C3472 0.931 . S
H3489 C3477 0.929 . S
H3490 C3478 0.960 . S
H3491 C3478 0.962 . S
H3492 C3478 0.960 . S
H3493 C3479 0.961 . S
H3494 C3479 0.961 . S
H3495 C3479 0.961 . S
H3496 C3480 0.931 . S
H3497 C3485 0.930 . S
H3498 C3486 0.956 . S
H3499 C3486 0.961 . S
H3500 C3486 0.961 . S
H3501 C3487 0.958 . S
H3502 C3487 0.961 . S
H3503 C3487 0.960 . S
C3504 C3505 1.391 . S
C3504 C3506 1.394 . S
C3504 H3520 0.931 . S
C3505 C3504 1.391 . S
C3505 C3509 1.376 . S
C3506 C3504 1.394 . S
C3506 C3507 1.369 . S
C3506 C3510 1.531 . S
C3507 C3506 1.369 . S
C3507 C3508 1.410 . S
C3507 C3515 1.503 . S
C3508 C3507 1.410 . S
C3508 C3509 1.392 . S
C3508 C3511 1.511 . S
C3509 C3505 1.376 . S
C3509 C3508 1.392 . S
C3509 H3521 0.929 . S
C3510 C3506 1.531 . S
C3510 H3522 0.960 . S
C3510 H3523 0.962 . S
C3510 H3524 0.960 . S
C3511 C3508 1.511 . S
C3511 H3525 0.961 . S
C3511 H3526 0.961 . S
C3511 H3527 0.961 . S
C3512 C3513 1.370 . S
C3512 C3514 1.363 . S
C3512 H3528 0.931 . S
C3513 C3512 1.370 . S
C3513 C3517 1.408 . S
C3514 C3512 1.363 . S
C3514 C3515 1.370 . S
C3514 C3518 1.524 . S
C3515 C3507 1.503 . S
C3515 C3514 1.370 . S
C3515 C3516 1.403 . S
C3516 C3515 1.403 . S
C3516 C3517 1.404 . S
C3516 C3519 1.539 . S
C3517 C3513 1.408 . S
C3517 C3516 1.404 . S
C3517 H3529 0.930 . S
C3518 C3514 1.524 . S
C3518 H3530 0.956 . S
C3518 H3531 0.961 . S
C3518 H3532 0.961 . S
C3519 C3516 1.539 . S
C3519 H3533 0.958 . S
C3519 H3534 0.961 . S
C3519 H3535 0.960 . S
H3520 C3504 0.931 . S
H3521 C3509 0.929 . S
H3522 C3510 0.960 . S
H3523 C3510 0.962 . S
H3524 C3510 0.960 . S
H3525 C3511 0.961 . S
H3526 C3511 0.961 . S
H3527 C3511 0.961 . S
H3528 C3512 0.931 . S
H3529 C3517 0.930 . S
H3530 C3518 0.956 . S
H3531 C3518 0.961 . S
H3532 C3518 0.961 . S
H3533 C3519 0.958 . S
H3534 C3519 0.961 . S
H3535 C3519 0.960 . S
C3536 C3537 1.391 . S
C3536 C3538 1.394 . S
C3536 H3552 0.931 . S
C3537 C3536 1.391 . S
C3537 C3541 1.376 . S
C3538 C3536 1.394 . S
C3538 C3539 1.369 . S
C3538 C3542 1.531 . S
C3539 C3538 1.369 . S
C3539 C3540 1.410 . S
C3539 C3547 1.503 . S
C3540 C3539 1.410 . S
C3540 C3541 1.392 . S
C3540 C3543 1.511 . S
C3541 C3537 1.376 . S
C3541 C3540 1.392 . S
C3541 H3553 0.929 . S
C3542 C3538 1.531 . S
C3542 H3554 0.960 . S
C3542 H3555 0.962 . S
C3542 H3556 0.960 . S
C3543 C3540 1.511 . S
C3543 H3557 0.961 . S
C3543 H3558 0.961 . S
C3543 H3559 0.961 . S
C3544 C3545 1.370 . S
C3544 C3546 1.363 . S
C3544 H3560 0.931 . S
C3545 C3544 1.370 . S
C3545 C3549 1.408 . S
C3546 C3544 1.363 . S
C3546 C3547 1.370 . S
C3546 C3550 1.524 . S
C3547 C3539 1.503 . S
C3547 C3546 1.370 . S
C3547 C3548 1.403 . S
C3548 C3547 1.403 . S
C3548 C3549 1.404 . S
C3548 C3551 1.539 . S
C3549 C3545 1.408 . S
C3549 C3548 1.404 . S
C3549 H3561 0.930 . S
C3550 C3546 1.524 . S
C3550 H3562 0.956 . S
C3550 H3563 0.961 . S
C3550 H3564 0.961 . S
C3551 C3548 1.539 . S
C3551 H3565 0.958 . S
C3551 H3566 0.961 . S
C3551 H3567 0.960 . S
H3552 C3536 0.931 . S
H3553 C3541 0.929 . S
H3554 C3542 0.960 . S
H3555 C3542 0.962 . S
H3556 C3542 0.960 . S
H3557 C3543 0.961 . S
H3558 C3543 0.961 . S
H3559 C3543 0.961 . S
H3560 C3544 0.931 . S
H3561 C3549 0.930 . S
H3562 C3550 0.956 . S
H3563 C3550 0.961 . S
H3564 C3550 0.961 . S
H3565 C3551 0.958 . S
H3566 C3551 0.961 . S
H3567 C3551 0.960 . S
C3568 C3569 1.391 . S
C3568 C3570 1.394 . S
C3568 H3584 0.931 . S
C3569 C3568 1.391 . S
C3569 C3573 1.376 . S
C3570 C3568 1.394 . S
C3570 C3571 1.369 . S
C3570 C3574 1.531 . S
C3571 C3570 1.369 . S
C3571 C3572 1.410 . S
C3571 C3579 1.503 . S
C3572 C3571 1.410 . S
C3572 C3573 1.392 . S
C3572 C3575 1.511 . S
C3573 C3569 1.376 . S
C3573 C3572 1.392 . S
C3573 H3585 0.929 . S
C3574 C3570 1.531 . S
C3574 H3586 0.960 . S
C3574 H3587 0.962 . S
C3574 H3588 0.960 . S
C3575 C3572 1.511 . S
C3575 H3589 0.961 . S
C3575 H3590 0.961 . S
C3575 H3591 0.961 . S
C3576 C3577 1.370 . S
C3576 C3578 1.363 . S
C3576 H3592 0.931 . S
C3577 C3576 1.370 . S
C3577 C3581 1.408 . S
C3578 C3576 1.363 . S
C3578 C3579 1.370 . S
C3578 C3582 1.524 . S
C3579 C3571 1.503 . S
C3579 C3578 1.370 . S
C3579 C3580 1.403 . S
C3580 C3579 1.403 . S
C3580 C3581 1.404 . S
C3580 C3583 1.539 . S
C3581 C3577 1.408 . S
C3581 C3580 1.404 . S
C3581 H3593 0.930 . S
C3582 C3578 1.524 . S
C3582 H3594 0.956 . S
C3582 H3595 0.961 . S
C3582 H3596 0.961 . S
C3583 C3580 1.539 . S
C3583 H3597 0.958 . S
C3583 H3598 0.961 . S
C3583 H3599 0.960 . S
H3584 C3568 0.931 . S
H3585 C3573 0.929 . S
H3586 C3574 0.960 . S
H3587 C3574 0.962 . S
H3588 C3574 0.960 . S
H3589 C3575 0.961 . S
H3590 C3575 0.961 . S
H3591 C3575 0.961 . S
H3592 C3576 0.931 . S
H3593 C3581 0.930 . S
H3594 C3582 0.956 . S
H3595 C3582 0.961 . S
H3596 C3582 0.961 . S
H3597 C3583 0.958 . S
H3598 C3583 0.961 . S
H3599 C3583 0.960 . S
C3600 C3601 1.391 . S
C3600 C3602 1.394 . S
C3600 H3616 0.931 . S
C3601 C3600 1.391 . S
C3601 C3605 1.376 . S
C3602 C3600 1.394 . S
C3602 C3603 1.369 . S
C3602 C3606 1.531 . S
C3603 C3602 1.369 . S
C3603 C3604 1.410 . S
C3603 C3611 1.503 . S
C3604 C3603 1.410 . S
C3604 C3605 1.392 . S
C3604 C3607 1.511 . S
C3605 C3601 1.376 . S
C3605 C3604 1.392 . S
C3605 H3617 0.929 . S
C3606 C3602 1.531 . S
C3606 H3618 0.960 . S
C3606 H3619 0.962 . S
C3606 H3620 0.960 . S
C3607 C3604 1.511 . S
C3607 H3621 0.961 . S
C3607 H3622 0.961 . S
C3607 H3623 0.961 . S
C3608 C3609 1.370 . S
C3608 C3610 1.363 . S
C3608 H3624 0.931 . S
C3609 C3608 1.370 . S
C3609 C3613 1.408 . S
C3610 C3608 1.363 . S
C3610 C3611 1.370 . S
C3610 C3614 1.524 . S
C3611 C3603 1.503 . S
C3611 C3610 1.370 . S
C3611 C3612 1.403 . S
C3612 C3611 1.403 . S
C3612 C3613 1.404 . S
C3612 C3615 1.539 . S
C3613 C3609 1.408 . S
C3613 C3612 1.404 . S
C3613 H3625 0.930 . S
C3614 C3610 1.524 . S
C3614 H3626 0.956 . S
C3614 H3627 0.961 . S
C3614 H3628 0.961 . S
C3615 C3612 1.539 . S
C3615 H3629 0.958 . S
C3615 H3630 0.961 . S
C3615 H3631 0.960 . S
H3616 C3600 0.931 . S
H3617 C3605 0.929 . S
H3618 C3606 0.960 . S
H3619 C3606 0.962 . S
H3620 C3606 0.960 . S
H3621 C3607 0.961 . S
H3622 C3607 0.961 . S
H3623 C3607 0.961 . S
H3624 C3608 0.931 . S
H3625 C3613 0.930 . S
H3626 C3614 0.956 . S
H3627 C3614 0.961 . S
H3628 C3614 0.961 . S
H3629 C3615 0.958 . S
H3630 C3615 0.961 . S
H3631 C3615 0.960 . S
C3632 C3633 1.391 . S
C3632 C3634 1.394 . S
C3632 H3648 0.931 . S
C3633 C3632 1.391 . S
C3633 C3637 1.376 . S
C3634 C3632 1.394 . S
C3634 C3635 1.369 . S
C3634 C3638 1.531 . S
C3635 C3634 1.369 . S
C3635 C3636 1.410 . S
C3635 C3643 1.503 . S
C3636 C3635 1.410 . S
C3636 C3637 1.392 . S
C3636 C3639 1.511 . S
C3637 C3633 1.376 . S
C3637 C3636 1.392 . S
C3637 H3649 0.929 . S
C3638 C3634 1.531 . S
C3638 H3650 0.960 . S
C3638 H3651 0.962 . S
C3638 H3652 0.960 . S
C3639 C3636 1.511 . S
C3639 H3653 0.961 . S
C3639 H3654 0.961 . S
C3639 H3655 0.961 . S
C3640 C3641 1.370 . S
C3640 C3642 1.363 . S
C3640 H3656 0.931 . S
C3641 C3640 1.370 . S
C3641 C3645 1.408 . S
C3642 C3640 1.363 . S
C3642 C3643 1.370 . S
C3642 C3646 1.524 . S
C3643 C3635 1.503 . S
C3643 C3642 1.370 . S
C3643 C3644 1.403 . S
C3644 C3643 1.403 . S
C3644 C3645 1.404 . S
C3644 C3647 1.539 . S
C3645 C3641 1.408 . S
C3645 C3644 1.404 . S
C3645 H3657 0.930 . S
C3646 C3642 1.524 . S
C3646 H3658 0.956 . S
C3646 H3659 0.961 . S
C3646 H3660 0.961 . S
C3647 C3644 1.539 . S
C3647 H3661 0.958 . S
C3647 H3662 0.961 . S
C3647 H3663 0.960 . S
H3648 C3632 0.931 . S
H3649 C3637 0.929 . S
H3650 C3638 0.960 . S
H3651 C3638 0.962 . S
H3652 C3638 0.960 . S
H3653 C3639 0.961 . S
H3654 C3639 0.961 . S
H3655 C3639 0.961 . S
H3656 C3640 0.931 . S
H3657 C3645 0.930 . S
H3658 C3646 0.956 . S
H3659 C3646 0.961 . S
H3660 C3646 0.961 . S
H3661 C3647 0.958 . S
H3662 C3647 0.961 . S
H3663 C3647 0.960 . S
C3664 C3665 1.391 . S
C3664 C3666 1.394 . S
C3664 H3680 0.931 . S
C3665 C3664 1.391 . S
C3665 C3669 1.376 . S
C3666 C3664 1.394 . S
C3666 C3667 1.369 . S
C3666 C3670 1.531 . S
C3667 C3666 1.369 . S
C3667 C3668 1.410 . S
C3667 C3675 1.503 . S
C3668 C3667 1.410 . S
C3668 C3669 1.392 . S
C3668 C3671 1.511 . S
C3669 C3665 1.376 . S
C3669 C3668 1.392 . S
C3669 H3681 0.929 . S
C3670 C3666 1.531 . S
C3670 H3682 0.960 . S
C3670 H3683 0.962 . S
C3670 H3684 0.960 . S
C3671 C3668 1.511 . S
C3671 H3685 0.961 . S
C3671 H3686 0.961 . S
C3671 H3687 0.961 . S
C3672 C3673 1.370 . S
C3672 C3674 1.363 . S
C3672 H3688 0.931 . S
C3673 C3672 1.370 . S
C3673 C3677 1.408 . S
C3674 C3672 1.363 . S
C3674 C3675 1.370 . S
C3674 C3678 1.524 . S
C3675 C3667 1.503 . S
C3675 C3674 1.370 . S
C3675 C3676 1.403 . S
C3676 C3675 1.403 . S
C3676 C3677 1.404 . S
C3676 C3679 1.539 . S
C3677 C3673 1.408 . S
C3677 C3676 1.404 . S
C3677 H3689 0.930 . S
C3678 C3674 1.524 . S
C3678 H3690 0.956 . S
C3678 H3691 0.961 . S
C3678 H3692 0.961 . S
C3679 C3676 1.539 . S
C3679 H3693 0.958 . S
C3679 H3694 0.961 . S
C3679 H3695 0.960 . S
H3680 C3664 0.931 . S
H3681 C3669 0.929 . S
H3682 C3670 0.960 . S
H3683 C3670 0.962 . S
H3684 C3670 0.960 . S
H3685 C3671 0.961 . S
H3686 C3671 0.961 . S
H3687 C3671 0.961 . S
H3688 C3672 0.931 . S
H3689 C3677 0.930 . S
H3690 C3678 0.956 . S
H3691 C3678 0.961 . S
H3692 C3678 0.961 . S
H3693 C3679 0.958 . S
H3694 C3679 0.961 . S
H3695 C3679 0.960 . S
C3696 C3697 1.391 . S
C3696 C3698 1.394 . S
C3696 H3712 0.931 . S
C3697 C3696 1.391 . S
C3697 C3701 1.376 . S
C3698 C3696 1.394 . S
C3698 C3699 1.369 . S
C3698 C3702 1.531 . S
C3699 C3698 1.369 . S
C3699 C3700 1.410 . S
C3699 C3707 1.503 . S
C3700 C3699 1.410 . S
C3700 C3701 1.392 . S
C3700 C3703 1.511 . S
C3701 C3697 1.376 . S
C3701 C3700 1.392 . S
C3701 H3713 0.929 . S
C3702 C3698 1.531 . S
C3702 H3714 0.960 . S
C3702 H3715 0.962 . S
C3702 H3716 0.960 . S
C3703 C3700 1.511 . S
C3703 H3717 0.961 . S
C3703 H3718 0.961 . S
C3703 H3719 0.961 . S
C3704 C3705 1.370 . S
C3704 C3706 1.363 . S
C3704 H3720 0.931 . S
C3705 C3704 1.370 . S
C3705 C3709 1.408 . S
C3706 C3704 1.363 . S
C3706 C3707 1.370 . S
C3706 C3710 1.524 . S
C3707 C3699 1.503 . S
C3707 C3706 1.370 . S
C3707 C3708 1.403 . S
C3708 C3707 1.403 . S
C3708 C3709 1.404 . S
C3708 C3711 1.539 . S
C3709 C3705 1.408 . S
C3709 C3708 1.404 . S
C3709 H3721 0.930 . S
C3710 C3706 1.524 . S
C3710 H3722 0.956 . S
C3710 H3723 0.961 . S
C3710 H3724 0.961 . S
C3711 C3708 1.539 . S
C3711 H3725 0.958 . S
C3711 H3726 0.961 . S
C3711 H3727 0.960 . S
H3712 C3696 0.931 . S
H3713 C3701 0.929 . S
H3714 C3702 0.960 . S
H3715 C3702 0.962 . S
H3716 C3702 0.960 . S
H3717 C3703 0.961 . S
H3718 C3703 0.961 . S
H3719 C3703 0.961 . S
H3720 C3704 0.931 . S
H3721 C3709 0.930 . S
H3722 C3710 0.956 . S
H3723 C3710 0.961 . S
H3724 C3710 0.961 . S
H3725 C3711 0.958 . S
H3726 C3711 0.961 . S
H3727 C3711 0.960 . S
C3728 C3729 1.391 . S
C3728 C3730 1.394 . S
C3728 H3744 0.931 . S
C3729 C3728 1.391 . S
C3729 C3733 1.376 . S
C3730 C3728 1.394 . S
C3730 C3731 1.369 . S
C3730 C3734 1.531 . S
C3731 C3730 1.369 . S
C3731 C3732 1.410 . S
C3731 C3739 1.503 . S
C3732 C3731 1.410 . S
C3732 C3733 1.392 . S
C3732 C3735 1.511 . S
C3733 C3729 1.376 . S
C3733 C3732 1.392 . S
C3733 H3745 0.929 . S
C3734 C3730 1.531 . S
C3734 H3746 0.960 . S
C3734 H3747 0.962 . S
C3734 H3748 0.960 . S
C3735 C3732 1.511 . S
C3735 H3749 0.961 . S
C3735 H3750 0.961 . S
C3735 H3751 0.961 . S
C3736 C3737 1.370 . S
C3736 C3738 1.363 . S
C3736 H3752 0.931 . S
C3737 C3736 1.370 . S
C3737 C3741 1.408 . S
C3738 C3736 1.363 . S
C3738 C3739 1.370 . S
C3738 C3742 1.524 . S
C3739 C3731 1.503 . S
C3739 C3738 1.370 . S
C3739 C3740 1.403 . S
C3740 C3739 1.403 . S
C3740 C3741 1.404 . S
C3740 C3743 1.539 . S
C3741 C3737 1.408 . S
C3741 C3740 1.404 . S
C3741 H3753 0.930 . S
C3742 C3738 1.524 . S
C3742 H3754 0.956 . S
C3742 H3755 0.961 . S
C3742 H3756 0.961 . S
C3743 C3740 1.539 . S
C3743 H3757 0.958 . S
C3743 H3758 0.961 . S
C3743 H3759 0.960 . S
H3744 C3728 0.931 . S
H3745 C3733 0.929 . S
H3746 C3734 0.960 . S
H3747 C3734 0.962 . S
H3748 C3734 0.960 . S
H3749 C3735 0.961 . S
H3750 C3735 0.961 . S
H3751 C3735 0.961 . S
H3752 C3736 0.931 . S
H3753 C3741 0.930 . S
H3754 C3742 0.956 . S
H3755 C3742 0.961 . S
H3756 C3742 0.961 . S
H3757 C3743 0.958 . S
H3758 C3743 0.961 . S
H3759 C3743 0.960 . S
C3760 C3761 1.391 . S
C3760 C3762 1.394 . S
C3760 H3776 0.931 . S
C3761 C3760 1.391 . S
C3761 C3765 1.376 . S
C3762 C3760 1.394 . S
C3762 C3763 1.369 . S
C3762 C3766 1.531 . S
C3763 C3762 1.369 . S
C3763 C3764 1.410 . S
C3763 C3771 1.503 . S
C3764 C3763 1.410 . S
C3764 C3765 1.392 . S
C3764 C3767 1.511 . S
C3765 C3761 1.376 . S
C3765 C3764 1.392 . S
C3765 H3777 0.929 . S
C3766 C3762 1.531 . S
C3766 H3778 0.960 . S
C3766 H3779 0.962 . S
C3766 H3780 0.960 . S
C3767 C3764 1.511 . S
C3767 H3781 0.961 . S
C3767 H3782 0.961 . S
C3767 H3783 0.961 . S
C3768 C3769 1.370 . S
C3768 C3770 1.363 . S
C3768 H3784 0.931 . S
C3769 C3768 1.370 . S
C3769 C3773 1.408 . S
C3770 C3768 1.363 . S
C3770 C3771 1.370 . S
C3770 C3774 1.524 . S
C3771 C3763 1.503 . S
C3771 C3770 1.370 . S
C3771 C3772 1.403 . S
C3772 C3771 1.403 . S
C3772 C3773 1.404 . S
C3772 C3775 1.539 . S
C3773 C3769 1.408 . S
C3773 C3772 1.404 . S
C3773 H3785 0.930 . S
C3774 C3770 1.524 . S
C3774 H3786 0.956 . S
C3774 H3787 0.961 . S
C3774 H3788 0.961 . S
C3775 C3772 1.539 . S
C3775 H3789 0.958 . S
C3775 H3790 0.961 . S
C3775 H3791 0.960 . S
H3776 C3760 0.931 . S
H3777 C3765 0.929 . S
H3778 C3766 0.960 . S
H3779 C3766 0.962 . S
H3780 C3766 0.960 . S
H3781 C3767 0.961 . S
H3782 C3767 0.961 . S
H3783 C3767 0.961 . S
H3784 C3768 0.931 . S
H3785 C3773 0.930 . S
H3786 C3774 0.956 . S
H3787 C3774 0.961 . S
H3788 C3774 0.961 . S
H3789 C3775 0.958 . S
H3790 C3775 0.961 . S
H3791 C3775 0.960 . S
C3792 C3793 1.391 . S
C3792 C3794 1.394 . S
C3792 H3808 0.931 1_554 S
C3793 C3792 1.391 . S
C3793 C3797 1.376 . S
C3794 C3792 1.394 . S
C3794 C3795 1.369 . S
C3794 C3798 1.531 1_554 S
C3795 C3794 1.369 . S
C3795 C3796 1.410 . S
C3795 C3803 1.503 . S
C3796 C3795 1.410 . S
C3796 C3797 1.392 . S
C3796 C3799 1.511 . S
C3797 C3793 1.376 . S
C3797 C3796 1.392 . S
C3797 H3809 0.929 . S
C3798 C3794 1.531 1_556 S
C3798 H3810 0.960 . S
C3798 H3811 0.962 . S
C3798 H3812 0.960 . S
C3799 C3796 1.511 . S
C3799 H3813 0.961 . S
C3799 H3814 0.961 . S
C3799 H3815 0.961 . S
C3800 C3801 1.352 1_545 S
C3800 C3802 1.342 1_545 S
C3800 H3816 0.972 . S
C3801 C3800 1.352 1_565 S
C3801 C3805 1.408 . S
C3802 C3800 1.342 1_565 S
C3802 C3803 1.370 . S
C3802 C3806 1.524 1_565 S
C3803 C3795 1.503 . S
C3803 C3802 1.370 . S
C3803 C3804 1.403 . S
C3804 C3803 1.403 . S
C3804 C3805 1.404 . S
C3804 C3807 1.539 . S
C3805 C3801 1.408 . S
C3805 C3804 1.404 . S
C3805 H3817 0.930 . S
C3806 C3802 1.524 1_545 S
C3806 H3818 0.956 1_544 S
C3806 H3819 0.963 . S
C3806 H3820 0.961 . S
C3807 C3804 1.539 . S
C3807 H3821 0.958 . S
C3807 H3822 0.961 . S
C3807 H3823 0.960 . S
H3808 C3792 0.931 1_556 S
H3809 C3797 0.929 . S
H3810 C3798 0.960 . S
H3811 C3798 0.962 . S
H3812 C3798 0.960 . S
H3813 C3799 0.961 . S
H3814 C3799 0.961 . S
H3815 C3799 0.961 . S
H3816 C3800 0.972 . S
H3817 C3805 0.930 . S
H3818 C3806 0.956 1_566 S
H3819 C3806 0.963 . S
H3820 C3806 0.961 . S
H3821 C3807 0.958 . S
H3822 C3807 0.961 . S
H3823 C3807 0.960 . S
C3824 C3825 1.391 . S
C3824 C3826 1.394 . S
C3824 H3840 0.931 . S
C3825 C3824 1.391 . S
C3825 C3829 1.376 . S
C3826 C3824 1.394 . S
C3826 C3827 1.369 . S
C3826 C3830 1.531 . S
C3827 C3826 1.369 . S
C3827 C3828 1.410 . S
C3827 C3835 1.503 . S
C3828 C3827 1.410 . S
C3828 C3829 1.392 . S
C3828 C3831 1.511 . S
C3829 C3825 1.376 . S
C3829 C3828 1.392 . S
C3829 H3841 0.929 . S
C3830 C3826 1.531 . S
C3830 H3842 0.960 . S
C3830 H3843 0.962 . S
C3830 H3844 0.960 . S
C3831 C3828 1.511 . S
C3831 H3845 0.961 . S
C3831 H3846 0.961 . S
C3831 H3847 0.961 . S
C3832 C3833 1.370 . S
C3832 C3834 1.363 . S
C3832 H3848 0.931 . S
C3833 C3832 1.370 . S
C3833 C3837 1.408 . S
C3834 C3832 1.363 . S
C3834 C3835 1.370 . S
C3834 C3838 1.524 . S
C3835 C3827 1.503 . S
C3835 C3834 1.370 . S
C3835 C3836 1.403 . S
C3836 C3835 1.403 . S
C3836 C3837 1.404 . S
C3836 C3839 1.539 . S
C3837 C3833 1.408 . S
C3837 C3836 1.404 . S
C3837 H3849 0.930 . S
C3838 C3834 1.524 . S
C3838 H3850 0.956 . S
C3838 H3851 0.961 . S
C3838 H3852 0.961 . S
C3839 C3836 1.539 . S
C3839 H3853 0.958 . S
C3839 H3854 0.961 . S
C3839 H3855 0.960 . S
H3840 C3824 0.931 . S
H3841 C3829 0.929 . S
H3842 C3830 0.960 . S
H3843 C3830 0.962 . S
H3844 C3830 0.960 . S
H3845 C3831 0.961 . S
H3846 C3831 0.961 . S
H3847 C3831 0.961 . S
H3848 C3832 0.931 . S
H3849 C3837 0.930 . S
H3850 C3838 0.956 . S
H3851 C3838 0.961 . S
H3852 C3838 0.961 . S
H3853 C3839 0.958 . S
H3854 C3839 0.961 . S
H3855 C3839 0.960 . S
C3856 C3857 1.391 1_556 S
C3856 C3858 1.394 . S
C3856 H3872 0.931 . S
C3857 C3856 1.391 1_554 S
C3857 C3861 1.376 . S
C3858 C3856 1.394 . S
C3858 C3859 1.369 1_556 S
C3858 C3862 1.531 . S
C3859 C3858 1.369 1_554 S
C3859 C3860 1.410 . S
C3859 C3867 1.503 . S
C3860 C3859 1.410 . S
C3860 C3861 1.392 . S
C3860 C3863 1.511 . S
C3861 C3857 1.376 . S
C3861 C3860 1.392 . S
C3861 H3873 0.929 . S
C3862 C3858 1.531 . S
C3862 H3874 0.960 . S
C3862 H3875 0.962 . S
C3862 H3876 0.960 . S
C3863 C3860 1.511 . S
C3863 H3877 0.961 . S
C3863 H3878 0.961 . S
C3863 H3879 0.961 . S
C3864 C3865 1.370 . S
C3864 C3866 1.363 . S
C3864 H3880 0.931 . S
C3865 C3864 1.370 . S
C3865 C3869 1.408 . S
C3866 C3864 1.363 . S
C3866 C3867 1.370 . S
C3866 C3870 1.524 . S
C3867 C3859 1.503 . S
C3867 C3866 1.370 . S
C3867 C3868 1.403 . S
C3868 C3867 1.403 . S
C3868 C3869 1.404 . S
C3868 C3871 1.539 . S
C3869 C3865 1.408 . S
C3869 C3868 1.404 . S
C3869 H3881 0.930 . S
C3870 C3866 1.524 . S
C3870 H3882 0.956 . S
C3870 H3883 0.961 . S
C3870 H3884 0.961 . S
C3871 C3868 1.539 . S
C3871 H3885 0.958 1_554 S
C3871 H3886 0.961 . S
C3871 H3887 0.960 . S
H3872 C3856 0.931 . S
H3873 C3861 0.929 . S
H3874 C3862 0.960 . S
H3875 C3862 0.962 . S
H3876 C3862 0.960 . S
H3877 C3863 0.961 . S
H3878 C3863 0.961 . S
H3879 C3863 0.961 . S
H3880 C3864 0.931 . S
H3881 C3869 0.930 . S
H3882 C3870 0.956 . S
H3883 C3870 0.961 . S
H3884 C3870 0.961 . S
H3885 C3871 0.958 1_556 S
H3886 C3871 0.961 . S
H3887 C3871 0.960 . S
C3888 C3889 1.391 . S
C3888 C3890 1.394 . S
C3888 H3904 0.931 . S
C3889 C3888 1.391 . S
C3889 C3893 1.376 . S
C3890 C3888 1.394 . S
C3890 C3891 1.369 . S
C3890 C3894 1.531 . S
C3891 C3890 1.369 . S
C3891 C3892 1.410 . S
C3891 C3899 1.503 . S
C3892 C3891 1.410 . S
C3892 C3893 1.392 . S
C3892 C3895 1.511 . S
C3893 C3889 1.376 . S
C3893 C3892 1.392 . S
C3893 H3905 0.929 . S
C3894 C3890 1.531 . S
C3894 H3906 0.960 . S
C3894 H3907 0.962 . S
C3894 H3908 0.960 . S
C3895 C3892 1.511 . S
C3895 H3909 0.961 . S
C3895 H3910 0.961 . S
C3895 H3911 0.961 . S
C3896 C3897 1.370 . S
C3896 C3898 1.363 . S
C3896 H3912 0.931 . S
C3897 C3896 1.370 . S
C3897 C3901 1.408 . S
C3898 C3896 1.363 . S
C3898 C3899 1.370 . S
C3898 C3902 1.524 . S
C3899 C3891 1.503 . S
C3899 C3898 1.370 . S
C3899 C3900 1.403 . S
C3900 C3899 1.403 . S
C3900 C3901 1.404 . S
C3900 C3903 1.539 . S
C3901 C3897 1.408 . S
C3901 C3900 1.404 . S
C3901 H3913 0.930 . S
C3902 C3898 1.524 . S
C3902 H3914 0.956 . S
C3902 H3915 0.961 . S
C3902 H3916 0.961 . S
C3903 C3900 1.539 . S
C3903 H3917 0.958 . S
C3903 H3918 0.961 . S
C3903 H3919 0.960 . S
H3904 C3888 0.931 . S
H3905 C3893 0.929 . S
H3906 C3894 0.960 . S
H3907 C3894 0.962 . S
H3908 C3894 0.960 . S
H3909 C3895 0.961 . S
H3910 C3895 0.961 . S
H3911 C3895 0.961 . S
H3912 C3896 0.931 . S
H3913 C3901 0.930 . S
H3914 C3902 0.956 . S
H3915 C3902 0.961 . S
H3916 C3902 0.961 . S
H3917 C3903 0.958 . S
H3918 C3903 0.961 . S
H3919 C3903 0.960 . S
C3920 C3921 1.391 . S
C3920 C3922 1.394 . S
C3920 H3936 0.931 . S
C3921 C3920 1.391 . S
C3921 C3925 1.376 . S
C3922 C3920 1.394 . S
C3922 C3923 1.369 . S
C3922 C3926 1.531 . S
C3923 C3922 1.369 . S
C3923 C3924 1.410 . S
C3923 C3931 1.503 . S
C3924 C3923 1.410 . S
C3924 C3925 1.392 . S
C3924 C3927 1.511 . S
C3925 C3921 1.376 . S
C3925 C3924 1.392 . S
C3925 H3937 0.929 . S
C3926 C3922 1.531 . S
C3926 H3938 0.960 . S
C3926 H3939 0.962 . S
C3926 H3940 0.960 . S
C3927 C3924 1.511 . S
C3927 H3941 0.961 . S
C3927 H3942 0.961 . S
C3927 H3943 0.961 . S
C3928 C3929 1.370 . S
C3928 C3930 1.363 . S
C3928 H3944 0.931 . S
C3929 C3928 1.370 . S
C3929 C3933 1.408 . S
C3930 C3928 1.363 . S
C3930 C3931 1.370 . S
C3930 C3934 1.524 . S
C3931 C3923 1.503 . S
C3931 C3930 1.370 . S
C3931 C3932 1.403 . S
C3932 C3931 1.403 . S
C3932 C3933 1.404 . S
C3932 C3935 1.539 . S
C3933 C3929 1.408 . S
C3933 C3932 1.404 . S
C3933 H3945 0.930 . S
C3934 C3930 1.524 . S
C3934 H3946 0.956 . S
C3934 H3947 0.961 . S
C3934 H3948 0.961 . S
C3935 C3932 1.539 . S
C3935 H3949 0.958 . S
C3935 H3950 0.961 . S
C3935 H3951 0.960 . S
H3936 C3920 0.931 . S
H3937 C3925 0.929 . S
H3938 C3926 0.960 . S
H3939 C3926 0.962 . S
H3940 C3926 0.960 . S
H3941 C3927 0.961 . S
H3942 C3927 0.961 . S
H3943 C3927 0.961 . S
H3944 C3928 0.931 . S
H3945 C3933 0.930 . S
H3946 C3934 0.956 . S
H3947 C3934 0.961 . S
H3948 C3934 0.961 . S
H3949 C3935 0.958 . S
H3950 C3935 0.961 . S
H3951 C3935 0.960 . S
C889 C353 1.070 . S
C881 C7 1.016 . S
C913 C22 1.886 . S
C921 C399 1.871 . S
C945 C31 0.941 . S
C953 C408 0.931 . S
C985 C446 1.699 . S
C977 C51 1.713 . S
C1009 C17 1.681 . S
C1017 C480 1.664 . S
C1049 C510 0.828 . S
C1041 C36 0.832 . S
C1081 C569 1.673 1_556 S
C1073 C49 1.622 . S
C1105 C9 1.044 . S
C1113 C582 1.005 . S
C1137 C63 1.391 . S
C1145 C365 1.380 . S
C1169 C73 1.186 . S
C1177 C383 1.190 . S
C1209 C404 1.706 . S
C1201 C91 1.669 . S
C1241 C442 0.815 . S
C1233 C101 0.811 . S
C1265 C59 1.307 . S
C1273 C476 1.290 . S
C1305 C506 1.617 . S
C1297 C77 1.628 . S
C1337 C553 1.239 . S
C1329 C87 1.263 . S
C1369 C578 0.706 . S
C1361 C105 0.763 . S
C1401 C349 0.699 1_556 S
C1393 C107 0.642 . S
C1433 C608 1.601 . S
C1425 C120 1.593 . S
C1457 C135 1.412 . S
C1465 C650 1.387 . S
C1497 C693 0.530 . S
C1489 C148 0.543 . S
C1521 C65 1.362 . S
C1529 C574 1.332 . S
C1561 C412 1.505 . S
C1553 C79 1.507 . S
C1585 C134 1.335 . S
C1593 C710 1.338 . S
C1625 C761 1.552 . S
C1617 C162 1.541 . S
C1649 C171 1.061 1_655 S
C1657 C344 1.014 1_556 S
C1689 C744 1.827 . S
C1681 C190 1.845 . S
C1713 C203 0.893 . S
C1721 C417 0.923 . S
C1745 C219 1.676 . S
C1753 C727 1.652 . S
C1785 C489 1.622 . S
C1777 C189 1.554 . S
C1817 C655 0.806 . S
C1809 C204 0.782 . S
C1849 C540 1.617 . S
C1841 C213 1.637 . S
C1881 C795 0.969 . S
C1873 C177 0.953 . S
C1913 C336 1.339 . S
C1905 C227 1.374 . S
C1937 C245 1.106 . S
C1945 C748 1.167 . S
C1977 C433 1.646 . S
C1969 C255 1.669 . S
C2001 C273 0.712 . S
C2009 C723 0.811 . S
C2033 C231 1.231 . S
C2041 C485 1.256 . S
C2065 C241 1.580 . S
C2073 C671 1.581 . S
C2105 C544 1.223 . S
C2097 C259 1.145 . S
C2129 C269 0.682 . S
C2137 C791 0.655 . S
C2161 C275 0.687 . S
C2169 C340 0.681 . S
C2193 C288 1.567 . S
C2201 C637 1.568 . S
C2225 C303 1.344 . S
C2233 C523 1.360 . S
C2257 C316 0.513 . S
C2265 C684 0.481 . S
C2297 C807 1.294 . S
C2289 C233 1.337 . S
C2329 C421 1.465 . S
C2321 C247 1.443 . S
C2361 C467 1.304 . S
C2353 C302 1.294 . S
C2393 C378 1.516 . S
C2385 C330 1.519 . S
C2417 C35 1.096 . S
C2425 C829 1.063 . S
C2457 C773 1.871 . S
C2449 C50 1.887 . S
C2489 C850 0.941 . S
C2481 C3 0.942 . S
C2513 C23 1.719 . S
C2521 C718 1.686 . S
C2545 C45 1.681 . S
C2553 C616 1.656 1_556 S
C2585 C646 0.808 . S
C2577 C8 0.805 . S
C2617 C705 1.667 . S
C2609 C21 1.645 . S
C2649 C786 0.997 . S
C2641 C37 1.046 . S
C2681 C841 1.400 . S
C2673 C161 1.391 . S
C2705 C115 1.208 1_556 S
C2713 C757 1.177 . S
C2737 C133 1.679 . S
C2745 C846 1.707 . S
C2777 C714 0.814 . S
C2769 C143 0.812 . S
C2809 C612 1.296 . S
C2801 C157 1.299 . S
C2833 C119 1.592 . S
C2841 C642 1.627 . S
C2873 C689 1.250 . S
C2865 C129 1.251 . S
C2897 C147 0.679 . S
C2905 C782 0.713 . S
C2937 C825 0.702 . S
C2929 C149 0.688 . S
C2969 C472 1.603 . S
C2961 C78 1.594 . S
C3001 C514 1.405 . S
C2993 C93 1.403 . S
C3025 C106 0.529 . S
C3033 C557 0.521 . S
C3065 C778 1.331 . S
C3057 C163 1.367 . S
C3089 C121 1.507 . S
C3097 C854 1.505 . S
C3129 C438 1.345 . S
C3121 C92 1.342 . S
C3161 C387 1.561 . S
C3153 C64 1.559 . S
C3185 C199 1.002 . S
C3193 C820 1.044 . S
C3225 C370 1.837 . S
C3217 C218 1.825 . S
C3257 C859 0.943 . S
C3249 C175 0.872 . S
C3281 C191 1.671 . S
C3289 C455 1.649 . S
C3313 C217 1.610 . S
C3321 C625 1.610 . S
C3345 C176 0.780 . S
C3353 C519 0.799 . S
C3377 C185 1.638 . S
C3385 C676 1.617 . S
C3409 C205 1.003 . S
C3417 C591 0.958 . S
C3449 C812 1.352 . S
C3441 C325 1.349 . S
C3473 C287 1.172 . S
C3481 C374 1.144 . S
C3513 C875 1.655 . S
C3505 C297 1.666 . S
C3537 C315 0.860 . S
C3545 C451 0.772 . S
C3569 C329 1.222 . S
C3577 C621 1.266 . S
C3609 C535 1.566 . S
C3601 C283 1.603 . S
C3633 C301 1.154 . S
C3641 C680 1.220 . S
C3673 C587 0.693 . S
C3665 C311 0.657 . S
C3705 C816 0.660 . S
C3697 C317 0.706 . S
C3737 C501 1.566 . S
C3729 C246 1.569 . S
C3761 C261 1.382 . S
C3769 C659 1.347 . S
C3801 C548 0.494 . S
C3793 C274 0.520 . S
C3833 C603 1.299 . S
C3825 C331 1.338 . S
C3857 C289 1.478 1_554 S
C3865 C863 1.461 . S
C3897 C739 1.308 . S
C3889 C260 1.307 . S
C3929 C752 1.522 . S
C3921 C232 1.528 . S
