# Generated by pormake.
# Topology ibd, (4,6)-cn, num edge types: 1
# Building blocks:
#     Node 0, Type 0, BuildingBlock: GALJAG_clean_sbu_0, # of connection points: 4
#     Node 1, Type 0, BuildingBlock: GALJAG_clean_sbu_0, # of connection points: 4
#     Node 2, Type 0, BuildingBlock: GALJAG_clean_sbu_0, # of connection points: 4
#     Node 3, Type 0, BuildingBlock: GALJAG_clean_sbu_0, # of connection points: 4
#     Node 4, Type 0, BuildingBlock: GALJAG_clean_sbu_0, # of connection points: 4
#     Node 5, Type 0, BuildingBlock: GALJAG_clean_sbu_0, # of connection points: 4
#     Node 6, Type 0, BuildingBlock: GALJAG_clean_sbu_0, # of connection points: 4
#     Node 7, Type 0, BuildingBlock: GALJAG_clean_sbu_0, # of connection points: 4
#     Node 8, Type 0, BuildingBlock: GALJAG_clean_sbu_0, # of connection points: 4
#     Node 9, Type 0, BuildingBlock: GALJAG_clean_sbu_0, # of connection points: 4
#     Node 10, Type 0, BuildingBlock: GALJAG_clean_sbu_0, # of connection points: 4
#     Node 11, Type 0, BuildingBlock: GALJAG_clean_sbu_0, # of connection points: 4
#     Node 12, Type 0, BuildingBlock: GALJAG_clean_sbu_0, # of connection points: 4
#     Node 13, Type 0, BuildingBlock: GALJAG_clean_sbu_0, # of connection points: 4
#     Node 14, Type 0, BuildingBlock: GALJAG_clean_sbu_0, # of connection points: 4
#     Node 15, Type 0, BuildingBlock: GALJAG_clean_sbu_0, # of connection points: 4
#     Node 16, Type 0, BuildingBlock: GALJAG_clean_sbu_0, # of connection points: 4
#     Node 17, Type 0, BuildingBlock: GALJAG_clean_sbu_0, # of connection points: 4
#     Node 18, Type 0, BuildingBlock: GALJAG_clean_sbu_0, # of connection points: 4
#     Node 19, Type 0, BuildingBlock: GALJAG_clean_sbu_0, # of connection points: 4
#     Node 20, Type 0, BuildingBlock: GALJAG_clean_sbu_0, # of connection points: 4
#     Node 21, Type 0, BuildingBlock: GALJAG_clean_sbu_0, # of connection points: 4
#     Node 22, Type 0, BuildingBlock: GALJAG_clean_sbu_0, # of connection points: 4
#     Node 23, Type 0, BuildingBlock: GALJAG_clean_sbu_0, # of connection points: 4
#     Node 24, Type 1, BuildingBlock: CIFDUS_clean_sbu_1, # of connection points: 6
#     Node 25, Type 1, BuildingBlock: CIFDUS_clean_sbu_1, # of connection points: 6
#     Node 26, Type 1, BuildingBlock: CIFDUS_clean_sbu_1, # of connection points: 6
#     Node 27, Type 1, BuildingBlock: CIFDUS_clean_sbu_1, # of connection points: 6
#     Node 28, Type 1, BuildingBlock: CIFDUS_clean_sbu_1, # of connection points: 6
#     Node 29, Type 1, BuildingBlock: CIFDUS_clean_sbu_1, # of connection points: 6
#     Node 30, Type 1, BuildingBlock: CIFDUS_clean_sbu_1, # of connection points: 6
#     Node 31, Type 1, BuildingBlock: CIFDUS_clean_sbu_1, # of connection points: 6
#     Node 32, Type 1, BuildingBlock: CIFDUS_clean_sbu_1, # of connection points: 6
#     Node 33, Type 1, BuildingBlock: CIFDUS_clean_sbu_1, # of connection points: 6
#     Node 34, Type 1, BuildingBlock: CIFDUS_clean_sbu_1, # of connection points: 6
#     Node 35, Type 1, BuildingBlock: CIFDUS_clean_sbu_1, # of connection points: 6
#     Node 36, Type 1, BuildingBlock: CIFDUS_clean_sbu_1, # of connection points: 6
#     Node 37, Type 1, BuildingBlock: CIFDUS_clean_sbu_1, # of connection points: 6
#     Node 38, Type 1, BuildingBlock: CIFDUS_clean_sbu_1, # of connection points: 6
#     Node 39, Type 1, BuildingBlock: CIFDUS_clean_sbu_1, # of connection points: 6
#     Edge 40, Type (0, 1), BuildingBlock: MIFKUJ_clean_linker_0, # of connection points: 2
#     Edge 41, Type (0, 1), BuildingBlock: MIFKUJ_clean_linker_0, # of connection points: 2
#     Edge 42, Type (0, 1), BuildingBlock: MIFKUJ_clean_linker_0, # of connection points: 2
#     Edge 43, Type (0, 1), BuildingBlock: MIFKUJ_clean_linker_0, # of connection points: 2
#     Edge 44, Type (0, 1), BuildingBlock: MIFKUJ_clean_linker_0, # of connection points: 2
#     Edge 45, Type (0, 1), BuildingBlock: MIFKUJ_clean_linker_0, # of connection points: 2
#     Edge 46, Type (0, 1), BuildingBlock: MIFKUJ_clean_linker_0, # of connection points: 2
#     Edge 47, Type (0, 1), BuildingBlock: MIFKUJ_clean_linker_0, # of connection points: 2
#     Edge 48, Type (0, 1), BuildingBlock: MIFKUJ_clean_linker_0, # of connection points: 2
#     Edge 49, Type (0, 1), BuildingBlock: MIFKUJ_clean_linker_0, # of connection points: 2
#     Edge 50, Type (0, 1), BuildingBlock: MIFKUJ_clean_linker_0, # of connection points: 2
#     Edge 51, Type (0, 1), BuildingBlock: MIFKUJ_clean_linker_0, # of connection points: 2
#     Edge 52, Type (0, 1), BuildingBlock: MIFKUJ_clean_linker_0, # of connection points: 2
#     Edge 53, Type (0, 1), BuildingBlock: MIFKUJ_clean_linker_0, # of connection points: 2
#     Edge 54, Type (0, 1), BuildingBlock: MIFKUJ_clean_linker_0, # of connection points: 2
#     Edge 55, Type (0, 1), BuildingBlock: MIFKUJ_clean_linker_0, # of connection points: 2
#     Edge 56, Type (0, 1), BuildingBlock: MIFKUJ_clean_linker_0, # of connection points: 2
#     Edge 57, Type (0, 1), BuildingBlock: MIFKUJ_clean_linker_0, # of connection points: 2
#     Edge 58, Type (0, 1), BuildingBlock: MIFKUJ_clean_linker_0, # of connection points: 2
#     Edge 59, Type (0, 1), BuildingBlock: MIFKUJ_clean_linker_0, # of connection points: 2
#     Edge 60, Type (0, 1), BuildingBlock: MIFKUJ_clean_linker_0, # of connection points: 2
#     Edge 61, Type (0, 1), BuildingBlock: MIFKUJ_clean_linker_0, # of connection points: 2
#     Edge 62, Type (0, 1), BuildingBlock: MIFKUJ_clean_linker_0, # of connection points: 2
#     Edge 63, Type (0, 1), BuildingBlock: MIFKUJ_clean_linker_0, # of connection points: 2
#     Edge 64, Type (0, 1), BuildingBlock: MIFKUJ_clean_linker_0, # of connection points: 2
#     Edge 65, Type (0, 1), BuildingBlock: MIFKUJ_clean_linker_0, # of connection points: 2
#     Edge 66, Type (0, 1), BuildingBlock: MIFKUJ_clean_linker_0, # of connection points: 2
#     Edge 67, Type (0, 1), BuildingBlock: MIFKUJ_clean_linker_0, # of connection points: 2
#     Edge 68, Type (0, 1), BuildingBlock: MIFKUJ_clean_linker_0, # of connection points: 2
#     Edge 69, Type (0, 1), BuildingBlock: MIFKUJ_clean_linker_0, # of connection points: 2
#     Edge 70, Type (0, 1), BuildingBlock: MIFKUJ_clean_linker_0, # of connection points: 2
#     Edge 71, Type (0, 1), BuildingBlock: MIFKUJ_clean_linker_0, # of connection points: 2
#     Edge 72, Type (0, 1), BuildingBlock: MIFKUJ_clean_linker_0, # of connection points: 2
#     Edge 73, Type (0, 1), BuildingBlock: MIFKUJ_clean_linker_0, # of connection points: 2
#     Edge 74, Type (0, 1), BuildingBlock: MIFKUJ_clean_linker_0, # of connection points: 2
#     Edge 75, Type (0, 1), BuildingBlock: MIFKUJ_clean_linker_0, # of connection points: 2
#     Edge 76, Type (0, 1), BuildingBlock: MIFKUJ_clean_linker_0, # of connection points: 2
#     Edge 77, Type (0, 1), BuildingBlock: MIFKUJ_clean_linker_0, # of connection points: 2
#     Edge 78, Type (0, 1), BuildingBlock: MIFKUJ_clean_linker_0, # of connection points: 2
#     Edge 79, Type (0, 1), BuildingBlock: MIFKUJ_clean_linker_0, # of connection points: 2
#     Edge 80, Type (0, 1), BuildingBlock: MIFKUJ_clean_linker_0, # of connection points: 2
#     Edge 81, Type (0, 1), BuildingBlock: MIFKUJ_clean_linker_0, # of connection points: 2
#     Edge 82, Type (0, 1), BuildingBlock: MIFKUJ_clean_linker_0, # of connection points: 2
#     Edge 83, Type (0, 1), BuildingBlock: MIFKUJ_clean_linker_0, # of connection points: 2
#     Edge 84, Type (0, 1), BuildingBlock: MIFKUJ_clean_linker_0, # of connection points: 2
#     Edge 85, Type (0, 1), BuildingBlock: MIFKUJ_clean_linker_0, # of connection points: 2
#     Edge 86, Type (0, 1), BuildingBlock: MIFKUJ_clean_linker_0, # of connection points: 2
#     Edge 87, Type (0, 1), BuildingBlock: MIFKUJ_clean_linker_0, # of connection points: 2
#     Edge 88, Type (0, 1), BuildingBlock: MIFKUJ_clean_linker_0, # of connection points: 2
#     Edge 89, Type (0, 1), BuildingBlock: MIFKUJ_clean_linker_0, # of connection points: 2
#     Edge 90, Type (0, 1), BuildingBlock: MIFKUJ_clean_linker_0, # of connection points: 2
#     Edge 91, Type (0, 1), BuildingBlock: MIFKUJ_clean_linker_0, # of connection points: 2
#     Edge 92, Type (0, 1), BuildingBlock: MIFKUJ_clean_linker_0, # of connection points: 2
#     Edge 93, Type (0, 1), BuildingBlock: MIFKUJ_clean_linker_0, # of connection points: 2
#     Edge 94, Type (0, 1), BuildingBlock: MIFKUJ_clean_linker_0, # of connection points: 2
#     Edge 95, Type (0, 1), BuildingBlock: MIFKUJ_clean_linker_0, # of connection points: 2
#     Edge 96, Type (0, 1), BuildingBlock: MIFKUJ_clean_linker_0, # of connection points: 2
#     Edge 97, Type (0, 1), BuildingBlock: MIFKUJ_clean_linker_0, # of connection points: 2
#     Edge 98, Type (0, 1), BuildingBlock: MIFKUJ_clean_linker_0, # of connection points: 2
#     Edge 99, Type (0, 1), BuildingBlock: MIFKUJ_clean_linker_0, # of connection points: 2
#     Edge 100, Type (0, 1), BuildingBlock: MIFKUJ_clean_linker_0, # of connection points: 2
#     Edge 101, Type (0, 1), BuildingBlock: MIFKUJ_clean_linker_0, # of connection points: 2
#     Edge 102, Type (0, 1), BuildingBlock: MIFKUJ_clean_linker_0, # of connection points: 2
#     Edge 103, Type (0, 1), BuildingBlock: MIFKUJ_clean_linker_0, # of connection points: 2
#     Edge 104, Type (0, 1), BuildingBlock: MIFKUJ_clean_linker_0, # of connection points: 2
#     Edge 105, Type (0, 1), BuildingBlock: MIFKUJ_clean_linker_0, # of connection points: 2
#     Edge 106, Type (0, 1), BuildingBlock: MIFKUJ_clean_linker_0, # of connection points: 2
#     Edge 107, Type (0, 1), BuildingBlock: MIFKUJ_clean_linker_0, # of connection points: 2
#     Edge 108, Type (0, 1), BuildingBlock: MIFKUJ_clean_linker_0, # of connection points: 2
#     Edge 109, Type (0, 1), BuildingBlock: MIFKUJ_clean_linker_0, # of connection points: 2
#     Edge 110, Type (0, 1), BuildingBlock: MIFKUJ_clean_linker_0, # of connection points: 2
#     Edge 111, Type (0, 1), BuildingBlock: MIFKUJ_clean_linker_0, # of connection points: 2
#     Edge 112, Type (0, 1), BuildingBlock: MIFKUJ_clean_linker_0, # of connection points: 2
#     Edge 113, Type (0, 1), BuildingBlock: MIFKUJ_clean_linker_0, # of connection points: 2
#     Edge 114, Type (0, 1), BuildingBlock: MIFKUJ_clean_linker_0, # of connection points: 2
#     Edge 115, Type (0, 1), BuildingBlock: MIFKUJ_clean_linker_0, # of connection points: 2
#     Edge 116, Type (0, 1), BuildingBlock: MIFKUJ_clean_linker_0, # of connection points: 2
#     Edge 117, Type (0, 1), BuildingBlock: MIFKUJ_clean_linker_0, # of connection points: 2
#     Edge 118, Type (0, 1), BuildingBlock: MIFKUJ_clean_linker_0, # of connection points: 2
#     Edge 119, Type (0, 1), BuildingBlock: MIFKUJ_clean_linker_0, # of connection points: 2
#     Edge 120, Type (0, 1), BuildingBlock: MIFKUJ_clean_linker_0, # of connection points: 2
#     Edge 121, Type (0, 1), BuildingBlock: MIFKUJ_clean_linker_0, # of connection points: 2
#     Edge 122, Type (0, 1), BuildingBlock: MIFKUJ_clean_linker_0, # of connection points: 2
#     Edge 123, Type (0, 1), BuildingBlock: MIFKUJ_clean_linker_0, # of connection points: 2
#     Edge 124, Type (0, 1), BuildingBlock: MIFKUJ_clean_linker_0, # of connection points: 2
#     Edge 125, Type (0, 1), BuildingBlock: MIFKUJ_clean_linker_0, # of connection points: 2
#     Edge 126, Type (0, 1), BuildingBlock: MIFKUJ_clean_linker_0, # of connection points: 2
#     Edge 127, Type (0, 1), BuildingBlock: MIFKUJ_clean_linker_0, # of connection points: 2
#     Edge 128, Type (0, 1), BuildingBlock: MIFKUJ_clean_linker_0, # of connection points: 2
#     Edge 129, Type (0, 1), BuildingBlock: MIFKUJ_clean_linker_0, # of connection points: 2
#     Edge 130, Type (0, 1), BuildingBlock: MIFKUJ_clean_linker_0, # of connection points: 2
#     Edge 131, Type (0, 1), BuildingBlock: MIFKUJ_clean_linker_0, # of connection points: 2
#     Edge 132, Type (0, 1), BuildingBlock: MIFKUJ_clean_linker_0, # of connection points: 2
#     Edge 133, Type (0, 1), BuildingBlock: MIFKUJ_clean_linker_0, # of connection points: 2
#     Edge 134, Type (0, 1), BuildingBlock: MIFKUJ_clean_linker_0, # of connection points: 2
#     Edge 135, Type (0, 1), BuildingBlock: MIFKUJ_clean_linker_0, # of connection points: 2
# Relax obj value: 0.249
# Max RMSD: 0.284
# Mean RMSD: 0.231
data_MOF--net-ibd--node1-GALJAG_clean_sbu_0--node2-CIFDUS_clean_sbu_1--edge1-MIFKUJ_clean_linker_0
_symmetry_space_group_name_H-M    P1
_symmetry_Int_Tables_number       1
_symmetry_cell_setting            triclinic
loop_
_symmetry_equiv_pos_as_xyz
'x, y, z'
_cell_length_a     61.285079
_cell_length_b     62.948275
_cell_length_c     63.777959
_cell_angle_alpha  90.722395
_cell_angle_beta   89.349722
_cell_angle_gamma 93.121241
loop_
_atom_site_label
_atom_site_type_symbol
_atom_site_fract_x
_atom_site_fract_y
_atom_site_fract_z
_atom_type_partial_charge
In0 In 0.00952 0.30215 0.36455 0.0
O1 O 0.03043 0.28555 0.34044 0.0
O2 O 0.99633 0.27739 0.34045 0.0
C3 C 0.04277 0.3051 0.3919 0.0
C4 C -0.00067 0.33546 0.341 0.0
C5 C 0.98087 0.29334 0.39603 0.0
O6 O 0.03412 0.28751 0.38572 0.0
O7 O 0.03588 0.32116 0.3829 0.0
O8 O 0.98861 0.31192 0.39229 0.0
O9 O 0.98628 0.27933 0.38283 0.0
C10 C 0.01471 0.27523 0.33174 0.0
O11 O 0.98527 0.32459 0.35151 0.0
O12 O 0.01875 0.33025 0.34323 0.0
In13 In 0.02113 0.78345 0.64457 0.0
O14 O 0.03008 0.80922 0.66911 0.0
O15 O 0.99693 0.80515 0.65954 0.0
C16 C 0.05167 0.79231 0.61471 0.0
C17 C 0.02987 0.75596 0.67493 0.0
C18 C 0.99038 0.77134 0.61637 0.0
O19 O 0.04215 0.80669 0.62466 0.0
O20 O 0.04706 0.77372 0.62109 0.0
O21 O 0.00177 0.75813 0.62545 0.0
O22 O 0.99349 0.79033 0.62262 0.0
C23 C 0.01064 0.8146 0.67152 0.0
O24 O 0.01057 0.75989 0.67015 0.0
O25 O 0.04457 0.7649 0.66358 0.0
In26 In 0.49231 0.80557 0.8712 0.0
O27 O 0.52195 0.79455 0.85329 0.0
O28 O 0.49146 0.77734 0.84862 0.0
C29 C 0.51469 0.82946 0.89959 0.0
C30 C 0.47656 0.82983 0.84087 0.0
C31 C 0.47038 0.78231 0.90068 0.0
O32 O 0.52384 0.81628 0.88775 0.0
O33 O 0.49458 0.83123 0.89637 0.0
O34 O 0.46248 0.79835 0.89248 0.0
O35 O 0.48857 0.77741 0.89307 0.0
C36 C 0.51136 0.77989 0.84342 0.0
O37 O 0.46578 0.8139 0.84825 0.0
O38 O 0.49432 0.83449 0.85003 0.0
In39 In 0.49513 0.27256 0.14252 0.0
O40 O 0.49256 0.24443 0.16512 0.0
O41 O 0.52034 0.26606 0.16709 0.0
C42 C 0.46777 0.25631 0.11296 0.0
C43 C 0.47631 0.30058 0.16819 0.0
C44 C 0.52608 0.28436 0.11395 0.0
O45 O 0.47929 0.24478 0.12397 0.0
O46 O 0.46904 0.27583 0.11783 0.0
O47 O 0.51328 0.29726 0.12209 0.0
O48 O 0.52416 0.26577 0.1212 0.0
C49 C 0.50988 0.25009 0.1747 0.0
O50 O 0.4955 0.30374 0.16109 0.0
O51 O 0.46623 0.28396 0.16129 0.0
In52 In 0.98729 0.77293 0.12343 0.0
O53 O 0.95625 0.77353 0.10359 0.0
O54 O 0.97877 0.80038 0.10284 0.0
C55 C 0.9674 0.74836 0.15308 0.0
C56 C 0.01413 0.75524 0.09511 0.0
C57 C 0.00771 0.79697 0.15322 0.0
O58 O 0.96193 0.76698 0.14937 0.0
O59 O 0.98153 0.74143 0.14057 0.0
O60 O 0.01312 0.77842 0.14853 0.0
O61 O 0.99313 0.80403 0.14178 0.0
C62 C 0.96128 0.79157 0.09592 0.0
O63 O 0.01912 0.77274 0.10419 0.0
O64 O 0.99611 0.74646 0.10089 0.0
In65 In 0.51906 0.77988 0.38791 0.0
O66 O 0.53202 0.75504 0.40957 0.0
O67 O 0.55105 0.78399 0.40606 0.0
C68 C 0.50889 0.75001 0.35827 0.0
C69 C 0.49216 0.79434 0.41803 0.0
C70 C 0.52701 0.81082 0.35958 0.0
O71 O 0.5283 0.75654 0.36205 0.0
O72 O 0.49467 0.7576 0.37031 0.0
O73 O 0.50789 0.8049 0.36538 0.0
O74 O 0.54206 0.8018 0.36881 0.0
C75 C 0.54864 0.76633 0.41516 0.0
O76 O 0.5083 0.80524 0.41072 0.0
O77 O 0.48872 0.77635 0.40931 0.0
In78 In 0.48336 0.2924 0.6278 0.0
O79 O 0.5141 0.29438 0.60676 0.0
O80 O 0.49095 0.26844 0.6021 0.0
C81 C 0.49534 0.31775 0.66071 0.0
C82 C 0.45556 0.31254 0.60333 0.0
C83 C 0.47238 0.25965 0.65323 0.0
O84 O 0.50915 0.31074 0.64785 0.0
O85 O 0.47568 0.31318 0.65608 0.0
O86 O 0.45832 0.27032 0.64436 0.0
O87 O 0.49195 0.26465 0.64818 0.0
C88 C 0.50856 0.27792 0.59613 0.0
O89 O 0.45091 0.29436 0.6108 0.0
O90 O 0.47379 0.32088 0.60897 0.0
In91 In 0.01896 0.28308 0.89118 0.0
O92 O 0.02968 0.25416 0.9085 0.0
O93 O 0.0516 0.28153 0.90802 0.0
C94 C 0.00084 0.25759 0.86086 0.0
C95 C 0.99709 0.29764 0.92522 0.0
C96 C 0.03204 0.31322 0.86322 0.0
O97 O 0.02044 0.25664 0.86651 0.0
O98 O 0.9899 0.27044 0.87149 0.0
O99 O 0.01307 0.31203 0.87118 0.0
O100 O 0.04484 0.30012 0.87044 0.0
C101 C 0.04753 0.26292 0.91472 0.0
O102 O 0.01371 0.30736 0.91734 0.0
O103 O 0.99052 0.28115 0.91513 0.0
In104 In 0.36728 0.01749 0.24626 0.0
O105 O 0.34319 0.991 0.25753 0.0
O106 O 0.34538 0.02 0.27504 0.0
C107 C 0.39647 0.9889 0.23441 0.0
C108 C 0.33843 0.0359 0.22146 0.0
C109 C 0.39831 0.04562 0.26069 0.0
O110 O 0.38955 0.99072 0.25303 0.0
O111 O 0.38755 0.00058 0.22136 0.0
O112 O 0.39452 0.04318 0.24136 0.0
O113 O 0.38593 0.03445 0.27265 0.0
C114 C 0.33593 0.00186 0.2726 0.0
O115 O 0.34873 0.0456 0.23599 0.0
O116 O 0.34394 0.01709 0.21812 0.0
In117 In 0.23534 0.14909 0.49593 0.0
O118 O 0.2047 0.16778 0.50059 0.0
O119 O 0.22853 0.16977 0.5246 0.0
C120 C 0.21557 0.1205 0.46951 0.0
C121 C 0.26 0.18109 0.47833 0.0
C122 C 0.25479 0.11904 0.51795 0.0
O123 O 0.2069 0.12634 0.48653 0.0
O124 O 0.23368 0.13005 0.46521 0.0
O125 O 0.26338 0.12761 0.50184 0.0
O126 O 0.23692 0.12648 0.52367 0.0
C127 C 0.21075 0.17611 0.51783 0.0
O128 O 0.26652 0.17079 0.49371 0.0
O129 O 0.24176 0.17439 0.47116 0.0
In130 In 0.11933 0.03175 0.73775 0.0
O131 O 0.09128 0.00866 0.7276 0.0
O132 O 0.10113 0.00804 0.75942 0.0
C133 C 0.14909 0.01717 0.71016 0.0
C134 C 0.0915 0.06261 0.73095 0.0
C135 C 0.14916 0.04858 0.76494 0.0
O136 O 0.14335 0.00747 0.72669 0.0
O137 O 0.13872 0.03353 0.70677 0.0
O138 O 0.14423 0.05761 0.74825 0.0
O139 O 0.1382 0.03143 0.76858 0.0
C140 C 0.08791 0.001 0.74562 0.0
O141 O 0.09534 0.05609 0.74911 0.0
O142 O 0.10223 0.05406 0.71639 0.0
In143 In 0.25267 0.90118 0.02237 0.0
O144 O 0.2309 0.91493 0.04788 0.0
O145 O 0.26442 0.92568 0.04667 0.0
C146 C 0.22233 0.87415 0.00493 0.0
C147 C 0.26119 0.93411 0.99653 0.0
C148 C 0.28003 0.87115 0.03334 0.0
O149 O 0.22064 0.88114 0.02348 0.0
O150 O 0.23871 0.88175 0.9948 0.0
O151 O 0.28331 0.88219 0.01711 0.0
O152 O 0.26383 0.87609 0.04435 0.0
C153 C 0.2459 0.92735 0.05515 0.0
O154 O 0.27605 0.92316 0.0037 0.0
O155 O 0.24194 0.92749 0.00123 0.0
In156 In 0.27227 0.39725 0.00236 0.0
O157 O 0.29023 0.3778 0.97785 0.0
O158 O 0.30154 0.37772 0.00924 0.0
C159 C 0.24861 0.42044 0.97684 0.0
C160 C 0.24589 0.36592 0.01839 0.0
C161 C 0.28878 0.4317 0.02358 0.0
O162 O 0.26768 0.41529 0.97194 0.0
O163 O 0.24128 0.41289 0.9939 0.0
O164 O 0.27254 0.42047 0.03033 0.0
O165 O 0.29735 0.42475 0.00696 0.0
C166 C 0.3033 0.37051 0.99079 0.0
O167 O 0.25812 0.37799 0.02977 0.0
O168 O 0.24634 0.37032 -0.00087 0.0
In169 In 0.76268 0.16701 0.01175 0.0
O170 O 0.76926 0.1448 0.03864 0.0
O171 O 0.73633 0.14682 0.02911 0.0
C172 C 0.78759 0.20078 0.02594 0.0
C173 C 0.7784 0.13741 0.98577 0.0
C174 C 0.7349 0.19137 0.99188 0.0
O175 O 0.77112 0.19309 0.03587 0.0
O176 O 0.7924 0.19054 0.00957 0.0
O177 O 0.75166 0.18433 0.98313 0.0
O178 O 0.73137 0.18504 0.01039 0.0
C179 C 0.74963 0.13794 0.04068 0.0
O180 O 0.75869 0.14231 0.98549 0.0
O181 O 0.79038 0.14825 0.99839 0.0
In182 In 0.13333 0.55683 0.28797 0.0
O183 O 0.1534 0.56005 0.318 0.0
O184 O 0.14727 0.52912 0.30528 0.0
C185 C 0.10641 0.58905 0.29377 0.0
C186 C 0.16752 0.5686 0.26256 0.0
C187 C 0.10125 0.52804 0.27673 0.0
O188 O 0.11617 0.58056 0.30858 0.0
O189 O 0.11105 0.58199 0.27572 0.0
O190 O 0.11809 0.53178 0.26547 0.0
O191 O 0.10094 0.53825 0.29388 0.0
C192 C 0.15679 0.54055 0.31913 0.0
O193 O 0.15547 0.55206 0.25914 0.0
O194 O 0.1614 0.5798 0.27781 0.0
In195 In 0.77026 0.92388 0.5033 0.0
O196 O 0.79361 0.90784 0.48045 0.0
O197 O 0.79511 0.90011 0.5127 0.0
C198 C 0.75352 0.94653 0.47221 0.0
C199 C 0.74225 0.89278 0.51764 0.0
C200 C 0.78085 0.95754 0.52888 0.0
O201 O 0.77378 0.94461 0.47414 0.0
O202 O 0.74173 0.93611 0.48526 0.0
O203 O 0.76182 0.94895 0.52787 0.0
O204 O 0.79488 0.94842 0.51784 0.0
C205 C 0.8018 0.8966 0.49428 0.0
O206 O 0.7525 0.90588 0.52963 0.0
O207 O 0.74521 0.89612 0.49829 0.0
In208 In 0.86752 0.03973 0.29406 0.0
O209 O 0.88749 0.02216 0.31733 0.0
O210 O 0.88402 0.00882 0.2867 0.0
C211 C 0.84589 0.06441 0.32109 0.0
C212 C 0.90021 0.06279 0.27489 0.0
C213 C 0.8308 0.02424 0.27515 0.0
O214 O 0.85241 0.04651 0.32614 0.0
O215 O 0.85158 0.07036 0.30291 0.0
O216 O 0.84431 0.03717 0.26628 0.0
O217 O 0.8364 0.01832 0.29303 0.0
C218 C 0.89259 0.00776 0.30452 0.0
O219 O 0.88524 0.05261 0.26491 0.0
O220 O 0.89806 0.06222 0.29459 0.0
In221 In 0.23713 0.66454 0.51245 0.0
O222 O 0.23513 0.63737 0.48864 0.0
O223 O 0.26668 0.65121 0.49574 0.0
C224 C 0.20446 0.68534 0.49556 0.0
C225 C 0.22817 0.63416 0.54118 0.0
C226 C 0.26044 0.70019 0.5246 0.0
O227 O 0.21918 0.67708 0.4847 0.0
O228 O 0.2054 0.68196 0.515 0.0
O229 O 0.24967 0.68853 0.53746 0.0
O230 O 0.26046 0.69317 0.506 0.0
C231 C 0.25553 0.6369 0.48595 0.0
O232 O 0.24719 0.64233 0.53812 0.0
O233 O 0.2134 0.64259 0.53099 0.0
In234 In 0.38627 0.51699 0.77598 0.0
O235 O 0.40346 0.49643 0.79897 0.0
O236 O 0.40579 0.4885 0.76653 0.0
C237 C 0.36127 0.54088 0.80086 0.0
C238 C 0.41965 0.54347 0.76322 0.0
C239 C 0.35194 0.49973 0.75474 0.0
O240 O 0.3695 0.52423 0.80738 0.0
O241 O 0.36703 0.54614 0.7825 0.0
O242 O 0.36745 0.51009 0.74558 0.0
O243 O 0.35456 0.49699 0.77408 0.0
C244 C 0.41173 0.48485 0.78497 0.0
O245 O 0.40405 0.53771 0.75124 0.0
O246 O 0.41774 0.53679 0.78174 0.0
In247 In 0.63615 0.05667 0.77841 0.0
O248 O 0.65243 0.04934 0.80945 0.0
O249 O 0.65363 0.02653 0.78464 0.0
C250 C 0.61103 0.08876 0.79075 0.0
C251 C 0.67157 0.0727 0.75717 0.0
C252 C 0.60416 0.03095 0.76134 0.0
O253 O 0.61642 0.0744 0.80298 0.0
O254 O 0.6193 0.08761 0.77261 0.0
O255 O 0.61891 0.0405 0.7505 0.0
O256 O 0.60598 0.03376 0.78087 0.0
C257 C 0.6594 0.03187 0.80299 0.0
O258 O 0.65563 0.06311 0.74807 0.0
O259 O 0.66909 0.07517 0.77669 0.0
In260 In 0.73099 0.65113 0.0184 0.0
O261 O 0.70128 0.6689 0.02973 0.0
O262 O 0.73103 0.67432 0.04616 0.0
C263 C 0.71012 0.6232 0.99199 0.0
C264 C 0.75324 0.68137 0.99606 0.0
C265 C 0.752 0.62139 0.0394 0.0
O266 O 0.70173 0.62918 0.00908 0.0
O267 O 0.72848 0.63222 0.98771 0.0
O268 O 0.76122 0.63329 0.02582 0.0
O269 O 0.73233 0.62517 0.04324 0.0
C270 C 0.71149 0.67916 0.04403 0.0
O271 O 0.76236 0.66993 0.00912 0.0
O272 O 0.73304 0.67699 0.99369 0.0
In273 In 0.87337 0.51896 0.74286 0.0
O274 O 0.84605 0.49464 0.75163 0.0
O275 O 0.85077 0.52184 0.77147 0.0
C276 C 0.89906 0.49045 0.72441 0.0
C277 C 0.84792 0.54052 0.71714 0.0
C278 C 0.9074 0.53941 0.7625 0.0
O279 O 0.8893 0.48693 0.74165 0.0
O280 O 0.8948 0.50775 0.71595 0.0
O281 O 0.90018 0.54565 0.74529 0.0
O282 O 0.89662 0.52373 0.77032 0.0
C283 C 0.83951 0.50494 0.76739 0.0
O284 O 0.85735 0.54911 0.73286 0.0
O285 O 0.85231 0.52141 0.71376 0.0
In286 In 0.7569 0.41794 0.51191 0.0
O287 O 0.7279 0.43142 0.52904 0.0
O288 O 0.75935 0.43839 0.54177 0.0
C289 C 0.73369 0.38874 0.4893 0.0
C290 C 0.76849 0.45147 0.48743 0.0
C291 C 0.78331 0.3889 0.52685 0.0
O292 O 0.72647 0.39675 0.5061 0.0
O293 O 0.75218 0.3964 0.48328 0.0
O294 O 0.79051 0.40378 0.51514 0.0
O295 O 0.7634 0.38944 0.53182 0.0
C296 C 0.73918 0.44134 0.54279 0.0
O297 O 0.78122 0.44414 0.50064 0.0
O298 O 0.75045 0.44101 0.48558 0.0
In299 In 0.62919 0.55625 0.25811 0.0
O300 O 0.60727 0.52511 0.25699 0.0
O301 O 0.59436 0.5529 0.27029 0.0
C302 C 0.66209 0.54835 0.23119 0.0
C303 C 0.61205 0.59084 0.24194 0.0
C304 C 0.65272 0.5546 0.29347 0.0
O305 O 0.64375 0.53813 0.23025 0.0
O306 O 0.66325 0.56308 0.24479 0.0
O307 O 0.64412 0.57133 0.2878 0.0
O308 O 0.6483 0.53846 0.28207 0.0
C309 C 0.59096 0.53372 0.26504 0.0
O310 O 0.61825 0.59022 0.26075 0.0
O311 O 0.61603 0.57461 0.23099 0.0
O312 O 0.14466 0.17174 0.11873 0.0
Mn313 Mn 0.12307 0.15052 0.13452 0.0
O314 O 0.16351 0.19049 0.14362 0.0
Mn315 Mn 0.14898 0.17922 0.16702 0.0
O316 O 0.10146 0.12988 0.15133 0.0
O317 O 0.10432 0.14806 0.10815 0.0
Mn318 Mn 0.09766 0.12028 0.105 0.0
O319 O 0.14158 0.12545 0.12471 0.0
O320 O 0.08078 0.11168 0.12778 0.0
O321 O 0.1042 0.1755 0.14558 0.0
O322 O 0.12243 0.19041 0.17308 0.0
O323 O 0.08449 0.1326 0.08325 0.0
O324 O 0.12304 0.10615 0.10044 0.0
C325 C 0.15551 0.14667 0.17368 0.0
C326 C 0.15947 0.18588 0.12442 0.0
C327 C 0.08532 0.11689 0.14663 0.0
C328 C 0.09296 0.15018 0.09119 0.0
C329 C 0.14004 0.11019 0.11129 0.0
C330 C 0.1056 0.18837 0.16147 0.0
O331 O 0.14221 0.15278 0.15977 0.0
O332 O 0.16366 0.16215 0.18514 0.0
O333 O 0.08389 0.88412 0.36176 0.0
Mn334 Mn 0.10778 0.89536 0.38332 0.0
O335 O 0.10053 0.86227 0.33922 0.0
Mn336 Mn 0.12834 0.86868 0.34882 0.0
O337 O 0.13233 0.90734 0.40376 0.0
O338 O 0.08888 0.92014 0.3904 0.0
Mn339 Mn 0.08835 0.92253 0.4181 0.0
O340 O 0.09218 0.87645 0.4065 0.0
O341 O 0.11641 0.92914 0.4267 0.0
O342 O 0.12374 0.9147 0.36072 0.0
O343 O 0.14191 0.89347 0.339 0.0
O344 O 0.0718 0.94363 0.40908 0.0
O345 O 0.07488 0.89807 0.42852 0.0
C346 C 0.13824 0.85357 0.37657 0.0
C347 C 0.08361 0.87098 0.34611 0.0
C348 C 0.13329 0.92108 0.41888 0.0
C349 C 0.07618 0.93605 0.39061 0.0
C350 C 0.07943 0.87958 0.42228 0.0
C351 C 0.13713 0.91185 0.34543 0.0
O352 O 0.12657 0.87029 0.37657 0.0
O353 O 0.14438 0.84726 0.35811 0.0
O354 O 0.41001 0.93868 0.64052 0.0
Mn355 Mn 0.38457 0.92383 0.62305 0.0
O356 O 0.43289 0.95514 0.61734 0.0
Mn357 Mn 0.41759 0.94698 0.59348 0.0
O358 O 0.35975 0.90854 0.60514 0.0
O359 O 0.37998 0.90219 0.64604 0.0
Mn360 Mn 0.3518 0.89853 0.65164 0.0
O361 O 0.36244 0.94401 0.63753 0.0
O362 O 0.33888 0.88836 0.62728 0.0
O363 O 0.40558 0.90275 0.60812 0.0
O364 O 0.42354 0.92078 0.58252 0.0
O365 O 0.36529 0.88049 0.66915 0.0
O366 O 0.34314 0.92449 0.66133 0.0
C367 C 0.38752 0.96141 0.58743 0.0
C368 C 0.42753 0.95001 0.63606 0.0
C369 C 0.34405 0.89465 0.60889 0.0
C370 C 0.38307 0.88842 0.66049 0.0
C371 C 0.34824 0.94216 0.65256 0.0
C372 C 0.41811 0.90351 0.59178 0.0
O373 O 0.3895 0.94594 0.60042 0.0
O374 O 0.40539 0.96708 0.57746 0.0
O375 O 0.39911 0.16655 0.90556 0.0
Mn376 Mn 0.37891 0.15282 0.88249 0.0
O377 O 0.41506 0.13862 0.91981 0.0
Mn378 Mn 0.4061 0.11726 0.90067 0.0
O379 O 0.3583 0.13755 0.86027 0.0
O380 O 0.35777 0.17588 0.8872 0.0
Mn381 Mn 0.34741 0.18419 0.8631 0.0
O382 O 0.39476 0.17067 0.85914 0.0
O383 O 0.33273 0.16039 0.85201 0.0
O384 O 0.36144 0.13369 0.90473 0.0
O385 O 0.37935 0.10352 0.9056 0.0
O386 O 0.33505 0.20076 0.88368 0.0
O387 O 0.37148 0.19426 0.8474 0.0
C388 C 0.41746 0.12213 0.86889 0.0
C389 C 0.41146 0.15847 0.91924 0.0
C390 C 0.34044 0.14201 0.8513 0.0
C391 C 0.34689 0.19046 0.89632 0.0
C392 C 0.38993 0.18578 0.84698 0.0
C393 C 0.3621 0.11362 0.90831 0.0
O394 O 0.40127 0.13113 0.87766 0.0
O395 O 0.42564 0.10799 0.88054 0.0
O396 O 0.60276 0.37584 0.86393 0.0
Mn397 Mn 0.62249 0.39138 0.88698 0.0
O398 O 0.62455 0.35849 0.842 0.0
Mn399 Mn 0.64982 0.37206 0.85188 0.0
O400 O 0.64146 0.40789 0.90977 0.0
O401 O 0.59723 0.40937 0.89389 0.0
Mn402 Mn 0.5922 0.40963 0.92112 0.0
O403 O 0.61144 0.36805 0.90888 0.0
O404 O 0.61756 0.42174 0.93263 0.0
O405 O 0.63422 0.41511 0.86612 0.0
O406 O 0.6557 0.39931 0.8425 0.0
O407 O 0.57207 0.42664 0.90959 0.0
O408 O 0.58471 0.38188 0.92831 0.0
C409 C 0.66493 0.3615 0.87941 0.0
C410 C 0.60564 0.36334 0.84812 0.0
C411 C 0.637 0.41954 0.92587 0.0
C412 C 0.58138 0.42189 0.89195 0.0
C413 C 0.59603 0.36638 0.92283 0.0
C414 C 0.64743 0.41578 0.8503 0.0
O415 O 0.64819 0.37337 0.87965 0.0
O416 O 0.67216 0.35663 0.86089 0.0
O417 O 0.90826 0.43496 0.15483 0.0
Mn418 Mn 0.88502 0.42303 0.13345 0.0
O419 O 0.93329 0.4554 0.13689 0.0
Mn420 Mn 0.92163 0.45062 0.11028 0.0
O421 O 0.8625 0.41002 0.11173 0.0
O422 O 0.87701 0.39988 0.15334 0.0
Mn423 Mn 0.84888 0.39377 0.15593 0.0
O424 O 0.86122 0.44155 0.14705 0.0
O425 O 0.84159 0.38503 0.129 0.0
O426 O 0.9077 0.4038 0.11841 0.0
O427 O 0.92855 0.42535 0.09738 0.0
O428 O 0.86317 0.37689 0.17484 0.0
O429 O 0.83744 0.41927 0.16457 0.0
C430 C 0.89047 0.46346 0.10338 0.0
C431 C 0.92575 0.44714 0.15385 0.0
C432 C 0.84813 0.39429 0.11216 0.0
C433 C 0.88071 0.38696 0.16803 0.0
C434 C 0.84415 0.43782 0.15866 0.0
C435 C 0.92182 0.40685 0.10344 0.0
O436 O 0.89326 0.44701 0.11444 0.0
O437 O 0.90846 0.47197 0.09575 0.0
O438 O 0.89715 0.68796 0.41447 0.0
Mn439 Mn 0.8796 0.66911 0.39252 0.0
O440 O 0.91324 0.66482 0.4355 0.0
Mn441 Mn 0.90261 0.63932 0.42347 0.0
O442 O 0.86116 0.64932 0.37192 0.0
O443 O 0.86059 0.69324 0.38759 0.0
Mn444 Mn 0.85337 0.69526 0.36111 0.0
O445 O 0.90028 0.67961 0.36807 0.0
O446 O 0.8376 0.66989 0.3559 0.0
O447 O 0.85788 0.65738 0.41591 0.0
O448 O 0.87453 0.63069 0.4315 0.0
O449 O 0.84241 0.71846 0.37529 0.0
O450 O 0.87986 0.69865 0.34667 0.0
C451 C 0.91449 0.63346 0.39189 0.0
C452 C 0.90921 0.68372 0.43014 0.0
C453 C 0.84424 0.65169 0.36059 0.0
C454 C 0.85185 0.71098 0.39142 0.0
C455 C 0.89783 0.69071 0.35155 0.0
C456 C 0.85766 0.64112 0.42803 0.0
O457 O 0.89927 0.64567 0.39714 0.0
O458 O 0.92146 0.62301 0.40753 0.0
O459 O 0.85879 0.88264 0.90148 0.0
Mn460 Mn 0.87396 0.90755 0.88433 0.0
O461 O 0.83592 0.86466 0.87912 0.0
Mn462 Mn 0.84253 0.88044 0.85527 0.0
O463 O 0.88989 0.9314 0.86625 0.0
O464 O 0.89836 0.90862 0.90487 0.0
Mn465 Mn 0.90872 0.93467 0.91022 0.0
O466 O 0.85829 0.93026 0.90229 0.0
O467 O 0.91929 0.94385 0.88449 0.0
O468 O 0.89094 0.88633 0.8652 0.0
O469 O 0.86735 0.87377 0.84059 0.0
O470 O 0.92344 0.91668 0.92739 0.0
O471 O 0.88475 0.94849 0.92064 0.0
C472 C 0.83167 0.91232 0.855 0.0
C473 C 0.84448 0.86754 0.89716 0.0
C474 C 0.90837 0.94209 0.8676 0.0
C475 C 0.91061 0.90188 0.9193 0.0
C476 C 0.86482 0.94497 0.91535 0.0
C477 C 0.88666 0.87659 0.8477 0.0
O478 O 0.84859 0.90644 0.86471 0.0
O479 O 0.82185 0.89732 0.84408 0.0
O480 O 0.9146 0.18577 0.64654 0.0
Mn481 Mn 0.89338 0.17594 0.62213 0.0
O482 O 0.89324 0.20241 0.67008 0.0
Mn483 Mn 0.86724 0.201 0.65526 0.0
O484 O 0.87075 0.16535 0.59903 0.0
O485 O 0.91272 0.1518 0.6155 0.0
Mn486 Mn 0.91463 0.14804 0.58813 0.0
O487 O 0.91097 0.1954 0.60051 0.0
O488 O 0.88682 0.14059 0.57938 0.0
O489 O 0.8749 0.15586 0.64273 0.0
O490 O 0.85003 0.17625 0.65799 0.0
O491 O 0.9323 0.12871 0.5996 0.0
O492 O 0.92689 0.17323 0.57768 0.0
C493 C 0.86663 0.21893 0.62681 0.0
C494 C 0.91156 0.1955 0.66419 0.0
C495 C 0.87011 0.15053 0.58487 0.0
C496 C 0.92691 0.13748 0.61726 0.0
C497 C 0.92316 0.19187 0.58436 0.0
C498 C 0.85706 0.15816 0.6532 0.0
O499 O 0.87511 0.20075 0.62868 0.0
O500 O 0.85725 0.22544 0.6438 0.0
O501 O 0.63472 0.17976 0.40574 0.0
Mn502 Mn 0.61528 0.1559 0.391 0.0
O503 O 0.6493 0.19997 0.3794 0.0
Mn504 Mn 0.63737 0.18533 0.3564 0.0
O505 O 0.59535 0.13316 0.37495 0.0
O506 O 0.59776 0.15223 0.41789 0.0
Mn507 Mn 0.59049 0.1248 0.42099 0.0
O508 O 0.63583 0.13261 0.40059 0.0
O509 O 0.57264 0.11756 0.3986 0.0
O510 O 0.59367 0.17811 0.37998 0.0
O511 O 0.60916 0.19124 0.3501 0.0
O512 O 0.5799 0.13828 0.4444 0.0
O513 O 0.61642 0.11091 0.42252 0.0
C514 C 0.64966 0.15395 0.35349 0.0
C515 C 0.64688 0.19553 0.39882 0.0
C516 C 0.57812 0.1216 0.37969 0.0
C517 C 0.58867 0.15536 0.43601 0.0
C518 C 0.63392 0.1163 0.41249 0.0
C519 C 0.59293 0.18846 0.36266 0.0
O520 O 0.63366 0.15924 0.36521 0.0
O521 O 0.65608 0.16881 0.34069 0.0
O522 O 0.61425 0.89361 0.10854 0.0
Mn523 Mn 0.62782 0.91191 0.13332 0.0
O524 O 0.59044 0.91419 0.09277 0.0
Mn525 Mn 0.59803 0.93907 0.10722 0.0
O526 O 0.64137 0.93149 0.15735 0.0
O527 O 0.65255 0.89199 0.13303 0.0
Mn528 Mn 0.6633 0.89129 0.15837 0.0
O529 O 0.6117 0.89252 0.15562 0.0
O530 O 0.67376 0.91861 0.16424 0.0
O531 O 0.64589 0.93157 0.11241 0.0
O532 O 0.62311 0.95384 0.098 0.0
O533 O 0.67912 0.87287 0.14248 0.0
O534 O 0.63965 0.88092 0.17452 0.0
C535 C 0.58646 0.943 0.13866 0.0
C536 C 0.5997 0.89669 0.09469 0.0
C537 C 0.66068 0.93354 0.16492 0.0
C538 C 0.66587 0.87753 0.12779 0.0
C539 C 0.61919 0.88219 0.17112 0.0
C540 C 0.64225 0.94773 0.10111 0.0
O541 O 0.60256 0.93144 0.13334 0.0
O542 O 0.57782 0.95262 0.12325 0.0
O543 O 0.40777 0.68274 0.1557 0.0
Mn544 Mn 0.39237 0.66366 0.13234 0.0
O545 O 0.38058 0.69809 0.17355 0.0
Mn546 Mn 0.35707 0.68669 0.15823 0.0
O547 O 0.37615 0.64378 0.10996 0.0
O548 O 0.41809 0.64534 0.13194 0.0
Mn549 Mn 0.4255 0.63775 0.10634 0.0
O550 O 0.40667 0.68236 0.10831 0.0
O551 O 0.40125 0.62241 0.09636 0.0
O552 O 0.3772 0.64377 0.15533 0.0
O553 O 0.34717 0.65999 0.16643 0.0
O554 O 0.44534 0.62626 0.12418 0.0
O555 O 0.43223 0.66302 0.09241 0.0
C556 C 0.3543 0.6966 0.12635 0.0
C557 C 0.40074 0.6945 0.17079 0.0
C558 C 0.38162 0.62795 0.09837 0.0
C559 C 0.43466 0.63587 0.13874 0.0
C560 C 0.42175 0.67993 0.09435 0.0
C561 C 0.35889 0.64392 0.16547 0.0
O562 O 0.3674 0.68284 0.13279 0.0
O563 O 0.34145 0.70349 0.14083 0.0
O564 O 0.14397 0.66494 0.91069 0.0
Mn565 Mn 0.13057 0.64259 0.88913 0.0
O566 O 0.17009 0.68478 0.89358 0.0
Mn567 Mn 0.16477 0.67332 0.86713 0.0
O568 O 0.11584 0.62119 0.86697 0.0
O569 O 0.10452 0.63899 0.90809 0.0
Mn570 Mn 0.09474 0.61241 0.91038 0.0
O571 O 0.14507 0.6177 0.90422 0.0
O572 O 0.08677 0.60486 0.88344 0.0
O573 O 0.11543 0.66672 0.87317 0.0
O574 O 0.14144 0.6839 0.85355 0.0
O575 O 0.07783 0.62838 0.92833 0.0
O576 O 0.11808 0.59832 0.92072 0.0
C577 C 0.17535 0.64198 0.861 0.0
C578 C 0.15907 0.67996 0.91008 0.0
C579 C 0.09821 0.60894 0.86701 0.0
C580 C 0.09068 0.64414 0.92229 0.0
C581 C 0.13818 0.6021 0.91586 0.0
C582 C 0.12155 0.68036 0.8591 0.0
O583 O 0.1576 0.64617 0.87098 0.0
O584 O 0.186 0.65854 0.8535 0.0
O585 O 0.1087 0.38375 0.60309 0.0
Mn586 Mn 0.12582 0.40158 0.62614 0.0
O587 O 0.08972 0.40689 0.58468 0.0
Mn588 Mn 0.09907 0.43171 0.59873 0.0
O589 O 0.14418 0.42053 0.64794 0.0
O590 O 0.14638 0.3778 0.62787 0.0
Mn591 Mn 0.15544 0.3749 0.65368 0.0
O592 O 0.107 0.38776 0.65036 0.0
O593 O 0.17097 0.4002 0.65864 0.0
O594 O 0.14569 0.41712 0.60315 0.0
O595 O 0.12591 0.44319 0.5902 0.0
O596 O 0.16707 0.3532 0.63814 0.0
O597 O 0.13025 0.36977 0.66986 0.0
C598 C 0.08815 0.43483 0.63092 0.0
C599 C 0.09582 0.38816 0.58807 0.0
C600 C 0.16283 0.41819 0.65654 0.0
C601 C 0.15637 0.3609 0.6229 0.0
C602 C 0.11135 0.37648 0.66632 0.0
C603 C 0.14387 0.43416 0.59235 0.0
O604 O 0.10403 0.42387 0.62448 0.0
O605 O 0.07983 0.44567 0.61621 0.0
O606 O 0.65822 0.69283 0.62003 0.0
Mn607 Mn 0.63725 0.67113 0.63619 0.0
O608 O 0.67956 0.70886 0.64492 0.0
Mn609 Mn 0.66831 0.6943 0.66814 0.0
O610 O 0.61632 0.65027 0.65391 0.0
O611 O 0.61517 0.67369 0.61335 0.0
Mn612 Mn 0.6 0.64943 0.61016 0.0
O613 O 0.64999 0.64548 0.61999 0.0
O614 O 0.58557 0.64556 0.63534 0.0
O615 O 0.62247 0.69581 0.6525 0.0
O616 O 0.64365 0.70513 0.67996 0.0
O617 O 0.58975 0.66741 0.59035 0.0
O618 O 0.62078 0.62989 0.60334 0.0
C619 C 0.6748 0.66119 0.66996 0.0
C620 C 0.67347 0.70651 0.62587 0.0
C621 C 0.59586 0.64474 0.65245 0.0
C622 C 0.60446 0.68082 0.59786 0.0
C623 C 0.64097 0.63058 0.60843 0.0
C624 C 0.6258 0.70567 0.67004 0.0
O625 O 0.66007 0.66887 0.65836 0.0
O626 O 0.68489 0.67522 0.68186 0.0
O627 O 0.35522 0.39423 0.40466 0.0
Mn628 Mn 0.37232 0.41643 0.38551 0.0
O629 O 0.32836 0.37864 0.38492 0.0
Mn630 Mn 0.3366 0.39121 0.35972 0.0
O631 O 0.39022 0.43732 0.36514 0.0
O632 O 0.39708 0.41614 0.4055 0.0
Mn633 Mn 0.41192 0.44073 0.40689 0.0
O634 O 0.36067 0.44181 0.40268 0.0
O635 O 0.42313 0.44287 0.3801 0.0
O636 O 0.3856 0.39193 0.36774 0.0
O637 O 0.35941 0.3792 0.34575 0.0
O638 O 0.42334 0.42332 0.42695 0.0
O639 O 0.39102 0.46015 0.41431 0.0
C640 C 0.33061 0.42415 0.35575 0.0
C641 C 0.33866 0.38099 0.40215 0.0
C642 C 0.41083 0.44258 0.36414 0.0
C643 C 0.40813 0.40966 0.42092 0.0
C644 C 0.37027 0.45794 0.41199 0.0
C645 C 0.3791 0.38035 0.352 0.0
O646 O 0.34646 0.41717 0.36639 0.0
O647 O 0.31864 0.40937 0.3465 0.0
H648 H 0.98384 0.25131 0.3094 0.0
H649 H 0.98784 0.23674 0.27363 0.0
H650 H 0.05519 0.26039 0.27216 0.0
H651 H 0.05149 0.27454 0.30769 0.0
H652 H 0.02943 0.2723 0.23706 0.0
H653 H 0.04299 0.21065 0.27996 0.0
H654 H 0.03338 0.18146 0.30432 0.0
H655 H 0.98297 0.15742 0.26278 0.0
H656 H 0.99186 0.18686 0.23844 0.0
H657 H 0.10786 0.22739 0.17938 0.0
H658 H 0.07971 0.24366 0.19974 0.0
H659 H 0.03246 0.19465 0.17904 0.0
H660 H 0.06143 0.17754 0.15909 0.0
H661 H 0.03086 0.19588 0.21838 0.0
H662 H 0.0247 0.25048 0.17164 0.0
H663 H 0.03466 0.27805 0.14564 0.0
H664 H 0.07145 0.31403 0.19213 0.0
H665 H 0.06206 0.28655 0.21835 0.0
C666 C -0.00043 0.25307 0.30153 0.0
C667 C 0.01737 0.26405 0.31137 0.0
C668 C 0.00179 0.24484 0.2811 0.0
C669 C 0.02175 0.2477 0.27021 0.0
C670 C 0.03959 0.25818 0.28024 0.0
C671 C 0.03749 0.26613 0.30062 0.0
C672 C 0.02446 0.24029 0.24822 0.0
C673 C 0.02993 0.25557 0.23292 0.0
C674 C 0.02358 0.21848 0.24251 0.0
C675 C 0.01768 0.20135 0.25765 0.0
C676 C 0.0295 0.19947 0.27625 0.0
C677 C 0.02424 0.18282 0.29002 0.0
C678 C 0.00742 0.16772 0.28521 0.0
C679 C 0.99584 0.16924 0.26659 0.0
C680 C 0.00094 0.18595 0.25284 0.0
C681 C 0.09134 0.22038 0.1786 0.0
C682 C 0.08694 0.20101 0.16791 0.0
C683 C 0.07505 0.22991 0.19011 0.0
C684 C 0.05373 0.22056 0.191 0.0
C685 C 0.04874 0.20225 0.17863 0.0
C686 C 0.06526 0.19253 0.16711 0.0
C687 C 0.0386 0.22775 0.20784 0.0
C688 C 0.03024 0.21258 0.22222 0.0
C689 C 0.03683 0.24961 0.21269 0.0
C690 C 0.04259 0.26638 0.19703 0.0
C691 C 0.035 0.2642 0.17633 0.0
C692 C 0.04055 0.27984 0.16153 0.0
C693 C 0.05366 0.29779 0.16723 0.0
C694 C 0.06124 0.30014 0.18775 0.0
C695 C 0.05575 0.28455 0.20261 0.0
H696 H 0.05795 0.30987 0.15575 0.0
H697 H 0.00349 0.15474 0.29581 0.0
H698 H 0.0691 0.76311 0.5881 0.0
H699 H 0.07765 0.76821 0.55076 0.0
H700 H 0.06664 0.83498 0.55763 0.0
H701 H 0.05829 0.83016 0.59483 0.0
H702 H 0.03723 0.80118 0.52865 0.0
H703 H 0.11093 0.82989 0.54916 0.0
H704 H 0.14789 0.82578 0.56279 0.0
H705 H 0.15946 0.77873 0.51521 0.0
H706 H 0.12228 0.7821 0.50168 0.0
H707 H 0.05122 0.88041 0.45569 0.0
H708 H 0.04755 0.85456 0.48354 0.0
H709 H 0.08898 0.8133 0.44887 0.0
H710 H 0.09105 0.83812 0.41996 0.0
H711 H 0.10403 0.81916 0.48655 0.0
H712 H 0.03586 0.79991 0.45911 0.0
H713 H -0.00036 0.80367 0.44395 0.0
H714 H 0.97626 0.82857 0.50244 0.0
H715 H 0.01279 0.82663 0.51759 0.0
C716 C 0.06931 0.77903 0.58182 0.0
C717 C 0.06284 0.79624 0.59435 0.0
C718 C 0.07418 0.78187 0.5605 0.0
C719 C 0.07272 0.80193 0.55155 0.0
C720 C 0.06795 0.81939 0.56437 0.0
C721 C 0.06323 0.81662 0.58564 0.0
C722 C 0.07229 0.80443 0.5286 0.0
C723 C 0.05173 0.80519 0.5193 0.0
C724 C 0.09138 0.80807 0.51629 0.0
C725 C 0.11356 0.80584 0.52476 0.0
C726 C 0.12113 0.81831 0.54189 0.0
C727 C 0.14218 0.8162 0.54954 0.0
C728 C 0.15592 0.80185 0.54001 0.0
C729 C 0.14871 0.78969 0.52271 0.0
C730 C 0.12763 0.79167 0.51507 0.0
C731 C 0.05892 0.86543 0.45356 0.0
C732 C 0.07226 0.86168 0.43594 0.0
C733 C 0.05674 0.8506 0.46956 0.0
C734 C 0.06786 0.83172 0.46829 0.0
C735 C 0.07989 0.82736 0.45007 0.0
C736 C 0.08145 0.84186 0.43369 0.0
C737 C 0.06875 0.81813 0.48705 0.0
C738 C 0.08936 0.8148 0.49553 0.0
C739 C 0.04961 0.81192 0.49857 0.0
C740 C 0.02733 0.8131 0.48956 0.0
C741 C 0.02316 0.80645 0.46875 0.0
C742 C 0.00253 0.80834 0.46011 0.0
C743 C 0.98559 0.81613 0.47228 0.0
C744 C 0.98937 0.82243 0.49304 0.0
C745 C 0.01014 0.82109 0.50163 0.0
H746 H 0.96956 0.81734 0.4656 0.0
H747 H 0.1722 0.80027 0.54597 0.0
H748 H 0.49588 0.86552 0.82306 0.0
H749 H 0.49006 0.87874 0.78761 0.0
H750 H 0.44 0.82893 0.77768 0.0
H751 H 0.44547 0.81584 0.81305 0.0
H752 H 0.47333 0.83336 0.74482 0.0
H753 H 0.42562 0.8764 0.7884 0.0
H754 H 0.41898 0.90262 0.8165 0.0
H755 H 0.46226 0.94861 0.7858 0.0
H756 H 0.46932 0.92251 0.75762 0.0
H757 H 0.39372 0.84986 0.6732 0.0
H758 H 0.42173 0.84289 0.69836 0.0
H759 H 0.4482 0.90759 0.69274 0.0
H760 H 0.41925 0.91463 0.66817 0.0
H761 H 0.43893 0.90111 0.73084 0.0
H762 H 0.48037 0.86276 0.68344 0.0
H763 H 0.48959 0.83801 0.65486 0.0
H764 H 0.46342 0.78522 0.69091 0.0
H765 H 0.45365 0.80963 0.71957 0.0
C766 C 0.48337 0.85764 0.81343 0.0
C767 C 0.47098 0.83975 0.82089 0.0
C768 C 0.48019 0.86511 0.79317 0.0
C769 C 0.46473 0.85468 0.78003 0.0
C770 C 0.45211 0.83709 0.78757 0.0
C771 C 0.45508 0.82978 0.80787 0.0
C772 C 0.46138 0.86197 0.75839 0.0
C773 C 0.46585 0.84816 0.74165 0.0
C774 C 0.45277 0.88182 0.75423 0.0
C775 C 0.44834 0.89741 0.77114 0.0
C776 C 0.43392 0.89202 0.78777 0.0
C777 C 0.43002 0.90687 0.80368 0.0
C778 C 0.44029 0.92723 0.803 0.0
C779 C 0.45439 0.93281 0.78635 0.0
C780 C 0.45835 0.918 0.77043 0.0
C781 C 0.4061 0.86234 0.67662 0.0
C782 C 0.40437 0.88284 0.66866 0.0
C783 C 0.42228 0.85831 0.69099 0.0
C784 C 0.43724 0.87469 0.69756 0.0
C785 C 0.4369 0.89465 0.68793 0.0
C786 C 0.42054 0.89866 0.67358 0.0
C787 C 0.44979 0.87191 0.71709 0.0
C788 C 0.44712 0.88657 0.73363 0.0
C789 C 0.46053 0.85301 0.72095 0.0
C790 C 0.4662 0.83812 0.70369 0.0
C791 C 0.47641 0.8459 0.68524 0.0
C792 C 0.48176 0.83191 0.66901 0.0
C793 C 0.47708 0.81006 0.67106 0.0
C794 C 0.46705 0.80215 0.68935 0.0
C795 C 0.46164 0.81607 0.70562 0.0
H796 H 0.48125 0.79926 0.65849 0.0
H797 H 0.43724 0.93871 0.81532 0.0
H798 H 0.44829 0.27931 0.08302 0.0
H799 H 0.43793 0.26707 0.04776 0.0
H800 H 0.45286 0.20311 0.06373 0.0
H801 H 0.46354 0.21528 0.09883 0.0
H802 H 0.47514 0.21668 0.02951 0.0
H803 H 0.39901 0.21643 0.05339 0.0
H804 H 0.36587 0.23197 0.06793 0.0
H805 H 0.36996 0.28005 0.02068 0.0
H806 H 0.40291 0.2646 0.00568 0.0
H807 H 0.42445 0.1461 0.95759 0.0
H808 H 0.43626 0.16856 0.98711 0.0
H809 H 0.43113 0.2245 0.94957 0.0
H810 H 0.42065 0.20185 0.91923 0.0
H811 H 0.40655 0.22291 0.99014 0.0
H812 H 0.47801 0.22048 0.96299 0.0
H813 H 0.51047 0.20524 0.94683 0.0
H814 H 0.51561 0.16383 -0.00068 0.0
H815 H 0.48305 0.17871 0.01574 0.0
C816 C 0.44881 0.26253 0.07919 0.0
C817 C 0.45691 0.24826 0.09363 0.0
C818 C 0.44285 0.25556 0.05902 0.0
C819 C 0.44475 0.2342 0.05306 0.0
C820 C 0.45141 0.2197 0.06796 0.0
C821 C 0.45743 0.22665 0.08805 0.0
C822 C 0.44225 0.22725 0.03087 0.0
C823 C 0.46001 0.21784 0.02103 0.0
C824 C 0.42303 0.22995 0.0193 0.0
C825 C 0.4036 0.23956 0.02864 0.0
C826 C 0.39293 0.23043 0.04623 0.0
C827 C 0.3741 0.23913 0.05445 0.0
C828 C 0.36581 0.25699 0.04523 0.0
C829 C 0.37634 0.26618 0.02776 0.0
C830 C 0.39506 0.25742 0.01936 0.0
C831 C 0.4262 0.16314 0.95538 0.0
C832 C 0.42082 0.17226 0.93623 0.0
C833 C 0.43294 0.17595 0.97231 0.0
C834 C 0.43433 0.19814 0.97052 0.0
C835 C 0.42988 0.20737 0.95125 0.0
C836 C 0.42356 0.19446 0.93408 0.0
C837 C 0.43886 0.21127 0.98948 0.0
C838 C 0.42166 0.222 -0.00134 0.0
C839 C 0.45861 0.20995 0.00042 0.0
C840 C 0.47797 0.2006 0.99051 0.0
C841 C 0.48592 0.20797 0.97099 0.0
C842 C 0.50438 0.19945 0.96182 0.0
C843 C 0.51506 0.18353 0.97202 0.0
C844 C 0.50731 0.17615 0.99144 0.0
C845 C 0.48888 0.18466 0.00071 0.0
H846 H 0.52936 0.17696 0.96489 0.0
H847 H 0.35122 0.26369 0.0516 0.0
H848 H 0.02247 0.77872 0.18828 0.0
H849 H 0.02887 0.79572 0.22256 0.0
H850 H 0.01503 0.85648 0.19695 0.0
H851 H 0.00779 0.83946 0.16262 0.0
H852 H 0.05594 0.85249 0.22413 0.0
H853 H 0.97865 0.83933 0.22141 0.0
H854 H 0.94446 0.81785 0.21547 0.0
H855 H 0.95963 0.7768 0.26584 0.0
H856 H 0.99439 0.79758 0.27166 0.0
H857 H 0.06758 0.89959 0.3205 0.0
H858 H 0.04587 0.89156 0.28943 0.0
H859 H 0.03861 0.82578 0.30771 0.0
H860 H 0.05906 0.83439 0.33976 0.0
H861 H 0.00453 0.83623 0.28326 0.0
H862 H 0.08351 0.84369 0.28113 0.0
H863 H 0.11889 0.86315 0.28752 0.0
H864 H 0.10091 0.91294 0.24675 0.0
H865 H 0.06524 0.89392 0.24042 0.0
C866 C 0.02113 0.79576 0.18984 0.0
C867 C 0.01479 0.80785 0.17278 0.0
C868 C 0.02458 0.80536 0.20945 0.0
C869 C 0.02215 0.82722 0.21224 0.0
C870 C 0.01682 0.83954 0.19504 0.0
C871 C 0.01281 0.82985 0.17549 0.0
C872 C 0.02521 0.83701 0.23325 0.0
C873 C 0.04449 0.84935 0.23696 0.0
C874 C 0.01042 0.83235 0.25001 0.0
C875 C 0.98945 0.8198 0.24667 0.0
C876 C 0.97497 0.82549 0.23098 0.0
C877 C 0.95544 0.81345 0.22766 0.0
C878 C 0.94999 0.79586 0.24016 0.0
C879 C 0.96401 0.79032 0.25606 0.0
C880 C 0.98366 0.80221 0.25934 0.0
C881 C 0.05966 0.88394 0.31891 0.0
C882 C 0.06419 0.86787 0.33297 0.0
C883 C 0.04781 0.87913 0.30076 0.0
C884 C 0.04109 0.85796 0.29599 0.0
C885 C 0.04364 0.84223 0.31105 0.0
C886 C 0.05524 0.84715 0.32941 0.0
C887 C 0.03534 0.85164 0.27416 0.0
C888 C 0.01573 0.83974 0.27032 0.0
C889 C 0.04995 0.8564 0.25724 0.0
C890 C 0.07165 0.8675 0.26046 0.0
C891 C 0.08709 0.85882 0.27358 0.0
C892 C 0.10717 0.86978 0.27721 0.0
C893 C 0.11213 0.88929 0.26759 0.0
C894 C 0.09704 0.89784 0.25423 0.0
C895 C 0.07688 0.88698 0.25061 0.0
H896 H 0.12767 0.89778 0.27045 0.0
H897 H 0.93483 0.78661 0.23762 0.0
H898 H 0.50161 0.82926 0.44229 0.0
H899 H 0.48525 0.83849 0.47597 0.0
H900 H 0.43949 0.78423 0.47084 0.0
H901 H 0.45614 0.77456 0.43697 0.0
H902 H 0.42179 0.82533 0.48514 0.0
H903 H 0.47539 0.77711 0.50205 0.0
H904 H 0.51149 0.76188 0.49868 0.0
H905 H 0.54227 0.82004 0.52244 0.0
H906 H 0.50637 0.83583 0.5255 0.0
H907 H 0.39542 0.86494 0.58707 0.0
H908 H 0.40419 0.83711 0.56144 0.0
H909 H 0.4663 0.87008 0.54856 0.0
H910 H 0.45734 0.8981 0.57333 0.0
H911 H 0.47067 0.8283 0.54674 0.0
H912 H 0.41908 0.8783 0.52126 0.0
H913 H 0.38404 0.89566 0.51957 0.0
H914 H 0.35012 0.83494 0.50955 0.0
H915 H 0.38491 0.81716 0.5118 0.0
C916 C 0.48791 0.81938 0.44814 0.0
C917 C 0.48019 0.80115 0.437 0.0
C918 C 0.47865 0.82463 0.46745 0.0
C919 C 0.46139 0.81187 0.47597 0.0
C920 C 0.4529 0.79418 0.46452 0.0
C921 C 0.46238 0.78873 0.44521 0.0
C922 C 0.45285 0.81717 0.4971 0.0
C923 C 0.43214 0.8254 0.49884 0.0
C924 C 0.46653 0.81735 0.51482 0.0
C925 C 0.48814 0.80771 0.51388 0.0
C926 C 0.48986 0.78671 0.50646 0.0
C927 C 0.51029 0.77798 0.50459 0.0
C928 C 0.52916 0.79002 0.51025 0.0
C929 C 0.52762 0.81075 0.51801 0.0
C930 C 0.50722 0.8196 0.51984 0.0
C931 C 0.41117 0.86587 0.57918 0.0
C932 C 0.42557 0.88381 0.58189 0.0
C933 C 0.41616 0.84995 0.56457 0.0
C934 C 0.4358 0.85155 0.55294 0.0
C935 C 0.45103 0.86844 0.55728 0.0
C936 C 0.4459 0.88448 0.57146 0.0
C937 C 0.43987 0.83738 0.53464 0.0
C938 C 0.45987 0.82748 0.53337 0.0
C939 C 0.42553 0.83575 0.51731 0.0
C940 C 0.40454 0.84638 0.51701 0.0
C941 C 0.40411 0.86862 0.51901 0.0
C942 C 0.38431 0.87855 0.51789 0.0
C943 C 0.36488 0.86643 0.51438 0.0
C944 C 0.3652 0.84432 0.51217 0.0
C945 C 0.38493 0.8343 0.51351 0.0
H946 H 0.34957 0.87414 0.51347 0.0
H947 H 0.54496 0.78326 0.50859 0.0
H948 H 0.50002 0.23794 0.6774 0.0
H949 H 0.49085 0.21899 0.70991 0.0
H950 H 0.42279 0.23073 0.70154 0.0
H951 H 0.43177 0.24921 0.66896 0.0
H952 H 0.47522 0.23467 0.74461 0.0
H953 H 0.38986 0.19423 0.72347 0.0
H954 H 0.37243 0.17498 0.69361 0.0
H955 H 0.43535 0.15833 0.67037 0.0
H956 H 0.45314 0.17724 0.70022 0.0
H957 H 0.40274 0.22495 0.83171 0.0
H958 H 0.42229 0.23224 0.79852 0.0
H959 H 0.42736 0.16482 0.78806 0.0
H960 H 0.40783 0.15762 0.82086 0.0
H961 H 0.41251 0.18243 0.75459 0.0
H962 H 0.47305 0.19585 0.799 0.0
H963 H 0.49185 0.21111 0.8301 0.0
H964 H 0.48403 0.27416 0.8074 0.0
H965 H 0.46498 0.25928 0.77622 0.0
C966 C 0.48303 0.23599 0.68224 0.0
C967 C 0.46659 0.24505 0.67063 0.0
C968 C 0.47784 0.22529 0.70088 0.0
C969 C 0.45613 0.22336 0.70817 0.0
C970 C 0.43962 0.23166 0.6961 0.0
C971 C 0.44478 0.24228 0.67747 0.0
C972 C 0.45074 0.21433 0.72912 0.0
C973 C 0.46169 0.22304 0.74676 0.0
C974 C 0.43346 0.19876 0.73199 0.0
C975 C 0.42284 0.18732 0.71401 0.0
C976 C 0.39997 0.18639 0.71204 0.0
C977 C 0.39003 0.17555 0.6951 0.0
C978 C 0.40278 0.16549 0.68007 0.0
C979 C 0.4255 0.1662 0.68197 0.0
C980 C 0.43552 0.17702 0.69888 0.0
C981 C 0.40864 0.21181 0.82253 0.0
C982 C 0.40454 0.19078 0.82911 0.0
C983 C 0.41978 0.21593 0.80363 0.0
C984 C 0.42668 0.19906 0.79096 0.0
C985 C 0.42266 0.17809 0.7977 0.0
C986 C 0.41173 0.174 0.8166 0.0
C987 C 0.43653 0.20325 0.76998 0.0
C988 C 0.42632 0.19374 0.75239 0.0
C989 C 0.45501 0.2174 0.76717 0.0
C990 C 0.46742 0.22645 0.78534 0.0
C991 C 0.4753 0.21297 0.80064 0.0
C992 C 0.48599 0.22155 0.8183 0.0
C993 C 0.489 0.24359 0.8208 0.0
C994 C 0.48162 0.25709 0.80548 0.0
C995 C 0.47093 0.24859 0.78777 0.0
H996 H 0.49707 0.2502 0.8346 0.0
H997 H 0.39505 0.1571 0.66697 0.0
H998 H 0.04059 0.22397 0.93231 0.0
H999 H 0.0559 0.21194 0.96496 0.0
H1000 H 0.09862 0.26857 0.968 0.0
H1001 H 0.08323 0.28089 0.93519 0.0
H1002 H 0.11505 0.22433 0.98348 0.0
H1003 H 0.05888 0.27522 0.9915 0.0
H1004 H 0.02369 0.28783 0.97986 0.0
H1005 H 0.99095 0.22944 -0.00011 0.0
H1006 H 0.02609 0.21611 0.01091 0.0
H1007 H 0.1191 0.18767 0.09076 0.0
H1008 H 0.11839 0.21532 0.06357 0.0
H1009 H 0.05826 0.18557 0.04008 0.0
H1010 H 0.05955 0.15812 0.06616 0.0
H1011 H 0.05689 0.22718 0.03806 0.0
H1012 H 0.10885 0.17346 0.0237 0.0
H1013 H 0.14244 0.15401 0.0265 0.0
H1014 H 0.18124 0.21108 0.0127 0.0
H1015 H 0.14789 0.23113 0.01088 0.0
C1016 C 0.05369 0.23361 0.93955 0.0
C1017 C 0.06049 0.25352 0.93133 0.0
C1018 C 0.06246 0.22668 0.95818 0.0
C1019 C 0.07819 0.23949 0.96895 0.0
C1020 C 0.08651 0.25847 0.95986 0.0
C1021 C 0.07764 0.26549 0.94117 0.0
C1022 C 0.083 0.23448 0.991 0.0
C1023 C 0.10272 0.22549 0.99573 0.0
C1024 C 0.06662 0.2358 0.00666 0.0
C1025 C 0.0452 0.2446 0.00191 0.0
C1026 C 0.04421 0.26498 0.99327 0.0
C1027 C 0.02428 0.27221 0.98664 0.0
C1028 C 0.00512 0.25937 0.98897 0.0
C1029 C 0.00583 0.23933 0.99803 0.0
C1030 C 0.02576 0.23193 0.00447 0.0
C1031 C 0.10581 0.18729 0.07982 0.0
C1032 C 0.08998 0.1703 0.07999 0.0
C1033 C 0.10529 0.20308 0.06438 0.0
C1034 C 0.08848 0.20228 0.04944 0.0
C1035 C 0.0715 0.18654 0.05124 0.0
C1036 C 0.07229 0.17076 0.06621 0.0
C1037 C 0.08883 0.21615 0.03066 0.0
C1038 C 0.06986 0.22688 0.02636 0.0
C1039 C 0.10575 0.21588 0.01523 0.0
C1040 C 0.12583 0.204 0.01782 0.0
C1041 C 0.12453 0.18204 0.02188 0.0
C1042 C 0.14356 0.17086 0.02319 0.0
C1043 C 0.16398 0.18132 0.0199 0.0
C1044 C 0.16542 0.20299 0.01531 0.0
C1045 C 0.14647 0.21433 0.0144 0.0
H1046 H 0.17868 0.17261 0.02081 0.0
H1047 H 0.98969 0.26501 0.98395 0.0
H1048 H 0.31473 0.02072 0.18745 0.0
H1049 H 0.28104 0.03473 0.17384 0.0
H1050 H 0.28414 0.08394 0.22164 0.0
H1051 H 0.31801 0.07088 0.23433 0.0
H1052 H 0.24239 0.03822 0.18823 0.0
H1053 H 0.26411 0.12796 0.20871 0.0
H1054 H 0.2963 0.15322 0.20729 0.0
H1055 H 0.32605 0.11422 0.1605 0.0
H1056 H 0.29394 0.08887 0.16144 0.0
H1057 H 0.15947 0.12053 0.20658 0.0
H1058 H 0.18716 0.09425 0.20991 0.0
H1059 H 0.2043 0.10183 0.14467 0.0
H1060 H 0.17799 0.12912 0.14181 0.0
H1061 H 0.23517 0.11581 0.18085 0.0
H1062 H 0.21927 0.03109 0.1527 0.0
H1063 H 0.18976 0.00376 0.14624 0.0
H1064 H 0.15089 0.03092 0.19504 0.0
H1065 H 0.1806 0.05768 0.20253 0.0
C1066 C 0.3084 0.03481 0.19469 0.0
C1067 C 0.31924 0.04493 0.2117 0.0
C1068 C 0.28906 0.04269 0.18704 0.0
C1069 C 0.28017 0.06068 0.19643 0.0
C1070 C 0.29093 0.07051 0.21359 0.0
C1071 C 0.31036 0.06296 0.22091 0.0
C1072 C 0.25939 0.0691 0.18894 0.0
C1073 C 0.24087 0.05517 0.18634 0.0
C1074 C 0.25738 0.09115 0.18599 0.0
C1075 C 0.2767 0.10641 0.18531 0.0
C1076 C 0.27748 0.12482 0.19806 0.0
C1077 C 0.29573 0.13914 0.19736 0.0
C1078 C 0.31324 0.13529 0.18387 0.0
C1079 C 0.31252 0.11714 0.17101 0.0
C1080 C 0.29432 0.10276 0.17165 0.0
C1081 C 0.16827 0.1156 0.19267 0.0
C1082 C 0.16567 0.12601 0.1736 0.0
C1083 C 0.18399 0.10043 0.19454 0.0
C1084 C 0.19712 0.09511 0.17727 0.0
C1085 C 0.1937 0.10475 0.15794 0.0
C1086 C 0.1783 0.1202 0.15618 0.0
C1087 C 0.21804 0.08505 0.18087 0.0
C1088 C 0.2367 0.09883 0.18268 0.0
C1089 C 0.22023 0.0628 0.18197 0.0
C1090 C 0.2019 0.04703 0.17764 0.0
C1091 C 0.20439 0.03133 0.16201 0.0
C1092 C 0.18769 0.01578 0.15827 0.0
C1093 C 0.16831 0.01578 0.17 0.0
C1094 C 0.16577 0.03114 0.18573 0.0
C1095 C 0.18255 0.04657 0.1897 0.0
H1096 H 0.15535 0.00379 0.16703 0.0
H1097 H 0.32734 0.1464 0.18335 0.0
H1098 H 0.18015 0.09434 0.47918 0.0
H1099 H 0.17186 0.05854 0.4652 0.0
H1100 H 0.22406 0.06719 0.41976 0.0
H1101 H 0.23267 0.10309 0.43379 0.0
H1102 H 0.17811 0.04102 0.40861 0.0
H1103 H 0.24076 0.04772 0.4573 0.0
H1104 H 0.25413 0.06359 0.49062 0.0
H1105 H 0.20204 0.03006 0.5241 0.0
H1106 H 0.18797 0.0145 0.49091 0.0
H1107 H 0.16844 0.93118 0.39338 0.0
H1108 H 0.19069 0.96448 0.39777 0.0
H1109 H 0.16753 0.96959 0.46168 0.0
H1110 H 0.14504 0.93694 0.4571 0.0
H1111 H 0.20488 0.98952 0.45941 0.0
H1112 H 0.13936 0.98641 0.4204 0.0
H1113 H 0.11302 0.97699 0.39246 0.0
H1114 H 0.15613 0.00718 0.34696 0.0
H1115 H 0.18319 0.016 0.37451 0.0
C1116 C 0.18945 0.08892 0.46579 0.0
C1117 C 0.20724 0.10142 0.45775 0.0
C1118 C 0.18466 0.06848 0.45781 0.0
C1119 C 0.19749 0.06025 0.44161 0.0
C1120 C 0.21397 0.07335 0.43224 0.0
C1121 C 0.21889 0.09381 0.44033 0.0
C1122 C 0.19585 0.03714 0.43699 0.0
C1123 C 0.1845 0.02963 0.41926 0.0
C1124 C 0.20334 0.02253 0.45156 0.0
C1125 C 0.21327 0.03002 0.47161 0.0
C1126 C 0.23213 0.04378 0.47176 0.0
C1127 C 0.23974 0.05285 0.4906 0.0
C1128 C 0.2288 0.04798 0.50942 0.0
C1129 C 0.2104 0.03388 0.50948 0.0
C1130 C 0.20263 0.02492 0.49067 0.0
C1131 C 0.16887 0.93896 0.4086 0.0
C1132 C 0.15432 0.93207 0.42461 0.0
C1133 C 0.18152 0.95805 0.41107 0.0
C1134 C 0.18011 0.96998 0.42979 0.0
C1135 C 0.16865 0.96093 0.44696 0.0
C1136 C 0.15587 0.9421 0.44438 0.0
C1137 C 0.18713 0.99298 0.43074 0.0
C1138 C 0.19933 0.00064 0.44803 0.0
C1139 C 0.17931 0.00777 0.41629 0.0
C1140 C 0.16358 0.00144 0.39948 0.0
C1141 C 0.14347 0.99065 0.40438 0.0
C1142 C 0.12835 0.98548 0.38861 0.0
C1143 C 0.13291 0.99146 0.36794 0.0
C1144 C 0.15262 0.00255 0.36298 0.0
C1145 C 0.16794 0.00748 0.37864 0.0
H1146 H 0.12117 0.98749 0.35577 0.0
H1147 H 0.23467 0.05491 0.52398 0.0
H1148 H 0.17829 0.9879 0.71967 0.0
H1149 H 0.21423 0.98383 0.70379 0.0
H1150 H 0.20107 0.03054 0.65742 0.0
H1151 H 0.16497 0.03514 0.67362 0.0
H1152 H 0.22491 0.98946 0.64368 0.0
H1153 H 0.23037 0.05125 0.68534 0.0
H1154 H 0.22366 0.075 0.71545 0.0
H1155 H 0.25578 0.03298 0.7561 0.0
H1156 H 0.26216 0.00871 0.72634 0.0
H1157 H 0.34 0.97687 0.62911 0.0
H1158 H 0.30733 0.99723 0.63236 0.0
H1159 H 0.29361 0.96974 0.69296 0.0
H1160 H 0.32482 0.94769 0.68863 0.0
H1161 H 0.28481 0.01232 0.6921 0.0
H1162 H 0.27131 0.94789 0.64706 0.0
H1163 H 0.27806 0.92691 0.61489 0.0
H1164 H 0.26298 0.9801 0.57714 0.0
H1165 H 0.25634 0.00142 0.60911 0.0
C1166 C 0.18277 0.99701 0.70584 0.0
C1167 C 0.16881 0.01191 0.69796 0.0
C1168 C 0.20336 0.99471 0.69682 0.0
C1169 C 0.21032 0.00702 0.67958 0.0
C1170 C 0.19595 0.02092 0.67074 0.0
C1171 C 0.17536 0.0235 0.68 0.0
C1172 C 0.23331 0.00626 0.67232 0.0
C1173 C 0.23811 0.99496 0.65392 0.0
C1174 C 0.25051 0.01374 0.6855 0.0
C1175 C 0.24652 0.02803 0.70364 0.0
C1176 C 0.23571 0.04691 0.70076 0.0
C1177 C 0.232 0.06051 0.71775 0.0
C1178 C 0.23921 0.0555 0.73767 0.0
C1179 C 0.25012 0.03685 0.74068 0.0
C1180 C 0.25379 0.02315 0.72374 0.0
C1181 C 0.33006 0.97529 0.64307 0.0
C1182 C 0.33434 0.95995 0.65801 0.0
C1183 C 0.31156 0.98723 0.64512 0.0
C1184 C 0.29788 0.98497 0.66284 0.0
C1185 C 0.30381 0.97165 0.67905 0.0
C1186 C 0.32173 0.9591 0.67658 0.0
C1187 C 0.27633 0.99455 0.66405 0.0
C1188 C 0.27175 0.00743 0.68146 0.0
C1189 C 0.25952 0.98913 0.64953 0.0
C1190 C 0.26346 0.97625 0.63042 0.0
C1191 C 0.26951 0.95511 0.63189 0.0
C1192 C 0.27327 0.94315 0.6137 0.0
C1193 C 0.27082 0.95212 0.59399 0.0
C1194 C 0.26472 0.97312 0.59242 0.0
C1195 C 0.26099 0.98515 0.61055 0.0
H1196 H 0.27378 0.94286 0.57993 0.0
H1197 H 0.23644 0.06619 0.75069 0.0
H1198 H 0.30116 0.95405 0.9896 0.0
H1199 H 0.30903 0.98971 0.97583 0.0
H1200 H 0.2402 0.99673 0.96659 0.0
H1201 H 0.23216 0.96093 0.98039 0.0
H1202 H 0.2641 0.01058 0.93328 0.0
H1203 H 0.26405 0.02397 0.00619 0.0
H1204 H 0.27271 0.01889 0.04337 0.0
H1205 H 0.34102 0.03066 0.02982 0.0
H1206 H 0.33282 0.03575 0.9925 0.0
H1207 H 0.33093 0.12342 0.93806 0.0
H1208 H 0.30272 0.09831 0.95298 0.0
H1209 H 0.32184 0.05001 0.90884 0.0
H1210 H 0.34944 0.07472 0.89412 0.0
H1211 H 0.31128 0.06326 0.97277 0.0
H1212 H 0.28349 0.01338 0.89861 0.0
H1213 H 0.2709 0.01908 0.86267 0.0
H1214 H 0.25352 0.08217 0.8799 0.0
H1215 H 0.26566 0.07676 0.91599 0.0
C1216 C 0.28769 0.96308 0.98446 0.0
C1217 C 0.26604 0.95466 0.98602 0.0
C1218 C 0.2922 0.98356 0.97681 0.0
C1219 C 0.27516 0.99604 0.97058 0.0
C1220 C 0.25356 0.98744 0.9715 0.0
C1221 C 0.24902 0.96696 0.97927 0.0
C1222 C 0.28022 0.01775 0.96246 0.0
C1223 C 0.27426 0.02222 0.94191 0.0
C1224 C 0.29271 0.03325 0.9741 0.0
C1225 C 0.29782 0.03014 0.99651 0.0
C1226 C 0.28094 0.02534 0.01111 0.0
C1227 C 0.28576 0.02248 0.03222 0.0
C1228 C 0.3074 0.02436 0.03895 0.0
C1229 C 0.32427 0.02919 0.02458 0.0
C1230 C 0.31954 0.03214 0.00345 0.0
C1231 C 0.32855 0.10763 0.93126 0.0
C1232 C 0.34243 0.10088 0.91513 0.0
C1233 C 0.31254 0.09328 0.93978 0.0
C1234 C 0.31001 0.07227 0.93194 0.0
C1235 C 0.32306 0.06616 0.91496 0.0
C1236 C 0.33904 0.08027 0.90668 0.0
C1237 C 0.29632 0.05559 0.943 0.0
C1238 C 0.30068 0.05195 0.96418 0.0
C1239 C 0.2821 0.04096 0.932 0.0
C1240 C 0.27548 0.04464 0.91007 0.0
C1241 C 0.27689 0.02845 0.89477 0.0
C1242 C 0.26982 0.03162 0.87435 0.0
C1243 C 0.26126 0.0509 0.86902 0.0
C1244 C 0.26003 0.06718 0.88403 0.0
C1245 C 0.26708 0.0641 0.90447 0.0
H1246 H 0.25561 0.05315 0.85326 0.0
H1247 H 0.31108 0.02213 0.05531 0.0
H1248 H 0.31649 0.96194 0.27553 0.0
H1249 H 0.2804 0.95223 0.29067 0.0
H1250 H 0.27349 0.0174 0.31006 0.0
H1251 H 0.30975 0.02713 0.29548 0.0
H1252 H 0.26164 0.95983 0.33359 0.0
H1253 H 0.21861 0.02558 0.29243 0.0
H1254 H 0.22439 0.04965 0.26236 0.0
H1255 H 0.26117 0.00288 0.23017 0.0
H1256 H 0.25522 0.97838 0.25983 0.0
H1257 H 0.15183 0.94806 0.36585 0.0
H1258 H 0.18394 0.97047 0.35527 0.0
H1259 H 0.18358 0.9397 0.29453 0.0
H1260 H 0.1525 0.91633 0.30549 0.0
H1261 H 0.19849 0.98436 0.29407 0.0
H1262 H 0.20929 0.91761 0.33072 0.0
H1263 H 0.20323 0.89394 0.361 0.0
H1264 H 0.23187 0.94226 0.40183 0.0
H1265 H 0.23756 0.96644 0.37184 0.0
C1266 C 0.30747 0.97407 0.28344 0.0
C1267 C 0.31589 0.99526 0.28436 0.0
C1268 C 0.28692 0.96853 0.29207 0.0
C1269 C 0.27433 0.98416 0.3013 0.0
C1270 C 0.28301 0.00516 0.30294 0.0
C1271 C 0.30373 0.01064 0.29469 0.0
C1272 C 0.25155 0.97868 0.30787 0.0
C1273 C 0.24783 0.96537 0.32511 0.0
C1274 C 0.23361 0.98601 0.29677 0.0
C1275 C 0.23672 0.00028 0.2785 0.0
C1276 C 0.22784 0.0204 0.27889 0.0
C1277 C 0.23114 0.03412 0.26191 0.0
C1278 C 0.24323 0.02784 0.24441 0.0
C1279 C 0.2519 0.00776 0.24378 0.0
C1280 C 0.24858 0.99397 0.26068 0.0
C1281 C 0.15821 0.94653 0.35005 0.0
C1282 C 0.15015 0.93011 0.3367 0.0
C1283 C 0.17641 0.95946 0.34398 0.0
C1284 C 0.18616 0.95662 0.3242 0.0
C1285 C 0.17628 0.94213 0.30986 0.0
C1286 C 0.15855 0.92878 0.31615 0.0
C1287 C 0.20858 0.96545 0.31978 0.0
C1288 C 0.21228 0.97927 0.30288 0.0
C1289 C 0.22656 0.95862 0.3312 0.0
C1290 C 0.22364 0.94389 0.34909 0.0
C1291 C 0.21415 0.92323 0.34618 0.0
C1292 C 0.21077 0.90973 0.36329 0.0
C1293 C 0.21714 0.9166 0.38333 0.0
C1294 C 0.22697 0.93696 0.38629 0.0
C1295 C 0.23021 0.95059 0.36926 0.0
H1296 H 0.21447 0.90615 0.39657 0.0
H1297 H 0.24584 0.03851 0.23134 0.0
H1298 H 0.2905 0.09792 0.50557 0.0
H1299 H 0.30486 0.06652 0.52125 0.0
H1300 H 0.25402 0.06629 0.56857 0.0
H1301 H 0.23977 0.09815 0.55314 0.0
H1302 H 0.29178 0.06111 0.58569 0.0
H1303 H 0.25471 0.00935 0.53387 0.0
H1304 H 0.24236 0.99786 0.49856 0.0
H1305 H 0.3039 0.02064 0.47219 0.0
H1306 H 0.31691 0.03132 0.5075 0.0
H1307 H 0.34355 0.95018 0.59466 0.0
H1308 H 0.31262 0.97328 0.58981 0.0
H1309 H 0.35756 0.0242 0.56993 0.0
H1310 H 0.38804 0.00204 0.5753 0.0
H1311 H 0.31199 0.9976 0.54465 0.0
H1312 H 0.34874 0.03678 0.60558 0.0
H1313 H 0.35577 0.04239 0.64306 0.0
H1314 H 0.28688 0.04348 0.65547 0.0
H1315 H 0.2793 0.03627 0.61817 0.0
C1316 C 0.28233 0.09119 0.5193 0.0
C1317 C 0.26399 0.10053 0.52811 0.0
C1318 C 0.2903 0.07292 0.52801 0.0
C1319 C 0.28005 0.06345 0.54563 0.0
C1320 C 0.262 0.07304 0.55475 0.0
C1321 C 0.25395 0.09133 0.546 0.0
C1322 C 0.28973 0.04504 0.55573 0.0
C1323 C 0.29589 0.04703 0.57682 0.0
C1324 C 0.29464 0.02639 0.54446 0.0
C1325 C 0.28648 0.02171 0.52313 0.0
C1326 C 0.26549 0.01209 0.52048 0.0
C1327 C 0.25849 0.00545 0.50053 0.0
C1328 C 0.27225 0.00872 0.48311 0.0
C1329 C 0.29318 0.01829 0.48566 0.0
C1330 C 0.30043 0.02449 0.50564 0.0
C1331 C 0.34673 0.96646 0.58969 0.0
C1332 C 0.36823 0.97439 0.58566 0.0
C1333 C 0.32912 0.97964 0.58704 0.0
C1334 C 0.33292 0.00079 0.58049 0.0
C1335 C 0.35432 0.00831 0.57598 0.0
C1336 C 0.37172 0.99544 0.57879 0.0
C1337 C 0.31502 0.01418 0.5743 0.0
C1338 C 0.30731 0.01132 0.5538 0.0
C1339 C 0.30841 0.03185 0.58637 0.0
C1340 C 0.31342 0.03496 0.60898 0.0
C1341 C 0.33501 0.03717 0.61626 0.0
C1342 C 0.33911 0.04084 0.63757 0.0
C1343 C 0.32178 0.04296 0.65172 0.0
C1344 C 0.3003 0.04152 0.64457 0.0
C1345 C 0.2961 0.03748 0.62337 0.0
H1346 H 0.325 0.04593 0.66817 0.0
H1347 H 0.26671 0.00377 0.46766 0.0
H1348 H 0.16268 0.03314 0.80242 0.0
H1349 H 0.19676 0.04344 0.82088 0.0
H1350 H 0.21269 0.0907 0.77403 0.0
H1351 H 0.17882 0.08082 0.75572 0.0
H1352 H 0.24585 0.05609 0.78457 0.0
H1353 H 0.20123 0.1136 0.81344 0.0
H1354 H 0.16853 0.12504 0.83252 0.0
H1355 H 0.1834 0.08558 0.88435 0.0
H1356 H 0.21599 0.07371 0.86539 0.0
H1357 H 0.32056 0.1432 0.81374 0.0
H1358 H 0.28999 0.11962 0.8018 0.0
H1359 H 0.29695 0.08015 0.85583 0.0
H1360 H 0.32801 0.10347 0.86756 0.0
H1361 H 0.25278 0.10339 0.84709 0.0
H1362 H 0.30367 0.05393 0.81979 0.0
H1363 H 0.33591 0.04323 0.79958 0.0
H1364 H 0.3087 0.06683 0.74323 0.0
H1365 H 0.27656 0.07811 0.7632 0.0
C1366 C 0.17332 0.04594 0.79627 0.0
C1367 C 0.1681 0.05618 0.77763 0.0
C1368 C 0.19274 0.05173 0.80678 0.0
C1369 C 0.20721 0.06765 0.79864 0.0
C1370 C 0.20173 0.07827 0.78042 0.0
C1371 C 0.18231 0.07268 0.77007 0.0
C1372 C 0.22856 0.07294 0.80843 0.0
C1373 C 0.24744 0.06644 0.79818 0.0
C1374 C 0.23047 0.0857 0.82669 0.0
C1375 C 0.21098 0.09281 0.83806 0.0
C1376 C 0.19744 0.10733 0.82888 0.0
C1377 C 0.17894 0.11388 0.83966 0.0
C1378 C 0.17389 0.10605 0.85965 0.0
C1379 C 0.18734 0.09166 0.86889 0.0
C1380 C 0.20585 0.08505 0.85815 0.0
C1381 C 0.31606 0.12904 0.82262 0.0
C1382 C 0.32662 0.12499 0.84145 0.0
C1383 C 0.29858 0.11568 0.81588 0.0
C1384 C 0.29115 0.09835 0.82808 0.0
C1385 C 0.30244 0.09353 0.84629 0.0
C1386 C 0.3203 0.10667 0.85282 0.0
C1387 C 0.2702 0.08702 0.82275 0.0
C1388 C 0.25131 0.09263 0.83369 0.0
C1389 C 0.2683 0.07343 0.80503 0.0
C1390 C 0.28776 0.06696 0.79303 0.0
C1391 C 0.30468 0.05705 0.80314 0.0
C1392 C 0.32293 0.05085 0.79171 0.0
C1393 C 0.32437 0.05438 0.77014 0.0
C1394 C 0.30758 0.06412 0.75994 0.0
C1395 C 0.28934 0.07041 0.77131 0.0
H1396 H 0.33849 0.04953 0.76132 0.0
H1397 H 0.15956 0.11114 0.86797 0.0
H1398 H 0.21952 0.92826 0.09002 0.0
H1399 H 0.20732 0.96019 0.1082 0.0
H1400 H 0.24703 -0.00051 0.06594 0.0
H1401 H 0.26087 0.96779 0.04952 0.0
H1402 H 0.24581 0.02001 0.09818 0.0
H1403 H 0.18831 0.98264 0.05919 0.0
H1404 H 0.16295 0.95234 0.04971 0.0
H1405 H 0.13569 0.95239 0.11205 0.0
H1406 H 0.16107 0.98255 0.12195 0.0
H1407 H 0.17117 0.10388 0.08121 0.0
H1408 H 0.19578 0.07422 0.07936 0.0
H1409 H 0.16977 0.0512 0.13848 0.0
H1410 H 0.14573 0.08088 0.14053 0.0
H1411 H 0.16529 0.02259 0.10402 0.0
H1412 H 0.22162 0.0686 0.13654 0.0
H1413 H 0.24675 0.1005 0.13972 0.0
H1414 H 0.27514 0.08652 0.0797 0.0
H1415 H 0.25 0.05481 0.07599 0.0
C1416 C 0.22607 0.94379 0.08518 0.0
C1417 C 0.24108 0.9457 0.06849 0.0
C1418 C 0.21892 0.96203 0.09534 0.0
C1419 C 0.22564 0.9824 0.08802 0.0
C1420 C 0.24155 0.9841 0.072 0.0
C1421 C 0.24944 0.96594 0.06255 0.0
C1422 C 0.21503 0.00189 0.09553 0.0
C1423 C 0.22818 0.02054 0.0993 0.0
C1424 C 0.19201 0.00275 0.09727 0.0
C1425 C 0.17678 0.98462 0.09138 0.0
C1426 C 0.177 0.97608 0.0709 0.0
C1427 C 0.16261 0.95895 0.06545 0.0
C1428 C 0.14778 0.95039 0.08029 0.0
C1429 C 0.14724 0.95899 0.10059 0.0
C1430 C 0.16162 0.97609 0.10613 0.0
C1431 C 0.17126 0.09272 0.094 0.0
C1432 C 0.15681 0.09451 0.11105 0.0
C1433 C 0.18534 0.07594 0.09303 0.0
C1434 C 0.18478 0.06067 0.10894 0.0
C1435 C 0.17073 0.06294 0.12624 0.0
C1436 C 0.15694 0.0798 0.12733 0.0
C1437 C 0.19605 0.04066 0.10594 0.0
C1438 C 0.18294 0.02193 0.10308 0.0
C1439 C 0.21899 0.04004 0.1039 0.0
C1440 C 0.23376 0.05942 0.10597 0.0
C1441 C 0.23307 0.07245 0.12397 0.0
C1442 C 0.24737 0.09044 0.1259 0.0
C1443 C 0.26252 0.09551 0.10998 0.0
C1444 C 0.26339 0.0826 0.09205 0.0
C1445 C 0.24912 0.06461 0.09003 0.0
H1446 H 0.27358 0.10942 0.11154 0.0
H1447 H 0.13665 0.93713 0.07604 0.0
H1448 H 0.2185 0.33788 0.99696 0.0
H1449 H 0.20311 0.30339 0.00915 0.0
H1450 H 0.23174 0.31567 0.06987 0.0
H1451 H 0.24712 0.35009 0.05786 0.0
H1452 H 0.24208 0.27667 0.05172 0.0
H1453 H 0.17795 0.31842 0.0629 0.0
H1454 H 0.14827 0.3405 0.0517 0.0
H1455 H 0.12543 0.29113 0.00897 0.0
H1456 H 0.15525 0.26894 0.01964 0.0
H1457 H 0.19226 0.21632 0.1307 0.0
H1458 H 0.20782 0.24156 0.10547 0.0
H1459 H 0.16921 0.21104 0.05658 0.0
H1460 H 0.1546 0.18451 0.08141 0.0
H1461 H 0.16365 0.25394 0.05938 0.0
H1462 H 0.22216 0.20992 0.05124 0.0
H1463 H 0.25154 0.18647 0.0601 0.0
H1464 H 0.28503 0.23778 0.09368 0.0
H1465 H 0.25569 0.26148 0.08532 0.0
C1466 C 0.2212 0.33336 0.01302 0.0
C1467 C 0.23406 0.34663 0.02647 0.0
C1468 C 0.2124 0.31367 0.01992 0.0
C1469 C 0.21639 0.30699 0.04035 0.0
C1470 C 0.22858 0.32054 0.054 0.0
C1471 C 0.23725 0.34024 0.04717 0.0
C1472 C 0.20899 0.28546 0.04739 0.0
C1473 C 0.22494 0.27171 0.05356 0.0
C1474 C 0.18666 0.27856 0.04849 0.0
C1475 C 0.16901 0.29213 0.04185 0.0
C1476 C 0.16678 0.31239 0.05092 0.0
C1477 C 0.14989 0.32491 0.0447 0.0
C1478 C 0.13502 0.31727 0.02957 0.0
C1479 C 0.137 0.29707 0.02064 0.0
C1480 C 0.15389 0.28452 0.02676 0.0
C1481 C 0.18735 0.21455 0.11449 0.0
C1482 C 0.17146 0.19879 0.10829 0.0
C1483 C 0.19638 0.22901 0.10003 0.0
C1484 C 0.18965 0.22816 0.0791 0.0
C1485 C 0.17465 0.21187 0.0726 0.0
C1486 C 0.16604 0.19695 0.08695 0.0
C1487 C 0.19675 0.2457 0.06494 0.0
C1488 C 0.18082 0.25867 0.05722 0.0
C1489 C 0.21912 0.25177 0.0621 0.0
C1490 C 0.2366 0.23747 0.06774 0.0
C1491 C 0.23566 0.21616 0.06072 0.0
C1492 C 0.25235 0.20283 0.0656 0.0
C1493 C 0.27013 0.21063 0.07746 0.0
C1494 C 0.27124 0.23176 0.08449 0.0
C1495 C 0.25459 0.24517 0.07966 0.0
H1496 H 0.28306 0.20029 0.08118 0.0
H1497 H 0.12194 0.32697 0.02482 0.0
H1498 H 0.74288 0.21015 0.95425 0.0
H1499 H 0.72807 0.24283 0.94176 0.0
H1500 H 0.685 0.24433 0.99561 0.0
H1501 H 0.7 0.21156 0.00848 0.0
H1502 H 0.6676 0.25616 0.95161 0.0
H1503 H 0.72473 0.273 0.00221 0.0
H1504 H 0.76116 0.26778 0.01669 0.0
H1505 H 0.79125 0.28777 0.95858 0.0
H1506 H 0.75498 0.29259 0.94355 0.0
H1507 H 0.64996 0.36128 0.9202 0.0
H1508 H 0.66095 0.33658 0.94764 0.0
H1509 H 0.71351 0.31706 0.90782 0.0
H1510 H 0.70243 0.34078 0.88061 0.0
H1511 H 0.72252 0.31723 0.95258 0.0
H1512 H 0.672 0.28861 0.89989 0.0
H1513 H 0.63889 0.29155 0.87872 0.0
H1514 H 0.59962 0.29276 0.93472 0.0
H1515 H 0.63261 0.28975 0.95638 0.0
C1516 C 0.72992 0.21712 0.96324 0.0
C1517 C 0.72273 0.20839 0.98244 0.0
C1518 C 0.72152 0.23581 0.9561 0.0
C1519 C 0.70569 0.24604 0.96793 0.0
C1520 C 0.69727 0.23662 0.98633 0.0
C1521 C 0.70584 0.21793 0.99363 0.0
C1522 C 0.69962 0.26746 0.96177 0.0
C1523 C 0.67927 0.26973 0.95248 0.0
C1524 C 0.71521 0.28491 0.96234 0.0
C1525 C 0.73709 0.28302 0.97171 0.0
C1526 C 0.7391 0.27618 0.99248 0.0
C1527 C 0.75973 0.27326 0.00078 0.0
C1528 C 0.7785 0.27736 0.98853 0.0
C1529 C 0.77669 0.28456 0.96803 0.0
C1530 C 0.7561 0.2874 0.95961 0.0
C1531 C 0.6639 0.35182 0.91756 0.0
C1532 C 0.67456 0.35208 0.89802 0.0
C1533 C 0.67025 0.33799 0.93317 0.0
C1534 C 0.68761 0.32475 0.92942 0.0
C1535 C 0.69998 0.32707 0.91095 0.0
C1536 C 0.69346 0.34055 0.89534 0.0
C1537 C 0.69052 0.30594 0.94253 0.0
C1538 C 0.7104 0.30402 0.95276 0.0
C1539 C 0.67476 0.28865 0.94242 0.0
C1540 C 0.65472 0.28915 0.92971 0.0
C1541 C 0.65628 0.28946 0.9077 0.0
C1542 C 0.63756 0.29111 0.89565 0.0
C1543 C 0.61716 0.2923 0.90544 0.0
C1544 C 0.61544 0.29166 0.92728 0.0
C1545 C 0.63413 0.28997 0.93944 0.0
H1546 H 0.60268 0.29372 0.89611 0.0
H1547 H 0.79446 0.275 0.99491 0.0
H1548 H 0.10131 0.49153 0.25321 0.0
H1549 H 0.06959 0.47176 0.2381 0.0
H1550 H 0.02696 0.51644 0.26685 0.0
H1551 H 0.05847 0.53495 0.2834 0.0
H1552 H 0.00583 0.48141 0.26589 0.0
H1553 H 0.04773 0.51949 0.2129 0.0
H1554 H 0.08063 0.52997 0.19204 0.0
H1555 H 0.08541 0.46535 0.17082 0.0
H1556 H 0.05267 0.45446 0.19177 0.0
H1557 H 0.9252 0.47914 0.18303 0.0
H1558 H 0.95284 0.48725 0.21011 0.0
H1559 H 0.9851 0.43029 0.19279 0.0
H1560 H 0.95744 0.42215 0.16593 0.0
H1561 H 0.01109 0.46814 0.18927 0.0
H1562 H 0.96271 0.43371 0.23827 0.0
H1563 H 0.92904 0.42569 0.25874 0.0
H1564 H 0.93411 0.48842 0.28614 0.0
H1565 H 0.96782 0.49669 0.26569 0.0
C1566 C 0.08509 0.49681 0.25656 0.0
C1567 C 0.08226 0.51479 0.2693 0.0
C1568 C 0.06697 0.48566 0.24778 0.0
C1569 C 0.04582 0.49299 0.25067 0.0
C1570 C 0.04301 0.51044 0.26423 0.0
C1571 C 0.06104 0.52107 0.27365 0.0
C1572 C 0.0269 0.48348 0.23861 0.0
C1573 C 0.00691 0.47879 0.24908 0.0
C1574 C 0.02827 0.47962 0.2167 0.0
C1575 C 0.04791 0.48613 0.20406 0.0
C1576 C 0.05588 0.50751 0.20388 0.0
C1577 C 0.07449 0.51352 0.19204 0.0
C1578 C 0.08514 0.49832 0.18016 0.0
C1579 C 0.07717 0.4771 0.18006 0.0
C1580 C 0.05858 0.471 0.1919 0.0
C1581 C 0.93785 0.4681 0.18553 0.0
C1582 C 0.93932 0.45004 0.1726 0.0
C1583 C 0.95357 0.47268 0.20097 0.0
C1584 C 0.97101 0.45936 0.20344 0.0
C1585 C 0.97177 0.44074 0.19116 0.0
C1586 C 0.95601 0.43611 0.17588 0.0
C1587 C 0.99004 0.46633 0.21649 0.0
C1588 C 0.01004 0.47067 0.20611 0.0
C1589 C 0.98838 0.47043 0.2383 0.0
C1590 C 0.96777 0.46578 0.25028 0.0
C1591 C 0.95655 0.44579 0.24851 0.0
C1592 C 0.93748 0.44119 0.26017 0.0
C1593 C 0.92938 0.45657 0.27372 0.0
C1594 C 0.94039 0.47652 0.27564 0.0
C1595 C 0.95953 0.48112 0.26403 0.0
H1596 H 0.91461 0.45301 0.28275 0.0
H1597 H 0.09954 0.50301 0.171 0.0
H1598 H 0.80073 0.85861 0.51378 0.0
H1599 H 0.81633 0.82598 0.50131 0.0
H1600 H 0.84861 0.8605 0.45057 0.0
H1601 H 0.83123 0.89284 0.4621 0.0
H1602 H 0.83118 0.8285 0.43485 0.0
H1603 H 0.87712 0.83451 0.49596 0.0
H1604 H 0.88494 0.83963 0.53363 0.0
H1605 H 0.84178 0.78568 0.54824 0.0
H1606 H 0.83406 0.78003 0.5107 0.0
H1607 H 0.88299 0.74235 0.39443 0.0
H1608 H 0.88248 0.77288 0.41853 0.0
H1609 H 0.82876 0.74215 0.45272 0.0
H1610 H 0.82925 0.71148 0.42845 0.0
H1611 H 0.86067 0.77163 0.47777 0.0
H1612 H 0.81336 0.7683 0.41644 0.0
H1613 H 0.80707 0.76268 0.3786 0.0
H1614 H 0.85463 0.81329 0.36457 0.0
H1615 H 0.86147 0.81893 0.40237 0.0
C1616 C 0.81158 0.85931 0.50024 0.0
C1617 C 0.81486 0.87823 0.48892 0.0
C1618 C 0.82071 0.8406 0.49317 0.0
C1619 C 0.83409 0.84059 0.4751 0.0
C1620 C 0.83834 0.85991 0.4645 0.0
C1621 C 0.82852 0.87846 0.47113 0.0
C1622 C 0.84141 0.82017 0.46585 0.0
C1623 C 0.83813 0.81642 0.44431 0.0
C1624 C 0.84991 0.80382 0.47803 0.0
C1625 C 0.85496 0.80692 0.50056 0.0
C1626 C 0.86935 0.82373 0.50723 0.0
C1627 C 0.87383 0.82667 0.52855 0.0
C1628 C 0.86394 0.81294 0.54333 0.0
C1629 C 0.84961 0.79619 0.5368 0.0
C1630 C 0.84527 0.79304 0.5155 0.0
C1631 C 0.8718 0.7417 0.40771 0.0
C1632 C 0.85632 0.7246 0.40984 0.0
C1633 C 0.87149 0.75914 0.42143 0.0
C1634 C 0.85548 0.75982 0.43728 0.0
C1635 C 0.84135 0.74182 0.44068 0.0
C1636 C 0.84164 0.72433 0.42688 0.0
C1637 C 0.85064 0.78055 0.44707 0.0
C1638 C 0.85416 0.78412 0.46851 0.0
C1639 C 0.84257 0.79692 0.43485 0.0
C1640 C 0.83808 0.79388 0.41218 0.0
C1641 C 0.82258 0.77812 0.40527 0.0
C1642 C 0.81891 0.77494 0.38384 0.0
C1643 C 0.83048 0.78759 0.36918 0.0
C1644 C 0.8457 0.80348 0.37594 0.0
C1645 C 0.84948 0.80668 0.39736 0.0
H1646 H 0.82762 0.7851 0.3526 0.0
H1647 H 0.86735 0.81529 0.55984 0.0
H1648 H 0.90819 0.06601 0.2329 0.0
H1649 H 0.94306 0.07531 0.21565 0.0
H1650 H 0.97266 0.08846 0.27582 0.0
H1651 H 0.93741 0.07999 0.29316 0.0
H1652 H 0.9908 0.11446 0.24885 0.0
H1653 H 0.98062 0.03912 0.24987 0.0
H1654 H 0.96002 0.00447 0.24599 0.0
H1655 H 0.95261 0.01559 0.18022 0.0
H1656 H 0.97271 0.05048 0.18391 0.0
H1657 H 0.09223 0.11464 0.18929 0.0
H1658 H 0.06524 0.10326 0.21634 0.0
H1659 H 0.01696 0.09098 0.1683 0.0
H1660 H 0.04371 0.1011 0.14156 0.0
H1661 H 0.01368 0.06099 0.19637 0.0
H1662 H 0.02872 0.13891 0.19909 0.0
H1663 H 0.05493 0.16892 0.20679 0.0
H1664 H 0.05693 0.15043 0.27119 0.0
H1665 H 0.03228 0.1191 0.26353 0.0
C1666 C 0.92201 0.07125 0.24246 0.0
C1667 C 0.92017 0.07192 0.26441 0.0
C1668 C 0.94202 0.07636 0.2326 0.0
C1669 C 0.96074 0.08178 0.24448 0.0
C1670 C 0.95856 0.08401 0.26632 0.0
C1671 C 0.9384 0.07916 0.27621 0.0
C1672 C 0.98255 0.08417 0.23401 0.0
C1673 C 0.99594 0.10267 0.23754 0.0
C1674 C 0.98969 0.06854 0.21973 0.0
C1675 C 0.97785 0.04748 0.21727 0.0
C1676 C 0.97432 0.03424 0.23468 0.0
C1677 C 0.9628 0.01456 0.2325 0.0
C1678 C 0.95495 0.00787 0.21288 0.0
C1679 C 0.95866 0.02081 0.19541 0.0
C1680 C 0.97012 0.04053 0.19754 0.0
C1681 C 0.07591 0.10923 0.18458 0.0
C1682 C 0.07011 0.10884 0.16328 0.0
C1683 C 0.06051 0.10279 0.20002 0.0
C1684 C 0.03892 0.09659 0.19439 0.0
C1685 C 0.03345 0.09566 0.1731 0.0
C1686 C 0.04884 0.10154 0.15777 0.0
C1687 C 0.02129 0.09189 0.21015 0.0
C1688 C 0.00869 0.07274 0.20779 0.0
C1689 C 0.01534 0.10671 0.22589 0.0
C1690 C 0.02893 0.12639 0.23062 0.0
C1691 C 0.03489 0.14108 0.21486 0.0
C1692 C 0.0496 0.15826 0.21919 0.0
C1693 C 0.05743 0.16173 0.23949 0.0
C1694 C 0.05087 0.14774 0.25546 0.0
C1695 C 0.03675 0.13009 0.25107 0.0
H1696 H 0.06855 0.17526 0.24283 0.0
H1697 H 0.94604 0.99263 0.21121 0.0
H1698 H 0.2675 0.71687 0.56389 0.0
H1699 H 0.2815 0.75301 0.57307 0.0
H1700 H 0.28854 0.76792 0.5075 0.0
H1701 H 0.27508 0.73167 0.49816 0.0
H1702 H 0.32346 0.77355 0.55959 0.0
H1703 H 0.26792 0.82288 0.50803 0.0
H1704 H 0.22996 0.82354 0.49564 0.0
H1705 H 0.20838 0.78132 0.54494 0.0
H1706 H 0.24609 0.78069 0.55782 0.0
H1707 H 0.36333 0.88002 0.57324 0.0
H1708 H 0.34971 0.8489 0.55297 0.0
H1709 H 0.28765 0.85034 0.5853 0.0
H1710 H 0.30153 0.8807 0.60627 0.0
H1711 H 0.28153 0.83712 0.54615 0.0
H1712 H 0.32993 0.82301 0.6029 0.0
H1713 H 0.36463 0.82487 0.62217 0.0
H1714 H 0.39667 0.79545 0.57002 0.0
H1715 H 0.36237 0.79427 0.55007 0.0
C1716 C 0.27222 0.72778 0.55144 0.0
C1717 C 0.2703 0.72142 0.53032 0.0
C1718 C 0.28013 0.74841 0.55669 0.0
C1719 C 0.28578 0.76314 0.54092 0.0
C1720 C 0.28404 0.75681 0.51985 0.0
C1721 C 0.27653 0.73607 0.51458 0.0
C1722 C 0.29411 0.78495 0.5466 0.0
C1723 C 0.31443 0.7875 0.55644 0.0
C1724 C 0.28219 0.80306 0.5426 0.0
C1725 C 0.25991 0.80151 0.5337 0.0
C1726 C 0.25509 0.81361 0.51612 0.0
C1727 C 0.23359 0.81415 0.50914 0.0
C1728 C 0.21674 0.80271 0.51967 0.0
C1729 C 0.22142 0.79032 0.5369 0.0
C1730 C 0.24289 0.78975 0.54397 0.0
C1731 C 0.34653 0.87419 0.57541 0.0
C1732 C 0.33356 0.88251 0.5915 0.0
C1733 C 0.33876 0.8564 0.5638 0.0
C1734 C 0.31776 0.84714 0.56773 0.0
C1735 C 0.30394 0.85712 0.58203 0.0
C1736 C 0.31184 0.87454 0.59395 0.0
C1737 C 0.31091 0.8258 0.55915 0.0
C1738 C 0.29089 0.82326 0.54873 0.0
C1739 C 0.3229 0.80763 0.56302 0.0
C1740 C 0.34364 0.80883 0.57487 0.0
C1741 C 0.34445 0.81723 0.59541 0.0
C1742 C 0.36405 0.81817 0.60646 0.0
C1743 C 0.38286 0.81033 0.59731 0.0
C1744 C 0.38209 0.80154 0.57709 0.0
C1745 C 0.36262 0.80089 0.56583 0.0
H1746 H 0.39802 0.81104 0.6059 0.0
H1747 H 0.2001 0.80324 0.51427 0.0
H1748 H 0.07331 0.59832 0.2674 0.0
H1749 H 0.03883 0.61385 0.27762 0.0
H1750 H 0.06404 0.62679 0.33961 0.0
H1751 H 0.0982 0.61105 0.32964 0.0
H1752 H 0.02841 0.60025 0.34004 0.0
H1753 H 0.0512 0.66605 0.30778 0.0
H1754 H 0.06321 0.69097 0.27995 0.0
H1755 H 0.00441 0.67515 0.24588 0.0
H1756 H 0.99223 0.64977 0.27325 0.0
H1757 H 0.9409 0.66684 0.38004 0.0
H1758 H 0.97141 0.66548 0.35502 0.0
H1759 H 0.949 0.60195 0.33641 0.0
H1760 H 0.9187 0.60321 0.36176 0.0
H1761 H 0.98203 0.65537 0.31219 0.0
H1762 H 0.99187 0.5716 0.34334 0.0
H1763 H 0.97973 0.54936 0.37335 0.0
H1764 H 0.97577 0.60528 0.41218 0.0
H1765 H 0.98823 0.62777 0.38251 0.0
C1766 C 0.07174 0.60515 0.28298 0.0
C1767 C 0.08831 0.60322 0.29784 0.0
C1768 C 0.05204 0.61406 0.28878 0.0
C1769 C 0.04879 0.62132 0.30943 0.0
C1770 C 0.06614 0.62118 0.32362 0.0
C1771 C 0.08567 0.61216 0.31791 0.0
C1772 C 0.02653 0.62532 0.31749 0.0
C1773 C 0.01836 0.61232 0.33382 0.0
C1774 C 0.01324 0.64097 0.30934 0.0
C1775 C 0.02098 0.65565 0.29245 0.0
C1776 C 0.041 0.66755 0.29419 0.0
C1777 C 0.0478 0.68186 0.27852 0.0
C1778 C 0.03465 0.68456 0.26111 0.0
C1779 C 0.01464 0.67298 0.25933 0.0
C1780 C 0.00779 0.65861 0.27491 0.0
C1781 C 0.9419 0.65304 0.36981 0.0
C1782 C 0.92736 0.63525 0.37244 0.0
C1783 C 0.95935 0.65225 0.35558 0.0
C1784 C 0.96254 0.63356 0.34399 0.0
C1785 C 0.94677 0.61653 0.34519 0.0
C1786 C 0.92946 0.61725 0.35959 0.0
C1787 C 0.98426 0.63023 0.33446 0.0
C1788 C 0.9922 0.64321 0.31802 0.0
C1789 C 0.99763 0.61475 0.34255 0.0
C1790 C 0.99071 0.60134 0.36066 0.0
C1791 C 0.98849 0.57911 0.35832 0.0
C1792 C 0.98156 0.56647 0.37526 0.0
C1793 C 0.97691 0.57591 0.39464 0.0
C1794 C 0.97931 0.598 0.39715 0.0
C1795 C 0.9863 0.61069 0.38028 0.0
H1796 H 0.9715 0.56611 0.40772 0.0
H1797 H 0.03995 0.69567 0.24903 0.0
H1798 H 0.43626 0.46267 0.75686 0.0
H1799 H 0.47178 0.44782 0.76355 0.0
H1800 H 0.46492 0.4631 0.82927 0.0
H1801 H 0.42954 0.47764 0.82288 0.0
H1802 H 0.5043 0.48276 0.80027 0.0
H1803 H 0.46033 0.41781 0.82254 0.0
H1804 H 0.43659 0.38578 0.81512 0.0
H1805 H 0.48346 0.36436 0.77013 0.0
H1806 H 0.5072 0.39668 0.77696 0.0
H1807 H 0.5529 0.45254 0.88788 0.0
H1808 H 0.53298 0.46138 0.85699 0.0
H1809 H 0.57031 0.41837 0.81967 0.0
H1810 H 0.59137 0.41016 0.85089 0.0
H1811 H 0.52455 0.4099 0.81766 0.0
H1812 H 0.57327 0.46749 0.80451 0.0
H1813 H 0.59875 0.49828 0.81172 0.0
H1814 H 0.54596 0.53326 0.83671 0.0
H1815 H 0.5202 0.50258 0.83009 0.0
C1816 C 0.44203 0.46224 0.77283 0.0
C1817 C 0.43018 0.47144 0.78935 0.0
C1818 C 0.46232 0.45382 0.77657 0.0
C1819 C 0.4709 0.45452 0.79685 0.0
C1820 C 0.45847 0.46245 0.8135 0.0
C1821 C 0.43823 0.47069 0.80983 0.0
C1822 C 0.49376 0.44962 0.80081 0.0
C1823 C 0.50893 0.46684 0.80388 0.0
C1824 C 0.50005 0.42873 0.80429 0.0
C1825 C 0.48533 0.40981 0.79991 0.0
C1826 C 0.46538 0.4065 0.81077 0.0
C1827 C 0.45196 0.38825 0.80674 0.0
C1828 C 0.45845 0.37311 0.79205 0.0
C1829 C 0.47839 0.37617 0.78139 0.0
C1830 C 0.4918 0.39443 0.78531 0.0
C1831 C 0.55734 0.44524 0.87307 0.0
C1832 C 0.57315 0.42992 0.87201 0.0
C1833 C 0.54597 0.45045 0.85532 0.0
C1834 C 0.55005 0.44045 0.83603 0.0
C1835 C 0.56686 0.42619 0.83447 0.0
C1836 C 0.57873 0.42135 0.85234 0.0
C1837 C 0.53448 0.44327 0.81884 0.0
C1838 C 0.52052 0.42576 0.81315 0.0
C1839 C 0.52939 0.46392 0.81272 0.0
C1840 C 0.54473 0.48265 0.81671 0.0
C1841 C 0.56707 0.4817 0.81164 0.0
C1842 C 0.58159 0.49915 0.81563 0.0
C1843 C 0.57397 0.51772 0.82464 0.0
C1844 C 0.55182 0.51888 0.82968 0.0
C1845 C 0.53724 0.50146 0.82576 0.0
H1846 H 0.58524 0.53121 0.82772 0.0
H1847 H 0.44807 0.35897 0.78901 0.0
H1848 H 0.03068 0.82106 0.70922 0.0
H1849 H 0.01431 0.83577 0.74116 0.0
H1850 H 0.95806 0.85203 0.70595 0.0
H1851 H 0.9741 0.83706 0.67414 0.0
H1852 H 0.96784 0.88153 0.73584 0.0
H1853 H 0.9571 0.80846 0.72716 0.0
H1854 H 0.96311 0.77041 0.72253 0.0
H1855 H 0.99216 0.76917 0.78334 0.0
H1856 H 0.98761 0.80766 0.78785 0.0
H1857 H 0.88555 0.84323 0.82047 0.0
H1858 H 0.91104 0.83696 0.79178 0.0
H1859 H 0.95305 0.8899 0.81307 0.0
H1860 H 0.92774 0.89576 0.84261 0.0
H1861 H 0.95283 0.82764 0.79087 0.0
H1862 H 0.96931 0.91478 0.75693 0.0
H1863 H 0.94991 0.94758 0.75226 0.0
H1864 H 0.88892 0.91387 0.76663 0.0
H1865 H 0.90784 0.88077 0.77073 0.0
C1866 C 0.01514 0.82839 0.70819 0.0
C1867 C 0.00356 0.82788 0.68927 0.0
C1868 C 0.00578 0.83664 0.72645 0.0
C1869 C 0.98489 0.84472 0.72594 0.0
C1870 C 0.9742 0.84587 0.70668 0.0
C1871 C 0.98334 0.83729 0.68853 0.0
C1872 C 0.97306 0.84974 0.74562 0.0
C1873 C 0.96492 0.87001 0.7482 0.0
C1874 C 0.96818 0.83406 0.76094 0.0
C1875 C 0.9727 0.81126 0.75755 0.0
C1876 C 0.96555 0.80036 0.73925 0.0
C1877 C 0.96861 0.77864 0.73667 0.0
C1878 C 0.97826 0.76744 0.75254 0.0
C1879 C 0.98503 0.77797 0.77093 0.0
C1880 C 0.98237 0.79978 0.77343 0.0
C1881 C 0.90046 0.85324 0.81939 0.0
C1882 C 0.90457 0.87009 0.8337 0.0
C1883 C 0.91496 0.84972 0.8029 0.0
C1884 C 0.93372 0.86321 0.80005 0.0
C1885 C 0.93848 0.87951 0.81483 0.0
C1886 C 0.92414 0.88271 0.83177 0.0
C1887 C 0.94807 0.85975 0.78157 0.0
C1888 C 0.95656 0.83961 0.77908 0.0
C1889 C 0.95173 0.87506 0.76557 0.0
C1890 C 0.94027 0.89532 0.76501 0.0
C1891 C 0.95182 0.91439 0.7594 0.0
C1892 C 0.94084 0.93301 0.75654 0.0
C1893 C 0.91819 0.93284 0.75921 0.0
C1894 C 0.90649 0.91403 0.76473 0.0
C1895 C 0.9174 0.89532 0.76745 0.0
H1896 H 0.90971 0.94728 0.75705 0.0
H1897 H 0.98015 0.75053 0.75071 0.0
H1898 H 0.96098 0.2552 0.40743 0.0
H1899 H 0.94848 0.24479 0.44262 0.0
H1900 H 0.96433 0.30844 0.46557 0.0
H1901 H 0.97663 0.31902 0.4304 0.0
H1902 H 0.98297 0.27779 0.48893 0.0
H1903 H 0.91248 0.29242 0.46439 0.0
H1904 H 0.88138 0.291 0.44014 0.0
H1905 H 0.8737 0.22324 0.44715 0.0
H1906 H 0.90495 0.22422 0.47125 0.0
H1907 H 0.90594 0.23076 0.57907 0.0
H1908 H 0.91388 0.25497 0.54982 0.0
H1909 H 0.96704 0.21701 0.52996 0.0
H1910 H 0.95884 0.19265 0.5587 0.0
H1911 H 0.91144 0.24221 0.50811 0.0
H1912 H 0.00674 0.25156 0.50423 0.0
H1913 H 0.03746 0.25104 0.52869 0.0
H1914 H 0.99584 0.27015 0.57929 0.0
H1915 H 0.96514 0.27191 0.55502 0.0
C1916 C 0.96131 0.2671 0.41985 0.0
C1917 C 0.96975 0.28792 0.41613 0.0
C1918 C 0.95418 0.26114 0.43996 0.0
C1919 C 0.9555 0.27586 0.45671 0.0
C1920 C 0.96318 0.29685 0.45287 0.0
C1921 C 0.97006 0.30289 0.43272 0.0
C1922 C 0.95047 0.26879 0.47843 0.0
C1923 C 0.96731 0.27013 0.49324 0.0
C1924 C 0.92994 0.25907 0.48403 0.0
C1925 C 0.91118 0.25838 0.46949 0.0
C1926 C 0.90428 0.27719 0.46062 0.0
C1927 C 0.8866 0.27647 0.44694 0.0
C1928 C 0.8756 0.25704 0.44207 0.0
C1929 C 0.88224 0.23828 0.45092 0.0
C1930 C 0.89992 0.23891 0.46462 0.0
C1931 C 0.91958 0.2279 0.56876 0.0
C1932 C 0.93147 0.20962 0.57097 0.0
C1933 C 0.92408 0.24169 0.55201 0.0
C1934 C 0.94101 0.23774 0.53768 0.0
C1935 C 0.95396 0.22042 0.54086 0.0
C1936 C 0.94926 0.20652 0.55734 0.0
C1937 C 0.9442 0.25048 0.51839 0.0
C1938 C 0.92706 0.25006 0.50396 0.0
C1939 C 0.96456 0.26092 0.51313 0.0
C1940 C 0.9834 0.26156 0.52773 0.0
C1941 C 0.00414 0.25596 0.5205 0.0
C1942 C 0.0216 0.25543 0.53436 0.0
C1943 C 0.01854 0.2603 0.55558 0.0
C1944 C 0.99812 0.26612 0.5629 0.0
C1945 C 0.98071 0.26705 0.54903 0.0
H1946 H 0.03205 0.25978 0.56631 0.0
H1947 H 0.86191 0.25651 0.43147 0.0
H1948 H 0.53963 0.26656 0.20241 0.0
H1949 H 0.54726 0.2539 0.23726 0.0
H1950 H 0.50166 0.2 0.22789 0.0
H1951 H 0.4931 0.21335 0.19304 0.0
H1952 H 0.49686 0.21425 0.2662 0.0
H1953 H 0.55827 0.19484 0.2262 0.0
H1954 H 0.58912 0.19885 0.20115 0.0
H1955 H 0.61993 0.24722 0.24053 0.0
H1956 H 0.58912 0.24373 0.26569 0.0
H1957 H 0.55742 0.16392 0.35082 0.0
H1958 H 0.53491 0.17302 0.32104 0.0
H1959 H 0.56098 0.23794 0.32497 0.0
H1960 H 0.58358 0.2288 0.35443 0.0
H1961 H 0.57389 0.21258 0.28884 0.0
H1962 H 0.50884 0.23101 0.32826 0.0
H1963 H 0.47867 0.22272 0.35327 0.0
H1964 H 0.45617 0.16995 0.31455 0.0
H1965 H 0.4863 0.17774 0.28941 0.0
C1966 C 0.5314 0.25186 0.20761 0.0
C1967 C 0.51597 0.2408 0.19486 0.0
C1968 C 0.5358 0.24459 0.22759 0.0
C1969 C 0.52538 0.22573 0.23515 0.0
C1970 C 0.50998 0.21455 0.22242 0.0
C1971 C 0.50525 0.22207 0.20245 0.0
C1972 C 0.53068 0.21809 0.25641 0.0
C1973 C 0.51371 0.21359 0.27103 0.0
C1974 C 0.55264 0.21698 0.26283 0.0
C1975 C 0.57129 0.21911 0.24777 0.0
C1976 C 0.57155 0.20643 0.22946 0.0
C1977 C 0.58904 0.2086 0.21524 0.0
C1978 C 0.60645 0.2233 0.21923 0.0
C1979 C 0.60643 0.23584 0.23746 0.0
C1980 C 0.58897 0.23375 0.25172 0.0
C1981 C 0.55719 0.18041 0.34621 0.0
C1982 C 0.57221 0.19568 0.35482 0.0
C1983 C 0.54449 0.18556 0.32904 0.0
C1984 C 0.5466 0.20608 0.32062 0.0
C1985 C 0.5592 0.222 0.33122 0.0
C1986 C 0.57191 0.21684 0.34822 0.0
C1987 C 0.54017 0.20983 0.29872 0.0
C1988 C 0.55704 0.21326 0.28391 0.0
C1989 C 0.51824 0.20934 0.29214 0.0
C1990 C 0.49991 0.20488 0.30704 0.0
C1991 C 0.49752 0.21755 0.32515 0.0
C1992 C 0.48041 0.21295 0.33933 0.0
C1993 C 0.46552 0.19576 0.33553 0.0
C1994 C 0.46769 0.18321 0.31748 0.0
C1995 C 0.48475 0.18774 0.30324 0.0
H1996 H 0.45229 0.19219 0.34653 0.0
H1997 H 0.61998 0.22496 0.2082 0.0
H1998 H 0.49573 0.84285 0.93552 0.0
H1999 H 0.51376 0.85407 0.96786 0.0
H2000 H 0.57668 0.85074 0.93709 0.0
H2001 H 0.55849 0.83792 0.90495 0.0
H2002 H 0.57974 0.83349 0.97133 0.0
H2003 H 0.55336 0.89988 0.95428 0.0
H2004 H 0.52739 0.92599 0.94318 0.0
H2005 H 0.48731 0.91227 0.9975 0.0
H2006 H 0.51287 0.88584 0.0088 0.0
H2007 H 0.62774 0.88327 0.06494 0.0
H2008 H 0.6168 0.87019 0.0301 0.0
H2009 H 0.54985 0.86255 0.05171 0.0
H2010 H 0.5607 0.8767 0.0861 0.0
H2011 H 0.55323 0.88865 0.01994 0.0
H2012 H 0.58414 0.81948 0.034 0.0
H2013 H 0.61398 0.79632 0.04202 0.0
H2014 H 0.65143 0.82157 0.98979 0.0
H2015 H 0.62186 0.84505 0.98159 0.0
C2016 C 0.5134 0.84492 0.93554 0.0
C2017 C 0.52575 0.83961 0.91776 0.0
C2018 C 0.52374 0.85148 0.95404 0.0
C2019 C 0.54665 0.85365 0.95496 0.0
C2020 C 0.559 0.84919 0.93686 0.0
C2021 C 0.54863 0.84199 0.91847 0.0
C2022 C 0.55755 0.85872 0.97528 0.0
C2023 C 0.57416 0.84585 0.98178 0.0
C2024 C 0.55046 0.87484 0.98902 0.0
C2025 C 0.53499 0.89075 0.98232 0.0
C2026 C 0.53893 0.90231 0.9638 0.0
C2027 C 0.52429 0.91719 0.95748 0.0
C2028 C 0.50569 0.92076 0.96961 0.0
C2029 C 0.50172 0.90948 0.98812 0.0
C2030 C 0.5163 0.89457 0.99451 0.0
C2031 C 0.61089 0.87777 0.06246 0.0
C2032 C 0.59503 0.8808 0.07811 0.0
C2033 C 0.6046 0.8704 0.0425 0.0
C2034 C 0.58243 0.86554 0.03818 0.0
C2035 C 0.56701 0.86637 0.0546 0.0
C2036 C 0.57322 0.87416 0.07434 0.0
C2037 C 0.57465 0.86279 0.01626 0.0
C2038 C 0.55877 0.87635 0.00941 0.0
C2039 C 0.58305 0.84791 0.00193 0.0
C2040 C 0.60089 0.83412 0.00732 0.0
C2041 C 0.59882 0.82022 0.02436 0.0
C2042 C 0.61568 0.80698 0.02888 0.0
C2043 C 0.63463 0.80749 0.0164 0.0
C2044 C 0.63676 0.82122 -0.00058 0.0
C2045 C 0.61996 0.83446 0.99483 0.0
H2046 H 0.64771 0.79729 0.0198 0.0
H2047 H 0.49437 0.93229 0.96469 0.0
H2048 H 0.96148 0.26187 0.84199 0.0
H2049 H 0.94977 0.24764 0.80783 0.0
H2050 H 0.00955 0.2148 0.80175 0.0
H2051 H 0.02153 0.22937 0.83572 0.0
H2052 H 0.00231 0.23426 0.76664 0.0
H2053 H 0.95964 0.18783 0.8116 0.0
H2054 H 0.93403 0.17823 0.84049 0.0
H2055 H 0.88361 0.21117 0.81049 0.0
H2056 H 0.90902 0.22121 0.78156 0.0
H2057 H 0.91948 0.1667 0.6933 0.0
H2058 H 0.9405 0.17254 0.72538 0.0
H2059 H 0.95972 0.23607 0.70511 0.0
H2060 H 0.93974 0.22947 0.67239 0.0
H2061 H 0.92979 0.19799 0.75376 0.0
H2062 H 0.9974 0.25796 0.72831 0.0
H2063 H 0.02647 0.26358 0.70147 0.0
H2064 H 0.03153 0.19605 0.69517 0.0
H2065 H 0.00187 0.19004 0.72131 0.0
C2066 C 0.97197 0.25134 0.83354 0.0
C2067 C 0.99239 0.24668 0.84162 0.0
C2068 C 0.96526 0.2432 0.81398 0.0
C2069 C 0.97872 0.23004 0.80218 0.0
C2070 C -0.00111 0.22496 0.81048 0.0
C2071 C 0.00565 0.23318 0.82999 0.0
C2072 C 0.97213 0.22222 0.78088 0.0
C2073 C 0.98647 0.22623 0.76387 0.0
C2074 C 0.95164 0.21144 0.77715 0.0
C2075 C 0.9363 0.20542 0.7945 0.0
C2076 C 0.94314 0.19316 0.81125 0.0
C2077 C 0.92865 0.18761 0.82761 0.0
C2078 C 0.90722 0.19413 0.82735 0.0
C2079 C 0.90022 0.20615 0.81069 0.0
C2080 C 0.91465 0.21176 0.79429 0.0
C2081 C 0.92948 0.1813 0.6951 0.0
C2082 C 0.92895 0.19719 0.67996 0.0
C2083 C 0.94109 0.18488 0.71367 0.0
C2084 C 0.95194 0.20473 0.7178 0.0
C2085 C 0.95211 0.2204 0.70221 0.0
C2086 C 0.94066 0.21666 0.68348 0.0
C2087 C 0.95996 0.21003 0.73939 0.0
C2088 C 0.94574 0.20578 0.75651 0.0
C2089 C 0.98074 0.22011 0.74329 0.0
C2090 C 0.9973 0.22358 0.72649 0.0
C2091 C 0.00453 0.24434 0.72095 0.0
C2092 C 0.02102 0.24757 0.70581 0.0
C2093 C 0.03066 0.23016 0.69645 0.0
C2094 C 0.02379 0.20949 0.70218 0.0
C2095 C 0.00699 0.20615 0.71697 0.0
H2096 H 0.04355 0.23268 0.68486 0.0
H2097 H 0.89603 0.18982 0.84004 0.0
H2098 H 0.54699 0.29536 0.57973 0.0
H2099 H 0.56624 0.28407 0.54785 0.0
H2100 H 0.51685 0.23349 0.5383 0.0
H2101 H 0.49758 0.24474 0.56985 0.0
H2102 H 0.58471 0.2484 0.5385 0.0
H2103 H 0.50858 0.22358 0.48709 0.0
H2104 H 0.47232 0.23656 0.47939 0.0
H2105 H 0.49364 0.29932 0.50023 0.0
H2106 H 0.53017 0.28684 0.50772 0.0
H2107 H 0.5948 0.15883 0.47734 0.0
H2108 H 0.58868 0.18909 0.49999 0.0
H2109 H 0.57863 0.22773 0.44584 0.0
H2110 H 0.58437 0.19666 0.42277 0.0
H2111 H 0.54632 0.23128 0.47185 0.0
H2112 H 0.62201 0.23992 0.48155 0.0
H2113 H 0.65999 0.23006 0.48714 0.0
H2114 H 0.6418 0.2052 0.54755 0.0
H2115 H 0.60372 0.21444 0.54213 0.0
C2116 C 0.54027 0.28184 0.57079 0.0
C2117 C 0.5208 0.2709 0.57734 0.0
C2118 C 0.55123 0.27545 0.55256 0.0
C2119 C 0.54281 0.25816 0.54044 0.0
C2120 C 0.52344 0.24718 0.54707 0.0
C2121 C 0.51254 0.25349 0.56527 0.0
C2122 C 0.55476 0.25054 0.52158 0.0
C2123 C 0.57641 0.24484 0.52384 0.0
C2124 C 0.54425 0.24668 0.50213 0.0
C2125 C 0.52215 0.25422 0.49802 0.0
C2126 C 0.50559 0.24018 0.48994 0.0
C2127 C 0.48499 0.24745 0.48561 0.0
C2128 C 0.48073 0.26876 0.48924 0.0
C2129 C 0.497 0.28282 0.49739 0.0
C2130 C 0.51765 0.27564 0.50172 0.0
C2131 C 0.59184 0.17391 0.47016 0.0
C2132 C 0.58996 0.1754 0.44832 0.0
C2133 C 0.58855 0.19135 0.48318 0.0
C2134 C 0.5834 0.2109 0.47476 0.0
C2135 C 0.58268 0.21284 0.45275 0.0
C2136 C 0.58608 0.19518 0.43957 0.0
C2137 C 0.57579 0.22781 0.48927 0.0
C2138 C 0.55488 0.23527 0.48628 0.0
C2139 C 0.58713 0.23363 0.50793 0.0
C2140 C 0.61 0.22785 0.51134 0.0
C2141 C 0.62613 0.2322 0.49592 0.0
C2142 C 0.64766 0.22676 0.49908 0.0
C2143 C 0.6533 0.21706 0.51769 0.0
C2144 C 0.63742 0.21275 0.53316 0.0
C2145 C 0.61586 0.21811 0.53005 0.0
H2146 H 0.66998 0.21289 0.52011 0.0
H2147 H 0.46482 0.27439 0.48571 0.0
H2148 H 0.49734 0.82849 0.33412 0.0
H2149 H 0.505 0.84647 0.30072 0.0
H2150 H 0.57415 0.84199 0.31043 0.0
H2151 H 0.56666 0.82448 0.3438 0.0
H2152 H 0.56525 0.87948 0.29229 0.0
H2153 H 0.54085 0.80333 0.28416 0.0
H2154 H 0.51211 0.77465 0.28819 0.0
H2155 H 0.46933 0.80852 0.24936 0.0
H2156 H 0.49763 0.83768 0.24557 0.0
H2157 H 0.63008 0.86611 0.20871 0.0
H2158 H 0.60621 0.85731 0.23808 0.0
H2159 H 0.54986 0.86872 0.20081 0.0
H2160 H 0.57391 0.87592 0.17026 0.0
H2161 H 0.542 0.83611 0.23005 0.0
H2162 H 0.56855 0.9076 0.23054 0.0
H2163 H 0.59667 0.93658 0.22535 0.0
H2164 H 0.63284 0.91433 0.27721 0.0
H2165 H 0.6053 0.88476 0.28229 0.0
C2166 C 0.51419 0.83181 0.32934 0.0
C2167 C 0.53142 0.82489 0.34147 0.0
C2168 C 0.51852 0.842 0.31022 0.0
C2169 C 0.54013 0.84524 0.30292 0.0
C2170 C 0.55734 0.83962 0.31572 0.0
C2171 C 0.55304 0.82953 0.33479 0.0
C2172 C 0.54524 0.85254 0.28129 0.0
C2173 C 0.56005 0.87012 0.27866 0.0
C2174 C 0.53767 0.84089 0.26336 0.0
C2175 C 0.5212 0.82282 0.26487 0.0
C2176 C 0.52528 0.80469 0.27656 0.0
C2177 C 0.50905 0.78837 0.27882 0.0
C2178 C 0.48885 0.78983 0.26913 0.0
C2179 C 0.48493 0.80748 0.25695 0.0
C2180 C 0.50104 0.82392 0.25478 0.0
C2181 C 0.61263 0.86644 0.2064 0.0
C2182 C 0.60399 0.87303 0.18734 0.0
C2183 C 0.59897 0.86146 0.22335 0.0
C2184 C 0.57637 0.86334 0.22189 0.0
C2185 C 0.56736 0.86779 0.2024 0.0
C2186 C 0.58113 0.87234 0.1851 0.0
C2187 C 0.563 0.86219 0.24137 0.0
C2188 C 0.54664 0.84592 0.24356 0.0
C2189 C 0.5688 0.87532 0.25887 0.0
C2190 C 0.58479 0.89389 0.25679 0.0
C2191 C 0.5825 0.90884 0.24084 0.0
C2192 C 0.5984 0.92534 0.23786 0.0
C2193 C 0.61651 0.92732 0.25097 0.0
C2194 C 0.61876 0.91281 0.2671 0.0
C2195 C 0.603 0.89616 0.27004 0.0
H2196 H 0.62883 0.94009 0.24862 0.0
H2197 H 0.47621 0.7773 0.27104 0.0
H2198 H 0.92589 0.77392 0.07465 0.0
H2199 H 0.90914 0.78784 0.04321 0.0
H2200 H 0.95328 0.84355 0.04634 0.0
H2201 H 0.96969 0.83 0.07775 0.0
H2202 H 0.91434 0.85463 0.03552 0.0
H2203 H 0.9633 0.80037 0.01487 0.0
H2204 H 0.9769 0.7642 0.01426 0.0
H2205 H 0.91597 0.73938 0.98893 0.0
H2206 H 0.90187 0.77535 0.98969 0.0
H2207 H 0.94036 0.87228 0.92372 0.0
H2208 H 0.94034 0.84642 0.952 0.0
H2209 H 0.87441 0.86107 0.96884 0.0
H2210 H 0.87463 0.88723 0.94071 0.0
H2211 H 0.91793 0.81187 0.96976 0.0
H2212 H 0.87517 0.87272 0.02137 0.0
H2213 H 0.86641 0.91046 0.02051 0.0
H2214 H 0.92356 0.9248 0.98262 0.0
H2215 H 0.9328 0.88718 0.98349 0.0
C2216 C 0.93174 0.7893 0.0688 0.0
C2217 C 0.94917 0.80083 0.07861 0.0
C2218 C 0.92224 0.79717 0.05078 0.0
C2219 C 0.93014 0.81662 0.04225 0.0
C2220 C 0.94689 0.82852 0.05261 0.0
C2221 C 0.9563 0.82072 0.07057 0.0
C2222 C 0.92198 0.82434 0.022 0.0
C2223 C 0.91484 0.84513 0.02123 0.0
C2224 C 0.92289 0.81211 0.00322 0.0
C2225 C 0.93139 0.7905 0.00267 0.0
C2226 C 0.95272 0.78717 0.00936 0.0
C2227 C 0.96055 0.76671 0.00894 0.0
C2228 C 0.94728 0.7495 0.00163 0.0
C2229 C 0.92619 0.75272 0.99466 0.0
C2230 C 0.91827 0.77313 0.9951 0.0
C2231 C 0.92549 0.86911 0.93276 0.0
C2232 C 0.90736 0.88135 0.92983 0.0
C2233 C 0.92547 0.85437 0.94895 0.0
C2234 C 0.90748 0.85203 0.96271 0.0
C2235 C 0.8885 0.86271 0.95846 0.0
C2236 C 0.88853 0.87745 0.94222 0.0
C2237 C 0.91044 0.8421 0.98339 0.0
C2238 C 0.91677 0.82105 0.98421 0.0
C2239 C 0.90947 0.85428 0.00218 0.0
C2240 C 0.90446 0.87706 0.00222 0.0
C2241 C 0.88589 0.88391 0.01289 0.0
C2242 C 0.88084 0.9053 0.01241 0.0
C2243 C 0.89436 0.92 0.00143 0.0
C2244 C 0.91305 0.91339 0.99105 0.0
C2245 C 0.9182 0.89204 0.99154 0.0
H2246 H 0.89038 0.93654 0.00102 0.0
H2247 H 0.95338 0.73368 0.00131 0.0
H2248 H 0.6816 0.99827 0.78893 0.0
H2249 H 0.71126 0.98143 0.80607 0.0
H2250 H 0.70326 0.02151 0.86073 0.0
H2251 H 0.67389 0.03914 0.84313 0.0
H2252 H 0.74446 0.02037 0.85241 0.0
H2253 H 0.68851 0.96687 0.86131 0.0
H2254 H 0.65732 0.9423 0.85199 0.0
H2255 H 0.69758 0.91029 0.80751 0.0
H2256 H 0.72895 0.93485 0.81633 0.0
H2257 H 0.80902 0.92432 0.88933 0.0
H2258 H 0.78088 0.9507 0.88984 0.0
H2259 H 0.79981 0.96913 0.8271 0.0
H2260 H 0.82828 0.94341 0.82689 0.0
H2261 H 0.75128 0.94226 0.84954 0.0
H2262 H 0.80688 0.00397 0.84184 0.0
H2263 H 0.83521 0.02891 0.85648 0.0
H2264 H 0.79133 0.04583 0.90611 0.0
H2265 H 0.76315 0.02007 0.89241 0.0
C2266 C 0.68588 0.00331 0.80473 0.0
C2267 C 0.67532 0.01996 0.81473 0.0
C2268 C 0.70284 0.99359 0.81459 0.0
C2269 C 0.70935 -7e-05 0.83488 0.0
C2270 C 0.69851 0.01629 0.84511 0.0
C2271 C 0.68165 0.02625 0.8351 0.0
C2272 C 0.72821 0.99006 0.84467 0.0
C2273 C 0.7458 0.00326 0.85205 0.0
C2274 C 0.72986 0.96772 0.84477 0.0
C2275 C 0.71107 0.95279 0.83943 0.0
C2276 C 0.69069 0.95467 0.84945 0.0
C2277 C 0.67298 0.94073 0.84426 0.0
C2278 C 0.67546 0.92476 0.82916 0.0
C2279 C 0.69568 0.92266 0.81922 0.0
C2280 C 0.71345 0.93657 0.82434 0.0
C2281 C 0.80802 0.935 0.87623 0.0
C2282 C 0.82127 0.9325 0.85836 0.0
C2283 C 0.79193 0.94999 0.8765 0.0
C2284 C 0.78873 0.96239 0.85878 0.0
C2285 C 0.80267 0.9605 0.84131 0.0
C2286 C 0.81889 0.94576 0.84116 0.0
C2287 C 0.76781 0.97262 0.85606 0.0
C2288 C 0.74974 0.95936 0.85016 0.0
C2289 C 0.7656 0.9948 0.8579 0.0
C2290 C 0.78312 0.00949 0.86647 0.0
C2291 C 0.8035 0.01238 0.85628 0.0
C2292 C 0.81953 0.0268 0.86436 0.0
C2293 C 0.8152 0.03877 0.88238 0.0
C2294 C 0.79482 0.03634 0.89235 0.0
C2295 C 0.77887 0.02173 0.8845 0.0
H2296 H 0.82756 0.05004 0.8885 0.0
H2297 H 0.66173 0.91399 0.82516 0.0
H2298 H 0.75228 0.98167 0.55062 0.0
H2299 H 0.75899 0.01804 0.56405 0.0
H2300 H 0.82652 0.01669 0.54455 0.0
H2301 H 0.81999 0.9803 0.53131 0.0
H2302 H 0.82271 0.03706 0.58198 0.0
H2303 H 0.78888 0.03827 0.51337 0.0
H2304 H 0.75939 0.02829 0.48849 0.0
H2305 H 0.71303 0.05831 0.52844 0.0
H2306 H 0.74221 0.06826 0.55367 0.0
H2307 H 0.86218 0.133 0.54643 0.0
H2308 H 0.83466 0.10445 0.53969 0.0
H2309 H 0.80319 0.1179 0.59878 0.0
H2310 H 0.83095 0.14674 0.60553 0.0
H2311 H 0.78241 0.09293 0.54712 0.0
H2312 H 0.81859 0.0873 0.6186 0.0
H2313 H 0.85038 0.09748 0.64061 0.0
H2314 H 0.89371 0.07781 0.59158 0.0
H2315 H 0.86205 0.06701 0.56948 0.0
C2316 C 0.76866 0.98899 0.54954 0.0
C2317 C 0.7856 0.97815 0.5398 0.0
C2318 C 0.77242 0.00981 0.55713 0.0
C2319 C 0.79317 0.02021 0.55503 0.0
C2320 C 0.81037 0.00901 0.54632 0.0
C2321 C 0.80662 0.9882 0.53873 0.0
C2322 C 0.79684 0.04314 0.56058 0.0
C2323 C 0.81355 0.04918 0.57465 0.0
C2324 C 0.78499 0.05911 0.55102 0.0
C2325 C 0.76765 0.05377 0.53552 0.0
C2326 C 0.77237 0.04265 0.51688 0.0
C2327 C 0.75573 0.037 0.50273 0.0
C2328 C 0.73433 0.04251 0.50698 0.0
C2329 C 0.72959 0.05395 0.52524 0.0
C2330 C 0.74618 0.05962 0.53945 0.0
C2331 C 0.84874 0.13066 0.55749 0.0
C2332 C 0.84899 0.14161 0.57685 0.0
C2333 C 0.83295 0.11435 0.55358 0.0
C2334 C 0.81723 0.10877 0.56895 0.0
C2335 C 0.81533 0.12189 0.58679 0.0
C2336 C 0.83115 0.13837 0.59066 0.0
C2337 C 0.80784 0.08661 0.5688 0.0
C2338 C 0.79062 0.08069 0.55529 0.0
C2339 C 0.81907 0.07067 0.57892 0.0
C2340 C 0.83801 0.07622 0.59251 0.0
C2341 C 0.83489 0.08492 0.61264 0.0
C2342 C 0.85288 0.09088 0.62509 0.0
C2343 C 0.87407 0.0884 0.61748 0.0
C2344 C 0.87729 0.07971 0.59747 0.0
C2345 C 0.85934 0.07354 0.58503 0.0
H2346 H 0.88798 0.09319 0.62708 0.0
H2347 H 0.72143 0.03799 0.49608 0.0
H2348 H 0.82833 0.0532 0.35935 0.0
H2349 H 0.7956 0.06706 0.37582 0.0
H2350 H 0.79286 0.11334 0.32669 0.0
H2351 H 0.82578 0.10015 0.3107 0.0
H2352 H 0.77944 0.13004 0.36198 0.0
H2353 H 0.76381 0.06048 0.32462 0.0
H2354 H 0.76793 0.02183 0.32054 0.0
H2355 H 0.74902 0.01261 0.38498 0.0
H2356 H 0.74448 0.05111 0.38928 0.0
H2357 H 0.66291 0.12125 0.3294 0.0
H2358 H 0.69653 0.10259 0.33427 0.0
H2359 H 0.70586 0.13393 0.39431 0.0
H2360 H 0.67273 0.15307 0.38908 0.0
H2361 H 0.71642 0.07705 0.36253 0.0
H2362 H 0.75952 0.15265 0.39567 0.0
H2363 H 0.7535 0.191 0.39912 0.0
H2364 H 0.71747 0.18859 0.34171 0.0
H2365 H 0.7235 0.15031 0.33781 0.0
C2366 C 0.82107 0.06673 0.35243 0.0
C2367 C 0.82946 0.07546 0.33361 0.0
C2368 C 0.80227 0.07451 0.36176 0.0
C2369 C 0.79145 0.09089 0.35221 0.0
C2370 C 0.80084 0.10064 0.33433 0.0
C2371 C 0.81969 0.09305 0.32516 0.0
C2372 C 0.76939 0.09678 0.35925 0.0
C2373 C 0.76573 0.11839 0.36251 0.0
C2374 C 0.75142 0.08166 0.36006 0.0
C2375 C 0.754 0.05858 0.35731 0.0
C2376 C 0.76055 0.05016 0.33788 0.0
C2377 C 0.7629 0.02828 0.33552 0.0
C2378 C 0.75873 0.01474 0.35248 0.0
C2379 C 0.75211 0.02304 0.37182 0.0
C2380 C 0.74959 0.04487 0.37421 0.0
C2381 C 0.67167 0.12337 0.344 0.0
C2382 C 0.66496 0.13799 0.35916 0.0
C2383 C 0.69086 0.11278 0.34678 0.0
C2384 C 0.70377 0.11707 0.36456 0.0
C2385 C 0.69618 0.13049 0.38045 0.0
C2386 C 0.67709 0.14115 0.3776 0.0
C2387 C 0.7265 0.11029 0.36468 0.0
C2388 C 0.73022 0.0886 0.36267 0.0
C2389 C 0.74453 0.12536 0.36504 0.0
C2390 C 0.74167 0.14857 0.36666 0.0
C2391 C 0.75037 0.16033 0.38377 0.0
C2392 C 0.74696 0.18205 0.3858 0.0
C2393 C 0.73501 0.1922 0.37071 0.0
C2394 C 0.72664 0.1807 0.35344 0.0
C2395 C 0.73006 0.159 0.35131 0.0
H2396 H 0.73229 0.20899 0.37236 0.0
H2397 H 0.76063 0.99782 0.35064 0.0
H2398 H 0.70864 0.12371 0.05302 0.0
H2399 H 0.69785 0.08873 0.06745 0.0
H2400 H 0.7654 0.07298 0.06853 0.0
H2401 H 0.77637 0.10811 0.05464 0.0
H2402 H 0.73602 0.04346 0.04568 0.0
H2403 H 0.74437 0.07668 0.1129 0.0
H2404 H 0.73948 0.10399 0.14035 0.0
H2405 H 0.67004 0.09062 0.13951 0.0
H2406 H 0.67449 0.06338 0.11187 0.0
H2407 H 0.68226 0.95476 0.11893 0.0
H2408 H 0.70899 0.9842 0.11122 0.0
H2409 H 0.67085 0.00125 0.05821 0.0
H2410 H 0.64374 0.97249 0.06634 0.0
H2411 H 0.69407 0.02749 0.1111 0.0
H2412 H 0.71115 0.02139 0.02097 0.0
H2413 H 0.71756 0.99377 0.99416 0.0
H2414 H 0.73848 0.95202 0.04177 0.0
H2415 H 0.7327 0.97951 0.0688 0.0
C2416 C 0.72121 0.113 0.05685 0.0
C2417 C 0.74333 0.11864 0.05275 0.0
C2418 C 0.71504 0.09304 0.06506 0.0
C2419 C 0.73085 0.0783 0.06898 0.0
C2420 C 0.753 0.08417 0.06562 0.0
C2421 C 0.75922 0.10428 0.05781 0.0
C2422 C 0.72395 0.05623 0.07479 0.0
C2423 C 0.72698 0.03987 0.06004 0.0
C2424 C 0.71257 0.05159 0.0937 0.0
C2425 C 0.70976 0.0681 0.11019 0.0
C2426 C 0.72804 0.0797 0.11842 0.0
C2427 C 0.72535 0.09513 0.13406 0.0
C2428 C 0.70446 0.09907 0.14164 0.0
C2429 C 0.68621 0.08756 0.13362 0.0
C2430 C 0.68881 0.0721 0.11799 0.0
C2431 C 0.6799 0.96448 0.10536 0.0
C2432 C 0.66083 0.96153 0.09339 0.0
C2433 C 0.69512 0.98129 0.101 0.0
C2434 C 0.69183 0.99488 0.08418 0.0
C2435 C 0.67372 0.99085 0.0712 0.0
C2436 C 0.65825 0.97444 0.07586 0.0
C2437 C 0.70544 0.01486 0.08164 0.0
C2438 C 0.70347 0.03093 0.0969 0.0
C2439 C 0.71782 0.01919 0.06319 0.0
C2440 C 0.72123 0.00248 0.04699 0.0
C2441 C 0.71718 0.00635 0.02574 0.0
C2442 C 0.72072 0.99071 0.01048 0.0
C2443 C 0.72832 0.97112 0.01628 0.0
C2444 C 0.73248 0.96716 0.03732 0.0
C2445 C 0.72904 0.98276 0.05262 0.0
H2446 H 0.73101 0.95902 0.00448 0.0
H2447 H 0.70241 0.11102 0.15375 0.0
H2448 H 0.71177 0.07833 0.77447 0.0
H2449 H 0.74668 0.08565 0.75653 0.0
H2450 H 0.71333 0.0882 0.69741 0.0
H2451 H 0.67841 0.07953 0.71528 0.0
H2452 H 0.74853 0.06897 0.69107 0.0
H2453 H 0.73331 0.13432 0.72688 0.0
H2454 H 0.72453 0.15724 0.75714 0.0
H2455 H 0.78312 0.14048 0.78774 0.0
H2456 H 0.79212 0.11726 0.75776 0.0
H2457 H 0.8173 0.14605 0.63874 0.0
H2458 H 0.79023 0.12181 0.65529 0.0
H2459 H 0.83724 0.1069 0.70194 0.0
H2460 H 0.86504 0.1304 0.68435 0.0
H2461 H 0.79915 0.12756 0.71659 0.0
H2462 H 0.81596 0.06565 0.67689 0.0
H2463 H 0.82358 0.0437 0.64563 0.0
H2464 H 0.76145 0.05726 0.62001 0.0
H2465 H 0.75339 0.07924 0.65118 0.0
C2466 C 0.71187 0.08061 0.75766 0.0
C2467 C 0.69237 0.07865 0.74628 0.0
C2468 C 0.73187 0.08483 0.7474 0.0
C2469 C 0.73272 0.08792 0.72561 0.0
C2470 C 0.71318 0.0859 0.71421 0.0
C2471 C 0.6932 0.08113 0.72444 0.0
C2472 C 0.7539 0.09342 0.71474 0.0
C2473 C 0.75949 0.08191 0.69658 0.0
C2474 C 0.76863 0.10991 0.72217 0.0
C2475 C 0.76325 0.12387 0.7402 0.0
C2476 C 0.74423 0.13541 0.74014 0.0
C2477 C 0.73923 0.14847 0.75722 0.0
C2478 C 0.75322 0.15026 0.77438 0.0
C2479 C 0.77228 0.13905 0.77446 0.0
C2480 C 0.77734 0.12594 0.75742 0.0
C2481 C 0.8223 0.13655 0.65166 0.0
C2482 C 0.84339 0.13955 0.6599 0.0
C2483 C 0.80675 0.12281 0.66125 0.0
C2484 C 0.81175 0.11245 0.67976 0.0
C2485 C 0.83318 0.11455 0.68749 0.0
C2486 C 0.84902 0.12789 0.67745 0.0
C2487 C 0.79353 0.10334 0.69285 0.0
C2488 C 0.78838 0.11433 0.71136 0.0
C2489 C 0.77906 0.08674 0.68548 0.0
C2490 C 0.78409 0.07412 0.66638 0.0
C2491 C 0.80397 0.06406 0.66455 0.0
C2492 C 0.8083 0.05148 0.64692 0.0
C2493 C 0.79295 0.04898 0.63092 0.0
C2494 C 0.77327 0.05912 0.63248 0.0
C2495 C 0.76877 0.07156 0.65017 0.0
H2496 H 0.79633 0.03925 0.61729 0.0
H2497 H 0.74932 0.16039 0.78759 0.0
H2498 H 0.71069 0.95425 0.46666 0.0
H2499 H 0.69604 0.98359 0.44772 0.0
H2500 H 0.76101 0.00354 0.42663 0.0
H2501 H 0.77588 0.97428 0.44596 0.0
H2502 H 0.74162 0.036 0.44294 0.0
H2503 H 0.72243 0.98372 0.39182 0.0
H2504 H 0.70759 0.94962 0.3772 0.0
H2505 H 0.6434 0.96341 0.3993 0.0
H2506 H 0.65788 0.99752 0.4143 0.0
H2507 H 0.65352 0.09654 0.37995 0.0
H2508 H 0.68056 0.06928 0.38172 0.0
H2509 H 0.68061 0.07537 0.44919 0.0
H2510 H 0.65372 0.10271 0.44734 0.0
H2511 H 0.67494 0.03152 0.39941 0.0
H2512 H 0.73113 0.06469 0.46793 0.0
H2513 H 0.74766 0.09925 0.47981 0.0
H2514 H 0.74106 0.1243 0.41802 0.0
H2515 H 0.72486 0.08979 0.40581 0.0
C2516 C 0.72183 0.96459 0.45764 0.0
C2517 C 0.74444 0.96197 0.45784 0.0
C2518 C 0.71342 0.98134 0.44672 0.0
C2519 C 0.7274 0.99572 0.43561 0.0
C2520 C 0.74992 0.99263 0.43507 0.0
C2521 C 0.75837 0.97585 0.44604 0.0
C2522 C 0.71855 0.01502 0.42646 0.0
C2523 C 0.72715 0.03505 0.43326 0.0
C2524 C 0.70013 0.01382 0.41322 0.0
C2525 C 0.6913 0.99325 0.40422 0.0
C2526 C 0.70517 0.97949 0.39366 0.0
C2527 C 0.69681 0.96014 0.38529 0.0
C2528 C 0.67457 0.95435 0.38732 0.0
C2529 C 0.66063 0.96792 0.39771 0.0
C2530 C 0.6689 0.9873 0.40611 0.0
C2531 C 0.65989 0.09248 0.39506 0.0
C2532 C 0.65205 0.10199 0.41348 0.0
C2533 C 0.67516 0.07681 0.39608 0.0
C2534 C 0.68286 0.07048 0.41556 0.0
C2535 C 0.67526 0.0803 0.43396 0.0
C2536 C 0.65988 0.09583 0.43293 0.0
C2537 C 0.69718 0.0523 0.41703 0.0
C2538 C 0.68965 0.03251 0.40875 0.0
C2539 C 0.71679 0.05376 0.4286 0.0
C2540 C 0.72667 0.0746 0.43594 0.0
C2541 C 0.73334 0.0775 0.45685 0.0
C2542 C 0.74264 0.09712 0.46367 0.0
C2543 C 0.74541 0.114 0.44969 0.0
C2544 C 0.73891 0.11126 0.42886 0.0
C2545 C 0.72965 0.09166 0.42199 0.0
H2546 H 0.75259 0.12919 0.45499 0.0
H2547 H 0.66813 0.93935 0.38083 0.0
H2548 H 0.81758 0.02876 0.23483 0.0
H2549 H 0.78132 0.02015 0.22057 0.0
H2550 H 0.75861 -0.00131 0.28147 0.0
H2551 H 0.79526 0.00619 0.29545 0.0
H2552 H 0.74294 0.9727 0.25482 0.0
H2553 H 0.74352 0.04731 0.25924 0.0
H2554 H 0.75687 0.08471 0.25541 0.0
H2555 H 0.75591 0.07765 0.18837 0.0
H2556 H 0.74294 0.04008 0.19176 0.0
H2557 H 0.64491 0.94875 0.20193 0.0
H2558 H 0.66536 0.97336 0.22576 0.0
H2559 H 0.71418 0.9853 0.17744 0.0
H2560 H 0.69421 0.96052 0.15407 0.0
H2561 H 0.70851 0.02107 0.20567 0.0
H2562 H 0.71948 0.94272 0.20638 0.0
H2563 H 0.70311 0.90631 0.21079 0.0
H2564 H 0.67815 0.92369 0.27146 0.0
H2565 H 0.69427 0.96025 0.26727 0.0
C2566 C 0.80487 0.02211 0.24513 0.0
C2567 C 0.80922 0.01811 0.26622 0.0
C2568 C 0.78404 0.01745 0.23705 0.0
C2569 C 0.76696 0.00928 0.25005 0.0
C2570 C 0.7714 0.0051 0.27112 0.0
C2571 C 0.79236 0.00935 0.27909 0.0
C2572 C 0.74489 0.00403 0.24126 0.0
C2573 C 0.73518 0.98359 0.24459 0.0
C2574 C 0.73444 0.01818 0.22798 0.0
C2575 C 0.74234 0.04079 0.22578 0.0
C2576 C 0.74631 0.05367 0.24367 0.0
C2577 C 0.7538 0.07491 0.24158 0.0
C2578 C 0.75727 0.08354 0.22166 0.0
C2579 C 0.75323 0.07094 0.20379 0.0
C2580 C 0.74578 0.04966 0.20579 0.0
C2581 C 0.65944 0.95748 0.19617 0.0
C2582 C 0.66804 0.95297 0.17622 0.0
C2583 C 0.67112 0.97146 0.20976 0.0
C2584 C 0.69135 0.981 0.20336 0.0
C2585 C 0.69855 0.97824 0.18262 0.0
C2586 C 0.68713 0.96408 0.16925 0.0
C2587 C 0.70736 0.98976 0.21881 0.0
C2588 C 0.716 0.01069 0.21663 0.0
C2589 C 0.71658 0.97633 0.23352 0.0
C2590 C 0.708 0.95413 0.2365 0.0
C2591 C 0.71057 0.93871 0.22067 0.0
C2592 C 0.7013 0.91809 0.22311 0.0
C2593 C 0.68959 0.91269 0.24139 0.0
C2594 C 0.68723 0.92788 0.25732 0.0
C2595 C 0.69646 0.94854 0.25494 0.0
H2596 H 0.68234 0.89675 0.24322 0.0
H2597 H 0.76306 0.1 0.22008 0.0
H2598 H 0.81799 0.12023 0.98897 0.0
H2599 H 0.82894 0.08647 0.97429 0.0
H2600 H 0.76735 0.07817 0.94225 0.0
H2601 H 0.75599 0.11179 0.95751 0.0
H2602 H 0.77531 0.04284 0.96052 0.0
H2603 H 0.81581 0.08876 0.91472 0.0
H2604 H 0.84023 0.11913 0.90377 0.0
H2605 H 0.89307 0.09405 0.9376 0.0
H2606 H 0.86888 0.06366 0.94899 0.0
H2607 H 0.83529 0.96484 0.89255 0.0
H2608 H 0.81434 0.99515 0.90337 0.0
H2609 H 0.84207 0.9932 0.96506 0.0
H2610 H 0.86178 0.9618 0.95466 0.0
H2611 H 0.84803 0.03283 0.92806 0.0
H2612 H 0.80135 0.98788 0.97634 0.0
H2613 H 0.77494 0.95763 0.98283 0.0
H2614 H 0.73169 0.98149 0.93727 0.0
H2615 H 0.75796 0.01181 0.93046 0.0
C2616 C 0.80691 0.11142 0.97851 0.0
C2617 C 0.78615 0.11867 0.97436 0.0
C2618 C 0.81321 0.09211 0.97007 0.0
C2619 C 0.79904 0.07982 0.95702 0.0
C2620 C 0.77853 0.08736 0.95231 0.0
C2621 C 0.77213 0.10662 0.96092 0.0
C2622 C 0.80531 0.05863 0.94932 0.0
C2623 C 0.79113 0.04075 0.9532 0.0
C2624 C 0.82584 0.05577 0.9396 0.0
C2625 C 0.84047 0.07405 0.93288 0.0
C2626 C 0.83258 0.08983 0.91998 0.0
C2627 C 0.84639 0.10702 0.91366 0.0
C2628 C 0.86817 0.10855 0.92003 0.0
C2629 C 0.87619 0.09286 0.9327 0.0
C2630 C 0.86245 0.07563 0.93907 0.0
C2631 C 0.83557 0.96987 0.9088 0.0
C2632 C 0.84929 0.9604 0.92301 0.0
C2633 C 0.82401 0.98748 0.91486 0.0
C2634 C 0.82643 0.99614 0.93509 0.0
C2635 C 0.83965 0.98639 0.94952 0.0
C2636 C 0.85092 0.96856 0.94356 0.0
C2637 C 0.81841 0.0173 0.93999 0.0
C2638 C 0.83226 0.03511 0.9354 0.0
C2639 C 0.79743 0.0201 0.94853 0.0
C2640 C 0.78179 0.00184 0.95259 0.0
C2641 C 0.78636 0.9865 0.9675 0.0
C2642 C 0.77137 0.9694 0.97131 0.0
C2643 C 0.75172 0.96755 0.96036 0.0
C2644 C 0.74696 0.98287 0.94567 0.0
C2645 C 0.76188 2e-05 0.94184 0.0
H2646 H 0.74013 0.95431 0.96334 0.0
H2647 H 0.87884 0.12188 0.91511 0.0
H2648 H 0.73552 0.71253 0.97366 0.0
H2649 H 0.75427 0.74414 0.95884 0.0
H2650 H 0.81605 0.72304 0.97999 0.0
H2651 H 0.79717 0.69162 0.99554 0.0
H2652 H 0.81412 0.76363 0.98803 0.0
H2653 H 0.80173 0.72041 0.92739 0.0
H2654 H 0.78091 0.69718 0.90246 0.0
H2655 H 0.73887 0.74772 0.88964 0.0
H2656 H 0.75924 0.77118 0.91473 0.0
H2657 H 0.8703 0.84194 0.91904 0.0
H2658 H 0.85792 0.81064 0.93952 0.0
H2659 H 0.79092 0.82569 0.92997 0.0
H2660 H 0.80329 0.85691 0.90977 0.0
H2661 H 0.79989 0.78621 0.91551 0.0
H2662 H 0.81515 0.82964 0.97727 0.0
H2663 H 0.83711 0.85085 0.00293 0.0
H2664 H 0.87667 0.79785 0.01323 0.0
H2665 H 0.85561 0.77657 0.98696 0.0
C2666 C 0.75312 0.7145 0.97496 0.0
C2667 C 0.7649 0.69954 0.98562 0.0
C2668 C 0.76385 0.73257 0.96644 0.0
C2669 C 0.78665 0.73586 0.96801 0.0
C2670 C 0.79847 0.72084 0.97855 0.0
C2671 C 0.78769 0.70285 0.98731 0.0
C2672 C 0.7979 0.75526 0.95906 0.0
C2673 C 0.81135 0.76842 0.97205 0.0
C2674 C 0.79422 0.76154 0.93824 0.0
C2675 C 0.78193 0.74751 0.92307 0.0
C2676 C 0.78795 0.72653 0.91937 0.0
C2677 C 0.77624 0.71333 0.90519 0.0
C2678 C 0.75855 0.72096 0.89451 0.0
C2679 C 0.75257 0.74183 0.89794 0.0
C2680 C 0.76421 0.7551 0.91212 0.0
C2681 C 0.85301 0.83906 0.92222 0.0
C2682 C 0.83771 0.85196 0.91326 0.0
C2683 C 0.84594 0.82109 0.93371 0.0
C2684 C 0.82349 0.81582 0.9362 0.0
C2685 C 0.80831 0.82945 0.9282 0.0
C2686 C 0.81535 0.8473 0.91677 0.0
C2687 C 0.81553 0.79496 0.94469 0.0
C2688 C 0.80282 0.78139 0.93147 0.0
C2689 C 0.82035 0.78819 0.96512 0.0
C2690 C 0.83389 0.80155 0.97991 0.0
C2691 C 0.82883 0.82263 0.98462 0.0
C2692 C 0.84111 0.83466 -0.00068 0.0
C2693 C 0.85827 0.82568 0.00967 0.0
C2694 C 0.86344 0.80479 0.00511 0.0
C2695 C 0.85139 0.79277 0.99026 0.0
H2696 H 0.86744 0.8348 0.02139 0.0
H2697 H 0.74951 0.71071 0.88354 0.0
H2698 H 0.26778 0.83879 0.05911 0.0
H2699 H 0.28796 0.80787 0.06758 0.0
H2700 H 0.34129 0.83051 0.02754 0.0
H2701 H 0.32054 0.86141 0.01828 0.0
H2702 H 0.33529 0.78774 0.02415 0.0
H2703 H 0.34572 0.83725 0.07995 0.0
H2704 H 0.3356 0.86349 0.10688 0.0
H2705 H 0.29541 0.81548 0.13827 0.0
H2706 H 0.30504 0.78901 0.11136 0.0
H2707 H 0.38749 0.72336 0.11331 0.0
H2708 H 0.38418 0.75166 0.08761 0.0
H2709 H 0.31995 0.72556 0.07174 0.0
H2710 H 0.32367 0.69688 0.09658 0.0
H2711 H 0.34137 0.77298 0.10002 0.0
H2712 H 0.33332 0.72377 0.03698 0.0
H2713 H 0.35004 0.70103 0.01034 0.0
H2714 H 0.39378 0.7532 0.99194 0.0
H2715 H 0.37779 0.77603 0.01911 0.0
C2716 C 0.28384 0.83729 0.05215 0.0
C2717 C 0.2928 0.85271 0.03837 0.0
C2718 C 0.29536 0.81956 0.05697 0.0
C2719 C 0.31635 0.81711 0.04857 0.0
C2720 C 0.32516 0.83217 0.0343 0.0
C2721 C 0.3134 0.84984 0.02915 0.0
C2722 C 0.32905 0.79912 0.05557 0.0
C2723 C 0.33682 0.78457 0.04073 0.0
C2724 C 0.33176 0.79536 0.07718 0.0
C2725 C 0.32604 0.81117 0.09356 0.0
C2726 C 0.33463 0.83231 0.09253 0.0
C2727 C 0.32899 0.84722 0.1078 0.0
C2728 C 0.31485 0.84116 0.12427 0.0
C2729 C 0.30637 0.82015 0.12551 0.0
C2730 C 0.31194 0.80518 0.11027 0.0
C2731 C 0.37337 0.72287 0.1032 0.0
C2732 C 0.35614 0.70757 0.10627 0.0
C2733 C 0.37147 0.73904 0.08857 0.0
C2734 C 0.35214 0.74029 0.07715 0.0
C2735 C 0.33547 0.72428 0.07945 0.0
C2736 C 0.33753 0.70796 0.09378 0.0
C2737 C 0.34638 0.76096 0.06868 0.0
C2738 C 0.34005 0.77621 0.08341 0.0
C2739 C 0.34564 0.76547 0.04703 0.0
C2740 C 0.35499 0.7514 0.03079 0.0
C2741 C 0.34698 0.73024 0.02783 0.0
C2742 C 0.35621 0.71734 0.01246 0.0
C2743 C 0.37322 0.72555 -0.00034 0.0
C2744 C 0.38087 0.74673 0.00208 0.0
C2745 C 0.37179 0.75961 0.01752 0.0
H2746 H 0.3803 0.71558 0.98773 0.0
H2747 H 0.3105 0.85273 0.13607 0.0
H2748 H 0.92883 0.52439 0.79593 0.0
H2749 H 0.96464 0.53651 0.80913 0.0
H2750 H 0.96908 0.586 0.76284 0.0
H2751 H 0.93333 0.57353 0.74916 0.0
H2752 H 0.00697 0.56695 0.76515 0.0
H2753 H 0.95796 0.59742 0.8146 0.0
H2754 H 0.92712 0.59759 0.83977 0.0
H2755 H 0.95848 0.55332 0.87854 0.0
H2756 H 0.98938 0.55266 0.85346 0.0
H2757 H 0.08664 0.63064 0.83246 0.0
H2758 H 0.05701 0.6184 0.80886 0.0
H2759 H 0.0576 0.55559 0.83471 0.0
H2760 H 0.08653 0.56785 0.85873 0.0
H2761 H 0.01798 0.58315 0.84069 0.0
H2762 H 0.06937 0.55613 0.79125 0.0
H2763 H 0.09985 0.55777 0.76581 0.0
H2764 H 0.06374 0.59706 0.72576 0.0
H2765 H 0.03327 0.59631 0.7513 0.0
C2766 C 0.93729 0.53801 0.7887 0.0
C2767 C 0.92815 0.54814 0.77163 0.0
C2768 C 0.9578 0.54493 0.79626 0.0
C2769 C 0.96949 0.56234 0.78714 0.0
C2770 C 0.96037 0.57255 0.77014 0.0
C2771 C 0.93987 0.56552 0.76244 0.0
C2772 C 0.99128 0.56969 0.79536 0.0
C2773 C 0.00939 0.57086 0.7816 0.0
C2774 C 0.99443 0.57444 0.81689 0.0
C2775 C 0.9759 0.57486 0.83206 0.0
C2776 C 0.95821 0.5876 0.82842 0.0
C2777 C 0.94072 0.5878 0.84268 0.0
C2778 C 0.94082 0.57544 0.86072 0.0
C2779 C 0.95842 0.56288 0.86456 0.0
C2780 C 0.97593 0.5626 0.85033 0.0
C2781 C 0.08129 0.61396 0.83225 0.0
C2782 C 0.08888 0.60015 0.84734 0.0
C2783 C 0.06438 0.60699 0.81874 0.0
C2784 C 0.05532 0.58606 0.81988 0.0
C2785 C 0.06452 0.57175 0.83345 0.0
C2786 C 0.08117 0.57872 0.84704 0.0
C2787 C 0.03374 0.58027 0.81053 0.0
C2788 C 0.0156 0.57943 0.82418 0.0
C2789 C 0.03067 0.57609 0.78888 0.0
C2790 C 0.04917 0.57664 0.77357 0.0
C2791 C 0.06806 0.56557 0.7773 0.0
C2792 C 0.08533 0.56623 0.76277 0.0
C2793 C 0.08381 0.57765 0.74425 0.0
C2794 C 0.06494 0.58828 0.74015 0.0
C2795 C 0.04765 0.58773 0.75466 0.0
H2796 H 0.0972 0.57814 0.73303 0.0
H2797 H 0.92727 0.57561 0.87174 0.0
H2798 H 0.17338 0.19395 0.50519 0.0
H2799 H 0.15757 0.22612 0.51939 0.0
H2800 H 0.20762 0.23117 0.56651 0.0
H2801 H 0.22314 0.19889 0.55272 0.0
H2802 H 0.17026 0.24028 0.58331 0.0
H2803 H 0.21082 0.26117 0.52104 0.0
H2804 H 0.22042 0.25973 0.4834 0.0
H2805 H 0.15526 0.27519 0.46768 0.0
H2806 H 0.14525 0.27668 0.50523 0.0
H2807 H 0.18276 0.359 0.58874 0.0
H2808 H 0.18472 0.32785 0.56553 0.0
H2809 H 0.12473 0.30106 0.59269 0.0
H2810 H 0.12325 0.3319 0.61636 0.0
H2811 H 0.163 0.30233 0.5371 0.0
H2812 H 0.1329 0.25078 0.60649 0.0
H2813 H 0.12829 0.25372 0.64491 0.0
H2814 H 0.18109 0.30139 0.64746 0.0
H2815 H 0.18619 0.29849 0.60913 0.0
C2816 C 0.18079 0.20175 0.51878 0.0
C2817 C 0.19951 0.19389 0.52784 0.0
C2818 C 0.17185 0.22023 0.52677 0.0
C2819 C 0.18159 0.23127 0.54383 0.0
C2820 C 0.1998 0.22296 0.55333 0.0
C2821 C 0.20866 0.20447 0.54544 0.0
C2822 C 0.17328 0.25171 0.55167 0.0
C2823 C 0.16847 0.25373 0.57312 0.0
C2824 C 0.17118 0.26944 0.53848 0.0
C2825 C 0.17722 0.26878 0.51592 0.0
C2826 C 0.19851 0.26415 0.50954 0.0
C2827 C 0.20404 0.26339 0.48823 0.0
C2828 C 0.18845 0.26737 0.47315 0.0
C2829 C 0.16733 0.27218 0.47937 0.0
C2830 C 0.16172 0.27301 0.50066 0.0
C2831 C 0.16944 0.34696 0.58892 0.0
C2832 C 0.15263 0.34795 0.60394 0.0
C2833 C 0.17059 0.32911 0.57573 0.0
C2834 C 0.15508 0.31194 0.57764 0.0
C2835 C 0.13701 0.314 0.59112 0.0
C2836 C 0.13604 0.33169 0.6045 0.0
C2837 C 0.16004 0.29079 0.5687 0.0
C2838 C 0.16431 0.28867 0.54713 0.0
C2839 C 0.16231 0.27307 0.58185 0.0
C2840 C 0.15972 0.27458 0.60495 0.0
C2841 C 0.14356 0.26181 0.61528 0.0
C2842 C 0.14087 0.26348 0.63703 0.0
C2843 C 0.15434 0.27779 0.64861 0.0
C2844 C 0.17062 0.29037 0.63848 0.0
C2845 C 0.17342 0.28871 0.61675 0.0
H2846 H 0.15219 0.27909 0.66544 0.0
H2847 H 0.19275 0.26674 0.45665 0.0
H2848 H 0.08023 0.97688 0.78049 0.0
H2849 H 0.04488 0.96134 0.79263 0.0
H2850 H 0.01497 0.98097 0.73567 0.0
H2851 H 0.05034 0.99608 0.72323 0.0
H2852 H 0.99675 0.99772 0.77123 0.0
H2853 H 0.01225 0.93098 0.74419 0.0
H2854 H 0.03017 0.89777 0.73584 0.0
H2855 H 0.02998 0.88199 0.80113 0.0
H2856 H 0.0123 0.91524 0.80994 0.0
H2857 H 0.90565 0.92484 0.82831 0.0
H2858 H 0.93228 0.93105 0.80006 0.0
H2859 H 0.96247 0.98368 0.83489 0.0
H2860 H 0.93691 0.97653 0.8639 0.0
H2861 H 0.97521 0.9277 0.80206 0.0
H2862 H 0.98453 0.02027 0.80313 0.0
H2863 H 0.96099 0.05064 0.80714 0.0
H2864 H 0.90588 0.0118 0.78536 0.0
H2865 H 0.92911 0.98122 0.78111 0.0
C2866 C 0.06625 0.97726 0.77028 0.0
C2867 C 0.06801 0.98776 0.75097 0.0
C2868 C 0.04609 0.9683 0.77718 0.0
C2869 C 0.02731 0.96998 0.76503 0.0
C2870 C 0.02929 0.97938 0.74521 0.0
C2871 C 0.04953 0.98798 0.73812 0.0
C2872 C 0.00543 0.96527 0.77457 0.0
C2873 C 0.99187 0.98232 0.77768 0.0
C2874 C -0.00104 0.94507 0.7827 0.0
C2875 C 0.01117 0.92583 0.77776 0.0
C2876 C 0.01643 0.92068 0.75684 0.0
C2877 C 0.0264 0.90174 0.752 0.0
C2878 C 0.03126 0.88781 0.76795 0.0
C2879 C 0.02623 0.89282 0.78878 0.0
C2880 C 0.0162 0.91171 0.79371 0.0
C2881 C 0.91756 0.93812 0.82967 0.0
C2882 C 0.91935 0.95009 0.84835 0.0
C2883 C 0.93276 0.94169 0.81343 0.0
C2884 C 0.94917 0.95805 0.8151 0.0
C2885 C 0.94979 0.97114 0.83308 0.0
C2886 C 0.93513 0.96709 0.84963 0.0
C2887 C 0.96697 0.96033 0.79918 0.0
C2888 C 0.97992 0.94296 0.79519 0.0
C2889 C 0.97256 0.98003 0.78962 0.0
C2890 C 0.95855 0.99842 0.79195 0.0
C2891 C 0.96741 0.01823 0.79914 0.0
C2892 C 0.9541 0.03546 0.80152 0.0
C2893 C 0.93194 0.03314 0.79656 0.0
C2894 C 0.92303 0.01356 0.78925 0.0
C2895 C 0.93625 0.99625 0.78692 0.0
H2896 H 0.92169 0.04652 0.79835 0.0
H2897 H 0.03887 0.8731 0.76415 0.0
H2898 H 0.69552 0.36778 0.50124 0.0
H2899 H 0.68045 0.33356 0.4878 0.0
H2900 H 0.73267 0.33232 0.44192 0.0
H2901 H 0.74769 0.36664 0.45511 0.0
H2902 H 0.69405 0.31894 0.42533 0.0
H2903 H 0.73477 0.3053 0.48743 0.0
H2904 H 0.74438 0.30907 0.5248 0.0
H2905 H 0.67993 0.28515 0.54252 0.0
H2906 H 0.66981 0.28153 0.50528 0.0
H2907 H 0.68808 0.21266 0.39532 0.0
H2908 H 0.70333 0.24414 0.41394 0.0
H2909 H 0.64542 0.24486 0.45279 0.0
H2910 H 0.63038 0.21269 0.43477 0.0
H2911 H 0.6859 0.25803 0.47402 0.0
H2912 H 0.64482 0.27264 0.41233 0.0
H2913 H 0.63517 0.26818 0.37505 0.0
H2914 H 0.7002 0.28994 0.3569 0.0
H2915 H 0.71035 0.29419 0.39412 0.0
C2916 C 0.70359 0.36038 0.48806 0.0
C2917 C 0.72282 0.36983 0.47925 0.0
C2918 C 0.69506 0.34076 0.48053 0.0
C2919 C 0.70569 0.33024 0.46415 0.0
C2920 C 0.72429 0.34014 0.45467 0.0
C2921 C 0.73282 0.35976 0.46218 0.0
C2922 C 0.69777 0.30871 0.45714 0.0
C2923 C 0.69246 0.3056 0.43596 0.0
C2924 C 0.69527 0.2914 0.47113 0.0
C2925 C 0.70143 0.29344 0.49354 0.0
C2926 C 0.72257 0.30104 0.49929 0.0
C2927 C 0.72813 0.30311 0.52046 0.0
C2928 C 0.71273 0.29746 0.53601 0.0
C2929 C 0.69181 0.2896 0.53045 0.0
C2930 C 0.68616 0.28752 0.50932 0.0
C2931 C 0.67896 0.21909 0.40838 0.0
C2932 C 0.65802 0.21042 0.41361 0.0
C2933 C 0.68764 0.23706 0.41893 0.0
C2934 C 0.67535 0.24684 0.4346 0.0
C2935 C 0.65519 0.23727 0.44097 0.0
C2936 C 0.64662 0.21898 0.43064 0.0
C2937 C 0.6823 0.26836 0.44229 0.0
C2938 C 0.68738 0.27144 0.46351 0.0
C2939 C 0.68456 0.28571 0.4284 0.0
C2940 C 0.6784 0.28355 0.40601 0.0
C2941 C 0.65711 0.27633 0.40039 0.0
C2942 C 0.65155 0.27385 0.37927 0.0
C2943 C 0.66708 0.27873 0.36361 0.0
C2944 C 0.6882 0.28615 0.36905 0.0
C2945 C 0.69386 0.28861 0.39015 0.0
H2946 H 0.66275 0.27679 0.34727 0.0
H2947 H 0.717 0.29915 0.55238 0.0
H2948 H 0.91422 0.45457 0.74182 0.0
H2949 H 0.94668 0.43592 0.73101 0.0
H2950 H 0.9561 0.47809 0.67847 0.0
H2951 H 0.92361 0.49643 0.68893 0.0
H2952 H 0.9652 0.43905 0.6671 0.0
H2953 H 0.98283 0.48687 0.72583 0.0
H2954 H 0.97883 0.49999 0.76223 0.0
H2955 H 0.99468 0.43901 0.78542 0.0
H2956 H 0.99849 0.42546 0.74914 0.0
H2957 H 0.08213 0.46407 0.66142 0.0
H2958 H 0.05053 0.46373 0.68517 0.0
H2959 H 0.03348 0.39877 0.66697 0.0
H2960 H 0.06501 0.39924 0.643 0.0
H2961 H 0.02699 0.44138 0.71692 0.0
H2962 H 0.98177 0.39891 0.64986 0.0
H2963 H 0.98742 0.38982 0.61246 0.0
H2964 H 0.02853 0.44669 0.60469 0.0
H2965 H 0.02285 0.45622 0.64193 0.0
C2966 C 0.92298 0.45957 0.72773 0.0
C2967 C 0.91642 0.47703 0.71627 0.0
C2968 C 0.9416 0.44898 0.72165 0.0
C2969 C 0.95403 0.4558 0.70411 0.0
C2970 C 0.9468 0.47252 0.69207 0.0
C2971 C 0.92821 0.48303 0.69808 0.0
C2972 C 0.97524 0.44659 0.69872 0.0
C2973 C 0.97855 0.43921 0.67815 0.0
C2974 C 0.99281 0.44688 0.71304 0.0
C2975 C 0.99067 0.45509 0.73481 0.0
C2976 C 0.98531 0.47623 0.7387 0.0
C2977 C 0.9831 0.48375 0.7593 0.0
C2978 C 0.98643 0.47032 0.77612 0.0
C2979 C 0.99205 0.44938 0.77237 0.0
C2980 C 0.99424 0.44177 0.7518 0.0
C2981 C 0.07235 0.44936 0.66344 0.0
C2982 C 0.07612 0.4316 0.65071 0.0
C2983 C 0.05426 0.44916 0.67699 0.0
C2984 C 0.03947 0.43134 0.67758 0.0
C2985 C 0.04465 0.41271 0.66667 0.0
C2986 C 0.06279 0.41292 0.65313 0.0
C2987 C 0.01687 0.43415 0.6853 0.0
C2988 C 0.01335 0.44045 0.70619 0.0
C2989 C -0.00085 0.43335 0.6712 0.0
C2990 C 0.00207 0.42812 0.64866 0.0
C2991 C 0.99192 0.40949 0.64011 0.0
C2992 C 0.99514 0.40427 0.61896 0.0
C2993 C 0.00839 0.41763 0.60623 0.0
C2994 C 0.01832 0.43633 0.61458 0.0
C2995 C 0.0151 0.44165 0.63569 0.0
H2996 H 0.01092 0.41352 0.58988 0.0
H2997 H 0.98471 0.47617 0.79205 0.0
H2998 H 0.59725 0.59569 0.20232 0.0
H2999 H 0.56608 0.61545 0.19209 0.0
H3000 H 0.56118 0.64129 0.25485 0.0
H3001 H 0.59239 0.62128 0.26528 0.0
H3002 H 0.52341 0.62337 0.24344 0.0
H3003 H 0.57204 0.67492 0.21384 0.0
H3004 H 0.60397 0.68963 0.19393 0.0
H3005 H 0.57804 0.66137 0.13723 0.0
H3006 H 0.5461 0.64621 0.15682 0.0
H3007 H 0.45053 0.67279 0.15517 0.0
H3008 H 0.4781 0.67685 0.18261 0.0
H3009 H 0.47123 0.60938 0.19386 0.0
H3010 H 0.44332 0.60564 0.16679 0.0
H3011 H 0.51458 0.66117 0.17664 0.0
H3012 H 0.49371 0.59665 0.24192 0.0
H3013 H 0.46258 0.58515 0.2645 0.0
H3014 H 0.43211 0.64362 0.25311 0.0
H3015 H 0.46341 0.65585 0.23093 0.0
C3016 C 0.58999 0.60609 0.21379 0.0
C3017 C 0.5972 0.60684 0.23462 0.0
C3018 C 0.57217 0.61746 0.20791 0.0
C3019 C 0.56126 0.6299 0.22271 0.0
C3020 C 0.56933 0.63179 0.24319 0.0
C3021 C 0.58726 0.62045 0.24908 0.0
C3022 C 0.53998 0.63846 0.21722 0.0
C3023 C 0.52136 0.6318 0.22894 0.0
C3024 C 0.53748 0.65029 0.19882 0.0
C3025 C 0.55666 0.65938 0.18685 0.0
C3026 C 0.5732 0.67173 0.19715 0.0
C3027 C 0.5913 0.68016 0.18591 0.0
C3028 C 0.59304 0.67643 0.16433 0.0
C3029 C 0.57666 0.66427 0.15394 0.0
C3030 C 0.55852 0.65578 0.1651 0.0
C3031 C 0.45374 0.65923 0.16469 0.0
C3032 C 0.44427 0.63913 0.15955 0.0
C3033 C 0.46978 0.66144 0.18009 0.0
C3034 C 0.4767 0.64349 0.19049 0.0
C3035 C 0.46592 0.62358 0.18647 0.0
C3036 C 0.44992 0.62142 0.17101 0.0
C3037 C 0.49772 0.64462 0.20201 0.0
C3038 C 0.51639 0.65313 0.19141 0.0
C3039 C 0.50016 0.63472 0.22162 0.0
C3040 C 0.48101 0.62722 0.23465 0.0
C3041 C 0.4805 0.6072 0.24432 0.0
C3042 C 0.46281 0.60054 0.25709 0.0
C3043 C 0.4454 0.61368 0.26027 0.0
C3044 C 0.44564 0.63349 0.25065 0.0
C3045 C 0.46337 0.64031 0.23799 0.0
H3046 H 0.43173 0.6085 0.27018 0.0
H3047 H 0.60707 0.68298 0.15566 0.0
H3048 H 0.55089 0.78851 0.82467 0.0
H3049 H 0.56324 0.77539 0.7906 0.0
H3050 H 0.50479 0.73434 0.7858 0.0
H3051 H 0.49216 0.74756 0.81993 0.0
H3052 H 0.54302 0.71514 0.77214 0.0
H3053 H 0.50526 0.77662 0.76089 0.0
H3054 H 0.49484 0.81325 0.76765 0.0
H3055 H 0.55859 0.83725 0.74786 0.0
H3056 H 0.56986 0.8006 0.74207 0.0
H3057 H 0.58202 0.69464 0.6696 0.0
H3058 H 0.55433 0.70799 0.69381 0.0
H3059 H 0.602 0.75458 0.71821 0.0
H3060 H 0.62957 0.7413 0.69428 0.0
H3061 H 0.55951 0.76956 0.71768 0.0
H3062 H 0.59757 0.7063 0.73921 0.0
H3063 H 0.60733 0.66897 0.73478 0.0
H3064 H 0.53924 0.64874 0.73395 0.0
H3065 H 0.52918 0.68587 0.7381 0.0
C3066 C 0.54083 0.77641 0.81657 0.0
C3067 C 0.52051 0.76913 0.8249 0.0
C3068 C 0.54783 0.76905 0.79705 0.0
C3069 C 0.5347 0.75423 0.78557 0.0
C3070 C 0.51504 0.74591 0.79439 0.0
C3071 C 0.5079 0.75343 0.81388 0.0
C3072 C 0.5414 0.74811 0.76408 0.0
C3073 C 0.54613 0.72693 0.76005 0.0
C3074 C 0.54525 0.76353 0.74829 0.0
C3075 C 0.53849 0.78575 0.7512 0.0
C3076 C 0.51718 0.78966 0.75817 0.0
C3077 C 0.51109 0.81046 0.76183 0.0
C3078 C 0.52598 0.82761 0.75806 0.0
C3079 C 0.54705 0.82395 0.75074 0.0
C3080 C 0.55333 0.80313 0.74735 0.0
C3081 C 0.58631 0.70823 0.67961 0.0
C3082 C 0.60795 0.71683 0.68028 0.0
C3083 C 0.57053 0.71578 0.69346 0.0
C3084 C 0.57623 0.73211 0.70796 0.0
C3085 C 0.59727 0.74199 0.70716 0.0
C3086 C 0.61304 0.73432 0.69356 0.0
C3087 C 0.56189 0.73676 0.7261 0.0
C3088 C 0.55577 0.7577 0.72956 0.0
C3089 C 0.55646 0.7211 0.74131 0.0
C3090 C 0.56263 0.69881 0.73875 0.0
C3091 C 0.58472 0.69386 0.73793 0.0
C3092 C 0.59031 0.67273 0.73549 0.0
C3093 C 0.57395 0.65645 0.7341 0.0
C3094 C 0.55196 0.66127 0.73505 0.0
C3095 C 0.54629 0.68236 0.73743 0.0
H3096 H 0.57834 0.64011 0.73239 0.0
H3097 H 0.52119 0.84372 0.76083 0.0
H3098 H 0.55117 0.25801 0.0907 0.0
H3099 H 0.56936 0.26582 0.05705 0.0
H3100 H 0.5491 0.33033 0.06104 0.0
H3101 H 0.53122 0.32274 0.09471 0.0
H3102 H 0.55124 0.27658 0.02135 0.0
H3103 H 0.58482 0.36363 0.03658 0.0
H3104 H 0.60113 0.38527 0.06549 0.0
H3105 H 0.62291 0.32889 0.09407 0.0
H3106 H 0.60701 0.30694 0.0652 0.0
H3107 H 0.55859 0.34293 0.93207 0.0
H3108 H 0.55245 0.32078 0.96305 0.0
H3109 H 0.62141 0.32686 0.97635 0.0
H3110 H 0.62698 0.34997 0.94627 0.0
H3111 H 0.60117 0.33966 0.00783 0.0
H3112 H 0.59286 0.27458 0.9688 0.0
H3113 H 0.57973 0.24977 0.94084 0.0
H3114 H 0.51341 0.25712 0.96091 0.0
H3115 H 0.52618 0.28237 0.98865 0.0
C3116 C 0.55101 0.27398 0.08461 0.0
C3117 C 0.53982 0.28979 0.09537 0.0
C3118 C 0.56127 0.27837 0.06531 0.0
C3119 C 0.56067 0.29867 0.05654 0.0
C3120 C 0.55008 0.31464 0.06762 0.0
C3121 C 0.53983 0.31027 0.08687 0.0
C3122 C 0.56991 0.30298 0.03529 0.0
C3123 C 0.56232 0.29027 0.01836 0.0
C3124 C 0.58475 0.32051 0.03144 0.0
C3125 C 0.59457 0.33363 0.04878 0.0
C3126 C 0.59318 0.35586 0.04897 0.0
C3127 C 0.60234 0.36818 0.06537 0.0
C3128 C 0.613 0.35845 0.08163 0.0
C3129 C 0.61458 0.33639 0.0815 0.0
C3130 C 0.60547 0.32401 0.06514 0.0
C3131 C 0.57254 0.33863 0.94107 0.0
C3132 C 0.59352 0.34746 0.93625 0.0
C3133 C 0.56904 0.32593 0.95881 0.0
C3134 C 0.58648 0.32192 0.9721 0.0
C3135 C 0.60767 0.32951 0.96635 0.0
C3136 C 0.61107 0.34228 0.94873 0.0
C3137 C 0.58213 0.31356 0.9936 0.0
C3138 C 0.59046 0.32568 0.01069 0.0
C3139 C 0.56836 0.29521 0.99758 0.0
C3140 C 0.56048 0.28063 0.98053 0.0
C3141 C 0.57547 0.27117 0.96699 0.0
C3142 C 0.56809 0.25697 0.95125 0.0
C3143 C 0.54573 0.25194 0.94904 0.0
C3144 C 0.53071 0.26111 0.96258 0.0
C3145 C 0.53802 0.27538 0.97829 0.0
H3146 H 0.54005 0.24088 0.9369 0.0
H3147 H 0.62007 0.36802 0.09432 0.0
H3148 H 0.02283 0.34815 0.30632 0.0
H3149 H 0.00838 0.36414 0.27496 0.0
H3150 H 0.94703 0.37199 0.30727 0.0
H3151 H 0.96114 0.35528 0.3383 0.0
H3152 H 0.9401 0.34946 0.27455 0.0
H3153 H 0.97972 0.41437 0.28822 0.0
H3154 H 0.01015 0.4405 0.2955 0.0
H3155 H 0.041 0.42426 0.23716 0.0
H3156 H 0.01102 0.39762 0.22972 0.0
H3157 H 0.90021 0.41864 0.19112 0.0
H3158 H 0.92838 0.41494 0.21741 0.0
H3159 H 0.93408 0.34943 0.19843 0.0
H3160 H 0.90585 0.35324 0.17196 0.0
H3161 H 0.97075 0.40135 0.22275 0.0
H3162 H 0.92881 0.32055 0.24257 0.0
H3163 H 0.89372 0.30032 0.23666 0.0
H3164 H 0.86084 0.3587 0.23338 0.0
H3165 H 0.89566 0.37922 0.23959 0.0
C3166 C 0.0065 0.35393 0.30693 0.0
C3167 C 0.99296 0.3502 0.32461 0.0
C3168 C 0.99827 0.36314 0.28899 0.0
C3169 C 0.97652 0.36907 0.28863 0.0
C3170 C 0.96379 0.36731 0.30708 0.0
C3171 C 0.97186 0.3578 0.32483 0.0
C3172 C 0.96585 0.37345 0.26843 0.0
C3173 C 0.9468 0.36107 0.26345 0.0
C3174 C 0.97455 0.38844 0.25371 0.0
C3175 C 0.9933 0.40357 0.25864 0.0
C3176 C 0.99323 0.41597 0.27715 0.0
C3177 C 0.01036 0.43096 0.28127 0.0
C3178 C 0.02763 0.43384 0.26693 0.0
C3179 C 0.02773 0.42184 0.24836 0.0
C3180 C 0.01067 0.40677 0.2442 0.0
C3181 C 0.9084 0.40386 0.19175 0.0
C3182 C 0.90139 0.38637 0.17924 0.0
C3183 C 0.92436 0.40168 0.2069 0.0
C3184 C 0.93318 0.38187 0.20997 0.0
C3185 C 0.92743 0.36485 0.1963 0.0
C3186 C 0.91139 0.36701 0.1812 0.0
C3187 C 0.94487 0.37807 0.22964 0.0
C3188 C 0.96419 0.39009 0.23423 0.0
C3189 C 0.93594 0.36358 0.24458 0.0
C3190 C 0.91485 0.35138 0.24129 0.0
C3191 C 0.91406 0.32903 0.24066 0.0
C3192 C 0.89423 0.31753 0.23726 0.0
C3193 C 0.87507 0.32822 0.23457 0.0
C3194 C 0.87569 0.35044 0.23539 0.0
C3195 C 0.89547 0.36201 0.23885 0.0
H3196 H 0.85975 0.31928 0.2319 0.0
H3197 H 0.04083 0.44553 0.2701 0.0
H3198 H 0.9607 0.79528 0.59716 0.0
H3199 H 0.94411 0.7885 0.56265 0.0
H3200 H 0.97565 0.72906 0.55781 0.0
H3201 H 0.99183 0.7354 0.59237 0.0
H3202 H 0.98187 0.76273 0.52218 0.0
H3203 H 0.92793 0.71932 0.56421 0.0
H3204 H 0.90168 0.71614 0.59379 0.0
H3205 H 0.86731 0.76821 0.57014 0.0
H3206 H 0.89334 0.77163 0.54027 0.0
H3207 H 0.94757 0.68516 0.45072 0.0
H3208 H 0.9589 0.7092 0.47912 0.0
H3209 H 0.90187 0.74526 0.47 0.0
H3210 H 0.89002 0.7204 0.44184 0.0
H3211 H 0.90554 0.73534 0.51002 0.0
H3212 H 0.95353 0.76558 0.45935 0.0
H3213 H 0.97995 0.76568 0.43 0.0
H3214 H 0.02785 0.7403 0.46987 0.0
H3215 H 0.00143 0.73897 0.49921 0.0
C3216 C 0.96372 0.78057 0.5889 0.0
C3217 C 0.97749 0.76582 0.59746 0.0
C3218 C 0.95435 0.77681 0.56919 0.0
C3219 C 0.95894 0.75844 0.5577 0.0
C3220 C 0.97211 0.74341 0.56647 0.0
C3221 C 0.98114 0.74696 0.58628 0.0
C3222 C 0.95051 0.75485 0.53627 0.0
C3223 C 0.96522 0.75676 0.51933 0.0
C3224 C 0.92855 0.74811 0.53269 0.0
C3225 C 0.91259 0.7458 0.55017 0.0
C3226 C 0.91477 0.73009 0.56535 0.0
C3227 C 0.89992 0.72822 0.5821 0.0
C3228 C 0.88282 0.74197 0.58379 0.0
C3229 C 0.8805 0.75755 0.56869 0.0
C3230 C 0.89525 0.75943 0.55183 0.0
C3231 C 0.93769 0.6985 0.4544 0.0
C3232 C 0.91801 0.70107 0.44391 0.0
C3233 C 0.94425 0.71235 0.4706 0.0
C3234 C 0.93141 0.72925 0.47658 0.0
C3235 C 0.91215 0.73244 0.46554 0.0
C3236 C 0.90554 0.71845 0.44925 0.0
C3237 C 0.93728 0.74189 0.49573 0.0
C3238 C 0.92208 0.7419 0.5124 0.0
C3239 C 0.95891 0.75044 0.49898 0.0
C3240 C 0.97531 0.75204 0.48156 0.0
C3241 C 0.9696 0.75979 0.46186 0.0
C3242 C 0.98456 0.75994 0.44515 0.0
C3243 C 0.00554 0.75295 0.44805 0.0
C3244 C 0.01159 0.74573 0.46765 0.0
C3245 C 0.99657 0.74519 0.48432 0.0
H3246 H 0.0171 0.75315 0.43511 0.0
H3247 H 0.87137 0.74055 0.59681 0.0
H3248 H 0.46934 0.32177 0.69527 0.0
H3249 H 0.4807 0.33196 0.73084 0.0
H3250 H 0.54656 0.34537 0.70845 0.0
H3251 H 0.53547 0.3346 0.67283 0.0
H3252 H 0.51547 0.31011 0.75189 0.0
H3253 H 0.56401 0.39125 0.74058 0.0
H3254 H 0.56216 0.42373 0.71961 0.0
H3255 H 0.49313 0.41123 0.71191 0.0
H3256 H 0.49449 0.37886 0.73304 0.0
H3257 H 0.60496 0.33234 0.81795 0.0
H3258 H 0.57829 0.32619 0.79035 0.0
H3259 H 0.53751 0.37245 0.81885 0.0
H3260 H 0.56419 0.37852 0.84705 0.0
H3261 H 0.5472 0.38014 0.77636 0.0
H3262 H 0.52009 0.32204 0.81831 0.0
H3263 H 0.52419 0.29044 0.84008 0.0
H3264 H 0.54996 0.25698 0.78706 0.0
H3265 H 0.54656 0.28852 0.76509 0.0
C3266 C 0.48617 0.32729 0.69781 0.0
C3267 C 0.50155 0.32738 0.68124 0.0
C3268 C 0.49261 0.333 0.71817 0.0
C3269 C 0.51443 0.33941 0.72224 0.0
C3270 C 0.52961 0.34058 0.70557 0.0
C3271 C 0.52326 0.33444 0.68525 0.0
C3272 C 0.52184 0.34305 0.7441 0.0
C3273 C 0.52222 0.32545 0.75736 0.0
C3274 C 0.53035 0.36314 0.75123 0.0
C3275 C 0.52943 0.38245 0.73822 0.0
C3276 C 0.54843 0.39543 0.73443 0.0
C3277 C 0.54747 0.41384 0.72251 0.0
C3278 C 0.52756 0.4195 0.71437 0.0
C3279 C 0.50857 0.40677 0.71813 0.0
C3280 C 0.50945 0.38834 0.73002 0.0
C3281 C 0.59014 0.34096 0.8187 0.0
C3282 C 0.58701 0.35635 0.83451 0.0
C3283 C 0.57485 0.33737 0.80286 0.0
C3284 C 0.55599 0.34898 0.80243 0.0
C3285 C 0.55208 0.36346 0.81882 0.0
C3286 C 0.56733 0.36689 0.83492 0.0
C3287 C 0.54159 0.34703 0.78386 0.0
C3288 C 0.54005 0.36488 0.7711 0.0
C3289 C 0.5321 0.32713 0.77713 0.0
C3290 C 0.53321 0.30776 0.79007 0.0
C3291 C 0.52675 0.30799 0.81131 0.0
C3292 C 0.52903 0.29011 0.82371 0.0
C3293 C 0.53752 0.27179 0.81499 0.0
C3294 C 0.5435 0.27122 0.79381 0.0
C3295 C 0.54138 0.2891 0.78137 0.0
H3296 H 0.53932 0.25797 0.82463 0.0
H3297 H 0.52684 0.43378 0.70517 0.0
H3298 H 0.01288 0.32861 0.95204 0.0
H3299 H 0.99821 0.33868 0.98622 0.0
H3300 H 0.94521 0.2913 0.97932 0.0
H3301 H 0.95991 0.28104 0.94484 0.0
H3302 H 0.93173 0.33131 0.99104 0.0
H3303 H 0.97813 0.28205 0.03249 0.0
H3304 H 0.0124 0.26505 0.04063 0.0
H3305 H 0.04891 0.32429 0.03058 0.0
H3306 H 0.01471 0.34176 0.02322 0.0
H3307 H 0.90015 0.36809 0.09551 0.0
H3308 H 0.90939 0.34237 0.0678 0.0
H3309 H 0.96976 0.3788 0.05559 0.0
H3310 H 0.96034 0.40466 0.08242 0.0
H3311 H 0.97498 0.33564 0.05633 0.0
H3312 H 0.92582 0.38535 0.02781 0.0
H3313 H 0.89166 0.40304 0.02156 0.0
H3314 H 0.85948 0.34299 0.00492 0.0
H3315 H 0.89333 0.32485 0.01162 0.0
C3316 C 0.99811 0.32027 0.95776 0.0
C3317 C 0.98749 0.30409 0.94564 0.0
C3318 C 0.98994 0.32581 0.97751 0.0
C3319 C 0.97093 0.31536 0.98565 0.0
C3320 C 0.96009 0.29936 0.9735 0.0
C3321 C 0.96841 0.29363 0.95375 0.0
C3322 C 0.9614 0.32288 0.00579 0.0
C3323 C 0.94088 0.33177 0.00552 0.0
C3324 C 0.97337 0.32372 0.0246 0.0
C3325 C 0.99404 0.31302 0.02685 0.0
C3326 C 0.99352 0.29135 0.03182 0.0
C3327 C 0.01287 0.28172 0.03659 0.0
C3328 C 0.03282 0.29357 0.03607 0.0
C3329 C 0.03345 0.31511 0.03091 0.0
C3330 C 0.0141 0.3249 0.02656 0.0
C3331 C 0.91551 0.37039 0.08708 0.0
C3332 C 0.92936 0.38859 0.09091 0.0
C3333 C 0.9207 0.35577 0.07119 0.0
C3334 C 0.94011 0.35887 0.0594 0.0
C3335 C 0.95463 0.37615 0.06436 0.0
C3336 C 0.94925 0.39091 0.07978 0.0
C3337 C 0.94558 0.34476 0.04146 0.0
C3338 C 0.96538 0.33462 0.04211 0.0
C3339 C 0.93284 0.34288 0.02304 0.0
C3340 C 0.91204 0.35364 0.02068 0.0
C3341 C 0.91136 0.37582 0.0233 0.0
C3342 C 0.89208 0.38597 0.01949 0.0
C3343 C 0.87344 0.37417 0.01273 0.0
C3344 C 0.87396 0.35214 0.01002 0.0
C3345 C 0.89315 0.3419 0.01398 0.0
H3346 H 0.85856 0.38207 0.00973 0.0
H3347 H 0.04779 0.28604 0.03961 0.0
H3348 H 0.95415 0.76662 0.18946 0.0
H3349 H 0.95034 0.75005 0.22386 0.0
H3350 H 0.96384 0.68923 0.1963 0.0
H3351 H 0.96851 0.70591 0.16171 0.0
H3352 H 0.92561 0.69125 0.22647 0.0
H3353 H 0.00078 0.70731 0.21903 0.0
H3354 H 0.03491 0.72805 0.2109 0.0
H3355 H 0.02267 0.77103 0.26189 0.0
H3356 H 0.98805 0.75093 0.27002 0.0
H3357 H 0.91742 0.65876 0.33115 0.0
H3358 H 0.93876 0.66186 0.29848 0.0
H3359 H 0.93736 0.73022 0.30268 0.0
H3360 H 0.91627 0.7271 0.33544 0.0
H3361 H 0.97655 0.71532 0.28304 0.0
H3362 H 0.89622 0.7046 0.28038 0.0
H3363 H 0.86207 0.68371 0.28879 0.0
H3364 H 0.88651 0.62924 0.25692 0.0
H3365 H 0.92096 0.64977 0.24862 0.0
C3366 C 0.95593 0.74964 0.19061 0.0
C3367 C 0.96145 0.73749 0.17288 0.0
C3368 C 0.95399 0.74027 0.21031 0.0
C3369 C 0.9571 0.71853 0.21259 0.0
C3370 C 0.96154 0.70608 0.1948 0.0
C3371 C 0.96407 0.71558 0.1751 0.0
C3372 C 0.95557 0.70911 0.23374 0.0
C3373 C 0.93706 0.69606 0.23872 0.0
C3374 C 0.97058 0.71545 0.24968 0.0
C3375 C 0.99141 0.72781 0.24485 0.0
C3376 C 0.00504 0.72144 0.22826 0.0
C3377 C 0.02457 0.73304 0.22371 0.0
C3378 C 0.03088 0.75092 0.2358 0.0
C3379 C 0.01768 0.75723 0.25248 0.0
C3380 C 0.99806 0.74574 0.25704 0.0
C3381 C 0.92272 0.67443 0.32567 0.0
C3382 C 0.91559 0.69272 0.3359 0.0
C3383 C 0.93472 0.67619 0.30692 0.0
C3384 C 0.93948 0.69627 0.29809 0.0
C3385 C 0.93399 0.71459 0.3093 0.0
C3386 C 0.92192 0.71282 0.32795 0.0
C3387 C 0.94616 0.69832 0.27577 0.0
C3388 C 0.96554 0.71005 0.2706 0.0
C3389 C 0.93207 0.69074 0.25956 0.0
C3390 C 0.91119 0.67861 0.26407 0.0
C3391 C 0.89432 0.68814 0.27526 0.0
C3392 C 0.87493 0.67637 0.28001 0.0
C3393 C 0.87214 0.65514 0.27344 0.0
C3394 C 0.88871 0.64567 0.26203 0.0
C3395 C 0.90817 0.65736 0.2573 0.0
H3396 H 0.85713 0.64605 0.27715 0.0
H3397 H 0.04606 0.75983 0.23231 0.0
H3398 H 0.58392 0.78903 0.43175 0.0
H3399 H 0.60423 0.78077 0.46331 0.0
H3400 H 0.56406 0.72281 0.47047 0.0
H3401 H 0.54417 0.73071 0.4389 0.0
H3402 H 0.59139 0.77704 0.5026 0.0
H3403 H 0.5906 0.68472 0.4914 0.0
H3404 H 0.59425 0.65874 0.4625 0.0
H3405 H 0.62926 0.70619 0.42559 0.0
H3406 H 0.62611 0.73239 0.45438 0.0
H3407 H 0.57925 0.7141 0.59234 0.0
H3408 H 0.58148 0.73728 0.56192 0.0
H3409 H 0.64386 0.71293 0.545 0.0
H3410 H 0.64081 0.68894 0.57494 0.0
H3411 H 0.61767 0.70526 0.51525 0.0
H3412 H 0.6364 0.76576 0.55382 0.0
H3413 H 0.63818 0.79441 0.58047 0.0
H3414 H 0.57504 0.81341 0.56196 0.0
H3415 H 0.57288 0.78471 0.53539 0.0
C3416 C 0.57972 0.77434 0.43987 0.0
C3417 C 0.56256 0.76042 0.43275 0.0
C3418 C 0.59124 0.76971 0.45796 0.0
C3419 C 0.58586 0.75106 0.46917 0.0
C3420 C 0.56887 0.73708 0.46188 0.0
C3421 C 0.55745 0.74163 0.44382 0.0
C3422 C 0.59713 0.74639 0.48898 0.0
C3423 C 0.59723 0.7614 0.50548 0.0
C3424 C 0.60579 0.72636 0.49234 0.0
C3425 C 0.60802 0.71056 0.47504 0.0
C3426 C 0.59921 0.68959 0.47718 0.0
C3427 C 0.60116 0.67482 0.4608 0.0
C3428 C 0.61195 0.68082 0.4422 0.0
C3429 C 0.62086 0.70158 0.43998 0.0
C3430 C 0.61897 0.71641 0.45631 0.0
C3431 C 0.594 0.71465 0.58279 0.0
C3432 C 0.6103 0.70035 0.58632 0.0
C3433 C 0.59527 0.72788 0.56532 0.0
C3434 C 0.61283 0.72688 0.55103 0.0
C3435 C 0.63018 0.71407 0.55579 0.0
C3436 C 0.62877 0.70074 0.57319 0.0
C3437 C 0.61067 0.73543 0.52951 0.0
C3438 C 0.61222 0.72109 0.51256 0.0
C3439 C 0.60405 0.75627 0.52574 0.0
C3440 C 0.60458 0.773 0.54248 0.0
C3441 C 0.62285 0.77592 0.55554 0.0
C3442 C 0.62393 0.79221 0.57064 0.0
C3443 C 0.60673 0.80575 0.57291 0.0
C3444 C 0.5884 0.80295 0.56015 0.0
C3445 C 0.58729 0.78667 0.54501 0.0
H3446 H 0.60761 0.81841 0.58456 0.0
H3447 H 0.61342 0.66937 0.42953 0.0
H3448 H 0.82307 0.52409 0.68481 0.0
H3449 H 0.79213 0.54009 0.66829 0.0
H3450 H 0.80295 0.59633 0.70693 0.0
H3451 H 0.83403 0.58061 0.7232 0.0
H3452 H 0.75484 0.55096 0.68559 0.0
H3453 H 0.78796 0.63953 0.68243 0.0
H3454 H 0.82285 0.65971 0.67542 0.0
H3455 H 0.84582 0.60698 0.63969 0.0
H3456 H 0.81096 0.58659 0.64623 0.0
H3457 H 0.67751 0.63004 0.69854 0.0
H3458 H 0.70478 0.60302 0.69788 0.0
H3459 H 0.7228 0.62049 0.63456 0.0
H3460 H 0.69587 0.64788 0.63562 0.0
H3461 H 0.75673 0.62463 0.65884 0.0
H3462 H 0.70197 0.5726 0.64663 0.0
H3463 H 0.66831 0.54957 0.64876 0.0
H3464 H 0.68792 0.52666 0.70841 0.0
H3465 H 0.72169 0.54963 0.70668 0.0
C3466 C 0.81909 0.54003 0.6895 0.0
C3467 C 0.83104 0.55112 0.70528 0.0
C3468 C 0.8013 0.54909 0.68014 0.0
C3469 C 0.79521 0.56945 0.68629 0.0
C3470 C 0.8075 0.58074 0.70167 0.0
C3471 C 0.82527 0.57172 0.711 0.0
C3472 C 0.77533 0.57855 0.67764 0.0
C3473 C 0.75515 0.56703 0.67966 0.0
C3474 C 0.77592 0.59921 0.66914 0.0
C3475 C 0.79687 0.61148 0.66495 0.0
C3476 C 0.8004 0.63228 0.67298 0.0
C3477 C 0.82019 0.64374 0.66911 0.0
C3478 C 0.83655 0.63461 0.65715 0.0
C3479 C 0.83315 0.61401 0.649 0.0
C3480 C 0.81339 0.60248 0.65281 0.0
C3481 C 0.68649 0.62725 0.68412 0.0
C3482 C 0.68407 0.64038 0.66678 0.0
C3483 C 0.70218 0.61191 0.68378 0.0
C3484 C 0.71591 0.60969 0.66617 0.0
C3485 C 0.71236 0.62181 0.64828 0.0
C3486 C 0.69662 0.6371 0.64866 0.0
C3487 C 0.73592 0.59745 0.66778 0.0
C3488 C 0.75624 0.60843 0.6645 0.0
C3489 C 0.73537 0.57612 0.6747 0.0
C3490 C 0.71454 0.56288 0.67642 0.0
C3491 C 0.69912 0.56272 0.66023 0.0
C3492 C 0.67999 0.54964 0.66137 0.0
C3493 C 0.67598 0.53662 0.6787 0.0
C3494 C 0.69108 0.53671 0.69495 0.0
C3495 C 0.71027 0.54974 0.69385 0.0
H3496 H 0.66116 0.52648 0.67956 0.0
H3497 H 0.85186 0.64352 0.65418 0.0
H3498 H 0.67379 0.59792 0.00117 0.0
H3499 H 0.66463 0.56242 0.98679 0.0
H3500 H 0.71754 0.57013 0.94193 0.0
H3501 H 0.72683 0.60573 0.95621 0.0
H3502 H 0.67747 0.54549 0.92736 0.0
H3503 H 0.72844 0.5514 0.98523 0.0
H3504 H 0.73755 0.56493 0.02064 0.0
H3505 H 0.68393 0.52673 0.04657 0.0
H3506 H 0.6738 0.51378 0.01116 0.0
H3507 H 0.67457 0.43622 0.9071 0.0
H3508 H 0.69326 0.47023 0.91697 0.0
H3509 H 0.65575 0.47107 0.97461 0.0
H3510 H 0.63741 0.43721 0.965 0.0
H3511 H 0.69276 0.49182 0.98093 0.0
H3512 H 0.63675 0.49157 0.9293 0.0
H3513 H 0.61843 0.48182 0.89605 0.0
H3514 H 0.67265 0.51024 0.86145 0.0
H3515 H 0.69156 0.51983 0.89448 0.0
C3516 C 0.68306 0.59235 0.98783 0.0
C3517 C 0.70125 0.60446 0.98004 0.0
C3518 C 0.6778 0.57206 0.97963 0.0
C3519 C 0.69068 0.56357 0.96357 0.0
C3520 C 0.70748 0.57641 0.95438 0.0
C3521 C 0.7128 0.59671 0.96261 0.0
C3522 C 0.68866 0.54049 0.95864 0.0
C3523 C 0.68122 0.5337 0.93886 0.0
C3524 C 0.69304 0.52524 0.97397 0.0
C3525 C 0.70019 0.53178 0.99544 0.0
C3526 C 0.71841 0.54606 0.99843 0.0
C3527 C 0.72367 0.55376 0.01851 0.0
C3528 C 0.71124 0.54681 0.03584 0.0
C3529 C 0.6935 0.53217 0.03311 0.0
C3530 C 0.68794 0.5247 0.01303 0.0
C3531 C 0.67097 0.44325 0.92223 0.0
C3532 C 0.65403 0.43439 0.93496 0.0
C3533 C 0.68154 0.46279 0.9278 0.0
C3534 C 0.67533 0.47361 0.94619 0.0
C3535 C 0.66064 0.46325 0.96022 0.0
C3536 C 0.65013 0.44382 0.95467 0.0
C3537 C 0.68136 0.49662 0.94956 0.0
C3538 C 0.68953 0.5035 0.96915 0.0
C3539 C 0.67688 0.512 0.93432 0.0
C3540 C 0.66571 0.50616 0.91437 0.0
C3541 C 0.64487 0.49558 0.91459 0.0
C3542 C 0.63437 0.49013 0.89578 0.0
C3543 C 0.64437 0.49547 0.87664 0.0
C3544 C 0.66492 0.50624 0.87629 0.0
C3545 C 0.67558 0.5116 0.89504 0.0
H3546 H 0.63624 0.49124 0.86208 0.0
H3547 H 0.71545 0.55259 0.05139 0.0
H3548 H 0.66443 0.52964 0.19222 0.0
H3549 H 0.69698 0.51614 0.175 0.0
H3550 H 0.73578 0.53675 0.2284 0.0
H3551 H 0.70381 0.55175 0.24459 0.0
H3552 H 0.76032 0.54129 0.19796 0.0
H3553 H 0.71219 0.48241 0.219 0.0
H3554 H 0.67782 0.46016 0.22053 0.0
H3555 H 0.68083 0.45009 0.15386 0.0
H3556 H 0.71511 0.47251 0.15192 0.0
H3557 H 0.83503 0.45537 0.19673 0.0
H3558 H 0.80555 0.4793 0.20487 0.0
H3559 H 0.78962 0.48097 0.13924 0.0
H3560 H 0.81938 0.4575 0.13108 0.0
H3561 H 0.75428 0.46689 0.17127 0.0
H3562 H 0.81028 0.52132 0.15593 0.0
H3563 H 0.84712 0.53789 0.16116 0.0
H3564 H 0.83073 0.55326 0.22494 0.0
H3565 H 0.79426 0.53534 0.22063 0.0
C3566 C 0.68004 0.53156 0.20001 0.0
C3567 C 0.68165 0.54169 0.21969 0.0
C3568 C 0.69862 0.52367 0.1903 0.0
C3569 C 0.7189 0.52484 0.20058 0.0
C3570 C 0.72049 0.53559 0.22 0.0
C3571 C 0.70215 0.54413 0.22931 0.0
C3572 C 0.73823 0.51407 0.19185 0.0
C3573 C 0.75892 0.52498 0.19225 0.0
C3574 C 0.73664 0.49278 0.18418 0.0
C3575 C 0.71603 0.47934 0.18529 0.0
C3576 C 0.70543 0.47557 0.20466 0.0
C3577 C 0.68598 0.46291 0.2056 0.0
C3578 C 0.67711 0.45378 0.1873 0.0
C3579 C 0.6877 0.45723 0.16802 0.0
C3580 C 0.70713 0.4699 0.16699 0.0
C3581 C 0.82563 0.46144 0.18406 0.0
C3582 C 0.82967 0.45513 0.16327 0.0
C3583 C 0.80879 0.47495 0.18869 0.0
C3584 C 0.79548 0.48186 0.17263 0.0
C3585 C 0.79979 0.47586 0.15181 0.0
C3586 C 0.81688 0.4627 0.14715 0.0
C3587 C 0.77608 0.494 0.17783 0.0
C3588 C 0.75547 0.4833 0.17674 0.0
C3589 C 0.77792 0.51509 0.1857 0.0
C3590 C 0.79953 0.52674 0.18799 0.0
C3591 C 0.81457 0.52797 0.17116 0.0
C3592 C 0.83541 0.53765 0.17395 0.0
C3593 C 0.84121 0.54683 0.19328 0.0
C3594 C 0.82621 0.54618 0.20995 0.0
C3595 C 0.80549 0.53613 0.20738 0.0
H3596 H 0.85734 0.55438 0.19536 0.0
H3597 H 0.66205 0.44398 0.18806 0.0
H3598 H 0.74573 0.46927 0.45596 0.0
H3599 H 0.75029 0.506 0.44327 0.0
H3600 H 0.80475 0.51783 0.48479 0.0
H3601 H 0.80066 0.48125 0.49714 0.0
H3602 H 0.76949 0.54804 0.48742 0.0
H3603 H 0.8155 0.51111 0.43731 0.0
H3604 H 0.8222 0.4852 0.409 0.0
H3605 H 0.77673 0.51506 0.36979 0.0
H3606 H 0.7693 0.54089 0.39802 0.0
H3607 H 0.85086 0.62337 0.46601 0.0
H3608 H 0.82226 0.59663 0.47459 0.0
H3609 H 0.78922 0.60968 0.4171 0.0
H3610 H 0.81796 0.63706 0.40867 0.0
H3611 H 0.79975 0.56949 0.41796 0.0
H3612 H 0.76125 0.61199 0.46433 0.0
H3613 H 0.75432 0.63854 0.49199 0.0
H3614 H 0.78392 0.59979 0.53746 0.0
H3615 H 0.79138 0.57315 0.51005 0.0
C3616 C 0.75891 0.47963 0.46208 0.0
C3617 C 0.77289 0.47239 0.4775 0.0
C3618 C 0.7614 0.50058 0.4549 0.0
C3619 C 0.77769 0.51462 0.46329 0.0
C3620 C 0.79197 0.50724 0.47827 0.0
C3621 C 0.78973 0.48629 0.48517 0.0
C3622 C 0.77992 0.53719 0.45701 0.0
C3623 C 0.77606 0.55286 0.47224 0.0
C3624 C 0.78731 0.54338 0.43681 0.0
C3625 C 0.79149 0.52764 0.41997 0.0
C3626 C 0.80662 0.51193 0.42279 0.0
C3627 C 0.8106 0.4973 0.40671 0.0
C3628 C 0.79975 0.49838 0.38764 0.0
C3629 C 0.78496 0.51415 0.3846 0.0
C3630 C 0.78084 0.52877 0.40064 0.0
C3631 C 0.83696 0.62128 0.45569 0.0
C3632 C 0.8368 0.63194 0.43651 0.0
C3633 C 0.82051 0.60597 0.46061 0.0
C3634 C 0.80359 0.60096 0.44643 0.0
C3635 C 0.80213 0.61324 0.42827 0.0
C3636 C 0.81851 0.62892 0.4235 0.0
C3637 C 0.79066 0.58047 0.44887 0.0
C3638 C 0.79241 0.565 0.43293 0.0
C3639 C 0.78114 0.57449 0.46839 0.0
C3640 C 0.77689 0.59053 0.48505 0.0
C3641 C 0.76643 0.60917 0.48019 0.0
C3642 C 0.76238 0.62425 0.49585 0.0
C3643 C 0.76867 0.62085 0.51647 0.0
C3644 C 0.77902 0.60238 0.52148 0.0
C3645 C 0.78312 0.58726 0.50589 0.0
H3646 H 0.76551 0.63254 0.52857 0.0
H3647 H 0.80288 0.48709 0.37518 0.0
H3648 H 0.82272 0.52321 0.8029 0.0
H3649 H 0.78757 0.51394 0.82024 0.0
H3650 H 0.77449 0.46442 0.77396 0.0
H3651 H 0.80966 0.4731 0.75712 0.0
H3652 H 0.74637 0.51457 0.80812 0.0
H3653 H 0.74692 0.42286 0.7935 0.0
H3654 H 0.77352 0.39484 0.79197 0.0
H3655 H 0.81749 0.43304 0.83068 0.0
H3656 H 0.79105 0.46116 0.83269 0.0
H3657 H 0.65394 0.42719 0.80991 0.0
H3658 H 0.68404 0.45115 0.79794 0.0
H3659 H 0.69491 0.4729 0.86147 0.0
H3660 H 0.66429 0.44923 0.87349 0.0
H3661 H 0.725 0.43939 0.82427 0.0
H3662 H 0.7256 0.52866 0.84296 0.0
H3663 H 0.69997 0.5573 0.84744 0.0
H3664 H 0.65478 0.52436 0.80577 0.0
H3665 H 0.68035 0.49583 0.80061 0.0
C3666 C 0.81243 0.51016 0.79663 0.0
C3667 C 0.81906 0.4987 0.77881 0.0
C3668 C 0.7923 0.505 0.80645 0.0
C3669 C 0.77847 0.48831 0.79858 0.0
C3670 C 0.78505 0.47704 0.78064 0.0
C3671 C 0.80519 0.48203 0.771 0.0
C3672 C 0.75709 0.48251 0.80885 0.0
C3673 C 0.7418 0.49818 0.81197 0.0
C3674 C 0.75112 0.46116 0.81403 0.0
C3675 C 0.76704 0.44419 0.8131 0.0
C3676 C 0.76221 0.42524 0.80178 0.0
C3677 C 0.77728 0.40934 0.80081 0.0
C3678 C 0.7972 0.41218 0.81117 0.0
C3679 C 0.80208 0.43089 0.82259 0.0
C3680 C 0.78707 0.44682 0.82363 0.0
C3681 C 0.66185 0.43804 0.82114 0.0
C3682 C 0.65697 0.43625 0.84263 0.0
C3683 C 0.67914 0.45163 0.81431 0.0
C3684 C 0.69172 0.46368 0.82885 0.0
C3685 C 0.68519 0.46391 0.85 0.0
C3686 C 0.66765 0.45042 0.85684 0.0
C3687 C 0.71411 0.47125 0.82269 0.0
C3688 C 0.72967 0.45582 0.82058 0.0
C3689 C 0.72032 0.49281 0.81891 0.0
C3690 C 0.70476 0.50989 0.82171 0.0
C3691 C 0.71022 0.52755 0.83471 0.0
C3692 C 0.69573 0.54381 0.83731 0.0
C3693 C 0.67572 0.54261 0.82695 0.0
C3694 C 0.67023 0.52521 0.81388 0.0
C3695 C 0.6847 0.50896 0.81115 0.0
H3696 H 0.6645 0.55518 0.82904 0.0
H3697 H 0.80885 0.39986 0.81039 0.0
H3698 H 0.79481 0.61269 0.03544 0.0
H3699 H 0.81302 0.58253 0.04951 0.0
H3700 H 0.75244 0.5591 0.07812 0.0
H3701 H 0.73404 0.58953 0.06413 0.0
H3702 H 0.81868 0.5725 0.08963 0.0
H3703 H 0.75263 0.50512 0.07731 0.0
H3704 H 0.72617 0.49026 0.05135 0.0
H3705 H 0.76264 0.52196 0.0019 0.0
H3706 H 0.78901 0.53733 0.02763 0.0
H3707 H 0.86662 0.48305 0.13333 0.0
H3708 H 0.83714 0.50712 0.12715 0.0
H3709 H 0.83966 0.49167 0.06106 0.0
H3710 H 0.86902 0.4678 0.06729 0.0
H3711 H 0.79851 0.49679 0.07333 0.0
H3712 H 0.86926 0.53216 0.08157 0.0
H3713 H 0.90327 0.54408 0.09944 0.0
H3714 H 0.86629 0.57685 0.14606 0.0
H3715 H 0.83197 0.56456 0.12881 0.0
C3716 C 0.78535 0.6012 0.04481 0.0
C3717 C 0.76304 0.60357 0.04883 0.0
C3718 C 0.79577 0.58393 0.0528 0.0
C3719 C 0.78408 0.56852 0.0648 0.0
C3720 C 0.76173 0.57073 0.06877 0.0
C3721 C 0.75131 0.5882 0.06094 0.0
C3722 C 0.79577 0.55082 0.07384 0.0
C3723 C 0.81408 0.55591 0.08632 0.0
C3724 C 0.78995 0.52921 0.06935 0.0
C3725 C 0.77255 0.52258 0.0544 0.0
C3726 C 0.75475 0.50919 0.06094 0.0
C3727 C 0.73985 0.5006 0.04626 0.0
C3728 C 0.74281 0.50505 0.02497 0.0
C3729 C 0.76041 0.51848 0.01838 0.0
C3730 C 0.77517 0.52735 0.03303 0.0
C3731 C 0.86019 0.48423 0.11766 0.0
C3732 C 0.86963 0.47338 0.10079 0.0
C3733 C 0.84357 0.49811 0.11411 0.0
C3734 C 0.83629 0.50127 0.09362 0.0
C3735 C 0.84488 0.48937 0.077 0.0
C3736 C 0.86161 0.47573 0.08053 0.0
C3737 C 0.82159 0.51848 0.08883 0.0
C3738 C 0.80266 0.51333 0.07728 0.0
C3739 C 0.82737 0.54012 0.09346 0.0
C3740 C 0.84799 0.54701 0.10417 0.0
C3741 C 0.86833 0.54157 0.09585 0.0
C3742 C 0.88768 0.54845 0.10584 0.0
C3743 C 0.88694 0.56111 0.12395 0.0
C3744 C 0.86684 0.56698 0.13207 0.0
C3745 C 0.84743 0.55999 0.12223 0.0
H3746 H 0.90194 0.56647 0.13164 0.0
H3747 H 0.73139 0.49821 0.01361 0.0
H3748 H 0.69145 0.53706 0.28799 0.0
H3749 H 0.72481 0.54582 0.30705 0.0
H3750 H 0.68845 0.582 0.35225 0.0
H3751 H 0.65534 0.575 0.33153 0.0
H3752 H 0.71889 0.6049 0.3433 0.0
H3753 H 0.72048 0.53381 0.36445 0.0
H3754 H 0.71726 0.49464 0.36206 0.0
H3755 H 0.76974 0.49522 0.31686 0.0
H3756 H 0.77316 0.53441 0.31883 0.0
H3757 H 0.83669 0.61446 0.38205 0.0
H3758 H 0.80481 0.58945 0.37757 0.0
H3759 H 0.78862 0.62125 0.32074 0.0
H3760 H 0.81957 0.64672 0.32568 0.0
H3761 H 0.78389 0.56153 0.34766 0.0
H3762 H 0.73862 0.63728 0.32559 0.0
H3763 H 0.74189 0.67579 0.33344 0.0
H3764 H 0.77438 0.66374 0.39105 0.0
H3765 H 0.77092 0.62518 0.38376 0.0
C3766 C 0.69049 0.54635 0.30236 0.0
C3767 C 0.67089 0.55533 0.30838 0.0
C3768 C 0.70963 0.55123 0.31347 0.0
C3769 C 0.70943 0.56444 0.33143 0.0
C3770 C 0.68928 0.57193 0.3384 0.0
C3771 C 0.67029 0.56782 0.3267 0.0
C3772 C 0.73047 0.57314 0.34062 0.0
C3773 C 0.73284 0.59516 0.34458 0.0
C3774 C 0.74891 0.56066 0.34303 0.0
C3775 C 0.74702 0.53708 0.34176 0.0
C3776 C 0.73125 0.5256 0.35392 0.0
C3777 C 0.72941 0.50339 0.35265 0.0
C3778 C 0.74326 0.49246 0.3393 0.0
C3779 C 0.75902 0.50371 0.3272 0.0
C3780 C 0.76096 0.52593 0.32843 0.0
C3781 C 0.82663 0.6157 0.36831 0.0
C3782 C 0.83015 0.63288 0.35453 0.0
C3783 C 0.80849 0.60137 0.36575 0.0
C3784 C 0.79406 0.6039 0.34913 0.0
C3785 C 0.79931 0.61933 0.33392 0.0
C3786 C 0.81702 0.63386 0.33673 0.0
C3787 C 0.77198 0.59303 0.34899 0.0
C3788 C 0.76956 0.57085 0.34684 0.0
C3789 C 0.7532 0.60512 0.34925 0.0
C3790 C 0.7546 0.62832 0.35405 0.0
C3791 C 0.74627 0.64283 0.34002 0.0
C3792 C 0.7482 0.66468 0.34436 0.0
C3793 C 0.75837 0.67221 0.36271 0.0
C3794 C 0.76654 0.6579 0.37682 0.0
C3795 C 0.7646 0.63605 0.3726 0.0
H3796 H 0.7599 0.68913 0.366 0.0
H3797 H 0.74181 0.47526 0.33835 0.0
H3798 H 0.76148 0.47148 0.56665 0.0
H3799 H 0.74704 0.50415 0.58108 0.0
H3800 H 0.68203 0.48212 0.56284 0.0
H3801 H 0.69637 0.44963 0.54817 0.0
H3802 H 0.69335 0.51972 0.54612 0.0
H3803 H 0.69645 0.48846 0.61412 0.0
H3804 H 0.7122 0.47218 0.64505 0.0
H3805 H 0.75658 0.52674 0.65296 0.0
H3806 H 0.74129 0.5433 0.62197 0.0
H3807 H 0.62512 0.59194 0.59416 0.0
H3808 H 0.64543 0.56127 0.58413 0.0
H3809 H 0.70609 0.59666 0.59712 0.0
H3810 H 0.68573 0.6281 0.60627 0.0
H3811 H 0.70151 0.5552 0.6155 0.0
H3812 H 0.69639 0.5871 0.54876 0.0
H3813 H 0.67824 0.60421 0.51963 0.0
H3814 H 0.63561 0.54843 0.51113 0.0
H3815 H 0.6533 0.53107 0.54042 0.0
C3816 C 0.74402 0.47332 0.5663 0.0
C3817 C 0.73006 0.45813 0.55609 0.0
C3818 C 0.73579 0.49201 0.57456 0.0
C3819 C 0.71349 0.49564 0.57285 0.0
C3820 C 0.69933 0.4797 0.56415 0.0
C3821 C 0.70753 0.4611 0.55585 0.0
C3822 C 0.70527 0.5169 0.57761 0.0
C3823 C 0.6949 0.52732 0.56144 0.0
C3824 C 0.70815 0.52727 0.59729 0.0
C3825 C 0.71799 0.51694 0.61543 0.0
C3826 C 0.70982 0.49685 0.62223 0.0
C3827 C 0.71858 0.48763 0.63987 0.0
C3828 C 0.73543 0.4984 0.65093 0.0
C3829 C 0.74355 0.51842 0.64438 0.0
C3830 C 0.73486 0.52772 0.62676 0.0
C3831 C 0.6428 0.59343 0.59468 0.0
C3832 C 0.65382 0.61246 0.60144 0.0
C3833 C 0.65437 0.57581 0.58895 0.0
C3834 C 0.67722 0.57674 0.58984 0.0
C3835 C 0.68841 0.59566 0.59642 0.0
C3836 C 0.67678 0.6135 0.60189 0.0
C3837 C 0.68901 0.55752 0.58442 0.0
C3838 C 0.70017 0.54758 0.60028 0.0
C3839 C 0.68676 0.5475 0.56458 0.0
C3840 C 0.67609 0.55784 0.5469 0.0
C3841 C 0.68303 0.57854 0.54079 0.0
C3842 C 0.67285 0.58827 0.52423 0.0
C3843 C 0.65576 0.57743 0.51356 0.0
C3844 C 0.64885 0.55681 0.51941 0.0
C3845 C 0.65897 0.547 0.53598 0.0
H3846 H 0.64789 0.585 0.50074 0.0
H3847 H 0.74216 0.49126 0.66461 0.0
H3848 H 0.72273 0.8598 0.49501 0.0
H3849 H 0.71008 0.8248 0.50832 0.0
H3850 H 0.72376 0.84647 0.57146 0.0
H3851 H 0.73633 0.88133 0.55837 0.0
H3852 H 0.74495 0.81036 0.56017 0.0
H3853 H 0.67199 0.83646 0.55624 0.0
H3854 H 0.63921 0.84981 0.53991 0.0
H3855 H 0.63522 0.79553 0.49841 0.0
H3856 H 0.66808 0.78193 0.5144 0.0
H3857 H 0.69561 0.74413 0.63442 0.0
H3858 H 0.70886 0.77117 0.61001 0.0
H3859 H 0.68726 0.73126 0.55798 0.0
H3860 H 0.6746 0.70341 0.58265 0.0
H3861 H 0.67289 0.77116 0.55548 0.0
H3862 H 0.74088 0.742 0.56375 0.0
H3863 H 0.77178 0.72684 0.58166 0.0
H3864 H 0.78444 0.78572 0.61517 0.0
H3865 H 0.7534 0.80116 0.59772 0.0
C3866 C 0.72252 0.85724 0.51177 0.0
C3867 C 0.73067 0.87326 0.52564 0.0
C3868 C 0.71529 0.83724 0.51933 0.0
C3869 C 0.71615 0.83301 0.54085 0.0
C3870 C 0.72309 0.84939 0.55478 0.0
C3871 C 0.7302 0.86933 0.54727 0.0
C3872 C 0.71201 0.81116 0.54888 0.0
C3873 C 0.72909 0.80187 0.55932 0.0
C3874 C 0.69171 0.79957 0.54668 0.0
C3875 C 0.67277 0.80841 0.53623 0.0
C3876 C 0.66438 0.82757 0.54337 0.0
C3877 C 0.64569 0.83512 0.53426 0.0
C3878 C 0.6352 0.82359 0.51806 0.0
C3879 C 0.64342 0.80451 0.51089 0.0
C3880 C 0.66207 0.79688 0.51996 0.0
C3881 C 0.69398 0.74078 0.61779 0.0
C3882 C 0.68347 0.72172 0.61049 0.0
C3883 C 0.70167 0.75632 0.60382 0.0
C3884 C 0.69918 0.75322 0.58216 0.0
C3885 C 0.6893 0.73398 0.57466 0.0
C3886 C 0.68178 0.71822 0.58874 0.0
C3887 C 0.70524 0.77107 0.56791 0.0
C3888 C 0.68873 0.77954 0.55607 0.0
C3889 C 0.72603 0.78192 0.56877 0.0
C3890 C 0.7447 0.77272 0.57946 0.0
C3891 C 0.75013 0.75168 0.57506 0.0
C3892 C 0.7677 0.74304 0.58511 0.0
C3893 C 0.78005 0.7553 0.59955 0.0
C3894 C 0.77486 0.77624 0.60396 0.0
C3895 C 0.7573 0.78496 0.59397 0.0
H3896 H 0.79366 0.74859 0.60731 0.0
H3897 H 0.62066 0.82938 0.51113 0.0
H3898 H 0.20378 0.69868 0.45525 0.0
H3899 H 0.18653 0.72989 0.44229 0.0
H3900 H 0.15557 0.73886 0.50255 0.0
H3901 H 0.17316 0.70767 0.51589 0.0
H3902 H 0.12975 0.74678 0.46272 0.0
H3903 H 0.19787 0.76307 0.49714 0.0
H3904 H 0.23672 0.75796 0.50339 0.0
H3905 H 0.25265 0.77747 0.44056 0.0
H3906 H 0.21371 0.7817 0.43354 0.0
H3907 H 0.1269 0.85889 0.41893 0.0
H3908 H 0.13074 0.83252 0.447 0.0
H3909 H 0.16496 0.79277 0.40369 0.0
H3910 H 0.16054 0.81791 0.37601 0.0
H3911 H 0.18456 0.80516 0.44612 0.0
H3912 H 0.11883 0.78196 0.40842 0.0
H3913 H 0.08041 0.7806 0.39794 0.0
H3914 H 0.06019 0.76773 0.46138 0.0
H3915 H 0.09851 0.77018 0.47256 0.0
C3916 C 0.19289 0.70694 0.46564 0.0
C3917 C 0.19003 0.70089 0.48666 0.0
C3918 C 0.18309 0.72479 0.45821 0.0
C3919 C 0.17015 0.73681 0.4716 0.0
C3920 C 0.16564 0.72979 0.49206 0.0
C3921 C 0.17569 0.712 0.49962 0.0
C3922 C 0.16338 0.75774 0.46463 0.0
C3923 C 0.14149 0.7599 0.45953 0.0
C3924 C 0.17905 0.77449 0.46034 0.0
C3925 C 0.20269 0.7726 0.46478 0.0
C3926 C 0.20955 0.76596 0.48451 0.0
C3927 C 0.23165 0.76318 0.48819 0.0
C3928 C 0.24717 0.7674 0.47239 0.0
C3929 C 0.24061 0.77426 0.45282 0.0
C3930 C 0.21849 0.7768 0.44897 0.0
C3931 C 0.13492 0.84437 0.41542 0.0
C3932 C 0.14264 0.84023 0.39499 0.0
C3933 C 0.13708 0.82934 0.43142 0.0
C3934 C 0.14743 0.81033 0.42715 0.0
C3935 C 0.15639 0.80703 0.40719 0.0
C3936 C 0.15391 0.82162 0.39135 0.0
C3937 C 0.15089 0.79406 0.44322 0.0
C3938 C 0.17244 0.7926 0.45009 0.0
C3939 C 0.13496 0.7776 0.44838 0.0
C3940 C 0.1118 0.77727 0.44155 0.0
C3941 C 0.10633 0.77972 0.42037 0.0
C3942 C 0.08446 0.77851 0.41423 0.0
C3943 C 0.06784 0.7743 0.429 0.0
C3944 C 0.07305 0.7711 0.44994 0.0
C3945 C 0.09487 0.77254 0.45621 0.0
H3946 H 0.05095 0.77342 0.42419 0.0
H3947 H 0.26428 0.76537 0.47528 0.0
H3948 H 0.56798 0.01289 0.78117 0.0
H3949 H 0.53468 0.9974 0.76477 0.0
H3950 H 0.56415 0.00711 0.70365 0.0
H3951 H 0.59724 0.02277 0.71987 0.0
H3952 H 0.52454 0.0236 0.70657 0.0
H3953 H 0.55595 0.95675 0.72518 0.0
H3954 H 0.56985 0.93077 0.74969 0.0
H3955 H 0.50896 0.92921 0.78379 0.0
H3956 H 0.4949 0.95552 0.75967 0.0
H3957 H 0.46984 0.96418 0.63112 0.0
H3958 H 0.49552 0.97673 0.6577 0.0
H3959 H 0.44675 0.96444 0.70592 0.0
H3960 H 0.42037 0.9519 0.67903 0.0
H3961 H 0.48977 0.95125 0.71602 0.0
H3962 H 0.45635 0.01346 0.69472 0.0
H3963 H 0.44147 0.03859 0.66998 0.0
H3964 H 0.50507 0.04962 0.642 0.0
H3965 H 0.52028 0.0243 0.66636 0.0
C3966 C 0.56746 0.0114 0.76424 0.0
C3967 C 0.58518 0.01913 0.75178 0.0
C3968 C 0.54843 0.00251 0.75491 0.0
C3969 C 0.54691 0.00112 0.73298 0.0
C3970 C 0.56493 0.00812 0.7206 0.0
C3971 C 0.58386 0.01701 0.72989 0.0
C3972 C 0.5262 0.99385 0.72263 0.0
C3973 C 0.51703 0.00774 0.70857 0.0
C3974 C 0.51571 0.97356 0.72604 0.0
C3975 C 0.52443 0.95817 0.74075 0.0
C3976 C 0.54562 0.95102 0.73803 0.0
C3977 C 0.55352 0.93622 0.75183 0.0
C3978 C 0.54031 0.92837 0.76831 0.0
C3979 C 0.51919 0.93532 0.77104 0.0
C3980 C 0.51125 0.95016 0.75732 0.0
C3981 C 0.46436 0.96416 0.64732 0.0
C3982 C 0.44291 0.9571 0.65288 0.0
C3983 C 0.47916 0.97132 0.66254 0.0
C3984 C 0.47297 0.97177 0.68373 0.0
C3985 C 0.45179 0.96426 0.68959 0.0
C3986 C 0.43678 0.95709 0.67423 0.0
C3987 C 0.4889 0.98067 0.69926 0.0
C3988 C 0.49708 0.96724 0.71434 0.0
C3989 C 0.49845 0.0015 0.69698 0.0
C3990 C 0.48944 0.01689 0.68234 0.0
C3991 C 0.46714 0.02113 0.6832 0.0
C3992 C 0.45865 0.03543 0.66925 0.0
C3993 C 0.47231 0.04568 0.65441 0.0
C3994 C 0.4945 0.04168 0.65351 0.0
C3995 C 0.50308 0.02738 0.66742 0.0
H3996 H 0.4657 0.05674 0.64362 0.0
H3997 H 0.54643 0.91688 0.77894 0.0
H3998 H 0.3296 0.34951 0.01699 0.0
H3999 H 0.34814 0.31672 0.00937 0.0
H4000 H 0.32596 0.3179 0.94544 0.0
H4001 H 0.30782 0.35072 0.95285 0.0
H4002 H 0.33094 0.27932 -0.00093 0.0
H4003 H 0.35928 0.2957 0.91243 0.0
H4004 H 0.37587 0.32554 0.89204 0.0
H4005 H 0.40149 0.35467 0.94849 0.0
H4006 H 0.38534 0.32486 0.9692 0.0
H4007 H 0.31634 0.19753 0.92612 0.0
H4008 H 0.32012 0.22481 0.95348 0.0
H4009 H 0.38941 0.23171 0.94062 0.0
H4010 H 0.38502 0.20522 0.91238 0.0
H4011 H 0.37384 0.26655 0.93425 0.0
H4012 H 0.36813 0.22226 0.99153 0.0
H4013 H 0.35682 0.19392 0.01621 0.0
H4014 H 0.29405 0.22035 0.0238 0.0
H4015 H 0.30489 0.24874 -0.00106 0.0
C4016 C 0.32912 0.34302 0.00119 0.0
C4017 C 0.31728 0.35272 0.98549 0.0
C4018 C 0.33962 0.32422 0.9969 0.0
C4019 C 0.33859 0.31487 0.97681 0.0
C4020 C 0.32738 0.32497 0.96097 0.0
C4021 C 0.31693 0.34374 0.96523 0.0
C4022 C 0.34758 0.29375 0.97254 0.0
C4023 C 0.34043 0.27642 0.98498 0.0
C4024 C 0.36102 0.29016 0.95484 0.0
C4025 C 0.371 0.30805 0.94239 0.0
C4026 C 0.36858 0.30838 0.92049 0.0
C4027 C 0.37788 0.32532 0.90888 0.0
C4028 C 0.3897 0.342 0.91897 0.0
C4029 C 0.39228 0.34176 0.9407 0.0
C4030 C 0.38303 0.32486 0.95239 0.0
C4031 C 0.33255 0.20399 0.93002 0.0
C4032 C 0.35063 0.1988 0.91766 0.0
C4033 C 0.33476 0.21964 0.94572 0.0
C4034 C 0.3551 0.23046 0.94923 0.0
C4035 C 0.37358 0.22355 0.93839 0.0
C4036 C 0.37127 0.20799 0.92257 0.0
C4037 C 0.35582 0.25169 0.95993 0.0
C4038 C 0.36476 0.26921 0.94865 0.0
C4039 C 0.34461 0.25538 0.97908 0.0
C4040 C 0.33739 0.23768 0.99324 0.0
C4041 C 0.35184 0.22192 0.99824 0.0
C4042 C 0.34552 0.20586 0.01233 0.0
C4043 C 0.32471 0.20531 0.02155 0.0
C4044 C 0.31018 0.2208 0.01665 0.0
C4045 C 0.31644 0.23692 0.00257 0.0
H4046 H 0.31986 0.1929 0.03251 0.0
H4047 H 0.39687 0.35511 0.90994 0.0
H4048 H 0.4604 0.54249 0.77936 0.0
H4049 H 0.49445 0.55823 0.76475 0.0
H4050 H 0.4582 0.58681 0.71577 0.0
H4051 H 0.42427 0.56983 0.72964 0.0
H4052 H 0.49076 0.57106 0.69894 0.0
H4053 H 0.48353 0.61522 0.76084 0.0
H4054 H 0.47936 0.62274 0.79869 0.0
H4055 H 0.53889 0.59231 0.81079 0.0
H4056 H 0.5433 0.58443 0.77302 0.0
H4057 H 0.55552 0.65522 0.66377 0.0
H4058 H 0.53048 0.63631 0.68791 0.0
H4059 H 0.5818 0.59626 0.70597 0.0
H4060 H 0.60728 0.61544 0.68157 0.0
H4061 H 0.54741 0.61198 0.74003 0.0
H4062 H 0.55506 0.57275 0.67538 0.0
H4063 H 0.55861 0.56951 0.63693 0.0
H4064 H 0.49597 0.59578 0.6297 0.0
H4065 H 0.49222 0.59953 0.66811 0.0
C4066 C 0.4597 0.55237 0.76562 0.0
C4067 C 0.43972 0.55506 0.75565 0.0
C4068 C 0.4792 0.56145 0.75731 0.0
C4069 C 0.47901 0.57401 0.73926 0.0
C4070 C 0.45888 0.57714 0.72965 0.0
C4071 C 0.43946 0.56756 0.73763 0.0
C4072 C 0.49973 0.58305 0.72968 0.0
C4073 C 0.50293 0.58022 0.708 0.0
C4074 C 0.51624 0.59433 0.74147 0.0
C4075 C 0.51359 0.59901 0.76416 0.0
C4076 C 0.49563 0.60999 0.7716 0.0
C4077 C 0.49325 0.61435 0.79303 0.0
C4078 C 0.50881 0.60795 0.80714 0.0
C4079 C 0.52683 0.59723 0.79984 0.0
C4080 C 0.52929 0.59283 0.77843 0.0
C4081 C 0.56165 0.64273 0.67326 0.0
C4082 C 0.58319 0.63657 0.67068 0.0
C4083 C 0.54734 0.63195 0.68702 0.0
C4084 C 0.55423 0.61472 0.69842 0.0
C4085 C 0.57624 0.60953 0.69722 0.0
C4086 C 0.59074 0.6205 0.6834 0.0
C4087 C 0.53746 0.60104 0.70936 0.0
C4088 C 0.53514 0.60276 0.73117 0.0
C4089 C 0.52146 0.58917 0.69771 0.0
C4090 C 0.52344 0.58654 0.67461 0.0
C4091 C 0.54212 0.57798 0.66558 0.0
C4092 C 0.54416 0.57603 0.6438 0.0
C4093 C 0.52754 0.58247 0.63088 0.0
C4094 C 0.50883 0.59081 0.63972 0.0
C4095 C 0.50673 0.59282 0.6615 0.0
H4096 H 0.52915 0.58096 0.61402 0.0
H4097 H 0.50694 0.61133 0.82372 0.0
H4098 H 0.82415 0.22036 0.00802 0.0
H4099 H 0.8384 0.25717 0.01399 0.0
H4100 H 0.78837 0.26567 0.06096 0.0
H4101 H 0.77431 0.22904 0.05536 0.0
H4102 H 0.79145 0.29736 0.0287 0.0
H4103 H 0.83832 0.25919 0.07546 0.0
H4104 H 0.86638 0.23378 0.08294 0.0
H4105 H 0.91168 0.26762 0.04185 0.0
H4106 H 0.88374 0.29302 0.03387 0.0
H4107 H 0.80839 0.3756 0.1032 0.0
H4108 H 0.80154 0.34718 0.0776 0.0
H4109 H 0.86694 0.35807 0.05281 0.0
H4110 H 0.87323 0.38763 0.07752 0.0
H4111 H 0.86177 0.31933 0.06223 0.0
H4112 H 0.82036 0.36153 0.02076 0.0
H4113 H 0.7942 0.38779 0.01051 0.0
H4114 H 0.74117 0.34819 0.03558 0.0
H4115 H 0.76701 0.32186 0.04635 0.0
C4116 C 0.81647 0.22999 0.01989 0.0
C4117 C 0.79817 0.22179 0.0313 0.0
C4118 C 0.82458 0.25099 0.02321 0.0
C4119 C 0.81434 0.26412 0.03782 0.0
C4120 C 0.79643 0.25579 0.04955 0.0
C4121 C 0.78852 0.23481 0.04644 0.0
C4122 C 0.82158 0.28679 0.0407 0.0
C4123 C 0.80683 0.30226 0.03594 0.0
C4124 C 0.84219 0.29322 0.04907 0.0
C4125 C 0.85882 0.27778 0.05378 0.0
C4126 C 0.85416 0.26104 0.0678 0.0
C4127 C 0.87007 0.24668 0.07219 0.0
C4128 C 0.89076 0.24901 0.0628 0.0
C4129 C 0.89562 0.26577 0.04905 0.0
C4130 C 0.87975 0.28015 0.04458 0.0
C4131 C 0.82084 0.37273 0.09145 0.0
C4132 C 0.8414 0.38364 0.09241 0.0
C4133 C 0.81695 0.35642 0.07677 0.0
C4134 C 0.83361 0.35055 0.06288 0.0
C4135 C 0.85361 0.3626 0.06281 0.0
C4136 C 0.85725 0.37944 0.07708 0.0
C4137 C 0.83104 0.32995 0.05126 0.0
C4138 C 0.84666 0.31475 0.05426 0.0
C4139 C 0.81148 0.32384 0.04067 0.0
C4140 C 0.79571 0.33971 0.03446 0.0
C4141 C 0.80315 0.35848 0.02426 0.0
C4142 C 0.78835 0.37338 0.01833 0.0
C4143 C 0.76604 0.36967 0.0224 0.0
C4144 C 0.75846 0.35104 0.03242 0.0
C4145 C 0.77319 0.3361 0.03842 0.0
H4146 H 0.75461 0.38122 0.01778 0.0
H4147 H 0.90306 0.23789 0.06624 0.0
H4148 H 0.5943 0.11902 0.76599 0.0
H4149 H 0.56159 0.13878 0.77299 0.0
H4150 H 0.55551 0.11063 0.83428 0.0
H4151 H 0.58832 0.09137 0.82757 0.0
H4152 H 0.52248 0.12302 0.77759 0.0
H4153 H 0.52888 0.13881 0.86833 0.0
H4154 H 0.55683 0.15173 0.89362 0.0
H4155 H 0.59375 0.18279 0.84408 0.0
H4156 H 0.56588 0.17033 0.81852 0.0
H4157 H 0.42969 0.09908 0.83547 0.0
H4158 H 0.46157 0.10719 0.81354 0.0
H4159 H 0.46696 0.17087 0.83968 0.0
H4160 H 0.43588 0.16194 0.86293 0.0
H4161 H 0.50199 0.15576 0.84556 0.0
H4162 H 0.46683 0.16019 0.78001 0.0
H4163 H 0.44056 0.15169 0.7516 0.0
H4164 H 0.46261 0.08828 0.747 0.0
H4165 H 0.489 0.09634 0.7753 0.0
C4166 C 0.5863 0.11752 0.78118 0.0
C4167 C 0.59385 0.10359 0.79622 0.0
C4168 C 0.56755 0.12876 0.78512 0.0
C4169 C 0.55606 0.12633 0.80421 0.0
C4170 C 0.56425 0.11319 0.8196 0.0
C4171 C 0.583 0.10205 0.8157 0.0
C4172 C 0.53424 0.13529 0.8073 0.0
C4173 C 0.51803 0.13049 0.79233 0.0
C4174 C 0.5285 0.1459 0.82608 0.0
C4175 C 0.54528 0.15355 0.84147 0.0
C4176 C 0.54288 0.14852 0.86283 0.0
C4177 C 0.55874 0.15573 0.87722 0.0
C4178 C 0.57707 0.16805 0.87046 0.0
C4179 C 0.57957 0.1732 0.84929 0.0
C4180 C 0.56376 0.16603 0.83484 0.0
C4181 C 0.43702 0.11514 0.83574 0.0
C4182 C 0.42996 0.13003 0.85049 0.0
C4183 C 0.4553 0.1199 0.82303 0.0
C4184 C 0.46687 0.13977 0.82468 0.0
C4185 C 0.45846 0.15541 0.83804 0.0
C4186 C 0.44039 0.15045 0.8511 0.0
C4187 C 0.48981 0.1421 0.81645 0.0
C4188 C 0.50637 0.14897 0.83049 0.0
C4189 C 0.49595 0.13401 0.79653 0.0
C4190 C 0.47971 0.12883 0.77992 0.0
C4191 C 0.46589 0.14437 0.77309 0.0
C4192 C 0.45106 0.13967 0.75695 0.0
C4193 C 0.44984 0.11946 0.7476 0.0
C4194 C 0.46354 0.10392 0.75428 0.0
C4195 C 0.47849 0.10857 0.7703 0.0
H4196 H 0.43834 0.11588 0.73513 0.0
H4197 H 0.58933 0.17361 0.88162 0.0
H4198 H 0.91433 0.00415 0.34109 0.0
H4199 H 0.94881 0.98728 0.34583 0.0
H4200 H 0.94572 0.9625 0.28255 0.0
H4201 H 0.91108 0.97951 0.27755 0.0
H4202 H 0.96415 0.93478 0.31835 0.0
H4203 H 0.97093 0.00318 0.28446 0.0
H4204 H 0.9611 0.04043 0.28206 0.0
H4205 H 0.99037 0.0545 0.34181 0.0
H4206 H -0.00094 0.01696 0.34526 0.0
H4207 H 0.07398 0.92007 0.35006 0.0
H4208 H 0.04675 0.92925 0.32367 0.0
H4209 H 0.02656 0.98001 0.36418 0.0
H4210 H 0.05326 0.97128 0.38972 0.0
H4211 H 0.02335 0.99126 0.32582 0.0
H4212 H 0.00653 0.92631 0.36559 0.0
H4213 H 0.01064 0.88894 0.37518 0.0
H4214 H 0.99691 0.86899 0.31186 0.0
H4215 H 0.99388 0.90637 0.30163 0.0
C4216 C 0.92062 0.99462 0.32835 0.0
C4217 C 0.91017 0.99337 0.30887 0.0
C4218 C 0.94031 0.98499 0.3311 0.0
C4219 C 0.94984 0.97394 0.31443 0.0
C4220 C 0.93854 0.97099 0.29555 0.0
C4221 C 0.9188 0.98074 0.29274 0.0
C4222 C 0.9728 0.96822 0.31615 0.0
C4223 C 0.97731 0.94697 0.31948 0.0
C4224 C 0.98976 0.9843 0.31773 0.0
C4225 C 0.98556 0.00715 0.31513 0.0
C4226 C 0.97512 0.01415 0.29717 0.0
C4227 C 0.96973 0.03535 0.29563 0.0
C4228 C 0.9753 0.0499 0.31166 0.0
C4229 C 0.98612 0.04323 0.32936 0.0
C4230 C 0.99117 0.02195 0.33117 0.0
C4231 C 0.06385 0.93326 0.35299 0.0
C4232 C 0.06499 0.94424 0.37225 0.0
C4233 C 0.04845 0.93851 0.338 0.0
C4234 C 0.03418 0.9548 0.34228 0.0
C4235 C 0.03715 0.96719 0.36053 0.0
C4236 C 0.05243 0.96206 0.37526 0.0
C4237 C 0.01454 0.95793 0.32954 0.0
C4238 C 0.01054 0.97882 0.32387 0.0
C4239 C 0.99789 0.9416 0.32663 0.0
C4240 C 0.00051 0.91921 0.33272 0.0
C4241 C 0.00485 0.91401 0.3536 0.0
C4242 C 0.007 0.89282 0.35916 0.0
C4243 C 0.00424 0.87661 0.3441 0.0
C4244 C -0.00073 0.88157 0.32347 0.0
C4245 C 0.99754 0.90278 0.31774 0.0
H4246 H 0.00582 0.8602 0.34843 0.0
H4247 H 0.97121 0.06633 0.31044 0.0
H4248 H 0.43594 0.29612 0.18626 0.0
H4249 H 0.42348 0.31309 0.21846 0.0
H4250 H 0.48444 0.35056 0.22211 0.0
H4251 H 0.4972 0.33332 0.18988 0.0
H4252 H 0.47451 0.33252 0.25907 0.0
H4253 H 0.43808 0.37504 0.21162 0.0
H4254 H 0.41591 0.38345 0.18109 0.0
H4255 H 0.36063 0.348 0.20751 0.0
H4256 H 0.38255 0.33913 0.23808 0.0
H4257 H 0.42131 0.39391 0.34304 0.0
H4258 H 0.44299 0.38226 0.31274 0.0
H4259 H 0.39404 0.33205 0.3 0.0
H4260 H 0.37243 0.34362 0.32995 0.0
H4261 H 0.40168 0.36247 0.2674 0.0
H4262 H 0.44147 0.31883 0.31465 0.0
H4263 H 0.4648 0.3132 0.34511 0.0
H4264 H 0.51525 0.35513 0.31884 0.0
H4265 H 0.49209 0.36118 0.28833 0.0
C4266 C 0.44655 0.30826 0.19367 0.0
C4267 C 0.46753 0.31341 0.18554 0.0
C4268 C 0.4394 0.31797 0.21208 0.0
C4269 C 0.45301 0.33315 0.22265 0.0
C4270 C 0.47371 0.33886 0.21421 0.0
C4271 C 0.48089 0.32913 0.19573 0.0
C4272 C 0.44584 0.34201 0.24307 0.0
C4273 C 0.45876 0.33943 0.26085 0.0
C4274 C 0.42532 0.35104 0.2454 0.0
C4275 C 0.41202 0.35627 0.22705 0.0
C4276 C 0.42124 0.36888 0.21083 0.0
C4277 C 0.40871 0.37377 0.19354 0.0
C4278 C 0.38689 0.36622 0.19234 0.0
C4279 C 0.37754 0.35382 0.20846 0.0
C4280 C 0.39 0.34888 0.22578 0.0
C4281 C 0.41567 0.37989 0.33424 0.0
C4282 C 0.39513 0.36979 0.33864 0.0
C4283 C 0.42798 0.37333 0.31691 0.0
C4284 C 0.4199 0.35648 0.30406 0.0
C4285 C 0.4004 0.34521 0.30966 0.0
C4286 C 0.38814 0.35177 0.32681 0.0
C4287 C 0.42991 0.35213 0.28339 0.0
C4288 C 0.41752 0.35572 0.26555 0.0
C4289 C 0.45102 0.34442 0.28104 0.0
C4290 C 0.46493 0.3407 0.29935 0.0
C4291 C 0.45744 0.32703 0.31548 0.0
C4292 C 0.47066 0.3237 0.33272 0.0
C4293 C 0.49146 0.33387 0.33395 0.0
C4294 C 0.49912 0.34731 0.3179 0.0
C4295 C 0.48595 0.35068 0.30062 0.0
H4296 H 0.50168 0.33127 0.34732 0.0
H4297 H 0.37721 0.37002 0.17894 0.0
H4298 H 0.48341 0.7464 0.91902 0.0
H4299 H 0.47126 0.73158 0.95259 0.0
H4300 H 0.42404 0.77968 0.95905 0.0
H4301 H 0.43632 0.79477 0.92533 0.0
H4302 H 0.44695 0.7764 0.99478 0.0
H4303 H 0.40626 0.72898 0.94992 0.0
H4304 H 0.39935 0.70446 0.91998 0.0
H4305 H 0.44488 0.66182 0.94442 0.0
H4306 H 0.45228 0.68623 0.97437 0.0
H4307 H 0.39106 0.69988 0.07288 0.0
H4308 H 0.39651 0.72224 0.04193 0.0
H4309 H 0.46578 0.71415 0.04438 0.0
H4310 H 0.46054 0.69344 0.07652 0.0
H4311 H 0.42705 0.69973 0.00496 0.0
H4312 H 0.46933 0.75307 0.04908 0.0
H4313 H 0.47123 0.77779 0.07935 0.0
H4314 H 0.41689 0.81015 0.05573 0.0
H4315 H 0.41464 0.78545 0.02541 0.0
C4316 C 0.47019 0.75364 0.92739 0.0
C4317 C 0.46077 0.77171 0.91948 0.0
C4318 C 0.46324 0.74513 0.9466 0.0
C4319 C 0.44668 0.75447 0.95833 0.0
C4320 C 0.43686 0.77224 0.95027 0.0
C4321 C 0.44377 0.78073 0.93094 0.0
C4322 C 0.44045 0.74604 0.97936 0.0
C4323 C 0.44241 0.75967 0.99696 0.0
C4324 C 0.43431 0.72427 0.98227 0.0
C4325 C 0.42997 0.70953 0.96428 0.0
C4326 C 0.41494 0.71446 0.94881 0.0
C4327 C 0.4109 0.70056 0.93186 0.0
C4328 C 0.42171 0.68162 0.93027 0.0
C4329 C 0.43653 0.67651 0.94566 0.0
C4330 C 0.44064 0.69036 0.96264 0.0
C4331 C 0.40755 0.70429 0.06779 0.0
C4332 C 0.42545 0.696 0.07784 0.0
C4333 C 0.41062 0.71661 0.04979 0.0
C4334 C 0.43161 0.7203 0.04121 0.0
C4335 C 0.44954 0.71205 0.05118 0.0
C4336 C 0.44652 0.70018 0.06946 0.0
C4337 C 0.43445 0.72987 0.02024 0.0
C4338 C 0.43164 0.71644 0.00268 0.0
C4339 C 0.43946 0.75182 0.0174 0.0
C4340 C 0.44127 0.76691 0.03538 0.0
C4341 C 0.45749 0.76515 0.05057 0.0
C4342 C 0.45876 0.77928 0.06766 0.0
C4343 C 0.44404 0.79539 0.06959 0.0
C4344 C 0.42816 0.79754 0.05433 0.0
C4345 C 0.42687 0.78346 0.03721 0.0
H4346 H 0.44504 0.80632 0.08283 0.0
H4347 H 0.41856 0.67088 0.91713 0.0
H4348 H 0.00446 0.75046 0.70998 0.0
H4349 H 0.01592 0.73754 0.74408 0.0
H4350 H 0.07866 0.7238 0.71758 0.0
H4351 H 0.06755 0.73706 0.6836 0.0
H4352 H 0.06242 0.69254 0.74419 0.0
H4353 H 0.07363 0.7666 0.74072 0.0
H4354 H 0.06694 0.8045 0.73703 0.0
H4355 H 0.02756 0.80263 0.79307 0.0
H4356 H 0.0326 0.76428 0.7963 0.0
H4357 H 0.12629 0.71954 0.84204 0.0
H4358 H 0.10488 0.73288 0.81361 0.0
H4359 H 0.05878 0.67893 0.81963 0.0
H4360 H 0.0803 0.66548 0.84835 0.0
H4361 H 0.0656 0.7441 0.80371 0.0
H4362 H 0.05126 0.65855 0.76867 0.0
H4363 H 0.06772 0.62384 0.77065 0.0
H4364 H 0.12883 0.65447 0.78909 0.0
H4365 H 0.11297 0.6895 0.78667 0.0
C4366 C 0.02051 0.74425 0.71133 0.0
C4367 C 0.03515 0.74472 0.69419 0.0
C4368 C 0.02705 0.73706 0.73082 0.0
C4369 C 0.04815 0.72998 0.73334 0.0
C4370 C 0.0623 0.72924 0.71592 0.0
C4371 C 0.05595 0.7368 0.69655 0.0
C4372 C 0.05592 0.72435 0.75433 0.0
C4373 C 0.06277 0.70372 0.75728 0.0
C4374 C 0.05728 0.73933 0.77113 0.0
C4375 C 0.05299 0.76221 0.76841 0.0
C4376 C 0.06288 0.77398 0.75187 0.0
C4377 C 0.05941 0.79562 0.74987 0.0
C4378 C 0.04661 0.80592 0.76466 0.0
C4379 C 0.03721 0.79457 0.78144 0.0
C4380 C 0.04021 0.77281 0.78326 0.0
C4381 C 0.11122 0.71085 0.83775 0.0
C4382 C 0.10519 0.69122 0.84702 0.0
C4383 C 0.09895 0.71854 0.82153 0.0
C4384 C 0.08054 0.70665 0.81418 0.0
C4385 C 0.07316 0.68818 0.8249 0.0
C4386 C 0.08538 0.68055 0.84133 0.0
C4387 C 0.07119 0.7121 0.79374 0.0
C4388 C 0.0644 0.73276 0.79077 0.0
C4389 C 0.07099 0.69761 0.77658 0.0
C4390 C 0.08077 0.67662 0.77785 0.0
C4391 C 0.06823 0.6579 0.77306 0.0
C4392 C 0.0775 0.63816 0.77414 0.0
C4393 C 0.09926 0.63688 0.78004 0.0
C4394 C 0.11193 0.65543 0.78463 0.0
C4395 C 0.10282 0.67526 0.78337 0.0
H4396 H 0.10629 0.62152 0.78102 0.0
H4397 H 0.0442 0.82274 0.76328 0.0
H4398 H 0.06543 0.34039 0.40717 0.0
H4399 H 0.07928 0.34563 0.44279 0.0
H4400 H 0.06221 0.27985 0.45644 0.0
H4401 H 0.04862 0.27441 0.42075 0.0
H4402 H 0.04317 0.30777 0.48377 0.0
H4403 H 0.11394 0.29501 0.45813 0.0
H4404 H 0.14602 0.29816 0.43448 0.0
H4405 H 0.15503 0.36459 0.45 0.0
H4406 H 0.12274 0.36197 0.47342 0.0
H4407 H 0.11926 0.35492 0.5753 0.0
H4408 H 0.11243 0.33106 0.54539 0.0
H4409 H 0.05381 0.3633 0.53218 0.0
H4410 H 0.05975 0.38577 0.56325 0.0
H4411 H 0.11361 0.34196 0.5073 0.0
H4412 H 0.01808 0.33155 0.50106 0.0
H4413 H 0.98618 0.32887 0.52485 0.0
H4414 H 0.02647 0.30783 0.57425 0.0
H4415 H 0.05837 0.30898 0.55043 0.0
C4416 C 0.06529 0.32688 0.41754 0.0
C4417 C 0.05589 0.30702 0.41119 0.0
C4418 C 0.0732 0.32988 0.43789 0.0
C4419 C 0.07169 0.31313 0.45227 0.0
C4420 C 0.06352 0.29297 0.44558 0.0
C4421 C 0.05589 0.28987 0.42513 0.0
C4422 C 0.07609 0.31753 0.47476 0.0
C4423 C 0.05859 0.31509 0.48908 0.0
C4424 C 0.09639 0.32657 0.48163 0.0
C4425 C 0.11579 0.3283 0.46745 0.0
C4426 C 0.12262 0.31034 0.45635 0.0
C4427 C 0.14087 0.31203 0.44301 0.0
C4428 C 0.15254 0.33156 0.44073 0.0
C4429 C 0.14598 0.34947 0.45179 0.0
C4430 C 0.1277 0.34788 0.46511 0.0
C4431 C 0.10425 0.35591 0.56688 0.0
C4432 C 0.08972 0.37163 0.57217 0.0
C4433 C 0.10058 0.34265 0.54939 0.0
C4434 C 0.08246 0.34516 0.53654 0.0
C4435 C 0.06762 0.3606 0.54207 0.0
C4436 C 0.0711 0.37356 0.55979 0.0
C4437 C 0.08028 0.33331 0.51626 0.0
C4438 C 0.09822 0.33432 0.50229 0.0
C4439 C 0.06031 0.32293 0.50978 0.0
C4440 C 0.04084 0.3207 0.52395 0.0
C4441 C 0.02015 0.32603 0.51689 0.0
C4442 C 0.00201 0.32474 0.53039 0.0
C4443 C 0.00434 0.31839 0.5511 0.0
C4444 C 0.02473 0.31293 0.55824 0.0
C4445 C 0.04282 0.31369 0.54467 0.0
H4446 H 0.9903 0.31755 0.56157 0.0
H4447 H 0.16669 0.33282 0.43042 0.0
H4448 H 0.46919 0.73088 0.34854 0.0
H4449 H 0.45785 0.71599 0.31458 0.0
H4450 H 0.52363 0.72641 0.29066 0.0
H4451 H 0.53512 0.74122 0.32472 0.0
H4452 H 0.49567 0.74438 0.26629 0.0
H4453 H 0.50167 0.67558 0.29075 0.0
H4454 H 0.49892 0.64385 0.31309 0.0
H4455 H 0.4289 0.64381 0.31164 0.0
H4456 H 0.4312 0.67567 0.28947 0.0
H4457 H 0.44489 0.70663 0.16864 0.0
H4458 H 0.46955 0.71326 0.19855 0.0
H4459 H 0.41448 0.70609 0.24108 0.0
H4460 H 0.39026 0.69882 0.21175 0.0
H4461 H 0.44551 0.68168 0.25246 0.0
H4462 H 0.44117 0.75416 0.23055 0.0
H4463 H 0.44558 0.78524 0.20747 0.0
H4464 H 0.51474 0.77777 0.20372 0.0
H4465 H 0.51068 0.74635 0.22644 0.0
C4466 C 0.48137 0.72945 0.33624 0.0
C4467 C 0.50301 0.73728 0.33929 0.0
C4468 C 0.47491 0.72082 0.31683 0.0
C4469 C 0.48992 0.71997 0.30004 0.0
C4470 C 0.5118 0.7268 0.30339 0.0
C4471 C 0.51834 0.73521 0.32289 0.0
C4472 C 0.48186 0.7149 0.27856 0.0
C4473 C 0.48504 0.73046 0.26307 0.0
C4474 C 0.46824 0.69659 0.27424 0.0
C4475 C 0.46663 0.67818 0.2886 0.0
C4476 C 0.48568 0.669 0.29544 0.0
C4477 C 0.4842 0.65092 0.308 0.0
C4478 C 0.46375 0.64185 0.31382 0.0
C4479 C 0.44473 0.65088 0.30715 0.0
C4480 C 0.44612 0.66894 0.29458 0.0
C4481 C 0.43818 0.70637 0.1844 0.0
C4482 C 0.41575 0.70168 0.18783 0.0
C4483 C 0.45219 0.71041 0.20145 0.0
C4484 C 0.44388 0.70989 0.2221 0.0
C4485 C 0.42134 0.70631 0.22534 0.0
C4486 C 0.40746 0.70233 0.20847 0.0
C4487 C 0.45837 0.71171 0.24064 0.0
C4488 C 0.45646 0.69542 0.25551 0.0
C4489 C 0.47326 0.7293 0.24427 0.0
C4490 C 0.47555 0.7476 0.22983 0.0
C4491 C 0.45726 0.75888 0.22448 0.0
C4492 C 0.45971 0.77662 0.21153 0.0
C4493 C 0.48041 0.78339 0.20401 0.0
C4494 C 0.4987 0.77243 0.20944 0.0
C4495 C 0.49633 0.75463 0.22232 0.0
H4496 H 0.48228 0.79721 0.19409 0.0
H4497 H 0.46264 0.62779 0.32346 0.0
H4498 H 0.05239 0.77209 0.07786 0.0
H4499 H 0.07264 0.75808 0.04773 0.0
H4500 H 0.02548 0.70481 0.04324 0.0
H4501 H 0.00554 0.71843 0.07334 0.0
H4502 H 0.06524 0.6917 0.03867 0.0
H4503 H 0.02421 0.74864 0.01142 0.0
H4504 H 0.01339 0.78568 0.00878 0.0
H4505 H 0.07945 0.80617 0.99301 0.0
H4506 H 0.09074 0.76929 0.99585 0.0
H4507 H 0.06194 0.67522 0.92267 0.0
H4508 H 0.05688 0.70054 0.95155 0.0
H4509 H 0.11616 0.68126 0.97989 0.0
H4510 H 0.12089 0.65562 0.95117 0.0
H4511 H 0.07633 0.73345 0.97355 0.0
H4512 H 0.1053 0.67184 0.03086 0.0
H4513 H 0.11198 0.63353 0.03186 0.0
H4514 H 0.06259 0.6206 0.9855 0.0
H4515 H 0.05544 0.65876 0.98446 0.0
C4516 C 0.04651 0.75728 0.07054 0.0
C4517 C 0.02739 0.74633 0.07796 0.0
C4518 C 0.05801 0.74938 0.05327 0.0
C4519 C 0.05047 0.73049 0.04312 0.0
C4520 C 0.03165 0.71938 0.05084 0.0
C4521 C 0.02023 0.72721 0.06805 0.0
C4522 C 0.0618 0.72211 0.0243 0.0
C4523 C 0.0679 0.70096 0.02455 0.0
C4524 C 0.06518 0.7341 0.00577 0.0
C4525 C 0.05839 0.75626 0.00416 0.0
C4526 C 0.03647 0.76107 0.0076 0.0
C4527 C 0.03024 0.78203 0.00603 0.0
C4528 C 0.04573 0.79827 0.00082 0.0
C4529 C 0.06748 0.79358 0.99711 0.0
C4530 C 0.07381 0.77266 -0.00129 0.0
C4531 C 0.07438 0.67718 0.93457 0.0
C4532 C 0.09201 0.66392 0.93459 0.0
C4533 C 0.07149 0.6916 0.95109 0.0
C4534 C 0.08598 0.69258 0.96803 0.0
C4535 C 0.10467 0.68061 0.96709 0.0
C4536 C 0.10749 0.66613 0.95061 0.0
C4537 C 0.07939 0.70301 0.98794 0.0
C4538 C 0.07419 0.72445 0.9879 0.0
C4539 C 0.07625 0.69117 0.00657 0.0
C4540 C 0.08005 0.66814 0.00742 0.0
C4541 C 0.09584 0.66079 0.02095 0.0
C4542 C 0.0997 0.63911 0.02152 0.0
C4543 C 0.08777 0.62465 0.0087 0.0
C4544 C 0.07186 0.63182 0.99537 0.0
C4545 C 0.0679 0.65346 0.99479 0.0
H4546 H 0.09083 0.60789 0.00912 0.0
H4547 H 0.04087 0.81448 -0.00041 0.0
H4548 H 0.07155 0.31801 0.84317 0.0
H4549 H 0.07941 0.33516 0.80957 0.0
H4550 H 0.01321 0.35499 0.80737 0.0
H4551 H 0.00518 0.3377 0.84099 0.0
H4552 H 0.02428 0.3363 0.77118 0.0
H4553 H 0.05495 0.39184 0.81427 0.0
H4554 H 0.07723 0.40834 0.84267 0.0
H4555 H 0.13551 0.38699 0.81305 0.0
H4556 H 0.11355 0.37009 0.78461 0.0
H4557 H 0.09105 0.40686 0.68827 0.0
H4558 H 0.07036 0.40225 0.72119 0.0
H4559 H 0.07579 0.33433 0.71619 0.0
H4560 H 0.09651 0.33898 0.68328 0.0
H4561 H 0.08897 0.38472 0.75607 0.0
H4562 H 0.02912 0.31079 0.74004 0.0
H4563 H 0.00521 0.29689 0.71161 0.0
H4564 H 0.00215 0.35983 0.68701 0.0
H4565 H 0.02559 0.37421 0.71552 0.0
C4566 C 0.05878 0.32639 0.83576 0.0
C4567 C 0.03776 0.32652 0.84476 0.0
C4568 C 0.0633 0.33622 0.81654 0.0
C4569 C 0.04692 0.34643 0.80594 0.0
C4570 C 0.0261 0.34719 0.81524 0.0
C4571 C 0.02158 0.33743 0.83452 0.0
C4572 C 0.05128 0.35499 0.78457 0.0
C4573 C 0.03832 0.34701 0.76789 0.0
C4574 C 0.06924 0.36943 0.7803 0.0
C4575 C 0.08256 0.37959 0.79736 0.0
C4576 C 0.0725 0.39053 0.81389 0.0
C4577 C 0.08508 0.39998 0.82998 0.0
C4578 C 0.10776 0.39868 0.82968 0.0
C4579 C 0.11793 0.38797 0.81326 0.0
C4580 C 0.10542 0.37848 0.79713 0.0
C4581 C 0.08696 0.39091 0.69375 0.0
C4582 C 0.09482 0.37321 0.68305 0.0
C4583 C 0.07543 0.38832 0.71269 0.0
C4584 C 0.07149 0.36795 0.7211 0.0
C4585 C 0.07841 0.35016 0.70984 0.0
C4586 C 0.09018 0.35279 0.69106 0.0
C4587 C 0.06255 0.36528 0.74268 0.0
C4588 C 0.07471 0.37429 0.7594 0.0
C4589 C 0.04366 0.3521 0.74697 0.0
C4590 C 0.02932 0.34355 0.72987 0.0
C4591 C 0.02327 0.32169 0.72864 0.0
C4592 C 0.00979 0.31372 0.71249 0.0
C4593 C 0.00224 0.32744 0.69747 0.0
C4594 C 0.00807 0.34919 0.69861 0.0
C4595 C 0.02147 0.35726 0.71476 0.0
H4596 H 0.99184 0.32123 0.68498 0.0
H4597 H 0.11748 0.40601 0.84216 0.0
H4598 H 0.41573 0.29776 0.58841 0.0
H4599 H 0.39652 0.31092 0.55808 0.0
H4600 H 0.44663 0.36127 0.55092 0.0
H4601 H 0.46539 0.34865 0.58144 0.0
H4602 H 0.40864 0.37571 0.54211 0.0
H4603 H 0.447 0.31167 0.52474 0.0
H4604 H 0.45362 0.27364 0.52873 0.0
H4605 H 0.38747 0.25681 0.51094 0.0
H4606 H 0.38029 0.29482 0.50755 0.0
H4607 H 0.432 0.37601 0.42869 0.0
H4608 H 0.42839 0.35385 0.45984 0.0
H4609 H 0.36745 0.3817 0.47563 0.0
H4610 H 0.37135 0.4042 0.44455 0.0
H4611 H 0.40145 0.32569 0.48148 0.0
H4612 H 0.37068 0.39686 0.5267 0.0
H4613 H 0.36738 0.43552 0.52256 0.0
H4614 H 0.42471 0.43869 0.48312 0.0
H4615 H 0.42848 0.40014 0.48728 0.0
C4616 C 0.42237 0.31189 0.5806 0.0
C4617 C 0.44216 0.32209 0.58719 0.0
C4618 C 0.41144 0.31933 0.56322 0.0
C4619 C 0.42032 0.33687 0.55197 0.0
C4620 C 0.43943 0.34771 0.5593 0.0
C4621 C 0.4502 0.34044 0.57675 0.0
C4622 C 0.41099 0.34321 0.53172 0.0
C4623 C 0.4067 0.36466 0.52898 0.0
C4624 C 0.40848 0.32886 0.51448 0.0
C4625 C 0.41303 0.30606 0.51612 0.0
C4626 C 0.43383 0.29986 0.52183 0.0
C4627 C 0.43767 0.27832 0.52402 0.0
C4628 C 0.42099 0.26281 0.52007 0.0
C4629 C 0.40039 0.26883 0.514 0.0
C4630 C 0.3964 0.29036 0.51202 0.0
C4631 C 0.41731 0.37658 0.43826 0.0
C4632 C 0.40177 0.39145 0.43413 0.0
C4633 C 0.41525 0.36394 0.45608 0.0
C4634 C 0.39781 0.36633 0.47023 0.0
C4635 C 0.38111 0.3797 0.46499 0.0
C4636 C 0.38321 0.39239 0.44714 0.0
C4637 C 0.39967 0.35823 0.49187 0.0
C4638 C 0.40262 0.33653 0.49484 0.0
C4639 C 0.40145 0.3724 0.50928 0.0
C4640 C 0.39968 0.39564 0.5071 0.0
C4641 C 0.38261 0.40586 0.51722 0.0
C4642 C 0.38066 0.42773 0.51486 0.0
C4643 C 0.39578 0.43953 0.50252 0.0
C4644 C 0.41297 0.42952 0.49262 0.0
C4645 C 0.41503 0.40768 0.49498 0.0
H4646 H 0.39421 0.45645 0.50067 0.0
H4647 H 0.42404 0.24614 0.52168 0.0
H4648 H 0.18554 0.56347 0.34424 0.0
H4649 H 0.21871 0.55073 0.35979 0.0
H4650 H 0.19981 0.48674 0.3397 0.0
H4651 H 0.16668 0.4993 0.32426 0.0
H4652 H 0.22119 0.48749 0.37746 0.0
H4653 H 0.22851 0.52001 0.30864 0.0
H4654 H 0.22597 0.5503 0.28483 0.0
H4655 H 0.27354 0.58676 0.3212 0.0
H4656 H 0.27569 0.55696 0.34576 0.0
H4657 H 0.31891 0.44751 0.32299 0.0
H4658 H 0.29375 0.47623 0.32486 0.0
H4659 H 0.29915 0.47786 0.39226 0.0
H4660 H 0.32296 0.44801 0.39023 0.0
H4661 H 0.28692 0.51482 0.338 0.0
H4662 H 0.25098 0.48212 0.4138 0.0
H4663 H 0.25221 0.45036 0.43603 0.0
H4664 H 0.26128 0.41124 0.38129 0.0
H4665 H 0.25989 0.44275 0.35877 0.0
C4666 C 0.18812 0.54658 0.34372 0.0
C4667 C 0.17367 0.53239 0.3328 0.0
C4668 C 0.20711 0.53936 0.35257 0.0
C4669 C 0.21188 0.51786 0.35059 0.0
C4670 C 0.19647 0.5034 0.34137 0.0
C4671 C 0.17756 0.51061 0.33249 0.0
C4672 C 0.23392 0.51067 0.35533 0.0
C4673 C 0.23567 0.49376 0.36918 0.0
C4674 C 0.2528 0.51876 0.3444 0.0
C4675 C 0.25198 0.53639 0.32925 0.0
C4676 C 0.23825 0.53457 0.31171 0.0
C4677 C 0.23684 0.55166 0.2981 0.0
C4678 C 0.24955 0.57046 0.30153 0.0
C4679 C 0.26366 0.57221 0.3186 0.0
C4680 C 0.2649 0.55526 0.33243 0.0
C4681 C 0.3155 0.45471 0.33811 0.0
C4682 C 0.32336 0.44601 0.35651 0.0
C4683 C 0.30108 0.47113 0.3392 0.0
C4684 C 0.29419 0.47899 0.35875 0.0
C4685 C 0.30409 0.47197 0.377 0.0
C4686 C 0.31825 0.4553 0.37589 0.0
C4687 C 0.27417 0.49133 0.35988 0.0
C4688 C 0.27271 0.50913 0.34701 0.0
C4689 C 0.25543 0.48387 0.37143 0.0
C4690 C 0.25545 0.46474 0.38469 0.0
C4691 C 0.25307 0.4667 0.40654 0.0
C4692 C 0.25385 0.44877 0.41918 0.0
C4693 C 0.25686 0.4288 0.41008 0.0
C4694 C 0.25897 0.4267 0.38832 0.0
C4695 C 0.25816 0.44458 0.37561 0.0
H4696 H 0.25753 0.41495 0.41989 0.0
H4697 H 0.24853 0.58364 0.29091 0.0
H4698 H 0.32208 0.45871 0.01036 0.0
H4699 H 0.33264 0.494 0.02422 0.0
H4700 H 0.28209 0.48742 0.07166 0.0
H4701 H 0.27115 0.45195 0.0576 0.0
H4702 H 0.28425 0.52764 0.0534 0.0
H4703 H 0.33288 0.48169 0.08586 0.0
H4704 H 0.35892 0.45325 0.08739 0.0
H4705 H 0.40348 0.48891 0.04705 0.0
H4706 H 0.37756 0.51744 0.04503 0.0
H4707 H 0.34039 0.61558 0.11251 0.0
H4708 H 0.31871 0.58387 0.10021 0.0
H4709 H 0.36361 0.57735 0.04823 0.0
H4710 H 0.3854 0.60835 0.06071 0.0
H4711 H 0.36147 0.54283 0.07372 0.0
H4712 H 0.31137 0.5881 0.04004 0.0
H4713 H 0.28513 0.61639 0.03905 0.0
H4714 H 0.24338 0.58226 0.08308 0.0
H4715 H 0.26954 0.55387 0.08455 0.0
C4716 C 0.31329 0.46465 0.02384 0.0
C4717 C 0.29596 0.45243 0.03306 0.0
C4718 C 0.31931 0.48487 0.03172 0.0
C4719 C 0.30827 0.49326 0.04908 0.0
C4720 C 0.29081 0.48122 0.05825 0.0
C4721 C 0.28474 0.46091 0.05033 0.0
C4722 C 0.31557 0.51441 0.05777 0.0
C4723 C 0.30104 0.53094 0.0582 0.0
C4724 C 0.33747 0.5187 0.0639 0.0
C4725 C 0.3532 0.50164 0.06518 0.0
C4726 C 0.34816 0.4834 0.0772 0.0
C4727 C 0.36291 0.46728 0.07817 0.0
C4728 C 0.38283 0.46926 0.06729 0.0
C4729 C 0.38805 0.4874 0.05546 0.0
C4730 C 0.37335 0.50356 0.05442 0.0
C4731 C 0.34517 0.6077 0.09814 0.0
C4732 C 0.36481 0.61404 0.08785 0.0
C4733 C 0.3328 0.58962 0.09111 0.0
C4734 C 0.33981 0.57804 0.07351 0.0
C4735 C 0.35808 0.58586 0.062 0.0
C4736 C 0.37048 0.60363 0.06911 0.0
C4737 C 0.33043 0.55634 0.0686 0.0
C4738 C 0.34461 0.53958 0.06908 0.0
C4739 C 0.30824 0.55194 0.06348 0.0
C4740 C 0.29254 0.56899 0.0626 0.0
C4741 C 0.2967 0.58673 0.04968 0.0
C4742 C 0.28182 0.60275 0.04899 0.0
C4743 C 0.26263 0.60116 0.06105 0.0
C4744 C 0.25827 0.58349 0.07378 0.0
C4745 C 0.27311 0.56742 0.07453 0.0
H4746 H 0.25113 0.61358 0.06049 0.0
H4747 H 0.39422 0.45675 0.06806 0.0
H4748 H 0.33476 0.56991 0.78542 0.0
H4749 H 0.30198 0.5831 0.80154 0.0
H4750 H 0.3143 0.54882 0.85802 0.0
H4751 H 0.34683 0.53458 0.84135 0.0
H4752 H 0.27351 0.54341 0.84984 0.0
H4753 H 0.32083 0.60513 0.855 0.0
H4754 H 0.34794 0.63312 0.84361 0.0
H4755 H 0.30294 0.6543 0.79824 0.0
H4756 H 0.27566 0.62625 0.80914 0.0
H4757 H 0.1992 0.62854 0.8928 0.0
H4758 H 0.22922 0.60451 0.88905 0.0
H4759 H 0.20914 0.58937 0.82585 0.0
H4760 H 0.17876 0.61287 0.82983 0.0
H4761 H 0.25473 0.61869 0.84393 0.0
H4762 H 0.2078 0.55248 0.84108 0.0
H4763 H 0.18324 0.52409 0.85585 0.0
H4764 H 0.23072 0.51207 0.90257 0.0
H4765 H 0.25512 0.54115 0.88879 0.0
C4766 C 0.33077 0.56545 0.80141 0.0
C4767 C 0.3435 0.55134 0.81218 0.0
C4768 C 0.31198 0.57308 0.81068 0.0
C4769 C 0.30575 0.56729 0.83119 0.0
C4770 C 0.31875 0.55357 0.84221 0.0
C4771 C 0.33743 0.54559 0.83275 0.0
C4772 C 0.28511 0.57488 0.84047 0.0
C4773 C 0.26956 0.55996 0.84886 0.0
C4774 C 0.27991 0.59648 0.8394 0.0
C4775 C 0.29624 0.61348 0.83282 0.0
C4776 C 0.31676 0.61567 0.8425 0.0
C4777 C 0.33216 0.63156 0.83614 0.0
C4778 C 0.32718 0.64546 0.82019 0.0
C4779 C 0.30678 0.64352 0.81059 0.0
C4780 C 0.29132 0.62765 0.81688 0.0
C4781 C 0.20037 0.61896 0.87864 0.0
C4782 C 0.18625 0.62188 0.86186 0.0
C4783 C 0.21755 0.60531 0.87649 0.0
C4784 C 0.22112 0.59481 0.85734 0.0
C4785 C 0.20621 0.59674 0.841 0.0
C4786 C 0.18883 0.61012 0.84328 0.0
C4787 C 0.24299 0.58711 0.85244 0.0
C4788 C 0.25884 0.60219 0.84508 0.0
C4789 C 0.24856 0.56582 0.85504 0.0
C4790 C 0.23312 0.54937 0.86414 0.0
C4791 C 0.21275 0.54428 0.8549 0.0
C4792 C 0.19889 0.52796 0.86305 0.0
C4793 C 0.20536 0.51638 0.88023 0.0
C4794 C 0.22562 0.5212 0.88942 0.0
C4795 C 0.23942 0.53767 0.8815 0.0
H4796 H 0.19474 0.50357 0.88635 0.0
H4797 H 0.33912 0.65775 0.81529 0.0
H4798 H 0.18882 0.61479 0.55225 0.0
H4799 H 0.18213 0.57818 0.56424 0.0
H4800 H 0.25155 0.57052 0.56613 0.0
H4801 H 0.25841 0.60713 0.55425 0.0
H4802 H 0.22793 0.53909 0.54174 0.0
H4803 H 0.2266 0.57005 0.61031 0.0
H4804 H 0.21573 0.59474 0.63837 0.0
H4805 H 0.14887 0.57143 0.6327 0.0
H4806 H 0.1593 0.54679 0.6044 0.0
H4807 H 0.18018 0.44557 0.6143 0.0
H4808 H 0.20424 0.47719 0.6075 0.0
H4809 H 0.17398 0.48369 0.54733 0.0
H4810 H 0.15005 0.45223 0.55426 0.0
H4811 H 0.18466 0.51467 0.6039 0.0
H4812 H 0.20609 0.51333 0.51556 0.0
H4813 H 0.21847 0.48835 0.48837 0.0
H4814 H 0.2482 0.45167 0.53549 0.0
H4815 H 0.23621 0.47657 0.56293 0.0
C4816 C 0.20266 0.60548 0.55571 0.0
C4817 C 0.22413 0.61384 0.55232 0.0
C4818 C 0.19882 0.58456 0.56251 0.0
C4819 C 0.21636 0.57161 0.56588 0.0
C4820 C 0.23781 0.58021 0.56343 0.0
C4821 C 0.24168 0.6012 0.55686 0.0
C4822 C 0.21215 0.54869 0.57039 0.0
C4823 C 0.21875 0.53368 0.55548 0.0
C4824 C 0.20014 0.54171 0.58828 0.0
C4825 C 0.19371 0.55674 0.60506 0.0
C4826 C 0.20954 0.57037 0.61487 0.0
C4827 C 0.20347 0.5843 0.63087 0.0
C4828 C 0.18162 0.5847 0.63727 0.0
C4829 C 0.16579 0.57113 0.62771 0.0
C4830 C 0.17178 0.55715 0.6117 0.0
C4831 C 0.17967 0.45302 0.59917 0.0
C4832 C 0.16348 0.44641 0.58477 0.0
C4833 C 0.19316 0.47127 0.59538 0.0
C4834 C 0.19083 0.48289 0.57694 0.0
C4835 C 0.17626 0.4749 0.56156 0.0
C4836 C 0.16264 0.45685 0.56548 0.0
C4837 C 0.20044 0.50497 0.57524 0.0
C4838 C 0.19436 0.51996 0.59043 0.0
C4839 C 0.21303 0.51189 0.55767 0.0
C4840 C 0.22016 0.49676 0.5413 0.0
C4841 C 0.21529 0.49995 0.52011 0.0
C4842 C 0.22223 0.4858 0.50466 0.0
C4843 C 0.23408 0.46841 0.5102 0.0
C4844 C 0.23898 0.46512 0.53122 0.0
C4845 C 0.23209 0.47922 0.54674 0.0
H4846 H 0.23947 0.45751 0.49821 0.0
H4847 H 0.17695 0.59549 0.64967 0.0
H4848 H 0.18351 0.54845 0.2277 0.0
H4849 H 0.2193 0.55512 0.21071 0.0
H4850 H 0.23501 0.60494 0.25604 0.0
H4851 H 0.1992 0.59882 0.27254 0.0
H4852 H 0.24628 0.61815 0.21932 0.0
H4853 H 0.25841 0.5538 0.25734 0.0
H4854 H 0.25033 0.51645 0.26765 0.0
H4855 H 0.25715 0.4962 0.20348 0.0
H4856 H 0.26506 0.53344 0.19286 0.0
H4857 H 0.3547 0.63979 0.20723 0.0
H4858 H 0.32506 0.6187 0.22417 0.0
H4859 H 0.31085 0.58632 0.16555 0.0
H4860 H 0.3409 0.60725 0.14865 0.0
H4861 H 0.29888 0.56207 0.20608 0.0
H4862 H 0.28732 0.62732 0.16863 0.0
H4863 H 0.29717 0.66464 0.15965 0.0
H4864 H 0.28988 0.68318 0.22427 0.0
H4865 H 0.28028 0.64587 0.23366 0.0
C4866 C 0.19457 0.56094 0.23389 0.0
C4867 C 0.18846 0.57326 0.25132 0.0
C4868 C 0.21512 0.56457 0.22433 0.0
C4869 C 0.23004 0.58035 0.23224 0.0
C4870 C 0.22383 0.5927 0.24959 0.0
C4871 C 0.20328 0.58923 0.25898 0.0
C4872 C 0.25183 0.58477 0.22215 0.0
C4873 C 0.25776 0.60583 0.21666 0.0
C4874 C 0.26675 0.56871 0.21804 0.0
C4875 C 0.262 0.54637 0.22432 0.0
C4876 C 0.25795 0.54136 0.24546 0.0
C4877 C 0.25346 0.52024 0.25135 0.0
C4878 C 0.25312 0.50398 0.23622 0.0
C4879 C 0.25736 0.50881 0.21518 0.0
C4880 C 0.26188 0.52991 0.20923 0.0
C4881 C 0.34619 0.62719 0.19831 0.0
C4882 C 0.35002 0.62509 0.17667 0.0
C4883 C 0.32915 0.61526 0.20795 0.0
C4884 C 0.31553 0.60128 0.196 0.0
C4885 C 0.3212 0.59702 0.17503 0.0
C4886 C 0.33843 0.60892 0.16539 0.0
C4887 C 0.29323 0.59539 0.20393 0.0
C4888 C 0.28722 0.57421 0.20877 0.0
C4889 C 0.27813 0.6113 0.20754 0.0
C4890 C 0.28327 0.63381 0.20186 0.0
C4891 C 0.28793 0.63934 0.18093 0.0
C4892 C 0.29344 0.66049 0.17576 0.0
C4893 C 0.2942 0.67627 0.19139 0.0
C4894 C 0.28932 0.67094 0.21219 0.0
C4895 C 0.28381 0.6498 0.21744 0.0
H4896 H 0.29852 0.69262 0.18737 0.0
H4897 H 0.24964 0.48764 0.2408 0.0
H4898 H 0.26402 0.44552 0.94456 0.0
H4899 H 0.24697 0.47668 0.93065 0.0
H4900 H 0.19048 0.46349 0.97032 0.0
H4901 H 0.2072 0.4323 0.98398 0.0
H4902 H 0.17841 0.47744 0.93329 0.0
H4903 H 0.23115 0.4984 0.98577 0.0
H4904 H 0.26755 0.50075 0.00201 0.0
H4905 H 0.29425 0.53367 0.94818 0.0
H4906 H 0.25804 0.53122 0.93148 0.0
H4907 H 0.13563 0.5778 0.95092 0.0
H4908 H 0.15719 0.54727 0.95854 0.0
H4909 H 0.19666 0.55982 0.90323 0.0
H4910 H 0.17406 0.58939 0.89482 0.0
H4911 H 0.21911 0.54691 0.94483 0.0
H4912 H 0.16189 0.52786 0.8949 0.0
H4913 H 0.12394 0.52597 0.88256 0.0
H4914 H 0.10365 0.48981 0.93669 0.0
H4915 H 0.14152 0.49179 0.94955 0.0
C4916 C 0.24775 0.449 0.94992 0.0
C4917 C 0.23699 0.4366 0.96546 0.0
C4918 C 0.23812 0.46687 0.94209 0.0
C4919 C 0.21765 0.4726 0.94976 0.0
C4920 C 0.20632 0.45941 0.96424 0.0
C4921 C 0.21591 0.4416 0.97205 0.0
C4922 C 0.20853 0.493 0.94392 0.0
C4923 C 0.18731 0.4926 0.93585 0.0
C4924 C 0.22018 0.51281 0.94724 0.0
C4925 C 0.24195 0.51439 0.95726 0.0
C4926 C 0.24482 0.50598 0.97732 0.0
C4927 C 0.26541 0.50735 0.98662 0.0
C4928 C 0.28321 0.51729 0.9761 0.0
C4929 C 0.28045 0.52593 0.95628 0.0
C4930 C 0.2599 0.52455 0.94689 0.0
C4931 C 0.14917 0.57431 0.94061 0.0
C4932 C 0.15362 0.58637 0.92251 0.0
C4933 C 0.16148 0.55693 0.94502 0.0
C4934 C 0.17849 0.55143 0.93147 0.0
C4935 C 0.18377 0.56406 0.91401 0.0
C4936 C 0.17116 0.58121 0.90941 0.0
C4937 C 0.18905 0.5312 0.9344 0.0
C4938 C 0.21042 0.53168 0.94201 0.0
C4939 C 0.17736 0.51146 0.93115 0.0
C4940 C 0.15459 0.51012 0.92328 0.0
C4941 C 0.14937 0.51964 0.90427 0.0
C4942 C 0.12784 0.51853 0.89716 0.0
C4943 C 0.11138 0.50781 0.90885 0.0
C4944 C 0.11642 0.49813 0.92766 0.0
C4945 C 0.13793 0.49923 0.93485 0.0
H4946 H 0.09472 0.50696 0.90332 0.0
H4947 H 0.29913 0.51835 0.98334 0.0
H4948 H 0.31197 0.49716 0.77314 0.0
H4949 H 0.27667 0.49057 0.75641 0.0
H4950 H 0.30921 0.48199 0.6967 0.0
H4951 H 0.34462 0.49024 0.71333 0.0
H4952 H 0.27607 0.50251 0.69012 0.0
H4953 H 0.28562 0.43908 0.72913 0.0
H4954 H 0.29247 0.41775 0.76032 0.0
H4955 H 0.23581 0.44149 0.79091 0.0
H4956 H 0.22877 0.46317 0.75998 0.0
H4957 H 0.20208 0.42937 0.6404 0.0
H4958 H 0.23039 0.45248 0.65647 0.0
H4959 H 0.18493 0.4698 0.7051 0.0
H4960 H 0.15609 0.44678 0.68844 0.0
H4961 H 0.22082 0.45039 0.71961 0.0
H4962 H 0.20946 0.50864 0.67362 0.0
H4963 H 0.20503 0.5269 0.64008 0.0
H4964 H 0.2676 0.50717 0.61887 0.0
H4965 H 0.27232 0.48861 0.65215 0.0
C4966 C 0.31158 0.49367 0.75647 0.0
C4967 C 0.33099 0.49389 0.74453 0.0
C4968 C 0.29137 0.48984 0.74691 0.0
C4969 C 0.29016 0.48529 0.72532 0.0
C4970 C 0.30964 0.48544 0.71338 0.0
C4971 C 0.32987 0.48996 0.72287 0.0
C4972 C 0.26863 0.48056 0.71517 0.0
C4973 C 0.26409 0.49095 0.69648 0.0
C4974 C 0.25262 0.46594 0.72373 0.0
C4975 C 0.25683 0.45294 0.74235 0.0
C4976 C 0.27472 0.43987 0.74257 0.0
C4977 C 0.27862 0.4277 0.76019 0.0
C4978 C 0.26463 0.42832 0.77761 0.0
C4979 C 0.24666 0.44107 0.77743 0.0
C4980 C 0.2427 0.45329 0.75985 0.0
C4981 C 0.1978 0.43901 0.65388 0.0
C4982 C 0.17687 0.4367 0.66299 0.0
C4983 C 0.21402 0.4522 0.66309 0.0
C4984 C 0.20978 0.46302 0.68191 0.0
C4985 C 0.18845 0.46176 0.69043 0.0
C4986 C 0.17198 0.44876 0.6809 0.0
C4987 C 0.22854 0.47192 0.69429 0.0
C4988 C 0.23262 0.46226 0.71346 0.0
C4989 C 0.24443 0.48659 0.68574 0.0
C4990 C 0.24123 0.49723 0.66543 0.0
C4991 C 0.22218 0.50803 0.66174 0.0
C4992 C 0.21965 0.51849 0.64277 0.0
C4993 C 0.23608 0.51825 0.62739 0.0
C4994 C 0.25494 0.5074 0.63084 0.0
C4995 C 0.25757 0.49696 0.64976 0.0
H4996 H 0.23433 0.52653 0.61283 0.0
H4997 H 0.26767 0.41888 0.79124 0.0
H4998 H 0.2363 0.59829 0.47558 0.0
H4999 H 0.2541 0.56725 0.46139 0.0
H5000 H 0.31517 0.60438 0.45684 0.0
H5001 H 0.29758 0.63542 0.47155 0.0
H5002 H 0.30463 0.57741 0.42093 0.0
H5003 H 0.30793 0.57599 0.4957 0.0
H5004 H 0.29488 0.57501 0.53235 0.0
H5005 H 0.26008 0.51519 0.52046 0.0
H5006 H 0.27178 0.51634 0.4834 0.0
H5007 H 0.38302 0.49988 0.41406 0.0
H5008 H 0.36122 0.5296 0.42447 0.0
H5009 H 0.3058 0.48603 0.43643 0.0
H5010 H 0.32789 0.45601 0.42663 0.0
H5011 H 0.311 0.51534 0.46724 0.0
H5012 H 0.30793 0.51694 0.39225 0.0
H5013 H 0.32333 0.51706 0.35628 0.0
H5014 H 0.35936 0.57597 0.36945 0.0
H5015 H 0.34478 0.57585 0.40566 0.0
C5016 C 0.25344 0.59995 0.47125 0.0
C5017 C 0.26559 0.61926 0.47466 0.0
C5018 C 0.26359 0.58218 0.46326 0.0
C5019 C 0.28595 0.58353 0.45826 0.0
C5020 C 0.29789 0.60307 0.46066 0.0
C5021 C 0.28784 0.62075 0.46904 0.0
C5022 C 0.29711 0.56436 0.45134 0.0
C5023 C 0.30616 0.56388 0.43108 0.0
C5024 C 0.29861 0.54656 0.46452 0.0
C5025 C 0.29042 0.54648 0.48656 0.0
C5026 C 0.29698 0.5629 0.50069 0.0
C5027 C 0.28982 0.5623 0.52158 0.0
C5028 C 0.27647 0.54513 0.52867 0.0
C5029 C 0.27012 0.52862 0.51486 0.0
C5030 C 0.27693 0.52929 0.49388 0.0
C5031 C 0.36622 0.49658 0.41903 0.0
C5032 C 0.35705 0.47563 0.41925 0.0
C5033 C 0.35371 0.51362 0.42475 0.0
C5034 C 0.33173 0.5101 0.43076 0.0
C5035 C 0.32267 0.48913 0.4316 0.0
C5036 C 0.33523 0.47202 0.42587 0.0
C5037 C 0.31857 0.52835 0.43681 0.0
C5038 C 0.30916 0.52871 0.45696 0.0
C5039 C 0.31675 0.54605 0.42356 0.0
C5040 C 0.32544 0.54623 0.40173 0.0
C5041 C 0.31933 0.52977 0.38753 0.0
C5042 C 0.32786 0.52987 0.3671 0.0
C5043 C 0.34226 0.54651 0.36059 0.0
C5044 C 0.3482 0.56308 0.37451 0.0
C5045 C 0.33984 0.56299 0.395 0.0
H5046 H 0.34881 0.54656 0.34476 0.0
H5047 H 0.27124 0.54448 0.54492 0.0
H5048 H 0.30168 0.19651 0.487 0.0
H5049 H 0.31875 0.23119 0.47726 0.0
H5050 H 0.26003 0.24589 0.4449 0.0
H5051 H 0.24346 0.21106 0.45371 0.0
H5052 H 0.2928 0.25881 0.42269 0.0
H5053 H 0.27474 0.26548 0.49678 0.0
H5054 H 0.27631 0.25593 0.53412 0.0
H5055 H 0.34606 0.26745 0.53311 0.0
H5056 H 0.34488 0.27676 0.49568 0.0
H5057 H 0.29787 0.36777 0.41481 0.0
H5058 H 0.28783 0.33452 0.43281 0.0
H5059 H 0.35591 0.32453 0.44301 0.0
H5060 H 0.36603 0.35743 0.42434 0.0
H5061 H 0.32325 0.30896 0.47695 0.0
H5062 H 0.34045 0.30378 0.40297 0.0
H5063 H 0.33801 0.31519 0.36626 0.0
H5064 H 0.26861 0.30134 0.36765 0.0
H5065 H 0.27061 0.29026 0.40454 0.0
C5066 C 0.29259 0.20708 0.47757 0.0
C5067 C 0.27128 0.20105 0.47104 0.0
C5068 C 0.30225 0.22698 0.4722 0.0
C5069 C 0.29056 0.2414 0.46065 0.0
C5070 C 0.26945 0.23512 0.45379 0.0
C5071 C 0.25998 0.21515 0.45881 0.0
C5072 C 0.30002 0.26304 0.45555 0.0
C5073 C 0.29927 0.26974 0.43467 0.0
C5074 C 0.3091 0.27728 0.47097 0.0
C5075 C 0.30975 0.27164 0.49343 0.0
C5076 C 0.29042 0.26584 0.5045 0.0
C5077 C 0.29123 0.26048 0.52568 0.0
C5078 C 0.31127 0.26104 0.53597 0.0
C5079 C 0.33054 0.26699 0.52512 0.0
C5080 C 0.32981 0.27233 0.50394 0.0
C5081 C 0.31063 0.35893 0.42166 0.0
C5082 C 0.33271 0.36536 0.41854 0.0
C5083 C 0.3049 0.33995 0.43191 0.0
C5084 C 0.32115 0.32705 0.43908 0.0
C5085 C 0.34315 0.33438 0.43775 0.0
C5086 C 0.34891 0.35335 0.42732 0.0
C5087 C 0.31527 0.30462 0.44438 0.0
C5088 C 0.31685 0.29784 0.46512 0.0
C5089 C 0.30683 0.29025 0.4289 0.0
C5090 C 0.30566 0.29638 0.40656 0.0
C5091 C 0.32465 0.30332 0.39549 0.0
C5092 C 0.32335 0.30972 0.37466 0.0
C5093 C 0.30316 0.30903 0.36464 0.0
C5094 C 0.28424 0.30188 0.37544 0.0
C5095 C 0.28545 0.29554 0.39631 0.0
H5096 H 0.30218 0.31399 0.34851 0.0
H5097 H 0.31187 0.25689 0.55237 0.0
H5098 H 0.77042 0.34748 0.5231 0.0
H5099 H 0.7907 0.31662 0.53215 0.0
H5100 H 0.84473 0.3584 0.55274 0.0
H5101 H 0.82499 0.38931 0.54184 0.0
H5102 H 0.86081 0.32572 0.53691 0.0
H5103 H 0.80262 0.33405 0.58728 0.0
H5104 H 0.76444 0.33747 0.59896 0.0
H5105 H 0.74647 0.27637 0.5717 0.0
H5106 H 0.78448 0.27273 0.55961 0.0
H5107 H 0.88122 0.25956 0.62886 0.0
H5108 H 0.87472 0.28694 0.60366 0.0
H5109 H 0.85132 0.23911 0.55922 0.0
H5110 H 0.85688 0.21129 0.58524 0.0
H5111 H 0.82199 0.27252 0.58254 0.0
H5112 H 0.88144 0.29316 0.5159 0.0
H5113 H 0.92036 0.29735 0.5058 0.0
H5114 H 0.93807 0.30459 0.57046 0.0
H5115 H 0.89928 0.30238 0.58079 0.0
C5116 C 0.78669 0.35 0.52947 0.0
C5117 C 0.7961 0.37066 0.53216 0.0
C5118 C 0.79825 0.33237 0.53473 0.0
C5119 C 0.81902 0.33508 0.54382 0.0
C5120 C 0.8287 0.35581 0.54589 0.0
C5121 C 0.81741 0.37347 0.53983 0.0
C5122 C 0.83018 0.31644 0.55196 0.0
C5123 C 0.85231 0.31409 0.54691 0.0
C5124 C 0.81915 0.30112 0.56495 0.0
C5125 C 0.79633 0.30321 0.57237 0.0
C5126 C 0.79049 0.3214 0.58369 0.0
C5127 C 0.76888 0.32338 0.59038 0.0
C5128 C 0.75303 0.30717 0.58603 0.0
C5129 C 0.75876 0.28892 0.57503 0.0
C5130 C 0.78033 0.28689 0.56826 0.0
C5131 C 0.87572 0.25474 0.61334 0.0
C5132 C 0.86967 0.23335 0.6089 0.0
C5133 C 0.87242 0.27046 0.59873 0.0
C5134 C 0.86348 0.26514 0.57912 0.0
C5135 C 0.85898 0.24352 0.57398 0.0
C5136 C 0.86207 0.22764 0.58883 0.0
C5137 C 0.85266 0.28195 0.56772 0.0
C5138 C 0.8304 0.28393 0.57221 0.0
C5139 C 0.86385 0.29726 0.55487 0.0
C5140 C 0.88735 0.29653 0.54925 0.0
C5141 C 0.89365 0.29532 0.52801 0.0
C5142 C 0.9157 0.29767 0.5222 0.0
C5143 C 0.93171 0.30077 0.53749 0.0
C5144 C 0.92567 0.30185 0.55864 0.0
C5145 C 0.90358 0.30007 0.5645 0.0
H5146 H 0.94877 0.30258 0.53294 0.0
H5147 H 0.73631 0.30874 0.59121 0.0
H5148 H 0.40729 0.05562 0.30136 0.0
H5149 H 0.44011 0.07419 0.31513 0.0
H5150 H 0.46481 0.08392 0.25217 0.0
H5151 H 0.43183 0.06515 0.2382 0.0
H5152 H 0.4952 0.0678 0.27763 0.0
H5153 H 0.44922 0.12535 0.27973 0.0
H5154 H 0.41546 0.14394 0.28654 0.0
H5155 H 0.42231 0.13499 0.35271 0.0
H5156 H 0.45579 0.11583 0.34631 0.0
H5157 H 0.58241 0.12722 0.33696 0.0
H5158 H 0.55445 0.11891 0.31031 0.0
H5159 H 0.51128 0.0919 0.35795 0.0
H5160 H 0.53883 0.09971 0.38442 0.0
H5161 H 0.49356 0.12465 0.33211 0.0
H5162 H 0.53391 0.05962 0.32767 0.0
H5163 H 0.5664 0.03919 0.32032 0.0
H5164 H 0.56982 0.06321 0.25758 0.0
H5165 H 0.53749 0.08401 0.26468 0.0
C5166 C 0.41953 0.06198 0.29042 0.0
C5167 C 0.417 0.05897 0.26872 0.0
C5168 C 0.43827 0.07266 0.2983 0.0
C5169 C 0.45482 0.0806 0.28466 0.0
C5170 C 0.45218 0.07798 0.26294 0.0
C5171 C 0.43332 0.06736 0.25501 0.0
C5172 C 0.47532 0.09037 0.29347 0.0
C5173 C 0.49498 0.08063 0.28913 0.0
C5174 C 0.475 0.10712 0.30846 0.0
C5175 C 0.45502 0.119 0.3125 0.0
C5176 C 0.44345 0.12716 0.29573 0.0
C5177 C 0.42432 0.13778 0.29952 0.0
C5178 C 0.4167 0.14058 0.32004 0.0
C5179 C 0.42821 0.13279 0.33682 0.0
C5180 C 0.44728 0.12204 0.33312 0.0
C5181 C 0.56711 0.11916 0.34168 0.0
C5182 C 0.56288 0.11421 0.36289 0.0
C5183 C 0.55116 0.11452 0.32646 0.0
C5184 C 0.53079 0.105 0.33228 0.0
C5185 C 0.52686 0.09943 0.35322 0.0
C5186 C 0.54274 0.10383 0.36832 0.0
C5187 C 0.51297 0.10128 0.31704 0.0
C5188 C 0.49386 0.11228 0.32013 0.0
C5189 C 0.51382 0.08578 0.30087 0.0
C5190 C 0.53353 0.07366 0.29682 0.0
C5191 C 0.54178 0.06079 0.31241 0.0
C5192 C 0.56011 0.04907 0.30826 0.0
C5193 C 0.57023 0.04997 0.28852 0.0
C5194 C 0.56202 0.06258 0.27289 0.0
C5195 C 0.54369 0.07434 0.27696 0.0
H5196 H 0.58438 0.04084 0.28532 0.0
H5197 H 0.40193 0.14887 0.32295 0.0
H5198 H 0.66858 0.68877 0.04841 0.0
H5199 H 0.65454 0.72177 0.06259 0.0
H5200 H 0.72039 0.74493 0.07684 0.0
H5201 H 0.73419 0.71154 0.064 0.0
H5202 H 0.69569 0.75841 0.10558 0.0
H5203 H 0.69085 0.76047 0.02872 0.0
H5204 H 0.67855 0.74611 0.99436 0.0
H5205 H 0.61188 0.7443 0.01606 0.0
H5206 H 0.62387 0.75843 0.05061 0.0
H5207 H 0.69823 0.86646 0.10187 0.0
H5208 H 0.69961 0.83162 0.08488 0.0
H5209 H 0.63086 0.81942 0.09745 0.0
H5210 H 0.62949 0.85439 0.11474 0.0
H5211 H 0.65077 0.79906 0.05772 0.0
H5212 H 0.65728 0.80447 0.13285 0.0
H5213 H 0.67158 0.82143 0.16531 0.0
H5214 H 0.73709 0.80938 0.14578 0.0
H5215 H 0.72319 0.79274 0.11297 0.0
C5216 C 0.67995 0.70078 0.05495 0.0
C5217 C 0.70247 0.69762 0.05503 0.0
C5218 C 0.67196 0.71976 0.06284 0.0
C5219 C 0.68643 0.73623 0.07026 0.0
C5220 C 0.70882 0.7326 0.07118 0.0
C5221 C 0.71673 0.71346 0.06381 0.0
C5222 C 0.67869 0.7576 0.07614 0.0
C5223 C 0.68588 0.7672 0.09502 0.0
C5224 C 0.66542 0.76912 0.06274 0.0
C5225 C 0.65822 0.76048 0.04214 0.0
C5226 C 0.67358 0.75694 0.02613 0.0
C5227 C 0.66667 0.74884 0.00666 0.0
C5228 C 0.64444 0.7443 0.00303 0.0
C5229 C 0.62908 0.74781 0.01889 0.0
C5230 C 0.63592 0.75587 0.03841 0.0
C5231 C 0.68313 0.8569 0.09989 0.0
C5232 C 0.66374 0.86317 0.10947 0.0
C5233 C 0.68398 0.83688 0.09038 0.0
C5234 C 0.66546 0.82279 0.09035 0.0
C5235 C 0.64535 0.83008 0.09738 0.0
C5236 C 0.6445 0.85021 0.10699 0.0
C5237 C 0.66828 0.79977 0.08659 0.0
C5238 C 0.66018 0.78995 0.06827 0.0
C5239 C 0.68083 0.78807 0.10041 0.0
C5240 C 0.6892 0.79751 0.12038 0.0
C5241 C 0.67474 0.80557 0.13541 0.0
C5242 C 0.68278 0.81512 0.15388 0.0
C5243 C 0.70523 0.81651 0.15759 0.0
C5244 C 0.7197 0.8083 0.14287 0.0
C5245 C 0.71175 0.7988 0.12434 0.0
H5246 H 0.71143 0.82392 0.1719 0.0
H5247 H 0.63912 0.73807 0.98793 0.0
H5248 H 0.55223 0.55089 0.25866 0.0
H5249 H 0.51563 0.53465 0.26467 0.0
H5250 H 0.54385 0.47669 0.28389 0.0
H5251 H 0.58054 0.49253 0.27626 0.0
H5252 H 0.50796 0.46679 0.26457 0.0
H5253 H 0.52671 0.51963 0.3197 0.0
H5254 H 0.53716 0.55597 0.3323 0.0
H5255 H 0.48035 0.57947 0.30355 0.0
H5256 H 0.46967 0.54327 0.29065 0.0
H5257 H 0.44726 0.4264 0.34873 0.0
H5258 H 0.47081 0.44067 0.32086 0.0
H5259 H 0.42341 0.48666 0.30695 0.0
H5260 H 0.39948 0.47206 0.33524 0.0
H5261 H 0.46212 0.50557 0.31513 0.0
H5262 H 0.43855 0.44984 0.26955 0.0
H5263 H 0.42837 0.41349 0.25692 0.0
H5264 H 0.49363 0.3949 0.26751 0.0
H5265 H 0.50412 0.43089 0.28074 0.0
C5266 C 0.55055 0.53458 0.26394 0.0
C5267 C 0.56911 0.52299 0.2673 0.0
C5268 C 0.52963 0.52535 0.26749 0.0
C5269 C 0.52688 0.50465 0.27542 0.0
C5270 C 0.54547 0.49273 0.27791 0.0
C5271 C 0.56643 0.50177 0.27365 0.0
C5272 C 0.50493 0.4958 0.2823 0.0
C5273 C 0.49797 0.47518 0.27573 0.0
C5274 C 0.49126 0.50717 0.29603 0.0
C5275 C 0.49753 0.52882 0.30406 0.0
C5276 C 0.51651 0.53257 0.31602 0.0
C5277 C 0.52246 0.55313 0.32322 0.0
C5278 C 0.50945 0.57002 0.31868 0.0
C5279 C 0.49042 0.56637 0.30702 0.0
C5280 C 0.4844 0.54584 0.29979 0.0
C5281 C 0.44149 0.43906 0.33924 0.0
C5282 C 0.42161 0.44816 0.34406 0.0
C5283 C 0.45493 0.44716 0.32319 0.0
C5284 C 0.44889 0.46469 0.31165 0.0
C5285 C 0.42834 0.47303 0.31557 0.0
C5286 C 0.41465 0.46466 0.33161 0.0
C5287 C 0.4657 0.47605 0.29831 0.0
C5288 C 0.47175 0.49724 0.3036 0.0
C5289 C 0.47853 0.46513 0.28352 0.0
C5290 C 0.47213 0.44317 0.27616 0.0
C5291 C 0.45069 0.43795 0.26943 0.0
C5292 C 0.44486 0.4174 0.26216 0.0
C5293 C 0.46036 0.40195 0.2614 0.0
C5294 C 0.48165 0.40691 0.26812 0.0
C5295 C 0.48755 0.42739 0.27549 0.0
H5296 H 0.45595 0.3862 0.25547 0.0
H5297 H 0.51411 0.58592 0.32424 0.0
H5298 H 0.19328 0.84856 0.02703 0.0
H5299 H 0.17627 0.81438 0.01543 0.0
H5300 H 0.20347 0.82426 0.95344 0.0
H5301 H 0.22069 0.85834 0.96495 0.0
H5302 H 0.16084 0.80477 0.95339 0.0
H5303 H 0.23124 0.79801 0.98561 0.0
H5304 H 0.25757 0.80335 0.01442 0.0
H5305 H 0.21429 0.76708 0.05547 0.0
H5306 H 0.18751 0.76186 0.02698 0.0
H5307 H 0.19733 0.69513 0.92708 0.0
H5308 H 0.20245 0.72681 0.94948 0.0
H5309 H 0.13249 0.73035 0.9552 0.0
H5310 H 0.12755 0.69987 0.93133 0.0
H5311 H 0.19246 0.74286 0.98703 0.0
H5312 H 0.11974 0.78066 0.95004 0.0
H5313 H 0.096 0.77579 0.91913 0.0
H5314 H 0.14895 0.75048 0.88382 0.0
H5315 H 0.17304 0.75548 0.91444 0.0
C5316 C 0.19517 0.8437 0.01079 0.0
C5317 C 0.20845 0.85601 0.99691 0.0
C5318 C 0.18551 0.82415 0.00423 0.0
C5319 C 0.18885 0.81674 0.98367 0.0
C5320 C 0.20072 0.82973 0.96938 0.0
C5321 C 0.21058 0.84916 0.97598 0.0
C5322 C 0.18204 0.79463 0.97756 0.0
C5323 C 0.16749 0.79121 0.96093 0.0
C5324 C 0.19101 0.777 0.98723 0.0
C5325 C 0.20727 0.77976 0.00424 0.0
C5326 C 0.22727 0.79131 0.00083 0.0
C5327 C 0.24228 0.7943 0.01709 0.0
C5328 C 0.23758 0.78561 0.03678 0.0
C5329 C 0.21789 0.77384 0.04022 0.0
C5330 C 0.20279 0.77086 0.02402 0.0
C5331 C 0.18309 0.7023 0.93372 0.0
C5332 C 0.162 0.69467 0.92807 0.0
C5333 C 0.186 0.72036 0.94656 0.0
C5334 C 0.16786 0.73113 0.95383 0.0
C5335 C 0.14674 0.7224 0.94967 0.0
C5336 C 0.14387 0.7046 0.93649 0.0
C5337 C 0.17122 0.75293 0.96279 0.0
C5338 C 0.18527 0.75635 0.97988 0.0
C5339 C 0.16216 0.77064 0.95327 0.0
C5340 C 0.14809 0.76829 0.93454 0.0
C5341 C 0.12632 0.7742 0.93562 0.0
C5342 C 0.11281 0.77138 0.91818 0.0
C5343 C 0.12095 0.76279 0.89954 0.0
C5344 C 0.14266 0.75711 0.89827 0.0
C5345 C 0.15625 0.75994 0.91565 0.0
H5346 H 0.11044 0.76055 0.88607 0.0
H5347 H 0.24922 0.78795 0.04935 0.0
H5348 H 0.41441 0.98184 0.19562 0.0
H5349 H 0.44959 0.96672 0.18777 0.0
H5350 H 0.45796 0.95408 0.2534 0.0
H5351 H 0.42274 0.96905 0.26136 0.0
H5352 H 0.49337 0.97599 0.23671 0.0
H5353 H 0.45089 0.91286 0.2208 0.0
H5354 H 0.42089 0.89068 0.20496 0.0
H5355 H 0.44484 0.907 0.14339 0.0
H5356 H 0.47482 0.92954 0.15885 0.0
H5357 H 0.57484 0.9108 0.16486 0.0
H5358 H 0.54662 0.91178 0.19252 0.0
H5359 H 0.54535 0.97977 0.18521 0.0
H5360 H 0.57367 0.97849 0.15824 0.0
H5361 H 0.50771 0.92194 0.18176 0.0
H5362 H 0.52183 0.00414 0.22447 0.0
H5363 H 0.55158 0.02513 0.24205 0.0
H5364 H 0.58478 0.96812 0.25328 0.0
H5365 H 0.55505 0.94673 0.23595 0.0
C5366 C 0.42351 0.97541 0.20832 0.0
C5367 C 0.41579 0.97665 0.2291 0.0
C5368 C 0.44361 0.96674 0.20382 0.0
C5369 C 0.45641 0.95925 0.22001 0.0
C5370 C 0.44837 0.95977 0.24068 0.0
C5371 C 0.42817 0.96824 0.24516 0.0
C5372 C 0.47889 0.95257 0.21545 0.0
C5373 C 0.49658 0.96403 0.22484 0.0
C5374 C 0.48305 0.93654 0.20044 0.0
C5375 C 0.46505 0.92299 0.19101 0.0
C5376 C 0.44968 0.91185 0.20388 0.0
C5377 C 0.43269 0.89919 0.19497 0.0
C5378 C 0.43095 0.89745 0.17318 0.0
C5379 C 0.44622 0.90836 0.16027 0.0
C5380 C 0.46323 0.92105 0.1691 0.0
C5381 C 0.5695 0.92593 0.1703 0.0
C5382 C 0.57656 0.94444 0.15975 0.0
C5383 C 0.55313 0.92656 0.1858 0.0
C5384 C 0.54372 0.94587 0.19099 0.0
C5385 C 0.55246 0.9647 0.18186 0.0
C5386 C 0.56869 0.96398 0.16637 0.0
C5387 C 0.52231 0.9461 0.20227 0.0
C5388 C 0.50468 0.93353 0.19403 0.0
C5389 C 0.51825 0.96101 0.21848 0.0
C5390 C 0.53627 0.97382 0.22877 0.0
C5391 C 0.53543 0.99605 0.23074 0.0
C5392 C 0.5523 0.00803 0.24064 0.0
C5393 C 0.57009 0.99797 0.24871 0.0
C5394 C 0.57104 0.97589 0.2469 0.0
C5395 C 0.55422 0.96384 0.237 0.0
H5396 H 0.58312 0.00727 0.2564 0.0
H5397 H 0.41778 0.88764 0.16631 0.0
H5398 H 0.0605 0.07695 0.75819 0.0
H5399 H 0.02909 0.09769 0.74949 0.0
H5400 H 0.05219 0.10202 0.68544 0.0
H5401 H 0.08342 0.08153 0.694 0.0
H5402 H 0.0357 0.13919 0.69902 0.0
H5403 H 0.01598 0.06233 0.7029 0.0
H5404 H 0.00922 0.02826 0.72122 0.0
H5405 H 0.96292 0.05706 0.76218 0.0
H5406 H 0.96984 0.0914 0.74448 0.0
H5407 H 0.96787 0.12495 0.61755 0.0
H5408 H 0.99112 0.1198 0.64724 0.0
H5409 H 0.93912 0.13566 0.68965 0.0
H5410 H 0.91532 0.14174 0.6593 0.0
H5411 H 0.96415 0.0983 0.70023 0.0
H5412 H 0.97578 0.17116 0.68576 0.0
H5413 H 0.98043 0.2025 0.66305 0.0
H5414 H 0.04111 0.18037 0.63951 0.0
H5415 H 0.03653 0.14856 0.66154 0.0
C5416 C 0.05905 0.08271 0.74236 0.0
C5417 C 0.07431 0.07751 0.72671 0.0
C5418 C 0.04109 0.0945 0.73742 0.0
C5419 C 0.03821 0.10126 0.71679 0.0
C5420 C 0.0541 0.09703 0.70149 0.0
C5421 C 0.07191 0.08521 0.70636 0.0
C5422 C 0.01794 0.11105 0.71021 0.0
C5423 C 0.01996 0.13043 0.69952 0.0
C5424 C 0.99719 0.10003 0.7116 0.0
C5425 C 0.99371 0.07952 0.72262 0.0
C5426 C 0.00462 0.06147 0.71603 0.0
C5427 C 0.00073 0.0421 0.72628 0.0
C5428 C 0.98572 0.04052 0.74292 0.0
C5429 C 0.97465 0.05832 0.74941 0.0
C5430 C 0.97859 0.07775 0.73931 0.0
C5431 C 0.9612 0.12744 0.63314 0.0
C5432 C 0.93984 0.13401 0.63612 0.0
C5433 C 0.97459 0.12454 0.6501 0.0
C5434 C 0.96697 0.12796 0.67055 0.0
C5435 C 0.94532 0.13359 0.67385 0.0
C5436 C 0.93185 0.13701 0.65663 0.0
C5437 C 0.98238 0.1256 0.68793 0.0
C5438 C 0.97954 0.10766 0.70063 0.0
C5439 C 0.00243 0.13786 0.68826 0.0
C5440 C 0.00577 0.1574 0.67542 0.0
C5441 C 0.99002 0.17287 0.67563 0.0
C5442 C 0.99261 0.1907 0.66282 0.0
C5443 C 0.01103 0.19341 0.64984 0.0
C5444 C 0.02687 0.17827 0.64961 0.0
C5445 C 0.02428 0.16032 0.66229 0.0
H5446 H 0.01306 0.20728 0.64 0.0
H5447 H 0.98251 0.02548 0.75068 0.0
loop_
_geom_bond_atom_site_label_1
_geom_bond_atom_site_label_2
_geom_bond_distance
_geom_bond_site_symmetry_2
_ccdc_geom_bond_type
In0 O1 2.294 . S
In0 O2 2.326 . S
In0 O6 2.266 . S
In0 O7 2.326 . S
In0 O8 2.266 1_455 S
In0 O9 2.326 . S
In0 O11 2.294 1_455 S
In0 O12 2.326 . S
O1 In0 2.294 . S
O1 C10 1.240 . S
O2 In0 2.326 . S
O2 C10 1.252 . S
C3 O6 1.252 . S
C3 O7 1.260 . S
C4 O11 1.208 1_455 S
C4 O12 1.307 . S
C5 O8 1.285 . S
C5 O9 1.207 1_655 S
O6 In0 2.266 . S
O6 C3 1.252 . S
O7 In0 2.326 . S
O7 C3 1.260 . S
O8 In0 2.266 1_655 S
O8 C5 1.285 . S
O9 In0 2.326 . S
O9 C5 1.207 1_455 S
C10 O1 1.240 . S
C10 O2 1.252 . S
O11 In0 2.294 1_655 S
O11 C4 1.208 1_655 S
O12 In0 2.326 . S
O12 C4 1.307 . S
In13 O14 2.294 1_455 S
In13 O15 2.326 1_455 S
In13 O19 2.266 . S
In13 O20 2.326 . S
In13 O21 2.266 1_455 S
In13 O22 2.326 1_455 S
In13 O24 2.294 . S
In13 O25 2.326 . S
O14 In13 2.294 1_655 S
O14 C23 1.240 . S
O15 In13 2.326 1_655 S
O15 C23 1.252 . S
C16 O19 1.252 . S
C16 O20 1.260 . S
C17 O24 1.240 . S
C17 O25 1.252 . S
C18 O21 1.252 . S
C18 O22 1.260 . S
O19 In13 2.266 . S
O19 C16 1.252 . S
O20 In13 2.326 . S
O20 C16 1.260 . S
O21 In13 2.266 1_655 S
O21 C18 1.252 . S
O22 In13 2.326 1_655 S
O22 C18 1.260 . S
C23 O14 1.240 . S
C23 O15 1.252 . S
O24 In13 2.294 . S
O24 C17 1.240 . S
O25 In13 2.326 . S
O25 C17 1.252 . S
In26 O27 2.294 . S
In26 O28 2.326 . S
In26 O32 2.266 . S
In26 O33 2.326 . S
In26 O34 2.266 . S
In26 O35 2.326 . S
In26 O37 2.294 . S
In26 O38 2.326 . S
O27 In26 2.294 . S
O27 C36 1.240 . S
O28 In26 2.326 . S
O28 C36 1.252 . S
C29 O32 1.252 . S
C29 O33 1.260 . S
C30 O37 1.240 . S
C30 O38 1.252 . S
C31 O34 1.252 . S
C31 O35 1.260 . S
O32 In26 2.266 . S
O32 C29 1.252 . S
O33 In26 2.326 . S
O33 C29 1.260 . S
O34 In26 2.266 . S
O34 C31 1.252 . S
O35 In26 2.326 . S
O35 C31 1.260 . S
C36 O27 1.240 . S
C36 O28 1.252 . S
O37 In26 2.294 . S
O37 C30 1.240 . S
O38 In26 2.326 . S
O38 C30 1.252 . S
In39 O40 2.294 . S
In39 O41 2.326 . S
In39 O45 2.266 . S
In39 O46 2.326 . S
In39 O47 2.266 . S
In39 O48 2.326 . S
In39 O50 2.294 . S
In39 O51 2.326 . S
O40 In39 2.294 . S
O40 C49 1.240 . S
O41 In39 2.326 . S
O41 C49 1.252 . S
C42 O45 1.252 . S
C42 O46 1.260 . S
C43 O50 1.240 . S
C43 O51 1.252 . S
C44 O47 1.252 . S
C44 O48 1.260 . S
O45 In39 2.266 . S
O45 C42 1.252 . S
O46 In39 2.326 . S
O46 C42 1.260 . S
O47 In39 2.266 . S
O47 C44 1.252 . S
O48 In39 2.326 . S
O48 C44 1.260 . S
C49 O40 1.240 . S
C49 O41 1.252 . S
O50 In39 2.294 . S
O50 C43 1.240 . S
O51 In39 2.326 . S
O51 C43 1.252 . S
In52 O53 2.294 1_455 S
In52 O54 2.326 . S
In52 O58 2.266 1_455 S
In52 O59 2.326 . S
In52 O60 2.266 . S
In52 O61 2.326 1_455 S
In52 O63 2.294 . S
In52 O64 2.326 1_455 S
O53 In52 2.294 1_655 S
O53 C62 1.240 . S
O54 In52 2.326 . S
O54 C62 1.252 1_455 S
C55 O58 1.252 . S
C55 O59 1.260 1_655 S
C56 O63 1.240 . S
C56 O64 1.252 1_455 S
C57 O60 1.252 . S
C57 O61 1.260 1_455 S
O58 In52 2.266 1_655 S
O58 C55 1.252 . S
O59 In52 2.326 . S
O59 C55 1.260 1_455 S
O60 In52 2.266 . S
O60 C57 1.252 . S
O61 In52 2.326 1_655 S
O61 C57 1.260 1_655 S
C62 O53 1.240 . S
C62 O54 1.252 1_655 S
O63 In52 2.294 . S
O63 C56 1.240 . S
O64 In52 2.326 1_655 S
O64 C56 1.252 1_655 S
In65 O66 2.294 . S
In65 O67 2.326 . S
In65 O71 2.266 . S
In65 O72 2.326 . S
In65 O73 2.266 . S
In65 O74 2.326 . S
In65 O76 2.294 . S
In65 O77 2.326 . S
O66 In65 2.294 . S
O66 C75 1.240 . S
O67 In65 2.326 . S
O67 C75 1.252 . S
C68 O71 1.252 . S
C68 O72 1.260 . S
C69 O76 1.240 . S
C69 O77 1.252 . S
C70 O73 1.252 . S
C70 O74 1.260 . S
O71 In65 2.266 . S
O71 C68 1.252 . S
O72 In65 2.326 . S
O72 C68 1.260 . S
O73 In65 2.266 . S
O73 C70 1.252 . S
O74 In65 2.326 . S
O74 C70 1.260 . S
C75 O66 1.240 . S
C75 O67 1.252 . S
O76 In65 2.294 . S
O76 C69 1.240 . S
O77 In65 2.326 . S
O77 C69 1.252 . S
In78 O79 2.294 . S
In78 O80 2.326 . S
In78 O84 2.266 . S
In78 O85 2.326 . S
In78 O86 2.266 . S
In78 O87 2.326 . S
In78 O89 2.294 . S
In78 O90 2.326 . S
O79 In78 2.294 . S
O79 C88 1.240 . S
O80 In78 2.326 . S
O80 C88 1.252 . S
C81 O84 1.252 . S
C81 O85 1.260 . S
C82 O89 1.240 . S
C82 O90 1.252 . S
C83 O86 1.252 . S
C83 O87 1.260 . S
O84 In78 2.266 . S
O84 C81 1.252 . S
O85 In78 2.326 . S
O85 C81 1.260 . S
O86 In78 2.266 . S
O86 C83 1.252 . S
O87 In78 2.326 . S
O87 C83 1.260 . S
C88 O79 1.240 . S
C88 O80 1.252 . S
O89 In78 2.294 . S
O89 C82 1.240 . S
O90 In78 2.326 . S
O90 C82 1.252 . S
In91 O92 2.294 . S
In91 O93 2.326 . S
In91 O97 2.266 . S
In91 O98 2.326 . S
In91 O99 2.266 . S
In91 O100 2.326 . S
In91 O102 2.294 . S
In91 O103 2.326 . S
O92 In91 2.294 . S
O92 C101 1.240 . S
O93 In91 2.326 . S
O93 C101 1.252 . S
C94 O97 1.252 . S
C94 O98 1.260 . S
C95 O102 1.240 . S
C95 O103 1.252 . S
C96 O99 1.252 . S
C96 O100 1.260 . S
O97 In91 2.266 . S
O97 C94 1.252 . S
O98 In91 2.326 . S
O98 C94 1.260 . S
O99 In91 2.266 . S
O99 C96 1.252 . S
O100 In91 2.326 . S
O100 C96 1.260 . S
C101 O92 1.240 . S
C101 O93 1.252 . S
O102 In91 2.294 . S
O102 C95 1.240 . S
O103 In91 2.326 . S
O103 C95 1.252 . S
In104 O105 2.285 1_545 S
In104 O106 2.328 . S
In104 O110 2.257 1_545 S
In104 O111 2.327 . S
In104 O112 2.275 . S
In104 O113 2.324 1_545 S
In104 O115 2.303 . S
In104 O116 2.326 1_545 S
O105 In104 2.285 1_565 S
O105 C114 1.240 . S
O106 In104 2.328 . S
O106 C114 1.252 1_545 S
C107 O110 1.252 . S
C107 O111 1.260 1_565 S
C108 O115 1.240 . S
C108 O116 1.252 1_545 S
C109 O112 1.252 . S
C109 O113 1.260 1_545 S
O110 In104 2.257 1_565 S
O110 C107 1.252 . S
O111 In104 2.327 . S
O111 C107 1.260 1_545 S
O112 In104 2.275 . S
O112 C109 1.252 . S
O113 In104 2.324 1_565 S
O113 C109 1.260 1_565 S
C114 O105 1.240 . S
C114 O106 1.252 1_565 S
O115 In104 2.303 . S
O115 C108 1.240 . S
O116 In104 2.326 1_565 S
O116 C108 1.252 1_565 S
In117 O118 2.294 . S
In117 O119 2.326 . S
In117 O123 2.266 . S
In117 O124 2.326 . S
In117 O125 2.266 . S
In117 O126 2.326 . S
In117 O128 2.294 . S
In117 O129 2.326 . S
O118 In117 2.294 . S
O118 C127 1.240 . S
O119 In117 2.326 . S
O119 C127 1.252 . S
C120 O123 1.252 . S
C120 O124 1.260 . S
C121 O128 1.240 . S
C121 O129 1.252 . S
C122 O125 1.252 . S
C122 O126 1.260 . S
O123 In117 2.266 . S
O123 C120 1.252 . S
O124 In117 2.326 . S
O124 C120 1.260 . S
O125 In117 2.266 . S
O125 C122 1.252 . S
O126 In117 2.326 . S
O126 C122 1.260 . S
C127 O118 1.240 . S
C127 O119 1.252 . S
O128 In117 2.294 . S
O128 C121 1.240 . S
O129 In117 2.326 . S
O129 C121 1.252 . S
In130 O131 2.294 . S
In130 O132 2.326 . S
In130 O136 2.266 . S
In130 O137 2.326 . S
In130 O138 2.266 . S
In130 O139 2.326 . S
In130 O141 2.294 . S
In130 O142 2.326 . S
O131 In130 2.294 . S
O131 C140 1.240 . S
O132 In130 2.326 . S
O132 C140 1.252 . S
C133 O136 1.252 . S
C133 O137 1.260 . S
C134 O141 1.240 . S
C134 O142 1.252 . S
C135 O138 1.252 . S
C135 O139 1.260 . S
O136 In130 2.266 . S
O136 C133 1.252 . S
O137 In130 2.326 . S
O137 C133 1.260 . S
O138 In130 2.266 . S
O138 C135 1.252 . S
O139 In130 2.326 . S
O139 C135 1.260 . S
C140 O131 1.240 . S
C140 O132 1.252 . S
O141 In130 2.294 . S
O141 C134 1.240 . S
O142 In130 2.326 . S
O142 C134 1.252 . S
In143 O144 2.294 . S
In143 O145 2.326 . S
In143 O149 2.266 . S
In143 O150 2.326 1_554 S
In143 O151 2.266 . S
In143 O152 2.326 . S
In143 O154 2.294 . S
In143 O155 2.326 1_554 S
O144 In143 2.294 . S
O144 C153 1.240 . S
O145 In143 2.326 . S
O145 C153 1.252 . S
C146 O149 1.252 1_556 S
C146 O150 1.260 . S
C147 O154 1.240 1_556 S
C147 O155 1.252 . S
C148 O151 1.252 . S
C148 O152 1.260 . S
O149 In143 2.266 . S
O149 C146 1.252 1_554 S
O150 In143 2.326 1_556 S
O150 C146 1.260 . S
O151 In143 2.266 . S
O151 C148 1.252 . S
O152 In143 2.326 . S
O152 C148 1.260 . S
C153 O144 1.240 . S
C153 O145 1.252 . S
O154 In143 2.294 . S
O154 C147 1.240 1_554 S
O155 In143 2.326 1_556 S
O155 C147 1.252 . S
In156 O157 2.294 1_554 S
In156 O158 2.326 . S
In156 O162 2.266 1_554 S
In156 O163 2.326 . S
In156 O164 2.266 . S
In156 O165 2.320 1_554 S
In156 O167 2.294 . S
In156 O168 2.326 . S
O157 In156 2.294 1_556 S
O157 C166 1.240 . S
O158 In156 2.326 . S
O158 C166 1.252 1_554 S
C159 O162 1.252 . S
C159 O163 1.260 1_556 S
C160 O167 1.240 . S
C160 O168 1.252 . S
C161 O164 1.252 . S
C161 O165 1.219 1_554 S
O162 In156 2.266 1_556 S
O162 C159 1.252 . S
O163 In156 2.326 . S
O163 C159 1.260 1_554 S
O164 In156 2.266 . S
O164 C161 1.252 . S
O165 In156 2.320 1_556 S
O165 C161 1.219 1_556 S
C166 O157 1.240 . S
C166 O158 1.252 1_556 S
O167 In156 2.294 . S
O167 C160 1.240 . S
O168 In156 2.326 . S
O168 C160 1.252 . S
In169 O170 2.294 . S
In169 O171 2.326 1_554 S
In169 O175 2.266 . S
In169 O176 2.326 1_554 S
In169 O177 2.266 1_554 S
In169 O178 2.326 . S
In169 O180 2.294 1_554 S
In169 O181 2.326 . S
O170 In169 2.294 . S
O170 C179 1.240 . S
O171 In169 2.326 1_556 S
O171 C179 1.252 1_556 S
C172 O175 1.252 . S
C172 O176 1.260 1_554 S
C173 O180 1.240 . S
C173 O181 1.252 1_556 S
C174 O177 1.252 . S
C174 O178 1.260 1_556 S
O175 In169 2.266 . S
O175 C172 1.252 . S
O176 In169 2.326 1_556 S
O176 C172 1.260 1_556 S
O177 In169 2.266 1_556 S
O177 C174 1.252 . S
O178 In169 2.326 . S
O178 C174 1.260 1_554 S
C179 O170 1.240 . S
C179 O171 1.252 1_554 S
O180 In169 2.294 1_556 S
O180 C173 1.240 . S
O181 In169 2.326 . S
O181 C173 1.252 1_554 S
In182 O183 2.294 . S
In182 O184 2.326 . S
In182 O188 2.266 . S
In182 O189 2.326 . S
In182 O190 2.266 . S
In182 O191 2.326 . S
In182 O193 2.294 . S
In182 O194 2.326 . S
O183 In182 2.294 . S
O183 C192 1.240 . S
O184 In182 2.326 . S
O184 C192 1.252 . S
C185 O188 1.252 . S
C185 O189 1.260 . S
C186 O193 1.240 . S
C186 O194 1.252 . S
C187 O190 1.252 . S
C187 O191 1.260 . S
O188 In182 2.266 . S
O188 C185 1.252 . S
O189 In182 2.326 . S
O189 C185 1.260 . S
O190 In182 2.266 . S
O190 C187 1.252 . S
O191 In182 2.326 . S
O191 C187 1.260 . S
C192 O183 1.240 . S
C192 O184 1.252 . S
O193 In182 2.294 . S
O193 C186 1.240 . S
O194 In182 2.326 . S
O194 C186 1.252 . S
In195 O196 2.294 . S
In195 O197 2.326 . S
In195 O201 2.266 . S
In195 O202 2.326 . S
In195 O203 2.266 . S
In195 O204 2.326 . S
In195 O206 2.294 . S
In195 O207 2.326 . S
O196 In195 2.294 . S
O196 C205 1.240 . S
O197 In195 2.326 . S
O197 C205 1.252 . S
C198 O201 1.252 . S
C198 O202 1.260 . S
C199 O206 1.240 . S
C199 O207 1.252 . S
C200 O203 1.252 . S
C200 O204 1.260 . S
O201 In195 2.266 . S
O201 C198 1.252 . S
O202 In195 2.326 . S
O202 C198 1.260 . S
O203 In195 2.266 . S
O203 C200 1.252 . S
O204 In195 2.326 . S
O204 C200 1.260 . S
C205 O196 1.240 . S
C205 O197 1.252 . S
O206 In195 2.294 . S
O206 C199 1.240 . S
O207 In195 2.326 . S
O207 C199 1.252 . S
In208 O209 2.294 1_545 S
In208 O210 2.326 1_545 S
In208 O214 2.266 . S
In208 O215 2.326 . S
In208 O216 2.266 1_545 S
In208 O217 2.326 1_545 S
In208 O219 2.294 . S
In208 O220 2.326 . S
O209 In208 2.294 1_565 S
O209 C218 1.240 . S
O210 In208 2.326 1_565 S
O210 C218 1.252 . S
C211 O214 1.252 . S
C211 O215 1.260 . S
C212 O219 1.240 . S
C212 O220 1.252 . S
C213 O216 1.252 . S
C213 O217 1.260 . S
O214 In208 2.266 . S
O214 C211 1.252 . S
O215 In208 2.326 . S
O215 C211 1.260 . S
O216 In208 2.266 1_565 S
O216 C213 1.252 . S
O217 In208 2.326 1_565 S
O217 C213 1.260 . S
C218 O209 1.240 . S
C218 O210 1.252 . S
O219 In208 2.294 . S
O219 C212 1.240 . S
O220 In208 2.326 . S
O220 C212 1.252 . S
In221 O222 2.294 . S
In221 O223 2.326 . S
In221 O227 2.266 . S
In221 O228 2.326 . S
In221 O229 2.266 . S
In221 O230 2.326 . S
In221 O232 2.294 . S
In221 O233 2.326 . S
O222 In221 2.294 . S
O222 C231 1.240 . S
O223 In221 2.326 . S
O223 C231 1.252 . S
C224 O227 1.252 . S
C224 O228 1.260 . S
C225 O232 1.240 . S
C225 O233 1.252 . S
C226 O229 1.252 . S
C226 O230 1.260 . S
O227 In221 2.266 . S
O227 C224 1.252 . S
O228 In221 2.326 . S
O228 C224 1.260 . S
O229 In221 2.266 . S
O229 C226 1.252 . S
O230 In221 2.326 . S
O230 C226 1.260 . S
C231 O222 1.240 . S
C231 O223 1.252 . S
O232 In221 2.294 . S
O232 C225 1.240 . S
O233 In221 2.326 . S
O233 C225 1.252 . S
In234 O235 2.294 . S
In234 O236 2.326 . S
In234 O240 2.266 . S
In234 O241 2.326 . S
In234 O242 2.266 . S
In234 O243 2.326 . S
In234 O245 2.294 . S
In234 O246 2.326 . S
O235 In234 2.294 . S
O235 C244 1.240 . S
O236 In234 2.326 . S
O236 C244 1.252 . S
C237 O240 1.252 . S
C237 O241 1.260 . S
C238 O245 1.240 . S
C238 O246 1.252 . S
C239 O242 1.252 . S
C239 O243 1.260 . S
O240 In234 2.266 . S
O240 C237 1.252 . S
O241 In234 2.326 . S
O241 C237 1.260 . S
O242 In234 2.266 . S
O242 C239 1.252 . S
O243 In234 2.326 . S
O243 C239 1.260 . S
C244 O235 1.240 . S
C244 O236 1.252 . S
O245 In234 2.294 . S
O245 C238 1.240 . S
O246 In234 2.326 . S
O246 C238 1.252 . S
In247 O248 2.294 . S
In247 O249 2.326 . S
In247 O253 2.266 . S
In247 O254 2.326 . S
In247 O255 2.266 . S
In247 O256 2.326 . S
In247 O258 2.294 . S
In247 O259 2.326 . S
O248 In247 2.294 . S
O248 C257 1.240 . S
O249 In247 2.326 . S
O249 C257 1.252 . S
C250 O253 1.252 . S
C250 O254 1.260 . S
C251 O258 1.240 . S
C251 O259 1.252 . S
C252 O255 1.252 . S
C252 O256 1.260 . S
O253 In247 2.266 . S
O253 C250 1.252 . S
O254 In247 2.326 . S
O254 C250 1.260 . S
O255 In247 2.266 . S
O255 C252 1.252 . S
O256 In247 2.326 . S
O256 C252 1.260 . S
C257 O248 1.240 . S
C257 O249 1.252 . S
O258 In247 2.294 . S
O258 C251 1.240 . S
O259 In247 2.326 . S
O259 C251 1.252 . S
In260 O261 2.294 . S
In260 O262 2.326 . S
In260 O266 2.251 1_554 S
In260 O267 2.326 1_554 S
In260 O268 2.266 . S
In260 O269 2.326 . S
In260 O271 2.294 1_554 S
In260 O272 2.326 1_554 S
O261 In260 2.294 . S
O261 C270 1.240 . S
O262 In260 2.326 . S
O262 C270 1.252 . S
C263 O266 1.278 . S
C263 O267 1.260 . S
C264 O271 1.240 . S
C264 O272 1.252 . S
C265 O268 1.252 . S
C265 O269 1.260 . S
O266 In260 2.251 1_556 S
O266 C263 1.278 . S
O267 In260 2.326 1_556 S
O267 C263 1.260 . S
O268 In260 2.266 . S
O268 C265 1.252 . S
O269 In260 2.326 . S
O269 C265 1.260 . S
C270 O261 1.240 . S
C270 O262 1.252 . S
O271 In260 2.294 1_556 S
O271 C264 1.240 . S
O272 In260 2.326 1_556 S
O272 C264 1.252 . S
In273 O274 2.294 . S
In273 O275 2.326 . S
In273 O279 2.266 . S
In273 O280 2.326 . S
In273 O281 2.266 . S
In273 O282 2.326 . S
In273 O284 2.294 . S
In273 O285 2.326 . S
O274 In273 2.294 . S
O274 C283 1.240 . S
O275 In273 2.326 . S
O275 C283 1.252 . S
C276 O279 1.252 . S
C276 O280 1.260 . S
C277 O284 1.240 . S
C277 O285 1.252 . S
C278 O281 1.252 . S
C278 O282 1.260 . S
O279 In273 2.266 . S
O279 C276 1.252 . S
O280 In273 2.326 . S
O280 C276 1.260 . S
O281 In273 2.266 . S
O281 C278 1.252 . S
O282 In273 2.326 . S
O282 C278 1.260 . S
C283 O274 1.240 . S
C283 O275 1.252 . S
O284 In273 2.294 . S
O284 C277 1.240 . S
O285 In273 2.326 . S
O285 C277 1.252 . S
In286 O287 2.294 . S
In286 O288 2.326 . S
In286 O292 2.266 . S
In286 O293 2.326 . S
In286 O294 2.266 . S
In286 O295 2.326 . S
In286 O297 2.294 . S
In286 O298 2.326 . S
O287 In286 2.294 . S
O287 C296 1.240 . S
O288 In286 2.326 . S
O288 C296 1.252 . S
C289 O292 1.252 . S
C289 O293 1.260 . S
C290 O297 1.240 . S
C290 O298 1.252 . S
C291 O294 1.252 . S
C291 O295 1.260 . S
O292 In286 2.266 . S
O292 C289 1.252 . S
O293 In286 2.326 . S
O293 C289 1.260 . S
O294 In286 2.266 . S
O294 C291 1.252 . S
O295 In286 2.326 . S
O295 C291 1.260 . S
C296 O287 1.240 . S
C296 O288 1.252 . S
O297 In286 2.294 . S
O297 C290 1.240 . S
O298 In286 2.326 . S
O298 C290 1.252 . S
In299 O300 2.294 . S
In299 O301 2.326 . S
In299 O305 2.266 . S
In299 O306 2.326 . S
In299 O307 2.266 . S
In299 O308 2.326 . S
In299 O310 2.294 . S
In299 O311 2.326 . S
O300 In299 2.294 . S
O300 C309 1.240 . S
O301 In299 2.326 . S
O301 C309 1.252 . S
C302 O305 1.252 . S
C302 O306 1.260 . S
C303 O310 1.240 . S
C303 O311 1.252 . S
C304 O307 1.252 . S
C304 O308 1.260 . S
O305 In299 2.266 . S
O305 C302 1.252 . S
O306 In299 2.326 . S
O306 C302 1.260 . S
O307 In299 2.266 . S
O307 C304 1.252 . S
O308 In299 2.326 . S
O308 C304 1.260 . S
C309 O300 1.240 . S
C309 O301 1.252 . S
O310 In299 2.294 . S
O310 C303 1.240 . S
O311 In299 2.326 . S
O311 C303 1.252 . S
O312 Mn313 2.163 . S
O312 C326 1.244 . S
Mn313 O312 2.163 . S
Mn313 O316 2.160 . S
Mn313 O317 2.221 . S
Mn313 O319 2.163 . S
Mn313 O321 2.160 . S
Mn313 O331 2.221 . S
O314 Mn315 2.087 . S
O314 C326 1.256 . S
Mn315 O314 2.087 . S
Mn315 O322 2.089 . S
Mn315 O331 2.290 . S
Mn315 O332 2.251 . S
O316 Mn313 2.160 . S
O316 C327 1.239 . S
O317 Mn313 2.221 . S
O317 Mn318 2.290 . S
O317 C328 1.278 . S
Mn318 O317 2.290 . S
Mn318 O320 2.089 . S
Mn318 O323 2.251 . S
Mn318 O324 2.087 . S
O319 Mn313 2.163 . S
O319 C329 1.244 . S
O320 Mn318 2.089 . S
O320 C327 1.256 . S
O321 Mn313 2.160 . S
O321 C330 1.239 . S
O322 Mn315 2.089 . S
O322 C330 1.256 . S
O323 Mn318 2.251 . S
O323 C328 1.241 . S
O324 Mn318 2.087 . S
O324 C329 1.256 . S
C325 O331 1.278 . S
C325 O332 1.241 . S
C326 O312 1.244 . S
C326 O314 1.256 . S
C327 O316 1.239 . S
C327 O320 1.256 . S
C328 O317 1.278 . S
C328 O323 1.241 . S
C329 O319 1.244 . S
C329 O324 1.256 . S
C330 O321 1.239 . S
C330 O322 1.256 . S
O331 Mn313 2.221 . S
O331 Mn315 2.290 . S
O331 C325 1.278 . S
O332 Mn315 2.251 . S
O332 C325 1.241 . S
O333 Mn334 2.163 . S
O333 C347 1.244 . S
Mn334 O333 2.163 . S
Mn334 O337 2.160 . S
Mn334 O338 2.221 . S
Mn334 O340 2.163 . S
Mn334 O342 2.160 . S
Mn334 O352 2.221 . S
O335 Mn336 2.087 . S
O335 C347 1.256 . S
Mn336 O335 2.087 . S
Mn336 O343 2.089 . S
Mn336 O352 2.290 . S
Mn336 O353 2.251 . S
O337 Mn334 2.160 . S
O337 C348 1.239 . S
O338 Mn334 2.221 . S
O338 Mn339 2.290 . S
O338 C349 1.278 . S
Mn339 O338 2.290 . S
Mn339 O341 2.089 . S
Mn339 O344 2.251 . S
Mn339 O345 2.087 . S
O340 Mn334 2.163 . S
O340 C350 1.244 . S
O341 Mn339 2.089 . S
O341 C348 1.256 . S
O342 Mn334 2.160 . S
O342 C351 1.239 . S
O343 Mn336 2.089 . S
O343 C351 1.256 . S
O344 Mn339 2.251 . S
O344 C349 1.241 . S
O345 Mn339 2.087 . S
O345 C350 1.256 . S
C346 O352 1.278 . S
C346 O353 1.241 . S
C347 O333 1.244 . S
C347 O335 1.256 . S
C348 O337 1.239 . S
C348 O341 1.256 . S
C349 O338 1.278 . S
C349 O344 1.241 . S
C350 O340 1.244 . S
C350 O345 1.256 . S
C351 O342 1.239 . S
C351 O343 1.256 . S
O352 Mn334 2.221 . S
O352 Mn336 2.290 . S
O352 C346 1.278 . S
O353 Mn336 2.251 . S
O353 C346 1.241 . S
O354 Mn355 2.163 . S
O354 C368 1.244 . S
Mn355 O354 2.163 . S
Mn355 O358 2.160 . S
Mn355 O359 2.221 . S
Mn355 O361 2.163 . S
Mn355 O363 2.160 . S
Mn355 O373 2.221 . S
O356 Mn357 2.087 . S
O356 C368 1.256 . S
Mn357 O356 2.087 . S
Mn357 O364 2.089 . S
Mn357 O373 2.290 . S
Mn357 O374 2.251 . S
O358 Mn355 2.160 . S
O358 C369 1.239 . S
O359 Mn355 2.221 . S
O359 Mn360 2.290 . S
O359 C370 1.278 . S
Mn360 O359 2.290 . S
Mn360 O362 2.089 . S
Mn360 O365 2.251 . S
Mn360 O366 2.087 . S
O361 Mn355 2.163 . S
O361 C371 1.244 . S
O362 Mn360 2.089 . S
O362 C369 1.256 . S
O363 Mn355 2.160 . S
O363 C372 1.239 . S
O364 Mn357 2.089 . S
O364 C372 1.256 . S
O365 Mn360 2.251 . S
O365 C370 1.241 . S
O366 Mn360 2.087 . S
O366 C371 1.256 . S
C367 O373 1.278 . S
C367 O374 1.241 . S
C368 O354 1.244 . S
C368 O356 1.256 . S
C369 O358 1.239 . S
C369 O362 1.256 . S
C370 O359 1.278 . S
C370 O365 1.241 . S
C371 O361 1.244 . S
C371 O366 1.256 . S
C372 O363 1.239 . S
C372 O364 1.256 . S
O373 Mn355 2.221 . S
O373 Mn357 2.290 . S
O373 C367 1.278 . S
O374 Mn357 2.251 . S
O374 C367 1.241 . S
O375 Mn376 2.163 . S
O375 C389 1.244 . S
Mn376 O375 2.163 . S
Mn376 O379 2.160 . S
Mn376 O380 2.221 . S
Mn376 O382 2.163 . S
Mn376 O384 2.160 . S
Mn376 O394 2.221 . S
O377 Mn378 2.087 . S
O377 C389 1.256 . S
Mn378 O377 2.087 . S
Mn378 O385 2.089 . S
Mn378 O394 2.290 . S
Mn378 O395 2.251 . S
O379 Mn376 2.160 . S
O379 C390 1.239 . S
O380 Mn376 2.221 . S
O380 Mn381 2.290 . S
O380 C391 1.278 . S
Mn381 O380 2.290 . S
Mn381 O383 2.089 . S
Mn381 O386 2.251 . S
Mn381 O387 2.087 . S
O382 Mn376 2.163 . S
O382 C392 1.244 . S
O383 Mn381 2.089 . S
O383 C390 1.256 . S
O384 Mn376 2.160 . S
O384 C393 1.239 . S
O385 Mn378 2.089 . S
O385 C393 1.256 . S
O386 Mn381 2.251 . S
O386 C391 1.241 . S
O387 Mn381 2.087 . S
O387 C392 1.256 . S
C388 O394 1.278 . S
C388 O395 1.241 . S
C389 O375 1.244 . S
C389 O377 1.256 . S
C390 O379 1.239 . S
C390 O383 1.256 . S
C391 O380 1.278 . S
C391 O386 1.241 . S
C392 O382 1.244 . S
C392 O387 1.256 . S
C393 O384 1.239 . S
C393 O385 1.256 . S
O394 Mn376 2.221 . S
O394 Mn378 2.290 . S
O394 C388 1.278 . S
O395 Mn378 2.251 . S
O395 C388 1.241 . S
O396 Mn397 2.163 . S
O396 C410 1.244 . S
Mn397 O396 2.163 . S
Mn397 O400 2.160 . S
Mn397 O401 2.221 . S
Mn397 O403 2.163 . S
Mn397 O405 2.160 . S
Mn397 O415 2.221 . S
O398 Mn399 2.087 . S
O398 C410 1.256 . S
Mn399 O398 2.087 . S
Mn399 O406 2.089 . S
Mn399 O415 2.290 . S
Mn399 O416 2.251 . S
O400 Mn397 2.160 . S
O400 C411 1.239 . S
O401 Mn397 2.221 . S
O401 Mn402 2.290 . S
O401 C412 1.278 . S
Mn402 O401 2.290 . S
Mn402 O404 2.089 . S
Mn402 O407 2.251 . S
Mn402 O408 2.087 . S
O403 Mn397 2.163 . S
O403 C413 1.244 . S
O404 Mn402 2.089 . S
O404 C411 1.256 . S
O405 Mn397 2.160 . S
O405 C414 1.239 . S
O406 Mn399 2.089 . S
O406 C414 1.256 . S
O407 Mn402 2.251 . S
O407 C412 1.241 . S
O408 Mn402 2.087 . S
O408 C413 1.256 . S
C409 O415 1.278 . S
C409 O416 1.241 . S
C410 O396 1.244 . S
C410 O398 1.256 . S
C411 O400 1.239 . S
C411 O404 1.256 . S
C412 O401 1.278 . S
C412 O407 1.241 . S
C413 O403 1.244 . S
C413 O408 1.256 . S
C414 O405 1.239 . S
C414 O406 1.256 . S
O415 Mn397 2.221 . S
O415 Mn399 2.290 . S
O415 C409 1.278 . S
O416 Mn399 2.251 . S
O416 C409 1.241 . S
O417 Mn418 2.163 . S
O417 C431 1.244 . S
Mn418 O417 2.163 . S
Mn418 O421 2.160 . S
Mn418 O422 2.221 . S
Mn418 O424 2.163 . S
Mn418 O426 2.160 . S
Mn418 O436 2.221 . S
O419 Mn420 2.087 . S
O419 C431 1.256 . S
Mn420 O419 2.087 . S
Mn420 O427 2.089 . S
Mn420 O436 2.290 . S
Mn420 O437 2.251 . S
O421 Mn418 2.160 . S
O421 C432 1.239 . S
O422 Mn418 2.221 . S
O422 Mn423 2.290 . S
O422 C433 1.278 . S
Mn423 O422 2.290 . S
Mn423 O425 2.089 . S
Mn423 O428 2.251 . S
Mn423 O429 2.087 . S
O424 Mn418 2.163 . S
O424 C434 1.244 . S
O425 Mn423 2.089 . S
O425 C432 1.256 . S
O426 Mn418 2.160 . S
O426 C435 1.239 . S
O427 Mn420 2.089 . S
O427 C435 1.256 . S
O428 Mn423 2.251 . S
O428 C433 1.241 . S
O429 Mn423 2.087 . S
O429 C434 1.256 . S
C430 O436 1.278 . S
C430 O437 1.241 . S
C431 O417 1.244 . S
C431 O419 1.256 . S
C432 O421 1.239 . S
C432 O425 1.256 . S
C433 O422 1.278 . S
C433 O428 1.241 . S
C434 O424 1.244 . S
C434 O429 1.256 . S
C435 O426 1.239 . S
C435 O427 1.256 . S
O436 Mn418 2.221 . S
O436 Mn420 2.290 . S
O436 C430 1.278 . S
O437 Mn420 2.251 . S
O437 C430 1.241 . S
O438 Mn439 2.163 . S
O438 C452 1.244 . S
Mn439 O438 2.163 . S
Mn439 O442 2.160 . S
Mn439 O443 2.221 . S
Mn439 O445 2.163 . S
Mn439 O447 2.160 . S
Mn439 O457 2.221 . S
O440 Mn441 2.087 . S
O440 C452 1.256 . S
Mn441 O440 2.087 . S
Mn441 O448 2.089 . S
Mn441 O457 2.290 . S
Mn441 O458 2.251 . S
O442 Mn439 2.160 . S
O442 C453 1.239 . S
O443 Mn439 2.221 . S
O443 Mn444 2.290 . S
O443 C454 1.278 . S
Mn444 O443 2.290 . S
Mn444 O446 2.089 . S
Mn444 O449 2.251 . S
Mn444 O450 2.087 . S
O445 Mn439 2.163 . S
O445 C455 1.244 . S
O446 Mn444 2.089 . S
O446 C453 1.256 . S
O447 Mn439 2.160 . S
O447 C456 1.239 . S
O448 Mn441 2.089 . S
O448 C456 1.256 . S
O449 Mn444 2.251 . S
O449 C454 1.241 . S
O450 Mn444 2.087 . S
O450 C455 1.256 . S
C451 O457 1.278 . S
C451 O458 1.241 . S
C452 O438 1.244 . S
C452 O440 1.256 . S
C453 O442 1.239 . S
C453 O446 1.256 . S
C454 O443 1.278 . S
C454 O449 1.241 . S
C455 O445 1.244 . S
C455 O450 1.256 . S
C456 O447 1.239 . S
C456 O448 1.256 . S
O457 Mn439 2.221 . S
O457 Mn441 2.290 . S
O457 C451 1.278 . S
O458 Mn441 2.251 . S
O458 C451 1.241 . S
O459 Mn460 2.163 . S
O459 C473 1.244 . S
Mn460 O459 2.163 . S
Mn460 O463 2.160 . S
Mn460 O464 2.221 . S
Mn460 O466 2.163 . S
Mn460 O468 2.160 . S
Mn460 O478 2.221 . S
O461 Mn462 2.087 . S
O461 C473 1.256 . S
Mn462 O461 2.087 . S
Mn462 O469 2.089 . S
Mn462 O478 2.290 . S
Mn462 O479 2.251 . S
O463 Mn460 2.160 . S
O463 C474 1.239 . S
O464 Mn460 2.221 . S
O464 Mn465 2.290 . S
O464 C475 1.278 . S
Mn465 O464 2.290 . S
Mn465 O467 2.089 . S
Mn465 O470 2.251 . S
Mn465 O471 2.087 . S
O466 Mn460 2.163 . S
O466 C476 1.244 . S
O467 Mn465 2.089 . S
O467 C474 1.256 . S
O468 Mn460 2.160 . S
O468 C477 1.239 . S
O469 Mn462 2.089 . S
O469 C477 1.256 . S
O470 Mn465 2.251 . S
O470 C475 1.241 . S
O471 Mn465 2.087 . S
O471 C476 1.256 . S
C472 O478 1.278 . S
C472 O479 1.241 . S
C473 O459 1.244 . S
C473 O461 1.256 . S
C474 O463 1.239 . S
C474 O467 1.256 . S
C475 O464 1.278 . S
C475 O470 1.241 . S
C476 O466 1.244 . S
C476 O471 1.256 . S
C477 O468 1.239 . S
C477 O469 1.256 . S
O478 Mn460 2.221 . S
O478 Mn462 2.290 . S
O478 C472 1.278 . S
O479 Mn462 2.251 . S
O479 C472 1.241 . S
O480 Mn481 2.163 . S
O480 C494 1.244 . S
Mn481 O480 2.163 . S
Mn481 O484 2.160 . S
Mn481 O485 2.221 . S
Mn481 O487 2.163 . S
Mn481 O489 2.160 . S
Mn481 O499 2.221 . S
O482 Mn483 2.087 . S
O482 C494 1.256 . S
Mn483 O482 2.087 . S
Mn483 O490 2.089 . S
Mn483 O499 2.290 . S
Mn483 O500 2.251 . S
O484 Mn481 2.160 . S
O484 C495 1.239 . S
O485 Mn481 2.221 . S
O485 Mn486 2.290 . S
O485 C496 1.278 . S
Mn486 O485 2.290 . S
Mn486 O488 2.089 . S
Mn486 O491 2.251 . S
Mn486 O492 2.087 . S
O487 Mn481 2.163 . S
O487 C497 1.244 . S
O488 Mn486 2.089 . S
O488 C495 1.256 . S
O489 Mn481 2.160 . S
O489 C498 1.239 . S
O490 Mn483 2.089 . S
O490 C498 1.256 . S
O491 Mn486 2.251 . S
O491 C496 1.241 . S
O492 Mn486 2.087 . S
O492 C497 1.256 . S
C493 O499 1.278 . S
C493 O500 1.241 . S
C494 O480 1.244 . S
C494 O482 1.256 . S
C495 O484 1.239 . S
C495 O488 1.256 . S
C496 O485 1.278 . S
C496 O491 1.241 . S
C497 O487 1.244 . S
C497 O492 1.256 . S
C498 O489 1.239 . S
C498 O490 1.256 . S
O499 Mn481 2.221 . S
O499 Mn483 2.290 . S
O499 C493 1.278 . S
O500 Mn483 2.251 . S
O500 C493 1.241 . S
O501 Mn502 2.163 . S
O501 C515 1.244 . S
Mn502 O501 2.163 . S
Mn502 O505 2.160 . S
Mn502 O506 2.221 . S
Mn502 O508 2.163 . S
Mn502 O510 2.160 . S
Mn502 O520 2.221 . S
O503 Mn504 2.087 . S
O503 C515 1.256 . S
Mn504 O503 2.087 . S
Mn504 O511 2.089 . S
Mn504 O520 2.290 . S
Mn504 O521 2.251 . S
O505 Mn502 2.160 . S
O505 C516 1.239 . S
O506 Mn502 2.221 . S
O506 Mn507 2.290 . S
O506 C517 1.278 . S
Mn507 O506 2.290 . S
Mn507 O509 2.089 . S
Mn507 O512 2.251 . S
Mn507 O513 2.087 . S
O508 Mn502 2.163 . S
O508 C518 1.244 . S
O509 Mn507 2.089 . S
O509 C516 1.256 . S
O510 Mn502 2.160 . S
O510 C519 1.239 . S
O511 Mn504 2.089 . S
O511 C519 1.256 . S
O512 Mn507 2.251 . S
O512 C517 1.241 . S
O513 Mn507 2.087 . S
O513 C518 1.256 . S
C514 O520 1.278 . S
C514 O521 1.241 . S
C515 O501 1.244 . S
C515 O503 1.256 . S
C516 O505 1.239 . S
C516 O509 1.256 . S
C517 O506 1.278 . S
C517 O512 1.241 . S
C518 O508 1.244 . S
C518 O513 1.256 . S
C519 O510 1.239 . S
C519 O511 1.256 . S
O520 Mn502 2.221 . S
O520 Mn504 2.290 . S
O520 C514 1.278 . S
O521 Mn504 2.251 . S
O521 C514 1.241 . S
O522 Mn523 2.163 . S
O522 C536 1.244 . S
Mn523 O522 2.163 . S
Mn523 O526 2.160 . S
Mn523 O527 2.221 . S
Mn523 O529 2.163 . S
Mn523 O531 2.160 . S
Mn523 O541 2.221 . S
O524 Mn525 2.087 . S
O524 C536 1.256 . S
Mn525 O524 2.087 . S
Mn525 O532 2.089 . S
Mn525 O541 2.290 . S
Mn525 O542 2.251 . S
O526 Mn523 2.160 . S
O526 C537 1.239 . S
O527 Mn523 2.221 . S
O527 Mn528 2.290 . S
O527 C538 1.278 . S
Mn528 O527 2.290 . S
Mn528 O530 2.089 . S
Mn528 O533 2.251 . S
Mn528 O534 2.087 . S
O529 Mn523 2.163 . S
O529 C539 1.244 . S
O530 Mn528 2.089 . S
O530 C537 1.256 . S
O531 Mn523 2.160 . S
O531 C540 1.239 . S
O532 Mn525 2.089 . S
O532 C540 1.256 . S
O533 Mn528 2.251 . S
O533 C538 1.241 . S
O534 Mn528 2.087 . S
O534 C539 1.256 . S
C535 O541 1.278 . S
C535 O542 1.241 . S
C536 O522 1.244 . S
C536 O524 1.256 . S
C537 O526 1.239 . S
C537 O530 1.256 . S
C538 O527 1.278 . S
C538 O533 1.241 . S
C539 O529 1.244 . S
C539 O534 1.256 . S
C540 O531 1.239 . S
C540 O532 1.256 . S
O541 Mn523 2.221 . S
O541 Mn525 2.290 . S
O541 C535 1.278 . S
O542 Mn525 2.251 . S
O542 C535 1.241 . S
O543 Mn544 2.163 . S
O543 C557 1.244 . S
Mn544 O543 2.163 . S
Mn544 O547 2.160 . S
Mn544 O548 2.221 . S
Mn544 O550 2.163 . S
Mn544 O552 2.160 . S
Mn544 O562 2.221 . S
O545 Mn546 2.087 . S
O545 C557 1.256 . S
Mn546 O545 2.087 . S
Mn546 O553 2.089 . S
Mn546 O562 2.290 . S
Mn546 O563 2.251 . S
O547 Mn544 2.160 . S
O547 C558 1.239 . S
O548 Mn544 2.221 . S
O548 Mn549 2.290 . S
O548 C559 1.278 . S
Mn549 O548 2.290 . S
Mn549 O551 2.089 . S
Mn549 O554 2.251 . S
Mn549 O555 2.087 . S
O550 Mn544 2.163 . S
O550 C560 1.244 . S
O551 Mn549 2.089 . S
O551 C558 1.256 . S
O552 Mn544 2.160 . S
O552 C561 1.239 . S
O553 Mn546 2.089 . S
O553 C561 1.256 . S
O554 Mn549 2.251 . S
O554 C559 1.241 . S
O555 Mn549 2.087 . S
O555 C560 1.256 . S
C556 O562 1.278 . S
C556 O563 1.241 . S
C557 O543 1.244 . S
C557 O545 1.256 . S
C558 O547 1.239 . S
C558 O551 1.256 . S
C559 O548 1.278 . S
C559 O554 1.241 . S
C560 O550 1.244 . S
C560 O555 1.256 . S
C561 O552 1.239 . S
C561 O553 1.256 . S
O562 Mn544 2.221 . S
O562 Mn546 2.290 . S
O562 C556 1.278 . S
O563 Mn546 2.251 . S
O563 C556 1.241 . S
O564 Mn565 2.163 . S
O564 C578 1.244 . S
Mn565 O564 2.163 . S
Mn565 O568 2.160 . S
Mn565 O569 2.221 . S
Mn565 O571 2.163 . S
Mn565 O573 2.160 . S
Mn565 O583 2.221 . S
O566 Mn567 2.087 . S
O566 C578 1.256 . S
Mn567 O566 2.087 . S
Mn567 O574 2.089 . S
Mn567 O583 2.290 . S
Mn567 O584 2.251 . S
O568 Mn565 2.160 . S
O568 C579 1.239 . S
O569 Mn565 2.221 . S
O569 Mn570 2.290 . S
O569 C580 1.278 . S
Mn570 O569 2.290 . S
Mn570 O572 2.089 . S
Mn570 O575 2.251 . S
Mn570 O576 2.087 . S
O571 Mn565 2.163 . S
O571 C581 1.244 . S
O572 Mn570 2.089 . S
O572 C579 1.256 . S
O573 Mn565 2.160 . S
O573 C582 1.239 . S
O574 Mn567 2.089 . S
O574 C582 1.256 . S
O575 Mn570 2.251 . S
O575 C580 1.241 . S
O576 Mn570 2.087 . S
O576 C581 1.256 . S
C577 O583 1.278 . S
C577 O584 1.241 . S
C578 O564 1.244 . S
C578 O566 1.256 . S
C579 O568 1.239 . S
C579 O572 1.256 . S
C580 O569 1.278 . S
C580 O575 1.241 . S
C581 O571 1.244 . S
C581 O576 1.256 . S
C582 O573 1.239 . S
C582 O574 1.256 . S
O583 Mn565 2.221 . S
O583 Mn567 2.290 . S
O583 C577 1.278 . S
O584 Mn567 2.251 . S
O584 C577 1.241 . S
O585 Mn586 2.163 . S
O585 C599 1.244 . S
Mn586 O585 2.163 . S
Mn586 O589 2.160 . S
Mn586 O590 2.221 . S
Mn586 O592 2.163 . S
Mn586 O594 2.160 . S
Mn586 O604 2.221 . S
O587 Mn588 2.087 . S
O587 C599 1.256 . S
Mn588 O587 2.087 . S
Mn588 O595 2.089 . S
Mn588 O604 2.290 . S
Mn588 O605 2.251 . S
O589 Mn586 2.160 . S
O589 C600 1.239 . S
O590 Mn586 2.221 . S
O590 Mn591 2.290 . S
O590 C601 1.278 . S
Mn591 O590 2.290 . S
Mn591 O593 2.089 . S
Mn591 O596 2.251 . S
Mn591 O597 2.087 . S
O592 Mn586 2.163 . S
O592 C602 1.244 . S
O593 Mn591 2.089 . S
O593 C600 1.256 . S
O594 Mn586 2.160 . S
O594 C603 1.239 . S
O595 Mn588 2.089 . S
O595 C603 1.256 . S
O596 Mn591 2.251 . S
O596 C601 1.241 . S
O597 Mn591 2.087 . S
O597 C602 1.256 . S
C598 O604 1.278 . S
C598 O605 1.241 . S
C599 O585 1.244 . S
C599 O587 1.256 . S
C600 O589 1.239 . S
C600 O593 1.256 . S
C601 O590 1.278 . S
C601 O596 1.241 . S
C602 O592 1.244 . S
C602 O597 1.256 . S
C603 O594 1.239 . S
C603 O595 1.256 . S
O604 Mn586 2.221 . S
O604 Mn588 2.290 . S
O604 C598 1.278 . S
O605 Mn588 2.251 . S
O605 C598 1.241 . S
O606 Mn607 2.163 . S
O606 C620 1.244 . S
Mn607 O606 2.163 . S
Mn607 O610 2.160 . S
Mn607 O611 2.221 . S
Mn607 O613 2.163 . S
Mn607 O615 2.160 . S
Mn607 O625 2.221 . S
O608 Mn609 2.087 . S
O608 C620 1.256 . S
Mn609 O608 2.087 . S
Mn609 O616 2.089 . S
Mn609 O625 2.290 . S
Mn609 O626 2.251 . S
O610 Mn607 2.160 . S
O610 C621 1.239 . S
O611 Mn607 2.221 . S
O611 Mn612 2.290 . S
O611 C622 1.278 . S
Mn612 O611 2.290 . S
Mn612 O614 2.089 . S
Mn612 O617 2.251 . S
Mn612 O618 2.087 . S
O613 Mn607 2.163 . S
O613 C623 1.244 . S
O614 Mn612 2.089 . S
O614 C621 1.256 . S
O615 Mn607 2.160 . S
O615 C624 1.239 . S
O616 Mn609 2.089 . S
O616 C624 1.256 . S
O617 Mn612 2.251 . S
O617 C622 1.241 . S
O618 Mn612 2.087 . S
O618 C623 1.256 . S
C619 O625 1.278 . S
C619 O626 1.241 . S
C620 O606 1.244 . S
C620 O608 1.256 . S
C621 O610 1.239 . S
C621 O614 1.256 . S
C622 O611 1.278 . S
C622 O617 1.241 . S
C623 O613 1.244 . S
C623 O618 1.256 . S
C624 O615 1.239 . S
C624 O616 1.256 . S
O625 Mn607 2.221 . S
O625 Mn609 2.290 . S
O625 C619 1.278 . S
O626 Mn609 2.251 . S
O626 C619 1.241 . S
O627 Mn628 2.163 . S
O627 C641 1.244 . S
Mn628 O627 2.163 . S
Mn628 O631 2.160 . S
Mn628 O632 2.221 . S
Mn628 O634 2.163 . S
Mn628 O636 2.160 . S
Mn628 O646 2.221 . S
O629 Mn630 2.087 . S
O629 C641 1.256 . S
Mn630 O629 2.087 . S
Mn630 O637 2.089 . S
Mn630 O646 2.290 . S
Mn630 O647 2.251 . S
O631 Mn628 2.160 . S
O631 C642 1.239 . S
O632 Mn628 2.221 . S
O632 Mn633 2.290 . S
O632 C643 1.278 . S
Mn633 O632 2.290 . S
Mn633 O635 2.089 . S
Mn633 O638 2.251 . S
Mn633 O639 2.087 . S
O634 Mn628 2.163 . S
O634 C644 1.244 . S
O635 Mn633 2.089 . S
O635 C642 1.256 . S
O636 Mn628 2.160 . S
O636 C645 1.239 . S
O637 Mn630 2.089 . S
O637 C645 1.256 . S
O638 Mn633 2.251 . S
O638 C643 1.241 . S
O639 Mn633 2.087 . S
O639 C644 1.256 . S
C640 O646 1.278 . S
C640 O647 1.241 . S
C641 O627 1.244 . S
C641 O629 1.256 . S
C642 O631 1.239 . S
C642 O635 1.256 . S
C643 O632 1.278 . S
C643 O638 1.241 . S
C644 O634 1.244 . S
C644 O639 1.256 . S
C645 O636 1.239 . S
C645 O637 1.256 . S
O646 Mn628 2.221 . S
O646 Mn630 2.290 . S
O646 C640 1.278 . S
O647 Mn630 2.251 . S
O647 C640 1.241 . S
H648 C666 0.951 . S
H649 C668 0.951 . S
H650 C670 0.950 . S
H651 C671 0.950 . S
H652 C673 0.950 . S
H653 C676 0.950 . S
H654 C677 0.950 . S
H655 C679 0.950 . S
H656 C680 0.950 . S
H657 C681 0.951 . S
H658 C683 0.951 . S
H659 C685 0.950 . S
H660 C686 0.950 . S
H661 C688 0.950 . S
H662 C691 0.950 . S
H663 C692 0.950 . S
H664 C694 0.950 . S
H665 C695 0.950 . S
C666 H648 0.951 . S
C666 C667 1.366 . S
C666 C668 1.388 . S
C667 C666 1.366 . S
C667 C671 1.385 . S
C668 H649 0.951 . S
C668 C666 1.388 . S
C668 C669 1.366 . S
C669 C668 1.366 . S
C669 C670 1.414 . S
C669 C672 1.499 . S
C670 H650 0.950 . S
C670 C669 1.414 . S
C670 C671 1.374 . S
C671 H651 0.950 . S
C671 C667 1.385 . S
C671 C670 1.374 . S
C672 C669 1.499 . S
C672 C673 1.373 . S
C672 C674 1.389 . S
C673 H652 0.950 . S
C673 C672 1.373 . S
C673 C689 1.377 . S
C674 C672 1.389 . S
C674 C675 1.524 . S
C674 C688 1.377 . S
C675 C674 1.524 . S
C675 C676 1.397 . S
C675 C680 1.363 . S
C676 H653 0.950 . S
C676 C675 1.397 . S
C676 C677 1.334 . S
C677 H654 0.950 . S
C677 C676 1.334 . S
C677 C678 1.287 . S
C678 C677 1.287 . S
C678 C679 1.524 . S
C678 H697 0.913 . S
C679 H655 0.950 . S
C679 C678 1.524 . S
C679 C680 1.415 . S
C680 H656 0.950 . S
C680 C675 1.363 . S
C680 C679 1.415 . S
C681 H657 0.951 . S
C681 C682 1.366 . S
C681 C683 1.388 . S
C682 C681 1.366 . S
C682 C686 1.385 . S
C683 H658 0.951 . S
C683 C681 1.388 . S
C683 C684 1.366 . S
C684 C683 1.366 . S
C684 C685 1.414 . S
C684 C687 1.499 . S
C685 H659 0.950 . S
C685 C684 1.414 . S
C685 C686 1.374 . S
C686 H660 0.950 . S
C686 C682 1.385 . S
C686 C685 1.374 . S
C687 C684 1.499 . S
C687 C688 1.373 . S
C687 C689 1.389 . S
C688 H661 0.950 . S
C688 C674 1.377 . S
C688 C687 1.373 . S
C689 C673 1.377 . S
C689 C687 1.389 . S
C689 C690 1.524 . S
C690 C689 1.524 . S
C690 C691 1.397 . S
C690 C695 1.363 . S
C691 H662 0.950 . S
C691 C690 1.397 . S
C691 C692 1.334 . S
C692 H663 0.950 . S
C692 C691 1.334 . S
C692 C693 1.287 . S
C693 C692 1.287 . S
C693 C694 1.524 . S
C693 H696 0.999 . S
C694 H664 0.950 . S
C694 C693 1.524 . S
C694 C695 1.415 . S
C695 H665 0.950 . S
C695 C690 1.363 . S
C695 C694 1.415 . S
H696 C693 0.999 . S
H697 C678 0.913 . S
H698 C716 0.951 . S
H699 C718 0.951 . S
H700 C720 0.950 . S
H701 C721 0.950 . S
H702 C723 0.950 . S
H703 C726 0.950 . S
H704 C727 0.950 . S
H705 C729 0.950 . S
H706 C730 0.950 . S
H707 C731 0.951 . S
H708 C733 0.951 . S
H709 C735 0.950 . S
H710 C736 0.950 . S
H711 C738 0.950 . S
H712 C741 0.950 . S
H713 C742 0.950 . S
H714 C744 0.950 . S
H715 C745 0.950 . S
C716 H698 0.951 . S
C716 C717 1.366 . S
C716 C718 1.388 . S
C717 C716 1.366 . S
C717 C721 1.385 . S
C718 H699 0.951 . S
C718 C716 1.388 . S
C718 C719 1.366 . S
C719 C718 1.366 . S
C719 C720 1.414 . S
C719 C722 1.499 . S
C720 H700 0.950 . S
C720 C719 1.414 . S
C720 C721 1.374 . S
C721 H701 0.950 . S
C721 C717 1.385 . S
C721 C720 1.374 . S
C722 C719 1.499 . S
C722 C723 1.373 . S
C722 C724 1.389 . S
C723 H702 0.950 . S
C723 C722 1.373 . S
C723 C739 1.377 . S
C724 C722 1.389 . S
C724 C725 1.524 . S
C724 C738 1.377 . S
C725 C724 1.524 . S
C725 C726 1.397 . S
C725 C730 1.363 . S
C726 H703 0.950 . S
C726 C725 1.397 . S
C726 C727 1.334 . S
C727 H704 0.950 . S
C727 C726 1.334 . S
C727 C728 1.287 . S
C728 C727 1.287 . S
C728 C729 1.524 . S
C728 H747 0.913 . S
C729 H705 0.950 . S
C729 C728 1.524 . S
C729 C730 1.415 . S
C730 H706 0.950 . S
C730 C725 1.363 . S
C730 C729 1.415 . S
C731 H707 0.951 . S
C731 C732 1.366 . S
C731 C733 1.388 . S
C732 C731 1.366 . S
C732 C736 1.385 . S
C733 H708 0.951 . S
C733 C731 1.388 . S
C733 C734 1.366 . S
C734 C733 1.366 . S
C734 C735 1.414 . S
C734 C737 1.499 . S
C735 H709 0.950 . S
C735 C734 1.414 . S
C735 C736 1.374 . S
C736 H710 0.950 . S
C736 C732 1.385 . S
C736 C735 1.374 . S
C737 C734 1.499 . S
C737 C738 1.373 . S
C737 C739 1.389 . S
C738 H711 0.950 . S
C738 C724 1.377 . S
C738 C737 1.373 . S
C739 C723 1.377 . S
C739 C737 1.389 . S
C739 C740 1.524 . S
C740 C739 1.524 . S
C740 C741 1.397 . S
C740 C745 1.363 . S
C741 H712 0.950 . S
C741 C740 1.397 . S
C741 C742 1.334 . S
C742 H713 0.950 . S
C742 C741 1.334 . S
C742 C743 1.287 1_455 S
C743 C742 1.287 1_655 S
C743 C744 1.524 . S
C743 H746 0.999 . S
C744 H714 0.950 . S
C744 C743 1.524 . S
C744 C745 1.415 1_655 S
C745 H715 0.950 . S
C745 C740 1.363 . S
C745 C744 1.415 1_455 S
H746 C743 0.999 . S
H747 C728 0.913 . S
H748 C766 0.951 . S
H749 C768 0.951 . S
H750 C770 0.950 . S
H751 C771 0.950 . S
H752 C773 0.950 . S
H753 C776 0.950 . S
H754 C777 0.950 . S
H755 C779 0.950 . S
H756 C780 0.950 . S
H757 C781 0.951 . S
H758 C783 0.951 . S
H759 C785 0.950 . S
H760 C786 0.950 . S
H761 C788 0.950 . S
H762 C791 0.950 . S
H763 C792 0.950 . S
H764 C794 0.950 . S
H765 C795 0.950 . S
C766 H748 0.951 . S
C766 C767 1.366 . S
C766 C768 1.388 . S
C767 C766 1.366 . S
C767 C771 1.385 . S
C768 H749 0.951 . S
C768 C766 1.388 . S
C768 C769 1.366 . S
C769 C768 1.366 . S
C769 C770 1.414 . S
C769 C772 1.499 . S
C770 H750 0.950 . S
C770 C769 1.414 . S
C770 C771 1.374 . S
C771 H751 0.950 . S
C771 C767 1.385 . S
C771 C770 1.374 . S
C772 C769 1.499 . S
C772 C773 1.373 . S
C772 C774 1.389 . S
C773 H752 0.950 . S
C773 C772 1.373 . S
C773 C789 1.377 . S
C774 C772 1.389 . S
C774 C775 1.524 . S
C774 C788 1.377 . S
C775 C774 1.524 . S
C775 C776 1.397 . S
C775 C780 1.363 . S
C776 H753 0.950 . S
C776 C775 1.397 . S
C776 C777 1.334 . S
C777 H754 0.950 . S
C777 C776 1.334 . S
C777 C778 1.287 . S
C778 C777 1.287 . S
C778 C779 1.524 . S
C778 H797 0.913 . S
C779 H755 0.950 . S
C779 C778 1.524 . S
C779 C780 1.415 . S
C780 H756 0.950 . S
C780 C775 1.363 . S
C780 C779 1.415 . S
C781 H757 0.951 . S
C781 C782 1.366 . S
C781 C783 1.388 . S
C782 C781 1.366 . S
C782 C786 1.385 . S
C783 H758 0.951 . S
C783 C781 1.388 . S
C783 C784 1.366 . S
C784 C783 1.366 . S
C784 C785 1.414 . S
C784 C787 1.499 . S
C785 H759 0.950 . S
C785 C784 1.414 . S
C785 C786 1.374 . S
C786 H760 0.950 . S
C786 C782 1.385 . S
C786 C785 1.374 . S
C787 C784 1.499 . S
C787 C788 1.373 . S
C787 C789 1.389 . S
C788 H761 0.950 . S
C788 C774 1.377 . S
C788 C787 1.373 . S
C789 C773 1.377 . S
C789 C787 1.389 . S
C789 C790 1.524 . S
C790 C789 1.524 . S
C790 C791 1.397 . S
C790 C795 1.363 . S
C791 H762 0.950 . S
C791 C790 1.397 . S
C791 C792 1.334 . S
C792 H763 0.950 . S
C792 C791 1.334 . S
C792 C793 1.287 . S
C793 C792 1.287 . S
C793 C794 1.524 . S
C793 H796 0.999 . S
C794 H764 0.950 . S
C794 C793 1.524 . S
C794 C795 1.415 . S
C795 H765 0.950 . S
C795 C790 1.363 . S
C795 C794 1.415 . S
H796 C793 0.999 . S
H797 C778 0.913 . S
H798 C816 0.951 . S
H799 C818 0.951 . S
H800 C820 0.950 . S
H801 C821 0.950 . S
H802 C823 0.950 . S
H803 C826 0.950 . S
H804 C827 0.950 . S
H805 C829 0.950 . S
H806 C830 0.950 . S
H807 C831 0.951 . S
H808 C833 0.951 . S
H809 C835 0.950 . S
H810 C836 0.950 . S
H811 C838 0.950 . S
H812 C841 0.950 . S
H813 C842 0.950 . S
H814 C844 0.950 . S
H815 C845 0.950 . S
C816 H798 0.951 . S
C816 C817 1.366 . S
C816 C818 1.388 . S
C817 C816 1.366 . S
C817 C821 1.385 . S
C818 H799 0.951 . S
C818 C816 1.388 . S
C818 C819 1.366 . S
C819 C818 1.366 . S
C819 C820 1.414 . S
C819 C822 1.499 . S
C820 H800 0.950 . S
C820 C819 1.414 . S
C820 C821 1.374 . S
C821 H801 0.950 . S
C821 C817 1.385 . S
C821 C820 1.374 . S
C822 C819 1.499 . S
C822 C823 1.373 . S
C822 C824 1.389 . S
C823 H802 0.950 . S
C823 C822 1.373 . S
C823 C839 1.377 . S
C824 C822 1.389 . S
C824 C825 1.524 . S
C824 C838 1.377 . S
C825 C824 1.524 . S
C825 C826 1.397 . S
C825 C830 1.363 . S
C826 H803 0.950 . S
C826 C825 1.397 . S
C826 C827 1.334 . S
C827 H804 0.950 . S
C827 C826 1.334 . S
C827 C828 1.287 . S
C828 C827 1.287 . S
C828 C829 1.524 . S
C828 H847 0.913 . S
C829 H805 0.950 . S
C829 C828 1.524 . S
C829 C830 1.415 . S
C830 H806 0.950 . S
C830 C825 1.363 . S
C830 C829 1.415 . S
C831 H807 0.951 . S
C831 C832 1.366 . S
C831 C833 1.388 . S
C832 C831 1.366 . S
C832 C836 1.385 . S
C833 H808 0.951 . S
C833 C831 1.388 . S
C833 C834 1.366 . S
C834 C833 1.366 . S
C834 C835 1.414 . S
C834 C837 1.499 1_556 S
C835 H809 0.950 . S
C835 C834 1.414 . S
C835 C836 1.374 . S
C836 H810 0.950 . S
C836 C832 1.385 . S
C836 C835 1.374 . S
C837 C834 1.499 1_554 S
C837 C838 1.373 . S
C837 C839 1.389 . S
C838 H811 0.950 . S
C838 C824 1.377 . S
C838 C837 1.373 . S
C839 C823 1.377 . S
C839 C837 1.389 . S
C839 C840 1.524 . S
C840 C839 1.524 . S
C840 C841 1.397 1_554 S
C840 C845 1.363 . S
C841 H812 0.950 . S
C841 C840 1.397 1_556 S
C841 C842 1.334 . S
C842 H813 0.950 . S
C842 C841 1.334 . S
C842 C843 1.287 . S
C843 C842 1.287 . S
C843 C844 1.524 1_556 S
C843 H846 0.999 . S
C844 H814 0.950 . S
C844 C843 1.524 1_554 S
C844 C845 1.415 . S
C845 H815 0.950 . S
C845 C840 1.363 . S
C845 C844 1.415 . S
H846 C843 0.999 . S
H847 C828 0.913 . S
H848 C866 0.951 . S
H849 C868 0.951 . S
H850 C870 0.950 . S
H851 C871 0.950 . S
H852 C873 0.950 . S
H853 C876 0.950 . S
H854 C877 0.950 . S
H855 C879 0.950 . S
H856 C880 0.950 . S
H857 C881 0.951 . S
H858 C883 0.951 . S
H859 C885 0.950 . S
H860 C886 0.950 . S
H861 C888 0.950 . S
H862 C891 0.950 . S
H863 C892 0.950 . S
H864 C894 0.950 . S
H865 C895 0.950 . S
C866 H848 0.951 . S
C866 C867 1.366 . S
C866 C868 1.388 . S
C867 C866 1.366 . S
C867 C871 1.385 . S
C868 H849 0.951 . S
C868 C866 1.388 . S
C868 C869 1.366 . S
C869 C868 1.366 . S
C869 C870 1.414 . S
C869 C872 1.499 . S
C870 H850 0.950 . S
C870 C869 1.414 . S
C870 C871 1.374 . S
C871 H851 0.950 . S
C871 C867 1.385 . S
C871 C870 1.374 . S
C872 C869 1.499 . S
C872 C873 1.373 . S
C872 C874 1.389 . S
C873 H852 0.950 . S
C873 C872 1.373 . S
C873 C889 1.377 . S
C874 C872 1.389 . S
C874 C875 1.524 . S
C874 C888 1.377 . S
C875 C874 1.524 . S
C875 C876 1.397 . S
C875 C880 1.363 . S
C876 H853 0.950 . S
C876 C875 1.397 . S
C876 C877 1.334 1_455 S
C877 H854 0.950 . S
C877 C876 1.334 1_655 S
C877 C878 1.287 . S
C878 C877 1.287 . S
C878 C879 1.524 1_655 S
C878 H897 0.913 . S
C879 H855 0.950 . S
C879 C878 1.524 1_455 S
C879 C880 1.415 . S
C880 H856 0.950 . S
C880 C875 1.363 . S
C880 C879 1.415 . S
C881 H857 0.951 . S
C881 C882 1.366 . S
C881 C883 1.388 . S
C882 C881 1.366 . S
C882 C886 1.385 . S
C883 H858 0.951 . S
C883 C881 1.388 . S
C883 C884 1.366 . S
C884 C883 1.366 . S
C884 C885 1.414 . S
C884 C887 1.499 . S
C885 H859 0.950 . S
C885 C884 1.414 . S
C885 C886 1.374 . S
C886 H860 0.950 . S
C886 C882 1.385 . S
C886 C885 1.374 . S
C887 C884 1.499 . S
C887 C888 1.373 . S
C887 C889 1.389 . S
C888 H861 0.950 . S
C888 C874 1.377 . S
C888 C887 1.373 . S
C889 C873 1.377 . S
C889 C887 1.389 . S
C889 C890 1.524 . S
C890 C889 1.524 . S
C890 C891 1.397 . S
C890 C895 1.363 . S
C891 H862 0.950 . S
C891 C890 1.397 . S
C891 C892 1.334 . S
C892 H863 0.950 . S
C892 C891 1.334 . S
C892 C893 1.287 . S
C893 C892 1.287 . S
C893 C894 1.524 . S
C893 H896 0.999 . S
C894 H864 0.950 . S
C894 C893 1.524 . S
C894 C895 1.415 . S
C895 H865 0.950 . S
C895 C890 1.363 . S
C895 C894 1.415 . S
H896 C893 0.999 . S
H897 C878 0.913 . S
H898 C916 0.951 . S
H899 C918 0.951 . S
H900 C920 0.950 . S
H901 C921 0.950 . S
H902 C923 0.950 . S
H903 C926 0.950 . S
H904 C927 0.950 . S
H905 C929 0.950 . S
H906 C930 0.950 . S
H907 C931 0.951 . S
H908 C933 0.951 . S
H909 C935 0.950 . S
H910 C936 0.950 . S
H911 C938 0.950 . S
H912 C941 0.950 . S
H913 C942 0.950 . S
H914 C944 0.950 . S
H915 C945 0.950 . S
C916 H898 0.951 . S
C916 C917 1.366 . S
C916 C918 1.388 . S
C917 C916 1.366 . S
C917 C921 1.385 . S
C918 H899 0.951 . S
C918 C916 1.388 . S
C918 C919 1.366 . S
C919 C918 1.366 . S
C919 C920 1.414 . S
C919 C922 1.499 . S
C920 H900 0.950 . S
C920 C919 1.414 . S
C920 C921 1.374 . S
C921 H901 0.950 . S
C921 C917 1.385 . S
C921 C920 1.374 . S
C922 C919 1.499 . S
C922 C923 1.373 . S
C922 C924 1.389 . S
C923 H902 0.950 . S
C923 C922 1.373 . S
C923 C939 1.377 . S
C924 C922 1.389 . S
C924 C925 1.524 . S
C924 C938 1.377 . S
C925 C924 1.524 . S
C925 C926 1.397 . S
C925 C930 1.363 . S
C926 H903 0.950 . S
C926 C925 1.397 . S
C926 C927 1.334 . S
C927 H904 0.950 . S
C927 C926 1.334 . S
C927 C928 1.287 . S
C928 C927 1.287 . S
C928 C929 1.524 . S
C928 H947 0.913 . S
C929 H905 0.950 . S
C929 C928 1.524 . S
C929 C930 1.415 . S
C930 H906 0.950 . S
C930 C925 1.363 . S
C930 C929 1.415 . S
C931 H907 0.951 . S
C931 C932 1.366 . S
C931 C933 1.388 . S
C932 C931 1.366 . S
C932 C936 1.385 . S
C933 H908 0.951 . S
C933 C931 1.388 . S
C933 C934 1.366 . S
C934 C933 1.366 . S
C934 C935 1.414 . S
C934 C937 1.499 . S
C935 H909 0.950 . S
C935 C934 1.414 . S
C935 C936 1.374 . S
C936 H910 0.950 . S
C936 C932 1.385 . S
C936 C935 1.374 . S
C937 C934 1.499 . S
C937 C938 1.373 . S
C937 C939 1.389 . S
C938 H911 0.950 . S
C938 C924 1.377 . S
C938 C937 1.373 . S
C939 C923 1.377 . S
C939 C937 1.389 . S
C939 C940 1.524 . S
C940 C939 1.524 . S
C940 C941 1.397 . S
C940 C945 1.363 . S
C941 H912 0.950 . S
C941 C940 1.397 . S
C941 C942 1.334 . S
C942 H913 0.950 . S
C942 C941 1.334 . S
C942 C943 1.287 . S
C943 C942 1.287 . S
C943 C944 1.524 . S
C943 H946 0.999 . S
C944 H914 0.950 . S
C944 C943 1.524 . S
C944 C945 1.415 . S
C945 H915 0.950 . S
C945 C940 1.363 . S
C945 C944 1.415 . S
H946 C943 0.999 . S
H947 C928 0.913 . S
H948 C966 0.951 . S
H949 C968 0.951 . S
H950 C970 0.950 . S
H951 C971 0.950 . S
H952 C973 0.950 . S
H953 C976 0.950 . S
H954 C977 0.950 . S
H955 C979 0.950 . S
H956 C980 0.950 . S
H957 C981 0.951 . S
H958 C983 0.951 . S
H959 C985 0.950 . S
H960 C986 0.950 . S
H961 C988 0.950 . S
H962 C991 0.950 . S
H963 C992 0.950 . S
H964 C994 0.950 . S
H965 C995 0.950 . S
C966 H948 0.951 . S
C966 C967 1.366 . S
C966 C968 1.388 . S
C967 C966 1.366 . S
C967 C971 1.385 . S
C968 H949 0.951 . S
C968 C966 1.388 . S
C968 C969 1.366 . S
C969 C968 1.366 . S
C969 C970 1.414 . S
C969 C972 1.499 . S
C970 H950 0.950 . S
C970 C969 1.414 . S
C970 C971 1.374 . S
C971 H951 0.950 . S
C971 C967 1.385 . S
C971 C970 1.374 . S
C972 C969 1.499 . S
C972 C973 1.373 . S
C972 C974 1.389 . S
C973 H952 0.950 . S
C973 C972 1.373 . S
C973 C989 1.377 . S
C974 C972 1.389 . S
C974 C975 1.524 . S
C974 C988 1.377 . S
C975 C974 1.524 . S
C975 C976 1.397 . S
C975 C980 1.363 . S
C976 H953 0.950 . S
C976 C975 1.397 . S
C976 C977 1.334 . S
C977 H954 0.950 . S
C977 C976 1.334 . S
C977 C978 1.287 . S
C978 C977 1.287 . S
C978 C979 1.524 . S
C978 H997 0.913 . S
C979 H955 0.950 . S
C979 C978 1.524 . S
C979 C980 1.415 . S
C980 H956 0.950 . S
C980 C975 1.363 . S
C980 C979 1.415 . S
C981 H957 0.951 . S
C981 C982 1.366 . S
C981 C983 1.388 . S
C982 C981 1.366 . S
C982 C986 1.385 . S
C983 H958 0.951 . S
C983 C981 1.388 . S
C983 C984 1.366 . S
C984 C983 1.366 . S
C984 C985 1.414 . S
C984 C987 1.499 . S
C985 H959 0.950 . S
C985 C984 1.414 . S
C985 C986 1.374 . S
C986 H960 0.950 . S
C986 C982 1.385 . S
C986 C985 1.374 . S
C987 C984 1.499 . S
C987 C988 1.373 . S
C987 C989 1.389 . S
C988 H961 0.950 . S
C988 C974 1.377 . S
C988 C987 1.373 . S
C989 C973 1.377 . S
C989 C987 1.389 . S
C989 C990 1.524 . S
C990 C989 1.524 . S
C990 C991 1.397 . S
C990 C995 1.363 . S
C991 H962 0.950 . S
C991 C990 1.397 . S
C991 C992 1.334 . S
C992 H963 0.950 . S
C992 C991 1.334 . S
C992 C993 1.287 . S
C993 C992 1.287 . S
C993 C994 1.524 . S
C993 H996 0.999 . S
C994 H964 0.950 . S
C994 C993 1.524 . S
C994 C995 1.415 . S
C995 H965 0.950 . S
C995 C990 1.363 . S
C995 C994 1.415 . S
H996 C993 0.999 . S
H997 C978 0.913 . S
H998 C1016 0.951 . S
H999 C1018 0.951 . S
H1000 C1020 0.950 . S
H1001 C1021 0.950 . S
H1002 C1023 0.949 1_556 S
H1003 C1026 0.950 . S
H1004 C1027 0.950 . S
H1005 C1029 0.950 1_655 S
H1006 C1030 0.950 . S
H1007 C1031 0.951 . S
H1008 C1033 0.951 . S
H1009 C1035 0.950 . S
H1010 C1036 0.950 . S
H1011 C1038 0.950 . S
H1012 C1041 0.950 . S
H1013 C1042 0.950 . S
H1014 C1044 0.950 . S
H1015 C1045 0.950 . S
C1016 H998 0.951 . S
C1016 C1017 1.366 . S
C1016 C1018 1.388 . S
C1017 C1016 1.366 . S
C1017 C1021 1.385 . S
C1018 H999 0.951 . S
C1018 C1016 1.388 . S
C1018 C1019 1.366 . S
C1019 C1018 1.366 . S
C1019 C1020 1.414 . S
C1019 C1022 1.537 . S
C1020 H1000 0.950 . S
C1020 C1019 1.414 . S
C1020 C1021 1.374 . S
C1021 H1001 0.950 . S
C1021 C1017 1.385 . S
C1021 C1020 1.374 . S
C1022 C1019 1.537 . S
C1022 C1023 1.371 1_556 S
C1022 C1024 1.354 1_556 S
C1023 H1002 0.949 1_554 S
C1023 C1022 1.371 1_554 S
C1023 C1039 1.378 . S
C1024 C1022 1.354 1_554 S
C1024 C1025 1.524 . S
C1024 C1038 1.377 . S
C1025 C1024 1.524 . S
C1025 C1026 1.397 . S
C1025 C1030 1.363 . S
C1026 H1003 0.950 . S
C1026 C1025 1.397 . S
C1026 C1027 1.334 . S
C1027 H1004 0.950 . S
C1027 C1026 1.334 . S
C1027 C1028 1.287 . S
C1028 C1027 1.287 . S
C1028 C1029 1.524 . S
C1028 H1047 0.913 1_455 S
C1029 H1005 0.950 1_455 S
C1029 C1028 1.524 . S
C1029 C1030 1.415 . S
C1030 H1006 0.950 . S
C1030 C1025 1.363 . S
C1030 C1029 1.415 . S
C1031 H1007 0.951 . S
C1031 C1032 1.366 . S
C1031 C1033 1.388 . S
C1032 C1031 1.366 . S
C1032 C1036 1.385 . S
C1033 H1008 0.951 . S
C1033 C1031 1.388 . S
C1033 C1034 1.366 . S
C1034 C1033 1.366 . S
C1034 C1035 1.414 . S
C1034 C1037 1.499 . S
C1035 H1009 0.950 . S
C1035 C1034 1.414 . S
C1035 C1036 1.374 . S
C1036 H1010 0.950 . S
C1036 C1032 1.385 . S
C1036 C1035 1.374 . S
C1037 C1034 1.499 . S
C1037 C1038 1.373 . S
C1037 C1039 1.389 . S
C1038 H1011 0.950 . S
C1038 C1024 1.377 . S
C1038 C1037 1.373 . S
C1039 C1023 1.378 . S
C1039 C1037 1.389 . S
C1039 C1040 1.524 . S
C1040 C1039 1.524 . S
C1040 C1041 1.397 . S
C1040 C1045 1.363 . S
C1041 H1012 0.950 . S
C1041 C1040 1.397 . S
C1041 C1042 1.334 . S
C1042 H1013 0.950 . S
C1042 C1041 1.334 . S
C1042 C1043 1.287 . S
C1043 C1042 1.287 . S
C1043 C1044 1.524 . S
C1043 H1046 0.999 . S
C1044 H1014 0.950 . S
C1044 C1043 1.524 . S
C1044 C1045 1.415 . S
C1045 H1015 0.950 . S
C1045 C1040 1.363 . S
C1045 C1044 1.415 . S
H1046 C1043 0.999 . S
H1047 C1028 0.913 1_655 S
H1048 C1066 0.951 . S
H1049 C1068 0.951 . S
H1050 C1070 0.950 . S
H1051 C1071 0.950 . S
H1052 C1073 0.950 . S
H1053 C1076 0.950 . S
H1054 C1077 0.950 . S
H1055 C1079 0.950 . S
H1056 C1080 0.950 . S
H1057 C1081 0.951 . S
H1058 C1083 0.951 . S
H1059 C1085 0.950 . S
H1060 C1086 0.950 . S
H1061 C1088 0.950 . S
H1062 C1091 0.950 . S
H1063 C1092 0.950 . S
H1064 C1094 0.950 . S
H1065 C1095 0.950 . S
C1066 H1048 0.951 . S
C1066 C1067 1.366 . S
C1066 C1068 1.388 . S
C1067 C1066 1.366 . S
C1067 C1071 1.385 . S
C1068 H1049 0.951 . S
C1068 C1066 1.388 . S
C1068 C1069 1.366 . S
C1069 C1068 1.366 . S
C1069 C1070 1.414 . S
C1069 C1072 1.499 . S
C1070 H1050 0.950 . S
C1070 C1069 1.414 . S
C1070 C1071 1.374 . S
C1071 H1051 0.950 . S
C1071 C1067 1.385 . S
C1071 C1070 1.374 . S
C1072 C1069 1.499 . S
C1072 C1073 1.373 . S
C1072 C1074 1.389 . S
C1073 H1052 0.950 . S
C1073 C1072 1.373 . S
C1073 C1089 1.377 . S
C1074 C1072 1.389 . S
C1074 C1075 1.524 . S
C1074 C1088 1.377 . S
C1075 C1074 1.524 . S
C1075 C1076 1.397 . S
C1075 C1080 1.363 . S
C1076 H1053 0.950 . S
C1076 C1075 1.397 . S
C1076 C1077 1.334 . S
C1077 H1054 0.950 . S
C1077 C1076 1.334 . S
C1077 C1078 1.287 . S
C1078 C1077 1.287 . S
C1078 C1079 1.524 . S
C1078 H1097 0.913 . S
C1079 H1055 0.950 . S
C1079 C1078 1.524 . S
C1079 C1080 1.415 . S
C1080 H1056 0.950 . S
C1080 C1075 1.363 . S
C1080 C1079 1.415 . S
C1081 H1057 0.951 . S
C1081 C1082 1.366 . S
C1081 C1083 1.388 . S
C1082 C1081 1.366 . S
C1082 C1086 1.385 . S
C1083 H1058 0.951 . S
C1083 C1081 1.388 . S
C1083 C1084 1.366 . S
C1084 C1083 1.366 . S
C1084 C1085 1.414 . S
C1084 C1087 1.499 . S
C1085 H1059 0.950 . S
C1085 C1084 1.414 . S
C1085 C1086 1.374 . S
C1086 H1060 0.950 . S
C1086 C1082 1.385 . S
C1086 C1085 1.374 . S
C1087 C1084 1.499 . S
C1087 C1088 1.373 . S
C1087 C1089 1.389 . S
C1088 H1061 0.950 . S
C1088 C1074 1.377 . S
C1088 C1087 1.373 . S
C1089 C1073 1.377 . S
C1089 C1087 1.389 . S
C1089 C1090 1.524 . S
C1090 C1089 1.524 . S
C1090 C1091 1.397 . S
C1090 C1095 1.363 . S
C1091 H1062 0.950 . S
C1091 C1090 1.397 . S
C1091 C1092 1.334 . S
C1092 H1063 0.950 . S
C1092 C1091 1.334 . S
C1092 C1093 1.287 . S
C1093 C1092 1.287 . S
C1093 C1094 1.524 . S
C1093 H1096 0.999 . S
C1094 H1064 0.950 . S
C1094 C1093 1.524 . S
C1094 C1095 1.415 . S
C1095 H1065 0.950 . S
C1095 C1090 1.363 . S
C1095 C1094 1.415 . S
H1096 C1093 0.999 . S
H1097 C1078 0.913 . S
H1098 C1116 0.951 . S
H1099 C1118 0.951 . S
H1100 C1120 0.950 . S
H1101 C1121 0.950 . S
H1102 C1123 0.950 . S
H1103 C1126 0.950 . S
H1104 C1127 0.950 . S
H1105 C1129 0.950 . S
H1106 C1130 0.950 . S
H1107 C1131 0.951 . S
H1108 C1133 0.951 . S
H1109 C1135 0.950 . S
H1110 C1136 0.950 . S
H1111 C1138 0.950 1_565 S
H1112 C1141 0.950 . S
H1113 C1142 0.950 . S
H1114 C1144 0.950 . S
H1115 C1145 0.950 . S
C1116 H1098 0.951 . S
C1116 C1117 1.366 . S
C1116 C1118 1.388 . S
C1117 C1116 1.366 . S
C1117 C1121 1.385 . S
C1118 H1099 0.951 . S
C1118 C1116 1.388 . S
C1118 C1119 1.366 . S
C1119 C1118 1.366 . S
C1119 C1120 1.414 . S
C1119 C1122 1.499 . S
C1120 H1100 0.950 . S
C1120 C1119 1.414 . S
C1120 C1121 1.374 . S
C1121 H1101 0.950 . S
C1121 C1117 1.385 . S
C1121 C1120 1.374 . S
C1122 C1119 1.499 . S
C1122 C1123 1.373 . S
C1122 C1124 1.389 . S
C1123 H1102 0.950 . S
C1123 C1122 1.373 . S
C1123 C1139 1.377 . S
C1124 C1122 1.389 . S
C1124 C1125 1.524 . S
C1124 C1138 1.377 . S
C1125 C1124 1.524 . S
C1125 C1126 1.397 . S
C1125 C1130 1.363 . S
C1126 H1103 0.950 . S
C1126 C1125 1.397 . S
C1126 C1127 1.334 . S
C1127 H1104 0.950 . S
C1127 C1126 1.334 . S
C1127 C1128 1.287 . S
C1128 C1127 1.287 . S
C1128 C1129 1.524 . S
C1128 H1147 0.913 . S
C1129 H1105 0.950 . S
C1129 C1128 1.524 . S
C1129 C1130 1.415 . S
C1130 H1106 0.950 . S
C1130 C1125 1.363 . S
C1130 C1129 1.415 . S
C1131 H1107 0.951 . S
C1131 C1132 1.366 . S
C1131 C1133 1.388 . S
C1132 C1131 1.366 . S
C1132 C1136 1.385 . S
C1133 H1108 0.951 . S
C1133 C1131 1.388 . S
C1133 C1134 1.366 . S
C1134 C1133 1.366 . S
C1134 C1135 1.414 . S
C1134 C1137 1.499 1_565 S
C1135 H1109 0.950 . S
C1135 C1134 1.414 . S
C1135 C1136 1.374 . S
C1136 H1110 0.950 . S
C1136 C1132 1.385 . S
C1136 C1135 1.374 . S
C1137 C1134 1.499 1_545 S
C1137 C1138 1.373 . S
C1137 C1139 1.389 . S
C1138 H1111 0.950 1_545 S
C1138 C1124 1.377 . S
C1138 C1137 1.373 . S
C1139 C1123 1.377 . S
C1139 C1137 1.389 . S
C1139 C1140 1.524 . S
C1140 C1139 1.524 . S
C1140 C1141 1.397 . S
C1140 C1145 1.363 . S
C1141 H1112 0.950 . S
C1141 C1140 1.397 . S
C1141 C1142 1.334 . S
C1142 H1113 0.950 . S
C1142 C1141 1.334 . S
C1142 C1143 1.287 . S
C1143 C1142 1.287 . S
C1143 C1144 1.524 . S
C1143 H1146 0.999 . S
C1144 H1114 0.950 . S
C1144 C1143 1.524 . S
C1144 C1145 1.415 . S
C1145 H1115 0.950 . S
C1145 C1140 1.363 . S
C1145 C1144 1.415 . S
H1146 C1143 0.999 . S
H1147 C1128 0.913 . S
H1148 C1166 0.951 . S
H1149 C1168 0.951 . S
H1150 C1170 0.950 . S
H1151 C1171 0.950 . S
H1152 C1173 0.950 . S
H1153 C1176 0.950 . S
H1154 C1177 0.950 . S
H1155 C1179 0.950 . S
H1156 C1180 0.950 . S
H1157 C1181 0.951 . S
H1158 C1183 0.951 . S
H1159 C1185 0.950 . S
H1160 C1186 0.950 . S
H1161 C1188 0.933 1_545 S
H1162 C1191 0.950 . S
H1163 C1192 0.950 . S
H1164 C1194 0.950 . S
H1165 C1195 0.950 . S
C1166 H1148 0.951 . S
C1166 C1167 1.366 . S
C1166 C1168 1.388 . S
C1167 C1166 1.366 . S
C1167 C1171 1.385 . S
C1168 H1149 0.951 . S
C1168 C1166 1.388 . S
C1168 C1169 1.366 . S
C1169 C1168 1.366 . S
C1169 C1170 1.414 . S
C1169 C1172 1.530 . S
C1170 H1150 0.950 . S
C1170 C1169 1.414 . S
C1170 C1171 1.374 . S
C1171 H1151 0.950 . S
C1171 C1167 1.385 . S
C1171 C1170 1.374 . S
C1172 C1169 1.530 . S
C1172 C1173 1.319 1_545 S
C1172 C1174 1.412 . S
C1173 H1152 0.950 . S
C1173 C1172 1.319 1_565 S
C1173 C1189 1.377 . S
C1174 C1172 1.412 . S
C1174 C1175 1.524 . S
C1174 C1188 1.351 1_545 S
C1175 C1174 1.524 . S
C1175 C1176 1.397 . S
C1175 C1180 1.363 . S
C1176 H1153 0.950 . S
C1176 C1175 1.397 . S
C1176 C1177 1.334 . S
C1177 H1154 0.950 . S
C1177 C1176 1.334 . S
C1177 C1178 1.287 . S
C1178 C1177 1.287 . S
C1178 C1179 1.524 . S
C1178 H1197 0.913 . S
C1179 H1155 0.950 . S
C1179 C1178 1.524 . S
C1179 C1180 1.415 . S
C1180 H1156 0.950 . S
C1180 C1175 1.363 . S
C1180 C1179 1.415 . S
C1181 H1157 0.951 . S
C1181 C1182 1.366 . S
C1181 C1183 1.388 . S
C1182 C1181 1.366 . S
C1182 C1186 1.385 . S
C1183 H1158 0.951 . S
C1183 C1181 1.388 . S
C1183 C1184 1.366 . S
C1184 C1183 1.366 . S
C1184 C1185 1.414 . S
C1184 C1187 1.499 . S
C1185 H1159 0.950 . S
C1185 C1184 1.414 . S
C1185 C1186 1.374 . S
C1186 H1160 0.950 . S
C1186 C1182 1.385 . S
C1186 C1185 1.374 . S
C1187 C1184 1.499 . S
C1187 C1188 1.417 . S
C1187 C1189 1.389 . S
C1188 H1161 0.933 1_565 S
C1188 C1174 1.351 1_565 S
C1188 C1187 1.417 . S
C1189 C1173 1.377 . S
C1189 C1187 1.389 . S
C1189 C1190 1.524 . S
C1190 C1189 1.524 . S
C1190 C1191 1.397 . S
C1190 C1195 1.363 . S
C1191 H1162 0.950 . S
C1191 C1190 1.397 . S
C1191 C1192 1.334 . S
C1192 H1163 0.950 . S
C1192 C1191 1.334 . S
C1192 C1193 1.287 . S
C1193 C1192 1.287 . S
C1193 C1194 1.524 . S
C1193 H1196 0.999 . S
C1194 H1164 0.950 . S
C1194 C1193 1.524 . S
C1194 C1195 1.415 . S
C1195 H1165 0.950 . S
C1195 C1190 1.363 . S
C1195 C1194 1.415 . S
H1196 C1193 0.999 . S
H1197 C1178 0.913 . S
H1198 C1216 0.951 . S
H1199 C1218 0.951 . S
H1200 C1220 0.950 . S
H1201 C1221 0.950 1_554 S
H1202 C1223 0.950 . S
H1203 C1226 0.950 1_554 S
H1204 C1227 0.950 . S
H1205 C1229 0.950 . S
H1206 C1230 0.950 . S
H1207 C1231 0.951 . S
H1208 C1233 0.951 . S
H1209 C1235 0.950 . S
H1210 C1236 0.950 . S
H1211 C1238 0.950 . S
H1212 C1241 0.950 . S
H1213 C1242 0.950 . S
H1214 C1244 0.950 . S
H1215 C1245 0.950 . S
C1216 H1198 0.951 . S
C1216 C1217 1.366 . S
C1216 C1218 1.388 . S
C1217 C1216 1.366 . S
C1217 C1221 1.385 . S
C1218 H1199 0.951 . S
C1218 C1216 1.388 . S
C1218 C1219 1.366 1_565 S
C1219 C1218 1.366 1_545 S
C1219 C1220 1.414 . S
C1219 C1222 1.499 . S
C1220 H1200 0.950 . S
C1220 C1219 1.414 . S
C1220 C1221 1.374 1_545 S
C1221 H1201 0.950 1_556 S
C1221 C1217 1.385 . S
C1221 C1220 1.374 1_565 S
C1222 C1219 1.499 . S
C1222 C1223 1.373 . S
C1222 C1224 1.389 . S
C1223 H1202 0.950 . S
C1223 C1222 1.373 . S
C1223 C1239 1.377 . S
C1224 C1222 1.389 . S
C1224 C1225 1.524 . S
C1224 C1238 1.377 . S
C1225 C1224 1.524 . S
C1225 C1226 1.397 . S
C1225 C1230 1.363 . S
C1226 H1203 0.950 1_556 S
C1226 C1225 1.397 . S
C1226 C1227 1.334 1_546 S
C1227 H1204 0.950 . S
C1227 C1226 1.334 1_564 S
C1227 C1228 1.287 1_554 S
C1228 C1227 1.287 1_556 S
C1228 C1229 1.524 . S
C1228 H1247 0.913 1_556 S
C1229 H1205 0.950 . S
C1229 C1228 1.524 . S
C1229 C1230 1.415 1_565 S
C1230 H1206 0.950 . S
C1230 C1225 1.363 . S
C1230 C1229 1.415 1_545 S
C1231 H1207 0.951 . S
C1231 C1232 1.366 . S
C1231 C1233 1.388 . S
C1232 C1231 1.366 . S
C1232 C1236 1.385 . S
C1233 H1208 0.951 . S
C1233 C1231 1.388 . S
C1233 C1234 1.366 . S
C1234 C1233 1.366 . S
C1234 C1235 1.414 . S
C1234 C1237 1.499 . S
C1235 H1209 0.950 . S
C1235 C1234 1.414 . S
C1235 C1236 1.374 . S
C1236 H1210 0.950 . S
C1236 C1232 1.385 . S
C1236 C1235 1.374 . S
C1237 C1234 1.499 . S
C1237 C1238 1.373 . S
C1237 C1239 1.389 . S
C1238 H1211 0.950 . S
C1238 C1224 1.377 . S
C1238 C1237 1.373 . S
C1239 C1223 1.377 . S
C1239 C1237 1.389 . S
C1239 C1240 1.524 . S
C1240 C1239 1.524 . S
C1240 C1241 1.397 . S
C1240 C1245 1.363 . S
C1241 H1212 0.950 . S
C1241 C1240 1.397 . S
C1241 C1242 1.334 . S
C1242 H1213 0.950 . S
C1242 C1241 1.334 . S
C1242 C1243 1.287 . S
C1243 C1242 1.287 . S
C1243 C1244 1.524 . S
C1243 H1246 0.999 . S
C1244 H1214 0.950 . S
C1244 C1243 1.524 . S
C1244 C1245 1.415 . S
C1245 H1215 0.950 . S
C1245 C1240 1.363 . S
C1245 C1244 1.415 . S
H1246 C1243 0.999 . S
H1247 C1228 0.913 1_554 S
H1248 C1266 0.951 . S
H1249 C1268 0.951 . S
H1250 C1270 0.950 . S
H1251 C1271 0.950 . S
H1252 C1273 0.950 . S
H1253 C1276 0.950 1_565 S
H1254 C1277 0.950 . S
H1255 C1279 0.950 . S
H1256 C1280 0.950 1_565 S
H1257 C1281 0.951 . S
H1258 C1283 0.951 . S
H1259 C1285 0.950 . S
H1260 C1286 0.950 . S
H1261 C1288 0.950 . S
H1262 C1291 0.950 . S
H1263 C1292 0.950 . S
H1264 C1294 0.950 . S
H1265 C1295 0.950 . S
C1266 H1248 0.951 . S
C1266 C1267 1.366 . S
C1266 C1268 1.388 . S
C1267 C1266 1.366 . S
C1267 C1271 1.385 . S
C1268 H1249 0.951 . S
C1268 C1266 1.388 . S
C1268 C1269 1.366 . S
C1269 C1268 1.366 . S
C1269 C1270 1.414 . S
C1269 C1272 1.499 . S
C1270 H1250 0.950 . S
C1270 C1269 1.414 . S
C1270 C1271 1.374 . S
C1271 H1251 0.950 . S
C1271 C1267 1.385 . S
C1271 C1270 1.374 . S
C1272 C1269 1.499 . S
C1272 C1273 1.373 . S
C1272 C1274 1.389 . S
C1273 H1252 0.950 . S
C1273 C1272 1.373 . S
C1273 C1289 1.377 . S
C1274 C1272 1.389 . S
C1274 C1275 1.524 . S
C1274 C1288 1.377 . S
C1275 C1274 1.524 . S
C1275 C1276 1.397 1_565 S
C1275 C1280 1.363 1_565 S
C1276 H1253 0.950 1_545 S
C1276 C1275 1.397 1_545 S
C1276 C1277 1.334 . S
C1277 H1254 0.950 . S
C1277 C1276 1.334 . S
C1277 C1278 1.287 . S
C1278 C1277 1.287 . S
C1278 C1279 1.524 . S
C1278 H1297 0.913 . S
C1279 H1255 0.950 . S
C1279 C1278 1.524 . S
C1279 C1280 1.415 . S
C1280 H1256 0.950 1_545 S
C1280 C1275 1.363 1_545 S
C1280 C1279 1.415 . S
C1281 H1257 0.951 . S
C1281 C1282 1.366 . S
C1281 C1283 1.388 . S
C1282 C1281 1.366 . S
C1282 C1286 1.385 . S
C1283 H1258 0.951 . S
C1283 C1281 1.388 . S
C1283 C1284 1.366 . S
C1284 C1283 1.366 . S
C1284 C1285 1.414 . S
C1284 C1287 1.499 . S
C1285 H1259 0.950 . S
C1285 C1284 1.414 . S
C1285 C1286 1.374 . S
C1286 H1260 0.950 . S
C1286 C1282 1.385 . S
C1286 C1285 1.374 . S
C1287 C1284 1.499 . S
C1287 C1288 1.373 . S
C1287 C1289 1.389 . S
C1288 H1261 0.950 . S
C1288 C1274 1.377 . S
C1288 C1287 1.373 . S
C1289 C1273 1.377 . S
C1289 C1287 1.389 . S
C1289 C1290 1.524 . S
C1290 C1289 1.524 . S
C1290 C1291 1.397 . S
C1290 C1295 1.363 . S
C1291 H1262 0.950 . S
C1291 C1290 1.397 . S
C1291 C1292 1.334 . S
C1292 H1263 0.950 . S
C1292 C1291 1.334 . S
C1292 C1293 1.287 . S
C1293 C1292 1.287 . S
C1293 C1294 1.524 . S
C1293 H1296 0.999 . S
C1294 H1264 0.950 . S
C1294 C1293 1.524 . S
C1294 C1295 1.415 . S
C1295 H1265 0.950 . S
C1295 C1290 1.363 . S
C1295 C1294 1.415 . S
H1296 C1293 0.999 . S
H1297 C1278 0.913 . S
H1298 C1316 0.951 . S
H1299 C1318 0.951 . S
H1300 C1320 0.950 . S
H1301 C1321 0.950 . S
H1302 C1323 0.950 . S
H1303 C1326 0.950 . S
H1304 C1327 0.950 . S
H1305 C1329 0.950 . S
H1306 C1330 0.950 . S
H1307 C1331 0.951 . S
H1308 C1333 0.951 . S
H1309 C1335 0.929 1_545 S
H1310 C1336 0.950 . S
H1311 C1338 0.950 . S
H1312 C1341 0.950 . S
H1313 C1342 0.950 . S
H1314 C1344 0.950 . S
H1315 C1345 0.950 . S
C1316 H1298 0.951 . S
C1316 C1317 1.366 . S
C1316 C1318 1.388 . S
C1317 C1316 1.366 . S
C1317 C1321 1.385 . S
C1318 H1299 0.951 . S
C1318 C1316 1.388 . S
C1318 C1319 1.366 . S
C1319 C1318 1.366 . S
C1319 C1320 1.414 . S
C1319 C1322 1.499 . S
C1320 H1300 0.950 . S
C1320 C1319 1.414 . S
C1320 C1321 1.374 . S
C1321 H1301 0.950 . S
C1321 C1317 1.385 . S
C1321 C1320 1.374 . S
C1322 C1319 1.499 . S
C1322 C1323 1.373 . S
C1322 C1324 1.389 . S
C1323 H1302 0.950 . S
C1323 C1322 1.373 . S
C1323 C1339 1.377 . S
C1324 C1322 1.389 . S
C1324 C1325 1.524 . S
C1324 C1338 1.377 . S
C1325 C1324 1.524 . S
C1325 C1326 1.397 . S
C1325 C1330 1.363 . S
C1326 H1303 0.950 . S
C1326 C1325 1.397 . S
C1326 C1327 1.334 . S
C1327 H1304 0.950 . S
C1327 C1326 1.334 . S
C1327 C1328 1.287 . S
C1328 C1327 1.287 . S
C1328 C1329 1.524 . S
C1328 H1347 0.913 . S
C1329 H1305 0.950 . S
C1329 C1328 1.524 . S
C1329 C1330 1.415 . S
C1330 H1306 0.950 . S
C1330 C1325 1.363 . S
C1330 C1329 1.415 . S
C1331 H1307 0.951 . S
C1331 C1332 1.366 . S
C1331 C1333 1.388 . S
C1332 C1331 1.366 . S
C1332 C1336 1.385 . S
C1333 H1308 0.951 . S
C1333 C1331 1.388 . S
C1333 C1334 1.366 1_565 S
C1334 C1333 1.366 1_545 S
C1334 C1335 1.414 1_545 S
C1334 C1337 1.499 . S
C1335 H1309 0.929 1_565 S
C1335 C1334 1.414 1_565 S
C1335 C1336 1.374 . S
C1336 H1310 0.950 . S
C1336 C1332 1.385 . S
C1336 C1335 1.374 . S
C1337 C1334 1.499 . S
C1337 C1338 1.373 . S
C1337 C1339 1.389 . S
C1338 H1311 0.950 . S
C1338 C1324 1.377 . S
C1338 C1337 1.373 . S
C1339 C1323 1.377 . S
C1339 C1337 1.389 . S
C1339 C1340 1.524 . S
C1340 C1339 1.524 . S
C1340 C1341 1.397 . S
C1340 C1345 1.363 . S
C1341 H1312 0.950 . S
C1341 C1340 1.397 . S
C1341 C1342 1.334 . S
C1342 H1313 0.950 . S
C1342 C1341 1.334 . S
C1342 C1343 1.287 . S
C1343 C1342 1.287 . S
C1343 C1344 1.524 . S
C1343 H1346 0.999 . S
C1344 H1314 0.950 . S
C1344 C1343 1.524 . S
C1344 C1345 1.415 . S
C1345 H1315 0.950 . S
C1345 C1340 1.363 . S
C1345 C1344 1.415 . S
H1346 C1343 0.999 . S
H1347 C1328 0.913 . S
H1348 C1366 0.951 . S
H1349 C1368 0.951 . S
H1350 C1370 0.950 . S
H1351 C1371 0.950 . S
H1352 C1373 0.950 . S
H1353 C1376 0.950 . S
H1354 C1377 0.950 . S
H1355 C1379 0.950 . S
H1356 C1380 0.950 . S
H1357 C1381 0.951 . S
H1358 C1383 0.951 . S
H1359 C1385 0.950 . S
H1360 C1386 0.950 . S
H1361 C1388 0.950 . S
H1362 C1391 0.950 . S
H1363 C1392 0.950 . S
H1364 C1394 0.950 . S
H1365 C1395 0.950 . S
C1366 H1348 0.951 . S
C1366 C1367 1.366 . S
C1366 C1368 1.388 . S
C1367 C1366 1.366 . S
C1367 C1371 1.385 . S
C1368 H1349 0.951 . S
C1368 C1366 1.388 . S
C1368 C1369 1.366 . S
C1369 C1368 1.366 . S
C1369 C1370 1.414 . S
C1369 C1372 1.499 . S
C1370 H1350 0.950 . S
C1370 C1369 1.414 . S
C1370 C1371 1.374 . S
C1371 H1351 0.950 . S
C1371 C1367 1.385 . S
C1371 C1370 1.374 . S
C1372 C1369 1.499 . S
C1372 C1373 1.373 . S
C1372 C1374 1.389 . S
C1373 H1352 0.950 . S
C1373 C1372 1.373 . S
C1373 C1389 1.377 . S
C1374 C1372 1.389 . S
C1374 C1375 1.524 . S
C1374 C1388 1.377 . S
C1375 C1374 1.524 . S
C1375 C1376 1.397 . S
C1375 C1380 1.363 . S
C1376 H1353 0.950 . S
C1376 C1375 1.397 . S
C1376 C1377 1.334 . S
C1377 H1354 0.950 . S
C1377 C1376 1.334 . S
C1377 C1378 1.287 . S
C1378 C1377 1.287 . S
C1378 C1379 1.524 . S
C1378 H1397 0.913 . S
C1379 H1355 0.950 . S
C1379 C1378 1.524 . S
C1379 C1380 1.415 . S
C1380 H1356 0.950 . S
C1380 C1375 1.363 . S
C1380 C1379 1.415 . S
C1381 H1357 0.951 . S
C1381 C1382 1.366 . S
C1381 C1383 1.388 . S
C1382 C1381 1.366 . S
C1382 C1386 1.385 . S
C1383 H1358 0.951 . S
C1383 C1381 1.388 . S
C1383 C1384 1.366 . S
C1384 C1383 1.366 . S
C1384 C1385 1.414 . S
C1384 C1387 1.499 . S
C1385 H1359 0.950 . S
C1385 C1384 1.414 . S
C1385 C1386 1.374 . S
C1386 H1360 0.950 . S
C1386 C1382 1.385 . S
C1386 C1385 1.374 . S
C1387 C1384 1.499 . S
C1387 C1388 1.373 . S
C1387 C1389 1.389 . S
C1388 H1361 0.950 . S
C1388 C1374 1.377 . S
C1388 C1387 1.373 . S
C1389 C1373 1.377 . S
C1389 C1387 1.389 . S
C1389 C1390 1.524 . S
C1390 C1389 1.524 . S
C1390 C1391 1.397 . S
C1390 C1395 1.363 . S
C1391 H1362 0.950 . S
C1391 C1390 1.397 . S
C1391 C1392 1.334 . S
C1392 H1363 0.950 . S
C1392 C1391 1.334 . S
C1392 C1393 1.287 . S
C1393 C1392 1.287 . S
C1393 C1394 1.524 . S
C1393 H1396 0.999 . S
C1394 H1364 0.950 . S
C1394 C1393 1.524 . S
C1394 C1395 1.415 . S
C1395 H1365 0.950 . S
C1395 C1390 1.363 . S
C1395 C1394 1.415 . S
H1396 C1393 0.999 . S
H1397 C1378 0.913 . S
H1398 C1416 0.951 . S
H1399 C1418 0.951 . S
H1400 C1420 0.950 1_545 S
H1401 C1421 0.950 . S
H1402 C1423 0.950 . S
H1403 C1426 0.950 . S
H1404 C1427 0.950 . S
H1405 C1429 0.950 . S
H1406 C1430 0.950 . S
H1407 C1431 0.951 . S
H1408 C1433 0.951 . S
H1409 C1435 0.950 . S
H1410 C1436 0.950 . S
H1411 C1438 0.950 . S
H1412 C1441 0.950 . S
H1413 C1442 0.950 . S
H1414 C1444 0.950 . S
H1415 C1445 0.950 . S
C1416 H1398 0.951 . S
C1416 C1417 1.366 . S
C1416 C1418 1.388 . S
C1417 C1416 1.366 . S
C1417 C1421 1.385 . S
C1418 H1399 0.951 . S
C1418 C1416 1.388 . S
C1418 C1419 1.366 . S
C1419 C1418 1.366 . S
C1419 C1420 1.414 . S
C1419 C1422 1.499 1_565 S
C1420 H1400 0.950 1_565 S
C1420 C1419 1.414 . S
C1420 C1421 1.374 . S
C1421 H1401 0.950 . S
C1421 C1417 1.385 . S
C1421 C1420 1.374 . S
C1422 C1419 1.499 1_545 S
C1422 C1423 1.373 . S
C1422 C1424 1.389 . S
C1423 H1402 0.950 . S
C1423 C1422 1.373 . S
C1423 C1439 1.377 . S
C1424 C1422 1.389 . S
C1424 C1425 1.524 1_545 S
C1424 C1438 1.377 . S
C1425 C1424 1.524 1_565 S
C1425 C1426 1.397 . S
C1425 C1430 1.363 . S
C1426 H1403 0.950 . S
C1426 C1425 1.397 . S
C1426 C1427 1.334 . S
C1427 H1404 0.950 . S
C1427 C1426 1.334 . S
C1427 C1428 1.287 . S
C1428 C1427 1.287 . S
C1428 C1429 1.524 . S
C1428 H1447 0.913 . S
C1429 H1405 0.950 . S
C1429 C1428 1.524 . S
C1429 C1430 1.415 . S
C1430 H1406 0.950 . S
C1430 C1425 1.363 . S
C1430 C1429 1.415 . S
C1431 H1407 0.951 . S
C1431 C1432 1.366 . S
C1431 C1433 1.388 . S
C1432 C1431 1.366 . S
C1432 C1436 1.385 . S
C1433 H1408 0.951 . S
C1433 C1431 1.388 . S
C1433 C1434 1.366 . S
C1434 C1433 1.366 . S
C1434 C1435 1.414 . S
C1434 C1437 1.499 . S
C1435 H1409 0.950 . S
C1435 C1434 1.414 . S
C1435 C1436 1.374 . S
C1436 H1410 0.950 . S
C1436 C1432 1.385 . S
C1436 C1435 1.374 . S
C1437 C1434 1.499 . S
C1437 C1438 1.373 . S
C1437 C1439 1.389 . S
C1438 H1411 0.950 . S
C1438 C1424 1.377 . S
C1438 C1437 1.373 . S
C1439 C1423 1.377 . S
C1439 C1437 1.389 . S
C1439 C1440 1.524 . S
C1440 C1439 1.524 . S
C1440 C1441 1.397 . S
C1440 C1445 1.363 . S
C1441 H1412 0.950 . S
C1441 C1440 1.397 . S
C1441 C1442 1.334 . S
C1442 H1413 0.950 . S
C1442 C1441 1.334 . S
C1442 C1443 1.287 . S
C1443 C1442 1.287 . S
C1443 C1444 1.524 . S
C1443 H1446 0.999 . S
C1444 H1414 0.950 . S
C1444 C1443 1.524 . S
C1444 C1445 1.415 . S
C1445 H1415 0.950 . S
C1445 C1440 1.363 . S
C1445 C1444 1.415 . S
H1446 C1443 0.999 . S
H1447 C1428 0.913 . S
H1448 C1466 0.951 . S
H1449 C1468 0.951 . S
H1450 C1470 0.950 . S
H1451 C1471 0.950 . S
H1452 C1473 0.950 . S
H1453 C1476 0.950 . S
H1454 C1477 0.950 . S
H1455 C1479 0.950 . S
H1456 C1480 0.950 . S
H1457 C1481 0.951 . S
H1458 C1483 0.951 . S
H1459 C1485 0.950 . S
H1460 C1486 0.950 . S
H1461 C1488 0.950 . S
H1462 C1491 0.950 . S
H1463 C1492 0.950 . S
H1464 C1494 0.950 . S
H1465 C1495 0.950 . S
C1466 H1448 0.951 . S
C1466 C1467 1.366 . S
C1466 C1468 1.388 . S
C1467 C1466 1.366 . S
C1467 C1471 1.385 . S
C1468 H1449 0.951 . S
C1468 C1466 1.388 . S
C1468 C1469 1.366 . S
C1469 C1468 1.366 . S
C1469 C1470 1.414 . S
C1469 C1472 1.499 . S
C1470 H1450 0.950 . S
C1470 C1469 1.414 . S
C1470 C1471 1.374 . S
C1471 H1451 0.950 . S
C1471 C1467 1.385 . S
C1471 C1470 1.374 . S
C1472 C1469 1.499 . S
C1472 C1473 1.373 . S
C1472 C1474 1.389 . S
C1473 H1452 0.950 . S
C1473 C1472 1.373 . S
C1473 C1489 1.377 . S
C1474 C1472 1.389 . S
C1474 C1475 1.524 . S
C1474 C1488 1.377 . S
C1475 C1474 1.524 . S
C1475 C1476 1.397 . S
C1475 C1480 1.363 . S
C1476 H1453 0.950 . S
C1476 C1475 1.397 . S
C1476 C1477 1.334 . S
C1477 H1454 0.950 . S
C1477 C1476 1.334 . S
C1477 C1478 1.287 . S
C1478 C1477 1.287 . S
C1478 C1479 1.524 . S
C1478 H1497 0.913 . S
C1479 H1455 0.950 . S
C1479 C1478 1.524 . S
C1479 C1480 1.415 . S
C1480 H1456 0.950 . S
C1480 C1475 1.363 . S
C1480 C1479 1.415 . S
C1481 H1457 0.951 . S
C1481 C1482 1.366 . S
C1481 C1483 1.388 . S
C1482 C1481 1.366 . S
C1482 C1486 1.385 . S
C1483 H1458 0.951 . S
C1483 C1481 1.388 . S
C1483 C1484 1.366 . S
C1484 C1483 1.366 . S
C1484 C1485 1.414 . S
C1484 C1487 1.499 . S
C1485 H1459 0.950 . S
C1485 C1484 1.414 . S
C1485 C1486 1.374 . S
C1486 H1460 0.950 . S
C1486 C1482 1.385 . S
C1486 C1485 1.374 . S
C1487 C1484 1.499 . S
C1487 C1488 1.373 . S
C1487 C1489 1.389 . S
C1488 H1461 0.950 . S
C1488 C1474 1.377 . S
C1488 C1487 1.373 . S
C1489 C1473 1.377 . S
C1489 C1487 1.389 . S
C1489 C1490 1.524 . S
C1490 C1489 1.524 . S
C1490 C1491 1.397 . S
C1490 C1495 1.363 . S
C1491 H1462 0.950 . S
C1491 C1490 1.397 . S
C1491 C1492 1.334 . S
C1492 H1463 0.950 . S
C1492 C1491 1.334 . S
C1492 C1493 1.287 . S
C1493 C1492 1.287 . S
C1493 C1494 1.524 . S
C1493 H1496 0.999 . S
C1494 H1464 0.950 . S
C1494 C1493 1.524 . S
C1494 C1495 1.415 . S
C1495 H1465 0.950 . S
C1495 C1490 1.363 . S
C1495 C1494 1.415 . S
H1496 C1493 0.999 . S
H1497 C1478 0.913 . S
H1498 C1516 0.951 . S
H1499 C1518 0.951 . S
H1500 C1520 0.950 . S
H1501 C1521 0.950 . S
H1502 C1523 0.950 . S
H1503 C1526 0.950 . S
H1504 C1527 0.950 . S
H1505 C1529 0.950 . S
H1506 C1530 0.950 . S
H1507 C1531 0.951 . S
H1508 C1533 0.951 . S
H1509 C1535 0.950 . S
H1510 C1536 0.950 . S
H1511 C1538 0.950 . S
H1512 C1541 0.950 . S
H1513 C1542 0.950 . S
H1514 C1544 0.950 . S
H1515 C1545 0.950 . S
C1516 H1498 0.951 . S
C1516 C1517 1.366 . S
C1516 C1518 1.388 . S
C1517 C1516 1.366 . S
C1517 C1521 1.385 . S
C1518 H1499 0.951 . S
C1518 C1516 1.388 . S
C1518 C1519 1.366 . S
C1519 C1518 1.366 . S
C1519 C1520 1.414 . S
C1519 C1522 1.499 . S
C1520 H1500 0.950 . S
C1520 C1519 1.414 . S
C1520 C1521 1.374 . S
C1521 H1501 0.950 . S
C1521 C1517 1.385 . S
C1521 C1520 1.374 . S
C1522 C1519 1.499 . S
C1522 C1523 1.373 . S
C1522 C1524 1.389 . S
C1523 H1502 0.950 . S
C1523 C1522 1.373 . S
C1523 C1539 1.377 . S
C1524 C1522 1.389 . S
C1524 C1525 1.524 . S
C1524 C1538 1.377 . S
C1525 C1524 1.524 . S
C1525 C1526 1.397 . S
C1525 C1530 1.363 . S
C1526 H1503 0.950 . S
C1526 C1525 1.397 . S
C1526 C1527 1.334 1_556 S
C1527 H1504 0.950 . S
C1527 C1526 1.334 1_554 S
C1527 C1528 1.287 1_554 S
C1528 C1527 1.287 1_556 S
C1528 C1529 1.524 . S
C1528 H1547 0.913 1_556 S
C1529 H1505 0.950 . S
C1529 C1528 1.524 . S
C1529 C1530 1.415 . S
C1530 H1506 0.950 . S
C1530 C1525 1.363 . S
C1530 C1529 1.415 . S
C1531 H1507 0.951 . S
C1531 C1532 1.366 . S
C1531 C1533 1.388 . S
C1532 C1531 1.366 . S
C1532 C1536 1.385 . S
C1533 H1508 0.951 . S
C1533 C1531 1.388 . S
C1533 C1534 1.366 . S
C1534 C1533 1.366 . S
C1534 C1535 1.414 . S
C1534 C1537 1.499 . S
C1535 H1509 0.950 . S
C1535 C1534 1.414 . S
C1535 C1536 1.374 . S
C1536 H1510 0.950 . S
C1536 C1532 1.385 . S
C1536 C1535 1.374 . S
C1537 C1534 1.499 . S
C1537 C1538 1.373 . S
C1537 C1539 1.389 . S
C1538 H1511 0.950 . S
C1538 C1524 1.377 . S
C1538 C1537 1.373 . S
C1539 C1523 1.377 . S
C1539 C1537 1.389 . S
C1539 C1540 1.524 . S
C1540 C1539 1.524 . S
C1540 C1541 1.397 . S
C1540 C1545 1.363 . S
C1541 H1512 0.950 . S
C1541 C1540 1.397 . S
C1541 C1542 1.334 . S
C1542 H1513 0.950 . S
C1542 C1541 1.334 . S
C1542 C1543 1.287 . S
C1543 C1542 1.287 . S
C1543 C1544 1.524 . S
C1543 H1546 0.999 . S
C1544 H1514 0.950 . S
C1544 C1543 1.524 . S
C1544 C1545 1.415 . S
C1545 H1515 0.950 . S
C1545 C1540 1.363 . S
C1545 C1544 1.415 . S
H1546 C1543 0.999 . S
H1547 C1528 0.913 1_554 S
H1548 C1566 0.951 . S
H1549 C1568 0.951 . S
H1550 C1570 0.950 . S
H1551 C1571 0.950 . S
H1552 C1573 0.950 . S
H1553 C1576 0.950 . S
H1554 C1577 0.950 . S
H1555 C1579 0.950 . S
H1556 C1580 0.950 . S
H1557 C1581 0.951 . S
H1558 C1583 0.951 . S
H1559 C1585 0.950 . S
H1560 C1586 0.950 . S
H1561 C1588 0.950 . S
H1562 C1591 0.950 . S
H1563 C1592 0.950 . S
H1564 C1594 0.950 . S
H1565 C1595 0.950 . S
C1566 H1548 0.951 . S
C1566 C1567 1.366 . S
C1566 C1568 1.388 . S
C1567 C1566 1.366 . S
C1567 C1571 1.385 . S
C1568 H1549 0.951 . S
C1568 C1566 1.388 . S
C1568 C1569 1.366 . S
C1569 C1568 1.366 . S
C1569 C1570 1.414 . S
C1569 C1572 1.499 . S
C1570 H1550 0.950 . S
C1570 C1569 1.414 . S
C1570 C1571 1.374 . S
C1571 H1551 0.950 . S
C1571 C1567 1.385 . S
C1571 C1570 1.374 . S
C1572 C1569 1.499 . S
C1572 C1573 1.373 . S
C1572 C1574 1.389 . S
C1573 H1552 0.950 . S
C1573 C1572 1.373 . S
C1573 C1589 1.377 1_455 S
C1574 C1572 1.389 . S
C1574 C1575 1.524 . S
C1574 C1588 1.377 . S
C1575 C1574 1.524 . S
C1575 C1576 1.397 . S
C1575 C1580 1.363 . S
C1576 H1553 0.950 . S
C1576 C1575 1.397 . S
C1576 C1577 1.334 . S
C1577 H1554 0.950 . S
C1577 C1576 1.334 . S
C1577 C1578 1.287 . S
C1578 C1577 1.287 . S
C1578 C1579 1.524 . S
C1578 H1597 0.913 . S
C1579 H1555 0.950 . S
C1579 C1578 1.524 . S
C1579 C1580 1.415 . S
C1580 H1556 0.950 . S
C1580 C1575 1.363 . S
C1580 C1579 1.415 . S
C1581 H1557 0.951 . S
C1581 C1582 1.366 . S
C1581 C1583 1.388 . S
C1582 C1581 1.366 . S
C1582 C1586 1.385 . S
C1583 H1558 0.951 . S
C1583 C1581 1.388 . S
C1583 C1584 1.366 . S
C1584 C1583 1.366 . S
C1584 C1585 1.414 . S
C1584 C1587 1.499 . S
C1585 H1559 0.950 . S
C1585 C1584 1.414 . S
C1585 C1586 1.374 . S
C1586 H1560 0.950 . S
C1586 C1582 1.385 . S
C1586 C1585 1.374 . S
C1587 C1584 1.499 . S
C1587 C1588 1.373 1_655 S
C1587 C1589 1.389 . S
C1588 H1561 0.950 . S
C1588 C1574 1.377 . S
C1588 C1587 1.373 1_455 S
C1589 C1573 1.377 1_655 S
C1589 C1587 1.389 . S
C1589 C1590 1.524 . S
C1590 C1589 1.524 . S
C1590 C1591 1.397 . S
C1590 C1595 1.363 . S
C1591 H1562 0.950 . S
C1591 C1590 1.397 . S
C1591 C1592 1.334 . S
C1592 H1563 0.950 . S
C1592 C1591 1.334 . S
C1592 C1593 1.287 . S
C1593 C1592 1.287 . S
C1593 C1594 1.524 . S
C1593 H1596 0.999 . S
C1594 H1564 0.950 . S
C1594 C1593 1.524 . S
C1594 C1595 1.415 . S
C1595 H1565 0.950 . S
C1595 C1590 1.363 . S
C1595 C1594 1.415 . S
H1596 C1593 0.999 . S
H1597 C1578 0.913 . S
H1598 C1616 0.951 . S
H1599 C1618 0.951 . S
H1600 C1620 0.950 . S
H1601 C1621 0.950 . S
H1602 C1623 0.950 . S
H1603 C1626 0.950 . S
H1604 C1627 0.950 . S
H1605 C1629 0.950 . S
H1606 C1630 0.950 . S
H1607 C1631 0.951 . S
H1608 C1633 0.951 . S
H1609 C1635 0.950 . S
H1610 C1636 0.950 . S
H1611 C1638 0.950 . S
H1612 C1641 0.950 . S
H1613 C1642 0.950 . S
H1614 C1644 0.950 . S
H1615 C1645 0.950 . S
C1616 H1598 0.951 . S
C1616 C1617 1.366 . S
C1616 C1618 1.388 . S
C1617 C1616 1.366 . S
C1617 C1621 1.385 . S
C1618 H1599 0.951 . S
C1618 C1616 1.388 . S
C1618 C1619 1.366 . S
C1619 C1618 1.366 . S
C1619 C1620 1.414 . S
C1619 C1622 1.499 . S
C1620 H1600 0.950 . S
C1620 C1619 1.414 . S
C1620 C1621 1.374 . S
C1621 H1601 0.950 . S
C1621 C1617 1.385 . S
C1621 C1620 1.374 . S
C1622 C1619 1.499 . S
C1622 C1623 1.373 . S
C1622 C1624 1.389 . S
C1623 H1602 0.950 . S
C1623 C1622 1.373 . S
C1623 C1639 1.377 . S
C1624 C1622 1.389 . S
C1624 C1625 1.524 . S
C1624 C1638 1.377 . S
C1625 C1624 1.524 . S
C1625 C1626 1.397 . S
C1625 C1630 1.363 . S
C1626 H1603 0.950 . S
C1626 C1625 1.397 . S
C1626 C1627 1.334 . S
C1627 H1604 0.950 . S
C1627 C1626 1.334 . S
C1627 C1628 1.287 . S
C1628 C1627 1.287 . S
C1628 C1629 1.524 . S
C1628 H1647 0.913 . S
C1629 H1605 0.950 . S
C1629 C1628 1.524 . S
C1629 C1630 1.415 . S
C1630 H1606 0.950 . S
C1630 C1625 1.363 . S
C1630 C1629 1.415 . S
C1631 H1607 0.951 . S
C1631 C1632 1.366 . S
C1631 C1633 1.388 . S
C1632 C1631 1.366 . S
C1632 C1636 1.385 . S
C1633 H1608 0.951 . S
C1633 C1631 1.388 . S
C1633 C1634 1.366 . S
C1634 C1633 1.366 . S
C1634 C1635 1.414 . S
C1634 C1637 1.499 . S
C1635 H1609 0.950 . S
C1635 C1634 1.414 . S
C1635 C1636 1.374 . S
C1636 H1610 0.950 . S
C1636 C1632 1.385 . S
C1636 C1635 1.374 . S
C1637 C1634 1.499 . S
C1637 C1638 1.373 . S
C1637 C1639 1.389 . S
C1638 H1611 0.950 . S
C1638 C1624 1.377 . S
C1638 C1637 1.373 . S
C1639 C1623 1.377 . S
C1639 C1637 1.389 . S
C1639 C1640 1.524 . S
C1640 C1639 1.524 . S
C1640 C1641 1.397 . S
C1640 C1645 1.363 . S
C1641 H1612 0.950 . S
C1641 C1640 1.397 . S
C1641 C1642 1.334 . S
C1642 H1613 0.950 . S
C1642 C1641 1.334 . S
C1642 C1643 1.287 . S
C1643 C1642 1.287 . S
C1643 C1644 1.524 . S
C1643 H1646 0.999 . S
C1644 H1614 0.950 . S
C1644 C1643 1.524 . S
C1644 C1645 1.415 . S
C1645 H1615 0.950 . S
C1645 C1640 1.363 . S
C1645 C1644 1.415 . S
H1646 C1643 0.999 . S
H1647 C1628 0.913 . S
H1648 C1666 0.951 . S
H1649 C1668 0.951 . S
H1650 C1670 0.950 . S
H1651 C1671 0.950 . S
H1652 C1673 0.945 1_655 S
H1653 C1676 0.950 . S
H1654 C1677 0.950 1_565 S
H1655 C1679 0.950 . S
H1656 C1680 0.950 . S
H1657 C1681 0.951 . S
H1658 C1683 0.951 . S
H1659 C1685 0.950 . S
H1660 C1686 0.950 . S
H1661 C1688 0.950 . S
H1662 C1691 0.950 . S
H1663 C1692 0.950 . S
H1664 C1694 0.950 . S
H1665 C1695 0.950 . S
C1666 H1648 0.951 . S
C1666 C1667 1.366 . S
C1666 C1668 1.388 . S
C1667 C1666 1.366 . S
C1667 C1671 1.385 . S
C1668 H1649 0.951 . S
C1668 C1666 1.388 . S
C1668 C1669 1.366 . S
C1669 C1668 1.366 . S
C1669 C1670 1.414 . S
C1669 C1672 1.499 . S
C1670 H1650 0.950 . S
C1670 C1669 1.414 . S
C1670 C1671 1.374 . S
C1671 H1651 0.950 . S
C1671 C1667 1.385 . S
C1671 C1670 1.374 . S
C1672 C1669 1.499 . S
C1672 C1673 1.373 1_655 S
C1672 C1674 1.389 . S
C1673 H1652 0.945 1_455 S
C1673 C1672 1.373 1_455 S
C1673 C1689 1.377 . S
C1674 C1672 1.389 . S
C1674 C1675 1.524 . S
C1674 C1688 1.377 1_655 S
C1675 C1674 1.524 . S
C1675 C1676 1.397 . S
C1675 C1680 1.363 . S
C1676 H1653 0.950 . S
C1676 C1675 1.397 . S
C1676 C1677 1.334 . S
C1677 H1654 0.950 1_545 S
C1677 C1676 1.334 . S
C1677 C1678 1.287 . S
C1678 C1677 1.287 . S
C1678 C1679 1.524 . S
C1678 H1697 0.913 . S
C1679 H1655 0.950 . S
C1679 C1678 1.524 . S
C1679 C1680 1.415 . S
C1680 H1656 0.950 . S
C1680 C1675 1.363 . S
C1680 C1679 1.415 . S
C1681 H1657 0.951 . S
C1681 C1682 1.366 . S
C1681 C1683 1.388 . S
C1682 C1681 1.366 . S
C1682 C1686 1.385 . S
C1683 H1658 0.951 . S
C1683 C1681 1.388 . S
C1683 C1684 1.366 . S
C1684 C1683 1.366 . S
C1684 C1685 1.414 . S
C1684 C1687 1.499 . S
C1685 H1659 0.950 . S
C1685 C1684 1.414 . S
C1685 C1686 1.374 . S
C1686 H1660 0.950 . S
C1686 C1682 1.385 . S
C1686 C1685 1.374 . S
C1687 C1684 1.499 . S
C1687 C1688 1.373 . S
C1687 C1689 1.389 . S
C1688 H1661 0.950 . S
C1688 C1674 1.377 1_455 S
C1688 C1687 1.373 . S
C1689 C1673 1.377 . S
C1689 C1687 1.389 . S
C1689 C1690 1.524 . S
C1690 C1689 1.524 . S
C1690 C1691 1.397 . S
C1690 C1695 1.363 . S
C1691 H1662 0.950 . S
C1691 C1690 1.397 . S
C1691 C1692 1.334 . S
C1692 H1663 0.950 . S
C1692 C1691 1.334 . S
C1692 C1693 1.287 . S
C1693 C1692 1.287 . S
C1693 C1694 1.524 . S
C1693 H1696 0.999 . S
C1694 H1664 0.950 . S
C1694 C1693 1.524 . S
C1694 C1695 1.415 . S
C1695 H1665 0.950 . S
C1695 C1690 1.363 . S
C1695 C1694 1.415 . S
H1696 C1693 0.999 . S
H1697 C1678 0.913 . S
H1698 C1716 0.951 . S
H1699 C1718 0.951 . S
H1700 C1720 0.950 . S
H1701 C1721 0.950 . S
H1702 C1723 0.950 . S
H1703 C1726 0.950 . S
H1704 C1727 0.950 . S
H1705 C1729 0.950 . S
H1706 C1730 0.950 . S
H1707 C1731 0.951 . S
H1708 C1733 0.951 . S
H1709 C1735 0.950 . S
H1710 C1736 0.950 . S
H1711 C1738 0.950 . S
H1712 C1741 0.950 . S
H1713 C1742 0.950 . S
H1714 C1744 0.950 . S
H1715 C1745 0.950 . S
C1716 H1698 0.951 . S
C1716 C1717 1.366 . S
C1716 C1718 1.388 . S
C1717 C1716 1.366 . S
C1717 C1721 1.385 . S
C1718 H1699 0.951 . S
C1718 C1716 1.388 . S
C1718 C1719 1.366 . S
C1719 C1718 1.366 . S
C1719 C1720 1.414 . S
C1719 C1722 1.499 . S
C1720 H1700 0.950 . S
C1720 C1719 1.414 . S
C1720 C1721 1.374 . S
C1721 H1701 0.950 . S
C1721 C1717 1.385 . S
C1721 C1720 1.374 . S
C1722 C1719 1.499 . S
C1722 C1723 1.373 . S
C1722 C1724 1.389 . S
C1723 H1702 0.950 . S
C1723 C1722 1.373 . S
C1723 C1739 1.377 . S
C1724 C1722 1.389 . S
C1724 C1725 1.524 . S
C1724 C1738 1.377 . S
C1725 C1724 1.524 . S
C1725 C1726 1.397 . S
C1725 C1730 1.363 . S
C1726 H1703 0.950 . S
C1726 C1725 1.397 . S
C1726 C1727 1.334 . S
C1727 H1704 0.950 . S
C1727 C1726 1.334 . S
C1727 C1728 1.287 . S
C1728 C1727 1.287 . S
C1728 C1729 1.524 . S
C1728 H1747 0.913 . S
C1729 H1705 0.950 . S
C1729 C1728 1.524 . S
C1729 C1730 1.415 . S
C1730 H1706 0.950 . S
C1730 C1725 1.363 . S
C1730 C1729 1.415 . S
C1731 H1707 0.951 . S
C1731 C1732 1.366 . S
C1731 C1733 1.388 . S
C1732 C1731 1.366 . S
C1732 C1736 1.385 . S
C1733 H1708 0.951 . S
C1733 C1731 1.388 . S
C1733 C1734 1.366 . S
C1734 C1733 1.366 . S
C1734 C1735 1.414 . S
C1734 C1737 1.499 . S
C1735 H1709 0.950 . S
C1735 C1734 1.414 . S
C1735 C1736 1.374 . S
C1736 H1710 0.950 . S
C1736 C1732 1.385 . S
C1736 C1735 1.374 . S
C1737 C1734 1.499 . S
C1737 C1738 1.373 . S
C1737 C1739 1.389 . S
C1738 H1711 0.950 . S
C1738 C1724 1.377 . S
C1738 C1737 1.373 . S
C1739 C1723 1.377 . S
C1739 C1737 1.389 . S
C1739 C1740 1.524 . S
C1740 C1739 1.524 . S
C1740 C1741 1.397 . S
C1740 C1745 1.363 . S
C1741 H1712 0.950 . S
C1741 C1740 1.397 . S
C1741 C1742 1.334 . S
C1742 H1713 0.950 . S
C1742 C1741 1.334 . S
C1742 C1743 1.287 . S
C1743 C1742 1.287 . S
C1743 C1744 1.524 . S
C1743 H1746 0.999 . S
C1744 H1714 0.950 . S
C1744 C1743 1.524 . S
C1744 C1745 1.415 . S
C1745 H1715 0.950 . S
C1745 C1740 1.363 . S
C1745 C1744 1.415 . S
H1746 C1743 0.999 . S
H1747 C1728 0.913 . S
H1748 C1766 0.951 . S
H1749 C1768 0.951 . S
H1750 C1770 0.950 . S
H1751 C1771 0.950 . S
H1752 C1773 0.950 . S
H1753 C1776 0.950 . S
H1754 C1777 0.950 . S
H1755 C1779 0.950 . S
H1756 C1780 0.950 1_655 S
H1757 C1781 0.951 . S
H1758 C1783 0.951 . S
H1759 C1785 0.950 . S
H1760 C1786 0.950 . S
H1761 C1788 0.950 . S
H1762 C1791 0.950 . S
H1763 C1792 0.950 . S
H1764 C1794 0.950 . S
H1765 C1795 0.950 . S
C1766 H1748 0.951 . S
C1766 C1767 1.366 . S
C1766 C1768 1.388 . S
C1767 C1766 1.366 . S
C1767 C1771 1.385 . S
C1768 H1749 0.951 . S
C1768 C1766 1.388 . S
C1768 C1769 1.366 . S
C1769 C1768 1.366 . S
C1769 C1770 1.414 . S
C1769 C1772 1.499 . S
C1770 H1750 0.950 . S
C1770 C1769 1.414 . S
C1770 C1771 1.374 . S
C1771 H1751 0.950 . S
C1771 C1767 1.385 . S
C1771 C1770 1.374 . S
C1772 C1769 1.499 . S
C1772 C1773 1.373 . S
C1772 C1774 1.389 . S
C1773 H1752 0.950 . S
C1773 C1772 1.373 . S
C1773 C1789 1.377 . S
C1774 C1772 1.389 . S
C1774 C1775 1.524 . S
C1774 C1788 1.377 1_455 S
C1775 C1774 1.524 . S
C1775 C1776 1.397 . S
C1775 C1780 1.363 . S
C1776 H1753 0.950 . S
C1776 C1775 1.397 . S
C1776 C1777 1.334 . S
C1777 H1754 0.950 . S
C1777 C1776 1.334 . S
C1777 C1778 1.287 . S
C1778 C1777 1.287 . S
C1778 C1779 1.524 . S
C1778 H1797 0.913 . S
C1779 H1755 0.950 . S
C1779 C1778 1.524 . S
C1779 C1780 1.415 . S
C1780 H1756 0.950 1_455 S
C1780 C1775 1.363 . S
C1780 C1779 1.415 . S
C1781 H1757 0.951 . S
C1781 C1782 1.366 . S
C1781 C1783 1.388 . S
C1782 C1781 1.366 . S
C1782 C1786 1.385 . S
C1783 H1758 0.951 . S
C1783 C1781 1.388 . S
C1783 C1784 1.366 . S
C1784 C1783 1.366 . S
C1784 C1785 1.414 . S
C1784 C1787 1.499 . S
C1785 H1759 0.950 . S
C1785 C1784 1.414 . S
C1785 C1786 1.374 . S
C1786 H1760 0.950 . S
C1786 C1782 1.385 . S
C1786 C1785 1.374 . S
C1787 C1784 1.499 . S
C1787 C1788 1.373 . S
C1787 C1789 1.389 1_655 S
C1788 H1761 0.950 . S
C1788 C1774 1.377 1_655 S
C1788 C1787 1.373 . S
C1789 C1773 1.377 . S
C1789 C1787 1.389 1_455 S
C1789 C1790 1.524 . S
C1790 C1789 1.524 . S
C1790 C1791 1.397 1_455 S
C1790 C1795 1.363 . S
C1791 H1762 0.950 . S
C1791 C1790 1.397 1_655 S
C1791 C1792 1.334 . S
C1792 H1763 0.950 . S
C1792 C1791 1.334 . S
C1792 C1793 1.287 . S
C1793 C1792 1.287 . S
C1793 C1794 1.524 1_655 S
C1793 H1796 0.999 . S
C1794 H1764 0.950 . S
C1794 C1793 1.524 1_455 S
C1794 C1795 1.415 . S
C1795 H1765 0.950 . S
C1795 C1790 1.363 . S
C1795 C1794 1.415 . S
H1796 C1793 0.999 . S
H1797 C1778 0.913 . S
H1798 C1816 0.951 . S
H1799 C1818 0.951 . S
H1800 C1820 0.950 . S
H1801 C1821 0.950 . S
H1802 C1823 0.950 . S
H1803 C1826 0.950 . S
H1804 C1827 0.950 . S
H1805 C1829 0.950 . S
H1806 C1830 0.950 . S
H1807 C1831 0.951 . S
H1808 C1833 0.951 . S
H1809 C1835 0.950 . S
H1810 C1836 0.950 . S
H1811 C1838 0.950 . S
H1812 C1841 0.950 . S
H1813 C1842 0.950 . S
H1814 C1844 0.950 . S
H1815 C1845 0.950 . S
C1816 H1798 0.951 . S
C1816 C1817 1.366 . S
C1816 C1818 1.388 . S
C1817 C1816 1.366 . S
C1817 C1821 1.385 . S
C1818 H1799 0.951 . S
C1818 C1816 1.388 . S
C1818 C1819 1.366 . S
C1819 C1818 1.366 . S
C1819 C1820 1.414 . S
C1819 C1822 1.499 . S
C1820 H1800 0.950 . S
C1820 C1819 1.414 . S
C1820 C1821 1.374 . S
C1821 H1801 0.950 . S
C1821 C1817 1.385 . S
C1821 C1820 1.374 . S
C1822 C1819 1.499 . S
C1822 C1823 1.373 . S
C1822 C1824 1.389 . S
C1823 H1802 0.950 . S
C1823 C1822 1.373 . S
C1823 C1839 1.377 . S
C1824 C1822 1.389 . S
C1824 C1825 1.524 . S
C1824 C1838 1.377 . S
C1825 C1824 1.524 . S
C1825 C1826 1.397 . S
C1825 C1830 1.363 . S
C1826 H1803 0.950 . S
C1826 C1825 1.397 . S
C1826 C1827 1.334 . S
C1827 H1804 0.950 . S
C1827 C1826 1.334 . S
C1827 C1828 1.287 . S
C1828 C1827 1.287 . S
C1828 C1829 1.524 . S
C1828 H1847 0.913 . S
C1829 H1805 0.950 . S
C1829 C1828 1.524 . S
C1829 C1830 1.415 . S
C1830 H1806 0.950 . S
C1830 C1825 1.363 . S
C1830 C1829 1.415 . S
C1831 H1807 0.951 . S
C1831 C1832 1.366 . S
C1831 C1833 1.388 . S
C1832 C1831 1.366 . S
C1832 C1836 1.385 . S
C1833 H1808 0.951 . S
C1833 C1831 1.388 . S
C1833 C1834 1.366 . S
C1834 C1833 1.366 . S
C1834 C1835 1.414 . S
C1834 C1837 1.499 . S
C1835 H1809 0.950 . S
C1835 C1834 1.414 . S
C1835 C1836 1.374 . S
C1836 H1810 0.950 . S
C1836 C1832 1.385 . S
C1836 C1835 1.374 . S
C1837 C1834 1.499 . S
C1837 C1838 1.373 . S
C1837 C1839 1.389 . S
C1838 H1811 0.950 . S
C1838 C1824 1.377 . S
C1838 C1837 1.373 . S
C1839 C1823 1.377 . S
C1839 C1837 1.389 . S
C1839 C1840 1.524 . S
C1840 C1839 1.524 . S
C1840 C1841 1.397 . S
C1840 C1845 1.363 . S
C1841 H1812 0.950 . S
C1841 C1840 1.397 . S
C1841 C1842 1.334 . S
C1842 H1813 0.950 . S
C1842 C1841 1.334 . S
C1842 C1843 1.287 . S
C1843 C1842 1.287 . S
C1843 C1844 1.524 . S
C1843 H1846 0.999 . S
C1844 H1814 0.950 . S
C1844 C1843 1.524 . S
C1844 C1845 1.415 . S
C1845 H1815 0.950 . S
C1845 C1840 1.363 . S
C1845 C1844 1.415 . S
H1846 C1843 0.999 . S
H1847 C1828 0.913 . S
H1848 C1866 0.951 . S
H1849 C1868 0.951 . S
H1850 C1870 0.950 . S
H1851 C1871 0.950 . S
H1852 C1873 0.950 . S
H1853 C1876 0.950 . S
H1854 C1877 0.950 . S
H1855 C1879 0.950 . S
H1856 C1880 0.950 . S
H1857 C1881 0.951 . S
H1858 C1883 0.951 . S
H1859 C1885 0.950 . S
H1860 C1886 0.950 . S
H1861 C1888 0.950 . S
H1862 C1891 0.950 . S
H1863 C1892 0.950 . S
H1864 C1894 0.950 . S
H1865 C1895 0.950 . S
C1866 H1848 0.951 . S
C1866 C1867 1.366 . S
C1866 C1868 1.388 . S
C1867 C1866 1.366 . S
C1867 C1871 1.385 . S
C1868 H1849 0.951 . S
C1868 C1866 1.388 . S
C1868 C1869 1.366 . S
C1869 C1868 1.366 . S
C1869 C1870 1.414 . S
C1869 C1872 1.499 . S
C1870 H1850 0.950 . S
C1870 C1869 1.414 . S
C1870 C1871 1.374 . S
C1871 H1851 0.950 . S
C1871 C1867 1.385 . S
C1871 C1870 1.374 . S
C1872 C1869 1.499 . S
C1872 C1873 1.373 . S
C1872 C1874 1.389 . S
C1873 H1852 0.950 . S
C1873 C1872 1.373 . S
C1873 C1889 1.377 . S
C1874 C1872 1.389 . S
C1874 C1875 1.524 . S
C1874 C1888 1.377 . S
C1875 C1874 1.524 . S
C1875 C1876 1.397 . S
C1875 C1880 1.363 . S
C1876 H1853 0.950 . S
C1876 C1875 1.397 . S
C1876 C1877 1.334 . S
C1877 H1854 0.950 . S
C1877 C1876 1.334 . S
C1877 C1878 1.287 . S
C1878 C1877 1.287 . S
C1878 C1879 1.524 . S
C1878 H1897 0.913 . S
C1879 H1855 0.950 . S
C1879 C1878 1.524 . S
C1879 C1880 1.415 . S
C1880 H1856 0.950 . S
C1880 C1875 1.363 . S
C1880 C1879 1.415 . S
C1881 H1857 0.951 . S
C1881 C1882 1.366 . S
C1881 C1883 1.388 . S
C1882 C1881 1.366 . S
C1882 C1886 1.385 . S
C1883 H1858 0.951 . S
C1883 C1881 1.388 . S
C1883 C1884 1.366 . S
C1884 C1883 1.366 . S
C1884 C1885 1.414 . S
C1884 C1887 1.499 . S
C1885 H1859 0.950 . S
C1885 C1884 1.414 . S
C1885 C1886 1.374 . S
C1886 H1860 0.950 . S
C1886 C1882 1.385 . S
C1886 C1885 1.374 . S
C1887 C1884 1.499 . S
C1887 C1888 1.373 . S
C1887 C1889 1.389 . S
C1888 H1861 0.950 . S
C1888 C1874 1.377 . S
C1888 C1887 1.373 . S
C1889 C1873 1.377 . S
C1889 C1887 1.389 . S
C1889 C1890 1.524 . S
C1890 C1889 1.524 . S
C1890 C1891 1.397 . S
C1890 C1895 1.363 . S
C1891 H1862 0.950 . S
C1891 C1890 1.397 . S
C1891 C1892 1.334 . S
C1892 H1863 0.950 . S
C1892 C1891 1.334 . S
C1892 C1893 1.287 . S
C1893 C1892 1.287 . S
C1893 C1894 1.524 . S
C1893 H1896 0.999 . S
C1894 H1864 0.950 . S
C1894 C1893 1.524 . S
C1894 C1895 1.415 . S
C1895 H1865 0.950 . S
C1895 C1890 1.363 . S
C1895 C1894 1.415 . S
H1896 C1893 0.999 . S
H1897 C1878 0.913 . S
H1898 C1916 0.951 . S
H1899 C1918 0.951 . S
H1900 C1920 0.950 . S
H1901 C1921 0.950 . S
H1902 C1923 0.950 . S
H1903 C1926 0.950 . S
H1904 C1927 0.950 . S
H1905 C1929 0.950 . S
H1906 C1930 0.950 . S
H1907 C1931 0.951 . S
H1908 C1933 0.951 . S
H1909 C1935 0.950 . S
H1910 C1936 0.950 . S
H1911 C1938 0.950 . S
H1912 C1941 0.950 . S
H1913 C1942 0.950 . S
H1914 C1944 0.950 . S
H1915 C1945 0.950 . S
C1916 H1898 0.951 . S
C1916 C1917 1.366 . S
C1916 C1918 1.388 . S
C1917 C1916 1.366 . S
C1917 C1921 1.385 . S
C1918 H1899 0.951 . S
C1918 C1916 1.388 . S
C1918 C1919 1.366 . S
C1919 C1918 1.366 . S
C1919 C1920 1.414 . S
C1919 C1922 1.499 . S
C1920 H1900 0.950 . S
C1920 C1919 1.414 . S
C1920 C1921 1.374 . S
C1921 H1901 0.950 . S
C1921 C1917 1.385 . S
C1921 C1920 1.374 . S
C1922 C1919 1.499 . S
C1922 C1923 1.373 . S
C1922 C1924 1.389 . S
C1923 H1902 0.950 . S
C1923 C1922 1.373 . S
C1923 C1939 1.377 . S
C1924 C1922 1.389 . S
C1924 C1925 1.524 . S
C1924 C1938 1.377 . S
C1925 C1924 1.524 . S
C1925 C1926 1.397 . S
C1925 C1930 1.363 . S
C1926 H1903 0.950 . S
C1926 C1925 1.397 . S
C1926 C1927 1.334 . S
C1927 H1904 0.950 . S
C1927 C1926 1.334 . S
C1927 C1928 1.287 . S
C1928 C1927 1.287 . S
C1928 C1929 1.524 . S
C1928 H1947 0.913 . S
C1929 H1905 0.950 . S
C1929 C1928 1.524 . S
C1929 C1930 1.415 . S
C1930 H1906 0.950 . S
C1930 C1925 1.363 . S
C1930 C1929 1.415 . S
C1931 H1907 0.951 . S
C1931 C1932 1.366 . S
C1931 C1933 1.388 . S
C1932 C1931 1.366 . S
C1932 C1936 1.385 . S
C1933 H1908 0.951 . S
C1933 C1931 1.388 . S
C1933 C1934 1.366 . S
C1934 C1933 1.366 . S
C1934 C1935 1.414 . S
C1934 C1937 1.499 . S
C1935 H1909 0.950 . S
C1935 C1934 1.414 . S
C1935 C1936 1.374 . S
C1936 H1910 0.950 . S
C1936 C1932 1.385 . S
C1936 C1935 1.374 . S
C1937 C1934 1.499 . S
C1937 C1938 1.373 . S
C1937 C1939 1.389 . S
C1938 H1911 0.950 . S
C1938 C1924 1.377 . S
C1938 C1937 1.373 . S
C1939 C1923 1.377 . S
C1939 C1937 1.389 . S
C1939 C1940 1.524 . S
C1940 C1939 1.524 . S
C1940 C1941 1.397 . S
C1940 C1945 1.363 . S
C1941 H1912 0.950 . S
C1941 C1940 1.397 . S
C1941 C1942 1.334 1_655 S
C1942 H1913 0.950 . S
C1942 C1941 1.334 1_455 S
C1942 C1943 1.287 . S
C1943 C1942 1.287 . S
C1943 C1944 1.524 . S
C1943 H1946 0.999 . S
C1944 H1914 0.950 . S
C1944 C1943 1.524 . S
C1944 C1945 1.415 1_455 S
C1945 H1915 0.950 . S
C1945 C1940 1.363 . S
C1945 C1944 1.415 1_655 S
H1946 C1943 0.999 . S
H1947 C1928 0.913 . S
H1948 C1966 0.951 . S
H1949 C1968 0.951 . S
H1950 C1970 0.950 . S
H1951 C1971 0.950 . S
H1952 C1973 0.950 . S
H1953 C1976 0.950 . S
H1954 C1977 0.950 . S
H1955 C1979 0.950 . S
H1956 C1980 0.950 . S
H1957 C1981 0.951 . S
H1958 C1983 0.951 . S
H1959 C1985 0.950 . S
H1960 C1986 0.950 . S
H1961 C1988 0.950 . S
H1962 C1991 0.950 . S
H1963 C1992 0.950 . S
H1964 C1994 0.950 . S
H1965 C1995 0.950 . S
C1966 H1948 0.951 . S
C1966 C1967 1.366 . S
C1966 C1968 1.388 . S
C1967 C1966 1.366 . S
C1967 C1971 1.385 . S
C1968 H1949 0.951 . S
C1968 C1966 1.388 . S
C1968 C1969 1.366 . S
C1969 C1968 1.366 . S
C1969 C1970 1.414 . S
C1969 C1972 1.499 . S
C1970 H1950 0.950 . S
C1970 C1969 1.414 . S
C1970 C1971 1.374 . S
C1971 H1951 0.950 . S
C1971 C1967 1.385 . S
C1971 C1970 1.374 . S
C1972 C1969 1.499 . S
C1972 C1973 1.373 . S
C1972 C1974 1.389 . S
C1973 H1952 0.950 . S
C1973 C1972 1.373 . S
C1973 C1989 1.377 . S
C1974 C1972 1.389 . S
C1974 C1975 1.524 . S
C1974 C1988 1.377 . S
C1975 C1974 1.524 . S
C1975 C1976 1.397 . S
C1975 C1980 1.363 . S
C1976 H1953 0.950 . S
C1976 C1975 1.397 . S
C1976 C1977 1.334 . S
C1977 H1954 0.950 . S
C1977 C1976 1.334 . S
C1977 C1978 1.287 . S
C1978 C1977 1.287 . S
C1978 C1979 1.524 . S
C1978 H1997 0.913 . S
C1979 H1955 0.950 . S
C1979 C1978 1.524 . S
C1979 C1980 1.415 . S
C1980 H1956 0.950 . S
C1980 C1975 1.363 . S
C1980 C1979 1.415 . S
C1981 H1957 0.951 . S
C1981 C1982 1.366 . S
C1981 C1983 1.388 . S
C1982 C1981 1.366 . S
C1982 C1986 1.385 . S
C1983 H1958 0.951 . S
C1983 C1981 1.388 . S
C1983 C1984 1.366 . S
C1984 C1983 1.366 . S
C1984 C1985 1.414 . S
C1984 C1987 1.499 . S
C1985 H1959 0.950 . S
C1985 C1984 1.414 . S
C1985 C1986 1.374 . S
C1986 H1960 0.950 . S
C1986 C1982 1.385 . S
C1986 C1985 1.374 . S
C1987 C1984 1.499 . S
C1987 C1988 1.373 . S
C1987 C1989 1.389 . S
C1988 H1961 0.950 . S
C1988 C1974 1.377 . S
C1988 C1987 1.373 . S
C1989 C1973 1.377 . S
C1989 C1987 1.389 . S
C1989 C1990 1.524 . S
C1990 C1989 1.524 . S
C1990 C1991 1.397 . S
C1990 C1995 1.363 . S
C1991 H1962 0.950 . S
C1991 C1990 1.397 . S
C1991 C1992 1.334 . S
C1992 H1963 0.950 . S
C1992 C1991 1.334 . S
C1992 C1993 1.287 . S
C1993 C1992 1.287 . S
C1993 C1994 1.524 . S
C1993 H1996 0.999 . S
C1994 H1964 0.950 . S
C1994 C1993 1.524 . S
C1994 C1995 1.415 . S
C1995 H1965 0.950 . S
C1995 C1990 1.363 . S
C1995 C1994 1.415 . S
H1996 C1993 0.999 . S
H1997 C1978 0.913 . S
H1998 C2016 0.951 . S
H1999 C2018 0.951 . S
H2000 C2020 0.950 . S
H2001 C2021 0.950 . S
H2002 C2023 0.950 . S
H2003 C2026 0.950 . S
H2004 C2027 0.950 . S
H2005 C2029 0.950 . S
H2006 C2030 0.950 . S
H2007 C2031 0.951 . S
H2008 C2033 0.951 . S
H2009 C2035 0.950 . S
H2010 C2036 0.950 . S
H2011 C2038 0.950 . S
H2012 C2041 0.950 . S
H2013 C2042 0.950 . S
H2014 C2044 0.950 . S
H2015 C2045 0.950 . S
C2016 H1998 0.951 . S
C2016 C2017 1.366 . S
C2016 C2018 1.388 . S
C2017 C2016 1.366 . S
C2017 C2021 1.385 . S
C2018 H1999 0.951 . S
C2018 C2016 1.388 . S
C2018 C2019 1.366 . S
C2019 C2018 1.366 . S
C2019 C2020 1.414 . S
C2019 C2022 1.499 . S
C2020 H2000 0.950 . S
C2020 C2019 1.414 . S
C2020 C2021 1.374 . S
C2021 H2001 0.950 . S
C2021 C2017 1.385 . S
C2021 C2020 1.374 . S
C2022 C2019 1.499 . S
C2022 C2023 1.373 . S
C2022 C2024 1.389 . S
C2023 H2002 0.950 . S
C2023 C2022 1.373 . S
C2023 C2039 1.377 1_556 S
C2024 C2022 1.389 . S
C2024 C2025 1.524 . S
C2024 C2038 1.377 1_556 S
C2025 C2024 1.524 . S
C2025 C2026 1.397 . S
C2025 C2030 1.363 1_556 S
C2026 H2003 0.950 . S
C2026 C2025 1.397 . S
C2026 C2027 1.334 . S
C2027 H2004 0.950 . S
C2027 C2026 1.334 . S
C2027 C2028 1.287 . S
C2028 C2027 1.287 . S
C2028 C2029 1.524 1_556 S
C2028 H2047 0.913 . S
C2029 H2005 0.950 . S
C2029 C2028 1.524 1_554 S
C2029 C2030 1.415 . S
C2030 H2006 0.950 . S
C2030 C2025 1.363 1_554 S
C2030 C2029 1.415 . S
C2031 H2007 0.951 . S
C2031 C2032 1.366 . S
C2031 C2033 1.388 . S
C2032 C2031 1.366 . S
C2032 C2036 1.385 . S
C2033 H2008 0.951 . S
C2033 C2031 1.388 . S
C2033 C2034 1.366 . S
C2034 C2033 1.366 . S
C2034 C2035 1.414 . S
C2034 C2037 1.499 . S
C2035 H2009 0.950 . S
C2035 C2034 1.414 . S
C2035 C2036 1.374 . S
C2036 H2010 0.950 . S
C2036 C2032 1.385 . S
C2036 C2035 1.374 . S
C2037 C2034 1.499 . S
C2037 C2038 1.373 . S
C2037 C2039 1.389 . S
C2038 H2011 0.950 . S
C2038 C2024 1.377 1_554 S
C2038 C2037 1.373 . S
C2039 C2023 1.377 1_554 S
C2039 C2037 1.389 . S
C2039 C2040 1.524 . S
C2040 C2039 1.524 . S
C2040 C2041 1.397 . S
C2040 C2045 1.363 1_554 S
C2041 H2012 0.950 . S
C2041 C2040 1.397 . S
C2041 C2042 1.334 . S
C2042 H2013 0.950 . S
C2042 C2041 1.334 . S
C2042 C2043 1.287 . S
C2043 C2042 1.287 . S
C2043 C2044 1.524 1_554 S
C2043 H2046 0.999 . S
C2044 H2014 0.950 . S
C2044 C2043 1.524 1_556 S
C2044 C2045 1.415 . S
C2045 H2015 0.950 . S
C2045 C2040 1.363 1_556 S
C2045 C2044 1.415 . S
H2046 C2043 0.999 . S
H2047 C2028 0.913 . S
H2048 C2066 0.951 . S
H2049 C2068 0.951 . S
H2050 C2070 0.950 . S
H2051 C2071 0.950 1_455 S
H2052 C2073 0.950 . S
H2053 C2076 0.950 . S
H2054 C2077 0.950 . S
H2055 C2079 0.950 . S
H2056 C2080 0.950 . S
H2057 C2081 0.951 . S
H2058 C2083 0.951 . S
H2059 C2085 0.950 . S
H2060 C2086 0.950 . S
H2061 C2088 0.950 . S
H2062 C2091 0.950 . S
H2063 C2092 0.950 . S
H2064 C2094 0.950 . S
H2065 C2095 0.952 . S
C2066 H2048 0.951 . S
C2066 C2067 1.366 . S
C2066 C2068 1.388 . S
C2067 C2066 1.366 . S
C2067 C2071 1.385 . S
C2068 H2049 0.951 . S
C2068 C2066 1.388 . S
C2068 C2069 1.366 . S
C2069 C2068 1.366 . S
C2069 C2070 1.414 . S
C2069 C2072 1.499 . S
C2070 H2050 0.950 . S
C2070 C2069 1.414 . S
C2070 C2071 1.374 . S
C2071 H2051 0.950 1_655 S
C2071 C2067 1.385 . S
C2071 C2070 1.374 . S
C2072 C2069 1.499 . S
C2072 C2073 1.373 . S
C2072 C2074 1.389 . S
C2073 H2052 0.950 . S
C2073 C2072 1.373 . S
C2073 C2089 1.377 . S
C2074 C2072 1.389 . S
C2074 C2075 1.524 . S
C2074 C2088 1.377 . S
C2075 C2074 1.524 . S
C2075 C2076 1.397 . S
C2075 C2080 1.363 . S
C2076 H2053 0.950 . S
C2076 C2075 1.397 . S
C2076 C2077 1.334 . S
C2077 H2054 0.950 . S
C2077 C2076 1.334 . S
C2077 C2078 1.287 . S
C2078 C2077 1.287 . S
C2078 C2079 1.524 . S
C2078 H2097 0.913 . S
C2079 H2055 0.950 . S
C2079 C2078 1.524 . S
C2079 C2080 1.415 . S
C2080 H2056 0.950 . S
C2080 C2075 1.363 . S
C2080 C2079 1.415 . S
C2081 H2057 0.951 . S
C2081 C2082 1.366 . S
C2081 C2083 1.388 . S
C2082 C2081 1.366 . S
C2082 C2086 1.385 . S
C2083 H2058 0.951 . S
C2083 C2081 1.388 . S
C2083 C2084 1.366 . S
C2084 C2083 1.366 . S
C2084 C2085 1.414 . S
C2084 C2087 1.499 . S
C2085 H2059 0.950 . S
C2085 C2084 1.414 . S
C2085 C2086 1.374 . S
C2086 H2060 0.950 . S
C2086 C2082 1.385 . S
C2086 C2085 1.374 . S
C2087 C2084 1.499 . S
C2087 C2088 1.373 . S
C2087 C2089 1.389 . S
C2088 H2061 0.950 . S
C2088 C2074 1.377 . S
C2088 C2087 1.373 . S
C2089 C2073 1.377 . S
C2089 C2087 1.389 . S
C2089 C2090 1.524 . S
C2090 C2089 1.524 . S
C2090 C2091 1.397 . S
C2090 C2095 1.363 . S
C2091 H2062 0.950 . S
C2091 C2090 1.397 . S
C2091 C2092 1.334 . S
C2092 H2063 0.950 . S
C2092 C2091 1.334 . S
C2092 C2093 1.287 1_655 S
C2093 C2092 1.287 1_455 S
C2093 C2094 1.524 . S
C2093 H2096 0.999 . S
C2094 H2064 0.950 . S
C2094 C2093 1.524 . S
C2094 C2095 1.415 1_455 S
C2095 H2065 0.952 . S
C2095 C2090 1.363 . S
C2095 C2094 1.415 1_655 S
H2096 C2093 0.999 . S
H2097 C2078 0.913 . S
H2098 C2116 0.951 . S
H2099 C2118 0.951 . S
H2100 C2120 0.950 . S
H2101 C2121 0.950 . S
H2102 C2123 0.950 . S
H2103 C2126 0.950 . S
H2104 C2127 0.950 . S
H2105 C2129 0.950 . S
H2106 C2130 0.950 . S
H2107 C2131 0.951 . S
H2108 C2133 0.951 . S
H2109 C2135 0.950 . S
H2110 C2136 0.950 . S
H2111 C2138 0.950 . S
H2112 C2141 0.950 . S
H2113 C2142 0.950 . S
H2114 C2144 0.950 . S
H2115 C2145 0.950 . S
C2116 H2098 0.951 . S
C2116 C2117 1.366 . S
C2116 C2118 1.388 . S
C2117 C2116 1.366 . S
C2117 C2121 1.385 . S
C2118 H2099 0.951 . S
C2118 C2116 1.388 . S
C2118 C2119 1.366 . S
C2119 C2118 1.366 . S
C2119 C2120 1.414 . S
C2119 C2122 1.499 . S
C2120 H2100 0.950 . S
C2120 C2119 1.414 . S
C2120 C2121 1.374 . S
C2121 H2101 0.950 . S
C2121 C2117 1.385 . S
C2121 C2120 1.374 . S
C2122 C2119 1.499 . S
C2122 C2123 1.373 . S
C2122 C2124 1.389 . S
C2123 H2102 0.950 . S
C2123 C2122 1.373 . S
C2123 C2139 1.377 . S
C2124 C2122 1.389 . S
C2124 C2125 1.524 . S
C2124 C2138 1.377 . S
C2125 C2124 1.524 . S
C2125 C2126 1.397 . S
C2125 C2130 1.363 . S
C2126 H2103 0.950 . S
C2126 C2125 1.397 . S
C2126 C2127 1.334 . S
C2127 H2104 0.950 . S
C2127 C2126 1.334 . S
C2127 C2128 1.287 . S
C2128 C2127 1.287 . S
C2128 C2129 1.524 . S
C2128 H2147 0.913 . S
C2129 H2105 0.950 . S
C2129 C2128 1.524 . S
C2129 C2130 1.415 . S
C2130 H2106 0.950 . S
C2130 C2125 1.363 . S
C2130 C2129 1.415 . S
C2131 H2107 0.951 . S
C2131 C2132 1.366 . S
C2131 C2133 1.388 . S
C2132 C2131 1.366 . S
C2132 C2136 1.385 . S
C2133 H2108 0.951 . S
C2133 C2131 1.388 . S
C2133 C2134 1.366 . S
C2134 C2133 1.366 . S
C2134 C2135 1.414 . S
C2134 C2137 1.499 . S
C2135 H2109 0.950 . S
C2135 C2134 1.414 . S
C2135 C2136 1.374 . S
C2136 H2110 0.950 . S
C2136 C2132 1.385 . S
C2136 C2135 1.374 . S
C2137 C2134 1.499 . S
C2137 C2138 1.373 . S
C2137 C2139 1.389 . S
C2138 H2111 0.950 . S
C2138 C2124 1.377 . S
C2138 C2137 1.373 . S
C2139 C2123 1.377 . S
C2139 C2137 1.389 . S
C2139 C2140 1.524 . S
C2140 C2139 1.524 . S
C2140 C2141 1.397 . S
C2140 C2145 1.363 . S
C2141 H2112 0.950 . S
C2141 C2140 1.397 . S
C2141 C2142 1.334 . S
C2142 H2113 0.950 . S
C2142 C2141 1.334 . S
C2142 C2143 1.287 . S
C2143 C2142 1.287 . S
C2143 C2144 1.524 . S
C2143 H2146 0.999 . S
C2144 H2114 0.950 . S
C2144 C2143 1.524 . S
C2144 C2145 1.415 . S
C2145 H2115 0.950 . S
C2145 C2140 1.363 . S
C2145 C2144 1.415 . S
H2146 C2143 0.999 . S
H2147 C2128 0.913 . S
H2148 C2166 0.951 . S
H2149 C2168 0.951 . S
H2150 C2170 0.950 . S
H2151 C2171 0.950 . S
H2152 C2173 0.950 . S
H2153 C2176 0.950 . S
H2154 C2177 0.950 . S
H2155 C2179 0.950 . S
H2156 C2180 0.950 . S
H2157 C2181 0.951 . S
H2158 C2183 0.951 . S
H2159 C2185 0.950 . S
H2160 C2186 0.950 . S
H2161 C2188 0.950 . S
H2162 C2191 0.950 . S
H2163 C2192 0.950 . S
H2164 C2194 0.950 . S
H2165 C2195 0.950 . S
C2166 H2148 0.951 . S
C2166 C2167 1.366 . S
C2166 C2168 1.388 . S
C2167 C2166 1.366 . S
C2167 C2171 1.385 . S
C2168 H2149 0.951 . S
C2168 C2166 1.388 . S
C2168 C2169 1.366 . S
C2169 C2168 1.366 . S
C2169 C2170 1.414 . S
C2169 C2172 1.499 . S
C2170 H2150 0.950 . S
C2170 C2169 1.414 . S
C2170 C2171 1.374 . S
C2171 H2151 0.950 . S
C2171 C2167 1.385 . S
C2171 C2170 1.374 . S
C2172 C2169 1.499 . S
C2172 C2173 1.373 . S
C2172 C2174 1.389 . S
C2173 H2152 0.950 . S
C2173 C2172 1.373 . S
C2173 C2189 1.377 . S
C2174 C2172 1.389 . S
C2174 C2175 1.524 . S
C2174 C2188 1.377 . S
C2175 C2174 1.524 . S
C2175 C2176 1.397 . S
C2175 C2180 1.363 . S
C2176 H2153 0.950 . S
C2176 C2175 1.397 . S
C2176 C2177 1.334 . S
C2177 H2154 0.950 . S
C2177 C2176 1.334 . S
C2177 C2178 1.287 . S
C2178 C2177 1.287 . S
C2178 C2179 1.524 . S
C2178 H2197 0.913 . S
C2179 H2155 0.950 . S
C2179 C2178 1.524 . S
C2179 C2180 1.415 . S
C2180 H2156 0.950 . S
C2180 C2175 1.363 . S
C2180 C2179 1.415 . S
C2181 H2157 0.951 . S
C2181 C2182 1.366 . S
C2181 C2183 1.388 . S
C2182 C2181 1.366 . S
C2182 C2186 1.385 . S
C2183 H2158 0.951 . S
C2183 C2181 1.388 . S
C2183 C2184 1.366 . S
C2184 C2183 1.366 . S
C2184 C2185 1.414 . S
C2184 C2187 1.499 . S
C2185 H2159 0.950 . S
C2185 C2184 1.414 . S
C2185 C2186 1.374 . S
C2186 H2160 0.950 . S
C2186 C2182 1.385 . S
C2186 C2185 1.374 . S
C2187 C2184 1.499 . S
C2187 C2188 1.373 . S
C2187 C2189 1.389 . S
C2188 H2161 0.950 . S
C2188 C2174 1.377 . S
C2188 C2187 1.373 . S
C2189 C2173 1.377 . S
C2189 C2187 1.389 . S
C2189 C2190 1.524 . S
C2190 C2189 1.524 . S
C2190 C2191 1.397 . S
C2190 C2195 1.363 . S
C2191 H2162 0.950 . S
C2191 C2190 1.397 . S
C2191 C2192 1.334 . S
C2192 H2163 0.950 . S
C2192 C2191 1.334 . S
C2192 C2193 1.287 . S
C2193 C2192 1.287 . S
C2193 C2194 1.524 . S
C2193 H2196 0.999 . S
C2194 H2164 0.950 . S
C2194 C2193 1.524 . S
C2194 C2195 1.415 . S
C2195 H2165 0.950 . S
C2195 C2190 1.363 . S
C2195 C2194 1.415 . S
H2196 C2193 0.999 . S
H2197 C2178 0.913 . S
H2198 C2216 0.951 . S
H2199 C2218 0.951 . S
H2200 C2220 0.950 . S
H2201 C2221 0.950 1_455 S
H2202 C2223 0.950 . S
H2203 C2226 0.950 . S
H2204 C2227 0.950 . S
H2205 C2229 0.950 . S
H2206 C2230 0.950 . S
H2207 C2231 0.951 . S
H2208 C2233 0.951 . S
H2209 C2235 0.950 . S
H2210 C2236 0.950 . S
H2211 C2238 0.950 . S
H2212 C2241 0.950 . S
H2213 C2242 0.950 . S
H2214 C2244 0.950 . S
H2215 C2245 0.950 . S
C2216 H2198 0.951 . S
C2216 C2217 1.366 . S
C2216 C2218 1.388 . S
C2217 C2216 1.366 . S
C2217 C2221 1.385 . S
C2218 H2199 0.951 . S
C2218 C2216 1.388 . S
C2218 C2219 1.366 . S
C2219 C2218 1.366 . S
C2219 C2220 1.414 . S
C2219 C2222 1.499 . S
C2220 H2200 0.950 . S
C2220 C2219 1.414 . S
C2220 C2221 1.374 . S
C2221 H2201 0.950 1_655 S
C2221 C2217 1.385 . S
C2221 C2220 1.374 . S
C2222 C2219 1.499 . S
C2222 C2223 1.373 . S
C2222 C2224 1.389 . S
C2223 H2202 0.950 . S
C2223 C2222 1.373 . S
C2223 C2239 1.377 . S
C2224 C2222 1.389 . S
C2224 C2225 1.524 . S
C2224 C2238 1.377 1_554 S
C2225 C2224 1.524 . S
C2225 C2226 1.397 . S
C2225 C2230 1.363 . S
C2226 H2203 0.950 . S
C2226 C2225 1.397 . S
C2226 C2227 1.334 . S
C2227 H2204 0.950 . S
C2227 C2226 1.334 . S
C2227 C2228 1.287 . S
C2228 C2227 1.287 . S
C2228 C2229 1.524 . S
C2228 H2247 0.913 . S
C2229 H2205 0.950 . S
C2229 C2228 1.524 . S
C2229 C2230 1.415 . S
C2230 H2206 0.950 . S
C2230 C2225 1.363 . S
C2230 C2229 1.415 . S
C2231 H2207 0.951 . S
C2231 C2232 1.366 . S
C2231 C2233 1.388 . S
C2232 C2231 1.366 . S
C2232 C2236 1.385 . S
C2233 H2208 0.951 . S
C2233 C2231 1.388 . S
C2233 C2234 1.366 . S
C2234 C2233 1.366 . S
C2234 C2235 1.414 . S
C2234 C2237 1.499 . S
C2235 H2209 0.950 . S
C2235 C2234 1.414 . S
C2235 C2236 1.374 . S
C2236 H2210 0.950 . S
C2236 C2232 1.385 . S
C2236 C2235 1.374 . S
C2237 C2234 1.499 . S
C2237 C2238 1.373 . S
C2237 C2239 1.389 1_556 S
C2238 H2211 0.950 . S
C2238 C2224 1.377 1_556 S
C2238 C2237 1.373 . S
C2239 C2223 1.377 . S
C2239 C2237 1.389 1_554 S
C2239 C2240 1.524 . S
C2240 C2239 1.524 . S
C2240 C2241 1.397 . S
C2240 C2245 1.363 . S
C2241 H2212 0.950 . S
C2241 C2240 1.397 . S
C2241 C2242 1.334 1_554 S
C2242 H2213 0.950 . S
C2242 C2241 1.334 1_556 S
C2242 C2243 1.285 1_556 S
C2243 C2242 1.285 1_554 S
C2243 C2244 1.528 . S
C2243 H2246 0.995 1_554 S
C2244 H2214 0.950 . S
C2244 C2243 1.528 . S
C2244 C2245 1.415 . S
C2245 H2215 0.950 . S
C2245 C2240 1.363 . S
C2245 C2244 1.415 . S
H2246 C2243 0.995 1_556 S
H2247 C2228 0.913 . S
H2248 C2266 0.951 . S
H2249 C2268 0.951 . S
H2250 C2270 0.950 . S
H2251 C2271 0.957 . S
H2252 C2273 0.950 . S
H2253 C2276 0.950 . S
H2254 C2277 0.950 . S
H2255 C2279 0.950 . S
H2256 C2280 0.950 . S
H2257 C2281 0.951 . S
H2258 C2283 0.951 . S
H2259 C2285 0.950 . S
H2260 C2286 0.950 . S
H2261 C2288 0.950 . S
H2262 C2291 0.944 1_545 S
H2263 C2292 0.950 . S
H2264 C2294 0.950 . S
H2265 C2295 0.950 . S
C2266 H2248 0.951 . S
C2266 C2267 1.366 . S
C2266 C2268 1.388 . S
C2267 C2266 1.366 . S
C2267 C2271 1.385 . S
C2268 H2249 0.951 . S
C2268 C2266 1.388 . S
C2268 C2269 1.366 1_545 S
C2269 C2268 1.366 1_565 S
C2269 C2270 1.414 . S
C2269 C2272 1.499 . S
C2270 H2250 0.950 . S
C2270 C2269 1.414 . S
C2270 C2271 1.374 1_565 S
C2271 H2251 0.957 . S
C2271 C2267 1.385 . S
C2271 C2270 1.374 1_545 S
C2272 C2269 1.499 . S
C2272 C2273 1.373 . S
C2272 C2274 1.389 . S
C2273 H2252 0.950 . S
C2273 C2272 1.373 . S
C2273 C2289 1.377 . S
C2274 C2272 1.389 . S
C2274 C2275 1.524 . S
C2274 C2288 1.377 . S
C2275 C2274 1.524 . S
C2275 C2276 1.397 . S
C2275 C2280 1.363 . S
C2276 H2253 0.950 . S
C2276 C2275 1.397 . S
C2276 C2277 1.334 . S
C2277 H2254 0.950 . S
C2277 C2276 1.334 . S
C2277 C2278 1.287 . S
C2278 C2277 1.287 . S
C2278 C2279 1.524 . S
C2278 H2297 0.913 . S
C2279 H2255 0.950 . S
C2279 C2278 1.524 . S
C2279 C2280 1.415 . S
C2280 H2256 0.950 . S
C2280 C2275 1.363 . S
C2280 C2279 1.415 . S
C2281 H2257 0.951 . S
C2281 C2282 1.366 . S
C2281 C2283 1.388 . S
C2282 C2281 1.366 . S
C2282 C2286 1.385 . S
C2283 H2258 0.951 . S
C2283 C2281 1.388 . S
C2283 C2284 1.366 . S
C2284 C2283 1.366 . S
C2284 C2285 1.414 . S
C2284 C2287 1.499 . S
C2285 H2259 0.950 . S
C2285 C2284 1.414 . S
C2285 C2286 1.374 . S
C2286 H2260 0.950 . S
C2286 C2282 1.385 . S
C2286 C2285 1.374 . S
C2287 C2284 1.499 . S
C2287 C2288 1.373 . S
C2287 C2289 1.389 . S
C2288 H2261 0.950 . S
C2288 C2274 1.377 . S
C2288 C2287 1.373 . S
C2289 C2273 1.377 . S
C2289 C2287 1.389 . S
C2289 C2290 1.524 . S
C2290 C2289 1.524 . S
C2290 C2291 1.397 . S
C2290 C2295 1.363 . S
C2291 H2262 0.944 1_565 S
C2291 C2290 1.397 . S
C2291 C2292 1.334 1_565 S
C2292 H2263 0.950 . S
C2292 C2291 1.334 1_545 S
C2292 C2293 1.287 1_545 S
C2293 C2292 1.287 1_565 S
C2293 C2294 1.524 . S
C2293 H2296 0.991 1_565 S
C2294 H2264 0.950 . S
C2294 C2293 1.524 . S
C2294 C2295 1.415 . S
C2295 H2265 0.950 . S
C2295 C2290 1.363 . S
C2295 C2294 1.415 . S
H2296 C2293 0.991 1_545 S
H2297 C2278 0.913 . S
H2298 C2316 0.951 . S
H2299 C2318 0.951 . S
H2300 C2320 0.955 . S
H2301 C2321 0.950 . S
H2302 C2323 0.950 . S
H2303 C2326 0.950 . S
H2304 C2327 0.950 . S
H2305 C2329 0.950 . S
H2306 C2330 0.950 . S
H2307 C2331 0.951 . S
H2308 C2333 0.951 . S
H2309 C2335 0.950 . S
H2310 C2336 0.950 . S
H2311 C2338 0.950 . S
H2312 C2341 0.950 . S
H2313 C2342 0.950 . S
H2314 C2344 0.950 . S
H2315 C2345 0.950 . S
C2316 H2298 0.951 . S
C2316 C2317 1.366 . S
C2316 C2318 1.388 . S
C2317 C2316 1.366 . S
C2317 C2321 1.385 . S
C2318 H2299 0.951 . S
C2318 C2316 1.388 . S
C2318 C2319 1.366 1_565 S
C2319 C2318 1.366 1_545 S
C2319 C2320 1.416 . S
C2319 C2322 1.499 . S
C2320 H2300 0.955 . S
C2320 C2319 1.416 . S
C2320 C2321 1.367 1_545 S
C2321 H2301 0.950 . S
C2321 C2317 1.385 . S
C2321 C2320 1.367 1_565 S
C2322 C2319 1.499 . S
C2322 C2323 1.373 . S
C2322 C2324 1.389 . S
C2323 H2302 0.950 . S
C2323 C2322 1.373 . S
C2323 C2339 1.377 . S
C2324 C2322 1.389 . S
C2324 C2325 1.524 . S
C2324 C2338 1.377 . S
C2325 C2324 1.524 . S
C2325 C2326 1.397 . S
C2325 C2330 1.363 . S
C2326 H2303 0.950 . S
C2326 C2325 1.397 . S
C2326 C2327 1.334 . S
C2327 H2304 0.950 . S
C2327 C2326 1.334 . S
C2327 C2328 1.287 . S
C2328 C2327 1.287 . S
C2328 C2329 1.524 . S
C2328 H2347 0.913 . S
C2329 H2305 0.950 . S
C2329 C2328 1.524 . S
C2329 C2330 1.415 . S
C2330 H2306 0.950 . S
C2330 C2325 1.363 . S
C2330 C2329 1.415 . S
C2331 H2307 0.951 . S
C2331 C2332 1.366 . S
C2331 C2333 1.388 . S
C2332 C2331 1.366 . S
C2332 C2336 1.385 . S
C2333 H2308 0.951 . S
C2333 C2331 1.388 . S
C2333 C2334 1.366 . S
C2334 C2333 1.366 . S
C2334 C2335 1.414 . S
C2334 C2337 1.499 . S
C2335 H2309 0.950 . S
C2335 C2334 1.414 . S
C2335 C2336 1.374 . S
C2336 H2310 0.950 . S
C2336 C2332 1.385 . S
C2336 C2335 1.374 . S
C2337 C2334 1.499 . S
C2337 C2338 1.373 . S
C2337 C2339 1.389 . S
C2338 H2311 0.950 . S
C2338 C2324 1.377 . S
C2338 C2337 1.373 . S
C2339 C2323 1.377 . S
C2339 C2337 1.389 . S
C2339 C2340 1.524 . S
C2340 C2339 1.524 . S
C2340 C2341 1.397 . S
C2340 C2345 1.363 . S
C2341 H2312 0.950 . S
C2341 C2340 1.397 . S
C2341 C2342 1.334 . S
C2342 H2313 0.950 . S
C2342 C2341 1.334 . S
C2342 C2343 1.287 . S
C2343 C2342 1.287 . S
C2343 C2344 1.524 . S
C2343 H2346 0.999 . S
C2344 H2314 0.950 . S
C2344 C2343 1.524 . S
C2344 C2345 1.415 . S
C2345 H2315 0.950 . S
C2345 C2340 1.363 . S
C2345 C2344 1.415 . S
H2346 C2343 0.999 . S
H2347 C2328 0.913 . S
H2348 C2366 0.951 . S
H2349 C2368 0.951 . S
H2350 C2370 0.950 . S
H2351 C2371 0.950 . S
H2352 C2373 0.950 . S
H2353 C2376 0.950 . S
H2354 C2377 0.950 . S
H2355 C2379 0.950 . S
H2356 C2380 0.950 . S
H2357 C2381 0.951 . S
H2358 C2383 0.951 . S
H2359 C2385 0.950 . S
H2360 C2386 0.950 . S
H2361 C2388 0.950 . S
H2362 C2391 0.950 . S
H2363 C2392 0.950 . S
H2364 C2394 0.950 . S
H2365 C2395 0.950 . S
C2366 H2348 0.951 . S
C2366 C2367 1.366 . S
C2366 C2368 1.388 . S
C2367 C2366 1.366 . S
C2367 C2371 1.385 . S
C2368 H2349 0.951 . S
C2368 C2366 1.388 . S
C2368 C2369 1.366 . S
C2369 C2368 1.366 . S
C2369 C2370 1.414 . S
C2369 C2372 1.499 . S
C2370 H2350 0.950 . S
C2370 C2369 1.414 . S
C2370 C2371 1.374 . S
C2371 H2351 0.950 . S
C2371 C2367 1.385 . S
C2371 C2370 1.374 . S
C2372 C2369 1.499 . S
C2372 C2373 1.373 . S
C2372 C2374 1.389 . S
C2373 H2352 0.950 . S
C2373 C2372 1.373 . S
C2373 C2389 1.377 . S
C2374 C2372 1.389 . S
C2374 C2375 1.524 . S
C2374 C2388 1.377 . S
C2375 C2374 1.524 . S
C2375 C2376 1.397 . S
C2375 C2380 1.363 . S
C2376 H2353 0.950 . S
C2376 C2375 1.397 . S
C2376 C2377 1.334 . S
C2377 H2354 0.950 . S
C2377 C2376 1.334 . S
C2377 C2378 1.287 . S
C2378 C2377 1.287 . S
C2378 C2379 1.524 . S
C2378 H2397 0.913 . S
C2379 H2355 0.950 . S
C2379 C2378 1.524 . S
C2379 C2380 1.415 . S
C2380 H2356 0.950 . S
C2380 C2375 1.363 . S
C2380 C2379 1.415 . S
C2381 H2357 0.951 . S
C2381 C2382 1.366 . S
C2381 C2383 1.388 . S
C2382 C2381 1.366 . S
C2382 C2386 1.385 . S
C2383 H2358 0.951 . S
C2383 C2381 1.388 . S
C2383 C2384 1.366 . S
C2384 C2383 1.366 . S
C2384 C2385 1.414 . S
C2384 C2387 1.499 . S
C2385 H2359 0.950 . S
C2385 C2384 1.414 . S
C2385 C2386 1.374 . S
C2386 H2360 0.950 . S
C2386 C2382 1.385 . S
C2386 C2385 1.374 . S
C2387 C2384 1.499 . S
C2387 C2388 1.373 . S
C2387 C2389 1.389 . S
C2388 H2361 0.950 . S
C2388 C2374 1.377 . S
C2388 C2387 1.373 . S
C2389 C2373 1.377 . S
C2389 C2387 1.389 . S
C2389 C2390 1.524 . S
C2390 C2389 1.524 . S
C2390 C2391 1.397 . S
C2390 C2395 1.363 . S
C2391 H2362 0.950 . S
C2391 C2390 1.397 . S
C2391 C2392 1.334 . S
C2392 H2363 0.950 . S
C2392 C2391 1.334 . S
C2392 C2393 1.287 . S
C2393 C2392 1.287 . S
C2393 C2394 1.524 . S
C2393 H2396 0.999 . S
C2394 H2364 0.950 . S
C2394 C2393 1.524 . S
C2394 C2395 1.415 . S
C2395 H2365 0.950 . S
C2395 C2390 1.363 . S
C2395 C2394 1.415 . S
H2396 C2393 0.999 . S
H2397 C2378 0.913 . S
H2398 C2416 0.951 . S
H2399 C2418 0.951 . S
H2400 C2420 0.950 . S
H2401 C2421 0.950 . S
H2402 C2423 0.950 . S
H2403 C2426 0.950 . S
H2404 C2427 0.950 . S
H2405 C2429 0.950 . S
H2406 C2430 0.950 . S
H2407 C2431 0.951 . S
H2408 C2433 0.951 . S
H2409 C2435 0.911 1_545 S
H2410 C2436 0.950 . S
H2411 C2438 0.950 . S
H2412 C2441 0.950 . S
H2413 C2442 0.950 . S
H2414 C2444 0.950 . S
H2415 C2445 0.950 1_545 S
C2416 H2398 0.951 . S
C2416 C2417 1.366 . S
C2416 C2418 1.388 . S
C2417 C2416 1.366 . S
C2417 C2421 1.385 . S
C2418 H2399 0.951 . S
C2418 C2416 1.388 . S
C2418 C2419 1.366 . S
C2419 C2418 1.366 . S
C2419 C2420 1.414 . S
C2419 C2422 1.499 . S
C2420 H2400 0.950 . S
C2420 C2419 1.414 . S
C2420 C2421 1.374 . S
C2421 H2401 0.950 . S
C2421 C2417 1.385 . S
C2421 C2420 1.374 . S
C2422 C2419 1.499 . S
C2422 C2423 1.373 . S
C2422 C2424 1.389 . S
C2423 H2402 0.950 . S
C2423 C2422 1.373 . S
C2423 C2439 1.377 . S
C2424 C2422 1.389 . S
C2424 C2425 1.524 . S
C2424 C2438 1.377 . S
C2425 C2424 1.524 . S
C2425 C2426 1.397 . S
C2425 C2430 1.363 . S
C2426 H2403 0.950 . S
C2426 C2425 1.397 . S
C2426 C2427 1.334 . S
C2427 H2404 0.950 . S
C2427 C2426 1.334 . S
C2427 C2428 1.287 . S
C2428 C2427 1.287 . S
C2428 C2429 1.524 . S
C2428 H2447 0.913 . S
C2429 H2405 0.950 . S
C2429 C2428 1.524 . S
C2429 C2430 1.415 . S
C2430 H2406 0.950 . S
C2430 C2425 1.363 . S
C2430 C2429 1.415 . S
C2431 H2407 0.951 . S
C2431 C2432 1.366 . S
C2431 C2433 1.388 . S
C2432 C2431 1.366 . S
C2432 C2436 1.385 . S
C2433 H2408 0.951 . S
C2433 C2431 1.388 . S
C2433 C2434 1.366 . S
C2434 C2433 1.366 . S
C2434 C2435 1.414 . S
C2434 C2437 1.499 1_565 S
C2435 H2409 0.911 1_565 S
C2435 C2434 1.414 . S
C2435 C2436 1.374 . S
C2436 H2410 0.950 . S
C2436 C2432 1.385 . S
C2436 C2435 1.374 . S
C2437 C2434 1.499 1_545 S
C2437 C2438 1.373 . S
C2437 C2439 1.389 . S
C2438 H2411 0.950 . S
C2438 C2424 1.377 . S
C2438 C2437 1.373 . S
C2439 C2423 1.377 . S
C2439 C2437 1.389 . S
C2439 C2440 1.524 . S
C2440 C2439 1.524 . S
C2440 C2441 1.397 1_545 S
C2440 C2445 1.363 1_545 S
C2441 H2412 0.950 . S
C2441 C2440 1.397 1_565 S
C2441 C2442 1.334 . S
C2442 H2413 0.950 . S
C2442 C2441 1.334 . S
C2442 C2443 1.287 1_554 S
C2443 C2442 1.287 1_556 S
C2443 C2444 1.524 . S
C2443 H2446 0.999 . S
C2444 H2414 0.950 . S
C2444 C2443 1.524 . S
C2444 C2445 1.415 1_556 S
C2445 H2415 0.950 1_565 S
C2445 C2440 1.363 1_565 S
C2445 C2444 1.415 1_554 S
H2446 C2443 0.999 . S
H2447 C2428 0.913 . S
H2448 C2466 0.951 . S
H2449 C2468 0.951 . S
H2450 C2470 0.950 . S
H2451 C2471 0.950 . S
H2452 C2473 0.950 . S
H2453 C2476 0.950 . S
H2454 C2477 0.950 . S
H2455 C2479 0.950 . S
H2456 C2480 0.950 . S
H2457 C2481 0.951 . S
H2458 C2483 0.951 . S
H2459 C2485 0.950 . S
H2460 C2486 0.950 . S
H2461 C2488 0.950 . S
H2462 C2491 0.950 . S
H2463 C2492 0.950 . S
H2464 C2494 0.950 . S
H2465 C2495 0.950 . S
C2466 H2448 0.951 . S
C2466 C2467 1.366 . S
C2466 C2468 1.388 . S
C2467 C2466 1.366 . S
C2467 C2471 1.385 . S
C2468 H2449 0.951 . S
C2468 C2466 1.388 . S
C2468 C2469 1.366 . S
C2469 C2468 1.366 . S
C2469 C2470 1.414 . S
C2469 C2472 1.499 . S
C2470 H2450 0.950 . S
C2470 C2469 1.414 . S
C2470 C2471 1.374 . S
C2471 H2451 0.950 . S
C2471 C2467 1.385 . S
C2471 C2470 1.374 . S
C2472 C2469 1.499 . S
C2472 C2473 1.373 . S
C2472 C2474 1.389 . S
C2473 H2452 0.950 . S
C2473 C2472 1.373 . S
C2473 C2489 1.377 . S
C2474 C2472 1.389 . S
C2474 C2475 1.524 . S
C2474 C2488 1.377 . S
C2475 C2474 1.524 . S
C2475 C2476 1.397 . S
C2475 C2480 1.363 . S
C2476 H2453 0.950 . S
C2476 C2475 1.397 . S
C2476 C2477 1.334 . S
C2477 H2454 0.950 . S
C2477 C2476 1.334 . S
C2477 C2478 1.287 . S
C2478 C2477 1.287 . S
C2478 C2479 1.524 . S
C2478 H2497 0.913 . S
C2479 H2455 0.950 . S
C2479 C2478 1.524 . S
C2479 C2480 1.415 . S
C2480 H2456 0.950 . S
C2480 C2475 1.363 . S
C2480 C2479 1.415 . S
C2481 H2457 0.951 . S
C2481 C2482 1.366 . S
C2481 C2483 1.388 . S
C2482 C2481 1.366 . S
C2482 C2486 1.385 . S
C2483 H2458 0.951 . S
C2483 C2481 1.388 . S
C2483 C2484 1.366 . S
C2484 C2483 1.366 . S
C2484 C2485 1.414 . S
C2484 C2487 1.499 . S
C2485 H2459 0.950 . S
C2485 C2484 1.414 . S
C2485 C2486 1.374 . S
C2486 H2460 0.950 . S
C2486 C2482 1.385 . S
C2486 C2485 1.374 . S
C2487 C2484 1.499 . S
C2487 C2488 1.373 . S
C2487 C2489 1.389 . S
C2488 H2461 0.950 . S
C2488 C2474 1.377 . S
C2488 C2487 1.373 . S
C2489 C2473 1.377 . S
C2489 C2487 1.389 . S
C2489 C2490 1.524 . S
C2490 C2489 1.524 . S
C2490 C2491 1.397 . S
C2490 C2495 1.363 . S
C2491 H2462 0.950 . S
C2491 C2490 1.397 . S
C2491 C2492 1.334 . S
C2492 H2463 0.950 . S
C2492 C2491 1.334 . S
C2492 C2493 1.287 . S
C2493 C2492 1.287 . S
C2493 C2494 1.524 . S
C2493 H2496 0.999 . S
C2494 H2464 0.950 . S
C2494 C2493 1.524 . S
C2494 C2495 1.415 . S
C2495 H2465 0.950 . S
C2495 C2490 1.363 . S
C2495 C2494 1.415 . S
H2496 C2493 0.999 . S
H2497 C2478 0.913 . S
H2498 C2516 0.951 . S
H2499 C2518 0.951 . S
H2500 C2520 0.950 . S
H2501 C2521 0.950 . S
H2502 C2523 0.950 . S
H2503 C2526 0.950 . S
H2504 C2527 0.950 . S
H2505 C2529 0.950 . S
H2506 C2530 0.950 . S
H2507 C2531 0.951 . S
H2508 C2533 0.951 . S
H2509 C2535 0.950 . S
H2510 C2536 0.950 . S
H2511 C2538 0.950 . S
H2512 C2541 0.950 . S
H2513 C2542 0.950 . S
H2514 C2544 0.950 . S
H2515 C2545 0.950 . S
C2516 H2498 0.951 . S
C2516 C2517 1.366 . S
C2516 C2518 1.388 . S
C2517 C2516 1.366 . S
C2517 C2521 1.385 . S
C2518 H2499 0.951 . S
C2518 C2516 1.388 . S
C2518 C2519 1.366 . S
C2519 C2518 1.366 . S
C2519 C2520 1.414 . S
C2519 C2522 1.499 1_565 S
C2520 H2500 0.950 . S
C2520 C2519 1.414 . S
C2520 C2521 1.374 . S
C2521 H2501 0.950 . S
C2521 C2517 1.385 . S
C2521 C2520 1.374 . S
C2522 C2519 1.499 1_545 S
C2522 C2523 1.373 . S
C2522 C2524 1.389 . S
C2523 H2502 0.950 . S
C2523 C2522 1.373 . S
C2523 C2539 1.377 . S
C2524 C2522 1.389 . S
C2524 C2525 1.524 1_545 S
C2524 C2538 1.377 . S
C2525 C2524 1.524 1_565 S
C2525 C2526 1.397 . S
C2525 C2530 1.363 1_565 S
C2526 H2503 0.950 . S
C2526 C2525 1.397 . S
C2526 C2527 1.334 . S
C2527 H2504 0.950 . S
C2527 C2526 1.334 . S
C2527 C2528 1.287 . S
C2528 C2527 1.287 . S
C2528 C2529 1.524 . S
C2528 H2547 0.913 . S
C2529 H2505 0.950 . S
C2529 C2528 1.524 . S
C2529 C2530 1.415 1_565 S
C2530 H2506 0.950 . S
C2530 C2525 1.363 1_545 S
C2530 C2529 1.415 1_545 S
C2531 H2507 0.951 . S
C2531 C2532 1.366 . S
C2531 C2533 1.388 . S
C2532 C2531 1.366 . S
C2532 C2536 1.385 . S
C2533 H2508 0.951 . S
C2533 C2531 1.388 . S
C2533 C2534 1.366 . S
C2534 C2533 1.366 . S
C2534 C2535 1.414 . S
C2534 C2537 1.499 . S
C2535 H2509 0.950 . S
C2535 C2534 1.414 . S
C2535 C2536 1.374 . S
C2536 H2510 0.950 . S
C2536 C2532 1.385 . S
C2536 C2535 1.374 . S
C2537 C2534 1.499 . S
C2537 C2538 1.373 . S
C2537 C2539 1.389 . S
C2538 H2511 0.950 . S
C2538 C2524 1.377 . S
C2538 C2537 1.373 . S
C2539 C2523 1.377 . S
C2539 C2537 1.389 . S
C2539 C2540 1.524 . S
C2540 C2539 1.524 . S
C2540 C2541 1.397 . S
C2540 C2545 1.363 . S
C2541 H2512 0.950 . S
C2541 C2540 1.397 . S
C2541 C2542 1.334 . S
C2542 H2513 0.950 . S
C2542 C2541 1.334 . S
C2542 C2543 1.287 . S
C2543 C2542 1.287 . S
C2543 C2544 1.524 . S
C2543 H2546 0.999 . S
C2544 H2514 0.950 . S
C2544 C2543 1.524 . S
C2544 C2545 1.415 . S
C2545 H2515 0.950 . S
C2545 C2540 1.363 . S
C2545 C2544 1.415 . S
H2546 C2543 0.999 . S
H2547 C2528 0.913 . S
H2548 C2566 0.951 . S
H2549 C2568 0.951 . S
H2550 C2570 0.950 . S
H2551 C2571 0.950 . S
H2552 C2573 0.950 . S
H2553 C2576 0.948 1_545 S
H2554 C2577 0.950 . S
H2555 C2579 0.950 . S
H2556 C2580 0.950 . S
H2557 C2581 0.951 . S
H2558 C2583 0.951 . S
H2559 C2585 0.950 . S
H2560 C2586 0.950 . S
H2561 C2588 0.950 . S
H2562 C2591 0.950 . S
H2563 C2592 0.950 . S
H2564 C2594 0.950 . S
H2565 C2595 0.950 . S
C2566 H2548 0.951 . S
C2566 C2567 1.366 . S
C2566 C2568 1.388 . S
C2567 C2566 1.366 . S
C2567 C2571 1.385 . S
C2568 H2549 0.951 . S
C2568 C2566 1.388 . S
C2568 C2569 1.366 . S
C2569 C2568 1.366 . S
C2569 C2570 1.414 . S
C2569 C2572 1.499 . S
C2570 H2550 0.950 . S
C2570 C2569 1.414 . S
C2570 C2571 1.374 . S
C2571 H2551 0.950 . S
C2571 C2567 1.385 . S
C2571 C2570 1.374 . S
C2572 C2569 1.499 . S
C2572 C2573 1.373 . S
C2572 C2574 1.389 . S
C2573 H2552 0.950 . S
C2573 C2572 1.373 . S
C2573 C2589 1.377 . S
C2574 C2572 1.389 . S
C2574 C2575 1.524 . S
C2574 C2588 1.377 . S
C2575 C2574 1.524 . S
C2575 C2576 1.408 . S
C2575 C2580 1.363 . S
C2576 H2553 0.948 1_565 S
C2576 C2575 1.408 . S
C2576 C2577 1.324 1_565 S
C2577 H2554 0.950 . S
C2577 C2576 1.324 1_545 S
C2577 C2578 1.287 . S
C2578 C2577 1.287 . S
C2578 C2579 1.524 1_545 S
C2578 H2597 0.913 . S
C2579 H2555 0.950 . S
C2579 C2578 1.524 1_565 S
C2579 C2580 1.415 . S
C2580 H2556 0.950 . S
C2580 C2575 1.363 . S
C2580 C2579 1.415 . S
C2581 H2557 0.951 . S
C2581 C2582 1.366 . S
C2581 C2583 1.388 . S
C2582 C2581 1.366 . S
C2582 C2586 1.385 . S
C2583 H2558 0.951 . S
C2583 C2581 1.388 . S
C2583 C2584 1.366 . S
C2584 C2583 1.366 . S
C2584 C2585 1.414 . S
C2584 C2587 1.499 . S
C2585 H2559 0.950 . S
C2585 C2584 1.414 . S
C2585 C2586 1.374 . S
C2586 H2560 0.950 . S
C2586 C2582 1.385 . S
C2586 C2585 1.374 . S
C2587 C2584 1.499 . S
C2587 C2588 1.373 . S
C2587 C2589 1.389 . S
C2588 H2561 0.950 . S
C2588 C2574 1.377 . S
C2588 C2587 1.373 . S
C2589 C2573 1.377 . S
C2589 C2587 1.389 . S
C2589 C2590 1.524 . S
C2590 C2589 1.524 . S
C2590 C2591 1.397 . S
C2590 C2595 1.363 . S
C2591 H2562 0.950 . S
C2591 C2590 1.397 . S
C2591 C2592 1.334 . S
C2592 H2563 0.950 . S
C2592 C2591 1.334 . S
C2592 C2593 1.287 . S
C2593 C2592 1.287 . S
C2593 C2594 1.524 . S
C2593 H2596 0.999 . S
C2594 H2564 0.950 . S
C2594 C2593 1.524 . S
C2594 C2595 1.415 . S
C2595 H2565 0.950 . S
C2595 C2590 1.363 . S
C2595 C2594 1.415 . S
H2596 C2593 0.999 . S
H2597 C2578 0.913 . S
H2598 C2616 0.951 . S
H2599 C2618 0.951 . S
H2600 C2620 0.950 . S
H2601 C2621 0.950 . S
H2602 C2623 0.950 . S
H2603 C2626 0.950 . S
H2604 C2627 0.950 . S
H2605 C2629 0.950 . S
H2606 C2630 0.950 . S
H2607 C2631 0.951 . S
H2608 C2633 0.951 . S
H2609 C2635 0.950 . S
H2610 C2636 0.950 . S
H2611 C2638 0.950 . S
H2612 C2641 0.950 1_545 S
H2613 C2642 0.950 1_554 S
H2614 C2644 0.950 . S
H2615 C2645 0.974 . S
C2616 H2598 0.951 . S
C2616 C2617 1.366 . S
C2616 C2618 1.388 . S
C2617 C2616 1.366 . S
C2617 C2621 1.385 . S
C2618 H2599 0.951 . S
C2618 C2616 1.388 . S
C2618 C2619 1.366 . S
C2619 C2618 1.366 . S
C2619 C2620 1.414 . S
C2619 C2622 1.499 . S
C2620 H2600 0.950 . S
C2620 C2619 1.414 . S
C2620 C2621 1.374 . S
C2621 H2601 0.950 . S
C2621 C2617 1.385 . S
C2621 C2620 1.374 . S
C2622 C2619 1.499 . S
C2622 C2623 1.373 . S
C2622 C2624 1.389 . S
C2623 H2602 0.950 . S
C2623 C2622 1.373 . S
C2623 C2639 1.377 . S
C2624 C2622 1.389 . S
C2624 C2625 1.524 . S
C2624 C2638 1.377 . S
C2625 C2624 1.524 . S
C2625 C2626 1.397 . S
C2625 C2630 1.363 . S
C2626 H2603 0.950 . S
C2626 C2625 1.397 . S
C2626 C2627 1.334 . S
C2627 H2604 0.950 . S
C2627 C2626 1.334 . S
C2627 C2628 1.287 . S
C2628 C2627 1.287 . S
C2628 C2629 1.524 . S
C2628 H2647 0.913 . S
C2629 H2605 0.950 . S
C2629 C2628 1.524 . S
C2629 C2630 1.415 . S
C2630 H2606 0.950 . S
C2630 C2625 1.363 . S
C2630 C2629 1.415 . S
C2631 H2607 0.951 . S
C2631 C2632 1.366 . S
C2631 C2633 1.388 . S
C2632 C2631 1.366 . S
C2632 C2636 1.385 . S
C2633 H2608 0.951 . S
C2633 C2631 1.388 . S
C2633 C2634 1.366 1_565 S
C2634 C2633 1.366 1_545 S
C2634 C2635 1.414 . S
C2634 C2637 1.499 . S
C2635 H2609 0.950 . S
C2635 C2634 1.414 . S
C2635 C2636 1.374 1_545 S
C2636 H2610 0.950 . S
C2636 C2632 1.385 . S
C2636 C2635 1.374 1_565 S
C2637 C2634 1.499 . S
C2637 C2638 1.373 . S
C2637 C2639 1.389 . S
C2638 H2611 0.950 . S
C2638 C2624 1.377 . S
C2638 C2637 1.373 . S
C2639 C2623 1.377 . S
C2639 C2637 1.389 . S
C2639 C2640 1.524 . S
C2640 C2639 1.524 . S
C2640 C2641 1.397 1_545 S
C2640 C2645 1.373 . S
C2641 H2612 0.950 1_565 S
C2641 C2640 1.397 1_565 S
C2641 C2642 1.334 . S
C2642 H2613 0.950 1_556 S
C2642 C2641 1.334 . S
C2642 C2643 1.287 . S
C2643 C2642 1.287 . S
C2643 C2644 1.524 . S
C2643 H2646 0.999 1_556 S
C2644 H2614 0.950 . S
C2644 C2643 1.524 . S
C2644 C2645 1.383 1_565 S
C2645 H2615 0.974 . S
C2645 C2640 1.373 . S
C2645 C2644 1.383 1_545 S
H2646 C2643 0.999 1_554 S
H2647 C2628 0.913 . S
H2648 C2666 0.951 . S
H2649 C2668 0.951 . S
H2650 C2670 0.950 . S
H2651 C2671 0.950 . S
H2652 C2673 0.950 . S
H2653 C2676 0.950 . S
H2654 C2677 0.950 . S
H2655 C2679 0.950 . S
H2656 C2680 0.950 . S
H2657 C2681 0.951 . S
H2658 C2683 0.951 . S
H2659 C2685 0.950 . S
H2660 C2686 0.950 . S
H2661 C2688 0.950 . S
H2662 C2691 0.950 . S
H2663 C2692 0.950 . S
H2664 C2694 0.950 . S
H2665 C2695 0.950 . S
C2666 H2648 0.951 . S
C2666 C2667 1.366 . S
C2666 C2668 1.388 . S
C2667 C2666 1.366 . S
C2667 C2671 1.385 . S
C2668 H2649 0.951 . S
C2668 C2666 1.388 . S
C2668 C2669 1.366 . S
C2669 C2668 1.366 . S
C2669 C2670 1.414 . S
C2669 C2672 1.499 . S
C2670 H2650 0.950 . S
C2670 C2669 1.414 . S
C2670 C2671 1.374 . S
C2671 H2651 0.950 . S
C2671 C2667 1.385 . S
C2671 C2670 1.374 . S
C2672 C2669 1.499 . S
C2672 C2673 1.373 . S
C2672 C2674 1.389 . S
C2673 H2652 0.950 . S
C2673 C2672 1.373 . S
C2673 C2689 1.377 . S
C2674 C2672 1.389 . S
C2674 C2675 1.524 . S
C2674 C2688 1.377 . S
C2675 C2674 1.524 . S
C2675 C2676 1.397 . S
C2675 C2680 1.363 . S
C2676 H2653 0.950 . S
C2676 C2675 1.397 . S
C2676 C2677 1.334 . S
C2677 H2654 0.950 . S
C2677 C2676 1.334 . S
C2677 C2678 1.287 . S
C2678 C2677 1.287 . S
C2678 C2679 1.524 . S
C2678 H2697 0.913 . S
C2679 H2655 0.950 . S
C2679 C2678 1.524 . S
C2679 C2680 1.415 . S
C2680 H2656 0.950 . S
C2680 C2675 1.363 . S
C2680 C2679 1.415 . S
C2681 H2657 0.951 . S
C2681 C2682 1.366 . S
C2681 C2683 1.388 . S
C2682 C2681 1.366 . S
C2682 C2686 1.385 . S
C2683 H2658 0.951 . S
C2683 C2681 1.388 . S
C2683 C2684 1.366 . S
C2684 C2683 1.366 . S
C2684 C2685 1.414 . S
C2684 C2687 1.499 . S
C2685 H2659 0.950 . S
C2685 C2684 1.414 . S
C2685 C2686 1.374 . S
C2686 H2660 0.950 . S
C2686 C2682 1.385 . S
C2686 C2685 1.374 . S
C2687 C2684 1.499 . S
C2687 C2688 1.373 . S
C2687 C2689 1.389 . S
C2688 H2661 0.950 . S
C2688 C2674 1.377 . S
C2688 C2687 1.373 . S
C2689 C2673 1.377 . S
C2689 C2687 1.389 . S
C2689 C2690 1.524 . S
C2690 C2689 1.524 . S
C2690 C2691 1.397 . S
C2690 C2695 1.363 . S
C2691 H2662 0.950 . S
C2691 C2690 1.397 . S
C2691 C2692 1.334 . S
C2692 H2663 0.950 . S
C2692 C2691 1.334 . S
C2692 C2693 1.287 1_556 S
C2693 C2692 1.287 1_554 S
C2693 C2694 1.524 . S
C2693 H2696 0.999 . S
C2694 H2664 0.950 . S
C2694 C2693 1.524 . S
C2694 C2695 1.415 1_554 S
C2695 H2665 0.950 . S
C2695 C2690 1.363 . S
C2695 C2694 1.415 1_556 S
H2696 C2693 0.999 . S
H2697 C2678 0.913 . S
H2698 C2716 0.951 . S
H2699 C2718 0.951 . S
H2700 C2720 0.950 . S
H2701 C2721 0.950 . S
H2702 C2723 0.950 . S
H2703 C2726 0.950 . S
H2704 C2727 0.950 . S
H2705 C2729 0.950 . S
H2706 C2730 0.950 . S
H2707 C2731 0.951 . S
H2708 C2733 0.951 . S
H2709 C2735 0.950 . S
H2710 C2736 0.950 . S
H2711 C2738 0.950 . S
H2712 C2741 0.950 . S
H2713 C2742 0.950 . S
H2714 C2744 0.950 . S
H2715 C2745 0.950 . S
C2716 H2698 0.951 . S
C2716 C2717 1.366 . S
C2716 C2718 1.388 . S
C2717 C2716 1.366 . S
C2717 C2721 1.385 . S
C2718 H2699 0.951 . S
C2718 C2716 1.388 . S
C2718 C2719 1.366 . S
C2719 C2718 1.366 . S
C2719 C2720 1.414 . S
C2719 C2722 1.499 . S
C2720 H2700 0.950 . S
C2720 C2719 1.414 . S
C2720 C2721 1.374 . S
C2721 H2701 0.950 . S
C2721 C2717 1.385 . S
C2721 C2720 1.374 . S
C2722 C2719 1.499 . S
C2722 C2723 1.373 . S
C2722 C2724 1.389 . S
C2723 H2702 0.950 . S
C2723 C2722 1.373 . S
C2723 C2739 1.377 . S
C2724 C2722 1.389 . S
C2724 C2725 1.524 . S
C2724 C2738 1.377 . S
C2725 C2724 1.524 . S
C2725 C2726 1.397 . S
C2725 C2730 1.363 . S
C2726 H2703 0.950 . S
C2726 C2725 1.397 . S
C2726 C2727 1.334 . S
C2727 H2704 0.950 . S
C2727 C2726 1.334 . S
C2727 C2728 1.287 . S
C2728 C2727 1.287 . S
C2728 C2729 1.524 . S
C2728 H2747 0.913 . S
C2729 H2705 0.950 . S
C2729 C2728 1.524 . S
C2729 C2730 1.415 . S
C2730 H2706 0.950 . S
C2730 C2725 1.363 . S
C2730 C2729 1.415 . S
C2731 H2707 0.951 . S
C2731 C2732 1.366 . S
C2731 C2733 1.388 . S
C2732 C2731 1.366 . S
C2732 C2736 1.385 . S
C2733 H2708 0.951 . S
C2733 C2731 1.388 . S
C2733 C2734 1.366 . S
C2734 C2733 1.366 . S
C2734 C2735 1.414 . S
C2734 C2737 1.499 . S
C2735 H2709 0.950 . S
C2735 C2734 1.414 . S
C2735 C2736 1.374 . S
C2736 H2710 0.950 . S
C2736 C2732 1.385 . S
C2736 C2735 1.374 . S
C2737 C2734 1.499 . S
C2737 C2738 1.373 . S
C2737 C2739 1.389 . S
C2738 H2711 0.950 . S
C2738 C2724 1.377 . S
C2738 C2737 1.373 . S
C2739 C2723 1.377 . S
C2739 C2737 1.389 . S
C2739 C2740 1.524 . S
C2740 C2739 1.524 . S
C2740 C2741 1.397 . S
C2740 C2745 1.363 . S
C2741 H2712 0.950 . S
C2741 C2740 1.397 . S
C2741 C2742 1.334 . S
C2742 H2713 0.950 . S
C2742 C2741 1.334 . S
C2742 C2743 1.287 . S
C2743 C2742 1.287 . S
C2743 C2744 1.524 . S
C2743 H2746 0.999 . S
C2744 H2714 0.950 . S
C2744 C2743 1.524 . S
C2744 C2745 1.415 . S
C2745 H2715 0.950 . S
C2745 C2740 1.363 . S
C2745 C2744 1.415 . S
H2746 C2743 0.999 . S
H2747 C2728 0.913 . S
H2748 C2766 0.951 . S
H2749 C2768 0.951 . S
H2750 C2770 0.950 . S
H2751 C2771 0.950 . S
H2752 C2773 0.950 . S
H2753 C2776 0.950 . S
H2754 C2777 0.950 . S
H2755 C2779 0.950 . S
H2756 C2780 0.950 1_455 S
H2757 C2781 0.951 . S
H2758 C2783 0.951 . S
H2759 C2785 0.950 . S
H2760 C2786 0.950 . S
H2761 C2788 0.950 . S
H2762 C2791 0.950 . S
H2763 C2792 0.950 . S
H2764 C2794 0.950 . S
H2765 C2795 0.955 . S
C2766 H2748 0.951 . S
C2766 C2767 1.366 . S
C2766 C2768 1.388 . S
C2767 C2766 1.366 . S
C2767 C2771 1.385 . S
C2768 H2749 0.951 . S
C2768 C2766 1.388 . S
C2768 C2769 1.366 . S
C2769 C2768 1.366 . S
C2769 C2770 1.414 . S
C2769 C2772 1.499 . S
C2770 H2750 0.950 . S
C2770 C2769 1.414 . S
C2770 C2771 1.374 . S
C2771 H2751 0.950 . S
C2771 C2767 1.385 . S
C2771 C2770 1.374 . S
C2772 C2769 1.499 . S
C2772 C2773 1.373 . S
C2772 C2774 1.389 . S
C2773 H2752 0.950 . S
C2773 C2772 1.373 . S
C2773 C2789 1.377 1_655 S
C2774 C2772 1.389 . S
C2774 C2775 1.524 . S
C2774 C2788 1.377 1_655 S
C2775 C2774 1.524 . S
C2775 C2776 1.397 . S
C2775 C2780 1.363 . S
C2776 H2753 0.950 . S
C2776 C2775 1.397 . S
C2776 C2777 1.334 . S
C2777 H2754 0.950 . S
C2777 C2776 1.334 . S
C2777 C2778 1.287 . S
C2778 C2777 1.287 . S
C2778 C2779 1.524 . S
C2778 H2797 0.913 . S
C2779 H2755 0.950 . S
C2779 C2778 1.524 . S
C2779 C2780 1.415 . S
C2780 H2756 0.950 1_655 S
C2780 C2775 1.363 . S
C2780 C2779 1.415 . S
C2781 H2757 0.951 . S
C2781 C2782 1.366 . S
C2781 C2783 1.388 . S
C2782 C2781 1.366 . S
C2782 C2786 1.385 . S
C2783 H2758 0.951 . S
C2783 C2781 1.388 . S
C2783 C2784 1.366 . S
C2784 C2783 1.366 . S
C2784 C2785 1.414 . S
C2784 C2787 1.499 . S
C2785 H2759 0.950 . S
C2785 C2784 1.414 . S
C2785 C2786 1.374 . S
C2786 H2760 0.950 . S
C2786 C2782 1.385 . S
C2786 C2785 1.374 . S
C2787 C2784 1.499 . S
C2787 C2788 1.373 . S
C2787 C2789 1.389 . S
C2788 H2761 0.950 . S
C2788 C2774 1.377 1_455 S
C2788 C2787 1.373 . S
C2789 C2773 1.377 1_455 S
C2789 C2787 1.389 . S
C2789 C2790 1.524 . S
C2790 C2789 1.524 . S
C2790 C2791 1.397 . S
C2790 C2795 1.363 . S
C2791 H2762 0.950 . S
C2791 C2790 1.397 . S
C2791 C2792 1.334 . S
C2792 H2763 0.950 . S
C2792 C2791 1.334 . S
C2792 C2793 1.287 . S
C2793 C2792 1.287 . S
C2793 C2794 1.524 . S
C2793 H2796 0.999 . S
C2794 H2764 0.950 . S
C2794 C2793 1.524 . S
C2794 C2795 1.415 . S
C2795 H2765 0.955 . S
C2795 C2790 1.363 . S
C2795 C2794 1.415 . S
H2796 C2793 0.999 . S
H2797 C2778 0.913 . S
H2798 C2816 0.951 . S
H2799 C2818 0.951 . S
H2800 C2820 0.950 . S
H2801 C2821 0.950 . S
H2802 C2823 0.950 . S
H2803 C2826 0.950 . S
H2804 C2827 0.950 . S
H2805 C2829 0.950 . S
H2806 C2830 0.950 . S
H2807 C2831 0.951 . S
H2808 C2833 0.951 . S
H2809 C2835 0.950 . S
H2810 C2836 0.950 . S
H2811 C2838 0.950 . S
H2812 C2841 0.950 . S
H2813 C2842 0.950 . S
H2814 C2844 0.950 . S
H2815 C2845 0.950 . S
C2816 H2798 0.951 . S
C2816 C2817 1.366 . S
C2816 C2818 1.388 . S
C2817 C2816 1.366 . S
C2817 C2821 1.385 . S
C2818 H2799 0.951 . S
C2818 C2816 1.388 . S
C2818 C2819 1.366 . S
C2819 C2818 1.366 . S
C2819 C2820 1.414 . S
C2819 C2822 1.499 . S
C2820 H2800 0.950 . S
C2820 C2819 1.414 . S
C2820 C2821 1.374 . S
C2821 H2801 0.950 . S
C2821 C2817 1.385 . S
C2821 C2820 1.374 . S
C2822 C2819 1.499 . S
C2822 C2823 1.373 . S
C2822 C2824 1.389 . S
C2823 H2802 0.950 . S
C2823 C2822 1.373 . S
C2823 C2839 1.377 . S
C2824 C2822 1.389 . S
C2824 C2825 1.524 . S
C2824 C2838 1.377 . S
C2825 C2824 1.524 . S
C2825 C2826 1.397 . S
C2825 C2830 1.363 . S
C2826 H2803 0.950 . S
C2826 C2825 1.397 . S
C2826 C2827 1.334 . S
C2827 H2804 0.950 . S
C2827 C2826 1.334 . S
C2827 C2828 1.287 . S
C2828 C2827 1.287 . S
C2828 C2829 1.524 . S
C2828 H2847 0.913 . S
C2829 H2805 0.950 . S
C2829 C2828 1.524 . S
C2829 C2830 1.415 . S
C2830 H2806 0.950 . S
C2830 C2825 1.363 . S
C2830 C2829 1.415 . S
C2831 H2807 0.951 . S
C2831 C2832 1.366 . S
C2831 C2833 1.388 . S
C2832 C2831 1.366 . S
C2832 C2836 1.385 . S
C2833 H2808 0.951 . S
C2833 C2831 1.388 . S
C2833 C2834 1.366 . S
C2834 C2833 1.366 . S
C2834 C2835 1.414 . S
C2834 C2837 1.499 . S
C2835 H2809 0.950 . S
C2835 C2834 1.414 . S
C2835 C2836 1.374 . S
C2836 H2810 0.950 . S
C2836 C2832 1.385 . S
C2836 C2835 1.374 . S
C2837 C2834 1.499 . S
C2837 C2838 1.373 . S
C2837 C2839 1.389 . S
C2838 H2811 0.950 . S
C2838 C2824 1.377 . S
C2838 C2837 1.373 . S
C2839 C2823 1.377 . S
C2839 C2837 1.389 . S
C2839 C2840 1.524 . S
C2840 C2839 1.524 . S
C2840 C2841 1.397 . S
C2840 C2845 1.363 . S
C2841 H2812 0.950 . S
C2841 C2840 1.397 . S
C2841 C2842 1.334 . S
C2842 H2813 0.950 . S
C2842 C2841 1.334 . S
C2842 C2843 1.287 . S
C2843 C2842 1.287 . S
C2843 C2844 1.524 . S
C2843 H2846 0.999 . S
C2844 H2814 0.950 . S
C2844 C2843 1.524 . S
C2844 C2845 1.415 . S
C2845 H2815 0.950 . S
C2845 C2840 1.363 . S
C2845 C2844 1.415 . S
H2846 C2843 0.999 . S
H2847 C2828 0.913 . S
H2848 C2866 0.951 . S
H2849 C2868 0.951 . S
H2850 C2870 0.950 . S
H2851 C2871 0.950 . S
H2852 C2873 0.947 1_655 S
H2853 C2876 0.950 . S
H2854 C2877 0.950 . S
H2855 C2879 0.950 . S
H2856 C2880 0.950 . S
H2857 C2881 0.951 . S
H2858 C2883 0.951 . S
H2859 C2885 0.950 . S
H2860 C2886 0.950 . S
H2861 C2888 0.950 . S
H2862 C2891 0.950 . S
H2863 C2892 0.950 . S
H2864 C2894 0.950 . S
H2865 C2895 0.950 . S
C2866 H2848 0.951 . S
C2866 C2867 1.366 . S
C2866 C2868 1.388 . S
C2867 C2866 1.366 . S
C2867 C2871 1.385 . S
C2868 H2849 0.951 . S
C2868 C2866 1.388 . S
C2868 C2869 1.366 . S
C2869 C2868 1.366 . S
C2869 C2870 1.414 . S
C2869 C2872 1.499 . S
C2870 H2850 0.950 . S
C2870 C2869 1.414 . S
C2870 C2871 1.374 . S
C2871 H2851 0.950 . S
C2871 C2867 1.385 . S
C2871 C2870 1.374 . S
C2872 C2869 1.499 . S
C2872 C2873 1.384 . S
C2872 C2874 1.389 1_545 S
C2873 H2852 0.947 1_455 S
C2873 C2872 1.384 . S
C2873 C2889 1.367 1_455 S
C2874 C2872 1.389 1_565 S
C2874 C2875 1.524 . S
C2874 C2888 1.377 . S
C2875 C2874 1.524 . S
C2875 C2876 1.397 . S
C2875 C2880 1.363 . S
C2876 H2853 0.950 . S
C2876 C2875 1.397 . S
C2876 C2877 1.334 . S
C2877 H2854 0.950 . S
C2877 C2876 1.334 . S
C2877 C2878 1.287 . S
C2878 C2877 1.287 . S
C2878 C2879 1.524 . S
C2878 H2897 0.913 . S
C2879 H2855 0.950 . S
C2879 C2878 1.524 . S
C2879 C2880 1.415 . S
C2880 H2856 0.950 . S
C2880 C2875 1.363 . S
C2880 C2879 1.415 . S
C2881 H2857 0.951 . S
C2881 C2882 1.366 . S
C2881 C2883 1.388 . S
C2882 C2881 1.366 . S
C2882 C2886 1.385 . S
C2883 H2858 0.951 . S
C2883 C2881 1.388 . S
C2883 C2884 1.366 . S
C2884 C2883 1.366 . S
C2884 C2885 1.414 . S
C2884 C2887 1.499 . S
C2885 H2859 0.950 . S
C2885 C2884 1.414 . S
C2885 C2886 1.374 . S
C2886 H2860 0.950 . S
C2886 C2882 1.385 . S
C2886 C2885 1.374 . S
C2887 C2884 1.499 . S
C2887 C2888 1.373 1_655 S
C2887 C2889 1.389 1_565 S
C2888 H2861 0.950 . S
C2888 C2874 1.377 . S
C2888 C2887 1.373 1_455 S
C2889 C2873 1.367 1_655 S
C2889 C2887 1.389 1_545 S
C2889 C2890 1.524 . S
C2890 C2889 1.524 . S
C2890 C2891 1.397 . S
C2890 C2895 1.363 . S
C2891 H2862 0.950 . S
C2891 C2890 1.397 . S
C2891 C2892 1.334 . S
C2892 H2863 0.950 . S
C2892 C2891 1.334 . S
C2892 C2893 1.287 . S
C2893 C2892 1.287 . S
C2893 C2894 1.524 . S
C2893 H2896 0.999 . S
C2894 H2864 0.950 . S
C2894 C2893 1.524 . S
C2894 C2895 1.415 . S
C2895 H2865 0.950 . S
C2895 C2890 1.363 . S
C2895 C2894 1.415 . S
H2896 C2893 0.999 . S
H2897 C2878 0.913 . S
H2898 C2916 0.951 . S
H2899 C2918 0.951 . S
H2900 C2920 0.950 . S
H2901 C2921 0.950 . S
H2902 C2923 0.950 . S
H2903 C2926 0.950 . S
H2904 C2927 0.950 . S
H2905 C2929 0.950 . S
H2906 C2930 0.950 . S
H2907 C2931 0.951 . S
H2908 C2933 0.951 . S
H2909 C2935 0.950 . S
H2910 C2936 0.950 . S
H2911 C2938 0.950 . S
H2912 C2941 0.950 . S
H2913 C2942 0.950 . S
H2914 C2944 0.950 . S
H2915 C2945 0.950 . S
C2916 H2898 0.951 . S
C2916 C2917 1.366 . S
C2916 C2918 1.388 . S
C2917 C2916 1.366 . S
C2917 C2921 1.385 . S
C2918 H2899 0.951 . S
C2918 C2916 1.388 . S
C2918 C2919 1.366 . S
C2919 C2918 1.366 . S
C2919 C2920 1.414 . S
C2919 C2922 1.499 . S
C2920 H2900 0.950 . S
C2920 C2919 1.414 . S
C2920 C2921 1.374 . S
C2921 H2901 0.950 . S
C2921 C2917 1.385 . S
C2921 C2920 1.374 . S
C2922 C2919 1.499 . S
C2922 C2923 1.373 . S
C2922 C2924 1.389 . S
C2923 H2902 0.950 . S
C2923 C2922 1.373 . S
C2923 C2939 1.377 . S
C2924 C2922 1.389 . S
C2924 C2925 1.524 . S
C2924 C2938 1.377 . S
C2925 C2924 1.524 . S
C2925 C2926 1.397 . S
C2925 C2930 1.363 . S
C2926 H2903 0.950 . S
C2926 C2925 1.397 . S
C2926 C2927 1.334 . S
C2927 H2904 0.950 . S
C2927 C2926 1.334 . S
C2927 C2928 1.287 . S
C2928 C2927 1.287 . S
C2928 C2929 1.524 . S
C2928 H2947 0.913 . S
C2929 H2905 0.950 . S
C2929 C2928 1.524 . S
C2929 C2930 1.415 . S
C2930 H2906 0.950 . S
C2930 C2925 1.363 . S
C2930 C2929 1.415 . S
C2931 H2907 0.951 . S
C2931 C2932 1.366 . S
C2931 C2933 1.388 . S
C2932 C2931 1.366 . S
C2932 C2936 1.385 . S
C2933 H2908 0.951 . S
C2933 C2931 1.388 . S
C2933 C2934 1.366 . S
C2934 C2933 1.366 . S
C2934 C2935 1.414 . S
C2934 C2937 1.499 . S
C2935 H2909 0.950 . S
C2935 C2934 1.414 . S
C2935 C2936 1.374 . S
C2936 H2910 0.950 . S
C2936 C2932 1.385 . S
C2936 C2935 1.374 . S
C2937 C2934 1.499 . S
C2937 C2938 1.373 . S
C2937 C2939 1.389 . S
C2938 H2911 0.950 . S
C2938 C2924 1.377 . S
C2938 C2937 1.373 . S
C2939 C2923 1.377 . S
C2939 C2937 1.389 . S
C2939 C2940 1.524 . S
C2940 C2939 1.524 . S
C2940 C2941 1.397 . S
C2940 C2945 1.363 . S
C2941 H2912 0.950 . S
C2941 C2940 1.397 . S
C2941 C2942 1.334 . S
C2942 H2913 0.950 . S
C2942 C2941 1.334 . S
C2942 C2943 1.287 . S
C2943 C2942 1.287 . S
C2943 C2944 1.524 . S
C2943 H2946 0.999 . S
C2944 H2914 0.950 . S
C2944 C2943 1.524 . S
C2944 C2945 1.415 . S
C2945 H2915 0.950 . S
C2945 C2940 1.363 . S
C2945 C2944 1.415 . S
H2946 C2943 0.999 . S
H2947 C2928 0.913 . S
H2948 C2966 0.951 . S
H2949 C2968 0.951 . S
H2950 C2970 0.950 . S
H2951 C2971 0.950 . S
H2952 C2973 0.950 . S
H2953 C2976 0.950 . S
H2954 C2977 0.950 . S
H2955 C2979 0.950 . S
H2956 C2980 0.950 . S
H2957 C2981 0.951 . S
H2958 C2983 0.951 . S
H2959 C2985 0.950 . S
H2960 C2986 0.950 . S
H2961 C2988 0.950 . S
H2962 C2991 0.950 . S
H2963 C2992 0.950 . S
H2964 C2994 0.950 . S
H2965 C2995 0.950 . S
C2966 H2948 0.951 . S
C2966 C2967 1.366 . S
C2966 C2968 1.388 . S
C2967 C2966 1.366 . S
C2967 C2971 1.385 . S
C2968 H2949 0.951 . S
C2968 C2966 1.388 . S
C2968 C2969 1.366 . S
C2969 C2968 1.366 . S
C2969 C2970 1.414 . S
C2969 C2972 1.499 . S
C2970 H2950 0.950 . S
C2970 C2969 1.414 . S
C2970 C2971 1.374 . S
C2971 H2951 0.950 . S
C2971 C2967 1.385 . S
C2971 C2970 1.374 . S
C2972 C2969 1.499 . S
C2972 C2973 1.373 . S
C2972 C2974 1.389 . S
C2973 H2952 0.950 . S
C2973 C2972 1.373 . S
C2973 C2989 1.377 1_655 S
C2974 C2972 1.389 . S
C2974 C2975 1.524 . S
C2974 C2988 1.377 1_655 S
C2975 C2974 1.524 . S
C2975 C2976 1.397 . S
C2975 C2980 1.363 . S
C2976 H2953 0.950 . S
C2976 C2975 1.397 . S
C2976 C2977 1.334 . S
C2977 H2954 0.950 . S
C2977 C2976 1.334 . S
C2977 C2978 1.287 . S
C2978 C2977 1.287 . S
C2978 C2979 1.524 . S
C2978 H2997 0.913 . S
C2979 H2955 0.950 . S
C2979 C2978 1.524 . S
C2979 C2980 1.415 . S
C2980 H2956 0.950 . S
C2980 C2975 1.363 . S
C2980 C2979 1.415 . S
C2981 H2957 0.951 . S
C2981 C2982 1.366 . S
C2981 C2983 1.388 . S
C2982 C2981 1.366 . S
C2982 C2986 1.385 . S
C2983 H2958 0.951 . S
C2983 C2981 1.388 . S
C2983 C2984 1.366 . S
C2984 C2983 1.366 . S
C2984 C2985 1.414 . S
C2984 C2987 1.499 . S
C2985 H2959 0.950 . S
C2985 C2984 1.414 . S
C2985 C2986 1.374 . S
C2986 H2960 0.950 . S
C2986 C2982 1.385 . S
C2986 C2985 1.374 . S
C2987 C2984 1.499 . S
C2987 C2988 1.373 . S
C2987 C2989 1.389 . S
C2988 H2961 0.950 . S
C2988 C2974 1.377 1_455 S
C2988 C2987 1.373 . S
C2989 C2973 1.377 1_455 S
C2989 C2987 1.389 . S
C2989 C2990 1.524 . S
C2990 C2989 1.524 . S
C2990 C2991 1.397 . S
C2990 C2995 1.363 . S
C2991 H2962 0.950 . S
C2991 C2990 1.397 . S
C2991 C2992 1.334 . S
C2992 H2963 0.950 . S
C2992 C2991 1.334 . S
C2992 C2993 1.287 . S
C2993 C2992 1.287 . S
C2993 C2994 1.524 . S
C2993 H2996 0.999 . S
C2994 H2964 0.950 . S
C2994 C2993 1.524 . S
C2994 C2995 1.415 . S
C2995 H2965 0.950 . S
C2995 C2990 1.363 . S
C2995 C2994 1.415 . S
H2996 C2993 0.999 . S
H2997 C2978 0.913 . S
H2998 C3016 0.951 . S
H2999 C3018 0.951 . S
H3000 C3020 0.950 . S
H3001 C3021 0.950 . S
H3002 C3023 0.950 . S
H3003 C3026 0.950 . S
H3004 C3027 0.950 . S
H3005 C3029 0.950 . S
H3006 C3030 0.950 . S
H3007 C3031 0.951 . S
H3008 C3033 0.951 . S
H3009 C3035 0.950 . S
H3010 C3036 0.950 . S
H3011 C3038 0.950 . S
H3012 C3041 0.950 . S
H3013 C3042 0.950 . S
H3014 C3044 0.950 . S
H3015 C3045 0.950 . S
C3016 H2998 0.951 . S
C3016 C3017 1.366 . S
C3016 C3018 1.388 . S
C3017 C3016 1.366 . S
C3017 C3021 1.385 . S
C3018 H2999 0.951 . S
C3018 C3016 1.388 . S
C3018 C3019 1.366 . S
C3019 C3018 1.366 . S
C3019 C3020 1.414 . S
C3019 C3022 1.499 . S
C3020 H3000 0.950 . S
C3020 C3019 1.414 . S
C3020 C3021 1.374 . S
C3021 H3001 0.950 . S
C3021 C3017 1.385 . S
C3021 C3020 1.374 . S
C3022 C3019 1.499 . S
C3022 C3023 1.373 . S
C3022 C3024 1.389 . S
C3023 H3002 0.950 . S
C3023 C3022 1.373 . S
C3023 C3039 1.377 . S
C3024 C3022 1.389 . S
C3024 C3025 1.524 . S
C3024 C3038 1.377 . S
C3025 C3024 1.524 . S
C3025 C3026 1.397 . S
C3025 C3030 1.363 . S
C3026 H3003 0.950 . S
C3026 C3025 1.397 . S
C3026 C3027 1.334 . S
C3027 H3004 0.950 . S
C3027 C3026 1.334 . S
C3027 C3028 1.287 . S
C3028 C3027 1.287 . S
C3028 C3029 1.524 . S
C3028 H3047 0.913 . S
C3029 H3005 0.950 . S
C3029 C3028 1.524 . S
C3029 C3030 1.415 . S
C3030 H3006 0.950 . S
C3030 C3025 1.363 . S
C3030 C3029 1.415 . S
C3031 H3007 0.951 . S
C3031 C3032 1.366 . S
C3031 C3033 1.388 . S
C3032 C3031 1.366 . S
C3032 C3036 1.385 . S
C3033 H3008 0.951 . S
C3033 C3031 1.388 . S
C3033 C3034 1.366 . S
C3034 C3033 1.366 . S
C3034 C3035 1.414 . S
C3034 C3037 1.499 . S
C3035 H3009 0.950 . S
C3035 C3034 1.414 . S
C3035 C3036 1.374 . S
C3036 H3010 0.950 . S
C3036 C3032 1.385 . S
C3036 C3035 1.374 . S
C3037 C3034 1.499 . S
C3037 C3038 1.373 . S
C3037 C3039 1.389 . S
C3038 H3011 0.950 . S
C3038 C3024 1.377 . S
C3038 C3037 1.373 . S
C3039 C3023 1.377 . S
C3039 C3037 1.389 . S
C3039 C3040 1.524 . S
C3040 C3039 1.524 . S
C3040 C3041 1.397 . S
C3040 C3045 1.363 . S
C3041 H3012 0.950 . S
C3041 C3040 1.397 . S
C3041 C3042 1.334 . S
C3042 H3013 0.950 . S
C3042 C3041 1.334 . S
C3042 C3043 1.287 . S
C3043 C3042 1.287 . S
C3043 C3044 1.524 . S
C3043 H3046 0.999 . S
C3044 H3014 0.950 . S
C3044 C3043 1.524 . S
C3044 C3045 1.415 . S
C3045 H3015 0.950 . S
C3045 C3040 1.363 . S
C3045 C3044 1.415 . S
H3046 C3043 0.999 . S
H3047 C3028 0.913 . S
H3048 C3066 0.951 . S
H3049 C3068 0.951 . S
H3050 C3070 0.950 . S
H3051 C3071 0.950 . S
H3052 C3073 0.950 . S
H3053 C3076 0.950 . S
H3054 C3077 0.950 . S
H3055 C3079 0.950 . S
H3056 C3080 0.950 . S
H3057 C3081 0.951 . S
H3058 C3083 0.951 . S
H3059 C3085 0.950 . S
H3060 C3086 0.950 . S
H3061 C3088 0.950 . S
H3062 C3091 0.950 . S
H3063 C3092 0.950 . S
H3064 C3094 0.950 . S
H3065 C3095 0.950 . S
C3066 H3048 0.951 . S
C3066 C3067 1.366 . S
C3066 C3068 1.388 . S
C3067 C3066 1.366 . S
C3067 C3071 1.385 . S
C3068 H3049 0.951 . S
C3068 C3066 1.388 . S
C3068 C3069 1.366 . S
C3069 C3068 1.366 . S
C3069 C3070 1.414 . S
C3069 C3072 1.499 . S
C3070 H3050 0.950 . S
C3070 C3069 1.414 . S
C3070 C3071 1.374 . S
C3071 H3051 0.950 . S
C3071 C3067 1.385 . S
C3071 C3070 1.374 . S
C3072 C3069 1.499 . S
C3072 C3073 1.373 . S
C3072 C3074 1.389 . S
C3073 H3052 0.950 . S
C3073 C3072 1.373 . S
C3073 C3089 1.377 . S
C3074 C3072 1.389 . S
C3074 C3075 1.524 . S
C3074 C3088 1.377 . S
C3075 C3074 1.524 . S
C3075 C3076 1.397 . S
C3075 C3080 1.363 . S
C3076 H3053 0.950 . S
C3076 C3075 1.397 . S
C3076 C3077 1.334 . S
C3077 H3054 0.950 . S
C3077 C3076 1.334 . S
C3077 C3078 1.287 . S
C3078 C3077 1.287 . S
C3078 C3079 1.524 . S
C3078 H3097 0.913 . S
C3079 H3055 0.950 . S
C3079 C3078 1.524 . S
C3079 C3080 1.415 . S
C3080 H3056 0.950 . S
C3080 C3075 1.363 . S
C3080 C3079 1.415 . S
C3081 H3057 0.951 . S
C3081 C3082 1.366 . S
C3081 C3083 1.388 . S
C3082 C3081 1.366 . S
C3082 C3086 1.385 . S
C3083 H3058 0.951 . S
C3083 C3081 1.388 . S
C3083 C3084 1.366 . S
C3084 C3083 1.366 . S
C3084 C3085 1.414 . S
C3084 C3087 1.499 . S
C3085 H3059 0.950 . S
C3085 C3084 1.414 . S
C3085 C3086 1.374 . S
C3086 H3060 0.950 . S
C3086 C3082 1.385 . S
C3086 C3085 1.374 . S
C3087 C3084 1.499 . S
C3087 C3088 1.373 . S
C3087 C3089 1.389 . S
C3088 H3061 0.950 . S
C3088 C3074 1.377 . S
C3088 C3087 1.373 . S
C3089 C3073 1.377 . S
C3089 C3087 1.389 . S
C3089 C3090 1.524 . S
C3090 C3089 1.524 . S
C3090 C3091 1.397 . S
C3090 C3095 1.363 . S
C3091 H3062 0.950 . S
C3091 C3090 1.397 . S
C3091 C3092 1.334 . S
C3092 H3063 0.950 . S
C3092 C3091 1.334 . S
C3092 C3093 1.287 . S
C3093 C3092 1.287 . S
C3093 C3094 1.524 . S
C3093 H3096 0.999 . S
C3094 H3064 0.950 . S
C3094 C3093 1.524 . S
C3094 C3095 1.415 . S
C3095 H3065 0.950 . S
C3095 C3090 1.363 . S
C3095 C3094 1.415 . S
H3096 C3093 0.999 . S
H3097 C3078 0.913 . S
H3098 C3116 0.951 . S
H3099 C3118 0.951 . S
H3100 C3120 0.950 . S
H3101 C3121 0.950 . S
H3102 C3123 0.950 . S
H3103 C3126 0.950 . S
H3104 C3127 0.950 . S
H3105 C3129 0.950 . S
H3106 C3130 0.950 . S
H3107 C3131 0.951 . S
H3108 C3133 0.951 . S
H3109 C3135 0.950 . S
H3110 C3136 0.950 . S
H3111 C3138 0.950 . S
H3112 C3141 0.950 . S
H3113 C3142 0.950 . S
H3114 C3144 0.950 . S
H3115 C3145 0.950 . S
C3116 H3098 0.951 . S
C3116 C3117 1.366 . S
C3116 C3118 1.388 . S
C3117 C3116 1.366 . S
C3117 C3121 1.385 . S
C3118 H3099 0.951 . S
C3118 C3116 1.388 . S
C3118 C3119 1.366 . S
C3119 C3118 1.366 . S
C3119 C3120 1.414 . S
C3119 C3122 1.499 . S
C3120 H3100 0.950 . S
C3120 C3119 1.414 . S
C3120 C3121 1.374 . S
C3121 H3101 0.950 . S
C3121 C3117 1.385 . S
C3121 C3120 1.374 . S
C3122 C3119 1.499 . S
C3122 C3123 1.373 . S
C3122 C3124 1.389 . S
C3123 H3102 0.950 . S
C3123 C3122 1.373 . S
C3123 C3139 1.377 . S
C3124 C3122 1.389 . S
C3124 C3125 1.524 . S
C3124 C3138 1.377 . S
C3125 C3124 1.524 . S
C3125 C3126 1.397 . S
C3125 C3130 1.363 . S
C3126 H3103 0.950 . S
C3126 C3125 1.397 . S
C3126 C3127 1.334 . S
C3127 H3104 0.950 . S
C3127 C3126 1.334 . S
C3127 C3128 1.287 . S
C3128 C3127 1.287 . S
C3128 C3129 1.524 . S
C3128 H3147 0.913 . S
C3129 H3105 0.950 . S
C3129 C3128 1.524 . S
C3129 C3130 1.415 . S
C3130 H3106 0.950 . S
C3130 C3125 1.363 . S
C3130 C3129 1.415 . S
C3131 H3107 0.951 . S
C3131 C3132 1.366 . S
C3131 C3133 1.388 . S
C3132 C3131 1.366 . S
C3132 C3136 1.385 . S
C3133 H3108 0.951 . S
C3133 C3131 1.388 . S
C3133 C3134 1.366 . S
C3134 C3133 1.366 . S
C3134 C3135 1.414 . S
C3134 C3137 1.499 1_556 S
C3135 H3109 0.950 . S
C3135 C3134 1.414 . S
C3135 C3136 1.374 . S
C3136 H3110 0.950 . S
C3136 C3132 1.385 . S
C3136 C3135 1.374 . S
C3137 C3134 1.499 1_554 S
C3137 C3138 1.373 . S
C3137 C3139 1.389 . S
C3138 H3111 0.950 . S
C3138 C3124 1.377 . S
C3138 C3137 1.373 . S
C3139 C3123 1.377 . S
C3139 C3137 1.389 . S
C3139 C3140 1.524 1_554 S
C3140 C3139 1.524 1_556 S
C3140 C3141 1.397 . S
C3140 C3145 1.363 . S
C3141 H3112 0.950 . S
C3141 C3140 1.397 . S
C3141 C3142 1.334 . S
C3142 H3113 0.950 . S
C3142 C3141 1.334 . S
C3142 C3143 1.287 . S
C3143 C3142 1.287 . S
C3143 C3144 1.524 . S
C3143 H3146 0.999 . S
C3144 H3114 0.950 . S
C3144 C3143 1.524 . S
C3144 C3145 1.415 . S
C3145 H3115 0.950 . S
C3145 C3140 1.363 . S
C3145 C3144 1.415 . S
H3146 C3143 0.999 . S
H3147 C3128 0.913 . S
H3148 C3166 0.951 . S
H3149 C3168 0.951 . S
H3150 C3170 0.950 . S
H3151 C3171 0.950 . S
H3152 C3173 0.950 . S
H3153 C3176 0.919 1_655 S
H3154 C3177 0.950 . S
H3155 C3179 0.950 . S
H3156 C3180 0.950 . S
H3157 C3181 0.951 . S
H3158 C3183 0.951 . S
H3159 C3185 0.950 . S
H3160 C3186 0.950 . S
H3161 C3188 0.950 . S
H3162 C3191 0.950 . S
H3163 C3192 0.950 . S
H3164 C3194 0.950 . S
H3165 C3195 0.950 . S
C3166 H3148 0.951 . S
C3166 C3167 1.366 1_455 S
C3166 C3168 1.388 1_455 S
C3167 C3166 1.366 1_655 S
C3167 C3171 1.385 . S
C3168 H3149 0.951 . S
C3168 C3166 1.388 1_655 S
C3168 C3169 1.366 . S
C3169 C3168 1.366 . S
C3169 C3170 1.414 . S
C3169 C3172 1.499 . S
C3170 H3150 0.950 . S
C3170 C3169 1.414 . S
C3170 C3171 1.374 . S
C3171 H3151 0.950 . S
C3171 C3167 1.385 . S
C3171 C3170 1.374 . S
C3172 C3169 1.499 . S
C3172 C3173 1.373 . S
C3172 C3174 1.389 . S
C3173 H3152 0.950 . S
C3173 C3172 1.373 . S
C3173 C3189 1.377 . S
C3174 C3172 1.389 . S
C3174 C3175 1.524 . S
C3174 C3188 1.377 . S
C3175 C3174 1.524 . S
C3175 C3176 1.390 1_655 S
C3175 C3180 1.363 1_655 S
C3176 H3153 0.919 1_455 S
C3176 C3175 1.390 1_455 S
C3176 C3177 1.372 . S
C3177 H3154 0.950 . S
C3177 C3176 1.372 . S
C3177 C3178 1.287 . S
C3178 C3177 1.287 . S
C3178 C3179 1.524 . S
C3178 H3197 0.913 . S
C3179 H3155 0.950 . S
C3179 C3178 1.524 . S
C3179 C3180 1.415 . S
C3180 H3156 0.950 . S
C3180 C3175 1.363 1_455 S
C3180 C3179 1.415 . S
C3181 H3157 0.951 . S
C3181 C3182 1.366 . S
C3181 C3183 1.388 . S
C3182 C3181 1.366 . S
C3182 C3186 1.385 . S
C3183 H3158 0.951 . S
C3183 C3181 1.388 . S
C3183 C3184 1.366 . S
C3184 C3183 1.366 . S
C3184 C3185 1.414 . S
C3184 C3187 1.499 . S
C3185 H3159 0.950 . S
C3185 C3184 1.414 . S
C3185 C3186 1.374 . S
C3186 H3160 0.950 . S
C3186 C3182 1.385 . S
C3186 C3185 1.374 . S
C3187 C3184 1.499 . S
C3187 C3188 1.373 . S
C3187 C3189 1.389 . S
C3188 H3161 0.950 . S
C3188 C3174 1.377 . S
C3188 C3187 1.373 . S
C3189 C3173 1.377 . S
C3189 C3187 1.389 . S
C3189 C3190 1.524 . S
C3190 C3189 1.524 . S
C3190 C3191 1.397 . S
C3190 C3195 1.363 . S
C3191 H3162 0.950 . S
C3191 C3190 1.397 . S
C3191 C3192 1.334 . S
C3192 H3163 0.950 . S
C3192 C3191 1.334 . S
C3192 C3193 1.287 . S
C3193 C3192 1.287 . S
C3193 C3194 1.524 . S
C3193 H3196 0.999 . S
C3194 H3164 0.950 . S
C3194 C3193 1.524 . S
C3194 C3195 1.415 . S
C3195 H3165 0.950 . S
C3195 C3190 1.363 . S
C3195 C3194 1.415 . S
H3196 C3193 0.999 . S
H3197 C3178 0.913 . S
H3198 C3216 0.951 . S
H3199 C3218 0.951 . S
H3200 C3220 0.950 . S
H3201 C3221 0.950 . S
H3202 C3223 0.950 . S
H3203 C3226 0.950 . S
H3204 C3227 0.950 . S
H3205 C3229 0.950 . S
H3206 C3230 0.950 . S
H3207 C3231 0.951 . S
H3208 C3233 0.951 . S
H3209 C3235 0.950 . S
H3210 C3236 0.950 . S
H3211 C3238 0.950 . S
H3212 C3241 0.950 . S
H3213 C3242 0.956 . S
H3214 C3244 0.950 . S
H3215 C3245 0.950 . S
C3216 H3198 0.951 . S
C3216 C3217 1.366 . S
C3216 C3218 1.388 . S
C3217 C3216 1.366 . S
C3217 C3221 1.385 . S
C3218 H3199 0.951 . S
C3218 C3216 1.388 . S
C3218 C3219 1.366 . S
C3219 C3218 1.366 . S
C3219 C3220 1.414 . S
C3219 C3222 1.499 . S
C3220 H3200 0.950 . S
C3220 C3219 1.414 . S
C3220 C3221 1.374 . S
C3221 H3201 0.950 . S
C3221 C3217 1.385 . S
C3221 C3220 1.374 . S
C3222 C3219 1.499 . S
C3222 C3223 1.373 . S
C3222 C3224 1.389 . S
C3223 H3202 0.950 . S
C3223 C3222 1.373 . S
C3223 C3239 1.377 . S
C3224 C3222 1.389 . S
C3224 C3225 1.524 . S
C3224 C3238 1.377 . S
C3225 C3224 1.524 . S
C3225 C3226 1.397 . S
C3225 C3230 1.363 . S
C3226 H3203 0.950 . S
C3226 C3225 1.397 . S
C3226 C3227 1.334 . S
C3227 H3204 0.950 . S
C3227 C3226 1.334 . S
C3227 C3228 1.287 . S
C3228 C3227 1.287 . S
C3228 C3229 1.524 . S
C3228 H3247 0.913 . S
C3229 H3205 0.950 . S
C3229 C3228 1.524 . S
C3229 C3230 1.415 . S
C3230 H3206 0.950 . S
C3230 C3225 1.363 . S
C3230 C3229 1.415 . S
C3231 H3207 0.951 . S
C3231 C3232 1.366 . S
C3231 C3233 1.388 . S
C3232 C3231 1.366 . S
C3232 C3236 1.385 . S
C3233 H3208 0.951 . S
C3233 C3231 1.388 . S
C3233 C3234 1.366 . S
C3234 C3233 1.366 . S
C3234 C3235 1.414 . S
C3234 C3237 1.499 . S
C3235 H3209 0.950 . S
C3235 C3234 1.414 . S
C3235 C3236 1.374 . S
C3236 H3210 0.950 . S
C3236 C3232 1.385 . S
C3236 C3235 1.374 . S
C3237 C3234 1.499 . S
C3237 C3238 1.373 . S
C3237 C3239 1.389 . S
C3238 H3211 0.950 . S
C3238 C3224 1.377 . S
C3238 C3237 1.373 . S
C3239 C3223 1.377 . S
C3239 C3237 1.389 . S
C3239 C3240 1.524 . S
C3240 C3239 1.524 . S
C3240 C3241 1.397 . S
C3240 C3245 1.363 . S
C3241 H3212 0.950 . S
C3241 C3240 1.397 . S
C3241 C3242 1.334 . S
C3242 H3213 0.956 . S
C3242 C3241 1.334 . S
C3242 C3243 1.287 1_655 S
C3243 C3242 1.287 1_455 S
C3243 C3244 1.524 . S
C3243 H3246 0.999 . S
C3244 H3214 0.950 . S
C3244 C3243 1.524 . S
C3244 C3245 1.415 1_455 S
C3245 H3215 0.950 . S
C3245 C3240 1.363 . S
C3245 C3244 1.415 1_655 S
H3246 C3243 0.999 . S
H3247 C3228 0.913 . S
H3248 C3266 0.951 . S
H3249 C3268 0.951 . S
H3250 C3270 0.950 . S
H3251 C3271 0.950 . S
H3252 C3273 0.950 . S
H3253 C3276 0.950 . S
H3254 C3277 0.950 . S
H3255 C3279 0.950 . S
H3256 C3280 0.950 . S
H3257 C3281 0.951 . S
H3258 C3283 0.951 . S
H3259 C3285 0.950 . S
H3260 C3286 0.950 . S
H3261 C3288 0.950 . S
H3262 C3291 0.950 . S
H3263 C3292 0.950 . S
H3264 C3294 0.950 . S
H3265 C3295 0.950 . S
C3266 H3248 0.951 . S
C3266 C3267 1.366 . S
C3266 C3268 1.388 . S
C3267 C3266 1.366 . S
C3267 C3271 1.385 . S
C3268 H3249 0.951 . S
C3268 C3266 1.388 . S
C3268 C3269 1.366 . S
C3269 C3268 1.366 . S
C3269 C3270 1.414 . S
C3269 C3272 1.499 . S
C3270 H3250 0.950 . S
C3270 C3269 1.414 . S
C3270 C3271 1.374 . S
C3271 H3251 0.950 . S
C3271 C3267 1.385 . S
C3271 C3270 1.374 . S
C3272 C3269 1.499 . S
C3272 C3273 1.373 . S
C3272 C3274 1.389 . S
C3273 H3252 0.950 . S
C3273 C3272 1.373 . S
C3273 C3289 1.377 . S
C3274 C3272 1.389 . S
C3274 C3275 1.524 . S
C3274 C3288 1.377 . S
C3275 C3274 1.524 . S
C3275 C3276 1.397 . S
C3275 C3280 1.363 . S
C3276 H3253 0.950 . S
C3276 C3275 1.397 . S
C3276 C3277 1.334 . S
C3277 H3254 0.950 . S
C3277 C3276 1.334 . S
C3277 C3278 1.287 . S
C3278 C3277 1.287 . S
C3278 C3279 1.524 . S
C3278 H3297 0.913 . S
C3279 H3255 0.950 . S
C3279 C3278 1.524 . S
C3279 C3280 1.415 . S
C3280 H3256 0.950 . S
C3280 C3275 1.363 . S
C3280 C3279 1.415 . S
C3281 H3257 0.951 . S
C3281 C3282 1.366 . S
C3281 C3283 1.388 . S
C3282 C3281 1.366 . S
C3282 C3286 1.385 . S
C3283 H3258 0.951 . S
C3283 C3281 1.388 . S
C3283 C3284 1.366 . S
C3284 C3283 1.366 . S
C3284 C3285 1.414 . S
C3284 C3287 1.499 . S
C3285 H3259 0.950 . S
C3285 C3284 1.414 . S
C3285 C3286 1.374 . S
C3286 H3260 0.950 . S
C3286 C3282 1.385 . S
C3286 C3285 1.374 . S
C3287 C3284 1.499 . S
C3287 C3288 1.373 . S
C3287 C3289 1.389 . S
C3288 H3261 0.950 . S
C3288 C3274 1.377 . S
C3288 C3287 1.373 . S
C3289 C3273 1.377 . S
C3289 C3287 1.389 . S
C3289 C3290 1.524 . S
C3290 C3289 1.524 . S
C3290 C3291 1.397 . S
C3290 C3295 1.363 . S
C3291 H3262 0.950 . S
C3291 C3290 1.397 . S
C3291 C3292 1.334 . S
C3292 H3263 0.950 . S
C3292 C3291 1.334 . S
C3292 C3293 1.287 . S
C3293 C3292 1.287 . S
C3293 C3294 1.524 . S
C3293 H3296 0.999 . S
C3294 H3264 0.950 . S
C3294 C3293 1.524 . S
C3294 C3295 1.415 . S
C3295 H3265 0.950 . S
C3295 C3290 1.363 . S
C3295 C3294 1.415 . S
H3296 C3293 0.999 . S
H3297 C3278 0.913 . S
H3298 C3316 0.951 . S
H3299 C3318 0.951 . S
H3300 C3320 0.950 . S
H3301 C3321 0.950 . S
H3302 C3323 0.950 . S
H3303 C3326 0.950 . S
H3304 C3327 0.955 . S
H3305 C3329 0.950 . S
H3306 C3330 0.950 . S
H3307 C3331 0.951 . S
H3308 C3333 0.951 . S
H3309 C3335 0.950 . S
H3310 C3336 0.950 . S
H3311 C3338 0.950 . S
H3312 C3341 0.950 . S
H3313 C3342 0.950 . S
H3314 C3344 0.950 . S
H3315 C3345 0.955 . S
C3316 H3298 0.951 . S
C3316 C3317 1.366 1_455 S
C3316 C3318 1.388 . S
C3317 C3316 1.366 1_655 S
C3317 C3321 1.385 . S
C3318 H3299 0.951 . S
C3318 C3316 1.388 . S
C3318 C3319 1.366 1_455 S
C3319 C3318 1.366 1_655 S
C3319 C3320 1.414 . S
C3319 C3322 1.499 . S
C3320 H3300 0.950 . S
C3320 C3319 1.414 . S
C3320 C3321 1.374 . S
C3321 H3301 0.950 . S
C3321 C3317 1.385 . S
C3321 C3320 1.374 . S
C3322 C3319 1.499 . S
C3322 C3323 1.373 . S
C3322 C3324 1.389 1_556 S
C3323 H3302 0.950 . S
C3323 C3322 1.373 . S
C3323 C3339 1.377 1_556 S
C3324 C3322 1.389 1_554 S
C3324 C3325 1.524 . S
C3324 C3338 1.377 . S
C3325 C3324 1.524 . S
C3325 C3326 1.397 . S
C3325 C3330 1.363 1_655 S
C3326 H3303 0.950 . S
C3326 C3325 1.397 . S
C3326 C3327 1.346 . S
C3327 H3304 0.955 . S
C3327 C3326 1.346 . S
C3327 C3328 1.270 1_655 S
C3328 C3327 1.270 1_455 S
C3328 C3329 1.524 . S
C3328 H3347 0.913 . S
C3329 H3305 0.950 . S
C3329 C3328 1.524 . S
C3329 C3330 1.415 . S
C3330 H3306 0.950 . S
C3330 C3325 1.363 1_455 S
C3330 C3329 1.415 . S
C3331 H3307 0.951 . S
C3331 C3332 1.366 . S
C3331 C3333 1.388 . S
C3332 C3331 1.366 . S
C3332 C3336 1.385 . S
C3333 H3308 0.951 . S
C3333 C3331 1.388 . S
C3333 C3334 1.366 . S
C3334 C3333 1.366 . S
C3334 C3335 1.414 . S
C3334 C3337 1.499 . S
C3335 H3309 0.950 . S
C3335 C3334 1.414 . S
C3335 C3336 1.374 . S
C3336 H3310 0.950 . S
C3336 C3332 1.385 . S
C3336 C3335 1.374 . S
C3337 C3334 1.499 . S
C3337 C3338 1.373 . S
C3337 C3339 1.389 . S
C3338 H3311 0.950 . S
C3338 C3324 1.377 . S
C3338 C3337 1.373 . S
C3339 C3323 1.377 1_554 S
C3339 C3337 1.389 . S
C3339 C3340 1.524 . S
C3340 C3339 1.524 . S
C3340 C3341 1.397 . S
C3340 C3345 1.356 1_554 S
C3341 H3312 0.950 . S
C3341 C3340 1.397 . S
C3341 C3342 1.334 . S
C3342 H3313 0.950 . S
C3342 C3341 1.334 . S
C3342 C3343 1.287 . S
C3343 C3342 1.287 . S
C3343 C3344 1.524 1_554 S
C3343 H3346 0.999 . S
C3344 H3314 0.950 . S
C3344 C3343 1.524 1_556 S
C3344 C3345 1.417 . S
C3345 H3315 0.955 . S
C3345 C3340 1.356 1_556 S
C3345 C3344 1.417 . S
H3346 C3343 0.999 . S
H3347 C3328 0.913 . S
H3348 C3366 0.951 . S
H3349 C3368 0.951 . S
H3350 C3370 0.950 . S
H3351 C3371 0.950 . S
H3352 C3373 0.950 . S
H3353 C3376 0.967 . S
H3354 C3377 0.950 . S
H3355 C3379 0.950 . S
H3356 C3380 0.950 . S
H3357 C3381 0.951 . S
H3358 C3383 0.951 . S
H3359 C3385 0.950 . S
H3360 C3386 0.950 . S
H3361 C3388 0.950 . S
H3362 C3391 0.950 . S
H3363 C3392 0.950 . S
H3364 C3394 0.950 . S
H3365 C3395 0.950 . S
C3366 H3348 0.951 . S
C3366 C3367 1.366 . S
C3366 C3368 1.388 . S
C3367 C3366 1.366 . S
C3367 C3371 1.385 . S
C3368 H3349 0.951 . S
C3368 C3366 1.388 . S
C3368 C3369 1.366 . S
C3369 C3368 1.366 . S
C3369 C3370 1.414 . S
C3369 C3372 1.499 . S
C3370 H3350 0.950 . S
C3370 C3369 1.414 . S
C3370 C3371 1.374 . S
C3371 H3351 0.950 . S
C3371 C3367 1.385 . S
C3371 C3370 1.374 . S
C3372 C3369 1.499 . S
C3372 C3373 1.373 . S
C3372 C3374 1.389 . S
C3373 H3352 0.950 . S
C3373 C3372 1.373 . S
C3373 C3389 1.377 . S
C3374 C3372 1.389 . S
C3374 C3375 1.524 . S
C3374 C3388 1.377 . S
C3375 C3374 1.524 . S
C3375 C3376 1.425 . S
C3375 C3380 1.363 . S
C3376 H3353 0.967 . S
C3376 C3375 1.425 . S
C3376 C3377 1.291 1_655 S
C3377 H3354 0.950 . S
C3377 C3376 1.291 1_455 S
C3377 C3378 1.287 . S
C3378 C3377 1.287 . S
C3378 C3379 1.524 . S
C3378 H3397 0.913 . S
C3379 H3355 0.950 . S
C3379 C3378 1.524 . S
C3379 C3380 1.415 1_455 S
C3380 H3356 0.950 . S
C3380 C3375 1.363 . S
C3380 C3379 1.415 1_655 S
C3381 H3357 0.951 . S
C3381 C3382 1.366 . S
C3381 C3383 1.388 . S
C3382 C3381 1.366 . S
C3382 C3386 1.385 . S
C3383 H3358 0.951 . S
C3383 C3381 1.388 . S
C3383 C3384 1.366 . S
C3384 C3383 1.366 . S
C3384 C3385 1.414 . S
C3384 C3387 1.499 . S
C3385 H3359 0.950 . S
C3385 C3384 1.414 . S
C3385 C3386 1.374 . S
C3386 H3360 0.950 . S
C3386 C3382 1.385 . S
C3386 C3385 1.374 . S
C3387 C3384 1.499 . S
C3387 C3388 1.373 . S
C3387 C3389 1.389 . S
C3388 H3361 0.950 . S
C3388 C3374 1.377 . S
C3388 C3387 1.373 . S
C3389 C3373 1.377 . S
C3389 C3387 1.389 . S
C3389 C3390 1.524 . S
C3390 C3389 1.524 . S
C3390 C3391 1.397 . S
C3390 C3395 1.363 . S
C3391 H3362 0.950 . S
C3391 C3390 1.397 . S
C3391 C3392 1.334 . S
C3392 H3363 0.950 . S
C3392 C3391 1.334 . S
C3392 C3393 1.287 . S
C3393 C3392 1.287 . S
C3393 C3394 1.524 . S
C3393 H3396 0.999 . S
C3394 H3364 0.950 . S
C3394 C3393 1.524 . S
C3394 C3395 1.415 . S
C3395 H3365 0.950 . S
C3395 C3390 1.363 . S
C3395 C3394 1.415 . S
H3396 C3393 0.999 . S
H3397 C3378 0.913 . S
H3398 C3416 0.951 . S
H3399 C3418 0.951 . S
H3400 C3420 0.950 . S
H3401 C3421 0.950 . S
H3402 C3423 0.950 . S
H3403 C3426 0.950 . S
H3404 C3427 0.950 . S
H3405 C3429 0.950 . S
H3406 C3430 0.950 . S
H3407 C3431 0.951 . S
H3408 C3433 0.951 . S
H3409 C3435 0.950 . S
H3410 C3436 0.950 . S
H3411 C3438 0.950 . S
H3412 C3441 0.950 . S
H3413 C3442 0.950 . S
H3414 C3444 0.950 . S
H3415 C3445 0.950 . S
C3416 H3398 0.951 . S
C3416 C3417 1.366 . S
C3416 C3418 1.388 . S
C3417 C3416 1.366 . S
C3417 C3421 1.385 . S
C3418 H3399 0.951 . S
C3418 C3416 1.388 . S
C3418 C3419 1.366 . S
C3419 C3418 1.366 . S
C3419 C3420 1.414 . S
C3419 C3422 1.499 . S
C3420 H3400 0.950 . S
C3420 C3419 1.414 . S
C3420 C3421 1.374 . S
C3421 H3401 0.950 . S
C3421 C3417 1.385 . S
C3421 C3420 1.374 . S
C3422 C3419 1.499 . S
C3422 C3423 1.373 . S
C3422 C3424 1.389 . S
C3423 H3402 0.950 . S
C3423 C3422 1.373 . S
C3423 C3439 1.377 . S
C3424 C3422 1.389 . S
C3424 C3425 1.524 . S
C3424 C3438 1.377 . S
C3425 C3424 1.524 . S
C3425 C3426 1.397 . S
C3425 C3430 1.363 . S
C3426 H3403 0.950 . S
C3426 C3425 1.397 . S
C3426 C3427 1.334 . S
C3427 H3404 0.950 . S
C3427 C3426 1.334 . S
C3427 C3428 1.287 . S
C3428 C3427 1.287 . S
C3428 C3429 1.524 . S
C3428 H3447 0.913 . S
C3429 H3405 0.950 . S
C3429 C3428 1.524 . S
C3429 C3430 1.415 . S
C3430 H3406 0.950 . S
C3430 C3425 1.363 . S
C3430 C3429 1.415 . S
C3431 H3407 0.951 . S
C3431 C3432 1.366 . S
C3431 C3433 1.388 . S
C3432 C3431 1.366 . S
C3432 C3436 1.385 . S
C3433 H3408 0.951 . S
C3433 C3431 1.388 . S
C3433 C3434 1.366 . S
C3434 C3433 1.366 . S
C3434 C3435 1.414 . S
C3434 C3437 1.499 . S
C3435 H3409 0.950 . S
C3435 C3434 1.414 . S
C3435 C3436 1.374 . S
C3436 H3410 0.950 . S
C3436 C3432 1.385 . S
C3436 C3435 1.374 . S
C3437 C3434 1.499 . S
C3437 C3438 1.373 . S
C3437 C3439 1.389 . S
C3438 H3411 0.950 . S
C3438 C3424 1.377 . S
C3438 C3437 1.373 . S
C3439 C3423 1.377 . S
C3439 C3437 1.389 . S
C3439 C3440 1.524 . S
C3440 C3439 1.524 . S
C3440 C3441 1.397 . S
C3440 C3445 1.363 . S
C3441 H3412 0.950 . S
C3441 C3440 1.397 . S
C3441 C3442 1.334 . S
C3442 H3413 0.950 . S
C3442 C3441 1.334 . S
C3442 C3443 1.287 . S
C3443 C3442 1.287 . S
C3443 C3444 1.524 . S
C3443 H3446 0.999 . S
C3444 H3414 0.950 . S
C3444 C3443 1.524 . S
C3444 C3445 1.415 . S
C3445 H3415 0.950 . S
C3445 C3440 1.363 . S
C3445 C3444 1.415 . S
H3446 C3443 0.999 . S
H3447 C3428 0.913 . S
H3448 C3466 0.951 . S
H3449 C3468 0.951 . S
H3450 C3470 0.950 . S
H3451 C3471 0.950 . S
H3452 C3473 0.950 . S
H3453 C3476 0.950 . S
H3454 C3477 0.950 . S
H3455 C3479 0.950 . S
H3456 C3480 0.950 . S
H3457 C3481 0.951 . S
H3458 C3483 0.951 . S
H3459 C3485 0.950 . S
H3460 C3486 0.950 . S
H3461 C3488 0.950 . S
H3462 C3491 0.950 . S
H3463 C3492 0.950 . S
H3464 C3494 0.950 . S
H3465 C3495 0.950 . S
C3466 H3448 0.951 . S
C3466 C3467 1.366 . S
C3466 C3468 1.388 . S
C3467 C3466 1.366 . S
C3467 C3471 1.385 . S
C3468 H3449 0.951 . S
C3468 C3466 1.388 . S
C3468 C3469 1.366 . S
C3469 C3468 1.366 . S
C3469 C3470 1.414 . S
C3469 C3472 1.499 . S
C3470 H3450 0.950 . S
C3470 C3469 1.414 . S
C3470 C3471 1.374 . S
C3471 H3451 0.950 . S
C3471 C3467 1.385 . S
C3471 C3470 1.374 . S
C3472 C3469 1.499 . S
C3472 C3473 1.373 . S
C3472 C3474 1.389 . S
C3473 H3452 0.950 . S
C3473 C3472 1.373 . S
C3473 C3489 1.377 . S
C3474 C3472 1.389 . S
C3474 C3475 1.524 . S
C3474 C3488 1.377 . S
C3475 C3474 1.524 . S
C3475 C3476 1.397 . S
C3475 C3480 1.363 . S
C3476 H3453 0.950 . S
C3476 C3475 1.397 . S
C3476 C3477 1.334 . S
C3477 H3454 0.950 . S
C3477 C3476 1.334 . S
C3477 C3478 1.287 . S
C3478 C3477 1.287 . S
C3478 C3479 1.524 . S
C3478 H3497 0.913 . S
C3479 H3455 0.950 . S
C3479 C3478 1.524 . S
C3479 C3480 1.415 . S
C3480 H3456 0.950 . S
C3480 C3475 1.363 . S
C3480 C3479 1.415 . S
C3481 H3457 0.951 . S
C3481 C3482 1.366 . S
C3481 C3483 1.388 . S
C3482 C3481 1.366 . S
C3482 C3486 1.385 . S
C3483 H3458 0.951 . S
C3483 C3481 1.388 . S
C3483 C3484 1.366 . S
C3484 C3483 1.366 . S
C3484 C3485 1.414 . S
C3484 C3487 1.499 . S
C3485 H3459 0.950 . S
C3485 C3484 1.414 . S
C3485 C3486 1.374 . S
C3486 H3460 0.950 . S
C3486 C3482 1.385 . S
C3486 C3485 1.374 . S
C3487 C3484 1.499 . S
C3487 C3488 1.373 . S
C3487 C3489 1.389 . S
C3488 H3461 0.950 . S
C3488 C3474 1.377 . S
C3488 C3487 1.373 . S
C3489 C3473 1.377 . S
C3489 C3487 1.389 . S
C3489 C3490 1.524 . S
C3490 C3489 1.524 . S
C3490 C3491 1.397 . S
C3490 C3495 1.363 . S
C3491 H3462 0.950 . S
C3491 C3490 1.397 . S
C3491 C3492 1.334 . S
C3492 H3463 0.950 . S
C3492 C3491 1.334 . S
C3492 C3493 1.287 . S
C3493 C3492 1.287 . S
C3493 C3494 1.524 . S
C3493 H3496 0.999 . S
C3494 H3464 0.950 . S
C3494 C3493 1.524 . S
C3494 C3495 1.415 . S
C3495 H3465 0.950 . S
C3495 C3490 1.363 . S
C3495 C3494 1.415 . S
H3496 C3493 0.999 . S
H3497 C3478 0.913 . S
H3498 C3516 0.951 . S
H3499 C3518 0.951 . S
H3500 C3520 0.950 . S
H3501 C3521 0.950 . S
H3502 C3523 0.950 . S
H3503 C3526 0.950 . S
H3504 C3527 0.950 . S
H3505 C3529 0.950 . S
H3506 C3530 0.950 . S
H3507 C3531 0.951 . S
H3508 C3533 0.951 . S
H3509 C3535 0.950 . S
H3510 C3536 0.950 . S
H3511 C3538 0.950 . S
H3512 C3541 0.950 . S
H3513 C3542 0.950 . S
H3514 C3544 0.950 . S
H3515 C3545 0.950 . S
C3516 H3498 0.951 . S
C3516 C3517 1.366 . S
C3516 C3518 1.388 . S
C3517 C3516 1.366 . S
C3517 C3521 1.385 . S
C3518 H3499 0.951 . S
C3518 C3516 1.388 . S
C3518 C3519 1.366 . S
C3519 C3518 1.366 . S
C3519 C3520 1.414 . S
C3519 C3522 1.499 . S
C3520 H3500 0.950 . S
C3520 C3519 1.414 . S
C3520 C3521 1.374 . S
C3521 H3501 0.950 . S
C3521 C3517 1.385 . S
C3521 C3520 1.374 . S
C3522 C3519 1.499 . S
C3522 C3523 1.373 . S
C3522 C3524 1.389 . S
C3523 H3502 0.950 . S
C3523 C3522 1.373 . S
C3523 C3539 1.377 . S
C3524 C3522 1.389 . S
C3524 C3525 1.504 1_556 S
C3524 C3538 1.377 . S
C3525 C3524 1.504 1_554 S
C3525 C3526 1.408 . S
C3525 C3530 1.372 . S
C3526 H3503 0.950 . S
C3526 C3525 1.408 . S
C3526 C3527 1.334 . S
C3527 H3504 0.950 . S
C3527 C3526 1.334 . S
C3527 C3528 1.287 . S
C3528 C3527 1.287 . S
C3528 C3529 1.524 . S
C3528 H3547 0.913 . S
C3529 H3505 0.950 . S
C3529 C3528 1.524 . S
C3529 C3530 1.415 . S
C3530 H3506 0.950 . S
C3530 C3525 1.372 . S
C3530 C3529 1.415 . S
C3531 H3507 0.951 . S
C3531 C3532 1.366 . S
C3531 C3533 1.388 . S
C3532 C3531 1.366 . S
C3532 C3536 1.385 . S
C3533 H3508 0.951 . S
C3533 C3531 1.388 . S
C3533 C3534 1.366 . S
C3534 C3533 1.366 . S
C3534 C3535 1.414 . S
C3534 C3537 1.499 . S
C3535 H3509 0.950 . S
C3535 C3534 1.414 . S
C3535 C3536 1.374 . S
C3536 H3510 0.950 . S
C3536 C3532 1.385 . S
C3536 C3535 1.374 . S
C3537 C3534 1.499 . S
C3537 C3538 1.373 . S
C3537 C3539 1.389 . S
C3538 H3511 0.950 . S
C3538 C3524 1.377 . S
C3538 C3537 1.373 . S
C3539 C3523 1.377 . S
C3539 C3537 1.389 . S
C3539 C3540 1.524 . S
C3540 C3539 1.524 . S
C3540 C3541 1.397 . S
C3540 C3545 1.363 . S
C3541 H3512 0.950 . S
C3541 C3540 1.397 . S
C3541 C3542 1.334 . S
C3542 H3513 0.950 . S
C3542 C3541 1.334 . S
C3542 C3543 1.287 . S
C3543 C3542 1.287 . S
C3543 C3544 1.524 . S
C3543 H3546 0.999 . S
C3544 H3514 0.950 . S
C3544 C3543 1.524 . S
C3544 C3545 1.415 . S
C3545 H3515 0.950 . S
C3545 C3540 1.363 . S
C3545 C3544 1.415 . S
H3546 C3543 0.999 . S
H3547 C3528 0.913 . S
H3548 C3566 0.951 . S
H3549 C3568 0.951 . S
H3550 C3570 0.950 . S
H3551 C3571 0.950 . S
H3552 C3573 0.950 . S
H3553 C3576 0.950 . S
H3554 C3577 0.950 . S
H3555 C3579 0.950 . S
H3556 C3580 0.950 . S
H3557 C3581 0.951 . S
H3558 C3583 0.951 . S
H3559 C3585 0.950 . S
H3560 C3586 0.950 . S
H3561 C3588 0.950 . S
H3562 C3591 0.950 . S
H3563 C3592 0.950 . S
H3564 C3594 0.950 . S
H3565 C3595 0.950 . S
C3566 H3548 0.951 . S
C3566 C3567 1.366 . S
C3566 C3568 1.388 . S
C3567 C3566 1.366 . S
C3567 C3571 1.385 . S
C3568 H3549 0.951 . S
C3568 C3566 1.388 . S
C3568 C3569 1.366 . S
C3569 C3568 1.366 . S
C3569 C3570 1.414 . S
C3569 C3572 1.499 . S
C3570 H3550 0.950 . S
C3570 C3569 1.414 . S
C3570 C3571 1.374 . S
C3571 H3551 0.950 . S
C3571 C3567 1.385 . S
C3571 C3570 1.374 . S
C3572 C3569 1.499 . S
C3572 C3573 1.373 . S
C3572 C3574 1.389 . S
C3573 H3552 0.950 . S
C3573 C3572 1.373 . S
C3573 C3589 1.377 . S
C3574 C3572 1.389 . S
C3574 C3575 1.524 . S
C3574 C3588 1.377 . S
C3575 C3574 1.524 . S
C3575 C3576 1.397 . S
C3575 C3580 1.363 . S
C3576 H3553 0.950 . S
C3576 C3575 1.397 . S
C3576 C3577 1.334 . S
C3577 H3554 0.950 . S
C3577 C3576 1.334 . S
C3577 C3578 1.287 . S
C3578 C3577 1.287 . S
C3578 C3579 1.524 . S
C3578 H3597 0.913 . S
C3579 H3555 0.950 . S
C3579 C3578 1.524 . S
C3579 C3580 1.415 . S
C3580 H3556 0.950 . S
C3580 C3575 1.363 . S
C3580 C3579 1.415 . S
C3581 H3557 0.951 . S
C3581 C3582 1.366 . S
C3581 C3583 1.388 . S
C3582 C3581 1.366 . S
C3582 C3586 1.385 . S
C3583 H3558 0.951 . S
C3583 C3581 1.388 . S
C3583 C3584 1.366 . S
C3584 C3583 1.366 . S
C3584 C3585 1.414 . S
C3584 C3587 1.499 . S
C3585 H3559 0.950 . S
C3585 C3584 1.414 . S
C3585 C3586 1.374 . S
C3586 H3560 0.950 . S
C3586 C3582 1.385 . S
C3586 C3585 1.374 . S
C3587 C3584 1.499 . S
C3587 C3588 1.373 . S
C3587 C3589 1.389 . S
C3588 H3561 0.950 . S
C3588 C3574 1.377 . S
C3588 C3587 1.373 . S
C3589 C3573 1.377 . S
C3589 C3587 1.389 . S
C3589 C3590 1.524 . S
C3590 C3589 1.524 . S
C3590 C3591 1.397 . S
C3590 C3595 1.363 . S
C3591 H3562 0.950 . S
C3591 C3590 1.397 . S
C3591 C3592 1.334 . S
C3592 H3563 0.950 . S
C3592 C3591 1.334 . S
C3592 C3593 1.287 . S
C3593 C3592 1.287 . S
C3593 C3594 1.524 . S
C3593 H3596 0.999 . S
C3594 H3564 0.950 . S
C3594 C3593 1.524 . S
C3594 C3595 1.415 . S
C3595 H3565 0.950 . S
C3595 C3590 1.363 . S
C3595 C3594 1.415 . S
H3596 C3593 0.999 . S
H3597 C3578 0.913 . S
H3598 C3616 0.951 . S
H3599 C3618 0.951 . S
H3600 C3620 0.950 . S
H3601 C3621 0.950 . S
H3602 C3623 0.950 . S
H3603 C3626 0.950 . S
H3604 C3627 0.950 . S
H3605 C3629 0.950 . S
H3606 C3630 0.950 . S
H3607 C3631 0.951 . S
H3608 C3633 0.951 . S
H3609 C3635 0.950 . S
H3610 C3636 0.950 . S
H3611 C3638 0.950 . S
H3612 C3641 0.950 . S
H3613 C3642 0.950 . S
H3614 C3644 0.950 . S
H3615 C3645 0.950 . S
C3616 H3598 0.951 . S
C3616 C3617 1.366 . S
C3616 C3618 1.388 . S
C3617 C3616 1.366 . S
C3617 C3621 1.385 . S
C3618 H3599 0.951 . S
C3618 C3616 1.388 . S
C3618 C3619 1.366 . S
C3619 C3618 1.366 . S
C3619 C3620 1.414 . S
C3619 C3622 1.499 . S
C3620 H3600 0.950 . S
C3620 C3619 1.414 . S
C3620 C3621 1.374 . S
C3621 H3601 0.950 . S
C3621 C3617 1.385 . S
C3621 C3620 1.374 . S
C3622 C3619 1.499 . S
C3622 C3623 1.373 . S
C3622 C3624 1.389 . S
C3623 H3602 0.950 . S
C3623 C3622 1.373 . S
C3623 C3639 1.377 . S
C3624 C3622 1.389 . S
C3624 C3625 1.524 . S
C3624 C3638 1.377 . S
C3625 C3624 1.524 . S
C3625 C3626 1.397 . S
C3625 C3630 1.363 . S
C3626 H3603 0.950 . S
C3626 C3625 1.397 . S
C3626 C3627 1.334 . S
C3627 H3604 0.950 . S
C3627 C3626 1.334 . S
C3627 C3628 1.287 . S
C3628 C3627 1.287 . S
C3628 C3629 1.524 . S
C3628 H3647 0.913 . S
C3629 H3605 0.950 . S
C3629 C3628 1.524 . S
C3629 C3630 1.415 . S
C3630 H3606 0.950 . S
C3630 C3625 1.363 . S
C3630 C3629 1.415 . S
C3631 H3607 0.951 . S
C3631 C3632 1.366 . S
C3631 C3633 1.388 . S
C3632 C3631 1.366 . S
C3632 C3636 1.385 . S
C3633 H3608 0.951 . S
C3633 C3631 1.388 . S
C3633 C3634 1.366 . S
C3634 C3633 1.366 . S
C3634 C3635 1.414 . S
C3634 C3637 1.499 . S
C3635 H3609 0.950 . S
C3635 C3634 1.414 . S
C3635 C3636 1.374 . S
C3636 H3610 0.950 . S
C3636 C3632 1.385 . S
C3636 C3635 1.374 . S
C3637 C3634 1.499 . S
C3637 C3638 1.373 . S
C3637 C3639 1.389 . S
C3638 H3611 0.950 . S
C3638 C3624 1.377 . S
C3638 C3637 1.373 . S
C3639 C3623 1.377 . S
C3639 C3637 1.389 . S
C3639 C3640 1.524 . S
C3640 C3639 1.524 . S
C3640 C3641 1.397 . S
C3640 C3645 1.363 . S
C3641 H3612 0.950 . S
C3641 C3640 1.397 . S
C3641 C3642 1.334 . S
C3642 H3613 0.950 . S
C3642 C3641 1.334 . S
C3642 C3643 1.287 . S
C3643 C3642 1.287 . S
C3643 C3644 1.524 . S
C3643 H3646 0.999 . S
C3644 H3614 0.950 . S
C3644 C3643 1.524 . S
C3644 C3645 1.415 . S
C3645 H3615 0.950 . S
C3645 C3640 1.363 . S
C3645 C3644 1.415 . S
H3646 C3643 0.999 . S
H3647 C3628 0.913 . S
H3648 C3666 0.951 . S
H3649 C3668 0.951 . S
H3650 C3670 0.950 . S
H3651 C3671 0.950 . S
H3652 C3673 0.950 . S
H3653 C3676 0.950 . S
H3654 C3677 0.950 . S
H3655 C3679 0.950 . S
H3656 C3680 0.950 . S
H3657 C3681 0.951 . S
H3658 C3683 0.951 . S
H3659 C3685 0.950 . S
H3660 C3686 0.950 . S
H3661 C3688 0.950 . S
H3662 C3691 0.950 . S
H3663 C3692 0.950 . S
H3664 C3694 0.950 . S
H3665 C3695 0.950 . S
C3666 H3648 0.951 . S
C3666 C3667 1.366 . S
C3666 C3668 1.388 . S
C3667 C3666 1.366 . S
C3667 C3671 1.385 . S
C3668 H3649 0.951 . S
C3668 C3666 1.388 . S
C3668 C3669 1.366 . S
C3669 C3668 1.366 . S
C3669 C3670 1.414 . S
C3669 C3672 1.499 . S
C3670 H3650 0.950 . S
C3670 C3669 1.414 . S
C3670 C3671 1.374 . S
C3671 H3651 0.950 . S
C3671 C3667 1.385 . S
C3671 C3670 1.374 . S
C3672 C3669 1.499 . S
C3672 C3673 1.373 . S
C3672 C3674 1.389 . S
C3673 H3652 0.950 . S
C3673 C3672 1.373 . S
C3673 C3689 1.377 . S
C3674 C3672 1.389 . S
C3674 C3675 1.524 . S
C3674 C3688 1.377 . S
C3675 C3674 1.524 . S
C3675 C3676 1.397 . S
C3675 C3680 1.363 . S
C3676 H3653 0.950 . S
C3676 C3675 1.397 . S
C3676 C3677 1.334 . S
C3677 H3654 0.950 . S
C3677 C3676 1.334 . S
C3677 C3678 1.287 . S
C3678 C3677 1.287 . S
C3678 C3679 1.524 . S
C3678 H3697 0.913 . S
C3679 H3655 0.950 . S
C3679 C3678 1.524 . S
C3679 C3680 1.415 . S
C3680 H3656 0.950 . S
C3680 C3675 1.363 . S
C3680 C3679 1.415 . S
C3681 H3657 0.951 . S
C3681 C3682 1.366 . S
C3681 C3683 1.388 . S
C3682 C3681 1.366 . S
C3682 C3686 1.385 . S
C3683 H3658 0.951 . S
C3683 C3681 1.388 . S
C3683 C3684 1.366 . S
C3684 C3683 1.366 . S
C3684 C3685 1.414 . S
C3684 C3687 1.499 . S
C3685 H3659 0.950 . S
C3685 C3684 1.414 . S
C3685 C3686 1.374 . S
C3686 H3660 0.950 . S
C3686 C3682 1.385 . S
C3686 C3685 1.374 . S
C3687 C3684 1.499 . S
C3687 C3688 1.373 . S
C3687 C3689 1.389 . S
C3688 H3661 0.950 . S
C3688 C3674 1.377 . S
C3688 C3687 1.373 . S
C3689 C3673 1.377 . S
C3689 C3687 1.389 . S
C3689 C3690 1.524 . S
C3690 C3689 1.524 . S
C3690 C3691 1.397 . S
C3690 C3695 1.363 . S
C3691 H3662 0.950 . S
C3691 C3690 1.397 . S
C3691 C3692 1.334 . S
C3692 H3663 0.950 . S
C3692 C3691 1.334 . S
C3692 C3693 1.287 . S
C3693 C3692 1.287 . S
C3693 C3694 1.524 . S
C3693 H3696 0.999 . S
C3694 H3664 0.950 . S
C3694 C3693 1.524 . S
C3694 C3695 1.415 . S
C3695 H3665 0.950 . S
C3695 C3690 1.363 . S
C3695 C3694 1.415 . S
H3696 C3693 0.999 . S
H3697 C3678 0.913 . S
H3698 C3716 0.951 . S
H3699 C3718 0.951 . S
H3700 C3720 0.950 . S
H3701 C3721 0.950 . S
H3702 C3723 0.950 . S
H3703 C3726 0.950 . S
H3704 C3727 0.950 . S
H3705 C3729 0.950 . S
H3706 C3730 0.950 . S
H3707 C3731 0.951 . S
H3708 C3733 0.951 . S
H3709 C3735 0.950 . S
H3710 C3736 0.950 . S
H3711 C3738 0.950 . S
H3712 C3741 0.950 . S
H3713 C3742 0.950 . S
H3714 C3744 0.950 . S
H3715 C3745 0.950 . S
C3716 H3698 0.951 . S
C3716 C3717 1.366 . S
C3716 C3718 1.388 . S
C3717 C3716 1.366 . S
C3717 C3721 1.385 . S
C3718 H3699 0.951 . S
C3718 C3716 1.388 . S
C3718 C3719 1.366 . S
C3719 C3718 1.366 . S
C3719 C3720 1.414 . S
C3719 C3722 1.499 . S
C3720 H3700 0.950 . S
C3720 C3719 1.414 . S
C3720 C3721 1.374 . S
C3721 H3701 0.950 . S
C3721 C3717 1.385 . S
C3721 C3720 1.374 . S
C3722 C3719 1.499 . S
C3722 C3723 1.373 . S
C3722 C3724 1.389 . S
C3723 H3702 0.950 . S
C3723 C3722 1.373 . S
C3723 C3739 1.377 . S
C3724 C3722 1.389 . S
C3724 C3725 1.524 . S
C3724 C3738 1.377 . S
C3725 C3724 1.524 . S
C3725 C3726 1.397 . S
C3725 C3730 1.363 . S
C3726 H3703 0.950 . S
C3726 C3725 1.397 . S
C3726 C3727 1.334 . S
C3727 H3704 0.950 . S
C3727 C3726 1.334 . S
C3727 C3728 1.277 1_554 S
C3728 C3727 1.277 1_556 S
C3728 C3729 1.526 . S
C3728 H3747 0.923 . S
C3729 H3705 0.950 . S
C3729 C3728 1.526 . S
C3729 C3730 1.415 1_556 S
C3730 H3706 0.950 . S
C3730 C3725 1.363 . S
C3730 C3729 1.415 1_554 S
C3731 H3707 0.951 . S
C3731 C3732 1.366 . S
C3731 C3733 1.388 . S
C3732 C3731 1.366 . S
C3732 C3736 1.385 . S
C3733 H3708 0.951 . S
C3733 C3731 1.388 . S
C3733 C3734 1.366 . S
C3734 C3733 1.366 . S
C3734 C3735 1.414 . S
C3734 C3737 1.499 . S
C3735 H3709 0.950 . S
C3735 C3734 1.414 . S
C3735 C3736 1.374 . S
C3736 H3710 0.950 . S
C3736 C3732 1.385 . S
C3736 C3735 1.374 . S
C3737 C3734 1.499 . S
C3737 C3738 1.373 . S
C3737 C3739 1.389 . S
C3738 H3711 0.950 . S
C3738 C3724 1.377 . S
C3738 C3737 1.373 . S
C3739 C3723 1.377 . S
C3739 C3737 1.389 . S
C3739 C3740 1.524 . S
C3740 C3739 1.524 . S
C3740 C3741 1.397 . S
C3740 C3745 1.363 . S
C3741 H3712 0.950 . S
C3741 C3740 1.397 . S
C3741 C3742 1.334 . S
C3742 H3713 0.950 . S
C3742 C3741 1.334 . S
C3742 C3743 1.287 . S
C3743 C3742 1.287 . S
C3743 C3744 1.524 . S
C3743 H3746 0.999 . S
C3744 H3714 0.950 . S
C3744 C3743 1.524 . S
C3744 C3745 1.415 . S
C3745 H3715 0.950 . S
C3745 C3740 1.363 . S
C3745 C3744 1.415 . S
H3746 C3743 0.999 . S
H3747 C3728 0.923 . S
H3748 C3766 0.951 . S
H3749 C3768 0.951 . S
H3750 C3770 0.950 . S
H3751 C3771 0.950 . S
H3752 C3773 0.950 . S
H3753 C3776 0.950 . S
H3754 C3777 0.950 . S
H3755 C3779 0.950 . S
H3756 C3780 0.950 . S
H3757 C3781 0.951 . S
H3758 C3783 0.951 . S
H3759 C3785 0.950 . S
H3760 C3786 0.950 . S
H3761 C3788 0.950 . S
H3762 C3791 0.950 . S
H3763 C3792 0.950 . S
H3764 C3794 0.950 . S
H3765 C3795 0.950 . S
C3766 H3748 0.951 . S
C3766 C3767 1.366 . S
C3766 C3768 1.388 . S
C3767 C3766 1.366 . S
C3767 C3771 1.385 . S
C3768 H3749 0.951 . S
C3768 C3766 1.388 . S
C3768 C3769 1.366 . S
C3769 C3768 1.366 . S
C3769 C3770 1.414 . S
C3769 C3772 1.499 . S
C3770 H3750 0.950 . S
C3770 C3769 1.414 . S
C3770 C3771 1.374 . S
C3771 H3751 0.950 . S
C3771 C3767 1.385 . S
C3771 C3770 1.374 . S
C3772 C3769 1.499 . S
C3772 C3773 1.373 . S
C3772 C3774 1.389 . S
C3773 H3752 0.950 . S
C3773 C3772 1.373 . S
C3773 C3789 1.377 . S
C3774 C3772 1.389 . S
C3774 C3775 1.524 . S
C3774 C3788 1.377 . S
C3775 C3774 1.524 . S
C3775 C3776 1.397 . S
C3775 C3780 1.363 . S
C3776 H3753 0.950 . S
C3776 C3775 1.397 . S
C3776 C3777 1.334 . S
C3777 H3754 0.950 . S
C3777 C3776 1.334 . S
C3777 C3778 1.287 . S
C3778 C3777 1.287 . S
C3778 C3779 1.524 . S
C3778 H3797 0.913 . S
C3779 H3755 0.950 . S
C3779 C3778 1.524 . S
C3779 C3780 1.415 . S
C3780 H3756 0.950 . S
C3780 C3775 1.363 . S
C3780 C3779 1.415 . S
C3781 H3757 0.951 . S
C3781 C3782 1.366 . S
C3781 C3783 1.388 . S
C3782 C3781 1.366 . S
C3782 C3786 1.385 . S
C3783 H3758 0.951 . S
C3783 C3781 1.388 . S
C3783 C3784 1.366 . S
C3784 C3783 1.366 . S
C3784 C3785 1.414 . S
C3784 C3787 1.499 . S
C3785 H3759 0.950 . S
C3785 C3784 1.414 . S
C3785 C3786 1.374 . S
C3786 H3760 0.950 . S
C3786 C3782 1.385 . S
C3786 C3785 1.374 . S
C3787 C3784 1.499 . S
C3787 C3788 1.373 . S
C3787 C3789 1.389 . S
C3788 H3761 0.950 . S
C3788 C3774 1.377 . S
C3788 C3787 1.373 . S
C3789 C3773 1.377 . S
C3789 C3787 1.389 . S
C3789 C3790 1.524 . S
C3790 C3789 1.524 . S
C3790 C3791 1.397 . S
C3790 C3795 1.363 . S
C3791 H3762 0.950 . S
C3791 C3790 1.397 . S
C3791 C3792 1.334 . S
C3792 H3763 0.950 . S
C3792 C3791 1.334 . S
C3792 C3793 1.287 . S
C3793 C3792 1.287 . S
C3793 C3794 1.524 . S
C3793 H3796 0.999 . S
C3794 H3764 0.950 . S
C3794 C3793 1.524 . S
C3794 C3795 1.415 . S
C3795 H3765 0.950 . S
C3795 C3790 1.363 . S
C3795 C3794 1.415 . S
H3796 C3793 0.999 . S
H3797 C3778 0.913 . S
H3798 C3816 0.951 . S
H3799 C3818 0.951 . S
H3800 C3820 0.950 . S
H3801 C3821 0.950 . S
H3802 C3823 0.950 . S
H3803 C3826 0.950 . S
H3804 C3827 0.950 . S
H3805 C3829 0.950 . S
H3806 C3830 0.950 . S
H3807 C3831 0.951 . S
H3808 C3833 0.951 . S
H3809 C3835 0.950 . S
H3810 C3836 0.950 . S
H3811 C3838 0.950 . S
H3812 C3841 0.950 . S
H3813 C3842 0.950 . S
H3814 C3844 0.950 . S
H3815 C3845 0.950 . S
C3816 H3798 0.951 . S
C3816 C3817 1.366 . S
C3816 C3818 1.388 . S
C3817 C3816 1.366 . S
C3817 C3821 1.385 . S
C3818 H3799 0.951 . S
C3818 C3816 1.388 . S
C3818 C3819 1.366 . S
C3819 C3818 1.366 . S
C3819 C3820 1.414 . S
C3819 C3822 1.499 . S
C3820 H3800 0.950 . S
C3820 C3819 1.414 . S
C3820 C3821 1.374 . S
C3821 H3801 0.950 . S
C3821 C3817 1.385 . S
C3821 C3820 1.374 . S
C3822 C3819 1.499 . S
C3822 C3823 1.373 . S
C3822 C3824 1.389 . S
C3823 H3802 0.950 . S
C3823 C3822 1.373 . S
C3823 C3839 1.377 . S
C3824 C3822 1.389 . S
C3824 C3825 1.524 . S
C3824 C3838 1.377 . S
C3825 C3824 1.524 . S
C3825 C3826 1.397 . S
C3825 C3830 1.363 . S
C3826 H3803 0.950 . S
C3826 C3825 1.397 . S
C3826 C3827 1.334 . S
C3827 H3804 0.950 . S
C3827 C3826 1.334 . S
C3827 C3828 1.287 . S
C3828 C3827 1.287 . S
C3828 C3829 1.524 . S
C3828 H3847 0.913 . S
C3829 H3805 0.950 . S
C3829 C3828 1.524 . S
C3829 C3830 1.415 . S
C3830 H3806 0.950 . S
C3830 C3825 1.363 . S
C3830 C3829 1.415 . S
C3831 H3807 0.951 . S
C3831 C3832 1.366 . S
C3831 C3833 1.388 . S
C3832 C3831 1.366 . S
C3832 C3836 1.385 . S
C3833 H3808 0.951 . S
C3833 C3831 1.388 . S
C3833 C3834 1.366 . S
C3834 C3833 1.366 . S
C3834 C3835 1.414 . S
C3834 C3837 1.499 . S
C3835 H3809 0.950 . S
C3835 C3834 1.414 . S
C3835 C3836 1.374 . S
C3836 H3810 0.950 . S
C3836 C3832 1.385 . S
C3836 C3835 1.374 . S
C3837 C3834 1.499 . S
C3837 C3838 1.373 . S
C3837 C3839 1.389 . S
C3838 H3811 0.950 . S
C3838 C3824 1.377 . S
C3838 C3837 1.373 . S
C3839 C3823 1.377 . S
C3839 C3837 1.389 . S
C3839 C3840 1.524 . S
C3840 C3839 1.524 . S
C3840 C3841 1.397 . S
C3840 C3845 1.363 . S
C3841 H3812 0.950 . S
C3841 C3840 1.397 . S
C3841 C3842 1.334 . S
C3842 H3813 0.950 . S
C3842 C3841 1.334 . S
C3842 C3843 1.287 . S
C3843 C3842 1.287 . S
C3843 C3844 1.524 . S
C3843 H3846 0.999 . S
C3844 H3814 0.950 . S
C3844 C3843 1.524 . S
C3844 C3845 1.415 . S
C3845 H3815 0.950 . S
C3845 C3840 1.363 . S
C3845 C3844 1.415 . S
H3846 C3843 0.999 . S
H3847 C3828 0.913 . S
H3848 C3866 0.951 . S
H3849 C3868 0.951 . S
H3850 C3870 0.950 . S
H3851 C3871 0.950 . S
H3852 C3873 0.950 . S
H3853 C3876 0.950 . S
H3854 C3877 0.950 . S
H3855 C3879 0.950 . S
H3856 C3880 0.950 . S
H3857 C3881 0.951 . S
H3858 C3883 0.951 . S
H3859 C3885 0.950 . S
H3860 C3886 0.950 . S
H3861 C3888 0.950 . S
H3862 C3891 0.950 . S
H3863 C3892 0.950 . S
H3864 C3894 0.950 . S
H3865 C3895 0.950 . S
C3866 H3848 0.951 . S
C3866 C3867 1.366 . S
C3866 C3868 1.388 . S
C3867 C3866 1.366 . S
C3867 C3871 1.385 . S
C3868 H3849 0.951 . S
C3868 C3866 1.388 . S
C3868 C3869 1.366 . S
C3869 C3868 1.366 . S
C3869 C3870 1.414 . S
C3869 C3872 1.499 . S
C3870 H3850 0.950 . S
C3870 C3869 1.414 . S
C3870 C3871 1.374 . S
C3871 H3851 0.950 . S
C3871 C3867 1.385 . S
C3871 C3870 1.374 . S
C3872 C3869 1.499 . S
C3872 C3873 1.373 . S
C3872 C3874 1.389 . S
C3873 H3852 0.950 . S
C3873 C3872 1.373 . S
C3873 C3889 1.377 . S
C3874 C3872 1.389 . S
C3874 C3875 1.524 . S
C3874 C3888 1.377 . S
C3875 C3874 1.524 . S
C3875 C3876 1.397 . S
C3875 C3880 1.363 . S
C3876 H3853 0.950 . S
C3876 C3875 1.397 . S
C3876 C3877 1.334 . S
C3877 H3854 0.950 . S
C3877 C3876 1.334 . S
C3877 C3878 1.287 . S
C3878 C3877 1.287 . S
C3878 C3879 1.524 . S
C3878 H3897 0.913 . S
C3879 H3855 0.950 . S
C3879 C3878 1.524 . S
C3879 C3880 1.415 . S
C3880 H3856 0.950 . S
C3880 C3875 1.363 . S
C3880 C3879 1.415 . S
C3881 H3857 0.951 . S
C3881 C3882 1.366 . S
C3881 C3883 1.388 . S
C3882 C3881 1.366 . S
C3882 C3886 1.385 . S
C3883 H3858 0.951 . S
C3883 C3881 1.388 . S
C3883 C3884 1.366 . S
C3884 C3883 1.366 . S
C3884 C3885 1.414 . S
C3884 C3887 1.499 . S
C3885 H3859 0.950 . S
C3885 C3884 1.414 . S
C3885 C3886 1.374 . S
C3886 H3860 0.950 . S
C3886 C3882 1.385 . S
C3886 C3885 1.374 . S
C3887 C3884 1.499 . S
C3887 C3888 1.373 . S
C3887 C3889 1.389 . S
C3888 H3861 0.950 . S
C3888 C3874 1.377 . S
C3888 C3887 1.373 . S
C3889 C3873 1.377 . S
C3889 C3887 1.389 . S
C3889 C3890 1.524 . S
C3890 C3889 1.524 . S
C3890 C3891 1.397 . S
C3890 C3895 1.363 . S
C3891 H3862 0.950 . S
C3891 C3890 1.397 . S
C3891 C3892 1.334 . S
C3892 H3863 0.950 . S
C3892 C3891 1.334 . S
C3892 C3893 1.287 . S
C3893 C3892 1.287 . S
C3893 C3894 1.524 . S
C3893 H3896 0.999 . S
C3894 H3864 0.950 . S
C3894 C3893 1.524 . S
C3894 C3895 1.415 . S
C3895 H3865 0.950 . S
C3895 C3890 1.363 . S
C3895 C3894 1.415 . S
H3896 C3893 0.999 . S
H3897 C3878 0.913 . S
H3898 C3916 0.951 . S
H3899 C3918 0.951 . S
H3900 C3920 0.950 . S
H3901 C3921 0.950 . S
H3902 C3923 0.950 . S
H3903 C3926 0.950 . S
H3904 C3927 0.950 . S
H3905 C3929 0.950 . S
H3906 C3930 0.950 . S
H3907 C3931 0.951 . S
H3908 C3933 0.951 . S
H3909 C3935 0.950 . S
H3910 C3936 0.950 . S
H3911 C3938 0.950 . S
H3912 C3941 0.950 . S
H3913 C3942 0.950 . S
H3914 C3944 0.950 . S
H3915 C3945 0.950 . S
C3916 H3898 0.951 . S
C3916 C3917 1.366 . S
C3916 C3918 1.388 . S
C3917 C3916 1.366 . S
C3917 C3921 1.385 . S
C3918 H3899 0.951 . S
C3918 C3916 1.388 . S
C3918 C3919 1.366 . S
C3919 C3918 1.366 . S
C3919 C3920 1.414 . S
C3919 C3922 1.499 . S
C3920 H3900 0.950 . S
C3920 C3919 1.414 . S
C3920 C3921 1.374 . S
C3921 H3901 0.950 . S
C3921 C3917 1.385 . S
C3921 C3920 1.374 . S
C3922 C3919 1.499 . S
C3922 C3923 1.373 . S
C3922 C3924 1.389 . S
C3923 H3902 0.950 . S
C3923 C3922 1.373 . S
C3923 C3939 1.377 . S
C3924 C3922 1.389 . S
C3924 C3925 1.524 . S
C3924 C3938 1.377 . S
C3925 C3924 1.524 . S
C3925 C3926 1.397 . S
C3925 C3930 1.363 . S
C3926 H3903 0.950 . S
C3926 C3925 1.397 . S
C3926 C3927 1.334 . S
C3927 H3904 0.950 . S
C3927 C3926 1.334 . S
C3927 C3928 1.287 . S
C3928 C3927 1.287 . S
C3928 C3929 1.524 . S
C3928 H3947 0.913 . S
C3929 H3905 0.950 . S
C3929 C3928 1.524 . S
C3929 C3930 1.415 . S
C3930 H3906 0.950 . S
C3930 C3925 1.363 . S
C3930 C3929 1.415 . S
C3931 H3907 0.951 . S
C3931 C3932 1.366 . S
C3931 C3933 1.388 . S
C3932 C3931 1.366 . S
C3932 C3936 1.385 . S
C3933 H3908 0.951 . S
C3933 C3931 1.388 . S
C3933 C3934 1.366 . S
C3934 C3933 1.366 . S
C3934 C3935 1.414 . S
C3934 C3937 1.499 . S
C3935 H3909 0.950 . S
C3935 C3934 1.414 . S
C3935 C3936 1.374 . S
C3936 H3910 0.950 . S
C3936 C3932 1.385 . S
C3936 C3935 1.374 . S
C3937 C3934 1.499 . S
C3937 C3938 1.373 . S
C3937 C3939 1.389 . S
C3938 H3911 0.950 . S
C3938 C3924 1.377 . S
C3938 C3937 1.373 . S
C3939 C3923 1.377 . S
C3939 C3937 1.389 . S
C3939 C3940 1.524 . S
C3940 C3939 1.524 . S
C3940 C3941 1.397 . S
C3940 C3945 1.363 . S
C3941 H3912 0.950 . S
C3941 C3940 1.397 . S
C3941 C3942 1.334 . S
C3942 H3913 0.950 . S
C3942 C3941 1.334 . S
C3942 C3943 1.287 . S
C3943 C3942 1.287 . S
C3943 C3944 1.524 . S
C3943 H3946 0.999 . S
C3944 H3914 0.950 . S
C3944 C3943 1.524 . S
C3944 C3945 1.415 . S
C3945 H3915 0.950 . S
C3945 C3940 1.363 . S
C3945 C3944 1.415 . S
H3946 C3943 0.999 . S
H3947 C3928 0.913 . S
H3948 C3966 0.951 . S
H3949 C3968 0.951 . S
H3950 C3970 0.950 1_565 S
H3951 C3971 0.950 . S
H3952 C3973 0.950 . S
H3953 C3976 0.950 . S
H3954 C3977 0.950 . S
H3955 C3979 0.950 . S
H3956 C3980 0.950 . S
H3957 C3981 0.951 . S
H3958 C3983 0.951 . S
H3959 C3985 0.950 . S
H3960 C3986 0.950 . S
H3961 C3988 0.950 . S
H3962 C3991 0.950 . S
H3963 C3992 0.950 . S
H3964 C3994 0.950 . S
H3965 C3995 0.950 . S
C3966 H3948 0.951 . S
C3966 C3967 1.366 . S
C3966 C3968 1.388 . S
C3967 C3966 1.366 . S
C3967 C3971 1.385 . S
C3968 H3949 0.951 . S
C3968 C3966 1.388 . S
C3968 C3969 1.376 . S
C3969 C3968 1.376 . S
C3969 C3970 1.416 . S
C3969 C3972 1.489 1_545 S
C3970 H3950 0.950 1_545 S
C3970 C3969 1.416 . S
C3970 C3971 1.374 . S
C3971 H3951 0.950 . S
C3971 C3967 1.385 . S
C3971 C3970 1.374 . S
C3972 C3969 1.489 1_565 S
C3972 C3973 1.373 1_565 S
C3972 C3974 1.389 . S
C3973 H3952 0.950 . S
C3973 C3972 1.373 1_545 S
C3973 C3989 1.377 1_545 S
C3974 C3972 1.389 . S
C3974 C3975 1.524 . S
C3974 C3988 1.377 . S
C3975 C3974 1.524 . S
C3975 C3976 1.397 . S
C3975 C3980 1.363 . S
C3976 H3953 0.950 . S
C3976 C3975 1.397 . S
C3976 C3977 1.334 . S
C3977 H3954 0.950 . S
C3977 C3976 1.334 . S
C3977 C3978 1.287 . S
C3978 C3977 1.287 . S
C3978 C3979 1.524 . S
C3978 H3997 0.913 . S
C3979 H3955 0.950 . S
C3979 C3978 1.524 . S
C3979 C3980 1.415 . S
C3980 H3956 0.950 . S
C3980 C3975 1.363 . S
C3980 C3979 1.415 . S
C3981 H3957 0.951 . S
C3981 C3982 1.366 . S
C3981 C3983 1.388 . S
C3982 C3981 1.366 . S
C3982 C3986 1.385 . S
C3983 H3958 0.951 . S
C3983 C3981 1.388 . S
C3983 C3984 1.366 . S
C3984 C3983 1.366 . S
C3984 C3985 1.414 . S
C3984 C3987 1.499 . S
C3985 H3959 0.950 . S
C3985 C3984 1.414 . S
C3985 C3986 1.374 . S
C3986 H3960 0.950 . S
C3986 C3982 1.385 . S
C3986 C3985 1.374 . S
C3987 C3984 1.499 . S
C3987 C3988 1.373 . S
C3987 C3989 1.389 . S
C3988 H3961 0.950 . S
C3988 C3974 1.377 . S
C3988 C3987 1.373 . S
C3989 C3973 1.377 1_565 S
C3989 C3987 1.389 . S
C3989 C3990 1.524 1_565 S
C3990 C3989 1.524 1_545 S
C3990 C3991 1.397 . S
C3990 C3995 1.363 . S
C3991 H3962 0.950 . S
C3991 C3990 1.397 . S
C3991 C3992 1.334 . S
C3992 H3963 0.950 . S
C3992 C3991 1.334 . S
C3992 C3993 1.287 . S
C3993 C3992 1.287 . S
C3993 C3994 1.524 . S
C3993 H3996 0.999 . S
C3994 H3964 0.950 . S
C3994 C3993 1.524 . S
C3994 C3995 1.415 . S
C3995 H3965 0.950 . S
C3995 C3990 1.363 . S
C3995 C3994 1.415 . S
H3996 C3993 0.999 . S
H3997 C3978 0.913 . S
H3998 C4016 0.951 . S
H3999 C4018 0.951 . S
H4000 C4020 0.950 . S
H4001 C4021 0.950 . S
H4002 C4023 0.950 . S
H4003 C4026 0.950 . S
H4004 C4027 0.950 . S
H4005 C4029 0.950 . S
H4006 C4030 0.950 . S
H4007 C4031 0.951 . S
H4008 C4033 0.951 . S
H4009 C4035 0.950 . S
H4010 C4036 0.950 . S
H4011 C4038 0.950 . S
H4012 C4041 0.950 . S
H4013 C4042 0.950 . S
H4014 C4044 0.950 . S
H4015 C4045 0.950 . S
C4016 H3998 0.951 . S
C4016 C4017 1.366 . S
C4016 C4018 1.388 . S
C4017 C4016 1.366 . S
C4017 C4021 1.385 . S
C4018 H3999 0.951 . S
C4018 C4016 1.388 . S
C4018 C4019 1.366 . S
C4019 C4018 1.366 . S
C4019 C4020 1.414 . S
C4019 C4022 1.499 . S
C4020 H4000 0.950 . S
C4020 C4019 1.414 . S
C4020 C4021 1.374 . S
C4021 H4001 0.950 . S
C4021 C4017 1.385 . S
C4021 C4020 1.374 . S
C4022 C4019 1.499 . S
C4022 C4023 1.373 . S
C4022 C4024 1.389 . S
C4023 H4002 0.950 . S
C4023 C4022 1.373 . S
C4023 C4039 1.377 . S
C4024 C4022 1.389 . S
C4024 C4025 1.524 . S
C4024 C4038 1.377 . S
C4025 C4024 1.524 . S
C4025 C4026 1.397 . S
C4025 C4030 1.363 . S
C4026 H4003 0.950 . S
C4026 C4025 1.397 . S
C4026 C4027 1.334 . S
C4027 H4004 0.950 . S
C4027 C4026 1.334 . S
C4027 C4028 1.287 . S
C4028 C4027 1.287 . S
C4028 C4029 1.524 . S
C4028 H4047 0.913 . S
C4029 H4005 0.950 . S
C4029 C4028 1.524 . S
C4029 C4030 1.415 . S
C4030 H4006 0.950 . S
C4030 C4025 1.363 . S
C4030 C4029 1.415 . S
C4031 H4007 0.951 . S
C4031 C4032 1.366 . S
C4031 C4033 1.388 . S
C4032 C4031 1.366 . S
C4032 C4036 1.385 . S
C4033 H4008 0.951 . S
C4033 C4031 1.388 . S
C4033 C4034 1.366 . S
C4034 C4033 1.366 . S
C4034 C4035 1.414 . S
C4034 C4037 1.499 . S
C4035 H4009 0.950 . S
C4035 C4034 1.414 . S
C4035 C4036 1.374 . S
C4036 H4010 0.950 . S
C4036 C4032 1.385 . S
C4036 C4035 1.374 . S
C4037 C4034 1.499 . S
C4037 C4038 1.373 . S
C4037 C4039 1.389 . S
C4038 H4011 0.950 . S
C4038 C4024 1.377 . S
C4038 C4037 1.373 . S
C4039 C4023 1.377 . S
C4039 C4037 1.389 . S
C4039 C4040 1.524 . S
C4040 C4039 1.524 . S
C4040 C4041 1.397 . S
C4040 C4045 1.363 . S
C4041 H4012 0.950 . S
C4041 C4040 1.397 . S
C4041 C4042 1.334 . S
C4042 H4013 0.950 . S
C4042 C4041 1.334 . S
C4042 C4043 1.287 . S
C4043 C4042 1.287 . S
C4043 C4044 1.524 . S
C4043 H4046 0.999 . S
C4044 H4014 0.950 . S
C4044 C4043 1.524 . S
C4044 C4045 1.415 . S
C4045 H4015 0.950 . S
C4045 C4040 1.363 . S
C4045 C4044 1.415 . S
H4046 C4043 0.999 . S
H4047 C4028 0.913 . S
H4048 C4066 0.951 . S
H4049 C4068 0.951 . S
H4050 C4070 0.950 . S
H4051 C4071 0.950 . S
H4052 C4073 0.950 . S
H4053 C4076 0.950 . S
H4054 C4077 0.950 . S
H4055 C4079 0.950 . S
H4056 C4080 0.950 . S
H4057 C4081 0.951 . S
H4058 C4083 0.951 . S
H4059 C4085 0.950 . S
H4060 C4086 0.950 . S
H4061 C4088 0.950 . S
H4062 C4091 0.950 . S
H4063 C4092 0.950 . S
H4064 C4094 0.950 . S
H4065 C4095 0.950 . S
C4066 H4048 0.951 . S
C4066 C4067 1.366 . S
C4066 C4068 1.388 . S
C4067 C4066 1.366 . S
C4067 C4071 1.385 . S
C4068 H4049 0.951 . S
C4068 C4066 1.388 . S
C4068 C4069 1.366 . S
C4069 C4068 1.366 . S
C4069 C4070 1.414 . S
C4069 C4072 1.499 . S
C4070 H4050 0.950 . S
C4070 C4069 1.414 . S
C4070 C4071 1.374 . S
C4071 H4051 0.950 . S
C4071 C4067 1.385 . S
C4071 C4070 1.374 . S
C4072 C4069 1.499 . S
C4072 C4073 1.373 . S
C4072 C4074 1.389 . S
C4073 H4052 0.950 . S
C4073 C4072 1.373 . S
C4073 C4089 1.377 . S
C4074 C4072 1.389 . S
C4074 C4075 1.524 . S
C4074 C4088 1.377 . S
C4075 C4074 1.524 . S
C4075 C4076 1.397 . S
C4075 C4080 1.363 . S
C4076 H4053 0.950 . S
C4076 C4075 1.397 . S
C4076 C4077 1.334 . S
C4077 H4054 0.950 . S
C4077 C4076 1.334 . S
C4077 C4078 1.287 . S
C4078 C4077 1.287 . S
C4078 C4079 1.524 . S
C4078 H4097 0.913 . S
C4079 H4055 0.950 . S
C4079 C4078 1.524 . S
C4079 C4080 1.415 . S
C4080 H4056 0.950 . S
C4080 C4075 1.363 . S
C4080 C4079 1.415 . S
C4081 H4057 0.951 . S
C4081 C4082 1.366 . S
C4081 C4083 1.388 . S
C4082 C4081 1.366 . S
C4082 C4086 1.385 . S
C4083 H4058 0.951 . S
C4083 C4081 1.388 . S
C4083 C4084 1.366 . S
C4084 C4083 1.366 . S
C4084 C4085 1.414 . S
C4084 C4087 1.499 . S
C4085 H4059 0.950 . S
C4085 C4084 1.414 . S
C4085 C4086 1.374 . S
C4086 H4060 0.950 . S
C4086 C4082 1.385 . S
C4086 C4085 1.374 . S
C4087 C4084 1.499 . S
C4087 C4088 1.373 . S
C4087 C4089 1.389 . S
C4088 H4061 0.950 . S
C4088 C4074 1.377 . S
C4088 C4087 1.373 . S
C4089 C4073 1.377 . S
C4089 C4087 1.389 . S
C4089 C4090 1.524 . S
C4090 C4089 1.524 . S
C4090 C4091 1.397 . S
C4090 C4095 1.363 . S
C4091 H4062 0.950 . S
C4091 C4090 1.397 . S
C4091 C4092 1.334 . S
C4092 H4063 0.950 . S
C4092 C4091 1.334 . S
C4092 C4093 1.287 . S
C4093 C4092 1.287 . S
C4093 C4094 1.524 . S
C4093 H4096 0.999 . S
C4094 H4064 0.950 . S
C4094 C4093 1.524 . S
C4094 C4095 1.415 . S
C4095 H4065 0.950 . S
C4095 C4090 1.363 . S
C4095 C4094 1.415 . S
H4096 C4093 0.999 . S
H4097 C4078 0.913 . S
H4098 C4116 0.951 . S
H4099 C4118 0.951 . S
H4100 C4120 0.950 . S
H4101 C4121 0.950 . S
H4102 C4123 0.950 . S
H4103 C4126 0.950 . S
H4104 C4127 0.950 . S
H4105 C4129 0.950 . S
H4106 C4130 0.950 . S
H4107 C4131 0.951 . S
H4108 C4133 0.951 . S
H4109 C4135 0.950 . S
H4110 C4136 0.950 . S
H4111 C4138 0.950 . S
H4112 C4141 0.950 . S
H4113 C4142 0.950 . S
H4114 C4144 0.950 . S
H4115 C4145 0.950 . S
C4116 H4098 0.951 . S
C4116 C4117 1.366 . S
C4116 C4118 1.388 . S
C4117 C4116 1.366 . S
C4117 C4121 1.385 . S
C4118 H4099 0.951 . S
C4118 C4116 1.388 . S
C4118 C4119 1.366 . S
C4119 C4118 1.366 . S
C4119 C4120 1.414 . S
C4119 C4122 1.499 . S
C4120 H4100 0.950 . S
C4120 C4119 1.414 . S
C4120 C4121 1.374 . S
C4121 H4101 0.950 . S
C4121 C4117 1.385 . S
C4121 C4120 1.374 . S
C4122 C4119 1.499 . S
C4122 C4123 1.373 . S
C4122 C4124 1.389 . S
C4123 H4102 0.950 . S
C4123 C4122 1.373 . S
C4123 C4139 1.377 . S
C4124 C4122 1.389 . S
C4124 C4125 1.524 . S
C4124 C4138 1.377 . S
C4125 C4124 1.524 . S
C4125 C4126 1.397 . S
C4125 C4130 1.363 . S
C4126 H4103 0.950 . S
C4126 C4125 1.397 . S
C4126 C4127 1.334 . S
C4127 H4104 0.950 . S
C4127 C4126 1.334 . S
C4127 C4128 1.287 . S
C4128 C4127 1.287 . S
C4128 C4129 1.524 . S
C4128 H4147 0.913 . S
C4129 H4105 0.950 . S
C4129 C4128 1.524 . S
C4129 C4130 1.415 . S
C4130 H4106 0.950 . S
C4130 C4125 1.363 . S
C4130 C4129 1.415 . S
C4131 H4107 0.951 . S
C4131 C4132 1.366 . S
C4131 C4133 1.388 . S
C4132 C4131 1.366 . S
C4132 C4136 1.385 . S
C4133 H4108 0.951 . S
C4133 C4131 1.388 . S
C4133 C4134 1.366 . S
C4134 C4133 1.366 . S
C4134 C4135 1.414 . S
C4134 C4137 1.499 . S
C4135 H4109 0.950 . S
C4135 C4134 1.414 . S
C4135 C4136 1.374 . S
C4136 H4110 0.950 . S
C4136 C4132 1.385 . S
C4136 C4135 1.374 . S
C4137 C4134 1.499 . S
C4137 C4138 1.373 . S
C4137 C4139 1.389 . S
C4138 H4111 0.950 . S
C4138 C4124 1.377 . S
C4138 C4137 1.373 . S
C4139 C4123 1.377 . S
C4139 C4137 1.389 . S
C4139 C4140 1.524 . S
C4140 C4139 1.524 . S
C4140 C4141 1.397 . S
C4140 C4145 1.363 . S
C4141 H4112 0.950 . S
C4141 C4140 1.397 . S
C4141 C4142 1.334 . S
C4142 H4113 0.950 . S
C4142 C4141 1.334 . S
C4142 C4143 1.287 . S
C4143 C4142 1.287 . S
C4143 C4144 1.524 . S
C4143 H4146 0.999 . S
C4144 H4114 0.950 . S
C4144 C4143 1.524 . S
C4144 C4145 1.415 . S
C4145 H4115 0.950 . S
C4145 C4140 1.363 . S
C4145 C4144 1.415 . S
H4146 C4143 0.999 . S
H4147 C4128 0.913 . S
H4148 C4166 0.951 . S
H4149 C4168 0.951 . S
H4150 C4170 0.950 . S
H4151 C4171 0.950 . S
H4152 C4173 0.950 . S
H4153 C4176 0.950 . S
H4154 C4177 0.950 . S
H4155 C4179 0.950 . S
H4156 C4180 0.950 . S
H4157 C4181 0.951 . S
H4158 C4183 0.951 . S
H4159 C4185 0.950 . S
H4160 C4186 0.950 . S
H4161 C4188 0.950 . S
H4162 C4191 0.950 . S
H4163 C4192 0.950 . S
H4164 C4194 0.950 . S
H4165 C4195 0.950 . S
C4166 H4148 0.951 . S
C4166 C4167 1.366 . S
C4166 C4168 1.388 . S
C4167 C4166 1.366 . S
C4167 C4171 1.385 . S
C4168 H4149 0.951 . S
C4168 C4166 1.388 . S
C4168 C4169 1.366 . S
C4169 C4168 1.366 . S
C4169 C4170 1.414 . S
C4169 C4172 1.499 . S
C4170 H4150 0.950 . S
C4170 C4169 1.414 . S
C4170 C4171 1.374 . S
C4171 H4151 0.950 . S
C4171 C4167 1.385 . S
C4171 C4170 1.374 . S
C4172 C4169 1.499 . S
C4172 C4173 1.373 . S
C4172 C4174 1.389 . S
C4173 H4152 0.950 . S
C4173 C4172 1.373 . S
C4173 C4189 1.377 . S
C4174 C4172 1.389 . S
C4174 C4175 1.524 . S
C4174 C4188 1.377 . S
C4175 C4174 1.524 . S
C4175 C4176 1.397 . S
C4175 C4180 1.363 . S
C4176 H4153 0.950 . S
C4176 C4175 1.397 . S
C4176 C4177 1.334 . S
C4177 H4154 0.950 . S
C4177 C4176 1.334 . S
C4177 C4178 1.287 . S
C4178 C4177 1.287 . S
C4178 C4179 1.524 . S
C4178 H4197 0.913 . S
C4179 H4155 0.950 . S
C4179 C4178 1.524 . S
C4179 C4180 1.415 . S
C4180 H4156 0.950 . S
C4180 C4175 1.363 . S
C4180 C4179 1.415 . S
C4181 H4157 0.951 . S
C4181 C4182 1.366 . S
C4181 C4183 1.388 . S
C4182 C4181 1.366 . S
C4182 C4186 1.385 . S
C4183 H4158 0.951 . S
C4183 C4181 1.388 . S
C4183 C4184 1.366 . S
C4184 C4183 1.366 . S
C4184 C4185 1.414 . S
C4184 C4187 1.499 . S
C4185 H4159 0.950 . S
C4185 C4184 1.414 . S
C4185 C4186 1.374 . S
C4186 H4160 0.950 . S
C4186 C4182 1.385 . S
C4186 C4185 1.374 . S
C4187 C4184 1.499 . S
C4187 C4188 1.373 . S
C4187 C4189 1.389 . S
C4188 H4161 0.950 . S
C4188 C4174 1.377 . S
C4188 C4187 1.373 . S
C4189 C4173 1.377 . S
C4189 C4187 1.389 . S
C4189 C4190 1.524 . S
C4190 C4189 1.524 . S
C4190 C4191 1.397 . S
C4190 C4195 1.363 . S
C4191 H4162 0.950 . S
C4191 C4190 1.397 . S
C4191 C4192 1.334 . S
C4192 H4163 0.950 . S
C4192 C4191 1.334 . S
C4192 C4193 1.287 . S
C4193 C4192 1.287 . S
C4193 C4194 1.524 . S
C4193 H4196 0.999 . S
C4194 H4164 0.950 . S
C4194 C4193 1.524 . S
C4194 C4195 1.415 . S
C4195 H4165 0.950 . S
C4195 C4190 1.363 . S
C4195 C4194 1.415 . S
H4196 C4193 0.999 . S
H4197 C4178 0.913 . S
H4198 C4216 0.951 . S
H4199 C4218 0.951 . S
H4200 C4220 0.950 . S
H4201 C4221 0.950 . S
H4202 C4223 0.950 . S
H4203 C4226 0.950 1_565 S
H4204 C4227 0.950 . S
H4205 C4229 0.950 . S
H4206 C4230 0.955 . S
H4207 C4231 0.951 . S
H4208 C4233 0.951 . S
H4209 C4235 0.950 . S
H4210 C4236 0.950 . S
H4211 C4238 0.950 . S
H4212 C4241 0.950 . S
H4213 C4242 0.950 . S
H4214 C4244 0.950 . S
H4215 C4245 0.950 . S
C4216 H4198 0.951 . S
C4216 C4217 1.366 . S
C4216 C4218 1.388 . S
C4217 C4216 1.366 . S
C4217 C4221 1.385 . S
C4218 H4199 0.951 . S
C4218 C4216 1.388 . S
C4218 C4219 1.366 . S
C4219 C4218 1.366 . S
C4219 C4220 1.414 . S
C4219 C4222 1.499 . S
C4220 H4200 0.950 . S
C4220 C4219 1.414 . S
C4220 C4221 1.374 . S
C4221 H4201 0.950 . S
C4221 C4217 1.385 . S
C4221 C4220 1.374 . S
C4222 C4219 1.499 . S
C4222 C4223 1.373 . S
C4222 C4224 1.389 . S
C4223 H4202 0.950 . S
C4223 C4222 1.373 . S
C4223 C4239 1.341 1_655 S
C4224 C4222 1.389 . S
C4224 C4225 1.524 . S
C4224 C4238 1.377 1_655 S
C4225 C4224 1.524 . S
C4225 C4226 1.397 1_565 S
C4225 C4230 1.363 1_565 S
C4226 H4203 0.950 1_545 S
C4226 C4225 1.397 1_545 S
C4226 C4227 1.334 . S
C4227 H4204 0.950 . S
C4227 C4226 1.334 . S
C4227 C4228 1.287 . S
C4228 C4227 1.287 . S
C4228 C4229 1.524 . S
C4228 H4247 0.913 . S
C4229 H4205 0.950 . S
C4229 C4228 1.524 . S
C4229 C4230 1.415 . S
C4230 H4206 0.955 . S
C4230 C4225 1.363 1_545 S
C4230 C4229 1.415 . S
C4231 H4207 0.951 . S
C4231 C4232 1.366 . S
C4231 C4233 1.388 . S
C4232 C4231 1.366 . S
C4232 C4236 1.385 . S
C4233 H4208 0.951 . S
C4233 C4231 1.388 . S
C4233 C4234 1.366 . S
C4234 C4233 1.366 . S
C4234 C4235 1.414 . S
C4234 C4237 1.499 . S
C4235 H4209 0.950 . S
C4235 C4234 1.414 . S
C4235 C4236 1.374 . S
C4236 H4210 0.950 . S
C4236 C4232 1.385 . S
C4236 C4235 1.374 . S
C4237 C4234 1.499 . S
C4237 C4238 1.373 . S
C4237 C4239 1.417 . S
C4238 H4211 0.950 . S
C4238 C4224 1.377 1_455 S
C4238 C4237 1.373 . S
C4239 C4223 1.341 1_455 S
C4239 C4237 1.417 . S
C4239 C4240 1.530 . S
C4240 C4239 1.530 . S
C4240 C4241 1.397 . S
C4240 C4245 1.363 1_455 S
C4241 H4212 0.950 . S
C4241 C4240 1.397 . S
C4241 C4242 1.334 . S
C4242 H4213 0.950 . S
C4242 C4241 1.334 . S
C4242 C4243 1.287 . S
C4243 C4242 1.287 . S
C4243 C4244 1.524 1_455 S
C4243 H4246 0.999 . S
C4244 H4214 0.950 . S
C4244 C4243 1.524 1_655 S
C4244 C4245 1.415 . S
C4245 H4215 0.950 . S
C4245 C4240 1.363 1_655 S
C4245 C4244 1.415 . S
H4246 C4243 0.999 . S
H4247 C4228 0.913 . S
H4248 C4266 0.951 . S
H4249 C4268 0.951 . S
H4250 C4270 0.950 . S
H4251 C4271 0.950 . S
H4252 C4273 0.950 . S
H4253 C4276 0.950 . S
H4254 C4277 0.950 . S
H4255 C4279 0.950 . S
H4256 C4280 0.950 . S
H4257 C4281 0.951 . S
H4258 C4283 0.951 . S
H4259 C4285 0.950 . S
H4260 C4286 0.950 . S
H4261 C4288 0.950 . S
H4262 C4291 0.950 . S
H4263 C4292 0.950 . S
H4264 C4294 0.950 . S
H4265 C4295 0.950 . S
C4266 H4248 0.951 . S
C4266 C4267 1.366 . S
C4266 C4268 1.388 . S
C4267 C4266 1.366 . S
C4267 C4271 1.385 . S
C4268 H4249 0.951 . S
C4268 C4266 1.388 . S
C4268 C4269 1.366 . S
C4269 C4268 1.366 . S
C4269 C4270 1.414 . S
C4269 C4272 1.499 . S
C4270 H4250 0.950 . S
C4270 C4269 1.414 . S
C4270 C4271 1.374 . S
C4271 H4251 0.950 . S
C4271 C4267 1.385 . S
C4271 C4270 1.374 . S
C4272 C4269 1.499 . S
C4272 C4273 1.373 . S
C4272 C4274 1.389 . S
C4273 H4252 0.950 . S
C4273 C4272 1.373 . S
C4273 C4289 1.377 . S
C4274 C4272 1.389 . S
C4274 C4275 1.524 . S
C4274 C4288 1.377 . S
C4275 C4274 1.524 . S
C4275 C4276 1.397 . S
C4275 C4280 1.363 . S
C4276 H4253 0.950 . S
C4276 C4275 1.397 . S
C4276 C4277 1.334 . S
C4277 H4254 0.950 . S
C4277 C4276 1.334 . S
C4277 C4278 1.287 . S
C4278 C4277 1.287 . S
C4278 C4279 1.524 . S
C4278 H4297 0.913 . S
C4279 H4255 0.950 . S
C4279 C4278 1.524 . S
C4279 C4280 1.415 . S
C4280 H4256 0.950 . S
C4280 C4275 1.363 . S
C4280 C4279 1.415 . S
C4281 H4257 0.951 . S
C4281 C4282 1.366 . S
C4281 C4283 1.388 . S
C4282 C4281 1.366 . S
C4282 C4286 1.385 . S
C4283 H4258 0.951 . S
C4283 C4281 1.388 . S
C4283 C4284 1.366 . S
C4284 C4283 1.366 . S
C4284 C4285 1.414 . S
C4284 C4287 1.499 . S
C4285 H4259 0.950 . S
C4285 C4284 1.414 . S
C4285 C4286 1.374 . S
C4286 H4260 0.950 . S
C4286 C4282 1.385 . S
C4286 C4285 1.374 . S
C4287 C4284 1.499 . S
C4287 C4288 1.373 . S
C4287 C4289 1.389 . S
C4288 H4261 0.950 . S
C4288 C4274 1.377 . S
C4288 C4287 1.373 . S
C4289 C4273 1.377 . S
C4289 C4287 1.389 . S
C4289 C4290 1.524 . S
C4290 C4289 1.524 . S
C4290 C4291 1.397 . S
C4290 C4295 1.363 . S
C4291 H4262 0.950 . S
C4291 C4290 1.397 . S
C4291 C4292 1.334 . S
C4292 H4263 0.950 . S
C4292 C4291 1.334 . S
C4292 C4293 1.287 . S
C4293 C4292 1.287 . S
C4293 C4294 1.524 . S
C4293 H4296 0.999 . S
C4294 H4264 0.950 . S
C4294 C4293 1.524 . S
C4294 C4295 1.415 . S
C4295 H4265 0.950 . S
C4295 C4290 1.363 . S
C4295 C4294 1.415 . S
H4296 C4293 0.999 . S
H4297 C4278 0.913 . S
H4298 C4316 0.951 . S
H4299 C4318 0.951 . S
H4300 C4320 0.950 . S
H4301 C4321 0.950 . S
H4302 C4323 0.950 . S
H4303 C4326 0.950 . S
H4304 C4327 0.950 . S
H4305 C4329 0.950 . S
H4306 C4330 0.950 . S
H4307 C4331 0.951 . S
H4308 C4333 0.951 . S
H4309 C4335 0.950 . S
H4310 C4336 0.950 . S
H4311 C4338 0.950 . S
H4312 C4341 0.950 . S
H4313 C4342 0.950 . S
H4314 C4344 0.950 . S
H4315 C4345 0.950 . S
C4316 H4298 0.951 . S
C4316 C4317 1.366 . S
C4316 C4318 1.388 . S
C4317 C4316 1.366 . S
C4317 C4321 1.385 . S
C4318 H4299 0.951 . S
C4318 C4316 1.388 . S
C4318 C4319 1.366 . S
C4319 C4318 1.366 . S
C4319 C4320 1.414 . S
C4319 C4322 1.499 . S
C4320 H4300 0.950 . S
C4320 C4319 1.414 . S
C4320 C4321 1.374 . S
C4321 H4301 0.950 . S
C4321 C4317 1.385 . S
C4321 C4320 1.374 . S
C4322 C4319 1.499 . S
C4322 C4323 1.373 . S
C4322 C4324 1.389 . S
C4323 H4302 0.950 . S
C4323 C4322 1.373 . S
C4323 C4339 1.377 1_556 S
C4324 C4322 1.389 . S
C4324 C4325 1.524 . S
C4324 C4338 1.377 1_556 S
C4325 C4324 1.524 . S
C4325 C4326 1.397 . S
C4325 C4330 1.363 . S
C4326 H4303 0.950 . S
C4326 C4325 1.397 . S
C4326 C4327 1.334 . S
C4327 H4304 0.950 . S
C4327 C4326 1.334 . S
C4327 C4328 1.287 . S
C4328 C4327 1.287 . S
C4328 C4329 1.524 . S
C4328 H4347 0.913 . S
C4329 H4305 0.950 . S
C4329 C4328 1.524 . S
C4329 C4330 1.415 . S
C4330 H4306 0.950 . S
C4330 C4325 1.363 . S
C4330 C4329 1.415 . S
C4331 H4307 0.951 . S
C4331 C4332 1.366 . S
C4331 C4333 1.388 . S
C4332 C4331 1.366 . S
C4332 C4336 1.385 . S
C4333 H4308 0.951 . S
C4333 C4331 1.388 . S
C4333 C4334 1.366 . S
C4334 C4333 1.366 . S
C4334 C4335 1.414 . S
C4334 C4337 1.499 . S
C4335 H4309 0.950 . S
C4335 C4334 1.414 . S
C4335 C4336 1.374 . S
C4336 H4310 0.950 . S
C4336 C4332 1.385 . S
C4336 C4335 1.374 . S
C4337 C4334 1.499 . S
C4337 C4338 1.373 . S
C4337 C4339 1.389 . S
C4338 H4311 0.950 . S
C4338 C4324 1.377 1_554 S
C4338 C4337 1.373 . S
C4339 C4323 1.377 1_554 S
C4339 C4337 1.389 . S
C4339 C4340 1.524 . S
C4340 C4339 1.524 . S
C4340 C4341 1.397 . S
C4340 C4345 1.363 . S
C4341 H4312 0.950 . S
C4341 C4340 1.397 . S
C4341 C4342 1.334 . S
C4342 H4313 0.950 . S
C4342 C4341 1.334 . S
C4342 C4343 1.287 . S
C4343 C4342 1.287 . S
C4343 C4344 1.524 . S
C4343 H4346 0.999 . S
C4344 H4314 0.950 . S
C4344 C4343 1.524 . S
C4344 C4345 1.415 . S
C4345 H4315 0.950 . S
C4345 C4340 1.363 . S
C4345 C4344 1.415 . S
H4346 C4343 0.999 . S
H4347 C4328 0.913 . S
H4348 C4366 0.951 . S
H4349 C4368 0.951 . S
H4350 C4370 0.950 . S
H4351 C4371 0.950 . S
H4352 C4373 0.950 . S
H4353 C4376 0.950 . S
H4354 C4377 0.950 . S
H4355 C4379 0.993 . S
H4356 C4380 0.950 . S
H4357 C4381 0.951 . S
H4358 C4383 0.951 . S
H4359 C4385 0.950 . S
H4360 C4386 0.950 . S
H4361 C4388 0.950 . S
H4362 C4391 0.950 . S
H4363 C4392 0.950 . S
H4364 C4394 0.950 . S
H4365 C4395 0.950 . S
C4366 H4348 0.951 . S
C4366 C4367 1.366 . S
C4366 C4368 1.388 . S
C4367 C4366 1.366 . S
C4367 C4371 1.385 . S
C4368 H4349 0.951 . S
C4368 C4366 1.388 . S
C4368 C4369 1.366 . S
C4369 C4368 1.366 . S
C4369 C4370 1.414 . S
C4369 C4372 1.499 . S
C4370 H4350 0.950 . S
C4370 C4369 1.414 . S
C4370 C4371 1.374 . S
C4371 H4351 0.950 . S
C4371 C4367 1.385 . S
C4371 C4370 1.374 . S
C4372 C4369 1.499 . S
C4372 C4373 1.373 . S
C4372 C4374 1.389 . S
C4373 H4352 0.950 . S
C4373 C4372 1.373 . S
C4373 C4389 1.377 . S
C4374 C4372 1.389 . S
C4374 C4375 1.524 . S
C4374 C4388 1.377 . S
C4375 C4374 1.524 . S
C4375 C4376 1.397 . S
C4375 C4380 1.363 . S
C4376 H4353 0.950 . S
C4376 C4375 1.397 . S
C4376 C4377 1.334 . S
C4377 H4354 0.950 . S
C4377 C4376 1.334 . S
C4377 C4378 1.287 . S
C4378 C4377 1.287 . S
C4378 C4379 1.524 . S
C4378 H4397 0.913 . S
C4379 H4355 0.993 . S
C4379 C4378 1.524 . S
C4379 C4380 1.415 . S
C4380 H4356 0.950 . S
C4380 C4375 1.363 . S
C4380 C4379 1.415 . S
C4381 H4357 0.951 . S
C4381 C4382 1.366 . S
C4381 C4383 1.388 . S
C4382 C4381 1.366 . S
C4382 C4386 1.385 . S
C4383 H4358 0.951 . S
C4383 C4381 1.388 . S
C4383 C4384 1.366 . S
C4384 C4383 1.366 . S
C4384 C4385 1.414 . S
C4384 C4387 1.499 . S
C4385 H4359 0.950 . S
C4385 C4384 1.414 . S
C4385 C4386 1.374 . S
C4386 H4360 0.950 . S
C4386 C4382 1.385 . S
C4386 C4385 1.374 . S
C4387 C4384 1.499 . S
C4387 C4388 1.373 . S
C4387 C4389 1.389 . S
C4388 H4361 0.950 . S
C4388 C4374 1.377 . S
C4388 C4387 1.373 . S
C4389 C4373 1.377 . S
C4389 C4387 1.389 . S
C4389 C4390 1.524 . S
C4390 C4389 1.524 . S
C4390 C4391 1.397 . S
C4390 C4395 1.363 . S
C4391 H4362 0.950 . S
C4391 C4390 1.397 . S
C4391 C4392 1.334 . S
C4392 H4363 0.950 . S
C4392 C4391 1.334 . S
C4392 C4393 1.287 . S
C4393 C4392 1.287 . S
C4393 C4394 1.524 . S
C4393 H4396 0.999 . S
C4394 H4364 0.950 . S
C4394 C4393 1.524 . S
C4394 C4395 1.415 . S
C4395 H4365 0.950 . S
C4395 C4390 1.363 . S
C4395 C4394 1.415 . S
H4396 C4393 0.999 . S
H4397 C4378 0.913 . S
H4398 C4416 0.951 . S
H4399 C4418 0.951 . S
H4400 C4420 0.950 . S
H4401 C4421 0.950 . S
H4402 C4423 0.950 . S
H4403 C4426 0.950 . S
H4404 C4427 0.950 . S
H4405 C4429 0.950 . S
H4406 C4430 0.950 . S
H4407 C4431 0.951 . S
H4408 C4433 0.951 . S
H4409 C4435 0.950 . S
H4410 C4436 0.950 . S
H4411 C4438 0.950 . S
H4412 C4441 0.950 . S
H4413 C4442 0.950 . S
H4414 C4444 0.950 1_655 S
H4415 C4445 0.950 . S
C4416 H4398 0.951 . S
C4416 C4417 1.366 . S
C4416 C4418 1.388 . S
C4417 C4416 1.366 . S
C4417 C4421 1.385 . S
C4418 H4399 0.951 . S
C4418 C4416 1.388 . S
C4418 C4419 1.366 . S
C4419 C4418 1.366 . S
C4419 C4420 1.414 . S
C4419 C4422 1.499 . S
C4420 H4400 0.950 . S
C4420 C4419 1.414 . S
C4420 C4421 1.374 . S
C4421 H4401 0.950 . S
C4421 C4417 1.385 . S
C4421 C4420 1.374 . S
C4422 C4419 1.499 . S
C4422 C4423 1.373 . S
C4422 C4424 1.389 . S
C4423 H4402 0.950 . S
C4423 C4422 1.373 . S
C4423 C4439 1.377 . S
C4424 C4422 1.389 . S
C4424 C4425 1.524 . S
C4424 C4438 1.377 . S
C4425 C4424 1.524 . S
C4425 C4426 1.397 . S
C4425 C4430 1.363 . S
C4426 H4403 0.950 . S
C4426 C4425 1.397 . S
C4426 C4427 1.334 . S
C4427 H4404 0.950 . S
C4427 C4426 1.334 . S
C4427 C4428 1.287 . S
C4428 C4427 1.287 . S
C4428 C4429 1.524 . S
C4428 H4447 0.913 . S
C4429 H4405 0.950 . S
C4429 C4428 1.524 . S
C4429 C4430 1.415 . S
C4430 H4406 0.950 . S
C4430 C4425 1.363 . S
C4430 C4429 1.415 . S
C4431 H4407 0.951 . S
C4431 C4432 1.366 . S
C4431 C4433 1.388 . S
C4432 C4431 1.366 . S
C4432 C4436 1.385 . S
C4433 H4408 0.951 . S
C4433 C4431 1.388 . S
C4433 C4434 1.366 . S
C4434 C4433 1.366 . S
C4434 C4435 1.414 . S
C4434 C4437 1.499 . S
C4435 H4409 0.950 . S
C4435 C4434 1.414 . S
C4435 C4436 1.374 . S
C4436 H4410 0.950 . S
C4436 C4432 1.385 . S
C4436 C4435 1.374 . S
C4437 C4434 1.499 . S
C4437 C4438 1.373 . S
C4437 C4439 1.389 . S
C4438 H4411 0.950 . S
C4438 C4424 1.377 . S
C4438 C4437 1.373 . S
C4439 C4423 1.377 . S
C4439 C4437 1.389 . S
C4439 C4440 1.524 . S
C4440 C4439 1.524 . S
C4440 C4441 1.397 . S
C4440 C4445 1.363 . S
C4441 H4412 0.950 . S
C4441 C4440 1.397 . S
C4441 C4442 1.334 . S
C4442 H4413 0.950 . S
C4442 C4441 1.334 . S
C4442 C4443 1.304 . S
C4443 C4442 1.304 . S
C4443 C4444 1.530 . S
C4443 H4446 0.975 1_455 S
C4444 H4414 0.950 1_455 S
C4444 C4443 1.530 . S
C4444 C4445 1.415 . S
C4445 H4415 0.950 . S
C4445 C4440 1.363 . S
C4445 C4444 1.415 . S
H4446 C4443 0.975 1_655 S
H4447 C4428 0.913 . S
H4448 C4466 0.951 . S
H4449 C4468 0.951 . S
H4450 C4470 0.950 . S
H4451 C4471 0.950 . S
H4452 C4473 0.950 . S
H4453 C4476 0.950 . S
H4454 C4477 0.950 . S
H4455 C4479 0.950 . S
H4456 C4480 0.950 . S
H4457 C4481 0.951 . S
H4458 C4483 0.951 . S
H4459 C4485 0.950 . S
H4460 C4486 0.950 . S
H4461 C4488 0.950 . S
H4462 C4491 0.950 . S
H4463 C4492 0.950 . S
H4464 C4494 0.950 . S
H4465 C4495 0.950 . S
C4466 H4448 0.951 . S
C4466 C4467 1.366 . S
C4466 C4468 1.388 . S
C4467 C4466 1.366 . S
C4467 C4471 1.385 . S
C4468 H4449 0.951 . S
C4468 C4466 1.388 . S
C4468 C4469 1.366 . S
C4469 C4468 1.366 . S
C4469 C4470 1.414 . S
C4469 C4472 1.499 . S
C4470 H4450 0.950 . S
C4470 C4469 1.414 . S
C4470 C4471 1.374 . S
C4471 H4451 0.950 . S
C4471 C4467 1.385 . S
C4471 C4470 1.374 . S
C4472 C4469 1.499 . S
C4472 C4473 1.373 . S
C4472 C4474 1.389 . S
C4473 H4452 0.950 . S
C4473 C4472 1.373 . S
C4473 C4489 1.377 . S
C4474 C4472 1.389 . S
C4474 C4475 1.524 . S
C4474 C4488 1.377 . S
C4475 C4474 1.524 . S
C4475 C4476 1.397 . S
C4475 C4480 1.363 . S
C4476 H4453 0.950 . S
C4476 C4475 1.397 . S
C4476 C4477 1.334 . S
C4477 H4454 0.950 . S
C4477 C4476 1.334 . S
C4477 C4478 1.287 . S
C4478 C4477 1.287 . S
C4478 C4479 1.524 . S
C4478 H4497 0.913 . S
C4479 H4455 0.950 . S
C4479 C4478 1.524 . S
C4479 C4480 1.415 . S
C4480 H4456 0.950 . S
C4480 C4475 1.363 . S
C4480 C4479 1.415 . S
C4481 H4457 0.951 . S
C4481 C4482 1.366 . S
C4481 C4483 1.388 . S
C4482 C4481 1.366 . S
C4482 C4486 1.385 . S
C4483 H4458 0.951 . S
C4483 C4481 1.388 . S
C4483 C4484 1.366 . S
C4484 C4483 1.366 . S
C4484 C4485 1.414 . S
C4484 C4487 1.499 . S
C4485 H4459 0.950 . S
C4485 C4484 1.414 . S
C4485 C4486 1.374 . S
C4486 H4460 0.950 . S
C4486 C4482 1.385 . S
C4486 C4485 1.374 . S
C4487 C4484 1.499 . S
C4487 C4488 1.373 . S
C4487 C4489 1.389 . S
C4488 H4461 0.950 . S
C4488 C4474 1.377 . S
C4488 C4487 1.373 . S
C4489 C4473 1.377 . S
C4489 C4487 1.389 . S
C4489 C4490 1.524 . S
C4490 C4489 1.524 . S
C4490 C4491 1.397 . S
C4490 C4495 1.363 . S
C4491 H4462 0.950 . S
C4491 C4490 1.397 . S
C4491 C4492 1.334 . S
C4492 H4463 0.950 . S
C4492 C4491 1.334 . S
C4492 C4493 1.287 . S
C4493 C4492 1.287 . S
C4493 C4494 1.524 . S
C4493 H4496 0.999 . S
C4494 H4464 0.950 . S
C4494 C4493 1.524 . S
C4494 C4495 1.415 . S
C4495 H4465 0.950 . S
C4495 C4490 1.363 . S
C4495 C4494 1.415 . S
H4496 C4493 0.999 . S
H4497 C4478 0.913 . S
H4498 C4516 0.951 . S
H4499 C4518 0.951 . S
H4500 C4520 0.950 . S
H4501 C4521 0.950 . S
H4502 C4523 0.950 . S
H4503 C4526 0.950 . S
H4504 C4527 0.950 1_655 S
H4505 C4529 0.950 . S
H4506 C4530 0.950 . S
H4507 C4531 0.951 . S
H4508 C4533 0.951 . S
H4509 C4535 0.950 . S
H4510 C4536 0.950 . S
H4511 C4538 0.950 . S
H4512 C4541 0.950 . S
H4513 C4542 0.950 . S
H4514 C4544 0.950 . S
H4515 C4545 0.950 . S
C4516 H4498 0.951 . S
C4516 C4517 1.366 . S
C4516 C4518 1.388 . S
C4517 C4516 1.366 . S
C4517 C4521 1.385 . S
C4518 H4499 0.951 . S
C4518 C4516 1.388 . S
C4518 C4519 1.366 . S
C4519 C4518 1.366 . S
C4519 C4520 1.414 . S
C4519 C4522 1.499 . S
C4520 H4500 0.950 . S
C4520 C4519 1.414 . S
C4520 C4521 1.374 . S
C4521 H4501 0.950 . S
C4521 C4517 1.385 . S
C4521 C4520 1.374 . S
C4522 C4519 1.499 . S
C4522 C4523 1.373 . S
C4522 C4524 1.389 . S
C4523 H4502 0.950 . S
C4523 C4522 1.373 . S
C4523 C4539 1.377 . S
C4524 C4522 1.389 . S
C4524 C4525 1.524 . S
C4524 C4538 1.377 1_554 S
C4525 C4524 1.524 . S
C4525 C4526 1.397 . S
C4525 C4530 1.363 1_554 S
C4526 H4503 0.950 . S
C4526 C4525 1.397 . S
C4526 C4527 1.334 . S
C4527 H4504 0.950 1_455 S
C4527 C4526 1.334 . S
C4527 C4528 1.287 1_554 S
C4528 C4527 1.287 1_556 S
C4528 C4529 1.524 . S
C4528 H4547 0.913 . S
C4529 H4505 0.950 . S
C4529 C4528 1.524 . S
C4529 C4530 1.415 . S
C4530 H4506 0.950 . S
C4530 C4525 1.363 1_556 S
C4530 C4529 1.415 . S
C4531 H4507 0.951 . S
C4531 C4532 1.366 . S
C4531 C4533 1.388 . S
C4532 C4531 1.366 . S
C4532 C4536 1.385 . S
C4533 H4508 0.951 . S
C4533 C4531 1.388 . S
C4533 C4534 1.366 . S
C4534 C4533 1.366 . S
C4534 C4535 1.414 . S
C4534 C4537 1.499 . S
C4535 H4509 0.950 . S
C4535 C4534 1.414 . S
C4535 C4536 1.374 . S
C4536 H4510 0.950 . S
C4536 C4532 1.385 . S
C4536 C4535 1.374 . S
C4537 C4534 1.499 . S
C4537 C4538 1.373 . S
C4537 C4539 1.389 1_556 S
C4538 H4511 0.950 . S
C4538 C4524 1.377 1_556 S
C4538 C4537 1.373 . S
C4539 C4523 1.377 . S
C4539 C4537 1.389 1_554 S
C4539 C4540 1.524 . S
C4540 C4539 1.524 . S
C4540 C4541 1.397 . S
C4540 C4545 1.363 . S
C4541 H4512 0.950 . S
C4541 C4540 1.397 . S
C4541 C4542 1.334 . S
C4542 H4513 0.950 . S
C4542 C4541 1.334 . S
C4542 C4543 1.287 . S
C4543 C4542 1.287 . S
C4543 C4544 1.524 . S
C4543 H4546 0.999 . S
C4544 H4514 0.950 . S
C4544 C4543 1.524 . S
C4544 C4545 1.415 . S
C4545 H4515 0.950 . S
C4545 C4540 1.363 . S
C4545 C4544 1.415 . S
H4546 C4543 0.999 . S
H4547 C4528 0.913 . S
H4548 C4566 0.951 . S
H4549 C4568 0.951 . S
H4550 C4570 0.950 . S
H4551 C4571 0.950 . S
H4552 C4573 0.950 . S
H4553 C4576 0.950 . S
H4554 C4577 0.950 . S
H4555 C4579 0.950 . S
H4556 C4580 0.950 . S
H4557 C4581 0.951 . S
H4558 C4583 0.951 . S
H4559 C4585 0.950 . S
H4560 C4586 0.950 . S
H4561 C4588 0.950 . S
H4562 C4591 0.950 . S
H4563 C4592 0.950 . S
H4564 C4594 0.950 . S
H4565 C4595 0.950 . S
C4566 H4548 0.951 . S
C4566 C4567 1.366 . S
C4566 C4568 1.388 . S
C4567 C4566 1.366 . S
C4567 C4571 1.385 . S
C4568 H4549 0.951 . S
C4568 C4566 1.388 . S
C4568 C4569 1.366 . S
C4569 C4568 1.366 . S
C4569 C4570 1.414 . S
C4569 C4572 1.499 . S
C4570 H4550 0.950 . S
C4570 C4569 1.414 . S
C4570 C4571 1.374 . S
C4571 H4551 0.950 . S
C4571 C4567 1.385 . S
C4571 C4570 1.374 . S
C4572 C4569 1.499 . S
C4572 C4573 1.373 . S
C4572 C4574 1.389 . S
C4573 H4552 0.950 . S
C4573 C4572 1.373 . S
C4573 C4589 1.377 . S
C4574 C4572 1.389 . S
C4574 C4575 1.524 . S
C4574 C4588 1.377 . S
C4575 C4574 1.524 . S
C4575 C4576 1.397 . S
C4575 C4580 1.363 . S
C4576 H4553 0.950 . S
C4576 C4575 1.397 . S
C4576 C4577 1.334 . S
C4577 H4554 0.950 . S
C4577 C4576 1.334 . S
C4577 C4578 1.287 . S
C4578 C4577 1.287 . S
C4578 C4579 1.524 . S
C4578 H4597 0.913 . S
C4579 H4555 0.950 . S
C4579 C4578 1.524 . S
C4579 C4580 1.415 . S
C4580 H4556 0.950 . S
C4580 C4575 1.363 . S
C4580 C4579 1.415 . S
C4581 H4557 0.951 . S
C4581 C4582 1.366 . S
C4581 C4583 1.388 . S
C4582 C4581 1.366 . S
C4582 C4586 1.385 . S
C4583 H4558 0.951 . S
C4583 C4581 1.388 . S
C4583 C4584 1.366 . S
C4584 C4583 1.366 . S
C4584 C4585 1.414 . S
C4584 C4587 1.499 . S
C4585 H4559 0.950 . S
C4585 C4584 1.414 . S
C4585 C4586 1.374 . S
C4586 H4560 0.950 . S
C4586 C4582 1.385 . S
C4586 C4585 1.374 . S
C4587 C4584 1.499 . S
C4587 C4588 1.373 . S
C4587 C4589 1.389 . S
C4588 H4561 0.950 . S
C4588 C4574 1.377 . S
C4588 C4587 1.373 . S
C4589 C4573 1.377 . S
C4589 C4587 1.389 . S
C4589 C4590 1.524 . S
C4590 C4589 1.524 . S
C4590 C4591 1.397 . S
C4590 C4595 1.363 . S
C4591 H4562 0.950 . S
C4591 C4590 1.397 . S
C4591 C4592 1.334 . S
C4592 H4563 0.950 . S
C4592 C4591 1.334 . S
C4592 C4593 1.287 . S
C4593 C4592 1.287 . S
C4593 C4594 1.524 . S
C4593 H4596 0.999 . S
C4594 H4564 0.950 . S
C4594 C4593 1.524 . S
C4594 C4595 1.415 . S
C4595 H4565 0.950 . S
C4595 C4590 1.363 . S
C4595 C4594 1.415 . S
H4596 C4593 0.999 . S
H4597 C4578 0.913 . S
H4598 C4616 0.951 . S
H4599 C4618 0.951 . S
H4600 C4620 0.950 . S
H4601 C4621 0.950 . S
H4602 C4623 0.950 . S
H4603 C4626 0.950 . S
H4604 C4627 0.950 . S
H4605 C4629 0.950 . S
H4606 C4630 0.950 . S
H4607 C4631 0.951 . S
H4608 C4633 0.951 . S
H4609 C4635 0.950 . S
H4610 C4636 0.950 . S
H4611 C4638 0.950 . S
H4612 C4641 0.950 . S
H4613 C4642 0.950 . S
H4614 C4644 0.950 . S
H4615 C4645 0.950 . S
C4616 H4598 0.951 . S
C4616 C4617 1.366 . S
C4616 C4618 1.388 . S
C4617 C4616 1.366 . S
C4617 C4621 1.385 . S
C4618 H4599 0.951 . S
C4618 C4616 1.388 . S
C4618 C4619 1.366 . S
C4619 C4618 1.366 . S
C4619 C4620 1.414 . S
C4619 C4622 1.499 . S
C4620 H4600 0.950 . S
C4620 C4619 1.414 . S
C4620 C4621 1.374 . S
C4621 H4601 0.950 . S
C4621 C4617 1.385 . S
C4621 C4620 1.374 . S
C4622 C4619 1.499 . S
C4622 C4623 1.373 . S
C4622 C4624 1.389 . S
C4623 H4602 0.950 . S
C4623 C4622 1.373 . S
C4623 C4639 1.377 . S
C4624 C4622 1.389 . S
C4624 C4625 1.524 . S
C4624 C4638 1.377 . S
C4625 C4624 1.524 . S
C4625 C4626 1.397 . S
C4625 C4630 1.363 . S
C4626 H4603 0.950 . S
C4626 C4625 1.397 . S
C4626 C4627 1.334 . S
C4627 H4604 0.950 . S
C4627 C4626 1.334 . S
C4627 C4628 1.287 . S
C4628 C4627 1.287 . S
C4628 C4629 1.524 . S
C4628 H4647 0.913 . S
C4629 H4605 0.950 . S
C4629 C4628 1.524 . S
C4629 C4630 1.415 . S
C4630 H4606 0.950 . S
C4630 C4625 1.363 . S
C4630 C4629 1.415 . S
C4631 H4607 0.951 . S
C4631 C4632 1.366 . S
C4631 C4633 1.388 . S
C4632 C4631 1.366 . S
C4632 C4636 1.385 . S
C4633 H4608 0.951 . S
C4633 C4631 1.388 . S
C4633 C4634 1.366 . S
C4634 C4633 1.366 . S
C4634 C4635 1.414 . S
C4634 C4637 1.499 . S
C4635 H4609 0.950 . S
C4635 C4634 1.414 . S
C4635 C4636 1.374 . S
C4636 H4610 0.950 . S
C4636 C4632 1.385 . S
C4636 C4635 1.374 . S
C4637 C4634 1.499 . S
C4637 C4638 1.373 . S
C4637 C4639 1.389 . S
C4638 H4611 0.950 . S
C4638 C4624 1.377 . S
C4638 C4637 1.373 . S
C4639 C4623 1.377 . S
C4639 C4637 1.389 . S
C4639 C4640 1.524 . S
C4640 C4639 1.524 . S
C4640 C4641 1.397 . S
C4640 C4645 1.363 . S
C4641 H4612 0.950 . S
C4641 C4640 1.397 . S
C4641 C4642 1.334 . S
C4642 H4613 0.950 . S
C4642 C4641 1.334 . S
C4642 C4643 1.287 . S
C4643 C4642 1.287 . S
C4643 C4644 1.524 . S
C4643 H4646 0.999 . S
C4644 H4614 0.950 . S
C4644 C4643 1.524 . S
C4644 C4645 1.415 . S
C4645 H4615 0.950 . S
C4645 C4640 1.363 . S
C4645 C4644 1.415 . S
H4646 C4643 0.999 . S
H4647 C4628 0.913 . S
H4648 C4666 0.951 . S
H4649 C4668 0.951 . S
H4650 C4670 0.950 . S
H4651 C4671 0.950 . S
H4652 C4673 0.950 . S
H4653 C4676 0.950 . S
H4654 C4677 0.950 . S
H4655 C4679 0.950 . S
H4656 C4680 0.950 . S
H4657 C4681 0.951 . S
H4658 C4683 0.951 . S
H4659 C4685 0.950 . S
H4660 C4686 0.950 . S
H4661 C4688 0.950 . S
H4662 C4691 0.950 . S
H4663 C4692 0.950 . S
H4664 C4694 0.950 . S
H4665 C4695 0.950 . S
C4666 H4648 0.951 . S
C4666 C4667 1.366 . S
C4666 C4668 1.388 . S
C4667 C4666 1.366 . S
C4667 C4671 1.385 . S
C4668 H4649 0.951 . S
C4668 C4666 1.388 . S
C4668 C4669 1.366 . S
C4669 C4668 1.366 . S
C4669 C4670 1.414 . S
C4669 C4672 1.499 . S
C4670 H4650 0.950 . S
C4670 C4669 1.414 . S
C4670 C4671 1.374 . S
C4671 H4651 0.950 . S
C4671 C4667 1.385 . S
C4671 C4670 1.374 . S
C4672 C4669 1.499 . S
C4672 C4673 1.373 . S
C4672 C4674 1.389 . S
C4673 H4652 0.950 . S
C4673 C4672 1.373 . S
C4673 C4689 1.377 . S
C4674 C4672 1.389 . S
C4674 C4675 1.524 . S
C4674 C4688 1.377 . S
C4675 C4674 1.524 . S
C4675 C4676 1.397 . S
C4675 C4680 1.363 . S
C4676 H4653 0.950 . S
C4676 C4675 1.397 . S
C4676 C4677 1.334 . S
C4677 H4654 0.950 . S
C4677 C4676 1.334 . S
C4677 C4678 1.287 . S
C4678 C4677 1.287 . S
C4678 C4679 1.524 . S
C4678 H4697 0.913 . S
C4679 H4655 0.950 . S
C4679 C4678 1.524 . S
C4679 C4680 1.415 . S
C4680 H4656 0.950 . S
C4680 C4675 1.363 . S
C4680 C4679 1.415 . S
C4681 H4657 0.951 . S
C4681 C4682 1.366 . S
C4681 C4683 1.388 . S
C4682 C4681 1.366 . S
C4682 C4686 1.385 . S
C4683 H4658 0.951 . S
C4683 C4681 1.388 . S
C4683 C4684 1.366 . S
C4684 C4683 1.366 . S
C4684 C4685 1.414 . S
C4684 C4687 1.499 . S
C4685 H4659 0.950 . S
C4685 C4684 1.414 . S
C4685 C4686 1.374 . S
C4686 H4660 0.950 . S
C4686 C4682 1.385 . S
C4686 C4685 1.374 . S
C4687 C4684 1.499 . S
C4687 C4688 1.373 . S
C4687 C4689 1.389 . S
C4688 H4661 0.950 . S
C4688 C4674 1.377 . S
C4688 C4687 1.373 . S
C4689 C4673 1.377 . S
C4689 C4687 1.389 . S
C4689 C4690 1.524 . S
C4690 C4689 1.524 . S
C4690 C4691 1.397 . S
C4690 C4695 1.363 . S
C4691 H4662 0.950 . S
C4691 C4690 1.397 . S
C4691 C4692 1.334 . S
C4692 H4663 0.950 . S
C4692 C4691 1.334 . S
C4692 C4693 1.287 . S
C4693 C4692 1.287 . S
C4693 C4694 1.524 . S
C4693 H4696 0.999 . S
C4694 H4664 0.950 . S
C4694 C4693 1.524 . S
C4694 C4695 1.415 . S
C4695 H4665 0.950 . S
C4695 C4690 1.363 . S
C4695 C4694 1.415 . S
H4696 C4693 0.999 . S
H4697 C4678 0.913 . S
H4698 C4716 0.951 . S
H4699 C4718 0.951 . S
H4700 C4720 0.950 . S
H4701 C4721 0.950 . S
H4702 C4723 0.950 . S
H4703 C4726 0.950 . S
H4704 C4727 0.950 . S
H4705 C4729 0.950 . S
H4706 C4730 0.950 . S
H4707 C4731 0.951 . S
H4708 C4733 0.951 . S
H4709 C4735 0.950 . S
H4710 C4736 0.950 . S
H4711 C4738 0.950 . S
H4712 C4741 0.950 . S
H4713 C4742 0.950 . S
H4714 C4744 0.950 . S
H4715 C4745 0.950 . S
C4716 H4698 0.951 . S
C4716 C4717 1.366 . S
C4716 C4718 1.388 . S
C4717 C4716 1.366 . S
C4717 C4721 1.385 . S
C4718 H4699 0.951 . S
C4718 C4716 1.388 . S
C4718 C4719 1.366 . S
C4719 C4718 1.366 . S
C4719 C4720 1.414 . S
C4719 C4722 1.499 . S
C4720 H4700 0.950 . S
C4720 C4719 1.414 . S
C4720 C4721 1.374 . S
C4721 H4701 0.950 . S
C4721 C4717 1.385 . S
C4721 C4720 1.374 . S
C4722 C4719 1.499 . S
C4722 C4723 1.373 . S
C4722 C4724 1.389 . S
C4723 H4702 0.950 . S
C4723 C4722 1.373 . S
C4723 C4739 1.377 . S
C4724 C4722 1.389 . S
C4724 C4725 1.524 . S
C4724 C4738 1.377 . S
C4725 C4724 1.524 . S
C4725 C4726 1.397 . S
C4725 C4730 1.363 . S
C4726 H4703 0.950 . S
C4726 C4725 1.397 . S
C4726 C4727 1.334 . S
C4727 H4704 0.950 . S
C4727 C4726 1.334 . S
C4727 C4728 1.287 . S
C4728 C4727 1.287 . S
C4728 C4729 1.524 . S
C4728 H4747 0.913 . S
C4729 H4705 0.950 . S
C4729 C4728 1.524 . S
C4729 C4730 1.415 . S
C4730 H4706 0.950 . S
C4730 C4725 1.363 . S
C4730 C4729 1.415 . S
C4731 H4707 0.951 . S
C4731 C4732 1.366 . S
C4731 C4733 1.388 . S
C4732 C4731 1.366 . S
C4732 C4736 1.385 . S
C4733 H4708 0.951 . S
C4733 C4731 1.388 . S
C4733 C4734 1.366 . S
C4734 C4733 1.366 . S
C4734 C4735 1.414 . S
C4734 C4737 1.499 . S
C4735 H4709 0.950 . S
C4735 C4734 1.414 . S
C4735 C4736 1.374 . S
C4736 H4710 0.950 . S
C4736 C4732 1.385 . S
C4736 C4735 1.374 . S
C4737 C4734 1.499 . S
C4737 C4738 1.373 . S
C4737 C4739 1.389 . S
C4738 H4711 0.950 . S
C4738 C4724 1.377 . S
C4738 C4737 1.373 . S
C4739 C4723 1.377 . S
C4739 C4737 1.389 . S
C4739 C4740 1.524 . S
C4740 C4739 1.524 . S
C4740 C4741 1.397 . S
C4740 C4745 1.363 . S
C4741 H4712 0.950 . S
C4741 C4740 1.397 . S
C4741 C4742 1.334 . S
C4742 H4713 0.950 . S
C4742 C4741 1.334 . S
C4742 C4743 1.287 . S
C4743 C4742 1.287 . S
C4743 C4744 1.524 . S
C4743 H4746 0.999 . S
C4744 H4714 0.950 . S
C4744 C4743 1.524 . S
C4744 C4745 1.415 . S
C4745 H4715 0.950 . S
C4745 C4740 1.363 . S
C4745 C4744 1.415 . S
H4746 C4743 0.999 . S
H4747 C4728 0.913 . S
H4748 C4766 0.951 . S
H4749 C4768 0.951 . S
H4750 C4770 0.950 . S
H4751 C4771 0.950 . S
H4752 C4773 0.950 . S
H4753 C4776 0.950 . S
H4754 C4777 0.950 . S
H4755 C4779 0.950 . S
H4756 C4780 0.950 . S
H4757 C4781 0.951 . S
H4758 C4783 0.951 . S
H4759 C4785 0.950 . S
H4760 C4786 0.950 . S
H4761 C4788 0.950 . S
H4762 C4791 0.950 . S
H4763 C4792 0.950 . S
H4764 C4794 0.950 . S
H4765 C4795 0.950 . S
C4766 H4748 0.951 . S
C4766 C4767 1.366 . S
C4766 C4768 1.388 . S
C4767 C4766 1.366 . S
C4767 C4771 1.385 . S
C4768 H4749 0.951 . S
C4768 C4766 1.388 . S
C4768 C4769 1.366 . S
C4769 C4768 1.366 . S
C4769 C4770 1.414 . S
C4769 C4772 1.499 . S
C4770 H4750 0.950 . S
C4770 C4769 1.414 . S
C4770 C4771 1.374 . S
C4771 H4751 0.950 . S
C4771 C4767 1.385 . S
C4771 C4770 1.374 . S
C4772 C4769 1.499 . S
C4772 C4773 1.373 . S
C4772 C4774 1.389 . S
C4773 H4752 0.950 . S
C4773 C4772 1.373 . S
C4773 C4789 1.377 . S
C4774 C4772 1.389 . S
C4774 C4775 1.524 . S
C4774 C4788 1.377 . S
C4775 C4774 1.524 . S
C4775 C4776 1.397 . S
C4775 C4780 1.363 . S
C4776 H4753 0.950 . S
C4776 C4775 1.397 . S
C4776 C4777 1.334 . S
C4777 H4754 0.950 . S
C4777 C4776 1.334 . S
C4777 C4778 1.287 . S
C4778 C4777 1.287 . S
C4778 C4779 1.524 . S
C4778 H4797 0.913 . S
C4779 H4755 0.950 . S
C4779 C4778 1.524 . S
C4779 C4780 1.415 . S
C4780 H4756 0.950 . S
C4780 C4775 1.363 . S
C4780 C4779 1.415 . S
C4781 H4757 0.951 . S
C4781 C4782 1.366 . S
C4781 C4783 1.388 . S
C4782 C4781 1.366 . S
C4782 C4786 1.385 . S
C4783 H4758 0.951 . S
C4783 C4781 1.388 . S
C4783 C4784 1.366 . S
C4784 C4783 1.366 . S
C4784 C4785 1.414 . S
C4784 C4787 1.499 . S
C4785 H4759 0.950 . S
C4785 C4784 1.414 . S
C4785 C4786 1.374 . S
C4786 H4760 0.950 . S
C4786 C4782 1.385 . S
C4786 C4785 1.374 . S
C4787 C4784 1.499 . S
C4787 C4788 1.373 . S
C4787 C4789 1.389 . S
C4788 H4761 0.950 . S
C4788 C4774 1.377 . S
C4788 C4787 1.373 . S
C4789 C4773 1.377 . S
C4789 C4787 1.389 . S
C4789 C4790 1.524 . S
C4790 C4789 1.524 . S
C4790 C4791 1.397 . S
C4790 C4795 1.363 . S
C4791 H4762 0.950 . S
C4791 C4790 1.397 . S
C4791 C4792 1.334 . S
C4792 H4763 0.950 . S
C4792 C4791 1.334 . S
C4792 C4793 1.287 . S
C4793 C4792 1.287 . S
C4793 C4794 1.524 . S
C4793 H4796 0.999 . S
C4794 H4764 0.950 . S
C4794 C4793 1.524 . S
C4794 C4795 1.415 . S
C4795 H4765 0.950 . S
C4795 C4790 1.363 . S
C4795 C4794 1.415 . S
H4796 C4793 0.999 . S
H4797 C4778 0.913 . S
H4798 C4816 0.951 . S
H4799 C4818 0.951 . S
H4800 C4820 0.950 . S
H4801 C4821 0.950 . S
H4802 C4823 0.950 . S
H4803 C4826 0.950 . S
H4804 C4827 0.950 . S
H4805 C4829 0.950 . S
H4806 C4830 0.950 . S
H4807 C4831 0.951 . S
H4808 C4833 0.951 . S
H4809 C4835 0.950 . S
H4810 C4836 0.950 . S
H4811 C4838 0.950 . S
H4812 C4841 0.950 . S
H4813 C4842 0.950 . S
H4814 C4844 0.950 . S
H4815 C4845 0.950 . S
C4816 H4798 0.951 . S
C4816 C4817 1.366 . S
C4816 C4818 1.388 . S
C4817 C4816 1.366 . S
C4817 C4821 1.385 . S
C4818 H4799 0.951 . S
C4818 C4816 1.388 . S
C4818 C4819 1.366 . S
C4819 C4818 1.366 . S
C4819 C4820 1.414 . S
C4819 C4822 1.499 . S
C4820 H4800 0.950 . S
C4820 C4819 1.414 . S
C4820 C4821 1.374 . S
C4821 H4801 0.950 . S
C4821 C4817 1.385 . S
C4821 C4820 1.374 . S
C4822 C4819 1.499 . S
C4822 C4823 1.373 . S
C4822 C4824 1.389 . S
C4823 H4802 0.950 . S
C4823 C4822 1.373 . S
C4823 C4839 1.377 . S
C4824 C4822 1.389 . S
C4824 C4825 1.524 . S
C4824 C4838 1.377 . S
C4825 C4824 1.524 . S
C4825 C4826 1.397 . S
C4825 C4830 1.363 . S
C4826 H4803 0.950 . S
C4826 C4825 1.397 . S
C4826 C4827 1.334 . S
C4827 H4804 0.950 . S
C4827 C4826 1.334 . S
C4827 C4828 1.287 . S
C4828 C4827 1.287 . S
C4828 C4829 1.524 . S
C4828 H4847 0.913 . S
C4829 H4805 0.950 . S
C4829 C4828 1.524 . S
C4829 C4830 1.415 . S
C4830 H4806 0.950 . S
C4830 C4825 1.363 . S
C4830 C4829 1.415 . S
C4831 H4807 0.951 . S
C4831 C4832 1.366 . S
C4831 C4833 1.388 . S
C4832 C4831 1.366 . S
C4832 C4836 1.385 . S
C4833 H4808 0.951 . S
C4833 C4831 1.388 . S
C4833 C4834 1.366 . S
C4834 C4833 1.366 . S
C4834 C4835 1.414 . S
C4834 C4837 1.499 . S
C4835 H4809 0.950 . S
C4835 C4834 1.414 . S
C4835 C4836 1.374 . S
C4836 H4810 0.950 . S
C4836 C4832 1.385 . S
C4836 C4835 1.374 . S
C4837 C4834 1.499 . S
C4837 C4838 1.373 . S
C4837 C4839 1.389 . S
C4838 H4811 0.950 . S
C4838 C4824 1.377 . S
C4838 C4837 1.373 . S
C4839 C4823 1.377 . S
C4839 C4837 1.389 . S
C4839 C4840 1.524 . S
C4840 C4839 1.524 . S
C4840 C4841 1.397 . S
C4840 C4845 1.363 . S
C4841 H4812 0.950 . S
C4841 C4840 1.397 . S
C4841 C4842 1.334 . S
C4842 H4813 0.950 . S
C4842 C4841 1.334 . S
C4842 C4843 1.287 . S
C4843 C4842 1.287 . S
C4843 C4844 1.524 . S
C4843 H4846 0.999 . S
C4844 H4814 0.950 . S
C4844 C4843 1.524 . S
C4844 C4845 1.415 . S
C4845 H4815 0.950 . S
C4845 C4840 1.363 . S
C4845 C4844 1.415 . S
H4846 C4843 0.999 . S
H4847 C4828 0.913 . S
H4848 C4866 0.951 . S
H4849 C4868 0.951 . S
H4850 C4870 0.950 . S
H4851 C4871 0.950 . S
H4852 C4873 0.950 . S
H4853 C4876 0.950 . S
H4854 C4877 0.950 . S
H4855 C4879 0.950 . S
H4856 C4880 0.950 . S
H4857 C4881 0.951 . S
H4858 C4883 0.951 . S
H4859 C4885 0.950 . S
H4860 C4886 0.950 . S
H4861 C4888 0.950 . S
H4862 C4891 0.950 . S
H4863 C4892 0.950 . S
H4864 C4894 0.950 . S
H4865 C4895 0.950 . S
C4866 H4848 0.951 . S
C4866 C4867 1.366 . S
C4866 C4868 1.388 . S
C4867 C4866 1.366 . S
C4867 C4871 1.385 . S
C4868 H4849 0.951 . S
C4868 C4866 1.388 . S
C4868 C4869 1.366 . S
C4869 C4868 1.366 . S
C4869 C4870 1.414 . S
C4869 C4872 1.499 . S
C4870 H4850 0.950 . S
C4870 C4869 1.414 . S
C4870 C4871 1.374 . S
C4871 H4851 0.950 . S
C4871 C4867 1.385 . S
C4871 C4870 1.374 . S
C4872 C4869 1.499 . S
C4872 C4873 1.373 . S
C4872 C4874 1.389 . S
C4873 H4852 0.950 . S
C4873 C4872 1.373 . S
C4873 C4889 1.377 . S
C4874 C4872 1.389 . S
C4874 C4875 1.524 . S
C4874 C4888 1.377 . S
C4875 C4874 1.524 . S
C4875 C4876 1.397 . S
C4875 C4880 1.363 . S
C4876 H4853 0.950 . S
C4876 C4875 1.397 . S
C4876 C4877 1.334 . S
C4877 H4854 0.950 . S
C4877 C4876 1.334 . S
C4877 C4878 1.287 . S
C4878 C4877 1.287 . S
C4878 C4879 1.524 . S
C4878 H4897 0.913 . S
C4879 H4855 0.950 . S
C4879 C4878 1.524 . S
C4879 C4880 1.415 . S
C4880 H4856 0.950 . S
C4880 C4875 1.363 . S
C4880 C4879 1.415 . S
C4881 H4857 0.951 . S
C4881 C4882 1.366 . S
C4881 C4883 1.388 . S
C4882 C4881 1.366 . S
C4882 C4886 1.385 . S
C4883 H4858 0.951 . S
C4883 C4881 1.388 . S
C4883 C4884 1.366 . S
C4884 C4883 1.366 . S
C4884 C4885 1.414 . S
C4884 C4887 1.499 . S
C4885 H4859 0.950 . S
C4885 C4884 1.414 . S
C4885 C4886 1.374 . S
C4886 H4860 0.950 . S
C4886 C4882 1.385 . S
C4886 C4885 1.374 . S
C4887 C4884 1.499 . S
C4887 C4888 1.373 . S
C4887 C4889 1.389 . S
C4888 H4861 0.950 . S
C4888 C4874 1.377 . S
C4888 C4887 1.373 . S
C4889 C4873 1.377 . S
C4889 C4887 1.389 . S
C4889 C4890 1.524 . S
C4890 C4889 1.524 . S
C4890 C4891 1.397 . S
C4890 C4895 1.363 . S
C4891 H4862 0.950 . S
C4891 C4890 1.397 . S
C4891 C4892 1.334 . S
C4892 H4863 0.950 . S
C4892 C4891 1.334 . S
C4892 C4893 1.287 . S
C4893 C4892 1.287 . S
C4893 C4894 1.524 . S
C4893 H4896 0.999 . S
C4894 H4864 0.950 . S
C4894 C4893 1.524 . S
C4894 C4895 1.415 . S
C4895 H4865 0.950 . S
C4895 C4890 1.363 . S
C4895 C4894 1.415 . S
H4896 C4893 0.999 . S
H4897 C4878 0.913 . S
H4898 C4916 0.951 1_554 S
H4899 C4918 0.951 . S
H4900 C4920 0.950 . S
H4901 C4921 0.950 . S
H4902 C4923 0.950 . S
H4903 C4926 0.950 1_556 S
H4904 C4927 0.950 . S
H4905 C4929 0.950 . S
H4906 C4930 0.950 . S
H4907 C4931 0.951 . S
H4908 C4933 0.951 . S
H4909 C4935 0.950 . S
H4910 C4936 0.950 . S
H4911 C4938 0.950 . S
H4912 C4941 0.950 . S
H4913 C4942 0.950 . S
H4914 C4944 0.950 . S
H4915 C4945 0.950 . S
C4916 H4898 0.951 1_556 S
C4916 C4917 1.366 . S
C4916 C4918 1.388 . S
C4917 C4916 1.366 . S
C4917 C4921 1.385 . S
C4918 H4899 0.951 . S
C4918 C4916 1.388 . S
C4918 C4919 1.366 . S
C4919 C4918 1.366 . S
C4919 C4920 1.414 . S
C4919 C4922 1.499 . S
C4920 H4900 0.950 . S
C4920 C4919 1.414 . S
C4920 C4921 1.374 . S
C4921 H4901 0.950 . S
C4921 C4917 1.385 . S
C4921 C4920 1.374 . S
C4922 C4919 1.499 . S
C4922 C4923 1.373 . S
C4922 C4924 1.389 . S
C4923 H4902 0.950 . S
C4923 C4922 1.373 . S
C4923 C4939 1.377 . S
C4924 C4922 1.389 . S
C4924 C4925 1.524 . S
C4924 C4938 1.377 . S
C4925 C4924 1.524 . S
C4925 C4926 1.397 1_556 S
C4925 C4930 1.363 1_556 S
C4926 H4903 0.950 1_554 S
C4926 C4925 1.397 1_554 S
C4926 C4927 1.334 . S
C4927 H4904 0.950 . S
C4927 C4926 1.334 . S
C4927 C4928 1.287 . S
C4928 C4927 1.287 . S
C4928 C4929 1.524 . S
C4928 H4947 0.913 . S
C4929 H4905 0.950 . S
C4929 C4928 1.524 . S
C4929 C4930 1.415 . S
C4930 H4906 0.950 . S
C4930 C4925 1.363 1_554 S
C4930 C4929 1.415 . S
C4931 H4907 0.951 . S
C4931 C4932 1.366 . S
C4931 C4933 1.388 . S
C4932 C4931 1.366 . S
C4932 C4936 1.385 . S
C4933 H4908 0.951 . S
C4933 C4931 1.388 . S
C4933 C4934 1.366 . S
C4934 C4933 1.366 . S
C4934 C4935 1.414 . S
C4934 C4937 1.499 . S
C4935 H4909 0.950 . S
C4935 C4934 1.414 . S
C4935 C4936 1.374 . S
C4936 H4910 0.950 . S
C4936 C4932 1.385 . S
C4936 C4935 1.374 . S
C4937 C4934 1.499 . S
C4937 C4938 1.373 . S
C4937 C4939 1.389 . S
C4938 H4911 0.950 . S
C4938 C4924 1.377 . S
C4938 C4937 1.373 . S
C4939 C4923 1.377 . S
C4939 C4937 1.389 . S
C4939 C4940 1.524 . S
C4940 C4939 1.524 . S
C4940 C4941 1.397 . S
C4940 C4945 1.363 . S
C4941 H4912 0.950 . S
C4941 C4940 1.397 . S
C4941 C4942 1.334 . S
C4942 H4913 0.950 . S
C4942 C4941 1.334 . S
C4942 C4943 1.287 . S
C4943 C4942 1.287 . S
C4943 C4944 1.524 . S
C4943 H4946 0.999 . S
C4944 H4914 0.950 . S
C4944 C4943 1.524 . S
C4944 C4945 1.415 . S
C4945 H4915 0.950 . S
C4945 C4940 1.363 . S
C4945 C4944 1.415 . S
H4946 C4943 0.999 . S
H4947 C4928 0.913 . S
H4948 C4966 0.951 . S
H4949 C4968 0.951 . S
H4950 C4970 0.950 . S
H4951 C4971 0.950 . S
H4952 C4973 0.950 . S
H4953 C4976 0.950 . S
H4954 C4977 0.950 . S
H4955 C4979 0.950 . S
H4956 C4980 0.950 . S
H4957 C4981 0.951 . S
H4958 C4983 0.951 . S
H4959 C4985 0.950 . S
H4960 C4986 0.950 . S
H4961 C4988 0.950 . S
H4962 C4991 0.950 . S
H4963 C4992 0.950 . S
H4964 C4994 0.950 . S
H4965 C4995 0.950 . S
C4966 H4948 0.951 . S
C4966 C4967 1.366 . S
C4966 C4968 1.388 . S
C4967 C4966 1.366 . S
C4967 C4971 1.385 . S
C4968 H4949 0.951 . S
C4968 C4966 1.388 . S
C4968 C4969 1.366 . S
C4969 C4968 1.366 . S
C4969 C4970 1.414 . S
C4969 C4972 1.499 . S
C4970 H4950 0.950 . S
C4970 C4969 1.414 . S
C4970 C4971 1.374 . S
C4971 H4951 0.950 . S
C4971 C4967 1.385 . S
C4971 C4970 1.374 . S
C4972 C4969 1.499 . S
C4972 C4973 1.373 . S
C4972 C4974 1.389 . S
C4973 H4952 0.950 . S
C4973 C4972 1.373 . S
C4973 C4989 1.377 . S
C4974 C4972 1.389 . S
C4974 C4975 1.524 . S
C4974 C4988 1.377 . S
C4975 C4974 1.524 . S
C4975 C4976 1.397 . S
C4975 C4980 1.363 . S
C4976 H4953 0.950 . S
C4976 C4975 1.397 . S
C4976 C4977 1.334 . S
C4977 H4954 0.950 . S
C4977 C4976 1.334 . S
C4977 C4978 1.287 . S
C4978 C4977 1.287 . S
C4978 C4979 1.524 . S
C4978 H4997 0.913 . S
C4979 H4955 0.950 . S
C4979 C4978 1.524 . S
C4979 C4980 1.415 . S
C4980 H4956 0.950 . S
C4980 C4975 1.363 . S
C4980 C4979 1.415 . S
C4981 H4957 0.951 . S
C4981 C4982 1.366 . S
C4981 C4983 1.388 . S
C4982 C4981 1.366 . S
C4982 C4986 1.385 . S
C4983 H4958 0.951 . S
C4983 C4981 1.388 . S
C4983 C4984 1.366 . S
C4984 C4983 1.366 . S
C4984 C4985 1.414 . S
C4984 C4987 1.499 . S
C4985 H4959 0.950 . S
C4985 C4984 1.414 . S
C4985 C4986 1.374 . S
C4986 H4960 0.950 . S
C4986 C4982 1.385 . S
C4986 C4985 1.374 . S
C4987 C4984 1.499 . S
C4987 C4988 1.373 . S
C4987 C4989 1.389 . S
C4988 H4961 0.950 . S
C4988 C4974 1.377 . S
C4988 C4987 1.373 . S
C4989 C4973 1.377 . S
C4989 C4987 1.389 . S
C4989 C4990 1.524 . S
C4990 C4989 1.524 . S
C4990 C4991 1.397 . S
C4990 C4995 1.363 . S
C4991 H4962 0.950 . S
C4991 C4990 1.397 . S
C4991 C4992 1.334 . S
C4992 H4963 0.950 . S
C4992 C4991 1.334 . S
C4992 C4993 1.287 . S
C4993 C4992 1.287 . S
C4993 C4994 1.524 . S
C4993 H4996 0.999 . S
C4994 H4964 0.950 . S
C4994 C4993 1.524 . S
C4994 C4995 1.415 . S
C4995 H4965 0.950 . S
C4995 C4990 1.363 . S
C4995 C4994 1.415 . S
H4996 C4993 0.999 . S
H4997 C4978 0.913 . S
H4998 C5016 0.951 . S
H4999 C5018 0.951 . S
H5000 C5020 0.950 . S
H5001 C5021 0.950 . S
H5002 C5023 0.950 . S
H5003 C5026 0.950 . S
H5004 C5027 0.950 . S
H5005 C5029 0.950 . S
H5006 C5030 0.950 . S
H5007 C5031 0.951 . S
H5008 C5033 0.951 . S
H5009 C5035 0.950 . S
H5010 C5036 0.950 . S
H5011 C5038 0.950 . S
H5012 C5041 0.950 . S
H5013 C5042 0.950 . S
H5014 C5044 0.950 . S
H5015 C5045 0.950 . S
C5016 H4998 0.951 . S
C5016 C5017 1.366 . S
C5016 C5018 1.388 . S
C5017 C5016 1.366 . S
C5017 C5021 1.385 . S
C5018 H4999 0.951 . S
C5018 C5016 1.388 . S
C5018 C5019 1.366 . S
C5019 C5018 1.366 . S
C5019 C5020 1.414 . S
C5019 C5022 1.499 . S
C5020 H5000 0.950 . S
C5020 C5019 1.414 . S
C5020 C5021 1.374 . S
C5021 H5001 0.950 . S
C5021 C5017 1.385 . S
C5021 C5020 1.374 . S
C5022 C5019 1.499 . S
C5022 C5023 1.373 . S
C5022 C5024 1.389 . S
C5023 H5002 0.950 . S
C5023 C5022 1.373 . S
C5023 C5039 1.377 . S
C5024 C5022 1.389 . S
C5024 C5025 1.524 . S
C5024 C5038 1.377 . S
C5025 C5024 1.524 . S
C5025 C5026 1.397 . S
C5025 C5030 1.363 . S
C5026 H5003 0.950 . S
C5026 C5025 1.397 . S
C5026 C5027 1.334 . S
C5027 H5004 0.950 . S
C5027 C5026 1.334 . S
C5027 C5028 1.287 . S
C5028 C5027 1.287 . S
C5028 C5029 1.524 . S
C5028 H5047 0.913 . S
C5029 H5005 0.950 . S
C5029 C5028 1.524 . S
C5029 C5030 1.415 . S
C5030 H5006 0.950 . S
C5030 C5025 1.363 . S
C5030 C5029 1.415 . S
C5031 H5007 0.951 . S
C5031 C5032 1.366 . S
C5031 C5033 1.388 . S
C5032 C5031 1.366 . S
C5032 C5036 1.385 . S
C5033 H5008 0.951 . S
C5033 C5031 1.388 . S
C5033 C5034 1.366 . S
C5034 C5033 1.366 . S
C5034 C5035 1.414 . S
C5034 C5037 1.499 . S
C5035 H5009 0.950 . S
C5035 C5034 1.414 . S
C5035 C5036 1.374 . S
C5036 H5010 0.950 . S
C5036 C5032 1.385 . S
C5036 C5035 1.374 . S
C5037 C5034 1.499 . S
C5037 C5038 1.373 . S
C5037 C5039 1.389 . S
C5038 H5011 0.950 . S
C5038 C5024 1.377 . S
C5038 C5037 1.373 . S
C5039 C5023 1.377 . S
C5039 C5037 1.389 . S
C5039 C5040 1.524 . S
C5040 C5039 1.524 . S
C5040 C5041 1.397 . S
C5040 C5045 1.363 . S
C5041 H5012 0.950 . S
C5041 C5040 1.397 . S
C5041 C5042 1.334 . S
C5042 H5013 0.950 . S
C5042 C5041 1.334 . S
C5042 C5043 1.287 . S
C5043 C5042 1.287 . S
C5043 C5044 1.524 . S
C5043 H5046 0.999 . S
C5044 H5014 0.950 . S
C5044 C5043 1.524 . S
C5044 C5045 1.415 . S
C5045 H5015 0.950 . S
C5045 C5040 1.363 . S
C5045 C5044 1.415 . S
H5046 C5043 0.999 . S
H5047 C5028 0.913 . S
H5048 C5066 0.951 . S
H5049 C5068 0.951 . S
H5050 C5070 0.950 . S
H5051 C5071 0.950 . S
H5052 C5073 0.950 . S
H5053 C5076 0.950 . S
H5054 C5077 0.950 . S
H5055 C5079 0.950 . S
H5056 C5080 0.950 . S
H5057 C5081 0.951 . S
H5058 C5083 0.951 . S
H5059 C5085 0.950 . S
H5060 C5086 0.950 . S
H5061 C5088 0.950 . S
H5062 C5091 0.950 . S
H5063 C5092 0.950 . S
H5064 C5094 0.950 . S
H5065 C5095 0.950 . S
C5066 H5048 0.951 . S
C5066 C5067 1.366 . S
C5066 C5068 1.388 . S
C5067 C5066 1.366 . S
C5067 C5071 1.385 . S
C5068 H5049 0.951 . S
C5068 C5066 1.388 . S
C5068 C5069 1.366 . S
C5069 C5068 1.366 . S
C5069 C5070 1.414 . S
C5069 C5072 1.499 . S
C5070 H5050 0.950 . S
C5070 C5069 1.414 . S
C5070 C5071 1.374 . S
C5071 H5051 0.950 . S
C5071 C5067 1.385 . S
C5071 C5070 1.374 . S
C5072 C5069 1.499 . S
C5072 C5073 1.373 . S
C5072 C5074 1.389 . S
C5073 H5052 0.950 . S
C5073 C5072 1.373 . S
C5073 C5089 1.377 . S
C5074 C5072 1.389 . S
C5074 C5075 1.524 . S
C5074 C5088 1.377 . S
C5075 C5074 1.524 . S
C5075 C5076 1.397 . S
C5075 C5080 1.363 . S
C5076 H5053 0.950 . S
C5076 C5075 1.397 . S
C5076 C5077 1.334 . S
C5077 H5054 0.950 . S
C5077 C5076 1.334 . S
C5077 C5078 1.287 . S
C5078 C5077 1.287 . S
C5078 C5079 1.524 . S
C5078 H5097 0.913 . S
C5079 H5055 0.950 . S
C5079 C5078 1.524 . S
C5079 C5080 1.415 . S
C5080 H5056 0.950 . S
C5080 C5075 1.363 . S
C5080 C5079 1.415 . S
C5081 H5057 0.951 . S
C5081 C5082 1.366 . S
C5081 C5083 1.388 . S
C5082 C5081 1.366 . S
C5082 C5086 1.385 . S
C5083 H5058 0.951 . S
C5083 C5081 1.388 . S
C5083 C5084 1.366 . S
C5084 C5083 1.366 . S
C5084 C5085 1.414 . S
C5084 C5087 1.499 . S
C5085 H5059 0.950 . S
C5085 C5084 1.414 . S
C5085 C5086 1.374 . S
C5086 H5060 0.950 . S
C5086 C5082 1.385 . S
C5086 C5085 1.374 . S
C5087 C5084 1.499 . S
C5087 C5088 1.373 . S
C5087 C5089 1.389 . S
C5088 H5061 0.950 . S
C5088 C5074 1.377 . S
C5088 C5087 1.373 . S
C5089 C5073 1.377 . S
C5089 C5087 1.389 . S
C5089 C5090 1.524 . S
C5090 C5089 1.524 . S
C5090 C5091 1.397 . S
C5090 C5095 1.363 . S
C5091 H5062 0.950 . S
C5091 C5090 1.397 . S
C5091 C5092 1.334 . S
C5092 H5063 0.950 . S
C5092 C5091 1.334 . S
C5092 C5093 1.287 . S
C5093 C5092 1.287 . S
C5093 C5094 1.524 . S
C5093 H5096 0.999 . S
C5094 H5064 0.950 . S
C5094 C5093 1.524 . S
C5094 C5095 1.415 . S
C5095 H5065 0.950 . S
C5095 C5090 1.363 . S
C5095 C5094 1.415 . S
H5096 C5093 0.999 . S
H5097 C5078 0.913 . S
H5098 C5116 0.951 . S
H5099 C5118 0.951 . S
H5100 C5120 0.950 . S
H5101 C5121 0.950 . S
H5102 C5123 0.950 . S
H5103 C5126 0.950 . S
H5104 C5127 0.950 . S
H5105 C5129 0.950 . S
H5106 C5130 0.950 . S
H5107 C5131 0.951 . S
H5108 C5133 0.951 . S
H5109 C5135 0.950 . S
H5110 C5136 0.950 . S
H5111 C5138 0.950 . S
H5112 C5141 0.950 . S
H5113 C5142 0.950 . S
H5114 C5144 0.950 . S
H5115 C5145 0.950 . S
C5116 H5098 0.951 . S
C5116 C5117 1.366 . S
C5116 C5118 1.388 . S
C5117 C5116 1.366 . S
C5117 C5121 1.385 . S
C5118 H5099 0.951 . S
C5118 C5116 1.388 . S
C5118 C5119 1.366 . S
C5119 C5118 1.366 . S
C5119 C5120 1.414 . S
C5119 C5122 1.499 . S
C5120 H5100 0.950 . S
C5120 C5119 1.414 . S
C5120 C5121 1.374 . S
C5121 H5101 0.950 . S
C5121 C5117 1.385 . S
C5121 C5120 1.374 . S
C5122 C5119 1.499 . S
C5122 C5123 1.373 . S
C5122 C5124 1.389 . S
C5123 H5102 0.950 . S
C5123 C5122 1.373 . S
C5123 C5139 1.377 . S
C5124 C5122 1.389 . S
C5124 C5125 1.524 . S
C5124 C5138 1.377 . S
C5125 C5124 1.524 . S
C5125 C5126 1.397 . S
C5125 C5130 1.363 . S
C5126 H5103 0.950 . S
C5126 C5125 1.397 . S
C5126 C5127 1.334 . S
C5127 H5104 0.950 . S
C5127 C5126 1.334 . S
C5127 C5128 1.287 . S
C5128 C5127 1.287 . S
C5128 C5129 1.524 . S
C5128 H5147 0.913 . S
C5129 H5105 0.950 . S
C5129 C5128 1.524 . S
C5129 C5130 1.415 . S
C5130 H5106 0.950 . S
C5130 C5125 1.363 . S
C5130 C5129 1.415 . S
C5131 H5107 0.951 . S
C5131 C5132 1.366 . S
C5131 C5133 1.388 . S
C5132 C5131 1.366 . S
C5132 C5136 1.385 . S
C5133 H5108 0.951 . S
C5133 C5131 1.388 . S
C5133 C5134 1.366 . S
C5134 C5133 1.366 . S
C5134 C5135 1.414 . S
C5134 C5137 1.499 . S
C5135 H5109 0.950 . S
C5135 C5134 1.414 . S
C5135 C5136 1.374 . S
C5136 H5110 0.950 . S
C5136 C5132 1.385 . S
C5136 C5135 1.374 . S
C5137 C5134 1.499 . S
C5137 C5138 1.373 . S
C5137 C5139 1.389 . S
C5138 H5111 0.950 . S
C5138 C5124 1.377 . S
C5138 C5137 1.373 . S
C5139 C5123 1.377 . S
C5139 C5137 1.389 . S
C5139 C5140 1.524 . S
C5140 C5139 1.524 . S
C5140 C5141 1.397 . S
C5140 C5145 1.363 . S
C5141 H5112 0.950 . S
C5141 C5140 1.397 . S
C5141 C5142 1.334 . S
C5142 H5113 0.950 . S
C5142 C5141 1.334 . S
C5142 C5143 1.287 . S
C5143 C5142 1.287 . S
C5143 C5144 1.524 . S
C5143 H5146 0.999 . S
C5144 H5114 0.950 . S
C5144 C5143 1.524 . S
C5144 C5145 1.415 . S
C5145 H5115 0.950 . S
C5145 C5140 1.363 . S
C5145 C5144 1.415 . S
H5146 C5143 0.999 . S
H5147 C5128 0.913 . S
H5148 C5166 0.951 . S
H5149 C5168 0.951 . S
H5150 C5170 0.950 . S
H5151 C5171 0.950 . S
H5152 C5173 0.950 . S
H5153 C5176 0.950 . S
H5154 C5177 0.950 . S
H5155 C5179 0.950 . S
H5156 C5180 0.950 . S
H5157 C5181 0.951 . S
H5158 C5183 0.951 . S
H5159 C5185 0.950 . S
H5160 C5186 0.950 . S
H5161 C5188 0.950 . S
H5162 C5191 0.950 . S
H5163 C5192 0.950 . S
H5164 C5194 0.950 . S
H5165 C5195 0.950 . S
C5166 H5148 0.951 . S
C5166 C5167 1.366 . S
C5166 C5168 1.388 . S
C5167 C5166 1.366 . S
C5167 C5171 1.385 . S
C5168 H5149 0.951 . S
C5168 C5166 1.388 . S
C5168 C5169 1.366 . S
C5169 C5168 1.366 . S
C5169 C5170 1.414 . S
C5169 C5172 1.499 . S
C5170 H5150 0.950 . S
C5170 C5169 1.414 . S
C5170 C5171 1.374 . S
C5171 H5151 0.950 . S
C5171 C5167 1.385 . S
C5171 C5170 1.374 . S
C5172 C5169 1.499 . S
C5172 C5173 1.373 . S
C5172 C5174 1.389 . S
C5173 H5152 0.950 . S
C5173 C5172 1.373 . S
C5173 C5189 1.377 . S
C5174 C5172 1.389 . S
C5174 C5175 1.524 . S
C5174 C5188 1.377 . S
C5175 C5174 1.524 . S
C5175 C5176 1.397 . S
C5175 C5180 1.363 . S
C5176 H5153 0.950 . S
C5176 C5175 1.397 . S
C5176 C5177 1.334 . S
C5177 H5154 0.950 . S
C5177 C5176 1.334 . S
C5177 C5178 1.287 . S
C5178 C5177 1.287 . S
C5178 C5179 1.524 . S
C5178 H5197 0.913 . S
C5179 H5155 0.950 . S
C5179 C5178 1.524 . S
C5179 C5180 1.415 . S
C5180 H5156 0.950 . S
C5180 C5175 1.363 . S
C5180 C5179 1.415 . S
C5181 H5157 0.951 . S
C5181 C5182 1.366 . S
C5181 C5183 1.388 . S
C5182 C5181 1.366 . S
C5182 C5186 1.385 . S
C5183 H5158 0.951 . S
C5183 C5181 1.388 . S
C5183 C5184 1.366 . S
C5184 C5183 1.366 . S
C5184 C5185 1.414 . S
C5184 C5187 1.499 . S
C5185 H5159 0.950 . S
C5185 C5184 1.414 . S
C5185 C5186 1.374 . S
C5186 H5160 0.950 . S
C5186 C5182 1.385 . S
C5186 C5185 1.374 . S
C5187 C5184 1.499 . S
C5187 C5188 1.373 . S
C5187 C5189 1.389 . S
C5188 H5161 0.950 . S
C5188 C5174 1.377 . S
C5188 C5187 1.373 . S
C5189 C5173 1.377 . S
C5189 C5187 1.389 . S
C5189 C5190 1.524 . S
C5190 C5189 1.524 . S
C5190 C5191 1.397 . S
C5190 C5195 1.363 . S
C5191 H5162 0.950 . S
C5191 C5190 1.397 . S
C5191 C5192 1.334 . S
C5192 H5163 0.950 . S
C5192 C5191 1.334 . S
C5192 C5193 1.287 . S
C5193 C5192 1.287 . S
C5193 C5194 1.524 . S
C5193 H5196 0.999 . S
C5194 H5164 0.950 . S
C5194 C5193 1.524 . S
C5194 C5195 1.415 . S
C5195 H5165 0.950 . S
C5195 C5190 1.363 . S
C5195 C5194 1.415 . S
H5196 C5193 0.999 . S
H5197 C5178 0.913 . S
H5198 C5216 0.951 . S
H5199 C5218 0.951 . S
H5200 C5220 0.950 . S
H5201 C5221 0.950 . S
H5202 C5223 0.950 . S
H5203 C5226 0.950 . S
H5204 C5227 0.950 . S
H5205 C5229 0.950 . S
H5206 C5230 0.950 . S
H5207 C5231 0.951 . S
H5208 C5233 0.951 . S
H5209 C5235 0.950 . S
H5210 C5236 0.950 . S
H5211 C5238 0.950 . S
H5212 C5241 0.950 . S
H5213 C5242 0.950 . S
H5214 C5244 0.950 . S
H5215 C5245 0.950 . S
C5216 H5198 0.951 . S
C5216 C5217 1.366 . S
C5216 C5218 1.388 . S
C5217 C5216 1.366 . S
C5217 C5221 1.385 . S
C5218 H5199 0.951 . S
C5218 C5216 1.388 . S
C5218 C5219 1.366 . S
C5219 C5218 1.366 . S
C5219 C5220 1.414 . S
C5219 C5222 1.499 . S
C5220 H5200 0.950 . S
C5220 C5219 1.414 . S
C5220 C5221 1.374 . S
C5221 H5201 0.950 . S
C5221 C5217 1.385 . S
C5221 C5220 1.374 . S
C5222 C5219 1.499 . S
C5222 C5223 1.373 . S
C5222 C5224 1.389 . S
C5223 H5202 0.950 . S
C5223 C5222 1.373 . S
C5223 C5239 1.377 . S
C5224 C5222 1.389 . S
C5224 C5225 1.524 . S
C5224 C5238 1.377 . S
C5225 C5224 1.524 . S
C5225 C5226 1.397 . S
C5225 C5230 1.363 . S
C5226 H5203 0.950 . S
C5226 C5225 1.397 . S
C5226 C5227 1.334 . S
C5227 H5204 0.950 . S
C5227 C5226 1.334 . S
C5227 C5228 1.287 . S
C5228 C5227 1.287 . S
C5228 C5229 1.524 . S
C5228 H5247 0.913 . S
C5229 H5205 0.950 . S
C5229 C5228 1.524 . S
C5229 C5230 1.415 . S
C5230 H5206 0.950 . S
C5230 C5225 1.363 . S
C5230 C5229 1.415 . S
C5231 H5207 0.951 . S
C5231 C5232 1.366 . S
C5231 C5233 1.388 . S
C5232 C5231 1.366 . S
C5232 C5236 1.385 . S
C5233 H5208 0.951 . S
C5233 C5231 1.388 . S
C5233 C5234 1.366 . S
C5234 C5233 1.366 . S
C5234 C5235 1.414 . S
C5234 C5237 1.499 . S
C5235 H5209 0.950 . S
C5235 C5234 1.414 . S
C5235 C5236 1.374 . S
C5236 H5210 0.950 . S
C5236 C5232 1.385 . S
C5236 C5235 1.374 . S
C5237 C5234 1.499 . S
C5237 C5238 1.373 . S
C5237 C5239 1.389 . S
C5238 H5211 0.950 . S
C5238 C5224 1.377 . S
C5238 C5237 1.373 . S
C5239 C5223 1.377 . S
C5239 C5237 1.389 . S
C5239 C5240 1.524 . S
C5240 C5239 1.524 . S
C5240 C5241 1.397 . S
C5240 C5245 1.363 . S
C5241 H5212 0.950 . S
C5241 C5240 1.397 . S
C5241 C5242 1.334 . S
C5242 H5213 0.950 . S
C5242 C5241 1.334 . S
C5242 C5243 1.287 . S
C5243 C5242 1.287 . S
C5243 C5244 1.524 . S
C5243 H5246 0.999 . S
C5244 H5214 0.950 . S
C5244 C5243 1.524 . S
C5244 C5245 1.415 . S
C5245 H5215 0.950 . S
C5245 C5240 1.363 . S
C5245 C5244 1.415 . S
H5246 C5243 0.999 . S
H5247 C5228 0.913 . S
H5248 C5266 0.951 . S
H5249 C5268 0.951 . S
H5250 C5270 0.950 . S
H5251 C5271 0.950 . S
H5252 C5273 0.950 . S
H5253 C5276 0.950 . S
H5254 C5277 0.950 . S
H5255 C5279 0.950 . S
H5256 C5280 0.950 . S
H5257 C5281 0.951 . S
H5258 C5283 0.951 . S
H5259 C5285 0.950 . S
H5260 C5286 0.950 . S
H5261 C5288 0.950 . S
H5262 C5291 0.950 . S
H5263 C5292 0.950 . S
H5264 C5294 0.950 . S
H5265 C5295 0.950 . S
C5266 H5248 0.951 . S
C5266 C5267 1.366 . S
C5266 C5268 1.388 . S
C5267 C5266 1.366 . S
C5267 C5271 1.385 . S
C5268 H5249 0.951 . S
C5268 C5266 1.388 . S
C5268 C5269 1.366 . S
C5269 C5268 1.366 . S
C5269 C5270 1.414 . S
C5269 C5272 1.499 . S
C5270 H5250 0.950 . S
C5270 C5269 1.414 . S
C5270 C5271 1.374 . S
C5271 H5251 0.950 . S
C5271 C5267 1.385 . S
C5271 C5270 1.374 . S
C5272 C5269 1.499 . S
C5272 C5273 1.373 . S
C5272 C5274 1.389 . S
C5273 H5252 0.950 . S
C5273 C5272 1.373 . S
C5273 C5289 1.377 . S
C5274 C5272 1.389 . S
C5274 C5275 1.524 . S
C5274 C5288 1.377 . S
C5275 C5274 1.524 . S
C5275 C5276 1.397 . S
C5275 C5280 1.363 . S
C5276 H5253 0.950 . S
C5276 C5275 1.397 . S
C5276 C5277 1.334 . S
C5277 H5254 0.950 . S
C5277 C5276 1.334 . S
C5277 C5278 1.287 . S
C5278 C5277 1.287 . S
C5278 C5279 1.524 . S
C5278 H5297 0.913 . S
C5279 H5255 0.950 . S
C5279 C5278 1.524 . S
C5279 C5280 1.415 . S
C5280 H5256 0.950 . S
C5280 C5275 1.363 . S
C5280 C5279 1.415 . S
C5281 H5257 0.951 . S
C5281 C5282 1.366 . S
C5281 C5283 1.388 . S
C5282 C5281 1.366 . S
C5282 C5286 1.385 . S
C5283 H5258 0.951 . S
C5283 C5281 1.388 . S
C5283 C5284 1.366 . S
C5284 C5283 1.366 . S
C5284 C5285 1.414 . S
C5284 C5287 1.499 . S
C5285 H5259 0.950 . S
C5285 C5284 1.414 . S
C5285 C5286 1.374 . S
C5286 H5260 0.950 . S
C5286 C5282 1.385 . S
C5286 C5285 1.374 . S
C5287 C5284 1.499 . S
C5287 C5288 1.373 . S
C5287 C5289 1.389 . S
C5288 H5261 0.950 . S
C5288 C5274 1.377 . S
C5288 C5287 1.373 . S
C5289 C5273 1.377 . S
C5289 C5287 1.389 . S
C5289 C5290 1.524 . S
C5290 C5289 1.524 . S
C5290 C5291 1.397 . S
C5290 C5295 1.363 . S
C5291 H5262 0.950 . S
C5291 C5290 1.397 . S
C5291 C5292 1.334 . S
C5292 H5263 0.950 . S
C5292 C5291 1.334 . S
C5292 C5293 1.287 . S
C5293 C5292 1.287 . S
C5293 C5294 1.524 . S
C5293 H5296 0.999 . S
C5294 H5264 0.950 . S
C5294 C5293 1.524 . S
C5294 C5295 1.415 . S
C5295 H5265 0.950 . S
C5295 C5290 1.363 . S
C5295 C5294 1.415 . S
H5296 C5293 0.999 . S
H5297 C5278 0.913 . S
H5298 C5316 0.951 . S
H5299 C5318 0.951 . S
H5300 C5320 0.950 . S
H5301 C5321 0.950 . S
H5302 C5323 0.950 . S
H5303 C5326 0.950 . S
H5304 C5327 0.950 . S
H5305 C5329 0.950 . S
H5306 C5330 0.950 . S
H5307 C5331 0.951 . S
H5308 C5333 0.951 . S
H5309 C5335 0.950 . S
H5310 C5336 0.950 . S
H5311 C5338 0.950 . S
H5312 C5341 0.950 . S
H5313 C5342 0.950 . S
H5314 C5344 0.950 . S
H5315 C5345 0.950 . S
C5316 H5298 0.951 . S
C5316 C5317 1.366 . S
C5316 C5318 1.388 . S
C5317 C5316 1.366 . S
C5317 C5321 1.385 . S
C5318 H5299 0.951 . S
C5318 C5316 1.388 . S
C5318 C5319 1.366 . S
C5319 C5318 1.366 . S
C5319 C5320 1.414 . S
C5319 C5322 1.499 . S
C5320 H5300 0.950 . S
C5320 C5319 1.414 . S
C5320 C5321 1.374 . S
C5321 H5301 0.950 . S
C5321 C5317 1.385 . S
C5321 C5320 1.374 . S
C5322 C5319 1.499 . S
C5322 C5323 1.373 . S
C5322 C5324 1.389 . S
C5323 H5302 0.950 . S
C5323 C5322 1.373 . S
C5323 C5339 1.377 . S
C5324 C5322 1.389 . S
C5324 C5325 1.524 . S
C5324 C5338 1.377 . S
C5325 C5324 1.524 . S
C5325 C5326 1.397 1_556 S
C5325 C5330 1.363 . S
C5326 H5303 0.950 . S
C5326 C5325 1.397 1_554 S
C5326 C5327 1.334 . S
C5327 H5304 0.950 . S
C5327 C5326 1.334 . S
C5327 C5328 1.287 . S
C5328 C5327 1.287 . S
C5328 C5329 1.524 . S
C5328 H5347 0.913 . S
C5329 H5305 0.950 . S
C5329 C5328 1.524 . S
C5329 C5330 1.415 1_554 S
C5330 H5306 0.950 . S
C5330 C5325 1.363 . S
C5330 C5329 1.415 1_556 S
C5331 H5307 0.951 . S
C5331 C5332 1.366 . S
C5331 C5333 1.388 . S
C5332 C5331 1.366 . S
C5332 C5336 1.385 . S
C5333 H5308 0.951 . S
C5333 C5331 1.388 . S
C5333 C5334 1.366 . S
C5334 C5333 1.366 . S
C5334 C5335 1.414 . S
C5334 C5337 1.499 . S
C5335 H5309 0.950 . S
C5335 C5334 1.414 . S
C5335 C5336 1.374 . S
C5336 H5310 0.950 . S
C5336 C5332 1.385 . S
C5336 C5335 1.374 . S
C5337 C5334 1.499 . S
C5337 C5338 1.373 . S
C5337 C5339 1.389 . S
C5338 H5311 0.950 . S
C5338 C5324 1.377 . S
C5338 C5337 1.373 . S
C5339 C5323 1.377 . S
C5339 C5337 1.389 . S
C5339 C5340 1.524 . S
C5340 C5339 1.524 . S
C5340 C5341 1.397 . S
C5340 C5345 1.363 . S
C5341 H5312 0.950 . S
C5341 C5340 1.397 . S
C5341 C5342 1.334 . S
C5342 H5313 0.950 . S
C5342 C5341 1.334 . S
C5342 C5343 1.287 . S
C5343 C5342 1.287 . S
C5343 C5344 1.524 . S
C5343 H5346 0.999 . S
C5344 H5314 0.950 . S
C5344 C5343 1.524 . S
C5344 C5345 1.415 . S
C5345 H5315 0.950 . S
C5345 C5340 1.363 . S
C5345 C5344 1.415 . S
H5346 C5343 0.999 . S
H5347 C5328 0.913 . S
H5348 C5366 0.951 . S
H5349 C5368 0.951 . S
H5350 C5370 0.950 . S
H5351 C5371 0.950 . S
H5352 C5373 0.950 . S
H5353 C5376 0.950 . S
H5354 C5377 0.950 . S
H5355 C5379 0.950 . S
H5356 C5380 0.950 . S
H5357 C5381 0.951 . S
H5358 C5383 0.951 . S
H5359 C5385 0.950 . S
H5360 C5386 0.950 . S
H5361 C5388 0.950 . S
H5362 C5391 0.950 . S
H5363 C5392 0.950 . S
H5364 C5394 0.950 . S
H5365 C5395 0.950 . S
C5366 H5348 0.951 . S
C5366 C5367 1.366 . S
C5366 C5368 1.388 . S
C5367 C5366 1.366 . S
C5367 C5371 1.385 . S
C5368 H5349 0.951 . S
C5368 C5366 1.388 . S
C5368 C5369 1.366 . S
C5369 C5368 1.366 . S
C5369 C5370 1.414 . S
C5369 C5372 1.499 . S
C5370 H5350 0.950 . S
C5370 C5369 1.414 . S
C5370 C5371 1.374 . S
C5371 H5351 0.950 . S
C5371 C5367 1.385 . S
C5371 C5370 1.374 . S
C5372 C5369 1.499 . S
C5372 C5373 1.373 . S
C5372 C5374 1.389 . S
C5373 H5352 0.950 . S
C5373 C5372 1.373 . S
C5373 C5389 1.377 . S
C5374 C5372 1.389 . S
C5374 C5375 1.524 . S
C5374 C5388 1.377 . S
C5375 C5374 1.524 . S
C5375 C5376 1.397 . S
C5375 C5380 1.363 . S
C5376 H5353 0.950 . S
C5376 C5375 1.397 . S
C5376 C5377 1.334 . S
C5377 H5354 0.950 . S
C5377 C5376 1.334 . S
C5377 C5378 1.287 . S
C5378 C5377 1.287 . S
C5378 C5379 1.524 . S
C5378 H5397 0.913 . S
C5379 H5355 0.950 . S
C5379 C5378 1.524 . S
C5379 C5380 1.415 . S
C5380 H5356 0.950 . S
C5380 C5375 1.363 . S
C5380 C5379 1.415 . S
C5381 H5357 0.951 . S
C5381 C5382 1.366 . S
C5381 C5383 1.388 . S
C5382 C5381 1.366 . S
C5382 C5386 1.385 . S
C5383 H5358 0.951 . S
C5383 C5381 1.388 . S
C5383 C5384 1.366 . S
C5384 C5383 1.366 . S
C5384 C5385 1.414 . S
C5384 C5387 1.499 . S
C5385 H5359 0.950 . S
C5385 C5384 1.414 . S
C5385 C5386 1.374 . S
C5386 H5360 0.950 . S
C5386 C5382 1.385 . S
C5386 C5385 1.374 . S
C5387 C5384 1.499 . S
C5387 C5388 1.373 . S
C5387 C5389 1.389 . S
C5388 H5361 0.950 . S
C5388 C5374 1.377 . S
C5388 C5387 1.373 . S
C5389 C5373 1.377 . S
C5389 C5387 1.389 . S
C5389 C5390 1.524 . S
C5390 C5389 1.524 . S
C5390 C5391 1.397 . S
C5390 C5395 1.363 . S
C5391 H5362 0.950 . S
C5391 C5390 1.397 . S
C5391 C5392 1.334 1_565 S
C5392 H5363 0.950 . S
C5392 C5391 1.334 1_545 S
C5392 C5393 1.288 . S
C5393 C5392 1.288 . S
C5393 C5394 1.516 1_545 S
C5393 H5396 1.006 . S
C5394 H5364 0.950 . S
C5394 C5393 1.516 1_565 S
C5394 C5395 1.415 . S
C5395 H5365 0.950 . S
C5395 C5390 1.363 . S
C5395 C5394 1.415 . S
H5396 C5393 1.006 . S
H5397 C5378 0.913 . S
H5398 C5416 0.951 . S
H5399 C5418 0.951 . S
H5400 C5420 0.950 . S
H5401 C5421 0.950 . S
H5402 C5423 0.950 . S
H5403 C5426 0.950 . S
H5404 C5427 0.950 . S
H5405 C5429 0.950 . S
H5406 C5430 0.950 . S
H5407 C5431 0.951 . S
H5408 C5433 0.951 . S
H5409 C5435 0.950 . S
H5410 C5436 0.950 . S
H5411 C5438 0.950 . S
H5412 C5441 0.950 . S
H5413 C5442 0.950 . S
H5414 C5444 0.950 . S
H5415 C5445 0.950 . S
C5416 H5398 0.951 . S
C5416 C5417 1.366 . S
C5416 C5418 1.388 . S
C5417 C5416 1.366 . S
C5417 C5421 1.385 . S
C5418 H5399 0.951 . S
C5418 C5416 1.388 . S
C5418 C5419 1.366 . S
C5419 C5418 1.366 . S
C5419 C5420 1.414 . S
C5419 C5422 1.499 . S
C5420 H5400 0.950 . S
C5420 C5419 1.414 . S
C5420 C5421 1.374 . S
C5421 H5401 0.950 . S
C5421 C5417 1.385 . S
C5421 C5420 1.374 . S
C5422 C5419 1.499 . S
C5422 C5423 1.373 . S
C5422 C5424 1.389 . S
C5423 H5402 0.950 . S
C5423 C5422 1.373 . S
C5423 C5439 1.377 . S
C5424 C5422 1.389 . S
C5424 C5425 1.524 . S
C5424 C5438 1.377 1_455 S
C5425 C5424 1.524 . S
C5425 C5426 1.397 . S
C5425 C5430 1.363 1_455 S
C5426 H5403 0.950 . S
C5426 C5425 1.397 . S
C5426 C5427 1.334 . S
C5427 H5404 0.950 . S
C5427 C5426 1.334 . S
C5427 C5428 1.287 . S
C5428 C5427 1.287 . S
C5428 C5429 1.524 1_455 S
C5428 H5447 0.913 . S
C5429 H5405 0.950 . S
C5429 C5428 1.524 1_655 S
C5429 C5430 1.415 . S
C5430 H5406 0.950 . S
C5430 C5425 1.363 1_655 S
C5430 C5429 1.415 . S
C5431 H5407 0.951 . S
C5431 C5432 1.366 . S
C5431 C5433 1.388 . S
C5432 C5431 1.366 . S
C5432 C5436 1.385 . S
C5433 H5408 0.951 . S
C5433 C5431 1.388 . S
C5433 C5434 1.366 . S
C5434 C5433 1.366 . S
C5434 C5435 1.414 . S
C5434 C5437 1.499 . S
C5435 H5409 0.950 . S
C5435 C5434 1.414 . S
C5435 C5436 1.374 . S
C5436 H5410 0.950 . S
C5436 C5432 1.385 . S
C5436 C5435 1.374 . S
C5437 C5434 1.499 . S
C5437 C5438 1.373 . S
C5437 C5439 1.389 1_655 S
C5438 H5411 0.950 . S
C5438 C5424 1.377 1_655 S
C5438 C5437 1.373 . S
C5439 C5423 1.377 . S
C5439 C5437 1.389 1_455 S
C5439 C5440 1.524 . S
C5440 C5439 1.524 . S
C5440 C5441 1.397 1_455 S
C5440 C5445 1.363 . S
C5441 H5412 0.950 . S
C5441 C5440 1.397 1_655 S
C5441 C5442 1.334 . S
C5442 H5413 0.950 . S
C5442 C5441 1.334 . S
C5442 C5443 1.287 1_655 S
C5443 C5442 1.287 1_455 S
C5443 C5444 1.524 . S
C5443 H5446 0.999 . S
C5444 H5414 0.950 . S
C5444 C5443 1.524 . S
C5444 C5445 1.415 . S
C5445 H5415 0.950 . S
C5445 C5440 1.363 . S
C5445 C5444 1.415 . S
H5446 C5443 0.999 . S
H5447 C5428 0.913 . S
C682 C330 1.054 . S
C667 C10 1.091 . S
C717 C16 1.476 . S
C732 C350 1.489 . S
C782 C370 1.031 . S
C767 C30 1.127 . S
C832 C389 1.471 . S
C817 C42 1.464 . S
C882 C347 1.366 . S
C867 C57 1.358 . S
C917 C69 1.144 . S
C932 C372 1.098 . S
C982 C392 1.330 . S
C967 C83 1.331 . S
C1017 C101 1.223 . S
C1032 C328 1.114 . S
C1067 C108 1.537 . S
C1082 C325 1.410 . S
C1132 C348 1.148 . S
C1117 C120 1.207 . S
C1182 C371 1.363 . S
C1167 C133 1.343 . S
C1232 C393 1.329 . S
C1217 C147 1.387 . S
C1282 C351 0.874 . S
C1267 C114 0.903 . S
C1332 C367 0.997 . S
C1317 C122 1.098 . S
C1367 C135 1.096 . S
C1382 C390 1.041 . S
C1432 C329 0.905 . S
C1417 C153 0.900 . S
C1467 C160 1.368 . S
C1482 C326 1.387 . S
C1517 C174 0.817 . S
C1532 C409 0.787 . S
C1582 C431 1.351 . S
C1567 C187 1.344 . S
C1632 C454 1.062 . S
C1617 C205 1.213 . S
C1667 C212 1.421 . S
C1682 C327 1.374 . S
C1717 C226 1.449 . S
C1732 C369 1.388 . S
C1782 C451 1.145 . S
C1767 C185 1.307 . S
C1832 C412 0.840 . S
C1817 C244 0.896 . S
C1882 C477 0.920 . S
C1867 C23 0.950 . S
C1932 C497 1.594 . S
C1917 C5 1.628 . S
C1967 C49 1.048 . S
C1982 C519 1.011 . S
C2017 C29 1.117 . S
C2032 C536 1.112 . S
C2067 C94 1.704 1_655 S
C2082 C494 1.692 . S
C2117 C88 1.166 . S
C2132 C517 1.030 . S
C2182 C539 1.204 . S
C2167 C70 1.209 . S
C2217 C62 1.250 . S
C2232 C475 1.105 . S
C2267 C257 1.022 . S
C2282 C472 0.929 . S
C2332 C495 1.402 . S
C2317 C200 1.487 . S
C2382 C514 1.240 . S
C2367 C211 1.396 . S
C2432 C540 1.213 . S
C2417 C179 1.283 . S
C2482 C498 0.943 . S
C2467 C251 0.980 . S
C2532 C518 0.938 . S
C2517 C198 0.941 . S
C2582 C537 0.800 . S
C2567 C213 0.814 . S
C2617 C173 1.298 . S
C2632 C476 1.299 . S
C2682 C473 1.364 . S
C2667 C264 1.369 . S
C2717 C148 1.198 . S
C2732 C556 1.037 . S
C2782 C579 1.321 . S
C2767 C278 1.385 . S
C2817 C127 1.248 . S
C2832 C601 1.065 . S
C2882 C474 1.294 . S
C2867 C140 1.351 . S
C2932 C515 1.370 . S
C2917 C289 1.377 . S
C2982 C598 0.848 . S
C2967 C276 0.935 . S
C3017 C303 0.821 . S
C3032 C559 0.786 . S
C3067 C36 1.091 . S
C3082 C624 1.055 . S
C3117 C44 1.476 . S
C3132 C413 1.489 . S
C3182 C433 1.033 . S
C3167 C4 1.105 1_655 S
C3217 C18 1.464 . S
C3232 C452 1.471 . S
C3267 C81 1.360 . S
C3282 C410 1.365 . S
C3317 C95 1.144 1_655 S
C3332 C435 1.098 . S
C3382 C455 1.331 . S
C3367 C55 1.334 . S
C3432 C622 1.112 . S
C3417 C75 1.222 . S
C3482 C619 1.410 . S
C3467 C277 1.536 . S
C3532 C411 1.148 . S
C3517 C263 1.207 . S
C3582 C434 1.363 . S
C3567 C302 1.343 . S
C3617 C290 1.386 . S
C3632 C456 1.328 . S
C3682 C414 0.873 . S
C3667 C283 0.903 . S
C3717 C265 1.098 . S
C3732 C430 0.997 . S
C3782 C453 1.043 . S
C3767 C304 1.096 . S
C3817 C296 0.899 . S
C3832 C623 0.905 . S
C3882 C620 1.387 . S
C3867 C199 1.368 . S
C3917 C224 0.817 . S
C3932 C346 0.786 . S
C3982 C368 1.352 . S
C3967 C252 1.344 . S
C4017 C166 1.212 . S
C4032 C391 1.059 . S
C4082 C621 1.374 . S
C4067 C238 1.420 . S
C4132 C432 1.386 . S
C4117 C172 1.449 . S
C4182 C388 1.143 . S
C4167 C250 1.308 . S
C4232 C349 0.841 . S
C4217 C218 0.897 . S
C4267 C43 0.949 . S
C4282 C645 0.918 . S
C4317 C31 1.608 . S
C4332 C560 1.594 . S
C4367 C17 1.049 . S
C4382 C582 1.012 . S
C4432 C599 1.112 . S
C4417 C3 1.117 . S
C4482 C557 1.692 . S
C4467 C68 1.704 . S
C4517 C56 1.166 . S
C4532 C580 1.029 . S
C4582 C602 1.203 . S
C4567 C96 1.208 . S
C4617 C82 1.250 . S
C4632 C643 1.103 . S
C4682 C640 0.931 . S
C4667 C192 1.022 . S
C4717 C161 1.487 . S
C4732 C558 1.401 . S
C4767 C237 1.396 . S
C4782 C577 1.239 . S
C4832 C603 1.213 . S
C4817 C225 1.282 . S
C4882 C561 0.943 . S
C4867 C186 0.981 . S
C4917 C159 0.941 . S
C4932 C581 0.938 . S
C4982 C600 0.799 . S
C4967 C239 0.813 . S
C5032 C644 1.298 . S
C5017 C231 1.299 . S
C5082 C641 1.365 . S
C5067 C121 1.370 . S
C5132 C493 1.037 . S
C5117 C291 1.197 . S
C5167 C109 1.385 . S
C5182 C516 1.321 . S
C5217 C270 1.248 . S
C5232 C538 1.065 . S
C5282 C642 1.295 . S
C5267 C309 1.351 . S
C5332 C578 1.370 . S
C5317 C146 1.377 . S
C5382 C535 0.846 . S
C5367 C107 0.934 . S
C5432 C496 0.786 . S
C5417 C134 0.821 . S
