# Generated by pormake.
# Topology tsx, (6,3)-cn, num edge types: 1
# Building blocks:
#     Node 0, Type 0, BuildingBlock: FUNLAD_clean_sbu_0, # of connection points: 6
#     Node 1, Type 0, BuildingBlock: FUNLAD_clean_sbu_0, # of connection points: 6
#     Node 2, Type 1, BuildingBlock: OLANEW_clean_sbu_2, # of connection points: 3
#     Node 3, Type 1, BuildingBlock: OLANEW_clean_sbu_2, # of connection points: 3
#     Node 4, Type 1, BuildingBlock: OLANEW_clean_sbu_2, # of connection points: 3
#     Node 5, Type 1, BuildingBlock: OLANEW_clean_sbu_2, # of connection points: 3
#     Edge 6, Type (0, 1), BuildingBlock: UVAHIK_clean_linker_0, # of connection points: 2
#     Edge 7, Type (0, 1), BuildingBlock: UVAHIK_clean_linker_0, # of connection points: 2
#     Edge 8, Type (0, 1), BuildingBlock: UVAHIK_clean_linker_0, # of connection points: 2
#     Edge 9, Type (0, 1), BuildingBlock: UVAHIK_clean_linker_0, # of connection points: 2
#     Edge 10, Type (0, 1), BuildingBlock: UVAHIK_clean_linker_0, # of connection points: 2
#     Edge 11, Type (0, 1), BuildingBlock: UVAHIK_clean_linker_0, # of connection points: 2
#     Edge 12, Type (0, 1), BuildingBlock: UVAHIK_clean_linker_0, # of connection points: 2
#     Edge 13, Type (0, 1), BuildingBlock: UVAHIK_clean_linker_0, # of connection points: 2
#     Edge 14, Type (0, 1), BuildingBlock: UVAHIK_clean_linker_0, # of connection points: 2
#     Edge 15, Type (0, 1), BuildingBlock: UVAHIK_clean_linker_0, # of connection points: 2
#     Edge 16, Type (0, 1), BuildingBlock: UVAHIK_clean_linker_0, # of connection points: 2
#     Edge 17, Type (0, 1), BuildingBlock: UVAHIK_clean_linker_0, # of connection points: 2
# Relax obj value: 0.078
# Max RMSD: 0.100
# Mean RMSD: 0.086
data_MOF--net-tsx--node1-FUNLAD_clean_sbu_0--node2-OLANEW_clean_sbu_2--edge1-UVAHIK_clean_linker_0
_symmetry_space_group_name_H-M    P1
_symmetry_Int_Tables_number       1
_symmetry_cell_setting            triclinic
loop_
_symmetry_equiv_pos_as_xyz
'x, y, z'
_cell_length_a     26.760661
_cell_length_b     29.556012
_cell_length_c     50.260121
_cell_angle_alpha  96.824954
_cell_angle_beta   92.171559
_cell_angle_gamma 89.941743
loop_
_atom_site_label
_atom_site_type_symbol
_atom_site_fract_x
_atom_site_fract_y
_atom_site_fract_z
_atom_type_partial_charge
C0 C 0.9289 0.94616 -0.00329 0.0
N1 N 0.00277 0.0218 0.06268 0.0
C2 C 0.95951 0.02313 0.07614 0.0
C3 C 0.96091 0.02399 0.10403 0.0
C4 C 0.00726 0.0232 0.11809 0.0
C5 C 0.05119 0.02263 0.10369 0.0
C6 C 0.04809 0.02198 0.07591 0.0
Zn7 Zn 0.0018 0.01705 0.02183 0.0
C8 C 0.07521 0.94767 -0.00068 0.0
N9 N 0.00306 0.00469 0.93647 0.0
C10 C 0.96071 0.00429 0.92057 0.0
C11 C 0.04911 0.00462 0.92589 0.0
C12 C 0.05399 0.00509 0.89847 0.0
C13 C 0.01111 0.00584 0.88159 0.0
C14 C 0.9639 0.00476 0.89287 0.0
Zn15 Zn 0.0009 0.00907 0.97726 0.0
O16 O 0.94523 0.9667 0.019 0.0
C17 C 0.92767 0.0784 -0.00067 0.0
O18 O 0.94642 0.95626 0.97497 0.0
H19 H 0.08236 0.00497 0.93882 0.0
H20 H 0.9239 0.02284 0.0652 0.0
H21 H 0.92448 0.00451 0.92943 0.0
O22 O 0.94628 0.06862 0.0216 0.0
O23 O 0.94339 0.0581 0.97752 0.0
H24 H 0.08204 0.02108 0.06487 0.0
O25 O 0.05587 0.06195 0.98023 0.0
O26 O 0.05757 0.06748 0.0241 0.0
O27 O 0.05773 0.96014 0.97755 0.0
O28 O 0.05797 0.96533 0.02137 0.0
C29 C 0.0736 0.08025 0.00275 0.0
H30 H 0.92615 0.0241 0.11439 0.0
H31 H 0.08768 0.02272 0.11378 0.0
H32 H 0.09111 0.005 0.89058 0.0
H33 H 0.92989 0.00553 0.88055 0.0
C34 C 0.43102 0.44527 0.49649 0.0
N35 N 0.50425 0.52342 0.5618 0.0
C36 C 0.46118 0.52381 0.57537 0.0
C37 C 0.46297 0.52522 0.6033 0.0
C38 C 0.50952 0.52597 0.61726 0.0
C39 C 0.55323 0.52651 0.60274 0.0
C40 C 0.54973 0.52523 0.57494 0.0
Zn41 Zn 0.503 0.51729 0.52093 0.0
C42 C 0.57694 0.44846 0.49911 0.0
N43 N 0.504 0.50253 0.43555 0.0
C44 C 0.46159 0.50117 0.41965 0.0
C45 C 0.55001 0.50047 0.42485 0.0
C46 C 0.55479 0.49687 0.39722 0.0
C47 C 0.51184 0.49565 0.38028 0.0
C48 C 0.46468 0.49791 0.39175 0.0
Zn49 Zn 0.50193 0.50898 0.47637 0.0
O50 O 0.44804 0.46539 0.51877 0.0
C51 C 0.42821 0.57788 0.49783 0.0
O52 O 0.44715 0.45668 0.47474 0.0
H53 H 0.58331 0.50206 0.4378 0.0
H54 H 0.42545 0.52222 0.56449 0.0
H55 H 0.4254 0.50288 0.4286 0.0
O56 O 0.44617 0.56764 0.52015 0.0
O57 O 0.44474 0.55819 0.47606 0.0
H58 H 0.58353 0.52503 0.56381 0.0
O59 O 0.55722 0.56136 0.4786 0.0
O60 O 0.55754 0.56892 0.5225 0.0
O61 O 0.55859 0.45979 0.47724 0.0
O62 O 0.56031 0.46698 0.5211 0.0
C63 C 0.57416 0.58073 0.50103 0.0
H64 H 0.42838 0.52445 0.61375 0.0
H65 H 0.58984 0.5278 0.61276 0.0
H66 H 0.59185 0.49604 0.38923 0.0
H67 H 0.43067 0.49687 0.37931 0.0
O68 O 0.9969 0.00168 0.4154 0.0
Cd69 Cd 0.99424 0.9961 0.46331 0.0
O70 O 0.06794 0.0396 0.41896 0.0
Cd71 Cd 0.05517 0.0598 0.46124 0.0
O72 O 0.00067 0.10747 0.47958 0.0
C73 C 0.97663 0.12724 0.46202 0.0
O74 O 0.98724 0.11685 0.43671 0.0
C75 C 0.03354 0.01837 0.4044 0.0
C76 C 0.06122 0.92812 0.47456 0.0
O77 O 0.01582 0.91849 0.46698 0.0
O78 O 0.07462 0.97006 0.47751 0.0
O79 O 0.05085 0.00436 0.58381 0.0
Cd80 Cd 0.05086 0.99586 0.53493 0.0
O81 O 0.10771 0.9517 0.58798 0.0
Cd82 Cd 0.0931 0.9243 0.54629 0.0
O83 O 0.03038 0.88448 0.52698 0.0
C84 C 0.99074 0.8898 0.5401 0.0
O85 O 0.99157 0.91859 0.56215 0.0
C86 C 0.08013 0.98338 0.59862 0.0
C87 C 0.10603 0.06734 0.51914 0.0
O88 O 0.05897 0.07113 0.52266 0.0
O89 O 0.12692 0.02939 0.52273 0.0
O90 O 0.50144 0.50345 0.91421 0.0
Cd91 Cd 0.49714 0.49805 0.96205 0.0
O92 O 0.57154 0.54282 0.91811 0.0
Cd93 Cd 0.55762 0.56286 0.96026 0.0
O94 O 0.50244 0.61012 0.97833 0.0
C95 C 0.47683 0.6285 0.96075 0.0
O96 O 0.48631 0.61724 0.93536 0.0
C97 C 0.53789 0.5208 0.9034 0.0
C98 C 0.56244 0.42928 0.97405 0.0
O99 O 0.51741 0.42011 0.96556 0.0
O100 O 0.57629 0.4711 0.97745 0.0
O101 O 0.53834 0.51356 0.08544 0.0
Cd102 Cd 0.528 0.51245 0.03698 0.0
O103 O 0.59974 0.46403 0.08452 0.0
Cd104 Cd 0.57966 0.44206 0.04264 0.0
O105 O 0.51668 0.40096 0.02482 0.0
C106 C 0.48057 0.40036 0.04045 0.0
O107 O 0.4844 0.42465 0.0641 0.0
C108 C 0.57178 0.49256 0.09775 0.0
C109 C 0.58431 0.58365 0.02192 0.0
O110 O 0.54018 0.59036 0.03058 0.0
O111 O 0.6017 0.54304 0.02002 0.0
C112 C 0.13934 0.12278 0.98139 0.0
C113 C 0.11336 0.11521 0.00426 0.0
C114 C 0.17879 0.1542 0.98335 0.0
C115 C 0.26824 0.21356 0.03377 0.0
H116 H 0.29087 0.29239 0.97892 0.0
C117 C 0.40071 0.36624 0.05262 0.0
C118 C 0.43673 0.37033 0.03342 0.0
C119 C 0.36113 0.33556 0.04715 0.0
C120 C 0.28515 0.27024 0.99424 0.0
H121 H 0.10705 0.13583 0.04687 0.0
H122 H 0.17458 0.19128 0.05016 0.0
H123 H 0.2211 0.23808 0.97312 0.0
H124 H 0.45842 0.34667 0.99297 0.0
H125 H 0.38836 0.29302 0.98331 0.0
H126 H 0.33145 0.2463 0.05513 0.0
C127 C 0.16568 0.17211 0.03084 0.0
C128 C 0.24534 0.23911 0.99093 0.0
C129 C 0.12668 0.14051 0.02893 0.0
C130 C 0.4313 0.34415 0.0082 0.0
C131 C 0.39122 0.31361 0.00263 0.0
C132 C 0.30755 0.24483 0.03715 0.0
C133 C 0.19278 0.17885 0.00819 0.0
C134 C 0.23607 0.21079 0.01085 0.0
C135 C 0.35637 0.30846 0.02229 0.0
C136 C 0.31606 0.27384 0.01761 0.0
H137 H 0.12999 0.10368 0.96209 0.0
H138 H 0.1991 0.15827 0.96556 0.0
H139 H 0.26314 0.19145 0.04917 0.0
H140 H 0.40356 0.38604 0.07219 0.0
H141 H 0.33434 0.33274 0.06251 0.0
C142 C 0.13802 0.90074 0.02248 0.0
C143 C 0.11651 0.91428 -0.00129 0.0
C144 C 0.17877 0.87085 0.02153 0.0
C145 C 0.28143 0.83159 0.97791 0.0
H146 H 0.28752 0.72639 0.01726 0.0
C147 C 0.41071 0.68224 0.94812 0.0
C148 C 0.4374 0.66221 0.96826 0.0
C149 C 0.37382 0.71447 0.95469 0.0
C150 C 0.28669 0.75603 0.00649 0.0
H151 H 0.12016 0.90616 0.95532 0.0
H152 H 0.19057 0.85424 0.95372 0.0
H153 H 0.21796 0.78011 0.02369 0.0
H154 H 0.44594 0.66001 0.01119 0.0
H155 H 0.38092 0.71679 0.02271 0.0
H156 H 0.34941 0.80748 0.96038 0.0
C157 C 0.17657 0.86713 0.97311 0.0
C158 C 0.2469 0.78672 0.01015 0.0
C159 C 0.13594 0.8967 0.97403 0.0
C160 C 0.426 0.67489 0.99522 0.0
C161 C 0.38873 0.70722 0.00181 0.0
C162 C 0.32102 0.80111 0.97429 0.0
C163 C 0.19886 0.8543 -0.00319 0.0
C164 C 0.24329 0.82417 0.99535 0.0
C165 C 0.36258 0.72759 0.98157 0.0
C166 C 0.32346 0.76238 0.988 0.0
H167 H 0.12387 0.91369 0.04181 0.0
H168 H 0.1953 0.86157 0.04012 0.0
H169 H 0.2803 0.86074 0.96671 0.0
H170 H 0.41827 0.67311 0.92715 0.0
H171 H 0.35368 0.72887 0.93859 0.0
C172 C 0.85689 0.91258 0.01757 0.0
C173 C 0.88984 0.91088 -0.00358 0.0
C174 C 0.82099 0.87856 0.01815 0.0
C175 C 0.75923 0.77914 0.97649 0.0
H176 H 0.72648 0.74742 0.0465 0.0
C177 C 0.65656 0.61404 -0.00089 0.0
C178 C 0.61492 0.62198 0.01524 0.0
C179 C 0.68741 0.65019 0.99437 0.0
C180 C 0.73512 0.75617 0.02684 0.0
H181 H 0.91101 0.87255 0.95915 0.0
H182 H 0.85004 0.81165 0.96076 0.0
H183 H 0.78677 0.80778 0.04326 0.0
H184 H 0.57211 0.67396 0.03844 0.0
H185 H 0.62713 0.73685 0.03087 0.0
H186 H 0.70891 0.72529 0.96032 0.0
C187 C 0.85062 0.83999 0.97653 0.0
C188 C 0.7694 0.79104 0.02491 0.0
C189 C 0.88585 0.87474 0.97564 0.0
C190 C 0.60398 0.66682 0.02597 0.0
C191 C 0.63541 0.70275 0.02171 0.0
C192 C 0.72567 0.74347 0.97846 0.0
C193 C 0.81793 0.84122 -0.00206 0.0
C194 C 0.78168 0.80341 -0.00027 0.0
C195 C 0.67763 0.69464 0.00613 0.0
C196 C 0.71309 0.73205 0.00367 0.0
H197 H 0.85867 0.94044 0.03367 0.0
H198 H 0.79565 0.8817 0.03454 0.0
H199 H 0.76702 0.78794 0.95676 0.0
H200 H 0.6656 0.57984 0.99042 0.0
H201 H 0.7199 0.64323 0.98235 0.0
C202 C 0.88429 0.14864 0.01955 0.0
C203 C 0.88815 0.11313 -0.00144 0.0
C204 C 0.84816 0.18259 0.01803 0.0
C205 C 0.76156 0.2308 0.96847 0.0
H206 H 0.70342 0.29172 0.03259 0.0
C207 C 0.58776 0.34737 0.96812 0.0
C208 C 0.59771 0.39253 0.97919 0.0
C209 C 0.62236 0.31296 0.97164 0.0
C210 C 0.71954 0.27491 0.01459 0.0
H211 H 0.85613 0.08405 0.96009 0.0
H212 H 0.79151 0.14142 0.95805 0.0
H213 H 0.76438 0.231 0.03645 0.0
H214 H 0.65073 0.43682 0.00344 0.0
H215 H 0.71054 0.37601 0.01034 0.0
H216 H 0.71481 0.27373 0.94668 0.0
C217 C 0.81757 0.14466 0.97518 0.0
C218 C 0.75475 0.24037 0.01673 0.0
C219 C 0.8544 0.11142 0.97641 0.0
C220 C 0.6422 0.40235 0.99457 0.0
C221 C 0.67626 0.36767 -0.00138 0.0
C222 C 0.72557 0.26453 0.96633 0.0
C223 C 0.81434 0.18119 0.99575 0.0
C224 C 0.77641 0.21785 0.99367 0.0
C225 C 0.6669 0.3229 0.98683 0.0
C226 C 0.70445 0.28691 0.98935 0.0
H227 H 0.9101 0.15088 0.03679 0.0
H228 H 0.84761 0.2104 0.0341 0.0
H229 H 0.77812 0.21538 0.95028 0.0
H230 H 0.55381 0.33878 0.95617 0.0
H231 H 0.61446 0.27855 0.96244 0.0
C232 C 0.62514 0.64328 0.52649 0.0
C233 C 0.61409 0.61549 0.50235 0.0
C234 C 0.66473 0.67428 0.52842 0.0
C235 C 0.7526 0.73347 0.48841 0.0
H236 H 0.83012 0.74704 0.55567 0.0
C237 C 0.94293 0.83159 0.50842 0.0
C238 C 0.94587 0.86139 0.53244 0.0
C239 C 0.90164 0.80251 0.50256 0.0
C240 C 0.80866 0.74375 0.53682 0.0
H241 H 0.63526 0.59896 0.46111 0.0
H242 H 0.70551 0.6523 0.4647 0.0
H243 H 0.75996 0.69424 0.54963 0.0
H244 H 0.90709 0.88512 0.56863 0.0
H245 H 0.83586 0.83419 0.55852 0.0
H246 H 0.80272 0.78267 0.47561 0.0
C247 C 0.68295 0.65077 0.48201 0.0
C248 C 0.76823 0.71369 0.53337 0.0
C249 C 0.64282 0.62006 0.47998 0.0
C250 C 0.90619 0.86246 0.55003 0.0
C251 C 0.86543 0.83317 0.54432 0.0
C252 C 0.79362 0.76329 0.49178 0.0
C253 C 0.69481 0.67782 0.5064 0.0
C254 C 0.73911 0.70867 0.50931 0.0
C255 C 0.86309 0.80243 0.52078 0.0
C256 C 0.82147 0.76916 0.51619 0.0
H257 H 0.60332 0.64094 0.544 0.0
H258 H 0.67186 0.69538 0.54732 0.0
H259 H 0.73084 0.7307 0.46968 0.0
H260 H 0.97286 0.83017 0.49443 0.0
H261 H 0.90065 0.77903 0.48427 0.0
C262 C 0.63817 0.3977 0.47408 0.0
C263 C 0.61844 0.41532 0.49868 0.0
C264 C 0.67882 0.36815 0.47334 0.0
C265 C 0.74784 0.2874 0.51056 0.0
H266 H 0.85179 0.30797 0.46158 0.0
C267 C 0.9255 0.17373 0.4963 0.0
C268 C 0.93764 0.16145 0.46943 0.0
C269 C 0.88862 0.20648 0.50279 0.0
C270 C 0.82299 0.30164 0.47527 0.0
H271 H 0.62531 0.41494 0.54181 0.0
H272 H 0.69669 0.36278 0.54042 0.0
H273 H 0.78295 0.36162 0.46761 0.0
H274 H 0.92024 0.17351 0.42832 0.0
H275 H 0.85625 0.22991 0.43957 0.0
H276 H 0.78764 0.22668 0.5177 0.0
C277 C 0.68042 0.37204 0.52176 0.0
C278 C 0.78358 0.33236 0.47872 0.0
C279 C 0.63971 0.40194 0.52254 0.0
C280 C 0.9121 0.18233 0.44925 0.0
C281 C 0.87556 0.21494 0.4557 0.0
C282 C 0.7874 0.25646 0.50705 0.0
C283 C 0.70075 0.35536 0.49714 0.0
C284 C 0.74496 0.32501 0.49588 0.0
C285 C 0.86357 0.22765 0.48252 0.0
C286 C 0.8247 0.26272 0.48884 0.0
H287 H 0.62261 0.40709 0.4553 0.0
H288 H 0.69307 0.35518 0.45403 0.0
H289 H 0.71849 0.28087 0.52388 0.0
H290 H 0.94456 0.1582 0.5123 0.0
H291 H 0.88024 0.21572 0.52364 0.0
C292 C 0.37633 0.38385 0.47178 0.0
C293 C 0.39343 0.40843 0.49609 0.0
C294 C 0.34193 0.34819 0.47167 0.0
C295 C 0.24827 0.30123 0.51341 0.0
H296 H 0.27107 0.18771 0.46843 0.0
C297 C 0.11319 0.14877 0.51039 0.0
C298 C 0.13565 0.10613 0.51203 0.0
C299 C 0.14186 0.18618 0.50547 0.0
C300 C 0.26424 0.21918 0.48113 0.0
H301 H 0.38732 0.41512 0.53933 0.0
H302 H 0.3278 0.35294 0.53911 0.0
H303 H 0.32635 0.25269 0.46614 0.0
H304 H 0.20557 0.06901 0.50901 0.0
H305 H 0.25565 0.13437 0.50074 0.0
H306 H 0.18725 0.2674 0.52906 0.0
C307 C 0.34049 0.36146 0.52011 0.0
C308 C 0.29559 0.25655 0.47961 0.0
C309 C 0.37492 0.39695 0.52023 0.0
C310 C 0.18712 0.10141 0.5079 0.0
C311 C 0.21579 0.13882 0.50297 0.0
C312 C 0.2169 0.26394 0.51488 0.0
C313 C 0.32374 0.33651 0.49586 0.0
C314 C 0.28838 0.29781 0.49602 0.0
C315 C 0.19363 0.1818 0.50208 0.0
C316 C 0.22488 0.22229 0.49901 0.0
H317 H 0.38977 0.3919 0.45283 0.0
H318 H 0.32937 0.3299 0.45264 0.0
H319 H 0.24134 0.3327 0.52609 0.0
H320 H 0.07361 0.15357 0.51345 0.0
H321 H 0.12353 0.21868 0.50455 0.0
C322 C 0.38404 0.64743 0.51834 0.0
C323 C 0.38871 0.61263 0.49702 0.0
C324 C 0.348 0.68146 0.51687 0.0
C325 C 0.26324 0.73163 0.46725 0.0
H326 H 0.20251 0.78967 0.53137 0.0
C327 C 0.08693 0.84629 0.46874 0.0
C328 C 0.09742 0.89174 0.47903 0.0
C329 C 0.12198 0.8121 0.4719 0.0
C330 C 0.21937 0.77366 0.51337 0.0
H331 H 0.35826 0.58497 0.45792 0.0
H332 H 0.29376 0.64249 0.4559 0.0
H333 H 0.26344 0.72884 0.53497 0.0
H334 H 0.15218 0.93683 0.50136 0.0
H335 H 0.21286 0.87643 0.50762 0.0
H336 H 0.21713 0.77546 0.44571 0.0
C337 C 0.31912 0.64508 0.47331 0.0
C338 C 0.25457 0.73907 0.51537 0.0
C339 C 0.35588 0.61175 0.47453 0.0
C340 C 0.14316 0.90214 0.49312 0.0
C341 C 0.17773 0.86772 0.49681 0.0
C342 C 0.22726 0.76543 0.46524 0.0
C343 C 0.31506 0.68087 0.49427 0.0
C344 C 0.27715 0.71759 0.49232 0.0
C345 C 0.16758 0.82261 0.48592 0.0
C346 C 0.20526 0.78674 0.48827 0.0
H347 H 0.40914 0.64907 0.53586 0.0
H348 H 0.34682 0.70871 0.53325 0.0
H349 H 0.28049 0.717 0.44908 0.0
H350 H 0.05204 0.83724 0.45777 0.0
H351 H 0.11356 0.77741 0.46338 0.0
C352 C 0.97919 0.05005 0.16441 0.0
C353 C 0.01007 0.02204 0.14753 0.0
C354 C 0.98262 0.04924 0.19218 0.0
C355 C 0.06742 0.01593 0.24638 0.0
H356 H 0.94668 0.0218 0.28689 0.0
C357 C 0.99758 0.99003 0.35881 0.0
C358 C 0.03439 0.01531 0.37483 0.0
C359 C 0.99597 0.98967 0.331 0.0
C360 C 0.98074 0.01971 0.27584 0.0
H361 H 0.0678 0.97037 0.14642 0.0
H362 H 0.07347 0.96864 0.19476 0.0
H363 H 0.9406 0.02323 0.23854 0.0
H364 H 0.09907 0.0593 0.37413 0.0
H365 H 0.09588 0.05911 0.32557 0.0
H366 H 0.10746 0.01135 0.28363 0.0
C367 C 0.04741 0.992 0.18666 0.0
C368 C 0.97728 0.02115 0.24817 0.0
C369 C 0.0441 0.99293 0.15895 0.0
C370 C 0.07031 0.03936 0.36236 0.0
C371 C 0.06859 0.03913 0.33451 0.0
C372 C 0.07087 0.01441 0.27407 0.0
C373 C 0.01684 0.02024 0.20362 0.0
C374 C 0.02057 0.01922 0.2331 0.0
C375 C 0.03101 0.01473 0.31855 0.0
C376 C 0.02755 0.01619 0.28911 0.0
H377 H 0.95302 0.0732 0.15621 0.0
H378 H 0.959 0.07188 0.20471 0.0
H379 H 0.10154 0.01491 0.23541 0.0
H380 H 0.96953 0.97087 0.36776 0.0
H381 H 0.96713 0.96982 0.31925 0.0
C382 C 0.98586 0.98185 0.83329 0.0
C383 C 0.01623 0.00846 0.85252 0.0
C384 C 0.99291 0.98276 0.80592 0.0
C385 C 0.08885 0.00862 0.75934 0.0
H386 H 0.97679 0.00823 0.70811 0.0
C387 C 0.04468 0.02516 0.63987 0.0
C388 C 0.07854 0.99301 0.62814 0.0
C389 C 0.03882 0.0306 0.66754 0.0
C390 C 0.00849 0.00879 0.7222 0.0
H391 H 0.07611 0.05854 0.85813 0.0
H392 H 0.08841 0.06 0.81049 0.0
H393 H 0.96134 0.01122 0.75582 0.0
H394 H 0.13434 0.94271 0.63644 0.0
H395 H 0.12404 0.95223 0.68478 0.0
H396 H 0.136 0.00636 0.72573 0.0
C397 C 0.05989 0.03774 0.81653 0.0
C398 C -0.0004 0.00996 0.74948 0.0
C399 C 0.05283 0.03687 0.84381 0.0
C400 C 0.10792 0.96777 0.64483 0.0
C401 C 0.10215 0.97332 0.67254 0.0
C402 C 0.09773 0.00726 0.73205 0.0
C403 C 0.03043 0.01032 0.79728 0.0
C404 C 0.03968 0.00978 0.76833 0.0
C405 C 0.06681 0.00414 0.68411 0.0
C406 C 0.05764 0.00722 0.71319 0.0
H407 H 0.95764 0.95936 0.83937 0.0
H408 H 0.96991 0.96094 0.79155 0.0
H409 H 0.12052 0.00798 0.77336 0.0
H410 H 0.02161 0.04533 0.62762 0.0
H411 H 0.01191 0.05516 0.67595 0.0
C412 C 0.48125 0.55219 0.66362 0.0
C413 C 0.51286 0.52505 0.6467 0.0
C414 C 0.48509 0.5515 0.69138 0.0
C415 C 0.57158 0.52044 0.74549 0.0
H416 H 0.45106 0.52226 0.78603 0.0
C417 C 0.5034 0.49125 0.85772 0.0
C418 C 0.53917 0.51766 0.87385 0.0
C419 C 0.50182 0.491 0.82993 0.0
C420 C 0.48508 0.52131 0.77497 0.0
H421 H 0.57235 0.47504 0.64553 0.0
H422 H 0.57874 0.47352 0.69386 0.0
H423 H 0.44449 0.52399 0.73772 0.0
H424 H 0.60218 0.56366 0.87337 0.0
H425 H 0.59903 0.56364 0.82481 0.0
H426 H 0.6121 0.51667 0.7827 0.0
C427 C 0.55178 0.49613 0.68579 0.0
C428 C 0.48132 0.52294 0.74732 0.0
C429 C 0.54806 0.49695 0.65809 0.0
C430 C 0.57423 0.54286 0.8615 0.0
C431 C 0.57253 0.54273 0.83366 0.0
C432 C 0.57534 0.51873 0.77315 0.0
C433 C 0.52046 0.52348 0.70278 0.0
C434 C 0.52451 0.52244 0.73225 0.0
C435 C 0.53584 0.51729 0.8176 0.0
C436 C 0.53211 0.51902 0.7882 0.0
H437 H 0.45415 0.57456 0.65543 0.0
H438 H 0.46085 0.57343 0.70395 0.0
H439 H 0.60562 0.52053 0.73451 0.0
H440 H 0.47607 0.47117 0.86657 0.0
H441 H 0.47375 0.47032 0.81809 0.0
C442 C 0.55225 0.46403 0.33795 0.0
C443 C 0.51693 0.49329 0.35089 0.0
C444 C 0.56017 0.46436 0.3107 0.0
C445 C 0.54651 0.53806 0.25697 0.0
H446 H 0.56363 0.42574 0.20991 0.0
C447 C 0.54292 0.52947 0.1418 0.0
C448 C 0.57446 0.49821 0.1274 0.0
C449 C 0.54036 0.53092 0.16956 0.0
C450 C 0.55978 0.45744 0.22288 0.0
H451 H 0.46149 0.54519 0.34533 0.0
H452 H 0.47487 0.54538 0.29751 0.0
H453 H 0.5475 0.42267 0.25707 0.0
H454 H 0.62999 0.44553 0.13104 0.0
H455 H 0.62589 0.44846 0.17965 0.0
H456 H 0.55855 0.57283 0.22275 0.0
C457 C 0.49682 0.52256 0.30858 0.0
C458 C 0.55032 0.45566 0.24987 0.0
C459 C 0.48873 0.52207 0.33585 0.0
C460 C 0.60515 0.46988 0.14153 0.0
C461 C 0.60252 0.4713 0.16934 0.0
C462 C 0.55606 0.53985 0.22999 0.0
C463 C 0.53304 0.49408 0.2958 0.0
C464 C 0.54325 0.49593 0.26715 0.0
C465 C 0.56929 0.50115 0.18357 0.0
C466 C 0.56247 0.49955 0.2126 0.0
H467 H 0.57418 0.44115 0.349 0.0
H468 H 0.58849 0.44219 0.30146 0.0
H469 H 0.54215 0.5697 0.26992 0.0
H470 H 0.51884 0.55187 0.13156 0.0
H471 H 0.51408 0.55406 0.17987 0.0
loop_
_geom_bond_atom_site_label_1
_geom_bond_atom_site_label_2
_geom_bond_distance
_geom_bond_site_symmetry_2
_ccdc_geom_bond_type
C0 O16 1.251 . S
C0 O18 1.254 1_554 S
N1 C2 1.333 1_455 S
N1 C6 1.307 . S
N1 Zn7 2.020 . S
C2 N1 1.333 1_655 S
C2 C3 1.379 . S
C2 H20 0.952 1_545 S
C3 C2 1.379 . S
C3 C4 1.390 1_655 S
C3 H30 0.949 . S
C4 C3 1.390 1_455 S
C4 C5 1.357 . S
C5 C4 1.357 . S
C5 C6 1.370 . S
C5 H31 0.950 . S
C6 N1 1.307 . S
C6 C5 1.370 . S
C6 H24 0.948 . S
Zn7 N1 2.020 . S
Zn7 O16 2.039 1_445 S
Zn7 O22 2.034 1_455 S
Zn7 O26 2.025 . S
Zn7 O28 2.024 1_545 S
C8 O27 1.246 1_554 S
C8 O28 1.249 . S
N9 C10 1.307 1_445 S
N9 C11 1.333 . S
N9 Zn15 2.020 . S
C10 N9 1.307 1_665 S
C10 C14 1.370 . S
C10 H21 0.948 . S
C11 N9 1.333 . S
C11 C12 1.379 . S
C11 H19 0.952 . S
C12 C11 1.379 . S
C12 C13 1.390 . S
C12 H32 0.949 . S
C13 C12 1.390 . S
C13 C14 1.357 1_445 S
C14 C10 1.370 . S
C14 C13 1.357 1_665 S
C14 H33 0.950 . S
Zn15 N9 2.020 . S
Zn15 O18 2.025 1_445 S
Zn15 O23 2.024 1_455 S
Zn15 O25 2.039 . S
Zn15 O27 2.034 1_545 S
O16 C0 1.251 . S
O16 Zn7 2.039 1_665 S
C17 O22 1.246 . S
C17 O23 1.249 1_554 S
O18 C0 1.254 1_556 S
O18 Zn15 2.025 1_665 S
H19 C11 0.952 . S
H20 C2 0.952 1_565 S
H21 C10 0.948 . S
O22 Zn7 2.034 1_655 S
O22 C17 1.246 . S
O23 Zn15 2.024 1_655 S
O23 C17 1.249 1_556 S
H24 C6 0.948 . S
O25 Zn15 2.039 . S
O25 C29 1.251 1_556 S
O26 Zn7 2.025 . S
O26 C29 1.254 . S
O27 C8 1.246 1_556 S
O27 Zn15 2.034 1_565 S
O28 Zn7 2.024 1_565 S
O28 C8 1.249 . S
C29 O25 1.251 1_554 S
C29 O26 1.254 . S
H30 C3 0.949 . S
H31 C5 0.950 . S
H32 C12 0.949 . S
H33 C14 0.950 . S
C34 O50 1.251 . S
C34 O52 1.254 . S
N35 C36 1.333 . S
N35 C40 1.307 . S
N35 Zn41 2.020 . S
C36 N35 1.333 . S
C36 C37 1.379 . S
C36 H54 0.952 . S
C37 C36 1.379 . S
C37 C38 1.390 . S
C37 H64 0.949 . S
C38 C37 1.390 . S
C38 C39 1.357 . S
C39 C38 1.357 . S
C39 C40 1.370 . S
C39 H65 0.950 . S
C40 N35 1.307 . S
C40 C39 1.370 . S
C40 H58 0.948 . S
Zn41 N35 2.020 . S
Zn41 O50 2.039 . S
Zn41 O56 2.034 . S
Zn41 O60 2.025 . S
Zn41 O62 2.024 . S
C42 O61 1.246 . S
C42 O62 1.249 . S
N43 C44 1.307 . S
N43 C45 1.333 . S
N43 Zn49 2.020 . S
C44 N43 1.307 . S
C44 C48 1.370 . S
C44 H55 0.948 . S
C45 N43 1.333 . S
C45 C46 1.379 . S
C45 H53 0.952 . S
C46 C45 1.379 . S
C46 C47 1.390 . S
C46 H66 0.949 . S
C47 C46 1.390 . S
C47 C48 1.357 . S
C48 C44 1.370 . S
C48 C47 1.357 . S
C48 H67 0.950 . S
Zn49 N43 2.020 . S
Zn49 O52 2.025 . S
Zn49 O57 2.024 . S
Zn49 O59 2.039 . S
Zn49 O61 2.034 . S
O50 C34 1.251 . S
O50 Zn41 2.039 . S
C51 O56 1.246 . S
C51 O57 1.249 . S
O52 C34 1.254 . S
O52 Zn49 2.025 . S
H53 C45 0.952 . S
H54 C36 0.952 . S
H55 C44 0.948 . S
O56 Zn41 2.034 . S
O56 C51 1.246 . S
O57 Zn49 2.024 . S
O57 C51 1.249 . S
H58 C40 0.948 . S
O59 Zn49 2.039 . S
O59 C63 1.251 . S
O60 Zn41 2.025 . S
O60 C63 1.254 . S
O61 C42 1.246 . S
O61 Zn49 2.034 . S
O62 Zn41 2.024 . S
O62 C42 1.249 . S
C63 O59 1.251 . S
C63 O60 1.254 . S
H64 C37 0.949 . S
H65 C39 0.950 . S
H66 C46 0.949 . S
H67 C48 0.950 . S
O68 Cd69 2.300 1_565 S
O68 C75 1.275 1_565 S
Cd69 O68 2.300 1_545 S
Cd69 O77 2.381 1_545 S
Cd69 O78 2.378 1_545 S
O70 Cd71 2.385 . S
O70 C75 1.255 . S
Cd71 O70 2.385 . S
Cd71 O72 2.317 1_455 S
O72 Cd71 2.317 1_655 S
O72 C73 1.232 . S
C73 O72 1.232 . S
C73 O74 1.218 . S
O74 C73 1.218 . S
C75 O68 1.275 1_545 S
C75 O70 1.255 . S
C76 O77 1.258 . S
C76 O78 1.256 . S
O77 Cd69 2.381 1_565 S
O77 C76 1.258 . S
O78 Cd69 2.378 1_565 S
O78 C76 1.256 . S
O79 Cd80 2.300 . S
O79 C86 1.255 1_545 S
Cd80 O79 2.300 . S
Cd80 O88 2.381 . S
Cd80 O89 2.378 . S
O81 Cd82 2.385 . S
O81 C86 1.272 . S
Cd82 O81 2.385 . S
Cd82 O83 2.317 1_455 S
O83 Cd82 2.317 1_655 S
O83 C84 1.232 . S
C84 O83 1.232 . S
C84 O85 1.218 . S
O85 C84 1.218 . S
C86 O79 1.255 1_565 S
C86 O81 1.272 . S
C87 O88 1.258 . S
C87 O89 1.256 . S
O88 Cd80 2.381 . S
O88 C87 1.258 . S
O89 Cd80 2.378 . S
O89 C87 1.256 . S
O90 Cd91 2.300 . S
O90 C97 1.275 . S
Cd91 O90 2.300 . S
Cd91 O99 2.381 . S
Cd91 O100 2.378 . S
O92 Cd93 2.385 . S
O92 C97 1.255 . S
Cd93 O92 2.385 . S
Cd93 O94 2.317 . S
O94 Cd93 2.317 . S
O94 C95 1.232 . S
C95 O94 1.232 . S
C95 O96 1.218 . S
O96 C95 1.218 . S
C97 O90 1.275 . S
C97 O92 1.255 . S
C98 O99 1.258 . S
C98 O100 1.256 . S
O99 Cd91 2.381 . S
O99 C98 1.258 . S
O100 Cd91 2.378 . S
O100 C98 1.256 . S
O101 Cd102 2.300 . S
O101 C108 1.275 . S
Cd102 O101 2.300 . S
Cd102 O110 2.381 . S
Cd102 O111 2.378 . S
O103 Cd104 2.385 . S
O103 C108 1.255 . S
Cd104 O103 2.385 . S
Cd104 O105 2.317 . S
O105 Cd104 2.317 . S
O105 C106 1.232 . S
C106 O105 1.232 . S
C106 O107 1.218 . S
O107 C106 1.218 . S
C108 O101 1.275 . S
C108 O103 1.255 . S
C109 O110 1.258 . S
C109 O111 1.256 . S
O110 Cd102 2.381 . S
O110 C109 1.258 . S
O111 Cd102 2.378 . S
O111 C109 1.256 . S
C112 C113 1.349 1_556 S
C112 C114 1.327 . S
C112 H137 0.950 . S
C113 C112 1.349 1_554 S
C113 C129 1.349 . S
C114 C112 1.327 . S
C114 C133 1.429 1_556 S
C114 H138 0.950 . S
C115 C132 1.574 . S
C115 C134 1.368 . S
C115 H139 0.949 . S
H116 C120 0.949 . S
C117 C118 1.349 . S
C117 C119 1.327 . S
C117 H140 0.950 . S
C118 C117 1.349 . S
C118 C130 1.349 . S
C119 C117 1.327 . S
C119 C135 1.429 . S
C119 H141 0.950 . S
C120 H116 0.949 . S
C120 C128 1.574 . S
C120 C136 1.368 1_556 S
H121 C129 0.950 . S
H122 C127 0.950 . S
H123 C128 0.949 . S
H124 C130 0.950 1_556 S
H125 C131 0.950 1_556 S
H126 C132 0.949 . S
C127 H122 0.950 . S
C127 C129 1.327 . S
C127 C133 1.429 . S
C128 C120 1.574 . S
C128 H123 0.949 . S
C128 C134 1.368 1_556 S
C129 C113 1.349 . S
C129 H121 0.950 . S
C129 C127 1.327 . S
C130 C118 1.349 . S
C130 H124 0.950 1_554 S
C130 C131 1.327 . S
C131 H125 0.950 1_554 S
C131 C130 1.327 . S
C131 C135 1.429 . S
C132 C115 1.574 . S
C132 H126 0.949 . S
C132 C136 1.368 . S
C133 C114 1.429 1_554 S
C133 C127 1.429 . S
C133 C134 1.523 . S
C134 C115 1.368 . S
C134 C128 1.368 1_554 S
C134 C133 1.523 . S
C135 C119 1.429 . S
C135 C131 1.429 . S
C135 C136 1.523 . S
C136 C120 1.368 1_554 S
C136 C132 1.368 . S
C136 C135 1.523 . S
H137 C112 0.950 . S
H138 C114 0.950 . S
H139 C115 0.949 . S
H140 C117 0.950 . S
H141 C119 0.950 . S
C142 C143 1.331 1_554 S
C142 C144 1.327 . S
C142 H167 0.950 . S
C143 C142 1.331 1_556 S
C143 C159 1.367 . S
C144 C142 1.327 . S
C144 C163 1.429 1_554 S
C144 H168 0.950 . S
C145 C162 1.574 . S
C145 C164 1.368 . S
C145 H169 0.949 . S
H146 C150 0.949 . S
C147 C148 1.349 . S
C147 C149 1.327 . S
C147 H170 0.950 . S
C148 C147 1.349 . S
C148 C160 1.372 . S
C149 C147 1.327 . S
C149 C165 1.429 . S
C149 H171 0.950 . S
C150 H146 0.949 . S
C150 C158 1.574 . S
C150 C166 1.368 1_554 S
H151 C159 0.950 . S
H152 C157 0.950 . S
H153 C158 0.949 . S
H154 C160 0.928 1_554 S
H155 C161 0.950 . S
H156 C162 0.949 . S
C157 H152 0.950 . S
C157 C159 1.327 . S
C157 C163 1.429 . S
C158 C150 1.574 . S
C158 H153 0.949 . S
C158 C164 1.368 1_554 S
C159 C143 1.367 . S
C159 H151 0.950 . S
C159 C157 1.327 . S
C160 C148 1.372 . S
C160 H154 0.928 1_556 S
C160 C161 1.326 1_556 S
C161 H155 0.950 . S
C161 C160 1.326 1_554 S
C161 C165 1.429 1_554 S
C162 C145 1.574 . S
C162 H156 0.949 . S
C162 C166 1.368 . S
C163 C144 1.429 1_556 S
C163 C157 1.429 . S
C163 C164 1.523 . S
C164 C145 1.368 . S
C164 C158 1.368 1_556 S
C164 C163 1.523 . S
C165 C149 1.429 . S
C165 C161 1.429 1_556 S
C165 C166 1.523 . S
C166 C150 1.368 1_556 S
C166 C162 1.368 . S
C166 C165 1.523 . S
H167 C142 0.950 . S
H168 C144 0.950 . S
H169 C145 0.949 . S
H170 C147 0.950 . S
H171 C149 0.950 . S
C172 C173 1.349 . S
C172 C174 1.327 . S
C172 H197 0.950 . S
C173 C172 1.349 . S
C173 C189 1.349 1_554 S
C174 C172 1.327 . S
C174 C193 1.429 . S
C174 H198 0.950 . S
C175 C192 1.574 . S
C175 C194 1.368 1_556 S
C175 H199 0.949 . S
H176 C180 0.949 . S
C177 C178 1.349 1_556 S
C177 C179 1.327 . S
C177 H200 0.950 . S
C178 C177 1.349 1_554 S
C178 C190 1.349 . S
C179 C177 1.327 . S
C179 C195 1.429 1_556 S
C179 H201 0.950 . S
C180 H176 0.949 . S
C180 C188 1.574 . S
C180 C196 1.368 . S
H181 C189 0.950 . S
H182 C187 0.950 . S
H183 C188 0.949 . S
H184 C190 0.950 . S
H185 C191 0.950 . S
H186 C192 0.949 . S
C187 H182 0.950 . S
C187 C189 1.327 . S
C187 C193 1.429 1_556 S
C188 C180 1.574 . S
C188 H183 0.949 . S
C188 C194 1.368 . S
C189 C173 1.349 1_556 S
C189 H181 0.950 . S
C189 C187 1.327 . S
C190 C178 1.349 . S
C190 H184 0.950 . S
C190 C191 1.327 . S
C191 H185 0.950 . S
C191 C190 1.327 . S
C191 C195 1.429 . S
C192 C175 1.574 . S
C192 H186 0.949 . S
C192 C196 1.368 1_556 S
C193 C174 1.429 . S
C193 C187 1.429 1_554 S
C193 C194 1.523 . S
C194 C175 1.368 1_554 S
C194 C188 1.368 . S
C194 C193 1.523 . S
C195 C179 1.429 1_554 S
C195 C191 1.429 . S
C195 C196 1.523 . S
C196 C180 1.368 . S
C196 C192 1.368 1_554 S
C196 C195 1.523 . S
H197 C172 0.950 . S
H198 C174 0.950 . S
H199 C175 0.949 . S
H200 C177 0.950 . S
H201 C179 0.950 . S
C202 C203 1.349 . S
C202 C204 1.327 . S
C202 H227 0.950 . S
C203 C202 1.349 . S
C203 C219 1.349 1_554 S
C204 C202 1.327 . S
C204 C223 1.429 . S
C204 H228 0.950 . S
C205 C222 1.574 . S
C205 C224 1.381 . S
C205 H229 0.949 . S
H206 C210 0.949 . S
C207 C208 1.349 . S
C207 C209 1.327 . S
C207 H230 0.950 . S
C208 C207 1.349 . S
C208 C220 1.349 1_556 S
C209 C207 1.327 . S
C209 C225 1.429 . S
C209 H231 0.950 . S
C210 H206 0.949 . S
C210 C218 1.574 . S
C210 C226 1.368 1_554 S
H211 C219 0.950 . S
H212 C217 0.950 . S
H213 C218 0.949 . S
H214 C220 0.950 . S
H215 C221 0.950 . S
H216 C222 0.949 . S
C217 H212 0.950 . S
C217 C219 1.327 . S
C217 C223 1.429 1_556 S
C218 C210 1.574 . S
C218 H213 0.949 . S
C218 C224 1.357 1_554 S
C219 C203 1.349 1_556 S
C219 H211 0.950 . S
C219 C217 1.327 . S
C220 C208 1.349 1_554 S
C220 H214 0.950 . S
C220 C221 1.327 . S
C221 H215 0.950 . S
C221 C220 1.327 . S
C221 C225 1.429 1_554 S
C222 C205 1.574 . S
C222 H216 0.949 . S
C222 C226 1.368 . S
C223 C204 1.429 . S
C223 C217 1.429 1_554 S
C223 C224 1.521 1_554 S
C224 C205 1.381 . S
C224 C218 1.357 1_556 S
C224 C223 1.521 1_556 S
C225 C209 1.429 . S
C225 C221 1.429 1_556 S
C225 C226 1.523 . S
C226 C210 1.368 1_556 S
C226 C222 1.368 . S
C226 C225 1.523 . S
H227 C202 0.950 . S
H228 C204 0.950 . S
H229 C205 0.949 . S
H230 C207 0.950 . S
H231 C209 0.950 . S
C232 C233 1.349 . S
C232 C234 1.327 . S
C232 H257 0.950 . S
C233 C232 1.349 . S
C233 C249 1.349 . S
C234 C232 1.327 . S
C234 C253 1.429 . S
C234 H258 0.950 . S
C235 C252 1.574 . S
C235 C254 1.368 . S
C235 H259 0.949 . S
H236 C240 0.949 . S
C237 C238 1.349 . S
C237 C239 1.327 . S
C237 H260 0.950 . S
C238 C237 1.349 . S
C238 C250 1.349 . S
C239 C237 1.327 . S
C239 C255 1.429 . S
C239 H261 0.950 . S
C240 H236 0.949 . S
C240 C248 1.574 . S
C240 C256 1.368 . S
H241 C249 0.950 . S
H242 C247 0.950 . S
H243 C248 0.949 . S
H244 C250 0.950 . S
H245 C251 0.950 . S
H246 C252 0.949 . S
C247 H242 0.950 . S
C247 C249 1.327 . S
C247 C253 1.429 . S
C248 C240 1.574 . S
C248 H243 0.949 . S
C248 C254 1.368 . S
C249 C233 1.349 . S
C249 H241 0.950 . S
C249 C247 1.327 . S
C250 C238 1.349 . S
C250 H244 0.950 . S
C250 C251 1.327 . S
C251 H245 0.950 . S
C251 C250 1.327 . S
C251 C255 1.429 . S
C252 C235 1.574 . S
C252 H246 0.949 . S
C252 C256 1.368 . S
C253 C234 1.429 . S
C253 C247 1.429 . S
C253 C254 1.523 . S
C254 C235 1.368 . S
C254 C248 1.368 . S
C254 C253 1.523 . S
C255 C239 1.429 . S
C255 C251 1.429 . S
C255 C256 1.523 . S
C256 C240 1.368 . S
C256 C252 1.368 . S
C256 C255 1.523 . S
H257 C232 0.950 . S
H258 C234 0.950 . S
H259 C235 0.949 . S
H260 C237 0.950 . S
H261 C239 0.950 . S
C262 C263 1.349 . S
C262 C264 1.327 . S
C262 H287 0.950 . S
C263 C262 1.349 . S
C263 C279 1.349 . S
C264 C262 1.327 . S
C264 C283 1.429 . S
C264 H288 0.950 . S
C265 C282 1.574 . S
C265 C284 1.368 . S
C265 H289 0.949 . S
H266 C270 0.949 . S
C267 C268 1.349 . S
C267 C269 1.327 . S
C267 H290 0.950 . S
C268 C267 1.349 . S
C268 C280 1.349 . S
C269 C267 1.327 . S
C269 C285 1.429 . S
C269 H291 0.950 . S
C270 H266 0.949 . S
C270 C278 1.574 . S
C270 C286 1.368 . S
H271 C279 0.950 . S
H272 C277 0.950 . S
H273 C278 0.949 . S
H274 C280 0.950 . S
H275 C281 0.950 . S
H276 C282 0.949 . S
C277 H272 0.950 . S
C277 C279 1.327 . S
C277 C283 1.429 . S
C278 C270 1.574 . S
C278 H273 0.949 . S
C278 C284 1.368 . S
C279 C263 1.349 . S
C279 H271 0.950 . S
C279 C277 1.327 . S
C280 C268 1.349 . S
C280 H274 0.950 . S
C280 C281 1.327 . S
C281 H275 0.950 . S
C281 C280 1.327 . S
C281 C285 1.429 . S
C282 C265 1.574 . S
C282 H276 0.949 . S
C282 C286 1.368 . S
C283 C264 1.429 . S
C283 C277 1.429 . S
C283 C284 1.523 . S
C284 C265 1.368 . S
C284 C278 1.368 . S
C284 C283 1.523 . S
C285 C269 1.429 . S
C285 C281 1.429 . S
C285 C286 1.523 . S
C286 C270 1.368 . S
C286 C282 1.368 . S
C286 C285 1.523 . S
H287 C262 0.950 . S
H288 C264 0.950 . S
H289 C265 0.949 . S
H290 C267 0.950 . S
H291 C269 0.950 . S
C292 C293 1.349 . S
C292 C294 1.327 . S
C292 H317 0.950 . S
C293 C292 1.349 . S
C293 C309 1.349 . S
C294 C292 1.327 . S
C294 C313 1.429 . S
C294 H318 0.950 . S
C295 C312 1.574 . S
C295 C314 1.368 . S
C295 H319 0.949 . S
H296 C300 0.949 . S
C297 C298 1.349 . S
C297 C299 1.327 . S
C297 H320 0.950 . S
C298 C297 1.349 . S
C298 C310 1.349 . S
C299 C297 1.327 . S
C299 C315 1.429 . S
C299 H321 0.950 . S
C300 H296 0.949 . S
C300 C308 1.574 . S
C300 C316 1.368 . S
H301 C309 0.950 . S
H302 C307 0.950 . S
H303 C308 0.949 . S
H304 C310 0.950 . S
H305 C311 0.950 . S
H306 C312 0.949 . S
C307 H302 0.950 . S
C307 C309 1.327 . S
C307 C313 1.429 . S
C308 C300 1.574 . S
C308 H303 0.949 . S
C308 C314 1.368 . S
C309 C293 1.349 . S
C309 H301 0.950 . S
C309 C307 1.327 . S
C310 C298 1.349 . S
C310 H304 0.950 . S
C310 C311 1.327 . S
C311 H305 0.950 . S
C311 C310 1.327 . S
C311 C315 1.429 . S
C312 C295 1.574 . S
C312 H306 0.949 . S
C312 C316 1.368 . S
C313 C294 1.429 . S
C313 C307 1.429 . S
C313 C314 1.523 . S
C314 C295 1.368 . S
C314 C308 1.368 . S
C314 C313 1.523 . S
C315 C299 1.429 . S
C315 C311 1.429 . S
C315 C316 1.523 . S
C316 C300 1.368 . S
C316 C312 1.368 . S
C316 C315 1.523 . S
H317 C292 0.950 . S
H318 C294 0.950 . S
H319 C295 0.949 . S
H320 C297 0.950 . S
H321 C299 0.950 . S
C322 C323 1.349 . S
C322 C324 1.327 . S
C322 H347 0.950 . S
C323 C322 1.349 . S
C323 C339 1.349 . S
C324 C322 1.327 . S
C324 C343 1.429 . S
C324 H348 0.950 . S
C325 C342 1.574 . S
C325 C344 1.368 . S
C325 H349 0.949 . S
H326 C330 0.949 . S
C327 C328 1.349 . S
C327 C329 1.327 . S
C327 H350 0.950 . S
C328 C327 1.349 . S
C328 C340 1.349 . S
C329 C327 1.327 . S
C329 C345 1.429 . S
C329 H351 0.950 . S
C330 H326 0.949 . S
C330 C338 1.574 . S
C330 C346 1.368 . S
H331 C339 0.950 . S
H332 C337 0.950 . S
H333 C338 0.949 . S
H334 C340 0.950 . S
H335 C341 0.950 . S
H336 C342 0.949 . S
C337 H332 0.950 . S
C337 C339 1.327 . S
C337 C343 1.429 . S
C338 C330 1.574 . S
C338 H333 0.949 . S
C338 C344 1.368 . S
C339 C323 1.349 . S
C339 H331 0.950 . S
C339 C337 1.327 . S
C340 C328 1.349 . S
C340 H334 0.950 . S
C340 C341 1.327 . S
C341 H335 0.950 . S
C341 C340 1.327 . S
C341 C345 1.429 . S
C342 C325 1.574 . S
C342 H336 0.949 . S
C342 C346 1.368 . S
C343 C324 1.429 . S
C343 C337 1.429 . S
C343 C344 1.523 . S
C344 C325 1.368 . S
C344 C338 1.368 . S
C344 C343 1.523 . S
C345 C329 1.429 . S
C345 C341 1.429 . S
C345 C346 1.523 . S
C346 C330 1.368 . S
C346 C342 1.368 . S
C346 C345 1.523 . S
H347 C322 0.950 . S
H348 C324 0.950 . S
H349 C325 0.949 . S
H350 C327 0.950 . S
H351 C329 0.950 . S
C352 C353 1.349 1_655 S
C352 C354 1.327 . S
C352 H377 0.950 . S
C353 C352 1.349 1_455 S
C353 C369 1.349 1_545 S
C354 C352 1.327 . S
C354 C373 1.429 1_655 S
C354 H378 0.950 . S
C355 C372 1.574 . S
C355 C374 1.368 1_565 S
C355 H379 0.949 . S
H356 C360 0.949 . S
C357 C358 1.349 1_565 S
C357 C359 1.327 . S
C357 H380 0.950 . S
C358 C357 1.349 1_545 S
C358 C370 1.349 1_455 S
C359 C357 1.327 . S
C359 C375 1.429 1_565 S
C359 H381 0.950 . S
C360 H356 0.949 . S
C360 C368 1.574 . S
C360 C376 1.368 1_655 S
H361 C369 0.950 . S
H362 C367 0.950 . S
H363 C368 0.949 . S
H364 C370 0.950 . S
H365 C371 0.950 . S
H366 C372 0.949 . S
C367 H362 0.950 . S
C367 C369 1.327 . S
C367 C373 1.429 1_565 S
C368 C360 1.574 . S
C368 H363 0.949 . S
C368 C374 1.368 1_655 S
C369 C353 1.349 1_565 S
C369 H361 0.950 . S
C369 C367 1.327 . S
C370 C358 1.349 1_655 S
C370 H364 0.950 . S
C370 C371 1.327 . S
C371 H365 0.950 . S
C371 C370 1.327 . S
C371 C375 1.429 1_655 S
C372 C355 1.574 . S
C372 H366 0.949 . S
C372 C376 1.368 1_565 S
C373 C354 1.429 1_455 S
C373 C367 1.429 1_545 S
C373 C374 1.523 . S
C374 C355 1.368 1_545 S
C374 C368 1.368 1_455 S
C374 C373 1.523 . S
C375 C359 1.429 1_545 S
C375 C371 1.429 1_455 S
C375 C376 1.523 . S
C376 C360 1.368 1_455 S
C376 C372 1.368 1_545 S
C376 C375 1.523 . S
H377 C352 0.950 . S
H378 C354 0.950 . S
H379 C355 0.949 . S
H380 C357 0.950 . S
H381 C359 0.950 . S
C382 C383 1.349 1_665 S
C382 C384 1.327 . S
C382 H407 0.950 . S
C383 C382 1.349 1_445 S
C383 C399 1.349 . S
C384 C382 1.327 . S
C384 C403 1.429 1_665 S
C384 H408 0.950 . S
C385 C402 1.574 . S
C385 C404 1.382 . S
C385 H409 0.949 . S
H386 C390 0.949 . S
C387 C388 1.349 1_545 S
C387 C389 1.327 . S
C387 H410 0.950 . S
C388 C387 1.349 1_565 S
C388 C400 1.343 1_455 S
C389 C387 1.327 . S
C389 C405 1.409 1_545 S
C389 H411 0.950 . S
C390 H386 0.949 . S
C390 C398 1.574 . S
C390 C406 1.375 1_655 S
H391 C399 0.950 . S
H392 C397 0.950 . S
H393 C398 0.949 . S
H394 C400 0.955 . S
H395 C401 0.950 . S
H396 C402 0.949 . S
C397 H392 0.950 . S
C397 C399 1.327 . S
C397 C403 1.429 . S
C398 C390 1.574 . S
C398 H393 0.949 . S
C398 C404 1.356 1_665 S
C399 C383 1.349 . S
C399 H391 0.950 . S
C399 C397 1.327 . S
C400 C388 1.343 1_655 S
C400 H394 0.955 . S
C400 C401 1.328 . S
C401 H395 0.950 . S
C401 C400 1.328 . S
C401 C405 1.445 1_655 S
C402 C385 1.574 . S
C402 H396 0.949 . S
C402 C406 1.363 1_545 S
C403 C384 1.429 1_445 S
C403 C397 1.429 . S
C403 C404 1.521 . S
C404 C385 1.382 . S
C404 C398 1.356 1_445 S
C404 C403 1.521 . S
C405 C389 1.409 1_565 S
C405 C401 1.445 1_455 S
C405 C406 1.525 . S
C406 C390 1.375 1_455 S
C406 C402 1.363 1_565 S
C406 C405 1.525 . S
H407 C382 0.950 . S
H408 C384 0.950 . S
H409 C385 0.949 . S
H410 C387 0.950 . S
H411 C389 0.950 . S
C412 C413 1.349 . S
C412 C414 1.327 . S
C412 H437 0.950 . S
C413 C412 1.349 . S
C413 C429 1.349 . S
C414 C412 1.327 . S
C414 C433 1.429 . S
C414 H438 0.950 . S
C415 C432 1.574 . S
C415 C434 1.368 . S
C415 H439 0.949 . S
H416 C420 0.949 . S
C417 C418 1.349 . S
C417 C419 1.327 . S
C417 H440 0.950 . S
C418 C417 1.349 . S
C418 C430 1.349 . S
C419 C417 1.327 . S
C419 C435 1.429 . S
C419 H441 0.950 . S
C420 H416 0.949 . S
C420 C428 1.574 . S
C420 C436 1.368 . S
H421 C429 0.950 . S
H422 C427 0.950 . S
H423 C428 0.949 . S
H424 C430 0.950 . S
H425 C431 0.950 . S
H426 C432 0.949 . S
C427 H422 0.950 . S
C427 C429 1.327 . S
C427 C433 1.429 . S
C428 C420 1.574 . S
C428 H423 0.949 . S
C428 C434 1.368 . S
C429 C413 1.349 . S
C429 H421 0.950 . S
C429 C427 1.327 . S
C430 C418 1.349 . S
C430 H424 0.950 . S
C430 C431 1.327 . S
C431 H425 0.950 . S
C431 C430 1.327 . S
C431 C435 1.429 . S
C432 C415 1.574 . S
C432 H426 0.949 . S
C432 C436 1.368 . S
C433 C414 1.429 . S
C433 C427 1.429 . S
C433 C434 1.523 . S
C434 C415 1.368 . S
C434 C428 1.368 . S
C434 C433 1.523 . S
C435 C419 1.429 . S
C435 C431 1.429 . S
C435 C436 1.523 . S
C436 C420 1.368 . S
C436 C432 1.368 . S
C436 C435 1.523 . S
H437 C412 0.950 . S
H438 C414 0.950 . S
H439 C415 0.949 . S
H440 C417 0.950 . S
H441 C419 0.950 . S
C442 C443 1.349 . S
C442 C444 1.327 . S
C442 H467 0.950 . S
C443 C442 1.349 . S
C443 C459 1.349 . S
C444 C442 1.327 . S
C444 C463 1.429 . S
C444 H468 0.950 . S
C445 C462 1.574 . S
C445 C464 1.368 . S
C445 H469 0.949 . S
H446 C450 0.949 . S
C447 C448 1.349 . S
C447 C449 1.327 . S
C447 H470 0.950 . S
C448 C447 1.349 . S
C448 C460 1.349 . S
C449 C447 1.327 . S
C449 C465 1.429 . S
C449 H471 0.950 . S
C450 H446 0.949 . S
C450 C458 1.574 . S
C450 C466 1.368 . S
H451 C459 0.950 . S
H452 C457 0.950 . S
H453 C458 0.949 . S
H454 C460 0.950 . S
H455 C461 0.950 . S
H456 C462 0.949 . S
C457 H452 0.950 . S
C457 C459 1.327 . S
C457 C463 1.429 . S
C458 C450 1.574 . S
C458 H453 0.949 . S
C458 C464 1.368 . S
C459 C443 1.349 . S
C459 H451 0.950 . S
C459 C457 1.327 . S
C460 C448 1.349 . S
C460 H454 0.950 . S
C460 C461 1.327 . S
C461 H455 0.950 . S
C461 C460 1.327 . S
C461 C465 1.429 . S
C462 C445 1.574 . S
C462 H456 0.949 . S
C462 C466 1.368 . S
C463 C444 1.429 . S
C463 C457 1.429 . S
C463 C464 1.523 . S
C464 C445 1.368 . S
C464 C458 1.368 . S
C464 C463 1.523 . S
C465 C449 1.429 . S
C465 C461 1.429 . S
C465 C466 1.523 . S
C466 C450 1.368 . S
C466 C462 1.368 . S
C466 C465 1.523 . S
H467 C442 0.950 . S
H468 C444 0.950 . S
H469 C445 0.949 . S
H470 C447 0.950 . S
H471 C449 0.950 . S
C118 C106 1.246 . S
C113 C29 1.463 . S
C143 C8 1.470 1_556 S
C148 C95 1.248 . S
C173 C0 1.404 . S
C178 C109 1.376 . S
C203 C17 1.389 . S
C208 C98 1.359 . S
C233 C63 1.463 . S
C238 C84 1.246 . S
C263 C42 1.470 . S
C268 C73 1.248 . S
C298 C87 1.376 . S
C293 C34 1.404 . S
C328 C76 1.359 . S
C323 C51 1.389 . S
C353 C4 1.510 . S
C358 C75 1.456 . S
C383 C13 1.500 . S
C388 C86 1.456 . S
C418 C97 1.456 . S
C413 C38 1.510 . S
C443 C47 1.500 . S
C448 C108 1.453 . S
