# Generated by pormake.
# Topology hwx, (6,3)-cn, num edge types: 1
# Building blocks:
#     Node 0, Type 0, BuildingBlock: OJICUG_clean_sbu_0, # of connection points: 6
#     Node 1, Type 0, BuildingBlock: OJICUG_clean_sbu_0, # of connection points: 6
#     Node 2, Type 0, BuildingBlock: OJICUG_clean_sbu_0, # of connection points: 6
#     Node 3, Type 0, BuildingBlock: OJICUG_clean_sbu_0, # of connection points: 6
#     Node 4, Type 1, BuildingBlock: OLANEW_clean_sbu_2, # of connection points: 3
#     Node 5, Type 1, BuildingBlock: OLANEW_clean_sbu_2, # of connection points: 3
#     Node 6, Type 1, BuildingBlock: OLANEW_clean_sbu_2, # of connection points: 3
#     Node 7, Type 1, BuildingBlock: OLANEW_clean_sbu_2, # of connection points: 3
#     Node 8, Type 1, BuildingBlock: OLANEW_clean_sbu_2, # of connection points: 3
#     Node 9, Type 1, BuildingBlock: OLANEW_clean_sbu_2, # of connection points: 3
#     Node 10, Type 1, BuildingBlock: OLANEW_clean_sbu_2, # of connection points: 3
#     Node 11, Type 1, BuildingBlock: OLANEW_clean_sbu_2, # of connection points: 3
#     Edge 12, Type (0, 1), BuildingBlock: ZUJKAS_clean_linker_0, # of connection points: 2
#     Edge 13, Type (0, 1), BuildingBlock: ZUJKAS_clean_linker_0, # of connection points: 2
#     Edge 14, Type (0, 1), BuildingBlock: ZUJKAS_clean_linker_0, # of connection points: 2
#     Edge 15, Type (0, 1), BuildingBlock: ZUJKAS_clean_linker_0, # of connection points: 2
#     Edge 16, Type (0, 1), BuildingBlock: ZUJKAS_clean_linker_0, # of connection points: 2
#     Edge 17, Type (0, 1), BuildingBlock: ZUJKAS_clean_linker_0, # of connection points: 2
#     Edge 18, Type (0, 1), BuildingBlock: ZUJKAS_clean_linker_0, # of connection points: 2
#     Edge 19, Type (0, 1), BuildingBlock: ZUJKAS_clean_linker_0, # of connection points: 2
#     Edge 20, Type (0, 1), BuildingBlock: ZUJKAS_clean_linker_0, # of connection points: 2
#     Edge 21, Type (0, 1), BuildingBlock: ZUJKAS_clean_linker_0, # of connection points: 2
#     Edge 22, Type (0, 1), BuildingBlock: ZUJKAS_clean_linker_0, # of connection points: 2
#     Edge 23, Type (0, 1), BuildingBlock: ZUJKAS_clean_linker_0, # of connection points: 2
#     Edge 24, Type (0, 1), BuildingBlock: ZUJKAS_clean_linker_0, # of connection points: 2
#     Edge 25, Type (0, 1), BuildingBlock: ZUJKAS_clean_linker_0, # of connection points: 2
#     Edge 26, Type (0, 1), BuildingBlock: ZUJKAS_clean_linker_0, # of connection points: 2
#     Edge 27, Type (0, 1), BuildingBlock: ZUJKAS_clean_linker_0, # of connection points: 2
#     Edge 28, Type (0, 1), BuildingBlock: ZUJKAS_clean_linker_0, # of connection points: 2
#     Edge 29, Type (0, 1), BuildingBlock: ZUJKAS_clean_linker_0, # of connection points: 2
#     Edge 30, Type (0, 1), BuildingBlock: ZUJKAS_clean_linker_0, # of connection points: 2
#     Edge 31, Type (0, 1), BuildingBlock: ZUJKAS_clean_linker_0, # of connection points: 2
#     Edge 32, Type (0, 1), BuildingBlock: ZUJKAS_clean_linker_0, # of connection points: 2
#     Edge 33, Type (0, 1), BuildingBlock: ZUJKAS_clean_linker_0, # of connection points: 2
#     Edge 34, Type (0, 1), BuildingBlock: ZUJKAS_clean_linker_0, # of connection points: 2
#     Edge 35, Type (0, 1), BuildingBlock: ZUJKAS_clean_linker_0, # of connection points: 2
# Relax obj value: 0.021
# Max RMSD: 0.065
# Mean RMSD: 0.062
data_MOF--net-hwx--node1-OJICUG_clean_sbu_0--node2-OLANEW_clean_sbu_2--edge1-ZUJKAS_clean_linker_0
_symmetry_space_group_name_H-M    P1
_symmetry_Int_Tables_number       1
_symmetry_cell_setting            triclinic
loop_
_symmetry_equiv_pos_as_xyz
'x, y, z'
_cell_length_a     70.785647
_cell_length_b     70.711055
_cell_length_c     27.943067
_cell_angle_alpha  86.077229
_cell_angle_beta   93.985655
_cell_angle_gamma 90.005495
loop_
_atom_site_label
_atom_site_type_symbol
_atom_site_fract_x
_atom_site_fract_y
_atom_site_fract_z
_atom_type_partial_charge
Sc0 Sc 0.2237 0.22435 0.08145 0.0
Sc1 Sc 0.19277 0.19438 0.01765 0.0
Sc2 Sc 0.22321 0.22518 0.95506 0.0
O3 O 0.21323 0.21464 0.01804 0.0
C4 C 0.22112 0.26248 0.01347 0.0
C5 C 0.17962 0.22041 0.09825 0.0
C6 C 0.17883 0.22219 0.92703 0.0
C7 C 0.22013 0.1799 0.10857 0.0
C8 C 0.26103 0.22179 0.02413 0.0
C9 C 0.21875 0.18117 0.93704 0.0
O10 O 0.22133 0.25354 0.05454 0.0
O11 O 0.17629 0.20846 0.06678 0.0
O12 O 0.1951 0.22923 0.92091 0.0
O13 O 0.22727 0.19611 0.11519 0.0
O14 O 0.25235 0.22203 0.98269 0.0
O15 O 0.20683 0.1779 0.96853 0.0
O16 O 0.25261 0.22292 0.06256 0.0
O17 O 0.20744 0.17721 0.07525 0.0
O18 O 0.22562 0.19754 0.92794 0.0
O19 O 0.19602 0.22713 0.10757 0.0
O20 O 0.22201 0.25418 0.9747 0.0
O21 O 0.17594 0.20941 0.95997 0.0
Sc22 Sc 0.2774 0.72816 0.46036 0.0
Sc23 Sc 0.30977 0.69605 0.52391 0.0
Sc24 Sc 0.27947 0.72335 0.58705 0.0
O25 O 0.28889 0.71587 0.52378 0.0
C26 C 0.27945 0.76337 0.52568 0.0
C27 C 0.32126 0.72596 0.4403 0.0
C28 C 0.32411 0.72039 0.61177 0.0
C29 C 0.28169 0.68494 0.43582 0.0
C30 C 0.24098 0.72182 0.5211 0.0
C31 C 0.28548 0.67863 0.60797 0.0
O32 O 0.27929 0.75633 0.48499 0.0
O33 O 0.32525 0.7128 0.47274 0.0
O34 O 0.30784 0.72703 0.61825 0.0
O35 O 0.27397 0.70124 0.42896 0.0
O36 O 0.25016 0.72023 0.56199 0.0
O37 O 0.29666 0.67692 0.57485 0.0
O38 O 0.24888 0.7252 0.48194 0.0
O39 O 0.29498 0.68114 0.46804 0.0
O40 O 0.27862 0.69449 0.61711 0.0
O41 O 0.30463 0.73268 0.43149 0.0
O42 O 0.27919 0.75322 0.56501 0.0
O43 O 0.32682 0.70884 0.57992 0.0
Sc44 Sc 0.7744 0.78101 0.96136 0.0
Sc45 Sc 0.80835 0.808 0.02484 0.0
Sc46 Sc 0.77836 0.77673 0.08798 0.0
O47 O 0.78706 0.78856 0.02474 0.0
C48 C 0.73891 0.78231 0.02567 0.0
C49 C 0.77959 0.82558 0.94003 0.0
C50 C 0.78446 0.82008 0.11097 0.0
C51 C 0.81785 0.78396 0.93691 0.0
C52 C 0.77762 0.74121 0.02312 0.0
C53 C 0.82326 0.77843 0.11078 0.0
O54 O 0.74624 0.78304 0.98534 0.0
O55 O 0.79322 0.82693 0.97173 0.0
O56 O 0.77695 0.80389 0.11846 0.0
O57 O 0.80099 0.77805 0.92977 0.0
O58 O 0.7786 0.74836 0.0638 0.0
O59 O 0.82597 0.79143 0.07824 0.0
O60 O 0.77612 0.75123 0.98345 0.0
O61 O 0.82277 0.79477 0.97012 0.0
O62 O 0.80693 0.77185 0.11827 0.0
O63 O 0.77135 0.80997 0.93244 0.0
O64 O 0.74874 0.78009 0.0655 0.0
O65 O 0.79616 0.8235 0.07896 0.0
Sc66 Sc 0.72714 0.27723 0.55348 0.0
Sc67 Sc 0.69484 0.30858 0.48681 0.0
Sc68 Sc 0.72334 0.27806 0.42706 0.0
O69 O 0.71508 0.28794 0.48913 0.0
C70 C 0.76283 0.27913 0.48934 0.0
C71 C 0.72461 0.32145 0.5696 0.0
C72 C 0.71923 0.32247 0.39892 0.0
C73 C 0.68398 0.28207 0.5778 0.0
C74 C 0.72182 0.23999 0.49536 0.0
C75 C 0.67856 0.28267 0.40431 0.0
O76 O 0.75541 0.27848 0.52954 0.0
O77 O 0.71112 0.3248 0.5376 0.0
O78 O 0.72607 0.3062 0.39344 0.0
O79 O 0.7004 0.27473 0.58543 0.0
O80 O 0.72155 0.24886 0.45413 0.0
O81 O 0.67634 0.29464 0.43549 0.0
O82 O 0.72369 0.24831 0.53436 0.0
O83 O 0.67977 0.2944 0.54343 0.0
O84 O 0.69463 0.27573 0.39736 0.0
O85 O 0.7318 0.30502 0.5792 0.0
O86 O 0.75304 0.27912 0.44945 0.0
O87 O 0.70766 0.32533 0.43054 0.0
O88 O 0.21661 0.52217 0.93983 0.0
Cd89 Cd 0.20403 0.50494 0.00941 0.0
O90 O 0.24437 0.5262 0.97815 0.0
Cd91 Cd 0.23611 0.51547 0.04861 0.0
O92 O 0.23543 0.52703 0.11882 0.0
C93 C 0.22457 0.54121 0.12095 0.0
O94 O 0.21331 0.5465 0.083 0.0
C95 C 0.23349 0.52832 0.94 0.0
C96 C 0.2071 0.46575 0.00572 0.0
O97 O 0.19245 0.47477 0.98666 0.0
O98 O 0.22033 0.47529 0.0264 0.0
O99 O 0.98498 0.68118 0.40829 0.0
Cd100 Cd 0.00544 0.66424 0.47115 0.0
O101 O 0.97773 0.69881 0.46562 0.0
Cd102 Cd 0.96134 0.71906 0.50178 0.0
O103 O 0.94538 0.73283 0.55387 0.0
C104 C 0.9412 0.72261 0.5908 0.0
O105 O 0.94662 0.70477 0.59516 0.0
C106 C 0.97543 0.6948 0.4219 0.0
C107 C 0.043 0.67611 0.47455 0.0
O108 O 0.03772 0.66163 0.4519 0.0
O109 O 0.03046 0.68511 0.49507 0.0
O110 O 0.75614 0.48191 0.0389 0.0
Cd111 Cd 0.75933 0.50167 0.96459 0.0
O112 O 0.78553 0.4715 0.04446 0.0
Cd113 Cd 0.78964 0.4823 0.97099 0.0
O114 O 0.78583 0.4723 0.8988 0.0
C115 C 0.79396 0.45666 0.89323 0.0
O116 O 0.80494 0.44886 0.92906 0.0
C117 C 0.76944 0.47228 0.06188 0.0
C118 C 0.76349 0.53993 0.98152 0.0
O119 O 0.74706 0.53246 0.97592 0.0
O120 O 0.77801 0.52928 0.9792 0.0
O121 O 0.02276 0.2772 0.55435 0.0
Cd122 Cd 0.00501 0.28478 0.47715 0.0
O123 O 0.03889 0.30377 0.55 0.0
Cd124 Cd 0.03017 0.30926 0.47399 0.0
O125 O 0.03901 0.3016 0.40456 0.0
C126 C 0.04108 0.28398 0.39985 0.0
O127 O 0.03645 0.27186 0.43481 0.0
C128 C 0.03471 0.28842 0.57326 0.0
C129 C 0.96592 0.28346 0.48312 0.0
O130 O 0.97519 0.29869 0.4905 0.0
O131 O 0.9752 0.26881 0.4733 0.0
O132 O 0.71597 0.98018 0.57359 0.0
Cd133 Cd 0.70671 0.99753 0.49671 0.0
O134 O 0.74649 0.9831 0.56491 0.0
Cd135 Cd 0.74217 0.99221 0.48889 0.0
O136 O 0.74306 0.97922 0.42054 0.0
C137 C 0.73463 0.96338 0.41872 0.0
O138 O 0.72514 0.95722 0.45542 0.0
C139 C 0.73303 0.97766 0.59031 0.0
C140 C 0.7088 0.03677 0.50226 0.0
O141 O 0.6937 0.0277 0.51194 0.0
O142 O 0.72291 0.02728 0.4901 0.0
O143 O 0.51779 0.18577 0.14566 0.0
Cd144 Cd 0.4978 0.16789 0.09018 0.0
O145 O 0.52406 0.20299 0.08088 0.0
Cd146 Cd 0.53945 0.22319 0.03551 0.0
O147 O 0.55466 0.23581 0.97605 0.0
C148 C 0.56809 0.22612 0.96204 0.0
O149 O 0.57235 0.20963 0.98478 0.0
C150 C 0.52669 0.1995 0.12613 0.0
C151 C 0.46001 0.17924 0.08341 0.0
O152 O 0.46568 0.16485 0.11109 0.0
O153 O 0.47225 0.18835 0.05926 0.0
O154 O 0.26201 0.02277 0.48231 0.0
Cd155 Cd 0.26502 0.00456 0.56013 0.0
O156 O 0.29184 0.03149 0.48304 0.0
Cd157 Cd 0.29595 0.02188 0.55881 0.0
O158 O 0.28769 0.03317 0.62508 0.0
C159 C 0.2751 0.04604 0.61722 0.0
O160 O 0.26851 0.0503 0.57265 0.0
C161 C 0.27541 0.03119 0.46156 0.0
C162 C 0.26843 0.96575 0.55022 0.0
O163 O 0.25214 0.97373 0.54936 0.0
O164 O 0.28315 0.97615 0.5557 0.0
O165 O 0.47958 0.77448 0.96667 0.0
Cd166 Cd 0.49674 0.78314 0.04104 0.0
O167 O 0.46464 0.80185 0.95508 0.0
Cd168 Cd 0.47256 0.80903 0.02836 0.0
O169 O 0.4624 0.80322 0.09982 0.0
C170 C 0.45873 0.78593 0.11088 0.0
O171 O 0.46255 0.77319 0.0808 0.0
C172 C 0.46843 0.78568 0.9407 0.0
C173 C 0.5359 0.78343 0.03545 0.0
O174 O 0.52734 0.76842 0.05049 0.0
O175 O 0.52589 0.79827 0.02274 0.0
H176 H 0.14242 0.20925 0.09069 0.0
H177 H 0.11649 0.21994 0.13578 0.0
H178 H 0.15472 0.25712 0.21076 0.0
H179 H 0.18077 0.24642 0.16653 0.0
H180 H 0.13294 0.23486 0.27103 0.0
H181 H 0.0883 0.27111 0.1207 0.0
H182 H 0.09473 0.24707 0.11191 0.0
H183 H 0.11277 0.26488 0.11542 0.0
C184 C 0.14533 0.21976 0.11664 0.0
C185 C 0.16374 0.22694 0.12497 0.0
C186 C 0.13044 0.22595 0.1421 0.0
C187 C 0.13365 0.23951 0.17608 0.0
C188 C 0.15195 0.24671 0.18448 0.0
H189 H 0.05867 0.30533 0.33053 0.0
H190 H 0.07967 0.29384 0.2727 0.0
C191 C 0.16683 0.24054 0.15915 0.0
C192 C 0.11821 0.2456 0.20476 0.0
H193 H 0.07538 0.26829 0.19698 0.0
C194 C 0.12034 0.24214 0.25486 0.0
C195 C 0.10189 0.25524 0.18348 0.0
C196 C 0.09927 0.25997 0.12996 0.0
C197 C 0.10658 0.24806 0.28439 0.0
C198 C 0.09009 0.25738 0.26313 0.0
C199 C 0.08796 0.26093 0.21302 0.0
C200 C 0.07534 0.26416 0.29293 0.0
C201 C 0.11006 0.24468 0.33823 0.0
C202 C 0.0654 0.25124 0.32196 0.0
C203 C 0.05348 0.25773 0.35514 0.0
C204 C 0.0512 0.27728 0.35961 0.0
C205 C 0.06019 0.29019 0.32815 0.0
C206 C 0.07218 0.28366 0.29506 0.0
H207 H 0.12516 0.24134 0.34902 0.0
H208 H 0.10587 0.25728 0.35674 0.0
H209 H 0.10141 0.2325 0.35093 0.0
H210 H 0.06739 0.23612 0.32015 0.0
H211 H 0.04659 0.24741 0.37844 0.0
H212 H 0.27107 0.67672 0.6963 0.0
H213 H 0.26259 0.64838 0.74485 0.0
H214 H 0.27848 0.61336 0.63352 0.0
H215 H 0.28767 0.64165 0.58543 0.0
H216 H 0.23663 0.62224 0.72861 0.0
H217 H 0.30747 0.58785 0.74832 0.0
H218 H 0.30391 0.61195 0.72393 0.0
H219 H 0.29854 0.59252 0.68698 0.0
C220 C 0.27284 0.66299 0.68219 0.0
C221 C 0.2802 0.66143 0.63717 0.0
C222 C 0.26797 0.64679 0.70998 0.0
C223 C 0.27018 0.6287 0.69322 0.0
C224 C 0.27714 0.62711 0.64782 0.0
H225 H 0.21594 0.53323 0.84918 0.0
H226 H 0.22487 0.55542 0.78343 0.0
C227 C 0.2823 0.64331 0.62026 0.0
C228 C 0.26487 0.61166 0.72328 0.0
H229 H 0.28222 0.57032 0.78004 0.0
C230 C 0.24658 0.61085 0.73977 0.0
C231 C 0.27792 0.59687 0.73804 0.0
C232 C 0.29811 0.59736 0.72382 0.0
C233 C 0.2411 0.59596 0.77156 0.0
C234 C 0.25408 0.58106 0.78595 0.0
C235 C 0.27222 0.58164 0.76854 0.0
C236 C 0.24977 0.56579 0.82268 0.0
C237 C 0.22179 0.59686 0.79115 0.0
C238 C 0.26142 0.5634 0.86538 0.0
C239 C 0.2566 0.55048 0.90248 0.0
C240 C 0.23992 0.53975 0.89784 0.0
C241 C 0.22877 0.54143 0.85408 0.0
C242 C 0.23376 0.55422 0.81662 0.0
H243 H 0.21558 0.61135 0.78584 0.0
H244 H 0.21206 0.58713 0.77207 0.0
H245 H 0.22251 0.59246 0.83014 0.0
H246 H 0.2739 0.57209 0.87081 0.0
H247 H 0.26556 0.54954 0.93561 0.0
H248 H 0.82397 0.74858 0.17877 0.0
H249 H 0.85101 0.73623 0.2304 0.0
H250 H 0.88699 0.77846 0.16549 0.0
H251 H 0.86008 0.79076 0.1129 0.0
H252 H 0.90339 0.74325 0.17458 0.0
H253 H 0.87551 0.76023 0.34707 0.0
H254 H 0.85949 0.74615 0.31196 0.0
H255 H 0.8652 0.76979 0.2896 0.0
C256 C 0.8376 0.75532 0.17544 0.0
C257 C 0.83977 0.77077 0.14178 0.0
C258 C 0.85303 0.74829 0.20526 0.0
C259 C 0.87093 0.75667 0.20248 0.0
C260 C 0.87326 0.77188 0.16846 0.0
H261 H 0.96382 0.73181 0.42038 0.0
H262 H 0.93939 0.74782 0.36583 0.0
C263 C 0.85784 0.77888 0.13843 0.0
C264 C 0.88727 0.74926 0.2344 0.0
H265 H 0.90214 0.73928 0.35228 0.0
C266 C 0.90319 0.74251 0.21345 0.0
C267 C 0.88714 0.74861 0.2851 0.0
C268 C 0.871 0.75676 0.30982 0.0
C269 C 0.91873 0.73456 0.24183 0.0
C270 C 0.91815 0.73298 0.29247 0.0
C271 C 0.90249 0.74029 0.31343 0.0
C272 C 0.93342 0.72347 0.32444 0.0
C273 C 0.93568 0.7281 0.21725 0.0
C274 C 0.93812 0.70445 0.31948 0.0
C275 C 0.95201 0.69527 0.35073 0.0
C276 C 0.9612 0.70484 0.38813 0.0
C277 C 0.95658 0.72391 0.39288 0.0
C278 C 0.94276 0.73312 0.36141 0.0
H279 H 0.93643 0.73549 0.18104 0.0
H280 H 0.94908 0.73063 0.23891 0.0
H281 H 0.93449 0.71268 0.21255 0.0
H282 H 0.93081 0.69657 0.29195 0.0
H283 H 0.95523 0.68055 0.34631 0.0
H284 H 0.75353 0.32036 0.64024 0.0
H285 H 0.76572 0.34645 0.68613 0.0
H286 H 0.72572 0.38472 0.60662 0.0
H287 H 0.71322 0.35871 0.56068 0.0
H288 H 0.78136 0.38183 0.65239 0.0
H289 H 0.71612 0.39108 0.74875 0.0
H290 H 0.72042 0.37018 0.7174 0.0
H291 H 0.71294 0.39186 0.68427 0.0
C292 C 0.74726 0.3343 0.63243 0.0
C293 C 0.73226 0.33736 0.59695 0.0
C294 C 0.75431 0.34921 0.65864 0.0
C295 C 0.74647 0.36744 0.65011 0.0
C296 C 0.73175 0.37067 0.61424 0.0
H297 H 0.76841 0.46639 0.81715 0.0
H298 H 0.75786 0.44672 0.75163 0.0
C299 C 0.72468 0.35577 0.58794 0.0
C300 C 0.75364 0.38295 0.67932 0.0
H301 H 0.74136 0.41181 0.76522 0.0
C302 C 0.77261 0.38848 0.67689 0.0
C303 C 0.74214 0.39165 0.71099 0.0
C304 C 0.7218 0.38585 0.71599 0.0
C305 C 0.78047 0.40236 0.70579 0.0
C306 C 0.76913 0.41064 0.73856 0.0
C307 C 0.75001 0.40549 0.73995 0.0
C308 C 0.77708 0.42353 0.7744 0.0
C309 C 0.80083 0.40802 0.70097 0.0
C310 C 0.79151 0.41709 0.80859 0.0
C311 C 0.79757 0.42827 0.84593 0.0
C312 C 0.7892 0.44607 0.85011 0.0
C313 C 0.77517 0.45277 0.81491 0.0
C314 C 0.76911 0.44155 0.7775 0.0
H315 H 0.80549 0.40526 0.66491 0.0
H316 H 0.803 0.42326 0.70694 0.0
H317 H 0.81001 0.39951 0.7282 0.0
H318 H 0.79757 0.40308 0.80757 0.0
H319 H 0.80837 0.42265 0.87247 0.0
H320 H 0.67687 0.25436 0.34223 0.0
H321 H 0.64936 0.24361 0.29446 0.0
H322 H 0.61463 0.28572 0.35101 0.0
H323 H 0.6421 0.29642 0.39997 0.0
H324 H 0.59769 0.25122 0.35208 0.0
H325 H 0.62392 0.26893 0.17265 0.0
H326 H 0.64033 0.25423 0.2103 0.0
H327 H 0.63503 0.27773 0.22681 0.0
C328 C 0.66344 0.26147 0.34441 0.0
C329 C 0.66177 0.27636 0.37484 0.0
C330 C 0.64773 0.25536 0.31675 0.0
C331 C 0.63003 0.26412 0.31834 0.0
C332 C 0.62821 0.27886 0.34893 0.0
H333 H 0.53686 0.23675 0.11161 0.0
H334 H 0.56063 0.25405 0.15907 0.0
C335 C 0.64393 0.28495 0.37689 0.0
C336 C 0.61334 0.25729 0.28946 0.0
H337 H 0.598 0.24708 0.17562 0.0
C338 C 0.59765 0.25052 0.31341 0.0
C339 C 0.61313 0.2567 0.23889 0.0
C340 C 0.62893 0.26498 0.2106 0.0
C341 C 0.58212 0.24241 0.28844 0.0
C342 C 0.58251 0.24063 0.23836 0.0
C343 C 0.59782 0.24818 0.21411 0.0
C344 C 0.56757 0.23041 0.21068 0.0
C345 C 0.56546 0.23584 0.31601 0.0
C346 C 0.56366 0.21136 0.22369 0.0
C347 C 0.55016 0.20146 0.19653 0.0
C348 C 0.54057 0.2103 0.15526 0.0
C349 C 0.54442 0.2294 0.14237 0.0
C350 C 0.55785 0.23935 0.16975 0.0
H351 H 0.56454 0.24363 0.349 0.0
H352 H 0.55193 0.23778 0.29361 0.0
H353 H 0.56722 0.22056 0.32731 0.0
H354 H 0.5713 0.20402 0.25439 0.0
H355 H 0.54754 0.18673 0.20723 0.0
H356 H 0.21062 0.14338 0.95202 0.0
H357 H 0.22099 0.11723 0.90716 0.0
H358 H 0.25093 0.15663 0.81543 0.0
H359 H 0.241 0.18279 0.86051 0.0
H360 H 0.21368 0.11124 0.81344 0.0
H361 H 0.29108 0.11662 0.8526 0.0
H362 H 0.27427 0.1287 0.88565 0.0
H363 H 0.28087 0.13873 0.82824 0.0
C364 C 0.21951 0.1465 0.92247 0.0
C365 C 0.22501 0.16523 0.91 0.0
C366 C 0.22544 0.13151 0.89693 0.0
C367 C 0.23703 0.13492 0.85854 0.0
C368 C 0.24242 0.15359 0.84576 0.0
H369 H 0.24974 0.07519 0.60939 0.0
H370 H 0.24022 0.09448 0.67254 0.0
C371 C 0.23659 0.16857 0.87138 0.0
C372 C 0.24266 0.11916 0.83009 0.0
H373 H 0.28084 0.09905 0.78478 0.0
C374 C 0.22838 0.10839 0.80771 0.0
C375 C 0.26186 0.11518 0.82337 0.0
C376 C 0.2779 0.12529 0.84918 0.0
C377 C 0.23273 0.09443 0.77682 0.0
C378 C 0.25183 0.09145 0.76729 0.0
C379 C 0.26618 0.10151 0.79163 0.0
C380 C 0.25712 0.07898 0.72977 0.0
C381 C 0.21677 0.08312 0.75441 0.0
C382 C 0.27015 0.06408 0.74072 0.0
C383 C 0.27582 0.05307 0.7044 0.0
C384 C 0.26861 0.05689 0.65653 0.0
C385 C 0.25549 0.07176 0.64589 0.0
C386 C 0.2499 0.08275 0.68206 0.0
H387 H 0.20444 0.08242 0.777 0.0
H388 H 0.21197 0.09011 0.7189 0.0
H389 H 0.22137 0.06845 0.74902 0.0
H390 H 0.27602 0.06104 0.77729 0.0
H391 H 0.286 0.04174 0.71372 0.0
H392 H 0.35866 0.71526 0.44692 0.0
H393 H 0.38358 0.72714 0.39678 0.0
H394 H 0.34386 0.76594 0.31804 0.0
H395 H 0.31873 0.75404 0.3675 0.0
H396 H 0.36417 0.74478 0.2597 0.0
H397 H 0.41222 0.77757 0.39576 0.0
H398 H 0.40605 0.75344 0.41188 0.0
H399 H 0.38799 0.77148 0.40615 0.0
C400 C 0.3552 0.72643 0.4192 0.0
C401 C 0.33663 0.73365 0.41123 0.0
C402 C 0.36954 0.7333 0.39082 0.0
C403 C 0.36562 0.7476 0.35418 0.0
C404 C 0.34718 0.75497 0.34637 0.0
H405 H 0.44288 0.80922 0.17191 0.0
H406 H 0.42116 0.80002 0.23395 0.0
C407 C 0.33283 0.74811 0.37467 0.0
C408 C 0.3804 0.75399 0.32183 0.0
H409 H 0.42425 0.7741 0.31918 0.0
C410 C 0.37727 0.75127 0.27267 0.0
C411 C 0.39739 0.7626 0.33884 0.0
C412 C 0.4011 0.76663 0.39097 0.0
C413 C 0.3908 0.75662 0.2401 0.0
C414 C 0.40806 0.76463 0.25731 0.0
C415 C 0.41108 0.76774 0.3063 0.0
C416 C 0.42298 0.76998 0.22446 0.0
C417 C 0.38641 0.75383 0.18741 0.0
C418 C 0.43169 0.75607 0.20003 0.0
C419 C 0.44401 0.76125 0.16458 0.0
C420 C 0.44794 0.78046 0.15311 0.0
C421 C 0.44008 0.79431 0.17975 0.0
C422 C 0.42769 0.78909 0.21519 0.0
H423 H 0.37101 0.75185 0.17871 0.0
H424 H 0.3913 0.76613 0.16469 0.0
H425 H 0.39392 0.74099 0.17784 0.0
H426 H 0.42847 0.74121 0.20735 0.0
H427 H 0.44998 0.75021 0.14512 0.0
H428 H 0.79286 0.86187 0.94582 0.0
H429 H 0.78355 0.88989 0.89341 0.0
H430 H 0.74284 0.85662 0.814 0.0
H431 H 0.75211 0.82847 0.8658 0.0
H432 H 0.76733 0.87768 0.75675 0.0
H433 H 0.73486 0.92248 0.88498 0.0
H434 H 0.75804 0.91337 0.90447 0.0
H435 H 0.73858 0.89728 0.89707 0.0
C436 C 0.78181 0.8605 0.91749 0.0
C437 C 0.77329 0.84285 0.90999 0.0
C438 C 0.77641 0.87659 0.8878 0.0
C439 C 0.76235 0.87535 0.85024 0.0
C440 C 0.75365 0.85786 0.84301 0.0
H441 H 0.70792 0.96058 0.64979 0.0
H442 H 0.71524 0.93706 0.71694 0.0
C443 C 0.759 0.84178 0.87267 0.0
C444 C 0.75768 0.89194 0.81623 0.0
H445 H 0.73997 0.93709 0.8077 0.0
C446 C 0.76131 0.89065 0.76786 0.0
C447 C 0.74972 0.90877 0.83087 0.0
C448 C 0.74489 0.9106 0.88209 0.0
C449 C 0.7574 0.90583 0.73373 0.0
C450 C 0.74987 0.92284 0.74852 0.0
C451 C 0.74596 0.92409 0.79673 0.0
C452 C 0.74559 0.93921 0.71362 0.0
C453 C 0.76111 0.90349 0.6819 0.0
C454 C 0.76028 0.94871 0.69102 0.0
C455 C 0.75618 0.96214 0.65269 0.0
C456 C 0.73729 0.96628 0.63631 0.0
C457 C 0.72261 0.95766 0.66132 0.0
C458 C 0.72675 0.94423 0.69972 0.0
H459 H 0.7632 0.88838 0.67485 0.0
H460 H 0.7492 0.90938 0.65743 0.0
H461 H 0.77413 0.91135 0.67307 0.0
H462 H 0.77493 0.94516 0.70174 0.0
H463 H 0.76784 0.9686 0.63454 0.0
H464 H 0.8143 0.75705 0.87126 0.0
H465 H 0.8372 0.74839 0.81524 0.0
H466 H 0.87646 0.78947 0.87092 0.0
H467 H 0.85372 0.79804 0.92802 0.0
H468 H 0.85193 0.77104 0.74408 0.0
H469 H 0.90927 0.74201 0.87442 0.0
H470 H 0.88565 0.74648 0.8916 0.0
H471 H 0.90193 0.76575 0.88348 0.0
C472 C 0.82783 0.7642 0.87194 0.0
C473 C 0.83215 0.77825 0.90426 0.0
C474 C 0.84091 0.75922 0.83981 0.0
C475 C 0.85859 0.76815 0.83919 0.0
C476 C 0.86303 0.78214 0.87142 0.0
H477 H 0.92954 0.75934 0.59617 0.0
H478 H 0.91054 0.77184 0.65696 0.0
C479 C 0.84998 0.78707 0.90389 0.0
C480 C 0.87199 0.76312 0.80354 0.0
H481 H 0.91567 0.74413 0.79228 0.0
C482 C 0.8659 0.76522 0.75457 0.0
C483 C 0.89014 0.7554 0.81742 0.0
C484 C 0.89713 0.75209 0.86958 0.0
C485 C 0.87735 0.75956 0.71905 0.0
C486 C 0.89557 0.75199 0.73287 0.0
C487 C 0.90176 0.75009 0.78181 0.0
C488 C 0.90792 0.74484 0.69731 0.0
C489 C 0.86955 0.76112 0.66725 0.0
C490 C 0.91323 0.72566 0.7007 0.0
C491 C 0.9242 0.71852 0.66636 0.0
C492 C 0.93009 0.73044 0.62789 0.0
C493 C 0.92508 0.74976 0.62511 0.0
C494 C 0.91417 0.75691 0.65969 0.0
H495 H 0.85391 0.76294 0.66407 0.0
H496 H 0.87584 0.77364 0.64829 0.0
H497 H 0.8732 0.74835 0.64872 0.0
H498 H 0.9086 0.71612 0.72953 0.0
H499 H 0.92786 0.7036 0.66969 0.0
H500 H 0.74142 0.32218 0.32237 0.0
H501 H 0.75116 0.34929 0.27096 0.0
H502 H 0.72026 0.38696 0.35242 0.0
H503 H 0.71049 0.36002 0.40431 0.0
H504 H 0.72661 0.37536 0.21494 0.0
H505 H 0.77371 0.41099 0.34824 0.0
H506 H 0.76672 0.38649 0.3571 0.0
H507 H 0.7505 0.40514 0.36691 0.0
C508 C 0.73674 0.33622 0.32959 0.0
C509 C 0.72516 0.33888 0.36756 0.0
C510 C 0.74233 0.35169 0.30015 0.0
C511 C 0.73663 0.37012 0.30835 0.0
C512 C 0.72508 0.37287 0.34608 0.0
H513 H 0.73585 0.46814 0.10421 0.0
H514 H 0.72818 0.4444 0.16759 0.0
C515 C 0.71941 0.35741 0.37545 0.0
C516 C 0.74206 0.38635 0.27598 0.0
H517 H 0.76704 0.42772 0.27231 0.0
C518 C 0.73545 0.3868 0.22743 0.0
C519 C 0.75373 0.40115 0.29245 0.0
C520 C 0.76175 0.40094 0.34392 0.0
C521 C 0.74002 0.4018 0.1949 0.0
C522 C 0.75134 0.41681 0.21154 0.0
C523 C 0.75818 0.41626 0.25993 0.0
C524 C 0.75656 0.43287 0.17842 0.0
C525 C 0.73294 0.40137 0.14277 0.0
C526 C 0.77525 0.43472 0.16515 0.0
C527 C 0.77971 0.44828 0.12893 0.0
C528 C 0.76554 0.46024 0.10555 0.0
C529 C 0.74708 0.45909 0.12122 0.0
C530 C 0.74264 0.44551 0.15732 0.0
H531 H 0.72758 0.38715 0.13408 0.0
H532 H 0.72118 0.41173 0.13487 0.0
H533 H 0.74436 0.40544 0.11883 0.0
H534 H 0.78619 0.42511 0.18126 0.0
H535 H 0.79408 0.44883 0.11791 0.0
H536 H 0.17943 0.24597 0.84553 0.0
H537 H 0.15246 0.25747 0.79208 0.0
H538 H 0.11433 0.2261 0.88115 0.0
H539 H 0.14116 0.21448 0.93503 0.0
H540 H 0.12494 0.23346 0.7429 0.0
H541 H 0.09268 0.28172 0.8641 0.0
H542 H 0.11708 0.27401 0.87294 0.0
H543 H 0.09844 0.25808 0.88878 0.0
C544 C 0.16532 0.24155 0.85398 0.0
C545 C 0.1625 0.22927 0.89463 0.0
C546 C 0.14994 0.24814 0.82337 0.0
C547 C 0.13145 0.24278 0.83304 0.0
C548 C 0.12851 0.23059 0.87351 0.0
H549 H 0.03375 0.25424 0.62538 0.0
H550 H 0.05564 0.24295 0.69291 0.0
C551 C 0.14389 0.22388 0.90405 0.0
C552 C 0.11534 0.24938 0.79956 0.0
H553 H 0.07621 0.27804 0.78871 0.0
C554 C 0.11423 0.24314 0.75291 0.0
C555 C 0.10151 0.26208 0.81286 0.0
C556 C 0.10244 0.26953 0.86227 0.0
C557 C 0.09962 0.2493 0.71899 0.0
C558 C 0.08572 0.26193 0.7323 0.0
C559 C 0.08681 0.2682 0.77895 0.0
C560 C 0.07062 0.2695 0.69697 0.0
C561 C 0.09939 0.24264 0.66877 0.0
C562 C 0.07135 0.28839 0.67844 0.0
C563 C 0.0589 0.29491 0.63984 0.0
C564 C 0.04546 0.28263 0.61929 0.0
C565 C 0.04397 0.26405 0.64019 0.0
C566 C 0.05649 0.25754 0.67867 0.0
H567 H 0.11283 0.23547 0.66211 0.0
H568 H 0.08763 0.23245 0.66347 0.0
H569 H 0.09693 0.25477 0.64162 0.0
H570 H 0.08216 0.29783 0.69229 0.0
H571 H 0.06037 0.30932 0.62482 0.0
H572 H 0.2957 0.64881 0.43513 0.0
H573 H 0.28397 0.62359 0.38548 0.0
H574 H 0.23978 0.66072 0.31979 0.0
H575 H 0.25153 0.68615 0.3686 0.0
H576 H 0.24837 0.60639 0.379 0.0
H577 H 0.26505 0.64246 0.20428 0.0
H578 H 0.27442 0.65032 0.26123 0.0
H579 H 0.25054 0.65623 0.23914 0.0
C580 C 0.28353 0.65169 0.41 0.0
C581 C 0.27468 0.66962 0.40559 0.0
C582 C 0.27682 0.63721 0.38177 0.0
C583 C 0.26118 0.64038 0.34854 0.0
C584 C 0.25211 0.65811 0.34456 0.0
H585 H 0.20476 0.57337 0.13389 0.0
H586 H 0.21201 0.59642 0.19367 0.0
C587 C 0.25884 0.67262 0.37262 0.0
C588 C 0.25439 0.62513 0.31794 0.0
H589 H 0.24735 0.61413 0.20106 0.0
C590 C 0.24816 0.60804 0.34009 0.0
C591 C 0.25419 0.62733 0.26722 0.0
C592 C 0.26157 0.64499 0.24147 0.0
C593 C 0.24147 0.59316 0.31273 0.0
C594 C 0.24122 0.59543 0.26205 0.0
C595 C 0.24742 0.61252 0.23997 0.0
C596 C 0.23512 0.58014 0.23081 0.0
C597 C 0.23447 0.57529 0.33818 0.0
C598 C 0.24545 0.56315 0.23257 0.0
C599 C 0.24134 0.5499 0.19844 0.0
C600 C 0.22691 0.55352 0.16172 0.0
C601 C 0.216 0.57015 0.16155 0.0
C602 C 0.22013 0.58337 0.19566 0.0
H603 H 0.23103 0.57761 0.37553 0.0
H604 H 0.22169 0.56982 0.31839 0.0
H605 H 0.24568 0.56425 0.33995 0.0
H606 H 0.25728 0.56052 0.25892 0.0
H607 H 0.25004 0.53725 0.19953 0.0
H608 H 0.36163 0.71216 0.60441 0.0
H609 H 0.38882 0.72227 0.65514 0.0
H610 H 0.3515 0.7527 0.7385 0.0
H611 H 0.32419 0.74268 0.68828 0.0
H612 H 0.40026 0.76072 0.67401 0.0
H613 H 0.38336 0.71718 0.83848 0.0
H614 H 0.37315 0.71265 0.77932 0.0
H615 H 0.36415 0.73162 0.81097 0.0
C616 C 0.35915 0.72095 0.63361 0.0
C617 C 0.34066 0.72649 0.6424 0.0
C618 C 0.37473 0.72675 0.66244 0.0
C619 C 0.37211 0.73804 0.70078 0.0
C620 C 0.35376 0.74376 0.70942 0.0
H621 H 0.44456 0.80622 0.87556 0.0
H622 H 0.42341 0.79402 0.81212 0.0
C623 C 0.33818 0.73805 0.68055 0.0
C624 C 0.38854 0.74391 0.73185 0.0
H625 H 0.40745 0.74029 0.84777 0.0
C626 C 0.40196 0.75617 0.71193 0.0
C627 C 0.39079 0.73772 0.78109 0.0
C628 C 0.37721 0.72393 0.8038 0.0
C629 C 0.41727 0.76294 0.74052 0.0
C630 C 0.41906 0.75735 0.79017 0.0
C631 C 0.40599 0.74459 0.80967 0.0
C632 C 0.43382 0.76518 0.82331 0.0
C633 C 0.43136 0.77603 0.71751 0.0
C634 C 0.44685 0.75305 0.8502 0.0
C635 C 0.45898 0.75996 0.88652 0.0
C636 C 0.4581 0.77911 0.897 0.0
C637 C 0.44562 0.7914 0.86845 0.0
C638 C 0.43357 0.78448 0.83198 0.0
H639 H 0.43089 0.77501 0.67794 0.0
H640 H 0.42798 0.79088 0.72449 0.0
H641 H 0.44598 0.77281 0.73294 0.0
H642 H 0.44718 0.73808 0.84414 0.0
H643 H 0.46839 0.7501 0.90783 0.0
H644 H 0.75901 0.81921 0.18078 0.0
H645 H 0.74956 0.84535 0.22685 0.0
H646 H 0.78765 0.88271 0.15258 0.0
H647 H 0.7974 0.85667 0.10656 0.0
H648 H 0.79034 0.88476 0.25262 0.0
H649 H 0.71566 0.8908 0.17832 0.0
H650 H 0.72259 0.8673 0.20138 0.0
H651 H 0.73344 0.87804 0.15 0.0
C652 C 0.7654 0.83297 0.17412 0.0
C653 C 0.77896 0.8358 0.1398 0.0
C654 C 0.75986 0.84793 0.20026 0.0
C655 C 0.76766 0.86603 0.19247 0.0
C656 C 0.78136 0.86888 0.15881 0.0
H657 H 0.75616 0.97009 0.34144 0.0
H658 H 0.76363 0.94771 0.28223 0.0
C659 C 0.78691 0.85394 0.1326 0.0
C660 C 0.76203 0.88182 0.22072 0.0
H661 H 0.72399 0.90788 0.24727 0.0
C662 C 0.77588 0.88997 0.25114 0.0
C663 C 0.74315 0.88855 0.21861 0.0
C664 C 0.72786 0.88086 0.18501 0.0
C665 C 0.77124 0.90425 0.28084 0.0
C666 C 0.7523 0.91079 0.2793 0.0
C667 C 0.7385 0.90285 0.24827 0.0
C668 C 0.74638 0.92509 0.31165 0.0
C669 C 0.78651 0.91171 0.31492 0.0
C670 C 0.73356 0.92007 0.34634 0.0
C671 C 0.72916 0.93283 0.37993 0.0
C672 C 0.73748 0.9509 0.37938 0.0
C673 C 0.74961 0.95624 0.34306 0.0
C674 C 0.75399 0.94344 0.30939 0.0
H675 H 0.7992 0.90233 0.31921 0.0
H676 H 0.79099 0.92591 0.30063 0.0
H677 H 0.78116 0.9132 0.3509 0.0
H678 H 0.72744 0.90601 0.34848 0.0
H679 H 0.71967 0.92829 0.40722 0.0
H680 H 0.64937 0.29869 0.58581 0.0
H681 H 0.62647 0.29037 0.64561 0.0
H682 H 0.66272 0.24458 0.70613 0.0
H683 H 0.68565 0.25267 0.64678 0.0
H684 H 0.62196 0.23593 0.68939 0.0
H685 H 0.63693 0.2996 0.7926 0.0
H686 H 0.63175 0.30329 0.72865 0.0
H687 H 0.65316 0.29129 0.75148 0.0
C688 C 0.65242 0.28676 0.61161 0.0
C689 C 0.66943 0.27643 0.61167 0.0
C690 C 0.63936 0.2821 0.64585 0.0
C691 C 0.64306 0.26702 0.68048 0.0
C692 C 0.65969 0.25633 0.67974 0.0
H693 H 0.59828 0.20937 0.92612 0.0
H694 H 0.61481 0.21996 0.85541 0.0
C695 C 0.67279 0.26102 0.64583 0.0
C696 C 0.62987 0.26245 0.71835 0.0
H697 H 0.61507 0.27765 0.82294 0.0
C698 C 0.6203 0.24509 0.71842 0.0
C699 C 0.62771 0.27452 0.75589 0.0
C700 C 0.63797 0.2932 0.75766 0.0
C701 C 0.60881 0.23931 0.75561 0.0
C702 C 0.60727 0.25102 0.79429 0.0
C703 C 0.61635 0.26868 0.79335 0.0
C704 C 0.59715 0.24475 0.83723 0.0
C705 C 0.59841 0.22074 0.75307 0.0
C706 C 0.58215 0.25554 0.8515 0.0
C707 C 0.57277 0.24963 0.89234 0.0
C708 C 0.57831 0.23285 0.91969 0.0
C709 C 0.59355 0.22227 0.90568 0.0
C710 C 0.60293 0.22822 0.86502 0.0
H711 H 0.59621 0.21662 0.71542 0.0
H712 H 0.60695 0.20942 0.77386 0.0
H713 H 0.58442 0.22147 0.76855 0.0
H714 H 0.57759 0.26845 0.83078 0.0
H715 H 0.5611 0.25811 0.90222 0.0
H716 H 0.2447 0.17997 0.18881 0.0
H717 H 0.25565 0.15282 0.24231 0.0
H718 H 0.22211 0.11541 0.15556 0.0
H719 H 0.2111 0.14242 0.10157 0.0
H720 H 0.23195 0.12754 0.29404 0.0
H721 H 0.27544 0.09021 0.17139 0.0
H722 H 0.26868 0.11484 0.16039 0.0
H723 H 0.25184 0.09654 0.14774 0.0
C724 C 0.23971 0.16598 0.18083 0.0
C725 C 0.22698 0.16343 0.14083 0.0
C726 C 0.24601 0.15048 0.21145 0.0
C727 C 0.23988 0.13212 0.20248 0.0
C728 C 0.22727 0.12945 0.16259 0.0
H729 H 0.24146 0.03515 0.40885 0.0
H730 H 0.23328 0.05845 0.34199 0.0
C731 C 0.22088 0.14495 0.132 0.0
C732 C 0.24585 0.11592 0.23648 0.0
H733 H 0.27026 0.07398 0.24664 0.0
C734 C 0.24034 0.11584 0.28373 0.0
C735 C 0.25691 0.10078 0.22287 0.0
C736 C 0.26374 0.10057 0.17296 0.0
C737 C 0.2454 0.10088 0.31769 0.0
C738 C 0.25611 0.08554 0.30385 0.0
C739 C 0.26188 0.0857 0.25682 0.0
C740 C 0.26168 0.06948 0.33859 0.0
C741 C 0.23946 0.10169 0.36836 0.0
C742 C 0.28053 0.06745 0.35722 0.0
C743 C 0.28529 0.05414 0.3955 0.0
C744 C 0.27125 0.04263 0.41562 0.0
C745 C 0.25261 0.04386 0.3945 0.0
C746 C 0.24788 0.05718 0.35634 0.0
H747 H 0.23443 0.11604 0.37549 0.0
H748 H 0.22774 0.09154 0.37408 0.0
H749 H 0.25139 0.09754 0.39491 0.0
H750 H 0.29137 0.07681 0.34377 0.0
H751 H 0.29979 0.05352 0.41076 0.0
H752 H 0.21843 0.28713 0.93288 0.0
H753 H 0.21601 0.3217 0.92931 0.0
H754 H 0.21842 0.32004 0.08415 0.0
H755 H 0.22055 0.28553 0.08825 0.0
H756 H 0.18998 0.34339 0.04083 0.0
H757 H 0.25849 0.35898 0.96123 0.0
H758 H 0.24314 0.3437 0.92766 0.0
H759 H 0.2527 0.33576 0.98691 0.0
C760 C 0.21852 0.29409 0.96624 0.0
C761 C 0.21978 0.28349 0.01088 0.0
C762 C 0.21723 0.31387 0.96409 0.0
C763 C 0.21732 0.32344 0.00648 0.0
C764 C 0.21841 0.31293 0.05101 0.0
H765 H 0.23563 0.44253 0.04608 0.0
H766 H 0.23767 0.40802 0.04547 0.0
C767 C 0.21965 0.29317 0.05323 0.0
C768 C 0.21589 0.34439 0.00467 0.0
H769 H 0.23822 0.38517 0.96849 0.0
C770 C 0.20052 0.35255 0.02501 0.0
C771 C 0.22978 0.35626 0.98452 0.0
C772 C 0.24706 0.34828 0.96421 0.0
C773 C 0.1986 0.37228 0.02553 0.0
C774 C 0.21225 0.38417 0.00437 0.0
C775 C 0.22769 0.37601 0.9843 0.0
C776 C 0.21103 0.40511 0.00382 0.0
C777 C 0.18221 0.38021 0.04974 0.0
C778 C 0.1955 0.41493 0.98 0.0
C779 C 0.19425 0.43465 0.98043 0.0
C780 C 0.2086 0.44491 0.00438 0.0
C781 C 0.22432 0.43505 0.02742 0.0
C782 C 0.22552 0.41533 0.02706 0.0
H783 H 0.17592 0.36937 0.07449 0.0
H784 H 0.18674 0.39249 0.07043 0.0
H785 H 0.17101 0.38514 0.02194 0.0
H786 H 0.18435 0.40734 0.96101 0.0
H787 H 0.18202 0.44182 0.96205 0.0
H788 H 0.21512 0.73625 0.45129 0.0
H789 H 0.18099 0.73085 0.4448 0.0
H790 H 0.18597 0.69507 0.57658 0.0
H791 H 0.22001 0.70117 0.5844 0.0
H792 H 0.16258 0.69988 0.43265 0.0
H793 H 0.14205 0.72675 0.60294 0.0
H794 H 0.16524 0.73072 0.58135 0.0
H795 H 0.15985 0.70865 0.61358 0.0
C796 C 0.20889 0.72742 0.47921 0.0
C797 C 0.22022 0.71921 0.5185 0.0
C798 C 0.18938 0.72433 0.47545 0.0
C799 C 0.1808 0.71279 0.51056 0.0
C800 C 0.19211 0.70451 0.54979 0.0
H801 H 0.07398 0.65514 0.4585 0.0
H802 H 0.10719 0.66449 0.46672 0.0
C803 C 0.2116 0.7079 0.55407 0.0
C804 C 0.16024 0.70856 0.50447 0.0
H805 H 0.11921 0.70748 0.56198 0.0
C806 C 0.15307 0.70172 0.46081 0.0
C807 C 0.14771 0.71124 0.54082 0.0
C808 C 0.15407 0.71994 0.58706 0.0
C809 C 0.13387 0.69718 0.45279 0.0
C810 C 0.12159 0.69879 0.4902 0.0
C811 C 0.12865 0.70599 0.53351 0.0
C812 C 0.10139 0.69307 0.48527 0.0
C813 C 0.12695 0.69109 0.4039 0.0
C814 C 0.08705 0.70574 0.49471 0.0
C815 C 0.06806 0.70025 0.49119 0.0
C816 C 0.06304 0.68203 0.4777 0.0
C817 C 0.07739 0.66936 0.46829 0.0
C818 C 0.09639 0.67474 0.47266 0.0
H819 H 0.13617 0.69668 0.37562 0.0
H820 H 0.12733 0.67539 0.40443 0.0
H821 H 0.11222 0.69598 0.39381 0.0
H822 H 0.09055 0.71992 0.50473 0.0
H823 H 0.0573 0.71032 0.49872 0.0
H824 H 0.78317 0.72049 0.94609 0.0
H825 H 0.78169 0.68612 0.94252 0.0
H826 H 0.77036 0.68009 0.09244 0.0
H827 H 0.77232 0.71448 0.09677 0.0
H828 H 0.79535 0.65358 0.07008 0.0
H829 H 0.7332 0.65608 0.93781 0.0
H830 H 0.75277 0.66964 0.9169 0.0
H831 H 0.74124 0.67655 0.96846 0.0
C832 C 0.78038 0.71188 0.97839 0.0
C833 C 0.77767 0.72028 0.02163 0.0
C834 C 0.77944 0.69222 0.97618 0.0
C835 C 0.77546 0.68057 0.0169 0.0
C836 C 0.77331 0.68883 0.06048 0.0
H837 H 0.73603 0.56461 0.0023 0.0
H838 H 0.73933 0.59837 0.01449 0.0
C839 C 0.77443 0.7085 0.06288 0.0
C840 C 0.77341 0.65979 0.01388 0.0
H841 H 0.74891 0.62632 0.95293 0.0
C842 C 0.78513 0.64759 0.04464 0.0
C843 C 0.75984 0.65199 0.98128 0.0
C844 C 0.74591 0.66423 0.94959 0.0
C845 C 0.78392 0.62781 0.04302 0.0
C846 C 0.77094 0.62005 0.00888 0.0
C847 C 0.75899 0.63226 0.97876 0.0
C848 C 0.76933 0.59933 0.00384 0.0
C849 C 0.7963 0.61545 0.07854 0.0
C850 C 0.78507 0.58861 0.99364 0.0
C851 C 0.78327 0.56923 0.98716 0.0
C852 C 0.76559 0.56029 0.9899 0.0
C853 C 0.74984 0.57107 -0.00011 0.0
C854 C 0.7517 0.59038 0.00687 0.0
H855 H 0.80093 0.62307 0.11078 0.0
H856 H 0.78881 0.60234 0.0904 0.0
H857 H 0.80919 0.61133 0.06124 0.0
H858 H 0.79871 0.59527 0.98982 0.0
H859 H 0.79564 0.56135 0.9791 0.0
H860 H 0.78445 0.27655 0.41238 0.0
H861 H 0.81896 0.27689 0.4124 0.0
H862 H 0.82319 0.28393 0.56485 0.0
H863 H 0.78871 0.28324 0.56551 0.0
H864 H 0.84416 0.30447 0.43715 0.0
H865 H 0.85795 0.23883 0.55481 0.0
H866 H 0.83466 0.24523 0.52829 0.0
H867 H 0.84407 0.25609 0.58116 0.0
C868 C 0.79269 0.27812 0.446 0.0
C869 C 0.78377 0.27973 0.48902 0.0
C870 C 0.81242 0.27832 0.44591 0.0
C871 C 0.82364 0.2801 0.48876 0.0
C872 C 0.81481 0.28207 0.53158 0.0
H873 H 0.94264 0.3113 0.50906 0.0
H874 H 0.90815 0.31052 0.51074 0.0
C875 C 0.79508 0.28178 0.5318 0.0
C876 C 0.84456 0.28027 0.48837 0.0
H877 H 0.88474 0.2576 0.53677 0.0
C878 C 0.85304 0.2942 0.45882 0.0
C879 C 0.85609 0.26669 0.51618 0.0
C880 C 0.84775 0.25074 0.54656 0.0
C881 C 0.87278 0.29507 0.45678 0.0
C882 C 0.88434 0.28189 0.48586 0.0
C883 C 0.87585 0.26781 0.51491 0.0
C884 C 0.90528 0.28225 0.48599 0.0
C885 C 0.88102 0.30986 0.42278 0.0
C886 C 0.91515 0.26639 0.47303 0.0
C887 C 0.93487 0.26671 0.47253 0.0
C888 C 0.94509 0.28291 0.48507 0.0
C889 C 0.93518 0.29866 0.49882 0.0
C890 C 0.91546 0.29829 0.49953 0.0
H891 H 0.87033 0.31528 0.39413 0.0
H892 H 0.88605 0.32203 0.44319 0.0
H893 H 0.89325 0.30408 0.40556 0.0
H894 H 0.90756 0.25383 0.46271 0.0
H895 H 0.94208 0.25432 0.46185 0.0
H896 H 0.72087 0.21649 0.42118 0.0
H897 H 0.71778 0.18206 0.42569 0.0
H898 H 0.7149 0.18147 0.57941 0.0
H899 H 0.71833 0.21593 0.57553 0.0
H900 H 0.73904 0.15446 0.55343 0.0
H901 H 0.67032 0.15122 0.44658 0.0
H902 H 0.68788 0.16452 0.41556 0.0
H903 H 0.67942 0.17291 0.46957 0.0
C904 C 0.7195 0.2091 0.456 0.0
C905 C 0.7198 0.21905 0.49799 0.0
C906 C 0.71761 0.18939 0.45843 0.0
C907 C 0.71577 0.17923 0.50277 0.0
C908 C 0.7162 0.18906 0.54479 0.0
H909 H 0.68209 0.06056 0.53173 0.0
H910 H 0.68386 0.09502 0.53492 0.0
C911 C 0.71816 0.20877 0.54245 0.0
C912 C 0.71398 0.15829 0.50544 0.0
H913 H 0.68745 0.12212 0.46188 0.0
C914 C 0.72769 0.14738 0.53367 0.0
C915 C 0.699 0.14908 0.48024 0.0
C916 C 0.68321 0.16003 0.45167 0.0
C917 C 0.72712 0.12749 0.53639 0.0
C918 C 0.71265 0.11828 0.50936 0.0
C919 C 0.69865 0.1292 0.48215 0.0
C920 C 0.71184 0.09735 0.50848 0.0
C921 C 0.74189 0.11655 0.56863 0.0
C922 C 0.72691 0.08724 0.49214 0.0
C923 C 0.72599 0.06755 0.4905 0.0
C924 C 0.70987 0.0576 0.50467 0.0
C925 C 0.69472 0.06779 0.52064 0.0
C926 C 0.6957 0.08748 0.52246 0.0
H927 H 0.74829 0.12533 0.59695 0.0
H928 H 0.73577 0.10362 0.58623 0.0
H929 H 0.75341 0.11213 0.54675 0.0
H930 H 0.73932 0.09461 0.48008 0.0
H931 H 0.73784 0.06016 0.47767 0.0
H932 H 0.28589 0.23487 0.09297 0.0
H933 H 0.32023 0.23044 0.10156 0.0
H934 H 0.31729 0.19834 0.97529 0.0
H935 H 0.28308 0.20364 0.96513 0.0
H936 H 0.3399 0.20014 0.11973 0.0
H937 H 0.36012 0.23193 0.94461 0.0
H938 H 0.33664 0.23452 0.96459 0.0
H939 H 0.34311 0.21347 0.93646 0.0
C940 C 0.29263 0.22708 0.0667 0.0
C941 C 0.28185 0.2197 0.02821 0.0
C942 C 0.31224 0.22454 0.07164 0.0
C943 C 0.32146 0.21433 0.03863 0.0
C944 C 0.31066 0.20682 0.00033 0.0
H945 H 0.42947 0.15757 0.10464 0.0
H946 H 0.39608 0.16668 0.09433 0.0
C947 C 0.29108 0.20973 0.99474 0.0
C948 C 0.34216 0.2106 0.04605 0.0
H949 H 0.38333 0.21177 0.9892 0.0
C950 C 0.34942 0.2029 0.09128 0.0
C951 C 0.35471 0.21448 0.00932 0.0
C952 C 0.34827 0.22425 0.96125 0.0
C953 C 0.36873 0.1986 0.10051 0.0
C954 C 0.38104 0.2013 0.06283 0.0
C955 C 0.37388 0.20942 0.01793 0.0
C956 C 0.40134 0.19573 0.06904 0.0
C957 C 0.3757 0.19158 0.15089 0.0
C958 C 0.41544 0.20876 0.05643 0.0
C959 C 0.43453 0.2034 0.06102 0.0
C960 C 0.43987 0.18498 0.07886 0.0
C961 C 0.42578 0.17195 0.09147 0.0
C962 C 0.40669 0.17719 0.08593 0.0
H963 H 0.36638 0.19654 0.17792 0.0
H964 H 0.37553 0.17585 0.15386 0.0
H965 H 0.39035 0.19641 0.16002 0.0
H966 H 0.41169 0.22311 0.04309 0.0
H967 H 0.4451 0.21374 0.051 0.0
H968 H 0.28623 0.78412 0.60433 0.0
H969 H 0.28521 0.81855 0.60712 0.0
H970 H 0.27134 0.82447 0.45407 0.0
H971 H 0.27281 0.79007 0.45064 0.0
H972 H 0.29742 0.85011 0.48166 0.0
H973 H 0.23759 0.85031 0.59953 0.0
H974 H 0.25735 0.83632 0.62538 0.0
H975 H 0.24454 0.82941 0.57148 0.0
C976 C 0.28295 0.79272 0.57121 0.0
C977 C 0.27945 0.78429 0.5273 0.0
C978 C 0.28227 0.81242 0.57294 0.0
C979 C 0.27779 0.82407 0.53098 0.0
C980 C 0.27471 0.81574 0.48695 0.0
H981 H 0.24031 0.94107 0.52546 0.0
H982 H 0.24305 0.90693 0.51842 0.0
C983 C 0.27556 0.79606 0.48508 0.0
C984 C 0.27632 0.84493 0.53288 0.0
H985 H 0.2534 0.87962 0.58568 0.0
C986 C 0.28775 0.85658 0.50427 0.0
C987 C 0.26347 0.85337 0.56179 0.0
C988 C 0.2499 0.84172 0.59091 0.0
C989 C 0.28687 0.87642 0.50427 0.0
C990 C 0.27457 0.88482 0.53465 0.0
C991 C 0.26297 0.87317 0.56278 0.0
C992 C 0.27322 0.90567 0.53739 0.0
C993 C 0.29883 0.88816 0.47092 0.0
C994 C 0.28925 0.91632 0.55064 0.0
C995 C 0.28776 0.93589 0.55422 0.0
C996 C 0.27014 0.94512 0.54539 0.0
C997 C 0.25409 0.93439 0.53252 0.0
C998 C 0.25562 0.91487 0.5285 0.0
H999 H 0.30295 0.88003 0.4406 0.0
H1000 H 0.29122 0.90121 0.45595 0.0
H1001 H 0.31201 0.89239 0.4912 0.0
H1002 H 0.30288 0.90947 0.5589 0.0
H1003 H 0.30036 0.94373 0.56462 0.0
H1004 H 0.71744 0.77846 0.10369 0.0
H1005 H 0.68295 0.77906 0.10401 0.0
H1006 H 0.67843 0.78997 0.94992 0.0
H1007 H 0.7129 0.78909 0.94896 0.0
H1008 H 0.65711 0.80736 0.07317 0.0
H1009 H 0.64475 0.74363 0.96997 0.0
H1010 H 0.66786 0.74979 0.99557 0.0
H1011 H 0.65837 0.76173 0.94023 0.0
C1012 C 0.70916 0.781 0.06979 0.0
C1013 C 0.718 0.78356 0.02624 0.0
C1014 C 0.68943 0.78135 0.07009 0.0
C1015 C 0.67814 0.78423 0.02692 0.0
C1016 C 0.68688 0.78729 0.98353 0.0
H1017 H 0.55793 0.8125 0.00167 0.0
H1018 H 0.5924 0.81292 0.99929 0.0
C1019 C 0.70661 0.78689 0.98313 0.0
C1020 C 0.65722 0.78406 0.02745 0.0
H1021 H 0.61758 0.76125 0.9854 0.0
C1022 C 0.64845 0.79728 0.05403 0.0
C1023 C 0.646 0.77071 0.00298 0.0
C1024 C 0.6547 0.75553 0.97593 0.0
C1025 C 0.62871 0.79764 0.0564 0.0
C1026 C 0.61745 0.78465 0.03078 0.0
C1027 C 0.62624 0.77131 0.00462 0.0
C1028 C 0.59653 0.78438 0.03149 0.0
C1029 C 0.62013 0.81165 0.08715 0.0
C1030 C 0.58738 0.768 0.0491 0.0
C1031 C 0.56767 0.76765 0.05012 0.0
C1032 C 0.55674 0.78367 0.0334 0.0
C1033 C 0.56594 0.79997 0.01514 0.0
C1034 C 0.58565 0.80028 0.014 0.0
H1035 H 0.6308 0.81704 0.11392 0.0
H1036 H 0.61442 0.82395 0.06382 0.0
H1037 H 0.60832 0.80516 0.10656 0.0
H1038 H 0.59551 0.75554 0.06253 0.0
H1039 H 0.56103 0.75486 0.06431 0.0
loop_
_geom_bond_atom_site_label_1
_geom_bond_atom_site_label_2
_geom_bond_distance
_geom_bond_site_symmetry_2
_ccdc_geom_bond_type
Sc0 O3 2.025 . S
Sc0 O10 2.105 . S
Sc0 O13 2.105 . S
Sc0 O16 2.105 . S
Sc0 O19 2.105 . S
Sc1 O3 2.025 . S
Sc1 O11 2.105 . S
Sc1 O15 2.105 1_554 S
Sc1 O17 2.105 . S
Sc1 O21 2.105 1_554 S
Sc2 O3 2.025 1_556 S
Sc2 O12 2.105 . S
Sc2 O14 2.105 . S
Sc2 O18 2.105 . S
Sc2 O20 2.105 . S
O3 Sc0 2.025 . S
O3 Sc1 2.025 . S
O3 Sc2 2.025 1_554 S
C4 O10 1.268 . S
C4 O20 1.268 1_554 S
C5 O11 1.268 . S
C5 O19 1.268 . S
C6 O12 1.268 . S
C6 O21 1.268 . S
C7 O13 1.268 . S
C7 O17 1.268 . S
C8 O14 1.268 1_554 S
C8 O16 1.268 . S
C9 O15 1.268 . S
C9 O18 1.268 . S
O10 Sc0 2.105 . S
O10 C4 1.268 . S
O11 Sc1 2.105 . S
O11 C5 1.268 . S
O12 Sc2 2.105 . S
O12 C6 1.268 . S
O13 Sc0 2.105 . S
O13 C7 1.268 . S
O14 Sc2 2.105 . S
O14 C8 1.268 1_556 S
O15 Sc1 2.105 1_556 S
O15 C9 1.268 . S
O16 Sc0 2.105 . S
O16 C8 1.268 . S
O17 Sc1 2.105 . S
O17 C7 1.268 . S
O18 Sc2 2.105 . S
O18 C9 1.268 . S
O19 Sc0 2.105 . S
O19 C5 1.268 . S
O20 Sc2 2.105 . S
O20 C4 1.268 1_556 S
O21 Sc1 2.105 1_556 S
O21 C6 1.268 . S
Sc22 O25 2.025 . S
Sc22 O32 2.105 . S
Sc22 O35 2.105 . S
Sc22 O38 2.105 . S
Sc22 O41 2.105 . S
Sc23 O25 2.025 . S
Sc23 O33 2.105 . S
Sc23 O37 2.105 . S
Sc23 O39 2.105 . S
Sc23 O43 2.105 . S
Sc24 O25 2.025 . S
Sc24 O34 2.105 . S
Sc24 O36 2.105 . S
Sc24 O40 2.105 . S
Sc24 O42 2.105 . S
O25 Sc22 2.025 . S
O25 Sc23 2.025 . S
O25 Sc24 2.025 . S
C26 O32 1.268 . S
C26 O42 1.268 . S
C27 O33 1.268 . S
C27 O41 1.268 . S
C28 O34 1.268 . S
C28 O43 1.268 . S
C29 O35 1.268 . S
C29 O39 1.268 . S
C30 O36 1.268 . S
C30 O38 1.268 . S
C31 O37 1.268 . S
C31 O40 1.268 . S
O32 Sc22 2.105 . S
O32 C26 1.268 . S
O33 Sc23 2.105 . S
O33 C27 1.268 . S
O34 Sc24 2.105 . S
O34 C28 1.268 . S
O35 Sc22 2.105 . S
O35 C29 1.268 . S
O36 Sc24 2.105 . S
O36 C30 1.268 . S
O37 Sc23 2.105 . S
O37 C31 1.268 . S
O38 Sc22 2.105 . S
O38 C30 1.268 . S
O39 Sc23 2.105 . S
O39 C29 1.268 . S
O40 Sc24 2.105 . S
O40 C31 1.268 . S
O41 Sc22 2.105 . S
O41 C27 1.268 . S
O42 Sc24 2.105 . S
O42 C26 1.268 . S
O43 Sc23 2.105 . S
O43 C28 1.268 . S
Sc44 O47 2.025 1_556 S
Sc44 O54 2.105 . S
Sc44 O57 2.105 . S
Sc44 O60 2.105 . S
Sc44 O63 2.105 . S
Sc45 O47 2.025 . S
Sc45 O55 2.105 1_554 S
Sc45 O59 2.105 . S
Sc45 O61 2.105 1_554 S
Sc45 O65 2.105 . S
Sc46 O47 2.025 . S
Sc46 O56 2.105 . S
Sc46 O58 2.105 . S
Sc46 O62 2.105 . S
Sc46 O64 2.105 . S
O47 Sc44 2.025 1_554 S
O47 Sc45 2.025 . S
O47 Sc46 2.025 . S
C48 O54 1.268 1_554 S
C48 O64 1.268 . S
C49 O55 1.268 . S
C49 O63 1.268 . S
C50 O56 1.268 . S
C50 O65 1.268 . S
C51 O57 1.268 . S
C51 O61 1.268 . S
C52 O58 1.268 . S
C52 O60 1.268 1_554 S
C53 O59 1.268 . S
C53 O62 1.268 . S
O54 Sc44 2.105 . S
O54 C48 1.268 1_556 S
O55 Sc45 2.105 1_556 S
O55 C49 1.268 . S
O56 Sc46 2.105 . S
O56 C50 1.268 . S
O57 Sc44 2.105 . S
O57 C51 1.268 . S
O58 Sc46 2.105 . S
O58 C52 1.268 . S
O59 Sc45 2.105 . S
O59 C53 1.268 . S
O60 Sc44 2.105 . S
O60 C52 1.268 1_556 S
O61 Sc45 2.105 1_556 S
O61 C51 1.268 . S
O62 Sc46 2.105 . S
O62 C53 1.268 . S
O63 Sc44 2.105 . S
O63 C49 1.268 . S
O64 Sc46 2.105 . S
O64 C48 1.268 . S
O65 Sc45 2.105 . S
O65 C50 1.268 . S
Sc66 O69 2.025 . S
Sc66 O76 2.105 . S
Sc66 O79 2.105 . S
Sc66 O82 2.105 . S
Sc66 O85 2.105 . S
Sc67 O69 2.025 . S
Sc67 O77 2.105 . S
Sc67 O81 2.105 . S
Sc67 O83 2.105 . S
Sc67 O87 2.105 . S
Sc68 O69 2.025 . S
Sc68 O78 2.105 . S
Sc68 O80 2.105 . S
Sc68 O84 2.105 . S
Sc68 O86 2.105 . S
O69 Sc66 2.025 . S
O69 Sc67 2.025 . S
O69 Sc68 2.025 . S
C70 O76 1.268 . S
C70 O86 1.268 . S
C71 O77 1.268 . S
C71 O85 1.268 . S
C72 O78 1.268 . S
C72 O87 1.268 . S
C73 O79 1.268 . S
C73 O83 1.268 . S
C74 O80 1.268 . S
C74 O82 1.268 . S
C75 O81 1.268 . S
C75 O84 1.268 . S
O76 Sc66 2.105 . S
O76 C70 1.268 . S
O77 Sc67 2.105 . S
O77 C71 1.268 . S
O78 Sc68 2.105 . S
O78 C72 1.268 . S
O79 Sc66 2.105 . S
O79 C73 1.268 . S
O80 Sc68 2.105 . S
O80 C74 1.268 . S
O81 Sc67 2.105 . S
O81 C75 1.268 . S
O82 Sc66 2.105 . S
O82 C74 1.268 . S
O83 Sc67 2.105 . S
O83 C73 1.268 . S
O84 Sc68 2.105 . S
O84 C75 1.268 . S
O85 Sc66 2.105 . S
O85 C71 1.268 . S
O86 Sc68 2.105 . S
O86 C70 1.268 . S
O87 Sc67 2.105 . S
O87 C72 1.268 . S
O88 Cd89 2.300 1_556 S
O88 C95 1.275 . S
Cd89 O88 2.300 1_554 S
Cd89 O97 2.381 1_554 S
Cd89 O98 2.378 . S
O90 Cd91 2.385 1_556 S
O90 C95 1.255 . S
Cd91 O90 2.385 1_554 S
Cd91 O92 2.317 . S
O92 Cd91 2.317 . S
O92 C93 1.232 . S
C93 O92 1.232 . S
C93 O94 1.218 . S
O94 C93 1.218 . S
C95 O88 1.275 . S
C95 O90 1.255 . S
C96 O97 1.258 1_554 S
C96 O98 1.256 . S
O97 Cd89 2.381 1_556 S
O97 C96 1.258 1_556 S
O98 Cd89 2.378 . S
O98 C96 1.256 . S
O99 Cd100 2.300 1_655 S
O99 C106 1.275 . S
Cd100 O99 2.300 1_455 S
Cd100 O108 2.381 . S
Cd100 O109 2.378 . S
O101 Cd102 2.385 . S
O101 C106 1.255 . S
Cd102 O101 2.385 . S
Cd102 O103 2.317 . S
O103 Cd102 2.317 . S
O103 C104 1.232 . S
C104 O103 1.232 . S
C104 O105 1.218 . S
O105 C104 1.218 . S
C106 O99 1.275 . S
C106 O101 1.255 . S
C107 O108 1.258 . S
C107 O109 1.256 . S
O108 Cd100 2.381 . S
O108 C107 1.258 . S
O109 Cd100 2.378 . S
O109 C107 1.256 . S
O110 Cd111 2.300 . S
O110 C117 1.275 . S
Cd111 O110 2.300 . S
Cd111 O119 2.381 . S
Cd111 O120 2.378 1_554 S
O112 Cd113 2.385 1_554 S
O112 C117 1.255 . S
Cd113 O112 2.385 1_556 S
Cd113 O114 2.317 . S
O114 Cd113 2.317 . S
O114 C115 1.232 . S
C115 O114 1.232 . S
C115 O116 1.218 . S
O116 C115 1.218 . S
C117 O110 1.275 . S
C117 O112 1.255 . S
C118 O119 1.258 . S
C118 O120 1.256 1_554 S
O119 Cd111 2.381 . S
O119 C118 1.258 . S
O120 Cd111 2.378 1_556 S
O120 C118 1.256 1_556 S
O121 Cd122 2.300 . S
O121 C128 1.275 . S
Cd122 O121 2.300 . S
Cd122 O130 2.383 1_455 S
Cd122 O131 2.380 1_455 S
O123 Cd124 2.385 . S
O123 C128 1.255 . S
Cd124 O123 2.385 . S
Cd124 O125 2.317 . S
O125 Cd124 2.317 . S
O125 C126 1.232 . S
C126 O125 1.232 . S
C126 O127 1.218 . S
O127 C126 1.218 . S
C128 O121 1.275 . S
C128 O123 1.255 . S
C129 O130 1.258 . S
C129 O131 1.256 . S
O130 Cd122 2.383 1_655 S
O130 C129 1.258 . S
O131 Cd122 2.380 1_655 S
O131 C129 1.256 . S
O132 Cd133 2.300 1_565 S
O132 C139 1.275 . S
Cd133 O132 2.300 1_545 S
Cd133 O141 2.381 . S
Cd133 O142 2.378 . S
O134 Cd135 2.385 . S
O134 C139 1.255 . S
Cd135 O134 2.385 . S
Cd135 O136 2.317 . S
O136 Cd135 2.317 . S
O136 C137 1.232 . S
C137 O136 1.232 . S
C137 O138 1.218 . S
O138 C137 1.218 . S
C139 O132 1.275 . S
C139 O134 1.255 . S
C140 O141 1.258 . S
C140 O142 1.256 . S
O141 Cd133 2.381 . S
O141 C140 1.258 . S
O142 Cd133 2.378 . S
O142 C140 1.256 . S
O143 Cd144 2.300 . S
O143 C150 1.275 . S
Cd144 O143 2.300 . S
Cd144 O152 2.381 . S
Cd144 O153 2.378 1_554 S
O145 Cd146 2.385 1_554 S
O145 C150 1.255 . S
Cd146 O145 2.385 1_556 S
Cd146 O147 2.317 . S
O147 Cd146 2.317 . S
O147 C148 1.232 . S
C148 O147 1.232 . S
C148 O149 1.218 . S
O149 C148 1.218 . S
C150 O143 1.275 . S
C150 O145 1.255 . S
C151 O152 1.258 . S
C151 O153 1.256 1_554 S
O152 Cd144 2.381 . S
O152 C151 1.258 . S
O153 Cd144 2.378 1_556 S
O153 C151 1.256 1_556 S
O154 Cd155 2.297 1_545 S
O154 C161 1.275 . S
Cd155 O154 2.297 1_565 S
Cd155 O163 2.387 . S
Cd155 O164 2.384 . S
O156 Cd157 2.385 . S
O156 C161 1.255 . S
Cd157 O156 2.385 . S
Cd157 O158 2.317 . S
O158 Cd157 2.317 . S
O158 C159 1.232 . S
C159 O158 1.232 . S
C159 O160 1.218 . S
O160 C159 1.218 . S
C161 O154 1.275 . S
C161 O156 1.255 . S
C162 O163 1.258 . S
C162 O164 1.256 . S
O163 Cd155 2.387 . S
O163 C162 1.258 . S
O164 Cd155 2.384 . S
O164 C162 1.256 . S
O165 Cd166 2.300 1_556 S
O165 C172 1.275 . S
Cd166 O165 2.300 1_554 S
Cd166 O174 2.381 1_554 S
Cd166 O175 2.378 . S
O167 Cd168 2.385 1_556 S
O167 C172 1.255 . S
Cd168 O167 2.385 1_554 S
Cd168 O169 2.317 . S
O169 Cd168 2.317 . S
O169 C170 1.232 . S
C170 O169 1.232 . S
C170 O171 1.218 . S
O171 C170 1.218 . S
C172 O165 1.275 . S
C172 O167 1.255 . S
C173 O174 1.258 1_554 S
C173 O175 1.256 . S
O174 Cd166 2.381 1_556 S
O174 C173 1.258 1_556 S
O175 Cd166 2.378 . S
O175 C173 1.256 . S
H176 C184 0.929 . S
H177 C186 0.930 . S
H178 C188 0.930 . S
H179 C191 0.929 . S
H180 C194 0.930 . S
H181 C196 0.960 . S
H182 C196 0.960 . S
H183 C196 0.960 . S
C184 H176 0.929 . S
C184 C185 1.377 . S
C184 C186 1.384 . S
C185 C184 1.377 . S
C185 C191 1.390 . S
C186 H177 0.930 . S
C186 C184 1.384 . S
C186 C187 1.372 . S
C187 C186 1.372 . S
C187 C188 1.400 . S
C187 C192 1.490 . S
C188 H178 0.930 . S
C188 C187 1.400 . S
C188 C191 1.386 . S
H189 C205 0.930 . S
H190 C206 0.931 . S
C191 H179 0.929 . S
C191 C185 1.390 . S
C191 C188 1.386 . S
C192 C187 1.490 . S
C192 C194 1.395 . S
C192 C195 1.403 . S
H193 C199 0.930 . S
C194 H180 0.930 . S
C194 C192 1.395 . S
C194 C197 1.403 . S
C195 C192 1.403 . S
C195 C196 1.524 . S
C195 C199 1.400 . S
C196 H181 0.960 . S
C196 H182 0.960 . S
C196 H183 0.960 . S
C196 C195 1.524 . S
C197 C194 1.403 . S
C197 C198 1.392 . S
C197 C201 1.495 . S
C198 C197 1.392 . S
C198 C199 1.385 . S
C198 C200 1.478 . S
C199 H193 0.930 . S
C199 C195 1.400 . S
C199 C198 1.385 . S
C200 C198 1.478 . S
C200 C202 1.381 . S
C200 C206 1.383 . S
C201 C197 1.495 . S
C201 H207 0.959 . S
C201 H208 0.961 . S
C201 H209 0.960 . S
C202 C200 1.381 . S
C202 C203 1.394 . S
C202 H210 0.930 . S
C203 C202 1.394 . S
C203 C204 1.383 . S
C203 H211 0.929 . S
C204 C203 1.383 . S
C204 C205 1.377 . S
C205 H189 0.930 . S
C205 C204 1.377 . S
C205 C206 1.379 . S
C206 H190 0.931 . S
C206 C200 1.383 . S
C206 C205 1.379 . S
H207 C201 0.959 . S
H208 C201 0.961 . S
H209 C201 0.960 . S
H210 C202 0.930 . S
H211 C203 0.929 . S
H212 C220 0.929 . S
H213 C222 0.930 . S
H214 C224 0.930 . S
H215 C227 0.929 . S
H216 C230 0.930 . S
H217 C232 0.960 . S
H218 C232 0.960 . S
H219 C232 0.960 . S
C220 H212 0.929 . S
C220 C221 1.377 . S
C220 C222 1.384 . S
C221 C220 1.377 . S
C221 C227 1.390 . S
C222 H213 0.930 . S
C222 C220 1.384 . S
C222 C223 1.372 . S
C223 C222 1.372 . S
C223 C224 1.400 . S
C223 C228 1.490 . S
C224 H214 0.930 . S
C224 C223 1.400 . S
C224 C227 1.386 . S
H225 C241 0.930 . S
H226 C242 0.931 . S
C227 H215 0.929 . S
C227 C221 1.390 . S
C227 C224 1.386 . S
C228 C223 1.490 . S
C228 C230 1.395 . S
C228 C231 1.403 . S
H229 C235 0.930 . S
C230 H216 0.930 . S
C230 C228 1.395 . S
C230 C233 1.403 . S
C231 C228 1.403 . S
C231 C232 1.524 . S
C231 C235 1.400 . S
C232 H217 0.960 . S
C232 H218 0.960 . S
C232 H219 0.960 . S
C232 C231 1.524 . S
C233 C230 1.403 . S
C233 C234 1.392 . S
C233 C237 1.495 . S
C234 C233 1.392 . S
C234 C235 1.385 . S
C234 C236 1.478 . S
C235 H229 0.930 . S
C235 C231 1.400 . S
C235 C234 1.385 . S
C236 C234 1.478 . S
C236 C238 1.381 . S
C236 C242 1.383 . S
C237 C233 1.495 . S
C237 H243 0.959 . S
C237 H244 0.961 . S
C237 H245 0.960 . S
C238 C236 1.381 . S
C238 C239 1.394 . S
C238 H246 0.930 . S
C239 C238 1.394 . S
C239 C240 1.383 . S
C239 H247 0.929 . S
C240 C239 1.383 . S
C240 C241 1.377 . S
C241 H225 0.930 . S
C241 C240 1.377 . S
C241 C242 1.379 . S
C242 H226 0.931 . S
C242 C236 1.383 . S
C242 C241 1.379 . S
H243 C237 0.959 . S
H244 C237 0.961 . S
H245 C237 0.960 . S
H246 C238 0.930 . S
H247 C239 0.929 . S
H248 C256 0.929 . S
H249 C258 0.930 . S
H250 C260 0.930 . S
H251 C263 0.929 . S
H252 C266 0.930 . S
H253 C268 0.960 . S
H254 C268 0.960 . S
H255 C268 0.960 . S
C256 H248 0.929 . S
C256 C257 1.377 . S
C256 C258 1.384 . S
C257 C256 1.377 . S
C257 C263 1.390 . S
C258 H249 0.930 . S
C258 C256 1.384 . S
C258 C259 1.372 . S
C259 C258 1.372 . S
C259 C260 1.400 . S
C259 C264 1.490 . S
C260 H250 0.930 . S
C260 C259 1.400 . S
C260 C263 1.386 . S
H261 C277 0.930 . S
H262 C278 0.931 . S
C263 H251 0.929 . S
C263 C257 1.390 . S
C263 C260 1.386 . S
C264 C259 1.490 . S
C264 C266 1.395 . S
C264 C267 1.403 . S
H265 C271 0.930 . S
C266 H252 0.930 . S
C266 C264 1.395 . S
C266 C269 1.403 . S
C267 C264 1.403 . S
C267 C268 1.524 . S
C267 C271 1.400 . S
C268 H253 0.960 . S
C268 H254 0.960 . S
C268 H255 0.960 . S
C268 C267 1.524 . S
C269 C266 1.403 . S
C269 C270 1.392 . S
C269 C273 1.495 . S
C270 C269 1.392 . S
C270 C271 1.385 . S
C270 C272 1.478 . S
C271 H265 0.930 . S
C271 C267 1.400 . S
C271 C270 1.385 . S
C272 C270 1.478 . S
C272 C274 1.381 . S
C272 C278 1.383 . S
C273 C269 1.495 . S
C273 H279 0.959 . S
C273 H280 0.961 . S
C273 H281 0.960 . S
C274 C272 1.381 . S
C274 C275 1.394 . S
C274 H282 0.930 . S
C275 C274 1.394 . S
C275 C276 1.383 . S
C275 H283 0.929 . S
C276 C275 1.383 . S
C276 C277 1.377 . S
C277 H261 0.930 . S
C277 C276 1.377 . S
C277 C278 1.379 . S
C278 H262 0.931 . S
C278 C272 1.383 . S
C278 C277 1.379 . S
H279 C273 0.959 . S
H280 C273 0.961 . S
H281 C273 0.960 . S
H282 C274 0.930 . S
H283 C275 0.929 . S
H284 C292 0.929 . S
H285 C294 0.930 . S
H286 C296 0.930 . S
H287 C299 0.929 . S
H288 C302 0.930 . S
H289 C304 0.960 . S
H290 C304 0.960 . S
H291 C304 0.960 . S
C292 H284 0.929 . S
C292 C293 1.377 . S
C292 C294 1.384 . S
C293 C292 1.377 . S
C293 C299 1.390 . S
C294 H285 0.930 . S
C294 C292 1.384 . S
C294 C295 1.372 . S
C295 C294 1.372 . S
C295 C296 1.400 . S
C295 C300 1.490 . S
C296 H286 0.930 . S
C296 C295 1.400 . S
C296 C299 1.386 . S
H297 C313 0.930 . S
H298 C314 0.931 . S
C299 H287 0.929 . S
C299 C293 1.390 . S
C299 C296 1.386 . S
C300 C295 1.490 . S
C300 C302 1.395 . S
C300 C303 1.403 . S
H301 C307 0.930 . S
C302 H288 0.930 . S
C302 C300 1.395 . S
C302 C305 1.403 . S
C303 C300 1.403 . S
C303 C304 1.524 . S
C303 C307 1.400 . S
C304 H289 0.960 . S
C304 H290 0.960 . S
C304 H291 0.960 . S
C304 C303 1.524 . S
C305 C302 1.403 . S
C305 C306 1.392 . S
C305 C309 1.495 . S
C306 C305 1.392 . S
C306 C307 1.385 . S
C306 C308 1.478 . S
C307 H301 0.930 . S
C307 C303 1.400 . S
C307 C306 1.385 . S
C308 C306 1.478 . S
C308 C310 1.381 . S
C308 C314 1.383 . S
C309 C305 1.495 . S
C309 H315 0.959 . S
C309 H316 0.961 . S
C309 H317 0.960 . S
C310 C308 1.381 . S
C310 C311 1.394 . S
C310 H318 0.930 . S
C311 C310 1.394 . S
C311 C312 1.383 . S
C311 H319 0.929 . S
C312 C311 1.383 . S
C312 C313 1.377 . S
C313 H297 0.930 . S
C313 C312 1.377 . S
C313 C314 1.379 . S
C314 H298 0.931 . S
C314 C308 1.383 . S
C314 C313 1.379 . S
H315 C309 0.959 . S
H316 C309 0.961 . S
H317 C309 0.960 . S
H318 C310 0.930 . S
H319 C311 0.929 . S
H320 C328 0.929 . S
H321 C330 0.930 . S
H322 C332 0.930 . S
H323 C335 0.929 . S
H324 C338 0.930 . S
H325 C340 0.960 . S
H326 C340 0.960 . S
H327 C340 0.960 . S
C328 H320 0.929 . S
C328 C329 1.377 . S
C328 C330 1.384 . S
C329 C328 1.377 . S
C329 C335 1.390 . S
C330 H321 0.930 . S
C330 C328 1.384 . S
C330 C331 1.372 . S
C331 C330 1.372 . S
C331 C332 1.400 . S
C331 C336 1.490 . S
C332 H322 0.930 . S
C332 C331 1.400 . S
C332 C335 1.386 . S
H333 C349 0.930 . S
H334 C350 0.931 . S
C335 H323 0.929 . S
C335 C329 1.390 . S
C335 C332 1.386 . S
C336 C331 1.490 . S
C336 C338 1.395 . S
C336 C339 1.403 . S
H337 C343 0.930 . S
C338 H324 0.930 . S
C338 C336 1.395 . S
C338 C341 1.403 . S
C339 C336 1.403 . S
C339 C340 1.524 . S
C339 C343 1.400 . S
C340 H325 0.960 . S
C340 H326 0.960 . S
C340 H327 0.960 . S
C340 C339 1.524 . S
C341 C338 1.403 . S
C341 C342 1.392 . S
C341 C345 1.495 . S
C342 C341 1.392 . S
C342 C343 1.385 . S
C342 C344 1.478 . S
C343 H337 0.930 . S
C343 C339 1.400 . S
C343 C342 1.385 . S
C344 C342 1.478 . S
C344 C346 1.381 . S
C344 C350 1.383 . S
C345 C341 1.495 . S
C345 H351 0.959 . S
C345 H352 0.961 . S
C345 H353 0.960 . S
C346 C344 1.381 . S
C346 C347 1.394 . S
C346 H354 0.930 . S
C347 C346 1.394 . S
C347 C348 1.383 . S
C347 H355 0.929 . S
C348 C347 1.383 . S
C348 C349 1.377 . S
C349 H333 0.930 . S
C349 C348 1.377 . S
C349 C350 1.379 . S
C350 H334 0.931 . S
C350 C344 1.383 . S
C350 C349 1.379 . S
H351 C345 0.959 . S
H352 C345 0.961 . S
H353 C345 0.960 . S
H354 C346 0.930 . S
H355 C347 0.929 . S
H356 C364 0.929 . S
H357 C366 0.930 . S
H358 C368 0.930 . S
H359 C371 0.929 . S
H360 C374 0.930 . S
H361 C376 0.960 . S
H362 C376 0.960 . S
H363 C376 0.960 . S
C364 H356 0.929 . S
C364 C365 1.377 . S
C364 C366 1.384 . S
C365 C364 1.377 . S
C365 C371 1.390 . S
C366 H357 0.930 . S
C366 C364 1.384 . S
C366 C367 1.372 . S
C367 C366 1.372 . S
C367 C368 1.400 . S
C367 C372 1.490 . S
C368 H358 0.930 . S
C368 C367 1.400 . S
C368 C371 1.386 . S
H369 C385 0.930 . S
H370 C386 0.931 . S
C371 H359 0.929 . S
C371 C365 1.390 . S
C371 C368 1.386 . S
C372 C367 1.490 . S
C372 C374 1.395 . S
C372 C375 1.403 . S
H373 C379 0.930 . S
C374 H360 0.930 . S
C374 C372 1.395 . S
C374 C377 1.403 . S
C375 C372 1.403 . S
C375 C376 1.524 . S
C375 C379 1.400 . S
C376 H361 0.960 . S
C376 H362 0.960 . S
C376 H363 0.960 . S
C376 C375 1.524 . S
C377 C374 1.403 . S
C377 C378 1.392 . S
C377 C381 1.495 . S
C378 C377 1.392 . S
C378 C379 1.385 . S
C378 C380 1.478 . S
C379 H373 0.930 . S
C379 C375 1.400 . S
C379 C378 1.385 . S
C380 C378 1.478 . S
C380 C382 1.381 . S
C380 C386 1.383 . S
C381 C377 1.495 . S
C381 H387 0.959 . S
C381 H388 0.961 . S
C381 H389 0.960 . S
C382 C380 1.381 . S
C382 C383 1.394 . S
C382 H390 0.930 . S
C383 C382 1.394 . S
C383 C384 1.383 . S
C383 H391 0.929 . S
C384 C383 1.383 . S
C384 C385 1.377 . S
C385 H369 0.930 . S
C385 C384 1.377 . S
C385 C386 1.379 . S
C386 H370 0.931 . S
C386 C380 1.383 . S
C386 C385 1.379 . S
H387 C381 0.959 . S
H388 C381 0.961 . S
H389 C381 0.960 . S
H390 C382 0.930 . S
H391 C383 0.929 . S
H392 C400 0.929 . S
H393 C402 0.930 . S
H394 C404 0.930 . S
H395 C407 0.929 . S
H396 C410 0.930 . S
H397 C412 0.960 . S
H398 C412 0.960 . S
H399 C412 0.960 . S
C400 H392 0.929 . S
C400 C401 1.377 . S
C400 C402 1.384 . S
C401 C400 1.377 . S
C401 C407 1.390 . S
C402 H393 0.930 . S
C402 C400 1.384 . S
C402 C403 1.372 . S
C403 C402 1.372 . S
C403 C404 1.400 . S
C403 C408 1.490 . S
C404 H394 0.930 . S
C404 C403 1.400 . S
C404 C407 1.386 . S
H405 C421 0.930 . S
H406 C422 0.931 . S
C407 H395 0.929 . S
C407 C401 1.390 . S
C407 C404 1.386 . S
C408 C403 1.490 . S
C408 C410 1.395 . S
C408 C411 1.403 . S
H409 C415 0.930 . S
C410 H396 0.930 . S
C410 C408 1.395 . S
C410 C413 1.403 . S
C411 C408 1.403 . S
C411 C412 1.524 . S
C411 C415 1.400 . S
C412 H397 0.960 . S
C412 H398 0.960 . S
C412 H399 0.960 . S
C412 C411 1.524 . S
C413 C410 1.403 . S
C413 C414 1.392 . S
C413 C417 1.495 . S
C414 C413 1.392 . S
C414 C415 1.385 . S
C414 C416 1.478 . S
C415 H409 0.930 . S
C415 C411 1.400 . S
C415 C414 1.385 . S
C416 C414 1.478 . S
C416 C418 1.381 . S
C416 C422 1.383 . S
C417 C413 1.495 . S
C417 H423 0.959 . S
C417 H424 0.961 . S
C417 H425 0.960 . S
C418 C416 1.381 . S
C418 C419 1.394 . S
C418 H426 0.930 . S
C419 C418 1.394 . S
C419 C420 1.383 . S
C419 H427 0.929 . S
C420 C419 1.383 . S
C420 C421 1.377 . S
C421 H405 0.930 . S
C421 C420 1.377 . S
C421 C422 1.379 . S
C422 H406 0.931 . S
C422 C416 1.383 . S
C422 C421 1.379 . S
H423 C417 0.959 . S
H424 C417 0.961 . S
H425 C417 0.960 . S
H426 C418 0.930 . S
H427 C419 0.929 . S
H428 C436 0.929 . S
H429 C438 0.930 . S
H430 C440 0.930 . S
H431 C443 0.929 . S
H432 C446 0.930 . S
H433 C448 0.960 . S
H434 C448 0.960 . S
H435 C448 0.960 . S
C436 H428 0.929 . S
C436 C437 1.377 . S
C436 C438 1.384 . S
C437 C436 1.377 . S
C437 C443 1.390 . S
C438 H429 0.930 . S
C438 C436 1.384 . S
C438 C439 1.372 . S
C439 C438 1.372 . S
C439 C440 1.400 . S
C439 C444 1.490 . S
C440 H430 0.930 . S
C440 C439 1.400 . S
C440 C443 1.386 . S
H441 C457 0.930 . S
H442 C458 0.931 . S
C443 H431 0.929 . S
C443 C437 1.390 . S
C443 C440 1.386 . S
C444 C439 1.490 . S
C444 C446 1.395 . S
C444 C447 1.403 . S
H445 C451 0.930 . S
C446 H432 0.930 . S
C446 C444 1.395 . S
C446 C449 1.403 . S
C447 C444 1.403 . S
C447 C448 1.524 . S
C447 C451 1.400 . S
C448 H433 0.960 . S
C448 H434 0.960 . S
C448 H435 0.960 . S
C448 C447 1.524 . S
C449 C446 1.403 . S
C449 C450 1.392 . S
C449 C453 1.495 . S
C450 C449 1.392 . S
C450 C451 1.385 . S
C450 C452 1.478 . S
C451 H445 0.930 . S
C451 C447 1.400 . S
C451 C450 1.385 . S
C452 C450 1.478 . S
C452 C454 1.381 . S
C452 C458 1.383 . S
C453 C449 1.495 . S
C453 H459 0.959 . S
C453 H460 0.961 . S
C453 H461 0.960 . S
C454 C452 1.381 . S
C454 C455 1.394 . S
C454 H462 0.930 . S
C455 C454 1.394 . S
C455 C456 1.383 . S
C455 H463 0.929 . S
C456 C455 1.383 . S
C456 C457 1.377 . S
C457 H441 0.930 . S
C457 C456 1.377 . S
C457 C458 1.379 . S
C458 H442 0.931 . S
C458 C452 1.383 . S
C458 C457 1.379 . S
H459 C453 0.959 . S
H460 C453 0.961 . S
H461 C453 0.960 . S
H462 C454 0.930 . S
H463 C455 0.929 . S
H464 C472 0.929 . S
H465 C474 0.930 . S
H466 C476 0.930 . S
H467 C479 0.929 . S
H468 C482 0.930 . S
H469 C484 0.960 . S
H470 C484 0.960 . S
H471 C484 0.960 . S
C472 H464 0.929 . S
C472 C473 1.377 . S
C472 C474 1.384 . S
C473 C472 1.377 . S
C473 C479 1.390 . S
C474 H465 0.930 . S
C474 C472 1.384 . S
C474 C475 1.372 . S
C475 C474 1.372 . S
C475 C476 1.400 . S
C475 C480 1.490 . S
C476 H466 0.930 . S
C476 C475 1.400 . S
C476 C479 1.386 . S
H477 C493 0.930 . S
H478 C494 0.931 . S
C479 H467 0.929 . S
C479 C473 1.390 . S
C479 C476 1.386 . S
C480 C475 1.490 . S
C480 C482 1.395 . S
C480 C483 1.403 . S
H481 C487 0.930 . S
C482 H468 0.930 . S
C482 C480 1.395 . S
C482 C485 1.403 . S
C483 C480 1.403 . S
C483 C484 1.524 . S
C483 C487 1.400 . S
C484 H469 0.960 . S
C484 H470 0.960 . S
C484 H471 0.960 . S
C484 C483 1.524 . S
C485 C482 1.403 . S
C485 C486 1.392 . S
C485 C489 1.495 . S
C486 C485 1.392 . S
C486 C487 1.385 . S
C486 C488 1.478 . S
C487 H481 0.930 . S
C487 C483 1.400 . S
C487 C486 1.385 . S
C488 C486 1.478 . S
C488 C490 1.381 . S
C488 C494 1.383 . S
C489 C485 1.495 . S
C489 H495 0.959 . S
C489 H496 0.961 . S
C489 H497 0.960 . S
C490 C488 1.381 . S
C490 C491 1.394 . S
C490 H498 0.930 . S
C491 C490 1.394 . S
C491 C492 1.383 . S
C491 H499 0.929 . S
C492 C491 1.383 . S
C492 C493 1.377 . S
C493 H477 0.930 . S
C493 C492 1.377 . S
C493 C494 1.379 . S
C494 H478 0.931 . S
C494 C488 1.383 . S
C494 C493 1.379 . S
H495 C489 0.959 . S
H496 C489 0.961 . S
H497 C489 0.960 . S
H498 C490 0.930 . S
H499 C491 0.929 . S
H500 C508 0.929 . S
H501 C510 0.930 . S
H502 C512 0.930 . S
H503 C515 0.929 . S
H504 C518 0.930 . S
H505 C520 0.960 . S
H506 C520 0.960 . S
H507 C520 0.960 . S
C508 H500 0.929 . S
C508 C509 1.377 . S
C508 C510 1.384 . S
C509 C508 1.377 . S
C509 C515 1.390 . S
C510 H501 0.930 . S
C510 C508 1.384 . S
C510 C511 1.372 . S
C511 C510 1.372 . S
C511 C512 1.400 . S
C511 C516 1.490 . S
C512 H502 0.930 . S
C512 C511 1.400 . S
C512 C515 1.386 . S
H513 C529 0.930 . S
H514 C530 0.931 . S
C515 H503 0.929 . S
C515 C509 1.390 . S
C515 C512 1.386 . S
C516 C511 1.490 . S
C516 C518 1.395 . S
C516 C519 1.403 . S
H517 C523 0.930 . S
C518 H504 0.930 . S
C518 C516 1.395 . S
C518 C521 1.403 . S
C519 C516 1.403 . S
C519 C520 1.524 . S
C519 C523 1.400 . S
C520 H505 0.960 . S
C520 H506 0.960 . S
C520 H507 0.960 . S
C520 C519 1.524 . S
C521 C518 1.403 . S
C521 C522 1.392 . S
C521 C525 1.495 . S
C522 C521 1.392 . S
C522 C523 1.385 . S
C522 C524 1.478 . S
C523 H517 0.930 . S
C523 C519 1.400 . S
C523 C522 1.385 . S
C524 C522 1.478 . S
C524 C526 1.381 . S
C524 C530 1.383 . S
C525 C521 1.495 . S
C525 H531 0.959 . S
C525 H532 0.961 . S
C525 H533 0.960 . S
C526 C524 1.381 . S
C526 C527 1.394 . S
C526 H534 0.930 . S
C527 C526 1.394 . S
C527 C528 1.383 . S
C527 H535 0.929 . S
C528 C527 1.383 . S
C528 C529 1.377 . S
C529 H513 0.930 . S
C529 C528 1.377 . S
C529 C530 1.379 . S
C530 H514 0.931 . S
C530 C524 1.383 . S
C530 C529 1.379 . S
H531 C525 0.959 . S
H532 C525 0.961 . S
H533 C525 0.960 . S
H534 C526 0.930 . S
H535 C527 0.929 . S
H536 C544 0.929 . S
H537 C546 0.930 . S
H538 C548 0.930 . S
H539 C551 0.929 . S
H540 C554 0.930 . S
H541 C556 0.960 . S
H542 C556 0.960 . S
H543 C556 0.960 . S
C544 H536 0.929 . S
C544 C545 1.377 . S
C544 C546 1.384 . S
C545 C544 1.377 . S
C545 C551 1.390 . S
C546 H537 0.930 . S
C546 C544 1.384 . S
C546 C547 1.372 . S
C547 C546 1.372 . S
C547 C548 1.400 . S
C547 C552 1.490 . S
C548 H538 0.930 . S
C548 C547 1.400 . S
C548 C551 1.386 . S
H549 C565 0.930 . S
H550 C566 0.931 . S
C551 H539 0.929 . S
C551 C545 1.390 . S
C551 C548 1.386 . S
C552 C547 1.490 . S
C552 C554 1.395 . S
C552 C555 1.403 . S
H553 C559 0.930 . S
C554 H540 0.930 . S
C554 C552 1.395 . S
C554 C557 1.403 . S
C555 C552 1.403 . S
C555 C556 1.524 . S
C555 C559 1.400 . S
C556 H541 0.960 . S
C556 H542 0.960 . S
C556 H543 0.960 . S
C556 C555 1.524 . S
C557 C554 1.403 . S
C557 C558 1.392 . S
C557 C561 1.495 . S
C558 C557 1.392 . S
C558 C559 1.385 . S
C558 C560 1.478 . S
C559 H553 0.930 . S
C559 C555 1.400 . S
C559 C558 1.385 . S
C560 C558 1.478 . S
C560 C562 1.381 . S
C560 C566 1.383 . S
C561 C557 1.495 . S
C561 H567 0.959 . S
C561 H568 0.961 . S
C561 H569 0.960 . S
C562 C560 1.381 . S
C562 C563 1.394 . S
C562 H570 0.930 . S
C563 C562 1.394 . S
C563 C564 1.383 . S
C563 H571 0.929 . S
C564 C563 1.383 . S
C564 C565 1.377 . S
C565 H549 0.930 . S
C565 C564 1.377 . S
C565 C566 1.379 . S
C566 H550 0.931 . S
C566 C560 1.383 . S
C566 C565 1.379 . S
H567 C561 0.959 . S
H568 C561 0.961 . S
H569 C561 0.960 . S
H570 C562 0.930 . S
H571 C563 0.929 . S
H572 C580 0.929 . S
H573 C582 0.930 . S
H574 C584 0.930 . S
H575 C587 0.929 . S
H576 C590 0.930 . S
H577 C592 0.960 . S
H578 C592 0.960 . S
H579 C592 0.960 . S
C580 H572 0.929 . S
C580 C581 1.377 . S
C580 C582 1.384 . S
C581 C580 1.377 . S
C581 C587 1.390 . S
C582 H573 0.930 . S
C582 C580 1.384 . S
C582 C583 1.372 . S
C583 C582 1.372 . S
C583 C584 1.400 . S
C583 C588 1.490 . S
C584 H574 0.930 . S
C584 C583 1.400 . S
C584 C587 1.386 . S
H585 C601 0.930 . S
H586 C602 0.931 . S
C587 H575 0.929 . S
C587 C581 1.390 . S
C587 C584 1.386 . S
C588 C583 1.490 . S
C588 C590 1.395 . S
C588 C591 1.403 . S
H589 C595 0.930 . S
C590 H576 0.930 . S
C590 C588 1.395 . S
C590 C593 1.403 . S
C591 C588 1.403 . S
C591 C592 1.524 . S
C591 C595 1.400 . S
C592 H577 0.960 . S
C592 H578 0.960 . S
C592 H579 0.960 . S
C592 C591 1.524 . S
C593 C590 1.403 . S
C593 C594 1.392 . S
C593 C597 1.495 . S
C594 C593 1.392 . S
C594 C595 1.385 . S
C594 C596 1.478 . S
C595 H589 0.930 . S
C595 C591 1.400 . S
C595 C594 1.385 . S
C596 C594 1.478 . S
C596 C598 1.381 . S
C596 C602 1.383 . S
C597 C593 1.495 . S
C597 H603 0.959 . S
C597 H604 0.961 . S
C597 H605 0.960 . S
C598 C596 1.381 . S
C598 C599 1.394 . S
C598 H606 0.930 . S
C599 C598 1.394 . S
C599 C600 1.383 . S
C599 H607 0.929 . S
C600 C599 1.383 . S
C600 C601 1.377 . S
C601 H585 0.930 . S
C601 C600 1.377 . S
C601 C602 1.379 . S
C602 H586 0.931 . S
C602 C596 1.383 . S
C602 C601 1.379 . S
H603 C597 0.959 . S
H604 C597 0.961 . S
H605 C597 0.960 . S
H606 C598 0.930 . S
H607 C599 0.929 . S
H608 C616 0.929 . S
H609 C618 0.930 . S
H610 C620 0.930 . S
H611 C623 0.929 . S
H612 C626 0.930 . S
H613 C628 0.960 . S
H614 C628 0.960 . S
H615 C628 0.960 . S
C616 H608 0.929 . S
C616 C617 1.377 . S
C616 C618 1.384 . S
C617 C616 1.377 . S
C617 C623 1.390 . S
C618 H609 0.930 . S
C618 C616 1.384 . S
C618 C619 1.372 . S
C619 C618 1.372 . S
C619 C620 1.400 . S
C619 C624 1.490 . S
C620 H610 0.930 . S
C620 C619 1.400 . S
C620 C623 1.386 . S
H621 C637 0.930 . S
H622 C638 0.931 . S
C623 H611 0.929 . S
C623 C617 1.390 . S
C623 C620 1.386 . S
C624 C619 1.490 . S
C624 C626 1.395 . S
C624 C627 1.403 . S
H625 C631 0.930 . S
C626 H612 0.930 . S
C626 C624 1.395 . S
C626 C629 1.403 . S
C627 C624 1.403 . S
C627 C628 1.524 . S
C627 C631 1.400 . S
C628 H613 0.960 . S
C628 H614 0.960 . S
C628 H615 0.960 . S
C628 C627 1.524 . S
C629 C626 1.403 . S
C629 C630 1.392 . S
C629 C633 1.495 . S
C630 C629 1.392 . S
C630 C631 1.385 . S
C630 C632 1.478 . S
C631 H625 0.930 . S
C631 C627 1.400 . S
C631 C630 1.385 . S
C632 C630 1.478 . S
C632 C634 1.381 . S
C632 C638 1.383 . S
C633 C629 1.495 . S
C633 H639 0.959 . S
C633 H640 0.961 . S
C633 H641 0.960 . S
C634 C632 1.381 . S
C634 C635 1.394 . S
C634 H642 0.930 . S
C635 C634 1.394 . S
C635 C636 1.383 . S
C635 H643 0.929 . S
C636 C635 1.383 . S
C636 C637 1.377 . S
C637 H621 0.930 . S
C637 C636 1.377 . S
C637 C638 1.379 . S
C638 H622 0.931 . S
C638 C632 1.383 . S
C638 C637 1.379 . S
H639 C633 0.959 . S
H640 C633 0.961 . S
H641 C633 0.960 . S
H642 C634 0.930 . S
H643 C635 0.929 . S
H644 C652 0.929 . S
H645 C654 0.930 . S
H646 C656 0.930 . S
H647 C659 0.929 . S
H648 C662 0.930 . S
H649 C664 0.960 . S
H650 C664 0.960 . S
H651 C664 0.960 . S
C652 H644 0.929 . S
C652 C653 1.377 . S
C652 C654 1.384 . S
C653 C652 1.377 . S
C653 C659 1.390 . S
C654 H645 0.930 . S
C654 C652 1.384 . S
C654 C655 1.372 . S
C655 C654 1.372 . S
C655 C656 1.400 . S
C655 C660 1.490 . S
C656 H646 0.930 . S
C656 C655 1.400 . S
C656 C659 1.386 . S
H657 C673 0.930 . S
H658 C674 0.931 . S
C659 H647 0.929 . S
C659 C653 1.390 . S
C659 C656 1.386 . S
C660 C655 1.490 . S
C660 C662 1.395 . S
C660 C663 1.403 . S
H661 C667 0.930 . S
C662 H648 0.930 . S
C662 C660 1.395 . S
C662 C665 1.403 . S
C663 C660 1.403 . S
C663 C664 1.524 . S
C663 C667 1.400 . S
C664 H649 0.960 . S
C664 H650 0.960 . S
C664 H651 0.960 . S
C664 C663 1.524 . S
C665 C662 1.403 . S
C665 C666 1.392 . S
C665 C669 1.495 . S
C666 C665 1.392 . S
C666 C667 1.385 . S
C666 C668 1.478 . S
C667 H661 0.930 . S
C667 C663 1.400 . S
C667 C666 1.385 . S
C668 C666 1.478 . S
C668 C670 1.381 . S
C668 C674 1.383 . S
C669 C665 1.495 . S
C669 H675 0.959 . S
C669 H676 0.961 . S
C669 H677 0.960 . S
C670 C668 1.381 . S
C670 C671 1.394 . S
C670 H678 0.930 . S
C671 C670 1.394 . S
C671 C672 1.383 . S
C671 H679 0.929 . S
C672 C671 1.383 . S
C672 C673 1.377 . S
C673 H657 0.930 . S
C673 C672 1.377 . S
C673 C674 1.379 . S
C674 H658 0.931 . S
C674 C668 1.383 . S
C674 C673 1.379 . S
H675 C669 0.959 . S
H676 C669 0.961 . S
H677 C669 0.960 . S
H678 C670 0.930 . S
H679 C671 0.929 . S
H680 C688 0.929 . S
H681 C690 0.930 . S
H682 C692 0.930 . S
H683 C695 0.929 . S
H684 C698 0.930 . S
H685 C700 0.960 . S
H686 C700 0.960 . S
H687 C700 0.960 . S
C688 H680 0.929 . S
C688 C689 1.377 . S
C688 C690 1.384 . S
C689 C688 1.377 . S
C689 C695 1.390 . S
C690 H681 0.930 . S
C690 C688 1.384 . S
C690 C691 1.372 . S
C691 C690 1.372 . S
C691 C692 1.400 . S
C691 C696 1.490 . S
C692 H682 0.930 . S
C692 C691 1.400 . S
C692 C695 1.386 . S
H693 C709 0.930 . S
H694 C710 0.931 . S
C695 H683 0.929 . S
C695 C689 1.390 . S
C695 C692 1.386 . S
C696 C691 1.490 . S
C696 C698 1.395 . S
C696 C699 1.403 . S
H697 C703 0.930 . S
C698 H684 0.930 . S
C698 C696 1.395 . S
C698 C701 1.403 . S
C699 C696 1.403 . S
C699 C700 1.524 . S
C699 C703 1.400 . S
C700 H685 0.960 . S
C700 H686 0.960 . S
C700 H687 0.960 . S
C700 C699 1.524 . S
C701 C698 1.403 . S
C701 C702 1.392 . S
C701 C705 1.495 . S
C702 C701 1.392 . S
C702 C703 1.385 . S
C702 C704 1.478 . S
C703 H697 0.930 . S
C703 C699 1.400 . S
C703 C702 1.385 . S
C704 C702 1.478 . S
C704 C706 1.381 . S
C704 C710 1.383 . S
C705 C701 1.495 . S
C705 H711 0.959 . S
C705 H712 0.961 . S
C705 H713 0.960 . S
C706 C704 1.381 . S
C706 C707 1.394 . S
C706 H714 0.930 . S
C707 C706 1.394 . S
C707 C708 1.383 . S
C707 H715 0.929 . S
C708 C707 1.383 . S
C708 C709 1.377 . S
C709 H693 0.930 . S
C709 C708 1.377 . S
C709 C710 1.379 . S
C710 H694 0.931 . S
C710 C704 1.383 . S
C710 C709 1.379 . S
H711 C705 0.959 . S
H712 C705 0.961 . S
H713 C705 0.960 . S
H714 C706 0.930 . S
H715 C707 0.929 . S
H716 C724 0.929 . S
H717 C726 0.930 . S
H718 C728 0.930 . S
H719 C731 0.929 . S
H720 C734 0.930 . S
H721 C736 0.960 . S
H722 C736 0.960 . S
H723 C736 0.960 . S
C724 H716 0.929 . S
C724 C725 1.377 . S
C724 C726 1.384 . S
C725 C724 1.377 . S
C725 C731 1.390 . S
C726 H717 0.930 . S
C726 C724 1.384 . S
C726 C727 1.372 . S
C727 C726 1.372 . S
C727 C728 1.400 . S
C727 C732 1.490 . S
C728 H718 0.930 . S
C728 C727 1.400 . S
C728 C731 1.386 . S
H729 C745 0.930 . S
H730 C746 0.931 . S
C731 H719 0.929 . S
C731 C725 1.390 . S
C731 C728 1.386 . S
C732 C727 1.490 . S
C732 C734 1.395 . S
C732 C735 1.403 . S
H733 C739 0.930 . S
C734 H720 0.930 . S
C734 C732 1.395 . S
C734 C737 1.403 . S
C735 C732 1.403 . S
C735 C736 1.524 . S
C735 C739 1.400 . S
C736 H721 0.960 . S
C736 H722 0.960 . S
C736 H723 0.960 . S
C736 C735 1.524 . S
C737 C734 1.403 . S
C737 C738 1.392 . S
C737 C741 1.495 . S
C738 C737 1.392 . S
C738 C739 1.385 . S
C738 C740 1.478 . S
C739 H733 0.930 . S
C739 C735 1.400 . S
C739 C738 1.385 . S
C740 C738 1.478 . S
C740 C742 1.381 . S
C740 C746 1.383 . S
C741 C737 1.495 . S
C741 H747 0.959 . S
C741 H748 0.961 . S
C741 H749 0.960 . S
C742 C740 1.381 . S
C742 C743 1.394 . S
C742 H750 0.930 . S
C743 C742 1.394 . S
C743 C744 1.383 . S
C743 H751 0.929 . S
C744 C743 1.383 . S
C744 C745 1.377 . S
C745 H729 0.930 . S
C745 C744 1.377 . S
C745 C746 1.379 . S
C746 H730 0.931 . S
C746 C740 1.383 . S
C746 C745 1.379 . S
H747 C741 0.959 . S
H748 C741 0.961 . S
H749 C741 0.960 . S
H750 C742 0.930 . S
H751 C743 0.929 . S
H752 C760 0.929 . S
H753 C762 0.930 . S
H754 C764 0.930 . S
H755 C767 0.929 . S
H756 C770 0.930 . S
H757 C772 0.960 . S
H758 C772 0.960 . S
H759 C772 0.960 . S
C760 H752 0.929 . S
C760 C761 1.377 1_556 S
C760 C762 1.384 . S
C761 C760 1.377 1_554 S
C761 C767 1.390 . S
C762 H753 0.930 . S
C762 C760 1.384 . S
C762 C763 1.372 1_556 S
C763 C762 1.372 1_554 S
C763 C764 1.400 . S
C763 C768 1.490 . S
C764 H754 0.930 . S
C764 C763 1.400 . S
C764 C767 1.386 . S
H765 C781 0.930 . S
H766 C782 0.931 . S
C767 H755 0.929 . S
C767 C761 1.390 . S
C767 C764 1.386 . S
C768 C763 1.490 . S
C768 C770 1.395 1_554 S
C768 C771 1.403 . S
H769 C775 0.930 . S
C770 H756 0.930 . S
C770 C768 1.395 1_556 S
C770 C773 1.403 . S
C771 C768 1.403 . S
C771 C772 1.524 . S
C771 C775 1.400 . S
C772 H757 0.960 . S
C772 H758 0.960 . S
C772 H759 0.960 . S
C772 C771 1.524 . S
C773 C770 1.403 . S
C773 C774 1.392 1_556 S
C773 C777 1.495 . S
C774 C773 1.392 1_554 S
C774 C775 1.385 . S
C774 C776 1.478 . S
C775 H769 0.930 . S
C775 C771 1.400 . S
C775 C774 1.385 . S
C776 C774 1.478 . S
C776 C778 1.381 1_554 S
C776 C782 1.383 . S
C777 C773 1.495 . S
C777 H783 0.959 . S
C777 H784 0.961 . S
C777 H785 0.960 . S
C778 C776 1.381 1_556 S
C778 C779 1.394 . S
C778 H786 0.930 . S
C779 C778 1.394 . S
C779 C780 1.383 1_556 S
C779 H787 0.929 . S
C780 C779 1.383 1_554 S
C780 C781 1.377 . S
C781 H765 0.930 . S
C781 C780 1.377 . S
C781 C782 1.379 . S
C782 H766 0.931 . S
C782 C776 1.383 . S
C782 C781 1.379 . S
H783 C777 0.959 . S
H784 C777 0.961 . S
H785 C777 0.960 . S
H786 C778 0.930 . S
H787 C779 0.929 . S
H788 C796 0.929 . S
H789 C798 0.930 . S
H790 C800 0.930 . S
H791 C803 0.929 . S
H792 C806 0.930 . S
H793 C808 0.960 . S
H794 C808 0.960 . S
H795 C808 0.960 . S
C796 H788 0.929 . S
C796 C797 1.377 . S
C796 C798 1.384 . S
C797 C796 1.377 . S
C797 C803 1.390 . S
C798 H789 0.930 . S
C798 C796 1.384 . S
C798 C799 1.372 . S
C799 C798 1.372 . S
C799 C800 1.400 . S
C799 C804 1.490 . S
C800 H790 0.930 . S
C800 C799 1.400 . S
C800 C803 1.386 . S
H801 C817 0.930 . S
H802 C818 0.931 . S
C803 H791 0.929 . S
C803 C797 1.390 . S
C803 C800 1.386 . S
C804 C799 1.490 . S
C804 C806 1.395 . S
C804 C807 1.403 . S
H805 C811 0.930 . S
C806 H792 0.930 . S
C806 C804 1.395 . S
C806 C809 1.403 . S
C807 C804 1.403 . S
C807 C808 1.524 . S
C807 C811 1.400 . S
C808 H793 0.960 . S
C808 H794 0.960 . S
C808 H795 0.960 . S
C808 C807 1.524 . S
C809 C806 1.403 . S
C809 C810 1.392 . S
C809 C813 1.495 . S
C810 C809 1.392 . S
C810 C811 1.385 . S
C810 C812 1.478 . S
C811 H805 0.930 . S
C811 C807 1.400 . S
C811 C810 1.385 . S
C812 C810 1.478 . S
C812 C814 1.381 . S
C812 C818 1.383 . S
C813 C809 1.495 . S
C813 H819 0.959 . S
C813 H820 0.961 . S
C813 H821 0.960 . S
C814 C812 1.381 . S
C814 C815 1.394 . S
C814 H822 0.930 . S
C815 C814 1.394 . S
C815 C816 1.383 . S
C815 H823 0.929 . S
C816 C815 1.383 . S
C816 C817 1.377 . S
C817 H801 0.930 . S
C817 C816 1.377 . S
C817 C818 1.379 . S
C818 H802 0.931 . S
C818 C812 1.383 . S
C818 C817 1.379 . S
H819 C813 0.959 . S
H820 C813 0.961 . S
H821 C813 0.960 . S
H822 C814 0.930 . S
H823 C815 0.929 . S
H824 C832 0.929 . S
H825 C834 0.930 . S
H826 C836 0.930 . S
H827 C839 0.929 . S
H828 C842 0.932 . S
H829 C844 0.960 . S
H830 C844 0.960 . S
H831 C844 0.960 . S
C832 H824 0.929 . S
C832 C833 1.377 1_556 S
C832 C834 1.384 . S
C833 C832 1.377 1_554 S
C833 C839 1.390 . S
C834 H825 0.930 . S
C834 C832 1.384 . S
C834 C835 1.372 1_556 S
C835 C834 1.372 1_554 S
C835 C836 1.400 . S
C835 C840 1.490 . S
C836 H826 0.930 . S
C836 C835 1.400 . S
C836 C839 1.386 . S
H837 C853 0.930 . S
H838 C854 0.931 . S
C839 H827 0.929 . S
C839 C833 1.390 . S
C839 C836 1.386 . S
C840 C835 1.490 . S
C840 C842 1.395 . S
C840 C843 1.403 . S
H841 C847 0.930 . S
C842 H828 0.932 . S
C842 C840 1.395 . S
C842 C845 1.403 . S
C843 C840 1.403 . S
C843 C844 1.524 . S
C843 C847 1.400 . S
C844 H829 0.960 . S
C844 H830 0.960 . S
C844 H831 0.960 . S
C844 C843 1.524 . S
C845 C842 1.403 . S
C845 C846 1.392 . S
C845 C849 1.495 1_554 S
C846 C845 1.392 . S
C846 C847 1.385 . S
C846 C848 1.478 . S
C847 H841 0.930 . S
C847 C843 1.400 . S
C847 C846 1.385 . S
C848 C846 1.478 . S
C848 C850 1.381 1_554 S
C848 C854 1.383 . S
C849 C845 1.495 1_556 S
C849 H855 0.959 . S
C849 H856 0.961 1_556 S
C849 H857 0.960 . S
C850 C848 1.381 1_556 S
C850 C851 1.394 . S
C850 H858 0.930 . S
C851 C850 1.394 . S
C851 C852 1.383 1_556 S
C851 H859 0.929 . S
C852 C851 1.383 1_554 S
C852 C853 1.377 . S
C853 H837 0.930 . S
C853 C852 1.377 . S
C853 C854 1.379 . S
C854 H838 0.931 . S
C854 C848 1.383 . S
C854 C853 1.379 . S
H855 C849 0.959 . S
H856 C849 0.961 1_554 S
H857 C849 0.960 . S
H858 C850 0.930 . S
H859 C851 0.929 . S
H860 C868 0.929 . S
H861 C870 0.930 . S
H862 C872 0.930 . S
H863 C875 0.929 . S
H864 C878 0.930 . S
H865 C880 0.960 . S
H866 C880 0.960 . S
H867 C880 0.960 . S
C868 H860 0.929 . S
C868 C869 1.377 . S
C868 C870 1.384 . S
C869 C868 1.377 . S
C869 C875 1.390 . S
C870 H861 0.930 . S
C870 C868 1.384 . S
C870 C871 1.372 . S
C871 C870 1.372 . S
C871 C872 1.400 . S
C871 C876 1.490 . S
C872 H862 0.930 . S
C872 C871 1.400 . S
C872 C875 1.386 . S
H873 C889 0.930 . S
H874 C890 0.931 . S
C875 H863 0.929 . S
C875 C869 1.390 . S
C875 C872 1.386 . S
C876 C871 1.490 . S
C876 C878 1.395 . S
C876 C879 1.403 . S
H877 C883 0.930 . S
C878 H864 0.930 . S
C878 C876 1.395 . S
C878 C881 1.403 . S
C879 C876 1.403 . S
C879 C880 1.524 . S
C879 C883 1.400 . S
C880 H865 0.960 . S
C880 H866 0.960 . S
C880 H867 0.960 . S
C880 C879 1.524 . S
C881 C878 1.403 . S
C881 C882 1.392 . S
C881 C885 1.495 . S
C882 C881 1.392 . S
C882 C883 1.385 . S
C882 C884 1.478 . S
C883 H877 0.930 . S
C883 C879 1.400 . S
C883 C882 1.385 . S
C884 C882 1.478 . S
C884 C886 1.381 . S
C884 C890 1.383 . S
C885 C881 1.495 . S
C885 H891 0.959 . S
C885 H892 0.961 . S
C885 H893 0.960 . S
C886 C884 1.381 . S
C886 C887 1.394 . S
C886 H894 0.930 . S
C887 C886 1.394 . S
C887 C888 1.383 . S
C887 H895 0.929 . S
C888 C887 1.383 . S
C888 C889 1.377 . S
C889 H873 0.930 . S
C889 C888 1.377 . S
C889 C890 1.379 . S
C890 H874 0.931 . S
C890 C884 1.383 . S
C890 C889 1.379 . S
H891 C885 0.959 . S
H892 C885 0.961 . S
H893 C885 0.960 . S
H894 C886 0.930 . S
H895 C887 0.929 . S
H896 C904 0.929 . S
H897 C906 0.930 . S
H898 C908 0.930 . S
H899 C911 0.929 . S
H900 C914 0.930 . S
H901 C916 0.960 . S
H902 C916 0.960 . S
H903 C916 0.960 . S
C904 H896 0.929 . S
C904 C905 1.377 . S
C904 C906 1.384 . S
C905 C904 1.377 . S
C905 C911 1.390 . S
C906 H897 0.930 . S
C906 C904 1.384 . S
C906 C907 1.372 . S
C907 C906 1.372 . S
C907 C908 1.400 . S
C907 C912 1.490 . S
C908 H898 0.930 . S
C908 C907 1.400 . S
C908 C911 1.386 . S
H909 C925 0.930 . S
H910 C926 0.931 . S
C911 H899 0.929 . S
C911 C905 1.390 . S
C911 C908 1.386 . S
C912 C907 1.490 . S
C912 C914 1.395 . S
C912 C915 1.403 . S
H913 C919 0.930 . S
C914 H900 0.930 . S
C914 C912 1.395 . S
C914 C917 1.403 . S
C915 C912 1.403 . S
C915 C916 1.524 . S
C915 C919 1.400 . S
C916 H901 0.960 . S
C916 H902 0.960 . S
C916 H903 0.960 . S
C916 C915 1.524 . S
C917 C914 1.403 . S
C917 C918 1.392 . S
C917 C921 1.495 . S
C918 C917 1.392 . S
C918 C919 1.385 . S
C918 C920 1.478 . S
C919 H913 0.930 . S
C919 C915 1.400 . S
C919 C918 1.385 . S
C920 C918 1.478 . S
C920 C922 1.381 . S
C920 C926 1.383 . S
C921 C917 1.495 . S
C921 H927 0.959 . S
C921 H928 0.961 . S
C921 H929 0.960 . S
C922 C920 1.381 . S
C922 C923 1.394 . S
C922 H930 0.930 . S
C923 C922 1.394 . S
C923 C924 1.383 . S
C923 H931 0.929 . S
C924 C923 1.383 . S
C924 C925 1.377 . S
C925 H909 0.930 . S
C925 C924 1.377 . S
C925 C926 1.379 . S
C926 H910 0.931 . S
C926 C920 1.383 . S
C926 C925 1.379 . S
H927 C921 0.959 . S
H928 C921 0.961 . S
H929 C921 0.960 . S
H930 C922 0.930 . S
H931 C923 0.929 . S
H932 C940 0.929 . S
H933 C942 0.930 . S
H934 C944 0.930 . S
H935 C947 0.929 . S
H936 C950 0.930 . S
H937 C952 0.960 . S
H938 C952 0.960 . S
H939 C952 0.960 . S
C940 H932 0.929 . S
C940 C941 1.377 . S
C940 C942 1.384 . S
C941 C940 1.377 . S
C941 C947 1.390 1_554 S
C942 H933 0.930 . S
C942 C940 1.384 . S
C942 C943 1.372 . S
C943 C942 1.372 . S
C943 C944 1.400 1_554 S
C943 C948 1.490 . S
C944 H934 0.930 . S
C944 C943 1.400 1_556 S
C944 C947 1.386 . S
H945 C961 0.930 1_556 S
H946 C962 0.931 1_556 S
C947 H935 0.929 . S
C947 C941 1.390 1_556 S
C947 C944 1.386 . S
C948 C943 1.490 . S
C948 C950 1.395 . S
C948 C951 1.403 1_554 S
H949 C955 0.930 . S
C950 H936 0.930 . S
C950 C948 1.395 . S
C950 C953 1.403 . S
C951 C948 1.403 1_556 S
C951 C952 1.524 . S
C951 C955 1.400 . S
C952 H937 0.960 . S
C952 H938 0.960 . S
C952 H939 0.960 . S
C952 C951 1.524 . S
C953 C950 1.403 . S
C953 C954 1.392 . S
C953 C957 1.495 . S
C954 C953 1.392 . S
C954 C955 1.385 1_554 S
C954 C956 1.478 . S
C955 H949 0.930 . S
C955 C951 1.400 . S
C955 C954 1.385 1_556 S
C956 C954 1.478 . S
C956 C958 1.381 . S
C956 C962 1.383 . S
C957 C953 1.495 . S
C957 H963 0.959 . S
C957 H964 0.961 . S
C957 H965 0.960 . S
C958 C956 1.381 . S
C958 C959 1.394 . S
C958 H966 0.930 . S
C959 C958 1.394 . S
C959 C960 1.383 . S
C959 H967 0.929 . S
C960 C959 1.383 . S
C960 C961 1.377 . S
C961 H945 0.930 1_554 S
C961 C960 1.377 . S
C961 C962 1.379 . S
C962 H946 0.931 1_554 S
C962 C956 1.383 . S
C962 C961 1.379 . S
H963 C957 0.959 . S
H964 C957 0.961 . S
H965 C957 0.960 . S
H966 C958 0.930 . S
H967 C959 0.929 . S
H968 C976 0.929 . S
H969 C978 0.930 . S
H970 C980 0.930 . S
H971 C983 0.929 . S
H972 C986 0.930 . S
H973 C988 0.960 . S
H974 C988 0.960 . S
H975 C988 0.960 . S
C976 H968 0.929 . S
C976 C977 1.377 . S
C976 C978 1.384 . S
C977 C976 1.377 . S
C977 C983 1.390 . S
C978 H969 0.930 . S
C978 C976 1.384 . S
C978 C979 1.372 . S
C979 C978 1.372 . S
C979 C980 1.400 . S
C979 C984 1.490 . S
C980 H970 0.930 . S
C980 C979 1.400 . S
C980 C983 1.386 . S
H981 C997 0.930 . S
H982 C998 0.931 . S
C983 H971 0.929 . S
C983 C977 1.390 . S
C983 C980 1.386 . S
C984 C979 1.490 . S
C984 C986 1.395 . S
C984 C987 1.403 . S
H985 C991 0.930 . S
C986 H972 0.930 . S
C986 C984 1.395 . S
C986 C989 1.403 . S
C987 C984 1.403 . S
C987 C988 1.524 . S
C987 C991 1.400 . S
C988 H973 0.960 . S
C988 H974 0.960 . S
C988 H975 0.960 . S
C988 C987 1.524 . S
C989 C986 1.403 . S
C989 C990 1.392 . S
C989 C993 1.495 . S
C990 C989 1.392 . S
C990 C991 1.385 . S
C990 C992 1.478 . S
C991 H985 0.930 . S
C991 C987 1.400 . S
C991 C990 1.385 . S
C992 C990 1.478 . S
C992 C994 1.381 . S
C992 C998 1.383 . S
C993 C989 1.495 . S
C993 H999 0.959 . S
C993 H1000 0.961 . S
C993 H1001 0.960 . S
C994 C992 1.381 . S
C994 C995 1.394 . S
C994 H1002 0.930 . S
C995 C994 1.394 . S
C995 C996 1.383 . S
C995 H1003 0.929 . S
C996 C995 1.383 . S
C996 C997 1.377 . S
C997 H981 0.930 . S
C997 C996 1.377 . S
C997 C998 1.379 . S
C998 H982 0.931 . S
C998 C992 1.383 . S
C998 C997 1.379 . S
H999 C993 0.959 . S
H1000 C993 0.961 . S
H1001 C993 0.960 . S
H1002 C994 0.930 . S
H1003 C995 0.929 . S
H1004 C1012 0.929 . S
H1005 C1014 0.930 . S
H1006 C1016 0.930 . S
H1007 C1019 0.929 . S
H1008 C1022 0.930 . S
H1009 C1024 0.960 . S
H1010 C1024 0.960 . S
H1011 C1024 0.960 . S
C1012 H1004 0.929 . S
C1012 C1013 1.377 . S
C1012 C1014 1.384 . S
C1013 C1012 1.377 . S
C1013 C1019 1.390 1_554 S
C1014 H1005 0.930 . S
C1014 C1012 1.384 . S
C1014 C1015 1.372 . S
C1015 C1014 1.372 . S
C1015 C1016 1.400 1_554 S
C1015 C1020 1.490 . S
C1016 H1006 0.930 . S
C1016 C1015 1.400 1_556 S
C1016 C1019 1.386 . S
H1017 C1033 0.930 . S
H1018 C1034 0.931 . S
C1019 H1007 0.929 . S
C1019 C1013 1.390 1_556 S
C1019 C1016 1.386 . S
C1020 C1015 1.490 . S
C1020 C1022 1.395 . S
C1020 C1023 1.403 1_554 S
H1021 C1027 0.930 . S
C1022 H1008 0.930 . S
C1022 C1020 1.395 . S
C1022 C1025 1.403 . S
C1023 C1020 1.403 1_556 S
C1023 C1024 1.524 . S
C1023 C1027 1.400 . S
C1024 H1009 0.960 . S
C1024 H1010 0.960 . S
C1024 H1011 0.960 . S
C1024 C1023 1.524 . S
C1025 C1022 1.403 . S
C1025 C1026 1.392 . S
C1025 C1029 1.495 . S
C1026 C1025 1.392 . S
C1026 C1027 1.385 1_554 S
C1026 C1028 1.478 . S
C1027 H1021 0.930 . S
C1027 C1023 1.400 . S
C1027 C1026 1.385 1_556 S
C1028 C1026 1.478 . S
C1028 C1030 1.381 . S
C1028 C1034 1.383 1_554 S
C1029 C1025 1.495 . S
C1029 H1035 0.959 . S
C1029 H1036 0.961 . S
C1029 H1037 0.960 . S
C1030 C1028 1.381 . S
C1030 C1031 1.394 . S
C1030 H1038 0.930 . S
C1031 C1030 1.394 . S
C1031 C1032 1.383 . S
C1031 H1039 0.929 . S
C1032 C1031 1.383 . S
C1032 C1033 1.377 1_554 S
C1033 H1017 0.930 . S
C1033 C1032 1.377 1_556 S
C1033 C1034 1.379 . S
C1034 H1018 0.931 . S
C1034 C1028 1.383 1_556 S
C1034 C1033 1.379 . S
H1035 C1029 0.959 . S
H1036 C1029 0.961 . S
H1037 C1029 0.960 . S
H1038 C1030 0.930 . S
H1039 C1031 0.929 . S
C185 C5 1.430 . S
C204 C126 1.301 . S
C221 C31 1.492 . S
C240 C95 1.487 . S
C276 C106 1.432 . S
C257 C53 1.455 . S
C293 C71 1.384 . S
C312 C115 1.222 . S
C348 C150 1.443 . S
C329 C75 1.496 . S
C384 C159 1.312 . S
C365 C9 1.430 . S
C420 C170 1.274 . S
C401 C27 1.390 . S
C456 C139 1.448 . S
C437 C49 1.454 . S
C473 C51 1.431 . S
C492 C104 1.201 . S
C509 C72 1.497 . S
C528 C117 1.510 . S
C545 C6 1.457 . S
C564 C128 1.477 . S
C600 C93 1.147 . S
C581 C29 1.384 . S
C617 C28 1.492 . S
C636 C172 1.490 . S
C672 C137 1.135 . S
C653 C50 1.427 . S
C708 C148 1.229 . S
C689 C73 1.387 . S
C725 C7 1.456 . S
C744 C161 1.477 . S
C780 C96 1.510 . S
C761 C4 1.502 . S
C816 C107 1.503 . S
C797 C30 1.502 . S
C833 C52 1.503 . S
C852 C118 1.512 . S
C869 C70 1.503 . S
C888 C129 1.512 . S
C924 C140 1.477 . S
C905 C74 1.506 . S
C941 C8 1.502 . S
C960 C151 1.499 . S
C977 C26 1.506 . S
C996 C162 1.514 . S
C1013 C48 1.502 . S
C1032 C173 1.512 . S
