# Generated by pormake.
# Topology gar, (4,6)-cn, num edge types: 1
# Building blocks:
#     Node 0, Type 0, BuildingBlock: QUQFOY_clean_sbu_1, # of connection points: 4
#     Node 1, Type 0, BuildingBlock: QUQFOY_clean_sbu_1, # of connection points: 4
#     Node 2, Type 0, BuildingBlock: QUQFOY_clean_sbu_1, # of connection points: 4
#     Node 3, Type 0, BuildingBlock: QUQFOY_clean_sbu_1, # of connection points: 4
#     Node 4, Type 0, BuildingBlock: QUQFOY_clean_sbu_1, # of connection points: 4
#     Node 5, Type 0, BuildingBlock: QUQFOY_clean_sbu_1, # of connection points: 4
#     Node 6, Type 0, BuildingBlock: QUQFOY_clean_sbu_1, # of connection points: 4
#     Node 7, Type 0, BuildingBlock: QUQFOY_clean_sbu_1, # of connection points: 4
#     Node 8, Type 0, BuildingBlock: QUQFOY_clean_sbu_1, # of connection points: 4
#     Node 9, Type 0, BuildingBlock: QUQFOY_clean_sbu_1, # of connection points: 4
#     Node 10, Type 0, BuildingBlock: QUQFOY_clean_sbu_1, # of connection points: 4
#     Node 11, Type 0, BuildingBlock: QUQFOY_clean_sbu_1, # of connection points: 4
#     Node 12, Type 0, BuildingBlock: QUQFOY_clean_sbu_1, # of connection points: 4
#     Node 13, Type 0, BuildingBlock: QUQFOY_clean_sbu_1, # of connection points: 4
#     Node 14, Type 0, BuildingBlock: QUQFOY_clean_sbu_1, # of connection points: 4
#     Node 15, Type 0, BuildingBlock: QUQFOY_clean_sbu_1, # of connection points: 4
#     Node 16, Type 0, BuildingBlock: QUQFOY_clean_sbu_1, # of connection points: 4
#     Node 17, Type 0, BuildingBlock: QUQFOY_clean_sbu_1, # of connection points: 4
#     Node 18, Type 0, BuildingBlock: QUQFOY_clean_sbu_1, # of connection points: 4
#     Node 19, Type 0, BuildingBlock: QUQFOY_clean_sbu_1, # of connection points: 4
#     Node 20, Type 0, BuildingBlock: QUQFOY_clean_sbu_1, # of connection points: 4
#     Node 21, Type 0, BuildingBlock: QUQFOY_clean_sbu_1, # of connection points: 4
#     Node 22, Type 0, BuildingBlock: QUQFOY_clean_sbu_1, # of connection points: 4
#     Node 23, Type 0, BuildingBlock: QUQFOY_clean_sbu_1, # of connection points: 4
#     Node 24, Type 1, BuildingBlock: MIFKUJ_clean_sbu_0, # of connection points: 6
#     Node 25, Type 1, BuildingBlock: MIFKUJ_clean_sbu_0, # of connection points: 6
#     Node 26, Type 1, BuildingBlock: MIFKUJ_clean_sbu_0, # of connection points: 6
#     Node 27, Type 1, BuildingBlock: MIFKUJ_clean_sbu_0, # of connection points: 6
#     Node 28, Type 1, BuildingBlock: MIFKUJ_clean_sbu_0, # of connection points: 6
#     Node 29, Type 1, BuildingBlock: MIFKUJ_clean_sbu_0, # of connection points: 6
#     Node 30, Type 1, BuildingBlock: MIFKUJ_clean_sbu_0, # of connection points: 6
#     Node 31, Type 1, BuildingBlock: MIFKUJ_clean_sbu_0, # of connection points: 6
#     Node 32, Type 1, BuildingBlock: MIFKUJ_clean_sbu_0, # of connection points: 6
#     Node 33, Type 1, BuildingBlock: MIFKUJ_clean_sbu_0, # of connection points: 6
#     Node 34, Type 1, BuildingBlock: MIFKUJ_clean_sbu_0, # of connection points: 6
#     Node 35, Type 1, BuildingBlock: MIFKUJ_clean_sbu_0, # of connection points: 6
#     Node 36, Type 1, BuildingBlock: MIFKUJ_clean_sbu_0, # of connection points: 6
#     Node 37, Type 1, BuildingBlock: MIFKUJ_clean_sbu_0, # of connection points: 6
#     Node 38, Type 1, BuildingBlock: MIFKUJ_clean_sbu_0, # of connection points: 6
#     Node 39, Type 1, BuildingBlock: MIFKUJ_clean_sbu_0, # of connection points: 6
#     Edge 40, Type (0, 1), BuildingBlock: ZUJKAS_clean_linker_0, # of connection points: 2
#     Edge 41, Type (0, 1), BuildingBlock: ZUJKAS_clean_linker_0, # of connection points: 2
#     Edge 42, Type (0, 1), BuildingBlock: ZUJKAS_clean_linker_0, # of connection points: 2
#     Edge 43, Type (0, 1), BuildingBlock: ZUJKAS_clean_linker_0, # of connection points: 2
#     Edge 44, Type (0, 1), BuildingBlock: ZUJKAS_clean_linker_0, # of connection points: 2
#     Edge 45, Type (0, 1), BuildingBlock: ZUJKAS_clean_linker_0, # of connection points: 2
#     Edge 46, Type (0, 1), BuildingBlock: ZUJKAS_clean_linker_0, # of connection points: 2
#     Edge 47, Type (0, 1), BuildingBlock: ZUJKAS_clean_linker_0, # of connection points: 2
#     Edge 48, Type (0, 1), BuildingBlock: ZUJKAS_clean_linker_0, # of connection points: 2
#     Edge 49, Type (0, 1), BuildingBlock: ZUJKAS_clean_linker_0, # of connection points: 2
#     Edge 50, Type (0, 1), BuildingBlock: ZUJKAS_clean_linker_0, # of connection points: 2
#     Edge 51, Type (0, 1), BuildingBlock: ZUJKAS_clean_linker_0, # of connection points: 2
#     Edge 52, Type (0, 1), BuildingBlock: ZUJKAS_clean_linker_0, # of connection points: 2
#     Edge 53, Type (0, 1), BuildingBlock: ZUJKAS_clean_linker_0, # of connection points: 2
#     Edge 54, Type (0, 1), BuildingBlock: ZUJKAS_clean_linker_0, # of connection points: 2
#     Edge 55, Type (0, 1), BuildingBlock: ZUJKAS_clean_linker_0, # of connection points: 2
#     Edge 56, Type (0, 1), BuildingBlock: ZUJKAS_clean_linker_0, # of connection points: 2
#     Edge 57, Type (0, 1), BuildingBlock: ZUJKAS_clean_linker_0, # of connection points: 2
#     Edge 58, Type (0, 1), BuildingBlock: ZUJKAS_clean_linker_0, # of connection points: 2
#     Edge 59, Type (0, 1), BuildingBlock: ZUJKAS_clean_linker_0, # of connection points: 2
#     Edge 60, Type (0, 1), BuildingBlock: ZUJKAS_clean_linker_0, # of connection points: 2
#     Edge 61, Type (0, 1), BuildingBlock: ZUJKAS_clean_linker_0, # of connection points: 2
#     Edge 62, Type (0, 1), BuildingBlock: ZUJKAS_clean_linker_0, # of connection points: 2
#     Edge 63, Type (0, 1), BuildingBlock: ZUJKAS_clean_linker_0, # of connection points: 2
#     Edge 64, Type (0, 1), BuildingBlock: ZUJKAS_clean_linker_0, # of connection points: 2
#     Edge 65, Type (0, 1), BuildingBlock: ZUJKAS_clean_linker_0, # of connection points: 2
#     Edge 66, Type (0, 1), BuildingBlock: ZUJKAS_clean_linker_0, # of connection points: 2
#     Edge 67, Type (0, 1), BuildingBlock: ZUJKAS_clean_linker_0, # of connection points: 2
#     Edge 68, Type (0, 1), BuildingBlock: ZUJKAS_clean_linker_0, # of connection points: 2
#     Edge 69, Type (0, 1), BuildingBlock: ZUJKAS_clean_linker_0, # of connection points: 2
#     Edge 70, Type (0, 1), BuildingBlock: ZUJKAS_clean_linker_0, # of connection points: 2
#     Edge 71, Type (0, 1), BuildingBlock: ZUJKAS_clean_linker_0, # of connection points: 2
#     Edge 72, Type (0, 1), BuildingBlock: ZUJKAS_clean_linker_0, # of connection points: 2
#     Edge 73, Type (0, 1), BuildingBlock: ZUJKAS_clean_linker_0, # of connection points: 2
#     Edge 74, Type (0, 1), BuildingBlock: ZUJKAS_clean_linker_0, # of connection points: 2
#     Edge 75, Type (0, 1), BuildingBlock: ZUJKAS_clean_linker_0, # of connection points: 2
#     Edge 76, Type (0, 1), BuildingBlock: ZUJKAS_clean_linker_0, # of connection points: 2
#     Edge 77, Type (0, 1), BuildingBlock: ZUJKAS_clean_linker_0, # of connection points: 2
#     Edge 78, Type (0, 1), BuildingBlock: ZUJKAS_clean_linker_0, # of connection points: 2
#     Edge 79, Type (0, 1), BuildingBlock: ZUJKAS_clean_linker_0, # of connection points: 2
#     Edge 80, Type (0, 1), BuildingBlock: ZUJKAS_clean_linker_0, # of connection points: 2
#     Edge 81, Type (0, 1), BuildingBlock: ZUJKAS_clean_linker_0, # of connection points: 2
#     Edge 82, Type (0, 1), BuildingBlock: ZUJKAS_clean_linker_0, # of connection points: 2
#     Edge 83, Type (0, 1), BuildingBlock: ZUJKAS_clean_linker_0, # of connection points: 2
#     Edge 84, Type (0, 1), BuildingBlock: ZUJKAS_clean_linker_0, # of connection points: 2
#     Edge 85, Type (0, 1), BuildingBlock: ZUJKAS_clean_linker_0, # of connection points: 2
#     Edge 86, Type (0, 1), BuildingBlock: ZUJKAS_clean_linker_0, # of connection points: 2
#     Edge 87, Type (0, 1), BuildingBlock: ZUJKAS_clean_linker_0, # of connection points: 2
#     Edge 88, Type (0, 1), BuildingBlock: ZUJKAS_clean_linker_0, # of connection points: 2
#     Edge 89, Type (0, 1), BuildingBlock: ZUJKAS_clean_linker_0, # of connection points: 2
#     Edge 90, Type (0, 1), BuildingBlock: ZUJKAS_clean_linker_0, # of connection points: 2
#     Edge 91, Type (0, 1), BuildingBlock: ZUJKAS_clean_linker_0, # of connection points: 2
#     Edge 92, Type (0, 1), BuildingBlock: ZUJKAS_clean_linker_0, # of connection points: 2
#     Edge 93, Type (0, 1), BuildingBlock: ZUJKAS_clean_linker_0, # of connection points: 2
#     Edge 94, Type (0, 1), BuildingBlock: ZUJKAS_clean_linker_0, # of connection points: 2
#     Edge 95, Type (0, 1), BuildingBlock: ZUJKAS_clean_linker_0, # of connection points: 2
#     Edge 96, Type (0, 1), BuildingBlock: ZUJKAS_clean_linker_0, # of connection points: 2
#     Edge 97, Type (0, 1), BuildingBlock: ZUJKAS_clean_linker_0, # of connection points: 2
#     Edge 98, Type (0, 1), BuildingBlock: ZUJKAS_clean_linker_0, # of connection points: 2
#     Edge 99, Type (0, 1), BuildingBlock: ZUJKAS_clean_linker_0, # of connection points: 2
#     Edge 100, Type (0, 1), BuildingBlock: ZUJKAS_clean_linker_0, # of connection points: 2
#     Edge 101, Type (0, 1), BuildingBlock: ZUJKAS_clean_linker_0, # of connection points: 2
#     Edge 102, Type (0, 1), BuildingBlock: ZUJKAS_clean_linker_0, # of connection points: 2
#     Edge 103, Type (0, 1), BuildingBlock: ZUJKAS_clean_linker_0, # of connection points: 2
#     Edge 104, Type (0, 1), BuildingBlock: ZUJKAS_clean_linker_0, # of connection points: 2
#     Edge 105, Type (0, 1), BuildingBlock: ZUJKAS_clean_linker_0, # of connection points: 2
#     Edge 106, Type (0, 1), BuildingBlock: ZUJKAS_clean_linker_0, # of connection points: 2
#     Edge 107, Type (0, 1), BuildingBlock: ZUJKAS_clean_linker_0, # of connection points: 2
#     Edge 108, Type (0, 1), BuildingBlock: ZUJKAS_clean_linker_0, # of connection points: 2
#     Edge 109, Type (0, 1), BuildingBlock: ZUJKAS_clean_linker_0, # of connection points: 2
#     Edge 110, Type (0, 1), BuildingBlock: ZUJKAS_clean_linker_0, # of connection points: 2
#     Edge 111, Type (0, 1), BuildingBlock: ZUJKAS_clean_linker_0, # of connection points: 2
#     Edge 112, Type (0, 1), BuildingBlock: ZUJKAS_clean_linker_0, # of connection points: 2
#     Edge 113, Type (0, 1), BuildingBlock: ZUJKAS_clean_linker_0, # of connection points: 2
#     Edge 114, Type (0, 1), BuildingBlock: ZUJKAS_clean_linker_0, # of connection points: 2
#     Edge 115, Type (0, 1), BuildingBlock: ZUJKAS_clean_linker_0, # of connection points: 2
#     Edge 116, Type (0, 1), BuildingBlock: ZUJKAS_clean_linker_0, # of connection points: 2
#     Edge 117, Type (0, 1), BuildingBlock: ZUJKAS_clean_linker_0, # of connection points: 2
#     Edge 118, Type (0, 1), BuildingBlock: ZUJKAS_clean_linker_0, # of connection points: 2
#     Edge 119, Type (0, 1), BuildingBlock: ZUJKAS_clean_linker_0, # of connection points: 2
#     Edge 120, Type (0, 1), BuildingBlock: ZUJKAS_clean_linker_0, # of connection points: 2
#     Edge 121, Type (0, 1), BuildingBlock: ZUJKAS_clean_linker_0, # of connection points: 2
#     Edge 122, Type (0, 1), BuildingBlock: ZUJKAS_clean_linker_0, # of connection points: 2
#     Edge 123, Type (0, 1), BuildingBlock: ZUJKAS_clean_linker_0, # of connection points: 2
#     Edge 124, Type (0, 1), BuildingBlock: ZUJKAS_clean_linker_0, # of connection points: 2
#     Edge 125, Type (0, 1), BuildingBlock: ZUJKAS_clean_linker_0, # of connection points: 2
#     Edge 126, Type (0, 1), BuildingBlock: ZUJKAS_clean_linker_0, # of connection points: 2
#     Edge 127, Type (0, 1), BuildingBlock: ZUJKAS_clean_linker_0, # of connection points: 2
#     Edge 128, Type (0, 1), BuildingBlock: ZUJKAS_clean_linker_0, # of connection points: 2
#     Edge 129, Type (0, 1), BuildingBlock: ZUJKAS_clean_linker_0, # of connection points: 2
#     Edge 130, Type (0, 1), BuildingBlock: ZUJKAS_clean_linker_0, # of connection points: 2
#     Edge 131, Type (0, 1), BuildingBlock: ZUJKAS_clean_linker_0, # of connection points: 2
#     Edge 132, Type (0, 1), BuildingBlock: ZUJKAS_clean_linker_0, # of connection points: 2
#     Edge 133, Type (0, 1), BuildingBlock: ZUJKAS_clean_linker_0, # of connection points: 2
#     Edge 134, Type (0, 1), BuildingBlock: ZUJKAS_clean_linker_0, # of connection points: 2
#     Edge 135, Type (0, 1), BuildingBlock: ZUJKAS_clean_linker_0, # of connection points: 2
# Relax obj value: 0.111
# Max RMSD: 0.274
# Mean RMSD: 0.168
data_MOF--net-gar--node1-QUQFOY_clean_sbu_1--node2-MIFKUJ_clean_sbu_0--edge1-ZUJKAS_clean_linker_0
_symmetry_space_group_name_H-M    P1
_symmetry_Int_Tables_number       1
_symmetry_cell_setting            triclinic
loop_
_symmetry_equiv_pos_as_xyz
'x, y, z'
_cell_length_a     73.301125
_cell_length_b     73.314198
_cell_length_c     70.880426
_cell_angle_alpha  94.863492
_cell_angle_beta   94.856783
_cell_angle_gamma 101.2167
loop_
_atom_site_label
_atom_site_type_symbol
_atom_site_fract_x
_atom_site_fract_y
_atom_site_fract_z
_atom_type_partial_charge
O0 O 0.01532 0.227 0.39679 0.0
Cd1 Cd 0.01762 0.24757 0.37839 0.0
Cd2 Cd 0.00997 0.26888 0.41099 0.0
O3 O 0.01267 0.24475 0.42271 0.0
O4 O 0.03019 0.23781 0.35701 0.0
O5 O 0.04298 0.26325 0.37629 0.0
C6 C 0.04424 0.25143 0.36209 0.0
C7 C 0.02052 0.29641 0.43135 0.0
C8 C 0.01402 0.22905 0.41457 0.0
C9 C 0.98263 0.26308 0.37524 0.0
O10 O 0.98647 0.2689 0.3928 0.0
O11 O 0.99363 0.25479 0.36647 0.0
O12 O 0.00591 0.2844 0.43401 0.0
O13 O 0.02943 0.29284 0.41698 0.0
O14 O 0.98737 0.71261 0.62919 0.0
Cd15 Cd 0.99376 0.73465 0.65046 0.0
Cd16 Cd 0.01018 0.75357 0.62293 0.0
O17 O 0.99951 0.72854 0.60664 0.0
O18 O 0.97636 0.72895 0.67022 0.0
O19 O 0.97689 0.75309 0.65336 0.0
C20 C 0.9698 0.74348 0.66642 0.0
C21 C 0.00763 0.78064 0.60858 0.0
C22 C 0.99101 0.71336 0.61202 0.0
C23 C 0.035 0.74867 0.6577 0.0
O24 O 0.03375 0.755 0.64159 0.0
O25 O 0.02045 0.74024 0.66428 0.0
O26 O 0.01938 0.77056 0.6038 0.0
O27 O 0.99716 0.77535 0.62169 0.0
O28 O 0.55338 0.7571 0.88219 0.0
Cd29 Cd 0.53499 0.76107 0.90207 0.0
Cd30 Cd 0.52306 0.78152 0.87354 0.0
O31 O 0.54469 0.77409 0.86006 0.0
O32 O 0.54179 0.74611 0.92265 0.0
O33 O 0.5142 0.73946 0.90564 0.0
C34 C 0.52537 0.73568 0.91917 0.0
C35 C 0.49296 0.77532 0.85814 0.0
C36 C 0.55526 0.76359 0.86623 0.0
C37 C 0.53454 0.80209 0.91221 0.0
O38 O 0.52907 0.8031 0.89494 0.0
O39 O 0.53741 0.78673 0.91765 0.0
O40 O 0.50539 0.78926 0.85448 0.0
O41 O 0.4978 0.76446 0.87025 0.0
O42 O 0.48684 0.21122 0.12058 0.0
Cd43 Cd 0.49334 0.23395 0.14108 0.0
Cd44 Cd 0.51206 0.2503 0.11381 0.0
O45 O 0.50259 0.22454 0.09849 0.0
O46 O 0.47469 0.22939 0.1599 0.0
O47 O 0.47701 0.25305 0.14223 0.0
C48 C 0.4688 0.24397 0.15505 0.0
C49 C 0.50822 0.27705 0.09961 0.0
C50 C 0.49239 0.21036 0.10407 0.0
C51 C 0.53471 0.24707 0.15036 0.0
O52 O 0.5346 0.25278 0.13392 0.0
O53 O 0.51954 0.23913 0.15625 0.0
O54 O 0.52075 0.26785 0.09494 0.0
O55 O 0.49764 0.2709 0.11234 0.0
O56 O 0.01605 0.73788 0.13856 0.0
Cd57 Cd 0.01811 0.75992 0.15928 0.0
Cd58 Cd 0.03708 0.77917 0.13356 0.0
O59 O 0.03356 0.75299 0.11873 0.0
O60 O 0.99976 0.75063 0.17719 0.0
O61 O 0.99772 0.77469 0.16088 0.0
C62 C 0.99106 0.76367 0.17304 0.0
C63 C 0.02864 0.80326 0.11745 0.0
C64 C 0.024 0.73791 0.1233 0.0
C65 C 0.05774 0.77956 0.17203 0.0
O66 O 0.05795 0.78604 0.15596 0.0
O67 O 0.04325 0.76858 0.17605 0.0
O68 O 0.04398 0.79766 0.11503 0.0
O69 O 0.01791 0.79509 0.1291 0.0
O70 O 0.54596 0.75527 0.38381 0.0
Cd71 Cd 0.52687 0.75335 0.40371 0.0
Cd72 Cd 0.50441 0.7627 0.37273 0.0
O73 O 0.52787 0.76066 0.3593 0.0
O74 O 0.53752 0.73964 0.42358 0.0
O75 O 0.51047 0.72845 0.4062 0.0
C76 C 0.52313 0.72625 0.41917 0.0
C77 C 0.4759 0.75338 0.35363 0.0
C78 C 0.54349 0.75795 0.36639 0.0
C79 C 0.51255 0.78867 0.40985 0.0
O80 O 0.5052 0.78509 0.39271 0.0
O81 O 0.52172 0.77759 0.4173 0.0
O82 O 0.48754 0.76848 0.35163 0.0
O83 O 0.48051 0.74318 0.3665 0.0
O84 O 0.51605 0.23678 0.64182 0.0
Cd85 Cd 0.51898 0.25988 0.6615 0.0
Cd86 Cd 0.53714 0.27697 0.63386 0.0
O87 O 0.53067 0.25056 0.61929 0.0
O88 O 0.50195 0.25114 0.68081 0.0
O89 O 0.49822 0.27417 0.66362 0.0
C90 C 0.49257 0.26363 0.67655 0.0
C91 C 0.52845 0.30169 0.61904 0.0
C92 C 0.52196 0.2359 0.62547 0.0
C93 C 0.55965 0.27795 0.67142 0.0
O94 O 0.55975 0.28247 0.65449 0.0
O95 O 0.54469 0.26924 0.67706 0.0
O96 O 0.54267 0.29492 0.61452 0.0
O97 O 0.51909 0.29437 0.63216 0.0
O98 O 0.01214 0.21535 0.89833 0.0
Cd99 Cd 0.01016 0.23384 0.8781 0.0
Cd100 Cd 0.99221 0.24951 0.90637 0.0
O101 O 0.99899 0.22846 0.92133 0.0
O102 O 0.02646 0.22686 0.85884 0.0
O103 O 0.03209 0.25457 0.87556 0.0
C104 C 0.03683 0.24331 0.86272 0.0
C105 C 0.99812 0.27999 0.92102 0.0
C106 C 0.00703 0.21566 0.91505 0.0
C107 C 0.97024 0.23669 0.86805 0.0
O108 O 0.9702 0.24309 0.88526 0.0
O109 O 0.98494 0.23252 0.86217 0.0
O110 O 0.98418 0.26764 0.92475 0.0
O111 O 0.00919 0.27489 0.90927 0.0
O112 O 0.3992 0.02931 0.23168 0.0
Cd113 Cd 0.37781 0.02795 0.24893 0.0
Cd114 Cd 0.40501 0.02068 0.27616 0.0
O115 O 0.42056 0.02444 0.25346 0.0
O116 O 0.35879 0.03966 0.23569 0.0
O117 O 0.37381 0.05102 0.26395 0.0
C118 C 0.3616 0.05223 0.25007 0.0
C119 C 0.42256 0.0314 0.3055 0.0
C120 C 0.41581 0.02762 0.23661 0.0
C121 C 0.36923 0.99149 0.26571 0.0
O122 O 0.38499 0.99644 0.2756 0.0
O123 O 0.36371 0.00212 0.2542 0.0
O124 O 0.42438 0.01644 0.29562 0.0
O125 O 0.41034 0.04038 0.29887 0.0
O126 O 0.2727 0.13895 0.53766 0.0
Cd127 Cd 0.26997 0.11985 0.51389 0.0
Cd128 Cd 0.25501 0.14749 0.49709 0.0
O129 O 0.26128 0.16103 0.52432 0.0
O130 O 0.2843 0.10095 0.52231 0.0
O131 O 0.29192 0.11806 0.4989 0.0
C132 C 0.29531 0.10533 0.50945 0.0
C133 C 0.26374 0.16471 0.47177 0.0
C134 C 0.26824 0.1549 0.53894 0.0
C135 C 0.22973 0.10968 0.49662 0.0
O136 O 0.23139 0.12636 0.49227 0.0
O137 O 0.24356 0.10432 0.50487 0.0
O138 O 0.24986 0.16729 0.48096 0.0
O139 O 0.27278 0.15217 0.47693 0.0
O140 O 0.13245 0.00435 0.74431 0.0
Cd141 Cd 0.15253 0.00666 0.76701 0.0
Cd142 Cd 0.12537 0.02131 0.78594 0.0
O143 O 0.11165 0.01697 0.75869 0.0
O144 O 0.17089 0.99239 0.75711 0.0
O145 O 0.15496 0.98439 0.78124 0.0
C146 C 0.16706 0.9811 0.76984 0.0
C147 C 0.10721 0.01247 0.81062 0.0
C148 C 0.11694 0.0097 0.74371 0.0
C149 C 0.16364 0.04608 0.78624 0.0
O150 O 0.14753 0.04393 0.79217 0.0
O151 O 0.16822 0.03299 0.77593 0.0
O152 O 0.10622 0.02737 0.8025 0.0
O153 O 0.11868 0.00243 0.80475 0.0
O154 O 0.23445 0.87332 0.0584 0.0
Cd155 Cd 0.23963 0.89426 0.04073 0.0
Cd156 Cd 0.24442 0.86457 0.01423 0.0
O157 O 0.23521 0.8503 0.03651 0.0
O158 O 0.22933 0.91549 0.05169 0.0
O159 O 0.21843 0.89954 0.02372 0.0
C160 C 0.21758 0.91284 0.03662 0.0
C161 C 0.23641 0.84673 0.98467 0.0
C162 C 0.2326 0.85597 0.05329 0.0
C163 C 0.2772 0.89727 0.0264 0.0
O164 O 0.27085 0.8814 0.01706 0.0
O165 O 0.26686 0.90508 0.03656 0.0
O166 O 0.24839 0.84302 0.99731 0.0
O167 O 0.22877 0.86083 0.98868 0.0
O168 O 0.24964 0.38003 0.07332 0.0
Cd169 Cd 0.25267 0.39931 0.05341 0.0
Cd170 Cd 0.26514 0.3702 0.03296 0.0
O171 O 0.25806 0.35677 0.05661 0.0
O172 O 0.2387 0.41897 0.06141 0.0
O173 O 0.23087 0.4005 0.03444 0.0
C174 C 0.2278 0.41407 0.0458 0.0
C175 C 0.25869 0.35356 0.00264 0.0
C176 C 0.25245 0.36339 0.07174 0.0
C177 C 0.29207 0.40753 0.04282 0.0
O178 O 0.28912 0.39063 0.0356 0.0
O179 O 0.27924 0.41395 0.05045 0.0
O180 O 0.2715 0.35058 0.0149 0.0
O181 O 0.24883 0.36555 0.00788 0.0
O182 O 0.78583 0.1421 0.06402 0.0
Cd183 Cd 0.77775 0.1209 0.04207 0.0
Cd184 Cd 0.76491 0.14775 0.02328 0.0
O185 O 0.77626 0.16378 0.04829 0.0
O186 O 0.79305 0.10172 0.0461 0.0
O187 O 0.79407 0.11796 0.02109 0.0
C188 C 0.79976 0.10523 0.03024 0.0
C189 C 0.76881 0.16281 0.99577 0.0
C190 C 0.78392 0.1589 0.06326 0.0
C191 C 0.73694 0.11309 0.0298 0.0
O192 O 0.74011 0.12867 0.02284 0.0
O193 O 0.7502 0.10717 0.03838 0.0
O194 O 0.75732 0.16668 0.00752 0.0
O195 O 0.77826 0.15021 -0.00038 0.0
O196 O 0.12656 0.48394 0.21701 0.0
Cd197 Cd 0.14824 0.4939 0.2381 0.0
Cd198 Cd 0.12222 0.50612 0.25743 0.0
O199 O 0.10533 0.49351 0.2334 0.0
O200 O 0.16751 0.47841 0.23644 0.0
O201 O 0.15083 0.4801 0.26101 0.0
C202 C 0.1637 0.47348 0.25297 0.0
C203 C 0.10875 0.50257 0.28585 0.0
C204 C 0.10972 0.48535 0.21843 0.0
C205 C 0.15519 0.53477 0.24833 0.0
O206 O 0.14015 0.53131 0.25623 0.0
O207 O 0.16125 0.52158 0.23981 0.0
O208 O 0.10385 0.51353 0.274 0.0
O209 O 0.12154 0.49351 0.2816 0.0
O210 O 0.7483 0.88102 0.57007 0.0
Cd211 Cd 0.7517 0.90005 0.55001 0.0
Cd212 Cd 0.76247 0.87042 0.52938 0.0
O213 O 0.75437 0.85688 0.55268 0.0
O214 O 0.7384 0.92023 0.55804 0.0
O215 O 0.72987 0.90153 0.53128 0.0
C216 C 0.72721 0.91531 0.54263 0.0
C217 C 0.75453 0.85468 0.49879 0.0
C218 C 0.74968 0.86394 0.56811 0.0
C219 C 0.79099 0.90663 0.53921 0.0
O220 O 0.78743 0.88963 0.53223 0.0
O221 O 0.77846 0.91375 0.54664 0.0
O222 O 0.76689 0.8503 0.51063 0.0
O223 O 0.74604 0.86767 0.50457 0.0
O224 O 0.89049 0.02294 0.21023 0.0
Cd225 Cd 0.87087 0.02038 0.22972 0.0
Cd226 Cd 0.89912 0.00797 0.25117 0.0
O227 O 0.91298 0.01389 0.22752 0.0
O228 O 0.85218 0.0355 0.22207 0.0
O229 O 0.87052 0.04193 0.24923 0.0
C230 C 0.85736 0.0459 0.23796 0.0
C231 C 0.91627 0.01441 0.28116 0.0
C232 C 0.90692 0.01963 0.21222 0.0
C233 C 0.86124 0.98164 0.24111 0.0
O234 O 0.87783 0.9847 0.24921 0.0
O235 O 0.85544 0.99413 0.23231 0.0
O236 O 0.91796 0.00064 0.26937 0.0
O237 O 0.90524 0.02514 0.27571 0.0
O238 O 0.29289 0.65079 0.55962 0.0
Cd239 Cd 0.28404 0.6291 0.53831 0.0
Cd240 Cd 0.26771 0.65372 0.52094 0.0
O241 O 0.2764 0.66949 0.54666 0.0
O242 O 0.30075 0.61109 0.54144 0.0
O243 O 0.2986 0.62626 0.51586 0.0
C244 C 0.30581 0.61429 0.52483 0.0
C245 C 0.27241 0.66961 0.49412 0.0
C246 C 0.28716 0.66609 0.56034 0.0
C247 C 0.24302 0.61759 0.52758 0.0
O248 O 0.24464 0.63239 0.51923 0.0
O249 O 0.25708 0.61387 0.53707 0.0
O250 O 0.25935 0.67185 0.50462 0.0
O251 O 0.28285 0.65805 0.49876 0.0
O252 O 0.38938 0.5265 0.70927 0.0
Cd253 Cd 0.36988 0.52255 0.72886 0.0
Cd254 Cd 0.39902 0.51023 0.74893 0.0
O255 O 0.41309 0.51921 0.72629 0.0
O256 O 0.35064 0.53716 0.72135 0.0
O257 O 0.36843 0.5434 0.74882 0.0
C258 C 0.35532 0.54731 0.73744 0.0
C259 C 0.41505 0.51529 0.77954 0.0
C260 C 0.40634 0.52471 0.71116 0.0
C261 C 0.36225 0.48263 0.73724 0.0
O262 O 0.37917 0.48574 0.74445 0.0
O263 O 0.35539 0.49567 0.73056 0.0
O264 O 0.41851 0.50329 0.76669 0.0
O265 O 0.40283 0.52508 0.77481 0.0
O266 O 0.61837 0.98034 0.72029 0.0
Cd267 Cd 0.64025 0.98902 0.74145 0.0
Cd268 Cd 0.61461 0.00292 0.76067 0.0
O269 O 0.59781 0.99191 0.73602 0.0
O270 O 0.65916 0.9735 0.7372 0.0
O271 O 0.64412 0.97365 0.76303 0.0
C272 C 0.65644 0.96756 0.75356 0.0
C273 C 0.60047 0.99864 0.78866 0.0
C274 C 0.60192 0.98323 0.72122 0.0
C275 C 0.64908 0.03006 0.75261 0.0
O276 O 0.634 0.02741 0.76053 0.0
O277 O 0.65421 0.01644 0.74375 0.0
O278 O 0.59647 0.01055 0.77746 0.0
O279 O 0.6128 0.98911 0.78405 0.0
O280 O 0.7708 0.64071 0.03633 0.0
Cd281 Cd 0.76871 0.62097 0.01322 0.0
Cd282 Cd 0.75271 0.6483 0.99552 0.0
O283 O 0.75802 0.66188 0.02277 0.0
O284 O 0.78297 0.60259 0.02316 0.0
O285 O 0.79131 0.61878 0.99932 0.0
C286 C 0.79448 0.60658 0.01065 0.0
C287 C 0.76079 0.66627 0.97049 0.0
C288 C 0.76551 0.65626 0.03744 0.0
C289 C 0.72867 0.60964 0.99518 0.0
O290 O 0.73003 0.62613 0.99031 0.0
O291 O 0.74253 0.60489 0.00408 0.0
O292 O 0.74618 0.66738 0.97908 0.0
O293 O 0.77095 0.65479 0.97607 0.0
O294 O 0.88939 0.52593 0.73347 0.0
Cd295 Cd 0.87141 0.52588 0.75429 0.0
Cd296 Cd 0.90238 0.52157 0.77807 0.0
O297 O 0.91412 0.52493 0.75301 0.0
O298 O 0.85042 0.53665 0.7436 0.0
O299 O 0.86982 0.55008 0.7688 0.0
C300 C 0.85563 0.5504 0.75677 0.0
C301 C 0.92322 0.53407 0.80485 0.0
C302 C 0.90672 0.5259 0.73639 0.0
C303 C 0.86762 0.49087 0.77378 0.0
O304 O 0.88455 0.4966 0.78069 0.0
O305 O 0.85957 0.50073 0.76322 0.0
O306 O 0.9252 0.51963 0.79426 0.0
O307 O 0.90904 0.54151 0.80053 0.0
O308 O 0.74722 0.37718 0.5549 0.0
Cd309 Cd 0.74704 0.39732 0.53636 0.0
Cd310 Cd 0.75241 0.36864 0.5092 0.0
O311 O 0.74909 0.35464 0.53296 0.0
O312 O 0.73577 0.41697 0.54909 0.0
O313 O 0.72277 0.39955 0.52247 0.0
C314 C 0.72215 0.41264 0.53569 0.0
C315 C 0.7413 0.34916 0.48112 0.0
C316 C 0.74769 0.3602 0.55011 0.0
C317 C 0.782 0.40442 0.51664 0.0
O318 O 0.77671 0.38807 0.50802 0.0
O319 O 0.772 0.41084 0.52832 0.0
O320 O 0.75594 0.34742 0.49156 0.0
O321 O 0.73291 0.36239 0.48631 0.0
O322 O 0.6328 0.50384 0.24447 0.0
Cd323 Cd 0.65191 0.50554 0.26805 0.0
Cd324 Cd 0.62463 0.52187 0.28497 0.0
O325 O 0.6111 0.51602 0.25772 0.0
O326 O 0.67021 0.49092 0.25864 0.0
O327 O 0.65314 0.48276 0.28192 0.0
C328 C 0.66557 0.47939 0.27096 0.0
C329 C 0.60703 0.51425 0.31034 0.0
C330 C 0.6171 0.50881 0.24313 0.0
C331 C 0.66346 0.54554 0.28593 0.0
O332 O 0.64674 0.54459 0.28996 0.0
O333 O 0.66831 0.5314 0.27769 0.0
O334 O 0.60538 0.52838 0.30116 0.0
O335 O 0.61877 0.50425 0.30507 0.0
Zn336 Zn 0.02556 0.0048 0.01879 0.0
Zn337 Zn 0.98609 0.00724 0.00169 0.0
C338 C 0.02158 0.97389 0.03861 0.0
O339 O 0.03117 0.98776 0.05063 0.0
C340 C 0.99489 0.03996 0.98477 0.0
O341 O 0.98499 0.02786 0.97119 0.0
O342 O 0.05344 0.00796 0.02581 0.0
O343 O 0.02318 0.01043 0.99138 0.0
O344 O 0.9961 0.99216 0.98103 0.0
C345 C 0.06187 0.00055 0.01318 0.0
O346 O 0.05238 0.99305 0.9969 0.0
O347 O 0.01618 0.97739 0.02198 0.0
C348 C 0.95367 0.01905 0.00788 0.0
O349 O 0.96582 0.02695 0.02236 0.0
O350 O 0.95874 0.00805 0.9954 0.0
O351 O 0.98773 -0.00024 0.02843 0.0
O352 O 0.01402 0.01947 0.03837 0.0
O353 O 0.99851 0.03437 0.00093 0.0
C354 C 0.0125 3e-05 0.978 0.0
C355 C 0.99798 0.01084 0.04164 0.0
Zn356 Zn 0.2647 0.76348 0.28687 0.0
Zn357 Zn 0.26385 0.76143 0.24565 0.0
C358 C 0.2425 0.72704 0.28533 0.0
O359 O 0.23404 0.73606 0.29756 0.0
C360 C 0.28632 0.79746 0.24483 0.0
O361 O 0.2952 0.78744 0.234 0.0
O362 O 0.26772 0.76431 0.31546 0.0
O363 O 0.29045 0.77213 0.279 0.0
O364 O 0.28488 0.74949 0.25572 0.0
C365 C 0.28055 0.75618 0.32157 0.0
O366 O 0.29065 0.74948 0.3093 0.0
O367 O 0.25657 0.73596 0.27839 0.0
C368 C 0.2459 0.74998 0.2072 0.0
O369 O 0.23218 0.74096 0.21571 0.0
O370 O 0.26099 0.75822 0.21708 0.0
O371 O 0.23804 0.75408 0.25381 0.0
O372 O 0.24378 0.77612 0.2777 0.0
O373 O 0.272 0.78928 0.25197 0.0
C374 C 0.29624 0.75987 0.26864 0.0
C375 C 0.23242 0.76623 0.26444 0.0
Zn376 Zn 0.49211 0.01516 0.51589 0.0
Zn377 Zn 0.53211 0.00929 0.511 0.0
C378 C 0.49937 0.04771 0.54086 0.0
O379 O 0.48814 0.03588 0.54973 0.0
C380 C 0.52281 0.97655 0.48573 0.0
O381 O 0.53389 0.98784 0.4762 0.0
O382 O 0.4646 0.01625 0.51422 0.0
O383 O 0.49745 0.00874 0.48915 0.0
O384 O 0.5254 0.02668 0.49195 0.0
C385 C 0.4603 0.02761 0.50278 0.0
O386 O 0.47331 0.03611 0.49305 0.0
O387 O 0.50452 0.04187 0.52516 0.0
C388 C 0.56233 0.99348 0.52106 0.0
O389 O 0.54857 0.98441 0.5295 0.0
O390 O 0.55934 0.0069 0.51171 0.0
O391 O 0.52768 0.01516 0.53823 0.0
O392 O 0.49889 0.99881 0.5358 0.0
O393 O 0.51851 0.98294 0.50162 0.0
C394 C 0.50964 0.02042 0.48234 0.0
C395 C 0.51467 0.00482 0.54547 0.0
Zn396 Zn 0.28387 0.262 0.76438 0.0
Zn397 Zn 0.24415 0.26779 0.76999 0.0
C398 C 0.27804 0.23763 0.73104 0.0
O399 O 0.2862 0.22859 0.74339 0.0
C400 C 0.25212 0.29118 0.80452 0.0
O401 O 0.24488 0.30182 0.79321 0.0
O402 O 0.31147 0.26202 0.7644 0.0
O403 O 0.28263 0.28907 0.77051 0.0
O404 O 0.25557 0.28759 0.75399 0.0
C405 C 0.31929 0.27287 0.75302 0.0
O406 O 0.30927 0.28303 0.7439 0.0
O407 O 0.27424 0.25325 0.73681 0.0
C408 C 0.20898 0.25723 0.78215 0.0
O409 O 0.21857 0.24603 0.79016 0.0
O410 O 0.21688 0.26834 0.77106 0.0
O411 O 0.24535 0.24095 0.76254 0.0
O412 O 0.27161 0.24248 0.78054 0.0
O413 O 0.25452 0.27535 0.79754 0.0
C414 C 0.27181 0.29672 0.76028 0.0
C415 C 0.25571 0.23322 0.77322 0.0
Zn416 Zn 0.01295 0.98778 0.51724 0.0
Zn417 Zn 0.00759 0.02771 0.51277 0.0
C418 C 0.03526 0.99423 0.55181 0.0
O419 O 0.04492 0.98567 0.54045 0.0
C420 C 0.98457 0.02061 0.47762 0.0
O421 O 0.9725 0.02483 0.48909 0.0
O422 O 0.01279 0.96027 0.51796 0.0
O423 O 0.98633 0.98891 0.50898 0.0
O424 O 0.98693 0.0148 0.52716 0.0
C425 C 0.00104 0.95259 0.5286 0.0
O426 O 0.99028 0.96268 0.53663 0.0
O427 O 0.01996 0.99793 0.54491 0.0
C428 C 0.01982 0.06424 0.50507 0.0
O429 O 0.03162 0.05536 0.49716 0.0
O430 O 0.00746 0.05518 0.5142 0.0
O431 O 0.03433 0.02598 0.52022 0.0
O432 O 0.03349 -0.00016 0.50226 0.0
O433 O 0.00097 0.01992 0.48456 0.0
C434 C 0.97807 0.99891 0.51947 0.0
C435 C 0.04244 0.01579 0.50974 0.0
Zn436 Zn 0.25703 0.78309 0.76283 0.0
Zn437 Zn 0.26425 0.74316 0.77072 0.0
C438 C 0.22408 0.77267 0.7384 0.0
O439 O 0.23527 0.78324 0.72834 0.0
C440 C 0.29855 0.75627 0.79444 0.0
O441 O 0.28779 0.75043 0.80753 0.0
O442 O 0.25517 0.81026 0.76195 0.0
O443 O 0.26411 0.78058 0.79019 0.0
O444 O 0.24898 0.7517 0.79105 0.0
C445 C 0.2436 0.81493 0.77294 0.0
O446 O 0.23533 0.80245 0.78337 0.0
O447 O 0.23048 0.76937 0.75472 0.0
C448 C 0.27598 0.71068 0.75883 0.0
O449 O 0.28339 0.72288 0.74765 0.0
O450 O 0.26554 0.71574 0.77091 0.0
O451 O 0.25642 0.7467 0.74355 0.0
O452 O 0.27359 0.77488 0.74388 0.0
O453 O 0.29136 0.75567 0.77738 0.0
C454 C 0.25426 0.7684 0.79884 0.0
C455 C 0.26733 0.75857 0.73547 0.0
Zn456 Zn 0.50877 0.9992 0.9991 0.0
Zn457 Zn 0.50913 0.99745 0.03992 0.0
C458 C 0.54397 0.02336 0.00183 0.0
O459 O 0.53388 0.0317 0.99047 0.0
C460 C 0.47407 0.97284 0.03879 0.0
O461 O 0.48475 0.96393 0.0488 0.0
O462 O 0.50879 0.99753 0.97056 0.0
O463 O 0.50078 0.97274 0.00532 0.0
O464 O 0.52265 0.97801 0.02928 0.0
C465 C 0.51849 0.98609 0.96445 0.0
O466 O 0.52595 0.97639 0.97662 0.0
O467 O 0.53612 0.00846 0.00823 0.0
C468 C 0.52036 0.01219 0.07962 0.0
O469 O 0.53056 0.02635 0.07269 0.0
O470 O 0.51147 0.99832 0.06834 0.0
O471 O 0.51561 0.02407 0.03376 0.0
O472 O 0.49492 0.01895 0.00863 0.0
O473 O 0.48146 0.9881 0.03273 0.0
C474 C 0.5129 0.96691 0.01579 0.0
C475 C 0.50399 0.0299 0.02264 0.0
Zn476 Zn 0.27722 0.25173 0.26261 0.0
Zn477 Zn 0.25612 0.28695 0.28493 0.0
C478 C 0.30212 0.26386 0.23583 0.0
O479 O 0.28709 0.25549 0.22464 0.0
C480 C 0.22274 0.25978 0.29168 0.0
O481 O 0.23434 0.25282 0.30275 0.0
O482 O 0.2773 0.22458 0.25528 0.0
O483 O 0.27908 0.25383 0.29136 0.0
O484 O 0.27009 0.27768 0.30654 0.0
C485 C 0.29254 0.22049 0.26185 0.0
O486 O 0.30514 0.23359 0.27211 0.0
O487 O 0.30136 0.26518 0.25375 0.0
C488 C 0.24195 0.31837 0.28026 0.0
O489 O 0.2355 0.3071 0.26469 0.0
O490 O 0.25283 0.31309 0.29266 0.0
O491 O 0.26697 0.28873 0.25974 0.0
O492 O 0.25607 0.25987 0.24735 0.0
O493 O 0.22924 0.27269 0.28172 0.0
C494 C 0.27723 0.26322 0.30674 0.0
C495 C 0.25928 0.27726 0.24557 0.0
Zn496 Zn 0.51259 0.48857 0.0166 0.0
Zn497 Zn 0.50586 0.52773 0.01003 0.0
C498 C 0.53633 0.49582 0.05041 0.0
O499 O 0.54586 0.48754 0.03866 0.0
C500 C 0.48155 0.51902 0.97615 0.0
O501 O 0.47119 0.52626 0.98779 0.0
O502 O 0.51271 0.4611 0.01735 0.0
O503 O 0.48558 0.48945 0.00953 0.0
O504 O 0.48655 0.51612 0.02651 0.0
C505 C 0.50144 0.45336 0.02839 0.0
O506 O 0.49093 0.46339 0.03697 0.0
O507 O 0.52063 0.49903 0.04405 0.0
C508 C 0.51426 0.56197 0.99603 0.0
O509 O 0.52375 0.5516 0.98639 0.0
O510 O 0.50492 0.5549 0.00891 0.0
O511 O 0.53305 0.52746 0.0168 0.0
O512 O 0.53254 0.50038 0.00071 0.0
O513 O 0.49765 0.51692 0.98266 0.0
C514 C 0.47759 0.49995 0.01976 0.0
C515 C 0.5413 0.51674 0.00716 0.0
Zn516 Zn 0.75301 0.27943 0.26251 0.0
Zn517 Zn 0.76522 0.24178 0.27353 0.0
C518 C 0.7215 0.26743 0.23629 0.0
O519 O 0.73322 0.27767 0.22645 0.0
C520 C 0.79699 0.25901 0.29902 0.0
O521 O 0.78637 0.25035 0.31089 0.0
O522 O 0.75015 0.30628 0.2612 0.0
O523 O 0.75844 0.27755 0.29046 0.0
O524 O 0.74695 0.24767 0.29168 0.0
C525 C 0.73729 0.31016 0.27091 0.0
O526 O 0.72819 0.29708 0.28015 0.0
O527 O 0.72717 0.2647 0.25307 0.0
C528 C 0.78488 0.21327 0.26755 0.0
O529 O 0.79441 0.22722 0.25973 0.0
O530 O 0.77028 0.21565 0.2752 0.0
O531 O 0.75826 0.24282 0.24581 0.0
O532 O 0.77104 0.27234 0.24446 0.0
O533 O 0.7904 0.2586 0.28178 0.0
C534 C 0.7496 0.26455 0.29895 0.0
C535 C 0.76771 0.25539 0.23728 0.0
Zn536 Zn 0.01536 0.51066 0.49522 0.0
Zn537 Zn 0.01136 0.50843 0.5356 0.0
C538 C 0.05164 0.53303 0.50156 0.0
O539 O 0.04321 0.54298 0.49042 0.0
C540 C 0.97573 0.48547 0.53118 0.0
O541 O 0.98529 0.4763 0.54214 0.0
O542 O 0.01725 0.50908 0.46705 0.0
O543 O 0.00529 0.48437 0.50056 0.0
O544 O 0.0242 0.48761 0.52683 0.0
C545 C 0.02687 0.49722 0.46182 0.0
O546 O 0.03339 0.48751 0.4746 0.0
O547 O 0.04229 0.51796 0.50634 0.0
C548 C 0.00171 0.5224 0.56981 0.0
O549 O 0.99505 0.53244 0.55745 0.0
O550 O 0.01065 0.51017 0.56394 0.0
O551 O 0.02097 0.53476 0.52986 0.0
O552 O 0.0021 0.5313 0.50358 0.0
O553 O 0.98411 0.50061 0.52562 0.0
C554 C 0.01558 0.47743 0.51212 0.0
C555 C 0.01048 0.54153 0.51836 0.0
Zn556 Zn 0.7841 0.7612 0.26377 0.0
Zn557 Zn 0.74355 0.76465 0.26705 0.0
C558 C 0.77864 0.73812 0.22962 0.0
O559 O 0.78762 0.7291 0.2413 0.0
C560 C 0.74532 0.78758 0.30105 0.0
O561 O 0.73662 0.79615 0.28867 0.0
O562 O 0.81184 0.76241 0.26333 0.0
O563 O 0.78146 0.78758 0.27131 0.0
O564 O 0.75575 0.78522 0.25225 0.0
C565 C 0.81943 0.77431 0.25279 0.0
O566 O 0.80919 0.78494 0.24475 0.0
O567 O 0.77431 0.75326 0.23612 0.0
C568 C 0.70664 0.75092 0.27361 0.0
O569 O 0.71559 0.73935 0.28185 0.0
O570 O 0.71576 0.76343 0.26472 0.0
O571 O 0.74668 0.73816 0.26081 0.0
O572 O 0.77288 0.74065 0.27921 0.0
O573 O 0.75097 0.77297 0.29513 0.0
C574 C 0.77101 0.79505 0.26047 0.0
C575 C 0.7573 0.73087 0.27167 0.0
Zn576 Zn 0.76545 0.25646 0.78532 0.0
Zn577 Zn 0.77102 0.25992 0.74563 0.0
C578 C 0.74104 0.22176 0.77947 0.0
O579 O 0.73209 0.23178 0.79022 0.0
C580 C 0.79517 0.29551 0.75236 0.0
O581 O 0.80521 0.28641 0.74198 0.0
O582 O 0.7653 0.25482 0.81356 0.0
O583 O 0.79265 0.26504 0.78166 0.0
O584 O 0.7896 0.24536 0.75606 0.0
C585 C 0.77615 0.2444 0.81938 0.0
O586 O 0.78595 0.23717 0.80712 0.0
O587 O 0.75668 0.22953 0.77446 0.0
C588 C 0.76046 0.25161 0.70496 0.0
O589 O 0.7465 0.23946 0.70994 0.0
O590 O 0.77285 0.26075 0.71771 0.0
O591 O 0.74373 0.2523 0.74866 0.0
O592 O 0.74607 0.27061 0.77528 0.0
O593 O 0.77941 0.28689 0.75631 0.0
C594 C 0.79958 0.25413 0.77078 0.0
C595 C 0.73661 0.26283 0.7598 0.0
Zn596 Zn 0.76892 0.74912 0.76153 0.0
Zn597 Zn 0.7622 0.78672 0.77993 0.0
C598 C 0.79924 0.75974 0.74131 0.0
O599 O 0.7858 0.75102 0.72832 0.0
C600 C 0.73096 0.77631 0.79852 0.0
O601 O 0.74303 0.78755 0.81121 0.0
O602 O 0.76978 0.72202 0.75483 0.0
O603 O 0.76297 0.74973 0.78877 0.0
O604 O 0.77912 0.77761 0.79976 0.0
C605 C 0.78198 0.71735 0.76629 0.0
O606 O 0.79112 0.72988 0.77992 0.0
O607 O 0.79553 0.76198 0.75848 0.0
C608 C 0.74736 0.81768 0.77545 0.0
O609 O 0.73895 0.80506 0.76156 0.0
O610 O 0.7599 0.81353 0.78692 0.0
O611 O 0.76788 0.78641 0.75248 0.0
O612 O 0.7518 0.75828 0.7423 0.0
O613 O 0.73599 0.77245 0.78215 0.0
C614 C 0.77242 0.76079 0.80246 0.0
C615 C 0.7577 0.77517 0.73933 0.0
Zn616 Zn 0.52456 0.501 0.52296 0.0
Zn617 Zn 0.48925 0.51394 0.50075 0.0
C618 C 0.51055 0.47234 0.54443 0.0
O619 O 0.51842 0.48617 0.55737 0.0
C620 C 0.50788 0.54486 0.48383 0.0
O621 O 0.50195 0.53277 0.46877 0.0
O622 O 0.55081 0.49908 0.53234 0.0
O623 O 0.52672 0.50434 0.49523 0.0
O624 O 0.49776 0.49606 0.48166 0.0
C625 C 0.55528 0.48532 0.52294 0.0
O626 O 0.54309 0.47546 0.5094 0.0
O627 O 0.50991 0.47537 0.52698 0.0
C628 C 0.45955 0.53122 0.50239 0.0
O629 O 0.47156 0.53922 0.51695 0.0
O630 O 0.46366 0.51809 0.4917 0.0
O631 O 0.48678 0.50766 0.52777 0.0
O632 O 0.51551 0.52022 0.53989 0.0
O633 O 0.50524 0.53973 0.50026 0.0
C634 C 0.51526 0.49808 0.4806 0.0
C635 C 0.4981 0.51643 0.54164 0.0
Zn636 Zn 0.99349 0.51769 0.0187 0.0
Zn637 Zn 0.03278 0.50763 0.01088 0.0
C638 C 0.00677 0.55062 0.04375 0.0
O639 O 0.99761 0.5398 0.05515 0.0
C640 C 0.01786 0.47443 0.9858 0.0
O641 O 0.02458 0.48531 0.97316 0.0
O642 O 0.96651 0.52036 0.01927 0.0
O643 O 0.99639 0.51083 0.99136 0.0
O644 O 0.0259 0.52455 0.99152 0.0
C645 C 0.96211 0.53235 0.00866 0.0
O646 O 0.97478 0.54089 0.9986 0.0
O647 O 0.00799 0.54391 0.02687 0.0
C648 C 0.06288 0.49141 0.02056 0.0
O649 O 0.04931 0.48278 0.02955 0.0
O650 O 0.05977 0.50453 0.01082 0.0
O651 O 0.02976 0.51489 0.03823 0.0
O652 O 0.0004 0.50056 0.03771 0.0
O653 O 0.01846 0.48126 0.00299 0.0
C654 C 0.00926 0.52056 0.9834 0.0
C655 C 0.01683 0.50527 0.04623 0.0
H656 H 0.99694 0.21097 0.95099 0.0
H657 H 0.99938 0.1846 0.96937 0.0
H658 H 0.02536 0.15963 0.92426 0.0
H659 H 0.02326 0.18595 0.90594 0.0
H660 H 0.98219 0.14873 0.95806 0.0
H661 H 0.05835 0.15258 0.97085 0.0
H662 H 0.0486 0.17202 0.9636 0.0
H663 H 0.05112 0.15354 0.9462 0.0
C664 C 0.00345 0.20002 0.9451 0.0
C665 C 0.00984 0.20056 0.92694 0.0
C666 C 0.00487 0.18498 0.95565 0.0
C667 C 0.01282 0.17029 0.94833 0.0
C668 C 0.01961 0.17102 0.93042 0.0
H669 H 0.98985 0.05485 0.95141 0.0
H670 H 0.99554 0.08773 0.94599 0.0
C671 C 0.01822 0.18603 0.91987 0.0
C672 C 0.01215 0.15322 0.95827 0.0
H673 H 0.03856 0.12215 0.97219 0.0
C674 C 0.99457 0.14314 0.96155 0.0
C675 C 0.02832 0.14599 0.96299 0.0
C676 C 0.04768 0.15671 0.96091 0.0
C677 C 0.99261 0.12548 0.96821 0.0
C678 C 0.0086 0.11766 0.97153 0.0
C679 C 0.02632 0.12817 0.96945 0.0
C680 C 0.00674 0.09784 0.97501 0.0
C681 C 0.97334 0.11492 0.97092 0.0
C682 C 0.01166 0.09268 0.99306 0.0
C683 C 0.00837 0.07376 0.99628 0.0
C684 C 0.0002 0.05985 0.98143 0.0
C685 C 0.99602 0.06518 0.96322 0.0
C686 C 0.99925 0.08397 0.96006 0.0
H687 H 0.96322 0.12434 0.97205 0.0
H688 H 0.96821 0.10432 0.95852 0.0
H689 H 0.97372 0.10747 0.98391 0.0
H690 H 0.01752 0.10327 0.00473 0.0
H691 H 0.01176 0.07008 0.01045 0.0
H692 H 0.06481 0.76238 0.20382 0.0
H693 H 0.09456 0.76579 0.22325 0.0
H694 H 0.11948 0.80925 0.19043 0.0
H695 H 0.08984 0.80549 0.17047 0.0
H696 H 0.13969 0.78367 0.19211 0.0
H697 H 0.12396 0.80231 0.2652 0.0
H698 H 0.10793 0.78168 0.25442 0.0
H699 H 0.10825 0.80358 0.24453 0.0
C700 C 0.0765 0.77294 0.20095 0.0
C701 C 0.07497 0.78358 0.1855 0.0
C702 C 0.0935 0.77499 0.21221 0.0
C703 C 0.10924 0.78797 0.20851 0.0
C704 C 0.10752 0.7992 0.19362 0.0
H705 H 0.21909 0.79786 0.27441 0.0
H706 H 0.1893 0.80517 0.26192 0.0
C707 C 0.09056 0.79702 0.1822 0.0
C708 C 0.1279 0.7881 0.21856 0.0
H709 H 0.151 0.78804 0.26251 0.0
C710 C 0.14222 0.78497 0.20751 0.0
C711 C 0.13137 0.79003 0.23867 0.0
C712 C 0.1171 0.79479 0.25137 0.0
C713 C 0.15953 0.78275 0.21595 0.0
C714 C 0.16245 0.78319 0.23599 0.0
C715 C 0.14858 0.78736 0.24713 0.0
C716 C 0.17947 0.77834 0.24533 0.0
C717 C 0.17445 0.77969 0.20328 0.0
C718 C 0.18337 0.76062 0.24076 0.0
C719 C 0.20027 0.75647 0.24775 0.0
C720 C 0.21354 0.7699 0.25966 0.0
C721 C 0.20912 0.78725 0.26525 0.0
C722 C 0.19217 0.79146 0.2581 0.0
H723 H 0.1723 0.78536 0.18939 0.0
H724 H 0.18862 0.78636 0.21019 0.0
H725 H 0.17387 0.76447 0.20036 0.0
H726 H 0.17354 0.75014 0.2313 0.0
H727 H 0.20315 0.74287 0.24339 0.0
H728 H 0.52727 0.80203 0.44647 0.0
H729 H 0.52574 0.83204 0.46366 0.0
H730 H 0.49282 0.84515 0.4152 0.0
H731 H 0.49399 0.81524 0.39809 0.0
H732 H 0.53965 0.86626 0.45295 0.0
H733 H 0.46387 0.8593 0.45853 0.0
H734 H 0.47433 0.83945 0.45268 0.0
H735 H 0.4687 0.85382 0.43454 0.0
C736 C 0.51948 0.81119 0.43957 0.0
C737 C 0.51078 0.80622 0.42088 0.0
C738 C 0.5186 0.82832 0.44943 0.0
C739 C 0.5089 0.8407 0.44083 0.0
C740 C 0.49997 0.83563 0.42231 0.0
H741 H 0.52921 0.9592 0.45217 0.0
H742 H 0.52487 0.92567 0.4431 0.0
C743 C 0.50082 0.81856 0.41247 0.0
C744 C 0.50954 0.85963 0.45036 0.0
H745 H 0.48212 0.89082 0.46184 0.0
C746 C 0.52707 0.87153 0.45518 0.0
C747 C 0.49313 0.86645 0.45349 0.0
C748 C 0.47396 0.85401 0.44972 0.0
C749 C 0.52862 0.89031 0.46208 0.0
C750 C 0.5122 0.89744 0.46392 0.0
C751 C 0.49468 0.88535 0.46012 0.0
C752 C 0.51309 0.91763 0.46886 0.0
C753 C 0.54785 0.90246 0.46708 0.0
C754 C 0.50713 0.92416 0.486 0.0
C755 C 0.50951 0.9434 0.49122 0.0
C756 C 0.51784 0.95632 0.47931 0.0
C757 C 0.52291 0.94964 0.46174 0.0
C758 C 0.52052 0.93048 0.45656 0.0
H759 H 0.55862 0.89398 0.46986 0.0
H760 H 0.55166 0.9106 0.45498 0.0
H761 H 0.54815 0.91249 0.47981 0.0
H762 H 0.50123 0.91441 0.4956 0.0
H763 H 0.50545 0.94811 0.50484 0.0
H764 H 0.46946 0.28842 0.67105 0.0
H765 H 0.44129 0.29071 0.68667 0.0
H766 H 0.4496 0.24547 0.71937 0.0
H767 H 0.47759 0.24295 0.70377 0.0
H768 H 0.41317 0.24127 0.70178 0.0
H769 H 0.43755 0.31154 0.74166 0.0
H770 H 0.44015 0.31071 0.71665 0.0
H771 H 0.45338 0.29828 0.73161 0.0
C772 C 0.46535 0.27904 0.68165 0.0
C773 C 0.47578 0.26553 0.68619 0.0
C774 C 0.44932 0.28044 0.69064 0.0
C775 C 0.44352 0.26842 0.70436 0.0
C776 C 0.4539 0.25494 0.70889 0.0
H777 H 0.34289 0.25027 0.76501 0.0
H778 H 0.3739 0.24913 0.75492 0.0
C779 C 0.4699 0.25354 0.69995 0.0
C780 C 0.42617 0.26931 0.71343 0.0
H781 H 0.40522 0.29802 0.74093 0.0
C782 C 0.41146 0.25361 0.71048 0.0
C783 C 0.42404 0.28543 0.72477 0.0
C784 C 0.43966 0.30241 0.72904 0.0
C785 C 0.39442 0.25379 0.71808 0.0
C786 C 0.39219 0.26999 0.72925 0.0
C787 C 0.407 0.2856 0.73242 0.0
C788 C 0.37417 0.27142 0.7367 0.0
C789 C 0.37871 0.23689 0.71351 0.0
C790 C 0.36441 0.28478 0.73039 0.0
C791 C 0.34684 0.28554 0.73621 0.0
C792 C 0.33867 0.27299 0.74853 0.0
C793 C 0.34877 0.26007 0.75545 0.0
C794 C 0.36642 0.25932 0.7496 0.0
H795 H 0.38131 0.22733 0.70146 0.0
H796 H 0.37734 0.22898 0.72616 0.0
H797 H 0.36522 0.24115 0.70987 0.0
H798 H 0.37017 0.2943 0.72052 0.0
H799 H 0.33951 0.29576 0.73069 0.0
H800 H 0.02871 0.79514 0.58146 0.0
H801 H 0.02705 0.82334 0.56596 0.0
H802 H 0.98228 0.83305 0.59872 0.0
H803 H 0.98374 0.80466 0.61433 0.0
H804 H 0.97636 0.8365 0.55827 0.0
H805 H 0.04508 0.87748 0.59174 0.0
H806 H 0.04551 0.8547 0.58043 0.0
H807 H 0.03306 0.85677 0.60102 0.0
C808 C 0.0185 0.80326 0.58543 0.0
C809 C 0.0064 0.79771 0.59921 0.0
C810 C 0.01764 0.81941 0.57659 0.0
C811 C 0.00472 0.83037 0.58139 0.0
C812 C 0.99241 0.82478 0.59492 0.0
H813 H 0.97637 0.93261 0.54948 0.0
H814 H 0.97694 0.90211 0.56041 0.0
C815 C 0.99329 0.8086 0.60383 0.0
C816 C 0.00404 0.84762 0.57215 0.0
H817 H 0.02949 0.89098 0.5677 0.0
C818 C 0.98794 0.84844 0.56033 0.0
C819 C 0.01926 0.86308 0.57479 0.0
C820 C 0.03667 0.86312 0.58779 0.0
C821 C 0.98668 0.86434 0.55095 0.0
C822 C 0.0018 0.87991 0.55379 0.0
C823 C 0.01798 0.87898 0.56546 0.0
C824 C 0.00072 0.89774 0.54579 0.0
C825 C 0.96928 0.86422 0.53792 0.0
C826 C 0.01406 0.90556 0.53409 0.0
C827 C 0.01388 0.92316 0.52788 0.0
C828 C 0.00043 0.93327 0.53345 0.0
C829 C 0.9869 0.9252 0.54488 0.0
C830 C 0.9871 0.90767 0.55104 0.0
H831 H 0.96183 0.84974 0.53273 0.0
H832 H 0.9596 0.87109 0.54586 0.0
H833 H 0.97264 0.87197 0.52544 0.0
H834 H 0.02479 0.89816 0.53 0.0
H835 H 0.02453 0.92903 0.51916 0.0
H836 H 0.46658 0.74285 0.85206 0.0
H837 H 0.43412 0.73879 0.83805 0.0
H838 H 0.44282 0.79787 0.83198 0.0
H839 H 0.47541 0.80169 0.84477 0.0
H840 H 0.40669 0.751 0.84982 0.0
H841 H 0.41734 0.77919 0.78103 0.0
H842 H 0.43644 0.77461 0.79642 0.0
H843 H 0.42854 0.79635 0.80008 0.0
C844 C 0.46158 0.75487 0.84744 0.0
C845 C 0.47352 0.77253 0.8493 0.0
C846 C 0.44304 0.75257 0.83946 0.0
C847 C 0.43605 0.76795 0.83351 0.0
C848 C 0.44798 0.78564 0.8357 0.0
H849 H 0.31825 0.77165 0.82815 0.0
H850 H 0.35185 0.7751 0.83691 0.0
C851 C 0.46659 0.78784 0.84319 0.0
C852 C 0.41602 0.76578 0.82624 0.0
H853 H 0.3868 0.77814 0.79165 0.0
C854 C 0.40237 0.75673 0.83695 0.0
C855 C 0.41025 0.7729 0.80925 0.0
C856 C 0.42395 0.78109 0.79595 0.0
C857 C 0.38323 0.75505 0.83146 0.0
C858 C 0.37752 0.76349 0.81531 0.0
C859 C 0.39112 0.77204 0.80427 0.0
C860 C 0.3575 0.7633 0.80946 0.0
C861 C 0.36941 0.74384 0.84285 0.0
C862 C 0.34971 0.75687 0.79071 0.0
C863 C 0.33064 0.7556 0.78549 0.0
C864 C 0.31901 0.76046 0.79902 0.0
C865 C 0.32692 0.76763 0.81753 0.0
C866 C 0.34606 0.76937 0.8226 0.0
H867 H 0.37565 0.73331 0.85013 0.0
H868 H 0.36534 0.75336 0.85402 0.0
H869 H 0.35663 0.73643 0.83371 0.0
H870 H 0.35824 0.75226 0.78025 0.0
H871 H 0.32485 0.74992 0.77114 0.0
H872 H 0.46642 0.17884 0.10778 0.0
H873 H 0.46304 0.14788 0.09036 0.0
H874 H 0.50665 0.16985 0.05629 0.0
H875 H 0.50959 0.20091 0.07307 0.0
H876 H 0.47968 0.14396 0.03531 0.0
H877 H 0.50125 0.11697 0.10288 0.0
H878 H 0.48024 0.12603 0.10322 0.0
H879 H 0.50211 0.14148 0.1011 0.0
C880 C 0.47509 0.17712 0.09638 0.0
C881 C 0.48846 0.19227 0.09199 0.0
C882 C 0.47321 0.15941 0.08651 0.0
C883 C 0.48495 0.15645 0.07238 0.0
C884 C 0.49751 0.17178 0.06721 0.0
H885 H 0.5276 0.05909 0.04346 0.0
H886 H 0.5214 0.0897 0.05354 0.0
C887 C 0.4992 0.18953 0.07686 0.0
C888 C 0.48531 0.1373 0.06396 0.0
H889 H 0.49477 0.0956 0.07543 0.0
C890 C 0.48287 0.13332 0.04406 0.0
C891 C 0.48972 0.12352 0.07541 0.0
C892 C 0.49366 0.12721 0.09681 0.0
C893 C 0.48511 0.11607 0.03528 0.0
C894 C 0.48948 0.10233 0.04676 0.0
C895 C 0.49139 0.10615 0.06665 0.0
C896 C 0.49354 0.08438 0.0387 0.0
C897 C 0.48355 0.11303 0.01383 0.0
C898 C 0.48007 0.0713 0.02663 0.0
C899 C 0.48371 0.05378 0.02059 0.0
C900 C 0.50073 0.04901 0.02684 0.0
C901 C 0.51431 0.06231 0.03851 0.0
C902 C 0.51078 0.07982 0.0443 0.0
H903 H 0.48457 0.1264 0.0073 0.0
H904 H 0.49465 0.10593 0.00898 0.0
H905 H 0.4698 0.10399 0.00853 0.0
H906 H 0.46653 0.07437 0.02243 0.0
H907 H 0.47294 0.04371 0.01173 0.0
H908 H 0.07514 0.27992 0.36687 0.0
H909 H 0.10415 0.28124 0.35175 0.0
H910 H 0.08161 0.22711 0.32098 0.0
H911 H 0.05248 0.22594 0.33552 0.0
H912 H 0.12838 0.25869 0.3547 0.0
H913 H 0.10188 0.25558 0.27879 0.0
H914 H 0.08798 0.26002 0.29785 0.0
H915 H 0.08985 0.23648 0.29013 0.0
C916 C 0.07628 0.26842 0.35668 0.0
C917 C 0.06147 0.25287 0.35234 0.0
C918 C 0.09287 0.26918 0.34807 0.0
C919 C 0.09497 0.25441 0.33498 0.0
C920 C 0.08016 0.23891 0.3306 0.0
H921 H 0.20356 0.23249 0.31074 0.0
H922 H 0.17178 0.22996 0.31983 0.0
C923 C 0.06354 0.23821 0.33906 0.0
C924 C 0.11305 0.25464 0.32687 0.0
H925 H 0.13273 0.24985 0.28518 0.0
C926 C 0.12933 0.25687 0.33949 0.0
C927 C 0.11434 0.25247 0.30701 0.0
C928 C 0.09761 0.2512 0.29266 0.0
C929 C 0.1468 0.25672 0.33286 0.0
C930 C 0.14798 0.2537 0.31303 0.0
C931 C 0.13176 0.2518 0.30037 0.0
C932 C 0.16609 0.25333 0.30523 0.0
C933 C 0.16389 0.26024 0.34718 0.0
C934 C 0.17296 0.26646 0.29293 0.0
C935 C 0.19099 0.26773 0.28742 0.0
C936 C 0.20253 0.25591 0.29419 0.0
C937 C 0.19512 0.24193 0.30544 0.0
C938 C 0.17701 0.24057 0.31079 0.0
H939 H 0.16136 0.26728 0.36094 0.0
H940 H 0.16759 0.24669 0.35001 0.0
H941 H 0.17603 0.26903 0.34173 0.0
H942 H 0.16471 0.27634 0.28831 0.0
H943 H 0.19622 0.27864 0.2787 0.0
H944 H 0.89792 0.02931 0.17661 0.0
H945 H 0.91665 0.03004 0.14962 0.0
H946 H 0.9616 0.01549 0.18463 0.0
H947 H 0.94292 0.01445 0.21165 0.0
H948 H 0.95242 0.05058 0.14445 0.0
H949 H 0.95026 0.97408 0.13999 0.0
H950 H 0.93524 0.98514 0.15403 0.0
H951 H 0.95932 0.98679 0.16271 0.0
C952 C 0.91183 0.02637 0.17864 0.0
C953 C 0.91881 0.02162 0.19627 0.0
C954 C 0.92253 0.02684 0.1632 0.0
C955 C 0.94039 0.02254 0.16505 0.0
C956 C 0.94771 0.01852 0.1828 0.0
H957 H 0.01573 0.03286 0.07394 0.0
H958 H 0.00343 0.03671 0.1049 0.0
C959 C 0.93702 0.018 0.19825 0.0
C960 C 0.95096 0.02151 0.14817 0.0
H961 H 0.96752 0.99098 0.11829 0.0
C962 C 0.95586 0.0376 0.13878 0.0
C963 C 0.95525 0.0045 0.14074 0.0
C964 C 0.94964 0.98658 0.14975 0.0
C965 C 0.96477 0.03706 0.12199 0.0
C966 C 0.96904 0.02004 0.11458 0.0
C967 C 0.96437 0.00404 0.12413 0.0
C968 C 0.9768 0.01804 0.09604 0.0
C969 C 0.96892 0.0545 0.11193 0.0
C970 C 0.96605 0.00607 0.08096 0.0
C971 C 0.97302 0.00379 0.0634 0.0
C972 C 0.99098 0.01338 0.06051 0.0
C973 C 0.00183 0.02532 0.07568 0.0
C974 C 0.9948 0.0276 0.09334 0.0
H975 H 0.96182 0.06553 0.11766 0.0
H976 H 0.98422 0.06017 0.11375 0.0
H977 H 0.96449 0.05125 0.09643 0.0
H978 H 0.95214 0.99854 0.08274 0.0
H979 H 0.96423 0.9945 0.05206 0.0
H980 H 0.29931 0.66925 0.46954 0.0
H981 H 0.30358 0.68696 0.44185 0.0
H982 H 0.25594 0.7111 0.45312 0.0
H983 H 0.25174 0.69379 0.48084 0.0
H984 H 0.2782 0.6849 0.41018 0.0
H985 H 0.29536 0.75699 0.44663 0.0
H986 H 0.29611 0.73664 0.45914 0.0
H987 H 0.27415 0.74328 0.45302 0.0
C988 C 0.28983 0.67843 0.46618 0.0
C989 C 0.27523 0.68017 0.4774 0.0
C990 C 0.29231 0.68855 0.4504 0.0
C991 C 0.2803 0.70061 0.44569 0.0
C992 C 0.26566 0.70226 0.4568 0.0
H993 H 0.25676 0.75946 0.34898 0.0
H994 H 0.25804 0.74727 0.38016 0.0
C995 C 0.2632 0.69221 0.47256 0.0
C996 C 0.28228 0.71063 0.42849 0.0
H997 H 0.28746 0.75401 0.41291 0.0
C998 C 0.28044 0.70001 0.41078 0.0
C999 C 0.2851 0.73036 0.42936 0.0
C1000 C 0.28797 0.74251 0.44807 0.0
C1001 C 0.28084 0.70855 0.39383 0.0
C1002 C 0.28342 0.72824 0.39468 0.0
C1003 C 0.28544 0.73891 0.41238 0.0
C1004 C 0.28394 0.73784 0.3772 0.0
C1005 C 0.27802 0.69642 0.37509 0.0
C1006 C 0.29846 0.73719 0.36569 0.0
C1007 C 0.29777 0.74407 0.34797 0.0
C1008 C 0.28257 0.75181 0.34149 0.0
C1009 C 0.26862 0.75355 0.35358 0.0
C1010 C 0.26932 0.74659 0.37135 0.0
H1011 H 0.27228 0.68152 0.37672 0.0
H1012 H 0.26839 0.70135 0.36463 0.0
H1013 H 0.29166 0.69725 0.36917 0.0
H1014 H 0.31001 0.73075 0.37015 0.0
H1015 H 0.30885 0.74273 0.33907 0.0
H1016 H 0.5644 0.98218 0.72 0.0
H1017 H 0.54208 0.97869 0.69169 0.0
H1018 H 0.58531 0.96999 0.65626 0.0
H1019 H 0.60756 0.97296 0.6845 0.0
H1020 H 0.54586 0.00282 0.66616 0.0
H1021 H 0.5416 0.93262 0.62908 0.0
H1022 H 0.55111 0.93873 0.65367 0.0
H1023 H 0.56552 0.94439 0.63475 0.0
C1024 C 0.56904 0.97906 0.70621 0.0
C1025 C 0.5878 0.97802 0.70447 0.0
C1026 C 0.55625 0.97702 0.69005 0.0
C1027 C 0.56195 0.97392 0.67185 0.0
C1028 C 0.58043 0.9719 0.67015 0.0
H1029 H 0.54464 0.0198 0.57106 0.0
H1030 H 0.55194 0.01068 0.60258 0.0
C1031 C 0.59321 0.97377 0.68633 0.0
C1032 C 0.54964 0.97574 0.65471 0.0
H1033 H 0.53523 0.95663 0.60899 0.0
C1034 C 0.54313 0.99247 0.65384 0.0
C1035 C 0.54583 0.96219 0.63868 0.0
C1036 C 0.55122 0.9434 0.63917 0.0
C1037 C 0.53421 0.99662 0.63695 0.0
C1038 C 0.53201 0.98385 0.62046 0.0
C1039 C 0.53716 0.96649 0.62165 0.0
C1040 C 0.5268 0.98937 0.60152 0.0
C1041 C 0.52795 0.01503 0.63665 0.0
C1042 C 0.51029 0.98023 0.59041 0.0
C1043 C 0.50599 0.98548 0.57226 0.0
C1044 C 0.51832 -0.00026 0.56497 0.0
C1045 C 0.53482 0.0088 0.57623 0.0
C1046 C 0.539 0.00366 0.5943 0.0
H1047 H 0.5254 0.02049 0.65109 0.0
H1048 H 0.53907 0.02547 0.6316 0.0
H1049 H 0.51499 0.01364 0.62686 0.0
H1050 H 0.50079 0.96907 0.59576 0.0
H1051 H 0.49324 0.97817 0.56385 0.0
H1052 H 0.23361 0.35716 0.9728 0.0
H1053 H 0.23241 0.34434 0.9395 0.0
H1054 H 0.27777 0.31694 0.95444 0.0
H1055 H 0.27908 0.32958 0.98763 0.0
H1056 H 0.28287 0.3399 0.9235 0.0
H1057 H 0.21475 0.28936 0.91399 0.0
H1058 H 0.21439 0.31245 0.9246 0.0
H1059 H 0.22718 0.29788 0.93714 0.0
C1060 C 0.24313 0.34817 0.96905 0.0
C1061 C 0.25644 0.34441 0.98288 0.0
C1062 C 0.24239 0.34083 0.95003 0.0
C1063 C 0.25494 0.32961 0.94456 0.0
C1064 C 0.26794 0.32552 0.95839 0.0
H1065 H 0.25713 0.26921 0.8332 0.0
H1066 H 0.25889 0.2781 0.8676 0.0
C1067 C 0.26863 0.33275 0.97737 0.0
C1068 C 0.25539 0.32313 0.92425 0.0
H1069 H 0.22998 0.29518 0.88621 0.0
C1070 C 0.27134 0.33006 0.91536 0.0
C1071 C 0.2404 0.31018 0.91374 0.0
C1072 C 0.22324 0.30187 0.92282 0.0
C1073 C 0.27253 0.3247 0.89609 0.0
C1074 C 0.25736 0.31213 0.88546 0.0
C1075 C 0.24157 0.30486 0.89443 0.0
C1076 C 0.25735 0.30693 0.86481 0.0
C1077 C 0.28999 0.3325 0.88718 0.0
C1078 C 0.25603 0.32024 0.85195 0.0
C1079 C 0.25494 0.31521 0.83238 0.0
C1080 C 0.25523 0.29677 0.82528 0.0
C1081 C 0.25702 0.28355 0.83823 0.0
C1082 C 0.25792 0.28857 0.85785 0.0
H1083 H 0.3018 0.3389 0.89808 0.0
H1084 H 0.29427 0.32137 0.87798 0.0
H1085 H 0.28711 0.34343 0.8781 0.0
H1086 H 0.25541 0.33444 0.85706 0.0
H1087 H 0.25355 0.32572 0.82279 0.0
H1088 H 0.92519 0.0463 0.30611 0.0
H1089 H 0.94053 0.04971 0.33873 0.0
H1090 H 0.94283 0.99113 0.33308 0.0
H1091 H 0.92868 0.988 0.30036 0.0
H1092 H 0.92993 0.03594 0.36851 0.0
H1093 H 0.99436 0.01089 0.35583 0.0
H1094 H 0.97889 0.01572 0.33658 0.0
H1095 H 0.97456 0.99331 0.34597 0.0
C1096 C 0.92928 0.03427 0.3118 0.0
C1097 C 0.92595 0.01696 0.30065 0.0
C1098 C 0.93802 0.0362 0.33042 0.0
C1099 C 0.94331 0.02078 0.33831 0.0
C1100 C 0.93965 0.00343 0.32719 0.0
H1101 H 0.95037 0.00722 0.45821 0.0
H1102 H 0.94137 0.00757 0.42427 0.0
C1103 C 0.93137 0.00162 0.30849 0.0
C1104 C 0.9514 0.02236 0.35852 0.0
H1105 H 0.98488 0.00898 0.38764 0.0
C1106 C 0.94213 0.03029 0.37264 0.0
C1107 C 0.96759 0.01544 0.36405 0.0
C1108 C 0.97951 0.00858 0.34975 0.0
C1109 C 0.94809 0.03079 0.39206 0.0
C1110 C 0.96321 0.02228 0.3976 0.0
C1111 C 0.97299 0.01509 0.38348 0.0
C1112 C 0.96902 0.02061 0.41792 0.0
C1113 C 0.93822 0.04072 0.40632 0.0
C1114 C 0.98783 0.02653 0.42547 0.0
C1115 C 0.99312 0.02563 0.44476 0.0
C1116 C 0.97964 0.01906 0.45686 0.0
C1117 C 0.96099 0.01253 0.4492 0.0
C1118 C 0.9558 0.01297 0.42985 0.0
H1119 H 0.93215 0.05184 0.39998 0.0
H1120 H 0.92652 0.03054 0.41081 0.0
H1121 H 0.94784 0.04718 0.41912 0.0
H1122 H 0.99835 0.03231 0.41657 0.0
H1123 H 0.00759 0.03085 0.45036 0.0
H1124 H 0.27004 0.69464 0.57052 0.0
H1125 H 0.27517 0.71442 0.60052 0.0
H1126 H 0.32047 0.68827 0.61929 0.0
H1127 H 0.31478 0.66767 0.58941 0.0
H1128 H 0.29853 0.68843 0.64526 0.0
H1129 H 0.31107 0.75964 0.62367 0.0
H1130 H 0.28989 0.74668 0.61063 0.0
H1131 H 0.31176 0.7396 0.60728 0.0
C1132 C 0.28134 0.6933 0.58086 0.0
C1133 C 0.29196 0.67953 0.57763 0.0
C1134 C 0.28441 0.70481 0.59798 0.0
C1135 C 0.29849 0.70318 0.61207 0.0
C1136 C 0.30961 0.6899 0.60858 0.0
H1137 H 0.29839 0.77453 0.71913 0.0
H1138 H 0.30992 0.76216 0.69012 0.0
C1139 C 0.30632 0.67811 0.59153 0.0
C1140 C 0.29973 0.71356 0.63119 0.0
H1141 H 0.29576 0.75569 0.65312 0.0
C1142 C 0.29842 0.70325 0.64701 0.0
C1143 C 0.30007 0.73301 0.63375 0.0
C1144 C 0.30351 0.74535 0.61791 0.0
C1145 C 0.2958 0.71148 0.66488 0.0
C1146 C 0.29378 0.73033 0.6668 0.0
C1147 C 0.29677 0.74109 0.65149 0.0
C1148 C 0.28681 0.73843 0.68394 0.0
C1149 C 0.29472 0.69971 0.68138 0.0
C1150 C 0.26972 0.72958 0.68962 0.0
C1151 C 0.26322 0.73648 0.7061 0.0
C1152 C 0.27351 0.75262 0.71708 0.0
C1153 C 0.29018 0.76206 0.71092 0.0
C1154 C 0.29681 0.75498 0.69443 0.0
H1155 H 0.30319 0.68876 0.67968 0.0
H1156 H 0.29968 0.70835 0.69517 0.0
H1157 H 0.28 0.69252 0.68186 0.0
H1158 H 0.26144 0.71716 0.68136 0.0
H1159 H 0.25019 0.72904 0.71035 0.0
H1160 H 0.60478 0.97414 0.81508 0.0
H1161 H 0.58865 0.97011 0.84384 0.0
H1162 H 0.55897 0.0135 0.83051 0.0
H1163 H 0.57473 0.01745 0.80175 0.0
H1164 H 0.5893 0.99689 0.87438 0.0
H1165 H 0.51689 0.97099 0.84013 0.0
H1166 H 0.53716 0.97152 0.82722 0.0
H1167 H 0.52841 0.9925 0.83224 0.0
C1168 C 0.59475 0.98274 0.81824 0.0
C1169 C 0.59098 0.99606 0.80611 0.0
C1170 C 0.58554 0.98041 0.83464 0.0
C1171 C 0.57237 0.99126 0.83908 0.0
C1172 C 0.56874 0.00466 0.82709 0.0
H1173 H 0.512 0.00901 0.93699 0.0
H1174 H 0.52422 0.00959 0.9058 0.0
C1175 C 0.57788 0.00699 0.81072 0.0
C1176 C 0.56306 0.98927 0.85672 0.0
H1177 H 0.52027 0.97991 0.87359 0.0
C1178 C 0.57423 0.99303 0.87421 0.0
C1179 C 0.54337 0.98434 0.85641 0.0
C1180 C 0.53075 0.97944 0.838 0.0
C1181 C 0.56621 0.99231 0.89147 0.0
C1182 C 0.54654 0.98746 0.89116 0.0
C1183 C 0.53535 0.98367 0.8737 0.0
C1184 C 0.53749 0.98597 0.90896 0.0
C1185 C 0.57882 0.9971 0.90992 0.0
C1186 C 0.5404 0.9721 0.92063 0.0
C1187 C 0.53348 0.97172 0.93834 0.0
C1188 C 0.52345 0.98518 0.94467 0.0
C1189 C 0.51969 0.99848 0.93251 0.0
C1190 C 0.52667 0.99885 0.91473 0.0
H1191 H 0.59309 0.00453 0.90773 0.0
H1192 H 0.57289 0.00597 0.92027 0.0
H1193 H 0.58008 0.98402 0.91628 0.0
H1194 H 0.54847 0.96186 0.91624 0.0
H1195 H 0.53645 0.96116 0.94728 0.0
H1196 H 0.26034 0.32864 0.07464 0.0
H1197 H 0.25892 0.31092 0.10238 0.0
H1198 H 0.23847 0.35449 0.13362 0.0
H1199 H 0.23975 0.37232 0.10595 0.0
H1200 H 0.27881 0.32343 0.13825 0.0
H1201 H 0.20238 0.30643 0.14341 0.0
H1202 H 0.21218 0.31374 0.12207 0.0
H1203 H 0.21154 0.33074 0.14169 0.0
C1204 C 0.2553 0.33438 0.08731 0.0
C1205 C 0.25016 0.35195 0.08803 0.0
C1206 C 0.25452 0.32422 0.10317 0.0
C1207 C 0.2484 0.33128 0.11999 0.0
C1208 C 0.24291 0.34862 0.12067 0.0
H1209 H 0.26984 0.31292 0.2364 0.0
H1210 H 0.26679 0.32427 0.20514 0.0
C1211 C 0.24376 0.35884 0.10485 0.0
C1212 C 0.24899 0.32118 0.13725 0.0
H1213 H 0.22215 0.30189 0.17049 0.0
C1214 C 0.26639 0.31855 0.14518 0.0
C1215 C 0.23276 0.31466 0.14619 0.0
C1216 C 0.21362 0.31635 0.13784 0.0
C1217 C 0.26808 0.31022 0.1622 0.0
C1218 C 0.25198 0.30447 0.17156 0.0
C1219 C 0.23448 0.30644 0.1633 0.0
C1220 C 0.25331 0.29735 0.19046 0.0
C1221 C 0.2871 0.30782 0.17023 0.0
C1222 C 0.24646 0.27847 0.19258 0.0
C1223 C 0.24827 0.27184 0.21049 0.0
C1224 C 0.2568 0.28407 0.22657 0.0
C1225 C 0.26328 0.30306 0.22435 0.0
C1226 C 0.26159 0.3096 0.20648 0.0
H1227 H 0.29734 0.30936 0.15949 0.0
H1228 H 0.29243 0.31861 0.18243 0.0
H1229 H 0.2862 0.29389 0.17556 0.0
H1230 H 0.23997 0.26883 0.18035 0.0
H1231 H 0.24308 0.25716 0.21171 0.0
H1232 H 0.18771 0.90787 0.00947 0.0
H1233 H 0.16352 0.92666 0.00705 0.0
H1234 H 0.19115 0.96296 0.05648 0.0
H1235 H 0.21532 0.94427 0.05911 0.0
H1236 H 0.14081 0.93428 0.03928 0.0
H1237 H 0.18141 0.99786 0.01308 0.0
H1238 H 0.18774 0.97527 0.00968 0.0
H1239 H 0.19223 0.98834 0.03271 0.0
C1240 C 0.18872 0.91993 0.01973 0.0
C1241 C 0.20341 0.92457 0.03449 0.0
C1242 C 0.1749 0.93062 0.01834 0.0
C1243 C 0.17569 0.94622 0.03151 0.0
C1244 C 0.19044 0.95106 0.04608 0.0
H1245 H 0.0813 0.00113 0.04811 0.0
H1246 H 0.11069 0.9903 0.05443 0.0
C1247 C 0.20418 0.94031 0.04759 0.0
C1248 C 0.16057 0.95691 0.03053 0.0
H1249 H 0.1503 0.99835 0.01908 0.0
C1250 C 0.14287 0.94833 0.03499 0.0
C1251 C 0.16342 0.9752 0.02491 0.0
C1252 C 0.18217 0.98478 0.0197 0.0
C1253 C 0.1278 0.95752 0.03378 0.0
C1254 C 0.13059 0.97579 0.02805 0.0
C1255 C 0.14834 0.98444 0.02371 0.0
C1256 C 0.11472 0.98522 0.0247 0.0
C1257 C 0.10883 0.94743 0.03802 0.0
C1258 C 0.10779 0.98662 0.00597 0.0
C1259 C 0.09108 0.99269 0.00233 0.0
C1260 C 0.08109 0.99763 0.01739 0.0
C1261 C 0.08873 0.99746 0.03623 0.0
C1262 C 0.10543 0.9912 0.03986 0.0
H1263 H 0.10849 0.93246 0.03976 0.0
H1264 H 0.10514 0.95418 0.05138 0.0
H1265 H 0.09797 0.94835 0.02642 0.0
H1266 H 0.11481 0.98209 0.99411 0.0
H1267 H 0.08559 0.9928 0.98767 0.0
H1268 H 0.72042 0.57349 0.00407 0.0
H1269 H 0.68955 0.55312 0.00243 0.0
H1270 H 0.66447 0.59551 0.97816 0.0
H1271 H 0.69525 0.61585 0.97944 0.0
H1272 H 0.66136 0.56123 0.02174 0.0
H1273 H 0.63741 0.54882 0.94474 0.0
H1274 H 0.66159 0.55782 0.95369 0.0
H1275 H 0.64525 0.57322 0.95265 0.0
C1276 C 0.70839 0.57836 0.99803 0.0
C1277 C 0.71035 0.59637 0.99194 0.0
C1278 C 0.69074 0.56668 0.99711 0.0
C1279 C 0.6747 0.57269 0.98999 0.0
C1280 C 0.67667 0.59039 0.98331 0.0
H1281 H 0.56364 0.55043 0.02024 0.0
H1282 H 0.59629 0.56166 0.01555 0.0
C1283 C 0.69431 0.60207 0.98418 0.0
C1284 C 0.65581 0.56137 0.99141 0.0
H1285 H 0.61344 0.54326 0.96607 0.0
C1286 C 0.65098 0.55705 0.0095 0.0
C1287 C 0.6423 0.55572 0.97544 0.0
C1288 C 0.64694 0.55896 0.95551 0.0
C1289 C 0.63281 0.54808 0.01219 0.0
C1290 C 0.619 0.54352 0.99641 0.0
C1291 C 0.62401 0.54696 0.97817 0.0
C1292 C 0.59908 0.53643 0.99888 0.0
C1293 C 0.62844 0.5438 0.03196 0.0
C1294 C 0.58966 0.51862 0.99068 0.0
C1295 C 0.57086 0.51208 0.99335 0.0
C1296 C 0.56117 0.52335 0.0041 0.0
C1297 C 0.57065 0.54129 0.01199 0.0
C1298 C 0.58937 0.54775 0.00939 0.0
H1299 H 0.64128 0.54322 0.04123 0.0
H1300 H 0.62206 0.555 0.03853 0.0
H1301 H 0.61838 0.53029 0.03156 0.0
H1302 H 0.59691 0.50973 0.98242 0.0
H1303 H 0.56395 0.49824 0.98701 0.0
H1304 H 0.69255 0.46972 0.2502 0.0
H1305 H 0.70573 0.44161 0.2508 0.0
H1306 H 0.67135 0.4232 0.29473 0.0
H1307 H 0.65788 0.45128 0.29412 0.0
H1308 H 0.72508 0.42807 0.28092 0.0
H1309 H 0.65891 0.37872 0.25307 0.0
H1310 H 0.66206 0.40363 0.25189 0.0
H1311 H 0.65728 0.39393 0.27383 0.0
C1312 C 0.68777 0.45972 0.26003 0.0
C1313 C 0.67405 0.46268 0.27203 0.0
C1314 C 0.69537 0.44368 0.26036 0.0
C1315 C 0.68934 0.4302 0.2726 0.0
C1316 C 0.67596 0.43328 0.28493 0.0
H1317 H 0.71281 0.3226 0.29304 0.0
H1318 H 0.70248 0.35225 0.29342 0.0
C1319 C 0.66834 0.44937 0.28463 0.0
C1320 C 0.69698 0.41288 0.27229 0.0
H1321 H 0.68454 0.3654 0.26314 0.0
C1322 C 0.71626 0.41436 0.27698 0.0
C1323 C 0.68544 0.39504 0.26703 0.0
C1324 C 0.66479 0.39265 0.26099 0.0
C1325 C 0.72422 0.39839 0.27703 0.0
C1326 C 0.71263 0.38054 0.27192 0.0
C1327 C 0.6934 0.37911 0.26707 0.0
C1328 C 0.71995 0.36304 0.27213 0.0
C1329 C 0.74486 0.40073 0.28302 0.0
C1330 C 0.7333 0.35924 0.26005 0.0
C1331 C 0.73932 0.34221 0.25981 0.0
C1332 C 0.73196 0.32867 0.27156 0.0
C1333 C 0.71874 0.33266 0.28375 0.0
C1334 C 0.7128 0.34963 0.284 0.0
H1335 H 0.75085 0.41475 0.29069 0.0
H1336 H 0.74754 0.3899 0.29234 0.0
H1337 H 0.75231 0.39912 0.27018 0.0
H1338 H 0.73875 0.36927 0.25051 0.0
H1339 H 0.74943 0.33951 0.2502 0.0
H1340 H 0.8096 0.39313 0.49785 0.0
H1341 H 0.84152 0.41043 0.49704 0.0
H1342 H 0.82819 0.45845 0.52814 0.0
H1343 H 0.79632 0.44113 0.52943 0.0
H1344 H 0.8578 0.44451 0.48423 0.0
H1345 H 0.87027 0.44557 0.56288 0.0
H1346 H 0.8498 0.43139 0.54919 0.0
H1347 H 0.85128 0.45606 0.55466 0.0
C1348 C 0.81337 0.40744 0.50434 0.0
C1349 C 0.80051 0.41564 0.514 0.0
C1350 C 0.8316 0.41732 0.5038 0.0
C1351 C 0.83727 0.43557 0.51283 0.0
C1352 C 0.82416 0.44423 0.52142 0.0
H1353 H 0.95057 0.50306 0.51298 0.0
H1354 H 0.91658 0.4921 0.50702 0.0
C1355 C 0.80596 0.43431 0.52211 0.0
C1356 C 0.85723 0.44485 0.51458 0.0
H1357 H 0.89531 0.46001 0.54718 0.0
C1358 C 0.86602 0.44805 0.49797 0.0
C1359 C 0.8679 0.44922 0.53255 0.0
C1360 C 0.85942 0.44526 0.55085 0.0
C1361 C 0.88532 0.45531 0.49888 0.0
C1362 C 0.89593 0.45961 0.51686 0.0
C1363 C 0.88706 0.45674 0.53343 0.0
C1364 C 0.91649 0.46587 0.51895 0.0
C1365 C 0.89432 0.45765 0.48063 0.0
C1366 C 0.92761 0.45477 0.52765 0.0
C1367 C 0.9469 0.46102 0.5312 0.0
C1368 C 0.95546 0.47853 0.52614 0.0
C1369 C 0.94436 0.48947 0.51699 0.0
C1370 C 0.92498 0.48321 0.51349 0.0
H1371 H 0.88487 0.4504 0.46801 0.0
H1372 H 0.89797 0.47275 0.47872 0.0
H1373 H 0.90744 0.45217 0.48122 0.0
H1374 H 0.92129 0.44135 0.53197 0.0
H1375 H 0.95505 0.45221 0.53818 0.0
H1376 H 0.36336 0.08041 0.27853 0.0
H1377 H 0.34682 0.10638 0.2783 0.0
H1378 H 0.31987 0.08479 0.22223 0.0
H1379 H 0.33638 0.05887 0.22225 0.0
H1380 H 0.33691 0.12275 0.2256 0.0
H1381 H 0.29116 0.10685 0.28301 0.0
H1382 H 0.31532 0.10677 0.28975 0.0
H1383 H 0.30225 0.08966 0.27138 0.0
C1384 C 0.3538 0.08111 0.26622 0.0
C1385 C 0.3512 0.0676 0.25041 0.0
C1386 C 0.34426 0.09587 0.26617 0.0
C1387 C 0.33193 0.09732 0.25036 0.0
C1388 C 0.32922 0.08381 0.23461 0.0
H1389 H 0.26802 0.18784 0.24776 0.0
H1390 H 0.27528 0.15648 0.24276 0.0
C1391 C 0.33869 0.06904 0.23467 0.0
C1392 C 0.32291 0.11367 0.24971 0.0
H1393 H 0.29509 0.13792 0.27354 0.0
C1394 C 0.32753 0.12592 0.23589 0.0
C1395 C 0.3105 0.11763 0.263 0.0
C1396 C 0.30434 0.10445 0.27752 0.0
C1397 C 0.32088 0.14259 0.23568 0.0
C1398 C 0.30941 0.14708 0.24968 0.0
C1399 C 0.30396 0.13439 0.26287 0.0
C1400 C 0.30475 0.16577 0.25212 0.0
C1401 C 0.3266 0.15557 0.22085 0.0
C1402 C 0.3189 0.18116 0.25912 0.0
C1403 C 0.31483 0.19888 0.26212 0.0
C1404 C 0.29649 0.20159 0.25809 0.0
C1405 C 0.28228 0.18616 0.25091 0.0
C1406 C 0.28638 0.16829 0.24809 0.0
H1407 H 0.33165 0.14827 0.20857 0.0
H1408 H 0.31472 0.16179 0.21558 0.0
H1409 H 0.33809 0.16715 0.22734 0.0
H1410 H 0.33313 0.17941 0.26245 0.0
H1411 H 0.32611 0.21047 0.26761 0.0
H1412 H 0.32184 0.11168 0.48435 0.0
H1413 H 0.34869 0.09658 0.48143 0.0
H1414 H 0.33209 0.06331 0.52677 0.0
H1415 H 0.30522 0.07808 0.52963 0.0
H1416 H 0.37778 0.09661 0.50946 0.0
H1417 H 0.34003 0.02405 0.48559 0.0
H1418 H 0.32883 0.04389 0.48488 0.0
H1419 H 0.33253 0.03398 0.5069 0.0
C1420 C 0.32383 0.10104 0.49358 0.0
C1421 C 0.31136 0.09605 0.50717 0.0
C1422 C 0.33917 0.09243 0.4919 0.0
C1423 C 0.34221 0.07859 0.50367 0.0
C1424 C 0.32978 0.07362 0.51724 0.0
H1425 H 0.43193 0.01845 0.52546 0.0
H1426 H 0.40278 0.03027 0.52517 0.0
C1427 C 0.31449 0.0822 0.51893 0.0
C1428 C 0.35888 0.07002 0.50249 0.0
H1429 H 0.37264 0.02823 0.49523 0.0
C1430 C 0.37666 0.08168 0.50619 0.0
C1431 C 0.35738 0.05051 0.49836 0.0
C1432 C 0.33867 0.03738 0.49353 0.0
C1433 C 0.39298 0.07435 0.50623 0.0
C1434 C 0.39148 0.05485 0.50213 0.0
C1435 C 0.37373 0.04316 0.49841 0.0
C1436 C 0.40829 0.04647 0.5014 0.0
C1437 C 0.4117 0.08749 0.51106 0.0
C1438 C 0.42069 0.05119 0.48775 0.0
C1439 C 0.43726 0.04449 0.48787 0.0
C1440 C 0.44174 0.03283 0.50159 0.0
C1441 C 0.42889 0.02742 0.51473 0.0
C1442 C 0.41226 0.03418 0.51461 0.0
H1443 H 0.41033 0.10111 0.51834 0.0
H1444 H 0.42126 0.08122 0.52035 0.0
H1445 H 0.41823 0.09024 0.49775 0.0
H1446 H 0.4177 0.06035 0.4772 0.0
H1447 H 0.44673 0.04878 0.4774 0.0
H1448 H 0.70062 0.5525 0.28037 0.0
H1449 H 0.72188 0.58291 0.28246 0.0
H1450 H 0.67821 0.60998 0.30071 0.0
H1451 H 0.65699 0.57968 0.29905 0.0
H1452 H 0.71691 0.61013 0.26104 0.0
H1453 H 0.72229 0.6378 0.33671 0.0
H1454 H 0.71322 0.61344 0.32858 0.0
H1455 H 0.69838 0.63027 0.32688 0.0
C1456 C 0.69563 0.56489 0.2852 0.0
C1457 C 0.67704 0.56363 0.28947 0.0
C1458 C 0.70783 0.58227 0.2864 0.0
C1459 C 0.70174 0.59873 0.29195 0.0
C1460 C 0.68339 0.59747 0.29684 0.0
H1461 H 0.72591 0.70639 0.2557 0.0
H1462 H 0.71537 0.67397 0.26146 0.0
C1463 C 0.67121 0.5801 0.29573 0.0
C1464 C 0.71372 0.61728 0.29054 0.0
H1465 H 0.72958 0.66075 0.31437 0.0
C1466 C 0.71997 0.62108 0.27282 0.0
C1467 C 0.71797 0.63154 0.30595 0.0
C1468 C 0.71278 0.628 0.32565 0.0
C1469 C 0.72935 0.639 0.26979 0.0
C1470 C 0.73229 0.65359 0.28479 0.0
C1471 C 0.72709 0.64958 0.30283 0.0
C1472 C 0.73916 0.67331 0.28146 0.0
C1473 C 0.73566 0.64226 0.25042 0.0
C1474 C 0.7559 0.68387 0.29113 0.0
C1475 C 0.76203 0.70257 0.28788 0.0
C1476 C 0.75137 0.71101 0.27506 0.0
C1477 C 0.73455 0.70035 0.26558 0.0
C1478 C 0.72851 0.68175 0.26879 0.0
H1479 H 0.73762 0.6291 0.24262 0.0
H1480 H 0.72482 0.6476 0.24186 0.0
H1481 H 0.74897 0.65274 0.25157 0.0
H1482 H 0.76424 0.67761 0.30109 0.0
H1483 H 0.77499 0.71043 0.29548 0.0
H1484 H 0.88227 0.46344 0.78961 0.0
H1485 H 0.86691 0.43081 0.79012 0.0
H1486 H 0.81515 0.44276 0.76571 0.0
H1487 H 0.83048 0.47538 0.76472 0.0
H1488 H 0.83501 0.41176 0.80531 0.0
H1489 H 0.82728 0.40404 0.72608 0.0
H1490 H 0.84158 0.42436 0.73995 0.0
H1491 H 0.81657 0.42173 0.737 0.0
C1492 C 0.86755 0.45922 0.78459 0.0
C1493 C 0.85768 0.47193 0.77679 0.0
C1494 C 0.85879 0.44057 0.78495 0.0
C1495 C 0.84002 0.43435 0.77761 0.0
C1496 C 0.82976 0.44726 0.77108 0.0
H1497 H 0.77741 0.31889 0.77288 0.0
H1498 H 0.78765 0.35275 0.78091 0.0
C1499 C 0.83854 0.46588 0.77056 0.0
C1500 C 0.83181 0.4141 0.77519 0.0
H1501 H 0.81597 0.37737 0.74111 0.0
C1502 C 0.83068 0.40422 0.79131 0.0
C1503 C 0.82645 0.40434 0.75685 0.0
C1504 C 0.82815 0.41408 0.73895 0.0
C1505 C 0.82443 0.38472 0.78954 0.0
C1506 C 0.81913 0.37502 0.7712 0.0
C1507 C 0.82001 0.38494 0.75514 0.0
C1508 C 0.8136 0.35445 0.7681 0.0
C1509 C 0.82413 0.37451 0.80715 0.0
C1510 C 0.82484 0.3443 0.75828 0.0
C1511 C 0.81904 0.32506 0.75361 0.0
C1512 C 0.80181 0.31563 0.75858 0.0
C1513 C 0.79076 0.32577 0.76885 0.0
C1514 C 0.79661 0.34507 0.77354 0.0
H1515 H 0.83133 0.38369 0.81997 0.0
H1516 H 0.80941 0.36921 0.80975 0.0
H1517 H 0.83089 0.36228 0.80513 0.0
H1518 H 0.83798 0.35135 0.75392 0.0
H1519 H 0.82791 0.31767 0.74576 0.0
H1520 H 0.05147 0.82719 0.09815 0.0
H1521 H 0.0443 0.85358 0.08238 0.0
H1522 H 0.98762 0.84057 0.0971 0.0
H1523 H 0.99497 0.81442 0.11365 0.0
H1524 H 0.02018 0.85633 0.05294 0.0
H1525 H 0.00273 0.89449 0.11798 0.0
H1526 H 0.01302 0.87413 0.11889 0.0
H1527 H 0.98849 0.87161 0.11154 0.0
C1528 C 0.03747 0.82992 0.09807 0.0
C1529 C 0.02384 0.81882 0.10732 0.0
C1530 C 0.03336 0.845 0.08897 0.0
C1531 C 0.01549 0.84927 0.08876 0.0
C1532 C 0.00164 0.83785 0.09746 0.0
H1533 H 0.99836 0.94197 0.02027 0.0
H1534 H 0.99324 0.91047 0.03094 0.0
C1535 C 0.00583 0.82286 0.10684 0.0
C1536 C 0.01185 0.86601 0.07979 0.0
H1537 H 0.0015 0.90901 0.08981 0.0
C1538 C 0.01592 0.8678 0.06093 0.0
C1539 C 0.00632 0.88098 0.09026 0.0
C1540 C 0.00253 0.88036 0.11083 0.0
C1541 C 0.01553 0.88445 0.05256 0.0
C1542 C 0.01039 0.89954 0.06317 0.0
C1543 C 0.00537 0.89739 0.08167 0.0
C1544 C 0.01254 0.91846 0.05652 0.0
C1545 C 0.0217 0.88608 0.03288 0.0
C1546 C 0.02467 0.93346 0.06753 0.0
C1547 C 0.02736 0.95135 0.06165 0.0
C1548 C 0.01808 0.95473 0.04452 0.0
C1549 C 0.0058 0.93976 0.03347 0.0
C1550 C 0.00295 0.92176 0.0395 0.0
H1551 H 0.02869 0.87457 0.02822 0.0
H1552 H 0.0093 0.8855 0.02256 0.0
H1553 H 0.03147 0.89961 0.03236 0.0
H1554 H 0.03228 0.93129 0.08066 0.0
H1555 H 0.03696 0.96251 0.07052 0.0
H1556 H 0.93509 0.23872 0.87675 0.0
H1557 H 0.90736 0.23764 0.85471 0.0
H1558 H 0.93889 0.22962 0.8071 0.0
H1559 H 0.96683 0.23061 0.82909 0.0
H1560 H 0.91836 0.25967 0.80613 0.0
H1561 H 0.87418 0.1926 0.81981 0.0
H1562 H 0.88453 0.20742 0.84105 0.0
H1563 H 0.89929 0.19802 0.82545 0.0
C1564 C 0.93612 0.23653 0.8616 0.0
C1565 C 0.95318 0.23476 0.85468 0.0
C1566 C 0.92023 0.2358 0.84904 0.0
C1567 C 0.92107 0.23333 0.82932 0.0
C1568 C 0.93797 0.23137 0.8223 0.0
H1569 H 0.81629 0.22653 0.7559 0.0
H1570 H 0.84714 0.22056 0.76659 0.0
C1571 C 0.95389 0.23193 0.83488 0.0
C1572 C 0.90453 0.2342 0.81623 0.0
H1573 H 0.85831 0.21442 0.80532 0.0
C1574 C 0.90531 0.2496 0.80563 0.0
C1575 C 0.88763 0.22092 0.81547 0.0
C1576 C 0.88633 0.2037 0.82591 0.0
C1577 C 0.88923 0.2527 0.79525 0.0
C1578 C 0.87203 0.24014 0.79562 0.0
C1579 C 0.87153 0.22409 0.80519 0.0
C1580 C 0.85413 0.2444 0.78793 0.0
C1581 C 0.89064 0.2697 0.78445 0.0
C1582 C 0.84794 0.25974 0.79645 0.0
C1583 C 0.83038 0.26309 0.79052 0.0
C1584 C 0.81866 0.25116 0.77594 0.0
C1585 C 0.82505 0.23601 0.76712 0.0
C1586 C 0.84262 0.23256 0.7732 0.0
H1587 H 0.90517 0.27479 0.78105 0.0
H1588 H 0.88115 0.26665 0.771 0.0
H1589 H 0.88649 0.28112 0.79334 0.0
H1590 H 0.8565 0.26884 0.80807 0.0
H1591 H 0.82588 0.27488 0.79761 0.0
H1592 H 0.50362 0.20199 0.63417 0.0
H1593 H 0.50109 0.17144 0.61641 0.0
H1594 H 0.5318 0.19739 0.57314 0.0
H1595 H 0.53461 0.22812 0.59092 0.0
H1596 H 0.48526 0.15861 0.57862 0.0
H1597 H 0.56115 0.15736 0.58877 0.0
H1598 H 0.55088 0.17367 0.60278 0.0
H1599 H 0.55507 0.17733 0.57867 0.0
C1600 C 0.50981 0.20127 0.62085 0.0
C1601 C 0.51942 0.21753 0.61404 0.0
C1602 C 0.50834 0.18378 0.61072 0.0
C1603 C 0.5165 0.18214 0.59362 0.0
C1604 C 0.5257 0.19834 0.58649 0.0
H1605 H 0.51853 0.07713 0.52414 0.0
H1606 H 0.52335 0.11055 0.53528 0.0
C1607 C 0.52718 0.21589 0.59662 0.0
C1608 C 0.51528 0.16338 0.58343 0.0
H1609 H 0.54128 0.13096 0.5716 0.0
C1610 C 0.49751 0.15262 0.57695 0.0
C1611 C 0.53132 0.15565 0.58119 0.0
C1612 C 0.55071 0.16649 0.58831 0.0
C1613 C 0.49531 0.13417 0.56865 0.0
C1614 C 0.51127 0.1262 0.56708 0.0
C1615 C 0.5291 0.13715 0.57289 0.0
C1616 C 0.5095 0.10611 0.56076 0.0
C1617 C 0.47587 0.12326 0.5618 0.0
C1618 C 0.50067 0.09265 0.57171 0.0
C1619 C 0.49796 0.07367 0.56548 0.0
C1620 C 0.5041 0.06775 0.54816 0.0
C1621 C 0.51362 0.08125 0.53753 0.0
C1622 C 0.51635 0.10032 0.54383 0.0
H1623 H 0.46592 0.13266 0.5592 0.0
H1624 H 0.47589 0.11413 0.54847 0.0
H1625 H 0.47072 0.11424 0.57282 0.0
H1626 H 0.49562 0.09685 0.58501 0.0
H1627 H 0.49071 0.06367 0.5741 0.0
H1628 H 0.54324 0.76303 0.3285 0.0
H1629 H 0.56887 0.76287 0.30854 0.0
H1630 H 0.60418 0.75245 0.35657 0.0
H1631 H 0.57878 0.75276 0.3767 0.0
H1632 H 0.62101 0.78138 0.33572 0.0
H1633 H 0.58856 0.71632 0.28893 0.0
H1634 H 0.57474 0.73402 0.29094 0.0
H1635 H 0.58018 0.72242 0.31138 0.0
C1636 C 0.55645 0.76067 0.33483 0.0
C1637 C 0.55894 0.75785 0.35421 0.0
C1638 C 0.57103 0.7605 0.32337 0.0
C1639 C 0.58831 0.75744 0.33105 0.0
C1640 C 0.5909 0.75478 0.35038 0.0
H1641 H 0.68313 0.7247 0.28979 0.0
H1642 H 0.65298 0.72717 0.30079 0.0
C1643 C 0.57635 0.75494 0.36185 0.0
C1644 C 0.60389 0.75722 0.31912 0.0
H1645 H 0.6183 0.732 0.28257 0.0
C1646 C 0.62039 0.77071 0.32397 0.0
C1647 C 0.60298 0.74319 0.30389 0.0
C1648 C 0.58574 0.72805 0.29848 0.0
C1649 C 0.63624 0.77031 0.31429 0.0
C1650 C 0.63541 0.75618 0.29917 0.0
C1651 C 0.61877 0.74292 0.29403 0.0
C1652 C 0.6523 0.75379 0.29001 0.0
C1653 C 0.65399 0.78447 0.32088 0.0
C1654 C 0.66156 0.76763 0.27968 0.0
C1655 C 0.67887 0.76629 0.27336 0.0
C1656 C 0.68713 0.75106 0.27732 0.0
C1657 C 0.67723 0.73669 0.28666 0.0
C1658 C 0.65997 0.73804 0.29291 0.0
H1659 H 0.65319 0.79233 0.33479 0.0
H1660 H 0.66616 0.77753 0.32222 0.0
H1661 H 0.65656 0.79468 0.31022 0.0
H1662 H 0.6557 0.77977 0.27707 0.0
H1663 H 0.68613 0.77755 0.26614 0.0
H1664 H 0.01635 0.19316 0.40235 0.0
H1665 H 0.01599 0.16688 0.42148 0.0
H1666 H 0.0109 0.20232 0.4717 0.0
H1667 H 0.01146 0.22873 0.4528 0.0
H1668 H 0.03798 0.18089 0.47714 0.0
H1669 H 0.97073 0.1373 0.44368 0.0
H1670 H 0.98691 0.14466 0.42683 0.0
H1671 H 0.9777 0.16181 0.44067 0.0
C1672 C 0.0151 0.19537 0.41745 0.0
C1673 C 0.01387 0.21304 0.42602 0.0
C1674 C 0.01478 0.18031 0.42833 0.0
C1675 C 0.01311 0.18262 0.44793 0.0
C1676 C 0.01208 0.20025 0.45657 0.0
H1677 H 0.99279 0.08449 0.51161 0.0
H1678 H 0.99094 0.1151 0.50093 0.0
C1679 C 0.01239 0.21531 0.44572 0.0
C1680 C 0.01301 0.16674 0.45951 0.0
H1681 H 0.99024 0.12212 0.46304 0.0
C1682 C 0.02743 0.1681 0.47422 0.0
C1683 C 0.99903 0.15024 0.4559 0.0
C1684 C 0.9826 0.14843 0.44104 0.0
C1685 C 0.02875 0.15302 0.48483 0.0
C1686 C 0.01543 0.13612 0.48042 0.0
C1687 C 0.00051 0.13507 0.46632 0.0
C1688 C 0.01751 0.11888 0.48907 0.0
C1689 C 0.04449 0.15525 0.50054 0.0
C1690 C 0.03314 0.11103 0.48612 0.0
C1691 C 0.03422 0.09363 0.49216 0.0
C1692 C 0.01964 0.08368 0.50118 0.0
C1693 C 0.00428 0.09186 0.50478 0.0
C1694 C 0.00318 0.1093 0.49865 0.0
H1695 H 0.04964 0.17018 0.50608 0.0
H1696 H 0.04004 0.1472 0.51252 0.0
H1697 H 0.05634 0.14996 0.49486 0.0
H1698 H 0.04417 0.118 0.47843 0.0
H1699 H 0.04624 0.08771 0.48917 0.0
H1700 H 0.56932 0.26396 0.14225 0.0
H1701 H 0.59933 0.26546 0.16059 0.0
H1702 H 0.57135 0.23616 0.20365 0.0
H1703 H 0.54108 0.23435 0.18522 0.0
H1704 H 0.61182 0.28149 0.1981 0.0
H1705 H 0.61044 0.20499 0.18966 0.0
H1706 H 0.59484 0.21559 0.17509 0.0
H1707 H 0.59071 0.21216 0.19926 0.0
C1708 C 0.56946 0.25785 0.15563 0.0
C1709 C 0.55276 0.24894 0.1622 0.0
C1710 C 0.58666 0.25873 0.16611 0.0
C1711 C 0.58757 0.25069 0.18333 0.0
C1712 C 0.57095 0.24216 0.19021 0.0
H1713 H 0.69217 0.25061 0.25467 0.0
H1714 H 0.65872 0.24532 0.24353 0.0
C1715 C 0.55367 0.24126 0.17972 0.0
C1716 C 0.60606 0.25141 0.19388 0.0
H1717 H 0.63741 0.22443 0.20628 0.0
C1718 C 0.61734 0.26901 0.20007 0.0
C1719 C 0.61319 0.23508 0.19647 0.0
C1720 C 0.60178 0.21585 0.18969 0.0
C1721 C 0.63575 0.27075 0.20829 0.0
C1722 C 0.64312 0.25448 0.21016 0.0
C1723 C 0.63165 0.23684 0.20475 0.0
C1724 C 0.66314 0.25578 0.21631 0.0
C1725 C 0.64736 0.29 0.21457 0.0
C1726 C 0.67656 0.2628 0.20441 0.0
C1727 C 0.69556 0.26576 0.21063 0.0
C1728 C 0.70151 0.26175 0.22893 0.0
C1729 C 0.68803 0.25386 0.24051 0.0
C1730 C 0.66894 0.25085 0.23421 0.0
H1731 H 0.63853 0.30063 0.21628 0.0
H1732 H 0.65599 0.2901 0.22825 0.0
H1733 H 0.65697 0.29414 0.20368 0.0
H1734 H 0.6723 0.26646 0.19044 0.0
H1735 H 0.70555 0.27173 0.20129 0.0
H1736 H 0.53175 0.83759 0.9053 0.0
H1737 H 0.53295 0.86437 0.9286 0.0
H1738 H 0.54333 0.83115 0.9742 0.0
H1739 H 0.54205 0.80414 0.95096 0.0
H1740 H 0.51393 0.84979 0.97876 0.0
H1741 H 0.57688 0.89843 0.96216 0.0
H1742 H 0.56112 0.889 0.94132 0.0
H1743 H 0.57229 0.87364 0.95465 0.0
C1744 C 0.53453 0.836 0.92026 0.0
C1745 C 0.53678 0.8187 0.92626 0.0
C1746 C 0.53535 0.85137 0.93356 0.0
C1747 C 0.5385 0.84979 0.95309 0.0
C1748 C 0.54104 0.83267 0.95916 0.0
H1749 H 0.54331 0.95291 0.0283 0.0
H1750 H 0.55089 0.92295 0.01699 0.0
C1751 C 0.54031 0.81727 0.94585 0.0
C1752 C 0.53748 0.86564 0.96706 0.0
H1753 H 0.55447 0.91236 0.97833 0.0
C1754 C 0.52303 0.86339 0.97897 0.0
C1755 C 0.54953 0.88328 0.96752 0.0
C1756 C 0.56595 0.88622 0.95587 0.0
C1757 C 0.5195 0.87866 0.99035 0.0
C1758 C 0.5306 0.8966 0.9896 0.0
C1759 C 0.54587 0.8986 0.97874 0.0
C1760 C 0.52535 0.91369 0.99814 0.0
C1761 C 0.50357 0.8756 0.00263 0.0
C1762 C 0.50848 0.91829 0.99131 0.0
C1763 C 0.50418 0.93532 0.99762 0.0
C1764 C 0.5167 0.94813 0.01086 0.0
C1765 C 0.53335 0.94328 0.01816 0.0
C1766 C 0.53772 0.92622 0.01171 0.0
H1767 H 0.50041 0.86095 0.00629 0.0
H1768 H 0.50675 0.8852 0.01599 0.0
H1769 H 0.49082 0.87834 0.9947 0.0
H1770 H 0.49892 0.90897 0.98056 0.0
H1771 H 0.49124 0.93865 0.99172 0.0
H1772 H 0.95021 0.77098 0.65955 0.0
H1773 H 0.92344 0.77782 0.67528 0.0
H1774 H 0.92801 0.73465 0.71209 0.0
H1775 H 0.95446 0.72751 0.69628 0.0
H1776 H 0.89291 0.73111 0.69493 0.0
H1777 H 0.91917 0.80408 0.72737 0.0
H1778 H 0.92157 0.80073 0.70238 0.0
H1779 H 0.93448 0.78937 0.71882 0.0
C1780 C 0.94564 0.76309 0.67114 0.0
C1781 C 0.95441 0.74864 0.6766 0.0
C1782 C 0.93043 0.76712 0.68022 0.0
C1783 C 0.92387 0.75691 0.69504 0.0
C1784 C 0.93288 0.74276 0.70075 0.0
H1785 H 0.83227 0.76629 0.76466 0.0
H1786 H 0.86374 0.76777 0.7545 0.0
C1787 C 0.94799 0.73868 0.69166 0.0
C1788 C 0.90664 0.75972 0.70348 0.0
H1789 H 0.88631 0.7921 0.72674 0.0
C1790 C 0.89156 0.74442 0.70201 0.0
C1791 C 0.90492 0.77705 0.71286 0.0
C1792 C 0.92095 0.79372 0.71565 0.0
C1793 C 0.87468 0.74606 0.70924 0.0
C1794 C 0.87271 0.76354 0.71796 0.0
C1795 C 0.88788 0.77877 0.7199 0.0
C1796 C 0.85463 0.76607 0.72446 0.0
C1797 C 0.85898 0.72909 0.70741 0.0
C1798 C 0.83934 0.76535 0.71096 0.0
C1799 C 0.82148 0.76446 0.71666 0.0
C1800 C 0.81856 0.76432 0.73601 0.0
C1801 C 0.8341 0.76639 0.74966 0.0
C1802 C 0.85205 0.76722 0.7439 0.0
H1803 H 0.86395 0.71594 0.70392 0.0
H1804 H 0.85217 0.72807 0.7208 0.0
H1805 H 0.84825 0.73036 0.69584 0.0
H1806 H 0.84111 0.7646 0.69591 0.0
H1807 H 0.80982 0.76308 0.70581 0.0
H1808 H 0.08582 0.0335 0.82863 0.0
H1809 H 0.06735 0.02589 0.85496 0.0
H1810 H 0.08304 0.9721 0.85398 0.0
H1811 H 0.10214 0.9799 0.82786 0.0
H1812 H 0.03767 0.99846 0.85848 0.0
H1813 H 0.09815 0.9926 0.90891 0.0
H1814 H 0.10108 0.00182 0.88633 0.0
H1815 H 0.09452 0.97702 0.88738 0.0
C1816 C 0.08539 0.02004 0.83399 0.0
C1817 C 0.09561 0.00737 0.82626 0.0
C1818 C 0.07473 0.01567 0.84902 0.0
C1819 C 0.07396 0.99852 0.85665 0.0
C1820 C 0.08373 0.98559 0.84862 0.0
H1821 H 0.99779 0.97449 0.94689 0.0
H1822 H 0.01113 0.97102 0.91637 0.0
C1823 C 0.09459 0.99003 0.83365 0.0
C1824 C 0.06332 0.9947 0.87333 0.0
H1825 H 0.06875 0.98839 0.9205 0.0
C1826 C 0.04439 0.99606 0.87201 0.0
C1827 C 0.07215 0.99164 0.891 0.0
C1828 C 0.09262 0.99083 0.89363 0.0
C1829 C 0.03427 0.99522 0.88802 0.0
C1830 C 0.04323 0.99256 0.90575 0.0
C1831 C 0.0619 0.99036 0.90687 0.0
C1832 C 0.03446 0.99438 0.92379 0.0
C1833 C 0.01444 0.99822 0.88606 0.0
C1834 C 0.04317 0.00852 0.93809 0.0
C1835 C 0.03575 0.01039 0.95543 0.0
C1836 C 0.01934 0.9982 0.95896 0.0
C1837 C 0.01037 0.98417 0.94454 0.0
C1838 C 0.01795 0.98221 0.9271 0.0
H1839 H 0.01077 0.00345 0.87227 0.0
H1840 H 0.00468 0.98476 0.88689 0.0
H1841 H 0.01225 0.00834 0.8978 0.0
H1842 H 0.05584 0.01814 0.93586 0.0
H1843 H 0.04301 0.02143 0.96613 0.0
H1844 H 0.74559 0.32258 0.54393 0.0
H1845 H 0.74589 0.30034 0.5676 0.0
H1846 H 0.74921 0.3448 0.61247 0.0
H1847 H 0.74861 0.36721 0.58885 0.0
H1848 H 0.77354 0.30052 0.5961 0.0
H1849 H 0.70681 0.30474 0.62591 0.0
H1850 H 0.71261 0.31381 0.60379 0.0
H1851 H 0.72202 0.32715 0.62617 0.0
C1852 C 0.74623 0.32765 0.55883 0.0
C1853 C 0.74706 0.34669 0.56451 0.0
C1854 C 0.7464 0.31489 0.57232 0.0
C1855 C 0.74734 0.32088 0.59174 0.0
C1856 C 0.74808 0.33984 0.5975 0.0
H1857 H 0.78665 0.27697 0.69063 0.0
H1858 H 0.78325 0.29081 0.66083 0.0
C1859 C 0.74784 0.35264 0.584 0.0
C1860 C 0.74848 0.30745 0.60599 0.0
H1861 H 0.72799 0.2902 0.64396 0.0
C1862 C 0.76347 0.29808 0.60644 0.0
C1863 C 0.73513 0.30404 0.61922 0.0
C1864 C 0.71813 0.31281 0.61867 0.0
C1865 C 0.76592 0.28599 0.62032 0.0
C1866 C 0.75321 0.28349 0.63426 0.0
C1867 C 0.73778 0.29223 0.63331 0.0
C1868 C 0.75637 0.2731 0.65082 0.0
C1869 C 0.78216 0.27613 0.61999 0.0
C1870 C 0.74242 0.25843 0.65504 0.0
C1871 C 0.74425 0.25054 0.6722 0.0
C1872 C 0.75999 0.25735 0.68547 0.0
C1873 C 0.77435 0.27139 0.68073 0.0
C1874 C 0.7725 0.27926 0.66362 0.0
H1875 H 0.78656 0.27449 0.60543 0.0
H1876 H 0.79425 0.28457 0.62942 0.0
H1877 H 0.77861 0.2621 0.62513 0.0
H1878 H 0.72983 0.25355 0.64536 0.0
H1879 H 0.73293 0.23976 0.67543 0.0
H1880 H 0.42328 0.06272 0.33018 0.0
H1881 H 0.44267 0.07221 0.36079 0.0
H1882 H 0.46722 0.02358 0.35249 0.0
H1883 H 0.44844 0.01432 0.32214 0.0
H1884 H 0.44216 0.05384 0.39162 0.0
H1885 H 0.51324 0.06261 0.36985 0.0
H1886 H 0.4931 0.06197 0.35304 0.0
H1887 H 0.49991 0.04059 0.35893 0.0
C1888 C 0.433 0.05422 0.33483 0.0
C1889 C 0.43433 0.03778 0.32373 0.0
C1890 C 0.44411 0.05969 0.35225 0.0
C1891 C 0.45679 0.04888 0.35869 0.0
C1892 C 0.45808 0.03253 0.34755 0.0
H1893 H 0.48031 0.00494 0.4564 0.0
H1894 H 0.46929 0.01765 0.42806 0.0
C1895 C 0.4471 0.02712 0.33025 0.0
C1896 C 0.46721 0.0531 0.37792 0.0
H1897 H 0.50917 0.05021 0.401 0.0
C1898 C 0.45695 0.05367 0.39371 0.0
C1899 C 0.48664 0.05346 0.38083 0.0
C1900 C 0.49885 0.05485 0.36471 0.0
C1901 C 0.46512 0.05232 0.41202 0.0
C1902 C 0.48383 0.04987 0.41441 0.0
C1903 C 0.49468 0.05159 0.39906 0.0
C1904 C 0.4912 0.04255 0.43167 0.0
C1905 C 0.45332 0.05246 0.42845 0.0
C1906 C 0.5078 0.05184 0.44259 0.0
C1907 C 0.51435 0.04442 0.45884 0.0
C1908 C 0.50439 0.02759 0.46424 0.0
C1909 C 0.4882 0.01805 0.45278 0.0
C1910 C 0.48176 0.02539 0.43666 0.0
H1911 H 0.44275 0.06127 0.42616 0.0
H1912 H 0.44566 0.03802 0.42955 0.0
H1913 H 0.46202 0.05775 0.44214 0.0
H1914 H 0.51546 0.06495 0.43874 0.0
H1915 H 0.52686 0.05207 0.46742 0.0
H1916 H 0.75368 0.68902 0.04601 0.0
H1917 H 0.75576 0.70661 0.07737 0.0
H1918 H 0.78329 0.66632 0.10257 0.0
H1919 H 0.78149 0.6488 0.07143 0.0
H1920 H 0.74057 0.69381 0.11009 0.0
H1921 H 0.81756 0.71624 0.12312 0.0
H1922 H 0.80566 0.70766 0.09977 0.0
H1923 H 0.81014 0.69155 0.11655 0.0
C1924 C 0.76036 0.684 0.0582 0.0
C1925 C 0.76749 0.66752 0.05617 0.0
C1926 C 0.76149 0.69406 0.0761 0.0
C1927 C 0.76991 0.68791 0.09224 0.0
C1928 C 0.77708 0.67153 0.09024 0.0
H1929 H 0.78602 0.70617 0.21239 0.0
H1930 H 0.78272 0.69587 0.17846 0.0
C1931 C 0.77594 0.66147 0.07241 0.0
C1932 C 0.77057 0.69805 0.11136 0.0
H1933 H 0.80054 0.71772 0.15046 0.0
C1934 C 0.75367 0.69933 0.11884 0.0
C1935 C 0.78769 0.70532 0.12268 0.0
C1936 C 0.8063 0.70531 0.11506 0.0
C1937 C 0.75343 0.70677 0.13775 0.0
C1938 C 0.77054 0.71321 0.1493 0.0
C1939 C 0.78744 0.71264 0.14156 0.0
C1940 C 0.77129 0.7193 0.16986 0.0
C1941 C 0.73492 0.70687 0.14553 0.0
C1942 C 0.76577 0.73585 0.17628 0.0
C1943 C 0.76764 0.74183 0.19579 0.0
C1944 C 0.77512 0.73136 0.20911 0.0
C1945 C 0.78024 0.71461 0.20256 0.0
C1946 C 0.7784 0.70869 0.18315 0.0
H1947 H 0.72294 0.69893 0.13557 0.0
H1948 H 0.73462 0.70079 0.15935 0.0
H1949 H 0.73307 0.72151 0.14809 0.0
H1950 H 0.76044 0.74433 0.1662 0.0
H1951 H 0.76364 0.75483 0.20038 0.0
H1952 H 0.12377 0.99418 0.70928 0.0
H1953 H 0.10569 0.99271 0.6785 0.0
H1954 H 0.06576 0.01967 0.70513 0.0
H1955 H 0.08392 0.02142 0.73614 0.0
H1956 H 0.06783 0.97549 0.66723 0.0
H1957 H 0.08134 0.05226 0.66202 0.0
H1958 H 0.09497 0.04182 0.67886 0.0
H1959 H 0.07174 0.04431 0.68311 0.0
C1960 C 0.11114 -0.0002 0.70867 0.0
C1961 C 0.10536 0.00801 0.7252 0.0
C1962 C 0.10081 0.99892 0.69104 0.0
C1963 C 0.08454 0.0063 0.68951 0.0
C1964 C 0.07847 0.01418 0.70598 0.0
H1965 H 0.01775 0.00938 0.58033 0.0
H1966 H 0.02746 0.01285 0.61474 0.0
C1967 C 0.0888 0.01506 0.72369 0.0
C1968 C 0.07411 0.00559 0.67054 0.0
H1969 H 0.06401 0.03281 0.63583 0.0
C1970 C 0.0668 0.98803 0.66045 0.0
C1971 C 0.07271 0.02198 0.66177 0.0
C1972 C 0.08068 0.0412 0.67187 0.0
C1973 C 0.05866 0.98639 0.6416 0.0
C1974 C 0.05806 0.00274 0.63255 0.0
C1975 C 0.06454 0.02033 0.64287 0.0
C1976 C 0.05245 0.00171 0.61188 0.0
C1977 C 0.05114 0.96716 0.63135 0.0
C1978 C 0.06356 0.99481 0.599 0.0
C1979 C 0.05816 0.9929 0.57949 0.0
C1980 C 0.04149 0.99787 0.57243 0.0
C1981 C 0.03063 0.00538 0.58534 0.0
C1982 C 0.03613 0.00735 0.60496 0.0
H1983 H 0.04808 0.95647 0.64148 0.0
H1984 H 0.03819 0.96693 0.62191 0.0
H1985 H 0.06174 0.96319 0.62238 0.0
H1986 H 0.07637 0.99067 0.60409 0.0
H1987 H 0.06693 0.98719 0.56998 0.0
H1988 H 0.72436 0.35662 0.44756 0.0
H1989 H 0.71906 0.3367 0.41724 0.0
H1990 H 0.73804 0.2928 0.4454 0.0
H1991 H 0.74424 0.31299 0.47537 0.0
H1992 H 0.75678 0.30012 0.41694 0.0
H1993 H 0.68214 0.29263 0.3913 0.0
H1994 H 0.69319 0.31676 0.39684 0.0
H1995 H 0.6913 0.30146 0.4155 0.0
C1996 C 0.72697 0.34256 0.44728 0.0
C1997 C 0.73487 0.33637 0.46366 0.0
C1998 C 0.72379 0.33111 0.43 0.0
C1999 C 0.72798 0.31314 0.42904 0.0
C2000 C 0.73472 0.30659 0.44576 0.0
H2001 H 0.73629 0.24081 0.325 0.0
H2002 H 0.72825 0.24971 0.35703 0.0
C2003 C 0.73828 0.31814 0.46286 0.0
C2004 C 0.72804 0.30231 0.41039 0.0
H2005 H 0.7028 0.28741 0.3672 0.0
C2006 C 0.74479 0.29694 0.40627 0.0
C2007 C 0.71243 0.29814 0.39641 0.0
C2008 C 0.69371 0.30239 0.40032 0.0
C2009 C 0.74663 0.28839 0.38832 0.0
C2010 C 0.73142 0.28524 0.37408 0.0
C2011 C 0.71442 0.28988 0.37827 0.0
C2012 C 0.73393 0.27938 0.35425 0.0
C2013 C 0.76513 0.28358 0.3843 0.0
C2014 C 0.73964 0.29315 0.34228 0.0
C2015 C 0.74445 0.2882 0.32425 0.0
C2016 C 0.74351 0.26932 0.31777 0.0
C2017 C 0.73716 0.25545 0.3296 0.0
C2018 C 0.73249 0.26048 0.34781 0.0
H2019 H 0.77538 0.28618 0.39719 0.0
H2020 H 0.76299 0.26863 0.37867 0.0
H2021 H 0.77115 0.29206 0.37322 0.0
H2022 H 0.74095 0.30781 0.34714 0.0
H2023 H 0.74919 0.29925 0.31551 0.0
H2024 H 0.40939 0.02646 0.19792 0.0
H2025 H 0.43216 0.026 0.1747 0.0
H2026 H 0.47638 0.03141 0.22028 0.0
H2027 H 0.45364 0.03132 0.24358 0.0
H2028 H 0.46311 0.05104 0.1688 0.0
H2029 H 0.48264 0.98506 0.18842 0.0
H2030 H 0.46284 0.99318 0.19695 0.0
H2031 H 0.48612 0.00334 0.20766 0.0
C2032 C 0.42396 0.02761 0.20301 0.0
C2033 C 0.42968 0.02872 0.22257 0.0
C2034 C 0.43696 0.02736 0.18974 0.0
C2035 C 0.4559 0.02831 0.19577 0.0
C2036 C 0.46177 0.03017 0.21531 0.0
H2037 H 0.53358 0.04137 0.10734 0.0
H2038 H 0.52154 0.04627 0.13818 0.0
C2039 C 0.44876 0.03022 0.22859 0.0
C2040 C 0.46933 0.02703 0.18149 0.0
H2041 H 0.49843 -0.00016 0.16449 0.0
C2042 C 0.47096 0.03995 0.16792 0.0
C2043 C 0.47945 0.01244 0.18036 0.0
C2044 C 0.4776 0.9976 0.194 0.0
C2045 C 0.48196 0.03836 0.15284 0.0
C2046 C 0.49202 0.02372 0.15166 0.0
C2047 C 0.49087 0.01116 0.16559 0.0
C2048 C 0.5018 0.01981 0.1348 0.0
C2049 C 0.48185 0.05174 0.13779 0.0
C2050 C 0.49559 0.00281 0.12333 0.0
C2051 C 0.50262 -0.00016 0.10593 0.0
C2052 C 0.51594 0.01389 0.09959 0.0
C2053 C 0.52317 0.03037 0.11173 0.0
C2054 C 0.51621 0.03326 0.12928 0.0
H2055 H 0.47041 0.05963 0.13878 0.0
H2056 H 0.49532 0.06201 0.13959 0.0
H2057 H 0.48024 0.04416 0.12331 0.0
H2058 H 0.48458 0.99218 0.12739 0.0
H2059 H 0.49685 0.98691 0.09702 0.0
H2060 H 0.73886 0.68662 0.9521 0.0
H2061 H 0.7459 0.70504 0.92559 0.0
H2062 H 0.80058 0.69129 0.92702 0.0
H2063 H 0.79333 0.6722 0.95325 0.0
H2064 H 0.77197 0.73527 0.92182 0.0
H2065 H 0.7813 0.67571 0.87215 0.0
H2066 H 0.77209 0.67242 0.89468 0.0
H2067 H 0.79683 0.68 0.89374 0.0
C2068 C 0.75239 0.68746 0.94678 0.0
C2069 C 0.76547 0.67778 0.95467 0.0
C2070 C 0.75643 0.69808 0.93164 0.0
C2071 C 0.77367 0.69938 0.92408 0.0
C2072 C 0.787 0.69016 0.93228 0.0
H2073 H 0.79646 0.77655 0.83442 0.0
H2074 H 0.79973 0.76328 0.86501 0.0
C2075 C 0.78288 0.67931 0.94733 0.0
C2076 C 0.77724 0.71007 0.90736 0.0
H2077 H 0.78506 0.70512 0.86056 0.0
C2078 C 0.775 0.72874 0.90845 0.0
C2079 C 0.78111 0.70151 0.88988 0.0
C2080 C 0.78282 0.68127 0.8874 0.0
C2081 C 0.77578 0.73883 0.89241 0.0
C2082 C 0.77936 0.73016 0.87489 0.0
C2083 C 0.7824 0.71178 0.87402 0.0
C2084 C 0.77771 0.73884 0.85676 0.0
C2085 C 0.77178 0.75829 0.89412 0.0
C2086 C 0.76447 0.72948 0.84193 0.0
C2087 C 0.76277 0.73684 0.82455 0.0
C2088 C 0.77422 0.75387 0.82147 0.0
C2089 C 0.78737 0.76347 0.83639 0.0
C2090 C 0.78919 0.75593 0.85388 0.0
H2091 H 0.76572 0.7615 0.90756 0.0
H2092 H 0.785 0.76862 0.89396 0.0
H2093 H 0.76195 0.7601 0.88195 0.0
H2094 H 0.75539 0.71635 0.8438 0.0
H2095 H 0.7524 0.72908 0.81347 0.0
H2096 H 0.81428 0.07831 0.04687 0.0
H2097 H 0.8379 0.06194 0.03575 0.0
H2098 H 0.84004 0.09182 0.98587 0.0
H2099 H 0.81647 0.1086 0.99709 0.0
H2100 H 0.83865 0.03909 0.00186 0.0
H2101 H 0.89445 0.10365 0.01027 0.0
H2102 H 0.8725 0.10287 0.02024 0.0
H2103 H 0.87358 0.10397 0.99514 0.0
C2104 C 0.81971 0.08142 0.0335 0.0
C2105 C 0.81362 0.09491 0.02296 0.0
C2106 C 0.83315 0.07196 0.02712 0.0
C2107 C 0.84083 0.07577 0.01007 0.0
C2108 C 0.83446 0.08886 0.9992 0.0
H2109 H 0.92778 0.01343 0.97624 0.0
H2110 H 0.89898 0.02601 0.97286 0.0
C2111 C 0.82099 0.09841 0.00561 0.0
C2112 C 0.85617 0.06659 0.00448 0.0
H2113 H 0.9034 0.0752 0.00258 0.0
C2114 C 0.85276 0.04696 0.00163 0.0
C2115 C 0.87456 0.07694 0.00429 0.0
C2116 C 0.87914 0.09801 0.00776 0.0
C2117 C 0.86744 0.0374 0.9995 0.0
C2118 C 0.88589 0.04775 0.00017 0.0
C2119 C 0.88916 0.06736 0.002 0.0
C2120 C 0.90227 0.03876 0.00195 0.0
C2121 C 0.86336 0.01632 0.99775 0.0
C2122 C 0.91339 0.04158 0.01942 0.0
C2123 C 0.92965 0.03448 0.02137 0.0
C2124 C 0.93523 0.02443 0.00585 0.0
C2125 C 0.92377 0.02104 0.98845 0.0
C2126 C 0.90737 0.02823 0.9865 0.0
H2127 H 0.84833 0.01034 0.99846 0.0
H2128 H 0.86748 0.0109 0.98399 0.0
H2129 H 0.87176 0.01137 0.00931 0.0
H2130 H 0.90961 0.04958 0.03152 0.0
H2131 H 0.93806 0.03724 0.03501 0.0
H2132 H 0.3216 0.39864 0.02567 0.0
H2133 H 0.35186 0.41874 0.02348 0.0
H2134 H 0.33496 0.46426 0.05536 0.0
H2135 H 0.30445 0.44417 0.05774 0.0
H2136 H 0.35771 0.45434 0.00715 0.0
H2137 H 0.38665 0.46011 0.08321 0.0
H2138 H 0.3674 0.44162 0.07308 0.0
H2139 H 0.36368 0.46494 0.07808 0.0
C2140 C 0.32427 0.41289 0.03233 0.0
C2141 C 0.31057 0.41977 0.04192 0.0
C2142 C 0.34158 0.42436 0.03102 0.0
C2143 C 0.34566 0.44291 0.03937 0.0
C2144 C 0.33212 0.4499 0.04902 0.0
H2145 H 0.45536 0.51855 0.04032 0.0
H2146 H 0.42249 0.50723 0.04529 0.0
C2147 C 0.31469 0.43842 0.05029 0.0
C2148 C 0.36402 0.45484 0.03743 0.0
H2149 H 0.40649 0.47426 0.06187 0.0
C2150 C 0.36832 0.45889 0.01913 0.0
C2151 C 0.37773 0.46088 0.05313 0.0
C2152 C 0.3738 0.45665 0.07302 0.0
C2153 C 0.38619 0.4683 0.01601 0.0
C2154 C 0.40022 0.47346 0.03155 0.0
C2155 C 0.39569 0.47023 0.04999 0.0
C2156 C 0.42 0.48058 0.02863 0.0
C2157 C 0.39 0.47237 0.99604 0.0
C2158 C 0.4295 0.46921 0.01791 0.0
C2159 C 0.44816 0.47557 0.01508 0.0
C2160 C 0.45779 0.49344 0.023 0.0
C2161 C 0.44831 0.50476 0.03396 0.0
C2162 C 0.42956 0.49832 0.03683 0.0
H2163 H 0.37693 0.47287 0.98711 0.0
H2164 H 0.40002 0.48586 0.99608 0.0
H2165 H 0.39618 0.46109 0.98933 0.0
H2166 H 0.42249 0.45531 0.01181 0.0
H2167 H 0.45503 0.46641 0.00669 0.0
H2168 H 0.32783 0.5587 0.7159 0.0
H2169 H 0.3132 0.58528 0.72324 0.0
H2170 H 0.34655 0.59801 0.77758 0.0
H2171 H 0.36156 0.57149 0.77021 0.0
H2172 H 0.2927 0.59396 0.75303 0.0
H2173 H 0.35822 0.64707 0.75318 0.0
H2174 H 0.35617 0.62295 0.74407 0.0
H2175 H 0.3593 0.62959 0.7693 0.0
C2176 C 0.33208 0.56711 0.72944 0.0
C2177 C 0.34601 0.56306 0.7424 0.0
C2178 C 0.32363 0.58227 0.73364 0.0
C2179 C 0.32892 0.59377 0.75085 0.0
C2180 C 0.34247 0.58951 0.76407 0.0
H2181 H 0.27039 0.68434 0.78443 0.0
H2182 H 0.28235 0.65524 0.78418 0.0
C2183 C 0.35099 0.57432 0.75986 0.0
C2184 C 0.32058 0.61049 0.75449 0.0
H2185 H 0.33111 0.65822 0.75936 0.0
C2186 C 0.30109 0.60803 0.75459 0.0
C2187 C 0.33155 0.62882 0.75634 0.0
C2188 C 0.35245 0.63238 0.75558 0.0
C2189 C 0.29225 0.62341 0.75613 0.0
C2190 C 0.30323 0.64171 0.75783 0.0
C2191 C 0.32274 0.64416 0.75815 0.0
C2192 C 0.29479 0.65856 0.75773 0.0
C2193 C 0.2712 0.61998 0.75516 0.0
C2194 C 0.29777 0.67003 0.74297 0.0
C2195 C 0.29107 0.68658 0.74312 0.0
C2196 C 0.28125 0.69213 0.75808 0.0
C2197 C 0.2778 0.6804 0.77265 0.0
C2198 C 0.2846 0.66376 0.77251 0.0
H2199 H 0.26463 0.60517 0.75029 0.0
H2200 H 0.26704 0.6234 0.76952 0.0
H2201 H 0.2656 0.62909 0.74538 0.0
H2202 H 0.30554 0.66627 0.7314 0.0
H2203 H 0.29391 0.69521 0.73161 0.0
H2204 H 0.21178 0.61845 0.50424 0.0
H2205 H 0.18066 0.59896 0.50366 0.0
H2206 H 0.20087 0.5689 0.54798 0.0
H2207 H 0.2323 0.58834 0.54866 0.0
H2208 H 0.17106 0.55461 0.50027 0.0
H2209 H 0.1542 0.59404 0.56518 0.0
H2210 H 0.17121 0.60501 0.55046 0.0
H2211 H 0.17659 0.58733 0.56471 0.0
C2212 C 0.2097 0.60765 0.51382 0.0
C2213 C 0.2245 0.605 0.52658 0.0
C2214 C 0.19193 0.5965 0.5134 0.0
C2215 C 0.18858 0.58262 0.52581 0.0
C2216 C 0.2033 0.57961 0.53833 0.0
H2217 H 0.07485 0.51301 0.51907 0.0
H2218 H 0.10878 0.52263 0.52746 0.0
C2219 C 0.22119 0.5907 0.53867 0.0
C2220 C 0.16938 0.57191 0.52589 0.0
H2221 H 0.12937 0.57298 0.54692 0.0
C2222 C 0.162 0.55824 0.5107 0.0
C2223 C 0.15772 0.57688 0.53949 0.0
C2224 C 0.16519 0.59163 0.55594 0.0
C2225 C 0.14292 0.54994 0.5083 0.0
C2226 C 0.13108 0.5556 0.52137 0.0
C2227 C 0.13862 0.56866 0.53703 0.0
C2228 C 0.11061 0.54995 0.51755 0.0
C2229 C 0.13524 0.536 0.49124 0.0
C2230 C 0.10058 0.56227 0.50945 0.0
C2231 C 0.08134 0.55684 0.50454 0.0
C2232 C 0.0718 0.53901 0.5078 0.0
C2233 C 0.08184 0.52685 0.51641 0.0
C2234 C 0.10117 0.53227 0.52119 0.0
H2235 H 0.14633 0.53317 0.48231 0.0
H2236 H 0.1282 0.52263 0.49604 0.0
H2237 H 0.1246 0.54131 0.48235 0.0
H2238 H 0.10773 0.57598 0.50656 0.0
H2239 H 0.074 0.56656 0.49803 0.0
H2240 H 0.68203 0.95177 0.73601 0.0
H2241 H 0.69946 0.92922 0.74775 0.0
H2242 H 0.67344 0.93089 0.80005 0.0
H2243 H 0.65557 0.95337 0.78821 0.0
H2244 H 0.72463 0.93117 0.78035 0.0
H2245 H 0.66103 0.87527 0.78014 0.0
H2246 H 0.66049 0.89617 0.76858 0.0
H2247 H 0.66161 0.89708 0.79405 0.0
C2248 C 0.67998 0.94739 0.75003 0.0
C2249 C 0.66726 0.95423 0.7611 0.0
C2250 C 0.69005 0.93457 0.75676 0.0
C2251 C 0.68765 0.92828 0.7747 0.0
C2252 C 0.67531 0.93538 0.78605 0.0
H2253 H 0.75528 0.84464 0.80628 0.0
H2254 H 0.74208 0.873 0.8105 0.0
C2255 C 0.66513 0.94823 0.77928 0.0
C2256 C 0.6975 0.91359 0.78077 0.0
H2257 H 0.69006 0.86692 0.78578 0.0
C2258 C 0.71713 0.91719 0.78196 0.0
C2259 C 0.68762 0.89538 0.7828 0.0
C2260 C 0.66653 0.89059 0.78123 0.0
C2261 C 0.72708 0.9028 0.78401 0.0
C2262 C 0.71712 0.88445 0.78504 0.0
C2263 C 0.69761 0.88108 0.78506 0.0
C2264 C 0.72611 0.86811 0.7828 0.0
C2265 C 0.74803 0.90699 0.78376 0.0
C2266 C 0.72161 0.85621 0.76583 0.0
C2267 C 0.72904 0.8402 0.7634 0.0
C2268 C 0.74114 0.83567 0.77792 0.0
C2269 C 0.74606 0.84784 0.79482 0.0
C2270 C 0.73853 0.86399 0.79726 0.0
H2271 H 0.75358 0.92186 0.78183 0.0
H2272 H 0.75477 0.90379 0.79737 0.0
H2273 H 0.75204 0.89798 0.77208 0.0
H2274 H 0.71214 0.85924 0.75447 0.0
H2275 H 0.72504 0.83123 0.75015 0.0
H2276 H 0.72275 0.94871 0.55958 0.0
H2277 H 0.69646 0.96423 0.55408 0.0
H2278 H 0.66999 0.91954 0.51113 0.0
H2279 H 0.69665 0.90419 0.51613 0.0
H2280 H 0.66594 0.95362 0.50058 0.0
H2281 H 0.64691 0.94697 0.57411 0.0
H2282 H 0.67036 0.95954 0.57333 0.0
H2283 H 0.66393 0.93522 0.56428 0.0
C2284 C 0.71137 0.94219 0.54891 0.0
C2285 C 0.71167 0.92509 0.53845 0.0
C2286 C 0.69631 0.95106 0.54583 0.0
C2287 C 0.68103 0.94284 0.53252 0.0
C2288 C 0.68157 0.92609 0.52157 0.0
H2289 H 0.56925 0.96118 0.53326 0.0
H2290 H 0.59841 0.95005 0.53476 0.0
C2291 C 0.69679 0.91731 0.52446 0.0
C2292 C 0.66425 0.9514 0.5305 0.0
H2293 H 0.63048 0.965 0.55546 0.0
C2294 C 0.65816 0.95611 0.51256 0.0
C2295 C 0.65398 0.95445 0.54611 0.0
C2296 C 0.65899 0.94862 0.56549 0.0
C2297 C 0.64206 0.96376 0.5098 0.0
C2298 C 0.63204 0.96717 0.52551 0.0
C2299 C 0.63825 0.96256 0.54345 0.0
C2300 C 0.61427 0.9741 0.52359 0.0
C2301 C 0.63561 0.96753 0.48999 0.0
C2302 C 0.61336 0.9914 0.51674 0.0
C2303 C 0.59648 0.9978 0.51568 0.0
C2304 C 0.58036 0.98712 0.52174 0.0
C2305 C 0.5814 0.96986 0.52859 0.0
C2306 C 0.5981 0.96343 0.52945 0.0
H2307 H 0.64208 0.96 0.47895 0.0
H2308 H 0.62016 0.96333 0.48707 0.0
H2309 H 0.63966 0.98273 0.48869 0.0
H2310 H 0.62574 8e-05 0.51251 0.0
H2311 H 0.59613 0.01118 0.5104 0.0
H2312 H 0.3731 0.45161 0.74921 0.0
H2313 H 0.35412 0.4204 0.74902 0.0
H2314 H 0.30603 0.43899 0.72427 0.0
H2315 H 0.32497 0.47057 0.72451 0.0
H2316 H 0.29914 0.41797 0.75562 0.0
H2317 H 0.33497 0.3818 0.70281 0.0
H2318 H 0.35097 0.39566 0.72158 0.0
H2319 H 0.33735 0.4069 0.70563 0.0
C2320 C 0.35852 0.44913 0.74361 0.0
C2321 C 0.35059 0.46362 0.73679 0.0
C2322 C 0.34771 0.43121 0.74342 0.0
C2323 C 0.32877 0.42731 0.73632 0.0
C2324 C 0.32069 0.44171 0.72965 0.0
H2325 H 0.25197 0.31892 0.74116 0.0
H2326 H 0.26353 0.3509 0.73349 0.0
C2327 C 0.33153 0.45972 0.72979 0.0
C2328 C 0.31746 0.40828 0.73663 0.0
H2329 H 0.31702 0.36237 0.72317 0.0
C2330 C 0.30275 0.4058 0.74824 0.0
C2331 C 0.32217 0.39247 0.72689 0.0
C2332 C 0.33711 0.39432 0.71337 0.0
C2333 C 0.29344 0.38782 0.75132 0.0
C2334 C 0.29891 0.37204 0.74241 0.0
C2335 C 0.31296 0.37454 0.73007 0.0
C2336 C 0.29151 0.35288 0.74706 0.0
C2337 C 0.27853 0.38578 0.76486 0.0
C2338 C 0.30347 0.34345 0.75706 0.0
C2339 C 0.29696 0.3253 0.76147 0.0
C2340 C 0.27835 0.31613 0.75582 0.0
C2341 C 0.26636 0.32561 0.74574 0.0
C2342 C 0.27291 0.34388 0.7414 0.0
H2343 H 0.27751 0.39942 0.77238 0.0
H2344 H 0.26478 0.37949 0.75682 0.0
H2345 H 0.28145 0.37626 0.77561 0.0
H2346 H 0.31789 0.35018 0.76151 0.0
H2347 H 0.30661 0.31843 0.76918 0.0
H2348 H 0.14556 0.56601 0.26483 0.0
H2349 H 0.16266 0.59821 0.26676 0.0
H2350 H 0.2054 0.58029 0.23591 0.0
H2351 H 0.1884 0.54776 0.23402 0.0
H2352 H 0.2192 0.60492 0.26903 0.0
H2353 H 0.16757 0.63245 0.22391 0.0
H2354 H 0.15723 0.61978 0.24223 0.0
H2355 H 0.16729 0.60775 0.22385 0.0
C2356 C 0.15854 0.56885 0.25834 0.0
C2357 C 0.16558 0.5543 0.24919 0.0
C2358 C 0.16823 0.5873 0.25936 0.0
C2359 C 0.18508 0.59163 0.25116 0.0
C2360 C 0.1923 0.57719 0.24216 0.0
H2361 H 0.25744 0.70386 0.26145 0.0
H2362 H 0.24503 0.67063 0.25123 0.0
C2363 C 0.18257 0.55865 0.2411 0.0
C2364 C 0.1954 0.61122 0.25286 0.0
H2365 H 0.18983 0.65517 0.24505 0.0
C2366 C 0.213 0.61591 0.26349 0.0
C2367 C 0.18725 0.62545 0.24551 0.0
C2368 C 0.16888 0.6211 0.23307 0.0
C2369 C 0.22216 0.63465 0.26796 0.0
C2370 C 0.21349 0.6489 0.26147 0.0
C2371 C 0.19633 0.64415 0.25009 0.0
C2372 C 0.22124 0.66884 0.26757 0.0
C2373 C 0.24054 0.63918 0.28037 0.0
C2374 C 0.21183 0.67874 0.27996 0.0
C2375 C 0.21883 0.69762 0.28583 0.0
C2376 C 0.23533 0.70697 0.27928 0.0
C2377 C 0.24472 0.69701 0.26677 0.0
C2378 C 0.23771 0.67806 0.26097 0.0
H2379 H 0.24425 0.6266 0.28613 0.0
H2380 H 0.25182 0.64535 0.27192 0.0
H2381 H 0.23999 0.64968 0.29246 0.0
H2382 H 0.19906 0.6718 0.28515 0.0
H2383 H 0.21125 0.70489 0.29541 0.0
H2384 H 0.55126 0.71384 0.43842 0.0
H2385 H 0.54983 0.68383 0.4513 0.0
H2386 H 0.4905 0.66913 0.43406 0.0
H2387 H 0.49205 0.69885 0.42026 0.0
H2388 H 0.53285 0.66756 0.47816 0.0
H2389 H 0.50644 0.62479 0.40957 0.0
H2390 H 0.51419 0.64979 0.41115 0.0
H2391 H 0.49103 0.63974 0.41661 0.0
C2392 C 0.53789 0.70423 0.43738 0.0
C2393 C 0.52179 0.70861 0.42815 0.0
C2394 C 0.53709 0.68707 0.44479 0.0
C2395 C 0.52014 0.674 0.44331 0.0
C2396 C 0.50386 0.67871 0.43484 0.0
H2397 H 0.50138 0.5752 0.50522 0.0
H2398 H 0.5057 0.60725 0.4966 0.0
C2399 C 0.50472 0.69575 0.42708 0.0
C2400 C 0.51971 0.65541 0.45039 0.0
H2401 H 0.50686 0.60852 0.43706 0.0
C2402 C 0.52725 0.65463 0.46914 0.0
C2403 C 0.51274 0.63852 0.43854 0.0
C2404 C 0.50583 0.63821 0.4178 0.0
C2405 C 0.5279 0.63748 0.4764 0.0
C2406 C 0.5202 0.6206 0.46479 0.0
C2407 C 0.51271 0.62141 0.44603 0.0
C2408 C 0.51966 0.60185 0.47156 0.0
C2409 C 0.5373 0.63772 0.49622 0.0
C2410 C 0.52601 0.58804 0.46041 0.0
C2411 C 0.52309 0.56964 0.46505 0.0
C2412 C 0.51409 0.56474 0.48114 0.0
C2413 C 0.50869 0.5787 0.49294 0.0
C2414 C 0.51121 0.59706 0.48803 0.0
H2415 H 0.54771 0.65092 0.50049 0.0
H2416 H 0.52661 0.63676 0.50648 0.0
H2417 H 0.54449 0.62579 0.49736 0.0
H2418 H 0.5326 0.59135 0.44767 0.0
H2419 H 0.52732 0.55909 0.4557 0.0
H2420 H 0.59529 0.28996 0.66232 0.0
H2421 H 0.62449 0.29075 0.68206 0.0
H2422 H 0.59345 0.27453 0.72906 0.0
H2423 H 0.56413 0.2733 0.70933 0.0
H2424 H 0.64154 0.3092 0.71725 0.0
H2425 H 0.6217 0.23232 0.71977 0.0
H2426 H 0.60906 0.24464 0.70396 0.0
H2427 H 0.60546 0.24548 0.72876 0.0
C2428 C 0.59465 0.28681 0.67694 0.0
C2429 C 0.57735 0.28127 0.68414 0.0
C2430 C 0.61137 0.2873 0.68821 0.0
C2431 C 0.61111 0.28233 0.70689 0.0
C2432 C 0.59394 0.27802 0.71454 0.0
H2433 H 0.71671 0.2854 0.77892 0.0
H2434 H 0.68571 0.29122 0.76845 0.0
C2435 C 0.5772 0.27739 0.70325 0.0
C2436 C 0.62867 0.28026 0.71772 0.0
H2437 H 0.65074 0.24759 0.73571 0.0
C2438 C 0.64354 0.29579 0.72148 0.0
C2439 C 0.63125 0.26267 0.72302 0.0
C2440 C 0.61611 0.24527 0.71856 0.0
C2441 C 0.66107 0.29412 0.73006 0.0
C2442 C 0.66365 0.2765 0.73521 0.0
C2443 C 0.64864 0.2611 0.73189 0.0
C2444 C 0.68226 0.27315 0.74206 0.0
C2445 C 0.67691 0.31097 0.73275 0.0
C2446 C 0.69035 0.26079 0.73092 0.0
C2447 C 0.70785 0.25735 0.73689 0.0
C2448 C 0.71771 0.26618 0.75419 0.0
C2449 C 0.7095 0.27842 0.76551 0.0
C2450 C 0.69186 0.28185 0.75949 0.0
H2451 H 0.67347 0.32267 0.7251 0.0
H2452 H 0.68 0.31593 0.74813 0.0
H2453 H 0.68977 0.30726 0.72765 0.0
H2454 H 0.68316 0.2539 0.71745 0.0
H2455 H 0.71369 0.24783 0.72779 0.0
H2456 H 0.03052 0.30652 0.92732 0.0
H2457 H 0.03427 0.33906 0.941 0.0
H2458 H 0.97491 0.33033 0.94561 0.0
H2459 H 0.97137 0.29768 0.93317 0.0
H2460 H 0.02234 0.36664 0.92902 0.0
H2461 H 0.9925 0.35542 0.99694 0.0
H2462 H 0.99744 0.33645 0.98164 0.0
H2463 H 0.97576 0.34436 0.97748 0.0
C2464 C 0.01836 0.31154 0.93152 0.0
C2465 C 0.00071 0.29956 0.92941 0.0
C2466 C 0.02048 0.33012 0.93932 0.0
C2467 C 0.00494 0.33712 0.94481 0.0
C2468 C 0.98725 0.32518 0.94226 0.0
H2469 H 0.00274 0.45558 0.95156 0.0
H2470 H 0.99876 0.42202 0.94213 0.0
C2471 C 0.98521 0.30653 0.93496 0.0
C2472 C 0.00698 0.35711 0.95215 0.0
H2473 H 0.99407 0.38608 0.98661 0.0
C2474 C 0.01634 0.37086 0.94176 0.0
C2475 C 0.99951 0.36275 0.96899 0.0
C2476 C 0.99095 0.34893 0.98199 0.0
C2477 C 0.01806 0.38998 0.94742 0.0
C2478 C 0.00934 0.39557 0.96341 0.0
C2479 C 0.0004 0.38185 0.9741 0.0
C2480 C 0.00975 0.41557 0.96958 0.0
C2481 C 0.02965 0.40388 0.9364 0.0
C2482 C 0.01588 0.42293 0.98852 0.0
C2483 C 0.01742 0.44196 0.99411 0.0
C2484 C 0.01315 0.45402 0.98077 0.0
C2485 C 0.00628 0.44657 0.96205 0.0
C2486 C 0.00425 0.42745 0.95661 0.0
H2487 H 0.0402 0.39762 0.9292 0.0
H2488 H 0.02038 0.40824 0.9252 0.0
H2489 H 0.03706 0.41649 0.9458 0.0
H2490 H 0.02007 0.41407 0.99886 0.0
H2491 H 0.02289 0.44738 0.00861 0.0
H2492 H 0.97375 0.74192 0.1983 0.0
H2493 H 0.9454 0.74496 0.21299 0.0
H2494 H 0.9415 0.79329 0.18336 0.0
H2495 H 0.96979 0.79019 0.16831 0.0
H2496 H 0.93797 0.77462 0.2363 0.0
H2497 H 0.88984 0.75956 0.1695 0.0
H2498 H 0.9132 0.75496 0.17082 0.0
H2499 H 0.90957 0.77835 0.16914 0.0
C2500 C 0.96686 0.75319 0.19484 0.0
C2501 C 0.97397 0.76575 0.18203 0.0
C2502 C 0.95068 0.75492 0.2033 0.0
C2503 C 0.94121 0.76919 0.19908 0.0
C2504 C 0.9484 0.78195 0.18653 0.0
H2505 H 0.8395 0.79947 0.23242 0.0
H2506 H 0.86983 0.79882 0.22094 0.0
C2507 C 0.96461 0.78021 0.17801 0.0
C2508 C 0.92385 0.77066 0.2079 0.0
H2509 H 0.87722 0.7691 0.19747 0.0
C2510 C 0.92467 0.77338 0.22783 0.0
C2511 C 0.90652 0.76895 0.1968 0.0
C2512 C 0.90461 0.76512 0.17539 0.0
C2513 C 0.90864 0.77478 0.23697 0.0
C2514 C 0.89135 0.77315 0.22586 0.0
C2515 C 0.89054 0.7704 0.20594 0.0
C2516 C 0.87384 0.77435 0.23448 0.0
C2517 C 0.9104 0.77834 0.25838 0.0
C2518 C 0.86612 0.7609 0.24613 0.0
C2519 C 0.84872 0.76124 0.25279 0.0
C2520 C 0.83872 0.77495 0.24776 0.0
C2521 C 0.84678 0.78868 0.23653 0.0
C2522 C 0.86412 0.78834 0.22993 0.0
H2523 H 0.92516 0.78365 0.26443 0.0
H2524 H 0.9019 0.78858 0.26299 0.0
H2525 H 0.90516 0.76505 0.26442 0.0
H2526 H 0.87325 0.74979 0.24955 0.0
H2527 H 0.84284 0.75041 0.2613 0.0
H2528 H 0.52907 0.2934 0.07314 0.0
H2529 H 0.52717 0.32265 0.05968 0.0
H2530 H 0.4814 0.32893 0.09243 0.0
H2531 H 0.48336 0.29977 0.10623 0.0
H2532 H 0.49761 0.33326 0.03866 0.0
H2533 H 0.51899 0.37834 0.10702 0.0
H2534 H 0.52173 0.35436 0.10403 0.0
H2535 H 0.49925 0.35963 0.10765 0.0
C2536 C 0.51857 0.30098 0.07749 0.0
C2537 C 0.50645 0.29433 0.09088 0.0
C2538 C 0.5175 0.31768 0.06974 0.0
C2539 C 0.50435 0.32809 0.07527 0.0
C2540 C 0.4919 0.32128 0.08826 0.0
H2541 H 0.4776 0.4332 0.04993 0.0
H2542 H 0.47814 0.40225 0.05981 0.0
C2543 C 0.49298 0.30457 0.09606 0.0
C2544 C 0.50381 0.34615 0.06755 0.0
H2545 H 0.50878 0.39288 0.08061 0.0
C2546 C 0.50011 0.34632 0.0478 0.0
C2547 C 0.50721 0.36316 0.07951 0.0
C2548 C 0.51219 0.36398 0.10071 0.0
C2549 C 0.49926 0.36304 0.03974 0.0
C2550 C 0.50244 0.37999 0.05174 0.0
C2551 C 0.50629 0.37982 0.07146 0.0
C2552 C 0.50144 0.39809 0.04432 0.0
C2553 C 0.49454 0.36239 0.01853 0.0
C2554 C 0.5143 0.40598 0.03218 0.0
C2555 C 0.51403 0.42375 0.02645 0.0
C2556 C 0.50097 0.43394 0.0329 0.0
C2557 C 0.48789 0.42578 0.04473 0.0
C2558 C 0.48816 0.40807 0.05041 0.0
H2559 H 0.4885 0.34795 0.01192 0.0
H2560 H 0.48447 0.37149 0.01525 0.0
H2561 H 0.50747 0.36761 0.01188 0.0
H2562 H 0.52486 0.39861 0.02757 0.0
H2563 H 0.52435 0.4297 0.01742 0.0
H2564 H 0.95298 0.27344 0.3909 0.0
H2565 H 0.92329 0.27659 0.37455 0.0
H2566 H 0.9427 0.26274 0.32041 0.0
H2567 H 0.97232 0.25891 0.33674 0.0
H2568 H 0.91434 0.29921 0.34881 0.0
H2569 H 0.89434 0.22517 0.31725 0.0
H2570 H 0.91393 0.23329 0.3351 0.0
H2571 H 0.91609 0.23761 0.3107 0.0
C2572 C 0.95097 0.27105 0.3755 0.0
C2573 C 0.96496 0.26573 0.36513 0.0
C2574 C 0.93399 0.27291 0.36617 0.0
C2575 C 0.93064 0.26961 0.34628 0.0
C2576 C 0.94479 0.2649 0.3358 0.0
H2577 H 0.82525 0.26547 0.27606 0.0
H2578 H 0.8589 0.27117 0.28595 0.0
C2579 C 0.96174 0.2628 0.34515 0.0
C2580 C 0.91214 0.27077 0.33674 0.0
H2581 H 0.87352 0.24483 0.30973 0.0
C2582 C 0.90547 0.28735 0.34016 0.0
C2583 C 0.90055 0.25528 0.32546 0.0
C2584 C 0.90647 0.23677 0.32202 0.0
C2585 C 0.8874 0.28871 0.33294 0.0
C2586 C 0.87576 0.27312 0.32202 0.0
C2587 C 0.88261 0.25679 0.31802 0.0
C2588 C 0.85585 0.27272 0.31609 0.0
C2589 C 0.88073 0.30668 0.33723 0.0
C2590 C 0.8431 0.27204 0.3298 0.0
C2591 C 0.8239 0.26861 0.32423 0.0
C2592 C 0.81716 0.2659 0.30483 0.0
C2593 C 0.83003 0.26763 0.29112 0.0
C2594 C 0.84924 0.27083 0.29672 0.0
H2595 H 0.89256 0.3186 0.34196 0.0
H2596 H 0.87259 0.31005 0.32452 0.0
H2597 H 0.87141 0.30501 0.34879 0.0
H2598 H 0.84794 0.27322 0.34481 0.0
H2599 H 0.81433 0.26736 0.33511 0.0
H2600 H 0.98206 0.67713 0.62032 0.0
H2601 H 0.98131 0.64893 0.59899 0.0
H2602 H 0.99016 0.68224 0.55202 0.0
H2603 H 0.99147 0.71059 0.57335 0.0
H2604 H 0.96111 0.63147 0.56539 0.0
H2605 H 0.03556 0.6581 0.55486 0.0
H2606 H 0.02384 0.66916 0.57254 0.0
H2607 H 0.01983 0.67286 0.54791 0.0
C2608 C 0.98354 0.67845 0.60539 0.0
C2609 C 0.98716 0.69613 0.5986 0.0
C2610 C 0.98309 0.66231 0.59321 0.0
C2611 C 0.98613 0.66355 0.57403 0.0
C2612 C 0.98827 0.68103 0.56689 0.0
H2613 H 0.985 0.5592 0.50055 0.0
H2614 H 0.9779 0.58962 0.51114 0.0
C2615 C 0.98893 0.6972 0.57909 0.0
C2616 C 0.98863 0.64679 0.56208 0.0
H2617 H 0.02145 0.62844 0.53969 0.0
C2618 C 0.9742 0.63083 0.55955 0.0
C2619 C 0.00584 0.64599 0.55467 0.0
C2620 C 0.02223 0.66236 0.55773 0.0
C2621 C 0.9767 0.61391 0.55028 0.0
C2622 C 0.99398 0.61309 0.5431 0.0
C2623 C 0.00816 0.62921 0.54506 0.0
C2624 C 0.99856 0.59519 0.53571 0.0
C2625 C 0.96123 0.59682 0.54912 0.0
C2626 C 0.01289 0.58859 0.54565 0.0
C2627 C 0.01707 0.57145 0.53959 0.0
C2628 C 0.00699 0.56047 0.52341 0.0
C2629 C 0.99298 0.56733 0.51308 0.0
C2630 C 0.98881 0.5846 0.51919 0.0
H2631 H 0.95 0.59911 0.55809 0.0
H2632 H 0.95492 0.59319 0.53416 0.0
H2633 H 0.96685 0.58469 0.55368 0.0
H2634 H 0.02062 0.59657 0.5584 0.0
H2635 H 0.02798 0.56664 0.54787 0.0
H2636 H 0.57385 0.78511 0.84164 0.0
H2637 H 0.60106 0.77984 0.82606 0.0
H2638 H 0.59753 0.72694 0.84952 0.0
H2639 H 0.57097 0.73279 0.86611 0.0
H2640 H 0.63078 0.74409 0.85543 0.0
H2641 H 0.60985 0.75003 0.78027 0.0
H2642 H 0.60698 0.77066 0.79411 0.0
H2643 H 0.59321 0.74821 0.79772 0.0
C2644 C 0.57871 0.77223 0.84322 0.0
C2645 C 0.57036 0.75939 0.85513 0.0
C2646 C 0.59417 0.7691 0.83412 0.0
C2647 C 0.60119 0.75277 0.83622 0.0
C2648 C 0.59237 0.73961 0.84758 0.0
H2649 H 0.70288 0.74979 0.77795 0.0
H2650 H 0.67077 0.73962 0.7861 0.0
C2651 C 0.57721 0.74297 0.85708 0.0
C2652 C 0.61898 0.7506 0.82847 0.0
H2653 H 0.64358 0.75849 0.79014 0.0
C2654 C 0.63337 0.7468 0.84098 0.0
C2655 C 0.62243 0.75359 0.80949 0.0
C2656 C 0.60717 0.75561 0.79462 0.0
C2657 C 0.65137 0.74735 0.83552 0.0
C2658 C 0.65535 0.75262 0.81732 0.0
C2659 C 0.64067 0.75491 0.80427 0.0
C2660 C 0.67485 0.75782 0.81246 0.0
C2661 C 0.66603 0.74267 0.84951 0.0
C2662 C 0.68767 0.77158 0.82439 0.0
C2663 C 0.7059 0.7772 0.81992 0.0
C2664 C 0.71169 0.7695 0.80317 0.0
C2665 C 0.69882 0.7559 0.79101 0.0
C2666 C 0.68051 0.75009 0.79564 0.0
H2667 H 0.65961 0.73216 0.8587 0.0
H2668 H 0.67693 0.73712 0.84219 0.0
H2669 H 0.67283 0.75545 0.85897 0.0
H2670 H 0.68349 0.77826 0.83708 0.0
H2671 H 0.71534 0.78789 0.82948 0.0
H2672 H 0.44388 0.52545 0.71119 0.0
H2673 H 0.46253 0.52832 0.68417 0.0
H2674 H 0.41384 0.53318 0.6478 0.0
H2675 H 0.39524 0.53084 0.67478 0.0
H2676 H 0.45809 0.505 0.65241 0.0
H2677 H 0.45187 0.57503 0.63256 0.0
H2678 H 0.4453 0.56706 0.6549 0.0
H2679 H 0.4294 0.56039 0.63353 0.0
C2680 C 0.43719 0.52743 0.69751 0.0
C2681 C 0.41804 0.52796 0.69519 0.0
C2682 C 0.44788 0.52905 0.68207 0.0
C2683 C 0.43969 0.53125 0.66399 0.0
C2684 C 0.42064 0.53201 0.66169 0.0
H2685 H 0.4619 0.51539 0.5484 0.0
H2686 H 0.44968 0.52052 0.579 0.0
C2687 C 0.40996 0.53054 0.67714 0.0
C2688 C 0.45063 0.53129 0.64724 0.0
H2689 H 0.46156 0.55462 0.60864 0.0
C2690 C 0.45911 0.51602 0.64303 0.0
C2691 C 0.45203 0.54569 0.635 0.0
C2692 C 0.44433 0.56305 0.63933 0.0
C2693 C 0.46822 0.51436 0.6265 0.0
C2694 C 0.46891 0.52836 0.61391 0.0
C2695 C 0.46092 0.54389 0.61833 0.0
C2696 C 0.47675 0.52641 0.59544 0.0
C2697 C 0.47642 0.49731 0.62217 0.0
C2698 C 0.49608 0.52832 0.59457 0.0
C2699 C 0.50317 0.52551 0.57704 0.0
C2700 C 0.49099 0.52058 0.56016 0.0
C2701 C 0.47166 0.51904 0.56113 0.0
C2702 C 0.46464 0.52203 0.57859 0.0
H2703 H 0.47295 0.48675 0.63235 0.0
H2704 H 0.47123 0.49072 0.60751 0.0
H2705 H 0.49187 0.50155 0.62289 0.0
H2706 H 0.50564 0.5318 0.60746 0.0
H2707 H 0.51812 0.5268 0.57677 0.0
H2708 H 0.79153 0.15805 0.96771 0.0
H2709 H 0.79404 0.17408 0.93876 0.0
H2710 H 0.75281 0.20521 0.95559 0.0
H2711 H 0.75037 0.18954 0.98454 0.0
H2712 H 0.76521 0.17375 0.91018 0.0
H2713 H 0.79494 0.24614 0.94276 0.0
H2714 H 0.79498 0.22596 0.95569 0.0
H2715 H 0.77409 0.23522 0.9523 0.0
C2716 C 0.78312 0.16842 0.9653 0.0
C2717 C 0.7708 0.17257 0.97843 0.0
C2718 C 0.78457 0.17755 0.94879 0.0
C2719 C 0.77383 0.19104 0.94523 0.0
C2720 C 0.76153 0.19517 0.95829 0.0
H2721 H 0.75391 0.25161 0.84731 0.0
H2722 H 0.75337 0.23935 0.87852 0.0
C2723 C 0.76007 0.18608 0.97477 0.0
C2724 C 0.77471 0.2001 0.92737 0.0
H2725 H 0.7842 0.24249 0.90974 0.0
C2726 C 0.76948 0.18876 0.91007 0.0
C2727 C 0.78013 0.21971 0.92733 0.0
C2728 C 0.78652 0.23248 0.9455 0.0
C2729 C 0.76934 0.19653 0.89268 0.0
C2730 C 0.77482 0.2161 0.89263 0.0
C2731 C 0.77995 0.22749 0.90991 0.0
C2732 C 0.776 0.22481 0.87463 0.0
C2733 C 0.76312 0.18376 0.87447 0.0
C2734 C 0.78926 0.22111 0.86253 0.0
C2735 C 0.78963 0.22805 0.84485 0.0
C2736 C 0.77675 0.23889 0.83895 0.0
C2737 C 0.76397 0.24327 0.85145 0.0
C2738 C 0.76363 0.23629 0.86923 0.0
H2739 H 0.75528 0.16982 0.87716 0.0
H2740 H 0.75414 0.19002 0.86453 0.0
H2741 H 0.77559 0.1817 0.86737 0.0
H2742 H 0.79911 0.21253 0.86662 0.0
H2743 H 0.79979 0.22457 0.83564 0.0
H2744 H 0.07192 0.48127 0.21844 0.0
H2745 H 0.04871 0.47655 0.19075 0.0
H2746 H 0.09168 0.47143 0.1538 0.0
H2747 H 0.1149 0.47571 0.18143 0.0
H2748 H 0.05077 0.50149 0.16564 0.0
H2749 H 0.04876 0.43235 0.12714 0.0
H2750 H 0.05855 0.43837 0.15166 0.0
H2751 H 0.07238 0.44506 0.13259 0.0
C2752 C 0.07636 0.47865 0.20444 0.0
C2753 C 0.0953 0.47909 0.20209 0.0
C2754 C 0.06304 0.47589 0.18865 0.0
C2755 C 0.06841 0.4735 0.17022 0.0
C2756 C 0.08711 0.47279 0.1679 0.0
H2757 H 0.04842 0.51852 0.07019 0.0
H2758 H 0.05668 0.5088 0.10124 0.0
C2759 C 0.10043 0.47541 0.18371 0.0
C2760 C 0.0554 0.47497 0.15352 0.0
H2761 H 0.04068 0.45625 0.10775 0.0
C2762 C 0.04813 0.49132 0.15318 0.0
C2763 C 0.05179 0.46166 0.13731 0.0
C2764 C 0.05813 0.44329 0.13727 0.0
C2765 C 0.03865 0.49539 0.13658 0.0
C2766 C 0.03657 0.4829 0.11991 0.0
C2767 C 0.04249 0.46587 0.12059 0.0
C2768 C 0.03089 0.48862 0.10124 0.0
C2769 C 0.03181 0.51352 0.13666 0.0
C2770 C 0.01363 0.48036 0.09099 0.0
C2771 C 0.00875 0.486 0.07319 0.0
C2772 C 0.02122 0.49976 0.06538 0.0
C2773 C 0.03849 0.5079 0.07578 0.0
C2774 C 0.04324 0.5024 0.09354 0.0
H2775 H 0.03008 0.51914 0.15131 0.0
H2776 H 0.04217 0.52404 0.1307 0.0
H2777 H 0.01827 0.51161 0.12769 0.0
H2778 H 0.004 0.46963 0.09678 0.0
H2779 H 0.99541 0.4794 0.06543 0.0
H2780 H 0.73421 0.86469 0.4685 0.0
H2781 H 0.73178 0.85194 0.43504 0.0
H2782 H 0.76542 0.81236 0.45061 0.0
H2783 H 0.76789 0.82492 0.48397 0.0
H2784 H 0.76368 0.85111 0.41406 0.0
H2785 H 0.72044 0.78014 0.41567 0.0
H2786 H 0.72122 0.799 0.43406 0.0
H2787 H 0.74011 0.78667 0.43354 0.0
C2788 C 0.74082 0.85307 0.46484 0.0
C2789 C 0.75123 0.84582 0.47889 0.0
C2790 C 0.73947 0.84584 0.44572 0.0
C2791 C 0.74829 0.83111 0.44039 0.0
C2792 C 0.75826 0.82353 0.45445 0.0
H2793 H 0.76172 0.77308 0.33113 0.0
H2794 H 0.76341 0.78387 0.36511 0.0
C2795 C 0.75972 0.8308 0.47351 0.0
C2796 C 0.7482 0.8245 0.42002 0.0
H2797 H 0.73428 0.78632 0.38723 0.0
C2798 C 0.75717 0.83698 0.40815 0.0
C2799 C 0.7399 0.806 0.41245 0.0
C2800 C 0.72973 0.79217 0.42451 0.0
C2801 C 0.75823 0.8314 0.3889 0.0
C2802 C 0.74971 0.81296 0.38122 0.0
C2803 C 0.74084 0.80043 0.39314 0.0
C2804 C 0.74919 0.80665 0.36068 0.0
C2805 C 0.76881 0.84522 0.37708 0.0
C2806 C 0.74054 0.81578 0.34697 0.0
C2807 C 0.73965 0.80975 0.32765 0.0
C2808 C 0.74723 0.79429 0.32158 0.0
C2809 C 0.75584 0.78508 0.33533 0.0
C2810 C 0.75677 0.7912 0.35473 0.0
H2811 H 0.77908 0.85636 0.38612 0.0
H2812 H 0.77635 0.83818 0.36666 0.0
H2813 H 0.75878 0.85204 0.36909 0.0
H2814 H 0.7342 0.82745 0.35123 0.0
H2815 H 0.73276 0.81708 0.31748 0.0
H2816 H 0.4111 0.5391 0.81031 0.0
H2817 H 0.42423 0.53943 0.84338 0.0
H2818 H 0.45211 0.49496 0.82648 0.0
H2819 H 0.43916 0.49453 0.79352 0.0
H2820 H 0.42968 0.48887 0.85797 0.0
H2821 H 0.47978 0.55728 0.86765 0.0
H2822 H 0.45645 0.55753 0.85763 0.0
H2823 H 0.47091 0.54513 0.84445 0.0
C2824 C 0.42022 0.52957 0.8136 0.0
C2825 C 0.42409 0.5168 0.79927 0.0
C2826 C 0.42774 0.5298 0.83248 0.0
C2827 C 0.43922 0.51729 0.83731 0.0
C2828 C 0.44332 0.50476 0.82301 0.0
H2829 H 0.50279 0.51462 0.9467 0.0
H2830 H 0.49286 0.51288 0.91253 0.0
C2831 C 0.43592 0.50458 0.80417 0.0
C2832 C 0.44618 0.5165 0.85741 0.0
H2833 H 0.47492 0.54142 0.89517 0.0
C2834 C 0.43962 0.50032 0.86611 0.0
C2835 C 0.45927 0.53139 0.86787 0.0
C2836 C 0.46718 0.5488 0.85895 0.0
C2837 C 0.44552 0.49881 0.88517 0.0
C2838 C 0.45825 0.51388 0.89577 0.0
C2839 C 0.46513 0.5299 0.88697 0.0
C2840 C 0.46402 0.51359 0.91625 0.0
C2841 C 0.43814 0.48111 0.89387 0.0
C2842 C 0.45103 0.5144 0.92956 0.0
C2843 C 0.45664 0.51547 0.94902 0.0
C2844 C 0.47536 0.51569 0.95552 0.0
C2845 C 0.48825 0.51433 0.94212 0.0
C2846 C 0.48264 0.51343 0.92263 0.0
H2847 H 0.43169 0.46941 0.88286 0.0
H2848 H 0.44951 0.47682 0.90272 0.0
H2849 H 0.42733 0.48367 0.90326 0.0
H2850 H 0.43664 0.51471 0.92491 0.0
H2851 H 0.44638 0.51653 0.95898 0.0
H2852 H 0.78983 0.15189 0.1003 0.0
H2853 H 0.79362 0.17428 0.12863 0.0
H2854 H 0.79427 0.21935 0.09315 0.0
H2855 H 0.78979 0.19695 0.06473 0.0
H2856 H 0.81887 0.20568 0.14368 0.0
H2857 H 0.75011 0.22348 0.1223 0.0
H2858 H 0.75802 0.20432 0.11015 0.0
H2859 H 0.76715 0.22796 0.10563 0.0
C2860 C 0.79103 0.16659 0.09853 0.0
C2861 C 0.78919 0.17263 0.0803 0.0
C2862 C 0.79321 0.17938 0.11473 0.0
C2863 C 0.79376 0.19842 0.11298 0.0
C2864 C 0.79333 0.20466 0.09481 0.0
H2865 H 0.77988 0.27754 0.20956 0.0
H2866 H 0.7899 0.26721 0.17882 0.0
C2867 C 0.79087 0.19185 0.0786 0.0
C2868 C 0.79339 0.21131 0.13015 0.0
H2869 H 0.7656 0.23729 0.15179 0.0
C2870 C 0.80736 0.21281 0.14535 0.0
C2871 C 0.77835 0.22064 0.13231 0.0
C2872 C 0.76246 0.21895 0.11682 0.0
C2873 C 0.80629 0.22273 0.1629 0.0
C2874 C 0.79086 0.23131 0.16526 0.0
C2875 C 0.77748 0.23077 0.14979 0.0
C2876 C 0.78671 0.23823 0.18427 0.0
C2877 C 0.82128 0.22341 0.17904 0.0
C2878 C 0.78149 0.2253 0.19727 0.0
C2879 C 0.77551 0.23103 0.21451 0.0
C2880 C 0.77475 0.24988 0.21919 0.0
C2881 C 0.78039 0.26295 0.20633 0.0
C2882 C 0.78614 0.25711 0.18885 0.0
H2883 H 0.83449 0.22085 0.17372 0.0
H2884 H 0.82418 0.23714 0.18781 0.0
H2885 H 0.81644 0.21239 0.18834 0.0
H2886 H 0.78151 0.21062 0.19382 0.0
H2887 H 0.77132 0.2206 0.2241 0.0
H2888 H 0.08354 0.52192 0.29907 0.0
H2889 H 0.06868 0.519 0.32846 0.0
H2890 H 0.09832 0.47566 0.34212 0.0
H2891 H 0.11362 0.47873 0.31277 0.0
H2892 H 0.04593 0.48826 0.34024 0.0
H2893 H 0.11052 0.51264 0.39008 0.0
H2894 H 0.1098 0.51558 0.36503 0.0
H2895 H 0.11129 0.49327 0.37307 0.0
C2896 C 0.08697 0.51179 0.30833 0.0
C2897 C 0.09984 0.50061 0.30367 0.0
C2898 C 0.07842 0.51012 0.3251 0.0
C2899 C 0.08257 0.49729 0.33753 0.0
C2900 C 0.09522 0.48591 0.33285 0.0
H2901 H 0.04597 0.47217 0.44682 0.0
H2902 H 0.05798 0.47105 0.41579 0.0
C2903 C 0.10387 0.48762 0.31606 0.0
C2904 C 0.07352 0.49589 0.35535 0.0
H2905 H 0.08258 0.50189 0.40371 0.0
C2906 C 0.05391 0.49123 0.35413 0.0
C2907 C 0.08402 0.49986 0.37341 0.0
C2908 C 0.10506 0.50578 0.37557 0.0
C2909 C 0.04451 0.49028 0.37056 0.0
C2910 C 0.05502 0.49428 0.38858 0.0
C2911 C 0.07461 0.4988 0.38981 0.0
C2912 C 0.04607 0.49394 0.40646 0.0
C2913 C 0.02345 0.48481 0.36856 0.0
C2914 C 0.0352 0.50707 0.41134 0.0
C2915 C 0.0283 0.50779 0.42913 0.0
C2916 C 0.03229 0.49544 0.44228 0.0
C2917 C 0.04271 0.48195 0.43705 0.0
C2918 C 0.04958 0.48126 0.41933 0.0
H2919 H 0.01777 0.47821 0.35401 0.0
H2920 H 0.01864 0.47497 0.37904 0.0
H2921 H 0.01755 0.4975 0.37139 0.0
H2922 H 0.03259 0.51716 0.40165 0.0
H2923 H 0.02038 0.51837 0.43279 0.0
H2924 H 0.74869 0.82637 0.56824 0.0
H2925 H 0.74582 0.80786 0.59537 0.0
H2926 H 0.74194 0.85691 0.63172 0.0
H2927 H 0.74433 0.87539 0.60465 0.0
H2928 H 0.76928 0.81211 0.62721 0.0
H2929 H 0.69948 0.81942 0.64697 0.0
H2930 H 0.70752 0.82571 0.62456 0.0
H2931 H 0.71437 0.84172 0.64583 0.0
C2932 C 0.74696 0.83318 0.58195 0.0
C2933 C 0.74669 0.85238 0.58423 0.0
C2934 C 0.74533 0.82256 0.59745 0.0
C2935 C 0.74336 0.8309 0.61554 0.0
C2936 C 0.74293 0.85002 0.61782 0.0
H2937 H 0.76357 0.81115 0.7306 0.0
H2938 H 0.75844 0.82238 0.69954 0.0
C2939 C 0.74443 0.86062 0.60232 0.0
C2940 C 0.74315 0.81999 0.63231 0.0
H2941 H 0.7198 0.80979 0.67108 0.0
C2942 C 0.75827 0.81132 0.63659 0.0
C2943 C 0.72875 0.81886 0.64455 0.0
C2944 C 0.71152 0.82676 0.64014 0.0
C2945 C 0.75981 0.80235 0.65323 0.0
C2946 C 0.7459 0.80206 0.66586 0.0
C2947 C 0.73046 0.81012 0.66133 0.0
C2948 C 0.74807 0.79488 0.68462 0.0
C2949 C 0.77666 0.79388 0.65768 0.0
C2950 C 0.74374 0.77565 0.68648 0.0
C2951 C 0.74656 0.76912 0.70431 0.0
C2952 C 0.7539 0.78175 0.72047 0.0
C2953 C 0.758 0.80102 0.71846 0.0
C2954 C 0.75503 0.8075 0.70074 0.0
H2955 H 0.78643 0.79551 0.6465 0.0
H2956 H 0.78429 0.80058 0.67151 0.0
H2957 H 0.77205 0.77876 0.6591 0.0
H2958 H 0.73835 0.76573 0.67413 0.0
H2959 H 0.7433 0.75421 0.70538 0.0
H2960 H 0.68963 0.40444 0.5119 0.0
H2961 H 0.66272 0.41959 0.51319 0.0
H2962 H 0.69151 0.45738 0.56112 0.0
H2963 H 0.71849 0.44237 0.55998 0.0
H2964 H 0.6425 0.42327 0.54744 0.0
H2965 H 0.67274 0.49132 0.52167 0.0
H2966 H 0.6821 0.47056 0.51676 0.0
H2967 H 0.68637 0.48295 0.54014 0.0
C2968 C 0.6903 0.41606 0.52263 0.0
C2969 C 0.70618 0.4222 0.53584 0.0
C2970 C 0.67492 0.42466 0.52336 0.0
C2971 C 0.67525 0.43965 0.53716 0.0
C2972 C 0.69112 0.44596 0.55024 0.0
H2973 H 0.58469 0.50225 0.54948 0.0
H2974 H 0.61457 0.4922 0.55584 0.0
C2975 C 0.70647 0.43731 0.54959 0.0
C2976 C 0.65863 0.44812 0.53827 0.0
H2977 H 0.64157 0.48696 0.5291 0.0
C2978 C 0.64231 0.43724 0.54358 0.0
C2979 C 0.65859 0.46645 0.5335 0.0
C2980 C 0.67582 0.47856 0.52759 0.0
C2981 C 0.62572 0.44401 0.5437 0.0
C2982 C 0.6254 0.46197 0.53798 0.0
C2983 C 0.64192 0.4732 0.53347 0.0
C2984 C 0.6076 0.46834 0.53449 0.0
C2985 C 0.60857 0.43177 0.54964 0.0
C2986 C 0.59409 0.45845 0.5202 0.0
C2987 C 0.57721 0.46412 0.51653 0.0
C2988 C 0.57348 0.47989 0.52703 0.0
C2989 C 0.58715 0.49001 0.54122 0.0
C2990 C 0.60418 0.4843 0.54486 0.0
H2991 H 0.61237 0.42136 0.55897 0.0
H2992 H 0.59994 0.44025 0.55726 0.0
H2993 H 0.59993 0.424 0.53677 0.0
H2994 H 0.59664 0.44633 0.51179 0.0
H2995 H 0.56707 0.45604 0.50543 0.0
H2996 H 0.19609 0.11753 0.48372 0.0
H2997 H 0.1651 0.0976 0.48299 0.0
H2998 H 0.1902 0.05282 0.50166 0.0
H2999 H 0.22126 0.07272 0.50277 0.0
H3000 H 0.14759 0.06207 0.46462 0.0
H3001 H 0.15666 0.06232 0.54337 0.0
H3002 H 0.17231 0.0779 0.53078 0.0
H3003 H 0.1742 0.05384 0.53092 0.0
C3004 C 0.19507 0.10337 0.48745 0.0
C3005 C 0.21118 0.09683 0.49357 0.0
C3006 C 0.17733 0.09198 0.48699 0.0
C3007 C 0.17535 0.07386 0.49261 0.0
C3008 C 0.19141 0.06689 0.49763 0.0
H3009 H 0.06491 0.99834 0.48826 0.0
H3010 H 0.09756 0.01056 0.48312 0.0
C3011 C 0.20916 0.07829 0.49819 0.0
C3012 C 0.15646 0.06286 0.49446 0.0
H3013 H 0.12824 0.04536 0.52738 0.0
C3014 C 0.14336 0.05825 0.47829 0.0
C3015 C 0.15098 0.05809 0.51238 0.0
C3016 C 0.16418 0.06339 0.53041 0.0
C3017 C 0.12481 0.04923 0.47962 0.0
C3018 C 0.11935 0.04456 0.49755 0.0
C3019 C 0.13255 0.04884 0.51363 0.0
C3020 C 0.09964 0.03684 0.50037 0.0
C3021 C 0.11102 0.04547 0.46201 0.0
C3022 C 0.09015 0.0474 0.51202 0.0
C3023 C 0.07166 0.04046 0.51507 0.0
C3024 C 0.06221 0.02273 0.50656 0.0
C3025 C 0.07177 0.01206 0.49497 0.0
C3026 C 0.09038 0.01906 0.49193 0.0
H3027 H 0.11664 0.05286 0.45003 0.0
H3028 H 0.10766 0.03025 0.4574 0.0
H3029 H 0.0978 0.04985 0.46505 0.0
H3030 H 0.09706 0.06114 0.5187 0.0
H3031 H 0.06477 0.04909 0.52407 0.0
H3032 H 0.19281 0.97107 0.74755 0.0
H3033 H 0.20697 0.94358 0.7484 0.0
H3034 H 0.17636 0.92676 0.7955 0.0
H3035 H 0.16188 0.95417 0.79461 0.0
H3036 H 0.22889 0.93221 0.77758 0.0
H3037 H 0.16276 0.88029 0.75673 0.0
H3038 H 0.16472 0.9049 0.75436 0.0
H3039 H 0.16208 0.89628 0.77719 0.0
C3040 C 0.18906 0.96154 0.75811 0.0
C3041 C 0.1761 0.96475 0.77094 0.0
C3042 C 0.19721 0.94585 0.75859 0.0
C3043 C 0.19252 0.93299 0.77182 0.0
C3044 C 0.17991 0.93633 0.78493 0.0
H3045 H 0.22175 0.82901 0.79717 0.0
H3046 H 0.21077 0.85828 0.79673 0.0
C3047 C 0.17172 0.95205 0.78446 0.0
C3048 C 0.2008 0.91605 0.77179 0.0
H3049 H 0.18954 0.86835 0.76624 0.0
C3050 C 0.22032 0.91823 0.77503 0.0
C3051 C 0.18958 0.89784 0.76831 0.0
C3052 C 0.16864 0.89461 0.76377 0.0
C3053 C 0.22888 0.90267 0.77541 0.0
C3054 C 0.21762 0.88448 0.7722 0.0
C3055 C 0.19813 0.88232 0.76875 0.0
C3056 C 0.22559 0.86741 0.77299 0.0
C3057 C 0.24982 0.90579 0.77976 0.0
C3058 C 0.23773 0.86285 0.75984 0.0
C3059 C 0.24412 0.84602 0.76006 0.0
C3060 C 0.23833 0.83346 0.77335 0.0
C3061 C 0.22645 0.8383 0.78668 0.0
C3062 C 0.22013 0.85505 0.78647 0.0
H3063 H 0.25595 0.92034 0.78598 0.0
H3064 H 0.25367 0.89599 0.78979 0.0
H3065 H 0.25617 0.90316 0.76638 0.0
H3066 H 0.24187 0.87205 0.74911 0.0
H3067 H 0.25316 0.84265 0.74954 0.0
H3068 H 0.30399 0.88344 0.00844 0.0
H3069 H 0.33705 0.89782 0.00905 0.0
H3070 H 0.32829 0.94632 0.04316 0.0
H3071 H 0.29523 0.93194 0.04294 0.0
H3072 H 0.35502 0.93152 0.99731 0.0
H3073 H 0.36984 0.92942 0.0752 0.0
H3074 H 0.34839 0.91679 0.06187 0.0
H3075 H 0.35154 0.94148 0.0686 0.0
C3076 C 0.30904 0.89719 0.01604 0.0
C3077 C 0.29699 0.90645 0.02582 0.0
C3078 C 0.32794 0.9054 0.01632 0.0
C3079 C 0.33515 0.92298 0.02639 0.0
C3080 C 0.32306 0.93256 0.03562 0.0
H3081 H 0.4473 0.98948 0.02216 0.0
H3082 H 0.41341 0.97777 0.01817 0.0
C3083 C 0.30416 0.92434 0.03542 0.0
C3084 C 0.35542 0.93099 0.02766 0.0
H3085 H 0.39458 0.94445 0.05917 0.0
C3086 C 0.3637 0.9344 0.01081 0.0
C3087 C 0.3667 0.93448 0.0453 0.0
C3088 C 0.35875 0.93021 0.06377 0.0
C3089 C 0.38301 0.94125 0.01114 0.0
C3090 C 0.39422 0.94503 0.02882 0.0
C3091 C 0.38592 0.94164 0.04565 0.0
C3092 C 0.41472 0.95186 0.03027 0.0
C3093 C 0.39132 0.94389 0.99256 0.0
C3094 C 0.42664 0.94129 0.03858 0.0
C3095 C 0.44594 0.94799 0.04104 0.0
C3096 C 0.4537 0.96545 0.03526 0.0
C3097 C 0.44175 0.97594 0.02668 0.0
C3098 C 0.4224 0.96923 0.02429 0.0
H3099 H 0.38174 0.93615 0.98025 0.0
H3100 H 0.39401 0.95897 0.99043 0.0
H3101 H 0.40483 0.93916 0.99269 0.0
H3102 H 0.42098 0.92786 0.04332 0.0
H3103 H 0.45475 0.93955 0.04765 0.0
H3104 H 0.864 0.58228 0.78154 0.0
H3105 H 0.84868 0.60912 0.7816 0.0
H3106 H 0.81025 0.5814 0.73365 0.0
H3107 H 0.82531 0.55446 0.73359 0.0
H3108 H 0.8455 0.63084 0.75075 0.0
H3109 H 0.77575 0.59883 0.77134 0.0
H3110 H 0.79596 0.58835 0.775 0.0
H3111 H 0.78364 0.58641 0.75168 0.0
C3112 C 0.85217 0.58181 0.77114 0.0
C3113 C 0.84587 0.56624 0.75758 0.0
C3114 C 0.84345 0.59715 0.77118 0.0
C3115 C 0.82822 0.59712 0.75776 0.0
C3116 C 0.82176 0.58154 0.74434 0.0
H3117 H 0.76842 0.68825 0.7383 0.0
H3118 H 0.77857 0.65817 0.73446 0.0
C3119 C 0.83047 0.56621 0.74427 0.0
C3120 C 0.81979 0.61385 0.75718 0.0
H3121 H 0.77974 0.62993 0.7633 0.0
C3122 C 0.83111 0.63063 0.75344 0.0
C3123 C 0.80096 0.61345 0.7605 0.0
C3124 C 0.78835 0.59585 0.765 0.0
C3125 C 0.82418 0.64713 0.75323 0.0
C3126 C 0.80554 0.64685 0.75709 0.0
C3127 C 0.79402 0.63 0.76028 0.0
C3128 C 0.79847 0.66434 0.75962 0.0
C3129 C 0.8369 0.66481 0.74907 0.0
C3130 C 0.80602 0.67739 0.77523 0.0
C3131 C 0.80029 0.69439 0.77748 0.0
C3132 C 0.78684 0.69869 0.76415 0.0
C3133 C 0.77884 0.68534 0.74876 0.0
C3134 C 0.7846 0.66821 0.74655 0.0
H3135 H 0.84899 0.66178 0.74179 0.0
H3136 H 0.82916 0.67305 0.74005 0.0
H3137 H 0.84243 0.67355 0.76266 0.0
H3138 H 0.81656 0.67451 0.7856 0.0
H3139 H 0.80665 0.70426 0.78959 0.0
H3140 H 0.80372 0.58004 0.03229 0.0
H3141 H 0.83104 0.56564 0.03157 0.0
H3142 H 0.84986 0.59823 0.98647 0.0
H3143 H 0.82232 0.61262 0.98692 0.0
H3144 H 0.85204 0.56012 0.98035 0.0
H3145 H 0.8845 0.59139 0.05242 0.0
H3146 H 0.86078 0.57886 0.0517 0.0
H3147 H 0.86579 0.59975 0.03989 0.0
C3148 C 0.81364 0.58418 0.0222 0.0
C3149 C 0.81088 0.59758 0.00973 0.0
C3150 C 0.82932 0.57599 0.02189 0.0
C3151 C 0.84265 0.5811 0.00921 0.0
C3152 C 0.83978 0.59418 0.99646 0.0
H3153 H 0.9485 0.55524 0.98525 0.0
H3154 H 0.91881 0.56547 0.9852 0.0
C3155 C 0.82406 0.6024 0.99674 0.0
C3156 C 0.85953 0.57271 0.00922 0.0
H3157 H 0.89876 0.56877 0.03696 0.0
C3158 C 0.86228 0.56203 0.99271 0.0
C3159 C 0.87281 0.57513 0.02541 0.0
C3160 C 0.87097 0.58703 0.04332 0.0
C3161 C 0.87791 0.55362 0.99197 0.0
C3162 C 0.89129 0.55622 0.00808 0.0
C3163 C 0.88843 0.56671 0.02467 0.0
C3164 C 0.90891 0.54912 0.00767 0.0
C3165 C 0.87985 0.54185 0.97402 0.0
C3166 C 0.9134 0.53672 0.02055 0.0
C3167 C 0.9305 0.53085 0.02069 0.0
C3168 C 0.94348 0.53747 0.00807 0.0
C3169 C 0.93884 0.54981 0.99514 0.0
C3170 C 0.92178 0.55559 0.99499 0.0
H3171 H 0.86616 0.53677 0.96535 0.0
H3172 H 0.8893 0.55044 0.96525 0.0
H3173 H 0.88594 0.52962 0.97733 0.0
H3174 H 0.9037 0.53167 0.03057 0.0
H3175 H 0.93369 0.52141 0.03087 0.0
H3176 H 0.19311 0.05958 0.76684 0.0
H3177 H 0.21163 0.09129 0.77005 0.0
H3178 H 0.1823 0.10609 0.8175 0.0
H3179 H 0.16304 0.0745 0.81374 0.0
H3180 H 0.1825 0.13073 0.79419 0.0
H3181 H 0.25487 0.12003 0.80431 0.0
H3182 H 0.24298 0.10627 0.78316 0.0
H3183 H 0.23503 0.10154 0.806 0.0
C3184 C 0.19083 0.06947 0.77821 0.0
C3185 C 0.17657 0.06453 0.79001 0.0
C3186 C 0.20158 0.08761 0.78014 0.0
C3187 C 0.19866 0.1011 0.79425 0.0
C3188 C 0.1849 0.09595 0.80655 0.0
H3189 H 0.26818 0.21486 0.80239 0.0
H3190 H 0.25483 0.18321 0.80984 0.0
C3191 C 0.17389 0.07789 0.80439 0.0
C3192 C 0.20843 0.12096 0.7947 0.0
H3193 H 0.25094 0.1489 0.7914 0.0
C3194 C 0.19752 0.13469 0.79393 0.0
C3195 C 0.22808 0.12636 0.79473 0.0
C3196 C 0.2409 0.11277 0.79732 0.0
C3197 C 0.20552 0.15339 0.7922 0.0
C3198 C 0.2249 0.15843 0.79045 0.0
C3199 C 0.23602 0.14497 0.79231 0.0
C3200 C 0.23359 0.17732 0.78576 0.0
C3201 C 0.19303 0.16752 0.79221 0.0
C3202 C 0.22648 0.1843 0.76946 0.0
C3203 C 0.23389 0.20235 0.76533 0.0
C3204 C 0.24888 0.21371 0.77718 0.0
C3205 C 0.25661 0.20644 0.79303 0.0
C3206 C 0.24898 0.18838 0.79731 0.0
H3207 H 0.1808 0.16315 0.80022 0.0
H3208 H 0.20071 0.18156 0.79858 0.0
H3209 H 0.1876 0.16861 0.77734 0.0
H3210 H 0.21505 0.17581 0.75997 0.0
H3211 H 0.22781 0.20741 0.75285 0.0
H3212 H 0.33319 0.97779 0.2502 0.0
H3213 H 0.31519 0.94592 0.24959 0.0
H3214 H 0.36133 0.93076 0.28227 0.0
H3215 H 0.3792 0.96266 0.28341 0.0
H3216 H 0.32421 0.91553 0.23307 0.0
H3217 H 0.31817 0.90662 0.3091 0.0
H3218 H 0.32529 0.92927 0.30076 0.0
H3219 H 0.342 0.91459 0.30475 0.0
C3220 C 0.33939 0.96776 0.25754 0.0
C3221 C 0.35765 0.97275 0.26682 0.0
C3222 C 0.32908 0.94956 0.25719 0.0
C3223 C 0.33681 0.93602 0.26609 0.0
C3224 C 0.35487 0.94108 0.27573 0.0
H3225 H 0.31769 0.81854 0.23371 0.0
H3226 H 0.3283 0.8524 0.2392 0.0
C3227 C 0.36514 0.95931 0.27624 0.0
C3228 C 0.32683 0.91621 0.26366 0.0
H3229 H 0.31353 0.87826 0.2878 0.0
C3230 C 0.32164 0.90746 0.24506 0.0
C3231 C 0.32323 0.90573 0.27929 0.0
C3232 C 0.32728 0.9146 0.29959 0.0
C3233 C 0.31369 0.88835 0.24165 0.0
C3234 C 0.3113 0.87761 0.25724 0.0
C3235 C 0.31567 0.88649 0.27586 0.0
C3236 C 0.30497 0.85705 0.25443 0.0
C3237 C 0.30801 0.87983 0.22135 0.0
C3238 C 0.28865 0.84839 0.26175 0.0
C3239 C 0.28262 0.82897 0.25878 0.0
C3240 C 0.29286 0.81793 0.24849 0.0
C3241 C 0.30939 0.82665 0.24153 0.0
C3242 C 0.31543 0.84602 0.24457 0.0
H3243 H 0.30536 0.89053 0.21183 0.0
H3244 H 0.3195 0.87359 0.21609 0.0
H3245 H 0.29524 0.86865 0.2203 0.0
H3246 H 0.28047 0.85667 0.26954 0.0
H3247 H 0.26985 0.82264 0.26439 0.0
H3248 H 0.50082 0.32088 0.62667 0.0
H3249 H 0.49377 0.34808 0.61185 0.0
H3250 H 0.53737 0.34532 0.57513 0.0
H3251 H 0.54467 0.31842 0.58999 0.0
H3252 H 0.54 0.38023 0.59336 0.0
H3253 H 0.46767 0.35257 0.55951 0.0
H3254 H 0.47102 0.34962 0.58438 0.0
H3255 H 0.48288 0.33758 0.5677 0.0
C3256 C 0.50878 0.32597 0.61532 0.0
C3257 C 0.52335 0.31751 0.60956 0.0
C3258 C 0.50464 0.34142 0.60676 0.0
C3259 C 0.51488 0.34858 0.5922 0.0
C3260 C 0.52923 0.33998 0.58627 0.0
H3261 H 0.50487 0.43892 0.52189 0.0
H3262 H 0.5037 0.40786 0.53286 0.0
C3263 C 0.5334 0.3246 0.59482 0.0
C3264 C 0.51173 0.36587 0.5841 0.0
H3265 H 0.47911 0.38542 0.56017 0.0
C3266 C 0.5267 0.38131 0.58604 0.0
C3267 C 0.49441 0.36722 0.5744 0.0
C3268 C 0.4781 0.35083 0.57118 0.0
C3269 C 0.52477 0.39813 0.57884 0.0
C3270 C 0.50733 0.39967 0.56966 0.0
C3271 C 0.49241 0.38419 0.56737 0.0
C3272 C 0.50458 0.41751 0.56268 0.0
C3273 C 0.54144 0.41419 0.58105 0.0
C3274 C 0.5047 0.43297 0.57576 0.0
C3275 C 0.50537 0.45064 0.56959 0.0
C3276 C 0.50591 0.45317 0.55018 0.0
C3277 C 0.50444 0.43741 0.53692 0.0
C3278 C 0.5038 0.41968 0.54316 0.0
H3279 H 0.5547 0.40962 0.5851 0.0
H3280 H 0.54273 0.42089 0.56761 0.0
H3281 H 0.53953 0.4249 0.59234 0.0
H3282 H 0.50517 0.43152 0.59087 0.0
H3283 H 0.50632 0.46246 0.58015 0.0
H3284 H 0.46318 0.77291 0.32622 0.0
H3285 H 0.43207 0.76735 0.30919 0.0
H3286 H 0.4159 0.7175 0.33707 0.0
H3287 H 0.44715 0.72324 0.35469 0.0
H3288 H 0.41075 0.73835 0.28475 0.0
H3289 H 0.37803 0.74869 0.35194 0.0
H3290 H 0.40301 0.75402 0.35117 0.0
H3291 H 0.39083 0.73016 0.35039 0.0
C3292 C 0.4531 0.76066 0.32869 0.0
C3293 C 0.45756 0.74864 0.34201 0.0
C3294 C 0.43532 0.75747 0.31884 0.0
C3295 C 0.42159 0.74218 0.32205 0.0
C3296 C 0.42621 0.72958 0.33465 0.0
H3297 H 0.3102 0.72901 0.25739 0.0
H3298 H 0.34023 0.72186 0.26909 0.0
C3299 C 0.44407 0.73283 0.34463 0.0
C3300 C 0.40226 0.74048 0.31307 0.0
H3301 H 0.35873 0.74545 0.32334 0.0
C3302 C 0.39926 0.73961 0.29313 0.0
C3303 C 0.38737 0.74229 0.3241 0.0
C3304 C 0.38989 0.74398 0.34558 0.0
C3305 C 0.38201 0.74134 0.28398 0.0
C3306 C 0.36734 0.74369 0.29508 0.0
C3307 C 0.37006 0.74365 0.31491 0.0
C3308 C 0.3497 0.74813 0.28677 0.0
C3309 C 0.37993 0.74167 0.26266 0.0
C3310 C 0.34513 0.76525 0.29278 0.0
C3311 C 0.32805 0.76931 0.28625 0.0
C3312 C 0.31514 0.75631 0.27356 0.0
C3313 C 0.31994 0.73937 0.26704 0.0
C3314 C 0.33708 0.73526 0.2737 0.0
H3315 H 0.39357 0.74298 0.25662 0.0
H3316 H 0.37067 0.72849 0.25599 0.0
H3317 H 0.37341 0.75347 0.25873 0.0
H3318 H 0.35472 0.77539 0.30281 0.0
H3319 H 0.3248 0.7825 0.2915 0.0
H3320 H 0.04554 0.73067 0.0949 0.0
H3321 H 0.04526 0.70036 0.07721 0.0
H3322 H 0.99992 0.67453 0.10719 0.0
H3323 H 0.00016 0.70461 0.12504 0.0
H3324 H 0.04965 0.66624 0.0963 0.0
H3325 H 0.98377 0.65763 0.04849 0.0
H3326 H 0.99677 0.68021 0.05912 0.0
H3327 H 0.98235 0.66513 0.07306 0.0
C3328 C 0.03535 0.71858 0.09756 0.0
C3329 C 0.02288 0.72004 0.1114 0.0
C3330 C 0.03526 0.7013 0.08748 0.0
C3331 C 0.02249 0.68531 0.09084 0.0
C3332 C 0.00975 0.68679 0.10428 0.0
H3333 H 0.01166 0.568 0.07985 0.0
H3334 H 0.01842 0.60161 0.08956 0.0
C3335 C 0.00996 0.70398 0.11451 0.0
C3336 C 0.02305 0.66678 0.08117 0.0
H3337 H 0.99661 0.63041 0.05149 0.0
C3338 C 0.03821 0.65848 0.08628 0.0
C3339 C 0.00816 0.65681 0.06803 0.0
C3340 C 0.99187 0.6654 0.06168 0.0
C3341 C 0.03841 0.64003 0.07925 0.0
C3342 C 0.02305 0.62973 0.06688 0.0
C3343 C 0.00834 0.63836 0.06104 0.0
C3344 C 0.0212 0.60954 0.06107 0.0
C3345 C 0.05483 0.63155 0.08539 0.0
C3346 C 0.02068 0.6029 0.04184 0.0
C3347 C 0.01694 0.58366 0.03624 0.0
C3348 C 0.01332 0.5708 0.04978 0.0
C3349 C 0.01438 0.57755 0.06909 0.0
C3350 C 0.01832 0.59674 0.07467 0.0
H3351 H 0.06736 0.64246 0.0909 0.0
H3352 H 0.05111 0.62262 0.09694 0.0
H3353 H 0.05844 0.62263 0.07338 0.0
H3354 H 0.02275 0.61261 0.03113 0.0
H3355 H 0.0161 0.57889 0.02124 0.0
H3356 H 0.06259 0.27646 0.86797 0.0
H3357 H 0.09107 0.2845 0.85197 0.0
H3358 H 0.07772 0.23033 0.81944 0.0
H3359 H 0.04932 0.22232 0.83502 0.0
H3360 H 0.12046 0.26678 0.853 0.0
H3361 H 0.09076 0.26437 0.77835 0.0
H3362 H 0.07688 0.2656 0.79813 0.0
H3363 H 0.08133 0.24348 0.78863 0.0
C3364 C 0.06564 0.26637 0.85724 0.0
C3365 C 0.05369 0.24876 0.85275 0.0
C3366 C 0.08188 0.27099 0.8481 0.0
C3367 C 0.08632 0.25815 0.83423 0.0
C3368 C 0.07433 0.24065 0.82969 0.0
H3369 H 0.18829 0.23404 0.80385 0.0
H3370 H 0.15875 0.23703 0.81591 0.0
C3371 C 0.05816 0.23603 0.83877 0.0
C3372 C 0.10422 0.26218 0.82561 0.0
H3373 H 0.12266 0.25984 0.78301 0.0
C3374 C 0.12096 0.26563 0.8377 0.0
C3375 C 0.1049 0.26097 0.80565 0.0
C3376 C 0.08749 0.25861 0.79196 0.0
C3377 C 0.13826 0.26667 0.83036 0.0
C3378 C 0.13877 0.26385 0.81043 0.0
C3379 C 0.12219 0.26167 0.7983 0.0
C3380 C 0.15619 0.26175 0.80211 0.0
C3381 C 0.15582 0.27035 0.84403 0.0
C3382 C 0.16414 0.27421 0.78965 0.0
C3383 C 0.18106 0.27247 0.78257 0.0
C3384 C 0.19019 0.25817 0.7878 0.0
C3385 C 0.18174 0.24532 0.79967 0.0
C3386 C 0.1649 0.24706 0.80669 0.0
H3387 H 0.15379 0.27773 0.8578 0.0
H3388 H 0.15952 0.25682 0.84697 0.0
H3389 H 0.16773 0.27883 0.83794 0.0
H3390 H 0.15749 0.28553 0.78579 0.0
H3391 H 0.18721 0.28258 0.77343 0.0
H3392 H 0.50064 0.70271 0.90787 0.0
H3393 H 0.49561 0.67482 0.92506 0.0
H3394 H 0.53259 0.70522 0.97293 0.0
H3395 H 0.53835 0.73269 0.95544 0.0
H3396 H 0.54289 0.6746 0.96349 0.0
H3397 H 0.4666 0.65708 0.96738 0.0
H3398 H 0.47186 0.659 0.94331 0.0
H3399 H 0.47816 0.67926 0.96059 0.0
C3400 C 0.50738 0.70348 0.9222 0.0
C3401 C 0.51999 0.71974 0.93029 0.0
C3402 C 0.50439 0.6876 0.93209 0.0
C3403 C 0.51356 0.68794 0.95042 0.0
C3404 C 0.52537 0.70458 0.95883 0.0
H3405 H 0.49835 0.58871 0.01418 0.0
H3406 H 0.49789 0.62026 0.00511 0.0
C3407 C 0.52867 0.72025 0.94882 0.0
C3408 C 0.51279 0.67052 0.95986 0.0
H3409 H 0.48328 0.63208 0.97175 0.0
C3410 C 0.52981 0.66549 0.96555 0.0
C3411 C 0.49579 0.65869 0.96284 0.0
C3412 C 0.4771 0.6639 0.95839 0.0
C3413 C 0.53031 0.6487 0.97341 0.0
C3414 C 0.51333 0.63624 0.97506 0.0
C3415 C 0.49629 0.64155 0.9702 0.0
C3416 C 0.51315 0.61718 0.98059 0.0
C3417 C 0.54908 0.64443 0.97976 0.0
C3418 C 0.52158 0.60498 0.96963 0.0
C3419 C 0.52203 0.58717 0.97484 0.0
C3420 C 0.51379 0.58103 0.99099 0.0
C3421 C 0.50492 0.5931 0.00175 0.0
C3422 C 0.5046 0.61107 0.99656 0.0
H3423 H 0.55987 0.65745 0.98348 0.0
H3424 H 0.54834 0.63628 0.99228 0.0
H3425 H 0.55372 0.63611 0.96794 0.0
H3426 H 0.52783 0.60924 0.95698 0.0
H3427 H 0.52874 0.57816 0.96607 0.0
H3428 H 0.06903 0.76342 0.64647 0.0
H3429 H 0.09987 0.76405 0.66274 0.0
H3430 H 0.07438 0.73801 0.70896 0.0
H3431 H 0.04329 0.7373 0.69279 0.0
H3432 H 0.10529 0.77002 0.71973 0.0
H3433 H 0.12258 0.71653 0.66787 0.0
H3434 H 0.11424 0.73515 0.65722 0.0
H3435 H 0.09892 0.71953 0.66994 0.0
C3436 C 0.06991 0.75789 0.66013 0.0
C3437 C 0.05366 0.7502 0.66826 0.0
C3438 C 0.08756 0.75817 0.66935 0.0
C3439 C 0.08935 0.75077 0.68686 0.0
C3440 C 0.07324 0.74363 0.69536 0.0
H3441 H 0.19569 0.75476 0.75729 0.0
H3442 H 0.16218 0.74698 0.74622 0.0
C3443 C 0.05551 0.74326 0.6861 0.0
C3444 C 0.10815 0.75063 0.69616 0.0
H3445 H 0.14799 0.73468 0.68894 0.0
C3446 C 0.11458 0.76209 0.71322 0.0
C3447 C 0.12012 0.74017 0.68761 0.0
C3448 C 0.1136 0.727 0.66974 0.0
C3449 C 0.13311 0.76421 0.72139 0.0
C3450 C 0.14532 0.75432 0.7124 0.0
C3451 C 0.1386 0.74225 0.69578 0.0
C3452 C 0.16553 0.75767 0.71891 0.0
C3453 C 0.13976 0.77774 0.739 0.0
C3454 C 0.1785 0.76563 0.70697 0.0
C3455 C 0.19755 0.76995 0.71316 0.0
C3456 C 0.20405 0.76636 0.73143 0.0
C3457 C 0.1911 0.75776 0.74316 0.0
C3458 C 0.17197 0.75343 0.73692 0.0
H3459 H 0.12956 0.7867 0.74216 0.0
H3460 H 0.14177 0.7698 0.75139 0.0
H3461 H 0.15339 0.78689 0.73737 0.0
H3462 H 0.17382 0.76893 0.69298 0.0
H3463 H 0.20714 0.77648 0.70372 0.0
H3464 H 0.03941 0.33025 0.42296 0.0
H3465 H 0.04307 0.36036 0.44216 0.0
H3466 H 0.0178 0.33227 0.48747 0.0
H3467 H 0.01339 0.30235 0.46802 0.0
H3468 H 0.0004 0.35824 0.47858 0.0
H3469 H 0.07596 0.38917 0.48704 0.0
H3470 H 0.06761 0.38235 0.46246 0.0
H3471 H 0.06699 0.36481 0.47887 0.0
C3472 C 0.03507 0.33051 0.4372 0.0
C3473 C 0.02598 0.31404 0.44396 0.0
C3474 C 0.03729 0.3477 0.44824 0.0
C3475 C 0.03086 0.3486 0.46637 0.0
C3476 C 0.02286 0.33195 0.47355 0.0
H3477 H 0.03722 0.45774 0.53263 0.0
H3478 H 0.04161 0.42578 0.52409 0.0
C3479 C 0.02033 0.31487 0.46241 0.0
C3480 C 0.03 0.36687 0.47667 0.0
H3481 H 0.05516 0.41091 0.49095 0.0
C3482 C 0.01249 0.36962 0.48159 0.0
C3483 C 0.04576 0.3817 0.48085 0.0
C3484 C 0.06516 0.37929 0.47721 0.0
C3485 C 0.01013 0.38698 0.48968 0.0
C3486 C 0.02557 0.40218 0.49248 0.0
C3487 C 0.04329 0.39927 0.48854 0.0
C3488 C 0.02314 0.42142 0.49793 0.0
C3489 C 0.991 0.38896 0.49486 0.0
C3490 C 0.01149 0.42952 0.48594 0.0
C3491 C 0.00889 0.44757 0.49078 0.0
C3492 C 0.01804 0.45803 0.50765 0.0
C3493 C 0.02988 0.44998 0.51961 0.0
C3494 C 0.03246 0.4318 0.51473 0.0
H3495 H 0.98255 0.37533 0.49764 0.0
H3496 H 0.992 0.39911 0.50765 0.0
H3497 H 0.98343 0.39407 0.48281 0.0
H3498 H 0.00447 0.42189 0.47271 0.0
H3499 H 0.99981 0.45337 0.48113 0.0
H3500 H 0.44893 0.22718 0.18191 0.0
H3501 H 0.42147 0.23534 0.19496 0.0
H3502 H 0.42472 0.28166 0.16092 0.0
H3503 H 0.45241 0.27364 0.14774 0.0
H3504 H 0.4173 0.2893 0.20085 0.0
H3505 H 0.36989 0.22647 0.16219 0.0
H3506 H 0.39 0.22169 0.17566 0.0
H3507 H 0.39305 0.23518 0.15572 0.0
C3508 C 0.44391 0.23917 0.17722 0.0
C3509 C 0.45278 0.24967 0.16365 0.0
C3510 C 0.42818 0.24378 0.18469 0.0
C3511 C 0.42096 0.25894 0.17872 0.0
C3512 C 0.43007 0.26986 0.16564 0.0
H3513 H 0.30746 0.26754 0.19868 0.0
H3514 H 0.33684 0.26992 0.18427 0.0
C3515 C 0.44585 0.26523 0.15811 0.0
C3516 C 0.40349 0.26284 0.18574 0.0
H3517 H 0.35743 0.24318 0.18646 0.0
C3518 C 0.40414 0.27934 0.19759 0.0
C3519 C 0.38633 0.24993 0.18124 0.0
C3520 C 0.38465 0.23239 0.16787 0.0
C3521 C 0.38813 0.28294 0.20564 0.0
C3522 C 0.37117 0.26957 0.20184 0.0
C3523 C 0.37045 0.2534 0.18945 0.0
C3524 C 0.35405 0.27154 0.21095 0.0
C3525 C 0.3895 0.30098 0.21809 0.0
C3526 C 0.35401 0.27218 0.23081 0.0
C3527 C 0.33721 0.27091 0.23912 0.0
C3528 C 0.32015 0.26873 0.22767 0.0
C3529 C 0.32036 0.26908 0.20789 0.0
C3530 C 0.33714 0.27045 0.19962 0.0
H3531 H 0.4014 0.31187 0.21503 0.0
H3532 H 0.37641 0.3064 0.21613 0.0
H3533 H 0.39185 0.29844 0.23323 0.0
H3534 H 0.36681 0.27263 0.23982 0.0
H3535 H 0.33749 0.27056 0.25439 0.0
H3536 H 0.58113 0.53273 0.32378 0.0
H3537 H 0.56398 0.52704 0.35147 0.0
H3538 H 0.59063 0.48079 0.36162 0.0
H3539 H 0.60785 0.48629 0.33371 0.0
H3540 H 0.55052 0.47416 0.36551 0.0
H3541 H 0.59028 0.53987 0.4065 0.0
H3542 H 0.57978 0.5427 0.38338 0.0
H3543 H 0.59807 0.52962 0.38534 0.0
C3544 C 0.58333 0.52128 0.33182 0.0
C3545 C 0.59601 0.51006 0.32662 0.0
C3546 C 0.57352 0.51808 0.34767 0.0
C3547 C 0.57621 0.50366 0.35872 0.0
C3548 C 0.5884 0.49203 0.35328 0.0
H3549 H 0.55113 0.49658 0.4747 0.0
H3550 H 0.56485 0.49594 0.44461 0.0
C3551 C 0.59826 0.49523 0.33738 0.0
C3552 C 0.56684 0.50128 0.37636 0.0
H3553 H 0.56442 0.52347 0.42012 0.0
C3554 C 0.55356 0.48489 0.37749 0.0
C3555 C 0.57097 0.51525 0.392 0.0
C3556 C 0.58566 0.53279 0.39191 0.0
C3557 C 0.5441 0.48223 0.39383 0.0
C3558 C 0.54796 0.4964 0.4093 0.0
C3559 C 0.56138 0.51268 0.40818 0.0
C3560 C 0.53885 0.49453 0.42716 0.0
C3561 C 0.53031 0.4642 0.39458 0.0
C3562 C 0.51953 0.49363 0.42736 0.0
C3563 C 0.51155 0.49395 0.44467 0.0
C3564 C 0.52282 0.49538 0.46203 0.0
C3565 C 0.54203 0.49562 0.46163 0.0
C3566 C 0.54993 0.49524 0.44442 0.0
H3567 H 0.53191 0.45319 0.38342 0.0
H3568 H 0.53201 0.45894 0.40873 0.0
H3569 H 0.51589 0.46674 0.3923 0.0
H3570 H 0.51076 0.49337 0.41422 0.0
H3571 H 0.49674 0.49383 0.44448 0.0
H3572 H 0.22176 0.81811 0.04577 0.0
H3573 H 0.21833 0.79492 0.06866 0.0
H3574 H 0.23157 0.83911 0.11489 0.0
H3575 H 0.23455 0.86243 0.09209 0.0
H3576 H 0.24548 0.78937 0.0933 0.0
H3577 H 0.18791 0.80537 0.13307 0.0
H3578 H 0.19264 0.81447 0.11071 0.0
H3579 H 0.20571 0.82587 0.13263 0.0
C3580 C 0.22362 0.82292 0.06082 0.0
C3581 C 0.22849 0.84212 0.06713 0.0
C3582 C 0.22164 0.80963 0.07387 0.0
C3583 C 0.22448 0.81527 0.09348 0.0
C3584 C 0.22884 0.83444 0.09983 0.0
H3585 H 0.27081 0.76939 0.18598 0.0
H3586 H 0.26382 0.7814 0.15582 0.0
C3587 C 0.23067 0.84776 0.08677 0.0
C3588 C 0.22477 0.80119 0.10724 0.0
H3589 H 0.209 0.78871 0.14913 0.0
C3590 C 0.23724 0.78898 0.10532 0.0
C3591 C 0.21377 0.8004 0.12271 0.0
C3592 C 0.19911 0.8121 0.12479 0.0
C3593 C 0.23984 0.77683 0.11909 0.0
C3594 C 0.23002 0.77722 0.1354 0.0
C3595 C 0.21669 0.78856 0.13672 0.0
C3596 C 0.23465 0.76752 0.15209 0.0
C3597 C 0.25332 0.76394 0.11618 0.0
C3598 C 0.22059 0.75562 0.16001 0.0
C3599 C 0.22452 0.74882 0.17743 0.0
C3600 C 0.24255 0.75398 0.18726 0.0
C3601 C 0.2568 0.76511 0.17877 0.0
C3602 C 0.25285 0.7719 0.16143 0.0
H3603 H 0.25423 0.76035 0.10078 0.0
H3604 H 0.26748 0.7711 0.12267 0.0
H3605 H 0.24914 0.75081 0.12287 0.0
H3606 H 0.20644 0.75215 0.15306 0.0
H3607 H 0.21322 0.74032 0.1836 0.0
H3608 H 0.91642 0.54986 0.8392 0.0
H3609 H 0.93746 0.55515 0.86877 0.0
H3610 H 0.98136 0.53978 0.83778 0.0
H3611 H 0.96011 0.53361 0.8085 0.0
H3612 H 0.97527 0.51899 0.86505 0.0
H3613 H 0.98128 0.59201 0.89555 0.0
H3614 H 0.95724 0.58066 0.88998 0.0
H3615 H 0.97218 0.58413 0.87112 0.0
C3616 C 0.93073 0.54814 0.83869 0.0
C3617 C 0.93664 0.54114 0.82172 0.0
C3618 C 0.94281 0.55131 0.85554 0.0
C3619 C 0.96108 0.548 0.8555 0.0
C3620 C 0.96735 0.54242 0.83818 0.0
H3621 H 0.03291 0.54004 0.96049 0.0
H3622 H 0.02434 0.54943 0.92894 0.0
C3623 C 0.95519 0.53886 0.82149 0.0
C3624 C 0.97242 0.54717 0.87364 0.0
H3625 H 0.98684 0.56981 0.91811 0.0
C3626 C 0.97823 0.53034 0.87643 0.0
C3627 C 0.97634 0.56194 0.88855 0.0
C3628 C 0.97159 0.58076 0.88606 0.0
C3629 C 0.98683 0.52748 0.894 0.0
C3630 C 0.98951 0.54172 0.90923 0.0
C3631 C 0.98467 0.55893 0.9063 0.0
C3632 C 0.99486 0.53777 0.92871 0.0
C3633 C 0.99211 0.50889 0.89656 0.0
C3634 C 0.98106 0.52823 0.9388 0.0
C3635 C 0.98584 0.52275 0.95655 0.0
C3636 C 0.00457 0.52675 0.96462 0.0
C3637 C 0.01838 0.53669 0.95461 0.0
C3638 C 0.01353 0.54216 0.9367 0.0
H3639 H 0.99179 0.50041 0.88273 0.0
H3640 H 0.00633 0.511 0.90425 0.0
H3641 H 0.98216 0.50087 0.90529 0.0
H3642 H 0.96658 0.52468 0.93272 0.0
H3643 H 0.97481 0.51522 0.96386 0.0
H3644 H 0.28184 0.14575 0.57326 0.0
H3645 H 0.28303 0.16278 0.60462 0.0
H3646 H 0.26052 0.20603 0.57897 0.0
H3647 H 0.25904 0.18898 0.54747 0.0
H3648 H 0.3017 0.19916 0.61871 0.0
H3649 H 0.22463 0.1908 0.61902 0.0
H3650 H 0.2351 0.17727 0.60212 0.0
H3651 H 0.23434 0.20119 0.59907 0.0
C3652 C 0.27719 0.15891 0.57422 0.0
C3653 C 0.27023 0.16592 0.55782 0.0
C3654 C 0.27789 0.16863 0.59218 0.0
C3655 C 0.27157 0.1855 0.59415 0.0
C3656 C 0.26511 0.19284 0.5778 0.0
H3657 H 0.26517 0.25425 0.70061 0.0
H3658 H 0.26338 0.24309 0.66668 0.0
C3659 C 0.2644 0.18312 0.5598 0.0
C3660 C 0.27177 0.19526 0.61339 0.0
H3661 H 0.24338 0.20773 0.64596 0.0
C3662 C 0.28896 0.20112 0.62463 0.0
C3663 C 0.25512 0.19788 0.62104 0.0
C3664 C 0.23621 0.19135 0.6098 0.0
C3665 C 0.28994 0.20929 0.64341 0.0
C3666 C 0.27326 0.21137 0.65126 0.0
C3667 C 0.25612 0.20608 0.63986 0.0
C3668 C 0.27332 0.21782 0.67164 0.0
C3669 C 0.30883 0.21552 0.65478 0.0
C3670 C 0.27895 0.20703 0.68559 0.0
C3671 C 0.27991 0.21327 0.70485 0.0
C3672 C 0.27521 0.23046 0.71061 0.0
C3673 C 0.26892 0.24097 0.69663 0.0
C3674 C 0.26792 0.23465 0.67726 0.0
H3675 H 0.3203 0.2177 0.64539 0.0
H3676 H 0.30951 0.2287 0.66402 0.0
H3677 H 0.31127 0.20458 0.66404 0.0
H3678 H 0.28281 0.19381 0.68154 0.0
H3679 H 0.28468 0.20474 0.71522 0.0
H3680 H 0.58372 0.51937 0.23423 0.0
H3681 H 0.56652 0.51724 0.20266 0.0
H3682 H 0.60866 0.49223 0.17777 0.0
H3683 H 0.62578 0.49406 0.20913 0.0
H3684 H 0.57896 0.53354 0.17059 0.0
H3685 H 0.56027 0.45645 0.15585 0.0
H3686 H 0.56819 0.46807 0.17944 0.0
H3687 H 0.58478 0.46488 0.16275 0.0
C3688 C 0.58923 0.51323 0.22206 0.0
C3689 C 0.60611 0.50681 0.22425 0.0
C3690 C 0.5794 0.51207 0.20404 0.0
C3691 C 0.58617 0.50433 0.18793 0.0
C3692 C 0.60296 0.49789 0.19007 0.0
H3693 H 0.5693 0.49055 0.06746 0.0
H3694 H 0.5796 0.49377 0.1014 0.0
C3695 C 0.61279 0.49904 0.20803 0.0
C3696 C 0.57622 0.50363 0.16869 0.0
H3697 H 0.55826 0.47392 0.1289 0.0
C3698 C 0.57414 0.52049 0.16155 0.0
C3699 C 0.56987 0.48659 0.15698 0.0
C3700 C 0.5707 0.46796 0.1642 0.0
C3701 C 0.56678 0.52082 0.14264 0.0
C3702 C 0.56125 0.50384 0.13071 0.0
C3703 C 0.56265 0.48694 0.13808 0.0
C3704 C 0.55519 0.50329 0.11017 0.0
C3705 C 0.56575 0.53933 0.13526 0.0
C3706 C 0.5381 0.50779 0.10384 0.0
C3707 C 0.53211 0.50596 0.08434 0.0
C3708 C 0.54313 0.49953 0.07092 0.0
C3709 C 0.56044 0.4955 0.07738 0.0
C3710 C 0.56636 0.49729 0.09678 0.0
H3711 H 0.57301 0.55136 0.14552 0.0
H3712 H 0.57203 0.54034 0.12157 0.0
H3713 H 0.55087 0.54038 0.13254 0.0
H3714 H 0.5292 0.51226 0.11399 0.0
H3715 H 0.51867 0.5091 0.07982 0.0
H3716 H 0.24302 0.812 0.97613 0.0
H3717 H 0.24124 0.79513 0.94463 0.0
H3718 H 0.21972 0.83913 0.91932 0.0
H3719 H 0.22112 0.85605 0.95103 0.0
H3720 H 0.20351 0.80094 0.90182 0.0
H3721 H 0.28128 0.81771 0.91052 0.0
H3722 H 0.2707 0.80568 0.92914 0.0
H3723 H 0.26747 0.82894 0.92592 0.0
C3724 C 0.23761 0.81797 0.9639 0.0
C3725 C 0.2325 0.83549 0.96597 0.0
C3726 C 0.23659 0.80829 0.94594 0.0
C3727 C 0.23068 0.81607 0.92969 0.0
C3728 C 0.22437 0.83296 0.93175 0.0
H3729 H 0.26259 0.80325 0.81777 0.0
H3730 H 0.25495 0.81313 0.8492 0.0
C3731 C 0.22521 0.84261 0.94982 0.0
C3732 C 0.23308 0.8076 0.91063 0.0
H3733 H 0.26673 0.79877 0.88277 0.0
C3734 C 0.21729 0.80038 0.89761 0.0
C3735 C 0.25113 0.80708 0.90522 0.0
C3736 C 0.26865 0.8154 0.91833 0.0
C3737 C 0.21913 0.79263 0.8792 0.0
C3738 C 0.23718 0.79202 0.8739 0.0
C3739 C 0.2529 0.79912 0.887 0.0
C3740 C 0.24042 0.78568 0.85435 0.0
C3741 C 0.20189 0.78568 0.86536 0.0
C3742 C 0.23474 0.76688 0.84682 0.0
C3743 C 0.23912 0.76109 0.82869 0.0
C3744 C 0.24933 0.77403 0.81798 0.0
C3745 C 0.25481 0.79285 0.82563 0.0
C3746 C 0.25041 0.79858 0.84359 0.0
H3747 H 0.18929 0.78977 0.8707 0.0
H3748 H 0.20396 0.79122 0.85142 0.0
H3749 H 0.19929 0.7702 0.86295 0.0
H3750 H 0.22725 0.75667 0.85508 0.0
H3751 H 0.2347 0.74651 0.82318 0.0
H3752 H 0.89579 0.52599 0.69844 0.0
H3753 H 0.91526 0.52544 0.67207 0.0
H3754 H 0.96343 0.52611 0.71172 0.0
H3755 H 0.94424 0.52688 0.73815 0.0
H3756 H 0.97019 0.55116 0.68413 0.0
H3757 H 0.93579 0.47978 0.652 0.0
H3758 H 0.9199 0.49525 0.65569 0.0
H3759 H 0.93277 0.48865 0.67585 0.0
C3760 C 0.91053 0.52607 0.70156 0.0
C3761 C 0.91843 0.52636 0.72038 0.0
C3762 C 0.9216 0.52564 0.68648 0.0
C3763 C 0.94068 0.52541 0.68999 0.0
C3764 C 0.94869 0.52615 0.70876 0.0
H3765 H 0.00591 0.49898 0.59734 0.0
H3766 H 0.99403 0.50005 0.62866 0.0
C3767 C 0.93767 0.52657 0.72382 0.0
C3768 C 0.95235 0.52454 0.67409 0.0
H3769 H 0.95651 0.498 0.6334 0.0
C3770 C 0.96733 0.53948 0.67311 0.0
C3771 C 0.94879 0.50909 0.65999 0.0
C3772 C 0.93356 0.49218 0.66097 0.0
C3773 C 0.97838 0.53975 0.65789 0.0
C3774 C 0.97415 0.52479 0.64324 0.0
C3775 C 0.95966 0.50949 0.64464 0.0
C3776 C 0.98348 0.52535 0.62557 0.0
C3777 C 0.9944 0.55609 0.65757 0.0
C3778 C 0.98163 0.53932 0.61365 0.0
C3779 C 0.98834 0.53874 0.59585 0.0
C3780 C 0.99694 0.5241 0.58958 0.0
C3781 C 0.9994 0.51046 0.60182 0.0
C3782 C 0.99261 0.51103 0.61967 0.0
H3783 H 0.99942 0.56305 0.67213 0.0
H3784 H 0.0063 0.55162 0.65107 0.0
H3785 H 0.98959 0.56655 0.64897 0.0
H3786 H 0.9743 0.55027 0.61777 0.0
H3787 H 0.98625 0.54947 0.58676 0.0
H3788 H 0.2882 0.15922 0.44555 0.0
H3789 H 0.2954 0.17714 0.4184 0.0
H3790 H 0.25804 0.21301 0.43474 0.0
H3791 H 0.2507 0.19524 0.4617 0.0
H3792 H 0.26732 0.1828 0.38858 0.0
H3793 H 0.30764 0.24952 0.42693 0.0
H3794 H 0.30461 0.22764 0.43743 0.0
H3795 H 0.28598 0.24033 0.43613 0.0
C3796 C 0.28165 0.17102 0.44344 0.0
C3797 C 0.26887 0.1758 0.45578 0.0
C3798 C 0.28577 0.18123 0.42794 0.0
C3799 C 0.27744 0.19654 0.42474 0.0
C3800 C 0.26486 0.20144 0.43715 0.0
H3801 H 0.26614 0.27294 0.34151 0.0
H3802 H 0.26846 0.25687 0.37021 0.0
C3803 C 0.2606 0.19117 0.45248 0.0
C3804 C 0.28087 0.20679 0.4078 0.0
H3805 H 0.29706 0.25015 0.39432 0.0
C3806 C 0.27406 0.19745 0.38975 0.0
C3807 C 0.28952 0.22593 0.40947 0.0
C3808 C 0.29752 0.23647 0.42851 0.0
C3809 C 0.27497 0.20694 0.37334 0.0
C3810 C 0.28342 0.2262 0.37499 0.0
C3811 C 0.29063 0.23541 0.39304 0.0
C3812 C 0.28396 0.23718 0.35828 0.0
C3813 C 0.26607 0.19642 0.35453 0.0
C3814 C 0.29256 0.23196 0.34228 0.0
C3815 C 0.29114 0.24103 0.32579 0.0
C3816 C 0.28134 0.25571 0.32508 0.0
C3817 C 0.27381 0.26172 0.34156 0.0
C3818 C 0.27509 0.25251 0.35798 0.0
H3819 H 0.25615 0.18335 0.35648 0.0
H3820 H 0.25843 0.20519 0.3461 0.0
H3821 H 0.27713 0.19253 0.34619 0.0
H3822 H 0.29995 0.22053 0.34235 0.0
H3823 H 0.29727 0.23616 0.31343 0.0
H3824 H 0.32469 0.59056 0.54172 0.0
H3825 H 0.34784 0.57473 0.52873 0.0
H3826 H 0.34076 0.59911 0.47598 0.0
H3827 H 0.31768 0.61546 0.48911 0.0
H3828 H 0.34552 0.54926 0.49683 0.0
H3829 H 0.39692 0.61512 0.49176 0.0
H3830 H 0.37668 0.61483 0.50462 0.0
H3831 H 0.37412 0.61253 0.47907 0.0
C3832 C 0.328 0.59259 0.52734 0.0
C3833 C 0.31948 0.60442 0.51651 0.0
C3834 C 0.34118 0.58344 0.5199 0.0
C3835 C 0.34613 0.58585 0.50146 0.0
C3836 C 0.33734 0.59728 0.49036 0.0
H3837 H 0.43211 0.52044 0.47219 0.0
H3838 H 0.40338 0.53275 0.46666 0.0
C3839 C 0.32415 0.60658 0.49787 0.0
C3840 C 0.36115 0.57693 0.49459 0.0
H3841 H 0.40723 0.58703 0.48713 0.0
C3842 C 0.35893 0.55743 0.49427 0.0
C3843 C 0.37857 0.58768 0.49125 0.0
C3844 C 0.38188 0.60871 0.49177 0.0
C3845 C 0.37406 0.54854 0.49211 0.0
C3846 C 0.39174 0.55946 0.48993 0.0
C3847 C 0.3936 0.57874 0.48878 0.0
C3848 C 0.40901 0.55193 0.49238 0.0
C3849 C 0.37139 0.52781 0.49363 0.0
C3850 C 0.42166 0.55875 0.50853 0.0
C3851 C 0.43792 0.55186 0.51167 0.0
C3852 C 0.44196 0.53796 0.49872 0.0
C3853 C 0.42931 0.53108 0.48246 0.0
C3854 C 0.41292 0.53807 0.4793 0.0
H3855 H 0.35714 0.5217 0.49715 0.0
H3856 H 0.37365 0.52059 0.47989 0.0
H3857 H 0.3818 0.52498 0.50475 0.0
H3858 H 0.41885 0.56937 0.51885 0.0
H3859 H 0.44731 0.55749 0.52435 0.0
H3860 H 0.80468 0.94291 0.55452 0.0
H3861 H 0.83561 0.9621 0.55205 0.0
H3862 H 0.85064 0.9159 0.51945 0.0
H3863 H 0.81992 0.89666 0.52176 0.0
H3864 H 0.8722 0.95408 0.5636 0.0
H3865 H 0.8608 0.96028 0.48623 0.0
H3866 H 0.8418 0.95358 0.50051 0.0
H3867 H 0.85503 0.93674 0.49246 0.0
C3868 C 0.81457 0.93683 0.54682 0.0
C3869 C 0.80978 0.91826 0.53826 0.0
C3870 C 0.83221 0.94782 0.54544 0.0
C3871 C 0.84525 0.94048 0.53534 0.0
C3872 C 0.84063 0.9219 0.52704 0.0
H3873 H 0.95617 0.96519 0.50576 0.0
H3874 H 0.92368 0.95328 0.5106 0.0
C3875 C 0.82308 0.9109 0.52847 0.0
C3876 C 0.86384 0.95201 0.53353 0.0
H3877 H 0.89235 0.96855 0.5005 0.0
C3878 C 0.87658 0.95752 0.54987 0.0
C3879 C 0.86941 0.9565 0.51559 0.0
C3880 C 0.85601 0.95164 0.4977 0.0
C3881 C 0.89513 0.96655 0.54861 0.0
C3882 C 0.90089 0.97039 0.53055 0.0
C3883 C 0.8879 0.96553 0.51432 0.0
C3884 C 0.92063 0.97805 0.5279 0.0
C3885 C 0.90865 0.97107 0.56643 0.0
C3886 C 0.92968 0.99604 0.53593 0.0
C3887 C 0.94837 0.00294 0.53322 0.0
C3888 C 0.95825 0.99198 0.52234 0.0
C3889 C 0.94902 0.97404 0.5142 0.0
C3890 C 0.93042 0.96719 0.51694 0.0
H3891 H 0.90289 0.9641 0.57858 0.0
H3892 H 0.92203 0.96677 0.56393 0.0
H3893 H 0.91175 0.9864 0.57047 0.0
H3894 H 0.92226 0.00476 0.54418 0.0
H3895 H 0.95506 0.01684 0.5396 0.0
H3896 H 0.8688 0.07446 0.26666 0.0
H3897 H 0.85446 0.10148 0.27356 0.0
H3898 H 0.81104 0.0801 0.22766 0.0
H3899 H 0.82559 0.05347 0.22033 0.0
H3900 H 0.82484 0.11559 0.2255 0.0
H3901 H 0.8089 0.10701 0.29959 0.0
H3902 H 0.83311 0.10779 0.29672 0.0
H3903 H 0.8156 0.08881 0.28456 0.0
C3904 C 0.85612 0.07546 0.25816 0.0
C3905 C 0.84837 0.06185 0.24292 0.0
C3906 C 0.84783 0.09083 0.26222 0.0
C3907 C 0.83147 0.0927 0.25134 0.0
C3908 C 0.82361 0.07896 0.23631 0.0
H3909 H 0.76588 0.17899 0.27562 0.0
H3910 H 0.77621 0.14902 0.27204 0.0
C3911 C 0.83197 0.06374 0.23211 0.0
C3912 C 0.82324 0.10958 0.25462 0.0
H3913 H 0.80715 0.13669 0.28851 0.0
C3914 C 0.82083 0.12007 0.23926 0.0
C3915 C 0.81772 0.11533 0.27248 0.0
C3916 C 0.81877 0.10404 0.28922 0.0
C3917 C 0.81355 0.13637 0.24135 0.0
C3918 C 0.80901 0.1427 0.25945 0.0
C3919 C 0.81085 0.13194 0.27471 0.0
C3920 C 0.80301 0.16081 0.26281 0.0
C3921 C 0.81069 0.1466 0.22407 0.0
C3922 C 0.81483 0.17738 0.25935 0.0
C3923 C 0.80894 0.19436 0.26121 0.0
C3924 C 0.79117 0.19523 0.26687 0.0
C3925 C 0.77961 0.17875 0.27116 0.0
C3926 C 0.7855 0.16165 0.26913 0.0
H3927 H 0.80927 0.13717 0.21067 0.0
H3928 H 0.79805 0.15281 0.22442 0.0
H3929 H 0.82301 0.15804 0.22375 0.0
H3930 H 0.82859 0.17716 0.25495 0.0
H3931 H 0.81834 0.20681 0.25807 0.0
H3932 H 0.72423 0.08007 0.04455 0.0
H3933 H 0.69218 0.06166 0.04088 0.0
H3934 H 0.67409 0.10235 0.00714 0.0
H3935 H 0.70591 0.12075 0.01059 0.0
H3936 H 0.65871 0.07372 0.05118 0.0
H3937 H 0.6554 0.05177 0.97393 0.0
H3938 H 0.67721 0.06054 0.98867 0.0
H3939 H 0.66339 0.07647 0.98014 0.0
C3940 C 0.71344 0.08507 0.03629 0.0
C3941 C 0.71766 0.10184 0.02778 0.0
C3942 C 0.69516 0.07455 0.03425 0.0
C3943 C 0.68089 0.08054 0.02352 0.0
C3944 C 0.68501 0.09734 0.01519 0.0
H3945 H 0.56421 0.05511 0.99071 0.0
H3946 H 0.59776 0.06734 0.99732 0.0
C3947 C 0.7032 0.10788 0.01726 0.0
C3948 C 0.66153 0.06956 0.02122 0.0
H3949 H 0.62627 0.04817 0.98738 0.0
C3950 C 0.65163 0.06786 0.0373 0.0
C3951 C 0.65246 0.06192 0.00309 0.0
C3952 C 0.66269 0.06258 0.98548 0.0
C3953 C 0.63254 0.05955 0.03555 0.0
C3954 C 0.6233 0.05258 0.0173 0.0
C3955 C 0.63341 0.05364 0.00134 0.0
C3956 C 0.6029 0.04524 0.01416 0.0
C3957 C 0.62218 0.05904 0.05308 0.0
C3958 C 0.5947 0.02876 0.02149 0.0
C3959 C 0.57545 0.02171 0.01775 0.0
C3960 C 0.56418 0.03102 0.00654 0.0
C3961 C 0.57248 0.04759 0.99937 0.0
C3962 C 0.59166 0.0546 0.00312 0.0
H3963 H 0.63055 0.06798 0.06549 0.0
H3964 H 0.60877 0.06373 0.05032 0.0
H3965 H 0.61889 0.04447 0.05686 0.0
H3966 H 0.60322 0.0212 0.02982 0.0
H3967 H 0.56946 0.00887 0.02342 0.0
H3968 H 0.1589 0.45979 0.28746 0.0
H3969 H 0.17482 0.43703 0.30176 0.0
H3970 H 0.20667 0.43477 0.25346 0.0
H3971 H 0.19118 0.45757 0.23931 0.0
H3972 H 0.17328 0.40172 0.28706 0.0
H3973 H 0.24706 0.43845 0.29673 0.0
H3974 H 0.22806 0.45056 0.29277 0.0
H3975 H 0.23713 0.43946 0.27296 0.0
C3976 C 0.16949 0.45461 0.28003 0.0
C3977 C 0.17377 0.46045 0.26224 0.0
C3978 C 0.1786 0.44167 0.28825 0.0
C3979 C 0.19223 0.43451 0.27888 0.0
C3980 C 0.19664 0.44053 0.26124 0.0
H3981 H 0.21772 0.33163 0.25661 0.0
H3982 H 0.20609 0.36033 0.26152 0.0
C3983 C 0.18759 0.45342 0.25305 0.0
C3984 C 0.20042 0.41922 0.28621 0.0
H3985 H 0.24167 0.40426 0.2914 0.0
C3986 C 0.18826 0.40244 0.28854 0.0
C3987 C 0.21997 0.42021 0.28856 0.0
C3988 C 0.23378 0.43824 0.28783 0.0
C3989 C 0.19507 0.38618 0.2913 0.0
C3990 C 0.21446 0.38669 0.29142 0.0
C3991 C 0.22676 0.40384 0.29097 0.0
C3992 C 0.22176 0.3693 0.2891 0.0
C3993 C 0.18135 0.36834 0.29312 0.0
C3994 C 0.23492 0.36511 0.30276 0.0
C3995 C 0.24172 0.34859 0.29997 0.0
C3996 C 0.23557 0.33621 0.28337 0.0
C3997 C 0.22269 0.34076 0.26961 0.0
C3998 C 0.2159 0.35712 0.27245 0.0
H3999 H 0.16859 0.37131 0.29911 0.0
H4000 H 0.17701 0.3606 0.27879 0.0
H4001 H 0.18771 0.35921 0.30231 0.0
H4002 H 0.23977 0.37451 0.31561 0.0
H4003 H 0.25168 0.34548 0.31079 0.0
H4004 H 0.19745 0.40274 0.01907 0.0
H4005 H 0.17116 0.41834 0.01312 0.0
H4006 H 0.19724 0.46332 0.05597 0.0
H4007 H 0.22309 0.44746 0.06246 0.0
H4008 H 0.16241 0.45258 0.06115 0.0
H4009 H 0.1654 0.4621 0.98483 0.0
H4010 H 0.16353 0.43807 0.98905 0.0
H4011 H 0.184 0.45508 0.99897 0.0
C4012 C 0.19763 0.41603 0.02709 0.0
C4013 C 0.21232 0.42383 0.04127 0.0
C4014 C 0.18267 0.42504 0.02356 0.0
C4015 C 0.18231 0.44222 0.03385 0.0
C4016 C 0.19717 0.45013 0.04778 0.0
H4017 H 0.09639 0.50859 0.00886 0.0
H4018 H 0.12633 0.49809 0.01201 0.0
C4019 C 0.21195 0.44102 0.0515 0.0
C4020 C 0.1659 0.4513 0.03121 0.0
H4021 H 0.13697 0.46591 0.99784 0.0
C4022 C 0.15701 0.45566 0.0473 0.0
C4023 C 0.15896 0.45567 0.01323 0.0
C4024 C 0.16859 0.45267 0.99558 0.0
C4025 C 0.14112 0.46366 0.04587 0.0
C4026 C 0.13347 0.4669 0.02774 0.0
C4027 C 0.14269 0.4632 0.0117 0.0
C4028 C 0.1154 0.4732 0.02516 0.0
C4029 C 0.13275 0.46864 0.06388 0.0
C4030 C 0.09929 0.46251 0.03108 0.0
C4031 C 0.08237 0.46852 0.02948 0.0
C4032 C 0.08102 0.48525 0.02163 0.0
C4033 C 0.09701 0.4957 0.01507 0.0
C4034 C 0.11409 0.4897 0.01684 0.0
H4035 H 0.14336 0.47116 0.07648 0.0
H4036 H 0.12665 0.4813 0.06289 0.0
H4037 H 0.12149 0.45683 0.0663 0.0
H4038 H 0.0998 0.44946 0.03702 0.0
H4039 H 0.07029 0.45994 0.0344 0.0
H4040 H 0.82592 0.9682 0.22288 0.0
H4041 H 0.80555 0.93776 0.225 0.0
H4042 H 0.84788 0.92343 0.26373 0.0
H4043 H 0.86823 0.95358 0.26178 0.0
H4044 H 0.81423 0.90101 0.21651 0.0
H4045 H 0.79972 0.91398 0.29139 0.0
H4046 H 0.80821 0.93264 0.27728 0.0
H4047 H 0.82412 0.9198 0.28811 0.0
C4048 C 0.83085 0.95859 0.23191 0.0
C4049 C 0.84869 0.96337 0.24221 0.0
C4050 C 0.81921 0.94123 0.23308 0.0
C4051 C 0.82513 0.92852 0.24474 0.0
C4052 C 0.84293 0.9332 0.25492 0.0
H4053 H 0.80285 0.8192 0.27595 0.0
H4054 H 0.81303 0.85192 0.2709 0.0
C4055 C 0.85458 0.95043 0.25369 0.0
C4056 C 0.81316 0.91002 0.24601 0.0
H4057 H 0.79414 0.88191 0.27827 0.0
C4058 C 0.80946 0.89687 0.22988 0.0
C4059 C 0.80696 0.90476 0.26349 0.0
C4060 C 0.80978 0.91858 0.28103 0.0
C4061 C 0.80078 0.8782 0.23109 0.0
C4062 C 0.79547 0.87274 0.24883 0.0
C4063 C 0.79831 0.88614 0.26471 0.0
C4064 C 0.78873 0.8529 0.25174 0.0
C4065 C 0.79833 0.86424 0.2137 0.0
C4066 C 0.77157 0.84262 0.24273 0.0
C4067 C 0.76566 0.8238 0.24558 0.0
C4068 C 0.77682 0.81502 0.25753 0.0
C4069 C 0.79389 0.82548 0.26665 0.0
C4070 C 0.79974 0.84421 0.26381 0.0
H4071 H 0.80577 0.87015 0.20187 0.0
H4072 H 0.80356 0.85158 0.21723 0.0
H4073 H 0.78324 0.85985 0.20864 0.0
H4074 H 0.76276 0.84917 0.23356 0.0
H4075 H 0.75241 0.81614 0.23841 0.0
H4076 H 0.64243 0.06203 0.77087 0.0
H4077 H 0.66148 0.0935 0.77304 0.0
H4078 H 0.70106 0.07297 0.7395 0.0
H4079 H 0.68198 0.0413 0.73708 0.0
H4080 H 0.69991 0.10465 0.78845 0.0
H4081 H 0.68852 0.11798 0.71252 0.0
H4082 H 0.67338 0.09967 0.72262 0.0
H4083 H 0.69619 0.09678 0.71723 0.0
C4084 C 0.65514 0.06415 0.76387 0.0
C4085 C 0.66066 0.04913 0.75377 0.0
C4086 C 0.66601 0.08215 0.76515 0.0
C4087 C 0.68255 0.08554 0.75628 0.0
C4088 C 0.68818 0.07065 0.7462 0.0
H4089 H 0.75632 0.19631 0.75862 0.0
H4090 H 0.74409 0.16249 0.7521 0.0
C4091 C 0.6773 0.05257 0.74492 0.0
C4092 C 0.694 0.10468 0.75817 0.0
H4093 H 0.70688 0.14248 0.73368 0.0
C4094 C 0.70161 0.11287 0.77645 0.0
C4095 C 0.69628 0.11526 0.74245 0.0
C4096 C 0.6881 0.10711 0.72257 0.0
C4097 C 0.71095 0.1316 0.77954 0.0
C4098 C 0.71244 0.14245 0.76397 0.0
C4099 C 0.70562 0.13407 0.74555 0.0
C4100 C 0.71955 0.16285 0.76693 0.0
C4101 C 0.71884 0.13977 0.7995 0.0
C4102 C 0.7095 0.17416 0.77698 0.0
C4103 C 0.71636 0.19335 0.78067 0.0
C4104 C 0.73339 0.20161 0.77433 0.0
C4105 C 0.74319 0.19032 0.76374 0.0
C4106 C 0.73625 0.17105 0.76001 0.0
H4107 H 0.72105 0.12871 0.80873 0.0
H4108 H 0.73233 0.14975 0.79944 0.0
H4109 H 0.70885 0.14748 0.80587 0.0
H4110 H 0.69642 0.16808 0.78215 0.0
H4111 H 0.70839 0.20164 0.78874 0.0
loop_
_geom_bond_atom_site_label_1
_geom_bond_atom_site_label_2
_geom_bond_distance
_geom_bond_site_symmetry_2
_ccdc_geom_bond_type
O0 Cd1 2.223 . S
O0 C8 1.315 . S
Cd1 O0 2.223 . S
Cd1 O4 2.297 . S
Cd1 O5 2.439 . S
Cd1 O11 2.214 1_455 S
Cd2 O3 2.240 . S
Cd2 O10 2.223 1_455 S
Cd2 O12 2.297 . S
Cd2 O13 2.439 . S
O3 Cd2 2.240 . S
O3 C8 1.279 . S
O4 Cd1 2.297 . S
O4 C6 1.247 . S
O5 Cd1 2.439 . S
O5 C6 1.208 . S
C6 O4 1.247 . S
C6 O5 1.208 . S
C7 O12 1.247 . S
C7 O13 1.208 . S
C8 O0 1.315 . S
C8 O3 1.279 . S
C9 O10 1.315 . S
C9 O11 1.305 . S
O10 Cd2 2.223 1_655 S
O10 C9 1.315 . S
O11 Cd1 2.214 1_655 S
O11 C9 1.305 . S
O12 Cd2 2.297 . S
O12 C7 1.247 . S
O13 Cd2 2.439 . S
O13 C7 1.208 . S
O14 Cd15 2.221 1_455 S
O14 C22 1.315 1_455 S
Cd15 O14 2.221 1_655 S
Cd15 O18 2.297 . S
Cd15 O19 2.439 . S
Cd15 O25 2.240 1_655 S
Cd16 O17 2.240 1_455 S
Cd16 O24 2.223 . S
Cd16 O26 2.297 . S
Cd16 O27 2.419 1_455 S
O17 Cd16 2.240 1_655 S
O17 C22 1.279 . S
O18 Cd15 2.297 . S
O18 C20 1.247 . S
O19 Cd15 2.439 . S
O19 C20 1.208 . S
C20 O18 1.247 . S
C20 O19 1.208 . S
C21 O26 1.247 . S
C21 O27 1.183 1_455 S
C22 O14 1.315 1_655 S
C22 O17 1.279 . S
C23 O24 1.315 . S
C23 O25 1.279 . S
O24 Cd16 2.223 . S
O24 C23 1.315 . S
O25 Cd15 2.240 1_455 S
O25 C23 1.279 . S
O26 Cd16 2.297 . S
O26 C21 1.247 . S
O27 Cd16 2.419 1_655 S
O27 C21 1.183 1_655 S
O28 Cd29 2.223 . S
O28 C36 1.315 . S
Cd29 O28 2.223 . S
Cd29 O32 2.297 . S
Cd29 O33 2.439 . S
Cd29 O39 2.240 . S
Cd30 O31 2.240 . S
Cd30 O38 2.223 . S
Cd30 O40 2.297 . S
Cd30 O41 2.439 . S
O31 Cd30 2.240 . S
O31 C36 1.279 . S
O32 Cd29 2.297 . S
O32 C34 1.247 . S
O33 Cd29 2.439 . S
O33 C34 1.208 . S
C34 O32 1.247 . S
C34 O33 1.208 . S
C35 O40 1.247 . S
C35 O41 1.208 . S
C36 O28 1.315 . S
C36 O31 1.279 . S
C37 O38 1.315 . S
C37 O39 1.279 . S
O38 Cd30 2.223 . S
O38 C37 1.315 . S
O39 Cd29 2.240 . S
O39 C37 1.279 . S
O40 Cd30 2.297 . S
O40 C35 1.247 . S
O41 Cd30 2.439 . S
O41 C35 1.208 . S
O42 Cd43 2.223 . S
O42 C50 1.315 . S
Cd43 O42 2.223 . S
Cd43 O46 2.297 . S
Cd43 O47 2.439 . S
Cd43 O53 2.240 . S
Cd44 O45 2.240 . S
Cd44 O52 2.223 . S
Cd44 O54 2.297 . S
Cd44 O55 2.439 . S
O45 Cd44 2.240 . S
O45 C50 1.279 . S
O46 Cd43 2.297 . S
O46 C48 1.247 . S
O47 Cd43 2.439 . S
O47 C48 1.208 . S
C48 O46 1.247 . S
C48 O47 1.208 . S
C49 O54 1.247 . S
C49 O55 1.208 . S
C50 O42 1.315 . S
C50 O45 1.279 . S
C51 O52 1.315 . S
C51 O53 1.279 . S
O52 Cd44 2.223 . S
O52 C51 1.315 . S
O53 Cd43 2.240 . S
O53 C51 1.279 . S
O54 Cd44 2.297 . S
O54 C49 1.247 . S
O55 Cd44 2.439 . S
O55 C49 1.208 . S
O56 Cd57 2.223 . S
O56 C64 1.315 . S
Cd57 O56 2.223 . S
Cd57 O60 2.297 1_455 S
Cd57 O61 2.439 1_455 S
Cd57 O67 2.240 . S
Cd58 O59 2.240 . S
Cd58 O66 2.223 . S
Cd58 O68 2.297 . S
Cd58 O69 2.439 . S
O59 Cd58 2.240 . S
O59 C64 1.279 . S
O60 Cd57 2.297 1_655 S
O60 C62 1.247 . S
O61 Cd57 2.439 1_655 S
O61 C62 1.208 . S
C62 O60 1.247 . S
C62 O61 1.208 . S
C63 O68 1.247 . S
C63 O69 1.208 . S
C64 O56 1.315 . S
C64 O59 1.279 . S
C65 O66 1.315 . S
C65 O67 1.279 . S
O66 Cd58 2.223 . S
O66 C65 1.315 . S
O67 Cd57 2.240 . S
O67 C65 1.279 . S
O68 Cd58 2.297 . S
O68 C63 1.247 . S
O69 Cd58 2.439 . S
O69 C63 1.208 . S
O70 Cd71 2.223 . S
O70 C78 1.315 . S
Cd71 O70 2.223 . S
Cd71 O74 2.297 . S
Cd71 O75 2.439 . S
Cd71 O81 2.240 . S
Cd72 O73 2.240 . S
Cd72 O80 2.223 . S
Cd72 O82 2.297 . S
Cd72 O83 2.439 . S
O73 Cd72 2.240 . S
O73 C78 1.279 . S
O74 Cd71 2.297 . S
O74 C76 1.247 . S
O75 Cd71 2.439 . S
O75 C76 1.208 . S
C76 O74 1.247 . S
C76 O75 1.208 . S
C77 O82 1.247 . S
C77 O83 1.208 . S
C78 O70 1.315 . S
C78 O73 1.279 . S
C79 O80 1.315 . S
C79 O81 1.279 . S
O80 Cd72 2.223 . S
O80 C79 1.315 . S
O81 Cd71 2.240 . S
O81 C79 1.279 . S
O82 Cd72 2.297 . S
O82 C77 1.247 . S
O83 Cd72 2.439 . S
O83 C77 1.208 . S
O84 Cd85 2.223 . S
O84 C92 1.315 . S
Cd85 O84 2.223 . S
Cd85 O88 2.297 . S
Cd85 O89 2.439 . S
Cd85 O95 2.240 . S
Cd86 O87 2.240 . S
Cd86 O94 2.223 . S
Cd86 O96 2.297 . S
Cd86 O97 2.439 . S
O87 Cd86 2.240 . S
O87 C92 1.279 . S
O88 Cd85 2.297 . S
O88 C90 1.247 . S
O89 Cd85 2.439 . S
O89 C90 1.208 . S
C90 O88 1.247 . S
C90 O89 1.208 . S
C91 O96 1.247 . S
C91 O97 1.208 . S
C92 O84 1.315 . S
C92 O87 1.279 . S
C93 O94 1.315 . S
C93 O95 1.279 . S
O94 Cd86 2.223 . S
O94 C93 1.315 . S
O95 Cd85 2.240 . S
O95 C93 1.279 . S
O96 Cd86 2.297 . S
O96 C91 1.247 . S
O97 Cd86 2.439 . S
O97 C91 1.208 . S
O98 Cd99 2.223 1_655 S
O98 C106 1.318 . S
Cd99 O98 2.223 1_455 S
Cd99 O102 2.297 . S
Cd99 O103 2.439 . S
Cd99 O109 2.240 1_455 S
Cd100 O101 2.240 1_655 S
Cd100 O108 2.223 . S
Cd100 O110 2.297 . S
Cd100 O111 2.439 1_655 S
O101 Cd100 2.240 1_455 S
O101 C106 1.266 1_455 S
O102 Cd99 2.297 . S
O102 C104 1.247 . S
O103 Cd99 2.439 . S
O103 C104 1.208 . S
C104 O102 1.247 . S
C104 O103 1.208 . S
C105 O110 1.247 1_455 S
C105 O111 1.208 . S
C106 O98 1.318 . S
C106 O101 1.266 1_655 S
C107 O108 1.315 . S
C107 O109 1.279 . S
O108 Cd100 2.223 . S
O108 C107 1.315 . S
O109 Cd99 2.240 1_655 S
O109 C107 1.279 . S
O110 Cd100 2.297 . S
O110 C105 1.247 1_655 S
O111 Cd100 2.439 1_455 S
O111 C105 1.208 . S
O112 Cd113 2.223 . S
O112 C120 1.315 . S
Cd113 O112 2.223 . S
Cd113 O116 2.297 . S
Cd113 O117 2.439 . S
Cd113 O123 2.240 . S
Cd114 O115 2.240 . S
Cd114 O122 2.223 1_545 S
Cd114 O124 2.297 . S
Cd114 O125 2.439 . S
O115 Cd114 2.240 . S
O115 C120 1.279 . S
O116 Cd113 2.297 . S
O116 C118 1.247 . S
O117 Cd113 2.439 . S
O117 C118 1.208 . S
C118 O116 1.247 . S
C118 O117 1.208 . S
C119 O124 1.247 . S
C119 O125 1.208 . S
C120 O112 1.315 . S
C120 O115 1.279 . S
C121 O122 1.315 . S
C121 O123 1.279 1_565 S
O122 Cd114 2.223 1_565 S
O122 C121 1.315 . S
O123 Cd113 2.240 . S
O123 C121 1.279 1_545 S
O124 Cd114 2.297 . S
O124 C119 1.247 . S
O125 Cd114 2.439 . S
O125 C119 1.208 . S
O126 Cd127 2.223 . S
O126 C134 1.315 . S
Cd127 O126 2.223 . S
Cd127 O130 2.297 . S
Cd127 O131 2.439 . S
Cd127 O137 2.240 . S
Cd128 O129 2.240 . S
Cd128 O136 2.223 . S
Cd128 O138 2.297 . S
Cd128 O139 2.439 . S
O129 Cd128 2.240 . S
O129 C134 1.279 . S
O130 Cd127 2.297 . S
O130 C132 1.247 . S
O131 Cd127 2.439 . S
O131 C132 1.208 . S
C132 O130 1.247 . S
C132 O131 1.208 . S
C133 O138 1.247 . S
C133 O139 1.208 . S
C134 O126 1.315 . S
C134 O129 1.279 . S
C135 O136 1.315 . S
C135 O137 1.279 . S
O136 Cd128 2.223 . S
O136 C135 1.315 . S
O137 Cd127 2.240 . S
O137 C135 1.279 . S
O138 Cd128 2.297 . S
O138 C133 1.247 . S
O139 Cd128 2.439 . S
O139 C133 1.208 . S
O140 Cd141 2.210 1_545 S
O140 C148 1.315 . S
Cd141 O140 2.210 1_565 S
Cd141 O144 2.331 . S
Cd141 O145 2.468 . S
Cd141 O151 2.212 1_565 S
Cd142 O143 2.240 1_545 S
Cd142 O150 2.223 . S
Cd142 O152 2.297 . S
Cd142 O153 2.409 1_545 S
O143 Cd142 2.240 1_565 S
O143 C148 1.279 1_565 S
O144 Cd141 2.331 . S
O144 C146 1.247 . S
O145 Cd141 2.468 . S
O145 C146 1.208 . S
C146 O144 1.247 . S
C146 O145 1.208 . S
C147 O152 1.247 . S
C147 O153 1.167 1_545 S
C148 O140 1.315 . S
C148 O143 1.279 1_545 S
C149 O150 1.315 . S
C149 O151 1.279 . S
O150 Cd142 2.223 . S
O150 C149 1.315 . S
O151 Cd141 2.212 1_545 S
O151 C149 1.279 . S
O152 Cd142 2.297 . S
O152 C147 1.247 . S
O153 Cd142 2.409 1_565 S
O153 C147 1.167 1_565 S
O154 Cd155 2.223 . S
O154 C162 1.315 . S
Cd155 O154 2.223 . S
Cd155 O158 2.297 . S
Cd155 O159 2.462 . S
Cd155 O165 2.240 . S
Cd156 O157 2.240 1_556 S
Cd156 O164 2.223 1_556 S
Cd156 O166 2.297 . S
Cd156 O167 2.439 . S
O157 Cd156 2.240 1_554 S
O157 C162 1.279 . S
O158 Cd155 2.297 . S
O158 C160 1.247 . S
O159 Cd155 2.462 . S
O159 C160 1.250 . S
C160 O158 1.247 . S
C160 O159 1.250 . S
C161 O166 1.247 . S
C161 O167 1.208 . S
C162 O154 1.315 . S
C162 O157 1.279 . S
C163 O164 1.315 . S
C163 O165 1.279 . S
O164 Cd156 2.223 1_554 S
O164 C163 1.315 . S
O165 Cd155 2.240 . S
O165 C163 1.279 . S
O166 Cd156 2.297 . S
O166 C161 1.247 . S
O167 Cd156 2.439 . S
O167 C161 1.208 . S
O168 Cd169 2.223 . S
O168 C176 1.315 . S
Cd169 O168 2.223 . S
Cd169 O172 2.297 . S
Cd169 O173 2.439 . S
Cd169 O179 2.240 . S
Cd170 O171 2.240 . S
Cd170 O178 2.223 . S
Cd170 O180 2.297 1_554 S
Cd170 O181 2.439 1_554 S
O171 Cd170 2.240 . S
O171 C176 1.279 . S
O172 Cd169 2.297 . S
O172 C174 1.247 . S
O173 Cd169 2.439 . S
O173 C174 1.208 . S
C174 O172 1.247 . S
C174 O173 1.208 . S
C175 O180 1.247 . S
C175 O181 1.208 . S
C176 O168 1.315 . S
C176 O171 1.279 . S
C177 O178 1.315 . S
C177 O179 1.279 . S
O178 Cd170 2.223 . S
O178 C177 1.315 . S
O179 Cd169 2.240 . S
O179 C177 1.279 . S
O180 Cd170 2.297 1_556 S
O180 C175 1.247 . S
O181 Cd170 2.439 1_556 S
O181 C175 1.208 . S
O182 Cd183 2.223 . S
O182 C190 1.315 . S
Cd183 O182 2.223 . S
Cd183 O186 2.297 . S
Cd183 O187 2.439 . S
Cd183 O193 2.240 . S
Cd184 O185 2.240 . S
Cd184 O192 2.223 . S
Cd184 O194 2.297 1_554 S
Cd184 O195 2.439 1_554 S
O185 Cd184 2.240 . S
O185 C190 1.279 . S
O186 Cd183 2.297 . S
O186 C188 1.247 . S
O187 Cd183 2.439 . S
O187 C188 1.208 . S
C188 O186 1.247 . S
C188 O187 1.208 . S
C189 O194 1.247 . S
C189 O195 1.208 . S
C190 O182 1.315 . S
C190 O185 1.279 . S
C191 O192 1.315 . S
C191 O193 1.279 . S
O192 Cd184 2.223 . S
O192 C191 1.315 . S
O193 Cd183 2.240 . S
O193 C191 1.279 . S
O194 Cd184 2.297 1_556 S
O194 C189 1.247 . S
O195 Cd184 2.439 1_556 S
O195 C189 1.208 . S
O196 Cd197 2.223 . S
O196 C204 1.315 . S
Cd197 O196 2.223 . S
Cd197 O200 2.297 . S
Cd197 O201 2.439 . S
Cd197 O207 2.240 . S
Cd198 O199 2.240 . S
Cd198 O206 2.223 . S
Cd198 O208 2.297 . S
Cd198 O209 2.439 . S
O199 Cd198 2.240 . S
O199 C204 1.279 . S
O200 Cd197 2.297 . S
O200 C202 1.247 . S
O201 Cd197 2.439 . S
O201 C202 1.208 . S
C202 O200 1.247 . S
C202 O201 1.208 . S
C203 O208 1.247 . S
C203 O209 1.208 . S
C204 O196 1.315 . S
C204 O199 1.279 . S
C205 O206 1.315 . S
C205 O207 1.279 . S
O206 Cd198 2.223 . S
O206 C205 1.315 . S
O207 Cd197 2.240 . S
O207 C205 1.279 . S
O208 Cd198 2.297 . S
O208 C203 1.247 . S
O209 Cd198 2.439 . S
O209 C203 1.208 . S
O210 Cd211 2.223 . S
O210 C218 1.315 . S
Cd211 O210 2.223 . S
Cd211 O214 2.297 . S
Cd211 O215 2.439 . S
Cd211 O221 2.240 . S
Cd212 O213 2.240 . S
Cd212 O220 2.223 . S
Cd212 O222 2.297 . S
Cd212 O223 2.439 . S
O213 Cd212 2.240 . S
O213 C218 1.279 . S
O214 Cd211 2.297 . S
O214 C216 1.247 . S
O215 Cd211 2.439 . S
O215 C216 1.208 . S
C216 O214 1.247 . S
C216 O215 1.208 . S
C217 O222 1.247 . S
C217 O223 1.208 . S
C218 O210 1.315 . S
C218 O213 1.279 . S
C219 O220 1.315 . S
C219 O221 1.279 . S
O220 Cd212 2.223 . S
O220 C219 1.315 . S
O221 Cd211 2.240 . S
O221 C219 1.279 . S
O222 Cd212 2.297 . S
O222 C217 1.247 . S
O223 Cd212 2.439 . S
O223 C217 1.208 . S
O224 Cd225 2.223 . S
O224 C232 1.315 . S
Cd225 O224 2.223 . S
Cd225 O228 2.297 . S
Cd225 O229 2.439 . S
Cd225 O235 2.240 1_545 S
Cd226 O227 2.240 . S
Cd226 O234 2.223 1_545 S
Cd226 O236 2.297 1_545 S
Cd226 O237 2.439 . S
O227 Cd226 2.240 . S
O227 C232 1.279 . S
O228 Cd225 2.297 . S
O228 C230 1.247 . S
O229 Cd225 2.439 . S
O229 C230 1.208 . S
C230 O228 1.247 . S
C230 O229 1.208 . S
C231 O236 1.247 1_545 S
C231 O237 1.208 . S
C232 O224 1.315 . S
C232 O227 1.279 . S
C233 O234 1.315 . S
C233 O235 1.279 . S
O234 Cd226 2.223 1_565 S
O234 C233 1.315 . S
O235 Cd225 2.240 1_565 S
O235 C233 1.279 . S
O236 Cd226 2.297 1_565 S
O236 C231 1.247 1_565 S
O237 Cd226 2.439 . S
O237 C231 1.208 . S
O238 Cd239 2.223 . S
O238 C246 1.315 . S
Cd239 O238 2.223 . S
Cd239 O242 2.297 . S
Cd239 O243 2.439 . S
Cd239 O249 2.240 . S
Cd240 O241 2.240 . S
Cd240 O248 2.223 . S
Cd240 O250 2.297 . S
Cd240 O251 2.439 . S
O241 Cd240 2.240 . S
O241 C246 1.279 . S
O242 Cd239 2.297 . S
O242 C244 1.247 . S
O243 Cd239 2.439 . S
O243 C244 1.208 . S
C244 O242 1.247 . S
C244 O243 1.208 . S
C245 O250 1.247 . S
C245 O251 1.208 . S
C246 O238 1.315 . S
C246 O241 1.279 . S
C247 O248 1.315 . S
C247 O249 1.279 . S
O248 Cd240 2.223 . S
O248 C247 1.315 . S
O249 Cd239 2.240 . S
O249 C247 1.279 . S
O250 Cd240 2.297 . S
O250 C245 1.247 . S
O251 Cd240 2.439 . S
O251 C245 1.208 . S
O252 Cd253 2.223 . S
O252 C260 1.315 . S
Cd253 O252 2.223 . S
Cd253 O256 2.297 . S
Cd253 O257 2.439 . S
Cd253 O263 2.240 . S
Cd254 O255 2.240 . S
Cd254 O262 2.223 . S
Cd254 O264 2.297 . S
Cd254 O265 2.439 . S
O255 Cd254 2.240 . S
O255 C260 1.279 . S
O256 Cd253 2.297 . S
O256 C258 1.247 . S
O257 Cd253 2.439 . S
O257 C258 1.208 . S
C258 O256 1.247 . S
C258 O257 1.208 . S
C259 O264 1.247 . S
C259 O265 1.208 . S
C260 O252 1.315 . S
C260 O255 1.279 . S
C261 O262 1.315 . S
C261 O263 1.279 . S
O262 Cd254 2.223 . S
O262 C261 1.315 . S
O263 Cd253 2.240 . S
O263 C261 1.279 . S
O264 Cd254 2.297 . S
O264 C259 1.247 . S
O265 Cd254 2.439 . S
O265 C259 1.208 . S
O266 Cd267 2.223 1_545 S
O266 C274 1.315 1_545 S
Cd267 O266 2.223 1_565 S
Cd267 O270 2.297 . S
Cd267 O271 2.439 . S
Cd267 O277 2.240 1_565 S
Cd268 O269 2.240 1_545 S
Cd268 O276 2.223 . S
Cd268 O278 2.297 . S
Cd268 O279 2.439 1_545 S
O269 Cd268 2.240 1_565 S
O269 C274 1.304 . S
O270 Cd267 2.297 . S
O270 C272 1.247 . S
O271 Cd267 2.439 . S
O271 C272 1.208 . S
C272 O270 1.247 . S
C272 O271 1.208 . S
C273 O278 1.247 . S
C273 O279 1.208 1_545 S
C274 O266 1.315 1_565 S
C274 O269 1.304 . S
C275 O276 1.315 . S
C275 O277 1.279 . S
O276 Cd268 2.223 . S
O276 C275 1.315 . S
O277 Cd267 2.240 1_545 S
O277 C275 1.279 . S
O278 Cd268 2.297 . S
O278 C273 1.247 . S
O279 Cd268 2.439 1_565 S
O279 C273 1.208 1_565 S
O280 Cd281 2.223 . S
O280 C288 1.315 . S
Cd281 O280 2.223 . S
Cd281 O284 2.297 . S
Cd281 O285 2.439 1_554 S
Cd281 O291 2.240 1_554 S
Cd282 O283 2.240 1_556 S
Cd282 O290 2.223 1_556 S
Cd282 O292 2.297 . S
Cd282 O293 2.439 . S
O283 Cd282 2.240 1_554 S
O283 C288 1.279 . S
O284 Cd281 2.297 . S
O284 C286 1.247 . S
O285 Cd281 2.439 1_556 S
O285 C286 1.208 1_556 S
C286 O284 1.247 . S
C286 O285 1.208 1_554 S
C287 O292 1.247 . S
C287 O293 1.208 . S
C288 O280 1.315 . S
C288 O283 1.279 . S
C289 O290 1.313 1_556 S
C289 O291 1.295 . S
O290 Cd282 2.223 1_554 S
O290 C289 1.313 1_554 S
O291 Cd281 2.240 1_556 S
O291 C289 1.295 . S
O292 Cd282 2.297 . S
O292 C287 1.247 . S
O293 Cd282 2.439 . S
O293 C287 1.208 . S
O294 Cd295 2.223 . S
O294 C302 1.315 . S
Cd295 O294 2.223 . S
Cd295 O298 2.297 . S
Cd295 O299 2.439 . S
Cd295 O305 2.240 . S
Cd296 O297 2.240 . S
Cd296 O304 2.223 . S
Cd296 O306 2.297 . S
Cd296 O307 2.439 . S
O297 Cd296 2.240 . S
O297 C302 1.279 . S
O298 Cd295 2.297 . S
O298 C300 1.247 . S
O299 Cd295 2.439 . S
O299 C300 1.208 . S
C300 O298 1.247 . S
C300 O299 1.208 . S
C301 O306 1.247 . S
C301 O307 1.208 . S
C302 O294 1.315 . S
C302 O297 1.279 . S
C303 O304 1.315 . S
C303 O305 1.279 . S
O304 Cd296 2.223 . S
O304 C303 1.315 . S
O305 Cd295 2.240 . S
O305 C303 1.279 . S
O306 Cd296 2.297 . S
O306 C301 1.247 . S
O307 Cd296 2.439 . S
O307 C301 1.208 . S
O308 Cd309 2.223 . S
O308 C316 1.315 . S
Cd309 O308 2.223 . S
Cd309 O312 2.297 . S
Cd309 O313 2.439 . S
Cd309 O319 2.240 . S
Cd310 O311 2.240 . S
Cd310 O318 2.223 . S
Cd310 O320 2.297 . S
Cd310 O321 2.439 . S
O311 Cd310 2.240 . S
O311 C316 1.279 . S
O312 Cd309 2.297 . S
O312 C314 1.247 . S
O313 Cd309 2.439 . S
O313 C314 1.208 . S
C314 O312 1.247 . S
C314 O313 1.208 . S
C315 O320 1.247 . S
C315 O321 1.208 . S
C316 O308 1.315 . S
C316 O311 1.279 . S
C317 O318 1.315 . S
C317 O319 1.279 . S
O318 Cd310 2.223 . S
O318 C317 1.315 . S
O319 Cd309 2.240 . S
O319 C317 1.279 . S
O320 Cd310 2.297 . S
O320 C315 1.247 . S
O321 Cd310 2.439 . S
O321 C315 1.208 . S
O322 Cd323 2.223 . S
O322 C330 1.315 . S
Cd323 O322 2.223 . S
Cd323 O326 2.297 . S
Cd323 O327 2.439 . S
Cd323 O333 2.240 . S
Cd324 O325 2.240 . S
Cd324 O332 2.223 . S
Cd324 O334 2.297 . S
Cd324 O335 2.439 . S
O325 Cd324 2.240 . S
O325 C330 1.279 . S
O326 Cd323 2.297 . S
O326 C328 1.247 . S
O327 Cd323 2.439 . S
O327 C328 1.208 . S
C328 O326 1.247 . S
C328 O327 1.208 . S
C329 O334 1.247 . S
C329 O335 1.208 . S
C330 O322 1.315 . S
C330 O325 1.279 . S
C331 O332 1.315 . S
C331 O333 1.279 . S
O332 Cd324 2.223 . S
O332 C331 1.315 . S
O333 Cd323 2.240 . S
O333 C331 1.279 . S
O334 Cd324 2.297 . S
O334 C329 1.247 . S
O335 Cd324 2.439 . S
O335 C329 1.208 . S
Zn336 O342 1.969 . S
Zn336 O343 1.961 . S
Zn336 O347 2.028 1_545 S
Zn336 O352 1.967 . S
Zn337 O344 1.969 1_654 S
Zn337 O350 1.969 . S
Zn337 O351 1.965 . S
Zn337 O353 2.024 1_655 S
C338 O339 1.229 . S
C338 O347 1.058 . S
O339 C338 1.229 . S
C340 O341 1.253 1_554 S
C340 O353 1.058 . S
O341 C340 1.253 1_556 S
O342 Zn336 1.969 . S
O342 C345 1.267 1_545 S
O343 Zn336 1.961 . S
O343 C354 1.260 1_554 S
O344 Zn337 1.969 1_456 S
O344 C354 1.258 . S
C345 O342 1.267 1_565 S
C345 O346 1.228 . S
O346 C345 1.228 . S
O347 Zn336 2.028 1_565 S
O347 C338 1.058 . S
C348 O349 1.228 . S
C348 O350 1.267 . S
O349 C348 1.228 . S
O350 Zn337 1.969 . S
O350 C348 1.267 . S
O351 Zn337 1.965 . S
O351 C355 1.260 1_655 S
O352 Zn336 1.967 . S
O352 C355 1.258 . S
O353 Zn337 2.024 1_455 S
O353 C340 1.058 . S
C354 O343 1.260 1_556 S
C354 O344 1.258 . S
C355 O351 1.260 1_455 S
C355 O352 1.258 . S
Zn356 O362 1.969 . S
Zn356 O363 1.965 . S
Zn356 O367 2.024 . S
Zn356 O372 1.969 . S
Zn357 O364 1.969 . S
Zn357 O370 1.969 . S
Zn357 O371 1.965 . S
Zn357 O373 2.024 . S
C358 O359 1.229 . S
C358 O367 1.058 . S
O359 C358 1.229 . S
C360 O361 1.229 . S
C360 O373 1.058 . S
O361 C360 1.229 . S
O362 Zn356 1.969 . S
O362 C365 1.267 . S
O363 Zn356 1.965 . S
O363 C374 1.260 . S
O364 Zn357 1.969 . S
O364 C374 1.258 . S
C365 O362 1.267 . S
C365 O366 1.228 . S
O366 C365 1.228 . S
O367 Zn356 2.024 . S
O367 C358 1.058 . S
C368 O369 1.228 . S
C368 O370 1.267 . S
O369 C368 1.228 . S
O370 Zn357 1.969 . S
O370 C368 1.267 . S
O371 Zn357 1.965 . S
O371 C375 1.260 . S
O372 Zn356 1.969 . S
O372 C375 1.258 . S
O373 Zn357 2.024 . S
O373 C360 1.058 . S
C374 O363 1.260 . S
C374 O364 1.258 . S
C375 O371 1.260 . S
C375 O372 1.258 . S
Zn376 O382 1.969 . S
Zn376 O383 1.965 . S
Zn376 O387 2.024 . S
Zn376 O392 1.969 . S
Zn377 O384 1.969 1_565 S
Zn377 O390 1.969 . S
Zn377 O391 1.965 1_565 S
Zn377 O393 2.024 . S
C378 O379 1.229 . S
C378 O387 1.058 . S
O379 C378 1.229 . S
C380 O381 1.229 . S
C380 O393 1.058 . S
O381 C380 1.229 . S
O382 Zn376 1.969 . S
O382 C385 1.267 . S
O383 Zn376 1.965 . S
O383 C394 1.260 . S
O384 Zn377 1.969 1_545 S
O384 C394 1.258 . S
C385 O382 1.267 . S
C385 O386 1.228 . S
O386 C385 1.228 . S
O387 Zn376 2.024 . S
O387 C378 1.058 . S
C388 O389 1.228 . S
C388 O390 1.267 . S
O389 C388 1.228 . S
O390 Zn377 1.969 . S
O390 C388 1.267 . S
O391 Zn377 1.965 1_545 S
O391 C395 1.260 . S
O392 Zn376 1.969 . S
O392 C395 1.258 . S
O393 Zn377 2.024 . S
O393 C380 1.058 . S
C394 O383 1.260 . S
C394 O384 1.258 . S
C395 O391 1.260 . S
C395 O392 1.258 . S
Zn396 O402 1.969 . S
Zn396 O403 1.965 . S
Zn396 O407 2.024 . S
Zn396 O412 1.969 . S
Zn397 O404 1.969 . S
Zn397 O410 1.969 . S
Zn397 O411 1.965 . S
Zn397 O413 2.024 . S
C398 O399 1.229 . S
C398 O407 1.058 . S
O399 C398 1.229 . S
C400 O401 1.229 . S
C400 O413 1.058 . S
O401 C400 1.229 . S
O402 Zn396 1.969 . S
O402 C405 1.267 . S
O403 Zn396 1.965 . S
O403 C414 1.260 . S
O404 Zn397 1.969 . S
O404 C414 1.258 . S
C405 O402 1.267 . S
C405 O406 1.228 . S
O406 C405 1.228 . S
O407 Zn396 2.024 . S
O407 C398 1.058 . S
C408 O409 1.228 . S
C408 O410 1.267 . S
O409 C408 1.228 . S
O410 Zn397 1.969 . S
O410 C408 1.267 . S
O411 Zn397 1.965 . S
O411 C415 1.260 . S
O412 Zn396 1.969 . S
O412 C415 1.258 . S
O413 Zn397 2.024 . S
O413 C400 1.058 . S
C414 O403 1.260 . S
C414 O404 1.258 . S
C415 O411 1.260 . S
C415 O412 1.258 . S
Zn416 O422 1.969 . S
Zn416 O423 1.965 . S
Zn416 O427 2.024 1_565 S
Zn416 O432 1.969 1_565 S
Zn417 O424 1.969 1_455 S
Zn417 O430 1.969 . S
Zn417 O431 1.965 . S
Zn417 O433 2.024 . S
C418 O419 1.229 1_545 S
C418 O427 1.058 . S
O419 C418 1.229 1_565 S
C420 O421 1.281 . S
C420 O433 1.010 1_655 S
O421 C420 1.281 . S
O422 Zn416 1.969 . S
O422 C425 1.267 . S
O423 Zn416 1.965 . S
O423 C434 1.260 1_465 S
O424 Zn417 1.969 1_655 S
O424 C434 1.258 . S
C425 O422 1.267 . S
C425 O426 1.228 . S
O426 C425 1.228 . S
O427 Zn416 2.024 1_545 S
O427 C418 1.058 . S
C428 O429 1.228 . S
C428 O430 1.267 . S
O429 C428 1.228 . S
O430 Zn417 1.969 . S
O430 C428 1.267 . S
O431 Zn417 1.965 . S
O431 C435 1.260 . S
O432 Zn416 1.969 1_545 S
O432 C435 1.258 . S
O433 Zn417 2.024 . S
O433 C420 1.010 1_455 S
C434 O423 1.260 1_645 S
C434 O424 1.258 . S
C435 O431 1.260 . S
C435 O432 1.258 . S
Zn436 O442 1.969 . S
Zn436 O443 1.965 . S
Zn436 O447 2.024 . S
Zn436 O452 1.969 . S
Zn437 O444 1.969 . S
Zn437 O450 1.969 . S
Zn437 O451 1.965 . S
Zn437 O453 2.024 . S
C438 O439 1.229 . S
C438 O447 1.058 . S
O439 C438 1.229 . S
C440 O441 1.229 . S
C440 O453 1.058 . S
O441 C440 1.229 . S
O442 Zn436 1.969 . S
O442 C445 1.267 . S
O443 Zn436 1.965 . S
O443 C454 1.260 . S
O444 Zn437 1.969 . S
O444 C454 1.258 . S
C445 O442 1.267 . S
C445 O446 1.228 . S
O446 C445 1.228 . S
O447 Zn436 2.024 . S
O447 C438 1.058 . S
C448 O449 1.228 . S
C448 O450 1.267 . S
O449 C448 1.228 . S
O450 Zn437 1.969 . S
O450 C448 1.267 . S
O451 Zn437 1.965 . S
O451 C455 1.260 . S
O452 Zn436 1.969 . S
O452 C455 1.258 . S
O453 Zn437 2.024 . S
O453 C440 1.058 . S
C454 O443 1.260 . S
C454 O444 1.258 . S
C455 O451 1.260 . S
C455 O452 1.258 . S
Zn456 O462 1.969 1_554 S
Zn456 O463 1.965 1_545 S
Zn456 O467 2.024 . S
Zn456 O472 1.969 . S
Zn457 O464 1.995 . S
Zn457 O470 1.982 . S
Zn457 O471 1.940 1_565 S
Zn457 O473 2.014 1_565 S
C458 O459 1.229 . S
C458 O467 1.058 . S
O459 C458 1.229 . S
C460 O461 1.229 . S
C460 O473 1.058 1_565 S
O461 C460 1.229 . S
O462 Zn456 1.969 1_556 S
O462 C465 1.267 . S
O463 Zn456 1.965 1_565 S
O463 C474 1.260 . S
O464 Zn457 1.995 . S
O464 C474 1.258 . S
C465 O462 1.267 . S
C465 O466 1.228 . S
O466 C465 1.228 . S
O467 Zn456 2.024 . S
O467 C458 1.058 . S
C468 O469 1.228 . S
C468 O470 1.267 1_545 S
O469 C468 1.228 . S
O470 Zn457 1.982 . S
O470 C468 1.267 1_565 S
O471 Zn457 1.940 1_545 S
O471 C475 1.260 . S
O472 Zn456 1.969 . S
O472 C475 1.258 . S
O473 Zn457 2.014 1_545 S
O473 C460 1.058 1_545 S
C474 O463 1.260 . S
C474 O464 1.258 . S
C475 O471 1.260 . S
C475 O472 1.258 . S
Zn476 O482 1.969 . S
Zn476 O483 1.965 . S
Zn476 O487 2.024 . S
Zn476 O492 1.969 . S
Zn477 O484 1.969 . S
Zn477 O490 1.969 . S
Zn477 O491 1.965 . S
Zn477 O493 2.024 . S
C478 O479 1.229 . S
C478 O487 1.058 . S
O479 C478 1.229 . S
C480 O481 1.229 . S
C480 O493 1.058 . S
O481 C480 1.229 . S
O482 Zn476 1.969 . S
O482 C485 1.267 . S
O483 Zn476 1.965 . S
O483 C494 1.260 . S
O484 Zn477 1.969 . S
O484 C494 1.258 . S
C485 O482 1.267 . S
C485 O486 1.228 . S
O486 C485 1.228 . S
O487 Zn476 2.024 . S
O487 C478 1.058 . S
C488 O489 1.228 . S
C488 O490 1.267 . S
O489 C488 1.228 . S
O490 Zn477 1.969 . S
O490 C488 1.267 . S
O491 Zn477 1.965 . S
O491 C495 1.260 . S
O492 Zn476 1.969 . S
O492 C495 1.258 . S
O493 Zn477 2.024 . S
O493 C480 1.058 . S
C494 O483 1.260 . S
C494 O484 1.258 . S
C495 O491 1.260 . S
C495 O492 1.258 . S
Zn496 O502 1.969 . S
Zn496 O503 1.965 . S
Zn496 O507 2.024 . S
Zn496 O512 1.969 . S
Zn497 O504 1.971 . S
Zn497 O510 1.970 . S
Zn497 O511 1.967 . S
Zn497 O513 2.021 1_554 S
C498 O499 1.229 . S
C498 O507 1.058 . S
O499 C498 1.229 . S
C500 O501 1.229 . S
C500 O513 1.058 . S
O501 C500 1.229 . S
O502 Zn496 1.969 . S
O502 C505 1.267 . S
O503 Zn496 1.965 . S
O503 C514 1.260 . S
O504 Zn497 1.971 . S
O504 C514 1.258 . S
C505 O502 1.267 . S
C505 O506 1.228 . S
O506 C505 1.228 . S
O507 Zn496 2.024 . S
O507 C498 1.058 . S
C508 O509 1.228 . S
C508 O510 1.267 1_556 S
O509 C508 1.228 . S
O510 Zn497 1.970 . S
O510 C508 1.267 1_554 S
O511 Zn497 1.967 . S
O511 C515 1.260 . S
O512 Zn496 1.969 . S
O512 C515 1.258 . S
O513 Zn497 2.021 1_556 S
O513 C500 1.058 . S
C514 O503 1.260 . S
C514 O504 1.258 . S
C515 O511 1.260 . S
C515 O512 1.258 . S
Zn516 O522 1.969 . S
Zn516 O523 1.965 . S
Zn516 O527 2.024 . S
Zn516 O532 1.969 . S
Zn517 O524 1.969 . S
Zn517 O530 1.969 . S
Zn517 O531 1.965 . S
Zn517 O533 2.024 . S
C518 O519 1.229 . S
C518 O527 1.058 . S
O519 C518 1.229 . S
C520 O521 1.229 . S
C520 O533 1.058 . S
O521 C520 1.229 . S
O522 Zn516 1.969 . S
O522 C525 1.267 . S
O523 Zn516 1.965 . S
O523 C534 1.260 . S
O524 Zn517 1.969 . S
O524 C534 1.258 . S
C525 O522 1.267 . S
C525 O526 1.228 . S
O526 C525 1.228 . S
O527 Zn516 2.024 . S
O527 C518 1.058 . S
C528 O529 1.228 . S
C528 O530 1.267 . S
O529 C528 1.228 . S
O530 Zn517 1.969 . S
O530 C528 1.267 . S
O531 Zn517 1.965 . S
O531 C535 1.260 . S
O532 Zn516 1.969 . S
O532 C535 1.258 . S
O533 Zn517 2.024 . S
O533 C520 1.058 . S
C534 O523 1.260 . S
C534 O524 1.258 . S
C535 O531 1.260 . S
C535 O532 1.258 . S
Zn536 O542 1.969 . S
Zn536 O543 1.965 . S
Zn536 O547 2.024 . S
Zn536 O552 1.969 . S
Zn537 O544 1.969 . S
Zn537 O550 1.969 . S
Zn537 O551 1.965 1_655 S
Zn537 O553 2.024 . S
C538 O539 1.229 . S
C538 O547 1.058 . S
O539 C538 1.229 . S
C540 O541 1.229 . S
C540 O553 1.058 . S
O541 C540 1.229 . S
O542 Zn536 1.969 . S
O542 C545 1.267 . S
O543 Zn536 1.965 . S
O543 C554 1.260 . S
O544 Zn537 1.969 . S
O544 C554 1.258 1_655 S
C545 O542 1.267 . S
C545 O546 1.228 . S
O546 C545 1.228 . S
O547 Zn536 2.024 . S
O547 C538 1.058 . S
C548 O549 1.228 . S
C548 O550 1.267 . S
O549 C548 1.228 . S
O550 Zn537 1.969 . S
O550 C548 1.267 . S
O551 Zn537 1.965 1_455 S
O551 C555 1.260 . S
O552 Zn536 1.969 . S
O552 C555 1.258 . S
O553 Zn537 2.024 . S
O553 C540 1.058 . S
C554 O543 1.260 . S
C554 O544 1.258 1_455 S
C555 O551 1.260 . S
C555 O552 1.258 . S
Zn556 O562 1.969 . S
Zn556 O563 1.965 . S
Zn556 O567 2.024 . S
Zn556 O572 1.969 . S
Zn557 O564 1.969 . S
Zn557 O570 1.969 . S
Zn557 O571 1.965 . S
Zn557 O573 2.024 . S
C558 O559 1.229 . S
C558 O567 1.058 . S
O559 C558 1.229 . S
C560 O561 1.229 . S
C560 O573 1.058 . S
O561 C560 1.229 . S
O562 Zn556 1.969 . S
O562 C565 1.267 . S
O563 Zn556 1.965 . S
O563 C574 1.260 . S
O564 Zn557 1.969 . S
O564 C574 1.258 . S
C565 O562 1.267 . S
C565 O566 1.228 . S
O566 C565 1.228 . S
O567 Zn556 2.024 . S
O567 C558 1.058 . S
C568 O569 1.228 . S
C568 O570 1.267 . S
O569 C568 1.228 . S
O570 Zn557 1.969 . S
O570 C568 1.267 . S
O571 Zn557 1.965 . S
O571 C575 1.260 . S
O572 Zn556 1.969 . S
O572 C575 1.258 . S
O573 Zn557 2.024 . S
O573 C560 1.058 . S
C574 O563 1.260 . S
C574 O564 1.258 . S
C575 O571 1.260 . S
C575 O572 1.258 . S
Zn576 O582 1.969 . S
Zn576 O583 1.965 . S
Zn576 O587 2.024 . S
Zn576 O592 1.969 . S
Zn577 O584 1.969 . S
Zn577 O590 1.969 . S
Zn577 O591 1.965 . S
Zn577 O593 2.024 . S
C578 O579 1.229 . S
C578 O587 1.058 . S
O579 C578 1.229 . S
C580 O581 1.229 . S
C580 O593 1.058 . S
O581 C580 1.229 . S
O582 Zn576 1.969 . S
O582 C585 1.267 . S
O583 Zn576 1.965 . S
O583 C594 1.260 . S
O584 Zn577 1.969 . S
O584 C594 1.258 . S
C585 O582 1.267 . S
C585 O586 1.228 . S
O586 C585 1.228 . S
O587 Zn576 2.024 . S
O587 C578 1.058 . S
C588 O589 1.228 . S
C588 O590 1.267 . S
O589 C588 1.228 . S
O590 Zn577 1.969 . S
O590 C588 1.267 . S
O591 Zn577 1.965 . S
O591 C595 1.260 . S
O592 Zn576 1.969 . S
O592 C595 1.258 . S
O593 Zn577 2.024 . S
O593 C580 1.058 . S
C594 O583 1.260 . S
C594 O584 1.258 . S
C595 O591 1.260 . S
C595 O592 1.258 . S
Zn596 O602 1.969 . S
Zn596 O603 1.965 . S
Zn596 O607 2.024 . S
Zn596 O612 1.969 . S
Zn597 O604 1.969 . S
Zn597 O610 1.969 . S
Zn597 O611 1.965 . S
Zn597 O613 2.024 . S
C598 O599 1.229 . S
C598 O607 1.058 . S
O599 C598 1.229 . S
C600 O601 1.229 . S
C600 O613 1.058 . S
O601 C600 1.229 . S
O602 Zn596 1.969 . S
O602 C605 1.267 . S
O603 Zn596 1.965 . S
O603 C614 1.260 . S
O604 Zn597 1.969 . S
O604 C614 1.258 . S
C605 O602 1.267 . S
C605 O606 1.228 . S
O606 C605 1.228 . S
O607 Zn596 2.024 . S
O607 C598 1.058 . S
C608 O609 1.228 . S
C608 O610 1.267 . S
O609 C608 1.228 . S
O610 Zn597 1.969 . S
O610 C608 1.267 . S
O611 Zn597 1.965 . S
O611 C615 1.260 . S
O612 Zn596 1.969 . S
O612 C615 1.258 . S
O613 Zn597 2.024 . S
O613 C600 1.058 . S
C614 O603 1.260 . S
C614 O604 1.258 . S
C615 O611 1.260 . S
C615 O612 1.258 . S
Zn616 O622 1.969 . S
Zn616 O623 1.965 . S
Zn616 O627 2.024 . S
Zn616 O632 1.969 . S
Zn617 O624 1.969 . S
Zn617 O630 1.969 . S
Zn617 O631 1.965 . S
Zn617 O633 2.024 . S
C618 O619 1.229 . S
C618 O627 1.058 . S
O619 C618 1.229 . S
C620 O621 1.229 . S
C620 O633 1.058 . S
O621 C620 1.229 . S
O622 Zn616 1.969 . S
O622 C625 1.267 . S
O623 Zn616 1.965 . S
O623 C634 1.260 . S
O624 Zn617 1.969 . S
O624 C634 1.258 . S
C625 O622 1.267 . S
C625 O626 1.228 . S
O626 C625 1.228 . S
O627 Zn616 2.024 . S
O627 C618 1.058 . S
C628 O629 1.228 . S
C628 O630 1.267 . S
O629 C628 1.228 . S
O630 Zn617 1.969 . S
O630 C628 1.267 . S
O631 Zn617 1.965 . S
O631 C635 1.260 . S
O632 Zn616 1.969 . S
O632 C635 1.258 . S
O633 Zn617 2.024 . S
O633 C620 1.058 . S
C634 O623 1.260 . S
C634 O624 1.258 . S
C635 O631 1.260 . S
C635 O632 1.258 . S
Zn636 O642 1.969 . S
Zn636 O643 1.965 . S
Zn636 O647 2.024 1_655 S
Zn636 O652 1.969 1_655 S
Zn637 O644 1.969 . S
Zn637 O650 1.969 . S
Zn637 O651 1.965 . S
Zn637 O653 2.024 . S
C638 O639 1.229 . S
C638 O647 1.058 . S
O639 C638 1.229 . S
C640 O641 1.229 . S
C640 O653 1.058 . S
O641 C640 1.229 . S
O642 Zn636 1.969 . S
O642 C645 1.267 . S
O643 Zn636 1.965 . S
O643 C654 1.260 1_655 S
O644 Zn637 1.969 . S
O644 C654 1.258 . S
C645 O642 1.267 . S
C645 O646 1.228 . S
O646 C645 1.228 . S
O647 Zn636 2.024 1_455 S
O647 C638 1.058 . S
C648 O649 1.228 . S
C648 O650 1.267 . S
O649 C648 1.228 . S
O650 Zn637 1.969 . S
O650 C648 1.267 . S
O651 Zn637 1.965 . S
O651 C655 1.260 . S
O652 Zn636 1.969 1_455 S
O652 C655 1.258 . S
O653 Zn637 2.024 . S
O653 C640 1.058 . S
C654 O643 1.260 1_455 S
C654 O644 1.258 . S
C655 O651 1.260 . S
C655 O652 1.258 . S
H656 C664 0.929 . S
H657 C666 0.930 . S
H658 C668 0.930 . S
H659 C671 0.929 . S
H660 C674 0.930 . S
H661 C676 0.960 . S
H662 C676 0.960 . S
H663 C676 0.960 . S
C664 H656 0.929 . S
C664 C665 1.377 . S
C664 C666 1.384 . S
C665 C664 1.377 . S
C665 C671 1.390 1_655 S
C666 H657 0.930 . S
C666 C664 1.384 . S
C666 C667 1.372 1_655 S
C667 C666 1.372 1_455 S
C667 C668 1.400 . S
C667 C672 1.490 . S
C668 H658 0.930 . S
C668 C667 1.400 . S
C668 C671 1.386 . S
H669 C685 0.930 . S
H670 C686 0.931 . S
C671 H659 0.929 . S
C671 C665 1.390 1_455 S
C671 C668 1.386 . S
C672 C667 1.490 . S
C672 C674 1.395 1_455 S
C672 C675 1.403 . S
H673 C679 0.930 . S
C674 H660 0.930 . S
C674 C672 1.395 1_655 S
C674 C677 1.403 . S
C675 C672 1.403 . S
C675 C676 1.524 . S
C675 C679 1.400 . S
C676 H661 0.960 . S
C676 H662 0.960 . S
C676 H663 0.960 . S
C676 C675 1.524 . S
C677 C674 1.403 . S
C677 C678 1.392 1_655 S
C677 C681 1.495 . S
C678 C677 1.392 1_455 S
C678 C679 1.385 . S
C678 C680 1.478 . S
C679 H673 0.930 . S
C679 C675 1.400 . S
C679 C678 1.385 . S
C680 C678 1.478 . S
C680 C682 1.381 1_455 S
C680 C686 1.383 . S
C681 C677 1.495 . S
C681 H687 0.959 . S
C681 H688 0.961 . S
C681 H689 0.960 . S
C682 C680 1.381 1_655 S
C682 C683 1.407 1_556 S
C682 H690 0.930 . S
C683 C682 1.407 1_554 S
C683 C684 1.338 1_655 S
C683 H691 0.963 . S
C684 C683 1.338 1_455 S
C684 C685 1.377 1_554 S
C685 H669 0.930 . S
C685 C684 1.377 1_556 S
C685 C686 1.379 . S
C686 H670 0.931 . S
C686 C680 1.383 . S
C686 C685 1.379 . S
H687 C681 0.959 . S
H688 C681 0.961 . S
H689 C681 0.960 . S
H690 C682 0.930 . S
H691 C683 0.963 . S
H692 C700 0.929 . S
H693 C702 0.930 . S
H694 C704 0.930 . S
H695 C707 0.929 . S
H696 C710 0.930 . S
H697 C712 0.960 . S
H698 C712 0.960 . S
H699 C712 0.960 . S
C700 H692 0.929 . S
C700 C701 1.377 . S
C700 C702 1.384 . S
C701 C700 1.377 . S
C701 C707 1.390 . S
C702 H693 0.930 . S
C702 C700 1.384 . S
C702 C703 1.372 . S
C703 C702 1.372 . S
C703 C704 1.400 . S
C703 C708 1.490 . S
C704 H694 0.930 . S
C704 C703 1.400 . S
C704 C707 1.386 . S
H705 C721 0.930 . S
H706 C722 0.931 . S
C707 H695 0.929 . S
C707 C701 1.390 . S
C707 C704 1.386 . S
C708 C703 1.490 . S
C708 C710 1.395 . S
C708 C711 1.403 . S
H709 C715 0.930 . S
C710 H696 0.930 . S
C710 C708 1.395 . S
C710 C713 1.403 . S
C711 C708 1.403 . S
C711 C712 1.524 . S
C711 C715 1.400 . S
C712 H697 0.960 . S
C712 H698 0.960 . S
C712 H699 0.960 . S
C712 C711 1.524 . S
C713 C710 1.403 . S
C713 C714 1.392 . S
C713 C717 1.495 . S
C714 C713 1.392 . S
C714 C715 1.385 . S
C714 C716 1.478 . S
C715 H709 0.930 . S
C715 C711 1.400 . S
C715 C714 1.385 . S
C716 C714 1.478 . S
C716 C718 1.381 . S
C716 C722 1.383 . S
C717 C713 1.495 . S
C717 H723 0.959 . S
C717 H724 0.961 . S
C717 H725 0.960 . S
C718 C716 1.381 . S
C718 C719 1.394 . S
C718 H726 0.930 . S
C719 C718 1.394 . S
C719 C720 1.383 . S
C719 H727 0.929 . S
C720 C719 1.383 . S
C720 C721 1.377 . S
C721 H705 0.930 . S
C721 C720 1.377 . S
C721 C722 1.379 . S
C722 H706 0.931 . S
C722 C716 1.383 . S
C722 C721 1.379 . S
H723 C717 0.959 . S
H724 C717 0.961 . S
H725 C717 0.960 . S
H726 C718 0.930 . S
H727 C719 0.929 . S
H728 C736 0.929 . S
H729 C738 0.930 . S
H730 C740 0.930 . S
H731 C743 0.929 . S
H732 C746 0.930 . S
H733 C748 0.960 . S
H734 C748 0.960 . S
H735 C748 0.960 . S
C736 H728 0.929 . S
C736 C737 1.377 . S
C736 C738 1.384 . S
C737 C736 1.377 . S
C737 C743 1.390 . S
C738 H729 0.930 . S
C738 C736 1.384 . S
C738 C739 1.372 . S
C739 C738 1.372 . S
C739 C740 1.400 . S
C739 C744 1.490 . S
C740 H730 0.930 . S
C740 C739 1.400 . S
C740 C743 1.386 . S
H741 C757 0.930 . S
H742 C758 0.931 . S
C743 H731 0.929 . S
C743 C737 1.390 . S
C743 C740 1.386 . S
C744 C739 1.490 . S
C744 C746 1.395 . S
C744 C747 1.403 . S
H745 C751 0.930 . S
C746 H732 0.930 . S
C746 C744 1.395 . S
C746 C749 1.403 . S
C747 C744 1.403 . S
C747 C748 1.524 . S
C747 C751 1.400 . S
C748 H733 0.960 . S
C748 H734 0.960 . S
C748 H735 0.960 . S
C748 C747 1.524 . S
C749 C746 1.403 . S
C749 C750 1.392 . S
C749 C753 1.495 . S
C750 C749 1.392 . S
C750 C751 1.385 . S
C750 C752 1.478 . S
C751 H745 0.930 . S
C751 C747 1.400 . S
C751 C750 1.385 . S
C752 C750 1.478 . S
C752 C754 1.381 . S
C752 C758 1.383 . S
C753 C749 1.495 . S
C753 H759 0.959 . S
C753 H760 0.961 . S
C753 H761 0.960 . S
C754 C752 1.381 . S
C754 C755 1.394 . S
C754 H762 0.930 . S
C755 C754 1.394 . S
C755 C756 1.383 . S
C755 H763 0.929 . S
C756 C755 1.383 . S
C756 C757 1.377 . S
C757 H741 0.930 . S
C757 C756 1.377 . S
C757 C758 1.379 . S
C758 H742 0.931 . S
C758 C752 1.383 . S
C758 C757 1.379 . S
H759 C753 0.959 . S
H760 C753 0.961 . S
H761 C753 0.960 . S
H762 C754 0.930 . S
H763 C755 0.929 . S
H764 C772 0.929 . S
H765 C774 0.930 . S
H766 C776 0.930 . S
H767 C779 0.929 . S
H768 C782 0.930 . S
H769 C784 0.960 . S
H770 C784 0.960 . S
H771 C784 0.960 . S
C772 H764 0.929 . S
C772 C773 1.377 . S
C772 C774 1.384 . S
C773 C772 1.377 . S
C773 C779 1.390 . S
C774 H765 0.930 . S
C774 C772 1.384 . S
C774 C775 1.372 . S
C775 C774 1.372 . S
C775 C776 1.400 . S
C775 C780 1.490 . S
C776 H766 0.930 . S
C776 C775 1.400 . S
C776 C779 1.386 . S
H777 C793 0.930 . S
H778 C794 0.931 . S
C779 H767 0.929 . S
C779 C773 1.390 . S
C779 C776 1.386 . S
C780 C775 1.490 . S
C780 C782 1.395 . S
C780 C783 1.403 . S
H781 C787 0.930 . S
C782 H768 0.930 . S
C782 C780 1.395 . S
C782 C785 1.403 . S
C783 C780 1.403 . S
C783 C784 1.524 . S
C783 C787 1.400 . S
C784 H769 0.960 . S
C784 H770 0.960 . S
C784 H771 0.960 . S
C784 C783 1.524 . S
C785 C782 1.403 . S
C785 C786 1.392 . S
C785 C789 1.495 . S
C786 C785 1.392 . S
C786 C787 1.385 . S
C786 C788 1.478 . S
C787 H781 0.930 . S
C787 C783 1.400 . S
C787 C786 1.385 . S
C788 C786 1.478 . S
C788 C790 1.381 . S
C788 C794 1.383 . S
C789 C785 1.495 . S
C789 H795 0.959 . S
C789 H796 0.961 . S
C789 H797 0.960 . S
C790 C788 1.381 . S
C790 C791 1.394 . S
C790 H798 0.930 . S
C791 C790 1.394 . S
C791 C792 1.383 . S
C791 H799 0.929 . S
C792 C791 1.383 . S
C792 C793 1.377 . S
C793 H777 0.930 . S
C793 C792 1.377 . S
C793 C794 1.379 . S
C794 H778 0.931 . S
C794 C788 1.383 . S
C794 C793 1.379 . S
H795 C789 0.959 . S
H796 C789 0.961 . S
H797 C789 0.960 . S
H798 C790 0.930 . S
H799 C791 0.929 . S
H800 C808 0.929 1_655 S
H801 C810 0.930 1_655 S
H802 C812 0.930 . S
H803 C815 0.929 . S
H804 C818 0.930 . S
H805 C820 0.960 . S
H806 C820 0.960 . S
H807 C820 0.960 . S
C808 H800 0.929 1_455 S
C808 C809 1.377 . S
C808 C810 1.384 . S
C809 C808 1.377 . S
C809 C815 1.390 . S
C810 H801 0.930 1_455 S
C810 C808 1.384 . S
C810 C811 1.372 . S
C811 C810 1.372 . S
C811 C812 1.400 . S
C811 C816 1.490 . S
C812 H802 0.930 . S
C812 C811 1.400 . S
C812 C815 1.386 . S
H813 C829 0.930 . S
H814 C830 0.931 . S
C815 H803 0.929 . S
C815 C809 1.390 . S
C815 C812 1.386 . S
C816 C811 1.490 . S
C816 C818 1.395 1_455 S
C816 C819 1.403 . S
H817 C823 0.930 . S
C818 H804 0.930 . S
C818 C816 1.395 1_655 S
C818 C821 1.403 . S
C819 C816 1.403 . S
C819 C820 1.524 . S
C819 C823 1.400 . S
C820 H805 0.960 . S
C820 H806 0.960 . S
C820 H807 0.960 . S
C820 C819 1.524 . S
C821 C818 1.403 . S
C821 C822 1.392 1_655 S
C821 C825 1.495 . S
C822 C821 1.392 1_455 S
C822 C823 1.385 . S
C822 C824 1.478 . S
C823 H817 0.930 . S
C823 C819 1.400 . S
C823 C822 1.385 . S
C824 C822 1.478 . S
C824 C826 1.381 . S
C824 C830 1.383 . S
C825 C821 1.495 . S
C825 H831 0.959 . S
C825 H832 0.961 . S
C825 H833 0.960 . S
C826 C824 1.381 . S
C826 C827 1.394 . S
C826 H834 0.930 . S
C827 C826 1.394 . S
C827 C828 1.383 . S
C827 H835 0.929 . S
C828 C827 1.383 . S
C828 C829 1.377 . S
C829 H813 0.930 . S
C829 C828 1.377 . S
C829 C830 1.379 . S
C830 H814 0.931 . S
C830 C824 1.383 . S
C830 C829 1.379 . S
H831 C825 0.959 . S
H832 C825 0.961 . S
H833 C825 0.960 . S
H834 C826 0.930 . S
H835 C827 0.929 . S
H836 C844 0.929 . S
H837 C846 0.930 . S
H838 C848 0.930 . S
H839 C851 0.929 . S
H840 C854 0.930 . S
H841 C856 0.960 . S
H842 C856 0.960 . S
H843 C856 0.960 . S
C844 H836 0.929 . S
C844 C845 1.377 . S
C844 C846 1.384 . S
C845 C844 1.377 . S
C845 C851 1.390 . S
C846 H837 0.930 . S
C846 C844 1.384 . S
C846 C847 1.372 . S
C847 C846 1.372 . S
C847 C848 1.400 . S
C847 C852 1.490 . S
C848 H838 0.930 . S
C848 C847 1.400 . S
C848 C851 1.386 . S
H849 C865 0.930 . S
H850 C866 0.931 . S
C851 H839 0.929 . S
C851 C845 1.390 . S
C851 C848 1.386 . S
C852 C847 1.490 . S
C852 C854 1.395 . S
C852 C855 1.403 . S
H853 C859 0.930 . S
C854 H840 0.930 . S
C854 C852 1.395 . S
C854 C857 1.403 . S
C855 C852 1.403 . S
C855 C856 1.524 . S
C855 C859 1.400 . S
C856 H841 0.960 . S
C856 H842 0.960 . S
C856 H843 0.960 . S
C856 C855 1.524 . S
C857 C854 1.403 . S
C857 C858 1.392 . S
C857 C861 1.495 . S
C858 C857 1.392 . S
C858 C859 1.385 . S
C858 C860 1.478 . S
C859 H853 0.930 . S
C859 C855 1.400 . S
C859 C858 1.385 . S
C860 C858 1.478 . S
C860 C862 1.381 . S
C860 C866 1.383 . S
C861 C857 1.495 . S
C861 H867 0.959 . S
C861 H868 0.961 . S
C861 H869 0.960 . S
C862 C860 1.381 . S
C862 C863 1.394 . S
C862 H870 0.930 . S
C863 C862 1.394 . S
C863 C864 1.383 . S
C863 H871 0.929 . S
C864 C863 1.383 . S
C864 C865 1.377 . S
C865 H849 0.930 . S
C865 C864 1.377 . S
C865 C866 1.379 . S
C866 H850 0.931 . S
C866 C860 1.383 . S
C866 C865 1.379 . S
H867 C861 0.959 . S
H868 C861 0.961 . S
H869 C861 0.960 . S
H870 C862 0.930 . S
H871 C863 0.929 . S
H872 C880 0.929 . S
H873 C882 0.930 . S
H874 C884 0.930 . S
H875 C887 0.929 . S
H876 C890 0.930 . S
H877 C892 0.960 . S
H878 C892 0.960 . S
H879 C892 0.960 . S
C880 H872 0.929 . S
C880 C881 1.377 . S
C880 C882 1.384 . S
C881 C880 1.377 . S
C881 C887 1.390 . S
C882 H873 0.930 . S
C882 C880 1.384 . S
C882 C883 1.372 . S
C883 C882 1.372 . S
C883 C884 1.400 . S
C883 C888 1.490 . S
C884 H874 0.930 . S
C884 C883 1.400 . S
C884 C887 1.386 . S
H885 C901 0.930 . S
H886 C902 0.931 . S
C887 H875 0.929 . S
C887 C881 1.390 . S
C887 C884 1.386 . S
C888 C883 1.490 . S
C888 C890 1.395 . S
C888 C891 1.403 . S
H889 C895 0.930 . S
C890 H876 0.930 . S
C890 C888 1.395 . S
C890 C893 1.403 . S
C891 C888 1.403 . S
C891 C892 1.524 . S
C891 C895 1.400 . S
C892 H877 0.960 . S
C892 H878 0.960 . S
C892 H879 0.960 . S
C892 C891 1.524 . S
C893 C890 1.403 . S
C893 C894 1.392 . S
C893 C897 1.495 . S
C894 C893 1.392 . S
C894 C895 1.385 . S
C894 C896 1.478 . S
C895 H889 0.930 . S
C895 C891 1.400 . S
C895 C894 1.385 . S
C896 C894 1.478 . S
C896 C898 1.381 . S
C896 C902 1.383 . S
C897 C893 1.495 . S
C897 H903 0.959 . S
C897 H904 0.961 . S
C897 H905 0.960 . S
C898 C896 1.381 . S
C898 C899 1.394 . S
C898 H906 0.930 . S
C899 C898 1.394 . S
C899 C900 1.383 . S
C899 H907 0.929 . S
C900 C899 1.383 . S
C900 C901 1.377 . S
C901 H885 0.930 . S
C901 C900 1.377 . S
C901 C902 1.379 . S
C902 H886 0.931 . S
C902 C896 1.383 . S
C902 C901 1.379 . S
H903 C897 0.959 . S
H904 C897 0.961 . S
H905 C897 0.960 . S
H906 C898 0.930 . S
H907 C899 0.929 . S
H908 C916 0.929 . S
H909 C918 0.930 . S
H910 C920 0.930 . S
H911 C923 0.929 . S
H912 C926 0.930 . S
H913 C928 0.960 . S
H914 C928 0.960 . S
H915 C928 0.960 . S
C916 H908 0.929 . S
C916 C917 1.377 . S
C916 C918 1.384 . S
C917 C916 1.377 . S
C917 C923 1.390 . S
C918 H909 0.930 . S
C918 C916 1.384 . S
C918 C919 1.372 . S
C919 C918 1.372 . S
C919 C920 1.400 . S
C919 C924 1.490 . S
C920 H910 0.930 . S
C920 C919 1.400 . S
C920 C923 1.386 . S
H921 C937 0.930 . S
H922 C938 0.931 . S
C923 H911 0.929 . S
C923 C917 1.390 . S
C923 C920 1.386 . S
C924 C919 1.490 . S
C924 C926 1.395 . S
C924 C927 1.403 . S
H925 C931 0.930 . S
C926 H912 0.930 . S
C926 C924 1.395 . S
C926 C929 1.403 . S
C927 C924 1.403 . S
C927 C928 1.524 . S
C927 C931 1.400 . S
C928 H913 0.960 . S
C928 H914 0.960 . S
C928 H915 0.960 . S
C928 C927 1.524 . S
C929 C926 1.403 . S
C929 C930 1.392 . S
C929 C933 1.495 . S
C930 C929 1.392 . S
C930 C931 1.385 . S
C930 C932 1.478 . S
C931 H925 0.930 . S
C931 C927 1.400 . S
C931 C930 1.385 . S
C932 C930 1.478 . S
C932 C934 1.381 . S
C932 C938 1.383 . S
C933 C929 1.495 . S
C933 H939 0.959 . S
C933 H940 0.961 . S
C933 H941 0.960 . S
C934 C932 1.381 . S
C934 C935 1.394 . S
C934 H942 0.930 . S
C935 C934 1.394 . S
C935 C936 1.383 . S
C935 H943 0.929 . S
C936 C935 1.383 . S
C936 C937 1.377 . S
C937 H921 0.930 . S
C937 C936 1.377 . S
C937 C938 1.379 . S
C938 H922 0.931 . S
C938 C932 1.383 . S
C938 C937 1.379 . S
H939 C933 0.959 . S
H940 C933 0.961 . S
H941 C933 0.960 . S
H942 C934 0.930 . S
H943 C935 0.929 . S
H944 C952 0.929 . S
H945 C954 0.930 . S
H946 C956 0.930 . S
H947 C959 0.929 . S
H948 C962 0.930 . S
H949 C964 0.960 . S
H950 C964 0.960 . S
H951 C964 0.960 . S
C952 H944 0.929 . S
C952 C953 1.377 1_565 S
C952 C954 1.384 . S
C953 C952 1.377 1_545 S
C953 C959 1.390 . S
C954 H945 0.930 . S
C954 C952 1.384 . S
C954 C955 1.372 1_565 S
C955 C954 1.372 1_545 S
C955 C956 1.400 . S
C955 C960 1.490 . S
C956 H946 0.930 . S
C956 C955 1.400 . S
C956 C959 1.386 . S
H957 C973 0.927 1_455 S
H958 C974 0.931 . S
C959 H947 0.929 . S
C959 C953 1.390 . S
C959 C956 1.386 . S
C960 C955 1.490 . S
C960 C962 1.395 . S
C960 C963 1.403 . S
H961 C967 0.930 . S
C962 H948 0.930 . S
C962 C960 1.395 . S
C962 C965 1.403 . S
C963 C960 1.403 . S
C963 C964 1.524 . S
C963 C967 1.400 . S
C964 H949 0.960 . S
C964 H950 0.960 . S
C964 H951 0.960 . S
C964 C963 1.524 . S
C965 C962 1.403 . S
C965 C966 1.392 . S
C965 C969 1.495 . S
C966 C965 1.392 . S
C966 C967 1.385 . S
C966 C968 1.478 . S
C967 H961 0.930 . S
C967 C963 1.400 . S
C967 C966 1.385 . S
C968 C966 1.478 . S
C968 C970 1.381 . S
C968 C974 1.383 . S
C969 C965 1.495 . S
C969 H975 0.959 . S
C969 H976 0.961 . S
C969 H977 0.960 1_545 S
C970 C968 1.381 . S
C970 C971 1.394 . S
C970 H978 0.930 1_545 S
C971 C970 1.394 . S
C971 C972 1.383 . S
C971 H979 0.929 1_545 S
C972 C971 1.383 . S
C972 C973 1.377 . S
C973 H957 0.927 1_655 S
C973 C972 1.377 . S
C973 C974 1.379 . S
C974 H958 0.931 . S
C974 C968 1.383 . S
C974 C973 1.379 . S
H975 C969 0.959 . S
H976 C969 0.961 . S
H977 C969 0.960 1_565 S
H978 C970 0.930 1_565 S
H979 C971 0.929 1_565 S
H980 C988 0.929 . S
H981 C990 0.930 . S
H982 C992 0.930 . S
H983 C995 0.929 . S
H984 C998 0.930 . S
H985 C1000 0.960 . S
H986 C1000 0.960 . S
H987 C1000 0.960 . S
C988 H980 0.929 . S
C988 C989 1.377 . S
C988 C990 1.384 . S
C989 C988 1.377 . S
C989 C995 1.390 . S
C990 H981 0.930 . S
C990 C988 1.384 . S
C990 C991 1.372 . S
C991 C990 1.372 . S
C991 C992 1.400 . S
C991 C996 1.490 . S
C992 H982 0.930 . S
C992 C991 1.400 . S
C992 C995 1.386 . S
H993 C1009 0.930 . S
H994 C1010 0.931 . S
C995 H983 0.929 . S
C995 C989 1.390 . S
C995 C992 1.386 . S
C996 C991 1.490 . S
C996 C998 1.395 . S
C996 C999 1.403 . S
H997 C1003 0.930 . S
C998 H984 0.930 . S
C998 C996 1.395 . S
C998 C1001 1.403 . S
C999 C996 1.403 . S
C999 C1000 1.524 . S
C999 C1003 1.400 . S
C1000 H985 0.960 . S
C1000 H986 0.960 . S
C1000 H987 0.960 . S
C1000 C999 1.524 . S
C1001 C998 1.403 . S
C1001 C1002 1.392 . S
C1001 C1005 1.495 . S
C1002 C1001 1.392 . S
C1002 C1003 1.385 . S
C1002 C1004 1.478 . S
C1003 H997 0.930 . S
C1003 C999 1.400 . S
C1003 C1002 1.385 . S
C1004 C1002 1.478 . S
C1004 C1006 1.381 . S
C1004 C1010 1.383 . S
C1005 C1001 1.495 . S
C1005 H1011 0.959 . S
C1005 H1012 0.961 . S
C1005 H1013 0.960 . S
C1006 C1004 1.381 . S
C1006 C1007 1.394 . S
C1006 H1014 0.930 . S
C1007 C1006 1.394 . S
C1007 C1008 1.383 . S
C1007 H1015 0.929 . S
C1008 C1007 1.383 . S
C1008 C1009 1.377 . S
C1009 H993 0.930 . S
C1009 C1008 1.377 . S
C1009 C1010 1.379 . S
C1010 H994 0.931 . S
C1010 C1004 1.383 . S
C1010 C1009 1.379 . S
H1011 C1005 0.959 . S
H1012 C1005 0.961 . S
H1013 C1005 0.960 . S
H1014 C1006 0.930 . S
H1015 C1007 0.929 . S
H1016 C1024 0.929 . S
H1017 C1026 0.930 . S
H1018 C1028 0.930 . S
H1019 C1031 0.929 . S
H1020 C1034 0.930 . S
H1021 C1036 0.960 . S
H1022 C1036 0.960 . S
H1023 C1036 0.960 . S
C1024 H1016 0.929 . S
C1024 C1025 1.379 . S
C1024 C1026 1.384 . S
C1025 C1024 1.379 . S
C1025 C1031 1.386 1_565 S
C1026 H1017 0.930 . S
C1026 C1024 1.384 . S
C1026 C1027 1.364 1_565 S
C1027 C1026 1.364 1_545 S
C1027 C1028 1.403 . S
C1027 C1032 1.495 . S
C1028 H1018 0.930 . S
C1028 C1027 1.403 . S
C1028 C1031 1.386 . S
H1029 C1045 0.930 . S
H1030 C1046 0.931 . S
C1031 H1019 0.929 . S
C1031 C1025 1.386 1_545 S
C1031 C1028 1.386 . S
C1032 C1027 1.495 . S
C1032 C1034 1.395 . S
C1032 C1035 1.403 1_545 S
H1033 C1039 0.930 . S
C1034 H1020 0.930 . S
C1034 C1032 1.395 . S
C1034 C1037 1.403 . S
C1035 C1032 1.403 1_565 S
C1035 C1036 1.524 . S
C1035 C1039 1.400 . S
C1036 H1021 0.960 . S
C1036 H1022 0.960 . S
C1036 H1023 0.960 . S
C1036 C1035 1.524 . S
C1037 C1034 1.403 . S
C1037 C1038 1.392 . S
C1037 C1041 1.495 . S
C1038 C1037 1.392 . S
C1038 C1039 1.385 1_545 S
C1038 C1040 1.478 . S
C1039 H1033 0.930 . S
C1039 C1035 1.400 . S
C1039 C1038 1.385 1_565 S
C1040 C1038 1.478 . S
C1040 C1042 1.381 1_545 S
C1040 C1046 1.383 . S
C1041 C1037 1.495 . S
C1041 H1047 0.959 . S
C1041 H1048 0.961 . S
C1041 H1049 0.960 . S
C1042 C1040 1.381 1_565 S
C1042 C1043 1.394 . S
C1042 H1050 0.930 . S
C1043 C1042 1.394 . S
C1043 C1044 1.383 1_565 S
C1043 H1051 0.929 . S
C1044 C1043 1.383 1_545 S
C1044 C1045 1.377 . S
C1045 H1029 0.930 . S
C1045 C1044 1.377 . S
C1045 C1046 1.379 . S
C1046 H1030 0.931 . S
C1046 C1040 1.383 . S
C1046 C1045 1.379 . S
H1047 C1041 0.959 . S
H1048 C1041 0.961 . S
H1049 C1041 0.960 . S
H1050 C1042 0.930 . S
H1051 C1043 0.929 . S
H1052 C1060 0.929 . S
H1053 C1062 0.930 . S
H1054 C1064 0.930 . S
H1055 C1067 0.929 . S
H1056 C1070 0.930 . S
H1057 C1072 0.960 . S
H1058 C1072 0.960 . S
H1059 C1072 0.960 . S
C1060 H1052 0.929 . S
C1060 C1061 1.377 . S
C1060 C1062 1.384 . S
C1061 C1060 1.377 . S
C1061 C1067 1.390 . S
C1062 H1053 0.930 . S
C1062 C1060 1.384 . S
C1062 C1063 1.372 . S
C1063 C1062 1.372 . S
C1063 C1064 1.400 . S
C1063 C1068 1.490 . S
C1064 H1054 0.930 . S
C1064 C1063 1.400 . S
C1064 C1067 1.386 . S
H1065 C1081 0.930 . S
H1066 C1082 0.931 . S
C1067 H1055 0.929 . S
C1067 C1061 1.390 . S
C1067 C1064 1.386 . S
C1068 C1063 1.490 . S
C1068 C1070 1.395 . S
C1068 C1071 1.403 . S
H1069 C1075 0.930 . S
C1070 H1056 0.930 . S
C1070 C1068 1.395 . S
C1070 C1073 1.403 . S
C1071 C1068 1.403 . S
C1071 C1072 1.524 . S
C1071 C1075 1.400 . S
C1072 H1057 0.960 . S
C1072 H1058 0.960 . S
C1072 H1059 0.960 . S
C1072 C1071 1.524 . S
C1073 C1070 1.403 . S
C1073 C1074 1.392 . S
C1073 C1077 1.495 . S
C1074 C1073 1.392 . S
C1074 C1075 1.385 . S
C1074 C1076 1.478 . S
C1075 H1069 0.930 . S
C1075 C1071 1.400 . S
C1075 C1074 1.385 . S
C1076 C1074 1.478 . S
C1076 C1078 1.381 . S
C1076 C1082 1.383 . S
C1077 C1073 1.495 . S
C1077 H1083 0.959 . S
C1077 H1084 0.961 . S
C1077 H1085 0.960 . S
C1078 C1076 1.381 . S
C1078 C1079 1.394 . S
C1078 H1086 0.930 . S
C1079 C1078 1.394 . S
C1079 C1080 1.383 . S
C1079 H1087 0.929 . S
C1080 C1079 1.383 . S
C1080 C1081 1.377 . S
C1081 H1065 0.930 . S
C1081 C1080 1.377 . S
C1081 C1082 1.379 . S
C1082 H1066 0.931 . S
C1082 C1076 1.383 . S
C1082 C1081 1.379 . S
H1083 C1077 0.959 . S
H1084 C1077 0.961 . S
H1085 C1077 0.960 . S
H1086 C1078 0.930 . S
H1087 C1079 0.929 . S
H1088 C1096 0.929 . S
H1089 C1098 0.930 . S
H1090 C1100 0.930 . S
H1091 C1103 0.929 . S
H1092 C1106 0.930 . S
H1093 C1108 0.960 . S
H1094 C1108 0.960 . S
H1095 C1108 0.960 . S
C1096 H1088 0.929 . S
C1096 C1097 1.377 . S
C1096 C1098 1.384 . S
C1097 C1096 1.377 . S
C1097 C1103 1.390 1_545 S
C1098 H1089 0.930 . S
C1098 C1096 1.384 . S
C1098 C1099 1.372 . S
C1099 C1098 1.372 . S
C1099 C1100 1.400 1_545 S
C1099 C1104 1.490 . S
C1100 H1090 0.930 . S
C1100 C1099 1.400 1_565 S
C1100 C1103 1.386 . S
H1101 C1117 0.930 . S
H1102 C1118 0.955 . S
C1103 H1091 0.929 . S
C1103 C1097 1.390 1_565 S
C1103 C1100 1.386 . S
C1104 C1099 1.490 . S
C1104 C1106 1.395 . S
C1104 C1107 1.403 . S
H1105 C1111 0.930 1_565 S
C1106 H1092 0.930 . S
C1106 C1104 1.395 . S
C1106 C1109 1.403 . S
C1107 C1104 1.403 . S
C1107 C1108 1.524 1_545 S
C1107 C1111 1.400 . S
C1108 H1093 0.960 . S
C1108 H1094 0.960 . S
C1108 H1095 0.960 . S
C1108 C1107 1.524 1_565 S
C1109 C1106 1.403 . S
C1109 C1110 1.392 . S
C1109 C1113 1.495 . S
C1110 C1109 1.392 . S
C1110 C1111 1.385 . S
C1110 C1112 1.478 . S
C1111 H1105 0.930 1_545 S
C1111 C1107 1.400 . S
C1111 C1110 1.385 . S
C1112 C1110 1.478 . S
C1112 C1114 1.381 . S
C1112 C1118 1.350 1_545 S
C1113 C1109 1.495 . S
C1113 H1119 0.959 . S
C1113 H1120 0.961 . S
C1113 H1121 0.960 . S
C1114 C1112 1.381 . S
C1114 C1115 1.372 1_655 S
C1114 H1122 0.930 . S
C1115 C1114 1.372 1_455 S
C1115 C1116 1.378 1_455 S
C1115 H1123 0.958 . S
C1116 C1115 1.378 1_655 S
C1116 C1117 1.377 1_545 S
C1117 H1101 0.930 . S
C1117 C1116 1.377 1_565 S
C1117 C1118 1.390 . S
C1118 H1102 0.955 . S
C1118 C1112 1.350 1_565 S
C1118 C1117 1.390 . S
H1119 C1113 0.959 . S
H1120 C1113 0.961 . S
H1121 C1113 0.960 . S
H1122 C1114 0.930 . S
H1123 C1115 0.958 . S
H1124 C1132 0.929 . S
H1125 C1134 0.930 . S
H1126 C1136 0.930 . S
H1127 C1139 0.929 . S
H1128 C1142 0.930 . S
H1129 C1144 0.960 . S
H1130 C1144 0.960 . S
H1131 C1144 0.960 . S
C1132 H1124 0.929 . S
C1132 C1133 1.377 . S
C1132 C1134 1.384 . S
C1133 C1132 1.377 . S
C1133 C1139 1.390 . S
C1134 H1125 0.930 . S
C1134 C1132 1.384 . S
C1134 C1135 1.372 . S
C1135 C1134 1.372 . S
C1135 C1136 1.400 . S
C1135 C1140 1.490 . S
C1136 H1126 0.930 . S
C1136 C1135 1.400 . S
C1136 C1139 1.386 . S
H1137 C1153 0.930 . S
H1138 C1154 0.931 . S
C1139 H1127 0.929 . S
C1139 C1133 1.390 . S
C1139 C1136 1.386 . S
C1140 C1135 1.490 . S
C1140 C1142 1.395 . S
C1140 C1143 1.403 . S
H1141 C1147 0.930 . S
C1142 H1128 0.930 . S
C1142 C1140 1.395 . S
C1142 C1145 1.403 . S
C1143 C1140 1.403 . S
C1143 C1144 1.524 . S
C1143 C1147 1.400 . S
C1144 H1129 0.960 . S
C1144 H1130 0.960 . S
C1144 H1131 0.960 . S
C1144 C1143 1.524 . S
C1145 C1142 1.403 . S
C1145 C1146 1.392 . S
C1145 C1149 1.495 . S
C1146 C1145 1.392 . S
C1146 C1147 1.385 . S
C1146 C1148 1.478 . S
C1147 H1141 0.930 . S
C1147 C1143 1.400 . S
C1147 C1146 1.385 . S
C1148 C1146 1.478 . S
C1148 C1150 1.381 . S
C1148 C1154 1.383 . S
C1149 C1145 1.495 . S
C1149 H1155 0.959 . S
C1149 H1156 0.961 . S
C1149 H1157 0.960 . S
C1150 C1148 1.381 . S
C1150 C1151 1.394 . S
C1150 H1158 0.930 . S
C1151 C1150 1.394 . S
C1151 C1152 1.383 . S
C1151 H1159 0.929 . S
C1152 C1151 1.383 . S
C1152 C1153 1.377 . S
C1153 H1137 0.930 . S
C1153 C1152 1.377 . S
C1153 C1154 1.379 . S
C1154 H1138 0.931 . S
C1154 C1148 1.383 . S
C1154 C1153 1.379 . S
H1155 C1149 0.959 . S
H1156 C1149 0.961 . S
H1157 C1149 0.960 . S
H1158 C1150 0.930 . S
H1159 C1151 0.929 . S
H1160 C1168 0.929 . S
H1161 C1170 0.938 . S
H1162 C1172 0.930 . S
H1163 C1175 0.929 . S
H1164 C1178 0.930 . S
H1165 C1180 0.960 . S
H1166 C1180 0.960 . S
H1167 C1180 0.928 1_545 S
C1168 H1160 0.929 . S
C1168 C1169 1.377 1_565 S
C1168 C1170 1.385 . S
C1169 C1168 1.377 1_545 S
C1169 C1175 1.390 . S
C1170 H1161 0.938 . S
C1170 C1168 1.385 . S
C1170 C1171 1.363 1_565 S
C1171 C1170 1.363 1_545 S
C1171 C1172 1.400 . S
C1171 C1176 1.490 . S
C1172 H1162 0.930 . S
C1172 C1171 1.400 . S
C1172 C1175 1.386 . S
H1173 C1189 0.930 . S
H1174 C1190 0.931 . S
C1175 H1163 0.929 . S
C1175 C1169 1.390 . S
C1175 C1172 1.386 . S
C1176 C1171 1.490 . S
C1176 C1178 1.395 . S
C1176 C1179 1.403 . S
H1177 C1183 0.930 . S
C1178 H1164 0.930 . S
C1178 C1176 1.395 . S
C1178 C1181 1.403 . S
C1179 C1176 1.403 . S
C1179 C1180 1.524 1_545 S
C1179 C1183 1.400 . S
C1180 H1165 0.960 . S
C1180 H1166 0.960 . S
C1180 H1167 0.928 1_565 S
C1180 C1179 1.524 1_565 S
C1181 C1178 1.403 . S
C1181 C1182 1.392 . S
C1181 C1185 1.495 . S
C1182 C1181 1.392 . S
C1182 C1183 1.385 . S
C1182 C1184 1.478 . S
C1183 H1177 0.930 . S
C1183 C1179 1.400 . S
C1183 C1182 1.385 . S
C1184 C1182 1.478 . S
C1184 C1186 1.381 . S
C1184 C1190 1.383 . S
C1185 C1181 1.495 . S
C1185 H1191 0.959 . S
C1185 H1192 0.961 . S
C1185 H1193 0.960 . S
C1186 C1184 1.381 . S
C1186 C1187 1.394 . S
C1186 H1194 0.973 . S
C1187 C1186 1.394 . S
C1187 C1188 1.383 . S
C1187 H1195 0.929 . S
C1188 C1187 1.383 . S
C1188 C1189 1.377 . S
C1189 H1173 0.930 . S
C1189 C1188 1.377 . S
C1189 C1190 1.379 . S
C1190 H1174 0.931 . S
C1190 C1184 1.383 . S
C1190 C1189 1.379 . S
H1191 C1185 0.959 . S
H1192 C1185 0.961 . S
H1193 C1185 0.960 . S
H1194 C1186 0.973 . S
H1195 C1187 0.929 . S
H1196 C1204 0.929 . S
H1197 C1206 0.930 . S
H1198 C1208 0.930 . S
H1199 C1211 0.929 . S
H1200 C1214 0.930 . S
H1201 C1216 0.960 . S
H1202 C1216 0.960 . S
H1203 C1216 0.960 . S
C1204 H1196 0.929 . S
C1204 C1205 1.377 . S
C1204 C1206 1.384 . S
C1205 C1204 1.377 . S
C1205 C1211 1.390 . S
C1206 H1197 0.930 . S
C1206 C1204 1.384 . S
C1206 C1207 1.372 . S
C1207 C1206 1.372 . S
C1207 C1208 1.400 . S
C1207 C1212 1.490 . S
C1208 H1198 0.930 . S
C1208 C1207 1.400 . S
C1208 C1211 1.386 . S
H1209 C1225 0.930 . S
H1210 C1226 0.931 . S
C1211 H1199 0.929 . S
C1211 C1205 1.390 . S
C1211 C1208 1.386 . S
C1212 C1207 1.490 . S
C1212 C1214 1.395 . S
C1212 C1215 1.403 . S
H1213 C1219 0.930 . S
C1214 H1200 0.930 . S
C1214 C1212 1.395 . S
C1214 C1217 1.403 . S
C1215 C1212 1.403 . S
C1215 C1216 1.524 . S
C1215 C1219 1.400 . S
C1216 H1201 0.960 . S
C1216 H1202 0.960 . S
C1216 H1203 0.960 . S
C1216 C1215 1.524 . S
C1217 C1214 1.403 . S
C1217 C1218 1.392 . S
C1217 C1221 1.495 . S
C1218 C1217 1.392 . S
C1218 C1219 1.385 . S
C1218 C1220 1.478 . S
C1219 H1213 0.930 . S
C1219 C1215 1.400 . S
C1219 C1218 1.385 . S
C1220 C1218 1.478 . S
C1220 C1222 1.381 . S
C1220 C1226 1.383 . S
C1221 C1217 1.495 . S
C1221 H1227 0.959 . S
C1221 H1228 0.961 . S
C1221 H1229 0.960 . S
C1222 C1220 1.381 . S
C1222 C1223 1.394 . S
C1222 H1230 0.930 . S
C1223 C1222 1.394 . S
C1223 C1224 1.383 . S
C1223 H1231 0.929 . S
C1224 C1223 1.383 . S
C1224 C1225 1.377 . S
C1225 H1209 0.930 . S
C1225 C1224 1.377 . S
C1225 C1226 1.379 . S
C1226 H1210 0.931 . S
C1226 C1220 1.383 . S
C1226 C1225 1.379 . S
H1227 C1221 0.959 . S
H1228 C1221 0.961 . S
H1229 C1221 0.960 . S
H1230 C1222 0.930 . S
H1231 C1223 0.929 . S
H1232 C1240 0.942 . S
H1233 C1242 0.930 1_556 S
H1234 C1244 0.930 . S
H1235 C1247 0.929 . S
H1236 C1250 0.930 . S
H1237 C1252 0.960 . S
H1238 C1252 0.960 . S
H1239 C1252 0.960 . S
C1240 H1232 0.942 . S
C1240 C1241 1.367 1_556 S
C1240 C1242 1.381 1_556 S
C1241 C1240 1.367 1_554 S
C1241 C1247 1.390 . S
C1242 H1233 0.930 1_554 S
C1242 C1240 1.381 1_554 S
C1242 C1243 1.372 . S
C1243 C1242 1.372 . S
C1243 C1244 1.400 . S
C1243 C1248 1.490 . S
C1244 H1234 0.930 . S
C1244 C1243 1.400 . S
C1244 C1247 1.386 . S
H1245 C1261 0.930 1_545 S
H1246 C1262 0.931 . S
C1247 H1235 0.929 . S
C1247 C1241 1.390 . S
C1247 C1244 1.386 . S
C1248 C1243 1.490 . S
C1248 C1250 1.395 . S
C1248 C1251 1.403 . S
H1249 C1255 0.930 . S
C1250 H1236 0.930 . S
C1250 C1248 1.395 . S
C1250 C1253 1.403 . S
C1251 C1248 1.403 . S
C1251 C1252 1.524 . S
C1251 C1255 1.400 . S
C1252 H1237 0.960 . S
C1252 H1238 0.960 . S
C1252 H1239 0.960 . S
C1252 C1251 1.524 . S
C1253 C1250 1.403 . S
C1253 C1254 1.392 . S
C1253 C1257 1.495 . S
C1254 C1253 1.392 . S
C1254 C1255 1.385 . S
C1254 C1256 1.478 . S
C1255 H1249 0.930 . S
C1255 C1251 1.400 . S
C1255 C1254 1.385 . S
C1256 C1254 1.478 . S
C1256 C1258 1.381 . S
C1256 C1262 1.383 . S
C1257 C1253 1.495 . S
C1257 H1263 0.959 . S
C1257 H1264 0.961 . S
C1257 H1265 0.960 . S
C1258 C1256 1.381 . S
C1258 C1259 1.394 . S
C1258 H1266 0.930 . S
C1259 C1258 1.394 . S
C1259 C1260 1.383 . S
C1259 H1267 0.929 . S
C1260 C1259 1.383 . S
C1260 C1261 1.377 . S
C1261 H1245 0.930 1_565 S
C1261 C1260 1.377 . S
C1261 C1262 1.379 . S
C1262 H1246 0.931 . S
C1262 C1256 1.383 . S
C1262 C1261 1.379 . S
H1263 C1257 0.959 . S
H1264 C1257 0.961 . S
H1265 C1257 0.960 . S
H1266 C1258 0.930 . S
H1267 C1259 0.929 . S
H1268 C1276 0.929 . S
H1269 C1278 0.930 . S
H1270 C1280 0.930 . S
H1271 C1283 0.929 . S
H1272 C1286 0.930 . S
H1273 C1288 0.960 . S
H1274 C1288 0.960 . S
H1275 C1288 0.960 . S
C1276 H1268 0.929 . S
C1276 C1277 1.377 1_556 S
C1276 C1278 1.384 . S
C1277 C1276 1.377 1_554 S
C1277 C1283 1.390 . S
C1278 H1269 0.930 . S
C1278 C1276 1.384 . S
C1278 C1279 1.372 1_556 S
C1279 C1278 1.372 1_554 S
C1279 C1280 1.400 . S
C1279 C1284 1.490 . S
C1280 H1270 0.930 . S
C1280 C1279 1.400 . S
C1280 C1283 1.386 . S
H1281 C1297 0.930 . S
H1282 C1298 0.931 . S
C1283 H1271 0.929 . S
C1283 C1277 1.390 . S
C1283 C1280 1.386 . S
C1284 C1279 1.490 . S
C1284 C1286 1.395 . S
C1284 C1287 1.403 1_554 S
H1285 C1291 0.930 1_556 S
C1286 H1272 0.930 . S
C1286 C1284 1.395 . S
C1286 C1289 1.403 . S
C1287 C1284 1.403 1_556 S
C1287 C1288 1.524 . S
C1287 C1291 1.400 1_556 S
C1288 H1273 0.960 . S
C1288 H1274 0.960 . S
C1288 H1275 0.960 . S
C1288 C1287 1.524 . S
C1289 C1286 1.403 . S
C1289 C1290 1.392 . S
C1289 C1293 1.495 . S
C1290 C1289 1.392 . S
C1290 C1291 1.385 . S
C1290 C1292 1.478 . S
C1291 H1285 0.930 1_554 S
C1291 C1287 1.400 1_554 S
C1291 C1290 1.385 . S
C1292 C1290 1.478 . S
C1292 C1294 1.381 . S
C1292 C1298 1.383 . S
C1293 C1289 1.495 . S
C1293 H1299 0.959 . S
C1293 H1300 0.961 . S
C1293 H1301 0.960 . S
C1294 C1292 1.381 . S
C1294 C1295 1.394 . S
C1294 H1302 0.930 1_554 S
C1295 C1294 1.394 . S
C1295 C1296 1.383 . S
C1295 H1303 0.929 1_554 S
C1296 C1295 1.383 . S
C1296 C1297 1.377 . S
C1297 H1281 0.930 . S
C1297 C1296 1.377 . S
C1297 C1298 1.379 . S
C1298 H1282 0.931 . S
C1298 C1292 1.383 . S
C1298 C1297 1.379 . S
H1299 C1293 0.959 . S
H1300 C1293 0.961 . S
H1301 C1293 0.960 . S
H1302 C1294 0.930 1_556 S
H1303 C1295 0.929 1_556 S
H1304 C1312 0.929 . S
H1305 C1314 0.930 . S
H1306 C1316 0.930 . S
H1307 C1319 0.929 . S
H1308 C1322 0.930 . S
H1309 C1324 0.960 . S
H1310 C1324 0.960 . S
H1311 C1324 0.960 . S
C1312 H1304 0.929 . S
C1312 C1313 1.377 . S
C1312 C1314 1.384 . S
C1313 C1312 1.377 . S
C1313 C1319 1.390 . S
C1314 H1305 0.930 . S
C1314 C1312 1.384 . S
C1314 C1315 1.372 . S
C1315 C1314 1.372 . S
C1315 C1316 1.400 . S
C1315 C1320 1.490 . S
C1316 H1306 0.930 . S
C1316 C1315 1.400 . S
C1316 C1319 1.386 . S
H1317 C1333 0.930 . S
H1318 C1334 0.931 . S
C1319 H1307 0.929 . S
C1319 C1313 1.390 . S
C1319 C1316 1.386 . S
C1320 C1315 1.490 . S
C1320 C1322 1.395 . S
C1320 C1323 1.403 . S
H1321 C1327 0.930 . S
C1322 H1308 0.930 . S
C1322 C1320 1.395 . S
C1322 C1325 1.403 . S
C1323 C1320 1.403 . S
C1323 C1324 1.524 . S
C1323 C1327 1.400 . S
C1324 H1309 0.960 . S
C1324 H1310 0.960 . S
C1324 H1311 0.960 . S
C1324 C1323 1.524 . S
C1325 C1322 1.403 . S
C1325 C1326 1.392 . S
C1325 C1329 1.495 . S
C1326 C1325 1.392 . S
C1326 C1327 1.385 . S
C1326 C1328 1.478 . S
C1327 H1321 0.930 . S
C1327 C1323 1.400 . S
C1327 C1326 1.385 . S
C1328 C1326 1.478 . S
C1328 C1330 1.381 . S
C1328 C1334 1.383 . S
C1329 C1325 1.495 . S
C1329 H1335 0.959 . S
C1329 H1336 0.961 . S
C1329 H1337 0.960 . S
C1330 C1328 1.381 . S
C1330 C1331 1.394 . S
C1330 H1338 0.930 . S
C1331 C1330 1.394 . S
C1331 C1332 1.383 . S
C1331 H1339 0.929 . S
C1332 C1331 1.383 . S
C1332 C1333 1.377 . S
C1333 H1317 0.930 . S
C1333 C1332 1.377 . S
C1333 C1334 1.379 . S
C1334 H1318 0.931 . S
C1334 C1328 1.383 . S
C1334 C1333 1.379 . S
H1335 C1329 0.959 . S
H1336 C1329 0.961 . S
H1337 C1329 0.960 . S
H1338 C1330 0.930 . S
H1339 C1331 0.929 . S
H1340 C1348 0.929 . S
H1341 C1350 0.930 . S
H1342 C1352 0.930 . S
H1343 C1355 0.929 . S
H1344 C1358 0.930 . S
H1345 C1360 0.960 . S
H1346 C1360 0.960 . S
H1347 C1360 0.960 . S
C1348 H1340 0.929 . S
C1348 C1349 1.377 . S
C1348 C1350 1.384 . S
C1349 C1348 1.377 . S
C1349 C1355 1.390 . S
C1350 H1341 0.930 . S
C1350 C1348 1.384 . S
C1350 C1351 1.372 . S
C1351 C1350 1.372 . S
C1351 C1352 1.400 . S
C1351 C1356 1.490 . S
C1352 H1342 0.930 . S
C1352 C1351 1.400 . S
C1352 C1355 1.386 . S
H1353 C1369 0.930 . S
H1354 C1370 0.931 . S
C1355 H1343 0.929 . S
C1355 C1349 1.390 . S
C1355 C1352 1.386 . S
C1356 C1351 1.490 . S
C1356 C1358 1.395 . S
C1356 C1359 1.403 . S
H1357 C1363 0.930 . S
C1358 H1344 0.930 . S
C1358 C1356 1.395 . S
C1358 C1361 1.403 . S
C1359 C1356 1.403 . S
C1359 C1360 1.524 . S
C1359 C1363 1.400 . S
C1360 H1345 0.960 . S
C1360 H1346 0.960 . S
C1360 H1347 0.960 . S
C1360 C1359 1.524 . S
C1361 C1358 1.403 . S
C1361 C1362 1.392 . S
C1361 C1365 1.495 . S
C1362 C1361 1.392 . S
C1362 C1363 1.385 . S
C1362 C1364 1.478 . S
C1363 H1357 0.930 . S
C1363 C1359 1.400 . S
C1363 C1362 1.385 . S
C1364 C1362 1.478 . S
C1364 C1366 1.381 . S
C1364 C1370 1.383 . S
C1365 C1361 1.495 . S
C1365 H1371 0.959 . S
C1365 H1372 0.961 . S
C1365 H1373 0.960 . S
C1366 C1364 1.381 . S
C1366 C1367 1.394 . S
C1366 H1374 0.930 . S
C1367 C1366 1.394 . S
C1367 C1368 1.383 . S
C1367 H1375 0.929 . S
C1368 C1367 1.383 . S
C1368 C1369 1.377 . S
C1369 H1353 0.930 . S
C1369 C1368 1.377 . S
C1369 C1370 1.379 . S
C1370 H1354 0.931 . S
C1370 C1364 1.383 . S
C1370 C1369 1.379 . S
H1371 C1365 0.959 . S
H1372 C1365 0.961 . S
H1373 C1365 0.960 . S
H1374 C1366 0.930 . S
H1375 C1367 0.929 . S
H1376 C1384 0.929 . S
H1377 C1386 0.930 . S
H1378 C1388 0.930 . S
H1379 C1391 0.929 . S
H1380 C1394 0.930 . S
H1381 C1396 0.960 . S
H1382 C1396 0.960 . S
H1383 C1396 0.960 . S
C1384 H1376 0.929 . S
C1384 C1385 1.377 . S
C1384 C1386 1.384 . S
C1385 C1384 1.377 . S
C1385 C1391 1.390 . S
C1386 H1377 0.930 . S
C1386 C1384 1.384 . S
C1386 C1387 1.372 . S
C1387 C1386 1.372 . S
C1387 C1388 1.400 . S
C1387 C1392 1.490 . S
C1388 H1378 0.930 . S
C1388 C1387 1.400 . S
C1388 C1391 1.386 . S
H1389 C1405 0.930 . S
H1390 C1406 0.931 . S
C1391 H1379 0.929 . S
C1391 C1385 1.390 . S
C1391 C1388 1.386 . S
C1392 C1387 1.490 . S
C1392 C1394 1.395 . S
C1392 C1395 1.403 . S
H1393 C1399 0.930 . S
C1394 H1380 0.930 . S
C1394 C1392 1.395 . S
C1394 C1397 1.403 . S
C1395 C1392 1.403 . S
C1395 C1396 1.524 . S
C1395 C1399 1.400 . S
C1396 H1381 0.960 . S
C1396 H1382 0.960 . S
C1396 H1383 0.960 . S
C1396 C1395 1.524 . S
C1397 C1394 1.403 . S
C1397 C1398 1.392 . S
C1397 C1401 1.495 . S
C1398 C1397 1.392 . S
C1398 C1399 1.385 . S
C1398 C1400 1.478 . S
C1399 H1393 0.930 . S
C1399 C1395 1.400 . S
C1399 C1398 1.385 . S
C1400 C1398 1.478 . S
C1400 C1402 1.381 . S
C1400 C1406 1.383 . S
C1401 C1397 1.495 . S
C1401 H1407 0.959 . S
C1401 H1408 0.961 . S
C1401 H1409 0.960 . S
C1402 C1400 1.381 . S
C1402 C1403 1.394 . S
C1402 H1410 0.930 . S
C1403 C1402 1.394 . S
C1403 C1404 1.383 . S
C1403 H1411 0.929 . S
C1404 C1403 1.383 . S
C1404 C1405 1.377 . S
C1405 H1389 0.930 . S
C1405 C1404 1.377 . S
C1405 C1406 1.379 . S
C1406 H1390 0.931 . S
C1406 C1400 1.383 . S
C1406 C1405 1.379 . S
H1407 C1401 0.959 . S
H1408 C1401 0.961 . S
H1409 C1401 0.960 . S
H1410 C1402 0.930 . S
H1411 C1403 0.929 . S
H1412 C1420 0.929 . S
H1413 C1422 0.930 . S
H1414 C1424 0.930 . S
H1415 C1427 0.929 . S
H1416 C1430 0.930 . S
H1417 C1432 0.960 . S
H1418 C1432 0.960 . S
H1419 C1432 0.960 . S
C1420 H1412 0.929 . S
C1420 C1421 1.377 . S
C1420 C1422 1.384 . S
C1421 C1420 1.377 . S
C1421 C1427 1.390 . S
C1422 H1413 0.930 . S
C1422 C1420 1.384 . S
C1422 C1423 1.372 . S
C1423 C1422 1.372 . S
C1423 C1424 1.400 . S
C1423 C1428 1.490 . S
C1424 H1414 0.930 . S
C1424 C1423 1.400 . S
C1424 C1427 1.386 . S
H1425 C1441 0.930 . S
H1426 C1442 0.931 . S
C1427 H1415 0.929 . S
C1427 C1421 1.390 . S
C1427 C1424 1.386 . S
C1428 C1423 1.490 . S
C1428 C1430 1.395 . S
C1428 C1431 1.403 . S
H1429 C1435 0.930 . S
C1430 H1416 0.930 . S
C1430 C1428 1.395 . S
C1430 C1433 1.403 . S
C1431 C1428 1.403 . S
C1431 C1432 1.524 . S
C1431 C1435 1.400 . S
C1432 H1417 0.960 . S
C1432 H1418 0.960 . S
C1432 H1419 0.960 . S
C1432 C1431 1.524 . S
C1433 C1430 1.403 . S
C1433 C1434 1.392 . S
C1433 C1437 1.495 . S
C1434 C1433 1.392 . S
C1434 C1435 1.385 . S
C1434 C1436 1.478 . S
C1435 H1429 0.930 . S
C1435 C1431 1.400 . S
C1435 C1434 1.385 . S
C1436 C1434 1.478 . S
C1436 C1438 1.381 . S
C1436 C1442 1.383 . S
C1437 C1433 1.495 . S
C1437 H1443 0.959 . S
C1437 H1444 0.961 . S
C1437 H1445 0.960 . S
C1438 C1436 1.381 . S
C1438 C1439 1.394 . S
C1438 H1446 0.930 . S
C1439 C1438 1.394 . S
C1439 C1440 1.383 . S
C1439 H1447 0.929 . S
C1440 C1439 1.383 . S
C1440 C1441 1.377 . S
C1441 H1425 0.930 . S
C1441 C1440 1.377 . S
C1441 C1442 1.379 . S
C1442 H1426 0.931 . S
C1442 C1436 1.383 . S
C1442 C1441 1.379 . S
H1443 C1437 0.959 . S
H1444 C1437 0.961 . S
H1445 C1437 0.960 . S
H1446 C1438 0.930 . S
H1447 C1439 0.929 . S
H1448 C1456 0.929 . S
H1449 C1458 0.930 . S
H1450 C1460 0.930 . S
H1451 C1463 0.929 . S
H1452 C1466 0.930 . S
H1453 C1468 0.960 . S
H1454 C1468 0.960 . S
H1455 C1468 0.960 . S
C1456 H1448 0.929 . S
C1456 C1457 1.377 . S
C1456 C1458 1.384 . S
C1457 C1456 1.377 . S
C1457 C1463 1.390 . S
C1458 H1449 0.930 . S
C1458 C1456 1.384 . S
C1458 C1459 1.372 . S
C1459 C1458 1.372 . S
C1459 C1460 1.400 . S
C1459 C1464 1.490 . S
C1460 H1450 0.930 . S
C1460 C1459 1.400 . S
C1460 C1463 1.386 . S
H1461 C1477 0.930 . S
H1462 C1478 0.931 . S
C1463 H1451 0.929 . S
C1463 C1457 1.390 . S
C1463 C1460 1.386 . S
C1464 C1459 1.490 . S
C1464 C1466 1.395 . S
C1464 C1467 1.403 . S
H1465 C1471 0.930 . S
C1466 H1452 0.930 . S
C1466 C1464 1.395 . S
C1466 C1469 1.403 . S
C1467 C1464 1.403 . S
C1467 C1468 1.524 . S
C1467 C1471 1.400 . S
C1468 H1453 0.960 . S
C1468 H1454 0.960 . S
C1468 H1455 0.960 . S
C1468 C1467 1.524 . S
C1469 C1466 1.403 . S
C1469 C1470 1.392 . S
C1469 C1473 1.495 . S
C1470 C1469 1.392 . S
C1470 C1471 1.385 . S
C1470 C1472 1.478 . S
C1471 H1465 0.930 . S
C1471 C1467 1.400 . S
C1471 C1470 1.385 . S
C1472 C1470 1.478 . S
C1472 C1474 1.381 . S
C1472 C1478 1.383 . S
C1473 C1469 1.495 . S
C1473 H1479 0.959 . S
C1473 H1480 0.961 . S
C1473 H1481 0.960 . S
C1474 C1472 1.381 . S
C1474 C1475 1.394 . S
C1474 H1482 0.930 . S
C1475 C1474 1.394 . S
C1475 C1476 1.383 . S
C1475 H1483 0.929 . S
C1476 C1475 1.383 . S
C1476 C1477 1.377 . S
C1477 H1461 0.930 . S
C1477 C1476 1.377 . S
C1477 C1478 1.379 . S
C1478 H1462 0.931 . S
C1478 C1472 1.383 . S
C1478 C1477 1.379 . S
H1479 C1473 0.959 . S
H1480 C1473 0.961 . S
H1481 C1473 0.960 . S
H1482 C1474 0.930 . S
H1483 C1475 0.929 . S
H1484 C1492 0.929 . S
H1485 C1494 0.930 . S
H1486 C1496 0.930 . S
H1487 C1499 0.929 . S
H1488 C1502 0.930 . S
H1489 C1504 0.960 . S
H1490 C1504 0.960 . S
H1491 C1504 0.960 . S
C1492 H1484 0.929 . S
C1492 C1493 1.377 . S
C1492 C1494 1.384 . S
C1493 C1492 1.377 . S
C1493 C1499 1.390 . S
C1494 H1485 0.930 . S
C1494 C1492 1.384 . S
C1494 C1495 1.372 . S
C1495 C1494 1.372 . S
C1495 C1496 1.400 . S
C1495 C1500 1.490 . S
C1496 H1486 0.930 . S
C1496 C1495 1.400 . S
C1496 C1499 1.386 . S
H1497 C1513 0.930 . S
H1498 C1514 0.931 . S
C1499 H1487 0.929 . S
C1499 C1493 1.390 . S
C1499 C1496 1.386 . S
C1500 C1495 1.490 . S
C1500 C1502 1.395 . S
C1500 C1503 1.403 . S
H1501 C1507 0.930 . S
C1502 H1488 0.930 . S
C1502 C1500 1.395 . S
C1502 C1505 1.403 . S
C1503 C1500 1.403 . S
C1503 C1504 1.524 . S
C1503 C1507 1.400 . S
C1504 H1489 0.960 . S
C1504 H1490 0.960 . S
C1504 H1491 0.960 . S
C1504 C1503 1.524 . S
C1505 C1502 1.403 . S
C1505 C1506 1.392 . S
C1505 C1509 1.495 . S
C1506 C1505 1.392 . S
C1506 C1507 1.385 . S
C1506 C1508 1.478 . S
C1507 H1501 0.930 . S
C1507 C1503 1.400 . S
C1507 C1506 1.385 . S
C1508 C1506 1.478 . S
C1508 C1510 1.381 . S
C1508 C1514 1.383 . S
C1509 C1505 1.495 . S
C1509 H1515 0.959 . S
C1509 H1516 0.961 . S
C1509 H1517 0.960 . S
C1510 C1508 1.381 . S
C1510 C1511 1.394 . S
C1510 H1518 0.930 . S
C1511 C1510 1.394 . S
C1511 C1512 1.383 . S
C1511 H1519 0.929 . S
C1512 C1511 1.383 . S
C1512 C1513 1.377 . S
C1513 H1497 0.930 . S
C1513 C1512 1.377 . S
C1513 C1514 1.379 . S
C1514 H1498 0.931 . S
C1514 C1508 1.383 . S
C1514 C1513 1.379 . S
H1515 C1509 0.959 . S
H1516 C1509 0.961 . S
H1517 C1509 0.960 . S
H1518 C1510 0.930 . S
H1519 C1511 0.929 . S
H1520 C1528 0.929 . S
H1521 C1530 0.930 . S
H1522 C1532 0.932 . S
H1523 C1535 0.929 . S
H1524 C1538 0.930 . S
H1525 C1540 0.960 . S
H1526 C1540 0.960 1_455 S
H1527 C1540 0.960 . S
C1528 H1520 0.929 . S
C1528 C1529 1.377 . S
C1528 C1530 1.384 . S
C1529 C1528 1.377 . S
C1529 C1535 1.390 . S
C1530 H1521 0.930 . S
C1530 C1528 1.384 . S
C1530 C1531 1.372 . S
C1531 C1530 1.372 . S
C1531 C1532 1.400 . S
C1531 C1536 1.490 . S
C1532 H1522 0.932 . S
C1532 C1531 1.400 . S
C1532 C1535 1.386 . S
H1533 C1549 0.930 . S
H1534 C1550 0.931 1_655 S
C1535 H1523 0.929 . S
C1535 C1529 1.390 . S
C1535 C1532 1.386 . S
C1536 C1531 1.490 . S
C1536 C1538 1.395 . S
C1536 C1539 1.403 . S
H1537 C1543 0.930 1_655 S
C1538 H1524 0.930 . S
C1538 C1536 1.395 . S
C1538 C1541 1.403 . S
C1539 C1536 1.403 . S
C1539 C1540 1.524 1_455 S
C1539 C1543 1.400 . S
C1540 H1525 0.960 . S
C1540 H1526 0.960 1_655 S
C1540 H1527 0.960 . S
C1540 C1539 1.524 1_655 S
C1541 C1538 1.403 . S
C1541 C1542 1.392 . S
C1541 C1545 1.495 . S
C1542 C1541 1.392 . S
C1542 C1543 1.385 . S
C1542 C1544 1.478 . S
C1543 H1537 0.930 1_455 S
C1543 C1539 1.400 . S
C1543 C1542 1.385 . S
C1544 C1542 1.478 . S
C1544 C1546 1.381 . S
C1544 C1550 1.383 . S
C1545 C1541 1.495 . S
C1545 H1551 0.959 . S
C1545 H1552 0.961 . S
C1545 H1553 0.960 . S
C1546 C1544 1.381 . S
C1546 C1547 1.394 . S
C1546 H1554 0.930 . S
C1547 C1546 1.394 . S
C1547 C1548 1.383 . S
C1547 H1555 0.929 . S
C1548 C1547 1.383 . S
C1548 C1549 1.377 1_455 S
C1549 H1533 0.930 . S
C1549 C1548 1.377 1_655 S
C1549 C1550 1.379 1_655 S
C1550 H1534 0.931 1_455 S
C1550 C1544 1.383 . S
C1550 C1549 1.379 1_455 S
H1551 C1545 0.959 . S
H1552 C1545 0.961 . S
H1553 C1545 0.960 . S
H1554 C1546 0.930 . S
H1555 C1547 0.929 . S
H1556 C1564 0.929 . S
H1557 C1566 0.930 . S
H1558 C1568 0.930 . S
H1559 C1571 0.929 . S
H1560 C1574 0.930 . S
H1561 C1576 0.960 . S
H1562 C1576 0.960 . S
H1563 C1576 0.960 . S
C1564 H1556 0.929 . S
C1564 C1565 1.377 . S
C1564 C1566 1.384 . S
C1565 C1564 1.377 . S
C1565 C1571 1.390 . S
C1566 H1557 0.930 . S
C1566 C1564 1.384 . S
C1566 C1567 1.372 . S
C1567 C1566 1.372 . S
C1567 C1568 1.400 . S
C1567 C1572 1.490 . S
C1568 H1558 0.930 . S
C1568 C1567 1.400 . S
C1568 C1571 1.386 . S
H1569 C1585 0.930 . S
H1570 C1586 0.931 . S
C1571 H1559 0.929 . S
C1571 C1565 1.390 . S
C1571 C1568 1.386 . S
C1572 C1567 1.490 . S
C1572 C1574 1.395 . S
C1572 C1575 1.403 . S
H1573 C1579 0.930 . S
C1574 H1560 0.930 . S
C1574 C1572 1.395 . S
C1574 C1577 1.403 . S
C1575 C1572 1.403 . S
C1575 C1576 1.524 . S
C1575 C1579 1.400 . S
C1576 H1561 0.960 . S
C1576 H1562 0.960 . S
C1576 H1563 0.960 . S
C1576 C1575 1.524 . S
C1577 C1574 1.403 . S
C1577 C1578 1.392 . S
C1577 C1581 1.495 . S
C1578 C1577 1.392 . S
C1578 C1579 1.385 . S
C1578 C1580 1.478 . S
C1579 H1573 0.930 . S
C1579 C1575 1.400 . S
C1579 C1578 1.385 . S
C1580 C1578 1.478 . S
C1580 C1582 1.381 . S
C1580 C1586 1.383 . S
C1581 C1577 1.495 . S
C1581 H1587 0.959 . S
C1581 H1588 0.961 . S
C1581 H1589 0.960 . S
C1582 C1580 1.381 . S
C1582 C1583 1.394 . S
C1582 H1590 0.930 . S
C1583 C1582 1.394 . S
C1583 C1584 1.383 . S
C1583 H1591 0.929 . S
C1584 C1583 1.383 . S
C1584 C1585 1.377 . S
C1585 H1569 0.930 . S
C1585 C1584 1.377 . S
C1585 C1586 1.379 . S
C1586 H1570 0.931 . S
C1586 C1580 1.383 . S
C1586 C1585 1.379 . S
H1587 C1581 0.959 . S
H1588 C1581 0.961 . S
H1589 C1581 0.960 . S
H1590 C1582 0.930 . S
H1591 C1583 0.929 . S
H1592 C1600 0.929 . S
H1593 C1602 0.930 . S
H1594 C1604 0.930 . S
H1595 C1607 0.929 . S
H1596 C1610 0.930 . S
H1597 C1612 0.960 . S
H1598 C1612 0.960 . S
H1599 C1612 0.960 . S
C1600 H1592 0.929 . S
C1600 C1601 1.377 . S
C1600 C1602 1.384 . S
C1601 C1600 1.377 . S
C1601 C1607 1.390 . S
C1602 H1593 0.930 . S
C1602 C1600 1.384 . S
C1602 C1603 1.372 . S
C1603 C1602 1.372 . S
C1603 C1604 1.400 . S
C1603 C1608 1.490 . S
C1604 H1594 0.930 . S
C1604 C1603 1.400 . S
C1604 C1607 1.386 . S
H1605 C1621 0.930 . S
H1606 C1622 0.931 . S
C1607 H1595 0.929 . S
C1607 C1601 1.390 . S
C1607 C1604 1.386 . S
C1608 C1603 1.490 . S
C1608 C1610 1.395 . S
C1608 C1611 1.403 . S
H1609 C1615 0.930 . S
C1610 H1596 0.930 . S
C1610 C1608 1.395 . S
C1610 C1613 1.403 . S
C1611 C1608 1.403 . S
C1611 C1612 1.524 . S
C1611 C1615 1.400 . S
C1612 H1597 0.960 . S
C1612 H1598 0.960 . S
C1612 H1599 0.960 . S
C1612 C1611 1.524 . S
C1613 C1610 1.403 . S
C1613 C1614 1.392 . S
C1613 C1617 1.495 . S
C1614 C1613 1.392 . S
C1614 C1615 1.385 . S
C1614 C1616 1.478 . S
C1615 H1609 0.930 . S
C1615 C1611 1.400 . S
C1615 C1614 1.385 . S
C1616 C1614 1.478 . S
C1616 C1618 1.381 . S
C1616 C1622 1.383 . S
C1617 C1613 1.495 . S
C1617 H1623 0.959 . S
C1617 H1624 0.961 . S
C1617 H1625 0.960 . S
C1618 C1616 1.381 . S
C1618 C1619 1.394 . S
C1618 H1626 0.930 . S
C1619 C1618 1.394 . S
C1619 C1620 1.383 . S
C1619 H1627 0.929 . S
C1620 C1619 1.383 . S
C1620 C1621 1.377 . S
C1621 H1605 0.930 . S
C1621 C1620 1.377 . S
C1621 C1622 1.379 . S
C1622 H1606 0.931 . S
C1622 C1616 1.383 . S
C1622 C1621 1.379 . S
H1623 C1617 0.959 . S
H1624 C1617 0.961 . S
H1625 C1617 0.960 . S
H1626 C1618 0.930 . S
H1627 C1619 0.929 . S
H1628 C1636 0.929 . S
H1629 C1638 0.930 . S
H1630 C1640 0.930 . S
H1631 C1643 0.929 . S
H1632 C1646 0.930 . S
H1633 C1648 0.960 . S
H1634 C1648 0.960 . S
H1635 C1648 0.960 . S
C1636 H1628 0.929 . S
C1636 C1637 1.377 . S
C1636 C1638 1.384 . S
C1637 C1636 1.377 . S
C1637 C1643 1.390 . S
C1638 H1629 0.930 . S
C1638 C1636 1.384 . S
C1638 C1639 1.372 . S
C1639 C1638 1.372 . S
C1639 C1640 1.400 . S
C1639 C1644 1.490 . S
C1640 H1630 0.930 . S
C1640 C1639 1.400 . S
C1640 C1643 1.386 . S
H1641 C1657 0.930 . S
H1642 C1658 0.931 . S
C1643 H1631 0.929 . S
C1643 C1637 1.390 . S
C1643 C1640 1.386 . S
C1644 C1639 1.490 . S
C1644 C1646 1.395 . S
C1644 C1647 1.403 . S
H1645 C1651 0.930 . S
C1646 H1632 0.930 . S
C1646 C1644 1.395 . S
C1646 C1649 1.403 . S
C1647 C1644 1.403 . S
C1647 C1648 1.524 . S
C1647 C1651 1.400 . S
C1648 H1633 0.960 . S
C1648 H1634 0.960 . S
C1648 H1635 0.960 . S
C1648 C1647 1.524 . S
C1649 C1646 1.403 . S
C1649 C1650 1.392 . S
C1649 C1653 1.495 . S
C1650 C1649 1.392 . S
C1650 C1651 1.385 . S
C1650 C1652 1.478 . S
C1651 H1645 0.930 . S
C1651 C1647 1.400 . S
C1651 C1650 1.385 . S
C1652 C1650 1.478 . S
C1652 C1654 1.381 . S
C1652 C1658 1.383 . S
C1653 C1649 1.495 . S
C1653 H1659 0.959 . S
C1653 H1660 0.961 . S
C1653 H1661 0.960 . S
C1654 C1652 1.381 . S
C1654 C1655 1.394 . S
C1654 H1662 0.930 . S
C1655 C1654 1.394 . S
C1655 C1656 1.383 . S
C1655 H1663 0.929 . S
C1656 C1655 1.383 . S
C1656 C1657 1.377 . S
C1657 H1641 0.930 . S
C1657 C1656 1.377 . S
C1657 C1658 1.379 . S
C1658 H1642 0.931 . S
C1658 C1652 1.383 . S
C1658 C1657 1.379 . S
H1659 C1653 0.959 . S
H1660 C1653 0.961 . S
H1661 C1653 0.960 . S
H1662 C1654 0.930 . S
H1663 C1655 0.929 . S
H1664 C1672 0.929 . S
H1665 C1674 0.930 . S
H1666 C1676 0.930 . S
H1667 C1679 0.929 . S
H1668 C1682 0.930 . S
H1669 C1684 0.960 . S
H1670 C1684 0.960 . S
H1671 C1684 0.960 . S
C1672 H1664 0.929 . S
C1672 C1673 1.377 . S
C1672 C1674 1.384 . S
C1673 C1672 1.377 . S
C1673 C1679 1.390 1_455 S
C1674 H1665 0.930 . S
C1674 C1672 1.384 . S
C1674 C1675 1.372 . S
C1675 C1674 1.372 . S
C1675 C1676 1.400 1_455 S
C1675 C1680 1.490 . S
C1676 H1666 0.930 . S
C1676 C1675 1.400 1_655 S
C1676 C1679 1.386 . S
H1677 C1693 0.930 . S
H1678 C1694 0.934 . S
C1679 H1667 0.929 . S
C1679 C1673 1.390 1_655 S
C1679 C1676 1.386 . S
C1680 C1675 1.490 . S
C1680 C1682 1.395 . S
C1680 C1683 1.407 . S
H1681 C1687 0.930 1_655 S
C1682 H1668 0.930 . S
C1682 C1680 1.395 . S
C1682 C1685 1.403 . S
C1683 C1680 1.407 . S
C1683 C1684 1.518 1_455 S
C1683 C1687 1.402 . S
C1684 H1669 0.960 . S
C1684 H1670 0.960 . S
C1684 H1671 0.960 . S
C1684 C1683 1.518 1_655 S
C1685 C1682 1.403 . S
C1685 C1686 1.392 . S
C1685 C1689 1.495 . S
C1686 C1685 1.392 . S
C1686 C1687 1.385 . S
C1686 C1688 1.478 . S
C1687 H1681 0.930 1_455 S
C1687 C1683 1.402 . S
C1687 C1686 1.385 . S
C1688 C1686 1.478 . S
C1688 C1690 1.381 . S
C1688 C1694 1.380 1_455 S
C1689 C1685 1.495 . S
C1689 H1695 0.959 . S
C1689 H1696 0.961 . S
C1689 H1697 0.960 . S
C1690 C1688 1.381 . S
C1690 C1691 1.394 . S
C1690 H1698 0.930 . S
C1691 C1690 1.394 . S
C1691 C1692 1.383 . S
C1691 H1699 0.929 . S
C1692 C1691 1.383 . S
C1692 C1693 1.377 1_455 S
C1693 H1677 0.930 . S
C1693 C1692 1.377 1_655 S
C1693 C1694 1.379 . S
C1694 H1678 0.934 . S
C1694 C1688 1.380 1_655 S
C1694 C1693 1.379 . S
H1695 C1689 0.959 . S
H1696 C1689 0.961 . S
H1697 C1689 0.960 . S
H1698 C1690 0.930 . S
H1699 C1691 0.929 . S
H1700 C1708 0.929 . S
H1701 C1710 0.930 . S
H1702 C1712 0.930 . S
H1703 C1715 0.929 . S
H1704 C1718 0.930 . S
H1705 C1720 0.960 . S
H1706 C1720 0.960 . S
H1707 C1720 0.960 . S
C1708 H1700 0.929 . S
C1708 C1709 1.377 . S
C1708 C1710 1.384 . S
C1709 C1708 1.377 . S
C1709 C1715 1.390 . S
C1710 H1701 0.930 . S
C1710 C1708 1.384 . S
C1710 C1711 1.372 . S
C1711 C1710 1.372 . S
C1711 C1712 1.400 . S
C1711 C1716 1.490 . S
C1712 H1702 0.930 . S
C1712 C1711 1.400 . S
C1712 C1715 1.386 . S
H1713 C1729 0.930 . S
H1714 C1730 0.931 . S
C1715 H1703 0.929 . S
C1715 C1709 1.390 . S
C1715 C1712 1.386 . S
C1716 C1711 1.490 . S
C1716 C1718 1.395 . S
C1716 C1719 1.403 . S
H1717 C1723 0.930 . S
C1718 H1704 0.930 . S
C1718 C1716 1.395 . S
C1718 C1721 1.403 . S
C1719 C1716 1.403 . S
C1719 C1720 1.524 . S
C1719 C1723 1.400 . S
C1720 H1705 0.960 . S
C1720 H1706 0.960 . S
C1720 H1707 0.960 . S
C1720 C1719 1.524 . S
C1721 C1718 1.403 . S
C1721 C1722 1.392 . S
C1721 C1725 1.495 . S
C1722 C1721 1.392 . S
C1722 C1723 1.385 . S
C1722 C1724 1.478 . S
C1723 H1717 0.930 . S
C1723 C1719 1.400 . S
C1723 C1722 1.385 . S
C1724 C1722 1.478 . S
C1724 C1726 1.381 . S
C1724 C1730 1.383 . S
C1725 C1721 1.495 . S
C1725 H1731 0.959 . S
C1725 H1732 0.961 . S
C1725 H1733 0.960 . S
C1726 C1724 1.381 . S
C1726 C1727 1.394 . S
C1726 H1734 0.930 . S
C1727 C1726 1.394 . S
C1727 C1728 1.383 . S
C1727 H1735 0.929 . S
C1728 C1727 1.383 . S
C1728 C1729 1.377 . S
C1729 H1713 0.930 . S
C1729 C1728 1.377 . S
C1729 C1730 1.379 . S
C1730 H1714 0.931 . S
C1730 C1724 1.383 . S
C1730 C1729 1.379 . S
H1731 C1725 0.959 . S
H1732 C1725 0.961 . S
H1733 C1725 0.960 . S
H1734 C1726 0.930 . S
H1735 C1727 0.929 . S
H1736 C1744 0.929 . S
H1737 C1746 0.930 . S
H1738 C1748 0.930 . S
H1739 C1751 0.929 . S
H1740 C1754 0.930 . S
H1741 C1756 0.960 . S
H1742 C1756 0.960 . S
H1743 C1756 0.960 . S
C1744 H1736 0.929 . S
C1744 C1745 1.377 . S
C1744 C1746 1.384 . S
C1745 C1744 1.377 . S
C1745 C1751 1.390 . S
C1746 H1737 0.930 . S
C1746 C1744 1.384 . S
C1746 C1747 1.372 . S
C1747 C1746 1.372 . S
C1747 C1748 1.400 . S
C1747 C1752 1.490 . S
C1748 H1738 0.930 . S
C1748 C1747 1.400 . S
C1748 C1751 1.386 . S
H1749 C1765 0.930 . S
H1750 C1766 0.931 . S
C1751 H1739 0.929 . S
C1751 C1745 1.390 . S
C1751 C1748 1.386 . S
C1752 C1747 1.490 . S
C1752 C1754 1.395 . S
C1752 C1755 1.403 . S
H1753 C1759 0.930 . S
C1754 H1740 0.930 . S
C1754 C1752 1.395 . S
C1754 C1757 1.403 . S
C1755 C1752 1.403 . S
C1755 C1756 1.524 . S
C1755 C1759 1.400 . S
C1756 H1741 0.960 . S
C1756 H1742 0.960 . S
C1756 H1743 0.960 . S
C1756 C1755 1.524 . S
C1757 C1754 1.403 . S
C1757 C1758 1.392 . S
C1757 C1761 1.495 . S
C1758 C1757 1.392 . S
C1758 C1759 1.385 . S
C1758 C1760 1.478 . S
C1759 H1753 0.930 . S
C1759 C1755 1.400 . S
C1759 C1758 1.385 . S
C1760 C1758 1.478 . S
C1760 C1762 1.381 . S
C1760 C1766 1.383 . S
C1761 C1757 1.495 . S
C1761 H1767 0.959 . S
C1761 H1768 0.961 1_556 S
C1761 H1769 0.960 . S
C1762 C1760 1.381 . S
C1762 C1763 1.394 . S
C1762 H1770 0.930 . S
C1763 C1762 1.394 . S
C1763 C1764 1.383 1_556 S
C1763 H1771 0.929 . S
C1764 C1763 1.383 1_554 S
C1764 C1765 1.377 . S
C1765 H1749 0.930 . S
C1765 C1764 1.377 . S
C1765 C1766 1.379 1_554 S
C1766 H1750 0.931 . S
C1766 C1760 1.383 . S
C1766 C1765 1.379 1_556 S
H1767 C1761 0.959 . S
H1768 C1761 0.961 1_554 S
H1769 C1761 0.960 . S
H1770 C1762 0.930 . S
H1771 C1763 0.929 . S
H1772 C1780 0.929 . S
H1773 C1782 0.930 . S
H1774 C1784 0.930 . S
H1775 C1787 0.929 . S
H1776 C1790 0.930 . S
H1777 C1792 0.960 . S
H1778 C1792 0.960 . S
H1779 C1792 0.960 . S
C1780 H1772 0.929 . S
C1780 C1781 1.377 . S
C1780 C1782 1.384 . S
C1781 C1780 1.377 . S
C1781 C1787 1.390 . S
C1782 H1773 0.930 . S
C1782 C1780 1.384 . S
C1782 C1783 1.372 . S
C1783 C1782 1.372 . S
C1783 C1784 1.400 . S
C1783 C1788 1.490 . S
C1784 H1774 0.930 . S
C1784 C1783 1.400 . S
C1784 C1787 1.386 . S
H1785 C1801 0.930 . S
H1786 C1802 0.931 . S
C1787 H1775 0.929 . S
C1787 C1781 1.390 . S
C1787 C1784 1.386 . S
C1788 C1783 1.490 . S
C1788 C1790 1.395 . S
C1788 C1791 1.403 . S
H1789 C1795 0.930 . S
C1790 H1776 0.930 . S
C1790 C1788 1.395 . S
C1790 C1793 1.403 . S
C1791 C1788 1.403 . S
C1791 C1792 1.524 . S
C1791 C1795 1.400 . S
C1792 H1777 0.960 . S
C1792 H1778 0.960 . S
C1792 H1779 0.960 . S
C1792 C1791 1.524 . S
C1793 C1790 1.403 . S
C1793 C1794 1.392 . S
C1793 C1797 1.495 . S
C1794 C1793 1.392 . S
C1794 C1795 1.385 . S
C1794 C1796 1.478 . S
C1795 H1789 0.930 . S
C1795 C1791 1.400 . S
C1795 C1794 1.385 . S
C1796 C1794 1.478 . S
C1796 C1798 1.381 . S
C1796 C1802 1.383 . S
C1797 C1793 1.495 . S
C1797 H1803 0.959 . S
C1797 H1804 0.961 . S
C1797 H1805 0.960 . S
C1798 C1796 1.381 . S
C1798 C1799 1.394 . S
C1798 H1806 0.930 . S
C1799 C1798 1.394 . S
C1799 C1800 1.383 . S
C1799 H1807 0.929 . S
C1800 C1799 1.383 . S
C1800 C1801 1.377 . S
C1801 H1785 0.930 . S
C1801 C1800 1.377 . S
C1801 C1802 1.379 . S
C1802 H1786 0.931 . S
C1802 C1796 1.383 . S
C1802 C1801 1.379 . S
H1803 C1797 0.959 . S
H1804 C1797 0.961 . S
H1805 C1797 0.960 . S
H1806 C1798 0.930 . S
H1807 C1799 0.929 . S
H1808 C1816 0.929 . S
H1809 C1818 0.930 . S
H1810 C1820 0.930 . S
H1811 C1823 0.929 . S
H1812 C1826 0.930 . S
H1813 C1828 0.960 . S
H1814 C1828 0.960 . S
H1815 C1828 0.960 1_565 S
C1816 H1808 0.929 . S
C1816 C1817 1.377 . S
C1816 C1818 1.384 . S
C1817 C1816 1.377 . S
C1817 C1823 1.390 1_545 S
C1818 H1809 0.930 . S
C1818 C1816 1.384 . S
C1818 C1819 1.372 . S
C1819 C1818 1.372 . S
C1819 C1820 1.400 1_545 S
C1819 C1824 1.490 . S
C1820 H1810 0.930 . S
C1820 C1819 1.400 1_565 S
C1820 C1823 1.386 . S
H1821 C1837 0.930 . S
H1822 C1838 0.931 . S
C1823 H1811 0.929 . S
C1823 C1817 1.390 1_565 S
C1823 C1820 1.386 . S
C1824 C1819 1.490 . S
C1824 C1826 1.395 . S
C1824 C1827 1.403 . S
H1825 C1831 0.930 . S
C1826 H1812 0.930 . S
C1826 C1824 1.395 . S
C1826 C1829 1.403 . S
C1827 C1824 1.403 . S
C1827 C1828 1.524 . S
C1827 C1831 1.400 . S
C1828 H1813 0.960 . S
C1828 H1814 0.960 . S
C1828 H1815 0.960 1_545 S
C1828 C1827 1.524 . S
C1829 C1826 1.403 . S
C1829 C1830 1.392 . S
C1829 C1833 1.495 . S
C1830 C1829 1.392 . S
C1830 C1831 1.385 . S
C1830 C1832 1.478 . S
C1831 H1825 0.930 . S
C1831 C1827 1.400 . S
C1831 C1830 1.385 . S
C1832 C1830 1.478 . S
C1832 C1834 1.381 . S
C1832 C1838 1.383 1_545 S
C1833 C1829 1.495 . S
C1833 H1839 0.959 . S
C1833 H1840 0.961 . S
C1833 H1841 0.960 . S
C1834 C1832 1.381 . S
C1834 C1835 1.394 . S
C1834 H1842 0.930 . S
C1835 C1834 1.394 . S
C1835 C1836 1.383 . S
C1835 H1843 0.929 . S
C1836 C1835 1.383 . S
C1836 C1837 1.377 1_545 S
C1837 H1821 0.930 . S
C1837 C1836 1.377 1_565 S
C1837 C1838 1.379 . S
C1838 H1822 0.931 . S
C1838 C1832 1.383 1_565 S
C1838 C1837 1.379 . S
H1839 C1833 0.959 . S
H1840 C1833 0.961 . S
H1841 C1833 0.960 . S
H1842 C1834 0.930 . S
H1843 C1835 0.929 . S
H1844 C1852 0.929 . S
H1845 C1854 0.930 . S
H1846 C1856 0.930 . S
H1847 C1859 0.929 . S
H1848 C1862 0.930 . S
H1849 C1864 0.960 . S
H1850 C1864 0.960 . S
H1851 C1864 0.960 . S
C1852 H1844 0.929 . S
C1852 C1853 1.377 . S
C1852 C1854 1.384 . S
C1853 C1852 1.377 . S
C1853 C1859 1.390 . S
C1854 H1845 0.930 . S
C1854 C1852 1.384 . S
C1854 C1855 1.372 . S
C1855 C1854 1.372 . S
C1855 C1856 1.400 . S
C1855 C1860 1.490 . S
C1856 H1846 0.930 . S
C1856 C1855 1.400 . S
C1856 C1859 1.386 . S
H1857 C1873 0.930 . S
H1858 C1874 0.931 . S
C1859 H1847 0.929 . S
C1859 C1853 1.390 . S
C1859 C1856 1.386 . S
C1860 C1855 1.490 . S
C1860 C1862 1.395 . S
C1860 C1863 1.403 . S
H1861 C1867 0.930 . S
C1862 H1848 0.930 . S
C1862 C1860 1.395 . S
C1862 C1865 1.403 . S
C1863 C1860 1.403 . S
C1863 C1864 1.524 . S
C1863 C1867 1.400 . S
C1864 H1849 0.960 . S
C1864 H1850 0.960 . S
C1864 H1851 0.960 . S
C1864 C1863 1.524 . S
C1865 C1862 1.403 . S
C1865 C1866 1.392 . S
C1865 C1869 1.495 . S
C1866 C1865 1.392 . S
C1866 C1867 1.385 . S
C1866 C1868 1.478 . S
C1867 H1861 0.930 . S
C1867 C1863 1.400 . S
C1867 C1866 1.385 . S
C1868 C1866 1.478 . S
C1868 C1870 1.381 . S
C1868 C1874 1.383 . S
C1869 C1865 1.495 . S
C1869 H1875 0.959 . S
C1869 H1876 0.961 . S
C1869 H1877 0.960 . S
C1870 C1868 1.381 . S
C1870 C1871 1.394 . S
C1870 H1878 0.930 . S
C1871 C1870 1.394 . S
C1871 C1872 1.383 . S
C1871 H1879 0.929 . S
C1872 C1871 1.383 . S
C1872 C1873 1.377 . S
C1873 H1857 0.930 . S
C1873 C1872 1.377 . S
C1873 C1874 1.379 . S
C1874 H1858 0.931 . S
C1874 C1868 1.383 . S
C1874 C1873 1.379 . S
H1875 C1869 0.959 . S
H1876 C1869 0.961 . S
H1877 C1869 0.960 . S
H1878 C1870 0.930 . S
H1879 C1871 0.929 . S
H1880 C1888 0.929 . S
H1881 C1890 0.930 . S
H1882 C1892 0.930 . S
H1883 C1895 0.929 . S
H1884 C1898 0.930 . S
H1885 C1900 0.960 . S
H1886 C1900 0.960 . S
H1887 C1900 0.960 . S
C1888 H1880 0.929 . S
C1888 C1889 1.377 . S
C1888 C1890 1.384 . S
C1889 C1888 1.377 . S
C1889 C1895 1.390 . S
C1890 H1881 0.930 . S
C1890 C1888 1.384 . S
C1890 C1891 1.372 . S
C1891 C1890 1.372 . S
C1891 C1892 1.400 . S
C1891 C1896 1.490 . S
C1892 H1882 0.930 . S
C1892 C1891 1.400 . S
C1892 C1895 1.386 . S
H1893 C1909 0.930 1_565 S
H1894 C1910 0.931 1_565 S
C1895 H1883 0.929 . S
C1895 C1889 1.390 . S
C1895 C1892 1.386 . S
C1896 C1891 1.490 . S
C1896 C1898 1.395 . S
C1896 C1899 1.403 . S
H1897 C1903 0.930 . S
C1898 H1884 0.930 . S
C1898 C1896 1.395 . S
C1898 C1901 1.403 . S
C1899 C1896 1.403 . S
C1899 C1900 1.524 . S
C1899 C1903 1.400 . S
C1900 H1885 0.960 . S
C1900 H1886 0.960 . S
C1900 H1887 0.960 . S
C1900 C1899 1.524 . S
C1901 C1898 1.403 . S
C1901 C1902 1.392 . S
C1901 C1905 1.495 . S
C1902 C1901 1.392 . S
C1902 C1903 1.385 . S
C1902 C1904 1.478 . S
C1903 H1897 0.930 . S
C1903 C1899 1.400 . S
C1903 C1902 1.385 . S
C1904 C1902 1.478 . S
C1904 C1906 1.381 . S
C1904 C1910 1.383 . S
C1905 C1901 1.495 . S
C1905 H1911 0.959 . S
C1905 H1912 0.961 1_545 S
C1905 H1913 0.960 . S
C1906 C1904 1.381 . S
C1906 C1907 1.394 . S
C1906 H1914 0.930 . S
C1907 C1906 1.394 . S
C1907 C1908 1.383 . S
C1907 H1915 0.929 . S
C1908 C1907 1.383 . S
C1908 C1909 1.377 . S
C1909 H1893 0.930 1_545 S
C1909 C1908 1.377 . S
C1909 C1910 1.379 . S
C1910 H1894 0.931 1_545 S
C1910 C1904 1.383 . S
C1910 C1909 1.379 . S
H1911 C1905 0.959 . S
H1912 C1905 0.961 1_565 S
H1913 C1905 0.960 . S
H1914 C1906 0.930 . S
H1915 C1907 0.929 . S
H1916 C1924 0.929 . S
H1917 C1926 0.930 . S
H1918 C1928 0.930 . S
H1919 C1931 0.929 . S
H1920 C1934 0.930 . S
H1921 C1936 0.960 . S
H1922 C1936 0.960 . S
H1923 C1936 0.960 . S
C1924 H1916 0.929 . S
C1924 C1925 1.377 . S
C1924 C1926 1.384 . S
C1925 C1924 1.377 . S
C1925 C1931 1.390 . S
C1926 H1917 0.930 . S
C1926 C1924 1.384 . S
C1926 C1927 1.372 . S
C1927 C1926 1.372 . S
C1927 C1928 1.400 . S
C1927 C1932 1.490 . S
C1928 H1918 0.930 . S
C1928 C1927 1.400 . S
C1928 C1931 1.386 . S
H1929 C1945 0.930 . S
H1930 C1946 0.931 . S
C1931 H1919 0.929 . S
C1931 C1925 1.390 . S
C1931 C1928 1.386 . S
C1932 C1927 1.490 . S
C1932 C1934 1.395 . S
C1932 C1935 1.403 . S
H1933 C1939 0.930 . S
C1934 H1920 0.930 . S
C1934 C1932 1.395 . S
C1934 C1937 1.403 . S
C1935 C1932 1.403 . S
C1935 C1936 1.524 . S
C1935 C1939 1.400 . S
C1936 H1921 0.960 . S
C1936 H1922 0.960 . S
C1936 H1923 0.960 . S
C1936 C1935 1.524 . S
C1937 C1934 1.403 . S
C1937 C1938 1.392 . S
C1937 C1941 1.495 . S
C1938 C1937 1.392 . S
C1938 C1939 1.385 . S
C1938 C1940 1.478 . S
C1939 H1933 0.930 . S
C1939 C1935 1.400 . S
C1939 C1938 1.385 . S
C1940 C1938 1.478 . S
C1940 C1942 1.381 . S
C1940 C1946 1.383 . S
C1941 C1937 1.495 . S
C1941 H1947 0.959 . S
C1941 H1948 0.961 . S
C1941 H1949 0.960 . S
C1942 C1940 1.381 . S
C1942 C1943 1.394 . S
C1942 H1950 0.930 . S
C1943 C1942 1.394 . S
C1943 C1944 1.383 . S
C1943 H1951 0.929 . S
C1944 C1943 1.383 . S
C1944 C1945 1.377 . S
C1945 H1929 0.930 . S
C1945 C1944 1.377 . S
C1945 C1946 1.379 . S
C1946 H1930 0.931 . S
C1946 C1940 1.383 . S
C1946 C1945 1.379 . S
H1947 C1941 0.959 . S
H1948 C1941 0.961 . S
H1949 C1941 0.960 . S
H1950 C1942 0.930 . S
H1951 C1943 0.929 . S
H1952 C1960 0.929 . S
H1953 C1962 0.930 . S
H1954 C1964 0.930 . S
H1955 C1967 0.929 . S
H1956 C1970 0.955 . S
H1957 C1972 0.960 . S
H1958 C1972 0.960 . S
H1959 C1972 0.960 . S
C1960 H1952 0.929 . S
C1960 C1961 1.377 . S
C1960 C1962 1.384 . S
C1961 C1960 1.377 . S
C1961 C1967 1.390 1_545 S
C1962 H1953 0.930 . S
C1962 C1960 1.384 . S
C1962 C1963 1.372 . S
C1963 C1962 1.372 . S
C1963 C1964 1.400 1_545 S
C1963 C1968 1.490 . S
C1964 H1954 0.930 . S
C1964 C1963 1.400 1_565 S
C1964 C1967 1.386 . S
H1965 C1981 0.930 . S
H1966 C1982 0.931 . S
C1967 H1955 0.929 . S
C1967 C1961 1.390 1_565 S
C1967 C1964 1.386 . S
C1968 C1963 1.490 . S
C1968 C1970 1.395 . S
C1968 C1971 1.403 . S
H1969 C1975 0.930 . S
C1970 H1956 0.955 . S
C1970 C1968 1.395 . S
C1970 C1973 1.403 . S
C1971 C1968 1.403 . S
C1971 C1972 1.524 . S
C1971 C1975 1.400 . S
C1972 H1957 0.960 . S
C1972 H1958 0.960 . S
C1972 H1959 0.960 . S
C1972 C1971 1.524 . S
C1973 C1970 1.403 . S
C1973 C1974 1.392 . S
C1973 C1977 1.494 1_545 S
C1974 C1973 1.392 . S
C1974 C1975 1.385 . S
C1974 C1976 1.478 . S
C1975 H1969 0.930 . S
C1975 C1971 1.400 . S
C1975 C1974 1.385 . S
C1976 C1974 1.478 . S
C1976 C1978 1.381 . S
C1976 C1982 1.383 1_545 S
C1977 C1973 1.494 1_565 S
C1977 H1983 0.961 . S
C1977 H1984 0.964 . S
C1977 H1985 0.957 1_565 S
C1978 C1976 1.381 . S
C1978 C1979 1.394 . S
C1978 H1986 0.930 . S
C1979 C1978 1.394 . S
C1979 C1980 1.383 . S
C1979 H1987 0.929 . S
C1980 C1979 1.383 . S
C1980 C1981 1.377 1_545 S
C1981 H1965 0.930 . S
C1981 C1980 1.377 1_565 S
C1981 C1982 1.379 . S
C1982 H1966 0.931 . S
C1982 C1976 1.383 1_565 S
C1982 C1981 1.379 . S
H1983 C1977 0.961 . S
H1984 C1977 0.964 . S
H1985 C1977 0.957 1_545 S
H1986 C1978 0.930 . S
H1987 C1979 0.929 . S
H1988 C1996 0.929 . S
H1989 C1998 0.930 . S
H1990 C2000 0.930 . S
H1991 C2003 0.929 . S
H1992 C2006 0.930 . S
H1993 C2008 0.960 . S
H1994 C2008 0.960 . S
H1995 C2008 0.960 . S
C1996 H1988 0.929 . S
C1996 C1997 1.377 . S
C1996 C1998 1.384 . S
C1997 C1996 1.377 . S
C1997 C2003 1.390 . S
C1998 H1989 0.930 . S
C1998 C1996 1.384 . S
C1998 C1999 1.372 . S
C1999 C1998 1.372 . S
C1999 C2000 1.400 . S
C1999 C2004 1.490 . S
C2000 H1990 0.930 . S
C2000 C1999 1.400 . S
C2000 C2003 1.386 . S
H2001 C2017 0.930 . S
H2002 C2018 0.931 . S
C2003 H1991 0.929 . S
C2003 C1997 1.390 . S
C2003 C2000 1.386 . S
C2004 C1999 1.490 . S
C2004 C2006 1.395 . S
C2004 C2007 1.403 . S
H2005 C2011 0.930 . S
C2006 H1992 0.930 . S
C2006 C2004 1.395 . S
C2006 C2009 1.403 . S
C2007 C2004 1.403 . S
C2007 C2008 1.524 . S
C2007 C2011 1.400 . S
C2008 H1993 0.960 . S
C2008 H1994 0.960 . S
C2008 H1995 0.960 . S
C2008 C2007 1.524 . S
C2009 C2006 1.403 . S
C2009 C2010 1.392 . S
C2009 C2013 1.495 . S
C2010 C2009 1.392 . S
C2010 C2011 1.385 . S
C2010 C2012 1.478 . S
C2011 H2005 0.930 . S
C2011 C2007 1.400 . S
C2011 C2010 1.385 . S
C2012 C2010 1.478 . S
C2012 C2014 1.381 . S
C2012 C2018 1.383 . S
C2013 C2009 1.495 . S
C2013 H2019 0.959 . S
C2013 H2020 0.961 . S
C2013 H2021 0.960 . S
C2014 C2012 1.381 . S
C2014 C2015 1.394 . S
C2014 H2022 0.930 . S
C2015 C2014 1.394 . S
C2015 C2016 1.383 . S
C2015 H2023 0.929 . S
C2016 C2015 1.383 . S
C2016 C2017 1.377 . S
C2017 H2001 0.930 . S
C2017 C2016 1.377 . S
C2017 C2018 1.379 . S
C2018 H2002 0.931 . S
C2018 C2012 1.383 . S
C2018 C2017 1.379 . S
H2019 C2013 0.959 . S
H2020 C2013 0.961 . S
H2021 C2013 0.960 . S
H2022 C2014 0.930 . S
H2023 C2015 0.929 . S
H2024 C2032 0.929 1_565 S
H2025 C2034 0.930 1_565 S
H2026 C2036 0.930 . S
H2027 C2039 0.929 . S
H2028 C2042 0.930 . S
H2029 C2044 0.960 . S
H2030 C2044 0.960 . S
H2031 C2044 0.960 . S
C2032 H2024 0.929 1_545 S
C2032 C2033 1.377 . S
C2032 C2034 1.384 . S
C2033 C2032 1.377 . S
C2033 C2039 1.390 . S
C2034 H2025 0.930 1_545 S
C2034 C2032 1.384 . S
C2034 C2035 1.372 . S
C2035 C2034 1.372 . S
C2035 C2036 1.400 . S
C2035 C2040 1.490 . S
C2036 H2026 0.930 . S
C2036 C2035 1.400 . S
C2036 C2039 1.386 . S
H2037 C2053 0.930 . S
H2038 C2054 0.931 . S
C2039 H2027 0.929 . S
C2039 C2033 1.390 . S
C2039 C2036 1.386 . S
C2040 C2035 1.490 . S
C2040 C2042 1.395 . S
C2040 C2043 1.403 . S
H2041 C2047 0.930 . S
C2042 H2028 0.930 . S
C2042 C2040 1.395 . S
C2042 C2045 1.403 . S
C2043 C2040 1.403 . S
C2043 C2044 1.524 . S
C2043 C2047 1.400 . S
C2044 H2029 0.960 . S
C2044 H2030 0.960 . S
C2044 H2031 0.960 . S
C2044 C2043 1.524 . S
C2045 C2042 1.403 . S
C2045 C2046 1.392 . S
C2045 C2049 1.495 . S
C2046 C2045 1.392 . S
C2046 C2047 1.385 . S
C2046 C2048 1.478 . S
C2047 H2041 0.930 . S
C2047 C2043 1.400 . S
C2047 C2046 1.385 . S
C2048 C2046 1.478 . S
C2048 C2050 1.381 1_545 S
C2048 C2054 1.383 . S
C2049 C2045 1.495 . S
C2049 H2055 0.959 . S
C2049 H2056 0.961 . S
C2049 H2057 0.960 1_545 S
C2050 C2048 1.381 1_565 S
C2050 C2051 1.394 . S
C2050 H2058 0.930 . S
C2051 C2050 1.394 . S
C2051 C2052 1.362 1_565 S
C2051 H2059 0.929 . S
C2052 C2051 1.362 1_545 S
C2052 C2053 1.404 . S
C2053 H2037 0.930 . S
C2053 C2052 1.404 . S
C2053 C2054 1.379 . S
C2054 H2038 0.931 . S
C2054 C2048 1.383 . S
C2054 C2053 1.379 . S
H2055 C2049 0.959 . S
H2056 C2049 0.961 . S
H2057 C2049 0.960 1_565 S
H2058 C2050 0.930 . S
H2059 C2051 0.929 . S
H2060 C2068 0.929 . S
H2061 C2070 0.930 . S
H2062 C2072 0.930 . S
H2063 C2075 0.929 . S
H2064 C2078 0.930 . S
H2065 C2080 0.960 . S
H2066 C2080 0.960 . S
H2067 C2080 0.960 . S
C2068 H2060 0.929 . S
C2068 C2069 1.377 . S
C2068 C2070 1.384 . S
C2069 C2068 1.377 . S
C2069 C2075 1.390 . S
C2070 H2061 0.930 . S
C2070 C2068 1.384 . S
C2070 C2071 1.372 . S
C2071 C2070 1.372 . S
C2071 C2072 1.400 . S
C2071 C2076 1.490 . S
C2072 H2062 0.930 . S
C2072 C2071 1.400 . S
C2072 C2075 1.386 . S
H2073 C2089 0.930 . S
H2074 C2090 0.931 . S
C2075 H2063 0.929 . S
C2075 C2069 1.390 . S
C2075 C2072 1.386 . S
C2076 C2071 1.490 . S
C2076 C2078 1.395 . S
C2076 C2079 1.403 . S
H2077 C2083 0.930 . S
C2078 H2064 0.930 . S
C2078 C2076 1.395 . S
C2078 C2081 1.403 . S
C2079 C2076 1.403 . S
C2079 C2080 1.524 . S
C2079 C2083 1.400 . S
C2080 H2065 0.960 . S
C2080 H2066 0.960 . S
C2080 H2067 0.960 . S
C2080 C2079 1.524 . S
C2081 C2078 1.403 . S
C2081 C2082 1.392 . S
C2081 C2085 1.495 . S
C2082 C2081 1.392 . S
C2082 C2083 1.385 . S
C2082 C2084 1.478 . S
C2083 H2077 0.930 . S
C2083 C2079 1.400 . S
C2083 C2082 1.385 . S
C2084 C2082 1.478 . S
C2084 C2086 1.381 . S
C2084 C2090 1.383 . S
C2085 C2081 1.495 . S
C2085 H2091 0.959 . S
C2085 H2092 0.961 . S
C2085 H2093 0.960 . S
C2086 C2084 1.381 . S
C2086 C2087 1.394 . S
C2086 H2094 0.930 . S
C2087 C2086 1.394 . S
C2087 C2088 1.383 . S
C2087 H2095 0.929 . S
C2088 C2087 1.383 . S
C2088 C2089 1.377 . S
C2089 H2073 0.930 . S
C2089 C2088 1.377 . S
C2089 C2090 1.379 . S
C2090 H2074 0.931 . S
C2090 C2084 1.383 . S
C2090 C2089 1.379 . S
H2091 C2085 0.959 . S
H2092 C2085 0.961 . S
H2093 C2085 0.960 . S
H2094 C2086 0.930 . S
H2095 C2087 0.929 . S
H2096 C2104 0.929 . S
H2097 C2106 0.930 . S
H2098 C2108 0.930 1_556 S
H2099 C2111 0.929 1_556 S
H2100 C2114 0.930 . S
H2101 C2116 0.960 . S
H2102 C2116 0.960 . S
H2103 C2116 0.960 . S
C2104 H2096 0.929 . S
C2104 C2105 1.377 . S
C2104 C2106 1.384 . S
C2105 C2104 1.377 . S
C2105 C2111 1.390 . S
C2106 H2097 0.930 . S
C2106 C2104 1.384 . S
C2106 C2107 1.372 . S
C2107 C2106 1.372 . S
C2107 C2108 1.400 . S
C2107 C2112 1.490 . S
C2108 H2098 0.930 1_554 S
C2108 C2107 1.400 . S
C2108 C2111 1.386 . S
H2109 C2125 0.930 . S
H2110 C2126 0.931 . S
C2111 H2099 0.929 1_554 S
C2111 C2105 1.390 . S
C2111 C2108 1.386 . S
C2112 C2107 1.490 . S
C2112 C2114 1.395 . S
C2112 C2115 1.403 . S
H2113 C2119 0.930 . S
C2114 H2100 0.930 . S
C2114 C2112 1.395 . S
C2114 C2117 1.403 . S
C2115 C2112 1.403 . S
C2115 C2116 1.524 . S
C2115 C2119 1.400 . S
C2116 H2101 0.960 . S
C2116 H2102 0.960 . S
C2116 H2103 0.960 . S
C2116 C2115 1.524 . S
C2117 C2114 1.403 . S
C2117 C2118 1.392 . S
C2117 C2121 1.495 . S
C2118 C2117 1.392 . S
C2118 C2119 1.385 . S
C2118 C2120 1.478 . S
C2119 H2113 0.930 . S
C2119 C2115 1.400 . S
C2119 C2118 1.385 . S
C2120 C2118 1.478 . S
C2120 C2122 1.381 . S
C2120 C2126 1.383 1_554 S
C2121 C2117 1.495 . S
C2121 H2127 0.959 . S
C2121 H2128 0.961 1_554 S
C2121 H2129 0.960 . S
C2122 C2120 1.381 . S
C2122 C2123 1.394 . S
C2122 H2130 0.930 . S
C2123 C2122 1.394 . S
C2123 C2124 1.383 . S
C2123 H2131 0.929 . S
C2124 C2123 1.383 . S
C2124 C2125 1.377 1_554 S
C2125 H2109 0.930 . S
C2125 C2124 1.377 1_556 S
C2125 C2126 1.379 . S
C2126 H2110 0.931 . S
C2126 C2120 1.383 1_556 S
C2126 C2125 1.379 . S
H2127 C2121 0.959 . S
H2128 C2121 0.961 1_556 S
H2129 C2121 0.960 . S
H2130 C2122 0.930 . S
H2131 C2123 0.929 . S
H2132 C2140 0.929 . S
H2133 C2142 0.930 . S
H2134 C2144 0.930 . S
H2135 C2147 0.929 . S
H2136 C2150 0.930 . S
H2137 C2152 0.960 . S
H2138 C2152 0.960 . S
H2139 C2152 0.960 . S
C2140 H2132 0.929 . S
C2140 C2141 1.377 . S
C2140 C2142 1.384 . S
C2141 C2140 1.377 . S
C2141 C2147 1.390 . S
C2142 H2133 0.930 . S
C2142 C2140 1.384 . S
C2142 C2143 1.372 . S
C2143 C2142 1.372 . S
C2143 C2144 1.400 . S
C2143 C2148 1.490 . S
C2144 H2134 0.930 . S
C2144 C2143 1.400 . S
C2144 C2147 1.386 . S
H2145 C2161 0.930 . S
H2146 C2162 0.931 . S
C2147 H2135 0.929 . S
C2147 C2141 1.390 . S
C2147 C2144 1.386 . S
C2148 C2143 1.490 . S
C2148 C2150 1.395 . S
C2148 C2151 1.403 . S
H2149 C2155 0.930 . S
C2150 H2136 0.930 . S
C2150 C2148 1.395 . S
C2150 C2153 1.403 . S
C2151 C2148 1.403 . S
C2151 C2152 1.524 . S
C2151 C2155 1.400 . S
C2152 H2137 0.960 . S
C2152 H2138 0.960 . S
C2152 H2139 0.960 . S
C2152 C2151 1.524 . S
C2153 C2150 1.403 . S
C2153 C2154 1.392 . S
C2153 C2157 1.495 . S
C2154 C2153 1.392 . S
C2154 C2155 1.385 . S
C2154 C2156 1.478 . S
C2155 H2149 0.930 . S
C2155 C2151 1.400 . S
C2155 C2154 1.385 . S
C2156 C2154 1.478 . S
C2156 C2158 1.381 . S
C2156 C2162 1.383 . S
C2157 C2153 1.495 . S
C2157 H2163 0.959 1_554 S
C2157 H2164 0.961 1_554 S
C2157 H2165 0.960 . S
C2158 C2156 1.381 . S
C2158 C2159 1.394 . S
C2158 H2166 0.930 . S
C2159 C2158 1.394 . S
C2159 C2160 1.383 . S
C2159 H2167 0.929 . S
C2160 C2159 1.383 . S
C2160 C2161 1.377 . S
C2161 H2145 0.930 . S
C2161 C2160 1.377 . S
C2161 C2162 1.379 . S
C2162 H2146 0.931 . S
C2162 C2156 1.383 . S
C2162 C2161 1.379 . S
H2163 C2157 0.959 1_556 S
H2164 C2157 0.961 1_556 S
H2165 C2157 0.960 . S
H2166 C2158 0.930 . S
H2167 C2159 0.929 . S
H2168 C2176 0.929 . S
H2169 C2178 0.930 . S
H2170 C2180 0.930 . S
H2171 C2183 0.929 . S
H2172 C2186 0.930 . S
H2173 C2188 0.960 . S
H2174 C2188 0.960 . S
H2175 C2188 0.960 . S
C2176 H2168 0.929 . S
C2176 C2177 1.377 . S
C2176 C2178 1.384 . S
C2177 C2176 1.377 . S
C2177 C2183 1.390 . S
C2178 H2169 0.930 . S
C2178 C2176 1.384 . S
C2178 C2179 1.372 . S
C2179 C2178 1.372 . S
C2179 C2180 1.400 . S
C2179 C2184 1.490 . S
C2180 H2170 0.930 . S
C2180 C2179 1.400 . S
C2180 C2183 1.386 . S
H2181 C2197 0.930 . S
H2182 C2198 0.931 . S
C2183 H2171 0.929 . S
C2183 C2177 1.390 . S
C2183 C2180 1.386 . S
C2184 C2179 1.490 . S
C2184 C2186 1.395 . S
C2184 C2187 1.403 . S
H2185 C2191 0.930 . S
C2186 H2172 0.930 . S
C2186 C2184 1.395 . S
C2186 C2189 1.403 . S
C2187 C2184 1.403 . S
C2187 C2188 1.524 . S
C2187 C2191 1.400 . S
C2188 H2173 0.960 . S
C2188 H2174 0.960 . S
C2188 H2175 0.960 . S
C2188 C2187 1.524 . S
C2189 C2186 1.403 . S
C2189 C2190 1.392 . S
C2189 C2193 1.495 . S
C2190 C2189 1.392 . S
C2190 C2191 1.385 . S
C2190 C2192 1.478 . S
C2191 H2185 0.930 . S
C2191 C2187 1.400 . S
C2191 C2190 1.385 . S
C2192 C2190 1.478 . S
C2192 C2194 1.381 . S
C2192 C2198 1.383 . S
C2193 C2189 1.495 . S
C2193 H2199 0.959 . S
C2193 H2200 0.961 . S
C2193 H2201 0.960 . S
C2194 C2192 1.381 . S
C2194 C2195 1.394 . S
C2194 H2202 0.930 . S
C2195 C2194 1.394 . S
C2195 C2196 1.383 . S
C2195 H2203 0.929 . S
C2196 C2195 1.383 . S
C2196 C2197 1.377 . S
C2197 H2181 0.930 . S
C2197 C2196 1.377 . S
C2197 C2198 1.379 . S
C2198 H2182 0.931 . S
C2198 C2192 1.383 . S
C2198 C2197 1.379 . S
H2199 C2193 0.959 . S
H2200 C2193 0.961 . S
H2201 C2193 0.960 . S
H2202 C2194 0.930 . S
H2203 C2195 0.929 . S
H2204 C2212 0.929 . S
H2205 C2214 0.930 . S
H2206 C2216 0.930 . S
H2207 C2219 0.929 . S
H2208 C2222 0.930 . S
H2209 C2224 0.960 . S
H2210 C2224 0.960 . S
H2211 C2224 0.960 . S
C2212 H2204 0.929 . S
C2212 C2213 1.377 . S
C2212 C2214 1.384 . S
C2213 C2212 1.377 . S
C2213 C2219 1.390 . S
C2214 H2205 0.930 . S
C2214 C2212 1.384 . S
C2214 C2215 1.372 . S
C2215 C2214 1.372 . S
C2215 C2216 1.400 . S
C2215 C2220 1.490 . S
C2216 H2206 0.930 . S
C2216 C2215 1.400 . S
C2216 C2219 1.386 . S
H2217 C2233 0.930 . S
H2218 C2234 0.931 . S
C2219 H2207 0.929 . S
C2219 C2213 1.390 . S
C2219 C2216 1.386 . S
C2220 C2215 1.490 . S
C2220 C2222 1.395 . S
C2220 C2223 1.403 . S
H2221 C2227 0.930 . S
C2222 H2208 0.930 . S
C2222 C2220 1.395 . S
C2222 C2225 1.403 . S
C2223 C2220 1.403 . S
C2223 C2224 1.524 . S
C2223 C2227 1.400 . S
C2224 H2209 0.960 . S
C2224 H2210 0.960 . S
C2224 H2211 0.960 . S
C2224 C2223 1.524 . S
C2225 C2222 1.403 . S
C2225 C2226 1.392 . S
C2225 C2229 1.495 . S
C2226 C2225 1.392 . S
C2226 C2227 1.385 . S
C2226 C2228 1.478 . S
C2227 H2221 0.930 . S
C2227 C2223 1.400 . S
C2227 C2226 1.385 . S
C2228 C2226 1.478 . S
C2228 C2230 1.381 . S
C2228 C2234 1.383 . S
C2229 C2225 1.495 . S
C2229 H2235 0.959 . S
C2229 H2236 0.961 . S
C2229 H2237 0.960 . S
C2230 C2228 1.381 . S
C2230 C2231 1.394 . S
C2230 H2238 0.930 . S
C2231 C2230 1.394 . S
C2231 C2232 1.383 . S
C2231 H2239 0.929 . S
C2232 C2231 1.383 . S
C2232 C2233 1.377 . S
C2233 H2217 0.930 . S
C2233 C2232 1.377 . S
C2233 C2234 1.379 . S
C2234 H2218 0.931 . S
C2234 C2228 1.383 . S
C2234 C2233 1.379 . S
H2235 C2229 0.959 . S
H2236 C2229 0.961 . S
H2237 C2229 0.960 . S
H2238 C2230 0.930 . S
H2239 C2231 0.929 . S
H2240 C2248 0.929 . S
H2241 C2250 0.930 . S
H2242 C2252 0.930 . S
H2243 C2255 0.929 . S
H2244 C2258 0.930 . S
H2245 C2260 0.960 . S
H2246 C2260 0.960 . S
H2247 C2260 0.960 . S
C2248 H2240 0.929 . S
C2248 C2249 1.377 . S
C2248 C2250 1.384 . S
C2249 C2248 1.377 . S
C2249 C2255 1.390 . S
C2250 H2241 0.930 . S
C2250 C2248 1.384 . S
C2250 C2251 1.372 . S
C2251 C2250 1.372 . S
C2251 C2252 1.400 . S
C2251 C2256 1.490 . S
C2252 H2242 0.930 . S
C2252 C2251 1.400 . S
C2252 C2255 1.386 . S
H2253 C2269 0.930 . S
H2254 C2270 0.931 . S
C2255 H2243 0.929 . S
C2255 C2249 1.390 . S
C2255 C2252 1.386 . S
C2256 C2251 1.490 . S
C2256 C2258 1.395 . S
C2256 C2259 1.403 . S
H2257 C2263 0.930 . S
C2258 H2244 0.930 . S
C2258 C2256 1.395 . S
C2258 C2261 1.403 . S
C2259 C2256 1.403 . S
C2259 C2260 1.524 . S
C2259 C2263 1.400 . S
C2260 H2245 0.960 . S
C2260 H2246 0.960 . S
C2260 H2247 0.960 . S
C2260 C2259 1.524 . S
C2261 C2258 1.403 . S
C2261 C2262 1.392 . S
C2261 C2265 1.495 . S
C2262 C2261 1.392 . S
C2262 C2263 1.385 . S
C2262 C2264 1.478 . S
C2263 H2257 0.930 . S
C2263 C2259 1.400 . S
C2263 C2262 1.385 . S
C2264 C2262 1.478 . S
C2264 C2266 1.381 . S
C2264 C2270 1.383 . S
C2265 C2261 1.495 . S
C2265 H2271 0.959 . S
C2265 H2272 0.961 . S
C2265 H2273 0.960 . S
C2266 C2264 1.381 . S
C2266 C2267 1.394 . S
C2266 H2274 0.930 . S
C2267 C2266 1.394 . S
C2267 C2268 1.383 . S
C2267 H2275 0.929 . S
C2268 C2267 1.383 . S
C2268 C2269 1.377 . S
C2269 H2253 0.930 . S
C2269 C2268 1.377 . S
C2269 C2270 1.379 . S
C2270 H2254 0.931 . S
C2270 C2264 1.383 . S
C2270 C2269 1.379 . S
H2271 C2265 0.959 . S
H2272 C2265 0.961 . S
H2273 C2265 0.960 . S
H2274 C2266 0.930 . S
H2275 C2267 0.929 . S
H2276 C2284 0.929 . S
H2277 C2286 0.930 . S
H2278 C2288 0.930 . S
H2279 C2291 0.929 . S
H2280 C2294 0.930 . S
H2281 C2296 0.960 . S
H2282 C2296 0.960 . S
H2283 C2296 0.960 . S
C2284 H2276 0.929 . S
C2284 C2285 1.377 . S
C2284 C2286 1.384 . S
C2285 C2284 1.377 . S
C2285 C2291 1.390 . S
C2286 H2277 0.930 . S
C2286 C2284 1.384 . S
C2286 C2287 1.372 . S
C2287 C2286 1.372 . S
C2287 C2288 1.400 . S
C2287 C2292 1.490 . S
C2288 H2278 0.930 . S
C2288 C2287 1.400 . S
C2288 C2291 1.386 . S
H2289 C2305 0.930 . S
H2290 C2306 0.931 . S
C2291 H2279 0.929 . S
C2291 C2285 1.390 . S
C2291 C2288 1.386 . S
C2292 C2287 1.490 . S
C2292 C2294 1.395 . S
C2292 C2295 1.403 . S
H2293 C2299 0.930 . S
C2294 H2280 0.930 . S
C2294 C2292 1.395 . S
C2294 C2297 1.403 . S
C2295 C2292 1.403 . S
C2295 C2296 1.524 . S
C2295 C2299 1.400 . S
C2296 H2281 0.960 . S
C2296 H2282 0.960 . S
C2296 H2283 0.960 . S
C2296 C2295 1.524 . S
C2297 C2294 1.403 . S
C2297 C2298 1.392 . S
C2297 C2301 1.495 . S
C2298 C2297 1.392 . S
C2298 C2299 1.385 . S
C2298 C2300 1.478 . S
C2299 H2293 0.930 . S
C2299 C2295 1.400 . S
C2299 C2298 1.385 . S
C2300 C2298 1.478 . S
C2300 C2302 1.381 . S
C2300 C2306 1.383 . S
C2301 C2297 1.495 . S
C2301 H2307 0.959 . S
C2301 H2308 0.961 . S
C2301 H2309 0.960 . S
C2302 C2300 1.381 . S
C2302 C2303 1.394 . S
C2302 H2310 0.930 . S
C2303 C2302 1.394 . S
C2303 C2304 1.383 . S
C2303 H2311 0.929 1_565 S
C2304 C2303 1.383 . S
C2304 C2305 1.377 . S
C2305 H2289 0.930 . S
C2305 C2304 1.377 . S
C2305 C2306 1.379 . S
C2306 H2290 0.931 . S
C2306 C2300 1.383 . S
C2306 C2305 1.379 . S
H2307 C2301 0.959 . S
H2308 C2301 0.961 . S
H2309 C2301 0.960 . S
H2310 C2302 0.930 . S
H2311 C2303 0.929 1_545 S
H2312 C2320 0.929 . S
H2313 C2322 0.930 . S
H2314 C2324 0.930 . S
H2315 C2327 0.929 . S
H2316 C2330 0.930 . S
H2317 C2332 0.960 . S
H2318 C2332 0.960 . S
H2319 C2332 0.960 . S
C2320 H2312 0.929 . S
C2320 C2321 1.377 . S
C2320 C2322 1.384 . S
C2321 C2320 1.377 . S
C2321 C2327 1.390 . S
C2322 H2313 0.930 . S
C2322 C2320 1.384 . S
C2322 C2323 1.372 . S
C2323 C2322 1.372 . S
C2323 C2324 1.400 . S
C2323 C2328 1.490 . S
C2324 H2314 0.930 . S
C2324 C2323 1.400 . S
C2324 C2327 1.386 . S
H2325 C2341 0.930 . S
H2326 C2342 0.931 . S
C2327 H2315 0.929 . S
C2327 C2321 1.390 . S
C2327 C2324 1.386 . S
C2328 C2323 1.490 . S
C2328 C2330 1.395 . S
C2328 C2331 1.403 . S
H2329 C2335 0.930 . S
C2330 H2316 0.930 . S
C2330 C2328 1.395 . S
C2330 C2333 1.403 . S
C2331 C2328 1.403 . S
C2331 C2332 1.524 . S
C2331 C2335 1.400 . S
C2332 H2317 0.960 . S
C2332 H2318 0.960 . S
C2332 H2319 0.960 . S
C2332 C2331 1.524 . S
C2333 C2330 1.403 . S
C2333 C2334 1.392 . S
C2333 C2337 1.495 . S
C2334 C2333 1.392 . S
C2334 C2335 1.385 . S
C2334 C2336 1.478 . S
C2335 H2329 0.930 . S
C2335 C2331 1.400 . S
C2335 C2334 1.385 . S
C2336 C2334 1.478 . S
C2336 C2338 1.381 . S
C2336 C2342 1.383 . S
C2337 C2333 1.495 . S
C2337 H2343 0.959 . S
C2337 H2344 0.961 . S
C2337 H2345 0.960 . S
C2338 C2336 1.381 . S
C2338 C2339 1.394 . S
C2338 H2346 0.930 . S
C2339 C2338 1.394 . S
C2339 C2340 1.383 . S
C2339 H2347 0.929 . S
C2340 C2339 1.383 . S
C2340 C2341 1.377 . S
C2341 H2325 0.930 . S
C2341 C2340 1.377 . S
C2341 C2342 1.379 . S
C2342 H2326 0.931 . S
C2342 C2336 1.383 . S
C2342 C2341 1.379 . S
H2343 C2337 0.959 . S
H2344 C2337 0.961 . S
H2345 C2337 0.960 . S
H2346 C2338 0.930 . S
H2347 C2339 0.929 . S
H2348 C2356 0.929 . S
H2349 C2358 0.930 . S
H2350 C2360 0.930 . S
H2351 C2363 0.929 . S
H2352 C2366 0.930 . S
H2353 C2368 0.960 . S
H2354 C2368 0.960 . S
H2355 C2368 0.960 . S
C2356 H2348 0.929 . S
C2356 C2357 1.377 . S
C2356 C2358 1.384 . S
C2357 C2356 1.377 . S
C2357 C2363 1.390 . S
C2358 H2349 0.930 . S
C2358 C2356 1.384 . S
C2358 C2359 1.372 . S
C2359 C2358 1.372 . S
C2359 C2360 1.400 . S
C2359 C2364 1.490 . S
C2360 H2350 0.930 . S
C2360 C2359 1.400 . S
C2360 C2363 1.386 . S
H2361 C2377 0.930 . S
H2362 C2378 0.931 . S
C2363 H2351 0.929 . S
C2363 C2357 1.390 . S
C2363 C2360 1.386 . S
C2364 C2359 1.490 . S
C2364 C2366 1.395 . S
C2364 C2367 1.403 . S
H2365 C2371 0.930 . S
C2366 H2352 0.930 . S
C2366 C2364 1.395 . S
C2366 C2369 1.403 . S
C2367 C2364 1.403 . S
C2367 C2368 1.524 . S
C2367 C2371 1.400 . S
C2368 H2353 0.960 . S
C2368 H2354 0.960 . S
C2368 H2355 0.960 . S
C2368 C2367 1.524 . S
C2369 C2366 1.403 . S
C2369 C2370 1.392 . S
C2369 C2373 1.495 . S
C2370 C2369 1.392 . S
C2370 C2371 1.385 . S
C2370 C2372 1.478 . S
C2371 H2365 0.930 . S
C2371 C2367 1.400 . S
C2371 C2370 1.385 . S
C2372 C2370 1.478 . S
C2372 C2374 1.381 . S
C2372 C2378 1.383 . S
C2373 C2369 1.495 . S
C2373 H2379 0.959 . S
C2373 H2380 0.961 . S
C2373 H2381 0.960 . S
C2374 C2372 1.381 . S
C2374 C2375 1.394 . S
C2374 H2382 0.930 . S
C2375 C2374 1.394 . S
C2375 C2376 1.383 . S
C2375 H2383 0.929 . S
C2376 C2375 1.383 . S
C2376 C2377 1.377 . S
C2377 H2361 0.930 . S
C2377 C2376 1.377 . S
C2377 C2378 1.379 . S
C2378 H2362 0.931 . S
C2378 C2372 1.383 . S
C2378 C2377 1.379 . S
H2379 C2373 0.959 . S
H2380 C2373 0.961 . S
H2381 C2373 0.960 . S
H2382 C2374 0.930 . S
H2383 C2375 0.929 . S
H2384 C2392 0.929 . S
H2385 C2394 0.930 . S
H2386 C2396 0.930 . S
H2387 C2399 0.929 . S
H2388 C2402 0.930 . S
H2389 C2404 0.960 . S
H2390 C2404 0.960 . S
H2391 C2404 0.960 . S
C2392 H2384 0.929 . S
C2392 C2393 1.377 . S
C2392 C2394 1.384 . S
C2393 C2392 1.377 . S
C2393 C2399 1.390 . S
C2394 H2385 0.930 . S
C2394 C2392 1.384 . S
C2394 C2395 1.372 . S
C2395 C2394 1.372 . S
C2395 C2396 1.400 . S
C2395 C2400 1.490 . S
C2396 H2386 0.930 . S
C2396 C2395 1.400 . S
C2396 C2399 1.386 . S
H2397 C2413 0.930 . S
H2398 C2414 0.931 . S
C2399 H2387 0.929 . S
C2399 C2393 1.390 . S
C2399 C2396 1.386 . S
C2400 C2395 1.490 . S
C2400 C2402 1.395 . S
C2400 C2403 1.403 . S
H2401 C2407 0.930 . S
C2402 H2388 0.930 . S
C2402 C2400 1.395 . S
C2402 C2405 1.403 . S
C2403 C2400 1.403 . S
C2403 C2404 1.524 . S
C2403 C2407 1.400 . S
C2404 H2389 0.960 . S
C2404 H2390 0.960 . S
C2404 H2391 0.960 . S
C2404 C2403 1.524 . S
C2405 C2402 1.403 . S
C2405 C2406 1.392 . S
C2405 C2409 1.495 . S
C2406 C2405 1.392 . S
C2406 C2407 1.385 . S
C2406 C2408 1.478 . S
C2407 H2401 0.930 . S
C2407 C2403 1.400 . S
C2407 C2406 1.385 . S
C2408 C2406 1.478 . S
C2408 C2410 1.381 . S
C2408 C2414 1.383 . S
C2409 C2405 1.495 . S
C2409 H2415 0.959 . S
C2409 H2416 0.961 . S
C2409 H2417 0.960 . S
C2410 C2408 1.381 . S
C2410 C2411 1.394 . S
C2410 H2418 0.930 . S
C2411 C2410 1.394 . S
C2411 C2412 1.383 . S
C2411 H2419 0.929 . S
C2412 C2411 1.383 . S
C2412 C2413 1.377 . S
C2413 H2397 0.930 . S
C2413 C2412 1.377 . S
C2413 C2414 1.379 . S
C2414 H2398 0.931 . S
C2414 C2408 1.383 . S
C2414 C2413 1.379 . S
H2415 C2409 0.959 . S
H2416 C2409 0.961 . S
H2417 C2409 0.960 . S
H2418 C2410 0.930 . S
H2419 C2411 0.929 . S
H2420 C2428 0.929 . S
H2421 C2430 0.930 . S
H2422 C2432 0.930 . S
H2423 C2435 0.929 . S
H2424 C2438 0.930 . S
H2425 C2440 0.960 . S
H2426 C2440 0.960 . S
H2427 C2440 0.960 . S
C2428 H2420 0.929 . S
C2428 C2429 1.377 . S
C2428 C2430 1.384 . S
C2429 C2428 1.377 . S
C2429 C2435 1.390 . S
C2430 H2421 0.930 . S
C2430 C2428 1.384 . S
C2430 C2431 1.372 . S
C2431 C2430 1.372 . S
C2431 C2432 1.400 . S
C2431 C2436 1.490 . S
C2432 H2422 0.930 . S
C2432 C2431 1.400 . S
C2432 C2435 1.386 . S
H2433 C2449 0.930 . S
H2434 C2450 0.931 . S
C2435 H2423 0.929 . S
C2435 C2429 1.390 . S
C2435 C2432 1.386 . S
C2436 C2431 1.490 . S
C2436 C2438 1.395 . S
C2436 C2439 1.403 . S
H2437 C2443 0.930 . S
C2438 H2424 0.930 . S
C2438 C2436 1.395 . S
C2438 C2441 1.403 . S
C2439 C2436 1.403 . S
C2439 C2440 1.524 . S
C2439 C2443 1.400 . S
C2440 H2425 0.960 . S
C2440 H2426 0.960 . S
C2440 H2427 0.960 . S
C2440 C2439 1.524 . S
C2441 C2438 1.403 . S
C2441 C2442 1.392 . S
C2441 C2445 1.495 . S
C2442 C2441 1.392 . S
C2442 C2443 1.385 . S
C2442 C2444 1.478 . S
C2443 H2437 0.930 . S
C2443 C2439 1.400 . S
C2443 C2442 1.385 . S
C2444 C2442 1.478 . S
C2444 C2446 1.381 . S
C2444 C2450 1.383 . S
C2445 C2441 1.495 . S
C2445 H2451 0.959 . S
C2445 H2452 0.961 . S
C2445 H2453 0.960 . S
C2446 C2444 1.381 . S
C2446 C2447 1.394 . S
C2446 H2454 0.930 . S
C2447 C2446 1.394 . S
C2447 C2448 1.383 . S
C2447 H2455 0.929 . S
C2448 C2447 1.383 . S
C2448 C2449 1.377 . S
C2449 H2433 0.930 . S
C2449 C2448 1.377 . S
C2449 C2450 1.379 . S
C2450 H2434 0.931 . S
C2450 C2444 1.383 . S
C2450 C2449 1.379 . S
H2451 C2445 0.959 . S
H2452 C2445 0.961 . S
H2453 C2445 0.960 . S
H2454 C2446 0.930 . S
H2455 C2447 0.929 . S
H2456 C2464 0.929 . S
H2457 C2466 0.930 . S
H2458 C2468 0.930 . S
H2459 C2471 0.929 . S
H2460 C2474 0.930 . S
H2461 C2476 0.960 . S
H2462 C2476 0.960 . S
H2463 C2476 0.960 . S
C2464 H2456 0.929 . S
C2464 C2465 1.377 . S
C2464 C2466 1.384 . S
C2465 C2464 1.377 . S
C2465 C2471 1.390 1_455 S
C2466 H2457 0.930 . S
C2466 C2464 1.384 . S
C2466 C2467 1.372 . S
C2467 C2466 1.372 . S
C2467 C2468 1.400 1_455 S
C2467 C2472 1.490 . S
C2468 H2458 0.930 . S
C2468 C2467 1.400 1_655 S
C2468 C2471 1.386 . S
H2469 C2485 0.930 . S
H2470 C2486 0.931 . S
C2471 H2459 0.929 . S
C2471 C2465 1.390 1_655 S
C2471 C2468 1.386 . S
C2472 C2467 1.490 . S
C2472 C2474 1.395 . S
C2472 C2475 1.403 1_455 S
H2473 C2479 0.930 . S
C2474 H2460 0.930 . S
C2474 C2472 1.395 . S
C2474 C2477 1.403 . S
C2475 C2472 1.403 1_655 S
C2475 C2476 1.524 . S
C2475 C2479 1.400 . S
C2476 H2461 0.960 . S
C2476 H2462 0.960 . S
C2476 H2463 0.960 . S
C2476 C2475 1.524 . S
C2477 C2474 1.403 . S
C2477 C2478 1.392 . S
C2477 C2481 1.495 . S
C2478 C2477 1.392 . S
C2478 C2479 1.385 1_455 S
C2478 C2480 1.478 . S
C2479 H2473 0.930 . S
C2479 C2475 1.400 . S
C2479 C2478 1.385 1_655 S
C2480 C2478 1.478 . S
C2480 C2482 1.381 1_556 S
C2480 C2486 1.383 1_455 S
C2481 C2477 1.495 . S
C2481 H2487 0.959 . S
C2481 H2488 0.961 . S
C2481 H2489 0.960 . S
C2482 C2480 1.381 1_554 S
C2482 C2483 1.394 . S
C2482 H2490 0.930 . S
C2483 C2482 1.394 . S
C2483 C2484 1.383 . S
C2483 H2491 0.929 . S
C2484 C2483 1.383 . S
C2484 C2485 1.377 1_454 S
C2485 H2469 0.930 . S
C2485 C2484 1.377 1_656 S
C2485 C2486 1.379 . S
C2486 H2470 0.931 . S
C2486 C2480 1.383 1_655 S
C2486 C2485 1.379 . S
H2487 C2481 0.959 . S
H2488 C2481 0.961 . S
H2489 C2481 0.960 . S
H2490 C2482 0.930 . S
H2491 C2483 0.929 . S
H2492 C2500 0.929 . S
H2493 C2502 0.930 . S
H2494 C2504 0.930 . S
H2495 C2507 0.929 . S
H2496 C2510 0.930 . S
H2497 C2512 0.960 . S
H2498 C2512 0.960 . S
H2499 C2512 0.960 . S
C2500 H2492 0.929 . S
C2500 C2501 1.377 . S
C2500 C2502 1.384 . S
C2501 C2500 1.377 . S
C2501 C2507 1.390 . S
C2502 H2493 0.930 . S
C2502 C2500 1.384 . S
C2502 C2503 1.372 . S
C2503 C2502 1.372 . S
C2503 C2504 1.400 . S
C2503 C2508 1.490 . S
C2504 H2494 0.930 . S
C2504 C2503 1.400 . S
C2504 C2507 1.386 . S
H2505 C2521 0.930 . S
H2506 C2522 0.931 . S
C2507 H2495 0.929 . S
C2507 C2501 1.390 . S
C2507 C2504 1.386 . S
C2508 C2503 1.490 . S
C2508 C2510 1.395 . S
C2508 C2511 1.403 . S
H2509 C2515 0.930 . S
C2510 H2496 0.930 . S
C2510 C2508 1.395 . S
C2510 C2513 1.403 . S
C2511 C2508 1.403 . S
C2511 C2512 1.524 . S
C2511 C2515 1.400 . S
C2512 H2497 0.960 . S
C2512 H2498 0.960 . S
C2512 H2499 0.960 . S
C2512 C2511 1.524 . S
C2513 C2510 1.403 . S
C2513 C2514 1.392 . S
C2513 C2517 1.495 . S
C2514 C2513 1.392 . S
C2514 C2515 1.385 . S
C2514 C2516 1.478 . S
C2515 H2509 0.930 . S
C2515 C2511 1.400 . S
C2515 C2514 1.385 . S
C2516 C2514 1.478 . S
C2516 C2518 1.381 . S
C2516 C2522 1.383 . S
C2517 C2513 1.495 . S
C2517 H2523 0.959 . S
C2517 H2524 0.961 . S
C2517 H2525 0.960 . S
C2518 C2516 1.381 . S
C2518 C2519 1.394 . S
C2518 H2526 0.930 . S
C2519 C2518 1.394 . S
C2519 C2520 1.383 . S
C2519 H2527 0.929 . S
C2520 C2519 1.383 . S
C2520 C2521 1.377 . S
C2521 H2505 0.930 . S
C2521 C2520 1.377 . S
C2521 C2522 1.379 . S
C2522 H2506 0.931 . S
C2522 C2516 1.383 . S
C2522 C2521 1.379 . S
H2523 C2517 0.959 . S
H2524 C2517 0.961 . S
H2525 C2517 0.960 . S
H2526 C2518 0.930 . S
H2527 C2519 0.929 . S
H2528 C2536 0.929 . S
H2529 C2538 0.930 . S
H2530 C2540 0.930 . S
H2531 C2543 0.929 . S
H2532 C2546 0.930 . S
H2533 C2548 0.960 . S
H2534 C2548 0.960 . S
H2535 C2548 0.960 . S
C2536 H2528 0.929 . S
C2536 C2537 1.377 . S
C2536 C2538 1.384 . S
C2537 C2536 1.377 . S
C2537 C2543 1.390 . S
C2538 H2529 0.930 . S
C2538 C2536 1.384 . S
C2538 C2539 1.372 . S
C2539 C2538 1.372 . S
C2539 C2540 1.400 . S
C2539 C2544 1.490 . S
C2540 H2530 0.930 . S
C2540 C2539 1.400 . S
C2540 C2543 1.386 . S
H2541 C2557 0.930 . S
H2542 C2558 0.931 . S
C2543 H2531 0.929 . S
C2543 C2537 1.390 . S
C2543 C2540 1.386 . S
C2544 C2539 1.490 . S
C2544 C2546 1.395 . S
C2544 C2547 1.403 . S
H2545 C2551 0.930 . S
C2546 H2532 0.930 . S
C2546 C2544 1.395 . S
C2546 C2549 1.403 . S
C2547 C2544 1.403 . S
C2547 C2548 1.524 . S
C2547 C2551 1.400 . S
C2548 H2533 0.960 . S
C2548 H2534 0.960 . S
C2548 H2535 0.960 . S
C2548 C2547 1.524 . S
C2549 C2546 1.403 . S
C2549 C2550 1.392 . S
C2549 C2553 1.495 . S
C2550 C2549 1.392 . S
C2550 C2551 1.385 . S
C2550 C2552 1.478 . S
C2551 H2545 0.930 . S
C2551 C2547 1.400 . S
C2551 C2550 1.385 . S
C2552 C2550 1.478 . S
C2552 C2554 1.381 . S
C2552 C2558 1.383 . S
C2553 C2549 1.495 . S
C2553 H2559 0.959 . S
C2553 H2560 0.961 . S
C2553 H2561 0.960 . S
C2554 C2552 1.381 . S
C2554 C2555 1.394 . S
C2554 H2562 0.930 . S
C2555 C2554 1.394 . S
C2555 C2556 1.383 . S
C2555 H2563 0.929 . S
C2556 C2555 1.383 . S
C2556 C2557 1.377 . S
C2557 H2541 0.930 . S
C2557 C2556 1.377 . S
C2557 C2558 1.379 . S
C2558 H2542 0.931 . S
C2558 C2552 1.383 . S
C2558 C2557 1.379 . S
H2559 C2553 0.959 . S
H2560 C2553 0.961 . S
H2561 C2553 0.960 . S
H2562 C2554 0.930 . S
H2563 C2555 0.929 . S
H2564 C2572 0.929 . S
H2565 C2574 0.930 . S
H2566 C2576 0.930 . S
H2567 C2579 0.929 . S
H2568 C2582 0.930 . S
H2569 C2584 0.960 . S
H2570 C2584 0.960 . S
H2571 C2584 0.960 . S
C2572 H2564 0.929 . S
C2572 C2573 1.377 . S
C2572 C2574 1.384 . S
C2573 C2572 1.377 . S
C2573 C2579 1.390 . S
C2574 H2565 0.930 . S
C2574 C2572 1.384 . S
C2574 C2575 1.372 . S
C2575 C2574 1.372 . S
C2575 C2576 1.400 . S
C2575 C2580 1.490 . S
C2576 H2566 0.930 . S
C2576 C2575 1.400 . S
C2576 C2579 1.386 . S
H2577 C2593 0.930 . S
H2578 C2594 0.931 . S
C2579 H2567 0.929 . S
C2579 C2573 1.390 . S
C2579 C2576 1.386 . S
C2580 C2575 1.490 . S
C2580 C2582 1.395 . S
C2580 C2583 1.403 . S
H2581 C2587 0.930 . S
C2582 H2568 0.930 . S
C2582 C2580 1.395 . S
C2582 C2585 1.403 . S
C2583 C2580 1.403 . S
C2583 C2584 1.524 . S
C2583 C2587 1.400 . S
C2584 H2569 0.960 . S
C2584 H2570 0.960 . S
C2584 H2571 0.960 . S
C2584 C2583 1.524 . S
C2585 C2582 1.403 . S
C2585 C2586 1.392 . S
C2585 C2589 1.495 . S
C2586 C2585 1.392 . S
C2586 C2587 1.385 . S
C2586 C2588 1.478 . S
C2587 H2581 0.930 . S
C2587 C2583 1.400 . S
C2587 C2586 1.385 . S
C2588 C2586 1.478 . S
C2588 C2590 1.381 . S
C2588 C2594 1.383 . S
C2589 C2585 1.495 . S
C2589 H2595 0.959 . S
C2589 H2596 0.961 . S
C2589 H2597 0.960 . S
C2590 C2588 1.381 . S
C2590 C2591 1.394 . S
C2590 H2598 0.930 . S
C2591 C2590 1.394 . S
C2591 C2592 1.383 . S
C2591 H2599 0.929 . S
C2592 C2591 1.383 . S
C2592 C2593 1.377 . S
C2593 H2577 0.930 . S
C2593 C2592 1.377 . S
C2593 C2594 1.379 . S
C2594 H2578 0.931 . S
C2594 C2588 1.383 . S
C2594 C2593 1.379 . S
H2595 C2589 0.959 . S
H2596 C2589 0.961 . S
H2597 C2589 0.960 . S
H2598 C2590 0.930 . S
H2599 C2591 0.929 . S
H2600 C2608 0.931 . S
H2601 C2610 0.928 . S
H2602 C2612 0.928 . S
H2603 C2615 0.929 . S
H2604 C2618 0.930 . S
H2605 C2620 0.960 . S
H2606 C2620 0.960 . S
H2607 C2620 0.960 . S
C2608 H2600 0.931 . S
C2608 C2609 1.387 . S
C2608 C2610 1.378 . S
C2609 C2608 1.387 . S
C2609 C2615 1.390 . S
C2610 H2601 0.928 . S
C2610 C2608 1.378 . S
C2610 C2611 1.372 . S
C2611 C2610 1.372 . S
C2611 C2612 1.397 . S
C2611 C2616 1.490 . S
C2612 H2602 0.928 . S
C2612 C2611 1.397 . S
C2612 C2615 1.400 . S
H2613 C2629 0.930 . S
H2614 C2630 0.931 . S
C2615 H2603 0.929 . S
C2615 C2609 1.390 . S
C2615 C2612 1.400 . S
C2616 C2611 1.490 . S
C2616 C2618 1.416 . S
C2616 C2619 1.375 1_655 S
H2617 C2623 0.930 . S
C2618 H2604 0.930 . S
C2618 C2616 1.416 . S
C2618 C2621 1.403 . S
C2619 C2616 1.375 1_455 S
C2619 C2620 1.524 . S
C2619 C2623 1.400 . S
C2620 H2605 0.960 . S
C2620 H2606 0.960 . S
C2620 H2607 0.960 . S
C2620 C2619 1.524 . S
C2621 C2618 1.403 . S
C2621 C2622 1.392 . S
C2621 C2625 1.495 . S
C2622 C2621 1.392 . S
C2622 C2623 1.385 1_655 S
C2622 C2624 1.478 . S
C2623 H2617 0.930 . S
C2623 C2619 1.400 . S
C2623 C2622 1.385 1_455 S
C2624 C2622 1.478 . S
C2624 C2626 1.366 1_655 S
C2624 C2630 1.383 . S
C2625 C2621 1.495 . S
C2625 H2631 0.959 . S
C2625 H2632 0.961 . S
C2625 H2633 0.960 . S
C2626 C2624 1.366 1_455 S
C2626 C2627 1.415 . S
C2626 H2634 0.930 . S
C2627 C2626 1.415 . S
C2627 C2628 1.383 . S
C2627 H2635 0.929 . S
C2628 C2627 1.383 . S
C2628 C2629 1.377 1_455 S
C2629 H2613 0.930 . S
C2629 C2628 1.377 1_655 S
C2629 C2630 1.379 . S
C2630 H2614 0.931 . S
C2630 C2624 1.383 . S
C2630 C2629 1.379 . S
H2631 C2625 0.959 . S
H2632 C2625 0.961 . S
H2633 C2625 0.960 . S
H2634 C2626 0.930 . S
H2635 C2627 0.929 . S
H2636 C2644 0.929 . S
H2637 C2646 0.930 . S
H2638 C2648 0.930 . S
H2639 C2651 0.929 . S
H2640 C2654 0.930 . S
H2641 C2656 0.960 . S
H2642 C2656 0.960 . S
H2643 C2656 0.960 . S
C2644 H2636 0.929 . S
C2644 C2645 1.377 . S
C2644 C2646 1.384 . S
C2645 C2644 1.377 . S
C2645 C2651 1.390 . S
C2646 H2637 0.930 . S
C2646 C2644 1.384 . S
C2646 C2647 1.372 . S
C2647 C2646 1.372 . S
C2647 C2648 1.400 . S
C2647 C2652 1.490 . S
C2648 H2638 0.930 . S
C2648 C2647 1.400 . S
C2648 C2651 1.386 . S
H2649 C2665 0.930 . S
H2650 C2666 0.931 . S
C2651 H2639 0.929 . S
C2651 C2645 1.390 . S
C2651 C2648 1.386 . S
C2652 C2647 1.490 . S
C2652 C2654 1.395 . S
C2652 C2655 1.403 . S
H2653 C2659 0.930 . S
C2654 H2640 0.930 . S
C2654 C2652 1.395 . S
C2654 C2657 1.403 . S
C2655 C2652 1.403 . S
C2655 C2656 1.524 . S
C2655 C2659 1.400 . S
C2656 H2641 0.960 . S
C2656 H2642 0.960 . S
C2656 H2643 0.960 . S
C2656 C2655 1.524 . S
C2657 C2654 1.403 . S
C2657 C2658 1.392 . S
C2657 C2661 1.495 . S
C2658 C2657 1.392 . S
C2658 C2659 1.385 . S
C2658 C2660 1.478 . S
C2659 H2653 0.930 . S
C2659 C2655 1.400 . S
C2659 C2658 1.385 . S
C2660 C2658 1.478 . S
C2660 C2662 1.381 . S
C2660 C2666 1.383 . S
C2661 C2657 1.495 . S
C2661 H2667 0.959 . S
C2661 H2668 0.961 . S
C2661 H2669 0.960 . S
C2662 C2660 1.381 . S
C2662 C2663 1.394 . S
C2662 H2670 0.930 . S
C2663 C2662 1.394 . S
C2663 C2664 1.383 . S
C2663 H2671 0.929 . S
C2664 C2663 1.383 . S
C2664 C2665 1.377 . S
C2665 H2649 0.930 . S
C2665 C2664 1.377 . S
C2665 C2666 1.379 . S
C2666 H2650 0.931 . S
C2666 C2660 1.383 . S
C2666 C2665 1.379 . S
H2667 C2661 0.959 . S
H2668 C2661 0.961 . S
H2669 C2661 0.960 . S
H2670 C2662 0.930 . S
H2671 C2663 0.929 . S
H2672 C2680 0.929 . S
H2673 C2682 0.930 . S
H2674 C2684 0.930 . S
H2675 C2687 0.929 . S
H2676 C2690 0.930 . S
H2677 C2692 0.960 . S
H2678 C2692 0.960 . S
H2679 C2692 0.960 . S
C2680 H2672 0.929 . S
C2680 C2681 1.377 . S
C2680 C2682 1.384 . S
C2681 C2680 1.377 . S
C2681 C2687 1.390 . S
C2682 H2673 0.930 . S
C2682 C2680 1.384 . S
C2682 C2683 1.372 . S
C2683 C2682 1.372 . S
C2683 C2684 1.400 . S
C2683 C2688 1.490 . S
C2684 H2674 0.930 . S
C2684 C2683 1.400 . S
C2684 C2687 1.386 . S
H2685 C2701 0.930 . S
H2686 C2702 0.931 . S
C2687 H2675 0.929 . S
C2687 C2681 1.390 . S
C2687 C2684 1.386 . S
C2688 C2683 1.490 . S
C2688 C2690 1.395 . S
C2688 C2691 1.403 . S
H2689 C2695 0.930 . S
C2690 H2676 0.930 . S
C2690 C2688 1.395 . S
C2690 C2693 1.403 . S
C2691 C2688 1.403 . S
C2691 C2692 1.524 . S
C2691 C2695 1.400 . S
C2692 H2677 0.960 . S
C2692 H2678 0.960 . S
C2692 H2679 0.960 . S
C2692 C2691 1.524 . S
C2693 C2690 1.403 . S
C2693 C2694 1.392 . S
C2693 C2697 1.495 . S
C2694 C2693 1.392 . S
C2694 C2695 1.385 . S
C2694 C2696 1.478 . S
C2695 H2689 0.930 . S
C2695 C2691 1.400 . S
C2695 C2694 1.385 . S
C2696 C2694 1.478 . S
C2696 C2698 1.381 . S
C2696 C2702 1.383 . S
C2697 C2693 1.495 . S
C2697 H2703 0.959 . S
C2697 H2704 0.961 . S
C2697 H2705 0.960 . S
C2698 C2696 1.381 . S
C2698 C2699 1.394 . S
C2698 H2706 0.930 . S
C2699 C2698 1.394 . S
C2699 C2700 1.383 . S
C2699 H2707 0.929 . S
C2700 C2699 1.383 . S
C2700 C2701 1.377 . S
C2701 H2685 0.930 . S
C2701 C2700 1.377 . S
C2701 C2702 1.379 . S
C2702 H2686 0.931 . S
C2702 C2696 1.383 . S
C2702 C2701 1.379 . S
H2703 C2697 0.959 . S
H2704 C2697 0.961 . S
H2705 C2697 0.960 . S
H2706 C2698 0.930 . S
H2707 C2699 0.929 . S
H2708 C2716 0.929 . S
H2709 C2718 0.930 . S
H2710 C2720 0.930 . S
H2711 C2723 0.929 . S
H2712 C2726 0.930 . S
H2713 C2728 0.960 . S
H2714 C2728 0.960 . S
H2715 C2728 0.960 . S
C2716 H2708 0.929 . S
C2716 C2717 1.377 . S
C2716 C2718 1.384 . S
C2717 C2716 1.377 . S
C2717 C2723 1.390 . S
C2718 H2709 0.930 . S
C2718 C2716 1.384 . S
C2718 C2719 1.372 . S
C2719 C2718 1.372 . S
C2719 C2720 1.400 . S
C2719 C2724 1.490 . S
C2720 H2710 0.930 . S
C2720 C2719 1.400 . S
C2720 C2723 1.386 . S
H2721 C2737 0.930 . S
H2722 C2738 0.931 . S
C2723 H2711 0.929 . S
C2723 C2717 1.390 . S
C2723 C2720 1.386 . S
C2724 C2719 1.490 . S
C2724 C2726 1.395 . S
C2724 C2727 1.403 . S
H2725 C2731 0.930 . S
C2726 H2712 0.930 . S
C2726 C2724 1.395 . S
C2726 C2729 1.403 . S
C2727 C2724 1.403 . S
C2727 C2728 1.524 . S
C2727 C2731 1.400 . S
C2728 H2713 0.960 . S
C2728 H2714 0.960 . S
C2728 H2715 0.960 . S
C2728 C2727 1.524 . S
C2729 C2726 1.403 . S
C2729 C2730 1.392 . S
C2729 C2733 1.495 . S
C2730 C2729 1.392 . S
C2730 C2731 1.385 . S
C2730 C2732 1.478 . S
C2731 H2725 0.930 . S
C2731 C2727 1.400 . S
C2731 C2730 1.385 . S
C2732 C2730 1.478 . S
C2732 C2734 1.381 . S
C2732 C2738 1.383 . S
C2733 C2729 1.495 . S
C2733 H2739 0.959 . S
C2733 H2740 0.961 . S
C2733 H2741 0.960 . S
C2734 C2732 1.381 . S
C2734 C2735 1.394 . S
C2734 H2742 0.930 . S
C2735 C2734 1.394 . S
C2735 C2736 1.383 . S
C2735 H2743 0.929 . S
C2736 C2735 1.383 . S
C2736 C2737 1.377 . S
C2737 H2721 0.930 . S
C2737 C2736 1.377 . S
C2737 C2738 1.379 . S
C2738 H2722 0.931 . S
C2738 C2732 1.383 . S
C2738 C2737 1.379 . S
H2739 C2733 0.959 . S
H2740 C2733 0.961 . S
H2741 C2733 0.960 . S
H2742 C2734 0.930 . S
H2743 C2735 0.929 . S
H2744 C2752 0.929 . S
H2745 C2754 0.930 . S
H2746 C2756 0.930 . S
H2747 C2759 0.929 . S
H2748 C2762 0.930 . S
H2749 C2764 0.960 . S
H2750 C2764 0.960 . S
H2751 C2764 0.960 . S
C2752 H2744 0.929 . S
C2752 C2753 1.377 . S
C2752 C2754 1.384 . S
C2753 C2752 1.377 . S
C2753 C2759 1.390 . S
C2754 H2745 0.930 . S
C2754 C2752 1.384 . S
C2754 C2755 1.372 . S
C2755 C2754 1.372 . S
C2755 C2756 1.400 . S
C2755 C2760 1.490 . S
C2756 H2746 0.930 . S
C2756 C2755 1.400 . S
C2756 C2759 1.386 . S
H2757 C2773 0.930 . S
H2758 C2774 0.931 . S
C2759 H2747 0.929 . S
C2759 C2753 1.390 . S
C2759 C2756 1.386 . S
C2760 C2755 1.490 . S
C2760 C2762 1.395 . S
C2760 C2763 1.403 . S
H2761 C2767 0.930 . S
C2762 H2748 0.930 . S
C2762 C2760 1.395 . S
C2762 C2765 1.403 . S
C2763 C2760 1.403 . S
C2763 C2764 1.524 . S
C2763 C2767 1.400 . S
C2764 H2749 0.960 . S
C2764 H2750 0.960 . S
C2764 H2751 0.960 . S
C2764 C2763 1.524 . S
C2765 C2762 1.403 . S
C2765 C2766 1.392 . S
C2765 C2769 1.495 . S
C2766 C2765 1.392 . S
C2766 C2767 1.385 . S
C2766 C2768 1.478 . S
C2767 H2761 0.930 . S
C2767 C2763 1.400 . S
C2767 C2766 1.385 . S
C2768 C2766 1.478 . S
C2768 C2770 1.381 . S
C2768 C2774 1.383 . S
C2769 C2765 1.495 . S
C2769 H2775 0.959 . S
C2769 H2776 0.961 . S
C2769 H2777 0.960 . S
C2770 C2768 1.381 . S
C2770 C2771 1.394 . S
C2770 H2778 0.930 . S
C2771 C2770 1.394 . S
C2771 C2772 1.383 . S
C2771 H2779 0.929 . S
C2772 C2771 1.383 . S
C2772 C2773 1.377 . S
C2773 H2757 0.930 . S
C2773 C2772 1.377 . S
C2773 C2774 1.379 . S
C2774 H2758 0.931 . S
C2774 C2768 1.383 . S
C2774 C2773 1.379 . S
H2775 C2769 0.959 . S
H2776 C2769 0.961 . S
H2777 C2769 0.960 . S
H2778 C2770 0.930 . S
H2779 C2771 0.929 . S
H2780 C2788 0.929 . S
H2781 C2790 0.930 . S
H2782 C2792 0.930 . S
H2783 C2795 0.929 . S
H2784 C2798 0.930 . S
H2785 C2800 0.960 . S
H2786 C2800 0.960 . S
H2787 C2800 0.960 . S
C2788 H2780 0.929 . S
C2788 C2789 1.377 . S
C2788 C2790 1.384 . S
C2789 C2788 1.377 . S
C2789 C2795 1.390 . S
C2790 H2781 0.930 . S
C2790 C2788 1.384 . S
C2790 C2791 1.372 . S
C2791 C2790 1.372 . S
C2791 C2792 1.400 . S
C2791 C2796 1.490 . S
C2792 H2782 0.930 . S
C2792 C2791 1.400 . S
C2792 C2795 1.386 . S
H2793 C2809 0.930 . S
H2794 C2810 0.931 . S
C2795 H2783 0.929 . S
C2795 C2789 1.390 . S
C2795 C2792 1.386 . S
C2796 C2791 1.490 . S
C2796 C2798 1.395 . S
C2796 C2799 1.403 . S
H2797 C2803 0.930 . S
C2798 H2784 0.930 . S
C2798 C2796 1.395 . S
C2798 C2801 1.403 . S
C2799 C2796 1.403 . S
C2799 C2800 1.524 . S
C2799 C2803 1.400 . S
C2800 H2785 0.960 . S
C2800 H2786 0.960 . S
C2800 H2787 0.960 . S
C2800 C2799 1.524 . S
C2801 C2798 1.403 . S
C2801 C2802 1.392 . S
C2801 C2805 1.495 . S
C2802 C2801 1.392 . S
C2802 C2803 1.385 . S
C2802 C2804 1.478 . S
C2803 H2797 0.930 . S
C2803 C2799 1.400 . S
C2803 C2802 1.385 . S
C2804 C2802 1.478 . S
C2804 C2806 1.381 . S
C2804 C2810 1.383 . S
C2805 C2801 1.495 . S
C2805 H2811 0.959 . S
C2805 H2812 0.961 . S
C2805 H2813 0.960 . S
C2806 C2804 1.381 . S
C2806 C2807 1.394 . S
C2806 H2814 0.930 . S
C2807 C2806 1.394 . S
C2807 C2808 1.383 . S
C2807 H2815 0.929 . S
C2808 C2807 1.383 . S
C2808 C2809 1.377 . S
C2809 H2793 0.930 . S
C2809 C2808 1.377 . S
C2809 C2810 1.379 . S
C2810 H2794 0.931 . S
C2810 C2804 1.383 . S
C2810 C2809 1.379 . S
H2811 C2805 0.959 . S
H2812 C2805 0.961 . S
H2813 C2805 0.960 . S
H2814 C2806 0.930 . S
H2815 C2807 0.929 . S
H2816 C2824 0.929 . S
H2817 C2826 0.930 . S
H2818 C2828 0.930 . S
H2819 C2831 0.929 . S
H2820 C2834 0.930 . S
H2821 C2836 0.960 . S
H2822 C2836 0.960 . S
H2823 C2836 0.960 . S
C2824 H2816 0.929 . S
C2824 C2825 1.377 . S
C2824 C2826 1.384 . S
C2825 C2824 1.377 . S
C2825 C2831 1.390 . S
C2826 H2817 0.930 . S
C2826 C2824 1.384 . S
C2826 C2827 1.372 . S
C2827 C2826 1.372 . S
C2827 C2828 1.400 . S
C2827 C2832 1.490 . S
C2828 H2818 0.930 . S
C2828 C2827 1.400 . S
C2828 C2831 1.386 . S
H2829 C2845 0.930 . S
H2830 C2846 0.931 . S
C2831 H2819 0.929 . S
C2831 C2825 1.390 . S
C2831 C2828 1.386 . S
C2832 C2827 1.490 . S
C2832 C2834 1.395 . S
C2832 C2835 1.403 . S
H2833 C2839 0.930 . S
C2834 H2820 0.930 . S
C2834 C2832 1.395 . S
C2834 C2837 1.403 . S
C2835 C2832 1.403 . S
C2835 C2836 1.524 . S
C2835 C2839 1.400 . S
C2836 H2821 0.960 . S
C2836 H2822 0.960 . S
C2836 H2823 0.960 . S
C2836 C2835 1.524 . S
C2837 C2834 1.403 . S
C2837 C2838 1.392 . S
C2837 C2841 1.495 . S
C2838 C2837 1.392 . S
C2838 C2839 1.385 . S
C2838 C2840 1.478 . S
C2839 H2833 0.930 . S
C2839 C2835 1.400 . S
C2839 C2838 1.385 . S
C2840 C2838 1.478 . S
C2840 C2842 1.381 . S
C2840 C2846 1.383 . S
C2841 C2837 1.495 . S
C2841 H2847 0.959 . S
C2841 H2848 0.961 . S
C2841 H2849 0.960 . S
C2842 C2840 1.381 . S
C2842 C2843 1.394 . S
C2842 H2850 0.930 . S
C2843 C2842 1.394 . S
C2843 C2844 1.383 . S
C2843 H2851 0.929 . S
C2844 C2843 1.383 . S
C2844 C2845 1.377 . S
C2845 H2829 0.930 . S
C2845 C2844 1.377 . S
C2845 C2846 1.379 . S
C2846 H2830 0.931 . S
C2846 C2840 1.383 . S
C2846 C2845 1.379 . S
H2847 C2841 0.959 . S
H2848 C2841 0.961 . S
H2849 C2841 0.960 . S
H2850 C2842 0.930 . S
H2851 C2843 0.929 . S
H2852 C2860 0.929 . S
H2853 C2862 0.930 . S
H2854 C2864 0.930 . S
H2855 C2867 0.929 . S
H2856 C2870 0.930 . S
H2857 C2872 0.960 . S
H2858 C2872 0.960 . S
H2859 C2872 0.960 . S
C2860 H2852 0.929 . S
C2860 C2861 1.377 . S
C2860 C2862 1.384 . S
C2861 C2860 1.377 . S
C2861 C2867 1.390 . S
C2862 H2853 0.930 . S
C2862 C2860 1.384 . S
C2862 C2863 1.372 . S
C2863 C2862 1.372 . S
C2863 C2864 1.400 . S
C2863 C2868 1.490 . S
C2864 H2854 0.930 . S
C2864 C2863 1.400 . S
C2864 C2867 1.386 . S
H2865 C2881 0.930 . S
H2866 C2882 0.931 . S
C2867 H2855 0.929 . S
C2867 C2861 1.390 . S
C2867 C2864 1.386 . S
C2868 C2863 1.490 . S
C2868 C2870 1.395 . S
C2868 C2871 1.403 . S
H2869 C2875 0.930 . S
C2870 H2856 0.930 . S
C2870 C2868 1.395 . S
C2870 C2873 1.403 . S
C2871 C2868 1.403 . S
C2871 C2872 1.524 . S
C2871 C2875 1.400 . S
C2872 H2857 0.960 . S
C2872 H2858 0.960 . S
C2872 H2859 0.960 . S
C2872 C2871 1.524 . S
C2873 C2870 1.403 . S
C2873 C2874 1.392 . S
C2873 C2877 1.495 . S
C2874 C2873 1.392 . S
C2874 C2875 1.385 . S
C2874 C2876 1.478 . S
C2875 H2869 0.930 . S
C2875 C2871 1.400 . S
C2875 C2874 1.385 . S
C2876 C2874 1.478 . S
C2876 C2878 1.381 . S
C2876 C2882 1.383 . S
C2877 C2873 1.495 . S
C2877 H2883 0.959 . S
C2877 H2884 0.961 . S
C2877 H2885 0.960 . S
C2878 C2876 1.381 . S
C2878 C2879 1.394 . S
C2878 H2886 0.930 . S
C2879 C2878 1.394 . S
C2879 C2880 1.383 . S
C2879 H2887 0.929 . S
C2880 C2879 1.383 . S
C2880 C2881 1.377 . S
C2881 H2865 0.930 . S
C2881 C2880 1.377 . S
C2881 C2882 1.379 . S
C2882 H2866 0.931 . S
C2882 C2876 1.383 . S
C2882 C2881 1.379 . S
H2883 C2877 0.959 . S
H2884 C2877 0.961 . S
H2885 C2877 0.960 . S
H2886 C2878 0.930 . S
H2887 C2879 0.929 . S
H2888 C2896 0.929 . S
H2889 C2898 0.930 . S
H2890 C2900 0.930 . S
H2891 C2903 0.929 . S
H2892 C2906 0.930 . S
H2893 C2908 0.960 . S
H2894 C2908 0.960 . S
H2895 C2908 0.960 . S
C2896 H2888 0.929 . S
C2896 C2897 1.377 . S
C2896 C2898 1.384 . S
C2897 C2896 1.377 . S
C2897 C2903 1.390 . S
C2898 H2889 0.930 . S
C2898 C2896 1.384 . S
C2898 C2899 1.372 . S
C2899 C2898 1.372 . S
C2899 C2900 1.400 . S
C2899 C2904 1.490 . S
C2900 H2890 0.930 . S
C2900 C2899 1.400 . S
C2900 C2903 1.386 . S
H2901 C2917 0.930 . S
H2902 C2918 0.931 . S
C2903 H2891 0.929 . S
C2903 C2897 1.390 . S
C2903 C2900 1.386 . S
C2904 C2899 1.490 . S
C2904 C2906 1.395 . S
C2904 C2907 1.403 . S
H2905 C2911 0.930 . S
C2906 H2892 0.930 . S
C2906 C2904 1.395 . S
C2906 C2909 1.403 . S
C2907 C2904 1.403 . S
C2907 C2908 1.524 . S
C2907 C2911 1.400 . S
C2908 H2893 0.960 . S
C2908 H2894 0.960 . S
C2908 H2895 0.960 . S
C2908 C2907 1.524 . S
C2909 C2906 1.403 . S
C2909 C2910 1.392 . S
C2909 C2913 1.495 . S
C2910 C2909 1.392 . S
C2910 C2911 1.385 . S
C2910 C2912 1.478 . S
C2911 H2905 0.930 . S
C2911 C2907 1.400 . S
C2911 C2910 1.385 . S
C2912 C2910 1.478 . S
C2912 C2914 1.381 . S
C2912 C2918 1.383 . S
C2913 C2909 1.495 . S
C2913 H2919 0.959 . S
C2913 H2920 0.961 . S
C2913 H2921 0.960 . S
C2914 C2912 1.381 . S
C2914 C2915 1.394 . S
C2914 H2922 0.930 . S
C2915 C2914 1.394 . S
C2915 C2916 1.383 . S
C2915 H2923 0.929 . S
C2916 C2915 1.383 . S
C2916 C2917 1.377 . S
C2917 H2901 0.930 . S
C2917 C2916 1.377 . S
C2917 C2918 1.379 . S
C2918 H2902 0.931 . S
C2918 C2912 1.383 . S
C2918 C2917 1.379 . S
H2919 C2913 0.959 . S
H2920 C2913 0.961 . S
H2921 C2913 0.960 . S
H2922 C2914 0.930 . S
H2923 C2915 0.929 . S
H2924 C2932 0.929 . S
H2925 C2934 0.930 . S
H2926 C2936 0.930 . S
H2927 C2939 0.929 . S
H2928 C2942 0.930 . S
H2929 C2944 0.960 . S
H2930 C2944 0.960 . S
H2931 C2944 0.960 . S
C2932 H2924 0.929 . S
C2932 C2933 1.377 . S
C2932 C2934 1.384 . S
C2933 C2932 1.377 . S
C2933 C2939 1.390 . S
C2934 H2925 0.930 . S
C2934 C2932 1.384 . S
C2934 C2935 1.372 . S
C2935 C2934 1.372 . S
C2935 C2936 1.400 . S
C2935 C2940 1.490 . S
C2936 H2926 0.930 . S
C2936 C2935 1.400 . S
C2936 C2939 1.386 . S
H2937 C2953 0.930 . S
H2938 C2954 0.931 . S
C2939 H2927 0.929 . S
C2939 C2933 1.390 . S
C2939 C2936 1.386 . S
C2940 C2935 1.490 . S
C2940 C2942 1.395 . S
C2940 C2943 1.403 . S
H2941 C2947 0.930 . S
C2942 H2928 0.930 . S
C2942 C2940 1.395 . S
C2942 C2945 1.403 . S
C2943 C2940 1.403 . S
C2943 C2944 1.524 . S
C2943 C2947 1.400 . S
C2944 H2929 0.960 . S
C2944 H2930 0.960 . S
C2944 H2931 0.960 . S
C2944 C2943 1.524 . S
C2945 C2942 1.403 . S
C2945 C2946 1.392 . S
C2945 C2949 1.495 . S
C2946 C2945 1.392 . S
C2946 C2947 1.385 . S
C2946 C2948 1.478 . S
C2947 H2941 0.930 . S
C2947 C2943 1.400 . S
C2947 C2946 1.385 . S
C2948 C2946 1.478 . S
C2948 C2950 1.381 . S
C2948 C2954 1.383 . S
C2949 C2945 1.495 . S
C2949 H2955 0.959 . S
C2949 H2956 0.961 . S
C2949 H2957 0.960 . S
C2950 C2948 1.381 . S
C2950 C2951 1.394 . S
C2950 H2958 0.930 . S
C2951 C2950 1.394 . S
C2951 C2952 1.383 . S
C2951 H2959 0.929 . S
C2952 C2951 1.383 . S
C2952 C2953 1.377 . S
C2953 H2937 0.930 . S
C2953 C2952 1.377 . S
C2953 C2954 1.379 . S
C2954 H2938 0.931 . S
C2954 C2948 1.383 . S
C2954 C2953 1.379 . S
H2955 C2949 0.959 . S
H2956 C2949 0.961 . S
H2957 C2949 0.960 . S
H2958 C2950 0.930 . S
H2959 C2951 0.929 . S
H2960 C2968 0.929 . S
H2961 C2970 0.930 . S
H2962 C2972 0.930 . S
H2963 C2975 0.929 . S
H2964 C2978 0.930 . S
H2965 C2980 0.960 . S
H2966 C2980 0.960 . S
H2967 C2980 0.960 . S
C2968 H2960 0.929 . S
C2968 C2969 1.377 . S
C2968 C2970 1.384 . S
C2969 C2968 1.377 . S
C2969 C2975 1.390 . S
C2970 H2961 0.930 . S
C2970 C2968 1.384 . S
C2970 C2971 1.372 . S
C2971 C2970 1.372 . S
C2971 C2972 1.400 . S
C2971 C2976 1.490 . S
C2972 H2962 0.930 . S
C2972 C2971 1.400 . S
C2972 C2975 1.386 . S
H2973 C2989 0.930 . S
H2974 C2990 0.931 . S
C2975 H2963 0.929 . S
C2975 C2969 1.390 . S
C2975 C2972 1.386 . S
C2976 C2971 1.490 . S
C2976 C2978 1.395 . S
C2976 C2979 1.403 . S
H2977 C2983 0.930 . S
C2978 H2964 0.930 . S
C2978 C2976 1.395 . S
C2978 C2981 1.403 . S
C2979 C2976 1.403 . S
C2979 C2980 1.524 . S
C2979 C2983 1.400 . S
C2980 H2965 0.960 . S
C2980 H2966 0.960 . S
C2980 H2967 0.960 . S
C2980 C2979 1.524 . S
C2981 C2978 1.403 . S
C2981 C2982 1.392 . S
C2981 C2985 1.495 . S
C2982 C2981 1.392 . S
C2982 C2983 1.385 . S
C2982 C2984 1.478 . S
C2983 H2977 0.930 . S
C2983 C2979 1.400 . S
C2983 C2982 1.385 . S
C2984 C2982 1.478 . S
C2984 C2986 1.381 . S
C2984 C2990 1.383 . S
C2985 C2981 1.495 . S
C2985 H2991 0.959 . S
C2985 H2992 0.961 . S
C2985 H2993 0.960 . S
C2986 C2984 1.381 . S
C2986 C2987 1.394 . S
C2986 H2994 0.930 . S
C2987 C2986 1.394 . S
C2987 C2988 1.383 . S
C2987 H2995 0.929 . S
C2988 C2987 1.383 . S
C2988 C2989 1.377 . S
C2989 H2973 0.930 . S
C2989 C2988 1.377 . S
C2989 C2990 1.379 . S
C2990 H2974 0.931 . S
C2990 C2984 1.383 . S
C2990 C2989 1.379 . S
H2991 C2985 0.959 . S
H2992 C2985 0.961 . S
H2993 C2985 0.960 . S
H2994 C2986 0.930 . S
H2995 C2987 0.929 . S
H2996 C3004 0.929 . S
H2997 C3006 0.930 . S
H2998 C3008 0.930 . S
H2999 C3011 0.929 . S
H3000 C3014 0.930 . S
H3001 C3016 0.960 . S
H3002 C3016 0.960 . S
H3003 C3016 0.960 . S
C3004 H2996 0.929 . S
C3004 C3005 1.377 . S
C3004 C3006 1.384 . S
C3005 C3004 1.377 . S
C3005 C3011 1.390 . S
C3006 H2997 0.930 . S
C3006 C3004 1.384 . S
C3006 C3007 1.372 . S
C3007 C3006 1.372 . S
C3007 C3008 1.400 . S
C3007 C3012 1.490 . S
C3008 H2998 0.930 . S
C3008 C3007 1.400 . S
C3008 C3011 1.386 . S
H3009 C3025 0.930 . S
H3010 C3026 0.931 . S
C3011 H2999 0.929 . S
C3011 C3005 1.390 . S
C3011 C3008 1.386 . S
C3012 C3007 1.490 . S
C3012 C3014 1.395 . S
C3012 C3015 1.403 . S
H3013 C3019 0.930 . S
C3014 H3000 0.930 . S
C3014 C3012 1.395 . S
C3014 C3017 1.403 . S
C3015 C3012 1.403 . S
C3015 C3016 1.524 . S
C3015 C3019 1.400 . S
C3016 H3001 0.960 . S
C3016 H3002 0.960 . S
C3016 H3003 0.960 . S
C3016 C3015 1.524 . S
C3017 C3014 1.403 . S
C3017 C3018 1.392 . S
C3017 C3021 1.495 . S
C3018 C3017 1.392 . S
C3018 C3019 1.385 . S
C3018 C3020 1.478 . S
C3019 H3013 0.930 . S
C3019 C3015 1.400 . S
C3019 C3018 1.385 . S
C3020 C3018 1.478 . S
C3020 C3022 1.381 . S
C3020 C3026 1.383 . S
C3021 C3017 1.495 . S
C3021 H3027 0.959 . S
C3021 H3028 0.961 . S
C3021 H3029 0.960 . S
C3022 C3020 1.381 . S
C3022 C3023 1.394 . S
C3022 H3030 0.930 . S
C3023 C3022 1.394 . S
C3023 C3024 1.383 . S
C3023 H3031 0.929 . S
C3024 C3023 1.383 . S
C3024 C3025 1.377 . S
C3025 H3009 0.930 . S
C3025 C3024 1.377 . S
C3025 C3026 1.379 . S
C3026 H3010 0.931 . S
C3026 C3020 1.383 . S
C3026 C3025 1.379 . S
H3027 C3021 0.959 . S
H3028 C3021 0.961 . S
H3029 C3021 0.960 . S
H3030 C3022 0.930 . S
H3031 C3023 0.929 . S
H3032 C3040 0.929 . S
H3033 C3042 0.930 . S
H3034 C3044 0.930 . S
H3035 C3047 0.929 . S
H3036 C3050 0.930 . S
H3037 C3052 0.960 . S
H3038 C3052 0.960 . S
H3039 C3052 0.960 . S
C3040 H3032 0.929 . S
C3040 C3041 1.377 . S
C3040 C3042 1.384 . S
C3041 C3040 1.377 . S
C3041 C3047 1.390 . S
C3042 H3033 0.930 . S
C3042 C3040 1.384 . S
C3042 C3043 1.372 . S
C3043 C3042 1.372 . S
C3043 C3044 1.400 . S
C3043 C3048 1.490 . S
C3044 H3034 0.930 . S
C3044 C3043 1.400 . S
C3044 C3047 1.386 . S
H3045 C3061 0.930 . S
H3046 C3062 0.931 . S
C3047 H3035 0.929 . S
C3047 C3041 1.390 . S
C3047 C3044 1.386 . S
C3048 C3043 1.490 . S
C3048 C3050 1.395 . S
C3048 C3051 1.403 . S
H3049 C3055 0.930 . S
C3050 H3036 0.930 . S
C3050 C3048 1.395 . S
C3050 C3053 1.403 . S
C3051 C3048 1.403 . S
C3051 C3052 1.524 . S
C3051 C3055 1.400 . S
C3052 H3037 0.960 . S
C3052 H3038 0.960 . S
C3052 H3039 0.960 . S
C3052 C3051 1.524 . S
C3053 C3050 1.403 . S
C3053 C3054 1.392 . S
C3053 C3057 1.495 . S
C3054 C3053 1.392 . S
C3054 C3055 1.385 . S
C3054 C3056 1.478 . S
C3055 H3049 0.930 . S
C3055 C3051 1.400 . S
C3055 C3054 1.385 . S
C3056 C3054 1.478 . S
C3056 C3058 1.381 . S
C3056 C3062 1.383 . S
C3057 C3053 1.495 . S
C3057 H3063 0.959 . S
C3057 H3064 0.961 . S
C3057 H3065 0.960 . S
C3058 C3056 1.381 . S
C3058 C3059 1.394 . S
C3058 H3066 0.930 . S
C3059 C3058 1.394 . S
C3059 C3060 1.383 . S
C3059 H3067 0.929 . S
C3060 C3059 1.383 . S
C3060 C3061 1.377 . S
C3061 H3045 0.930 . S
C3061 C3060 1.377 . S
C3061 C3062 1.379 . S
C3062 H3046 0.931 . S
C3062 C3056 1.383 . S
C3062 C3061 1.379 . S
H3063 C3057 0.959 . S
H3064 C3057 0.961 . S
H3065 C3057 0.960 . S
H3066 C3058 0.930 . S
H3067 C3059 0.929 . S
H3068 C3076 0.929 . S
H3069 C3078 0.930 . S
H3070 C3080 0.930 . S
H3071 C3083 0.929 . S
H3072 C3086 0.930 . S
H3073 C3088 0.960 . S
H3074 C3088 0.960 . S
H3075 C3088 0.960 1_556 S
C3076 H3068 0.929 . S
C3076 C3077 1.377 . S
C3076 C3078 1.384 . S
C3077 C3076 1.377 . S
C3077 C3083 1.390 1_554 S
C3078 H3069 0.930 . S
C3078 C3076 1.384 . S
C3078 C3079 1.372 . S
C3079 C3078 1.372 . S
C3079 C3080 1.400 1_554 S
C3079 C3084 1.490 . S
C3080 H3070 0.930 . S
C3080 C3079 1.400 1_556 S
C3080 C3083 1.386 . S
H3081 C3097 0.930 1_556 S
H3082 C3098 0.931 1_556 S
C3083 H3071 0.929 . S
C3083 C3077 1.390 1_556 S
C3083 C3080 1.386 . S
C3084 C3079 1.490 . S
C3084 C3086 1.395 . S
C3084 C3087 1.403 . S
H3085 C3091 0.930 . S
C3086 H3072 0.930 . S
C3086 C3084 1.395 . S
C3086 C3089 1.403 . S
C3087 C3084 1.403 . S
C3087 C3088 1.524 . S
C3087 C3091 1.400 . S
C3088 H3073 0.960 . S
C3088 H3074 0.960 . S
C3088 H3075 0.960 1_554 S
C3088 C3087 1.524 . S
C3089 C3086 1.403 . S
C3089 C3090 1.392 . S
C3089 C3093 1.495 . S
C3090 C3089 1.392 . S
C3090 C3091 1.385 . S
C3090 C3092 1.478 . S
C3091 H3085 0.930 . S
C3091 C3087 1.400 . S
C3091 C3090 1.385 . S
C3092 C3090 1.478 . S
C3092 C3094 1.381 . S
C3092 C3098 1.383 . S
C3093 C3089 1.495 . S
C3093 H3099 0.959 . S
C3093 H3100 0.961 . S
C3093 H3101 0.960 . S
C3094 C3092 1.381 . S
C3094 C3095 1.394 . S
C3094 H3102 0.930 . S
C3095 C3094 1.394 . S
C3095 C3096 1.383 . S
C3095 H3103 0.929 . S
C3096 C3095 1.383 . S
C3096 C3097 1.377 . S
C3097 H3081 0.930 1_554 S
C3097 C3096 1.377 . S
C3097 C3098 1.379 . S
C3098 H3082 0.931 1_554 S
C3098 C3092 1.383 . S
C3098 C3097 1.379 . S
H3099 C3093 0.959 . S
H3100 C3093 0.961 . S
H3101 C3093 0.960 . S
H3102 C3094 0.930 . S
H3103 C3095 0.929 . S
H3104 C3112 0.929 . S
H3105 C3114 0.930 . S
H3106 C3116 0.930 . S
H3107 C3119 0.929 . S
H3108 C3122 0.930 . S
H3109 C3124 0.960 . S
H3110 C3124 0.960 . S
H3111 C3124 0.960 . S
C3112 H3104 0.929 . S
C3112 C3113 1.377 . S
C3112 C3114 1.384 . S
C3113 C3112 1.377 . S
C3113 C3119 1.390 . S
C3114 H3105 0.930 . S
C3114 C3112 1.384 . S
C3114 C3115 1.372 . S
C3115 C3114 1.372 . S
C3115 C3116 1.400 . S
C3115 C3120 1.490 . S
C3116 H3106 0.930 . S
C3116 C3115 1.400 . S
C3116 C3119 1.386 . S
H3117 C3133 0.930 . S
H3118 C3134 0.931 . S
C3119 H3107 0.929 . S
C3119 C3113 1.390 . S
C3119 C3116 1.386 . S
C3120 C3115 1.490 . S
C3120 C3122 1.395 . S
C3120 C3123 1.403 . S
H3121 C3127 0.930 . S
C3122 H3108 0.930 . S
C3122 C3120 1.395 . S
C3122 C3125 1.403 . S
C3123 C3120 1.403 . S
C3123 C3124 1.524 . S
C3123 C3127 1.400 . S
C3124 H3109 0.960 . S
C3124 H3110 0.960 . S
C3124 H3111 0.960 . S
C3124 C3123 1.524 . S
C3125 C3122 1.403 . S
C3125 C3126 1.392 . S
C3125 C3129 1.495 . S
C3126 C3125 1.392 . S
C3126 C3127 1.385 . S
C3126 C3128 1.478 . S
C3127 H3121 0.930 . S
C3127 C3123 1.400 . S
C3127 C3126 1.385 . S
C3128 C3126 1.478 . S
C3128 C3130 1.381 . S
C3128 C3134 1.383 . S
C3129 C3125 1.495 . S
C3129 H3135 0.959 . S
C3129 H3136 0.961 . S
C3129 H3137 0.960 . S
C3130 C3128 1.381 . S
C3130 C3131 1.394 . S
C3130 H3138 0.930 . S
C3131 C3130 1.394 . S
C3131 C3132 1.383 . S
C3131 H3139 0.929 . S
C3132 C3131 1.383 . S
C3132 C3133 1.377 . S
C3133 H3117 0.930 . S
C3133 C3132 1.377 . S
C3133 C3134 1.379 . S
C3134 H3118 0.931 . S
C3134 C3128 1.383 . S
C3134 C3133 1.379 . S
H3135 C3129 0.959 . S
H3136 C3129 0.961 . S
H3137 C3129 0.960 . S
H3138 C3130 0.930 . S
H3139 C3131 0.929 . S
H3140 C3148 0.929 1_556 S
H3141 C3150 0.930 . S
H3142 C3152 0.930 . S
H3143 C3155 0.929 . S
H3144 C3158 0.930 1_556 S
H3145 C3160 0.960 . S
H3146 C3160 0.960 . S
H3147 C3160 0.960 . S
C3148 H3140 0.929 1_554 S
C3148 C3149 1.377 . S
C3148 C3150 1.384 . S
C3149 C3148 1.377 . S
C3149 C3155 1.390 . S
C3150 H3141 0.930 . S
C3150 C3148 1.384 . S
C3150 C3151 1.372 . S
C3151 C3150 1.372 . S
C3151 C3152 1.400 . S
C3151 C3156 1.490 . S
C3152 H3142 0.930 . S
C3152 C3151 1.400 . S
C3152 C3155 1.386 . S
H3153 C3169 0.930 . S
H3154 C3170 0.931 . S
C3155 H3143 0.929 . S
C3155 C3149 1.390 . S
C3155 C3152 1.386 . S
C3156 C3151 1.490 . S
C3156 C3158 1.395 . S
C3156 C3159 1.403 . S
H3157 C3163 0.930 . S
C3158 H3144 0.930 1_554 S
C3158 C3156 1.395 . S
C3158 C3161 1.403 . S
C3159 C3156 1.403 . S
C3159 C3160 1.524 . S
C3159 C3163 1.400 . S
C3160 H3145 0.960 . S
C3160 H3146 0.960 . S
C3160 H3147 0.960 . S
C3160 C3159 1.524 . S
C3161 C3158 1.403 . S
C3161 C3162 1.392 . S
C3161 C3165 1.495 1_554 S
C3162 C3161 1.392 . S
C3162 C3163 1.385 . S
C3162 C3164 1.478 . S
C3163 H3157 0.930 . S
C3163 C3159 1.400 . S
C3163 C3162 1.385 . S
C3164 C3162 1.478 . S
C3164 C3166 1.381 . S
C3164 C3170 1.383 . S
C3165 C3161 1.495 1_556 S
C3165 H3171 0.959 . S
C3165 H3172 0.961 . S
C3165 H3173 0.960 . S
C3166 C3164 1.381 . S
C3166 C3167 1.394 . S
C3166 H3174 0.930 . S
C3167 C3166 1.394 . S
C3167 C3168 1.383 . S
C3167 H3175 0.929 . S
C3168 C3167 1.383 . S
C3168 C3169 1.377 . S
C3169 H3153 0.930 . S
C3169 C3168 1.377 . S
C3169 C3170 1.379 . S
C3170 H3154 0.931 . S
C3170 C3164 1.383 . S
C3170 C3169 1.379 . S
H3171 C3165 0.959 . S
H3172 C3165 0.961 . S
H3173 C3165 0.960 . S
H3174 C3166 0.930 . S
H3175 C3167 0.929 . S
H3176 C3184 0.929 . S
H3177 C3186 0.930 . S
H3178 C3188 0.930 . S
H3179 C3191 0.929 . S
H3180 C3194 0.930 . S
H3181 C3196 0.960 . S
H3182 C3196 0.960 . S
H3183 C3196 0.960 . S
C3184 H3176 0.929 . S
C3184 C3185 1.377 . S
C3184 C3186 1.384 . S
C3185 C3184 1.377 . S
C3185 C3191 1.390 . S
C3186 H3177 0.930 . S
C3186 C3184 1.384 . S
C3186 C3187 1.372 . S
C3187 C3186 1.372 . S
C3187 C3188 1.400 . S
C3187 C3192 1.490 . S
C3188 H3178 0.930 . S
C3188 C3187 1.400 . S
C3188 C3191 1.386 . S
H3189 C3205 0.930 . S
H3190 C3206 0.931 . S
C3191 H3179 0.929 . S
C3191 C3185 1.390 . S
C3191 C3188 1.386 . S
C3192 C3187 1.490 . S
C3192 C3194 1.395 . S
C3192 C3195 1.403 . S
H3193 C3199 0.930 . S
C3194 H3180 0.930 . S
C3194 C3192 1.395 . S
C3194 C3197 1.403 . S
C3195 C3192 1.403 . S
C3195 C3196 1.524 . S
C3195 C3199 1.400 . S
C3196 H3181 0.960 . S
C3196 H3182 0.960 . S
C3196 H3183 0.960 . S
C3196 C3195 1.524 . S
C3197 C3194 1.403 . S
C3197 C3198 1.392 . S
C3197 C3201 1.495 . S
C3198 C3197 1.392 . S
C3198 C3199 1.385 . S
C3198 C3200 1.478 . S
C3199 H3193 0.930 . S
C3199 C3195 1.400 . S
C3199 C3198 1.385 . S
C3200 C3198 1.478 . S
C3200 C3202 1.381 . S
C3200 C3206 1.383 . S
C3201 C3197 1.495 . S
C3201 H3207 0.959 . S
C3201 H3208 0.961 . S
C3201 H3209 0.960 . S
C3202 C3200 1.381 . S
C3202 C3203 1.394 . S
C3202 H3210 0.930 . S
C3203 C3202 1.394 . S
C3203 C3204 1.383 . S
C3203 H3211 0.929 . S
C3204 C3203 1.383 . S
C3204 C3205 1.377 . S
C3205 H3189 0.930 . S
C3205 C3204 1.377 . S
C3205 C3206 1.379 . S
C3206 H3190 0.931 . S
C3206 C3200 1.383 . S
C3206 C3205 1.379 . S
H3207 C3201 0.959 . S
H3208 C3201 0.961 . S
H3209 C3201 0.960 . S
H3210 C3202 0.930 . S
H3211 C3203 0.929 . S
H3212 C3220 0.929 . S
H3213 C3222 0.930 . S
H3214 C3224 0.930 . S
H3215 C3227 0.929 . S
H3216 C3230 0.930 . S
H3217 C3232 0.960 . S
H3218 C3232 0.960 . S
H3219 C3232 0.960 . S
C3220 H3212 0.929 . S
C3220 C3221 1.377 . S
C3220 C3222 1.384 . S
C3221 C3220 1.377 . S
C3221 C3227 1.390 . S
C3222 H3213 0.930 . S
C3222 C3220 1.384 . S
C3222 C3223 1.372 . S
C3223 C3222 1.372 . S
C3223 C3224 1.400 . S
C3223 C3228 1.490 . S
C3224 H3214 0.930 . S
C3224 C3223 1.400 . S
C3224 C3227 1.386 . S
H3225 C3241 0.930 . S
H3226 C3242 0.931 . S
C3227 H3215 0.929 . S
C3227 C3221 1.390 . S
C3227 C3224 1.386 . S
C3228 C3223 1.490 . S
C3228 C3230 1.395 . S
C3228 C3231 1.403 . S
H3229 C3235 0.930 . S
C3230 H3216 0.930 . S
C3230 C3228 1.395 . S
C3230 C3233 1.403 . S
C3231 C3228 1.403 . S
C3231 C3232 1.524 . S
C3231 C3235 1.400 . S
C3232 H3217 0.960 . S
C3232 H3218 0.960 . S
C3232 H3219 0.960 . S
C3232 C3231 1.524 . S
C3233 C3230 1.403 . S
C3233 C3234 1.392 . S
C3233 C3237 1.495 . S
C3234 C3233 1.392 . S
C3234 C3235 1.385 . S
C3234 C3236 1.478 . S
C3235 H3229 0.930 . S
C3235 C3231 1.400 . S
C3235 C3234 1.385 . S
C3236 C3234 1.478 . S
C3236 C3238 1.381 . S
C3236 C3242 1.383 . S
C3237 C3233 1.495 . S
C3237 H3243 0.959 . S
C3237 H3244 0.961 . S
C3237 H3245 0.960 . S
C3238 C3236 1.381 . S
C3238 C3239 1.394 . S
C3238 H3246 0.930 . S
C3239 C3238 1.394 . S
C3239 C3240 1.383 . S
C3239 H3247 0.929 . S
C3240 C3239 1.383 . S
C3240 C3241 1.377 . S
C3241 H3225 0.930 . S
C3241 C3240 1.377 . S
C3241 C3242 1.379 . S
C3242 H3226 0.931 . S
C3242 C3236 1.383 . S
C3242 C3241 1.379 . S
H3243 C3237 0.959 . S
H3244 C3237 0.961 . S
H3245 C3237 0.960 . S
H3246 C3238 0.930 . S
H3247 C3239 0.929 . S
H3248 C3256 0.929 . S
H3249 C3258 0.930 . S
H3250 C3260 0.930 . S
H3251 C3263 0.929 . S
H3252 C3266 0.930 . S
H3253 C3268 0.960 . S
H3254 C3268 0.960 . S
H3255 C3268 0.960 . S
C3256 H3248 0.929 . S
C3256 C3257 1.377 . S
C3256 C3258 1.384 . S
C3257 C3256 1.377 . S
C3257 C3263 1.390 . S
C3258 H3249 0.930 . S
C3258 C3256 1.384 . S
C3258 C3259 1.372 . S
C3259 C3258 1.372 . S
C3259 C3260 1.400 . S
C3259 C3264 1.490 . S
C3260 H3250 0.930 . S
C3260 C3259 1.400 . S
C3260 C3263 1.386 . S
H3261 C3277 0.930 . S
H3262 C3278 0.931 . S
C3263 H3251 0.929 . S
C3263 C3257 1.390 . S
C3263 C3260 1.386 . S
C3264 C3259 1.490 . S
C3264 C3266 1.395 . S
C3264 C3267 1.403 . S
H3265 C3271 0.930 . S
C3266 H3252 0.930 . S
C3266 C3264 1.395 . S
C3266 C3269 1.403 . S
C3267 C3264 1.403 . S
C3267 C3268 1.524 . S
C3267 C3271 1.400 . S
C3268 H3253 0.960 . S
C3268 H3254 0.960 . S
C3268 H3255 0.960 . S
C3268 C3267 1.524 . S
C3269 C3266 1.403 . S
C3269 C3270 1.392 . S
C3269 C3273 1.495 . S
C3270 C3269 1.392 . S
C3270 C3271 1.385 . S
C3270 C3272 1.478 . S
C3271 H3265 0.930 . S
C3271 C3267 1.400 . S
C3271 C3270 1.385 . S
C3272 C3270 1.478 . S
C3272 C3274 1.381 . S
C3272 C3278 1.383 . S
C3273 C3269 1.495 . S
C3273 H3279 0.959 . S
C3273 H3280 0.961 . S
C3273 H3281 0.960 . S
C3274 C3272 1.381 . S
C3274 C3275 1.394 . S
C3274 H3282 0.930 . S
C3275 C3274 1.394 . S
C3275 C3276 1.383 . S
C3275 H3283 0.929 . S
C3276 C3275 1.383 . S
C3276 C3277 1.377 . S
C3277 H3261 0.930 . S
C3277 C3276 1.377 . S
C3277 C3278 1.379 . S
C3278 H3262 0.931 . S
C3278 C3272 1.383 . S
C3278 C3277 1.379 . S
H3279 C3273 0.959 . S
H3280 C3273 0.961 . S
H3281 C3273 0.960 . S
H3282 C3274 0.930 . S
H3283 C3275 0.929 . S
H3284 C3292 0.929 . S
H3285 C3294 0.930 . S
H3286 C3296 0.930 . S
H3287 C3299 0.929 . S
H3288 C3302 0.930 . S
H3289 C3304 0.960 . S
H3290 C3304 0.960 . S
H3291 C3304 0.960 . S
C3292 H3284 0.929 . S
C3292 C3293 1.377 . S
C3292 C3294 1.384 . S
C3293 C3292 1.377 . S
C3293 C3299 1.390 . S
C3294 H3285 0.930 . S
C3294 C3292 1.384 . S
C3294 C3295 1.372 . S
C3295 C3294 1.372 . S
C3295 C3296 1.400 . S
C3295 C3300 1.490 . S
C3296 H3286 0.930 . S
C3296 C3295 1.400 . S
C3296 C3299 1.386 . S
H3297 C3313 0.930 . S
H3298 C3314 0.931 . S
C3299 H3287 0.929 . S
C3299 C3293 1.390 . S
C3299 C3296 1.386 . S
C3300 C3295 1.490 . S
C3300 C3302 1.395 . S
C3300 C3303 1.403 . S
H3301 C3307 0.930 . S
C3302 H3288 0.930 . S
C3302 C3300 1.395 . S
C3302 C3305 1.403 . S
C3303 C3300 1.403 . S
C3303 C3304 1.524 . S
C3303 C3307 1.400 . S
C3304 H3289 0.960 . S
C3304 H3290 0.960 . S
C3304 H3291 0.960 . S
C3304 C3303 1.524 . S
C3305 C3302 1.403 . S
C3305 C3306 1.392 . S
C3305 C3309 1.495 . S
C3306 C3305 1.392 . S
C3306 C3307 1.385 . S
C3306 C3308 1.478 . S
C3307 H3301 0.930 . S
C3307 C3303 1.400 . S
C3307 C3306 1.385 . S
C3308 C3306 1.478 . S
C3308 C3310 1.381 . S
C3308 C3314 1.383 . S
C3309 C3305 1.495 . S
C3309 H3315 0.959 . S
C3309 H3316 0.961 . S
C3309 H3317 0.960 . S
C3310 C3308 1.381 . S
C3310 C3311 1.394 . S
C3310 H3318 0.930 . S
C3311 C3310 1.394 . S
C3311 C3312 1.383 . S
C3311 H3319 0.929 . S
C3312 C3311 1.383 . S
C3312 C3313 1.377 . S
C3313 H3297 0.930 . S
C3313 C3312 1.377 . S
C3313 C3314 1.379 . S
C3314 H3298 0.931 . S
C3314 C3308 1.383 . S
C3314 C3313 1.379 . S
H3315 C3309 0.959 . S
H3316 C3309 0.961 . S
H3317 C3309 0.960 . S
H3318 C3310 0.930 . S
H3319 C3311 0.929 . S
H3320 C3328 0.929 . S
H3321 C3330 0.930 . S
H3322 C3332 0.930 1_655 S
H3323 C3335 0.929 1_655 S
H3324 C3338 0.930 . S
H3325 C3340 0.960 . S
H3326 C3340 0.961 1_455 S
H3327 C3340 0.958 . S
C3328 H3320 0.929 . S
C3328 C3329 1.377 . S
C3328 C3330 1.384 . S
C3329 C3328 1.377 . S
C3329 C3335 1.390 . S
C3330 H3321 0.930 . S
C3330 C3328 1.384 . S
C3330 C3331 1.372 . S
C3331 C3330 1.372 . S
C3331 C3332 1.400 . S
C3331 C3336 1.490 . S
C3332 H3322 0.930 1_455 S
C3332 C3331 1.400 . S
C3332 C3335 1.386 . S
H3333 C3349 0.930 1_655 S
H3334 C3350 0.931 1_655 S
C3335 H3323 0.929 1_455 S
C3335 C3329 1.390 . S
C3335 C3332 1.386 . S
C3336 C3331 1.490 . S
C3336 C3338 1.395 . S
C3336 C3339 1.403 . S
H3337 C3343 0.930 . S
C3338 H3324 0.930 . S
C3338 C3336 1.395 . S
C3338 C3341 1.403 . S
C3339 C3336 1.403 . S
C3339 C3340 1.525 1_455 S
C3339 C3343 1.400 . S
C3340 H3325 0.960 . S
C3340 H3326 0.961 1_655 S
C3340 H3327 0.958 . S
C3340 C3339 1.525 1_655 S
C3341 C3338 1.403 . S
C3341 C3342 1.392 . S
C3341 C3345 1.495 . S
C3342 C3341 1.392 . S
C3342 C3343 1.385 . S
C3342 C3344 1.478 . S
C3343 H3337 0.930 . S
C3343 C3339 1.400 . S
C3343 C3342 1.385 . S
C3344 C3342 1.478 . S
C3344 C3346 1.381 . S
C3344 C3350 1.383 . S
C3345 C3341 1.495 . S
C3345 H3351 0.959 . S
C3345 H3352 0.961 . S
C3345 H3353 0.960 . S
C3346 C3344 1.381 . S
C3346 C3347 1.394 . S
C3346 H3354 0.930 . S
C3347 C3346 1.394 . S
C3347 C3348 1.383 . S
C3347 H3355 0.929 . S
C3348 C3347 1.383 . S
C3348 C3349 1.377 . S
C3349 H3333 0.930 1_455 S
C3349 C3348 1.377 . S
C3349 C3350 1.379 . S
C3350 H3334 0.931 1_455 S
C3350 C3344 1.383 . S
C3350 C3349 1.379 . S
H3351 C3345 0.959 . S
H3352 C3345 0.961 . S
H3353 C3345 0.960 . S
H3354 C3346 0.930 . S
H3355 C3347 0.929 . S
H3356 C3364 0.929 . S
H3357 C3366 0.930 . S
H3358 C3368 0.930 . S
H3359 C3371 0.929 . S
H3360 C3374 0.930 . S
H3361 C3376 0.960 . S
H3362 C3376 0.960 . S
H3363 C3376 0.960 . S
C3364 H3356 0.929 . S
C3364 C3365 1.377 . S
C3364 C3366 1.384 . S
C3365 C3364 1.377 . S
C3365 C3371 1.390 . S
C3366 H3357 0.930 . S
C3366 C3364 1.384 . S
C3366 C3367 1.372 . S
C3367 C3366 1.372 . S
C3367 C3368 1.400 . S
C3367 C3372 1.490 . S
C3368 H3358 0.930 . S
C3368 C3367 1.400 . S
C3368 C3371 1.386 . S
H3369 C3385 0.930 . S
H3370 C3386 0.931 . S
C3371 H3359 0.929 . S
C3371 C3365 1.390 . S
C3371 C3368 1.386 . S
C3372 C3367 1.490 . S
C3372 C3374 1.395 . S
C3372 C3375 1.403 . S
H3373 C3379 0.930 . S
C3374 H3360 0.930 . S
C3374 C3372 1.395 . S
C3374 C3377 1.403 . S
C3375 C3372 1.403 . S
C3375 C3376 1.524 . S
C3375 C3379 1.400 . S
C3376 H3361 0.960 . S
C3376 H3362 0.960 . S
C3376 H3363 0.960 . S
C3376 C3375 1.524 . S
C3377 C3374 1.403 . S
C3377 C3378 1.392 . S
C3377 C3381 1.495 . S
C3378 C3377 1.392 . S
C3378 C3379 1.385 . S
C3378 C3380 1.478 . S
C3379 H3373 0.930 . S
C3379 C3375 1.400 . S
C3379 C3378 1.385 . S
C3380 C3378 1.478 . S
C3380 C3382 1.381 . S
C3380 C3386 1.383 . S
C3381 C3377 1.495 . S
C3381 H3387 0.959 . S
C3381 H3388 0.961 . S
C3381 H3389 0.960 . S
C3382 C3380 1.381 . S
C3382 C3383 1.394 . S
C3382 H3390 0.930 . S
C3383 C3382 1.394 . S
C3383 C3384 1.383 . S
C3383 H3391 0.929 . S
C3384 C3383 1.383 . S
C3384 C3385 1.377 . S
C3385 H3369 0.930 . S
C3385 C3384 1.377 . S
C3385 C3386 1.379 . S
C3386 H3370 0.931 . S
C3386 C3380 1.383 . S
C3386 C3385 1.379 . S
H3387 C3381 0.959 . S
H3388 C3381 0.961 . S
H3389 C3381 0.960 . S
H3390 C3382 0.930 . S
H3391 C3383 0.929 . S
H3392 C3400 0.929 . S
H3393 C3402 0.930 . S
H3394 C3404 0.930 . S
H3395 C3407 0.929 . S
H3396 C3410 0.930 . S
H3397 C3412 0.960 . S
H3398 C3412 0.960 . S
H3399 C3412 0.960 . S
C3400 H3392 0.929 . S
C3400 C3401 1.377 . S
C3400 C3402 1.384 . S
C3401 C3400 1.377 . S
C3401 C3407 1.390 . S
C3402 H3393 0.930 . S
C3402 C3400 1.384 . S
C3402 C3403 1.372 . S
C3403 C3402 1.372 . S
C3403 C3404 1.400 . S
C3403 C3408 1.490 . S
C3404 H3394 0.930 . S
C3404 C3403 1.400 . S
C3404 C3407 1.386 . S
H3405 C3421 0.930 . S
H3406 C3422 0.931 1_554 S
C3407 H3395 0.929 . S
C3407 C3401 1.390 . S
C3407 C3404 1.386 . S
C3408 C3403 1.490 . S
C3408 C3410 1.395 . S
C3408 C3411 1.403 . S
H3409 C3415 0.930 . S
C3410 H3396 0.930 . S
C3410 C3408 1.395 . S
C3410 C3413 1.403 . S
C3411 C3408 1.403 . S
C3411 C3412 1.524 . S
C3411 C3415 1.400 . S
C3412 H3397 0.960 . S
C3412 H3398 0.960 . S
C3412 H3399 0.960 . S
C3412 C3411 1.524 . S
C3413 C3410 1.403 . S
C3413 C3414 1.392 . S
C3413 C3417 1.495 . S
C3414 C3413 1.392 . S
C3414 C3415 1.385 . S
C3414 C3416 1.478 . S
C3415 H3409 0.930 . S
C3415 C3411 1.400 . S
C3415 C3414 1.385 . S
C3416 C3414 1.478 . S
C3416 C3418 1.381 . S
C3416 C3422 1.383 . S
C3417 C3413 1.495 . S
C3417 H3423 0.959 . S
C3417 H3424 0.961 . S
C3417 H3425 0.960 . S
C3418 C3416 1.381 . S
C3418 C3419 1.394 . S
C3418 H3426 0.930 . S
C3419 C3418 1.394 . S
C3419 C3420 1.383 . S
C3419 H3427 0.929 . S
C3420 C3419 1.383 . S
C3420 C3421 1.377 1_556 S
C3421 H3405 0.930 . S
C3421 C3420 1.377 1_554 S
C3421 C3422 1.379 1_554 S
C3422 H3406 0.931 1_556 S
C3422 C3416 1.383 . S
C3422 C3421 1.379 1_556 S
H3423 C3417 0.959 . S
H3424 C3417 0.961 . S
H3425 C3417 0.960 . S
H3426 C3418 0.930 . S
H3427 C3419 0.929 . S
H3428 C3436 0.929 . S
H3429 C3438 0.930 . S
H3430 C3440 0.930 . S
H3431 C3443 0.929 . S
H3432 C3446 0.930 . S
H3433 C3448 0.960 . S
H3434 C3448 0.960 . S
H3435 C3448 0.960 . S
C3436 H3428 0.929 . S
C3436 C3437 1.377 . S
C3436 C3438 1.384 . S
C3437 C3436 1.377 . S
C3437 C3443 1.390 . S
C3438 H3429 0.930 . S
C3438 C3436 1.384 . S
C3438 C3439 1.372 . S
C3439 C3438 1.372 . S
C3439 C3440 1.400 . S
C3439 C3444 1.490 . S
C3440 H3430 0.930 . S
C3440 C3439 1.400 . S
C3440 C3443 1.386 . S
H3441 C3457 0.930 . S
H3442 C3458 0.931 . S
C3443 H3431 0.929 . S
C3443 C3437 1.390 . S
C3443 C3440 1.386 . S
C3444 C3439 1.490 . S
C3444 C3446 1.395 . S
C3444 C3447 1.403 . S
H3445 C3451 0.930 . S
C3446 H3432 0.930 . S
C3446 C3444 1.395 . S
C3446 C3449 1.403 . S
C3447 C3444 1.403 . S
C3447 C3448 1.524 . S
C3447 C3451 1.400 . S
C3448 H3433 0.960 . S
C3448 H3434 0.960 . S
C3448 H3435 0.960 . S
C3448 C3447 1.524 . S
C3449 C3446 1.403 . S
C3449 C3450 1.392 . S
C3449 C3453 1.495 . S
C3450 C3449 1.392 . S
C3450 C3451 1.385 . S
C3450 C3452 1.478 . S
C3451 H3445 0.930 . S
C3451 C3447 1.400 . S
C3451 C3450 1.385 . S
C3452 C3450 1.478 . S
C3452 C3454 1.381 . S
C3452 C3458 1.383 . S
C3453 C3449 1.495 . S
C3453 H3459 0.959 . S
C3453 H3460 0.961 . S
C3453 H3461 0.960 . S
C3454 C3452 1.381 . S
C3454 C3455 1.394 . S
C3454 H3462 0.930 . S
C3455 C3454 1.394 . S
C3455 C3456 1.383 . S
C3455 H3463 0.929 . S
C3456 C3455 1.383 . S
C3456 C3457 1.377 . S
C3457 H3441 0.930 . S
C3457 C3456 1.377 . S
C3457 C3458 1.379 . S
C3458 H3442 0.931 . S
C3458 C3452 1.383 . S
C3458 C3457 1.379 . S
H3459 C3453 0.959 . S
H3460 C3453 0.961 . S
H3461 C3453 0.960 . S
H3462 C3454 0.930 . S
H3463 C3455 0.929 . S
H3464 C3472 0.929 . S
H3465 C3474 0.930 . S
H3466 C3476 0.930 . S
H3467 C3479 0.929 . S
H3468 C3482 0.930 . S
H3469 C3484 0.960 . S
H3470 C3484 0.960 . S
H3471 C3484 0.960 . S
C3472 H3464 0.929 . S
C3472 C3473 1.377 . S
C3472 C3474 1.384 . S
C3473 C3472 1.377 . S
C3473 C3479 1.390 . S
C3474 H3465 0.930 . S
C3474 C3472 1.384 . S
C3474 C3475 1.372 . S
C3475 C3474 1.372 . S
C3475 C3476 1.400 . S
C3475 C3480 1.490 . S
C3476 H3466 0.930 . S
C3476 C3475 1.400 . S
C3476 C3479 1.386 . S
H3477 C3493 0.930 . S
H3478 C3494 0.931 . S
C3479 H3467 0.929 . S
C3479 C3473 1.390 . S
C3479 C3476 1.386 . S
C3480 C3475 1.490 . S
C3480 C3482 1.395 1_455 S
C3480 C3483 1.403 . S
H3481 C3487 0.930 . S
C3482 H3468 0.930 . S
C3482 C3480 1.395 1_655 S
C3482 C3485 1.403 . S
C3483 C3480 1.403 . S
C3483 C3484 1.524 . S
C3483 C3487 1.400 . S
C3484 H3469 0.960 . S
C3484 H3470 0.960 . S
C3484 H3471 0.960 . S
C3484 C3483 1.524 . S
C3485 C3482 1.403 . S
C3485 C3486 1.392 1_655 S
C3485 C3489 1.495 . S
C3486 C3485 1.392 1_455 S
C3486 C3487 1.385 . S
C3486 C3488 1.478 . S
C3487 H3481 0.930 . S
C3487 C3483 1.400 . S
C3487 C3486 1.385 . S
C3488 C3486 1.478 . S
C3488 C3490 1.381 . S
C3488 C3494 1.383 . S
C3489 C3485 1.495 . S
C3489 H3495 0.959 . S
C3489 H3496 0.961 . S
C3489 H3497 0.960 . S
C3490 C3488 1.381 . S
C3490 C3491 1.394 . S
C3490 H3498 0.930 . S
C3491 C3490 1.394 . S
C3491 C3492 1.383 . S
C3491 H3499 0.929 . S
C3492 C3491 1.383 . S
C3492 C3493 1.377 . S
C3493 H3477 0.930 . S
C3493 C3492 1.377 . S
C3493 C3494 1.379 . S
C3494 H3478 0.931 . S
C3494 C3488 1.383 . S
C3494 C3493 1.379 . S
H3495 C3489 0.959 . S
H3496 C3489 0.961 . S
H3497 C3489 0.960 . S
H3498 C3490 0.930 . S
H3499 C3491 0.929 . S
H3500 C3508 0.929 . S
H3501 C3510 0.930 . S
H3502 C3512 0.930 . S
H3503 C3515 0.929 . S
H3504 C3518 0.930 . S
H3505 C3520 0.960 . S
H3506 C3520 0.960 . S
H3507 C3520 0.960 . S
C3508 H3500 0.929 . S
C3508 C3509 1.377 . S
C3508 C3510 1.384 . S
C3509 C3508 1.377 . S
C3509 C3515 1.390 . S
C3510 H3501 0.930 . S
C3510 C3508 1.384 . S
C3510 C3511 1.372 . S
C3511 C3510 1.372 . S
C3511 C3512 1.400 . S
C3511 C3516 1.490 . S
C3512 H3502 0.930 . S
C3512 C3511 1.400 . S
C3512 C3515 1.386 . S
H3513 C3529 0.930 . S
H3514 C3530 0.931 . S
C3515 H3503 0.929 . S
C3515 C3509 1.390 . S
C3515 C3512 1.386 . S
C3516 C3511 1.490 . S
C3516 C3518 1.395 . S
C3516 C3519 1.403 . S
H3517 C3523 0.930 . S
C3518 H3504 0.930 . S
C3518 C3516 1.395 . S
C3518 C3521 1.403 . S
C3519 C3516 1.403 . S
C3519 C3520 1.524 . S
C3519 C3523 1.400 . S
C3520 H3505 0.960 . S
C3520 H3506 0.960 . S
C3520 H3507 0.960 . S
C3520 C3519 1.524 . S
C3521 C3518 1.403 . S
C3521 C3522 1.392 . S
C3521 C3525 1.495 . S
C3522 C3521 1.392 . S
C3522 C3523 1.385 . S
C3522 C3524 1.478 . S
C3523 H3517 0.930 . S
C3523 C3519 1.400 . S
C3523 C3522 1.385 . S
C3524 C3522 1.478 . S
C3524 C3526 1.381 . S
C3524 C3530 1.383 . S
C3525 C3521 1.495 . S
C3525 H3531 0.959 . S
C3525 H3532 0.961 . S
C3525 H3533 0.960 . S
C3526 C3524 1.381 . S
C3526 C3527 1.394 . S
C3526 H3534 0.930 . S
C3527 C3526 1.394 . S
C3527 C3528 1.383 . S
C3527 H3535 0.929 . S
C3528 C3527 1.383 . S
C3528 C3529 1.377 . S
C3529 H3513 0.930 . S
C3529 C3528 1.377 . S
C3529 C3530 1.379 . S
C3530 H3514 0.931 . S
C3530 C3524 1.383 . S
C3530 C3529 1.379 . S
H3531 C3525 0.959 . S
H3532 C3525 0.961 . S
H3533 C3525 0.960 . S
H3534 C3526 0.930 . S
H3535 C3527 0.929 . S
H3536 C3544 0.929 . S
H3537 C3546 0.930 . S
H3538 C3548 0.930 . S
H3539 C3551 0.929 . S
H3540 C3554 0.930 . S
H3541 C3556 0.960 . S
H3542 C3556 0.960 . S
H3543 C3556 0.960 . S
C3544 H3536 0.929 . S
C3544 C3545 1.377 . S
C3544 C3546 1.384 . S
C3545 C3544 1.377 . S
C3545 C3551 1.390 . S
C3546 H3537 0.930 . S
C3546 C3544 1.384 . S
C3546 C3547 1.372 . S
C3547 C3546 1.372 . S
C3547 C3548 1.400 . S
C3547 C3552 1.490 . S
C3548 H3538 0.930 . S
C3548 C3547 1.400 . S
C3548 C3551 1.386 . S
H3549 C3565 0.930 . S
H3550 C3566 0.931 . S
C3551 H3539 0.929 . S
C3551 C3545 1.390 . S
C3551 C3548 1.386 . S
C3552 C3547 1.490 . S
C3552 C3554 1.395 . S
C3552 C3555 1.403 . S
H3553 C3559 0.930 . S
C3554 H3540 0.930 . S
C3554 C3552 1.395 . S
C3554 C3557 1.403 . S
C3555 C3552 1.403 . S
C3555 C3556 1.524 . S
C3555 C3559 1.400 . S
C3556 H3541 0.960 . S
C3556 H3542 0.960 . S
C3556 H3543 0.960 . S
C3556 C3555 1.524 . S
C3557 C3554 1.403 . S
C3557 C3558 1.392 . S
C3557 C3561 1.495 . S
C3558 C3557 1.392 . S
C3558 C3559 1.385 . S
C3558 C3560 1.478 . S
C3559 H3553 0.930 . S
C3559 C3555 1.400 . S
C3559 C3558 1.385 . S
C3560 C3558 1.478 . S
C3560 C3562 1.381 . S
C3560 C3566 1.383 . S
C3561 C3557 1.495 . S
C3561 H3567 0.959 . S
C3561 H3568 0.961 . S
C3561 H3569 0.960 . S
C3562 C3560 1.381 . S
C3562 C3563 1.394 . S
C3562 H3570 0.930 . S
C3563 C3562 1.394 . S
C3563 C3564 1.383 . S
C3563 H3571 0.929 . S
C3564 C3563 1.383 . S
C3564 C3565 1.377 . S
C3565 H3549 0.930 . S
C3565 C3564 1.377 . S
C3565 C3566 1.379 . S
C3566 H3550 0.931 . S
C3566 C3560 1.383 . S
C3566 C3565 1.379 . S
H3567 C3561 0.959 . S
H3568 C3561 0.961 . S
H3569 C3561 0.960 . S
H3570 C3562 0.930 . S
H3571 C3563 0.929 . S
H3572 C3580 0.929 . S
H3573 C3582 0.930 . S
H3574 C3584 0.930 . S
H3575 C3587 0.929 . S
H3576 C3590 0.930 . S
H3577 C3592 0.960 . S
H3578 C3592 0.960 . S
H3579 C3592 0.960 . S
C3580 H3572 0.929 . S
C3580 C3581 1.377 . S
C3580 C3582 1.384 . S
C3581 C3580 1.377 . S
C3581 C3587 1.390 . S
C3582 H3573 0.930 . S
C3582 C3580 1.384 . S
C3582 C3583 1.372 . S
C3583 C3582 1.372 . S
C3583 C3584 1.400 . S
C3583 C3588 1.490 . S
C3584 H3574 0.930 . S
C3584 C3583 1.400 . S
C3584 C3587 1.386 . S
H3585 C3601 0.930 . S
H3586 C3602 0.931 . S
C3587 H3575 0.929 . S
C3587 C3581 1.390 . S
C3587 C3584 1.386 . S
C3588 C3583 1.490 . S
C3588 C3590 1.395 . S
C3588 C3591 1.403 . S
H3589 C3595 0.930 . S
C3590 H3576 0.930 . S
C3590 C3588 1.395 . S
C3590 C3593 1.403 . S
C3591 C3588 1.403 . S
C3591 C3592 1.524 . S
C3591 C3595 1.400 . S
C3592 H3577 0.960 . S
C3592 H3578 0.960 . S
C3592 H3579 0.960 . S
C3592 C3591 1.524 . S
C3593 C3590 1.403 . S
C3593 C3594 1.392 . S
C3593 C3597 1.495 . S
C3594 C3593 1.392 . S
C3594 C3595 1.385 . S
C3594 C3596 1.478 . S
C3595 H3589 0.930 . S
C3595 C3591 1.400 . S
C3595 C3594 1.385 . S
C3596 C3594 1.478 . S
C3596 C3598 1.381 . S
C3596 C3602 1.383 . S
C3597 C3593 1.495 . S
C3597 H3603 0.959 . S
C3597 H3604 0.961 . S
C3597 H3605 0.960 . S
C3598 C3596 1.381 . S
C3598 C3599 1.394 . S
C3598 H3606 0.930 . S
C3599 C3598 1.394 . S
C3599 C3600 1.383 . S
C3599 H3607 0.929 . S
C3600 C3599 1.383 . S
C3600 C3601 1.377 . S
C3601 H3585 0.930 . S
C3601 C3600 1.377 . S
C3601 C3602 1.379 . S
C3602 H3586 0.931 . S
C3602 C3596 1.383 . S
C3602 C3601 1.379 . S
H3603 C3597 0.959 . S
H3604 C3597 0.961 . S
H3605 C3597 0.960 . S
H3606 C3598 0.930 . S
H3607 C3599 0.929 . S
H3608 C3616 0.929 . S
H3609 C3618 0.930 . S
H3610 C3620 0.930 . S
H3611 C3623 0.929 . S
H3612 C3626 0.930 . S
H3613 C3628 0.960 . S
H3614 C3628 0.960 . S
H3615 C3628 0.960 . S
C3616 H3608 0.929 . S
C3616 C3617 1.377 . S
C3616 C3618 1.384 . S
C3617 C3616 1.377 . S
C3617 C3623 1.390 . S
C3618 H3609 0.930 . S
C3618 C3616 1.384 . S
C3618 C3619 1.372 . S
C3619 C3618 1.372 . S
C3619 C3620 1.400 . S
C3619 C3624 1.490 . S
C3620 H3610 0.930 . S
C3620 C3619 1.400 . S
C3620 C3623 1.386 . S
H3621 C3637 0.930 . S
H3622 C3638 0.931 1_455 S
C3623 H3611 0.929 . S
C3623 C3617 1.390 . S
C3623 C3620 1.386 . S
C3624 C3619 1.490 . S
C3624 C3626 1.395 . S
C3624 C3627 1.403 . S
H3625 C3631 0.930 . S
C3626 H3612 0.930 . S
C3626 C3624 1.395 . S
C3626 C3629 1.403 . S
C3627 C3624 1.403 . S
C3627 C3628 1.524 . S
C3627 C3631 1.400 . S
C3628 H3613 0.960 . S
C3628 H3614 0.960 . S
C3628 H3615 0.960 . S
C3628 C3627 1.524 . S
C3629 C3626 1.403 . S
C3629 C3630 1.392 . S
C3629 C3633 1.495 . S
C3630 C3629 1.392 . S
C3630 C3631 1.385 . S
C3630 C3632 1.478 . S
C3631 H3625 0.930 . S
C3631 C3627 1.400 . S
C3631 C3630 1.385 . S
C3632 C3630 1.478 . S
C3632 C3634 1.381 . S
C3632 C3638 1.383 . S
C3633 C3629 1.495 . S
C3633 H3639 0.959 . S
C3633 H3640 0.961 . S
C3633 H3641 0.960 . S
C3634 C3632 1.381 . S
C3634 C3635 1.394 . S
C3634 H3642 0.930 . S
C3635 C3634 1.394 . S
C3635 C3636 1.383 . S
C3635 H3643 0.929 . S
C3636 C3635 1.383 . S
C3636 C3637 1.377 1_655 S
C3637 H3621 0.930 . S
C3637 C3636 1.377 1_455 S
C3637 C3638 1.379 1_455 S
C3638 H3622 0.931 1_655 S
C3638 C3632 1.383 . S
C3638 C3637 1.379 1_655 S
H3639 C3633 0.959 . S
H3640 C3633 0.961 . S
H3641 C3633 0.960 . S
H3642 C3634 0.930 . S
H3643 C3635 0.929 . S
H3644 C3652 0.929 . S
H3645 C3654 0.930 . S
H3646 C3656 0.930 . S
H3647 C3659 0.929 . S
H3648 C3662 0.930 . S
H3649 C3664 0.960 . S
H3650 C3664 0.960 . S
H3651 C3664 0.960 . S
C3652 H3644 0.929 . S
C3652 C3653 1.377 . S
C3652 C3654 1.384 . S
C3653 C3652 1.377 . S
C3653 C3659 1.390 . S
C3654 H3645 0.930 . S
C3654 C3652 1.384 . S
C3654 C3655 1.372 . S
C3655 C3654 1.372 . S
C3655 C3656 1.400 . S
C3655 C3660 1.490 . S
C3656 H3646 0.930 . S
C3656 C3655 1.400 . S
C3656 C3659 1.386 . S
H3657 C3673 0.930 . S
H3658 C3674 0.931 . S
C3659 H3647 0.929 . S
C3659 C3653 1.390 . S
C3659 C3656 1.386 . S
C3660 C3655 1.490 . S
C3660 C3662 1.395 . S
C3660 C3663 1.403 . S
H3661 C3667 0.930 . S
C3662 H3648 0.930 . S
C3662 C3660 1.395 . S
C3662 C3665 1.403 . S
C3663 C3660 1.403 . S
C3663 C3664 1.524 . S
C3663 C3667 1.400 . S
C3664 H3649 0.960 . S
C3664 H3650 0.960 . S
C3664 H3651 0.960 . S
C3664 C3663 1.524 . S
C3665 C3662 1.403 . S
C3665 C3666 1.392 . S
C3665 C3669 1.495 . S
C3666 C3665 1.392 . S
C3666 C3667 1.385 . S
C3666 C3668 1.478 . S
C3667 H3661 0.930 . S
C3667 C3663 1.400 . S
C3667 C3666 1.385 . S
C3668 C3666 1.478 . S
C3668 C3670 1.381 . S
C3668 C3674 1.383 . S
C3669 C3665 1.495 . S
C3669 H3675 0.959 . S
C3669 H3676 0.961 . S
C3669 H3677 0.960 . S
C3670 C3668 1.381 . S
C3670 C3671 1.394 . S
C3670 H3678 0.930 . S
C3671 C3670 1.394 . S
C3671 C3672 1.383 . S
C3671 H3679 0.929 . S
C3672 C3671 1.383 . S
C3672 C3673 1.377 . S
C3673 H3657 0.930 . S
C3673 C3672 1.377 . S
C3673 C3674 1.379 . S
C3674 H3658 0.931 . S
C3674 C3668 1.383 . S
C3674 C3673 1.379 . S
H3675 C3669 0.959 . S
H3676 C3669 0.961 . S
H3677 C3669 0.960 . S
H3678 C3670 0.930 . S
H3679 C3671 0.929 . S
H3680 C3688 0.929 . S
H3681 C3690 0.930 . S
H3682 C3692 0.930 . S
H3683 C3695 0.929 . S
H3684 C3698 0.930 . S
H3685 C3700 0.960 . S
H3686 C3700 0.960 . S
H3687 C3700 0.960 . S
C3688 H3680 0.929 . S
C3688 C3689 1.377 . S
C3688 C3690 1.384 . S
C3689 C3688 1.377 . S
C3689 C3695 1.390 . S
C3690 H3681 0.930 . S
C3690 C3688 1.384 . S
C3690 C3691 1.372 . S
C3691 C3690 1.372 . S
C3691 C3692 1.400 . S
C3691 C3696 1.490 . S
C3692 H3682 0.930 . S
C3692 C3691 1.400 . S
C3692 C3695 1.386 . S
H3693 C3709 0.930 . S
H3694 C3710 0.931 . S
C3695 H3683 0.929 . S
C3695 C3689 1.390 . S
C3695 C3692 1.386 . S
C3696 C3691 1.490 . S
C3696 C3698 1.395 . S
C3696 C3699 1.403 . S
H3697 C3703 0.930 . S
C3698 H3684 0.930 . S
C3698 C3696 1.395 . S
C3698 C3701 1.403 . S
C3699 C3696 1.403 . S
C3699 C3700 1.524 . S
C3699 C3703 1.400 . S
C3700 H3685 0.960 . S
C3700 H3686 0.960 . S
C3700 H3687 0.960 . S
C3700 C3699 1.524 . S
C3701 C3698 1.403 . S
C3701 C3702 1.392 . S
C3701 C3705 1.495 . S
C3702 C3701 1.392 . S
C3702 C3703 1.385 . S
C3702 C3704 1.478 . S
C3703 H3697 0.930 . S
C3703 C3699 1.400 . S
C3703 C3702 1.385 . S
C3704 C3702 1.478 . S
C3704 C3706 1.381 . S
C3704 C3710 1.383 . S
C3705 C3701 1.495 . S
C3705 H3711 0.959 . S
C3705 H3712 0.961 . S
C3705 H3713 0.960 . S
C3706 C3704 1.381 . S
C3706 C3707 1.394 . S
C3706 H3714 0.930 . S
C3707 C3706 1.394 . S
C3707 C3708 1.383 . S
C3707 H3715 0.929 . S
C3708 C3707 1.383 . S
C3708 C3709 1.377 . S
C3709 H3693 0.930 . S
C3709 C3708 1.377 . S
C3709 C3710 1.379 . S
C3710 H3694 0.931 . S
C3710 C3704 1.383 . S
C3710 C3709 1.379 . S
H3711 C3705 0.959 . S
H3712 C3705 0.961 . S
H3713 C3705 0.960 . S
H3714 C3706 0.930 . S
H3715 C3707 0.929 . S
H3716 C3724 0.929 . S
H3717 C3726 0.930 . S
H3718 C3728 0.930 . S
H3719 C3731 0.929 . S
H3720 C3734 0.930 . S
H3721 C3736 0.960 . S
H3722 C3736 0.960 . S
H3723 C3736 0.960 . S
C3724 H3716 0.929 . S
C3724 C3725 1.377 . S
C3724 C3726 1.384 . S
C3725 C3724 1.377 . S
C3725 C3731 1.390 . S
C3726 H3717 0.930 . S
C3726 C3724 1.384 . S
C3726 C3727 1.372 . S
C3727 C3726 1.372 . S
C3727 C3728 1.400 . S
C3727 C3732 1.490 . S
C3728 H3718 0.930 . S
C3728 C3727 1.400 . S
C3728 C3731 1.386 . S
H3729 C3745 0.930 . S
H3730 C3746 0.931 . S
C3731 H3719 0.929 . S
C3731 C3725 1.390 . S
C3731 C3728 1.386 . S
C3732 C3727 1.490 . S
C3732 C3734 1.395 . S
C3732 C3735 1.403 . S
H3733 C3739 0.930 . S
C3734 H3720 0.930 . S
C3734 C3732 1.395 . S
C3734 C3737 1.403 . S
C3735 C3732 1.403 . S
C3735 C3736 1.524 . S
C3735 C3739 1.400 . S
C3736 H3721 0.960 . S
C3736 H3722 0.960 . S
C3736 H3723 0.960 . S
C3736 C3735 1.524 . S
C3737 C3734 1.403 . S
C3737 C3738 1.392 . S
C3737 C3741 1.495 . S
C3738 C3737 1.392 . S
C3738 C3739 1.385 . S
C3738 C3740 1.478 . S
C3739 H3733 0.930 . S
C3739 C3735 1.400 . S
C3739 C3738 1.385 . S
C3740 C3738 1.478 . S
C3740 C3742 1.381 . S
C3740 C3746 1.383 . S
C3741 C3737 1.495 . S
C3741 H3747 0.959 . S
C3741 H3748 0.961 . S
C3741 H3749 0.960 . S
C3742 C3740 1.381 . S
C3742 C3743 1.394 . S
C3742 H3750 0.930 . S
C3743 C3742 1.394 . S
C3743 C3744 1.383 . S
C3743 H3751 0.929 . S
C3744 C3743 1.383 . S
C3744 C3745 1.377 . S
C3745 H3729 0.930 . S
C3745 C3744 1.377 . S
C3745 C3746 1.379 . S
C3746 H3730 0.931 . S
C3746 C3740 1.383 . S
C3746 C3745 1.379 . S
H3747 C3741 0.959 . S
H3748 C3741 0.961 . S
H3749 C3741 0.960 . S
H3750 C3742 0.930 . S
H3751 C3743 0.929 . S
H3752 C3760 0.929 . S
H3753 C3762 0.930 . S
H3754 C3764 0.930 . S
H3755 C3767 0.929 . S
H3756 C3770 0.930 . S
H3757 C3772 0.960 . S
H3758 C3772 0.960 . S
H3759 C3772 0.960 . S
C3760 H3752 0.929 . S
C3760 C3761 1.377 . S
C3760 C3762 1.384 . S
C3761 C3760 1.377 . S
C3761 C3767 1.390 . S
C3762 H3753 0.930 . S
C3762 C3760 1.384 . S
C3762 C3763 1.372 . S
C3763 C3762 1.372 . S
C3763 C3764 1.400 . S
C3763 C3768 1.490 . S
C3764 H3754 0.930 . S
C3764 C3763 1.400 . S
C3764 C3767 1.386 . S
H3765 C3781 0.930 . S
H3766 C3782 0.931 . S
C3767 H3755 0.929 . S
C3767 C3761 1.390 . S
C3767 C3764 1.386 . S
C3768 C3763 1.490 . S
C3768 C3770 1.395 . S
C3768 C3771 1.403 . S
H3769 C3775 0.930 . S
C3770 H3756 0.930 . S
C3770 C3768 1.395 . S
C3770 C3773 1.403 . S
C3771 C3768 1.403 . S
C3771 C3772 1.524 . S
C3771 C3775 1.400 . S
C3772 H3757 0.960 . S
C3772 H3758 0.960 . S
C3772 H3759 0.960 . S
C3772 C3771 1.524 . S
C3773 C3770 1.403 . S
C3773 C3774 1.392 . S
C3773 C3777 1.495 . S
C3774 C3773 1.392 . S
C3774 C3775 1.385 . S
C3774 C3776 1.478 . S
C3775 H3769 0.930 . S
C3775 C3771 1.400 . S
C3775 C3774 1.385 . S
C3776 C3774 1.478 . S
C3776 C3778 1.381 . S
C3776 C3782 1.383 . S
C3777 C3773 1.495 . S
C3777 H3783 0.959 . S
C3777 H3784 0.961 . S
C3777 H3785 0.960 . S
C3778 C3776 1.381 . S
C3778 C3779 1.394 . S
C3778 H3786 0.930 . S
C3779 C3778 1.394 . S
C3779 C3780 1.383 . S
C3779 H3787 0.929 . S
C3780 C3779 1.383 . S
C3780 C3781 1.377 . S
C3781 H3765 0.930 . S
C3781 C3780 1.377 . S
C3781 C3782 1.379 . S
C3782 H3766 0.931 . S
C3782 C3776 1.383 . S
C3782 C3781 1.379 . S
H3783 C3777 0.959 . S
H3784 C3777 0.961 . S
H3785 C3777 0.960 . S
H3786 C3778 0.930 . S
H3787 C3779 0.929 . S
H3788 C3796 0.929 . S
H3789 C3798 0.930 . S
H3790 C3800 0.930 . S
H3791 C3803 0.929 . S
H3792 C3806 0.930 . S
H3793 C3808 0.960 . S
H3794 C3808 0.960 . S
H3795 C3808 0.960 . S
C3796 H3788 0.929 . S
C3796 C3797 1.377 . S
C3796 C3798 1.384 . S
C3797 C3796 1.377 . S
C3797 C3803 1.390 . S
C3798 H3789 0.930 . S
C3798 C3796 1.384 . S
C3798 C3799 1.372 . S
C3799 C3798 1.372 . S
C3799 C3800 1.400 . S
C3799 C3804 1.490 . S
C3800 H3790 0.930 . S
C3800 C3799 1.400 . S
C3800 C3803 1.386 . S
H3801 C3817 0.930 . S
H3802 C3818 0.931 . S
C3803 H3791 0.929 . S
C3803 C3797 1.390 . S
C3803 C3800 1.386 . S
C3804 C3799 1.490 . S
C3804 C3806 1.395 . S
C3804 C3807 1.403 . S
H3805 C3811 0.930 . S
C3806 H3792 0.930 . S
C3806 C3804 1.395 . S
C3806 C3809 1.403 . S
C3807 C3804 1.403 . S
C3807 C3808 1.524 . S
C3807 C3811 1.400 . S
C3808 H3793 0.960 . S
C3808 H3794 0.960 . S
C3808 H3795 0.960 . S
C3808 C3807 1.524 . S
C3809 C3806 1.403 . S
C3809 C3810 1.392 . S
C3809 C3813 1.495 . S
C3810 C3809 1.392 . S
C3810 C3811 1.385 . S
C3810 C3812 1.478 . S
C3811 H3805 0.930 . S
C3811 C3807 1.400 . S
C3811 C3810 1.385 . S
C3812 C3810 1.478 . S
C3812 C3814 1.381 . S
C3812 C3818 1.383 . S
C3813 C3809 1.495 . S
C3813 H3819 0.959 . S
C3813 H3820 0.961 . S
C3813 H3821 0.960 . S
C3814 C3812 1.381 . S
C3814 C3815 1.394 . S
C3814 H3822 0.930 . S
C3815 C3814 1.394 . S
C3815 C3816 1.383 . S
C3815 H3823 0.929 . S
C3816 C3815 1.383 . S
C3816 C3817 1.377 . S
C3817 H3801 0.930 . S
C3817 C3816 1.377 . S
C3817 C3818 1.379 . S
C3818 H3802 0.931 . S
C3818 C3812 1.383 . S
C3818 C3817 1.379 . S
H3819 C3813 0.959 . S
H3820 C3813 0.961 . S
H3821 C3813 0.960 . S
H3822 C3814 0.930 . S
H3823 C3815 0.929 . S
H3824 C3832 0.929 . S
H3825 C3834 0.930 . S
H3826 C3836 0.930 . S
H3827 C3839 0.929 . S
H3828 C3842 0.930 . S
H3829 C3844 0.960 . S
H3830 C3844 0.960 . S
H3831 C3844 0.960 . S
C3832 H3824 0.929 . S
C3832 C3833 1.377 . S
C3832 C3834 1.384 . S
C3833 C3832 1.377 . S
C3833 C3839 1.390 . S
C3834 H3825 0.930 . S
C3834 C3832 1.384 . S
C3834 C3835 1.372 . S
C3835 C3834 1.372 . S
C3835 C3836 1.400 . S
C3835 C3840 1.490 . S
C3836 H3826 0.930 . S
C3836 C3835 1.400 . S
C3836 C3839 1.386 . S
H3837 C3853 0.930 . S
H3838 C3854 0.931 . S
C3839 H3827 0.929 . S
C3839 C3833 1.390 . S
C3839 C3836 1.386 . S
C3840 C3835 1.490 . S
C3840 C3842 1.395 . S
C3840 C3843 1.403 . S
H3841 C3847 0.930 . S
C3842 H3828 0.930 . S
C3842 C3840 1.395 . S
C3842 C3845 1.403 . S
C3843 C3840 1.403 . S
C3843 C3844 1.524 . S
C3843 C3847 1.400 . S
C3844 H3829 0.960 . S
C3844 H3830 0.960 . S
C3844 H3831 0.960 . S
C3844 C3843 1.524 . S
C3845 C3842 1.403 . S
C3845 C3846 1.392 . S
C3845 C3849 1.495 . S
C3846 C3845 1.392 . S
C3846 C3847 1.385 . S
C3846 C3848 1.478 . S
C3847 H3841 0.930 . S
C3847 C3843 1.400 . S
C3847 C3846 1.385 . S
C3848 C3846 1.478 . S
C3848 C3850 1.381 . S
C3848 C3854 1.383 . S
C3849 C3845 1.495 . S
C3849 H3855 0.959 . S
C3849 H3856 0.961 . S
C3849 H3857 0.960 . S
C3850 C3848 1.381 . S
C3850 C3851 1.394 . S
C3850 H3858 0.930 . S
C3851 C3850 1.394 . S
C3851 C3852 1.383 . S
C3851 H3859 0.929 . S
C3852 C3851 1.383 . S
C3852 C3853 1.377 . S
C3853 H3837 0.930 . S
C3853 C3852 1.377 . S
C3853 C3854 1.379 . S
C3854 H3838 0.931 . S
C3854 C3848 1.383 . S
C3854 C3853 1.379 . S
H3855 C3849 0.959 . S
H3856 C3849 0.961 . S
H3857 C3849 0.960 . S
H3858 C3850 0.930 . S
H3859 C3851 0.929 . S
H3860 C3868 0.929 . S
H3861 C3870 0.930 . S
H3862 C3872 0.930 . S
H3863 C3875 0.929 . S
H3864 C3878 0.930 . S
H3865 C3880 0.960 . S
H3866 C3880 0.960 . S
H3867 C3880 0.960 . S
C3868 H3860 0.929 . S
C3868 C3869 1.377 . S
C3868 C3870 1.384 . S
C3869 C3868 1.377 . S
C3869 C3875 1.390 . S
C3870 H3861 0.930 . S
C3870 C3868 1.384 . S
C3870 C3871 1.372 . S
C3871 C3870 1.372 . S
C3871 C3872 1.400 . S
C3871 C3876 1.490 . S
C3872 H3862 0.930 . S
C3872 C3871 1.400 . S
C3872 C3875 1.386 . S
H3873 C3889 0.930 . S
H3874 C3890 0.931 . S
C3875 H3863 0.929 . S
C3875 C3869 1.390 . S
C3875 C3872 1.386 . S
C3876 C3871 1.490 . S
C3876 C3878 1.395 . S
C3876 C3879 1.403 . S
H3877 C3883 0.930 . S
C3878 H3864 0.930 . S
C3878 C3876 1.395 . S
C3878 C3881 1.403 . S
C3879 C3876 1.403 . S
C3879 C3880 1.524 . S
C3879 C3883 1.400 . S
C3880 H3865 0.960 . S
C3880 H3866 0.960 . S
C3880 H3867 0.960 . S
C3880 C3879 1.524 . S
C3881 C3878 1.403 . S
C3881 C3882 1.392 . S
C3881 C3885 1.495 . S
C3882 C3881 1.392 . S
C3882 C3883 1.385 . S
C3882 C3884 1.478 . S
C3883 H3877 0.930 . S
C3883 C3879 1.400 . S
C3883 C3882 1.385 . S
C3884 C3882 1.478 . S
C3884 C3886 1.381 . S
C3884 C3890 1.383 . S
C3885 C3881 1.495 . S
C3885 H3891 0.959 . S
C3885 H3892 0.961 . S
C3885 H3893 0.960 . S
C3886 C3884 1.381 . S
C3886 C3887 1.394 . S
C3886 H3894 0.930 . S
C3887 C3886 1.394 . S
C3887 C3888 1.383 . S
C3887 H3895 0.929 1_565 S
C3888 C3887 1.383 . S
C3888 C3889 1.377 . S
C3889 H3873 0.930 . S
C3889 C3888 1.377 . S
C3889 C3890 1.379 . S
C3890 H3874 0.931 . S
C3890 C3884 1.383 . S
C3890 C3889 1.379 . S
H3891 C3885 0.959 . S
H3892 C3885 0.961 . S
H3893 C3885 0.960 . S
H3894 C3886 0.930 . S
H3895 C3887 0.929 1_545 S
H3896 C3904 0.929 . S
H3897 C3906 0.930 . S
H3898 C3908 0.930 . S
H3899 C3911 0.929 . S
H3900 C3914 0.930 . S
H3901 C3916 0.960 . S
H3902 C3916 0.960 . S
H3903 C3916 0.960 . S
C3904 H3896 0.929 . S
C3904 C3905 1.377 . S
C3904 C3906 1.384 . S
C3905 C3904 1.377 . S
C3905 C3911 1.390 . S
C3906 H3897 0.930 . S
C3906 C3904 1.384 . S
C3906 C3907 1.372 . S
C3907 C3906 1.372 . S
C3907 C3908 1.400 . S
C3907 C3912 1.490 . S
C3908 H3898 0.930 . S
C3908 C3907 1.400 . S
C3908 C3911 1.386 . S
H3909 C3925 0.930 . S
H3910 C3926 0.931 . S
C3911 H3899 0.929 . S
C3911 C3905 1.390 . S
C3911 C3908 1.386 . S
C3912 C3907 1.490 . S
C3912 C3914 1.395 . S
C3912 C3915 1.403 . S
H3913 C3919 0.930 . S
C3914 H3900 0.930 . S
C3914 C3912 1.395 . S
C3914 C3917 1.403 . S
C3915 C3912 1.403 . S
C3915 C3916 1.524 . S
C3915 C3919 1.400 . S
C3916 H3901 0.960 . S
C3916 H3902 0.960 . S
C3916 H3903 0.960 . S
C3916 C3915 1.524 . S
C3917 C3914 1.403 . S
C3917 C3918 1.392 . S
C3917 C3921 1.495 . S
C3918 C3917 1.392 . S
C3918 C3919 1.385 . S
C3918 C3920 1.478 . S
C3919 H3913 0.930 . S
C3919 C3915 1.400 . S
C3919 C3918 1.385 . S
C3920 C3918 1.478 . S
C3920 C3922 1.381 . S
C3920 C3926 1.383 . S
C3921 C3917 1.495 . S
C3921 H3927 0.959 . S
C3921 H3928 0.961 . S
C3921 H3929 0.960 . S
C3922 C3920 1.381 . S
C3922 C3923 1.394 . S
C3922 H3930 0.930 . S
C3923 C3922 1.394 . S
C3923 C3924 1.383 . S
C3923 H3931 0.929 . S
C3924 C3923 1.383 . S
C3924 C3925 1.377 . S
C3925 H3909 0.930 . S
C3925 C3924 1.377 . S
C3925 C3926 1.379 . S
C3926 H3910 0.931 . S
C3926 C3920 1.383 . S
C3926 C3925 1.379 . S
H3927 C3921 0.959 . S
H3928 C3921 0.961 . S
H3929 C3921 0.960 . S
H3930 C3922 0.930 . S
H3931 C3923 0.929 . S
H3932 C3940 0.929 1_556 S
H3933 C3942 0.930 1_556 S
H3934 C3944 0.930 . S
H3935 C3947 0.929 . S
H3936 C3950 0.930 . S
H3937 C3952 0.956 1_556 S
H3938 C3952 0.960 1_556 S
H3939 C3952 0.960 . S
C3940 H3932 0.929 1_554 S
C3940 C3941 1.377 . S
C3940 C3942 1.384 . S
C3941 C3940 1.377 . S
C3941 C3947 1.390 . S
C3942 H3933 0.930 1_554 S
C3942 C3940 1.384 . S
C3942 C3943 1.372 . S
C3943 C3942 1.372 . S
C3943 C3944 1.400 . S
C3943 C3948 1.490 . S
C3944 H3934 0.930 . S
C3944 C3943 1.400 . S
C3944 C3947 1.386 . S
H3945 C3961 0.930 . S
H3946 C3962 0.931 . S
C3947 H3935 0.929 . S
C3947 C3941 1.390 . S
C3947 C3944 1.386 . S
C3948 C3943 1.490 . S
C3948 C3950 1.395 . S
C3948 C3951 1.403 . S
H3949 C3955 0.930 . S
C3950 H3936 0.930 . S
C3950 C3948 1.395 . S
C3950 C3953 1.403 . S
C3951 C3948 1.403 . S
C3951 C3952 1.524 . S
C3951 C3955 1.400 . S
C3952 H3937 0.956 1_554 S
C3952 H3938 0.960 1_554 S
C3952 H3939 0.960 . S
C3952 C3951 1.524 . S
C3953 C3950 1.403 . S
C3953 C3954 1.392 . S
C3953 C3957 1.495 . S
C3954 C3953 1.392 . S
C3954 C3955 1.385 . S
C3954 C3956 1.478 . S
C3955 H3949 0.930 . S
C3955 C3951 1.400 . S
C3955 C3954 1.385 . S
C3956 C3954 1.478 . S
C3956 C3958 1.381 . S
C3956 C3962 1.383 . S
C3957 C3953 1.495 . S
C3957 H3963 0.959 . S
C3957 H3964 0.961 . S
C3957 H3965 0.960 . S
C3958 C3956 1.381 . S
C3958 C3959 1.394 . S
C3958 H3966 0.930 . S
C3959 C3958 1.394 . S
C3959 C3960 1.383 . S
C3959 H3967 0.929 . S
C3960 C3959 1.383 . S
C3960 C3961 1.377 . S
C3961 H3945 0.930 . S
C3961 C3960 1.377 . S
C3961 C3962 1.379 . S
C3962 H3946 0.931 . S
C3962 C3956 1.383 . S
C3962 C3961 1.379 . S
H3963 C3957 0.959 . S
H3964 C3957 0.961 . S
H3965 C3957 0.960 . S
H3966 C3958 0.930 . S
H3967 C3959 0.929 . S
H3968 C3976 0.929 . S
H3969 C3978 0.930 . S
H3970 C3980 0.930 . S
H3971 C3983 0.929 . S
H3972 C3986 0.930 . S
H3973 C3988 0.960 . S
H3974 C3988 0.960 . S
H3975 C3988 0.960 . S
C3976 H3968 0.929 . S
C3976 C3977 1.377 . S
C3976 C3978 1.384 . S
C3977 C3976 1.377 . S
C3977 C3983 1.390 . S
C3978 H3969 0.930 . S
C3978 C3976 1.384 . S
C3978 C3979 1.372 . S
C3979 C3978 1.372 . S
C3979 C3980 1.400 . S
C3979 C3984 1.490 . S
C3980 H3970 0.930 . S
C3980 C3979 1.400 . S
C3980 C3983 1.386 . S
H3981 C3997 0.930 . S
H3982 C3998 0.931 . S
C3983 H3971 0.929 . S
C3983 C3977 1.390 . S
C3983 C3980 1.386 . S
C3984 C3979 1.490 . S
C3984 C3986 1.395 . S
C3984 C3987 1.403 . S
H3985 C3991 0.930 . S
C3986 H3972 0.930 . S
C3986 C3984 1.395 . S
C3986 C3989 1.403 . S
C3987 C3984 1.403 . S
C3987 C3988 1.524 . S
C3987 C3991 1.400 . S
C3988 H3973 0.960 . S
C3988 H3974 0.960 . S
C3988 H3975 0.960 . S
C3988 C3987 1.524 . S
C3989 C3986 1.403 . S
C3989 C3990 1.392 . S
C3989 C3993 1.495 . S
C3990 C3989 1.392 . S
C3990 C3991 1.385 . S
C3990 C3992 1.478 . S
C3991 H3985 0.930 . S
C3991 C3987 1.400 . S
C3991 C3990 1.385 . S
C3992 C3990 1.478 . S
C3992 C3994 1.381 . S
C3992 C3998 1.383 . S
C3993 C3989 1.495 . S
C3993 H3999 0.959 . S
C3993 H4000 0.961 . S
C3993 H4001 0.960 . S
C3994 C3992 1.381 . S
C3994 C3995 1.394 . S
C3994 H4002 0.930 . S
C3995 C3994 1.394 . S
C3995 C3996 1.383 . S
C3995 H4003 0.929 . S
C3996 C3995 1.383 . S
C3996 C3997 1.377 . S
C3997 H3981 0.930 . S
C3997 C3996 1.377 . S
C3997 C3998 1.379 . S
C3998 H3982 0.931 . S
C3998 C3992 1.383 . S
C3998 C3997 1.379 . S
H3999 C3993 0.959 . S
H4000 C3993 0.961 . S
H4001 C3993 0.960 . S
H4002 C3994 0.930 . S
H4003 C3995 0.929 . S
H4004 C4012 0.929 . S
H4005 C4014 0.930 . S
H4006 C4016 0.930 . S
H4007 C4019 0.929 . S
H4008 C4022 0.930 . S
H4009 C4024 0.960 . S
H4010 C4024 0.960 . S
H4011 C4024 0.960 . S
C4012 H4004 0.929 . S
C4012 C4013 1.377 . S
C4012 C4014 1.384 . S
C4013 C4012 1.377 . S
C4013 C4019 1.390 . S
C4014 H4005 0.930 . S
C4014 C4012 1.384 . S
C4014 C4015 1.372 . S
C4015 C4014 1.372 . S
C4015 C4016 1.400 . S
C4015 C4020 1.490 . S
C4016 H4006 0.930 . S
C4016 C4015 1.400 . S
C4016 C4019 1.386 . S
H4017 C4033 0.930 . S
H4018 C4034 0.931 . S
C4019 H4007 0.929 . S
C4019 C4013 1.390 . S
C4019 C4016 1.386 . S
C4020 C4015 1.490 . S
C4020 C4022 1.395 . S
C4020 C4023 1.403 . S
H4021 C4027 0.930 . S
C4022 H4008 0.930 . S
C4022 C4020 1.395 . S
C4022 C4025 1.403 . S
C4023 C4020 1.403 . S
C4023 C4024 1.524 . S
C4023 C4027 1.400 . S
C4024 H4009 0.960 . S
C4024 H4010 0.960 . S
C4024 H4011 0.960 . S
C4024 C4023 1.524 . S
C4025 C4022 1.403 . S
C4025 C4026 1.392 . S
C4025 C4029 1.495 . S
C4026 C4025 1.392 . S
C4026 C4027 1.385 . S
C4026 C4028 1.478 . S
C4027 H4021 0.930 . S
C4027 C4023 1.400 . S
C4027 C4026 1.385 . S
C4028 C4026 1.478 . S
C4028 C4030 1.381 . S
C4028 C4034 1.383 . S
C4029 C4025 1.495 . S
C4029 H4035 0.959 . S
C4029 H4036 0.961 . S
C4029 H4037 0.960 . S
C4030 C4028 1.381 . S
C4030 C4031 1.394 . S
C4030 H4038 0.930 . S
C4031 C4030 1.394 . S
C4031 C4032 1.383 . S
C4031 H4039 0.929 . S
C4032 C4031 1.383 . S
C4032 C4033 1.377 . S
C4033 H4017 0.930 . S
C4033 C4032 1.377 . S
C4033 C4034 1.379 . S
C4034 H4018 0.931 . S
C4034 C4028 1.383 . S
C4034 C4033 1.379 . S
H4035 C4029 0.959 . S
H4036 C4029 0.961 . S
H4037 C4029 0.960 . S
H4038 C4030 0.930 . S
H4039 C4031 0.929 . S
H4040 C4048 0.929 . S
H4041 C4050 0.930 . S
H4042 C4052 0.930 . S
H4043 C4055 0.929 . S
H4044 C4058 0.930 . S
H4045 C4060 0.960 . S
H4046 C4060 0.960 . S
H4047 C4060 0.960 . S
C4048 H4040 0.929 . S
C4048 C4049 1.377 . S
C4048 C4050 1.384 . S
C4049 C4048 1.377 . S
C4049 C4055 1.390 . S
C4050 H4041 0.930 . S
C4050 C4048 1.384 . S
C4050 C4051 1.372 . S
C4051 C4050 1.372 . S
C4051 C4052 1.400 . S
C4051 C4056 1.490 . S
C4052 H4042 0.930 . S
C4052 C4051 1.400 . S
C4052 C4055 1.386 . S
H4053 C4069 0.930 . S
H4054 C4070 0.931 . S
C4055 H4043 0.929 . S
C4055 C4049 1.390 . S
C4055 C4052 1.386 . S
C4056 C4051 1.490 . S
C4056 C4058 1.395 . S
C4056 C4059 1.403 . S
H4057 C4063 0.930 . S
C4058 H4044 0.930 . S
C4058 C4056 1.395 . S
C4058 C4061 1.403 . S
C4059 C4056 1.403 . S
C4059 C4060 1.524 . S
C4059 C4063 1.400 . S
C4060 H4045 0.960 . S
C4060 H4046 0.960 . S
C4060 H4047 0.960 . S
C4060 C4059 1.524 . S
C4061 C4058 1.403 . S
C4061 C4062 1.392 . S
C4061 C4065 1.495 . S
C4062 C4061 1.392 . S
C4062 C4063 1.385 . S
C4062 C4064 1.478 . S
C4063 H4057 0.930 . S
C4063 C4059 1.400 . S
C4063 C4062 1.385 . S
C4064 C4062 1.478 . S
C4064 C4066 1.381 . S
C4064 C4070 1.383 . S
C4065 C4061 1.495 . S
C4065 H4071 0.959 . S
C4065 H4072 0.961 . S
C4065 H4073 0.960 . S
C4066 C4064 1.381 . S
C4066 C4067 1.394 . S
C4066 H4074 0.930 . S
C4067 C4066 1.394 . S
C4067 C4068 1.383 . S
C4067 H4075 0.929 . S
C4068 C4067 1.383 . S
C4068 C4069 1.377 . S
C4069 H4053 0.930 . S
C4069 C4068 1.377 . S
C4069 C4070 1.379 . S
C4070 H4054 0.931 . S
C4070 C4064 1.383 . S
C4070 C4069 1.379 . S
H4071 C4065 0.959 . S
H4072 C4065 0.961 . S
H4073 C4065 0.960 . S
H4074 C4066 0.930 . S
H4075 C4067 0.929 . S
H4076 C4084 0.929 . S
H4077 C4086 0.930 . S
H4078 C4088 0.930 . S
H4079 C4091 0.929 . S
H4080 C4094 0.930 . S
H4081 C4096 0.960 . S
H4082 C4096 0.960 . S
H4083 C4096 0.960 . S
C4084 H4076 0.929 . S
C4084 C4085 1.377 . S
C4084 C4086 1.384 . S
C4085 C4084 1.377 . S
C4085 C4091 1.390 . S
C4086 H4077 0.930 . S
C4086 C4084 1.384 . S
C4086 C4087 1.372 . S
C4087 C4086 1.372 . S
C4087 C4088 1.400 . S
C4087 C4092 1.490 . S
C4088 H4078 0.930 . S
C4088 C4087 1.400 . S
C4088 C4091 1.386 . S
H4089 C4105 0.930 . S
H4090 C4106 0.931 . S
C4091 H4079 0.929 . S
C4091 C4085 1.390 . S
C4091 C4088 1.386 . S
C4092 C4087 1.490 . S
C4092 C4094 1.395 . S
C4092 C4095 1.403 . S
H4093 C4099 0.930 . S
C4094 H4080 0.930 . S
C4094 C4092 1.395 . S
C4094 C4097 1.403 . S
C4095 C4092 1.403 . S
C4095 C4096 1.524 . S
C4095 C4099 1.400 . S
C4096 H4081 0.960 . S
C4096 H4082 0.960 . S
C4096 H4083 0.960 . S
C4096 C4095 1.524 . S
C4097 C4094 1.403 . S
C4097 C4098 1.392 . S
C4097 C4101 1.495 . S
C4098 C4097 1.392 . S
C4098 C4099 1.385 . S
C4098 C4100 1.478 . S
C4099 H4093 0.930 . S
C4099 C4095 1.400 . S
C4099 C4098 1.385 . S
C4100 C4098 1.478 . S
C4100 C4102 1.381 . S
C4100 C4106 1.383 . S
C4101 C4097 1.495 . S
C4101 H4107 0.959 . S
C4101 H4108 0.961 . S
C4101 H4109 0.960 . S
C4102 C4100 1.381 . S
C4102 C4103 1.394 . S
C4102 H4110 0.930 . S
C4103 C4102 1.394 . S
C4103 C4104 1.383 . S
C4103 H4111 0.929 . S
C4104 C4103 1.383 . S
C4104 C4105 1.377 . S
C4105 H4089 0.930 . S
C4105 C4104 1.377 . S
C4105 C4106 1.379 . S
C4106 H4090 0.931 . S
C4106 C4100 1.383 . S
C4106 C4105 1.379 . S
H4107 C4101 0.959 . S
H4108 C4101 0.961 . S
H4109 C4101 0.960 . S
H4110 C4102 0.930 . S
H4111 C4103 0.929 . S
C665 C106 1.700 . S
C684 C340 1.463 . S
C701 C65 1.414 . S
C720 C375 1.366 . S
C737 C79 1.396 . S
C756 C380 1.221 . S
C792 C405 1.149 . S
C773 C90 1.165 . S
C809 C21 1.190 . S
C828 C425 1.130 . S
C864 C440 0.892 . S
C845 C35 0.977 . S
C900 C475 1.470 . S
C881 C50 1.483 . S
C917 C6 1.299 . S
C936 C480 1.141 . S
C972 C355 1.635 1_655 S
C953 C232 1.737 . S
C989 C245 0.913 . S
C1008 C365 0.847 . S
C1044 C395 1.439 . S
C1025 C274 1.477 . S
C1080 C400 1.071 . S
C1061 C175 1.110 . S
C1097 C231 0.925 . S
C1116 C420 0.840 . S
C1152 C455 1.318 . S
C1133 C246 1.385 . S
C1188 C465 0.735 . S
C1169 C273 0.779 . S
C1224 C495 1.537 . S
C1205 C176 1.650 . S
C1260 C345 1.243 . S
C1241 C160 1.359 . S
C1277 C289 1.719 1_554 S
C1296 C515 1.680 . S
C1332 C525 1.410 . S
C1313 C328 1.461 . S
C1368 C540 1.052 . S
C1349 C317 1.152 . S
C1385 C118 1.310 . S
C1404 C485 1.244 . S
C1421 C132 1.467 . S
C1440 C385 1.381 . S
C1457 C331 1.808 . S
C1476 C575 1.762 . S
C1512 C580 1.098 . S
C1493 C303 1.199 . S
C1548 C338 1.102 . S
C1529 C63 1.240 . S
C1584 C594 1.754 . S
C1565 C107 1.794 . S
C1601 C92 1.152 . S
C1620 C378 1.008 . S
C1637 C78 1.793 . S
C1656 C568 1.698 . S
C1692 C428 1.726 . S
C1673 C8 1.789 . S
C1709 C51 1.156 . S
C1728 C518 1.043 . S
C1764 C474 1.774 . S
C1745 C37 1.788 . S
C1800 C598 1.069 . S
C1781 C20 1.238 . S
C1836 C354 1.438 . S
C1817 C147 1.454 . S
C1872 C588 1.099 . S
C1853 C316 1.133 . S
C1889 C119 1.387 . S
C1908 C394 1.365 . S
C1925 C288 1.276 . S
C1944 C558 1.209 . S
C1961 C148 1.277 . S
C1980 C418 1.133 . S
C2016 C534 1.360 . S
C1997 C315 1.391 . S
C2033 C120 1.137 . S
C2052 C468 1.034 . S
C2069 C287 1.455 . S
C2088 C614 1.439 . S
C2105 C188 1.207 . S
C2124 C348 1.189 . S
C2141 C177 2.047 . S
C2160 C514 2.018 . S
C2177 C258 1.570 . S
C2196 C448 1.536 . S
C2213 C247 1.208 . S
C2232 C538 1.069 . S
C2268 C608 1.156 . S
C2249 C272 1.218 . S
C2285 C216 1.313 . S
C2304 C388 1.295 . S
C2340 C414 2.027 . S
C2321 C261 2.042 . S
C2376 C358 1.121 . S
C2357 C205 1.208 . S
C2393 C76 1.302 . S
C2412 C620 1.225 . S
C2448 C595 1.438 . S
C2429 C93 1.486 . S
C2465 C105 0.970 . S
C2484 C640 0.860 . S
C2501 C62 1.200 . S
C2520 C565 1.190 . S
C2537 C49 1.157 . S
C2556 C505 1.135 . S
C2592 C520 1.290 . S
C2573 C9 1.396 . S
C2628 C555 1.395 . S
C2609 C22 1.410 . S
C2664 C600 1.471 . S
C2645 C36 1.704 . S
C2700 C635 1.569 . S
C2681 C260 1.648 . S
C2717 C189 0.781 . S
C2736 C585 0.755 . S
C2772 C655 1.317 . S
C2753 C204 1.385 . S
C2808 C560 0.869 . S
C2789 C217 0.932 . S
C2844 C500 1.061 . S
C2825 C259 1.109 . S
C2861 C190 1.489 . S
C2880 C535 1.472 . S
C2916 C545 0.955 . S
C2897 C203 0.925 . S
C2933 C218 1.732 . S
C2952 C615 1.643 . S
C2988 C625 1.181 . S
C2969 C314 1.303 . S
C3005 C135 1.810 . S
C3024 C435 1.761 . S
C3060 C445 1.321 . S
C3041 C146 1.380 . S
C3096 C460 1.084 . S
C3077 C163 1.199 . S
C3132 C605 1.262 . S
C3113 C300 1.362 . S
C3149 C286 1.379 . S
C3168 C645 1.305 . S
C3204 C415 1.672 . S
C3185 C149 1.729 . S
C3240 C360 1.065 . S
C3221 C121 1.146 . S
C3257 C91 1.202 . S
C3276 C618 1.039 . S
C3312 C374 1.371 . S
C3293 C77 1.369 . S
C3329 C64 1.122 . S
C3348 C638 1.041 . S
C3365 C104 1.406 . S
C3384 C408 1.329 . S
C3401 C34 1.413 . S
C3420 C508 1.336 . S
C3456 C438 1.042 . S
C3437 C23 1.111 . S
C3473 C7 1.372 . S
C3492 C554 1.345 . S
C3509 C48 1.196 . S
C3528 C478 1.148 . S
C3564 C634 1.455 . S
C3545 C329 1.451 . S
C3581 C162 1.139 . S
C3600 C368 1.108 . S
C3636 C654 1.381 1_656 S
C3617 C301 1.405 . S
C3653 C134 1.279 . S
C3672 C398 1.136 . S
C3689 C330 1.279 . S
C3708 C498 1.224 . S
C3744 C454 1.421 . S
C3725 C161 1.395 . S
C3761 C302 1.139 . S
C3780 C548 1.091 . S
C3816 C494 1.413 . S
C3797 C133 1.454 . S
C3852 C628 1.391 . S
C3833 C244 1.455 . S
C3888 C434 2.012 1_565 S
C3869 C219 2.005 . S
C3905 C230 1.317 . S
C3924 C528 1.226 . S
C3960 C458 1.129 . S
C3941 C191 1.186 . S
C3977 C202 1.451 . S
C3996 C488 1.343 . S
C4013 C174 1.572 . S
C4032 C648 1.471 . S
C4068 C574 2.014 . S
C4049 C233 2.008 . S
C4104 C578 1.029 . S
C4085 C275 1.182 . S
