# Generated by pormake.
# Topology pyr, (3,6)-cn, num edge types: 1
# Building blocks:
#     Node 0, Type 0, BuildingBlock: OLANEW_clean_sbu_2, # of connection points: 3
#     Node 1, Type 0, BuildingBlock: OLANEW_clean_sbu_2, # of connection points: 3
#     Node 2, Type 0, BuildingBlock: OLANEW_clean_sbu_2, # of connection points: 3
#     Node 3, Type 0, BuildingBlock: OLANEW_clean_sbu_2, # of connection points: 3
#     Node 4, Type 0, BuildingBlock: OLANEW_clean_sbu_2, # of connection points: 3
#     Node 5, Type 0, BuildingBlock: OLANEW_clean_sbu_2, # of connection points: 3
#     Node 6, Type 0, BuildingBlock: OLANEW_clean_sbu_2, # of connection points: 3
#     Node 7, Type 0, BuildingBlock: OLANEW_clean_sbu_2, # of connection points: 3
#     Node 8, Type 1, BuildingBlock: BETDEL_clean_sbu_0, # of connection points: 6
#     Node 9, Type 1, BuildingBlock: BETDEL_clean_sbu_0, # of connection points: 6
#     Node 10, Type 1, BuildingBlock: BETDEL_clean_sbu_0, # of connection points: 6
#     Node 11, Type 1, BuildingBlock: BETDEL_clean_sbu_0, # of connection points: 6
#     Edge 12, Type (0, 1), BuildingBlock: EZIPEK_clean_linker_0, # of connection points: 2
#     Edge 13, Type (0, 1), BuildingBlock: EZIPEK_clean_linker_0, # of connection points: 2
#     Edge 14, Type (0, 1), BuildingBlock: EZIPEK_clean_linker_0, # of connection points: 2
#     Edge 15, Type (0, 1), BuildingBlock: EZIPEK_clean_linker_0, # of connection points: 2
#     Edge 16, Type (0, 1), BuildingBlock: EZIPEK_clean_linker_0, # of connection points: 2
#     Edge 17, Type (0, 1), BuildingBlock: EZIPEK_clean_linker_0, # of connection points: 2
#     Edge 18, Type (0, 1), BuildingBlock: EZIPEK_clean_linker_0, # of connection points: 2
#     Edge 19, Type (0, 1), BuildingBlock: EZIPEK_clean_linker_0, # of connection points: 2
#     Edge 20, Type (0, 1), BuildingBlock: EZIPEK_clean_linker_0, # of connection points: 2
#     Edge 21, Type (0, 1), BuildingBlock: EZIPEK_clean_linker_0, # of connection points: 2
#     Edge 22, Type (0, 1), BuildingBlock: EZIPEK_clean_linker_0, # of connection points: 2
#     Edge 23, Type (0, 1), BuildingBlock: EZIPEK_clean_linker_0, # of connection points: 2
#     Edge 24, Type (0, 1), BuildingBlock: EZIPEK_clean_linker_0, # of connection points: 2
#     Edge 25, Type (0, 1), BuildingBlock: EZIPEK_clean_linker_0, # of connection points: 2
#     Edge 26, Type (0, 1), BuildingBlock: EZIPEK_clean_linker_0, # of connection points: 2
#     Edge 27, Type (0, 1), BuildingBlock: EZIPEK_clean_linker_0, # of connection points: 2
#     Edge 28, Type (0, 1), BuildingBlock: EZIPEK_clean_linker_0, # of connection points: 2
#     Edge 29, Type (0, 1), BuildingBlock: EZIPEK_clean_linker_0, # of connection points: 2
#     Edge 30, Type (0, 1), BuildingBlock: EZIPEK_clean_linker_0, # of connection points: 2
#     Edge 31, Type (0, 1), BuildingBlock: EZIPEK_clean_linker_0, # of connection points: 2
#     Edge 32, Type (0, 1), BuildingBlock: EZIPEK_clean_linker_0, # of connection points: 2
#     Edge 33, Type (0, 1), BuildingBlock: EZIPEK_clean_linker_0, # of connection points: 2
#     Edge 34, Type (0, 1), BuildingBlock: EZIPEK_clean_linker_0, # of connection points: 2
#     Edge 35, Type (0, 1), BuildingBlock: EZIPEK_clean_linker_0, # of connection points: 2
# Relax obj value: 0.063
# Max RMSD: 0.141
# Mean RMSD: 0.109
data_MOF--net-pyr--node1-OLANEW_clean_sbu_2--node2-BETDEL_clean_sbu_0--edge1-EZIPEK_clean_linker_0
_symmetry_space_group_name_H-M    P1
_symmetry_Int_Tables_number       1
_symmetry_cell_setting            triclinic
loop_
_symmetry_equiv_pos_as_xyz
'x, y, z'
_cell_length_a     29.089397
_cell_length_b     31.043928
_cell_length_c     27.69817
_cell_angle_alpha  96.335955
_cell_angle_beta   87.545858
_cell_angle_gamma 100.9119
loop_
_atom_site_label
_atom_site_type_symbol
_atom_site_fract_x
_atom_site_fract_y
_atom_site_fract_z
_atom_type_partial_charge
O0 O 0.35138 0.24068 0.10553 0.0
Cd1 Cd 0.34233 0.31435 0.08687 0.0
O2 O 0.28049 0.21735 0.13427 0.0
Cd3 Cd 0.23149 0.16762 0.16947 0.0
O4 O 0.18961 0.1245 0.21821 0.0
C5 C 0.1917 0.13823 0.2631 0.0
O6 O 0.21853 0.17622 0.27703 0.0
C7 C 0.3219 0.21117 0.12427 0.0
C8 C 0.25719 0.34389 0.0899 0.0
O9 O 0.27301 0.32634 0.05008 0.0
O10 O 0.27955 0.34444 0.12895 0.0
O11 O 0.28625 0.83486 0.80335 0.0
Cd12 Cd 0.25955 0.78311 0.73374 0.0
O13 O 0.2195 0.85525 0.82723 0.0
Cd14 Cd 0.18454 0.82747 0.75953 0.0
O15 O 0.1493 0.84867 0.70062 0.0
C16 C 0.1568 0.89033 0.70035 0.0
O17 O 0.18412 0.91504 0.73322 0.0
C18 C 0.26254 0.85584 0.8338 0.0
C19 C 0.33048 0.73536 0.70854 0.0
O20 O 0.32926 0.77103 0.68974 0.0
O21 O 0.29765 0.72153 0.73852 0.0
O22 O 0.75219 0.4066 0.90459 0.0
Cd23 Cd 0.68123 0.37337 0.85907 0.0
O24 O 0.74521 0.36108 0.9618 0.0
Cd25 Cd 0.67745 0.32014 0.94291 0.0
O26 O 0.62707 0.25896 0.94929 0.0
C27 C 0.60947 0.25085 0.99088 0.0
O28 O 0.61966 0.28035 0.02849 0.0
C29 C 0.76796 0.39365 0.94155 0.0
C30 C 0.65043 0.42677 0.79525 0.0
O31 O 0.69159 0.41762 0.79182 0.0
O32 O 0.62396 0.41192 0.83013 0.0
O33 O 0.88232 0.73704 0.38612 0.0
Cd34 Cd 0.85305 0.6602 0.35375 0.0
O35 O 0.9381 0.71713 0.42481 0.0
Cd36 Cd 0.89771 0.6502 0.42236 0.0
O37 O 0.82843 0.62082 0.44955 0.0
C38 C 0.81005 0.64701 0.4796 0.0
O39 O 0.83349 0.68693 0.49185 0.0
C40 C 0.91893 0.74743 0.41164 0.0
C41 C 0.90482 0.62712 0.27504 0.0
O42 O 0.92041 0.63305 0.31829 0.0
O43 O 0.86533 0.63802 0.26867 0.0
O44 O 0.83302 0.80116 0.77611 0.0
Cd45 Cd 0.78939 0.74412 0.82242 0.0
O46 O 0.80086 0.84575 0.82757 0.0
Cd47 Cd 0.78183 0.90742 0.85915 0.0
O48 O 0.7298 0.93919 0.90045 0.0
C49 C 0.70628 0.91773 0.93269 0.0
O50 O 0.71561 0.87937 0.94064 0.0
C51 C 0.82745 0.84006 0.79079 0.0
C52 C 0.84907 0.71424 0.8806 0.0
O53 O 0.83896 0.69476 0.83814 0.0
O54 O 0.83073 0.74771 0.8961 0.0
O55 O 0.76459 0.18967 0.31049 0.0
Cd56 Cd 0.82795 0.22814 0.36332 0.0
O57 O 0.75764 0.24884 0.27606 0.0
Cd58 Cd 0.80035 0.29581 0.32798 0.0
O59 O 0.77881 0.35015 0.37459 0.0
C60 C 0.73729 0.34063 0.39163 0.0
O61 O 0.71403 0.30005 0.38374 0.0
C62 C 0.74584 0.20772 0.27937 0.0
C63 C 0.86813 0.17002 0.41082 0.0
O64 O 0.83143 0.18399 0.42813 0.0
O65 O 0.88613 0.18342 0.37084 0.0
O66 O 0.51514 0.79494 0.22074 0.0
Cd67 Cd 0.53608 0.72267 0.22917 0.0
O68 O 0.44376 0.76119 0.20341 0.0
Cd69 Cd 0.37312 0.7565 0.1778 0.0
O70 O 0.30284 0.72367 0.15673 0.0
C71 C 0.2956 0.70894 0.11257 0.0
O72 O 0.32981 0.71605 0.08022 0.0
C73 C 0.47436 0.79636 0.20707 0.0
C74 C 0.52092 0.68275 0.31552 0.0
O75 O 0.55793 0.71142 0.30873 0.0
O76 O 0.48961 0.6746 0.28286 0.0
O77 O 0.18044 0.44795 0.75224 0.0
Cd78 Cd 0.21229 0.40314 0.68455 0.0
O79 O 0.16955 0.39207 0.7969 0.0
Cd80 Cd 0.18441 0.34193 0.74026 0.0
O81 O 0.16075 0.27836 0.69854 0.0
C82 C 0.11676 0.26448 0.69726 0.0
O83 O 0.08837 0.28879 0.71967 0.0
C84 C 0.16774 0.432 0.7922 0.0
C85 C 0.29681 0.43988 0.63993 0.0
O86 O 0.2574 0.44217 0.6223 0.0
O87 O 0.29631 0.42167 0.67936 0.0
Dy88 Dy 0.04342 0.02466 0.50101 0.0
C89 C 0.9214 0.9642 0.66316 0.0
C90 C 0.08848 0.05077 0.4183 0.0
Dy91 Dy 0.96706 0.0015 0.58598 0.0
O92 O 0.09873 0.02031 0.44243 0.0
O93 O 0.053 0.06612 0.43869 0.0
O94 O 0.10016 0.0181 0.55103 0.0
O95 O 0.03271 0.98206 0.55998 0.0
C96 C 0.07265 0.99232 0.5785 0.0
C97 C 0.93624 0.04917 0.52285 0.0
O98 O 0.01093 0.06634 0.61676 0.0
O99 O 0.05356 0.08873 0.54711 0.0
O100 O 0.96237 0.9898 0.66496 0.0
O101 O 0.90487 0.96026 0.61975 0.0
O102 O 0.91163 0.03581 0.56055 0.0
O103 O 0.97372 0.03448 0.52189 0.0
O104 O 0.00483 0.95929 0.46832 0.0
O105 O 0.95882 0.93831 0.53631 0.0
C106 C 0.04008 0.09589 0.59305 0.0
C107 C 0.97509 0.92998 0.49128 0.0
Dy108 Dy 0.51938 0.04833 0.12376 0.0
C109 C 0.37649 0.95877 0.98545 0.0
C110 C 0.59144 0.10351 0.16969 0.0
Dy111 Dy 0.44743 0.00284 0.04312 0.0
O112 O 0.55104 0.08938 0.19007 0.0
O113 O 0.59208 0.08842 0.12405 0.0
O114 O 0.51052 0.99401 0.17294 0.0
O115 O 0.47208 0.98535 0.11019 0.0
C116 C 0.47997 0.96658 0.14642 0.0
C117 C 0.5048 0.07781 0.02324 0.0
O118 O 0.4013 0.03357 0.09836 0.0
O119 O 0.45874 0.08298 0.14181 0.0
O120 O 0.3891 0.00134 0.99205 0.0
O121 O 0.40183 0.94018 0.01121 0.0
O122 O 0.4883 0.04659 0.98995 0.0
O123 O 0.48659 0.06883 0.06371 0.0
O124 O 0.56426 0.01842 0.06642 0.0
O125 O 0.5075 0.96926 0.02112 0.0
C126 C 0.41402 0.06823 0.13079 0.0
C127 C 0.55162 0.98501 0.03255 0.0
Dy128 Dy 0.56887 0.51541 0.52977 0.0
C129 C 0.47454 0.63346 0.65223 0.0
C130 C 0.62306 0.46158 0.48148 0.0
Dy131 Dy 0.53598 0.58961 0.60038 0.0
O132 O 0.58434 0.4481 0.50511 0.0
O133 O 0.63176 0.50434 0.48351 0.0
O134 O 0.4941 0.48885 0.5085 0.0
O135 O 0.50897 0.52052 0.57809 0.0
C136 C 0.47633 0.50425 0.54932 0.0
C137 C 0.62066 0.61171 0.55789 0.0
O138 O 0.56357 0.55411 0.65621 0.0
O139 O 0.58628 0.49781 0.60247 0.0
O140 O 0.51995 0.64373 0.65645 0.0
O141 O 0.46343 0.59873 0.62151 0.0
O142 O 0.59466 0.64059 0.57285 0.0
O143 O 0.60234 0.57495 0.57165 0.0
O144 O 0.55965 0.56345 0.47788 0.0
O145 O 0.51002 0.59954 0.52784 0.0
C146 C 0.58204 0.51778 0.64709 0.0
C147 C 0.53005 0.59129 0.48492 0.0
Dy148 Dy 0.05205 0.49746 0.05156 0.0
C149 C 0.97467 0.63005 0.97324 0.0
C150 C 0.10798 0.4388 0.06696 0.0
Dy151 Dy 0.02233 0.5724 0.00701 0.0
O152 O 0.07067 0.44421 0.09278 0.0
O153 O 0.11421 0.46498 0.03297 0.0
O154 O 0.99906 0.49918 0.11182 0.0
O155 O 0.02861 0.55837 0.08248 0.0
C156 C 0.99793 0.54095 0.11205 0.0
C157 C 0.07893 0.52776 0.95008 0.0
O158 O 0.08803 0.61199 0.03819 0.0
O159 O 0.11335 0.55301 0.06695 0.0
O160 O 0.97846 0.59171 0.95157 0.0
O161 O 0.99737 0.63757 0.01361 0.0
O162 O 0.07757 0.56909 0.94821 0.0
O163 O 0.04592 0.51202 0.97771 0.0
O164 O 0.98705 0.46019 0.01484 0.0
O165 O 0.95573 0.52292 0.01118 0.0
C166 C 0.11989 0.59501 0.05854 0.0
C167 C 0.95152 0.47963 0.00751 0.0
C168 C 0.11589 0.09953 0.29847 0.0
C169 C 0.16544 0.11146 0.29986 0.0
C170 C 0.16481 0.08329 0.37905 0.0
C171 C 0.1156 0.06863 0.37619 0.0
N172 N 0.04607 0.05333 0.32812 0.0
N173 N 0.23778 0.10426 0.3349 0.0
C174 C 0.09164 0.07387 0.33431 0.0
C175 C 0.19013 0.10005 0.33812 0.0
N176 N 0.09171 0.11449 0.26458 0.0
N177 N 0.18717 0.08397 0.42163 0.0
H178 H 0.2575 0.11551 0.3049 0.0
H179 H 0.25707 0.09225 0.35948 0.0
H180 H 0.17006 0.07376 0.45335 0.0
H181 H 0.22205 0.09889 0.42692 0.0
H182 H 0.05536 0.11089 0.26538 0.0
H183 H 0.10795 0.13395 0.23809 0.0
H184 H 0.02816 0.05252 0.29616 0.0
H185 H 0.02767 0.03317 0.35295 0.0
C186 C 0.32015 0.92232 0.86301 0.0
C187 C 0.28704 0.88489 0.87416 0.0
C188 C 0.30679 0.901 0.96016 0.0
C189 C 0.34416 0.93475 0.94772 0.0
N190 N 0.39207 0.97196 0.88556 0.0
N191 N 0.2506 0.8357 0.93202 0.0
C192 C 0.3522 0.94429 0.89875 0.0
C193 C 0.28052 0.87352 0.92249 0.0
N194 N 0.32055 0.93726 0.81832 0.0
N195 N 0.29568 0.89603 0.00793 0.0
H196 H 0.23014 0.81538 0.90541 0.0
H197 H 0.24832 0.8229 0.96543 0.0
H198 H 0.31392 0.91593 0.03639 0.0
H199 H 0.26605 0.8749 0.01946 0.0
H200 H 0.34063 0.96712 0.80992 0.0
H201 H 0.29734 0.92205 0.79115 0.0
H202 H 0.40194 0.97611 0.84953 0.0
H203 H 0.41797 0.98733 0.90987 0.0
C204 C 0.59971 0.47948 0.77139 0.0
C205 C 0.63358 0.45218 0.75865 0.0
C206 C 0.64147 0.47909 0.67841 0.0
C207 C 0.60102 0.49847 0.68753 0.0
N208 N 0.53512 0.50726 0.74198 0.0
N209 N 0.67467 0.4165 0.69214 0.0
C210 C 0.57819 0.49608 0.73388 0.0
C211 C 0.65123 0.44926 0.70994 0.0
N212 N 0.58923 0.49129 0.81893 0.0
N213 N 0.67153 0.4897 0.64049 0.0
H214 H 0.6776 0.39012 0.71126 0.0
H215 H 0.68513 0.41219 0.6557 0.0
H216 H 0.66792 0.51385 0.61835 0.0
H217 H 0.70308 0.47833 0.63509 0.0
H218 H 0.56729 0.5138 0.82937 0.0
H219 H 0.60696 0.48346 0.84769 0.0
H220 H 0.51594 0.50233 0.77422 0.0
H221 H 0.51618 0.51632 0.71494 0.0
C222 C 0.93398 0.62355 0.18755 0.0
C223 C 0.93112 0.60709 0.2337 0.0
C224 C 0.98227 0.55573 0.2019 0.0
C225 C 0.97761 0.56627 0.15398 0.0
N226 N 0.94098 0.60564 0.10086 0.0
N227 N 0.94404 0.54891 0.2803 0.0
C228 C 0.95137 0.59907 0.14665 0.0
C229 C 0.953 0.57083 0.23979 0.0
N230 N 0.92192 0.66329 0.18279 0.0
N231 N 0.01577 0.53275 0.21194 0.0
H232 H 0.91991 0.55611 0.30744 0.0
H233 H 0.95629 0.51997 0.28389 0.0
H234 H 0.04054 0.52415 0.18615 0.0
H235 H 0.02269 0.52748 0.24723 0.0
H236 H 0.92732 0.67825 0.15061 0.0
H237 H 0.91187 0.68367 0.21223 0.0
H238 H 0.91799 0.62604 0.09373 0.0
H239 H 0.95165 0.58724 0.0703 0.0
C240 C 0.31728 0.12869 0.11351 0.0
C241 C 0.33721 0.17078 0.13679 0.0
C242 C 0.3932 0.13705 0.17696 0.0
C243 C 0.37916 0.09751 0.14629 0.0
N244 N 0.31144 0.04953 0.111 0.0
N245 N 0.38995 0.21473 0.19589 0.0
C246 C 0.33593 0.09122 0.12239 0.0
C247 C 0.37357 0.17474 0.17069 0.0
N248 N 0.28265 0.12476 0.08062 0.0
N249 N 0.42293 0.13728 0.21387 0.0
H250 H 0.37401 0.24204 0.19502 0.0
H251 H 0.42003 0.22139 0.2165 0.0
H252 H 0.43323 0.10845 0.22183 0.0
H253 H 0.43288 0.16399 0.23979 0.0
H254 H 0.27091 0.09576 0.05839 0.0
H255 H 0.26793 0.15127 0.07293 0.0
H256 H 0.27803 0.04285 0.09662 0.0
H257 H 0.32172 0.02205 0.12274 0.0
C258 C 0.13913 0.90749 0.617 0.0
C259 C 0.1308 0.91166 0.66797 0.0
C260 C 0.08381 0.96808 0.66052 0.0
C261 C 0.09077 0.9632 0.60932 0.0
N262 N 0.11552 0.92082 0.53786 0.0
N263 N 0.08546 0.93673 0.73656 0.0
C264 C 0.11553 0.93056 0.58722 0.0
C265 C 0.10017 0.93921 0.6892 0.0
N266 N 0.1711 0.88312 0.59726 0.0
N267 N 0.06298 0.00126 0.68215 0.0
H268 H 0.0959 0.91515 0.7584 0.0
H269 H 0.0593 0.95257 0.7527 0.0
H270 H 0.04902 0.02191 0.66232 0.0
H271 H 0.06233 0.01013 0.71951 0.0
H272 H 0.18278 0.88303 0.56119 0.0
H273 H 0.18859 0.86536 0.61782 0.0
H274 H 0.12869 0.89424 0.52006 0.0
H275 H 0.0984 0.93672 0.51484 0.0
C276 C 0.85527 0.40773 0.93036 0.0
C277 C 0.81519 0.4144 0.95921 0.0
C278 C 0.86577 0.45589 0.02371 0.0
C279 C 0.9055 0.45322 0.99272 0.0
N280 N 0.9379 0.43264 0.91376 0.0
N281 N 0.78125 0.44863 0.03085 0.0
C282 C 0.9003 0.43052 0.94537 0.0
C283 C 0.82013 0.43935 0.00538 0.0
N284 N 0.85046 0.37862 0.88926 0.0
N285 N 0.87184 0.47347 0.07099 0.0
H286 H 0.74731 0.43696 0.01854 0.0
H287 H 0.78259 0.47065 0.06217 0.0
H288 H 0.90481 0.48562 0.08556 0.0
H289 H 0.84476 0.47255 0.09689 0.0
H290 H 0.87872 0.36864 0.86978 0.0
H291 H 0.81808 0.3614 0.87684 0.0
H292 H 0.9352 0.42115 0.87703 0.0
H293 H 0.97142 0.44917 0.92319 0.0
C294 C 0.72385 0.63884 0.47011 0.0
C295 C 0.76163 0.63451 0.49864 0.0
C296 C 0.70729 0.61582 0.56679 0.0
C297 C 0.6697 0.62243 0.53894 0.0
N298 N 0.64396 0.6501 0.46878 0.0
N299 N 0.79143 0.6229 0.57494 0.0
C300 C 0.67849 0.63675 0.49191 0.0
C301 C 0.75391 0.62398 0.54724 0.0
N302 N 0.7313 0.64477 0.42199 0.0
N303 N 0.69845 0.60254 0.61229 0.0
H304 H 0.82568 0.62652 0.56098 0.0
H305 H 0.78935 0.62042 0.61214 0.0
H306 H 0.66591 0.60094 0.63 0.0
H307 H 0.7228 0.59184 0.63227 0.0
H308 H 0.70438 0.64306 0.39785 0.0
H309 H 0.7643 0.64779 0.40504 0.0
H310 H 0.64914 0.66488 0.43654 0.0
H311 H 0.61111 0.65076 0.48459 0.0
C312 C 0.22556 0.41424 0.09918 0.0
C313 C 0.21718 0.36745 0.08959 0.0
C314 C 0.13429 0.36704 0.07421 0.0
C315 C 0.14378 0.41384 0.07968 0.0
N316 N 0.1968 0.48277 0.09882 0.0
N317 N 0.16482 0.29872 0.06796 0.0
C318 C 0.1889 0.4376 0.09302 0.0
C319 C 0.17174 0.34365 0.07735 0.0
N320 N 0.26879 0.4364 0.11393 0.0
N321 N 0.08944 0.34516 0.06602 0.0
H322 H 0.19069 0.28054 0.07272 0.0
H323 H 0.13426 0.27926 0.05392 0.0
H324 H 0.06172 0.36139 0.0623 0.0
H325 H 0.07873 0.31122 0.06562 0.0
H326 H 0.27603 0.46953 0.12734 0.0
H327 H 0.29787 0.42144 0.11477 0.0
H328 H 0.22975 0.50278 0.10159 0.0
H329 H 0.17 0.5009 0.09974 0.0
C330 C 0.53442 0.20195 0.01366 0.0
C331 C 0.58203 0.20661 0.99808 0.0
C332 C 0.57705 0.12654 0.9936 0.0
C333 C 0.5307 0.12206 0.01322 0.0
N334 N 0.4651 0.15533 0.04402 0.0
N335 N 0.65143 0.17494 0.98181 0.0
C336 C 0.50942 0.15979 0.02416 0.0
C337 C 0.60406 0.16932 0.9901 0.0
N338 N 0.51253 0.23748 0.0162 0.0
N339 N 0.59537 0.0899 0.97804 0.0
H340 H 0.67276 0.20574 0.97971 0.0
H341 H 0.67041 0.14964 0.98147 0.0
H342 H 0.57756 0.05809 0.98171 0.0
H343 H 0.62663 0.0908 0.95806 0.0
H344 H 0.47668 0.23558 0.0222 0.0
H345 H 0.52971 0.26873 0.00857 0.0
H346 H 0.45023 0.1818 0.05929 0.0
H347 H 0.44337 0.1249 0.04696 0.0
C348 C 0.94777 0.80531 0.4802 0.0
C349 C 0.93619 0.79431 0.43042 0.0
C350 C 0.9475 0.87329 0.42032 0.0
C351 C 0.9639 0.88367 0.46855 0.0
N352 N 0.99421 0.85779 0.53782 0.0
N353 N 0.93649 0.81849 0.35039 0.0
C354 C 0.96861 0.84915 0.49645 0.0
C355 C 0.93946 0.82851 0.39956 0.0
N356 N 0.93636 0.77496 0.51302 0.0
N357 N 0.93761 0.90561 0.39498 0.0
H358 H 0.93279 0.78629 0.33364 0.0
H359 H 0.94288 0.84239 0.32607 0.0
H360 H 0.94156 0.9385 0.40936 0.0
H361 H 0.92116 0.89901 0.36157 0.0
H362 H 0.94052 0.7832 0.55031 0.0
H363 H 0.91752 0.74323 0.5043 0.0
H364 H 0.00188 0.83291 0.55681 0.0
H365 H 0.01249 0.88912 0.54979 0.0
C366 C 0.39795 0.70172 0.73106 0.0
C367 C 0.36849 0.71029 0.69493 0.0
C368 C 0.41574 0.67686 0.63162 0.0
C369 C 0.44111 0.66301 0.66785 0.0
N370 N 0.45399 0.65834 0.75224 0.0
N371 N 0.34401 0.69858 0.61153 0.0
C372 C 0.43177 0.67453 0.71772 0.0
C373 C 0.37597 0.69591 0.64536 0.0
N374 N 0.39484 0.72088 0.77765 0.0
N375 N 0.43071 0.6734 0.5841 0.0
H376 H 0.31359 0.71125 0.62014 0.0
H377 H 0.34524 0.68412 0.57583 0.0
H378 H 0.46102 0.66152 0.57271 0.0
H379 H 0.4162 0.68693 0.55692 0.0
H380 H 0.4185 0.71953 0.80436 0.0
H381 H 0.37107 0.74152 0.78864 0.0
H382 H 0.44484 0.66141 0.78905 0.0
H383 H 0.47951 0.63904 0.74362 0.0
C384 C 0.90146 0.88302 0.75875 0.0
C385 C 0.85216 0.87746 0.76511 0.0
C386 C 0.85155 0.9378 0.71519 0.0
C387 C 0.89925 0.93783 0.7022 0.0
N388 N 0.96796 0.90491 0.70593 0.0
N389 N 0.77892 0.89666 0.74551 0.0
C390 C 0.92409 0.9094 0.72288 0.0
C391 C 0.82676 0.90444 0.74282 0.0
N392 N 0.92676 0.8634 0.78741 0.0
N393 N 0.83016 0.97005 0.70169 0.0
H394 H 0.75926 0.87229 0.76486 0.0
H395 H 0.75852 0.91199 0.72533 0.0
H396 H 0.84759 0.99531 0.68201 0.0
H397 H 0.79683 0.9743 0.71406 0.0
H398 H 0.96324 0.86981 0.78757 0.0
H399 H 0.91133 0.84441 0.81471 0.0
H400 H 0.98529 0.881 0.71616 0.0
H401 H 0.98538 0.92182 0.67807 0.0
C402 C 0.66231 0.19412 0.25353 0.0
C403 C 0.707 0.18161 0.24974 0.0
C404 C 0.67513 0.11617 0.1952 0.0
C405 C 0.63179 0.13101 0.19561 0.0
N406 N 0.58725 0.18876 0.21664 0.0
N407 N 0.75838 0.13548 0.21005 0.0
C408 C 0.62627 0.17137 0.22228 0.0
C409 C 0.71416 0.14397 0.21853 0.0
N410 N 0.65341 0.2262 0.28866 0.0
N411 N 0.6785 0.07471 0.17471 0.0
H412 H 0.78788 0.15537 0.22617 0.0
H413 H 0.76635 0.11119 0.1837 0.0
H414 H 0.65056 0.05276 0.15822 0.0
H415 H 0.70773 0.06047 0.17804 0.0
H416 H 0.62009 0.23324 0.29638 0.0
H417 H 0.67823 0.24278 0.3135 0.0
H418 H 0.58372 0.22039 0.23124 0.0
H419 H 0.56035 0.17344 0.19337 0.0
C420 C 0.51519 0.68201 0.40597 0.0
C421 C 0.51576 0.65842 0.35929 0.0
C422 C 0.51121 0.58979 0.39697 0.0
C423 C 0.51977 0.61441 0.44308 0.0
N424 N 0.53349 0.68616 0.49065 0.0
N425 N 0.51896 0.58995 0.30968 0.0
C426 C 0.52198 0.66107 0.44764 0.0
C427 C 0.51458 0.61223 0.35453 0.0
N428 N 0.50737 0.72434 0.41055 0.0
N429 N 0.49816 0.54493 0.39382 0.0
H430 H 0.5217 0.60494 0.27754 0.0
H431 H 0.52385 0.55734 0.30467 0.0
H432 H 0.49288 0.52756 0.42434 0.0
H433 H 0.48727 0.52562 0.3617 0.0
H434 H 0.5013 0.74171 0.44385 0.0
H435 H 0.50214 0.74053 0.38073 0.0
H436 H 0.54127 0.72049 0.49397 0.0
H437 H 0.53971 0.67341 0.52234 0.0
C438 C 0.17075 0.49934 0.85355 0.0
C439 C 0.14656 0.45793 0.8326 0.0
C440 C 0.08875 0.45681 0.89923 0.0
C441 C 0.10682 0.50173 0.915 0.0
N442 N 0.16853 0.5655 0.90803 0.0
N443 N 0.0756 0.4028 0.82949 0.0
C444 C 0.14879 0.52305 0.89223 0.0
C445 C 0.10345 0.43842 0.85358 0.0
N446 N 0.21558 0.51494 0.83845 0.0
N447 N 0.0599 0.43041 0.92845 0.0
H448 H 0.08377 0.38938 0.79469 0.0
H449 H 0.04189 0.3901 0.84181 0.0
H450 H 0.05427 0.43973 0.965 0.0
H451 H 0.04835 0.39679 0.91877 0.0
H452 H 0.23702 0.54242 0.85593 0.0
H453 H 0.233 0.49825 0.8109 0.0
H454 H 0.19437 0.58473 0.88835 0.0
H455 H 0.15886 0.58195 0.94056 0.0
C456 C 0.66474 0.94125 0.00953 0.0
C457 C 0.66599 0.93373 0.95811 0.0
C458 C 0.59197 0.95989 0.95471 0.0
C459 C 0.58914 0.96473 0.0064 0.0
N460 N 0.61651 0.94853 0.08228 0.0
N461 N 0.62539 0.92527 0.88248 0.0
C462 C 0.62374 0.95209 0.03365 0.0
C463 C 0.62805 0.93998 0.93087 0.0
N464 N 0.70327 0.93956 0.03532 0.0
N465 N 0.56167 0.97588 0.9281 0.0
H466 H 0.65063 0.90976 0.86369 0.0
H467 H 0.59591 0.92442 0.86208 0.0
H468 H 0.53439 0.99052 0.94334 0.0
H469 H 0.56611 0.97815 0.89089 0.0
H470 H 0.70605 0.94947 0.07243 0.0
H471 H 0.73418 0.93212 0.01895 0.0
H472 H 0.63848 0.9354 0.10299 0.0
H473 H 0.58588 0.95408 0.10088 0.0
C474 C 0.89992 0.15304 0.48765 0.0
C475 C 0.89009 0.14066 0.43784 0.0
C476 C 0.92163 0.073 0.44153 0.0
C477 C 0.92468 0.08235 0.49278 0.0
N478 N 0.91297 0.13032 0.56565 0.0
N479 N 0.88556 0.08579 0.3684 0.0
C480 C 0.91239 0.12192 0.51613 0.0
C481 C 0.89985 0.10003 0.41479 0.0
N482 N 0.89997 0.19548 0.50727 0.0
N483 N 0.93864 0.0379 0.4184 0.0
H484 H 0.86813 0.10373 0.34805 0.0
H485 H 0.88696 0.05435 0.35159 0.0
H486 H 0.95314 0.01639 0.43675 0.0
H487 H 0.94186 0.03219 0.38076 0.0
H488 H 0.91176 0.2077 0.542 0.0
H489 H 0.89322 0.21997 0.48712 0.0
H490 H 0.89751 0.15498 0.58462 0.0
H491 H 0.92796 0.11225 0.58812 0.0
C492 C 0.20783 0.69522 0.10879 0.0
C493 C 0.25057 0.67996 0.09878 0.0
C494 C 0.20789 0.61051 0.05879 0.0
C495 C 0.1648 0.62402 0.073 0.0
N496 N 0.12413 0.67496 0.12203 0.0
N497 N 0.2902 0.6189 0.07517 0.0
C498 C 0.16479 0.66525 0.10091 0.0
C499 C 0.25036 0.63642 0.07682 0.0
N500 N 0.20823 0.73861 0.1244 0.0
N501 N 0.20874 0.57389 0.02666 0.0
H502 H 0.32186 0.63614 0.08936 0.0
H503 H 0.29059 0.58571 0.06444 0.0
H504 H 0.17881 0.55395 0.01167 0.0
H505 H 0.2396 0.56565 0.01115 0.0
H506 H 0.17812 0.75242 0.12737 0.0
H507 H 0.23906 0.76177 0.12995 0.0
H508 H 0.12302 0.70271 0.14659 0.0
H509 H 0.0922 0.65302 0.11934 0.0
C510 C 0.35174 0.49857 0.59832 0.0
C511 C 0.34183 0.45564 0.61408 0.0
C512 C 0.42039 0.44425 0.58635 0.0
C513 C 0.42876 0.48575 0.56744 0.0
N514 N 0.39801 0.54698 0.5442 0.0
N515 N 0.36236 0.38341 0.61067 0.0
C516 C 0.393 0.51122 0.56986 0.0
C517 C 0.37494 0.42723 0.60462 0.0
N518 N 0.32322 0.52814 0.61254 0.0
N519 N 0.45598 0.42132 0.58776 0.0
H520 H 0.32875 0.36894 0.62156 0.0
H521 H 0.38364 0.36047 0.59973 0.0
H522 H 0.48941 0.43169 0.57322 0.0
H523 H 0.45325 0.39361 0.60654 0.0
H524 H 0.33157 0.56124 0.60628 0.0
H525 H 0.29364 0.52089 0.63491 0.0
H526 H 0.37141 0.56474 0.54131 0.0
H527 H 0.42705 0.5559 0.52161 0.0
C528 C 0.92851 0.7167 0.91346 0.0
C529 C 0.88026 0.69734 0.91142 0.0
C530 C 0.89315 0.63803 0.95751 0.0
C531 C 0.94171 0.65649 0.95814 0.0
N532 N 0.00471 0.71727 0.94664 0.0
N533 N 0.81442 0.6463 0.93977 0.0
C534 C 0.95906 0.69735 0.93958 0.0
C535 C 0.86188 0.66003 0.93611 0.0
N536 N 0.94526 0.75234 0.88858 0.0
N537 N 0.87719 0.59901 0.97668 0.0
H538 H 0.79065 0.66177 0.9243 0.0
H539 H 0.79822 0.62195 0.96109 0.0
H540 H 0.89825 0.58392 0.99642 0.0
H541 H 0.84358 0.58063 0.97185 0.0
H542 H 0.98068 0.7652 0.88386 0.0
H543 H 0.92359 0.76798 0.87026 0.0
H544 H 0.01872 0.74895 0.938 0.0
H545 H 0.02809 0.70329 0.96464 0.0
C546 C 0.47108 0.84333 0.13982 0.0
C547 C 0.46479 0.83733 0.18987 0.0
C548 C 0.45188 0.91337 0.20795 0.0
C549 C 0.4618 0.92038 0.15836 0.0
N550 N 0.46225 0.88772 0.07559 0.0
N551 N 0.43865 0.86196 0.26984 0.0
C552 C 0.46541 0.88392 0.12374 0.0
C553 C 0.45159 0.87093 0.22344 0.0
N554 N 0.48435 0.81084 0.10786 0.0
N555 N 0.44334 0.94777 0.24014 0.0
H556 H 0.43841 0.8312 0.28181 0.0
H557 H 0.42531 0.88359 0.29565 0.0
H558 H 0.43856 0.97758 0.22883 0.0
H559 H 0.44125 0.94724 0.27765 0.0
H560 H 0.49542 0.81529 0.07221 0.0
H561 H 0.4872 0.78001 0.11779 0.0
H562 H 0.46115 0.8616 0.04838 0.0
H563 H 0.45404 0.91575 0.0638 0.0
C564 C 0.1065 0.18208 0.68597 0.0
C565 C 0.0974 0.22152 0.67026 0.0
C566 C 0.04927 0.17864 0.60457 0.0
C567 C 0.06014 0.13931 0.61917 0.0
N568 N 0.11132 0.10567 0.66298 0.0
N569 N 0.06719 0.25864 0.61008 0.0
C570 C 0.09204 0.14151 0.65703 0.0
C571 C 0.07054 0.22019 0.62837 0.0
N572 N 0.12801 0.18316 0.72913 0.0
N573 N 0.01847 0.17627 0.56808 0.0
H574 H 0.08256 0.28965 0.62632 0.0
H575 H 0.05252 0.25996 0.57679 0.0
H576 H 0.00513 0.1469 0.54728 0.0
H577 H 0.00423 0.20286 0.55989 0.0
H578 H 0.13092 0.1548 0.74478 0.0
H579 H 0.13921 0.21228 0.75145 0.0
H580 H 0.13788 0.10639 0.68728 0.0
H581 H 0.10511 0.07693 0.63913 0.0
C582 C 0.70018 0.37436 0.46592 0.0
C583 C 0.71307 0.37514 0.41598 0.0
C584 C 0.66782 0.43331 0.40939 0.0
C585 C 0.65488 0.43264 0.45923 0.0
N586 N 0.66624 0.40976 0.53765 0.0
N587 N 0.7091 0.4066 0.3399 0.0
C588 C 0.67298 0.40501 0.4883 0.0
C589 C 0.69768 0.40521 0.38802 0.0
N590 N 0.71322 0.34366 0.49169 0.0
N591 N 0.65059 0.45998 0.38139 0.0
H592 H 0.73009 0.38678 0.32021 0.0
H593 H 0.73009 0.38678 0.32021 0.0
H594 H 0.62685 0.48004 0.39446 0.0
H595 H 0.65951 0.46133 0.3446 0.0
H596 H 0.70002 0.33726 0.52622 0.0
H597 H 0.73572 0.32272 0.47748 0.0
H598 H 0.68262 0.39419 0.56153 0.0
H599 H 0.6473 0.43233 0.55551 0.0
loop_
_geom_bond_atom_site_label_1
_geom_bond_atom_site_label_2
_geom_bond_distance
_geom_bond_site_symmetry_2
_ccdc_geom_bond_type
O0 Cd1 2.300 . S
O0 C7 1.275 . S
Cd1 O0 2.300 . S
Cd1 O9 2.381 . S
Cd1 O10 2.378 . S
O2 Cd3 2.385 . S
O2 C7 1.255 . S
Cd3 O2 2.385 . S
Cd3 O4 2.317 . S
O4 Cd3 2.317 . S
O4 C5 1.232 . S
C5 O4 1.232 . S
C5 O6 1.218 . S
O6 C5 1.218 . S
C7 O0 1.275 . S
C7 O2 1.255 . S
C8 O9 1.258 . S
C8 O10 1.256 . S
O9 Cd1 2.381 . S
O9 C8 1.258 . S
O10 Cd1 2.378 . S
O10 C8 1.256 . S
O11 Cd12 2.300 . S
O11 C18 1.275 . S
Cd12 O11 2.300 . S
Cd12 O20 2.381 . S
Cd12 O21 2.378 . S
O13 Cd14 2.385 . S
O13 C18 1.255 . S
Cd14 O13 2.385 . S
Cd14 O15 2.317 . S
O15 Cd14 2.317 . S
O15 C16 1.232 . S
C16 O15 1.232 . S
C16 O17 1.218 . S
O17 C16 1.218 . S
C18 O11 1.275 . S
C18 O13 1.255 . S
C19 O20 1.258 . S
C19 O21 1.256 . S
O20 Cd12 2.381 . S
O20 C19 1.258 . S
O21 Cd12 2.378 . S
O21 C19 1.256 . S
O22 Cd23 2.300 . S
O22 C29 1.275 . S
Cd23 O22 2.300 . S
Cd23 O31 2.381 . S
Cd23 O32 2.378 . S
O24 Cd25 2.385 . S
O24 C29 1.255 . S
Cd25 O24 2.385 . S
Cd25 O26 2.317 . S
O26 Cd25 2.317 . S
O26 C27 1.232 . S
C27 O26 1.232 . S
C27 O28 1.218 . S
O28 C27 1.218 . S
C29 O22 1.275 . S
C29 O24 1.255 . S
C30 O31 1.258 . S
C30 O32 1.256 . S
O31 Cd23 2.381 . S
O31 C30 1.258 . S
O32 Cd23 2.378 . S
O32 C30 1.256 . S
O33 Cd34 2.300 . S
O33 C40 1.275 . S
Cd34 O33 2.300 . S
Cd34 O42 2.381 . S
Cd34 O43 2.378 . S
O35 Cd36 2.385 . S
O35 C40 1.255 . S
Cd36 O35 2.385 . S
Cd36 O37 2.317 . S
O37 Cd36 2.317 . S
O37 C38 1.232 . S
C38 O37 1.232 . S
C38 O39 1.218 . S
O39 C38 1.218 . S
C40 O33 1.275 . S
C40 O35 1.255 . S
C41 O42 1.258 . S
C41 O43 1.256 . S
O42 Cd34 2.381 . S
O42 C41 1.258 . S
O43 Cd34 2.378 . S
O43 C41 1.256 . S
O44 Cd45 2.300 . S
O44 C51 1.275 . S
Cd45 O44 2.300 . S
Cd45 O53 2.381 . S
Cd45 O54 2.378 . S
O46 Cd47 2.385 . S
O46 C51 1.255 . S
Cd47 O46 2.385 . S
Cd47 O48 2.317 . S
O48 Cd47 2.317 . S
O48 C49 1.232 . S
C49 O48 1.232 . S
C49 O50 1.218 . S
O50 C49 1.218 . S
C51 O44 1.275 . S
C51 O46 1.255 . S
C52 O53 1.258 . S
C52 O54 1.256 . S
O53 Cd45 2.381 . S
O53 C52 1.258 . S
O54 Cd45 2.378 . S
O54 C52 1.256 . S
O55 Cd56 2.300 . S
O55 C62 1.275 . S
Cd56 O55 2.300 . S
Cd56 O64 2.381 . S
Cd56 O65 2.378 . S
O57 Cd58 2.385 . S
O57 C62 1.255 . S
Cd58 O57 2.385 . S
Cd58 O59 2.317 . S
O59 Cd58 2.317 . S
O59 C60 1.232 . S
C60 O59 1.232 . S
C60 O61 1.218 . S
O61 C60 1.218 . S
C62 O55 1.275 . S
C62 O57 1.255 . S
C63 O64 1.258 . S
C63 O65 1.256 . S
O64 Cd56 2.381 . S
O64 C63 1.258 . S
O65 Cd56 2.378 . S
O65 C63 1.256 . S
O66 Cd67 2.300 . S
O66 C73 1.275 . S
Cd67 O66 2.300 . S
Cd67 O75 2.381 . S
Cd67 O76 2.378 . S
O68 Cd69 2.385 . S
O68 C73 1.255 . S
Cd69 O68 2.385 . S
Cd69 O70 2.317 . S
O70 Cd69 2.317 . S
O70 C71 1.232 . S
C71 O70 1.232 . S
C71 O72 1.218 . S
O72 C71 1.218 . S
C73 O66 1.275 . S
C73 O68 1.255 . S
C74 O75 1.258 . S
C74 O76 1.256 . S
O75 Cd67 2.381 . S
O75 C74 1.258 . S
O76 Cd67 2.378 . S
O76 C74 1.256 . S
O77 Cd78 2.300 . S
O77 C84 1.275 . S
Cd78 O77 2.300 . S
Cd78 O86 2.381 . S
Cd78 O87 2.378 . S
O79 Cd80 2.385 . S
O79 C84 1.255 . S
Cd80 O79 2.385 . S
Cd80 O81 2.317 . S
O81 Cd80 2.317 . S
O81 C82 1.232 . S
C82 O81 1.232 . S
C82 O83 1.218 . S
O83 C82 1.218 . S
C84 O77 1.275 . S
C84 O79 1.255 . S
C85 O86 1.258 . S
C85 O87 1.256 . S
O86 Cd78 2.381 . S
O86 C85 1.258 . S
O87 Cd78 2.378 . S
O87 C85 1.256 . S
Dy88 O92 2.398 . S
Dy88 O93 2.491 . S
Dy88 O94 2.403 . S
Dy88 O95 2.664 1_545 S
Dy88 O99 2.326 . S
Dy88 O103 2.310 1_455 S
Dy88 O104 2.351 1_545 S
C89 O100 1.185 . S
C89 O101 1.355 . S
C90 O92 1.185 . S
C90 O93 1.355 . S
Dy91 O95 2.310 1_645 S
Dy91 O98 2.351 1_655 S
Dy91 O100 2.398 1_545 S
Dy91 O101 2.491 1_545 S
Dy91 O102 2.403 . S
Dy91 O103 2.664 . S
Dy91 O105 2.326 1_545 S
O92 Dy88 2.398 . S
O92 C90 1.185 . S
O93 Dy88 2.491 . S
O93 C90 1.355 . S
O94 Dy88 2.403 . S
O94 C96 1.254 1_545 S
O95 Dy88 2.664 1_565 S
O95 Dy91 2.310 1_465 S
O95 C96 1.268 . S
C96 O94 1.254 1_565 S
C96 O95 1.268 . S
C97 O102 1.254 . S
C97 O103 1.268 . S
O98 Dy91 2.351 1_455 S
O98 C106 1.249 . S
O99 Dy88 2.326 . S
O99 C106 1.267 . S
O100 C89 1.185 . S
O100 Dy91 2.398 1_565 S
O101 C89 1.355 . S
O101 Dy91 2.491 1_565 S
O102 Dy91 2.403 . S
O102 C97 1.254 . S
O103 Dy88 2.310 1_655 S
O103 Dy91 2.664 . S
O103 C97 1.268 . S
O104 Dy88 2.351 1_565 S
O104 C107 1.249 1_455 S
O105 Dy91 2.326 1_565 S
O105 C107 1.267 . S
C106 O98 1.249 . S
C106 O99 1.267 . S
C107 O104 1.249 1_655 S
C107 O105 1.267 . S
Dy108 O112 2.398 . S
Dy108 O113 2.491 . S
Dy108 O114 2.403 1_545 S
Dy108 O115 2.664 1_545 S
Dy108 O119 2.326 . S
Dy108 O123 2.310 . S
Dy108 O124 2.351 . S
C109 O120 1.185 1_565 S
C109 O121 1.355 . S
C110 O112 1.185 . S
C110 O113 1.355 . S
Dy111 O115 2.310 1_545 S
Dy111 O118 2.351 . S
Dy111 O120 2.398 1_554 S
Dy111 O121 2.491 1_544 S
Dy111 O122 2.403 1_554 S
Dy111 O123 2.664 . S
Dy111 O125 2.326 1_554 S
O112 Dy108 2.398 . S
O112 C110 1.185 . S
O113 Dy108 2.491 . S
O113 C110 1.355 . S
O114 Dy108 2.403 1_565 S
O114 C116 1.254 . S
O115 Dy108 2.664 1_565 S
O115 Dy111 2.310 1_565 S
O115 C116 1.268 . S
C116 O114 1.254 . S
C116 O115 1.268 . S
C117 O122 1.254 1_554 S
C117 O123 1.268 . S
O118 Dy111 2.351 . S
O118 C126 1.249 . S
O119 Dy108 2.326 . S
O119 C126 1.267 . S
O120 C109 1.185 1_545 S
O120 Dy111 2.398 1_556 S
O121 C109 1.355 . S
O121 Dy111 2.491 1_566 S
O122 Dy111 2.403 1_556 S
O122 C117 1.254 1_556 S
O123 Dy108 2.310 . S
O123 Dy111 2.664 . S
O123 C117 1.268 . S
O124 Dy108 2.351 . S
O124 C127 1.249 1_545 S
O125 Dy111 2.326 1_556 S
O125 C127 1.267 1_546 S
C126 O118 1.249 . S
C126 O119 1.267 . S
C127 O124 1.249 1_565 S
C127 O125 1.267 1_564 S
Dy128 O132 2.398 . S
Dy128 O133 2.491 . S
Dy128 O134 2.403 . S
Dy128 O135 2.664 . S
Dy128 O139 2.326 . S
Dy128 O143 2.310 . S
Dy128 O144 2.351 . S
C129 O140 1.185 . S
C129 O141 1.355 . S
C130 O132 1.185 . S
C130 O133 1.355 . S
Dy131 O135 2.310 . S
Dy131 O138 2.351 . S
Dy131 O140 2.398 . S
Dy131 O141 2.491 . S
Dy131 O142 2.403 . S
Dy131 O143 2.664 . S
Dy131 O145 2.326 . S
O132 Dy128 2.398 . S
O132 C130 1.185 . S
O133 Dy128 2.491 . S
O133 C130 1.355 . S
O134 Dy128 2.403 . S
O134 C136 1.254 . S
O135 Dy128 2.664 . S
O135 Dy131 2.310 . S
O135 C136 1.268 . S
C136 O134 1.254 . S
C136 O135 1.268 . S
C137 O142 1.254 . S
C137 O143 1.268 . S
O138 Dy131 2.351 . S
O138 C146 1.249 . S
O139 Dy128 2.326 . S
O139 C146 1.267 . S
O140 C129 1.185 . S
O140 Dy131 2.398 . S
O141 C129 1.355 . S
O141 Dy131 2.491 . S
O142 Dy131 2.403 . S
O142 C137 1.254 . S
O143 Dy128 2.310 . S
O143 Dy131 2.664 . S
O143 C137 1.268 . S
O144 Dy128 2.351 . S
O144 C147 1.249 . S
O145 Dy131 2.326 . S
O145 C147 1.267 . S
C146 O138 1.249 . S
C146 O139 1.267 . S
C147 O144 1.249 . S
C147 O145 1.267 . S
Dy148 O152 2.398 . S
Dy148 O153 2.491 . S
Dy148 O154 2.403 . S
Dy148 O155 2.664 . S
Dy148 O159 2.326 . S
Dy148 O163 2.310 1_554 S
Dy148 O164 2.351 1_455 S
C149 O160 1.185 . S
C149 O161 1.355 . S
C150 O152 1.185 . S
C150 O153 1.355 . S
Dy151 O155 2.310 1_556 S
Dy151 O158 2.351 1_556 S
Dy151 O160 2.398 1_455 S
Dy151 O161 2.491 1_455 S
Dy151 O162 2.403 . S
Dy151 O163 2.664 . S
Dy151 O165 2.326 1_455 S
O152 Dy148 2.398 . S
O152 C150 1.185 . S
O153 Dy148 2.491 . S
O153 C150 1.355 . S
O154 Dy148 2.403 . S
O154 C156 1.254 1_455 S
O155 Dy148 2.664 . S
O155 Dy151 2.310 1_554 S
O155 C156 1.268 1_455 S
C156 O154 1.254 1_655 S
C156 O155 1.268 1_655 S
C157 O162 1.254 . S
C157 O163 1.268 . S
O158 Dy151 2.351 1_554 S
O158 C166 1.249 . S
O159 Dy148 2.326 . S
O159 C166 1.267 . S
O160 C149 1.185 . S
O160 Dy151 2.398 1_655 S
O161 C149 1.355 . S
O161 Dy151 2.491 1_655 S
O162 Dy151 2.403 . S
O162 C157 1.254 . S
O163 Dy148 2.310 1_556 S
O163 Dy151 2.664 . S
O163 C157 1.268 . S
O164 Dy148 2.351 1_655 S
O164 C167 1.249 1_554 S
O165 Dy151 2.326 1_655 S
O165 C167 1.267 . S
C166 O158 1.249 . S
C166 O159 1.267 . S
C167 O164 1.249 1_556 S
C167 O165 1.267 . S
C168 C169 1.363 . S
C168 C174 1.379 . S
C168 N176 1.356 . S
C169 C168 1.363 . S
C169 C175 1.363 . S
C170 C171 1.363 . S
C170 C175 1.379 . S
C170 N177 1.356 . S
C171 C170 1.363 . S
C171 C174 1.363 . S
N172 C174 1.356 . S
N172 H184 0.984 . S
N172 H185 0.985 . S
N173 C175 1.356 . S
N173 H178 0.984 . S
N173 H179 0.985 . S
C174 C168 1.379 . S
C174 C171 1.363 . S
C174 N172 1.356 . S
C175 C169 1.363 . S
C175 C170 1.379 . S
C175 N173 1.356 . S
N176 C168 1.356 . S
N176 H182 0.984 . S
N176 H183 0.984 . S
N177 C170 1.356 . S
N177 H180 0.984 . S
N177 H181 0.985 . S
H178 N173 0.984 . S
H179 N173 0.985 . S
H180 N177 0.984 . S
H181 N177 0.985 . S
H182 N176 0.984 . S
H183 N176 0.984 . S
H184 N172 0.984 . S
H185 N172 0.985 . S
C186 C187 1.363 . S
C186 C192 1.379 . S
C186 N194 1.356 1_565 S
C187 C186 1.363 . S
C187 C193 1.363 . S
C188 C189 1.363 . S
C188 C193 1.379 . S
C188 N195 1.356 . S
C189 C188 1.363 . S
C189 C192 1.363 . S
N190 C192 1.356 1_545 S
N190 H202 0.984 . S
N190 H203 0.985 . S
N191 C193 1.356 . S
N191 H196 0.984 . S
N191 H197 0.985 . S
C192 C186 1.379 . S
C192 C189 1.363 . S
C192 N190 1.356 1_565 S
C193 C187 1.363 . S
C193 C188 1.379 . S
C193 N191 1.356 . S
N194 C186 1.356 1_545 S
N194 H200 0.984 . S
N194 H201 0.984 1_545 S
N195 C188 1.356 . S
N195 H198 0.984 . S
N195 H199 0.985 . S
H196 N191 0.984 . S
H197 N191 0.985 . S
H198 N195 0.984 . S
H199 N195 0.985 . S
H200 N194 0.984 . S
H201 N194 0.984 1_565 S
H202 N190 0.984 . S
H203 N190 0.985 . S
C204 C205 1.363 . S
C204 C210 1.379 . S
C204 N212 1.356 . S
C205 C204 1.363 . S
C205 C211 1.363 . S
C206 C207 1.363 . S
C206 C211 1.379 . S
C206 N213 1.356 . S
C207 C206 1.363 . S
C207 C210 1.363 . S
N208 C210 1.356 . S
N208 H220 0.984 . S
N208 H221 0.985 . S
N209 C211 1.356 . S
N209 H214 0.984 . S
N209 H215 0.985 . S
C210 C204 1.379 . S
C210 C207 1.363 . S
C210 N208 1.356 . S
C211 C205 1.363 . S
C211 C206 1.379 . S
C211 N209 1.356 . S
N212 C204 1.356 . S
N212 H218 0.984 . S
N212 H219 0.984 . S
N213 C206 1.356 . S
N213 H216 0.984 . S
N213 H217 0.985 . S
H214 N209 0.984 . S
H215 N209 0.985 . S
H216 N213 0.984 . S
H217 N213 0.985 . S
H218 N212 0.984 . S
H219 N212 0.984 . S
H220 N208 0.984 . S
H221 N208 0.985 . S
C222 C223 1.363 . S
C222 C228 1.379 . S
C222 N230 1.356 . S
C223 C222 1.363 . S
C223 C229 1.363 . S
C224 C225 1.363 . S
C224 C229 1.379 . S
C224 N231 1.356 1_655 S
C225 C224 1.363 . S
C225 C228 1.363 . S
N226 C228 1.356 . S
N226 H238 0.984 . S
N226 H239 0.985 . S
N227 C229 1.356 . S
N227 H232 0.984 . S
N227 H233 0.985 1_655 S
C228 C222 1.379 . S
C228 C225 1.363 . S
C228 N226 1.356 . S
C229 C223 1.363 . S
C229 C224 1.379 . S
C229 N227 1.356 . S
N230 C222 1.356 . S
N230 H236 0.984 . S
N230 H237 0.984 . S
N231 C224 1.356 1_455 S
N231 H234 0.984 . S
N231 H235 0.985 . S
H232 N227 0.984 . S
H233 N227 0.985 1_455 S
H234 N231 0.984 . S
H235 N231 0.985 . S
H236 N230 0.984 . S
H237 N230 0.984 . S
H238 N226 0.984 . S
H239 N226 0.985 . S
C240 C241 1.363 . S
C240 C246 1.379 . S
C240 N248 1.356 . S
C241 C240 1.363 . S
C241 C247 1.363 . S
C242 C243 1.363 . S
C242 C247 1.379 . S
C242 N249 1.356 . S
C243 C242 1.363 . S
C243 C246 1.363 . S
N244 C246 1.356 . S
N244 H256 0.984 . S
N244 H257 0.985 . S
N245 C247 1.356 . S
N245 H250 0.984 . S
N245 H251 0.985 . S
C246 C240 1.379 . S
C246 C243 1.363 . S
C246 N244 1.356 . S
C247 C241 1.363 . S
C247 C242 1.379 . S
C247 N245 1.356 . S
N248 C240 1.356 . S
N248 H254 0.984 . S
N248 H255 0.984 . S
N249 C242 1.356 . S
N249 H252 0.984 . S
N249 H253 0.985 . S
H250 N245 0.984 . S
H251 N245 0.985 . S
H252 N249 0.984 . S
H253 N249 0.985 . S
H254 N248 0.984 . S
H255 N248 0.984 . S
H256 N244 0.984 . S
H257 N244 0.985 . S
C258 C259 1.363 . S
C258 C264 1.379 . S
C258 N266 1.356 . S
C259 C258 1.363 . S
C259 C265 1.363 . S
C260 C261 1.363 . S
C260 C265 1.379 . S
C260 N267 1.356 . S
C261 C260 1.363 . S
C261 C264 1.363 . S
N262 C264 1.356 . S
N262 H274 0.984 . S
N262 H275 0.985 . S
N263 C265 1.356 . S
N263 H268 0.984 . S
N263 H269 0.985 . S
C264 C258 1.379 . S
C264 C261 1.363 . S
C264 N262 1.356 . S
C265 C259 1.363 . S
C265 C260 1.379 . S
C265 N263 1.356 . S
N266 C258 1.356 . S
N266 H272 0.984 . S
N266 H273 0.984 . S
N267 C260 1.356 . S
N267 H270 0.984 . S
N267 H271 0.985 . S
H268 N263 0.984 . S
H269 N263 0.985 . S
H270 N267 0.984 . S
H271 N267 0.985 . S
H272 N266 0.984 . S
H273 N266 0.984 . S
H274 N262 0.984 . S
H275 N262 0.985 . S
C276 C277 1.363 . S
C276 C282 1.379 . S
C276 N284 1.356 . S
C277 C276 1.363 . S
C277 C283 1.363 . S
C278 C279 1.363 . S
C278 C283 1.379 . S
C278 N285 1.356 1_556 S
C279 C278 1.363 . S
C279 C282 1.363 . S
N280 C282 1.356 . S
N280 H292 0.984 . S
N280 H293 0.985 . S
N281 C283 1.356 1_554 S
N281 H286 0.984 1_554 S
N281 H287 0.985 . S
C282 C276 1.379 . S
C282 C279 1.363 . S
C282 N280 1.356 . S
C283 C277 1.363 . S
C283 C278 1.379 . S
C283 N281 1.356 1_556 S
N284 C276 1.356 . S
N284 H290 0.984 . S
N284 H291 0.984 . S
N285 C278 1.356 1_554 S
N285 H288 0.984 . S
N285 H289 0.985 . S
H286 N281 0.984 1_556 S
H287 N281 0.985 . S
H288 N285 0.984 . S
H289 N285 0.985 . S
H290 N284 0.984 . S
H291 N284 0.984 . S
H292 N280 0.984 . S
H293 N280 0.985 . S
C294 C295 1.363 . S
C294 C300 1.379 . S
C294 N302 1.356 . S
C295 C294 1.363 . S
C295 C301 1.363 . S
C296 C297 1.363 . S
C296 C301 1.379 . S
C296 N303 1.356 . S
C297 C296 1.363 . S
C297 C300 1.363 . S
N298 C300 1.356 . S
N298 H310 0.984 . S
N298 H311 0.985 . S
N299 C301 1.356 . S
N299 H304 0.984 . S
N299 H305 0.985 . S
C300 C294 1.379 . S
C300 C297 1.363 . S
C300 N298 1.356 . S
C301 C295 1.363 . S
C301 C296 1.379 . S
C301 N299 1.356 . S
N302 C294 1.356 . S
N302 H308 0.984 . S
N302 H309 0.984 . S
N303 C296 1.356 . S
N303 H306 0.984 . S
N303 H307 0.985 . S
H304 N299 0.984 . S
H305 N299 0.985 . S
H306 N303 0.984 . S
H307 N303 0.985 . S
H308 N302 0.984 . S
H309 N302 0.984 . S
H310 N298 0.984 . S
H311 N298 0.985 . S
C312 C313 1.363 . S
C312 C318 1.379 . S
C312 N320 1.356 . S
C313 C312 1.363 . S
C313 C319 1.363 . S
C314 C315 1.363 . S
C314 C319 1.379 . S
C314 N321 1.356 . S
C315 C314 1.363 . S
C315 C318 1.363 . S
N316 C318 1.356 . S
N316 H328 0.984 . S
N316 H329 0.985 . S
N317 C319 1.356 . S
N317 H322 0.984 . S
N317 H323 0.985 . S
C318 C312 1.379 . S
C318 C315 1.363 . S
C318 N316 1.356 . S
C319 C313 1.363 . S
C319 C314 1.379 . S
C319 N317 1.356 . S
N320 C312 1.356 . S
N320 H326 0.984 . S
N320 H327 0.984 . S
N321 C314 1.356 . S
N321 H324 0.984 . S
N321 H325 0.985 . S
H322 N317 0.984 . S
H323 N317 0.985 . S
H324 N321 0.984 . S
H325 N321 0.985 . S
H326 N320 0.984 . S
H327 N320 0.984 . S
H328 N316 0.984 . S
H329 N316 0.985 . S
C330 C331 1.363 . S
C330 C336 1.379 . S
C330 N338 1.356 . S
C331 C330 1.363 . S
C331 C337 1.363 1_556 S
C332 C333 1.363 . S
C332 C337 1.379 . S
C332 N339 1.356 . S
C333 C332 1.363 . S
C333 C336 1.363 1_554 S
N334 C336 1.356 . S
N334 H346 0.984 . S
N334 H347 0.985 . S
N335 C337 1.356 . S
N335 H340 0.984 1_554 S
N335 H341 0.985 . S
C336 C330 1.379 . S
C336 C333 1.363 1_556 S
C336 N334 1.356 . S
C337 C331 1.363 1_554 S
C337 C332 1.379 . S
C337 N335 1.356 . S
N338 C330 1.356 . S
N338 H344 0.984 . S
N338 H345 0.984 . S
N339 C332 1.356 . S
N339 H342 0.984 . S
N339 H343 0.985 . S
H340 N335 0.984 1_556 S
H341 N335 0.985 . S
H342 N339 0.984 . S
H343 N339 0.985 . S
H344 N338 0.984 . S
H345 N338 0.984 . S
H346 N334 0.984 . S
H347 N334 0.985 . S
C348 C349 1.363 . S
C348 C354 1.379 . S
C348 N356 1.356 . S
C349 C348 1.363 . S
C349 C355 1.363 . S
C350 C351 1.363 . S
C350 C355 1.379 . S
C350 N357 1.356 . S
C351 C350 1.363 . S
C351 C354 1.363 . S
N352 C354 1.356 . S
N352 H364 0.984 . S
N352 H365 0.985 . S
N353 C355 1.356 . S
N353 H358 0.984 . S
N353 H359 0.985 . S
C354 C348 1.379 . S
C354 C351 1.363 . S
C354 N352 1.356 . S
C355 C349 1.363 . S
C355 C350 1.379 . S
C355 N353 1.356 . S
N356 C348 1.356 . S
N356 H362 0.984 . S
N356 H363 0.984 . S
N357 C350 1.356 . S
N357 H360 0.984 . S
N357 H361 0.985 1_655 S
H358 N353 0.984 . S
H359 N353 0.985 . S
H360 N357 0.984 . S
H361 N357 0.985 1_455 S
H362 N356 0.984 . S
H363 N356 0.984 . S
H364 N352 0.984 . S
H365 N352 0.985 . S
C366 C367 1.363 . S
C366 C372 1.379 . S
C366 N374 1.356 . S
C367 C366 1.363 . S
C367 C373 1.363 . S
C368 C369 1.363 . S
C368 C373 1.379 . S
C368 N375 1.356 . S
C369 C368 1.363 . S
C369 C372 1.363 . S
N370 C372 1.356 . S
N370 H382 0.984 . S
N370 H383 0.985 . S
N371 C373 1.356 . S
N371 H376 0.984 . S
N371 H377 0.985 . S
C372 C366 1.379 . S
C372 C369 1.363 . S
C372 N370 1.356 . S
C373 C367 1.363 . S
C373 C368 1.379 . S
C373 N371 1.356 . S
N374 C366 1.356 . S
N374 H380 0.984 . S
N374 H381 0.984 . S
N375 C368 1.356 . S
N375 H378 0.984 . S
N375 H379 0.985 . S
H376 N371 0.984 . S
H377 N371 0.985 . S
H378 N375 0.984 . S
H379 N375 0.985 . S
H380 N374 0.984 . S
H381 N374 0.984 . S
H382 N370 0.984 . S
H383 N370 0.985 . S
C384 C385 1.363 . S
C384 C390 1.379 . S
C384 N392 1.356 . S
C385 C384 1.363 . S
C385 C391 1.363 . S
C386 C387 1.363 . S
C386 C391 1.379 . S
C386 N393 1.356 . S
C387 C386 1.363 . S
C387 C390 1.363 . S
N388 C390 1.356 . S
N388 H400 0.984 . S
N388 H401 0.985 . S
N389 C391 1.356 . S
N389 H394 0.984 . S
N389 H395 0.985 . S
C390 C384 1.379 . S
C390 C387 1.363 . S
C390 N388 1.356 . S
C391 C385 1.363 . S
C391 C386 1.379 . S
C391 N389 1.356 . S
N392 C384 1.356 . S
N392 H398 0.984 . S
N392 H399 0.984 . S
N393 C386 1.356 . S
N393 H396 0.984 . S
N393 H397 0.985 . S
H394 N389 0.984 . S
H395 N389 0.985 . S
H396 N393 0.984 . S
H397 N393 0.985 . S
H398 N392 0.984 . S
H399 N392 0.984 . S
H400 N388 0.984 . S
H401 N388 0.985 . S
C402 C403 1.363 . S
C402 C408 1.379 . S
C402 N410 1.356 . S
C403 C402 1.363 . S
C403 C409 1.363 . S
C404 C405 1.363 . S
C404 C409 1.379 . S
C404 N411 1.356 . S
C405 C404 1.363 . S
C405 C408 1.363 . S
N406 C408 1.356 . S
N406 H418 0.984 . S
N406 H419 0.985 . S
N407 C409 1.356 . S
N407 H412 0.984 . S
N407 H413 0.985 . S
C408 C402 1.379 . S
C408 C405 1.363 . S
C408 N406 1.356 . S
C409 C403 1.363 . S
C409 C404 1.379 . S
C409 N407 1.356 . S
N410 C402 1.356 . S
N410 H416 0.984 . S
N410 H417 0.984 . S
N411 C404 1.356 . S
N411 H414 0.984 . S
N411 H415 0.985 . S
H412 N407 0.984 . S
H413 N407 0.985 . S
H414 N411 0.984 . S
H415 N411 0.985 . S
H416 N410 0.984 . S
H417 N410 0.984 . S
H418 N406 0.984 . S
H419 N406 0.985 . S
C420 C421 1.363 . S
C420 C426 1.379 . S
C420 N428 1.356 . S
C421 C420 1.363 . S
C421 C427 1.363 . S
C422 C423 1.363 . S
C422 C427 1.379 . S
C422 N429 1.356 . S
C423 C422 1.363 . S
C423 C426 1.363 . S
N424 C426 1.356 . S
N424 H436 0.984 . S
N424 H437 0.985 . S
N425 C427 1.356 . S
N425 H430 0.984 . S
N425 H431 0.985 . S
C426 C420 1.379 . S
C426 C423 1.363 . S
C426 N424 1.356 . S
C427 C421 1.363 . S
C427 C422 1.379 . S
C427 N425 1.356 . S
N428 C420 1.356 . S
N428 H434 0.984 . S
N428 H435 0.984 . S
N429 C422 1.356 . S
N429 H432 0.984 . S
N429 H433 0.985 . S
H430 N425 0.984 . S
H431 N425 0.985 . S
H432 N429 0.984 . S
H433 N429 0.985 . S
H434 N428 0.984 . S
H435 N428 0.984 . S
H436 N424 0.984 . S
H437 N424 0.985 . S
C438 C439 1.363 . S
C438 C444 1.379 . S
C438 N446 1.356 . S
C439 C438 1.363 . S
C439 C445 1.363 . S
C440 C441 1.363 . S
C440 C445 1.379 . S
C440 N447 1.356 . S
C441 C440 1.363 . S
C441 C444 1.363 . S
N442 C444 1.356 . S
N442 H454 0.984 . S
N442 H455 0.985 . S
N443 C445 1.356 . S
N443 H448 0.984 . S
N443 H449 0.985 . S
C444 C438 1.379 . S
C444 C441 1.363 . S
C444 N442 1.356 . S
C445 C439 1.363 . S
C445 C440 1.379 . S
C445 N443 1.356 . S
N446 C438 1.356 . S
N446 H452 0.984 . S
N446 H453 0.984 . S
N447 C440 1.356 . S
N447 H450 0.984 . S
N447 H451 0.985 . S
H448 N443 0.984 . S
H449 N443 0.985 . S
H450 N447 0.984 . S
H451 N447 0.985 . S
H452 N446 0.984 . S
H453 N446 0.984 . S
H454 N442 0.984 . S
H455 N442 0.985 . S
C456 C457 1.363 . S
C456 C462 1.379 . S
C456 N464 1.356 . S
C457 C456 1.363 . S
C457 C463 1.363 . S
C458 C459 1.363 . S
C458 C463 1.379 . S
C458 N465 1.356 . S
C459 C458 1.363 . S
C459 C462 1.363 . S
N460 C462 1.356 1_554 S
N460 H472 0.984 . S
N460 H473 0.985 . S
N461 C463 1.356 . S
N461 H466 0.984 . S
N461 H467 0.985 . S
C462 C456 1.379 . S
C462 C459 1.363 . S
C462 N460 1.356 1_556 S
C463 C457 1.363 . S
C463 C458 1.379 . S
C463 N461 1.356 . S
N464 C456 1.356 . S
N464 H470 0.984 . S
N464 H471 0.984 . S
N465 C458 1.356 . S
N465 H468 0.984 1_565 S
N465 H469 0.985 1_565 S
H466 N461 0.984 . S
H467 N461 0.985 . S
H468 N465 0.984 1_545 S
H469 N465 0.985 1_545 S
H470 N464 0.984 . S
H471 N464 0.984 . S
H472 N460 0.984 . S
H473 N460 0.985 . S
C474 C475 1.363 . S
C474 C480 1.379 . S
C474 N482 1.356 . S
C475 C474 1.363 . S
C475 C481 1.363 . S
C476 C477 1.363 . S
C476 C481 1.379 . S
C476 N483 1.356 . S
C477 C476 1.363 . S
C477 C480 1.363 . S
N478 C480 1.356 . S
N478 H490 0.984 . S
N478 H491 0.985 . S
N479 C481 1.356 . S
N479 H484 0.984 . S
N479 H485 0.985 . S
C480 C474 1.379 . S
C480 C477 1.363 . S
C480 N478 1.356 . S
C481 C475 1.363 . S
C481 C476 1.379 . S
C481 N479 1.356 . S
N482 C474 1.356 . S
N482 H488 0.984 . S
N482 H489 0.984 . S
N483 C476 1.356 . S
N483 H486 0.984 . S
N483 H487 0.985 1_545 S
H484 N479 0.984 . S
H485 N479 0.985 . S
H486 N483 0.984 . S
H487 N483 0.985 1_565 S
H488 N482 0.984 . S
H489 N482 0.984 . S
H490 N478 0.984 . S
H491 N478 0.985 . S
C492 C493 1.363 . S
C492 C498 1.379 . S
C492 N500 1.356 . S
C493 C492 1.363 . S
C493 C499 1.363 . S
C494 C495 1.363 . S
C494 C499 1.379 . S
C494 N501 1.356 . S
C495 C494 1.363 . S
C495 C498 1.363 . S
N496 C498 1.356 . S
N496 H508 0.984 . S
N496 H509 0.985 . S
N497 C499 1.356 . S
N497 H502 0.984 . S
N497 H503 0.985 . S
C498 C492 1.379 . S
C498 C495 1.363 . S
C498 N496 1.356 . S
C499 C493 1.363 . S
C499 C494 1.379 . S
C499 N497 1.356 . S
N500 C492 1.356 . S
N500 H506 0.984 . S
N500 H507 0.984 . S
N501 C494 1.356 . S
N501 H504 0.984 . S
N501 H505 0.985 . S
H502 N497 0.984 . S
H503 N497 0.985 . S
H504 N501 0.984 . S
H505 N501 0.985 . S
H506 N500 0.984 . S
H507 N500 0.984 . S
H508 N496 0.984 . S
H509 N496 0.985 . S
C510 C511 1.363 . S
C510 C516 1.379 . S
C510 N518 1.356 . S
C511 C510 1.363 . S
C511 C517 1.363 . S
C512 C513 1.363 . S
C512 C517 1.379 . S
C512 N519 1.356 . S
C513 C512 1.363 . S
C513 C516 1.363 . S
N514 C516 1.356 . S
N514 H526 0.984 . S
N514 H527 0.985 . S
N515 C517 1.356 . S
N515 H520 0.984 . S
N515 H521 0.985 . S
C516 C510 1.379 . S
C516 C513 1.363 . S
C516 N514 1.356 . S
C517 C511 1.363 . S
C517 C512 1.379 . S
C517 N515 1.356 . S
N518 C510 1.356 . S
N518 H524 0.984 . S
N518 H525 0.984 . S
N519 C512 1.356 . S
N519 H522 0.984 . S
N519 H523 0.985 . S
H520 N515 0.984 . S
H521 N515 0.985 . S
H522 N519 0.984 . S
H523 N519 0.985 . S
H524 N518 0.984 . S
H525 N518 0.984 . S
H526 N514 0.984 . S
H527 N514 0.985 . S
C528 C529 1.363 . S
C528 C534 1.379 . S
C528 N536 1.356 . S
C529 C528 1.363 . S
C529 C535 1.363 . S
C530 C531 1.363 . S
C530 C535 1.379 . S
C530 N537 1.356 . S
C531 C530 1.363 . S
C531 C534 1.363 . S
N532 C534 1.356 . S
N532 H544 0.984 . S
N532 H545 0.985 . S
N533 C535 1.356 . S
N533 H538 0.984 . S
N533 H539 0.985 . S
C534 C528 1.379 . S
C534 C531 1.363 . S
C534 N532 1.356 . S
C535 C529 1.363 . S
C535 C530 1.379 . S
C535 N533 1.356 . S
N536 C528 1.356 . S
N536 H542 0.984 . S
N536 H543 0.984 . S
N537 C530 1.356 . S
N537 H540 0.984 . S
N537 H541 0.985 . S
H538 N533 0.984 . S
H539 N533 0.985 . S
H540 N537 0.984 . S
H541 N537 0.985 . S
H542 N536 0.984 . S
H543 N536 0.984 . S
H544 N532 0.984 . S
H545 N532 0.985 . S
C546 C547 1.363 . S
C546 C552 1.379 . S
C546 N554 1.356 . S
C547 C546 1.363 . S
C547 C553 1.363 . S
C548 C549 1.363 . S
C548 C553 1.379 . S
C548 N555 1.356 . S
C549 C548 1.363 . S
C549 C552 1.363 . S
N550 C552 1.356 . S
N550 H562 0.984 . S
N550 H563 0.985 . S
N551 C553 1.356 . S
N551 H556 0.984 . S
N551 H557 0.985 . S
C552 C546 1.379 . S
C552 C549 1.363 . S
C552 N550 1.356 . S
C553 C547 1.363 . S
C553 C548 1.379 . S
C553 N551 1.356 . S
N554 C546 1.356 . S
N554 H560 0.984 . S
N554 H561 0.984 . S
N555 C548 1.356 . S
N555 H558 0.984 . S
N555 H559 0.985 . S
H556 N551 0.984 . S
H557 N551 0.985 . S
H558 N555 0.984 . S
H559 N555 0.985 . S
H560 N554 0.984 . S
H561 N554 0.984 . S
H562 N550 0.984 . S
H563 N550 0.985 . S
C564 C565 1.363 . S
C564 C570 1.379 . S
C564 N572 1.356 . S
C565 C564 1.363 . S
C565 C571 1.363 . S
C566 C567 1.363 . S
C566 C571 1.379 . S
C566 N573 1.356 . S
C567 C566 1.363 . S
C567 C570 1.363 . S
N568 C570 1.356 . S
N568 H580 0.984 . S
N568 H581 0.985 . S
N569 C571 1.356 . S
N569 H574 0.984 . S
N569 H575 0.985 . S
C570 C564 1.379 . S
C570 C567 1.363 . S
C570 N568 1.356 . S
C571 C565 1.363 . S
C571 C566 1.379 . S
C571 N569 1.356 . S
N572 C564 1.356 . S
N572 H578 0.984 . S
N572 H579 0.984 . S
N573 C566 1.356 . S
N573 H576 0.984 . S
N573 H577 0.985 . S
H574 N569 0.984 . S
H575 N569 0.985 . S
H576 N573 0.984 . S
H577 N573 0.985 . S
H578 N572 0.984 . S
H579 N572 0.984 . S
H580 N568 0.984 . S
H581 N568 0.985 . S
C582 C583 1.363 . S
C582 C588 1.379 . S
C582 N590 1.356 . S
C583 C582 1.363 . S
C583 C589 1.363 . S
C584 C585 1.363 . S
C584 C589 1.379 . S
C584 N591 1.356 . S
C585 C584 1.363 . S
C585 C588 1.363 . S
N586 C588 1.356 . S
N586 H598 0.984 . S
N586 H599 0.985 . S
N587 C589 1.356 . S
N587 H592 0.984 . S
N587 H593 0.985 . S
C588 C582 1.379 . S
C588 C585 1.363 . S
C588 N586 1.356 . S
C589 C583 1.363 . S
C589 C584 1.379 . S
C589 N587 1.356 . S
N590 C582 1.356 . S
N590 H596 0.984 . S
N590 H597 0.984 . S
N591 C584 1.356 . S
N591 H594 0.984 . S
N591 H595 0.985 . S
H592 N587 0.984 . S
H593 N587 0.985 . S
H594 N591 0.984 . S
H595 N591 0.985 . S
H596 N590 0.984 . S
H597 N590 0.984 . S
H598 N586 0.984 . S
H599 N586 0.985 . S
C169 C5 1.279 . S
C171 C90 1.583 . S
C187 C18 1.324 . S
C189 C109 1.419 . S
C207 C146 1.626 . S
C205 C30 1.640 . S
C223 C41 1.558 . S
C225 C156 1.514 . S
C243 C126 1.979 . S
C241 C7 1.848 . S
C261 C96 1.524 . S
C259 C16 1.302 . S
C279 C167 1.614 . S
C277 C29 1.540 . S
C297 C137 1.166 . S
C295 C38 1.106 . S
C313 C8 1.613 . S
C315 C150 1.690 . S
C333 C117 1.887 . S
C331 C27 1.709 . S
C349 C40 1.790 . S
C351 C107 1.803 . S
C367 C19 1.076 . S
C369 C129 1.091 . S
C387 C89 1.490 . S
C385 C51 1.311 . S
C403 C62 1.517 . S
C405 C110 1.489 . S
C421 C74 1.756 . S
C423 C147 1.746 . S
C439 C84 1.570 . S
C441 C157 1.643 . S
C457 C49 1.594 . S
C459 C127 2.057 1_556 S
C477 C97 1.429 . S
C475 C63 1.453 . S
C495 C166 1.537 . S
C493 C71 1.434 . S
C513 C136 1.280 . S
C511 C85 1.262 . S
C529 C52 1.552 . S
C531 C149 1.646 . S
C549 C116 1.935 . S
C547 C73 1.960 . S
C567 C106 1.564 . S
C565 C82 1.264 . S
C583 C60 1.079 . S
C585 C130 1.307 . S
