# Generated by pormake.
# Topology ocu, (6,8)-cn, num edge types: 1
# Building blocks:
#     Node 0, Type 0, BuildingBlock: MIFKUJ_clean_sbu_0, # of connection points: 6
#     Node 1, Type 0, BuildingBlock: MIFKUJ_clean_sbu_0, # of connection points: 6
#     Node 2, Type 0, BuildingBlock: MIFKUJ_clean_sbu_0, # of connection points: 6
#     Node 3, Type 0, BuildingBlock: MIFKUJ_clean_sbu_0, # of connection points: 6
#     Node 4, Type 0, BuildingBlock: MIFKUJ_clean_sbu_0, # of connection points: 6
#     Node 5, Type 0, BuildingBlock: MIFKUJ_clean_sbu_0, # of connection points: 6
#     Node 6, Type 0, BuildingBlock: MIFKUJ_clean_sbu_0, # of connection points: 6
#     Node 7, Type 0, BuildingBlock: MIFKUJ_clean_sbu_0, # of connection points: 6
#     Node 8, Type 1, BuildingBlock: TAGTUT_clean_sbu_1, # of connection points: 8
#     Node 9, Type 1, BuildingBlock: TAGTUT_clean_sbu_1, # of connection points: 8
#     Node 10, Type 1, BuildingBlock: TAGTUT_clean_sbu_1, # of connection points: 8
#     Node 11, Type 1, BuildingBlock: TAGTUT_clean_sbu_1, # of connection points: 8
#     Node 12, Type 1, BuildingBlock: TAGTUT_clean_sbu_1, # of connection points: 8
#     Node 13, Type 1, BuildingBlock: TAGTUT_clean_sbu_1, # of connection points: 8
#     Edge 14, Type (0, 1), BuildingBlock: ZUJKAS_clean_linker_0, # of connection points: 2
#     Edge 15, Type (0, 1), BuildingBlock: ZUJKAS_clean_linker_0, # of connection points: 2
#     Edge 16, Type (0, 1), BuildingBlock: ZUJKAS_clean_linker_0, # of connection points: 2
#     Edge 17, Type (0, 1), BuildingBlock: ZUJKAS_clean_linker_0, # of connection points: 2
#     Edge 18, Type (0, 1), BuildingBlock: ZUJKAS_clean_linker_0, # of connection points: 2
#     Edge 19, Type (0, 1), BuildingBlock: ZUJKAS_clean_linker_0, # of connection points: 2
#     Edge 20, Type (0, 1), BuildingBlock: ZUJKAS_clean_linker_0, # of connection points: 2
#     Edge 21, Type (0, 1), BuildingBlock: ZUJKAS_clean_linker_0, # of connection points: 2
#     Edge 22, Type (0, 1), BuildingBlock: ZUJKAS_clean_linker_0, # of connection points: 2
#     Edge 23, Type (0, 1), BuildingBlock: ZUJKAS_clean_linker_0, # of connection points: 2
#     Edge 24, Type (0, 1), BuildingBlock: ZUJKAS_clean_linker_0, # of connection points: 2
#     Edge 25, Type (0, 1), BuildingBlock: ZUJKAS_clean_linker_0, # of connection points: 2
#     Edge 26, Type (0, 1), BuildingBlock: ZUJKAS_clean_linker_0, # of connection points: 2
#     Edge 27, Type (0, 1), BuildingBlock: ZUJKAS_clean_linker_0, # of connection points: 2
#     Edge 28, Type (0, 1), BuildingBlock: ZUJKAS_clean_linker_0, # of connection points: 2
#     Edge 29, Type (0, 1), BuildingBlock: ZUJKAS_clean_linker_0, # of connection points: 2
#     Edge 30, Type (0, 1), BuildingBlock: ZUJKAS_clean_linker_0, # of connection points: 2
#     Edge 31, Type (0, 1), BuildingBlock: ZUJKAS_clean_linker_0, # of connection points: 2
#     Edge 32, Type (0, 1), BuildingBlock: ZUJKAS_clean_linker_0, # of connection points: 2
#     Edge 33, Type (0, 1), BuildingBlock: ZUJKAS_clean_linker_0, # of connection points: 2
#     Edge 34, Type (0, 1), BuildingBlock: ZUJKAS_clean_linker_0, # of connection points: 2
#     Edge 35, Type (0, 1), BuildingBlock: ZUJKAS_clean_linker_0, # of connection points: 2
#     Edge 36, Type (0, 1), BuildingBlock: ZUJKAS_clean_linker_0, # of connection points: 2
#     Edge 37, Type (0, 1), BuildingBlock: ZUJKAS_clean_linker_0, # of connection points: 2
#     Edge 38, Type (0, 1), BuildingBlock: ZUJKAS_clean_linker_0, # of connection points: 2
#     Edge 39, Type (0, 1), BuildingBlock: ZUJKAS_clean_linker_0, # of connection points: 2
#     Edge 40, Type (0, 1), BuildingBlock: ZUJKAS_clean_linker_0, # of connection points: 2
#     Edge 41, Type (0, 1), BuildingBlock: ZUJKAS_clean_linker_0, # of connection points: 2
#     Edge 42, Type (0, 1), BuildingBlock: ZUJKAS_clean_linker_0, # of connection points: 2
#     Edge 43, Type (0, 1), BuildingBlock: ZUJKAS_clean_linker_0, # of connection points: 2
#     Edge 44, Type (0, 1), BuildingBlock: ZUJKAS_clean_linker_0, # of connection points: 2
#     Edge 45, Type (0, 1), BuildingBlock: ZUJKAS_clean_linker_0, # of connection points: 2
#     Edge 46, Type (0, 1), BuildingBlock: ZUJKAS_clean_linker_0, # of connection points: 2
#     Edge 47, Type (0, 1), BuildingBlock: ZUJKAS_clean_linker_0, # of connection points: 2
#     Edge 48, Type (0, 1), BuildingBlock: ZUJKAS_clean_linker_0, # of connection points: 2
#     Edge 49, Type (0, 1), BuildingBlock: ZUJKAS_clean_linker_0, # of connection points: 2
#     Edge 50, Type (0, 1), BuildingBlock: ZUJKAS_clean_linker_0, # of connection points: 2
#     Edge 51, Type (0, 1), BuildingBlock: ZUJKAS_clean_linker_0, # of connection points: 2
#     Edge 52, Type (0, 1), BuildingBlock: ZUJKAS_clean_linker_0, # of connection points: 2
#     Edge 53, Type (0, 1), BuildingBlock: ZUJKAS_clean_linker_0, # of connection points: 2
#     Edge 54, Type (0, 1), BuildingBlock: ZUJKAS_clean_linker_0, # of connection points: 2
#     Edge 55, Type (0, 1), BuildingBlock: ZUJKAS_clean_linker_0, # of connection points: 2
#     Edge 56, Type (0, 1), BuildingBlock: ZUJKAS_clean_linker_0, # of connection points: 2
#     Edge 57, Type (0, 1), BuildingBlock: ZUJKAS_clean_linker_0, # of connection points: 2
#     Edge 58, Type (0, 1), BuildingBlock: ZUJKAS_clean_linker_0, # of connection points: 2
#     Edge 59, Type (0, 1), BuildingBlock: ZUJKAS_clean_linker_0, # of connection points: 2
#     Edge 60, Type (0, 1), BuildingBlock: ZUJKAS_clean_linker_0, # of connection points: 2
#     Edge 61, Type (0, 1), BuildingBlock: ZUJKAS_clean_linker_0, # of connection points: 2
# Relax obj value: 0.064
# Max RMSD: 0.219
# Mean RMSD: 0.129
data_MOF--net-ocu--node1-MIFKUJ_clean_sbu_0--node2-TAGTUT_clean_sbu_1--edge1-ZUJKAS_clean_linker_0
_symmetry_space_group_name_H-M    P1
_symmetry_Int_Tables_number       1
_symmetry_cell_setting            triclinic
loop_
_symmetry_equiv_pos_as_xyz
'x, y, z'
_cell_length_a     48.899959
_cell_length_b     48.57373
_cell_length_c     49.327018
_cell_angle_alpha  92.0388
_cell_angle_beta   95.614193
_cell_angle_gamma 105.8653
loop_
_atom_site_label
_atom_site_type_symbol
_atom_site_fract_x
_atom_site_fract_y
_atom_site_fract_z
_atom_type_partial_charge
Zn0 Zn 0.25012 0.28378 0.26631 0.0
Zn1 Zn 0.25822 0.22379 0.23418 0.0
C2 C 0.22767 0.30859 0.30688 0.0
O3 O 0.20717 0.28539 0.29805 0.0
C4 C 0.28054 0.19722 0.19494 0.0
O5 O 0.30173 0.21959 0.20439 0.0
O6 O 0.21989 0.29095 0.23813 0.0
O7 O 0.28819 0.29444 0.24949 0.0
O8 O 0.27397 0.26112 0.21557 0.0
C9 C 0.22699 0.31647 0.23042 0.0
O10 O 0.25253 0.33321 0.23935 0.0
O11 O 0.25112 0.31383 0.29628 0.0
C12 C 0.2809 0.19077 0.27038 0.0
O13 O 0.2555 0.17388 0.26123 0.0
O14 O 0.28788 0.21633 0.26279 0.0
O15 O 0.21989 0.21396 0.25019 0.0
O16 O 0.23564 0.24601 0.28491 0.0
O17 O 0.25667 0.19331 0.20459 0.0
C18 C 0.29006 0.28542 0.22534 0.0
C19 C 0.21886 0.22219 0.27477 0.0
Zn20 Zn 0.75877 0.28433 0.22413 0.0
Zn21 Zn 0.74799 0.20785 0.2675 0.0
C22 C 0.72692 0.31439 0.19057 0.0
O23 O 0.74823 0.31594 0.17585 0.0
C24 C 0.78555 0.18858 0.3051 0.0
O25 O 0.77176 0.19983 0.32198 0.0
O26 O 0.79765 0.31234 0.22639 0.0
O27 O 0.75361 0.26682 0.26004 0.0
O28 O 0.75003 0.24105 0.29516 0.0
C29 C 0.80314 0.33927 0.23113 0.0
O30 O 0.78225 0.35065 0.23503 0.0
O31 O 0.72691 0.30212 0.2129 0.0
C32 C 0.70181 0.15411 0.26414 0.0
O33 O 0.7221 0.1411 0.2642 0.0
O34 O 0.70841 0.18131 0.26524 0.0
O35 O 0.75345 0.22518 0.2313 0.0
O36 O 0.7573 0.2514 0.1964 0.0
O37 O 0.77877 0.1887 0.27955 0.0
C38 C 0.75278 0.26546 0.28548 0.0
C39 C 0.75441 0.22683 0.20586 0.0
Zn40 Zn 0.78294 0.74377 0.23004 0.0
Zn41 Zn 0.72151 0.76264 0.26692 0.0
C42 C 0.8252 0.72848 0.26508 0.0
O43 O 0.84051 0.75176 0.25515 0.0
C44 C 0.6793 0.77674 0.23091 0.0
O45 O 0.66412 0.75359 0.24111 0.0
O46 O 0.79533 0.73466 0.19391 0.0
O47 O 0.73988 0.73665 0.22848 0.0
O48 O 0.70609 0.7204 0.25419 0.0
C49 C 0.79284 0.70817 0.18891 0.0
O50 O 0.78198 0.68985 0.20663 0.0
O51 O 0.79836 0.72024 0.25787 0.0
C52 C 0.71753 0.80164 0.30695 0.0
O53 O 0.73029 0.81748 0.28833 0.0
O54 O 0.71053 0.77448 0.3029 0.0
O55 O 0.76448 0.76934 0.26895 0.0
O56 O 0.79858 0.7857 0.24374 0.0
O57 O 0.70611 0.78535 0.23829 0.0
C58 C 0.72175 0.71536 0.23653 0.0
C59 C 0.78289 0.79064 0.26137 0.0
Zn60 Zn 0.23905 0.77015 0.25483 0.0
Zn61 Zn 0.26694 0.72178 0.24254 0.0
C62 C 0.18784 0.73596 0.27196 0.0
O63 O 0.17737 0.7504 0.25359 0.0
C64 C 0.31786 0.75694 0.2257 0.0
O65 O 0.32838 0.74068 0.24207 0.0
O66 O 0.22537 0.80471 0.26441 0.0
O67 O 0.28007 0.77732 0.27029 0.0
O68 O 0.27578 0.73344 0.28277 0.0
C69 C 0.23583 0.81879 0.28706 0.0
O70 O 0.25762 0.81304 0.30103 0.0
O71 O 0.21475 0.73986 0.2758 0.0
C72 C 0.27496 0.68196 0.20514 0.0
O73 O 0.26148 0.69749 0.19084 0.0
O74 O 0.28005 0.6873 0.2309 0.0
O75 O 0.22567 0.71428 0.22763 0.0
O76 O 0.23036 0.75792 0.2148 0.0
O77 O 0.29097 0.75338 0.22259 0.0
C78 C 0.28548 0.76041 0.28781 0.0
C79 C 0.2206 0.73099 0.20979 0.0
Zn80 Zn 0.25999 0.78736 0.72539 0.0
Zn81 Zn 0.24678 0.70876 0.76585 0.0
C82 C 0.20475 0.79411 0.70847 0.0
O83 O 0.19821 0.76597 0.70758 0.0
C84 C 0.28334 0.68609 0.80066 0.0
O85 O 0.26721 0.69311 0.81798 0.0
O86 O 0.29999 0.81261 0.72544 0.0
O87 O 0.25535 0.7694 0.7613 0.0
O88 O 0.2504 0.74109 0.79466 0.0
C89 C 0.30692 0.83981 0.72804 0.0
O90 O 0.28721 0.85285 0.73181 0.0
O91 O 0.23039 0.80855 0.71631 0.0
C92 C 0.20355 0.65406 0.76547 0.0
O93 O 0.2251 0.64311 0.76349 0.0
O94 O 0.20793 0.68108 0.76595 0.0
O95 O 0.2504 0.72711 0.73009 0.0
O96 O 0.2541 0.75474 0.69625 0.0
O97 O 0.27852 0.6903 0.77557 0.0
C98 C 0.25452 0.76633 0.7866 0.0
C99 C 0.24983 0.7296 0.70461 0.0
Zn100 Zn 0.27734 0.2241 0.74669 0.0
Zn101 Zn 0.20717 0.26081 0.74712 0.0
C102 C 0.32447 0.20982 0.7753 0.0
O103 O 0.33693 0.22419 0.75568 0.0
C104 C 0.16291 0.28057 0.71963 0.0
O105 O 0.14944 0.26626 0.73878 0.0
O106 O 0.28223 0.20677 0.71059 0.0
O107 O 0.23618 0.21887 0.75184 0.0
O108 O 0.19296 0.21806 0.73644 0.0
C109 C 0.28262 0.1807 0.70975 0.0
O110 O 0.27864 0.16642 0.73182 0.0
O111 O 0.29801 0.2072 0.7766 0.0
C112 C 0.19701 0.29777 0.78678 0.0
O113 O 0.20551 0.31504 0.76749 0.0
O114 O 0.19616 0.27147 0.78345 0.0
O115 O 0.25081 0.27234 0.74925 0.0
O116 O 0.29415 0.26742 0.74931 0.0
O117 O 0.18894 0.28122 0.71813 0.0
C118 C 0.21285 0.20578 0.73781 0.0
C119 C 0.27776 0.28353 0.75201 0.0
Zn120 Zn 0.72256 0.26482 0.76747 0.0
Zn121 Zn 0.78855 0.23736 0.74762 0.0
C122 C 0.66894 0.22337 0.77652 0.0
O123 O 0.66226 0.22346 0.75008 0.0
C124 C 0.83247 0.28099 0.72981 0.0
O125 O 0.84708 0.26875 0.74693 0.0
O126 O 0.72089 0.30489 0.7761 0.0
O127 O 0.76034 0.25992 0.7812 0.0
O128 O 0.80086 0.25013 0.78793 0.0
C129 C 0.69689 0.31015 0.77144 0.0
O130 O 0.67587 0.29098 0.75684 0.0
O131 O 0.69311 0.23879 0.78752 0.0
C132 C 0.80386 0.20562 0.70716 0.0
O133 O 0.79357 0.22422 0.69389 0.0
O134 O 0.80402 0.20589 0.733 0.0
O135 O 0.74494 0.22528 0.74044 0.0
O136 O 0.71677 0.25154 0.72742 0.0
O137 O 0.8053 0.27199 0.72706 0.0
C138 C 0.78276 0.26155 0.79693 0.0
C139 C 0.73079 0.23403 0.72127 0.0
Zn140 Zn 0.73373 0.78486 0.75403 0.0
Zn141 Zn 0.77241 0.71915 0.74237 0.0
C142 C 0.71303 0.80647 0.79721 0.0
O143 O 0.69125 0.78623 0.78494 0.0
C144 C 0.78971 0.69637 0.69743 0.0
O145 O 0.8125 0.71636 0.70827 0.0
O146 O 0.70466 0.79664 0.72805 0.0
O147 O 0.7711 0.79539 0.73583 0.0
O148 O 0.79003 0.75933 0.72943 0.0
C149 C 0.71247 0.8231 0.72331 0.0
O150 O 0.73787 0.83869 0.7341 0.0
O151 O 0.73699 0.81134 0.78758 0.0
C152 C 0.79348 0.67998 0.77185 0.0
O153 O 0.76763 0.66498 0.7617 0.0
O154 O 0.80182 0.70639 0.76702 0.0
O155 O 0.7363 0.70954 0.76201 0.0
O156 O 0.71616 0.74479 0.76741 0.0
O157 O 0.76671 0.6925 0.7086 0.0
C158 C 0.79033 0.78544 0.72688 0.0
C159 C 0.71667 0.71901 0.77067 0.0
C160 C 0.94583 0.06084 0.53546 0.0
C161 C 0.97382 0.06222 0.45475 0.0
C162 C 0.95676 0.95022 0.46041 0.0
Mg163 Mg 0.00365 0.06333 0.51273 0.0
O164 O 0.98799 0.02345 0.51342 0.0
Mg165 Mg 0.94899 0.00588 0.49307 0.0
Mg166 Mg 0.00842 0.99698 0.49851 0.0
O167 O 0.02826 0.97013 0.4834 0.0
Mg168 Mg 0.01154 0.93023 0.48321 0.0
Mg169 Mg 0.06703 0.98691 0.50396 0.0
C170 C 0.05997 0.04477 0.53462 0.0
C171 C 0.05667 0.03217 0.45942 0.0
O172 O 0.93397 0.03734 0.52082 0.0
O173 O 0.97248 0.07416 0.53596 0.0
O174 O 0.95654 0.03878 0.46039 0.0
O175 O 0.99541 0.07551 0.47149 0.0
O176 O 0.04709 0.06445 0.53074 0.0
O177 O 0.04782 0.01828 0.5272 0.0
C178 C 0.96004 0.96012 0.53677 0.0
O179 O 0.98616 0.96534 0.53115 0.0
O180 O 0.94282 0.97277 0.525 0.0
O181 O 0.08173 0.95432 0.47699 0.0
O182 O 0.04278 0.9188 0.46031 0.0
O183 O 0.05784 0.95452 0.53693 0.0
C184 C 0.06971 0.93128 0.46175 0.0
O185 O 0.01853 0.9184 0.52488 0.0
O186 O 0.96858 0.9297 0.46374 0.0
C187 C 0.03975 0.9314 0.5422 0.0
O188 O 0.96929 0.97604 0.46958 0.0
O189 O 0.03102 0.02859 0.46599 0.0
O190 O 0.07331 0.01876 0.47103 0.0
C191 C 0.42336 0.04505 0.04034 0.0
C192 C 0.45738 0.0545 0.96299 0.0
C193 C 0.45299 0.94257 0.96692 0.0
Mg194 Mg 0.48444 0.05537 0.02235 0.0
O195 O 0.47329 0.0152 0.02059 0.0
Mg196 Mg 0.43643 0.99473 0.99806 0.0
Mg197 Mg 0.49847 0.99359 0.00577 0.0
O198 O 0.52369 0.97199 0.99094 0.0
Mg199 Mg 0.51276 0.93179 0.99019 0.0
Mg200 Mg 0.5608 0.99311 0.01276 0.0
C201 C 0.5442 0.04463 0.04486 0.0
C202 C 0.54212 0.0356 0.96948 0.0
O203 O 0.41503 0.02193 0.02457 0.0
O204 O 0.44944 0.06065 0.0435 0.0
O205 O 0.44159 0.02934 0.96629 0.0
O206 O 0.47719 0.06809 0.98138 0.0
O207 O 0.52846 0.06192 0.04181 0.0
O208 O 0.53535 0.01823 0.03593 0.0
C209 C 0.45401 0.95162 0.04134 0.0
O210 O 0.48006 0.96004 0.03592 0.0
O211 O 0.43443 0.96161 0.02973 0.0
O212 O 0.58195 0.96594 0.98611 0.0
O213 O 0.54777 0.92616 0.96906 0.0
O214 O 0.55675 0.95898 0.04475 0.0
C215 C 0.57367 0.9422 0.97127 0.0
O216 O 0.52083 0.91993 0.03151 0.0
O217 O 0.46863 0.92522 0.97056 0.0
C218 C 0.54131 0.93399 0.04906 0.0
O219 O 0.46187 0.96908 0.97549 0.0
O220 O 0.51635 0.02697 0.97553 0.0
O221 O 0.56214 0.02602 0.98076 0.0
C222 C 0.94593 0.57134 0.02571 0.0
C223 C 0.95848 0.54368 0.94634 0.0
C224 C 0.95391 0.44115 0.98886 0.0
Mg225 Mg 0.99881 0.56455 -0.00059 0.0
O226 O 0.98739 0.5283 0.013 0.0
Mg227 Mg 0.94679 0.50518 0.00235 0.0
Mg228 Mg 0.00748 0.49874 0.00495 0.0
O229 O 0.02739 0.46924 0.9968 0.0
Mg230 Mg 0.01525 0.43213 0.00823 0.0
Mg231 Mg 0.06796 0.49188 0.00779 0.0
C232 C 0.06063 0.55574 0.01778 0.0
C233 C 0.04267 0.51606 0.95263 0.0
O234 O 0.93402 0.54444 0.01977 0.0
O235 O 0.9716 0.58371 0.02095 0.0
O236 O 0.94398 0.52332 0.95933 0.0
O237 O 0.98184 0.56093 0.95738 0.0
O238 O 0.04487 0.57184 0.0096 0.0
O239 O 0.05024 0.52918 0.02223 0.0
C240 C 0.97277 0.48167 0.05751 0.0
O241 O 0.99598 0.4827 0.04694 0.0
O242 O 0.95197 0.48885 0.04461 0.0
O243 O 0.08092 0.45288 0.99002 0.0
O244 O 0.04232 0.41426 0.98544 0.0
O245 O 0.06978 0.47233 0.05035 0.0
C246 C 0.06848 0.42649 0.98225 0.0
O247 O 0.032 0.43399 0.05031 0.0
O248 O 0.9694 0.42448 0.99606 0.0
C249 C 0.05512 0.45101 0.06222 0.0
O250 O 0.96474 0.4683 0.98768 0.0
O251 O 0.01924 0.5148 0.96292 0.0
O252 O 0.06337 0.50888 0.96573 0.0
C253 C 0.43722 0.5647 0.03091 0.0
C254 C 0.47071 0.56611 0.95203 0.0
C255 C 0.45486 0.45325 0.96061 0.0
Mg256 Mg 0.49697 0.56841 0.01188 0.0
O257 O 0.48187 0.52838 0.01147 0.0
Mg258 Mg 0.44402 0.51003 0.98974 0.0
Mg259 Mg 0.50373 0.50244 0.99838 0.0
O260 O 0.52571 0.47646 0.98547 0.0
Mg261 Mg 0.51083 0.43655 0.98638 0.0
Mg262 Mg 0.56375 0.49504 0.0069 0.0
C263 C 0.55253 0.55095 0.03755 0.0
C264 C 0.55299 0.5387 0.96064 0.0
O265 O 0.42662 0.54147 0.01556 0.0
O266 O 0.46393 0.57825 0.03319 0.0
O267 O 0.45326 0.54229 0.95662 0.0
O268 O 0.49074 0.57999 0.97011 0.0
O269 O 0.53955 0.57045 0.03313 0.0
O270 O 0.5415 0.52478 0.02851 0.0
C271 C 0.45427 0.46639 0.03599 0.0
O272 O 0.48048 0.47092 0.03077 0.0
O273 O 0.43742 0.47861 0.02292 0.0
O274 O 0.58099 0.46382 0.98108 0.0
O275 O 0.54365 0.42634 0.96494 0.0
O276 O 0.55575 0.46256 0.04005 0.0
C277 C 0.57026 0.44016 0.96643 0.0
O278 O 0.51744 0.42545 0.02819 0.0
O279 O 0.46798 0.43403 0.9659 0.0
C280 C 0.53848 0.43897 0.04543 0.0
O281 O 0.46594 0.47985 0.9682 0.0
O282 O 0.52682 0.53408 0.96599 0.0
O283 O 0.56992 0.5265 0.97361 0.0
C284 C 0.92136 0.55425 0.52328 0.0
C285 C 0.95612 0.56505 0.44646 0.0
C286 C 0.95223 0.45391 0.44838 0.0
Mg287 Mg 0.98282 0.56496 0.50579 0.0
O288 O 0.9714 0.52479 0.50385 0.0
Mg289 Mg 0.93484 0.50469 0.48057 0.0
Mg290 Mg 0.99705 0.50336 0.48964 0.0
O291 O 0.02259 0.48193 0.47528 0.0
Mg292 Mg 0.0112 0.44174 0.4716 0.0
Mg293 Mg 0.05864 0.50126 0.49946 0.0
C294 C 0.04163 0.55302 0.53036 0.0
C295 C 0.04387 0.54651 0.45708 0.0
O296 O 0.91302 0.53128 0.5073 0.0
O297 O 0.94745 0.56983 0.52658 0.0
O298 O 0.94034 0.53988 0.44964 0.0
O299 O 0.97608 0.57841 0.46485 0.0
O300 O 0.02636 0.57066 0.52632 0.0
O301 O 0.03266 0.52656 0.52163 0.0
C302 C 0.95106 0.46042 0.52329 0.0
O303 O 0.97726 0.46896 0.51843 0.0
O304 O 0.93176 0.47064 0.51152 0.0
O305 O 0.08095 0.47473 0.47314 0.0
O306 O 0.04707 0.43729 0.4513 0.0
O307 O 0.05126 0.46545 0.53003 0.0
C308 C 0.07321 0.4525 0.45619 0.0
O309 O 0.01681 0.42698 0.51195 0.0
O310 O 0.96761 0.43627 0.45141 0.0
C311 C 0.03531 0.43995 0.53165 0.0
O312 O 0.96116 0.48012 0.45783 0.0
O313 O 0.01741 0.53803 0.46123 0.0
O314 O 0.06273 0.53577 0.46899 0.0
C315 C 0.42589 0.06533 0.51745 0.0
C316 C 0.45082 0.05421 0.43808 0.0
C317 C 0.45195 0.94778 0.47187 0.0
Mg318 Mg 0.48409 0.06988 0.49514 0.0
O319 O 0.47459 0.03139 0.5033 0.0
Mg320 Mg 0.4364 0.00605 0.48719 0.0
Mg321 Mg 0.49928 0.00704 0.49325 0.0
O322 O 0.52406 0.98259 0.48343 0.0
Mg323 Mg 0.51477 0.94474 0.49356 0.0
Mg324 Mg 0.56229 0.00809 0.49945 0.0
C325 C 0.54639 0.06645 0.51852 0.0
C326 C 0.53778 0.03698 0.44694 0.0
O327 O 0.41704 0.03901 0.50799 0.0
O328 O 0.45134 0.08103 0.51561 0.0
O329 O 0.43617 0.03118 0.44755 0.0
O330 O 0.47252 0.07118 0.45224 0.0
O331 O 0.52922 0.08159 0.51173 0.0
O332 O 0.53825 0.03889 0.51634 0.0
C333 C 0.46062 0.97647 0.53931 0.0
O334 O 0.48568 0.98346 0.53135 0.0
O335 O 0.43933 0.98269 0.52618 0.0
O336 O 0.58148 0.97427 0.47933 0.0
O337 O 0.5469 0.93227 0.47337 0.0
O338 O 0.56319 0.98437 0.53971 0.0
C339 C 0.57236 0.94759 0.47091 0.0
O340 O 0.52688 0.94457 0.53641 0.0
O341 O 0.46917 0.93308 0.47972 0.0
C342 C 0.5487 0.96186 0.55 0.0
O343 O 0.4602 0.97511 0.47028 0.0
O344 O 0.51279 0.03044 0.45507 0.0
O345 O 0.55902 0.0307 0.46008 0.0
H346 H 0.20803 0.23546 0.32649 0.0
H347 H 0.17697 0.20515 0.35601 0.0
H348 H 0.15368 0.13611 0.2934 0.0
H349 H 0.18434 0.16669 0.2633 0.0
H350 H 0.10688 0.14001 0.31898 0.0
H351 H 0.19699 0.1417 0.397 0.0
H352 H 0.19403 0.17681 0.38999 0.0
H353 H 0.20252 0.15488 0.36369 0.0
C354 C 0.1963 0.21386 0.31883 0.0
C355 C 0.19901 0.2036 0.2924 0.0
C356 C 0.17856 0.19642 0.33591 0.0
C357 C 0.16324 0.16799 0.32732 0.0
C358 C 0.16528 0.15786 0.30069 0.0
H359 H 0.10253 0.03199 0.43252 0.0
H360 H 0.12521 0.06494 0.40029 0.0
C361 C 0.18294 0.17541 0.28347 0.0
C362 C 0.14577 0.14876 0.34633 0.0
H363 H 0.15046 0.1205 0.40867 0.0
C364 C 0.11642 0.13574 0.3386 0.0
C365 C 0.15807 0.14282 0.37193 0.0
C366 C 0.18967 0.15453 0.38109 0.0
C367 C 0.09922 0.11717 0.35564 0.0
C368 C 0.11149 0.11165 0.38143 0.0
C369 C 0.1408 0.12479 0.38911 0.0
C370 C 0.09534 0.09056 0.3999 0.0
C371 C 0.06828 0.10294 0.34549 0.0
C372 C 0.07034 0.09333 0.41051 0.0
C373 C 0.05689 0.07402 0.42917 0.0
C374 C 0.0684 0.05179 0.43789 0.0
C375 C 0.09303 0.04891 0.4267 0.0
C376 C 0.10618 0.06787 0.40811 0.0
H377 H 0.06388 0.10405 0.32309 0.0
H378 H 0.06205 0.08009 0.35042 0.0
H379 H 0.05459 0.114 0.35565 0.0
H380 H 0.06164 0.11085 0.40498 0.0
H381 H 0.0381 0.07705 0.43734 0.0
H382 H 0.8069 0.18919 0.35827 0.0
H383 H 0.84452 0.16882 0.37688 0.0
H384 H 0.85449 0.13974 0.29577 0.0
H385 H 0.8169 0.16057 0.27677 0.0
H386 H 0.84292 0.11184 0.37233 0.0
H387 H 0.93756 0.17883 0.32848 0.0
H388 H 0.9048 0.18908 0.32927 0.0
H389 H 0.90694 0.16207 0.30439 0.0
C390 C 0.81714 0.17863 0.34428 0.0
C391 C 0.80881 0.17646 0.31601 0.0
C392 C 0.83872 0.16704 0.35498 0.0
C393 C 0.85255 0.15304 0.33772 0.0
C394 C 0.8445 0.15094 0.30943 0.0
H395 H 0.94175 0.03596 0.40789 0.0
H396 H 0.91566 0.05806 0.37444 0.0
C397 C 0.82286 0.16266 0.29863 0.0
C398 C 0.87398 0.13916 0.34986 0.0
H399 H 0.94471 0.14089 0.35466 0.0
C400 C 0.86513 0.11809 0.36834 0.0
C401 C 0.90301 0.14754 0.34478 0.0
C402 C 0.91384 0.17078 0.32583 0.0
C403 C 0.88449 0.10541 0.38216 0.0
C404 C 0.91348 0.11352 0.37693 0.0
C405 C 0.92242 0.13449 0.35834 0.0
C406 C 0.93474 0.10133 0.392 0.0
C407 C 0.87385 0.0841 0.40299 0.0
C408 C 0.9558 0.11859 0.41159 0.0
C409 C 0.97112 0.10602 0.43056 0.0
C410 C 0.96531 0.07601 0.43029 0.0
C411 C 0.94642 0.05912 0.40883 0.0
C412 C 0.93141 0.0717 0.38974 0.0
H413 H 0.85277 0.08507 0.4089 0.0
H414 H 0.87137 0.06208 0.39424 0.0
H415 H 0.88933 0.08798 0.4217 0.0
H416 H 0.95879 0.14154 0.41355 0.0
H417 H 0.98551 0.1196 0.44684 0.0
H418 H 0.80121 0.84545 0.24501 0.0
H419 H 0.81906 0.8897 0.27499 0.0
H420 H 0.80251 0.83976 0.34537 0.0
H421 H 0.78337 0.79647 0.31575 0.0
H422 H 0.79324 0.88962 0.35484 0.0
H423 H 0.89788 0.90671 0.31206 0.0
H424 H 0.86788 0.9091 0.28921 0.0
H425 H 0.86872 0.87516 0.30222 0.0
C426 C 0.80105 0.84426 0.26689 0.0
C427 C 0.79118 0.81773 0.27819 0.0
C428 C 0.81128 0.86941 0.28397 0.0
C429 C 0.81276 0.868 0.31249 0.0
C430 C 0.80157 0.84154 0.32348 0.0
H431 H 0.91518 0.89929 0.45025 0.0
H432 H 0.87405 0.88869 0.41517 0.0
C433 C 0.79082 0.81671 0.30653 0.0
C434 C 0.82897 0.89256 0.33156 0.0
H435 H 0.898 0.9289 0.35434 0.0
C436 C 0.81604 0.89889 0.35438 0.0
C437 C 0.85873 0.90486 0.3309 0.0
C438 C 0.87426 0.8986 0.30742 0.0
C439 C 0.83257 0.91427 0.37774 0.0
C440 C 0.86245 0.92413 0.37783 0.0
C441 C 0.87495 0.92101 0.35398 0.0
C442 C 0.8818 0.93241 0.40334 0.0
C443 C 0.81842 0.918 0.40288 0.0
C444 C 0.89912 0.96059 0.40861 0.0
C445 C 0.92241 0.96671 0.42877 0.0
C446 C 0.92905 0.94459 0.44343 0.0
C447 C 0.91063 0.91668 0.43918 0.0
C448 C 0.88703 0.91068 0.41936 0.0
H449 H 0.79507 0.9149 0.39794 0.0
H450 H 0.82155 0.90193 0.41744 0.0
H451 H 0.82831 0.93965 0.41317 0.0
H452 H 0.89563 0.97746 0.39608 0.0
H453 H 0.93639 0.98836 0.43142 0.0
H454 H 0.18065 0.82056 0.27378 0.0
H455 H 0.15274 0.84315 0.30145 0.0
H456 H 0.22764 0.87923 0.35872 0.0
H457 H 0.25567 0.85662 0.33139 0.0
H458 H 0.15066 0.82984 0.36095 0.0
H459 H 0.18807 0.94615 0.34374 0.0
H460 H 0.18983 0.9186 0.31888 0.0
H461 H 0.21485 0.92718 0.34912 0.0
C462 C 0.19138 0.83394 0.29185 0.0
C463 C 0.22037 0.83679 0.30042 0.0
C464 C 0.17537 0.8467 0.30769 0.0
C465 C 0.1882 0.86289 0.33202 0.0
C466 C 0.21745 0.86705 0.33985 0.0
H467 H 0.1282 0.946 0.46356 0.0
H468 H 0.15672 0.9285 0.43252 0.0
C469 C 0.2334 0.85408 0.32421 0.0
C470 C 0.17052 0.87287 0.35072 0.0
H471 H 0.15769 0.93289 0.37836 0.0
C472 C 0.15198 0.85234 0.36467 0.0
C473 C 0.17276 0.90223 0.35575 0.0
C474 C 0.1923 0.92494 0.34103 0.0
C475 C 0.13583 0.86043 0.38391 0.0
C476 C 0.13765 0.88984 0.38869 0.0
C477 C 0.15626 0.91037 0.37467 0.0
C478 C 0.1203 0.89973 0.408 0.0
C479 C 0.11768 0.83743 0.39949 0.0
C480 C 0.09034 0.88945 0.40453 0.0
C481 C 0.074 0.8991 0.42243 0.0
C482 C 0.08725 0.91969 0.44393 0.0
C483 C 0.11728 0.93009 0.44728 0.0
C484 C 0.13363 0.92017 0.42951 0.0
H485 H 0.12543 0.81795 0.39976 0.0
H486 H 0.1175 0.84522 0.42089 0.0
H487 H 0.09537 0.83107 0.38941 0.0
H488 H 0.07951 0.87426 0.38767 0.0
H489 H 0.05092 0.8909 0.41898 0.0
H490 H 0.15137 0.76937 0.68193 0.0
H491 H 0.11806 0.79355 0.66018 0.0
H492 H 0.17552 0.8756 0.69005 0.0
H493 H 0.20935 0.85164 0.71127 0.0
H494 H 0.08921 0.83169 0.67782 0.0
H495 H 0.16825 0.88194 0.60793 0.0
H496 H 0.17299 0.8539 0.62934 0.0
H497 H 0.18121 0.89029 0.6434 0.0
C498 C 0.15685 0.79256 0.68409 0.0
C499 C 0.18323 0.80861 0.69798 0.0
C500 C 0.13772 0.80634 0.6717 0.0
C501 C 0.14455 0.83638 0.67304 0.0
C502 C 0.17012 0.8524 0.68823 0.0
H503 H 0.07421 0.95746 0.58787 0.0
H504 H 0.09554 0.93409 0.62379 0.0
C505 C 0.18939 0.83867 0.70042 0.0
C506 C 0.12588 0.85091 0.65709 0.0
H507 H 0.12565 0.89603 0.60567 0.0
C508 C 0.09714 0.8458 0.66206 0.0
C509 C 0.13618 0.86903 0.6363 0.0
C510 C 0.16624 0.87394 0.62868 0.0
C511 C 0.0786 0.8588 0.64708 0.0
C512 C 0.0891 0.87717 0.6266 0.0
C513 C 0.11776 0.88218 0.62164 0.0
C514 C 0.07095 0.89108 0.60927 0.0
C515 C 0.04807 0.8531 0.65337 0.0
C516 C 0.04907 0.87468 0.58988 0.0
C517 C 0.03671 0.88803 0.56923 0.0
C518 C 0.04638 0.91791 0.56755 0.0
C519 C 0.06651 0.93436 0.58841 0.0
C520 C 0.07871 0.92106 0.60901 0.0
H521 H 0.04499 0.84365 0.67341 0.0
H522 H 0.04138 0.87319 0.6534 0.0
H523 H 0.03383 0.83779 0.63732 0.0
H524 H 0.04303 0.85148 0.5895 0.0
H525 H 0.02133 0.87476 0.55343 0.0
H526 H 0.21908 0.15235 0.7452 0.0
H527 H 0.21208 0.11336 0.70963 0.0
H528 H 0.19605 0.16999 0.6483 0.0
H529 H 0.20333 0.20858 0.68351 0.0
H530 H 0.16265 0.0911 0.67983 0.0
H531 H 0.24232 0.12807 0.60926 0.0
H532 H 0.24506 0.14649 0.64225 0.0
H533 H 0.22516 0.15594 0.61305 0.0
C534 C 0.21469 0.15642 0.72399 0.0
C535 C 0.2117 0.18321 0.71686 0.0
C536 C 0.21085 0.13429 0.70374 0.0
C537 C 0.20415 0.13889 0.6762 0.0
C538 C 0.20212 0.1661 0.66922 0.0
H539 H 0.09554 0.09863 0.54626 0.0
H540 H 0.13829 0.11283 0.57886 0.0
C541 C 0.20582 0.18802 0.68936 0.0
C542 C 0.19402 0.11464 0.65524 0.0
H543 H 0.19262 0.1015 0.5867 0.0
C544 C 0.16986 0.09256 0.65968 0.0
C545 C 0.20365 0.11626 0.62905 0.0
C546 C 0.23069 0.1379 0.62332 0.0
C547 C 0.15271 0.07485 0.63785 0.0
C548 C 0.16037 0.07914 0.61106 0.0
C549 C 0.18658 0.09853 0.60721 0.0
C550 C 0.13863 0.06944 0.58715 0.0
C551 C 0.1249 0.05403 0.64326 0.0
C552 C 0.1254 0.04028 0.58006 0.0
C553 C 0.10064 0.03203 0.56146 0.0
C554 C 0.08891 0.0529 0.54977 0.0
C555 C 0.10373 0.08202 0.5552 0.0
C556 C 0.12834 0.09018 0.57371 0.0
H557 H 0.12137 0.05474 0.66516 0.0
H558 H 0.10662 0.05883 0.63109 0.0
H559 H 0.12496 0.03187 0.63703 0.0
H560 H 0.1333 0.02396 0.58994 0.0
H561 H 0.08985 0.00941 0.55754 0.0
H562 H 0.82263 0.16045 0.72589 0.0
H563 H 0.84325 0.12875 0.69953 0.0
H564 H 0.83298 0.17501 0.6279 0.0
H565 H 0.81174 0.20581 0.65355 0.0
H566 H 0.81686 0.11829 0.61584 0.0
H567 H 0.92349 0.15091 0.67738 0.0
H568 H 0.89374 0.13575 0.69599 0.0
H569 H 0.89674 0.16956 0.68115 0.0
C570 C 0.82474 0.16372 0.70451 0.0
C571 C 0.81574 0.18573 0.69186 0.0
C572 C 0.83663 0.14573 0.68952 0.0
C573 C 0.84003 0.14981 0.66185 0.0
C574 C 0.83056 0.17145 0.64921 0.0
H575 H 0.9573 0.11536 0.55822 0.0
H576 H 0.92982 0.13376 0.58956 0.0
C577 C 0.81849 0.18913 0.66399 0.0
C578 C 0.85385 0.13223 0.64568 0.0
H579 H 0.91776 0.11831 0.63954 0.0
C580 C 0.83885 0.11804 0.62111 0.0
C581 C 0.88261 0.1322 0.65254 0.0
C582 C 0.90025 0.14808 0.67807 0.0
C583 C 0.85214 0.10482 0.60264 0.0
C584 C 0.88099 0.10501 0.60938 0.0
C585 C 0.89564 0.1182 0.63445 0.0
C586 C 0.89706 0.09349 0.58998 0.0
C587 C 0.83559 0.09217 0.57552 0.0
C588 C 0.88774 0.06474 0.57973 0.0
C589 C 0.90316 0.05429 0.56139 0.0
C590 C 0.9285 0.07226 0.55346 0.0
C591 C 0.93788 0.10097 0.56394 0.0
C592 C 0.92225 0.11149 0.58193 0.0
H593 H 0.81661 0.10028 0.57081 0.0
H594 H 0.84929 0.09714 0.55866 0.0
H595 H 0.82789 0.06852 0.57613 0.0
H596 H 0.86876 0.05028 0.58616 0.0
H597 H 0.89561 0.03195 0.55399 0.0
H598 H 0.80686 0.84444 0.72586 0.0
H599 H 0.83974 0.87405 0.69707 0.0
H600 H 0.85457 0.79804 0.66091 0.0
H601 H 0.82279 0.76858 0.69046 0.0
H602 H 0.90269 0.83817 0.66614 0.0
H603 H 0.82078 0.88673 0.61981 0.0
H604 H 0.82764 0.89443 0.65602 0.0
H605 H 0.8122 0.85795 0.6423 0.0
C606 C 0.81727 0.834 0.71194 0.0
C607 C 0.81195 0.80394 0.71063 0.0
C608 C 0.83596 0.85101 0.69517 0.0
C609 C 0.84932 0.83847 0.676 0.0
C610 C 0.84465 0.80852 0.67527 0.0
H611 H 0.908 0.92135 0.5311 0.0
H612 H 0.88407 0.89129 0.56506 0.0
C613 C 0.82636 0.79157 0.69234 0.0
C614 C 0.86759 0.85623 0.65637 0.0
H615 H 0.86794 0.90609 0.6089 0.0
C616 C 0.89499 0.85296 0.65359 0.0
C617 C 0.85774 0.87539 0.63946 0.0
C618 C 0.82789 0.87864 0.6393 0.0
C619 C 0.91252 0.86805 0.63463 0.0
C620 C 0.90295 0.88782 0.61831 0.0
C621 C 0.87566 0.89119 0.62131 0.0
C622 C 0.9197 0.9041 0.59687 0.0
C623 C 0.94067 0.86174 0.63169 0.0
C624 C 0.9484 0.92102 0.60262 0.0
C625 C 0.96257 0.93786 0.58264 0.0
C626 C 0.94811 0.93873 0.5567 0.0
C627 C 0.91981 0.92127 0.55085 0.0
C628 C 0.90597 0.90412 0.57044 0.0
H629 H 0.94092 0.84051 0.63922 0.0
H630 H 0.94528 0.86206 0.61009 0.0
H631 H 0.95811 0.87828 0.64401 0.0
H632 H 0.95957 0.92217 0.62285 0.0
H633 H 0.98421 0.95137 0.58798 0.0
H634 H 0.25068 0.14053 0.18334 0.0
H635 H 0.2639 0.10537 0.15382 0.0
H636 H 0.33526 0.17206 0.13228 0.0
H637 H 0.32242 0.20699 0.16153 0.0
H638 H 0.29957 0.13049 0.08699 0.0
H639 H 0.34075 0.08201 0.17754 0.0
H640 H 0.30532 0.08671 0.17571 0.0
H641 H 0.3359 0.1175 0.18018 0.0
C642 C 0.26887 0.14769 0.17192 0.0
C643 C 0.28567 0.17642 0.17486 0.0
C644 C 0.27644 0.12762 0.1552 0.0
C645 C 0.30064 0.13619 0.14108 0.0
C646 C 0.31651 0.16508 0.14303 0.0
H647 H 0.43382 0.08805 0.08043 0.0
H648 H 0.39906 0.10462 0.10391 0.0
C649 C 0.3092 0.18497 0.15984 0.0
C650 C 0.31114 0.11525 0.12566 0.0
H651 H 0.35321 0.06993 0.13487 0.0
C652 C 0.31065 0.1166 0.09726 0.0
C653 C 0.32579 0.09747 0.13932 0.0
C654 C 0.3272 0.0957 0.16988 0.0
C655 C 0.32571 0.10171 0.0823 0.0
C656 C 0.34161 0.08514 0.09619 0.0
C657 C 0.34087 0.0826 0.12436 0.0
C658 C 0.3621 0.07359 0.08253 0.0
C659 C 0.32615 0.10524 0.05207 0.0
C660 C 0.35274 0.05042 0.06292 0.0
C661 C 0.37262 0.04078 0.04942 0.0
C662 C 0.40215 0.05429 0.05525 0.0
C663 C 0.4113 0.07723 0.07527 0.0
C664 C 0.39148 0.08668 0.08881 0.0
H665 H 0.31441 0.12066 0.04475 0.0
H666 H 0.34857 0.11282 0.04717 0.0
H667 H 0.31617 0.08418 0.0407 0.0
H668 H 0.33011 0.03997 0.05795 0.0
H669 H 0.36482 0.02304 0.03415 0.0
H670 H 0.8179 0.39516 0.2182 0.0
H671 H 0.86284 0.42129 0.20206 0.0
H672 H 0.89865 0.35137 0.22073 0.0
H673 H 0.85327 0.32457 0.23588 0.0
H674 H 0.92078 0.44014 0.21957 0.0
H675 H 0.89731 0.35096 0.13875 0.0
H676 H 0.87186 0.35368 0.16201 0.0
H677 H 0.90234 0.34143 0.17332 0.0
C678 C 0.83554 0.3856 0.21943 0.0
C679 C 0.8319 0.35757 0.2276 0.0
C680 C 0.86125 0.40059 0.21027 0.0
C681 C 0.88378 0.3879 0.20948 0.0
C682 C 0.88124 0.36118 0.22044 0.0
H683 H 0.99974 0.4468 0.08551 0.0
H684 H 0.98832 0.42571 0.12893 0.0
C685 C 0.85535 0.34596 0.22914 0.0
C686 C 0.90786 0.401 0.1938 0.0
H687 H 0.93301 0.39228 0.13287 0.0
C688 C 0.92394 0.42948 0.20091 0.0
C689 C 0.91212 0.38698 0.16952 0.0
C690 C 0.89493 0.35667 0.16024 0.0
C691 C 0.94266 0.44492 0.18343 0.0
C692 C 0.9451 0.43157 0.15821 0.0
C693 C 0.93107 0.4024 0.15228 0.0
C694 C 0.9568 0.44834 0.13547 0.0
C695 C 0.95856 0.47582 0.19144 0.0
C696 C 0.94308 0.46815 0.12497 0.0
C697 C 0.94922 0.47976 0.10014 0.0
C698 C 0.96928 0.47185 0.08528 0.0
C699 C 0.98424 0.45326 0.09652 0.0
C700 C 0.9778 0.4413 0.12134 0.0
H701 H 0.96302 0.47958 0.21399 0.0
H702 H 0.97907 0.48229 0.18232 0.0
H703 H 0.94513 0.48973 0.1841 0.0
H704 H 0.92631 0.47335 0.13516 0.0
H705 H 0.93752 0.49426 0.09216 0.0
H706 H 0.62471 0.75946 0.2056 0.0
H707 H 0.5999 0.78673 0.17647 0.0
H708 H 0.67555 0.85873 0.18616 0.0
H709 H 0.70083 0.83121 0.21473 0.0
H710 H 0.58653 0.8356 0.18743 0.0
H711 H 0.65711 0.85143 0.10463 0.0
H712 H 0.6591 0.82678 0.13075 0.0
H713 H 0.67618 0.86456 0.13753 0.0
C714 C 0.6362 0.78102 0.20134 0.0
C715 C 0.66485 0.79309 0.21234 0.0
C716 C 0.62192 0.79662 0.18473 0.0
C717 C 0.63591 0.82467 0.17877 0.0
C718 C 0.66448 0.83688 0.18988 0.0
H719 H 0.58678 0.95567 0.08796 0.0
H720 H 0.60743 0.9293 0.1216 0.0
C721 C 0.6789 0.82116 0.2063 0.0
C722 C 0.62032 0.84123 0.1614 0.0
H723 H 0.62304 0.87825 0.10365 0.0
C724 C 0.59445 0.8448 0.16904 0.0
C725 C 0.63052 0.85311 0.13728 0.0
C726 C 0.65708 0.84856 0.12688 0.0
C727 C 0.57888 0.86037 0.15352 0.0
C728 C 0.58942 0.87264 0.12977 0.0
C729 C 0.61515 0.86899 0.12205 0.0
C730 C 0.57424 0.88939 0.1124 0.0
C731 C 0.55154 0.86405 0.16282 0.0
C732 C 0.54819 0.87589 0.09661 0.0
C733 C 0.53626 0.89091 0.07717 0.0
C734 C 0.55027 0.91967 0.07315 0.0
C735 C 0.57541 0.93354 0.09031 0.0
C736 C 0.58735 0.91848 0.10956 0.0
H737 H 0.54899 0.85778 0.18407 0.0
H738 H 0.55093 0.88667 0.16158 0.0
H739 H 0.53305 0.85042 0.14917 0.0
H740 H 0.53783 0.85336 0.09835 0.0
H741 H 0.51685 0.87957 0.06441 0.0
H742 H 0.22959 0.75635 0.16143 0.0
H743 H 0.21775 0.73203 0.11546 0.0
H744 H 0.1758 0.65323 0.14995 0.0
H745 H 0.18753 0.67711 0.19556 0.0
H746 H 0.21844 0.65002 0.11153 0.0
H747 H 0.1355 0.7027 0.07266 0.0
H748 H 0.17007 0.72417 0.08796 0.0
H749 H 0.14561 0.70272 0.10884 0.0
C750 C 0.21729 0.73401 0.15904 0.0
C751 C 0.20935 0.71857 0.18197 0.0
C752 C 0.21086 0.72013 0.1329 0.0
C753 C 0.19627 0.69084 0.12953 0.0
C754 C 0.18746 0.67578 0.15229 0.0
H755 H 0.09681 0.54638 0.05956 0.0
H756 H 0.14181 0.58051 0.07806 0.0
C757 C 0.19388 0.6895 0.17826 0.0
C758 C 0.18905 0.67527 0.10248 0.0
H759 H 0.1354 0.65958 0.05037 0.0
C760 C 0.20084 0.65251 0.09755 0.0
C761 C 0.16658 0.67902 0.08412 0.0
C762 C 0.15354 0.70341 0.08847 0.0
C763 C 0.18867 0.63159 0.07622 0.0
C764 C 0.16386 0.63336 0.05995 0.0
C765 C 0.15431 0.65801 0.06295 0.0
C766 C 0.1439 0.60807 0.0442 0.0
C767 C 0.20153 0.60703 0.07238 0.0
C768 C 0.13075 0.61128 0.01838 0.0
C769 C 0.10457 0.59219 0.00823 0.0
C770 C 0.0915 0.5694 0.02356 0.0
C771 C 0.10653 0.56383 0.04743 0.0
C772 C 0.13247 0.58328 0.05788 0.0
H773 H 0.22522 0.61459 0.07653 0.0
H774 H 0.19384 0.5908 0.08723 0.0
H775 H 0.19565 0.59664 0.05141 0.0
H776 H 0.13922 0.63014 0.00743 0.0
H777 H 0.09344 0.59659 0.9895 0.0
H778 H 0.26453 0.76674 0.84183 0.0
H779 H 0.28522 0.80828 0.87352 0.0
H780 H 0.28126 0.8644 0.80821 0.0
H781 H 0.26131 0.82256 0.77599 0.0
H782 H 0.33271 0.8758 0.83162 0.0
H783 H 0.2646 0.86979 0.91448 0.0
H784 H 0.27055 0.83536 0.90916 0.0
H785 H 0.25166 0.84946 0.88218 0.0
C786 C 0.26733 0.7879 0.83429 0.0
C787 C 0.26171 0.79142 0.80637 0.0
C788 C 0.27885 0.81174 0.85256 0.0
C789 C 0.28443 0.83957 0.8434 0.0
C790 C 0.27696 0.84315 0.81578 0.0
H791 H 0.41895 0.97368 0.94369 0.0
H792 H 0.37335 0.95514 0.9148 0.0
C793 C 0.2657 0.81924 0.79738 0.0
C794 C 0.30288 0.86392 0.86151 0.0
H795 H 0.31709 0.88798 0.92865 0.0
C796 C 0.32878 0.8793 0.85255 0.0
C797 C 0.29779 0.86874 0.8888 0.0
C798 C 0.26944 0.85512 0.89902 0.0
C799 C 0.35083 0.89689 0.87085 0.0
C800 C 0.34682 0.89901 0.89871 0.0
C801 C 0.32011 0.8859 0.90726 0.0
C802 C 0.37152 0.91061 0.91939 0.0
C803 C 0.37918 0.91114 0.86083 0.0
C804 C 0.38506 0.89157 0.93179 0.0
C805 C 0.41113 0.90198 0.94804 0.0
C806 C 0.42397 0.93165 0.95226 0.0
C807 C 0.40956 0.95071 0.9409 0.0
C808 C 0.38353 0.94022 0.92443 0.0
H809 H 0.37856 0.90794 0.83834 0.0
H810 H 0.38534 0.93451 0.86651 0.0
H811 H 0.39605 0.90233 0.87079 0.0
H812 H 0.37604 0.86861 0.92791 0.0
H813 H 0.42155 0.88677 0.95668 0.0
H814 H 0.19763 0.27813 0.83814 0.0
H815 H 0.18152 0.29776 0.87829 0.0
H816 H 0.15683 0.3608 0.82931 0.0
H817 H 0.17425 0.34239 0.7899 0.0
H818 H 0.1832 0.38493 0.87586 0.0
H819 H 0.10129 0.28524 0.8953 0.0
H820 H 0.13708 0.28198 0.89714 0.0
H821 H 0.11964 0.28844 0.86512 0.0
C822 C 0.18872 0.29617 0.8361 0.0
C823 C 0.18711 0.30877 0.81103 0.0
C824 C 0.17937 0.30724 0.85894 0.0
C825 C 0.16751 0.33046 0.85672 0.0
C826 C 0.16596 0.34294 0.83159 0.0
H827 H 0.04743 0.38429 0.94193 0.0
H828 H 0.07453 0.36015 0.91515 0.0
C829 C 0.17588 0.33237 0.80905 0.0
C830 C 0.15669 0.3423 0.88026 0.0
H831 H 0.10633 0.32584 0.92481 0.0
C832 C 0.16646 0.372 0.88668 0.0
C833 C 0.13484 0.32536 0.89429 0.0
C834 C 0.12238 0.29354 0.88751 0.0
C835 C 0.15393 0.38553 0.90554 0.0
C836 C 0.13194 0.36863 0.91949 0.0
C837 C 0.12323 0.33872 0.91415 0.0
C838 C 0.1157 0.38173 0.93749 0.0
C839 C 0.16319 0.4179 0.90889 0.0
C840 C 0.1297 0.4014 0.9594 0.0
C841 C 0.11431 0.41585 0.97419 0.0
C842 C 0.08456 0.41006 0.96794 0.0
C843 C 0.07036 0.38913 0.94714 0.0
C844 C 0.08583 0.37529 0.93189 0.0
H845 H 0.17457 0.42757 0.89161 0.0
H846 H 0.14457 0.42657 0.91035 0.0
H847 H 0.17811 0.42487 0.92785 0.0
H848 H 0.15257 0.406 0.96471 0.0
H849 H 0.12565 0.43158 0.99047 0.0
H850 H 0.67409 0.22309 0.83201 0.0
H851 H 0.64261 0.19139 0.8602 0.0
H852 H 0.58675 0.15109 0.7882 0.0
H853 H 0.61829 0.18279 0.75961 0.0
H854 H 0.58058 0.18025 0.8638 0.0
H855 H 0.61401 0.08589 0.8267 0.0
H856 H 0.63422 0.12222 0.82218 0.0
H857 H 0.6008 0.10656 0.80164 0.0
C858 C 0.65505 0.20762 0.8221 0.0
C859 C 0.64885 0.20523 0.79353 0.0
C860 C 0.63699 0.18966 0.83828 0.0
C861 C 0.61251 0.16888 0.82623 0.0
C862 C 0.60569 0.16694 0.79781 0.0
H863 H 0.50502 0.05341 0.93337 0.0
H864 H 0.51719 0.08595 0.89674 0.0
C865 C 0.62372 0.18504 0.78154 0.0
C866 C 0.59558 0.14808 0.84358 0.0
H867 H 0.58577 0.07965 0.8629 0.0
C868 C 0.58116 0.15808 0.86334 0.0
C869 C 0.59662 0.11928 0.84288 0.0
C870 C 0.61233 0.10769 0.82236 0.0
C871 C 0.56871 0.14022 0.88322 0.0
C872 C 0.57091 0.11184 0.88322 0.0
C873 C 0.58416 0.10148 0.8627 0.0
C874 C 0.56291 0.09362 0.9061 0.0
C875 C 0.55469 0.15216 0.90498 0.0
C876 C 0.58459 0.08739 0.92345 0.0
C877 C 0.57776 0.06907 0.94437 0.0
C878 C 0.54905 0.05646 0.94831 0.0
C879 C 0.52732 0.06309 0.93112 0.0
C880 C 0.53421 0.08158 0.91014 0.0
H881 H 0.55688 0.1754 0.90341 0.0
H882 H 0.53157 0.14054 0.90311 0.0
H883 H 0.56425 0.14884 0.92555 0.0
H884 H 0.60687 0.09656 0.92061 0.0
H885 H 0.59506 0.06455 0.95725 0.0
H886 H 0.85074 0.70139 0.7903 0.0
H887 H 0.88143 0.67635 0.81572 0.0
H888 H 0.8096 0.60123 0.81436 0.0
H889 H 0.77894 0.62589 0.78922 0.0
H890 H 0.84152 0.62004 0.86682 0.0
H891 H 0.91093 0.60885 0.78661 0.0
H892 H 0.90717 0.64415 0.7937 0.0
H893 H 0.87675 0.61603 0.77884 0.0
C894 C 0.84153 0.67955 0.79543 0.0
C895 C 0.8124 0.66565 0.78771 0.0
C896 C 0.85912 0.6652 0.80974 0.0
C897 C 0.84784 0.6368 0.81658 0.0
C898 C 0.81877 0.62306 0.80912 0.0
H899 H 0.90552 0.51718 0.91903 0.0
H900 H 0.87931 0.53761 0.88413 0.0
C901 C 0.80127 0.63725 0.79475 0.0
C902 C 0.86579 0.62155 0.83256 0.0
H903 H 0.92175 0.59239 0.82986 0.0
C904 C 0.85902 0.61392 0.85874 0.0
C905 C 0.88865 0.61373 0.82195 0.0
C906 C 0.89633 0.62087 0.79366 0.0
C907 C 0.87466 0.59894 0.87478 0.0
C908 C 0.89726 0.59061 0.86405 0.0
C909 C 0.90422 0.59846 0.83791 0.0
C910 C 0.91461 0.575 0.88042 0.0
C911 C 0.86731 0.59288 0.90341 0.0
C912 C 0.9438 0.588 0.88821 0.0
C913 C 0.95901 0.57616 0.90787 0.0
C914 C 0.94522 0.55116 0.92023 0.0
C915 C 0.91676 0.53664 0.91027 0.0
C916 C 0.90163 0.54843 0.89047 0.0
H917 H 0.85457 0.60679 0.9108 0.0
H918 H 0.85438 0.57024 0.90366 0.0
H919 H 0.88696 0.59613 0.9179 0.0
H920 H 0.95437 0.6083 0.88043 0.0
H921 H 0.98101 0.58777 0.91472 0.0
H922 H 0.23847 0.36819 0.20803 0.0
H923 H 0.20492 0.39061 0.18441 0.0
H924 H 0.13538 0.31554 0.19223 0.0
H925 H 0.16913 0.29259 0.21589 0.0
H926 H 0.13379 0.33691 0.14043 0.0
H927 H 0.14865 0.42468 0.21994 0.0
H928 H 0.18179 0.4222 0.20879 0.0
H929 H 0.16062 0.39319 0.22602 0.0
C930 C 0.21605 0.35631 0.20475 0.0
C931 C 0.20647 0.32862 0.21405 0.0
C932 C 0.19684 0.36932 0.1914 0.0
C933 C 0.16752 0.35511 0.1872 0.0
C934 C 0.15789 0.32705 0.19558 0.0
H935 H 0.03028 0.40808 0.09415 0.0
H936 H 0.05511 0.38516 0.12796 0.0
C937 C 0.1772 0.31392 0.20898 0.0
C938 C 0.1473 0.36954 0.17339 0.0
H939 H 0.12617 0.43108 0.17608 0.0
C940 C 0.13175 0.35727 0.14842 0.0
C941 C 0.14467 0.39615 0.18384 0.0
C942 C 0.1596 0.40971 0.21126 0.0
C943 C 0.1147 0.37147 0.13301 0.0
C944 C 0.11276 0.39849 0.14307 0.0
C945 C 0.12769 0.41041 0.16839 0.0
C946 C 0.09665 0.41526 0.1267 0.0
C947 C 0.09988 0.35803 0.1055 0.0
C948 C 0.11138 0.44095 0.11621 0.0
C949 C 0.09721 0.45431 0.09699 0.0
C950 C 0.06802 0.44216 0.08786 0.0
C951 C 0.05282 0.41789 0.1004 0.0
C952 C 0.06702 0.4046 0.11962 0.0
H953 H 0.10807 0.34013 0.0984 0.0
H954 H 0.07663 0.34936 0.10692 0.0
H955 H 0.10267 0.37425 0.08993 0.0
H956 H 0.13422 0.44972 0.12163 0.0
H957 H 0.10963 0.47298 0.0879 0.0
H958 H 0.1527 0.6676 0.76343 0.0
H959 H 0.10959 0.64147 0.78286 0.0
H960 H 0.14897 0.57435 0.80296 0.0
H961 H 0.19162 0.59976 0.78277 0.0
H962 H 0.09061 0.55338 0.78833 0.0
H963 H 0.11567 0.64618 0.86539 0.0
H964 H 0.10842 0.6537 0.83048 0.0
H965 H 0.13996 0.6429 0.84107 0.0
C966 C 0.1519 0.64696 0.77147 0.0
C967 C 0.17575 0.63597 0.7721 0.0
C968 C 0.1273 0.63213 0.78263 0.0
C969 C 0.12642 0.60641 0.79503 0.0
C970 C 0.14927 0.59429 0.79363 0.0
H971 H 0.07934 0.50468 0.91887 0.0
H972 H 0.0901 0.52485 0.87546 0.0
C973 C 0.17369 0.60888 0.78214 0.0
C974 C 0.10368 0.59367 0.81232 0.0
H975 H 0.08142 0.60475 0.87422 0.0
C976 C 0.08811 0.56478 0.80683 0.0
C977 C 0.10031 0.60865 0.8364 0.0
C978 C 0.11705 0.63949 0.84391 0.0
C979 C 0.07075 0.54996 0.82565 0.0
C980 C 0.06915 0.56438 0.85058 0.0
C981 C 0.08271 0.59382 0.85502 0.0
C982 C 0.05853 0.54864 0.87426 0.0
C983 C 0.05534 0.51864 0.81931 0.0
C984 C 0.03717 0.55535 0.88807 0.0
C985 C 0.03095 0.54379 0.9131 0.0
C986 C 0.04647 0.52594 0.9249 0.0
C987 C 0.06715 0.51858 0.91048 0.0
C988 C 0.07307 0.52978 0.88544 0.0
H989 H 0.05035 0.51351 0.79694 0.0
H990 H 0.06933 0.50552 0.82728 0.0
H991 H 0.03516 0.51242 0.82901 0.0
H992 H 0.02599 0.5702 0.87993 0.0
H993 H 0.01497 0.54984 0.92372 0.0
H994 H 0.38043 0.20981 0.77611 0.0
H995 H 0.40666 0.18422 0.80582 0.0
H996 H 0.33162 0.15097 0.84673 0.0
H997 H 0.30517 0.17672 0.81719 0.0
H998 H 0.38256 0.17263 0.88233 0.0
H999 H 0.3957 0.09697 0.80072 0.0
H1000 H 0.40787 0.13427 0.7942 0.0
H1001 H 0.37048 0.11796 0.79614 0.0
C1002 C 0.36945 0.19711 0.79144 0.0
C1003 C 0.34062 0.19523 0.79419 0.0
C1004 C 0.38447 0.18234 0.8083 0.0
C1005 C 0.37096 0.16531 0.82817 0.0
C1006 C 0.34239 0.16387 0.83139 0.0
H1007 H 0.41378 0.03435 0.92181 0.0
H1008 H 0.39588 0.06211 0.88756 0.0
C1009 C 0.32731 0.1786 0.8145 0.0
C1010 C 0.38669 0.14923 0.84582 0.0
H1011 H 0.41941 0.09542 0.84463 0.0
C1012 C 0.3907 0.15582 0.87411 0.0
C1013 C 0.39709 0.12714 0.83502 0.0
C1014 C 0.39242 0.11841 0.80489 0.0
C1015 C 0.40482 0.14091 0.89192 0.0
C1016 C 0.41555 0.11906 0.8811 0.0
C1017 C 0.41151 0.11243 0.85281 0.0
C1018 C 0.42912 0.10154 0.89915 0.0
C1019 C 0.40739 0.14808 0.92225 0.0
C1020 C 0.45456 0.11416 0.91617 0.0
C1021 C 0.46491 0.09835 0.93587 0.0
C1022 C 0.44998 0.06959 0.93886 0.0
C1023 C 0.42571 0.05649 0.92032 0.0
C1024 C 0.4154 0.07233 0.90068 0.0
H1025 H 0.39307 0.16124 0.9275 0.0
H1026 H 0.40219 0.12823 0.93349 0.0
H1027 H 0.42974 0.16044 0.92945 0.0
H1028 H 0.46584 0.13654 0.91489 0.0
H1029 H 0.48388 0.10905 0.94952 0.0
H1030 H 0.83025 0.27146 0.83378 0.0
H1031 H 0.84321 0.30584 0.87347 0.0
H1032 H 0.76179 0.32428 0.85947 0.0
H1033 H 0.74829 0.2894 0.81999 0.0
H1034 H 0.83723 0.36791 0.86047 0.0
H1035 H 0.78454 0.31592 0.94787 0.0
H1036 H 0.79534 0.29436 0.92266 0.0
H1037 H 0.76673 0.30986 0.9134 0.0
C1038 C 0.81479 0.28225 0.83951 0.0
C1039 C 0.78847 0.27809 0.82353 0.0
C1040 C 0.8222 0.30183 0.86217 0.0
C1041 C 0.80342 0.31749 0.8692 0.0
C1042 C 0.77642 0.31221 0.85435 0.0
H1043 H 0.9138 0.46691 0.96689 0.0
H1044 H 0.86697 0.44238 0.94239 0.0
C1045 C 0.76889 0.29243 0.83174 0.0
C1046 C 0.81412 0.34188 0.8896 0.0
H1047 H 0.82284 0.35816 0.95815 0.0
C1048 C 0.83364 0.36636 0.88179 0.0
C1049 C 0.80888 0.33954 0.91711 0.0
C1050 C 0.78767 0.31359 0.92599 0.0
C1051 C 0.8505 0.38736 0.90125 0.0
C1052 C 0.84707 0.38395 0.92927 0.0
C1053 C 0.82536 0.36078 0.93671 0.0
C1054 C 0.86988 0.39974 0.95068 0.0
C1055 C 0.87375 0.41128 0.89172 0.0
C1056 C 0.88566 0.38409 0.96561 0.0
C1057 C 0.912 0.39799 0.98005 0.0
C1058 C 0.92327 0.42785 0.9796 0.0
C1059 C 0.906 0.44384 0.96722 0.0
C1060 C 0.87927 0.42984 0.95308 0.0
H1061 H 0.87554 0.40851 0.86956 0.0
H1062 H 0.86902 0.43206 0.89546 0.0
H1063 H 0.89481 0.4124 0.9031 0.0
H1064 H 0.87876 0.36084 0.9643 0.0
H1065 H 0.92437 0.38499 0.98988 0.0
H1066 H 0.74545 0.85995 0.81847 0.0
H1067 H 0.73373 0.88961 0.85472 0.0
H1068 H 0.65845 0.82121 0.86459 0.0
H1069 H 0.66992 0.79178 0.82894 0.0
H1070 H 0.68261 0.90634 0.85257 0.0
H1071 H 0.69348 0.84518 0.9433 0.0
H1072 H 0.71002 0.84071 0.91286 0.0
H1073 H 0.67301 0.82222 0.91487 0.0
C1074 C 0.72675 0.85114 0.82882 0.0
C1075 C 0.70857 0.8236 0.82086 0.0
C1076 C 0.72006 0.86807 0.84942 0.0
C1077 C 0.69546 0.85742 0.86261 0.0
C1078 C 0.67786 0.82964 0.85514 0.0
H1079 H 0.56604 0.8909 0.94273 0.0
H1080 H 0.60085 0.87491 0.91877 0.0
C1081 C 0.68434 0.81292 0.83455 0.0
C1082 C 0.68609 0.87572 0.88231 0.0
H1083 H 0.65942 0.8735 0.94383 0.0
C1084 C 0.67831 0.89976 0.87287 0.0
C1085 C 0.68056 0.86709 0.90878 0.0
C1086 C 0.69 0.84255 0.92064 0.0
C1087 C 0.66295 0.91388 0.88835 0.0
C1088 C 0.65544 0.90372 0.91385 0.0
C1089 C 0.66501 0.88103 0.92412 0.0
C1090 C 0.63494 0.91407 0.92866 0.0
C1091 C 0.65309 0.93824 0.8766 0.0
C1092 C 0.64269 0.94141 0.9422 0.0
C1093 C 0.62281 0.95067 0.95603 0.0
C1094 C 0.59483 0.93274 0.95645 0.0
C1095 C 0.58729 0.90535 0.94279 0.0
C1096 C 0.60718 0.89611 0.92914 0.0
H1097 H 0.65909 0.94229 0.85566 0.0
H1098 H 0.62949 0.93349 0.87602 0.0
H1099 H 0.66279 0.95813 0.8899 0.0
H1100 H 0.66411 0.95548 0.94216 0.0
H1101 H 0.62936 0.97188 0.96635 0.0
H1102 H 0.83065 0.74 0.15679 0.0
H1103 H 0.85469 0.72166 0.12178 0.0
H1104 H 0.80544 0.63529 0.13293 0.0
H1105 H 0.78145 0.65334 0.16778 0.0
H1106 H 0.88713 0.6823 0.13483 0.0
H1107 H 0.80225 0.63824 0.04915 0.0
H1108 H 0.79955 0.66463 0.07478 0.0
H1109 H 0.79204 0.62745 0.08201 0.0
C1110 C 0.8245 0.71718 0.1513 0.0
C1111 C 0.80433 0.69806 0.16511 0.0
C1112 C 0.83826 0.70676 0.13136 0.0
C1113 C 0.83163 0.67718 0.12465 0.0
C1114 C 0.81051 0.65823 0.13749 0.0
H1115 H 0.89528 0.55188 0.04733 0.0
H1116 H 0.86851 0.58027 0.06937 0.0
C1117 C 0.79698 0.66857 0.15755 0.0
C1118 C 0.84901 0.66563 0.10682 0.0
H1119 H 0.84413 0.62158 0.05008 0.0
C1120 C 0.87794 0.66945 0.11601 0.0
C1121 C 0.83677 0.6487 0.08249 0.0
C1122 C 0.80599 0.64467 0.07134 0.0
C1123 C 0.89469 0.65558 0.10222 0.0
C1124 C 0.88228 0.63802 0.07821 0.0
C1125 C 0.85357 0.63502 0.06851 0.0
C1126 C 0.89822 0.62124 0.06382 0.0
C1127 C 0.92504 0.65865 0.11432 0.0
C1128 C 0.92363 0.6349 0.05308 0.0
C1129 C 0.9392 0.61872 0.04073 0.0
C1130 C 0.92938 0.58858 0.03854 0.0
C1131 C 0.9035 0.57503 0.0487 0.0
C1132 C 0.88811 0.59122 0.06125 0.0
H1133 H 0.92894 0.66709 0.136 0.0
H1134 H 0.93012 0.63774 0.11313 0.0
H1135 H 0.94002 0.67388 0.10265 0.0
H1136 H 0.93148 0.65808 0.05432 0.0
H1137 H 0.95885 0.62985 0.0328 0.0
H1138 H 0.37588 0.76831 0.22641 0.0
H1139 H 0.40726 0.80295 0.20014 0.0
H1140 H 0.33451 0.82803 0.16401 0.0
H1141 H 0.30304 0.79374 0.19028 0.0
H1142 H 0.4044 0.80503 0.14312 0.0
H1143 H 0.39198 0.9047 0.19172 0.0
H1144 H 0.38214 0.87063 0.20702 0.0
H1145 H 0.3582 0.87916 0.18064 0.0
C1146 C 0.36658 0.78137 0.21303 0.0
C1147 C 0.33698 0.7784 0.21051 0.0
C1148 C 0.38455 0.8011 0.19805 0.0
C1149 C 0.37325 0.81831 0.18051 0.0
C1150 C 0.34373 0.81535 0.17791 0.0
H1151 H 0.4003 0.92466 0.05274 0.0
H1152 H 0.38646 0.89235 0.08862 0.0
C1153 C 0.32575 0.79564 0.19283 0.0
C1154 C 0.39189 0.83862 0.16393 0.0
H1155 H 0.40842 0.90827 0.14714 0.0
C1156 C 0.40587 0.82773 0.14432 0.0
C1157 C 0.39401 0.86825 0.16585 0.0
C1158 C 0.38103 0.88144 0.18764 0.0
C1159 C 0.4201 0.84542 0.12518 0.0
C1160 C 0.42034 0.87456 0.12591 0.0
C1161 C 0.40798 0.8858 0.1466 0.0
C1162 C 0.4297 0.89285 0.10342 0.0
C1163 C 0.43325 0.8326 0.10329 0.0
C1164 C 0.4587 0.90353 0.09973 0.0
C1165 C 0.46682 0.92222 0.07911 0.0
C1166 C 0.44599 0.93042 0.06203 0.0
C1167 C 0.41696 0.91901 0.06558 0.0
C1168 C 0.40895 0.9005 0.08608 0.0
H1169 H 0.42977 0.80913 0.10464 0.0
H1170 H 0.42405 0.83659 0.0828 0.0
H1171 H 0.45662 0.84309 0.10516 0.0
H1172 H 0.47501 0.89794 0.11311 0.0
H1173 H 0.48934 0.93077 0.07702 0.0
H1174 H 0.75005 0.17205 0.21991 0.0
H1175 H 0.72828 0.12808 0.19097 0.0
H1176 H 0.71946 0.17867 0.12214 0.0
H1177 H 0.74195 0.22237 0.15059 0.0
H1178 H 0.67545 0.11678 0.17176 0.0
H1179 H 0.73423 0.1124 0.08324 0.0
H1180 H 0.75053 0.13511 0.11362 0.0
H1181 H 0.72986 0.14768 0.0869 0.0
C1182 C 0.7443 0.1737 0.19838 0.0
C1183 C 0.74724 0.20061 0.18756 0.0
C1184 C 0.732 0.14856 0.18185 0.0
C1185 C 0.72241 0.14997 0.1543 0.0
C1186 C 0.72736 0.17686 0.14309 0.0
H1187 H 0.57525 0.10051 0.05526 0.0
H1188 H 0.6224 0.11882 0.08117 0.0
C1189 C 0.73993 0.20195 0.15951 0.0
C1190 C 0.70209 0.1247 0.13886 0.0
H1191 H 0.68094 0.09558 0.07366 0.0
C1192 C 0.67719 0.11128 0.15061 0.0
C1193 C 0.70428 0.11726 0.11131 0.0
C1194 C 0.73139 0.12873 0.09824 0.0
C1195 C 0.65333 0.09319 0.13475 0.0
C1196 C 0.65446 0.08861 0.10655 0.0
C1197 C 0.68015 0.09959 0.0953 0.0
C1198 C 0.62794 0.07688 0.08815 0.0
C1199 C 0.62617 0.08113 0.14764 0.0
C1200 C 0.61587 0.04726 0.08338 0.0
C1201 C 0.58888 0.03669 0.06859 0.0
C1202 C 0.57362 0.05566 0.0586 0.0
C1203 C 0.58632 0.08535 0.06282 0.0
C1204 C 0.61331 0.09584 0.07743 0.0
H1205 H 0.62954 0.08457 0.17025 0.0
H1206 H 0.60972 0.09158 0.13972 0.0
H1207 H 0.61765 0.05778 0.14207 0.0
H1208 H 0.6269 0.03241 0.0918 0.0
H1209 H 0.57959 0.01371 0.06583 0.0
H1210 H 0.71775 0.6674 0.79141 0.0
H1211 H 0.68596 0.63909 0.82179 0.0
H1212 H 0.63622 0.69989 0.81915 0.0
H1213 H 0.66799 0.72849 0.78873 0.0
H1214 H 0.67536 0.66026 0.8747 0.0
H1215 H 0.57492 0.62003 0.8043 0.0
H1216 H 0.60953 0.63267 0.79203 0.0
H1217 H 0.59268 0.65784 0.80551 0.0
C1218 C 0.69987 0.67469 0.79692 0.0
C1219 C 0.69562 0.70042 0.78739 0.0
C1220 C 0.68168 0.65843 0.81445 0.0
C1221 C 0.65841 0.66708 0.82272 0.0
C1222 C 0.65371 0.69242 0.81287 0.0
H1223 H 0.53315 0.58136 0.93519 0.0
H1224 H 0.55692 0.61429 0.90215 0.0
C1225 C 0.67208 0.70889 0.79551 0.0
C1226 C 0.64026 0.65037 0.84279 0.0
H1227 H 0.57329 0.60708 0.84991 0.0
C1228 C 0.65303 0.64873 0.86923 0.0
C1229 C 0.61092 0.6356 0.83601 0.0
C1230 C 0.59607 0.63634 0.8079 0.0
C1231 C 0.63757 0.63261 0.88881 0.0
C1232 C 0.60854 0.61671 0.88172 0.0
C1233 C 0.59547 0.61905 0.85551 0.0
C1234 C 0.59252 0.596 0.90059 0.0
C1235 C 0.65261 0.63301 0.9171 0.0
C1236 C 0.6038 0.57405 0.91012 0.0
C1237 C 0.59047 0.55552 0.92897 0.0
C1238 C 0.565 0.55786 0.93883 0.0
C1239 C 0.55276 0.57895 0.92832 0.0
C1240 C 0.5664 0.59783 0.90939 0.0
H1241 H 0.6703 0.65303 0.92202 0.0
H1242 H 0.63759 0.63113 0.93286 0.0
H1243 H 0.6621 0.61472 0.91818 0.0
H1244 H 0.62328 0.57134 0.90313 0.0
H1245 H 0.60043 0.5393 0.93595 0.0
H1246 H 0.32096 0.66858 0.77081 0.0
H1247 H 0.359 0.64733 0.7879 0.0
H1248 H 0.33685 0.65502 0.86975 0.0
H1249 H 0.29891 0.67589 0.85303 0.0
H1250 H 0.40735 0.66934 0.82961 0.0
H1251 H 0.33176 0.56913 0.85641 0.0
H1252 H 0.32088 0.59362 0.83385 0.0
H1253 H 0.3247 0.60086 0.87026 0.0
C1254 C 0.32421 0.66571 0.79244 0.0
C1255 C 0.30672 0.67368 0.81053 0.0
C1256 C 0.34599 0.65368 0.80215 0.0
C1257 C 0.35045 0.64929 0.83002 0.0
C1258 C 0.33344 0.65781 0.84811 0.0
H1259 H 0.47914 0.62309 0.94462 0.0
H1260 H 0.45433 0.64329 0.90852 0.0
C1261 C 0.31177 0.66979 0.83848 0.0
C1262 C 0.3724 0.63534 0.84054 0.0
H1263 H 0.37994 0.5793 0.87725 0.0
C1264 C 0.40147 0.6494 0.83965 0.0
C1265 C 0.36466 0.60908 0.85314 0.0
C1266 C 0.33379 0.59212 0.85327 0.0
C1267 C 0.42304 0.63862 0.85248 0.0
C1268 C 0.41521 0.61345 0.86688 0.0
C1269 C 0.3861 0.59867 0.86637 0.0
C1270 C 0.4362 0.60299 0.88455 0.0
C1271 C 0.4539 0.65445 0.85068 0.0
C1272 C 0.43512 0.57377 0.88282 0.0
C1273 C 0.4488 0.56211 0.90376 0.0
C1274 C 0.4641 0.5795 0.9267 0.0
C1275 C 0.46771 0.60922 0.92707 0.0
C1276 C 0.45357 0.62083 0.90632 0.0
H1277 H 0.45629 0.66586 0.83155 0.0
H1278 H 0.46155 0.6708 0.86805 0.0
H1279 H 0.46772 0.63971 0.85149 0.0
H1280 H 0.42197 0.55958 0.86621 0.0
H1281 H 0.44579 0.53913 0.90288 0.0
H1282 H 0.32795 0.32214 0.74354 0.0
H1283 H 0.35414 0.36381 0.77426 0.0
H1284 H 0.28259 0.35026 0.82173 0.0
H1285 H 0.2563 0.30946 0.79077 0.0
H1286 H 0.31343 0.40739 0.82453 0.0
H1287 H 0.38376 0.33588 0.84451 0.0
H1288 H 0.38198 0.34724 0.81034 0.0
H1289 H 0.35057 0.32448 0.82252 0.0
C1290 C 0.31747 0.32887 0.75989 0.0
C1291 C 0.29011 0.31268 0.76483 0.0
C1292 C 0.33243 0.35255 0.77746 0.0
C1293 C 0.32057 0.35958 0.80067 0.0
C1294 C 0.29216 0.34522 0.80396 0.0
H1295 H 0.41362 0.4025 0.95774 0.0
H1296 H 0.37638 0.38348 0.91981 0.0
C1297 C 0.27702 0.32196 0.78611 0.0
C1298 C 0.33895 0.37761 0.82397 0.0
H1299 H 0.39485 0.37875 0.87142 0.0
C1300 C 0.33139 0.40134 0.83475 0.0
C1301 C 0.36193 0.36919 0.83758 0.0
C1302 C 0.36995 0.34268 0.82837 0.0
C1303 C 0.34611 0.41673 0.859 0.0
C1304 C 0.36913 0.40829 0.8724 0.0
C1305 C 0.37702 0.38503 0.8612 0.0
C1306 C 0.38552 0.42254 0.89835 0.0
C1307 C 0.33632 0.44114 0.8705 0.0
C1308 C 0.40179 0.45135 0.89969 0.0
C1309 C 0.42268 0.46245 0.92174 0.0
C1310 C 0.42796 0.44461 0.94227 0.0
C1311 C 0.41007 0.41658 0.94203 0.0
C1312 C 0.38884 0.40573 0.92037 0.0
H1313 H 0.31409 0.43996 0.86203 0.0
H1314 H 0.33739 0.44127 0.8931 0.0
H1315 H 0.35056 0.46175 0.86513 0.0
H1316 H 0.39997 0.46459 0.88277 0.0
H1317 H 0.43637 0.48411 0.9214 0.0
H1318 H 0.73201 0.34588 0.81254 0.0
H1319 H 0.71767 0.37568 0.84635 0.0
H1320 H 0.63324 0.35572 0.80247 0.0
H1321 H 0.64733 0.32605 0.76844 0.0
H1322 H 0.65586 0.41437 0.82626 0.0
H1323 H 0.6623 0.33074 0.89916 0.0
H1324 H 0.69403 0.34649 0.88331 0.0
H1325 H 0.66264 0.32474 0.86289 0.0
C1326 C 0.71061 0.34842 0.80964 0.0
C1327 C 0.69065 0.33324 0.78799 0.0
C1328 C 0.70244 0.36535 0.82908 0.0
C1329 C 0.67427 0.36738 0.82713 0.0
C1330 C 0.65505 0.35425 0.80436 0.0
H1331 H 0.55777 0.38841 0.93733 0.0
H1332 H 0.58634 0.37297 0.90509 0.0
C1333 C 0.66315 0.33728 0.78495 0.0
C1334 C 0.66375 0.38048 0.85002 0.0
H1335 H 0.64527 0.36862 0.91447 0.0
C1336 C 0.65389 0.40468 0.8457 0.0
C1337 C 0.66091 0.36744 0.87519 0.0
C1338 C 0.67031 0.3408 0.88053 0.0
C1339 C 0.64077 0.41594 0.86582 0.0
C1340 C 0.6376 0.40263 0.8908 0.0
C1341 C 0.64796 0.3788 0.89531 0.0
C1342 C 0.62148 0.4117 0.9116 0.0
C1343 C 0.62933 0.44121 0.85984 0.0
C1344 C 0.63219 0.43831 0.92638 0.0
C1345 C 0.61598 0.44719 0.94497 0.0
C1346 C 0.58875 0.4296 0.94898 0.0
C1347 C 0.57856 0.40255 0.93468 0.0
C1348 C 0.59485 0.39367 0.91625 0.0
H1349 H 0.6299 0.44644 0.83813 0.0
H1350 H 0.60695 0.43684 0.86485 0.0
H1351 H 0.64242 0.4603 0.8728 0.0
H1352 H 0.65288 0.45234 0.92326 0.0
H1353 H 0.62449 0.46815 0.95561 0.0
H1354 H 0.6769 0.3101 0.21318 0.0
H1355 H 0.63609 0.32667 0.19495 0.0
H1356 H 0.68168 0.36103 0.12762 0.0
H1357 H 0.72218 0.3442 0.14532 0.0
H1358 H 0.63129 0.3806 0.18406 0.0
H1359 H 0.60655 0.31055 0.08899 0.0
H1360 H 0.6302 0.30538 0.11761 0.0
H1361 H 0.64325 0.33155 0.09354 0.0
C1362 C 0.67822 0.32119 0.19448 0.0
C1363 C 0.7027 0.32558 0.18056 0.0
C1364 C 0.65488 0.33063 0.18411 0.0
C1365 C 0.65559 0.34452 0.15961 0.0
C1366 C 0.68034 0.34968 0.14617 0.0
H1367 H 0.58048 0.46236 0.08698 0.0
H1368 H 0.60256 0.43654 0.11967 0.0
C1369 C 0.70358 0.34019 0.15643 0.0
C1370 C 0.63074 0.354 0.148 0.0
H1371 H 0.58792 0.35157 0.0886 0.0
C1372 C 0.62143 0.37392 0.16334 0.0
C1373 C 0.61727 0.34468 0.12127 0.0
C1374 C 0.62461 0.32162 0.10452 0.0
C1375 C 0.60045 0.38628 0.15193 0.0
C1376 C 0.58895 0.37893 0.12431 0.0
C1377 C 0.59685 0.3575 0.10969 0.0
C1378 C 0.57157 0.39534 0.10902 0.0
C1379 C 0.5912 0.40739 0.16949 0.0
C1380 C 0.54627 0.38104 0.09238 0.0
C1381 C 0.53369 0.39579 0.07318 0.0
C1382 C 0.54638 0.42507 0.07017 0.0
C1383 C 0.5702 0.43978 0.08854 0.0
C1384 C 0.58279 0.42503 0.10755 0.0
H1385 H 0.59246 0.40207 0.19122 0.0
H1386 H 0.60584 0.42916 0.16839 0.0
H1387 H 0.56901 0.40785 0.16269 0.0
H1388 H 0.53719 0.35812 0.09313 0.0
H1389 H 0.51529 0.3838 0.05946 0.0
H1390 H 0.69726 0.66229 0.25437 0.0
H1391 H 0.67994 0.61693 0.22614 0.0
H1392 H 0.71251 0.66096 0.15646 0.0
H1393 H 0.73021 0.70535 0.18439 0.0
H1394 H 0.63969 0.60946 0.18803 0.0
H1395 H 0.72723 0.58749 0.13802 0.0
H1396 H 0.73406 0.61134 0.16839 0.0
H1397 H 0.7301 0.62469 0.13489 0.0
C1398 C 0.70145 0.66187 0.23322 0.0
C1399 C 0.71525 0.68718 0.22158 0.0
C1400 C 0.69174 0.636 0.21716 0.0
C1401 C 0.69542 0.63526 0.18922 0.0
C1402 C 0.71034 0.66045 0.17808 0.0
H1403 H 0.58771 0.60431 0.05356 0.0
H1404 H 0.6263 0.61647 0.09109 0.0
C1405 C 0.7202 0.68605 0.19408 0.0
C1406 C 0.67866 0.61076 0.17032 0.0
H1407 H 0.68091 0.58027 0.10741 0.0
C1408 C 0.64891 0.60205 0.17104 0.0
C1409 C 0.69045 0.60061 0.14817 0.0
C1410 C 0.72228 0.60636 0.14759 0.0
C1411 C 0.6306 0.58677 0.14868 0.0
C1412 C 0.64236 0.58038 0.12504 0.0
C1413 C 0.67205 0.58593 0.12543 0.0
C1414 C 0.62403 0.57242 0.09893 0.0
C1415 C 0.59866 0.57989 0.14942 0.0
C1416 C 0.61094 0.54364 0.09047 0.0
C1417 C 0.5889 0.5366 0.06897 0.0
C1418 C 0.57956 0.5583 0.05593 0.0
C1419 C 0.59423 0.58712 0.06331 0.0
C1420 C 0.61635 0.59411 0.08463 0.0
H1421 H 0.593 0.58184 0.17053 0.0
H1422 H 0.59019 0.59495 0.13695 0.0
H1423 H 0.58796 0.55779 0.14052 0.0
H1424 H 0.61654 0.5267 0.1015 0.0
H1425 H 0.57795 0.51421 0.06389 0.0
H1426 H 0.25651 0.65695 0.15432 0.0
H1427 H 0.28119 0.63164 0.12595 0.0
H1428 H 0.34619 0.63739 0.19333 0.0
H1429 H 0.32122 0.66256 0.22212 0.0
H1430 H 0.33577 0.65791 0.11392 0.0
H1431 H 0.33135 0.5547 0.16077 0.0
H1432 H 0.30753 0.576 0.16791 0.0
H1433 H 0.3437 0.58599 0.18405 0.0
C1434 C 0.27571 0.65224 0.16333 0.0
C1435 C 0.28704 0.66185 0.1904 0.0
C1436 C 0.28979 0.63779 0.14707 0.0
C1437 C 0.31551 0.63262 0.1575 0.0
C1438 C 0.32613 0.64077 0.18499 0.0
H1439 H 0.45076 0.61426 0.06376 0.0
H1440 H 0.42069 0.6301 0.09408 0.0
C1441 C 0.31187 0.65516 0.20142 0.0
C1442 C 0.33259 0.62173 0.13866 0.0
H1443 H 0.36232 0.56725 0.12608 0.0
C1444 C 0.34147 0.63802 0.11652 0.0
C1445 C 0.33982 0.59571 0.142 0.0
C1446 C 0.32994 0.57689 0.16481 0.0
C1447 C 0.35766 0.62917 0.0978 0.0
C1448 C 0.36556 0.60355 0.10152 0.0
C1449 C 0.35635 0.58699 0.1234 0.0
C1450 C 0.38363 0.59384 0.08299 0.0
C1451 C 0.36594 0.64718 0.07401 0.0
C1452 C 0.37282 0.56804 0.06686 0.0
C1453 C 0.38995 0.55888 0.04941 0.0
C1454 C 0.41833 0.57526 0.04797 0.0
C1455 C 0.429 0.60115 0.06419 0.0
C1456 C 0.41183 0.61029 0.08154 0.0
H1457 H 0.35246 0.66203 0.07032 0.0
H1458 H 0.38854 0.66025 0.07843 0.0
H1459 H 0.36407 0.63342 0.05507 0.0
H1460 H 0.3511 0.55503 0.06774 0.0
H1461 H 0.38106 0.53875 0.03738 0.0
H1462 H 0.30487 0.26922 0.17627 0.0
H1463 H 0.3372 0.29791 0.14683 0.0
H1464 H 0.35337 0.37141 0.20385 0.0
H1465 H 0.32166 0.34236 0.23404 0.0
H1466 H 0.33354 0.34144 0.11994 0.0
H1467 H 0.43374 0.37756 0.18989 0.0
H1468 H 0.40313 0.35004 0.19811 0.0
H1469 H 0.40473 0.38736 0.2034 0.0
C1470 C 0.31551 0.2914 0.18285 0.0
C1471 C 0.31061 0.30328 0.2078 0.0
C1472 C 0.33409 0.3079 0.16584 0.0
C1473 C 0.34837 0.33693 0.17305 0.0
C1474 C 0.34347 0.34894 0.19795 0.0
H1475 H 0.405 0.46374 0.05828 0.0
H1476 H 0.38223 0.43191 0.09124 0.0
C1477 C 0.32504 0.3323 0.21519 0.0
C1478 C 0.36676 0.35472 0.15363 0.0
H1479 H 0.43235 0.40201 0.14856 0.0
C1480 C 0.35522 0.35443 0.12631 0.0
C1481 C 0.39539 0.3715 0.16141 0.0
C1482 C 0.41011 0.37144 0.18972 0.0
C1483 C 0.37088 0.37083 0.10704 0.0
C1484 C 0.39886 0.38886 0.11518 0.0
C1485 C 0.41087 0.38851 0.14222 0.0
C1486 C 0.41477 0.4095 0.09627 0.0
C1487 C 0.35719 0.36853 0.07796 0.0
C1488 C 0.44167 0.40872 0.08869 0.0
C1489 C 0.45521 0.42741 0.0696 0.0
C1490 C 0.44209 0.44726 0.05774 0.0
C1491 C 0.41573 0.44851 0.06634 0.0
C1492 C 0.40246 0.43014 0.0853 0.0
H1493 H 0.34055 0.34774 0.07305 0.0
H1494 H 0.34663 0.38591 0.07514 0.0
H1495 H 0.37332 0.37067 0.06323 0.0
H1496 H 0.45187 0.39321 0.09703 0.0
H1497 H 0.47552 0.42587 0.06373 0.0
H1498 H 0.75625 0.64189 0.6809 0.0
H1499 H 0.76581 0.60903 0.64622 0.0
H1500 H 0.83853 0.67585 0.62735 0.0
H1501 H 0.82926 0.7085 0.66168 0.0
H1502 H 0.8018 0.64034 0.58024 0.0
H1503 H 0.83903 0.57918 0.66294 0.0
H1504 H 0.80415 0.58495 0.66268 0.0
H1505 H 0.83552 0.61473 0.66982 0.0
C1506 C 0.7739 0.64965 0.66893 0.0
C1507 C 0.7922 0.67762 0.67413 0.0
C1508 C 0.77938 0.63088 0.64926 0.0
C1509 C 0.803 0.64003 0.63446 0.0
C1510 C 0.8202 0.66841 0.63858 0.0
H1511 H 0.93215 0.5966 0.56399 0.0
H1512 H 0.89774 0.61198 0.589 0.0
C1513 C 0.81494 0.68699 0.65829 0.0
C1514 C 0.8119 0.6199 0.61639 0.0
H1515 H 0.85062 0.57109 0.61894 0.0
C1516 C 0.81173 0.62454 0.58846 0.0
C1517 C 0.82509 0.59959 0.62737 0.0
C1518 C 0.82619 0.5942 0.65734 0.0
C1519 C 0.82584 0.6105 0.57149 0.0
C1520 C 0.84046 0.59152 0.58286 0.0
C1521 C 0.83922 0.58561 0.61039 0.0
C1522 C 0.86064 0.58114 0.56766 0.0
C1523 C 0.82681 0.61746 0.54199 0.0
C1524 C 0.85104 0.55856 0.54746 0.0
C1525 C 0.87072 0.54956 0.53308 0.0
C1526 C 0.90026 0.56316 0.53863 0.0
C1527 C 0.90962 0.58569 0.55905 0.0
C1528 C 0.89 0.59449 0.57345 0.0
H1529 H 0.81437 0.6328 0.53629 0.0
H1530 H 0.84935 0.62682 0.53805 0.0
H1531 H 0.81808 0.59747 0.52862 0.0
H1532 H 0.82839 0.548 0.54282 0.0
H1533 H 0.86278 0.53215 0.51749 0.0
H1534 H 0.35456 0.82093 0.72707 0.0
H1535 H 0.39846 0.84454 0.70769 0.0
H1536 H 0.3672 0.91845 0.69439 0.0
H1537 H 0.32392 0.89545 0.71458 0.0
H1538 H 0.39661 0.85425 0.6568 0.0
H1539 H 0.44992 0.95801 0.71236 0.0
H1540 H 0.42395 0.93036 0.72713 0.0
H1541 H 0.41263 0.95537 0.70555 0.0
C1542 C 0.35749 0.8426 0.72081 0.0
C1543 C 0.33563 0.85621 0.72198 0.0
C1544 C 0.38264 0.8561 0.70982 0.0
C1545 C 0.38632 0.88337 0.69969 0.0
C1546 C 0.36535 0.89776 0.70268 0.0
H1547 H 0.40957 0.94585 0.55379 0.0
H1548 H 0.40028 0.92099 0.59527 0.0
C1549 C 0.34036 0.88443 0.71399 0.0
C1550 C 0.40864 0.89432 0.68135 0.0
H1551 H 0.45113 0.95702 0.66198 0.0
C1552 C 0.40934 0.87649 0.65851 0.0
C1553 C 0.42578 0.92313 0.68358 0.0
C1554 C 0.42824 0.94263 0.70871 0.0
C1555 C 0.42398 0.88755 0.63654 0.0
C1556 C 0.43784 0.91718 0.63729 0.0
C1557 C 0.43999 0.93434 0.6613 0.0
C1558 C 0.44477 0.93134 0.61188 0.0
C1559 C 0.42272 0.86788 0.6118 0.0
C1560 C 0.47295 0.9456 0.60764 0.0
C1561 C 0.47841 0.95993 0.58373 0.0
C1562 C 0.45565 0.9605 0.56411 0.0
C1563 C 0.42756 0.94601 0.56854 0.0
C1564 C 0.42221 0.93161 0.59216 0.0
H1565 H 0.41978 0.84538 0.6174 0.0
H1566 H 0.40421 0.86834 0.59706 0.0
H1567 H 0.44247 0.87483 0.60152 0.0
H1568 H 0.49059 0.94573 0.6228 0.0
H1569 H 0.50027 0.97102 0.5809 0.0
H1570 H 0.17572 0.29928 0.66935 0.0
H1571 H 0.15089 0.32649 0.63987 0.0
H1572 H 0.09329 0.3278 0.70054 0.0
H1573 H 0.11704 0.29941 0.7293 0.0
H1574 H 0.06412 0.31783 0.65328 0.0
H1575 H 0.15844 0.40978 0.6458 0.0
H1576 H 0.16419 0.37693 0.63341 0.0
H1577 H 0.1594 0.38201 0.66885 0.0
C1578 C 0.15779 0.30544 0.67636 0.0
C1579 C 0.14837 0.29726 0.70164 0.0
C1580 C 0.14373 0.32121 0.6596 0.0
C1581 C 0.12055 0.32985 0.66818 0.0
C1582 C 0.11112 0.32152 0.69341 0.0
H1583 H 0.0633 0.46156 0.58195 0.0
H1584 H 0.08039 0.43496 0.61794 0.0
C1585 C 0.12475 0.30528 0.70987 0.0
C1586 C 0.1057 0.34706 0.65076 0.0
H1587 H 0.11729 0.40676 0.61423 0.0
C1588 C 0.07576 0.33743 0.64496 0.0
C1589 C 0.12065 0.37304 0.64035 0.0
C1590 C 0.15239 0.38621 0.64768 0.0
C1591 C 0.06051 0.3526 0.62856 0.0
C1592 C 0.0757 0.37754 0.61669 0.0
C1593 C 0.10555 0.38752 0.62305 0.0
C1594 C 0.06148 0.39316 0.59688 0.0
C1595 C 0.02827 0.34193 0.62462 0.0
C1596 C 0.04436 0.37858 0.57337 0.0
C1597 C 0.03402 0.39371 0.55307 0.0
C1598 C 0.04125 0.42384 0.55545 0.0
C1599 C 0.05742 0.43836 0.57945 0.0
C1600 C 0.06731 0.42316 0.6 0.0
H1601 H 0.01991 0.3301 0.6423 0.0
H1602 H 0.01837 0.35981 0.62187 0.0
H1603 H 0.02144 0.32681 0.60625 0.0
H1604 H 0.04013 0.35559 0.57 0.0
H1605 H 0.02188 0.38185 0.53473 0.0
H1606 H 0.74186 0.18367 0.70749 0.0
H1607 H 0.72556 0.15398 0.66509 0.0
H1608 H 0.68727 0.21754 0.63211 0.0
H1609 H 0.70453 0.24805 0.67428 0.0
H1610 H 0.66843 0.13388 0.65112 0.0
H1611 H 0.71879 0.19023 0.56547 0.0
H1612 H 0.73386 0.19916 0.60069 0.0
H1613 H 0.70509 0.21281 0.58687 0.0
C1614 C 0.73089 0.1919 0.69089 0.0
C1615 C 0.72455 0.2183 0.6942 0.0
C1616 C 0.72158 0.17483 0.66666 0.0
C1617 C 0.70551 0.18368 0.64536 0.0
C1618 C 0.70026 0.21062 0.64805 0.0
H1619 H 0.57066 0.12422 0.52528 0.0
H1620 H 0.61537 0.14928 0.5523 0.0
C1621 C 0.70981 0.22787 0.67228 0.0
C1622 C 0.68978 0.16279 0.62283 0.0
H1623 H 0.67312 0.1547 0.55373 0.0
C1624 C 0.66992 0.13799 0.62976 0.0
C1625 C 0.69184 0.16833 0.59509 0.0
C1626 C 0.71377 0.19396 0.58655 0.0
C1627 C 0.65044 0.11967 0.60983 0.0
C1628 C 0.65141 0.126 0.58208 0.0
C1629 C 0.6725 0.14986 0.575 0.0
C1630 C 0.62796 0.11086 0.56105 0.0
C1631 C 0.62762 0.09505 0.61895 0.0
C1632 C 0.62084 0.08099 0.55593 0.0
C1633 C 0.59484 0.06641 0.54088 0.0
C1634 C 0.57589 0.0816 0.53035 0.0
C1635 C 0.58447 0.11174 0.53342 0.0
C1636 C 0.61021 0.1262 0.5487 0.0
H1637 H 0.62697 0.09633 0.6414 0.0
H1638 H 0.60617 0.09459 0.60885 0.0
H1639 H 0.63202 0.0745 0.61324 0.0
H1640 H 0.63461 0.06883 0.56483 0.0
H1641 H 0.58908 0.04325 0.5387 0.0
H1642 H 0.74926 0.31846 0.27191 0.0
H1643 H 0.76876 0.36359 0.29995 0.0
H1644 H 0.79183 0.31667 0.36706 0.0
H1645 H 0.77145 0.27173 0.33964 0.0
H1646 H 0.7764 0.36287 0.38512 0.0
H1647 H 0.85426 0.39404 0.30829 0.0
H1648 H 0.81718 0.38913 0.29682 0.0
H1649 H 0.82941 0.35884 0.30658 0.0
C1650 C 0.75804 0.31786 0.29284 0.0
C1651 C 0.7595 0.29177 0.30348 0.0
C1652 C 0.76918 0.34361 0.30878 0.0
C1653 C 0.78246 0.34353 0.3353 0.0
C1654 C 0.78178 0.31725 0.34659 0.0
H1655 H 0.91769 0.3993 0.44496 0.0
H1656 H 0.8706 0.38084 0.41898 0.0
C1657 C 0.77022 0.29155 0.33087 0.0
C1658 C 0.8004 0.37022 0.35038 0.0
H1659 H 0.86625 0.41802 0.35122 0.0
C1660 C 0.79566 0.37554 0.37746 0.0
C1661 C 0.82545 0.38691 0.34027 0.0
C1662 C 0.83211 0.38199 0.31149 0.0
C1663 C 0.81664 0.39494 0.39546 0.0
C1664 C 0.8427 0.40941 0.38599 0.0
C1665 C 0.84611 0.40667 0.35825 0.0
C1666 C 0.86861 0.42207 0.40504 0.0
C1667 C 0.81178 0.39824 0.42496 0.0
C1668 C 0.88288 0.45137 0.40576 0.0
C1669 C 0.90975 0.46203 0.4208 0.0
C1670 C 0.92289 0.44332 0.43461 0.0
C1671 C 0.90816 0.41413 0.43432 0.0
C1672 C 0.88117 0.40363 0.41976 0.0
H1673 H 0.78859 0.39256 0.42741 0.0
H1674 H 0.82142 0.38365 0.43695 0.0
H1675 H 0.82208 0.42055 0.43354 0.0
H1676 H 0.87361 0.46575 0.39414 0.0
H1677 H 0.92075 0.48463 0.42065 0.0
H1678 H 0.74098 0.85652 0.32756 0.0
H1679 H 0.72336 0.88247 0.3621 0.0
H1680 H 0.65773 0.80523 0.37359 0.0
H1681 H 0.67574 0.77893 0.33944 0.0
H1682 H 0.67061 0.88989 0.35525 0.0
H1683 H 0.68372 0.83742 0.4516 0.0
H1684 H 0.70213 0.83253 0.42257 0.0
H1685 H 0.66549 0.81232 0.42371 0.0
C1686 C 0.72314 0.84492 0.33785 0.0
C1687 C 0.70953 0.81576 0.33069 0.0
C1688 C 0.71315 0.85977 0.35761 0.0
C1689 C 0.68934 0.84578 0.37053 0.0
C1690 C 0.67651 0.81632 0.36431 0.0
H1691 H 0.56196 0.89112 0.45402 0.0
H1692 H 0.59322 0.86843 0.43159 0.0
C1693 C 0.68671 0.80134 0.34469 0.0
C1694 C 0.67585 0.86271 0.3878 0.0
H1695 H 0.65084 0.86633 0.44968 0.0
C1696 C 0.6667 0.88505 0.37606 0.0
C1697 C 0.67071 0.85629 0.4149 0.0
C1698 C 0.68128 0.83351 0.42904 0.0
C1699 C 0.65155 0.9004 0.39028 0.0
C1700 C 0.64569 0.89343 0.41706 0.0
C1701 C 0.6554 0.87157 0.4291 0.0
C1702 C 0.62783 0.90733 0.43212 0.0
C1703 C 0.64087 0.92315 0.37612 0.0
C1704 C 0.63715 0.9367 0.44013 0.0
C1705 C 0.61927 0.94986 0.45294 0.0
C1706 C 0.59179 0.93381 0.45794 0.0
C1707 C 0.58287 0.90423 0.45035 0.0
C1708 C 0.60076 0.89114 0.43763 0.0
H1709 H 0.64274 0.9223 0.35386 0.0
H1710 H 0.61815 0.92076 0.37914 0.0
H1711 H 0.65366 0.94464 0.38505 0.0
H1712 H 0.65814 0.94946 0.43627 0.0
H1713 H 0.6269 0.97263 0.45865 0.0
H1714 H 0.12942 0.72181 0.26794 0.0
H1715 H 0.09811 0.69307 0.29851 0.0
H1716 H 0.17159 0.67909 0.34565 0.0
H1717 H 0.20307 0.70779 0.31536 0.0
H1718 H 0.0927 0.63463 0.31214 0.0
H1719 H 0.12929 0.71228 0.40219 0.0
H1720 H 0.13533 0.72213 0.36784 0.0
H1721 H 0.158 0.70408 0.3865 0.0
C1722 C 0.13892 0.71255 0.28477 0.0
C1723 C 0.16875 0.71718 0.28932 0.0
C1724 C 0.12099 0.69618 0.30219 0.0
C1725 C 0.13263 0.68445 0.32454 0.0
C1726 C 0.16229 0.68846 0.32877 0.0
H1727 H 0.09862 0.57417 0.4493 0.0
H1728 H 0.11496 0.60956 0.41655 0.0
C1729 C 0.18022 0.7047 0.31133 0.0
C1730 C 0.11395 0.66763 0.34343 0.0
H1731 H 0.10426 0.66421 0.41087 0.0
C1732 C 0.09473 0.64124 0.33365 0.0
C1733 C 0.11652 0.6766 0.37135 0.0
C1734 C 0.13569 0.70546 0.3826 0.0
C1735 C 0.0795 0.62257 0.35154 0.0
C1736 C 0.08343 0.63083 0.37975 0.0
C1737 C 0.10137 0.65796 0.38921 0.0
C1738 C 0.0725 0.61024 0.40015 0.0
C1739 C 0.06073 0.59347 0.34046 0.0
C1740 C 0.0431 0.59915 0.40199 0.0
C1741 C 0.03355 0.57865 0.42077 0.0
C1742 C 0.05333 0.56907 0.43793 0.0
C1743 C 0.08274 0.58084 0.4363 0.0
C1744 C 0.09218 0.60119 0.41766 0.0
H1745 H 0.06272 0.5891 0.31858 0.0
H1746 H 0.06629 0.57637 0.35233 0.0
H1747 H 0.03805 0.59227 0.34252 0.0
H1748 H 0.0276 0.60617 0.38883 0.0
H1749 H 0.01078 0.57 0.42151 0.0
H1750 H 0.33824 0.21589 0.28656 0.0
H1751 H 0.37243 0.19345 0.3102 0.0
H1752 H 0.30432 0.11619 0.31455 0.0
H1753 H 0.27032 0.13814 0.291 0.0
H1754 H 0.37262 0.16991 0.36157 0.0
H1755 H 0.36399 0.08646 0.27926 0.0
H1756 H 0.35127 0.11762 0.27385 0.0
H1757 H 0.32992 0.08729 0.28931 0.0
C1758 C 0.33056 0.19418 0.2927 0.0
C1759 C 0.30157 0.17877 0.2867 0.0
C1760 C 0.35013 0.18135 0.30609 0.0
C1761 C 0.34105 0.15287 0.31352 0.0
C1762 C 0.31198 0.13787 0.30834 0.0
H1763 H 0.39813 0.03225 0.40878 0.0
H1764 H 0.37477 0.05675 0.37526 0.0
C1765 C 0.29251 0.15061 0.29504 0.0
C1766 C 0.36155 0.13879 0.32733 0.0
H1767 H 0.38523 0.07886 0.32326 0.0
C1768 C 0.37578 0.15027 0.35303 0.0
C1769 C 0.36564 0.11312 0.31613 0.0
C1770 C 0.35212 0.10053 0.288 0.0
C1771 C 0.39283 0.13605 0.36843 0.0
C1772 C 0.39618 0.1099 0.3576 0.0
C1773 C 0.38265 0.09887 0.33154 0.0
C1774 C 0.41201 0.09284 0.37394 0.0
C1775 C 0.40601 0.14847 0.39673 0.0
C1776 C 0.4412 0.10412 0.38308 0.0
C1777 C 0.45469 0.09013 0.40224 0.0
C1778 C 0.43922 0.06453 0.41261 0.0
C1779 C 0.41071 0.05195 0.40141 0.0
C1780 C 0.39724 0.06601 0.38228 0.0
H1781 H 0.39667 0.16541 0.4041 0.0
H1782 H 0.40306 0.13144 0.4115 0.0
H1783 H 0.42932 0.15817 0.39648 0.0
H1784 H 0.4532 0.12444 0.37637 0.0
H1785 H 0.47678 0.10027 0.4101 0.0
H1786 H 0.72561 0.87775 0.70728 0.0
H1787 H 0.69433 0.90164 0.68203 0.0
H1788 H 0.62463 0.82422 0.67729 0.0
H1789 H 0.65594 0.79997 0.7029 0.0
H1790 H 0.66501 0.88476 0.62917 0.0
H1791 H 0.59025 0.88735 0.70666 0.0
H1792 H 0.6247 0.88101 0.71519 0.0
H1793 H 0.59549 0.85296 0.69818 0.0
C1794 C 0.70362 0.86571 0.70096 0.0
C1795 C 0.69328 0.83691 0.70716 0.0
C1796 C 0.68576 0.87946 0.68654 0.0
C1797 C 0.65707 0.86487 0.67812 0.0
C1798 C 0.64659 0.83604 0.68404 0.0
H1799 H 0.52538 0.91409 0.57696 0.0
H1800 H 0.55085 0.89191 0.61088 0.0
C1801 C 0.66456 0.82214 0.69845 0.0
C1802 C 0.63875 0.87979 0.66218 0.0
H1803 H 0.58043 0.90554 0.66401 0.0
C1804 C 0.64655 0.88935 0.6368 0.0
C1805 C 0.61461 0.88563 0.67216 0.0
C1806 C 0.60575 0.87643 0.69963 0.0
C1807 C 0.63081 0.90444 0.62101 0.0
C1808 C 0.60698 0.91082 0.63118 0.0
C1809 C 0.5989 0.90093 0.65642 0.0
C1810 C 0.58979 0.92682 0.61516 0.0
C1811 C 0.63952 0.91286 0.59326 0.0
C1812 C 0.60257 0.95464 0.60767 0.0
C1813 C 0.58813 0.9674 0.58815 0.0
C1814 C 0.56057 0.95255 0.57586 0.0
C1815 C 0.54674 0.92599 0.58565 0.0
C1816 C 0.56126 0.91323 0.60508 0.0
H1817 H 0.6535 0.90033 0.58577 0.0
H1818 H 0.62047 0.90967 0.57802 0.0
H1819 H 0.65162 0.93589 0.59461 0.0
H1820 H 0.62434 0.96583 0.61577 0.0
H1821 H 0.59935 0.98801 0.5814 0.0
H1822 H 0.68316 0.10054 0.28238 0.0
H1823 H 0.63703 0.07961 0.2986 0.0
H1824 H 0.60701 0.1502 0.26971 0.0
H1825 H 0.65366 0.17181 0.2543 0.0
H1826 H 0.60305 0.14721 0.32097 0.0
H1827 H 0.5558 0.03762 0.2757 0.0
H1828 H 0.59264 0.04138 0.2869 0.0
H1829 H 0.58338 0.06311 0.26047 0.0
C1830 C 0.66644 0.11113 0.27865 0.0
C1831 C 0.67216 0.13804 0.26755 0.0
C1832 C 0.63986 0.09897 0.28769 0.0
C1833 C 0.61833 0.11319 0.28523 0.0
C1834 C 0.62322 0.1388 0.27181 0.0
H1835 H 0.49818 0.03886 0.40387 0.0
H1836 H 0.50813 0.06008 0.36 0.0
C1837 C 0.64993 0.15117 0.26312 0.0
C1838 C 0.59386 0.10456 0.30164 0.0
H1839 H 0.55054 0.0448 0.32523 0.0
C1840 C 0.59071 0.12497 0.32114 0.0
C1841 C 0.57716 0.07574 0.30174 0.0
C1842 C 0.57724 0.05337 0.2798 0.0
C1843 C 0.57432 0.11664 0.34271 0.0
C1844 C 0.56113 0.08725 0.34496 0.0
C1845 C 0.56115 0.06734 0.32367 0.0
C1846 C 0.55373 0.07644 0.37162 0.0
C1847 C 0.57331 0.13901 0.36429 0.0
C1848 C 0.57606 0.0788 0.39242 0.0
C1849 C 0.57058 0.06658 0.41707 0.0
C1850 C 0.54259 0.05178 0.42151 0.0
C1851 C 0.51997 0.05019 0.40098 0.0
C1852 C 0.52557 0.0622 0.37597 0.0
H1853 H 0.57606 0.16034 0.35574 0.0
H1854 H 0.55278 0.13295 0.37342 0.0
H1855 H 0.59103 0.14099 0.38077 0.0
H1856 H 0.59796 0.08946 0.38927 0.0
H1857 H 0.58843 0.06838 0.43253 0.0
H1858 H 0.88019 0.7446 0.28947 0.0
H1859 H 0.90481 0.71643 0.31776 0.0
H1860 H 0.82784 0.6461 0.3099 0.0
H1861 H 0.80286 0.67422 0.28156 0.0
H1862 H 0.88725 0.69009 0.36847 0.0
H1863 H 0.89278 0.61149 0.28584 0.0
H1864 H 0.88706 0.64591 0.27899 0.0
H1865 H 0.85835 0.61741 0.28848 0.0
C1866 C 0.86842 0.72315 0.29375 0.0
C1867 C 0.83954 0.71164 0.28319 0.0
C1868 C 0.88256 0.7071 0.30993 0.0
C1869 C 0.86827 0.67908 0.31562 0.0
C1870 C 0.83936 0.66757 0.30542 0.0
H1871 H 0.9101 0.54624 0.40762 0.0
H1872 H 0.89139 0.5746 0.37469 0.0
C1873 C 0.82507 0.68373 0.28939 0.0
C1874 C 0.88358 0.66219 0.33267 0.0
H1875 H 0.90895 0.60332 0.33081 0.0
C1876 C 0.89215 0.67119 0.36027 0.0
C1877 C 0.88988 0.63758 0.32184 0.0
C1878 C 0.88177 0.6275 0.29212 0.0
C1879 C 0.90619 0.65576 0.37759 0.0
C1880 C 0.91262 0.63111 0.36679 0.0
C1881 C 0.90424 0.6223 0.33905 0.0
C1882 C 0.92629 0.61317 0.38437 0.0
C1883 C 0.91298 0.66544 0.40751 0.0
C1884 C 0.95293 0.62494 0.3999 0.0
C1885 C 0.96368 0.60879 0.41904 0.0
C1886 C 0.94813 0.58043 0.42275 0.0
C1887 C 0.92261 0.56806 0.40556 0.0
C1888 C 0.9118 0.58428 0.38665 0.0
H1889 H 0.9003 0.67998 0.41362 0.0
H1890 H 0.90871 0.64681 0.42044 0.0
H1891 H 0.93597 0.67733 0.41173 0.0
H1892 H 0.96496 0.64693 0.39787 0.0
H1893 H 0.98358 0.61889 0.43164 0.0
H1894 H 0.32482 0.81135 0.29963 0.0
H1895 H 0.33955 0.83722 0.34426 0.0
H1896 H 0.28944 0.76461 0.38228 0.0
H1897 H 0.27443 0.73832 0.33721 0.0
H1898 H 0.29376 0.84504 0.38206 0.0
H1899 H 0.3757 0.79295 0.42447 0.0
H1900 H 0.36815 0.79323 0.38794 0.0
H1901 H 0.34167 0.77212 0.40718 0.0
C1902 C 0.31737 0.80067 0.31754 0.0
C1903 C 0.29857 0.77291 0.3151 0.0
C1904 C 0.32557 0.81552 0.34292 0.0
C1905 C 0.31517 0.80288 0.36629 0.0
C1906 C 0.29748 0.77463 0.36428 0.0
H1907 H 0.42077 0.90696 0.50101 0.0
H1908 H 0.37592 0.87127 0.48407 0.0
C1909 C 0.28925 0.7596 0.3387 0.0
C1910 C 0.3232 0.82015 0.3924 0.0
H1911 H 0.37883 0.83925 0.44252 0.0
C1912 C 0.31177 0.84341 0.39599 0.0
C1913 C 0.34626 0.81757 0.41061 0.0
C1914 C 0.35878 0.79263 0.4076 0.0
C1915 C 0.3248 0.86577 0.41579 0.0
C1916 C 0.35015 0.86496 0.43177 0.0
C1917 C 0.3595 0.84007 0.43016 0.0
C1918 C 0.37036 0.89104 0.44605 0.0
C1919 C 0.31218 0.89068 0.41831 0.0
C1920 C 0.38112 0.91505 0.4311 0.0
C1921 C 0.4065 0.93571 0.44098 0.0
C1922 C 0.42166 0.93213 0.46555 0.0
C1923 C 0.40946 0.90982 0.48177 0.0
C1924 C 0.38383 0.88953 0.47218 0.0
H1925 H 0.28845 0.88316 0.41481 0.0
H1926 H 0.31865 0.90241 0.43868 0.0
H1927 H 0.31949 0.90574 0.4024 0.0
H1928 H 0.37157 0.91645 0.41063 0.0
H1929 H 0.41568 0.95274 0.42817 0.0
H1930 H 0.25227 0.36672 0.31536 0.0
H1931 H 0.2369 0.40023 0.34497 0.0
H1932 H 0.17449 0.3291 0.37321 0.0
H1933 H 0.18948 0.29584 0.34384 0.0
H1934 H 0.17914 0.40428 0.3397 0.0
H1935 H 0.21205 0.37841 0.44408 0.0
H1936 H 0.22822 0.36993 0.41461 0.0
H1937 H 0.1945 0.34702 0.42207 0.0
C1938 C 0.23576 0.35828 0.3284 0.0
C1939 C 0.22201 0.32872 0.3273 0.0
C1940 C 0.22696 0.3774 0.3452 0.0
C1941 C 0.20479 0.36708 0.3615 0.0
C1942 C 0.19197 0.33748 0.36119 0.0
H1943 H 0.06468 0.41279 0.41327 0.0
H1944 H 0.10075 0.39759 0.39057 0.0
C1945 C 0.20044 0.31851 0.34424 0.0
C1946 C 0.19253 0.38688 0.37662 0.0
H1947 H 0.17236 0.39924 0.43921 0.0
C1948 C 0.17822 0.40376 0.36156 0.0
C1949 C 0.19153 0.38633 0.40515 0.0
C1950 C 0.20764 0.36966 0.42248 0.0
C1951 C 0.16121 0.41843 0.37401 0.0
C1952 C 0.15834 0.41595 0.40213 0.0
C1953 C 0.17434 0.40083 0.41757 0.0
C1954 C 0.13686 0.42653 0.41527 0.0
C1955 C 0.14565 0.43568 0.3568 0.0
C1956 C 0.14523 0.4476 0.43697 0.0
C1957 C 0.1246 0.45642 0.45004 0.0
C1958 C 0.09524 0.44398 0.44188 0.0
C1959 C 0.08704 0.42285 0.42012 0.0
C1960 C 0.10765 0.41425 0.40696 0.0
H1961 H 0.15618 0.44222 0.33816 0.0
H1962 H 0.12346 0.4224 0.35024 0.0
H1963 H 0.14453 0.45519 0.36858 0.0
H1964 H 0.1677 0.45713 0.44382 0.0
H1965 H 0.13168 0.47265 0.46679 0.0
H1966 H 0.28105 0.12467 0.70042 0.0
H1967 H 0.29938 0.10372 0.66278 0.0
H1968 H 0.3196 0.18518 0.62633 0.0
H1969 H 0.3013 0.20646 0.66392 0.0
H1970 H 0.29372 0.12997 0.58878 0.0
H1971 H 0.38992 0.1332 0.66075 0.0
H1972 H 0.35561 0.117 0.67206 0.0
H1973 H 0.36607 0.15469 0.66705 0.0
C1974 C 0.2891 0.13808 0.68426 0.0
C1975 C 0.29019 0.16733 0.68534 0.0
C1976 C 0.29941 0.12603 0.66275 0.0
C1977 C 0.311 0.14304 0.64206 0.0
C1978 C 0.31068 0.1718 0.6422 0.0
H1979 H 0.43699 0.11975 0.54067 0.0
H1980 H 0.40676 0.13886 0.5682 0.0
C1981 C 0.30034 0.18391 0.66373 0.0
C1982 C 0.32624 0.13165 0.62202 0.0
H1983 H 0.3877 0.1127 0.61638 0.0
C1984 C 0.31424 0.12611 0.59469 0.0
C1985 C 0.35309 0.127 0.62995 0.0
C1986 C 0.36716 0.13342 0.65899 0.0
C1987 C 0.32849 0.11571 0.57499 0.0
C1988 C 0.35521 0.11079 0.58304 0.0
C1989 C 0.36717 0.1165 0.61036 0.0
C1990 C 0.37161 0.10009 0.56358 0.0
C1991 C 0.31521 0.11052 0.5457 0.0
C1992 C 0.36165 0.07201 0.55169 0.0
C1993 C 0.37893 0.0609 0.53598 0.0
C1994 C 0.40651 0.07769 0.53205 0.0
C1995 C 0.41595 0.10614 0.54333 0.0
C1996 C 0.3987 0.11717 0.55903 0.0
H1997 H 0.29745 0.12058 0.54191 0.0
H1998 H 0.33154 0.11904 0.53169 0.0
H1999 H 0.30653 0.08709 0.54071 0.0
H2000 H 0.34096 0.05837 0.55537 0.0
H2001 H 0.37097 0.03892 0.52758 0.0
H2002 H 0.89015 0.30389 0.73023 0.0
H2003 H 0.91513 0.33624 0.69808 0.0
H2004 H 0.83409 0.33783 0.65593 0.0
H2005 H 0.80893 0.30584 0.68815 0.0
H2006 H 0.91205 0.3263 0.64213 0.0
H2007 H 0.87724 0.4226 0.6671 0.0
H2008 H 0.87356 0.39325 0.68918 0.0
H2009 H 0.84773 0.39094 0.65996 0.0
C2010 C 0.87762 0.31142 0.71434 0.0
C2011 C 0.84753 0.30239 0.71181 0.0
C2012 C 0.89196 0.32983 0.69596 0.0
C2013 C 0.87648 0.33968 0.67485 0.0
C2014 C 0.84646 0.33095 0.67244 0.0
H2015 H 0.8972 0.43023 0.53162 0.0
H2016 H 0.88271 0.40026 0.56913 0.0
C2017 C 0.8321 0.31259 0.69082 0.0
C2018 C 0.89156 0.35799 0.65449 0.0
H2019 H 0.89624 0.42093 0.62431 0.0
C2020 C 0.90896 0.34718 0.63842 0.0
C2021 C 0.8877 0.38532 0.64994 0.0
C2022 C 0.87079 0.39886 0.66765 0.0
C2023 C 0.92131 0.36233 0.61687 0.0
C2024 C 0.9162 0.38898 0.6115 0.0
C2025 C 0.89984 0.40031 0.62833 0.0
C2026 C 0.92585 0.40476 0.58749 0.0
C2027 C 0.93868 0.34923 0.59931 0.0
C2028 C 0.95502 0.41676 0.5851 0.0
C2029 C 0.96345 0.43394 0.5635 0.0
C2030 C 0.94279 0.43952 0.54419 0.0
C2031 C 0.91367 0.42658 0.54623 0.0
C2032 C 0.90532 0.40942 0.56767 0.0
H2033 H 0.9364 0.32636 0.60318 0.0
H2034 H 0.93217 0.35077 0.57734 0.0
H2035 H 0.96164 0.36119 0.60378 0.0
H2036 H 0.97119 0.41371 0.6004 0.0
H2037 H 0.98603 0.44378 0.56261 0.0
H2038 H 0.2417 0.6734 0.7159 0.0
H2039 H 0.21884 0.63124 0.68475 0.0
H2040 H 0.21326 0.68649 0.61901 0.0
H2041 H 0.23674 0.72832 0.64963 0.0
H2042 H 0.16644 0.62115 0.66342 0.0
H2043 H 0.23027 0.62284 0.57759 0.0
H2044 H 0.245 0.64354 0.60941 0.0
H2045 H 0.2256 0.65782 0.583 0.0
C2046 C 0.23628 0.67643 0.69461 0.0
C2047 C 0.24068 0.70413 0.68523 0.0
C2048 C 0.22335 0.65234 0.67682 0.0
C2049 C 0.21465 0.65561 0.64942 0.0
C2050 C 0.22054 0.68325 0.63979 0.0
H2051 H 0.07354 0.60867 0.54028 0.0
H2052 H 0.11954 0.62661 0.56829 0.0
C2053 C 0.23367 0.70726 0.65745 0.0
C2054 C 0.19493 0.63128 0.63219 0.0
H2055 H 0.17751 0.60547 0.56565 0.0
C2056 C 0.16934 0.61689 0.64231 0.0
C2057 C 0.19869 0.62548 0.60468 0.0
C2058 C 0.22658 0.63808 0.59323 0.0
C2059 C 0.14637 0.59929 0.62497 0.0
C2060 C 0.14913 0.59617 0.59691 0.0
C2061 C 0.17547 0.60831 0.5872 0.0
C2062 C 0.12362 0.58454 0.57714 0.0
C2063 C 0.11844 0.5861 0.63621 0.0
C2064 C 0.11115 0.55494 0.57262 0.0
C2065 C 0.08483 0.54457 0.55658 0.0
C2066 C 0.07061 0.56374 0.54513 0.0
C2067 C 0.0838 0.59337 0.549 0.0
C2068 C 0.11014 0.60366 0.56481 0.0
H2069 H 0.12011 0.58979 0.65874 0.0
H2070 H 0.10165 0.59535 0.62679 0.0
H2071 H 0.11141 0.56265 0.63089 0.0
H2072 H 0.12129 0.53997 0.5822 0.0
H2073 H 0.07515 0.52163 0.55404 0.0
loop_
_geom_bond_atom_site_label_1
_geom_bond_atom_site_label_2
_geom_bond_distance
_geom_bond_site_symmetry_2
_ccdc_geom_bond_type
Zn0 O6 1.969 . S
Zn0 O7 1.965 . S
Zn0 O11 2.024 . S
Zn0 O16 1.969 . S
Zn1 O8 1.969 . S
Zn1 O14 1.969 . S
Zn1 O15 1.965 . S
Zn1 O17 2.024 . S
C2 O3 1.229 . S
C2 O11 1.058 . S
O3 C2 1.229 . S
C4 O5 1.229 . S
C4 O17 1.058 . S
O5 C4 1.229 . S
O6 Zn0 1.969 . S
O6 C9 1.267 . S
O7 Zn0 1.965 . S
O7 C18 1.260 . S
O8 Zn1 1.969 . S
O8 C18 1.258 . S
C9 O6 1.267 . S
C9 O10 1.228 . S
O10 C9 1.228 . S
O11 Zn0 2.024 . S
O11 C2 1.058 . S
C12 O13 1.228 . S
C12 O14 1.267 . S
O13 C12 1.228 . S
O14 Zn1 1.969 . S
O14 C12 1.267 . S
O15 Zn1 1.965 . S
O15 C19 1.260 . S
O16 Zn0 1.969 . S
O16 C19 1.258 . S
O17 Zn1 2.024 . S
O17 C4 1.058 . S
C18 O7 1.260 . S
C18 O8 1.258 . S
C19 O15 1.260 . S
C19 O16 1.258 . S
Zn20 O26 1.969 . S
Zn20 O27 1.965 . S
Zn20 O31 2.024 . S
Zn20 O36 1.969 . S
Zn21 O28 1.969 . S
Zn21 O34 1.969 . S
Zn21 O35 1.965 . S
Zn21 O37 2.024 . S
C22 O23 1.229 . S
C22 O31 1.058 . S
O23 C22 1.229 . S
C24 O25 1.229 . S
C24 O37 1.058 . S
O25 C24 1.229 . S
O26 Zn20 1.969 . S
O26 C29 1.267 . S
O27 Zn20 1.965 . S
O27 C38 1.260 . S
O28 Zn21 1.969 . S
O28 C38 1.258 . S
C29 O26 1.267 . S
C29 O30 1.228 . S
O30 C29 1.228 . S
O31 Zn20 2.024 . S
O31 C22 1.058 . S
C32 O33 1.228 . S
C32 O34 1.267 . S
O33 C32 1.228 . S
O34 Zn21 1.969 . S
O34 C32 1.267 . S
O35 Zn21 1.965 . S
O35 C39 1.260 . S
O36 Zn20 1.969 . S
O36 C39 1.258 . S
O37 Zn21 2.024 . S
O37 C24 1.058 . S
C38 O27 1.260 . S
C38 O28 1.258 . S
C39 O35 1.260 . S
C39 O36 1.258 . S
Zn40 O46 1.969 . S
Zn40 O47 1.965 . S
Zn40 O51 2.024 . S
Zn40 O56 1.969 . S
Zn41 O48 1.969 . S
Zn41 O54 1.969 . S
Zn41 O55 1.965 . S
Zn41 O57 2.024 . S
C42 O43 1.229 . S
C42 O51 1.058 . S
O43 C42 1.229 . S
C44 O45 1.229 . S
C44 O57 1.058 . S
O45 C44 1.229 . S
O46 Zn40 1.969 . S
O46 C49 1.267 . S
O47 Zn40 1.965 . S
O47 C58 1.260 . S
O48 Zn41 1.969 . S
O48 C58 1.258 . S
C49 O46 1.267 . S
C49 O50 1.228 . S
O50 C49 1.228 . S
O51 Zn40 2.024 . S
O51 C42 1.058 . S
C52 O53 1.228 . S
C52 O54 1.267 . S
O53 C52 1.228 . S
O54 Zn41 1.969 . S
O54 C52 1.267 . S
O55 Zn41 1.965 . S
O55 C59 1.260 . S
O56 Zn40 1.969 . S
O56 C59 1.258 . S
O57 Zn41 2.024 . S
O57 C44 1.058 . S
C58 O47 1.260 . S
C58 O48 1.258 . S
C59 O55 1.260 . S
C59 O56 1.258 . S
Zn60 O66 1.969 . S
Zn60 O67 1.965 . S
Zn60 O71 2.024 . S
Zn60 O76 1.969 . S
Zn61 O68 1.969 . S
Zn61 O74 1.969 . S
Zn61 O75 1.965 . S
Zn61 O77 2.024 . S
C62 O63 1.229 . S
C62 O71 1.058 . S
O63 C62 1.229 . S
C64 O65 1.229 . S
C64 O77 1.058 . S
O65 C64 1.229 . S
O66 Zn60 1.969 . S
O66 C69 1.267 . S
O67 Zn60 1.965 . S
O67 C78 1.260 . S
O68 Zn61 1.969 . S
O68 C78 1.258 . S
C69 O66 1.267 . S
C69 O70 1.228 . S
O70 C69 1.228 . S
O71 Zn60 2.024 . S
O71 C62 1.058 . S
C72 O73 1.228 . S
C72 O74 1.267 . S
O73 C72 1.228 . S
O74 Zn61 1.969 . S
O74 C72 1.267 . S
O75 Zn61 1.965 . S
O75 C79 1.260 . S
O76 Zn60 1.969 . S
O76 C79 1.258 . S
O77 Zn61 2.024 . S
O77 C64 1.058 . S
C78 O67 1.260 . S
C78 O68 1.258 . S
C79 O75 1.260 . S
C79 O76 1.258 . S
Zn80 O86 1.969 . S
Zn80 O87 1.965 . S
Zn80 O91 2.024 . S
Zn80 O96 1.969 . S
Zn81 O88 1.969 . S
Zn81 O94 1.969 . S
Zn81 O95 1.965 . S
Zn81 O97 2.024 . S
C82 O83 1.229 . S
C82 O91 1.058 . S
O83 C82 1.229 . S
C84 O85 1.229 . S
C84 O97 1.058 . S
O85 C84 1.229 . S
O86 Zn80 1.969 . S
O86 C89 1.267 . S
O87 Zn80 1.965 . S
O87 C98 1.260 . S
O88 Zn81 1.969 . S
O88 C98 1.258 . S
C89 O86 1.267 . S
C89 O90 1.228 . S
O90 C89 1.228 . S
O91 Zn80 2.024 . S
O91 C82 1.058 . S
C92 O93 1.228 . S
C92 O94 1.267 . S
O93 C92 1.228 . S
O94 Zn81 1.969 . S
O94 C92 1.267 . S
O95 Zn81 1.965 . S
O95 C99 1.260 . S
O96 Zn80 1.969 . S
O96 C99 1.258 . S
O97 Zn81 2.024 . S
O97 C84 1.058 . S
C98 O87 1.260 . S
C98 O88 1.258 . S
C99 O95 1.260 . S
C99 O96 1.258 . S
Zn100 O106 1.969 . S
Zn100 O107 1.965 . S
Zn100 O111 2.024 . S
Zn100 O116 1.969 . S
Zn101 O108 1.969 . S
Zn101 O114 1.969 . S
Zn101 O115 1.965 . S
Zn101 O117 2.024 . S
C102 O103 1.229 . S
C102 O111 1.058 . S
O103 C102 1.229 . S
C104 O105 1.229 . S
C104 O117 1.058 . S
O105 C104 1.229 . S
O106 Zn100 1.969 . S
O106 C109 1.267 . S
O107 Zn100 1.965 . S
O107 C118 1.260 . S
O108 Zn101 1.969 . S
O108 C118 1.258 . S
C109 O106 1.267 . S
C109 O110 1.228 . S
O110 C109 1.228 . S
O111 Zn100 2.024 . S
O111 C102 1.058 . S
C112 O113 1.228 . S
C112 O114 1.267 . S
O113 C112 1.228 . S
O114 Zn101 1.969 . S
O114 C112 1.267 . S
O115 Zn101 1.965 . S
O115 C119 1.260 . S
O116 Zn100 1.969 . S
O116 C119 1.258 . S
O117 Zn101 2.024 . S
O117 C104 1.058 . S
C118 O107 1.260 . S
C118 O108 1.258 . S
C119 O115 1.260 . S
C119 O116 1.258 . S
Zn120 O126 1.969 . S
Zn120 O127 1.965 . S
Zn120 O131 2.024 . S
Zn120 O136 1.969 . S
Zn121 O128 1.969 . S
Zn121 O134 1.969 . S
Zn121 O135 1.965 . S
Zn121 O137 2.024 . S
C122 O123 1.229 . S
C122 O131 1.058 . S
O123 C122 1.229 . S
C124 O125 1.229 . S
C124 O137 1.058 . S
O125 C124 1.229 . S
O126 Zn120 1.969 . S
O126 C129 1.267 . S
O127 Zn120 1.965 . S
O127 C138 1.260 . S
O128 Zn121 1.969 . S
O128 C138 1.258 . S
C129 O126 1.267 . S
C129 O130 1.228 . S
O130 C129 1.228 . S
O131 Zn120 2.024 . S
O131 C122 1.058 . S
C132 O133 1.228 . S
C132 O134 1.267 . S
O133 C132 1.228 . S
O134 Zn121 1.969 . S
O134 C132 1.267 . S
O135 Zn121 1.965 . S
O135 C139 1.260 . S
O136 Zn120 1.969 . S
O136 C139 1.258 . S
O137 Zn121 2.024 . S
O137 C124 1.058 . S
C138 O127 1.260 . S
C138 O128 1.258 . S
C139 O135 1.260 . S
C139 O136 1.258 . S
Zn140 O146 1.969 . S
Zn140 O147 1.965 . S
Zn140 O151 2.024 . S
Zn140 O156 1.969 . S
Zn141 O148 1.969 . S
Zn141 O154 1.969 . S
Zn141 O155 1.965 . S
Zn141 O157 2.024 . S
C142 O143 1.229 . S
C142 O151 1.058 . S
O143 C142 1.229 . S
C144 O145 1.229 . S
C144 O157 1.058 . S
O145 C144 1.229 . S
O146 Zn140 1.969 . S
O146 C149 1.267 . S
O147 Zn140 1.965 . S
O147 C158 1.260 . S
O148 Zn141 1.969 . S
O148 C158 1.258 . S
C149 O146 1.267 . S
C149 O150 1.228 . S
O150 C149 1.228 . S
O151 Zn140 2.024 . S
O151 C142 1.058 . S
C152 O153 1.228 . S
C152 O154 1.267 . S
O153 C152 1.228 . S
O154 Zn141 1.969 . S
O154 C152 1.267 . S
O155 Zn141 1.965 . S
O155 C159 1.260 . S
O156 Zn140 1.969 . S
O156 C159 1.258 . S
O157 Zn141 2.024 . S
O157 C144 1.058 . S
C158 O147 1.260 . S
C158 O148 1.258 . S
C159 O155 1.260 . S
C159 O156 1.258 . S
C160 O172 1.241 . S
C160 O173 1.280 . S
C161 O174 1.277 . S
C161 O175 1.245 . S
C162 O186 1.247 . S
C162 O188 1.289 . S
Mg163 O164 1.926 . S
Mg163 O173 1.984 . S
Mg163 O175 1.988 . S
Mg163 O176 2.061 1_655 S
O164 Mg163 1.926 . S
O164 Mg165 1.986 . S
O164 Mg166 1.917 1_655 S
Mg165 O164 1.986 . S
Mg165 O172 2.042 . S
Mg165 O174 2.041 . S
Mg165 O180 2.038 1_545 S
Mg165 O188 2.238 1_545 S
Mg166 O164 1.917 1_455 S
Mg166 O167 1.917 1_545 S
Mg166 O177 2.106 . S
Mg166 O179 2.079 1_445 S
Mg166 O188 2.106 1_445 S
Mg166 O189 2.079 . S
O167 Mg166 1.917 1_565 S
O167 Mg168 1.926 . S
O167 Mg169 1.986 . S
Mg168 O167 1.926 . S
Mg168 O182 1.984 . S
Mg168 O185 1.988 . S
Mg168 O186 2.061 1_455 S
Mg169 O167 1.986 . S
Mg169 O177 2.238 1_565 S
Mg169 O181 2.042 . S
Mg169 O183 2.041 . S
Mg169 O190 2.038 1_565 S
C170 O176 1.247 . S
C170 O177 1.289 . S
C171 O189 1.245 . S
C171 O190 1.274 . S
O172 C160 1.241 . S
O172 Mg165 2.042 . S
O173 C160 1.280 . S
O173 Mg163 1.984 . S
O174 C161 1.277 . S
O174 Mg165 2.041 . S
O175 C161 1.245 . S
O175 Mg163 1.988 . S
O176 Mg163 2.061 1_455 S
O176 C170 1.247 . S
O177 Mg166 2.106 . S
O177 Mg169 2.238 1_545 S
O177 C170 1.289 . S
C178 O179 1.245 . S
C178 O180 1.274 . S
O179 Mg166 2.079 1_665 S
O179 C178 1.245 . S
O180 Mg165 2.038 1_565 S
O180 C178 1.274 . S
O181 Mg169 2.042 . S
O181 C184 1.241 . S
O182 Mg168 1.984 . S
O182 C184 1.280 . S
O183 Mg169 2.041 . S
O183 C187 1.277 . S
C184 O181 1.241 . S
C184 O182 1.280 . S
O185 Mg168 1.988 . S
O185 C187 1.245 . S
O186 C162 1.247 . S
O186 Mg168 2.061 1_655 S
C187 O183 1.277 . S
C187 O185 1.245 . S
O188 C162 1.289 . S
O188 Mg165 2.238 1_565 S
O188 Mg166 2.106 1_665 S
O189 Mg166 2.079 . S
O189 C171 1.245 . S
O190 Mg169 2.038 1_545 S
O190 C171 1.274 . S
C191 O203 1.241 . S
C191 O204 1.280 . S
C192 O205 1.277 . S
C192 O206 1.245 . S
C193 O217 1.247 . S
C193 O219 1.289 . S
Mg194 O195 1.926 . S
Mg194 O204 1.984 . S
Mg194 O206 1.988 1_554 S
Mg194 O207 2.061 . S
O195 Mg194 1.926 . S
O195 Mg196 1.986 1_554 S
O195 Mg197 1.917 . S
Mg196 O195 1.986 1_556 S
Mg196 O203 2.042 1_556 S
Mg196 O205 2.041 . S
Mg196 O211 2.038 1_546 S
Mg196 O219 2.238 1_545 S
Mg197 O195 1.917 . S
Mg197 O198 1.917 1_544 S
Mg197 O208 2.106 . S
Mg197 O210 2.079 1_545 S
Mg197 O219 2.106 1_544 S
Mg197 O220 2.079 1_554 S
O198 Mg197 1.917 1_566 S
O198 Mg199 1.926 . S
O198 Mg200 1.986 1_556 S
Mg199 O198 1.926 . S
Mg199 O213 1.984 . S
Mg199 O216 1.988 1_556 S
Mg199 O217 2.061 . S
Mg200 O198 1.986 1_554 S
Mg200 O208 2.238 1_565 S
Mg200 O212 2.042 1_554 S
Mg200 O214 2.041 . S
Mg200 O221 2.038 1_564 S
C201 O207 1.247 . S
C201 O208 1.289 . S
C202 O220 1.245 . S
C202 O221 1.274 . S
O203 C191 1.241 . S
O203 Mg196 2.042 1_554 S
O204 C191 1.280 . S
O204 Mg194 1.984 . S
O205 C192 1.277 . S
O205 Mg196 2.041 . S
O206 C192 1.245 . S
O206 Mg194 1.988 1_556 S
O207 Mg194 2.061 . S
O207 C201 1.247 . S
O208 Mg197 2.106 . S
O208 Mg200 2.238 1_545 S
O208 C201 1.289 . S
C209 O210 1.245 . S
C209 O211 1.274 . S
O210 Mg197 2.079 1_565 S
O210 C209 1.245 . S
O211 Mg196 2.038 1_564 S
O211 C209 1.274 . S
O212 Mg200 2.042 1_556 S
O212 C215 1.241 . S
O213 Mg199 1.984 . S
O213 C215 1.280 . S
O214 Mg200 2.041 . S
O214 C218 1.277 . S
C215 O212 1.241 . S
C215 O213 1.280 . S
O216 Mg199 1.988 1_554 S
O216 C218 1.245 . S
O217 C193 1.247 . S
O217 Mg199 2.061 . S
C218 O214 1.277 . S
C218 O216 1.245 . S
O219 C193 1.289 . S
O219 Mg196 2.238 1_565 S
O219 Mg197 2.106 1_566 S
O220 Mg197 2.079 1_556 S
O220 C202 1.245 . S
O221 Mg200 2.038 1_546 S
O221 C202 1.274 . S
C222 O234 1.241 . S
C222 O235 1.280 . S
C223 O236 1.277 . S
C223 O237 1.245 . S
C224 O248 1.247 . S
C224 O250 1.289 . S
Mg225 O226 1.926 . S
Mg225 O235 1.984 . S
Mg225 O237 1.988 1_554 S
Mg225 O238 2.061 1_655 S
O226 Mg225 1.926 . S
O226 Mg227 1.986 1_554 S
O226 Mg228 1.917 1_655 S
Mg227 O226 1.986 1_556 S
Mg227 O234 2.042 1_556 S
Mg227 O236 2.041 . S
Mg227 O242 2.038 1_556 S
Mg227 O250 2.238 . S
Mg228 O226 1.917 1_455 S
Mg228 O229 1.917 1_554 S
Mg228 O239 2.106 . S
Mg228 O241 2.079 1_455 S
Mg228 O250 2.106 1_454 S
Mg228 O251 2.079 1_554 S
O229 Mg228 1.917 1_556 S
O229 Mg230 1.926 . S
O229 Mg231 1.986 1_556 S
Mg230 O229 1.926 . S
Mg230 O244 1.984 . S
Mg230 O247 1.988 1_556 S
Mg230 O248 2.061 1_455 S
Mg231 O229 1.986 1_554 S
Mg231 O239 2.238 . S
Mg231 O243 2.042 1_554 S
Mg231 O245 2.041 . S
Mg231 O252 2.038 1_554 S
C232 O238 1.247 . S
C232 O239 1.289 . S
C233 O251 1.245 . S
C233 O252 1.274 . S
O234 C222 1.241 . S
O234 Mg227 2.042 1_554 S
O235 C222 1.280 . S
O235 Mg225 1.984 . S
O236 C223 1.277 . S
O236 Mg227 2.041 . S
O237 C223 1.245 . S
O237 Mg225 1.988 1_556 S
O238 Mg225 2.061 1_455 S
O238 C232 1.247 . S
O239 Mg228 2.106 . S
O239 Mg231 2.238 . S
O239 C232 1.289 . S
C240 O241 1.245 . S
C240 O242 1.274 . S
O241 Mg228 2.079 1_655 S
O241 C240 1.245 . S
O242 Mg227 2.038 1_554 S
O242 C240 1.274 . S
O243 Mg231 2.042 1_556 S
O243 C246 1.241 . S
O244 Mg230 1.984 . S
O244 C246 1.280 . S
O245 Mg231 2.041 . S
O245 C249 1.277 . S
C246 O243 1.241 . S
C246 O244 1.280 . S
O247 Mg230 1.988 1_554 S
O247 C249 1.245 . S
O248 C224 1.247 . S
O248 Mg230 2.061 1_655 S
C249 O245 1.277 . S
C249 O247 1.245 . S
O250 C224 1.289 . S
O250 Mg227 2.238 . S
O250 Mg228 2.106 1_656 S
O251 Mg228 2.079 1_556 S
O251 C233 1.245 . S
O252 Mg231 2.038 1_556 S
O252 C233 1.274 . S
C253 O265 1.241 . S
C253 O266 1.280 . S
C254 O267 1.277 . S
C254 O268 1.245 . S
C255 O279 1.247 . S
C255 O281 1.289 . S
Mg256 O257 1.926 . S
Mg256 O266 1.984 . S
Mg256 O268 1.988 1_554 S
Mg256 O269 2.061 . S
O257 Mg256 1.926 . S
O257 Mg258 1.986 1_554 S
O257 Mg259 1.917 . S
Mg258 O257 1.986 1_556 S
Mg258 O265 2.042 1_556 S
Mg258 O267 2.041 . S
Mg258 O273 2.038 1_556 S
Mg258 O281 2.238 . S
Mg259 O257 1.917 . S
Mg259 O260 1.917 1_554 S
Mg259 O270 2.106 . S
Mg259 O272 2.079 . S
Mg259 O281 2.106 1_554 S
Mg259 O282 2.079 1_554 S
O260 Mg259 1.917 1_556 S
O260 Mg261 1.926 . S
O260 Mg262 1.986 1_556 S
Mg261 O260 1.926 . S
Mg261 O275 1.984 . S
Mg261 O278 1.988 1_556 S
Mg261 O279 2.061 . S
Mg262 O260 1.986 1_554 S
Mg262 O270 2.238 . S
Mg262 O274 2.042 1_554 S
Mg262 O276 2.041 . S
Mg262 O283 2.038 1_554 S
C263 O269 1.247 . S
C263 O270 1.289 . S
C264 O282 1.245 . S
C264 O283 1.274 . S
O265 C253 1.241 . S
O265 Mg258 2.042 1_554 S
O266 C253 1.280 . S
O266 Mg256 1.984 . S
O267 C254 1.277 . S
O267 Mg258 2.041 . S
O268 C254 1.245 . S
O268 Mg256 1.988 1_556 S
O269 Mg256 2.061 . S
O269 C263 1.247 . S
O270 Mg259 2.106 . S
O270 Mg262 2.238 . S
O270 C263 1.289 . S
C271 O272 1.245 . S
C271 O273 1.274 . S
O272 Mg259 2.079 . S
O272 C271 1.245 . S
O273 Mg258 2.038 1_554 S
O273 C271 1.274 . S
O274 Mg262 2.042 1_556 S
O274 C277 1.241 . S
O275 Mg261 1.984 . S
O275 C277 1.280 . S
O276 Mg262 2.041 . S
O276 C280 1.277 . S
C277 O274 1.241 . S
C277 O275 1.280 . S
O278 Mg261 1.988 1_554 S
O278 C280 1.245 . S
O279 C255 1.247 . S
O279 Mg261 2.061 . S
C280 O276 1.277 . S
C280 O278 1.245 . S
O281 C255 1.289 . S
O281 Mg258 2.238 . S
O281 Mg259 2.106 1_556 S
O282 Mg259 2.079 1_556 S
O282 C264 1.245 . S
O283 Mg262 2.038 1_556 S
O283 C264 1.274 . S
C284 O296 1.241 . S
C284 O297 1.280 . S
C285 O298 1.277 . S
C285 O299 1.245 . S
C286 O310 1.247 . S
C286 O312 1.289 . S
Mg287 O288 1.926 . S
Mg287 O297 1.984 . S
Mg287 O299 1.988 . S
Mg287 O300 2.061 1_655 S
O288 Mg287 1.926 . S
O288 Mg289 1.986 . S
O288 Mg290 1.917 1_655 S
Mg289 O288 1.986 . S
Mg289 O296 2.042 . S
Mg289 O298 2.041 . S
Mg289 O304 2.038 . S
Mg289 O312 2.238 . S
Mg290 O288 1.917 1_455 S
Mg290 O291 1.917 . S
Mg290 O301 2.106 . S
Mg290 O303 2.079 1_455 S
Mg290 O312 2.106 1_455 S
Mg290 O313 2.079 . S
O291 Mg290 1.917 . S
O291 Mg292 1.926 . S
O291 Mg293 1.986 . S
Mg292 O291 1.926 . S
Mg292 O306 1.984 . S
Mg292 O309 1.988 . S
Mg292 O310 2.061 1_455 S
Mg293 O291 1.986 . S
Mg293 O301 2.238 . S
Mg293 O305 2.042 . S
Mg293 O307 2.041 . S
Mg293 O314 2.038 . S
C294 O300 1.247 . S
C294 O301 1.289 . S
C295 O313 1.245 . S
C295 O314 1.274 . S
O296 C284 1.241 . S
O296 Mg289 2.042 . S
O297 C284 1.280 . S
O297 Mg287 1.984 . S
O298 C285 1.277 . S
O298 Mg289 2.041 . S
O299 C285 1.245 . S
O299 Mg287 1.988 . S
O300 Mg287 2.061 1_455 S
O300 C294 1.247 . S
O301 Mg290 2.106 . S
O301 Mg293 2.238 . S
O301 C294 1.289 . S
C302 O303 1.245 . S
C302 O304 1.274 . S
O303 Mg290 2.079 1_655 S
O303 C302 1.245 . S
O304 Mg289 2.038 . S
O304 C302 1.274 . S
O305 Mg293 2.042 . S
O305 C308 1.241 . S
O306 Mg292 1.984 . S
O306 C308 1.280 . S
O307 Mg293 2.041 . S
O307 C311 1.277 . S
C308 O305 1.241 . S
C308 O306 1.280 . S
O309 Mg292 1.988 . S
O309 C311 1.245 . S
O310 C286 1.247 . S
O310 Mg292 2.061 1_655 S
C311 O307 1.277 . S
C311 O309 1.245 . S
O312 C286 1.289 . S
O312 Mg289 2.238 . S
O312 Mg290 2.106 1_655 S
O313 Mg290 2.079 . S
O313 C295 1.245 . S
O314 Mg293 2.038 . S
O314 C295 1.274 . S
C315 O327 1.241 . S
C315 O328 1.280 . S
C316 O329 1.277 . S
C316 O330 1.245 . S
C317 O341 1.247 . S
C317 O343 1.289 . S
Mg318 O319 1.926 . S
Mg318 O328 1.984 . S
Mg318 O330 1.988 . S
Mg318 O331 2.061 . S
O319 Mg318 1.926 . S
O319 Mg320 1.986 . S
O319 Mg321 1.917 . S
Mg320 O319 1.986 . S
Mg320 O327 2.042 . S
Mg320 O329 2.041 . S
Mg320 O335 2.038 1_545 S
Mg320 O343 2.238 1_545 S
Mg321 O319 1.917 . S
Mg321 O322 1.917 1_545 S
Mg321 O332 2.106 . S
Mg321 O334 2.079 1_545 S
Mg321 O343 2.106 1_545 S
Mg321 O344 2.079 . S
O322 Mg321 1.917 1_565 S
O322 Mg323 1.926 . S
O322 Mg324 1.986 . S
Mg323 O322 1.926 . S
Mg323 O337 1.984 . S
Mg323 O340 1.988 . S
Mg323 O341 2.061 . S
Mg324 O322 1.986 . S
Mg324 O332 2.238 1_565 S
Mg324 O336 2.042 . S
Mg324 O338 2.041 . S
Mg324 O345 2.038 1_565 S
C325 O331 1.247 . S
C325 O332 1.289 . S
C326 O344 1.245 . S
C326 O345 1.274 . S
O327 C315 1.241 . S
O327 Mg320 2.042 . S
O328 C315 1.280 . S
O328 Mg318 1.984 . S
O329 C316 1.277 . S
O329 Mg320 2.041 . S
O330 C316 1.245 . S
O330 Mg318 1.988 . S
O331 Mg318 2.061 . S
O331 C325 1.247 . S
O332 Mg321 2.106 . S
O332 Mg324 2.238 1_545 S
O332 C325 1.289 . S
C333 O334 1.245 . S
C333 O335 1.274 . S
O334 Mg321 2.079 1_565 S
O334 C333 1.245 . S
O335 Mg320 2.038 1_565 S
O335 C333 1.274 . S
O336 Mg324 2.042 . S
O336 C339 1.241 . S
O337 Mg323 1.984 . S
O337 C339 1.280 . S
O338 Mg324 2.041 . S
O338 C342 1.277 . S
C339 O336 1.241 . S
C339 O337 1.280 . S
O340 Mg323 1.988 . S
O340 C342 1.245 . S
O341 C317 1.247 . S
O341 Mg323 2.061 . S
C342 O338 1.277 . S
C342 O340 1.245 . S
O343 C317 1.289 . S
O343 Mg320 2.238 1_565 S
O343 Mg321 2.106 1_565 S
O344 Mg321 2.079 . S
O344 C326 1.245 . S
O345 Mg324 2.038 1_545 S
O345 C326 1.274 . S
H346 C354 0.929 . S
H347 C356 0.930 . S
H348 C358 0.930 . S
H349 C361 0.929 . S
H350 C364 0.930 . S
H351 C366 0.960 . S
H352 C366 0.960 . S
H353 C366 0.960 . S
C354 H346 0.929 . S
C354 C355 1.377 . S
C354 C356 1.384 . S
C355 C354 1.377 . S
C355 C361 1.390 . S
C356 H347 0.930 . S
C356 C354 1.384 . S
C356 C357 1.372 . S
C357 C356 1.372 . S
C357 C358 1.400 . S
C357 C362 1.490 . S
C358 H348 0.930 . S
C358 C357 1.400 . S
C358 C361 1.386 . S
H359 C375 0.930 . S
H360 C376 0.931 . S
C361 H349 0.929 . S
C361 C355 1.390 . S
C361 C358 1.386 . S
C362 C357 1.490 . S
C362 C364 1.395 . S
C362 C365 1.403 . S
H363 C369 0.930 . S
C364 H350 0.930 . S
C364 C362 1.395 . S
C364 C367 1.403 . S
C365 C362 1.403 . S
C365 C366 1.524 . S
C365 C369 1.400 . S
C366 H351 0.960 . S
C366 H352 0.960 . S
C366 H353 0.960 . S
C366 C365 1.524 . S
C367 C364 1.403 . S
C367 C368 1.392 . S
C367 C371 1.495 . S
C368 C367 1.392 . S
C368 C369 1.385 . S
C368 C370 1.478 . S
C369 H363 0.930 . S
C369 C365 1.400 . S
C369 C368 1.385 . S
C370 C368 1.478 . S
C370 C372 1.381 . S
C370 C376 1.383 . S
C371 C367 1.495 . S
C371 H377 0.959 . S
C371 H378 0.961 . S
C371 H379 0.960 . S
C372 C370 1.381 . S
C372 C373 1.394 . S
C372 H380 0.930 . S
C373 C372 1.394 . S
C373 C374 1.383 . S
C373 H381 0.929 . S
C374 C373 1.383 . S
C374 C375 1.377 . S
C375 H359 0.930 . S
C375 C374 1.377 . S
C375 C376 1.379 . S
C376 H360 0.931 . S
C376 C370 1.383 . S
C376 C375 1.379 . S
H377 C371 0.959 . S
H378 C371 0.961 . S
H379 C371 0.960 . S
H380 C372 0.930 . S
H381 C373 0.929 . S
H382 C390 0.929 . S
H383 C392 0.930 . S
H384 C394 0.930 . S
H385 C397 0.929 . S
H386 C400 0.930 . S
H387 C402 0.960 . S
H388 C402 0.960 . S
H389 C402 0.960 . S
C390 H382 0.929 . S
C390 C391 1.377 . S
C390 C392 1.384 . S
C391 C390 1.377 . S
C391 C397 1.390 . S
C392 H383 0.930 . S
C392 C390 1.384 . S
C392 C393 1.372 . S
C393 C392 1.372 . S
C393 C394 1.400 . S
C393 C398 1.490 . S
C394 H384 0.930 . S
C394 C393 1.400 . S
C394 C397 1.386 . S
H395 C411 0.930 . S
H396 C412 0.931 . S
C397 H385 0.929 . S
C397 C391 1.390 . S
C397 C394 1.386 . S
C398 C393 1.490 . S
C398 C400 1.395 . S
C398 C401 1.403 . S
H399 C405 0.930 . S
C400 H386 0.930 . S
C400 C398 1.395 . S
C400 C403 1.403 . S
C401 C398 1.403 . S
C401 C402 1.524 . S
C401 C405 1.400 . S
C402 H387 0.960 . S
C402 H388 0.960 . S
C402 H389 0.960 . S
C402 C401 1.524 . S
C403 C400 1.403 . S
C403 C404 1.392 . S
C403 C407 1.495 . S
C404 C403 1.392 . S
C404 C405 1.385 . S
C404 C406 1.478 . S
C405 H399 0.930 . S
C405 C401 1.400 . S
C405 C404 1.385 . S
C406 C404 1.478 . S
C406 C408 1.381 . S
C406 C412 1.383 . S
C407 C403 1.495 . S
C407 H413 0.959 . S
C407 H414 0.961 . S
C407 H415 0.960 . S
C408 C406 1.381 . S
C408 C409 1.394 . S
C408 H416 0.930 . S
C409 C408 1.394 . S
C409 C410 1.383 . S
C409 H417 0.929 . S
C410 C409 1.383 . S
C410 C411 1.377 . S
C411 H395 0.930 . S
C411 C410 1.377 . S
C411 C412 1.379 . S
C412 H396 0.931 . S
C412 C406 1.383 . S
C412 C411 1.379 . S
H413 C407 0.959 . S
H414 C407 0.961 . S
H415 C407 0.960 . S
H416 C408 0.930 . S
H417 C409 0.929 . S
H418 C426 0.929 . S
H419 C428 0.930 . S
H420 C430 0.930 . S
H421 C433 0.929 . S
H422 C436 0.930 . S
H423 C438 0.960 . S
H424 C438 0.960 . S
H425 C438 0.960 . S
C426 H418 0.929 . S
C426 C427 1.377 . S
C426 C428 1.384 . S
C427 C426 1.377 . S
C427 C433 1.390 . S
C428 H419 0.930 . S
C428 C426 1.384 . S
C428 C429 1.372 . S
C429 C428 1.372 . S
C429 C430 1.400 . S
C429 C434 1.490 . S
C430 H420 0.930 . S
C430 C429 1.400 . S
C430 C433 1.386 . S
H431 C447 0.930 . S
H432 C448 0.931 . S
C433 H421 0.929 . S
C433 C427 1.390 . S
C433 C430 1.386 . S
C434 C429 1.490 . S
C434 C436 1.395 . S
C434 C437 1.403 . S
H435 C441 0.930 . S
C436 H422 0.930 . S
C436 C434 1.395 . S
C436 C439 1.403 . S
C437 C434 1.403 . S
C437 C438 1.524 . S
C437 C441 1.400 . S
C438 H423 0.960 . S
C438 H424 0.960 . S
C438 H425 0.960 . S
C438 C437 1.524 . S
C439 C436 1.403 . S
C439 C440 1.392 . S
C439 C443 1.495 . S
C440 C439 1.392 . S
C440 C441 1.385 . S
C440 C442 1.478 . S
C441 H435 0.930 . S
C441 C437 1.400 . S
C441 C440 1.385 . S
C442 C440 1.478 . S
C442 C444 1.381 . S
C442 C448 1.383 . S
C443 C439 1.495 . S
C443 H449 0.959 . S
C443 H450 0.961 . S
C443 H451 0.960 . S
C444 C442 1.381 . S
C444 C445 1.394 . S
C444 H452 0.930 . S
C445 C444 1.394 . S
C445 C446 1.383 . S
C445 H453 0.929 . S
C446 C445 1.383 . S
C446 C447 1.377 . S
C447 H431 0.930 . S
C447 C446 1.377 . S
C447 C448 1.379 . S
C448 H432 0.931 . S
C448 C442 1.383 . S
C448 C447 1.379 . S
H449 C443 0.959 . S
H450 C443 0.961 . S
H451 C443 0.960 . S
H452 C444 0.930 . S
H453 C445 0.929 . S
H454 C462 0.929 . S
H455 C464 0.930 . S
H456 C466 0.930 . S
H457 C469 0.929 . S
H458 C472 0.930 . S
H459 C474 0.960 . S
H460 C474 0.960 . S
H461 C474 0.960 . S
C462 H454 0.929 . S
C462 C463 1.377 . S
C462 C464 1.384 . S
C463 C462 1.377 . S
C463 C469 1.390 . S
C464 H455 0.930 . S
C464 C462 1.384 . S
C464 C465 1.372 . S
C465 C464 1.372 . S
C465 C466 1.400 . S
C465 C470 1.490 . S
C466 H456 0.930 . S
C466 C465 1.400 . S
C466 C469 1.386 . S
H467 C483 0.930 . S
H468 C484 0.931 . S
C469 H457 0.929 . S
C469 C463 1.390 . S
C469 C466 1.386 . S
C470 C465 1.490 . S
C470 C472 1.395 . S
C470 C473 1.403 . S
H471 C477 0.930 . S
C472 H458 0.930 . S
C472 C470 1.395 . S
C472 C475 1.403 . S
C473 C470 1.403 . S
C473 C474 1.524 . S
C473 C477 1.400 . S
C474 H459 0.960 . S
C474 H460 0.960 . S
C474 H461 0.960 . S
C474 C473 1.524 . S
C475 C472 1.403 . S
C475 C476 1.392 . S
C475 C479 1.495 . S
C476 C475 1.392 . S
C476 C477 1.385 . S
C476 C478 1.478 . S
C477 H471 0.930 . S
C477 C473 1.400 . S
C477 C476 1.385 . S
C478 C476 1.478 . S
C478 C480 1.381 . S
C478 C484 1.383 . S
C479 C475 1.495 . S
C479 H485 0.959 . S
C479 H486 0.961 . S
C479 H487 0.960 . S
C480 C478 1.381 . S
C480 C481 1.394 . S
C480 H488 0.930 . S
C481 C480 1.394 . S
C481 C482 1.383 . S
C481 H489 0.929 . S
C482 C481 1.383 . S
C482 C483 1.377 . S
C483 H467 0.930 . S
C483 C482 1.377 . S
C483 C484 1.379 . S
C484 H468 0.931 . S
C484 C478 1.383 . S
C484 C483 1.379 . S
H485 C479 0.959 . S
H486 C479 0.961 . S
H487 C479 0.960 . S
H488 C480 0.930 . S
H489 C481 0.929 . S
H490 C498 0.929 . S
H491 C500 0.930 . S
H492 C502 0.930 . S
H493 C505 0.929 . S
H494 C508 0.930 . S
H495 C510 0.960 . S
H496 C510 0.960 . S
H497 C510 0.960 . S
C498 H490 0.929 . S
C498 C499 1.377 . S
C498 C500 1.384 . S
C499 C498 1.377 . S
C499 C505 1.390 . S
C500 H491 0.930 . S
C500 C498 1.384 . S
C500 C501 1.372 . S
C501 C500 1.372 . S
C501 C502 1.400 . S
C501 C506 1.490 . S
C502 H492 0.930 . S
C502 C501 1.400 . S
C502 C505 1.386 . S
H503 C519 0.930 . S
H504 C520 0.931 . S
C505 H493 0.929 . S
C505 C499 1.390 . S
C505 C502 1.386 . S
C506 C501 1.490 . S
C506 C508 1.395 . S
C506 C509 1.403 . S
H507 C513 0.930 . S
C508 H494 0.930 . S
C508 C506 1.395 . S
C508 C511 1.403 . S
C509 C506 1.403 . S
C509 C510 1.524 . S
C509 C513 1.400 . S
C510 H495 0.960 . S
C510 H496 0.960 . S
C510 H497 0.960 . S
C510 C509 1.524 . S
C511 C508 1.403 . S
C511 C512 1.392 . S
C511 C515 1.495 . S
C512 C511 1.392 . S
C512 C513 1.385 . S
C512 C514 1.478 . S
C513 H507 0.930 . S
C513 C509 1.400 . S
C513 C512 1.385 . S
C514 C512 1.478 . S
C514 C516 1.381 . S
C514 C520 1.383 . S
C515 C511 1.495 . S
C515 H521 0.959 . S
C515 H522 0.961 . S
C515 H523 0.960 . S
C516 C514 1.381 . S
C516 C517 1.394 . S
C516 H524 0.930 . S
C517 C516 1.394 . S
C517 C518 1.383 . S
C517 H525 0.929 . S
C518 C517 1.383 . S
C518 C519 1.377 . S
C519 H503 0.930 . S
C519 C518 1.377 . S
C519 C520 1.379 . S
C520 H504 0.931 . S
C520 C514 1.383 . S
C520 C519 1.379 . S
H521 C515 0.959 . S
H522 C515 0.961 . S
H523 C515 0.960 . S
H524 C516 0.930 . S
H525 C517 0.929 . S
H526 C534 0.929 . S
H527 C536 0.930 . S
H528 C538 0.930 . S
H529 C541 0.929 . S
H530 C544 0.930 . S
H531 C546 0.960 . S
H532 C546 0.960 . S
H533 C546 0.960 . S
C534 H526 0.929 . S
C534 C535 1.377 . S
C534 C536 1.384 . S
C535 C534 1.377 . S
C535 C541 1.390 . S
C536 H527 0.930 . S
C536 C534 1.384 . S
C536 C537 1.372 . S
C537 C536 1.372 . S
C537 C538 1.400 . S
C537 C542 1.490 . S
C538 H528 0.930 . S
C538 C537 1.400 . S
C538 C541 1.386 . S
H539 C555 0.930 . S
H540 C556 0.931 . S
C541 H529 0.929 . S
C541 C535 1.390 . S
C541 C538 1.386 . S
C542 C537 1.490 . S
C542 C544 1.395 . S
C542 C545 1.403 . S
H543 C549 0.930 . S
C544 H530 0.930 . S
C544 C542 1.395 . S
C544 C547 1.403 . S
C545 C542 1.403 . S
C545 C546 1.524 . S
C545 C549 1.400 . S
C546 H531 0.960 . S
C546 H532 0.960 . S
C546 H533 0.960 . S
C546 C545 1.524 . S
C547 C544 1.403 . S
C547 C548 1.392 . S
C547 C551 1.495 . S
C548 C547 1.392 . S
C548 C549 1.385 . S
C548 C550 1.478 . S
C549 H543 0.930 . S
C549 C545 1.400 . S
C549 C548 1.385 . S
C550 C548 1.478 . S
C550 C552 1.381 . S
C550 C556 1.383 . S
C551 C547 1.495 . S
C551 H557 0.959 . S
C551 H558 0.961 . S
C551 H559 0.960 . S
C552 C550 1.381 . S
C552 C553 1.394 . S
C552 H560 0.930 . S
C553 C552 1.394 . S
C553 C554 1.383 . S
C553 H561 0.929 . S
C554 C553 1.383 . S
C554 C555 1.377 . S
C555 H539 0.930 . S
C555 C554 1.377 . S
C555 C556 1.379 . S
C556 H540 0.931 . S
C556 C550 1.383 . S
C556 C555 1.379 . S
H557 C551 0.959 . S
H558 C551 0.961 . S
H559 C551 0.960 . S
H560 C552 0.930 . S
H561 C553 0.929 . S
H562 C570 0.929 . S
H563 C572 0.930 . S
H564 C574 0.930 . S
H565 C577 0.929 . S
H566 C580 0.930 . S
H567 C582 0.960 . S
H568 C582 0.960 . S
H569 C582 0.960 . S
C570 H562 0.929 . S
C570 C571 1.377 . S
C570 C572 1.384 . S
C571 C570 1.377 . S
C571 C577 1.390 . S
C572 H563 0.930 . S
C572 C570 1.384 . S
C572 C573 1.372 . S
C573 C572 1.372 . S
C573 C574 1.400 . S
C573 C578 1.490 . S
C574 H564 0.930 . S
C574 C573 1.400 . S
C574 C577 1.386 . S
H575 C591 0.930 . S
H576 C592 0.931 . S
C577 H565 0.929 . S
C577 C571 1.390 . S
C577 C574 1.386 . S
C578 C573 1.490 . S
C578 C580 1.395 . S
C578 C581 1.403 . S
H579 C585 0.930 . S
C580 H566 0.930 . S
C580 C578 1.395 . S
C580 C583 1.403 . S
C581 C578 1.403 . S
C581 C582 1.524 . S
C581 C585 1.400 . S
C582 H567 0.960 . S
C582 H568 0.960 . S
C582 H569 0.960 . S
C582 C581 1.524 . S
C583 C580 1.403 . S
C583 C584 1.392 . S
C583 C587 1.495 . S
C584 C583 1.392 . S
C584 C585 1.385 . S
C584 C586 1.478 . S
C585 H579 0.930 . S
C585 C581 1.400 . S
C585 C584 1.385 . S
C586 C584 1.478 . S
C586 C588 1.381 . S
C586 C592 1.383 . S
C587 C583 1.495 . S
C587 H593 0.959 . S
C587 H594 0.961 . S
C587 H595 0.960 . S
C588 C586 1.381 . S
C588 C589 1.394 . S
C588 H596 0.930 . S
C589 C588 1.394 . S
C589 C590 1.383 . S
C589 H597 0.929 . S
C590 C589 1.383 . S
C590 C591 1.377 . S
C591 H575 0.930 . S
C591 C590 1.377 . S
C591 C592 1.379 . S
C592 H576 0.931 . S
C592 C586 1.383 . S
C592 C591 1.379 . S
H593 C587 0.959 . S
H594 C587 0.961 . S
H595 C587 0.960 . S
H596 C588 0.930 . S
H597 C589 0.929 . S
H598 C606 0.929 . S
H599 C608 0.930 . S
H600 C610 0.930 . S
H601 C613 0.929 . S
H602 C616 0.930 . S
H603 C618 0.960 . S
H604 C618 0.960 . S
H605 C618 0.960 . S
C606 H598 0.929 . S
C606 C607 1.377 . S
C606 C608 1.384 . S
C607 C606 1.377 . S
C607 C613 1.390 . S
C608 H599 0.930 . S
C608 C606 1.384 . S
C608 C609 1.372 . S
C609 C608 1.372 . S
C609 C610 1.400 . S
C609 C614 1.490 . S
C610 H600 0.930 . S
C610 C609 1.400 . S
C610 C613 1.386 . S
H611 C627 0.930 . S
H612 C628 0.931 . S
C613 H601 0.929 . S
C613 C607 1.390 . S
C613 C610 1.386 . S
C614 C609 1.490 . S
C614 C616 1.395 . S
C614 C617 1.403 . S
H615 C621 0.930 . S
C616 H602 0.930 . S
C616 C614 1.395 . S
C616 C619 1.403 . S
C617 C614 1.403 . S
C617 C618 1.524 . S
C617 C621 1.400 . S
C618 H603 0.960 . S
C618 H604 0.960 . S
C618 H605 0.960 . S
C618 C617 1.524 . S
C619 C616 1.403 . S
C619 C620 1.392 . S
C619 C623 1.495 . S
C620 C619 1.392 . S
C620 C621 1.385 . S
C620 C622 1.478 . S
C621 H615 0.930 . S
C621 C617 1.400 . S
C621 C620 1.385 . S
C622 C620 1.478 . S
C622 C624 1.381 . S
C622 C628 1.383 . S
C623 C619 1.495 . S
C623 H629 0.959 . S
C623 H630 0.961 . S
C623 H631 0.960 . S
C624 C622 1.381 . S
C624 C625 1.394 . S
C624 H632 0.930 . S
C625 C624 1.394 . S
C625 C626 1.383 . S
C625 H633 0.929 . S
C626 C625 1.383 . S
C626 C627 1.377 . S
C627 H611 0.930 . S
C627 C626 1.377 . S
C627 C628 1.379 . S
C628 H612 0.931 . S
C628 C622 1.383 . S
C628 C627 1.379 . S
H629 C623 0.959 . S
H630 C623 0.961 . S
H631 C623 0.960 . S
H632 C624 0.930 . S
H633 C625 0.929 . S
H634 C642 0.929 . S
H635 C644 0.930 . S
H636 C646 0.930 . S
H637 C649 0.929 . S
H638 C652 0.930 . S
H639 C654 0.960 . S
H640 C654 0.960 . S
H641 C654 0.960 . S
C642 H634 0.929 . S
C642 C643 1.377 . S
C642 C644 1.384 . S
C643 C642 1.377 . S
C643 C649 1.390 . S
C644 H635 0.930 . S
C644 C642 1.384 . S
C644 C645 1.372 . S
C645 C644 1.372 . S
C645 C646 1.400 . S
C645 C650 1.490 . S
C646 H636 0.930 . S
C646 C645 1.400 . S
C646 C649 1.386 . S
H647 C663 0.930 . S
H648 C664 0.931 . S
C649 H637 0.929 . S
C649 C643 1.390 . S
C649 C646 1.386 . S
C650 C645 1.490 . S
C650 C652 1.395 . S
C650 C653 1.403 . S
H651 C657 0.930 . S
C652 H638 0.930 . S
C652 C650 1.395 . S
C652 C655 1.403 . S
C653 C650 1.403 . S
C653 C654 1.524 . S
C653 C657 1.400 . S
C654 H639 0.960 . S
C654 H640 0.960 . S
C654 H641 0.960 . S
C654 C653 1.524 . S
C655 C652 1.403 . S
C655 C656 1.392 . S
C655 C659 1.495 . S
C656 C655 1.392 . S
C656 C657 1.385 . S
C656 C658 1.478 . S
C657 H651 0.930 . S
C657 C653 1.400 . S
C657 C656 1.385 . S
C658 C656 1.478 . S
C658 C660 1.381 . S
C658 C664 1.383 . S
C659 C655 1.495 . S
C659 H665 0.959 . S
C659 H666 0.961 . S
C659 H667 0.960 . S
C660 C658 1.381 . S
C660 C661 1.394 . S
C660 H668 0.930 . S
C661 C660 1.394 . S
C661 C662 1.383 . S
C661 H669 0.929 . S
C662 C661 1.383 . S
C662 C663 1.377 . S
C663 H647 0.930 . S
C663 C662 1.377 . S
C663 C664 1.379 . S
C664 H648 0.931 . S
C664 C658 1.383 . S
C664 C663 1.379 . S
H665 C659 0.959 . S
H666 C659 0.961 . S
H667 C659 0.960 . S
H668 C660 0.930 . S
H669 C661 0.929 . S
H670 C678 0.929 . S
H671 C680 0.930 . S
H672 C682 0.930 . S
H673 C685 0.929 . S
H674 C688 0.930 . S
H675 C690 0.960 . S
H676 C690 0.960 . S
H677 C690 0.960 . S
C678 H670 0.929 . S
C678 C679 1.377 . S
C678 C680 1.384 . S
C679 C678 1.377 . S
C679 C685 1.390 . S
C680 H671 0.930 . S
C680 C678 1.384 . S
C680 C681 1.372 . S
C681 C680 1.372 . S
C681 C682 1.400 . S
C681 C686 1.490 . S
C682 H672 0.930 . S
C682 C681 1.400 . S
C682 C685 1.386 . S
H683 C699 0.930 . S
H684 C700 0.931 . S
C685 H673 0.929 . S
C685 C679 1.390 . S
C685 C682 1.386 . S
C686 C681 1.490 . S
C686 C688 1.395 . S
C686 C689 1.403 . S
H687 C693 0.930 . S
C688 H674 0.930 . S
C688 C686 1.395 . S
C688 C691 1.403 . S
C689 C686 1.403 . S
C689 C690 1.524 . S
C689 C693 1.400 . S
C690 H675 0.960 . S
C690 H676 0.960 . S
C690 H677 0.960 . S
C690 C689 1.524 . S
C691 C688 1.403 . S
C691 C692 1.392 . S
C691 C695 1.495 . S
C692 C691 1.392 . S
C692 C693 1.385 . S
C692 C694 1.478 . S
C693 H687 0.930 . S
C693 C689 1.400 . S
C693 C692 1.385 . S
C694 C692 1.478 . S
C694 C696 1.381 . S
C694 C700 1.383 . S
C695 C691 1.495 . S
C695 H701 0.959 . S
C695 H702 0.961 . S
C695 H703 0.960 . S
C696 C694 1.381 . S
C696 C697 1.394 . S
C696 H704 0.930 . S
C697 C696 1.394 . S
C697 C698 1.383 . S
C697 H705 0.929 . S
C698 C697 1.383 . S
C698 C699 1.377 . S
C699 H683 0.930 . S
C699 C698 1.377 . S
C699 C700 1.379 . S
C700 H684 0.931 . S
C700 C694 1.383 . S
C700 C699 1.379 . S
H701 C695 0.959 . S
H702 C695 0.961 . S
H703 C695 0.960 . S
H704 C696 0.930 . S
H705 C697 0.929 . S
H706 C714 0.929 . S
H707 C716 0.930 . S
H708 C718 0.930 . S
H709 C721 0.929 . S
H710 C724 0.930 . S
H711 C726 0.960 . S
H712 C726 0.960 . S
H713 C726 0.960 . S
C714 H706 0.929 . S
C714 C715 1.377 . S
C714 C716 1.384 . S
C715 C714 1.377 . S
C715 C721 1.390 . S
C716 H707 0.930 . S
C716 C714 1.384 . S
C716 C717 1.372 . S
C717 C716 1.372 . S
C717 C718 1.400 . S
C717 C722 1.490 . S
C718 H708 0.930 . S
C718 C717 1.400 . S
C718 C721 1.386 . S
H719 C735 0.930 . S
H720 C736 0.931 . S
C721 H709 0.929 . S
C721 C715 1.390 . S
C721 C718 1.386 . S
C722 C717 1.490 . S
C722 C724 1.395 . S
C722 C725 1.403 . S
H723 C729 0.930 . S
C724 H710 0.930 . S
C724 C722 1.395 . S
C724 C727 1.403 . S
C725 C722 1.403 . S
C725 C726 1.524 . S
C725 C729 1.400 . S
C726 H711 0.960 . S
C726 H712 0.960 . S
C726 H713 0.960 . S
C726 C725 1.524 . S
C727 C724 1.403 . S
C727 C728 1.392 . S
C727 C731 1.495 . S
C728 C727 1.392 . S
C728 C729 1.385 . S
C728 C730 1.478 . S
C729 H723 0.930 . S
C729 C725 1.400 . S
C729 C728 1.385 . S
C730 C728 1.478 . S
C730 C732 1.381 . S
C730 C736 1.383 . S
C731 C727 1.495 . S
C731 H737 0.959 . S
C731 H738 0.961 . S
C731 H739 0.960 . S
C732 C730 1.381 . S
C732 C733 1.394 . S
C732 H740 0.930 . S
C733 C732 1.394 . S
C733 C734 1.383 . S
C733 H741 0.929 . S
C734 C733 1.383 . S
C734 C735 1.377 . S
C735 H719 0.930 . S
C735 C734 1.377 . S
C735 C736 1.379 . S
C736 H720 0.931 . S
C736 C730 1.383 . S
C736 C735 1.379 . S
H737 C731 0.959 . S
H738 C731 0.961 . S
H739 C731 0.960 . S
H740 C732 0.930 . S
H741 C733 0.929 . S
H742 C750 0.929 . S
H743 C752 0.930 . S
H744 C754 0.930 . S
H745 C757 0.929 . S
H746 C760 0.930 . S
H747 C762 0.960 . S
H748 C762 0.960 . S
H749 C762 0.960 . S
C750 H742 0.929 . S
C750 C751 1.377 . S
C750 C752 1.384 . S
C751 C750 1.377 . S
C751 C757 1.390 . S
C752 H743 0.930 . S
C752 C750 1.384 . S
C752 C753 1.372 . S
C753 C752 1.372 . S
C753 C754 1.400 . S
C753 C758 1.490 . S
C754 H744 0.930 . S
C754 C753 1.400 . S
C754 C757 1.386 . S
H755 C771 0.930 . S
H756 C772 0.931 . S
C757 H745 0.929 . S
C757 C751 1.390 . S
C757 C754 1.386 . S
C758 C753 1.490 . S
C758 C760 1.395 . S
C758 C761 1.403 . S
H759 C765 0.930 . S
C760 H746 0.930 . S
C760 C758 1.395 . S
C760 C763 1.403 . S
C761 C758 1.403 . S
C761 C762 1.524 . S
C761 C765 1.400 . S
C762 H747 0.960 . S
C762 H748 0.960 . S
C762 H749 0.960 . S
C762 C761 1.524 . S
C763 C760 1.403 . S
C763 C764 1.392 . S
C763 C767 1.495 . S
C764 C763 1.392 . S
C764 C765 1.385 . S
C764 C766 1.478 . S
C765 H759 0.930 . S
C765 C761 1.400 . S
C765 C764 1.385 . S
C766 C764 1.478 . S
C766 C768 1.381 . S
C766 C772 1.383 . S
C767 C763 1.495 . S
C767 H773 0.959 . S
C767 H774 0.961 . S
C767 H775 0.960 . S
C768 C766 1.381 . S
C768 C769 1.394 . S
C768 H776 0.930 . S
C769 C768 1.394 . S
C769 C770 1.383 . S
C769 H777 0.929 . S
C770 C769 1.383 . S
C770 C771 1.377 . S
C771 H755 0.930 . S
C771 C770 1.377 . S
C771 C772 1.379 . S
C772 H756 0.931 . S
C772 C766 1.383 . S
C772 C771 1.379 . S
H773 C767 0.959 . S
H774 C767 0.961 . S
H775 C767 0.960 . S
H776 C768 0.930 . S
H777 C769 0.929 . S
H778 C786 0.929 . S
H779 C788 0.930 . S
H780 C790 0.930 . S
H781 C793 0.929 . S
H782 C796 0.930 . S
H783 C798 0.960 . S
H784 C798 0.960 . S
H785 C798 0.960 . S
C786 H778 0.929 . S
C786 C787 1.377 . S
C786 C788 1.384 . S
C787 C786 1.377 . S
C787 C793 1.390 . S
C788 H779 0.930 . S
C788 C786 1.384 . S
C788 C789 1.372 . S
C789 C788 1.372 . S
C789 C790 1.400 . S
C789 C794 1.490 . S
C790 H780 0.930 . S
C790 C789 1.400 . S
C790 C793 1.386 . S
H791 C807 0.930 . S
H792 C808 0.931 . S
C793 H781 0.929 . S
C793 C787 1.390 . S
C793 C790 1.386 . S
C794 C789 1.490 . S
C794 C796 1.395 . S
C794 C797 1.403 . S
H795 C801 0.930 . S
C796 H782 0.930 . S
C796 C794 1.395 . S
C796 C799 1.403 . S
C797 C794 1.403 . S
C797 C798 1.524 . S
C797 C801 1.400 . S
C798 H783 0.960 . S
C798 H784 0.960 . S
C798 H785 0.960 . S
C798 C797 1.524 . S
C799 C796 1.403 . S
C799 C800 1.392 . S
C799 C803 1.495 . S
C800 C799 1.392 . S
C800 C801 1.385 . S
C800 C802 1.478 . S
C801 H795 0.930 . S
C801 C797 1.400 . S
C801 C800 1.385 . S
C802 C800 1.478 . S
C802 C804 1.381 . S
C802 C808 1.383 . S
C803 C799 1.495 . S
C803 H809 0.959 . S
C803 H810 0.961 . S
C803 H811 0.960 . S
C804 C802 1.381 . S
C804 C805 1.394 . S
C804 H812 0.930 . S
C805 C804 1.394 . S
C805 C806 1.383 . S
C805 H813 0.929 . S
C806 C805 1.383 . S
C806 C807 1.377 . S
C807 H791 0.930 . S
C807 C806 1.377 . S
C807 C808 1.379 . S
C808 H792 0.931 . S
C808 C802 1.383 . S
C808 C807 1.379 . S
H809 C803 0.959 . S
H810 C803 0.961 . S
H811 C803 0.960 . S
H812 C804 0.930 . S
H813 C805 0.929 . S
H814 C822 0.929 . S
H815 C824 0.930 . S
H816 C826 0.930 . S
H817 C829 0.929 . S
H818 C832 0.930 . S
H819 C834 0.960 . S
H820 C834 0.960 . S
H821 C834 0.960 . S
C822 H814 0.929 . S
C822 C823 1.377 . S
C822 C824 1.384 . S
C823 C822 1.377 . S
C823 C829 1.390 . S
C824 H815 0.930 . S
C824 C822 1.384 . S
C824 C825 1.372 . S
C825 C824 1.372 . S
C825 C826 1.400 . S
C825 C830 1.490 . S
C826 H816 0.930 . S
C826 C825 1.400 . S
C826 C829 1.386 . S
H827 C843 0.930 . S
H828 C844 0.931 . S
C829 H817 0.929 . S
C829 C823 1.390 . S
C829 C826 1.386 . S
C830 C825 1.490 . S
C830 C832 1.395 . S
C830 C833 1.403 . S
H831 C837 0.930 . S
C832 H818 0.930 . S
C832 C830 1.395 . S
C832 C835 1.403 . S
C833 C830 1.403 . S
C833 C834 1.524 . S
C833 C837 1.400 . S
C834 H819 0.960 . S
C834 H820 0.960 . S
C834 H821 0.960 . S
C834 C833 1.524 . S
C835 C832 1.403 . S
C835 C836 1.392 . S
C835 C839 1.495 . S
C836 C835 1.392 . S
C836 C837 1.385 . S
C836 C838 1.478 . S
C837 H831 0.930 . S
C837 C833 1.400 . S
C837 C836 1.385 . S
C838 C836 1.478 . S
C838 C840 1.381 . S
C838 C844 1.383 . S
C839 C835 1.495 . S
C839 H845 0.959 . S
C839 H846 0.961 . S
C839 H847 0.960 . S
C840 C838 1.381 . S
C840 C841 1.394 . S
C840 H848 0.930 . S
C841 C840 1.394 . S
C841 C842 1.383 . S
C841 H849 0.929 . S
C842 C841 1.383 . S
C842 C843 1.377 . S
C843 H827 0.930 . S
C843 C842 1.377 . S
C843 C844 1.379 . S
C844 H828 0.931 . S
C844 C838 1.383 . S
C844 C843 1.379 . S
H845 C839 0.959 . S
H846 C839 0.961 . S
H847 C839 0.960 . S
H848 C840 0.930 . S
H849 C841 0.929 . S
H850 C858 0.929 . S
H851 C860 0.930 . S
H852 C862 0.930 . S
H853 C865 0.929 . S
H854 C868 0.930 . S
H855 C870 0.960 . S
H856 C870 0.960 . S
H857 C870 0.960 . S
C858 H850 0.929 . S
C858 C859 1.377 . S
C858 C860 1.384 . S
C859 C858 1.377 . S
C859 C865 1.390 . S
C860 H851 0.930 . S
C860 C858 1.384 . S
C860 C861 1.372 . S
C861 C860 1.372 . S
C861 C862 1.400 . S
C861 C866 1.490 . S
C862 H852 0.930 . S
C862 C861 1.400 . S
C862 C865 1.386 . S
H863 C879 0.930 . S
H864 C880 0.931 . S
C865 H853 0.929 . S
C865 C859 1.390 . S
C865 C862 1.386 . S
C866 C861 1.490 . S
C866 C868 1.395 . S
C866 C869 1.403 . S
H867 C873 0.930 . S
C868 H854 0.930 . S
C868 C866 1.395 . S
C868 C871 1.403 . S
C869 C866 1.403 . S
C869 C870 1.524 . S
C869 C873 1.400 . S
C870 H855 0.960 . S
C870 H856 0.960 . S
C870 H857 0.960 . S
C870 C869 1.524 . S
C871 C868 1.403 . S
C871 C872 1.392 . S
C871 C875 1.495 . S
C872 C871 1.392 . S
C872 C873 1.385 . S
C872 C874 1.478 . S
C873 H867 0.930 . S
C873 C869 1.400 . S
C873 C872 1.385 . S
C874 C872 1.478 . S
C874 C876 1.381 . S
C874 C880 1.383 . S
C875 C871 1.495 . S
C875 H881 0.959 . S
C875 H882 0.961 . S
C875 H883 0.960 . S
C876 C874 1.381 . S
C876 C877 1.394 . S
C876 H884 0.930 . S
C877 C876 1.394 . S
C877 C878 1.383 . S
C877 H885 0.929 . S
C878 C877 1.383 . S
C878 C879 1.377 . S
C879 H863 0.930 . S
C879 C878 1.377 . S
C879 C880 1.379 . S
C880 H864 0.931 . S
C880 C874 1.383 . S
C880 C879 1.379 . S
H881 C875 0.959 . S
H882 C875 0.961 . S
H883 C875 0.960 . S
H884 C876 0.930 . S
H885 C877 0.929 . S
H886 C894 0.929 . S
H887 C896 0.930 . S
H888 C898 0.930 . S
H889 C901 0.929 . S
H890 C904 0.930 . S
H891 C906 0.960 . S
H892 C906 0.960 . S
H893 C906 0.960 . S
C894 H886 0.929 . S
C894 C895 1.377 . S
C894 C896 1.384 . S
C895 C894 1.377 . S
C895 C901 1.390 . S
C896 H887 0.930 . S
C896 C894 1.384 . S
C896 C897 1.372 . S
C897 C896 1.372 . S
C897 C898 1.400 . S
C897 C902 1.490 . S
C898 H888 0.930 . S
C898 C897 1.400 . S
C898 C901 1.386 . S
H899 C915 0.930 . S
H900 C916 0.931 . S
C901 H889 0.929 . S
C901 C895 1.390 . S
C901 C898 1.386 . S
C902 C897 1.490 . S
C902 C904 1.395 . S
C902 C905 1.403 . S
H903 C909 0.930 . S
C904 H890 0.930 . S
C904 C902 1.395 . S
C904 C907 1.403 . S
C905 C902 1.403 . S
C905 C906 1.524 . S
C905 C909 1.400 . S
C906 H891 0.960 . S
C906 H892 0.960 . S
C906 H893 0.960 . S
C906 C905 1.524 . S
C907 C904 1.403 . S
C907 C908 1.392 . S
C907 C911 1.495 . S
C908 C907 1.392 . S
C908 C909 1.385 . S
C908 C910 1.478 . S
C909 H903 0.930 . S
C909 C905 1.400 . S
C909 C908 1.385 . S
C910 C908 1.478 . S
C910 C912 1.381 . S
C910 C916 1.383 . S
C911 C907 1.495 . S
C911 H917 0.959 . S
C911 H918 0.961 . S
C911 H919 0.960 . S
C912 C910 1.381 . S
C912 C913 1.394 . S
C912 H920 0.930 . S
C913 C912 1.394 . S
C913 C914 1.383 . S
C913 H921 0.929 . S
C914 C913 1.383 . S
C914 C915 1.377 . S
C915 H899 0.930 . S
C915 C914 1.377 . S
C915 C916 1.379 . S
C916 H900 0.931 . S
C916 C910 1.383 . S
C916 C915 1.379 . S
H917 C911 0.959 . S
H918 C911 0.961 . S
H919 C911 0.960 . S
H920 C912 0.930 . S
H921 C913 0.929 . S
H922 C930 0.929 . S
H923 C932 0.930 . S
H924 C934 0.930 . S
H925 C937 0.929 . S
H926 C940 0.930 . S
H927 C942 0.960 . S
H928 C942 0.960 . S
H929 C942 0.960 . S
C930 H922 0.929 . S
C930 C931 1.377 . S
C930 C932 1.384 . S
C931 C930 1.377 . S
C931 C937 1.390 . S
C932 H923 0.930 . S
C932 C930 1.384 . S
C932 C933 1.372 . S
C933 C932 1.372 . S
C933 C934 1.400 . S
C933 C938 1.490 . S
C934 H924 0.930 . S
C934 C933 1.400 . S
C934 C937 1.386 . S
H935 C951 0.930 . S
H936 C952 0.931 . S
C937 H925 0.929 . S
C937 C931 1.390 . S
C937 C934 1.386 . S
C938 C933 1.490 . S
C938 C940 1.395 . S
C938 C941 1.403 . S
H939 C945 0.930 . S
C940 H926 0.930 . S
C940 C938 1.395 . S
C940 C943 1.403 . S
C941 C938 1.403 . S
C941 C942 1.524 . S
C941 C945 1.400 . S
C942 H927 0.960 . S
C942 H928 0.960 . S
C942 H929 0.960 . S
C942 C941 1.524 . S
C943 C940 1.403 . S
C943 C944 1.392 . S
C943 C947 1.495 . S
C944 C943 1.392 . S
C944 C945 1.385 . S
C944 C946 1.478 . S
C945 H939 0.930 . S
C945 C941 1.400 . S
C945 C944 1.385 . S
C946 C944 1.478 . S
C946 C948 1.381 . S
C946 C952 1.383 . S
C947 C943 1.495 . S
C947 H953 0.959 . S
C947 H954 0.961 . S
C947 H955 0.960 . S
C948 C946 1.381 . S
C948 C949 1.394 . S
C948 H956 0.930 . S
C949 C948 1.394 . S
C949 C950 1.383 . S
C949 H957 0.929 . S
C950 C949 1.383 . S
C950 C951 1.377 . S
C951 H935 0.930 . S
C951 C950 1.377 . S
C951 C952 1.379 . S
C952 H936 0.931 . S
C952 C946 1.383 . S
C952 C951 1.379 . S
H953 C947 0.959 . S
H954 C947 0.961 . S
H955 C947 0.960 . S
H956 C948 0.930 . S
H957 C949 0.929 . S
H958 C966 0.929 . S
H959 C968 0.930 . S
H960 C970 0.930 . S
H961 C973 0.929 . S
H962 C976 0.930 . S
H963 C978 0.960 . S
H964 C978 0.960 . S
H965 C978 0.960 . S
C966 H958 0.929 . S
C966 C967 1.377 . S
C966 C968 1.384 . S
C967 C966 1.377 . S
C967 C973 1.390 . S
C968 H959 0.930 . S
C968 C966 1.384 . S
C968 C969 1.372 . S
C969 C968 1.372 . S
C969 C970 1.400 . S
C969 C974 1.490 . S
C970 H960 0.930 . S
C970 C969 1.400 . S
C970 C973 1.386 . S
H971 C987 0.930 . S
H972 C988 0.931 . S
C973 H961 0.929 . S
C973 C967 1.390 . S
C973 C970 1.386 . S
C974 C969 1.490 . S
C974 C976 1.395 . S
C974 C977 1.403 . S
H975 C981 0.930 . S
C976 H962 0.930 . S
C976 C974 1.395 . S
C976 C979 1.403 . S
C977 C974 1.403 . S
C977 C978 1.524 . S
C977 C981 1.400 . S
C978 H963 0.960 . S
C978 H964 0.960 . S
C978 H965 0.960 . S
C978 C977 1.524 . S
C979 C976 1.403 . S
C979 C980 1.392 . S
C979 C983 1.495 . S
C980 C979 1.392 . S
C980 C981 1.385 . S
C980 C982 1.478 . S
C981 H975 0.930 . S
C981 C977 1.400 . S
C981 C980 1.385 . S
C982 C980 1.478 . S
C982 C984 1.381 . S
C982 C988 1.383 . S
C983 C979 1.495 . S
C983 H989 0.959 . S
C983 H990 0.961 . S
C983 H991 0.960 . S
C984 C982 1.381 . S
C984 C985 1.394 . S
C984 H992 0.930 . S
C985 C984 1.394 . S
C985 C986 1.383 . S
C985 H993 0.929 . S
C986 C985 1.383 . S
C986 C987 1.377 . S
C987 H971 0.930 . S
C987 C986 1.377 . S
C987 C988 1.379 . S
C988 H972 0.931 . S
C988 C982 1.383 . S
C988 C987 1.379 . S
H989 C983 0.959 . S
H990 C983 0.961 . S
H991 C983 0.960 . S
H992 C984 0.930 . S
H993 C985 0.929 . S
H994 C1002 0.929 . S
H995 C1004 0.930 . S
H996 C1006 0.930 . S
H997 C1009 0.929 . S
H998 C1012 0.930 . S
H999 C1014 0.960 . S
H1000 C1014 0.960 . S
H1001 C1014 0.960 . S
C1002 H994 0.929 . S
C1002 C1003 1.377 . S
C1002 C1004 1.384 . S
C1003 C1002 1.377 . S
C1003 C1009 1.390 . S
C1004 H995 0.930 . S
C1004 C1002 1.384 . S
C1004 C1005 1.372 . S
C1005 C1004 1.372 . S
C1005 C1006 1.400 . S
C1005 C1010 1.490 . S
C1006 H996 0.930 . S
C1006 C1005 1.400 . S
C1006 C1009 1.386 . S
H1007 C1023 0.930 . S
H1008 C1024 0.931 . S
C1009 H997 0.929 . S
C1009 C1003 1.390 . S
C1009 C1006 1.386 . S
C1010 C1005 1.490 . S
C1010 C1012 1.395 . S
C1010 C1013 1.403 . S
H1011 C1017 0.930 . S
C1012 H998 0.930 . S
C1012 C1010 1.395 . S
C1012 C1015 1.403 . S
C1013 C1010 1.403 . S
C1013 C1014 1.524 . S
C1013 C1017 1.400 . S
C1014 H999 0.960 . S
C1014 H1000 0.960 . S
C1014 H1001 0.960 . S
C1014 C1013 1.524 . S
C1015 C1012 1.403 . S
C1015 C1016 1.392 . S
C1015 C1019 1.495 . S
C1016 C1015 1.392 . S
C1016 C1017 1.385 . S
C1016 C1018 1.478 . S
C1017 H1011 0.930 . S
C1017 C1013 1.400 . S
C1017 C1016 1.385 . S
C1018 C1016 1.478 . S
C1018 C1020 1.381 . S
C1018 C1024 1.383 . S
C1019 C1015 1.495 . S
C1019 H1025 0.959 . S
C1019 H1026 0.961 . S
C1019 H1027 0.960 . S
C1020 C1018 1.381 . S
C1020 C1021 1.394 . S
C1020 H1028 0.930 . S
C1021 C1020 1.394 . S
C1021 C1022 1.383 . S
C1021 H1029 0.929 . S
C1022 C1021 1.383 . S
C1022 C1023 1.377 . S
C1023 H1007 0.930 . S
C1023 C1022 1.377 . S
C1023 C1024 1.379 . S
C1024 H1008 0.931 . S
C1024 C1018 1.383 . S
C1024 C1023 1.379 . S
H1025 C1019 0.959 . S
H1026 C1019 0.961 . S
H1027 C1019 0.960 . S
H1028 C1020 0.930 . S
H1029 C1021 0.929 . S
H1030 C1038 0.929 . S
H1031 C1040 0.930 . S
H1032 C1042 0.930 . S
H1033 C1045 0.929 . S
H1034 C1048 0.930 . S
H1035 C1050 0.960 . S
H1036 C1050 0.960 . S
H1037 C1050 0.960 . S
C1038 H1030 0.929 . S
C1038 C1039 1.377 . S
C1038 C1040 1.384 . S
C1039 C1038 1.377 . S
C1039 C1045 1.390 . S
C1040 H1031 0.930 . S
C1040 C1038 1.384 . S
C1040 C1041 1.372 . S
C1041 C1040 1.372 . S
C1041 C1042 1.400 . S
C1041 C1046 1.490 . S
C1042 H1032 0.930 . S
C1042 C1041 1.400 . S
C1042 C1045 1.386 . S
H1043 C1059 0.930 . S
H1044 C1060 0.931 . S
C1045 H1033 0.929 . S
C1045 C1039 1.390 . S
C1045 C1042 1.386 . S
C1046 C1041 1.490 . S
C1046 C1048 1.395 . S
C1046 C1049 1.403 . S
H1047 C1053 0.930 . S
C1048 H1034 0.930 . S
C1048 C1046 1.395 . S
C1048 C1051 1.403 . S
C1049 C1046 1.403 . S
C1049 C1050 1.524 . S
C1049 C1053 1.400 . S
C1050 H1035 0.960 . S
C1050 H1036 0.960 . S
C1050 H1037 0.960 . S
C1050 C1049 1.524 . S
C1051 C1048 1.403 . S
C1051 C1052 1.392 . S
C1051 C1055 1.495 . S
C1052 C1051 1.392 . S
C1052 C1053 1.385 . S
C1052 C1054 1.478 . S
C1053 H1047 0.930 . S
C1053 C1049 1.400 . S
C1053 C1052 1.385 . S
C1054 C1052 1.478 . S
C1054 C1056 1.381 . S
C1054 C1060 1.383 . S
C1055 C1051 1.495 . S
C1055 H1061 0.959 . S
C1055 H1062 0.961 . S
C1055 H1063 0.960 . S
C1056 C1054 1.381 . S
C1056 C1057 1.394 . S
C1056 H1064 0.930 . S
C1057 C1056 1.394 . S
C1057 C1058 1.383 . S
C1057 H1065 0.929 . S
C1058 C1057 1.383 . S
C1058 C1059 1.377 . S
C1059 H1043 0.930 . S
C1059 C1058 1.377 . S
C1059 C1060 1.379 . S
C1060 H1044 0.931 . S
C1060 C1054 1.383 . S
C1060 C1059 1.379 . S
H1061 C1055 0.959 . S
H1062 C1055 0.961 . S
H1063 C1055 0.960 . S
H1064 C1056 0.930 . S
H1065 C1057 0.929 . S
H1066 C1074 0.929 . S
H1067 C1076 0.930 . S
H1068 C1078 0.930 . S
H1069 C1081 0.929 . S
H1070 C1084 0.930 . S
H1071 C1086 0.960 . S
H1072 C1086 0.960 . S
H1073 C1086 0.960 . S
C1074 H1066 0.929 . S
C1074 C1075 1.377 . S
C1074 C1076 1.384 . S
C1075 C1074 1.377 . S
C1075 C1081 1.390 . S
C1076 H1067 0.930 . S
C1076 C1074 1.384 . S
C1076 C1077 1.372 . S
C1077 C1076 1.372 . S
C1077 C1078 1.400 . S
C1077 C1082 1.490 . S
C1078 H1068 0.930 . S
C1078 C1077 1.400 . S
C1078 C1081 1.386 . S
H1079 C1095 0.930 . S
H1080 C1096 0.931 . S
C1081 H1069 0.929 . S
C1081 C1075 1.390 . S
C1081 C1078 1.386 . S
C1082 C1077 1.490 . S
C1082 C1084 1.395 . S
C1082 C1085 1.403 . S
H1083 C1089 0.930 . S
C1084 H1070 0.930 . S
C1084 C1082 1.395 . S
C1084 C1087 1.403 . S
C1085 C1082 1.403 . S
C1085 C1086 1.524 . S
C1085 C1089 1.400 . S
C1086 H1071 0.960 . S
C1086 H1072 0.960 . S
C1086 H1073 0.960 . S
C1086 C1085 1.524 . S
C1087 C1084 1.403 . S
C1087 C1088 1.392 . S
C1087 C1091 1.495 . S
C1088 C1087 1.392 . S
C1088 C1089 1.385 . S
C1088 C1090 1.478 . S
C1089 H1083 0.930 . S
C1089 C1085 1.400 . S
C1089 C1088 1.385 . S
C1090 C1088 1.478 . S
C1090 C1092 1.381 . S
C1090 C1096 1.383 . S
C1091 C1087 1.495 . S
C1091 H1097 0.959 . S
C1091 H1098 0.961 . S
C1091 H1099 0.960 . S
C1092 C1090 1.381 . S
C1092 C1093 1.394 . S
C1092 H1100 0.930 . S
C1093 C1092 1.394 . S
C1093 C1094 1.383 . S
C1093 H1101 0.929 . S
C1094 C1093 1.383 . S
C1094 C1095 1.377 . S
C1095 H1079 0.930 . S
C1095 C1094 1.377 . S
C1095 C1096 1.379 . S
C1096 H1080 0.931 . S
C1096 C1090 1.383 . S
C1096 C1095 1.379 . S
H1097 C1091 0.959 . S
H1098 C1091 0.961 . S
H1099 C1091 0.960 . S
H1100 C1092 0.930 . S
H1101 C1093 0.929 . S
H1102 C1110 0.929 . S
H1103 C1112 0.930 . S
H1104 C1114 0.930 . S
H1105 C1117 0.929 . S
H1106 C1120 0.930 . S
H1107 C1122 0.960 . S
H1108 C1122 0.960 . S
H1109 C1122 0.960 . S
C1110 H1102 0.929 . S
C1110 C1111 1.377 . S
C1110 C1112 1.384 . S
C1111 C1110 1.377 . S
C1111 C1117 1.390 . S
C1112 H1103 0.930 . S
C1112 C1110 1.384 . S
C1112 C1113 1.372 . S
C1113 C1112 1.372 . S
C1113 C1114 1.400 . S
C1113 C1118 1.490 . S
C1114 H1104 0.930 . S
C1114 C1113 1.400 . S
C1114 C1117 1.386 . S
H1115 C1131 0.930 . S
H1116 C1132 0.931 . S
C1117 H1105 0.929 . S
C1117 C1111 1.390 . S
C1117 C1114 1.386 . S
C1118 C1113 1.490 . S
C1118 C1120 1.395 . S
C1118 C1121 1.403 . S
H1119 C1125 0.930 . S
C1120 H1106 0.930 . S
C1120 C1118 1.395 . S
C1120 C1123 1.403 . S
C1121 C1118 1.403 . S
C1121 C1122 1.524 . S
C1121 C1125 1.400 . S
C1122 H1107 0.960 . S
C1122 H1108 0.960 . S
C1122 H1109 0.960 . S
C1122 C1121 1.524 . S
C1123 C1120 1.403 . S
C1123 C1124 1.392 . S
C1123 C1127 1.495 . S
C1124 C1123 1.392 . S
C1124 C1125 1.385 . S
C1124 C1126 1.478 . S
C1125 H1119 0.930 . S
C1125 C1121 1.400 . S
C1125 C1124 1.385 . S
C1126 C1124 1.478 . S
C1126 C1128 1.381 . S
C1126 C1132 1.383 . S
C1127 C1123 1.495 . S
C1127 H1133 0.959 . S
C1127 H1134 0.961 . S
C1127 H1135 0.960 . S
C1128 C1126 1.381 . S
C1128 C1129 1.394 . S
C1128 H1136 0.930 . S
C1129 C1128 1.394 . S
C1129 C1130 1.383 . S
C1129 H1137 0.929 . S
C1130 C1129 1.383 . S
C1130 C1131 1.377 . S
C1131 H1115 0.930 . S
C1131 C1130 1.377 . S
C1131 C1132 1.379 . S
C1132 H1116 0.931 . S
C1132 C1126 1.383 . S
C1132 C1131 1.379 . S
H1133 C1127 0.959 . S
H1134 C1127 0.961 . S
H1135 C1127 0.960 . S
H1136 C1128 0.930 . S
H1137 C1129 0.929 . S
H1138 C1146 0.929 . S
H1139 C1148 0.930 . S
H1140 C1150 0.930 . S
H1141 C1153 0.929 . S
H1142 C1156 0.930 . S
H1143 C1158 0.960 . S
H1144 C1158 0.960 . S
H1145 C1158 0.960 . S
C1146 H1138 0.929 . S
C1146 C1147 1.377 . S
C1146 C1148 1.384 . S
C1147 C1146 1.377 . S
C1147 C1153 1.390 . S
C1148 H1139 0.930 . S
C1148 C1146 1.384 . S
C1148 C1149 1.372 . S
C1149 C1148 1.372 . S
C1149 C1150 1.400 . S
C1149 C1154 1.490 . S
C1150 H1140 0.930 . S
C1150 C1149 1.400 . S
C1150 C1153 1.386 . S
H1151 C1167 0.930 . S
H1152 C1168 0.931 . S
C1153 H1141 0.929 . S
C1153 C1147 1.390 . S
C1153 C1150 1.386 . S
C1154 C1149 1.490 . S
C1154 C1156 1.395 . S
C1154 C1157 1.403 . S
H1155 C1161 0.930 . S
C1156 H1142 0.930 . S
C1156 C1154 1.395 . S
C1156 C1159 1.403 . S
C1157 C1154 1.403 . S
C1157 C1158 1.524 . S
C1157 C1161 1.400 . S
C1158 H1143 0.960 . S
C1158 H1144 0.960 . S
C1158 H1145 0.960 . S
C1158 C1157 1.524 . S
C1159 C1156 1.403 . S
C1159 C1160 1.392 . S
C1159 C1163 1.495 . S
C1160 C1159 1.392 . S
C1160 C1161 1.385 . S
C1160 C1162 1.478 . S
C1161 H1155 0.930 . S
C1161 C1157 1.400 . S
C1161 C1160 1.385 . S
C1162 C1160 1.478 . S
C1162 C1164 1.381 . S
C1162 C1168 1.383 . S
C1163 C1159 1.495 . S
C1163 H1169 0.959 . S
C1163 H1170 0.961 . S
C1163 H1171 0.960 . S
C1164 C1162 1.381 . S
C1164 C1165 1.394 . S
C1164 H1172 0.930 . S
C1165 C1164 1.394 . S
C1165 C1166 1.383 . S
C1165 H1173 0.929 . S
C1166 C1165 1.383 . S
C1166 C1167 1.377 . S
C1167 H1151 0.930 . S
C1167 C1166 1.377 . S
C1167 C1168 1.379 . S
C1168 H1152 0.931 . S
C1168 C1162 1.383 . S
C1168 C1167 1.379 . S
H1169 C1163 0.959 . S
H1170 C1163 0.961 . S
H1171 C1163 0.960 . S
H1172 C1164 0.930 . S
H1173 C1165 0.929 . S
H1174 C1182 0.929 . S
H1175 C1184 0.930 . S
H1176 C1186 0.930 . S
H1177 C1189 0.929 . S
H1178 C1192 0.930 . S
H1179 C1194 0.960 . S
H1180 C1194 0.960 . S
H1181 C1194 0.960 . S
C1182 H1174 0.929 . S
C1182 C1183 1.377 . S
C1182 C1184 1.384 . S
C1183 C1182 1.377 . S
C1183 C1189 1.390 . S
C1184 H1175 0.930 . S
C1184 C1182 1.384 . S
C1184 C1185 1.372 . S
C1185 C1184 1.372 . S
C1185 C1186 1.400 . S
C1185 C1190 1.490 . S
C1186 H1176 0.930 . S
C1186 C1185 1.400 . S
C1186 C1189 1.386 . S
H1187 C1203 0.930 . S
H1188 C1204 0.931 . S
C1189 H1177 0.929 . S
C1189 C1183 1.390 . S
C1189 C1186 1.386 . S
C1190 C1185 1.490 . S
C1190 C1192 1.395 . S
C1190 C1193 1.403 . S
H1191 C1197 0.930 . S
C1192 H1178 0.930 . S
C1192 C1190 1.395 . S
C1192 C1195 1.403 . S
C1193 C1190 1.403 . S
C1193 C1194 1.524 . S
C1193 C1197 1.400 . S
C1194 H1179 0.960 . S
C1194 H1180 0.960 . S
C1194 H1181 0.960 . S
C1194 C1193 1.524 . S
C1195 C1192 1.403 . S
C1195 C1196 1.392 . S
C1195 C1199 1.495 . S
C1196 C1195 1.392 . S
C1196 C1197 1.385 . S
C1196 C1198 1.478 . S
C1197 H1191 0.930 . S
C1197 C1193 1.400 . S
C1197 C1196 1.385 . S
C1198 C1196 1.478 . S
C1198 C1200 1.381 . S
C1198 C1204 1.383 . S
C1199 C1195 1.495 . S
C1199 H1205 0.959 . S
C1199 H1206 0.961 . S
C1199 H1207 0.960 . S
C1200 C1198 1.381 . S
C1200 C1201 1.394 . S
C1200 H1208 0.930 . S
C1201 C1200 1.394 . S
C1201 C1202 1.383 . S
C1201 H1209 0.929 . S
C1202 C1201 1.383 . S
C1202 C1203 1.377 . S
C1203 H1187 0.930 . S
C1203 C1202 1.377 . S
C1203 C1204 1.379 . S
C1204 H1188 0.931 . S
C1204 C1198 1.383 . S
C1204 C1203 1.379 . S
H1205 C1199 0.959 . S
H1206 C1199 0.961 . S
H1207 C1199 0.960 . S
H1208 C1200 0.930 . S
H1209 C1201 0.929 . S
H1210 C1218 0.929 . S
H1211 C1220 0.930 . S
H1212 C1222 0.930 . S
H1213 C1225 0.929 . S
H1214 C1228 0.930 . S
H1215 C1230 0.960 . S
H1216 C1230 0.960 . S
H1217 C1230 0.960 . S
C1218 H1210 0.929 . S
C1218 C1219 1.377 . S
C1218 C1220 1.384 . S
C1219 C1218 1.377 . S
C1219 C1225 1.390 . S
C1220 H1211 0.930 . S
C1220 C1218 1.384 . S
C1220 C1221 1.372 . S
C1221 C1220 1.372 . S
C1221 C1222 1.400 . S
C1221 C1226 1.490 . S
C1222 H1212 0.930 . S
C1222 C1221 1.400 . S
C1222 C1225 1.386 . S
H1223 C1239 0.930 . S
H1224 C1240 0.931 . S
C1225 H1213 0.929 . S
C1225 C1219 1.390 . S
C1225 C1222 1.386 . S
C1226 C1221 1.490 . S
C1226 C1228 1.395 . S
C1226 C1229 1.403 . S
H1227 C1233 0.930 . S
C1228 H1214 0.930 . S
C1228 C1226 1.395 . S
C1228 C1231 1.403 . S
C1229 C1226 1.403 . S
C1229 C1230 1.524 . S
C1229 C1233 1.400 . S
C1230 H1215 0.960 . S
C1230 H1216 0.960 . S
C1230 H1217 0.960 . S
C1230 C1229 1.524 . S
C1231 C1228 1.403 . S
C1231 C1232 1.392 . S
C1231 C1235 1.495 . S
C1232 C1231 1.392 . S
C1232 C1233 1.385 . S
C1232 C1234 1.478 . S
C1233 H1227 0.930 . S
C1233 C1229 1.400 . S
C1233 C1232 1.385 . S
C1234 C1232 1.478 . S
C1234 C1236 1.381 . S
C1234 C1240 1.383 . S
C1235 C1231 1.495 . S
C1235 H1241 0.959 . S
C1235 H1242 0.961 . S
C1235 H1243 0.960 . S
C1236 C1234 1.381 . S
C1236 C1237 1.394 . S
C1236 H1244 0.930 . S
C1237 C1236 1.394 . S
C1237 C1238 1.383 . S
C1237 H1245 0.929 . S
C1238 C1237 1.383 . S
C1238 C1239 1.377 . S
C1239 H1223 0.930 . S
C1239 C1238 1.377 . S
C1239 C1240 1.379 . S
C1240 H1224 0.931 . S
C1240 C1234 1.383 . S
C1240 C1239 1.379 . S
H1241 C1235 0.959 . S
H1242 C1235 0.961 . S
H1243 C1235 0.960 . S
H1244 C1236 0.930 . S
H1245 C1237 0.929 . S
H1246 C1254 0.929 . S
H1247 C1256 0.930 . S
H1248 C1258 0.930 . S
H1249 C1261 0.929 . S
H1250 C1264 0.930 . S
H1251 C1266 0.960 . S
H1252 C1266 0.960 . S
H1253 C1266 0.960 . S
C1254 H1246 0.929 . S
C1254 C1255 1.377 . S
C1254 C1256 1.384 . S
C1255 C1254 1.377 . S
C1255 C1261 1.390 . S
C1256 H1247 0.930 . S
C1256 C1254 1.384 . S
C1256 C1257 1.372 . S
C1257 C1256 1.372 . S
C1257 C1258 1.400 . S
C1257 C1262 1.490 . S
C1258 H1248 0.930 . S
C1258 C1257 1.400 . S
C1258 C1261 1.386 . S
H1259 C1275 0.930 . S
H1260 C1276 0.931 . S
C1261 H1249 0.929 . S
C1261 C1255 1.390 . S
C1261 C1258 1.386 . S
C1262 C1257 1.490 . S
C1262 C1264 1.395 . S
C1262 C1265 1.403 . S
H1263 C1269 0.930 . S
C1264 H1250 0.930 . S
C1264 C1262 1.395 . S
C1264 C1267 1.403 . S
C1265 C1262 1.403 . S
C1265 C1266 1.524 . S
C1265 C1269 1.400 . S
C1266 H1251 0.960 . S
C1266 H1252 0.960 . S
C1266 H1253 0.960 . S
C1266 C1265 1.524 . S
C1267 C1264 1.403 . S
C1267 C1268 1.392 . S
C1267 C1271 1.495 . S
C1268 C1267 1.392 . S
C1268 C1269 1.385 . S
C1268 C1270 1.478 . S
C1269 H1263 0.930 . S
C1269 C1265 1.400 . S
C1269 C1268 1.385 . S
C1270 C1268 1.478 . S
C1270 C1272 1.381 . S
C1270 C1276 1.383 . S
C1271 C1267 1.495 . S
C1271 H1277 0.959 . S
C1271 H1278 0.961 . S
C1271 H1279 0.960 . S
C1272 C1270 1.381 . S
C1272 C1273 1.394 . S
C1272 H1280 0.930 . S
C1273 C1272 1.394 . S
C1273 C1274 1.383 . S
C1273 H1281 0.929 . S
C1274 C1273 1.383 . S
C1274 C1275 1.377 . S
C1275 H1259 0.930 . S
C1275 C1274 1.377 . S
C1275 C1276 1.379 . S
C1276 H1260 0.931 . S
C1276 C1270 1.383 . S
C1276 C1275 1.379 . S
H1277 C1271 0.959 . S
H1278 C1271 0.961 . S
H1279 C1271 0.960 . S
H1280 C1272 0.930 . S
H1281 C1273 0.929 . S
H1282 C1290 0.929 . S
H1283 C1292 0.930 . S
H1284 C1294 0.930 . S
H1285 C1297 0.929 . S
H1286 C1300 0.930 . S
H1287 C1302 0.960 . S
H1288 C1302 0.960 . S
H1289 C1302 0.960 . S
C1290 H1282 0.929 . S
C1290 C1291 1.377 . S
C1290 C1292 1.384 . S
C1291 C1290 1.377 . S
C1291 C1297 1.390 . S
C1292 H1283 0.930 . S
C1292 C1290 1.384 . S
C1292 C1293 1.372 . S
C1293 C1292 1.372 . S
C1293 C1294 1.400 . S
C1293 C1298 1.490 . S
C1294 H1284 0.930 . S
C1294 C1293 1.400 . S
C1294 C1297 1.386 . S
H1295 C1311 0.930 . S
H1296 C1312 0.931 . S
C1297 H1285 0.929 . S
C1297 C1291 1.390 . S
C1297 C1294 1.386 . S
C1298 C1293 1.490 . S
C1298 C1300 1.395 . S
C1298 C1301 1.403 . S
H1299 C1305 0.930 . S
C1300 H1286 0.930 . S
C1300 C1298 1.395 . S
C1300 C1303 1.403 . S
C1301 C1298 1.403 . S
C1301 C1302 1.524 . S
C1301 C1305 1.400 . S
C1302 H1287 0.960 . S
C1302 H1288 0.960 . S
C1302 H1289 0.960 . S
C1302 C1301 1.524 . S
C1303 C1300 1.403 . S
C1303 C1304 1.392 . S
C1303 C1307 1.495 . S
C1304 C1303 1.392 . S
C1304 C1305 1.385 . S
C1304 C1306 1.478 . S
C1305 H1299 0.930 . S
C1305 C1301 1.400 . S
C1305 C1304 1.385 . S
C1306 C1304 1.478 . S
C1306 C1308 1.381 . S
C1306 C1312 1.383 . S
C1307 C1303 1.495 . S
C1307 H1313 0.959 . S
C1307 H1314 0.961 . S
C1307 H1315 0.960 . S
C1308 C1306 1.381 . S
C1308 C1309 1.394 . S
C1308 H1316 0.930 . S
C1309 C1308 1.394 . S
C1309 C1310 1.383 . S
C1309 H1317 0.929 . S
C1310 C1309 1.383 . S
C1310 C1311 1.377 . S
C1311 H1295 0.930 . S
C1311 C1310 1.377 . S
C1311 C1312 1.379 . S
C1312 H1296 0.931 . S
C1312 C1306 1.383 . S
C1312 C1311 1.379 . S
H1313 C1307 0.959 . S
H1314 C1307 0.961 . S
H1315 C1307 0.960 . S
H1316 C1308 0.930 . S
H1317 C1309 0.929 . S
H1318 C1326 0.929 . S
H1319 C1328 0.930 . S
H1320 C1330 0.930 . S
H1321 C1333 0.929 . S
H1322 C1336 0.930 . S
H1323 C1338 0.960 . S
H1324 C1338 0.960 . S
H1325 C1338 0.960 . S
C1326 H1318 0.929 . S
C1326 C1327 1.377 . S
C1326 C1328 1.384 . S
C1327 C1326 1.377 . S
C1327 C1333 1.390 . S
C1328 H1319 0.930 . S
C1328 C1326 1.384 . S
C1328 C1329 1.372 . S
C1329 C1328 1.372 . S
C1329 C1330 1.400 . S
C1329 C1334 1.490 . S
C1330 H1320 0.930 . S
C1330 C1329 1.400 . S
C1330 C1333 1.386 . S
H1331 C1347 0.930 . S
H1332 C1348 0.931 . S
C1333 H1321 0.929 . S
C1333 C1327 1.390 . S
C1333 C1330 1.386 . S
C1334 C1329 1.490 . S
C1334 C1336 1.395 . S
C1334 C1337 1.403 . S
H1335 C1341 0.930 . S
C1336 H1322 0.930 . S
C1336 C1334 1.395 . S
C1336 C1339 1.403 . S
C1337 C1334 1.403 . S
C1337 C1338 1.524 . S
C1337 C1341 1.400 . S
C1338 H1323 0.960 . S
C1338 H1324 0.960 . S
C1338 H1325 0.960 . S
C1338 C1337 1.524 . S
C1339 C1336 1.403 . S
C1339 C1340 1.392 . S
C1339 C1343 1.495 . S
C1340 C1339 1.392 . S
C1340 C1341 1.385 . S
C1340 C1342 1.478 . S
C1341 H1335 0.930 . S
C1341 C1337 1.400 . S
C1341 C1340 1.385 . S
C1342 C1340 1.478 . S
C1342 C1344 1.381 . S
C1342 C1348 1.383 . S
C1343 C1339 1.495 . S
C1343 H1349 0.959 . S
C1343 H1350 0.961 . S
C1343 H1351 0.960 . S
C1344 C1342 1.381 . S
C1344 C1345 1.394 . S
C1344 H1352 0.930 . S
C1345 C1344 1.394 . S
C1345 C1346 1.383 . S
C1345 H1353 0.929 . S
C1346 C1345 1.383 . S
C1346 C1347 1.377 . S
C1347 H1331 0.930 . S
C1347 C1346 1.377 . S
C1347 C1348 1.379 . S
C1348 H1332 0.931 . S
C1348 C1342 1.383 . S
C1348 C1347 1.379 . S
H1349 C1343 0.959 . S
H1350 C1343 0.961 . S
H1351 C1343 0.960 . S
H1352 C1344 0.930 . S
H1353 C1345 0.929 . S
H1354 C1362 0.929 . S
H1355 C1364 0.930 . S
H1356 C1366 0.930 . S
H1357 C1369 0.929 . S
H1358 C1372 0.930 . S
H1359 C1374 0.960 . S
H1360 C1374 0.960 . S
H1361 C1374 0.960 . S
C1362 H1354 0.929 . S
C1362 C1363 1.377 . S
C1362 C1364 1.384 . S
C1363 C1362 1.377 . S
C1363 C1369 1.390 . S
C1364 H1355 0.930 . S
C1364 C1362 1.384 . S
C1364 C1365 1.372 . S
C1365 C1364 1.372 . S
C1365 C1366 1.400 . S
C1365 C1370 1.490 . S
C1366 H1356 0.930 . S
C1366 C1365 1.400 . S
C1366 C1369 1.386 . S
H1367 C1383 0.930 . S
H1368 C1384 0.931 . S
C1369 H1357 0.929 . S
C1369 C1363 1.390 . S
C1369 C1366 1.386 . S
C1370 C1365 1.490 . S
C1370 C1372 1.395 . S
C1370 C1373 1.403 . S
H1371 C1377 0.930 . S
C1372 H1358 0.930 . S
C1372 C1370 1.395 . S
C1372 C1375 1.403 . S
C1373 C1370 1.403 . S
C1373 C1374 1.524 . S
C1373 C1377 1.400 . S
C1374 H1359 0.960 . S
C1374 H1360 0.960 . S
C1374 H1361 0.960 . S
C1374 C1373 1.524 . S
C1375 C1372 1.403 . S
C1375 C1376 1.392 . S
C1375 C1379 1.495 . S
C1376 C1375 1.392 . S
C1376 C1377 1.385 . S
C1376 C1378 1.478 . S
C1377 H1371 0.930 . S
C1377 C1373 1.400 . S
C1377 C1376 1.385 . S
C1378 C1376 1.478 . S
C1378 C1380 1.381 . S
C1378 C1384 1.383 . S
C1379 C1375 1.495 . S
C1379 H1385 0.959 . S
C1379 H1386 0.961 . S
C1379 H1387 0.960 . S
C1380 C1378 1.381 . S
C1380 C1381 1.394 . S
C1380 H1388 0.930 . S
C1381 C1380 1.394 . S
C1381 C1382 1.383 . S
C1381 H1389 0.929 . S
C1382 C1381 1.383 . S
C1382 C1383 1.377 . S
C1383 H1367 0.930 . S
C1383 C1382 1.377 . S
C1383 C1384 1.379 . S
C1384 H1368 0.931 . S
C1384 C1378 1.383 . S
C1384 C1383 1.379 . S
H1385 C1379 0.959 . S
H1386 C1379 0.961 . S
H1387 C1379 0.960 . S
H1388 C1380 0.930 . S
H1389 C1381 0.929 . S
H1390 C1398 0.929 . S
H1391 C1400 0.930 . S
H1392 C1402 0.930 . S
H1393 C1405 0.929 . S
H1394 C1408 0.930 . S
H1395 C1410 0.960 . S
H1396 C1410 0.960 . S
H1397 C1410 0.960 . S
C1398 H1390 0.929 . S
C1398 C1399 1.377 . S
C1398 C1400 1.384 . S
C1399 C1398 1.377 . S
C1399 C1405 1.390 . S
C1400 H1391 0.930 . S
C1400 C1398 1.384 . S
C1400 C1401 1.372 . S
C1401 C1400 1.372 . S
C1401 C1402 1.400 . S
C1401 C1406 1.490 . S
C1402 H1392 0.930 . S
C1402 C1401 1.400 . S
C1402 C1405 1.386 . S
H1403 C1419 0.930 . S
H1404 C1420 0.931 . S
C1405 H1393 0.929 . S
C1405 C1399 1.390 . S
C1405 C1402 1.386 . S
C1406 C1401 1.490 . S
C1406 C1408 1.395 . S
C1406 C1409 1.403 . S
H1407 C1413 0.930 . S
C1408 H1394 0.930 . S
C1408 C1406 1.395 . S
C1408 C1411 1.403 . S
C1409 C1406 1.403 . S
C1409 C1410 1.524 . S
C1409 C1413 1.400 . S
C1410 H1395 0.960 . S
C1410 H1396 0.960 . S
C1410 H1397 0.960 . S
C1410 C1409 1.524 . S
C1411 C1408 1.403 . S
C1411 C1412 1.392 . S
C1411 C1415 1.495 . S
C1412 C1411 1.392 . S
C1412 C1413 1.385 . S
C1412 C1414 1.478 . S
C1413 H1407 0.930 . S
C1413 C1409 1.400 . S
C1413 C1412 1.385 . S
C1414 C1412 1.478 . S
C1414 C1416 1.381 . S
C1414 C1420 1.383 . S
C1415 C1411 1.495 . S
C1415 H1421 0.959 . S
C1415 H1422 0.961 . S
C1415 H1423 0.960 . S
C1416 C1414 1.381 . S
C1416 C1417 1.394 . S
C1416 H1424 0.930 . S
C1417 C1416 1.394 . S
C1417 C1418 1.383 . S
C1417 H1425 0.929 . S
C1418 C1417 1.383 . S
C1418 C1419 1.377 . S
C1419 H1403 0.930 . S
C1419 C1418 1.377 . S
C1419 C1420 1.379 . S
C1420 H1404 0.931 . S
C1420 C1414 1.383 . S
C1420 C1419 1.379 . S
H1421 C1415 0.959 . S
H1422 C1415 0.961 . S
H1423 C1415 0.960 . S
H1424 C1416 0.930 . S
H1425 C1417 0.929 . S
H1426 C1434 0.929 . S
H1427 C1436 0.930 . S
H1428 C1438 0.930 . S
H1429 C1441 0.929 . S
H1430 C1444 0.930 . S
H1431 C1446 0.960 . S
H1432 C1446 0.960 . S
H1433 C1446 0.960 . S
C1434 H1426 0.929 . S
C1434 C1435 1.377 . S
C1434 C1436 1.384 . S
C1435 C1434 1.377 . S
C1435 C1441 1.390 . S
C1436 H1427 0.930 . S
C1436 C1434 1.384 . S
C1436 C1437 1.372 . S
C1437 C1436 1.372 . S
C1437 C1438 1.400 . S
C1437 C1442 1.490 . S
C1438 H1428 0.930 . S
C1438 C1437 1.400 . S
C1438 C1441 1.386 . S
H1439 C1455 0.930 . S
H1440 C1456 0.931 . S
C1441 H1429 0.929 . S
C1441 C1435 1.390 . S
C1441 C1438 1.386 . S
C1442 C1437 1.490 . S
C1442 C1444 1.395 . S
C1442 C1445 1.403 . S
H1443 C1449 0.930 . S
C1444 H1430 0.930 . S
C1444 C1442 1.395 . S
C1444 C1447 1.403 . S
C1445 C1442 1.403 . S
C1445 C1446 1.524 . S
C1445 C1449 1.400 . S
C1446 H1431 0.960 . S
C1446 H1432 0.960 . S
C1446 H1433 0.960 . S
C1446 C1445 1.524 . S
C1447 C1444 1.403 . S
C1447 C1448 1.392 . S
C1447 C1451 1.495 . S
C1448 C1447 1.392 . S
C1448 C1449 1.385 . S
C1448 C1450 1.478 . S
C1449 H1443 0.930 . S
C1449 C1445 1.400 . S
C1449 C1448 1.385 . S
C1450 C1448 1.478 . S
C1450 C1452 1.381 . S
C1450 C1456 1.383 . S
C1451 C1447 1.495 . S
C1451 H1457 0.959 . S
C1451 H1458 0.961 . S
C1451 H1459 0.960 . S
C1452 C1450 1.381 . S
C1452 C1453 1.394 . S
C1452 H1460 0.930 . S
C1453 C1452 1.394 . S
C1453 C1454 1.383 . S
C1453 H1461 0.929 . S
C1454 C1453 1.383 . S
C1454 C1455 1.377 . S
C1455 H1439 0.930 . S
C1455 C1454 1.377 . S
C1455 C1456 1.379 . S
C1456 H1440 0.931 . S
C1456 C1450 1.383 . S
C1456 C1455 1.379 . S
H1457 C1451 0.959 . S
H1458 C1451 0.961 . S
H1459 C1451 0.960 . S
H1460 C1452 0.930 . S
H1461 C1453 0.929 . S
H1462 C1470 0.929 . S
H1463 C1472 0.930 . S
H1464 C1474 0.930 . S
H1465 C1477 0.929 . S
H1466 C1480 0.930 . S
H1467 C1482 0.960 . S
H1468 C1482 0.960 . S
H1469 C1482 0.960 . S
C1470 H1462 0.929 . S
C1470 C1471 1.377 . S
C1470 C1472 1.384 . S
C1471 C1470 1.377 . S
C1471 C1477 1.390 . S
C1472 H1463 0.930 . S
C1472 C1470 1.384 . S
C1472 C1473 1.372 . S
C1473 C1472 1.372 . S
C1473 C1474 1.400 . S
C1473 C1478 1.490 . S
C1474 H1464 0.930 . S
C1474 C1473 1.400 . S
C1474 C1477 1.386 . S
H1475 C1491 0.930 . S
H1476 C1492 0.931 . S
C1477 H1465 0.929 . S
C1477 C1471 1.390 . S
C1477 C1474 1.386 . S
C1478 C1473 1.490 . S
C1478 C1480 1.395 . S
C1478 C1481 1.403 . S
H1479 C1485 0.930 . S
C1480 H1466 0.930 . S
C1480 C1478 1.395 . S
C1480 C1483 1.403 . S
C1481 C1478 1.403 . S
C1481 C1482 1.524 . S
C1481 C1485 1.400 . S
C1482 H1467 0.960 . S
C1482 H1468 0.960 . S
C1482 H1469 0.960 . S
C1482 C1481 1.524 . S
C1483 C1480 1.403 . S
C1483 C1484 1.392 . S
C1483 C1487 1.495 . S
C1484 C1483 1.392 . S
C1484 C1485 1.385 . S
C1484 C1486 1.478 . S
C1485 H1479 0.930 . S
C1485 C1481 1.400 . S
C1485 C1484 1.385 . S
C1486 C1484 1.478 . S
C1486 C1488 1.381 . S
C1486 C1492 1.383 . S
C1487 C1483 1.495 . S
C1487 H1493 0.959 . S
C1487 H1494 0.961 . S
C1487 H1495 0.960 . S
C1488 C1486 1.381 . S
C1488 C1489 1.394 . S
C1488 H1496 0.930 . S
C1489 C1488 1.394 . S
C1489 C1490 1.383 . S
C1489 H1497 0.929 . S
C1490 C1489 1.383 . S
C1490 C1491 1.377 . S
C1491 H1475 0.930 . S
C1491 C1490 1.377 . S
C1491 C1492 1.379 . S
C1492 H1476 0.931 . S
C1492 C1486 1.383 . S
C1492 C1491 1.379 . S
H1493 C1487 0.959 . S
H1494 C1487 0.961 . S
H1495 C1487 0.960 . S
H1496 C1488 0.930 . S
H1497 C1489 0.929 . S
H1498 C1506 0.929 . S
H1499 C1508 0.930 . S
H1500 C1510 0.930 . S
H1501 C1513 0.929 . S
H1502 C1516 0.930 . S
H1503 C1518 0.960 . S
H1504 C1518 0.960 . S
H1505 C1518 0.960 . S
C1506 H1498 0.929 . S
C1506 C1507 1.377 . S
C1506 C1508 1.384 . S
C1507 C1506 1.377 . S
C1507 C1513 1.390 . S
C1508 H1499 0.930 . S
C1508 C1506 1.384 . S
C1508 C1509 1.372 . S
C1509 C1508 1.372 . S
C1509 C1510 1.400 . S
C1509 C1514 1.490 . S
C1510 H1500 0.930 . S
C1510 C1509 1.400 . S
C1510 C1513 1.386 . S
H1511 C1527 0.930 . S
H1512 C1528 0.931 . S
C1513 H1501 0.929 . S
C1513 C1507 1.390 . S
C1513 C1510 1.386 . S
C1514 C1509 1.490 . S
C1514 C1516 1.395 . S
C1514 C1517 1.403 . S
H1515 C1521 0.930 . S
C1516 H1502 0.930 . S
C1516 C1514 1.395 . S
C1516 C1519 1.403 . S
C1517 C1514 1.403 . S
C1517 C1518 1.524 . S
C1517 C1521 1.400 . S
C1518 H1503 0.960 . S
C1518 H1504 0.960 . S
C1518 H1505 0.960 . S
C1518 C1517 1.524 . S
C1519 C1516 1.403 . S
C1519 C1520 1.392 . S
C1519 C1523 1.495 . S
C1520 C1519 1.392 . S
C1520 C1521 1.385 . S
C1520 C1522 1.478 . S
C1521 H1515 0.930 . S
C1521 C1517 1.400 . S
C1521 C1520 1.385 . S
C1522 C1520 1.478 . S
C1522 C1524 1.381 . S
C1522 C1528 1.383 . S
C1523 C1519 1.495 . S
C1523 H1529 0.959 . S
C1523 H1530 0.961 . S
C1523 H1531 0.960 . S
C1524 C1522 1.381 . S
C1524 C1525 1.394 . S
C1524 H1532 0.930 . S
C1525 C1524 1.394 . S
C1525 C1526 1.383 . S
C1525 H1533 0.929 . S
C1526 C1525 1.383 . S
C1526 C1527 1.377 . S
C1527 H1511 0.930 . S
C1527 C1526 1.377 . S
C1527 C1528 1.379 . S
C1528 H1512 0.931 . S
C1528 C1522 1.383 . S
C1528 C1527 1.379 . S
H1529 C1523 0.959 . S
H1530 C1523 0.961 . S
H1531 C1523 0.960 . S
H1532 C1524 0.930 . S
H1533 C1525 0.929 . S
H1534 C1542 0.929 . S
H1535 C1544 0.930 . S
H1536 C1546 0.930 . S
H1537 C1549 0.929 . S
H1538 C1552 0.930 . S
H1539 C1554 0.960 . S
H1540 C1554 0.960 . S
H1541 C1554 0.960 . S
C1542 H1534 0.929 . S
C1542 C1543 1.377 . S
C1542 C1544 1.384 . S
C1543 C1542 1.377 . S
C1543 C1549 1.390 . S
C1544 H1535 0.930 . S
C1544 C1542 1.384 . S
C1544 C1545 1.372 . S
C1545 C1544 1.372 . S
C1545 C1546 1.400 . S
C1545 C1550 1.490 . S
C1546 H1536 0.930 . S
C1546 C1545 1.400 . S
C1546 C1549 1.386 . S
H1547 C1563 0.930 . S
H1548 C1564 0.931 . S
C1549 H1537 0.929 . S
C1549 C1543 1.390 . S
C1549 C1546 1.386 . S
C1550 C1545 1.490 . S
C1550 C1552 1.395 . S
C1550 C1553 1.403 . S
H1551 C1557 0.930 . S
C1552 H1538 0.930 . S
C1552 C1550 1.395 . S
C1552 C1555 1.403 . S
C1553 C1550 1.403 . S
C1553 C1554 1.524 . S
C1553 C1557 1.400 . S
C1554 H1539 0.960 . S
C1554 H1540 0.960 . S
C1554 H1541 0.960 . S
C1554 C1553 1.524 . S
C1555 C1552 1.403 . S
C1555 C1556 1.392 . S
C1555 C1559 1.495 . S
C1556 C1555 1.392 . S
C1556 C1557 1.385 . S
C1556 C1558 1.478 . S
C1557 H1551 0.930 . S
C1557 C1553 1.400 . S
C1557 C1556 1.385 . S
C1558 C1556 1.478 . S
C1558 C1560 1.381 . S
C1558 C1564 1.383 . S
C1559 C1555 1.495 . S
C1559 H1565 0.959 . S
C1559 H1566 0.961 . S
C1559 H1567 0.960 . S
C1560 C1558 1.381 . S
C1560 C1561 1.394 . S
C1560 H1568 0.930 . S
C1561 C1560 1.394 . S
C1561 C1562 1.383 . S
C1561 H1569 0.929 . S
C1562 C1561 1.383 . S
C1562 C1563 1.377 . S
C1563 H1547 0.930 . S
C1563 C1562 1.377 . S
C1563 C1564 1.379 . S
C1564 H1548 0.931 . S
C1564 C1558 1.383 . S
C1564 C1563 1.379 . S
H1565 C1559 0.959 . S
H1566 C1559 0.961 . S
H1567 C1559 0.960 . S
H1568 C1560 0.930 . S
H1569 C1561 0.929 . S
H1570 C1578 0.929 . S
H1571 C1580 0.930 . S
H1572 C1582 0.930 . S
H1573 C1585 0.929 . S
H1574 C1588 0.930 . S
H1575 C1590 0.960 . S
H1576 C1590 0.960 . S
H1577 C1590 0.960 . S
C1578 H1570 0.929 . S
C1578 C1579 1.377 . S
C1578 C1580 1.384 . S
C1579 C1578 1.377 . S
C1579 C1585 1.390 . S
C1580 H1571 0.930 . S
C1580 C1578 1.384 . S
C1580 C1581 1.372 . S
C1581 C1580 1.372 . S
C1581 C1582 1.400 . S
C1581 C1586 1.490 . S
C1582 H1572 0.930 . S
C1582 C1581 1.400 . S
C1582 C1585 1.386 . S
H1583 C1599 0.930 . S
H1584 C1600 0.931 . S
C1585 H1573 0.929 . S
C1585 C1579 1.390 . S
C1585 C1582 1.386 . S
C1586 C1581 1.490 . S
C1586 C1588 1.395 . S
C1586 C1589 1.403 . S
H1587 C1593 0.930 . S
C1588 H1574 0.930 . S
C1588 C1586 1.395 . S
C1588 C1591 1.403 . S
C1589 C1586 1.403 . S
C1589 C1590 1.524 . S
C1589 C1593 1.400 . S
C1590 H1575 0.960 . S
C1590 H1576 0.960 . S
C1590 H1577 0.960 . S
C1590 C1589 1.524 . S
C1591 C1588 1.403 . S
C1591 C1592 1.392 . S
C1591 C1595 1.495 . S
C1592 C1591 1.392 . S
C1592 C1593 1.385 . S
C1592 C1594 1.478 . S
C1593 H1587 0.930 . S
C1593 C1589 1.400 . S
C1593 C1592 1.385 . S
C1594 C1592 1.478 . S
C1594 C1596 1.381 . S
C1594 C1600 1.383 . S
C1595 C1591 1.495 . S
C1595 H1601 0.959 . S
C1595 H1602 0.961 . S
C1595 H1603 0.960 . S
C1596 C1594 1.381 . S
C1596 C1597 1.394 . S
C1596 H1604 0.930 . S
C1597 C1596 1.394 . S
C1597 C1598 1.383 . S
C1597 H1605 0.929 . S
C1598 C1597 1.383 . S
C1598 C1599 1.377 . S
C1599 H1583 0.930 . S
C1599 C1598 1.377 . S
C1599 C1600 1.379 . S
C1600 H1584 0.931 . S
C1600 C1594 1.383 . S
C1600 C1599 1.379 . S
H1601 C1595 0.959 . S
H1602 C1595 0.961 . S
H1603 C1595 0.960 . S
H1604 C1596 0.930 . S
H1605 C1597 0.929 . S
H1606 C1614 0.929 . S
H1607 C1616 0.930 . S
H1608 C1618 0.930 . S
H1609 C1621 0.929 . S
H1610 C1624 0.930 . S
H1611 C1626 0.960 . S
H1612 C1626 0.960 . S
H1613 C1626 0.960 . S
C1614 H1606 0.929 . S
C1614 C1615 1.377 . S
C1614 C1616 1.384 . S
C1615 C1614 1.377 . S
C1615 C1621 1.390 . S
C1616 H1607 0.930 . S
C1616 C1614 1.384 . S
C1616 C1617 1.372 . S
C1617 C1616 1.372 . S
C1617 C1618 1.400 . S
C1617 C1622 1.490 . S
C1618 H1608 0.930 . S
C1618 C1617 1.400 . S
C1618 C1621 1.386 . S
H1619 C1635 0.930 . S
H1620 C1636 0.931 . S
C1621 H1609 0.929 . S
C1621 C1615 1.390 . S
C1621 C1618 1.386 . S
C1622 C1617 1.490 . S
C1622 C1624 1.395 . S
C1622 C1625 1.403 . S
H1623 C1629 0.930 . S
C1624 H1610 0.930 . S
C1624 C1622 1.395 . S
C1624 C1627 1.403 . S
C1625 C1622 1.403 . S
C1625 C1626 1.524 . S
C1625 C1629 1.400 . S
C1626 H1611 0.960 . S
C1626 H1612 0.960 . S
C1626 H1613 0.960 . S
C1626 C1625 1.524 . S
C1627 C1624 1.403 . S
C1627 C1628 1.392 . S
C1627 C1631 1.495 . S
C1628 C1627 1.392 . S
C1628 C1629 1.385 . S
C1628 C1630 1.478 . S
C1629 H1623 0.930 . S
C1629 C1625 1.400 . S
C1629 C1628 1.385 . S
C1630 C1628 1.478 . S
C1630 C1632 1.381 . S
C1630 C1636 1.383 . S
C1631 C1627 1.495 . S
C1631 H1637 0.959 . S
C1631 H1638 0.961 . S
C1631 H1639 0.960 . S
C1632 C1630 1.381 . S
C1632 C1633 1.394 . S
C1632 H1640 0.930 . S
C1633 C1632 1.394 . S
C1633 C1634 1.383 . S
C1633 H1641 0.929 . S
C1634 C1633 1.383 . S
C1634 C1635 1.377 . S
C1635 H1619 0.930 . S
C1635 C1634 1.377 . S
C1635 C1636 1.379 . S
C1636 H1620 0.931 . S
C1636 C1630 1.383 . S
C1636 C1635 1.379 . S
H1637 C1631 0.959 . S
H1638 C1631 0.961 . S
H1639 C1631 0.960 . S
H1640 C1632 0.930 . S
H1641 C1633 0.929 . S
H1642 C1650 0.929 . S
H1643 C1652 0.930 . S
H1644 C1654 0.930 . S
H1645 C1657 0.929 . S
H1646 C1660 0.930 . S
H1647 C1662 0.960 . S
H1648 C1662 0.960 . S
H1649 C1662 0.960 . S
C1650 H1642 0.929 . S
C1650 C1651 1.377 . S
C1650 C1652 1.384 . S
C1651 C1650 1.377 . S
C1651 C1657 1.390 . S
C1652 H1643 0.930 . S
C1652 C1650 1.384 . S
C1652 C1653 1.372 . S
C1653 C1652 1.372 . S
C1653 C1654 1.400 . S
C1653 C1658 1.490 . S
C1654 H1644 0.930 . S
C1654 C1653 1.400 . S
C1654 C1657 1.386 . S
H1655 C1671 0.930 . S
H1656 C1672 0.931 . S
C1657 H1645 0.929 . S
C1657 C1651 1.390 . S
C1657 C1654 1.386 . S
C1658 C1653 1.490 . S
C1658 C1660 1.395 . S
C1658 C1661 1.403 . S
H1659 C1665 0.930 . S
C1660 H1646 0.930 . S
C1660 C1658 1.395 . S
C1660 C1663 1.403 . S
C1661 C1658 1.403 . S
C1661 C1662 1.524 . S
C1661 C1665 1.400 . S
C1662 H1647 0.960 . S
C1662 H1648 0.960 . S
C1662 H1649 0.960 . S
C1662 C1661 1.524 . S
C1663 C1660 1.403 . S
C1663 C1664 1.392 . S
C1663 C1667 1.495 . S
C1664 C1663 1.392 . S
C1664 C1665 1.385 . S
C1664 C1666 1.478 . S
C1665 H1659 0.930 . S
C1665 C1661 1.400 . S
C1665 C1664 1.385 . S
C1666 C1664 1.478 . S
C1666 C1668 1.381 . S
C1666 C1672 1.383 . S
C1667 C1663 1.495 . S
C1667 H1673 0.959 . S
C1667 H1674 0.961 . S
C1667 H1675 0.960 . S
C1668 C1666 1.381 . S
C1668 C1669 1.394 . S
C1668 H1676 0.930 . S
C1669 C1668 1.394 . S
C1669 C1670 1.383 . S
C1669 H1677 0.929 . S
C1670 C1669 1.383 . S
C1670 C1671 1.377 . S
C1671 H1655 0.930 . S
C1671 C1670 1.377 . S
C1671 C1672 1.379 . S
C1672 H1656 0.931 . S
C1672 C1666 1.383 . S
C1672 C1671 1.379 . S
H1673 C1667 0.959 . S
H1674 C1667 0.961 . S
H1675 C1667 0.960 . S
H1676 C1668 0.930 . S
H1677 C1669 0.929 . S
H1678 C1686 0.929 . S
H1679 C1688 0.930 . S
H1680 C1690 0.930 . S
H1681 C1693 0.929 . S
H1682 C1696 0.930 . S
H1683 C1698 0.960 . S
H1684 C1698 0.960 . S
H1685 C1698 0.960 . S
C1686 H1678 0.929 . S
C1686 C1687 1.377 . S
C1686 C1688 1.384 . S
C1687 C1686 1.377 . S
C1687 C1693 1.390 . S
C1688 H1679 0.930 . S
C1688 C1686 1.384 . S
C1688 C1689 1.372 . S
C1689 C1688 1.372 . S
C1689 C1690 1.400 . S
C1689 C1694 1.490 . S
C1690 H1680 0.930 . S
C1690 C1689 1.400 . S
C1690 C1693 1.386 . S
H1691 C1707 0.930 . S
H1692 C1708 0.931 . S
C1693 H1681 0.929 . S
C1693 C1687 1.390 . S
C1693 C1690 1.386 . S
C1694 C1689 1.490 . S
C1694 C1696 1.395 . S
C1694 C1697 1.403 . S
H1695 C1701 0.930 . S
C1696 H1682 0.930 . S
C1696 C1694 1.395 . S
C1696 C1699 1.403 . S
C1697 C1694 1.403 . S
C1697 C1698 1.524 . S
C1697 C1701 1.400 . S
C1698 H1683 0.960 . S
C1698 H1684 0.960 . S
C1698 H1685 0.960 . S
C1698 C1697 1.524 . S
C1699 C1696 1.403 . S
C1699 C1700 1.392 . S
C1699 C1703 1.495 . S
C1700 C1699 1.392 . S
C1700 C1701 1.385 . S
C1700 C1702 1.478 . S
C1701 H1695 0.930 . S
C1701 C1697 1.400 . S
C1701 C1700 1.385 . S
C1702 C1700 1.478 . S
C1702 C1704 1.381 . S
C1702 C1708 1.383 . S
C1703 C1699 1.495 . S
C1703 H1709 0.959 . S
C1703 H1710 0.961 . S
C1703 H1711 0.960 . S
C1704 C1702 1.381 . S
C1704 C1705 1.394 . S
C1704 H1712 0.930 . S
C1705 C1704 1.394 . S
C1705 C1706 1.383 . S
C1705 H1713 0.929 . S
C1706 C1705 1.383 . S
C1706 C1707 1.377 . S
C1707 H1691 0.930 . S
C1707 C1706 1.377 . S
C1707 C1708 1.379 . S
C1708 H1692 0.931 . S
C1708 C1702 1.383 . S
C1708 C1707 1.379 . S
H1709 C1703 0.959 . S
H1710 C1703 0.961 . S
H1711 C1703 0.960 . S
H1712 C1704 0.930 . S
H1713 C1705 0.929 . S
H1714 C1722 0.929 . S
H1715 C1724 0.930 . S
H1716 C1726 0.930 . S
H1717 C1729 0.929 . S
H1718 C1732 0.930 . S
H1719 C1734 0.960 . S
H1720 C1734 0.960 . S
H1721 C1734 0.960 . S
C1722 H1714 0.929 . S
C1722 C1723 1.377 . S
C1722 C1724 1.384 . S
C1723 C1722 1.377 . S
C1723 C1729 1.390 . S
C1724 H1715 0.930 . S
C1724 C1722 1.384 . S
C1724 C1725 1.372 . S
C1725 C1724 1.372 . S
C1725 C1726 1.400 . S
C1725 C1730 1.490 . S
C1726 H1716 0.930 . S
C1726 C1725 1.400 . S
C1726 C1729 1.386 . S
H1727 C1743 0.930 . S
H1728 C1744 0.931 . S
C1729 H1717 0.929 . S
C1729 C1723 1.390 . S
C1729 C1726 1.386 . S
C1730 C1725 1.490 . S
C1730 C1732 1.395 . S
C1730 C1733 1.403 . S
H1731 C1737 0.930 . S
C1732 H1718 0.930 . S
C1732 C1730 1.395 . S
C1732 C1735 1.403 . S
C1733 C1730 1.403 . S
C1733 C1734 1.524 . S
C1733 C1737 1.400 . S
C1734 H1719 0.960 . S
C1734 H1720 0.960 . S
C1734 H1721 0.960 . S
C1734 C1733 1.524 . S
C1735 C1732 1.403 . S
C1735 C1736 1.392 . S
C1735 C1739 1.495 . S
C1736 C1735 1.392 . S
C1736 C1737 1.385 . S
C1736 C1738 1.478 . S
C1737 H1731 0.930 . S
C1737 C1733 1.400 . S
C1737 C1736 1.385 . S
C1738 C1736 1.478 . S
C1738 C1740 1.381 . S
C1738 C1744 1.383 . S
C1739 C1735 1.495 . S
C1739 H1745 0.959 . S
C1739 H1746 0.961 . S
C1739 H1747 0.960 . S
C1740 C1738 1.381 . S
C1740 C1741 1.394 . S
C1740 H1748 0.930 . S
C1741 C1740 1.394 . S
C1741 C1742 1.383 . S
C1741 H1749 0.929 . S
C1742 C1741 1.383 . S
C1742 C1743 1.377 . S
C1743 H1727 0.930 . S
C1743 C1742 1.377 . S
C1743 C1744 1.379 . S
C1744 H1728 0.931 . S
C1744 C1738 1.383 . S
C1744 C1743 1.379 . S
H1745 C1739 0.959 . S
H1746 C1739 0.961 . S
H1747 C1739 0.960 . S
H1748 C1740 0.930 . S
H1749 C1741 0.929 . S
H1750 C1758 0.929 . S
H1751 C1760 0.930 . S
H1752 C1762 0.930 . S
H1753 C1765 0.929 . S
H1754 C1768 0.930 . S
H1755 C1770 0.960 . S
H1756 C1770 0.960 . S
H1757 C1770 0.960 . S
C1758 H1750 0.929 . S
C1758 C1759 1.377 . S
C1758 C1760 1.384 . S
C1759 C1758 1.377 . S
C1759 C1765 1.390 . S
C1760 H1751 0.930 . S
C1760 C1758 1.384 . S
C1760 C1761 1.372 . S
C1761 C1760 1.372 . S
C1761 C1762 1.400 . S
C1761 C1766 1.490 . S
C1762 H1752 0.930 . S
C1762 C1761 1.400 . S
C1762 C1765 1.386 . S
H1763 C1779 0.930 . S
H1764 C1780 0.931 . S
C1765 H1753 0.929 . S
C1765 C1759 1.390 . S
C1765 C1762 1.386 . S
C1766 C1761 1.490 . S
C1766 C1768 1.395 . S
C1766 C1769 1.403 . S
H1767 C1773 0.930 . S
C1768 H1754 0.930 . S
C1768 C1766 1.395 . S
C1768 C1771 1.403 . S
C1769 C1766 1.403 . S
C1769 C1770 1.524 . S
C1769 C1773 1.400 . S
C1770 H1755 0.960 . S
C1770 H1756 0.960 . S
C1770 H1757 0.960 . S
C1770 C1769 1.524 . S
C1771 C1768 1.403 . S
C1771 C1772 1.392 . S
C1771 C1775 1.495 . S
C1772 C1771 1.392 . S
C1772 C1773 1.385 . S
C1772 C1774 1.478 . S
C1773 H1767 0.930 . S
C1773 C1769 1.400 . S
C1773 C1772 1.385 . S
C1774 C1772 1.478 . S
C1774 C1776 1.381 . S
C1774 C1780 1.383 . S
C1775 C1771 1.495 . S
C1775 H1781 0.959 . S
C1775 H1782 0.961 . S
C1775 H1783 0.960 . S
C1776 C1774 1.381 . S
C1776 C1777 1.394 . S
C1776 H1784 0.930 . S
C1777 C1776 1.394 . S
C1777 C1778 1.383 . S
C1777 H1785 0.929 . S
C1778 C1777 1.383 . S
C1778 C1779 1.377 . S
C1779 H1763 0.930 . S
C1779 C1778 1.377 . S
C1779 C1780 1.379 . S
C1780 H1764 0.931 . S
C1780 C1774 1.383 . S
C1780 C1779 1.379 . S
H1781 C1775 0.959 . S
H1782 C1775 0.961 . S
H1783 C1775 0.960 . S
H1784 C1776 0.930 . S
H1785 C1777 0.929 . S
H1786 C1794 0.929 . S
H1787 C1796 0.930 . S
H1788 C1798 0.930 . S
H1789 C1801 0.929 . S
H1790 C1804 0.930 . S
H1791 C1806 0.960 . S
H1792 C1806 0.960 . S
H1793 C1806 0.960 . S
C1794 H1786 0.929 . S
C1794 C1795 1.377 . S
C1794 C1796 1.384 . S
C1795 C1794 1.377 . S
C1795 C1801 1.390 . S
C1796 H1787 0.930 . S
C1796 C1794 1.384 . S
C1796 C1797 1.372 . S
C1797 C1796 1.372 . S
C1797 C1798 1.400 . S
C1797 C1802 1.490 . S
C1798 H1788 0.930 . S
C1798 C1797 1.400 . S
C1798 C1801 1.386 . S
H1799 C1815 0.930 . S
H1800 C1816 0.931 . S
C1801 H1789 0.929 . S
C1801 C1795 1.390 . S
C1801 C1798 1.386 . S
C1802 C1797 1.490 . S
C1802 C1804 1.395 . S
C1802 C1805 1.403 . S
H1803 C1809 0.930 . S
C1804 H1790 0.930 . S
C1804 C1802 1.395 . S
C1804 C1807 1.403 . S
C1805 C1802 1.403 . S
C1805 C1806 1.524 . S
C1805 C1809 1.400 . S
C1806 H1791 0.960 . S
C1806 H1792 0.960 . S
C1806 H1793 0.960 . S
C1806 C1805 1.524 . S
C1807 C1804 1.403 . S
C1807 C1808 1.392 . S
C1807 C1811 1.495 . S
C1808 C1807 1.392 . S
C1808 C1809 1.385 . S
C1808 C1810 1.478 . S
C1809 H1803 0.930 . S
C1809 C1805 1.400 . S
C1809 C1808 1.385 . S
C1810 C1808 1.478 . S
C1810 C1812 1.381 . S
C1810 C1816 1.383 . S
C1811 C1807 1.495 . S
C1811 H1817 0.959 . S
C1811 H1818 0.961 . S
C1811 H1819 0.960 . S
C1812 C1810 1.381 . S
C1812 C1813 1.394 . S
C1812 H1820 0.930 . S
C1813 C1812 1.394 . S
C1813 C1814 1.383 . S
C1813 H1821 0.929 . S
C1814 C1813 1.383 . S
C1814 C1815 1.377 . S
C1815 H1799 0.930 . S
C1815 C1814 1.377 . S
C1815 C1816 1.379 . S
C1816 H1800 0.931 . S
C1816 C1810 1.383 . S
C1816 C1815 1.379 . S
H1817 C1811 0.959 . S
H1818 C1811 0.961 . S
H1819 C1811 0.960 . S
H1820 C1812 0.930 . S
H1821 C1813 0.929 . S
H1822 C1830 0.929 . S
H1823 C1832 0.930 . S
H1824 C1834 0.930 . S
H1825 C1837 0.929 . S
H1826 C1840 0.930 . S
H1827 C1842 0.960 . S
H1828 C1842 0.960 . S
H1829 C1842 0.960 . S
C1830 H1822 0.929 . S
C1830 C1831 1.377 . S
C1830 C1832 1.384 . S
C1831 C1830 1.377 . S
C1831 C1837 1.390 . S
C1832 H1823 0.930 . S
C1832 C1830 1.384 . S
C1832 C1833 1.372 . S
C1833 C1832 1.372 . S
C1833 C1834 1.400 . S
C1833 C1838 1.490 . S
C1834 H1824 0.930 . S
C1834 C1833 1.400 . S
C1834 C1837 1.386 . S
H1835 C1851 0.930 . S
H1836 C1852 0.931 . S
C1837 H1825 0.929 . S
C1837 C1831 1.390 . S
C1837 C1834 1.386 . S
C1838 C1833 1.490 . S
C1838 C1840 1.395 . S
C1838 C1841 1.403 . S
H1839 C1845 0.930 . S
C1840 H1826 0.930 . S
C1840 C1838 1.395 . S
C1840 C1843 1.403 . S
C1841 C1838 1.403 . S
C1841 C1842 1.524 . S
C1841 C1845 1.400 . S
C1842 H1827 0.960 . S
C1842 H1828 0.960 . S
C1842 H1829 0.960 . S
C1842 C1841 1.524 . S
C1843 C1840 1.403 . S
C1843 C1844 1.392 . S
C1843 C1847 1.495 . S
C1844 C1843 1.392 . S
C1844 C1845 1.385 . S
C1844 C1846 1.478 . S
C1845 H1839 0.930 . S
C1845 C1841 1.400 . S
C1845 C1844 1.385 . S
C1846 C1844 1.478 . S
C1846 C1848 1.381 . S
C1846 C1852 1.383 . S
C1847 C1843 1.495 . S
C1847 H1853 0.959 . S
C1847 H1854 0.961 . S
C1847 H1855 0.960 . S
C1848 C1846 1.381 . S
C1848 C1849 1.394 . S
C1848 H1856 0.930 . S
C1849 C1848 1.394 . S
C1849 C1850 1.383 . S
C1849 H1857 0.929 . S
C1850 C1849 1.383 . S
C1850 C1851 1.377 . S
C1851 H1835 0.930 . S
C1851 C1850 1.377 . S
C1851 C1852 1.379 . S
C1852 H1836 0.931 . S
C1852 C1846 1.383 . S
C1852 C1851 1.379 . S
H1853 C1847 0.959 . S
H1854 C1847 0.961 . S
H1855 C1847 0.960 . S
H1856 C1848 0.930 . S
H1857 C1849 0.929 . S
H1858 C1866 0.929 . S
H1859 C1868 0.930 . S
H1860 C1870 0.930 . S
H1861 C1873 0.929 . S
H1862 C1876 0.930 . S
H1863 C1878 0.960 . S
H1864 C1878 0.960 . S
H1865 C1878 0.960 . S
C1866 H1858 0.929 . S
C1866 C1867 1.377 . S
C1866 C1868 1.384 . S
C1867 C1866 1.377 . S
C1867 C1873 1.390 . S
C1868 H1859 0.930 . S
C1868 C1866 1.384 . S
C1868 C1869 1.372 . S
C1869 C1868 1.372 . S
C1869 C1870 1.400 . S
C1869 C1874 1.490 . S
C1870 H1860 0.930 . S
C1870 C1869 1.400 . S
C1870 C1873 1.386 . S
H1871 C1887 0.930 . S
H1872 C1888 0.931 . S
C1873 H1861 0.929 . S
C1873 C1867 1.390 . S
C1873 C1870 1.386 . S
C1874 C1869 1.490 . S
C1874 C1876 1.395 . S
C1874 C1877 1.403 . S
H1875 C1881 0.930 . S
C1876 H1862 0.930 . S
C1876 C1874 1.395 . S
C1876 C1879 1.403 . S
C1877 C1874 1.403 . S
C1877 C1878 1.524 . S
C1877 C1881 1.400 . S
C1878 H1863 0.960 . S
C1878 H1864 0.960 . S
C1878 H1865 0.960 . S
C1878 C1877 1.524 . S
C1879 C1876 1.403 . S
C1879 C1880 1.392 . S
C1879 C1883 1.495 . S
C1880 C1879 1.392 . S
C1880 C1881 1.385 . S
C1880 C1882 1.478 . S
C1881 H1875 0.930 . S
C1881 C1877 1.400 . S
C1881 C1880 1.385 . S
C1882 C1880 1.478 . S
C1882 C1884 1.381 . S
C1882 C1888 1.383 . S
C1883 C1879 1.495 . S
C1883 H1889 0.959 . S
C1883 H1890 0.961 . S
C1883 H1891 0.960 . S
C1884 C1882 1.381 . S
C1884 C1885 1.394 . S
C1884 H1892 0.930 . S
C1885 C1884 1.394 . S
C1885 C1886 1.383 . S
C1885 H1893 0.929 . S
C1886 C1885 1.383 . S
C1886 C1887 1.377 . S
C1887 H1871 0.930 . S
C1887 C1886 1.377 . S
C1887 C1888 1.379 . S
C1888 H1872 0.931 . S
C1888 C1882 1.383 . S
C1888 C1887 1.379 . S
H1889 C1883 0.959 . S
H1890 C1883 0.961 . S
H1891 C1883 0.960 . S
H1892 C1884 0.930 . S
H1893 C1885 0.929 . S
H1894 C1902 0.929 . S
H1895 C1904 0.930 . S
H1896 C1906 0.930 . S
H1897 C1909 0.929 . S
H1898 C1912 0.930 . S
H1899 C1914 0.960 . S
H1900 C1914 0.960 . S
H1901 C1914 0.960 . S
C1902 H1894 0.929 . S
C1902 C1903 1.377 . S
C1902 C1904 1.384 . S
C1903 C1902 1.377 . S
C1903 C1909 1.390 . S
C1904 H1895 0.930 . S
C1904 C1902 1.384 . S
C1904 C1905 1.372 . S
C1905 C1904 1.372 . S
C1905 C1906 1.400 . S
C1905 C1910 1.490 . S
C1906 H1896 0.930 . S
C1906 C1905 1.400 . S
C1906 C1909 1.386 . S
H1907 C1923 0.930 . S
H1908 C1924 0.931 . S
C1909 H1897 0.929 . S
C1909 C1903 1.390 . S
C1909 C1906 1.386 . S
C1910 C1905 1.490 . S
C1910 C1912 1.395 . S
C1910 C1913 1.403 . S
H1911 C1917 0.930 . S
C1912 H1898 0.930 . S
C1912 C1910 1.395 . S
C1912 C1915 1.403 . S
C1913 C1910 1.403 . S
C1913 C1914 1.524 . S
C1913 C1917 1.400 . S
C1914 H1899 0.960 . S
C1914 H1900 0.960 . S
C1914 H1901 0.960 . S
C1914 C1913 1.524 . S
C1915 C1912 1.403 . S
C1915 C1916 1.392 . S
C1915 C1919 1.495 . S
C1916 C1915 1.392 . S
C1916 C1917 1.385 . S
C1916 C1918 1.478 . S
C1917 H1911 0.930 . S
C1917 C1913 1.400 . S
C1917 C1916 1.385 . S
C1918 C1916 1.478 . S
C1918 C1920 1.381 . S
C1918 C1924 1.383 . S
C1919 C1915 1.495 . S
C1919 H1925 0.959 . S
C1919 H1926 0.961 . S
C1919 H1927 0.960 . S
C1920 C1918 1.381 . S
C1920 C1921 1.394 . S
C1920 H1928 0.930 . S
C1921 C1920 1.394 . S
C1921 C1922 1.383 . S
C1921 H1929 0.929 . S
C1922 C1921 1.383 . S
C1922 C1923 1.377 . S
C1923 H1907 0.930 . S
C1923 C1922 1.377 . S
C1923 C1924 1.379 . S
C1924 H1908 0.931 . S
C1924 C1918 1.383 . S
C1924 C1923 1.379 . S
H1925 C1919 0.959 . S
H1926 C1919 0.961 . S
H1927 C1919 0.960 . S
H1928 C1920 0.930 . S
H1929 C1921 0.929 . S
H1930 C1938 0.929 . S
H1931 C1940 0.930 . S
H1932 C1942 0.930 . S
H1933 C1945 0.929 . S
H1934 C1948 0.930 . S
H1935 C1950 0.960 . S
H1936 C1950 0.960 . S
H1937 C1950 0.960 . S
C1938 H1930 0.929 . S
C1938 C1939 1.377 . S
C1938 C1940 1.384 . S
C1939 C1938 1.377 . S
C1939 C1945 1.390 . S
C1940 H1931 0.930 . S
C1940 C1938 1.384 . S
C1940 C1941 1.372 . S
C1941 C1940 1.372 . S
C1941 C1942 1.400 . S
C1941 C1946 1.490 . S
C1942 H1932 0.930 . S
C1942 C1941 1.400 . S
C1942 C1945 1.386 . S
H1943 C1959 0.930 . S
H1944 C1960 0.931 . S
C1945 H1933 0.929 . S
C1945 C1939 1.390 . S
C1945 C1942 1.386 . S
C1946 C1941 1.490 . S
C1946 C1948 1.395 . S
C1946 C1949 1.403 . S
H1947 C1953 0.930 . S
C1948 H1934 0.930 . S
C1948 C1946 1.395 . S
C1948 C1951 1.403 . S
C1949 C1946 1.403 . S
C1949 C1950 1.524 . S
C1949 C1953 1.400 . S
C1950 H1935 0.960 . S
C1950 H1936 0.960 . S
C1950 H1937 0.960 . S
C1950 C1949 1.524 . S
C1951 C1948 1.403 . S
C1951 C1952 1.392 . S
C1951 C1955 1.495 . S
C1952 C1951 1.392 . S
C1952 C1953 1.385 . S
C1952 C1954 1.478 . S
C1953 H1947 0.930 . S
C1953 C1949 1.400 . S
C1953 C1952 1.385 . S
C1954 C1952 1.478 . S
C1954 C1956 1.381 . S
C1954 C1960 1.383 . S
C1955 C1951 1.495 . S
C1955 H1961 0.959 . S
C1955 H1962 0.961 . S
C1955 H1963 0.960 . S
C1956 C1954 1.381 . S
C1956 C1957 1.394 . S
C1956 H1964 0.930 . S
C1957 C1956 1.394 . S
C1957 C1958 1.383 . S
C1957 H1965 0.929 . S
C1958 C1957 1.383 . S
C1958 C1959 1.377 . S
C1959 H1943 0.930 . S
C1959 C1958 1.377 . S
C1959 C1960 1.379 . S
C1960 H1944 0.931 . S
C1960 C1954 1.383 . S
C1960 C1959 1.379 . S
H1961 C1955 0.959 . S
H1962 C1955 0.961 . S
H1963 C1955 0.960 . S
H1964 C1956 0.930 . S
H1965 C1957 0.929 . S
H1966 C1974 0.929 . S
H1967 C1976 0.930 . S
H1968 C1978 0.930 . S
H1969 C1981 0.929 . S
H1970 C1984 0.930 . S
H1971 C1986 0.960 . S
H1972 C1986 0.960 . S
H1973 C1986 0.960 . S
C1974 H1966 0.929 . S
C1974 C1975 1.377 . S
C1974 C1976 1.384 . S
C1975 C1974 1.377 . S
C1975 C1981 1.390 . S
C1976 H1967 0.930 . S
C1976 C1974 1.384 . S
C1976 C1977 1.372 . S
C1977 C1976 1.372 . S
C1977 C1978 1.400 . S
C1977 C1982 1.490 . S
C1978 H1968 0.930 . S
C1978 C1977 1.400 . S
C1978 C1981 1.386 . S
H1979 C1995 0.930 . S
H1980 C1996 0.931 . S
C1981 H1969 0.929 . S
C1981 C1975 1.390 . S
C1981 C1978 1.386 . S
C1982 C1977 1.490 . S
C1982 C1984 1.395 . S
C1982 C1985 1.403 . S
H1983 C1989 0.930 . S
C1984 H1970 0.930 . S
C1984 C1982 1.395 . S
C1984 C1987 1.403 . S
C1985 C1982 1.403 . S
C1985 C1986 1.524 . S
C1985 C1989 1.400 . S
C1986 H1971 0.960 . S
C1986 H1972 0.960 . S
C1986 H1973 0.960 . S
C1986 C1985 1.524 . S
C1987 C1984 1.403 . S
C1987 C1988 1.392 . S
C1987 C1991 1.495 . S
C1988 C1987 1.392 . S
C1988 C1989 1.385 . S
C1988 C1990 1.478 . S
C1989 H1983 0.930 . S
C1989 C1985 1.400 . S
C1989 C1988 1.385 . S
C1990 C1988 1.478 . S
C1990 C1992 1.381 . S
C1990 C1996 1.383 . S
C1991 C1987 1.495 . S
C1991 H1997 0.959 . S
C1991 H1998 0.961 . S
C1991 H1999 0.960 . S
C1992 C1990 1.381 . S
C1992 C1993 1.394 . S
C1992 H2000 0.930 . S
C1993 C1992 1.394 . S
C1993 C1994 1.383 . S
C1993 H2001 0.929 . S
C1994 C1993 1.383 . S
C1994 C1995 1.377 . S
C1995 H1979 0.930 . S
C1995 C1994 1.377 . S
C1995 C1996 1.379 . S
C1996 H1980 0.931 . S
C1996 C1990 1.383 . S
C1996 C1995 1.379 . S
H1997 C1991 0.959 . S
H1998 C1991 0.961 . S
H1999 C1991 0.960 . S
H2000 C1992 0.930 . S
H2001 C1993 0.929 . S
H2002 C2010 0.929 . S
H2003 C2012 0.930 . S
H2004 C2014 0.930 . S
H2005 C2017 0.929 . S
H2006 C2020 0.930 . S
H2007 C2022 0.960 . S
H2008 C2022 0.960 . S
H2009 C2022 0.960 . S
C2010 H2002 0.929 . S
C2010 C2011 1.377 . S
C2010 C2012 1.384 . S
C2011 C2010 1.377 . S
C2011 C2017 1.390 . S
C2012 H2003 0.930 . S
C2012 C2010 1.384 . S
C2012 C2013 1.372 . S
C2013 C2012 1.372 . S
C2013 C2014 1.400 . S
C2013 C2018 1.490 . S
C2014 H2004 0.930 . S
C2014 C2013 1.400 . S
C2014 C2017 1.386 . S
H2015 C2031 0.930 . S
H2016 C2032 0.931 . S
C2017 H2005 0.929 . S
C2017 C2011 1.390 . S
C2017 C2014 1.386 . S
C2018 C2013 1.490 . S
C2018 C2020 1.395 . S
C2018 C2021 1.403 . S
H2019 C2025 0.930 . S
C2020 H2006 0.930 . S
C2020 C2018 1.395 . S
C2020 C2023 1.403 . S
C2021 C2018 1.403 . S
C2021 C2022 1.524 . S
C2021 C2025 1.400 . S
C2022 H2007 0.960 . S
C2022 H2008 0.960 . S
C2022 H2009 0.960 . S
C2022 C2021 1.524 . S
C2023 C2020 1.403 . S
C2023 C2024 1.392 . S
C2023 C2027 1.495 . S
C2024 C2023 1.392 . S
C2024 C2025 1.385 . S
C2024 C2026 1.478 . S
C2025 H2019 0.930 . S
C2025 C2021 1.400 . S
C2025 C2024 1.385 . S
C2026 C2024 1.478 . S
C2026 C2028 1.381 . S
C2026 C2032 1.383 . S
C2027 C2023 1.495 . S
C2027 H2033 0.959 . S
C2027 H2034 0.961 . S
C2027 H2035 0.960 . S
C2028 C2026 1.381 . S
C2028 C2029 1.394 . S
C2028 H2036 0.930 . S
C2029 C2028 1.394 . S
C2029 C2030 1.383 . S
C2029 H2037 0.929 . S
C2030 C2029 1.383 . S
C2030 C2031 1.377 . S
C2031 H2015 0.930 . S
C2031 C2030 1.377 . S
C2031 C2032 1.379 . S
C2032 H2016 0.931 . S
C2032 C2026 1.383 . S
C2032 C2031 1.379 . S
H2033 C2027 0.959 . S
H2034 C2027 0.961 . S
H2035 C2027 0.960 . S
H2036 C2028 0.930 . S
H2037 C2029 0.929 . S
H2038 C2046 0.929 . S
H2039 C2048 0.930 . S
H2040 C2050 0.930 . S
H2041 C2053 0.929 . S
H2042 C2056 0.930 . S
H2043 C2058 0.960 . S
H2044 C2058 0.960 . S
H2045 C2058 0.960 . S
C2046 H2038 0.929 . S
C2046 C2047 1.377 . S
C2046 C2048 1.384 . S
C2047 C2046 1.377 . S
C2047 C2053 1.390 . S
C2048 H2039 0.930 . S
C2048 C2046 1.384 . S
C2048 C2049 1.372 . S
C2049 C2048 1.372 . S
C2049 C2050 1.400 . S
C2049 C2054 1.490 . S
C2050 H2040 0.930 . S
C2050 C2049 1.400 . S
C2050 C2053 1.386 . S
H2051 C2067 0.930 . S
H2052 C2068 0.931 . S
C2053 H2041 0.929 . S
C2053 C2047 1.390 . S
C2053 C2050 1.386 . S
C2054 C2049 1.490 . S
C2054 C2056 1.395 . S
C2054 C2057 1.403 . S
H2055 C2061 0.930 . S
C2056 H2042 0.930 . S
C2056 C2054 1.395 . S
C2056 C2059 1.403 . S
C2057 C2054 1.403 . S
C2057 C2058 1.524 . S
C2057 C2061 1.400 . S
C2058 H2043 0.960 . S
C2058 H2044 0.960 . S
C2058 H2045 0.960 . S
C2058 C2057 1.524 . S
C2059 C2056 1.403 . S
C2059 C2060 1.392 . S
C2059 C2063 1.495 . S
C2060 C2059 1.392 . S
C2060 C2061 1.385 . S
C2060 C2062 1.478 . S
C2061 H2055 0.930 . S
C2061 C2057 1.400 . S
C2061 C2060 1.385 . S
C2062 C2060 1.478 . S
C2062 C2064 1.381 . S
C2062 C2068 1.383 . S
C2063 C2059 1.495 . S
C2063 H2069 0.959 . S
C2063 H2070 0.961 . S
C2063 H2071 0.960 . S
C2064 C2062 1.381 . S
C2064 C2065 1.394 . S
C2064 H2072 0.930 . S
C2065 C2064 1.394 . S
C2065 C2066 1.383 . S
C2065 H2073 0.929 . S
C2066 C2065 1.383 . S
C2066 C2067 1.377 . S
C2067 H2051 0.930 . S
C2067 C2066 1.377 . S
C2067 C2068 1.379 . S
C2068 H2052 0.931 . S
C2068 C2062 1.383 . S
C2068 C2067 1.379 . S
H2069 C2063 0.959 . S
H2070 C2063 0.961 . S
H2071 C2063 0.960 . S
H2072 C2064 0.930 . S
H2073 C2065 0.929 . S
C374 C171 2.090 . S
C355 C19 2.076 . S
C410 C161 1.667 . S
C391 C24 1.623 . S
C446 C162 0.839 . S
C427 C59 0.835 . S
C463 C69 1.455 . S
C482 C184 1.434 . S
C499 C82 1.618 . S
C518 C187 1.697 . S
C554 C170 0.797 . S
C535 C118 0.833 . S
C571 C132 1.455 . S
C590 C160 1.460 . S
C607 C158 2.083 . S
C626 C178 2.098 . S
C662 C191 1.753 . S
C643 C4 1.673 . S
C679 C29 0.915 . S
C698 C240 0.957 . S
C734 C218 1.709 . S
C715 C44 1.612 . S
C770 C232 0.843 . S
C751 C79 0.828 . S
C787 C98 0.819 . S
C806 C193 0.812 . S
C842 C246 1.475 . S
C823 C112 1.453 . S
C859 C122 1.163 . S
C878 C202 1.188 . S
C895 C152 1.398 . S
C914 C223 1.399 . S
C931 C9 1.387 . S
C950 C249 1.394 . S
C967 C92 0.931 . S
C986 C233 0.959 . S
C1022 C192 1.691 . S
C1003 C102 1.610 . S
C1058 C224 0.866 . S
C1039 C138 0.827 . S
C1075 C142 1.681 . S
C1094 C215 1.774 . S
C1111 C49 1.449 . S
C1130 C222 1.448 . S
C1166 C209 1.174 . S
C1147 C64 1.152 . S
C1183 C39 0.831 . S
C1202 C201 0.801 . S
C1219 C159 2.083 . S
C1238 C264 2.062 . S
C1255 C84 1.626 . S
C1274 C254 1.696 . S
C1310 C255 0.871 . S
C1291 C119 0.823 . S
C1346 C277 1.477 . S
C1327 C129 1.447 . S
C1363 C22 1.624 . S
C1382 C280 1.698 . S
C1418 C263 0.827 . S
C1399 C58 0.833 . S
C1435 C72 1.452 . S
C1454 C253 1.424 . S
C1471 C18 2.076 . S
C1490 C271 2.059 . S
C1507 C144 1.676 . S
C1526 C284 1.752 . S
C1562 C333 0.903 . S
C1543 C89 0.924 . S
C1579 C104 1.619 . S
C1598 C311 1.682 . S
C1615 C139 0.818 . S
C1634 C325 0.821 . S
C1670 C286 0.813 . S
C1651 C38 0.828 . S
C1687 C52 1.444 . S
C1706 C339 1.480 . S
C1742 C295 1.205 . S
C1723 C62 1.148 . S
C1778 C316 1.403 . S
C1759 C12 1.388 . S
C1814 C342 1.395 . S
C1795 C149 1.386 . S
C1831 C32 0.917 . S
C1850 C326 0.906 . S
C1867 C42 1.609 . S
C1886 C285 1.691 . S
C1922 C317 0.861 . S
C1903 C78 0.818 . S
C1939 C2 1.685 . S
C1958 C308 1.781 . S
C1975 C109 1.443 . S
C1994 C315 1.447 . S
C2030 C302 1.163 . S
C2011 C124 1.150 . S
C2066 C294 0.846 . S
C2047 C99 0.830 . S
