# Generated by pormake.
# Topology gar, (4,6)-cn, num edge types: 1
# Building blocks:
#     Node 0, Type 0, BuildingBlock: UXUYUI_clean_sbu_0, # of connection points: 4
#     Node 1, Type 0, BuildingBlock: UXUYUI_clean_sbu_0, # of connection points: 4
#     Node 2, Type 0, BuildingBlock: UXUYUI_clean_sbu_0, # of connection points: 4
#     Node 3, Type 0, BuildingBlock: UXUYUI_clean_sbu_0, # of connection points: 4
#     Node 4, Type 0, BuildingBlock: UXUYUI_clean_sbu_0, # of connection points: 4
#     Node 5, Type 0, BuildingBlock: UXUYUI_clean_sbu_0, # of connection points: 4
#     Node 6, Type 0, BuildingBlock: UXUYUI_clean_sbu_0, # of connection points: 4
#     Node 7, Type 0, BuildingBlock: UXUYUI_clean_sbu_0, # of connection points: 4
#     Node 8, Type 0, BuildingBlock: UXUYUI_clean_sbu_0, # of connection points: 4
#     Node 9, Type 0, BuildingBlock: UXUYUI_clean_sbu_0, # of connection points: 4
#     Node 10, Type 0, BuildingBlock: UXUYUI_clean_sbu_0, # of connection points: 4
#     Node 11, Type 0, BuildingBlock: UXUYUI_clean_sbu_0, # of connection points: 4
#     Node 12, Type 0, BuildingBlock: UXUYUI_clean_sbu_0, # of connection points: 4
#     Node 13, Type 0, BuildingBlock: UXUYUI_clean_sbu_0, # of connection points: 4
#     Node 14, Type 0, BuildingBlock: UXUYUI_clean_sbu_0, # of connection points: 4
#     Node 15, Type 0, BuildingBlock: UXUYUI_clean_sbu_0, # of connection points: 4
#     Node 16, Type 0, BuildingBlock: UXUYUI_clean_sbu_0, # of connection points: 4
#     Node 17, Type 0, BuildingBlock: UXUYUI_clean_sbu_0, # of connection points: 4
#     Node 18, Type 0, BuildingBlock: UXUYUI_clean_sbu_0, # of connection points: 4
#     Node 19, Type 0, BuildingBlock: UXUYUI_clean_sbu_0, # of connection points: 4
#     Node 20, Type 0, BuildingBlock: UXUYUI_clean_sbu_0, # of connection points: 4
#     Node 21, Type 0, BuildingBlock: UXUYUI_clean_sbu_0, # of connection points: 4
#     Node 22, Type 0, BuildingBlock: UXUYUI_clean_sbu_0, # of connection points: 4
#     Node 23, Type 0, BuildingBlock: UXUYUI_clean_sbu_0, # of connection points: 4
#     Node 24, Type 1, BuildingBlock: MIFKUJ_clean_sbu_0, # of connection points: 6
#     Node 25, Type 1, BuildingBlock: MIFKUJ_clean_sbu_0, # of connection points: 6
#     Node 26, Type 1, BuildingBlock: MIFKUJ_clean_sbu_0, # of connection points: 6
#     Node 27, Type 1, BuildingBlock: MIFKUJ_clean_sbu_0, # of connection points: 6
#     Node 28, Type 1, BuildingBlock: MIFKUJ_clean_sbu_0, # of connection points: 6
#     Node 29, Type 1, BuildingBlock: MIFKUJ_clean_sbu_0, # of connection points: 6
#     Node 30, Type 1, BuildingBlock: MIFKUJ_clean_sbu_0, # of connection points: 6
#     Node 31, Type 1, BuildingBlock: MIFKUJ_clean_sbu_0, # of connection points: 6
#     Node 32, Type 1, BuildingBlock: MIFKUJ_clean_sbu_0, # of connection points: 6
#     Node 33, Type 1, BuildingBlock: MIFKUJ_clean_sbu_0, # of connection points: 6
#     Node 34, Type 1, BuildingBlock: MIFKUJ_clean_sbu_0, # of connection points: 6
#     Node 35, Type 1, BuildingBlock: MIFKUJ_clean_sbu_0, # of connection points: 6
#     Node 36, Type 1, BuildingBlock: MIFKUJ_clean_sbu_0, # of connection points: 6
#     Node 37, Type 1, BuildingBlock: MIFKUJ_clean_sbu_0, # of connection points: 6
#     Node 38, Type 1, BuildingBlock: MIFKUJ_clean_sbu_0, # of connection points: 6
#     Node 39, Type 1, BuildingBlock: MIFKUJ_clean_sbu_0, # of connection points: 6
#     Edge 40, Type (0, 1), BuildingBlock: AJUNOK_clean_linker_0, # of connection points: 2
#     Edge 41, Type (0, 1), BuildingBlock: AJUNOK_clean_linker_0, # of connection points: 2
#     Edge 42, Type (0, 1), BuildingBlock: AJUNOK_clean_linker_0, # of connection points: 2
#     Edge 43, Type (0, 1), BuildingBlock: AJUNOK_clean_linker_0, # of connection points: 2
#     Edge 44, Type (0, 1), BuildingBlock: AJUNOK_clean_linker_0, # of connection points: 2
#     Edge 45, Type (0, 1), BuildingBlock: AJUNOK_clean_linker_0, # of connection points: 2
#     Edge 46, Type (0, 1), BuildingBlock: AJUNOK_clean_linker_0, # of connection points: 2
#     Edge 47, Type (0, 1), BuildingBlock: AJUNOK_clean_linker_0, # of connection points: 2
#     Edge 48, Type (0, 1), BuildingBlock: AJUNOK_clean_linker_0, # of connection points: 2
#     Edge 49, Type (0, 1), BuildingBlock: AJUNOK_clean_linker_0, # of connection points: 2
#     Edge 50, Type (0, 1), BuildingBlock: AJUNOK_clean_linker_0, # of connection points: 2
#     Edge 51, Type (0, 1), BuildingBlock: AJUNOK_clean_linker_0, # of connection points: 2
#     Edge 52, Type (0, 1), BuildingBlock: AJUNOK_clean_linker_0, # of connection points: 2
#     Edge 53, Type (0, 1), BuildingBlock: AJUNOK_clean_linker_0, # of connection points: 2
#     Edge 54, Type (0, 1), BuildingBlock: AJUNOK_clean_linker_0, # of connection points: 2
#     Edge 55, Type (0, 1), BuildingBlock: AJUNOK_clean_linker_0, # of connection points: 2
#     Edge 56, Type (0, 1), BuildingBlock: AJUNOK_clean_linker_0, # of connection points: 2
#     Edge 57, Type (0, 1), BuildingBlock: AJUNOK_clean_linker_0, # of connection points: 2
#     Edge 58, Type (0, 1), BuildingBlock: AJUNOK_clean_linker_0, # of connection points: 2
#     Edge 59, Type (0, 1), BuildingBlock: AJUNOK_clean_linker_0, # of connection points: 2
#     Edge 60, Type (0, 1), BuildingBlock: AJUNOK_clean_linker_0, # of connection points: 2
#     Edge 61, Type (0, 1), BuildingBlock: AJUNOK_clean_linker_0, # of connection points: 2
#     Edge 62, Type (0, 1), BuildingBlock: AJUNOK_clean_linker_0, # of connection points: 2
#     Edge 63, Type (0, 1), BuildingBlock: AJUNOK_clean_linker_0, # of connection points: 2
#     Edge 64, Type (0, 1), BuildingBlock: AJUNOK_clean_linker_0, # of connection points: 2
#     Edge 65, Type (0, 1), BuildingBlock: AJUNOK_clean_linker_0, # of connection points: 2
#     Edge 66, Type (0, 1), BuildingBlock: AJUNOK_clean_linker_0, # of connection points: 2
#     Edge 67, Type (0, 1), BuildingBlock: AJUNOK_clean_linker_0, # of connection points: 2
#     Edge 68, Type (0, 1), BuildingBlock: AJUNOK_clean_linker_0, # of connection points: 2
#     Edge 69, Type (0, 1), BuildingBlock: AJUNOK_clean_linker_0, # of connection points: 2
#     Edge 70, Type (0, 1), BuildingBlock: AJUNOK_clean_linker_0, # of connection points: 2
#     Edge 71, Type (0, 1), BuildingBlock: AJUNOK_clean_linker_0, # of connection points: 2
#     Edge 72, Type (0, 1), BuildingBlock: AJUNOK_clean_linker_0, # of connection points: 2
#     Edge 73, Type (0, 1), BuildingBlock: AJUNOK_clean_linker_0, # of connection points: 2
#     Edge 74, Type (0, 1), BuildingBlock: AJUNOK_clean_linker_0, # of connection points: 2
#     Edge 75, Type (0, 1), BuildingBlock: AJUNOK_clean_linker_0, # of connection points: 2
#     Edge 76, Type (0, 1), BuildingBlock: AJUNOK_clean_linker_0, # of connection points: 2
#     Edge 77, Type (0, 1), BuildingBlock: AJUNOK_clean_linker_0, # of connection points: 2
#     Edge 78, Type (0, 1), BuildingBlock: AJUNOK_clean_linker_0, # of connection points: 2
#     Edge 79, Type (0, 1), BuildingBlock: AJUNOK_clean_linker_0, # of connection points: 2
#     Edge 80, Type (0, 1), BuildingBlock: AJUNOK_clean_linker_0, # of connection points: 2
#     Edge 81, Type (0, 1), BuildingBlock: AJUNOK_clean_linker_0, # of connection points: 2
#     Edge 82, Type (0, 1), BuildingBlock: AJUNOK_clean_linker_0, # of connection points: 2
#     Edge 83, Type (0, 1), BuildingBlock: AJUNOK_clean_linker_0, # of connection points: 2
#     Edge 84, Type (0, 1), BuildingBlock: AJUNOK_clean_linker_0, # of connection points: 2
#     Edge 85, Type (0, 1), BuildingBlock: AJUNOK_clean_linker_0, # of connection points: 2
#     Edge 86, Type (0, 1), BuildingBlock: AJUNOK_clean_linker_0, # of connection points: 2
#     Edge 87, Type (0, 1), BuildingBlock: AJUNOK_clean_linker_0, # of connection points: 2
#     Edge 88, Type (0, 1), BuildingBlock: AJUNOK_clean_linker_0, # of connection points: 2
#     Edge 89, Type (0, 1), BuildingBlock: AJUNOK_clean_linker_0, # of connection points: 2
#     Edge 90, Type (0, 1), BuildingBlock: AJUNOK_clean_linker_0, # of connection points: 2
#     Edge 91, Type (0, 1), BuildingBlock: AJUNOK_clean_linker_0, # of connection points: 2
#     Edge 92, Type (0, 1), BuildingBlock: AJUNOK_clean_linker_0, # of connection points: 2
#     Edge 93, Type (0, 1), BuildingBlock: AJUNOK_clean_linker_0, # of connection points: 2
#     Edge 94, Type (0, 1), BuildingBlock: AJUNOK_clean_linker_0, # of connection points: 2
#     Edge 95, Type (0, 1), BuildingBlock: AJUNOK_clean_linker_0, # of connection points: 2
#     Edge 96, Type (0, 1), BuildingBlock: AJUNOK_clean_linker_0, # of connection points: 2
#     Edge 97, Type (0, 1), BuildingBlock: AJUNOK_clean_linker_0, # of connection points: 2
#     Edge 98, Type (0, 1), BuildingBlock: AJUNOK_clean_linker_0, # of connection points: 2
#     Edge 99, Type (0, 1), BuildingBlock: AJUNOK_clean_linker_0, # of connection points: 2
#     Edge 100, Type (0, 1), BuildingBlock: AJUNOK_clean_linker_0, # of connection points: 2
#     Edge 101, Type (0, 1), BuildingBlock: AJUNOK_clean_linker_0, # of connection points: 2
#     Edge 102, Type (0, 1), BuildingBlock: AJUNOK_clean_linker_0, # of connection points: 2
#     Edge 103, Type (0, 1), BuildingBlock: AJUNOK_clean_linker_0, # of connection points: 2
#     Edge 104, Type (0, 1), BuildingBlock: AJUNOK_clean_linker_0, # of connection points: 2
#     Edge 105, Type (0, 1), BuildingBlock: AJUNOK_clean_linker_0, # of connection points: 2
#     Edge 106, Type (0, 1), BuildingBlock: AJUNOK_clean_linker_0, # of connection points: 2
#     Edge 107, Type (0, 1), BuildingBlock: AJUNOK_clean_linker_0, # of connection points: 2
#     Edge 108, Type (0, 1), BuildingBlock: AJUNOK_clean_linker_0, # of connection points: 2
#     Edge 109, Type (0, 1), BuildingBlock: AJUNOK_clean_linker_0, # of connection points: 2
#     Edge 110, Type (0, 1), BuildingBlock: AJUNOK_clean_linker_0, # of connection points: 2
#     Edge 111, Type (0, 1), BuildingBlock: AJUNOK_clean_linker_0, # of connection points: 2
#     Edge 112, Type (0, 1), BuildingBlock: AJUNOK_clean_linker_0, # of connection points: 2
#     Edge 113, Type (0, 1), BuildingBlock: AJUNOK_clean_linker_0, # of connection points: 2
#     Edge 114, Type (0, 1), BuildingBlock: AJUNOK_clean_linker_0, # of connection points: 2
#     Edge 115, Type (0, 1), BuildingBlock: AJUNOK_clean_linker_0, # of connection points: 2
#     Edge 116, Type (0, 1), BuildingBlock: AJUNOK_clean_linker_0, # of connection points: 2
#     Edge 117, Type (0, 1), BuildingBlock: AJUNOK_clean_linker_0, # of connection points: 2
#     Edge 118, Type (0, 1), BuildingBlock: AJUNOK_clean_linker_0, # of connection points: 2
#     Edge 119, Type (0, 1), BuildingBlock: AJUNOK_clean_linker_0, # of connection points: 2
#     Edge 120, Type (0, 1), BuildingBlock: AJUNOK_clean_linker_0, # of connection points: 2
#     Edge 121, Type (0, 1), BuildingBlock: AJUNOK_clean_linker_0, # of connection points: 2
#     Edge 122, Type (0, 1), BuildingBlock: AJUNOK_clean_linker_0, # of connection points: 2
#     Edge 123, Type (0, 1), BuildingBlock: AJUNOK_clean_linker_0, # of connection points: 2
#     Edge 124, Type (0, 1), BuildingBlock: AJUNOK_clean_linker_0, # of connection points: 2
#     Edge 125, Type (0, 1), BuildingBlock: AJUNOK_clean_linker_0, # of connection points: 2
#     Edge 126, Type (0, 1), BuildingBlock: AJUNOK_clean_linker_0, # of connection points: 2
#     Edge 127, Type (0, 1), BuildingBlock: AJUNOK_clean_linker_0, # of connection points: 2
#     Edge 128, Type (0, 1), BuildingBlock: AJUNOK_clean_linker_0, # of connection points: 2
#     Edge 129, Type (0, 1), BuildingBlock: AJUNOK_clean_linker_0, # of connection points: 2
#     Edge 130, Type (0, 1), BuildingBlock: AJUNOK_clean_linker_0, # of connection points: 2
#     Edge 131, Type (0, 1), BuildingBlock: AJUNOK_clean_linker_0, # of connection points: 2
#     Edge 132, Type (0, 1), BuildingBlock: AJUNOK_clean_linker_0, # of connection points: 2
#     Edge 133, Type (0, 1), BuildingBlock: AJUNOK_clean_linker_0, # of connection points: 2
#     Edge 134, Type (0, 1), BuildingBlock: AJUNOK_clean_linker_0, # of connection points: 2
#     Edge 135, Type (0, 1), BuildingBlock: AJUNOK_clean_linker_0, # of connection points: 2
# Relax obj value: 0.133
# Max RMSD: 0.281
# Mean RMSD: 0.182
data_MOF--net-gar--node1-UXUYUI_clean_sbu_0--node2-MIFKUJ_clean_sbu_0--edge1-AJUNOK_clean_linker_0
_symmetry_space_group_name_H-M    P1
_symmetry_Int_Tables_number       1
_symmetry_cell_setting            triclinic
loop_
_symmetry_equiv_pos_as_xyz
'x, y, z'
_cell_length_a     54.939432
_cell_length_b     54.955287
_cell_length_c     53.00624
_cell_angle_alpha  94.640519
_cell_angle_beta   94.642822
_cell_angle_gamma 99.02462
loop_
_atom_site_label
_atom_site_type_symbol
_atom_site_fract_x
_atom_site_fract_y
_atom_site_fract_z
_atom_type_partial_charge
Li0 Li 0.00391 0.27383 0.38815 0.0
Li1 Li 0.02925 0.29814 0.42538 0.0
Li2 Li 0.04751 0.2719 0.39275 0.0
Li3 Li 0.02152 0.25279 0.42287 0.0
C4 C 0.02272 0.31616 0.37123 0.0
N5 N 0.00276 0.34449 0.33678 0.0
C6 C 0.01437 0.33785 0.37978 0.0
C7 C 0.02117 0.30902 0.34517 0.0
C8 C 0.00428 0.35189 0.36206 0.0
C9 C 0.01093 0.32355 0.32805 0.0
C10 C 0.97907 0.26456 0.43741 0.0
C11 C 0.96307 0.25445 0.477 0.0
N12 N 0.9429 0.24008 0.46384 0.0
C13 C 0.9581 0.2498 0.42428 0.0
C14 C 0.98153 0.26703 0.46399 0.0
C15 C 0.94005 0.23754 0.43798 0.0
C16 C 0.96668 0.2533 0.34903 0.0
N17 N 0.97488 0.27342 0.36592 0.0
C18 C 0.93751 0.28959 0.35689 0.0
C19 C 0.96104 0.29161 0.36981 0.0
C20 C 0.92812 0.26843 0.34027 0.0
C21 C 0.94318 0.25041 0.33593 0.0
H22 H 0.97774 0.2388 0.34684 0.0
H23 H 0.96769 0.30699 0.38399 0.0
C24 C 0.0535 0.34413 0.45266 0.0
N25 N 0.03185 0.32823 0.44643 0.0
C26 C 0.05346 0.36737 0.46564 0.0
C27 C 0.00907 0.35684 0.46612 0.0
C28 C 0.00997 0.33392 0.4533 0.0
C29 C 0.03089 0.37406 0.47186 0.0
H30 H 0.0706 0.33912 0.44677 0.0
H31 H 0.99303 0.32102 0.44788 0.0
C32 C 0.02778 0.22756 0.36938 0.0
N33 N 0.04573 0.19474 0.33625 0.0
C34 C 0.03552 0.20638 0.378 0.0
C35 C 0.029 0.23195 0.34387 0.0
C36 C 0.04456 0.19002 0.36096 0.0
C37 C 0.0382 0.21517 0.32744 0.0
C38 C 0.06641 0.27487 0.45371 0.0
C39 C 0.0885 0.26522 0.45535 0.0
C40 C 0.05754 0.28424 0.47585 0.0
C41 C 0.10123 0.26487 0.47919 0.0
C42 C 0.07083 0.28359 0.49933 0.0
N43 N 0.0922 0.27398 0.50051 0.0
C44 C 0.08468 0.28467 0.35906 0.0
C45 C 0.0879 0.24913 0.3808 0.0
C46 C 0.10609 0.28196 0.34722 0.0
N47 N 0.0762 0.26844 0.37563 0.0
C48 C 0.109 0.24543 0.36903 0.0
C49 C 0.11874 0.2623 0.35243 0.0
H50 H 0.07509 0.29994 0.35537 0.0
H51 H 0.08086 0.23661 0.3942 0.0
C52 C 0.99577 0.20653 0.42946 0.0
N53 N 0.01479 0.22386 0.44072 0.0
C54 C 0.991 0.18326 0.43843 0.0
C55 C 0.02492 0.19621 0.47105 0.0
C56 C 0.02892 0.21935 0.46157 0.0
C57 C 0.00627 0.17759 0.45891 0.0
H58 H 0.98498 0.21044 0.41274 0.0
H59 H 0.04397 0.23314 0.4703 0.0
O60 O 0.03241 0.30202 0.38829 0.0
O61 O 0.99713 0.27644 0.42435 0.0
O62 O 0.01908 0.24393 0.38582 0.0
O63 O 0.05385 0.27549 0.43049 0.0
H64 H 0.01553 0.34373 0.39986 0.0
H65 H 0.02771 0.29239 0.33824 0.0
H66 H 0.99765 0.36866 0.3684 0.0
H67 H 0.00949 0.31817 0.30783 0.0
H68 H 0.96479 0.25612 0.49756 0.0
H69 H 0.9559 0.24757 0.40373 0.0
H70 H 0.99752 0.27849 0.47447 0.0
H71 H 0.92381 0.22595 0.42805 0.0
H72 H 0.92615 0.30355 0.36114 0.0
H73 H 0.93636 0.23371 0.32346 0.0
H74 H 0.07058 0.38037 0.46968 0.0
H75 H 0.99137 0.36145 0.47069 0.0
H76 H 0.0349 0.20274 0.3977 0.0
H77 H 0.02304 0.2482 0.33687 0.0
H78 H 0.05074 0.17363 0.3674 0.0
H79 H 0.03937 0.21841 0.30768 0.0
H80 H 0.09572 0.25804 0.43839 0.0
H81 H 0.04054 0.29181 0.47496 0.0
H82 H 0.11831 0.25739 0.48075 0.0
H83 H 0.06413 0.2907 0.51663 0.0
H84 H 0.11305 0.2955 0.33469 0.0
H85 H 0.11771 0.22965 0.37312 0.0
H86 H 0.97614 0.16952 0.42881 0.0
H87 H 0.03716 0.19251 0.48685 0.0
Li88 Li 0.00667 0.77387 0.63326 0.0
Li89 Li 0.02869 0.75471 0.66537 0.0
Li90 Li 1.00181 0.72834 0.63178 0.0
Li91 Li 0.98419 0.75266 0.66708 0.0
C92 C 0.04951 0.75723 0.61286 0.0
N93 N 0.08624 0.76718 0.58069 0.0
C94 C 0.07128 0.77362 0.62137 0.0
C95 C 0.04658 0.74565 0.58807 0.0
C96 C 0.08959 0.77846 0.6048 0.0
C97 C 0.06531 0.75101 0.57207 0.0
C98 C 0.02446 0.80355 0.68244 0.0
C99 C 0.03539 0.83433 0.71831 0.0
N100 N 0.05393 0.84599 0.70592 0.0
C101 C 0.0435 0.81591 0.67 0.0
C102 C 0.02024 0.81287 0.70673 0.0
C103 C 0.05824 0.8373 0.6822 0.0
C104 C 0.9975 0.82093 0.62417 0.0
N105 N 0.00737 0.80172 0.61378 0.0
C106 C 0.01897 0.82448 0.57878 0.0
C107 C 0.01775 0.80299 0.59137 0.0
C108 C 0.00945 0.84481 0.58943 0.0
C109 C 0.99839 0.84275 0.61231 0.0
H110 H 0.98928 0.8194 0.64196 0.0
H111 H 0.02515 0.78743 0.58319 0.0
C112 C 0.07446 0.74051 0.67332 0.0
N113 N 0.06014 0.75573 0.68409 0.0
C114 C 0.0986 0.74069 0.68369 0.0
C115 C 0.09261 0.77145 0.71685 0.0
C116 C 0.06844 0.7706 0.70584 0.0
C117 C 0.10814 0.75668 0.70542 0.0
H118 H 0.06725 0.72862 0.65623 0.0
H119 H 0.05659 0.78215 0.7144 0.0
C120 C 0.96114 0.74599 0.60641 0.0
N121 N 0.93264 0.73797 0.56023 0.0
C122 C 0.93534 0.74123 0.60563 0.0
C123 C 0.97246 0.74668 0.58376 0.0
C124 C 0.92124 0.73721 0.58207 0.0
C125 C 0.95773 0.74259 0.56059 0.0
C126 C 0.01554 0.71548 0.68851 0.0
C127 C 0.02696 0.69481 0.68366 0.0
C128 C 0.01745 0.72707 0.71322 0.0
C129 C 0.04028 0.68614 0.70366 0.0
C130 C 0.03095 0.71785 0.7327 0.0
N131 N 0.042 0.69776 0.72755 0.0
C132 C 0.02134 0.69004 0.60974 0.0
C133 C 0.97816 0.68543 0.59804 0.0
C134 C 0.0226 0.66776 0.59586 0.0
N135 N 0.9994 0.69834 0.61071 0.0
C136 C 0.97857 0.66289 0.58382 0.0
C137 C 1.00102 0.65374 0.58289 0.0
H138 H 0.03787 0.70066 0.62012 0.0
H139 H 0.96088 0.69234 0.59935 0.0
C140 C 0.94217 0.77026 0.6838 0.0
N141 N 0.95683 0.75275 0.68687 0.0
C142 C 0.92039 0.76931 0.69592 0.0
C143 C 0.92983 0.73296 0.71494 0.0
C144 C 0.95132 0.73452 0.70235 0.0
C145 C 0.91368 0.75008 0.71119 0.0
H146 H 0.94697 0.78445 0.67122 0.0
H147 H 0.96318 0.72071 0.70431 0.0
O148 O 0.03145 0.75195 0.62889 0.0
O149 O 0.00982 0.78254 0.67091 0.0
O150 O 0.97517 0.74954 0.62929 0.0
O151 O 0.00302 0.7247 0.66909 0.0
H152 H 0.07419 0.78233 0.64064 0.0
H153 H 0.02998 0.73276 0.58116 0.0
H154 H 0.10652 0.79112 0.61114 0.0
H155 H 0.06321 0.74228 0.5528 0.0
H156 H 0.03242 0.84172 0.73714 0.0
H157 H 0.04675 0.80917 0.65107 0.0
H158 H 0.00549 0.80353 0.71655 0.0
H159 H 0.07307 0.84703 0.6728 0.0
H160 H 0.02713 0.82512 0.56087 0.0
H161 H 0.99088 0.85804 0.62119 0.0
H162 H 0.10994 0.7289 0.67442 0.0
H163 H 0.09938 0.78426 0.73344 0.0
H164 H 0.92633 0.74055 0.62304 0.0
H165 H 0.99239 0.75017 0.58409 0.0
H166 H 0.90125 0.73346 0.58116 0.0
H167 H 0.96625 0.74304 0.5429 0.0
H168 H 0.02567 0.68565 0.66464 0.0
H169 H 0.00892 0.74326 0.71721 0.0
H170 H 0.0493 0.67022 0.70018 0.0
H171 H 0.03273 0.72673 0.75188 0.0
H172 H 0.04026 0.66136 0.59555 0.0
H173 H 0.96147 0.65236 0.57441 0.0
H174 H 0.90835 0.78275 0.69241 0.0
H175 H 0.92548 0.71806 0.72686 0.0
Li176 Li 0.50406 0.7737 0.88206 0.0
Li177 Li 0.53081 0.79879 0.91664 0.0
Li178 Li 0.54804 0.77409 0.88377 0.0
Li179 Li 0.52471 0.75459 0.91631 0.0
C180 C 0.51935 0.81507 0.86231 0.0
N181 N 0.4948 0.8397 0.82748 0.0
C182 C 0.50977 0.83618 0.87039 0.0
C183 C 0.51657 0.80657 0.8365 0.0
C184 C 0.4974 0.84837 0.85249 0.0
C185 C 0.50404 0.81925 0.81919 0.0
C186 C 0.48354 0.76362 0.93323 0.0
C187 C 0.47394 0.74858 0.97339 0.0
N188 N 0.45228 0.73541 0.96195 0.0
C189 C 0.46116 0.74996 0.92188 0.0
C190 C 0.48997 0.76299 0.95921 0.0
C191 C 0.44561 0.73582 0.93673 0.0
C192 C 0.46594 0.75193 0.84388 0.0
N193 N 0.47386 0.77181 0.86117 0.0
C194 C 0.43584 0.78711 0.8532 0.0
C195 C 0.45947 0.78936 0.86589 0.0
C196 C 0.42685 0.76635 0.83591 0.0
C197 C 0.44229 0.74879 0.83099 0.0
H198 H 0.47752 0.73798 0.84093 0.0
H199 H 0.46595 0.80454 0.88034 0.0
C200 C 0.55071 0.84924 0.93098 0.0
N201 N 0.53512 0.82945 0.93741 0.0
C202 C 0.55231 0.87242 0.94451 0.0
C203 C 0.52251 0.8542 0.97161 0.0
C204 C 0.52131 0.83144 0.9574 0.0
C205 C 0.53788 0.8751 0.96493 0.0
H206 H 0.5613 0.84715 0.91483 0.0
H207 H 0.50876 0.81556 0.96185 0.0
C208 C 0.53062 0.72863 0.86359 0.0
N209 N 0.55181 0.69689 0.83228 0.0
C210 C 0.54161 0.7098 0.87368 0.0
C211 C 0.53026 0.73121 0.83755 0.0
C212 C 0.55224 0.69396 0.85753 0.0
C213 C 0.54113 0.71502 0.82205 0.0
C214 C 0.57366 0.79332 0.93693 0.0
C215 C 0.59356 0.80717 0.92693 0.0
C216 C 0.57083 0.79693 0.96288 0.0
C217 C 0.61032 0.82447 0.9431 0.0
C218 C 0.58796 0.81445 0.9784 0.0
N219 N 0.60718 0.82774 0.96827 0.0
C220 C 0.58137 0.78528 0.84545 0.0
C221 C 0.59095 0.75567 0.87319 0.0
C222 C 0.60291 0.78369 0.83342 0.0
N223 N 0.57597 0.77149 0.86507 0.0
C224 C 0.61248 0.75335 0.86161 0.0
C225 C 0.61892 0.76773 0.84169 0.0
H226 H 0.56938 0.79804 0.83965 0.0
H227 H 0.58639 0.74521 0.88907 0.0
C228 C 0.50319 0.70783 0.92946 0.0
N229 N 0.52193 0.72712 0.9362 0.0
C230 C 0.50128 0.68688 0.94287 0.0
C231 C 0.53797 0.70605 0.96988 0.0
C232 C 0.53914 0.72667 0.956 0.0
C233 C 0.51892 0.68577 0.96327 0.0
H234 H 0.49004 0.70855 0.91332 0.0
H235 H 0.55404 0.7421 0.96069 0.0
O236 O 0.53121 0.80268 0.87958 0.0
O237 O 0.49927 0.77721 0.91892 0.0
O238 O 0.52053 0.74463 0.87915 0.0
O239 O 0.55669 0.77677 0.92131 0.0
H240 H 0.51157 0.84292 0.89031 0.0
H241 H 0.52377 0.79022 0.82994 0.0
H242 H 0.48978 0.86465 0.85849 0.0
H243 H 0.50163 0.81279 0.79918 0.0
H244 H 0.47879 0.74776 0.99346 0.0
H245 H 0.45591 0.75005 0.9018 0.0
H246 H 0.5074 0.77308 0.96825 0.0
H247 H 0.42828 0.7251 0.92817 0.0
H248 H 0.4242 0.80068 0.85795 0.0
H249 H 0.4358 0.73239 0.81798 0.0
H250 H 0.56427 0.88821 0.93876 0.0
H251 H 0.51073 0.85567 0.98689 0.0
H252 H 0.5422 0.70762 0.8938 0.0
H253 H 0.52187 0.7457 0.82944 0.0
H254 H 0.56092 0.67939 0.8651 0.0
H255 H 0.54111 0.7169 0.80189 0.0
H256 H 0.59591 0.80479 0.90687 0.0
H257 H 0.55534 0.78662 0.97086 0.0
H258 H 0.62576 0.83538 0.93562 0.0
H259 H 0.5859 0.81756 0.99847 0.0
H260 H 0.60751 0.79559 0.8186 0.0
H261 H 0.62431 0.74086 0.86862 0.0
H262 H 0.4867 0.67136 0.93676 0.0
H263 H 0.55201 0.70579 0.98539 0.0
Li264 Li 0.50683 0.27074 0.13172 0.0
Li265 Li 0.52986 0.25355 0.16511 0.0
Li266 Li 0.50197 0.22646 0.13079 0.0
Li267 Li 0.48449 0.24963 0.16406 0.0
C268 C 0.5455 0.26073 0.10989 0.0
N269 N 0.57059 0.2837 0.07291 0.0
C270 C 0.56686 0.2782 0.11676 0.0
C271 C 0.53705 0.25472 0.08423 0.0
C272 C 0.57925 0.28967 0.09778 0.0
C273 C 0.54995 0.2666 0.06581 0.0
C274 C 0.51216 0.28997 0.19387 0.0
C275 C 0.51508 0.28444 0.23862 0.0
N276 N 0.51656 0.30927 0.2441 0.0
C277 C 0.5137 0.31542 0.19993 0.0
C278 C 0.51287 0.27432 0.21335 0.0
C279 C 0.51592 0.32482 0.22545 0.0
C280 C 0.49119 0.2993 0.09282 0.0
N281 N 0.50844 0.2986 0.11252 0.0
C282 C 0.52715 0.34021 0.1085 0.0
C283 C 0.52636 0.31837 0.12036 0.0
C284 C 0.50905 0.34178 0.08872 0.0
C285 C 0.49118 0.32085 0.08053 0.0
H286 H 0.47696 0.28345 0.0872 0.0
H287 H 0.53961 0.31738 0.13635 0.0
C288 C 0.57051 0.23682 0.19013 0.0
N289 N 0.56064 0.25726 0.18491 0.0
C290 C 0.59468 0.2393 0.20166 0.0
C291 C 0.59769 0.28376 0.20267 0.0
C292 C 0.57348 0.28044 0.19125 0.0
C293 C 0.6087 0.26301 0.20756 0.0
H294 H 0.55999 0.21862 0.18434 0.0
H295 H 0.56529 0.29632 0.18644 0.0
C296 C 0.45691 0.23369 0.1103 0.0
N297 N 0.41936 0.20654 0.07687 0.0
C298 C 0.43472 0.22324 0.11919 0.0
C299 C 0.45986 0.23059 0.08435 0.0
C300 C 0.416 0.2095 0.102 0.0
C301 C 0.4407 0.21673 0.06777 0.0
C302 C 0.49433 0.20242 0.1776 0.0
C303 C 0.4716 0.18976 0.16613 0.0
C304 C 0.50563 0.19357 0.19879 0.0
C305 C 0.46058 0.16831 0.17591 0.0
C306 C 0.49402 0.17206 0.20805 0.0
N307 N 0.47193 0.15997 0.1965 0.0
C308 C 0.52375 0.19189 0.10445 0.0
C309 C 0.48031 0.17908 0.10192 0.0
C310 C 0.52667 0.16989 0.09096 0.0
N311 N 0.50091 0.19605 0.10988 0.0
C312 C 0.48241 0.15666 0.08837 0.0
C313 C 0.50592 0.15173 0.08326 0.0
H314 H 0.53989 0.20547 0.11114 0.0
H315 H 0.46231 0.1825 0.10657 0.0
C316 C 0.4447 0.27031 0.17801 0.0
N317 N 0.45745 0.25197 0.184 0.0
C318 C 0.42343 0.27345 0.1897 0.0
C319 C 0.42918 0.23928 0.21429 0.0
C320 C 0.45057 0.23695 0.20226 0.0
C321 C 0.41507 0.25747 0.20769 0.0
H322 H 0.45081 0.28214 0.16362 0.0
H323 H 0.46125 0.22281 0.20712 0.0
O324 O 0.53281 0.24967 0.1282 0.0
O325 O 0.50998 0.28059 0.16894 0.0
O326 O 0.47537 0.24736 0.12683 0.0
O327 O 0.50545 0.22351 0.16842 0.0
H328 H 0.57366 0.28303 0.13654 0.0
H329 H 0.52069 0.24106 0.07861 0.0
H330 H 0.59572 0.30335 0.10281 0.0
H331 H 0.54356 0.26222 0.04587 0.0
H332 H 0.51564 0.27255 0.25389 0.0
H333 H 0.5132 0.32776 0.18504 0.0
H334 H 0.51173 0.25459 0.20908 0.0
H335 H 0.51714 0.34449 0.23042 0.0
H336 H 0.54104 0.35608 0.1155 0.0
H337 H 0.47698 0.3214 0.06527 0.0
H338 H 0.60273 0.22288 0.20471 0.0
H339 H 0.60801 0.30233 0.20688 0.0
H340 H 0.432 0.22562 0.13917 0.0
H341 H 0.47682 0.23866 0.07711 0.0
H342 H 0.3988 0.2012 0.10865 0.0
H343 H 0.4428 0.21407 0.04766 0.0
H344 H 0.46244 0.19662 0.15008 0.0
H345 H 0.52313 0.20329 0.20807 0.0
H346 H 0.44296 0.15835 0.1672 0.0
H347 H 0.50254 0.16501 0.22444 0.0
H348 H 0.54508 0.16686 0.0871 0.0
H349 H 0.46601 0.14298 0.08279 0.0
H350 H 0.4132 0.2878 0.18417 0.0
H351 H 0.42319 0.22629 0.22774 0.0
Li352 Li 0.02788 0.79398 0.13382 0.0
Li353 Li 0.04885 0.77489 0.16817 0.0
Li354 Li 0.02195 0.74819 0.13222 0.0
Li355 Li 0.00452 0.77141 0.16587 0.0
C356 C 0.06862 0.77528 0.11229 0.0
N357 N 0.10013 0.78186 0.07438 0.0
C358 C 0.09253 0.78869 0.11792 0.0
C359 C 0.06094 0.7648 0.08745 0.0
C360 C 0.10812 0.79194 0.09848 0.0
C361 C 0.07708 0.76844 0.06854 0.0
C362 C 0.04414 0.81916 0.18873 0.0
C363 C 0.06196 0.83205 0.23175 0.0
N364 N 0.07502 0.8526 0.22362 0.0
C365 C 0.05759 0.8405 0.18084 0.0
C366 C 0.04619 0.81498 0.21442 0.0
C367 C 0.07314 0.85715 0.19876 0.0
C368 C 0.00718 0.83008 0.10812 0.0
N369 N 0.02887 0.8219 0.11414 0.0
C370 C 0.05144 0.85585 0.09588 0.0
C371 C 0.05075 0.83416 0.10801 0.0
C372 C 0.02941 0.86501 0.08992 0.0
C373 C 0.007 0.85164 0.09579 0.0
H374 H 0.99007 0.82027 0.1136 0.0
H375 H 0.0678 0.82777 0.11353 0.0
C376 C 0.08028 0.75599 0.20306 0.0
N377 N 0.07859 0.77607 0.19004 0.0
C378 C 0.10224 0.75408 0.21733 0.0
C379 C 0.12032 0.79387 0.20513 0.0
C380 C 0.09789 0.79508 0.19117 0.0
C381 C 0.12285 0.77283 0.21785 0.0
H382 H 0.06484 0.74099 0.2017 0.0
H383 H 0.0962 0.8108 0.18056 0.0
C384 C 0.98229 0.76517 0.10548 0.0
N385 N 0.95403 0.75596 0.05912 0.0
C386 C 0.95703 0.75572 0.10431 0.0
C387 C 0.99307 0.77027 0.08311 0.0
C388 C 0.94308 0.75108 0.08068 0.0
C389 C 0.97851 0.76542 0.05985 0.0
C390 C 0.0115 0.73051 0.18565 0.0
C391 C 0.99606 0.70833 0.17649 0.0
C392 C 0.01347 0.73851 0.21155 0.0
C393 C 0.98255 0.69472 0.19337 0.0
C394 C 0.99964 0.7244 0.22781 0.0
N395 N 0.98457 0.70299 0.21845 0.0
C396 C 0.03874 0.70715 0.10802 0.0
C397 C 0.99511 0.70479 0.10443 0.0
C398 C 0.03643 0.68288 0.09678 0.0
N399 N 0.01821 0.71741 0.11191 0.0
C400 C 0.99196 0.68047 0.09334 0.0
C401 C 0.01276 0.6691 0.0899 0.0
H402 H 0.05687 0.71742 0.1147 0.0
H403 H 0.97909 0.71302 0.10846 0.0
C404 C 0.97587 0.78813 0.20401 0.0
N405 N 0.97641 0.77033 0.1848 0.0
C406 C 0.95483 0.78793 0.21719 0.0
C407 C 0.93553 0.75086 0.19086 0.0
C408 C 0.95694 0.75175 0.17824 0.0
C409 C 0.93414 0.76938 0.21029 0.0
H410 H 0.99159 0.8027 0.20883 0.0
H411 H 0.95792 0.73781 0.16292 0.0
O412 O 0.05321 0.77171 0.1312 0.0
O413 O 0.02896 0.80254 0.17142 0.0
O414 O 0.99621 0.76975 0.1285 0.0
O415 O 0.02452 0.74436 0.16933 0.0
H416 H 0.09893 0.79671 0.13703 0.0
H417 H 0.04284 0.75371 0.08281 0.0
H418 H 0.12659 0.80246 0.10255 0.0
H419 H 0.07132 0.76049 0.04923 0.0
H420 H 0.06384 0.82896 0.25166 0.0
H421 H 0.05612 0.84415 0.16111 0.0
H422 H 0.03584 0.79867 0.22091 0.0
H423 H 0.08374 0.87368 0.19289 0.0
H424 H 0.06912 0.86579 0.09185 0.0
H425 H 0.9897 0.85839 0.09202 0.0
H426 H 0.10333 0.73775 0.22723 0.0
H427 H 0.13585 0.80867 0.20502 0.0
H428 H 0.94828 0.75192 0.12144 0.0
H429 H 0.01238 0.77822 0.08369 0.0
H430 H 0.92355 0.74362 0.07949 0.0
H431 H 0.98665 0.76927 0.04239 0.0
H432 H 0.99439 0.70175 0.15658 0.0
H433 H 0.02545 0.75551 0.219 0.0
H434 H 0.97042 0.6776 0.1865 0.0
H435 H 1.00087 0.73048 0.24787 0.0
H436 H 0.05287 0.67454 0.09484 0.0
H437 H 0.9734 0.6703 0.08843 0.0
H438 H 0.95461 0.80233 0.23234 0.0
H439 H 0.91993 0.73632 0.18492 0.0
Li440 Li 0.50229 0.77842 0.40476 0.0
Li441 Li 0.48103 0.75288 0.36738 0.0
Li442 Li 0.50266 0.73468 0.4014 0.0
Li443 Li 0.52534 0.75996 0.37265 0.0
C444 C 0.45866 0.76195 0.41862 0.0
N445 N 0.42971 0.78557 0.44961 0.0
C446 C 0.43826 0.77123 0.40801 0.0
C447 C 0.46426 0.7646 0.445 0.0
C448 C 0.42386 0.78311 0.42401 0.0
C449 C 0.44943 0.77664 0.46034 0.0
C450 C 0.51755 0.80133 0.35607 0.0
C451 C 0.53549 0.81318 0.31792 0.0
N452 N 0.54864 0.83392 0.33127 0.0
C453 C 0.53123 0.82277 0.36941 0.0
C454 C 0.51965 0.79649 0.3301 0.0
C455 C 0.54683 0.83902 0.35652 0.0
C456 C 0.51758 0.81577 0.44631 0.0
N457 N 0.50115 0.80791 0.4256 0.0
C458 C 0.48478 0.84566 0.42902 0.0
C459 C 0.48471 0.82213 0.41704 0.0
C460 C 0.50215 0.85473 0.44985 0.0
C461 C 0.51837 0.8393 0.45886 0.0
H462 H 0.53084 0.8043 0.45232 0.0
H463 H 0.47224 0.81558 0.40017 0.0
C464 C 0.4326 0.73146 0.34643 0.0
N465 N 0.45215 0.74945 0.34425 0.0
C466 C 0.40993 0.73129 0.33238 0.0
C467 C 0.42827 0.76755 0.31348 0.0
C468 C 0.45055 0.76703 0.32786 0.0
C469 C 0.40744 0.74999 0.31628 0.0
H470 H 0.43427 0.71803 0.36003 0.0
H471 H 0.46621 0.78135 0.32682 0.0
C472 C 0.5455 0.75145 0.42695 0.0
N473 N 0.57307 0.72793 0.46027 0.0
C474 C 0.56484 0.7401 0.41858 0.0
C475 C 0.54027 0.75095 0.45229 0.0
C476 C 0.57856 0.7283 0.43573 0.0
C477 C 0.55437 0.73891 0.46882 0.0
C478 C 0.48945 0.71141 0.34608 0.0
C479 C 0.47543 0.68999 0.35317 0.0
C480 C 0.48818 0.71624 0.32056 0.0
C481 C 0.46031 0.67375 0.33456 0.0
C482 C 0.4728 0.69956 0.30253 0.0
N483 N 0.4593 0.67884 0.30985 0.0
C484 C 0.48973 0.70093 0.43857 0.0
C485 C 0.51911 0.69056 0.41087 0.0
C486 C 0.49092 0.67944 0.45072 0.0
N487 N 0.50372 0.70599 0.41904 0.0
C488 C 0.52088 0.66893 0.42245 0.0
C489 C 0.50661 0.66311 0.44259 0.0
H490 H 0.47742 0.71337 0.44447 0.0
H491 H 0.52989 0.69502 0.39517 0.0
C492 C 0.57402 0.7821 0.36793 0.0
N493 N 0.5552 0.76458 0.35667 0.0
C494 C 0.59721 0.78465 0.35861 0.0
C495 C 0.581 0.75163 0.32575 0.0
C496 C 0.5581 0.74966 0.33577 0.0
C497 C 0.601 0.76888 0.33763 0.0
H498 H 0.57117 0.79355 0.38466 0.0
H499 H 0.5429 0.73569 0.32741 0.0
O500 O 0.47323 0.75061 0.40327 0.0
O501 O 0.50258 0.78489 0.36844 0.0
O502 O 0.53146 0.76256 0.41032 0.0
O503 O 0.50402 0.72777 0.36407 0.0
H504 H 0.43373 0.76955 0.38765 0.0
H505 H 0.4801 0.75776 0.45352 0.0
H506 H 0.40809 0.79047 0.41605 0.0
H507 H 0.45366 0.77896 0.48077 0.0
H508 H 0.53741 0.80959 0.29787 0.0
H509 H 0.53006 0.82672 0.38955 0.0
H510 H 0.50945 0.77984 0.31954 0.0
H511 H 0.55758 0.85563 0.36663 0.0
H512 H 0.47208 0.85706 0.42145 0.0
H513 H 0.53245 0.84587 0.47447 0.0
H514 H 0.39416 0.71758 0.33516 0.0
H515 H 0.42705 0.78213 0.30107 0.0
H516 H 0.56902 0.74007 0.39899 0.0
H517 H 0.52527 0.7595 0.45904 0.0
H518 H 0.5935 0.71933 0.42948 0.0
H519 H 0.55042 0.73823 0.48844 0.0
H520 H 0.476 0.68606 0.37286 0.0
H521 H 0.49867 0.73287 0.31478 0.0
H522 H 0.4493 0.65714 0.33979 0.0
H523 H 0.47152 0.70314 0.28274 0.0
H524 H 0.47919 0.6753 0.46581 0.0
H525 H 0.53315 0.65678 0.41561 0.0
H526 H 0.6122 0.79832 0.3681 0.0
H527 H 0.58335 0.73906 0.30965 0.0
Li528 Li 0.53324 0.29427 0.63954 0.0
Li529 Li 0.55453 0.27624 0.67444 0.0
Li530 Li 0.52996 0.24871 0.63778 0.0
Li531 Li 0.51004 0.2705 0.67081 0.0
C532 C 0.57601 0.27854 0.61945 0.0
N533 N 0.60856 0.28719 0.58277 0.0
C534 C 0.59875 0.29416 0.62556 0.0
C535 C 0.57006 0.26697 0.59476 0.0
C536 C 0.61489 0.2984 0.60674 0.0
C537 C 0.58668 0.27169 0.57646 0.0
C538 C 0.54781 0.31951 0.69433 0.0
C539 C 0.56523 0.33275 0.73739 0.0
N540 N 0.57798 0.35347 0.72925 0.0
C541 C 0.56099 0.34096 0.68639 0.0
C542 C 0.54983 0.31539 0.72004 0.0
C543 C 0.57617 0.3579 0.70435 0.0
C544 C 0.50949 0.3279 0.61438 0.0
N545 N 0.53225 0.32164 0.61939 0.0
C546 C 0.55078 0.35541 0.5978 0.0
C547 C 0.55275 0.33484 0.61129 0.0
C548 C 0.52749 0.36241 0.59256 0.0
C549 C 0.50665 0.34818 0.60084 0.0
H550 H 0.49352 0.31735 0.62133 0.0
H551 H 0.57073 0.32999 0.616 0.0
C552 C 0.58547 0.25805 0.71018 0.0
N553 N 0.58393 0.27817 0.69717 0.0
C554 C 0.60735 0.256 0.7245 0.0
C555 C 0.62562 0.29586 0.71265 0.0
C556 C 0.60323 0.29722 0.69864 0.0
C557 C 0.62806 0.27464 0.72512 0.0
H558 H 0.57004 0.24304 0.70863 0.0
H559 H 0.60162 0.31306 0.68819 0.0
C560 C 0.48946 0.26388 0.61001 0.0
N561 N 0.4624 0.25471 0.563 0.0
C562 C 0.46418 0.25438 0.60814 0.0
C563 C 0.50091 0.26897 0.58799 0.0
C564 C 0.45083 0.24979 0.58419 0.0
C565 C 0.48693 0.26416 0.5644 0.0
C566 C 0.51773 0.2294 0.68934 0.0
C567 C 0.50371 0.20711 0.67826 0.0
C568 C 0.51745 0.23611 0.71532 0.0
C569 C 0.48941 0.19198 0.69335 0.0
C570 C 0.50287 0.2205 0.72974 0.0
N571 N 0.48926 0.19895 0.71854 0.0
C572 C 0.55062 0.2086 0.61959 0.0
C573 C 0.50873 0.20625 0.60331 0.0
C574 C 0.55131 0.18508 0.60786 0.0
N575 N 0.52945 0.2185 0.61743 0.0
C576 C 0.50866 0.18275 0.59111 0.0
C577 C 0.52997 0.17171 0.59385 0.0
H578 H 0.56673 0.21872 0.63115 0.0
H579 H 0.49195 0.21417 0.60236 0.0
C580 C 0.47968 0.28586 0.70786 0.0
N581 N 0.48119 0.2681 0.68892 0.0
C582 C 0.45829 0.285 0.72056 0.0
C583 C 0.44057 0.24736 0.69435 0.0
C584 C 0.46227 0.24899 0.6821 0.0
C585 C 0.43832 0.26565 0.71371 0.0
H586 H 0.4949 0.30096 0.71278 0.0
H587 H 0.4639 0.23521 0.66685 0.0
O588 O 0.56015 0.27389 0.63779 0.0
O589 O 0.53301 0.30262 0.67701 0.0
O590 O 0.50278 0.26838 0.63334 0.0
O591 O 0.53149 0.2447 0.67481 0.0
H592 H 0.6038 0.30313 0.64456 0.0
H593 H 0.5529 0.2543 0.58976 0.0
H594 H 0.63245 0.31059 0.61119 0.0
H595 H 0.58224 0.26292 0.55727 0.0
H596 H 0.56709 0.32974 0.75732 0.0
H597 H 0.5596 0.34445 0.66659 0.0
H598 H 0.53979 0.29885 0.72647 0.0
H599 H 0.58654 0.37455 0.69847 0.0
H600 H 0.56744 0.36633 0.59252 0.0
H601 H 0.48839 0.35302 0.59735 0.0
H602 H 0.60836 0.23955 0.73424 0.0
H603 H 0.64121 0.31062 0.71267 0.0
H604 H 0.45496 0.25053 0.62499 0.0
H605 H 0.52028 0.27682 0.58911 0.0
H606 H 0.43128 0.24233 0.58246 0.0
H607 H 0.49558 0.26801 0.54721 0.0
H608 H 0.5037 0.20163 0.6582 0.0
H609 H 0.52819 0.25331 0.72417 0.0
H610 H 0.47837 0.17474 0.685 0.0
H611 H 0.50234 0.22554 0.74981 0.0
H612 H 0.56809 0.17713 0.61029 0.0
H613 H 0.49176 0.1728 0.58072 0.0
H614 H 0.45721 0.29951 0.73532 0.0
H615 H 0.42539 0.23246 0.68808 0.0
Li616 Li 0.00319 0.27121 0.90947 0.0
Li617 Li 0.98352 0.24583 0.87131 0.0
Li618 Li 0.00477 0.22746 0.90588 0.0
Li619 Li 0.02789 0.25374 0.87805 0.0
C620 C 0.95917 0.25273 0.92192 0.0
N621 N 0.92816 0.27373 0.95257 0.0
C622 C 0.93924 0.26256 0.91105 0.0
C623 C 0.96323 0.25345 0.94836 0.0
C624 C 0.9238 0.27313 0.92688 0.0
C625 C 0.94737 0.26418 0.96353 0.0
C626 C 0.01985 0.2952 0.86189 0.0
C627 C 0.03904 0.30831 0.82481 0.0
N628 N 0.05132 0.32905 0.83887 0.0
C629 C 0.03268 0.31664 0.87598 0.0
C630 C 0.02303 0.29099 0.83608 0.0
C631 C 0.04848 0.33354 0.86398 0.0
C632 C 0.01576 0.30908 0.95124 0.0
N633 N 1.00031 0.30041 0.92999 0.0
C634 C 0.98257 0.33742 0.93146 0.0
C635 C 0.98369 0.31387 0.92022 0.0
C636 C 0.99894 0.34735 0.95281 0.0
C637 C 0.01535 0.3327 0.96308 0.0
H638 H 0.02923 0.29825 0.95821 0.0
H639 H 0.9721 0.30674 0.90291 0.0
C640 C 0.93509 0.22526 0.84837 0.0
N641 N 0.9552 0.24296 0.84734 0.0
C642 C 0.9128 0.22635 0.83408 0.0
C643 C 0.93275 0.26312 0.81718 0.0
C644 C 0.95456 0.26135 0.83176 0.0
C645 C 0.91133 0.24598 0.81894 0.0
H646 H 0.93598 0.21115 0.86135 0.0
H647 H 0.97058 0.27546 0.83165 0.0
C648 C 0.04676 0.24637 0.93369 0.0
N649 N 0.07462 0.22607 0.96966 0.0
C650 C 0.06804 0.23723 0.92731 0.0
C651 C 0.03976 0.24537 0.95839 0.0
C652 C 0.08186 0.227 0.94577 0.0
C653 C 0.05405 0.23497 0.97629 0.0
C654 C 0.9929 0.20471 0.8505 0.0
C655 C 0.97919 0.1831 0.85755 0.0
C656 C 0.99159 0.20956 0.82498 0.0
C657 C 0.96434 0.16668 0.83889 0.0
C658 C 0.97648 0.1927 0.80691 0.0
N659 N 0.96329 0.17179 0.81418 0.0
C660 C 0.98931 0.19032 0.93932 0.0
C661 C 0.02462 0.18562 0.91766 0.0
C662 C 0.9904 0.1681 0.95025 0.0
N663 N 0.00618 0.19845 0.92319 0.0
C664 C 0.02659 0.16358 0.92839 0.0
C665 C 0.00898 0.15421 0.94443 0.0
H666 H 0.97465 0.20071 0.94317 0.0
H667 H 0.0376 0.19237 0.90454 0.0
C668 C 0.07661 0.27701 0.87431 0.0
N669 N 0.05813 0.2593 0.86271 0.0
C670 C 0.09968 0.2807 0.86473 0.0
C671 C 0.08408 0.24834 0.83103 0.0
C672 C 0.0613 0.24521 0.84132 0.0
C673 C 0.10372 0.26592 0.84311 0.0
H674 H 0.07353 0.28788 0.89135 0.0
H675 H 0.04633 0.23117 0.8326 0.0
O676 O 0.97474 0.24264 0.90677 0.0
O677 O 0.00471 0.27813 0.8734 0.0
O678 O 0.03276 0.2561 0.91579 0.0
O679 O 0.00718 0.22125 0.86853 0.0
H680 H 0.9359 0.26235 0.89065 0.0
H681 H 0.97856 0.24596 0.95707 0.0
H682 H 0.90843 0.28096 0.91874 0.0
H683 H 0.95035 0.26496 0.98402 0.0
H684 H 0.0418 0.3052 0.8049 0.0
H685 H 0.03072 0.32012 0.89601 0.0
H686 H 0.01357 0.27431 0.82497 0.0
H687 H 0.05857 0.35017 0.87467 0.0
H688 H 0.96975 0.34818 0.92292 0.0
H689 H 0.02867 0.33994 0.97915 0.0
H690 H 0.89655 0.21292 0.83603 0.0
H691 H 0.93232 0.27839 0.80553 0.0
H692 H 0.07365 0.23771 0.90824 0.0
H693 H 0.02336 0.25237 0.96363 0.0
H694 H 0.09829 0.21972 0.94107 0.0
H695 H 0.04877 0.23394 0.99545 0.0
H696 H 0.97984 0.17912 0.87722 0.0
H697 H 1.00184 0.22635 0.81925 0.0
H698 H 0.95358 0.14991 0.84408 0.0
H699 H 0.97517 0.19629 0.78712 0.0
H700 H 0.97637 0.16143 0.96239 0.0
H701 H 0.04149 0.15373 0.92378 0.0
H702 H 0.11436 0.29461 0.87439 0.0
H703 H 0.08661 0.23651 0.81441 0.0
Li704 Li 0.41258 0.02358 0.30252 0.0
Li705 Li 0.37809 0.99494 0.27709 0.0
Li706 Li 0.41011 0.01839 0.25724 0.0
Li707 Li 0.38048 0.03954 0.27542 0.0
C708 C 0.42664 0.97827 0.26713 0.0
N709 N 0.4529 0.94988 0.23758 0.0
C710 C 0.41415 0.95863 0.25016 0.0
C711 C 0.45251 0.9835 0.26898 0.0
C712 C 0.42776 0.94447 0.23544 0.0
C713 C 0.46544 0.96894 0.25389 0.0
C714 C 0.36471 0.01019 0.32485 0.0
C715 C 0.32934 0.00316 0.34905 0.0
N716 N 0.34133 0.98872 0.36374 0.0
C717 C 0.37674 0.99543 0.3403 0.0
C718 C 0.34087 0.01423 0.32934 0.0
C719 C 0.36458 0.98467 0.3598 0.0
C720 C 0.4325 0.04671 0.35136 0.0
N721 N 0.43378 0.02818 0.33316 0.0
C722 C 0.46432 0.01297 0.35945 0.0
C723 C 0.44929 0.01151 0.33674 0.0
C724 C 0.46302 0.03152 0.3788 0.0
C725 C 0.44697 0.04863 0.37461 0.0
H726 H 0.41975 0.05951 0.34807 0.0
H727 H 0.44934 0.9965 0.32232 0.0
C728 C 0.33741 0.9541 0.2623 0.0
N729 N 0.3583 0.96289 0.27806 0.0
C730 C 0.32588 0.9296 0.26201 0.0
C731 C 0.35737 0.92334 0.29421 0.0
C732 C 0.3682 0.94806 0.29403 0.0
C733 C 0.3361 0.91382 0.2778 0.0
H734 H 0.33011 0.96543 0.24897 0.0
H735 H 0.38522 0.95511 0.30581 0.0
C736 C 0.42277 0.0702 0.26592 0.0
N737 N 0.43423 0.11089 0.23907 0.0
C738 C 0.41251 0.06995 0.24087 0.0
C739 C 0.43887 0.09114 0.2773 0.0
C740 C 0.41853 0.0907 0.22762 0.0
C741 C 0.44444 0.11153 0.26341 0.0
C742 C 0.3498 0.0096 0.23701 0.0
C743 C 0.34299 0.00267 0.21114 0.0
C744 C 0.3316 0.01353 0.25317 0.0
C745 C 0.31805 0.99962 0.20188 0.0
C746 C 0.30687 0.01038 0.24317 0.0
N747 N 0.30066 0.00352 0.21795 0.0
C748 C 0.42148 0.00322 0.20834 0.0
C749 C 0.45384 0.03042 0.23354 0.0
C750 C 0.43613 0.00221 0.18815 0.0
N751 N 0.43049 0.01733 0.23032 0.0
C752 C 0.46904 0.03015 0.21376 0.0
C753 C 0.46004 0.01611 0.1907 0.0
H754 H 0.40288 0.99287 0.20654 0.0
H755 H 0.46057 0.04115 0.25145 0.0
C756 C 0.35874 0.07981 0.29429 0.0
N757 N 0.36205 0.0661 0.27273 0.0
C758 C 0.34475 0.0989 0.29305 0.0
C759 C 0.33769 0.08925 0.2475 0.0
C760 C 0.35229 0.07079 0.24955 0.0
C761 C 0.33355 0.1035 0.26945 0.0
H762 H 0.36704 0.07592 0.31242 0.0
H763 H 0.35554 0.05997 0.23258 0.0
O764 O 0.41358 0.99276 0.28122 0.0
O765 O 0.37626 0.02093 0.30565 0.0
O766 O 0.41735 0.05008 0.27933 0.0
O767 O 0.37427 0.01335 0.24606 0.0
H768 H 0.39416 0.95457 0.24801 0.0
H769 H 0.46252 0.99901 0.28148 0.0
H770 H 0.41831 0.92928 0.22218 0.0
H771 H 0.48543 0.9729 0.25501 0.0
H772 H 0.31088 0.00609 0.35271 0.0
H773 H 0.39516 0.99208 0.33712 0.0
H774 H 0.3314 0.02589 0.31781 0.0
H775 H 0.37363 0.97309 0.3718 0.0
H776 H 0.47593 0.99903 0.36234 0.0
H777 H 0.44526 0.06294 0.38935 0.0
H778 H 0.30994 0.92271 0.2485 0.0
H779 H 0.36596 0.91158 0.30642 0.0
H780 H 0.40011 0.0539 0.23167 0.0
H781 H 0.447 0.0916 0.29667 0.0
H782 H 0.41073 0.09074 0.20822 0.0
H783 H 0.45688 0.12786 0.27199 0.0
H784 H 0.35686 0.99976 0.19833 0.0
H785 H 0.33647 0.01889 0.27319 0.0
H786 H 0.31252 0.99423 0.1819 0.0
H787 H 0.29262 0.01335 0.25547 0.0
H788 H 0.42863 0.99133 0.17049 0.0
H789 H 0.48749 0.04094 0.21631 0.0
H790 H 0.343 0.11007 0.31038 0.0
H791 H 0.32956 0.09218 0.22892 0.0
Li792 Li 0.26774 0.15404 0.5269 0.0
Li793 Li 0.28559 0.1219 0.50262 0.0
Li794 Li 0.26449 0.15318 0.47935 0.0
Li795 Li 0.24028 0.11861 0.49923 0.0
C796 C 0.31083 0.1806 0.5101 0.0
N797 N 0.34292 0.22482 0.52213 0.0
C798 C 0.33476 0.18076 0.52138 0.0
C799 C 0.3034 0.20291 0.50453 0.0
C800 C 0.35066 0.20331 0.52745 0.0
C801 C 0.31984 0.22507 0.51085 0.0
C802 C 0.27225 0.10097 0.54425 0.0
C803 C 0.27874 0.05918 0.54938 0.0
N804 N 0.29185 0.06711 0.57222 0.0
C805 C 0.2856 0.10867 0.56788 0.0
C806 C 0.26861 0.076 0.53501 0.0
C807 C 0.29543 0.09129 0.5817 0.0
C808 C 0.25007 0.17852 0.56956 0.0
N809 N 0.27081 0.1734 0.55922 0.0
C810 C 0.29569 0.18939 0.59791 0.0
C811 C 0.29341 0.17899 0.57272 0.0
C812 C 0.2745 0.194 0.60938 0.0
C813 C 0.25154 0.18912 0.5947 0.0
H814 H 0.23223 0.17339 0.55867 0.0
H815 H 0.30951 0.17407 0.56446 0.0
C816 C 0.31637 0.087 0.48543 0.0
N817 N 0.31345 0.10415 0.50446 0.0
C818 C 0.33702 0.07489 0.48677 0.0
C819 C 0.35108 0.0979 0.52742 0.0
C820 C 0.33022 0.10958 0.52529 0.0
C821 C 0.35495 0.08056 0.50782 0.0
H822 H 0.30283 0.08291 0.46906 0.0
H823 H 0.32756 0.12327 0.5402 0.0
C824 C 0.22441 0.17327 0.50022 0.0
N825 N 0.19694 0.2109 0.49487 0.0
C826 C 0.20032 0.16811 0.48821 0.0
C827 C 0.23433 0.19751 0.50995 0.0
C828 C 0.18679 0.1874 0.48555 0.0
C829 C 0.2202 0.21629 0.50695 0.0
C830 C 0.24822 0.09909 0.45333 0.0
C831 C 0.23542 0.10644 0.43215 0.0
C832 C 0.24655 0.07392 0.45659 0.0
C833 C 0.22085 0.08848 0.41475 0.0
C834 C 0.23176 0.05651 0.43879 0.0
N835 N 0.2193 0.06409 0.41842 0.0
C836 C 0.28715 0.18175 0.44163 0.0
C837 C 0.2435 0.17792 0.43903 0.0
C838 C 0.28794 0.19525 0.42024 0.0
N839 N 0.26512 0.17325 0.45055 0.0
C840 C 0.24344 0.19129 0.41763 0.0
C841 C 0.26583 0.19981 0.40766 0.0
H842 H 0.30413 0.17769 0.45088 0.0
H843 H 0.22615 0.17068 0.44596 0.0
C844 C 0.20345 0.08368 0.51778 0.0
N845 N 0.20859 0.09695 0.4977 0.0
C846 C 0.17978 0.07012 0.51887 0.0
C847 C 0.16713 0.0837 0.4784 0.0
C848 C 0.19107 0.09686 0.478 0.0
C849 C 0.16108 0.07052 0.4993 0.0
H850 H 0.21743 0.08433 0.53348 0.0
H851 H 0.19536 0.10773 0.46237 0.0
O852 O 0.29502 0.15867 0.50402 0.0
O853 O 0.26289 0.1178 0.5302 0.0
O854 O 0.23793 0.15456 0.50296 0.0
O855 O 0.26242 0.11643 0.47068 0.0
H856 H 0.34098 0.16368 0.52551 0.0
H857 H 0.28525 0.20313 0.49515 0.0
H858 H 0.36916 0.2037 0.53635 0.0
H859 H 0.31428 0.24246 0.50669 0.0
H860 H 0.27617 0.03982 0.54238 0.0
H861 H 0.28848 0.12787 0.57542 0.0
H862 H 0.2581 0.06969 0.51692 0.0
H863 H 0.30591 0.09702 0.59995 0.0
H864 H 0.31372 0.19293 0.60864 0.0
H865 H 0.23478 0.19223 0.60299 0.0
H866 H 0.33903 0.06134 0.4714 0.0
H867 H 0.36444 0.10295 0.54392 0.0
H868 H 0.19222 0.14945 0.4808 0.0
H869 H 0.25261 0.20176 0.52001 0.0
H870 H 0.1682 0.18369 0.4761 0.0
H871 H 0.2277 0.23514 0.51433 0.0
H872 H 0.23661 0.12581 0.42923 0.0
H873 H 0.25657 0.06787 0.47267 0.0
H874 H 0.21074 0.09392 0.39834 0.0
H875 H 0.23021 0.03698 0.44115 0.0
H876 H 0.30559 0.20134 0.4131 0.0
H877 H 0.22596 0.19459 0.40872 0.0
H878 H 0.17584 0.06036 0.53541 0.0
H879 H 0.1533 0.08431 0.46279 0.0
Li880 Li 0.16205 0.04127 0.79545 0.0
Li881 Li 0.129 0.01646 0.81485 0.0
Li882 Li 0.15965 0.99703 0.7904 0.0
Li883 Li 0.12808 0.01647 0.76685 0.0
C884 C 0.18325 0.03216 0.84025 0.0
N885 N 0.21942 0.05939 0.87513 0.0
C886 C 0.17694 0.04207 0.86349 0.0
C887 C 0.20795 0.03593 0.83482 0.0
C888 C 0.1955 0.05582 0.88087 0.0
C889 C 0.22596 0.04982 0.85267 0.0
C890 C 0.12708 0.06836 0.80178 0.0
C891 C 0.12952 0.11115 0.79341 0.0
N892 N 0.13203 0.11793 0.81886 0.0
C893 C 0.12966 0.07577 0.82785 0.0
C894 C 0.12692 0.08618 0.7844 0.0
C895 C 0.1321 0.10091 0.8361 0.0
C896 C 0.18911 0.0798 0.77309 0.0
N897 N 0.18353 0.0732 0.79642 0.0
C898 C 0.20372 0.11307 0.81574 0.0
C899 C 0.19066 0.0893 0.81763 0.0
C900 C 0.209 0.12047 0.79176 0.0
C901 C 0.20182 0.10338 0.77033 0.0
H902 H 0.18287 0.06702 0.75641 0.0
H903 H 0.18544 0.08419 0.8359 0.0
C904 C 0.11518 0.99894 0.86159 0.0
N905 N 0.10845 0.01269 0.8428 0.0
C906 C 0.10128 0.99607 0.88247 0.0
C907 C 0.07328 0.021 0.86411 0.0
C908 C 0.0878 0.02349 0.8436 0.0
C909 C 0.08003 0.00724 0.88402 0.0
H910 H 0.13158 0.99043 0.86049 0.0
H911 H 0.08277 0.03435 0.82845 0.0
C912 C 0.17881 0.01028 0.74844 0.0
N913 N 0.20904 0.9884 0.71759 0.0
C914 C 0.16851 0.99473 0.72677 0.0
C915 C 0.20446 0.0149 0.7543 0.0
C916 C 0.18412 0.9838 0.71144 0.0
C917 C 0.21944 0.0036 0.7385 0.0
C918 C 0.09873 0.97609 0.78642 0.0
C919 C 0.09311 0.95049 0.78721 0.0
C920 C 0.07961 0.99011 0.78481 0.0
C921 C 0.06836 0.93929 0.78633 0.0
C922 C 0.05511 0.97823 0.784 0.0
N923 N 0.05003 0.95328 0.78477 0.0
C924 C 0.19718 0.96819 0.80439 0.0
C925 C 0.16953 0.95094 0.76854 0.0
C926 C 0.2098 0.94796 0.80245 0.0
N927 N 0.17742 0.96933 0.78756 0.0
C928 C 0.18174 0.93048 0.76577 0.0
C929 C 0.20216 0.92875 0.78291 0.0
H930 H 0.203 0.98283 0.81952 0.0
H931 H 0.15355 0.95206 0.75562 0.0
C932 C 0.11502 0.03612 0.72182 0.0
N933 N 0.10941 0.01571 0.73446 0.0
C934 C 0.10474 0.03668 0.69693 0.0
C935 C 0.08282 0.99521 0.6984 0.0
C936 C 0.09355 0.99544 0.72333 0.0
C937 C 0.0888 0.01584 0.68471 0.0
H938 H 0.12828 0.05165 0.73074 0.0
H939 H 0.08994 0.97908 0.73332 0.0
O940 O 0.16537 0.01847 0.82312 0.0
O941 O 0.12549 0.04389 0.7934 0.0
O942 O 0.16384 0.02075 0.76399 0.0
O943 O 0.12287 0.98732 0.78754 0.0
H944 H 0.15793 0.03924 0.86806 0.0
H945 H 0.21313 0.02837 0.81694 0.0
H946 H 0.19089 0.06366 0.89889 0.0
H947 H 0.24514 0.053 0.84866 0.0
H948 H 0.12961 0.12514 0.78017 0.0
H949 H 0.13017 0.06232 0.84159 0.0
H950 H 0.12504 0.08086 0.76419 0.0
H951 H 0.13424 0.10689 0.85622 0.0
H952 H 0.20867 0.12588 0.83266 0.0
H953 H 0.20552 0.10844 0.75151 0.0
H954 H 0.10716 0.98528 0.89736 0.0
H955 H 0.05735 0.03034 0.86472 0.0
H956 H 0.14868 0.99091 0.72201 0.0
H957 H 0.2127 0.02703 0.77091 0.0
H958 H 0.17641 0.9716 0.6947 0.0
H959 H 0.23932 0.00691 0.74286 0.0
H960 H 0.10774 0.93941 0.78851 0.0
H961 H 0.08364 0.00994 0.7841 0.0
H962 H 0.06372 0.91948 0.78691 0.0
H963 H 0.04012 0.98884 0.78276 0.0
H964 H 0.22535 0.94728 0.81616 0.0
H965 H 0.17484 0.91583 0.75082 0.0
H966 H 0.10972 0.05301 0.68711 0.0
H967 H 0.07087 0.97866 0.68951 0.0
Li968 Li 0.24122 0.90582 0.02054 0.0
Li969 Li 0.258 0.87164 0.03818 0.0
Li970 Li 0.28475 0.90528 0.01854 0.0
Li971 Li 0.25595 0.873 0.99177 0.0
C972 C 0.25969 0.92322 0.06792 0.0
N973 N 0.24416 0.95465 0.1044 0.0
C974 C 0.24708 0.91361 0.08773 0.0
C975 C 0.26472 0.94883 0.06689 0.0
C976 C 0.23931 0.9298 0.10594 0.0
C977 C 0.25661 0.96441 0.08544 0.0
C978 C 0.20996 0.84983 0.01653 0.0
C979 C 0.19432 0.80597 0.01123 0.0
N980 N 0.17387 0.81012 0.02265 0.0
C981 C 0.18854 0.85367 0.02779 0.0
C982 C 0.21265 0.8258 0.00783 0.0
C983 C 0.17061 0.83337 0.03088 0.0
C984 C 0.21543 0.94451 0.0076 0.0
N985 N 0.21694 0.92701 0.02411 0.0
C986 C 0.1821 0.938 0.04397 0.0
C987 C 0.20114 0.92397 0.04251 0.0
C988 C 0.17941 0.95543 0.02642 0.0
C989 C 0.19692 0.95921 0.00863 0.0
H990 H 0.2282 0.94668 0.99319 0.0
H991 H 0.20288 0.91017 0.05564 0.0
C992 C 0.27894 0.84165 0.07115 0.0
N993 N 0.25742 0.84964 0.0641 0.0
C994 C 0.2796 0.8246 0.08918 0.0
C995 C 0.23624 0.82528 0.09342 0.0
C996 C 0.23635 0.8421 0.07506 0.0
C997 C 0.25801 0.81608 0.10045 0.0
H998 H 0.29561 0.84843 0.06264 0.0
H999 H 0.21973 0.84943 0.06991 0.0
C1000 C 0.27264 0.92754 0.9774 0.0
N1001 N 0.29854 0.96365 0.95194 0.0
C1002 C 0.27827 0.92197 0.95255 0.0
C1003 C 0.27984 0.9516 0.98912 0.0
C1004 C 0.29146 0.94045 0.94004 0.0
C1005 C 0.29303 0.96956 0.976 0.0
C1006 C 0.29542 0.84903 0.00863 0.0
C1007 C 0.31905 0.85232 1.00012 0.0
C1008 C 0.28318 0.82506 0.0106 0.0
C1009 C 0.32968 0.83162 0.99301 0.0
C1010 C 0.29442 0.80482 0.00336 0.0
N1011 N 0.31723 0.80848 0.99473 0.0
C1012 C 0.32759 0.93865 0.04058 0.0
C1013 C 0.32963 0.92075 0.99872 0.0
C1014 C 0.3522 0.95036 0.04165 0.0
N1015 N 0.31702 0.92392 0.01944 0.0
C1016 C 0.35427 0.93188 0.99905 0.0
C1017 C 0.3659 0.94659 0.02085 0.0
H1018 H 0.31718 0.94064 0.05687 0.0
H1019 H 0.32076 0.90886 0.98221 0.0
C1020 C 0.23206 0.83958 0.94863 0.0
N1021 N 0.25334 0.85356 0.96007 0.0
C1022 C 0.23236 0.82514 0.92568 0.0
C1023 C 0.27624 0.84024 0.9267 0.0
C1024 C 0.27508 0.85427 0.94946 0.0
C1025 C 0.25472 0.82544 0.91452 0.0
H1026 H 0.21487 0.83973 0.95719 0.0
H1027 H 0.29155 0.86605 0.9586 0.0
O1028 O 0.26726 0.90763 0.04981 0.0
O1029 O 0.22784 0.86955 0.01361 0.0
O1030 O 0.26 0.90959 0.99007 0.0
O1031 O 0.2846 0.86917 0.01541 0.0
H1032 H 0.24317 0.89388 0.08894 0.0
H1033 H 0.27474 0.95662 0.05193 0.0
H1034 H 0.22939 0.9226 0.12127 0.0
H1035 H 0.26026 0.98426 0.08477 0.0
H1036 H 0.19629 0.78729 0.00466 0.0
H1037 H 0.18576 0.87208 0.03419 0.0
H1038 H 0.22851 0.82245 0.99818 0.0
H1039 H 0.15408 0.8361 0.03978 0.0
H1040 H 0.16899 0.93447 0.05797 0.0
H1041 H 0.19591 0.97289 0.99515 0.0
H1042 H 0.29684 0.81817 0.09426 0.0
H1043 H 0.21944 0.82 0.10241 0.0
H1044 H 0.27245 0.90361 0.94297 0.0
H1045 H 0.27544 0.9563 0.00821 0.0
H1046 H 0.29603 0.93635 0.92086 0.0
H1047 H 0.29887 0.98819 0.98494 0.0
H1048 H 0.32912 0.87063 0.9989 0.0
H1049 H 0.26542 0.82207 0.01812 0.0
H1050 H 0.34785 0.83395 0.98619 0.0
H1051 H 0.28507 0.7862 0.00476 0.0
H1052 H 0.36075 0.96127 0.05894 0.0
H1053 H 0.36434 0.92854 0.98271 0.0
H1054 H 0.21529 0.81437 0.91649 0.0
H1055 H 0.29379 0.84109 0.91858 0.0
Li1056 Li 0.24294 0.40432 0.04364 0.0
Li1057 Li 0.26187 0.37241 0.06551 0.0
Li1058 Li 0.28933 0.40799 0.04744 0.0
Li1059 Li 0.26456 0.37328 0.01946 0.0
C1060 C 0.26302 0.428 0.0924 0.0
N1061 N 0.25573 0.46601 0.12699 0.0
C1062 C 0.25032 0.42278 0.11365 0.0
C1063 C 0.27245 0.45254 0.08906 0.0
C1064 C 0.24669 0.44225 0.13083 0.0
C1065 C 0.26847 0.4715 0.10667 0.0
C1066 C 0.21622 0.35002 0.04527 0.0
C1067 C 0.19962 0.30747 0.04981 0.0
N1068 N 0.18056 0.31502 0.06148 0.0
C1069 C 0.19636 0.35734 0.05708 0.0
C1070 C 0.21777 0.32488 0.04138 0.0
C1071 C 0.17856 0.33937 0.06522 0.0
C1072 C 0.20691 0.42737 0.01722 0.0
N1073 N 0.21518 0.42244 0.04088 0.0
C1074 C 0.18372 0.4421 0.05895 0.0
C1075 C 0.20391 0.42947 0.06159 0.0
C1076 C 0.17478 0.44746 0.03475 0.0
C1077 C 0.18682 0.44003 0.01373 0.0
H1078 H 0.21595 0.42147 0.00096 0.0
H1079 H 0.21022 0.4249 0.08014 0.0
C1080 C 0.27713 0.33761 0.09897 0.0
N1081 N 0.2591 0.35131 0.09345 0.0
C1082 C 0.27586 0.32287 0.11939 0.0
C1083 C 0.23756 0.33652 0.12829 0.0
C1084 C 0.23949 0.35089 0.10766 0.0
C1085 C 0.25591 0.32225 0.13449 0.0
H1086 H 0.29279 0.33844 0.0878 0.0
H1087 H 0.22543 0.36199 0.10322 0.0
C1088 C 0.27171 0.43084 0.00551 0.0
N1089 N 0.28258 0.4742 0.98262 0.0
C1090 C 0.28133 0.4305 0.98189 0.0
C1091 C 0.26722 0.45319 0.01725 0.0
C1092 C 0.28684 0.45263 0.9707 0.0
C1093 C 0.27292 0.47492 0.00545 0.0
C1094 C 0.30431 0.35472 0.03587 0.0
C1095 C 0.3277 0.36196 0.02771 0.0
C1096 C 0.29367 0.32972 0.03294 0.0
C1097 C 0.33987 0.34408 0.01633 0.0
C1098 C 0.30642 0.3124 0.02146 0.0
N1099 N 0.32905 0.31988 0.01344 0.0
C1100 C 0.33203 0.44203 0.07229 0.0
C1101 C 0.33226 0.43141 0.02814 0.0
C1102 C 0.35548 0.45668 0.07315 0.0
N1103 N 0.3209 0.42977 0.04996 0.0
C1104 C 0.35564 0.44574 0.02815 0.0
C1105 C 0.36774 0.45848 0.05089 0.0
H1106 H 0.32287 0.44022 0.0895 0.0
H1107 H 0.32343 0.42097 0.01077 0.0
C1108 C 0.24631 0.33772 0.97617 0.0
N1109 N 0.26551 0.3551 0.98702 0.0
C1110 C 0.24692 0.32665 0.95149 0.0
C1111 C 0.28718 0.3512 0.94986 0.0
C1112 C 0.28583 0.36169 0.9745 0.0
C1113 C 0.26743 0.33365 0.93787 0.0
H1114 H 0.23019 0.33302 0.98634 0.0
H1115 H 0.30076 0.37569 0.98343 0.0
O1116 O 0.26675 0.40913 0.07538 0.0
O1117 O 0.23394 0.36738 0.03738 0.0
O1118 O 0.2663 0.40934 0.01681 0.0
O1119 O 0.29188 0.37201 0.04661 0.0
H1120 H 0.24316 0.40393 0.11677 0.0
H1121 H 0.28298 0.45695 0.07321 0.0
H1122 H 0.23669 0.43847 0.14723 0.0
H1123 H 0.2756 0.49057 0.10423 0.0
H1124 H 0.20065 0.28795 0.04704 0.0
H1125 H 0.19481 0.3767 0.06016 0.0
H1126 H 0.23278 0.31884 0.03192 0.0
H1127 H 0.16318 0.3448 0.07455 0.0
H1128 H 0.17488 0.44722 0.07568 0.0
H1129 H 0.18092 0.4441 0.99477 0.0
H1130 H 0.29074 0.31264 0.12378 0.0
H1131 H 0.22188 0.33668 0.13941 0.0
H1132 H 0.28462 0.41338 0.9723 0.0
H1133 H 0.2591 0.45373 0.03512 0.0
H1134 H 0.29446 0.45264 0.95251 0.0
H1135 H 0.26957 0.49233 0.01438 0.0
H1136 H 0.33634 0.38118 0.03005 0.0
H1137 H 0.27574 0.32378 0.03942 0.0
H1138 H 0.35792 0.34945 0.00981 0.0
H1139 H 0.29832 0.293 0.01895 0.0
H1140 H 0.36393 0.46645 0.09106 0.0
H1141 H 0.36448 0.44628 0.01062 0.0
H1142 H 0.23108 0.31357 0.94277 0.0
H1143 H 0.3033 0.35713 0.94005 0.0
Li1144 Li 0.79315 0.15727 0.05596 0.0
Li1145 Li 0.80477 0.12441 0.02892 0.0
Li1146 Li 0.78974 0.16126 0.01049 0.0
Li1147 Li 0.76188 0.12842 0.02923 0.0
C1148 C 0.83919 0.17811 0.04345 0.0
N1149 N 0.878 0.21432 0.06393 0.0
C1150 C 0.85721 0.17249 0.0612 0.0
C1151 C 0.84097 0.2021 0.03599 0.0
C1152 C 0.87667 0.19107 0.07138 0.0
C1153 C 0.86072 0.22016 0.0466 0.0
C1154 C 0.79378 0.10475 0.07153 0.0
C1155 C 0.79904 0.0628 0.07761 0.0
N1156 N 0.81429 0.07117 0.0991 0.0
C1157 C 0.80946 0.11295 0.0937 0.0
C1158 C 0.78843 0.07948 0.06344 0.0
C1159 C 0.81964 0.09567 0.10737 0.0
C1160 C 0.777 0.16726 0.10183 0.0
N1161 N 0.79629 0.17566 0.08867 0.0
C1162 C 0.81077 0.20861 0.12139 0.0
C1163 C 0.81301 0.19609 0.09782 0.0
C1164 C 0.79083 0.20034 0.13525 0.0
C1165 C 0.77355 0.17967 0.12482 0.0
H1166 H 0.76365 0.15136 0.09384 0.0
H1167 H 0.82775 0.20309 0.08683 0.0
C1168 C 0.82468 0.08762 0.00083 0.0
N1169 N 0.82702 0.10128 0.02374 0.0
C1170 C 0.84051 0.07056 0.99596 0.0
C1171 C 0.86084 0.08185 0.03837 0.0
C1172 C 0.8448 0.09885 0.04233 0.0
C1173 C 0.85887 0.06756 0.01489 0.0
H1174 H 0.81061 0.09005 0.98622 0.0
H1175 H 0.84657 0.11008 0.06025 0.0
C1176 C 0.75577 0.18285 0.04762 0.0
N1177 N 0.73905 0.21924 0.07737 0.0
C1178 C 0.73368 0.1774 0.05892 0.0
C1179 C 0.76925 0.20685 0.05127 0.0
C1180 C 0.72556 0.19606 0.07392 0.0
C1181 C 0.76052 0.22497 0.06644 0.0
C1182 C 0.76297 0.11111 0.98202 0.0
C1183 C 0.75103 0.12214 0.9628 0.0
C1184 C 0.75607 0.08586 0.98433 0.0
C1185 C 0.73217 0.10771 0.94628 0.0
C1186 C 0.73709 0.07208 0.96746 0.0
N1187 N 0.72563 0.08321 0.94895 0.0
C1188 C 0.80752 0.1792 0.96642 0.0
C1189 C 0.77645 0.19964 0.98292 0.0
C1190 C 0.80821 0.19341 0.94578 0.0
N1191 N 0.79171 0.18248 0.98432 0.0
C1192 C 0.77673 0.21446 0.96277 0.0
C1193 C 0.79265 0.21133 0.94378 0.0
H1194 H 0.81911 0.16507 0.96789 0.0
H1195 H 0.76369 0.20147 0.99714 0.0
C1196 C 0.72201 0.09296 0.04115 0.0
N1197 N 0.72874 0.11192 0.02685 0.0
C1198 C 0.69721 0.08188 0.04013 0.0
C1199 C 0.68695 0.11003 0.00965 0.0
C1200 C 0.71185 0.12061 0.01135 0.0
C1201 C 0.67934 0.0905 0.02426 0.0
H1202 H 0.7358 0.08677 0.05369 0.0
H1203 H 0.71775 0.13598 1.00054 0.0
O1204 O 0.82031 0.16007 0.03287 0.0
O1205 O 0.7836 0.12135 0.05787 0.0
O1206 O 0.76438 0.16467 0.03344 0.0
O1207 O 0.78111 0.12501 0.99872 0.0
H1208 H 0.85609 0.15404 0.06719 0.0
H1209 H 0.82726 0.20674 0.02217 0.0
H1210 H 0.89069 0.18702 0.08522 0.0
H1211 H 0.86231 0.23882 0.04105 0.0
H1212 H 0.79519 0.04321 0.0715 0.0
H1213 H 0.81389 0.13244 0.10018 0.0
H1214 H 0.77641 0.07285 0.04627 0.0
H1215 H 0.83186 0.10174 0.12452 0.0
H1216 H 0.82439 0.22461 0.1286 0.0
H1217 H 0.75719 0.17327 0.13407 0.0
H1218 H 0.83835 0.05976 0.97766 0.0
H1219 H 0.87495 0.0802 0.05335 0.0
H1220 H 0.72309 0.15889 0.05639 0.0
H1221 H 0.78647 0.21132 0.04279 0.0
H1222 H 0.70858 0.19208 0.08292 0.0
H1223 H 0.77087 0.24357 0.06962 0.0
H1224 H 0.75612 0.14168 0.9608 0.0
H1225 H 0.76509 0.07708 0.99918 0.0
H1226 H 0.72269 0.11602 0.93138 0.0
H1227 H 0.73143 0.05256 0.96913 0.0
H1228 H 0.82017 0.18981 0.93113 0.0
H1229 H 0.76436 0.22796 0.96183 0.0
H1230 H 0.692 0.06721 0.05207 0.0
H1231 H 0.67374 0.11713 0.99712 0.0
Li1232 Li 0.15467 0.52573 0.26262 0.0
Li1233 Li 0.12119 0.50298 0.28526 0.0
Li1234 Li 0.15057 0.48154 0.26564 0.0
Li1235 Li 0.11832 0.49549 0.24005 0.0
C1236 C 0.174 0.50049 0.30998 0.0
N1237 N 0.20717 0.48144 0.34167 0.0
C1238 C 0.16595 0.48844 0.33077 0.0
C1239 C 0.19892 0.50299 0.30537 0.0
C1240 C 0.18302 0.47892 0.34656 0.0
C1241 C 0.2154 0.49318 0.32159 0.0
C1242 C 0.10467 0.5425 0.27247 0.0
C1243 C 0.06553 0.55025 0.28612 0.0
N1244 N 0.0771 0.57195 0.29897 0.0
C1245 C 0.11616 0.56489 0.28575 0.0
C1246 C 0.07913 0.53513 0.27256 0.0
C1247 C 0.1019 0.57952 0.29904 0.0
C1248 C 0.16889 0.57 0.24184 0.0
N1249 N 0.17476 0.55651 0.26115 0.0
C1250 C 0.20445 0.59034 0.28114 0.0
C1251 C 0.19238 0.56595 0.28042 0.0
C1252 C 0.198 0.60504 0.26202 0.0
C1253 C 0.18031 0.59453 0.24194 0.0
H1254 H 0.15447 0.56201 0.22703 0.0
H1255 H 0.19616 0.55498 0.29585 0.0
C1256 C 0.08216 0.48856 0.31471 0.0
N1257 N 0.10278 0.50553 0.31363 0.0
C1258 C 0.06851 0.48955 0.33567 0.0
C1259 C 0.09752 0.5256 0.35397 0.0
C1260 C 0.11059 0.52395 0.33257 0.0
C1261 C 0.07645 0.50798 0.35581 0.0
H1262 H 0.07655 0.474 0.29952 0.0
H1263 H 0.12718 0.53708 0.33119 0.0
C1264 C 0.17093 0.49021 0.22062 0.0
N1265 N 0.20487 0.47162 0.19199 0.0
C1266 C 0.16465 0.46695 0.20687 0.0
C1267 C 0.1944 0.50408 0.21972 0.0
C1268 C 0.18211 0.45785 0.19255 0.0
C1269 C 0.21132 0.49434 0.20514 0.0
C1270 C 0.09817 0.45197 0.25146 0.0
C1271 C 0.10645 0.43096 0.24088 0.0
C1272 C 0.07308 0.45391 0.2477 0.0
C1273 C 0.08945 0.41219 0.22681 0.0
C1274 C 0.05669 0.43477 0.23347 0.0
N1275 N 0.06514 0.41447 0.22342 0.0
C1276 C 0.15827 0.43903 0.28727 0.0
C1277 C 0.19105 0.45281 0.26279 0.0
C1278 C 0.1691 0.41869 0.29324 0.0
N1279 N 0.16892 0.45523 0.27171 0.0
C1280 C 0.20233 0.43242 0.26791 0.0
C1281 C 0.19095 0.4147 0.28276 0.0
H1282 H 0.14113 0.44185 0.29487 0.0
H1283 H 0.19997 0.46652 0.25163 0.0
C1284 C 0.08292 0.50972 0.20597 0.0
N1285 N 0.09591 0.49105 0.20998 0.0
C1286 C 0.06667 0.50846 0.18414 0.0
C1287 C 0.07717 0.46857 0.17095 0.0
C1288 C 0.0934 0.47072 0.19298 0.0
C1289 C 0.0637 0.48772 0.16624 0.0
H1290 H 0.08568 0.52599 0.21936 0.0
H1291 H 0.10414 0.45626 0.19633 0.0
O1292 O 0.15746 0.50939 0.29395 0.0
O1293 O 0.1184 0.52762 0.25983 0.0
O1294 O 0.15407 0.49963 0.23448 0.0
O1295 O 0.11451 0.47054 0.2654 0.0
H1296 H 0.14669 0.48624 0.33449 0.0
H1297 H 0.20536 0.512 0.28915 0.0
H1298 H 0.17705 0.46943 0.36265 0.0
H1299 H 0.2347 0.4948 0.31815 0.0
H1300 H 0.04579 0.5447 0.2865 0.0
H1301 H 0.13591 0.57082 0.28604 0.0
H1302 H 0.06998 0.51774 0.26254 0.0
H1303 H 0.11056 0.59685 0.30949 0.0
H1304 H 0.2176 0.59805 0.29722 0.0
H1305 H 0.17478 0.60546 0.22702 0.0
H1306 H 0.0522 0.47579 0.33637 0.0
H1307 H 0.10427 0.53994 0.36929 0.0
H1308 H 0.14664 0.45594 0.20751 0.0
H1309 H 0.19949 0.52215 0.2302 0.0
H1310 H 0.17757 0.43982 0.18193 0.0
H1311 H 0.22957 0.50483 0.2043 0.0
H1312 H 0.1258 0.42922 0.24319 0.0
H1313 H 0.06638 0.47023 0.25527 0.0
H1314 H 0.09562 0.39587 0.21849 0.0
H1315 H 0.03726 0.43611 0.2303 0.0
H1316 H 0.16017 0.40592 0.3055 0.0
H1317 H 0.21935 0.43015 0.2597 0.0
H1318 H 0.05737 0.52404 0.18082 0.0
H1319 H 0.07555 0.45237 0.15748 0.0
Li1320 Li 0.74877 0.90214 0.54434 0.0
Li1321 Li 0.76738 0.87048 0.56519 0.0
Li1322 Li 0.79522 0.90414 0.54659 0.0
Li1323 Li 0.76745 0.87029 0.51971 0.0
C1324 C 0.77729 0.93138 0.58607 0.0
N1325 N 0.78555 0.97982 0.60756 0.0
C1326 C 0.77535 0.93658 0.61201 0.0
C1327 C 0.78354 0.9508 0.57108 0.0
C1328 C 0.77954 0.9612 0.6225 0.0
C1329 C 0.78763 0.97516 0.5823 0.0
C1330 C 0.722 0.85042 0.55146 0.0
C1331 C 0.70532 0.80964 0.56198 0.0
N1332 N 0.69111 0.81985 0.5784 0.0
C1333 C 0.70717 0.86052 0.56836 0.0
C1334 C 0.72103 0.82479 0.54813 0.0
C1335 C 0.69168 0.84474 0.58182 0.0
C1336 C 0.70287 0.91241 0.52304 0.0
N1337 N 0.72117 0.92081 0.54207 0.0
C1338 C 0.69899 0.95302 0.55596 0.0
C1339 C 0.71937 0.94064 0.5586 0.0
C1340 C 0.68012 0.94502 0.53616 0.0
C1341 C 0.68226 0.92434 0.51962 0.0
H1342 H 0.70405 0.8961 0.51068 0.0
H1343 H 0.73344 0.94679 0.57413 0.0
C1344 C 0.7728 0.82801 0.59311 0.0
N1345 N 0.76473 0.85025 0.59382 0.0
C1346 C 0.77114 0.81382 0.61395 0.0
C1347 C 0.75288 0.84554 0.63597 0.0
C1348 C 0.75478 0.85906 0.6147 0.0
C1349 C 0.76117 0.82258 0.63587 0.0
H1350 H 0.78082 0.82135 0.57649 0.0
H1351 H 0.74839 0.8767 0.61487 0.0
C1352 C 0.76327 0.91763 0.49713 0.0
N1353 N 0.7458 0.94024 0.45625 0.0
C1354 C 0.74377 0.90503 0.48009 0.0
C1355 C 0.77404 0.94165 0.49326 0.0
C1356 C 0.73516 0.9168 0.45957 0.0
C1357 C 0.7649 0.95279 0.47251 0.0
C1358 C 0.80743 0.85132 0.5317 0.0
C1359 C 0.83094 0.85884 0.52395 0.0
C1360 C 0.79553 0.82693 0.52534 0.0
C1361 C 0.84202 0.84188 0.50965 0.0
C1362 C 0.8072 0.81055 0.51097 0.0
N1363 N 0.83001 0.8183 0.50348 0.0
C1364 C 0.84178 0.935 0.56785 0.0
C1365 C 0.83505 0.9269 0.52303 0.0
C1366 C 0.86564 0.94792 0.56594 0.0
N1367 N 0.82716 0.92458 0.54652 0.0
C1368 C 0.85874 0.93932 0.52028 0.0
C1369 C 0.87452 0.9497 0.5419 0.0
H1370 H 0.83516 0.93284 0.58634 0.0
H1371 H 0.82313 0.91837 0.50639 0.0
C1372 C 0.74811 0.83389 0.47709 0.0
N1373 N 0.76651 0.85269 0.48665 0.0
C1374 C 0.74763 0.82331 0.45203 0.0
C1375 C 0.7852 0.85134 0.44744 0.0
C1376 C 0.78493 0.86136 0.47244 0.0
C1377 C 0.76625 0.83223 0.43678 0.0
H1378 H 0.73347 0.82757 0.48865 0.0
H1379 H 0.7992 0.87648 0.48045 0.0
O1380 O 0.77351 0.90736 0.57561 0.0
O1381 O 0.73789 0.86562 0.5388 0.0
O1382 O 0.77207 0.90641 0.51729 0.0
O1383 O 0.79607 0.8678 0.54529 0.0
H1384 H 0.77066 0.92176 0.6239 0.0
H1385 H 0.78508 0.94714 0.55101 0.0
H1386 H 0.77805 0.96551 0.64254 0.0
H1387 H 0.79243 0.99036 0.57091 0.0
H1388 H 0.70448 0.78978 0.55972 0.0
H1389 H 0.70788 0.88034 0.57131 0.0
H1390 H 0.73245 0.8167 0.53519 0.0
H1391 H 0.68021 0.85229 0.59508 0.0
H1392 H 0.69796 0.9687 0.56937 0.0
H1393 H 0.6678 0.91699 0.5046 0.0
H1394 H 0.77824 0.7965 0.61317 0.0
H1395 H 0.74503 0.85303 0.65242 0.0
H1396 H 0.73526 0.88641 0.48273 0.0
H1397 H 0.78933 0.9516 0.50611 0.0
H1398 H 0.72 0.9073 0.4463 0.0
H1399 H 0.77303 0.97139 0.46932 0.0
H1400 H 0.84056 0.87753 0.52895 0.0
H1401 H 0.77724 0.82086 0.53097 0.0
H1402 H 0.86018 0.84748 0.50346 0.0
H1403 H 0.79808 0.79169 0.50569 0.0
H1404 H 0.87733 0.95566 0.58304 0.0
H1405 H 0.86486 0.94046 0.50143 0.0
H1406 H 0.73237 0.80899 0.4444 0.0
H1407 H 0.79989 0.85875 0.43638 0.0
Li1408 Li 0.9097 0.01044 0.27321 0.0
Li1409 Li 0.87306 0.98342 0.24684 0.0
Li1410 Li 0.90791 0.01049 0.22622 0.0
Li1411 Li 0.87841 0.02881 0.24983 0.0
C1412 C 0.92615 0.96718 0.25477 0.0
N1413 N 0.95953 0.93738 0.27032 0.0
C1414 C 0.91815 0.9459 0.26657 0.0
C1415 C 0.95107 0.97305 0.25048 0.0
C1416 C 0.93532 0.93115 0.27442 0.0
C1417 C 0.96767 0.95782 0.25858 0.0
C1418 C 0.85854 0.01724 0.29182 0.0
C1419 C 0.81746 0.02128 0.30251 0.0
N1420 N 0.82725 0.04065 0.31988 0.0
C1421 C 0.86824 0.03707 0.30985 0.0
C1422 C 0.83299 0.00917 0.28814 0.0
C1423 C 0.85209 0.04871 0.32382 0.0
C1424 C 0.94215 0.0336 0.31635 0.0
N1425 N 0.92854 0.01186 0.3056 0.0
C1426 C 0.93506 0.99289 0.34419 0.0
C1427 C 0.92496 0.99166 0.31894 0.0
C1428 C 0.94854 0.01528 0.35599 0.0
C1429 C 0.95258 0.03564 0.34155 0.0
H1430 H 0.94398 0.0497 0.3058 0.0
H1431 H 0.91317 0.97494 0.31043 0.0
C1432 C 0.84224 0.93728 0.22548 0.0
N1433 N 0.85188 0.95211 0.24691 0.0
C1434 C 0.82875 0.91367 0.22728 0.0
C1435 C 0.83522 0.92127 0.27305 0.0
C1436 C 0.8483 0.94469 0.27038 0.0
C1437 C 0.82544 0.9053 0.25136 0.0
H1438 H 0.84551 0.94353 0.20702 0.0
H1439 H 0.85632 0.95676 0.28711 0.0
C1440 C 0.93726 0.05256 0.24938 0.0
N1441 N 0.98265 0.07905 0.24149 0.0
C1442 C 0.93857 0.0751 0.23866 0.0
C1443 C 0.95906 0.04362 0.25625 0.0
C1444 C 0.96168 0.08818 0.23476 0.0
C1445 C 0.98182 0.05725 0.25209 0.0
C1446 C 0.85375 0.01498 0.20414 0.0
C1447 C 0.86086 0.03702 0.19328 0.0
C1448 C 0.82908 0.00326 0.20053 0.0
C1449 C 0.84303 0.04715 0.17912 0.0
C1450 C 0.81182 0.01396 0.1862 0.0
N1451 N 0.81909 0.03551 0.1759 0.0
C1452 C 0.93575 0.99113 0.18802 0.0
C1453 C 0.932 0.03322 0.18574 0.0
C1454 C 0.94978 0.99157 0.16707 0.0
N1455 N 0.9273 0.01182 0.19709 0.0
C1456 C 0.9462 0.03457 0.16496 0.0
C1457 C 0.95534 0.01357 0.15536 0.0
H1458 H 0.93143 0.97416 0.19693 0.0
H1459 H 0.92446 0.04923 0.19256 0.0
C1460 C 0.87479 0.07883 0.26187 0.0
N1461 N 0.86064 0.05672 0.25317 0.0
C1462 C 0.86411 0.10017 0.26511 0.0
C1463 C 0.8241 0.07569 0.25144 0.0
C1464 C 0.83562 0.05473 0.24835 0.0
C1465 C 0.83847 0.09886 0.25971 0.0
H1466 H 0.89445 0.07989 0.26652 0.0
H1467 H 0.82453 0.03691 0.24219 0.0
O1468 O 0.90953 0.98178 0.24687 0.0
O1469 O 0.87397 0.00611 0.27743 0.0
O1470 O 0.91474 0.03929 0.25294 0.0
O1471 O 0.87089 0.00478 0.21809 0.0
H1472 H 0.89891 0.94089 0.26981 0.0
H1473 H 0.95752 0.98904 0.24077 0.0
H1474 H 0.9294 0.91473 0.28374 0.0
H1475 H 0.98702 0.9622 0.25544 0.0
H1476 H 0.79763 0.01536 0.29978 0.0
H1477 H 0.88799 0.04358 0.31279 0.0
H1478 H 0.82524 0.99392 0.27411 0.0
H1479 H 0.8593 0.06419 0.33773 0.0
H1480 H 0.93121 0.9769 0.35478 0.0
H1481 H 0.96298 0.05322 0.34992 0.0
H1482 H 0.82176 0.90177 0.2101 0.0
H1483 H 0.83305 0.91554 0.29193 0.0
H1484 H 0.92189 0.08222 0.23297 0.0
H1485 H 0.95842 0.02644 0.26492 0.0
H1486 H 0.96294 0.10555 0.22631 0.0
H1487 H 0.99882 0.0505 0.25731 0.0
H1488 H 0.87987 0.04635 0.19602 0.0
H1489 H 0.82333 0.98617 0.20882 0.0
H1490 H 0.84822 0.06429 0.17072 0.0
H1491 H 0.79264 0.00517 0.1833 0.0
H1492 H 0.95624 0.97488 0.16008 0.0
H1493 H 0.94944 0.0517 0.15606 0.0
H1494 H 0.87583 0.1176 0.27188 0.0
H1495 H 0.80428 0.07387 0.24692 0.0
Li1496 Li 0.28306 0.66144 0.55527 0.0
Li1497 Li 0.29552 0.62687 0.53008 0.0
Li1498 Li 0.27782 0.65923 0.51001 0.0
Li1499 Li 0.25256 0.62876 0.53213 0.0
C1500 C 0.32797 0.67695 0.5471 0.0
N1501 N 0.36431 0.70546 0.58088 0.0
C1502 C 0.34504 0.66574 0.56113 0.0
C1503 C 0.32938 0.70265 0.55025 0.0
C1504 C 0.36329 0.68049 0.57809 0.0
C1505 C 0.34788 0.71674 0.56743 0.0
C1506 C 0.26275 0.61109 0.57496 0.0
C1507 C 0.23988 0.57137 0.58188 0.0
N1508 N 0.23134 0.58195 0.60277 0.0
C1509 C 0.25369 0.62157 0.59647 0.0
C1510 C 0.25579 0.58577 0.56759 0.0
C1511 C 0.23788 0.60653 0.6103 0.0
C1512 C 0.27868 0.70366 0.58734 0.0
N1513 N 0.28927 0.6829 0.58594 0.0
C1514 C 0.30254 0.68927 0.63033 0.0
C1515 C 0.30174 0.67591 0.60663 0.0
C1516 C 0.29069 0.71009 0.63242 0.0
C1517 C 0.27939 0.71779 0.61052 0.0
H1518 H 0.26855 0.70857 0.57078 0.0
H1519 H 0.30976 0.65915 0.60499 0.0
C1520 C 0.33703 0.61198 0.51015 0.0
N1521 N 0.31968 0.60577 0.52641 0.0
C1522 C 0.35525 0.59739 0.50631 0.0
C1523 C 0.3374 0.57019 0.536 0.0
C1524 C 0.31949 0.58534 0.53927 0.0
C1525 C 0.35564 0.57622 0.5194 0.0
H1526 H 0.33684 0.6285 0.50038 0.0
H1527 H 0.30567 0.58096 0.55229 0.0
C1528 C 0.23957 0.67943 0.52092 0.0
N1529 N 0.21314 0.70817 0.49231 0.0
C1530 C 0.21637 0.6693 0.50838 0.0
C1531 C 0.2493 0.70422 0.51885 0.0
C1532 C 0.2033 0.68414 0.49406 0.0
C1533 C 0.23568 0.71841 0.50429 0.0
C1534 C 0.27753 0.60686 0.48459 0.0
C1535 C 0.29052 0.6156 0.46465 0.0
C1536 C 0.27415 0.5816 0.48788 0.0
C1537 C 0.30002 0.59892 0.44838 0.0
C1538 C 0.28399 0.56552 0.47124 0.0
N1539 N 0.29661 0.57444 0.452 0.0
C1540 C 0.29587 0.69698 0.47956 0.0
C1541 C 0.25847 0.6709 0.46296 0.0
C1542 C 0.29515 0.71074 0.4586 0.0
N1543 N 0.27763 0.67758 0.48133 0.0
C1544 C 0.25694 0.6842 0.44175 0.0
C1545 C 0.27544 0.70441 0.43945 0.0
H1546 H 0.31098 0.70169 0.49436 0.0
H1547 H 0.24439 0.65519 0.46483 0.0
C1548 C 0.20587 0.61948 0.55002 0.0
N1549 N 0.22029 0.6108 0.53286 0.0
C1550 C 0.18123 0.60846 0.55 0.0
C1551 C 0.18695 0.57935 0.5151 0.0
C1552 C 0.21148 0.59102 0.51572 0.0
C1553 C 0.17146 0.58834 0.53216 0.0
H1554 H 0.21334 0.63551 0.56315 0.0
H1555 H 0.22323 0.58483 0.502 0.0
O1556 O 0.30957 0.66277 0.53091 0.0
O1557 O 0.27798 0.62558 0.56093 0.0
O1558 O 0.2529 0.66506 0.53466 0.0
O1559 O 0.26861 0.62298 0.50111 0.0
H1560 H 0.34407 0.64587 0.55916 0.0
H1561 H 0.31605 0.71159 0.53988 0.0
H1562 H 0.37658 0.67207 0.58913 0.0
H1563 H 0.34909 0.73663 0.57018 0.0
H1564 H 0.23422 0.5518 0.57629 0.0
H1565 H 0.25849 0.64116 0.60228 0.0
H1566 H 0.26219 0.57741 0.55073 0.0
H1567 H 0.23069 0.61442 0.62694 0.0
H1568 H 0.3112 0.68277 0.64703 0.0
H1569 H 0.26976 0.73354 0.61164 0.0
H1570 H 0.36943 0.60316 0.49398 0.0
H1571 H 0.33726 0.55417 0.54666 0.0
H1572 H 0.20861 0.65013 0.50937 0.0
H1573 H 0.2675 0.71225 0.52777 0.0
H1574 H 0.18537 0.67649 0.48422 0.0
H1575 H 0.24311 0.73752 0.50235 0.0
H1576 H 0.29354 0.6351 0.46193 0.0
H1577 H 0.26444 0.57454 0.5034 0.0
H1578 H 0.31022 0.60545 0.43294 0.0
H1579 H 0.28169 0.54597 0.47369 0.0
H1580 H 0.30985 0.72608 0.45728 0.0
H1581 H 0.24183 0.67836 0.42702 0.0
H1582 H 0.16974 0.61596 0.56332 0.0
H1583 H 0.17986 0.56424 0.50068 0.0
Li1584 Li 0.37115 0.48861 0.75076 0.0
Li1585 Li 0.40516 0.51695 0.77917 0.0
Li1586 Li 0.37252 0.53392 0.75484 0.0
Li1587 Li 0.40447 0.51769 0.73255 0.0
C1588 C 0.35002 0.51791 0.79365 0.0
N1589 N 0.3116 0.53479 0.81644 0.0
C1590 C 0.35499 0.53476 0.81535 0.0
C1591 C 0.32557 0.50953 0.78358 0.0
C1592 C 0.33528 0.5431 0.82658 0.0
C1593 C 0.30639 0.51831 0.79538 0.0
C1594 C 0.42695 0.47669 0.75632 0.0
C1595 C 0.47014 0.47357 0.75497 0.0
N1596 N 0.46572 0.45063 0.7632 0.0
C1597 C 0.42277 0.45296 0.76447 0.0
C1598 C 0.45077 0.487 0.75128 0.0
C1599 C 0.44264 0.44013 0.76796 0.0
C1600 C 0.33839 0.44353 0.72884 0.0
N1601 N 0.35173 0.45626 0.7499 0.0
C1602 C 0.34019 0.42246 0.77462 0.0
C1603 C 0.35259 0.4463 0.77255 0.0
C1604 C 0.32649 0.40865 0.75324 0.0
C1605 C 0.32549 0.41954 0.73011 0.0
H1606 H 0.33802 0.45184 0.71102 0.0
H1607 H 0.3633 0.45685 0.789 0.0
C1608 C 0.42987 0.54229 0.82456 0.0
N1609 N 0.42436 0.51957 0.81133 0.0
C1610 C 0.44124 0.545 0.84937 0.0
C1611 C 0.44155 0.50095 0.84649 0.0
C1612 C 0.43007 0.49907 0.82169 0.0
C1613 C 0.44689 0.52411 0.86078 0.0
H1614 H 0.42462 0.55821 0.81613 0.0
H1615 H 0.42479 0.48111 0.81117 0.0
C1616 C 0.36233 0.52287 0.70182 0.0
N1617 N 0.3525 0.54721 0.65948 0.0
C1618 C 0.37345 0.54741 0.70079 0.0
C1619 C 0.34622 0.5107 0.68133 0.0
C1620 C 0.36824 0.5594 0.67922 0.0
C1621 C 0.34148 0.52333 0.66008 0.0
C1622 C 0.42912 0.56349 0.76123 0.0
C1623 C 0.42728 0.58768 0.75591 0.0
C1624 C 0.45227 0.55745 0.76854 0.0
C1625 C 0.44874 0.60536 0.75765 0.0
C1626 C 0.4733 0.57566 0.77008 0.0
N1627 N 0.47112 0.59903 0.76462 0.0
C1628 C 0.36142 0.57989 0.77454 0.0
C1629 C 0.33135 0.55913 0.74214 0.0
C1630 C 0.34879 0.60008 0.77658 0.0
N1631 N 0.35276 0.56008 0.7573 0.0
C1632 C 0.31828 0.57907 0.74334 0.0
C1633 C 0.32718 0.60004 0.76051 0.0
H1634 H 0.3784 0.58014 0.78649 0.0
H1635 H 0.32462 0.54307 0.72882 0.0
C1636 C 0.42849 0.50041 0.69037 0.0
N1637 N 0.42518 0.52117 0.70459 0.0
C1638 C 0.44333 0.5021 0.67006 0.0
C1639 C 0.45134 0.54647 0.67947 0.0
C1640 C 0.43615 0.54395 0.69936 0.0
C1641 C 0.45492 0.52541 0.66424 0.0
H1642 H 0.41953 0.48249 0.69476 0.0
H1643 H 0.43309 0.5603 0.71047 0.0
O1644 O 0.36905 0.51015 0.78189 0.0
O1645 O 0.40765 0.48942 0.75265 0.0
O1646 O 0.36719 0.51069 0.72269 0.0
O1647 O 0.40825 0.546 0.75957 0.0
H1648 H 0.37385 0.5415 0.82325 0.0
H1649 H 0.3215 0.49659 0.76669 0.0
H1650 H 0.33883 0.55624 0.84331 0.0
H1651 H 0.28736 0.5121 0.78774 0.0
H1652 H 0.48867 0.48136 0.75119 0.0
H1653 H 0.40442 0.44458 0.7682 0.0
H1654 H 0.45426 0.50505 0.74433 0.0
H1655 H 0.4397 0.42182 0.77443 0.0
H1656 H 0.34136 0.41482 0.79281 0.0
H1657 H 0.31539 0.4094 0.7131 0.0
H1658 H 0.44493 0.56316 0.85984 0.0
H1659 H 0.44505 0.48433 0.85481 0.0
H1660 H 0.38589 0.55716 0.71649 0.0
H1661 H 0.33748 0.49169 0.68184 0.0
H1662 H 0.37671 0.57839 0.67819 0.0
H1663 H 0.32904 0.51414 0.64408 0.0
H1664 H 0.40947 0.59268 0.75029 0.0
H1665 H 0.45397 0.53901 0.77329 0.0
H1666 H 0.44761 0.62411 0.75344 0.0
H1667 H 0.49134 0.57124 0.77572 0.0
H1668 H 0.3563 0.61592 0.78998 0.0
H1669 H 0.30153 0.57823 0.73081 0.0
H1670 H 0.44541 0.48535 0.65879 0.0
H1671 H 0.46029 0.56478 0.67619 0.0
Li1672 Li 0.62936 0.00535 0.78405 0.0
Li1673 Li 0.66227 0.02785 0.76299 0.0
Li1674 Li 0.625 1.00027 0.73896 0.0
Li1675 Li 0.65713 0.98192 0.76212 0.0
C1676 C 0.61355 0.04599 0.77437 0.0
N1677 N 0.5866 0.07449 0.80285 0.0
C1678 C 0.62562 0.06669 0.79015 0.0
C1679 C 0.58777 0.03989 0.77291 0.0
C1680 C 0.61166 0.08085 0.80443 0.0
C1681 C 0.57448 0.05449 0.78752 0.0
C1682 C 0.68995 0.00973 0.80152 0.0
C1683 C 0.73295 0.0101 0.79501 0.0
N1684 N 0.73885 0.0135 0.82061 0.0
C1685 C 0.69643 0.01315 0.82777 0.0
C1686 C 0.70834 0.00814 0.785 0.0
C1687 C 0.72126 0.01505 0.83704 0.0
C1688 C 0.58929 0.99612 0.81465 0.0
N1689 N 0.61255 0.00847 0.81343 0.0
C1690 C 0.61363 0.02768 0.85553 0.0
C1691 C 0.62475 0.02416 0.83314 0.0
C1692 C 0.58973 0.015 0.85747 0.0
C1693 C 0.57738 0.99922 0.83668 0.0
H1694 H 0.5801 0.98376 0.79866 0.0
H1695 H 0.64315 0.03388 0.83142 0.0
C1696 C 0.67974 0.07176 0.74283 0.0
N1697 N 0.68343 0.05863 0.76306 0.0
C1698 C 0.69141 0.0963 0.74337 0.0
C1699 C 0.7114 0.09284 0.78498 0.0
C1700 C 0.69901 0.06859 0.78385 0.0
C1701 C 0.70718 0.1071 0.76482 0.0
H1702 H 0.66678 0.06352 0.72682 0.0
H1703 H 0.70086 0.05835 0.8002 0.0
C1704 C 0.60285 0.9561 0.74898 0.0
N1705 N 0.56704 0.92087 0.72141 0.0
C1706 C 0.60911 0.93406 0.73838 0.0
C1707 C 0.57835 0.96016 0.74571 0.0
C1708 C 0.59074 0.91649 0.72447 0.0
C1709 C 0.56053 0.94215 0.73166 0.0
C1710 C 0.67387 0.99833 0.71334 0.0
C1711 C 0.66408 0.97971 0.69404 0.0
C1712 C 0.69695 0.01266 0.71156 0.0
C1713 C 0.67768 0.97547 0.67343 0.0
C1714 C 0.70999 0.00787 0.69064 0.0
N1715 N 0.70017 0.98952 0.67218 0.0
C1716 C 0.59391 0.02051 0.70577 0.0
C1717 C 0.59632 0.979 0.69163 0.0
C1718 C 0.57865 0.02264 0.68406 0.0
N1719 N 0.60263 0.99905 0.70909 0.0
C1720 C 0.58117 0.98039 0.66945 0.0
C1721 C 0.57266 0.00265 0.66528 0.0
H1722 H 0.59932 0.03629 0.71968 0.0
H1723 H 0.60339 0.9621 0.69457 0.0
C1724 C 0.6824 0.9498 0.78849 0.0
N1725 N 0.67529 0.95503 0.76461 0.0
C1726 C 0.6971 0.93165 0.79218 0.0
C1727 C 0.69521 0.92301 0.7466 0.0
C1728 C 0.68115 0.94187 0.74381 0.0
C1729 C 0.7039 0.91804 0.77107 0.0
H1730 H 0.67686 0.95994 0.80479 0.0
H1731 H 0.67464 0.94568 0.72504 0.0
O1732 O 0.62694 0.0315 0.76078 0.0
O1733 O 0.66568 0.00775 0.79222 0.0
O1734 O 0.62056 0.97344 0.76278 0.0
O1735 O 0.66066 0.00309 0.73347 0.0
H1736 H 0.64556 0.07162 0.7916 0.0
H1737 H 0.57816 0.02386 0.76086 0.0
H1738 H 0.62076 0.09684 0.81684 0.0
H1739 H 0.55453 0.04988 0.78672 0.0
H1740 H 0.74735 0.00887 0.78243 0.0
H1741 H 0.68241 0.01431 0.84083 0.0
H1742 H 0.70364 0.00526 0.7647 0.0
H1743 H 0.72654 0.01773 0.85731 0.0
H1744 H 0.62367 0.03994 0.87129 0.0
H1745 H 0.5591 0.98881 0.83777 0.0
H1746 H 0.68752 0.10699 0.72767 0.0
H1747 H 0.72292 0.10088 0.80211 0.0
H1748 H 0.62793 0.93054 0.74085 0.0
H1749 H 0.57321 0.97721 0.75356 0.0
H1750 H 0.59534 0.89938 0.71611 0.0
H1751 H 0.54154 0.94513 0.72881 0.0
H1752 H 0.64638 0.96833 0.6952 0.0
H1753 H 0.7047 0.02739 0.72613 0.0
H1754 H 0.67038 0.96098 0.65847 0.0
H1755 H 0.72789 0.01878 0.68906 0.0
H1756 H 0.5722 0.04003 0.68162 0.0
H1757 H 0.57701 0.96462 0.65527 0.0
H1758 H 0.70312 0.92837 0.81139 0.0
H1759 H 0.69883 0.9122 0.72974 0.0
Li1760 Li 0.76048 0.65367 0.02833 0.0
Li1761 Li 0.77784 0.6202 0.00486 0.0
Li1762 Li 0.75816 0.65179 0.98081 0.0
Li1763 Li 0.73201 0.61863 0.00095 0.0
C1764 C 0.80414 0.67846 0.01366 0.0
N1765 N 0.83591 0.7221 0.02951 0.0
C1766 C 0.82861 0.67794 0.02283 0.0
C1767 C 0.79584 0.70114 0.01243 0.0
C1768 C 0.84438 0.70022 0.03079 0.0
C1769 C 0.81218 0.72301 0.02057 0.0
C1770 C 0.76043 0.60066 0.04766 0.0
C1771 C 0.75681 0.5585 0.05829 0.0
N1772 N 0.77221 0.56626 0.07982 0.0
C1773 C 0.77599 0.60827 0.07 0.0
C1774 C 0.75056 0.57563 0.04183 0.0
C1775 C 0.78182 0.59057 0.08596 0.0
C1776 C 0.74034 0.67474 0.0701 0.0
N1777 N 0.7623 0.67312 0.06046 0.0
C1778 C 0.78452 0.69346 0.09914 0.0
C1779 C 0.7842 0.68235 0.07437 0.0
C1780 C 0.76213 0.69455 0.10987 0.0
C1781 C 0.73982 0.6854 0.09489 0.0
H1782 H 0.72319 0.6669 0.05881 0.0
H1783 H 0.80145 0.6802 0.06673 0.0
C1784 C 0.80832 0.58516 0.98758 0.0
N1785 N 0.80497 0.6015 0.00719 0.0
C1786 C 0.82867 0.57264 0.9889 0.0
C1787 C 0.84181 0.59378 0.03061 0.0
C1788 C 0.82122 0.60591 0.02848 0.0
C1789 C 0.84598 0.57715 0.01049 0.0
H1790 H 0.79548 0.58216 0.97065 0.0
H1791 H 0.81854 0.61933 0.04363 0.0
C1792 C 0.71537 0.66945 0.99493 0.0
N1793 N 0.68265 0.69886 0.97702 0.0
C1794 C 0.6944 0.65894 0.97868 0.0
C1795 C 0.71952 0.69484 0.0024 0.0
C1796 C 0.67813 0.67414 0.96974 0.0
C1797 C 0.70281 0.70942 0.99304 0.0
C1798 C 0.74342 0.59481 0.95685 0.0
C1799 C 0.73277 0.59809 0.93277 0.0
C1800 C 0.74282 0.57093 0.96432 0.0
C1801 C 0.72153 0.57734 0.91658 0.0
C1802 C 0.73139 0.55067 0.9476 0.0
N1803 N 0.72106 0.55426 0.92428 0.0
C1804 C 0.78223 0.6849 0.94731 0.0
C1805 C 0.73968 0.67076 0.93516 0.0
C1806 C 0.78413 0.69867 0.92617 0.0
N1807 N 0.76019 0.6714 0.95158 0.0
C1808 C 0.74075 0.68417 0.91378 0.0
C1809 C 0.76319 0.69845 0.90899 0.0
H1810 H 0.79855 0.6847 0.96006 0.0
H1811 H 0.72249 0.65946 0.93835 0.0
C1812 C 0.69137 0.59923 0.02511 0.0
N1813 N 0.69974 0.59855 0.00164 0.0
C1814 C 0.6678 0.58695 0.02871 0.0
C1815 C 0.66172 0.57298 0.98396 0.0
C1816 C 0.6854 0.58579 0.98115 0.0
C1817 C 0.65258 0.57363 0.00799 0.0
H1818 H 0.70294 0.60972 0.04106 0.0
H1819 H 0.69197 0.58594 0.96252 0.0
O1820 O 0.78835 0.65684 0.00609 0.0
O1821 O 0.75458 0.6177 0.03177 0.0
O1822 O 0.73145 0.65486 0.00394 0.0
O1823 O 0.75446 0.6149 0.97296 0.0
H1824 H 0.83532 0.66053 0.02384 0.0
H1825 H 0.77701 0.70181 0.00523 0.0
H1826 H 0.86336 0.70012 0.03799 0.0
H1827 H 0.80601 0.7407 0.01975 0.0
H1828 H 0.74938 0.53905 0.05399 0.0
H1829 H 0.78364 0.62762 0.07485 0.0
H1830 H 0.73811 0.56952 0.02485 0.0
H1831 H 0.79398 0.59616 0.10324 0.0
H1832 H 0.8021 0.70003 0.11023 0.0
H1833 H 0.72218 0.68595 0.10251 0.0
H1834 H 0.83099 0.55977 0.97304 0.0
H1835 H 0.85479 0.59802 0.04747 0.0
H1836 H 0.69089 0.63929 0.9728 0.0
H1837 H 0.73539 0.70318 0.01537 0.0
H1838 H 0.66193 0.66629 0.95699 0.0
H1839 H 0.70582 0.72913 0.99858 0.0
H1840 H 0.73317 0.61643 0.92666 0.0
H1841 H 0.75114 0.56809 0.98282 0.0
H1842 H 0.71317 0.57959 0.89791 0.0
H1843 H 0.73075 0.53208 0.95315 0.0
H1844 H 0.80197 0.7088 0.92292 0.0
H1845 H 0.72415 0.68329 0.90102 0.0
H1846 H 0.66148 0.58796 0.04754 0.0
H1847 H 0.65038 0.56332 0.96739 0.0
Li1848 Li 0.87523 0.49596 0.78172 0.0
Li1849 Li 0.9083 0.52657 0.80731 0.0
Li1850 Li 0.87432 0.53975 0.78004 0.0
Li1851 Li 0.90623 0.52145 0.76181 0.0
C1852 C 0.84809 0.51797 0.81753 0.0
N1853 N 0.80046 0.51325 0.83183 0.0
C1854 C 0.84413 0.52286 0.84302 0.0
C1855 C 0.82786 0.51067 0.79931 0.0
C1856 C 0.81989 0.52037 0.84987 0.0
C1857 C 0.80391 0.5084 0.80692 0.0
C1858 C 0.92612 0.48272 0.77295 0.0
C1859 C 0.96582 0.47808 0.75844 0.0
N1860 N 0.95555 0.4559 0.74573 0.0
C1861 C 0.91599 0.45983 0.75975 0.0
C1862 C 0.95129 0.49188 0.77235 0.0
C1863 C 0.93116 0.44656 0.74612 0.0
C1864 C 0.83877 0.45527 0.76225 0.0
N1865 N 0.85659 0.46405 0.78153 0.0
C1866 C 0.85318 0.42442 0.79752 0.0
C1867 C 0.86347 0.44945 0.79942 0.0
C1868 C 0.8357 0.41454 0.77702 0.0
C1869 C 0.82787 0.43039 0.75971 0.0
H1870 H 0.83381 0.46734 0.74828 0.0
H1871 H 0.87785 0.45702 0.81442 0.0
C1872 C 0.92194 0.54608 0.8585 0.0
N1873 N 0.92826 0.53182 0.8387 0.0
C1874 C 0.9347 0.54715 0.88257 0.0
C1875 C 0.96094 0.51993 0.86499 0.0
C1876 C 0.94748 0.51909 0.84141 0.0
C1877 C 0.95412 0.53352 0.88599 0.0
H1878 H 0.90636 0.55574 0.8558 0.0
H1879 H 0.95175 0.5075 0.82552 0.0
C1880 C 0.86486 0.52344 0.72883 0.0
N1881 N 0.85499 0.54312 0.68345 0.0
C1882 C 0.87679 0.547 0.72479 0.0
C1883 C 0.84798 0.50984 0.7097 0.0
C1884 C 0.87153 0.55665 0.70176 0.0
C1885 C 0.84321 0.52013 0.68691 0.0
C1886 C 0.93056 0.57047 0.78318 0.0
C1887 C 0.92815 0.59243 0.77232 0.0
C1888 C 0.95379 0.56692 0.79359 0.0
C1889 C 0.94914 0.6103 0.77168 0.0
C1890 C 0.97433 0.58524 0.79259 0.0
N1891 N 0.97161 0.60636 0.78173 0.0
C1892 C 0.86114 0.58607 0.79192 0.0
C1893 C 0.83187 0.56 0.76216 0.0
C1894 C 0.84709 0.60506 0.79078 0.0
N1895 N 0.85338 0.56412 0.7777 0.0
C1896 C 0.81733 0.57862 0.76025 0.0
C1897 C 0.82488 0.60139 0.77483 0.0
H1898 H 0.87834 0.58881 0.80403 0.0
H1899 H 0.826 0.54231 0.75117 0.0
C1900 C 0.9156 0.50081 0.7153 0.0
N1901 N 0.92485 0.52002 0.733 0.0
C1902 C 0.92693 0.49746 0.69303 0.0
C1903 C 0.95749 0.53352 0.70766 0.0
C1904 C 0.94556 0.53616 0.72973 0.0
C1905 C 0.94787 0.51421 0.68887 0.0
H1906 H 0.89924 0.48812 0.71847 0.0
H1907 H 0.95275 0.55122 0.74393 0.0
O1908 O 0.8717 0.52057 0.81053 0.0
O1909 O 0.91143 0.49621 0.78604 0.0
O1910 O 0.86999 0.51338 0.75109 0.0
O1911 O 0.91009 0.55298 0.7843 0.0
H1912 H 0.85962 0.52857 0.85734 0.0
H1913 H 0.83059 0.50692 0.77949 0.0
H1914 H 0.81653 0.52411 0.86953 0.0
H1915 H 0.78808 0.50282 0.79301 0.0
H1916 H 0.98525 0.48508 0.75765 0.0
H1917 H 0.89656 0.45247 0.7597 0.0
H1918 H 0.95944 0.5097 0.78207 0.0
H1919 H 0.92352 0.42888 0.73575 0.0
H1920 H 0.85945 0.41272 0.81133 0.0
H1921 H 0.81449 0.42332 0.74362 0.0
H1922 H 0.92889 0.55767 0.89853 0.0
H1923 H 0.97554 0.50887 0.86711 0.0
H1924 H 0.89002 0.55772 0.7392 0.0
H1925 H 0.8387 0.4915 0.71237 0.0
H1926 H 0.88064 0.57487 0.69843 0.0
H1927 H 0.83019 0.5098 0.67196 0.0
H1928 H 0.91025 0.59568 0.76453 0.0
H1929 H 0.95604 0.55011 0.80204 0.0
H1930 H 0.94756 0.62733 0.76325 0.0
H1931 H 0.99245 0.58265 0.80042 0.0
H1932 H 0.85365 0.62256 0.80202 0.0
H1933 H 0.80029 0.57519 0.74779 0.0
H1934 H 0.91919 0.48217 0.67903 0.0
H1935 H 0.97357 0.54686 0.70492 0.0
Li1936 Li 0.7579 0.36269 0.53563 0.0
Li1937 Li 0.73713 0.39401 0.52097 0.0
Li1938 Li 0.75226 0.36397 0.49065 0.0
Li1939 Li 0.78155 0.39685 0.51838 0.0
C1940 C 0.7062 0.35085 0.52763 0.0
N1941 N 0.66629 0.3377 0.55511 0.0
C1942 C 0.70703 0.35987 0.55318 0.0
C1943 C 0.68508 0.33513 0.51608 0.0
C1944 C 0.68667 0.35301 0.56674 0.0
C1945 C 0.66509 0.3287 0.53029 0.0
C1946 C 0.76825 0.42115 0.56168 0.0
C1947 C 0.77541 0.46544 0.56043 0.0
N1948 N 0.77688 0.46841 0.58626 0.0
C1949 C 0.76994 0.42462 0.58821 0.0
C1950 C 0.7711 0.4417 0.54767 0.0
C1951 C 0.77426 0.44866 0.60029 0.0
C1952 C 0.77399 0.34848 0.58264 0.0
N1953 N 0.75945 0.34042 0.5607 0.0
C1954 C 0.74584 0.30149 0.57616 0.0
C1955 C 0.74585 0.31731 0.55689 0.0
C1956 C 0.76002 0.30967 0.59936 0.0
C1957 C 0.77463 0.33325 0.60235 0.0
H1958 H 0.78469 0.36693 0.58493 0.0
H1959 H 0.73468 0.31138 0.53906 0.0
C1960 C 0.69639 0.41584 0.50508 0.0
N1961 N 0.71117 0.41244 0.52586 0.0
C1962 C 0.67707 0.42929 0.50769 0.0
C1963 C 0.68839 0.43525 0.55307 0.0
C1964 C 0.70735 0.42152 0.5496 0.0
C1965 C 0.67293 0.43922 0.53195 0.0
H1966 H 0.69966 0.40808 0.48649 0.0
H1967 H 0.71891 0.41806 0.56593 0.0
C1968 C 0.79368 0.34205 0.51854 0.0
N1969 N 0.81406 0.30252 0.53486 0.0
C1970 C 0.81495 0.34618 0.53566 0.0
C1971 C 0.78284 0.31783 0.5096 0.0
C1972 C 0.82495 0.32594 0.54372 0.0
C1973 C 0.79341 0.29809 0.51811 0.0
C1974 C 0.75834 0.41649 0.47272 0.0
C1975 C 0.76877 0.40972 0.45053 0.0
C1976 C 0.75029 0.43939 0.47555 0.0
C1977 C 0.77118 0.42605 0.43166 0.0
C1978 C 0.75304 0.45521 0.45626 0.0
N1979 N 0.76334 0.44827 0.4349 0.0
C1980 C 0.72736 0.33505 0.44534 0.0
C1981 C 0.77129 0.34188 0.45066 0.0
C1982 C 0.72741 0.32106 0.42204 0.0
N1983 N 0.74917 0.34522 0.45889 0.0
C1984 C 0.7722 0.32816 0.42771 0.0
C1985 C 0.75013 0.31771 0.41302 0.0
H1986 H 0.71005 0.3379 0.45252 0.0
H1987 H 0.7883 0.35014 0.46191 0.0
C1988 C 0.82711 0.41775 0.54289 0.0
N1989 N 0.813 0.41717 0.52053 0.0
C1990 C 0.8518 0.42907 0.54546 0.0
C1991 C 0.84668 0.44029 0.50238 0.0
C1992 C 0.82205 0.42852 0.50056 0.0
C1993 C 0.86192 0.43993 0.5248 0.0
H1994 H 0.81941 0.40849 0.5584 0.0
H1995 H 0.81057 0.42764 0.48293 0.0
O1996 O 0.7259 0.35718 0.51388 0.0
O1997 O 0.76399 0.39766 0.5497 0.0
O1998 O 0.78323 0.36158 0.5109 0.0
O1999 O 0.75528 0.40048 0.49116 0.0
H2000 H 0.72321 0.37196 0.56252 0.0
H2001 H 0.68416 0.32797 0.49633 0.0
H2002 H 0.68707 0.35985 0.58651 0.0
H2003 H 0.64862 0.31655 0.52158 0.0
H2004 H 0.77765 0.48151 0.54979 0.0
H2005 H 0.76781 0.40888 0.59934 0.0
H2006 H 0.77019 0.43936 0.5272 0.0
H2007 H 0.77554 0.45163 0.62081 0.0
H2008 H 0.73456 0.28329 0.57318 0.0
H2009 H 0.78565 0.34018 0.62009 0.0
H2010 H 0.66535 0.43171 0.49095 0.0
H2011 H 0.68602 0.44284 0.57204 0.0
H2012 H 0.82355 0.36478 0.5428 0.0
H2013 H 0.76621 0.31429 0.49655 0.0
H2014 H 0.84135 0.32885 0.55705 0.0
H2015 H 0.78513 0.27925 0.51148 0.0
H2016 H 0.77517 0.39217 0.44797 0.0
H2017 H 0.74189 0.4449 0.49241 0.0
H2018 H 0.77929 0.42105 0.41444 0.0
H2019 H 0.74691 0.47298 0.45824 0.0
H2020 H 0.71005 0.31346 0.41099 0.0
H2021 H 0.79004 0.32587 0.42138 0.0
H2022 H 0.86313 0.42861 0.56307 0.0
H2023 H 0.85406 0.44845 0.48609 0.0
Li2024 Li 0.63713 0.51498 0.33001 0.0
Li2025 Li 0.66924 0.53915 0.30872 0.0
Li2026 Li 0.63502 0.51149 0.28218 0.0
Li2027 Li 0.66776 0.4947 0.30647 0.0
C2028 C 0.63023 0.56389 0.31591 0.0
N2029 N 0.62572 0.61112 0.33497 0.0
C2030 C 0.63695 0.57172 0.34162 0.0
C2031 C 0.62119 0.58008 0.29989 0.0
C2032 C 0.63455 0.59566 0.3509 0.0
C2033 C 0.61904 0.60389 0.30989 0.0
C2034 C 0.69293 0.53245 0.35316 0.0
C2035 C 0.73602 0.55076 0.36091 0.0
N2036 N 0.73161 0.56116 0.3839 0.0
C2037 C 0.68885 0.54316 0.37695 0.0
C2038 C 0.71672 0.5361 0.34514 0.0
C2039 C 0.70864 0.55767 0.39219 0.0
C2040 C 0.62432 0.50271 0.37931 0.0
N2041 N 0.61684 0.5135 0.35846 0.0
C2042 C 0.58091 0.52259 0.37796 0.0
C2043 C 0.59549 0.52323 0.35741 0.0
C2044 C 0.58828 0.51177 0.39987 0.0
C2045 C 0.61034 0.50173 0.4003 0.0
H2046 H 0.64128 0.49501 0.37971 0.0
H2047 H 0.58986 0.53176 0.34069 0.0
C2048 C 0.69404 0.57654 0.28329 0.0
N2049 N 0.68926 0.57133 0.30723 0.0
C2050 C 0.7058 0.6 0.27877 0.0
C2051 C 0.70813 0.61254 0.32371 0.0
C2052 C 0.69619 0.58875 0.32739 0.0
C2053 C 0.71258 0.61853 0.29903 0.0
H2054 H 0.68802 0.56265 0.26747 0.0
H2055 H 0.69176 0.58456 0.34621 0.0
C2056 C 0.6069 0.47317 0.30484 0.0
N2057 N 0.55822 0.45092 0.30508 0.0
C2058 C 0.60133 0.44825 0.30914 0.0
C2059 C 0.58775 0.48679 0.30063 0.0
C2060 C 0.57659 0.43733 0.30918 0.0
C2061 C 0.56325 0.47521 0.30085 0.0
C2062 C 0.68624 0.5065 0.26334 0.0
C2063 C 0.67666 0.48808 0.24377 0.0
C2064 C 0.7118 0.51442 0.26748 0.0
C2065 C 0.69289 0.47758 0.22888 0.0
C2066 C 0.72742 0.50349 0.25217 0.0
N2067 N 0.71772 0.48543 0.23337 0.0
C2068 C 0.61508 0.52827 0.2375 0.0
C2069 C 0.60516 0.4849 0.23913 0.0
C2070 C 0.60407 0.52622 0.21253 0.0
N2071 N 0.61558 0.50776 0.25014 0.0
C2072 C 0.59414 0.48197 0.21412 0.0
C2073 C 0.59397 0.50277 0.20037 0.0
H2074 H 0.62416 0.54611 0.24644 0.0
H2075 H 0.60629 0.46881 0.24937 0.0
C2076 C 0.70775 0.46711 0.3177 0.0
N2077 N 0.68577 0.46711 0.30387 0.0
C2078 C 0.72022 0.44679 0.31479 0.0
C2079 C 0.68742 0.42698 0.28327 0.0
C2080 C 0.67549 0.44752 0.28696 0.0
C2081 C 0.71001 0.42631 0.29743 0.0
H2082 H 0.71561 0.48282 0.33106 0.0
H2083 H 0.65796 0.44788 0.27624 0.0
O2084 O 0.63277 0.5406 0.30643 0.0
O2085 O 0.6738 0.51815 0.338 0.0
O2086 O 0.63105 0.48412 0.30492 0.0
O2087 O 0.67069 0.51666 0.27844 0.0
H2088 H 0.64414 0.55951 0.35424 0.0
H2089 H 0.61583 0.57434 0.27996 0.0
H2090 H 0.63977 0.60196 0.37075 0.0
H2091 H 0.61207 0.61661 0.2977 0.0
H2092 H 0.75451 0.55386 0.35486 0.0
H2093 H 0.6706 0.54031 0.3836 0.0
H2094 H 0.72021 0.52783 0.32687 0.0
H2095 H 0.70574 0.56614 0.4106 0.0
H2096 H 0.56436 0.53101 0.37692 0.0
H2097 H 0.61673 0.49316 0.41674 0.0
H2098 H 0.70914 0.60376 0.25949 0.0
H2099 H 0.71293 0.62638 0.33982 0.0
H2100 H 0.61598 0.43747 0.31242 0.0
H2101 H 0.59171 0.50609 0.29724 0.0
H2102 H 0.57198 0.41805 0.31249 0.0
H2103 H 0.54824 0.48553 0.29766 0.0
H2104 H 0.65694 0.48171 0.24032 0.0
H2105 H 0.7195 0.52891 0.2823 0.0
H2106 H 0.68574 0.46317 0.2138 0.0
H2107 H 0.74725 0.50938 0.25522 0.0
H2108 H 0.60448 0.54263 0.20244 0.0
H2109 H 0.58639 0.46359 0.20538 0.0
H2110 H 0.73769 0.44711 0.32595 0.0
H2111 H 0.6788 0.41151 0.26987 0.0
Zn2112 Zn 0.04198 0.006 0.03245 0.0
Zn2113 Zn 0.99005 0.01466 0.00462 0.0
C2114 C 0.03528 0.96444 0.05748 0.0
O2115 O 0.04713 0.98248 0.07387 0.0
C2116 C 0.99972 0.05562 0.97876 0.0
O2117 O 0.98862 0.03765 0.9619 0.0
O2118 O 0.07888 0.00619 0.04052 0.0
O2119 O 0.04151 0.01683 0.99671 0.0
O2120 O 0.0067 0.99522 0.97845 0.0
C2121 C 0.08553 0.99128 0.02371 0.0
O2122 O 0.06862 0.97917 0.00631 0.0
O2123 O 0.02833 0.96967 0.03531 0.0
C2124 C 0.93654 0.00793 0.00702 0.0
O2125 O 0.94111 0.99522 0.0263 0.0
O2126 O 0.9539 0.01464 0.99333 0.0
O2127 O 0.99026 0.00582 0.04128 0.0
O2128 O 0.02631 0.0253 0.05937 0.0
O2129 O 0.00373 0.05082 0.00172 0.0
C2130 C 0.02907 0.00502 0.97702 0.0
C2131 C 0.00378 0.01616 0.06106 0.0
Zn2132 Zn 0.25973 0.7576 0.29465 0.0
Zn2133 Zn 0.27001 0.76261 0.24207 0.0
C2134 C 0.23091 0.71043 0.284 0.0
O2135 O 0.21551 0.72262 0.29543 0.0
C2136 C 0.29952 0.80936 0.25223 0.0
O2137 O 0.314 0.79682 0.23976 0.0
O2138 O 0.25759 0.75546 0.33214 0.0
O2139 O 0.29556 0.77066 0.2915 0.0
O2140 O 0.29609 0.7448 0.25791 0.0
C2141 C 0.27373 0.74358 0.34145 0.0
O2142 O 0.28927 0.73551 0.3265 0.0
O2143 O 0.25219 0.72179 0.28059 0.0
C2144 C 0.25666 0.75894 0.18758 0.0
O2145 O 0.23536 0.74715 0.1931 0.0
O2146 O 0.27433 0.76492 0.20507 0.0
O2147 O 0.234 0.75052 0.24462 0.0
O2148 O 0.23271 0.77482 0.27925 0.0
O2149 O 0.27821 0.79844 0.25619 0.0
C2150 C 0.30726 0.75726 0.2779 0.0
C2151 C 0.22201 0.76332 0.25852 0.0
Zn2152 Zn 0.49173 0.02387 0.52937 0.0
Zn2153 Zn 0.54392 0.00334 0.5133 0.0
C2154 C 0.51086 0.06768 0.5591 0.0
O2155 O 0.49964 0.05389 0.5752 0.0
C2156 C 0.52619 0.95913 0.48489 0.0
O2157 O 0.53802 0.97279 0.46906 0.0
O2158 O 0.45562 0.02924 0.53084 0.0
O2159 O 0.49328 0.00961 0.49356 0.0
O2160 O 0.53154 0.02281 0.48533 0.0
C2161 C 0.44994 0.04492 0.51579 0.0
O2162 O 0.46724 0.05565 0.50276 0.0
O2163 O 0.51098 0.05861 0.53627 0.0
C2164 C 0.58787 0.98597 0.52955 0.0
O2165 O 0.57335 0.98048 0.5475 0.0
O2166 O 0.57982 0.99739 0.51139 0.0
O2167 O 0.54256 0.01821 0.54887 0.0
O2168 O 0.50433 0.00431 0.55716 0.0
O2169 O 0.52466 0.96874 0.50722 0.0
C2170 C 0.50836 0.01899 0.47865 0.0
C2171 C 0.52735 0.01029 0.56434 0.0
Zn2172 Zn 0.29359 0.25585 0.76363 0.0
Zn2173 Zn 0.24337 0.27312 0.78318 0.0
C2174 C 0.28423 0.22534 0.71825 0.0
O2175 O 0.29426 0.21211 0.73451 0.0
C2176 C 0.2598 0.30241 0.8294 0.0
O2177 O 0.25185 0.31846 0.81501 0.0
O2178 O 0.32964 0.25219 0.76207 0.0
O2179 O 0.2956 0.29275 0.77398 0.0
O2180 O 0.25823 0.29904 0.76122 0.0
C2181 C 0.34085 0.26746 0.74833 0.0
O2182 O 0.32867 0.28358 0.73818 0.0
O2183 O 0.27992 0.24652 0.72655 0.0
C2184 C 0.20039 0.26503 0.8066 0.0
O2185 O 0.21443 0.25054 0.81697 0.0
O2186 O 0.20831 0.27747 0.78884 0.0
O2187 O 0.23986 0.23694 0.77044 0.0
O2188 O 0.27647 0.22981 0.78474 0.0
O2189 O 0.26029 0.28064 0.81936 0.0
C2190 C 0.28136 0.30689 0.76531 0.0
C2191 C 0.25341 0.22222 0.77906 0.0
Zn2192 Zn 0.02624 0.98597 0.53131 0.0
Zn2193 Zn 0.00688 0.03488 0.51063 0.0
C2194 C 0.05552 0.00251 0.5767 0.0
O2195 O 0.07096 0.99418 0.56179 0.0
C2196 C 0.97585 0.02337 0.4654 0.0
O2197 O 0.96215 0.03379 0.48087 0.0
O2198 O 0.02982 0.95053 0.53608 0.0
O2199 O 0.99018 0.98291 0.51752 0.0
O2200 O 0.98292 0.01853 0.534 0.0
C2201 C 0.0136 0.94064 0.54966 0.0
O2202 O 0.99749 0.95388 0.5581 0.0
O2203 O 0.03326 0.00218 0.56763 0.0
C2204 C 0.01022 0.07872 0.48803 0.0
O2205 O 0.02286 0.06518 0.47426 0.0
O2206 O 1.00109 0.07009 0.50742 0.0
O2207 O 0.04421 0.03929 0.51873 0.0
O2208 O 0.05322 0.00186 0.5108 0.0
O2209 O 0.99664 0.01873 0.47444 0.0
C2210 C 0.97562 0.99554 0.52797 0.0
C2211 C 0.05957 0.02528 0.51259 0.0
Zn2212 Zn 0.25894 0.79193 0.76453 0.0
Zn2213 Zn 0.27463 0.7382 0.78012 0.0
C2214 C 0.21357 0.77711 0.73728 0.0
O2215 O 0.22732 0.78883 0.72145 0.0
C2216 C 0.32136 0.74637 0.80494 0.0
O2217 O 0.30799 0.73153 0.81865 0.0
O2218 O 0.25478 0.82816 0.76227 0.0
O2219 O 0.27426 0.78983 0.79982 0.0
O2220 O 0.25773 0.75282 0.80903 0.0
C2221 C 0.24212 0.83619 0.77933 0.0
O2222 O 0.23461 0.8214 0.79642 0.0
O2223 O 0.22355 0.77437 0.75914 0.0
C2224 C 0.28934 0.6935 0.76362 0.0
O2225 O 0.2985 0.7092 0.74805 0.0
O2226 O 0.27661 0.70121 0.78078 0.0
O2227 O 0.25933 0.74154 0.74509 0.0
O2228 O 0.27726 0.77808 0.73645 0.0
O2229 O 0.31067 0.7541 0.78567 0.0
C2230 C 0.26412 0.77595 0.81538 0.0
C2231 C 0.27075 0.755 0.73002 0.0
Zn2232 Zn 0.52858 0.02206 0.99864 0.0
Zn2233 Zn 0.51891 0.00656 0.04959 0.0
C2234 C 0.57411 0.05273 0.01149 0.0
O2235 O 0.56058 0.06746 1.00075 0.0
C2236 C 0.47211 0.97785 0.03646 0.0
O2237 O 0.4846 0.96158 0.04584 0.0
O2238 O 0.53282 0.02686 0.96193 0.0
O2239 O 0.51638 0.98542 0.99787 0.0
O2240 O 0.537 0.98079 0.03384 0.0
C2241 C 0.54902 0.01428 0.95473 0.0
O2242 O 0.55849 1.00044 0.97073 0.0
O2243 O 0.56407 0.0308 0.01444 0.0
C2244 C 0.50383 0.01864 0.09589 0.0
O2245 O 0.49551 0.03413 0.08107 0.0
O2246 O 0.5158 0.00262 0.08653 0.0
O2247 O 0.53265 0.04255 0.04905 0.0
O2248 O 0.50936 0.04695 0.01484 0.0
O2249 O 0.48334 0.99959 0.03465 0.0
C2250 C 0.52814 0.97225 0.01142 0.0
C2251 C 0.51972 0.05566 0.03674 0.0
Zn2252 Zn 0.27179 0.23426 0.2576 0.0
Zn2253 Zn 0.25335 0.28338 0.28551 0.0
C2254 C 0.31492 0.24698 0.23708 0.0
O2255 O 0.29888 0.23512 0.21875 0.0
C2256 C 0.21468 0.26854 0.31345 0.0
O2257 O 0.23245 0.28079 0.32987 0.0
O2258 O 0.27537 0.19844 0.24925 0.0
O2259 O 0.25711 0.23381 0.29151 0.0
O2260 O 0.27634 0.2691 0.31073 0.0
C2261 C 0.2853 0.18952 0.2682 0.0
O2262 O 0.29114 0.20341 0.28983 0.0
O2263 O 0.30765 0.25079 0.25907 0.0
C2264 C 0.23054 0.32303 0.28245 0.0
O2265 O 0.21969 0.30604 0.26446 0.0
O2266 O 0.24925 0.31871 0.29617 0.0
O2267 O 0.25979 0.28561 0.24829 0.0
O2268 O 0.2537 0.24804 0.22831 0.0
O2269 O 0.21883 0.26545 0.2902 0.0
C2270 C 0.26763 0.24634 0.31173 0.0
C2271 C 0.25595 0.27139 0.2277 0.0
Zn2272 Zn 0.52224 0.4896 0.04978 0.0
Zn2273 Zn 0.50339 0.54319 0.01699 0.0
C2274 C 0.55679 0.49153 0.093 0.0
O2275 O 0.56629 0.47783 0.07617 0.0
C2276 C 0.47806 0.53501 0.96955 0.0
O2277 O 0.46384 0.54554 0.98434 0.0
O2278 O 0.52156 0.4525 0.04661 0.0
O2279 O 0.48594 0.49403 0.04821 0.0
O2280 O 0.47363 0.52703 0.03314 0.0
C2281 C 0.50816 0.44163 0.06214 0.0
O2282 O 0.4968 0.45494 0.07755 0.0
O2283 O 0.53763 0.50046 0.08587 0.0
C2284 C 0.51888 0.59052 0.00331 0.0
O2285 O 0.53604 0.57821 0.99571 0.0
O2286 O 0.50171 0.57943 0.01498 0.0
O2287 O 0.53793 0.54297 0.03391 0.0
O2288 O 0.54576 0.50535 0.02541 0.0
O2289 O 0.49834 0.53003 0.97963 0.0
C2290 C 0.46906 0.50687 0.04337 0.0
C2291 C 0.55213 0.52865 0.02562 0.0
Zn2292 Zn 0.76003 0.28805 0.26547 0.0
Zn2293 Zn 0.77755 0.23355 0.2814 0.0
C2294 C 0.71446 0.27903 0.23848 0.0
O2295 O 0.72896 0.29244 0.22449 0.0
C2296 C 0.82269 0.24643 0.30878 0.0
O2297 O 0.80931 0.23126 0.32217 0.0
O2298 O 0.75852 0.32531 0.2667 0.0
O2299 O 0.77482 0.2823 0.30013 0.0
O2300 O 0.75851 0.24543 0.30954 0.0
C2301 C 0.74658 0.33246 0.28484 0.0
O2302 O 0.73755 0.31607 0.29979 0.0
O2303 O 0.72403 0.27267 0.25908 0.0
C2304 C 0.8006 0.19264 0.26846 0.0
O2305 O 0.81223 0.21062 0.25686 0.0
O2306 O 0.78278 0.19721 0.28117 0.0
O2307 O 0.76103 0.23761 0.24716 0.0
O2308 O 0.77736 0.27386 0.23638 0.0
O2309 O 0.81245 0.25274 0.28847 0.0
C2310 C 0.76308 0.26877 0.315 0.0
C2311 C 0.77227 0.25042 0.23149 0.0
Zn2312 Zn 0.02047 0.52226 0.49886 0.0
Zn2313 Zn 0.0119 0.50758 0.54963 0.0
C2314 C 0.06625 0.55259 0.51147 0.0
O2315 O 0.05335 0.56728 0.49977 0.0
C2316 C 0.96733 0.47602 0.5384 0.0
O2317 O 0.98148 0.46318 0.55119 0.0
O2318 O 0.024 0.52541 0.46178 0.0
O2319 O 0.00822 0.48597 0.49983 0.0
O2320 O 0.03158 0.48267 0.53437 0.0
C2321 C 0.03777 0.51039 0.45389 0.0
O2322 O 0.0474 0.49688 0.47012 0.0
O2323 O 0.0557 0.53093 0.51464 0.0
C2324 C 0.99065 0.51584 0.59288 0.0
O2325 O 0.98157 0.52966 0.57661 0.0
O2326 O 0.00744 0.50369 0.58649 0.0
O2327 O 0.0235 0.54406 0.54921 0.0
O2328 O 1.00117 0.54747 0.51397 0.0
O2329 O 0.97657 0.49769 0.53367 0.0
C2330 C 0.02133 0.47336 0.51261 0.0
C2331 C 0.0107 0.55663 0.536 0.0
Zn2332 Zn 0.79175 0.7549 0.26456 0.0
Zn2333 Zn 0.74183 0.77026 0.28199 0.0
C2334 C 0.77311 0.72524 0.21819 0.0
O2335 O 0.77863 0.70811 0.23253 0.0
C2336 C 0.75615 0.8005 0.32818 0.0
O2337 O 0.74739 0.81593 0.31354 0.0
O2338 O 0.82753 0.75215 0.26064 0.0
O2339 O 0.79353 0.79108 0.27723 0.0
O2340 O 0.7573 0.79567 0.25963 0.0
C2341 C 0.83727 0.76843 0.24705 0.0
O2342 O 0.82349 0.78366 0.23768 0.0
O2343 O 0.77605 0.74759 0.22792 0.0
C2344 C 0.69806 0.76314 0.3041 0.0
O2345 O 0.71169 0.74899 0.31565 0.0
O2346 O 0.70659 0.77479 0.28608 0.0
O2347 O 0.73903 0.73356 0.27146 0.0
O2348 O 0.77632 0.72827 0.28584 0.0
O2349 O 0.75781 0.77895 0.31839 0.0
C2350 C 0.77995 0.80445 0.26613 0.0
C2351 C 0.75337 0.71981 0.28069 0.0
Zn2352 Zn 0.76745 0.25993 0.7988 0.0
Zn2353 Zn 0.77347 0.26221 0.74456 0.0
C2354 C 0.73963 0.21191 0.79024 0.0
O2355 O 0.72413 0.22367 0.80202 0.0
C2356 C 0.80218 0.30954 0.75035 0.0
O2357 O 0.81611 0.29664 0.73753 0.0
O2358 O 0.768 0.25941 0.83681 0.0
O2359 O 0.80228 0.27378 0.79229 0.0
O2360 O 0.80128 0.24619 0.75987 0.0
C2361 C 0.78684 0.25158 0.8467 0.0
O2362 O 0.80345 0.24548 0.83201 0.0
O2363 O 0.76052 0.22373 0.78623 0.0
C2364 C 0.75552 0.26796 0.69516 0.0
O2365 O 0.7378 0.27401 0.70837 0.0
O2366 O 0.77401 0.26092 0.70669 0.0
O2367 O 0.73839 0.2494 0.7507 0.0
O2368 O 0.73883 0.27563 0.78423 0.0
O2369 O 0.78135 0.29876 0.75585 0.0
C2370 C 0.81332 0.25949 0.77896 0.0
C2371 C 0.72712 0.26307 0.76449 0.0
Zn2372 Zn 0.76887 0.73398 0.75999 0.0
Zn2373 Zn 0.76047 0.78541 0.78472 0.0
C2374 C 0.81299 0.73902 0.73955 0.0
O2375 O 0.79648 0.72646 0.72202 0.0
C2376 C 0.71788 0.7776 0.80804 0.0
O2377 O 0.73532 0.78897 0.82535 0.0
O2378 O 0.76889 0.69701 0.75287 0.0
O2379 O 0.7555 0.73531 0.79477 0.0
O2380 O 0.7783 0.76947 0.81282 0.0
C2381 C 0.78166 0.69009 0.77131 0.0
O2382 O 0.7918 0.70664 0.78999 0.0
O2383 O 0.80568 0.74731 0.76028 0.0
C2384 C 0.74868 0.83053 0.77574 0.0
O2385 O 0.73905 0.81579 0.7555 0.0
O2386 O 0.76063 0.82194 0.79363 0.0
O2387 O 0.77262 0.78472 0.74931 0.0
O2388 O 0.752 0.74947 0.73093 0.0
O2389 O 0.72379 0.77228 0.78571 0.0
C2390 C 0.76736 0.74755 0.81457 0.0
C2391 C 0.76175 0.77186 0.72937 0.0
Zn2392 Zn 0.54552 0.50544 0.54453 0.0
Zn2393 Zn 0.49429 0.52959 0.51509 0.0
C2394 C 0.53055 0.46084 0.56193 0.0
O2395 O 0.54023 0.4758 0.58202 0.0
C2396 C 0.5012 0.56738 0.48317 0.0
O2397 O 0.49121 0.548 0.46748 0.0
O2398 O 0.58058 0.50074 0.55356 0.0
O2399 O 0.54744 0.52297 0.51217 0.0
O2400 O 0.51144 0.50776 0.4914 0.0
C2401 C 0.58874 0.48973 0.53479 0.0
O2402 O 0.57468 0.48429 0.51322 0.0
O2403 O 0.52893 0.46947 0.54035 0.0
C2404 C 0.44898 0.54193 0.51943 0.0
O2405 O 0.46466 0.55775 0.53508 0.0
O2406 O 0.45718 0.52542 0.50583 0.0
O2407 O 0.4974 0.52892 0.55382 0.0
O2408 O 0.53173 0.52166 0.57452 0.0
O2409 O 0.50595 0.56438 0.50649 0.0
C2410 C 0.53474 0.51416 0.49144 0.0
C2411 C 0.51019 0.52731 0.57456 0.0
Zn2412 Zn 0.98116 0.51806 0.03359 0.0
Zn2413 Zn 0.03393 0.49648 0.01609 0.0
C2414 C 0.99504 0.56292 0.06122 0.0
O2415 O 0.98126 0.54908 0.07548 0.0
C2416 C 0.01691 0.45243 0.98608 0.0
O2417 O 0.02797 0.46665 0.97021 0.0
O2418 O 0.94489 0.52342 0.03368 0.0
O2419 O 0.98392 0.50197 0.99897 0.0
O2420 O 0.02096 0.51749 0.98978 0.0
C2421 C 0.9397 0.53891 0.01819 0.0
O2422 O 0.9573 0.54886 0.00502 0.0
O2423 O 1.0001 0.55295 0.04019 0.0
C2424 C 0.08761 0.4969 0.02909 0.0
O2425 O 0.08475 0.51136 0.04923 0.0
O2426 O 0.06951 0.49066 0.01198 0.0
O2427 O 0.03233 0.50793 0.0529 0.0
O2428 O 0.99326 0.49892 0.06166 0.0
O2429 O 0.01526 0.46174 0.0085 0.0
C2430 C 0.99763 0.51332 0.98412 0.0
C2431 C 0.01637 0.5001 0.06776 0.0
C2432 C 0.00615 0.12557 0.97927 0.0
C2433 C 0.00897 0.1293 0.9536 0.0
C2434 C 0.00453 0.10183 0.98779 0.0
C2435 C 0.00533 0.08098 0.97083 0.0
H2436 H 0.00488 0.14109 0.9928 0.0
H2437 H 1.0016 0.09967 0.00751 0.0
S2438 S 0.01361 0.08083 0.90199 0.0
N2439 N 0.01315 0.11008 0.91153 0.0
N2440 N 0.01052 0.06577 0.92754 0.0
C2441 C 0.00895 0.08459 0.94533 0.0
C2442 C 0.01065 0.10866 0.93671 0.0
C2443 C 0.16181 0.78832 0.24666 0.0
C2444 C 0.14738 0.76949 0.22973 0.0
C2445 C 0.18563 0.78584 0.25686 0.0
C2446 C 0.19593 0.76463 0.25011 0.0
H2447 H 0.15471 0.80515 0.25188 0.0
H2448 H 0.19634 0.80098 0.2694 0.0
S2449 S 0.16543 0.70975 0.20708 0.0
N2450 N 0.14498 0.72877 0.20707 0.0
N2451 N 0.18943 0.72401 0.22633 0.0
C2452 C 0.18143 0.74546 0.23365 0.0
C2453 C 0.15724 0.74792 0.22343 0.0
C2454 C 0.50797 0.89934 0.44244 0.0
C2455 C 0.5055 0.8812 0.45971 0.0
C2456 C 0.51368 0.9245 0.4509 0.0
C2457 C 0.51702 0.93261 0.47698 0.0
H2458 H 0.50644 0.89403 0.42216 0.0
H2459 H 0.51608 0.93767 0.43679 0.0
S2460 S 0.51064 0.89258 0.52999 0.0
N2461 N 0.50534 0.87299 0.50407 0.0
N2462 N 0.5161 0.9205 0.52011 0.0
C2463 C 0.51358 0.91474 0.49452 0.0
C2464 C 0.50792 0.88899 0.48585 0.0
C2465 C 0.40377 0.28753 0.72549 0.0
C2466 C 0.41446 0.2659 0.725 0.0
C2467 C 0.3803 0.28791 0.73384 0.0
C2468 C 0.36662 0.26676 0.7423 0.0
H2469 H 0.41324 0.3041 0.71852 0.0
H2470 H 0.37266 0.30489 0.73324 0.0
S2471 S 0.38704 0.20586 0.74638 0.0
N2472 N 0.41021 0.22309 0.73488 0.0
N2473 N 0.36597 0.22381 0.75067 0.0
C2474 C 0.37744 0.24522 0.7428 0.0
C2475 C 0.40134 0.24477 0.73405 0.0
C2476 C 0.98965 0.87959 0.57431 0.0
C2477 C 0.01076 0.86815 0.57691 0.0
C2478 C 0.9907 0.90262 0.56462 0.0
C2479 C 0.01287 0.91516 0.55704 0.0
H2480 H 0.9722 0.87081 0.58013 0.0
H2481 H 0.974 0.91084 0.56343 0.0
S2482 S 0.07335 0.89306 0.55962 0.0
N2483 N 0.0545 0.87094 0.57087 0.0
N2484 N 0.05636 0.9142 0.55225 0.0
C2485 C 0.03396 0.90361 0.55872 0.0
C2486 C 0.03293 0.88012 0.56876 0.0
C2487 C 0.38576 0.73923 0.83075 0.0
C2488 C 0.40044 0.76133 0.82584 0.0
C2489 C 0.36028 0.73465 0.82366 0.0
C2490 C 0.34851 0.75182 0.81103 0.0
H2491 H 0.39392 0.72566 0.84086 0.0
H2492 H 0.34972 0.71746 0.8282 0.0
S2493 S 0.37894 0.81207 0.79273 0.0
N2494 N 0.40168 0.80035 0.80707 0.0
N2495 N 0.35361 0.79149 0.79318 0.0
C2496 C 0.36307 0.77372 0.80532 0.0
C2497 C 0.38907 0.77857 0.81294 0.0
C2498 C 0.49625 0.11701 0.04819 0.0
C2499 C 0.50924 0.12717 0.07157 0.0
C2500 C 0.49995 0.09404 0.03676 0.0
C2501 C 0.51662 0.08037 0.04846 0.0
H2502 H 0.48338 0.12702 0.03853 0.0
H2503 H 0.48956 0.08691 0.01874 0.0
S2504 S 0.55415 0.09868 0.11069 0.0
N2505 N 0.53854 0.12158 0.10657 0.0
N2506 N 0.54584 0.07881 0.08528 0.0
C2507 C 0.52951 0.09039 0.07207 0.0
C2508 C 0.52572 0.11366 0.08358 0.0
C2509 C 0.14548 0.26403 0.31601 0.0
C2510 C 0.14267 0.26032 0.3417 0.0
C2511 C 0.16859 0.26482 0.30624 0.0
C2512 C 0.18971 0.26213 0.32191 0.0
H2513 H 0.12983 0.26698 0.30351 0.0
H2514 H 0.17018 0.26894 0.28674 0.0
S2515 S 0.19216 0.24995 0.38979 0.0
N2516 N 0.16303 0.25262 0.38215 0.0
N2517 N 0.20611 0.25356 0.36361 0.0
C2518 C 0.18693 0.2571 0.34718 0.0
C2519 C 0.16351 0.25633 0.35713 0.0
C2520 C 0.96105 0.99638 0.11139 0.0
C2521 C 0.96911 0.01411 0.13221 0.0
C2522 C 0.97267 0.99713 0.08878 0.0
C2523 C 0.99311 0.01545 0.08604 0.0
H2524 H 0.94521 0.98212 0.11233 0.0
H2525 H 0.96544 0.98317 0.07325 0.0
S2526 S 0.02235 0.06537 0.13555 0.0
N2527 N 0.99937 0.05004 0.14909 0.0
N2528 N 0.02144 0.05127 0.10666 0.0
C2529 C 1.00184 0.0329 0.107 0.0
C2530 C 0.98975 0.03232 0.12999 0.0
C2531 C 0.29622 0.71975 0.40247 0.0
C2532 C 0.27524 0.71741 0.4161 0.0
C2533 C 0.29574 0.72922 0.3788 0.0
C2534 C 0.27432 0.73691 0.36791 0.0
H2535 H 0.31283 0.71323 0.40966 0.0
H2536 H 0.31216 0.72992 0.36866 0.0
S2537 S 0.21526 0.73687 0.39726 0.0
N2538 N 0.23307 0.72521 0.41813 0.0
N2539 N 0.2321 0.74311 0.37343 0.0
C2540 C 0.25358 0.73584 0.38193 0.0
C2541 C 0.25404 0.72599 0.40605 0.0
C2542 C 0.53883 0.98882 0.62986 0.0
C2543 C 0.55972 0.00585 0.64047 0.0
C2544 C 0.52743 0.99102 0.60562 0.0
C2545 C 0.5369 0.01004 0.59114 0.0
H2546 H 0.53147 0.97357 0.64025 0.0
H2547 H 0.5118 0.9772 0.59778 0.0
S2548 S 0.59071 0.05973 0.61072 0.0
N2549 N 0.58896 0.04264 0.63491 0.0
N2550 N 0.56766 0.0468 0.58959 0.0
C2551 C 0.55738 0.0275 0.60186 0.0
C2552 C 0.56877 0.02539 0.62647 0.0
C2553 C 0.27255 0.34178 0.89265 0.0
C2554 C 0.2674 0.32459 0.91058 0.0
C2555 C 0.27101 0.33422 0.86659 0.0
C2556 C 0.26461 0.3091 0.8573 0.0
H2557 H 0.277 0.36139 0.89872 0.0
H2558 H 0.27439 0.34829 0.85353 0.0
S2559 S 0.2508 0.25649 0.89645 0.0
N2560 N 0.25664 0.28115 0.91734 0.0
N2561 N 0.254 0.26686 0.86831 0.0
C2562 C 0.26028 0.29157 0.87507 0.0
C2563 C 0.26153 0.29934 0.90168 0.0
C2564 C 0.96947 1.00085 0.39483 0.0
C2565 C 0.95627 0.01795 0.38378 0.0
C2566 C 0.97606 0.00275 0.42123 0.0
C2567 C 0.96908 0.02141 0.43754 0.0
H2568 H 0.97485 0.98599 0.38295 0.0
H2569 H 0.9863 0.98929 0.42896 0.0
S2570 S 0.93472 0.07098 0.41804 0.0
N2571 N 0.93676 0.05429 0.39122 0.0
N2572 N 0.94888 0.05778 0.44056 0.0
C2573 C 0.95597 0.03865 0.42666 0.0
C2574 C 0.94963 0.03694 0.39987 0.0
C2575 C 0.29581 0.74625 0.66551 0.0
C2576 C 0.2865 0.72128 0.6576 0.0
C2577 C 0.29057 0.75718 0.68892 0.0
C2578 C 0.27551 0.74355 0.70492 0.0
H2579 H 0.30725 0.75733 0.65356 0.0
H2580 H 0.29842 0.77638 0.6945 0.0
S2581 S 0.24471 0.67792 0.691 0.0
N2582 N 0.26064 0.68358 0.66644 0.0
N2583 N 0.25015 0.70388 0.70999 0.0
C2584 C 0.26563 0.71861 0.69667 0.0
C2585 C 0.27129 0.70753 0.67312 0.0
C2586 C 0.59257 0.01069 0.90369 0.0
C2587 C 0.57895 0.01632 0.88202 0.0
C2588 C 0.58265 0.01041 0.92708 0.0
C2589 C 0.55881 0.01601 0.92976 0.0
H2590 H 0.61086 0.0059 0.90245 0.0
H2591 H 0.59383 0.00571 0.94319 0.0
S2592 S 0.51606 0.03302 0.87885 0.0
N2593 N 0.54077 0.02828 0.86455 0.0
N2594 N 0.52205 0.02805 0.90889 0.0
C2595 C 0.54516 0.02227 0.90836 0.0
C2596 C 0.55522 0.02226 0.88435 0.0
C2597 C 0.25066 0.31996 0.18091 0.0
C2598 C 0.25495 0.30817 0.15752 0.0
C2599 C 0.25063 0.30773 0.20316 0.0
C2600 C 0.25457 0.28295 0.2031 0.0
H2601 H 0.24788 0.33909 0.18221 0.0
H2602 H 0.24763 0.31797 0.22066 0.0
S2603 S 0.26542 0.2432 0.1464 0.0
N2604 N 0.26244 0.26996 0.13538 0.0
N2605 N 0.2621 0.24683 0.17711 0.0
C2606 C 0.25828 0.27069 0.17966 0.0
C2607 C 0.25861 0.28332 0.15698 0.0
C2608 C 0.14872 0.97788 0.04753 0.0
C2609 C 0.15711 0.9677 0.02519 0.0
C2610 C 0.12614 0.98695 0.04691 0.0
C2611 C 0.11108 0.98584 0.02396 0.0
H2612 H 0.15942 0.9783 0.06569 0.0
H2613 H 0.11991 0.99374 0.06462 0.0
S2614 S 0.12526 0.96242 0.95998 0.0
N2615 N 0.14888 0.95805 0.97938 0.0
N2616 N 0.10694 0.97539 0.97816 0.0
C2617 C 0.11979 0.97672 0.0014 0.0
C2618 C 0.14268 0.96757 0.00202 0.0
C2619 C 0.61102 0.57537 0.02377 0.0
C2620 C 0.62692 0.5616 0.0115 0.0
C2621 C 0.58695 0.56459 0.02791 0.0
C2622 C 0.57771 0.53943 0.02026 0.0
H2623 H 0.6172 0.59475 0.03015 0.0
H2624 H 0.57561 0.57615 0.0375 0.0
S2625 S 0.61207 0.49523 0.98728 0.0
N2626 N 0.63181 0.5215 0.9916 0.0
N2627 N 0.58664 0.5011 0.99949 0.0
C2628 C 0.59344 0.52544 0.00785 0.0
C2629 C 0.61795 0.53655 0.00341 0.0
C2630 C 0.72601 0.39339 0.27048 0.0
C2631 C 0.72209 0.40383 0.29472 0.0
C2632 C 0.73541 0.371 0.26739 0.0
C2633 C 0.74075 0.35798 0.28841 0.0
H2634 H 0.72138 0.4024 0.25372 0.0
H2635 H 0.73738 0.36327 0.24835 0.0
S2636 S 0.73485 0.37786 0.35599 0.0
N2637 N 0.72532 0.39981 0.34013 0.0
N2638 N 0.74259 0.35783 0.33438 0.0
C2639 C 0.7376 0.36862 0.31277 0.0
C2640 C 0.7284 0.3915 0.31593 0.0
C2641 C 0.89813 0.47366 0.52383 0.0
C2642 C 0.8888 0.44871 0.52608 0.0
C2643 C 0.92374 0.48232 0.5269 0.0
C2644 C 0.9407 0.46622 0.53217 0.0
H2645 H 0.88556 0.48664 0.52047 0.0
H2646 H 0.93019 0.50186 0.52597 0.0
S2647 S 0.92522 0.39849 0.53641 0.0
N2648 N 0.89816 0.40765 0.53154 0.0
N2649 N 0.94618 0.42365 0.53704 0.0
C2650 C 0.93146 0.44098 0.53319 0.0
C2651 C 0.90551 0.43229 0.53022 0.0
C2652 C 0.32117 0.13941 0.2479 0.0
C2653 C 0.3184 0.12363 0.26757 0.0
C2654 C 0.30877 0.15983 0.24698 0.0
C2655 C 0.29346 0.16531 0.26586 0.0
H2656 H 0.33387 0.13667 0.23373 0.0
H2657 H 0.31239 0.17223 0.23233 0.0
S2658 S 0.27713 0.12838 0.31929 0.0
N2659 N 0.29652 0.11345 0.3045 0.0
N2660 N 0.27442 0.15262 0.30343 0.0
C2661 C 0.28958 0.1492 0.28488 0.0
C2662 C 0.30176 0.12817 0.28558 0.0
C2663 C 0.38673 0.05968 0.53109 0.0
C2664 C 0.3782 0.06955 0.50889 0.0
C2665 C 0.40945 0.05075 0.53296 0.0
C2666 C 0.42473 0.05177 0.51287 0.0
H2667 H 0.37583 0.05905 0.54724 0.0
H2668 H 0.41545 0.04379 0.55057 0.0
S2669 S 0.41061 0.07509 0.45032 0.0
N2670 N 0.38671 0.07915 0.4662 0.0
N2671 N 0.4291 0.06251 0.46963 0.0
C2672 C 0.41612 0.06109 0.49039 0.0
C2673 C 0.39297 0.06992 0.48842 0.0
C2674 C 0.74525 0.65676 0.30735 0.0
C2675 C 0.72296 0.64427 0.29411 0.0
C2676 C 0.75529 0.68097 0.30257 0.0
C2677 C 0.74318 0.69377 0.2847 0.0
H2678 H 0.75511 0.64766 0.32134 0.0
H2679 H 0.77245 0.68985 0.31327 0.0
S2680 S 0.68406 0.66926 0.24522 0.0
N2681 N 0.689 0.64656 0.26254 0.0
N2682 N 0.70764 0.6918 0.25359 0.0
C2683 C 0.72082 0.68141 0.2714 0.0
C2684 C 0.71079 0.65677 0.27609 0.0
C2685 C 0.80199 0.37771 0.76844 0.0
C2686 C 0.82737 0.38752 0.77221 0.0
C2687 C 0.79391 0.35229 0.76205 0.0
C2688 C 0.81097 0.33597 0.75865 0.0
H2689 H 0.78832 0.38982 0.77027 0.0
H2690 H 0.77419 0.34549 0.75905 0.0
S2691 S 0.87948 0.35246 0.76697 0.0
N2692 N 0.86949 0.379 0.77269 0.0
N2693 N 0.85438 0.33132 0.76043 0.0
C2694 C 0.8364 0.34554 0.76274 0.0
C2695 C 0.84459 0.3713 0.7696 0.0
C2696 C 0.04629 0.91002 0.09389 0.0
C2697 C 0.03034 0.88983 0.08049 0.0
C2698 C 0.04741 0.93388 0.08625 0.0
C2699 C 0.0328 0.93866 0.06468 0.0
H2700 H 0.05782 0.90742 0.11072 0.0
H2701 H 0.0601 0.94867 0.09738 0.0
S2702 S 0.98812 0.89199 0.02276 0.0
N2703 N 0.99957 0.87593 0.04456 0.0
N2704 N 1.00187 0.92098 0.02989 0.0
C2705 C 0.01681 0.9186 0.05094 0.0
C2706 C 0.01548 0.89418 0.05896 0.0
C2707 C 0.87155 0.23136 0.79134 0.0
C2708 C 0.88708 0.25016 0.8073 0.0
C2709 C 0.84804 0.23485 0.78125 0.0
C2710 C 0.83915 0.2571 0.78721 0.0
H2711 H 0.87757 0.2138 0.78678 0.0
H2712 H 0.83646 0.21972 0.76944 0.0
S2713 S 0.87284 0.31205 0.8281 0.0
N2714 N 0.89208 0.2918 0.82845 0.0
N2715 N 0.84803 0.29838 0.80965 0.0
C2716 C 0.85471 0.27613 0.80288 0.0
C2717 C 0.87863 0.27265 0.81291 0.0
C2718 C 0.52064 0.13732 0.55867 0.0
C2719 C 0.52893 0.14547 0.58422 0.0
C2720 C 0.51648 0.11204 0.55009 0.0
C2721 C 0.51993 0.09412 0.56696 0.0
H2722 H 0.5167 0.15054 0.54544 0.0
H2723 H 0.50916 0.10643 0.53053 0.0
S2724 S 0.54292 0.10599 0.63527 0.0
N2725 N 0.54182 0.13376 0.62587 0.0
N2726 N 0.53354 0.08629 0.60988 0.0
C2727 C 0.52916 0.10212 0.59226 0.0
C2728 C 0.53378 0.12781 0.60087 0.0
C2729 C 0.63062 0.77108 0.30394 0.0
C2730 C 0.62616 0.76894 0.3295 0.0
C2731 C 0.65417 0.76994 0.29585 0.0
C2732 C 0.6738 0.76604 0.31297 0.0
H2733 H 0.61578 0.77359 0.29014 0.0
H2734 H 0.65685 0.77143 0.27597 0.0
S2735 S 0.67175 0.75989 0.38203 0.0
N2736 N 0.64337 0.76328 0.37192 0.0
N2737 N 0.68747 0.76098 0.35678 0.0
C2738 C 0.6696 0.7642 0.33863 0.0
C2739 C 0.64581 0.76569 0.34688 0.0
C2740 C 0.00457 0.14685 0.4916 0.0
C2741 C 0.00457 0.15183 0.46595 0.0
C2742 C 0.00533 0.12286 0.49868 0.0
C2743 C 0.0066 0.10324 0.48037 0.0
H2744 H 0.00434 0.16167 0.50631 0.0
H2745 H 0.00587 0.11989 0.51866 0.0
S2746 S 0.00578 0.10623 0.4106 0.0
N2747 N 0.005 0.13487 0.42217 0.0
N2748 N 0.00633 0.08998 0.43543 0.0
C2749 C 0.00586 0.10783 0.45463 0.0
C2750 C 0.00486 0.13209 0.44742 0.0
C2751 C 0.65239 0.28049 0.20249 0.0
C2752 C 0.63545 0.26623 0.21609 0.0
C2753 C 0.6778 0.284 0.20971 0.0
C2754 C 0.68742 0.27355 0.23098 0.0
H2755 H 0.64594 0.2889 0.18595 0.0
H2756 H 0.68994 0.29529 0.19856 0.0
S2757 S 0.65064 0.2345 0.27301 0.0
N2758 N 0.62979 0.24137 0.25167 0.0
N2759 N 0.67777 0.24807 0.26552 0.0
C2760 C 0.67065 0.25904 0.24471 0.0
C2761 C 0.64464 0.25532 0.23717 0.0
C2762 C 0.53125 0.91869 0.96265 0.0
C2763 C 0.53692 0.89996 0.97753 0.0
C2764 C 0.52846 0.94188 0.97389 0.0
C2765 C 0.53159 0.94745 1.00049 0.0
H2766 H 0.52833 0.91519 0.94212 0.0
H2767 H 0.52379 0.95556 0.96151 0.0
S2768 S 0.54735 0.90485 0.04786 0.0
N2769 N 0.54602 0.88841 0.02013 0.0
N2770 N 0.54114 0.93226 0.04141 0.0
C2771 C 0.53772 0.92898 0.01561 0.0
C2772 C 0.54024 0.90518 0.0041 0.0
C2773 C 0.88006 0.7664 0.73384 0.0
C2774 C 0.88887 0.74653 0.72098 0.0
C2775 C 0.85578 0.76369 0.74117 0.0
C2776 C 0.83946 0.74118 0.73535 0.0
H2777 H 0.89191 0.78423 0.73792 0.0
H2778 H 0.84944 0.77953 0.7504 0.0
S2779 S 0.85366 0.68329 0.70311 0.0
N2780 N 0.87943 0.7034 0.70364 0.0
N2781 N 0.83409 0.69838 0.71733 0.0
C2782 C 0.84828 0.72105 0.72321 0.0
C2783 C 0.87291 0.7237 0.71604 0.0
C2784 C 0.07924 0.01109 0.93134 0.0
C2785 C 0.06614 0.00583 0.90712 0.0
C2786 C 0.06697 0.01062 0.95351 0.0
C2787 C 0.04098 0.00443 0.95265 0.0
H2788 H 0.09922 0.01612 0.93323 0.0
H2789 H 0.07813 0.01526 0.97156 0.0
S2790 S 0.99792 0.98871 0.89389 0.0
N2791 N 0.02562 0.99406 0.88346 0.0
N2792 N 0.00252 0.99281 0.92524 0.0
C2793 C 0.02758 0.99885 0.92854 0.0
C2794 C 0.04013 0.99969 0.90581 0.0
C2795 C 0.77977 0.29053 0.63513 0.0
C2796 C 0.75817 0.29477 0.62128 0.0
C2797 C 0.77865 0.28004 0.65831 0.0
C2798 C 0.75589 0.27383 0.66853 0.0
H2799 H 0.79773 0.29624 0.62846 0.0
H2800 H 0.79584 0.27821 0.66895 0.0
S2801 S 0.69382 0.27918 0.63839 0.0
N2802 N 0.71328 0.29036 0.61841 0.0
N2803 N 0.71109 0.27058 0.66194 0.0
C2804 C 0.73404 0.27663 0.65409 0.0
C2805 C 0.73519 0.28713 0.63044 0.0
C2806 C 0.46175 0.0281 0.42503 0.0
C2807 C 0.47587 0.03085 0.40427 0.0
C2808 C 0.47261 0.02442 0.44884 0.0
C2809 C 0.49819 0.02391 0.45312 0.0
H2810 H 0.44192 0.02783 0.42261 0.0
H2811 H 0.46062 0.02156 0.46392 0.0
S2812 S 0.54342 0.03108 0.40482 0.0
N2813 N 0.51668 0.03319 0.38918 0.0
N2814 N 0.53745 0.027 0.43438 0.0
C2815 C 0.51269 0.02729 0.43259 0.0
C2816 C 0.50144 0.03057 0.40807 0.0
C2817 C 0.77512 0.72689 0.14687 0.0
C2818 C 0.76225 0.70337 0.13717 0.0
C2819 C 0.77724 0.73458 0.17305 0.0
C2820 C 0.76707 0.71875 0.19046 0.0
H2821 H 0.78398 0.73925 0.13418 0.0
H2822 H 0.78796 0.75252 0.1798 0.0
S2823 S 0.73077 0.65576 0.17466 0.0
N2824 N 0.73831 0.66479 0.14694 0.0
N2825 N 0.74274 0.67899 0.19603 0.0
C2826 C 0.75361 0.69549 0.1809 0.0
C2827 C 0.75108 0.68786 0.15428 0.0
C2828 C 0.05488 0.00726 0.64866 0.0
C2829 C 0.08009 0.01483 0.65725 0.0
C2830 C 0.04672 0.00465 0.62257 0.0
C2831 C 0.06356 0.00907 0.60415 0.0
H2832 H 0.04143 0.00304 0.66219 0.0
H2833 H 0.02728 0.9981 0.61677 0.0
S2834 S 0.13138 0.03 0.61675 0.0
N2835 N 0.12166 0.02731 0.64521 0.0
N2836 N 0.10642 0.0224 0.59642 0.0
C2837 C 0.08868 0.01725 0.61256 0.0
C2838 C 0.09693 0.02013 0.63903 0.0
C2839 C 0.76671 0.31682 0.37095 0.0
C2840 C 0.75149 0.30484 0.38774 0.0
C2841 C 0.77021 0.30487 0.34765 0.0
C2842 C 0.75863 0.28034 0.34006 0.0
H2843 H 0.77615 0.33565 0.37594 0.0
H2844 H 0.78231 0.31506 0.3356 0.0
S2845 S 0.71637 0.24099 0.3771 0.0
N2846 N 0.72438 0.26732 0.39537 0.0
N2847 N 0.73074 0.24465 0.35112 0.0
C2848 C 0.74301 0.26819 0.35654 0.0
C2849 C 0.73941 0.28052 0.38043 0.0
C2850 C 0.4794 0.99549 0.1556 0.0
C2851 C 0.47465 0.01733 0.16859 0.0
C2852 C 0.49054 0.99613 0.13273 0.0
C2853 C 0.49673 0.01859 0.12202 0.0
H2854 H 0.47383 0.97776 0.16281 0.0
H2855 H 0.49302 0.97884 0.12271 0.0
S2856 S 0.48949 0.08101 0.14953 0.0
N2857 N 0.47822 0.06207 0.16996 0.0
N2858 N 0.49883 0.06329 0.12684 0.0
C2859 C 0.493 0.04063 0.13541 0.0
C2860 C 0.48203 0.04001 0.15878 0.0
C2861 C 0.75434 0.69943 0.86188 0.0
C2862 C 0.76483 0.71178 0.88545 0.0
C2863 C 0.7554 0.71122 0.83939 0.0
C2864 C 0.76701 0.73602 0.83925 0.0
H2865 H 0.74542 0.68028 0.86069 0.0
H2866 H 0.74704 0.70058 0.82188 0.0
S2867 S 0.79673 0.77703 0.89614 0.0
N2868 N 0.78677 0.75051 0.90746 0.0
N2869 N 0.78893 0.77266 0.86515 0.0
C2870 C 0.77758 0.74867 0.86272 0.0
C2871 C 0.7765 0.73658 0.88575 0.0
C2872 C 0.87993 0.0327 0.02767 0.0
C2873 C 0.87637 0.05006 0.01025 0.0
C2874 C 0.89827 0.0178 0.02533 0.0
C2875 C 0.91405 0.01992 0.00565 0.0
H2876 H 0.86883 0.03107 0.04364 0.0
H2877 H 0.90081 0.0054 0.03985 0.0
S2878 S 0.91105 0.06161 0.95406 0.0
N2879 N 0.88901 0.06767 0.97185 0.0
N2880 N 0.92356 0.03977 0.96733 0.0
C2881 C 0.90979 0.0364 0.98733 0.0
C2882 C 0.89097 0.05146 0.98967 0.0
C2883 C 0.39904 0.48857 0.03203 0.0
C2884 C 0.39329 0.47277 0.05114 0.0
C2885 C 0.42337 0.5005 0.03043 0.0
C2886 C 0.44306 0.4969 0.04769 0.0
H2887 H 0.38464 0.49144 0.0179 0.0
H2888 H 0.42693 0.51182 0.0149 0.0
S2889 S 0.43775 0.45908 0.10252 0.0
N2890 N 0.40929 0.45524 0.08848 0.0
N2891 N 0.45478 0.478 0.08574 0.0
C2892 C 0.43743 0.48197 0.06748 0.0
C2893 C 0.41264 0.46988 0.06917 0.0
C2894 C 0.30838 0.63349 0.78347 0.0
C2895 C 0.31504 0.62248 0.76063 0.0
C2896 C 0.29877 0.65582 0.78416 0.0
C2897 C 0.29601 0.66824 0.76215 0.0
H2898 H 0.31094 0.62492 0.80098 0.0
H2899 H 0.29448 0.66393 0.80225 0.0
S2900 S 0.31024 0.64686 0.69749 0.0
N2901 N 0.31749 0.62535 0.71541 0.0
N2902 N 0.30005 0.66735 0.71673 0.0
C2903 C 0.30216 0.65711 0.73914 0.0
C2904 C 0.3115 0.63425 0.73837 0.0
C2905 C 0.12771 0.59511 0.52651 0.0
C2906 C 0.14463 0.57862 0.5295 0.0
C2907 C 0.10233 0.58646 0.52139 0.0
C2908 C 0.09286 0.561 0.51931 0.0
H2909 H 0.13423 0.61484 0.52722 0.0
H2910 H 0.0901 0.59988 0.51862 0.0
S2911 S 0.1294 0.51031 0.52744 0.0
N2912 N 0.15024 0.53581 0.5314 0.0
N2913 N 0.10236 0.51939 0.5219 0.0
C2914 C 0.1095 0.54432 0.52324 0.0
C2915 C 0.13544 0.55317 0.52823 0.0
C2916 C 0.71364 0.88169 0.79359 0.0
C2917 C 0.71874 0.89787 0.77461 0.0
C2918 C 0.7253 0.86087 0.79547 0.0
C2919 C 0.74226 0.85544 0.77832 0.0
H2920 H 0.69955 0.88431 0.80624 0.0
H2921 H 0.71972 0.84807 0.80925 0.0
S2922 S 0.76465 0.89303 0.72744 0.0
N2923 N 0.74447 0.90832 0.74041 0.0
N2924 N 0.76515 0.86834 0.74316 0.0
C2925 C 0.7485 0.87191 0.76016 0.0
C2926 C 0.73706 0.89335 0.7585 0.0
C2927 C 0.64491 0.96127 0.55548 0.0
C2928 C 0.65756 0.95712 0.53392 0.0
C2929 C 0.62284 0.97116 0.55382 0.0
C2930 C 0.6125 0.97765 0.53058 0.0
H2931 H 0.65173 0.95617 0.57374 0.0
H2932 H 0.61365 0.97345 0.57098 0.0
S2933 S 0.63922 0.97194 0.46869 0.0
N2934 N 0.65874 0.96132 0.48871 0.0
N2935 N 0.6173 0.98002 0.4856 0.0
C2936 C 0.62535 0.97432 0.50897 0.0
C2937 C 0.64779 0.96398 0.51062 0.0
C2938 C 0.32813 0.36609 0.76623 0.0
C2939 C 0.31438 0.38269 0.75518 0.0
C2940 C 0.31728 0.34176 0.76917 0.0
C2941 C 0.29206 0.3329 0.76141 0.0
H2942 H 0.34757 0.37193 0.7726 0.0
H2943 H 0.32887 0.32988 0.77781 0.0
S2944 S 0.24782 0.36919 0.73149 0.0
N2945 N 0.27421 0.38872 0.73644 0.0
N2946 N 0.25365 0.343 0.74199 0.0
C2947 C 0.27807 0.34933 0.75021 0.0
C2948 C 0.28926 0.37416 0.74704 0.0
C2949 C 0.19023 0.6485 0.26524 0.0
C2950 C 0.20729 0.63195 0.26482 0.0
C2951 C 0.19816 0.67396 0.27085 0.0
C2952 C 0.22346 0.6838 0.2759 0.0
H2953 H 0.17052 0.64164 0.26218 0.0
H2954 H 0.18432 0.68597 0.27159 0.0
S2955 S 0.27561 0.64833 0.27535 0.0
N2956 N 0.25058 0.62709 0.26868 0.0
N2957 N 0.26565 0.67513 0.2789 0.0
C2958 C 0.2408 0.66754 0.2745 0.0
C2959 C 0.23266 0.64154 0.26911 0.0
C2960 C 0.50376 0.61718 0.43759 0.0
C2961 C 0.50689 0.63923 0.45375 0.0
C2962 C 0.50263 0.59419 0.44739 0.0
C2963 C 0.50471 0.59227 0.47377 0.0
H2964 H 0.50151 0.61763 0.41714 0.0
H2965 H 0.49973 0.57775 0.43406 0.0
S2966 S 0.51475 0.64475 0.52424 0.0
N2967 N 0.5133 0.65798 0.49739 0.0
N2968 N 0.51108 0.61468 0.51595 0.0
C2969 C 0.50856 0.61427 0.4902 0.0
C2970 C 0.50959 0.63774 0.48016 0.0
C2971 C 0.66732 0.28921 0.75381 0.0
C2972 C 0.65259 0.27085 0.73659 0.0
C2973 C 0.69107 0.28618 0.76375 0.0
C2974 C 0.70101 0.26485 0.75647 0.0
H2975 H 0.66051 0.30609 0.75948 0.0
H2976 H 0.70201 0.30099 0.77651 0.0
S2977 S 0.66967 0.2112 0.71217 0.0
N2978 N 0.64957 0.23056 0.71287 0.0
N2979 N 0.69383 0.22472 0.73162 0.0
C2980 C 0.6862 0.24618 0.73964 0.0
C2981 C 0.66211 0.24922 0.72967 0.0
C2982 C 0.00339 0.39174 0.94448 0.0
C2983 C 1.00098 0.37388 0.96207 0.0
C2984 C 0.00754 0.41704 0.95249 0.0
C2985 C 0.00934 0.42559 0.97842 0.0
H2986 H 0.00296 0.38615 0.92435 0.0
H2987 H 0.00994 0.43 0.93817 0.0
S2988 S 0.00247 0.38628 0.03202 0.0
N2989 N 0.99924 0.36633 0.00646 0.0
N2990 N 0.00709 0.41405 0.02167 0.0
C2991 C 0.006 0.40793 0.99621 0.0
C2992 C 1.00192 0.38205 0.988 0.0
C2993 C 0.89784 0.74865 0.23087 0.0
C2994 C 0.9106 0.77009 0.22204 0.0
C2995 C 0.87453 0.74846 0.24004 0.0
C2996 C 0.86304 0.76961 0.2403 0.0
H2997 H 0.90579 0.73179 0.23036 0.0
H2998 H 0.86509 0.73139 0.24606 0.0
S2999 S 0.88922 0.83076 0.22028 0.0
N3000 N 0.91036 0.81319 0.21488 0.0
N3001 N 0.86679 0.81295 0.23221 0.0
C3002 C 0.87597 0.79136 0.23223 0.0
C3003 C 0.89969 0.79158 0.22308 0.0
C3004 C 0.5285 0.37964 0.06976 0.0
C3005 C 0.50757 0.36589 0.07855 0.0
C3006 C 0.52817 0.40375 0.06287 0.0
C3007 C 0.50705 0.415 0.06508 0.0
H3008 H 0.54541 0.37192 0.06879 0.0
H3009 H 0.54492 0.41406 0.05705 0.0
S3010 S 0.44714 0.38641 0.08585 0.0
N3011 N 0.46488 0.3649 0.08799 0.0
N3012 N 0.46431 0.41015 0.07526 0.0
C3013 C 0.48577 0.40111 0.07298 0.0
C3014 C 0.48601 0.37655 0.07966 0.0
C3015 C 0.88697 0.24167 0.33699 0.0
C3016 C 0.90158 0.26326 0.33072 0.0
C3017 C 0.86153 0.23664 0.32981 0.0
C3018 C 0.84968 0.25283 0.31576 0.0
H3019 H 0.89521 0.22877 0.34803 0.0
H3020 H 0.85112 0.21976 0.33524 0.0
S3021 S 0.87982 0.31169 0.29411 0.0
N3022 N 0.90262 0.30097 0.30959 0.0
N3023 N 0.85459 0.29122 0.29549 0.0
C3024 C 0.86412 0.27434 0.30897 0.0
C3025 C 0.89011 0.27967 0.31668 0.0
C3026 C 0.01382 0.61237 0.58379 0.0
C3027 C 1.00207 0.6289 0.57025 0.0
C3028 C 0.01632 0.58919 0.57244 0.0
C3029 C 0.00717 0.58142 0.54698 0.0
H3030 H 0.02119 0.61741 0.60343 0.0
H3031 H 0.02557 0.57729 0.5839 0.0
S3032 S 0.97473 0.61793 0.50323 0.0
N3033 N 0.98106 0.63612 0.5301 0.0
N3034 N 0.9856 0.59225 0.50858 0.0
C3035 C 0.99506 0.59767 0.53324 0.0
C3036 C 0.99249 0.62143 0.54492 0.0
C3037 C 0.66468 0.77043 0.84924 0.0
C3038 C 0.64356 0.76804 0.83182 0.0
C3039 C 0.6884 0.77257 0.84108 0.0
C3040 C 0.69215 0.77237 0.81511 0.0
H3041 H 0.66297 0.77147 0.86951 0.0
H3042 H 0.704 0.77487 0.85543 0.0
S3043 S 0.64292 0.7648 0.76157 0.0
N3044 N 0.62773 0.76419 0.78723 0.0
N3045 N 0.6726 0.76841 0.77183 0.0
C3046 C 0.67119 0.76913 0.79733 0.0
C3047 C 0.64687 0.76704 0.80571 0.0
C3048 C 0.48745 0.51143 0.63809 0.0
C3049 C 0.47036 0.52763 0.64226 0.0
C3050 C 0.50131 0.51238 0.6169 0.0
C3051 C 0.49848 0.5294 0.59884 0.0
H3052 H 0.49 0.49771 0.6512 0.0
H3053 H 0.51359 0.499 0.61415 0.0
S3054 S 0.45785 0.57727 0.60181 0.0
N3055 N 0.45234 0.56204 0.62689 0.0
N3056 N 0.47881 0.56412 0.58764 0.0
C3057 C 0.48219 0.54629 0.60326 0.0
C3058 C 0.46808 0.54537 0.6248 0.0
C3059 C 0.7686 0.22697 0.90814 0.0
C3060 C 0.79166 0.22525 0.92097 0.0
C3061 C 0.7671 0.23713 0.88476 0.0
C3062 C 0.78862 0.24566 0.87334 0.0
H3063 H 0.75154 0.2193 0.91556 0.0
H3064 H 0.74899 0.23693 0.87492 0.0
S3065 S 0.85343 0.24907 0.90096 0.0
N3066 N 0.83644 0.23596 0.92204 0.0
N3067 N 0.83361 0.25439 0.87775 0.0
C3068 C 0.81176 0.24546 0.88665 0.0
C3069 C 0.81329 0.23538 0.91054 0.0
C3070 C 0.06 0.48218 0.11897 0.0
C3071 C 0.04914 0.4876 0.14141 0.0
C3072 C 0.04853 0.48527 0.09525 0.0
C3073 C 0.02575 0.49393 0.09294 0.0
H3074 H 0.07807 0.47658 0.11975 0.0
H3075 H 0.05794 0.48138 0.07857 0.0
S3076 S 0.98821 0.50805 0.14562 0.0
N3077 N 0.01318 0.49984 0.15977 0.0
N3078 N 0.99169 0.50597 0.11489 0.0
C3079 C 0.01393 0.49809 0.11504 0.0
C3080 C 0.02568 0.49496 0.13935 0.0
C3081 C 0.76784 0.84047 0.39111 0.0
C3082 C 0.76506 0.82322 0.40933 0.0
C3083 C 0.76573 0.83283 0.36504 0.0
C3084 C 0.76101 0.80759 0.356 0.0
H3085 H 0.77102 0.86014 0.39701 0.0
H3086 H 0.76746 0.84691 0.35183 0.0
S3087 S 0.75308 0.75487 0.3958 0.0
N3088 N 0.75805 0.77965 0.41653 0.0
N3089 N 0.7541 0.76525 0.36746 0.0
C3090 C 0.75878 0.79007 0.374 0.0
C3091 C 0.76071 0.79788 0.40063 0.0
C3092 C 0.44274 0.53843 0.90579 0.0
C3093 C 0.45569 0.52628 0.88826 0.0
C3094 C 0.45007 0.54073 0.93186 0.0
C3095 C 0.47083 0.53114 0.94167 0.0
H3096 H 0.42655 0.54605 0.89932 0.0
H3097 H 0.43932 0.55036 0.94436 0.0
S3098 S 0.51131 0.49777 0.90363 0.0
N3099 N 0.49033 0.50448 0.88232 0.0
N3100 N 0.50433 0.50893 0.93154 0.0
C3101 C 0.48402 0.51886 0.92435 0.0
C3102 C 0.47637 0.51636 0.89763 0.0
C3103 C 0.79105 0.23913 0.16427 0.0
C3104 C 0.78767 0.21309 0.16036 0.0
C3105 C 0.78634 0.25122 0.18736 0.0
C3106 C 0.77767 0.23769 0.20721 0.0
H3107 H 0.79683 0.25026 0.1492 0.0
H3108 H 0.78907 0.27125 0.18946 0.0
S3109 S 0.76731 0.16903 0.20695 0.0
N3110 N 0.77738 0.17432 0.17914 0.0
N3111 N 0.76619 0.19657 0.22122 0.0
C3112 C 0.77441 0.2116 0.20347 0.0
C3113 C 0.78002 0.19944 0.18043 0.0
C3114 C 0.05684 0.52936 0.39038 0.0
C3115 C 0.06403 0.50769 0.3795 0.0
C3116 C 0.04699 0.52987 0.41399 0.0
C3117 C 0.04448 0.50882 0.42756 0.0
H3118 H 0.05924 0.54612 0.38076 0.0
H3119 H 0.04237 0.54709 0.42213 0.0
S3120 S 0.05939 0.4472 0.4067 0.0
N3121 N 0.06704 0.46448 0.3836 0.0
N3122 N 0.04856 0.4654 0.42784 0.0
C3123 C 0.05083 0.48685 0.41647 0.0
C3124 C 0.06061 0.48628 0.39244 0.0
C3125 C 0.76992 0.82147 0.68294 0.0
C3126 C 0.76079 0.80878 0.65913 0.0
C3127 C 0.77024 0.80924 0.70516 0.0
C3128 C 0.76115 0.78369 0.70485 0.0
H3129 H 0.77726 0.84107 0.68443 0.0
H3130 H 0.77772 0.82012 0.72282 0.0
S3131 S 0.73462 0.74191 0.64733 0.0
N3132 N 0.74209 0.76918 0.63649 0.0
N3133 N 0.74252 0.74616 0.67831 0.0
C3134 C 0.75183 0.77072 0.68113 0.0
C3135 C 0.75172 0.78323 0.65833 0.0
C3136 C 0.6491 0.4718 0.51826 0.0
C3137 C 0.65261 0.45375 0.53497 0.0
C3138 C 0.62896 0.48445 0.51928 0.0
C3139 C 0.61198 0.47991 0.53741 0.0
H3140 H 0.66174 0.47581 0.50391 0.0
H3141 H 0.62627 0.49743 0.50537 0.0
S3142 S 0.61199 0.43401 0.58481 0.0
N3143 N 0.63677 0.43149 0.56972 0.0
N3144 N 0.59937 0.45609 0.57209 0.0
C3145 C 0.6155 0.46249 0.55469 0.0
C3146 C 0.63576 0.44923 0.55339 0.0
C3147 C 0.12937 0.03397 0.50691 0.0
C3148 C 0.13505 0.05884 0.50165 0.0
C3149 C 0.10492 0.02305 0.50991 0.0
C3150 C 0.08526 0.03673 0.5083 0.0
H3151 H 0.14394 0.02285 0.50863 0.0
H3152 H 0.10151 0.00388 0.514 0.0
S3153 S 0.09061 0.10284 0.49549 0.0
N3154 N 0.11911 0.09688 0.49523 0.0
N3155 N 0.07352 0.07675 0.50119 0.0
C3156 C 0.09085 0.06169 0.50315 0.0
C3157 C 0.1156 0.07262 0.49974 0.0
C3158 C 0.21749 0.89378 0.80344 0.0
C3159 C 0.21429 0.90625 0.78157 0.0
C3160 C 0.22716 0.8716 0.80252 0.0
C3161 C 0.2344 0.86102 0.77977 0.0
H3162 H 0.21173 0.9008 0.82131 0.0
H3163 H 0.22865 0.86247 0.81982 0.0
S3164 S 0.23138 0.88723 0.71745 0.0
N3165 N 0.22022 0.90703 0.73668 0.0
N3166 N 0.23859 0.86539 0.73498 0.0
C3167 C 0.23212 0.87373 0.75791 0.0
C3168 C 0.22196 0.89626 0.75879 0.0
C3169 C 0.40913 0.93869 0.0191 0.0
C3170 C 0.39284 0.95571 0.02282 0.0
C3171 C 0.43479 0.94623 0.02289 0.0
C3172 C 0.44511 0.97112 0.0301 0.0
H3173 H 0.40197 0.91924 0.01405 0.0
H3174 H 0.44664 0.93236 0.02049 0.0
S3175 S 0.41034 0.02312 0.04096 0.0
N3176 N 0.38865 0.99861 0.03328 0.0
N3177 N 0.43704 0.01297 0.04001 0.0
C3178 C 0.42903 0.98851 0.03302 0.0
C3179 C 0.40283 0.98073 0.02955 0.0
C3180 C 0.80404 0.63067 0.75003 0.0
C3181 C 0.80994 0.62154 0.77345 0.0
C3182 C 0.79305 0.65207 0.74901 0.0
C3183 C 0.7877 0.66488 0.77141 0.0
H3184 H 0.80914 0.622 0.73258 0.0
H3185 H 0.79017 0.65944 0.73086 0.0
S3186 S 0.79569 0.64602 0.83684 0.0
N3187 N 0.80676 0.62507 0.81899 0.0
N3188 N 0.7863 0.6652 0.81717 0.0
C3189 C 0.79192 0.65486 0.79465 0.0
C3190 C 0.80303 0.63321 0.79566 0.0
C3191 C 0.87662 0.55447 0.03308 0.0
C3192 C 0.86903 0.5658 0.01149 0.0
C3193 C 0.89901 0.54491 0.03483 0.0
C3194 C 0.91489 0.54673 0.01526 0.0
H3195 H 0.86522 0.55311 0.04881 0.0
H3196 H 0.90424 0.53674 0.05196 0.0
S3197 S 0.90339 0.57434 0.95451 0.0
N3198 N 0.8791 0.57786 0.96999 0.0
N3199 N 0.92093 0.56021 0.97324 0.0
C3200 C 0.90727 0.55768 0.99342 0.0
C3201 C 0.88443 0.56711 0.99155 0.0
C3202 C 0.24379 0.15679 0.80053 0.0
C3203 C 0.22018 0.1464 0.78869 0.0
C3204 C 0.25463 0.18115 0.79707 0.0
C3205 C 0.24206 0.19617 0.78201 0.0
H3206 H 0.25405 0.14591 0.81228 0.0
H3207 H 0.27287 0.18834 0.8065 0.0
S3208 S 0.17921 0.17756 0.74771 0.0
N3209 N 0.18436 0.15292 0.76182 0.0
N3210 N 0.20428 0.1985 0.75544 0.0
C3211 C 0.21824 0.18589 0.77034 0.0
C3212 C 0.20744 0.1611 0.77364 0.0
C3213 C 0.34266 0.87025 0.26926 0.0
C3214 C 0.32645 0.88696 0.27463 0.0
C3215 C 0.33375 0.8451 0.26265 0.0
C3216 C 0.3083 0.83565 0.26137 0.0
H3217 H 0.3623 0.87682 0.2691 0.0
H3218 H 0.34694 0.83306 0.25808 0.0
S3219 S 0.25846 0.8715 0.27611 0.0
N3220 N 0.28403 0.89225 0.27998 0.0
N3221 N 0.26715 0.8448 0.2677 0.0
C3222 C 0.29199 0.85199 0.26788 0.0
C3223 C 0.30109 0.8777 0.27441 0.0
C3224 C 0.51212 0.40286 0.59336 0.0
C3225 C 0.52523 0.38597 0.58124 0.0
C3226 C 0.51234 0.4266 0.58552 0.0
C3227 C 0.52523 0.43422 0.56496 0.0
H3228 H 0.50278 0.39825 0.60999 0.0
H3229 H 0.50332 0.43953 0.59642 0.0
S3230 S 0.56108 0.39673 0.52562 0.0
N3231 N 0.55034 0.37814 0.54662 0.0
N3232 N 0.55056 0.42292 0.53186 0.0
C3233 C 0.53731 0.4172 0.55174 0.0
C3234 C 0.5374 0.39305 0.55994 0.0
C3235 C 0.36741 0.73255 0.29023 0.0
C3236 C 0.38269 0.75266 0.30467 0.0
C3237 C 0.34325 0.73443 0.28066 0.0
C3238 C 0.33347 0.75631 0.28571 0.0
H3239 H 0.37411 0.71521 0.28655 0.0
H3240 H 0.33189 0.7184 0.27004 0.0
S3241 S 0.3662 0.8144 0.32199 0.0
N3242 N 0.38653 0.79524 0.32304 0.0
N3243 N 0.34121 0.79873 0.30524 0.0
C3244 C 0.34875 0.77665 0.29971 0.0
C3245 C 0.37334 0.77484 0.30915 0.0
C3246 C 0.9948 0.62582 0.09598 0.0
C3247 C 0.00948 0.64218 0.08217 0.0
C3248 C 0.99097 0.6003 0.08937 0.0
C3249 C 1.00144 0.58998 0.06846 0.0
H3250 H 0.98623 0.63284 0.11216 0.0
H3251 H 0.97926 0.58865 0.10061 0.0
S3252 S 0.04187 0.62504 0.02635 0.0
N3253 N 0.03508 0.64654 0.04702 0.0
N3254 N 0.02764 0.59833 0.03421 0.0
C3255 C 0.01649 0.60615 0.05462 0.0
C3256 C 0.0206 0.63228 0.06159 0.0
C3257 C 0.1325 0.27049 0.8087 0.0
C3258 C 0.12878 0.26743 0.8343 0.0
C3259 C 0.15596 0.27059 0.7999 0.0
C3260 C 0.17627 0.26706 0.81631 0.0
H3261 H 0.11713 0.27268 0.7954 0.0
H3262 H 0.15802 0.27265 0.77999 0.0
S3263 S 0.17637 0.25904 0.88518 0.0
N3264 N 0.14747 0.26146 0.87602 0.0
N3265 N 0.19138 0.26147 0.85953 0.0
C3266 C 0.17283 0.26441 0.84201 0.0
C3267 C 0.14913 0.26464 0.851 0.0
C3268 C 0.5404 0.65208 0.97825 0.0
C3269 C 0.51877 0.66272 0.97606 0.0
C3270 C 0.54035 0.62913 0.98793 0.0
C3271 C 0.51872 0.61597 0.99603 0.0
H3272 H 0.55731 0.66112 0.97154 0.0
H3273 H 0.55735 0.62142 0.98857 0.0
S3274 S 0.45766 0.63686 0.99616 0.0
N3275 N 0.47552 0.65925 0.98418 0.0
N3276 N 0.47535 0.616 0.00243 0.0
C3277 C 0.49718 0.62689 0.99492 0.0
C3278 C 0.4972 0.65025 0.98485 0.0
C3279 C 0.15239 0.76364 0.69655 0.0
C3280 C 0.13485 0.75971 0.7143 0.0
C3281 C 0.17775 0.7684 0.70422 0.0
C3282 C 0.1867 0.76932 0.72996 0.0
H3283 H 0.14646 0.76384 0.67657 0.0
H3284 H 0.19042 0.77185 0.68979 0.0
S3285 S 0.14843 0.75853 0.78383 0.0
N3286 N 0.12808 0.75568 0.75862 0.0
N3287 N 0.17596 0.76472 0.77318 0.0
C3288 C 0.16941 0.76457 0.74789 0.0
C3289 C 0.14344 0.75984 0.74004 0.0
C3290 C 0.04151 0.40997 0.50553 0.0
C3291 C 0.02939 0.39965 0.48183 0.0
C3292 C 0.03883 0.43382 0.5155 0.0
C3293 C 0.02411 0.44817 0.50196 0.0
H3294 H 0.05272 0.39936 0.51661 0.0
H3295 H 0.04829 0.44098 0.53395 0.0
S3296 S 0.99011 0.42969 0.43792 0.0
N3297 N 0.00334 0.4057 0.44446 0.0
N3298 N 0.99816 0.45026 0.4628 0.0
C3299 C 0.01239 0.43804 0.47787 0.0
C3300 C 0.01509 0.41387 0.4679 0.0
C3301 C 0.37004 0.25865 0.19917 0.0
C3302 C 0.39029 0.25792 0.21694 0.0
C3303 C 0.34595 0.25647 0.20637 0.0
C3304 C 0.34101 0.25354 0.23167 0.0
H3305 H 0.37263 0.25983 0.17924 0.0
H3306 H 0.33095 0.25628 0.19172 0.0
S3307 S 0.38766 0.25273 0.28607 0.0
N3308 N 0.40406 0.25589 0.2614 0.0
N3309 N 0.35848 0.25157 0.27494 0.0
C3310 C 0.36112 0.25399 0.24996 0.0
C3311 C 0.38581 0.2561 0.24257 0.0
C3312 C 0.58624 0.51962 0.44694 0.0
C3313 C 0.57384 0.51194 0.42266 0.0
C3314 C 0.57337 0.52032 0.46874 0.0
C3315 C 0.54743 0.51312 0.46746 0.0
H3316 H 0.60612 0.52551 0.44913 0.0
H3317 H 0.58404 0.52662 0.48681 0.0
S3318 S 0.50616 0.49089 0.4084 0.0
N3319 N 0.53409 0.4966 0.39857 0.0
N3320 N 0.50987 0.49781 0.43952 0.0
C3321 C 0.53476 0.50529 0.44326 0.0
C3322 C 0.54793 0.50475 0.42094 0.0
C3323 C 0.27805 0.80387 0.14041 0.0
C3324 C 0.25868 0.79908 0.12076 0.0
C3325 C 0.27799 0.78974 0.16118 0.0
C3326 C 0.25842 0.77033 0.16326 0.0
H3327 H 0.2929 0.81937 0.14034 0.0
H3328 H 0.29285 0.79493 0.17628 0.0
S3329 S 0.20509 0.74798 0.115 0.0
N3330 N 0.2209 0.77179 0.10313 0.0
N3331 N 0.22042 0.74544 0.14252 0.0
C3332 C 0.23962 0.76443 0.14303 0.0
C3333 C 0.23979 0.77878 0.12175 0.0
C3334 C 0.99057 0.53615 0.91834 0.0
C3335 C 0.96489 0.53043 0.91173 0.0
C3336 C 1.00109 0.53095 0.94194 0.0
C3337 C 0.98629 0.51939 0.95948 0.0
H3338 H 0.00259 0.5445 0.90507 0.0
H3339 H 0.02096 0.53569 0.94627 0.0
S3340 S 0.9179 0.49946 0.95004 0.0
N3341 N 0.92495 0.51227 0.92393 0.0
N3342 N 0.94437 0.50176 0.96783 0.0
C3343 C 0.96047 0.51348 0.95281 0.0
C3344 C 0.94986 0.5192 0.92905 0.0
C3345 C 0.26768 0.22307 0.6465 0.0
C3346 C 0.27613 0.20152 0.63712 0.0
C3347 C 0.26997 0.23054 0.67276 0.0
C3348 C 0.28047 0.21652 0.69061 0.0
H3349 H 0.25972 0.23448 0.6334 0.0
H3350 H 0.2637 0.24755 0.67906 0.0
S3351 S 0.30342 0.15729 0.67548 0.0
N3352 N 0.29402 0.16553 0.64756 0.0
N3353 N 0.2982 0.17914 0.69662 0.0
C3354 C 0.28825 0.19447 0.68132 0.0
C3355 C 0.28612 0.18709 0.65468 0.0
C3356 C 0.56681 0.51342 0.16379 0.0
C3357 C 0.58479 0.49988 0.17298 0.0
C3358 C 0.55798 0.51079 0.13791 0.0
C3359 C 0.56708 0.49478 0.12017 0.0
H3360 H 0.55927 0.52589 0.17678 0.0
H3361 H 0.54388 0.52136 0.13182 0.0
S3362 S 0.61554 0.45634 0.13465 0.0
N3363 N 0.61215 0.47073 0.16238 0.0
N3364 N 0.59586 0.46576 0.11388 0.0
C3365 C 0.58548 0.48151 0.12918 0.0
C3366 C 0.59423 0.48405 0.15552 0.0
C3367 C 0.26698 0.82495 0.87047 0.0
C3368 C 0.25575 0.81201 0.88937 0.0
C3369 C 0.26953 0.81296 0.84688 0.0
C3370 C 0.26094 0.78741 0.84099 0.0
H3371 H 0.27389 0.84462 0.87395 0.0
H3372 H 0.27843 0.82402 0.83316 0.0
S3373 S 0.23001 0.74508 0.88415 0.0
N3374 N 0.23589 0.77233 0.90099 0.0
N3375 N 0.24046 0.74956 0.85624 0.0
C3376 C 0.24941 0.7742 0.85969 0.0
C3377 C 0.2468 0.78656 0.88391 0.0
C3378 C 0.98392 0.51243 0.66309 0.0
C3379 C 0.95845 0.51273 0.66419 0.0
C3380 C 0.9943 0.51238 0.63974 0.0
C3381 C 0.97955 0.51318 0.61701 0.0
H3382 H 0.99586 0.51242 0.68039 0.0
H3383 H 0.01404 0.51261 0.63958 0.0
S3384 S 0.9118 0.51311 0.60967 0.0
N3385 N 0.91871 0.51304 0.64055 0.0
N3386 N 0.93815 0.513 0.5968 0.0
C3387 C 0.95402 0.51291 0.61786 0.0
C3388 C 0.94346 0.51269 0.64145 0.0
C3389 C 0.28143 0.23456 0.38143 0.0
C3390 C 0.26588 0.21193 0.38337 0.0
C3391 C 0.28165 0.24592 0.35846 0.0
C3392 C 0.26662 0.23487 0.33641 0.0
H3393 H 0.2934 0.24365 0.39785 0.0
H3394 H 0.29395 0.26327 0.35791 0.0
S3395 S 0.22293 0.17522 0.33148 0.0
N3396 N 0.23541 0.17875 0.36118 0.0
N3397 N 0.23559 0.19976 0.31838 0.0
C3398 C 0.251 0.21218 0.33825 0.0
C3399 C 0.25069 0.20082 0.36157 0.0
C3400 C 0.38983 0.55846 0.541 0.0
C3401 C 0.37678 0.56247 0.5182 0.0
C3402 C 0.41241 0.5498 0.54091 0.0
C3403 C 0.42269 0.54456 0.51807 0.0
H3404 H 0.38338 0.56355 0.55917 0.0
H3405 H 0.42252 0.54828 0.55897 0.0
S3406 S 0.39445 0.54875 0.45309 0.0
N3407 N 0.37452 0.55807 0.47197 0.0
N3408 N 0.41728 0.54178 0.47198 0.0
C3409 C 0.40907 0.54667 0.49505 0.0
C3410 C 0.38606 0.55571 0.49509 0.0
C3411 C 0.90966 0.98582 0.5482 0.0
C3412 C 0.90053 0.96102 0.53918 0.0
C3413 C 0.93388 0.9969 0.5445 0.0
C3414 C 0.94999 0.9835 0.53189 0.0
H3415 H 0.89784 0.99686 0.55775 0.0
H3416 H 0.93996 0.01613 0.55153 0.0
S3417 S 0.93519 0.91721 0.50639 0.0
N3418 N 0.90963 0.92303 0.51826 0.0
N3419 N 0.95491 0.94343 0.51138 0.0
C3420 C 0.94108 0.95843 0.52333 0.0
C3421 C 0.91644 0.94731 0.52696 0.0
C3422 C 0.83823 0.14262 0.25023 0.0
C3423 C 0.82735 0.12194 0.26167 0.0
C3424 C 0.82913 0.16502 0.25239 0.0
C3425 C 0.80876 0.16796 0.26625 0.0
H3426 H 0.85401 0.14148 0.23943 0.0
H3427 H 0.83845 0.18025 0.24318 0.0
S3428 S 0.7734 0.11929 0.29977 0.0
N3429 N 0.79492 0.1056 0.28724 0.0
N3430 N 0.7777 0.14785 0.29137 0.0
C3431 C 0.79743 0.14731 0.27758 0.0
C3432 C 0.8067 0.1243 0.27523 0.0
C3433 C 0.63518 0.09596 0.02504 0.0
C3434 C 0.6527 0.07994 0.02336 0.0
C3435 C 0.60979 0.08681 0.0222 0.0
C3436 C 0.60092 0.06128 0.01774 0.0
H3437 H 0.64113 0.1158 0.02822 0.0
H3438 H 0.597 0.09993 0.02305 0.0
S3439 S 0.63909 0.01145 0.01203 0.0
N3440 N 0.65946 0.03726 0.0172 0.0
N3441 N 0.61159 0.01999 0.01227 0.0
C3442 C 0.6182 0.04494 0.01689 0.0
C3443 C 0.64414 0.05429 0.01961 0.0
C3444 C 0.22616 0.39136 0.29181 0.0
C3445 C 0.2007 0.39125 0.28556 0.0
C3446 C 0.23579 0.36913 0.29227 0.0
C3447 C 0.22028 0.34618 0.28614 0.0
H3448 H 0.23875 0.40874 0.29592 0.0
H3449 H 0.25557 0.36996 0.29632 0.0
S3450 S 0.1522 0.33568 0.27002 0.0
N3451 N 0.16017 0.36606 0.27406 0.0
N3452 N 0.17813 0.32455 0.2754 0.0
C3453 C 0.19473 0.34583 0.28087 0.0
C3454 C 0.18496 0.3683 0.28045 0.0
C3455 C 0.15156 0.48163 0.04821 0.0
C3456 C 0.15299 0.46064 0.03165 0.0
C3457 C 0.13081 0.49368 0.04657 0.0
C3458 C 0.11047 0.48532 0.02831 0.0
H3459 H 0.16659 0.48877 0.06271 0.0
H3460 H 0.13059 0.50949 0.0601 0.0
S3461 S 0.10472 0.4308 0.98062 0.0
N3462 N 0.13205 0.43182 0.99649 0.0
N3463 N 0.09326 0.45453 0.99318 0.0
C3464 C 0.11185 0.46458 0.01129 0.0
C3465 C 0.133 0.45226 0.01302 0.0
C3466 C 0.8256 0.86466 0.26944 0.0
C3467 C 0.81328 0.87958 0.25419 0.0
C3468 C 0.81465 0.84052 0.27301 0.0
C3469 C 0.79073 0.83026 0.26173 0.0
H3470 H 0.84401 0.87165 0.27858 0.0
H3471 H 0.8251 0.8299 0.28489 0.0
S3472 S 0.75055 0.8619 0.22009 0.0
N3473 N 0.77591 0.88253 0.22766 0.0
N3474 N 0.75511 0.83719 0.23446 0.0
C3475 C 0.77818 0.84504 0.24637 0.0
C3476 C 0.78951 0.86963 0.24255 0.0
C3477 C 0.69939 0.15048 0.76801 0.0
C3478 C 0.71646 0.13395 0.76796 0.0
C3479 C 0.70719 0.1758 0.77478 0.0
C3480 C 0.73236 0.18548 0.78132 0.0
H3481 H 0.67976 0.14365 0.76386 0.0
H3482 H 0.69335 0.18784 0.77523 0.0
S3483 S 0.78449 0.15 0.78235 0.0
N3484 N 0.75962 0.12891 0.7739 0.0
N3485 N 0.77447 0.17676 0.78606 0.0
C3486 C 0.74974 0.16928 0.78022 0.0
C3487 C 0.74173 0.14341 0.77374 0.0
loop_
_geom_bond_atom_site_label_1
_geom_bond_atom_site_label_2
_geom_bond_distance
_geom_bond_site_symmetry_2
_ccdc_geom_bond_type
Li0 N17 1.990 . S
Li0 O60 1.956 1_655 S
Li0 O61 1.970 . S
Li0 O62 1.961 1_655 S
Li1 N25 1.990 . S
Li1 O60 1.970 . S
Li1 O61 1.956 1_455 S
Li1 O63 1.961 . S
Li2 N47 1.990 . S
Li2 O60 1.961 . S
Li2 O62 1.956 . S
Li2 O63 1.970 . S
Li3 N53 1.990 . S
Li3 O61 1.961 1_455 S
Li3 O62 1.970 . S
Li3 O63 1.956 . S
C4 C6 1.348 . S
C4 C7 1.356 . S
C4 O60 1.325 . S
N5 C8 1.314 . S
N5 C9 1.279 . S
C6 C4 1.348 . S
C6 C8 1.353 . S
C6 H64 0.929 . S
C7 C4 1.356 . S
C7 C9 1.358 . S
C7 H65 0.930 . S
C8 N5 1.314 . S
C8 C6 1.353 . S
C8 H66 0.930 . S
C9 N5 1.279 . S
C9 C7 1.358 . S
C9 H67 0.930 . S
C10 C13 1.348 . S
C10 C14 1.356 . S
C10 O61 1.325 . S
C11 N12 1.279 . S
C11 C14 1.358 . S
C11 H68 0.930 . S
N12 C11 1.279 . S
N12 C15 1.314 . S
C13 C10 1.348 . S
C13 C15 1.353 . S
C13 H69 0.929 . S
C14 C10 1.356 . S
C14 C11 1.358 . S
C14 H70 0.930 . S
C15 N12 1.314 . S
C15 C13 1.353 . S
C15 H71 0.930 . S
C16 N17 1.314 . S
C16 C21 1.353 . S
C16 H22 0.930 . S
N17 Li0 1.990 . S
N17 C16 1.314 . S
N17 C19 1.279 . S
C18 C19 1.358 . S
C18 C20 1.356 . S
C18 H72 0.930 . S
C19 N17 1.279 . S
C19 C18 1.358 . S
C19 H23 0.930 . S
C20 C18 1.356 . S
C20 C21 1.348 . S
C21 C16 1.353 . S
C21 C20 1.348 . S
C21 H73 0.929 . S
H22 C16 0.930 . S
H23 C19 0.930 . S
C24 N25 1.314 . S
C24 C26 1.353 . S
C24 H30 0.930 . S
N25 Li1 1.990 . S
N25 C24 1.314 . S
N25 C28 1.279 . S
C26 C24 1.353 . S
C26 C29 1.348 . S
C26 H74 0.929 . S
C27 C28 1.358 . S
C27 C29 1.356 . S
C27 H75 0.921 1_455 S
C28 N25 1.279 . S
C28 C27 1.358 . S
C28 H31 0.930 1_455 S
C29 C26 1.348 . S
C29 C27 1.356 . S
H30 C24 0.930 . S
H31 C28 0.930 1_655 S
C32 C34 1.348 . S
C32 C35 1.356 . S
C32 O62 1.325 . S
N33 C36 1.314 . S
N33 C37 1.279 . S
C34 C32 1.348 . S
C34 C36 1.353 . S
C34 H76 0.929 . S
C35 C32 1.356 . S
C35 C37 1.358 . S
C35 H77 0.930 . S
C36 N33 1.314 . S
C36 C34 1.353 . S
C36 H78 0.930 . S
C37 N33 1.279 . S
C37 C35 1.358 . S
C37 H79 0.930 . S
C38 C39 1.348 . S
C38 C40 1.356 . S
C38 O63 1.325 . S
C39 C38 1.348 . S
C39 C41 1.353 . S
C39 H80 0.929 . S
C40 C38 1.356 . S
C40 C42 1.358 . S
C40 H81 0.930 . S
C41 C39 1.353 . S
C41 N43 1.314 . S
C41 H82 0.930 . S
C42 C40 1.358 . S
C42 N43 1.279 . S
C42 H83 0.930 . S
N43 C41 1.314 . S
N43 C42 1.279 . S
C44 C46 1.353 . S
C44 N47 1.314 . S
C44 H50 0.930 . S
C45 N47 1.279 . S
C45 C48 1.358 . S
C45 H51 0.930 . S
C46 C44 1.353 . S
C46 C49 1.348 . S
C46 H84 0.929 . S
N47 Li2 1.990 . S
N47 C44 1.314 . S
N47 C45 1.279 . S
C48 C45 1.358 . S
C48 C49 1.356 . S
C48 H85 0.930 . S
C49 C46 1.348 . S
C49 C48 1.356 . S
H50 C44 0.930 . S
H51 C45 0.930 . S
C52 N53 1.314 . S
C52 C54 1.353 1_455 S
C52 H58 0.930 1_455 S
N53 Li3 1.990 . S
N53 C52 1.314 . S
N53 C56 1.279 . S
C54 C52 1.353 1_655 S
C54 C57 1.348 1_655 S
C54 H86 0.929 . S
C55 C56 1.358 . S
C55 C57 1.356 . S
C55 H87 0.930 . S
C56 N53 1.279 . S
C56 C55 1.358 . S
C56 H59 0.930 . S
C57 C54 1.348 1_455 S
C57 C55 1.356 . S
H58 C52 0.930 1_655 S
H59 C56 0.930 . S
O60 Li0 1.956 1_455 S
O60 Li1 1.970 . S
O60 Li2 1.961 . S
O60 C4 1.325 . S
O61 Li0 1.970 . S
O61 Li1 1.956 1_655 S
O61 Li3 1.961 1_655 S
O61 C10 1.325 . S
O62 Li0 1.961 1_455 S
O62 Li2 1.956 . S
O62 Li3 1.970 . S
O62 C32 1.325 . S
O63 Li1 1.961 . S
O63 Li2 1.970 . S
O63 Li3 1.956 . S
O63 C38 1.325 . S
H64 C6 0.929 . S
H65 C7 0.930 . S
H66 C8 0.930 . S
H67 C9 0.930 . S
H68 C11 0.930 . S
H69 C13 0.929 . S
H70 C14 0.930 . S
H71 C15 0.930 . S
H72 C18 0.930 . S
H73 C21 0.929 . S
H74 C26 0.929 . S
H75 C27 0.921 1_655 S
H76 C34 0.929 . S
H77 C35 0.930 . S
H78 C36 0.930 . S
H79 C37 0.930 . S
H80 C39 0.929 . S
H81 C40 0.930 . S
H82 C41 0.930 . S
H83 C42 0.930 . S
H84 C46 0.929 . S
H85 C48 0.930 . S
H86 C54 0.929 . S
H87 C55 0.930 . S
Li88 N105 1.990 . S
Li88 O148 1.956 . S
Li88 O149 1.970 . S
Li88 O150 1.961 1_455 S
Li89 N113 1.990 . S
Li89 O148 1.970 . S
Li89 O149 1.956 . S
Li89 O151 1.961 . S
Li90 N135 1.990 1_455 S
Li90 O148 1.961 . S
Li90 O150 1.956 1_455 S
Li90 O151 1.970 . S
Li91 N141 1.990 . S
Li91 O149 1.961 1_655 S
Li91 O150 1.970 . S
Li91 O151 1.956 1_655 S
C92 C94 1.348 . S
C92 C95 1.356 . S
C92 O148 1.325 . S
N93 C96 1.314 . S
N93 C97 1.279 . S
C94 C92 1.348 . S
C94 C96 1.353 . S
C94 H152 0.929 . S
C95 C92 1.356 . S
C95 C97 1.358 . S
C95 H153 0.930 . S
C96 N93 1.314 . S
C96 C94 1.353 . S
C96 H154 0.930 . S
C97 N93 1.279 . S
C97 C95 1.358 . S
C97 H155 0.930 . S
C98 C101 1.348 . S
C98 C102 1.356 . S
C98 O149 1.325 . S
C99 N100 1.279 . S
C99 C102 1.358 . S
C99 H156 0.930 . S
N100 C99 1.279 . S
N100 C103 1.314 . S
C101 C98 1.348 . S
C101 C103 1.353 . S
C101 H157 0.929 . S
C102 C98 1.356 . S
C102 C99 1.358 . S
C102 H158 0.930 . S
C103 N100 1.314 . S
C103 C101 1.353 . S
C103 H159 0.930 . S
C104 N105 1.314 1_655 S
C104 C109 1.353 . S
C104 H110 0.930 . S
N105 Li88 1.990 . S
N105 C104 1.314 1_455 S
N105 C107 1.279 . S
C106 C107 1.358 . S
C106 C108 1.356 . S
C106 H160 0.930 . S
C107 N105 1.279 . S
C107 C106 1.358 . S
C107 H111 0.930 . S
C108 C106 1.356 . S
C108 C109 1.348 1_455 S
C109 C104 1.353 . S
C109 C108 1.348 1_655 S
C109 H161 0.929 . S
H110 C104 0.930 . S
H111 C107 0.930 . S
C112 N113 1.314 . S
C112 C114 1.353 . S
C112 H118 0.930 . S
N113 Li89 1.990 . S
N113 C112 1.314 . S
N113 C116 1.279 . S
C114 C112 1.353 . S
C114 C117 1.348 . S
C114 H162 0.929 . S
C115 C116 1.358 . S
C115 C117 1.356 . S
C115 H163 0.930 . S
C116 N113 1.279 . S
C116 C115 1.358 . S
C116 H119 0.930 . S
C117 C114 1.348 . S
C117 C115 1.356 . S
H118 C112 0.930 . S
H119 C116 0.930 . S
C120 C122 1.348 . S
C120 C123 1.356 . S
C120 O150 1.325 . S
N121 C124 1.314 . S
N121 C125 1.279 . S
C122 C120 1.348 . S
C122 C124 1.353 . S
C122 H164 0.929 . S
C123 C120 1.356 . S
C123 C125 1.358 . S
C123 H165 0.930 . S
C124 N121 1.314 . S
C124 C122 1.353 . S
C124 H166 0.930 . S
C125 N121 1.279 . S
C125 C123 1.358 . S
C125 H167 0.930 . S
C126 C127 1.348 1_455 S
C126 C128 1.356 . S
C126 O151 1.325 . S
C127 C126 1.348 1_655 S
C127 C129 1.353 . S
C127 H168 0.929 . S
C128 C126 1.356 . S
C128 C130 1.358 . S
C128 H169 0.930 . S
C129 C127 1.353 . S
C129 N131 1.314 1_655 S
C129 H170 0.930 . S
C130 C128 1.358 . S
C130 N131 1.279 . S
C130 H171 0.930 . S
N131 C129 1.314 1_455 S
N131 C130 1.279 . S
C132 C134 1.353 . S
C132 N135 1.314 1_455 S
C132 H138 0.930 . S
C133 N135 1.279 . S
C133 C136 1.358 . S
C133 H139 0.930 . S
C134 C132 1.353 . S
C134 C137 1.348 1_455 S
C134 H172 0.929 . S
N135 Li90 1.990 1_655 S
N135 C132 1.314 1_655 S
N135 C133 1.279 . S
C136 C133 1.358 . S
C136 C137 1.356 . S
C136 H173 0.930 . S
C137 C134 1.348 1_655 S
C137 C136 1.356 . S
H138 C132 0.930 . S
H139 C133 0.930 . S
C140 N141 1.314 . S
C140 C142 1.353 . S
C140 H146 0.930 . S
N141 Li91 1.990 . S
N141 C140 1.314 . S
N141 C144 1.279 . S
C142 C140 1.353 . S
C142 C145 1.348 . S
C142 H174 0.929 . S
C143 C144 1.358 . S
C143 C145 1.356 . S
C143 H175 0.930 . S
C144 N141 1.279 . S
C144 C143 1.358 . S
C144 H147 0.930 . S
C145 C142 1.348 . S
C145 C143 1.356 . S
H146 C140 0.930 . S
H147 C144 0.930 . S
O148 Li88 1.956 . S
O148 Li89 1.970 . S
O148 Li90 1.961 . S
O148 C92 1.325 . S
O149 Li88 1.970 . S
O149 Li89 1.956 . S
O149 Li91 1.961 1_455 S
O149 C98 1.325 . S
O150 Li88 1.961 1_655 S
O150 Li90 1.956 1_655 S
O150 Li91 1.970 . S
O150 C120 1.325 . S
O151 Li89 1.961 . S
O151 Li90 1.970 . S
O151 Li91 1.956 1_455 S
O151 C126 1.325 . S
H152 C94 0.929 . S
H153 C95 0.930 . S
H154 C96 0.930 . S
H155 C97 0.930 . S
H156 C99 0.930 . S
H157 C101 0.929 . S
H158 C102 0.930 . S
H159 C103 0.930 . S
H160 C106 0.930 . S
H161 C109 0.929 . S
H162 C114 0.929 . S
H163 C115 0.930 . S
H164 C122 0.929 . S
H165 C123 0.930 . S
H166 C124 0.930 . S
H167 C125 0.930 . S
H168 C127 0.929 . S
H169 C128 0.930 . S
H170 C129 0.930 . S
H171 C130 0.930 . S
H172 C134 0.929 . S
H173 C136 0.930 . S
H174 C142 0.929 . S
H175 C143 0.930 . S
Li176 N193 1.990 . S
Li176 O236 1.956 . S
Li176 O237 1.970 . S
Li176 O238 1.961 . S
Li177 N201 1.990 . S
Li177 O236 1.970 . S
Li177 O237 1.956 . S
Li177 O239 1.961 . S
Li178 N223 1.990 . S
Li178 O236 1.961 . S
Li178 O238 1.956 . S
Li178 O239 1.970 . S
Li179 N229 1.990 . S
Li179 O237 1.961 . S
Li179 O238 1.970 . S
Li179 O239 1.956 . S
C180 C182 1.348 . S
C180 C183 1.356 . S
C180 O236 1.325 . S
N181 C184 1.314 . S
N181 C185 1.279 . S
C182 C180 1.348 . S
C182 C184 1.353 . S
C182 H240 0.929 . S
C183 C180 1.356 . S
C183 C185 1.358 . S
C183 H241 0.930 . S
C184 N181 1.314 . S
C184 C182 1.353 . S
C184 H242 0.930 . S
C185 N181 1.279 . S
C185 C183 1.358 . S
C185 H243 0.930 . S
C186 C189 1.348 . S
C186 C190 1.356 . S
C186 O237 1.325 . S
C187 N188 1.279 . S
C187 C190 1.358 . S
C187 H244 0.930 . S
N188 C187 1.279 . S
N188 C191 1.314 . S
C189 C186 1.348 . S
C189 C191 1.353 . S
C189 H245 0.929 . S
C190 C186 1.356 . S
C190 C187 1.358 . S
C190 H246 0.930 . S
C191 N188 1.314 . S
C191 C189 1.353 . S
C191 H247 0.930 . S
C192 N193 1.314 . S
C192 C197 1.353 . S
C192 H198 0.930 . S
N193 Li176 1.990 . S
N193 C192 1.314 . S
N193 C195 1.279 . S
C194 C195 1.358 . S
C194 C196 1.356 . S
C194 H248 0.930 . S
C195 N193 1.279 . S
C195 C194 1.358 . S
C195 H199 0.930 . S
C196 C194 1.356 . S
C196 C197 1.348 . S
C197 C192 1.353 . S
C197 C196 1.348 . S
C197 H249 0.929 . S
H198 C192 0.930 . S
H199 C195 0.930 . S
C200 N201 1.314 . S
C200 C202 1.353 . S
C200 H206 0.930 . S
N201 Li177 1.990 . S
N201 C200 1.314 . S
N201 C204 1.279 . S
C202 C200 1.353 . S
C202 C205 1.348 . S
C202 H250 0.929 . S
C203 C204 1.358 . S
C203 C205 1.356 . S
C203 H251 0.930 . S
C204 N201 1.279 . S
C204 C203 1.358 . S
C204 H207 0.930 . S
C205 C202 1.348 . S
C205 C203 1.356 . S
H206 C200 0.930 . S
H207 C204 0.930 . S
C208 C210 1.348 . S
C208 C211 1.356 . S
C208 O238 1.325 . S
N209 C212 1.314 . S
N209 C213 1.279 . S
C210 C208 1.348 . S
C210 C212 1.353 . S
C210 H252 0.929 . S
C211 C208 1.356 . S
C211 C213 1.358 . S
C211 H253 0.930 . S
C212 N209 1.314 . S
C212 C210 1.353 . S
C212 H254 0.930 . S
C213 N209 1.279 . S
C213 C211 1.358 . S
C213 H255 0.930 . S
C214 C215 1.348 . S
C214 C216 1.356 . S
C214 O239 1.325 . S
C215 C214 1.348 . S
C215 C217 1.353 . S
C215 H256 0.929 . S
C216 C214 1.356 . S
C216 C218 1.358 . S
C216 H257 0.930 . S
C217 C215 1.353 . S
C217 N219 1.314 . S
C217 H258 0.930 . S
C218 C216 1.358 . S
C218 N219 1.279 . S
C218 H259 0.930 . S
N219 C217 1.314 . S
N219 C218 1.279 . S
C220 C222 1.353 . S
C220 N223 1.314 . S
C220 H226 0.930 . S
C221 N223 1.279 . S
C221 C224 1.358 . S
C221 H227 0.930 . S
C222 C220 1.353 . S
C222 C225 1.348 . S
C222 H260 0.929 . S
N223 Li178 1.990 . S
N223 C220 1.314 . S
N223 C221 1.279 . S
C224 C221 1.358 . S
C224 C225 1.356 . S
C224 H261 0.930 . S
C225 C222 1.348 . S
C225 C224 1.356 . S
H226 C220 0.930 . S
H227 C221 0.930 . S
C228 N229 1.314 . S
C228 C230 1.353 . S
C228 H234 0.930 . S
N229 Li179 1.990 . S
N229 C228 1.314 . S
N229 C232 1.279 . S
C230 C228 1.353 . S
C230 C233 1.348 . S
C230 H262 0.929 . S
C231 C232 1.358 . S
C231 C233 1.356 . S
C231 H263 0.930 . S
C232 N229 1.279 . S
C232 C231 1.358 . S
C232 H235 0.930 . S
C233 C230 1.348 . S
C233 C231 1.356 . S
H234 C228 0.930 . S
H235 C232 0.930 . S
O236 Li176 1.956 . S
O236 Li177 1.970 . S
O236 Li178 1.961 . S
O236 C180 1.325 . S
O237 Li176 1.970 . S
O237 Li177 1.956 . S
O237 Li179 1.961 . S
O237 C186 1.325 . S
O238 Li176 1.961 . S
O238 Li178 1.956 . S
O238 Li179 1.970 . S
O238 C208 1.325 . S
O239 Li177 1.961 . S
O239 Li178 1.970 . S
O239 Li179 1.956 . S
O239 C214 1.325 . S
H240 C182 0.929 . S
H241 C183 0.930 . S
H242 C184 0.930 . S
H243 C185 0.930 . S
H244 C187 0.930 . S
H245 C189 0.929 . S
H246 C190 0.930 . S
H247 C191 0.930 . S
H248 C194 0.930 . S
H249 C197 0.929 . S
H250 C202 0.929 . S
H251 C203 0.930 . S
H252 C210 0.929 . S
H253 C211 0.930 . S
H254 C212 0.930 . S
H255 C213 0.930 . S
H256 C215 0.929 . S
H257 C216 0.930 . S
H258 C217 0.930 . S
H259 C218 0.930 . S
H260 C222 0.929 . S
H261 C224 0.930 . S
H262 C230 0.929 . S
H263 C231 0.930 . S
Li264 N281 1.990 . S
Li264 O324 1.956 . S
Li264 O325 1.970 . S
Li264 O326 1.961 . S
Li265 N289 1.990 . S
Li265 O324 1.970 . S
Li265 O325 1.956 . S
Li265 O327 1.961 . S
Li266 N311 1.990 . S
Li266 O324 1.961 . S
Li266 O326 1.956 . S
Li266 O327 1.970 . S
Li267 N317 1.990 . S
Li267 O325 1.961 . S
Li267 O326 1.970 . S
Li267 O327 1.956 . S
C268 C270 1.348 . S
C268 C271 1.356 . S
C268 O324 1.325 . S
N269 C272 1.314 . S
N269 C273 1.279 . S
C270 C268 1.348 . S
C270 C272 1.353 . S
C270 H328 0.929 . S
C271 C268 1.356 . S
C271 C273 1.358 . S
C271 H329 0.930 . S
C272 N269 1.314 . S
C272 C270 1.353 . S
C272 H330 0.930 . S
C273 N269 1.279 . S
C273 C271 1.358 . S
C273 H331 0.930 . S
C274 C277 1.348 . S
C274 C278 1.356 . S
C274 O325 1.325 . S
C275 N276 1.279 . S
C275 C278 1.358 . S
C275 H332 0.930 . S
N276 C275 1.279 . S
N276 C279 1.314 . S
C277 C274 1.348 . S
C277 C279 1.353 . S
C277 H333 0.929 . S
C278 C274 1.356 . S
C278 C275 1.358 . S
C278 H334 0.930 . S
C279 N276 1.314 . S
C279 C277 1.353 . S
C279 H335 0.930 . S
C280 N281 1.314 . S
C280 C285 1.353 . S
C280 H286 0.930 . S
N281 Li264 1.990 . S
N281 C280 1.314 . S
N281 C283 1.279 . S
C282 C283 1.358 . S
C282 C284 1.356 . S
C282 H336 0.930 . S
C283 N281 1.279 . S
C283 C282 1.358 . S
C283 H287 0.930 . S
C284 C282 1.356 . S
C284 C285 1.348 . S
C285 C280 1.353 . S
C285 C284 1.348 . S
C285 H337 0.929 . S
H286 C280 0.930 . S
H287 C283 0.930 . S
C288 N289 1.314 . S
C288 C290 1.353 . S
C288 H294 0.930 . S
N289 Li265 1.990 . S
N289 C288 1.314 . S
N289 C292 1.279 . S
C290 C288 1.353 . S
C290 C293 1.348 . S
C290 H338 0.929 . S
C291 C292 1.358 . S
C291 C293 1.356 . S
C291 H339 0.930 . S
C292 N289 1.279 . S
C292 C291 1.358 . S
C292 H295 0.930 . S
C293 C290 1.348 . S
C293 C291 1.356 . S
H294 C288 0.930 . S
H295 C292 0.930 . S
C296 C298 1.348 . S
C296 C299 1.356 . S
C296 O326 1.325 . S
N297 C300 1.314 . S
N297 C301 1.279 . S
C298 C296 1.348 . S
C298 C300 1.353 . S
C298 H340 0.929 . S
C299 C296 1.356 . S
C299 C301 1.358 . S
C299 H341 0.930 . S
C300 N297 1.314 . S
C300 C298 1.353 . S
C300 H342 0.930 . S
C301 N297 1.279 . S
C301 C299 1.358 . S
C301 H343 0.930 . S
C302 C303 1.348 . S
C302 C304 1.356 . S
C302 O327 1.325 . S
C303 C302 1.348 . S
C303 C305 1.353 . S
C303 H344 0.929 . S
C304 C302 1.356 . S
C304 C306 1.358 . S
C304 H345 0.930 . S
C305 C303 1.353 . S
C305 N307 1.314 . S
C305 H346 0.930 . S
C306 C304 1.358 . S
C306 N307 1.279 . S
C306 H347 0.930 . S
N307 C305 1.314 . S
N307 C306 1.279 . S
C308 C310 1.353 . S
C308 N311 1.314 . S
C308 H314 0.930 . S
C309 N311 1.279 . S
C309 C312 1.358 . S
C309 H315 0.930 . S
C310 C308 1.353 . S
C310 C313 1.348 . S
C310 H348 0.929 . S
N311 Li266 1.990 . S
N311 C308 1.314 . S
N311 C309 1.279 . S
C312 C309 1.358 . S
C312 C313 1.356 . S
C312 H349 0.930 . S
C313 C310 1.348 . S
C313 C312 1.356 . S
H314 C308 0.930 . S
H315 C309 0.930 . S
C316 N317 1.314 . S
C316 C318 1.353 . S
C316 H322 0.930 . S
N317 Li267 1.990 . S
N317 C316 1.314 . S
N317 C320 1.279 . S
C318 C316 1.353 . S
C318 C321 1.348 . S
C318 H350 0.929 . S
C319 C320 1.358 . S
C319 C321 1.356 . S
C319 H351 0.930 . S
C320 N317 1.279 . S
C320 C319 1.358 . S
C320 H323 0.930 . S
C321 C318 1.348 . S
C321 C319 1.356 . S
H322 C316 0.930 . S
H323 C320 0.930 . S
O324 Li264 1.956 . S
O324 Li265 1.970 . S
O324 Li266 1.961 . S
O324 C268 1.325 . S
O325 Li264 1.970 . S
O325 Li265 1.956 . S
O325 Li267 1.961 . S
O325 C274 1.325 . S
O326 Li264 1.961 . S
O326 Li266 1.956 . S
O326 Li267 1.970 . S
O326 C296 1.325 . S
O327 Li265 1.961 . S
O327 Li266 1.970 . S
O327 Li267 1.956 . S
O327 C302 1.325 . S
H328 C270 0.929 . S
H329 C271 0.930 . S
H330 C272 0.930 . S
H331 C273 0.930 . S
H332 C275 0.930 . S
H333 C277 0.929 . S
H334 C278 0.930 . S
H335 C279 0.930 . S
H336 C282 0.930 . S
H337 C285 0.929 . S
H338 C290 0.929 . S
H339 C291 0.930 . S
H340 C298 0.929 . S
H341 C299 0.930 . S
H342 C300 0.930 . S
H343 C301 0.930 . S
H344 C303 0.929 . S
H345 C304 0.930 . S
H346 C305 0.930 . S
H347 C306 0.930 . S
H348 C310 0.929 . S
H349 C312 0.930 . S
H350 C318 0.929 . S
H351 C319 0.930 . S
Li352 N369 1.990 . S
Li352 O412 1.956 . S
Li352 O413 1.970 . S
Li352 O414 1.961 . S
Li353 N377 1.990 . S
Li353 O412 1.970 . S
Li353 O413 1.956 . S
Li353 O415 1.961 . S
Li354 N399 1.990 . S
Li354 O412 1.961 . S
Li354 O414 1.956 . S
Li354 O415 1.970 . S
Li355 N405 1.990 1_455 S
Li355 O413 1.961 . S
Li355 O414 1.970 . S
Li355 O415 1.956 . S
C356 C358 1.348 . S
C356 C359 1.356 . S
C356 O412 1.325 . S
N357 C360 1.314 . S
N357 C361 1.279 . S
C358 C356 1.348 . S
C358 C360 1.353 . S
C358 H416 0.929 . S
C359 C356 1.356 . S
C359 C361 1.358 . S
C359 H417 0.930 . S
C360 N357 1.314 . S
C360 C358 1.353 . S
C360 H418 0.930 . S
C361 N357 1.279 . S
C361 C359 1.358 . S
C361 H419 0.930 . S
C362 C365 1.348 . S
C362 C366 1.356 . S
C362 O413 1.325 . S
C363 N364 1.279 . S
C363 C366 1.358 . S
C363 H420 0.930 . S
N364 C363 1.279 . S
N364 C367 1.314 . S
C365 C362 1.348 . S
C365 C367 1.353 . S
C365 H421 0.929 . S
C366 C362 1.356 . S
C366 C363 1.358 . S
C366 H422 0.930 . S
C367 N364 1.314 . S
C367 C365 1.353 . S
C367 H423 0.930 . S
C368 N369 1.314 . S
C368 C373 1.353 . S
C368 H374 0.906 1_455 S
N369 Li352 1.990 . S
N369 C368 1.314 . S
N369 C371 1.279 . S
C370 C371 1.358 . S
C370 C372 1.356 . S
C370 H424 0.930 . S
C371 N369 1.279 . S
C371 C370 1.358 . S
C371 H375 0.930 . S
C372 C370 1.356 . S
C372 C373 1.348 . S
C373 C368 1.353 . S
C373 C372 1.348 . S
C373 H425 0.929 1_455 S
H374 C368 0.906 1_655 S
H375 C371 0.930 . S
C376 N377 1.314 . S
C376 C378 1.353 . S
C376 H382 0.930 . S
N377 Li353 1.990 . S
N377 C376 1.314 . S
N377 C380 1.279 . S
C378 C376 1.353 . S
C378 C381 1.348 . S
C378 H426 0.929 . S
C379 C380 1.358 . S
C379 C381 1.356 . S
C379 H427 0.930 . S
C380 N377 1.279 . S
C380 C379 1.358 . S
C380 H383 0.930 . S
C381 C378 1.348 . S
C381 C379 1.356 . S
H382 C376 0.930 . S
H383 C380 0.930 . S
C384 C386 1.348 . S
C384 C387 1.356 . S
C384 O414 1.325 1_655 S
N385 C388 1.314 . S
N385 C389 1.279 . S
C386 C384 1.348 . S
C386 C388 1.353 . S
C386 H428 0.929 . S
C387 C384 1.356 . S
C387 C389 1.358 . S
C387 H429 0.930 . S
C388 N385 1.314 . S
C388 C386 1.353 . S
C388 H430 0.930 . S
C389 N385 1.279 . S
C389 C387 1.358 . S
C389 H431 0.930 . S
C390 C391 1.348 . S
C390 C392 1.356 . S
C390 O415 1.325 . S
C391 C390 1.348 . S
C391 C393 1.353 . S
C391 H432 0.929 . S
C392 C390 1.356 . S
C392 C394 1.358 . S
C392 H433 0.930 . S
C393 C391 1.353 . S
C393 N395 1.314 . S
C393 H434 0.930 . S
C394 C392 1.358 . S
C394 N395 1.279 . S
C394 H435 0.930 . S
N395 C393 1.314 . S
N395 C394 1.279 . S
C396 C398 1.353 . S
C396 N399 1.314 . S
C396 H402 0.930 . S
C397 N399 1.279 . S
C397 C400 1.358 1_455 S
C397 H403 0.930 1_455 S
C398 C396 1.353 . S
C398 C401 1.348 . S
C398 H436 0.929 . S
N399 Li354 1.990 . S
N399 C396 1.314 . S
N399 C397 1.279 . S
C400 C397 1.358 1_655 S
C400 C401 1.356 1_655 S
C400 H437 0.930 . S
C401 C398 1.348 . S
C401 C400 1.356 1_455 S
H402 C396 0.930 . S
H403 C397 0.930 1_655 S
C404 N405 1.314 . S
C404 C406 1.353 . S
C404 H410 0.930 . S
N405 Li355 1.990 1_655 S
N405 C404 1.314 . S
N405 C408 1.279 . S
C406 C404 1.353 . S
C406 C409 1.348 . S
C406 H438 0.929 . S
C407 C408 1.358 . S
C407 C409 1.356 . S
C407 H439 0.930 . S
C408 N405 1.279 . S
C408 C407 1.358 . S
C408 H411 0.930 . S
C409 C406 1.348 . S
C409 C407 1.356 . S
H410 C404 0.930 . S
H411 C408 0.930 . S
O412 Li352 1.956 . S
O412 Li353 1.970 . S
O412 Li354 1.961 . S
O412 C356 1.325 . S
O413 Li352 1.970 . S
O413 Li353 1.956 . S
O413 Li355 1.961 . S
O413 C362 1.325 . S
O414 Li352 1.961 . S
O414 Li354 1.956 . S
O414 Li355 1.970 . S
O414 C384 1.325 1_455 S
O415 Li353 1.961 . S
O415 Li354 1.970 . S
O415 Li355 1.956 . S
O415 C390 1.325 . S
H416 C358 0.929 . S
H417 C359 0.930 . S
H418 C360 0.930 . S
H419 C361 0.930 . S
H420 C363 0.930 . S
H421 C365 0.929 . S
H422 C366 0.930 . S
H423 C367 0.930 . S
H424 C370 0.930 . S
H425 C373 0.929 1_655 S
H426 C378 0.929 . S
H427 C379 0.930 . S
H428 C386 0.929 . S
H429 C387 0.930 . S
H430 C388 0.930 . S
H431 C389 0.930 . S
H432 C391 0.929 . S
H433 C392 0.930 . S
H434 C393 0.930 . S
H435 C394 0.930 . S
H436 C398 0.929 . S
H437 C400 0.930 . S
H438 C406 0.929 . S
H439 C407 0.930 . S
Li440 N457 1.990 . S
Li440 O500 1.956 . S
Li440 O501 1.970 . S
Li440 O502 1.961 . S
Li441 N465 1.990 . S
Li441 O500 1.970 . S
Li441 O501 1.956 . S
Li441 O503 1.961 . S
Li442 N487 1.990 . S
Li442 O500 1.961 . S
Li442 O502 1.956 . S
Li442 O503 1.970 . S
Li443 N493 1.990 . S
Li443 O501 1.961 . S
Li443 O502 1.970 . S
Li443 O503 1.956 . S
C444 C446 1.348 . S
C444 C447 1.356 . S
C444 O500 1.325 . S
N445 C448 1.314 . S
N445 C449 1.279 . S
C446 C444 1.348 . S
C446 C448 1.353 . S
C446 H504 0.929 . S
C447 C444 1.356 . S
C447 C449 1.358 . S
C447 H505 0.930 . S
C448 N445 1.314 . S
C448 C446 1.353 . S
C448 H506 0.930 . S
C449 N445 1.279 . S
C449 C447 1.358 . S
C449 H507 0.930 . S
C450 C453 1.348 . S
C450 C454 1.356 . S
C450 O501 1.325 . S
C451 N452 1.279 . S
C451 C454 1.358 . S
C451 H508 0.930 . S
N452 C451 1.279 . S
N452 C455 1.314 . S
C453 C450 1.348 . S
C453 C455 1.353 . S
C453 H509 0.929 . S
C454 C450 1.356 . S
C454 C451 1.358 . S
C454 H510 0.930 . S
C455 N452 1.314 . S
C455 C453 1.353 . S
C455 H511 0.930 . S
C456 N457 1.314 . S
C456 C461 1.353 . S
C456 H462 0.930 . S
N457 Li440 1.990 . S
N457 C456 1.314 . S
N457 C459 1.279 . S
C458 C459 1.358 . S
C458 C460 1.356 . S
C458 H512 0.930 . S
C459 N457 1.279 . S
C459 C458 1.358 . S
C459 H463 0.930 . S
C460 C458 1.356 . S
C460 C461 1.348 . S
C461 C456 1.353 . S
C461 C460 1.348 . S
C461 H513 0.929 . S
H462 C456 0.930 . S
H463 C459 0.930 . S
C464 N465 1.314 . S
C464 C466 1.353 . S
C464 H470 0.930 . S
N465 Li441 1.990 . S
N465 C464 1.314 . S
N465 C468 1.279 . S
C466 C464 1.353 . S
C466 C469 1.348 . S
C466 H514 0.929 . S
C467 C468 1.358 . S
C467 C469 1.356 . S
C467 H515 0.930 . S
C468 N465 1.279 . S
C468 C467 1.358 . S
C468 H471 0.930 . S
C469 C466 1.348 . S
C469 C467 1.356 . S
H470 C464 0.930 . S
H471 C468 0.930 . S
C472 C474 1.348 . S
C472 C475 1.356 . S
C472 O502 1.325 . S
N473 C476 1.314 . S
N473 C477 1.279 . S
C474 C472 1.348 . S
C474 C476 1.353 . S
C474 H516 0.929 . S
C475 C472 1.356 . S
C475 C477 1.358 . S
C475 H517 0.930 . S
C476 N473 1.314 . S
C476 C474 1.353 . S
C476 H518 0.930 . S
C477 N473 1.279 . S
C477 C475 1.358 . S
C477 H519 0.930 . S
C478 C479 1.348 . S
C478 C480 1.356 . S
C478 O503 1.325 . S
C479 C478 1.348 . S
C479 C481 1.353 . S
C479 H520 0.929 . S
C480 C478 1.356 . S
C480 C482 1.358 . S
C480 H521 0.930 . S
C481 C479 1.353 . S
C481 N483 1.314 . S
C481 H522 0.930 . S
C482 C480 1.358 . S
C482 N483 1.279 . S
C482 H523 0.930 . S
N483 C481 1.314 . S
N483 C482 1.279 . S
C484 C486 1.353 . S
C484 N487 1.314 . S
C484 H490 0.930 . S
C485 N487 1.279 . S
C485 C488 1.358 . S
C485 H491 0.930 . S
C486 C484 1.353 . S
C486 C489 1.348 . S
C486 H524 0.929 . S
N487 Li442 1.990 . S
N487 C484 1.314 . S
N487 C485 1.279 . S
C488 C485 1.358 . S
C488 C489 1.356 . S
C488 H525 0.930 . S
C489 C486 1.348 . S
C489 C488 1.356 . S
H490 C484 0.930 . S
H491 C485 0.930 . S
C492 N493 1.314 . S
C492 C494 1.353 . S
C492 H498 0.930 . S
N493 Li443 1.990 . S
N493 C492 1.314 . S
N493 C496 1.279 . S
C494 C492 1.353 . S
C494 C497 1.348 . S
C494 H526 0.929 . S
C495 C496 1.358 . S
C495 C497 1.356 . S
C495 H527 0.930 . S
C496 N493 1.279 . S
C496 C495 1.358 . S
C496 H499 0.930 . S
C497 C494 1.348 . S
C497 C495 1.356 . S
H498 C492 0.930 . S
H499 C496 0.930 . S
O500 Li440 1.956 . S
O500 Li441 1.970 . S
O500 Li442 1.961 . S
O500 C444 1.325 . S
O501 Li440 1.970 . S
O501 Li441 1.956 . S
O501 Li443 1.961 . S
O501 C450 1.325 . S
O502 Li440 1.961 . S
O502 Li442 1.956 . S
O502 Li443 1.970 . S
O502 C472 1.325 . S
O503 Li441 1.961 . S
O503 Li442 1.970 . S
O503 Li443 1.956 . S
O503 C478 1.325 . S
H504 C446 0.929 . S
H505 C447 0.930 . S
H506 C448 0.930 . S
H507 C449 0.930 . S
H508 C451 0.930 . S
H509 C453 0.929 . S
H510 C454 0.930 . S
H511 C455 0.930 . S
H512 C458 0.930 . S
H513 C461 0.929 . S
H514 C466 0.929 . S
H515 C467 0.930 . S
H516 C474 0.929 . S
H517 C475 0.930 . S
H518 C476 0.930 . S
H519 C477 0.930 . S
H520 C479 0.929 . S
H521 C480 0.930 . S
H522 C481 0.930 . S
H523 C482 0.930 . S
H524 C486 0.929 . S
H525 C488 0.930 . S
H526 C494 0.929 . S
H527 C495 0.930 . S
Li528 N545 1.990 . S
Li528 O588 1.956 . S
Li528 O589 1.970 . S
Li528 O590 1.961 . S
Li529 N553 1.990 . S
Li529 O588 1.970 . S
Li529 O589 1.956 . S
Li529 O591 1.961 . S
Li530 N575 1.990 . S
Li530 O588 1.961 . S
Li530 O590 1.956 . S
Li530 O591 1.970 . S
Li531 N581 1.990 . S
Li531 O589 1.961 . S
Li531 O590 1.970 . S
Li531 O591 1.956 . S
C532 C534 1.348 . S
C532 C535 1.356 . S
C532 O588 1.325 . S
N533 C536 1.314 . S
N533 C537 1.279 . S
C534 C532 1.348 . S
C534 C536 1.353 . S
C534 H592 0.929 . S
C535 C532 1.356 . S
C535 C537 1.358 . S
C535 H593 0.930 . S
C536 N533 1.314 . S
C536 C534 1.353 . S
C536 H594 0.930 . S
C537 N533 1.279 . S
C537 C535 1.358 . S
C537 H595 0.930 . S
C538 C541 1.348 . S
C538 C542 1.356 . S
C538 O589 1.325 . S
C539 N540 1.279 . S
C539 C542 1.358 . S
C539 H596 0.930 . S
N540 C539 1.279 . S
N540 C543 1.314 . S
C541 C538 1.348 . S
C541 C543 1.353 . S
C541 H597 0.929 . S
C542 C538 1.356 . S
C542 C539 1.358 . S
C542 H598 0.930 . S
C543 N540 1.314 . S
C543 C541 1.353 . S
C543 H599 0.930 . S
C544 N545 1.314 . S
C544 C549 1.353 . S
C544 H550 0.930 . S
N545 Li528 1.990 . S
N545 C544 1.314 . S
N545 C547 1.279 . S
C546 C547 1.358 . S
C546 C548 1.356 . S
C546 H600 0.930 . S
C547 N545 1.279 . S
C547 C546 1.358 . S
C547 H551 0.930 . S
C548 C546 1.356 . S
C548 C549 1.348 . S
C549 C544 1.353 . S
C549 C548 1.348 . S
C549 H601 0.929 . S
H550 C544 0.930 . S
H551 C547 0.930 . S
C552 N553 1.314 . S
C552 C554 1.353 . S
C552 H558 0.930 . S
N553 Li529 1.990 . S
N553 C552 1.314 . S
N553 C556 1.279 . S
C554 C552 1.353 . S
C554 C557 1.348 . S
C554 H602 0.929 . S
C555 C556 1.358 . S
C555 C557 1.356 . S
C555 H603 0.930 . S
C556 N553 1.279 . S
C556 C555 1.358 . S
C556 H559 0.930 . S
C557 C554 1.348 . S
C557 C555 1.356 . S
H558 C552 0.930 . S
H559 C556 0.930 . S
C560 C562 1.348 . S
C560 C563 1.356 . S
C560 O590 1.325 . S
N561 C564 1.314 . S
N561 C565 1.279 . S
C562 C560 1.348 . S
C562 C564 1.353 . S
C562 H604 0.929 . S
C563 C560 1.356 . S
C563 C565 1.358 . S
C563 H605 0.930 . S
C564 N561 1.314 . S
C564 C562 1.353 . S
C564 H606 0.930 . S
C565 N561 1.279 . S
C565 C563 1.358 . S
C565 H607 0.930 . S
C566 C567 1.348 . S
C566 C568 1.356 . S
C566 O591 1.325 . S
C567 C566 1.348 . S
C567 C569 1.353 . S
C567 H608 0.929 . S
C568 C566 1.356 . S
C568 C570 1.358 . S
C568 H609 0.930 . S
C569 C567 1.353 . S
C569 N571 1.314 . S
C569 H610 0.930 . S
C570 C568 1.358 . S
C570 N571 1.279 . S
C570 H611 0.930 . S
N571 C569 1.314 . S
N571 C570 1.279 . S
C572 C574 1.353 . S
C572 N575 1.314 . S
C572 H578 0.930 . S
C573 N575 1.279 . S
C573 C576 1.358 . S
C573 H579 0.930 . S
C574 C572 1.353 . S
C574 C577 1.348 . S
C574 H612 0.929 . S
N575 Li530 1.990 . S
N575 C572 1.314 . S
N575 C573 1.279 . S
C576 C573 1.358 . S
C576 C577 1.356 . S
C576 H613 0.930 . S
C577 C574 1.348 . S
C577 C576 1.356 . S
H578 C572 0.930 . S
H579 C573 0.930 . S
C580 N581 1.314 . S
C580 C582 1.353 . S
C580 H586 0.930 . S
N581 Li531 1.990 . S
N581 C580 1.314 . S
N581 C584 1.279 . S
C582 C580 1.353 . S
C582 C585 1.348 . S
C582 H614 0.929 . S
C583 C584 1.358 . S
C583 C585 1.356 . S
C583 H615 0.930 . S
C584 N581 1.279 . S
C584 C583 1.358 . S
C584 H587 0.930 . S
C585 C582 1.348 . S
C585 C583 1.356 . S
H586 C580 0.930 . S
H587 C584 0.930 . S
O588 Li528 1.956 . S
O588 Li529 1.970 . S
O588 Li530 1.961 . S
O588 C532 1.325 . S
O589 Li528 1.970 . S
O589 Li529 1.956 . S
O589 Li531 1.961 . S
O589 C538 1.325 . S
O590 Li528 1.961 . S
O590 Li530 1.956 . S
O590 Li531 1.970 . S
O590 C560 1.325 . S
O591 Li529 1.961 . S
O591 Li530 1.970 . S
O591 Li531 1.956 . S
O591 C566 1.325 . S
H592 C534 0.929 . S
H593 C535 0.930 . S
H594 C536 0.930 . S
H595 C537 0.930 . S
H596 C539 0.930 . S
H597 C541 0.929 . S
H598 C542 0.930 . S
H599 C543 0.930 . S
H600 C546 0.930 . S
H601 C549 0.929 . S
H602 C554 0.929 . S
H603 C555 0.930 . S
H604 C562 0.929 . S
H605 C563 0.930 . S
H606 C564 0.930 . S
H607 C565 0.930 . S
H608 C567 0.929 . S
H609 C568 0.930 . S
H610 C569 0.930 . S
H611 C570 0.930 . S
H612 C574 0.929 . S
H613 C576 0.930 . S
H614 C582 0.929 . S
H615 C583 0.930 . S
Li616 N633 1.990 . S
Li616 O676 1.956 1_455 S
Li616 O677 1.970 . S
Li616 O678 1.961 . S
Li617 N641 1.990 . S
Li617 O676 1.970 . S
Li617 O677 1.956 1_655 S
Li617 O679 1.961 . S
Li618 N663 1.992 . S
Li618 O676 1.960 . S
Li618 O678 1.957 1_655 S
Li618 O679 1.970 . S
Li619 N669 1.990 . S
Li619 O677 1.961 . S
Li619 O678 1.970 . S
Li619 O679 1.956 1_455 S
C620 C622 1.348 . S
C620 C623 1.356 . S
C620 O676 1.325 . S
N621 C624 1.314 . S
N621 C625 1.279 . S
C622 C620 1.348 . S
C622 C624 1.353 . S
C622 H680 0.929 . S
C623 C620 1.356 . S
C623 C625 1.358 . S
C623 H681 0.930 . S
C624 N621 1.314 . S
C624 C622 1.353 . S
C624 H682 0.930 . S
C625 N621 1.279 . S
C625 C623 1.358 . S
C625 H683 0.930 . S
C626 C629 1.348 1_455 S
C626 C630 1.356 . S
C626 O677 1.325 . S
C627 N628 1.279 . S
C627 C630 1.358 . S
C627 H684 0.930 . S
N628 C627 1.279 . S
N628 C631 1.314 1_455 S
C629 C626 1.348 1_655 S
C629 C631 1.353 . S
C629 H685 0.929 . S
C630 C626 1.356 . S
C630 C627 1.358 . S
C630 H686 0.930 . S
C631 N628 1.314 1_655 S
C631 C629 1.353 . S
C631 H687 0.930 . S
C632 N633 1.314 . S
C632 C637 1.353 . S
C632 H638 0.930 . S
N633 Li616 1.990 . S
N633 C632 1.314 . S
N633 C635 1.279 1_455 S
C634 C635 1.358 . S
C634 C636 1.356 1_655 S
C634 H688 0.930 . S
C635 N633 1.279 1_655 S
C635 C634 1.358 . S
C635 H639 0.930 . S
C636 C634 1.356 1_455 S
C636 C637 1.348 . S
C637 C632 1.353 . S
C637 C636 1.348 . S
C637 H689 0.929 . S
H638 C632 0.930 . S
H639 C635 0.930 . S
C640 N641 1.314 . S
C640 C642 1.353 . S
C640 H646 0.930 . S
N641 Li617 1.990 . S
N641 C640 1.314 . S
N641 C644 1.279 . S
C642 C640 1.353 . S
C642 C645 1.348 . S
C642 H690 0.929 . S
C643 C644 1.358 . S
C643 C645 1.356 . S
C643 H691 0.930 . S
C644 N641 1.279 . S
C644 C643 1.358 . S
C644 H647 0.930 . S
C645 C642 1.348 . S
C645 C643 1.356 . S
H646 C640 0.930 . S
H647 C644 0.930 . S
C648 C650 1.348 . S
C648 C651 1.356 . S
C648 O678 1.325 . S
N649 C652 1.314 . S
N649 C653 1.279 . S
C650 C648 1.348 . S
C650 C652 1.353 . S
C650 H692 0.929 . S
C651 C648 1.356 . S
C651 C653 1.358 . S
C651 H693 0.930 . S
C652 N649 1.314 . S
C652 C650 1.353 . S
C652 H694 0.930 . S
C653 N649 1.279 . S
C653 C651 1.358 . S
C653 H695 0.930 . S
C654 C655 1.346 . S
C654 C656 1.356 . S
C654 O679 1.325 . S
C655 C654 1.346 . S
C655 C657 1.353 . S
C655 H696 0.931 1_655 S
C656 C654 1.356 . S
C656 C658 1.358 . S
C656 H697 0.930 . S
C657 C655 1.353 . S
C657 N659 1.314 . S
C657 H698 0.919 1_655 S
C658 C656 1.358 . S
C658 N659 1.279 . S
C658 H699 0.930 . S
N659 C657 1.314 . S
N659 C658 1.279 . S
C660 C662 1.353 . S
C660 N663 1.339 . S
C660 H666 0.930 . S
C661 N663 1.253 1_455 S
C661 C664 1.358 . S
C661 H667 0.930 . S
C662 C660 1.353 . S
C662 C665 1.348 . S
C662 H700 0.929 . S
N663 Li618 1.992 . S
N663 C660 1.339 . S
N663 C661 1.253 1_655 S
C664 C661 1.358 . S
C664 C665 1.356 1_455 S
C664 H701 0.930 . S
C665 C662 1.348 . S
C665 C664 1.356 1_655 S
H666 C660 0.930 . S
H667 C661 0.930 . S
C668 N669 1.314 . S
C668 C670 1.353 . S
C668 H674 0.930 . S
N669 Li619 1.990 . S
N669 C668 1.314 . S
N669 C672 1.279 . S
C670 C668 1.353 . S
C670 C673 1.348 . S
C670 H702 0.929 . S
C671 C672 1.358 . S
C671 C673 1.356 . S
C671 H703 0.930 . S
C672 N669 1.279 . S
C672 C671 1.358 . S
C672 H675 0.930 . S
C673 C670 1.348 . S
C673 C671 1.356 . S
H674 C668 0.930 . S
H675 C672 0.930 . S
O676 Li616 1.956 1_655 S
O676 Li617 1.970 . S
O676 Li618 1.960 . S
O676 C620 1.325 . S
O677 Li616 1.970 . S
O677 Li617 1.956 1_455 S
O677 Li619 1.961 . S
O677 C626 1.325 . S
O678 Li616 1.961 . S
O678 Li618 1.957 1_455 S
O678 Li619 1.970 . S
O678 C648 1.325 . S
O679 Li617 1.961 . S
O679 Li618 1.970 . S
O679 Li619 1.956 1_655 S
O679 C654 1.325 . S
H680 C622 0.929 . S
H681 C623 0.930 . S
H682 C624 0.930 . S
H683 C625 0.930 . S
H684 C627 0.930 . S
H685 C629 0.929 . S
H686 C630 0.930 . S
H687 C631 0.930 . S
H688 C634 0.930 . S
H689 C637 0.929 . S
H690 C642 0.929 . S
H691 C643 0.930 . S
H692 C650 0.929 . S
H693 C651 0.930 . S
H694 C652 0.930 . S
H695 C653 0.930 . S
H696 C655 0.931 1_455 S
H697 C656 0.930 . S
H698 C657 0.919 1_455 S
H699 C658 0.930 . S
H700 C662 0.929 . S
H701 C664 0.930 . S
H702 C670 0.929 . S
H703 C671 0.930 . S
Li704 N721 1.990 . S
Li704 O764 1.956 1_545 S
Li704 O765 1.970 . S
Li704 O766 1.961 . S
Li705 N729 1.990 . S
Li705 O764 1.970 . S
Li705 O765 1.956 1_565 S
Li705 O767 1.961 1_565 S
Li706 N751 1.990 . S
Li706 O764 1.961 1_545 S
Li706 O766 1.956 . S
Li706 O767 1.970 . S
Li707 N757 1.990 . S
Li707 O765 1.961 . S
Li707 O766 1.970 . S
Li707 O767 1.956 . S
C708 C710 1.348 . S
C708 C711 1.356 . S
C708 O764 1.325 . S
N709 C712 1.314 . S
N709 C713 1.279 . S
C710 C708 1.348 . S
C710 C712 1.353 . S
C710 H768 0.929 . S
C711 C708 1.356 . S
C711 C713 1.358 . S
C711 H769 0.971 . S
C712 N709 1.314 . S
C712 C710 1.353 . S
C712 H770 0.930 . S
C713 N709 1.279 . S
C713 C711 1.358 . S
C713 H771 0.930 . S
C714 C717 1.348 . S
C714 C718 1.356 . S
C714 O765 1.325 . S
C715 N716 1.279 . S
C715 C718 1.358 . S
C715 H772 0.930 . S
N716 C715 1.279 . S
N716 C719 1.314 . S
C717 C714 1.348 . S
C717 C719 1.353 . S
C717 H773 0.929 . S
C718 C714 1.356 . S
C718 C715 1.358 . S
C718 H774 0.930 . S
C719 N716 1.314 . S
C719 C717 1.353 . S
C719 H775 0.930 . S
C720 N721 1.314 . S
C720 C725 1.353 . S
C720 H726 0.930 . S
N721 Li704 1.990 . S
N721 C720 1.314 . S
N721 C723 1.279 . S
C722 C723 1.358 . S
C722 C724 1.356 . S
C722 H776 0.921 1_545 S
C723 N721 1.279 . S
C723 C722 1.358 . S
C723 H727 0.930 1_545 S
C724 C722 1.356 . S
C724 C725 1.348 . S
C725 C720 1.353 . S
C725 C724 1.348 . S
C725 H777 0.929 . S
H726 C720 0.930 . S
H727 C723 0.930 1_565 S
C728 N729 1.314 . S
C728 C730 1.353 . S
C728 H734 0.930 . S
N729 Li705 1.990 . S
N729 C728 1.314 . S
N729 C732 1.279 . S
C730 C728 1.353 . S
C730 C733 1.348 . S
C730 H778 0.929 . S
C731 C732 1.358 . S
C731 C733 1.356 . S
C731 H779 0.930 . S
C732 N729 1.279 . S
C732 C731 1.358 . S
C732 H735 0.930 . S
C733 C730 1.348 . S
C733 C731 1.356 . S
H734 C728 0.930 . S
H735 C732 0.930 . S
C736 C738 1.348 . S
C736 C739 1.356 . S
C736 O766 1.325 . S
N737 C740 1.314 . S
N737 C741 1.279 . S
C738 C736 1.348 . S
C738 C740 1.353 . S
C738 H780 0.929 . S
C739 C736 1.356 . S
C739 C741 1.358 . S
C739 H781 0.930 . S
C740 N737 1.314 . S
C740 C738 1.353 . S
C740 H782 0.930 . S
C741 N737 1.279 . S
C741 C739 1.358 . S
C741 H783 0.930 . S
C742 C743 1.348 . S
C742 C744 1.356 . S
C742 O767 1.325 . S
C743 C742 1.348 . S
C743 C745 1.353 . S
C743 H784 0.929 . S
C744 C742 1.356 . S
C744 C746 1.358 . S
C744 H785 0.930 . S
C745 C743 1.353 . S
C745 N747 1.314 . S
C745 H786 0.930 . S
C746 C744 1.358 . S
C746 N747 1.279 . S
C746 H787 0.930 . S
N747 C745 1.314 . S
N747 C746 1.279 . S
C748 C750 1.353 . S
C748 N751 1.314 . S
C748 H754 0.930 1_545 S
C749 N751 1.279 . S
C749 C752 1.358 . S
C749 H755 0.930 . S
C750 C748 1.353 . S
C750 C753 1.348 . S
C750 H788 0.929 1_545 S
N751 Li706 1.990 . S
N751 C748 1.314 . S
N751 C749 1.279 . S
C752 C749 1.358 . S
C752 C753 1.356 . S
C752 H789 0.930 . S
C753 C750 1.348 . S
C753 C752 1.356 . S
H754 C748 0.930 1_565 S
H755 C749 0.930 . S
C756 N757 1.314 . S
C756 C758 1.353 . S
C756 H762 0.930 . S
N757 Li707 1.990 . S
N757 C756 1.314 . S
N757 C760 1.279 . S
C758 C756 1.353 . S
C758 C761 1.348 . S
C758 H790 0.929 . S
C759 C760 1.358 . S
C759 C761 1.356 . S
C759 H791 0.930 . S
C760 N757 1.279 . S
C760 C759 1.358 . S
C760 H763 0.930 . S
C761 C758 1.348 . S
C761 C759 1.356 . S
H762 C756 0.930 . S
H763 C760 0.930 . S
O764 Li704 1.956 1_565 S
O764 Li705 1.970 . S
O764 Li706 1.961 1_565 S
O764 C708 1.325 . S
O765 Li704 1.970 . S
O765 Li705 1.956 1_545 S
O765 Li707 1.961 . S
O765 C714 1.325 . S
O766 Li704 1.961 . S
O766 Li706 1.956 . S
O766 Li707 1.970 . S
O766 C736 1.325 . S
O767 Li705 1.961 1_545 S
O767 Li706 1.970 . S
O767 Li707 1.956 . S
O767 C742 1.325 . S
H768 C710 0.929 . S
H769 C711 0.971 . S
H770 C712 0.930 . S
H771 C713 0.930 . S
H772 C715 0.930 . S
H773 C717 0.929 . S
H774 C718 0.930 . S
H775 C719 0.930 . S
H776 C722 0.921 1_565 S
H777 C725 0.929 . S
H778 C730 0.929 . S
H779 C731 0.930 . S
H780 C738 0.929 . S
H781 C739 0.930 . S
H782 C740 0.930 . S
H783 C741 0.930 . S
H784 C743 0.929 . S
H785 C744 0.930 . S
H786 C745 0.930 . S
H787 C746 0.930 . S
H788 C750 0.929 1_565 S
H789 C752 0.930 . S
H790 C758 0.929 . S
H791 C759 0.930 . S
Li792 N809 1.990 . S
Li792 O852 1.956 . S
Li792 O853 1.970 . S
Li792 O854 1.961 . S
Li793 N817 1.990 . S
Li793 O852 1.970 . S
Li793 O853 1.956 . S
Li793 O855 1.961 . S
Li794 N839 1.990 . S
Li794 O852 1.961 . S
Li794 O854 1.956 . S
Li794 O855 1.970 . S
Li795 N845 1.990 . S
Li795 O853 1.961 . S
Li795 O854 1.970 . S
Li795 O855 1.956 . S
C796 C798 1.348 . S
C796 C799 1.356 . S
C796 O852 1.325 . S
N797 C800 1.314 . S
N797 C801 1.279 . S
C798 C796 1.348 . S
C798 C800 1.353 . S
C798 H856 0.929 . S
C799 C796 1.356 . S
C799 C801 1.358 . S
C799 H857 0.930 . S
C800 N797 1.314 . S
C800 C798 1.353 . S
C800 H858 0.930 . S
C801 N797 1.279 . S
C801 C799 1.358 . S
C801 H859 0.930 . S
C802 C805 1.348 . S
C802 C806 1.356 . S
C802 O853 1.325 . S
C803 N804 1.279 . S
C803 C806 1.358 . S
C803 H860 0.930 . S
N804 C803 1.279 . S
N804 C807 1.314 . S
C805 C802 1.348 . S
C805 C807 1.353 . S
C805 H861 0.929 . S
C806 C802 1.356 . S
C806 C803 1.358 . S
C806 H862 0.930 . S
C807 N804 1.314 . S
C807 C805 1.353 . S
C807 H863 0.930 . S
C808 N809 1.314 . S
C808 C813 1.353 . S
C808 H814 0.930 . S
N809 Li792 1.990 . S
N809 C808 1.314 . S
N809 C811 1.279 . S
C810 C811 1.358 . S
C810 C812 1.356 . S
C810 H864 0.930 . S
C811 N809 1.279 . S
C811 C810 1.358 . S
C811 H815 0.930 . S
C812 C810 1.356 . S
C812 C813 1.348 . S
C813 C808 1.353 . S
C813 C812 1.348 . S
C813 H865 0.929 . S
H814 C808 0.930 . S
H815 C811 0.930 . S
C816 N817 1.314 . S
C816 C818 1.353 . S
C816 H822 0.930 . S
N817 Li793 1.990 . S
N817 C816 1.314 . S
N817 C820 1.279 . S
C818 C816 1.353 . S
C818 C821 1.348 . S
C818 H866 0.929 . S
C819 C820 1.358 . S
C819 C821 1.356 . S
C819 H867 0.930 . S
C820 N817 1.279 . S
C820 C819 1.358 . S
C820 H823 0.930 . S
C821 C818 1.348 . S
C821 C819 1.356 . S
H822 C816 0.930 . S
H823 C820 0.930 . S
C824 C826 1.348 . S
C824 C827 1.356 . S
C824 O854 1.325 . S
N825 C828 1.314 . S
N825 C829 1.279 . S
C826 C824 1.348 . S
C826 C828 1.353 . S
C826 H868 0.929 . S
C827 C824 1.356 . S
C827 C829 1.358 . S
C827 H869 0.930 . S
C828 N825 1.314 . S
C828 C826 1.353 . S
C828 H870 0.930 . S
C829 N825 1.279 . S
C829 C827 1.358 . S
C829 H871 0.930 . S
C830 C831 1.348 . S
C830 C832 1.356 . S
C830 O855 1.325 . S
C831 C830 1.348 . S
C831 C833 1.353 . S
C831 H872 0.929 . S
C832 C830 1.356 . S
C832 C834 1.358 . S
C832 H873 0.930 . S
C833 C831 1.353 . S
C833 N835 1.314 . S
C833 H874 0.930 . S
C834 C832 1.358 . S
C834 N835 1.279 . S
C834 H875 0.930 . S
N835 C833 1.314 . S
N835 C834 1.279 . S
C836 C838 1.353 . S
C836 N839 1.314 . S
C836 H842 0.930 . S
C837 N839 1.279 . S
C837 C840 1.358 . S
C837 H843 0.930 . S
C838 C836 1.353 . S
C838 C841 1.348 . S
C838 H876 0.929 . S
N839 Li794 1.990 . S
N839 C836 1.314 . S
N839 C837 1.279 . S
C840 C837 1.358 . S
C840 C841 1.356 . S
C840 H877 0.930 . S
C841 C838 1.348 . S
C841 C840 1.356 . S
H842 C836 0.930 . S
H843 C837 0.930 . S
C844 N845 1.314 . S
C844 C846 1.353 . S
C844 H850 0.930 . S
N845 Li795 1.990 . S
N845 C844 1.314 . S
N845 C848 1.279 . S
C846 C844 1.353 . S
C846 C849 1.348 . S
C846 H878 0.929 . S
C847 C848 1.358 . S
C847 C849 1.356 . S
C847 H879 0.930 . S
C848 N845 1.279 . S
C848 C847 1.358 . S
C848 H851 0.930 . S
C849 C846 1.348 . S
C849 C847 1.356 . S
H850 C844 0.930 . S
H851 C848 0.930 . S
O852 Li792 1.956 . S
O852 Li793 1.970 . S
O852 Li794 1.961 . S
O852 C796 1.325 . S
O853 Li792 1.970 . S
O853 Li793 1.956 . S
O853 Li795 1.961 . S
O853 C802 1.325 . S
O854 Li792 1.961 . S
O854 Li794 1.956 . S
O854 Li795 1.970 . S
O854 C824 1.325 . S
O855 Li793 1.961 . S
O855 Li794 1.970 . S
O855 Li795 1.956 . S
O855 C830 1.325 . S
H856 C798 0.929 . S
H857 C799 0.930 . S
H858 C800 0.930 . S
H859 C801 0.930 . S
H860 C803 0.930 . S
H861 C805 0.929 . S
H862 C806 0.930 . S
H863 C807 0.930 . S
H864 C810 0.930 . S
H865 C813 0.929 . S
H866 C818 0.929 . S
H867 C819 0.930 . S
H868 C826 0.929 . S
H869 C827 0.930 . S
H870 C828 0.930 . S
H871 C829 0.930 . S
H872 C831 0.929 . S
H873 C832 0.930 . S
H874 C833 0.930 . S
H875 C834 0.930 . S
H876 C838 0.929 . S
H877 C840 0.930 . S
H878 C846 0.929 . S
H879 C847 0.930 . S
Li880 N897 1.990 . S
Li880 O940 1.956 . S
Li880 O941 1.970 . S
Li880 O942 1.961 . S
Li881 N905 1.990 . S
Li881 O940 1.970 . S
Li881 O941 1.956 . S
Li881 O943 1.961 1_545 S
Li882 N927 1.990 . S
Li882 O940 1.961 1_565 S
Li882 O942 1.956 1_565 S
Li882 O943 1.970 . S
Li883 N933 1.990 . S
Li883 O941 1.961 . S
Li883 O942 1.970 . S
Li883 O943 1.956 1_545 S
C884 C886 1.348 . S
C884 C887 1.356 . S
C884 O940 1.325 . S
N885 C888 1.314 . S
N885 C889 1.279 . S
C886 C884 1.348 . S
C886 C888 1.353 . S
C886 H944 0.929 . S
C887 C884 1.356 . S
C887 C889 1.358 . S
C887 H945 0.930 . S
C888 N885 1.314 . S
C888 C886 1.353 . S
C888 H946 0.930 . S
C889 N885 1.279 . S
C889 C887 1.358 . S
C889 H947 0.930 . S
C890 C893 1.348 . S
C890 C894 1.356 . S
C890 O941 1.325 . S
C891 N892 1.279 . S
C891 C894 1.358 . S
C891 H948 0.930 . S
N892 C891 1.279 . S
N892 C895 1.314 . S
C893 C890 1.348 . S
C893 C895 1.353 . S
C893 H949 0.929 . S
C894 C890 1.356 . S
C894 C891 1.358 . S
C894 H950 0.930 . S
C895 N892 1.314 . S
C895 C893 1.353 . S
C895 H951 0.930 . S
C896 N897 1.314 . S
C896 C901 1.353 . S
C896 H902 0.930 . S
N897 Li880 1.990 . S
N897 C896 1.314 . S
N897 C899 1.279 . S
C898 C899 1.358 . S
C898 C900 1.356 . S
C898 H952 0.930 . S
C899 N897 1.279 . S
C899 C898 1.358 . S
C899 H903 0.930 . S
C900 C898 1.356 . S
C900 C901 1.348 . S
C901 C896 1.353 . S
C901 C900 1.348 . S
C901 H953 0.929 . S
H902 C896 0.930 . S
H903 C899 0.930 . S
C904 N905 1.314 1_565 S
C904 C906 1.353 . S
C904 H910 0.930 . S
N905 Li881 1.990 . S
N905 C904 1.314 1_545 S
N905 C908 1.279 . S
C906 C904 1.353 . S
C906 C909 1.348 1_565 S
C906 H954 0.929 . S
C907 C908 1.358 . S
C907 C909 1.356 . S
C907 H955 0.930 . S
C908 N905 1.279 . S
C908 C907 1.358 . S
C908 H911 0.930 . S
C909 C906 1.348 1_545 S
C909 C907 1.356 . S
H910 C904 0.930 . S
H911 C908 0.930 . S
C912 C914 1.348 . S
C912 C915 1.356 . S
C912 O942 1.325 . S
N913 C916 1.314 . S
N913 C917 1.279 . S
C914 C912 1.348 . S
C914 C916 1.353 . S
C914 H956 0.929 1_545 S
C915 C912 1.356 . S
C915 C917 1.358 . S
C915 H957 0.930 . S
C916 N913 1.314 . S
C916 C914 1.353 . S
C916 H958 0.930 1_545 S
C917 N913 1.279 . S
C917 C915 1.358 . S
C917 H959 0.930 . S
C918 C919 1.348 . S
C918 C920 1.356 . S
C918 O943 1.325 . S
C919 C918 1.348 . S
C919 C921 1.353 . S
C919 H960 0.929 . S
C920 C918 1.356 . S
C920 C922 1.358 . S
C920 H961 0.930 . S
C921 C919 1.353 . S
C921 N923 1.314 . S
C921 H962 0.930 . S
C922 C920 1.358 . S
C922 N923 1.279 . S
C922 H963 0.930 . S
N923 C921 1.314 . S
N923 C922 1.279 . S
C924 C926 1.353 . S
C924 N927 1.314 . S
C924 H930 0.930 . S
C925 N927 1.279 . S
C925 C928 1.358 . S
C925 H931 0.930 . S
C926 C924 1.353 . S
C926 C929 1.348 . S
C926 H964 0.929 . S
N927 Li882 1.990 . S
N927 C924 1.314 . S
N927 C925 1.279 . S
C928 C925 1.358 . S
C928 C929 1.356 . S
C928 H965 0.930 . S
C929 C926 1.348 . S
C929 C928 1.356 . S
H930 C924 0.930 . S
H931 C925 0.930 . S
C932 N933 1.314 . S
C932 C934 1.353 . S
C932 H938 0.930 . S
N933 Li883 1.990 . S
N933 C932 1.314 . S
N933 C936 1.279 1_545 S
C934 C932 1.353 . S
C934 C937 1.318 1_545 S
C934 H966 0.929 . S
C935 C936 1.358 . S
C935 C937 1.389 . S
C935 H967 0.930 . S
C936 N933 1.279 1_565 S
C936 C935 1.358 . S
C936 H939 0.930 . S
C937 C934 1.318 1_565 S
C937 C935 1.389 . S
H938 C932 0.930 . S
H939 C936 0.930 . S
O940 Li880 1.956 . S
O940 Li881 1.970 . S
O940 Li882 1.961 1_545 S
O940 C884 1.325 . S
O941 Li880 1.970 . S
O941 Li881 1.956 . S
O941 Li883 1.961 . S
O941 C890 1.325 . S
O942 Li880 1.961 . S
O942 Li882 1.956 1_545 S
O942 Li883 1.970 . S
O942 C912 1.325 . S
O943 Li881 1.961 1_565 S
O943 Li882 1.970 . S
O943 Li883 1.956 1_565 S
O943 C918 1.325 . S
H944 C886 0.929 . S
H945 C887 0.930 . S
H946 C888 0.930 . S
H947 C889 0.930 . S
H948 C891 0.930 . S
H949 C893 0.929 . S
H950 C894 0.930 . S
H951 C895 0.930 . S
H952 C898 0.930 . S
H953 C901 0.929 . S
H954 C906 0.929 . S
H955 C907 0.930 . S
H956 C914 0.929 1_565 S
H957 C915 0.930 . S
H958 C916 0.930 1_565 S
H959 C917 0.930 . S
H960 C919 0.929 . S
H961 C920 0.930 . S
H962 C921 0.930 . S
H963 C922 0.930 . S
H964 C926 0.929 . S
H965 C928 0.930 . S
H966 C934 0.929 . S
H967 C935 0.930 . S
Li968 N985 1.990 . S
Li968 O1028 1.956 . S
Li968 O1029 1.970 . S
Li968 O1030 1.961 1_554 S
Li969 N993 1.990 . S
Li969 O1028 1.970 . S
Li969 O1029 1.956 . S
Li969 O1031 1.961 . S
Li970 N1015 1.990 . S
Li970 O1028 1.961 . S
Li970 O1030 1.956 1_554 S
Li970 O1031 1.970 . S
Li971 N1021 1.990 . S
Li971 O1029 1.961 1_556 S
Li971 O1030 1.970 . S
Li971 O1031 1.956 1_556 S
C972 C974 1.348 . S
C972 C975 1.356 . S
C972 O1028 1.325 . S
N973 C976 1.314 . S
N973 C977 1.279 . S
C974 C972 1.348 . S
C974 C976 1.353 . S
C974 H1032 0.929 . S
C975 C972 1.356 . S
C975 C977 1.358 . S
C975 H1033 0.930 . S
C976 N973 1.314 . S
C976 C974 1.353 . S
C976 H1034 0.930 . S
C977 N973 1.279 . S
C977 C975 1.358 . S
C977 H1035 0.930 . S
C978 C981 1.348 . S
C978 C982 1.356 . S
C978 O1029 1.325 . S
C979 N980 1.279 . S
C979 C982 1.358 . S
C979 H1036 0.936 . S
N980 C979 1.279 . S
N980 C983 1.314 . S
C981 C978 1.348 . S
C981 C983 1.353 . S
C981 H1037 0.929 . S
C982 C978 1.356 . S
C982 C979 1.358 . S
C982 H1038 0.930 . S
C983 N980 1.314 . S
C983 C981 1.353 . S
C983 H1039 0.930 . S
C984 N985 1.314 1_556 S
C984 C989 1.353 . S
C984 H990 0.930 . S
N985 Li968 1.990 . S
N985 C984 1.314 1_554 S
N985 C987 1.279 . S
C986 C987 1.358 . S
C986 C988 1.356 . S
C986 H1040 0.930 . S
C987 N985 1.279 . S
C987 C986 1.358 . S
C987 H991 0.930 . S
C988 C986 1.356 . S
C988 C989 1.348 1_554 S
C989 C984 1.353 . S
C989 C988 1.348 1_556 S
C989 H1041 0.929 . S
H990 C984 0.930 . S
H991 C987 0.930 . S
C992 N993 1.314 . S
C992 C994 1.353 . S
C992 H998 0.930 . S
N993 Li969 1.990 . S
N993 C992 1.314 . S
N993 C996 1.279 . S
C994 C992 1.353 . S
C994 C997 1.348 . S
C994 H1042 0.929 . S
C995 C996 1.358 . S
C995 C997 1.356 . S
C995 H1043 0.930 . S
C996 N993 1.279 . S
C996 C995 1.358 . S
C996 H999 0.930 . S
C997 C994 1.348 . S
C997 C995 1.356 . S
H998 C992 0.930 . S
H999 C996 0.930 . S
C1000 C1002 1.348 . S
C1000 C1003 1.356 . S
C1000 O1030 1.325 . S
N1001 C1004 1.314 . S
N1001 C1005 1.279 . S
C1002 C1000 1.348 . S
C1002 C1004 1.353 . S
C1002 H1044 0.929 . S
C1003 C1000 1.356 . S
C1003 C1005 1.358 . S
C1003 H1045 0.930 . S
C1004 N1001 1.314 . S
C1004 C1002 1.353 . S
C1004 H1046 0.930 . S
C1005 N1001 1.279 . S
C1005 C1003 1.358 . S
C1005 H1047 0.930 . S
C1006 C1007 1.348 . S
C1006 C1008 1.356 . S
C1006 O1031 1.325 . S
C1007 C1006 1.348 . S
C1007 C1009 1.353 . S
C1007 H1048 0.929 . S
C1008 C1006 1.356 . S
C1008 C1010 1.358 . S
C1008 H1049 0.930 . S
C1009 C1007 1.353 . S
C1009 N1011 1.314 . S
C1009 H1050 0.930 . S
C1010 C1008 1.358 . S
C1010 N1011 1.279 . S
C1010 H1051 0.930 . S
N1011 C1009 1.314 . S
N1011 C1010 1.279 . S
C1012 C1014 1.353 . S
C1012 N1015 1.314 . S
C1012 H1018 0.930 . S
C1013 N1015 1.279 . S
C1013 C1016 1.358 . S
C1013 H1019 0.930 1_554 S
C1014 C1012 1.353 . S
C1014 C1017 1.348 . S
C1014 H1052 0.929 . S
N1015 Li970 1.990 . S
N1015 C1012 1.314 . S
N1015 C1013 1.279 . S
C1016 C1013 1.358 . S
C1016 C1017 1.356 . S
C1016 H1053 0.930 1_554 S
C1017 C1014 1.348 . S
C1017 C1016 1.356 . S
H1018 C1012 0.930 . S
H1019 C1013 0.930 1_556 S
C1020 N1021 1.314 . S
C1020 C1022 1.353 . S
C1020 H1026 0.930 . S
N1021 Li971 1.990 . S
N1021 C1020 1.314 . S
N1021 C1024 1.279 . S
C1022 C1020 1.353 . S
C1022 C1025 1.348 . S
C1022 H1054 0.929 . S
C1023 C1024 1.358 . S
C1023 C1025 1.356 . S
C1023 H1055 0.930 . S
C1024 N1021 1.279 . S
C1024 C1023 1.358 . S
C1024 H1027 0.930 . S
C1025 C1022 1.348 . S
C1025 C1023 1.356 . S
H1026 C1020 0.930 . S
H1027 C1024 0.930 . S
O1028 Li968 1.956 . S
O1028 Li969 1.970 . S
O1028 Li970 1.961 . S
O1028 C972 1.325 . S
O1029 Li968 1.970 . S
O1029 Li969 1.956 . S
O1029 Li971 1.961 1_554 S
O1029 C978 1.325 . S
O1030 Li968 1.961 1_556 S
O1030 Li970 1.956 1_556 S
O1030 Li971 1.970 . S
O1030 C1000 1.325 . S
O1031 Li969 1.961 . S
O1031 Li970 1.970 . S
O1031 Li971 1.956 1_554 S
O1031 C1006 1.325 . S
H1032 C974 0.929 . S
H1033 C975 0.930 . S
H1034 C976 0.930 . S
H1035 C977 0.930 . S
H1036 C979 0.936 . S
H1037 C981 0.929 . S
H1038 C982 0.930 . S
H1039 C983 0.930 . S
H1040 C986 0.930 . S
H1041 C989 0.929 . S
H1042 C994 0.929 . S
H1043 C995 0.930 . S
H1044 C1002 0.929 . S
H1045 C1003 0.930 . S
H1046 C1004 0.930 . S
H1047 C1005 0.930 . S
H1048 C1007 0.929 . S
H1049 C1008 0.930 . S
H1050 C1009 0.930 . S
H1051 C1010 0.930 . S
H1052 C1014 0.929 . S
H1053 C1016 0.930 1_556 S
H1054 C1022 0.929 . S
H1055 C1023 0.930 . S
Li1056 N1073 1.990 . S
Li1056 O1116 1.956 . S
Li1056 O1117 1.970 . S
Li1056 O1118 1.961 . S
Li1057 N1081 1.990 . S
Li1057 O1116 1.970 . S
Li1057 O1117 1.956 . S
Li1057 O1119 1.961 . S
Li1058 N1103 1.990 . S
Li1058 O1116 1.961 . S
Li1058 O1118 1.956 . S
Li1058 O1119 1.970 . S
Li1059 N1109 1.990 1_554 S
Li1059 O1117 1.961 . S
Li1059 O1118 1.970 . S
Li1059 O1119 1.956 . S
C1060 C1062 1.348 . S
C1060 C1063 1.356 . S
C1060 O1116 1.325 . S
N1061 C1064 1.314 . S
N1061 C1065 1.279 . S
C1062 C1060 1.348 . S
C1062 C1064 1.353 . S
C1062 H1120 0.929 . S
C1063 C1060 1.356 . S
C1063 C1065 1.358 . S
C1063 H1121 0.930 . S
C1064 N1061 1.314 . S
C1064 C1062 1.353 . S
C1064 H1122 0.930 . S
C1065 N1061 1.279 . S
C1065 C1063 1.358 . S
C1065 H1123 0.930 . S
C1066 C1069 1.348 . S
C1066 C1070 1.356 . S
C1066 O1117 1.325 . S
C1067 N1068 1.279 . S
C1067 C1070 1.358 . S
C1067 H1124 0.930 . S
N1068 C1067 1.279 . S
N1068 C1071 1.314 . S
C1069 C1066 1.348 . S
C1069 C1071 1.353 . S
C1069 H1125 0.929 . S
C1070 C1066 1.356 . S
C1070 C1067 1.358 . S
C1070 H1126 0.930 . S
C1071 N1068 1.314 . S
C1071 C1069 1.353 . S
C1071 H1127 0.930 . S
C1072 N1073 1.314 . S
C1072 C1077 1.353 . S
C1072 H1078 0.930 . S
N1073 Li1056 1.990 . S
N1073 C1072 1.314 . S
N1073 C1075 1.279 . S
C1074 C1075 1.358 . S
C1074 C1076 1.356 . S
C1074 H1128 0.930 . S
C1075 N1073 1.279 . S
C1075 C1074 1.358 . S
C1075 H1079 0.930 . S
C1076 C1074 1.356 . S
C1076 C1077 1.348 . S
C1077 C1072 1.353 . S
C1077 C1076 1.348 . S
C1077 H1129 0.929 . S
H1078 C1072 0.930 . S
H1079 C1075 0.930 . S
C1080 N1081 1.314 . S
C1080 C1082 1.353 . S
C1080 H1086 0.930 . S
N1081 Li1057 1.990 . S
N1081 C1080 1.314 . S
N1081 C1084 1.279 . S
C1082 C1080 1.353 . S
C1082 C1085 1.348 . S
C1082 H1130 0.929 . S
C1083 C1084 1.358 . S
C1083 C1085 1.356 . S
C1083 H1131 0.930 . S
C1084 N1081 1.279 . S
C1084 C1083 1.358 . S
C1084 H1087 0.930 . S
C1085 C1082 1.348 . S
C1085 C1083 1.356 . S
H1086 C1080 0.930 . S
H1087 C1084 0.930 . S
C1088 C1090 1.380 . S
C1088 C1091 1.356 1_556 S
C1088 O1118 1.296 1_556 S
N1089 C1092 1.314 . S
N1089 C1093 1.279 . S
C1090 C1088 1.380 . S
C1090 C1092 1.353 . S
C1090 H1132 0.929 . S
C1091 C1088 1.356 1_554 S
C1091 C1093 1.358 1_554 S
C1091 H1133 0.930 . S
C1092 N1089 1.314 . S
C1092 C1090 1.353 . S
C1092 H1134 0.930 . S
C1093 N1089 1.279 . S
C1093 C1091 1.358 1_556 S
C1093 H1135 0.930 . S
C1094 C1095 1.348 . S
C1094 C1096 1.356 . S
C1094 O1119 1.325 . S
C1095 C1094 1.348 . S
C1095 C1097 1.353 . S
C1095 H1136 0.929 . S
C1096 C1094 1.356 . S
C1096 C1098 1.358 . S
C1096 H1137 0.930 . S
C1097 C1095 1.353 . S
C1097 N1099 1.314 . S
C1097 H1138 0.930 . S
C1098 C1096 1.358 . S
C1098 N1099 1.279 . S
C1098 H1139 0.930 . S
N1099 C1097 1.314 . S
N1099 C1098 1.279 . S
C1100 C1102 1.353 . S
C1100 N1103 1.314 . S
C1100 H1106 0.930 . S
C1101 N1103 1.279 . S
C1101 C1104 1.358 . S
C1101 H1107 0.930 . S
C1102 C1100 1.353 . S
C1102 C1105 1.348 . S
C1102 H1140 0.929 . S
N1103 Li1058 1.990 . S
N1103 C1100 1.314 . S
N1103 C1101 1.279 . S
C1104 C1101 1.358 . S
C1104 C1105 1.356 . S
C1104 H1141 0.930 . S
C1105 C1102 1.348 . S
C1105 C1104 1.356 . S
H1106 C1100 0.930 . S
H1107 C1101 0.930 . S
C1108 N1109 1.314 . S
C1108 C1110 1.353 . S
C1108 H1114 0.930 . S
N1109 Li1059 1.990 1_556 S
N1109 C1108 1.314 . S
N1109 C1112 1.279 . S
C1110 C1108 1.353 . S
C1110 C1113 1.348 . S
C1110 H1142 0.929 . S
C1111 C1112 1.358 . S
C1111 C1113 1.356 . S
C1111 H1143 0.930 . S
C1112 N1109 1.279 . S
C1112 C1111 1.358 . S
C1112 H1115 0.930 . S
C1113 C1110 1.348 . S
C1113 C1111 1.356 . S
H1114 C1108 0.930 . S
H1115 C1112 0.930 . S
O1116 Li1056 1.956 . S
O1116 Li1057 1.970 . S
O1116 Li1058 1.961 . S
O1116 C1060 1.325 . S
O1117 Li1056 1.970 . S
O1117 Li1057 1.956 . S
O1117 Li1059 1.961 . S
O1117 C1066 1.325 . S
O1118 Li1056 1.961 . S
O1118 Li1058 1.956 . S
O1118 Li1059 1.970 . S
O1118 C1088 1.296 1_554 S
O1119 Li1057 1.961 . S
O1119 Li1058 1.970 . S
O1119 Li1059 1.956 . S
O1119 C1094 1.325 . S
H1120 C1062 0.929 . S
H1121 C1063 0.930 . S
H1122 C1064 0.930 . S
H1123 C1065 0.930 . S
H1124 C1067 0.930 . S
H1125 C1069 0.929 . S
H1126 C1070 0.930 . S
H1127 C1071 0.930 . S
H1128 C1074 0.930 . S
H1129 C1077 0.929 . S
H1130 C1082 0.929 . S
H1131 C1083 0.930 . S
H1132 C1090 0.929 . S
H1133 C1091 0.930 . S
H1134 C1092 0.930 . S
H1135 C1093 0.930 . S
H1136 C1095 0.929 . S
H1137 C1096 0.930 . S
H1138 C1097 0.930 . S
H1139 C1098 0.930 . S
H1140 C1102 0.929 . S
H1141 C1104 0.930 . S
H1142 C1110 0.929 . S
H1143 C1111 0.930 . S
Li1144 N1161 1.990 . S
Li1144 O1204 1.956 . S
Li1144 O1205 1.970 . S
Li1144 O1206 1.961 . S
Li1145 N1169 1.990 . S
Li1145 O1204 1.970 . S
Li1145 O1205 1.956 . S
Li1145 O1207 1.934 1_554 S
Li1146 N1191 1.990 1_554 S
Li1146 O1204 1.961 . S
Li1146 O1206 1.956 . S
Li1146 O1207 1.969 1_554 S
Li1147 N1197 1.990 . S
Li1147 O1205 1.961 . S
Li1147 O1206 1.970 . S
Li1147 O1207 1.929 1_554 S
C1148 C1150 1.348 . S
C1148 C1151 1.356 . S
C1148 O1204 1.325 . S
N1149 C1152 1.314 . S
N1149 C1153 1.279 . S
C1150 C1148 1.348 . S
C1150 C1152 1.353 . S
C1150 H1208 0.929 . S
C1151 C1148 1.356 . S
C1151 C1153 1.358 . S
C1151 H1209 0.930 . S
C1152 N1149 1.314 . S
C1152 C1150 1.353 . S
C1152 H1210 0.930 . S
C1153 N1149 1.279 . S
C1153 C1151 1.358 . S
C1153 H1211 0.930 . S
C1154 C1157 1.348 . S
C1154 C1158 1.356 . S
C1154 O1205 1.325 . S
C1155 N1156 1.279 . S
C1155 C1158 1.358 . S
C1155 H1212 0.930 . S
N1156 C1155 1.279 . S
N1156 C1159 1.314 . S
C1157 C1154 1.348 . S
C1157 C1159 1.353 . S
C1157 H1213 0.929 . S
C1158 C1154 1.356 . S
C1158 C1155 1.358 . S
C1158 H1214 0.930 . S
C1159 N1156 1.314 . S
C1159 C1157 1.353 . S
C1159 H1215 0.930 . S
C1160 N1161 1.314 . S
C1160 C1165 1.353 . S
C1160 H1166 0.930 . S
N1161 Li1144 1.990 . S
N1161 C1160 1.314 . S
N1161 C1163 1.279 . S
C1162 C1163 1.358 . S
C1162 C1164 1.356 . S
C1162 H1216 0.930 . S
C1163 N1161 1.279 . S
C1163 C1162 1.358 . S
C1163 H1167 0.930 . S
C1164 C1162 1.356 . S
C1164 C1165 1.348 . S
C1165 C1160 1.353 . S
C1165 C1164 1.348 . S
C1165 H1217 0.929 . S
H1166 C1160 0.930 . S
H1167 C1163 0.930 . S
C1168 N1169 1.314 . S
C1168 C1170 1.353 . S
C1168 H1174 0.930 1_554 S
N1169 Li1145 1.990 . S
N1169 C1168 1.314 . S
N1169 C1172 1.279 . S
C1170 C1168 1.353 . S
C1170 C1173 1.348 . S
C1170 H1218 0.929 1_554 S
C1171 C1172 1.358 . S
C1171 C1173 1.356 . S
C1171 H1219 0.930 . S
C1172 N1169 1.279 . S
C1172 C1171 1.358 . S
C1172 H1175 0.930 . S
C1173 C1170 1.348 . S
C1173 C1171 1.356 . S
H1174 C1168 0.930 1_556 S
H1175 C1172 0.930 . S
C1176 C1178 1.348 . S
C1176 C1179 1.356 . S
C1176 O1206 1.325 . S
N1177 C1180 1.314 . S
N1177 C1181 1.279 . S
C1178 C1176 1.348 . S
C1178 C1180 1.353 . S
C1178 H1220 0.929 . S
C1179 C1176 1.356 . S
C1179 C1181 1.358 . S
C1179 H1221 0.930 . S
C1180 N1177 1.314 . S
C1180 C1178 1.353 . S
C1180 H1222 0.930 . S
C1181 N1177 1.279 . S
C1181 C1179 1.358 . S
C1181 H1223 0.930 . S
C1182 C1183 1.348 . S
C1182 C1184 1.356 . S
C1182 O1207 1.353 . S
C1183 C1182 1.348 . S
C1183 C1185 1.353 . S
C1183 H1224 0.929 . S
C1184 C1182 1.356 . S
C1184 C1186 1.358 . S
C1184 H1225 0.930 . S
C1185 C1183 1.353 . S
C1185 N1187 1.314 . S
C1185 H1226 0.930 . S
C1186 C1184 1.358 . S
C1186 N1187 1.279 . S
C1186 H1227 0.930 . S
N1187 C1185 1.314 . S
N1187 C1186 1.279 . S
C1188 C1190 1.353 . S
C1188 N1191 1.314 . S
C1188 H1194 0.930 . S
C1189 N1191 1.279 . S
C1189 C1192 1.358 . S
C1189 H1195 0.930 . S
C1190 C1188 1.353 . S
C1190 C1193 1.348 . S
C1190 H1228 0.929 . S
N1191 Li1146 1.990 1_556 S
N1191 C1188 1.314 . S
N1191 C1189 1.279 . S
C1192 C1189 1.358 . S
C1192 C1193 1.356 . S
C1192 H1229 0.930 . S
C1193 C1190 1.348 . S
C1193 C1192 1.356 . S
H1194 C1188 0.930 . S
H1195 C1189 0.930 . S
C1196 N1197 1.314 . S
C1196 C1198 1.353 . S
C1196 H1202 0.930 . S
N1197 Li1147 1.990 . S
N1197 C1196 1.314 . S
N1197 C1200 1.279 . S
C1198 C1196 1.353 . S
C1198 C1201 1.348 . S
C1198 H1230 0.929 . S
C1199 C1200 1.360 1_556 S
C1199 C1201 1.323 1_556 S
C1199 H1231 0.962 . S
C1200 N1197 1.279 . S
C1200 C1199 1.360 1_554 S
C1200 H1203 0.930 1_554 S
C1201 C1198 1.348 . S
C1201 C1199 1.323 1_554 S
H1202 C1196 0.930 . S
H1203 C1200 0.930 1_556 S
O1204 Li1144 1.956 . S
O1204 Li1145 1.970 . S
O1204 Li1146 1.961 . S
O1204 C1148 1.325 . S
O1205 Li1144 1.970 . S
O1205 Li1145 1.956 . S
O1205 Li1147 1.961 . S
O1205 C1154 1.325 . S
O1206 Li1144 1.961 . S
O1206 Li1146 1.956 . S
O1206 Li1147 1.970 . S
O1206 C1176 1.325 . S
O1207 Li1145 1.934 1_556 S
O1207 Li1146 1.969 1_556 S
O1207 Li1147 1.929 1_556 S
O1207 C1182 1.353 . S
H1208 C1150 0.929 . S
H1209 C1151 0.930 . S
H1210 C1152 0.930 . S
H1211 C1153 0.930 . S
H1212 C1155 0.930 . S
H1213 C1157 0.929 . S
H1214 C1158 0.930 . S
H1215 C1159 0.930 . S
H1216 C1162 0.930 . S
H1217 C1165 0.929 . S
H1218 C1170 0.929 1_556 S
H1219 C1171 0.930 . S
H1220 C1178 0.929 . S
H1221 C1179 0.930 . S
H1222 C1180 0.930 . S
H1223 C1181 0.930 . S
H1224 C1183 0.929 . S
H1225 C1184 0.930 . S
H1226 C1185 0.930 . S
H1227 C1186 0.930 . S
H1228 C1190 0.929 . S
H1229 C1192 0.930 . S
H1230 C1198 0.929 . S
H1231 C1199 0.962 . S
Li1232 N1249 1.990 . S
Li1232 O1292 1.956 . S
Li1232 O1293 1.970 . S
Li1232 O1294 1.961 . S
Li1233 N1257 1.990 . S
Li1233 O1292 1.970 . S
Li1233 O1293 1.956 . S
Li1233 O1295 1.961 . S
Li1234 N1279 1.990 . S
Li1234 O1292 1.961 . S
Li1234 O1294 1.956 . S
Li1234 O1295 1.970 . S
Li1235 N1285 1.990 . S
Li1235 O1293 1.961 . S
Li1235 O1294 1.970 . S
Li1235 O1295 1.956 . S
C1236 C1238 1.348 . S
C1236 C1239 1.356 . S
C1236 O1292 1.325 . S
N1237 C1240 1.314 . S
N1237 C1241 1.279 . S
C1238 C1236 1.348 . S
C1238 C1240 1.353 . S
C1238 H1296 0.929 . S
C1239 C1236 1.356 . S
C1239 C1241 1.358 . S
C1239 H1297 0.930 . S
C1240 N1237 1.314 . S
C1240 C1238 1.353 . S
C1240 H1298 0.930 . S
C1241 N1237 1.279 . S
C1241 C1239 1.358 . S
C1241 H1299 0.930 . S
C1242 C1245 1.348 . S
C1242 C1246 1.356 . S
C1242 O1293 1.325 . S
C1243 N1244 1.279 . S
C1243 C1246 1.358 . S
C1243 H1300 0.930 . S
N1244 C1243 1.279 . S
N1244 C1247 1.314 . S
C1245 C1242 1.348 . S
C1245 C1247 1.353 . S
C1245 H1301 0.929 . S
C1246 C1242 1.356 . S
C1246 C1243 1.358 . S
C1246 H1302 0.930 . S
C1247 N1244 1.314 . S
C1247 C1245 1.353 . S
C1247 H1303 0.930 . S
C1248 N1249 1.314 . S
C1248 C1253 1.353 . S
C1248 H1254 0.930 . S
N1249 Li1232 1.990 . S
N1249 C1248 1.314 . S
N1249 C1251 1.279 . S
C1250 C1251 1.358 . S
C1250 C1252 1.356 . S
C1250 H1304 0.930 . S
C1251 N1249 1.279 . S
C1251 C1250 1.358 . S
C1251 H1255 0.930 . S
C1252 C1250 1.356 . S
C1252 C1253 1.348 . S
C1253 C1248 1.353 . S
C1253 C1252 1.348 . S
C1253 H1305 0.929 . S
H1254 C1248 0.930 . S
H1255 C1251 0.930 . S
C1256 N1257 1.314 . S
C1256 C1258 1.353 . S
C1256 H1262 0.930 . S
N1257 Li1233 1.990 . S
N1257 C1256 1.314 . S
N1257 C1260 1.279 . S
C1258 C1256 1.353 . S
C1258 C1261 1.348 . S
C1258 H1306 0.929 . S
C1259 C1260 1.358 . S
C1259 C1261 1.356 . S
C1259 H1307 0.930 . S
C1260 N1257 1.279 . S
C1260 C1259 1.358 . S
C1260 H1263 0.930 . S
C1261 C1258 1.348 . S
C1261 C1259 1.356 . S
H1262 C1256 0.930 . S
H1263 C1260 0.930 . S
C1264 C1266 1.348 . S
C1264 C1267 1.356 . S
C1264 O1294 1.325 . S
N1265 C1268 1.314 . S
N1265 C1269 1.279 . S
C1266 C1264 1.348 . S
C1266 C1268 1.353 . S
C1266 H1308 0.929 . S
C1267 C1264 1.356 . S
C1267 C1269 1.358 . S
C1267 H1309 0.930 . S
C1268 N1265 1.314 . S
C1268 C1266 1.353 . S
C1268 H1310 0.930 . S
C1269 N1265 1.279 . S
C1269 C1267 1.358 . S
C1269 H1311 0.930 . S
C1270 C1271 1.348 . S
C1270 C1272 1.356 . S
C1270 O1295 1.325 . S
C1271 C1270 1.348 . S
C1271 C1273 1.353 . S
C1271 H1312 0.929 . S
C1272 C1270 1.356 . S
C1272 C1274 1.358 . S
C1272 H1313 0.930 . S
C1273 C1271 1.353 . S
C1273 N1275 1.314 . S
C1273 H1314 0.930 . S
C1274 C1272 1.358 . S
C1274 N1275 1.279 . S
C1274 H1315 0.930 . S
N1275 C1273 1.314 . S
N1275 C1274 1.279 . S
C1276 C1278 1.353 . S
C1276 N1279 1.314 . S
C1276 H1282 0.930 . S
C1277 N1279 1.279 . S
C1277 C1280 1.358 . S
C1277 H1283 0.930 . S
C1278 C1276 1.353 . S
C1278 C1281 1.348 . S
C1278 H1316 0.929 . S
N1279 Li1234 1.990 . S
N1279 C1276 1.314 . S
N1279 C1277 1.279 . S
C1280 C1277 1.358 . S
C1280 C1281 1.356 . S
C1280 H1317 0.930 . S
C1281 C1278 1.348 . S
C1281 C1280 1.356 . S
H1282 C1276 0.930 . S
H1283 C1277 0.930 . S
C1284 N1285 1.314 . S
C1284 C1286 1.353 . S
C1284 H1290 0.930 . S
N1285 Li1235 1.990 . S
N1285 C1284 1.314 . S
N1285 C1288 1.279 . S
C1286 C1284 1.353 . S
C1286 C1289 1.348 . S
C1286 H1318 0.929 . S
C1287 C1288 1.358 . S
C1287 C1289 1.356 . S
C1287 H1319 0.930 . S
C1288 N1285 1.279 . S
C1288 C1287 1.358 . S
C1288 H1291 0.930 . S
C1289 C1286 1.348 . S
C1289 C1287 1.356 . S
H1290 C1284 0.930 . S
H1291 C1288 0.930 . S
O1292 Li1232 1.956 . S
O1292 Li1233 1.970 . S
O1292 Li1234 1.961 . S
O1292 C1236 1.325 . S
O1293 Li1232 1.970 . S
O1293 Li1233 1.956 . S
O1293 Li1235 1.961 . S
O1293 C1242 1.325 . S
O1294 Li1232 1.961 . S
O1294 Li1234 1.956 . S
O1294 Li1235 1.970 . S
O1294 C1264 1.325 . S
O1295 Li1233 1.961 . S
O1295 Li1234 1.970 . S
O1295 Li1235 1.956 . S
O1295 C1270 1.325 . S
H1296 C1238 0.929 . S
H1297 C1239 0.930 . S
H1298 C1240 0.930 . S
H1299 C1241 0.930 . S
H1300 C1243 0.930 . S
H1301 C1245 0.929 . S
H1302 C1246 0.930 . S
H1303 C1247 0.930 . S
H1304 C1250 0.930 . S
H1305 C1253 0.929 . S
H1306 C1258 0.929 . S
H1307 C1259 0.930 . S
H1308 C1266 0.929 . S
H1309 C1267 0.930 . S
H1310 C1268 0.930 . S
H1311 C1269 0.930 . S
H1312 C1271 0.929 . S
H1313 C1272 0.930 . S
H1314 C1273 0.930 . S
H1315 C1274 0.930 . S
H1316 C1278 0.929 . S
H1317 C1280 0.930 . S
H1318 C1286 0.929 . S
H1319 C1287 0.930 . S
Li1320 N1337 1.990 . S
Li1320 O1380 1.956 . S
Li1320 O1381 1.970 . S
Li1320 O1382 1.961 . S
Li1321 N1345 1.990 . S
Li1321 O1380 1.970 . S
Li1321 O1381 1.956 . S
Li1321 O1383 1.961 . S
Li1322 N1367 1.990 . S
Li1322 O1380 1.961 . S
Li1322 O1382 1.956 . S
Li1322 O1383 1.970 . S
Li1323 N1373 1.990 . S
Li1323 O1381 1.961 . S
Li1323 O1382 1.970 . S
Li1323 O1383 1.956 . S
C1324 C1326 1.348 . S
C1324 C1327 1.356 . S
C1324 O1380 1.325 . S
N1325 C1328 1.314 . S
N1325 C1329 1.279 . S
C1326 C1324 1.348 . S
C1326 C1328 1.353 . S
C1326 H1384 0.929 . S
C1327 C1324 1.356 . S
C1327 C1329 1.358 . S
C1327 H1385 0.930 . S
C1328 N1325 1.314 . S
C1328 C1326 1.353 . S
C1328 H1386 0.930 . S
C1329 N1325 1.279 . S
C1329 C1327 1.358 . S
C1329 H1387 0.930 . S
C1330 C1333 1.348 . S
C1330 C1334 1.356 . S
C1330 O1381 1.325 . S
C1331 N1332 1.279 . S
C1331 C1334 1.358 . S
C1331 H1388 0.930 . S
N1332 C1331 1.279 . S
N1332 C1335 1.314 . S
C1333 C1330 1.348 . S
C1333 C1335 1.353 . S
C1333 H1389 0.929 . S
C1334 C1330 1.356 . S
C1334 C1331 1.358 . S
C1334 H1390 0.930 . S
C1335 N1332 1.314 . S
C1335 C1333 1.353 . S
C1335 H1391 0.930 . S
C1336 N1337 1.314 . S
C1336 C1341 1.353 . S
C1336 H1342 0.930 . S
N1337 Li1320 1.990 . S
N1337 C1336 1.314 . S
N1337 C1339 1.279 . S
C1338 C1339 1.358 . S
C1338 C1340 1.356 . S
C1338 H1392 0.930 . S
C1339 N1337 1.279 . S
C1339 C1338 1.358 . S
C1339 H1343 0.930 . S
C1340 C1338 1.356 . S
C1340 C1341 1.348 . S
C1341 C1336 1.353 . S
C1341 C1340 1.348 . S
C1341 H1393 0.929 . S
H1342 C1336 0.930 . S
H1343 C1339 0.930 . S
C1344 N1345 1.314 . S
C1344 C1346 1.353 . S
C1344 H1350 0.930 . S
N1345 Li1321 1.990 . S
N1345 C1344 1.314 . S
N1345 C1348 1.279 . S
C1346 C1344 1.353 . S
C1346 C1349 1.348 . S
C1346 H1394 0.929 . S
C1347 C1348 1.358 . S
C1347 C1349 1.356 . S
C1347 H1395 0.930 . S
C1348 N1345 1.279 . S
C1348 C1347 1.358 . S
C1348 H1351 0.930 . S
C1349 C1346 1.348 . S
C1349 C1347 1.356 . S
H1350 C1344 0.930 . S
H1351 C1348 0.930 . S
C1352 C1354 1.348 . S
C1352 C1355 1.356 . S
C1352 O1382 1.325 . S
N1353 C1356 1.314 . S
N1353 C1357 1.279 . S
C1354 C1352 1.348 . S
C1354 C1356 1.353 . S
C1354 H1396 0.929 . S
C1355 C1352 1.356 . S
C1355 C1357 1.358 . S
C1355 H1397 0.930 . S
C1356 N1353 1.314 . S
C1356 C1354 1.353 . S
C1356 H1398 0.930 . S
C1357 N1353 1.279 . S
C1357 C1355 1.358 . S
C1357 H1399 0.930 . S
C1358 C1359 1.348 . S
C1358 C1360 1.356 . S
C1358 O1383 1.325 . S
C1359 C1358 1.348 . S
C1359 C1361 1.353 . S
C1359 H1400 0.929 . S
C1360 C1358 1.356 . S
C1360 C1362 1.358 . S
C1360 H1401 0.930 . S
C1361 C1359 1.353 . S
C1361 N1363 1.314 . S
C1361 H1402 0.930 . S
C1362 C1360 1.358 . S
C1362 N1363 1.279 . S
C1362 H1403 0.930 . S
N1363 C1361 1.314 . S
N1363 C1362 1.279 . S
C1364 C1366 1.353 . S
C1364 N1367 1.314 . S
C1364 H1370 0.930 . S
C1365 N1367 1.279 . S
C1365 C1368 1.358 . S
C1365 H1371 0.930 . S
C1366 C1364 1.353 . S
C1366 C1369 1.348 . S
C1366 H1404 0.929 . S
N1367 Li1322 1.990 . S
N1367 C1364 1.314 . S
N1367 C1365 1.279 . S
C1368 C1365 1.358 . S
C1368 C1369 1.356 . S
C1368 H1405 0.930 . S
C1369 C1366 1.348 . S
C1369 C1368 1.356 . S
H1370 C1364 0.930 . S
H1371 C1365 0.930 . S
C1372 N1373 1.314 . S
C1372 C1374 1.353 . S
C1372 H1378 0.930 . S
N1373 Li1323 1.990 . S
N1373 C1372 1.314 . S
N1373 C1376 1.279 . S
C1374 C1372 1.353 . S
C1374 C1377 1.348 . S
C1374 H1406 0.929 . S
C1375 C1376 1.358 . S
C1375 C1377 1.356 . S
C1375 H1407 0.930 . S
C1376 N1373 1.279 . S
C1376 C1375 1.358 . S
C1376 H1379 0.930 . S
C1377 C1374 1.348 . S
C1377 C1375 1.356 . S
H1378 C1372 0.930 . S
H1379 C1376 0.930 . S
O1380 Li1320 1.956 . S
O1380 Li1321 1.970 . S
O1380 Li1322 1.961 . S
O1380 C1324 1.325 . S
O1381 Li1320 1.970 . S
O1381 Li1321 1.956 . S
O1381 Li1323 1.961 . S
O1381 C1330 1.325 . S
O1382 Li1320 1.961 . S
O1382 Li1322 1.956 . S
O1382 Li1323 1.970 . S
O1382 C1352 1.325 . S
O1383 Li1321 1.961 . S
O1383 Li1322 1.970 . S
O1383 Li1323 1.956 . S
O1383 C1358 1.325 . S
H1384 C1326 0.929 . S
H1385 C1327 0.930 . S
H1386 C1328 0.930 . S
H1387 C1329 0.930 . S
H1388 C1331 0.930 . S
H1389 C1333 0.929 . S
H1390 C1334 0.930 . S
H1391 C1335 0.930 . S
H1392 C1338 0.930 . S
H1393 C1341 0.929 . S
H1394 C1346 0.929 . S
H1395 C1347 0.930 . S
H1396 C1354 0.929 . S
H1397 C1355 0.930 . S
H1398 C1356 0.930 . S
H1399 C1357 0.930 . S
H1400 C1359 0.929 . S
H1401 C1360 0.930 . S
H1402 C1361 0.930 . S
H1403 C1362 0.930 . S
H1404 C1366 0.929 . S
H1405 C1368 0.930 . S
H1406 C1374 0.929 . S
H1407 C1375 0.930 . S
Li1408 N1425 1.990 . S
Li1408 O1468 1.956 1_545 S
Li1408 O1469 1.970 . S
Li1408 O1470 1.961 . S
Li1409 N1433 1.990 . S
Li1409 O1468 1.970 . S
Li1409 O1469 1.956 1_565 S
Li1409 O1471 1.961 1_565 S
Li1410 N1455 1.990 . S
Li1410 O1468 1.961 1_545 S
Li1410 O1470 1.956 . S
Li1410 O1471 1.970 . S
Li1411 N1461 1.990 . S
Li1411 O1469 1.961 . S
Li1411 O1470 1.970 . S
Li1411 O1471 1.956 . S
C1412 C1414 1.348 . S
C1412 C1415 1.356 . S
C1412 O1468 1.325 . S
N1413 C1416 1.314 . S
N1413 C1417 1.279 . S
C1414 C1412 1.348 . S
C1414 C1416 1.353 . S
C1414 H1472 0.929 . S
C1415 C1412 1.356 . S
C1415 C1417 1.358 . S
C1415 H1473 0.930 . S
C1416 N1413 1.314 . S
C1416 C1414 1.353 . S
C1416 H1474 0.930 . S
C1417 N1413 1.279 . S
C1417 C1415 1.358 . S
C1417 H1475 0.930 . S
C1418 C1421 1.348 . S
C1418 C1422 1.356 . S
C1418 O1469 1.325 . S
C1419 N1420 1.279 . S
C1419 C1422 1.358 . S
C1419 H1476 0.930 . S
N1420 C1419 1.279 . S
N1420 C1423 1.314 . S
C1421 C1418 1.348 . S
C1421 C1423 1.353 . S
C1421 H1477 0.929 . S
C1422 C1418 1.356 . S
C1422 C1419 1.358 . S
C1422 H1478 0.930 . S
C1423 N1420 1.314 . S
C1423 C1421 1.353 . S
C1423 H1479 0.930 . S
C1424 N1425 1.314 . S
C1424 C1429 1.353 . S
C1424 H1430 0.930 . S
N1425 Li1408 1.990 . S
N1425 C1424 1.314 . S
N1425 C1427 1.281 . S
C1426 C1427 1.358 . S
C1426 C1428 1.356 . S
C1426 H1480 0.930 1_545 S
C1427 N1425 1.281 . S
C1427 C1426 1.358 . S
C1427 H1431 0.929 1_545 S
C1428 C1426 1.356 . S
C1428 C1429 1.348 . S
C1429 C1424 1.353 . S
C1429 C1428 1.348 . S
C1429 H1481 0.929 . S
H1430 C1424 0.930 . S
H1431 C1427 0.929 1_565 S
C1432 N1433 1.314 . S
C1432 C1434 1.353 . S
C1432 H1438 0.930 . S
N1433 Li1409 1.990 . S
N1433 C1432 1.314 . S
N1433 C1436 1.279 . S
C1434 C1432 1.353 . S
C1434 C1437 1.348 . S
C1434 H1482 0.929 . S
C1435 C1436 1.358 . S
C1435 C1437 1.356 . S
C1435 H1483 0.930 . S
C1436 N1433 1.279 . S
C1436 C1435 1.358 . S
C1436 H1439 0.930 . S
C1437 C1434 1.348 . S
C1437 C1435 1.356 . S
H1438 C1432 0.930 . S
H1439 C1436 0.930 . S
C1440 C1442 1.348 . S
C1440 C1443 1.356 . S
C1440 O1470 1.325 . S
N1441 C1444 1.314 . S
N1441 C1445 1.279 . S
C1442 C1440 1.348 . S
C1442 C1444 1.353 . S
C1442 H1484 0.929 . S
C1443 C1440 1.356 . S
C1443 C1445 1.358 . S
C1443 H1485 0.930 . S
C1444 N1441 1.314 . S
C1444 C1442 1.353 . S
C1444 H1486 0.930 . S
C1445 N1441 1.279 . S
C1445 C1443 1.358 . S
C1445 H1487 0.930 . S
C1446 C1447 1.348 . S
C1446 C1448 1.356 1_545 S
C1446 O1471 1.325 . S
C1447 C1446 1.348 . S
C1447 C1449 1.353 . S
C1447 H1488 0.929 . S
C1448 C1446 1.356 1_565 S
C1448 C1450 1.358 . S
C1448 H1489 0.930 . S
C1449 C1447 1.353 . S
C1449 N1451 1.314 . S
C1449 H1490 0.930 . S
C1450 C1448 1.358 . S
C1450 N1451 1.279 1_565 S
C1450 H1491 0.930 . S
N1451 C1449 1.314 . S
N1451 C1450 1.279 1_545 S
C1452 C1454 1.353 . S
C1452 N1455 1.314 1_565 S
C1452 H1458 0.930 . S
C1453 N1455 1.279 . S
C1453 C1456 1.358 . S
C1453 H1459 0.930 . S
C1454 C1452 1.353 . S
C1454 C1457 1.348 1_565 S
C1454 H1492 0.929 . S
N1455 Li1410 1.990 . S
N1455 C1452 1.314 1_545 S
N1455 C1453 1.279 . S
C1456 C1453 1.358 . S
C1456 C1457 1.356 . S
C1456 H1493 0.930 . S
C1457 C1454 1.348 1_545 S
C1457 C1456 1.356 . S
H1458 C1452 0.930 . S
H1459 C1453 0.930 . S
C1460 N1461 1.314 . S
C1460 C1462 1.353 . S
C1460 H1466 0.930 . S
N1461 Li1411 1.990 . S
N1461 C1460 1.314 . S
N1461 C1464 1.279 . S
C1462 C1460 1.353 . S
C1462 C1465 1.348 . S
C1462 H1494 0.929 . S
C1463 C1464 1.358 . S
C1463 C1465 1.356 . S
C1463 H1495 0.930 . S
C1464 N1461 1.279 . S
C1464 C1463 1.358 . S
C1464 H1467 0.930 . S
C1465 C1462 1.348 . S
C1465 C1463 1.356 . S
H1466 C1460 0.930 . S
H1467 C1464 0.930 . S
O1468 Li1408 1.956 1_565 S
O1468 Li1409 1.970 . S
O1468 Li1410 1.961 1_565 S
O1468 C1412 1.325 . S
O1469 Li1408 1.970 . S
O1469 Li1409 1.956 1_545 S
O1469 Li1411 1.961 . S
O1469 C1418 1.325 . S
O1470 Li1408 1.961 . S
O1470 Li1410 1.956 . S
O1470 Li1411 1.970 . S
O1470 C1440 1.325 . S
O1471 Li1409 1.961 1_545 S
O1471 Li1410 1.970 . S
O1471 Li1411 1.956 . S
O1471 C1446 1.325 . S
H1472 C1414 0.929 . S
H1473 C1415 0.930 . S
H1474 C1416 0.930 . S
H1475 C1417 0.930 . S
H1476 C1419 0.930 . S
H1477 C1421 0.929 . S
H1478 C1422 0.930 . S
H1479 C1423 0.930 . S
H1480 C1426 0.930 1_565 S
H1481 C1429 0.929 . S
H1482 C1434 0.929 . S
H1483 C1435 0.930 . S
H1484 C1442 0.929 . S
H1485 C1443 0.930 . S
H1486 C1444 0.930 . S
H1487 C1445 0.930 . S
H1488 C1447 0.929 . S
H1489 C1448 0.930 . S
H1490 C1449 0.930 . S
H1491 C1450 0.930 . S
H1492 C1454 0.929 . S
H1493 C1456 0.930 . S
H1494 C1462 0.929 . S
H1495 C1463 0.930 . S
Li1496 N1513 1.990 . S
Li1496 O1556 1.956 . S
Li1496 O1557 1.970 . S
Li1496 O1558 1.961 . S
Li1497 N1521 1.990 . S
Li1497 O1556 1.970 . S
Li1497 O1557 1.956 . S
Li1497 O1559 1.961 . S
Li1498 N1543 1.990 . S
Li1498 O1556 1.961 . S
Li1498 O1558 1.956 . S
Li1498 O1559 1.970 . S
Li1499 N1549 1.990 . S
Li1499 O1557 1.961 . S
Li1499 O1558 1.970 . S
Li1499 O1559 1.956 . S
C1500 C1502 1.348 . S
C1500 C1503 1.356 . S
C1500 O1556 1.325 . S
N1501 C1504 1.314 . S
N1501 C1505 1.279 . S
C1502 C1500 1.348 . S
C1502 C1504 1.353 . S
C1502 H1560 0.929 . S
C1503 C1500 1.356 . S
C1503 C1505 1.358 . S
C1503 H1561 0.930 . S
C1504 N1501 1.314 . S
C1504 C1502 1.353 . S
C1504 H1562 0.930 . S
C1505 N1501 1.279 . S
C1505 C1503 1.358 . S
C1505 H1563 0.930 . S
C1506 C1509 1.348 . S
C1506 C1510 1.356 . S
C1506 O1557 1.325 . S
C1507 N1508 1.279 . S
C1507 C1510 1.358 . S
C1507 H1564 0.930 . S
N1508 C1507 1.279 . S
N1508 C1511 1.314 . S
C1509 C1506 1.348 . S
C1509 C1511 1.353 . S
C1509 H1565 0.929 . S
C1510 C1506 1.356 . S
C1510 C1507 1.358 . S
C1510 H1566 0.930 . S
C1511 N1508 1.314 . S
C1511 C1509 1.353 . S
C1511 H1567 0.930 . S
C1512 N1513 1.314 . S
C1512 C1517 1.353 . S
C1512 H1518 0.930 . S
N1513 Li1496 1.990 . S
N1513 C1512 1.314 . S
N1513 C1515 1.279 . S
C1514 C1515 1.358 . S
C1514 C1516 1.356 . S
C1514 H1568 0.930 . S
C1515 N1513 1.279 . S
C1515 C1514 1.358 . S
C1515 H1519 0.930 . S
C1516 C1514 1.356 . S
C1516 C1517 1.348 . S
C1517 C1512 1.353 . S
C1517 C1516 1.348 . S
C1517 H1569 0.929 . S
H1518 C1512 0.930 . S
H1519 C1515 0.930 . S
C1520 N1521 1.314 . S
C1520 C1522 1.353 . S
C1520 H1526 0.930 . S
N1521 Li1497 1.990 . S
N1521 C1520 1.314 . S
N1521 C1524 1.279 . S
C1522 C1520 1.353 . S
C1522 C1525 1.348 . S
C1522 H1570 0.929 . S
C1523 C1524 1.358 . S
C1523 C1525 1.356 . S
C1523 H1571 0.930 . S
C1524 N1521 1.279 . S
C1524 C1523 1.358 . S
C1524 H1527 0.930 . S
C1525 C1522 1.348 . S
C1525 C1523 1.356 . S
H1526 C1520 0.930 . S
H1527 C1524 0.930 . S
C1528 C1530 1.348 . S
C1528 C1531 1.356 . S
C1528 O1558 1.325 . S
N1529 C1532 1.314 . S
N1529 C1533 1.279 . S
C1530 C1528 1.348 . S
C1530 C1532 1.353 . S
C1530 H1572 0.929 . S
C1531 C1528 1.356 . S
C1531 C1533 1.358 . S
C1531 H1573 0.930 . S
C1532 N1529 1.314 . S
C1532 C1530 1.353 . S
C1532 H1574 0.930 . S
C1533 N1529 1.279 . S
C1533 C1531 1.358 . S
C1533 H1575 0.930 . S
C1534 C1535 1.348 . S
C1534 C1536 1.356 . S
C1534 O1559 1.325 . S
C1535 C1534 1.348 . S
C1535 C1537 1.353 . S
C1535 H1576 0.929 . S
C1536 C1534 1.356 . S
C1536 C1538 1.358 . S
C1536 H1577 0.930 . S
C1537 C1535 1.353 . S
C1537 N1539 1.314 . S
C1537 H1578 0.930 . S
C1538 C1536 1.358 . S
C1538 N1539 1.279 . S
C1538 H1579 0.930 . S
N1539 C1537 1.314 . S
N1539 C1538 1.279 . S
C1540 C1542 1.353 . S
C1540 N1543 1.314 . S
C1540 H1546 0.930 . S
C1541 N1543 1.279 . S
C1541 C1544 1.358 . S
C1541 H1547 0.930 . S
C1542 C1540 1.353 . S
C1542 C1545 1.348 . S
C1542 H1580 0.929 . S
N1543 Li1498 1.990 . S
N1543 C1540 1.314 . S
N1543 C1541 1.279 . S
C1544 C1541 1.358 . S
C1544 C1545 1.356 . S
C1544 H1581 0.930 . S
C1545 C1542 1.348 . S
C1545 C1544 1.356 . S
H1546 C1540 0.930 . S
H1547 C1541 0.930 . S
C1548 N1549 1.314 . S
C1548 C1550 1.353 . S
C1548 H1554 0.930 . S
N1549 Li1499 1.990 . S
N1549 C1548 1.314 . S
N1549 C1552 1.279 . S
C1550 C1548 1.353 . S
C1550 C1553 1.348 . S
C1550 H1582 0.929 . S
C1551 C1552 1.358 . S
C1551 C1553 1.356 . S
C1551 H1583 0.930 . S
C1552 N1549 1.279 . S
C1552 C1551 1.358 . S
C1552 H1555 0.930 . S
C1553 C1550 1.348 . S
C1553 C1551 1.356 . S
H1554 C1548 0.930 . S
H1555 C1552 0.930 . S
O1556 Li1496 1.956 . S
O1556 Li1497 1.970 . S
O1556 Li1498 1.961 . S
O1556 C1500 1.325 . S
O1557 Li1496 1.970 . S
O1557 Li1497 1.956 . S
O1557 Li1499 1.961 . S
O1557 C1506 1.325 . S
O1558 Li1496 1.961 . S
O1558 Li1498 1.956 . S
O1558 Li1499 1.970 . S
O1558 C1528 1.325 . S
O1559 Li1497 1.961 . S
O1559 Li1498 1.970 . S
O1559 Li1499 1.956 . S
O1559 C1534 1.325 . S
H1560 C1502 0.929 . S
H1561 C1503 0.930 . S
H1562 C1504 0.930 . S
H1563 C1505 0.930 . S
H1564 C1507 0.930 . S
H1565 C1509 0.929 . S
H1566 C1510 0.930 . S
H1567 C1511 0.930 . S
H1568 C1514 0.930 . S
H1569 C1517 0.929 . S
H1570 C1522 0.929 . S
H1571 C1523 0.930 . S
H1572 C1530 0.929 . S
H1573 C1531 0.930 . S
H1574 C1532 0.930 . S
H1575 C1533 0.930 . S
H1576 C1535 0.929 . S
H1577 C1536 0.930 . S
H1578 C1537 0.930 . S
H1579 C1538 0.930 . S
H1580 C1542 0.929 . S
H1581 C1544 0.930 . S
H1582 C1550 0.929 . S
H1583 C1551 0.930 . S
Li1584 N1601 1.990 . S
Li1584 O1644 1.956 . S
Li1584 O1645 1.970 . S
Li1584 O1646 1.961 . S
Li1585 N1609 1.990 . S
Li1585 O1644 1.970 . S
Li1585 O1645 1.956 . S
Li1585 O1647 1.961 . S
Li1586 N1631 1.990 . S
Li1586 O1644 1.961 . S
Li1586 O1646 1.956 . S
Li1586 O1647 1.970 . S
Li1587 N1637 1.990 . S
Li1587 O1645 1.961 . S
Li1587 O1646 1.970 . S
Li1587 O1647 1.956 . S
C1588 C1590 1.348 . S
C1588 C1591 1.356 . S
C1588 O1644 1.325 . S
N1589 C1592 1.314 . S
N1589 C1593 1.279 . S
C1590 C1588 1.348 . S
C1590 C1592 1.353 . S
C1590 H1648 0.929 . S
C1591 C1588 1.356 . S
C1591 C1593 1.358 . S
C1591 H1649 0.930 . S
C1592 N1589 1.314 . S
C1592 C1590 1.353 . S
C1592 H1650 0.930 . S
C1593 N1589 1.279 . S
C1593 C1591 1.358 . S
C1593 H1651 0.930 . S
C1594 C1597 1.348 . S
C1594 C1598 1.356 . S
C1594 O1645 1.325 . S
C1595 N1596 1.279 . S
C1595 C1598 1.358 . S
C1595 H1652 0.930 . S
N1596 C1595 1.279 . S
N1596 C1599 1.314 . S
C1597 C1594 1.348 . S
C1597 C1599 1.353 . S
C1597 H1653 0.929 . S
C1598 C1594 1.356 . S
C1598 C1595 1.358 . S
C1598 H1654 0.930 . S
C1599 N1596 1.314 . S
C1599 C1597 1.353 . S
C1599 H1655 0.930 . S
C1600 N1601 1.314 . S
C1600 C1605 1.353 . S
C1600 H1606 0.930 . S
N1601 Li1584 1.990 . S
N1601 C1600 1.314 . S
N1601 C1603 1.279 . S
C1602 C1603 1.358 . S
C1602 C1604 1.356 . S
C1602 H1656 0.930 . S
C1603 N1601 1.279 . S
C1603 C1602 1.358 . S
C1603 H1607 0.930 . S
C1604 C1602 1.356 . S
C1604 C1605 1.348 . S
C1605 C1600 1.353 . S
C1605 C1604 1.348 . S
C1605 H1657 0.929 . S
H1606 C1600 0.930 . S
H1607 C1603 0.930 . S
C1608 N1609 1.314 . S
C1608 C1610 1.353 . S
C1608 H1614 0.930 . S
N1609 Li1585 1.990 . S
N1609 C1608 1.314 . S
N1609 C1612 1.279 . S
C1610 C1608 1.353 . S
C1610 C1613 1.348 . S
C1610 H1658 0.929 . S
C1611 C1612 1.358 . S
C1611 C1613 1.356 . S
C1611 H1659 0.930 . S
C1612 N1609 1.279 . S
C1612 C1611 1.358 . S
C1612 H1615 0.930 . S
C1613 C1610 1.348 . S
C1613 C1611 1.356 . S
H1614 C1608 0.930 . S
H1615 C1612 0.930 . S
C1616 C1618 1.348 . S
C1616 C1619 1.356 . S
C1616 O1646 1.325 . S
N1617 C1620 1.314 . S
N1617 C1621 1.279 . S
C1618 C1616 1.348 . S
C1618 C1620 1.353 . S
C1618 H1660 0.929 . S
C1619 C1616 1.356 . S
C1619 C1621 1.358 . S
C1619 H1661 0.930 . S
C1620 N1617 1.314 . S
C1620 C1618 1.353 . S
C1620 H1662 0.930 . S
C1621 N1617 1.279 . S
C1621 C1619 1.358 . S
C1621 H1663 0.930 . S
C1622 C1623 1.348 . S
C1622 C1624 1.356 . S
C1622 O1647 1.325 . S
C1623 C1622 1.348 . S
C1623 C1625 1.353 . S
C1623 H1664 0.929 . S
C1624 C1622 1.356 . S
C1624 C1626 1.358 . S
C1624 H1665 0.930 . S
C1625 C1623 1.353 . S
C1625 N1627 1.314 . S
C1625 H1666 0.930 . S
C1626 C1624 1.358 . S
C1626 N1627 1.279 . S
C1626 H1667 0.930 . S
N1627 C1625 1.314 . S
N1627 C1626 1.279 . S
C1628 C1630 1.353 . S
C1628 N1631 1.314 . S
C1628 H1634 0.930 . S
C1629 N1631 1.279 . S
C1629 C1632 1.358 . S
C1629 H1635 0.930 . S
C1630 C1628 1.353 . S
C1630 C1633 1.348 . S
C1630 H1668 0.929 . S
N1631 Li1586 1.990 . S
N1631 C1628 1.314 . S
N1631 C1629 1.279 . S
C1632 C1629 1.358 . S
C1632 C1633 1.356 . S
C1632 H1669 0.930 . S
C1633 C1630 1.348 . S
C1633 C1632 1.356 . S
H1634 C1628 0.930 . S
H1635 C1629 0.930 . S
C1636 N1637 1.314 . S
C1636 C1638 1.353 . S
C1636 H1642 0.930 . S
N1637 Li1587 1.990 . S
N1637 C1636 1.314 . S
N1637 C1640 1.279 . S
C1638 C1636 1.353 . S
C1638 C1641 1.348 . S
C1638 H1670 0.929 . S
C1639 C1640 1.358 . S
C1639 C1641 1.356 . S
C1639 H1671 0.930 . S
C1640 N1637 1.279 . S
C1640 C1639 1.358 . S
C1640 H1643 0.930 . S
C1641 C1638 1.348 . S
C1641 C1639 1.356 . S
H1642 C1636 0.930 . S
H1643 C1640 0.930 . S
O1644 Li1584 1.956 . S
O1644 Li1585 1.970 . S
O1644 Li1586 1.961 . S
O1644 C1588 1.325 . S
O1645 Li1584 1.970 . S
O1645 Li1585 1.956 . S
O1645 Li1587 1.961 . S
O1645 C1594 1.325 . S
O1646 Li1584 1.961 . S
O1646 Li1586 1.956 . S
O1646 Li1587 1.970 . S
O1646 C1616 1.325 . S
O1647 Li1585 1.961 . S
O1647 Li1586 1.970 . S
O1647 Li1587 1.956 . S
O1647 C1622 1.325 . S
H1648 C1590 0.929 . S
H1649 C1591 0.930 . S
H1650 C1592 0.930 . S
H1651 C1593 0.930 . S
H1652 C1595 0.930 . S
H1653 C1597 0.929 . S
H1654 C1598 0.930 . S
H1655 C1599 0.930 . S
H1656 C1602 0.930 . S
H1657 C1605 0.929 . S
H1658 C1610 0.929 . S
H1659 C1611 0.930 . S
H1660 C1618 0.929 . S
H1661 C1619 0.930 . S
H1662 C1620 0.930 . S
H1663 C1621 0.930 . S
H1664 C1623 0.929 . S
H1665 C1624 0.930 . S
H1666 C1625 0.930 . S
H1667 C1626 0.930 . S
H1668 C1630 0.929 . S
H1669 C1632 0.930 . S
H1670 C1638 0.929 . S
H1671 C1639 0.930 . S
Li1672 N1689 1.991 1_545 S
Li1672 O1732 1.952 . S
Li1672 O1733 1.971 . S
Li1672 O1734 1.965 1_545 S
Li1673 N1697 1.990 . S
Li1673 O1732 1.970 . S
Li1673 O1733 1.956 . S
Li1673 O1735 1.961 . S
Li1674 N1719 1.990 . S
Li1674 O1732 1.961 1_565 S
Li1674 O1734 1.956 . S
Li1674 O1735 1.970 1_565 S
Li1675 N1725 1.990 . S
Li1675 O1733 1.961 1_565 S
Li1675 O1734 1.970 . S
Li1675 O1735 1.956 1_565 S
C1676 C1678 1.348 . S
C1676 C1679 1.356 . S
C1676 O1732 1.325 . S
N1677 C1680 1.314 . S
N1677 C1681 1.279 . S
C1678 C1676 1.348 . S
C1678 C1680 1.353 . S
C1678 H1736 0.929 . S
C1679 C1676 1.356 . S
C1679 C1681 1.358 . S
C1679 H1737 0.930 . S
C1680 N1677 1.314 . S
C1680 C1678 1.353 . S
C1680 H1738 0.930 . S
C1681 N1677 1.279 . S
C1681 C1679 1.358 . S
C1681 H1739 0.930 . S
C1682 C1685 1.348 . S
C1682 C1686 1.356 . S
C1682 O1733 1.325 . S
C1683 N1684 1.279 . S
C1683 C1686 1.358 . S
C1683 H1740 0.930 . S
N1684 C1683 1.279 . S
N1684 C1687 1.314 . S
C1685 C1682 1.348 . S
C1685 C1687 1.353 . S
C1685 H1741 0.929 . S
C1686 C1682 1.356 . S
C1686 C1683 1.358 . S
C1686 H1742 0.932 . S
C1687 N1684 1.314 . S
C1687 C1685 1.353 . S
C1687 H1743 0.930 . S
C1688 N1689 1.339 . S
C1688 C1693 1.353 . S
C1688 H1694 0.930 . S
N1689 Li1672 1.991 1_565 S
N1689 C1688 1.339 . S
N1689 C1691 1.256 1_565 S
C1690 C1691 1.358 . S
C1690 C1692 1.356 1_545 S
C1690 H1744 0.930 . S
C1691 N1689 1.256 1_545 S
C1691 C1690 1.358 . S
C1691 H1695 0.930 . S
C1692 C1690 1.356 1_565 S
C1692 C1693 1.348 . S
C1693 C1688 1.353 . S
C1693 C1692 1.348 . S
C1693 H1745 0.929 . S
H1694 C1688 0.930 . S
H1695 C1691 0.930 . S
C1696 N1697 1.314 . S
C1696 C1698 1.353 . S
C1696 H1702 0.930 . S
N1697 Li1673 1.990 . S
N1697 C1696 1.314 . S
N1697 C1700 1.279 . S
C1698 C1696 1.353 . S
C1698 C1701 1.348 . S
C1698 H1746 0.929 . S
C1699 C1700 1.358 . S
C1699 C1701 1.356 . S
C1699 H1747 0.930 . S
C1700 N1697 1.279 . S
C1700 C1699 1.358 . S
C1700 H1703 0.930 . S
C1701 C1698 1.348 . S
C1701 C1699 1.356 . S
H1702 C1696 0.930 . S
H1703 C1700 0.930 . S
C1704 C1706 1.348 . S
C1704 C1707 1.356 . S
C1704 O1734 1.325 . S
N1705 C1708 1.314 . S
N1705 C1709 1.279 . S
C1706 C1704 1.348 . S
C1706 C1708 1.353 . S
C1706 H1748 0.929 . S
C1707 C1704 1.356 . S
C1707 C1709 1.358 . S
C1707 H1749 0.930 . S
C1708 N1705 1.314 . S
C1708 C1706 1.353 . S
C1708 H1750 0.930 . S
C1709 N1705 1.279 . S
C1709 C1707 1.358 . S
C1709 H1751 0.930 . S
C1710 C1711 1.348 1_545 S
C1710 C1712 1.356 . S
C1710 O1735 1.325 . S
C1711 C1710 1.348 1_565 S
C1711 C1713 1.353 . S
C1711 H1752 0.929 . S
C1712 C1710 1.356 . S
C1712 C1714 1.358 . S
C1712 H1753 0.930 . S
C1713 C1711 1.353 . S
C1713 N1715 1.307 1_565 S
C1713 H1754 0.930 . S
C1714 C1712 1.358 . S
C1714 N1715 1.289 . S
C1714 H1755 0.930 . S
N1715 C1713 1.307 1_545 S
N1715 C1714 1.289 . S
C1716 C1718 1.353 . S
C1716 N1719 1.314 1_545 S
C1716 H1722 0.930 . S
C1717 N1719 1.279 . S
C1717 C1720 1.358 . S
C1717 H1723 0.930 . S
C1718 C1716 1.353 . S
C1718 C1721 1.348 1_545 S
C1718 H1756 0.929 . S
N1719 Li1674 1.990 . S
N1719 C1716 1.314 1_565 S
N1719 C1717 1.279 . S
C1720 C1717 1.358 . S
C1720 C1721 1.356 . S
C1720 H1757 0.930 . S
C1721 C1718 1.348 1_565 S
C1721 C1720 1.356 . S
H1722 C1716 0.930 . S
H1723 C1717 0.930 . S
C1724 N1725 1.314 . S
C1724 C1726 1.353 . S
C1724 H1730 0.930 . S
N1725 Li1675 1.990 . S
N1725 C1724 1.314 . S
N1725 C1728 1.279 . S
C1726 C1724 1.353 . S
C1726 C1729 1.348 . S
C1726 H1758 0.929 . S
C1727 C1728 1.358 . S
C1727 C1729 1.356 . S
C1727 H1759 0.930 . S
C1728 N1725 1.279 . S
C1728 C1727 1.358 . S
C1728 H1731 0.930 . S
C1729 C1726 1.348 . S
C1729 C1727 1.356 . S
H1730 C1724 0.930 . S
H1731 C1728 0.930 . S
O1732 Li1672 1.952 . S
O1732 Li1673 1.970 . S
O1732 Li1674 1.961 1_545 S
O1732 C1676 1.325 . S
O1733 Li1672 1.971 . S
O1733 Li1673 1.956 . S
O1733 Li1675 1.961 1_545 S
O1733 C1682 1.325 . S
O1734 Li1672 1.965 1_565 S
O1734 Li1674 1.956 . S
O1734 Li1675 1.970 . S
O1734 C1704 1.325 . S
O1735 Li1673 1.961 . S
O1735 Li1674 1.970 1_545 S
O1735 Li1675 1.956 1_545 S
O1735 C1710 1.325 . S
H1736 C1678 0.929 . S
H1737 C1679 0.930 . S
H1738 C1680 0.930 . S
H1739 C1681 0.930 . S
H1740 C1683 0.930 . S
H1741 C1685 0.929 . S
H1742 C1686 0.932 . S
H1743 C1687 0.930 . S
H1744 C1690 0.930 . S
H1745 C1693 0.929 . S
H1746 C1698 0.929 . S
H1747 C1699 0.930 . S
H1748 C1706 0.929 . S
H1749 C1707 0.930 . S
H1750 C1708 0.930 . S
H1751 C1709 0.930 . S
H1752 C1711 0.929 . S
H1753 C1712 0.930 . S
H1754 C1713 0.930 . S
H1755 C1714 0.930 . S
H1756 C1718 0.929 . S
H1757 C1720 0.930 . S
H1758 C1726 0.929 . S
H1759 C1727 0.930 . S
Li1760 N1777 1.990 . S
Li1760 O1820 1.956 . S
Li1760 O1821 1.970 . S
Li1760 O1822 1.979 . S
Li1761 N1785 1.991 . S
Li1761 O1820 1.968 . S
Li1761 O1821 1.987 . S
Li1761 O1823 1.932 1_554 S
Li1762 N1807 1.990 . S
Li1762 O1820 1.961 1_556 S
Li1762 O1822 1.936 1_556 S
Li1762 O1823 1.970 . S
Li1763 N1813 1.990 . S
Li1763 O1821 1.961 1_556 S
Li1763 O1822 1.970 1_556 S
Li1763 O1823 1.956 . S
C1764 C1766 1.348 . S
C1764 C1767 1.356 . S
C1764 O1820 1.325 . S
N1765 C1768 1.314 . S
N1765 C1769 1.279 . S
C1766 C1764 1.348 . S
C1766 C1768 1.353 . S
C1766 H1824 0.929 . S
C1767 C1764 1.356 . S
C1767 C1769 1.358 . S
C1767 H1825 0.930 1_554 S
C1768 N1765 1.314 . S
C1768 C1766 1.353 . S
C1768 H1826 0.930 . S
C1769 N1765 1.279 . S
C1769 C1767 1.358 . S
C1769 H1827 0.935 . S
C1770 C1773 1.348 . S
C1770 C1774 1.356 . S
C1770 O1821 1.325 . S
C1771 N1772 1.279 . S
C1771 C1774 1.358 . S
C1771 H1828 0.930 . S
N1772 C1771 1.279 . S
N1772 C1775 1.314 . S
C1773 C1770 1.348 . S
C1773 C1775 1.353 . S
C1773 H1829 0.929 . S
C1774 C1770 1.356 . S
C1774 C1771 1.358 . S
C1774 H1830 0.930 . S
C1775 N1772 1.314 . S
C1775 C1773 1.353 . S
C1775 H1831 0.930 . S
C1776 N1777 1.314 . S
C1776 C1781 1.353 . S
C1776 H1782 0.930 . S
N1777 Li1760 1.990 . S
N1777 C1776 1.314 . S
N1777 C1779 1.279 . S
C1778 C1779 1.358 . S
C1778 C1780 1.356 . S
C1778 H1832 0.930 . S
C1779 N1777 1.279 . S
C1779 C1778 1.358 . S
C1779 H1783 0.930 . S
C1780 C1778 1.356 . S
C1780 C1781 1.348 . S
C1781 C1776 1.353 . S
C1781 C1780 1.348 . S
C1781 H1833 0.929 . S
H1782 C1776 0.930 . S
H1783 C1779 0.930 . S
C1784 N1785 1.314 1_556 S
C1784 C1786 1.353 . S
C1784 H1790 0.930 . S
N1785 Li1761 1.991 . S
N1785 C1784 1.314 1_554 S
N1785 C1788 1.279 . S
C1786 C1784 1.353 . S
C1786 C1789 1.325 1_556 S
C1786 H1834 0.929 . S
C1787 C1788 1.358 . S
C1787 C1789 1.379 . S
C1787 H1835 0.930 . S
C1788 N1785 1.279 . S
C1788 C1787 1.358 . S
C1788 H1791 0.930 . S
C1789 C1786 1.325 1_554 S
C1789 C1787 1.379 . S
H1790 C1784 0.930 . S
H1791 C1788 0.930 . S
C1792 C1794 1.347 . S
C1792 C1795 1.356 1_556 S
C1792 O1822 1.325 1_556 S
N1793 C1796 1.314 . S
N1793 C1797 1.279 1_556 S
C1794 C1792 1.347 . S
C1794 C1796 1.353 . S
C1794 H1836 0.929 . S
C1795 C1792 1.356 1_554 S
C1795 C1797 1.358 . S
C1795 H1837 0.930 . S
C1796 N1793 1.314 . S
C1796 C1794 1.353 . S
C1796 H1838 0.930 . S
C1797 N1793 1.279 1_554 S
C1797 C1795 1.358 . S
C1797 H1839 0.930 . S
C1798 C1799 1.348 . S
C1798 C1800 1.356 . S
C1798 O1823 1.325 . S
C1799 C1798 1.348 . S
C1799 C1801 1.353 . S
C1799 H1840 0.929 . S
C1800 C1798 1.356 . S
C1800 C1802 1.358 . S
C1800 H1841 0.930 . S
C1801 C1799 1.353 . S
C1801 N1803 1.314 . S
C1801 H1842 0.930 . S
C1802 C1800 1.358 . S
C1802 N1803 1.279 . S
C1802 H1843 0.930 . S
N1803 C1801 1.314 . S
N1803 C1802 1.279 . S
C1804 C1806 1.353 . S
C1804 N1807 1.314 . S
C1804 H1810 0.930 . S
C1805 N1807 1.279 . S
C1805 C1808 1.358 . S
C1805 H1811 0.930 . S
C1806 C1804 1.353 . S
C1806 C1809 1.348 . S
C1806 H1844 0.929 . S
N1807 Li1762 1.990 . S
N1807 C1804 1.314 . S
N1807 C1805 1.279 . S
C1808 C1805 1.358 . S
C1808 C1809 1.356 . S
C1808 H1845 0.930 . S
C1809 C1806 1.348 . S
C1809 C1808 1.356 . S
H1810 C1804 0.930 . S
H1811 C1805 0.930 . S
C1812 N1813 1.314 1_554 S
C1812 C1814 1.353 . S
C1812 H1818 0.930 . S
N1813 Li1763 1.990 . S
N1813 C1812 1.314 1_556 S
N1813 C1816 1.279 . S
C1814 C1812 1.353 . S
C1814 C1817 1.348 1_554 S
C1814 H1846 0.929 . S
C1815 C1816 1.358 . S
C1815 C1817 1.356 . S
C1815 H1847 0.930 . S
C1816 N1813 1.279 . S
C1816 C1815 1.358 . S
C1816 H1819 0.930 . S
C1817 C1814 1.348 1_556 S
C1817 C1815 1.356 . S
H1818 C1812 0.930 . S
H1819 C1816 0.930 . S
O1820 Li1760 1.956 . S
O1820 Li1761 1.968 . S
O1820 Li1762 1.961 1_554 S
O1820 C1764 1.325 . S
O1821 Li1760 1.970 . S
O1821 Li1761 1.987 . S
O1821 Li1763 1.961 1_554 S
O1821 C1770 1.325 . S
O1822 Li1760 1.979 . S
O1822 Li1762 1.936 1_554 S
O1822 Li1763 1.970 1_554 S
O1822 C1792 1.325 1_554 S
O1823 Li1761 1.932 1_556 S
O1823 Li1762 1.970 . S
O1823 Li1763 1.956 . S
O1823 C1798 1.325 . S
H1824 C1766 0.929 . S
H1825 C1767 0.930 1_556 S
H1826 C1768 0.930 . S
H1827 C1769 0.935 . S
H1828 C1771 0.930 . S
H1829 C1773 0.929 . S
H1830 C1774 0.930 . S
H1831 C1775 0.930 . S
H1832 C1778 0.930 . S
H1833 C1781 0.929 . S
H1834 C1786 0.929 . S
H1835 C1787 0.930 . S
H1836 C1794 0.929 . S
H1837 C1795 0.930 . S
H1838 C1796 0.930 . S
H1839 C1797 0.930 . S
H1840 C1799 0.929 . S
H1841 C1800 0.930 . S
H1842 C1801 0.930 . S
H1843 C1802 0.930 . S
H1844 C1806 0.929 . S
H1845 C1808 0.930 . S
H1846 C1814 0.929 . S
H1847 C1815 0.930 . S
Li1848 N1865 1.990 . S
Li1848 O1908 1.956 . S
Li1848 O1909 1.970 . S
Li1848 O1910 1.961 . S
Li1849 N1873 1.990 . S
Li1849 O1908 1.970 . S
Li1849 O1909 1.956 . S
Li1849 O1911 1.961 . S
Li1850 N1895 1.990 . S
Li1850 O1908 1.961 . S
Li1850 O1910 1.956 . S
Li1850 O1911 1.970 . S
Li1851 N1901 1.990 . S
Li1851 O1909 1.961 . S
Li1851 O1910 1.970 . S
Li1851 O1911 1.956 . S
C1852 C1854 1.348 . S
C1852 C1855 1.356 . S
C1852 O1908 1.325 . S
N1853 C1856 1.314 . S
N1853 C1857 1.279 . S
C1854 C1852 1.348 . S
C1854 C1856 1.353 . S
C1854 H1912 0.929 . S
C1855 C1852 1.356 . S
C1855 C1857 1.358 . S
C1855 H1913 0.930 . S
C1856 N1853 1.314 . S
C1856 C1854 1.353 . S
C1856 H1914 0.930 . S
C1857 N1853 1.279 . S
C1857 C1855 1.358 . S
C1857 H1915 0.930 . S
C1858 C1861 1.348 . S
C1858 C1862 1.356 . S
C1858 O1909 1.325 . S
C1859 N1860 1.279 . S
C1859 C1862 1.358 . S
C1859 H1916 0.930 . S
N1860 C1859 1.279 . S
N1860 C1863 1.314 . S
C1861 C1858 1.348 . S
C1861 C1863 1.353 . S
C1861 H1917 0.929 . S
C1862 C1858 1.356 . S
C1862 C1859 1.358 . S
C1862 H1918 0.930 . S
C1863 N1860 1.314 . S
C1863 C1861 1.353 . S
C1863 H1919 0.930 . S
C1864 N1865 1.314 . S
C1864 C1869 1.353 . S
C1864 H1870 0.930 . S
N1865 Li1848 1.990 . S
N1865 C1864 1.314 . S
N1865 C1867 1.279 . S
C1866 C1867 1.358 . S
C1866 C1868 1.356 . S
C1866 H1920 0.930 . S
C1867 N1865 1.279 . S
C1867 C1866 1.358 . S
C1867 H1871 0.930 . S
C1868 C1866 1.356 . S
C1868 C1869 1.348 . S
C1869 C1864 1.353 . S
C1869 C1868 1.348 . S
C1869 H1921 0.929 . S
H1870 C1864 0.930 . S
H1871 C1867 0.930 . S
C1872 N1873 1.314 . S
C1872 C1874 1.353 . S
C1872 H1878 0.930 . S
N1873 Li1849 1.990 . S
N1873 C1872 1.314 . S
N1873 C1876 1.279 . S
C1874 C1872 1.353 . S
C1874 C1877 1.348 . S
C1874 H1922 0.929 . S
C1875 C1876 1.358 . S
C1875 C1877 1.356 . S
C1875 H1923 0.930 . S
C1876 N1873 1.279 . S
C1876 C1875 1.358 . S
C1876 H1879 0.930 . S
C1877 C1874 1.348 . S
C1877 C1875 1.356 . S
H1878 C1872 0.930 . S
H1879 C1876 0.930 . S
C1880 C1882 1.348 . S
C1880 C1883 1.356 . S
C1880 O1910 1.325 . S
N1881 C1884 1.314 . S
N1881 C1885 1.279 . S
C1882 C1880 1.348 . S
C1882 C1884 1.353 . S
C1882 H1924 0.929 . S
C1883 C1880 1.356 . S
C1883 C1885 1.358 . S
C1883 H1925 0.930 . S
C1884 N1881 1.314 . S
C1884 C1882 1.353 . S
C1884 H1926 0.930 . S
C1885 N1881 1.279 . S
C1885 C1883 1.358 . S
C1885 H1927 0.930 . S
C1886 C1887 1.348 . S
C1886 C1888 1.356 . S
C1886 O1911 1.325 . S
C1887 C1886 1.348 . S
C1887 C1889 1.353 . S
C1887 H1928 0.929 . S
C1888 C1886 1.356 . S
C1888 C1890 1.358 . S
C1888 H1929 0.930 . S
C1889 C1887 1.353 . S
C1889 N1891 1.314 . S
C1889 H1930 0.930 . S
C1890 C1888 1.358 . S
C1890 N1891 1.279 . S
C1890 H1931 0.930 . S
N1891 C1889 1.314 . S
N1891 C1890 1.279 . S
C1892 C1894 1.353 . S
C1892 N1895 1.314 . S
C1892 H1898 0.930 . S
C1893 N1895 1.279 . S
C1893 C1896 1.358 . S
C1893 H1899 0.930 . S
C1894 C1892 1.353 . S
C1894 C1897 1.348 . S
C1894 H1932 0.929 . S
N1895 Li1850 1.990 . S
N1895 C1892 1.314 . S
N1895 C1893 1.279 . S
C1896 C1893 1.358 . S
C1896 C1897 1.356 . S
C1896 H1933 0.930 . S
C1897 C1894 1.348 . S
C1897 C1896 1.356 . S
H1898 C1892 0.930 . S
H1899 C1893 0.930 . S
C1900 N1901 1.314 . S
C1900 C1902 1.353 . S
C1900 H1906 0.930 . S
N1901 Li1851 1.990 . S
N1901 C1900 1.314 . S
N1901 C1904 1.279 . S
C1902 C1900 1.353 . S
C1902 C1905 1.348 . S
C1902 H1934 0.929 . S
C1903 C1904 1.358 . S
C1903 C1905 1.356 . S
C1903 H1935 0.930 . S
C1904 N1901 1.279 . S
C1904 C1903 1.358 . S
C1904 H1907 0.930 . S
C1905 C1902 1.348 . S
C1905 C1903 1.356 . S
H1906 C1900 0.930 . S
H1907 C1904 0.930 . S
O1908 Li1848 1.956 . S
O1908 Li1849 1.970 . S
O1908 Li1850 1.961 . S
O1908 C1852 1.325 . S
O1909 Li1848 1.970 . S
O1909 Li1849 1.956 . S
O1909 Li1851 1.961 . S
O1909 C1858 1.325 . S
O1910 Li1848 1.961 . S
O1910 Li1850 1.956 . S
O1910 Li1851 1.970 . S
O1910 C1880 1.325 . S
O1911 Li1849 1.961 . S
O1911 Li1850 1.970 . S
O1911 Li1851 1.956 . S
O1911 C1886 1.325 . S
H1912 C1854 0.929 . S
H1913 C1855 0.930 . S
H1914 C1856 0.930 . S
H1915 C1857 0.930 . S
H1916 C1859 0.930 . S
H1917 C1861 0.929 . S
H1918 C1862 0.930 . S
H1919 C1863 0.930 . S
H1920 C1866 0.930 . S
H1921 C1869 0.929 . S
H1922 C1874 0.929 . S
H1923 C1875 0.930 . S
H1924 C1882 0.929 . S
H1925 C1883 0.930 . S
H1926 C1884 0.930 . S
H1927 C1885 0.930 . S
H1928 C1887 0.929 . S
H1929 C1888 0.930 . S
H1930 C1889 0.930 . S
H1931 C1890 0.930 . S
H1932 C1894 0.929 . S
H1933 C1896 0.930 . S
H1934 C1902 0.929 . S
H1935 C1903 0.930 . S
Li1936 N1953 1.990 . S
Li1936 O1996 1.956 . S
Li1936 O1997 1.970 . S
Li1936 O1998 1.961 . S
Li1937 N1961 1.990 . S
Li1937 O1996 1.970 . S
Li1937 O1997 1.956 . S
Li1937 O1999 1.961 . S
Li1938 N1983 1.990 . S
Li1938 O1996 1.961 . S
Li1938 O1998 1.956 . S
Li1938 O1999 1.970 . S
Li1939 N1989 1.990 . S
Li1939 O1997 1.961 . S
Li1939 O1998 1.970 . S
Li1939 O1999 1.956 . S
C1940 C1942 1.348 . S
C1940 C1943 1.356 . S
C1940 O1996 1.325 . S
N1941 C1944 1.314 . S
N1941 C1945 1.279 . S
C1942 C1940 1.348 . S
C1942 C1944 1.353 . S
C1942 H2000 0.929 . S
C1943 C1940 1.356 . S
C1943 C1945 1.358 . S
C1943 H2001 0.930 . S
C1944 N1941 1.314 . S
C1944 C1942 1.353 . S
C1944 H2002 0.930 . S
C1945 N1941 1.279 . S
C1945 C1943 1.358 . S
C1945 H2003 0.930 . S
C1946 C1949 1.348 . S
C1946 C1950 1.356 . S
C1946 O1997 1.325 . S
C1947 N1948 1.279 . S
C1947 C1950 1.358 . S
C1947 H2004 0.930 . S
N1948 C1947 1.279 . S
N1948 C1951 1.314 . S
C1949 C1946 1.348 . S
C1949 C1951 1.353 . S
C1949 H2005 0.929 . S
C1950 C1946 1.356 . S
C1950 C1947 1.358 . S
C1950 H2006 0.930 . S
C1951 N1948 1.314 . S
C1951 C1949 1.353 . S
C1951 H2007 0.930 . S
C1952 N1953 1.314 . S
C1952 C1957 1.353 . S
C1952 H1958 0.930 . S
N1953 Li1936 1.990 . S
N1953 C1952 1.314 . S
N1953 C1955 1.279 . S
C1954 C1955 1.358 . S
C1954 C1956 1.356 . S
C1954 H2008 0.930 . S
C1955 N1953 1.279 . S
C1955 C1954 1.358 . S
C1955 H1959 0.930 . S
C1956 C1954 1.356 . S
C1956 C1957 1.348 . S
C1957 C1952 1.353 . S
C1957 C1956 1.348 . S
C1957 H2009 0.929 . S
H1958 C1952 0.930 . S
H1959 C1955 0.930 . S
C1960 N1961 1.314 . S
C1960 C1962 1.353 . S
C1960 H1966 0.930 . S
N1961 Li1937 1.990 . S
N1961 C1960 1.314 . S
N1961 C1964 1.279 . S
C1962 C1960 1.353 . S
C1962 C1965 1.348 . S
C1962 H2010 0.929 . S
C1963 C1964 1.358 . S
C1963 C1965 1.356 . S
C1963 H2011 0.930 . S
C1964 N1961 1.279 . S
C1964 C1963 1.358 . S
C1964 H1967 0.930 . S
C1965 C1962 1.348 . S
C1965 C1963 1.356 . S
H1966 C1960 0.930 . S
H1967 C1964 0.930 . S
C1968 C1970 1.348 . S
C1968 C1971 1.356 . S
C1968 O1998 1.325 . S
N1969 C1972 1.314 . S
N1969 C1973 1.279 . S
C1970 C1968 1.348 . S
C1970 C1972 1.353 . S
C1970 H2012 0.929 . S
C1971 C1968 1.356 . S
C1971 C1973 1.358 . S
C1971 H2013 0.930 . S
C1972 N1969 1.314 . S
C1972 C1970 1.353 . S
C1972 H2014 0.930 . S
C1973 N1969 1.279 . S
C1973 C1971 1.358 . S
C1973 H2015 0.930 . S
C1974 C1975 1.348 . S
C1974 C1976 1.356 . S
C1974 O1999 1.325 . S
C1975 C1974 1.348 . S
C1975 C1977 1.353 . S
C1975 H2016 0.929 . S
C1976 C1974 1.356 . S
C1976 C1978 1.358 . S
C1976 H2017 0.930 . S
C1977 C1975 1.353 . S
C1977 N1979 1.314 . S
C1977 H2018 0.930 . S
C1978 C1976 1.358 . S
C1978 N1979 1.279 . S
C1978 H2019 0.930 . S
N1979 C1977 1.314 . S
N1979 C1978 1.279 . S
C1980 C1982 1.353 . S
C1980 N1983 1.314 . S
C1980 H1986 0.930 . S
C1981 N1983 1.279 . S
C1981 C1984 1.358 . S
C1981 H1987 0.930 . S
C1982 C1980 1.353 . S
C1982 C1985 1.348 . S
C1982 H2020 0.929 . S
N1983 Li1938 1.990 . S
N1983 C1980 1.314 . S
N1983 C1981 1.279 . S
C1984 C1981 1.358 . S
C1984 C1985 1.356 . S
C1984 H2021 0.930 . S
C1985 C1982 1.348 . S
C1985 C1984 1.356 . S
H1986 C1980 0.930 . S
H1987 C1981 0.930 . S
C1988 N1989 1.314 . S
C1988 C1990 1.353 . S
C1988 H1994 0.930 . S
N1989 Li1939 1.990 . S
N1989 C1988 1.314 . S
N1989 C1992 1.279 . S
C1990 C1988 1.353 . S
C1990 C1993 1.348 . S
C1990 H2022 0.929 . S
C1991 C1992 1.358 . S
C1991 C1993 1.356 . S
C1991 H2023 0.930 . S
C1992 N1989 1.279 . S
C1992 C1991 1.358 . S
C1992 H1995 0.930 . S
C1993 C1990 1.348 . S
C1993 C1991 1.356 . S
H1994 C1988 0.930 . S
H1995 C1992 0.930 . S
O1996 Li1936 1.956 . S
O1996 Li1937 1.970 . S
O1996 Li1938 1.961 . S
O1996 C1940 1.325 . S
O1997 Li1936 1.970 . S
O1997 Li1937 1.956 . S
O1997 Li1939 1.961 . S
O1997 C1946 1.325 . S
O1998 Li1936 1.961 . S
O1998 Li1938 1.956 . S
O1998 Li1939 1.970 . S
O1998 C1968 1.325 . S
O1999 Li1937 1.961 . S
O1999 Li1938 1.970 . S
O1999 Li1939 1.956 . S
O1999 C1974 1.325 . S
H2000 C1942 0.929 . S
H2001 C1943 0.930 . S
H2002 C1944 0.930 . S
H2003 C1945 0.930 . S
H2004 C1947 0.930 . S
H2005 C1949 0.929 . S
H2006 C1950 0.930 . S
H2007 C1951 0.930 . S
H2008 C1954 0.930 . S
H2009 C1957 0.929 . S
H2010 C1962 0.929 . S
H2011 C1963 0.930 . S
H2012 C1970 0.929 . S
H2013 C1971 0.930 . S
H2014 C1972 0.930 . S
H2015 C1973 0.930 . S
H2016 C1975 0.929 . S
H2017 C1976 0.930 . S
H2018 C1977 0.930 . S
H2019 C1978 0.930 . S
H2020 C1982 0.929 . S
H2021 C1984 0.930 . S
H2022 C1990 0.929 . S
H2023 C1991 0.930 . S
Li2024 N2041 1.990 . S
Li2024 O2084 1.956 . S
Li2024 O2085 1.970 . S
Li2024 O2086 1.961 . S
Li2025 N2049 1.990 . S
Li2025 O2084 1.970 . S
Li2025 O2085 1.956 . S
Li2025 O2087 1.961 . S
Li2026 N2071 1.990 . S
Li2026 O2084 1.961 . S
Li2026 O2086 1.956 . S
Li2026 O2087 1.970 . S
Li2027 N2077 1.990 . S
Li2027 O2085 1.961 . S
Li2027 O2086 1.970 . S
Li2027 O2087 1.956 . S
C2028 C2030 1.348 . S
C2028 C2031 1.356 . S
C2028 O2084 1.325 . S
N2029 C2032 1.314 . S
N2029 C2033 1.279 . S
C2030 C2028 1.348 . S
C2030 C2032 1.353 . S
C2030 H2088 0.929 . S
C2031 C2028 1.356 . S
C2031 C2033 1.358 . S
C2031 H2089 0.930 . S
C2032 N2029 1.314 . S
C2032 C2030 1.353 . S
C2032 H2090 0.930 . S
C2033 N2029 1.279 . S
C2033 C2031 1.358 . S
C2033 H2091 0.930 . S
C2034 C2037 1.348 . S
C2034 C2038 1.356 . S
C2034 O2085 1.325 . S
C2035 N2036 1.279 . S
C2035 C2038 1.358 . S
C2035 H2092 0.930 . S
N2036 C2035 1.279 . S
N2036 C2039 1.314 . S
C2037 C2034 1.348 . S
C2037 C2039 1.353 . S
C2037 H2093 0.929 . S
C2038 C2034 1.356 . S
C2038 C2035 1.358 . S
C2038 H2094 0.930 . S
C2039 N2036 1.314 . S
C2039 C2037 1.353 . S
C2039 H2095 0.930 . S
C2040 N2041 1.314 . S
C2040 C2045 1.353 . S
C2040 H2046 0.930 . S
N2041 Li2024 1.990 . S
N2041 C2040 1.314 . S
N2041 C2043 1.279 . S
C2042 C2043 1.358 . S
C2042 C2044 1.356 . S
C2042 H2096 0.930 . S
C2043 N2041 1.279 . S
C2043 C2042 1.358 . S
C2043 H2047 0.930 . S
C2044 C2042 1.356 . S
C2044 C2045 1.348 . S
C2045 C2040 1.353 . S
C2045 C2044 1.348 . S
C2045 H2097 0.929 . S
H2046 C2040 0.930 . S
H2047 C2043 0.930 . S
C2048 N2049 1.314 . S
C2048 C2050 1.353 . S
C2048 H2054 0.930 . S
N2049 Li2025 1.990 . S
N2049 C2048 1.314 . S
N2049 C2052 1.279 . S
C2050 C2048 1.353 . S
C2050 C2053 1.348 . S
C2050 H2098 0.929 . S
C2051 C2052 1.358 . S
C2051 C2053 1.356 . S
C2051 H2099 0.930 . S
C2052 N2049 1.279 . S
C2052 C2051 1.358 . S
C2052 H2055 0.930 . S
C2053 C2050 1.348 . S
C2053 C2051 1.356 . S
H2054 C2048 0.930 . S
H2055 C2052 0.930 . S
C2056 C2058 1.348 . S
C2056 C2059 1.356 . S
C2056 O2086 1.325 . S
N2057 C2060 1.314 . S
N2057 C2061 1.279 . S
C2058 C2056 1.348 . S
C2058 C2060 1.353 . S
C2058 H2100 0.929 . S
C2059 C2056 1.356 . S
C2059 C2061 1.358 . S
C2059 H2101 0.930 . S
C2060 N2057 1.314 . S
C2060 C2058 1.353 . S
C2060 H2102 0.930 . S
C2061 N2057 1.279 . S
C2061 C2059 1.358 . S
C2061 H2103 0.930 . S
C2062 C2063 1.348 . S
C2062 C2064 1.356 . S
C2062 O2087 1.325 . S
C2063 C2062 1.348 . S
C2063 C2065 1.353 . S
C2063 H2104 0.929 . S
C2064 C2062 1.356 . S
C2064 C2066 1.358 . S
C2064 H2105 0.930 . S
C2065 C2063 1.353 . S
C2065 N2067 1.314 . S
C2065 H2106 0.930 . S
C2066 C2064 1.358 . S
C2066 N2067 1.279 . S
C2066 H2107 0.930 . S
N2067 C2065 1.314 . S
N2067 C2066 1.279 . S
C2068 C2070 1.353 . S
C2068 N2071 1.314 . S
C2068 H2074 0.930 . S
C2069 N2071 1.279 . S
C2069 C2072 1.358 . S
C2069 H2075 0.930 . S
C2070 C2068 1.353 . S
C2070 C2073 1.348 . S
C2070 H2108 0.929 . S
N2071 Li2026 1.990 . S
N2071 C2068 1.314 . S
N2071 C2069 1.279 . S
C2072 C2069 1.358 . S
C2072 C2073 1.356 . S
C2072 H2109 0.930 . S
C2073 C2070 1.348 . S
C2073 C2072 1.356 . S
H2074 C2068 0.930 . S
H2075 C2069 0.930 . S
C2076 N2077 1.314 . S
C2076 C2078 1.353 . S
C2076 H2082 0.930 . S
N2077 Li2027 1.990 . S
N2077 C2076 1.314 . S
N2077 C2080 1.279 . S
C2078 C2076 1.353 . S
C2078 C2081 1.348 . S
C2078 H2110 0.929 . S
C2079 C2080 1.358 . S
C2079 C2081 1.356 . S
C2079 H2111 0.930 . S
C2080 N2077 1.279 . S
C2080 C2079 1.358 . S
C2080 H2083 0.930 . S
C2081 C2078 1.348 . S
C2081 C2079 1.356 . S
H2082 C2076 0.930 . S
H2083 C2080 0.930 . S
O2084 Li2024 1.956 . S
O2084 Li2025 1.970 . S
O2084 Li2026 1.961 . S
O2084 C2028 1.325 . S
O2085 Li2024 1.970 . S
O2085 Li2025 1.956 . S
O2085 Li2027 1.961 . S
O2085 C2034 1.325 . S
O2086 Li2024 1.961 . S
O2086 Li2026 1.956 . S
O2086 Li2027 1.970 . S
O2086 C2056 1.325 . S
O2087 Li2025 1.961 . S
O2087 Li2026 1.970 . S
O2087 Li2027 1.956 . S
O2087 C2062 1.325 . S
H2088 C2030 0.929 . S
H2089 C2031 0.930 . S
H2090 C2032 0.930 . S
H2091 C2033 0.930 . S
H2092 C2035 0.930 . S
H2093 C2037 0.929 . S
H2094 C2038 0.930 . S
H2095 C2039 0.930 . S
H2096 C2042 0.930 . S
H2097 C2045 0.929 . S
H2098 C2050 0.929 . S
H2099 C2051 0.930 . S
H2100 C2058 0.929 . S
H2101 C2059 0.930 . S
H2102 C2060 0.930 . S
H2103 C2061 0.930 . S
H2104 C2063 0.929 . S
H2105 C2064 0.930 . S
H2106 C2065 0.930 . S
H2107 C2066 0.930 . S
H2108 C2070 0.929 . S
H2109 C2072 0.930 . S
H2110 C2078 0.929 . S
H2111 C2079 0.930 . S
Zn2112 O2118 1.969 . S
Zn2112 O2119 1.965 1_565 S
Zn2112 O2123 2.024 . S
Zn2112 O2128 1.949 1_565 S
Zn2113 O2120 1.969 1_654 S
Zn2113 O2126 1.969 1_554 S
Zn2113 O2127 1.965 . S
Zn2113 O2129 2.024 1_655 S
C2114 O2115 1.229 . S
C2114 O2123 1.058 . S
O2115 C2114 1.229 . S
C2116 O2117 1.229 1_454 S
C2116 O2129 1.058 . S
O2117 C2116 1.229 1_656 S
O2118 Zn2112 1.969 . S
O2118 C2121 1.267 . S
O2119 Zn2112 1.965 1_545 S
O2119 C2130 1.260 1_554 S
O2120 Zn2113 1.969 1_456 S
O2120 C2130 1.258 . S
C2121 O2118 1.267 . S
C2121 O2122 1.228 . S
O2122 C2121 1.228 . S
O2123 Zn2112 2.024 . S
O2123 C2114 1.058 . S
C2124 O2125 1.228 . S
C2124 O2126 1.267 1_554 S
O2125 C2124 1.228 . S
O2126 Zn2113 1.969 1_556 S
O2126 C2124 1.267 1_556 S
O2127 Zn2113 1.965 . S
O2127 C2131 1.260 1_655 S
O2128 Zn2112 1.949 1_545 S
O2128 C2131 1.290 . S
O2129 Zn2113 2.024 1_455 S
O2129 C2116 1.058 . S
C2130 O2119 1.260 1_556 S
C2130 O2120 1.258 . S
C2131 O2127 1.260 1_455 S
C2131 O2128 1.290 . S
Zn2132 O2138 1.969 . S
Zn2132 O2139 1.965 . S
Zn2132 O2143 2.024 . S
Zn2132 O2148 1.969 . S
Zn2133 O2140 1.969 . S
Zn2133 O2146 1.969 . S
Zn2133 O2147 1.965 . S
Zn2133 O2149 2.024 . S
C2134 O2135 1.229 . S
C2134 O2143 1.058 . S
O2135 C2134 1.229 . S
C2136 O2137 1.229 . S
C2136 O2149 1.058 . S
O2137 C2136 1.229 . S
O2138 Zn2132 1.969 . S
O2138 C2141 1.267 . S
O2139 Zn2132 1.965 . S
O2139 C2150 1.260 . S
O2140 Zn2133 1.969 . S
O2140 C2150 1.258 . S
C2141 O2138 1.267 . S
C2141 O2142 1.228 . S
O2142 C2141 1.228 . S
O2143 Zn2132 2.024 . S
O2143 C2134 1.058 . S
C2144 O2145 1.228 . S
C2144 O2146 1.267 . S
O2145 C2144 1.228 . S
O2146 Zn2133 1.969 . S
O2146 C2144 1.267 . S
O2147 Zn2133 1.965 . S
O2147 C2151 1.260 . S
O2148 Zn2132 1.969 . S
O2148 C2151 1.258 . S
O2149 Zn2133 2.024 . S
O2149 C2136 1.058 . S
C2150 O2139 1.260 . S
C2150 O2140 1.258 . S
C2151 O2147 1.260 . S
C2151 O2148 1.258 . S
Zn2152 O2158 1.969 . S
Zn2152 O2159 1.965 . S
Zn2152 O2163 2.024 . S
Zn2152 O2168 1.969 . S
Zn2153 O2160 1.969 . S
Zn2153 O2166 1.969 . S
Zn2153 O2167 1.965 1_565 S
Zn2153 O2169 2.024 . S
C2154 O2155 1.229 . S
C2154 O2163 1.058 . S
O2155 C2154 1.229 . S
C2156 O2157 1.229 . S
C2156 O2169 1.058 . S
O2157 C2156 1.229 . S
O2158 Zn2152 1.969 . S
O2158 C2161 1.267 . S
O2159 Zn2152 1.965 . S
O2159 C2170 1.260 . S
O2160 Zn2153 1.969 . S
O2160 C2170 1.258 1_565 S
C2161 O2158 1.267 . S
C2161 O2162 1.228 . S
O2162 C2161 1.228 . S
O2163 Zn2152 2.024 . S
O2163 C2154 1.058 . S
C2164 O2165 1.228 . S
C2164 O2166 1.267 . S
O2165 C2164 1.228 . S
O2166 Zn2153 1.969 . S
O2166 C2164 1.267 . S
O2167 Zn2153 1.965 1_545 S
O2167 C2171 1.260 . S
O2168 Zn2152 1.969 . S
O2168 C2171 1.258 . S
O2169 Zn2153 2.024 . S
O2169 C2156 1.058 . S
C2170 O2159 1.260 . S
C2170 O2160 1.258 1_545 S
C2171 O2167 1.260 . S
C2171 O2168 1.258 . S
Zn2172 O2178 1.969 . S
Zn2172 O2179 1.965 . S
Zn2172 O2183 2.024 . S
Zn2172 O2188 1.969 . S
Zn2173 O2180 1.969 . S
Zn2173 O2186 1.969 . S
Zn2173 O2187 1.965 . S
Zn2173 O2189 2.024 . S
C2174 O2175 1.229 . S
C2174 O2183 1.058 . S
O2175 C2174 1.229 . S
C2176 O2177 1.229 . S
C2176 O2189 1.058 . S
O2177 C2176 1.229 . S
O2178 Zn2172 1.969 . S
O2178 C2181 1.267 . S
O2179 Zn2172 1.965 . S
O2179 C2190 1.260 . S
O2180 Zn2173 1.969 . S
O2180 C2190 1.258 . S
C2181 O2178 1.267 . S
C2181 O2182 1.228 . S
O2182 C2181 1.228 . S
O2183 Zn2172 2.024 . S
O2183 C2174 1.058 . S
C2184 O2185 1.228 . S
C2184 O2186 1.267 . S
O2185 C2184 1.228 . S
O2186 Zn2173 1.969 . S
O2186 C2184 1.267 . S
O2187 Zn2173 1.965 . S
O2187 C2191 1.260 . S
O2188 Zn2172 1.969 . S
O2188 C2191 1.258 . S
O2189 Zn2173 2.024 . S
O2189 C2176 1.058 . S
C2190 O2179 1.260 . S
C2190 O2180 1.258 . S
C2191 O2187 1.260 . S
C2191 O2188 1.258 . S
Zn2192 O2198 1.969 . S
Zn2192 O2199 1.965 1_455 S
Zn2192 O2203 2.024 1_565 S
Zn2192 O2208 1.969 1_565 S
Zn2193 O2200 1.969 1_455 S
Zn2193 O2206 1.969 1_455 S
Zn2193 O2207 1.965 . S
Zn2193 O2209 2.024 . S
C2194 O2195 1.229 1_545 S
C2194 O2203 1.058 . S
O2195 C2194 1.229 1_565 S
C2196 O2197 1.229 . S
C2196 O2209 1.058 1_655 S
O2197 C2196 1.229 . S
O2198 Zn2192 1.969 . S
O2198 C2201 1.267 . S
O2199 Zn2192 1.965 1_655 S
O2199 C2210 1.260 . S
O2200 Zn2193 1.969 1_655 S
O2200 C2210 1.258 1_545 S
C2201 O2198 1.267 . S
C2201 O2202 1.228 . S
O2202 C2201 1.228 . S
O2203 Zn2192 2.024 1_545 S
O2203 C2194 1.058 . S
C2204 O2205 1.228 . S
C2204 O2206 1.267 1_455 S
O2205 C2204 1.228 . S
O2206 Zn2193 1.969 1_655 S
O2206 C2204 1.267 1_655 S
O2207 Zn2193 1.965 . S
O2207 C2211 1.260 . S
O2208 Zn2192 1.969 1_545 S
O2208 C2211 1.258 . S
O2209 Zn2193 2.024 . S
O2209 C2196 1.058 1_455 S
C2210 O2199 1.260 . S
C2210 O2200 1.258 1_565 S
C2211 O2207 1.260 . S
C2211 O2208 1.258 . S
Zn2212 O2218 1.969 . S
Zn2212 O2219 1.965 . S
Zn2212 O2223 2.024 . S
Zn2212 O2228 1.969 . S
Zn2213 O2220 1.969 . S
Zn2213 O2226 1.969 . S
Zn2213 O2227 1.965 . S
Zn2213 O2229 2.024 . S
C2214 O2215 1.229 . S
C2214 O2223 1.058 . S
O2215 C2214 1.229 . S
C2216 O2217 1.229 . S
C2216 O2229 1.058 . S
O2217 C2216 1.229 . S
O2218 Zn2212 1.969 . S
O2218 C2221 1.267 . S
O2219 Zn2212 1.965 . S
O2219 C2230 1.260 . S
O2220 Zn2213 1.969 . S
O2220 C2230 1.258 . S
C2221 O2218 1.267 . S
C2221 O2222 1.228 . S
O2222 C2221 1.228 . S
O2223 Zn2212 2.024 . S
O2223 C2214 1.058 . S
C2224 O2225 1.228 . S
C2224 O2226 1.267 . S
O2225 C2224 1.228 . S
O2226 Zn2213 1.969 . S
O2226 C2224 1.267 . S
O2227 Zn2213 1.965 . S
O2227 C2231 1.260 . S
O2228 Zn2212 1.969 . S
O2228 C2231 1.258 . S
O2229 Zn2213 2.024 . S
O2229 C2216 1.058 . S
C2230 O2219 1.260 . S
C2230 O2220 1.258 . S
C2231 O2227 1.260 . S
C2231 O2228 1.258 . S
Zn2232 O2238 1.996 . S
Zn2232 O2239 1.964 1_545 S
Zn2232 O2243 2.010 1_556 S
Zn2232 O2248 1.956 1_556 S
Zn2233 O2240 1.969 . S
Zn2233 O2246 1.969 . S
Zn2233 O2247 1.965 1_565 S
Zn2233 O2249 2.017 1_565 S
C2234 O2235 1.229 . S
C2234 O2243 1.058 . S
O2235 C2234 1.229 . S
C2236 O2237 1.229 . S
C2236 O2249 1.037 1_565 S
O2237 C2236 1.229 . S
O2238 Zn2232 1.996 . S
O2238 C2241 1.267 . S
O2239 Zn2232 1.964 1_565 S
O2239 C2250 1.247 1_556 S
O2240 Zn2233 1.969 . S
O2240 C2250 1.258 . S
C2241 O2238 1.267 . S
C2241 O2242 1.228 . S
O2242 C2241 1.228 . S
O2243 Zn2232 2.010 1_554 S
O2243 C2234 1.058 . S
C2244 O2245 1.238 . S
C2244 O2246 1.261 1_545 S
O2245 C2244 1.238 . S
O2246 Zn2233 1.969 . S
O2246 C2244 1.261 1_565 S
O2247 Zn2233 1.965 1_545 S
O2247 C2251 1.260 . S
O2248 Zn2232 1.956 1_554 S
O2248 C2251 1.258 . S
O2249 Zn2233 2.017 1_545 S
O2249 C2236 1.037 1_545 S
C2250 O2239 1.247 1_554 S
C2250 O2240 1.258 . S
C2251 O2247 1.260 . S
C2251 O2248 1.258 . S
Zn2252 O2258 1.969 . S
Zn2252 O2259 1.965 . S
Zn2252 O2263 2.024 . S
Zn2252 O2268 1.969 . S
Zn2253 O2260 1.969 . S
Zn2253 O2266 1.969 . S
Zn2253 O2267 1.965 . S
Zn2253 O2269 2.024 . S
C2254 O2255 1.229 . S
C2254 O2263 1.058 . S
O2255 C2254 1.229 . S
C2256 O2257 1.229 . S
C2256 O2269 1.058 . S
O2257 C2256 1.229 . S
O2258 Zn2252 1.969 . S
O2258 C2261 1.267 . S
O2259 Zn2252 1.965 . S
O2259 C2270 1.260 . S
O2260 Zn2253 1.969 . S
O2260 C2270 1.258 . S
C2261 O2258 1.267 . S
C2261 O2262 1.228 . S
O2262 C2261 1.228 . S
O2263 Zn2252 2.024 . S
O2263 C2254 1.058 . S
C2264 O2265 1.228 . S
C2264 O2266 1.267 . S
O2265 C2264 1.228 . S
O2266 Zn2253 1.969 . S
O2266 C2264 1.267 . S
O2267 Zn2253 1.965 . S
O2267 C2271 1.260 . S
O2268 Zn2252 1.969 . S
O2268 C2271 1.258 . S
O2269 Zn2253 2.024 . S
O2269 C2256 1.058 . S
C2270 O2259 1.260 . S
C2270 O2260 1.258 . S
C2271 O2267 1.260 . S
C2271 O2268 1.258 . S
Zn2272 O2278 1.969 . S
Zn2272 O2279 1.965 . S
Zn2272 O2283 2.024 . S
Zn2272 O2288 1.969 . S
Zn2273 O2280 1.969 1_556 S
Zn2273 O2286 1.969 1_556 S
Zn2273 O2287 1.965 1_556 S
Zn2273 O2289 2.024 . S
C2274 O2275 1.229 . S
C2274 O2283 1.058 . S
O2275 C2274 1.229 . S
C2276 O2277 1.229 . S
C2276 O2289 1.058 . S
O2277 C2276 1.229 . S
O2278 Zn2272 1.969 . S
O2278 C2281 1.267 . S
O2279 Zn2272 1.965 . S
O2279 C2290 1.260 . S
O2280 Zn2273 1.969 1_554 S
O2280 C2290 1.258 . S
C2281 O2278 1.267 . S
C2281 O2282 1.228 . S
O2282 C2281 1.228 . S
O2283 Zn2272 2.024 . S
O2283 C2274 1.058 . S
C2284 O2285 1.228 . S
C2284 O2286 1.267 1_556 S
O2285 C2284 1.228 . S
O2286 Zn2273 1.969 1_554 S
O2286 C2284 1.267 1_554 S
O2287 Zn2273 1.965 1_554 S
O2287 C2291 1.260 . S
O2288 Zn2272 1.969 . S
O2288 C2291 1.258 . S
O2289 Zn2273 2.024 . S
O2289 C2276 1.058 . S
C2290 O2279 1.260 . S
C2290 O2280 1.258 . S
C2291 O2287 1.260 . S
C2291 O2288 1.258 . S
Zn2292 O2298 1.969 . S
Zn2292 O2299 1.965 . S
Zn2292 O2303 2.024 . S
Zn2292 O2308 1.969 . S
Zn2293 O2300 1.969 . S
Zn2293 O2306 1.969 . S
Zn2293 O2307 1.965 . S
Zn2293 O2309 2.024 . S
C2294 O2295 1.229 . S
C2294 O2303 1.058 . S
O2295 C2294 1.229 . S
C2296 O2297 1.229 . S
C2296 O2309 1.058 . S
O2297 C2296 1.229 . S
O2298 Zn2292 1.969 . S
O2298 C2301 1.267 . S
O2299 Zn2292 1.965 . S
O2299 C2310 1.260 . S
O2300 Zn2293 1.969 . S
O2300 C2310 1.258 . S
C2301 O2298 1.267 . S
C2301 O2302 1.228 . S
O2302 C2301 1.228 . S
O2303 Zn2292 2.024 . S
O2303 C2294 1.058 . S
C2304 O2305 1.228 . S
C2304 O2306 1.267 . S
O2305 C2304 1.228 . S
O2306 Zn2293 1.969 . S
O2306 C2304 1.267 . S
O2307 Zn2293 1.965 . S
O2307 C2311 1.260 . S
O2308 Zn2292 1.969 . S
O2308 C2311 1.258 . S
O2309 Zn2293 2.024 . S
O2309 C2296 1.058 . S
C2310 O2299 1.260 . S
C2310 O2300 1.258 . S
C2311 O2307 1.260 . S
C2311 O2308 1.258 . S
Zn2312 O2318 1.969 . S
Zn2312 O2319 1.965 . S
Zn2312 O2323 2.024 . S
Zn2312 O2328 1.969 . S
Zn2313 O2320 1.969 1_655 S
Zn2313 O2326 1.969 . S
Zn2313 O2327 1.965 1_655 S
Zn2313 O2329 2.024 . S
C2314 O2315 1.229 . S
C2314 O2323 1.058 . S
O2315 C2314 1.229 . S
C2316 O2317 1.229 . S
C2316 O2329 1.058 . S
O2317 C2316 1.229 . S
O2318 Zn2312 1.969 . S
O2318 C2321 1.267 . S
O2319 Zn2312 1.965 . S
O2319 C2330 1.260 . S
O2320 Zn2313 1.969 1_455 S
O2320 C2330 1.258 . S
C2321 O2318 1.267 . S
C2321 O2322 1.228 . S
O2322 C2321 1.228 . S
O2323 Zn2312 2.024 . S
O2323 C2314 1.058 . S
C2324 O2325 1.228 . S
C2324 O2326 1.267 . S
O2325 C2324 1.228 . S
O2326 Zn2313 1.969 . S
O2326 C2324 1.267 . S
O2327 Zn2313 1.965 1_455 S
O2327 C2331 1.260 . S
O2328 Zn2312 1.969 . S
O2328 C2331 1.258 . S
O2329 Zn2313 2.024 . S
O2329 C2316 1.058 . S
C2330 O2319 1.260 . S
C2330 O2320 1.258 . S
C2331 O2327 1.260 . S
C2331 O2328 1.258 . S
Zn2332 O2338 1.969 . S
Zn2332 O2339 1.965 . S
Zn2332 O2343 2.024 . S
Zn2332 O2348 1.969 . S
Zn2333 O2340 1.969 . S
Zn2333 O2346 1.969 . S
Zn2333 O2347 1.965 . S
Zn2333 O2349 2.024 . S
C2334 O2335 1.229 . S
C2334 O2343 1.058 . S
O2335 C2334 1.229 . S
C2336 O2337 1.229 . S
C2336 O2349 1.058 . S
O2337 C2336 1.229 . S
O2338 Zn2332 1.969 . S
O2338 C2341 1.267 . S
O2339 Zn2332 1.965 . S
O2339 C2350 1.260 . S
O2340 Zn2333 1.969 . S
O2340 C2350 1.258 . S
C2341 O2338 1.267 . S
C2341 O2342 1.228 . S
O2342 C2341 1.228 . S
O2343 Zn2332 2.024 . S
O2343 C2334 1.058 . S
C2344 O2345 1.228 . S
C2344 O2346 1.267 . S
O2345 C2344 1.228 . S
O2346 Zn2333 1.969 . S
O2346 C2344 1.267 . S
O2347 Zn2333 1.965 . S
O2347 C2351 1.260 . S
O2348 Zn2332 1.969 . S
O2348 C2351 1.258 . S
O2349 Zn2333 2.024 . S
O2349 C2336 1.058 . S
C2350 O2339 1.260 . S
C2350 O2340 1.258 . S
C2351 O2347 1.260 . S
C2351 O2348 1.258 . S
Zn2352 O2358 1.969 . S
Zn2352 O2359 1.965 . S
Zn2352 O2363 2.024 . S
Zn2352 O2368 1.969 . S
Zn2353 O2360 1.969 . S
Zn2353 O2366 1.969 . S
Zn2353 O2367 1.965 . S
Zn2353 O2369 2.024 . S
C2354 O2355 1.229 . S
C2354 O2363 1.058 . S
O2355 C2354 1.229 . S
C2356 O2357 1.229 . S
C2356 O2369 1.058 . S
O2357 C2356 1.229 . S
O2358 Zn2352 1.969 . S
O2358 C2361 1.267 . S
O2359 Zn2352 1.965 . S
O2359 C2370 1.260 . S
O2360 Zn2353 1.969 . S
O2360 C2370 1.258 . S
C2361 O2358 1.267 . S
C2361 O2362 1.228 . S
O2362 C2361 1.228 . S
O2363 Zn2352 2.024 . S
O2363 C2354 1.058 . S
C2364 O2365 1.228 . S
C2364 O2366 1.267 . S
O2365 C2364 1.228 . S
O2366 Zn2353 1.969 . S
O2366 C2364 1.267 . S
O2367 Zn2353 1.965 . S
O2367 C2371 1.260 . S
O2368 Zn2352 1.969 . S
O2368 C2371 1.258 . S
O2369 Zn2353 2.024 . S
O2369 C2356 1.058 . S
C2370 O2359 1.260 . S
C2370 O2360 1.258 . S
C2371 O2367 1.260 . S
C2371 O2368 1.258 . S
Zn2372 O2378 1.969 . S
Zn2372 O2379 1.965 . S
Zn2372 O2383 2.024 . S
Zn2372 O2388 1.969 . S
Zn2373 O2380 1.969 . S
Zn2373 O2386 1.969 . S
Zn2373 O2387 1.965 . S
Zn2373 O2389 2.024 . S
C2374 O2375 1.229 . S
C2374 O2383 1.058 . S
O2375 C2374 1.229 . S
C2376 O2377 1.229 . S
C2376 O2389 1.058 . S
O2377 C2376 1.229 . S
O2378 Zn2372 1.969 . S
O2378 C2381 1.267 . S
O2379 Zn2372 1.965 . S
O2379 C2390 1.260 . S
O2380 Zn2373 1.969 . S
O2380 C2390 1.258 . S
C2381 O2378 1.267 . S
C2381 O2382 1.228 . S
O2382 C2381 1.228 . S
O2383 Zn2372 2.024 . S
O2383 C2374 1.058 . S
C2384 O2385 1.228 . S
C2384 O2386 1.267 . S
O2385 C2384 1.228 . S
O2386 Zn2373 1.969 . S
O2386 C2384 1.267 . S
O2387 Zn2373 1.965 . S
O2387 C2391 1.260 . S
O2388 Zn2372 1.969 . S
O2388 C2391 1.258 . S
O2389 Zn2373 2.024 . S
O2389 C2376 1.058 . S
C2390 O2379 1.260 . S
C2390 O2380 1.258 . S
C2391 O2387 1.260 . S
C2391 O2388 1.258 . S
Zn2392 O2398 1.969 . S
Zn2392 O2399 1.965 . S
Zn2392 O2403 2.024 . S
Zn2392 O2408 1.969 . S
Zn2393 O2400 1.969 . S
Zn2393 O2406 1.969 . S
Zn2393 O2407 1.965 . S
Zn2393 O2409 2.024 . S
C2394 O2395 1.229 . S
C2394 O2403 1.058 . S
O2395 C2394 1.229 . S
C2396 O2397 1.229 . S
C2396 O2409 1.058 . S
O2397 C2396 1.229 . S
O2398 Zn2392 1.969 . S
O2398 C2401 1.267 . S
O2399 Zn2392 1.965 . S
O2399 C2410 1.260 . S
O2400 Zn2393 1.969 . S
O2400 C2410 1.258 . S
C2401 O2398 1.267 . S
C2401 O2402 1.228 . S
O2402 C2401 1.228 . S
O2403 Zn2392 2.024 . S
O2403 C2394 1.058 . S
C2404 O2405 1.228 . S
C2404 O2406 1.267 . S
O2405 C2404 1.228 . S
O2406 Zn2393 1.969 . S
O2406 C2404 1.267 . S
O2407 Zn2393 1.965 . S
O2407 C2411 1.260 . S
O2408 Zn2392 1.969 . S
O2408 C2411 1.258 . S
O2409 Zn2393 2.024 . S
O2409 C2396 1.058 . S
C2410 O2399 1.260 . S
C2410 O2400 1.258 . S
C2411 O2407 1.260 . S
C2411 O2408 1.258 . S
Zn2412 O2418 1.969 . S
Zn2412 O2419 1.965 . S
Zn2412 O2423 2.024 1_655 S
Zn2412 O2428 1.969 1_655 S
Zn2413 O2420 1.969 1_554 S
Zn2413 O2426 1.969 . S
Zn2413 O2427 1.965 . S
Zn2413 O2429 2.024 . S
C2414 O2415 1.229 . S
C2414 O2423 1.058 . S
O2415 C2414 1.229 . S
C2416 O2417 1.229 . S
C2416 O2429 1.058 1_556 S
O2417 C2416 1.229 . S
O2418 Zn2412 1.969 . S
O2418 C2421 1.267 . S
O2419 Zn2412 1.965 . S
O2419 C2430 1.260 1_654 S
O2420 Zn2413 1.969 1_556 S
O2420 C2430 1.258 . S
C2421 O2418 1.267 . S
C2421 O2422 1.228 . S
O2422 C2421 1.228 . S
O2423 Zn2412 2.024 1_455 S
O2423 C2414 1.058 . S
C2424 O2425 1.228 . S
C2424 O2426 1.267 . S
O2425 C2424 1.228 . S
O2426 Zn2413 1.969 . S
O2426 C2424 1.267 . S
O2427 Zn2413 1.965 . S
O2427 C2431 1.260 . S
O2428 Zn2412 1.969 1_455 S
O2428 C2431 1.258 . S
O2429 Zn2413 2.024 . S
O2429 C2416 1.058 1_554 S
C2430 O2419 1.260 1_456 S
C2430 O2420 1.258 . S
C2431 O2427 1.260 . S
C2431 O2428 1.258 . S
C2432 C2433 1.387 . S
C2432 C2434 1.419 1_556 S
C2432 H2436 0.930 1_556 S
C2433 C2432 1.387 . S
C2433 C2442 1.395 1_655 S
C2434 C2432 1.419 1_554 S
C2434 C2435 1.363 1_655 S
C2434 H2437 0.929 . S
C2435 C2434 1.363 1_455 S
C2435 C2441 1.428 1_554 S
H2436 C2432 0.930 1_554 S
H2437 C2434 0.929 . S
S2438 N2439 1.613 . S
S2438 N2440 1.610 . S
N2439 S2438 1.613 . S
N2439 C2442 1.350 . S
N2440 S2438 1.610 . S
N2440 C2441 1.351 . S
C2441 C2435 1.428 1_556 S
C2441 N2440 1.351 . S
C2441 C2442 1.434 . S
C2442 C2433 1.395 1_455 S
C2442 N2439 1.350 . S
C2442 C2441 1.434 . S
C2443 C2444 1.369 . S
C2443 C2445 1.419 . S
C2443 H2447 0.930 . S
C2444 C2443 1.369 . S
C2444 C2453 1.429 . S
C2445 C2443 1.419 . S
C2445 C2446 1.363 . S
C2445 H2448 0.929 . S
C2446 C2445 1.363 . S
C2446 C2452 1.428 . S
H2447 C2443 0.930 . S
H2448 C2445 0.929 . S
S2449 N2450 1.613 . S
S2449 N2451 1.610 . S
N2450 S2449 1.613 . S
N2450 C2453 1.350 . S
N2451 S2449 1.610 . S
N2451 C2452 1.351 . S
C2452 C2446 1.428 . S
C2452 N2451 1.351 . S
C2452 C2453 1.434 . S
C2453 C2444 1.429 . S
C2453 N2450 1.350 . S
C2453 C2452 1.434 . S
C2454 C2455 1.369 . S
C2454 C2456 1.419 . S
C2454 H2458 0.930 . S
C2455 C2454 1.369 . S
C2455 C2464 1.429 . S
C2456 C2454 1.419 . S
C2456 C2457 1.363 . S
C2456 H2459 0.929 . S
C2457 C2456 1.363 . S
C2457 C2463 1.428 . S
H2458 C2454 0.930 . S
H2459 C2456 0.929 . S
S2460 N2461 1.613 . S
S2460 N2462 1.610 . S
N2461 S2460 1.613 . S
N2461 C2464 1.350 . S
N2462 S2460 1.610 . S
N2462 C2463 1.351 . S
C2463 C2457 1.428 . S
C2463 N2462 1.351 . S
C2463 C2464 1.434 . S
C2464 C2455 1.429 . S
C2464 N2461 1.350 . S
C2464 C2463 1.434 . S
C2465 C2466 1.369 . S
C2465 C2467 1.419 . S
C2465 H2469 0.930 . S
C2466 C2465 1.369 . S
C2466 C2475 1.429 . S
C2467 C2465 1.419 . S
C2467 C2468 1.363 . S
C2467 H2470 0.929 . S
C2468 C2467 1.363 . S
C2468 C2474 1.428 . S
H2469 C2465 0.930 . S
H2470 C2467 0.929 . S
S2471 N2472 1.613 . S
S2471 N2473 1.610 . S
N2472 S2471 1.613 . S
N2472 C2475 1.350 . S
N2473 S2471 1.610 . S
N2473 C2474 1.351 . S
C2474 C2468 1.428 . S
C2474 N2473 1.351 . S
C2474 C2475 1.434 . S
C2475 C2466 1.429 . S
C2475 N2472 1.350 . S
C2475 C2474 1.434 . S
C2476 C2477 1.369 1_655 S
C2476 C2478 1.418 1_655 S
C2476 H2480 0.930 . S
C2477 C2476 1.369 1_455 S
C2477 C2486 1.429 . S
C2478 C2476 1.418 1_455 S
C2478 C2479 1.368 . S
C2478 H2481 0.925 1_455 S
C2479 C2478 1.368 . S
C2479 C2485 1.428 . S
H2480 C2476 0.930 . S
H2481 C2478 0.925 1_655 S
S2482 N2483 1.613 . S
S2482 N2484 1.610 . S
N2483 S2482 1.613 . S
N2483 C2486 1.350 . S
N2484 S2482 1.610 . S
N2484 C2485 1.351 . S
C2485 C2479 1.428 . S
C2485 N2484 1.351 . S
C2485 C2486 1.434 . S
C2486 C2477 1.429 . S
C2486 N2483 1.350 . S
C2486 C2485 1.434 . S
C2487 C2488 1.369 . S
C2487 C2489 1.419 . S
C2487 H2491 0.930 . S
C2488 C2487 1.369 . S
C2488 C2497 1.429 . S
C2489 C2487 1.419 . S
C2489 C2490 1.363 . S
C2489 H2492 0.929 . S
C2490 C2489 1.363 . S
C2490 C2496 1.428 . S
H2491 C2487 0.930 . S
H2492 C2489 0.929 . S
S2493 N2494 1.613 . S
S2493 N2495 1.610 . S
N2494 S2493 1.613 . S
N2494 C2497 1.350 . S
N2495 S2493 1.610 . S
N2495 C2496 1.351 . S
C2496 C2490 1.428 . S
C2496 N2495 1.351 . S
C2496 C2497 1.434 . S
C2497 C2488 1.429 . S
C2497 N2494 1.350 . S
C2497 C2496 1.434 . S
C2498 C2499 1.369 . S
C2498 C2500 1.419 . S
C2498 H2502 0.930 . S
C2499 C2498 1.369 . S
C2499 C2508 1.429 . S
C2500 C2498 1.419 . S
C2500 C2501 1.363 . S
C2500 H2503 0.929 . S
C2501 C2500 1.363 . S
C2501 C2507 1.428 . S
H2502 C2498 0.930 . S
H2503 C2500 0.929 . S
S2504 N2505 1.613 . S
S2504 N2506 1.610 . S
N2505 S2504 1.613 . S
N2505 C2508 1.350 . S
N2506 S2504 1.610 . S
N2506 C2507 1.351 . S
C2507 C2501 1.428 . S
C2507 N2506 1.351 . S
C2507 C2508 1.434 . S
C2508 C2499 1.429 . S
C2508 N2505 1.350 . S
C2508 C2507 1.434 . S
C2509 C2510 1.369 . S
C2509 C2511 1.419 . S
C2509 H2513 0.930 . S
C2510 C2509 1.369 . S
C2510 C2519 1.429 . S
C2511 C2509 1.419 . S
C2511 C2512 1.363 . S
C2511 H2514 0.929 . S
C2512 C2511 1.363 . S
C2512 C2518 1.428 . S
H2513 C2509 0.930 . S
H2514 C2511 0.929 . S
S2515 N2516 1.613 . S
S2515 N2517 1.610 . S
N2516 S2515 1.613 . S
N2516 C2519 1.350 . S
N2517 S2515 1.610 . S
N2517 C2518 1.351 . S
C2518 C2512 1.428 . S
C2518 N2517 1.351 . S
C2518 C2519 1.434 . S
C2519 C2510 1.429 . S
C2519 N2516 1.350 . S
C2519 C2518 1.434 . S
C2520 C2521 1.369 . S
C2520 C2522 1.419 . S
C2520 H2524 0.930 . S
C2521 C2520 1.369 . S
C2521 C2530 1.429 . S
C2522 C2520 1.419 . S
C2522 C2523 1.363 . S
C2522 H2525 0.929 . S
C2523 C2522 1.363 . S
C2523 C2529 1.428 1_655 S
H2524 C2520 0.930 . S
H2525 C2522 0.929 . S
S2526 N2527 1.613 . S
S2526 N2528 1.610 . S
N2527 S2526 1.613 . S
N2527 C2530 1.350 1_455 S
N2528 S2526 1.610 . S
N2528 C2529 1.351 . S
C2529 C2523 1.428 1_455 S
C2529 N2528 1.351 . S
C2529 C2530 1.434 1_455 S
C2530 C2521 1.429 . S
C2530 N2527 1.350 1_655 S
C2530 C2529 1.434 1_655 S
C2531 C2532 1.369 . S
C2531 C2533 1.419 . S
C2531 H2535 0.930 . S
C2532 C2531 1.369 . S
C2532 C2541 1.429 . S
C2533 C2531 1.419 . S
C2533 C2534 1.363 . S
C2533 H2536 0.929 . S
C2534 C2533 1.363 . S
C2534 C2540 1.428 . S
H2535 C2531 0.930 . S
H2536 C2533 0.929 . S
S2537 N2538 1.613 . S
S2537 N2539 1.610 . S
N2538 S2537 1.613 . S
N2538 C2541 1.350 . S
N2539 S2537 1.610 . S
N2539 C2540 1.351 . S
C2540 C2534 1.428 . S
C2540 N2539 1.351 . S
C2540 C2541 1.434 . S
C2541 C2532 1.429 . S
C2541 N2538 1.350 . S
C2541 C2540 1.434 . S
C2542 C2543 1.369 . S
C2542 C2544 1.419 . S
C2542 H2546 0.930 . S
C2543 C2542 1.369 . S
C2543 C2552 1.429 1_565 S
C2544 C2542 1.419 . S
C2544 C2545 1.343 1_565 S
C2544 H2547 0.929 . S
C2545 C2544 1.343 1_545 S
C2545 C2551 1.440 . S
H2546 C2542 0.930 . S
H2547 C2544 0.929 . S
S2548 N2549 1.613 . S
S2548 N2550 1.610 . S
N2549 S2548 1.613 . S
N2549 C2552 1.350 . S
N2550 S2548 1.610 . S
N2550 C2551 1.351 . S
C2551 C2545 1.440 . S
C2551 N2550 1.351 . S
C2551 C2552 1.434 . S
C2552 C2543 1.429 1_545 S
C2552 N2549 1.350 . S
C2552 C2551 1.434 . S
C2553 C2554 1.369 . S
C2553 C2555 1.419 . S
C2553 H2557 0.930 . S
C2554 C2553 1.369 . S
C2554 C2563 1.429 . S
C2555 C2553 1.419 . S
C2555 C2556 1.363 . S
C2555 H2558 0.929 . S
C2556 C2555 1.363 . S
C2556 C2562 1.428 . S
H2557 C2553 0.930 . S
H2558 C2555 0.929 . S
S2559 N2560 1.613 . S
S2559 N2561 1.610 . S
N2560 S2559 1.613 . S
N2560 C2563 1.350 . S
N2561 S2559 1.610 . S
N2561 C2562 1.351 . S
C2562 C2556 1.428 . S
C2562 N2561 1.351 . S
C2562 C2563 1.434 . S
C2563 C2554 1.429 . S
C2563 N2560 1.350 . S
C2563 C2562 1.434 . S
C2564 C2565 1.369 . S
C2564 C2566 1.419 1_545 S
C2564 H2568 0.930 1_545 S
C2565 C2564 1.369 . S
C2565 C2574 1.429 . S
C2566 C2564 1.419 1_565 S
C2566 C2567 1.363 1_565 S
C2566 H2569 0.931 1_655 S
C2567 C2566 1.363 1_545 S
C2567 C2573 1.428 . S
H2568 C2564 0.930 1_565 S
H2569 C2566 0.931 1_455 S
S2570 N2571 1.613 . S
S2570 N2572 1.610 . S
N2571 S2570 1.613 . S
N2571 C2574 1.350 . S
N2572 S2570 1.610 . S
N2572 C2573 1.351 . S
C2573 C2567 1.428 . S
C2573 N2572 1.351 . S
C2573 C2574 1.434 . S
C2574 C2565 1.429 . S
C2574 N2571 1.350 . S
C2574 C2573 1.434 . S
C2575 C2576 1.369 . S
C2575 C2577 1.419 . S
C2575 H2579 0.930 . S
C2576 C2575 1.369 . S
C2576 C2585 1.429 . S
C2577 C2575 1.419 . S
C2577 C2578 1.363 . S
C2577 H2580 0.929 . S
C2578 C2577 1.363 . S
C2578 C2584 1.428 . S
H2579 C2575 0.930 . S
H2580 C2577 0.929 . S
S2581 N2582 1.613 . S
S2581 N2583 1.610 . S
N2582 S2581 1.613 . S
N2582 C2585 1.350 . S
N2583 S2581 1.610 . S
N2583 C2584 1.351 . S
C2584 C2578 1.428 . S
C2584 N2583 1.351 . S
C2584 C2585 1.434 . S
C2585 C2576 1.429 . S
C2585 N2582 1.350 . S
C2585 C2584 1.434 . S
C2586 C2587 1.358 1_545 S
C2586 C2588 1.419 . S
C2586 H2590 0.930 . S
C2587 C2586 1.358 1_565 S
C2587 C2596 1.434 . S
C2588 C2586 1.419 . S
C2588 C2589 1.363 . S
C2588 H2591 0.929 . S
C2589 C2588 1.363 . S
C2589 C2595 1.439 . S
H2590 C2586 0.930 . S
H2591 C2588 0.929 . S
S2592 N2593 1.613 . S
S2592 N2594 1.610 . S
N2593 S2592 1.613 . S
N2593 C2596 1.350 . S
N2594 S2592 1.610 . S
N2594 C2595 1.346 1_565 S
C2595 C2589 1.439 . S
C2595 N2594 1.346 1_545 S
C2595 C2596 1.428 1_545 S
C2596 C2587 1.434 . S
C2596 N2593 1.350 . S
C2596 C2595 1.428 1_565 S
C2597 C2598 1.369 . S
C2597 C2599 1.419 . S
C2597 H2601 0.930 . S
C2598 C2597 1.369 . S
C2598 C2607 1.429 . S
C2599 C2597 1.419 . S
C2599 C2600 1.363 . S
C2599 H2602 0.929 . S
C2600 C2599 1.363 . S
C2600 C2606 1.428 . S
H2601 C2597 0.930 . S
H2602 C2599 0.929 . S
S2603 N2604 1.613 . S
S2603 N2605 1.610 . S
N2604 S2603 1.613 . S
N2604 C2607 1.350 . S
N2605 S2603 1.610 . S
N2605 C2606 1.351 . S
C2606 C2600 1.428 . S
C2606 N2605 1.351 . S
C2606 C2607 1.434 . S
C2607 C2598 1.429 . S
C2607 N2604 1.350 . S
C2607 C2606 1.434 . S
C2608 C2609 1.369 . S
C2608 C2610 1.419 . S
C2608 H2612 0.930 . S
C2609 C2608 1.369 . S
C2609 C2618 1.429 . S
C2610 C2608 1.419 . S
C2610 C2611 1.363 . S
C2610 H2613 0.929 . S
C2611 C2610 1.363 . S
C2611 C2617 1.428 . S
H2612 C2608 0.930 . S
H2613 C2610 0.929 . S
S2614 N2615 1.613 . S
S2614 N2616 1.610 . S
N2615 S2614 1.613 . S
N2615 C2618 1.350 1_556 S
N2616 S2614 1.610 . S
N2616 C2617 1.351 1_556 S
C2617 C2611 1.428 . S
C2617 N2616 1.351 1_554 S
C2617 C2618 1.434 . S
C2618 C2609 1.429 . S
C2618 N2615 1.350 1_554 S
C2618 C2617 1.434 . S
C2619 C2620 1.369 . S
C2619 C2621 1.419 1_556 S
C2619 H2623 0.930 . S
C2620 C2619 1.369 . S
C2620 C2629 1.426 1_556 S
C2621 C2619 1.419 1_554 S
C2621 C2622 1.363 . S
C2621 H2624 0.929 . S
C2622 C2621 1.363 . S
C2622 C2628 1.428 . S
H2623 C2619 0.930 . S
H2624 C2621 0.929 . S
S2625 N2626 1.613 1_554 S
S2625 N2627 1.610 . S
N2626 S2625 1.613 1_556 S
N2626 C2629 1.349 1_556 S
N2627 S2625 1.610 . S
N2627 C2628 1.351 . S
C2628 C2622 1.428 . S
C2628 N2627 1.351 . S
C2628 C2629 1.437 . S
C2629 C2620 1.426 1_554 S
C2629 N2626 1.349 1_554 S
C2629 C2628 1.437 . S
C2630 C2631 1.369 . S
C2630 C2632 1.419 . S
C2630 H2634 0.930 . S
C2631 C2630 1.369 . S
C2631 C2640 1.429 . S
C2632 C2630 1.419 . S
C2632 C2633 1.363 . S
C2632 H2635 0.929 . S
C2633 C2632 1.363 . S
C2633 C2639 1.428 . S
H2634 C2630 0.930 . S
H2635 C2632 0.929 . S
S2636 N2637 1.613 . S
S2636 N2638 1.610 . S
N2637 S2636 1.613 . S
N2637 C2640 1.350 . S
N2638 S2636 1.610 . S
N2638 C2639 1.351 . S
C2639 C2633 1.428 . S
C2639 N2638 1.351 . S
C2639 C2640 1.434 . S
C2640 C2631 1.429 . S
C2640 N2637 1.350 . S
C2640 C2639 1.434 . S
C2641 C2642 1.369 . S
C2641 C2643 1.419 . S
C2641 H2645 0.930 . S
C2642 C2641 1.369 . S
C2642 C2651 1.429 . S
C2643 C2641 1.419 . S
C2643 C2644 1.363 . S
C2643 H2646 0.929 . S
C2644 C2643 1.363 . S
C2644 C2650 1.428 . S
H2645 C2641 0.930 . S
H2646 C2643 0.929 . S
S2647 N2648 1.613 . S
S2647 N2649 1.610 . S
N2648 S2647 1.613 . S
N2648 C2651 1.350 . S
N2649 S2647 1.610 . S
N2649 C2650 1.351 . S
C2650 C2644 1.428 . S
C2650 N2649 1.351 . S
C2650 C2651 1.434 . S
C2651 C2642 1.429 . S
C2651 N2648 1.350 . S
C2651 C2650 1.434 . S
C2652 C2653 1.369 . S
C2652 C2654 1.419 . S
C2652 H2656 0.930 . S
C2653 C2652 1.369 . S
C2653 C2662 1.429 . S
C2654 C2652 1.419 . S
C2654 C2655 1.363 . S
C2654 H2657 0.929 . S
C2655 C2654 1.363 . S
C2655 C2661 1.428 . S
H2656 C2652 0.930 . S
H2657 C2654 0.929 . S
S2658 N2659 1.613 . S
S2658 N2660 1.610 . S
N2659 S2658 1.613 . S
N2659 C2662 1.350 . S
N2660 S2658 1.610 . S
N2660 C2661 1.351 . S
C2661 C2655 1.428 . S
C2661 N2660 1.351 . S
C2661 C2662 1.434 . S
C2662 C2653 1.429 . S
C2662 N2659 1.350 . S
C2662 C2661 1.434 . S
C2663 C2664 1.369 . S
C2663 C2665 1.419 . S
C2663 H2667 0.930 . S
C2664 C2663 1.369 . S
C2664 C2673 1.429 . S
C2665 C2663 1.419 . S
C2665 C2666 1.363 . S
C2665 H2668 0.929 . S
C2666 C2665 1.363 . S
C2666 C2672 1.428 . S
H2667 C2663 0.930 . S
H2668 C2665 0.929 . S
S2669 N2670 1.613 . S
S2669 N2671 1.610 . S
N2670 S2669 1.613 . S
N2670 C2673 1.350 . S
N2671 S2669 1.610 . S
N2671 C2672 1.351 . S
C2672 C2666 1.428 . S
C2672 N2671 1.351 . S
C2672 C2673 1.434 . S
C2673 C2664 1.429 . S
C2673 N2670 1.350 . S
C2673 C2672 1.434 . S
C2674 C2675 1.369 . S
C2674 C2676 1.419 . S
C2674 H2678 0.930 . S
C2675 C2674 1.369 . S
C2675 C2684 1.429 . S
C2676 C2674 1.419 . S
C2676 C2677 1.363 . S
C2676 H2679 0.929 . S
C2677 C2676 1.363 . S
C2677 C2683 1.428 . S
H2678 C2674 0.930 . S
H2679 C2676 0.929 . S
S2680 N2681 1.613 . S
S2680 N2682 1.610 . S
N2681 S2680 1.613 . S
N2681 C2684 1.350 . S
N2682 S2680 1.610 . S
N2682 C2683 1.351 . S
C2683 C2677 1.428 . S
C2683 N2682 1.351 . S
C2683 C2684 1.434 . S
C2684 C2675 1.429 . S
C2684 N2681 1.350 . S
C2684 C2683 1.434 . S
C2685 C2686 1.369 . S
C2685 C2687 1.419 . S
C2685 H2689 0.930 . S
C2686 C2685 1.369 . S
C2686 C2695 1.429 . S
C2687 C2685 1.419 . S
C2687 C2688 1.363 . S
C2687 H2690 0.929 . S
C2688 C2687 1.363 . S
C2688 C2694 1.428 . S
H2689 C2685 0.930 . S
H2690 C2687 0.929 . S
S2691 N2692 1.613 . S
S2691 N2693 1.610 . S
N2692 S2691 1.613 . S
N2692 C2695 1.350 . S
N2693 S2691 1.610 . S
N2693 C2694 1.351 . S
C2694 C2688 1.428 . S
C2694 N2693 1.351 . S
C2694 C2695 1.434 . S
C2695 C2686 1.429 . S
C2695 N2692 1.350 . S
C2695 C2694 1.434 . S
C2696 C2697 1.369 . S
C2696 C2698 1.419 . S
C2696 H2700 0.930 . S
C2697 C2696 1.369 . S
C2697 C2706 1.429 . S
C2698 C2696 1.419 . S
C2698 C2699 1.363 . S
C2698 H2701 0.929 . S
C2699 C2698 1.363 . S
C2699 C2705 1.428 . S
H2700 C2696 0.930 . S
H2701 C2698 0.929 . S
S2702 N2703 1.613 . S
S2702 N2704 1.610 . S
N2703 S2702 1.613 . S
N2703 C2706 1.350 1_655 S
N2704 S2702 1.610 . S
N2704 C2705 1.351 1_655 S
C2705 C2699 1.428 . S
C2705 N2704 1.351 1_455 S
C2705 C2706 1.434 . S
C2706 C2697 1.429 . S
C2706 N2703 1.350 1_455 S
C2706 C2705 1.434 . S
C2707 C2708 1.369 . S
C2707 C2709 1.419 . S
C2707 H2711 0.930 . S
C2708 C2707 1.369 . S
C2708 C2717 1.429 . S
C2709 C2707 1.419 . S
C2709 C2710 1.363 . S
C2709 H2712 0.929 . S
C2710 C2709 1.363 . S
C2710 C2716 1.428 . S
H2711 C2707 0.930 . S
H2712 C2709 0.929 . S
S2713 N2714 1.613 . S
S2713 N2715 1.610 . S
N2714 S2713 1.613 . S
N2714 C2717 1.350 . S
N2715 S2713 1.610 . S
N2715 C2716 1.351 . S
C2716 C2710 1.428 . S
C2716 N2715 1.351 . S
C2716 C2717 1.434 . S
C2717 C2708 1.429 . S
C2717 N2714 1.350 . S
C2717 C2716 1.434 . S
C2718 C2719 1.369 . S
C2718 C2720 1.419 . S
C2718 H2722 0.930 . S
C2719 C2718 1.369 . S
C2719 C2728 1.429 . S
C2720 C2718 1.419 . S
C2720 C2721 1.363 . S
C2720 H2723 0.929 . S
C2721 C2720 1.363 . S
C2721 C2727 1.428 . S
H2722 C2718 0.930 . S
H2723 C2720 0.929 . S
S2724 N2725 1.613 . S
S2724 N2726 1.610 . S
N2725 S2724 1.613 . S
N2725 C2728 1.350 . S
N2726 S2724 1.610 . S
N2726 C2727 1.351 . S
C2727 C2721 1.428 . S
C2727 N2726 1.351 . S
C2727 C2728 1.434 . S
C2728 C2719 1.429 . S
C2728 N2725 1.350 . S
C2728 C2727 1.434 . S
C2729 C2730 1.369 . S
C2729 C2731 1.419 . S
C2729 H2733 0.930 . S
C2730 C2729 1.369 . S
C2730 C2739 1.429 . S
C2731 C2729 1.419 . S
C2731 C2732 1.363 . S
C2731 H2734 0.929 . S
C2732 C2731 1.363 . S
C2732 C2738 1.428 . S
H2733 C2729 0.930 . S
H2734 C2731 0.929 . S
S2735 N2736 1.613 . S
S2735 N2737 1.610 . S
N2736 S2735 1.613 . S
N2736 C2739 1.350 . S
N2737 S2735 1.610 . S
N2737 C2738 1.351 . S
C2738 C2732 1.428 . S
C2738 N2737 1.351 . S
C2738 C2739 1.434 . S
C2739 C2730 1.429 . S
C2739 N2736 1.350 . S
C2739 C2738 1.434 . S
C2740 C2741 1.369 . S
C2740 C2742 1.419 . S
C2740 H2744 0.930 . S
C2741 C2740 1.369 . S
C2741 C2750 1.429 . S
C2742 C2740 1.419 . S
C2742 C2743 1.363 . S
C2742 H2745 0.917 1_455 S
C2743 C2742 1.363 . S
C2743 C2749 1.428 . S
H2744 C2740 0.930 . S
H2745 C2742 0.917 1_655 S
S2746 N2747 1.613 . S
S2746 N2748 1.610 . S
N2747 S2746 1.613 . S
N2747 C2750 1.350 . S
N2748 S2746 1.610 . S
N2748 C2749 1.351 . S
C2749 C2743 1.428 . S
C2749 N2748 1.351 . S
C2749 C2750 1.434 . S
C2750 C2741 1.429 . S
C2750 N2747 1.350 . S
C2750 C2749 1.434 . S
C2751 C2752 1.369 . S
C2751 C2753 1.419 . S
C2751 H2755 0.930 . S
C2752 C2751 1.369 . S
C2752 C2761 1.429 . S
C2753 C2751 1.419 . S
C2753 C2754 1.363 . S
C2753 H2756 0.929 . S
C2754 C2753 1.363 . S
C2754 C2760 1.428 . S
H2755 C2751 0.930 . S
H2756 C2753 0.929 . S
S2757 N2758 1.613 . S
S2757 N2759 1.610 . S
N2758 S2757 1.613 . S
N2758 C2761 1.350 . S
N2759 S2757 1.610 . S
N2759 C2760 1.351 . S
C2760 C2754 1.428 . S
C2760 N2759 1.351 . S
C2760 C2761 1.434 . S
C2761 C2752 1.429 . S
C2761 N2758 1.350 . S
C2761 C2760 1.434 . S
C2762 C2763 1.369 . S
C2762 C2764 1.419 . S
C2762 H2766 0.930 . S
C2763 C2762 1.369 . S
C2763 C2772 1.429 1_556 S
C2764 C2762 1.419 . S
C2764 C2765 1.363 1_556 S
C2764 H2767 0.929 . S
C2765 C2764 1.363 1_554 S
C2765 C2771 1.428 . S
H2766 C2762 0.930 . S
H2767 C2764 0.929 . S
S2768 N2769 1.613 . S
S2768 N2770 1.610 . S
N2769 S2768 1.613 . S
N2769 C2772 1.350 . S
N2770 S2768 1.610 . S
N2770 C2771 1.351 . S
C2771 C2765 1.428 . S
C2771 N2770 1.351 . S
C2771 C2772 1.434 . S
C2772 C2763 1.429 1_554 S
C2772 N2769 1.350 . S
C2772 C2771 1.434 . S
C2773 C2774 1.369 . S
C2773 C2775 1.419 . S
C2773 H2777 0.930 . S
C2774 C2773 1.369 . S
C2774 C2783 1.429 . S
C2775 C2773 1.419 . S
C2775 C2776 1.363 . S
C2775 H2778 0.929 . S
C2776 C2775 1.363 . S
C2776 C2782 1.428 . S
H2777 C2773 0.930 . S
H2778 C2775 0.929 . S
S2779 N2780 1.613 . S
S2779 N2781 1.610 . S
N2780 S2779 1.613 . S
N2780 C2783 1.350 . S
N2781 S2779 1.610 . S
N2781 C2782 1.351 . S
C2782 C2776 1.428 . S
C2782 N2781 1.351 . S
C2782 C2783 1.434 . S
C2783 C2774 1.429 . S
C2783 N2780 1.350 . S
C2783 C2782 1.434 . S
C2784 C2785 1.369 1_565 S
C2784 C2786 1.419 . S
C2784 H2788 0.930 . S
C2785 C2784 1.369 1_545 S
C2785 C2794 1.429 . S
C2786 C2784 1.419 . S
C2786 C2787 1.363 1_565 S
C2786 H2789 0.929 . S
C2787 C2786 1.363 1_545 S
C2787 C2793 1.428 . S
H2788 C2784 0.930 . S
H2789 C2786 0.929 . S
S2790 N2791 1.613 . S
S2790 N2792 1.610 . S
N2791 S2790 1.613 . S
N2791 C2794 1.350 . S
N2792 S2790 1.610 . S
N2792 C2793 1.351 . S
C2793 C2787 1.428 . S
C2793 N2792 1.351 . S
C2793 C2794 1.434 . S
C2794 C2785 1.429 . S
C2794 N2791 1.350 . S
C2794 C2793 1.434 . S
C2795 C2796 1.369 . S
C2795 C2797 1.419 . S
C2795 H2799 0.930 . S
C2796 C2795 1.369 . S
C2796 C2805 1.429 . S
C2797 C2795 1.419 . S
C2797 C2798 1.363 . S
C2797 H2800 0.929 . S
C2798 C2797 1.363 . S
C2798 C2804 1.428 . S
H2799 C2795 0.930 . S
H2800 C2797 0.929 . S
S2801 N2802 1.613 . S
S2801 N2803 1.610 . S
N2802 S2801 1.613 . S
N2802 C2805 1.350 . S
N2803 S2801 1.610 . S
N2803 C2804 1.351 . S
C2804 C2798 1.428 . S
C2804 N2803 1.351 . S
C2804 C2805 1.434 . S
C2805 C2796 1.429 . S
C2805 N2802 1.350 . S
C2805 C2804 1.434 . S
C2806 C2807 1.369 . S
C2806 C2808 1.419 . S
C2806 H2810 0.930 . S
C2807 C2806 1.369 . S
C2807 C2816 1.429 . S
C2808 C2806 1.419 . S
C2808 C2809 1.363 . S
C2808 H2811 0.929 . S
C2809 C2808 1.363 . S
C2809 C2815 1.428 . S
H2810 C2806 0.930 . S
H2811 C2808 0.929 . S
S2812 N2813 1.613 . S
S2812 N2814 1.610 . S
N2813 S2812 1.613 . S
N2813 C2816 1.350 1_565 S
N2814 S2812 1.610 . S
N2814 C2815 1.351 1_565 S
C2815 C2809 1.428 . S
C2815 N2814 1.351 1_545 S
C2815 C2816 1.434 . S
C2816 C2807 1.429 . S
C2816 N2813 1.350 1_545 S
C2816 C2815 1.434 . S
C2817 C2818 1.369 . S
C2817 C2819 1.419 . S
C2817 H2821 0.930 . S
C2818 C2817 1.369 . S
C2818 C2827 1.429 . S
C2819 C2817 1.419 . S
C2819 C2820 1.363 . S
C2819 H2822 0.929 . S
C2820 C2819 1.363 . S
C2820 C2826 1.428 . S
H2821 C2817 0.930 . S
H2822 C2819 0.929 . S
S2823 N2824 1.613 . S
S2823 N2825 1.610 . S
N2824 S2823 1.613 . S
N2824 C2827 1.350 . S
N2825 S2823 1.610 . S
N2825 C2826 1.351 . S
C2826 C2820 1.428 . S
C2826 N2825 1.351 . S
C2826 C2827 1.434 . S
C2827 C2818 1.429 . S
C2827 N2824 1.350 . S
C2827 C2826 1.434 . S
C2828 C2829 1.372 . S
C2828 C2830 1.419 . S
C2828 H2832 0.930 . S
C2829 C2828 1.372 . S
C2829 C2838 1.429 . S
C2830 C2828 1.419 . S
C2830 C2831 1.363 . S
C2830 H2833 0.929 . S
C2831 C2830 1.363 . S
C2831 C2837 1.428 . S
H2832 C2828 0.930 . S
H2833 C2830 0.929 . S
S2834 N2835 1.613 . S
S2834 N2836 1.610 . S
N2835 S2834 1.613 . S
N2835 C2838 1.350 . S
N2836 S2834 1.610 . S
N2836 C2837 1.351 . S
C2837 C2831 1.428 . S
C2837 N2836 1.351 . S
C2837 C2838 1.434 . S
C2838 C2829 1.429 . S
C2838 N2835 1.350 . S
C2838 C2837 1.434 . S
C2839 C2840 1.369 . S
C2839 C2841 1.419 . S
C2839 H2843 0.930 . S
C2840 C2839 1.369 . S
C2840 C2849 1.429 . S
C2841 C2839 1.419 . S
C2841 C2842 1.363 . S
C2841 H2844 0.929 . S
C2842 C2841 1.363 . S
C2842 C2848 1.428 . S
H2843 C2839 0.930 . S
H2844 C2841 0.929 . S
S2845 N2846 1.613 . S
S2845 N2847 1.610 . S
N2846 S2845 1.613 . S
N2846 C2849 1.350 . S
N2847 S2845 1.610 . S
N2847 C2848 1.351 . S
C2848 C2842 1.428 . S
C2848 N2847 1.351 . S
C2848 C2849 1.434 . S
C2849 C2840 1.429 . S
C2849 N2846 1.350 . S
C2849 C2848 1.434 . S
C2850 C2851 1.369 1_565 S
C2850 C2852 1.419 . S
C2850 H2854 0.930 . S
C2851 C2850 1.369 1_545 S
C2851 C2860 1.429 . S
C2852 C2850 1.419 . S
C2852 C2853 1.340 1_565 S
C2852 H2855 0.929 . S
C2853 C2852 1.340 1_545 S
C2853 C2859 1.469 . S
H2854 C2850 0.930 . S
H2855 C2852 0.929 . S
S2856 N2857 1.613 . S
S2856 N2858 1.610 . S
N2857 S2856 1.613 . S
N2857 C2860 1.350 . S
N2858 S2856 1.610 . S
N2858 C2859 1.351 . S
C2859 C2853 1.469 . S
C2859 N2858 1.351 . S
C2859 C2860 1.434 . S
C2860 C2851 1.429 . S
C2860 N2857 1.350 . S
C2860 C2859 1.434 . S
C2861 C2862 1.369 . S
C2861 C2863 1.419 . S
C2861 H2865 0.930 . S
C2862 C2861 1.369 . S
C2862 C2871 1.429 . S
C2863 C2861 1.419 . S
C2863 C2864 1.363 . S
C2863 H2866 0.929 . S
C2864 C2863 1.363 . S
C2864 C2870 1.428 . S
H2865 C2861 0.930 . S
H2866 C2863 0.929 . S
S2867 N2868 1.613 . S
S2867 N2869 1.610 . S
N2868 S2867 1.613 . S
N2868 C2871 1.350 . S
N2869 S2867 1.610 . S
N2869 C2870 1.351 . S
C2870 C2864 1.428 . S
C2870 N2869 1.351 . S
C2870 C2871 1.434 . S
C2871 C2862 1.429 . S
C2871 N2868 1.350 . S
C2871 C2870 1.434 . S
C2872 C2873 1.369 . S
C2872 C2874 1.419 . S
C2872 H2876 0.930 . S
C2873 C2872 1.369 . S
C2873 C2882 1.429 . S
C2874 C2872 1.419 . S
C2874 C2875 1.363 . S
C2874 H2877 0.929 . S
C2875 C2874 1.363 . S
C2875 C2881 1.428 . S
H2876 C2872 0.930 . S
H2877 C2874 0.929 . S
S2878 N2879 1.613 . S
S2878 N2880 1.613 . S
N2879 S2878 1.613 . S
N2879 C2882 1.350 . S
N2880 S2878 1.613 . S
N2880 C2881 1.362 . S
C2881 C2875 1.428 . S
C2881 N2880 1.362 . S
C2881 C2882 1.434 . S
C2882 C2873 1.429 . S
C2882 N2879 1.350 . S
C2882 C2881 1.434 . S
C2883 C2884 1.369 . S
C2883 C2885 1.419 . S
C2883 H2887 0.930 . S
C2884 C2883 1.369 . S
C2884 C2893 1.429 . S
C2885 C2883 1.419 . S
C2885 C2886 1.363 . S
C2885 H2888 0.929 . S
C2886 C2885 1.363 . S
C2886 C2892 1.428 . S
H2887 C2883 0.930 . S
H2888 C2885 0.929 . S
S2889 N2890 1.613 . S
S2889 N2891 1.610 . S
N2890 S2889 1.613 . S
N2890 C2893 1.350 . S
N2891 S2889 1.610 . S
N2891 C2892 1.351 . S
C2892 C2886 1.428 . S
C2892 N2891 1.351 . S
C2892 C2893 1.434 . S
C2893 C2884 1.429 . S
C2893 N2890 1.350 . S
C2893 C2892 1.434 . S
C2894 C2895 1.369 . S
C2894 C2896 1.419 . S
C2894 H2898 0.930 . S
C2895 C2894 1.369 . S
C2895 C2904 1.429 . S
C2896 C2894 1.419 . S
C2896 C2897 1.363 . S
C2896 H2899 0.929 . S
C2897 C2896 1.363 . S
C2897 C2903 1.428 . S
H2898 C2894 0.930 . S
H2899 C2896 0.929 . S
S2900 N2901 1.613 . S
S2900 N2902 1.610 . S
N2901 S2900 1.613 . S
N2901 C2904 1.350 . S
N2902 S2900 1.610 . S
N2902 C2903 1.351 . S
C2903 C2897 1.428 . S
C2903 N2902 1.351 . S
C2903 C2904 1.434 . S
C2904 C2895 1.429 . S
C2904 N2901 1.350 . S
C2904 C2903 1.434 . S
C2905 C2906 1.369 . S
C2905 C2907 1.419 . S
C2905 H2909 0.930 . S
C2906 C2905 1.369 . S
C2906 C2915 1.429 . S
C2907 C2905 1.419 . S
C2907 C2908 1.363 . S
C2907 H2910 0.929 . S
C2908 C2907 1.363 . S
C2908 C2914 1.428 . S
H2909 C2905 0.930 . S
H2910 C2907 0.929 . S
S2911 N2912 1.613 . S
S2911 N2913 1.610 . S
N2912 S2911 1.613 . S
N2912 C2915 1.350 . S
N2913 S2911 1.610 . S
N2913 C2914 1.351 . S
C2914 C2908 1.428 . S
C2914 N2913 1.351 . S
C2914 C2915 1.434 . S
C2915 C2906 1.429 . S
C2915 N2912 1.350 . S
C2915 C2914 1.434 . S
C2916 C2917 1.369 . S
C2916 C2918 1.419 . S
C2916 H2920 0.930 . S
C2917 C2916 1.369 . S
C2917 C2926 1.429 . S
C2918 C2916 1.419 . S
C2918 C2919 1.363 . S
C2918 H2921 0.929 . S
C2919 C2918 1.363 . S
C2919 C2925 1.428 . S
H2920 C2916 0.930 . S
H2921 C2918 0.929 . S
S2922 N2923 1.613 . S
S2922 N2924 1.610 . S
N2923 S2922 1.613 . S
N2923 C2926 1.350 . S
N2924 S2922 1.610 . S
N2924 C2925 1.351 . S
C2925 C2919 1.428 . S
C2925 N2924 1.351 . S
C2925 C2926 1.434 . S
C2926 C2917 1.429 . S
C2926 N2923 1.350 . S
C2926 C2925 1.434 . S
C2927 C2928 1.369 . S
C2927 C2929 1.419 . S
C2927 H2931 0.930 . S
C2928 C2927 1.369 . S
C2928 C2937 1.429 . S
C2929 C2927 1.419 . S
C2929 C2930 1.363 . S
C2929 H2932 0.929 . S
C2930 C2929 1.363 . S
C2930 C2936 1.428 . S
H2931 C2927 0.930 . S
H2932 C2929 0.929 . S
S2933 N2934 1.613 . S
S2933 N2935 1.610 . S
N2934 S2933 1.613 . S
N2934 C2937 1.350 . S
N2935 S2933 1.610 . S
N2935 C2936 1.351 . S
C2936 C2930 1.428 . S
C2936 N2935 1.351 . S
C2936 C2937 1.434 . S
C2937 C2928 1.429 . S
C2937 N2934 1.350 . S
C2937 C2936 1.434 . S
C2938 C2939 1.369 . S
C2938 C2940 1.419 . S
C2938 H2942 0.930 . S
C2939 C2938 1.369 . S
C2939 C2948 1.429 . S
C2940 C2938 1.419 . S
C2940 C2941 1.363 . S
C2940 H2943 0.929 . S
C2941 C2940 1.363 . S
C2941 C2947 1.428 . S
H2942 C2938 0.930 . S
H2943 C2940 0.929 . S
S2944 N2945 1.613 . S
S2944 N2946 1.610 . S
N2945 S2944 1.613 . S
N2945 C2948 1.350 . S
N2946 S2944 1.610 . S
N2946 C2947 1.351 . S
C2947 C2941 1.428 . S
C2947 N2946 1.351 . S
C2947 C2948 1.434 . S
C2948 C2939 1.429 . S
C2948 N2945 1.350 . S
C2948 C2947 1.434 . S
C2949 C2950 1.369 . S
C2949 C2951 1.419 . S
C2949 H2953 0.930 . S
C2950 C2949 1.369 . S
C2950 C2959 1.429 . S
C2951 C2949 1.419 . S
C2951 C2952 1.363 . S
C2951 H2954 0.929 . S
C2952 C2951 1.363 . S
C2952 C2958 1.428 . S
H2953 C2949 0.930 . S
H2954 C2951 0.929 . S
S2955 N2956 1.613 . S
S2955 N2957 1.610 . S
N2956 S2955 1.613 . S
N2956 C2959 1.350 . S
N2957 S2955 1.610 . S
N2957 C2958 1.351 . S
C2958 C2952 1.428 . S
C2958 N2957 1.351 . S
C2958 C2959 1.434 . S
C2959 C2950 1.429 . S
C2959 N2956 1.350 . S
C2959 C2958 1.434 . S
C2960 C2961 1.369 . S
C2960 C2962 1.419 . S
C2960 H2964 0.930 . S
C2961 C2960 1.369 . S
C2961 C2970 1.429 . S
C2962 C2960 1.419 . S
C2962 C2963 1.363 . S
C2962 H2965 0.929 . S
C2963 C2962 1.363 . S
C2963 C2969 1.428 . S
H2964 C2960 0.930 . S
H2965 C2962 0.929 . S
S2966 N2967 1.613 . S
S2966 N2968 1.610 . S
N2967 S2966 1.613 . S
N2967 C2970 1.350 . S
N2968 S2966 1.610 . S
N2968 C2969 1.351 . S
C2969 C2963 1.428 . S
C2969 N2968 1.351 . S
C2969 C2970 1.434 . S
C2970 C2961 1.429 . S
C2970 N2967 1.350 . S
C2970 C2969 1.434 . S
C2971 C2972 1.369 . S
C2971 C2973 1.419 . S
C2971 H2975 0.930 . S
C2972 C2971 1.369 . S
C2972 C2981 1.429 . S
C2973 C2971 1.419 . S
C2973 C2974 1.363 . S
C2973 H2976 0.929 . S
C2974 C2973 1.363 . S
C2974 C2980 1.428 . S
H2975 C2971 0.930 . S
H2976 C2973 0.929 . S
S2977 N2978 1.613 . S
S2977 N2979 1.610 . S
N2978 S2977 1.613 . S
N2978 C2981 1.350 . S
N2979 S2977 1.610 . S
N2979 C2980 1.351 . S
C2980 C2974 1.428 . S
C2980 N2979 1.351 . S
C2980 C2981 1.434 . S
C2981 C2972 1.429 . S
C2981 N2978 1.350 . S
C2981 C2980 1.434 . S
C2982 C2983 1.369 1_655 S
C2982 C2984 1.419 . S
C2982 H2986 0.930 . S
C2983 C2982 1.369 1_455 S
C2983 C2992 1.429 . S
C2984 C2982 1.419 . S
C2984 C2985 1.363 1_655 S
C2984 H2987 0.929 . S
C2985 C2984 1.363 1_455 S
C2985 C2991 1.427 1_556 S
H2986 C2982 0.930 . S
H2987 C2984 0.929 . S
S2988 N2989 1.613 1_554 S
S2988 N2990 1.610 . S
N2989 S2988 1.613 1_556 S
N2989 C2992 1.350 . S
N2990 S2988 1.610 . S
N2990 C2991 1.357 . S
C2991 C2985 1.427 1_554 S
C2991 N2990 1.357 . S
C2991 C2992 1.430 1_554 S
C2992 C2983 1.429 . S
C2992 N2989 1.350 . S
C2992 C2991 1.430 1_556 S
C2993 C2994 1.369 . S
C2993 C2995 1.419 . S
C2993 H2997 0.930 . S
C2994 C2993 1.369 . S
C2994 C3003 1.429 . S
C2995 C2993 1.419 . S
C2995 C2996 1.363 . S
C2995 H2998 0.929 . S
C2996 C2995 1.363 . S
C2996 C3002 1.428 . S
H2997 C2993 0.930 . S
H2998 C2995 0.929 . S
S2999 N3000 1.613 . S
S2999 N3001 1.610 . S
N3000 S2999 1.613 . S
N3000 C3003 1.350 . S
N3001 S2999 1.610 . S
N3001 C3002 1.351 . S
C3002 C2996 1.428 . S
C3002 N3001 1.351 . S
C3002 C3003 1.434 . S
C3003 C2994 1.429 . S
C3003 N3000 1.350 . S
C3003 C3002 1.434 . S
C3004 C3005 1.369 . S
C3004 C3006 1.419 . S
C3004 H3008 0.930 . S
C3005 C3004 1.369 . S
C3005 C3014 1.429 . S
C3006 C3004 1.419 . S
C3006 C3007 1.363 . S
C3006 H3009 0.929 . S
C3007 C3006 1.363 . S
C3007 C3013 1.428 . S
H3008 C3004 0.930 . S
H3009 C3006 0.929 . S
S3010 N3011 1.613 . S
S3010 N3012 1.610 . S
N3011 S3010 1.613 . S
N3011 C3014 1.350 . S
N3012 S3010 1.610 . S
N3012 C3013 1.351 . S
C3013 C3007 1.428 . S
C3013 N3012 1.351 . S
C3013 C3014 1.434 . S
C3014 C3005 1.429 . S
C3014 N3011 1.350 . S
C3014 C3013 1.434 . S
C3015 C3016 1.369 . S
C3015 C3017 1.419 . S
C3015 H3019 0.930 . S
C3016 C3015 1.369 . S
C3016 C3025 1.429 . S
C3017 C3015 1.419 . S
C3017 C3018 1.363 . S
C3017 H3020 0.929 . S
C3018 C3017 1.363 . S
C3018 C3024 1.428 . S
H3019 C3015 0.930 . S
H3020 C3017 0.929 . S
S3021 N3022 1.613 . S
S3021 N3023 1.610 . S
N3022 S3021 1.613 . S
N3022 C3025 1.350 . S
N3023 S3021 1.610 . S
N3023 C3024 1.351 . S
C3024 C3018 1.428 . S
C3024 N3023 1.351 . S
C3024 C3025 1.434 . S
C3025 C3016 1.429 . S
C3025 N3022 1.350 . S
C3025 C3024 1.434 . S
C3026 C3027 1.369 1_455 S
C3026 C3028 1.419 . S
C3026 H3030 0.930 . S
C3027 C3026 1.369 1_655 S
C3027 C3036 1.429 . S
C3028 C3026 1.419 . S
C3028 C3029 1.363 . S
C3028 H3031 0.929 . S
C3029 C3028 1.363 . S
C3029 C3035 1.428 1_455 S
H3030 C3026 0.930 . S
H3031 C3028 0.929 . S
S3032 N3033 1.613 . S
S3032 N3034 1.610 . S
N3033 S3032 1.613 . S
N3033 C3036 1.350 . S
N3034 S3032 1.610 . S
N3034 C3035 1.351 . S
C3035 C3029 1.428 1_655 S
C3035 N3034 1.351 . S
C3035 C3036 1.434 . S
C3036 C3027 1.429 . S
C3036 N3033 1.350 . S
C3036 C3035 1.434 . S
C3037 C3038 1.369 . S
C3037 C3039 1.419 . S
C3037 H3041 0.930 . S
C3038 C3037 1.369 . S
C3038 C3047 1.429 . S
C3039 C3037 1.419 . S
C3039 C3040 1.363 . S
C3039 H3042 0.929 . S
C3040 C3039 1.363 . S
C3040 C3046 1.428 . S
H3041 C3037 0.930 . S
H3042 C3039 0.929 . S
S3043 N3044 1.613 . S
S3043 N3045 1.610 . S
N3044 S3043 1.613 . S
N3044 C3047 1.350 . S
N3045 S3043 1.610 . S
N3045 C3046 1.351 . S
C3046 C3040 1.428 . S
C3046 N3045 1.351 . S
C3046 C3047 1.434 . S
C3047 C3038 1.429 . S
C3047 N3044 1.350 . S
C3047 C3046 1.434 . S
C3048 C3049 1.369 . S
C3048 C3050 1.419 . S
C3048 H3052 0.930 . S
C3049 C3048 1.369 . S
C3049 C3058 1.429 . S
C3050 C3048 1.419 . S
C3050 C3051 1.363 . S
C3050 H3053 0.929 . S
C3051 C3050 1.363 . S
C3051 C3057 1.428 . S
H3052 C3048 0.930 . S
H3053 C3050 0.929 . S
S3054 N3055 1.613 . S
S3054 N3056 1.610 . S
N3055 S3054 1.613 . S
N3055 C3058 1.350 . S
N3056 S3054 1.610 . S
N3056 C3057 1.351 . S
C3057 C3051 1.428 . S
C3057 N3056 1.351 . S
C3057 C3058 1.434 . S
C3058 C3049 1.429 . S
C3058 N3055 1.350 . S
C3058 C3057 1.434 . S
C3059 C3060 1.369 . S
C3059 C3061 1.419 . S
C3059 H3063 0.930 . S
C3060 C3059 1.369 . S
C3060 C3069 1.429 . S
C3061 C3059 1.419 . S
C3061 C3062 1.363 . S
C3061 H3064 0.929 . S
C3062 C3061 1.363 . S
C3062 C3068 1.428 . S
H3063 C3059 0.930 . S
H3064 C3061 0.929 . S
S3065 N3066 1.613 . S
S3065 N3067 1.610 . S
N3066 S3065 1.613 . S
N3066 C3069 1.350 . S
N3067 S3065 1.610 . S
N3067 C3068 1.351 . S
C3068 C3062 1.428 . S
C3068 N3067 1.351 . S
C3068 C3069 1.434 . S
C3069 C3060 1.429 . S
C3069 N3066 1.350 . S
C3069 C3068 1.434 . S
C3070 C3071 1.369 . S
C3070 C3072 1.419 . S
C3070 H3074 0.930 . S
C3071 C3070 1.369 . S
C3071 C3080 1.429 . S
C3072 C3070 1.419 . S
C3072 C3073 1.363 . S
C3072 H3075 0.929 . S
C3073 C3072 1.363 . S
C3073 C3079 1.428 . S
H3074 C3070 0.930 . S
H3075 C3072 0.929 . S
S3076 N3077 1.613 . S
S3076 N3078 1.610 . S
N3077 S3076 1.613 . S
N3077 C3080 1.350 . S
N3078 S3076 1.610 . S
N3078 C3079 1.351 . S
C3079 C3073 1.428 . S
C3079 N3078 1.351 . S
C3079 C3080 1.434 . S
C3080 C3071 1.429 . S
C3080 N3077 1.350 . S
C3080 C3079 1.434 . S
C3081 C3082 1.369 . S
C3081 C3083 1.419 . S
C3081 H3085 0.930 . S
C3082 C3081 1.369 . S
C3082 C3091 1.429 . S
C3083 C3081 1.419 . S
C3083 C3084 1.363 . S
C3083 H3086 0.929 . S
C3084 C3083 1.363 . S
C3084 C3090 1.428 . S
H3085 C3081 0.930 . S
H3086 C3083 0.929 . S
S3087 N3088 1.613 . S
S3087 N3089 1.610 . S
N3088 S3087 1.613 . S
N3088 C3091 1.350 . S
N3089 S3087 1.610 . S
N3089 C3090 1.351 . S
C3090 C3084 1.428 . S
C3090 N3089 1.351 . S
C3090 C3091 1.434 . S
C3091 C3082 1.429 . S
C3091 N3088 1.350 . S
C3091 C3090 1.434 . S
C3092 C3093 1.369 . S
C3092 C3094 1.419 . S
C3092 H3096 0.930 . S
C3093 C3092 1.369 . S
C3093 C3102 1.429 . S
C3094 C3092 1.419 . S
C3094 C3095 1.363 . S
C3094 H3097 0.929 . S
C3095 C3094 1.363 . S
C3095 C3101 1.428 . S
H3096 C3092 0.930 . S
H3097 C3094 0.929 . S
S3098 N3099 1.613 . S
S3098 N3100 1.610 . S
N3099 S3098 1.613 . S
N3099 C3102 1.350 . S
N3100 S3098 1.610 . S
N3100 C3101 1.351 . S
C3101 C3095 1.428 . S
C3101 N3100 1.351 . S
C3101 C3102 1.434 . S
C3102 C3093 1.429 . S
C3102 N3099 1.350 . S
C3102 C3101 1.434 . S
C3103 C3104 1.369 . S
C3103 C3105 1.419 . S
C3103 H3107 0.930 . S
C3104 C3103 1.369 . S
C3104 C3113 1.429 . S
C3105 C3103 1.419 . S
C3105 C3106 1.363 . S
C3105 H3108 0.929 . S
C3106 C3105 1.363 . S
C3106 C3112 1.428 . S
H3107 C3103 0.930 . S
H3108 C3105 0.929 . S
S3109 N3110 1.613 . S
S3109 N3111 1.610 . S
N3110 S3109 1.613 . S
N3110 C3113 1.350 . S
N3111 S3109 1.610 . S
N3111 C3112 1.351 . S
C3112 C3106 1.428 . S
C3112 N3111 1.351 . S
C3112 C3113 1.434 . S
C3113 C3104 1.429 . S
C3113 N3110 1.350 . S
C3113 C3112 1.434 . S
C3114 C3115 1.369 . S
C3114 C3116 1.419 . S
C3114 H3118 0.930 . S
C3115 C3114 1.369 . S
C3115 C3124 1.429 . S
C3116 C3114 1.419 . S
C3116 C3117 1.363 . S
C3116 H3119 0.929 . S
C3117 C3116 1.363 . S
C3117 C3123 1.428 . S
H3118 C3114 0.930 . S
H3119 C3116 0.929 . S
S3120 N3121 1.613 . S
S3120 N3122 1.610 . S
N3121 S3120 1.613 . S
N3121 C3124 1.350 . S
N3122 S3120 1.610 . S
N3122 C3123 1.351 . S
C3123 C3117 1.428 . S
C3123 N3122 1.351 . S
C3123 C3124 1.434 . S
C3124 C3115 1.429 . S
C3124 N3121 1.350 . S
C3124 C3123 1.434 . S
C3125 C3126 1.369 . S
C3125 C3127 1.419 . S
C3125 H3129 0.930 . S
C3126 C3125 1.369 . S
C3126 C3135 1.429 . S
C3127 C3125 1.419 . S
C3127 C3128 1.363 . S
C3127 H3130 0.929 . S
C3128 C3127 1.363 . S
C3128 C3134 1.428 . S
H3129 C3125 0.930 . S
H3130 C3127 0.929 . S
S3131 N3132 1.613 . S
S3131 N3133 1.610 . S
N3132 S3131 1.613 . S
N3132 C3135 1.350 . S
N3133 S3131 1.610 . S
N3133 C3134 1.351 . S
C3134 C3128 1.428 . S
C3134 N3133 1.351 . S
C3134 C3135 1.434 . S
C3135 C3126 1.429 . S
C3135 N3132 1.350 . S
C3135 C3134 1.434 . S
C3136 C3137 1.369 . S
C3136 C3138 1.419 . S
C3136 H3140 0.930 . S
C3137 C3136 1.369 . S
C3137 C3146 1.429 . S
C3138 C3136 1.419 . S
C3138 C3139 1.363 . S
C3138 H3141 0.929 . S
C3139 C3138 1.363 . S
C3139 C3145 1.428 . S
H3140 C3136 0.930 . S
H3141 C3138 0.929 . S
S3142 N3143 1.613 . S
S3142 N3144 1.610 . S
N3143 S3142 1.613 . S
N3143 C3146 1.350 . S
N3144 S3142 1.610 . S
N3144 C3145 1.351 . S
C3145 C3139 1.428 . S
C3145 N3144 1.351 . S
C3145 C3146 1.434 . S
C3146 C3137 1.429 . S
C3146 N3143 1.350 . S
C3146 C3145 1.434 . S
C3147 C3148 1.369 . S
C3147 C3149 1.419 . S
C3147 H3151 0.930 . S
C3148 C3147 1.369 . S
C3148 C3157 1.429 . S
C3149 C3147 1.419 . S
C3149 C3150 1.363 . S
C3149 H3152 0.929 . S
C3150 C3149 1.363 . S
C3150 C3156 1.428 . S
H3151 C3147 0.930 . S
H3152 C3149 0.929 . S
S3153 N3154 1.613 . S
S3153 N3155 1.610 . S
N3154 S3153 1.613 . S
N3154 C3157 1.350 . S
N3155 S3153 1.610 . S
N3155 C3156 1.351 . S
C3156 C3150 1.428 . S
C3156 N3155 1.351 . S
C3156 C3157 1.434 . S
C3157 C3148 1.429 . S
C3157 N3154 1.350 . S
C3157 C3156 1.434 . S
C3158 C3159 1.369 . S
C3158 C3160 1.419 . S
C3158 H3162 0.930 . S
C3159 C3158 1.369 . S
C3159 C3168 1.429 . S
C3160 C3158 1.419 . S
C3160 C3161 1.363 . S
C3160 H3163 0.929 . S
C3161 C3160 1.363 . S
C3161 C3167 1.428 . S
H3162 C3158 0.930 . S
H3163 C3160 0.929 . S
S3164 N3165 1.613 . S
S3164 N3166 1.610 . S
N3165 S3164 1.613 . S
N3165 C3168 1.350 . S
N3166 S3164 1.610 . S
N3166 C3167 1.351 . S
C3167 C3161 1.428 . S
C3167 N3166 1.351 . S
C3167 C3168 1.434 . S
C3168 C3159 1.429 . S
C3168 N3165 1.350 . S
C3168 C3167 1.434 . S
C3169 C3170 1.369 . S
C3169 C3171 1.419 . S
C3169 H3173 0.930 1_554 S
C3170 C3169 1.369 . S
C3170 C3179 1.429 . S
C3171 C3169 1.419 . S
C3171 C3172 1.363 . S
C3171 H3174 0.929 1_554 S
C3172 C3171 1.363 . S
C3172 C3178 1.428 . S
H3173 C3169 0.930 1_556 S
H3174 C3171 0.929 1_556 S
S3175 N3176 1.613 . S
S3175 N3177 1.610 . S
N3176 S3175 1.613 . S
N3176 C3179 1.350 . S
N3177 S3175 1.610 . S
N3177 C3178 1.351 . S
C3178 C3172 1.428 . S
C3178 N3177 1.351 . S
C3178 C3179 1.434 . S
C3179 C3170 1.429 . S
C3179 N3176 1.350 . S
C3179 C3178 1.434 . S
C3180 C3181 1.369 . S
C3180 C3182 1.419 . S
C3180 H3184 0.930 . S
C3181 C3180 1.369 . S
C3181 C3190 1.429 . S
C3182 C3180 1.419 . S
C3182 C3183 1.363 . S
C3182 H3185 0.929 . S
C3183 C3182 1.363 . S
C3183 C3189 1.428 . S
H3184 C3180 0.930 . S
H3185 C3182 0.929 . S
S3186 N3187 1.613 . S
S3186 N3188 1.610 . S
N3187 S3186 1.613 . S
N3187 C3190 1.350 . S
N3188 S3186 1.610 . S
N3188 C3189 1.351 . S
C3189 C3183 1.428 . S
C3189 N3188 1.351 . S
C3189 C3190 1.434 . S
C3190 C3181 1.429 . S
C3190 N3187 1.350 . S
C3190 C3189 1.434 . S
C3191 C3192 1.369 . S
C3191 C3193 1.419 . S
C3191 H3195 0.930 . S
C3192 C3191 1.369 . S
C3192 C3201 1.429 1_554 S
C3193 C3191 1.419 . S
C3193 C3194 1.363 . S
C3193 H3196 0.929 . S
C3194 C3193 1.363 . S
C3194 C3200 1.428 . S
H3195 C3191 0.930 . S
H3196 C3193 0.929 . S
S3197 N3198 1.613 . S
S3197 N3199 1.610 . S
N3198 S3197 1.613 . S
N3198 C3201 1.350 . S
N3199 S3197 1.610 . S
N3199 C3200 1.351 1_556 S
C3200 C3194 1.428 . S
C3200 N3199 1.351 1_554 S
C3200 C3201 1.434 1_554 S
C3201 C3192 1.429 1_556 S
C3201 N3198 1.350 . S
C3201 C3200 1.434 1_556 S
C3202 C3203 1.369 . S
C3202 C3204 1.419 . S
C3202 H3206 0.930 . S
C3203 C3202 1.369 . S
C3203 C3212 1.429 . S
C3204 C3202 1.419 . S
C3204 C3205 1.363 . S
C3204 H3207 0.929 . S
C3205 C3204 1.363 . S
C3205 C3211 1.428 . S
H3206 C3202 0.930 . S
H3207 C3204 0.929 . S
S3208 N3209 1.613 . S
S3208 N3210 1.610 . S
N3209 S3208 1.613 . S
N3209 C3212 1.350 . S
N3210 S3208 1.610 . S
N3210 C3211 1.351 . S
C3211 C3205 1.428 . S
C3211 N3210 1.351 . S
C3211 C3212 1.434 . S
C3212 C3203 1.429 . S
C3212 N3209 1.350 . S
C3212 C3211 1.434 . S
C3213 C3214 1.369 . S
C3213 C3215 1.419 . S
C3213 H3217 0.930 . S
C3214 C3213 1.369 . S
C3214 C3223 1.429 . S
C3215 C3213 1.419 . S
C3215 C3216 1.363 . S
C3215 H3218 0.929 . S
C3216 C3215 1.363 . S
C3216 C3222 1.428 . S
H3217 C3213 0.930 . S
H3218 C3215 0.929 . S
S3219 N3220 1.613 . S
S3219 N3221 1.610 . S
N3220 S3219 1.613 . S
N3220 C3223 1.350 . S
N3221 S3219 1.610 . S
N3221 C3222 1.351 . S
C3222 C3216 1.428 . S
C3222 N3221 1.351 . S
C3222 C3223 1.434 . S
C3223 C3214 1.429 . S
C3223 N3220 1.350 . S
C3223 C3222 1.434 . S
C3224 C3225 1.369 . S
C3224 C3226 1.419 . S
C3224 H3228 0.930 . S
C3225 C3224 1.369 . S
C3225 C3234 1.429 . S
C3226 C3224 1.419 . S
C3226 C3227 1.363 . S
C3226 H3229 0.929 . S
C3227 C3226 1.363 . S
C3227 C3233 1.428 . S
H3228 C3224 0.930 . S
H3229 C3226 0.929 . S
S3230 N3231 1.613 . S
S3230 N3232 1.610 . S
N3231 S3230 1.613 . S
N3231 C3234 1.350 . S
N3232 S3230 1.610 . S
N3232 C3233 1.351 . S
C3233 C3227 1.428 . S
C3233 N3232 1.351 . S
C3233 C3234 1.434 . S
C3234 C3225 1.429 . S
C3234 N3231 1.350 . S
C3234 C3233 1.434 . S
C3235 C3236 1.369 . S
C3235 C3237 1.419 . S
C3235 H3239 0.930 . S
C3236 C3235 1.369 . S
C3236 C3245 1.429 . S
C3237 C3235 1.419 . S
C3237 C3238 1.363 . S
C3237 H3240 0.929 . S
C3238 C3237 1.363 . S
C3238 C3244 1.428 . S
H3239 C3235 0.930 . S
H3240 C3237 0.929 . S
S3241 N3242 1.613 . S
S3241 N3243 1.610 . S
N3242 S3241 1.613 . S
N3242 C3245 1.350 . S
N3243 S3241 1.610 . S
N3243 C3244 1.351 . S
C3244 C3238 1.428 . S
C3244 N3243 1.351 . S
C3244 C3245 1.434 . S
C3245 C3236 1.429 . S
C3245 N3242 1.350 . S
C3245 C3244 1.434 . S
C3246 C3247 1.369 . S
C3246 C3248 1.419 . S
C3246 H3250 0.930 1_455 S
C3247 C3246 1.369 . S
C3247 C3256 1.429 . S
C3248 C3246 1.419 . S
C3248 C3249 1.363 . S
C3248 H3251 0.918 1_455 S
C3249 C3248 1.363 . S
C3249 C3255 1.428 . S
H3250 C3246 0.930 1_655 S
H3251 C3248 0.918 1_655 S
S3252 N3253 1.613 . S
S3252 N3254 1.610 . S
N3253 S3252 1.613 . S
N3253 C3256 1.350 . S
N3254 S3252 1.610 . S
N3254 C3255 1.351 . S
C3255 C3249 1.428 . S
C3255 N3254 1.351 . S
C3255 C3256 1.434 . S
C3256 C3247 1.429 . S
C3256 N3253 1.350 . S
C3256 C3255 1.434 . S
C3257 C3258 1.369 . S
C3257 C3259 1.419 . S
C3257 H3261 0.930 . S
C3258 C3257 1.369 . S
C3258 C3267 1.429 . S
C3259 C3257 1.419 . S
C3259 C3260 1.363 . S
C3259 H3262 0.929 . S
C3260 C3259 1.363 . S
C3260 C3266 1.428 . S
H3261 C3257 0.930 . S
H3262 C3259 0.929 . S
S3263 N3264 1.613 . S
S3263 N3265 1.610 . S
N3264 S3263 1.613 . S
N3264 C3267 1.350 . S
N3265 S3263 1.610 . S
N3265 C3266 1.351 . S
C3266 C3260 1.428 . S
C3266 N3265 1.351 . S
C3266 C3267 1.434 . S
C3267 C3258 1.429 . S
C3267 N3264 1.350 . S
C3267 C3266 1.434 . S
C3268 C3269 1.369 . S
C3268 C3270 1.419 . S
C3268 H3272 0.930 . S
C3269 C3268 1.369 . S
C3269 C3278 1.429 . S
C3270 C3268 1.419 . S
C3270 C3271 1.363 . S
C3270 H3273 0.929 . S
C3271 C3270 1.363 . S
C3271 C3277 1.428 . S
H3272 C3268 0.930 . S
H3273 C3270 0.929 . S
S3274 N3275 1.613 . S
S3274 N3276 1.610 . S
N3275 S3274 1.613 . S
N3275 C3278 1.350 . S
N3276 S3274 1.610 . S
N3276 C3277 1.351 . S
C3277 C3271 1.428 . S
C3277 N3276 1.351 . S
C3277 C3278 1.434 . S
C3278 C3269 1.429 . S
C3278 N3275 1.350 . S
C3278 C3277 1.434 . S
C3279 C3280 1.369 . S
C3279 C3281 1.419 . S
C3279 H3283 0.930 . S
C3280 C3279 1.369 . S
C3280 C3289 1.429 . S
C3281 C3279 1.419 . S
C3281 C3282 1.363 . S
C3281 H3284 0.929 . S
C3282 C3281 1.363 . S
C3282 C3288 1.428 . S
H3283 C3279 0.930 . S
H3284 C3281 0.929 . S
S3285 N3286 1.613 . S
S3285 N3287 1.610 . S
N3286 S3285 1.613 . S
N3286 C3289 1.350 . S
N3287 S3285 1.610 . S
N3287 C3288 1.351 . S
C3288 C3282 1.428 . S
C3288 N3287 1.351 . S
C3288 C3289 1.434 . S
C3289 C3280 1.429 . S
C3289 N3286 1.350 . S
C3289 C3288 1.434 . S
C3290 C3291 1.369 . S
C3290 C3292 1.419 . S
C3290 H3294 0.930 . S
C3291 C3290 1.369 . S
C3291 C3300 1.429 . S
C3292 C3290 1.419 . S
C3292 C3293 1.363 . S
C3292 H3295 0.929 . S
C3293 C3292 1.363 . S
C3293 C3299 1.428 . S
H3294 C3290 0.930 . S
H3295 C3292 0.929 . S
S3296 N3297 1.613 1_655 S
S3296 N3298 1.610 . S
N3297 S3296 1.613 1_455 S
N3297 C3300 1.350 . S
N3298 S3296 1.610 . S
N3298 C3299 1.351 1_655 S
C3299 C3293 1.428 . S
C3299 N3298 1.351 1_455 S
C3299 C3300 1.434 . S
C3300 C3291 1.429 . S
C3300 N3297 1.350 . S
C3300 C3299 1.434 . S
C3301 C3302 1.369 . S
C3301 C3303 1.419 . S
C3301 H3305 0.930 . S
C3302 C3301 1.369 . S
C3302 C3311 1.429 . S
C3303 C3301 1.419 . S
C3303 C3304 1.363 . S
C3303 H3306 0.929 . S
C3304 C3303 1.363 . S
C3304 C3310 1.428 . S
H3305 C3301 0.930 . S
H3306 C3303 0.929 . S
S3307 N3308 1.613 . S
S3307 N3309 1.610 . S
N3308 S3307 1.613 . S
N3308 C3311 1.350 . S
N3309 S3307 1.610 . S
N3309 C3310 1.351 . S
C3310 C3304 1.428 . S
C3310 N3309 1.351 . S
C3310 C3311 1.434 . S
C3311 C3302 1.429 . S
C3311 N3308 1.350 . S
C3311 C3310 1.434 . S
C3312 C3313 1.369 . S
C3312 C3314 1.419 . S
C3312 H3316 0.930 . S
C3313 C3312 1.369 . S
C3313 C3322 1.429 . S
C3314 C3312 1.419 . S
C3314 C3315 1.363 . S
C3314 H3317 0.929 . S
C3315 C3314 1.363 . S
C3315 C3321 1.428 . S
H3316 C3312 0.930 . S
H3317 C3314 0.929 . S
S3318 N3319 1.613 . S
S3318 N3320 1.610 . S
N3319 S3318 1.613 . S
N3319 C3322 1.350 . S
N3320 S3318 1.610 . S
N3320 C3321 1.351 . S
C3321 C3315 1.428 . S
C3321 N3320 1.351 . S
C3321 C3322 1.434 . S
C3322 C3313 1.429 . S
C3322 N3319 1.350 . S
C3322 C3321 1.434 . S
C3323 C3324 1.369 . S
C3323 C3325 1.419 . S
C3323 H3327 0.930 . S
C3324 C3323 1.369 . S
C3324 C3333 1.429 . S
C3325 C3323 1.419 . S
C3325 C3326 1.363 . S
C3325 H3328 0.929 . S
C3326 C3325 1.363 . S
C3326 C3332 1.428 . S
H3327 C3323 0.930 . S
H3328 C3325 0.929 . S
S3329 N3330 1.613 . S
S3329 N3331 1.610 . S
N3330 S3329 1.613 . S
N3330 C3333 1.350 . S
N3331 S3329 1.610 . S
N3331 C3332 1.351 . S
C3332 C3326 1.428 . S
C3332 N3331 1.351 . S
C3332 C3333 1.434 . S
C3333 C3324 1.429 . S
C3333 N3330 1.350 . S
C3333 C3332 1.434 . S
C3334 C3335 1.349 1_455 S
C3334 C3336 1.425 . S
C3334 H3338 0.946 . S
C3335 C3334 1.349 1_655 S
C3335 C3344 1.429 . S
C3336 C3334 1.425 . S
C3336 C3337 1.363 1_455 S
C3336 H3339 0.929 . S
C3337 C3336 1.363 1_655 S
C3337 C3343 1.428 . S
H3338 C3334 0.946 . S
H3339 C3336 0.929 . S
S3340 N3341 1.613 . S
S3340 N3342 1.610 . S
N3341 S3340 1.613 . S
N3341 C3344 1.350 . S
N3342 S3340 1.610 . S
N3342 C3343 1.351 . S
C3343 C3337 1.428 . S
C3343 N3342 1.351 . S
C3343 C3344 1.434 . S
C3344 C3335 1.429 . S
C3344 N3341 1.350 . S
C3344 C3343 1.434 . S
C3345 C3346 1.369 . S
C3345 C3347 1.419 . S
C3345 H3349 0.930 . S
C3346 C3345 1.369 . S
C3346 C3355 1.429 . S
C3347 C3345 1.419 . S
C3347 C3348 1.363 . S
C3347 H3350 0.929 . S
C3348 C3347 1.363 . S
C3348 C3354 1.428 . S
H3349 C3345 0.930 . S
H3350 C3347 0.929 . S
S3351 N3352 1.613 . S
S3351 N3353 1.610 . S
N3352 S3351 1.613 . S
N3352 C3355 1.350 . S
N3353 S3351 1.610 . S
N3353 C3354 1.351 . S
C3354 C3348 1.428 . S
C3354 N3353 1.351 . S
C3354 C3355 1.434 . S
C3355 C3346 1.429 . S
C3355 N3352 1.350 . S
C3355 C3354 1.434 . S
C3356 C3357 1.369 . S
C3356 C3358 1.419 . S
C3356 H3360 0.930 . S
C3357 C3356 1.369 . S
C3357 C3366 1.429 . S
C3358 C3356 1.419 . S
C3358 C3359 1.363 . S
C3358 H3361 0.929 . S
C3359 C3358 1.363 . S
C3359 C3365 1.428 . S
H3360 C3356 0.930 . S
H3361 C3358 0.929 . S
S3362 N3363 1.613 . S
S3362 N3364 1.610 . S
N3363 S3362 1.613 . S
N3363 C3366 1.350 . S
N3364 S3362 1.610 . S
N3364 C3365 1.351 . S
C3365 C3359 1.428 . S
C3365 N3364 1.351 . S
C3365 C3366 1.434 . S
C3366 C3357 1.429 . S
C3366 N3363 1.350 . S
C3366 C3365 1.434 . S
C3367 C3368 1.369 . S
C3367 C3369 1.419 . S
C3367 H3371 0.930 . S
C3368 C3367 1.369 . S
C3368 C3377 1.429 . S
C3369 C3367 1.419 . S
C3369 C3370 1.363 . S
C3369 H3372 0.929 . S
C3370 C3369 1.363 . S
C3370 C3376 1.428 . S
H3371 C3367 0.930 . S
H3372 C3369 0.929 . S
S3373 N3374 1.613 . S
S3373 N3375 1.610 . S
N3374 S3373 1.613 . S
N3374 C3377 1.350 . S
N3375 S3373 1.610 . S
N3375 C3376 1.351 . S
C3376 C3370 1.428 . S
C3376 N3375 1.351 . S
C3376 C3377 1.434 . S
C3377 C3368 1.429 . S
C3377 N3374 1.350 . S
C3377 C3376 1.434 . S
C3378 C3379 1.369 . S
C3378 C3380 1.419 . S
C3378 H3382 0.930 1_655 S
C3379 C3378 1.369 . S
C3379 C3388 1.429 . S
C3380 C3378 1.419 . S
C3380 C3381 1.363 . S
C3380 H3383 0.929 1_655 S
C3381 C3380 1.363 . S
C3381 C3387 1.428 . S
H3382 C3378 0.930 1_455 S
H3383 C3380 0.929 1_455 S
S3384 N3385 1.613 . S
S3384 N3386 1.610 . S
N3385 S3384 1.613 . S
N3385 C3388 1.350 . S
N3386 S3384 1.610 . S
N3386 C3387 1.351 . S
C3387 C3381 1.428 . S
C3387 N3386 1.351 . S
C3387 C3388 1.434 . S
C3388 C3379 1.429 . S
C3388 N3385 1.350 . S
C3388 C3387 1.434 . S
C3389 C3390 1.369 . S
C3389 C3391 1.419 . S
C3389 H3393 0.930 . S
C3390 C3389 1.369 . S
C3390 C3399 1.429 . S
C3391 C3389 1.419 . S
C3391 C3392 1.363 . S
C3391 H3394 0.929 . S
C3392 C3391 1.363 . S
C3392 C3398 1.428 . S
H3393 C3389 0.930 . S
H3394 C3391 0.929 . S
S3395 N3396 1.613 . S
S3395 N3397 1.610 . S
N3396 S3395 1.613 . S
N3396 C3399 1.350 . S
N3397 S3395 1.610 . S
N3397 C3398 1.351 . S
C3398 C3392 1.428 . S
C3398 N3397 1.351 . S
C3398 C3399 1.434 . S
C3399 C3390 1.429 . S
C3399 N3396 1.350 . S
C3399 C3398 1.434 . S
C3400 C3401 1.369 . S
C3400 C3402 1.419 . S
C3400 H3404 0.930 . S
C3401 C3400 1.369 . S
C3401 C3410 1.429 . S
C3402 C3400 1.419 . S
C3402 C3403 1.363 . S
C3402 H3405 0.929 . S
C3403 C3402 1.363 . S
C3403 C3409 1.428 . S
H3404 C3400 0.930 . S
H3405 C3402 0.929 . S
S3406 N3407 1.613 . S
S3406 N3408 1.610 . S
N3407 S3406 1.613 . S
N3407 C3410 1.350 . S
N3408 S3406 1.610 . S
N3408 C3409 1.351 . S
C3409 C3403 1.428 . S
C3409 N3408 1.351 . S
C3409 C3410 1.434 . S
C3410 C3401 1.429 . S
C3410 N3407 1.350 . S
C3410 C3409 1.434 . S
C3411 C3412 1.369 . S
C3411 C3413 1.419 . S
C3411 H3415 0.930 . S
C3412 C3411 1.369 . S
C3412 C3421 1.429 . S
C3413 C3411 1.419 . S
C3413 C3414 1.363 . S
C3413 H3416 0.929 . S
C3414 C3413 1.363 . S
C3414 C3420 1.428 . S
H3415 C3411 0.930 . S
H3416 C3413 0.929 . S
S3417 N3418 1.613 . S
S3417 N3419 1.610 . S
N3418 S3417 1.613 . S
N3418 C3421 1.350 . S
N3419 S3417 1.610 . S
N3419 C3420 1.351 . S
C3420 C3414 1.428 . S
C3420 N3419 1.351 . S
C3420 C3421 1.434 . S
C3421 C3412 1.429 . S
C3421 N3418 1.350 . S
C3421 C3420 1.434 . S
C3422 C3423 1.369 . S
C3422 C3424 1.419 . S
C3422 H3426 0.930 . S
C3423 C3422 1.369 . S
C3423 C3432 1.429 . S
C3424 C3422 1.419 . S
C3424 C3425 1.363 . S
C3424 H3427 0.929 . S
C3425 C3424 1.363 . S
C3425 C3431 1.428 . S
H3426 C3422 0.930 . S
H3427 C3424 0.929 . S
S3428 N3429 1.613 . S
S3428 N3430 1.610 . S
N3429 S3428 1.613 . S
N3429 C3432 1.350 . S
N3430 S3428 1.610 . S
N3430 C3431 1.351 . S
C3431 C3425 1.428 . S
C3431 N3430 1.351 . S
C3431 C3432 1.434 . S
C3432 C3423 1.429 . S
C3432 N3429 1.350 . S
C3432 C3431 1.434 . S
C3433 C3434 1.369 . S
C3433 C3435 1.419 . S
C3433 H3437 0.930 1_554 S
C3434 C3433 1.369 . S
C3434 C3443 1.429 . S
C3435 C3433 1.419 . S
C3435 C3436 1.363 . S
C3435 H3438 0.929 1_554 S
C3436 C3435 1.363 . S
C3436 C3442 1.428 . S
H3437 C3433 0.930 1_556 S
H3438 C3435 0.929 1_556 S
S3439 N3440 1.613 . S
S3439 N3441 1.610 . S
N3440 S3439 1.613 . S
N3440 C3443 1.350 . S
N3441 S3439 1.610 . S
N3441 C3442 1.351 . S
C3442 C3436 1.428 . S
C3442 N3441 1.351 . S
C3442 C3443 1.434 . S
C3443 C3434 1.429 . S
C3443 N3440 1.350 . S
C3443 C3442 1.434 . S
C3444 C3445 1.369 . S
C3444 C3446 1.419 . S
C3444 H3448 0.930 . S
C3445 C3444 1.369 . S
C3445 C3454 1.429 . S
C3446 C3444 1.419 . S
C3446 C3447 1.363 . S
C3446 H3449 0.929 . S
C3447 C3446 1.363 . S
C3447 C3453 1.428 . S
H3448 C3444 0.930 . S
H3449 C3446 0.929 . S
S3450 N3451 1.613 . S
S3450 N3452 1.610 . S
N3451 S3450 1.613 . S
N3451 C3454 1.350 . S
N3452 S3450 1.610 . S
N3452 C3453 1.351 . S
C3453 C3447 1.428 . S
C3453 N3452 1.351 . S
C3453 C3454 1.434 . S
C3454 C3445 1.429 . S
C3454 N3451 1.350 . S
C3454 C3453 1.434 . S
C3455 C3456 1.369 . S
C3455 C3457 1.419 . S
C3455 H3459 0.930 . S
C3456 C3455 1.369 . S
C3456 C3465 1.429 . S
C3457 C3455 1.419 . S
C3457 C3458 1.363 . S
C3457 H3460 0.929 . S
C3458 C3457 1.363 . S
C3458 C3464 1.428 . S
H3459 C3455 0.930 . S
H3460 C3457 0.929 . S
S3461 N3462 1.613 1_556 S
S3461 N3463 1.610 . S
N3462 S3461 1.613 1_554 S
N3462 C3465 1.350 . S
N3463 S3461 1.610 . S
N3463 C3464 1.351 1_556 S
C3464 C3458 1.428 . S
C3464 N3463 1.351 1_554 S
C3464 C3465 1.434 . S
C3465 C3456 1.429 . S
C3465 N3462 1.350 . S
C3465 C3464 1.434 . S
C3466 C3467 1.369 . S
C3466 C3468 1.419 . S
C3466 H3470 0.930 . S
C3467 C3466 1.369 . S
C3467 C3476 1.429 . S
C3468 C3466 1.419 . S
C3468 C3469 1.363 . S
C3468 H3471 0.929 . S
C3469 C3468 1.363 . S
C3469 C3475 1.428 . S
H3470 C3466 0.930 . S
H3471 C3468 0.929 . S
S3472 N3473 1.613 . S
S3472 N3474 1.610 . S
N3473 S3472 1.613 . S
N3473 C3476 1.350 . S
N3474 S3472 1.610 . S
N3474 C3475 1.351 . S
C3475 C3469 1.428 . S
C3475 N3474 1.351 . S
C3475 C3476 1.434 . S
C3476 C3467 1.429 . S
C3476 N3473 1.350 . S
C3476 C3475 1.434 . S
C3477 C3478 1.369 . S
C3477 C3479 1.419 . S
C3477 H3481 0.930 . S
C3478 C3477 1.369 . S
C3478 C3487 1.429 . S
C3479 C3477 1.419 . S
C3479 C3480 1.363 . S
C3479 H3482 0.929 . S
C3480 C3479 1.363 . S
C3480 C3486 1.428 . S
H3481 C3477 0.930 . S
H3482 C3479 0.929 . S
S3483 N3484 1.613 . S
S3483 N3485 1.610 . S
N3484 S3483 1.613 . S
N3484 C3487 1.350 . S
N3485 S3483 1.610 . S
N3485 C3486 1.351 . S
C3486 C3480 1.428 . S
C3486 N3485 1.351 . S
C3486 C3487 1.434 . S
C3487 C3478 1.429 . S
C3487 N3484 1.350 . S
C3487 C3486 1.434 . S
C2433 C665 1.379 . S
C2435 C2116 1.181 . S
C2444 C381 1.510 . S
C2446 C2151 1.521 . S
C2455 C460 1.089 . S
C2457 C2156 1.009 . S
C2468 C2181 1.451 . S
C2466 C585 1.478 . S
C2477 C108 1.475 . S
C2479 C2201 1.449 . S
C2490 C2216 1.018 . S
C2488 C196 1.083 . S
C2501 C2251 1.523 . S
C2499 C313 1.509 . S
C2510 C49 1.371 . S
C2512 C2256 1.178 . S
C2523 C2131 1.473 1_655 S
C2521 C1457 1.543 . S
C2532 C1545 1.087 . S
C2534 C2141 1.066 . S
C2545 C2171 1.525 . S
C2543 C1721 1.497 . S
C2556 C2176 1.181 . S
C2554 C1113 1.273 . S
C2565 C1428 1.271 . S
C2567 C2196 1.177 . S
C2578 C2231 1.514 . S
C2576 C1516 1.499 . S
C2589 C2241 1.060 . S
C2587 C1692 1.095 . S
C2600 C2271 1.469 . S
C2598 C1085 1.544 . S
C2611 C2121 1.271 . S
C2609 C988 1.417 . S
C2620 C1817 1.794 . S
C2622 C2291 1.811 . S
C2633 C2301 1.460 . S
C2631 C2081 1.552 . S
C2644 C2316 0.982 . S
C2642 C1993 1.049 . S
C2653 C761 1.416 . S
C2655 C2261 1.275 . S
C2664 C821 1.554 . S
C2666 C2161 1.460 . S
C2675 C2053 1.789 . S
C2677 C2351 1.811 . S
C2688 C2356 0.981 . S
C2686 C1868 1.051 . S
C2699 C2114 1.185 . S
C2697 C372 1.372 . S
C2710 C2370 1.519 . S
C2708 C645 1.504 . S
C2719 C577 1.080 . S
C2721 C2154 1.013 . S
C2730 C497 1.473 . S
C2732 C2344 1.443 . S
C2743 C2204 1.442 . S
C2741 C57 1.473 . S
C2752 C293 1.083 . S
C2754 C2294 1.014 . S
C2765 C2250 1.520 . S
C2763 C205 1.509 . S
C2776 C2374 1.172 . S
C2774 C145 1.376 . S
C2787 C2130 1.464 . S
C2785 C909 1.542 . S
C2798 C2364 1.048 . S
C2796 C1956 1.087 . S
C2807 C724 1.494 . S
C2809 C2170 1.511 . S
C2818 C1780 1.263 . S
C2820 C2334 1.179 . S
C2829 C937 1.255 1_545 S
C2831 C2194 1.179 . S
C2842 C2310 1.514 . S
C2840 C1985 1.499 . S
C2851 C753 1.090 . S
C2853 C2244 1.051 . S
C2862 C1809 1.542 . S
C2864 C2390 1.474 . S
C2873 C1173 1.414 . S
C2875 C2124 1.271 . S
C2884 C1105 1.787 . S
C2886 C2290 1.812 . S
C2895 C1633 1.556 . S
C2897 C2224 1.457 . S
C2906 C1553 1.052 . S
C2908 C2314 0.981 . S
C2919 C2384 1.272 . S
C2917 C1729 1.422 . S
C2928 C1340 1.552 . S
C2930 C2164 1.466 . S
C2941 C2190 1.811 . S
C2939 C1604 1.788 . S
C2952 C2134 0.978 . S
C2950 C1252 1.051 . S
C2961 C489 1.372 . S
C2963 C2396 1.186 . S
C2974 C2371 1.524 . S
C2972 C557 1.511 . S
C2983 C636 1.089 . S
C2985 C2416 1.006 . S
C2994 C409 1.476 . S
C2996 C2341 1.445 . S
C3005 C284 1.477 . S
C3007 C2281 1.445 . S
C3018 C2296 1.018 . S
C3016 C20 1.083 . S
C3029 C2331 1.525 . S
C3027 C137 1.516 . S
C3040 C2376 1.181 . S
C3038 C225 1.374 . S
C3051 C2411 1.472 . S
C3049 C1641 1.542 . S
C3060 C1193 1.094 . S
C3062 C2361 1.058 . S
C3073 C2431 1.514 . S
C3071 C1289 1.501 . S
C3084 C2336 1.179 . S
C3082 C1377 1.273 . S
C3095 C2276 1.190 . S
C3093 C1613 1.266 . S
C3104 C1164 1.498 . S
C3106 C2311 1.515 . S
C3117 C2321 1.053 . S
C3115 C1261 1.090 . S
C3126 C1349 1.544 . S
C3128 C2391 1.471 . S
C3139 C2401 1.275 . S
C3137 C1965 1.412 . S
C3148 C849 1.791 . S
C3150 C2211 1.814 . S
C3161 C2221 1.469 . S
C3159 C929 1.551 . S
C3172 C2236 0.981 . S
C3170 C1017 1.054 . S
C3183 C2381 1.272 . S
C3181 C1897 1.417 . S
C3192 C1789 1.559 . S
C3194 C2421 1.460 . S
C3205 C2191 1.811 . S
C3203 C900 1.789 . S
C3216 C2136 0.982 . S
C3214 C733 1.054 . S
C3225 C548 1.376 . S
C3227 C2394 1.172 . S
C3238 C2150 1.522 . S
C3236 C469 1.508 . S
C3247 C401 1.085 . S
C3249 C2414 1.011 . S
C3258 C673 1.473 . S
C3260 C2184 1.443 . S
C3269 C233 1.476 . S
C3271 C2284 1.447 . S
C3282 C2214 1.005 . S
C3280 C117 1.086 . S
C3291 C29 1.504 . S
C3293 C2330 1.520 . S
C3302 C321 1.376 . S
C3304 C2254 1.174 . S
C3315 C2410 1.465 . S
C3313 C2044 1.542 . S
C3324 C997 1.091 . S
C3326 C2144 1.050 . S
C3337 C2430 1.515 1_655 S
C3335 C1877 1.496 . S
C3346 C812 1.265 . S
C3348 C2174 1.174 . S
C3357 C2073 1.264 . S
C3359 C2274 1.175 . S
C3370 C2230 1.514 . S
C3368 C1025 1.499 . S
C3379 C1905 1.081 . S
C3381 C2324 1.057 . S
C3392 C2270 1.464 . S
C3390 C841 1.541 . S
C3403 C2404 1.279 . S
C3401 C1525 1.412 . S
C3414 C2210 1.809 . S
C3412 C1369 1.783 . S
C3423 C1465 1.556 . S
C3425 C2304 1.462 . S
C3436 C2234 0.990 . S
C3434 C1201 1.050 . S
C3445 C1281 1.412 . S
C3447 C2264 1.277 . S
C3456 C1076 1.550 . S
C3458 C2424 1.461 . S
C3469 C2350 1.812 . S
C3467 C1437 1.788 . S
C3480 C2354 0.977 . S
C3478 C1701 1.045 . S
