# Generated by pormake.
# Topology gar, (4,6)-cn, num edge types: 1
# Building blocks:
#     Node 0, Type 0, BuildingBlock: KUFVIS_clean_sbu_0, # of connection points: 4
#     Node 1, Type 0, BuildingBlock: KUFVIS_clean_sbu_0, # of connection points: 4
#     Node 2, Type 0, BuildingBlock: KUFVIS_clean_sbu_0, # of connection points: 4
#     Node 3, Type 0, BuildingBlock: KUFVIS_clean_sbu_0, # of connection points: 4
#     Node 4, Type 0, BuildingBlock: KUFVIS_clean_sbu_0, # of connection points: 4
#     Node 5, Type 0, BuildingBlock: KUFVIS_clean_sbu_0, # of connection points: 4
#     Node 6, Type 0, BuildingBlock: KUFVIS_clean_sbu_0, # of connection points: 4
#     Node 7, Type 0, BuildingBlock: KUFVIS_clean_sbu_0, # of connection points: 4
#     Node 8, Type 0, BuildingBlock: KUFVIS_clean_sbu_0, # of connection points: 4
#     Node 9, Type 0, BuildingBlock: KUFVIS_clean_sbu_0, # of connection points: 4
#     Node 10, Type 0, BuildingBlock: KUFVIS_clean_sbu_0, # of connection points: 4
#     Node 11, Type 0, BuildingBlock: KUFVIS_clean_sbu_0, # of connection points: 4
#     Node 12, Type 0, BuildingBlock: KUFVIS_clean_sbu_0, # of connection points: 4
#     Node 13, Type 0, BuildingBlock: KUFVIS_clean_sbu_0, # of connection points: 4
#     Node 14, Type 0, BuildingBlock: KUFVIS_clean_sbu_0, # of connection points: 4
#     Node 15, Type 0, BuildingBlock: KUFVIS_clean_sbu_0, # of connection points: 4
#     Node 16, Type 0, BuildingBlock: KUFVIS_clean_sbu_0, # of connection points: 4
#     Node 17, Type 0, BuildingBlock: KUFVIS_clean_sbu_0, # of connection points: 4
#     Node 18, Type 0, BuildingBlock: KUFVIS_clean_sbu_0, # of connection points: 4
#     Node 19, Type 0, BuildingBlock: KUFVIS_clean_sbu_0, # of connection points: 4
#     Node 20, Type 0, BuildingBlock: KUFVIS_clean_sbu_0, # of connection points: 4
#     Node 21, Type 0, BuildingBlock: KUFVIS_clean_sbu_0, # of connection points: 4
#     Node 22, Type 0, BuildingBlock: KUFVIS_clean_sbu_0, # of connection points: 4
#     Node 23, Type 0, BuildingBlock: KUFVIS_clean_sbu_0, # of connection points: 4
#     Node 24, Type 1, BuildingBlock: CUKXOW_clean_sbu_0, # of connection points: 6
#     Node 25, Type 1, BuildingBlock: CUKXOW_clean_sbu_0, # of connection points: 6
#     Node 26, Type 1, BuildingBlock: CUKXOW_clean_sbu_0, # of connection points: 6
#     Node 27, Type 1, BuildingBlock: CUKXOW_clean_sbu_0, # of connection points: 6
#     Node 28, Type 1, BuildingBlock: CUKXOW_clean_sbu_0, # of connection points: 6
#     Node 29, Type 1, BuildingBlock: CUKXOW_clean_sbu_0, # of connection points: 6
#     Node 30, Type 1, BuildingBlock: CUKXOW_clean_sbu_0, # of connection points: 6
#     Node 31, Type 1, BuildingBlock: CUKXOW_clean_sbu_0, # of connection points: 6
#     Node 32, Type 1, BuildingBlock: CUKXOW_clean_sbu_0, # of connection points: 6
#     Node 33, Type 1, BuildingBlock: CUKXOW_clean_sbu_0, # of connection points: 6
#     Node 34, Type 1, BuildingBlock: CUKXOW_clean_sbu_0, # of connection points: 6
#     Node 35, Type 1, BuildingBlock: CUKXOW_clean_sbu_0, # of connection points: 6
#     Node 36, Type 1, BuildingBlock: CUKXOW_clean_sbu_0, # of connection points: 6
#     Node 37, Type 1, BuildingBlock: CUKXOW_clean_sbu_0, # of connection points: 6
#     Node 38, Type 1, BuildingBlock: CUKXOW_clean_sbu_0, # of connection points: 6
#     Node 39, Type 1, BuildingBlock: CUKXOW_clean_sbu_0, # of connection points: 6
#     Edge 40, Type (0, 1), BuildingBlock: OJICUG_clean_linker_0, # of connection points: 2
#     Edge 41, Type (0, 1), BuildingBlock: OJICUG_clean_linker_0, # of connection points: 2
#     Edge 42, Type (0, 1), BuildingBlock: OJICUG_clean_linker_0, # of connection points: 2
#     Edge 43, Type (0, 1), BuildingBlock: OJICUG_clean_linker_0, # of connection points: 2
#     Edge 44, Type (0, 1), BuildingBlock: OJICUG_clean_linker_0, # of connection points: 2
#     Edge 45, Type (0, 1), BuildingBlock: OJICUG_clean_linker_0, # of connection points: 2
#     Edge 46, Type (0, 1), BuildingBlock: OJICUG_clean_linker_0, # of connection points: 2
#     Edge 47, Type (0, 1), BuildingBlock: OJICUG_clean_linker_0, # of connection points: 2
#     Edge 48, Type (0, 1), BuildingBlock: OJICUG_clean_linker_0, # of connection points: 2
#     Edge 49, Type (0, 1), BuildingBlock: OJICUG_clean_linker_0, # of connection points: 2
#     Edge 50, Type (0, 1), BuildingBlock: OJICUG_clean_linker_0, # of connection points: 2
#     Edge 51, Type (0, 1), BuildingBlock: OJICUG_clean_linker_0, # of connection points: 2
#     Edge 52, Type (0, 1), BuildingBlock: OJICUG_clean_linker_0, # of connection points: 2
#     Edge 53, Type (0, 1), BuildingBlock: OJICUG_clean_linker_0, # of connection points: 2
#     Edge 54, Type (0, 1), BuildingBlock: OJICUG_clean_linker_0, # of connection points: 2
#     Edge 55, Type (0, 1), BuildingBlock: OJICUG_clean_linker_0, # of connection points: 2
#     Edge 56, Type (0, 1), BuildingBlock: OJICUG_clean_linker_0, # of connection points: 2
#     Edge 57, Type (0, 1), BuildingBlock: OJICUG_clean_linker_0, # of connection points: 2
#     Edge 58, Type (0, 1), BuildingBlock: OJICUG_clean_linker_0, # of connection points: 2
#     Edge 59, Type (0, 1), BuildingBlock: OJICUG_clean_linker_0, # of connection points: 2
#     Edge 60, Type (0, 1), BuildingBlock: OJICUG_clean_linker_0, # of connection points: 2
#     Edge 61, Type (0, 1), BuildingBlock: OJICUG_clean_linker_0, # of connection points: 2
#     Edge 62, Type (0, 1), BuildingBlock: OJICUG_clean_linker_0, # of connection points: 2
#     Edge 63, Type (0, 1), BuildingBlock: OJICUG_clean_linker_0, # of connection points: 2
#     Edge 64, Type (0, 1), BuildingBlock: OJICUG_clean_linker_0, # of connection points: 2
#     Edge 65, Type (0, 1), BuildingBlock: OJICUG_clean_linker_0, # of connection points: 2
#     Edge 66, Type (0, 1), BuildingBlock: OJICUG_clean_linker_0, # of connection points: 2
#     Edge 67, Type (0, 1), BuildingBlock: OJICUG_clean_linker_0, # of connection points: 2
#     Edge 68, Type (0, 1), BuildingBlock: OJICUG_clean_linker_0, # of connection points: 2
#     Edge 69, Type (0, 1), BuildingBlock: OJICUG_clean_linker_0, # of connection points: 2
#     Edge 70, Type (0, 1), BuildingBlock: OJICUG_clean_linker_0, # of connection points: 2
#     Edge 71, Type (0, 1), BuildingBlock: OJICUG_clean_linker_0, # of connection points: 2
#     Edge 72, Type (0, 1), BuildingBlock: OJICUG_clean_linker_0, # of connection points: 2
#     Edge 73, Type (0, 1), BuildingBlock: OJICUG_clean_linker_0, # of connection points: 2
#     Edge 74, Type (0, 1), BuildingBlock: OJICUG_clean_linker_0, # of connection points: 2
#     Edge 75, Type (0, 1), BuildingBlock: OJICUG_clean_linker_0, # of connection points: 2
#     Edge 76, Type (0, 1), BuildingBlock: OJICUG_clean_linker_0, # of connection points: 2
#     Edge 77, Type (0, 1), BuildingBlock: OJICUG_clean_linker_0, # of connection points: 2
#     Edge 78, Type (0, 1), BuildingBlock: OJICUG_clean_linker_0, # of connection points: 2
#     Edge 79, Type (0, 1), BuildingBlock: OJICUG_clean_linker_0, # of connection points: 2
#     Edge 80, Type (0, 1), BuildingBlock: OJICUG_clean_linker_0, # of connection points: 2
#     Edge 81, Type (0, 1), BuildingBlock: OJICUG_clean_linker_0, # of connection points: 2
#     Edge 82, Type (0, 1), BuildingBlock: OJICUG_clean_linker_0, # of connection points: 2
#     Edge 83, Type (0, 1), BuildingBlock: OJICUG_clean_linker_0, # of connection points: 2
#     Edge 84, Type (0, 1), BuildingBlock: OJICUG_clean_linker_0, # of connection points: 2
#     Edge 85, Type (0, 1), BuildingBlock: OJICUG_clean_linker_0, # of connection points: 2
#     Edge 86, Type (0, 1), BuildingBlock: OJICUG_clean_linker_0, # of connection points: 2
#     Edge 87, Type (0, 1), BuildingBlock: OJICUG_clean_linker_0, # of connection points: 2
#     Edge 88, Type (0, 1), BuildingBlock: OJICUG_clean_linker_0, # of connection points: 2
#     Edge 89, Type (0, 1), BuildingBlock: OJICUG_clean_linker_0, # of connection points: 2
#     Edge 90, Type (0, 1), BuildingBlock: OJICUG_clean_linker_0, # of connection points: 2
#     Edge 91, Type (0, 1), BuildingBlock: OJICUG_clean_linker_0, # of connection points: 2
#     Edge 92, Type (0, 1), BuildingBlock: OJICUG_clean_linker_0, # of connection points: 2
#     Edge 93, Type (0, 1), BuildingBlock: OJICUG_clean_linker_0, # of connection points: 2
#     Edge 94, Type (0, 1), BuildingBlock: OJICUG_clean_linker_0, # of connection points: 2
#     Edge 95, Type (0, 1), BuildingBlock: OJICUG_clean_linker_0, # of connection points: 2
#     Edge 96, Type (0, 1), BuildingBlock: OJICUG_clean_linker_0, # of connection points: 2
#     Edge 97, Type (0, 1), BuildingBlock: OJICUG_clean_linker_0, # of connection points: 2
#     Edge 98, Type (0, 1), BuildingBlock: OJICUG_clean_linker_0, # of connection points: 2
#     Edge 99, Type (0, 1), BuildingBlock: OJICUG_clean_linker_0, # of connection points: 2
#     Edge 100, Type (0, 1), BuildingBlock: OJICUG_clean_linker_0, # of connection points: 2
#     Edge 101, Type (0, 1), BuildingBlock: OJICUG_clean_linker_0, # of connection points: 2
#     Edge 102, Type (0, 1), BuildingBlock: OJICUG_clean_linker_0, # of connection points: 2
#     Edge 103, Type (0, 1), BuildingBlock: OJICUG_clean_linker_0, # of connection points: 2
#     Edge 104, Type (0, 1), BuildingBlock: OJICUG_clean_linker_0, # of connection points: 2
#     Edge 105, Type (0, 1), BuildingBlock: OJICUG_clean_linker_0, # of connection points: 2
#     Edge 106, Type (0, 1), BuildingBlock: OJICUG_clean_linker_0, # of connection points: 2
#     Edge 107, Type (0, 1), BuildingBlock: OJICUG_clean_linker_0, # of connection points: 2
#     Edge 108, Type (0, 1), BuildingBlock: OJICUG_clean_linker_0, # of connection points: 2
#     Edge 109, Type (0, 1), BuildingBlock: OJICUG_clean_linker_0, # of connection points: 2
#     Edge 110, Type (0, 1), BuildingBlock: OJICUG_clean_linker_0, # of connection points: 2
#     Edge 111, Type (0, 1), BuildingBlock: OJICUG_clean_linker_0, # of connection points: 2
#     Edge 112, Type (0, 1), BuildingBlock: OJICUG_clean_linker_0, # of connection points: 2
#     Edge 113, Type (0, 1), BuildingBlock: OJICUG_clean_linker_0, # of connection points: 2
#     Edge 114, Type (0, 1), BuildingBlock: OJICUG_clean_linker_0, # of connection points: 2
#     Edge 115, Type (0, 1), BuildingBlock: OJICUG_clean_linker_0, # of connection points: 2
#     Edge 116, Type (0, 1), BuildingBlock: OJICUG_clean_linker_0, # of connection points: 2
#     Edge 117, Type (0, 1), BuildingBlock: OJICUG_clean_linker_0, # of connection points: 2
#     Edge 118, Type (0, 1), BuildingBlock: OJICUG_clean_linker_0, # of connection points: 2
#     Edge 119, Type (0, 1), BuildingBlock: OJICUG_clean_linker_0, # of connection points: 2
#     Edge 120, Type (0, 1), BuildingBlock: OJICUG_clean_linker_0, # of connection points: 2
#     Edge 121, Type (0, 1), BuildingBlock: OJICUG_clean_linker_0, # of connection points: 2
#     Edge 122, Type (0, 1), BuildingBlock: OJICUG_clean_linker_0, # of connection points: 2
#     Edge 123, Type (0, 1), BuildingBlock: OJICUG_clean_linker_0, # of connection points: 2
#     Edge 124, Type (0, 1), BuildingBlock: OJICUG_clean_linker_0, # of connection points: 2
#     Edge 125, Type (0, 1), BuildingBlock: OJICUG_clean_linker_0, # of connection points: 2
#     Edge 126, Type (0, 1), BuildingBlock: OJICUG_clean_linker_0, # of connection points: 2
#     Edge 127, Type (0, 1), BuildingBlock: OJICUG_clean_linker_0, # of connection points: 2
#     Edge 128, Type (0, 1), BuildingBlock: OJICUG_clean_linker_0, # of connection points: 2
#     Edge 129, Type (0, 1), BuildingBlock: OJICUG_clean_linker_0, # of connection points: 2
#     Edge 130, Type (0, 1), BuildingBlock: OJICUG_clean_linker_0, # of connection points: 2
#     Edge 131, Type (0, 1), BuildingBlock: OJICUG_clean_linker_0, # of connection points: 2
#     Edge 132, Type (0, 1), BuildingBlock: OJICUG_clean_linker_0, # of connection points: 2
#     Edge 133, Type (0, 1), BuildingBlock: OJICUG_clean_linker_0, # of connection points: 2
#     Edge 134, Type (0, 1), BuildingBlock: OJICUG_clean_linker_0, # of connection points: 2
#     Edge 135, Type (0, 1), BuildingBlock: OJICUG_clean_linker_0, # of connection points: 2
# Relax obj value: 0.118
# Max RMSD: 0.237
# Mean RMSD: 0.119
data_MOF--net-gar--node1-KUFVIS_clean_sbu_0--node2-CUKXOW_clean_sbu_0--edge1-OJICUG_clean_linker_0
_symmetry_space_group_name_H-M    P1
_symmetry_Int_Tables_number       1
_symmetry_cell_setting            triclinic
loop_
_symmetry_equiv_pos_as_xyz
'x, y, z'
_cell_length_a     39.948306
_cell_length_b     38.757901
_cell_length_c     39.945637
_cell_angle_alpha  93.738141
_cell_angle_beta   94.65013
_cell_angle_gamma 98.239101
loop_
_atom_site_label
_atom_site_type_symbol
_atom_site_fract_x
_atom_site_fract_y
_atom_site_fract_z
_atom_type_partial_charge
Mn0 Mn 0.03107 0.27658 0.45399 0.0
Mn1 Mn 0.03249 0.32383 0.38594 0.0
C2 C 0.98099 0.2895 0.42787 0.0
C3 C 0.03109 0.22513 0.48004 0.0
C4 C 0.05534 0.3545 0.45736 0.0
O5 O 0.07736 0.27249 0.43682 0.0
O6 O 0.07043 0.29624 0.38692 0.0
C7 C 0.018 0.26723 0.33083 0.0
N8 N 1.01028 0.29702 0.34635 0.0
C9 C 0.96541 0.29988 0.30307 0.0
C10 C 0.9731 0.26937 0.2865 0.0
C11 C 0.99936 0.25283 0.3006 0.0
C12 C 0.98454 0.31267 0.33341 0.0
H13 H 0.03817 0.25458 0.34149 0.0
C14 C 0.08589 0.27841 0.40733 0.0
O15 O 0.04363 0.25507 0.49559 0.0
O16 O 0.01846 0.22471 0.44891 0.0
N17 N 0.99606 0.35101 0.38163 0.0
C18 C 0.99067 0.37932 0.40147 0.0
C19 C 0.96482 0.39843 0.39126 0.0
C20 C 0.94511 0.38866 0.36049 0.0
C21 C 0.95131 0.35971 0.3403 0.0
C22 C 0.97727 0.34151 0.35189 0.0
H23 H 1.00605 0.38753 0.42482 0.0
O24 O 0.98208 0.28126 0.45893 0.0
O25 O 1.0088 0.28987 0.41352 0.0
O26 O 0.04557 0.32693 0.47137 0.0
O27 O 0.05514 0.35533 0.42539 0.0
C28 C 0.93255 0.34804 0.30923 0.0
C29 C 0.93935 0.31793 0.2908 0.0
H30 H 0.95889 0.25831 0.26308 0.0
H31 H 1.00534 0.22916 0.28809 0.0
H32 H 0.9603 0.42083 0.40694 0.0
H33 H 0.92522 0.40349 0.35267 0.0
H34 H 0.91245 0.36171 0.29955 0.0
H35 H 0.92426 0.30878 0.2673 0.0
Mn36 Mn 0.01223 0.80081 0.61141 0.0
Mn37 Mn 0.04443 0.86759 0.66904 0.0
C38 C 0.06836 0.80743 0.63427 0.0
C39 C 0.98816 0.74361 0.59276 0.0
C40 C 0.02751 0.8769 0.5956 0.0
O41 O 0.96979 0.81497 0.63125 0.0
O42 O 0.99524 0.85627 0.6718 0.0
C43 C 0.03327 0.8346 0.73285 0.0
N44 N 0.05463 0.85149 0.7123 0.0
C45 C 0.10269 0.85259 0.75292 0.0
C46 C 0.08124 0.83526 0.7746 0.0
C47 C 0.04638 0.82621 0.76449 0.0
C48 C 0.08816 0.8605 0.72183 0.0
H49 H 1.00648 0.82757 0.7251 0.0
C50 C 0.96898 0.83687 0.65674 0.0
O51 O 0.9864 0.76944 0.57407 0.0
O52 O 1.00122 0.75133 0.62373 0.0
N53 N 0.09227 0.88008 0.66833 0.0
C54 C 0.1101 0.89263 0.64291 0.0
C55 C 0.14535 0.9026 0.64858 0.0
C56 C 0.16198 0.89864 0.68004 0.0
C57 C 0.14314 0.88447 0.70533 0.0
C58 C 0.108 0.87594 0.6986 0.0
H59 H 0.0977 0.89416 0.61828 0.0
O60 O 0.05976 0.79126 0.60465 0.0
O61 O 0.04455 0.82039 0.64844 0.0
O62 O 0.01876 0.84481 0.58616 0.0
O63 O 0.03619 0.88818 0.62608 0.0
C64 C 0.15818 0.87683 0.73628 0.0
C65 C 0.13812 0.86103 0.76027 0.0
H66 H 0.09132 0.8284 0.79887 0.0
H67 H 0.02968 0.81269 0.78102 0.0
H68 H 0.15972 0.91266 0.62857 0.0
H69 H 0.18933 0.90558 0.68419 0.0
H70 H 0.18541 0.88181 0.74082 0.0
H71 H 0.15028 0.85453 0.78377 0.0
Mn72 Mn 0.5378 0.77619 0.94972 0.0
Mn73 Mn 0.53357 0.82885 0.88552 0.0
C74 C 0.48581 0.78517 0.92455 0.0
C75 C 0.54021 0.72327 0.97335 0.0
C76 C 0.55338 0.85583 0.95814 0.0
O77 O 0.58444 0.77693 0.93157 0.0
O78 O 0.57685 0.81026 0.88796 0.0
C79 C 0.53313 0.77787 0.82685 0.0
N80 N 0.51842 0.8027 0.84349 0.0
C81 C 0.47531 0.80126 0.7975 0.0
C82 C 0.49 0.77569 0.77985 0.0
C83 C 0.51894 0.76384 0.79466 0.0
C84 C 0.49046 0.81414 0.82956 0.0
H85 H 0.55557 0.76893 0.83799 0.0
C86 C 0.59411 0.79109 0.90519 0.0
O87 O 0.5515 0.7529 0.99012 0.0
O88 O 0.52859 0.72416 0.94206 0.0
N89 N 0.49198 0.84784 0.88021 0.0
C90 C 0.4794 0.8705 0.90166 0.0
C91 C 0.44956 0.88365 0.89132 0.0
C92 C 0.43328 0.87376 0.8589 0.0
C93 C 0.44684 0.85055 0.83722 0.0
C94 C 0.47645 0.83807 0.84902 0.0
H95 H 0.49203 0.87849 0.92646 0.0
O96 O 0.48832 0.77636 0.9554 0.0
O97 O 0.51367 0.78953 0.90989 0.0
O98 O 0.54932 0.82629 0.97033 0.0
O99 O 0.54913 0.85964 0.92676 0.0
C100 C 0.43191 0.83897 0.8045 0.0
C101 C 0.44598 0.81416 0.78475 0.0
H102 H 0.47915 0.76482 0.75501 0.0
H103 H 0.53038 0.74406 0.78122 0.0
H104 H 0.43924 0.90151 0.90822 0.0
H105 H 0.41028 0.88395 0.851 0.0
H106 H 0.40926 0.84855 0.7945 0.0
H107 H 0.43382 0.80489 0.75993 0.0
Mn108 Mn 0.50705 0.29736 0.1186 0.0
Mn109 Mn 0.43883 0.28082 0.06146 0.0
C110 C 0.48274 0.24035 0.10069 0.0
C111 C 0.56398 0.30592 0.13777 0.0
C112 C 0.43569 0.30939 0.13326 0.0
O113 O 0.50976 0.34278 0.09481 0.0
O114 O 0.46438 0.32748 0.05629 0.0
C115 C 0.47374 0.27741 0.99892 0.0
N116 N 0.45188 0.26192 0.01986 0.0
C117 C 0.44155 0.20855 0.98381 0.0
C118 C 0.46373 0.22404 0.96176 0.0
C119 C 0.47992 0.25861 0.96938 0.0
C120 C 0.43615 0.22866 1.01276 0.0
H121 H 0.48653 0.30383 1.00479 0.0
C122 C 0.4905 0.34879 0.06923 0.0
O123 O 0.54167 0.31832 0.15481 0.0
O124 O 0.55376 0.28996 0.10825 0.0
N125 N 0.41337 0.23544 0.06418 0.0
C126 C 0.39459 0.22353 0.08918 0.0
C127 C 0.37751 0.18902 0.08593 0.0
C128 C 0.37996 0.16713 0.05707 0.0
C129 C 0.39951 0.17994 0.0317 0.0
C130 C 0.4157 0.21466 0.03618 0.0
H131 H 0.39279 0.24018 0.11151 0.0
O132 O 0.49902 0.24719 0.13045 0.0
O133 O 0.4797 0.26717 0.0838 0.0
O134 O 0.46673 0.30877 0.14178 0.0
O135 O 0.42193 0.29973 0.10352 0.0
C136 C 0.40412 0.15943 1.00247 0.0
C137 C 0.42515 0.1737 0.97857 0.0
H138 H 0.46878 0.20953 0.93908 0.0
H139 H 0.49726 0.27067 0.9526 0.0
H140 H 0.36262 0.17926 0.1057 0.0
H141 H 0.36699 0.14046 0.05479 0.0
H142 H 0.39192 0.13252 0.99825 0.0
H143 H 0.42885 0.15751 0.95643 0.0
Mn144 Mn 1.00756 0.76455 0.18205 0.0
Mn145 Mn 0.94366 0.74088 0.12011 0.0
C146 C 0.99713 0.70747 0.15526 0.0
C147 C 0.06487 0.78426 0.20335 0.0
C148 C 0.93106 0.75465 0.19353 0.0
O149 O 0.99988 0.81178 0.16365 0.0
O150 O 0.95823 0.79176 0.12219 0.0
C151 C 0.97964 0.75809 0.05996 0.0
N152 N 0.96139 0.73419 0.07753 0.0
C153 C 0.96175 0.68862 0.03378 0.0
C154 C 0.98039 0.71276 0.01514 0.0
C155 C 0.98941 0.74765 0.02833 0.0
C156 C 0.95236 0.70064 0.06497 0.0
H157 H 0.98676 0.78492 0.07 0.0
C158 C 0.97929 0.81643 0.13836 0.0
O159 O 0.03974 0.787 0.22141 0.0
O160 O 0.05671 0.77176 0.17231 0.0
N161 N 0.92872 0.6917 0.11567 0.0
C162 C 0.91393 0.67117 0.13841 0.0
C163 C 0.90614 0.635 0.13052 0.0
C164 C 0.91345 0.62052 0.09933 0.0
C165 C 0.92769 0.64226 0.07585 0.0
C166 C 0.93528 0.67806 0.08529 0.0
H167 H 0.90893 0.68221 0.16269 0.0
O168 O 1.01133 0.71303 0.18597 0.0
O169 O 0.98763 0.73474 0.14259 0.0
O170 O 0.96238 0.76114 0.20465 0.0
O171 O 0.92151 0.74667 0.1624 0.0
C172 C 0.93613 0.62972 0.04416 0.0
C173 C 0.95303 0.65289 0.0231 0.0
H174 H 0.98828 0.7047 0.9909 0.0
H175 H 1.00396 0.76641 0.01419 0.0
H176 H 0.89525 0.61824 0.14871 0.0
H177 H 0.9093 0.59256 0.09439 0.0
H178 H 0.9303 0.6023 0.03586 0.0
H179 H 0.96004 0.64284 0.99915 0.0
Mn180 Mn 0.53168 0.79773 0.38779 0.0
Mn181 Mn 0.51672 0.85026 0.32599 0.0
C182 C 0.47602 0.79719 0.36405 0.0
C183 C 0.5446 0.74811 0.41261 0.0
C184 C 0.52957 0.87615 0.39996 0.0
O185 O 0.57874 0.80866 0.3699 0.0
O186 O 0.56539 0.84234 0.32849 0.0
C187 C 0.52697 0.8033 0.26723 0.0
N188 N 0.50695 0.82319 0.2836 0.0
C189 C 0.46188 0.80931 0.23888 0.0
C190 C 0.48213 0.78893 0.22145 0.0
C191 C 0.51477 0.78585 0.23574 0.0
C192 C 0.47542 0.82615 0.27015 0.0
H193 H 0.55201 0.80067 0.2781 0.0
C194 C 0.58657 0.82606 0.34473 0.0
O195 O 0.55127 0.77883 0.42818 0.0
O196 O 0.53198 0.74602 0.38125 0.0
N197 N 0.47094 0.8594 0.31977 0.0
C198 C 0.45412 0.87889 0.3404 0.0
C199 C 0.42092 0.88396 0.33012 0.0
C200 C 0.40544 0.86936 0.29856 0.0
C201 C 0.42336 0.84972 0.27758 0.0
C202 C 0.45649 0.84564 0.28914 0.0
H203 H 0.46571 0.89023 0.36471 0.0
O204 O 0.48202 0.78805 0.3944 0.0
O205 O 0.50282 0.8069 0.34839 0.0
O206 O 0.53381 0.84654 0.40953 0.0
O207 O 0.52479 0.88152 0.36882 0.0
C208 C 0.40941 0.83347 0.24596 0.0
C209 C 0.42863 0.81319 0.22666 0.0
H210 H 0.47279 0.77534 0.19721 0.0
H211 H 0.53049 0.77002 0.22252 0.0
H212 H 0.40737 0.89885 0.34676 0.0
H213 H 0.37971 0.87304 0.29081 0.0
H214 H 0.38377 0.83601 0.23646 0.0
H215 H 0.41749 0.80048 0.20257 0.0
Mn216 Mn 0.50445 0.26241 0.684 0.0
Mn217 Mn 0.44098 0.23915 0.62164 0.0
C218 C 0.49415 0.20543 0.65705 0.0
C219 C 0.56127 0.28263 0.706 0.0
C220 C 0.42795 0.25318 0.69492 0.0
O221 O 0.49736 0.30955 0.66536 0.0
O222 O 0.45599 0.28995 0.62352 0.0
C223 C 0.47752 0.256 0.56173 0.0
N224 N 0.45901 0.23223 0.57924 0.0
C225 C 0.45967 0.18649 0.53576 0.0
C226 C 0.47856 0.21049 0.51719 0.0
C227 C 0.48755 0.2454 0.53027 0.0
C228 C 0.44998 0.19866 0.56677 0.0
H229 H 0.48466 0.28285 0.57168 0.0
C230 C 0.47739 0.31433 0.63967 0.0
O231 O 0.53583 0.28489 0.72371 0.0
O232 O 0.55372 0.26991 0.67493 0.0
N233 N 0.42583 0.18999 0.61726 0.0
C234 C 0.4109 0.16956 0.64 0.0
C235 C 0.40323 0.13335 0.63226 0.0
C236 C 0.41081 0.11872 0.60123 0.0
C237 C 0.42518 0.14037 0.57775 0.0
C238 C 0.43266 0.17621 0.58704 0.0
H239 H 0.40573 0.18071 0.66417 0.0
O240 O 0.50806 0.21086 0.68788 0.0
O241 O 0.48481 0.23278 0.64438 0.0
O242 O 0.45921 0.25917 0.70613 0.0
O243 O 0.41845 0.24531 0.66375 0.0
C244 C 0.43392 0.1277 0.54623 0.0
C245 C 0.45104 0.15074 0.52522 0.0
H246 H 0.48668 0.20229 0.49308 0.0
H247 H 0.5023 0.26407 0.51619 0.0
H248 H 0.39225 0.11667 0.65047 0.0
H249 H 0.40683 0.09073 0.59643 0.0
H250 H 0.4282 0.10026 0.53804 0.0
H251 H 0.45834 0.14058 0.50145 0.0
Mn252 Mn 0.0282 0.29668 0.88682 0.0
Mn253 Mn 0.01376 0.34928 0.82481 0.0
C254 C 0.97269 0.29587 0.86224 0.0
C255 C 0.04187 0.24754 0.91245 0.0
C256 C 0.02605 0.37515 0.89876 0.0
O257 O 0.07556 0.30805 0.86951 0.0
O258 O 0.06235 0.34141 0.82777 0.0
C259 C 0.02447 0.30234 0.76623 0.0
N260 N 1.00435 0.32228 0.78237 0.0
C261 C 0.95981 0.30885 0.7371 0.0
C262 C 0.98017 0.2884 0.71991 0.0
C263 C 0.01259 0.28506 0.73459 0.0
C264 C 0.97301 0.32547 0.76855 0.0
H265 H 0.04936 0.29954 0.7774 0.0
C266 C 0.08352 0.32543 0.84434 0.0
O267 O 0.04763 0.27844 0.92762 0.0
O268 O 0.0293 0.24484 0.88104 0.0
N269 N 0.96805 0.35848 0.81817 0.0
C270 C 0.95109 0.37803 0.83861 0.0
C271 C 0.91809 0.38339 0.82792 0.0
C272 C 0.90295 0.36904 0.79615 0.0
C273 C 0.92102 0.34936 0.77538 0.0
C274 C 0.95395 0.34498 0.78735 0.0
H275 H 0.96245 0.38921 0.86306 0.0
O276 O 0.97829 0.28661 0.89262 0.0
O277 O 0.99974 0.30576 0.84704 0.0
O278 O 0.02975 0.34543 0.90834 0.0
O279 O 0.02164 0.38059 0.86762 0.0
C280 C 0.90741 0.33335 0.74356 0.0
C281 C 0.92676 0.31301 0.72448 0.0
H282 H 0.97107 0.27496 0.69553 0.0
H283 H 0.02839 0.26918 0.72155 0.0
H284 H 0.90443 0.3983 0.84442 0.0
H285 H 0.87735 0.37292 0.78808 0.0
H286 H 0.88193 0.33612 0.73373 0.0
H287 H 0.91587 0.30047 0.70023 0.0
Mn288 Mn 0.42123 0.07671 0.26837 0.0
Mn289 Mn 0.35201 0.07324 0.31373 0.0
C290 C 0.39193 0.02342 0.2816 0.0
C291 C 0.44875 0.07537 0.21693 0.0
C292 C 0.42464 0.09247 0.34602 0.0
O293 O 0.40536 0.12552 0.26304 0.0
O294 O 0.35742 0.11666 0.28996 0.0
C295 C 0.29834 0.06606 0.25688 0.0
N296 N 0.31141 0.05449 0.28583 0.0
C297 C 0.26394 0.00835 0.28458 0.0
C298 C 0.2497 0.02027 0.25507 0.0
C299 C 0.26713 0.04909 0.241 0.0
C300 C 0.29529 0.02617 0.29906 0.0
H301 H 0.31179 0.08784 0.24595 0.0
C302 C 0.37739 0.13475 0.27204 0.0
O303 O 0.46447 0.08839 0.24563 0.0
O304 O 0.41635 0.06534 0.21743 0.0
N305 N 0.34278 0.03224 0.33795 0.0
C306 C 0.36027 0.02329 0.36605 0.0
C307 C 0.3464 0.99484 0.3831 0.0
C308 C 0.31446 0.97604 0.3714 0.0
C309 C 0.29666 0.98593 0.34278 0.0
C310 C 0.31166 0.01471 0.32697 0.0
H311 H 0.38465 0.03765 0.37551 0.0
O312 O 0.42315 0.02562 0.27416 0.0
O313 O 0.37881 0.05193 0.28111 0.0
O314 O 0.43933 0.08847 0.31896 0.0
O315 O 0.39244 0.09112 0.34574 0.0
C316 C 0.26469 0.96822 0.3292 0.0
C317 C 0.24848 0.97922 0.29994 0.0
H318 H 0.2256 1.00725 0.2428 0.0
H319 H 0.25655 0.05822 0.21799 0.0
H320 H 0.36027 0.98748 0.40527 0.0
H321 H 0.30391 0.95398 0.38451 0.0
H322 H 0.25253 0.94581 0.34082 0.0
H323 H 0.22418 0.96501 0.28939 0.0
Mn324 Mn 0.26724 0.16086 0.50109 0.0
Mn325 Mn 0.2551 0.1081 0.42987 0.0
C326 C 0.21358 0.14588 0.4736 0.0
C327 C 0.26918 0.17387 0.55827 0.0
C328 C 0.29256 0.18232 0.43487 0.0
O329 O 0.30705 0.13354 0.50472 0.0
O330 O 0.29436 0.09578 0.45802 0.0
C331 C 0.23553 0.03872 0.45549 0.0
N332 N 0.22754 0.06496 0.43665 0.0
C333 C 0.17082 0.03473 0.42167 0.0
C334 C 0.17844 1.00746 0.44099 0.0
C335 C 0.21097 0.00942 0.45788 0.0
C336 C 0.19647 0.06307 0.41984 0.0
H337 H 0.26036 0.04022 0.46884 0.0
C338 C 0.31167 0.10666 0.4862 0.0
O339 O 0.28641 0.19393 0.53911 0.0
O340 O 0.25192 0.14465 0.54453 0.0
N341 N 0.21634 0.11796 0.40266 0.0
C342 C 0.21241 0.14732 0.38665 0.0
C343 C 0.18102 0.14985 0.36919 0.0
C344 C 0.15393 0.1223 0.36853 0.0
C345 C 0.15853 0.09239 0.38526 0.0
C346 C 0.19051 0.09117 0.40195 0.0
H347 H 0.23296 0.16881 0.38741 0.0
O348 O 0.22147 0.1757 0.4914 0.0
O349 O 0.23849 0.12842 0.47013 0.0
O350 O 0.2868 0.18923 0.46499 0.0
O351 O 0.28321 0.1522 0.41931 0.0
C352 C 0.13241 0.06407 0.38663 0.0
C353 C 0.13856 0.03525 0.40478 0.0
H354 H 0.15943 0.985 0.44323 0.0
H355 H 0.21701 0.98852 0.47291 0.0
H356 H 0.17763 0.17309 0.35648 0.0
H357 H 0.12965 0.12452 0.35534 0.0
H358 H 0.10738 0.06434 0.37407 0.0
H359 H 0.11818 0.01379 0.40591 0.0
Mn360 Mn 0.16571 0.01928 0.80453 0.0
Mn361 Mn 0.2242 0.04424 0.87031 0.0
C362 C 0.18433 0.07856 0.81933 0.0
C363 C 0.1486 1.00468 0.74731 0.0
C364 C 0.15018 0.01604 0.8783 0.0
O365 O 0.18835 0.97518 0.81073 0.0
O366 O 0.2298 0.99641 0.8518 0.0
C367 C 0.28684 0.0488 0.83482 0.0
N368 N 0.26609 0.06431 0.85454 0.0
C369 C 0.3024 0.11978 0.85657 0.0
C370 C 0.32432 0.10426 0.83663 0.0
C371 C 0.31647 0.06863 0.82568 0.0
C372 C 0.27337 0.09863 0.86515 0.0
H373 H 0.28075 0.02156 0.82589 0.0
C374 C 0.21536 0.97232 0.8295 0.0
O375 O 0.12954 0.99441 0.7706 0.0
O376 O 0.17869 0.02137 0.75732 0.0
N377 N 0.22194 0.09052 0.88921 0.0
C378 C 0.1973 0.10203 0.90679 0.0
C379 C 0.20095 0.13733 0.9189 0.0
C380 C 0.22984 0.16045 0.91279 0.0
C381 C 0.2549 0.14801 0.89473 0.0
C382 C 0.2501 0.11246 0.88365 0.0
H383 H 0.17492 0.08452 0.91146 0.0
O384 O 0.15487 0.06833 0.8028 0.0
O385 O 0.20134 0.05368 0.82726 0.0
O386 O 0.14067 0.01334 0.84696 0.0
O387 O 0.18128 0.02508 0.88985 0.0
C388 C 0.28414 0.16967 0.88675 0.0
C389 C 0.30786 0.15557 0.86766 0.0
H390 H 0.34706 0.11953 0.82928 0.0
H391 H 0.33312 0.05652 0.81003 0.0
H392 H 0.18144 0.14674 0.93273 0.0
H393 H 0.23238 0.18774 0.92184 0.0
H394 H 0.28844 0.1973 0.89482 0.0
H395 H 0.33003 0.17257 0.86133 0.0
Mn396 Mn 0.23853 0.89224 0.05122 0.0
Mn397 Mn 0.25421 0.95906 1.00081 0.0
C398 C 0.29404 0.91376 0.03973 0.0
C399 C 0.23554 0.86725 0.10473 0.0
C400 C 0.22759 0.88437 0.97279 0.0
O401 O 0.19384 0.91599 0.05185 0.0
O402 O 0.21051 0.96069 0.02052 0.0
C403 C 0.26545 0.01524 0.05628 0.0
N404 N 0.27509 1.00045 0.02746 0.0
C405 C 0.32428 0.04452 0.029 0.0
C406 C 0.31359 0.06154 0.05741 0.0
C407 C 0.28434 0.04649 0.07144 0.0
C408 C 0.30428 0.01353 0.01494 0.0
H409 H 0.24414 1.00266 0.06809 0.0
C410 C 0.18926 0.94494 0.03885 0.0
O411 O 0.22119 0.85089 0.07671 0.0
O412 O 0.24858 0.89957 0.10237 0.0
N413 N 0.29606 0.96193 0.98013 0.0
C414 C 0.30523 0.9399 0.95562 0.0
C415 C 0.33554 0.94938 0.94075 0.0
C416 C 0.35591 0.98159 0.95084 0.0
C417 C 0.34581 1.00399 0.97583 0.0
C418 C 0.31526 0.99323 0.98963 0.0
H419 H 0.28956 0.91531 0.94738 0.0
O420 O 0.28674 0.88233 0.04897 0.0
O421 O 0.26896 0.93138 0.03711 0.0
O422 O 0.22721 0.87112 1.00139 0.0
O423 O 0.2343 0.91729 0.97019 0.0
C424 C 0.36521 0.03627 0.98808 0.0
C425 C 0.35472 0.05626 0.01499 0.0
H426 H 0.32831 0.08544 0.06938 0.0
H427 H 0.27668 0.05867 0.09417 0.0
H428 H 0.34313 0.93195 0.92144 0.0
H429 H 0.37938 0.9887 0.93947 0.0
H430 H 0.38876 0.04549 0.97765 0.0
H431 H 0.37066 0.08016 0.02528 0.0
Mn432 Mn 0.27499 0.42051 0.07343 0.0
Mn433 Mn 0.29588 0.4914 0.03153 0.0
C434 C 0.33214 0.44339 0.07342 0.0
C435 C 0.25386 0.39032 0.11747 0.0
C436 C 0.2716 0.41895 0.99889 0.0
O437 O 0.23043 0.44041 0.06254 0.0
O438 O 0.25284 0.4943 0.05036 0.0
C439 C 0.30641 0.54826 0.08623 0.0
N440 N 0.31786 0.53117 0.05959 0.0
C441 C 0.36727 0.57471 0.0607 0.0
C442 C 0.35612 0.59288 0.08817 0.0
C443 C 0.32567 0.57943 0.10117 0.0
C444 C 0.34746 0.54336 0.04747 0.0
H445 H 0.28267 0.53826 0.09577 0.0
C446 C 0.22792 0.47209 0.05661 0.0
O447 O 0.24996 0.37708 0.08673 0.0
O448 O 0.26949 0.42243 0.1231 0.0
N449 N 0.33755 0.49257 1.01142 0.0
C450 C 0.3448 0.4715 0.98514 0.0
C451 C 0.37371 0.48142 0.96859 0.0
C452 C 0.39444 0.51318 0.97871 0.0
C453 C 0.38669 0.53464 1.00584 0.0
C454 C 0.35749 0.52328 0.02142 0.0
H455 H 0.32854 0.44755 0.97636 0.0
O456 O 0.32332 0.41178 0.08194 0.0
O457 O 0.3075 0.46127 0.0674 0.0
O458 O 0.27565 0.40383 0.02551 0.0
O459 O 0.27363 0.4521 0.9987 0.0
C460 C 0.40649 0.56682 0.01801 0.0
C461 C 0.39709 0.58654 0.04573 0.0
H462 H 0.37068 0.61719 0.09944 0.0
H463 H 0.31686 0.5933 0.12235 0.0
H464 H 0.37973 0.46489 0.94769 0.0
H465 H 0.41619 0.52029 0.96529 0.0
H466 H 0.42916 0.57668 1.00661 0.0
H467 H 0.41283 0.6109 0.05514 0.0
Mn468 Mn 0.81716 0.18959 0.03426 0.0
Mn469 Mn 0.78383 0.12378 0.97617 0.0
C470 C 0.75886 0.16971 0.02781 0.0
C471 C 0.83266 0.2127 0.09155 0.0
C472 C 0.80342 0.19863 0.95734 0.0
O473 O 0.85958 0.16415 0.02602 0.0
O474 O 0.83372 0.12426 0.98488 0.0
C475 C 0.79701 0.06424 0.01584 0.0
N476 N 0.7748 0.08148 0.99824 0.0
C477 C 0.72761 0.03865 1.00832 0.0
C478 C 0.75004 0.02029 0.0262 0.0
C479 C 0.7849 0.03317 0.02998 0.0
C480 C 0.74121 0.06917 0.99424 0.0
H481 H 0.8238 0.07406 0.01927 0.0
C482 C 0.86 0.13766 1.00455 0.0
O483 O 0.84186 0.23019 0.06632 0.0
O484 O 0.81899 0.18061 0.08351 0.0
N485 N 0.73566 0.11936 0.96649 0.0
C486 C 0.71708 0.14205 0.95174 0.0
C487 C 0.6815 0.13458 0.94887 0.0
C488 C 0.66547 0.10352 0.9603 0.0
C489 C 0.6851 0.08016 0.97475 0.0
C490 C 0.72048 0.08922 0.97744 0.0
H491 H 0.72923 0.16624 0.9433 0.0
O492 O 0.77038 0.20156 0.03917 0.0
O493 O 0.78157 0.15088 0.01892 0.0
O494 O 0.81648 0.21097 0.987 0.0
O495 O 0.79108 0.16633 0.95087 0.0
C496 C 0.67099 0.04928 0.98837 0.0
C497 C 0.6922 0.02841 1.00488 0.0
H498 H 0.74071 0.99655 0.03753 0.0
H499 H 0.80237 0.01932 0.04399 0.0
H500 H 0.66641 0.15309 0.93859 0.0
H501 H 0.63805 0.09863 0.9589 0.0
H502 H 0.64385 0.0417 0.98729 0.0
H503 H 0.68092 1.00506 0.01568 0.0
Mn504 Mn 0.11531 0.49643 0.28465 0.0
Mn505 Mn 0.18084 0.52419 0.34387 0.0
C506 C 0.142 0.55421 0.29008 0.0
C507 C 0.09049 0.48107 0.22805 0.0
C508 C 0.10753 0.51223 0.36129 0.0
O509 O 0.13505 0.4502 0.29309 0.0
O510 O 0.17349 0.47244 0.3366 0.0
C511 C 0.23601 0.50138 0.30613 0.0
N512 N 0.22273 0.52706 0.32324 0.0
C513 C 0.27143 0.56928 0.31593 0.0
C514 C 0.28575 0.54316 0.29875 0.0
C515 C 0.2679 0.50907 0.29376 0.0
C516 C 0.23975 0.55997 0.3282 0.0
H517 H 0.22246 0.47522 0.30171 0.0
C518 C 0.15927 0.44703 0.3157 0.0
O519 O 0.0735 0.47474 0.25389 0.0
O520 O 0.1226 0.49227 0.23516 0.0
N521 N 0.19185 0.57383 0.35252 0.0
C522 C 0.17262 0.59692 0.36534 0.0
C523 C 0.18553 0.63272 0.36886 0.0
C524 C 0.21854 0.64428 0.3606 0.0
C525 C 0.2379 0.62005 0.3475 0.0
C526 C 0.22346 0.58474 0.34384 0.0
H527 H 0.14715 0.58823 0.3716 0.0
O528 O 0.11021 0.54669 0.27897 0.0
O529 O 0.1565 0.52839 0.30003 0.0
O530 O 0.09519 0.49881 0.33182 0.0
O531 O 0.13922 0.52331 0.36805 0.0
C532 C 0.26998 0.62982 0.33576 0.0
C533 C 0.28684 0.60445 0.32027 0.0
H534 H 0.31017 0.54911 0.28879 0.0
H535 H 0.27859 0.48879 0.2802 0.0
H536 H 0.16987 0.65147 0.37741 0.0
H537 H 0.2281 0.67196 0.36307 0.0
H538 H 0.2814 0.65691 0.33715 0.0
H539 H 0.31117 0.61247 0.31077 0.0
Mn540 Mn 0.77726 0.92371 0.56896 0.0
Mn541 Mn 0.79946 0.99419 0.52731 0.0
C542 C 0.83445 0.94822 0.57294 0.0
C543 C 0.75248 0.89367 0.61123 0.0
C544 C 0.77903 0.92119 0.49502 0.0
O545 O 0.73265 0.94216 0.55451 0.0
O546 O 0.75479 0.99616 0.54262 0.0
C547 C 0.80479 0.05165 0.58093 0.0
N548 N 0.81858 0.03471 0.55574 0.0
C549 C 0.86702 0.07963 0.55912 0.0
C550 C 0.85347 0.09772 0.5851 0.0
C551 C 0.82233 0.08348 0.59627 0.0
C552 C 0.84884 0.0476 0.54547 0.0
H553 H 0.78053 0.04102 0.58903 0.0
C554 C 0.72983 0.97366 0.54815 0.0
O555 O 0.75181 0.87993 0.58091 0.0
O556 O 0.76745 0.92596 0.61752 0.0
N557 N 0.84278 0.99617 0.51051 0.0
C558 C 0.85268 0.9749 0.48583 0.0
C559 C 0.88281 0.98541 0.47134 0.0
C560 C 0.90197 0.01796 0.48183 0.0
C561 C 0.89143 0.03946 0.50736 0.0
C562 C 0.86128 0.02751 0.52096 0.0
H563 H 0.83759 0.95035 0.47671 0.0
O564 O 0.82556 0.91662 0.58148 0.0
O565 O 0.80959 0.96517 0.56463 0.0
O566 O 0.78214 0.90659 0.52203 0.0
O567 O 0.78011 0.95416 0.49415 0.0
C568 C 0.90944 0.07229 0.51976 0.0
C569 C 0.89768 0.09213 0.54598 0.0
H570 H 0.86672 0.12252 0.59663 0.0
H571 H 0.81167 0.09725 0.61631 0.0
H572 H 0.89094 0.96877 0.45171 0.0
H573 H 0.92484 0.02575 0.47014 0.0
H574 H 0.93247 0.08235 0.50951 0.0
H575 H 0.91225 0.11705 0.55561 0.0
Mn576 Mn 0.87275 0.05369 0.24408 0.0
Mn577 Mn 0.80537 0.03475 0.2899 0.0
C578 C 0.84934 0.99529 0.24885 0.0
C579 C 0.90268 0.06742 0.19701 0.0
C580 C 0.87707 0.05314 0.32131 0.0
O581 O 0.85409 0.10064 0.24773 0.0
O582 O 0.81295 0.08512 0.28155 0.0
C583 C 0.75376 0.04726 0.23627 0.0
N584 N 0.76558 0.0259 0.25877 0.0
C585 C 0.71825 0.98061 0.24212 0.0
C586 C 0.70549 1.0022 0.21891 0.0
C587 C 0.7234 0.03562 0.21589 0.0
C588 C 0.74884 0.9935 0.26148 0.0
H589 H 0.76739 0.07297 0.23383 0.0
C590 C 0.83041 0.1078 0.26563 0.0
O591 O 0.91561 0.07614 0.22755 0.0
O592 O 0.87118 0.05213 0.19333 0.0
N593 N 0.7935 0.98747 0.30083 0.0
C594 C 0.80822 0.97065 0.32573 0.0
C595 C 0.79282 0.93734 0.33278 0.0
C596 C 0.76213 0.92199 0.31466 0.0
C597 C 0.74689 0.94023 0.28998 0.0
C598 C 0.76324 0.97346 0.28425 0.0
H599 H 0.83155 0.98256 0.34008 0.0
O600 O 0.88053 1.00359 0.24194 0.0
O601 O 0.83217 0.02132 0.25255 0.0
O602 O 0.88932 0.05943 0.29365 0.0
O603 O 0.84559 0.04275 0.32367 0.0
C604 C 0.716 0.92677 0.27095 0.0
C605 C 0.70181 0.94685 0.24685 0.0
H606 H 0.68199 0.99337 0.20328 0.0
H607 H 0.71378 0.0524 0.19796 0.0
H608 H 0.80456 0.92353 0.35214 0.0
H609 H 0.75031 0.89629 0.31993 0.0
H610 H 0.70298 0.90101 0.27465 0.0
H611 H 0.67811 0.93618 0.23228 0.0
Mn612 Mn 0.31724 0.68948 0.53726 0.0
Mn613 Mn 0.28858 0.62392 0.47708 0.0
C614 C 0.25966 0.66806 0.52795 0.0
C615 C 0.33067 0.71179 0.59513 0.0
C616 C 0.30796 0.69951 0.45999 0.0
O617 O 0.36036 0.66496 0.53135 0.0
O618 O 0.33827 0.62356 0.48963 0.0
C619 C 0.29718 0.56217 0.51528 0.0
N620 N 0.27674 0.58079 0.4971 0.0
C621 C 0.22773 0.53793 0.50185 0.0
C622 C 0.24834 0.51827 0.52044 0.0
C623 C 0.28322 0.53045 0.52716 0.0
C624 C 0.24319 0.56901 0.49003 0.0
H625 H 0.32394 0.57136 0.52068 0.0
C626 C 0.36286 0.63828 0.51092 0.0
O627 O 0.3403 0.72989 0.57044 0.0
O628 O 0.31716 0.67979 0.58636 0.0
N629 N 0.241 0.62079 0.4641 0.0
C630 C 0.22397 0.64536 0.45052 0.0
C631 C 0.18839 0.63934 0.44631 0.0
C632 C 0.17071 0.60765 0.4547 0.0
C633 C 0.18873 0.58237 0.46793 0.0
C634 C 0.22421 0.5903 0.47271 0.0
H635 H 0.23726 0.67009 0.44449 0.0
O636 O 0.26986 0.69998 0.54007 0.0
O637 O 0.28335 0.65011 0.51983 0.0
O638 O 0.31814 0.71201 0.49038 0.0
O639 O 0.29823 0.66683 0.45279 0.0
C640 C 0.17275 0.55087 0.479 0.0
C641 C 0.19227 0.5285 0.49562 0.0
H642 H 0.23757 0.49404 0.53008 0.0
H643 H 0.29928 0.51552 0.54165 0.0
H644 H 0.17455 0.65949 0.43742 0.0
H645 H 0.14327 0.60399 0.4526 0.0
H646 H 0.14539 0.54415 0.47599 0.0
H647 H 0.17961 0.50471 0.50461 0.0
Mn648 Mn 0.36867 0.5541 0.73794 0.0
Mn649 Mn 0.30191 0.53529 0.7846 0.0
C650 C 0.34619 0.49584 0.74424 0.0
C651 C 0.39744 0.56649 0.69 0.0
C652 C 0.37367 0.55446 0.81519 0.0
O653 O 0.34965 0.60076 0.7409 0.0
O654 O 0.30961 0.58551 0.77595 0.0
C655 C 0.25008 0.54738 0.731 0.0
N656 N 0.26194 0.52627 0.75372 0.0
C657 C 0.21432 0.48108 0.73789 0.0
C658 C 0.20152 0.50242 0.71445 0.0
C659 C 0.21957 0.53565 0.7109 0.0
C660 C 0.24511 0.494 0.75687 0.0
H661 H 0.2638 0.57296 0.72819 0.0
C662 C 0.32667 0.60805 0.7596 0.0
O663 O 0.41093 0.57668 0.72011 0.0
O664 O 0.36616 0.55068 0.68725 0.0
N665 N 0.28995 0.48822 0.7961 0.0
C666 C 0.30451 0.47189 0.82147 0.0
C667 C 0.28886 0.43896 0.8293 0.0
C668 C 0.25801 0.42353 0.81152 0.0
C669 C 0.24292 0.44131 0.78635 0.0
C670 C 0.25953 0.4742 0.77987 0.0
H671 H 0.32791 0.4839 0.83564 0.0
O672 O 0.37723 0.50429 0.73695 0.0
O673 O 0.3286 0.52156 0.74737 0.0
O674 O 0.38562 0.56126 0.78747 0.0
O675 O 0.34237 0.54334 0.81777 0.0
C676 C 0.21184 0.42782 0.76767 0.0
C677 C 0.19769 0.44757 0.74324 0.0
H678 H 0.17787 0.49355 0.69906 0.0
H679 H 0.20991 0.55225 0.69281 0.0
H680 H 0.3005 0.42554 0.84903 0.0
H681 H 0.24595 0.39816 0.81752 0.0
H682 H 0.19862 0.40232 0.77193 0.0
H683 H 0.17382 0.43689 0.72897 0.0
Mn684 Mn 0.61629 0.9961 0.78409 0.0
Mn685 Mn 0.68274 0.02445 0.84206 0.0
C686 C 0.64235 0.05428 0.78917 0.0
C687 C 0.59068 0.98029 0.72791 0.0
C688 C 0.60991 0.01128 0.86108 0.0
O689 O 0.63651 0.94995 0.79226 0.0
O690 O 0.67633 0.9728 0.83433 0.0
C691 C 0.73742 1.00317 0.80275 0.0
N692 N 0.72392 0.02844 0.8202 0.0
C693 C 0.77083 0.07195 0.81082 0.0
C694 C 0.78536 0.04629 0.79318 0.0
C695 C 0.76853 0.01175 0.78908 0.0
C696 C 0.73997 0.06177 0.82435 0.0
H697 H 0.72462 0.97664 0.79906 0.0
C698 C 0.66152 0.9471 0.8141 0.0
O699 O 0.57417 0.97395 0.75406 0.0
O700 O 0.62279 0.99182 0.73446 0.0
N701 N 0.69279 0.07412 0.85097 0.0
C702 C 0.67379 0.09643 0.86551 0.0
C703 C 0.68589 0.13242 0.86898 0.0
C704 C 0.71777 0.14498 0.85855 0.0
C705 C 0.73708 0.12151 0.844 0.0
C706 C 0.72355 0.08595 0.84074 0.0
H707 H 0.64915 0.08695 0.87344 0.0
O708 O 0.6105 0.04625 0.77845 0.0
O709 O 0.65733 0.02863 0.79878 0.0
O710 O 0.59701 0.99852 0.83157 0.0
O711 O 0.64169 0.02223 0.86735 0.0
C712 C 0.7683 0.13217 0.83088 0.0
C713 C 0.78526 0.10742 0.81455 0.0
H714 H 0.80917 0.05292 0.78225 0.0
H715 H 0.77939 0.9918 0.77523 0.0
H716 H 0.6704 0.15059 0.87906 0.0
H717 H 0.72652 0.17282 0.86073 0.0
H718 H 0.77908 0.15942 0.8321 0.0
H719 H 0.80895 0.11611 0.80412 0.0
Mn720 Mn 0.76316 0.65529 0.99915 0.0
Mn721 Mn 0.75362 0.59951 0.92967 0.0
C722 C 0.7102 0.63592 0.97192 0.0
C723 C 0.76554 0.67116 0.05594 0.0
C724 C 0.78367 0.67577 0.93084 0.0
O725 O 0.80533 0.63178 1.00372 0.0
O726 O 0.79556 0.59343 0.95737 0.0
C727 C 0.74294 0.53147 0.96005 0.0
N728 N 0.73126 0.55475 0.93955 0.0
C729 C 0.67768 0.51725 0.92652 0.0
C730 C 0.68915 0.49294 0.9475 0.0
C731 C 0.72195 0.50006 0.96428 0.0
C732 C 0.69988 0.54796 0.92296 0.0
H733 H 0.768 0.53685 0.97327 0.0
C734 C 0.8123 0.60588 0.98538 0.0
O735 O 0.7808 0.6911 0.0354 0.0
O736 O 0.74984 0.64058 0.04384 0.0
N737 N 0.7125 0.60282 0.90261 0.0
C738 C 0.70462 0.62966 0.88454 0.0
C739 C 0.67247 0.62684 0.86669 0.0
C740 C 0.64865 0.59665 0.86783 0.0
C741 C 0.65731 0.56938 0.88659 0.0
C742 C 0.68993 0.57341 0.90346 0.0
H743 H 0.72264 0.65312 0.88382 0.0
O744 O 0.71602 0.66625 0.989 0.0
O745 O 0.73619 0.61987 0.96953 0.0
O746 O 0.77984 0.68273 0.96145 0.0
O747 O 0.776 0.6451 0.91608 0.0
C748 C 0.63465 0.5386 0.88964 0.0
C749 C 0.64483 0.51255 0.90958 0.0
H750 H 0.67291 0.46883 0.95111 0.0
H751 H 0.73095 0.48147 0.9806 0.0
H752 H 0.66601 0.64791 0.85215 0.0
H753 H 0.62375 0.59475 0.85431 0.0
H754 H 0.60921 0.53483 0.877 0.0
H755 H 0.62707 0.48915 0.912 0.0
Mn756 Mn 0.92067 0.57556 0.76604 0.0
Mn757 Mn 0.85179 0.57196 0.81194 0.0
C758 C 0.89172 0.52219 0.77957 0.0
C759 C 0.94785 0.57493 0.71422 0.0
C760 C 0.92457 0.59108 0.84399 0.0
O761 O 0.90439 0.62414 0.76062 0.0
O762 O 0.85716 0.61562 0.78856 0.0
C763 C 0.79806 0.56556 0.7552 0.0
N764 N 0.81119 0.55352 0.7839 0.0
C765 C 0.76368 0.50737 0.78219 0.0
C766 C 0.74946 0.51964 0.75286 0.0
C767 C 0.76687 0.54873 0.73916 0.0
C768 C 0.79507 0.52499 0.79679 0.0
H769 H 0.81139 0.58769 0.74461 0.0
C770 C 0.87674 0.63357 0.77021 0.0
O771 O 0.9635 0.58821 0.74287 0.0
O772 O 0.9157 0.56377 0.71501 0.0
N773 N 0.84238 0.53082 0.8359 0.0
C774 C 0.85951 0.52198 0.86427 0.0
C775 C 0.84538 0.49358 0.88125 0.0
C776 C 0.81352 0.47479 0.86927 0.0
C777 C 0.79603 0.48465 0.84043 0.0
C778 C 0.8113 0.51334 0.82467 0.0
H779 H 0.88377 0.53642 0.87402 0.0
O780 O 0.92289 0.5245 0.7719 0.0
O781 O 0.8785 0.55065 0.77916 0.0
O782 O 0.93908 0.58755 0.81671 0.0
O783 O 0.89235 0.58944 0.84395 0.0
C784 C 0.76407 0.46706 0.82668 0.0
C785 C 0.74807 0.47819 0.79738 0.0
H786 H 0.72534 0.50679 0.74051 0.0
H787 H 0.75624 0.55821 0.71635 0.0
H788 H 0.85898 0.4863 0.90362 0.0
H789 H 0.80275 0.45282 0.88236 0.0
H790 H 0.75173 0.44471 0.83825 0.0
H791 H 0.72374 0.46413 0.78674 0.0
Mn792 Mn 0.73637 0.3919 0.54769 0.0
Mn793 Mn 0.7516 0.4564 0.49437 0.0
C794 C 0.79191 0.4146 0.53703 0.0
C795 C 0.73431 0.36758 0.60169 0.0
C796 C 0.72776 0.38048 0.46906 0.0
O797 O 0.69094 0.41495 0.54713 0.0
O798 O 0.70644 0.4556 0.51126 0.0
C799 C 0.75323 0.51808 0.54279 0.0
N800 N 0.76833 0.50013 0.51929 0.0
C801 C 0.81615 0.54609 0.52237 0.0
C802 C 0.80102 0.56511 0.54647 0.0
C803 C 0.76948 0.55098 0.5568 0.0
C804 C 0.79876 0.51343 0.50928 0.0
H805 H 0.72897 0.50742 0.55079 0.0
C806 C 0.68526 0.44167 0.53069 0.0
O807 O 0.72026 0.35055 0.57391 0.0
O808 O 0.74599 0.40021 0.59891 0.0
N809 N 0.79504 0.46077 0.47668 0.0
C810 C 0.80707 0.43834 0.45452 0.0
C811 C 0.83883 0.44814 0.44244 0.0
C812 C 0.85771 0.48102 0.45293 0.0
C813 C 0.84464 0.50383 0.47541 0.0
C814 C 0.81279 0.49269 0.48653 0.0
H815 H 0.79265 0.4131 0.44617 0.0
O816 O 0.78491 0.38321 0.54641 0.0
O817 O 0.76639 0.43158 0.53314 0.0
O818 O 0.72572 0.36876 0.49825 0.0
O819 O 0.7356 0.41292 0.46514 0.0
C820 C 0.86226 0.53693 0.48771 0.0
C821 C 0.84807 0.558 0.51124 0.0
H822 H 0.81349 0.59047 0.5574 0.0
H823 H 0.75769 0.56546 0.57547 0.0
H824 H 0.84873 0.43038 0.42507 0.0
H825 H 0.88231 0.48839 0.44374 0.0
H826 H 0.88698 0.54621 0.47965 0.0
H827 H 0.86209 0.58317 0.52089 0.0
Mn828 Mn 0.65855 0.51865 0.29969 0.0
Mn829 Mn 0.7183 0.53855 0.36491 0.0
C830 C 0.68014 0.57703 0.31608 0.0
C831 C 0.63917 0.50563 0.24326 0.0
C832 C 0.64405 0.51305 0.37353 0.0
O833 O 0.67893 0.47298 0.30283 0.0
O834 O 0.72036 0.49042 0.34487 0.0
C835 C 0.78023 0.53968 0.32865 0.0
N836 N 0.76069 0.55643 0.34878 0.0
C837 C 0.7997 0.61015 0.35102 0.0
C838 C 0.82029 0.59341 0.33045 0.0
C839 C 0.81051 0.55802 0.31924 0.0
C840 C 0.76994 0.59045 0.35982 0.0
H841 H 0.77274 0.51256 0.3197 0.0
C842 C 0.70507 0.46785 0.32157 0.0
O843 O 0.62073 0.49617 0.26722 0.0
O844 O 0.66995 0.52133 0.25201 0.0
N845 N 0.71916 0.58493 0.38512 0.0
C846 C 0.69576 0.59769 0.40356 0.0
C847 C 0.70154 0.63288 0.41628 0.0
C848 C 0.73122 0.6546 0.40985 0.0
C849 C 0.75496 0.64089 0.39087 0.0
C850 C 0.74806 0.60549 0.37921 0.0
H851 H 0.67276 0.58125 0.40839 0.0
O852 O 0.65004 0.56863 0.30034 0.0
O853 O 0.69598 0.55085 0.32257 0.0
O854 O 0.63438 0.51196 0.34239 0.0
O855 O 0.6752 0.52127 0.38502 0.0
C856 C 0.78489 0.66111 0.38254 0.0
C857 C 0.80723 0.64576 0.36262 0.0
H858 H 0.84353 0.60753 0.32292 0.0
H859 H 0.8262 0.54495 0.30325 0.0
H860 H 0.68303 0.6433 0.4308 0.0
H861 H 0.73539 0.68183 0.41937 0.0
H862 H 0.7908 0.6886 0.39104 0.0
H863 H 0.83 0.66167 0.35611 0.0
Tb864 Tb 0.04056 0.07838 0.03371 0.0
C865 C 0.05095 0.01948 0.97625 0.0
Tb866 Tb 1.00443 1.00007 0.03443 0.0
O867 O 0.09244 0.06942 0.05186 0.0
O868 O 0.05257 0.0296 0.0452 0.0
O869 O 0.04974 0.05295 0.98499 0.0
C870 C 0.99574 0.94149 0.06626 0.0
O871 O 0.03707 0.99354 0.99338 0.0
C872 C 0.9668 0.04619 1.00857 0.0
C873 C 0.99536 0.05806 0.09423 0.0
O874 O 0.97913 0.94618 0.03773 0.0
O875 O 0.01714 0.9693 0.07602 0.0
O876 O 0.96028 0.01228 1.00109 0.0
O877 O 0.99149 0.05038 0.0306 0.0
O878 O 0.99054 0.02485 0.08137 0.0
O879 O 0.01394 0.08404 0.08014 0.0
C880 C 0.04174 0.13416 0.99859 0.0
O881 O 0.0575 0.13427 0.02874 0.0
O882 O 0.02495 0.10341 0.9895 0.0
C883 C 0.08428 0.03552 0.0526 0.0
Tb884 Tb 0.27683 0.82943 0.29776 0.0
C885 C 0.33734 0.78271 0.30224 0.0
Tb886 Tb 0.26247 0.74751 0.27417 0.0
O887 O 0.2808 0.82296 0.35306 0.0
O888 O 0.26863 0.78099 0.3187 0.0
O889 O 0.3276 0.81412 0.30133 0.0
C890 C 0.22824 0.68413 0.2784 0.0
O891 O 0.31639 0.75261 0.29396 0.0
C892 C 0.26598 0.78771 0.22188 0.0
C893 C 0.20236 0.7953 0.26782 0.0
O894 O 0.25488 0.69057 0.26154 0.0
O895 O 0.2228 0.71278 0.29424 0.0
O896 O 0.2622 0.75358 0.21918 0.0
O897 O 0.27056 0.79597 0.2533 0.0
O898 O 0.21212 0.76384 0.26727 0.0
O899 O 0.22291 0.8249 0.27868 0.0
C900 C 0.30498 0.89409 0.28991 0.0
O901 O 0.2826 0.8859 0.31125 0.0
O902 O 0.31119 0.8662 0.27344 0.0
C903 C 0.27589 0.7888 0.35005 0.0
Tb904 Tb 0.54411 0.0444 0.52762 0.0
C905 C 0.52795 1.00518 0.5954 0.0
Tb906 Tb 0.47353 0.02263 0.54057 0.0
O907 O 0.54352 0.09951 0.54136 0.0
O908 O 0.51317 0.06108 0.56475 0.0
O909 O 0.55011 0.01735 0.57431 0.0
C910 C 0.40632 0.0227 0.54034 0.0
O911 O 0.49484 1.00601 0.58865 0.0
C912 C 0.50042 0.97647 0.50435 0.0
C913 C 0.49046 0.06715 0.47655 0.0
O914 O 0.4212 1.00217 0.5217 0.0
O915 O 0.42963 0.04095 0.56144 0.0
O916 O 0.47971 0.96801 0.52698 0.0
O917 O 0.50396 0.00897 0.50272 0.0
O918 O 0.46963 0.05961 0.50041 0.0
O919 O 0.52209 0.06003 0.47992 0.0
C920 C 0.60415 0.02533 0.51948 0.0
O921 O 0.5991 0.05755 0.5259 0.0
O922 O 0.57541 1.00487 0.51591 0.0
C923 C 0.51996 0.09374 0.56201 0.0
Tb924 Tb 0.27434 0.29829 0.81877 0.0
C925 C 0.28832 0.35321 0.76312 0.0
Tb926 Tb 0.24891 0.27657 0.74328 0.0
O927 O 0.32798 0.28867 0.81626 0.0
O928 O 0.29291 0.27996 0.77531 0.0
O929 O 0.28813 0.3472 0.79544 0.0
C930 C 0.24864 0.24623 0.682 0.0
O931 O 0.27562 0.3293 0.73824 0.0
C932 C 0.20578 0.30526 0.77923 0.0
C933 C 0.24291 0.22008 0.79882 0.0
O934 O 0.27068 0.27208 0.69568 0.0
O935 O 0.2252 0.23842 0.70218 0.0
O936 O 0.20565 0.30566 0.74656 0.0
O937 O 0.22705 0.28603 0.78887 0.0
O938 O 0.24561 0.22612 0.76653 0.0
O939 O 0.24933 0.24524 0.82378 0.0
C940 C 0.26893 0.3333 0.87613 0.0
O941 O 0.28353 0.3053 0.87344 0.0
O942 O 0.25749 0.34119 0.84677 0.0
C943 C 0.3235 0.2784 0.78418 0.0
Tb944 Tb 1.00797 0.04548 0.49332 0.0
C945 C 0.96909 0.01204 0.55181 0.0
Tb946 Tb 0.04816 0.04129 0.56297 0.0
O947 O 1.00055 0.98818 0.48519 0.0
O948 O 0.04255 0.01479 0.51456 0.0
O949 O 0.96675 0.0276 0.52328 0.0
C950 C 0.08248 0.02169 0.61756 0.0
O951 O 0.99836 0.01153 0.57006 0.0
C952 C 0.02908 0.10225 0.55313 0.0
C953 C 0.08572 0.07216 0.50314 0.0
O954 O 0.05067 0.01117 0.60784 0.0
O955 O 0.09475 0.0434 0.59675 0.0
O956 O 0.05312 0.09783 0.57556 0.0
O957 O 0.01412 0.07252 0.54183 0.0
O958 O 0.08749 0.05148 0.5284 0.0
O959 O 0.05636 0.07755 0.48808 0.0
C960 C 0.97474 0.0603 0.43658 0.0
O961 O 0.99755 0.03962 0.43836 0.0
O962 O 0.97154 0.07335 0.46658 0.0
C963 C 0.027 0.98485 0.50511 0.0
Tb964 Tb 0.30822 0.79406 0.80436 0.0
C965 C 0.24622 0.80866 0.84587 0.0
Tb966 Tb 0.23796 0.79007 0.76631 0.0
O967 O 0.31407 0.85014 0.81918 0.0
O968 O 0.28103 0.829 0.77808 0.0
O969 O 0.27619 0.79729 0.84654 0.0
C970 C 0.18291 0.79732 0.72711 0.0
O971 O 0.22737 0.81013 0.81697 0.0
C972 C 0.25929 0.72905 0.77339 0.0
C973 C 0.29982 0.77647 0.72442 0.0
O974 O 0.18301 0.77875 0.75313 0.0
O975 O 0.2132 0.81376 0.72492 0.0
O976 O 0.23662 0.7346 0.75021 0.0
O977 O 0.265 0.75589 0.79378 0.0
O978 O 0.26979 0.78755 0.72416 0.0
O979 O 0.31883 0.77487 0.75318 0.0
C980 C 0.3625 0.77942 0.84022 0.0
O981 O 0.36312 0.79503 0.81243 0.0
O982 O 0.33151 0.77171 0.84751 0.0
C983 C 0.28921 0.85603 0.79845 0.0
Tb984 Tb 0.48851 0.02509 0.0274 0.0
C985 C 0.55003 0.98432 0.03387 0.0
Tb986 Tb 0.5617 0.06543 0.04698 0.0
O987 O 0.49227 0.01464 0.97243 0.0
O988 O 0.53232 0.0415 1.00281 0.0
O989 O 0.51861 0.98487 0.04202 0.0
C990 C 0.62362 0.10328 0.04747 0.0
O991 O 0.57052 0.01344 0.02968 0.0
C992 C 0.52467 0.04989 0.09923 0.0
C993 C 0.50026 0.10847 0.03752 0.0
O994 O 0.61631 0.07539 0.06337 0.0
O995 O 0.59601 0.10989 0.03131 0.0
O996 O 0.5577 0.05546 0.10082 0.0
O997 O 0.51504 0.05616 0.0698 0.0
O998 O 0.53366 0.10884 0.03758 0.0
O999 O 0.47819 0.079 0.03638 0.0
C1000 C 0.42849 0.98739 0.03324 0.0
O1001 O 0.43379 0.01266 0.01355 0.0
O1002 O 0.45677 0.98366 0.05005 0.0
C1003 C 0.52374 0.02911 0.9727 0.0
Tb1004 Tb 0.24152 0.26868 0.28965 0.0
C1005 C 0.3048 0.28491 0.34574 0.0
Tb1006 Tb 0.30391 0.31713 0.27639 0.0
O1007 O 0.25637 0.22325 0.26091 0.0
O1008 O 0.29259 0.26313 0.28315 0.0
O1009 O 0.27176 0.27561 0.33834 0.0
C1010 C 0.35398 0.34185 0.23967 0.0
O1011 O 0.3246 0.29907 0.32358 0.0
C1012 C 0.25546 0.34847 0.30239 0.0
C1013 C 0.24514 0.29601 0.22009 0.0
O1014 O 0.32236 0.34526 0.23426 0.0
O1015 O 0.35782 0.32675 0.26752 0.0
O1016 O 0.28783 0.36058 0.3073 0.0
O1017 O 0.25243 0.32231 0.28162 0.0
O1018 O 0.27771 0.29492 0.22781 0.0
O1019 O 0.22377 0.29008 0.24345 0.0
C1020 C 0.1935 0.25557 0.33116 0.0
O1021 O 0.19301 0.23886 0.30147 0.0
O1022 O 0.2199 0.2793 0.33611 0.0
C1023 C 0.28872 0.23594 0.26338 0.0
Tb1024 Tb 0.50399 0.53568 0.98459 0.0
C1025 C 0.46465 0.50485 0.04412 0.0
Tb1026 Tb 0.54325 0.53259 0.05502 0.0
O1027 O 0.49352 0.47894 0.97538 0.0
O1028 O 0.53422 0.50211 1.00854 0.0
O1029 O 0.46263 0.51998 0.01533 0.0
C1030 C 0.57426 0.51515 0.11171 0.0
O1031 O 0.49371 0.5034 0.06206 0.0
C1032 C 0.53105 0.59524 0.04069 0.0
C1033 C 0.58288 0.55812 0.99446 0.0
O1034 O 0.58775 0.51791 0.08338 0.0
O1035 O 0.54346 0.5222 0.10811 0.0
O1036 O 0.5539 0.58987 0.06395 0.0
O1037 O 0.51339 0.5662 0.03105 0.0
O1038 O 0.58407 0.54103 0.02225 0.0
O1039 O 0.55415 0.56239 0.97744 0.0
C1040 C 0.4693 0.55333 0.93017 0.0
O1041 O 0.49456 0.53561 0.92978 0.0
O1042 O 0.4643 0.56173 0.96104 0.0
C1043 C 0.51658 0.47321 0.99831 0.0
Tb1044 Tb 0.80799 0.29623 0.29925 0.0
C1045 C 0.74608 0.30418 0.34265 0.0
Tb1046 Tb 0.73738 0.28806 0.26262 0.0
O1047 O 0.80685 0.35041 0.31621 0.0
O1048 O 0.77858 0.32905 0.27203 0.0
O1049 O 0.7768 0.29465 0.34232 0.0
C1050 C 0.68044 0.29697 0.22725 0.0
O1051 O 0.72643 0.30518 0.31413 0.0
C1052 C 0.76229 0.22937 0.27081 0.0
C1053 C 0.79977 0.27913 0.21927 0.0
O1054 O 0.68395 0.27044 0.24485 0.0
O1055 O 0.7084 0.31886 0.23071 0.0
O1056 O 0.74052 0.23368 0.24617 0.0
O1057 O 0.76606 0.25617 0.29134 0.0
O1058 O 0.76806 0.28603 0.21949 0.0
O1059 O 0.82042 0.28121 0.24759 0.0
C1060 C 0.86512 0.28914 0.33494 0.0
O1061 O 0.85824 0.31781 0.32294 0.0
O1062 O 0.84057 0.26387 0.32554 0.0
C1063 C 0.78357 0.35549 0.29336 0.0
Tb1064 Tb 0.98978 0.52379 0.52899 0.0
C1065 C 0.05208 0.48559 0.53054 0.0
Tb1066 Tb 0.05979 0.56641 0.54091 0.0
O1067 O 0.99441 0.50673 0.47612 0.0
O1068 O 0.02406 0.55178 0.49773 0.0
O1069 O 0.02241 0.48564 0.54316 0.0
C1070 C 0.12336 0.59974 0.54013 0.0
O1071 O 0.07039 0.51505 0.5239 0.0
C1072 C 0.02644 0.56166 0.59622 0.0
C1073 C 0.99772 0.60624 0.5378 0.0
O1074 O 0.11456 0.57252 0.55654 0.0
O1075 O 0.0965 0.60768 0.52373 0.0
O1076 O 0.05076 0.58628 0.59155 0.0
O1077 O 0.02512 0.53807 0.57223 0.0
O1078 O 0.02962 0.60751 0.53058 0.0
O1079 O 0.97795 0.57639 0.54126 0.0
C1080 C 0.92781 0.48802 0.53443 0.0
O1081 O 0.93604 0.52171 0.5388 0.0
O1082 O 0.95428 0.47464 0.52675 0.0
C1083 C 0.02059 0.52951 0.47235 0.0
Tb1084 Tb 0.77616 0.79535 0.3176 0.0
C1085 C 0.7903 0.85156 0.26308 0.0
Tb1086 Tb 0.75059 0.77518 0.24213 0.0
O1087 O 0.82975 0.78582 0.31486 0.0
O1088 O 0.7948 0.77774 0.27379 0.0
O1089 O 0.79005 0.84477 0.29518 0.0
C1090 C 0.749 0.745 0.1805 0.0
O1091 O 0.77756 0.8281 0.23779 0.0
C1092 C 0.70786 0.80396 0.27853 0.0
C1093 C 0.74352 0.71766 0.29701 0.0
O1094 O 0.77173 0.77027 0.19414 0.0
O1095 O 0.72574 0.73772 0.20096 0.0
O1096 O 0.70793 0.80503 0.24595 0.0
O1097 O 0.72872 0.78412 0.28783 0.0
O1098 O 0.74616 0.7242 0.2648 0.0
O1099 O 0.75069 0.74242 0.3223 0.0
C1100 C 0.77179 0.83065 0.37498 0.0
O1101 O 0.78695 0.80303 0.3721 0.0
O1102 O 0.75896 0.83772 0.34586 0.0
C1103 C 0.82543 0.77625 0.28266 0.0
Tb1104 Tb 0.77493 0.32904 0.7953 0.0
C1105 C 0.83512 0.28256 0.79749 0.0
Tb1106 Tb 0.76008 0.24952 0.77041 0.0
O1107 O 0.77975 0.32296 0.8506 0.0
O1108 O 0.76992 0.28062 0.81618 0.0
O1109 O 0.82573 0.31383 0.79441 0.0
C1110 C 0.72488 0.18572 0.77265 0.0
O1111 O 0.81323 0.25292 0.7918 0.0
C1112 C 0.77003 0.29352 0.72156 0.0
C1113 C 0.69857 0.29605 0.77003 0.0
O1114 O 0.72116 0.21367 0.79062 0.0
O1115 O 0.74987 0.1931 0.7539 0.0
O1116 O 0.77475 0.26074 0.71935 0.0
O1117 O 0.75809 0.29813 0.74954 0.0
O1118 O 0.70926 0.26523 0.76501 0.0
O1119 O 0.7195 0.32524 0.78177 0.0
C1120 C 0.803 0.39365 0.78691 0.0
O1121 O 0.7829 0.38526 0.81024 0.0
O1122 O 0.80692 0.36593 0.76861 0.0
C1123 C 0.77616 0.28887 0.84751 0.0
Tb1124 Tb 0.73902 0.76723 0.78202 0.0
C1125 C 0.79506 0.78454 0.84272 0.0
Tb1126 Tb 0.80472 0.81477 0.77506 0.0
O1127 O 0.75537 0.72366 0.75167 0.0
O1128 O 0.79033 0.76081 0.77968 0.0
O1129 O 0.76261 0.78486 0.83304 0.0
C1130 C 0.85739 0.82583 0.73896 0.0
O1131 O 0.81847 0.79231 0.82167 0.0
C1132 C 0.75653 0.8473 0.79962 0.0
C1133 C 0.74471 0.80532 0.71549 0.0
O1134 O 0.85301 0.84606 0.76534 0.0
O1135 O 0.83299 0.79981 0.73418 0.0
O1136 O 0.78909 0.85892 0.80533 0.0
O1137 O 0.75351 0.82131 0.7785 0.0
O1138 O 0.77721 0.81512 0.72575 0.0
O1139 O 0.72325 0.78784 0.73432 0.0
C1140 C 0.68324 0.74637 0.81294 0.0
O1141 O 0.71331 0.73892 0.82071 0.0
O1142 O 0.68443 0.76239 0.78543 0.0
C1143 C 0.78778 0.73514 0.75826 0.0
Tb1144 Tb 0.53413 0.57404 0.52733 0.0
C1145 C 0.54626 0.51464 0.47253 0.0
Tb1146 Tb 0.50656 0.49687 0.53623 0.0
O1147 O 0.58747 0.56548 0.53341 0.0
O1148 O 0.55093 0.53201 0.55304 0.0
O1149 O 0.54338 0.54793 0.47968 0.0
C1150 C 0.50134 0.43548 0.5632 0.0
O1151 O 0.53509 0.48942 0.49186 0.0
C1152 C 0.45999 0.53737 0.51716 0.0
C1153 C 0.49398 0.55534 0.5905 0.0
O1154 O 0.48292 0.44199 0.53645 0.0
O1155 O 0.52322 0.46282 0.57327 0.0
O1156 O 0.45367 0.50909 0.53281 0.0
O1157 O 0.49038 0.53863 0.50981 0.0
O1158 O 0.49956 0.52273 0.58448 0.0
O1159 O 0.50471 0.5808 0.57122 0.0
C1160 C 0.53633 0.63282 0.49648 0.0
O1161 O 0.55302 0.63019 0.52556 0.0
O1162 O 0.51787 0.60327 0.48646 0.0
C1163 C 0.58179 0.53551 0.54648 0.0
Tb1164 Tb 0.04522 0.54504 0.02659 0.0
C1165 C 0.02919 0.50635 0.09484 0.0
Tb1166 Tb 0.97496 0.52364 0.03996 0.0
O1167 O 0.04447 0.60027 0.03944 0.0
O1168 O 0.01464 0.56221 0.06378 0.0
O1169 O 0.05127 0.51813 0.07351 0.0
C1170 C 0.90803 0.5242 0.04105 0.0
O1171 O 0.99615 0.50734 0.08814 0.0
C1172 C 1.00136 0.47689 1.00403 0.0
C1173 C 0.99138 0.567 0.97494 0.0
O1174 O 0.93186 0.54326 0.06093 0.0
O1175 O 0.92232 0.50266 0.02292 0.0
O1176 O 0.98081 0.46887 0.02691 0.0
O1177 O 1.00504 0.50934 1.00204 0.0
O1178 O 0.97053 0.55948 0.99881 0.0
O1179 O 0.0232 0.56036 0.97861 0.0
C1180 C 0.10556 0.52611 0.01973 0.0
O1181 O 0.10041 0.55814 0.02693 0.0
O1182 O 0.07673 0.50592 0.01414 0.0
C1183 C 0.02132 0.59478 0.06055 0.0
C1184 C 0.02877 0.18382 0.92133 0.0
C1185 C 0.04578 0.21727 0.93231 0.0
H1186 H 0.01382 0.13147 0.93413 0.0
C1187 C 0.06307 0.22283 0.96489 0.0
H1188 H 0.01503 0.17882 0.89657 0.0
C1189 C 0.06222 0.19585 0.98653 0.0
C1190 C 0.04398 0.16287 0.97603 0.0
H1191 H 0.07648 0.24841 0.9741 0.0
H1192 H 0.07522 0.201 1.01162 0.0
C1193 C 0.0278 0.15689 0.94304 0.0
C1194 C 0.12615 0.77618 0.20276 0.0
C1195 C 0.10093 0.79121 0.21853 0.0
H1196 H 0.17748 0.76557 0.20628 0.0
C1197 C 0.11011 0.81015 0.25016 0.0
H1198 H 0.12014 0.76132 0.17857 0.0
C1199 C 0.14347 0.81321 0.26588 0.0
C1200 C 0.16803 0.79655 0.25068 0.0
H1201 H 0.09132 0.82205 0.26307 0.0
H1202 H 0.14962 0.82725 0.29045 0.0
C1203 C 0.15903 0.77847 0.21877 0.0
C1204 C 0.52488 0.93861 0.42074 0.0
C1205 C 0.52547 0.90341 0.427 0.0
H1206 H 0.5172 0.98953 0.44059 0.0
C1207 C 0.51907 0.89315 0.45949 0.0
H1208 H 0.52944 0.94746 0.39613 0.0
C1209 C 0.51122 0.91688 0.48451 0.0
C1210 C 0.51024 0.95179 0.47816 0.0
H1211 H 0.51894 0.86628 0.46546 0.0
H1212 H 0.50568 0.9078 0.50884 0.0
C1213 C 0.5178 0.96265 0.44622 0.0
C1214 C 0.41004 0.27394 0.75139 0.0
C1215 C 0.40132 0.25716 0.71882 0.0
H1216 H 0.39247 0.29388 0.79727 0.0
C1217 C 0.36661 0.24567 0.70883 0.0
H1218 H 0.43636 0.28317 0.76016 0.0
C1219 C 0.3415 0.25158 0.73037 0.0
C1220 C 0.35018 0.26968 0.76222 0.0
H1221 H 0.35874 0.23215 0.68425 0.0
H1222 H 0.31527 0.24168 0.72217 0.0
C1223 C 0.38483 0.28013 0.77274 0.0
C1224 C 1.00521 0.89812 0.54159 0.0
C1225 C 0.02901 0.90244 0.56998 0.0
H1226 H 0.98563 0.92152 0.49834 0.0
C1227 C 0.0543 0.93188 0.57411 0.0
H1228 H 0.98555 0.87551 0.53781 0.0
C1229 C 0.05545 0.95685 0.55071 0.0
C1230 C 0.02999 0.95421 0.52411 0.0
H1231 H 0.07294 0.93615 0.59569 0.0
H1232 H 0.07524 0.97932 0.55455 0.0
C1233 C 1.00539 0.92419 0.51896 0.0
C1234 C 0.44882 0.76267 0.8728 0.0
C1235 C 0.45278 0.78101 0.90472 0.0
H1236 H 0.41703 0.74884 0.8266 0.0
C1237 C 0.4253 0.79502 0.91691 0.0
H1238 H 0.46929 0.75029 0.86358 0.0
C1239 C 0.39504 0.79306 0.89618 0.0
C1240 C 0.39231 0.77731 0.8632 0.0
H1241 H 0.42769 0.8086 0.94176 0.0
H1242 H 0.3744 0.80525 0.9053 0.0
C1243 C 0.41901 0.76152 0.85182 0.0
C1244 C 0.50089 0.20491 0.05368 0.0
C1245 C 0.48261 0.20619 0.08225 0.0
H1246 H 0.52019 0.17264 0.01647 0.0
C1247 C 0.46674 0.17499 0.09346 0.0
H1248 H 0.5137 0.2287 0.04481 0.0
C1249 C 0.46955 0.14287 0.07644 0.0
C1250 C 0.48928 0.14163 0.04881 0.0
H1251 H 0.45273 0.17544 0.11555 0.0
H1252 H 0.45831 0.11896 0.08633 0.0
C1253 C 0.50442 0.17295 0.03728 0.0
C1254 C 0.14755 0.27821 0.40573 0.0
C1255 C 0.11433 0.26333 0.39448 0.0
H1256 H 0.19916 0.28649 0.39422 0.0
C1257 C 0.10827 0.23988 0.36546 0.0
H1258 H 0.15269 0.29641 0.42793 0.0
C1259 C 0.13464 0.23462 0.34565 0.0
C1260 C 0.16726 0.25268 0.35496 0.0
H1261 H 0.08278 0.22744 0.35689 0.0
H1262 H 0.12904 0.21862 0.32205 0.0
C1263 C 0.17393 0.27274 0.38615 0.0
C1264 C 0.91412 0.05248 0.13733 0.0
C1265 C 0.92481 0.07064 0.16872 0.0
H1266 H 0.92828 0.03468 0.08942 0.0
C1267 C 0.95854 0.08836 0.17419 0.0
H1268 H 0.88849 0.03862 0.13217 0.0
C1269 C 0.98153 0.08625 0.14947 0.0
C1270 C 0.97128 0.06595 0.1191 0.0
H1271 H 0.96762 0.10274 0.19813 0.0
H1272 H 1.00759 0.09887 0.15481 0.0
C1273 C 0.9371 0.05004 0.11295 0.0
C1274 C 0.30383 0.75976 0.43752 0.0
C1275 C 0.3032 0.72339 0.43159 0.0
H1276 H 0.29559 0.8083 0.41706 0.0
C1277 C 0.29397 0.70904 0.39801 0.0
H1278 H 0.31034 0.77216 0.46274 0.0
C1279 C 0.28509 0.72978 0.3717 0.0
C1280 C 0.28494 0.76585 0.37782 0.0
H1281 H 0.29304 0.68129 0.39218 0.0
H1282 H 0.27811 0.71753 0.34651 0.0
C1283 C 0.29494 0.78053 0.41116 0.0
C1284 C 0.53776 0.98018 0.68735 0.0
C1285 C 0.57323 0.98069 0.69302 0.0
H1286 H 0.49546 0.98744 0.65261 0.0
C1287 C 0.59263 0.98633 0.66549 0.0
H1288 H 0.5219 0.97628 0.70792 0.0
C1289 C 0.57752 0.99263 0.63389 0.0
C1290 C 0.54233 0.99387 0.62844 0.0
H1291 H 0.61992 0.98704 0.6686 0.0
H1292 H 0.5939 0.99765 0.61388 0.0
C1293 C 0.52253 0.98673 0.65556 0.0
C1294 C 0.27695 0.36276 0.9678 0.0
C1295 C 0.26821 0.39672 0.96717 0.0
H1296 H 0.28426 0.31628 0.93934 0.0
C1297 C 0.25825 0.40905 0.93625 0.0
H1298 H 0.28498 0.35242 0.99119 0.0
C1299 C 0.25747 0.38784 0.90649 0.0
C1300 C 0.26731 0.35447 0.90736 0.0
H1301 H 0.25139 0.43502 0.93506 0.0
H1302 H 0.24991 0.39785 0.88281 0.0
C1303 C 0.27671 0.34197 0.93815 0.0
C1304 C 0.93449 0.04777 0.3474 0.0
C1305 C 0.90177 0.05604 0.35125 0.0
H1306 H 0.98319 0.04261 0.3715 0.0
C1307 C 0.89377 0.06751 0.38326 0.0
H1308 H 0.94132 0.03869 0.32299 0.0
C1309 C 0.91826 0.07075 0.41089 0.0
C1310 C 0.95064 0.06156 0.407 0.0
H1311 H 0.86883 0.07425 0.38681 0.0
H1312 H 0.91151 0.07937 0.43546 0.0
C1313 C 0.95854 0.05012 0.37505 0.0
C1314 C 0.35091 0.74645 0.65217 0.0
C1315 C 0.32473 0.72883 0.62868 0.0
H1316 H 0.36407 0.77451 0.70127 0.0
C1317 C 0.29109 0.72766 0.63707 0.0
H1318 H 0.37712 0.74792 0.64658 0.0
C1319 C 0.28358 0.74388 0.66748 0.0
C1320 C 0.30946 0.76102 0.69144 0.0
H1321 H 0.27025 0.71447 0.61969 0.0
H1322 H 0.25719 0.7422 0.67257 0.0
C1323 C 0.3434 0.76173 0.68351 0.0
C1324 C 0.55246 1.00181 0.88637 0.0
C1325 C 0.58737 0.01531 0.88954 0.0
H1326 H 0.50545 0.9954 0.90974 0.0
C1327 C 0.60075 0.03401 0.92044 0.0
H1328 H 0.54086 0.98731 0.86324 0.0
C1329 C 0.58021 0.03932 0.94696 0.0
C1330 C 0.54561 0.0255 0.94392 0.0
H1331 H 0.62735 0.04479 0.924 0.0
H1332 H 0.59133 0.05414 0.97004 0.0
C1333 C 0.53204 1.00665 0.91315 0.0
C1334 C 0.23273 0.33155 0.13597 0.0
C1335 C 0.24422 0.3675 0.1444 0.0
H1336 H 0.22389 0.2802 0.15377 0.0
C1337 C 0.24994 0.37983 0.17841 0.0
H1338 H 0.22792 0.32116 0.10992 0.0
C1339 C 0.24667 0.35626 0.20337 0.0
C1340 C 0.23793 0.32012 0.19468 0.0
H1341 H 0.25875 0.40725 0.18567 0.0
H1342 H 0.25351 0.36605 0.2294 0.0
C1343 C 0.23006 0.30798 0.16093 0.0
C1344 C 0.1266 0.95105 0.04851 0.0
C1345 C 0.16099 0.96548 0.04718 0.0
H1346 H 0.07481 0.96135 0.0505 0.0
C1347 C 0.16876 1.00233 0.05008 0.0
H1348 H 0.11919 0.92296 0.04577 0.0
C1349 C 0.14397 0.02393 0.05368 0.0
C1350 C 0.1096 0.0101 0.05351 0.0
H1351 H 0.19429 0.01516 0.0484 0.0
H1352 H 0.15187 0.05196 0.05507 0.0
C1353 C 0.1011 0.97316 0.05123 0.0
C1354 C 0.6761 0.58365 0.98961 0.0
C1355 C 0.67714 0.61446 0.97282 0.0
H1356 H 0.64543 0.54113 1.00872 0.0
C1357 C 0.64684 0.62544 0.9608 0.0
H1358 H 0.69923 0.57511 0.99984 0.0
C1359 C 0.61573 0.60577 0.96596 0.0
C1360 C 0.6149 0.57554 0.98387 0.0
H1361 H 0.64726 0.64938 0.94818 0.0
H1362 H 0.59246 0.61518 0.95749 0.0
C1363 C 0.64533 0.56429 0.99493 0.0
C1364 C 0.71787 0.41816 0.2821 0.0
C1365 C 0.72123 0.43596 0.31447 0.0
H1366 H 0.73592 0.37989 0.24924 0.0
C1367 C 0.74401 0.42587 0.33932 0.0
H1368 H 0.70111 0.42573 0.2621 0.0
C1369 C 0.7635 0.39966 0.33199 0.0
C1370 C 0.76093 0.38232 0.29957 0.0
H1371 H 0.74742 0.43881 0.3645 0.0
H1372 H 0.7809 0.39314 0.35201 0.0
C1373 C 0.73773 0.39175 0.27467 0.0
C1374 C 0.85202 0.41586 0.52258 0.0
C1375 C 0.82739 0.43207 0.53801 0.0
H1376 H 0.90333 0.42128 0.50899 0.0
C1377 C 0.83693 0.46532 0.55507 0.0
H1378 H 0.84541 0.3899 0.50993 0.0
C1379 C 0.86973 0.4834 0.55425 0.0
C1380 C 0.89384 0.4681 0.5371 0.0
H1381 H 0.81868 0.47775 0.56832 0.0
H1382 H 0.87608 0.5095 0.56663 0.0
C1383 C 0.88503 0.43381 0.52205 0.0
C1384 C 0.33408 0.16 0.23695 0.0
C1385 C 0.36373 0.1659 0.25951 0.0
H1386 H 0.28638 0.17646 0.22144 0.0
C1387 C 0.37155 0.19858 0.27798 0.0
H1388 H 0.32782 0.13575 0.22131 0.0
C1389 C 0.34874 0.22317 0.27613 0.0
C1390 C 0.31652 0.21455 0.25785 0.0
H1391 H 0.3939 0.20406 0.29582 0.0
H1392 H 0.35515 0.2477 0.2914 0.0
C1393 C 0.31031 0.18347 0.23682 0.0
C1394 C 0.35121 0.063 0.47839 0.0
C1395 C 0.33504 0.08391 0.5 0.0
H1396 H 0.38612 0.02636 0.47446 0.0
C1397 C 0.33837 0.08001 0.53483 0.0
H1398 H 0.34843 0.06486 0.45138 0.0
C1399 C 0.3587 0.05669 0.5479 0.0
C1400 C 0.37694 0.03791 0.52659 0.0
H1401 H 0.32496 0.09469 0.55193 0.0
H1402 H 0.36093 0.05407 0.57475 0.0
C1403 C 0.37215 0.04036 0.49159 0.0
C1404 C 0.68612 0.64222 0.3289 0.0
C1405 C 0.69853 0.61298 0.31476 0.0
H1406 H 0.69175 0.69834 0.33562 0.0
C1407 C 0.72668 0.61846 0.29571 0.0
H1408 H 0.66412 0.63873 0.34319 0.0
C1409 C 0.74165 0.65243 0.2903 0.0
C1410 C 0.72939 0.68169 0.3046 0.0
H1411 H 0.73637 0.59637 0.28399 0.0
H1412 H 0.76271 0.65585 0.27476 0.0
C1413 C 0.70192 0.67624 0.32456 0.0
C1414 C 0.87592 0.46677 0.80686 0.0
C1415 C 0.87037 0.4883 0.78078 0.0
H1416 H 0.85604 0.4212 0.83093 0.0
C1417 C 0.84263 0.4784 0.75647 0.0
H1418 H 0.89727 0.47396 0.82573 0.0
C1419 C 0.82025 0.44761 0.7586 0.0
C1420 C 0.82466 0.42721 0.78579 0.0
H1421 H 0.83816 0.49466 0.73599 0.0
H1422 H 0.79926 0.44002 0.73938 0.0
C1423 C 0.8525 0.43689 0.80988 0.0
C1424 C 1.00903 0.87757 0.13246 0.0
C1425 C 0.98161 0.85077 0.12332 0.0
H1426 H 0.03502 0.92729 0.12127 0.0
C1427 C 0.95809 0.85508 0.09605 0.0
H1428 H 0.02772 0.87514 0.15303 0.0
C1429 C 0.96268 0.88441 0.07748 0.0
C1430 C 0.99058 0.91051 0.08596 0.0
H1431 H 0.93647 0.83518 0.08818 0.0
H1432 H 0.9445 0.8865 0.05634 0.0
C1433 C 0.01336 0.90725 0.11402 0.0
C1434 C 0.91161 0.30433 0.86188 0.0
C1435 C 0.93737 0.29103 0.84552 0.0
H1436 H 0.85953 0.31261 0.85896 0.0
C1437 C 0.92852 0.27157 0.81417 0.0
H1438 H 0.91743 0.31872 0.88633 0.0
C1439 C 0.89493 0.26718 0.79876 0.0
C1440 C 0.86975 0.28247 0.81437 0.0
H1441 H 0.94767 0.2601 0.80143 0.0
H1442 H 0.88901 0.25305 0.77422 0.0
C1443 C 0.87845 0.3007 0.84623 0.0
C1444 C 0.51785 0.1834 0.60536 0.0
C1445 C 0.50119 0.17578 0.63427 0.0
H1446 H 0.53614 0.16386 0.56004 0.0
C1447 C 0.49173 0.1405 0.64024 0.0
H1448 H 0.52611 0.2103 0.60038 0.0
C1449 C 0.49721 0.11354 0.61666 0.0
C1450 C 0.51303 0.12145 0.58718 0.0
H1451 H 0.47923 0.13382 0.66251 0.0
H1452 H 0.48908 0.08659 0.62148 0.0
C1453 C 0.52364 0.15673 0.5822 0.0
C1454 C 0.62721 0.83902 0.30016 0.0
C1455 C 0.62029 0.82432 0.33075 0.0
H1456 H 0.65973 0.84405 0.25998 0.0
C1457 C 0.64439 0.80516 0.34544 0.0
H1458 H 0.60955 0.85393 0.2878 0.0
C1459 C 0.67362 0.79977 0.32937 0.0
C1460 C 0.6794 0.81308 0.29799 0.0
H1461 H 0.64017 0.79333 0.36886 0.0
H1462 H 0.69103 0.78406 0.34092 0.0
C1463 C 0.65612 0.83332 0.28402 0.0
C1464 C 1.00212 0.16747 0.49414 0.0
C1465 C 0.03078 0.19328 0.49789 0.0
H1466 H 0.97825 0.12004 0.51156 0.0
C1467 C 0.05827 0.18989 0.52104 0.0
H1468 H 0.98022 0.17014 0.47718 0.0
C1469 C 0.05747 0.1605 0.53953 0.0
C1470 C 0.02885 0.13447 0.53563 0.0
H1471 H 0.08054 0.20978 0.52452 0.0
H1472 H 0.0794 0.15797 0.55649 0.0
C1473 C 1.001 0.1387 0.51349 0.0
C1474 C 0.61626 0.33472 0.17185 0.0
C1475 C 0.59741 0.30436 0.15494 0.0
H1476 H 0.65802 0.35605 0.20795 0.0
C1477 C 0.60649 0.27161 0.1613 0.0
H1478 H 0.60903 0.36014 0.16786 0.0
C1479 C 0.63321 0.26914 0.18543 0.0
C1480 C 0.6517 0.29947 0.20274 0.0
H1481 H 0.59159 0.24784 0.1492 0.0
H1482 H 0.63937 0.24356 0.19061 0.0
C1483 C 0.64376 0.33233 0.19507 0.0
C1484 C 0.57692 0.91879 0.97225 0.0
C1485 C 0.55917 0.8875 0.98159 0.0
H1486 H 0.58931 0.97413 0.98275 0.0
C1487 C 0.54329 0.88768 1.01172 0.0
H1488 H 0.58946 0.91928 0.94919 0.0
C1489 C 0.54248 0.91917 0.03053 0.0
C1490 C 0.55836 0.95078 0.02 0.0
H1491 H 0.5293 0.86389 0.01941 0.0
H1492 H 0.52786 0.91903 0.05223 0.0
C1493 C 0.57699 0.95012 0.99162 0.0
C1494 C 0.91091 0.80906 0.66787 0.0
C1495 C 0.93737 0.83728 0.67351 0.0
H1496 H 0.86513 0.78331 0.68467 0.0
C1497 C 0.93586 0.86343 0.69949 0.0
H1498 H 0.91134 0.78844 0.64832 0.0
C1499 C 0.90965 0.86025 0.72068 0.0
C1500 C 0.88439 0.83102 0.71612 0.0
H1501 H 0.95575 0.88574 0.70442 0.0
H1502 H 0.90961 0.88012 0.74104 0.0
C1503 C 0.88469 0.80598 0.68901 0.0
C1504 C 0.09246 0.02542 0.89435 0.0
C1505 C 0.12316 0.01249 0.90221 0.0
H1506 H 0.0458 0.03808 0.91171 0.0
C1507 C 0.12808 0.9985 0.93357 0.0
H1508 H 0.08796 0.03679 0.87063 0.0
C1509 C 0.10307 0.99793 0.95656 0.0
C1510 C 0.07316 0.0124 0.9492 0.0
H1511 H 0.15141 0.98846 0.9405 0.0
H1512 H 0.10802 0.98795 0.98085 0.0
C1513 C 0.06816 0.02603 0.91779 0.0
C1514 C 0.74595 0.31334 0.63024 0.0
C1515 C 0.74192 0.34898 0.63307 0.0
H1516 H 0.75892 0.2687 0.65491 0.0
C1517 C 0.74777 0.36647 0.6656 0.0
H1518 H 0.74217 0.29887 0.60578 0.0
C1519 C 0.75665 0.3487 0.69423 0.0
C1520 C 0.7615 0.31324 0.69116 0.0
H1521 H 0.74514 0.39388 0.66901 0.0
H1522 H 0.75985 0.36288 0.71877 0.0
C1523 C 0.75598 0.296 0.65857 0.0
C1524 C 0.47803 0.08539 0.38318 0.0
C1525 C 0.44451 0.09315 0.38004 0.0
H1526 H 0.51891 0.0715 0.41566 0.0
C1527 C 0.42808 0.09605 0.4099 0.0
H1528 H 0.49162 0.08259 0.36102 0.0
C1529 C 0.44353 0.0891 0.44116 0.0
C1530 C 0.47631 0.07958 0.44405 0.0
H1531 H 0.40232 0.1019 0.40897 0.0
H1532 H 0.42911 0.08999 0.46293 0.0
C1533 C 0.49371 0.07885 0.41469 0.0
C1534 C 0.73452 0.67557 0.10761 0.0
C1535 C 0.76322 0.68553 0.09039 0.0
H1536 H 0.70694 0.68742 0.14988 0.0
C1537 C 0.78749 0.71385 0.10382 0.0
H1538 H 0.71529 0.65403 0.09744 0.0
C1539 C 0.78248 0.73304 0.13305 0.0
C1540 C 0.75312 0.72429 0.14951 0.0
H1541 H 0.8099 0.72198 0.09106 0.0
H1542 H 0.80151 0.75506 0.1425 0.0
C1543 C 0.72947 0.69496 0.13713 0.0
C1544 C 0.15151 0.02311 0.68853 0.0
C1545 C 0.13435 1.00295 0.71165 0.0
H1546 H 0.14837 0.04492 0.64063 0.0
C1547 C 0.1013 0.9855 0.70174 0.0
H1548 H 0.17697 0.03685 0.69531 0.0
C1549 C 0.08488 0.99024 0.67039 0.0
C1550 C 0.10118 0.01257 0.64844 0.0
H1551 H 0.08748 0.96952 0.71884 0.0
H1552 H 0.05894 0.97762 0.66396 0.0
C1553 C 0.13504 0.02792 0.65727 0.0
C1554 C 0.74543 0.32817 0.43751 0.0
C1555 C 0.72597 0.35577 0.43802 0.0
H1556 H 0.76742 0.29067 0.40742 0.0
C1557 C 0.71022 0.3634 0.40704 0.0
H1558 H 0.75862 0.32202 0.46063 0.0
C1559 C 0.71441 0.34465 0.37652 0.0
C1560 C 0.73576 0.31866 0.3757 0.0
H1561 H 0.69557 0.38483 0.40624 0.0
H1562 H 0.70269 0.35222 0.35326 0.0
C1563 C 0.75066 0.31029 0.40683 0.0
C1564 C 0.45074 0.05934 0.15392 0.0
C1565 C 0.46769 0.06936 0.18625 0.0
H1566 H 0.45506 0.04558 0.10135 0.0
C1567 C 0.50342 0.07195 0.18946 0.0
H1568 H 0.42331 0.05684 0.15025 0.0
C1569 C 0.52153 0.0647 0.1616 0.0
C1570 C 0.50472 0.05507 0.12924 0.0
H1571 H 0.51756 0.07924 0.21379 0.0
H1572 H 0.54895 0.06715 0.1654 0.0
C1573 C 0.46898 0.05264 0.12582 0.0
C1574 C 0.8102 0.70288 0.88216 0.0
C1575 C 0.79309 0.70598 0.91117 0.0
H1576 H 0.8261 0.72704 0.83848 0.0
C1577 C 0.78243 0.73811 0.92046 0.0
H1578 H 0.81876 0.67851 0.87454 0.0
C1579 C 0.78616 0.76558 0.8996 0.0
C1580 C 0.80165 0.76187 0.8697 0.0
H1581 H 0.76897 0.74123 0.94269 0.0
H1582 H 0.77501 0.78885 0.90571 0.0
C1583 C 0.81489 0.73089 0.86184 0.0
C1584 C 0.88726 0.08651 0.98164 0.0
C1585 C 0.89008 0.11742 1.00354 0.0
H1586 H 0.90811 0.04036 0.96612 0.0
C1587 C 0.92 0.12564 0.02554 0.0
H1588 H 0.86494 0.07862 0.96409 0.0
C1589 C 0.94537 0.10342 0.0261 0.0
C1590 C 0.94155 0.07182 1.00518 0.0
H1591 H 0.92351 0.14877 0.04292 0.0
H1592 H 0.96763 0.1106 0.04379 0.0
C1593 C 0.9122 0.06415 0.98266 0.0
C1594 C 0.38389 0.48818 0.08723 0.0
C1595 C 0.36784 0.45695 0.06946 0.0
H1596 H 0.42788 0.52795 0.09315 0.0
C1597 C 0.38561 0.43951 0.04647 0.0
H1598 H 0.37074 0.5017 0.10549 0.0
C1599 C 0.41775 0.45477 0.03899 0.0
C1600 C 0.43304 0.48696 0.05535 0.0
H1601 H 0.37375 0.41523 0.03272 0.0
H1602 H 0.43012 0.44207 0.01957 0.0
C1603 C 0.41645 0.50306 0.08031 0.0
C1604 C 0.3173 0.66187 0.79334 0.0
C1605 C 0.31654 0.64332 0.76167 0.0
H1606 H 0.30036 0.70408 0.82193 0.0
C1607 C 0.29898 0.65482 0.73375 0.0
H1608 H 0.33008 0.65299 0.81542 0.0
C1609 C 0.28099 0.68309 0.73774 0.0
C1610 C 0.28079 0.70101 0.76957 0.0
H1611 H 0.29721 0.64048 0.70931 0.0
H1612 H 0.26643 0.69033 0.71594 0.0
C1613 C 0.30007 0.69085 0.79716 0.0
C1614 C 0.19677 0.66809 0.52364 0.0
C1615 C 0.22479 0.65141 0.53248 0.0
H1616 H 0.14244 0.6641 0.51806 0.0
C1617 C 0.21944 0.6196 0.54762 0.0
H1618 H 0.20037 0.69323 0.51302 0.0
C1619 C 0.18644 0.60329 0.55124 0.0
C1620 C 0.15826 0.6185 0.53963 0.0
H1621 H 0.24079 0.60705 0.55615 0.0
H1622 H 0.18299 0.5782 0.56195 0.0
C1623 C 0.16372 0.65146 0.52659 0.0
C1624 C 0.67595 0.8903 0.78585 0.0
C1625 C 0.67996 0.91557 0.81344 0.0
H1626 H 0.69632 0.84835 0.76026 0.0
C1627 C 0.70736 0.91479 0.83818 0.0
H1628 H 0.65559 0.88989 0.76614 0.0
C1629 C 0.73154 0.89229 0.83397 0.0
C1630 C 0.72866 0.86857 0.80557 0.0
H1631 H 0.71157 0.93332 0.86015 0.0
H1632 H 0.75303 0.89405 0.85269 0.0
C1633 C 0.6997 0.86675 0.78227 0.0
C1634 C 0.66732 0.9627 0.53138 0.0
C1635 C 0.69656 0.98563 0.54412 0.0
H1636 H 0.61506 0.95777 0.51235 0.0
C1637 C 0.69518 0.02179 0.54819 0.0
H1638 H 0.66786 0.93487 0.52749 0.0
C1639 C 0.66547 0.03493 0.5389 0.0
C1640 C 0.63648 0.01216 0.52556 0.0
H1641 H 0.71739 0.04016 0.55803 0.0
H1642 H 0.6651 0.06282 0.54253 0.0
C1643 C 0.63745 0.97592 0.52211 0.0
C1644 C 0.30278 0.44235 0.72726 0.0
C1645 C 0.33223 0.45861 0.74712 0.0
H1646 H 0.2659 0.39582 0.7163 0.0
C1647 C 0.349 0.43868 0.76926 0.0
H1648 H 0.28987 0.45692 0.70935 0.0
C1649 C 0.33496 0.4042 0.77378 0.0
C1650 C 0.30461 0.38834 0.75518 0.0
H1651 H 0.37212 0.45034 0.78431 0.0
H1652 H 0.34758 0.39006 0.7923 0.0
C1653 C 0.28925 0.40736 0.73102 0.0
C1654 C 0.15107 0.61943 0.29139 0.0
C1655 C 0.16219 0.58755 0.28332 0.0
H1656 H 0.16407 0.67513 0.29709 0.0
C1657 C 0.19322 0.58759 0.26895 0.0
H1658 H 0.12682 0.62001 0.30157 0.0
C1659 C 0.21441 0.61908 0.26584 0.0
C1660 C 0.20488 0.65085 0.27738 0.0
H1661 H 0.20163 0.56317 0.26122 0.0
H1662 H 0.23884 0.61843 0.25606 0.0
C1663 C 0.17248 0.65085 0.28892 0.0
C1664 C 0.56368 0.7214 0.46472 0.0
C1665 C 0.54662 0.71728 0.43204 0.0
H1666 H 0.5737 0.69792 0.51107 0.0
C1667 C 0.52754 0.68493 0.42056 0.0
H1668 H 0.57857 0.74618 0.47429 0.0
C1669 C 0.52432 0.65772 0.44185 0.0
C1670 C 0.5404 0.66221 0.47488 0.0
H1671 H 0.51386 0.68109 0.39574 0.0
H1672 H 0.50881 0.63321 0.43248 0.0
C1673 C 0.56071 0.69401 0.48594 0.0
C1674 C 0.6049 0.30584 0.75498 0.0
C1675 C 0.59711 0.2909 0.72151 0.0
H1676 H 0.64336 0.31999 0.79677 0.0
C1677 C 0.62371 0.28118 0.70386 0.0
H1678 H 0.58502 0.31368 0.76934 0.0
C1679 C 0.6567 0.28447 0.71966 0.0
C1680 C 0.66429 0.29803 0.75342 0.0
H1681 H 0.61883 0.26965 0.67817 0.0
H1682 H 0.67634 0.27549 0.7056 0.0
C1683 C 0.63828 0.30962 0.77073 0.0
C1684 C 0.02309 0.438 0.9197 0.0
C1685 C 0.0227 0.40265 0.92585 0.0
H1686 H 0.01735 0.48941 0.93989 0.0
C1687 C 0.01655 0.39259 0.95846 0.0
H1688 H 0.02755 0.4467 0.89501 0.0
C1689 C 1.00996 0.41671 0.98375 0.0
C1690 C 1.00999 0.4518 0.97754 0.0
H1691 H 0.01572 0.36562 0.96437 0.0
H1692 H 1.00459 0.40781 1.00818 0.0
C1693 C 0.01722 0.46241 0.94543 0.0
C1694 C 0.86959 0.7463 0.20695 0.0
C1695 C 0.90422 0.75786 0.21739 0.0
H1696 H 0.81804 0.74148 0.21974 0.0
C1697 C 0.91253 0.77385 0.25031 0.0
H1698 H 0.86199 0.7334 0.18206 0.0
C1699 C 0.887 0.77913 0.2716 0.0
C1700 C 0.85244 0.76857 0.26065 0.0
H1701 H 0.93876 0.7831 0.25943 0.0
H1702 H 0.89432 0.79223 0.29644 0.0
C1703 C 0.84417 0.75136 0.22837 0.0
C1704 C 0.48174 0.38348 0.01994 0.0
C1705 C 0.4992 0.38081 0.05148 0.0
H1706 H 0.47448 0.41407 0.9784 0.0
C1707 C 0.52492 0.40819 0.06451 0.0
H1708 H 0.46211 0.36287 1.00862 0.0
C1709 C 0.53204 0.43806 0.04671 0.0
C1710 C 0.51356 0.44078 0.01577 0.0
H1711 H 0.53911 0.40679 0.08854 0.0
H1712 H 0.55126 0.45922 0.05742 0.0
C1713 C 0.48901 0.41286 1.0023 0.0
C1714 C 0.94048 0.2605 0.38129 0.0
C1715 C 0.94877 0.28731 0.40729 0.0
H1716 H 0.90669 0.2399 0.33784 0.0
C1717 C 0.92772 0.31287 0.41124 0.0
H1718 H 0.95649 0.24039 0.37818 0.0
C1719 C 0.90014 0.31327 0.38751 0.0
C1720 C 0.89285 0.28738 0.36057 0.0
H1721 H 0.93373 0.33352 0.43135 0.0
H1722 H 0.88485 0.3341 0.38984 0.0
C1723 C 0.91228 0.26023 0.35829 0.0
C1724 C 0.97703 0.67846 0.59655 0.0
C1725 C 0.98267 0.7073 0.57714 0.0
H1726 H 0.97572 0.62305 0.59833 0.0
C1727 C 0.98816 0.70148 0.54296 0.0
H1728 H 0.97294 0.68218 0.62294 0.0
C1729 C 0.99093 0.668 0.52929 0.0
C1730 C 0.98683 0.63947 0.5491 0.0
H1731 H 0.99293 0.72319 0.52738 0.0
H1732 H 0.99781 0.66463 0.50372 0.0
C1733 C 0.9785 0.64468 0.58242 0.0
C1734 C 0.63953 0.80429 0.8678 0.0
C1735 C 0.62353 0.781 0.88909 0.0
H1736 H 0.66952 0.81092 0.82636 0.0
C1737 C 0.62968 0.74607 0.88725 0.0
H1738 H 0.63547 0.83139 0.86876 0.0
C1739 C 0.64955 0.73425 0.86267 0.0
C1740 C 0.66255 0.75707 0.83939 0.0
H1741 H 0.61731 0.72746 0.9031 0.0
H1742 H 0.6535 0.70718 0.86093 0.0
C1743 C 0.65842 0.79239 0.84303 0.0
C1744 C 0.41867 0.53542 0.64168 0.0
C1745 C 0.41935 0.56651 0.66174 0.0
H1746 H 0.44233 0.50736 0.60501 0.0
C1747 C 0.44482 0.59493 0.65814 0.0
H1748 H 0.39988 0.51288 0.64436 0.0
C1749 C 0.46898 0.59221 0.63459 0.0
C1750 C 0.46911 0.56039 0.61564 0.0
H1751 H 0.44624 0.61906 0.67382 0.0
H1752 H 0.48809 0.61446 0.63202 0.0
C1753 C 0.44356 0.53215 0.61958 0.0
C1754 C 0.79047 0.20846 0.89548 0.0
C1755 C 0.79944 0.22259 0.92908 0.0
H1756 H 0.77602 0.21774 0.84389 0.0
C1757 C 0.8012 0.25909 0.93519 0.0
H1758 H 0.78893 0.18064 0.88957 0.0
C1759 C 0.79348 0.28028 0.90886 0.0
C1760 C 0.78377 0.26584 0.87546 0.0
H1761 H 0.80769 0.27126 0.9605 0.0
H1762 H 0.79493 0.30816 0.91478 0.0
C1763 C 0.78287 0.22965 0.86921 0.0
C1764 C 0.03812 0.48083 0.1867 0.0
C1765 C 0.0736 0.48182 0.19293 0.0
H1766 H 0.99613 0.4877 0.15142 0.0
C1767 C 0.09344 0.48817 0.1658 0.0
H1768 H 0.0219 0.47638 0.20691 0.0
C1769 C 0.07869 0.4946 0.13405 0.0
C1770 C 0.04344 0.49523 0.12805 0.0
H1771 H 0.12075 0.48931 0.16935 0.0
H1772 H 0.09536 0.50015 0.11438 0.0
C1773 C 0.02327 0.48749 0.15477 0.0
C1774 C 0.76174 0.90777 0.43347 0.0
C1775 C 0.77653 0.89844 0.46389 0.0
H1776 H 0.74758 0.89255 0.3813 0.0
C1777 C 0.78898 0.86627 0.46493 0.0
H1778 H 0.75185 0.9323 0.43213 0.0
C1779 C 0.7869 0.84389 0.43606 0.0
C1780 C 0.77213 0.85315 0.40574 0.0
H1781 H 0.80083 0.8585 0.48805 0.0
H1782 H 0.79712 0.81953 0.43742 0.0
C1783 C 0.75924 0.88501 0.40457 0.0
C1784 C 0.43175 0.55065 0.84059 0.0
C1785 C 0.39844 0.55685 0.84493 0.0
H1786 H 0.48029 0.54449 0.86438 0.0
C1787 C 0.38936 0.56426 0.87751 0.0
H1788 H 0.43943 0.54466 0.81573 0.0
C1789 C 0.41319 0.56507 0.9053 0.0
C1790 C 0.44599 0.55739 0.90088 0.0
H1791 H 0.36394 0.56931 0.88146 0.0
H1792 H 0.40555 0.5705 0.93028 0.0
C1793 C 0.45519 0.55055 0.86835 0.0
C1794 C 0.79277 0.22744 0.13353 0.0
C1795 C 0.82636 0.23052 0.12464 0.0
H1796 H 0.75834 0.24076 0.16888 0.0
C1797 C 0.85192 0.25082 0.14708 0.0
H1798 H 0.77235 0.21227 0.11693 0.0
C1799 C 0.84391 0.26668 0.17798 0.0
C1800 C 0.80996 0.26389 0.18643 0.0
H1801 H 0.87808 0.25388 0.14107 0.0
H1802 H 0.86417 0.28139 0.19504 0.0
C1803 C 0.78468 0.24418 0.1634 0.0
C1804 C 0.05182 0.49757 0.38874 0.0
C1805 C 0.08451 0.5169 0.38916 0.0
H1806 H 1.00668 0.4862 0.4144 0.0
C1807 C 0.09546 0.54145 0.41702 0.0
H1808 H 0.04222 0.47835 0.36803 0.0
C1809 C 0.0748 0.54661 0.44349 0.0
C1810 C 0.04243 0.52686 0.44334 0.0
H1811 H 0.12029 0.55682 0.41818 0.0
H1812 H 0.08451 0.56551 0.46439 0.0
C1813 C 0.03135 0.50222 0.41549 0.0
C1814 C 0.73208 0.83475 0.62979 0.0
C1815 C 0.7401 0.87126 0.63745 0.0
H1816 H 0.72655 0.78415 0.64938 0.0
C1817 C 0.74023 0.88488 0.67075 0.0
H1818 H 0.7314 0.82342 0.60419 0.0
C1819 C 0.73612 0.8622 0.69632 0.0
C1820 C 0.73235 0.82574 0.68897 0.0
H1821 H 0.74599 0.91278 0.67734 0.0
H1822 H 0.73982 0.87324 0.72221 0.0
C1823 C 0.72869 0.81208 0.65548 0.0
C1824 C 0.63095 0.45603 0.55848 0.0
C1825 C 0.65522 0.46161 0.53467 0.0
H1826 H 0.58863 0.47441 0.58148 0.0
C1827 C 0.65313 0.49053 0.51507 0.0
H1828 H 0.63159 0.43465 0.57455 0.0
C1829 C 0.62951 0.51335 0.51959 0.0
C1830 C 0.60534 0.50824 0.54303 0.0
H1831 H 0.67054 0.4966 0.49613 0.0
H1832 H 0.63017 0.53526 0.50401 0.0
C1833 C 0.60614 0.47892 0.56243 0.0
C1834 C 0.17859 0.09442 0.49237 0.0
C1835 C 0.17994 0.12574 0.47631 0.0
H1836 H 0.14792 0.05278 0.51276 0.0
C1837 C 0.14971 0.13868 0.46741 0.0
H1838 H 0.20161 0.08435 0.50046 0.0
C1839 C 0.11855 0.12041 0.47471 0.0
C1840 C 0.11756 0.08953 0.49167 0.0
H1841 H 0.15029 0.16307 0.45553 0.0
H1842 H 0.09548 0.13118 0.46839 0.0
C1843 C 0.14782 0.07648 0.49982 0.0
C1844 C 0.21772 0.91207 0.80193 0.0
C1845 C 0.23325 0.94132 0.82304 0.0
H1846 H 0.223 0.86215 0.77717 0.0
C1847 C 0.26717 0.94179 0.83608 0.0
H1848 H 0.1914 0.91062 0.79283 0.0
C1849 C 0.28508 0.91441 0.82735 0.0
C1850 C 0.26984 0.88566 0.80523 0.0
H1851 H 0.28024 0.96361 0.85269 0.0
H1852 H 0.31112 0.91585 0.83799 0.0
C1853 C 0.2358 0.88464 0.7929 0.0
C1854 C 0.35257 0.91594 0.02063 0.0
C1855 C 0.3295 0.93071 0.03975 0.0
H1856 H 0.40247 0.92309 1.00312 0.0
C1857 C 0.34034 0.96253 0.05908 0.0
H1858 H 0.34484 0.89115 1.00598 0.0
C1859 C 0.37292 0.98067 0.05739 0.0
C1860 C 0.39528 0.96694 0.03679 0.0
H1861 H 0.32326 0.97382 0.07485 0.0
H1862 H 0.38038 1.00576 0.07161 0.0
C1863 C 0.3853 0.93414 0.01897 0.0
C1864 C 0.8343 0.65908 0.73399 0.0
C1865 C 0.86296 0.66473 0.75785 0.0
H1866 H 0.78746 0.67596 0.71606 0.0
C1867 C 0.8696 0.69691 0.77725 0.0
H1868 H 0.82873 0.63497 0.71803 0.0
C1869 C 0.84678 0.7214 0.77469 0.0
C1870 C 0.81566 0.71337 0.75434 0.0
H1871 H 0.89105 0.70207 0.7962 0.0
H1872 H 0.85234 0.74548 0.79073 0.0
C1873 C 0.81056 0.68265 0.73276 0.0
C1874 C 0.84001 0.58121 0.03458 0.0
C1875 C 0.83705 0.58496 0.99972 0.0
H1876 H 0.86232 0.55559 0.07487 0.0
C1877 C 0.85392 0.56443 0.97845 0.0
H1878 H 0.82603 0.59556 0.05141 0.0
C1879 C 0.87481 0.54199 0.99197 0.0
C1880 C 0.87892 0.53941 0.02697 0.0
H1881 H 0.85139 0.56615 0.95141 0.0
H1882 H 0.88914 0.5281 0.97512 0.0
C1883 C 0.86038 0.55814 0.048 0.0
C1884 C 0.1873 0.14357 0.83077 0.0
C1885 C 0.20122 0.11493 0.81751 0.0
H1886 H 0.19075 0.19957 0.83654 0.0
C1887 C 0.22967 0.12119 0.79901 0.0
H1888 H 0.16503 0.13938 0.84462 0.0
C1889 C 0.24357 0.15539 0.79333 0.0
C1890 C 0.22985 0.18407 0.8068 0.0
H1891 H 0.24049 0.0995 0.78798 0.0
H1892 H 0.26495 0.15943 0.77825 0.0
C1893 C 0.20201 0.17789 0.82616 0.0
C1894 C 0.34228 0.97974 0.25971 0.0
C1895 C 0.37067 0.98959 0.28327 0.0
H1896 H 0.29875 0.94124 0.24355 0.0
C1897 C 0.37727 0.96784 0.30889 0.0
H1898 H 0.33707 0.99613 0.23953 0.0
C1899 C 0.35437 0.93766 0.31216 0.0
C1900 C 0.32583 0.92809 0.2889 0.0
H1901 H 0.39915 0.97499 0.32715 0.0
H1902 H 0.35886 0.92165 0.33276 0.0
C1903 C 0.32024 0.94881 0.26221 0.0
C1904 C 0.51142 0.37248 0.63079 0.0
C1905 C 0.48178 0.34801 0.62356 0.0
H1906 H 0.54108 0.41906 0.61678 0.0
C1907 C 0.45838 0.35318 0.59654 0.0
H1908 H 0.53017 0.36918 0.65102 0.0
C1909 C 0.46506 0.38107 0.57645 0.0
C1910 C 0.49504 0.40483 0.58313 0.0
H1911 H 0.43518 0.33497 0.59011 0.0
H1912 H 0.44669 0.38406 0.55576 0.0
C1913 C 0.51791 0.4007 0.61081 0.0
C1914 C 0.43113 0.77253 0.31672 0.0
C1915 C 0.4405 0.79217 0.3479 0.0
H1916 H 0.39088 0.75347 0.27763 0.0
C1917 C 0.41503 0.80516 0.36494 0.0
H1918 H 0.45009 0.76124 0.30351 0.0
C1919 C 0.38155 0.80102 0.35011 0.0
C1920 C 0.37226 0.78261 0.3184 0.0
H1921 H 0.42127 0.81964 0.3893 0.0
H1922 H 0.36282 0.81271 0.36336 0.0
C1923 C 0.39723 0.76765 0.30211 0.0
C1924 C 0.02003 0.68489 0.10334 0.0
C1925 C 1.00378 0.6776 0.13255 0.0
H1926 H 0.03761 0.66482 0.05783 0.0
C1927 C 0.99434 0.64243 0.1389 0.0
H1928 H 0.02828 0.71169 0.09806 0.0
C1929 C 0.99942 0.61523 0.11541 0.0
C1930 C 0.01481 0.62279 0.08562 0.0
H1931 H 0.98216 0.63602 0.16141 0.0
H1932 H 0.99132 0.58836 0.12053 0.0
C1933 C 0.02542 0.65796 0.08024 0.0
C1934 C 0.1418 0.30547 0.84567 0.0
C1935 C 0.11745 0.32416 0.83071 0.0
H1936 H 0.18895 0.28526 0.84159 0.0
C1937 C 0.12438 0.33895 0.80016 0.0
H1938 H 0.13757 0.29362 0.86907 0.0
C1939 C 0.15354 0.33375 0.78428 0.0
C1940 C 0.17708 0.31397 0.7985 0.0
H1941 H 0.10655 0.35353 0.78761 0.0
H1942 H 0.15714 0.34447 0.76023 0.0
C1943 C 0.17131 0.30063 0.82987 0.0
C1944 C 0.55038 0.69073 0.02443 0.0
C1945 C 0.53869 0.69035 0.99018 0.0
H1946 H 0.55673 0.66079 0.06722 0.0
C1947 C 0.52428 0.65849 0.97275 0.0
H1948 H 0.56168 0.71492 0.03864 0.0
C1949 C 0.5213 0.62776 0.98933 0.0
C1950 C 0.53242 0.62802 0.02354 0.0
H1951 H 0.51534 0.6572 0.94629 0.0
H1952 H 0.51166 0.60375 0.97488 0.0
C1953 C 0.54739 0.65981 0.04089 0.0
C1954 C 0.09351 0.7855 0.68574 0.0
C1955 C 0.09834 0.80075 0.6552 0.0
H1956 H 0.11667 0.77252 0.73259 0.0
C1957 C 0.13135 0.81136 0.64671 0.0
H1958 H 0.06814 0.77648 0.6924 0.0
C1959 C 0.15909 0.8098 0.67008 0.0
C1960 C 0.15401 0.7968 0.70168 0.0
H1961 H 0.13553 0.82269 0.62305 0.0
H1962 H 0.1844 0.81964 0.66381 0.0
C1963 C 0.12116 0.78328 0.70871 0.0
C1964 C 0.07607 0.41924 0.467 0.0
C1965 C 0.06176 0.38775 0.47913 0.0
H1966 H 0.0854 0.4751 0.47466 0.0
C1967 C 0.04913 0.38884 0.5111 0.0
H1968 H 0.086 0.41937 0.44256 0.0
C1969 C 0.048 0.42071 0.52905 0.0
C1970 C 0.06036 0.45219 0.51597 0.0
H1971 H 0.03785 0.36516 0.52136 0.0
H1972 H 0.03598 0.42076 0.55241 0.0
C1973 C 0.07579 0.45115 0.48549 0.0
C1974 C 0.38278 0.33002 0.15257 0.0
C1975 C 0.41533 0.32126 0.16003 0.0
H1976 H 0.33813 0.34491 0.17228 0.0
C1977 C 0.42884 0.3238 0.194 0.0
H1978 H 0.37181 0.32876 0.12674 0.0
C1979 C 0.4097 0.333 0.21993 0.0
C1980 C 0.37675 0.34033 0.21256 0.0
H1981 H 0.45391 0.31743 0.20082 0.0
H1982 H 0.42016 0.33292 0.24581 0.0
C1983 C 0.36374 0.33973 0.17864 0.0
C1984 C 0.59071 0.52972 0.39362 0.0
C1985 C 0.61705 0.50945 0.39725 0.0
H1986 H 0.54767 0.54701 0.41437 0.0
C1987 C 0.61694 0.48675 0.42336 0.0
H1988 H 0.58997 0.54732 0.37366 0.0
C1989 C 0.59139 0.48524 0.44591 0.0
C1990 C 0.56665 0.50773 0.44378 0.0
H1991 H 0.63667 0.47045 0.4265 0.0
H1992 H 0.59232 0.46817 0.46625 0.0
C1993 C 0.56624 0.5293 0.41681 0.0
C1994 C 0.25456 0.86551 0.16767 0.0
C1995 C 0.24124 0.84812 0.13613 0.0
H1996 H 0.27199 0.86085 0.21957 0.0
C1997 C 0.23596 0.81129 0.13393 0.0
H1998 H 0.25915 0.89381 0.17056 0.0
C1999 C 0.24441 0.79255 0.16164 0.0
C2000 C 0.25798 0.80965 0.19309 0.0
H2001 H 0.22605 0.79667 0.11032 0.0
H2002 H 0.24016 0.76425 0.15829 0.0
C2003 C 0.26232 0.84655 0.19585 0.0
C2004 C 0.97816 0.58373 0.88102 0.0
C2005 C 0.94472 0.5918 0.87797 0.0
H2006 H 0.01917 0.56994 0.91348 0.0
C2007 C 0.92863 0.59523 0.908 0.0
H2008 H 0.9915 0.58047 0.85876 0.0
C2009 C 0.94434 0.58871 0.93933 0.0
C2010 C 0.97703 0.57893 0.94217 0.0
H2011 H 0.90296 0.60132 0.90719 0.0
H2012 H 0.93021 0.59023 0.96125 0.0
C2013 C 0.99407 0.57752 0.91259 0.0
C2014 C 0.23613 0.17763 0.60853 0.0
C2015 C 0.26593 0.18723 0.59282 0.0
H2016 H 0.20675 0.18959 0.64938 0.0
C2017 C 0.29038 0.21467 0.60771 0.0
H2018 H 0.21677 0.15675 0.59724 0.0
C2019 C 0.28438 0.23366 0.63667 0.0
C2020 C 0.2539 0.22544 0.65148 0.0
H2021 H 0.31365 0.22247 0.59617 0.0
H2022 H 0.30351 0.25516 0.64715 0.0
C2023 C 0.23015 0.19671 0.63787 0.0
C2024 C 0.64322 0.5122 0.1815 0.0
C2025 C 0.62376 0.50277 0.20815 0.0
H2026 H 0.64256 0.52291 0.12939 0.0
C2027 C 0.58831 0.49407 0.20171 0.0
H2028 H 0.67057 0.51898 0.18575 0.0
C2029 C 0.57241 0.49702 0.16991 0.0
C2030 C 0.59166 0.50798 0.14374 0.0
H2031 H 0.57255 0.48665 0.22165 0.0
H2032 H 0.54494 0.49162 0.16604 0.0
C2033 C 0.62725 0.51444 0.14935 0.0
C2034 C 0.24224 0.83094 0.94044 0.0
C2035 C 0.22587 0.86085 0.94087 0.0
H2036 H 0.26191 0.79149 0.91059 0.0
C2037 C 0.21328 0.87111 0.9096 0.0
H2038 H 0.25296 0.82256 0.96379 0.0
C2039 C 0.21761 0.8526 0.87898 0.0
C2040 C 0.23584 0.82401 0.87848 0.0
H2041 H 0.20098 0.89423 0.90871 0.0
H2042 H 0.20832 0.86199 0.85559 0.0
C2043 C 0.2476 0.81318 0.90978 0.0
C2044 C 0.95408 0.54711 0.65517 0.0
C2045 C 0.96668 0.57123 0.68305 0.0
H2046 H 0.96294 0.52407 0.60637 0.0
C2047 C 0.99895 0.59091 0.68179 0.0
H2048 H 0.92948 0.5312 0.65515 0.0
C2049 C 0.01777 0.58707 0.65386 0.0
C2050 C 1.00562 0.56284 0.62614 0.0
H2051 H 1.00977 0.60966 0.70251 0.0
H2052 H 0.04225 0.6033 0.65409 0.0
C2053 C 0.97341 0.54273 0.62723 0.0
C2054 C 0.30185 0.24628 0.42685 0.0
C2055 C 0.30676 0.21207 0.41632 0.0
H2056 H 0.29885 0.29803 0.41219 0.0
C2057 C 0.32167 0.20662 0.38624 0.0
H2058 H 0.2906 0.25152 0.45008 0.0
C2059 C 0.328 0.23402 0.36542 0.0
C2060 C 0.31846 0.26684 0.37371 0.0
H2061 H 0.32621 0.18074 0.37768 0.0
H2062 H 0.3359 0.22795 0.34087 0.0
C2063 C 0.30725 0.27331 0.40551 0.0
C2064 C 0.39444 0.59626 0.54176 0.0
C2065 C 0.39268 0.61833 0.51523 0.0
H2066 H 0.41478 0.55285 0.56189 0.0
C2067 C 0.41435 0.61422 0.48942 0.0
H2068 H 0.37735 0.59742 0.5614 0.0
C2069 C 0.43718 0.58923 0.49047 0.0
C2070 C 0.43806 0.56642 0.51661 0.0
H2071 H 0.41291 0.62962 0.46783 0.0
H2072 H 0.45275 0.58651 0.4698 0.0
C2073 C 0.41602 0.5704 0.542 0.0
C2074 C 0.88468 0.99487 0.58874 0.0
C2075 C 0.87059 0.96265 0.57149 0.0
H2076 H 0.9276 0.03594 0.59613 0.0
C2077 C 0.89103 0.9447 0.55172 0.0
H2078 H 0.86956 0.00884 0.60465 0.0
C2079 C 0.92397 0.96017 0.54678 0.0
C2080 C 0.93737 0.99331 0.56239 0.0
H2081 H 0.88079 0.91967 0.53844 0.0
H2082 H 0.93842 0.94693 0.52959 0.0
C2083 C 0.91788 0.01018 0.58414 0.0
C2084 C 0.81494 0.1599 0.29801 0.0
C2085 C 0.81974 0.143 0.26681 0.0
H2086 H 0.79367 0.20096 0.32387 0.0
C2087 C 0.8078 0.15649 0.23713 0.0
H2088 H 0.82337 0.14963 0.32131 0.0
C2089 C 0.78979 0.18502 0.23866 0.0
C2090 C 0.78413 0.20133 0.26986 0.0
H2091 H 0.81038 0.14356 0.2128 0.0
H2092 H 0.77949 0.19376 0.21534 0.0
C2093 C 0.7978 0.18913 0.29952 0.0
C2094 C 0.7195 0.12331 0.05135 0.0
C2095 C 0.72424 0.15402 0.0344 0.0
H2096 H 0.6839 0.08328 0.06896 0.0
C2097 C 0.69595 0.17033 0.02554 0.0
H2098 H 0.74109 0.11102 0.05973 0.0
C2099 C 0.66311 0.15428 0.03048 0.0
C2100 C 0.65823 0.12233 0.0455 0.0
H2101 H 0.6991 0.19462 0.01338 0.0
H2102 H 0.64154 0.16643 0.02183 0.0
C2103 C 0.68683 0.10765 0.05693 0.0
C2104 C 0.17536 0.39165 0.28664 0.0
C2105 C 0.17782 0.41564 0.31509 0.0
H2106 H 0.19747 0.35135 0.26054 0.0
C2107 C 0.20418 0.41417 0.34076 0.0
H2108 H 0.15595 0.39196 0.26614 0.0
C2109 C 0.22885 0.39215 0.33683 0.0
C2110 C 0.22743 0.36965 0.30773 0.0
H2111 H 0.20722 0.43182 0.36332 0.0
H2112 H 0.24951 0.39327 0.35638 0.0
C2113 C 0.19957 0.36863 0.28326 0.0
C2114 C 0.16654 0.46211 0.03595 0.0
C2115 C 0.19479 0.4842 0.0522 0.0
H2116 H 0.11631 0.4586 1.01158 0.0
C2117 C 0.19344 0.52025 0.05757 0.0
H2118 H 0.16723 0.43443 0.03087 0.0
C2119 C 0.16492 0.5342 0.04576 0.0
C2120 C 0.13712 0.51233 0.02859 0.0
H2121 H 0.21504 0.53793 0.06992 0.0
H2122 H 0.16456 0.56201 0.05028 0.0
C2123 C 0.13787 0.47612 0.02419 0.0
C2124 C 0.80542 0.94235 0.23023 0.0
C2125 C 0.83483 0.95792 0.25061 0.0
H2126 H 0.76837 0.89613 0.21767 0.0
C2127 C 0.85131 0.93701 0.27197 0.0
H2128 H 0.79272 0.95764 0.21285 0.0
C2129 C 0.83711 0.90227 0.27521 0.0
C2130 C 0.80683 0.88703 0.25609 0.0
H2131 H 0.87441 0.94807 0.28737 0.0
H2132 H 0.84958 0.88741 0.29319 0.0
C2133 C 0.79169 0.9071 0.23273 0.0
C2134 C 0.65068 0.1196 0.79092 0.0
C2135 C 0.66187 0.08794 0.782 0.0
H2136 H 0.6626 0.17543 0.79573 0.0
C2137 C 0.69193 0.08852 0.76577 0.0
H2138 H 0.62716 0.11978 0.80262 0.0
C2139 C 0.71198 0.12034 0.76115 0.0
C2140 C 0.70235 0.15197 0.77302 0.0
H2141 H 0.7004 0.06429 0.75751 0.0
H2142 H 0.73569 0.12011 0.74983 0.0
C2143 C 0.67102 0.15134 0.78698 0.0
loop_
_geom_bond_atom_site_label_1
_geom_bond_atom_site_label_2
_geom_bond_distance
_geom_bond_site_symmetry_2
_ccdc_geom_bond_type
Mn0 O5 2.095 . S
Mn0 O15 2.162 . S
Mn0 O16 2.297 . S
Mn0 O24 2.385 1_455 S
Mn0 O25 2.209 1_455 S
Mn0 O26 2.094 . S
Mn1 O6 2.121 . S
Mn1 N8 2.257 1_455 S
Mn1 N17 2.282 1_455 S
Mn1 O25 2.215 1_455 S
Mn1 O27 2.117 . S
C2 O24 1.234 . S
C2 O25 1.283 . S
C3 O15 1.281 . S
C3 O16 1.236 . S
C4 O26 1.240 . S
C4 O27 1.264 . S
O5 Mn0 2.095 . S
O5 C14 1.250 . S
O6 Mn1 2.121 . S
O6 C14 1.258 . S
C7 N8 1.326 1_455 S
C7 C11 1.464 . S
C7 H13 0.929 . S
N8 Mn1 2.257 1_655 S
N8 C7 1.326 1_655 S
N8 C12 1.362 . S
C9 C10 1.258 . S
C9 C12 1.431 . S
C9 C29 1.449 . S
C10 C9 1.258 . S
C10 C11 1.462 1_655 S
C10 H30 0.931 . S
C11 C7 1.464 . S
C11 C10 1.462 1_455 S
C11 H31 0.941 . S
C12 N8 1.362 . S
C12 C9 1.431 . S
C12 C22 1.476 . S
H13 C7 0.929 . S
C14 O5 1.250 . S
C14 O6 1.258 . S
O15 Mn0 2.162 . S
O15 C3 1.281 . S
O16 Mn0 2.297 . S
O16 C3 1.236 . S
N17 Mn1 2.282 1_655 S
N17 C18 1.328 . S
N17 C22 1.318 . S
C18 N17 1.328 . S
C18 C19 1.457 . S
C18 H23 0.929 . S
C19 C18 1.457 . S
C19 C20 1.291 . S
C19 H32 0.931 . S
C20 C19 1.291 . S
C20 C21 1.373 . S
C20 H33 0.929 . S
C21 C20 1.373 . S
C21 C22 1.396 . S
C21 C28 1.403 . S
C22 C12 1.476 . S
C22 N17 1.318 . S
C22 C21 1.396 . S
H23 C18 0.929 . S
O24 Mn0 2.385 1_655 S
O24 C2 1.234 . S
O25 Mn0 2.209 1_655 S
O25 Mn1 2.215 1_655 S
O25 C2 1.283 . S
O26 Mn0 2.094 . S
O26 C4 1.240 . S
O27 Mn1 2.117 . S
O27 C4 1.264 . S
C28 C21 1.403 . S
C28 C29 1.399 . S
C28 H34 0.929 . S
C29 C9 1.449 . S
C29 C28 1.399 . S
C29 H35 0.930 . S
H30 C10 0.931 . S
H31 C11 0.941 . S
H32 C19 0.931 . S
H33 C20 0.929 . S
H34 C28 0.929 . S
H35 C29 0.930 . S
Mn36 O41 2.074 1_455 S
Mn36 O51 2.162 1_455 S
Mn36 O52 2.299 1_455 S
Mn36 O60 2.407 . S
Mn36 O61 2.218 . S
Mn36 O62 2.093 . S
Mn37 O42 2.121 1_455 S
Mn37 N44 2.257 . S
Mn37 N53 2.282 . S
Mn37 O61 2.215 . S
Mn37 O63 2.117 . S
C38 O60 1.234 . S
C38 O61 1.283 . S
C39 O51 1.281 . S
C39 O52 1.236 . S
C40 O62 1.240 . S
C40 O63 1.264 . S
O41 Mn36 2.074 1_655 S
O41 C50 1.250 . S
O42 Mn37 2.121 1_655 S
O42 C50 1.258 . S
C43 N44 1.326 . S
C43 C47 1.460 . S
C43 H49 0.929 1_455 S
N44 Mn37 2.257 . S
N44 C43 1.326 . S
N44 C48 1.362 . S
C45 C46 1.258 . S
C45 C48 1.431 . S
C45 C65 1.449 . S
C46 C45 1.258 . S
C46 C47 1.477 . S
C46 H66 0.931 . S
C47 C43 1.460 . S
C47 C46 1.477 . S
C47 H67 0.930 . S
C48 N44 1.362 . S
C48 C45 1.431 . S
C48 C58 1.476 . S
H49 C43 0.929 1_655 S
C50 O41 1.250 . S
C50 O42 1.258 . S
O51 Mn36 2.162 1_655 S
O51 C39 1.281 . S
O52 Mn36 2.299 1_655 S
O52 C39 1.236 . S
N53 Mn37 2.282 . S
N53 C54 1.328 . S
N53 C58 1.318 . S
C54 N53 1.328 . S
C54 C55 1.457 . S
C54 H59 0.929 . S
C55 C54 1.457 . S
C55 C56 1.291 . S
C55 H68 0.931 . S
C56 C55 1.291 . S
C56 C57 1.373 . S
C56 H69 0.929 . S
C57 C56 1.373 . S
C57 C58 1.396 . S
C57 C64 1.403 . S
C58 C48 1.476 . S
C58 N53 1.318 . S
C58 C57 1.396 . S
H59 C54 0.929 . S
O60 Mn36 2.407 . S
O60 C38 1.234 . S
O61 Mn36 2.218 . S
O61 Mn37 2.215 . S
O61 C38 1.283 . S
O62 Mn36 2.093 . S
O62 C40 1.240 . S
O63 Mn37 2.117 . S
O63 C40 1.264 . S
C64 C57 1.403 . S
C64 C65 1.399 . S
C64 H70 0.929 . S
C65 C45 1.449 . S
C65 C64 1.399 . S
C65 H71 0.930 . S
H66 C46 0.931 . S
H67 C47 0.930 . S
H68 C55 0.931 . S
H69 C56 0.929 . S
H70 C64 0.929 . S
H71 C65 0.930 . S
Mn72 O77 2.095 . S
Mn72 O87 2.162 . S
Mn72 O88 2.297 . S
Mn72 O96 2.385 . S
Mn72 O97 2.209 . S
Mn72 O98 2.094 . S
Mn73 O78 2.121 . S
Mn73 N80 2.257 . S
Mn73 N89 2.282 . S
Mn73 O97 2.215 . S
Mn73 O99 2.117 . S
C74 O96 1.234 . S
C74 O97 1.283 . S
C75 O87 1.281 . S
C75 O88 1.236 . S
C76 O98 1.240 . S
C76 O99 1.264 . S
O77 Mn72 2.095 . S
O77 C86 1.250 . S
O78 Mn73 2.121 . S
O78 C86 1.258 . S
C79 N80 1.326 . S
C79 C83 1.460 . S
C79 H85 0.929 . S
N80 Mn73 2.257 . S
N80 C79 1.326 . S
N80 C84 1.362 . S
C81 C82 1.258 . S
C81 C84 1.431 . S
C81 C101 1.449 . S
C82 C81 1.258 . S
C82 C83 1.477 . S
C82 H102 0.931 . S
C83 C79 1.460 . S
C83 C82 1.477 . S
C83 H103 0.930 . S
C84 N80 1.362 . S
C84 C81 1.431 . S
C84 C94 1.476 . S
H85 C79 0.929 . S
C86 O77 1.250 . S
C86 O78 1.258 . S
O87 Mn72 2.162 . S
O87 C75 1.281 . S
O88 Mn72 2.297 . S
O88 C75 1.236 . S
N89 Mn73 2.282 . S
N89 C90 1.328 . S
N89 C94 1.318 . S
C90 N89 1.328 . S
C90 C91 1.457 . S
C90 H95 0.929 . S
C91 C90 1.457 . S
C91 C92 1.291 . S
C91 H104 0.931 . S
C92 C91 1.291 . S
C92 C93 1.373 . S
C92 H105 0.929 . S
C93 C92 1.373 . S
C93 C94 1.396 . S
C93 C100 1.403 . S
C94 C84 1.476 . S
C94 N89 1.318 . S
C94 C93 1.396 . S
H95 C90 0.929 . S
O96 Mn72 2.385 . S
O96 C74 1.234 . S
O97 Mn72 2.209 . S
O97 Mn73 2.215 . S
O97 C74 1.283 . S
O98 Mn72 2.094 . S
O98 C76 1.240 . S
O99 Mn73 2.117 . S
O99 C76 1.264 . S
C100 C93 1.403 . S
C100 C101 1.399 . S
C100 H106 0.929 . S
C101 C81 1.449 . S
C101 C100 1.399 . S
C101 H107 0.930 . S
H102 C82 0.931 . S
H103 C83 0.930 . S
H104 C91 0.931 . S
H105 C92 0.929 . S
H106 C100 0.929 . S
H107 C101 0.930 . S
Mn108 O113 2.095 . S
Mn108 O123 2.162 . S
Mn108 O124 2.297 . S
Mn108 O132 2.385 . S
Mn108 O133 2.209 . S
Mn108 O134 2.094 . S
Mn109 O114 2.121 . S
Mn109 N116 2.257 . S
Mn109 N125 2.282 . S
Mn109 O133 2.215 . S
Mn109 O135 2.117 . S
C110 O132 1.234 . S
C110 O133 1.283 . S
C111 O123 1.281 . S
C111 O124 1.236 . S
C112 O134 1.240 . S
C112 O135 1.264 . S
O113 Mn108 2.095 . S
O113 C122 1.250 . S
O114 Mn109 2.121 . S
O114 C122 1.258 . S
C115 N116 1.326 . S
C115 C119 1.460 1_554 S
C115 H121 0.929 . S
N116 Mn109 2.257 . S
N116 C115 1.326 . S
N116 C120 1.362 . S
C117 C118 1.258 . S
C117 C120 1.431 1_556 S
C117 C137 1.449 . S
C118 C117 1.258 . S
C118 C119 1.477 . S
C118 H138 0.931 . S
C119 C115 1.460 1_556 S
C119 C118 1.477 . S
C119 H139 0.930 . S
C120 N116 1.362 . S
C120 C117 1.431 1_554 S
C120 C130 1.476 . S
H121 C115 0.929 . S
C122 O113 1.250 . S
C122 O114 1.258 . S
O123 Mn108 2.162 . S
O123 C111 1.281 . S
O124 Mn108 2.297 . S
O124 C111 1.236 . S
N125 Mn109 2.282 . S
N125 C126 1.328 . S
N125 C130 1.318 . S
C126 N125 1.328 . S
C126 C127 1.457 . S
C126 H131 0.929 . S
C127 C126 1.457 . S
C127 C128 1.291 . S
C127 H140 0.931 . S
C128 C127 1.291 . S
C128 C129 1.373 . S
C128 H141 0.929 . S
C129 C128 1.373 . S
C129 C130 1.396 . S
C129 C136 1.403 . S
C130 C120 1.476 . S
C130 N125 1.318 . S
C130 C129 1.396 . S
H131 C126 0.929 . S
O132 Mn108 2.385 . S
O132 C110 1.234 . S
O133 Mn108 2.209 . S
O133 Mn109 2.215 . S
O133 C110 1.283 . S
O134 Mn108 2.094 . S
O134 C112 1.240 . S
O135 Mn109 2.117 . S
O135 C112 1.264 . S
C136 C129 1.403 . S
C136 C137 1.399 1_554 S
C136 H142 0.929 1_554 S
C137 C117 1.449 . S
C137 C136 1.399 1_556 S
C137 H143 0.930 . S
H138 C118 0.931 . S
H139 C119 0.930 . S
H140 C127 0.931 . S
H141 C128 0.929 . S
H142 C136 0.929 1_556 S
H143 C137 0.930 . S
Mn144 O149 2.095 . S
Mn144 O159 2.162 . S
Mn144 O160 2.297 . S
Mn144 O168 2.385 . S
Mn144 O169 2.209 1_455 S
Mn144 O170 2.094 1_455 S
Mn145 O150 2.121 . S
Mn145 N152 2.257 . S
Mn145 N161 2.282 . S
Mn145 O169 2.215 . S
Mn145 O171 2.117 . S
C146 O168 1.238 . S
C146 O169 1.276 1_455 S
C147 O159 1.281 . S
C147 O160 1.236 . S
C148 O170 1.240 . S
C148 O171 1.264 . S
O149 Mn144 2.095 . S
O149 C158 1.251 . S
O150 Mn145 2.121 . S
O150 C158 1.255 1_655 S
C151 N152 1.326 . S
C151 C155 1.460 1_554 S
C151 H157 0.929 . S
N152 Mn145 2.257 . S
N152 C151 1.326 . S
N152 C156 1.362 . S
C153 C154 1.258 . S
C153 C156 1.431 1_556 S
C153 C173 1.449 . S
C154 C153 1.258 . S
C154 C155 1.477 . S
C154 H174 0.931 . S
C155 C151 1.460 1_556 S
C155 C154 1.477 . S
C155 H175 0.930 . S
C156 N152 1.362 . S
C156 C153 1.431 1_554 S
C156 C166 1.476 . S
H157 C151 0.929 . S
C158 O149 1.251 . S
C158 O150 1.255 1_455 S
O159 Mn144 2.162 . S
O159 C147 1.281 . S
O160 Mn144 2.297 . S
O160 C147 1.236 . S
N161 Mn145 2.282 . S
N161 C162 1.328 . S
N161 C166 1.318 . S
C162 N161 1.328 . S
C162 C163 1.457 . S
C162 H167 0.929 . S
C163 C162 1.457 . S
C163 C164 1.291 . S
C163 H176 0.931 . S
C164 C163 1.291 . S
C164 C165 1.373 . S
C164 H177 0.929 . S
C165 C164 1.373 . S
C165 C166 1.396 . S
C165 C172 1.403 . S
C166 C156 1.476 . S
C166 N161 1.318 . S
C166 C165 1.396 . S
H167 C162 0.929 . S
O168 Mn144 2.385 . S
O168 C146 1.238 . S
O169 Mn144 2.209 1_655 S
O169 Mn145 2.215 . S
O169 C146 1.276 1_655 S
O170 Mn144 2.094 1_655 S
O170 C148 1.240 . S
O171 Mn145 2.117 . S
O171 C148 1.264 . S
C172 C165 1.403 . S
C172 C173 1.399 1_554 S
C172 H178 0.929 . S
C173 C153 1.449 . S
C173 C172 1.399 1_556 S
C173 H179 0.930 . S
H174 C154 0.931 . S
H175 C155 0.930 . S
H176 C163 0.931 . S
H177 C164 0.929 . S
H178 C172 0.929 . S
H179 C173 0.930 . S
Mn180 O185 2.095 . S
Mn180 O195 2.162 . S
Mn180 O196 2.297 . S
Mn180 O204 2.385 . S
Mn180 O205 2.209 . S
Mn180 O206 2.094 . S
Mn181 O186 2.121 . S
Mn181 N188 2.257 . S
Mn181 N197 2.282 . S
Mn181 O205 2.215 . S
Mn181 O207 2.117 . S
C182 O204 1.234 . S
C182 O205 1.283 . S
C183 O195 1.281 . S
C183 O196 1.236 . S
C184 O206 1.240 . S
C184 O207 1.264 . S
O185 Mn180 2.095 . S
O185 C194 1.250 . S
O186 Mn181 2.121 . S
O186 C194 1.258 . S
C187 N188 1.326 . S
C187 C191 1.460 . S
C187 H193 0.929 . S
N188 Mn181 2.257 . S
N188 C187 1.326 . S
N188 C192 1.362 . S
C189 C190 1.258 . S
C189 C192 1.431 . S
C189 C209 1.449 . S
C190 C189 1.258 . S
C190 C191 1.477 . S
C190 H210 0.931 . S
C191 C187 1.460 . S
C191 C190 1.477 . S
C191 H211 0.930 . S
C192 N188 1.362 . S
C192 C189 1.431 . S
C192 C202 1.476 . S
H193 C187 0.929 . S
C194 O185 1.250 . S
C194 O186 1.258 . S
O195 Mn180 2.162 . S
O195 C183 1.281 . S
O196 Mn180 2.297 . S
O196 C183 1.236 . S
N197 Mn181 2.282 . S
N197 C198 1.328 . S
N197 C202 1.318 . S
C198 N197 1.328 . S
C198 C199 1.457 . S
C198 H203 0.929 . S
C199 C198 1.457 . S
C199 C200 1.291 . S
C199 H212 0.931 . S
C200 C199 1.291 . S
C200 C201 1.373 . S
C200 H213 0.929 . S
C201 C200 1.373 . S
C201 C202 1.396 . S
C201 C208 1.403 . S
C202 C192 1.476 . S
C202 N197 1.318 . S
C202 C201 1.396 . S
H203 C198 0.929 . S
O204 Mn180 2.385 . S
O204 C182 1.234 . S
O205 Mn180 2.209 . S
O205 Mn181 2.215 . S
O205 C182 1.283 . S
O206 Mn180 2.094 . S
O206 C184 1.240 . S
O207 Mn181 2.117 . S
O207 C184 1.264 . S
C208 C201 1.403 . S
C208 C209 1.399 . S
C208 H214 0.929 . S
C209 C189 1.449 . S
C209 C208 1.399 . S
C209 H215 0.930 . S
H210 C190 0.931 . S
H211 C191 0.930 . S
H212 C199 0.931 . S
H213 C200 0.929 . S
H214 C208 0.929 . S
H215 C209 0.930 . S
Mn216 O221 2.095 . S
Mn216 O231 2.162 . S
Mn216 O232 2.297 . S
Mn216 O240 2.385 . S
Mn216 O241 2.209 . S
Mn216 O242 2.094 . S
Mn217 O222 2.121 . S
Mn217 N224 2.257 . S
Mn217 N233 2.282 . S
Mn217 O241 2.215 . S
Mn217 O243 2.117 . S
C218 O240 1.234 . S
C218 O241 1.283 . S
C219 O231 1.281 . S
C219 O232 1.236 . S
C220 O242 1.240 . S
C220 O243 1.264 . S
O221 Mn216 2.095 . S
O221 C230 1.250 . S
O222 Mn217 2.121 . S
O222 C230 1.258 . S
C223 N224 1.326 . S
C223 C227 1.460 . S
C223 H229 0.929 . S
N224 Mn217 2.257 . S
N224 C223 1.326 . S
N224 C228 1.362 . S
C225 C226 1.258 . S
C225 C228 1.431 . S
C225 C245 1.449 . S
C226 C225 1.258 . S
C226 C227 1.477 . S
C226 H246 0.931 . S
C227 C223 1.460 . S
C227 C226 1.477 . S
C227 H247 0.930 . S
C228 N224 1.362 . S
C228 C225 1.431 . S
C228 C238 1.476 . S
H229 C223 0.929 . S
C230 O221 1.250 . S
C230 O222 1.258 . S
O231 Mn216 2.162 . S
O231 C219 1.281 . S
O232 Mn216 2.297 . S
O232 C219 1.236 . S
N233 Mn217 2.282 . S
N233 C234 1.328 . S
N233 C238 1.318 . S
C234 N233 1.328 . S
C234 C235 1.457 . S
C234 H239 0.929 . S
C235 C234 1.457 . S
C235 C236 1.291 . S
C235 H248 0.931 . S
C236 C235 1.291 . S
C236 C237 1.373 . S
C236 H249 0.929 . S
C237 C236 1.373 . S
C237 C238 1.396 . S
C237 C244 1.403 . S
C238 C228 1.476 . S
C238 N233 1.318 . S
C238 C237 1.396 . S
H239 C234 0.929 . S
O240 Mn216 2.385 . S
O240 C218 1.234 . S
O241 Mn216 2.209 . S
O241 Mn217 2.215 . S
O241 C218 1.283 . S
O242 Mn216 2.094 . S
O242 C220 1.240 . S
O243 Mn217 2.117 . S
O243 C220 1.264 . S
C244 C237 1.403 . S
C244 C245 1.399 . S
C244 H250 0.929 . S
C245 C225 1.449 . S
C245 C244 1.399 . S
C245 H251 0.930 . S
H246 C226 0.931 . S
H247 C227 0.930 . S
H248 C235 0.931 . S
H249 C236 0.929 . S
H250 C244 0.929 . S
H251 C245 0.930 . S
Mn252 O257 2.095 . S
Mn252 O267 2.162 . S
Mn252 O268 2.297 . S
Mn252 O276 2.385 1_455 S
Mn252 O277 2.209 1_455 S
Mn252 O278 2.094 . S
Mn253 O258 2.121 . S
Mn253 N260 2.257 1_455 S
Mn253 N269 2.282 1_455 S
Mn253 O277 2.215 1_455 S
Mn253 O279 2.117 . S
C254 O276 1.234 . S
C254 O277 1.283 . S
C255 O267 1.281 . S
C255 O268 1.236 . S
C256 O278 1.240 . S
C256 O279 1.264 . S
O257 Mn252 2.095 . S
O257 C266 1.250 . S
O258 Mn253 2.121 . S
O258 C266 1.258 . S
C259 N260 1.326 1_455 S
C259 C263 1.460 1_455 S
C259 H265 0.929 . S
N260 Mn253 2.257 1_655 S
N260 C259 1.326 1_655 S
N260 C264 1.362 . S
C261 C262 1.258 . S
C261 C264 1.431 . S
C261 C281 1.449 . S
C262 C261 1.258 . S
C262 C263 1.477 . S
C262 H282 0.931 . S
C263 C259 1.460 1_655 S
C263 C262 1.477 . S
C263 H283 0.930 1_655 S
C264 N260 1.362 . S
C264 C261 1.431 . S
C264 C274 1.476 . S
H265 C259 0.929 . S
C266 O257 1.250 . S
C266 O258 1.258 . S
O267 Mn252 2.162 . S
O267 C255 1.281 . S
O268 Mn252 2.297 . S
O268 C255 1.236 . S
N269 Mn253 2.282 1_655 S
N269 C270 1.328 . S
N269 C274 1.318 . S
C270 N269 1.328 . S
C270 C271 1.457 . S
C270 H275 0.929 . S
C271 C270 1.457 . S
C271 C272 1.291 . S
C271 H284 0.931 . S
C272 C271 1.291 . S
C272 C273 1.373 . S
C272 H285 0.929 . S
C273 C272 1.373 . S
C273 C274 1.396 . S
C273 C280 1.403 . S
C274 C264 1.476 . S
C274 N269 1.318 . S
C274 C273 1.396 . S
H275 C270 0.929 . S
O276 Mn252 2.385 1_655 S
O276 C254 1.234 . S
O277 Mn252 2.209 1_655 S
O277 Mn253 2.215 1_655 S
O277 C254 1.283 . S
O278 Mn252 2.094 . S
O278 C256 1.240 . S
O279 Mn253 2.117 . S
O279 C256 1.264 . S
C280 C273 1.403 . S
C280 C281 1.399 . S
C280 H286 0.929 . S
C281 C261 1.449 . S
C281 C280 1.399 . S
C281 H287 0.930 . S
H282 C262 0.931 . S
H283 C263 0.930 1_455 S
H284 C271 0.931 . S
H285 C272 0.929 . S
H286 C280 0.929 . S
H287 C281 0.930 . S
Mn288 O293 2.095 . S
Mn288 O303 2.162 . S
Mn288 O304 2.297 . S
Mn288 O312 2.385 1_545 S
Mn288 O313 2.209 . S
Mn288 O314 2.094 . S
Mn289 O294 2.121 . S
Mn289 N296 2.257 . S
Mn289 N305 2.282 1_545 S
Mn289 O313 2.215 . S
Mn289 O315 2.117 . S
C290 O312 1.234 . S
C290 O313 1.283 1_565 S
C291 O303 1.281 . S
C291 O304 1.236 . S
C292 O314 1.240 . S
C292 O315 1.264 . S
O293 Mn288 2.095 . S
O293 C302 1.250 . S
O294 Mn289 2.121 . S
O294 C302 1.258 . S
C295 N296 1.326 . S
C295 C299 1.460 . S
C295 H301 0.929 . S
N296 Mn289 2.257 . S
N296 C295 1.326 . S
N296 C300 1.362 1_545 S
C297 C298 1.258 . S
C297 C300 1.431 . S
C297 C317 1.449 . S
C298 C297 1.258 . S
C298 C299 1.477 1_565 S
C298 H318 0.931 . S
C299 C295 1.460 . S
C299 C298 1.477 1_545 S
C299 H319 0.930 . S
C300 N296 1.362 1_565 S
C300 C297 1.431 . S
C300 C310 1.476 . S
H301 C295 0.929 . S
C302 O293 1.250 . S
C302 O294 1.258 . S
O303 Mn288 2.162 . S
O303 C291 1.281 . S
O304 Mn288 2.297 . S
O304 C291 1.236 . S
N305 Mn289 2.282 1_565 S
N305 C306 1.328 . S
N305 C310 1.318 . S
C306 N305 1.328 . S
C306 C307 1.457 . S
C306 H311 0.929 . S
C307 C306 1.457 . S
C307 C308 1.291 . S
C307 H320 0.931 . S
C308 C307 1.291 . S
C308 C309 1.373 . S
C308 H321 0.929 . S
C309 C308 1.373 . S
C309 C310 1.396 . S
C309 C316 1.403 . S
C310 C300 1.476 . S
C310 N305 1.318 . S
C310 C309 1.396 . S
H311 C306 0.929 . S
O312 Mn288 2.385 1_565 S
O312 C290 1.234 . S
O313 Mn288 2.209 . S
O313 Mn289 2.215 . S
O313 C290 1.283 1_545 S
O314 Mn288 2.094 . S
O314 C292 1.240 . S
O315 Mn289 2.117 . S
O315 C292 1.264 . S
C316 C309 1.403 . S
C316 C317 1.399 . S
C316 H322 0.929 . S
C317 C297 1.449 . S
C317 C316 1.399 . S
C317 H323 0.930 . S
H318 C298 0.931 . S
H319 C299 0.930 . S
H320 C307 0.931 . S
H321 C308 0.929 . S
H322 C316 0.929 . S
H323 C317 0.930 . S
Mn324 O329 2.095 . S
Mn324 O339 2.162 . S
Mn324 O340 2.297 . S
Mn324 O348 2.385 . S
Mn324 O349 2.209 . S
Mn324 O350 2.094 . S
Mn325 O330 2.121 . S
Mn325 N332 2.257 . S
Mn325 N341 2.282 . S
Mn325 O349 2.215 . S
Mn325 O351 2.117 . S
C326 O348 1.234 . S
C326 O349 1.283 . S
C327 O339 1.281 . S
C327 O340 1.236 . S
C328 O350 1.240 . S
C328 O351 1.264 . S
O329 Mn324 2.095 . S
O329 C338 1.250 . S
O330 Mn325 2.121 . S
O330 C338 1.258 . S
C331 N332 1.326 . S
C331 C335 1.490 . S
C331 H337 0.929 . S
N332 Mn325 2.257 . S
N332 C331 1.326 . S
N332 C336 1.362 . S
C333 C334 1.258 1_545 S
C333 C336 1.431 . S
C333 C353 1.448 1_545 S
C334 C333 1.258 1_565 S
C334 C335 1.473 1_565 S
C334 H354 0.931 . S
C335 C331 1.490 . S
C335 C334 1.473 1_545 S
C335 H355 0.905 1_545 S
C336 N332 1.362 . S
C336 C333 1.431 . S
C336 C346 1.476 . S
H337 C331 0.929 . S
C338 O329 1.250 . S
C338 O330 1.258 . S
O339 Mn324 2.162 . S
O339 C327 1.281 . S
O340 Mn324 2.297 . S
O340 C327 1.236 . S
N341 Mn325 2.282 . S
N341 C342 1.328 . S
N341 C346 1.318 . S
C342 N341 1.328 . S
C342 C343 1.457 . S
C342 H347 0.929 . S
C343 C342 1.457 . S
C343 C344 1.291 . S
C343 H356 0.931 . S
C344 C343 1.291 . S
C344 C345 1.373 . S
C344 H357 0.929 . S
C345 C344 1.373 . S
C345 C346 1.396 . S
C345 C352 1.403 . S
C346 C336 1.476 . S
C346 N341 1.318 . S
C346 C345 1.396 . S
H347 C342 0.929 . S
O348 Mn324 2.385 . S
O348 C326 1.234 . S
O349 Mn324 2.209 . S
O349 Mn325 2.215 . S
O349 C326 1.283 . S
O350 Mn324 2.094 . S
O350 C328 1.240 . S
O351 Mn325 2.117 . S
O351 C328 1.264 . S
C352 C345 1.403 . S
C352 C353 1.392 1_545 S
C352 H358 0.929 . S
C353 C333 1.448 1_565 S
C353 C352 1.392 1_565 S
C353 H359 0.938 . S
H354 C334 0.931 . S
H355 C335 0.905 1_565 S
H356 C343 0.931 . S
H357 C344 0.929 . S
H358 C352 0.929 . S
H359 C353 0.938 . S
Mn360 O365 2.093 1_545 S
Mn360 O375 2.162 1_545 S
Mn360 O376 2.297 . S
Mn360 O384 2.387 . S
Mn360 O385 2.209 . S
Mn360 O386 2.094 1_545 S
Mn361 O366 2.121 1_545 S
Mn361 N368 2.257 . S
Mn361 N377 2.282 . S
Mn361 O385 2.215 . S
Mn361 O387 2.117 . S
C362 O384 1.234 . S
C362 O385 1.283 . S
C363 O375 1.281 . S
C363 O376 1.236 1_565 S
C364 O386 1.240 1_545 S
C364 O387 1.264 . S
O365 Mn360 2.093 1_565 S
O365 C374 1.250 . S
O366 Mn361 2.121 1_565 S
O366 C374 1.258 . S
C367 N368 1.326 . S
C367 C371 1.460 . S
C367 H373 0.929 1_545 S
N368 Mn361 2.257 . S
N368 C367 1.326 . S
N368 C372 1.362 . S
C369 C370 1.258 . S
C369 C372 1.431 . S
C369 C389 1.449 . S
C370 C369 1.258 . S
C370 C371 1.477 . S
C370 H390 0.931 . S
C371 C367 1.460 . S
C371 C370 1.477 . S
C371 H391 0.930 . S
C372 N368 1.362 . S
C372 C369 1.431 . S
C372 C382 1.476 . S
H373 C367 0.929 1_565 S
C374 O365 1.250 . S
C374 O366 1.258 . S
O375 Mn360 2.162 1_565 S
O375 C363 1.281 . S
O376 Mn360 2.297 . S
O376 C363 1.236 1_545 S
N377 Mn361 2.282 . S
N377 C378 1.328 . S
N377 C382 1.318 . S
C378 N377 1.328 . S
C378 C379 1.457 . S
C378 H383 0.929 . S
C379 C378 1.457 . S
C379 C380 1.291 . S
C379 H392 0.931 . S
C380 C379 1.291 . S
C380 C381 1.373 . S
C380 H393 0.929 . S
C381 C380 1.373 . S
C381 C382 1.396 . S
C381 C388 1.403 . S
C382 C372 1.476 . S
C382 N377 1.318 . S
C382 C381 1.396 . S
H383 C378 0.929 . S
O384 Mn360 2.387 . S
O384 C362 1.234 . S
O385 Mn360 2.209 . S
O385 Mn361 2.215 . S
O385 C362 1.283 . S
O386 Mn360 2.094 1_565 S
O386 C364 1.240 1_565 S
O387 Mn361 2.117 . S
O387 C364 1.264 . S
C388 C381 1.403 . S
C388 C389 1.399 . S
C388 H394 0.929 . S
C389 C369 1.449 . S
C389 C388 1.399 . S
C389 H395 0.930 . S
H390 C370 0.931 . S
H391 C371 0.930 . S
H392 C379 0.931 . S
H393 C380 0.929 . S
H394 C388 0.929 . S
H395 C389 0.930 . S
Mn396 O401 2.095 . S
Mn396 O411 2.162 . S
Mn396 O412 2.297 . S
Mn396 O420 2.385 . S
Mn396 O421 2.209 . S
Mn396 O422 2.094 1_554 S
Mn397 O402 2.121 1_556 S
Mn397 N404 2.257 1_565 S
Mn397 N413 2.282 . S
Mn397 O421 2.215 1_556 S
Mn397 O423 2.117 . S
C398 O420 1.234 . S
C398 O421 1.283 . S
C399 O411 1.281 . S
C399 O412 1.236 . S
C400 O422 1.240 . S
C400 O423 1.264 . S
O401 Mn396 2.095 . S
O401 C410 1.250 . S
O402 Mn397 2.121 1_554 S
O402 C410 1.258 . S
C403 N404 1.326 1_554 S
C403 C407 1.460 . S
C403 H409 0.929 . S
N404 Mn397 2.257 1_545 S
N404 C403 1.326 1_556 S
N404 C408 1.362 . S
C405 C406 1.258 . S
C405 C408 1.431 . S
C405 C425 1.449 . S
C406 C405 1.258 . S
C406 C407 1.477 1_556 S
C406 H426 0.930 . S
C407 C403 1.460 . S
C407 C406 1.477 1_554 S
C407 H427 0.930 . S
C408 N404 1.362 . S
C408 C405 1.431 . S
C408 C418 1.476 1_545 S
H409 C403 0.929 . S
C410 O401 1.250 . S
C410 O402 1.258 . S
O411 Mn396 2.162 . S
O411 C399 1.281 . S
O412 Mn396 2.297 . S
O412 C399 1.236 . S
N413 Mn397 2.282 . S
N413 C414 1.328 . S
N413 C418 1.318 . S
C414 N413 1.328 . S
C414 C415 1.457 . S
C414 H419 0.929 . S
C415 C414 1.457 . S
C415 C416 1.291 . S
C415 H428 0.931 . S
C416 C415 1.291 . S
C416 C417 1.373 1_565 S
C416 H429 0.929 . S
C417 C416 1.373 1_545 S
C417 C418 1.396 1_545 S
C417 C424 1.403 . S
C418 C408 1.476 1_565 S
C418 N413 1.318 . S
C418 C417 1.396 1_565 S
H419 C414 0.929 . S
O420 Mn396 2.385 . S
O420 C398 1.234 . S
O421 Mn396 2.209 . S
O421 Mn397 2.215 1_554 S
O421 C398 1.283 . S
O422 Mn396 2.094 1_556 S
O422 C400 1.240 . S
O423 Mn397 2.117 . S
O423 C400 1.264 . S
C424 C417 1.403 . S
C424 C425 1.399 . S
C424 H430 0.929 . S
C425 C405 1.449 . S
C425 C424 1.399 . S
C425 H431 0.930 . S
H426 C406 0.930 . S
H427 C407 0.930 . S
H428 C415 0.931 . S
H429 C416 0.929 . S
H430 C424 0.929 . S
H431 C425 0.930 . S
Mn432 O437 2.095 . S
Mn432 O447 2.162 . S
Mn432 O448 2.297 . S
Mn432 O456 2.385 . S
Mn432 O457 2.209 . S
Mn432 O458 2.094 1_554 S
Mn433 O438 2.121 1_556 S
Mn433 N440 2.257 . S
Mn433 N449 2.282 . S
Mn433 O457 2.215 1_556 S
Mn433 O459 2.117 . S
C434 O456 1.234 . S
C434 O457 1.283 . S
C435 O447 1.281 . S
C435 O448 1.236 . S
C436 O458 1.240 . S
C436 O459 1.264 . S
O437 Mn432 2.095 . S
O437 C446 1.250 . S
O438 Mn433 2.121 1_554 S
O438 C446 1.258 . S
C439 N440 1.326 1_554 S
C439 C443 1.460 . S
C439 H445 0.929 . S
N440 Mn433 2.257 . S
N440 C439 1.326 1_556 S
N440 C444 1.362 . S
C441 C442 1.258 1_556 S
C441 C444 1.431 . S
C441 C461 1.449 . S
C442 C441 1.258 1_554 S
C442 C443 1.477 . S
C442 H462 0.931 . S
C443 C439 1.460 . S
C443 C442 1.477 . S
C443 H463 0.930 . S
C444 N440 1.362 . S
C444 C441 1.431 . S
C444 C454 1.476 . S
H445 C439 0.929 . S
C446 O437 1.250 . S
C446 O438 1.258 . S
O447 Mn432 2.162 . S
O447 C435 1.281 . S
O448 Mn432 2.297 . S
O448 C435 1.236 . S
N449 Mn433 2.282 . S
N449 C450 1.328 . S
N449 C454 1.318 . S
C450 N449 1.328 . S
C450 C451 1.457 . S
C450 H455 0.929 . S
C451 C450 1.457 . S
C451 C452 1.291 . S
C451 H464 0.931 . S
C452 C451 1.291 . S
C452 C453 1.373 . S
C452 H465 0.929 . S
C453 C452 1.373 . S
C453 C454 1.396 . S
C453 C460 1.403 . S
C454 C444 1.476 . S
C454 N449 1.318 . S
C454 C453 1.396 . S
H455 C450 0.929 . S
O456 Mn432 2.385 . S
O456 C434 1.234 . S
O457 Mn432 2.209 . S
O457 Mn433 2.215 1_554 S
O457 C434 1.283 . S
O458 Mn432 2.094 1_556 S
O458 C436 1.240 . S
O459 Mn433 2.117 . S
O459 C436 1.264 . S
C460 C453 1.403 . S
C460 C461 1.399 . S
C460 H466 0.929 . S
C461 C441 1.449 . S
C461 C460 1.399 . S
C461 H467 0.930 . S
H462 C442 0.931 . S
H463 C443 0.930 . S
H464 C451 0.931 . S
H465 C452 0.929 . S
H466 C460 0.929 . S
H467 C461 0.930 . S
Mn468 O473 2.102 . S
Mn468 O483 2.162 . S
Mn468 O484 2.297 . S
Mn468 O492 2.385 . S
Mn468 O493 2.209 1_554 S
Mn468 O494 2.094 1_554 S
Mn469 O474 2.121 . S
Mn469 N476 2.257 . S
Mn469 N485 2.282 . S
Mn469 O493 2.215 . S
Mn469 O495 2.117 . S
C470 O492 1.237 . S
C470 O493 1.278 1_554 S
C471 O483 1.281 . S
C471 O484 1.236 . S
C472 O494 1.240 . S
C472 O495 1.264 . S
O473 Mn468 2.102 . S
O473 C482 1.247 1_554 S
O474 Mn469 2.121 . S
O474 C482 1.258 . S
C475 N476 1.326 . S
C475 C479 1.460 1_545 S
C475 H481 0.929 . S
N476 Mn469 2.257 . S
N476 C475 1.326 . S
N476 C480 1.362 . S
C477 C478 1.258 1_545 S
C477 C480 1.431 . S
C477 C497 1.449 1_545 S
C478 C477 1.258 1_565 S
C478 C479 1.477 . S
C478 H498 0.931 . S
C479 C475 1.460 1_565 S
C479 C478 1.477 . S
C479 H499 0.930 . S
C480 N476 1.362 . S
C480 C477 1.431 . S
C480 C490 1.476 . S
H481 C475 0.929 . S
C482 O473 1.247 1_556 S
C482 O474 1.258 . S
O483 Mn468 2.162 . S
O483 C471 1.281 . S
O484 Mn468 2.297 . S
O484 C471 1.236 . S
N485 Mn469 2.282 . S
N485 C486 1.328 . S
N485 C490 1.318 . S
C486 N485 1.328 . S
C486 C487 1.457 . S
C486 H491 0.929 . S
C487 C486 1.457 . S
C487 C488 1.291 . S
C487 H500 0.931 . S
C488 C487 1.291 . S
C488 C489 1.373 . S
C488 H501 0.929 . S
C489 C488 1.373 . S
C489 C490 1.396 . S
C489 C496 1.403 . S
C490 C480 1.476 . S
C490 N485 1.318 . S
C490 C489 1.396 . S
H491 C486 0.929 . S
O492 Mn468 2.385 . S
O492 C470 1.237 . S
O493 Mn468 2.209 1_556 S
O493 Mn469 2.215 . S
O493 C470 1.278 1_556 S
O494 Mn468 2.094 1_556 S
O494 C472 1.240 . S
O495 Mn469 2.117 . S
O495 C472 1.264 . S
C496 C489 1.403 . S
C496 C497 1.399 1_545 S
C496 H502 0.929 . S
C497 C477 1.449 1_565 S
C497 C496 1.399 1_565 S
C497 H503 0.930 . S
H498 C478 0.931 . S
H499 C479 0.930 . S
H500 C487 0.931 . S
H501 C488 0.929 . S
H502 C496 0.929 . S
H503 C497 0.930 . S
Mn504 O509 2.095 . S
Mn504 O519 2.162 . S
Mn504 O520 2.297 . S
Mn504 O528 2.385 . S
Mn504 O529 2.209 . S
Mn504 O530 2.094 . S
Mn505 O510 2.121 . S
Mn505 N512 2.257 . S
Mn505 N521 2.282 . S
Mn505 O529 2.215 . S
Mn505 O531 2.117 . S
C506 O528 1.234 . S
C506 O529 1.283 . S
C507 O519 1.281 . S
C507 O520 1.236 . S
C508 O530 1.240 . S
C508 O531 1.264 . S
O509 Mn504 2.095 . S
O509 C518 1.250 . S
O510 Mn505 2.121 . S
O510 C518 1.258 . S
C511 N512 1.326 . S
C511 C515 1.460 . S
C511 H517 0.929 . S
N512 Mn505 2.257 . S
N512 C511 1.326 . S
N512 C516 1.362 . S
C513 C514 1.258 . S
C513 C516 1.431 . S
C513 C533 1.449 . S
C514 C513 1.258 . S
C514 C515 1.477 . S
C514 H534 0.931 . S
C515 C511 1.460 . S
C515 C514 1.477 . S
C515 H535 0.930 . S
C516 N512 1.362 . S
C516 C513 1.431 . S
C516 C526 1.476 . S
H517 C511 0.929 . S
C518 O509 1.250 . S
C518 O510 1.258 . S
O519 Mn504 2.162 . S
O519 C507 1.281 . S
O520 Mn504 2.297 . S
O520 C507 1.236 . S
N521 Mn505 2.282 . S
N521 C522 1.328 . S
N521 C526 1.318 . S
C522 N521 1.328 . S
C522 C523 1.457 . S
C522 H527 0.929 . S
C523 C522 1.457 . S
C523 C524 1.291 . S
C523 H536 0.931 . S
C524 C523 1.291 . S
C524 C525 1.373 . S
C524 H537 0.929 . S
C525 C524 1.373 . S
C525 C526 1.396 . S
C525 C532 1.403 . S
C526 C516 1.476 . S
C526 N521 1.318 . S
C526 C525 1.396 . S
H527 C522 0.929 . S
O528 Mn504 2.385 . S
O528 C506 1.234 . S
O529 Mn504 2.209 . S
O529 Mn505 2.215 . S
O529 C506 1.283 . S
O530 Mn504 2.094 . S
O530 C508 1.240 . S
O531 Mn505 2.117 . S
O531 C508 1.264 . S
C532 C525 1.403 . S
C532 C533 1.399 . S
C532 H538 0.929 . S
C533 C513 1.449 . S
C533 C532 1.399 . S
C533 H539 0.930 . S
H534 C514 0.931 . S
H535 C515 0.930 . S
H536 C523 0.931 . S
H537 C524 0.929 . S
H538 C532 0.929 . S
H539 C533 0.930 . S
Mn540 O545 2.095 . S
Mn540 O555 2.162 . S
Mn540 O556 2.297 . S
Mn540 O564 2.385 . S
Mn540 O565 2.209 . S
Mn540 O566 2.094 . S
Mn541 O546 2.121 . S
Mn541 N548 2.257 1_565 S
Mn541 N557 2.282 . S
Mn541 O565 2.215 . S
Mn541 O567 2.117 . S
C542 O564 1.234 . S
C542 O565 1.283 . S
C543 O555 1.281 . S
C543 O556 1.236 . S
C544 O566 1.240 . S
C544 O567 1.264 . S
O545 Mn540 2.095 . S
O545 C554 1.250 . S
O546 Mn541 2.121 . S
O546 C554 1.258 . S
C547 N548 1.326 . S
C547 C551 1.460 . S
C547 H553 0.929 . S
N548 Mn541 2.257 1_545 S
N548 C547 1.326 . S
N548 C552 1.362 . S
C549 C550 1.258 . S
C549 C552 1.431 . S
C549 C569 1.449 . S
C550 C549 1.258 . S
C550 C551 1.477 . S
C550 H570 0.931 . S
C551 C547 1.460 . S
C551 C550 1.477 . S
C551 H571 0.930 . S
C552 N548 1.362 . S
C552 C549 1.431 . S
C552 C562 1.476 1_545 S
H553 C547 0.929 . S
C554 O545 1.250 . S
C554 O546 1.258 . S
O555 Mn540 2.162 . S
O555 C543 1.281 . S
O556 Mn540 2.297 . S
O556 C543 1.236 . S
N557 Mn541 2.282 . S
N557 C558 1.328 . S
N557 C562 1.318 . S
C558 N557 1.328 . S
C558 C559 1.457 . S
C558 H563 0.929 . S
C559 C558 1.457 . S
C559 C560 1.291 . S
C559 H572 0.931 . S
C560 C559 1.291 . S
C560 C561 1.373 . S
C560 H573 0.929 . S
C561 C560 1.373 . S
C561 C562 1.396 . S
C561 C568 1.403 1_565 S
C562 C552 1.476 1_565 S
C562 N557 1.318 . S
C562 C561 1.396 . S
H563 C558 0.929 . S
O564 Mn540 2.385 . S
O564 C542 1.234 . S
O565 Mn540 2.209 . S
O565 Mn541 2.215 . S
O565 C542 1.283 . S
O566 Mn540 2.094 . S
O566 C544 1.240 . S
O567 Mn541 2.117 . S
O567 C544 1.264 . S
C568 C561 1.403 1_545 S
C568 C569 1.399 . S
C568 H574 0.929 . S
C569 C549 1.449 . S
C569 C568 1.399 . S
C569 H575 0.930 . S
H570 C550 0.931 . S
H571 C551 0.930 . S
H572 C559 0.931 . S
H573 C560 0.929 . S
H574 C568 0.929 . S
H575 C569 0.930 . S
Mn576 O581 2.095 . S
Mn576 O591 2.162 . S
Mn576 O592 2.297 . S
Mn576 O600 2.385 1_545 S
Mn576 O601 2.209 . S
Mn576 O602 2.094 . S
Mn577 O582 2.121 . S
Mn577 N584 2.257 . S
Mn577 N593 2.257 1_545 S
Mn577 O601 2.215 . S
Mn577 O603 2.117 . S
C578 O600 1.234 . S
C578 O601 1.283 1_565 S
C579 O591 1.281 . S
C579 O592 1.236 . S
C580 O602 1.240 . S
C580 O603 1.264 . S
O581 Mn576 2.095 . S
O581 C590 1.250 . S
O582 Mn577 2.121 . S
O582 C590 1.258 . S
C583 N584 1.326 . S
C583 C587 1.460 . S
C583 H589 0.929 . S
N584 Mn577 2.257 . S
N584 C583 1.326 . S
N584 C588 1.385 . S
C585 C586 1.244 1_565 S
C585 C588 1.425 1_565 S
C585 C605 1.449 . S
C586 C585 1.244 1_545 S
C586 C587 1.496 . S
C586 H606 0.926 1_545 S
C587 C583 1.460 . S
C587 C586 1.496 . S
C587 H607 0.930 . S
C588 N584 1.385 . S
C588 C585 1.425 1_545 S
C588 C598 1.459 1_545 S
H589 C583 0.929 . S
C590 O581 1.250 . S
C590 O582 1.258 . S
O591 Mn576 2.162 . S
O591 C579 1.281 . S
O592 Mn576 2.297 . S
O592 C579 1.236 . S
N593 Mn577 2.257 1_565 S
N593 C594 1.345 . S
N593 C598 1.327 . S
C594 N593 1.345 . S
C594 C595 1.457 . S
C594 H599 0.929 . S
C595 C594 1.457 . S
C595 C596 1.291 . S
C595 H608 0.931 . S
C596 C595 1.291 . S
C596 C597 1.373 . S
C596 H609 0.929 . S
C597 C596 1.373 . S
C597 C598 1.396 . S
C597 C604 1.403 . S
C598 C588 1.459 1_565 S
C598 N593 1.327 . S
C598 C597 1.396 . S
H599 C594 0.929 . S
O600 Mn576 2.385 1_565 S
O600 C578 1.234 . S
O601 Mn576 2.209 . S
O601 Mn577 2.215 . S
O601 C578 1.283 1_545 S
O602 Mn576 2.094 . S
O602 C580 1.240 . S
O603 Mn577 2.117 . S
O603 C580 1.264 . S
C604 C597 1.403 . S
C604 C605 1.399 . S
C604 H610 0.929 . S
C605 C585 1.449 . S
C605 C604 1.399 . S
C605 H611 0.930 . S
H606 C586 0.926 1_565 S
H607 C587 0.930 . S
H608 C595 0.931 . S
H609 C596 0.929 . S
H610 C604 0.929 . S
H611 C605 0.930 . S
Mn612 O617 2.095 . S
Mn612 O627 2.162 . S
Mn612 O628 2.297 . S
Mn612 O636 2.385 . S
Mn612 O637 2.209 . S
Mn612 O638 2.094 . S
Mn613 O618 2.121 . S
Mn613 N620 2.257 . S
Mn613 N629 2.282 . S
Mn613 O637 2.215 . S
Mn613 O639 2.117 . S
C614 O636 1.234 . S
C614 O637 1.283 . S
C615 O627 1.281 . S
C615 O628 1.236 . S
C616 O638 1.240 . S
C616 O639 1.264 . S
O617 Mn612 2.095 . S
O617 C626 1.250 . S
O618 Mn613 2.121 . S
O618 C626 1.258 . S
C619 N620 1.326 . S
C619 C623 1.460 . S
C619 H625 0.929 . S
N620 Mn613 2.257 . S
N620 C619 1.326 . S
N620 C624 1.362 . S
C621 C622 1.258 . S
C621 C624 1.431 . S
C621 C641 1.449 . S
C622 C621 1.258 . S
C622 C623 1.477 . S
C622 H642 0.931 . S
C623 C619 1.460 . S
C623 C622 1.477 . S
C623 H643 0.930 . S
C624 N620 1.362 . S
C624 C621 1.431 . S
C624 C634 1.476 . S
H625 C619 0.929 . S
C626 O617 1.250 . S
C626 O618 1.258 . S
O627 Mn612 2.162 . S
O627 C615 1.281 . S
O628 Mn612 2.297 . S
O628 C615 1.236 . S
N629 Mn613 2.282 . S
N629 C630 1.328 . S
N629 C634 1.318 . S
C630 N629 1.328 . S
C630 C631 1.457 . S
C630 H635 0.929 . S
C631 C630 1.457 . S
C631 C632 1.291 . S
C631 H644 0.931 . S
C632 C631 1.291 . S
C632 C633 1.373 . S
C632 H645 0.929 . S
C633 C632 1.373 . S
C633 C634 1.396 . S
C633 C640 1.403 . S
C634 C624 1.476 . S
C634 N629 1.318 . S
C634 C633 1.396 . S
H635 C630 0.929 . S
O636 Mn612 2.385 . S
O636 C614 1.234 . S
O637 Mn612 2.209 . S
O637 Mn613 2.215 . S
O637 C614 1.283 . S
O638 Mn612 2.094 . S
O638 C616 1.240 . S
O639 Mn613 2.117 . S
O639 C616 1.264 . S
C640 C633 1.403 . S
C640 C641 1.399 . S
C640 H646 0.929 . S
C641 C621 1.449 . S
C641 C640 1.399 . S
C641 H647 0.930 . S
H642 C622 0.931 . S
H643 C623 0.930 . S
H644 C631 0.931 . S
H645 C632 0.929 . S
H646 C640 0.929 . S
H647 C641 0.930 . S
Mn648 O653 2.095 . S
Mn648 O663 2.162 . S
Mn648 O664 2.297 . S
Mn648 O672 2.385 . S
Mn648 O673 2.209 . S
Mn648 O674 2.094 . S
Mn649 O654 2.121 . S
Mn649 N656 2.257 . S
Mn649 N665 2.282 . S
Mn649 O673 2.215 . S
Mn649 O675 2.117 . S
C650 O672 1.234 . S
C650 O673 1.283 . S
C651 O663 1.281 . S
C651 O664 1.236 . S
C652 O674 1.240 . S
C652 O675 1.264 . S
O653 Mn648 2.095 . S
O653 C662 1.250 . S
O654 Mn649 2.121 . S
O654 C662 1.258 . S
C655 N656 1.326 . S
C655 C659 1.460 . S
C655 H661 0.929 . S
N656 Mn649 2.257 . S
N656 C655 1.326 . S
N656 C660 1.362 . S
C657 C658 1.258 . S
C657 C660 1.431 . S
C657 C677 1.449 . S
C658 C657 1.258 . S
C658 C659 1.477 . S
C658 H678 0.931 . S
C659 C655 1.460 . S
C659 C658 1.477 . S
C659 H679 0.930 . S
C660 N656 1.362 . S
C660 C657 1.431 . S
C660 C670 1.476 . S
H661 C655 0.929 . S
C662 O653 1.250 . S
C662 O654 1.258 . S
O663 Mn648 2.162 . S
O663 C651 1.281 . S
O664 Mn648 2.297 . S
O664 C651 1.236 . S
N665 Mn649 2.282 . S
N665 C666 1.328 . S
N665 C670 1.318 . S
C666 N665 1.328 . S
C666 C667 1.457 . S
C666 H671 0.929 . S
C667 C666 1.457 . S
C667 C668 1.291 . S
C667 H680 0.931 . S
C668 C667 1.291 . S
C668 C669 1.373 . S
C668 H681 0.929 . S
C669 C668 1.373 . S
C669 C670 1.396 . S
C669 C676 1.403 . S
C670 C660 1.476 . S
C670 N665 1.318 . S
C670 C669 1.396 . S
H671 C666 0.929 . S
O672 Mn648 2.385 . S
O672 C650 1.234 . S
O673 Mn648 2.209 . S
O673 Mn649 2.215 . S
O673 C650 1.283 . S
O674 Mn648 2.094 . S
O674 C652 1.240 . S
O675 Mn649 2.117 . S
O675 C652 1.264 . S
C676 C669 1.403 . S
C676 C677 1.399 . S
C676 H682 0.929 . S
C677 C657 1.449 . S
C677 C676 1.399 . S
C677 H683 0.930 . S
H678 C658 0.931 . S
H679 C659 0.930 . S
H680 C667 0.931 . S
H681 C668 0.929 . S
H682 C676 0.929 . S
H683 C677 0.930 . S
Mn684 O689 2.095 1_545 S
Mn684 O699 2.162 . S
Mn684 O700 2.297 . S
Mn684 O708 2.385 . S
Mn684 O709 2.209 . S
Mn684 O710 2.094 . S
Mn685 O690 2.121 1_545 S
Mn685 N692 2.257 . S
Mn685 N701 2.282 . S
Mn685 O709 2.215 . S
Mn685 O711 2.117 . S
C686 O708 1.234 . S
C686 O709 1.283 . S
C687 O699 1.281 . S
C687 O700 1.236 . S
C688 O710 1.240 . S
C688 O711 1.264 . S
O689 Mn684 2.095 1_565 S
O689 C698 1.250 . S
O690 Mn685 2.121 1_565 S
O690 C698 1.258 . S
C691 N692 1.326 . S
C691 C695 1.460 . S
C691 H697 0.929 . S
N692 Mn685 2.257 . S
N692 C691 1.326 . S
N692 C696 1.362 . S
C693 C694 1.258 . S
C693 C696 1.431 . S
C693 C713 1.449 . S
C694 C693 1.258 . S
C694 C695 1.477 . S
C694 H714 0.931 . S
C695 C691 1.460 . S
C695 C694 1.477 . S
C695 H715 0.930 . S
C696 N692 1.362 . S
C696 C693 1.431 . S
C696 C706 1.476 . S
H697 C691 0.929 . S
C698 O689 1.250 . S
C698 O690 1.258 . S
O699 Mn684 2.162 . S
O699 C687 1.281 . S
O700 Mn684 2.297 . S
O700 C687 1.236 . S
N701 Mn685 2.282 . S
N701 C702 1.328 . S
N701 C706 1.318 . S
C702 N701 1.328 . S
C702 C703 1.457 . S
C702 H707 0.929 . S
C703 C702 1.457 . S
C703 C704 1.291 . S
C703 H716 0.931 . S
C704 C703 1.291 . S
C704 C705 1.373 . S
C704 H717 0.929 . S
C705 C704 1.373 . S
C705 C706 1.396 . S
C705 C712 1.403 . S
C706 C696 1.476 . S
C706 N701 1.318 . S
C706 C705 1.396 . S
H707 C702 0.929 . S
O708 Mn684 2.385 . S
O708 C686 1.234 . S
O709 Mn684 2.209 . S
O709 Mn685 2.215 . S
O709 C686 1.283 . S
O710 Mn684 2.094 . S
O710 C688 1.240 . S
O711 Mn685 2.117 . S
O711 C688 1.264 . S
C712 C705 1.403 . S
C712 C713 1.399 . S
C712 H718 0.929 . S
C713 C693 1.449 . S
C713 C712 1.399 . S
C713 H719 0.930 . S
H714 C694 0.931 . S
H715 C695 0.930 . S
H716 C703 0.931 . S
H717 C704 0.929 . S
H718 C712 0.929 . S
H719 C713 0.930 . S
Mn720 O725 2.095 1_554 S
Mn720 O735 2.162 . S
Mn720 O736 2.297 . S
Mn720 O744 2.385 . S
Mn720 O745 2.209 1_554 S
Mn720 O746 2.094 1_554 S
Mn721 O726 2.121 . S
Mn721 N728 2.257 . S
Mn721 N737 2.282 . S
Mn721 O745 2.215 . S
Mn721 O747 2.117 . S
C722 O744 1.234 1_556 S
C722 O745 1.283 . S
C723 O735 1.281 . S
C723 O736 1.236 . S
C724 O746 1.240 . S
C724 O747 1.264 . S
O725 Mn720 2.095 1_556 S
O725 C734 1.250 . S
O726 Mn721 2.121 . S
O726 C734 1.258 . S
C727 N728 1.326 . S
C727 C731 1.460 . S
C727 H733 0.929 . S
N728 Mn721 2.257 . S
N728 C727 1.326 . S
N728 C732 1.362 . S
C729 C730 1.258 . S
C729 C732 1.431 . S
C729 C749 1.449 . S
C730 C729 1.258 . S
C730 C731 1.477 . S
C730 H750 0.931 . S
C731 C727 1.460 . S
C731 C730 1.477 . S
C731 H751 0.930 . S
C732 N728 1.362 . S
C732 C729 1.431 . S
C732 C742 1.476 . S
H733 C727 0.929 . S
C734 O725 1.250 . S
C734 O726 1.258 . S
O735 Mn720 2.162 . S
O735 C723 1.281 . S
O736 Mn720 2.297 . S
O736 C723 1.236 . S
N737 Mn721 2.282 . S
N737 C738 1.328 . S
N737 C742 1.318 . S
C738 N737 1.328 . S
C738 C739 1.457 . S
C738 H743 0.929 . S
C739 C738 1.457 . S
C739 C740 1.291 . S
C739 H752 0.931 . S
C740 C739 1.291 . S
C740 C741 1.373 . S
C740 H753 0.929 . S
C741 C740 1.373 . S
C741 C742 1.396 . S
C741 C748 1.403 . S
C742 C732 1.476 . S
C742 N737 1.318 . S
C742 C741 1.396 . S
H743 C738 0.929 . S
O744 Mn720 2.385 . S
O744 C722 1.234 1_554 S
O745 Mn720 2.209 1_556 S
O745 Mn721 2.215 . S
O745 C722 1.283 . S
O746 Mn720 2.094 1_556 S
O746 C724 1.240 . S
O747 Mn721 2.117 . S
O747 C724 1.264 . S
C748 C741 1.403 . S
C748 C749 1.399 . S
C748 H754 0.929 . S
C749 C729 1.449 . S
C749 C748 1.399 . S
C749 H755 0.930 . S
H750 C730 0.931 . S
H751 C731 0.930 . S
H752 C739 0.931 . S
H753 C740 0.929 . S
H754 C748 0.929 . S
H755 C749 0.930 . S
Mn756 O761 2.095 . S
Mn756 O771 2.162 . S
Mn756 O772 2.297 . S
Mn756 O780 2.385 . S
Mn756 O781 2.209 . S
Mn756 O782 2.094 . S
Mn757 O762 2.121 . S
Mn757 N764 2.257 . S
Mn757 N773 2.282 . S
Mn757 O781 2.215 . S
Mn757 O783 2.117 . S
C758 O780 1.234 . S
C758 O781 1.283 . S
C759 O771 1.281 . S
C759 O772 1.236 . S
C760 O782 1.240 . S
C760 O783 1.264 . S
O761 Mn756 2.095 . S
O761 C770 1.250 . S
O762 Mn757 2.121 . S
O762 C770 1.258 . S
C763 N764 1.326 . S
C763 C767 1.460 . S
C763 H769 0.929 . S
N764 Mn757 2.257 . S
N764 C763 1.326 . S
N764 C768 1.362 . S
C765 C766 1.258 . S
C765 C768 1.431 . S
C765 C785 1.449 . S
C766 C765 1.258 . S
C766 C767 1.477 . S
C766 H786 0.931 . S
C767 C763 1.460 . S
C767 C766 1.477 . S
C767 H787 0.930 . S
C768 N764 1.362 . S
C768 C765 1.431 . S
C768 C778 1.476 . S
H769 C763 0.929 . S
C770 O761 1.250 . S
C770 O762 1.258 . S
O771 Mn756 2.162 . S
O771 C759 1.281 . S
O772 Mn756 2.297 . S
O772 C759 1.236 . S
N773 Mn757 2.282 . S
N773 C774 1.328 . S
N773 C778 1.318 . S
C774 N773 1.328 . S
C774 C775 1.457 . S
C774 H779 0.929 . S
C775 C774 1.457 . S
C775 C776 1.291 . S
C775 H788 0.931 . S
C776 C775 1.291 . S
C776 C777 1.373 . S
C776 H789 0.929 . S
C777 C776 1.373 . S
C777 C778 1.396 . S
C777 C784 1.403 . S
C778 C768 1.476 . S
C778 N773 1.318 . S
C778 C777 1.396 . S
H779 C774 0.929 . S
O780 Mn756 2.385 . S
O780 C758 1.234 . S
O781 Mn756 2.209 . S
O781 Mn757 2.215 . S
O781 C758 1.283 . S
O782 Mn756 2.094 . S
O782 C760 1.240 . S
O783 Mn757 2.117 . S
O783 C760 1.264 . S
C784 C777 1.403 . S
C784 C785 1.399 . S
C784 H790 0.929 . S
C785 C765 1.449 . S
C785 C784 1.399 . S
C785 H791 0.930 . S
H786 C766 0.931 . S
H787 C767 0.930 . S
H788 C775 0.931 . S
H789 C776 0.929 . S
H790 C784 0.929 . S
H791 C785 0.930 . S
Mn792 O797 2.095 . S
Mn792 O807 2.162 . S
Mn792 O808 2.297 . S
Mn792 O816 2.385 . S
Mn792 O817 2.209 . S
Mn792 O818 2.094 . S
Mn793 O798 2.121 . S
Mn793 N800 2.257 . S
Mn793 N809 2.282 . S
Mn793 O817 2.215 . S
Mn793 O819 2.117 . S
C794 O816 1.234 . S
C794 O817 1.283 . S
C795 O807 1.281 . S
C795 O808 1.236 . S
C796 O818 1.240 . S
C796 O819 1.264 . S
O797 Mn792 2.095 . S
O797 C806 1.250 . S
O798 Mn793 2.121 . S
O798 C806 1.258 . S
C799 N800 1.326 . S
C799 C803 1.460 . S
C799 H805 0.929 . S
N800 Mn793 2.257 . S
N800 C799 1.326 . S
N800 C804 1.362 . S
C801 C802 1.258 . S
C801 C804 1.431 . S
C801 C821 1.449 . S
C802 C801 1.258 . S
C802 C803 1.477 . S
C802 H822 0.931 . S
C803 C799 1.460 . S
C803 C802 1.477 . S
C803 H823 0.930 . S
C804 N800 1.362 . S
C804 C801 1.431 . S
C804 C814 1.476 . S
H805 C799 0.929 . S
C806 O797 1.250 . S
C806 O798 1.258 . S
O807 Mn792 2.162 . S
O807 C795 1.281 . S
O808 Mn792 2.297 . S
O808 C795 1.236 . S
N809 Mn793 2.282 . S
N809 C810 1.328 . S
N809 C814 1.318 . S
C810 N809 1.328 . S
C810 C811 1.457 . S
C810 H815 0.929 . S
C811 C810 1.457 . S
C811 C812 1.291 . S
C811 H824 0.931 . S
C812 C811 1.291 . S
C812 C813 1.373 . S
C812 H825 0.929 . S
C813 C812 1.373 . S
C813 C814 1.396 . S
C813 C820 1.403 . S
C814 C804 1.476 . S
C814 N809 1.318 . S
C814 C813 1.396 . S
H815 C810 0.929 . S
O816 Mn792 2.385 . S
O816 C794 1.234 . S
O817 Mn792 2.209 . S
O817 Mn793 2.215 . S
O817 C794 1.283 . S
O818 Mn792 2.094 . S
O818 C796 1.240 . S
O819 Mn793 2.117 . S
O819 C796 1.264 . S
C820 C813 1.403 . S
C820 C821 1.399 . S
C820 H826 0.929 . S
C821 C801 1.449 . S
C821 C820 1.399 . S
C821 H827 0.930 . S
H822 C802 0.931 . S
H823 C803 0.930 . S
H824 C811 0.931 . S
H825 C812 0.929 . S
H826 C820 0.929 . S
H827 C821 0.930 . S
Mn828 O833 2.095 . S
Mn828 O843 2.162 . S
Mn828 O844 2.297 . S
Mn828 O852 2.385 . S
Mn828 O853 2.209 . S
Mn828 O854 2.094 . S
Mn829 O834 2.121 . S
Mn829 N836 2.257 . S
Mn829 N845 2.282 . S
Mn829 O853 2.215 . S
Mn829 O855 2.117 . S
C830 O852 1.234 . S
C830 O853 1.283 . S
C831 O843 1.281 . S
C831 O844 1.236 . S
C832 O854 1.240 . S
C832 O855 1.264 . S
O833 Mn828 2.095 . S
O833 C842 1.250 . S
O834 Mn829 2.121 . S
O834 C842 1.258 . S
C835 N836 1.326 . S
C835 C839 1.460 . S
C835 H841 0.929 . S
N836 Mn829 2.257 . S
N836 C835 1.326 . S
N836 C840 1.362 . S
C837 C838 1.258 . S
C837 C840 1.431 . S
C837 C857 1.449 . S
C838 C837 1.258 . S
C838 C839 1.477 . S
C838 H858 0.931 . S
C839 C835 1.460 . S
C839 C838 1.477 . S
C839 H859 0.930 . S
C840 N836 1.362 . S
C840 C837 1.431 . S
C840 C850 1.476 . S
H841 C835 0.929 . S
C842 O833 1.250 . S
C842 O834 1.258 . S
O843 Mn828 2.162 . S
O843 C831 1.281 . S
O844 Mn828 2.297 . S
O844 C831 1.236 . S
N845 Mn829 2.282 . S
N845 C846 1.328 . S
N845 C850 1.318 . S
C846 N845 1.328 . S
C846 C847 1.457 . S
C846 H851 0.929 . S
C847 C846 1.457 . S
C847 C848 1.291 . S
C847 H860 0.931 . S
C848 C847 1.291 . S
C848 C849 1.373 . S
C848 H861 0.929 . S
C849 C848 1.373 . S
C849 C850 1.396 . S
C849 C856 1.403 . S
C850 C840 1.476 . S
C850 N845 1.318 . S
C850 C849 1.396 . S
H851 C846 0.929 . S
O852 Mn828 2.385 . S
O852 C830 1.234 . S
O853 Mn828 2.209 . S
O853 Mn829 2.215 . S
O853 C830 1.283 . S
O854 Mn828 2.094 . S
O854 C832 1.240 . S
O855 Mn829 2.117 . S
O855 C832 1.264 . S
C856 C849 1.403 . S
C856 C857 1.399 . S
C856 H862 0.929 . S
C857 C837 1.449 . S
C857 C856 1.399 . S
C857 H863 0.930 . S
H858 C838 0.931 . S
H859 C839 0.930 . S
H860 C847 0.931 . S
H861 C848 0.929 . S
H862 C856 0.929 . S
H863 C857 0.930 . S
Tb864 O867 2.453 . S
Tb864 O868 2.596 . S
Tb864 O869 2.374 1_554 S
Tb864 O877 2.343 1_455 S
Tb864 O879 2.353 . S
Tb864 O881 2.427 . S
Tb864 O882 2.513 1_554 S
C865 O869 1.251 . S
C865 O871 1.263 1_445 S
Tb866 O868 2.343 1_665 S
Tb866 O871 2.353 1_554 S
Tb866 O874 2.427 . S
Tb866 O875 2.513 . S
Tb866 O876 2.453 1_564 S
Tb866 O877 2.596 1_565 S
Tb866 O878 2.374 1_565 S
O867 Tb864 2.453 . S
O867 C883 1.245 . S
O868 Tb864 2.596 . S
O868 Tb866 2.343 1_445 S
O868 C883 1.259 . S
O869 Tb864 2.374 1_556 S
O869 C865 1.251 . S
C870 O874 1.275 . S
C870 O875 1.246 . S
O871 C865 1.263 1_665 S
O871 Tb866 2.353 1_556 S
C872 O876 1.245 . S
C872 O877 1.259 1_556 S
C873 O878 1.250 . S
C873 O879 1.263 1_655 S
O874 Tb866 2.427 . S
O874 C870 1.275 . S
O875 Tb866 2.513 . S
O875 C870 1.246 . S
O876 Tb866 2.453 1_546 S
O876 C872 1.245 . S
O877 Tb864 2.343 1_655 S
O877 Tb866 2.596 1_545 S
O877 C872 1.259 1_554 S
O878 Tb866 2.374 1_545 S
O878 C873 1.250 . S
O879 Tb864 2.353 . S
O879 C873 1.263 1_455 S
C880 O881 1.275 1_556 S
C880 O882 1.246 . S
O881 Tb864 2.427 . S
O881 C880 1.275 1_554 S
O882 Tb864 2.513 1_556 S
O882 C880 1.246 . S
C883 O867 1.245 . S
C883 O868 1.259 . S
Tb884 O887 2.453 . S
Tb884 O888 2.596 . S
Tb884 O889 2.374 . S
Tb884 O897 2.343 . S
Tb884 O899 2.353 . S
Tb884 O901 2.427 . S
Tb884 O902 2.513 . S
C885 O889 1.251 . S
C885 O891 1.263 . S
Tb886 O888 2.343 . S
Tb886 O891 2.353 . S
Tb886 O894 2.427 . S
Tb886 O895 2.513 . S
Tb886 O896 2.453 . S
Tb886 O897 2.596 . S
Tb886 O898 2.374 . S
O887 Tb884 2.453 . S
O887 C903 1.245 . S
O888 Tb884 2.596 . S
O888 Tb886 2.343 . S
O888 C903 1.259 . S
O889 Tb884 2.374 . S
O889 C885 1.251 . S
C890 O894 1.275 . S
C890 O895 1.246 . S
O891 C885 1.263 . S
O891 Tb886 2.353 . S
C892 O896 1.245 . S
C892 O897 1.259 . S
C893 O898 1.250 . S
C893 O899 1.263 . S
O894 Tb886 2.427 . S
O894 C890 1.275 . S
O895 Tb886 2.513 . S
O895 C890 1.246 . S
O896 Tb886 2.453 . S
O896 C892 1.245 . S
O897 Tb884 2.343 . S
O897 Tb886 2.596 . S
O897 C892 1.259 . S
O898 Tb886 2.374 . S
O898 C893 1.250 . S
O899 Tb884 2.353 . S
O899 C893 1.263 . S
C900 O901 1.275 . S
C900 O902 1.246 . S
O901 Tb884 2.427 . S
O901 C900 1.275 . S
O902 Tb884 2.513 . S
O902 C900 1.246 . S
C903 O887 1.245 . S
C903 O888 1.259 . S
Tb904 O907 2.453 . S
Tb904 O908 2.596 . S
Tb904 O909 2.374 . S
Tb904 O917 2.343 . S
Tb904 O919 2.353 . S
Tb904 O921 2.427 . S
Tb904 O922 2.513 . S
C905 O909 1.251 . S
C905 O911 1.263 . S
Tb906 O908 2.343 . S
Tb906 O911 2.353 . S
Tb906 O914 2.427 . S
Tb906 O915 2.513 . S
Tb906 O916 2.453 1_545 S
Tb906 O917 2.596 . S
Tb906 O918 2.374 . S
O907 Tb904 2.453 . S
O907 C923 1.245 . S
O908 Tb904 2.596 . S
O908 Tb906 2.343 . S
O908 C923 1.259 . S
O909 Tb904 2.374 . S
O909 C905 1.251 . S
C910 O914 1.275 . S
C910 O915 1.246 . S
O911 C905 1.263 . S
O911 Tb906 2.353 . S
C912 O916 1.245 . S
C912 O917 1.259 1_565 S
C913 O918 1.250 . S
C913 O919 1.263 . S
O914 Tb906 2.427 . S
O914 C910 1.275 . S
O915 Tb906 2.513 . S
O915 C910 1.246 . S
O916 Tb906 2.453 1_565 S
O916 C912 1.245 . S
O917 Tb904 2.343 . S
O917 Tb906 2.596 . S
O917 C912 1.259 1_545 S
O918 Tb906 2.374 . S
O918 C913 1.250 . S
O919 Tb904 2.353 . S
O919 C913 1.263 . S
C920 O921 1.275 . S
C920 O922 1.246 . S
O921 Tb904 2.427 . S
O921 C920 1.275 . S
O922 Tb904 2.513 . S
O922 C920 1.246 . S
C923 O907 1.245 . S
C923 O908 1.259 . S
Tb924 O927 2.453 . S
Tb924 O928 2.596 . S
Tb924 O929 2.374 . S
Tb924 O937 2.343 . S
Tb924 O939 2.353 . S
Tb924 O941 2.427 . S
Tb924 O942 2.513 . S
C925 O929 1.251 . S
C925 O931 1.263 . S
Tb926 O928 2.343 . S
Tb926 O931 2.353 . S
Tb926 O934 2.427 . S
Tb926 O935 2.513 . S
Tb926 O936 2.453 . S
Tb926 O937 2.596 . S
Tb926 O938 2.374 . S
O927 Tb924 2.453 . S
O927 C943 1.245 . S
O928 Tb924 2.596 . S
O928 Tb926 2.343 . S
O928 C943 1.259 . S
O929 Tb924 2.374 . S
O929 C925 1.251 . S
C930 O934 1.275 . S
C930 O935 1.246 . S
O931 C925 1.263 . S
O931 Tb926 2.353 . S
C932 O936 1.245 . S
C932 O937 1.259 . S
C933 O938 1.250 . S
C933 O939 1.263 . S
O934 Tb926 2.427 . S
O934 C930 1.275 . S
O935 Tb926 2.513 . S
O935 C930 1.246 . S
O936 Tb926 2.453 . S
O936 C932 1.245 . S
O937 Tb924 2.343 . S
O937 Tb926 2.596 . S
O937 C932 1.259 . S
O938 Tb926 2.374 . S
O938 C933 1.250 . S
O939 Tb924 2.353 . S
O939 C933 1.263 . S
C940 O941 1.275 . S
C940 O942 1.246 . S
O941 Tb924 2.427 . S
O941 C940 1.275 . S
O942 Tb924 2.513 . S
O942 C940 1.246 . S
C943 O927 1.245 . S
C943 O928 1.259 . S
Tb944 O947 2.453 1_545 S
Tb944 O948 2.596 . S
Tb944 O949 2.374 1_445 S
Tb944 O957 2.343 . S
Tb944 O959 2.353 . S
Tb944 O961 2.427 . S
Tb944 O962 2.513 1_455 S
C945 O949 1.247 1_545 S
C945 O951 1.263 . S
Tb946 O948 2.343 . S
Tb946 O951 2.353 1_455 S
Tb946 O954 2.427 . S
Tb946 O955 2.513 . S
Tb946 O956 2.443 1_455 S
Tb946 O957 2.596 . S
Tb946 O958 2.374 . S
O947 Tb944 2.453 1_565 S
O947 C963 1.245 . S
O948 Tb944 2.596 . S
O948 Tb946 2.343 . S
O948 C963 1.259 1_545 S
O949 Tb944 2.374 1_665 S
O949 C945 1.247 1_565 S
C950 O954 1.275 . S
C950 O955 1.246 . S
O951 C945 1.263 . S
O951 Tb946 2.353 1_655 S
C952 O956 1.237 1_455 S
C952 O957 1.259 . S
C953 O958 1.250 . S
C953 O959 1.263 . S
O954 Tb946 2.427 . S
O954 C950 1.275 . S
O955 Tb946 2.513 . S
O955 C950 1.246 . S
O956 Tb946 2.443 1_655 S
O956 C952 1.237 1_655 S
O957 Tb944 2.343 . S
O957 Tb946 2.596 . S
O957 C952 1.259 . S
O958 Tb946 2.374 . S
O958 C953 1.250 . S
O959 Tb944 2.353 . S
O959 C953 1.263 . S
C960 O961 1.275 1_655 S
C960 O962 1.246 . S
O961 Tb944 2.427 . S
O961 C960 1.275 1_455 S
O962 Tb944 2.513 1_655 S
O962 C960 1.246 . S
C963 O947 1.245 . S
C963 O948 1.259 1_565 S
Tb964 O967 2.453 . S
Tb964 O968 2.596 . S
Tb964 O969 2.374 . S
Tb964 O977 2.343 . S
Tb964 O979 2.353 . S
Tb964 O981 2.427 . S
Tb964 O982 2.513 . S
C965 O969 1.251 . S
C965 O971 1.263 . S
Tb966 O968 2.343 . S
Tb966 O971 2.353 . S
Tb966 O974 2.427 . S
Tb966 O975 2.513 . S
Tb966 O976 2.453 . S
Tb966 O977 2.596 . S
Tb966 O978 2.374 . S
O967 Tb964 2.453 . S
O967 C983 1.245 . S
O968 Tb964 2.596 . S
O968 Tb966 2.343 . S
O968 C983 1.259 . S
O969 Tb964 2.374 . S
O969 C965 1.251 . S
C970 O974 1.275 . S
C970 O975 1.246 . S
O971 C965 1.263 . S
O971 Tb966 2.353 . S
C972 O976 1.245 . S
C972 O977 1.259 . S
C973 O978 1.250 . S
C973 O979 1.263 . S
O974 Tb966 2.427 . S
O974 C970 1.275 . S
O975 Tb966 2.513 . S
O975 C970 1.246 . S
O976 Tb966 2.453 . S
O976 C972 1.245 . S
O977 Tb964 2.343 . S
O977 Tb966 2.596 . S
O977 C972 1.259 . S
O978 Tb966 2.374 . S
O978 C973 1.250 . S
O979 Tb964 2.353 . S
O979 C973 1.263 . S
C980 O981 1.275 . S
C980 O982 1.246 . S
O981 Tb964 2.427 . S
O981 C980 1.275 . S
O982 Tb964 2.513 . S
O982 C980 1.246 . S
C983 O967 1.245 . S
C983 O968 1.259 . S
Tb984 O987 2.453 . S
Tb984 O988 2.596 . S
Tb984 O989 2.374 1_545 S
Tb984 O997 2.343 1_556 S
Tb984 O999 2.353 1_556 S
Tb984 O1001 2.427 1_556 S
Tb984 O1002 2.513 1_546 S
C985 O989 1.258 . S
C985 O991 1.242 1_556 S
Tb986 O988 2.343 1_554 S
Tb986 O991 2.353 1_545 S
Tb986 O994 2.427 . S
Tb986 O995 2.513 . S
Tb986 O996 2.453 . S
Tb986 O997 2.596 . S
Tb986 O998 2.374 . S
O987 Tb984 2.453 . S
O987 C1003 1.245 . S
O988 Tb984 2.596 . S
O988 Tb986 2.343 1_556 S
O988 C1003 1.259 . S
O989 Tb984 2.374 1_565 S
O989 C985 1.258 . S
C990 O994 1.275 . S
C990 O995 1.246 . S
O991 C985 1.242 1_554 S
O991 Tb986 2.353 1_565 S
C992 O996 1.245 . S
C992 O997 1.259 . S
C993 O998 1.250 . S
C993 O999 1.263 . S
O994 Tb986 2.427 . S
O994 C990 1.275 . S
O995 Tb986 2.513 . S
O995 C990 1.246 . S
O996 Tb986 2.453 . S
O996 C992 1.245 . S
O997 Tb984 2.343 1_554 S
O997 Tb986 2.596 . S
O997 C992 1.259 . S
O998 Tb986 2.374 . S
O998 C993 1.250 . S
O999 Tb984 2.353 1_554 S
O999 C993 1.263 . S
C1000 O1001 1.275 . S
C1000 O1002 1.246 1_545 S
O1001 Tb984 2.427 1_554 S
O1001 C1000 1.275 . S
O1002 Tb984 2.513 1_564 S
O1002 C1000 1.246 1_565 S
C1003 O987 1.245 . S
C1003 O988 1.259 . S
Tb1004 O1007 2.453 . S
Tb1004 O1008 2.596 . S
Tb1004 O1009 2.374 . S
Tb1004 O1017 2.343 . S
Tb1004 O1019 2.353 . S
Tb1004 O1021 2.427 . S
Tb1004 O1022 2.513 . S
C1005 O1009 1.251 . S
C1005 O1011 1.263 . S
Tb1006 O1008 2.343 . S
Tb1006 O1011 2.353 . S
Tb1006 O1014 2.427 . S
Tb1006 O1015 2.513 . S
Tb1006 O1016 2.453 . S
Tb1006 O1017 2.596 . S
Tb1006 O1018 2.374 . S
O1007 Tb1004 2.453 . S
O1007 C1023 1.245 . S
O1008 Tb1004 2.596 . S
O1008 Tb1006 2.343 . S
O1008 C1023 1.259 . S
O1009 Tb1004 2.374 . S
O1009 C1005 1.251 . S
C1010 O1014 1.275 . S
C1010 O1015 1.246 . S
O1011 C1005 1.263 . S
O1011 Tb1006 2.353 . S
C1012 O1016 1.245 . S
C1012 O1017 1.259 . S
C1013 O1018 1.250 . S
C1013 O1019 1.263 . S
O1014 Tb1006 2.427 . S
O1014 C1010 1.275 . S
O1015 Tb1006 2.513 . S
O1015 C1010 1.246 . S
O1016 Tb1006 2.453 . S
O1016 C1012 1.245 . S
O1017 Tb1004 2.343 . S
O1017 Tb1006 2.596 . S
O1017 C1012 1.259 . S
O1018 Tb1006 2.374 . S
O1018 C1013 1.250 . S
O1019 Tb1004 2.353 . S
O1019 C1013 1.263 . S
C1020 O1021 1.275 . S
C1020 O1022 1.246 . S
O1021 Tb1004 2.427 . S
O1021 C1020 1.275 . S
O1022 Tb1004 2.513 . S
O1022 C1020 1.246 . S
C1023 O1007 1.245 . S
C1023 O1008 1.259 . S
Tb1024 O1027 2.453 1_556 S
Tb1024 O1028 2.596 1_556 S
Tb1024 O1029 2.385 . S
Tb1024 O1037 2.343 . S
Tb1024 O1039 2.353 . S
Tb1024 O1041 2.427 . S
Tb1024 O1042 2.513 . S
C1025 O1029 1.231 1_554 S
C1025 O1031 1.263 . S
Tb1026 O1028 2.343 . S
Tb1026 O1031 2.353 . S
Tb1026 O1034 2.427 . S
Tb1026 O1035 2.513 . S
Tb1026 O1036 2.453 . S
Tb1026 O1037 2.596 1_554 S
Tb1026 O1038 2.374 . S
O1027 Tb1024 2.453 1_554 S
O1027 C1043 1.245 . S
O1028 Tb1024 2.596 1_554 S
O1028 Tb1026 2.343 . S
O1028 C1043 1.259 . S
O1029 Tb1024 2.385 . S
O1029 C1025 1.231 1_556 S
C1030 O1034 1.275 . S
C1030 O1035 1.246 . S
O1031 C1025 1.263 . S
O1031 Tb1026 2.353 . S
C1032 O1036 1.245 . S
C1032 O1037 1.259 1_554 S
C1033 O1038 1.250 . S
C1033 O1039 1.263 1_554 S
O1034 Tb1026 2.427 . S
O1034 C1030 1.275 . S
O1035 Tb1026 2.513 . S
O1035 C1030 1.246 . S
O1036 Tb1026 2.453 . S
O1036 C1032 1.245 . S
O1037 Tb1024 2.343 . S
O1037 Tb1026 2.596 1_556 S
O1037 C1032 1.259 1_556 S
O1038 Tb1026 2.374 . S
O1038 C1033 1.250 . S
O1039 Tb1024 2.353 . S
O1039 C1033 1.263 1_556 S
C1040 O1041 1.275 . S
C1040 O1042 1.246 . S
O1041 Tb1024 2.427 . S
O1041 C1040 1.275 . S
O1042 Tb1024 2.513 . S
O1042 C1040 1.246 . S
C1043 O1027 1.245 . S
C1043 O1028 1.259 . S
Tb1044 O1047 2.453 . S
Tb1044 O1048 2.596 . S
Tb1044 O1049 2.374 . S
Tb1044 O1057 2.343 . S
Tb1044 O1059 2.353 . S
Tb1044 O1061 2.427 . S
Tb1044 O1062 2.513 . S
C1045 O1049 1.251 . S
C1045 O1051 1.263 . S
Tb1046 O1048 2.343 . S
Tb1046 O1051 2.353 . S
Tb1046 O1054 2.427 . S
Tb1046 O1055 2.513 . S
Tb1046 O1056 2.453 . S
Tb1046 O1057 2.596 . S
Tb1046 O1058 2.374 . S
O1047 Tb1044 2.453 . S
O1047 C1063 1.245 . S
O1048 Tb1044 2.596 . S
O1048 Tb1046 2.343 . S
O1048 C1063 1.259 . S
O1049 Tb1044 2.374 . S
O1049 C1045 1.251 . S
C1050 O1054 1.275 . S
C1050 O1055 1.246 . S
O1051 C1045 1.263 . S
O1051 Tb1046 2.353 . S
C1052 O1056 1.245 . S
C1052 O1057 1.259 . S
C1053 O1058 1.250 . S
C1053 O1059 1.263 . S
O1054 Tb1046 2.427 . S
O1054 C1050 1.275 . S
O1055 Tb1046 2.513 . S
O1055 C1050 1.246 . S
O1056 Tb1046 2.453 . S
O1056 C1052 1.245 . S
O1057 Tb1044 2.343 . S
O1057 Tb1046 2.596 . S
O1057 C1052 1.259 . S
O1058 Tb1046 2.374 . S
O1058 C1053 1.250 . S
O1059 Tb1044 2.353 . S
O1059 C1053 1.263 . S
C1060 O1061 1.275 . S
C1060 O1062 1.246 . S
O1061 Tb1044 2.427 . S
O1061 C1060 1.275 . S
O1062 Tb1044 2.513 . S
O1062 C1060 1.246 . S
C1063 O1047 1.245 . S
C1063 O1048 1.259 . S
Tb1064 O1067 2.453 . S
Tb1064 O1068 2.596 1_655 S
Tb1064 O1069 2.374 . S
Tb1064 O1077 2.343 . S
Tb1064 O1079 2.353 . S
Tb1064 O1081 2.427 . S
Tb1064 O1082 2.513 . S
C1065 O1069 1.251 1_455 S
C1065 O1071 1.263 . S
Tb1066 O1068 2.343 . S
Tb1066 O1071 2.353 . S
Tb1066 O1074 2.427 . S
Tb1066 O1075 2.513 . S
Tb1066 O1076 2.453 . S
Tb1066 O1077 2.596 1_455 S
Tb1066 O1078 2.374 . S
O1067 Tb1064 2.453 . S
O1067 C1083 1.245 1_655 S
O1068 Tb1064 2.596 1_455 S
O1068 Tb1066 2.343 . S
O1068 C1083 1.259 . S
O1069 Tb1064 2.374 . S
O1069 C1065 1.251 1_655 S
C1070 O1074 1.275 . S
C1070 O1075 1.246 . S
O1071 C1065 1.263 . S
O1071 Tb1066 2.353 . S
C1072 O1076 1.245 1_655 S
C1072 O1077 1.259 . S
C1073 O1078 1.250 . S
C1073 O1079 1.263 1_455 S
O1074 Tb1066 2.427 . S
O1074 C1070 1.275 . S
O1075 Tb1066 2.513 . S
O1075 C1070 1.246 . S
O1076 Tb1066 2.453 . S
O1076 C1072 1.245 1_455 S
O1077 Tb1064 2.343 . S
O1077 Tb1066 2.596 1_655 S
O1077 C1072 1.259 . S
O1078 Tb1066 2.374 . S
O1078 C1073 1.250 . S
O1079 Tb1064 2.353 . S
O1079 C1073 1.263 1_655 S
C1080 O1081 1.275 . S
C1080 O1082 1.246 . S
O1081 Tb1064 2.427 . S
O1081 C1080 1.275 . S
O1082 Tb1064 2.513 . S
O1082 C1080 1.246 . S
C1083 O1067 1.245 1_455 S
C1083 O1068 1.259 . S
Tb1084 O1087 2.453 . S
Tb1084 O1088 2.596 . S
Tb1084 O1089 2.374 . S
Tb1084 O1097 2.343 . S
Tb1084 O1099 2.353 . S
Tb1084 O1101 2.427 . S
Tb1084 O1102 2.513 . S
C1085 O1089 1.251 . S
C1085 O1091 1.263 . S
Tb1086 O1088 2.343 . S
Tb1086 O1091 2.353 . S
Tb1086 O1094 2.427 . S
Tb1086 O1095 2.513 . S
Tb1086 O1096 2.453 . S
Tb1086 O1097 2.596 . S
Tb1086 O1098 2.374 . S
O1087 Tb1084 2.453 . S
O1087 C1103 1.245 . S
O1088 Tb1084 2.596 . S
O1088 Tb1086 2.343 . S
O1088 C1103 1.259 . S
O1089 Tb1084 2.374 . S
O1089 C1085 1.251 . S
C1090 O1094 1.275 . S
C1090 O1095 1.246 . S
O1091 C1085 1.263 . S
O1091 Tb1086 2.353 . S
C1092 O1096 1.245 . S
C1092 O1097 1.259 . S
C1093 O1098 1.250 . S
C1093 O1099 1.263 . S
O1094 Tb1086 2.427 . S
O1094 C1090 1.275 . S
O1095 Tb1086 2.513 . S
O1095 C1090 1.246 . S
O1096 Tb1086 2.453 . S
O1096 C1092 1.245 . S
O1097 Tb1084 2.343 . S
O1097 Tb1086 2.596 . S
O1097 C1092 1.259 . S
O1098 Tb1086 2.374 . S
O1098 C1093 1.250 . S
O1099 Tb1084 2.353 . S
O1099 C1093 1.263 . S
C1100 O1101 1.275 . S
C1100 O1102 1.246 . S
O1101 Tb1084 2.427 . S
O1101 C1100 1.275 . S
O1102 Tb1084 2.513 . S
O1102 C1100 1.246 . S
C1103 O1087 1.245 . S
C1103 O1088 1.259 . S
Tb1104 O1107 2.453 . S
Tb1104 O1108 2.596 . S
Tb1104 O1109 2.374 . S
Tb1104 O1117 2.343 . S
Tb1104 O1119 2.353 . S
Tb1104 O1121 2.427 . S
Tb1104 O1122 2.513 . S
C1105 O1109 1.251 . S
C1105 O1111 1.263 . S
Tb1106 O1108 2.343 . S
Tb1106 O1111 2.353 . S
Tb1106 O1114 2.427 . S
Tb1106 O1115 2.513 . S
Tb1106 O1116 2.453 . S
Tb1106 O1117 2.596 . S
Tb1106 O1118 2.374 . S
O1107 Tb1104 2.453 . S
O1107 C1123 1.245 . S
O1108 Tb1104 2.596 . S
O1108 Tb1106 2.343 . S
O1108 C1123 1.259 . S
O1109 Tb1104 2.374 . S
O1109 C1105 1.251 . S
C1110 O1114 1.275 . S
C1110 O1115 1.246 . S
O1111 C1105 1.263 . S
O1111 Tb1106 2.353 . S
C1112 O1116 1.245 . S
C1112 O1117 1.259 . S
C1113 O1118 1.250 . S
C1113 O1119 1.263 . S
O1114 Tb1106 2.427 . S
O1114 C1110 1.275 . S
O1115 Tb1106 2.513 . S
O1115 C1110 1.246 . S
O1116 Tb1106 2.453 . S
O1116 C1112 1.245 . S
O1117 Tb1104 2.343 . S
O1117 Tb1106 2.596 . S
O1117 C1112 1.259 . S
O1118 Tb1106 2.374 . S
O1118 C1113 1.250 . S
O1119 Tb1104 2.353 . S
O1119 C1113 1.263 . S
C1120 O1121 1.275 . S
C1120 O1122 1.246 . S
O1121 Tb1104 2.427 . S
O1121 C1120 1.275 . S
O1122 Tb1104 2.513 . S
O1122 C1120 1.246 . S
C1123 O1107 1.245 . S
C1123 O1108 1.259 . S
Tb1124 O1127 2.453 . S
Tb1124 O1128 2.596 . S
Tb1124 O1129 2.374 . S
Tb1124 O1137 2.343 . S
Tb1124 O1139 2.353 . S
Tb1124 O1141 2.427 . S
Tb1124 O1142 2.513 . S
C1125 O1129 1.251 . S
C1125 O1131 1.263 . S
Tb1126 O1128 2.343 . S
Tb1126 O1131 2.353 . S
Tb1126 O1134 2.427 . S
Tb1126 O1135 2.513 . S
Tb1126 O1136 2.453 . S
Tb1126 O1137 2.596 . S
Tb1126 O1138 2.374 . S
O1127 Tb1124 2.453 . S
O1127 C1143 1.245 . S
O1128 Tb1124 2.596 . S
O1128 Tb1126 2.343 . S
O1128 C1143 1.259 . S
O1129 Tb1124 2.374 . S
O1129 C1125 1.251 . S
C1130 O1134 1.275 . S
C1130 O1135 1.246 . S
O1131 C1125 1.263 . S
O1131 Tb1126 2.353 . S
C1132 O1136 1.245 . S
C1132 O1137 1.259 . S
C1133 O1138 1.250 . S
C1133 O1139 1.263 . S
O1134 Tb1126 2.427 . S
O1134 C1130 1.275 . S
O1135 Tb1126 2.513 . S
O1135 C1130 1.246 . S
O1136 Tb1126 2.453 . S
O1136 C1132 1.245 . S
O1137 Tb1124 2.343 . S
O1137 Tb1126 2.596 . S
O1137 C1132 1.259 . S
O1138 Tb1126 2.374 . S
O1138 C1133 1.250 . S
O1139 Tb1124 2.353 . S
O1139 C1133 1.263 . S
C1140 O1141 1.275 . S
C1140 O1142 1.246 . S
O1141 Tb1124 2.427 . S
O1141 C1140 1.275 . S
O1142 Tb1124 2.513 . S
O1142 C1140 1.246 . S
C1143 O1127 1.245 . S
C1143 O1128 1.259 . S
Tb1144 O1147 2.453 . S
Tb1144 O1148 2.596 . S
Tb1144 O1149 2.374 . S
Tb1144 O1157 2.343 . S
Tb1144 O1159 2.353 . S
Tb1144 O1161 2.427 . S
Tb1144 O1162 2.513 . S
C1145 O1149 1.251 . S
C1145 O1151 1.263 . S
Tb1146 O1148 2.343 . S
Tb1146 O1151 2.353 . S
Tb1146 O1154 2.427 . S
Tb1146 O1155 2.513 . S
Tb1146 O1156 2.453 . S
Tb1146 O1157 2.596 . S
Tb1146 O1158 2.374 . S
O1147 Tb1144 2.453 . S
O1147 C1163 1.245 . S
O1148 Tb1144 2.596 . S
O1148 Tb1146 2.343 . S
O1148 C1163 1.259 . S
O1149 Tb1144 2.374 . S
O1149 C1145 1.251 . S
C1150 O1154 1.275 . S
C1150 O1155 1.246 . S
O1151 C1145 1.263 . S
O1151 Tb1146 2.353 . S
C1152 O1156 1.245 . S
C1152 O1157 1.259 . S
C1153 O1158 1.250 . S
C1153 O1159 1.263 . S
O1154 Tb1146 2.427 . S
O1154 C1150 1.275 . S
O1155 Tb1146 2.513 . S
O1155 C1150 1.246 . S
O1156 Tb1146 2.453 . S
O1156 C1152 1.245 . S
O1157 Tb1144 2.343 . S
O1157 Tb1146 2.596 . S
O1157 C1152 1.259 . S
O1158 Tb1146 2.374 . S
O1158 C1153 1.250 . S
O1159 Tb1144 2.353 . S
O1159 C1153 1.263 . S
C1160 O1161 1.275 . S
C1160 O1162 1.246 . S
O1161 Tb1144 2.427 . S
O1161 C1160 1.275 . S
O1162 Tb1144 2.513 . S
O1162 C1160 1.246 . S
C1163 O1147 1.245 . S
C1163 O1148 1.259 . S
Tb1164 O1167 2.453 . S
Tb1164 O1168 2.596 . S
Tb1164 O1169 2.374 . S
Tb1164 O1177 2.343 . S
Tb1164 O1179 2.353 1_554 S
Tb1164 O1181 2.427 1_554 S
Tb1164 O1182 2.513 . S
C1165 O1169 1.251 . S
C1165 O1171 1.263 1_455 S
Tb1166 O1168 2.343 1_655 S
Tb1166 O1171 2.353 . S
Tb1166 O1174 2.427 . S
Tb1166 O1175 2.513 . S
Tb1166 O1176 2.453 . S
Tb1166 O1177 2.596 1_655 S
Tb1166 O1178 2.374 1_554 S
O1167 Tb1164 2.453 . S
O1167 C1183 1.245 . S
O1168 Tb1164 2.596 . S
O1168 Tb1166 2.343 1_455 S
O1168 C1183 1.259 . S
O1169 Tb1164 2.374 . S
O1169 C1165 1.251 . S
C1170 O1174 1.275 . S
C1170 O1175 1.246 . S
O1171 C1165 1.263 1_655 S
O1171 Tb1166 2.353 . S
C1172 O1176 1.244 1_456 S
C1172 O1177 1.260 1_556 S
C1173 O1178 1.230 1_455 S
C1173 O1179 1.284 . S
O1174 Tb1166 2.427 . S
O1174 C1170 1.275 . S
O1175 Tb1166 2.513 . S
O1175 C1170 1.246 . S
O1176 Tb1166 2.453 . S
O1176 C1172 1.244 1_654 S
O1177 Tb1164 2.343 . S
O1177 Tb1166 2.596 1_455 S
O1177 C1172 1.260 1_554 S
O1178 Tb1166 2.374 1_556 S
O1178 C1173 1.230 1_655 S
O1179 Tb1164 2.353 1_556 S
O1179 C1173 1.284 . S
C1180 O1181 1.275 . S
C1180 O1182 1.246 1_556 S
O1181 Tb1164 2.427 1_556 S
O1181 C1180 1.275 . S
O1182 Tb1164 2.513 . S
O1182 C1180 1.246 1_554 S
C1183 O1167 1.245 . S
C1183 O1168 1.259 . S
C1184 C1185 1.387 1_655 S
C1184 H1188 0.950 . S
C1184 C1193 1.390 . S
C1185 C1184 1.387 1_455 S
C1185 C1187 1.387 . S
H1186 C1193 0.950 . S
C1187 C1185 1.387 . S
C1187 C1189 1.390 . S
C1187 H1191 0.950 . S
H1188 C1184 0.950 . S
C1189 C1187 1.390 . S
C1189 C1190 1.387 . S
C1189 H1192 0.950 . S
C1190 C1189 1.387 . S
C1190 C1193 1.387 1_455 S
H1191 C1187 0.950 . S
H1192 C1189 0.950 . S
C1193 C1184 1.390 . S
C1193 H1186 0.950 . S
C1193 C1190 1.387 1_655 S
C1194 C1195 1.387 . S
C1194 H1198 0.950 . S
C1194 C1203 1.390 . S
C1195 C1194 1.387 . S
C1195 C1197 1.387 . S
H1196 C1203 0.950 . S
C1197 C1195 1.387 . S
C1197 C1199 1.390 . S
C1197 H1201 0.950 . S
H1198 C1194 0.950 . S
C1199 C1197 1.390 . S
C1199 C1200 1.387 . S
C1199 H1202 0.950 . S
C1200 C1199 1.387 . S
C1200 C1203 1.387 . S
H1201 C1197 0.950 . S
H1202 C1199 0.950 . S
C1203 C1194 1.390 . S
C1203 H1196 0.950 . S
C1203 C1200 1.387 . S
C1204 C1205 1.387 . S
C1204 H1208 0.950 . S
C1204 C1213 1.390 . S
C1205 C1204 1.387 . S
C1205 C1207 1.387 . S
H1206 C1213 0.950 . S
C1207 C1205 1.387 . S
C1207 C1209 1.390 . S
C1207 H1211 0.950 . S
H1208 C1204 0.950 . S
C1209 C1207 1.390 . S
C1209 C1210 1.387 . S
C1209 H1212 0.950 . S
C1210 C1209 1.387 . S
C1210 C1213 1.387 . S
H1211 C1207 0.950 . S
H1212 C1209 0.950 . S
C1213 C1204 1.390 . S
C1213 H1206 0.950 . S
C1213 C1210 1.387 . S
C1214 C1215 1.387 . S
C1214 H1218 0.950 . S
C1214 C1223 1.390 . S
C1215 C1214 1.387 . S
C1215 C1217 1.387 . S
H1216 C1223 0.950 . S
C1217 C1215 1.387 . S
C1217 C1219 1.390 . S
C1217 H1221 0.950 . S
H1218 C1214 0.950 . S
C1219 C1217 1.390 . S
C1219 C1220 1.387 . S
C1219 H1222 0.950 . S
C1220 C1219 1.387 . S
C1220 C1223 1.387 . S
H1221 C1217 0.950 . S
H1222 C1219 0.950 . S
C1223 C1214 1.390 . S
C1223 H1216 0.950 . S
C1223 C1220 1.387 . S
C1224 C1225 1.387 1_655 S
C1224 H1228 0.950 . S
C1224 C1233 1.390 . S
C1225 C1224 1.387 1_455 S
C1225 C1227 1.387 . S
H1226 C1233 0.950 . S
C1227 C1225 1.387 . S
C1227 C1229 1.390 . S
C1227 H1231 0.950 . S
H1228 C1224 0.950 . S
C1229 C1227 1.390 . S
C1229 C1230 1.387 . S
C1229 H1232 0.950 . S
C1230 C1229 1.387 . S
C1230 C1233 1.387 1_455 S
H1231 C1227 0.950 . S
H1232 C1229 0.950 . S
C1233 C1224 1.390 . S
C1233 H1226 0.950 . S
C1233 C1230 1.387 1_655 S
C1234 C1235 1.387 . S
C1234 H1238 0.950 . S
C1234 C1243 1.390 . S
C1235 C1234 1.387 . S
C1235 C1237 1.387 . S
H1236 C1243 0.950 . S
C1237 C1235 1.387 . S
C1237 C1239 1.390 . S
C1237 H1241 0.950 . S
H1238 C1234 0.950 . S
C1239 C1237 1.390 . S
C1239 C1240 1.387 . S
C1239 H1242 0.950 . S
C1240 C1239 1.387 . S
C1240 C1243 1.387 . S
H1241 C1237 0.950 . S
H1242 C1239 0.950 . S
C1243 C1234 1.390 . S
C1243 H1236 0.950 . S
C1243 C1240 1.387 . S
C1244 C1245 1.387 . S
C1244 H1248 0.950 . S
C1244 C1253 1.390 . S
C1245 C1244 1.387 . S
C1245 C1247 1.387 . S
H1246 C1253 0.950 . S
C1247 C1245 1.387 . S
C1247 C1249 1.390 . S
C1247 H1251 0.950 . S
H1248 C1244 0.950 . S
C1249 C1247 1.390 . S
C1249 C1250 1.387 . S
C1249 H1252 0.950 . S
C1250 C1249 1.387 . S
C1250 C1253 1.387 . S
H1251 C1247 0.950 . S
H1252 C1249 0.950 . S
C1253 C1244 1.390 . S
C1253 H1246 0.950 . S
C1253 C1250 1.387 . S
C1254 C1255 1.387 . S
C1254 H1258 0.950 . S
C1254 C1263 1.390 . S
C1255 C1254 1.387 . S
C1255 C1257 1.387 . S
H1256 C1263 0.950 . S
C1257 C1255 1.387 . S
C1257 C1259 1.390 . S
C1257 H1261 0.950 . S
H1258 C1254 0.950 . S
C1259 C1257 1.390 . S
C1259 C1260 1.387 . S
C1259 H1262 0.950 . S
C1260 C1259 1.387 . S
C1260 C1263 1.387 . S
H1261 C1257 0.950 . S
H1262 C1259 0.950 . S
C1263 C1254 1.390 . S
C1263 H1256 0.950 . S
C1263 C1260 1.387 . S
C1264 C1265 1.387 . S
C1264 H1268 0.950 . S
C1264 C1273 1.390 . S
C1265 C1264 1.387 . S
C1265 C1267 1.387 . S
H1266 C1273 0.950 1_565 S
C1267 C1265 1.387 . S
C1267 C1269 1.390 . S
C1267 H1271 0.950 . S
H1268 C1264 0.950 . S
C1269 C1267 1.390 . S
C1269 C1270 1.387 . S
C1269 H1272 0.950 . S
C1270 C1269 1.387 . S
C1270 C1273 1.387 . S
H1271 C1267 0.950 . S
H1272 C1269 0.950 . S
C1273 C1264 1.390 . S
C1273 H1266 0.950 1_545 S
C1273 C1270 1.387 . S
C1274 C1275 1.387 . S
C1274 H1278 0.950 . S
C1274 C1283 1.390 . S
C1275 C1274 1.387 . S
C1275 C1277 1.387 . S
H1276 C1283 0.950 . S
C1277 C1275 1.387 . S
C1277 C1279 1.390 . S
C1277 H1281 0.950 . S
H1278 C1274 0.950 . S
C1279 C1277 1.390 . S
C1279 C1280 1.387 . S
C1279 H1282 0.950 . S
C1280 C1279 1.387 . S
C1280 C1283 1.387 . S
H1281 C1277 0.950 . S
H1282 C1279 0.950 . S
C1283 C1274 1.390 . S
C1283 H1276 0.950 . S
C1283 C1280 1.387 . S
C1284 C1285 1.387 1_565 S
C1284 H1288 0.950 . S
C1284 C1293 1.390 . S
C1285 C1284 1.387 1_545 S
C1285 C1287 1.387 . S
H1286 C1293 0.950 . S
C1287 C1285 1.387 . S
C1287 C1289 1.390 . S
C1287 H1291 0.950 . S
H1288 C1284 0.950 . S
C1289 C1287 1.390 . S
C1289 C1290 1.387 . S
C1289 H1292 0.950 . S
C1290 C1289 1.387 . S
C1290 C1293 1.387 1_545 S
H1291 C1287 0.950 . S
H1292 C1289 0.950 . S
C1293 C1284 1.390 . S
C1293 H1286 0.950 . S
C1293 C1290 1.387 1_565 S
C1294 C1295 1.387 . S
C1294 H1298 0.950 . S
C1294 C1303 1.390 . S
C1295 C1294 1.387 . S
C1295 C1297 1.387 . S
H1296 C1303 0.950 . S
C1297 C1295 1.387 . S
C1297 C1299 1.390 . S
C1297 H1301 0.950 . S
H1298 C1294 0.950 . S
C1299 C1297 1.390 . S
C1299 C1300 1.387 . S
C1299 H1302 0.950 . S
C1300 C1299 1.387 . S
C1300 C1303 1.387 . S
H1301 C1297 0.950 . S
H1302 C1299 0.950 . S
C1303 C1294 1.390 . S
C1303 H1296 0.950 . S
C1303 C1300 1.387 . S
C1304 C1305 1.387 . S
C1304 H1308 0.950 . S
C1304 C1313 1.390 . S
C1305 C1304 1.387 . S
C1305 C1307 1.387 . S
H1306 C1313 0.950 1_565 S
C1307 C1305 1.387 . S
C1307 C1309 1.390 . S
C1307 H1311 0.950 . S
H1308 C1304 0.950 . S
C1309 C1307 1.390 . S
C1309 C1310 1.387 . S
C1309 H1312 0.950 . S
C1310 C1309 1.387 . S
C1310 C1313 1.387 . S
H1311 C1307 0.950 . S
H1312 C1309 0.950 . S
C1313 C1304 1.390 . S
C1313 H1306 0.950 1_545 S
C1313 C1310 1.387 . S
C1314 C1315 1.387 . S
C1314 H1318 0.950 . S
C1314 C1323 1.390 . S
C1315 C1314 1.387 . S
C1315 C1317 1.387 . S
H1316 C1323 0.950 . S
C1317 C1315 1.387 . S
C1317 C1319 1.390 . S
C1317 H1321 0.950 . S
H1318 C1314 0.950 . S
C1319 C1317 1.390 . S
C1319 C1320 1.387 . S
C1319 H1322 0.950 . S
C1320 C1319 1.387 . S
C1320 C1323 1.387 . S
H1321 C1317 0.950 . S
H1322 C1319 0.950 . S
C1323 C1314 1.390 . S
C1323 H1316 0.950 . S
C1323 C1320 1.387 . S
C1324 C1325 1.387 . S
C1324 H1328 0.950 . S
C1324 C1333 1.390 . S
C1325 C1324 1.387 . S
C1325 C1327 1.387 1_545 S
H1326 C1333 0.950 . S
C1327 C1325 1.387 1_565 S
C1327 C1329 1.390 1_565 S
C1327 H1331 0.950 . S
H1328 C1324 0.950 . S
C1329 C1327 1.390 1_545 S
C1329 C1330 1.387 . S
C1329 H1332 0.950 1_545 S
C1330 C1329 1.387 . S
C1330 C1333 1.387 . S
H1331 C1327 0.950 . S
H1332 C1329 0.950 1_565 S
C1333 C1324 1.390 . S
C1333 H1326 0.950 . S
C1333 C1330 1.387 . S
C1334 C1335 1.387 . S
C1334 H1338 0.950 . S
C1334 C1343 1.390 . S
C1335 C1334 1.387 . S
C1335 C1337 1.387 . S
H1336 C1343 0.950 . S
C1337 C1335 1.387 . S
C1337 C1339 1.390 . S
C1337 H1341 0.950 . S
H1338 C1334 0.950 . S
C1339 C1337 1.390 . S
C1339 C1340 1.387 . S
C1339 H1342 0.950 . S
C1340 C1339 1.387 . S
C1340 C1343 1.387 . S
H1341 C1337 0.950 . S
H1342 C1339 0.950 . S
C1343 C1334 1.390 . S
C1343 H1336 0.950 . S
C1343 C1340 1.387 . S
C1344 C1345 1.387 . S
C1344 H1348 0.950 . S
C1344 C1353 1.390 . S
C1345 C1344 1.387 . S
C1345 C1347 1.387 . S
H1346 C1353 0.950 . S
C1347 C1345 1.387 . S
C1347 C1349 1.390 . S
C1347 H1351 0.950 1_554 S
H1348 C1344 0.950 . S
C1349 C1347 1.390 . S
C1349 C1350 1.387 . S
C1349 H1352 0.950 1_554 S
C1350 C1349 1.387 . S
C1350 C1353 1.387 . S
H1351 C1347 0.950 1_556 S
H1352 C1349 0.950 1_556 S
C1353 C1344 1.390 . S
C1353 H1346 0.950 . S
C1353 C1350 1.387 . S
C1354 C1355 1.387 1_554 S
C1354 H1358 0.950 . S
C1354 C1363 1.390 . S
C1355 C1354 1.387 1_556 S
C1355 C1357 1.387 . S
H1356 C1363 0.950 . S
C1357 C1355 1.387 . S
C1357 C1359 1.390 . S
C1357 H1361 0.950 . S
H1358 C1354 0.950 . S
C1359 C1357 1.390 . S
C1359 C1360 1.379 1_556 S
C1359 H1362 0.950 . S
C1360 C1359 1.379 1_554 S
C1360 C1363 1.394 . S
H1361 C1357 0.950 . S
H1362 C1359 0.950 . S
C1363 C1354 1.390 . S
C1363 H1356 0.950 . S
C1363 C1360 1.394 . S
C1364 C1365 1.387 . S
C1364 H1368 0.950 . S
C1364 C1373 1.390 . S
C1365 C1364 1.387 . S
C1365 C1367 1.387 . S
H1366 C1373 0.950 . S
C1367 C1365 1.387 . S
C1367 C1369 1.390 . S
C1367 H1371 0.950 . S
H1368 C1364 0.950 . S
C1369 C1367 1.390 . S
C1369 C1370 1.387 . S
C1369 H1372 0.950 . S
C1370 C1369 1.387 . S
C1370 C1373 1.387 . S
H1371 C1367 0.950 . S
H1372 C1369 0.950 . S
C1373 C1364 1.390 . S
C1373 H1366 0.950 . S
C1373 C1370 1.387 . S
C1374 C1375 1.387 . S
C1374 H1378 0.950 . S
C1374 C1383 1.390 . S
C1375 C1374 1.387 . S
C1375 C1377 1.387 . S
H1376 C1383 0.950 . S
C1377 C1375 1.387 . S
C1377 C1379 1.390 . S
C1377 H1381 0.950 . S
H1378 C1374 0.950 . S
C1379 C1377 1.390 . S
C1379 C1380 1.387 . S
C1379 H1382 0.950 . S
C1380 C1379 1.387 . S
C1380 C1383 1.387 . S
H1381 C1377 0.950 . S
H1382 C1379 0.950 . S
C1383 C1374 1.390 . S
C1383 H1376 0.950 . S
C1383 C1380 1.387 . S
C1384 C1385 1.387 . S
C1384 H1388 0.950 . S
C1384 C1393 1.390 . S
C1385 C1384 1.387 . S
C1385 C1387 1.387 . S
H1386 C1393 0.950 . S
C1387 C1385 1.387 . S
C1387 C1389 1.390 . S
C1387 H1391 0.950 . S
H1388 C1384 0.950 . S
C1389 C1387 1.390 . S
C1389 C1390 1.387 . S
C1389 H1392 0.950 . S
C1390 C1389 1.387 . S
C1390 C1393 1.387 . S
H1391 C1387 0.950 . S
H1392 C1389 0.950 . S
C1393 C1384 1.390 . S
C1393 H1386 0.950 . S
C1393 C1390 1.387 . S
C1394 C1395 1.387 . S
C1394 H1398 0.950 . S
C1394 C1403 1.390 . S
C1395 C1394 1.387 . S
C1395 C1397 1.387 . S
H1396 C1403 0.950 . S
C1397 C1395 1.387 . S
C1397 C1399 1.390 . S
C1397 H1401 0.950 . S
H1398 C1394 0.950 . S
C1399 C1397 1.390 . S
C1399 C1400 1.387 . S
C1399 H1402 0.950 . S
C1400 C1399 1.387 . S
C1400 C1403 1.387 . S
H1401 C1397 0.950 . S
H1402 C1399 0.950 . S
C1403 C1394 1.390 . S
C1403 H1396 0.950 . S
C1403 C1400 1.387 . S
C1404 C1405 1.387 . S
C1404 H1408 0.950 . S
C1404 C1413 1.390 . S
C1405 C1404 1.387 . S
C1405 C1407 1.387 . S
H1406 C1413 0.950 . S
C1407 C1405 1.387 . S
C1407 C1409 1.390 . S
C1407 H1411 0.950 . S
H1408 C1404 0.950 . S
C1409 C1407 1.390 . S
C1409 C1410 1.387 . S
C1409 H1412 0.950 . S
C1410 C1409 1.387 . S
C1410 C1413 1.387 . S
H1411 C1407 0.950 . S
H1412 C1409 0.950 . S
C1413 C1404 1.390 . S
C1413 H1406 0.950 . S
C1413 C1410 1.387 . S
C1414 C1415 1.387 . S
C1414 H1418 0.950 . S
C1414 C1423 1.390 . S
C1415 C1414 1.387 . S
C1415 C1417 1.387 . S
H1416 C1423 0.950 . S
C1417 C1415 1.387 . S
C1417 C1419 1.390 . S
C1417 H1421 0.950 . S
H1418 C1414 0.950 . S
C1419 C1417 1.390 . S
C1419 C1420 1.387 . S
C1419 H1422 0.950 . S
C1420 C1419 1.387 . S
C1420 C1423 1.387 . S
H1421 C1417 0.950 . S
H1422 C1419 0.950 . S
C1423 C1414 1.390 . S
C1423 H1416 0.950 . S
C1423 C1420 1.387 . S
C1424 C1425 1.387 . S
C1424 H1428 0.950 . S
C1424 C1433 1.390 . S
C1425 C1424 1.387 . S
C1425 C1427 1.387 1_455 S
H1426 C1433 0.950 . S
C1427 C1425 1.387 1_655 S
C1427 C1429 1.390 . S
C1427 H1431 0.950 . S
H1428 C1424 0.950 . S
C1429 C1427 1.390 . S
C1429 C1430 1.387 1_655 S
C1429 H1432 0.950 . S
C1430 C1429 1.387 1_455 S
C1430 C1433 1.387 . S
H1431 C1427 0.950 . S
H1432 C1429 0.950 . S
C1433 C1424 1.390 . S
C1433 H1426 0.950 . S
C1433 C1430 1.387 . S
C1434 C1435 1.387 . S
C1434 H1438 0.950 . S
C1434 C1443 1.390 . S
C1435 C1434 1.387 . S
C1435 C1437 1.387 . S
H1436 C1443 0.950 . S
C1437 C1435 1.387 . S
C1437 C1439 1.390 . S
C1437 H1441 0.950 . S
H1438 C1434 0.950 . S
C1439 C1437 1.390 . S
C1439 C1440 1.387 . S
C1439 H1442 0.950 . S
C1440 C1439 1.387 . S
C1440 C1443 1.387 . S
H1441 C1437 0.950 . S
H1442 C1439 0.950 . S
C1443 C1434 1.390 . S
C1443 H1436 0.950 . S
C1443 C1440 1.387 . S
C1444 C1445 1.387 . S
C1444 H1448 0.950 . S
C1444 C1453 1.390 . S
C1445 C1444 1.387 . S
C1445 C1447 1.387 . S
H1446 C1453 0.950 . S
C1447 C1445 1.387 . S
C1447 C1449 1.390 . S
C1447 H1451 0.950 . S
H1448 C1444 0.950 . S
C1449 C1447 1.390 . S
C1449 C1450 1.387 . S
C1449 H1452 0.950 . S
C1450 C1449 1.387 . S
C1450 C1453 1.387 . S
H1451 C1447 0.950 . S
H1452 C1449 0.950 . S
C1453 C1444 1.390 . S
C1453 H1446 0.950 . S
C1453 C1450 1.387 . S
C1454 C1455 1.387 . S
C1454 H1458 0.950 . S
C1454 C1463 1.390 . S
C1455 C1454 1.387 . S
C1455 C1457 1.387 . S
H1456 C1463 0.950 . S
C1457 C1455 1.387 . S
C1457 C1459 1.390 . S
C1457 H1461 0.950 . S
H1458 C1454 0.950 . S
C1459 C1457 1.390 . S
C1459 C1460 1.387 . S
C1459 H1462 0.950 . S
C1460 C1459 1.387 . S
C1460 C1463 1.387 . S
H1461 C1457 0.950 . S
H1462 C1459 0.950 . S
C1463 C1454 1.390 . S
C1463 H1456 0.950 . S
C1463 C1460 1.387 . S
C1464 C1465 1.387 1_655 S
C1464 H1468 0.950 . S
C1464 C1473 1.390 . S
C1465 C1464 1.387 1_455 S
C1465 C1467 1.387 . S
H1466 C1473 0.950 . S
C1467 C1465 1.387 . S
C1467 C1469 1.390 . S
C1467 H1471 0.950 . S
H1468 C1464 0.950 . S
C1469 C1467 1.390 . S
C1469 C1470 1.387 . S
C1469 H1472 0.950 . S
C1470 C1469 1.387 . S
C1470 C1473 1.387 1_455 S
H1471 C1467 0.950 . S
H1472 C1469 0.950 . S
C1473 C1464 1.390 . S
C1473 H1466 0.950 . S
C1473 C1470 1.387 1_655 S
C1474 C1475 1.387 . S
C1474 H1478 0.950 . S
C1474 C1483 1.390 . S
C1475 C1474 1.387 . S
C1475 C1477 1.387 . S
H1476 C1483 0.950 . S
C1477 C1475 1.387 . S
C1477 C1479 1.390 . S
C1477 H1481 0.950 . S
H1478 C1474 0.950 . S
C1479 C1477 1.390 . S
C1479 C1480 1.387 . S
C1479 H1482 0.950 . S
C1480 C1479 1.387 . S
C1480 C1483 1.387 . S
H1481 C1477 0.950 . S
H1482 C1479 0.950 . S
C1483 C1474 1.390 . S
C1483 H1476 0.950 . S
C1483 C1480 1.387 . S
C1484 C1485 1.387 . S
C1484 H1488 0.950 . S
C1484 C1493 1.390 . S
C1485 C1484 1.387 . S
C1485 C1487 1.387 . S
H1486 C1493 0.950 1_554 S
C1487 C1485 1.387 . S
C1487 C1489 1.390 . S
C1487 H1491 0.950 . S
H1488 C1484 0.950 . S
C1489 C1487 1.390 . S
C1489 C1490 1.387 . S
C1489 H1492 0.950 . S
C1490 C1489 1.387 . S
C1490 C1493 1.387 . S
H1491 C1487 0.950 . S
H1492 C1489 0.950 . S
C1493 C1484 1.390 . S
C1493 H1486 0.950 1_556 S
C1493 C1490 1.387 . S
C1494 C1495 1.387 . S
C1494 H1498 0.950 . S
C1494 C1503 1.390 . S
C1495 C1494 1.387 . S
C1495 C1497 1.387 . S
H1496 C1503 0.950 . S
C1497 C1495 1.387 . S
C1497 C1499 1.390 . S
C1497 H1501 0.950 . S
H1498 C1494 0.950 . S
C1499 C1497 1.390 . S
C1499 C1500 1.387 . S
C1499 H1502 0.950 . S
C1500 C1499 1.387 . S
C1500 C1503 1.387 . S
H1501 C1497 0.950 . S
H1502 C1499 0.950 . S
C1503 C1494 1.390 . S
C1503 H1496 0.950 . S
C1503 C1500 1.387 . S
C1504 C1505 1.387 1_545 S
C1504 H1508 0.950 . S
C1504 C1513 1.390 . S
C1505 C1504 1.387 1_565 S
C1505 C1507 1.387 . S
H1506 C1513 0.950 . S
C1507 C1505 1.387 . S
C1507 C1509 1.390 . S
C1507 H1511 0.950 . S
H1508 C1504 0.950 . S
C1509 C1507 1.390 . S
C1509 C1510 1.387 . S
C1509 H1512 0.950 . S
C1510 C1509 1.387 . S
C1510 C1513 1.387 1_565 S
H1511 C1507 0.950 . S
H1512 C1509 0.950 . S
C1513 C1504 1.390 . S
C1513 H1506 0.950 . S
C1513 C1510 1.387 1_545 S
C1514 C1515 1.387 . S
C1514 H1518 0.950 . S
C1514 C1523 1.390 . S
C1515 C1514 1.387 . S
C1515 C1517 1.387 . S
H1516 C1523 0.950 . S
C1517 C1515 1.387 . S
C1517 C1519 1.390 . S
C1517 H1521 0.950 . S
H1518 C1514 0.950 . S
C1519 C1517 1.390 . S
C1519 C1520 1.387 . S
C1519 H1522 0.950 . S
C1520 C1519 1.387 . S
C1520 C1523 1.387 . S
H1521 C1517 0.950 . S
H1522 C1519 0.950 . S
C1523 C1514 1.390 . S
C1523 H1516 0.950 . S
C1523 C1520 1.387 . S
C1524 C1525 1.387 . S
C1524 H1528 0.950 . S
C1524 C1533 1.390 . S
C1525 C1524 1.387 . S
C1525 C1527 1.387 . S
H1526 C1533 0.950 . S
C1527 C1525 1.387 . S
C1527 C1529 1.390 . S
C1527 H1531 0.950 . S
H1528 C1524 0.950 . S
C1529 C1527 1.390 . S
C1529 C1530 1.387 . S
C1529 H1532 0.950 . S
C1530 C1529 1.387 . S
C1530 C1533 1.387 . S
H1531 C1527 0.950 . S
H1532 C1529 0.950 . S
C1533 C1524 1.390 . S
C1533 H1526 0.950 . S
C1533 C1530 1.387 . S
C1534 C1535 1.387 . S
C1534 H1538 0.950 . S
C1534 C1543 1.390 . S
C1535 C1534 1.387 . S
C1535 C1537 1.387 . S
H1536 C1543 0.950 . S
C1537 C1535 1.387 . S
C1537 C1539 1.390 . S
C1537 H1541 0.950 . S
H1538 C1534 0.950 . S
C1539 C1537 1.390 . S
C1539 C1540 1.387 . S
C1539 H1542 0.950 . S
C1540 C1539 1.387 . S
C1540 C1543 1.387 . S
H1541 C1537 0.950 . S
H1542 C1539 0.950 . S
C1543 C1534 1.390 . S
C1543 H1536 0.950 . S
C1543 C1540 1.387 . S
C1544 C1545 1.387 . S
C1544 H1548 0.950 . S
C1544 C1553 1.390 . S
C1545 C1544 1.387 . S
C1545 C1547 1.387 1_565 S
H1546 C1553 0.950 . S
C1547 C1545 1.387 1_545 S
C1547 C1549 1.390 . S
C1547 H1551 0.950 . S
H1548 C1544 0.950 . S
C1549 C1547 1.390 . S
C1549 C1550 1.387 . S
C1549 H1552 0.950 . S
C1550 C1549 1.387 . S
C1550 C1553 1.387 1_545 S
H1551 C1547 0.950 . S
H1552 C1549 0.950 . S
C1553 C1544 1.390 . S
C1553 H1546 0.950 . S
C1553 C1550 1.387 1_565 S
C1554 C1555 1.387 . S
C1554 H1558 0.950 . S
C1554 C1563 1.390 . S
C1555 C1554 1.387 . S
C1555 C1557 1.387 . S
H1556 C1563 0.950 . S
C1557 C1555 1.387 . S
C1557 C1559 1.390 . S
C1557 H1561 0.950 . S
H1558 C1554 0.950 . S
C1559 C1557 1.390 . S
C1559 C1560 1.387 . S
C1559 H1562 0.950 . S
C1560 C1559 1.387 . S
C1560 C1563 1.387 . S
H1561 C1557 0.950 . S
H1562 C1559 0.950 . S
C1563 C1554 1.390 . S
C1563 H1556 0.950 . S
C1563 C1560 1.387 . S
C1564 C1565 1.387 . S
C1564 H1568 0.950 . S
C1564 C1573 1.390 . S
C1565 C1564 1.387 . S
C1565 C1567 1.387 . S
H1566 C1573 0.950 . S
C1567 C1565 1.387 . S
C1567 C1569 1.390 . S
C1567 H1571 0.947 1_545 S
H1568 C1564 0.950 . S
C1569 C1567 1.390 . S
C1569 C1570 1.387 . S
C1569 H1572 0.950 1_545 S
C1570 C1569 1.387 . S
C1570 C1573 1.387 . S
H1571 C1567 0.947 1_565 S
H1572 C1569 0.950 1_565 S
C1573 C1564 1.390 . S
C1573 H1566 0.950 . S
C1573 C1570 1.387 . S
C1574 C1575 1.387 . S
C1574 H1578 0.950 . S
C1574 C1583 1.390 . S
C1575 C1574 1.387 . S
C1575 C1577 1.387 . S
H1576 C1583 0.950 . S
C1577 C1575 1.387 . S
C1577 C1579 1.390 . S
C1577 H1581 0.950 . S
H1578 C1574 0.950 . S
C1579 C1577 1.390 . S
C1579 C1580 1.387 . S
C1579 H1582 0.950 . S
C1580 C1579 1.387 . S
C1580 C1583 1.387 . S
H1581 C1577 0.950 . S
H1582 C1579 0.950 . S
C1583 C1574 1.390 . S
C1583 H1576 0.950 . S
C1583 C1580 1.387 . S
C1584 C1585 1.387 1_556 S
C1584 H1588 0.950 . S
C1584 C1593 1.390 . S
C1585 C1584 1.387 1_554 S
C1585 C1587 1.387 . S
H1586 C1593 0.950 . S
C1587 C1585 1.387 . S
C1587 C1589 1.390 . S
C1587 H1591 0.950 . S
H1588 C1584 0.950 . S
C1589 C1587 1.390 . S
C1589 C1590 1.387 1_554 S
C1589 H1592 0.950 . S
C1590 C1589 1.387 1_556 S
C1590 C1593 1.387 . S
H1591 C1587 0.950 . S
H1592 C1589 0.950 . S
C1593 C1584 1.390 . S
C1593 H1586 0.950 . S
C1593 C1590 1.387 . S
C1594 C1595 1.387 . S
C1594 H1598 0.950 . S
C1594 C1603 1.390 . S
C1595 C1594 1.387 . S
C1595 C1597 1.387 . S
H1596 C1603 0.948 . S
C1597 C1595 1.387 . S
C1597 C1599 1.390 . S
C1597 H1601 0.950 . S
H1598 C1594 0.950 . S
C1599 C1597 1.390 . S
C1599 C1600 1.387 . S
C1599 H1602 0.950 . S
C1600 C1599 1.387 . S
C1600 C1603 1.387 . S
H1601 C1597 0.950 . S
H1602 C1599 0.950 . S
C1603 C1594 1.390 . S
C1603 H1596 0.948 . S
C1603 C1600 1.387 . S
C1604 C1605 1.387 . S
C1604 H1608 0.950 . S
C1604 C1613 1.390 . S
C1605 C1604 1.387 . S
C1605 C1607 1.387 . S
H1606 C1613 0.950 . S
C1607 C1605 1.387 . S
C1607 C1609 1.390 . S
C1607 H1611 0.950 . S
H1608 C1604 0.950 . S
C1609 C1607 1.390 . S
C1609 C1610 1.387 . S
C1609 H1612 0.950 . S
C1610 C1609 1.387 . S
C1610 C1613 1.387 . S
H1611 C1607 0.950 . S
H1612 C1609 0.950 . S
C1613 C1604 1.390 . S
C1613 H1606 0.950 . S
C1613 C1610 1.387 . S
C1614 C1615 1.387 . S
C1614 H1618 0.950 . S
C1614 C1623 1.390 . S
C1615 C1614 1.387 . S
C1615 C1617 1.387 . S
H1616 C1623 0.950 . S
C1617 C1615 1.387 . S
C1617 C1619 1.390 . S
C1617 H1621 0.950 . S
H1618 C1614 0.950 . S
C1619 C1617 1.390 . S
C1619 C1620 1.387 . S
C1619 H1622 0.950 . S
C1620 C1619 1.387 . S
C1620 C1623 1.387 . S
H1621 C1617 0.950 . S
H1622 C1619 0.950 . S
C1623 C1614 1.390 . S
C1623 H1616 0.950 . S
C1623 C1620 1.387 . S
C1624 C1625 1.387 . S
C1624 H1628 0.950 . S
C1624 C1633 1.390 . S
C1625 C1624 1.387 . S
C1625 C1627 1.387 . S
H1626 C1633 0.950 . S
C1627 C1625 1.387 . S
C1627 C1629 1.390 . S
C1627 H1631 0.950 . S
H1628 C1624 0.950 . S
C1629 C1627 1.390 . S
C1629 C1630 1.387 . S
C1629 H1632 0.950 . S
C1630 C1629 1.387 . S
C1630 C1633 1.387 . S
H1631 C1627 0.950 . S
H1632 C1629 0.950 . S
C1633 C1624 1.390 . S
C1633 H1626 0.950 . S
C1633 C1630 1.387 . S
C1634 C1635 1.387 . S
C1634 H1638 0.950 . S
C1634 C1643 1.390 . S
C1635 C1634 1.387 . S
C1635 C1637 1.387 . S
H1636 C1643 0.950 . S
C1637 C1635 1.387 . S
C1637 C1639 1.390 . S
C1637 H1641 0.950 . S
H1638 C1634 0.950 . S
C1639 C1637 1.390 . S
C1639 C1640 1.387 . S
C1639 H1642 0.950 1_565 S
C1640 C1639 1.387 . S
C1640 C1643 1.387 . S
H1641 C1637 0.950 . S
H1642 C1639 0.950 1_545 S
C1643 C1634 1.390 . S
C1643 H1636 0.950 . S
C1643 C1640 1.387 . S
C1644 C1645 1.387 . S
C1644 H1648 0.950 . S
C1644 C1653 1.390 . S
C1645 C1644 1.387 . S
C1645 C1647 1.387 . S
H1646 C1653 0.950 . S
C1647 C1645 1.387 . S
C1647 C1649 1.390 . S
C1647 H1651 0.950 . S
H1648 C1644 0.950 . S
C1649 C1647 1.390 . S
C1649 C1650 1.387 . S
C1649 H1652 0.950 . S
C1650 C1649 1.387 . S
C1650 C1653 1.387 . S
H1651 C1647 0.950 . S
H1652 C1649 0.950 . S
C1653 C1644 1.390 . S
C1653 H1646 0.950 . S
C1653 C1650 1.387 . S
C1654 C1655 1.387 . S
C1654 H1658 0.950 . S
C1654 C1663 1.390 . S
C1655 C1654 1.387 . S
C1655 C1657 1.387 . S
H1656 C1663 0.950 . S
C1657 C1655 1.387 . S
C1657 C1659 1.390 . S
C1657 H1661 0.950 . S
H1658 C1654 0.950 . S
C1659 C1657 1.390 . S
C1659 C1660 1.387 . S
C1659 H1662 0.950 . S
C1660 C1659 1.387 . S
C1660 C1663 1.387 . S
H1661 C1657 0.950 . S
H1662 C1659 0.950 . S
C1663 C1654 1.390 . S
C1663 H1656 0.950 . S
C1663 C1660 1.387 . S
C1664 C1665 1.387 . S
C1664 H1668 0.950 . S
C1664 C1673 1.390 . S
C1665 C1664 1.387 . S
C1665 C1667 1.387 . S
H1666 C1673 0.950 . S
C1667 C1665 1.387 . S
C1667 C1669 1.390 . S
C1667 H1671 0.950 . S
H1668 C1664 0.950 . S
C1669 C1667 1.390 . S
C1669 C1670 1.387 . S
C1669 H1672 0.950 . S
C1670 C1669 1.387 . S
C1670 C1673 1.387 . S
H1671 C1667 0.950 . S
H1672 C1669 0.950 . S
C1673 C1664 1.390 . S
C1673 H1666 0.950 . S
C1673 C1670 1.387 . S
C1674 C1675 1.387 . S
C1674 H1678 0.950 . S
C1674 C1683 1.390 . S
C1675 C1674 1.387 . S
C1675 C1677 1.387 . S
H1676 C1683 0.950 . S
C1677 C1675 1.387 . S
C1677 C1679 1.390 . S
C1677 H1681 0.950 . S
H1678 C1674 0.950 . S
C1679 C1677 1.390 . S
C1679 C1680 1.387 . S
C1679 H1682 0.950 . S
C1680 C1679 1.387 . S
C1680 C1683 1.387 . S
H1681 C1677 0.950 . S
H1682 C1679 0.950 . S
C1683 C1674 1.390 . S
C1683 H1676 0.950 . S
C1683 C1680 1.387 . S
C1684 C1685 1.387 . S
C1684 H1688 0.950 . S
C1684 C1693 1.390 . S
C1685 C1684 1.387 . S
C1685 C1687 1.387 . S
H1686 C1693 0.950 . S
C1687 C1685 1.387 . S
C1687 C1689 1.390 1_455 S
C1687 H1691 0.950 1_455 S
H1688 C1684 0.950 . S
C1689 C1687 1.390 1_655 S
C1689 C1690 1.387 1_655 S
C1689 H1692 0.950 1_556 S
C1690 C1689 1.387 1_455 S
C1690 C1693 1.387 . S
H1691 C1687 0.950 1_655 S
H1692 C1689 0.950 1_554 S
C1693 C1684 1.390 . S
C1693 H1686 0.950 . S
C1693 C1690 1.387 . S
C1694 C1695 1.387 . S
C1694 H1698 0.950 . S
C1694 C1703 1.390 . S
C1695 C1694 1.387 . S
C1695 C1697 1.387 . S
H1696 C1703 0.950 . S
C1697 C1695 1.387 . S
C1697 C1699 1.390 . S
C1697 H1701 0.950 . S
H1698 C1694 0.950 . S
C1699 C1697 1.390 . S
C1699 C1700 1.387 . S
C1699 H1702 0.950 . S
C1700 C1699 1.387 . S
C1700 C1703 1.387 . S
H1701 C1697 0.950 . S
H1702 C1699 0.950 . S
C1703 C1694 1.390 . S
C1703 H1696 0.950 . S
C1703 C1700 1.387 . S
C1704 C1705 1.387 . S
C1704 H1708 0.950 . S
C1704 C1713 1.390 . S
C1705 C1704 1.387 . S
C1705 C1707 1.387 . S
H1706 C1713 0.950 . S
C1707 C1705 1.387 . S
C1707 C1709 1.390 . S
C1707 H1711 0.950 . S
H1708 C1704 0.950 . S
C1709 C1707 1.390 . S
C1709 C1710 1.387 . S
C1709 H1712 0.950 . S
C1710 C1709 1.387 . S
C1710 C1713 1.387 . S
H1711 C1707 0.950 . S
H1712 C1709 0.950 . S
C1713 C1704 1.390 . S
C1713 H1706 0.950 . S
C1713 C1710 1.387 . S
C1714 C1715 1.387 . S
C1714 H1718 0.950 . S
C1714 C1723 1.390 . S
C1715 C1714 1.387 . S
C1715 C1717 1.387 . S
H1716 C1723 0.950 . S
C1717 C1715 1.387 . S
C1717 C1719 1.390 . S
C1717 H1721 0.950 . S
H1718 C1714 0.950 . S
C1719 C1717 1.390 . S
C1719 C1720 1.387 . S
C1719 H1722 0.950 . S
C1720 C1719 1.387 . S
C1720 C1723 1.387 . S
H1721 C1717 0.950 . S
H1722 C1719 0.950 . S
C1723 C1714 1.390 . S
C1723 H1716 0.950 . S
C1723 C1720 1.387 . S
C1724 C1725 1.387 1_455 S
C1724 H1728 0.950 . S
C1724 C1733 1.390 . S
C1725 C1724 1.387 1_655 S
C1725 C1727 1.387 . S
H1726 C1733 0.950 . S
C1727 C1725 1.387 . S
C1727 C1729 1.390 . S
C1727 H1731 0.950 . S
H1728 C1724 0.950 . S
C1729 C1727 1.390 . S
C1729 C1730 1.387 . S
C1729 H1732 0.950 . S
C1730 C1729 1.387 . S
C1730 C1733 1.387 1_655 S
H1731 C1727 0.950 . S
H1732 C1729 0.950 . S
C1733 C1724 1.390 . S
C1733 H1726 0.950 . S
C1733 C1730 1.387 1_455 S
C1734 C1735 1.387 . S
C1734 H1738 0.950 . S
C1734 C1743 1.390 . S
C1735 C1734 1.387 . S
C1735 C1737 1.387 . S
H1736 C1743 0.950 . S
C1737 C1735 1.387 . S
C1737 C1739 1.390 . S
C1737 H1741 0.950 . S
H1738 C1734 0.950 . S
C1739 C1737 1.390 . S
C1739 C1740 1.387 . S
C1739 H1742 0.950 . S
C1740 C1739 1.387 . S
C1740 C1743 1.387 . S
H1741 C1737 0.950 . S
H1742 C1739 0.950 . S
C1743 C1734 1.390 . S
C1743 H1736 0.950 . S
C1743 C1740 1.387 . S
C1744 C1745 1.387 . S
C1744 H1748 0.950 . S
C1744 C1753 1.390 . S
C1745 C1744 1.387 . S
C1745 C1747 1.387 . S
H1746 C1753 0.950 . S
C1747 C1745 1.387 . S
C1747 C1749 1.390 . S
C1747 H1751 0.950 . S
H1748 C1744 0.950 . S
C1749 C1747 1.390 . S
C1749 C1750 1.387 . S
C1749 H1752 0.950 . S
C1750 C1749 1.387 . S
C1750 C1753 1.387 . S
H1751 C1747 0.950 . S
H1752 C1749 0.950 . S
C1753 C1744 1.390 . S
C1753 H1746 0.950 . S
C1753 C1750 1.387 . S
C1754 C1755 1.387 . S
C1754 H1758 0.950 . S
C1754 C1763 1.390 . S
C1755 C1754 1.387 . S
C1755 C1757 1.387 . S
H1756 C1763 0.950 . S
C1757 C1755 1.387 . S
C1757 C1759 1.390 . S
C1757 H1761 0.950 . S
H1758 C1754 0.950 . S
C1759 C1757 1.390 . S
C1759 C1760 1.387 . S
C1759 H1762 0.950 . S
C1760 C1759 1.387 . S
C1760 C1763 1.387 . S
H1761 C1757 0.950 . S
H1762 C1759 0.950 . S
C1763 C1754 1.390 . S
C1763 H1756 0.950 . S
C1763 C1760 1.387 . S
C1764 C1765 1.387 . S
C1764 H1768 0.950 . S
C1764 C1773 1.390 . S
C1765 C1764 1.387 . S
C1765 C1767 1.387 . S
H1766 C1773 0.950 . S
C1767 C1765 1.387 . S
C1767 C1769 1.390 . S
C1767 H1771 0.950 . S
H1768 C1764 0.950 . S
C1769 C1767 1.390 . S
C1769 C1770 1.387 . S
C1769 H1772 0.950 . S
C1770 C1769 1.387 . S
C1770 C1773 1.387 . S
H1771 C1767 0.950 . S
H1772 C1769 0.950 . S
C1773 C1764 1.390 . S
C1773 H1766 0.950 . S
C1773 C1770 1.387 . S
C1774 C1775 1.387 . S
C1774 H1778 0.950 . S
C1774 C1783 1.390 . S
C1775 C1774 1.387 . S
C1775 C1777 1.387 . S
H1776 C1783 0.950 . S
C1777 C1775 1.387 . S
C1777 C1779 1.390 . S
C1777 H1781 0.950 . S
H1778 C1774 0.950 . S
C1779 C1777 1.390 . S
C1779 C1780 1.387 . S
C1779 H1782 0.950 . S
C1780 C1779 1.387 . S
C1780 C1783 1.387 . S
H1781 C1777 0.950 . S
H1782 C1779 0.950 . S
C1783 C1774 1.390 . S
C1783 H1776 0.950 . S
C1783 C1780 1.387 . S
C1784 C1785 1.387 . S
C1784 H1788 0.950 . S
C1784 C1793 1.390 . S
C1785 C1784 1.387 . S
C1785 C1787 1.387 . S
H1786 C1793 0.950 . S
C1787 C1785 1.387 . S
C1787 C1789 1.390 . S
C1787 H1791 0.950 . S
H1788 C1784 0.950 . S
C1789 C1787 1.390 . S
C1789 C1790 1.387 . S
C1789 H1792 0.950 . S
C1790 C1789 1.387 . S
C1790 C1793 1.387 . S
H1791 C1787 0.950 . S
H1792 C1789 0.950 . S
C1793 C1784 1.390 . S
C1793 H1786 0.950 . S
C1793 C1790 1.387 . S
C1794 C1795 1.387 . S
C1794 H1798 0.950 . S
C1794 C1803 1.390 . S
C1795 C1794 1.387 . S
C1795 C1797 1.387 . S
H1796 C1803 0.950 . S
C1797 C1795 1.387 . S
C1797 C1799 1.390 . S
C1797 H1801 0.950 . S
H1798 C1794 0.950 . S
C1799 C1797 1.390 . S
C1799 C1800 1.387 . S
C1799 H1802 0.950 . S
C1800 C1799 1.387 . S
C1800 C1803 1.387 . S
H1801 C1797 0.950 . S
H1802 C1799 0.950 . S
C1803 C1794 1.390 . S
C1803 H1796 0.950 . S
C1803 C1800 1.387 . S
C1804 C1805 1.387 . S
C1804 H1808 0.950 . S
C1804 C1813 1.390 . S
C1805 C1804 1.387 . S
C1805 C1807 1.387 . S
H1806 C1813 0.950 . S
C1807 C1805 1.387 . S
C1807 C1809 1.390 . S
C1807 H1811 0.950 . S
H1808 C1804 0.950 . S
C1809 C1807 1.390 . S
C1809 C1810 1.387 . S
C1809 H1812 0.950 . S
C1810 C1809 1.387 . S
C1810 C1813 1.387 . S
H1811 C1807 0.950 . S
H1812 C1809 0.950 . S
C1813 C1804 1.390 . S
C1813 H1806 0.950 . S
C1813 C1810 1.387 . S
C1814 C1815 1.387 . S
C1814 H1818 0.950 . S
C1814 C1823 1.390 . S
C1815 C1814 1.387 . S
C1815 C1817 1.387 . S
H1816 C1823 0.950 . S
C1817 C1815 1.387 . S
C1817 C1819 1.390 . S
C1817 H1821 0.950 . S
H1818 C1814 0.950 . S
C1819 C1817 1.390 . S
C1819 C1820 1.387 . S
C1819 H1822 0.950 . S
C1820 C1819 1.387 . S
C1820 C1823 1.387 . S
H1821 C1817 0.950 . S
H1822 C1819 0.950 . S
C1823 C1814 1.390 . S
C1823 H1816 0.950 . S
C1823 C1820 1.387 . S
C1824 C1825 1.387 . S
C1824 H1828 0.950 . S
C1824 C1833 1.390 . S
C1825 C1824 1.387 . S
C1825 C1827 1.387 . S
H1826 C1833 0.950 . S
C1827 C1825 1.387 . S
C1827 C1829 1.390 . S
C1827 H1831 0.950 . S
H1828 C1824 0.950 . S
C1829 C1827 1.390 . S
C1829 C1830 1.387 . S
C1829 H1832 0.950 . S
C1830 C1829 1.387 . S
C1830 C1833 1.387 . S
H1831 C1827 0.950 . S
H1832 C1829 0.950 . S
C1833 C1824 1.390 . S
C1833 H1826 0.950 . S
C1833 C1830 1.387 . S
C1834 C1835 1.387 . S
C1834 H1838 0.950 . S
C1834 C1843 1.390 . S
C1835 C1834 1.387 . S
C1835 C1837 1.387 . S
H1836 C1843 0.950 . S
C1837 C1835 1.387 . S
C1837 C1839 1.390 . S
C1837 H1841 0.950 . S
H1838 C1834 0.950 . S
C1839 C1837 1.390 . S
C1839 C1840 1.387 . S
C1839 H1842 0.950 . S
C1840 C1839 1.387 . S
C1840 C1843 1.387 . S
H1841 C1837 0.950 . S
H1842 C1839 0.950 . S
C1843 C1834 1.390 . S
C1843 H1836 0.950 . S
C1843 C1840 1.387 . S
C1844 C1845 1.387 . S
C1844 H1848 0.950 . S
C1844 C1853 1.390 . S
C1845 C1844 1.387 . S
C1845 C1847 1.387 . S
H1846 C1853 0.950 . S
C1847 C1845 1.387 . S
C1847 C1849 1.390 . S
C1847 H1851 0.950 . S
H1848 C1844 0.950 . S
C1849 C1847 1.390 . S
C1849 C1850 1.387 . S
C1849 H1852 0.950 . S
C1850 C1849 1.387 . S
C1850 C1853 1.387 . S
H1851 C1847 0.950 . S
H1852 C1849 0.950 . S
C1853 C1844 1.390 . S
C1853 H1846 0.950 . S
C1853 C1850 1.387 . S
C1854 C1855 1.387 . S
C1854 H1858 0.950 1_554 S
C1854 C1863 1.390 . S
C1855 C1854 1.387 . S
C1855 C1857 1.387 . S
H1856 C1863 0.950 1_556 S
C1857 C1855 1.387 . S
C1857 C1859 1.390 . S
C1857 H1861 0.950 . S
H1858 C1854 0.950 1_556 S
C1859 C1857 1.390 . S
C1859 C1860 1.387 . S
C1859 H1862 0.950 1_565 S
C1860 C1859 1.387 . S
C1860 C1863 1.387 . S
H1861 C1857 0.950 . S
H1862 C1859 0.950 1_545 S
C1863 C1854 1.390 . S
C1863 H1856 0.950 1_554 S
C1863 C1860 1.387 . S
C1864 C1865 1.387 . S
C1864 H1868 0.950 . S
C1864 C1873 1.390 . S
C1865 C1864 1.387 . S
C1865 C1867 1.387 . S
H1866 C1873 0.950 . S
C1867 C1865 1.387 . S
C1867 C1869 1.390 . S
C1867 H1871 0.950 . S
H1868 C1864 0.950 . S
C1869 C1867 1.390 . S
C1869 C1870 1.387 . S
C1869 H1872 0.950 . S
C1870 C1869 1.387 . S
C1870 C1873 1.387 . S
H1871 C1867 0.950 . S
H1872 C1869 0.950 . S
C1873 C1864 1.390 . S
C1873 H1866 0.950 . S
C1873 C1870 1.387 . S
C1874 C1875 1.387 . S
C1874 H1878 0.958 . S
C1874 C1883 1.390 . S
C1875 C1874 1.387 . S
C1875 C1877 1.387 . S
H1876 C1883 0.950 . S
C1877 C1875 1.387 . S
C1877 C1879 1.390 . S
C1877 H1881 0.950 . S
H1878 C1874 0.958 . S
C1879 C1877 1.390 . S
C1879 C1880 1.387 . S
C1879 H1882 0.950 . S
C1880 C1879 1.387 . S
C1880 C1883 1.387 . S
H1881 C1877 0.950 . S
H1882 C1879 0.950 . S
C1883 C1874 1.390 . S
C1883 H1876 0.950 . S
C1883 C1880 1.387 . S
C1884 C1885 1.387 . S
C1884 H1888 0.950 . S
C1884 C1893 1.390 . S
C1885 C1884 1.387 . S
C1885 C1887 1.387 . S
H1886 C1893 0.950 . S
C1887 C1885 1.387 . S
C1887 C1889 1.390 . S
C1887 H1891 0.950 . S
H1888 C1884 0.950 . S
C1889 C1887 1.390 . S
C1889 C1890 1.387 . S
C1889 H1892 0.950 . S
C1890 C1889 1.387 . S
C1890 C1893 1.387 . S
H1891 C1887 0.950 . S
H1892 C1889 0.950 . S
C1893 C1884 1.390 . S
C1893 H1886 0.950 . S
C1893 C1890 1.387 . S
C1894 C1895 1.387 . S
C1894 H1898 0.950 . S
C1894 C1903 1.390 . S
C1895 C1894 1.387 . S
C1895 C1897 1.387 . S
H1896 C1903 0.950 . S
C1897 C1895 1.387 . S
C1897 C1899 1.390 . S
C1897 H1901 0.950 . S
H1898 C1894 0.950 . S
C1899 C1897 1.390 . S
C1899 C1900 1.387 . S
C1899 H1902 0.950 . S
C1900 C1899 1.387 . S
C1900 C1903 1.387 . S
H1901 C1897 0.950 . S
H1902 C1899 0.950 . S
C1903 C1894 1.390 . S
C1903 H1896 0.950 . S
C1903 C1900 1.387 . S
C1904 C1905 1.387 . S
C1904 H1908 0.950 . S
C1904 C1913 1.390 . S
C1905 C1904 1.387 . S
C1905 C1907 1.387 . S
H1906 C1913 0.950 . S
C1907 C1905 1.387 . S
C1907 C1909 1.390 . S
C1907 H1911 0.950 . S
H1908 C1904 0.950 . S
C1909 C1907 1.390 . S
C1909 C1910 1.387 . S
C1909 H1912 0.950 . S
C1910 C1909 1.387 . S
C1910 C1913 1.387 . S
H1911 C1907 0.950 . S
H1912 C1909 0.950 . S
C1913 C1904 1.390 . S
C1913 H1906 0.950 . S
C1913 C1910 1.387 . S
C1914 C1915 1.387 . S
C1914 H1918 0.950 . S
C1914 C1923 1.390 . S
C1915 C1914 1.387 . S
C1915 C1917 1.387 . S
H1916 C1923 0.950 . S
C1917 C1915 1.387 . S
C1917 C1919 1.390 . S
C1917 H1921 0.950 . S
H1918 C1914 0.950 . S
C1919 C1917 1.390 . S
C1919 C1920 1.387 . S
C1919 H1922 0.950 . S
C1920 C1919 1.387 . S
C1920 C1923 1.387 . S
H1921 C1917 0.950 . S
H1922 C1919 0.950 . S
C1923 C1914 1.390 . S
C1923 H1916 0.950 . S
C1923 C1920 1.387 . S
C1924 C1925 1.387 . S
C1924 H1928 0.950 . S
C1924 C1933 1.390 . S
C1925 C1924 1.387 . S
C1925 C1927 1.387 1_455 S
H1926 C1933 0.950 . S
C1927 C1925 1.387 1_655 S
C1927 C1929 1.390 . S
C1927 H1931 0.950 . S
H1928 C1924 0.950 . S
C1929 C1927 1.390 . S
C1929 C1930 1.387 1_655 S
C1929 H1932 0.950 . S
C1930 C1929 1.387 1_455 S
C1930 C1933 1.387 . S
H1931 C1927 0.950 . S
H1932 C1929 0.950 . S
C1933 C1924 1.390 . S
C1933 H1926 0.950 . S
C1933 C1930 1.387 . S
C1934 C1935 1.387 . S
C1934 H1938 0.950 . S
C1934 C1943 1.390 . S
C1935 C1934 1.387 . S
C1935 C1937 1.387 . S
H1936 C1943 0.950 . S
C1937 C1935 1.387 . S
C1937 C1939 1.390 . S
C1937 H1941 0.950 . S
H1938 C1934 0.950 . S
C1939 C1937 1.390 . S
C1939 C1940 1.387 . S
C1939 H1942 0.950 . S
C1940 C1939 1.387 . S
C1940 C1943 1.387 . S
H1941 C1937 0.950 . S
H1942 C1939 0.950 . S
C1943 C1934 1.390 . S
C1943 H1936 0.950 . S
C1943 C1940 1.387 . S
C1944 C1945 1.387 . S
C1944 H1948 0.950 . S
C1944 C1953 1.390 . S
C1945 C1944 1.387 . S
C1945 C1947 1.387 . S
H1946 C1953 0.950 . S
C1947 C1945 1.387 . S
C1947 C1949 1.390 . S
C1947 H1951 0.950 . S
H1948 C1944 0.950 . S
C1949 C1947 1.390 . S
C1949 C1950 1.387 . S
C1949 H1952 0.950 . S
C1950 C1949 1.387 . S
C1950 C1953 1.387 . S
H1951 C1947 0.950 . S
H1952 C1949 0.950 . S
C1953 C1944 1.390 . S
C1953 H1946 0.950 . S
C1953 C1950 1.387 . S
C1954 C1955 1.387 . S
C1954 H1958 0.950 . S
C1954 C1963 1.390 . S
C1955 C1954 1.387 . S
C1955 C1957 1.387 . S
H1956 C1963 0.950 . S
C1957 C1955 1.387 . S
C1957 C1959 1.390 . S
C1957 H1961 0.950 . S
H1958 C1954 0.950 . S
C1959 C1957 1.390 . S
C1959 C1960 1.387 . S
C1959 H1962 0.950 . S
C1960 C1959 1.387 . S
C1960 C1963 1.387 . S
H1961 C1957 0.950 . S
H1962 C1959 0.950 . S
C1963 C1954 1.390 . S
C1963 H1956 0.950 . S
C1963 C1960 1.387 . S
C1964 C1965 1.387 . S
C1964 H1968 0.950 . S
C1964 C1973 1.390 . S
C1965 C1964 1.387 . S
C1965 C1967 1.387 . S
H1966 C1973 0.950 . S
C1967 C1965 1.387 . S
C1967 C1969 1.390 . S
C1967 H1971 0.950 . S
H1968 C1964 0.950 . S
C1969 C1967 1.390 . S
C1969 C1970 1.387 . S
C1969 H1972 0.950 . S
C1970 C1969 1.387 . S
C1970 C1973 1.387 . S
H1971 C1967 0.950 . S
H1972 C1969 0.950 . S
C1973 C1964 1.390 . S
C1973 H1966 0.950 . S
C1973 C1970 1.387 . S
C1974 C1975 1.387 . S
C1974 H1978 0.950 . S
C1974 C1983 1.390 . S
C1975 C1974 1.387 . S
C1975 C1977 1.387 . S
H1976 C1983 0.950 . S
C1977 C1975 1.387 . S
C1977 C1979 1.390 . S
C1977 H1981 0.950 . S
H1978 C1974 0.950 . S
C1979 C1977 1.390 . S
C1979 C1980 1.387 . S
C1979 H1982 0.950 . S
C1980 C1979 1.387 . S
C1980 C1983 1.387 . S
H1981 C1977 0.950 . S
H1982 C1979 0.950 . S
C1983 C1974 1.390 . S
C1983 H1976 0.950 . S
C1983 C1980 1.387 . S
C1984 C1985 1.387 . S
C1984 H1988 0.950 . S
C1984 C1993 1.390 . S
C1985 C1984 1.387 . S
C1985 C1987 1.387 . S
H1986 C1993 0.950 . S
C1987 C1985 1.387 . S
C1987 C1989 1.390 . S
C1987 H1991 0.950 . S
H1988 C1984 0.950 . S
C1989 C1987 1.390 . S
C1989 C1990 1.387 . S
C1989 H1992 0.950 . S
C1990 C1989 1.387 . S
C1990 C1993 1.387 . S
H1991 C1987 0.950 . S
H1992 C1989 0.950 . S
C1993 C1984 1.390 . S
C1993 H1986 0.950 . S
C1993 C1990 1.387 . S
C1994 C1995 1.387 . S
C1994 H1998 0.950 . S
C1994 C2003 1.390 . S
C1995 C1994 1.387 . S
C1995 C1997 1.387 . S
H1996 C2003 0.950 . S
C1997 C1995 1.387 . S
C1997 C1999 1.390 . S
C1997 H2001 0.950 . S
H1998 C1994 0.950 . S
C1999 C1997 1.390 . S
C1999 C2000 1.387 . S
C1999 H2002 0.950 . S
C2000 C1999 1.387 . S
C2000 C2003 1.387 . S
H2001 C1997 0.950 . S
H2002 C1999 0.950 . S
C2003 C1994 1.390 . S
C2003 H1996 0.950 . S
C2003 C2000 1.387 . S
C2004 C2005 1.387 . S
C2004 H2008 0.950 . S
C2004 C2013 1.390 . S
C2005 C2004 1.387 . S
C2005 C2007 1.387 . S
H2006 C2013 0.950 . S
C2007 C2005 1.387 . S
C2007 C2009 1.390 . S
C2007 H2011 0.950 . S
H2008 C2004 0.950 . S
C2009 C2007 1.390 . S
C2009 C2010 1.387 . S
C2009 H2012 0.950 . S
C2010 C2009 1.387 . S
C2010 C2013 1.387 . S
H2011 C2007 0.950 . S
H2012 C2009 0.950 . S
C2013 C2004 1.390 . S
C2013 H2006 0.950 . S
C2013 C2010 1.387 . S
C2014 C2015 1.387 . S
C2014 H2018 0.950 . S
C2014 C2023 1.390 . S
C2015 C2014 1.387 . S
C2015 C2017 1.387 . S
H2016 C2023 0.950 . S
C2017 C2015 1.387 . S
C2017 C2019 1.390 . S
C2017 H2021 0.950 . S
H2018 C2014 0.950 . S
C2019 C2017 1.390 . S
C2019 C2020 1.387 . S
C2019 H2022 0.950 . S
C2020 C2019 1.387 . S
C2020 C2023 1.387 . S
H2021 C2017 0.950 . S
H2022 C2019 0.950 . S
C2023 C2014 1.390 . S
C2023 H2016 0.950 . S
C2023 C2020 1.387 . S
C2024 C2025 1.387 . S
C2024 H2028 0.950 . S
C2024 C2033 1.390 . S
C2025 C2024 1.387 . S
C2025 C2027 1.387 . S
H2026 C2033 0.950 . S
C2027 C2025 1.387 . S
C2027 C2029 1.390 . S
C2027 H2031 0.950 . S
H2028 C2024 0.950 . S
C2029 C2027 1.390 . S
C2029 C2030 1.387 . S
C2029 H2032 0.950 . S
C2030 C2029 1.387 . S
C2030 C2033 1.387 . S
H2031 C2027 0.950 . S
H2032 C2029 0.950 . S
C2033 C2024 1.390 . S
C2033 H2026 0.950 . S
C2033 C2030 1.387 . S
C2034 C2035 1.387 . S
C2034 H2038 0.950 . S
C2034 C2043 1.390 . S
C2035 C2034 1.387 . S
C2035 C2037 1.387 . S
H2036 C2043 0.950 . S
C2037 C2035 1.387 . S
C2037 C2039 1.390 . S
C2037 H2041 0.950 . S
H2038 C2034 0.950 . S
C2039 C2037 1.390 . S
C2039 C2040 1.387 . S
C2039 H2042 0.950 . S
C2040 C2039 1.387 . S
C2040 C2043 1.387 . S
H2041 C2037 0.950 . S
H2042 C2039 0.950 . S
C2043 C2034 1.390 . S
C2043 H2036 0.950 . S
C2043 C2040 1.387 . S
C2044 C2045 1.387 . S
C2044 H2048 0.950 . S
C2044 C2053 1.390 . S
C2045 C2044 1.387 . S
C2045 C2047 1.387 . S
H2046 C2053 0.950 . S
C2047 C2045 1.387 . S
C2047 C2049 1.390 . S
C2047 H2051 0.950 . S
H2048 C2044 0.950 . S
C2049 C2047 1.390 . S
C2049 C2050 1.387 . S
C2049 H2052 0.950 . S
C2050 C2049 1.387 . S
C2050 C2053 1.387 . S
H2051 C2047 0.950 . S
H2052 C2049 0.950 . S
C2053 C2044 1.390 . S
C2053 H2046 0.950 . S
C2053 C2050 1.387 . S
C2054 C2055 1.387 . S
C2054 H2058 0.950 . S
C2054 C2063 1.390 . S
C2055 C2054 1.387 . S
C2055 C2057 1.387 . S
H2056 C2063 0.950 . S
C2057 C2055 1.387 . S
C2057 C2059 1.390 . S
C2057 H2061 0.950 . S
H2058 C2054 0.950 . S
C2059 C2057 1.390 . S
C2059 C2060 1.387 . S
C2059 H2062 0.950 . S
C2060 C2059 1.387 . S
C2060 C2063 1.387 . S
H2061 C2057 0.950 . S
H2062 C2059 0.950 . S
C2063 C2054 1.390 . S
C2063 H2056 0.950 . S
C2063 C2060 1.387 . S
C2064 C2065 1.387 . S
C2064 H2068 0.950 . S
C2064 C2073 1.390 . S
C2065 C2064 1.387 . S
C2065 C2067 1.387 . S
H2066 C2073 0.950 . S
C2067 C2065 1.387 . S
C2067 C2069 1.390 . S
C2067 H2071 0.950 . S
H2068 C2064 0.950 . S
C2069 C2067 1.390 . S
C2069 C2070 1.387 . S
C2069 H2072 0.950 . S
C2070 C2069 1.387 . S
C2070 C2073 1.387 . S
H2071 C2067 0.950 . S
H2072 C2069 0.950 . S
C2073 C2064 1.390 . S
C2073 H2066 0.950 . S
C2073 C2070 1.387 . S
C2074 C2075 1.387 . S
C2074 H2078 0.950 . S
C2074 C2083 1.390 1_565 S
C2075 C2074 1.387 . S
C2075 C2077 1.387 . S
H2076 C2083 0.950 . S
C2077 C2075 1.387 . S
C2077 C2079 1.390 . S
C2077 H2081 0.950 . S
H2078 C2074 0.950 . S
C2079 C2077 1.390 . S
C2079 C2080 1.387 . S
C2079 H2082 0.950 . S
C2080 C2079 1.387 . S
C2080 C2083 1.387 1_565 S
H2081 C2077 0.950 . S
H2082 C2079 0.950 . S
C2083 C2074 1.390 1_545 S
C2083 H2076 0.950 . S
C2083 C2080 1.387 1_545 S
C2084 C2085 1.387 . S
C2084 H2088 0.950 . S
C2084 C2093 1.390 . S
C2085 C2084 1.387 . S
C2085 C2087 1.387 . S
H2086 C2093 0.950 . S
C2087 C2085 1.387 . S
C2087 C2089 1.390 . S
C2087 H2091 0.950 . S
H2088 C2084 0.950 . S
C2089 C2087 1.390 . S
C2089 C2090 1.387 . S
C2089 H2092 0.950 . S
C2090 C2089 1.387 . S
C2090 C2093 1.387 . S
H2091 C2087 0.950 . S
H2092 C2089 0.950 . S
C2093 C2084 1.390 . S
C2093 H2086 0.950 . S
C2093 C2090 1.387 . S
C2094 C2095 1.369 1_556 S
C2094 H2098 0.950 . S
C2094 C2103 1.390 . S
C2095 C2094 1.369 1_554 S
C2095 C2097 1.411 . S
H2096 C2103 0.950 . S
C2097 C2095 1.411 . S
C2097 C2099 1.390 . S
C2097 H2101 0.950 . S
H2098 C2094 0.950 . S
C2099 C2097 1.390 . S
C2099 C2100 1.387 . S
C2099 H2102 0.950 . S
C2100 C2099 1.387 . S
C2100 C2103 1.387 1_554 S
H2101 C2097 0.950 . S
H2102 C2099 0.950 . S
C2103 C2094 1.390 . S
C2103 H2096 0.950 . S
C2103 C2100 1.387 1_556 S
C2104 C2105 1.387 . S
C2104 H2108 0.950 . S
C2104 C2113 1.390 . S
C2105 C2104 1.387 . S
C2105 C2107 1.387 . S
H2106 C2113 0.950 . S
C2107 C2105 1.387 . S
C2107 C2109 1.390 . S
C2107 H2111 0.950 . S
H2108 C2104 0.950 . S
C2109 C2107 1.390 . S
C2109 C2110 1.387 . S
C2109 H2112 0.950 . S
C2110 C2109 1.387 . S
C2110 C2113 1.387 . S
H2111 C2107 0.950 . S
H2112 C2109 0.950 . S
C2113 C2104 1.390 . S
C2113 H2106 0.950 . S
C2113 C2110 1.387 . S
C2114 C2115 1.387 1_556 S
C2114 H2118 0.950 . S
C2114 C2123 1.390 . S
C2115 C2114 1.387 1_554 S
C2115 C2117 1.387 . S
H2116 C2123 0.950 . S
C2117 C2115 1.387 . S
C2117 C2119 1.390 . S
C2117 H2121 0.950 . S
H2118 C2114 0.950 . S
C2119 C2117 1.390 . S
C2119 C2120 1.387 1_554 S
C2119 H2122 0.950 . S
C2120 C2119 1.387 1_556 S
C2120 C2123 1.387 . S
H2121 C2117 0.950 . S
H2122 C2119 0.950 . S
C2123 C2114 1.390 . S
C2123 H2116 0.950 . S
C2123 C2120 1.387 . S
C2124 C2125 1.387 . S
C2124 H2128 0.950 . S
C2124 C2133 1.390 . S
C2125 C2124 1.387 . S
C2125 C2127 1.387 . S
H2126 C2133 0.950 . S
C2127 C2125 1.387 . S
C2127 C2129 1.390 . S
C2127 H2131 0.950 . S
H2128 C2124 0.950 . S
C2129 C2127 1.390 . S
C2129 C2130 1.387 . S
C2129 H2132 0.950 . S
C2130 C2129 1.387 . S
C2130 C2133 1.387 . S
H2131 C2127 0.950 . S
H2132 C2129 0.950 . S
C2133 C2124 1.390 . S
C2133 H2126 0.950 . S
C2133 C2130 1.387 . S
C2134 C2135 1.387 . S
C2134 H2138 0.950 . S
C2134 C2143 1.390 . S
C2135 C2134 1.387 . S
C2135 C2137 1.387 . S
H2136 C2143 0.950 . S
C2137 C2135 1.387 . S
C2137 C2139 1.390 . S
C2137 H2141 0.950 . S
H2138 C2134 0.950 . S
C2139 C2137 1.390 . S
C2139 C2140 1.387 . S
C2139 H2142 0.950 . S
C2140 C2139 1.387 . S
C2140 C2143 1.387 . S
H2141 C2137 0.950 . S
H2142 C2139 0.950 . S
C2143 C2134 1.390 . S
C2143 H2136 0.950 . S
C2143 C2140 1.387 . S
C1185 C255 1.321 . S
C1190 C880 1.279 . S
C1195 C147 1.393 . S
C1200 C893 1.370 . S
C1205 C184 1.407 . S
C1210 C912 1.403 . S
C1220 C943 1.823 . S
C1215 C220 1.872 . S
C1225 C40 1.634 . S
C1230 C963 1.615 . S
C1240 C980 1.050 . S
C1235 C74 1.068 . S
C1250 C993 1.504 . S
C1245 C110 1.505 . S
C1255 C14 1.096 . S
C1260 C1020 1.096 . S
C1270 C873 1.338 . S
C1265 C579 1.349 . S
C1275 C616 1.582 . S
C1280 C903 1.567 . S
C1290 C905 1.697 . S
C1285 C687 1.762 . S
C1300 C940 1.016 . S
C1295 C436 1.010 . S
C1305 C580 1.240 . S
C1310 C960 1.248 . S
C1320 C973 1.768 . S
C1315 C615 1.766 . S
C1330 C1003 1.435 . S
C1325 C688 1.455 . S
C1340 C1013 1.247 . S
C1335 C435 1.289 . S
C1350 C883 1.641 1_565 S
C1345 C410 1.626 . S
C1355 C722 1.748 . S
C1360 C1033 1.750 . S
C1370 C1063 1.706 . S
C1365 C842 1.705 . S
C1380 C1080 1.295 . S
C1375 C794 1.317 . S
C1385 C302 1.837 . S
C1390 C1023 1.903 . S
C1395 C338 1.377 . S
C1400 C910 1.292 . S
C1405 C830 1.854 . S
C1410 C1093 1.861 . S
C1420 C1120 1.159 . S
C1415 C758 1.201 . S
C1430 C870 1.271 1_455 S
C1425 C158 1.255 . S
C1440 C1105 1.394 . S
C1435 C254 1.419 . S
C1445 C218 1.417 . S
C1450 C923 1.410 . S
C1455 C194 1.836 . S
C1460 C1092 1.821 . S
C1470 C952 1.600 . S
C1465 C3 1.612 . S
C1475 C111 0.984 . S
C1480 C1050 0.973 . S
C1490 C985 1.480 . S
C1485 C76 1.463 . S
C1500 C1130 1.134 . S
C1495 C50 1.125 . S
C1510 C865 1.313 1_565 S
C1505 C364 1.341 1_565 S
C1520 C1112 1.560 . S
C1515 C795 1.584 . S
C1525 C292 1.705 . S
C1530 C913 1.656 . S
C1535 C723 0.969 . S
C1540 C1090 0.965 . S
C1545 C363 1.239 . S
C1550 C950 1.236 . S
C1560 C1045 1.765 . S
C1555 C796 1.743 . S
C1565 C291 1.450 . S
C1570 C992 1.411 . S
C1575 C724 1.302 . S
C1580 C1125 1.256 . S
C1585 C482 1.574 1_554 S
C1590 C872 1.641 . S
C1595 C434 1.743 . S
C1600 C1025 1.746 . S
C1605 C662 1.549 . S
C1610 C972 1.659 . S
C1615 C614 1.311 . S
C1620 C1070 1.285 . S
C1630 C1132 1.897 . S
C1625 C698 1.842 . S
C1635 C554 1.261 . S
C1640 C920 1.325 1_565 S
C1650 C925 1.819 . S
C1645 C650 1.809 . S
C1660 C890 1.178 . S
C1655 C506 1.238 . S
C1665 C183 1.321 . S
C1670 C1160 1.280 . S
C1680 C1113 1.370 . S
C1675 C219 1.395 . S
C1685 C256 1.404 . S
C1690 C1172 1.400 . S
C1695 C148 1.869 . S
C1700 C1103 1.823 . S
C1705 C122 1.639 . S
C1710 C1043 1.656 . S
C1720 C1060 1.005 . S
C1715 C2 1.019 . S
C1730 C1073 1.409 1_655 S
C1725 C39 1.405 . S
C1740 C1140 1.134 . S
C1735 C86 1.135 . S
C1750 C1153 1.355 . S
C1745 C651 1.365 . S
C1755 C472 1.586 . S
C1760 C1123 1.572 . S
C1770 C1165 1.685 . S
C1765 C507 1.751 . S
C1780 C1100 1.014 . S
C1775 C544 1.015 . S
C1790 C1040 1.257 . S
C1785 C652 1.245 . S
C1795 C471 1.744 . S
C1800 C1053 1.743 . S
C1810 C1083 1.418 . S
C1805 C508 1.440 . S
C1815 C543 1.299 . S
C1820 C1133 1.261 . S
C1830 C1163 1.657 . S
C1825 C806 1.643 . S
C1835 C326 1.734 . S
C1840 C953 1.734 . S
C1850 C983 1.672 . S
C1845 C374 1.678 . S
C1860 C1000 1.316 1_565 S
C1855 C398 1.342 . S
C1870 C1143 1.892 . S
C1865 C770 1.830 . S
C1875 C734 1.368 1_554 S
C1880 C1170 1.280 . S
C1890 C933 1.855 . S
C1885 C362 1.842 . S
C1900 C900 1.168 . S
C1895 C290 1.214 . S
C1905 C230 1.254 . S
C1910 C1150 1.270 . S
C1920 C885 1.400 . S
C1915 C182 1.426 . S
C1925 C146 1.420 . S
C1930 C1183 1.406 . S
C1935 C266 1.833 . S
C1940 C932 1.817 . S
C1945 C75 1.671 . S
C1950 C1032 1.654 1_556 S
C1960 C970 1.042 . S
C1955 C38 1.055 . S
C1965 C4 1.408 . S
C1970 C1065 1.409 . S
C1975 C112 1.181 . S
C1980 C1010 1.113 . S
C1990 C1145 1.320 . S
C1985 C832 1.346 . S
C1995 C399 1.589 . S
C2000 C892 1.567 . S
C2010 C1173 1.646 1_655 S
C2005 C760 1.697 . S
C2015 C327 0.967 . S
C2020 C930 0.965 . S
C2025 C831 1.253 . S
C2030 C1030 1.247 . S
C2040 C965 1.756 . S
C2035 C400 1.739 . S
C2045 C759 1.458 . S
C2050 C1072 1.426 . S
C2060 C1005 1.258 . S
C2055 C328 1.297 . S
C2070 C1152 1.654 . S
C2065 C626 1.589 . S
C2080 C945 1.747 1_565 S
C2075 C542 1.746 . S
C2085 C590 1.528 . S
C2090 C1052 1.633 . S
C2100 C990 1.290 . S
C2095 C470 1.312 . S
C2105 C518 1.831 . S
C2110 C1012 1.876 . S
C2115 C446 1.248 . S
C2120 C1180 1.310 . S
C2130 C1085 1.829 . S
C2125 C578 1.820 . S
C2140 C1110 1.159 . S
C2135 C686 1.219 . S
