# Generated by pormake.
# Topology gar, (4,6)-cn, num edge types: 1
# Building blocks:
#     Node 0, Type 0, BuildingBlock: CEKHIL_clean_sbu_0, # of connection points: 4
#     Node 1, Type 0, BuildingBlock: CEKHIL_clean_sbu_0, # of connection points: 4
#     Node 2, Type 0, BuildingBlock: CEKHIL_clean_sbu_0, # of connection points: 4
#     Node 3, Type 0, BuildingBlock: CEKHIL_clean_sbu_0, # of connection points: 4
#     Node 4, Type 0, BuildingBlock: CEKHIL_clean_sbu_0, # of connection points: 4
#     Node 5, Type 0, BuildingBlock: CEKHIL_clean_sbu_0, # of connection points: 4
#     Node 6, Type 0, BuildingBlock: CEKHIL_clean_sbu_0, # of connection points: 4
#     Node 7, Type 0, BuildingBlock: CEKHIL_clean_sbu_0, # of connection points: 4
#     Node 8, Type 0, BuildingBlock: CEKHIL_clean_sbu_0, # of connection points: 4
#     Node 9, Type 0, BuildingBlock: CEKHIL_clean_sbu_0, # of connection points: 4
#     Node 10, Type 0, BuildingBlock: CEKHIL_clean_sbu_0, # of connection points: 4
#     Node 11, Type 0, BuildingBlock: CEKHIL_clean_sbu_0, # of connection points: 4
#     Node 12, Type 0, BuildingBlock: CEKHIL_clean_sbu_0, # of connection points: 4
#     Node 13, Type 0, BuildingBlock: CEKHIL_clean_sbu_0, # of connection points: 4
#     Node 14, Type 0, BuildingBlock: CEKHIL_clean_sbu_0, # of connection points: 4
#     Node 15, Type 0, BuildingBlock: CEKHIL_clean_sbu_0, # of connection points: 4
#     Node 16, Type 0, BuildingBlock: CEKHIL_clean_sbu_0, # of connection points: 4
#     Node 17, Type 0, BuildingBlock: CEKHIL_clean_sbu_0, # of connection points: 4
#     Node 18, Type 0, BuildingBlock: CEKHIL_clean_sbu_0, # of connection points: 4
#     Node 19, Type 0, BuildingBlock: CEKHIL_clean_sbu_0, # of connection points: 4
#     Node 20, Type 0, BuildingBlock: CEKHIL_clean_sbu_0, # of connection points: 4
#     Node 21, Type 0, BuildingBlock: CEKHIL_clean_sbu_0, # of connection points: 4
#     Node 22, Type 0, BuildingBlock: CEKHIL_clean_sbu_0, # of connection points: 4
#     Node 23, Type 0, BuildingBlock: CEKHIL_clean_sbu_0, # of connection points: 4
#     Node 24, Type 1, BuildingBlock: INOVEN_clean_sbu_0, # of connection points: 6
#     Node 25, Type 1, BuildingBlock: INOVEN_clean_sbu_0, # of connection points: 6
#     Node 26, Type 1, BuildingBlock: INOVEN_clean_sbu_0, # of connection points: 6
#     Node 27, Type 1, BuildingBlock: INOVEN_clean_sbu_0, # of connection points: 6
#     Node 28, Type 1, BuildingBlock: INOVEN_clean_sbu_0, # of connection points: 6
#     Node 29, Type 1, BuildingBlock: INOVEN_clean_sbu_0, # of connection points: 6
#     Node 30, Type 1, BuildingBlock: INOVEN_clean_sbu_0, # of connection points: 6
#     Node 31, Type 1, BuildingBlock: INOVEN_clean_sbu_0, # of connection points: 6
#     Node 32, Type 1, BuildingBlock: INOVEN_clean_sbu_0, # of connection points: 6
#     Node 33, Type 1, BuildingBlock: INOVEN_clean_sbu_0, # of connection points: 6
#     Node 34, Type 1, BuildingBlock: INOVEN_clean_sbu_0, # of connection points: 6
#     Node 35, Type 1, BuildingBlock: INOVEN_clean_sbu_0, # of connection points: 6
#     Node 36, Type 1, BuildingBlock: INOVEN_clean_sbu_0, # of connection points: 6
#     Node 37, Type 1, BuildingBlock: INOVEN_clean_sbu_0, # of connection points: 6
#     Node 38, Type 1, BuildingBlock: INOVEN_clean_sbu_0, # of connection points: 6
#     Node 39, Type 1, BuildingBlock: INOVEN_clean_sbu_0, # of connection points: 6
#     Edge 40, Type (0, 1), BuildingBlock: MIFKUJ_clean_linker_0, # of connection points: 2
#     Edge 41, Type (0, 1), BuildingBlock: MIFKUJ_clean_linker_0, # of connection points: 2
#     Edge 42, Type (0, 1), BuildingBlock: MIFKUJ_clean_linker_0, # of connection points: 2
#     Edge 43, Type (0, 1), BuildingBlock: MIFKUJ_clean_linker_0, # of connection points: 2
#     Edge 44, Type (0, 1), BuildingBlock: MIFKUJ_clean_linker_0, # of connection points: 2
#     Edge 45, Type (0, 1), BuildingBlock: MIFKUJ_clean_linker_0, # of connection points: 2
#     Edge 46, Type (0, 1), BuildingBlock: MIFKUJ_clean_linker_0, # of connection points: 2
#     Edge 47, Type (0, 1), BuildingBlock: MIFKUJ_clean_linker_0, # of connection points: 2
#     Edge 48, Type (0, 1), BuildingBlock: MIFKUJ_clean_linker_0, # of connection points: 2
#     Edge 49, Type (0, 1), BuildingBlock: MIFKUJ_clean_linker_0, # of connection points: 2
#     Edge 50, Type (0, 1), BuildingBlock: MIFKUJ_clean_linker_0, # of connection points: 2
#     Edge 51, Type (0, 1), BuildingBlock: MIFKUJ_clean_linker_0, # of connection points: 2
#     Edge 52, Type (0, 1), BuildingBlock: MIFKUJ_clean_linker_0, # of connection points: 2
#     Edge 53, Type (0, 1), BuildingBlock: MIFKUJ_clean_linker_0, # of connection points: 2
#     Edge 54, Type (0, 1), BuildingBlock: MIFKUJ_clean_linker_0, # of connection points: 2
#     Edge 55, Type (0, 1), BuildingBlock: MIFKUJ_clean_linker_0, # of connection points: 2
#     Edge 56, Type (0, 1), BuildingBlock: MIFKUJ_clean_linker_0, # of connection points: 2
#     Edge 57, Type (0, 1), BuildingBlock: MIFKUJ_clean_linker_0, # of connection points: 2
#     Edge 58, Type (0, 1), BuildingBlock: MIFKUJ_clean_linker_0, # of connection points: 2
#     Edge 59, Type (0, 1), BuildingBlock: MIFKUJ_clean_linker_0, # of connection points: 2
#     Edge 60, Type (0, 1), BuildingBlock: MIFKUJ_clean_linker_0, # of connection points: 2
#     Edge 61, Type (0, 1), BuildingBlock: MIFKUJ_clean_linker_0, # of connection points: 2
#     Edge 62, Type (0, 1), BuildingBlock: MIFKUJ_clean_linker_0, # of connection points: 2
#     Edge 63, Type (0, 1), BuildingBlock: MIFKUJ_clean_linker_0, # of connection points: 2
#     Edge 64, Type (0, 1), BuildingBlock: MIFKUJ_clean_linker_0, # of connection points: 2
#     Edge 65, Type (0, 1), BuildingBlock: MIFKUJ_clean_linker_0, # of connection points: 2
#     Edge 66, Type (0, 1), BuildingBlock: MIFKUJ_clean_linker_0, # of connection points: 2
#     Edge 67, Type (0, 1), BuildingBlock: MIFKUJ_clean_linker_0, # of connection points: 2
#     Edge 68, Type (0, 1), BuildingBlock: MIFKUJ_clean_linker_0, # of connection points: 2
#     Edge 69, Type (0, 1), BuildingBlock: MIFKUJ_clean_linker_0, # of connection points: 2
#     Edge 70, Type (0, 1), BuildingBlock: MIFKUJ_clean_linker_0, # of connection points: 2
#     Edge 71, Type (0, 1), BuildingBlock: MIFKUJ_clean_linker_0, # of connection points: 2
#     Edge 72, Type (0, 1), BuildingBlock: MIFKUJ_clean_linker_0, # of connection points: 2
#     Edge 73, Type (0, 1), BuildingBlock: MIFKUJ_clean_linker_0, # of connection points: 2
#     Edge 74, Type (0, 1), BuildingBlock: MIFKUJ_clean_linker_0, # of connection points: 2
#     Edge 75, Type (0, 1), BuildingBlock: MIFKUJ_clean_linker_0, # of connection points: 2
#     Edge 76, Type (0, 1), BuildingBlock: MIFKUJ_clean_linker_0, # of connection points: 2
#     Edge 77, Type (0, 1), BuildingBlock: MIFKUJ_clean_linker_0, # of connection points: 2
#     Edge 78, Type (0, 1), BuildingBlock: MIFKUJ_clean_linker_0, # of connection points: 2
#     Edge 79, Type (0, 1), BuildingBlock: MIFKUJ_clean_linker_0, # of connection points: 2
#     Edge 80, Type (0, 1), BuildingBlock: MIFKUJ_clean_linker_0, # of connection points: 2
#     Edge 81, Type (0, 1), BuildingBlock: MIFKUJ_clean_linker_0, # of connection points: 2
#     Edge 82, Type (0, 1), BuildingBlock: MIFKUJ_clean_linker_0, # of connection points: 2
#     Edge 83, Type (0, 1), BuildingBlock: MIFKUJ_clean_linker_0, # of connection points: 2
#     Edge 84, Type (0, 1), BuildingBlock: MIFKUJ_clean_linker_0, # of connection points: 2
#     Edge 85, Type (0, 1), BuildingBlock: MIFKUJ_clean_linker_0, # of connection points: 2
#     Edge 86, Type (0, 1), BuildingBlock: MIFKUJ_clean_linker_0, # of connection points: 2
#     Edge 87, Type (0, 1), BuildingBlock: MIFKUJ_clean_linker_0, # of connection points: 2
#     Edge 88, Type (0, 1), BuildingBlock: MIFKUJ_clean_linker_0, # of connection points: 2
#     Edge 89, Type (0, 1), BuildingBlock: MIFKUJ_clean_linker_0, # of connection points: 2
#     Edge 90, Type (0, 1), BuildingBlock: MIFKUJ_clean_linker_0, # of connection points: 2
#     Edge 91, Type (0, 1), BuildingBlock: MIFKUJ_clean_linker_0, # of connection points: 2
#     Edge 92, Type (0, 1), BuildingBlock: MIFKUJ_clean_linker_0, # of connection points: 2
#     Edge 93, Type (0, 1), BuildingBlock: MIFKUJ_clean_linker_0, # of connection points: 2
#     Edge 94, Type (0, 1), BuildingBlock: MIFKUJ_clean_linker_0, # of connection points: 2
#     Edge 95, Type (0, 1), BuildingBlock: MIFKUJ_clean_linker_0, # of connection points: 2
#     Edge 96, Type (0, 1), BuildingBlock: MIFKUJ_clean_linker_0, # of connection points: 2
#     Edge 97, Type (0, 1), BuildingBlock: MIFKUJ_clean_linker_0, # of connection points: 2
#     Edge 98, Type (0, 1), BuildingBlock: MIFKUJ_clean_linker_0, # of connection points: 2
#     Edge 99, Type (0, 1), BuildingBlock: MIFKUJ_clean_linker_0, # of connection points: 2
#     Edge 100, Type (0, 1), BuildingBlock: MIFKUJ_clean_linker_0, # of connection points: 2
#     Edge 101, Type (0, 1), BuildingBlock: MIFKUJ_clean_linker_0, # of connection points: 2
#     Edge 102, Type (0, 1), BuildingBlock: MIFKUJ_clean_linker_0, # of connection points: 2
#     Edge 103, Type (0, 1), BuildingBlock: MIFKUJ_clean_linker_0, # of connection points: 2
#     Edge 104, Type (0, 1), BuildingBlock: MIFKUJ_clean_linker_0, # of connection points: 2
#     Edge 105, Type (0, 1), BuildingBlock: MIFKUJ_clean_linker_0, # of connection points: 2
#     Edge 106, Type (0, 1), BuildingBlock: MIFKUJ_clean_linker_0, # of connection points: 2
#     Edge 107, Type (0, 1), BuildingBlock: MIFKUJ_clean_linker_0, # of connection points: 2
#     Edge 108, Type (0, 1), BuildingBlock: MIFKUJ_clean_linker_0, # of connection points: 2
#     Edge 109, Type (0, 1), BuildingBlock: MIFKUJ_clean_linker_0, # of connection points: 2
#     Edge 110, Type (0, 1), BuildingBlock: MIFKUJ_clean_linker_0, # of connection points: 2
#     Edge 111, Type (0, 1), BuildingBlock: MIFKUJ_clean_linker_0, # of connection points: 2
#     Edge 112, Type (0, 1), BuildingBlock: MIFKUJ_clean_linker_0, # of connection points: 2
#     Edge 113, Type (0, 1), BuildingBlock: MIFKUJ_clean_linker_0, # of connection points: 2
#     Edge 114, Type (0, 1), BuildingBlock: MIFKUJ_clean_linker_0, # of connection points: 2
#     Edge 115, Type (0, 1), BuildingBlock: MIFKUJ_clean_linker_0, # of connection points: 2
#     Edge 116, Type (0, 1), BuildingBlock: MIFKUJ_clean_linker_0, # of connection points: 2
#     Edge 117, Type (0, 1), BuildingBlock: MIFKUJ_clean_linker_0, # of connection points: 2
#     Edge 118, Type (0, 1), BuildingBlock: MIFKUJ_clean_linker_0, # of connection points: 2
#     Edge 119, Type (0, 1), BuildingBlock: MIFKUJ_clean_linker_0, # of connection points: 2
#     Edge 120, Type (0, 1), BuildingBlock: MIFKUJ_clean_linker_0, # of connection points: 2
#     Edge 121, Type (0, 1), BuildingBlock: MIFKUJ_clean_linker_0, # of connection points: 2
#     Edge 122, Type (0, 1), BuildingBlock: MIFKUJ_clean_linker_0, # of connection points: 2
#     Edge 123, Type (0, 1), BuildingBlock: MIFKUJ_clean_linker_0, # of connection points: 2
#     Edge 124, Type (0, 1), BuildingBlock: MIFKUJ_clean_linker_0, # of connection points: 2
#     Edge 125, Type (0, 1), BuildingBlock: MIFKUJ_clean_linker_0, # of connection points: 2
#     Edge 126, Type (0, 1), BuildingBlock: MIFKUJ_clean_linker_0, # of connection points: 2
#     Edge 127, Type (0, 1), BuildingBlock: MIFKUJ_clean_linker_0, # of connection points: 2
#     Edge 128, Type (0, 1), BuildingBlock: MIFKUJ_clean_linker_0, # of connection points: 2
#     Edge 129, Type (0, 1), BuildingBlock: MIFKUJ_clean_linker_0, # of connection points: 2
#     Edge 130, Type (0, 1), BuildingBlock: MIFKUJ_clean_linker_0, # of connection points: 2
#     Edge 131, Type (0, 1), BuildingBlock: MIFKUJ_clean_linker_0, # of connection points: 2
#     Edge 132, Type (0, 1), BuildingBlock: MIFKUJ_clean_linker_0, # of connection points: 2
#     Edge 133, Type (0, 1), BuildingBlock: MIFKUJ_clean_linker_0, # of connection points: 2
#     Edge 134, Type (0, 1), BuildingBlock: MIFKUJ_clean_linker_0, # of connection points: 2
#     Edge 135, Type (0, 1), BuildingBlock: MIFKUJ_clean_linker_0, # of connection points: 2
# Relax obj value: 0.152
# Max RMSD: 0.284
# Mean RMSD: 0.149
data_MOF--net-gar--node1-CEKHIL_clean_sbu_0--node2-INOVEN_clean_sbu_0--edge1-MIFKUJ_clean_linker_0
_symmetry_space_group_name_H-M    P1
_symmetry_Int_Tables_number       1
_symmetry_cell_setting            triclinic
loop_
_symmetry_equiv_pos_as_xyz
'x, y, z'
_cell_length_a     78.745103
_cell_length_b     72.702214
_cell_length_c     72.469325
_cell_angle_alpha  98.149153
_cell_angle_beta   94.929347
_cell_angle_gamma 102.15584
loop_
_atom_site_label
_atom_site_type_symbol
_atom_site_fract_x
_atom_site_fract_y
_atom_site_fract_z
_atom_type_partial_charge
Co0 Co 0.09858 0.32702 0.37992 0.0
O1 O 0.12288 0.32663 0.38165 0.0
O2 O 0.10358 0.31636 0.35594 0.0
C3 C 0.10194 0.35698 0.39449 0.0
O4 O 0.0731 0.32547 0.37229 0.0
Co5 Co 0.07919 0.33405 0.41517 0.0
O6 O 0.0591 0.33399 0.39667 0.0
C7 C 0.08486 0.29563 0.40151 0.0
C8 C 0.11958 0.31958 0.36387 0.0
C9 C 0.05939 0.32872 0.3792 0.0
O10 O 0.09239 0.30113 0.38756 0.0
O11 O 0.07975 0.30663 0.41417 0.0
O12 O 0.10386 0.35369 0.3768 0.0
O13 O 0.09967 0.34247 0.40308 0.0
Co14 Co 0.9968 0.75846 0.64664 0.0
O15 O 0.97218 0.75652 0.64404 0.0
O16 O 0.98828 0.75306 0.66968 0.0
C17 C 1.00393 0.78492 0.63407 0.0
O18 O 0.02227 0.76038 0.65455 0.0
Co19 Co 0.01665 0.75602 0.61085 0.0
O20 O 0.03755 0.75984 0.62964 0.0
C21 C 0.9937 0.72332 0.61987 0.0
C22 C 0.9732 0.75383 0.66139 0.0
C23 C 0.03658 0.76087 0.64724 0.0
O24 O 0.99399 0.73071 0.63702 0.0
O25 O 0.996 0.73371 0.60711 0.0
O26 O 1.00103 0.78623 0.65155 0.0
O27 O 1.00071 0.76797 0.62456 0.0
Co28 Co 0.59748 0.82574 0.87989 0.0
O29 O 0.62184 0.826 0.88169 0.0
O30 O 0.6026 0.81545 0.85596 0.0
C31 C 0.59966 0.85513 0.89529 0.0
O32 O 0.57195 0.82374 0.8724 0.0
Co33 Co 0.57812 0.83002 0.91561 0.0
O34 O 0.5572 0.82763 0.89736 0.0
C35 C 0.59035 0.79635 0.90388 0.0
C36 C 0.6186 0.81877 0.86394 0.0
C37 C 0.55783 0.82458 0.8797 0.0
O38 O 0.59166 0.79977 0.88714 0.0
O39 O 0.59132 0.80963 0.91773 0.0
O40 O 0.60233 0.85281 0.87772 0.0
O41 O 0.59789 0.84016 0.90312 0.0
Co42 Co 0.49644 0.26034 0.14754 0.0
O43 O 0.47155 0.25635 0.14501 0.0
O44 O 0.48833 0.25345 0.17029 0.0
C45 C 0.50151 0.28764 0.13624 0.0
O46 O 0.52211 0.26379 0.15555 0.0
Co47 Co 0.517 0.2623 0.11264 0.0
O48 O 0.53789 0.26984 0.13181 0.0
C49 C 0.49825 0.22535 0.12099 0.0
C50 C 0.47285 0.2531 0.16219 0.0
C51 C 0.53674 0.26801 0.14893 0.0
O52 O 0.49506 0.23306 0.13697 0.0
O53 O 0.505 0.23468 0.10871 0.0
O54 O 0.49898 0.28784 0.15373 0.0
O55 O 0.4994 0.27119 0.12597 0.0
Co56 Co 0.07072 0.80803 0.11836 0.0
O57 O 0.04534 0.80365 0.1124 0.0
O58 O 0.05869 0.80097 0.13952 0.0
C59 C 0.07564 0.83595 0.10578 0.0
O60 O 0.09612 0.81066 0.13122 0.0
Co61 Co 0.09696 0.81019 0.09043 0.0
O62 O 0.11616 0.81347 0.11108 0.0
C63 C 0.07386 0.77321 0.09243 0.0
C64 C 0.04405 0.79994 0.1293 0.0
C65 C 0.11213 0.81216 0.12753 0.0
O66 O 0.06953 0.78048 0.10807 0.0
O67 O 0.08326 0.7831 0.08221 0.0
O68 O 0.0723 0.83567 0.12302 0.0
O69 O 0.07635 0.81954 0.09664 0.0
Co70 Co 0.5225 0.77442 0.4075 0.0
O71 O 0.54781 0.78039 0.41385 0.0
O72 O 0.53428 0.76699 0.38582 0.0
C73 C 0.52021 0.80333 0.42172 0.0
O74 O 0.49663 0.76837 0.39433 0.0
Co75 Co 0.49644 0.77399 0.43607 0.0
O76 O 0.47963 0.77752 0.41554 0.0
C77 C 0.51617 0.74355 0.43225 0.0
C78 C 0.54902 0.7743 0.39644 0.0
C79 C 0.48212 0.77287 0.39858 0.0
O80 O 0.52069 0.74844 0.4165 0.0
O81 O 0.50753 0.75295 0.44267 0.0
O82 O 0.52406 0.80096 0.40462 0.0
O83 O 0.51828 0.78852 0.42993 0.0
Co84 Co 0.57169 0.30837 0.61876 0.0
O85 O 0.54633 0.30448 0.6129 0.0
O86 O 0.55951 0.3021 0.64019 0.0
C87 C 0.57696 0.33605 0.6056 0.0
O88 O 0.59739 0.31064 0.63134 0.0
Co89 Co 0.597 0.30898 0.59003 0.0
O90 O 0.61655 0.31227 0.61024 0.0
C91 C 0.57389 0.27253 0.59355 0.0
C92 C 0.54492 0.30102 0.62983 0.0
C93 C 0.61322 0.31151 0.62701 0.0
O94 O 0.56963 0.28051 0.6089 0.0
O95 O 0.58359 0.28169 0.58307 0.0
O96 O 0.57404 0.33619 0.623 0.0
O97 O 0.57704 0.31935 0.59662 0.0
Co98 Co 0.02368 0.2747 0.90894 0.0
O99 O 0.04898 0.27987 0.91489 0.0
O100 O 0.03497 0.26799 0.88674 0.0
C101 C 0.02193 0.30348 0.92367 0.0
O102 O 0.99759 0.26928 0.89663 0.0
Co103 Co 0.99882 0.27414 0.93891 0.0
O104 O 0.98241 0.27946 0.91921 0.0
C105 C 0.01573 0.24181 0.93156 0.0
C106 C 0.0499 0.27458 0.89726 0.0
C107 C 0.98379 0.27475 0.90191 0.0
O108 O 0.02171 0.24841 0.91708 0.0
O109 O 1.00687 0.25041 0.9424 0.0
O110 O 0.02543 0.30123 0.90645 0.0
O111 O 0.02022 0.28859 0.93181 0.0
Co112 Co 0.42586 0.03693 0.29177 0.0
O113 O 0.42716 0.06271 0.28939 0.0
O114 O 0.40378 0.03839 0.28057 0.0
C115 C 0.43844 0.04239 0.32065 0.0
O116 O 0.41955 0.00931 0.29197 0.0
Co117 Co 0.45848 0.02011 0.29952 0.0
O118 O 0.44175 0.99487 0.29568 0.0
C119 C 0.44749 0.02714 0.26171 0.0
C120 C 0.41094 0.05641 0.28201 0.0
C121 C 0.42552 0.99442 0.29251 0.0
O122 O 0.43356 0.03164 0.26674 0.0
O123 O 0.45964 0.02408 0.27295 0.0
O124 O 0.42186 0.04196 0.31764 0.0
O125 O 0.44706 0.04089 0.30639 0.0
Co126 Co 0.2907 0.18151 0.49236 0.0
O127 O 0.31628 0.18771 0.49526 0.0
O128 O 0.30002 0.16019 0.49893 0.0
C129 C 0.28841 0.19373 0.46466 0.0
O130 O 0.26393 0.16869 0.49097 0.0
Co131 Co 0.2686 0.21119 0.49156 0.0
O132 O 0.24756 0.1903 0.48941 0.0
C133 C 0.28637 0.20694 0.52784 0.0
C134 C 0.31561 0.17072 0.49918 0.0
C135 C 0.24882 0.1733 0.49043 0.0
O136 O 0.2913 0.19228 0.51987 0.0
O137 O 0.27818 0.21696 0.51879 0.0
O138 O 0.29032 0.17641 0.46479 0.0
O139 O 0.28819 0.20322 0.48108 0.0
Co140 Co 0.16472 0.00829 0.77176 0.0
O141 O 0.16178 0.97932 0.77022 0.0
O142 O 0.18543 0.99698 0.76467 0.0
C143 C 0.1514 0.01279 0.80123 0.0
O144 O 0.17658 0.03831 0.77246 0.0
Co145 Co 0.13812 0.03297 0.77386 0.0
O146 O 0.15698 0.05637 0.77602 0.0
C147 C 0.13998 0.01167 0.73625 0.0
C148 C 0.1776 0.97971 0.76601 0.0
C149 C 0.17262 0.05516 0.77397 0.0
O150 O 0.15379 1.00614 0.74319 0.0
O151 O 0.13148 0.021 0.74689 0.0
O152 O 0.16752 0.01107 0.80064 0.0
O153 O 0.14393 0.01169 0.78445 0.0
Co154 Co 0.30269 0.92549 0.99598 0.0
O155 O 0.27805 0.92191 0.99577 0.0
O156 O 0.29795 0.94907 0.00667 0.0
C157 C 0.30271 0.91063 0.96694 0.0
O158 O 0.3286 0.93429 0.9984 0.0
Co159 Co 0.31999 0.89028 0.99091 0.0
O160 O 0.34128 0.90989 0.9897 0.0
C161 C 0.30845 0.90348 0.02697 0.0
C162 C 0.28174 0.93967 0.00372 0.0
C163 C 0.34187 0.92748 0.995 0.0
O164 O 0.30502 0.91839 0.02147 0.0
O165 O 0.31274 0.88998 0.01643 0.0
O166 O 0.30097 0.92819 0.9695 0.0
O167 O 0.30226 0.90228 0.98145 0.0
Co168 Co 0.30201 0.3911 0.02449 0.0
O169 O 0.27653 0.38436 0.02198 0.0
O170 O 0.29241 0.41322 0.03257 0.0
C171 C 0.30277 0.37621 0.99495 0.0
O172 O 0.32887 0.40439 0.02737 0.0
Co173 Co 0.32426 0.36131 0.021 0.0
O174 O 0.34305 0.38223 0.01631 0.0
C175 C 0.30765 0.36789 0.05588 0.0
C176 C 0.27693 0.40225 0.02716 0.0
C177 C 0.34284 0.39962 0.02165 0.0
O178 O 0.30313 0.38276 0.05066 0.0
O179 O 0.31507 0.35713 0.04533 0.0
O180 O 0.30053 0.39349 0.99791 0.0
O181 O 0.30392 0.36819 0.00966 0.0
Co182 Co 0.79224 0.1493 0.01762 0.0
O183 O 0.81667 0.15204 0.02285 0.0
O184 O 0.7964 0.1259 0.02423 0.0
C185 C 0.7934 0.16089 0.99095 0.0
O186 O 0.76608 0.14132 0.0123 0.0
Co187 Co 0.77596 0.18448 0.01267 0.0
O188 O 0.75503 0.1645 1.00171 0.0
C189 C 0.78398 0.17427 0.05036 0.0
C190 C 0.81279 0.13417 0.02456 0.0
C191 C 0.75342 0.14751 0.005 0.0
O192 O 0.79019 0.15995 0.04406 0.0
O193 O 0.77877 0.18558 0.0403 0.0
O194 O 0.79387 0.14318 0.99098 0.0
O195 O 0.79401 0.17123 0.00704 0.0
Co196 Co 0.16657 0.53704 0.24717 0.0
O197 O 0.16375 0.51053 0.24012 0.0
O198 O 0.18811 0.53267 0.2397 0.0
C199 C 0.15523 0.53614 0.27378 0.0
O200 O 0.17424 0.56536 0.2542 0.0
Co201 Co 0.13463 0.55579 0.25285 0.0
O202 O 0.15251 0.57932 0.26273 0.0
C203 C 0.14646 0.54759 0.21542 0.0
C204 C 0.1804 0.51482 0.23867 0.0
C205 C 0.16846 0.57985 0.26064 0.0
O206 O 0.15835 0.53973 0.22154 0.0
O207 O 0.13574 0.55419 0.2253 0.0
O208 O 0.17127 0.53461 0.27303 0.0
O209 O 0.14592 0.5356 0.25807 0.0
Co210 Co 0.80235 0.89153 0.52424 0.0
O211 O 0.77685 0.88442 0.52114 0.0
O212 O 0.79237 0.91326 0.53257 0.0
C213 C 0.80397 0.87744 0.49462 0.0
O214 O 0.82901 0.90534 0.5278 0.0
Co215 Co 0.82524 0.86242 0.52087 0.0
O216 O 0.84498 0.8839 0.5197 0.0
C217 C 0.80744 0.86752 0.55505 0.0
C218 C 0.77702 0.90219 0.52673 0.0
C219 C 0.8438 0.9011 0.52426 0.0
O220 O 0.80308 0.88259 0.55014 0.0
O221 O 0.81505 0.85705 0.54443 0.0
O222 O 0.80145 0.8946 0.49788 0.0
O223 O 0.80488 0.86904 0.50911 0.0
Co224 Co 0.92913 0.06685 0.26196 0.0
O225 O 0.93297 0.09602 0.26492 0.0
O226 O 0.90787 0.07762 0.25548 0.0
C227 C 0.94413 0.06557 0.29191 0.0
O228 O 0.91654 0.03669 0.25878 0.0
Co229 Co 0.95568 0.04165 0.26232 0.0
O230 O 0.93648 0.01937 0.2635 0.0
C231 C 0.9522 0.05957 0.22823 0.0
C232 C 0.91644 0.09522 0.26023 0.0
C233 C 0.92051 0.02024 0.26072 0.0
O234 O 0.93816 0.06493 0.2342 0.0
O235 O 0.96134 0.05149 0.23858 0.0
O236 O 0.92848 0.06875 0.2901 0.0
O237 O 0.95055 0.06436 0.27612 0.0
Co238 Co 0.2917 0.64814 0.51766 0.0
O239 O 0.31629 0.65302 0.52279 0.0
O240 O 0.29784 0.62567 0.52452 0.0
C241 C 0.29203 0.65931 0.49094 0.0
O242 O 0.26556 0.63842 0.5126 0.0
Co243 Co 0.273 0.68142 0.51297 0.0
O244 O 0.25364 0.66029 0.50045 0.0
C245 C 0.28208 0.67193 0.55062 0.0
C246 C 0.31386 0.63525 0.52473 0.0
C247 C 0.25281 0.64357 0.50414 0.0
O248 O 0.28952 0.6587 0.54409 0.0
O249 O 0.27529 0.68238 0.54073 0.0
O250 O 0.29332 0.64186 0.4911 0.0
O251 O 0.29199 0.6697 0.50688 0.0
Co252 Co 0.4284 0.56643 0.7618 0.0
O253 O 0.43185 0.59564 0.76588 0.0
O254 O 0.40717 0.57722 0.75486 0.0
C255 C 0.44322 0.56464 0.79167 0.0
O256 O 0.41578 0.5363 0.75805 0.0
Co257 Co 0.4545 0.54118 0.76167 0.0
O258 O 0.43541 0.51871 0.76301 0.0
C259 C 0.45054 0.55814 0.72717 0.0
C260 C 0.41544 0.59484 0.76053 0.0
C261 C 0.41952 0.5198 0.76016 0.0
O262 O 0.43756 0.56502 0.73409 0.0
O263 O 0.45927 0.54912 0.73688 0.0
O264 O 0.42732 0.56717 0.78972 0.0
O265 O 0.44992 0.56406 0.77604 0.0
Co266 Co 0.66901 0.03712 0.74706 0.0
O267 O 0.66829 0.01088 0.73955 0.0
O268 O 0.68964 0.0352 0.73591 0.0
C269 C 0.66179 0.03481 0.77561 0.0
O270 O 0.67472 0.0653 0.75343 0.0
Co271 Co 0.63715 0.05312 0.75914 0.0
O272 O 0.65405 0.0781 0.76609 0.0
C273 C 0.64157 0.04261 0.71907 0.0
C274 C 0.68397 0.01698 0.73527 0.0
C275 C 0.66923 0.07956 0.76087 0.0
O276 O 0.65644 0.03872 0.72287 0.0
O277 O 0.63165 0.04697 0.73128 0.0
O278 O 0.67787 0.03572 0.77242 0.0
O279 O 0.65044 0.03376 0.76135 0.0
Co280 Co 0.79016 0.68172 0.99315 0.0
O281 O 0.8157 0.68762 0.9952 0.0
O282 O 0.79955 0.66094 1.00107 0.0
C283 C 0.78727 0.69292 0.96493 0.0
O284 O 0.76362 0.66896 0.99244 0.0
Co285 Co 0.76746 0.71064 0.99135 0.0
O286 O 0.74654 0.68922 0.9874 0.0
C287 C 0.78756 0.70962 0.02748 0.0
C288 C 0.81508 0.67116 1.00043 0.0
C289 C 0.74826 0.67271 0.98993 0.0
O290 O 0.79126 0.69387 0.02035 0.0
O291 O 0.77949 0.71919 0.0177 0.0
O292 O 0.78908 0.67559 0.96545 0.0
O293 O 0.7873 0.70282 0.98118 0.0
Co294 Co 0.92367 0.53446 0.79045 0.0
O295 O 0.92457 0.56081 0.79133 0.0
O296 O 0.9016 0.53683 0.77982 0.0
C297 C 0.93586 0.53572 0.81914 0.0
O298 O 0.91794 0.50631 0.78724 0.0
Co299 Co 0.95755 0.51879 0.79477 0.0
O300 O 0.94126 0.49332 0.79089 0.0
C301 C 0.94617 0.53039 0.75944 0.0
C302 C 0.90856 0.555 0.78317 0.0
C303 C 0.92493 0.492 0.78711 0.0
O304 O 0.93173 0.53268 0.76516 0.0
O305 O 0.95879 0.52709 0.76982 0.0
O306 O 0.91941 0.53608 0.81647 0.0
O307 O 0.94469 0.537 0.80502 0.0
Co308 Co 0.79974 0.42323 0.4938 0.0
O309 O 0.77548 0.42094 0.49451 0.0
O310 O 0.79623 0.44764 0.50385 0.0
C311 C 0.79833 0.40718 0.46532 0.0
O312 O 0.82566 0.43072 0.49514 0.0
Co313 Co 0.81551 0.38671 0.48866 0.0
O314 O 0.83813 0.40552 0.49113 0.0
C315 C 0.80981 0.40511 0.52612 0.0
C316 C 0.77981 0.43889 0.50189 0.0
C317 C 0.83904 0.4234 0.49455 0.0
O318 O 0.8026 0.41736 0.51957 0.0
O319 O 0.8151 0.39188 0.5163 0.0
O320 O 0.79754 0.42504 0.4673 0.0
O321 O 0.79783 0.39931 0.48012 0.0
Co322 Co 0.66495 0.50905 0.27218 0.0
O323 O 0.6621 0.48001 0.27016 0.0
O324 O 0.68603 0.49817 0.26599 0.0
C325 C 0.65122 0.5133 0.30139 0.0
O326 O 0.67676 0.5391 0.27323 0.0
Co327 Co 0.63813 0.53333 0.27354 0.0
O328 O 0.65686 0.55687 0.27565 0.0
C329 C 0.6406 0.51215 0.23617 0.0
C330 C 0.67821 0.48075 0.26678 0.0
C331 C 0.67264 0.55584 0.27425 0.0
O332 O 0.65454 0.50703 0.24342 0.0
O333 O 0.63169 0.52116 0.24658 0.0
O334 O 0.66735 0.51159 0.30099 0.0
O335 O 0.64388 0.51219 0.28452 0.0
Gd336 Gd 0.03066 0.02882 1.00198 0.0
Gd337 Gd 0.06516 0.04521 0.02367 0.0
C338 C 0.04626 0.07454 0.00597 0.0
C339 C 0.99735 0.02137 0.99148 0.0
C340 C 0.984 0.03277 0.99186 0.0
C341 C 0.97106 0.02942 0.97648 0.0
C342 C 0.98453 0.04757 0.00677 0.0
C343 C 0.95837 0.05446 0.9915 0.0
C344 C 0.97174 0.05828 0.00662 0.0
C345 C 0.95834 0.04018 0.97627 0.0
C346 C 0.05425 0.02618 0.97522 0.0
C347 C 0.04934 0.99957 0.02026 0.0
C348 C 0.09847 0.05361 0.03413 0.0
C349 C 0.11215 0.04275 0.03402 0.0
C350 C 0.12581 0.0477 0.04875 0.0
C351 C 0.11114 0.02678 0.02023 0.0
C352 C 0.13808 0.02158 0.03542 0.0
C353 C 0.12405 0.01628 0.02091 0.0
C354 C 0.1387 0.03723 0.04946 0.0
C355 C 0.0416 0.04835 0.05028 0.0
O356 O 0.03236 0.06028 1.00261 0.0
O357 O 0.0614 0.07219 0.01337 0.0
O358 O 1.00912 0.02585 0.98034 0.0
O359 O 1.00399 0.0181 0.00754 0.0
O360 O 0.03754 0.01933 0.97275 0.0
O361 O 0.05818 0.0331 0.9929 0.0
O362 O 0.06346 0.01359 0.02319 0.0
O363 O 0.03419 1.00211 0.01306 0.0
O364 O 0.08679 0.04889 0.04531 0.0
O365 O 0.09166 0.05633 0.0179 0.0
O366 O 0.05836 0.05472 0.05287 0.0
O367 O 0.03767 0.04125 0.03266 0.0
H368 H 0.97071 0.01833 0.96468 0.0
H369 H 0.99472 0.05078 0.01854 0.0
H370 H 0.97221 0.06944 0.01841 0.0
H371 H 0.94815 0.03687 0.96449 0.0
H372 H 0.12654 0.05974 0.0597 0.0
H373 H 0.10039 0.02243 0.00901 0.0
H374 H 0.12308 1.00405 0.0101 0.0
H375 H 0.1494 0.04175 0.06071 0.0
Gd376 Gd 0.30215 0.78619 0.24869 0.0
Gd377 Gd 0.28392 0.78958 0.27993 0.0
C378 C 0.30432 0.82651 0.27016 0.0
C379 C 0.3087 0.78394 0.21436 0.0
C380 C 0.31723 0.79653 0.20219 0.0
C381 C 0.33375 0.79516 0.19689 0.0
C382 C 0.30821 0.80894 0.19452 0.0
C383 C 0.33123 0.81698 0.17523 0.0
C384 C 0.31519 0.81909 0.18115 0.0
C385 C 0.3408 0.8055 0.18345 0.0
C386 C 0.32782 0.78892 0.27775 0.0
C387 C 0.28939 0.74901 0.26333 0.0
C388 C 0.26677 0.78968 0.30859 0.0
C389 C 0.26638 0.7822 0.32597 0.0
C390 C 0.25194 0.78261 0.33581 0.0
C391 C 0.27981 0.77391 0.33233 0.0
C392 C 0.26355 0.76504 0.35772 0.0
C393 C 0.27845 0.76543 0.3483 0.0
C394 C 0.2505 0.77401 0.35167 0.0
C395 C 0.26464 0.79323 0.24807 0.0
O396 O 0.30224 0.81663 0.25334 0.0
O397 O 0.30107 0.8184 0.28479 0.0
O398 O 0.31867 0.77929 0.22745 0.0
O399 O 0.29425 0.78751 0.21998 0.0
O400 O 0.33015 0.78914 0.26038 0.0
O401 O 0.31194 0.78898 0.28011 0.0
O402 O 0.28765 0.75975 0.2789 0.0
O403 O 0.29291 0.75605 0.24827 0.0
O404 O 0.262 0.77695 0.29339 0.0
O405 O 0.28065 0.80275 0.30754 0.0
O406 O 0.26779 0.80527 0.26343 0.0
O407 O 0.27316 0.78041 0.24975 0.0
H408 H 0.3409 0.78568 0.20266 0.0
H409 H 0.29549 0.81038 0.1983 0.0
H410 H 0.30781 0.82819 0.17498 0.0
H411 H 0.35329 0.80399 0.17899 0.0
H412 H 0.24154 0.78903 0.33087 0.0
H413 H 0.29096 0.77346 0.32463 0.0
H414 H 0.28845 0.75816 0.35257 0.0
H415 H 0.23892 0.7737 0.3588 0.0
Gd416 Gd 0.56526 0.03644 0.51266 0.0
Gd417 Gd 0.52522 0.03537 0.51695 0.0
C418 C 0.53655 0.99589 0.51016 0.0
C419 C 0.59666 0.03031 0.51393 0.0
C420 C 0.60651 0.01516 0.5091 0.0
C421 C 0.61651 0.0157 0.49392 0.0
C422 C 0.60766 1.00139 0.52071 0.0
C423 C 0.62964 0.99015 0.50297 0.0
C424 C 0.61903 0.98905 0.51766 0.0
C425 C 0.62787 1.00336 0.49086 0.0
C426 C 0.54424 0.03566 0.4818 0.0
C427 C 0.55392 0.07589 0.51956 0.0
C428 C 0.49382 0.04137 0.51472 0.0
C429 C 0.48396 0.05656 0.51929 0.0
C430 C 0.47541 0.05752 0.53561 0.0
C431 C 0.48126 0.06878 0.50642 0.0
C432 C 0.46084 0.08139 0.52533 0.0
C433 C 0.46986 0.08107 0.50944 0.0
C434 C 0.46394 0.06976 0.53856 0.0
C435 C 0.54632 0.03691 0.54815 0.0
O436 O 0.55294 1.00582 0.51463 0.0
O437 O 0.52327 1.0042 0.50748 0.0
O438 O 0.58942 0.03694 0.50009 0.0
O439 O 0.58713 0.02899 0.52786 0.0
O440 O 0.56048 0.04485 0.48431 0.0
O441 O 0.5404 0.02658 0.49479 0.0
O442 O 0.53754 0.06598 0.51489 0.0
O443 O 0.56717 0.06758 0.52248 0.0
O444 O 0.50072 0.03469 0.52872 0.0
O445 O 0.50365 0.04265 0.50101 0.0
O446 O 0.52994 0.02818 0.546 0.0
O447 O 0.55005 0.04527 0.53468 0.0
H448 H 0.61601 0.02614 0.48472 0.0
H449 H 0.60027 1.00057 0.53261 0.0
H450 H 0.62009 0.97926 0.52743 0.0
H451 H 0.63555 1.00446 0.47921 0.0
H452 H 0.47702 0.04824 0.54575 0.0
H453 H 0.48743 0.06835 0.49363 0.0
H454 H 0.46751 0.08977 0.49895 0.0
H455 H 0.45702 0.06968 0.55085 0.0
Gd456 Gd 0.27912 0.29204 0.76198 0.0
Gd457 Gd 0.31618 0.28026 0.76477 0.0
C458 C 0.30209 0.2957 0.80279 0.0
C459 C 0.24643 0.29043 0.76694 0.0
C460 C 0.23497 0.29427 0.7819 0.0
C461 C 0.22564 0.30873 0.78139 0.0
C462 C 0.23162 0.28228 0.79549 0.0
C463 C 0.20903 0.29826 0.80666 0.0
C464 C 0.21889 0.28426 0.80767 0.0
C465 C 0.21294 0.31074 0.79359 0.0
C466 C 0.30626 0.32456 0.76267 0.0
C467 C 0.29394 0.27813 0.724 0.0
C468 C 0.34866 0.28016 0.76008 0.0
C469 C 0.36021 0.27857 0.74478 0.0
C470 C 0.36612 0.2617 0.73998 0.0
C471 C 0.36681 0.29429 0.73608 0.0
C472 C 0.38587 0.2768 0.71937 0.0
C473 C 0.37944 0.29341 0.72361 0.0
C474 C 0.37868 0.26079 0.72737 0.0
C475 C 0.28916 0.24775 0.76455 0.0
O476 O 0.2873 0.29556 0.79267 0.0
O477 O 0.31579 0.29104 0.79545 0.0
O478 O 0.25632 0.30486 0.7612 0.0
O479 O 0.2541 0.27622 0.76763 0.0
O480 O 0.28961 0.32415 0.76181 0.0
O481 O 0.30725 0.30718 0.76318 0.0
O482 O 0.30891 0.2792 0.73422 0.0
O483 O 0.27966 0.28096 0.73138 0.0
O484 O 0.33701 0.26494 0.76169 0.0
O485 O 0.34284 0.29573 0.76359 0.0
O486 O 0.30586 0.24857 0.7661 0.0
O487 O 0.28798 0.26502 0.76361 0.0
H488 H 0.22778 0.31819 0.77111 0.0
H489 H 0.2384 0.27086 0.79633 0.0
H490 H 0.21628 0.27421 0.81733 0.0
H491 H 0.20597 0.32196 0.79251 0.0
H492 H 0.36146 0.24935 0.74647 0.0
H493 H 0.36262 0.30752 0.73931 0.0
H494 H 0.38446 0.30595 0.71752 0.0
H495 H 0.38335 0.2478 0.72458 0.0
Gd496 Gd 0.04347 0.0563 0.51892 0.0
Gd497 Gd 0.05074 0.01561 0.50314 0.0
C498 C 0.03442 0.03871 0.47285 0.0
C499 C 0.04552 0.09247 0.52399 0.0
C500 C 0.04519 0.106 0.51073 0.0
C501 C 0.03492 0.11952 0.51335 0.0
C502 C 0.05442 0.10505 0.49501 0.0
C503 C 0.04461 0.13235 0.48588 0.0
C504 C 0.0542 0.11816 0.48275 0.0
C505 C 0.0346 0.13261 0.50101 0.0
C506 C 0.01431 0.02755 0.51887 0.0
C507 C 0.06078 0.03359 0.54901 0.0
C508 C 0.04714 0.97924 0.49967 0.0
C509 C 0.04939 0.96639 0.51331 0.0
C510 C 0.06121 0.95452 0.51075 0.0
C511 C 0.03981 0.96571 0.52885 0.0
C512 C 0.05284 0.9405 0.53801 0.0
C513 C 0.04152 0.95283 0.54108 0.0
C514 C 0.06285 0.94157 0.52295 0.0
C515 C 0.08011 0.04393 0.50281 0.0
O516 O 0.0372 0.05351 0.48684 0.0
O517 O 0.03784 0.022 0.47575 0.0
O518 O 0.03084 0.07998 0.52353 0.0
O519 O 0.05933 0.08512 0.52538 0.0
O520 O 0.01519 0.04549 0.52458 0.0
O521 O 0.02924 0.02647 0.51415 0.0
O522 O 0.05964 0.0194 0.53479 0.0
O523 O 0.05546 0.04948 0.54657 0.0
O524 O 0.06141 0.99062 0.49642 0.0
O525 O 0.03395 0.98755 0.5009 0.0
O526 O 0.07862 0.02591 0.49664 0.0
O527 O 0.06539 0.04565 0.508 0.0
H528 H 0.02734 0.12014 0.52513 0.0
H529 H 0.06191 0.09428 0.49224 0.0
H530 H 0.0617 0.11735 0.47093 0.0
H531 H 0.02706 0.14335 0.50373 0.0
H532 H 0.06891 0.95497 0.49906 0.0
H533 H 0.03077 0.97484 0.53138 0.0
H534 H 0.0335 0.95197 0.55249 0.0
H535 H 0.07165 0.9321 0.52042 0.0
Gd536 Gd 0.31351 0.80294 0.76046 0.0
Gd537 Gd 0.28165 0.77368 0.76243 0.0
C538 C 0.3175 0.75745 0.76428 0.0
C539 C 0.34416 0.82474 0.76898 0.0
C540 C 0.36149 0.82081 0.77318 0.0
C541 C 0.36963 0.81172 0.75918 0.0
C542 C 0.3695 0.82511 0.79178 0.0
C543 C 0.39334 0.81093 0.7825 0.0
C544 C 0.38527 0.82024 0.7964 0.0
C545 C 0.38545 0.80682 0.76382 0.0
C546 C 0.29709 0.78518 0.72699 0.0
C547 C 0.27741 0.81902 0.75851 0.0
C548 C 0.25054 0.75301 0.75558 0.0
C549 C 0.23399 0.7585 0.751 0.0
C550 C 0.22055 0.75502 0.7624 0.0
C551 C 0.23178 0.76798 0.73565 0.0
C552 C 0.20223 0.76845 0.74194 0.0
C553 C 0.21599 0.77283 0.73113 0.0
C554 C 0.20473 0.76004 0.75793 0.0
C555 C 0.29812 0.79268 0.79538 0.0
O556 O 0.32524 0.7761 0.76565 0.0
O557 O 0.30003 0.75257 0.7617 0.0
O558 O 0.33668 0.81937 0.75164 0.0
O559 O 0.33338 0.82098 0.78146 0.0
O560 O 0.30534 0.80298 0.73011 0.0
O561 O 0.2994 0.77747 0.74118 0.0
O562 O 0.26977 0.80053 0.75818 0.0
O563 O 0.29487 0.82388 0.76001 0.0
O564 O 0.25821 0.75937 0.77272 0.0
O565 O 0.26139 0.75436 0.74285 0.0
O566 O 0.29162 0.77438 0.79275 0.0
O567 O 0.29515 0.7995 0.78085 0.0
H568 H 0.3637 0.80811 0.74471 0.0
H569 H 0.36345 0.83205 0.8028 0.0
H570 H 0.39124 0.82398 0.81086 0.0
H571 H 0.39137 0.79959 0.75286 0.0
H572 H 0.22217 0.74812 0.77453 0.0
H573 H 0.24209 0.77141 0.7269 0.0
H574 H 0.21434 0.77951 0.71884 0.0
H575 H 0.19419 0.75649 0.7664 0.0
Gd576 Gd 0.54954 0.03712 0.03066 0.0
Gd577 Gd 0.54242 0.0418 0.99096 0.0
C578 C 0.51027 0.02929 0.01008 0.0
C579 C 0.5476 0.03478 0.06519 0.0
C580 C 0.53349 0.02325 0.07326 0.0
C581 C 0.53637 1.00732 0.08084 0.0
C582 C 0.51676 0.02718 0.07229 0.0
C583 C 0.50698 1.00159 0.08949 0.0
C584 C 0.50353 0.01626 0.08015 0.0
C585 C 0.52314 0.99647 0.08884 0.0
C586 C 0.55006 1.00627 0.00594 0.0
C587 C 0.58164 0.05014 0.01146 0.0
C588 C 0.54329 0.04579 0.95671 0.0
C589 C 0.55711 0.05774 0.94879 0.0
C590 C 0.5529 0.07144 0.93855 0.0
C591 C 0.57463 0.05643 0.95221 0.0
C592 C 0.58268 0.07916 0.93154 0.0
C593 C 0.5874 0.06718 0.9436 0.0
C594 C 0.5657 0.0822 0.92998 0.0
C595 C 0.54123 0.07211 0.01613 0.0
O596 O 0.52091 0.03555 0.02576 0.0
O597 O 0.51611 0.02607 0.9938 0.0
O598 O 0.5565 0.02497 0.05491 0.0
O599 O 0.54389 0.04912 0.05782 0.0
O600 O 0.56069 0.01194 0.02121 0.0
O601 O 0.53914 0.01649 0.00455 0.0
O602 O 0.57122 0.04426 0.99563 0.0
O603 O 0.57591 0.05255 0.02784 0.0
O604 O 0.53491 0.05531 0.96792 0.0
O605 O 0.54707 0.03094 0.96297 0.0
O606 O 0.53038 0.06591 1.00107 0.0
O607 O 0.55262 0.0624 0.01706 0.0
H608 H 0.54902 1.00365 0.08114 0.0
H609 H 0.51406 0.03913 0.06616 0.0
H610 H 0.49111 0.0204 0.08035 0.0
H611 H 0.52596 0.98503 0.09582 0.0
H612 H 0.53955 0.07308 0.93639 0.0
H613 H 0.57834 0.04641 0.96061 0.0
H614 H 0.60047 0.06455 0.94464 0.0
H615 H 0.5619 0.09123 0.92043 0.0
Gd616 Gd 0.30157 0.30737 0.27026 0.0
Gd617 Gd 0.28916 0.26167 0.25419 0.0
C618 C 0.26111 0.28523 0.26718 0.0
C619 C 0.3058 0.34336 0.27285 0.0
C620 C 0.29343 0.35537 0.27706 0.0
C621 C 0.29628 0.36807 0.2941 0.0
C622 C 0.27852 0.35401 0.26433 0.0
C623 C 0.27094 0.3796 0.28448 0.0
C624 C 0.26737 0.36616 0.26802 0.0
C625 C 0.28506 0.38022 0.29778 0.0
C626 C 0.30014 0.286 0.2987 0.0
C627 C 0.32973 0.28407 0.25673 0.0
C628 C 0.28405 0.22554 0.25222 0.0
C629 C 0.29486 0.21207 0.24651 0.0
C630 C 0.29163 0.20119 0.2284 0.0
C631 C 0.30878 0.21028 0.25913 0.0
C632 C 0.31583 0.18688 0.2358 0.0
C633 C 0.31917 0.19777 0.25378 0.0
C634 C 0.30205 0.18852 0.2231 0.0
C635 C 0.29001 0.28337 0.22594 0.0
O636 O 0.27242 0.30162 0.26776 0.0
O637 O 0.26481 0.26827 0.26396 0.0
O638 O 0.31112 0.33543 0.28676 0.0
O639 O 0.30224 0.33188 0.25665 0.0
O640 O 0.30408 0.30449 0.30131 0.0
O641 O 0.29739 0.2805 0.28115 0.0
O642 O 0.3182 0.26757 0.25462 0.0
O643 O 0.32638 0.30103 0.26159 0.0
O644 O 0.27742 0.23338 0.23892 0.0
O645 O 0.29019 0.23756 0.26777 0.0
O646 O 0.28629 0.26484 0.22305 0.0
O647 O 0.29289 0.28854 0.24351 0.0
H648 H 0.30752 0.36907 0.30424 0.0
H649 H 0.27576 0.34409 0.25123 0.0
H650 H 0.25665 0.36595 0.25748 0.0
H651 H 0.28802 0.39088 0.31037 0.0
H652 H 0.28099 0.20233 0.21844 0.0
H653 H 0.31159 0.21837 0.27322 0.0
H654 H 0.32952 0.19615 0.26389 0.0
H655 H 0.29925 0.17983 0.20929 0.0
Gd656 Gd 0.54382 0.5562 0.01859 0.0
Gd657 Gd 0.55104 0.51543 0.00316 0.0
C658 C 0.53444 0.53809 0.97262 0.0
C659 C 0.54651 0.59244 0.02316 0.0
C660 C 0.54586 0.60585 0.00977 0.0
C661 C 0.53181 0.6149 0.00876 0.0
C662 C 0.55864 0.60922 0.99751 0.0
C663 C 0.54371 0.6312 0.98405 0.0
C664 C 0.55763 0.62186 0.98487 0.0
C665 C 0.53067 0.62734 0.99596 0.0
C666 C 0.51468 0.52797 0.01997 0.0
C667 C 0.56061 0.53345 0.04896 0.0
C668 C 0.54885 0.47926 0.99893 0.0
C669 C 0.54933 0.46604 0.01257 0.0
C670 C 0.56315 0.45664 0.01381 0.0
C671 C 0.53632 0.46292 0.02463 0.0
C672 C 0.55013 0.43995 0.03768 0.0
C673 C 0.53672 0.44996 0.03703 0.0
C674 C 0.56359 0.44373 0.02632 0.0
C675 C 0.57998 0.54432 1.00258 0.0
O676 O 0.53714 0.55306 0.98644 0.0
O677 O 0.53794 0.52149 0.97574 0.0
O678 O 0.53178 0.58024 0.02345 0.0
O679 O 0.56019 0.58482 0.02422 0.0
O680 O 0.51634 0.546 0.02605 0.0
O681 O 0.52919 0.52615 0.0143 0.0
O682 O 0.55846 0.51871 0.03507 0.0
O683 O 0.55651 0.54984 0.04609 0.0
O684 O 0.56351 0.49158 0.99866 0.0
O685 O 0.5351 0.48667 0.99746 0.0
O686 O 0.57918 0.52639 0.99683 0.0
O687 O 0.56513 0.54527 0.0075 0.0
H688 H 0.52166 0.61232 0.01787 0.0
H689 H 0.56953 0.60228 0.99778 0.0
H690 H 0.56806 0.62469 0.97614 0.0
H691 H 0.51958 0.63397 0.99547 0.0
H692 H 0.57346 0.45904 0.00486 0.0
H693 H 0.5257 0.47025 0.02436 0.0
H694 H 0.52635 0.44751 0.04592 0.0
H695 H 0.57405 0.43616 0.02653 0.0
Gd696 Gd 0.81351 0.30292 0.26076 0.0
Gd697 Gd 0.78131 0.27334 0.26268 0.0
C698 C 0.81747 0.25744 0.2648 0.0
C699 C 0.84441 0.32427 0.26905 0.0
C700 C 0.86173 0.32022 0.27313 0.0
C701 C 0.87027 0.31204 0.25895 0.0
C702 C 0.86936 0.32358 0.29183 0.0
C703 C 0.89362 0.31022 0.28235 0.0
C704 C 0.88513 0.3187 0.29639 0.0
C705 C 0.88609 0.30704 0.26354 0.0
C706 C 0.79744 0.28372 0.22786 0.0
C707 C 0.77737 0.3189 0.25898 0.0
C708 C 0.75061 0.25196 0.25358 0.0
C709 C 0.73348 0.2565 0.24961 0.0
C710 C 0.724 0.26188 0.26425 0.0
C711 C 0.72688 0.25636 0.23097 0.0
C712 C 0.70154 0.26664 0.24158 0.0
C713 C 0.7111 0.26143 0.227 0.0
C714 C 0.70812 0.26691 0.26025 0.0
C715 C 0.79712 0.2922 0.29575 0.0
O716 O 0.82517 0.27582 0.26457 0.0
O717 O 0.80003 0.25266 0.26378 0.0
O718 O 0.83676 0.31922 0.25174 0.0
O719 O 0.83376 0.32032 0.28156 0.0
O720 O 0.80459 0.30186 0.23023 0.0
O721 O 0.79999 0.27695 0.24255 0.0
O722 O 0.76965 0.30035 0.25831 0.0
O723 O 0.79485 0.32377 0.26079 0.0
O724 O 0.75801 0.25662 0.27101 0.0
O725 O 0.76157 0.25587 0.24128 0.0
O726 O 0.78943 0.2742 0.29331 0.0
O727 O 0.79492 0.29917 0.28109 0.0
H728 H 0.86464 0.30922 0.24438 0.0
H729 H 0.86306 0.32989 0.30303 0.0
H730 H 0.89074 0.32192 0.31096 0.0
H731 H 0.89225 0.30045 0.25239 0.0
H732 H 0.72881 0.26223 0.27878 0.0
H733 H 0.73389 0.25228 0.2194 0.0
H734 H 0.70612 0.26072 0.21244 0.0
H735 H 0.70095 0.27092 0.2717 0.0
Gd736 Gd 0.04693 0.53656 0.53077 0.0
Gd737 Gd 0.04117 0.5381 0.49047 0.0
C738 C 1.00834 0.52449 0.50803 0.0
C739 C 0.04595 0.53872 0.56619 0.0
C740 C 0.03618 0.5268 0.57806 0.0
C741 C 0.03774 0.50788 0.57841 0.0
C742 C 0.02508 0.53463 0.5893 0.0
C743 C 0.01829 0.5055 0.60226 0.0
C744 C 0.01612 0.524 0.60126 0.0
C745 C 0.0288 0.49723 0.59059 0.0
C746 C 0.04941 0.50454 0.50843 0.0
C747 C 0.07966 0.54972 0.51257 0.0
C748 C 0.04472 0.53956 0.45615 0.0
C749 C 0.05864 0.55239 0.44898 0.0
C750 C 0.05569 0.56951 0.44397 0.0
C751 C 0.07528 0.54835 0.44826 0.0
C752 C 0.08465 0.57658 0.43446 0.0
C753 C 0.08824 0.56042 0.44106 0.0
C754 C 0.06869 0.58162 0.4369 0.0
C755 C 0.03876 0.56986 0.51328 0.0
O756 O 0.0179 0.53211 0.52416 0.0
O757 O 0.01509 0.52115 0.49235 0.0
O758 O 0.05766 0.53175 0.55752 0.0
O759 O 0.0367 0.54724 0.55577 0.0
O760 O 0.05905 0.51134 0.52426 0.0
O761 O 0.03818 0.51407 0.50578 0.0
O762 O 0.07 0.5409 0.49687 0.0
O763 O 0.07256 0.55405 0.52781 0.0
O764 O 0.03383 0.54789 0.46489 0.0
O765 O 0.0495 0.52639 0.46461 0.0
O766 O 0.02788 0.56217 0.4985 0.0
O767 O 0.05025 0.56054 0.51534 0.0
H768 H 0.04603 0.50143 0.56956 0.0
H769 H 0.02355 0.54906 0.58902 0.0
H770 H 1.00779 0.53039 0.61014 0.0
H771 H 0.03037 0.48288 0.59123 0.0
H772 H 0.04314 0.57324 0.44488 0.0
H773 H 0.07813 0.53553 0.45255 0.0
H774 H 0.10044 0.55617 0.43906 0.0
H775 H 0.06576 0.59405 0.43179 0.0
Gd776 Gd 0.77872 0.79279 0.2621 0.0
Gd777 Gd 0.81572 0.78107 0.26433 0.0
C778 C 0.80198 0.7966 0.30256 0.0
C779 C 0.74597 0.79147 0.26658 0.0
C780 C 0.73415 0.79414 0.28143 0.0
C781 C 0.72524 0.80905 0.28216 0.0
C782 C 0.73014 0.78078 0.29362 0.0
C783 C 0.70761 0.79631 0.30574 0.0
C784 C 0.71714 0.78189 0.30559 0.0
C785 C 0.71222 0.81017 0.29416 0.0
C786 C 0.80557 0.82535 0.26225 0.0
C787 C 0.79219 0.7765 0.22387 0.0
C788 C 0.84837 0.7829 0.25913 0.0
C789 C 0.85974 0.77928 0.24405 0.0
C790 C 0.86807 0.76387 0.2434 0.0
C791 C 0.86407 0.79234 0.23159 0.0
C792 C 0.88548 0.77544 0.2193 0.0
C793 C 0.87676 0.79042 0.21938 0.0
C794 C 0.8808 0.762 0.2312 0.0
C795 C 0.7891 0.74853 0.26478 0.0
O796 O 0.78699 0.79646 0.29283 0.0
O797 O 0.81556 0.79196 0.29497 0.0
O798 O 0.75654 0.80651 0.26271 0.0
O799 O 0.75307 0.77671 0.26577 0.0
O800 O 0.78887 0.82467 0.26126 0.0
O801 O 0.80679 0.80804 0.26287 0.0
O802 O 0.80698 0.77612 0.23366 0.0
O803 O 0.77894 0.78205 0.23137 0.0
O804 O 0.83853 0.76833 0.2647 0.0
O805 O 0.84068 0.79714 0.25874 0.0
O806 O 0.80585 0.74942 0.26591 0.0
O807 O 0.78764 0.76573 0.26379 0.0
H808 H 0.72789 0.81952 0.27292 0.0
H809 H 0.7367 0.76909 0.29358 0.0
H810 H 0.71442 0.77121 0.3146 0.0
H811 H 0.70524 0.82146 0.2937 0.0
H812 H 0.86523 0.75365 0.25286 0.0
H813 H 0.85812 0.80449 0.23171 0.0
H814 H 0.88023 0.80106 0.21047 0.0
H815 H 0.88742 0.75039 0.2315 0.0
Gd816 Gd 0.80696 0.28867 0.75116 0.0
Gd817 Gd 0.79013 0.29243 0.78184 0.0
C818 C 0.80034 0.32868 0.76676 0.0
C819 C 0.82504 0.29185 0.7235 0.0
C820 C 0.82557 0.30244 0.70819 0.0
C821 C 0.83501 0.29778 0.69345 0.0
C822 C 0.81752 0.3179 0.70879 0.0
C823 C 0.82875 0.32442 0.68002 0.0
C824 C 0.8192 0.32896 0.69477 0.0
C825 C 0.83664 0.30882 0.67933 0.0
C826 C 0.82735 0.2847 0.78191 0.0
C827 C 0.78694 0.25187 0.75949 0.0
C828 C 0.78282 0.2912 0.81544 0.0
C829 C 0.77196 0.2762 0.82347 0.0
C830 C 0.75834 0.28028 0.83334 0.0
C831 C 0.77548 0.25789 0.82187 0.0
C832 C 0.75392 0.24914 0.84267 0.0
C833 C 0.76654 0.24447 0.83148 0.0
C834 C 0.7493 0.26677 0.8429 0.0
C835 C 0.76322 0.28949 0.75381 0.0
O836 O 0.79959 0.3166 0.75136 0.0
O837 O 0.80011 0.32281 0.78284 0.0
O838 O 0.82978 0.30241 0.74001 0.0
O839 O 0.81095 0.27845 0.72276 0.0
O840 O 0.82281 0.27232 0.76679 0.0
O841 O 0.81905 0.29787 0.78101 0.0
O842 O 0.7899 0.26182 0.77632 0.0
O843 O 0.79017 0.25992 0.74492 0.0
O844 O 0.77464 0.29969 0.804 0.0
O845 O 0.79708 0.28726 0.80963 0.0
O846 O 0.76186 0.2897 0.77141 0.0
O847 O 0.77892 0.28947 0.75059 0.0
H848 H 0.8413 0.28585 0.69306 0.0
H849 H 0.81028 0.32165 0.72021 0.0
H850 H 0.81323 0.34115 0.69554 0.0
H851 H 0.84395 0.30518 0.66787 0.0
H852 H 0.75523 0.29419 0.83437 0.0
H853 H 0.7857 0.25418 0.81399 0.0
H854 H 0.7705 0.23104 0.83134 0.0
H855 H 0.73953 0.2705 0.85146 0.0
Gd856 Gd 0.80346 0.80733 0.77032 0.0
Gd857 Gd 0.78736 0.76238 0.75327 0.0
C858 C 0.76196 0.78818 0.76849 0.0
C859 C 0.81015 0.84367 0.77276 0.0
C860 C 0.79886 0.8574 0.77397 0.0
C861 C 0.79408 0.86448 0.79136 0.0
C862 C 0.79226 0.86299 0.75757 0.0
C863 C 0.77633 0.88257 0.7759 0.0
C864 C 0.78115 0.87552 0.75853 0.0
C865 C 0.78279 0.87684 0.79229 0.0
C866 C 0.80269 0.78547 0.79832 0.0
C867 C 0.82902 0.78153 0.7559 0.0
C868 C 0.78166 0.72597 0.74831 0.0
C869 C 0.79402 0.7137 0.74467 0.0
C870 C 0.79193 0.70147 0.72743 0.0
C871 C 0.80862 0.71502 0.7578 0.0
C872 C 0.81816 0.69109 0.737 0.0
C873 C 0.82052 0.70375 0.75403 0.0
C874 C 0.80394 0.69026 0.72359 0.0
C875 C 0.78892 0.78508 0.72591 0.0
O876 O 0.77464 0.80371 0.77011 0.0
O877 O 0.76358 0.77056 0.76302 0.0
O878 O 0.81188 0.83519 0.78736 0.0
O879 O 0.80822 0.83213 0.75672 0.0
O880 O 0.80908 0.80374 0.80068 0.0
O881 O 0.79783 0.77997 0.78086 0.0
O882 O 0.81639 0.76598 0.75446 0.0
O883 O 0.82702 0.79907 0.76061 0.0
O884 O 0.77819 0.73526 0.73478 0.0
O885 O 0.78399 0.7364 0.76499 0.0
O886 O 0.78347 0.7667 0.72258 0.0
O887 O 0.79287 0.78965 0.74343 0.0
H888 H 0.7989 0.86036 0.80426 0.0
H889 H 0.7957 0.85773 0.74397 0.0
H890 H 0.77661 0.8799 0.74567 0.0
H891 H 0.77903 0.88176 0.80584 0.0
H892 H 0.78099 0.70055 0.71695 0.0
H893 H 0.81082 0.72462 0.77108 0.0
H894 H 0.8312 0.70446 0.76477 0.0
H895 H 0.80197 0.68072 0.71029 0.0
Gd896 Gd 0.53068 0.52865 0.50199 0.0
Gd897 Gd 0.56496 0.546 0.52433 0.0
C898 C 0.54643 0.57452 0.50468 0.0
C899 C 0.49711 0.52218 0.49403 0.0
C900 C 0.48459 0.53441 0.49179 0.0
C901 C 0.47183 0.52947 0.47617 0.0
C902 C 0.485 0.55072 0.50503 0.0
C903 C 0.45873 0.55553 0.48801 0.0
C904 C 0.47212 0.56119 0.50316 0.0
C905 C 0.45905 0.53995 0.47425 0.0
C906 C 0.55431 0.5269 0.47553 0.0
C907 C 0.54941 0.49996 0.52141 0.0
C908 C 0.59843 0.55401 0.53338 0.0
C909 C 0.61166 0.54255 0.5347 0.0
C910 C 0.62216 0.54463 0.55181 0.0
C911 C 0.6137 0.52927 0.51942 0.0
C912 C 0.63743 0.52131 0.53815 0.0
C913 C 0.62656 0.51883 0.52111 0.0
C914 C 0.63484 0.53403 0.55357 0.0
C915 C 0.54101 0.54819 0.55031 0.0
O916 O 0.53351 0.55954 0.49848 0.0
O917 O 0.56041 0.57327 0.51541 0.0
O918 O 0.50771 0.52136 0.48124 0.0
O919 O 0.50481 0.52314 0.51095 0.0
O920 O 0.53757 0.51982 0.47277 0.0
O921 O 0.55817 0.53385 0.49331 0.0
O922 O 0.5625 0.51492 0.52724 0.0
O923 O 0.5352 0.50134 0.51107 0.0
O924 O 0.58728 0.55228 0.54565 0.0
O925 O 0.59113 0.55456 0.51663 0.0
O926 O 0.55763 0.55571 0.55339 0.0
O927 O 0.53762 0.54118 0.53262 0.0
H928 H 0.47148 0.51718 0.46566 0.0
H929 H 0.49494 0.55506 0.51707 0.0
H930 H 0.47215 0.5731 0.51401 0.0
H931 H 0.44907 0.5355 0.46226 0.0
H932 H 0.62058 0.55454 0.56384 0.0
H933 H 0.60555 0.52713 0.50613 0.0
H934 H 0.62831 0.50928 0.50887 0.0
H935 H 0.64272 0.53594 0.567 0.0
Gd936 Gd 0.06494 0.53633 0.0127 0.0
Gd937 Gd 0.02489 0.53539 0.01672 0.0
C938 C 0.03557 0.49598 0.00806 0.0
C939 C 0.09633 0.53016 0.0155 0.0
C940 C 0.10635 0.5152 0.01038 0.0
C941 C 0.1162 0.5159 0.99506 0.0
C942 C 0.10777 0.50139 0.02187 0.0
C943 C 0.12959 0.49034 0.0037 0.0
C944 C 0.11918 0.48914 0.01856 0.0
C945 C 0.12761 0.50363 0.99175 0.0
C946 C 0.04514 0.53755 0.98167 0.0
C947 C 0.05333 0.57563 0.02016 0.0
C948 C 0.99348 0.54107 0.01794 0.0
C949 C 0.98368 0.55639 0.02126 0.0
C950 C 0.971 0.55473 0.03378 0.0
C951 C 0.98587 0.57189 0.01144 0.0
C952 C 0.96158 0.58272 0.02529 0.0
C953 C 0.97504 0.58494 0.01351 0.0
C954 C 0.96007 0.56764 0.03575 0.0
C955 C 0.04581 0.5343 0.04716 0.0
O956 O 0.05207 0.50546 0.01281 0.0
O957 O 0.02245 0.50455 0.00576 0.0
O958 O 0.09004 0.5379 1.00195 0.0
O959 O 0.08587 0.52787 0.02857 0.0
O960 O 0.06183 0.54481 0.98424 0.0
O961 O 0.04031 0.52805 0.99415 0.0
O962 O 0.03709 0.56585 0.01443 0.0
O963 O 0.06644 0.56721 0.02348 0.0
O964 O 1.00305 0.53817 0.03244 0.0
O965 O 1.00072 0.53905 1.00237 0.0
O966 O 0.02985 0.52434 0.04381 0.0
O967 O 0.04958 0.54432 0.03487 0.0
H968 H 0.11554 0.52637 0.98594 0.0
H969 H 0.10054 0.50048 0.03389 0.0
H970 H 0.12041 0.47931 0.02824 0.0
H971 H 0.13515 0.50484 0.97999 0.0
H972 H 0.96909 0.54297 0.04161 0.0
H973 H 0.99571 0.57374 1.00187 0.0
H974 H 0.97712 0.59665 0.00565 0.0
H975 H 0.94994 0.56519 0.04488 0.0
H976 H 0.99278 0.21231 0.94127 0.0
H977 H 0.99907 0.18518 0.95465 0.0
H978 H 0.05401 0.20513 0.95025 0.0
H979 H 0.04738 0.23158 0.93545 0.0
H980 H 0.04842 0.17014 0.94359 0.0
H981 H 0.03168 0.20944 0.99481 0.0
H982 H 0.01279 0.22757 0.01146 0.0
H983 H 0.9717 0.1769 0.0041 0.0
H984 H 0.99029 0.15854 0.98727 0.0
H985 H 0.07228 0.10563 1.00236 0.0
H986 H 0.0687 0.13498 0.99088 0.0
H987 H 0.01264 0.11497 0.98528 0.0
H988 H 0.0161 0.0859 0.99679 0.0
H989 H 0.02075 0.15152 0.9991 0.0
H990 H 0.03697 0.11303 0.94678 0.0
H991 H 0.05555 0.09491 0.9296 0.0
H992 H 0.09776 0.14471 0.93944 0.0
H993 H 0.07948 0.16302 0.95689 0.0
C994 C 1.00616 0.21066 0.94278 0.0
C995 C 0.01952 0.22392 0.93697 0.0
C996 C 0.00985 0.1953 0.95087 0.0
C997 C 0.02716 0.19318 0.95422 0.0
C998 C 0.04052 0.20627 0.948 0.0
C999 C 0.03673 0.22136 0.93937 0.0
C1000 C 0.03123 0.17713 0.9637 0.0
C1001 C 0.0426 0.16645 0.95598 0.0
C1002 C 0.02348 0.17164 0.97968 0.0
C1003 C 0.0123 0.1827 0.98967 0.0
C1004 C 0.01857 0.20222 0.99665 0.0
C1005 C 1.00793 0.21252 0.00614 0.0
C1006 C 0.99104 0.20341 0.0088 0.0
C1007 C 0.98477 0.18395 1.00202 0.0
C1008 C 0.99536 0.17359 0.99253 0.0
C1009 C 0.05919 0.10757 0.99886 0.0
C1010 C 0.0445 0.09326 1.00051 0.0
C1011 C 0.05715 0.12434 0.99213 0.0
C1012 C 0.04036 0.12725 0.9869 0.0
C1013 C 0.02574 0.11322 0.98911 0.0
C1014 C 0.02776 0.09648 0.9957 0.0
C1015 C 0.03783 0.14463 0.97889 0.0
C1016 C 0.02673 0.15549 0.98687 0.0
C1017 C 0.04589 0.15037 0.96325 0.0
C1018 C 0.05699 0.13926 0.95332 0.0
C1019 C 0.05029 0.12001 0.94546 0.0
C1020 C 0.06074 0.10974 0.93563 0.0
C1021 C 0.07784 0.11863 0.93348 0.0
C1022 C 0.08453 0.13782 0.94116 0.0
C1023 C 0.07415 0.14815 0.95102 0.0
H1024 H 0.0859 0.11066 0.92582 0.0
H1025 H 0.98282 0.21141 0.01614 0.0
H1026 H 0.1143 0.78069 0.14361 0.0
H1027 H 0.13928 0.77502 0.16275 0.0
H1028 H 0.1671 0.833 0.16324 0.0
H1029 H 0.14262 0.83798 0.14276 0.0
H1030 H 0.18951 0.81494 0.16018 0.0
H1031 H 0.14609 0.81037 0.20309 0.0
H1032 H 0.11778 0.79794 0.21408 0.0
H1033 H 0.12823 0.7419 0.20863 0.0
H1034 H 0.15644 0.75392 0.19724 0.0
H1035 H 0.25414 0.82362 0.23758 0.0
H1036 H 0.228 0.8247 0.2174 0.0
H1037 H 0.21354 0.76328 0.20664 0.0
H1038 H 0.24016 0.76218 0.22687 0.0
H1039 H 0.18451 0.78025 0.21433 0.0
H1040 H 0.22893 0.78622 0.1733 0.0
H1041 H 0.25789 0.79979 0.16439 0.0
H1042 H 0.24555 0.85491 0.16831 0.0
H1043 H 0.21666 0.84174 0.17769 0.0
C1044 C 0.12562 0.79235 0.14815 0.0
C1045 C 0.12618 0.80999 0.142 0.0
C1046 C 0.14004 0.78912 0.15924 0.0
C1047 C 0.15538 0.80364 0.16515 0.0
C1048 C 0.15571 0.82137 0.15914 0.0
C1049 C 0.14152 0.82438 0.14755 0.0
C1050 C 0.1713 0.80037 0.1768 0.0
C1051 C 0.1882 0.80758 0.17217 0.0
C1052 C 0.17019 0.79021 0.19229 0.0
C1053 C 0.15327 0.783 0.19913 0.0
C1054 C 0.14228 0.79537 0.20411 0.0
C1055 C 0.12626 0.7884 0.2104 0.0
C1056 C 0.12119 0.76913 0.212 0.0
C1057 C 0.13215 0.7568 0.20733 0.0
C1058 C 0.14815 0.76369 0.20094 0.0
C1059 C 0.24557 0.81028 0.23071 0.0
C1060 C 0.24953 0.79284 0.23368 0.0
C1061 C 0.23048 0.81092 0.21917 0.0
C1062 C 0.21856 0.7941 0.21028 0.0
C1063 C 0.22241 0.77653 0.21323 0.0
C1064 C 0.23779 0.77589 0.22463 0.0
C1065 C 0.2024 0.79522 0.19783 0.0
C1066 C 0.1856 0.78759 0.20231 0.0
C1067 C 0.20353 0.80518 0.18235 0.0
C1068 C 0.2207 0.81303 0.1763 0.0
C1069 C 0.23244 0.80126 0.17237 0.0
C1070 C 0.24884 0.80888 0.16726 0.0
C1071 C 0.25357 0.82821 0.16581 0.0
C1072 C 0.24188 0.83995 0.16945 0.0
C1073 C 0.22549 0.83241 0.17467 0.0
H1074 H 0.26628 0.83408 0.16184 0.0
H1075 H 0.10878 0.76376 0.21691 0.0
H1076 H 0.50003 0.82847 0.41616 0.0
H1077 H 0.50328 0.8606 0.43381 0.0
H1078 H 0.54834 0.85357 0.46821 0.0
H1079 H 0.54418 0.82089 0.45137 0.0
H1080 H 0.53237 0.87257 0.48957 0.0
H1081 H 0.55189 0.88053 0.43097 0.0
H1082 H 0.55151 0.87586 0.39655 0.0
H1083 H 0.50585 0.89913 0.39125 0.0
H1084 H 0.50582 0.9037 0.42563 0.0
H1085 H 0.55948 0.9741 0.51806 0.0
H1086 H 0.55758 0.94096 0.50472 0.0
H1087 H 0.50607 0.9374 0.47678 0.0
H1088 H 0.50803 0.97087 0.48971 0.0
H1089 H 0.52874 0.92476 0.45311 0.0
H1090 H 0.51136 0.9153 0.51512 0.0
H1091 H 0.51755 0.92419 0.54957 0.0
H1092 H 0.56668 0.90757 0.54812 0.0
H1093 H 0.56082 0.89874 0.51362 0.0
C1094 C 0.51051 0.83384 0.42758 0.0
C1095 C 0.52187 0.82243 0.43246 0.0
C1096 C 0.51248 0.85221 0.4376 0.0
C1097 C 0.52634 0.85977 0.45213 0.0
C1098 C 0.53757 0.84815 0.45712 0.0
C1099 C 0.53523 0.82955 0.44747 0.0
C1100 C 0.52919 0.87986 0.46177 0.0
C1101 C 0.53172 0.88394 0.48153 0.0
C1102 C 0.52879 0.89497 0.45148 0.0
C1103 C 0.52878 0.89233 0.43083 0.0
C1104 C 0.54171 0.88455 0.42244 0.0
C1105 C 0.54157 0.88193 0.40295 0.0
C1106 C 0.52865 0.88716 0.39172 0.0
C1107 C 0.51585 0.89507 0.39996 0.0
C1108 C 0.51591 0.8977 0.41945 0.0
C1109 C 0.54761 0.96621 0.5093 0.0
C1110 C 0.53389 0.97509 0.50491 0.0
C1111 C 0.54656 0.94725 0.50171 0.0
C1112 C 0.53168 0.93677 0.48979 0.0
C1113 C 0.51767 0.94534 0.48595 0.0
C1114 C 0.51873 0.96437 0.4935 0.0
C1115 C 0.53099 0.91708 0.48064 0.0
C1116 C 0.52921 0.91323 0.46102 0.0
C1117 C 0.53276 0.90244 0.49106 0.0
C1118 C 0.53561 0.90626 0.51185 0.0
C1119 C 0.52342 0.91342 0.52218 0.0
C1120 C 0.5269 0.91852 0.54169 0.0
C1121 C 0.54248 0.91642 0.55103 0.0
C1122 C 0.55459 0.90913 0.54087 0.0
C1123 C 0.55117 0.904 0.52135 0.0
H1124 H 0.54518 0.92043 0.56613 0.0
H1125 H 0.52856 0.88513 0.37662 0.0
H1126 H 0.53566 0.3174 0.66236 0.0
H1127 H 0.50742 0.31081 0.67443 0.0
H1128 H 0.48702 0.2667 0.62651 0.0
H1129 H 0.515 0.27482 0.61349 0.0
H1130 H 0.46152 0.27996 0.63453 0.0
H1131 H 0.50072 0.25814 0.67441 0.0
H1132 H 0.52831 0.25966 0.69405 0.0
H1133 H 0.51921 0.3065 0.73219 0.0
H1134 H 0.49166 0.30539 0.71265 0.0
H1135 H 0.39038 0.24892 0.69099 0.0
H1136 H 0.41567 0.24929 0.67311 0.0
H1137 H 0.44073 0.30481 0.70421 0.0
H1138 H 0.41571 0.30458 0.7219 0.0
H1139 H 0.46249 0.2792 0.70292 0.0
H1140 H 0.42162 0.29882 0.65935 0.0
H1141 H 0.39404 0.29381 0.63853 0.0
H1142 H 0.40566 0.24459 0.60642 0.0
H1143 H 0.43319 0.24912 0.62728 0.0
C1144 C 0.52514 0.30632 0.65439 0.0
C1145 C 0.52763 0.29651 0.6371 0.0
C1146 C 0.50894 0.30234 0.6614 0.0
C1147 C 0.49498 0.28764 0.6519 0.0
C1148 C 0.49742 0.27799 0.63436 0.0
C1149 C 0.51348 0.28256 0.62694 0.0
C1150 C 0.4781 0.28249 0.66048 0.0
C1151 C 0.46182 0.27949 0.64944 0.0
C1152 C 0.47803 0.28143 0.6799 0.0
C1153 C 0.4942 0.28172 0.69205 0.0
C1154 C 0.50462 0.26876 0.68699 0.0
C1155 C 0.52026 0.26957 0.69809 0.0
C1156 C 0.52552 0.28318 0.71434 0.0
C1157 C 0.51511 0.29595 0.7196 0.0
C1158 C 0.49946 0.29521 0.70855 0.0
C1159 C 0.40127 0.26123 0.69396 0.0
C1160 C 0.40088 0.2768 0.70785 0.0
C1161 C 0.4157 0.26146 0.68364 0.0
C1162 C 0.43017 0.27715 0.68718 0.0
C1163 C 0.42977 0.29257 0.70109 0.0
C1164 C 0.41534 0.29247 0.71116 0.0
C1165 C 0.44614 0.27759 0.67717 0.0
C1166 C 0.46225 0.2795 0.68798 0.0
C1167 C 0.4459 0.2769 0.65749 0.0
C1168 C 0.42934 0.27417 0.64503 0.0
C1169 C 0.4182 0.2868 0.64798 0.0
C1170 C 0.40259 0.28407 0.63614 0.0
C1171 C 0.39806 0.26885 0.6212 0.0
C1172 C 0.40916 0.25634 0.61803 0.0
C1173 C 0.42476 0.25898 0.62986 0.0
H1174 H 0.38598 0.26679 0.61203 0.0
H1175 H 0.53766 0.28382 0.72289 0.0
H1176 H 1.00238 0.78747 0.59723 0.0
H1177 H 0.01571 0.8145 0.58299 0.0
H1178 H 0.03814 0.84582 0.63791 0.0
H1179 H 0.02385 0.81904 0.65231 0.0
H1180 H 0.02466 0.86722 0.61938 0.0
H1181 H 0.06327 0.82629 0.60424 0.0
H1182 H 0.07025 0.79563 0.59224 0.0
H1183 H 0.04535 0.79678 0.53744 0.0
H1184 H 0.038 0.82733 0.54919 0.0
H1185 H 0.06358 0.94388 0.5754 0.0
H1186 H 0.06095 0.91806 0.59418 0.0
H1187 H 0.03784 0.87721 0.54444 0.0
H1188 H 0.04149 0.90283 0.52569 0.0
H1189 H 0.05674 0.86155 0.56365 0.0
H1190 H 0.01415 0.89898 0.57985 0.0
H1191 H 1.00273 0.92653 0.59292 0.0
H1192 H 0.03284 0.93006 0.64613 0.0
H1193 H 0.04465 0.90274 0.63327 0.0
C1194 C 0.01017 0.80014 0.60624 0.0
C1195 C 0.01206 0.80133 0.62582 0.0
C1196 C 0.01798 0.81547 0.59809 0.0
C1197 C 0.02831 0.832 0.60935 0.0
C1198 C 0.03031 0.83313 0.62896 0.0
C1199 C 0.02211 0.81793 0.63717 0.0
C1200 C 0.03584 0.84862 0.60071 0.0
C1201 C 0.0321 0.86611 0.60749 0.0
C1202 C 0.04511 0.84703 0.58491 0.0
C1203 C 0.05008 0.82906 0.57761 0.0
C1204 C 0.05927 0.81999 0.58964 0.0
C1205 C 0.06327 0.80262 0.58289 0.0
C1206 C 0.05824 0.79426 0.56409 0.0
C1207 C 0.04926 0.80329 0.55199 0.0
C1208 C 0.04521 0.82065 0.55868 0.0
C1209 C 0.05817 0.92931 0.56859 0.0
C1210 C 0.05268 0.92517 0.54923 0.0
C1211 C 0.05655 0.91461 0.57927 0.0
C1212 C 0.04885 0.8957 0.57081 0.0
C1213 C 0.04386 0.89163 0.55132 0.0
C1214 C 0.04588 0.90623 0.54061 0.0
C1215 C 0.0452 0.88014 0.5821 0.0
C1216 C 0.04968 0.86281 0.57582 0.0
C1217 C 0.0365 0.88182 0.59835 0.0
C1218 C 0.03045 0.89907 0.60553 0.0
C1219 C 0.01854 0.90585 0.59424 0.0
C1220 C 0.01194 0.92135 0.60163 0.0
C1221 C 0.01701 0.92998 0.62036 0.0
C1222 C 0.02892 0.92335 0.63164 0.0
C1223 C 0.0356 0.90791 0.6243 0.0
H1224 H 0.01166 0.94177 0.62617 0.0
H1225 H 0.06132 0.78078 0.55891 0.0
H1226 H 0.55478 0.8248 0.84197 0.0
H1227 H 0.52784 0.81767 0.82037 0.0
H1228 H 0.49748 0.80892 0.86649 0.0
H1229 H 0.52434 0.81586 0.88823 0.0
H1230 H 0.48595 0.78093 0.83487 0.0
H1231 H 0.50404 0.84966 0.85128 0.0
H1232 H 0.5248 0.88064 0.85351 0.0
H1233 H 0.5243 0.87191 0.79359 0.0
H1234 H 0.50387 0.84061 0.79105 0.0
H1235 H 0.40308 0.79676 0.81352 0.0
H1236 H 0.43238 0.79453 0.82474 0.0
H1237 H 0.45087 0.81084 0.77367 0.0
H1238 H 0.42174 0.8147 0.76304 0.0
H1239 H 0.47081 0.83172 0.80194 0.0
H1240 H 0.44852 0.76448 0.78553 0.0
H1241 H 0.42737 0.73389 0.78426 0.0
H1242 H 0.43491 0.74003 0.8444 0.0
H1243 H 0.45589 0.77077 0.84607 0.0
C1244 C 0.54237 0.82135 0.84754 0.0
C1245 C 0.54162 0.82103 0.86683 0.0
C1246 C 0.52705 0.81724 0.83517 0.0
C1247 C 0.51081 0.81277 0.84193 0.0
C1248 C 0.50999 0.81225 0.86109 0.0
C1249 C 0.5253 0.81643 0.87349 0.0
C1250 C 0.49453 0.80948 0.82925 0.0
C1251 C 0.48255 0.79196 0.82761 0.0
C1252 C 0.49053 0.82376 0.81943 0.0
C1253 C 0.50262 0.84269 0.82099 0.0
C1254 C 0.5085 0.85425 0.8386 0.0
C1255 C 0.5202 0.87187 0.83992 0.0
C1256 C 0.52592 0.87821 0.82371 0.0
C1257 C 0.51991 0.86695 0.80614 0.0
C1258 C 0.50829 0.84926 0.80475 0.0
C1259 C 0.41337 0.79981 0.80464 0.0
C1260 C 0.41023 0.80622 0.78757 0.0
C1261 C 0.43006 0.79818 0.81091 0.0
C1262 C 0.44377 0.80228 0.79991 0.0
C1263 C 0.44042 0.80755 0.78232 0.0
C1264 C 0.42377 0.80959 0.7762 0.0
C1265 C 0.46184 0.80323 0.80787 0.0
C1266 C 0.47426 0.82037 0.80866 0.0
C1267 C 0.46622 0.78859 0.81695 0.0
C1268 C 0.45383 0.76991 0.81592 0.0
C1269 C 0.44564 0.75933 0.79849 0.0
C1270 C 0.43366 0.74197 0.7977 0.0
C1271 C 0.42984 0.73502 0.81423 0.0
C1272 C 0.43793 0.74541 0.8316 0.0
C1273 C 0.4499 0.76277 0.83247 0.0
H1274 H 0.42063 0.72155 0.81359 0.0
H1275 H 0.53495 0.89188 0.82475 0.0
H1276 H 0.52563 0.21298 0.13339 0.0
H1277 H 0.53318 0.18337 0.12012 0.0
H1278 H 0.48169 0.16408 0.08906 0.0
H1279 H 0.47437 0.19434 0.1017 0.0
H1280 H 0.49875 0.1349 0.10547 0.0
H1281 H 0.5059 0.1838 0.06723 0.0
H1282 H 0.51592 0.21565 0.0589 0.0
H1283 H 0.56941 0.21222 0.07101 0.0
H1284 H 0.55968 0.18063 0.08018 0.0
H1285 H 0.50968 0.07784 0.02284 0.0
H1286 H 0.50314 0.10135 0.04694 0.0
H1287 H 0.55793 0.11928 0.06845 0.0
H1288 H 0.56461 0.09535 0.04416 0.0
H1289 H 0.54103 0.14869 0.05941 0.0
H1290 H 0.53271 0.09774 0.0953 0.0
H1291 H 0.52131 0.06438 0.09901 0.0
H1292 H 0.4687 0.07052 0.08644 0.0
H1293 H 0.47979 0.10393 0.08255 0.0
C1294 C 0.51568 0.20201 0.1244 0.0
C1295 C 0.4994 0.20555 0.11862 0.0
C1296 C 0.52004 0.18527 0.11677 0.0
C1297 C 0.508 0.17185 0.1036 0.0
C1298 C 0.49103 0.17444 0.09931 0.0
C1299 C 0.48682 0.19153 0.10656 0.0
C1300 C 0.51401 0.15659 0.09251 0.0
C1301 C 0.50796 0.13786 0.09538 0.0
C1302 C 0.52618 0.16069 0.07955 0.0
C1303 C 0.53205 0.18007 0.07492 0.0
C1304 C 0.51979 0.19004 0.06864 0.0
C1305 C 0.52542 0.20802 0.06366 0.0
C1306 C 0.54329 0.21602 0.06455 0.0
C1307 C 0.55557 0.20607 0.07047 0.0
C1308 C 0.55 0.18817 0.07564 0.0
C1309 C 0.52032 0.0867 0.0328 0.0
C1310 C 0.53765 0.08513 0.03168 0.0
C1311 C 0.51655 0.09996 0.0466 0.0
C1312 C 0.53007 0.11183 0.0594 0.0
C1313 C 0.5474 0.11004 0.05864 0.0
C1314 C 0.55117 0.09648 0.0449 0.0
C1315 C 0.52596 0.12705 0.07254 0.0
C1316 C 0.53222 0.14581 0.0699 0.0
C1317 C 0.51384 0.12297 0.08547 0.0
C1318 C 0.50707 0.10324 0.08856 0.0
C1319 C 0.51871 0.09193 0.09326 0.0
C1320 C 0.51231 0.07301 0.09532 0.0
C1321 C 0.4943 0.06527 0.09266 0.0
C1322 C 0.48264 0.0765 0.08824 0.0
C1323 C 0.48897 0.09546 0.08623 0.0
H1324 H 0.48931 0.05072 0.09451 0.0
H1325 H 0.54762 0.22988 0.06055 0.0
H1326 H 0.12375 0.32821 0.32933 0.0
H1327 H 0.14786 0.32431 0.31116 0.0
H1328 H 0.17031 0.29918 0.35522 0.0
H1329 H 0.14699 0.30474 0.37405 0.0
H1330 H 0.19469 0.32064 0.3435 0.0
H1331 H 0.14368 0.27322 0.31076 0.0
H1332 H 0.11403 0.2622 0.29345 0.0
H1333 H 0.12922 0.29672 0.2516 0.0
H1334 H 0.15886 0.30815 0.2688 0.0
H1335 H 0.24571 0.26722 0.29337 0.0
H1336 H 0.22075 0.27451 0.30857 0.0
H1337 H 0.21435 0.31361 0.27026 0.0
H1338 H 0.23969 0.30679 0.25538 0.0
H1339 H 0.18269 0.28781 0.2773 0.0
H1340 H 0.23354 0.33364 0.3085 0.0
H1341 H 0.26351 0.34465 0.32489 0.0
H1342 H 0.24886 0.31278 0.36886 0.0
H1343 H 0.21885 0.30132 0.35256 0.0
C1344 C 0.13387 0.32183 0.33501 0.0
C1345 C 0.1336 0.3165 0.35284 0.0
C1346 C 0.14755 0.31951 0.32463 0.0
C1347 C 0.16061 0.31096 0.3316 0.0
C1348 C 0.16032 0.30575 0.34954 0.0
C1349 C 0.14702 0.30879 0.36023 0.0
C1350 C 0.17468 0.30746 0.32038 0.0
C1351 C 0.19199 0.31322 0.32911 0.0
C1352 C 0.17126 0.29847 0.30134 0.0
C1353 C 0.15339 0.2917 0.29118 0.0
C1354 C 0.14063 0.27857 0.29795 0.0
C1355 C 0.12384 0.27224 0.28815 0.0
C1356 C 0.11973 0.2788 0.27147 0.0
C1357 C 0.1324 0.29168 0.26454 0.0
C1358 C 0.14919 0.29809 0.27431 0.0
C1359 C 0.23861 0.27694 0.28791 0.0
C1360 C 0.24425 0.28638 0.2732 0.0
C1361 C 0.2246 0.28122 0.29668 0.0
C1362 C 0.21605 0.2947 0.29054 0.0
C1363 C 0.22099 0.30324 0.2751 0.0
C1364 C 0.23527 0.2993 0.26661 0.0
C1365 C 0.2023 0.30035 0.30072 0.0
C1366 C 0.18521 0.29517 0.29172 0.0
C1367 C 0.2059 0.3098 0.31948 0.0
C1368 C 0.224 0.31646 0.3292 0.0
C1369 C 0.23676 0.3288 0.32155 0.0
C1370 C 0.25374 0.33517 0.33086 0.0
C1371 C 0.2581 0.32939 0.34789 0.0
C1372 C 0.24547 0.31723 0.35566 0.0
C1373 C 0.22847 0.31081 0.34639 0.0
H1374 H 0.27125 0.33436 0.35509 0.0
H1375 H 0.10673 0.27386 0.2639 0.0
H1376 H 0.98619 0.06247 0.2208 0.0
H1377 H 0.99925 0.06083 0.19186 0.0
H1378 H 0.94982 0.06002 0.16112 0.0
H1379 H 0.93614 0.06075 0.19075 0.0
H1380 H 0.96399 0.03771 0.1389 0.0
H1381 H 0.99266 0.10092 0.17167 0.0
H1382 H 0.00992 0.1247 0.19792 0.0
H1383 H 0.05226 0.09599 0.19555 0.0
H1384 H 0.03518 0.07191 0.16943 0.0
H1385 H 1.00448 0.0441 0.052 0.0
H1386 H 0.98887 0.04763 0.07991 0.0
H1387 H 0.03754 0.05719 0.11567 0.0
H1388 H 0.05298 0.05482 0.08806 0.0
H1389 H 0.02301 0.07633 0.13519 0.0
H1390 H 0.99633 0.01266 0.10599 0.0
H1391 H 0.98061 0.98672 0.08075 0.0
H1392 H 0.93672 0.01308 0.07785 0.0
H1393 H 0.95228 0.03931 0.10294 0.0
C1394 C 0.97778 0.06218 0.20808 0.0
C1395 C 0.95971 0.06197 0.20905 0.0
C1396 C 0.98559 0.06141 0.19105 0.0
C1397 C 0.97613 0.06071 0.17336 0.0
C1398 C 0.95801 0.06067 0.17409 0.0
C1399 C 0.95003 0.06135 0.19139 0.0
C1400 C 0.98507 0.05947 0.15464 0.0
C1401 C 0.97678 0.04653 0.13822 0.0
C1402 C 1.00231 0.07006 0.15291 0.0
C1403 C 0.01256 0.08452 0.16867 0.0
C1404 C 1.0056 0.09961 0.17681 0.0
C1405 C 0.01537 0.11315 0.19166 0.0
C1406 C 0.03216 0.11183 0.19842 0.0
C1407 C 0.03924 0.09698 0.19032 0.0
C1408 C 0.02953 0.0834 0.17548 0.0
C1409 C 0.01193 0.04685 0.06575 0.0
C1410 C 0.03036 0.04904 0.06709 0.0
C1411 C 1.00283 0.04876 0.08215 0.0
C1412 C 0.01147 0.05245 0.10097 0.0
C1413 C 0.02986 0.05449 0.10205 0.0
C1414 C 0.0389 0.05296 0.08581 0.0
C1415 C 1.00193 0.0545 0.11932 0.0
C1416 C 0.01018 0.06753 0.13575 0.0
C1417 C 0.98489 0.04366 0.12122 0.0
C1418 C 0.97552 0.02802 0.10617 0.0
C1419 C 0.98336 0.01296 0.09988 0.0
C1420 C 0.97448 0.99822 0.08562 0.0
C1421 C 0.95769 0.99828 0.07767 0.0
C1422 C 0.94974 0.01308 0.084 0.0
C1423 C 0.95858 0.02788 0.09824 0.0
H1424 H 0.95083 0.98684 0.06663 0.0
H1425 H 0.03969 0.12233 0.2099 0.0
H1426 H 0.30011 0.69437 0.48285 0.0
H1427 H 0.28459 0.70675 0.45873 0.0
H1428 H 0.25206 0.65046 0.43867 0.0
H1429 H 0.26807 0.63782 0.46274 0.0
H1430 H 0.26607 0.66864 0.41138 0.0
H1431 H 0.23143 0.6844 0.4602 0.0
H1432 H 0.22594 0.69615 0.49229 0.0
H1433 H 0.25974 0.75054 0.49097 0.0
H1434 H 0.26545 0.73912 0.45894 0.0
H1435 H 0.23449 0.7378 0.3584 0.0
H1436 H 0.23136 0.71318 0.37844 0.0
H1437 H 0.28218 0.74011 0.40865 0.0
H1438 H 0.28581 0.76432 0.38809 0.0
H1439 H 0.24608 0.72863 0.42752 0.0
H1440 H 0.28875 0.71128 0.38694 0.0
H1441 H 0.29993 0.70066 0.35754 0.0
H1442 H 0.25785 0.65076 0.34614 0.0
H1443 H 0.24607 0.66149 0.37525 0.0
C1444 C 0.28987 0.68464 0.47303 0.0
C1445 C 0.28534 0.66526 0.47422 0.0
C1446 C 0.28076 0.69172 0.45965 0.0
C1447 C 0.26677 0.67955 0.44763 0.0
C1448 C 0.26261 0.65998 0.44826 0.0
C1449 C 0.27194 0.65279 0.4616 0.0
C1450 C 0.25814 0.68738 0.43309 0.0
C1451 C 0.26093 0.68131 0.41466 0.0
C1452 C 0.2519 0.70407 0.43774 0.0
C1453 C 0.24873 0.71092 0.45713 0.0
C1454 C 0.23771 0.69884 0.46679 0.0
C1455 C 0.23455 0.70546 0.48496 0.0
C1456 C 0.24244 0.7241 0.49364 0.0
C1457 C 0.25356 0.73615 0.4842 0.0
C1458 C 0.2567 0.72963 0.46601 0.0
C1459 C 0.24489 0.73855 0.36948 0.0
C1460 C 0.26046 0.75271 0.3718 0.0
C1461 C 0.24315 0.72444 0.38062 0.0
C1462 C 0.25676 0.72483 0.39437 0.0
C1463 C 0.2718 0.73962 0.39761 0.0
C1464 C 0.27379 0.75341 0.38612 0.0
C1465 C 0.25504 0.71041 0.40629 0.0
C1466 C 0.25015 0.71532 0.42403 0.0
C1467 C 0.25998 0.69303 0.40119 0.0
C1468 C 0.26613 0.68758 0.38289 0.0
C1469 C 0.28151 0.69842 0.37786 0.0
C1470 C 0.28808 0.69226 0.36135 0.0
C1471 C 0.27955 0.6751 0.34991 0.0
C1472 C 0.26438 0.66412 0.35493 0.0
C1473 C 0.25769 0.67029 0.37137 0.0
H1474 H 0.28472 0.67029 0.33719 0.0
H1475 H 0.23996 0.7292 0.5077 0.0
H1476 H 0.6618 0.05331 0.69222 0.0
H1477 H 0.65134 0.05444 0.65952 0.0
H1478 H 0.59815 0.03414 0.67048 0.0
H1479 H 0.60836 0.03305 0.70286 0.0
H1480 H 0.61084 0.01265 0.63979 0.0
H1481 H 0.6093 0.0764 0.67013 0.0
H1482 H 0.62253 0.10884 0.68697 0.0
H1483 H 0.6528 0.12017 0.64166 0.0
H1484 H 0.64009 0.08755 0.62474 0.0
H1485 H 0.54062 0.02106 0.57933 0.0
H1486 H 0.56237 0.02281 0.60607 0.0
H1487 H 0.6023 0.05487 0.57833 0.0
H1488 H 0.58037 0.0548 0.55264 0.0
H1489 H 0.60446 0.07032 0.61307 0.0
H1490 H 0.59871 1.00509 0.58087 0.0
H1491 H 0.58192 0.97284 0.56645 0.0
H1492 H 0.56079 0.96513 0.61824 0.0
H1493 H 0.5773 0.99732 0.63289 0.0
C1494 C 0.64791 0.04897 0.68747 0.0
C1495 C 0.63577 0.04282 0.69968 0.0
C1496 C 0.64204 0.04982 0.66904 0.0
C1497 C 0.62412 0.04428 0.66297 0.0
C1498 C 0.61206 0.03838 0.67522 0.0
C1499 C 0.61785 0.03774 0.69355 0.0
C1500 C 0.61749 0.04332 0.64357 0.0
C1501 C 0.60961 0.02518 0.63368 0.0
C1502 C 0.61625 0.05984 0.636 0.0
C1503 C 0.62405 0.07936 0.64635 0.0
C1504 C 0.61903 0.08565 0.6639 0.0
C1505 C 0.62638 0.10411 0.67344 0.0
C1506 C 0.63859 0.11652 0.66545 0.0
C1507 C 0.64343 0.11051 0.64788 0.0
C1508 C 0.63618 0.09202 0.63833 0.0
C1509 C 0.55405 0.02843 0.57905 0.0
C1510 C 0.55902 0.03743 0.56394 0.0
C1511 C 0.56645 0.02926 0.59411 0.0
C1512 C 0.58396 0.03846 0.59373 0.0
C1513 C 0.58887 0.04751 0.57865 0.0
C1514 C 0.57638 0.04728 0.56396 0.0
C1515 C 0.59701 0.03954 0.60958 0.0
C1516 C 0.60624 0.05769 0.61869 0.0
C1517 C 0.59904 0.02303 0.61684 0.0
C1518 C 0.58932 1.00356 0.60799 0.0
C1519 C 0.59048 0.9965 0.58916 0.0
C1520 C 0.581 0.97824 0.58095 0.0
C1521 C 0.57033 0.96693 0.59144 0.0
C1522 C 0.5691 0.97386 0.61015 0.0
C1523 C 0.57856 0.99207 0.61842 0.0
H1524 H 0.56301 0.95281 0.58506 0.0
H1525 H 0.64423 0.13083 0.67283 0.0
H1526 H 0.28416 0.38075 0.96313 0.0
H1527 H 0.28227 0.36291 0.93133 0.0
H1528 H 0.31721 0.32998 0.95182 0.0
H1529 H 0.31867 0.34734 0.98379 0.0
H1530 H 0.3267 0.35075 0.92006 0.0
H1531 H 0.2783 0.30721 0.93983 0.0
H1532 H 0.2495 0.29704 0.95074 0.0
H1533 H 0.22477 0.31675 0.9046 0.0
H1534 H 0.25344 0.32728 0.89357 0.0
H1535 H 0.32582 0.29219 0.83189 0.0
H1536 H 0.32526 0.3025 0.86566 0.0
H1537 H 0.27911 0.32378 0.85313 0.0
H1538 H 0.27937 0.3135 0.82003 0.0
H1539 H 0.27514 0.30642 0.88176 0.0
H1540 H 0.31827 0.35389 0.86371 0.0
H1541 H 0.34439 0.36589 0.84878 0.0
H1542 H 0.37618 0.3448 0.88834 0.0
H1543 H 0.35006 0.33224 0.90324 0.0
C1544 C 0.29139 0.36966 0.96083 0.0
C1545 C 0.30175 0.36554 0.97582 0.0
C1546 C 0.29014 0.35937 0.94274 0.0
C1547 C 0.29949 0.34506 0.9393 0.0
C1548 C 0.30978 0.34087 0.95427 0.0
C1549 C 0.31067 0.35083 0.97245 0.0
C1550 C 0.29997 0.33584 0.91985 0.0
C1551 C 0.31553 0.34074 0.91181 0.0
C1552 C 0.28511 0.32361 0.90878 0.0
C1553 C 0.26806 0.3183 0.91607 0.0
C1554 C 0.26677 0.30968 0.93221 0.0
C1555 C 0.25045 0.30375 0.93835 0.0
C1556 C 0.23533 0.30631 0.92842 0.0
C1557 C 0.23649 0.31483 0.91232 0.0
C1558 C 0.25277 0.32078 0.90614 0.0
C1559 C 0.3156 0.29906 0.83641 0.0
C1560 C 0.30266 0.30193 0.82323 0.0
C1561 C 0.31525 0.30491 0.85566 0.0
C1562 C 0.3021 0.31389 0.8619 0.0
C1563 C 0.28924 0.31669 0.84872 0.0
C1564 C 0.28951 0.31082 0.82969 0.0
C1565 C 0.30191 0.3212 0.88204 0.0
C1566 C 0.2864 0.31616 0.89014 0.0
C1567 C 0.31648 0.33404 0.8929 0.0
C1568 C 0.33225 0.34195 0.88441 0.0
C1569 C 0.33083 0.35172 0.86914 0.0
C1570 C 0.34562 0.35863 0.8607 0.0
C1571 C 0.36196 0.35611 0.86759 0.0
C1572 C 0.36351 0.34672 0.883 0.0
C1573 C 0.34872 0.33968 0.89144 0.0
H1574 H 0.37341 0.36146 0.86101 0.0
H1575 H 0.2227 0.30163 0.93316 0.0
H1576 H 0.95624 0.03428 0.30077 0.0
H1577 H 0.97221 0.0302 0.33012 0.0
H1578 H 0.9718 0.08758 0.35452 0.0
H1579 H 0.95506 0.09134 0.3254 0.0
H1580 H 1.00568 0.07855 0.36379 0.0
H1581 H 0.94601 0.05352 0.36967 0.0
H1582 H 0.91606 0.03384 0.36098 0.0
H1583 H 0.9359 0.98293 0.35762 0.0
H1584 H 0.96604 1.00237 0.36606 0.0
H1585 H 0.0301 0.07198 0.46049 0.0
H1586 H 0.0167 0.07665 0.43036 0.0
H1587 H 1.00772 0.01643 0.40992 0.0
H1588 H 0.02108 0.01165 0.44035 0.0
H1589 H 0.97962 0.02729 0.39813 0.0
H1590 H 0.03989 0.0531 0.39377 0.0
H1591 H 0.06921 0.07337 0.40521 0.0
H1592 H 0.04821 0.12347 0.40763 0.0
H1593 H 0.0187 0.10346 0.39631 0.0
C1594 C 0.9594 0.04605 0.31237 0.0
C1595 C 0.95393 0.06308 0.31042 0.0
C1596 C 0.9687 0.04372 0.32935 0.0
C1597 C 0.97357 0.05854 0.34506 0.0
C1598 C 0.96849 0.07576 0.34295 0.0
C1599 C 0.95869 0.07788 0.32616 0.0
C1600 C 0.98321 0.05573 0.36366 0.0
C1601 C 0.9998 0.06742 0.37129 0.0
C1602 C 0.97619 0.04112 0.37387 0.0
C1603 C 0.95826 0.02937 0.36823 0.0
C1604 C 0.944 0.03813 0.36683 0.0
C1605 C 0.92699 0.02703 0.36202 0.0
C1606 C 0.92408 1.00715 0.35869 0.0
C1607 C 0.93818 0.99833 0.36016 0.0
C1608 C 0.95523 0.00938 0.36496 0.0
C1609 C 0.02541 0.05962 0.44965 0.0
C1610 C 0.02688 0.04136 0.45335 0.0
C1611 C 0.01773 0.06237 0.43208 0.0
C1612 C 0.01106 0.04702 0.41717 0.0
C1613 C 0.01258 0.02874 0.4208 0.0
C1614 C 0.0204 0.02598 0.4384 0.0
C1615 C 1.00213 0.04996 0.39827 0.0
C1616 C 0.98564 0.03831 0.39057 0.0
C1617 C 1.00928 0.06464 0.38808 0.0
C1618 C 0.02707 0.07678 0.39427 0.0
C1619 C 0.04152 0.06844 0.39676 0.0
C1620 C 0.05817 0.07988 0.40322 0.0
C1621 C 0.06057 0.0997 0.40716 0.0
C1622 C 0.04633 0.10812 0.40455 0.0
C1623 C 0.02964 0.09674 0.39806 0.0
H1624 H 0.07346 0.10853 0.41222 0.0
H1625 H 0.91089 0.99857 0.35502 0.0
H1626 H 0.31029 0.6839 0.57637 0.0
H1627 H 0.31061 0.70046 0.60816 0.0
H1628 H 0.25405 0.68713 0.6015 0.0
H1629 H 0.25386 0.67165 0.56912 0.0
H1630 H 0.26633 0.72348 0.61312 0.0
H1631 H 0.27851 0.66702 0.63294 0.0
H1632 H 0.2941 0.64087 0.63078 0.0
H1633 H 0.34305 0.68132 0.64846 0.0
H1634 H 0.32775 0.70772 0.65049 0.0
H1635 H 0.26617 0.764 0.70915 0.0
H1636 H 0.26178 0.74132 0.67971 0.0
H1637 H 0.31695 0.75759 0.67461 0.0
H1638 H 0.32126 0.78037 0.70395 0.0
H1639 H 0.30296 0.71753 0.67027 0.0
H1640 H 0.29178 0.77347 0.64848 0.0
H1641 H 0.27745 0.80047 0.64815 0.0
H1642 H 0.22743 0.76148 0.6325 0.0
H1643 H 0.24145 0.73423 0.63321 0.0
C1644 C 0.298 0.68396 0.58202 0.0
C1645 C 0.28208 0.6765 0.57071 0.0
C1646 C 0.29814 0.69339 0.60012 0.0
C1647 C 0.28233 0.69479 0.60723 0.0
C1648 C 0.26636 0.68615 0.59623 0.0
C1649 C 0.26624 0.67719 0.57794 0.0
C1650 C 0.28263 0.70689 0.62538 0.0
C1651 C 0.27395 0.72186 0.62575 0.0
C1652 C 0.293 0.70512 0.64163 0.0
C1653 C 0.30201 0.68927 0.64191 0.0
C1654 C 0.29259 0.67029 0.63647 0.0
C1655 C 0.30138 0.65545 0.6352 0.0
C1656 C 0.31956 0.65943 0.63949 0.0
C1657 C 0.32897 0.67826 0.64519 0.0
C1658 C 0.32025 0.69316 0.64647 0.0
C1659 C 0.27721 0.76285 0.70152 0.0
C1660 C 0.29395 0.7739 0.70837 0.0
C1661 C 0.27475 0.74993 0.68487 0.0
C1662 C 0.28908 0.74787 0.6752 0.0
C1663 C 0.3058 0.75906 0.68202 0.0
C1664 C 0.3082 0.77215 0.69851 0.0
C1665 C 0.28665 0.73398 0.65792 0.0
C1666 C 0.29499 0.71879 0.65774 0.0
C1667 C 0.276 0.73556 0.64183 0.0
C1668 C 0.2676 0.75186 0.64116 0.0
C1669 C 0.2777 0.77067 0.64517 0.0
C1670 C 0.26964 0.78601 0.6449 0.0
C1671 C 0.25153 0.78269 0.64038 0.0
C1672 C 0.24145 0.76402 0.63606 0.0
C1673 C 0.24944 0.74863 0.63642 0.0
H1674 H 0.24531 0.7946 0.64015 0.0
H1675 H 0.32635 0.64792 0.6384 0.0
H1676 H 0.63628 0.01819 0.79386 0.0
H1677 H 0.62416 0.03422 0.8198 0.0
H1678 H 0.66442 0.0853 0.82167 0.0
H1679 H 0.67752 0.06855 0.79691 0.0
H1680 H 0.65863 0.07886 0.85524 0.0
H1681 H 0.61943 0.08186 0.79971 0.0
H1682 H 0.60078 0.06734 0.76986 0.0
H1683 H 0.57023 0.02596 0.79777 0.0
H1684 H 0.58859 0.04033 0.82777 0.0
H1685 H 0.60679 0.11018 0.9252 0.0
H1686 H 0.62197 0.11181 0.89676 0.0
H1687 H 0.59425 0.05392 0.87428 0.0
H1688 H 0.5793 0.05246 0.9021 0.0
H1689 H 0.59482 0.07577 0.84805 0.0
H1690 H 0.63384 0.06206 0.89698 0.0
H1691 H 0.65222 0.06811 0.92748 0.0
H1692 H 0.68252 0.11952 0.91338 0.0
H1693 H 0.66412 0.11385 0.88285 0.0
C1694 C 0.64282 0.03258 0.80038 0.0
C1695 C 0.65779 0.04219 0.79384 0.0
C1696 C 0.63568 0.0419 0.81472 0.0
C1697 C 0.64296 0.06118 0.82187 0.0
C1698 C 0.6585 0.0705 0.81598 0.0
C1699 C 0.66606 0.0609 0.80213 0.0
C1700 C 0.63474 0.0712 0.83622 0.0
C1701 C 0.6448 0.07886 0.85354 0.0
C1702 C 0.61662 0.07062 0.83393 0.0
C1703 C 0.60532 0.06226 0.81596 0.0
C1704 C 0.6087 0.06971 0.79946 0.0
C1705 C 0.59817 0.06151 0.78253 0.0
C1706 C 0.58431 0.04577 0.78193 0.0
C1707 C 0.58091 0.03822 0.79827 0.0
C1708 C 0.59129 0.04646 0.81525 0.0
C1709 C 0.60406 0.09802 0.914 0.0
C1710 C 0.59219 0.08119 0.91548 0.0
C1711 C 0.61254 0.09895 0.8979 0.0
C1712 C 0.60896 0.08306 0.8835 0.0
C1713 C 0.5969 0.06642 0.88513 0.0
C1714 C 0.58857 0.0655 0.90101 0.0
C1715 C 0.61861 0.08258 0.86722 0.0
C1716 C 0.60885 0.07683 0.84946 0.0
C1717 C 0.63682 0.08394 0.86929 0.0
C1718 C 0.64741 0.08777 0.88787 0.0
C1719 C 0.64425 0.0748 0.90052 0.0
C1720 C 0.6547 0.07812 0.91778 0.0
C1721 C 0.66846 0.09425 0.92242 0.0
C1722 C 0.67179 0.10709 0.90981 0.0
C1723 C 0.66135 0.10385 0.89255 0.0
H1724 H 0.67658 0.09676 0.93576 0.0
H1725 H 0.57623 0.0394 0.7688 0.0
H1726 H 0.2838 0.37655 0.08067 0.0
H1727 H 0.27816 0.36358 0.10984 0.0
H1728 H 0.31908 0.33297 0.10263 0.0
H1729 H 0.32452 0.34542 0.07396 0.0
H1730 H 0.29262 0.31013 0.11174 0.0
H1731 H 0.32263 0.37577 0.13625 0.0
H1732 H 0.32539 0.41052 0.1391 0.0
H1733 H 0.27559 0.40494 0.16034 0.0
H1734 H 0.27246 0.37011 0.15734 0.0
H1735 H 0.30925 0.27891 0.1971 0.0
H1736 H 0.31097 0.29495 0.1698 0.0
H1737 H 0.27548 0.32847 0.19092 0.0
H1738 H 0.27533 0.3136 0.21941 0.0
H1739 H 0.29439 0.34957 0.17383 0.0
H1740 H 0.26469 0.28447 0.15149 0.0
H1741 H 0.25996 0.24938 0.14629 0.0
H1742 H 0.30664 0.25301 0.11911 0.0
H1743 H 0.31173 0.28809 0.12432 0.0
C1744 C 0.29172 0.36727 0.08547 0.0
C1745 C 0.30466 0.36217 0.07477 0.0
C1746 C 0.28847 0.35978 0.10219 0.0
C1747 C 0.29821 0.3472 0.10871 0.0
C1748 C 0.31121 0.34244 0.0981 0.0
C1749 C 0.31437 0.34975 0.08156 0.0
C1750 C 0.29516 0.33861 0.12632 0.0
C1751 C 0.29316 0.31883 0.12534 0.0
C1752 C 0.29512 0.34957 0.14411 0.0
C1753 C 0.29725 0.37043 0.14642 0.0
C1754 C 0.31226 0.38199 0.14146 0.0
C1755 C 0.31388 0.40167 0.14309 0.0
C1756 C 0.30065 0.40993 0.14985 0.0
C1757 C 0.28581 0.39852 0.15508 0.0
C1758 C 0.28411 0.37883 0.15343 0.0
C1759 C 0.30215 0.29005 0.19616 0.0
C1760 C 0.2924 0.29516 0.21063 0.0
C1761 C 0.30277 0.29897 0.18019 0.0
C1762 C 0.29277 0.31255 0.17748 0.0
C1763 C 0.28329 0.31802 0.19226 0.0
C1764 C 0.28323 0.30956 0.20868 0.0
C1765 C 0.29242 0.32099 0.15945 0.0
C1766 C 0.2937 0.34073 0.1603 0.0
C1767 C 0.29161 0.30991 0.14139 0.0
C1768 C 0.28866 0.28887 0.13847 0.0
C1769 C 0.27399 0.27776 0.14453 0.0
C1770 C 0.27124 0.25789 0.14155 0.0
C1771 C 0.28302 0.24898 0.13242 0.0
C1772 C 0.29755 0.25992 0.1262 0.0
C1773 C 0.30036 0.27979 0.12915 0.0
H1774 H 0.28087 0.23359 0.13013 0.0
H1775 H 0.30191 0.42517 0.15107 0.0
H1776 H 0.27287 0.94399 0.03874 0.0
H1777 H 0.24868 0.95779 0.04924 0.0
H1778 H 0.2361 0.96829 0.99301 0.0
H1779 H 0.2602 0.95447 0.9826 0.0
H1780 H 0.23853 0.99923 0.02097 0.0
H1781 H 0.21219 0.93153 0.00708 0.0
H1782 H 0.21183 0.89837 0.01121 0.0
H1783 H 0.20776 0.91269 0.06999 0.0
H1784 H 0.20836 0.94604 0.06623 0.0
H1785 H 0.15348 0.00935 0.00525 0.0
H1786 H 0.17879 0.99502 0.00521 0.0
H1787 H 0.18127 0.99735 0.06519 0.0
H1788 H 0.15568 0.01162 0.06543 0.0
H1789 H 0.18597 0.96138 0.0425 0.0
H1790 H 0.20955 0.0292 0.05461 0.0
H1791 H 0.21339 0.06278 0.05017 0.0
H1792 H 0.22421 0.04781 0.99357 0.0
H1793 H 0.22021 0.01414 0.99764 0.0
C1794 C 0.26488 0.94939 0.02879 0.0
C1795 C 0.26807 0.94846 0.01002 0.0
C1796 C 0.25116 0.9571 0.03471 0.0
C1797 C 0.24072 0.96385 0.02181 0.0
C1798 C 0.24413 0.96306 0.00306 0.0
C1799 C 0.25775 0.95526 0.99715 0.0
C1800 C 0.22628 0.9721 0.02769 0.0
C1801 C 0.227 0.99098 0.02564 0.0
C1802 C 0.21166 0.96137 0.03434 0.0
C1803 C 0.21044 0.94123 0.03642 0.0
C1804 C 0.21126 0.92759 0.02089 0.0
C1805 C 0.21103 0.90879 0.02316 0.0
C1806 C 0.20981 0.90344 0.04086 0.0
C1807 C 0.20871 0.91686 0.0563 0.0
C1808 C 0.20898 0.93571 0.0541 0.0
C1809 C 0.15916 1.00652 0.0184 0.0
C1810 C 0.15262 0.01164 0.03535 0.0
C1811 C 0.17366 0.99845 0.01836 0.0
C1812 C 0.18182 0.99535 0.03522 0.0
C1813 C 0.17506 0.99978 0.0521 0.0
C1814 C 0.16062 1.00807 0.0522 0.0
C1815 C 0.19795 0.98837 0.03498 0.0
C1816 C 0.19761 0.96975 0.03818 0.0
C1817 C 0.21298 0.99925 0.02916 0.0
C1818 C 0.21439 0.01921 0.02637 0.0
C1819 C 0.21249 0.03306 0.04115 0.0
C1820 C 0.21478 0.05211 0.03872 0.0
C1821 C 0.219 0.05742 0.02159 0.0
C1822 C 0.2209 0.04369 0.00682 0.0
C1823 C 0.21863 0.02464 0.00918 0.0
H1824 H 0.22084 0.0722 0.01976 0.0
H1825 H 0.20969 0.88888 0.04261 0.0
H1826 H 0.71537 0.66956 0.97233 0.0
H1827 H 0.68794 0.64836 0.97608 0.0
H1828 H 0.7155 0.62228 0.01531 0.0
H1829 H 0.74335 0.64299 0.0107 0.0
H1830 H 0.69112 0.59577 0.99703 0.0
H1831 H 0.68819 0.65686 0.02844 0.0
H1832 H 0.69023 0.69153 0.03181 0.0
H1833 H 0.64951 0.68239 0.98585 0.0
H1834 H 0.64736 0.64769 0.98212 0.0
H1835 H 0.61106 0.54567 0.02297 0.0
H1836 H 0.63939 0.56753 0.02355 0.0
H1837 H 0.61562 0.59824 0.98572 0.0
H1838 H 0.58692 0.57706 0.98643 0.0
H1839 H 0.6391 0.6229 0.00581 0.0
H1840 H 0.64378 0.56047 0.97454 0.0
H1841 H 0.64364 0.52622 0.97213 0.0
H1842 H 0.68258 0.53846 0.02017 0.0
H1843 H 0.68278 0.57271 0.02296 0.0
C1844 C 0.71571 0.65919 0.98164 0.0
C1845 C 0.73177 0.65809 0.99113 0.0
C1846 C 0.69981 0.64713 0.98402 0.0
C1847 C 0.69916 0.63384 0.99649 0.0
C1848 C 0.7153 0.63234 0.00566 0.0
C1849 C 0.73135 0.64421 1.00296 0.0
C1850 C 0.68173 0.62158 0.9997 0.0
C1851 C 0.67986 0.60186 0.99921 0.0
C1852 C 0.66665 0.62902 1.00247 0.0
C1853 C 0.66767 0.64976 0.00496 0.0
C1854 C 0.67971 0.66228 0.01904 0.0
C1855 C 0.68089 0.68192 0.02101 0.0
C1856 C 0.67002 0.68916 0.00904 0.0
C1857 C 0.65792 0.67677 0.99512 0.0
C1858 C 0.65668 0.65712 0.9931 0.0
C1859 C 0.61181 0.55733 0.01506 0.0
C1860 C 0.59657 0.55966 0.00483 0.0
C1861 C 0.62823 0.56973 0.01507 0.0
C1862 C 0.63028 0.58445 0.00407 0.0
C1863 C 0.61484 0.58711 0.9943 0.0
C1864 C 0.59826 0.575 0.99475 0.0
C1865 C 0.64828 0.59689 1.00266 0.0
C1866 C 0.65031 0.61674 0.0036 0.0
C1867 C 0.66359 0.58958 1.00059 0.0
C1868 C 0.66316 0.56903 0.99905 0.0
C1869 C 0.6522 0.55579 0.98464 0.0
C1870 C 0.65213 0.53641 0.98321 0.0
C1871 C 0.66306 0.53017 0.99601 0.0
C1872 C 0.67409 0.5433 0.01029 0.0
C1873 C 0.6742 0.56268 0.0118 0.0
H1874 H 0.66301 0.51515 0.99485 0.0
H1875 H 0.67097 0.70437 0.01056 0.0
H1876 H 0.71332 0.47986 0.26259 0.0
H1877 H 0.72843 0.45363 0.26047 0.0
H1878 H 0.68005 0.41421 0.26347 0.0
H1879 H 0.66503 0.44083 0.26634 0.0
H1880 H 0.70058 0.39772 0.27792 0.0
H1881 H 0.70805 0.41866 0.22049 0.0
H1882 H 0.71536 0.44045 0.19774 0.0
H1883 H 0.7688 0.45648 0.22317 0.0
H1884 H 0.76174 0.4349 0.2462 0.0
H1885 H 0.74058 0.31613 0.25544 0.0
H1886 H 0.72376 0.34094 0.25481 0.0
H1887 H 0.77162 0.38379 0.26082 0.0
H1888 H 0.78841 0.35887 0.26094 0.0
H1889 H 0.75007 0.39714 0.24025 0.0
H1890 H 0.73845 0.37283 0.29848 0.0
H1891 H 0.72845 0.34619 0.31548 0.0
H1892 H 0.67867 0.33173 0.28129 0.0
H1893 H 0.68848 0.35823 0.26403 0.0
C1894 C 0.70565 0.46567 0.26272 0.0
C1895 C 0.6875 0.46329 0.26464 0.0
C1896 C 0.71451 0.45015 0.26126 0.0
C1897 C 0.70594 0.43077 0.26129 0.0
C1898 C 0.68773 0.42839 0.26329 0.0
C1899 C 0.67887 0.444 0.26488 0.0
C1900 C 0.71583 0.41359 0.25971 0.0
C1901 C 0.71128 0.39791 0.26944 0.0
C1902 C 0.73002 0.41227 0.2487 0.0
C1903 C 0.73433 0.42542 0.23518 0.0
C1904 C 0.72133 0.42698 0.22131 0.0
C1905 C 0.72543 0.43925 0.20835 0.0
C1906 C 0.74252 0.4499 0.20906 0.0
C1907 C 0.75556 0.44826 0.22268 0.0
C1908 C 0.75152 0.43601 0.23568 0.0
C1909 C 0.74773 0.33079 0.25668 0.0
C1910 C 0.76636 0.33476 0.25837 0.0
C1911 C 0.73787 0.34543 0.25653 0.0
C1912 C 0.74581 0.36529 0.25829 0.0
C1913 C 0.76443 0.36915 0.25956 0.0
C1914 C 0.77429 0.35452 0.25968 0.0
C1915 C 0.73514 0.38175 0.2589 0.0
C1916 C 0.73951 0.39722 0.24889 0.0
C1917 C 0.72037 0.3825 0.26907 0.0
C1918 C 0.71418 0.36738 0.28001 0.0
C1919 C 0.72535 0.36398 0.29469 0.0
C1920 C 0.71974 0.3489 0.30431 0.0
C1921 C 0.70294 0.33726 0.29945 0.0
C1922 C 0.69167 0.34077 0.28504 0.0
C1923 C 0.69722 0.35583 0.27537 0.0
H1924 H 0.69864 0.32553 0.30687 0.0
H1925 H 0.74568 0.4594 0.199 0.0
H1926 H 0.84612 0.46162 0.4957 0.0
H1927 H 0.87396 0.48403 0.50592 0.0
H1928 H 0.8979 0.4379 0.51703 0.0
H1929 H 0.86979 0.41509 0.50711 0.0
H1930 H 0.91077 0.47489 0.54292 0.0
H1931 H 0.89907 0.44565 0.47793 0.0
H1932 H 0.88216 0.43557 0.4466 0.0
H1933 H 0.88335 0.49404 0.44192 0.0
H1934 H 0.8997 0.50442 0.4736 0.0
H1935 H 0.99296 0.48943 0.51197 0.0
H1936 H 0.96229 0.4786 0.51675 0.0
H1937 H 0.95305 0.53399 0.51015 0.0
H1938 H 0.98399 0.54495 0.50572 0.0
H1939 H 0.93153 0.49898 0.48609 0.0
H1940 H 0.95179 0.52704 0.54886 0.0
H1941 H 0.97166 0.53454 0.57836 0.0
H1942 H 0.95807 0.47585 0.58565 0.0
H1943 H 0.93888 0.46779 0.55575 0.0
C1944 C 0.85724 0.45618 0.50046 0.0
C1945 C 0.856 0.43657 0.50009 0.0
C1946 C 0.87298 0.46905 0.50658 0.0
C1947 C 0.88769 0.46243 0.51216 0.0
C1948 C 0.88644 0.44306 0.51286 0.0
C1949 C 0.87059 0.43009 0.50675 0.0
C1950 C 0.90478 0.47509 0.51338 0.0
C1951 C 0.91544 0.48023 0.5306 0.0
C1952 C 0.91041 0.48207 0.49719 0.0
C1953 C 0.90023 0.47578 0.47832 0.0
C1954 C 0.89539 0.45633 0.47041 0.0
C1955 C 0.88595 0.45056 0.45256 0.0
C1956 C 0.88159 0.46415 0.44232 0.0
C1957 C 0.88664 0.48353 0.44992 0.0
C1958 C 0.89592 0.48935 0.46786 0.0
C1959 C 0.98422 0.4991 0.51146 0.0
C1960 C 0.99015 0.51772 0.50835 0.0
C1961 C 0.96702 0.49312 0.51446 0.0
C1962 C 0.95592 0.50581 0.51422 0.0
C1963 C 0.9618 0.52435 0.51067 0.0
C1964 C 0.97913 0.53042 0.50792 0.0
C1965 C 0.93766 0.49861 0.51552 0.0
C1966 C 0.92669 0.49427 0.49863 0.0
C1967 C 0.93212 0.49201 0.53186 0.0
C1968 C 0.94381 0.49678 0.54995 0.0
C1969 C 0.95322 0.51565 0.55658 0.0
C1970 C 0.96443 0.52002 0.57339 0.0
C1971 C 0.96615 0.50572 0.5839 0.0
C1972 C 0.95682 0.48697 0.57752 0.0
C1973 C 0.94578 0.48246 0.56058 0.0
H1974 H 0.97461 0.5093 0.59705 0.0
H1975 H 0.87438 0.45967 0.42844 0.0
H1976 H 0.42408 0.09176 0.2752 0.0
H1977 H 0.4076 0.11316 0.26309 0.0
H1978 H 0.35939 0.07119 0.26142 0.0
H1979 H 0.37585 0.04938 0.27306 0.0
H1980 H 0.36175 0.08736 0.22987 0.0
H1981 H 0.36944 0.10699 0.29645 0.0
H1982 H 0.3874 0.11513 0.3273 0.0
H1983 H 0.41918 0.16354 0.30954 0.0
H1984 H 0.40153 0.15553 0.27844 0.0
H1985 H 0.3031 0.14912 0.23127 0.0
H1986 H 0.3205 0.12536 0.23429 0.0
H1987 H 0.36783 0.16842 0.23534 0.0
H1988 H 0.35031 0.19215 0.23217 0.0
H1989 H 0.36662 0.15166 0.26668 0.0
H1990 H 0.35698 0.13161 0.19979 0.0
H1991 H 0.34006 0.12074 0.16848 0.0
H1992 H 0.31135 0.07129 0.18747 0.0
H1993 H 0.32795 0.082 0.21898 0.0
C1994 C 0.40998 0.08714 0.27228 0.0
C1995 C 0.40111 0.06914 0.27509 0.0
C1996 C 0.40065 0.09929 0.26539 0.0
C1997 C 0.38243 0.09363 0.26171 0.0
C1998 C 0.37352 0.07558 0.26429 0.0
C1999 C 0.38287 0.06329 0.27095 0.0
C2000 C 0.37268 0.10681 0.25539 0.0
C2001 C 0.36253 0.10134 0.23794 0.0
C2002 C 0.37424 0.125 0.26603 0.0
C2003 C 0.38418 0.13063 0.2851 0.0
C2004 C 0.38024 0.11939 0.29913 0.0
C2005 C 0.39039 0.12395 0.31664 0.0
C2006 C 0.40444 0.13983 0.32037 0.0
C2007 C 0.40828 0.15126 0.30662 0.0
C2008 C 0.39818 0.14674 0.28906 0.0
C2009 C 0.31715 0.15321 0.23128 0.0
C2010 C 0.32556 0.17224 0.23158 0.0
C2011 C 0.32704 0.13974 0.23307 0.0
C2012 C 0.34534 0.14531 0.23501 0.0
C2013 C 0.35368 0.16403 0.23383 0.0
C2014 C 0.34377 0.17749 0.23205 0.0
C2015 C 0.35564 0.13229 0.24093 0.0
C2016 C 0.36584 0.13773 0.25849 0.0
C2017 C 0.3539 0.11394 0.23052 0.0
C2018 C 0.34358 0.10772 0.21176 0.0
C2019 C 0.34692 0.11854 0.19734 0.0
C2020 C 0.33742 0.11237 0.17955 0.0
C2021 C 0.32461 0.09536 0.176 0.0
C2022 C 0.32126 0.08448 0.19024 0.0
C2023 C 0.33072 0.09058 0.20806 0.0
H2024 H 0.3173 0.0906 0.16219 0.0
H2025 H 0.41233 0.14329 0.33391 0.0
H2026 H 0.34875 0.1916 0.51328 0.0
H2027 H 0.37471 0.17961 0.52182 0.0
H2028 H 0.34501 0.12192 0.50268 0.0
H2029 H 0.31891 0.13385 0.49552 0.0
H2030 H 0.36271 0.12098 0.53183 0.0
H2031 H 0.3801 0.15284 0.47896 0.0
H2032 H 0.38812 0.18006 0.46214 0.0
H2033 H 0.42764 0.20859 0.50769 0.0
H2034 H 0.41965 0.18167 0.52486 0.0
H2035 H 0.42621 0.06769 0.51474 0.0
H2036 H 0.40302 0.08536 0.51447 0.0
H2037 H 0.44063 0.13709 0.53937 0.0
H2038 H 0.46403 0.11931 0.53893 0.0
H2039 H 0.42124 0.14491 0.5129 0.0
H2040 H 0.40682 0.11351 0.56427 0.0
H2041 H 0.40033 0.08703 0.58228 0.0
H2042 H 0.35651 0.05878 0.54134 0.0
H2043 H 0.36286 0.085 0.52301 0.0
C2044 C 0.34781 0.17635 0.51088 0.0
C2045 C 0.33171 0.16367 0.50372 0.0
C2046 C 0.36277 0.16947 0.51561 0.0
C2047 C 0.36217 0.14974 0.51266 0.0
C2048 C 0.34605 0.13718 0.50527 0.0
C2049 C 0.33104 0.14402 0.50108 0.0
C2050 C 0.37783 0.14181 0.51777 0.0
C2051 C 0.3754 0.12613 0.52734 0.0
C2052 C 0.39491 0.14902 0.51321 0.0
C2053 C 0.39908 0.16545 0.50327 0.0
C2054 C 0.39033 0.16505 0.48546 0.0
C2055 C 0.39491 0.18039 0.47586 0.0
C2056 C 0.40833 0.19608 0.48388 0.0
C2057 C 0.4172 0.19648 0.50153 0.0
C2058 C 0.41263 0.18121 0.5112 0.0
C2059 C 0.42944 0.08279 0.52035 0.0
C2060 C 0.44683 0.09215 0.5269 0.0
C2061 C 0.41616 0.09291 0.52034 0.0
C2062 C 0.41987 0.11261 0.5272 0.0
C2063 C 0.43731 0.12193 0.53405 0.0
C2064 C 0.45068 0.11179 0.53386 0.0
C2065 C 0.40572 0.1235 0.5259 0.0
C2066 C 0.40852 0.13982 0.51734 0.0
C2067 C 0.38901 0.11702 0.53152 0.0
C2068 C 0.3854 0.10109 0.54224 0.0
C2069 C 0.3959 0.10155 0.55905 0.0
C2070 C 0.39222 0.08662 0.56933 0.0
C2071 C 0.37803 0.07122 0.56294 0.0
C2072 C 0.36749 0.07071 0.54627 0.0
C2073 C 0.37111 0.0856 0.53595 0.0
H2074 H 0.37519 0.05968 0.57094 0.0
H2075 H 0.4119 0.2079 0.47638 0.0
H2076 H 0.66552 0.59152 0.27463 0.0
H2077 H 0.6839 0.62217 0.27246 0.0
H2078 H 0.7283 0.59667 0.26843 0.0
H2079 H 0.7096 0.56531 0.27088 0.0
H2080 H 0.74049 0.63085 0.28831 0.0
H2081 H 0.70453 0.61341 0.22999 0.0
H2082 H 0.67711 0.60271 0.20863 0.0
H2083 H 0.65987 0.65245 0.23148 0.0
H2084 H 0.68705 0.66322 0.25347 0.0
H2085 H 0.79576 0.71311 0.26421 0.0
H2086 H 0.77704 0.68217 0.26484 0.0
H2087 H 0.7324 0.70748 0.26698 0.0
H2088 H 0.75146 0.73902 0.26576 0.0
H2089 H 0.72012 0.67315 0.24763 0.0
H2090 H 0.75579 0.68946 0.30715 0.0
H2091 H 0.78281 0.69887 0.32944 0.0
H2092 H 0.80046 0.65044 0.30375 0.0
H2093 H 0.77364 0.64088 0.28118 0.0
C2094 C 0.67919 0.59203 0.2733 0.0
C2095 C 0.6856 0.57509 0.27306 0.0
C2096 C 0.68991 0.61004 0.27184 0.0
C2097 C 0.70794 0.61261 0.26988 0.0
C2098 C 0.71459 0.59579 0.26984 0.0
C2099 C 0.70373 0.57752 0.27125 0.0
C2100 C 0.71947 0.63265 0.26825 0.0
C2101 C 0.73597 0.6398 0.27911 0.0
C2102 C 0.71408 0.64539 0.25673 0.0
C2103 C 0.69778 0.63906 0.24348 0.0
C2104 C 0.69485 0.62202 0.23057 0.0
C2105 C 0.67934 0.61593 0.21833 0.0
C2106 C 0.66674 0.62688 0.21863 0.0
C2107 C 0.66963 0.64396 0.23125 0.0
C2108 C 0.68508 0.65006 0.24364 0.0
C2109 C 0.78197 0.71245 0.26487 0.0
C2110 C 0.77565 0.72939 0.26505 0.0
C2111 C 0.77103 0.69429 0.26544 0.0
C2112 C 0.75282 0.69157 0.26654 0.0
C2113 C 0.74623 0.70842 0.26632 0.0
C2114 C 0.75732 0.72683 0.26564 0.0
C2115 C 0.74117 0.67141 0.2678 0.0
C2116 C 0.72465 0.66422 0.25684 0.0
C2117 C 0.74652 0.65855 0.2792 0.0
C2118 C 0.7628 0.66455 0.29241 0.0
C2119 C 0.76551 0.68092 0.30617 0.0
C2120 C 0.78077 0.68626 0.31886 0.0
C2121 C 0.79335 0.67528 0.31799 0.0
C2122 C 0.79072 0.65894 0.3044 0.0
C2123 C 0.7755 0.65355 0.29166 0.0
H2124 H 0.80514 0.6794 0.32787 0.0
H2125 H 0.65475 0.62214 0.20909 0.0
H2126 H 0.89932 0.48588 0.7589 0.0
H2127 H 0.87684 0.45702 0.74831 0.0
H2128 H 0.90173 0.42817 0.78726 0.0
H2129 H 0.92465 0.45745 0.79808 0.0
H2130 H 0.88939 0.40575 0.75378 0.0
H2131 H 0.87019 0.44499 0.79968 0.0
H2132 H 0.86124 0.47129 0.81877 0.0
H2133 H 0.82188 0.4717 0.77408 0.0
H2134 H 0.83102 0.44583 0.75442 0.0
H2135 H 0.82412 0.35244 0.79262 0.0
H2136 H 0.84566 0.37853 0.78502 0.0
H2137 H 0.81523 0.37486 0.7316 0.0
H2138 H 0.79361 0.34799 0.73888 0.0
H2139 H 0.82872 0.41199 0.76131 0.0
H2140 H 0.84784 0.36166 0.72295 0.0
H2141 H 0.85687 0.33122 0.71549 0.0
H2142 H 0.8955 0.34701 0.76377 0.0
H2143 H 0.88701 0.37756 0.77143 0.0
C2144 C 0.90008 0.47333 0.76515 0.0
C2145 C 0.91334 0.47375 0.77958 0.0
C2146 C 0.88731 0.45696 0.75904 0.0
C2147 C 0.88763 0.44088 0.76733 0.0
C2148 C 0.90145 0.44073 0.78088 0.0
C2149 C 0.91441 0.45726 0.78702 0.0
C2150 C 0.87288 0.42467 0.76244 0.0
C2151 C 0.8761 0.40702 0.75544 0.0
C2152 C 0.85566 0.42668 0.76454 0.0
C2153 C 0.85166 0.44384 0.77534 0.0
C2154 C 0.86003 0.4511 0.79365 0.0
C2155 C 0.85482 0.46584 0.80465 0.0
C2156 C 0.84108 0.47326 0.7976 0.0
C2157 C 0.83262 0.46606 0.77947 0.0
C2158 C 0.83789 0.45145 0.76835 0.0
C2159 C 0.82165 0.35762 0.77956 0.0
C2160 C 0.8075 0.34834 0.76613 0.0
C2161 C 0.83419 0.37199 0.77501 0.0
C2162 C 0.83223 0.37745 0.75736 0.0
C2163 C 0.81704 0.36992 0.74489 0.0
C2164 C 0.8046 0.35517 0.74927 0.0
C2165 C 0.84533 0.39302 0.7536 0.0
C2166 C 0.84192 0.41091 0.75883 0.0
C2167 C 0.86249 0.39085 0.75174 0.0
C2168 C 0.86677 0.37191 0.74774 0.0
C2169 C 0.8581 0.35852 0.73211 0.0
C2170 C 0.86313 0.34122 0.72784 0.0
C2171 C 0.87653 0.337 0.73927 0.0
C2172 C 0.88503 0.35014 0.75498 0.0
C2173 C 0.88021 0.36751 0.75922 0.0
H2174 H 0.8804 0.32361 0.73588 0.0
H2175 H 0.83691 0.4845 0.80623 0.0
H2176 H 0.0583 0.86417 0.11601 0.0
H2177 H 0.05268 0.88933 0.09871 0.0
H2178 H 0.08179 0.86981 0.0552 0.0
H2179 H 0.087 0.84414 0.07222 0.0
H2180 H 0.09108 0.90933 0.06606 0.0
H2181 H 0.03934 0.86229 0.04425 0.0
H2182 H 0.01259 0.838 0.04553 0.0
H2183 H 0.99151 0.88005 0.07814 0.0
H2184 H 0.01823 0.90457 0.07715 0.0
H2185 H 0.07207 0.97722 0.01015 0.0
H2186 H 0.07545 0.94767 0.0209 0.0
H2187 H 0.03455 0.95154 0.05636 0.0
H2188 H 0.02993 0.97991 0.04381 0.0
H2189 H 0.03146 0.91757 0.04734 0.0
H2190 H 0.08681 0.96489 0.06927 0.0
H2191 H 0.11399 0.98715 0.06479 0.0
H2192 H 0.1287 0.94214 0.02912 0.0
H2193 H 0.10157 0.91975 0.03317 0.0
C2194 C 0.06364 0.86526 0.10282 0.0
C2195 C 0.07334 0.85218 0.09572 0.0
C2196 C 0.06024 0.8796 0.0928 0.0
C2197 C 0.0667 0.88158 0.0755 0.0
C2198 C 0.0766 0.86869 0.06846 0.0
C2199 C 0.07965 0.85403 0.07828 0.0
C2200 C 0.06362 0.89748 0.06524 0.0
C2201 C 0.07802 0.91104 0.06183 0.0
C2202 C 0.04666 0.89993 0.05964 0.0
C2203 C 0.03085 0.88518 0.06083 0.0
C2204 C 0.02909 0.8663 0.05189 0.0
C2205 C 0.0139 0.85251 0.05249 0.0
C2206 C 1.00038 0.85746 0.06196 0.0
C2207 C 1.00201 0.87622 0.07084 0.0
C2208 C 0.01716 0.89007 0.07024 0.0
C2209 C 0.06365 0.97157 0.02005 0.0
C2210 C 0.05069 0.98091 0.02604 0.0
C2211 C 0.06581 0.95475 0.02658 0.0
C2212 C 0.05583 0.94735 0.04027 0.0
C2213 C 0.04262 0.95664 0.04596 0.0
C2214 C 0.03995 0.97298 0.03877 0.0
C2215 C 0.05901 0.93014 0.04871 0.0
C2216 C 0.04457 0.91617 0.05173 0.0
C2217 C 0.07601 0.92719 0.05379 0.0
C2218 C 0.09217 0.94075 0.05141 0.0
C2219 C 0.09583 0.95981 0.06042 0.0
C2220 C 0.11121 0.97243 0.05795 0.0
C2221 C 0.123 0.96602 0.04666 0.0
C2222 C 0.11952 0.94705 0.03783 0.0
C2223 C 0.10417 0.93442 0.0402 0.0
H2224 H 0.13488 0.97569 0.04474 0.0
H2225 H 0.98862 0.84678 0.06239 0.0
H2226 H 0.95905 0.29517 0.90844 0.0
H2227 H 0.93382 0.29737 0.88803 0.0
H2228 H 0.94769 0.25928 0.8436 0.0
H2229 H 0.97383 0.25759 0.86412 0.0
H2230 H 0.93554 0.28405 0.82814 0.0
H2231 H 0.91189 0.24624 0.8721 0.0
H2232 H 0.90619 0.23693 0.90279 0.0
H2233 H 0.88523 0.28635 0.91718 0.0
H2234 H 0.89108 0.29611 0.88669 0.0
H2235 H 0.85112 0.26318 0.77546 0.0
H2236 H 0.87777 0.26266 0.79471 0.0
H2237 H 0.86843 0.30692 0.8362 0.0
H2238 H 0.84131 0.30758 0.8166 0.0
H2239 H 0.8781 0.27871 0.85263 0.0
H2240 H 0.90142 0.31522 0.80679 0.0
H2241 H 0.9059 0.32207 0.77502 0.0
H2242 H 0.92613 0.27184 0.76293 0.0
H2243 H 0.92154 0.26451 0.79458 0.0
C2244 C 0.95686 0.28711 0.89435 0.0
C2245 C 0.96861 0.27595 0.88819 0.0
C2246 C 0.94214 0.28829 0.88261 0.0
C2247 C 0.93819 0.27805 0.86423 0.0
C2248 C 0.95013 0.26725 0.85773 0.0
C2249 C 0.96516 0.26625 0.86951 0.0
C2250 C 0.92182 0.27904 0.852 0.0
C2251 C 0.92297 0.28256 0.83351 0.0
C2252 C 0.9052 0.27755 0.85875 0.0
C2253 C 0.90211 0.272 0.87724 0.0
C2254 C 0.90625 0.25522 0.88191 0.0
C2255 C 0.90295 0.24985 0.89924 0.0
C2256 C 0.8954 0.26107 0.91195 0.0
C2257 C 0.89112 0.2777 0.90735 0.0
C2258 C 0.89443 0.28316 0.89005 0.0
C2259 C 0.85465 0.27295 0.78864 0.0
C2260 C 0.84388 0.28545 0.79438 0.0
C2261 C 0.87012 0.2727 0.79965 0.0
C2262 C 0.8755 0.28489 0.81695 0.0
C2263 C 0.86475 0.29739 0.82288 0.0
C2264 C 0.84922 0.29781 0.81166 0.0
C2265 C 0.8919 0.28389 0.82895 0.0
C2266 C 0.89072 0.28027 0.84735 0.0
C2267 C 0.90837 0.28496 0.822 0.0
C2268 C 0.91098 0.28923 0.80296 0.0
C2269 C 0.90667 0.30554 0.79729 0.0
C2270 C 0.90925 0.30952 0.77931 0.0
C2271 C 0.91623 0.29738 0.76693 0.0
C2272 C 0.92069 0.28122 0.77252 0.0
C2273 C 0.91811 0.27714 0.79048 0.0
H2274 H 0.91824 0.30053 0.75302 0.0
H2275 H 0.89282 0.25685 0.92535 0.0
H2276 H 0.54562 0.25154 0.56976 0.0
H2277 H 0.53984 0.21718 0.55744 0.0
H2278 H 0.58545 0.21287 0.59262 0.0
H2279 H 0.59113 0.24708 0.60491 0.0
H2280 H 0.58599 0.19923 0.55578 0.0
H2281 H 0.54478 0.19352 0.60112 0.0
H2282 H 0.51903 0.19799 0.61677 0.0
H2283 H 0.48543 0.17363 0.56543 0.0
H2284 H 0.51102 0.16944 0.54935 0.0
H2285 H 0.58029 0.1002 0.54367 0.0
H2286 H 0.58159 0.13358 0.55616 0.0
H2287 H 0.5343 0.13152 0.5203 0.0
H2288 H 0.53273 0.09806 0.50803 0.0
H2289 H 0.53307 0.14821 0.55572 0.0
H2290 H 0.57262 0.15486 0.50981 0.0
H2291 H 0.59696 0.14645 0.49376 0.0
H2292 H 0.63203 0.16741 0.54469 0.0
H2293 H 0.60779 0.17568 0.56111 0.0
C2294 C 0.5541 0.24306 0.57513 0.0
C2295 C 0.56871 0.2517 0.58834 0.0
C2296 C 0.5508 0.22351 0.56814 0.0
C2297 C 0.5622 0.21249 0.57417 0.0
C2298 C 0.57648 0.22111 0.58783 0.0
C2299 C 0.57968 0.24056 0.59489 0.0
C2300 C 0.56041 0.19251 0.56499 0.0
C2301 C 0.57445 0.18808 0.55597 0.0
C2302 C 0.5451 0.17807 0.56452 0.0
C2303 C 0.52986 0.18151 0.57395 0.0
C2304 C 0.53194 0.18947 0.59307 0.0
C2305 C 0.51736 0.19187 0.60204 0.0
C2306 C 0.50061 0.18618 0.59208 0.0
C2307 C 0.49841 0.17811 0.57312 0.0
C2308 C 0.51295 0.17576 0.56406 0.0
C2309 C 0.5704 0.10699 0.53816 0.0
C2310 C 0.55649 0.09663 0.52479 0.0
C2311 C 0.57108 0.12599 0.54539 0.0
C2312 C 0.55805 0.13499 0.53909 0.0
C2313 C 0.54441 0.12479 0.5254 0.0
C2314 C 0.54363 0.10576 0.5183 0.0
C2315 C 0.55871 0.15507 0.5469 0.0
C2316 C 0.54449 0.1595 0.55548 0.0
C2317 C 0.57366 0.16962 0.54672 0.0
C2318 C 0.58844 0.16584 0.53667 0.0
C2319 C 0.58554 0.1577 0.51756 0.0
C2320 C 0.59929 0.15291 0.50841 0.0
C2321 C 0.61603 0.15638 0.51821 0.0
C2322 C 0.61906 0.16475 0.53713 0.0
C2323 C 0.60534 0.16953 0.54635 0.0
H2324 H 0.62666 0.15259 0.51112 0.0
H2325 H 0.48933 0.18797 0.59909 0.0
H2326 H 0.57461 0.80697 0.40326 0.0
H2327 H 0.60252 0.81361 0.38992 0.0
H2328 H 0.59059 0.75612 0.35961 0.0
H2329 H 0.56225 0.74973 0.37225 0.0
H2330 H 0.62674 0.77104 0.38135 0.0
H2331 H 0.58536 0.78757 0.3363 0.0
H2332 H 0.56382 0.80563 0.32678 0.0
H2333 H 0.60202 0.85825 0.34487 0.0
H2334 H 0.62366 0.84048 0.35492 0.0
H2335 H 0.6838 0.76539 0.31293 0.0
H2336 H 0.65903 0.76484 0.33086 0.0
H2337 H 0.67137 0.82629 0.34223 0.0
H2338 H 0.69655 0.82699 0.32439 0.0
H2339 H 0.63693 0.81375 0.33379 0.0
H2340 H 0.67858 0.80108 0.3769 0.0
H2341 H 0.70182 0.78652 0.3892 0.0
H2342 H 0.66594 0.73176 0.37954 0.0
H2343 H 0.64258 0.74594 0.36678 0.0
C2344 C 0.57797 0.79573 0.39378 0.0
C2345 C 0.56623 0.77779 0.38882 0.0
C2346 C 0.59391 0.79957 0.38612 0.0
C2347 C 0.59874 0.78538 0.37373 0.0
C2348 C 0.58719 0.76731 0.36911 0.0
C2349 C 0.57098 0.76367 0.37629 0.0
C2350 C 0.61568 0.78932 0.36541 0.0
C2351 C 0.62887 0.78019 0.37078 0.0
C2352 C 0.61903 0.80214 0.35244 0.0
C2353 C 0.606 0.81274 0.34659 0.0
C2354 C 0.58908 0.803 0.33849 0.0
C2355 C 0.57687 0.81318 0.33296 0.0
C2356 C 0.58153 0.83308 0.33527 0.0
C2357 C 0.59841 0.84284 0.34313 0.0
C2358 C 0.61064 0.83273 0.34877 0.0
C2359 C 0.68154 0.77886 0.31945 0.0
C2360 C 0.69245 0.79624 0.31716 0.0
C2361 C 0.66722 0.77852 0.32973 0.0
C2362 C 0.66326 0.79551 0.33818 0.0
C2363 C 0.67401 0.81294 0.33587 0.0
C2364 C 0.68844 0.81331 0.32557 0.0
C2365 C 0.64776 0.79475 0.34908 0.0
C2366 C 0.6349 0.80462 0.34438 0.0
C2367 C 0.64494 0.78311 0.36316 0.0
C2368 C 0.65889 0.77451 0.37075 0.0
C2369 C 0.6757 0.7859 0.37724 0.0
C2370 C 0.68889 0.77772 0.38431 0.0
C2371 C 0.68536 0.75822 0.38513 0.0
C2372 C 0.66865 0.74686 0.37888 0.0
C2373 C 0.65543 0.75495 0.37173 0.0
H2374 H 0.69559 0.7519 0.39064 0.0
H2375 H 0.57207 0.84094 0.33092 0.0
H2376 H 0.10546 0.27121 0.40914 0.0
H2377 H 0.09505 0.2398 0.41823 0.0
H2378 H 0.04158 0.24402 0.40529 0.0
H2379 H 0.05197 0.27532 0.39647 0.0
H2380 H 0.04869 0.23856 0.44097 0.0
H2381 H 0.0554 0.21002 0.37968 0.0
H2382 H 0.07098 0.20558 0.35187 0.0
H2383 H 0.11125 0.18874 0.38491 0.0
H2384 H 0.09601 0.19333 0.41297 0.0
H2385 H 0.01859 0.14787 0.47105 0.0
H2386 H 0.022 0.17375 0.45228 0.0
H2387 H 0.07762 0.17717 0.45625 0.0
H2388 H 0.07434 0.15158 0.47481 0.0
H2389 H 0.06485 0.17702 0.42131 0.0
H2390 H 0.0589 0.20844 0.48329 0.0
H2391 H 0.04488 0.2168 0.51146 0.0
H2392 H 1.00354 0.23064 0.47729 0.0
H2393 H 0.01711 0.22195 0.44887 0.0
C2394 C 0.09154 0.265 0.40762 0.0
C2395 C 0.07944 0.27535 0.4021 0.0
C2396 C 0.0856 0.24719 0.41283 0.0
C2397 C 0.06755 0.23973 0.41243 0.0
C2398 C 0.05552 0.24961 0.4057 0.0
C2399 C 0.06145 0.26734 0.40059 0.0
C2400 C 0.06125 0.22279 0.42106 0.0
C2401 C 0.05184 0.22492 0.43646 0.0
C2402 C 0.06563 0.20525 0.41526 0.0
C2403 C 0.07463 0.20209 0.3984 0.0
C2404 C 0.06762 0.20545 0.38101 0.0
C2405 C 0.07638 0.2029 0.36521 0.0
C2406 C 0.09211 0.1969 0.36662 0.0
C2407 C 0.09907 0.19338 0.38383 0.0
C2408 C 0.09036 0.19591 0.39968 0.0
C2409 C 0.03152 0.15422 0.46791 0.0
C2410 C 0.04619 0.14761 0.47422 0.0
C2411 C 0.03344 0.16896 0.45723 0.0
C2412 C 0.05007 0.17734 0.45292 0.0
C2413 C 0.06465 0.17076 0.45928 0.0
C2414 C 0.06275 0.15608 0.46981 0.0
C2415 C 0.05262 0.19286 0.44165 0.0
C2416 C 0.06132 0.19049 0.42565 0.0
C2417 C 0.04754 0.21021 0.44694 0.0
C2418 C 0.03883 0.21415 0.46392 0.0
C2419 C 0.04663 0.21288 0.48174 0.0
C2420 C 0.03881 0.21777 0.49777 0.0
C2421 C 0.02328 0.22415 0.49616 0.0
C2422 C 0.01551 0.2256 0.47852 0.0
C2423 C 0.02323 0.22063 0.46245 0.0
H2424 H 0.01731 0.22806 0.5086 0.0
H2425 H 0.09889 0.19496 0.35438 0.0
H2426 H 0.53949 0.25568 0.18269 0.0
H2427 H 0.5663 0.25576 0.2023 0.0
H2428 H 0.59691 0.28395 0.16349 0.0
H2429 H 0.57022 0.28351 0.14355 0.0
H2430 H 0.60767 0.25347 0.17109 0.0
H2431 H 0.5905 0.30669 0.20707 0.0
H2432 H 0.57141 0.32248 0.2259 0.0
H2433 H 0.57339 0.28446 0.26592 0.0
H2434 H 0.5922 0.26819 0.24709 0.0
H2435 H 0.69208 0.28783 0.21609 0.0
H2436 H 0.66224 0.28788 0.20371 0.0
H2437 H 0.64191 0.25348 0.24418 0.0
H2438 H 0.67172 0.25294 0.25636 0.0
H2439 H 0.6242 0.28261 0.23813 0.0
H2440 H 0.64289 0.2312 0.20415 0.0
H2441 H 0.66188 0.21475 0.18586 0.0
H2442 H 0.65655 0.24821 0.14229 0.0
H2443 H 0.6379 0.26523 0.16055 0.0
C2444 C 0.55193 0.26212 0.17845 0.0
C2445 C 0.5528 0.26958 0.16155 0.0
C2446 C 0.5672 0.26219 0.18971 0.0
C2447 C 0.5835 0.26999 0.18437 0.0
C2448 C 0.58438 0.27786 0.16779 0.0
C2449 C 0.56916 0.27761 0.15643 0.0
C2450 C 0.5998 0.26893 0.19524 0.0
C2451 C 0.61137 0.26006 0.18568 0.0
C2452 C 0.60414 0.27659 0.21454 0.0
C2453 C 0.59249 0.28605 0.22552 0.0
C2454 C 0.58665 0.30153 0.21973 0.0
C2455 C 0.57593 0.31059 0.23044 0.0
C2456 C 0.57113 0.30443 0.24705 0.0
C2457 C 0.57705 0.28918 0.25301 0.0
C2458 C 0.58772 0.28001 0.24232 0.0
C2459 C 0.68124 0.28048 0.22248 0.0
C2460 C 0.6841 0.27012 0.23693 0.0
C2461 C 0.66429 0.28053 0.21543 0.0
C2462 C 0.65006 0.27033 0.22285 0.0
C2463 C 0.65286 0.2613 0.23829 0.0
C2464 C 0.66984 0.26112 0.24527 0.0
C2465 C 0.63232 0.26815 0.21361 0.0
C2466 C 0.62042 0.27603 0.22354 0.0
C2467 C 0.6276 0.25951 0.19463 0.0
C2468 C 0.6392 0.24966 0.18385 0.0
C2469 C 0.64599 0.23526 0.19081 0.0
C2470 C 0.65666 0.2258 0.18041 0.0
C2471 C 0.66047 0.23047 0.16295 0.0
C2472 C 0.65363 0.24464 0.15584 0.0
C2473 C 0.64304 0.25422 0.16623 0.0
H2474 H 0.66868 0.22307 0.15488 0.0
H2475 H 0.56287 0.31151 0.25535 0.0
H2476 H 0.60067 0.88924 0.88283 0.0
H2477 H 0.59027 0.91647 0.8984 0.0
H2478 H 0.57596 0.88551 0.94337 0.0
H2479 H 0.58725 0.85927 0.92897 0.0
H2480 H 0.54937 0.90334 0.92685 0.0
H2481 H 0.60932 0.91343 0.95346 0.0
H2482 H 0.64105 0.91746 0.9524 0.0
H2483 H 0.6423 0.96751 0.92689 0.0
H2484 H 0.61042 0.96342 0.92732 0.0
H2485 H 0.5408 0.96856 0.00633 0.0
H2486 H 0.54752 0.94318 0.98398 0.0
H2487 H 0.57095 0.98516 0.9515 0.0
H2488 H 0.56534 0.01038 0.97452 0.0
H2489 H 0.59161 0.96256 0.95806 0.0
H2490 H 0.53043 0.95344 0.93577 0.0
H2491 H 0.49913 0.94875 0.93986 0.0
H2492 H 0.5005 0.89644 0.96044 0.0
H2493 H 0.53188 0.90097 0.95669 0.0
C2494 C 0.59543 0.8884 0.8961 0.0
C2495 C 0.59459 0.87207 0.90455 0.0
C2496 C 0.5894 0.90378 0.90483 0.0
C2497 C 0.58218 0.90264 0.92177 0.0
C2498 C 0.58127 0.88638 0.93012 0.0
C2499 C 0.58776 0.8714 0.92181 0.0
C2500 C 0.57632 0.91869 0.93163 0.0
C2501 C 0.55851 0.91639 0.93359 0.0
C2502 C 0.58838 0.93547 0.94041 0.0
C2503 C 0.60746 0.93785 0.93999 0.0
C2504 C 0.6163 0.92508 0.9473 0.0
C2505 C 0.63432 0.92741 0.94688 0.0
C2506 C 0.64367 0.94265 0.93946 0.0
C2507 C 0.63502 0.95563 0.93251 0.0
C2508 C 0.61697 0.95329 0.9328 0.0
C2509 C 0.54703 0.97215 0.99415 0.0
C2510 C 0.5519 0.99113 0.99147 0.0
C2511 C 0.5508 0.95776 0.98141 0.0
C2512 C 0.5593 0.96233 0.96586 0.0
C2513 C 0.56407 0.98137 0.96323 0.0
C2514 C 0.56055 0.99572 0.97612 0.0
C2515 C 0.56451 0.94747 0.95312 0.0
C2516 C 0.58229 0.94984 0.95084 0.0
C2517 C 0.55242 0.93065 0.94429 0.0
C2518 C 0.53348 0.92761 0.94604 0.0
C2519 C 0.52405 0.94098 0.94122 0.0
C2520 C 0.50631 0.93835 0.94348 0.0
C2521 C 0.49784 0.92232 0.95044 0.0
C2522 C 0.50708 0.90885 0.95506 0.0
C2523 C 0.52483 0.91142 0.95283 0.0
H2524 H 0.4841 0.92034 0.95222 0.0
H2525 H 0.65764 0.94447 0.93919 0.0
H2526 H 0.95427 0.78035 0.66201 0.0
H2527 H 0.93086 0.784 0.68138 0.0
H2528 H 0.93571 0.73318 0.70379 0.0
H2529 H 0.95983 0.72992 0.68489 0.0
H2530 H 0.89947 0.73781 0.68807 0.0
H2531 H 0.95044 0.76708 0.7325 0.0
H2532 H 0.97914 0.78863 0.74404 0.0
H2533 H 0.95805 0.83695 0.73509 0.0
H2534 H 0.92926 0.81563 0.72323 0.0
H2535 H 0.84212 0.74986 0.75525 0.0
H2536 H 0.86799 0.74418 0.74122 0.0
H2537 H 0.87887 0.80152 0.7286 0.0
H2538 H 0.8533 0.8075 0.74307 0.0
H2539 H 0.90789 0.79189 0.7407 0.0
H2540 H 0.85805 0.76406 0.69465 0.0
H2541 H 0.82875 0.74375 0.68312 0.0
H2542 H 0.8469 0.6942 0.69416 0.0
H2543 H 0.87629 0.71426 0.70584 0.0
C2544 C 0.9502 0.7699 0.67097 0.0
C2545 C 0.95852 0.75477 0.67202 0.0
C2546 C 0.93701 0.77206 0.68204 0.0
C2547 C 0.93181 0.75889 0.69392 0.0
C2548 C 0.93978 0.74346 0.69467 0.0
C2549 C 0.9534 0.7416 0.68396 0.0
C2550 C 0.91786 0.76137 0.70537 0.0
C2551 C 0.9013 0.74935 0.69985 0.0
C2552 C 0.92037 0.7769 0.72017 0.0
C2553 C 0.93777 0.78973 0.72673 0.0
C2554 C 0.95199 0.78227 0.73273 0.0
C2555 C 0.96825 0.79445 0.73941 0.0
C2556 C 0.97044 0.81414 0.74024 0.0
C2557 C 0.95635 0.82169 0.7344 0.0
C2558 C 0.94006 0.80957 0.7277 0.0
C2559 C 0.85021 0.76133 0.74975 0.0
C2560 C 0.84578 0.77907 0.75016 0.0
C2561 C 0.86485 0.75803 0.74167 0.0
C2562 C 0.87499 0.77232 0.7336 0.0
C2563 C 0.87108 0.79034 0.73475 0.0
C2564 C 0.85655 0.79374 0.74307 0.0
C2565 C 0.88943 0.76831 0.72348 0.0
C2566 C 0.90605 0.78017 0.7291 0.0
C2567 C 0.8869 0.75281 0.70858 0.0
C2568 C 0.86932 0.74067 0.70126 0.0
C2569 C 0.85577 0.74884 0.69468 0.0
C2570 C 0.83916 0.73737 0.68809 0.0
C2571 C 0.83596 0.71769 0.68793 0.0
C2572 C 0.8494 0.70944 0.69428 0.0
C2573 C 0.86604 0.72084 0.70084 0.0
H2574 H 0.82308 0.70884 0.68289 0.0
H2575 H 0.98303 0.82355 0.74546 0.0
H2576 H 0.11547 1.00809 0.80425 0.0
H2577 H 0.09956 0.00965 0.83171 0.0
H2578 H 0.14836 0.02424 0.86787 0.0
H2579 H 0.1642 0.0213 0.84017 0.0
H2580 H 0.12972 1.00777 0.88787 0.0
H2581 H 0.11108 0.055 0.85416 0.0
H2582 H 0.09703 0.06657 0.8277 0.0
H2583 H 0.04918 0.02565 0.8288 0.0
H2584 H 0.06304 0.01366 0.85504 0.0
H2585 H 0.09156 0.03614 0.97321 0.0
H2586 H 0.10735 0.03454 0.94516 0.0
H2587 H 0.05835 0.01369 0.90977 0.0
H2588 H 0.04278 0.0154 0.93743 0.0
H2589 H 0.07625 0.03322 0.88943 0.0
H2590 H 0.0919 0.98572 0.92062 0.0
H2591 H 0.10311 0.97187 0.94699 0.0
H2592 H 0.15348 0.00968 0.94963 0.0
H2593 H 0.14244 0.02398 0.92346 0.0
C2594 C 0.12302 0.01174 0.818 0.0
C2595 C 0.14157 0.01465 0.81924 0.0
C2596 C 0.11368 0.01295 0.83418 0.0
C2597 C 0.12217 0.0178 0.853 0.0
C2598 C 0.14076 0.02057 0.85418 0.0
C2599 C 0.15009 0.01896 0.83795 0.0
C2600 C 0.11211 0.01953 0.87111 0.0
C2601 C 0.11826 0.01381 0.88795 0.0
C2602 C 0.0963 0.0264 0.87234 0.0
C2603 C 0.08815 0.03332 0.85636 0.0
C2604 C 0.09761 0.0484 0.84863 0.0
C2605 C 0.08968 0.05502 0.83369 0.0
C2606 C 0.07224 0.04682 0.82654 0.0
C2607 C 0.0627 0.03196 0.8343 0.0
C2608 C 0.07059 0.02523 0.84918 0.0
C2609 C 0.08404 0.03117 0.95952 0.0
C2610 C 0.0655 0.02583 0.95831 0.0
C2611 C 0.09323 0.0301 0.9431 0.0
C2612 C 0.08453 0.02368 0.92439 0.0
C2613 C 0.06602 0.01872 0.92336 0.0
C2614 C 0.05693 0.01965 0.93964 0.0
C2615 C 0.09424 0.022 0.90613 0.0
C2616 C 0.08789 0.0275 0.88931 0.0
C2617 C 0.10961 0.01458 0.90475 0.0
C2618 C 0.11633 1.00603 0.92029 0.0
C2619 C 0.10533 0.99115 0.92693 0.0
C2620 C 0.11165 0.98322 0.94182 0.0
C2621 C 0.12898 0.98993 0.95002 0.0
C2622 C 0.14005 1.00454 0.9433 0.0
C2623 C 0.13377 0.01257 0.92845 0.0
H2624 H 0.13386 0.98377 0.96156 0.0
H2625 H 0.06612 0.05201 0.815 0.0
H2626 H 0.7887 0.40055 0.55333 0.0
H2627 H 0.7984 0.39611 0.58506 0.0
H2628 H 0.85232 0.41163 0.57447 0.0
H2629 H 0.84258 0.41571 0.54267 0.0
H2630 H 0.84065 0.37412 0.57935 0.0
H2631 H 0.84119 0.4369 0.61211 0.0
H2632 H 0.82826 0.46491 0.61839 0.0
H2633 H 0.78293 0.42992 0.63507 0.0
H2634 H 0.79559 0.40171 0.62878 0.0
H2635 H 0.85838 0.34046 0.66653 0.0
H2636 H 0.86044 0.36106 0.64236 0.0
H2637 H 0.80434 0.35459 0.63687 0.0
H2638 H 0.80217 0.33385 0.66064 0.0
H2639 H 0.8243 0.39257 0.64283 0.0
H2640 H 0.81813 0.33087 0.6061 0.0
H2641 H 0.82572 0.30002 0.59647 0.0
H2642 H 0.87544 0.32906 0.58323 0.0
H2643 H 0.86829 0.36014 0.59325 0.0
C2644 C 0.80256 0.40379 0.5582 0.0
C2645 C 0.815 0.40808 0.54597 0.0
C2646 C 0.80811 0.40141 0.57622 0.0
C2647 C 0.82604 0.40362 0.58184 0.0
C2648 C 0.83848 0.41003 0.57021 0.0
C2649 C 0.83294 0.41223 0.5522 0.0
C2650 C 0.83128 0.39497 0.59762 0.0
C2651 C 0.83775 0.37851 0.59346 0.0
C2652 C 0.82665 0.40034 0.61555 0.0
C2653 C 0.81935 0.41731 0.62006 0.0
C2654 C 0.82849 0.43524 0.61715 0.0
C2655 C 0.8212 0.45112 0.6207 0.0
C2656 C 0.80479 0.4492 0.62714 0.0
C2657 C 0.79566 0.4314 0.63014 0.0
C2658 C 0.80292 0.41548 0.62667 0.0
C2659 C 0.84655 0.34334 0.65991 0.0
C2660 C 0.83013 0.33586 0.66522 0.0
C2661 C 0.84776 0.35504 0.64634 0.0
C2662 C 0.83255 0.35919 0.63825 0.0
C2663 C 0.81615 0.35151 0.64334 0.0
C2664 C 0.81493 0.33978 0.65677 0.0
C2665 C 0.83351 0.37176 0.62446 0.0
C2666 C 0.82807 0.38875 0.62898 0.0
C2667 C 0.83849 0.36648 0.60664 0.0
C2668 C 0.84287 0.34782 0.60084 0.0
C2669 C 0.83081 0.33069 0.60146 0.0
C2670 C 0.835 0.31316 0.59586 0.0
C2671 C 0.85111 0.31258 0.58936 0.0
C2672 C 0.86302 0.32953 0.58837 0.0
C2673 C 0.85892 0.34711 0.59405 0.0
H2674 H 0.85432 0.29899 0.58499 0.0
H2675 H 0.79914 0.46151 0.62981 0.0
H2676 H 0.43138 0.00982 0.33455 0.0
H2677 H 0.44971 1.00164 0.3599 0.0
H2678 H 0.48145 0.0592 0.36968 0.0
H2679 H 0.46372 0.06694 0.34381 0.0
H2680 H 0.5009 0.03271 0.36907 0.0
H2681 H 0.44807 0.04572 0.39477 0.0
H2682 H 0.41591 0.03805 0.39347 0.0
H2683 H 0.41663 0.98113 0.40269 0.0
H2684 H 0.4488 0.98838 0.4036 0.0
H2685 H 0.54367 0.06211 0.45929 0.0
H2686 H 0.52347 0.05871 0.43075 0.0
H2687 H 0.49843 1.00195 0.43877 0.0
H2688 H 0.5177 1.00589 0.46788 0.0
H2689 H 0.47529 0.01909 0.42729 0.0
H2690 H 0.53074 0.01054 0.40851 0.0
H2691 H 0.56274 0.02003 0.40871 0.0
H2692 H 0.55736 0.07029 0.38613 0.0
H2693 H 0.52538 0.06131 0.38613 0.0
C2694 C 0.44205 0.02071 0.34256 0.0
C2695 C 0.44607 0.03912 0.3381 0.0
C2696 C 0.45258 0.01598 0.35663 0.0
C2697 C 0.46681 0.02986 0.36639 0.0
C2698 C 0.47055 0.04835 0.36204 0.0
C2699 C 0.46029 0.0529 0.34773 0.0
C2700 C 0.47732 0.02593 0.38214 0.0
C2701 C 0.49542 0.02956 0.38182 0.0
C2702 C 0.46986 0.02142 0.39836 0.0
C2703 C 0.45075 0.01753 0.39912 0.0
C2704 C 0.44134 0.03158 0.39654 0.0
C2705 C 0.42313 0.02729 0.39579 0.0
C2706 C 0.41423 0.0091 0.39796 0.0
C2707 C 0.42354 0.9952 0.40098 0.0
C2708 C 0.44176 0.99938 0.4016 0.0
C2709 C 0.53376 0.04902 0.45487 0.0
C2710 C 0.53222 0.03412 0.46526 0.0
C2711 C 0.52235 0.04704 0.43868 0.0
C2712 C 0.50995 0.02983 0.43252 0.0
C2713 C 0.50808 0.01522 0.44332 0.0
C2714 C 0.51908 0.01745 0.45979 0.0
C2715 C 0.49907 0.02689 0.41461 0.0
C2716 C 0.48089 0.0217 0.41447 0.0
C2717 C 0.5065 0.03022 0.39799 0.0
C2718 C 0.52568 0.03524 0.39733 0.0
C2719 C 0.53639 0.02362 0.4036 0.0
C2720 C 0.55453 0.02894 0.40372 0.0
C2721 C 0.56208 0.04575 0.39743 0.0
C2722 C 0.5515 0.05727 0.39097 0.0
C2723 C 0.53337 0.05206 0.39089 0.0
H2724 H 0.57612 0.04985 0.39756 0.0
H2725 H 0.40011 1.00578 0.39734 0.0
H2726 H 0.80189 0.69286 0.05516 0.0
H2727 H 0.80651 0.70438 0.08913 0.0
H2728 H 0.78746 0.75422 0.08004 0.0
H2729 H 0.7833 0.74323 0.04643 0.0
H2730 H 0.81351 0.76416 0.10723 0.0
H2731 H 0.7612 0.71184 0.09134 0.0
H2732 H 0.74484 0.67864 0.08031 0.0
H2733 H 0.77733 0.65911 0.12046 0.0
H2734 H 0.79403 0.69215 0.13151 0.0
H2735 H 0.78058 0.79172 0.19373 0.0
H2736 H 0.78321 0.78093 0.16044 0.0
H2737 H 0.80449 0.73449 0.17605 0.0
H2738 H 0.8018 0.74504 0.20885 0.0
H2739 H 0.78067 0.7223 0.14674 0.0
H2740 H 0.83113 0.77236 0.16522 0.0
H2741 H 0.84827 0.80472 0.17845 0.0
H2742 H 0.82186 0.82769 0.1359 0.0
H2743 H 0.80438 0.79547 0.12255 0.0
C2744 C 0.79887 0.70637 0.0604 0.0
C2745 C 0.79196 0.71693 0.04799 0.0
C2746 C 0.80147 0.71292 0.07984 0.0
C2747 C 0.79705 0.73005 0.08721 0.0
C2748 C 0.79095 0.74097 0.07477 0.0
C2749 C 0.78845 0.73453 0.05546 0.0
C2750 C 0.79756 0.73626 0.10779 0.0
C2751 C 0.80624 0.75503 0.11584 0.0
C2752 C 0.78859 0.72424 0.11929 0.0
C2753 C 0.77898 0.70439 0.11206 0.0
C2754 C 0.76498 0.70042 0.09764 0.0
C2755 C 0.75562 0.68164 0.09142 0.0
C2756 C 0.76008 0.66677 0.09964 0.0
C2757 C 0.77393 0.67063 0.11406 0.0
C2758 C 0.78335 0.68936 0.12028 0.0
C2759 C 0.78546 0.77902 0.18988 0.0
C2760 C 0.79086 0.7691 0.20372 0.0
C2761 C 0.78721 0.77303 0.17099 0.0
C2762 C 0.79424 0.75701 0.16583 0.0
C2763 C 0.79909 0.74687 0.17968 0.0
C2764 C 0.79748 0.75289 0.1984 0.0
C2765 C 0.79618 0.75027 0.146 0.0
C2766 C 0.78804 0.73141 0.13816 0.0
C2767 C 0.80592 0.76209 0.13489 0.0
C2768 C 0.81631 0.78151 0.14298 0.0
C2769 C 0.82885 0.78433 0.15878 0.0
C2770 C 0.83866 0.80265 0.16629 0.0
C2771 C 0.83612 0.81826 0.15805 0.0
C2772 C 0.8238 0.81558 0.14228 0.0
C2773 C 0.81394 0.7973 0.13473 0.0
H2774 H 0.84374 0.83243 0.16385 0.0
H2775 H 0.75276 0.65225 0.09487 0.0
H2776 H 0.15678 0.01042 0.70277 0.0
H2777 H 0.14397 0.0118 0.67082 0.0
H2778 H 0.09357 0.00955 0.69042 0.0
H2779 H 0.10594 1.00706 0.72153 0.0
H2780 H 0.0852 0.99397 0.65795 0.0
H2781 H 0.12675 0.05304 0.68084 0.0
H2782 H 0.15552 0.07431 0.69272 0.0
H2783 H 0.17634 0.05414 0.64281 0.0
H2784 H 0.14777 0.03244 0.63083 0.0
H2785 H 0.04926 0.03959 0.58445 0.0
H2786 H 0.06222 0.03361 0.6147 0.0
H2787 H 0.10441 0.01681 0.58765 0.0
H2788 H 0.09112 0.02194 0.55743 0.0
H2789 H 0.11675 0.04127 0.62264 0.0
H2790 H 0.07369 0.98378 0.59915 0.0
H2791 H 0.04385 0.96568 0.58656 0.0
H2792 H 0.02478 0.98535 0.63774 0.0
H2793 H 0.05447 1.00394 0.65054 0.0
C2794 C 0.14288 0.00965 0.70021 0.0
C2795 C 0.13264 0.00853 0.71529 0.0
C2796 C 0.13547 0.01088 0.68177 0.0
C2797 C 0.11755 0.01143 0.6776 0.0
C2798 C 0.10731 0.00933 0.69252 0.0
C2799 C 0.11459 1.00791 0.71068 0.0
C2800 C 0.10939 0.01468 0.65834 0.0
C2801 C 0.09223 1.00453 0.65053 0.0
C2802 C 0.11801 0.02821 0.64775 0.0
C2803 C 0.13522 0.04098 0.65506 0.0
C2804 C 0.13752 0.05304 0.67249 0.0
C2805 C 0.15378 0.06518 0.67923 0.0
C2806 C 0.16777 0.06557 0.66854 0.0
C2807 C 0.16552 0.05379 0.6511 0.0
C2808 C 0.14931 0.04155 0.64434 0.0
C2809 C 0.06135 0.03471 0.58493 0.0
C2810 C 0.06907 0.03137 0.56821 0.0
C2811 C 0.06879 0.03117 0.60236 0.0
C2812 C 0.08453 0.02467 0.60391 0.0
C2813 C 0.09239 0.0218 0.58726 0.0
C2814 C 0.08469 0.02475 0.56981 0.0
C2815 C 0.09278 0.02073 0.62259 0.0
C2816 C 0.10985 0.03073 0.6302 0.0
C2817 C 0.08399 1.00727 0.63305 0.0
C2818 C 0.06628 0.99548 0.62572 0.0
C2819 C 0.06313 0.98436 0.60769 0.0
C2820 C 0.04624 0.97402 0.60051 0.0
C2821 C 0.03242 0.97454 0.61126 0.0
C2822 C 0.0355 0.98511 0.62937 0.0
C2823 C 0.05236 0.99554 0.63661 0.0
H2824 H 0.01932 0.96672 0.60556 0.0
H2825 H 0.18034 0.07503 0.67376 0.0
H2826 H 0.81553 0.42313 0.43826 0.0
H2827 H 0.82487 0.40572 0.4108 0.0
H2828 H 0.80335 0.35234 0.42876 0.0
H2829 H 0.79445 0.36947 0.4561 0.0
H2830 H 0.83161 0.34995 0.4115 0.0
H2831 H 0.77769 0.3712 0.40245 0.0
H2832 H 0.76144 0.3968 0.40523 0.0
H2833 H 0.79325 0.42558 0.36806 0.0
H2834 H 0.80994 0.40031 0.36544 0.0
H2835 H 0.79374 0.28201 0.33019 0.0
H2836 H 0.79992 0.30365 0.36028 0.0
H2837 H 0.81975 0.35082 0.33205 0.0
H2838 H 0.81208 0.32977 0.30206 0.0
H2839 H 0.79721 0.35917 0.3542 0.0
H2840 H 0.84741 0.33004 0.36016 0.0
H2841 H 0.8599 0.30156 0.35923 0.0
H2842 H 0.8302 0.28378 0.40318 0.0
H2843 H 0.8174 0.31204 0.40419 0.0
C2844 C 0.81287 0.40769 0.43624 0.0
C2845 C 0.80379 0.39748 0.44874 0.0
C2846 C 0.81849 0.39786 0.42088 0.0
C2847 C 0.81464 0.37784 0.41786 0.0
C2848 C 0.80653 0.3678 0.431 0.0
C2849 C 0.80114 0.37757 0.44636 0.0
C2850 C 0.8157 0.36705 0.39957 0.0
C2851 C 0.82435 0.35209 0.39885 0.0
C2852 C 0.80584 0.36965 0.38334 0.0
C2853 C 0.7951 0.38405 0.38387 0.0
C2854 C 0.78118 0.38301 0.39487 0.0
C2855 C 0.77195 0.39747 0.39648 0.0
C2856 C 0.77634 0.41284 0.38686 0.0
C2857 C 0.78989 0.41369 0.37553 0.0
C2858 C 0.79925 0.39933 0.37398 0.0
C2859 C 0.79966 0.29695 0.33054 0.0
C2860 C 0.80282 0.30422 0.31397 0.0
C2861 C 0.80327 0.30923 0.34766 0.0
C2862 C 0.81062 0.3287 0.3483 0.0
C2863 C 0.81423 0.33579 0.33177 0.0
C2864 C 0.8101 0.32369 0.3147 0.0
C2865 C 0.81336 0.34211 0.36594 0.0
C2866 C 0.80511 0.35742 0.36658 0.0
C2867 C 0.82313 0.33941 0.38219 0.0
C2868 C 0.83153 0.32309 0.38227 0.0
C2869 C 0.84361 0.32006 0.36965 0.0
C2870 C 0.8507 0.30395 0.36908 0.0
C2871 C 0.84585 0.29088 0.38115 0.0
C2872 C 0.83397 0.29393 0.39387 0.0
C2873 C 0.82684 0.31001 0.39449 0.0
H2874 H 0.85131 0.27837 0.38064 0.0
H2875 H 0.76921 0.42407 0.38816 0.0
H2876 H 0.42103 0.01384 0.23318 0.0
H2877 H 0.4242 1.00547 0.19979 0.0
H2878 H 0.48039 0.02331 0.21291 0.0
H2879 H 0.47734 0.03193 0.24586 0.0
H2880 H 0.46764 0.03929 0.18556 0.0
H2881 H 0.46002 0.9787 0.20627 0.0
H2882 H 0.44514 0.94993 0.21766 0.0
H2883 H 0.40719 0.9359 0.16866 0.0
H2884 H 0.42148 0.96504 0.15731 0.0
H2885 H 0.51843 1.00126 0.12541 0.0
H2886 H 0.50138 1.00323 0.1516 0.0
H2887 H 0.45411 0.99331 0.11329 0.0
H2888 H 0.4712 0.99105 0.08657 0.0
H2889 H 0.45395 0.9742 0.14817 0.0
H2890 H 0.46706 0.04191 0.1322 0.0
H2891 H 0.486 0.07239 0.12808 0.0
H2892 H 0.52264 0.06909 0.17418 0.0
H2893 H 0.50338 0.03923 0.17932 0.0
C2894 C 0.434 0.01622 0.22875 0.0
C2895 C 0.44901 0.02369 0.24181 0.0
C2896 C 0.43575 0.0112 0.20988 0.0
C2897 C 0.45247 0.01375 0.20418 0.0
C2898 C 0.46738 0.02127 0.21724 0.0
C2899 C 0.46566 0.02623 0.23596 0.0
C2900 C 0.45496 0.00983 0.18449 0.0
C2901 C 0.46444 0.02506 0.17727 0.0
C2902 C 0.4506 0.99129 0.17384 0.0
C2903 C 0.44151 0.97437 0.18122 0.0
C2904 C 0.44823 0.96979 0.19816 0.0
C2905 C 0.43995 0.95334 0.20457 0.0
C2906 C 0.42514 0.94117 0.19396 0.0
C2907 C 0.41856 0.94543 0.17694 0.0
C2908 C 0.4267 0.96196 0.17057 0.0
C2909 C 0.50432 0.99857 0.12243 0.0
C2910 C 0.49606 0.99601 0.104 0.0
C2911 C 0.49469 1.00008 0.13742 0.0
C2912 C 0.47675 0.99898 0.1341 0.0
C2913 C 0.46809 0.99449 0.11583 0.0
C2914 C 0.47777 0.99304 0.10071 0.0
C2915 C 0.46744 1.00348 0.14996 0.0
C2916 C 0.45649 0.98847 0.15623 0.0
C2917 C 0.47146 0.02197 0.16057 0.0
C2918 C 0.48405 0.03818 0.15577 0.0
C2919 C 0.47935 0.04749 0.14115 0.0
C2920 C 0.49007 0.06471 0.13873 0.0
C2921 C 0.50575 0.0724 0.15048 0.0
C2922 C 0.51063 0.06301 0.16491 0.0
C2923 C 0.49976 0.04603 0.16767 0.0
H2924 H 0.51398 0.08575 0.14855 0.0
H2925 H 0.41883 0.92836 0.19888 0.0
H2926 H 0.78169 0.6757 0.92771 0.0
H2927 H 0.78384 0.691 0.89971 0.0
H2928 H 0.79845 0.7463 0.93483 0.0
H2929 H 0.7952 0.73105 0.96267 0.0
H2930 H 0.78051 0.75132 0.90738 0.0
H2931 H 0.82893 0.72315 0.90932 0.0
H2932 H 0.84504 0.69787 0.91221 0.0
H2933 H 0.81487 0.66404 0.86197 0.0
H2934 H 0.79846 0.68909 0.85893 0.0
H2935 H 0.81436 0.79958 0.83482 0.0
H2936 H 0.81174 0.78399 0.86232 0.0
H2937 H 0.78494 0.73123 0.82713 0.0
H2938 H 0.78749 0.74703 0.79927 0.0
H2939 H 0.8096 0.72572 0.85465 0.0
H2940 H 0.7627 0.75994 0.85462 0.0
H2941 H 0.7511 0.78888 0.85426 0.0
H2942 H 0.78528 0.81634 0.90445 0.0
H2943 H 0.79721 0.78763 0.90495 0.0
C2944 C 0.78527 0.69112 0.92946 0.0
C2945 C 0.7882 0.70204 0.94755 0.0
C2946 C 0.78671 0.69995 0.91336 0.0
C2947 C 0.79173 0.71999 0.91482 0.0
C2948 C 0.79454 0.73089 0.93297 0.0
C2949 C 0.7927 0.72208 0.94901 0.0
C2950 C 0.79388 0.72953 0.89755 0.0
C2951 C 0.78707 0.74572 0.89603 0.0
C2952 C 0.80249 0.72272 0.88244 0.0
C2953 C 0.8124 0.70782 0.88401 0.0
C2954 C 0.8257 0.71026 0.89896 0.0
C2955 C 0.83488 0.696 0.90061 0.0
C2956 C 0.83095 0.67933 0.88731 0.0
C2957 C 0.81788 0.67694 0.87227 0.0
C2958 C 0.80866 0.69117 0.87055 0.0
C2959 C 0.80791 0.78461 0.83275 0.0
C2960 C 0.80121 0.77461 0.81455 0.0
C2961 C 0.80633 0.7757 0.84867 0.0
C2962 C 0.79789 0.7564 0.84709 0.0
C2963 C 0.79147 0.74616 0.8289 0.0
C2964 C 0.79298 0.75519 0.81285 0.0
C2965 C 0.79589 0.74711 0.8644 0.0
C2966 C 0.80291 0.73112 0.86599 0.0
C2967 C 0.78817 0.75464 0.87993 0.0
C2968 C 0.78089 0.77175 0.87973 0.0
C2969 C 0.76778 0.7722 0.8655 0.0
C2970 C 0.76115 0.78855 0.86529 0.0
C2971 C 0.76746 0.80445 0.87931 0.0
C2972 C 0.7804 0.80402 0.8936 0.0
C2973 C 0.78709 0.78772 0.89387 0.0
H2974 H 0.76231 0.8171 0.8791 0.0
H2975 H 0.83805 0.66828 0.88863 0.0
H2976 H 0.83056 0.11472 0.04611 0.0
H2977 H 0.85498 0.10058 0.03671 0.0
H2978 H 0.8471 0.11543 0.98144 0.0
H2979 H 0.82282 0.12908 0.99066 0.0
H2980 H 0.85586 0.0823 0.97916 0.0
H2981 H 0.87709 0.14487 0.01247 0.0
H2982 H 0.87848 0.17111 0.03856 0.0
H2983 H 0.89875 0.13922 0.07731 0.0
H2984 H 0.89725 0.11265 0.05144 0.0
H2985 H 0.94254 0.0691 0.96342 0.0
H2986 H 0.91711 0.08362 0.96494 0.0
H2987 H 0.91552 0.07539 0.02267 0.0
H2988 H 0.94079 0.06126 0.02132 0.0
H2989 H 0.91232 0.10972 0.0193 0.0
H2990 H 0.88756 0.04526 0.9818 0.0
H2991 H 0.88154 0.02005 0.95389 0.0
H2992 H 0.86668 0.05908 0.91973 0.0
H2993 H 0.8728 0.08454 0.94738 0.0
C2994 C 0.8339 0.11444 0.0319 0.0
C2995 C 0.82519 0.12294 0.01909 0.0
C2996 C 0.84777 0.10654 0.02656 0.0
C2997 C 0.8529 0.10735 0.0085 0.0
C2998 C 0.84333 0.11474 0.9954 0.0
C2999 C 0.82957 0.12255 1.00071 0.0
C3000 C 0.86909 0.102 0.00367 0.0
C3001 C 0.8683 0.08835 0.98778 0.0
C3002 C 0.88524 0.11051 0.0146 0.0
C3003 C 0.88699 0.12676 0.03006 0.0
C3004 C 0.88184 0.14346 0.02657 0.0
C3005 C 0.88262 0.15837 0.04131 0.0
C3006 C 0.88868 0.15682 0.05959 0.0
C3007 C 0.89407 0.14039 0.06313 0.0
C3008 C 0.89329 0.12542 0.04844 0.0
C3009 C 0.93672 0.07046 0.97641 0.0
C3010 C 0.94369 0.06419 0.99231 0.0
C3011 C 0.92219 0.07866 0.97722 0.0
C3012 C 0.91437 0.08042 0.99387 0.0
C3013 C 0.92143 0.07426 0.00971 0.0
C3014 C 0.93594 0.06628 0.00896 0.0
C3015 C 0.899 0.08887 0.99542 0.0
C3016 C 0.89997 0.10362 0.01054 0.0
C3017 C 0.88312 0.08174 0.98335 0.0
C3018 C 0.881 0.06688 0.96658 0.0
C3019 C 0.88335 0.04855 0.96827 0.0
C3020 C 0.87981 0.03419 0.95251 0.0
C3021 C 0.87382 0.03798 0.93503 0.0
C3022 C 0.87141 0.05617 0.93324 0.0
C3023 C 0.87495 0.07057 0.94894 0.0
H3024 H 0.87097 0.02681 0.92289 0.0
H3025 H 0.88922 0.16835 0.071 0.0
H3026 H 0.37069 0.39386 0.00347 0.0
H3027 H 0.39879 0.41509 0.00315 0.0
H3028 H 0.38292 0.45973 0.03851 0.0
H3029 H 0.35406 0.43826 0.03855 0.0
H3030 H 0.40155 0.47514 0.01361 0.0
H3031 H 0.4129 0.43272 0.05505 0.0
H3032 H 0.41202 0.40144 0.06483 0.0
H3033 H 0.44066 0.38587 0.01949 0.0
H3034 H 0.44147 0.41697 0.00929 0.0
H3035 H 0.4868 0.53382 0.03731 0.0
H3036 H 0.45846 0.51273 0.03728 0.0
H3037 H 0.47456 0.46786 1.00248 0.0
H3038 H 0.5035 0.48924 1.00274 0.0
H3039 H 0.45575 0.45242 0.02708 0.0
H3040 H 0.44416 0.49507 0.98565 0.0
H3041 H 0.44382 0.52588 0.97528 0.0
H3042 H 0.41509 0.54096 0.02071 0.0
H3043 H 0.41547 0.51034 0.03146 0.0
C3044 C 0.37298 0.40816 0.01131 0.0
C3045 C 0.35982 0.41403 0.02125 0.0
C3046 C 0.38935 0.42039 0.01119 0.0
C3047 C 0.39357 0.4391 0.02122 0.0
C3048 C 0.38031 0.44536 0.03074 0.0
C3049 C 0.3637 0.43303 0.03078 0.0
C3050 C 0.4117 0.45184 0.02149 0.0
C3051 C 0.41335 0.4702 0.0169 0.0
C3052 C 0.42744 0.44559 0.02517 0.0
C3053 C 0.42714 0.42705 0.03135 0.0
C3054 C 0.41892 0.42256 0.04712 0.0
C3055 C 0.41844 0.40488 0.05273 0.0
C3056 C 0.42625 0.39166 0.04276 0.0
C3057 C 0.4346 0.39612 0.02718 0.0
C3058 C 0.43509 0.41377 0.02149 0.0
C3059 C 0.48449 0.51945 0.02962 0.0
C3060 C 0.49777 0.51343 0.02008 0.0
C3061 C 0.46799 0.50732 0.02947 0.0
C3062 C 0.46379 0.48856 0.01952 0.0
C3063 C 0.47715 0.48223 0.01024 0.0
C3064 C 0.49387 0.49449 0.01043 0.0
C3065 C 0.44563 0.4758 0.01922 0.0
C3066 C 0.44397 0.4574 0.02381 0.0
C3067 C 0.42986 0.48205 0.01559 0.0
C3068 C 0.43 0.50057 0.00944 0.0
C3069 C 0.43793 0.50506 0.99351 0.0
C3070 C 0.43769 0.52246 0.98755 0.0
C3071 C 0.42947 0.53539 0.99736 0.0
C3072 C 0.42148 0.53095 0.01314 0.0
C3073 C 0.42169 0.51359 0.01917 0.0
H3074 H 0.42927 0.54884 0.99269 0.0
H3075 H 0.42586 0.37797 0.04714 0.0
H3076 H 0.3837 0.59857 0.74164 0.0
H3077 H 0.36909 0.6254 0.74329 0.0
H3078 H 0.41066 0.65914 0.7843 0.0
H3079 H 0.42565 0.63238 0.78216 0.0
H3080 H 0.38016 0.66881 0.79482 0.0
H3081 H 0.40466 0.66978 0.73845 0.0
H3082 H 0.41244 0.65842 0.70733 0.0
H3083 H 0.35803 0.64182 0.68538 0.0
H3084 H 0.34991 0.6529 0.71651 0.0
H3085 H 0.35128 0.75864 0.78305 0.0
H3086 H 0.36758 0.73316 0.78434 0.0
H3087 H 0.32571 0.69366 0.74795 0.0
H3088 H 0.3091 0.71875 0.74742 0.0
H3089 H 0.35773 0.68815 0.73632 0.0
H3090 H 0.33469 0.69058 0.79533 0.0
H3091 H 0.3297 0.7043 0.82696 0.0
H3092 H 0.385 0.71799 0.84457 0.0
H3093 H 0.39031 0.70449 0.81296 0.0
C3094 C 0.39001 0.61165 0.751 0.0
C3095 C 0.40638 0.61252 0.76155 0.0
C3096 C 0.38144 0.62742 0.75197 0.0
C3097 C 0.38824 0.64529 0.76395 0.0
C3098 C 0.40448 0.6461 0.77481 0.0
C3099 C 0.41332 0.63044 0.77347 0.0
C3100 C 0.37864 0.66264 0.76473 0.0
C3101 C 0.37554 0.67298 0.78187 0.0
C3102 C 0.37205 0.66912 0.74834 0.0
C3103 C 0.37668 0.6619 0.72981 0.0
C3104 C 0.39435 0.66349 0.72703 0.0
C3105 C 0.39882 0.65716 0.70939 0.0
C3106 C 0.38573 0.64934 0.6944 0.0
C3107 C 0.36814 0.64784 0.69702 0.0
C3108 C 0.36359 0.65413 0.71466 0.0
C3109 C 0.34534 0.74456 0.77531 0.0
C3110 C 0.32839 0.74148 0.76509 0.0
C3111 C 0.35485 0.72961 0.77611 0.0
C3112 C 0.34841 0.71059 0.76626 0.0
C3113 C 0.33161 0.70767 0.75585 0.0
C3114 C 0.32187 0.72239 0.75556 0.0
C3115 C 0.35893 0.6941 0.76633 0.0
C3116 C 0.36225 0.68393 0.74929 0.0
C3117 C 0.36603 0.68816 0.78288 0.0
C3118 C 0.36293 0.69681 0.80168 0.0
C3119 C 0.34581 0.69676 0.80586 0.0
C3120 C 0.34291 0.70442 0.82382 0.0
C3121 C 0.35702 0.71208 0.83775 0.0
C3122 C 0.37407 0.7121 0.83376 0.0
C3123 C 0.37703 0.70445 0.81582 0.0
H3124 H 0.35474 0.71795 0.85166 0.0
H3125 H 0.38923 0.64449 0.68072 0.0
H3126 H 0.23494 0.61464 0.47688 0.0
H3127 H 0.20518 0.59559 0.47755 0.0
H3128 H 0.20301 0.6282 0.53169 0.0
H3129 H 0.23257 0.64681 0.5311 0.0
H3130 H 0.19165 0.59126 0.53152 0.0
H3131 H 0.18355 0.63768 0.49328 0.0
H3132 H 0.18655 0.65582 0.46704 0.0
H3133 H 0.16514 0.60438 0.42771 0.0
H3134 H 0.16217 0.58589 0.45371 0.0
H3135 H 0.10127 0.57807 0.53721 0.0
H3136 H 0.13187 0.59165 0.53472 0.0
H3137 H 0.12995 0.55026 0.48507 0.0
H3138 H 0.09922 0.53674 0.48722 0.0
H3139 H 0.14324 0.589 0.48199 0.0
H3140 H 0.1506 0.54338 0.5231 0.0
H3141 H 0.14184 0.52904 0.55067 0.0
H3142 H 0.16085 0.58342 0.58617 0.0
H3143 H 0.16953 0.5981 0.55872 0.0
C3144 C 0.22796 0.6175 0.48883 0.0
C3145 C 0.23558 0.63193 0.50393 0.0
C3146 C 0.21115 0.6068 0.48921 0.0
C3147 C 0.20212 0.61068 0.50465 0.0
C3148 C 0.20993 0.62504 0.51975 0.0
C3149 C 0.22663 0.63564 0.51938 0.0
C3150 C 0.18439 0.59997 0.5052 0.0
C3151 C 0.1811 0.59072 0.52065 0.0
C3152 C 0.17071 0.5994 0.49104 0.0
C3153 C 0.17302 0.61037 0.47539 0.0
C3154 C 0.17974 0.6302 0.47902 0.0
C3155 C 0.18132 0.64055 0.46419 0.0
C3156 C 0.17604 0.63125 0.44571 0.0
C3157 C 0.16917 0.61157 0.44202 0.0
C3158 C 0.16758 0.60114 0.45679 0.0
C3159 C 0.10747 0.57173 0.52593 0.0
C3160 C 0.09814 0.55652 0.51233 0.0
C3161 C 0.1248 0.57948 0.52453 0.0
C3162 C 0.13283 0.57173 0.50978 0.0
C3163 C 0.12368 0.55625 0.49646 0.0
C3164 C 0.1063 0.54861 0.49774 0.0
C3165 C 0.15078 0.58021 0.50799 0.0
C3166 C 0.15401 0.58916 0.49248 0.0
C3167 C 0.16429 0.58086 0.52222 0.0
C3168 C 0.16081 0.57177 0.53894 0.0
C3169 C 0.15305 0.55221 0.53683 0.0
C3170 C 0.14802 0.54406 0.5524 0.0
C3171 C 0.15081 0.55531 0.57017 0.0
C3172 C 0.15876 0.57471 0.57241 0.0
C3173 C 0.1638 0.58295 0.55687 0.0
H3174 H 0.1468 0.54899 0.5822 0.0
H3175 H 0.17724 0.6393 0.43424 0.0
H3176 H 0.70866 0.02639 0.76415 0.0
H3177 H 0.72201 1.00419 0.7788 0.0
H3178 H 0.7011 0.96037 0.73059 0.0
H3179 H 0.68543 0.98211 0.71717 0.0
H3180 H 0.69594 0.94669 0.76045 0.0
H3181 H 0.74752 0.98969 0.74259 0.0
H3182 H 0.76546 0.02228 0.74454 0.0
H3183 H 0.77395 0.02781 0.80461 0.0
H3184 H 0.75585 0.99534 0.803 0.0
H3185 H 0.74842 0.88255 0.75088 0.0
H3186 H 0.73113 0.90645 0.75115 0.0
H3187 H 0.75979 0.9362 0.80425 0.0
H3188 H 0.77833 0.91329 0.80321 0.0
H3189 H 0.75936 0.9596 0.78239 0.0
H3190 H 0.71382 0.91393 0.79962 0.0
H3191 H 0.69379 0.88283 0.79934 0.0
H3192 H 0.67291 0.88249 0.74254 0.0
H3193 H 0.6928 0.91355 0.74245 0.0
C3194 C 0.7074 0.01218 0.75641 0.0
C3195 C 0.69654 1.00588 0.73932 0.0
C3196 C 0.71499 0.99951 0.76484 0.0
C3197 C 0.7129 0.98081 0.75559 0.0
C3198 C 0.70287 0.97484 0.7379 0.0
C3199 C 0.69431 0.98724 0.73001 0.0
C3200 C 0.72064 0.96716 0.7645 0.0
C3201 C 0.70985 0.94935 0.76508 0.0
C3202 C 0.73846 0.97128 0.77189 0.0
C3203 C 0.75031 0.99018 0.77267 0.0
C3204 C 0.75329 0.99785 0.75619 0.0
C3205 C 0.76342 0.01631 0.75725 0.0
C3206 C 0.77082 0.02712 0.77469 0.0
C3207 C 0.76821 0.01943 0.79111 0.0
C3208 C 0.75804 1.001 0.79014 0.0
C3209 C 0.75119 0.89427 0.76253 0.0
C3210 C 0.76488 0.89616 0.7769 0.0
C3211 C 0.74095 0.90764 0.76294 0.0
C3212 C 0.74393 0.92282 0.77798 0.0
C3213 C 0.75719 0.92442 0.79267 0.0
C3214 C 0.76772 0.91128 0.79206 0.0
C3215 C 0.73496 0.93841 0.77675 0.0
C3216 C 0.7454 0.95682 0.77803 0.0
C3217 C 0.71678 0.93483 0.77113 0.0
C3218 C 0.70486 0.91606 0.77104 0.0
C3219 C 0.70501 0.90719 0.78705 0.0
C3220 C 0.69365 0.88958 0.78696 0.0
C3221 C 0.68213 0.88066 0.77092 0.0
C3222 C 0.68185 0.8894 0.75496 0.0
C3223 C 0.69312 0.90704 0.755 0.0
H3224 H 0.67342 0.86699 0.77087 0.0
H3225 H 0.77859 0.04144 0.77548 0.0
H3226 H 0.74247 0.88272 0.522 0.0
H3227 H 0.71639 0.89507 0.51499 0.0
H3228 H 0.74939 0.95061 0.51491 0.0
H3229 H 0.77517 0.93861 0.52322 0.0
H3230 H 0.72554 0.95684 0.53136 0.0
H3231 H 0.72358 0.9146 0.47333 0.0
H3232 H 0.72137 0.88467 0.45152 0.0
H3233 H 0.67212 0.86075 0.46952 0.0
H3234 H 0.67417 0.89041 0.49166 0.0
H3235 H 0.66295 1.00122 0.49363 0.0
H3236 H 0.6863 0.98387 0.49406 0.0
H3237 H 0.65135 0.93584 0.50934 0.0
H3238 H 0.62764 0.95294 0.50845 0.0
H3239 H 0.67451 0.92468 0.48459 0.0
H3240 H 0.67764 0.96746 0.54263 0.0
H3241 H 0.67911 0.99866 0.56194 0.0
H3242 H 0.72696 0.02217 0.54093 0.0
H3243 H 0.72557 0.99119 0.52119 0.0
C3244 C 0.7441 0.89764 0.52074 0.0
C3245 C 0.76095 0.90977 0.52361 0.0
C3246 C 0.72913 0.90465 0.51636 0.0
C3247 C 0.73065 0.92384 0.51406 0.0
C3248 C 0.74757 0.9358 0.51669 0.0
C3249 C 0.76243 0.92895 0.52157 0.0
C3250 C 0.71484 0.93203 0.51029 0.0
C3251 C 0.71465 0.94979 0.52078 0.0
C3252 C 0.7 0.92281 0.49703 0.0
C3253 C 0.6992 0.90464 0.48439 0.0
C3254 C 0.71242 0.90286 0.47285 0.0
C3255 C 0.71115 0.88596 0.46037 0.0
C3256 C 0.69665 0.87079 0.45919 0.0
C3257 C 0.68338 0.87248 0.4705 0.0
C3258 C 0.6846 0.88932 0.48302 0.0
C3259 C 0.66001 0.9868 0.49666 0.0
C3260 C 0.64334 0.97863 0.50121 0.0
C3261 C 0.67348 0.97691 0.49701 0.0
C3262 C 0.67073 0.95863 0.50203 0.0
C3263 C 0.65387 0.94996 0.50554 0.0
C3264 C 0.64036 0.95987 0.50521 0.0
C3265 C 0.68579 0.94943 0.50527 0.0
C3266 C 0.68566 0.93155 0.49492 0.0
C3267 C 0.70052 0.95855 0.51842 0.0
C3268 C 0.7014 0.9771 0.53032 0.0
C3269 C 0.68839 0.97934 0.54202 0.0
C3270 C 0.68922 0.99697 0.55304 0.0
C3271 C 0.7031 0.0124 0.55263 0.0
C3272 C 0.7162 0.01022 0.5412 0.0
C3273 C 0.71539 0.99264 0.53009 0.0
H3274 H 0.70373 0.02604 0.5612 0.0
H3275 H 0.69568 0.85775 0.44947 0.0
H3276 H 0.41794 0.48518 0.73795 0.0
H3277 H 0.39995 0.45339 0.73847 0.0
H3278 H 0.3728 0.47736 0.78147 0.0
H3279 H 0.39075 0.5095 0.78064 0.0
H3280 H 0.37872 0.44359 0.79029 0.0
H3281 H 0.35307 0.45886 0.73441 0.0
H3282 H 0.35283 0.46951 0.70361 0.0
H3283 H 0.37397 0.42233 0.68127 0.0
H3284 H 0.37462 0.41159 0.71208 0.0
H3285 H 0.30829 0.35946 0.7843 0.0
H3286 H 0.32707 0.3909 0.78401 0.0
H3287 H 0.35435 0.36589 0.74178 0.0
H3288 H 0.33575 0.33401 0.74257 0.0
H3289 H 0.34875 0.40007 0.73242 0.0
H3290 H 0.37425 0.38449 0.78777 0.0
H3291 H 0.37673 0.37481 0.81895 0.0
H3292 H 0.35726 0.42278 0.8425 0.0
H3293 H 0.35434 0.43255 0.81136 0.0
C3294 C 0.40782 0.48396 0.74722 0.0
C3295 C 0.40574 0.50067 0.75872 0.0
C3296 C 0.3974 0.4654 0.74759 0.0
C3297 C 0.38439 0.4621 0.75986 0.0
C3298 C 0.38239 0.47878 0.77161 0.0
C3299 C 0.39264 0.49753 0.77095 0.0
C3300 C 0.37335 0.44153 0.76045 0.0
C3301 C 0.37196 0.43436 0.77755 0.0
C3302 C 0.36464 0.42838 0.7441 0.0
C3303 C 0.36408 0.43457 0.72556 0.0
C3304 C 0.35779 0.45085 0.72295 0.0
C3305 C 0.35757 0.45689 0.7055 0.0
C3306 C 0.36343 0.44663 0.6905 0.0
C3307 C 0.36947 0.43027 0.69291 0.0
C3308 C 0.36976 0.4242 0.71036 0.0
C3309 C 0.31855 0.36036 0.77521 0.0
C3310 C 0.3204 0.34345 0.76387 0.0
C3311 C 0.32944 0.37873 0.77498 0.0
C3312 C 0.34268 0.38167 0.76295 0.0
C3313 C 0.34454 0.36476 0.75141 0.0
C3314 C 0.33387 0.34616 0.75202 0.0
C3315 C 0.35398 0.40213 0.76232 0.0
C3316 C 0.35544 0.40929 0.74519 0.0
C3317 C 0.3628 0.41526 0.77866 0.0
C3318 C 0.36382 0.40907 0.7972 0.0
C3319 C 0.37024 0.3928 0.79954 0.0
C3320 C 0.37179 0.38734 0.81722 0.0
C3321 C 0.36713 0.39816 0.83268 0.0
C3322 C 0.36083 0.41441 0.83049 0.0
C3323 C 0.35921 0.4199 0.81283 0.0
H3324 H 0.3685 0.39403 0.8464 0.0
H3325 H 0.36326 0.45134 0.67699 0.0
H3326 H 0.16336 0.61094 0.24672 0.0
H3327 H 0.18648 0.6386 0.24384 0.0
H3328 H 0.2241 0.61611 0.27546 0.0
H3329 H 0.20121 0.58844 0.27816 0.0
H3330 H 0.21961 0.65681 0.28692 0.0
H3331 H 0.22877 0.61005 0.23151 0.0
H3332 H 0.22029 0.59057 0.19992 0.0
H3333 H 0.20497 0.63771 0.17883 0.0
H3334 H 0.21342 0.65741 0.21024 0.0
H3335 H 0.29498 0.72398 0.28649 0.0
H3336 H 0.27762 0.69113 0.28348 0.0
H3337 H 0.24917 0.69815 0.23206 0.0
H3338 H 0.26727 0.72963 0.23415 0.0
H3339 H 0.24877 0.66426 0.22951 0.0
H3340 H 0.23536 0.71066 0.2754 0.0
H3341 H 0.24191 0.73664 0.30266 0.0
H3342 H 0.25704 0.69877 0.33794 0.0
H3343 H 0.25099 0.67256 0.31078 0.0
C3344 C 0.17649 0.6123 0.25346 0.0
C3345 C 0.18069 0.59804 0.26294 0.0
C3346 C 0.18961 0.62771 0.25145 0.0
C3347 C 0.20677 0.62882 0.25912 0.0
C3348 C 0.21083 0.61504 0.26927 0.0
C3349 C 0.19782 0.59956 0.27106 0.0
C3350 C 0.22047 0.64516 0.25806 0.0
C3351 C 0.22615 0.65845 0.27447 0.0
C3352 C 0.22812 0.64753 0.24146 0.0
C3353 C 0.22146 0.63504 0.22323 0.0
C3354 C 0.22331 0.6161 0.22019 0.0
C3355 C 0.21863 0.60509 0.20229 0.0
C3356 C 0.21204 0.61287 0.18739 0.0
C3357 C 0.21003 0.63167 0.19037 0.0
C3358 C 0.21476 0.64275 0.2082 0.0
C3359 C 0.28543 0.71799 0.2743 0.0
C3360 C 0.28217 0.72891 0.26064 0.0
C3361 C 0.27558 0.69946 0.27257 0.0
C3362 C 0.26195 0.69256 0.25778 0.0
C3363 C 0.25972 0.70315 0.24347 0.0
C3364 C 0.26998 0.72117 0.24476 0.0
C3365 C 0.24823 0.6759 0.25851 0.0
C3366 C 0.2424 0.66261 0.24207 0.0
C3367 C 0.23951 0.67434 0.27464 0.0
C3368 C 0.24291 0.68977 0.29108 0.0
C3369 C 0.24018 0.7079 0.28896 0.0
C3370 C 0.24384 0.72263 0.30434 0.0
C3371 C 0.25004 0.71929 0.32188 0.0
C3372 C 0.25242 0.70124 0.32422 0.0
C3373 C 0.24887 0.68645 0.30887 0.0
H3374 H 0.25301 0.73071 0.33364 0.0
H3375 H 0.20855 0.60437 0.17354 0.0
H3376 H 0.51756 0.73668 0.46835 0.0
H3377 H 0.52411 0.70933 0.4809 0.0
H3378 H 0.53264 0.68445 0.42584 0.0
H3379 H 0.52605 0.71216 0.41299 0.0
H3380 H 0.51149 0.65854 0.44351 0.0
H3381 H 0.56706 0.7047 0.46174 0.0
H3382 H 0.58592 0.73546 0.47739 0.0
H3383 H 0.56828 0.72526 0.53025 0.0
H3384 H 0.54916 0.69454 0.51488 0.0
H3385 H 0.54095 0.58012 0.46873 0.0
H3386 H 0.53785 0.60922 0.45704 0.0
H3387 H 0.54463 0.63912 0.51402 0.0
H3388 H 0.54939 0.61015 0.52557 0.0
H3389 H 0.55752 0.66339 0.49628 0.0
H3390 H 0.50219 0.62077 0.48242 0.0
H3391 H 0.48023 0.59097 0.47023 0.0
H3392 H 0.49202 0.59565 0.4141 0.0
H3393 H 0.51429 0.6253 0.42598 0.0
C3394 C 0.52087 0.72548 0.45876 0.0
C3395 C 0.52114 0.72675 0.43949 0.0
C3396 C 0.52477 0.70981 0.4661 0.0
C3397 C 0.52908 0.69475 0.45447 0.0
C3398 C 0.52944 0.69589 0.43521 0.0
C3399 C 0.52571 0.71179 0.42784 0.0
C3400 C 0.53245 0.67756 0.46231 0.0
C3401 C 0.52178 0.65956 0.45481 0.0
C3402 C 0.54513 0.67888 0.47791 0.0
C3403 C 0.55657 0.6974 0.48711 0.0
C3404 C 0.56709 0.70909 0.47667 0.0
C3405 C 0.57786 0.7265 0.4855 0.0
C3406 C 0.57827 0.73233 0.50479 0.0
C3407 C 0.56794 0.72074 0.5153 0.0
C3408 C 0.55716 0.70332 0.50654 0.0
C3409 C 0.54192 0.59297 0.47875 0.0
C3410 C 0.54534 0.5928 0.49806 0.0
C3411 C 0.53989 0.60965 0.47207 0.0
C3412 C 0.54027 0.62654 0.48452 0.0
C3413 C 0.5441 0.62646 0.50393 0.0
C3414 C 0.54679 0.60985 0.5106 0.0
C3415 C 0.53675 0.64407 0.47722 0.0
C3416 C 0.54726 0.6622 0.48491 0.0
C3417 C 0.52337 0.64302 0.46234 0.0
C3418 C 0.51002 0.62517 0.45511 0.0
C3419 C 0.50018 0.61537 0.46749 0.0
C3420 C 0.48767 0.59852 0.46064 0.0
C3421 C 0.48474 0.59141 0.44141 0.0
C3422 C 0.49432 0.60116 0.42899 0.0
C3423 C 0.50688 0.618 0.43577 0.0
H3424 H 0.47504 0.57837 0.43614 0.0
H3425 H 0.58662 0.74581 0.51159 0.0
H3426 H 0.6486 0.32293 0.62563 0.0
H3427 H 0.673 0.31858 0.64624 0.0
H3428 H 0.63689 0.29103 0.68071 0.0
H3429 H 0.61226 0.29628 0.66038 0.0
H3430 H 0.66263 0.3096 0.70316 0.0
H3431 H 0.66293 0.26698 0.64638 0.0
H3432 H 0.66356 0.2573 0.61244 0.0
H3433 H 0.71238 0.29782 0.61503 0.0
H3434 H 0.71196 0.30784 0.64893 0.0
H3435 H 0.72818 0.27794 0.75622 0.0
H3436 H 0.70312 0.28016 0.73514 0.0
H3437 H 0.73801 0.30632 0.69873 0.0
H3438 H 0.76323 0.30278 0.7194 0.0
H3439 H 0.7123 0.28744 0.677 0.0
H3440 H 0.71109 0.33049 0.73413 0.0
H3441 H 0.70952 0.3402 0.76787 0.0
H3442 H 0.66146 0.29823 0.76437 0.0
H3443 H 0.66285 0.28818 0.73068 0.0
C3444 C 0.64572 0.31608 0.63768 0.0
C3445 C 0.62818 0.31016 0.6412 0.0
C3446 C 0.65988 0.31327 0.64946 0.0
C3447 C 0.65724 0.30389 0.66509 0.0
C3448 C 0.63969 0.29824 0.66886 0.0
C3449 C 0.62545 0.30135 0.65719 0.0
C3450 C 0.67267 0.30051 0.67762 0.0
C3451 C 0.6733 0.30444 0.69729 0.0
C3452 C 0.68716 0.29417 0.6705 0.0
C3453 C 0.68735 0.28824 0.65013 0.0
C3454 C 0.67374 0.27389 0.63967 0.0
C3455 C 0.67407 0.26833 0.62045 0.0
C3456 C 0.68798 0.27696 0.61158 0.0
C3457 C 0.70161 0.29115 0.62191 0.0
C3458 C 0.70135 0.29675 0.64113 0.0
C3459 C 0.7306 0.28408 0.74366 0.0
C3460 C 0.74796 0.29015 0.73971 0.0
C3461 C 0.71607 0.28566 0.73158 0.0
C3462 C 0.71815 0.29411 0.71527 0.0
C3463 C 0.73558 0.29984 0.71109 0.0
C3464 C 0.75017 0.2978 0.723 0.0
C3465 C 0.70237 0.29671 0.70262 0.0
C3466 C 0.70164 0.29259 0.6829 0.0
C3467 C 0.68772 0.30279 0.70968 0.0
C3468 C 0.68717 0.30849 0.72998 0.0
C3469 C 0.70028 0.32325 0.74062 0.0
C3470 C 0.6994 0.32883 0.75972 0.0
C3471 C 0.68542 0.31981 0.76827 0.0
C3472 C 0.67229 0.30519 0.75775 0.0
C3473 C 0.67311 0.29955 0.73866 0.0
H3474 H 0.68474 0.32419 0.78304 0.0
H3475 H 0.68822 0.27264 0.59671 0.0
H3476 H 0.0105 0.33236 0.91065 0.0
H3477 H 0.01364 0.36481 0.9272 0.0
H3478 H 0.03998 0.35031 0.97607 0.0
H3479 H 0.03556 0.31742 0.95993 0.0
H3480 H 0.02149 0.3718 0.98807 0.0
H3481 H 0.06224 0.378 0.94387 0.0
H3482 H 0.07402 0.37466 0.91343 0.0
H3483 H 0.03857 0.40592 0.89137 0.0
H3484 H 0.02642 0.40922 0.9216 0.0
H3485 H 0.05363 0.47261 0.02269 0.0
H3486 H 0.05221 0.43917 0.01017 0.0
H3487 H 0.0102 0.43977 0.96804 0.0
H3488 H 0.01145 0.47322 0.98061 0.0
H3489 H 0.04054 0.42641 0.95486 0.0
H3490 H 0.99943 0.41708 1.0016 0.0
H3491 H 0.9931 0.42425 0.03426 0.0
H3492 H 0.03635 0.40169 0.05367 0.0
H3493 H 0.04303 0.3946 0.0211 0.0
C3494 C 0.01677 0.33613 0.925 0.0
C3495 C 0.02273 0.32253 0.93409 0.0
C3496 C 0.01879 0.35471 0.93439 0.0
C3497 C 0.02751 0.36023 0.95275 0.0
C3498 C 0.03325 0.34647 0.96192 0.0
C3499 C 0.03069 0.32769 0.95273 0.0
C3500 C 0.03028 0.38023 0.96241 0.0
C3501 C 0.02591 0.38366 0.9808 0.0
C3502 C 0.03626 0.39593 0.95322 0.0
C3503 C 0.04333 0.3937 0.93493 0.0
C3504 C 0.05686 0.38401 0.93247 0.0
C3505 C 0.06362 0.38216 0.91527 0.0
C3506 C 0.05702 0.39004 0.90046 0.0
C3507 C 0.04365 0.3998 0.90284 0.0
C3508 C 0.03684 0.40168 0.92 0.0
C3509 C 0.04388 0.46546 0.01098 0.0
C3510 C 0.03257 0.47531 1.00264 0.0
C3511 C 0.04314 0.44647 0.00384 0.0
C3512 C 0.03118 0.43722 0.98818 0.0
C3513 C 0.01953 0.44685 0.98014 0.0
C3514 C 0.0201 0.46579 0.98744 0.0
C3515 C 0.03106 0.41756 0.97984 0.0
C3516 C 0.03617 0.41435 0.96191 0.0
C3517 C 0.02637 0.4022 0.98965 0.0
C3518 C 0.02169 0.4053 0.00899 0.0
C3519 C 1.00754 0.41361 0.01285 0.0
C3520 C 1.00393 0.4177 0.03133 0.0
C3521 C 0.01432 0.41343 0.04604 0.0
C3522 C 0.02829 0.40496 0.04227 0.0
C3523 C 0.03197 0.40086 0.0238 0.0
H3524 H 0.01154 0.41667 0.06035 0.0
H3525 H 0.06228 0.38861 0.88716 0.0
H3526 H 0.03767 0.80608 0.16571 0.0
H3527 H 0.00976 0.79935 0.17836 0.0
H3528 H 0.98355 0.77518 0.12273 0.0
H3529 H 0.01152 0.7834 0.10985 0.0
H3530 H 0.96296 0.79192 0.13855 0.0
H3531 H 0.99232 0.74711 0.15976 0.0
H3532 H 0.01702 0.73582 0.17395 0.0
H3533 H 0.01629 0.77135 0.22644 0.0
H3534 H 0.99172 0.78299 0.21247 0.0
H3535 H 0.88537 0.75935 0.18252 0.0
H3536 H 0.9107 0.7596 0.16474 0.0
H3537 H 0.9449 0.79156 0.2137 0.0
H3538 H 0.91972 0.79075 0.23144 0.0
H3539 H 0.95959 0.76556 0.19793 0.0
H3540 H 0.92966 0.81095 0.17327 0.0
H3541 H 0.90452 0.81994 0.15711 0.0
H3542 H 0.9052 0.77886 0.10848 0.0
H3543 H 0.93017 0.76942 0.12451 0.0
C3544 C 0.02597 0.7993 0.15615 0.0
C3545 C 0.02687 0.79519 0.13678 0.0
C3546 C 0.00993 0.79523 0.16344 0.0
C3547 C 0.99434 0.78614 0.1517 0.0
C3548 C 0.99523 0.78209 0.13224 0.0
C3549 C 0.01128 0.78674 0.12486 0.0
C3550 C 0.97724 0.78132 0.15982 0.0
C3551 C 0.96223 0.78584 0.15137 0.0
C3552 C 0.97586 0.77325 0.1765 0.0
C3553 C 0.99028 0.76595 0.18507 0.0
C3554 C 0.99747 0.75252 0.17432 0.0
C3555 C 0.01145 0.74608 0.18231 0.0
C3556 C 0.01824 0.75288 0.20108 0.0
C3557 C 0.01102 0.76608 0.21191 0.0
C3558 C 0.99705 0.77258 0.20398 0.0
C3559 C 0.89834 0.76633 0.18942 0.0
C3560 C 0.90063 0.77505 0.20834 0.0
C3561 C 0.91283 0.7666 0.17923 0.0
C3562 C 0.92987 0.77585 0.1877 0.0
C3563 C 0.93202 0.78432 0.20672 0.0
C3564 C 0.91761 0.78391 0.21688 0.0
C3565 C 0.94559 0.77691 0.17711 0.0
C3566 C 0.96031 0.77151 0.18504 0.0
C3567 C 0.94652 0.78367 0.1597 0.0
C3568 C 0.93159 0.78936 0.15014 0.0
C3569 C 0.92434 0.80376 0.15919 0.0
C3570 C 0.91014 0.80893 0.15005 0.0
C3571 C 0.90323 0.79994 0.1318 0.0
C3572 C 0.91053 0.78578 0.12263 0.0
C3573 C 0.92469 0.78051 0.13174 0.0
H3574 H 0.89225 0.80399 0.12474 0.0
H3575 H 0.02908 0.7479 0.20724 0.0
H3576 H 0.53382 0.31042 0.14698 0.0
H3577 H 0.54839 0.33579 0.13087 0.0
H3578 H 0.50094 0.32781 0.09302 0.0
H3579 H 0.48696 0.30172 0.10832 0.0
H3580 H 0.52723 0.33023 0.07424 0.0
H3581 H 0.5159 0.36581 0.13272 0.0
H3582 H 0.51925 0.3728 0.16732 0.0
H3583 H 0.57509 0.38858 0.16847 0.0
H3584 H 0.57206 0.38139 0.13385 0.0
H3585 H 0.52171 0.41214 0.03924 0.0
H3586 H 0.51955 0.38606 0.05715 0.0
H3587 H 0.57408 0.40603 0.07911 0.0
H3588 H 0.57627 0.43267 0.06127 0.0
H3589 H 0.55285 0.39649 0.1064 0.0
H3590 H 0.56283 0.36603 0.04681 0.0
H3591 H 0.55916 0.35661 0.01239 0.0
H3592 H 0.50512 0.33023 0.01334 0.0
H3593 H 0.50843 0.33964 0.04773 0.0
C3594 C 0.52653 0.31446 0.13543 0.0
C3595 C 0.50925 0.3047 0.12901 0.0
C3596 C 0.53483 0.32883 0.12623 0.0
C3597 C 0.52568 0.33385 0.11091 0.0
C3598 C 0.50826 0.32416 0.1048 0.0
C3599 C 0.5002 0.30949 0.11363 0.0
C3600 C 0.534 0.34899 0.10085 0.0
C3601 C 0.53276 0.34474 0.08127 0.0
C3602 C 0.54202 0.36767 0.1101 0.0
C3603 C 0.54377 0.37294 0.13077 0.0
C3604 C 0.52889 0.37078 0.14038 0.0
C3605 C 0.53073 0.37472 0.15997 0.0
C3606 C 0.54738 0.38109 0.17009 0.0
C3607 C 0.56221 0.38363 0.16061 0.0
C3608 C 0.56044 0.37963 0.14101 0.0
C3609 C 0.53322 0.41111 0.04799 0.0
C3610 C 0.54913 0.42444 0.04895 0.0
C3611 C 0.53203 0.39607 0.05804 0.0
C3612 C 0.54674 0.39396 0.06914 0.0
C3613 C 0.56265 0.40737 0.07042 0.0
C3614 C 0.56388 0.42247 0.06023 0.0
C3615 C 0.54497 0.37791 0.07972 0.0
C3616 C 0.54762 0.38192 0.09939 0.0
C3617 C 0.53805 0.35896 0.07055 0.0
C3618 C 0.53588 0.35364 0.04983 0.0
C3619 C 0.55014 0.35837 0.03965 0.0
C3620 C 0.54813 0.35298 0.02015 0.0
C3621 C 0.53191 0.34285 0.01068 0.0
C3622 C 0.51767 0.33807 0.02069 0.0
C3623 C 0.51962 0.3434 0.04019 0.0
H3624 H 0.5304 0.33868 0.99559 0.0
H3625 H 0.54878 0.38408 0.18527 0.0
H3626 H 0.05592 0.32429 0.34094 0.0
H3627 H 0.02873 0.31542 0.31954 0.0
H3628 H 0.99896 0.31455 0.3668 0.0
H3629 H 0.02604 0.32332 0.38836 0.0
H3630 H 0.98648 0.28295 0.33762 0.0
H3631 H 1.0061 0.35198 0.34682 0.0
H3632 H 0.02787 0.38152 0.34576 0.0
H3633 H 0.02676 0.3653 0.28625 0.0
H3634 H 1.0053 0.3354 0.28706 0.0
H3635 H 0.90382 0.297 0.31397 0.0
H3636 H 0.93317 0.29583 0.32551 0.0
H3637 H 0.95105 0.30909 0.27319 0.0
H3638 H 0.922 0.31295 0.26252 0.0
H3639 H 0.97204 0.33005 0.29911 0.0
H3640 H 0.94816 0.2629 0.28913 0.0
H3641 H 0.92575 0.23404 0.29082 0.0
H3642 H 0.93429 0.2462 0.35106 0.0
H3643 H 0.95651 0.27529 0.34975 0.0
C3644 C 0.04359 0.32224 0.34679 0.0
C3645 C 0.04308 0.32466 0.36634 0.0
C3646 C 0.02812 0.31708 0.33455 0.0
C3647 C 0.01196 0.31425 0.34168 0.0
C3648 C 0.01139 0.31654 0.36112 0.0
C3649 C 0.02684 0.3218 0.37339 0.0
C3650 C 0.99555 0.31009 0.329 0.0
C3651 C 0.98324 0.29314 0.3291 0.0
C3652 C 0.99172 0.32319 0.31753 0.0
C3653 C 1.00427 0.34137 0.31703 0.0
C3654 C 0.01061 0.35464 0.33354 0.0
C3655 C 0.0229 0.37144 0.33299 0.0
C3656 C 0.02874 0.37526 0.31596 0.0
C3657 C 0.02227 0.3623 0.29944 0.0
C3658 C 0.01006 0.34542 0.29994 0.0
C3659 C 0.91398 0.29981 0.30491 0.0
C3660 C 0.91061 0.30554 0.2875 0.0
C3661 C 0.93075 0.29863 0.31136 0.0
C3662 C 0.94434 0.30199 0.30008 0.0
C3663 C 0.94076 0.30639 0.28212 0.0
C3664 C 0.92407 0.30835 0.27594 0.0
C3665 C 0.96252 0.30298 0.30797 0.0
C3666 C 0.97529 0.31941 0.30703 0.0
C3667 C 0.96678 0.28929 0.31856 0.0
C3668 C 0.95407 0.27124 0.31934 0.0
C3669 C 0.9453 0.25939 0.30274 0.0
C3670 C 0.93259 0.24301 0.30363 0.0
C3671 C 0.92864 0.23826 0.32103 0.0
C3672 C 0.93741 0.24985 0.33758 0.0
C3673 C 0.9501 0.26626 0.33678 0.0
H3674 H 0.91877 0.2256 0.32168 0.0
H3675 H 0.03823 0.38829 0.31555 0.0
H3676 H 0.9756 0.68644 0.6193 0.0
H3677 H 0.98566 0.65754 0.60717 0.0
H3678 H 0.03561 0.69264 0.60072 0.0
H3679 H 0.02577 0.7211 0.61277 0.0
H3680 H 0.0148 0.67103 0.56708 0.0
H3681 H 0.03714 0.66593 0.62893 0.0
H3682 H 0.03576 0.6632 0.66229 0.0
H3683 H 0.99883 0.60937 0.64672 0.0
H3684 H 0.99953 0.61207 0.61324 0.0
H3685 H 0.06077 0.60322 0.52892 0.0
H3686 H 0.05441 0.62811 0.55231 0.0
H3687 H 1.0036 0.5924 0.55452 0.0
H3688 H 0.00959 0.56799 0.53049 0.0
H3689 H 0.025 0.61339 0.59154 0.0
H3690 H 1.00137 0.62033 0.52973 0.0
H3691 H 1.00244 0.62388 0.49652 0.0
H3692 H 0.04226 0.67548 0.5127 0.0
H3693 H 0.04176 0.67192 0.54601 0.0
C3694 C 0.98884 0.68775 0.61575 0.0
C3695 C 0.99986 0.70574 0.61648 0.0
C3696 C 0.99458 0.67139 0.60895 0.0
C3697 C 0.01128 0.67319 0.60298 0.0
C3698 C 0.02269 0.6911 0.60526 0.0
C3699 C 0.01703 0.70726 0.61202 0.0
C3700 C 0.01589 0.65717 0.59139 0.0
C3701 C 0.01722 0.65851 0.57248 0.0
C3702 C 0.01873 0.64087 0.5985 0.0
C3703 C 0.0182 0.63932 0.61859 0.0
C3704 C 0.02852 0.65364 0.63261 0.0
C3705 C 0.02791 0.65208 0.65155 0.0
C3706 C 0.01722 0.63613 0.65662 0.0
C3707 C 1.00709 0.62173 0.64277 0.0
C3708 C 1.00756 0.62329 0.62382 0.0
C3709 C 0.04833 0.60077 0.53456 0.0
C3710 C 0.03552 0.58405 0.52797 0.0
C3711 C 0.04477 0.61481 0.54789 0.0
C3712 C 0.02861 0.61187 0.55508 0.0
C3713 C 0.01616 0.59473 0.54914 0.0
C3714 C 0.0195 0.58097 0.53538 0.0
C3715 C 0.02399 0.62741 0.56735 0.0
C3716 C 0.0226 0.62597 0.58626 0.0
C3717 C 0.02115 0.64377 0.56033 0.0
C3718 C 0.02175 0.64567 0.54031 0.0
C3719 C 0.01058 0.63224 0.52618 0.0
C3720 C 0.01104 0.63429 0.50734 0.0
C3721 C 0.02246 0.64985 0.50249 0.0
C3722 C 0.03347 0.66339 0.51647 0.0
C3723 C 0.03313 0.66134 0.53532 0.0
H3724 H 0.02274 0.65147 0.4879 0.0
H3725 H 0.01681 0.63491 0.67129 0.0
H3726 H 0.615 0.79948 0.82841 0.0
H3727 H 0.63843 0.79369 0.80997 0.0
H3728 H 0.67689 0.82374 0.85638 0.0
H3729 H 0.65356 0.82967 0.87495 0.0
H3730 H 0.68297 0.83498 0.8222 0.0
H3731 H 0.66921 0.77798 0.84876 0.0
H3732 H 0.64881 0.75011 0.85622 0.0
H3733 H 0.63481 0.72817 0.7974 0.0
H3734 H 0.65489 0.75619 0.7896 0.0
H3735 H 0.76006 0.81148 0.7997 0.0
H3736 H 0.73405 0.8162 0.81344 0.0
H3737 H 0.70173 0.77639 0.76738 0.0
H3738 H 0.72825 0.77061 0.75412 0.0
H3739 H 0.69031 0.76998 0.79844 0.0
H3740 H 0.70514 0.829 0.77271 0.0
H3741 H 0.72209 0.86003 0.76726 0.0
H3742 H 0.73417 0.87892 0.82674 0.0
H3743 H 0.71732 0.84809 0.83253 0.0
C3744 C 0.62845 0.80479 0.8347 0.0
C3745 C 0.63256 0.8149 0.85309 0.0
C3746 C 0.64173 0.80143 0.82419 0.0
C3747 C 0.65919 0.80817 0.83201 0.0
C3748 C 0.66337 0.81841 0.85029 0.0
C3749 C 0.6501 0.82169 0.86085 0.0
C3750 C 0.6732 0.80489 0.82094 0.0
C3751 C 0.68474 0.8208 0.81708 0.0
C3752 C 0.67497 0.78636 0.814 0.0
C3753 C 0.66339 0.76922 0.8186 0.0
C3754 C 0.66169 0.76726 0.83742 0.0
C3755 C 0.65019 0.75145 0.84171 0.0
C3756 C 0.64048 0.7374 0.82729 0.0
C3757 C 0.64232 0.73909 0.80855 0.0
C3758 C 0.65376 0.75493 0.80419 0.0
C3759 C 0.74738 0.8039 0.79238 0.0
C3760 C 0.74594 0.79098 0.77575 0.0
C3761 C 0.73254 0.80674 0.80014 0.0
C3762 C 0.71597 0.79723 0.79102 0.0
C3763 C 0.71446 0.78408 0.77442 0.0
C3764 C 0.72947 0.78079 0.76689 0.0
C3765 C 0.70041 0.80021 0.79972 0.0
C3766 C 0.68849 0.7842 0.80322 0.0
C3767 C 0.69838 0.81873 0.80657 0.0
C3768 C 0.71002 0.83631 0.80301 0.0
C3769 C 0.71167 0.83968 0.78458 0.0
C3770 C 0.7212 0.85723 0.78145 0.0
C3771 C 0.72914 0.87138 0.79668 0.0
C3772 C 0.72797 0.86792 0.81501 0.0
C3773 C 0.71841 0.85047 0.81822 0.0
H3774 H 0.73587 0.8852 0.79439 0.0
H3775 H 0.63155 0.72517 0.83064 0.0
H3776 H 0.45908 0.58852 0.70546 0.0
H3777 H 0.47396 0.58831 0.67679 0.0
H3778 H 0.47217 0.52849 0.67466 0.0
H3779 H 0.45784 0.52886 0.70314 0.0
H3780 H 0.50102 0.53988 0.66369 0.0
H3781 H 0.44631 0.55397 0.64141 0.0
H3782 H 0.42368 0.57284 0.64182 0.0
H3783 H 0.46195 0.62246 0.63533 0.0
H3784 H 0.48483 0.60391 0.63518 0.0
H3785 H 0.52323 0.51893 0.56811 0.0
H3786 H 0.50863 0.52145 0.5969 0.0
H3787 H 0.51791 0.58226 0.59958 0.0
H3788 H 0.53288 0.57972 0.57119 0.0
H3789 H 0.48653 0.57211 0.61065 0.0
H3790 H 0.54057 0.55974 0.63107 0.0
H3791 H 0.56516 0.54375 0.63324 0.0
H3792 H 0.53076 0.49375 0.64518 0.0
H3793 H 0.50589 0.50935 0.64277 0.0
C3794 C 0.46125 0.57512 0.69862 0.0
C3795 C 0.45628 0.55854 0.70698 0.0
C3796 C 0.47008 0.57496 0.68191 0.0
C3797 C 0.47446 0.55821 0.67241 0.0
C3798 C 0.46938 0.54181 0.68086 0.0
C3799 C 0.46073 0.542 0.69742 0.0
C3800 C 0.48427 0.55737 0.6542 0.0
C3801 C 0.49739 0.54672 0.65208 0.0
C3802 C 0.48088 0.56666 0.63857 0.0
C3803 C 0.46722 0.57766 0.63845 0.0
C3804 C 0.44986 0.56893 0.64015 0.0
C3805 C 0.43702 0.57956 0.64035 0.0
C3806 C 0.44139 0.59885 0.63864 0.0
C3807 C 0.4586 0.60754 0.63668 0.0
C3808 C 0.4715 0.59698 0.63654 0.0
C3809 C 0.52182 0.53285 0.57445 0.0
C3810 C 0.52886 0.54899 0.56623 0.0
C3811 C 0.51357 0.53439 0.59142 0.0
C3812 C 0.51172 0.55215 0.60125 0.0
C3813 C 0.51863 0.56821 0.59286 0.0
C3814 C 0.52721 0.56671 0.57619 0.0
C3815 C 0.50278 0.55409 0.61991 0.0
C3816 C 0.48997 0.56505 0.62217 0.0
C3817 C 0.50664 0.54528 0.63575 0.0
C3818 C 0.52133 0.53558 0.63645 0.0
C3819 C 0.5382 0.54523 0.63388 0.0
C3820 C 0.5522 0.53627 0.63522 0.0
C3821 C 0.54951 0.51772 0.63927 0.0
C3822 C 0.53281 0.50809 0.64198 0.0
C3823 C 0.51876 0.51698 0.64061 0.0
H3824 H 0.56038 0.51082 0.64036 0.0
H3825 H 0.43142 0.60707 0.6388 0.0
H3826 H 0.7767 0.13887 0.95811 0.0
H3827 H 0.76163 0.15007 0.93236 0.0
H3828 H 0.77805 0.20795 0.96192 0.0
H3829 H 0.79327 0.19706 0.98737 0.0
H3830 H 0.74372 0.19908 0.94496 0.0
H3831 H 0.80161 0.19598 0.9333 0.0
H3832 H 0.82565 0.17914 0.93195 0.0
H3833 H 0.7958 0.13789 0.88602 0.0
H3834 H 0.77129 0.15416 0.88758 0.0
H3835 H 0.75621 0.26177 0.87961 0.0
H3836 H 0.75603 0.24261 0.90434 0.0
H3837 H 0.74074 0.19121 0.86308 0.0
H3838 H 0.74173 0.21059 0.83797 0.0
H3839 H 0.76967 0.1923 0.88497 0.0
H3840 H 0.71315 0.20609 0.89635 0.0
H3841 H 0.69405 0.22873 0.90168 0.0
H3842 H 0.72785 0.25793 0.95157 0.0
H3843 H 0.7473 0.23571 0.94635 0.0
C3844 C 0.77727 0.15399 0.95891 0.0
C3845 C 0.78635 0.16722 0.97443 0.0
C3846 C 0.76839 0.16025 0.9445 0.0
C3847 C 0.76867 0.1797 0.94559 0.0
C3848 C 0.77753 0.19284 0.96115 0.0
C3849 C 0.78646 0.18665 0.97542 0.0
C3850 C 0.76192 0.18692 0.92946 0.0
C3851 C 0.74912 0.19744 0.93169 0.0
C3852 C 0.76948 0.18507 0.91258 0.0
C3853 C 0.78456 0.17607 0.91071 0.0
C3854 C 0.80014 0.18324 0.92298 0.0
C3855 C 0.81382 0.17379 0.92223 0.0
C3856 C 0.81223 0.1574 0.90895 0.0
C3857 C 0.79698 0.15053 0.89634 0.0
C3858 C 0.78317 0.15984 0.89718 0.0
C3859 C 0.75205 0.2464 0.87584 0.0
C3860 C 0.74875 0.23755 0.857 0.0
C3861 C 0.75195 0.23546 0.88999 0.0
C3862 C 0.74801 0.21554 0.88548 0.0
C3863 C 0.74359 0.20662 0.86671 0.0
C3864 C 0.74406 0.21761 0.85247 0.0
C3865 C 0.751 0.20427 0.90013 0.0
C3866 C 0.76351 0.19324 0.89781 0.0
C3867 C 0.7438 0.20655 0.91729 0.0
C3868 C 0.73162 0.21923 0.92095 0.0
C3869 C 0.71647 0.21734 0.90846 0.0
C3870 C 0.70563 0.23013 0.91144 0.0
C3871 C 0.70973 0.24476 0.92696 0.0
C3872 C 0.72466 0.24658 0.93958 0.0
C3873 C 0.73558 0.23387 0.93663 0.0
H3874 H 0.70134 0.25468 0.9292 0.0
H3875 H 0.82283 0.15006 0.90839 0.0
H3876 H 0.1375 0.51676 0.18908 0.0
H3877 H 0.12481 0.51601 0.15717 0.0
H3878 H 0.13742 0.57772 0.16561 0.0
H3879 H 0.14889 0.57832 0.1983 0.0
H3880 H 0.1043 0.56397 0.15577 0.0
H3881 H 0.15589 0.54993 0.1322 0.0
H3882 H 0.17984 0.53288 0.13247 0.0
H3883 H 0.14266 0.47942 0.115 0.0
H3884 H 0.11849 0.49614 0.11489 0.0
H3885 H 0.07073 0.56469 0.06301 0.0
H3886 H 0.09165 0.56705 0.09049 0.0
H3887 H 0.06945 0.50849 0.09502 0.0
H3888 H 0.04798 0.50614 0.06748 0.0
H3889 H 0.10891 0.52207 0.09691 0.0
H3890 H 0.05774 0.53531 0.12216 0.0
H3891 H 0.03313 0.55109 0.12525 0.0
H3892 H 0.06917 0.60538 0.14209 0.0
H3893 H 0.09402 0.58998 0.13848 0.0
C3894 C 0.13808 0.53008 0.18379 0.0
C3895 C 0.1439 0.54757 0.19565 0.0
C3896 C 0.13101 0.52969 0.1656 0.0
C3897 C 0.13048 0.54683 0.15906 0.0
C3898 C 0.13786 0.56441 0.17053 0.0
C3899 C 0.14438 0.56477 0.18899 0.0
C3900 C 0.11953 0.54616 0.14162 0.0
C3901 C 0.10561 0.55529 0.14273 0.0
C3902 C 0.1209 0.53414 0.12501 0.0
C3903 C 0.13544 0.52427 0.12347 0.0
C3904 C 0.15286 0.53454 0.1283 0.0
C3905 C 0.16645 0.52493 0.1285 0.0
C3906 C 0.16277 0.50508 0.12374 0.0
C3907 C 0.14549 0.4948 0.11863 0.0
C3908 C 0.13185 0.50434 0.11842 0.0
C3909 C 0.07033 0.55233 0.0699 0.0
C3910 C 0.05785 0.53528 0.06356 0.0
C3911 C 0.08221 0.55371 0.08544 0.0
C3912 C 0.0818 0.53796 0.0945 0.0
C3913 C 0.06967 0.5207 0.08796 0.0
C3914 C 0.05746 0.51943 0.07254 0.0
C3915 C 0.09394 0.53999 0.1112 0.0
C3916 C 0.10794 0.53109 0.10989 0.0
C3917 C 0.09265 0.55223 0.12766 0.0
C3918 C 0.07772 0.56153 0.12969 0.0
C3919 C 0.06042 0.55065 0.12618 0.0
C3920 C 0.04642 0.55952 0.12808 0.0
C3921 C 0.04958 0.57924 0.13377 0.0
C3922 C 0.06674 0.59012 0.1376 0.0
C3923 C 0.08078 0.58133 0.13558 0.0
H3924 H 0.03872 0.58608 0.1353 0.0
H3925 H 0.17331 0.49764 0.12401 0.0
H3926 H 0.81184 0.8429 0.48387 0.0
H3927 H 0.80979 0.82565 0.45184 0.0
H3928 H 0.79193 0.87127 0.42984 0.0
H3929 H 0.79404 0.88862 0.46176 0.0
H3930 H 0.77283 0.83496 0.41237 0.0
H3931 H 0.83272 0.86933 0.42909 0.0
H3932 H 0.86155 0.87896 0.4482 0.0
H3933 H 0.86675 0.82082 0.43981 0.0
H3934 H 0.83777 0.8108 0.42096 0.0
H3935 H 0.7902 0.82613 0.31899 0.0
H3936 H 0.7885 0.83562 0.35223 0.0
H3937 H 0.81337 0.79068 0.36524 0.0
H3938 H 0.81557 0.78147 0.33163 0.0
H3939 H 0.82701 0.82205 0.38836 0.0
H3940 H 0.76833 0.78827 0.36767 0.0
H3941 H 0.73928 0.77883 0.34895 0.0
H3942 H 0.73132 0.83539 0.36397 0.0
H3943 H 0.76042 0.8453 0.38253 0.0
C3944 C 0.80753 0.84927 0.4722 0.0
C3945 C 0.80331 0.86722 0.47531 0.0
C3946 C 0.8063 0.83938 0.45393 0.0
C3947 C 0.80072 0.8472 0.43848 0.0
C3948 C 0.7962 0.86495 0.44157 0.0
C3949 C 0.79759 0.87493 0.45981 0.0
C3950 C 0.80045 0.83739 0.41901 0.0
C3951 C 0.78466 0.8322 0.40702 0.0
C3952 C 0.81578 0.83332 0.41225 0.0
C3953 C 0.83301 0.83929 0.42385 0.0
C3954 C 0.83992 0.85857 0.43153 0.0
C3955 C 0.8563 0.86411 0.44227 0.0
C3956 C 0.86595 0.8505 0.44527 0.0
C3957 C 0.85924 0.83133 0.43753 0.0
C3958 C 0.84284 0.82572 0.42683 0.0
C3959 C 0.7954 0.81833 0.32897 0.0
C3960 C 0.80308 0.80313 0.32286 0.0
C3961 C 0.7942 0.8236 0.34794 0.0
C3962 C 0.80033 0.81353 0.36122 0.0
C3963 C 0.80838 0.79853 0.35519 0.0
C3964 C 0.80982 0.79339 0.33609 0.0
C3965 C 0.79942 0.81975 0.38145 0.0
C3966 C 0.81504 0.82438 0.39367 0.0
C3967 C 0.78387 0.82328 0.38832 0.0
C3968 C 0.76662 0.81754 0.3765 0.0
C3969 C 0.76048 0.79877 0.36683 0.0
C3970 C 0.74398 0.79332 0.35627 0.0
C3971 C 0.73346 0.80649 0.35533 0.0
C3972 C 0.73948 0.82519 0.36476 0.0
C3973 C 0.75596 0.83072 0.37531 0.0
H3974 H 0.72061 0.80218 0.34739 0.0
H3975 H 0.87867 0.85482 0.45353 0.0
H3976 H 0.43294 0.53965 0.81649 0.0
H3977 H 0.44926 0.53441 0.84479 0.0
H3978 H 0.49234 0.5798 0.83847 0.0
H3979 H 0.47655 0.58352 0.80898 0.0
H3980 H 0.50799 0.56092 0.85465 0.0
H3981 H 0.45789 0.57896 0.87611 0.0
H3982 H 0.42677 0.57895 0.87806 0.0
H3983 H 0.41704 0.52094 0.88786 0.0
H3984 H 0.44809 0.52059 0.88578 0.0
H3985 H 0.53965 0.57013 0.95521 0.0
H3986 H 0.52641 0.57446 0.92456 0.0
H3987 H 0.49789 0.51591 0.91473 0.0
H3988 H 0.5117 0.51131 0.94505 0.0
H3989 H 0.47627 0.54255 0.90775 0.0
H3990 H 0.53019 0.52871 0.88869 0.0
H3991 H 0.56235 0.53412 0.89112 0.0
H3992 H 0.56589 0.59176 0.88175 0.0
H3993 H 0.53372 0.58671 0.87942 0.0
C3994 C 0.44585 0.54863 0.82114 0.0
C3995 C 0.45308 0.56222 0.81019 0.0
C3996 C 0.45532 0.54581 0.83778 0.0
C3997 C 0.47226 0.55709 0.84506 0.0
C3998 C 0.47949 0.57067 0.83393 0.0
C3999 C 0.47026 0.57296 0.81686 0.0
C4000 C 0.4823 0.55462 0.86381 0.0
C4001 C 0.5008 0.55714 0.86616 0.0
C4002 C 0.4738 0.54969 0.87968 0.0
C4003 C 0.45517 0.54968 0.88057 0.0
C4004 C 0.44905 0.56618 0.87853 0.0
C4005 C 0.43146 0.56624 0.87969 0.0
C4006 C 0.41993 0.54993 0.88302 0.0
C4007 C 0.42598 0.53354 0.88523 0.0
C4008 C 0.44356 0.5334 0.88408 0.0
C4009 C 0.53071 0.55804 0.94649 0.0
C4010 C 0.52693 0.54031 0.95299 0.0
C4011 C 0.52308 0.56055 0.92875 0.0
C4012 C 0.5109 0.54558 0.91683 0.0
C4013 C 0.50715 0.52784 0.92329 0.0
C4014 C 0.51518 0.52517 0.94079 0.0
C4015 C 0.50154 0.54856 0.89824 0.0
C4016 C 0.48326 0.54624 0.89605 0.0
C4017 C 0.51034 0.55441 0.88295 0.0
C4018 C 0.52959 0.55737 0.88399 0.0
C4019 C 0.53784 0.54256 0.88723 0.0
C4020 C 0.55606 0.54555 0.88858 0.0
C4021 C 0.56616 0.56328 0.88662 0.0
C4022 C 0.55805 0.57803 0.88326 0.0
C4023 C 0.53982 0.5751 0.88188 0.0
H4024 H 0.58027 0.56558 0.88769 0.0
H4025 H 0.4063 0.55002 0.88394 0.0
H4026 H 0.75735 0.18607 0.06506 0.0
H4027 H 0.75784 0.20175 0.09714 0.0
H4028 H 0.80722 0.18775 0.11247 0.0
H4029 H 0.80695 0.17212 0.07999 0.0
H4030 H 0.78112 0.18559 0.13999 0.0
H4031 H 0.81075 0.22668 0.10051 0.0
H4032 H 0.81397 0.24248 0.07268 0.0
H4033 H 0.77101 0.26831 0.08467 0.0
H4034 H 0.76721 0.25222 0.11227 0.0
H4035 H 0.81409 0.25614 0.21811 0.0
H4036 H 0.80901 0.23403 0.18864 0.0
H4037 H 0.7686 0.26077 0.16828 0.0
H4038 H 0.77443 0.28376 0.19774 0.0
H4039 H 0.78901 0.25559 0.14303 0.0
H4040 H 0.7592 0.21545 0.18253 0.0
H4041 H 0.75504 0.1993 0.21006 0.0
H4042 H 0.79712 0.17194 0.19827 0.0
H4043 H 0.80169 0.18813 0.17085 0.0
C4044 C 0.76811 0.18595 0.0754 0.0
C4045 C 0.78235 0.17843 0.07022 0.0
C4046 C 0.76834 0.19486 0.0936 0.0
C4047 C 0.78276 0.19617 0.10674 0.0
C4048 C 0.79611 0.18687 0.10221 0.0
C4049 C 0.79592 0.17795 0.08383 0.0
C4050 C 0.78457 0.20893 0.12452 0.0
C4051 C 0.78305 0.20093 0.14082 0.0
C4052 C 0.78652 0.22877 0.12516 0.0
C4053 C 0.78852 0.23799 0.10826 0.0
C4054 C 0.80179 0.23545 0.09702 0.0
C4055 C 0.80376 0.24451 0.08132 0.0
C4056 C 0.79266 0.25633 0.07687 0.0
C4057 C 0.77955 0.25909 0.08809 0.0
C4058 C 0.77747 0.24997 0.10373 0.0
C4059 C 0.80418 0.25729 0.20725 0.0
C4060 C 0.79464 0.2715 0.20982 0.0
C4061 C 0.80113 0.24454 0.1906 0.0
C4062 C 0.78812 0.24548 0.17658 0.0
C4063 C 0.7786 0.2598 0.17911 0.0
C4064 C 0.78196 0.27291 0.19572 0.0
C4065 C 0.78545 0.23233 0.15876 0.0
C4066 C 0.7869 0.24025 0.14234 0.0
C4067 C 0.7833 0.21241 0.15802 0.0
C4068 C 0.78085 0.20309 0.17475 0.0
C4069 C 0.76766 0.20613 0.18593 0.0
C4070 C 0.76521 0.19694 0.20149 0.0
C4071 C 0.77582 0.18462 0.20592 0.0
C4072 C 0.78892 0.18148 0.19483 0.0
C4073 C 0.79144 0.19065 0.17928 0.0
H4074 H 0.77388 0.17747 0.21795 0.0
H4075 H 0.79426 0.26341 0.06476 0.0
H4076 H 0.12251 0.53596 0.28197 0.0
H4077 H 0.11432 0.5538 0.30969 0.0
H4078 H 0.16893 0.57633 0.33046 0.0
H4079 H 0.1772 0.55814 0.30311 0.0
H4080 H 0.14948 0.55675 0.35381 0.0
H4081 H 0.14423 0.60841 0.31861 0.0
H4082 H 0.13344 0.62036 0.29066 0.0
H4083 H 0.08057 0.59379 0.29693 0.0
H4084 H 0.09108 0.58177 0.32494 0.0
H4085 H 0.12008 0.59014 0.4369 0.0
H4086 H 0.1366 0.59287 0.40981 0.0
H4087 H 0.08802 0.57954 0.37289 0.0
H4088 H 0.07178 0.57789 0.39956 0.0
H4089 H 0.10956 0.6012 0.3584 0.0
H4090 H 0.10927 0.54419 0.38381 0.0
H4091 H 0.1143 0.52206 0.40546 0.0
H4092 H 0.16956 0.5464 0.41192 0.0
H4093 H 0.16479 0.56878 0.39043 0.0
C4094 C 0.13269 0.54467 0.29255 0.0
C4095 C 0.15037 0.54537 0.29088 0.0
C4096 C 0.12805 0.55514 0.30804 0.0
C4097 C 0.14112 0.5666 0.32168 0.0
C4098 C 0.1588 0.56766 0.3198 0.0
C4099 C 0.16344 0.55699 0.30447 0.0
C4100 C 0.13629 0.57464 0.33943 0.0
C4101 C 0.14126 0.56703 0.35511 0.0
C4102 C 0.12473 0.58697 0.34047 0.0
C4103 C 0.11842 0.59434 0.32384 0.0
C4104 C 0.13031 0.60516 0.31399 0.0
C4105 C 0.12425 0.61195 0.29817 0.0
C4106 C 0.10633 0.60788 0.29205 0.0
C4107 C 0.09443 0.59702 0.30174 0.0
C4108 C 0.10042 0.5903 0.31763 0.0
C4109 C 0.11311 0.58874 0.42303 0.0
C4110 C 0.09478 0.58405 0.42018 0.0
C4111 C 0.12247 0.59006 0.40765 0.0
C4112 C 0.11348 0.58613 0.38946 0.0
C4113 C 0.09521 0.58285 0.38684 0.0
C4114 C 0.08594 0.58201 0.40212 0.0
C4115 C 0.12266 0.58321 0.37298 0.0
C4116 C 0.11843 0.59162 0.35747 0.0
C4117 C 0.13399 0.57049 0.37166 0.0
C4118 C 0.13665 0.55843 0.38595 0.0
C4119 C 0.12244 0.54507 0.39018 0.0
C4120 C 0.12525 0.5324 0.40231 0.0
C4121 C 0.14222 0.5329 0.41015 0.0
C4122 C 0.15641 0.54611 0.40593 0.0
C4123 C 0.15366 0.55881 0.39383 0.0
H4124 H 0.1444 0.52298 0.41943 0.0
H4125 H 0.10166 0.61313 0.27978 0.0
H4126 H 0.82303 0.84337 0.57216 0.0
H4127 H 0.81751 0.83092 0.60079 0.0
H4128 H 0.77861 0.864 0.60955 0.0
H4129 H 0.78439 0.87707 0.58044 0.0
H4130 H 0.79725 0.86498 0.64221 0.0
H4131 H 0.76743 0.81338 0.59433 0.0
H4132 H 0.76356 0.78998 0.56524 0.0
H4133 H 0.80531 0.76681 0.58748 0.0
H4134 H 0.80955 0.79018 0.61663 0.0
H4135 H 0.77476 0.81552 0.71955 0.0
H4136 H 0.77484 0.83015 0.69101 0.0
H4137 H 0.8095 0.79574 0.66942 0.0
H4138 H 0.80813 0.78019 0.69718 0.0
H4139 H 0.78861 0.79547 0.64231 0.0
H4140 H 0.82022 0.84928 0.68905 0.0
H4141 H 0.82352 0.87228 0.71836 0.0
H4142 H 0.77828 0.89113 0.69814 0.0
H4143 H 0.77458 0.86804 0.66884 0.0
C4144 C 0.81322 0.84814 0.58001 0.0
C4145 C 0.80413 0.86131 0.57368 0.0
C4146 C 0.80997 0.84078 0.5965 0.0
C4147 C 0.7973 0.846 0.60735 0.0
C4148 C 0.78838 0.85952 0.60145 0.0
C4149 C 0.79173 0.86708 0.58479 0.0
C4150 C 0.79396 0.83756 0.62496 0.0
C4151 C 0.79508 0.84974 0.64214 0.0
C4152 C 0.79135 0.81765 0.62521 0.0
C4153 C 0.78887 0.80361 0.60764 0.0
C4154 C 0.77586 0.80337 0.59297 0.0
C4155 C 0.77358 0.79009 0.57648 0.0
C4156 C 0.7842 0.77694 0.5745 0.0
C4157 C 0.79709 0.77701 0.58902 0.0
C4158 C 0.79942 0.79024 0.60555 0.0
C4159 C 0.7827 0.81146 0.70886 0.0
C4160 C 0.79179 0.79703 0.71084 0.0
C4161 C 0.78278 0.81984 0.69243 0.0
C4162 C 0.79246 0.81448 0.6778 0.0
C4163 C 0.80185 0.80031 0.68018 0.0
C4164 C 0.80129 0.79156 0.69627 0.0
C4165 C 0.79257 0.82295 0.65981 0.0
C4166 C 0.79077 0.81073 0.64247 0.0
C4167 C 0.7946 0.8428 0.65942 0.0
C4168 C 0.79706 0.85687 0.67685 0.0
C4169 C 0.81096 0.8583 0.6909 0.0
C4170 C 0.81289 0.87134 0.70751 0.0
C4171 C 0.8011 0.88314 0.71012 0.0
C4172 C 0.78739 0.88197 0.69611 0.0
C4173 C 0.78537 0.86892 0.6795 0.0
H4174 H 0.8026 0.8932 0.72299 0.0
H4175 H 0.78241 0.76667 0.56172 0.0
H4176 H 0.74536 0.42338 0.49986 0.0
H4177 H 0.72292 0.43883 0.51116 0.0
H4178 H 0.76165 0.49115 0.53081 0.0
H4179 H 0.78457 0.47561 0.51973 0.0
H4180 H 0.73444 0.47942 0.55563 0.0
H4181 H 0.74123 0.49091 0.49262 0.0
H4182 H 0.74565 0.4797 0.46004 0.0
H4183 H 0.6964 0.439 0.45267 0.0
H4184 H 0.69183 0.44978 0.48536 0.0
H4185 H 0.67023 0.53587 0.55686 0.0
H4186 H 0.69541 0.5215 0.55586 0.0
H4187 H 0.66333 0.47069 0.52141 0.0
H4188 H 0.63823 0.48515 0.52188 0.0
H4189 H 0.68966 0.48405 0.50498 0.0
H4190 H 0.68266 0.4712 0.5674 0.0
H4191 H 0.68033 0.47668 0.60136 0.0
H4192 H 0.73019 0.51647 0.61096 0.0
H4193 H 0.73271 0.5114 0.57704 0.0
C4194 C 0.74918 0.43814 0.50666 0.0
C4195 C 0.76658 0.44845 0.50873 0.0
C4196 C 0.73639 0.44685 0.5132 0.0
C4197 C 0.74081 0.46601 0.52162 0.0
C4198 C 0.75822 0.47628 0.52432 0.0
C4199 C 0.77115 0.46749 0.51782 0.0
C4200 C 0.72677 0.47547 0.52593 0.0
C4201 C 0.72476 0.48095 0.54469 0.0
C4202 C 0.71415 0.47671 0.51144 0.0
C4203 C 0.71619 0.47117 0.4914 0.0
C4204 C 0.73133 0.4796 0.48402 0.0
C4205 C 0.73388 0.47329 0.46557 0.0
C4206 C 0.72131 0.45865 0.45429 0.0
C4207 C 0.70611 0.45037 0.46142 0.0
C4208 C 0.7035 0.45661 0.4799 0.0
C4209 C 0.66836 0.52141 0.54953 0.0
C4210 C 0.65212 0.51161 0.53951 0.0
C4211 C 0.68279 0.5132 0.54905 0.0
C4212 C 0.68117 0.49502 0.53869 0.0
C4213 C 0.6648 0.48477 0.52953 0.0
C4214 C 0.65044 0.49306 0.5298 0.0
C4215 C 0.69686 0.48789 0.535 0.0
C4216 C 0.6993 0.48289 0.51614 0.0
C4217 C 0.70981 0.48707 0.54949 0.0
C4218 C 0.70772 0.49115 0.56966 0.0
C4219 C 0.69297 0.48138 0.57672 0.0
C4220 C 0.69167 0.48433 0.59597 0.0
C4221 C 0.70507 0.49697 0.60831 0.0
C4222 C 0.71979 0.50673 0.6014 0.0
C4223 C 0.72115 0.50384 0.58216 0.0
H4224 H 0.70408 0.49914 0.62322 0.0
H4225 H 0.72335 0.45372 0.44002 0.0
H4226 H 0.21588 0.18 0.49154 0.0
H4227 H 0.1888 0.1589 0.49595 0.0
H4228 H 0.21557 0.11329 0.49898 0.0
H4229 H 0.24315 0.13463 0.49438 0.0
H4230 H 0.18514 0.09932 0.47862 0.0
H4231 H 0.20069 0.13761 0.5389 0.0
H4232 H 0.20965 0.16708 0.56225 0.0
H4233 H 0.16305 0.1845 0.54389 0.0
H4234 H 0.1539 0.15524 0.52027 0.0
H4235 H 0.11253 0.03691 0.50378 0.0
H4236 H 0.14075 0.05835 0.504 0.0
H4237 H 0.11578 0.10573 0.50424 0.0
H4238 H 0.0872 0.08404 0.50506 0.0
H4239 H 0.14606 0.1188 0.52407 0.0
H4240 H 0.13169 0.08014 0.46247 0.0
H4241 H 0.124 0.05065 0.43906 0.0
H4242 H 0.16989 0.03376 0.46062 0.0
H4243 H 0.17772 0.06303 0.48429 0.0
C4244 C 0.21623 0.16548 0.49307 0.0
C4245 C 0.23205 0.15922 0.49239 0.0
C4246 C 0.20053 0.15335 0.49584 0.0
C4247 C 0.19981 0.13433 0.49817 0.0
C4248 C 0.21552 0.12785 0.49732 0.0
C4249 C 0.2314 0.14011 0.49462 0.0
C4250 C 0.18255 0.12126 0.50064 0.0
C4251 C 0.1768 0.10353 0.48883 0.0
C4252 C 0.17114 0.1266 0.51361 0.0
C4253 C 0.17666 0.14428 0.52771 0.0
C4254 C 0.19241 0.14779 0.53974 0.0
C4255 C 0.19751 0.16445 0.55305 0.0
C4256 C 0.18694 0.17767 0.55453 0.0
C4257 C 0.17124 0.17425 0.54272 0.0
C4258 C 0.16607 0.15762 0.52938 0.0
C4259 C 0.1129 0.05192 0.50395 0.0
C4260 C 0.09729 0.05852 0.50421 0.0
C4261 C 0.12925 0.06429 0.50387 0.0
C4262 C 0.13081 0.08388 0.50342 0.0
C4263 C 0.11527 0.09075 0.50435 0.0
C4264 C 0.09878 0.07828 0.50481 0.0
C4265 C 0.14854 0.09683 0.50187 0.0
C4266 C 0.15439 0.11456 0.51388 0.0
C4267 C 0.16017 0.09146 0.48915 0.0
C4268 C 0.1552 0.07367 0.47523 0.0
C4269 C 0.14005 0.07005 0.46231 0.0
C4270 C 0.13568 0.05339 0.44898 0.0
C4271 C 0.14643 0.04032 0.44837 0.0
C4272 C 0.16156 0.04387 0.46111 0.0
C4273 C 0.16597 0.06049 0.47448 0.0
H4274 H 0.14305 0.02746 0.43801 0.0
H4275 H 0.1909 0.19055 0.56485 0.0
H4276 H 0.19876 0.9678 0.73886 0.0
H4277 H 0.21324 0.94066 0.73579 0.0
H4278 H 0.19294 0.92394 0.78552 0.0
H4279 H 0.17759 0.95033 0.78793 0.0
H4280 H 0.22922 0.92247 0.78667 0.0
H4281 H 0.17837 0.8964 0.74318 0.0
H4282 H 0.15629 0.89093 0.71559 0.0
H4283 H 0.19602 0.88792 0.67896 0.0
H4284 H 0.21842 0.8937 0.70634 0.0
H4285 H 0.25395 0.83004 0.78306 0.0
H4286 H 0.23761 0.85554 0.78329 0.0
H4287 H 0.25806 0.86989 0.73282 0.0
H4288 H 0.27515 0.84503 0.73317 0.0
H4289 H 0.22145 0.87206 0.73101 0.0
H4290 H 0.27233 0.90064 0.7731 0.0
H4291 H 0.29495 0.90445 0.79993 0.0
H4292 H 0.25575 0.90256 0.83776 0.0
H4293 H 0.23285 0.89852 0.81108 0.0
C4294 C 0.19709 0.95833 0.74916 0.0
C4295 C 0.18652 0.96198 0.76369 0.0
C4296 C 0.20556 0.94243 0.74734 0.0
C4297 C 0.2047 0.92935 0.76034 0.0
C4298 C 0.19429 0.93315 0.77498 0.0
C4299 C 0.18526 0.94858 0.77637 0.0
C4300 C 0.21493 0.91257 0.75921 0.0
C4301 C 0.22711 0.91144 0.77443 0.0
C4302 C 0.21332 0.89771 0.74332 0.0
C4303 C 0.20016 0.89588 0.72687 0.0
C4304 C 0.1825 0.89504 0.72927 0.0
C4305 C 0.16988 0.89174 0.71365 0.0
C4306 C 0.17475 0.88917 0.69553 0.0
C4307 C 0.19226 0.88998 0.693 0.0
C4308 C 0.20493 0.89329 0.70857 0.0
C4309 C 0.25509 0.8385 0.77189 0.0
C4310 C 0.26628 0.83476 0.75807 0.0
C4311 C 0.24557 0.85346 0.77205 0.0
C4312 C 0.24602 0.86547 0.75807 0.0
C4313 C 0.25691 0.86142 0.74398 0.0
C4314 C 0.26692 0.84689 0.74419 0.0
C4315 C 0.23566 0.8821 0.75846 0.0
C4316 C 0.22351 0.88318 0.74317 0.0
C4317 C 0.23735 0.89706 0.77413 0.0
C4318 C 0.25088 0.89899 0.79012 0.0
C4319 C 0.26852 0.9008 0.78713 0.0
C4320 C 0.28139 0.90307 0.8023 0.0
C4321 C 0.27678 0.90367 0.82054 0.0
C4322 C 0.25929 0.90204 0.82363 0.0
C4323 C 0.24636 0.89976 0.80849 0.0
H4324 H 0.28678 0.90545 0.83228 0.0
H4325 H 0.16495 0.88649 0.68346 0.0
H4326 H 0.36713 0.93853 0.97346 0.0
H4327 H 0.39628 0.9587 0.98477 0.0
H4328 H 0.38322 0.96372 0.0417 0.0
H4329 H 0.35377 0.94417 0.03027 0.0
H4330 H 0.40161 0.99867 0.03014 0.0
H4331 H 0.40811 0.93431 0.03319 0.0
H4332 H 0.40252 0.89992 0.02071 0.0
H4333 H 0.42631 0.91247 0.97144 0.0
H4334 H 0.43197 0.94689 0.98359 0.0
H4335 H 0.4943 0.03826 0.0404 0.0
H4336 H 0.46567 0.02167 0.04613 0.0
H4337 H 0.45538 0.99364 0.98824 0.0
H4338 H 0.48482 0.00876 0.98291 0.0
H4339 H 0.45065 0.96891 0.0132 0.0
H4340 H 0.43509 0.02895 1.00278 0.0
H4341 H 0.44355 0.06405 0.01074 0.0
H4342 H 0.43804 0.06056 0.06868 0.0
H4343 H 0.42983 0.02538 0.06104 0.0
C4344 C 0.37056 0.94413 0.98829 0.0
C4345 C 0.3587 0.94001 1.00113 0.0
C4346 C 0.38701 0.95552 0.99473 0.0
C4347 C 0.39166 0.96222 0.01403 0.0
C4348 C 0.37962 0.95852 0.02681 0.0
C4349 C 0.36304 0.94744 0.02031 0.0
C4350 C 0.40946 0.97253 0.02056 0.0
C4351 C 0.41246 0.99216 0.02707 0.0
C4352 C 0.42338 0.96382 0.0164 0.0
C4353 C 0.42054 0.94312 0.00937 0.0
C4354 C 0.41217 0.9297 0.01972 0.0
C4355 C 0.40898 0.91021 0.01269 0.0
C4356 C 0.41408 0.90401 0.99531 0.0
C4357 C 0.42243 0.91728 0.98493 0.0
C4358 C 0.4257 0.93677 0.99192 0.0
C4359 C 0.48596 0.02848 0.02895 0.0
C4360 C 0.49186 0.02391 0.01154 0.0
C4361 C 0.46962 0.01925 0.0322 0.0
C4362 C 0.45887 1.00628 0.01768 0.0
C4363 C 0.46395 1.00338 0.99963 0.0
C4364 C 0.48056 0.01213 0.99656 0.0
C4365 C 0.44245 0.99505 0.02129 0.0
C4366 C 0.43991 0.97528 0.01711 0.0
C4367 C 0.42898 1.00368 0.02709 0.0
C4368 C 0.43168 0.02465 0.03134 0.0
C4369 C 0.43545 0.03573 0.01717 0.0
C4370 C 0.44035 0.05559 0.02164 0.0
C4371 C 0.44135 0.06453 0.04022 0.0
C4372 C 0.43726 0.05361 0.05431 0.0
C4373 C 0.43242 0.03371 0.04991 0.0
H4374 H 0.44529 0.07991 0.0437 0.0
H4375 H 0.41155 0.88892 0.98987 0.0
H4376 H 0.92068 0.593 0.78576 0.0
H4377 H 0.90539 0.61528 0.77349 0.0
H4378 H 0.85999 0.56955 0.75369 0.0
H4379 H 0.87534 0.54693 0.76562 0.0
H4380 H 0.86906 0.59383 0.7279 0.0
H4381 H 0.85838 0.59695 0.79183 0.0
H4382 H 0.86795 0.59844 0.82539 0.0
H4383 H 0.90141 0.65366 0.82695 0.0
H4384 H 0.89226 0.65234 0.79324 0.0
H4385 H 0.80777 0.65324 0.72319 0.0
H4386 H 0.82486 0.62931 0.72596 0.0
H4387 H 0.87056 0.67365 0.74857 0.0
H4388 H 0.85359 0.69783 0.74552 0.0
H4389 H 0.8609 0.64892 0.77243 0.0
H4390 H 0.86968 0.64516 0.70728 0.0
H4391 H 0.86196 0.64069 0.67301 0.0
H4392 H 0.83136 0.58444 0.67352 0.0
H4393 H 0.83865 0.5887 0.70786 0.0
C4394 C 0.90743 0.58769 0.77886 0.0
C4395 C 0.89907 0.56839 0.77673 0.0
C4396 C 0.89879 0.60037 0.77183 0.0
C4397 C 0.88166 0.59387 0.76291 0.0
C4398 C 0.87328 0.5746 0.76058 0.0
C4399 C 0.88197 0.56184 0.76751 0.0
C4400 C 0.87235 0.60756 0.75669 0.0
C4401 C 0.86694 0.60577 0.73755 0.0
C4402 C 0.87002 0.62304 0.7695 0.0
C4403 C 0.87467 0.62453 0.79002 0.0
C4404 C 0.86777 0.60942 0.79934 0.0
C4405 C 0.87315 0.61021 0.81837 0.0
C4406 C 0.8853 0.62613 0.82829 0.0
C4407 C 0.89199 0.64135 0.81923 0.0
C4408 C 0.88669 0.64061 0.80017 0.0
C4409 C 0.82163 0.65797 0.728 0.0
C4410 C 0.82935 0.67734 0.73438 0.0
C4411 C 0.83135 0.64427 0.7296 0.0
C4412 C 0.84886 0.64984 0.73749 0.0
C4413 C 0.85699 0.66922 0.74246 0.0
C4414 C 0.8473 0.68294 0.74081 0.0
C4415 C 0.85775 0.63553 0.74336 0.0
C4416 C 0.86294 0.63706 0.76263 0.0
C4417 C 0.85956 0.61962 0.73066 0.0
C4418 C 0.85453 0.61737 0.71016 0.0
C4419 C 0.86109 0.63196 0.70013 0.0
C4420 C 0.85684 0.62943 0.68068 0.0
C4421 C 0.84613 0.61232 0.6711 0.0
C4422 C 0.83961 0.5977 0.68096 0.0
C4423 C 0.84379 0.60017 0.70041 0.0
H4424 H 0.84293 0.61036 0.65602 0.0
H4425 H 0.8895 0.62668 0.84301 0.0
H4426 H 0.84479 0.67467 0.98299 0.0
H4427 H 0.87066 0.66191 0.99039 0.0
H4428 H 0.84813 0.64062 0.03747 0.0
H4429 H 0.82186 0.6526 0.02957 0.0
H4430 H 0.88689 0.65969 0.04398 0.0
H4431 H 0.84391 0.61048 0.00362 0.0
H4432 H 0.82289 0.5958 0.97558 0.0
H4433 H 0.86399 0.60576 0.94042 0.0
H4434 H 0.88517 0.62098 0.96823 0.0
H4435 H 0.94364 0.59424 0.0547 0.0
H4436 H 0.92006 0.6113 0.05371 0.0
H4437 H 0.927 0.61781 0.99642 0.0
H4438 H 0.94938 0.59953 0.99674 0.0
H4439 H 0.89513 0.60621 0.99761 0.0
H4440 H 0.93894 0.65475 0.03817 0.0
H4441 H 0.96001 0.66901 0.06629 0.0
H4442 H 0.91862 0.66059 0.10125 0.0
H4443 H 0.89735 0.64584 0.0734 0.0
C4444 C 0.8454 0.66736 0.99497 0.0
C4445 C 0.83122 0.66446 0.00558 0.0
C4446 C 0.86022 0.66013 0.99923 0.0
C4447 C 0.86141 0.65034 0.01454 0.0
C4448 C 0.84757 0.64816 0.02565 0.0
C4449 C 0.83251 0.65487 0.02103 0.0
C4450 C 0.8764 0.64106 0.01788 0.0
C4451 C 0.88869 0.64789 0.03396 0.0
C4452 C 0.87888 0.62581 0.00475 0.0
C4453 C 0.86606 0.61718 0.98798 0.0
C4454 C 0.84841 0.60986 0.98988 0.0
C4455 C 0.83647 0.60138 0.97403 0.0
C4456 C 0.84208 0.59993 0.95622 0.0
C4457 C 0.85964 0.60697 0.95422 0.0
C4458 C 0.87161 0.61556 0.97001 0.0
C4459 C 0.94011 0.59915 0.04181 0.0
C4460 C 0.94854 0.59521 0.02574 0.0
C4461 C 0.92673 0.60927 0.04138 0.0
C4462 C 0.92165 0.61606 0.02501 0.0
C4463 C 0.93052 0.61276 0.00926 0.0
C4464 C 0.94361 0.60242 0.00956 0.0
C4465 C 0.90626 0.62518 0.02341 0.0
C4466 C 0.89364 0.61815 0.00767 0.0
C4467 C 0.90367 0.64028 0.03686 0.0
C4468 C 0.91655 0.64894 0.05366 0.0
C4469 C 0.93434 0.65571 0.05186 0.0
C4470 C 0.94633 0.66392 0.06777 0.0
C4471 C 0.94067 0.66566 0.08555 0.0
C4472 C 0.923 0.65919 0.08747 0.0
C4473 C 0.91098 0.65088 0.07163 0.0
H4474 H 0.94995 0.67207 0.09784 0.0
H4475 H 0.83284 0.59327 0.94396 0.0
H4476 H 0.16602 0.09125 0.77668 0.0
H4477 H 0.18432 0.12186 0.77429 0.0
H4478 H 0.22761 0.09551 0.76531 0.0
H4479 H 0.20901 0.06417 0.76799 0.0
H4480 H 0.24134 0.12904 0.78544 0.0
H4481 H 0.2022 0.11482 0.72891 0.0
H4482 H 0.17383 0.10567 0.70893 0.0
H4483 H 0.15794 0.15378 0.73797 0.0
H4484 H 0.18622 0.16319 0.75819 0.0
H4485 H 0.29516 0.2119 0.76102 0.0
H4486 H 0.27633 0.18098 0.76139 0.0
H4487 H 0.2327 0.20721 0.76875 0.0
H4488 H 0.25183 0.23875 0.76767 0.0
H4489 H 0.21887 0.17348 0.74902 0.0
H4490 H 0.25843 0.18716 0.80589 0.0
H4491 H 0.28687 0.19552 0.8258 0.0
H4492 H 0.3019 0.14735 0.79568 0.0
H4493 H 0.27364 0.13886 0.77547 0.0
C4494 C 0.17942 0.09155 0.77418 0.0
C4495 C 0.18556 0.07437 0.77265 0.0
C4496 C 0.19008 0.10955 0.77258 0.0
C4497 C 0.20776 0.11188 0.76917 0.0
C4498 C 0.21417 0.09483 0.76785 0.0
C4499 C 0.20336 0.07657 0.76941 0.0
C4500 C 0.21925 0.13193 0.7675 0.0
C4501 C 0.23634 0.13847 0.77715 0.0
C4502 C 0.21328 0.14527 0.75719 0.0
C4503 C 0.19627 0.13964 0.74514 0.0
C4504 C 0.19261 0.12339 0.73111 0.0
C4505 C 0.17655 0.11816 0.71973 0.0
C4506 C 0.16406 0.12909 0.72221 0.0
C4507 C 0.16762 0.14531 0.73606 0.0
C4508 C 0.18368 0.15063 0.74746 0.0
C4509 C 0.28156 0.21143 0.76275 0.0
C4510 C 0.27555 0.22863 0.76441 0.0
C4511 C 0.27057 0.19327 0.76319 0.0
C4512 C 0.25265 0.19081 0.76574 0.0
C4513 C 0.24632 0.20793 0.76695 0.0
C4514 C 0.25744 0.22634 0.76633 0.0
C4515 C 0.24102 0.17065 0.76703 0.0
C4516 C 0.22389 0.16407 0.7573 0.0
C4517 C 0.24695 0.15719 0.77722 0.0
C4518 C 0.26401 0.16247 0.78912 0.0
C4519 C 0.26787 0.17845 0.80345 0.0
C4520 C 0.28394 0.18319 0.81479 0.0
C4521 C 0.29619 0.17199 0.81198 0.0
C4522 C 0.29241 0.15603 0.79782 0.0
C4523 C 0.27637 0.15124 0.78644 0.0
H4524 H 0.30861 0.17566 0.82081 0.0
H4525 H 0.15163 0.12503 0.71338 0.0
H4526 H 0.39092 0.98998 0.29319 0.0
H4527 H 0.36829 0.96221 0.28055 0.0
H4528 H 0.40708 0.93036 0.26618 0.0
H4529 H 0.4305 0.95911 0.27795 0.0
H4530 H 0.36889 0.9241 0.24022 0.0
H4531 H 0.39925 0.92238 0.30049 0.0
H4532 H 0.41442 0.9367 0.33202 0.0
H4533 H 0.36773 0.95295 0.34805 0.0
H4534 H 0.3525 0.93944 0.31631 0.0
H4535 H 0.33621 0.83583 0.26161 0.0
H4536 H 0.35149 0.86736 0.25754 0.0
H4537 H 0.30949 0.89113 0.27826 0.0
H4538 H 0.29359 0.85884 0.28167 0.0
H4539 H 0.3453 0.90392 0.29741 0.0
H4540 H 0.31344 0.89349 0.23761 0.0
H4541 H 0.29997 0.87566 0.20655 0.0
H4542 H 0.35088 0.87678 0.18929 0.0
H4543 H 0.36466 0.89308 0.2205 0.0
C4544 C 0.39483 0.97722 0.28717 0.0
C4545 C 0.41253 0.97653 0.28693 0.0
C4546 C 0.38183 0.96153 0.27961 0.0
C4547 C 0.38621 0.94459 0.27242 0.0
C4548 C 0.40372 0.94366 0.27153 0.0
C4549 C 0.41697 0.95975 0.27877 0.0
C4550 C 0.37247 0.92751 0.27039 0.0
C4551 C 0.36383 0.91917 0.25254 0.0
C4552 C 0.36574 0.92213 0.28674 0.0
C4553 C 0.37485 0.93025 0.30589 0.0
C4554 C 0.39232 0.92935 0.3106 0.0
C4555 C 0.40092 0.93729 0.32854 0.0
C4556 C 0.39208 0.94583 0.34201 0.0
C4557 C 0.3746 0.94643 0.33757 0.0
C4558 C 0.36599 0.93869 0.31959 0.0
C4559 C 0.33036 0.84788 0.26538 0.0
C4560 C 0.31413 0.84554 0.27217 0.0
C4561 C 0.33877 0.8656 0.26261 0.0
C4562 C 0.3311 0.88107 0.26694 0.0
C4563 C 0.31508 0.87894 0.27438 0.0
C4564 C 0.30639 0.8609 0.27682 0.0
C4565 C 0.342 0.89964 0.26718 0.0
C4566 C 0.35016 0.90872 0.28491 0.0
C4567 C 0.34858 0.90478 0.25065 0.0
C4568 C 0.34018 0.89463 0.23163 0.0
C4569 C 0.32182 0.8896 0.22735 0.0
C4570 C 0.31408 0.87958 0.20966 0.0
C4571 C 0.32453 0.87481 0.19594 0.0
C4572 C 0.34272 0.88004 0.19993 0.0
C4573 C 0.35053 0.88966 0.21768 0.0
H4574 H 0.31856 0.86723 0.18219 0.0
H4575 H 0.39874 0.9519 0.35592 0.0
H4576 H 0.57306 0.37166 0.62049 0.0
H4577 H 0.5677 0.3974 0.60408 0.0
H4578 H 0.57044 0.36344 0.55108 0.0
H4579 H 0.57616 0.33767 0.56756 0.0
H4580 H 0.58565 0.39927 0.54983 0.0
H4581 H 0.5299 0.37029 0.56496 0.0
H4582 H 0.50826 0.35688 0.58497 0.0
H4583 H 0.51823 0.41107 0.62124 0.0
H4584 H 0.54003 0.42474 0.6015 0.0
H4585 H 0.54665 0.4642 0.5006 0.0
H4586 H 0.55075 0.43496 0.51237 0.0
H4587 H 0.55854 0.46516 0.56916 0.0
H4588 H 0.55512 0.49435 0.55743 0.0
H4589 H 0.53622 0.42883 0.56528 0.0
H4590 H 0.59141 0.45765 0.54786 0.0
H4591 H 0.61097 0.47049 0.52601 0.0
H4592 H 0.60181 0.41493 0.49233 0.0
H4593 H 0.58108 0.40197 0.51347 0.0
C4594 C 0.5727 0.36965 0.60535 0.0
C4595 C 0.57514 0.35245 0.59549 0.0
C4596 C 0.56945 0.38442 0.59588 0.0
C4597 C 0.5683 0.38249 0.57615 0.0
C4598 C 0.57118 0.36549 0.56625 0.0
C4599 C 0.57449 0.35068 0.57575 0.0
C4600 C 0.56393 0.39813 0.56608 0.0
C4601 C 0.57463 0.40545 0.553 0.0
C4602 C 0.54966 0.40656 0.57001 0.0
C4603 C 0.53664 0.39846 0.58188 0.0
C4604 C 0.52753 0.37929 0.57728 0.0
C4605 C 0.51523 0.37166 0.58854 0.0
C4606 C 0.5119 0.38311 0.60439 0.0
C4607 C 0.52083 0.40222 0.60897 0.0
C4608 C 0.53313 0.40993 0.59774 0.0
C4609 C 0.54913 0.46451 0.51559 0.0
C4610 C 0.55056 0.48162 0.52808 0.0
C4611 C 0.55154 0.4478 0.52233 0.0
C4612 C 0.55501 0.44769 0.54175 0.0
C4613 C 0.55589 0.46469 0.55417 0.0
C4614 C 0.55397 0.48144 0.54743 0.0
C4615 C 0.55811 0.43019 0.54935 0.0
C4616 C 0.54713 0.42252 0.56196 0.0
C4617 C 0.57196 0.4213 0.54472 0.0
C4618 C 0.58447 0.42893 0.53207 0.0
C4619 C 0.59332 0.44821 0.53564 0.0
C4620 C 0.60469 0.45551 0.52338 0.0
C4621 C 0.60781 0.44353 0.5078 0.0
C4622 C 0.59939 0.42422 0.50439 0.0
C4623 C 0.58771 0.41691 0.51644 0.0
H4624 H 0.61674 0.44922 0.49838 0.0
H4625 H 0.50237 0.37717 0.61311 0.0
H4626 H 0.45466 0.74374 0.3809 0.0
H4627 H 0.42854 0.74629 0.36117 0.0
H4628 H 0.44986 0.8065 0.36432 0.0
H4629 H 0.47573 0.8039 0.38441 0.0
H4630 H 0.41711 0.8025 0.36783 0.0
H4631 H 0.44649 0.77069 0.32276 0.0
H4632 H 0.46125 0.74562 0.31046 0.0
H4633 H 0.41426 0.70289 0.31002 0.0
H4634 H 0.39932 0.72771 0.32261 0.0
H4635 H 0.35795 0.81609 0.29116 0.0
H4636 H 0.38354 0.81317 0.31161 0.0
H4637 H 0.35734 0.75603 0.31634 0.0
H4638 H 0.33147 0.75926 0.29643 0.0
H4639 H 0.39222 0.75812 0.30871 0.0
H4640 H 0.36283 0.79001 0.3532 0.0
H4641 H 0.34842 0.81483 0.36683 0.0
H4642 H 0.3958 0.85746 0.36885 0.0
H4643 H 0.4104 0.8329 0.35488 0.0
C4644 C 0.454 0.7574 0.37694 0.0
C4645 C 0.4677 0.77346 0.38373 0.0
C4646 C 0.43893 0.75893 0.36564 0.0
C4647 C 0.43699 0.77658 0.36068 0.0
C4648 C 0.45074 0.79263 0.36759 0.0
C4649 C 0.46576 0.7911 0.37894 0.0
C4650 C 0.4206 0.77843 0.34879 0.0
C4651 C 0.41195 0.79292 0.35475 0.0
C4652 C 0.41314 0.76582 0.33182 0.0
C4653 C 0.42187 0.75099 0.32376 0.0
C4654 C 0.43935 0.75593 0.3201 0.0
C4655 C 0.44774 0.74177 0.3131 0.0
C4656 C 0.43872 0.72266 0.30951 0.0
C4657 C 0.42124 0.71769 0.31283 0.0
C4658 C 0.4128 0.73179 0.31989 0.0
C4659 C 0.35745 0.80307 0.29695 0.0
C4660 C 0.34234 0.78812 0.29248 0.0
C4661 C 0.37221 0.80134 0.30861 0.0
C4662 C 0.37266 0.78437 0.3158 0.0
C4663 C 0.35757 0.76935 0.31121 0.0
C4664 C 0.34261 0.77128 0.29994 0.0
C4665 C 0.38887 0.78225 0.32773 0.0
C4666 C 0.39747 0.76773 0.32175 0.0
C4667 C 0.39633 0.79488 0.34464 0.0
C4668 C 0.38759 0.8097 0.35273 0.0
C4669 C 0.3701 0.80472 0.35632 0.0
C4670 C 0.36192 0.81873 0.36416 0.0
C4671 C 0.37117 0.83773 0.36863 0.0
C4672 C 0.38863 0.84275 0.36532 0.0
C4673 C 0.39686 0.8288 0.35743 0.0
H4674 H 0.36481 0.84855 0.37473 0.0
H4675 H 0.44525 0.71171 0.30412 0.0
H4676 H 0.08354 0.74593 0.11005 0.0
H4677 H 0.07825 0.71167 0.09769 0.0
H4678 H 0.04736 0.71975 0.04865 0.0
H4679 H 0.0532 0.75415 0.06067 0.0
H4680 H 0.03319 0.68543 0.06618 0.0
H4681 H 0.08444 0.71772 0.04163 0.0
H4682 H 0.11388 0.73818 0.04262 0.0
H4683 H 0.13533 0.7041 0.07815 0.0
H4684 H 0.10595 0.68362 0.0776 0.0
H4685 H 0.0339 0.59876 0.00704 0.0
H4686 H 0.03522 0.63203 0.01986 0.0
H4687 H 0.07846 0.63163 0.06063 0.0
H4688 H 0.07759 0.5986 0.04738 0.0
H4689 H 0.08503 0.6623 0.04703 0.0
H4690 H 0.03521 0.6288 0.07115 0.0
H4691 H 1.00634 0.60744 0.07087 0.0
H4692 H 0.98225 0.64195 0.03817 0.0
H4693 H 0.01106 0.66338 0.03795 0.0
C4694 C 0.07538 0.74027 0.09681 0.0
C4695 C 0.06868 0.75247 0.08629 0.0
C4696 C 0.0724 0.7208 0.08976 0.0
C4697 C 0.06239 0.71327 0.0723 0.0
C4698 C 0.05502 0.72534 0.06219 0.0
C4699 C 0.05838 0.74489 0.06901 0.0
C4700 C 0.06078 0.69313 0.06397 0.0
C4701 C 0.04444 0.68031 0.0618 0.0
C4702 C 0.07554 0.68649 0.05867 0.0
C4703 C 0.09299 0.69937 0.05982 0.0
C4704 C 0.09539 0.71481 0.04992 0.0
C4705 C 0.11207 0.72635 0.05033 0.0
C4706 C 0.12646 0.72249 0.0605 0.0
C4707 C 0.12418 0.70712 0.07033 0.0
C4708 C 0.10752 0.69556 0.06999 0.0
C4709 C 0.04385 0.60591 0.01856 0.0
C4710 C 0.05577 0.59625 0.02612 0.0
C4711 C 0.04443 0.62481 0.02604 0.0
C4712 C 0.05671 0.63421 0.04144 0.0
C4713 C 0.06885 0.62464 0.04874 0.0
C4714 C 0.06846 0.60584 0.04107 0.0
C4715 C 0.0575 0.65428 0.04952 0.0
C4716 C 0.07371 0.66722 0.05151 0.0
C4717 C 0.04262 0.66083 0.05487 0.0
C4718 C 0.02534 0.64763 0.05442 0.0
C4719 C 0.0238 0.63172 0.0637 0.0
C4720 C 1.00744 0.61963 0.06367 0.0
C4721 C 0.99249 0.62337 0.05454 0.0
C4722 C 0.99386 0.6391 0.04525 0.0
C4723 C 0.01021 0.65123 0.0452 0.0
H4724 H 0.97983 0.61414 0.05478 0.0
H4725 H 0.13938 0.73138 0.06071 0.0
H4726 H 0.08284 0.27838 0.91554 0.0
H4727 H 0.11095 0.28518 0.90288 0.0
H4728 H 0.08391 0.28799 0.84928 0.0
H4729 H 0.0559 0.2798 0.86158 0.0
H4730 H 0.10548 0.27019 0.84182 0.0
H4731 H 0.11253 0.32853 0.8853 0.0
H4732 H 0.11502 0.34987 0.91555 0.0
H4733 H 0.15824 0.32839 0.93688 0.0
H4734 H 0.15583 0.30668 0.90688 0.0
H4735 H 0.17736 0.30677 0.79661 0.0
H4736 H 0.15233 0.30591 0.81429 0.0
H4737 H 0.18086 0.28994 0.86058 0.0
H4738 H 0.20636 0.2914 0.84318 0.0
H4739 H 0.16017 0.31469 0.87319 0.0
H4740 H 0.15168 0.25612 0.82938 0.0
H4741 H 0.14954 0.23626 0.79834 0.0
H4742 H 0.10833 0.26099 0.77741 0.0
H4743 H 0.11041 0.28118 0.80826 0.0
C4744 C 0.08292 0.28026 0.90098 0.0
C4745 C 0.06704 0.27811 0.88946 0.0
C4746 C 0.09911 0.28451 0.8938 0.0
C4747 C 0.0999 0.28742 0.87504 0.0
C4748 C 0.08394 0.28568 0.86373 0.0
C4749 C 0.0678 0.28089 0.87074 0.0
C4750 C 0.11695 0.2907 0.86654 0.0
C4751 C 0.11722 0.28033 0.8487 0.0
C4752 C 0.13283 0.30327 0.87555 0.0
C4753 C 0.13381 0.31576 0.89389 0.0
C4754 C 0.1224 0.32815 0.89652 0.0
C4755 C 0.12384 0.34036 0.91361 0.0
C4756 C 0.13673 0.34043 0.92815 0.0
C4757 C 0.14821 0.32827 0.92563 0.0
C4758 C 0.1468 0.316 0.90859 0.0
C4759 C 0.17858 0.30345 0.81069 0.0
C4760 C 0.19406 0.29904 0.81827 0.0
C4761 C 0.16409 0.30279 0.82078 0.0
C4762 C 0.16447 0.29755 0.83874 0.0
C4763 C 0.1801 0.29392 0.84674 0.0
C4764 C 0.19467 0.29457 0.83663 0.0
C4765 C 0.14819 0.29465 0.84844 0.0
C4766 C 0.1482 0.30485 0.86646 0.0
C4767 C 0.1324 0.28216 0.83961 0.0
C4768 C 0.13134 0.27027 0.82102 0.0
C4769 C 0.14229 0.25744 0.81809 0.0
C4770 C 0.14106 0.2461 0.80055 0.0
C4771 C 0.12884 0.24739 0.7859 0.0
C4772 C 0.11781 0.26002 0.78875 0.0
C4773 C 0.11901 0.27141 0.80626 0.0
H4774 H 0.12788 0.23858 0.77234 0.0
H4775 H 0.13787 0.34994 0.94134 0.0
H4776 H 0.59585 0.7617 0.88757 0.0
H4777 H 0.58273 0.73027 0.89566 0.0
H4778 H 0.55227 0.75713 0.93339 0.0
H4779 H 0.56526 0.78792 0.92585 0.0
H4780 H 0.5748 0.73903 0.95026 0.0
H4781 H 0.53157 0.72891 0.89763 0.0
H4782 H 0.52069 0.72631 0.86425 0.0
H4783 H 0.54388 0.67847 0.85039 0.0
H4784 H 0.55521 0.68102 0.88371 0.0
H4785 H 0.53281 0.66458 0.9914 0.0
H4786 H 0.53542 0.69012 0.97283 0.0
H4787 H 0.55789 0.65742 0.93101 0.0
H4788 H 0.55395 0.631 0.94874 0.0
H4789 H 0.53904 0.67787 0.91462 0.0
H4790 H 0.58337 0.69098 0.96933 0.0
H4791 H 0.59494 0.69694 1.0029 0.0
H4792 H 0.56812 0.7424 0.01309 0.0
H4793 H 0.55621 0.73653 0.97965 0.0
C4794 C 0.58625 0.76068 0.89745 0.0
C4795 C 0.58207 0.77715 0.90671 0.0
C4796 C 0.57866 0.74285 0.90186 0.0
C4797 C 0.56668 0.7416 0.91518 0.0
C4798 C 0.56158 0.75791 0.92318 0.0
C4799 C 0.56923 0.7755 0.91905 0.0
C4800 C 0.5615 0.72427 0.92339 0.0
C4801 C 0.56681 0.72568 0.94252 0.0
C4802 C 0.5513 0.70699 0.91311 0.0
C4803 C 0.54446 0.70533 0.89312 0.0
C4804 C 0.53454 0.71797 0.88744 0.0
C4805 C 0.52825 0.71648 0.86854 0.0
C4806 C 0.53165 0.70228 0.8552 0.0
C4807 C 0.5413 0.68949 0.86075 0.0
C4808 C 0.54765 0.69096 0.87964 0.0
C4809 C 0.53778 0.66247 0.97797 0.0
C4810 C 0.54344 0.6458 0.97173 0.0
C4811 C 0.53947 0.67723 0.96748 0.0
C4812 C 0.54736 0.67587 0.95087 0.0
C4813 C 0.55197 0.65882 0.94394 0.0
C4814 C 0.54994 0.64386 0.95424 0.0
C4815 C 0.55223 0.69272 0.94165 0.0
C4816 C 0.54698 0.69122 0.92235 0.0
C4817 C 0.56224 0.71026 0.95185 0.0
C4818 C 0.56871 0.71311 0.97208 0.0
C4819 C 0.57976 0.70206 0.9788 0.0
C4820 C 0.58642 0.70548 0.99778 0.0
C4821 C 0.58222 0.71999 0.01013 0.0
C4822 C 0.57132 0.73112 0.00354 0.0
C4823 C 0.5646 0.72774 0.98458 0.0
H4824 H 0.58745 0.72265 0.02481 0.0
H4825 H 0.52677 0.70114 0.84056 0.0
H4826 H 0.06583 0.74896 0.63857 0.0
H4827 H 0.09195 0.75029 0.65997 0.0
H4828 H 0.06912 0.77648 0.70591 0.0
H4829 H 0.04286 0.77514 0.68462 0.0
H4830 H 0.10363 0.79552 0.70217 0.0
H4831 H 0.07168 0.73267 0.70674 0.0
H4832 H 0.05447 0.69992 0.69517 0.0
H4833 H 0.09648 0.68738 0.66518 0.0
H4834 H 0.11385 0.72009 0.67641 0.0
H4835 H 0.1795 0.78496 0.76139 0.0
H4836 H 0.1492 0.78504 0.74977 0.0
H4837 H 0.15571 0.75571 0.69563 0.0
H4838 H 0.18561 0.75548 0.70707 0.0
H4839 H 0.12653 0.73824 0.71026 0.0
H4840 H 0.15614 0.80067 0.70022 0.0
H4841 H 0.17441 0.83322 0.70993 0.0
H4842 H 0.13786 0.84662 0.74755 0.0
H4843 H 0.1195 0.81402 0.73824 0.0
C4844 C 0.06642 0.75508 0.6532 0.0
C4845 C 0.05245 0.76209 0.65993 0.0
C4846 C 0.08122 0.75565 0.66541 0.0
C4847 C 0.08226 0.76336 0.68445 0.0
C4848 C 0.0684 0.77044 0.69124 0.0
C4849 C 0.05349 0.76965 0.67908 0.0
C4850 C 0.0983 0.76479 0.69695 0.0
C4851 C 0.1085 0.78302 0.7044 0.0
C4852 C 0.1046 0.74842 0.69945 0.0
C4853 C 0.09404 0.72885 0.69239 0.0
C4854 C 0.07718 0.72297 0.69756 0.0
C4855 C 0.06742 0.7044 0.69109 0.0
C4856 C 0.07439 0.69158 0.67946 0.0
C4857 C 0.09111 0.69731 0.67422 0.0
C4858 C 0.10093 0.71585 0.68066 0.0
C4859 C 0.17438 0.77869 0.747 0.0
C4860 C 0.18473 0.77027 0.73505 0.0
C4861 C 0.15722 0.77877 0.74041 0.0
C4862 C 0.15036 0.77025 0.72194 0.0
C4863 C 0.16085 0.76224 0.70996 0.0
C4864 C 0.17792 0.76228 0.71644 0.0
C4865 C 0.13209 0.76895 0.71489 0.0
C4866 C 0.12146 0.75074 0.70852 0.0
C4867 C 0.12554 0.78532 0.7131 0.0
C4868 C 0.13659 0.80485 0.71876 0.0
C4869 C 0.1521 0.81049 0.71072 0.0
C4870 C 0.16245 0.82895 0.71611 0.0
C4871 C 0.15734 0.84193 0.72942 0.0
C4872 C 0.14183 0.83651 0.73729 0.0
C4873 C 0.13145 0.81805 0.73197 0.0
H4874 H 0.16538 0.85619 0.73362 0.0
H4875 H 0.06687 0.67718 0.67454 0.0
H4876 H 0.08086 0.37689 0.37844 0.0
H4877 H 0.06867 0.40207 0.39485 0.0
H4878 H 0.10056 0.40096 0.44611 0.0
H4879 H 0.11186 0.37507 0.42997 0.0
H4880 H 0.0689 0.39992 0.45291 0.0
H4881 H 0.10911 0.43728 0.41799 0.0
H4882 H 0.12074 0.44481 0.38875 0.0
H4883 H 0.07088 0.45349 0.36756 0.0
H4884 H 0.05889 0.44569 0.39658 0.0
H4885 H 0.07469 0.48502 0.51214 0.0
H4886 H 0.081 0.46029 0.48908 0.0
H4887 H 0.0382 0.46543 0.45021 0.0
H4888 H 0.03182 0.49046 0.47337 0.0
H4889 H 0.06966 0.46301 0.43386 0.0
H4890 H 0.03115 0.42935 0.47172 0.0
H4891 H 0.02107 0.42307 0.50198 0.0
H4892 H 0.06952 0.40829 0.5185 0.0
H4893 H 0.08 0.41481 0.48846 0.0
C4894 C 0.08554 0.38245 0.39308 0.0
C4895 C 0.09745 0.37445 0.403 0.0
C4896 C 0.07853 0.39671 0.40246 0.0
C4897 C 0.08379 0.40343 0.42168 0.0
C4898 C 0.09625 0.39588 0.43131 0.0
C4899 C 0.10285 0.38132 0.42209 0.0
C4900 C 0.07598 0.41781 0.43218 0.0
C4901 C 0.06916 0.41374 0.44875 0.0
C4902 C 0.07574 0.43556 0.42645 0.0
C4903 C 0.08309 0.44078 0.40933 0.0
C4904 C 0.10062 0.44073 0.40705 0.0
C4905 C 0.10727 0.44502 0.39052 0.0
C4906 C 0.09654 0.44959 0.37629 0.0
C4907 C 0.07916 0.44993 0.37858 0.0
C4908 C 0.07244 0.44558 0.39506 0.0
C4909 C 0.0666 0.48086 0.49871 0.0
C4910 C 0.05271 0.48944 0.49453 0.0
C4911 C 0.07023 0.46681 0.48556 0.0
C4912 C 0.05995 0.46103 0.46809 0.0
C4913 C 0.04623 0.46979 0.46368 0.0
C4914 C 0.04256 0.48391 0.47691 0.0
C4915 C 0.06338 0.44532 0.45487 0.0
C4916 C 0.06919 0.44907 0.43778 0.0
C4917 C 0.06289 0.4273 0.46018 0.0
C4918 C 0.05634 0.42258 0.47788 0.0
C4919 C 0.03965 0.42479 0.48183 0.0
C4920 C 0.03388 0.42122 0.49895 0.0
C4921 C 0.04465 0.41529 0.51216 0.0
C4922 C 0.06119 0.41286 0.50825 0.0
C4923 C 0.06703 0.41645 0.49117 0.0
H4924 H 0.04018 0.41257 0.52543 0.0
H4925 H 0.10171 0.4529 0.36349 0.0
H4926 H 0.43884 0.24874 0.14829 0.0
H4927 H 0.41486 0.25324 0.16638 0.0
H4928 H 0.44906 0.2601 0.21792 0.0
H4929 H 0.47301 0.25513 0.19995 0.0
H4930 H 0.41628 0.24085 0.22057 0.0
H4931 H 0.44333 0.29925 0.19975 0.0
H4932 H 0.4536 0.31941 0.17646 0.0
H4933 H 0.40152 0.30651 0.14743 0.0
H4934 H 0.39102 0.28612 0.17044 0.0
H4935 H 0.36181 0.28745 0.27599 0.0
H4936 H 0.38833 0.28282 0.26182 0.0
H4937 H 0.35963 0.27425 0.20654 0.0
H4938 H 0.33357 0.27908 0.22064 0.0
H4939 H 0.39153 0.29586 0.20797 0.0
H4940 H 0.36377 0.23928 0.23024 0.0
H4941 H 0.35325 0.22097 0.25459 0.0
H4942 H 0.40601 0.22818 0.27999 0.0
H4943 H 0.4168 0.24808 0.25674 0.0
C4944 C 0.44112 0.25075 0.16347 0.0
C4945 C 0.45777 0.25181 0.17277 0.0
C4946 C 0.42748 0.25342 0.17375 0.0
C4947 C 0.43044 0.25745 0.1934 0.0
C4948 C 0.44667 0.25711 0.20273 0.0
C4949 C 0.46028 0.25425 0.19246 0.0
C4950 C 0.41703 0.26339 0.20417 0.0
C4951 C 0.41098 0.25301 0.21805 0.0
C4952 C 0.4101 0.27911 0.20062 0.0
C4953 C 0.41646 0.2911 0.18668 0.0
C4954 C 0.43413 0.30062 0.1883 0.0
C4955 C 0.43997 0.3121 0.17518 0.0
C4956 C 0.42823 0.31422 0.16046 0.0
C4957 C 0.41061 0.30485 0.15882 0.0
C4958 C 0.40471 0.29335 0.1719 0.0
C4959 C 0.36148 0.28489 0.26085 0.0
C4960 C 0.346 0.28349 0.2492 0.0
C4961 C 0.37644 0.28223 0.25282 0.0
C4962 C 0.37575 0.27806 0.2332 0.0
C4963 C 0.36036 0.27749 0.2217 0.0
C4964 C 0.34555 0.28015 0.22968 0.0
C4965 C 0.39058 0.27321 0.2243 0.0
C4966 C 0.39692 0.2838 0.2107 0.0
C4967 C 0.39763 0.25759 0.22809 0.0
C4968 C 0.39108 0.2455 0.24193 0.0
C4969 C 0.37313 0.23732 0.24122 0.0
C4970 C 0.3671 0.22666 0.25486 0.0
C4971 C 0.37893 0.22325 0.26875 0.0
C4972 C 0.39684 0.23083 0.26923 0.0
C4973 C 0.4029 0.24201 0.25596 0.0
H4974 H 0.37422 0.21475 0.27915 0.0
H4975 H 0.43277 0.32315 0.15033 0.0
H4976 H 0.61557 0.51186 0.30446 0.0
H4977 H 0.59965 0.51354 0.33198 0.0
H4978 H 0.64783 0.52116 0.368 0.0
H4979 H 0.6636 0.51844 0.34021 0.0
H4980 H 0.62682 0.50379 0.38633 0.0
H4981 H 0.61635 0.55772 0.35768 0.0
H4982 H 0.60529 0.57347 0.33268 0.0
H4983 H 0.55377 0.5384 0.33111 0.0
H4984 H 0.56461 0.52224 0.35586 0.0
H4985 H 0.59169 0.53316 0.47358 0.0
H4986 H 0.60738 0.53107 0.44544 0.0
H4987 H 0.55835 0.51814 0.40992 0.0
H4988 H 0.54289 0.52004 0.43766 0.0
H4989 H 0.57884 0.53791 0.39121 0.0
H4990 H 0.58593 0.48428 0.41696 0.0
H4991 H 0.59361 0.46544 0.44081 0.0
H4992 H 0.64741 0.49549 0.44596 0.0
H4993 H 0.63995 0.51477 0.42235 0.0
C4994 C 0.62299 0.51401 0.31819 0.0
C4995 C 0.64134 0.51514 0.31938 0.0
C4996 C 0.61367 0.51524 0.3344 0.0
C4997 C 0.62203 0.51816 0.3532 0.0
C4998 C 0.64038 0.51906 0.35431 0.0
C4999 C 0.64967 0.51758 0.33805 0.0
C5000 C 0.61203 0.51991 0.37134 0.0
C5001 C 0.61663 0.51173 0.38722 0.0
C5002 C 0.59772 0.52921 0.37343 0.0
C5003 C 0.59133 0.53868 0.35842 0.0
C5004 C 0.6027 0.5533 0.35188 0.0
C5005 C 0.59647 0.56228 0.33777 0.0
C5006 C 0.57885 0.5569 0.33028 0.0
C5007 C 0.56742 0.54251 0.33688 0.0
C5008 C 0.5736 0.53343 0.35092 0.0
C5009 C 0.58414 0.52991 0.45986 0.0
C5010 C 0.56561 0.52681 0.45863 0.0
C5011 C 0.59325 0.52855 0.44338 0.0
C5012 C 0.5845 0.52421 0.4246 0.0
C5013 C 0.56606 0.52153 0.42357 0.0
C5014 C 0.55702 0.5226 0.43989 0.0
C5015 C 0.59411 0.52238 0.40629 0.0
C5016 C 0.58927 0.5303 0.39037 0.0
C5017 C 0.60784 0.51244 0.40393 0.0
C5018 C 0.61238 0.5011 0.41814 0.0
C5019 C 0.59937 0.48698 0.42333 0.0
C5020 C 0.60368 0.47621 0.43678 0.0
C5021 C 0.62098 0.47931 0.44495 0.0
C5022 C 0.63401 0.49315 0.43966 0.0
C5023 C 0.62976 0.50401 0.42627 0.0
H5024 H 0.62431 0.47093 0.45535 0.0
H5025 H 0.57404 0.56392 0.31938 0.0
H5026 H 0.29525 0.87257 0.04119 0.0
H5027 H 0.30347 0.86661 0.07235 0.0
H5028 H 0.3323 0.92511 0.08843 0.0
H5029 H 0.32462 0.93093 0.05639 0.0
H5030 H 0.35118 0.89748 0.09631 0.0
H5031 H 0.29687 0.91213 0.11022 0.0
H5032 H 0.26629 0.91194 0.09933 0.0
H5033 H 0.25329 0.8507 0.09083 0.0
H5034 H 0.28382 0.85052 0.1015 0.0
H5035 H 0.35778 0.84772 0.17702 0.0
H5036 H 0.35781 0.87116 0.1557 0.0
H5037 H 0.31728 0.83061 0.11779 0.0
H5038 H 0.3167 0.80781 0.13946 0.0
H5039 H 0.30668 0.86204 0.13066 0.0
H5040 H 0.359 0.84667 0.10645 0.0
H5041 H 0.38956 0.84352 0.1114 0.0
H5042 H 0.40592 0.90288 0.13544 0.0
H5043 H 0.37537 0.90628 0.13084 0.0
C5044 C 0.30286 0.88429 0.05155 0.0
C5045 C 0.30915 0.90216 0.04672 0.0
C5046 C 0.30757 0.88093 0.06929 0.0
C5047 C 0.3182 0.89557 0.08266 0.0
C5048 C 0.3239 0.91381 0.07823 0.0
C5049 C 0.3193 0.91716 0.06018 0.0
C5050 C 0.32396 0.89071 0.10068 0.0
C5051 C 0.34163 0.89035 0.10442 0.0
C5052 C 0.31138 0.88135 0.11097 0.0
C5053 C 0.29258 0.88135 0.10693 0.0
C5054 C 0.28742 0.89864 0.1063 0.0
C5055 C 0.27013 0.89859 0.10004 0.0
C5056 C 0.25785 0.88132 0.09445 0.0
C5057 C 0.26279 0.86407 0.09529 0.0
C5058 C 0.28007 0.86403 0.10156 0.0
C5059 C 0.34946 0.84373 0.16374 0.0
C5060 C 0.33703 0.82643 0.1598 0.0
C5061 C 0.34941 0.85704 0.15168 0.0
C5062 C 0.33719 0.85267 0.13558 0.0
C5063 C 0.32654 0.83427 0.13042 0.0
C5064 C 0.3264 0.82119 0.14257 0.0
C5065 C 0.33368 0.86762 0.12527 0.0
C5066 C 0.31645 0.86998 0.12332 0.0
C5067 C 0.34661 0.87856 0.11651 0.0
C5068 C 0.36496 0.87669 0.11847 0.0
C5069 C 0.36913 0.85903 0.11284 0.0
C5070 C 0.38643 0.85719 0.11559 0.0
C5071 C 0.39967 0.87298 0.12377 0.0
C5072 C 0.39565 0.89066 0.12912 0.0
C5073 C 0.37836 0.89256 0.12643 0.0
H5074 H 0.41306 0.87152 0.12594 0.0
H5075 H 0.2445 0.88132 0.08942 0.0
H5076 H 0.93018 0.54794 0.85463 0.0
H5077 H 0.94726 0.54436 0.88338 0.0
H5078 H 0.9753 0.5094 0.85026 0.0
H5079 H 0.95852 0.51279 0.822 0.0
H5080 H 0.96855 0.4975 0.88388 0.0
H5081 H 0.99427 0.55294 0.85922 0.0
H5082 H 0.99481 0.58281 0.84662 0.0
H5083 H 0.97949 0.60802 0.89802 0.0
H5084 H 0.97871 0.57819 0.91083 0.0
H5085 H 0.04844 0.51965 0.94752 0.0
H5086 H 0.02768 0.51527 0.91901 0.0
H5087 H 0.99637 0.548 0.94996 0.0
H5088 H 0.01743 0.55295 0.97803 0.0
H5089 H 1.00558 0.55961 0.91624 0.0
H5090 H 0.98138 0.50108 0.94024 0.0
H5091 H 0.98261 0.4703 0.95032 0.0
H5092 H 0.99853 0.45043 0.89726 0.0
H5093 H 0.99749 0.48115 0.88697 0.0
C5094 C 0.93972 0.53916 0.85367 0.0
C5095 C 0.94348 0.53109 0.83626 0.0
C5096 C 0.94937 0.53714 0.86993 0.0
C5097 C 0.96254 0.52688 0.8686 0.0
C5098 C 0.96517 0.51742 0.85134 0.0
C5099 C 0.95572 0.51961 0.83521 0.0
C5100 C 0.97508 0.52792 0.88475 0.0
C5101 C 0.9767 0.51103 0.89101 0.0
C5102 C 0.98588 0.54554 0.89348 0.0
C5103 C 0.98618 0.56335 0.88583 0.0
C5104 C 0.99085 0.56482 0.86773 0.0
C5105 C 0.99125 0.58173 0.86058 0.0
C5106 C 0.98712 0.59728 0.87148 0.0
C5107 C 0.98264 0.59596 0.88958 0.0
C5108 C 0.98223 0.57907 0.89679 0.0
C5109 C 0.03717 0.52599 0.94797 0.0
C5110 C 0.03412 0.53646 0.96459 0.0
C5111 C 0.02532 0.52327 0.93196 0.0
C5112 C 0.01052 0.53103 0.93277 0.0
C5113 C 1.00769 0.54174 0.94938 0.0
C5114 C 0.01953 0.54447 0.96529 0.0
C5115 C 0.99851 0.52929 0.91599 0.0
C5116 C 0.99728 0.54609 0.90931 0.0
C5117 C 0.98846 0.51152 0.90661 0.0
C5118 C 0.98957 0.49339 0.91298 0.0
C5119 C 0.98532 0.49019 0.93085 0.0
C5120 C 0.98591 0.47275 0.93655 0.0
C5121 C 0.99069 0.45844 0.92446 0.0
C5122 C 0.99486 0.46153 0.90662 0.0
C5123 C 0.99426 0.47893 0.90085 0.0
H5124 H 0.99113 0.44494 0.92891 0.0
H5125 H 0.98743 0.61038 0.86592 0.0
H5126 H 0.31625 0.21101 0.55239 0.0
H5127 H 0.32042 0.22387 0.58624 0.0
H5128 H 0.26605 0.22675 0.58329 0.0
H5129 H 0.26221 0.21495 0.54972 0.0
H5130 H 0.28469 0.25871 0.60077 0.0
H5131 H 0.28585 0.1921 0.60339 0.0
H5132 H 0.2978 0.16325 0.59863 0.0
H5133 H 0.34672 0.19445 0.62976 0.0
H5134 H 0.33517 0.22355 0.63437 0.0
H5135 H 0.26581 0.26708 0.69606 0.0
H5136 H 0.26682 0.25549 0.66264 0.0
H5137 H 0.32301 0.26524 0.67256 0.0
H5138 H 0.32229 0.27703 0.70537 0.0
H5139 H 0.30764 0.22925 0.65237 0.0
H5140 H 0.3085 0.29423 0.65094 0.0
H5141 H 0.29838 0.32399 0.65836 0.0
H5142 H 0.2486 0.29745 0.62634 0.0
H5143 H 0.25835 0.2674 0.61903 0.0
C5144 C 0.30521 0.2142 0.55914 0.0
C5145 C 0.28892 0.2121 0.54851 0.0
C5146 C 0.30757 0.22152 0.57845 0.0
C5147 C 0.29353 0.22634 0.58739 0.0
C5148 C 0.27715 0.2234 0.57677 0.0
C5149 C 0.27492 0.21656 0.55758 0.0
C5150 C 0.29561 0.23529 0.60752 0.0
C5151 C 0.28954 0.25205 0.61198 0.0
C5152 C 0.30274 0.22734 0.62232 0.0
C5153 C 0.30974 0.21001 0.61897 0.0
C5154 C 0.29923 0.19284 0.60899 0.0
C5155 C 0.30592 0.17645 0.60636 0.0
C5156 C 0.32303 0.17703 0.61383 0.0
C5157 C 0.3335 0.19402 0.62393 0.0
C5158 C 0.3269 0.21047 0.62652 0.0
C5159 C 0.27836 0.26698 0.69104 0.0
C5160 C 0.2939 0.27287 0.70347 0.0
C5161 C 0.27893 0.26027 0.67202 0.0
C5162 C 0.29501 0.25932 0.66525 0.0
C5163 C 0.31048 0.2656 0.67754 0.0
C5164 C 0.30996 0.27242 0.69635 0.0
C5165 C 0.29584 0.25185 0.64533 0.0
C5166 C 0.30274 0.23572 0.64102 0.0
C5167 C 0.2898 0.26049 0.63066 0.0
C5168 C 0.28407 0.27859 0.63456 0.0
C5169 C 0.29536 0.29473 0.64558 0.0
C5170 C 0.2897 0.31163 0.64977 0.0
C5171 C 0.27284 0.3126 0.64286 0.0
C5172 C 0.26164 0.29667 0.6317 0.0
C5173 C 0.26722 0.27971 0.62752 0.0
H5174 H 0.26847 0.3257 0.64612 0.0
H5175 H 0.32815 0.1643 0.61185 0.0
H5176 H 0.65814 0.51544 0.20358 0.0
H5177 H 0.64521 0.51699 0.17175 0.0
H5178 H 0.59371 0.50533 0.18939 0.0
H5179 H 0.60644 0.50298 0.22053 0.0
H5180 H 0.58792 0.49078 0.15579 0.0
H5181 H 0.62204 0.55359 0.18317 0.0
H5182 H 0.64834 0.57852 0.19648 0.0
H5183 H 0.6729 0.56568 0.14704 0.0
H5184 H 0.64685 0.54051 0.13358 0.0
H5185 H 0.54533 0.53002 0.08204 0.0
H5186 H 0.5584 0.52418 0.11226 0.0
H5187 H 0.60755 0.52593 0.08994 0.0
H5188 H 0.59438 0.53131 0.05974 0.0
H5189 H 0.61417 0.54479 0.12502 0.0
H5190 H 0.58008 0.48355 0.09679 0.0
H5191 H 0.55347 0.45986 0.08201 0.0
H5192 H 0.52853 0.47009 0.13167 0.0
H5193 H 0.55493 0.49409 0.14668 0.0
C5194 C 0.64404 0.51259 0.20058 0.0
C5195 C 0.63356 0.50881 0.21512 0.0
C5196 C 0.6365 0.51393 0.18223 0.0
C5197 C 0.61815 0.51187 0.17757 0.0
C5198 C 0.60777 0.50716 0.1919 0.0
C5199 C 0.61523 0.50574 0.21003 0.0
C5200 C 0.60966 0.51507 0.15843 0.0
C5201 C 0.59373 0.50281 0.14936 0.0
C5202 C 0.61679 0.53042 0.14905 0.0
C5203 C 0.63261 0.54506 0.15748 0.0
C5204 C 0.63313 0.55597 0.17524 0.0
C5205 C 0.64799 0.57016 0.1828 0.0
C5206 C 0.66231 0.57364 0.17262 0.0
C5207 C 0.66183 0.56293 0.15492 0.0
C5208 C 0.64704 0.5487 0.14733 0.0
C5209 C 0.55896 0.5293 0.08359 0.0
C5210 C 0.56875 0.53135 0.06825 0.0
C5211 C 0.56649 0.52577 0.10099 0.0
C5212 C 0.58419 0.5244 0.10387 0.0
C5213 C 0.59397 0.52685 0.08856 0.0
C5214 C 0.58637 0.52998 0.07112 0.0
C5215 C 0.59263 0.52061 0.12258 0.0
C5216 C 0.60844 0.53278 0.13154 0.0
C5217 C 0.58536 0.5052 0.13177 0.0
C5218 C 0.56946 0.49076 0.12282 0.0
C5219 C 0.56888 0.48087 0.10452 0.0
C5220 C 0.55384 0.46736 0.0961 0.0
C5221 C 0.53931 0.46349 0.10588 0.0
C5222 C 0.5398 0.47312 0.12411 0.0
C5223 C 0.55481 0.48667 0.13259 0.0
H5224 H 0.52769 0.45301 0.09935 0.0
H5225 H 0.67379 0.58467 0.17836 0.0
H5226 H 0.29606 0.91836 0.93165 0.0
H5227 H 0.30025 0.89926 0.90226 0.0
H5228 H 0.32442 0.86363 0.9339 0.0
H5229 H 0.31986 0.8818 0.96273 0.0
H5230 H 0.33967 0.87144 0.89995 0.0
H5231 H 0.28564 0.84676 0.92368 0.0
H5232 H 0.25834 0.84998 0.9368 0.0
H5233 H 0.24046 0.86981 0.88716 0.0
H5234 H 0.26781 0.86693 0.87388 0.0
H5235 H 0.311 0.78382 0.82845 0.0
H5236 H 0.31658 0.80471 0.85934 0.0
H5237 H 0.29994 0.84908 0.83375 0.0
H5238 H 0.2949 0.82887 0.80323 0.0
H5239 H 0.28221 0.83468 0.86647 0.0
H5240 H 0.33781 0.85942 0.84343 0.0
H5241 H 0.3656 0.85595 0.83164 0.0
H5242 H 0.38053 0.83414 0.88117 0.0
H5243 H 0.35272 0.83741 0.89318 0.0
C5244 C 0.30256 0.90669 0.93224 0.0
C5245 C 0.30735 0.9014 0.94945 0.0
C5246 C 0.30502 0.89593 0.91558 0.0
C5247 C 0.31258 0.88015 0.91618 0.0
C5248 C 0.31866 0.87587 0.93331 0.0
C5249 C 0.31586 0.88626 0.94983 0.0
C5250 C 0.31164 0.86628 0.89928 0.0
C5251 C 0.32716 0.86332 0.89263 0.0
C5252 C 0.29531 0.85546 0.89021 0.0
C5253 C 0.27876 0.85683 0.89791 0.0
C5254 C 0.27591 0.85192 0.91564 0.0
C5255 C 0.26044 0.85367 0.92309 0.0
C5256 C 0.24769 0.86015 0.91284 0.0
C5257 C 0.25036 0.86482 0.89509 0.0
C5258 C 0.26583 0.86312 0.88758 0.0
C5259 C 0.30876 0.79811 0.82955 0.0
C5260 C 0.30253 0.80481 0.81368 0.0
C5261 C 0.31197 0.80994 0.84701 0.0
C5262 C 0.30863 0.82825 0.84851 0.0
C5263 C 0.30262 0.83496 0.83264 0.0
C5264 C 0.29979 0.82341 0.81528 0.0
C5265 C 0.31021 0.84032 0.86669 0.0
C5266 C 0.29475 0.84275 0.87378 0.0
C5267 C 0.32658 0.85043 0.87623 0.0
C5268 C 0.34315 0.84835 0.86902 0.0
C5269 C 0.34694 0.85366 0.85167 0.0
C5270 C 0.3627 0.85178 0.84498 0.0
C5271 C 0.37477 0.84468 0.85557 0.0
C5272 C 0.37114 0.83956 0.87294 0.0
C5273 C 0.3554 0.84144 0.87971 0.0
H5274 H 0.38697 0.84323 0.85035 0.0
H5275 H 0.23571 0.86152 0.91864 0.0
H5276 H 0.97583 0.53823 0.7435 0.0
H5277 H 0.97925 0.52905 0.71081 0.0
H5278 H 0.92327 0.50909 0.69735 0.0
H5279 H 0.91973 0.51776 0.73063 0.0
H5280 H 0.94463 0.48283 0.68334 0.0
H5281 H 0.93887 0.54603 0.67972 0.0
H5282 H 0.94303 0.57944 0.695 0.0
H5283 H 0.99878 0.5864 0.69812 0.0
H5284 H 0.99497 0.55295 0.68309 0.0
H5285 H 0.98849 0.47807 0.59701 0.0
H5286 H 0.96727 0.47768 0.62001 0.0
H5287 H 1.00805 0.51202 0.66211 0.0
H5288 H 0.02886 0.51283 0.6391 0.0
H5289 H 0.98186 0.53042 0.65244 0.0
H5290 H 0.98797 0.4682 0.66691 0.0
H5291 H 0.98668 0.43413 0.65628 0.0
H5292 H 0.93238 0.42533 0.63532 0.0
H5293 H 0.93348 0.45948 0.64556 0.0
C5294 C 0.96422 0.53222 0.73356 0.0
C5295 C 0.94757 0.52879 0.73943 0.0
C5296 C 0.96616 0.52695 0.71495 0.0
C5297 C 0.95145 0.51856 0.70184 0.0
C5298 C 0.93466 0.51564 0.70742 0.0
C5299 C 0.9327 0.52086 0.72625 0.0
C5300 C 0.95437 0.5127 0.68249 0.0
C5301 C 0.95215 0.49315 0.676 0.0
C5302 C 0.96417 0.5263 0.67315 0.0
C5303 C 0.9666 0.54704 0.68001 0.0
C5304 C 0.95202 0.55477 0.68343 0.0
C5305 C 0.95432 0.57368 0.69217 0.0
C5306 C 0.97116 0.58505 0.69747 0.0
C5307 C 0.98574 0.57759 0.69389 0.0
C5308 C 0.98351 0.55868 0.68516 0.0
C5309 C 0.99296 0.48455 0.61148 0.0
C5310 C 0.00991 0.49585 0.61643 0.0
C5311 C 0.98089 0.48453 0.62446 0.0
C5312 C 0.98611 0.49545 0.64236 0.0
C5313 C 1.00382 0.50389 0.64813 0.0
C5314 C 0.01575 0.50403 0.63516 0.0
C5315 C 0.97318 0.50059 0.65423 0.0
C5316 C 0.97348 0.52003 0.659 0.0
C5317 C 0.96174 0.48693 0.66197 0.0
C5318 C 0.96083 0.46632 0.65684 0.0
C5319 C 0.97577 0.45898 0.66 0.0
C5320 C 0.97509 0.43968 0.65402 0.0
C5321 C 0.95947 0.42758 0.64509 0.0
C5322 C 0.94447 0.43473 0.64222 0.0
C5323 C 0.94511 0.45405 0.64811 0.0
H5324 H 0.95897 0.41264 0.64042 0.0
H5325 H 0.97292 0.59964 0.7044 0.0
H5326 H 0.30123 0.18236 0.43177 0.0
H5327 H 0.30453 0.19868 0.40443 0.0
H5328 H 0.2821 0.24311 0.43133 0.0
H5329 H 0.27915 0.22706 0.45889 0.0
H5330 H 0.26744 0.23133 0.39508 0.0
H5331 H 0.32421 0.25362 0.42665 0.0
H5332 H 0.3529 0.2535 0.4431 0.0
H5333 H 0.36473 0.2201 0.39411 0.0
H5334 H 0.33599 0.21982 0.37744 0.0
H5335 H 0.28887 0.29682 0.33178 0.0
H5336 H 0.28766 0.28127 0.35951 0.0
H5337 H 0.30598 0.23483 0.33006 0.0
H5338 H 0.30723 0.25056 0.30198 0.0
H5339 H 0.32326 0.24844 0.36794 0.0
H5340 H 0.26367 0.22768 0.33722 0.0
H5341 H 0.23651 0.23373 0.32219 0.0
H5342 H 0.23174 0.27034 0.37257 0.0
H5343 H 0.25897 0.26463 0.38781 0.0
C5344 C 0.29691 0.19556 0.43186 0.0
C5345 C 0.28969 0.2032 0.44753 0.0
C5346 C 0.29897 0.20501 0.41624 0.0
C5347 C 0.29363 0.22225 0.41567 0.0
C5348 C 0.28633 0.22986 0.43128 0.0
C5349 C 0.2846 0.22061 0.44706 0.0
C5350 C 0.29495 0.23182 0.39851 0.0
C5351 C 0.27973 0.23516 0.38932 0.0
C5352 C 0.31089 0.23699 0.39074 0.0
C5353 C 0.32784 0.23642 0.40091 0.0
C5354 C 0.33282 0.24599 0.41948 0.0
C5355 C 0.34913 0.24608 0.42882 0.0
C5356 C 0.3606 0.23673 0.41968 0.0
C5357 C 0.3558 0.22728 0.40119 0.0
C5358 C 0.33951 0.22716 0.39179 0.0
C5359 C 0.29244 0.28315 0.33105 0.0
C5360 C 0.29778 0.27476 0.31444 0.0
C5361 C 0.29178 0.27427 0.34701 0.0
C5362 C 0.29661 0.25673 0.34703 0.0
C5363 C 0.30209 0.24829 0.33048 0.0
C5364 C 0.30254 0.25714 0.31429 0.0
C5365 C 0.29567 0.24736 0.36431 0.0
C5366 C 0.31098 0.24428 0.37361 0.0
C5367 C 0.27991 0.24285 0.3725 0.0
C5368 C 0.26333 0.2458 0.36359 0.0
C5369 C 0.25682 0.23704 0.34506 0.0
C5370 C 0.24143 0.24041 0.33651 0.0
C5371 C 0.23241 0.25243 0.34642 0.0
C5372 C 0.23873 0.26103 0.36492 0.0
C5373 C 0.25411 0.2577 0.37353 0.0
H5374 H 0.22052 0.25507 0.33976 0.0
H5375 H 0.37325 0.23684 0.42692 0.0
H5376 H 0.34798 0.65222 0.52566 0.0
H5377 H 0.37054 0.6375 0.51327 0.0
H5378 H 0.33473 0.58235 0.50377 0.0
H5379 H 0.31179 0.59705 0.51594 0.0
H5380 H 0.36652 0.58407 0.52328 0.0
H5381 H 0.34516 0.60079 0.46647 0.0
H5382 H 0.33512 0.62181 0.44616 0.0
H5383 H 0.38596 0.65975 0.45683 0.0
H5384 H 0.39624 0.63907 0.47741 0.0
H5385 H 0.4246 0.53713 0.48045 0.0
H5386 H 0.399 0.55074 0.4826 0.0
H5387 H 0.43227 0.60719 0.49741 0.0
H5388 H 0.45825 0.59361 0.49512 0.0
H5389 H 0.39996 0.60363 0.47152 0.0
H5390 H 0.41941 0.59003 0.53164 0.0
H5391 H 0.42797 0.57212 0.55598 0.0
H5392 H 0.37932 0.53052 0.5412 0.0
H5393 H 0.37065 0.54806 0.51658 0.0
C5394 C 0.34495 0.6369 0.5212 0.0
C5395 C 0.3282 0.6257 0.5219 0.0
C5396 C 0.35773 0.62862 0.51377 0.0
C5397 C 0.354 0.60904 0.5071 0.0
C5398 C 0.33759 0.59761 0.50855 0.0
C5399 C 0.32468 0.60593 0.51586 0.0
C5400 C 0.36805 0.60031 0.50073 0.0
C5401 C 0.37354 0.58791 0.51162 0.0
C5402 C 0.37747 0.60605 0.486 0.0
C5403 C 0.37143 0.61846 0.47356 0.0
C5404 C 0.35416 0.61369 0.46459 0.0
C5405 C 0.34844 0.62552 0.453 0.0
C5406 C 0.35989 0.64212 0.45023 0.0
C5407 C 0.37711 0.64689 0.45899 0.0
C5408 C 0.3829 0.6351 0.47059 0.0
C5409 C 0.42653 0.55249 0.4837 0.0
C5410 C 0.44343 0.56432 0.48758 0.0
C5411 C 0.41188 0.5602 0.48498 0.0
C5412 C 0.41385 0.57988 0.49019 0.0
C5413 C 0.43061 0.59194 0.49329 0.0
C5414 C 0.44537 0.58418 0.49213 0.0
C5415 C 0.39839 0.58736 0.4942 0.0
C5416 C 0.3927 0.59953 0.48292 0.0
C5417 C 0.38869 0.58155 0.50869 0.0
C5418 C 0.3946 0.57007 0.52207 0.0
C5419 C 0.41076 0.57682 0.53331 0.0
C5420 C 0.41556 0.56681 0.54723 0.0
C5421 C 0.40424 0.55014 0.55007 0.0
C5422 C 0.38813 0.54337 0.53893 0.0
C5423 C 0.38328 0.55329 0.52496 0.0
H5424 H 0.40793 0.54249 0.56098 0.0
H5425 H 0.35543 0.65128 0.44126 0.0
H5426 H 0.87641 0.89906 0.53821 0.0
H5427 H 0.90457 0.92035 0.53683 0.0
H5428 H 0.8782 0.95792 0.51064 0.0
H5429 H 0.84966 0.9365 0.51225 0.0
H5430 H 0.90687 0.95159 0.49248 0.0
H5431 H 0.89748 0.97131 0.55535 0.0
H5432 H 0.89006 0.96679 0.587 0.0
H5433 H 0.93426 0.94182 0.59606 0.0
H5434 H 0.94177 0.94589 0.5643 0.0
H5435 H 0.98212 0.02998 0.50427 0.0
H5436 H 0.95368 0.00848 0.50443 0.0
H5437 H 0.97926 0.97012 0.53031 0.0
H5438 H 1.00797 0.99166 0.52975 0.0
H5439 H 0.95076 0.97693 0.54849 0.0
H5440 H 0.96014 0.9575 0.48543 0.0
H5441 H 0.96651 0.96055 0.45316 0.0
H5442 H 0.92172 0.98458 0.44409 0.0
H5443 H 0.91526 0.98198 0.47645 0.0
C5444 C 0.87649 0.91203 0.53245 0.0
C5445 C 0.86058 0.91608 0.52562 0.0
C5446 C 0.89274 0.92427 0.53163 0.0
C5447 C 0.89383 0.94101 0.52372 0.0
C5448 C 0.87793 0.94521 0.5169 0.0
C5449 C 0.86153 0.93304 0.51802 0.0
C5450 C 0.91157 0.95367 0.52241 0.0
C5451 C 0.9163 0.95741 0.50481 0.0
C5452 C 0.92436 0.96095 0.53827 0.0
C5453 C 0.92008 0.95873 0.55742 0.0
C5454 C 0.90554 0.96473 0.56405 0.0
C5455 C 0.90133 0.96226 0.582 0.0
C5456 C 0.91165 0.95398 0.59351 0.0
C5457 C 0.92626 0.94821 0.58711 0.0
C5458 C 0.93051 0.9506 0.56914 0.0
C5459 C 0.98178 0.01674 0.50961 0.0
C5460 C 0.99752 0.01245 0.51662 0.0
C5461 C 0.96539 1.00439 0.50973 0.0
C5462 C 0.96399 0.9874 0.51729 0.0
C5463 C 0.97975 0.98299 0.52427 0.0
C5464 C 0.99627 0.99522 0.52374 0.0
C5465 C 0.94612 0.97491 0.51852 0.0
C5466 C 0.94134 0.97119 0.53613 0.0
C5467 C 0.93326 0.96771 0.50266 0.0
C5468 C 0.93738 0.96981 0.48344 0.0
C5469 C 0.9518 0.96368 0.47664 0.0
C5470 C 0.95539 0.96527 0.45832 0.0
C5471 C 0.94457 0.97282 0.4466 0.0
C5472 C 0.93012 0.97879 0.4532 0.0
C5473 C 0.9265 0.97727 0.47153 0.0
H5474 H 0.94735 0.974 0.4324 0.0
H5475 H 0.90836 0.95206 0.60742 0.0
H5476 H 0.92442 0.12986 0.24524 0.0
H5477 H 0.90934 0.15615 0.24601 0.0
H5478 H 0.87334 0.12886 0.28069 0.0
H5479 H 0.88746 0.10183 0.27818 0.0
H5480 H 0.85484 0.14554 0.26858 0.0
H5481 H 0.9135 0.18103 0.28941 0.0
H5482 H 0.94508 0.1942 0.28945 0.0
H5483 H 0.93469 0.21354 0.2372 0.0
H5484 H 0.90311 0.20032 0.23677 0.0
H5485 H 0.81308 0.226 0.28404 0.0
H5486 H 0.82996 0.20168 0.28585 0.0
H5487 H 0.86339 0.22632 0.2475 0.0
H5488 H 0.84752 0.25204 0.24757 0.0
H5489 H 0.88332 0.21137 0.2624 0.0
H5490 H 0.82233 0.17353 0.24432 0.0
H5491 H 0.79152 0.16325 0.24995 0.0
H5492 H 0.80827 0.15064 0.30382 0.0
H5493 H 0.83912 0.16101 0.29855 0.0
C5494 C 0.91329 0.12932 0.2531 0.0
C5495 C 0.90754 0.11292 0.26154 0.0
C5496 C 0.90451 0.14497 0.25385 0.0
C5497 C 0.88971 0.14596 0.26385 0.0
C5498 C 0.88427 0.12956 0.27254 0.0
C5499 C 0.89264 0.11365 0.2712 0.0
C5500 C 0.8796 0.16304 0.26481 0.0
C5501 C 0.86155 0.15986 0.26739 0.0
C5502 C 0.88704 0.18259 0.26327 0.0
C5503 C 0.90602 0.1894 0.2629 0.0
C5504 C 0.91801 0.18785 0.27781 0.0
C5505 C 0.93589 0.19537 0.27792 0.0
C5506 C 0.9419 0.20461 0.26329 0.0
C5507 C 0.93004 0.20631 0.24848 0.0
C5508 C 0.91216 0.19878 0.24828 0.0
C5509 C 0.82403 0.22642 0.27592 0.0
C5510 C 0.82843 0.24164 0.2656 0.0
C5511 C 0.83379 0.21178 0.27659 0.0
C5512 C 0.84819 0.21042 0.26608 0.0
C5513 C 0.85263 0.22589 0.25587 0.0
C5514 C 0.84328 0.24099 0.25582 0.0
C5515 C 0.85862 0.19368 0.26581 0.0
C5516 C 0.87671 0.19695 0.2634 0.0
C5517 C 0.85139 0.17434 0.26808 0.0
C5518 C 0.83293 0.16816 0.2711 0.0
C5519 C 0.81939 0.16859 0.25735 0.0
C5520 C 0.80194 0.16277 0.2605 0.0
C5521 C 0.79794 0.15633 0.27724 0.0
C5522 C 0.81137 0.15566 0.29087 0.0
C5523 C 0.82882 0.1615 0.28782 0.0
H5524 H 0.78443 0.15183 0.27964 0.0
H5525 H 0.95573 0.21053 0.26346 0.0
H5526 H 0.72239 0.15694 0.99615 0.0
H5527 H 0.69327 0.13729 0.9964 0.0
H5528 H 0.71576 0.09048 0.00853 0.0
H5529 H 0.74502 0.1099 0.00832 0.0
H5530 H 0.68606 0.0804 0.98058 0.0
H5531 H 0.70381 0.11268 0.04434 0.0
H5532 H 0.71379 0.13836 0.07166 0.0
H5533 H 0.67293 0.16549 0.05467 0.0
H5534 H 0.6628 0.14004 0.02719 0.0
H5535 H 0.60871 0.03384 0.0176 0.0
H5536 H 0.63929 0.04774 0.01369 0.0
H5537 H 0.62369 0.0974 0.99766 0.0
H5538 H 0.59336 0.08354 1.00151 0.0
H5539 H 0.65061 0.10329 0.02861 0.0
H5540 H 0.63216 0.06942 0.96504 0.0
H5541 H 0.61856 0.03976 0.9431 0.0
H5542 H 0.65895 0.0133 0.96277 0.0
H5543 H 0.67266 0.04271 0.98505 0.0
C5544 C 0.72117 0.14239 0.99858 0.0
C5545 C 0.73595 0.13499 1.00237 0.0
C5546 C 0.70459 0.13128 0.99882 0.0
C5547 C 0.70269 0.11272 1.00273 0.0
C5548 C 0.71724 0.10489 0.00557 0.0
C5549 C 0.73385 0.11601 0.00544 0.0
C5550 C 0.68542 0.10174 0.0044 0.0
C5551 C 0.67832 0.08523 0.99117 0.0
C5552 C 0.67554 0.10828 0.01823 0.0
C5553 C 0.68275 0.12463 0.03354 0.0
C5554 C 0.6972 0.12433 0.04622 0.0
C5555 C 0.70279 0.13877 0.06181 0.0
C5556 C 0.69404 0.15358 0.06486 0.0
C5557 C 0.67974 0.15405 0.05226 0.0
C5558 C 0.67408 0.13964 0.03668 0.0
C5559 C 0.61208 0.04772 0.01332 0.0
C5560 C 0.59939 0.05805 0.01004 0.0
C5561 C 0.62922 0.05545 0.01092 0.0
C5562 C 0.63329 0.07336 0.00534 0.0
C5563 C 0.62044 0.08349 1.00191 0.0
C5564 C 0.6034 0.07575 0.0042 0.0
C5565 C 0.65122 0.08248 0.00456 0.0
C5566 C 0.65841 0.09854 0.01801 0.0
C5567 C 0.66104 0.07547 0.99103 0.0
C5568 C 0.65341 0.05824 0.97678 0.0
C5569 C 0.63813 0.05727 0.96472 0.0
C5570 C 0.63038 0.0405 0.95224 0.0
C5571 C 0.63786 0.02466 0.95158 0.0
C5572 C 0.65318 0.0256 0.9633 0.0
C5573 C 0.66096 0.04232 0.97583 0.0
H5574 H 0.63181 0.01166 0.94197 0.0
H5575 H 0.69831 0.16465 0.07702 0.0
H5576 H 0.17094 0.48705 0.25884 0.0
H5577 H 0.18972 0.46901 0.27274 0.0
H5578 H 0.23234 0.4953 0.24467 0.0
H5579 H 0.21361 0.51432 0.23104 0.0
H5580 H 0.21926 0.45364 0.23765 0.0
H5581 H 0.23877 0.50653 0.28809 0.0
H5582 H 0.23499 0.53145 0.31324 0.0
H5583 H 0.20725 0.48856 0.3416 0.0
H5584 H 0.21065 0.46338 0.31648 0.0
H5585 H 0.28192 0.40999 0.26881 0.0
H5586 H 0.26695 0.43563 0.26523 0.0
H5587 H 0.2269 0.41084 0.29735 0.0
H5588 H 0.24208 0.38485 0.30095 0.0
H5589 H 0.23851 0.45277 0.30454 0.0
H5590 H 0.21594 0.4006 0.25524 0.0
H5591 H 0.21488 0.37454 0.2291 0.0
H5592 H 0.24298 0.41443 0.19788 0.0
H5593 H 0.24453 0.44066 0.224 0.0
C5594 C 0.18422 0.48882 0.25531 0.0
C5595 C 0.19079 0.50157 0.2434 0.0
C5596 C 0.195 0.47893 0.26371 0.0
C5597 C 0.21233 0.48141 0.26002 0.0
C5598 C 0.21897 0.49379 0.24788 0.0
C5599 C 0.20826 0.50416 0.23981 0.0
C5600 C 0.22224 0.46827 0.26608 0.0
C5601 C 0.22395 0.45367 0.2522 0.0
C5602 C 0.22699 0.46794 0.28523 0.0
C5603 C 0.22485 0.48307 0.30031 0.0
C5604 C 0.23171 0.50241 0.29959 0.0
C5605 C 0.22968 0.51658 0.31387 0.0
C5606 C 0.22085 0.51159 0.32899 0.0
C5607 C 0.21407 0.49241 0.32987 0.0
C5608 C 0.21608 0.47818 0.31563 0.0
C5609 C 0.27013 0.41033 0.27543 0.0
C5610 C 0.26295 0.39581 0.28512 0.0
C5611 C 0.26165 0.42483 0.27339 0.0
C5612 C 0.24589 0.42478 0.28092 0.0
C5613 C 0.23913 0.41086 0.29154 0.0
C5614 C 0.24766 0.39618 0.29354 0.0
C5615 C 0.23597 0.43843 0.27596 0.0
C5616 C 0.23403 0.45291 0.28999 0.0
C5617 C 0.23045 0.43847 0.25692 0.0
C5618 C 0.2306 0.42254 0.24172 0.0
C5619 C 0.2222 0.40375 0.24297 0.0
C5620 C 0.22143 0.38897 0.2281 0.0
C5621 C 0.22891 0.39281 0.21187 0.0
C5622 C 0.23724 0.41145 0.21049 0.0
C5623 C 0.2381 0.42627 0.22533 0.0
H5624 H 0.22821 0.38136 0.20033 0.0
H5625 H 0.21929 0.52259 0.34003 0.0
H5626 H 0.24234 0.38306 0.02298 0.0
H5627 H 0.21631 0.39538 0.01566 0.0
H5628 H 0.24945 0.45051 0.01424 0.0
H5629 H 0.27521 0.43855 0.02281 0.0
H5630 H 0.22582 0.45727 0.03078 0.0
H5631 H 0.22313 0.41363 0.9735 0.0
H5632 H 0.22035 0.38338 0.95198 0.0
H5633 H 0.17101 0.36072 0.97049 0.0
H5634 H 0.17366 0.39066 0.99241 0.0
H5635 H 0.1627 0.50131 0.99369 0.0
H5636 H 0.18606 0.48396 0.99376 0.0
H5637 H 0.15145 0.43603 0.00964 0.0
H5638 H 0.12774 0.45311 0.00906 0.0
H5639 H 0.17424 0.42457 0.98496 0.0
H5640 H 0.17819 0.46816 0.04257 0.0
H5641 H 0.17992 0.49956 0.06161 0.0
H5642 H 0.22734 0.52262 0.03958 0.0
H5643 H 0.22569 0.49142 0.02013 0.0
C5644 C 0.24402 0.3979 0.02136 0.0
C5645 C 0.26091 0.40992 0.02393 0.0
C5646 C 0.22908 0.40488 0.01679 0.0
C5647 C 0.23063 0.42394 0.01403 0.0
C5648 C 0.2476 0.43581 0.01637 0.0
C5649 C 0.26245 0.42898 0.02141 0.0
C5650 C 0.21484 0.43214 0.01018 0.0
C5651 C 0.21482 0.45009 0.02039 0.0
C5652 C 0.19983 0.42275 0.9972 0.0
C5653 C 0.19876 0.40432 0.98485 0.0
C5654 C 0.21184 0.40209 0.97324 0.0
C5655 C 0.21025 0.38501 0.96091 0.0
C5656 C 0.19555 0.37011 0.95993 0.0
C5657 C 0.18243 0.37223 0.97132 0.0
C5658 C 0.18399 0.38924 0.98372 0.0
C5659 C 0.15983 0.48692 0.99677 0.0
C5660 C 0.14326 0.47879 1.00162 0.0
C5661 C 0.17331 0.47703 0.99693 0.0
C5662 C 0.17068 0.45878 1.00204 0.0
C5663 C 0.1539 0.45013 0.00577 0.0
C5664 C 0.14038 0.46003 0.00564 0.0
C5665 C 0.18581 0.44961 0.00518 0.0
C5666 C 0.18552 0.43156 0.99508 0.0
C5667 C 0.20068 0.45886 0.01806 0.0
C5668 C 0.20171 0.47755 0.02978 0.0
C5669 C 0.1889 0.47998 0.04168 0.0
C5670 C 0.18987 0.49773 0.05255 0.0
C5671 C 0.2037 0.51309 0.05177 0.0
C5672 C 0.21661 0.51072 0.04014 0.0
C5673 C 0.21566 0.49302 0.02918 0.0
H5674 H 0.20444 0.52682 0.06021 0.0
H5675 H 0.1943 0.35694 0.95031 0.0
H5676 H 0.92493 0.98424 0.2481 0.0
H5677 H 0.90677 0.9528 0.2485 0.0
H5678 H 0.86716 0.97865 0.2714 0.0
H5679 H 0.88565 0.01071 0.27103 0.0
H5680 H 0.86879 0.94825 0.28868 0.0
H5681 H 0.86326 0.95271 0.22361 0.0
H5682 H 0.87368 0.95849 0.19337 0.0
H5683 H 0.90109 0.91333 0.19397 0.0
H5684 H 0.89106 0.90749 0.22439 0.0
H5685 H 0.8018 0.86151 0.2741 0.0
H5686 H 0.82059 0.89272 0.27383 0.0
H5687 H 0.85961 0.86576 0.2511 0.0
H5688 H 0.84058 0.83399 0.25155 0.0
H5689 H 0.85877 0.89656 0.23372 0.0
H5690 H 0.86484 0.89193 0.29826 0.0
H5691 H 0.85616 0.88677 0.32933 0.0
H5692 H 0.82916 0.93239 0.33039 0.0
H5693 H 0.83746 0.93762 0.29917 0.0
C5694 C 0.91225 0.98354 0.25303 0.0
C5695 C 0.90707 1.00078 0.25923 0.0
C5696 C 0.90163 0.96511 0.25321 0.0
C5697 C 0.885 0.96241 0.25973 0.0
C5698 C 0.87969 0.9796 0.26609 0.0
C5699 C 0.89034 0.99826 0.26569 0.0
C5700 C 0.87368 0.94193 0.26006 0.0
C5701 C 0.86643 0.9372 0.27642 0.0
C5702 C 0.87064 0.92648 0.24462 0.0
C5703 C 0.87657 0.92981 0.22633 0.0
C5704 C 0.87162 0.9441 0.21734 0.0
C5705 C 0.87744 0.94738 0.20018 0.0
C5706 C 0.88808 0.93632 0.19178 0.0
C5707 C 0.89288 0.92191 0.20051 0.0
C5708 C 0.88712 0.91861 0.21771 0.0
C5709 C 0.81448 0.86193 0.26923 0.0
C5710 C 0.81931 0.8445 0.26313 0.0
C5711 C 0.82545 0.88021 0.26912 0.0
C5712 C 0.84211 0.88253 0.26264 0.0
C5713 C 0.84707 0.86512 0.25634 0.0
C5714 C 0.83608 0.84661 0.25676 0.0
C5715 C 0.85372 0.90291 0.26232 0.0
C5716 C 0.86106 0.90762 0.24596 0.0
C5717 C 0.85693 0.91833 0.27781 0.0
C5718 C 0.85155 0.91497 0.2963 0.0
C5719 C 0.85687 0.9007 0.30503 0.0
C5720 C 0.85206 0.8978 0.32268 0.0
C5721 C 0.84205 0.90919 0.3318 0.0
C5722 C 0.83686 0.92353 0.32329 0.0
C5723 C 0.84161 0.92647 0.30561 0.0
H5724 H 0.83836 0.90694 0.34549 0.0
H5725 H 0.89258 0.93888 0.17848 0.0
H5726 H 0.66482 0.11451 0.77698 0.0
H5727 H 0.68596 0.14517 0.77943 0.0
H5728 H 0.72189 0.11646 0.7519 0.0
H5729 H 0.70135 0.08628 0.74922 0.0
H5730 H 0.73733 0.14344 0.78482 0.0
H5731 H 0.70008 0.13563 0.72482 0.0
H5732 H 0.67341 0.13296 0.70309 0.0
H5733 H 0.66304 0.18265 0.73569 0.0
H5734 H 0.68957 0.18549 0.75762 0.0
H5735 H 0.79293 0.21724 0.74655 0.0
H5736 H 0.77371 0.18666 0.75005 0.0
H5737 H 0.7373 0.21736 0.77425 0.0
H5738 H 0.75563 0.24721 0.76977 0.0
H5739 H 0.72297 0.1896 0.74504 0.0
H5740 H 0.76137 0.19988 0.80367 0.0
H5741 H 0.79098 0.20677 0.82102 0.0
H5742 H 0.80093 0.15614 0.78976 0.0
H5743 H 0.77137 0.14899 0.77221 0.0
C5744 C 0.67726 0.11481 0.77158 0.0
C5745 C 0.68144 0.09806 0.76302 0.0
C5746 C 0.68924 0.13216 0.77306 0.0
C5747 C 0.70533 0.13264 0.76607 0.0
C5748 C 0.70956 0.11604 0.75765 0.0
C5749 C 0.69771 0.09887 0.75608 0.0
C5750 C 0.71755 0.1505 0.76619 0.0
C5751 C 0.73422 0.1537 0.77631 0.0
C5752 C 0.71335 0.16352 0.75492 0.0
C5753 C 0.69648 0.16048 0.74305 0.0
C5754 C 0.69186 0.14569 0.72756 0.0
C5755 C 0.67687 0.14425 0.71513 0.0
C5756 C 0.66648 0.15756 0.71807 0.0
C5757 C 0.67102 0.17228 0.73349 0.0
C5758 C 0.68599 0.17379 0.74593 0.0
C5759 C 0.78052 0.21706 0.75201 0.0
C5760 C 0.77522 0.23392 0.7576 0.0
C5761 C 0.76993 0.19995 0.75442 0.0
C5762 C 0.75445 0.20022 0.76258 0.0
C5763 C 0.7493 0.21719 0.76797 0.0
C5764 C 0.75954 0.234 0.76519 0.0
C5765 C 0.74245 0.18283 0.76404 0.0
C5766 C 0.72594 0.17959 0.75398 0.0
C5767 C 0.7468 0.1701 0.77553 0.0
C5768 C 0.76419 0.17386 0.78671 0.0
C5769 C 0.76987 0.19019 0.80056 0.0
C5770 C 0.78664 0.19415 0.81041 0.0
C5771 C 0.79782 0.18189 0.8065 0.0
C5772 C 0.79223 0.16559 0.79281 0.0
C5773 C 0.77545 0.16153 0.78297 0.0
H5774 H 0.81082 0.18501 0.81408 0.0
H5775 H 0.65496 0.15651 0.70835 0.0
loop_
_geom_bond_atom_site_label_1
_geom_bond_atom_site_label_2
_geom_bond_distance
_geom_bond_site_symmetry_2
_ccdc_geom_bond_type
Co0 O1 2.216 . S
Co0 O2 2.091 . S
Co0 O4 2.004 . S
Co0 O10 2.021 . S
Co0 O12 2.137 . S
Co0 O13 2.244 . S
O1 Co0 2.216 . S
O1 C8 1.247 . S
O2 Co0 2.091 . S
O2 C8 1.261 . S
C3 O12 1.247 . S
C3 O13 1.272 . S
O4 Co0 2.004 . S
O4 C9 1.259 . S
Co5 O6 2.061 . S
Co5 O11 2.052 . S
Co5 O13 2.135 . S
O6 Co5 2.061 . S
O6 C9 1.235 . S
C7 O10 1.238 . S
C7 O11 1.241 . S
C8 O1 1.247 . S
C8 O2 1.261 . S
C9 O4 1.259 . S
C9 O6 1.235 . S
O10 Co0 2.021 . S
O10 C7 1.238 . S
O11 Co5 2.052 . S
O11 C7 1.241 . S
O12 Co0 2.137 . S
O12 C3 1.247 . S
O13 Co0 2.244 . S
O13 C3 1.272 . S
O13 Co5 2.135 . S
Co14 O15 2.216 . S
Co14 O16 2.091 . S
Co14 O18 2.004 1_655 S
Co14 O24 2.021 . S
Co14 O26 2.137 . S
Co14 O27 2.244 1_655 S
O15 Co14 2.216 . S
O15 C22 1.247 . S
O16 Co14 2.091 . S
O16 C22 1.261 . S
C17 O26 1.247 1_455 S
C17 O27 1.272 . S
O18 Co14 2.004 1_455 S
O18 C23 1.259 . S
Co19 O20 2.061 . S
Co19 O25 2.052 . S
Co19 O27 2.135 . S
O20 Co19 2.061 . S
O20 C23 1.235 . S
C21 O24 1.238 . S
C21 O25 1.241 1_655 S
C22 O15 1.247 . S
C22 O16 1.261 . S
C23 O18 1.259 . S
C23 O20 1.235 . S
O24 Co14 2.021 . S
O24 C21 1.238 . S
O25 Co19 2.052 . S
O25 C21 1.241 1_455 S
O26 Co14 2.137 . S
O26 C17 1.247 1_655 S
O27 Co14 2.244 1_455 S
O27 C17 1.272 . S
O27 Co19 2.135 . S
Co28 O29 2.216 . S
Co28 O30 2.091 . S
Co28 O32 2.004 . S
Co28 O38 2.021 . S
Co28 O40 2.137 . S
Co28 O41 2.244 . S
O29 Co28 2.216 . S
O29 C36 1.247 . S
O30 Co28 2.091 . S
O30 C36 1.261 . S
C31 O40 1.247 . S
C31 O41 1.272 . S
O32 Co28 2.004 . S
O32 C37 1.259 . S
Co33 O34 2.061 . S
Co33 O39 2.052 . S
Co33 O41 2.135 . S
O34 Co33 2.061 . S
O34 C37 1.235 . S
C35 O38 1.238 . S
C35 O39 1.241 . S
C36 O29 1.247 . S
C36 O30 1.261 . S
C37 O32 1.259 . S
C37 O34 1.235 . S
O38 Co28 2.021 . S
O38 C35 1.238 . S
O39 Co33 2.052 . S
O39 C35 1.241 . S
O40 Co28 2.137 . S
O40 C31 1.247 . S
O41 Co28 2.244 . S
O41 C31 1.272 . S
O41 Co33 2.135 . S
Co42 O43 2.216 . S
Co42 O44 2.091 . S
Co42 O46 2.004 . S
Co42 O52 2.021 . S
Co42 O54 2.137 . S
Co42 O55 2.244 . S
O43 Co42 2.216 . S
O43 C50 1.247 . S
O44 Co42 2.091 . S
O44 C50 1.261 . S
C45 O54 1.247 . S
C45 O55 1.272 . S
O46 Co42 2.004 . S
O46 C51 1.259 . S
Co47 O48 2.061 . S
Co47 O53 2.052 . S
Co47 O55 2.135 . S
O48 Co47 2.061 . S
O48 C51 1.235 . S
C49 O52 1.238 . S
C49 O53 1.241 . S
C50 O43 1.247 . S
C50 O44 1.261 . S
C51 O46 1.259 . S
C51 O48 1.235 . S
O52 Co42 2.021 . S
O52 C49 1.238 . S
O53 Co47 2.052 . S
O53 C49 1.241 . S
O54 Co42 2.137 . S
O54 C45 1.247 . S
O55 Co42 2.244 . S
O55 C45 1.272 . S
O55 Co47 2.135 . S
Co56 O57 2.216 . S
Co56 O58 2.091 . S
Co56 O60 2.004 . S
Co56 O66 2.021 . S
Co56 O68 2.137 . S
Co56 O69 2.244 . S
O57 Co56 2.216 . S
O57 C64 1.247 . S
O58 Co56 2.091 . S
O58 C64 1.261 . S
C59 O68 1.247 . S
C59 O69 1.272 . S
O60 Co56 2.004 . S
O60 C65 1.259 . S
Co61 O62 2.061 . S
Co61 O67 2.052 . S
Co61 O69 2.135 . S
O62 Co61 2.061 . S
O62 C65 1.235 . S
C63 O66 1.238 . S
C63 O67 1.241 . S
C64 O57 1.247 . S
C64 O58 1.261 . S
C65 O60 1.259 . S
C65 O62 1.235 . S
O66 Co56 2.021 . S
O66 C63 1.238 . S
O67 Co61 2.052 . S
O67 C63 1.241 . S
O68 Co56 2.137 . S
O68 C59 1.247 . S
O69 Co56 2.244 . S
O69 C59 1.272 . S
O69 Co61 2.135 . S
Co70 O71 2.216 . S
Co70 O72 2.091 . S
Co70 O74 2.004 . S
Co70 O80 2.021 . S
Co70 O82 2.137 . S
Co70 O83 2.244 . S
O71 Co70 2.216 . S
O71 C78 1.247 . S
O72 Co70 2.091 . S
O72 C78 1.261 . S
C73 O82 1.247 . S
C73 O83 1.272 . S
O74 Co70 2.004 . S
O74 C79 1.259 . S
Co75 O76 2.061 . S
Co75 O81 2.052 . S
Co75 O83 2.135 . S
O76 Co75 2.061 . S
O76 C79 1.235 . S
C77 O80 1.238 . S
C77 O81 1.241 . S
C78 O71 1.247 . S
C78 O72 1.261 . S
C79 O74 1.259 . S
C79 O76 1.235 . S
O80 Co70 2.021 . S
O80 C77 1.238 . S
O81 Co75 2.052 . S
O81 C77 1.241 . S
O82 Co70 2.137 . S
O82 C73 1.247 . S
O83 Co70 2.244 . S
O83 C73 1.272 . S
O83 Co75 2.135 . S
Co84 O85 2.216 . S
Co84 O86 2.091 . S
Co84 O88 2.004 . S
Co84 O94 2.021 . S
Co84 O96 2.137 . S
Co84 O97 2.244 . S
O85 Co84 2.216 . S
O85 C92 1.247 . S
O86 Co84 2.091 . S
O86 C92 1.261 . S
C87 O96 1.247 . S
C87 O97 1.272 . S
O88 Co84 2.004 . S
O88 C93 1.259 . S
Co89 O90 2.061 . S
Co89 O95 2.052 . S
Co89 O97 2.135 . S
O90 Co89 2.061 . S
O90 C93 1.235 . S
C91 O94 1.238 . S
C91 O95 1.241 . S
C92 O85 1.247 . S
C92 O86 1.261 . S
C93 O88 1.259 . S
C93 O90 1.235 . S
O94 Co84 2.021 . S
O94 C91 1.238 . S
O95 Co89 2.052 . S
O95 C91 1.241 . S
O96 Co84 2.137 . S
O96 C87 1.247 . S
O97 Co84 2.244 . S
O97 C87 1.272 . S
O97 Co89 2.135 . S
Co98 O99 2.216 . S
Co98 O100 2.091 . S
Co98 O102 2.004 1_455 S
Co98 O108 2.021 . S
Co98 O110 2.137 . S
Co98 O111 2.244 . S
O99 Co98 2.216 . S
O99 C106 1.247 . S
O100 Co98 2.091 . S
O100 C106 1.261 . S
C101 O110 1.247 . S
C101 O111 1.272 . S
O102 Co98 2.004 1_655 S
O102 C107 1.259 . S
Co103 O104 2.061 . S
Co103 O109 2.052 1_655 S
Co103 O111 2.135 1_655 S
O104 Co103 2.061 . S
O104 C107 1.235 . S
C105 O108 1.238 . S
C105 O109 1.241 . S
C106 O99 1.247 . S
C106 O100 1.261 . S
C107 O102 1.259 . S
C107 O104 1.235 . S
O108 Co98 2.021 . S
O108 C105 1.238 . S
O109 Co103 2.052 1_455 S
O109 C105 1.241 . S
O110 Co98 2.137 . S
O110 C101 1.247 . S
O111 Co98 2.244 . S
O111 C101 1.272 . S
O111 Co103 2.135 1_455 S
Co112 O113 2.216 . S
Co112 O114 2.091 . S
Co112 O116 2.004 1_545 S
Co112 O122 2.021 . S
Co112 O124 2.137 . S
Co112 O125 2.244 . S
O113 Co112 2.216 . S
O113 C120 1.247 . S
O114 Co112 2.091 . S
O114 C120 1.261 . S
C115 O124 1.247 . S
C115 O125 1.272 . S
O116 Co112 2.004 1_565 S
O116 C121 1.259 . S
Co117 O118 2.061 . S
Co117 O123 2.052 . S
Co117 O125 2.135 1_565 S
O118 Co117 2.061 . S
O118 C121 1.235 . S
C119 O122 1.238 . S
C119 O123 1.241 1_545 S
C120 O113 1.247 . S
C120 O114 1.261 . S
C121 O116 1.259 . S
C121 O118 1.235 . S
O122 Co112 2.021 . S
O122 C119 1.238 . S
O123 Co117 2.052 . S
O123 C119 1.241 1_565 S
O124 Co112 2.137 . S
O124 C115 1.247 . S
O125 Co112 2.244 . S
O125 C115 1.272 . S
O125 Co117 2.135 1_545 S
Co126 O127 2.216 . S
Co126 O128 2.091 . S
Co126 O130 2.004 . S
Co126 O136 2.021 . S
Co126 O138 2.137 . S
Co126 O139 2.244 . S
O127 Co126 2.216 . S
O127 C134 1.247 . S
O128 Co126 2.091 . S
O128 C134 1.261 . S
C129 O138 1.247 . S
C129 O139 1.272 . S
O130 Co126 2.004 . S
O130 C135 1.259 . S
Co131 O132 2.061 . S
Co131 O137 2.052 . S
Co131 O139 2.135 . S
O132 Co131 2.061 . S
O132 C135 1.235 . S
C133 O136 1.238 . S
C133 O137 1.241 . S
C134 O127 1.247 . S
C134 O128 1.261 . S
C135 O130 1.259 . S
C135 O132 1.235 . S
O136 Co126 2.021 . S
O136 C133 1.238 . S
O137 Co131 2.052 . S
O137 C133 1.241 . S
O138 Co126 2.137 . S
O138 C129 1.247 . S
O139 Co126 2.244 . S
O139 C129 1.272 . S
O139 Co131 2.135 . S
Co140 O141 2.216 . S
Co140 O142 2.091 . S
Co140 O144 2.004 1_565 S
Co140 O150 2.021 . S
Co140 O152 2.137 . S
Co140 O153 2.244 1_565 S
O141 Co140 2.216 . S
O141 C148 1.247 . S
O142 Co140 2.091 . S
O142 C148 1.261 . S
C143 O152 1.247 1_545 S
C143 O153 1.272 . S
O144 Co140 2.004 1_545 S
O144 C149 1.259 . S
Co145 O146 2.061 . S
Co145 O151 2.052 . S
Co145 O153 2.135 . S
O146 Co145 2.061 . S
O146 C149 1.235 . S
C147 O150 1.238 . S
C147 O151 1.241 1_565 S
C148 O141 1.247 . S
C148 O142 1.261 . S
C149 O144 1.259 . S
C149 O146 1.235 . S
O150 Co140 2.021 . S
O150 C147 1.238 . S
O151 Co145 2.052 . S
O151 C147 1.241 1_545 S
O152 Co140 2.137 . S
O152 C143 1.247 1_565 S
O153 Co140 2.244 1_545 S
O153 C143 1.272 . S
O153 Co145 2.135 . S
Co154 O155 2.216 . S
Co154 O156 2.091 . S
Co154 O158 2.004 . S
Co154 O164 2.021 . S
Co154 O166 2.137 1_554 S
Co154 O167 2.244 1_554 S
O155 Co154 2.216 . S
O155 C162 1.247 . S
O156 Co154 2.091 . S
O156 C162 1.261 . S
C157 O166 1.247 . S
C157 O167 1.272 . S
O158 Co154 2.004 . S
O158 C163 1.259 . S
Co159 O160 2.061 . S
Co159 O165 2.052 . S
Co159 O167 2.135 1_554 S
O160 Co159 2.061 . S
O160 C163 1.235 . S
C161 O164 1.238 . S
C161 O165 1.241 . S
C162 O155 1.247 . S
C162 O156 1.261 . S
C163 O158 1.259 . S
C163 O160 1.235 . S
O164 Co154 2.021 . S
O164 C161 1.238 . S
O165 Co159 2.052 . S
O165 C161 1.241 . S
O166 Co154 2.137 1_556 S
O166 C157 1.247 . S
O167 Co154 2.244 1_556 S
O167 C157 1.272 . S
O167 Co159 2.135 1_556 S
Co168 O169 2.216 . S
Co168 O170 2.091 . S
Co168 O172 2.004 . S
Co168 O178 2.021 . S
Co168 O180 2.137 1_554 S
Co168 O181 2.244 1_554 S
O169 Co168 2.216 . S
O169 C176 1.247 . S
O170 Co168 2.091 . S
O170 C176 1.261 . S
C171 O180 1.247 . S
C171 O181 1.272 . S
O172 Co168 2.004 . S
O172 C177 1.259 . S
Co173 O174 2.061 . S
Co173 O179 2.052 . S
Co173 O181 2.135 1_554 S
O174 Co173 2.061 . S
O174 C177 1.235 . S
C175 O178 1.238 . S
C175 O179 1.241 . S
C176 O169 1.247 . S
C176 O170 1.261 . S
C177 O172 1.259 . S
C177 O174 1.235 . S
O178 Co168 2.021 . S
O178 C175 1.238 . S
O179 Co173 2.052 . S
O179 C175 1.241 . S
O180 Co168 2.137 1_556 S
O180 C171 1.247 . S
O181 Co168 2.244 1_556 S
O181 C171 1.272 . S
O181 Co173 2.135 1_556 S
Co182 O183 2.216 . S
Co182 O184 2.091 . S
Co182 O186 2.004 . S
Co182 O192 2.021 . S
Co182 O194 2.137 1_554 S
Co182 O195 2.244 1_554 S
O183 Co182 2.216 . S
O183 C190 1.247 . S
O184 Co182 2.091 . S
O184 C190 1.261 . S
C185 O194 1.247 . S
C185 O195 1.272 . S
O186 Co182 2.004 . S
O186 C191 1.259 . S
Co187 O188 2.061 . S
Co187 O193 2.052 . S
Co187 O195 2.135 1_554 S
O188 Co187 2.061 . S
O188 C191 1.235 . S
C189 O192 1.238 . S
C189 O193 1.241 . S
C190 O183 1.247 . S
C190 O184 1.261 . S
C191 O186 1.259 . S
C191 O188 1.235 . S
O192 Co182 2.021 . S
O192 C189 1.238 . S
O193 Co187 2.052 . S
O193 C189 1.241 . S
O194 Co182 2.137 1_556 S
O194 C185 1.247 . S
O195 Co182 2.244 1_556 S
O195 C185 1.272 . S
O195 Co187 2.135 1_556 S
Co196 O197 2.216 . S
Co196 O198 2.091 . S
Co196 O200 2.004 . S
Co196 O206 2.021 . S
Co196 O208 2.137 . S
Co196 O209 2.244 . S
O197 Co196 2.216 . S
O197 C204 1.247 . S
O198 Co196 2.091 . S
O198 C204 1.261 . S
C199 O208 1.247 . S
C199 O209 1.272 . S
O200 Co196 2.004 . S
O200 C205 1.259 . S
Co201 O202 2.061 . S
Co201 O207 2.052 . S
Co201 O209 2.135 . S
O202 Co201 2.061 . S
O202 C205 1.235 . S
C203 O206 1.238 . S
C203 O207 1.241 . S
C204 O197 1.247 . S
C204 O198 1.261 . S
C205 O200 1.259 . S
C205 O202 1.235 . S
O206 Co196 2.021 . S
O206 C203 1.238 . S
O207 Co201 2.052 . S
O207 C203 1.241 . S
O208 Co196 2.137 . S
O208 C199 1.247 . S
O209 Co196 2.244 . S
O209 C199 1.272 . S
O209 Co201 2.135 . S
Co210 O211 2.216 . S
Co210 O212 2.091 . S
Co210 O214 2.004 . S
Co210 O220 2.021 . S
Co210 O222 2.137 . S
Co210 O223 2.244 . S
O211 Co210 2.216 . S
O211 C218 1.247 . S
O212 Co210 2.091 . S
O212 C218 1.261 . S
C213 O222 1.247 . S
C213 O223 1.272 . S
O214 Co210 2.004 . S
O214 C219 1.259 . S
Co215 O216 2.061 . S
Co215 O221 2.052 . S
Co215 O223 2.135 . S
O216 Co215 2.061 . S
O216 C219 1.235 . S
C217 O220 1.238 . S
C217 O221 1.241 . S
C218 O211 1.247 . S
C218 O212 1.261 . S
C219 O214 1.259 . S
C219 O216 1.235 . S
O220 Co210 2.021 . S
O220 C217 1.238 . S
O221 Co215 2.052 . S
O221 C217 1.241 . S
O222 Co210 2.137 . S
O222 C213 1.247 . S
O223 Co210 2.244 . S
O223 C213 1.272 . S
O223 Co215 2.135 . S
Co224 O225 2.216 . S
Co224 O226 2.091 . S
Co224 O228 2.004 . S
Co224 O234 2.021 . S
Co224 O236 2.137 . S
Co224 O237 2.244 . S
O225 Co224 2.216 . S
O225 C232 1.247 . S
O226 Co224 2.091 . S
O226 C232 1.261 . S
C227 O236 1.247 . S
C227 O237 1.272 . S
O228 Co224 2.004 . S
O228 C233 1.259 . S
Co229 O230 2.061 . S
Co229 O235 2.052 . S
Co229 O237 2.135 . S
O230 Co229 2.061 . S
O230 C233 1.235 . S
C231 O234 1.238 . S
C231 O235 1.241 . S
C232 O225 1.247 . S
C232 O226 1.261 . S
C233 O228 1.259 . S
C233 O230 1.235 . S
O234 Co224 2.021 . S
O234 C231 1.238 . S
O235 Co229 2.052 . S
O235 C231 1.241 . S
O236 Co224 2.137 . S
O236 C227 1.247 . S
O237 Co224 2.244 . S
O237 C227 1.272 . S
O237 Co229 2.135 . S
Co238 O239 2.216 . S
Co238 O240 2.091 . S
Co238 O242 2.004 . S
Co238 O248 2.021 . S
Co238 O250 2.137 . S
Co238 O251 2.244 . S
O239 Co238 2.216 . S
O239 C246 1.247 . S
O240 Co238 2.091 . S
O240 C246 1.261 . S
C241 O250 1.247 . S
C241 O251 1.272 . S
O242 Co238 2.004 . S
O242 C247 1.259 . S
Co243 O244 2.061 . S
Co243 O249 2.052 . S
Co243 O251 2.135 . S
O244 Co243 2.061 . S
O244 C247 1.235 . S
C245 O248 1.238 . S
C245 O249 1.241 . S
C246 O239 1.247 . S
C246 O240 1.261 . S
C247 O242 1.259 . S
C247 O244 1.235 . S
O248 Co238 2.021 . S
O248 C245 1.238 . S
O249 Co243 2.052 . S
O249 C245 1.241 . S
O250 Co238 2.137 . S
O250 C241 1.247 . S
O251 Co238 2.244 . S
O251 C241 1.272 . S
O251 Co243 2.135 . S
Co252 O253 2.216 . S
Co252 O254 2.091 . S
Co252 O256 2.004 . S
Co252 O262 2.021 . S
Co252 O264 2.137 . S
Co252 O265 2.244 . S
O253 Co252 2.216 . S
O253 C260 1.247 . S
O254 Co252 2.091 . S
O254 C260 1.261 . S
C255 O264 1.247 . S
C255 O265 1.272 . S
O256 Co252 2.004 . S
O256 C261 1.259 . S
Co257 O258 2.061 . S
Co257 O263 2.052 . S
Co257 O265 2.135 . S
O258 Co257 2.061 . S
O258 C261 1.235 . S
C259 O262 1.238 . S
C259 O263 1.241 . S
C260 O253 1.247 . S
C260 O254 1.261 . S
C261 O256 1.259 . S
C261 O258 1.235 . S
O262 Co252 2.021 . S
O262 C259 1.238 . S
O263 Co257 2.052 . S
O263 C259 1.241 . S
O264 Co252 2.137 . S
O264 C255 1.247 . S
O265 Co252 2.244 . S
O265 C255 1.272 . S
O265 Co257 2.135 . S
Co266 O267 2.216 . S
Co266 O268 2.091 . S
Co266 O270 2.004 . S
Co266 O276 2.021 . S
Co266 O278 2.137 . S
Co266 O279 2.244 . S
O267 Co266 2.216 . S
O267 C274 1.247 . S
O268 Co266 2.091 . S
O268 C274 1.261 . S
C269 O278 1.247 . S
C269 O279 1.272 . S
O270 Co266 2.004 . S
O270 C275 1.259 . S
Co271 O272 2.061 . S
Co271 O277 2.052 . S
Co271 O279 2.135 . S
O272 Co271 2.061 . S
O272 C275 1.235 . S
C273 O276 1.238 . S
C273 O277 1.241 . S
C274 O267 1.247 . S
C274 O268 1.261 . S
C275 O270 1.259 . S
C275 O272 1.235 . S
O276 Co266 2.021 . S
O276 C273 1.238 . S
O277 Co271 2.052 . S
O277 C273 1.241 . S
O278 Co266 2.137 . S
O278 C269 1.247 . S
O279 Co266 2.244 . S
O279 C269 1.272 . S
O279 Co271 2.135 . S
Co280 O281 2.217 1_556 S
Co280 O282 2.082 1_556 S
Co280 O284 2.003 . S
Co280 O290 1.983 1_556 S
Co280 O292 2.177 . S
Co280 O293 2.263 . S
O281 Co280 2.217 1_554 S
O281 C288 1.247 . S
O282 Co280 2.082 1_554 S
O282 C288 1.258 . S
C283 O292 1.247 . S
C283 O293 1.272 . S
O284 Co280 2.003 . S
O284 C289 1.259 . S
Co285 O286 2.061 . S
Co285 O291 2.052 . S
Co285 O293 2.135 1_554 S
O286 Co285 2.061 . S
O286 C289 1.235 1_554 S
C287 O290 1.238 . S
C287 O291 1.241 . S
C288 O281 1.247 . S
C288 O282 1.258 . S
C289 O284 1.259 . S
C289 O286 1.235 1_556 S
O290 Co280 1.983 1_554 S
O290 C287 1.238 . S
O291 Co285 2.052 . S
O291 C287 1.241 . S
O292 Co280 2.177 . S
O292 C283 1.247 . S
O293 Co280 2.263 . S
O293 C283 1.272 . S
O293 Co285 2.135 1_556 S
Co294 O295 2.216 . S
Co294 O296 2.091 . S
Co294 O298 2.004 . S
Co294 O304 2.021 . S
Co294 O306 2.137 . S
Co294 O307 2.244 . S
O295 Co294 2.216 . S
O295 C302 1.247 . S
O296 Co294 2.091 . S
O296 C302 1.261 . S
C297 O306 1.247 . S
C297 O307 1.272 . S
O298 Co294 2.004 . S
O298 C303 1.259 . S
Co299 O300 2.061 . S
Co299 O305 2.052 . S
Co299 O307 2.135 . S
O300 Co299 2.061 . S
O300 C303 1.235 . S
C301 O304 1.238 . S
C301 O305 1.241 . S
C302 O295 1.247 . S
C302 O296 1.261 . S
C303 O298 1.259 . S
C303 O300 1.235 . S
O304 Co294 2.021 . S
O304 C301 1.238 . S
O305 Co299 2.052 . S
O305 C301 1.241 . S
O306 Co294 2.137 . S
O306 C297 1.247 . S
O307 Co294 2.244 . S
O307 C297 1.272 . S
O307 Co299 2.135 . S
Co308 O309 2.216 . S
Co308 O310 2.091 . S
Co308 O312 2.004 . S
Co308 O318 2.021 . S
Co308 O320 2.137 . S
Co308 O321 2.244 . S
O309 Co308 2.216 . S
O309 C316 1.247 . S
O310 Co308 2.091 . S
O310 C316 1.261 . S
C311 O320 1.247 . S
C311 O321 1.272 . S
O312 Co308 2.004 . S
O312 C317 1.259 . S
Co313 O314 2.061 . S
Co313 O319 2.052 . S
Co313 O321 2.135 . S
O314 Co313 2.061 . S
O314 C317 1.235 . S
C315 O318 1.238 . S
C315 O319 1.241 . S
C316 O309 1.247 . S
C316 O310 1.261 . S
C317 O312 1.259 . S
C317 O314 1.235 . S
O318 Co308 2.021 . S
O318 C315 1.238 . S
O319 Co313 2.052 . S
O319 C315 1.241 . S
O320 Co308 2.137 . S
O320 C311 1.247 . S
O321 Co308 2.244 . S
O321 C311 1.272 . S
O321 Co313 2.135 . S
Co322 O323 2.216 . S
Co322 O324 2.091 . S
Co322 O326 2.004 . S
Co322 O332 2.021 . S
Co322 O334 2.137 . S
Co322 O335 2.244 . S
O323 Co322 2.216 . S
O323 C330 1.247 . S
O324 Co322 2.091 . S
O324 C330 1.261 . S
C325 O334 1.247 . S
C325 O335 1.272 . S
O326 Co322 2.004 . S
O326 C331 1.259 . S
Co327 O328 2.061 . S
Co327 O333 2.052 . S
Co327 O335 2.135 . S
O328 Co327 2.061 . S
O328 C331 1.235 . S
C329 O332 1.238 . S
C329 O333 1.241 . S
C330 O323 1.247 . S
C330 O324 1.261 . S
C331 O326 1.259 . S
C331 O328 1.235 . S
O332 Co322 2.021 . S
O332 C329 1.238 . S
O333 Co327 2.052 . S
O333 C329 1.241 . S
O334 Co322 2.137 . S
O334 C325 1.247 . S
O335 Co322 2.244 . S
O335 C325 1.272 . S
O335 Co327 2.135 . S
Gd336 C339 2.813 1_454 S
Gd336 O356 2.368 1_554 S
Gd336 O358 2.431 1_454 S
Gd336 O359 2.514 1_455 S
Gd336 O360 2.407 1_554 S
Gd336 O361 2.708 1_554 S
Gd336 O363 2.405 1_545 S
Gd336 O367 2.351 . S
Gd337 C348 2.818 . S
Gd337 O357 2.395 . S
Gd337 O361 2.327 1_554 S
Gd337 O362 2.377 . S
Gd337 O364 2.448 . S
Gd337 O365 2.506 . S
Gd337 O366 2.435 . S
Gd337 O367 2.717 . S
C338 O356 1.240 1_554 S
C338 O357 1.240 . S
C339 Gd336 2.813 1_656 S
C339 C340 1.510 . S
C339 O358 1.249 . S
C339 O359 1.252 1_556 S
C340 C339 1.510 . S
C340 C341 1.404 . S
C340 C342 1.352 1_556 S
C341 C340 1.404 . S
C341 C345 1.389 . S
C341 H368 0.930 . S
C342 C340 1.352 1_554 S
C342 C344 1.374 1_554 S
C342 H369 0.931 . S
C343 C344 1.359 . S
C343 C345 1.364 . S
C344 C342 1.374 1_556 S
C344 C343 1.359 . S
C344 H370 0.931 1_556 S
C345 C341 1.389 . S
C345 C343 1.364 . S
C345 H371 0.931 . S
C346 O360 1.256 . S
C346 O361 1.257 . S
C347 O362 1.240 1_565 S
C347 O363 1.240 . S
C348 Gd337 2.818 . S
C348 C349 1.510 . S
C348 O364 1.249 . S
C348 O365 1.252 . S
C349 C348 1.510 . S
C349 C350 1.404 . S
C349 C351 1.352 . S
C350 C349 1.404 . S
C350 C354 1.389 . S
C350 H372 0.930 . S
C351 C349 1.352 . S
C351 C353 1.374 1_545 S
C351 H373 0.931 . S
C352 C353 1.359 1_545 S
C352 C354 1.364 . S
C353 C351 1.374 1_565 S
C353 C352 1.359 1_565 S
C353 H374 0.931 . S
C354 C350 1.389 . S
C354 C352 1.364 . S
C354 H375 0.931 . S
C355 O366 1.256 . S
C355 O367 1.257 . S
O356 Gd336 2.368 1_556 S
O356 C338 1.240 1_556 S
O357 Gd337 2.395 . S
O357 C338 1.240 . S
O358 Gd336 2.431 1_656 S
O358 C339 1.249 . S
O359 Gd336 2.514 1_655 S
O359 C339 1.252 1_554 S
O360 Gd336 2.407 1_556 S
O360 C346 1.256 . S
O361 Gd336 2.708 1_556 S
O361 Gd337 2.327 1_556 S
O361 C346 1.257 . S
O362 Gd337 2.377 . S
O362 C347 1.240 1_545 S
O363 Gd336 2.405 1_565 S
O363 C347 1.240 . S
O364 Gd337 2.448 . S
O364 C348 1.249 . S
O365 Gd337 2.506 . S
O365 C348 1.252 . S
O366 Gd337 2.435 . S
O366 C355 1.256 . S
O367 Gd336 2.351 . S
O367 Gd337 2.717 . S
O367 C355 1.257 . S
H368 C341 0.930 . S
H369 C342 0.931 . S
H370 C344 0.931 1_554 S
H371 C345 0.931 . S
H372 C350 0.930 . S
H373 C351 0.931 . S
H374 C353 0.931 . S
H375 C354 0.931 . S
Gd376 C379 2.818 . S
Gd376 O396 2.377 . S
Gd376 O398 2.448 . S
Gd376 O399 2.506 . S
Gd376 O400 2.435 . S
Gd376 O401 2.717 . S
Gd376 O403 2.395 . S
Gd376 O407 2.327 . S
Gd377 C388 2.818 . S
Gd377 O397 2.395 . S
Gd377 O401 2.327 . S
Gd377 O402 2.377 . S
Gd377 O404 2.448 . S
Gd377 O405 2.506 . S
Gd377 O406 2.435 . S
Gd377 O407 2.717 . S
C378 O396 1.240 . S
C378 O397 1.240 . S
C379 Gd376 2.818 . S
C379 C380 1.510 . S
C379 O398 1.249 . S
C379 O399 1.252 . S
C380 C379 1.510 . S
C380 C381 1.404 . S
C380 C382 1.352 . S
C381 C380 1.404 . S
C381 C385 1.389 . S
C381 H408 0.930 . S
C382 C380 1.352 . S
C382 C384 1.374 . S
C382 H409 0.931 . S
C383 C384 1.359 . S
C383 C385 1.364 . S
C384 C382 1.374 . S
C384 C383 1.359 . S
C384 H410 0.931 . S
C385 C381 1.389 . S
C385 C383 1.364 . S
C385 H411 0.931 . S
C386 O400 1.256 . S
C386 O401 1.257 . S
C387 O402 1.240 . S
C387 O403 1.240 . S
C388 Gd377 2.818 . S
C388 C389 1.510 . S
C388 O404 1.249 . S
C388 O405 1.252 . S
C389 C388 1.510 . S
C389 C390 1.404 . S
C389 C391 1.352 . S
C390 C389 1.404 . S
C390 C394 1.389 . S
C390 H412 0.930 . S
C391 C389 1.352 . S
C391 C393 1.374 . S
C391 H413 0.931 . S
C392 C393 1.359 . S
C392 C394 1.364 . S
C393 C391 1.374 . S
C393 C392 1.359 . S
C393 H414 0.931 . S
C394 C390 1.389 . S
C394 C392 1.364 . S
C394 H415 0.931 . S
C395 O406 1.256 . S
C395 O407 1.257 . S
O396 Gd376 2.377 . S
O396 C378 1.240 . S
O397 Gd377 2.395 . S
O397 C378 1.240 . S
O398 Gd376 2.448 . S
O398 C379 1.249 . S
O399 Gd376 2.506 . S
O399 C379 1.252 . S
O400 Gd376 2.435 . S
O400 C386 1.256 . S
O401 Gd376 2.717 . S
O401 Gd377 2.327 . S
O401 C386 1.257 . S
O402 Gd377 2.377 . S
O402 C387 1.240 . S
O403 Gd376 2.395 . S
O403 C387 1.240 . S
O404 Gd377 2.448 . S
O404 C388 1.249 . S
O405 Gd377 2.506 . S
O405 C388 1.252 . S
O406 Gd377 2.435 . S
O406 C395 1.256 . S
O407 Gd376 2.327 . S
O407 Gd377 2.717 . S
O407 C395 1.257 . S
H408 C381 0.930 . S
H409 C382 0.931 . S
H410 C384 0.931 . S
H411 C385 0.931 . S
H412 C390 0.930 . S
H413 C391 0.931 . S
H414 C393 0.931 . S
H415 C394 0.931 . S
Gd416 C419 2.818 . S
Gd416 O436 2.381 . S
Gd416 O438 2.448 . S
Gd416 O439 2.506 . S
Gd416 O440 2.435 . S
Gd416 O441 2.717 . S
Gd416 O443 2.395 . S
Gd416 O447 2.327 . S
Gd417 C428 2.818 . S
Gd417 O437 2.395 1_545 S
Gd417 O441 2.327 . S
Gd417 O442 2.377 . S
Gd417 O444 2.448 . S
Gd417 O445 2.506 . S
Gd417 O446 2.435 . S
Gd417 O447 2.717 . S
C418 O436 1.238 1_565 S
C418 O437 1.240 . S
C419 Gd416 2.818 . S
C419 C420 1.510 1_545 S
C419 O438 1.249 . S
C419 O439 1.252 . S
C420 C419 1.510 1_565 S
C420 C421 1.404 . S
C420 C422 1.352 . S
C421 C420 1.404 . S
C421 C425 1.389 . S
C421 H448 0.930 1_565 S
C422 C420 1.352 . S
C422 C424 1.374 . S
C422 H449 0.931 . S
C423 C424 1.359 . S
C423 C425 1.364 . S
C424 C422 1.374 . S
C424 C423 1.359 . S
C424 H450 0.931 . S
C425 C421 1.389 . S
C425 C423 1.364 . S
C425 H451 0.931 . S
C426 O440 1.256 . S
C426 O441 1.257 . S
C427 O442 1.240 . S
C427 O443 1.240 . S
C428 Gd417 2.818 . S
C428 C429 1.510 . S
C428 O444 1.249 . S
C428 O445 1.252 . S
C429 C428 1.510 . S
C429 C430 1.404 . S
C429 C431 1.352 . S
C430 C429 1.404 . S
C430 C434 1.389 . S
C430 H452 0.930 . S
C431 C429 1.352 . S
C431 C433 1.374 . S
C431 H453 0.931 . S
C432 C433 1.359 . S
C432 C434 1.364 . S
C433 C431 1.374 . S
C433 C432 1.359 . S
C433 H454 0.931 . S
C434 C430 1.389 . S
C434 C432 1.364 . S
C434 H455 0.931 . S
C435 O446 1.256 . S
C435 O447 1.257 . S
O436 Gd416 2.381 . S
O436 C418 1.238 1_545 S
O437 Gd417 2.395 1_565 S
O437 C418 1.240 . S
O438 Gd416 2.448 . S
O438 C419 1.249 . S
O439 Gd416 2.506 . S
O439 C419 1.252 . S
O440 Gd416 2.435 . S
O440 C426 1.256 . S
O441 Gd416 2.717 . S
O441 Gd417 2.327 . S
O441 C426 1.257 . S
O442 Gd417 2.377 . S
O442 C427 1.240 . S
O443 Gd416 2.395 . S
O443 C427 1.240 . S
O444 Gd417 2.448 . S
O444 C428 1.249 . S
O445 Gd417 2.506 . S
O445 C428 1.252 . S
O446 Gd417 2.435 . S
O446 C435 1.256 . S
O447 Gd416 2.327 . S
O447 Gd417 2.717 . S
O447 C435 1.257 . S
H448 C421 0.930 1_545 S
H449 C422 0.931 . S
H450 C424 0.931 . S
H451 C425 0.931 . S
H452 C430 0.930 . S
H453 C431 0.931 . S
H454 C433 0.931 . S
H455 C434 0.931 . S
Gd456 C459 2.818 . S
Gd456 O476 2.377 . S
Gd456 O478 2.448 . S
Gd456 O479 2.506 . S
Gd456 O480 2.435 . S
Gd456 O481 2.717 . S
Gd456 O483 2.395 . S
Gd456 O487 2.327 . S
Gd457 C468 2.818 . S
Gd457 O477 2.395 . S
Gd457 O481 2.327 . S
Gd457 O482 2.377 . S
Gd457 O484 2.448 . S
Gd457 O485 2.506 . S
Gd457 O486 2.435 . S
Gd457 O487 2.717 . S
C458 O476 1.240 . S
C458 O477 1.240 . S
C459 Gd456 2.818 . S
C459 C460 1.510 . S
C459 O478 1.249 . S
C459 O479 1.252 . S
C460 C459 1.510 . S
C460 C461 1.404 . S
C460 C462 1.352 . S
C461 C460 1.404 . S
C461 C465 1.389 . S
C461 H488 0.930 . S
C462 C460 1.352 . S
C462 C464 1.374 . S
C462 H489 0.931 . S
C463 C464 1.359 . S
C463 C465 1.364 . S
C464 C462 1.374 . S
C464 C463 1.359 . S
C464 H490 0.931 . S
C465 C461 1.389 . S
C465 C463 1.364 . S
C465 H491 0.931 . S
C466 O480 1.256 . S
C466 O481 1.257 . S
C467 O482 1.240 . S
C467 O483 1.240 . S
C468 Gd457 2.818 . S
C468 C469 1.510 . S
C468 O484 1.249 . S
C468 O485 1.252 . S
C469 C468 1.510 . S
C469 C470 1.404 . S
C469 C471 1.352 . S
C470 C469 1.404 . S
C470 C474 1.389 . S
C470 H492 0.930 . S
C471 C469 1.352 . S
C471 C473 1.374 . S
C471 H493 0.931 . S
C472 C473 1.359 . S
C472 C474 1.364 . S
C473 C471 1.374 . S
C473 C472 1.359 . S
C473 H494 0.931 . S
C474 C470 1.389 . S
C474 C472 1.364 . S
C474 H495 0.931 . S
C475 O486 1.256 . S
C475 O487 1.257 . S
O476 Gd456 2.377 . S
O476 C458 1.240 . S
O477 Gd457 2.395 . S
O477 C458 1.240 . S
O478 Gd456 2.448 . S
O478 C459 1.249 . S
O479 Gd456 2.506 . S
O479 C459 1.252 . S
O480 Gd456 2.435 . S
O480 C466 1.256 . S
O481 Gd456 2.717 . S
O481 Gd457 2.327 . S
O481 C466 1.257 . S
O482 Gd457 2.377 . S
O482 C467 1.240 . S
O483 Gd456 2.395 . S
O483 C467 1.240 . S
O484 Gd457 2.448 . S
O484 C468 1.249 . S
O485 Gd457 2.506 . S
O485 C468 1.252 . S
O486 Gd457 2.435 . S
O486 C475 1.256 . S
O487 Gd456 2.327 . S
O487 Gd457 2.717 . S
O487 C475 1.257 . S
H488 C461 0.930 . S
H489 C462 0.931 . S
H490 C464 0.931 . S
H491 C465 0.931 . S
H492 C470 0.930 . S
H493 C471 0.931 . S
H494 C473 0.931 . S
H495 C474 0.931 . S
Gd496 C499 2.818 . S
Gd496 O516 2.377 . S
Gd496 O518 2.448 . S
Gd496 O519 2.506 . S
Gd496 O520 2.435 . S
Gd496 O521 2.717 . S
Gd496 O523 2.395 . S
Gd496 O527 2.327 . S
Gd497 C508 2.818 1_545 S
Gd497 O517 2.395 . S
Gd497 O521 2.327 . S
Gd497 O522 2.377 . S
Gd497 O524 2.448 1_545 S
Gd497 O525 2.506 1_545 S
Gd497 O526 2.435 . S
Gd497 O527 2.717 . S
C498 O516 1.240 . S
C498 O517 1.240 . S
C499 Gd496 2.818 . S
C499 C500 1.510 . S
C499 O518 1.249 . S
C499 O519 1.252 . S
C500 C499 1.510 . S
C500 C501 1.404 . S
C500 C502 1.352 . S
C501 C500 1.404 . S
C501 C505 1.389 . S
C501 H528 0.930 . S
C502 C500 1.352 . S
C502 C504 1.374 . S
C502 H529 0.931 . S
C503 C504 1.359 . S
C503 C505 1.364 . S
C504 C502 1.374 . S
C504 C503 1.359 . S
C504 H530 0.931 . S
C505 C501 1.389 . S
C505 C503 1.364 . S
C505 H531 0.931 . S
C506 O520 1.256 . S
C506 O521 1.257 . S
C507 O522 1.240 . S
C507 O523 1.240 . S
C508 Gd497 2.818 1_565 S
C508 C509 1.510 . S
C508 O524 1.249 . S
C508 O525 1.252 . S
C509 C508 1.510 . S
C509 C510 1.404 . S
C509 C511 1.352 . S
C510 C509 1.404 . S
C510 C514 1.389 . S
C510 H532 0.930 . S
C511 C509 1.352 . S
C511 C513 1.374 . S
C511 H533 0.931 . S
C512 C513 1.359 . S
C512 C514 1.364 . S
C513 C511 1.374 . S
C513 C512 1.359 . S
C513 H534 0.931 . S
C514 C510 1.389 . S
C514 C512 1.364 . S
C514 H535 0.931 . S
C515 O526 1.256 . S
C515 O527 1.257 . S
O516 Gd496 2.377 . S
O516 C498 1.240 . S
O517 Gd497 2.395 . S
O517 C498 1.240 . S
O518 Gd496 2.448 . S
O518 C499 1.249 . S
O519 Gd496 2.506 . S
O519 C499 1.252 . S
O520 Gd496 2.435 . S
O520 C506 1.256 . S
O521 Gd496 2.717 . S
O521 Gd497 2.327 . S
O521 C506 1.257 . S
O522 Gd497 2.377 . S
O522 C507 1.240 . S
O523 Gd496 2.395 . S
O523 C507 1.240 . S
O524 Gd497 2.448 1_565 S
O524 C508 1.249 . S
O525 Gd497 2.506 1_565 S
O525 C508 1.252 . S
O526 Gd497 2.435 . S
O526 C515 1.256 . S
O527 Gd496 2.327 . S
O527 Gd497 2.717 . S
O527 C515 1.257 . S
H528 C501 0.930 . S
H529 C502 0.931 . S
H530 C504 0.931 . S
H531 C505 0.931 . S
H532 C510 0.930 . S
H533 C511 0.931 . S
H534 C513 0.931 . S
H535 C514 0.931 . S
Gd536 C539 2.818 . S
Gd536 O556 2.377 . S
Gd536 O558 2.448 . S
Gd536 O559 2.506 . S
Gd536 O560 2.435 . S
Gd536 O561 2.717 . S
Gd536 O563 2.395 . S
Gd536 O567 2.327 . S
Gd537 C548 2.818 . S
Gd537 O557 2.395 . S
Gd537 O561 2.327 . S
Gd537 O562 2.377 . S
Gd537 O564 2.448 . S
Gd537 O565 2.506 . S
Gd537 O566 2.435 . S
Gd537 O567 2.717 . S
C538 O556 1.240 . S
C538 O557 1.240 . S
C539 Gd536 2.818 . S
C539 C540 1.510 . S
C539 O558 1.249 . S
C539 O559 1.252 . S
C540 C539 1.510 . S
C540 C541 1.404 . S
C540 C542 1.352 . S
C541 C540 1.404 . S
C541 C545 1.389 . S
C541 H568 0.930 . S
C542 C540 1.352 . S
C542 C544 1.374 . S
C542 H569 0.931 . S
C543 C544 1.359 . S
C543 C545 1.364 . S
C544 C542 1.374 . S
C544 C543 1.359 . S
C544 H570 0.931 . S
C545 C541 1.389 . S
C545 C543 1.364 . S
C545 H571 0.931 . S
C546 O560 1.256 . S
C546 O561 1.257 . S
C547 O562 1.240 . S
C547 O563 1.240 . S
C548 Gd537 2.818 . S
C548 C549 1.510 . S
C548 O564 1.249 . S
C548 O565 1.252 . S
C549 C548 1.510 . S
C549 C550 1.404 . S
C549 C551 1.352 . S
C550 C549 1.404 . S
C550 C554 1.389 . S
C550 H572 0.930 . S
C551 C549 1.352 . S
C551 C553 1.374 . S
C551 H573 0.931 . S
C552 C553 1.359 . S
C552 C554 1.364 . S
C553 C551 1.374 . S
C553 C552 1.359 . S
C553 H574 0.931 . S
C554 C550 1.389 . S
C554 C552 1.364 . S
C554 H575 0.931 . S
C555 O566 1.256 . S
C555 O567 1.257 . S
O556 Gd536 2.377 . S
O556 C538 1.240 . S
O557 Gd537 2.395 . S
O557 C538 1.240 . S
O558 Gd536 2.448 . S
O558 C539 1.249 . S
O559 Gd536 2.506 . S
O559 C539 1.252 . S
O560 Gd536 2.435 . S
O560 C546 1.256 . S
O561 Gd536 2.717 . S
O561 Gd537 2.327 . S
O561 C546 1.257 . S
O562 Gd537 2.377 . S
O562 C547 1.240 . S
O563 Gd536 2.395 . S
O563 C547 1.240 . S
O564 Gd537 2.448 . S
O564 C548 1.249 . S
O565 Gd537 2.506 . S
O565 C548 1.252 . S
O566 Gd537 2.435 . S
O566 C555 1.256 . S
O567 Gd536 2.327 . S
O567 Gd537 2.717 . S
O567 C555 1.257 . S
H568 C541 0.930 . S
H569 C542 0.931 . S
H570 C544 0.931 . S
H571 C545 0.931 . S
H572 C550 0.930 . S
H573 C551 0.931 . S
H574 C553 0.931 . S
H575 C554 0.931 . S
Gd576 C579 2.818 . S
Gd576 O596 2.377 . S
Gd576 O598 2.448 . S
Gd576 O599 2.506 . S
Gd576 O600 2.435 1_545 S
Gd576 O601 2.717 1_554 S
Gd576 O603 2.395 . S
Gd576 O607 2.327 . S
Gd577 C588 2.818 . S
Gd577 O597 2.395 . S
Gd577 O601 2.327 . S
Gd577 O602 2.377 . S
Gd577 O604 2.448 . S
Gd577 O605 2.506 . S
Gd577 O606 2.435 1_556 S
Gd577 O607 2.717 1_556 S
C578 O596 1.240 . S
C578 O597 1.240 1_554 S
C579 Gd576 2.818 . S
C579 C580 1.510 . S
C579 O598 1.249 . S
C579 O599 1.252 . S
C580 C579 1.510 . S
C580 C581 1.404 1_545 S
C580 C582 1.352 . S
C581 C580 1.404 1_565 S
C581 C585 1.389 . S
C581 H608 0.930 . S
C582 C580 1.352 . S
C582 C584 1.374 . S
C582 H609 0.931 . S
C583 C584 1.359 1_565 S
C583 C585 1.364 . S
C584 C582 1.374 . S
C584 C583 1.359 1_545 S
C584 H610 0.931 . S
C585 C581 1.389 . S
C585 C583 1.364 . S
C585 H611 0.931 . S
C586 O600 1.192 1_556 S
C586 O601 1.280 1_565 S
C587 O602 1.240 1_554 S
C587 O603 1.240 . S
C588 Gd577 2.818 . S
C588 C589 1.510 . S
C588 O604 1.249 . S
C588 O605 1.252 . S
C589 C588 1.510 . S
C589 C590 1.404 . S
C589 C591 1.352 . S
C590 C589 1.404 . S
C590 C594 1.389 . S
C590 H612 0.930 . S
C591 C589 1.352 . S
C591 C593 1.374 . S
C591 H613 0.931 . S
C592 C593 1.359 . S
C592 C594 1.364 . S
C593 C591 1.374 . S
C593 C592 1.359 . S
C593 H614 0.931 . S
C594 C590 1.389 . S
C594 C592 1.364 . S
C594 H615 0.931 . S
C595 O606 1.256 . S
C595 O607 1.257 . S
O596 Gd576 2.377 . S
O596 C578 1.240 . S
O597 Gd577 2.395 . S
O597 C578 1.240 1_556 S
O598 Gd576 2.448 . S
O598 C579 1.249 . S
O599 Gd576 2.506 . S
O599 C579 1.252 . S
O600 Gd576 2.435 1_565 S
O600 C586 1.192 1_554 S
O601 Gd576 2.717 1_556 S
O601 Gd577 2.327 . S
O601 C586 1.280 1_545 S
O602 Gd577 2.377 . S
O602 C587 1.240 1_556 S
O603 Gd576 2.395 . S
O603 C587 1.240 . S
O604 Gd577 2.448 . S
O604 C588 1.249 . S
O605 Gd577 2.506 . S
O605 C588 1.252 . S
O606 Gd577 2.435 1_554 S
O606 C595 1.256 . S
O607 Gd576 2.327 . S
O607 Gd577 2.717 1_554 S
O607 C595 1.257 . S
H608 C581 0.930 . S
H609 C582 0.931 . S
H610 C584 0.931 . S
H611 C585 0.931 . S
H612 C590 0.930 . S
H613 C591 0.931 . S
H614 C593 0.931 . S
H615 C594 0.931 . S
Gd616 C619 2.818 . S
Gd616 O636 2.377 . S
Gd616 O638 2.448 . S
Gd616 O639 2.506 . S
Gd616 O640 2.435 . S
Gd616 O641 2.717 . S
Gd616 O643 2.395 . S
Gd616 O647 2.327 . S
Gd617 C628 2.818 . S
Gd617 O637 2.395 . S
Gd617 O641 2.327 . S
Gd617 O642 2.377 . S
Gd617 O644 2.448 . S
Gd617 O645 2.506 . S
Gd617 O646 2.435 . S
Gd617 O647 2.717 . S
C618 O636 1.240 . S
C618 O637 1.240 . S
C619 Gd616 2.818 . S
C619 C620 1.510 . S
C619 O638 1.249 . S
C619 O639 1.252 . S
C620 C619 1.510 . S
C620 C621 1.404 . S
C620 C622 1.352 . S
C621 C620 1.404 . S
C621 C625 1.389 . S
C621 H648 0.930 . S
C622 C620 1.352 . S
C622 C624 1.374 . S
C622 H649 0.931 . S
C623 C624 1.359 . S
C623 C625 1.364 . S
C624 C622 1.374 . S
C624 C623 1.359 . S
C624 H650 0.931 . S
C625 C621 1.389 . S
C625 C623 1.364 . S
C625 H651 0.931 . S
C626 O640 1.256 . S
C626 O641 1.257 . S
C627 O642 1.240 . S
C627 O643 1.240 . S
C628 Gd617 2.818 . S
C628 C629 1.510 . S
C628 O644 1.249 . S
C628 O645 1.252 . S
C629 C628 1.510 . S
C629 C630 1.404 . S
C629 C631 1.352 . S
C630 C629 1.404 . S
C630 C634 1.389 . S
C630 H652 0.930 . S
C631 C629 1.352 . S
C631 C633 1.374 . S
C631 H653 0.931 . S
C632 C633 1.359 . S
C632 C634 1.364 . S
C633 C631 1.374 . S
C633 C632 1.359 . S
C633 H654 0.931 . S
C634 C630 1.389 . S
C634 C632 1.364 . S
C634 H655 0.931 . S
C635 O646 1.256 . S
C635 O647 1.257 . S
O636 Gd616 2.377 . S
O636 C618 1.240 . S
O637 Gd617 2.395 . S
O637 C618 1.240 . S
O638 Gd616 2.448 . S
O638 C619 1.249 . S
O639 Gd616 2.506 . S
O639 C619 1.252 . S
O640 Gd616 2.435 . S
O640 C626 1.256 . S
O641 Gd616 2.717 . S
O641 Gd617 2.327 . S
O641 C626 1.257 . S
O642 Gd617 2.377 . S
O642 C627 1.240 . S
O643 Gd616 2.395 . S
O643 C627 1.240 . S
O644 Gd617 2.448 . S
O644 C628 1.249 . S
O645 Gd617 2.506 . S
O645 C628 1.252 . S
O646 Gd617 2.435 . S
O646 C635 1.256 . S
O647 Gd616 2.327 . S
O647 Gd617 2.717 . S
O647 C635 1.257 . S
H648 C621 0.930 . S
H649 C622 0.931 . S
H650 C624 0.931 . S
H651 C625 0.931 . S
H652 C630 0.930 . S
H653 C631 0.931 . S
H654 C633 0.931 . S
H655 C634 0.931 . S
Gd656 C659 2.784 1_554 S
Gd656 O676 2.377 1_554 S
Gd656 O678 2.448 . S
Gd656 O679 2.506 1_554 S
Gd656 O680 2.435 . S
Gd656 O681 2.717 . S
Gd656 O683 2.395 . S
Gd656 O687 2.327 . S
Gd657 C668 2.816 1_556 S
Gd657 O677 2.398 . S
Gd657 O681 2.326 1_556 S
Gd657 O682 2.374 1_556 S
Gd657 O684 2.447 1_556 S
Gd657 O685 2.503 1_556 S
Gd657 O686 2.435 . S
Gd657 O687 2.718 1_556 S
C658 O676 1.240 . S
C658 O677 1.240 . S
C659 Gd656 2.784 1_556 S
C659 C660 1.547 . S
C659 O678 1.212 1_556 S
C659 O679 1.257 . S
C660 C659 1.547 . S
C660 C661 1.404 . S
C660 C662 1.352 . S
C661 C660 1.404 . S
C661 C665 1.389 . S
C661 H688 0.954 . S
C662 C660 1.352 . S
C662 C664 1.374 . S
C662 H689 0.931 . S
C663 C664 1.359 . S
C663 C665 1.364 . S
C664 C662 1.374 . S
C664 C663 1.359 . S
C664 H690 0.931 . S
C665 C661 1.389 . S
C665 C663 1.364 . S
C665 H691 0.931 . S
C666 O680 1.256 . S
C666 O681 1.257 . S
C667 O682 1.240 . S
C667 O683 1.240 . S
C668 Gd657 2.816 1_554 S
C668 C669 1.510 . S
C668 O684 1.249 . S
C668 O685 1.252 . S
C669 C668 1.510 . S
C669 C670 1.404 . S
C669 C671 1.352 . S
C670 C669 1.404 . S
C670 C674 1.389 . S
C670 H692 0.930 . S
C671 C669 1.352 . S
C671 C673 1.374 . S
C671 H693 0.931 . S
C672 C673 1.359 . S
C672 C674 1.364 . S
C673 C671 1.374 . S
C673 C672 1.359 . S
C673 H694 0.931 . S
C674 C670 1.389 . S
C674 C672 1.364 . S
C674 H695 0.931 . S
C675 O686 1.256 1_554 S
C675 O687 1.257 . S
O676 Gd656 2.377 1_556 S
O676 C658 1.240 . S
O677 Gd657 2.398 . S
O677 C658 1.240 . S
O678 Gd656 2.448 . S
O678 C659 1.212 1_554 S
O679 Gd656 2.506 1_556 S
O679 C659 1.257 . S
O680 Gd656 2.435 . S
O680 C666 1.256 . S
O681 Gd656 2.717 . S
O681 Gd657 2.326 1_554 S
O681 C666 1.257 . S
O682 Gd657 2.374 1_554 S
O682 C667 1.240 . S
O683 Gd656 2.395 . S
O683 C667 1.240 . S
O684 Gd657 2.447 1_554 S
O684 C668 1.249 . S
O685 Gd657 2.503 1_554 S
O685 C668 1.252 . S
O686 Gd657 2.435 . S
O686 C675 1.256 1_556 S
O687 Gd656 2.327 . S
O687 Gd657 2.718 1_554 S
O687 C675 1.257 . S
H688 C661 0.954 . S
H689 C662 0.931 . S
H690 C664 0.931 . S
H691 C665 0.931 . S
H692 C670 0.930 . S
H693 C671 0.931 . S
H694 C673 0.931 . S
H695 C674 0.931 . S
Gd696 C699 2.818 . S
Gd696 O716 2.377 . S
Gd696 O718 2.448 . S
Gd696 O719 2.506 . S
Gd696 O720 2.435 . S
Gd696 O721 2.717 . S
Gd696 O723 2.395 . S
Gd696 O727 2.327 . S
Gd697 C708 2.818 . S
Gd697 O717 2.395 . S
Gd697 O721 2.327 . S
Gd697 O722 2.377 . S
Gd697 O724 2.448 . S
Gd697 O725 2.506 . S
Gd697 O726 2.435 . S
Gd697 O727 2.717 . S
C698 O716 1.240 . S
C698 O717 1.240 . S
C699 Gd696 2.818 . S
C699 C700 1.510 . S
C699 O718 1.249 . S
C699 O719 1.252 . S
C700 C699 1.510 . S
C700 C701 1.404 . S
C700 C702 1.352 . S
C701 C700 1.404 . S
C701 C705 1.389 . S
C701 H728 0.930 . S
C702 C700 1.352 . S
C702 C704 1.374 . S
C702 H729 0.931 . S
C703 C704 1.359 . S
C703 C705 1.364 . S
C704 C702 1.374 . S
C704 C703 1.359 . S
C704 H730 0.931 . S
C705 C701 1.389 . S
C705 C703 1.364 . S
C705 H731 0.931 . S
C706 O720 1.256 . S
C706 O721 1.257 . S
C707 O722 1.240 . S
C707 O723 1.240 . S
C708 Gd697 2.818 . S
C708 C709 1.510 . S
C708 O724 1.249 . S
C708 O725 1.252 . S
C709 C708 1.510 . S
C709 C710 1.404 . S
C709 C711 1.352 . S
C710 C709 1.404 . S
C710 C714 1.389 . S
C710 H732 0.930 . S
C711 C709 1.352 . S
C711 C713 1.374 . S
C711 H733 0.931 . S
C712 C713 1.359 . S
C712 C714 1.364 . S
C713 C711 1.374 . S
C713 C712 1.359 . S
C713 H734 0.931 . S
C714 C710 1.389 . S
C714 C712 1.364 . S
C714 H735 0.931 . S
C715 O726 1.256 . S
C715 O727 1.257 . S
O716 Gd696 2.377 . S
O716 C698 1.240 . S
O717 Gd697 2.395 . S
O717 C698 1.240 . S
O718 Gd696 2.448 . S
O718 C699 1.249 . S
O719 Gd696 2.506 . S
O719 C699 1.252 . S
O720 Gd696 2.435 . S
O720 C706 1.256 . S
O721 Gd696 2.717 . S
O721 Gd697 2.327 . S
O721 C706 1.257 . S
O722 Gd697 2.377 . S
O722 C707 1.240 . S
O723 Gd696 2.395 . S
O723 C707 1.240 . S
O724 Gd697 2.448 . S
O724 C708 1.249 . S
O725 Gd697 2.506 . S
O725 C708 1.252 . S
O726 Gd697 2.435 . S
O726 C715 1.256 . S
O727 Gd696 2.327 . S
O727 Gd697 2.717 . S
O727 C715 1.257 . S
H728 C701 0.930 . S
H729 C702 0.931 . S
H730 C704 0.931 . S
H731 C705 0.931 . S
H732 C710 0.930 . S
H733 C711 0.931 . S
H734 C713 0.931 . S
H735 C714 0.931 . S
Gd736 C739 2.818 . S
Gd736 O756 2.377 . S
Gd736 O758 2.448 . S
Gd736 O759 2.506 . S
Gd736 O760 2.435 . S
Gd736 O761 2.717 . S
Gd736 O763 2.395 . S
Gd736 O767 2.327 . S
Gd737 C748 2.818 . S
Gd737 O757 2.395 . S
Gd737 O761 2.327 . S
Gd737 O762 2.377 . S
Gd737 O764 2.448 . S
Gd737 O765 2.506 . S
Gd737 O766 2.435 . S
Gd737 O767 2.717 . S
C738 O756 1.280 . S
C738 O757 1.252 . S
C739 Gd736 2.818 . S
C739 C740 1.510 . S
C739 O758 1.249 . S
C739 O759 1.252 . S
C740 C739 1.510 . S
C740 C741 1.404 . S
C740 C742 1.352 1_455 S
C741 C740 1.404 . S
C741 C745 1.386 . S
C741 H768 0.930 . S
C742 C740 1.352 1_655 S
C742 C744 1.374 . S
C742 H769 0.931 . S
C743 C744 1.359 . S
C743 C745 1.367 1_655 S
C744 C742 1.374 . S
C744 C743 1.359 . S
C744 H770 0.931 . S
C745 C741 1.386 . S
C745 C743 1.367 1_455 S
C745 H771 0.924 . S
C746 O760 1.256 . S
C746 O761 1.257 . S
C747 O762 1.240 . S
C747 O763 1.240 . S
C748 Gd737 2.818 . S
C748 C749 1.510 . S
C748 O764 1.249 . S
C748 O765 1.252 . S
C749 C748 1.510 . S
C749 C750 1.404 . S
C749 C751 1.352 . S
C750 C749 1.404 . S
C750 C754 1.389 . S
C750 H772 0.930 . S
C751 C749 1.352 . S
C751 C753 1.374 . S
C751 H773 0.931 . S
C752 C753 1.359 . S
C752 C754 1.364 . S
C753 C751 1.374 . S
C753 C752 1.359 . S
C753 H774 0.931 . S
C754 C750 1.389 . S
C754 C752 1.364 . S
C754 H775 0.931 . S
C755 O766 1.256 . S
C755 O767 1.257 . S
O756 Gd736 2.377 . S
O756 C738 1.280 . S
O757 Gd737 2.395 . S
O757 C738 1.252 . S
O758 Gd736 2.448 . S
O758 C739 1.249 . S
O759 Gd736 2.506 . S
O759 C739 1.252 . S
O760 Gd736 2.435 . S
O760 C746 1.256 . S
O761 Gd736 2.717 . S
O761 Gd737 2.327 . S
O761 C746 1.257 . S
O762 Gd737 2.377 . S
O762 C747 1.240 . S
O763 Gd736 2.395 . S
O763 C747 1.240 . S
O764 Gd737 2.448 . S
O764 C748 1.249 . S
O765 Gd737 2.506 . S
O765 C748 1.252 . S
O766 Gd737 2.435 . S
O766 C755 1.256 . S
O767 Gd736 2.327 . S
O767 Gd737 2.717 . S
O767 C755 1.257 . S
H768 C741 0.930 . S
H769 C742 0.931 . S
H770 C744 0.931 . S
H771 C745 0.924 . S
H772 C750 0.930 . S
H773 C751 0.931 . S
H774 C753 0.931 . S
H775 C754 0.931 . S
Gd776 C779 2.818 . S
Gd776 O796 2.377 . S
Gd776 O798 2.448 . S
Gd776 O799 2.506 . S
Gd776 O800 2.435 . S
Gd776 O801 2.717 . S
Gd776 O803 2.395 . S
Gd776 O807 2.327 . S
Gd777 C788 2.818 . S
Gd777 O797 2.395 . S
Gd777 O801 2.327 . S
Gd777 O802 2.377 . S
Gd777 O804 2.448 . S
Gd777 O805 2.506 . S
Gd777 O806 2.435 . S
Gd777 O807 2.717 . S
C778 O796 1.240 . S
C778 O797 1.240 . S
C779 Gd776 2.818 . S
C779 C780 1.510 . S
C779 O798 1.249 . S
C779 O799 1.252 . S
C780 C779 1.510 . S
C780 C781 1.404 . S
C780 C782 1.352 . S
C781 C780 1.404 . S
C781 C785 1.389 . S
C781 H808 0.930 . S
C782 C780 1.352 . S
C782 C784 1.374 . S
C782 H809 0.931 . S
C783 C784 1.359 . S
C783 C785 1.364 . S
C784 C782 1.374 . S
C784 C783 1.359 . S
C784 H810 0.931 . S
C785 C781 1.389 . S
C785 C783 1.364 . S
C785 H811 0.931 . S
C786 O800 1.256 . S
C786 O801 1.257 . S
C787 O802 1.240 . S
C787 O803 1.240 . S
C788 Gd777 2.818 . S
C788 C789 1.510 . S
C788 O804 1.249 . S
C788 O805 1.252 . S
C789 C788 1.510 . S
C789 C790 1.404 . S
C789 C791 1.352 . S
C790 C789 1.404 . S
C790 C794 1.389 . S
C790 H812 0.930 . S
C791 C789 1.352 . S
C791 C793 1.374 . S
C791 H813 0.931 . S
C792 C793 1.359 . S
C792 C794 1.364 . S
C793 C791 1.374 . S
C793 C792 1.359 . S
C793 H814 0.931 . S
C794 C790 1.389 . S
C794 C792 1.364 . S
C794 H815 0.931 . S
C795 O806 1.256 . S
C795 O807 1.257 . S
O796 Gd776 2.377 . S
O796 C778 1.240 . S
O797 Gd777 2.395 . S
O797 C778 1.240 . S
O798 Gd776 2.448 . S
O798 C779 1.249 . S
O799 Gd776 2.506 . S
O799 C779 1.252 . S
O800 Gd776 2.435 . S
O800 C786 1.256 . S
O801 Gd776 2.717 . S
O801 Gd777 2.327 . S
O801 C786 1.257 . S
O802 Gd777 2.377 . S
O802 C787 1.240 . S
O803 Gd776 2.395 . S
O803 C787 1.240 . S
O804 Gd777 2.448 . S
O804 C788 1.249 . S
O805 Gd777 2.506 . S
O805 C788 1.252 . S
O806 Gd777 2.435 . S
O806 C795 1.256 . S
O807 Gd776 2.327 . S
O807 Gd777 2.717 . S
O807 C795 1.257 . S
H808 C781 0.930 . S
H809 C782 0.931 . S
H810 C784 0.931 . S
H811 C785 0.931 . S
H812 C790 0.930 . S
H813 C791 0.931 . S
H814 C793 0.931 . S
H815 C794 0.931 . S
Gd816 C819 2.818 . S
Gd816 O836 2.377 . S
Gd816 O838 2.448 . S
Gd816 O839 2.506 . S
Gd816 O840 2.435 . S
Gd816 O841 2.717 . S
Gd816 O843 2.395 . S
Gd816 O847 2.327 . S
Gd817 C828 2.818 . S
Gd817 O837 2.395 . S
Gd817 O841 2.327 . S
Gd817 O842 2.377 . S
Gd817 O844 2.448 . S
Gd817 O845 2.506 . S
Gd817 O846 2.435 . S
Gd817 O847 2.717 . S
C818 O836 1.240 . S
C818 O837 1.240 . S
C819 Gd816 2.818 . S
C819 C820 1.510 . S
C819 O838 1.249 . S
C819 O839 1.252 . S
C820 C819 1.510 . S
C820 C821 1.404 . S
C820 C822 1.352 . S
C821 C820 1.404 . S
C821 C825 1.389 . S
C821 H848 0.930 . S
C822 C820 1.352 . S
C822 C824 1.374 . S
C822 H849 0.931 . S
C823 C824 1.359 . S
C823 C825 1.364 . S
C824 C822 1.374 . S
C824 C823 1.359 . S
C824 H850 0.931 . S
C825 C821 1.389 . S
C825 C823 1.364 . S
C825 H851 0.931 . S
C826 O840 1.256 . S
C826 O841 1.257 . S
C827 O842 1.240 . S
C827 O843 1.240 . S
C828 Gd817 2.818 . S
C828 C829 1.510 . S
C828 O844 1.249 . S
C828 O845 1.252 . S
C829 C828 1.510 . S
C829 C830 1.404 . S
C829 C831 1.352 . S
C830 C829 1.404 . S
C830 C834 1.389 . S
C830 H852 0.930 . S
C831 C829 1.352 . S
C831 C833 1.374 . S
C831 H853 0.931 . S
C832 C833 1.359 . S
C832 C834 1.364 . S
C833 C831 1.374 . S
C833 C832 1.359 . S
C833 H854 0.931 . S
C834 C830 1.389 . S
C834 C832 1.364 . S
C834 H855 0.931 . S
C835 O846 1.256 . S
C835 O847 1.257 . S
O836 Gd816 2.377 . S
O836 C818 1.240 . S
O837 Gd817 2.395 . S
O837 C818 1.240 . S
O838 Gd816 2.448 . S
O838 C819 1.249 . S
O839 Gd816 2.506 . S
O839 C819 1.252 . S
O840 Gd816 2.435 . S
O840 C826 1.256 . S
O841 Gd816 2.717 . S
O841 Gd817 2.327 . S
O841 C826 1.257 . S
O842 Gd817 2.377 . S
O842 C827 1.240 . S
O843 Gd816 2.395 . S
O843 C827 1.240 . S
O844 Gd817 2.448 . S
O844 C828 1.249 . S
O845 Gd817 2.506 . S
O845 C828 1.252 . S
O846 Gd817 2.435 . S
O846 C835 1.256 . S
O847 Gd816 2.327 . S
O847 Gd817 2.717 . S
O847 C835 1.257 . S
H848 C821 0.930 . S
H849 C822 0.931 . S
H850 C824 0.931 . S
H851 C825 0.931 . S
H852 C830 0.930 . S
H853 C831 0.931 . S
H854 C833 0.931 . S
H855 C834 0.931 . S
Gd856 C859 2.818 . S
Gd856 O876 2.377 . S
Gd856 O878 2.448 . S
Gd856 O879 2.506 . S
Gd856 O880 2.435 . S
Gd856 O881 2.717 . S
Gd856 O883 2.395 . S
Gd856 O887 2.327 . S
Gd857 C868 2.818 . S
Gd857 O877 2.395 . S
Gd857 O881 2.327 . S
Gd857 O882 2.377 . S
Gd857 O884 2.448 . S
Gd857 O885 2.506 . S
Gd857 O886 2.435 . S
Gd857 O887 2.717 . S
C858 O876 1.240 . S
C858 O877 1.240 . S
C859 Gd856 2.818 . S
C859 C860 1.510 . S
C859 O878 1.249 . S
C859 O879 1.252 . S
C860 C859 1.510 . S
C860 C861 1.404 . S
C860 C862 1.352 . S
C861 C860 1.404 . S
C861 C865 1.389 . S
C861 H888 0.930 . S
C862 C860 1.352 . S
C862 C864 1.374 . S
C862 H889 0.931 . S
C863 C864 1.359 . S
C863 C865 1.364 . S
C864 C862 1.374 . S
C864 C863 1.359 . S
C864 H890 0.931 . S
C865 C861 1.389 . S
C865 C863 1.364 . S
C865 H891 0.931 . S
C866 O880 1.256 . S
C866 O881 1.257 . S
C867 O882 1.240 . S
C867 O883 1.240 . S
C868 Gd857 2.818 . S
C868 C869 1.510 . S
C868 O884 1.249 . S
C868 O885 1.252 . S
C869 C868 1.510 . S
C869 C870 1.404 . S
C869 C871 1.352 . S
C870 C869 1.404 . S
C870 C874 1.389 . S
C870 H892 0.930 . S
C871 C869 1.352 . S
C871 C873 1.374 . S
C871 H893 0.931 . S
C872 C873 1.359 . S
C872 C874 1.364 . S
C873 C871 1.374 . S
C873 C872 1.359 . S
C873 H894 0.931 . S
C874 C870 1.389 . S
C874 C872 1.364 . S
C874 H895 0.931 . S
C875 O886 1.256 . S
C875 O887 1.257 . S
O876 Gd856 2.377 . S
O876 C858 1.240 . S
O877 Gd857 2.395 . S
O877 C858 1.240 . S
O878 Gd856 2.448 . S
O878 C859 1.249 . S
O879 Gd856 2.506 . S
O879 C859 1.252 . S
O880 Gd856 2.435 . S
O880 C866 1.256 . S
O881 Gd856 2.717 . S
O881 Gd857 2.327 . S
O881 C866 1.257 . S
O882 Gd857 2.377 . S
O882 C867 1.240 . S
O883 Gd856 2.395 . S
O883 C867 1.240 . S
O884 Gd857 2.448 . S
O884 C868 1.249 . S
O885 Gd857 2.506 . S
O885 C868 1.252 . S
O886 Gd857 2.435 . S
O886 C875 1.256 . S
O887 Gd856 2.327 . S
O887 Gd857 2.717 . S
O887 C875 1.257 . S
H888 C861 0.930 . S
H889 C862 0.931 . S
H890 C864 0.931 . S
H891 C865 0.931 . S
H892 C870 0.930 . S
H893 C871 0.931 . S
H894 C873 0.931 . S
H895 C874 0.931 . S
Gd896 C899 2.818 . S
Gd896 O916 2.377 . S
Gd896 O918 2.448 . S
Gd896 O919 2.506 . S
Gd896 O920 2.435 . S
Gd896 O921 2.717 . S
Gd896 O923 2.395 . S
Gd896 O927 2.327 . S
Gd897 C908 2.818 . S
Gd897 O917 2.395 . S
Gd897 O921 2.327 . S
Gd897 O922 2.377 . S
Gd897 O924 2.448 . S
Gd897 O925 2.506 . S
Gd897 O926 2.435 . S
Gd897 O927 2.717 . S
C898 O916 1.240 . S
C898 O917 1.240 . S
C899 Gd896 2.818 . S
C899 C900 1.510 . S
C899 O918 1.249 . S
C899 O919 1.252 . S
C900 C899 1.510 . S
C900 C901 1.404 . S
C900 C902 1.352 . S
C901 C900 1.404 . S
C901 C905 1.389 . S
C901 H928 0.930 . S
C902 C900 1.352 . S
C902 C904 1.374 . S
C902 H929 0.931 . S
C903 C904 1.359 . S
C903 C905 1.364 . S
C904 C902 1.374 . S
C904 C903 1.359 . S
C904 H930 0.931 . S
C905 C901 1.389 . S
C905 C903 1.364 . S
C905 H931 0.931 . S
C906 O920 1.256 . S
C906 O921 1.257 . S
C907 O922 1.240 . S
C907 O923 1.240 . S
C908 Gd897 2.818 . S
C908 C909 1.510 . S
C908 O924 1.249 . S
C908 O925 1.252 . S
C909 C908 1.510 . S
C909 C910 1.404 . S
C909 C911 1.352 . S
C910 C909 1.404 . S
C910 C914 1.389 . S
C910 H932 0.930 . S
C911 C909 1.352 . S
C911 C913 1.374 . S
C911 H933 0.931 . S
C912 C913 1.359 . S
C912 C914 1.364 . S
C913 C911 1.374 . S
C913 C912 1.359 . S
C913 H934 0.931 . S
C914 C910 1.389 . S
C914 C912 1.364 . S
C914 H935 0.931 . S
C915 O926 1.256 . S
C915 O927 1.257 . S
O916 Gd896 2.377 . S
O916 C898 1.240 . S
O917 Gd897 2.395 . S
O917 C898 1.240 . S
O918 Gd896 2.448 . S
O918 C899 1.249 . S
O919 Gd896 2.506 . S
O919 C899 1.252 . S
O920 Gd896 2.435 . S
O920 C906 1.256 . S
O921 Gd896 2.717 . S
O921 Gd897 2.327 . S
O921 C906 1.257 . S
O922 Gd897 2.377 . S
O922 C907 1.240 . S
O923 Gd896 2.395 . S
O923 C907 1.240 . S
O924 Gd897 2.448 . S
O924 C908 1.249 . S
O925 Gd897 2.506 . S
O925 C908 1.252 . S
O926 Gd897 2.435 . S
O926 C915 1.256 . S
O927 Gd896 2.327 . S
O927 Gd897 2.717 . S
O927 C915 1.257 . S
H928 C901 0.930 . S
H929 C902 0.931 . S
H930 C904 0.931 . S
H931 C905 0.931 . S
H932 C910 0.930 . S
H933 C911 0.931 . S
H934 C913 0.931 . S
H935 C914 0.931 . S
Gd936 C939 2.818 1_554 S
Gd936 O956 2.377 1_554 S
Gd936 O958 2.448 1_554 S
Gd936 O959 2.506 . S
Gd936 O960 2.435 1_554 S
Gd936 O961 2.717 1_554 S
Gd936 O963 2.395 . S
Gd936 O967 2.327 . S
Gd937 C948 2.818 1_455 S
Gd937 O957 2.395 . S
Gd937 O961 2.327 1_554 S
Gd937 O962 2.377 . S
Gd937 O964 2.448 1_455 S
Gd937 O965 2.506 1_455 S
Gd937 O966 2.435 . S
Gd937 O967 2.717 . S
C938 O956 1.240 1_554 S
C938 O957 1.240 . S
C939 Gd936 2.818 1_556 S
C939 C940 1.510 . S
C939 O958 1.249 . S
C939 O959 1.252 1_556 S
C940 C939 1.510 . S
C940 C941 1.404 . S
C940 C942 1.352 1_556 S
C941 C940 1.404 . S
C941 C945 1.389 . S
C941 H968 0.930 . S
C942 C940 1.352 1_554 S
C942 C944 1.374 . S
C942 H969 0.931 . S
C943 C944 1.359 1_556 S
C943 C945 1.364 . S
C944 C942 1.374 . S
C944 C943 1.359 1_554 S
C944 H970 0.931 . S
C945 C941 1.389 . S
C945 C943 1.364 . S
C945 H971 0.931 . S
C946 O960 1.256 . S
C946 O961 1.257 . S
C947 O962 1.240 . S
C947 O963 1.240 . S
C948 Gd937 2.818 1_655 S
C948 C949 1.510 . S
C948 O964 1.249 . S
C948 O965 1.252 . S
C949 C948 1.510 . S
C949 C950 1.404 . S
C949 C951 1.352 . S
C950 C949 1.404 . S
C950 C954 1.389 . S
C950 H972 0.930 . S
C951 C949 1.352 . S
C951 C953 1.374 . S
C951 H973 0.931 . S
C952 C953 1.359 . S
C952 C954 1.364 . S
C953 C951 1.374 . S
C953 C952 1.359 . S
C953 H974 0.931 . S
C954 C950 1.389 . S
C954 C952 1.364 . S
C954 H975 0.931 . S
C955 O966 1.256 . S
C955 O967 1.257 . S
O956 Gd936 2.377 1_556 S
O956 C938 1.240 1_556 S
O957 Gd937 2.395 . S
O957 C938 1.240 . S
O958 Gd936 2.448 1_556 S
O958 C939 1.249 . S
O959 Gd936 2.506 . S
O959 C939 1.252 1_554 S
O960 Gd936 2.435 1_556 S
O960 C946 1.256 . S
O961 Gd936 2.717 1_556 S
O961 Gd937 2.327 1_556 S
O961 C946 1.257 . S
O962 Gd937 2.377 . S
O962 C947 1.240 . S
O963 Gd936 2.395 . S
O963 C947 1.240 . S
O964 Gd937 2.448 1_655 S
O964 C948 1.249 . S
O965 Gd937 2.506 1_655 S
O965 C948 1.252 . S
O966 Gd937 2.435 . S
O966 C955 1.256 . S
O967 Gd936 2.327 . S
O967 Gd937 2.717 . S
O967 C955 1.257 . S
H968 C941 0.930 . S
H969 C942 0.931 . S
H970 C944 0.931 . S
H971 C945 0.931 . S
H972 C950 0.930 . S
H973 C951 0.931 . S
H974 C953 0.931 . S
H975 C954 0.931 . S
H976 C994 1.015 . S
H977 C996 0.951 1_655 S
H978 C998 0.950 . S
H979 C999 0.950 . S
H980 C1001 0.950 . S
H981 C1004 0.950 . S
H982 C1005 0.950 1_455 S
H983 C1007 0.929 1_554 S
H984 C1008 0.950 . S
H985 C1009 0.944 1_554 S
H986 C1011 0.951 . S
H987 C1013 1.006 . S
H988 C1014 0.950 . S
H989 C1016 0.950 . S
H990 C1019 0.950 . S
H991 C1020 0.950 . S
H992 C1022 0.950 . S
H993 C1023 0.950 . S
C994 H976 1.015 . S
C994 C995 1.323 1_655 S
C994 C996 1.370 1_655 S
C995 C994 1.323 1_455 S
C995 C999 1.385 . S
C996 H977 0.951 1_455 S
C996 C994 1.370 1_455 S
C996 C997 1.366 . S
C997 C996 1.366 . S
C997 C998 1.414 . S
C997 C1000 1.499 . S
C998 H978 0.950 . S
C998 C997 1.414 . S
C998 C999 1.374 . S
C999 H979 0.950 . S
C999 C995 1.385 . S
C999 C998 1.374 . S
C1000 C997 1.499 . S
C1000 C1001 1.373 . S
C1000 C1002 1.389 . S
C1001 H980 0.950 . S
C1001 C1000 1.373 . S
C1001 C1017 1.377 . S
C1002 C1000 1.389 . S
C1002 C1003 1.479 1_455 S
C1002 C1016 1.377 . S
C1003 C1002 1.479 1_655 S
C1003 C1004 1.388 1_655 S
C1003 C1008 1.414 . S
C1004 H981 0.950 . S
C1004 C1003 1.388 1_455 S
C1004 C1005 1.334 1_456 S
C1005 H982 0.950 1_655 S
C1005 C1004 1.334 1_654 S
C1005 C1006 1.287 . S
C1006 C1005 1.287 . S
C1006 C1007 1.514 1_554 S
C1006 H1025 0.913 . S
C1007 H983 0.929 1_556 S
C1007 C1006 1.514 1_556 S
C1007 C1008 1.442 . S
C1008 H984 0.950 . S
C1008 C1003 1.414 . S
C1008 C1007 1.442 . S
C1009 H985 0.944 1_556 S
C1009 C1010 1.366 . S
C1009 C1011 1.388 . S
C1010 C1009 1.366 . S
C1010 C1014 1.385 . S
C1011 H986 0.951 . S
C1011 C1009 1.388 . S
C1011 C1012 1.366 . S
C1012 C1011 1.366 . S
C1012 C1013 1.414 . S
C1012 C1015 1.499 . S
C1013 H987 1.006 . S
C1013 C1012 1.414 . S
C1013 C1014 1.374 . S
C1014 H988 0.950 . S
C1014 C1010 1.385 . S
C1014 C1013 1.374 . S
C1015 C1012 1.499 . S
C1015 C1016 1.373 . S
C1015 C1017 1.389 . S
C1016 H989 0.950 . S
C1016 C1002 1.377 . S
C1016 C1015 1.373 . S
C1017 C1001 1.377 . S
C1017 C1015 1.389 . S
C1017 C1018 1.524 . S
C1018 C1017 1.524 . S
C1018 C1019 1.397 . S
C1018 C1023 1.363 . S
C1019 H990 0.950 . S
C1019 C1018 1.397 . S
C1019 C1020 1.334 . S
C1020 H991 0.950 . S
C1020 C1019 1.334 . S
C1020 C1021 1.287 . S
C1021 C1020 1.287 . S
C1021 C1022 1.524 . S
C1021 H1024 0.999 . S
C1022 H992 0.950 . S
C1022 C1021 1.524 . S
C1022 C1023 1.415 . S
C1023 H993 0.950 . S
C1023 C1018 1.363 . S
C1023 C1022 1.415 . S
H1024 C1021 0.999 . S
H1025 C1006 0.913 . S
H1026 C1044 0.951 . S
H1027 C1046 0.951 . S
H1028 C1048 0.950 . S
H1029 C1049 0.950 . S
H1030 C1051 0.950 . S
H1031 C1054 0.950 . S
H1032 C1055 0.950 . S
H1033 C1057 0.950 . S
H1034 C1058 0.950 . S
H1035 C1059 0.951 . S
H1036 C1061 0.951 . S
H1037 C1063 0.950 . S
H1038 C1064 0.950 . S
H1039 C1066 0.950 . S
H1040 C1069 0.950 . S
H1041 C1070 0.950 . S
H1042 C1072 0.950 . S
H1043 C1073 0.950 . S
C1044 H1026 0.951 . S
C1044 C1045 1.366 . S
C1044 C1046 1.388 . S
C1045 C1044 1.366 . S
C1045 C1049 1.385 . S
C1046 H1027 0.951 . S
C1046 C1044 1.388 . S
C1046 C1047 1.366 . S
C1047 C1046 1.366 . S
C1047 C1048 1.414 . S
C1047 C1050 1.499 . S
C1048 H1028 0.950 . S
C1048 C1047 1.414 . S
C1048 C1049 1.374 . S
C1049 H1029 0.950 . S
C1049 C1045 1.385 . S
C1049 C1048 1.374 . S
C1050 C1047 1.499 . S
C1050 C1051 1.373 . S
C1050 C1052 1.389 . S
C1051 H1030 0.950 . S
C1051 C1050 1.373 . S
C1051 C1067 1.377 . S
C1052 C1050 1.389 . S
C1052 C1053 1.524 . S
C1052 C1066 1.377 . S
C1053 C1052 1.524 . S
C1053 C1054 1.397 . S
C1053 C1058 1.363 . S
C1054 H1031 0.950 . S
C1054 C1053 1.397 . S
C1054 C1055 1.334 . S
C1055 H1032 0.950 . S
C1055 C1054 1.334 . S
C1055 C1056 1.287 . S
C1056 C1055 1.287 . S
C1056 C1057 1.524 . S
C1056 H1075 0.913 . S
C1057 H1033 0.950 . S
C1057 C1056 1.524 . S
C1057 C1058 1.415 . S
C1058 H1034 0.950 . S
C1058 C1053 1.363 . S
C1058 C1057 1.415 . S
C1059 H1035 0.951 . S
C1059 C1060 1.366 . S
C1059 C1061 1.388 . S
C1060 C1059 1.366 . S
C1060 C1064 1.385 . S
C1061 H1036 0.951 . S
C1061 C1059 1.388 . S
C1061 C1062 1.366 . S
C1062 C1061 1.366 . S
C1062 C1063 1.414 . S
C1062 C1065 1.499 . S
C1063 H1037 0.950 . S
C1063 C1062 1.414 . S
C1063 C1064 1.374 . S
C1064 H1038 0.950 . S
C1064 C1060 1.385 . S
C1064 C1063 1.374 . S
C1065 C1062 1.499 . S
C1065 C1066 1.373 . S
C1065 C1067 1.389 . S
C1066 H1039 0.950 . S
C1066 C1052 1.377 . S
C1066 C1065 1.373 . S
C1067 C1051 1.377 . S
C1067 C1065 1.389 . S
C1067 C1068 1.524 . S
C1068 C1067 1.524 . S
C1068 C1069 1.397 . S
C1068 C1073 1.363 . S
C1069 H1040 0.950 . S
C1069 C1068 1.397 . S
C1069 C1070 1.334 . S
C1070 H1041 0.950 . S
C1070 C1069 1.334 . S
C1070 C1071 1.287 . S
C1071 C1070 1.287 . S
C1071 C1072 1.524 . S
C1071 H1074 0.999 . S
C1072 H1042 0.950 . S
C1072 C1071 1.524 . S
C1072 C1073 1.415 . S
C1073 H1043 0.950 . S
C1073 C1068 1.363 . S
C1073 C1072 1.415 . S
H1074 C1071 0.999 . S
H1075 C1056 0.913 . S
H1076 C1094 0.951 . S
H1077 C1096 0.951 . S
H1078 C1098 0.950 . S
H1079 C1099 0.950 . S
H1080 C1101 0.950 . S
H1081 C1104 0.950 . S
H1082 C1105 0.950 . S
H1083 C1107 0.950 . S
H1084 C1108 0.950 . S
H1085 C1109 0.951 . S
H1086 C1111 0.951 . S
H1087 C1113 0.950 . S
H1088 C1114 0.950 . S
H1089 C1116 0.950 . S
H1090 C1119 0.950 . S
H1091 C1120 0.950 . S
H1092 C1122 0.950 . S
H1093 C1123 0.950 . S
C1094 H1076 0.951 . S
C1094 C1095 1.366 . S
C1094 C1096 1.388 . S
C1095 C1094 1.366 . S
C1095 C1099 1.385 . S
C1096 H1077 0.951 . S
C1096 C1094 1.388 . S
C1096 C1097 1.366 . S
C1097 C1096 1.366 . S
C1097 C1098 1.414 . S
C1097 C1100 1.499 . S
C1098 H1078 0.950 . S
C1098 C1097 1.414 . S
C1098 C1099 1.374 . S
C1099 H1079 0.950 . S
C1099 C1095 1.385 . S
C1099 C1098 1.374 . S
C1100 C1097 1.499 . S
C1100 C1101 1.373 . S
C1100 C1102 1.389 . S
C1101 H1080 0.950 . S
C1101 C1100 1.373 . S
C1101 C1117 1.377 . S
C1102 C1100 1.389 . S
C1102 C1103 1.524 . S
C1102 C1116 1.377 . S
C1103 C1102 1.524 . S
C1103 C1104 1.397 . S
C1103 C1108 1.363 . S
C1104 H1081 0.950 . S
C1104 C1103 1.397 . S
C1104 C1105 1.334 . S
C1105 H1082 0.950 . S
C1105 C1104 1.334 . S
C1105 C1106 1.287 . S
C1106 C1105 1.287 . S
C1106 C1107 1.524 . S
C1106 H1125 0.913 . S
C1107 H1083 0.950 . S
C1107 C1106 1.524 . S
C1107 C1108 1.415 . S
C1108 H1084 0.950 . S
C1108 C1103 1.363 . S
C1108 C1107 1.415 . S
C1109 H1085 0.951 . S
C1109 C1110 1.366 . S
C1109 C1111 1.388 . S
C1110 C1109 1.366 . S
C1110 C1114 1.385 . S
C1111 H1086 0.951 . S
C1111 C1109 1.388 . S
C1111 C1112 1.366 . S
C1112 C1111 1.366 . S
C1112 C1113 1.414 . S
C1112 C1115 1.499 . S
C1113 H1087 0.950 . S
C1113 C1112 1.414 . S
C1113 C1114 1.374 . S
C1114 H1088 0.950 . S
C1114 C1110 1.385 . S
C1114 C1113 1.374 . S
C1115 C1112 1.499 . S
C1115 C1116 1.373 . S
C1115 C1117 1.389 . S
C1116 H1089 0.950 . S
C1116 C1102 1.377 . S
C1116 C1115 1.373 . S
C1117 C1101 1.377 . S
C1117 C1115 1.389 . S
C1117 C1118 1.524 . S
C1118 C1117 1.524 . S
C1118 C1119 1.397 . S
C1118 C1123 1.363 . S
C1119 H1090 0.950 . S
C1119 C1118 1.397 . S
C1119 C1120 1.334 . S
C1120 H1091 0.950 . S
C1120 C1119 1.334 . S
C1120 C1121 1.287 . S
C1121 C1120 1.287 . S
C1121 C1122 1.524 . S
C1121 H1124 0.999 . S
C1122 H1092 0.950 . S
C1122 C1121 1.524 . S
C1122 C1123 1.415 . S
C1123 H1093 0.950 . S
C1123 C1118 1.363 . S
C1123 C1122 1.415 . S
H1124 C1121 0.999 . S
H1125 C1106 0.913 . S
H1126 C1144 0.951 . S
H1127 C1146 0.951 . S
H1128 C1148 0.950 . S
H1129 C1149 0.950 . S
H1130 C1151 0.950 . S
H1131 C1154 0.950 . S
H1132 C1155 0.950 . S
H1133 C1157 0.950 . S
H1134 C1158 0.950 . S
H1135 C1159 0.951 . S
H1136 C1161 0.951 . S
H1137 C1163 0.950 . S
H1138 C1164 0.950 . S
H1139 C1166 0.950 . S
H1140 C1169 0.950 . S
H1141 C1170 0.950 . S
H1142 C1172 0.950 . S
H1143 C1173 0.950 . S
C1144 H1126 0.951 . S
C1144 C1145 1.366 . S
C1144 C1146 1.388 . S
C1145 C1144 1.366 . S
C1145 C1149 1.385 . S
C1146 H1127 0.951 . S
C1146 C1144 1.388 . S
C1146 C1147 1.366 . S
C1147 C1146 1.366 . S
C1147 C1148 1.414 . S
C1147 C1150 1.499 . S
C1148 H1128 0.950 . S
C1148 C1147 1.414 . S
C1148 C1149 1.374 . S
C1149 H1129 0.950 . S
C1149 C1145 1.385 . S
C1149 C1148 1.374 . S
C1150 C1147 1.499 . S
C1150 C1151 1.373 . S
C1150 C1152 1.389 . S
C1151 H1130 0.950 . S
C1151 C1150 1.373 . S
C1151 C1167 1.377 . S
C1152 C1150 1.389 . S
C1152 C1153 1.524 . S
C1152 C1166 1.377 . S
C1153 C1152 1.524 . S
C1153 C1154 1.397 . S
C1153 C1158 1.363 . S
C1154 H1131 0.950 . S
C1154 C1153 1.397 . S
C1154 C1155 1.334 . S
C1155 H1132 0.950 . S
C1155 C1154 1.334 . S
C1155 C1156 1.287 . S
C1156 C1155 1.287 . S
C1156 C1157 1.524 . S
C1156 H1175 0.913 . S
C1157 H1133 0.950 . S
C1157 C1156 1.524 . S
C1157 C1158 1.415 . S
C1158 H1134 0.950 . S
C1158 C1153 1.363 . S
C1158 C1157 1.415 . S
C1159 H1135 0.951 . S
C1159 C1160 1.366 . S
C1159 C1161 1.388 . S
C1160 C1159 1.366 . S
C1160 C1164 1.385 . S
C1161 H1136 0.951 . S
C1161 C1159 1.388 . S
C1161 C1162 1.366 . S
C1162 C1161 1.366 . S
C1162 C1163 1.414 . S
C1162 C1165 1.499 . S
C1163 H1137 0.950 . S
C1163 C1162 1.414 . S
C1163 C1164 1.374 . S
C1164 H1138 0.950 . S
C1164 C1160 1.385 . S
C1164 C1163 1.374 . S
C1165 C1162 1.499 . S
C1165 C1166 1.373 . S
C1165 C1167 1.389 . S
C1166 H1139 0.950 . S
C1166 C1152 1.377 . S
C1166 C1165 1.373 . S
C1167 C1151 1.377 . S
C1167 C1165 1.389 . S
C1167 C1168 1.524 . S
C1168 C1167 1.524 . S
C1168 C1169 1.397 . S
C1168 C1173 1.363 . S
C1169 H1140 0.950 . S
C1169 C1168 1.397 . S
C1169 C1170 1.334 . S
C1170 H1141 0.950 . S
C1170 C1169 1.334 . S
C1170 C1171 1.287 . S
C1171 C1170 1.287 . S
C1171 C1172 1.524 . S
C1171 H1174 0.999 . S
C1172 H1142 0.950 . S
C1172 C1171 1.524 . S
C1172 C1173 1.415 . S
C1173 H1143 0.950 . S
C1173 C1168 1.363 . S
C1173 C1172 1.415 . S
H1174 C1171 0.999 . S
H1175 C1156 0.913 . S
H1176 C1194 0.951 1_655 S
H1177 C1196 0.951 . S
H1178 C1198 0.950 . S
H1179 C1199 0.950 . S
H1180 C1201 0.950 . S
H1181 C1204 0.950 . S
H1182 C1205 0.950 . S
H1183 C1207 0.950 . S
H1184 C1208 0.950 . S
H1185 C1209 0.951 . S
H1186 C1211 0.951 . S
H1187 C1213 0.950 . S
H1188 C1214 0.950 . S
H1189 C1216 0.950 . S
H1190 C1219 0.950 . S
H1191 C1220 0.950 1_655 S
H1192 C1222 0.950 . S
H1193 C1223 0.950 . S
C1194 H1176 0.951 1_455 S
C1194 C1195 1.366 . S
C1194 C1196 1.388 . S
C1195 C1194 1.366 . S
C1195 C1199 1.385 . S
C1196 H1177 0.951 . S
C1196 C1194 1.388 . S
C1196 C1197 1.366 . S
C1197 C1196 1.366 . S
C1197 C1198 1.414 . S
C1197 C1200 1.499 . S
C1198 H1178 0.950 . S
C1198 C1197 1.414 . S
C1198 C1199 1.374 . S
C1199 H1179 0.950 . S
C1199 C1195 1.385 . S
C1199 C1198 1.374 . S
C1200 C1197 1.499 . S
C1200 C1201 1.373 . S
C1200 C1202 1.389 . S
C1201 H1180 0.950 . S
C1201 C1200 1.373 . S
C1201 C1217 1.377 . S
C1202 C1200 1.389 . S
C1202 C1203 1.524 . S
C1202 C1216 1.377 . S
C1203 C1202 1.524 . S
C1203 C1204 1.397 . S
C1203 C1208 1.363 . S
C1204 H1181 0.950 . S
C1204 C1203 1.397 . S
C1204 C1205 1.334 . S
C1205 H1182 0.950 . S
C1205 C1204 1.334 . S
C1205 C1206 1.287 . S
C1206 C1205 1.287 . S
C1206 C1207 1.524 . S
C1206 H1225 0.913 . S
C1207 H1183 0.950 . S
C1207 C1206 1.524 . S
C1207 C1208 1.415 . S
C1208 H1184 0.950 . S
C1208 C1203 1.363 . S
C1208 C1207 1.415 . S
C1209 H1185 0.951 . S
C1209 C1210 1.366 . S
C1209 C1211 1.388 . S
C1210 C1209 1.366 . S
C1210 C1214 1.385 . S
C1211 H1186 0.951 . S
C1211 C1209 1.388 . S
C1211 C1212 1.366 . S
C1212 C1211 1.366 . S
C1212 C1213 1.414 . S
C1212 C1215 1.499 . S
C1213 H1187 0.950 . S
C1213 C1212 1.414 . S
C1213 C1214 1.374 . S
C1214 H1188 0.950 . S
C1214 C1210 1.385 . S
C1214 C1213 1.374 . S
C1215 C1212 1.499 . S
C1215 C1216 1.373 . S
C1215 C1217 1.389 . S
C1216 H1189 0.950 . S
C1216 C1202 1.377 . S
C1216 C1215 1.373 . S
C1217 C1201 1.377 . S
C1217 C1215 1.389 . S
C1217 C1218 1.524 . S
C1218 C1217 1.524 . S
C1218 C1219 1.397 . S
C1218 C1223 1.363 . S
C1219 H1190 0.950 . S
C1219 C1218 1.397 . S
C1219 C1220 1.334 . S
C1220 H1191 0.950 1_455 S
C1220 C1219 1.334 . S
C1220 C1221 1.287 . S
C1221 C1220 1.287 . S
C1221 C1222 1.524 . S
C1221 H1224 0.999 . S
C1222 H1192 0.950 . S
C1222 C1221 1.524 . S
C1222 C1223 1.415 . S
C1223 H1193 0.950 . S
C1223 C1218 1.363 . S
C1223 C1222 1.415 . S
H1224 C1221 0.999 . S
H1225 C1206 0.913 . S
H1226 C1244 0.951 . S
H1227 C1246 0.951 . S
H1228 C1248 0.950 . S
H1229 C1249 0.950 . S
H1230 C1251 0.950 . S
H1231 C1254 0.950 . S
H1232 C1255 0.950 . S
H1233 C1257 0.950 . S
H1234 C1258 0.950 . S
H1235 C1259 0.951 . S
H1236 C1261 0.951 . S
H1237 C1263 0.950 . S
H1238 C1264 0.950 . S
H1239 C1266 0.950 . S
H1240 C1269 0.950 . S
H1241 C1270 0.950 . S
H1242 C1272 0.950 . S
H1243 C1273 0.950 . S
C1244 H1226 0.951 . S
C1244 C1245 1.366 . S
C1244 C1246 1.388 . S
C1245 C1244 1.366 . S
C1245 C1249 1.385 . S
C1246 H1227 0.951 . S
C1246 C1244 1.388 . S
C1246 C1247 1.366 . S
C1247 C1246 1.366 . S
C1247 C1248 1.414 . S
C1247 C1250 1.499 . S
C1248 H1228 0.950 . S
C1248 C1247 1.414 . S
C1248 C1249 1.374 . S
C1249 H1229 0.950 . S
C1249 C1245 1.385 . S
C1249 C1248 1.374 . S
C1250 C1247 1.499 . S
C1250 C1251 1.373 . S
C1250 C1252 1.389 . S
C1251 H1230 0.950 . S
C1251 C1250 1.373 . S
C1251 C1267 1.377 . S
C1252 C1250 1.389 . S
C1252 C1253 1.524 . S
C1252 C1266 1.377 . S
C1253 C1252 1.524 . S
C1253 C1254 1.397 . S
C1253 C1258 1.363 . S
C1254 H1231 0.950 . S
C1254 C1253 1.397 . S
C1254 C1255 1.334 . S
C1255 H1232 0.950 . S
C1255 C1254 1.334 . S
C1255 C1256 1.287 . S
C1256 C1255 1.287 . S
C1256 C1257 1.524 . S
C1256 H1275 0.913 . S
C1257 H1233 0.950 . S
C1257 C1256 1.524 . S
C1257 C1258 1.415 . S
C1258 H1234 0.950 . S
C1258 C1253 1.363 . S
C1258 C1257 1.415 . S
C1259 H1235 0.951 . S
C1259 C1260 1.366 . S
C1259 C1261 1.388 . S
C1260 C1259 1.366 . S
C1260 C1264 1.385 . S
C1261 H1236 0.951 . S
C1261 C1259 1.388 . S
C1261 C1262 1.366 . S
C1262 C1261 1.366 . S
C1262 C1263 1.414 . S
C1262 C1265 1.499 . S
C1263 H1237 0.950 . S
C1263 C1262 1.414 . S
C1263 C1264 1.374 . S
C1264 H1238 0.950 . S
C1264 C1260 1.385 . S
C1264 C1263 1.374 . S
C1265 C1262 1.499 . S
C1265 C1266 1.373 . S
C1265 C1267 1.389 . S
C1266 H1239 0.950 . S
C1266 C1252 1.377 . S
C1266 C1265 1.373 . S
C1267 C1251 1.377 . S
C1267 C1265 1.389 . S
C1267 C1268 1.524 . S
C1268 C1267 1.524 . S
C1268 C1269 1.397 . S
C1268 C1273 1.363 . S
C1269 H1240 0.950 . S
C1269 C1268 1.397 . S
C1269 C1270 1.334 . S
C1270 H1241 0.950 . S
C1270 C1269 1.334 . S
C1270 C1271 1.287 . S
C1271 C1270 1.287 . S
C1271 C1272 1.524 . S
C1271 H1274 0.999 . S
C1272 H1242 0.950 . S
C1272 C1271 1.524 . S
C1272 C1273 1.415 . S
C1273 H1243 0.950 . S
C1273 C1268 1.363 . S
C1273 C1272 1.415 . S
H1274 C1271 0.999 . S
H1275 C1256 0.913 . S
H1276 C1294 0.951 . S
H1277 C1296 0.951 . S
H1278 C1298 0.950 . S
H1279 C1299 0.950 . S
H1280 C1301 0.950 . S
H1281 C1304 0.950 . S
H1282 C1305 0.950 . S
H1283 C1307 0.950 . S
H1284 C1308 0.950 . S
H1285 C1309 0.951 . S
H1286 C1311 0.951 . S
H1287 C1313 0.950 . S
H1288 C1314 0.950 . S
H1289 C1316 0.950 . S
H1290 C1319 0.950 . S
H1291 C1320 0.950 . S
H1292 C1322 0.950 . S
H1293 C1323 0.950 . S
C1294 H1276 0.951 . S
C1294 C1295 1.366 . S
C1294 C1296 1.388 . S
C1295 C1294 1.366 . S
C1295 C1299 1.385 . S
C1296 H1277 0.951 . S
C1296 C1294 1.388 . S
C1296 C1297 1.366 . S
C1297 C1296 1.366 . S
C1297 C1298 1.414 . S
C1297 C1300 1.499 . S
C1298 H1278 0.950 . S
C1298 C1297 1.414 . S
C1298 C1299 1.374 . S
C1299 H1279 0.950 . S
C1299 C1295 1.385 . S
C1299 C1298 1.374 . S
C1300 C1297 1.499 . S
C1300 C1301 1.373 . S
C1300 C1302 1.389 . S
C1301 H1280 0.950 . S
C1301 C1300 1.373 . S
C1301 C1317 1.377 . S
C1302 C1300 1.389 . S
C1302 C1303 1.524 . S
C1302 C1316 1.377 . S
C1303 C1302 1.524 . S
C1303 C1304 1.397 . S
C1303 C1308 1.363 . S
C1304 H1281 0.950 . S
C1304 C1303 1.397 . S
C1304 C1305 1.334 . S
C1305 H1282 0.950 . S
C1305 C1304 1.334 . S
C1305 C1306 1.287 . S
C1306 C1305 1.287 . S
C1306 C1307 1.524 . S
C1306 H1325 0.913 . S
C1307 H1283 0.950 . S
C1307 C1306 1.524 . S
C1307 C1308 1.415 . S
C1308 H1284 0.950 . S
C1308 C1303 1.363 . S
C1308 C1307 1.415 . S
C1309 H1285 0.951 . S
C1309 C1310 1.366 . S
C1309 C1311 1.388 . S
C1310 C1309 1.366 . S
C1310 C1314 1.385 . S
C1311 H1286 0.951 . S
C1311 C1309 1.388 . S
C1311 C1312 1.366 . S
C1312 C1311 1.366 . S
C1312 C1313 1.414 . S
C1312 C1315 1.499 . S
C1313 H1287 0.950 . S
C1313 C1312 1.414 . S
C1313 C1314 1.374 . S
C1314 H1288 0.950 . S
C1314 C1310 1.385 . S
C1314 C1313 1.374 . S
C1315 C1312 1.499 . S
C1315 C1316 1.373 . S
C1315 C1317 1.389 . S
C1316 H1289 0.950 . S
C1316 C1302 1.377 . S
C1316 C1315 1.373 . S
C1317 C1301 1.377 . S
C1317 C1315 1.389 . S
C1317 C1318 1.524 . S
C1318 C1317 1.524 . S
C1318 C1319 1.397 . S
C1318 C1323 1.363 . S
C1319 H1290 0.950 . S
C1319 C1318 1.397 . S
C1319 C1320 1.334 . S
C1320 H1291 0.950 . S
C1320 C1319 1.334 . S
C1320 C1321 1.287 . S
C1321 C1320 1.287 . S
C1321 C1322 1.524 . S
C1321 H1324 0.999 . S
C1322 H1292 0.950 . S
C1322 C1321 1.524 . S
C1322 C1323 1.415 . S
C1323 H1293 0.950 . S
C1323 C1318 1.363 . S
C1323 C1322 1.415 . S
H1324 C1321 0.999 . S
H1325 C1306 0.913 . S
H1326 C1344 0.951 . S
H1327 C1346 0.951 . S
H1328 C1348 0.950 . S
H1329 C1349 0.950 . S
H1330 C1351 0.950 . S
H1331 C1354 0.950 . S
H1332 C1355 0.950 . S
H1333 C1357 0.950 . S
H1334 C1358 0.950 . S
H1335 C1359 0.951 . S
H1336 C1361 0.951 . S
H1337 C1363 0.950 . S
H1338 C1364 0.950 . S
H1339 C1366 0.950 . S
H1340 C1369 0.950 . S
H1341 C1370 0.950 . S
H1342 C1372 0.950 . S
H1343 C1373 0.950 . S
C1344 H1326 0.951 . S
C1344 C1345 1.366 . S
C1344 C1346 1.388 . S
C1345 C1344 1.366 . S
C1345 C1349 1.385 . S
C1346 H1327 0.951 . S
C1346 C1344 1.388 . S
C1346 C1347 1.366 . S
C1347 C1346 1.366 . S
C1347 C1348 1.414 . S
C1347 C1350 1.499 . S
C1348 H1328 0.950 . S
C1348 C1347 1.414 . S
C1348 C1349 1.374 . S
C1349 H1329 0.950 . S
C1349 C1345 1.385 . S
C1349 C1348 1.374 . S
C1350 C1347 1.499 . S
C1350 C1351 1.373 . S
C1350 C1352 1.389 . S
C1351 H1330 0.950 . S
C1351 C1350 1.373 . S
C1351 C1367 1.377 . S
C1352 C1350 1.389 . S
C1352 C1353 1.524 . S
C1352 C1366 1.377 . S
C1353 C1352 1.524 . S
C1353 C1354 1.397 . S
C1353 C1358 1.363 . S
C1354 H1331 0.950 . S
C1354 C1353 1.397 . S
C1354 C1355 1.334 . S
C1355 H1332 0.950 . S
C1355 C1354 1.334 . S
C1355 C1356 1.287 . S
C1356 C1355 1.287 . S
C1356 C1357 1.524 . S
C1356 H1375 0.913 . S
C1357 H1333 0.950 . S
C1357 C1356 1.524 . S
C1357 C1358 1.415 . S
C1358 H1334 0.950 . S
C1358 C1353 1.363 . S
C1358 C1357 1.415 . S
C1359 H1335 0.951 . S
C1359 C1360 1.366 . S
C1359 C1361 1.388 . S
C1360 C1359 1.366 . S
C1360 C1364 1.385 . S
C1361 H1336 0.951 . S
C1361 C1359 1.388 . S
C1361 C1362 1.366 . S
C1362 C1361 1.366 . S
C1362 C1363 1.414 . S
C1362 C1365 1.499 . S
C1363 H1337 0.950 . S
C1363 C1362 1.414 . S
C1363 C1364 1.374 . S
C1364 H1338 0.950 . S
C1364 C1360 1.385 . S
C1364 C1363 1.374 . S
C1365 C1362 1.499 . S
C1365 C1366 1.373 . S
C1365 C1367 1.389 . S
C1366 H1339 0.950 . S
C1366 C1352 1.377 . S
C1366 C1365 1.373 . S
C1367 C1351 1.377 . S
C1367 C1365 1.389 . S
C1367 C1368 1.524 . S
C1368 C1367 1.524 . S
C1368 C1369 1.397 . S
C1368 C1373 1.363 . S
C1369 H1340 0.950 . S
C1369 C1368 1.397 . S
C1369 C1370 1.334 . S
C1370 H1341 0.950 . S
C1370 C1369 1.334 . S
C1370 C1371 1.287 . S
C1371 C1370 1.287 . S
C1371 C1372 1.524 . S
C1371 H1374 0.999 . S
C1372 H1342 0.950 . S
C1372 C1371 1.524 . S
C1372 C1373 1.415 . S
C1373 H1343 0.950 . S
C1373 C1368 1.363 . S
C1373 C1372 1.415 . S
H1374 C1371 0.999 . S
H1375 C1356 0.913 . S
H1376 C1394 0.951 . S
H1377 C1396 0.951 . S
H1378 C1398 0.950 . S
H1379 C1399 0.950 . S
H1380 C1401 0.950 . S
H1381 C1404 0.983 . S
H1382 C1405 0.950 . S
H1383 C1407 0.950 . S
H1384 C1408 0.950 . S
H1385 C1409 0.951 1_655 S
H1386 C1411 0.951 . S
H1387 C1413 0.950 . S
H1388 C1414 0.950 . S
H1389 C1416 0.950 . S
H1390 C1419 0.950 . S
H1391 C1420 0.950 . S
H1392 C1422 0.950 . S
H1393 C1423 0.950 . S
C1394 H1376 0.951 . S
C1394 C1395 1.366 . S
C1394 C1396 1.388 . S
C1395 C1394 1.366 . S
C1395 C1399 1.385 . S
C1396 H1377 0.951 . S
C1396 C1394 1.388 . S
C1396 C1397 1.366 . S
C1397 C1396 1.366 . S
C1397 C1398 1.414 . S
C1397 C1400 1.499 . S
C1398 H1378 0.950 . S
C1398 C1397 1.414 . S
C1398 C1399 1.374 . S
C1399 H1379 0.950 . S
C1399 C1395 1.385 . S
C1399 C1398 1.374 . S
C1400 C1397 1.499 . S
C1400 C1401 1.373 . S
C1400 C1402 1.389 . S
C1401 H1380 0.950 . S
C1401 C1400 1.373 . S
C1401 C1417 1.377 . S
C1402 C1400 1.389 . S
C1402 C1403 1.524 1_655 S
C1402 C1416 1.377 1_655 S
C1403 C1402 1.524 1_455 S
C1403 C1404 1.373 1_455 S
C1403 C1408 1.363 . S
C1404 H1381 0.983 . S
C1404 C1403 1.373 1_655 S
C1404 C1405 1.325 1_655 S
C1405 H1382 0.950 . S
C1405 C1404 1.325 1_455 S
C1405 C1406 1.287 . S
C1406 C1405 1.287 . S
C1406 C1407 1.524 . S
C1406 H1425 0.913 . S
C1407 H1383 0.950 . S
C1407 C1406 1.524 . S
C1407 C1408 1.415 . S
C1408 H1384 0.950 . S
C1408 C1403 1.363 . S
C1408 C1407 1.415 . S
C1409 H1385 0.951 1_455 S
C1409 C1410 1.366 . S
C1409 C1411 1.388 1_455 S
C1410 C1409 1.366 . S
C1410 C1414 1.385 . S
C1411 H1386 0.951 . S
C1411 C1409 1.388 1_655 S
C1411 C1412 1.366 1_655 S
C1412 C1411 1.366 1_455 S
C1412 C1413 1.414 . S
C1412 C1415 1.499 1_455 S
C1413 H1387 0.950 . S
C1413 C1412 1.414 . S
C1413 C1414 1.374 . S
C1414 H1388 0.950 . S
C1414 C1410 1.385 . S
C1414 C1413 1.374 . S
C1415 C1412 1.499 1_655 S
C1415 C1416 1.373 1_655 S
C1415 C1417 1.389 . S
C1416 H1389 0.950 . S
C1416 C1402 1.377 1_455 S
C1416 C1415 1.373 1_455 S
C1417 C1401 1.377 . S
C1417 C1415 1.389 . S
C1417 C1418 1.524 . S
C1418 C1417 1.524 . S
C1418 C1419 1.397 . S
C1418 C1423 1.363 . S
C1419 H1390 0.950 . S
C1419 C1418 1.397 . S
C1419 C1420 1.334 1_545 S
C1420 H1391 0.950 . S
C1420 C1419 1.334 1_565 S
C1420 C1421 1.287 . S
C1421 C1420 1.287 . S
C1421 C1422 1.524 1_565 S
C1421 H1424 0.999 . S
C1422 H1392 0.950 . S
C1422 C1421 1.524 1_545 S
C1422 C1423 1.415 . S
C1423 H1393 0.950 . S
C1423 C1418 1.363 . S
C1423 C1422 1.415 . S
H1424 C1421 0.999 . S
H1425 C1406 0.913 . S
H1426 C1444 0.951 . S
H1427 C1446 0.951 . S
H1428 C1448 0.950 . S
H1429 C1449 0.950 . S
H1430 C1451 0.950 . S
H1431 C1454 0.950 . S
H1432 C1455 0.950 . S
H1433 C1457 0.950 . S
H1434 C1458 0.950 . S
H1435 C1459 0.951 . S
H1436 C1461 0.951 . S
H1437 C1463 0.950 . S
H1438 C1464 0.950 . S
H1439 C1466 0.950 . S
H1440 C1469 0.950 . S
H1441 C1470 0.950 . S
H1442 C1472 0.950 . S
H1443 C1473 0.950 . S
C1444 H1426 0.951 . S
C1444 C1445 1.366 . S
C1444 C1446 1.388 . S
C1445 C1444 1.366 . S
C1445 C1449 1.385 . S
C1446 H1427 0.951 . S
C1446 C1444 1.388 . S
C1446 C1447 1.366 . S
C1447 C1446 1.366 . S
C1447 C1448 1.414 . S
C1447 C1450 1.499 . S
C1448 H1428 0.950 . S
C1448 C1447 1.414 . S
C1448 C1449 1.374 . S
C1449 H1429 0.950 . S
C1449 C1445 1.385 . S
C1449 C1448 1.374 . S
C1450 C1447 1.499 . S
C1450 C1451 1.373 . S
C1450 C1452 1.389 . S
C1451 H1430 0.950 . S
C1451 C1450 1.373 . S
C1451 C1467 1.377 . S
C1452 C1450 1.389 . S
C1452 C1453 1.524 . S
C1452 C1466 1.377 . S
C1453 C1452 1.524 . S
C1453 C1454 1.397 . S
C1453 C1458 1.363 . S
C1454 H1431 0.950 . S
C1454 C1453 1.397 . S
C1454 C1455 1.334 . S
C1455 H1432 0.950 . S
C1455 C1454 1.334 . S
C1455 C1456 1.287 . S
C1456 C1455 1.287 . S
C1456 C1457 1.524 . S
C1456 H1475 0.913 . S
C1457 H1433 0.950 . S
C1457 C1456 1.524 . S
C1457 C1458 1.415 . S
C1458 H1434 0.950 . S
C1458 C1453 1.363 . S
C1458 C1457 1.415 . S
C1459 H1435 0.951 . S
C1459 C1460 1.366 . S
C1459 C1461 1.388 . S
C1460 C1459 1.366 . S
C1460 C1464 1.385 . S
C1461 H1436 0.951 . S
C1461 C1459 1.388 . S
C1461 C1462 1.366 . S
C1462 C1461 1.366 . S
C1462 C1463 1.414 . S
C1462 C1465 1.499 . S
C1463 H1437 0.950 . S
C1463 C1462 1.414 . S
C1463 C1464 1.374 . S
C1464 H1438 0.950 . S
C1464 C1460 1.385 . S
C1464 C1463 1.374 . S
C1465 C1462 1.499 . S
C1465 C1466 1.373 . S
C1465 C1467 1.389 . S
C1466 H1439 0.950 . S
C1466 C1452 1.377 . S
C1466 C1465 1.373 . S
C1467 C1451 1.377 . S
C1467 C1465 1.389 . S
C1467 C1468 1.524 . S
C1468 C1467 1.524 . S
C1468 C1469 1.397 . S
C1468 C1473 1.363 . S
C1469 H1440 0.950 . S
C1469 C1468 1.397 . S
C1469 C1470 1.334 . S
C1470 H1441 0.950 . S
C1470 C1469 1.334 . S
C1470 C1471 1.287 . S
C1471 C1470 1.287 . S
C1471 C1472 1.524 . S
C1471 H1474 0.999 . S
C1472 H1442 0.950 . S
C1472 C1471 1.524 . S
C1472 C1473 1.415 . S
C1473 H1443 0.950 . S
C1473 C1468 1.363 . S
C1473 C1472 1.415 . S
H1474 C1471 0.999 . S
H1475 C1456 0.913 . S
H1476 C1494 0.951 . S
H1477 C1496 0.951 . S
H1478 C1498 0.950 . S
H1479 C1499 0.950 . S
H1480 C1501 0.950 . S
H1481 C1504 0.950 . S
H1482 C1505 0.950 . S
H1483 C1507 0.950 . S
H1484 C1508 0.950 . S
H1485 C1509 0.951 . S
H1486 C1511 0.951 . S
H1487 C1513 0.950 . S
H1488 C1514 0.950 . S
H1489 C1516 0.950 . S
H1490 C1519 0.987 . S
H1491 C1520 0.950 . S
H1492 C1522 0.950 . S
H1493 C1523 0.950 . S
C1494 H1476 0.951 . S
C1494 C1495 1.366 . S
C1494 C1496 1.388 . S
C1495 C1494 1.366 . S
C1495 C1499 1.385 . S
C1496 H1477 0.951 . S
C1496 C1494 1.388 . S
C1496 C1497 1.366 . S
C1497 C1496 1.366 . S
C1497 C1498 1.414 . S
C1497 C1500 1.499 . S
C1498 H1478 0.950 . S
C1498 C1497 1.414 . S
C1498 C1499 1.374 . S
C1499 H1479 0.950 . S
C1499 C1495 1.385 . S
C1499 C1498 1.374 . S
C1500 C1497 1.499 . S
C1500 C1501 1.373 . S
C1500 C1502 1.389 . S
C1501 H1480 0.950 . S
C1501 C1500 1.373 . S
C1501 C1517 1.377 . S
C1502 C1500 1.389 . S
C1502 C1503 1.524 . S
C1502 C1516 1.377 . S
C1503 C1502 1.524 . S
C1503 C1504 1.397 . S
C1503 C1508 1.363 . S
C1504 H1481 0.950 . S
C1504 C1503 1.397 . S
C1504 C1505 1.334 . S
C1505 H1482 0.950 . S
C1505 C1504 1.334 . S
C1505 C1506 1.287 . S
C1506 C1505 1.287 . S
C1506 C1507 1.524 . S
C1506 H1525 0.913 . S
C1507 H1483 0.950 . S
C1507 C1506 1.524 . S
C1507 C1508 1.415 . S
C1508 H1484 0.950 . S
C1508 C1503 1.363 . S
C1508 C1507 1.415 . S
C1509 H1485 0.951 . S
C1509 C1510 1.366 . S
C1509 C1511 1.388 . S
C1510 C1509 1.366 . S
C1510 C1514 1.385 . S
C1511 H1486 0.951 . S
C1511 C1509 1.388 . S
C1511 C1512 1.366 . S
C1512 C1511 1.366 . S
C1512 C1513 1.414 . S
C1512 C1515 1.499 . S
C1513 H1487 0.950 . S
C1513 C1512 1.414 . S
C1513 C1514 1.374 . S
C1514 H1488 0.950 . S
C1514 C1510 1.385 . S
C1514 C1513 1.374 . S
C1515 C1512 1.499 . S
C1515 C1516 1.373 . S
C1515 C1517 1.389 . S
C1516 H1489 0.950 . S
C1516 C1502 1.377 . S
C1516 C1515 1.373 . S
C1517 C1501 1.377 . S
C1517 C1515 1.389 . S
C1517 C1518 1.524 1_545 S
C1518 C1517 1.524 1_565 S
C1518 C1519 1.397 . S
C1518 C1523 1.363 . S
C1519 H1490 0.987 . S
C1519 C1518 1.397 . S
C1519 C1520 1.334 . S
C1520 H1491 0.950 . S
C1520 C1519 1.334 . S
C1520 C1521 1.287 . S
C1521 C1520 1.287 . S
C1521 C1522 1.524 . S
C1521 H1524 0.999 . S
C1522 H1492 0.950 . S
C1522 C1521 1.524 . S
C1522 C1523 1.415 . S
C1523 H1493 0.950 . S
C1523 C1518 1.363 . S
C1523 C1522 1.415 . S
H1524 C1521 0.999 . S
H1525 C1506 0.913 . S
H1526 C1544 0.951 . S
H1527 C1546 0.951 . S
H1528 C1548 0.950 . S
H1529 C1549 0.950 . S
H1530 C1551 0.950 . S
H1531 C1554 0.950 . S
H1532 C1555 0.950 . S
H1533 C1557 0.950 . S
H1534 C1558 0.950 . S
H1535 C1559 0.951 . S
H1536 C1561 0.951 . S
H1537 C1563 0.950 . S
H1538 C1564 0.950 . S
H1539 C1566 0.950 . S
H1540 C1569 0.950 . S
H1541 C1570 0.950 . S
H1542 C1572 0.950 . S
H1543 C1573 0.950 . S
C1544 H1526 0.951 . S
C1544 C1545 1.366 . S
C1544 C1546 1.388 . S
C1545 C1544 1.366 . S
C1545 C1549 1.385 . S
C1546 H1527 0.951 . S
C1546 C1544 1.388 . S
C1546 C1547 1.366 . S
C1547 C1546 1.366 . S
C1547 C1548 1.414 . S
C1547 C1550 1.499 . S
C1548 H1528 0.950 . S
C1548 C1547 1.414 . S
C1548 C1549 1.374 . S
C1549 H1529 0.950 . S
C1549 C1545 1.385 . S
C1549 C1548 1.374 . S
C1550 C1547 1.499 . S
C1550 C1551 1.373 . S
C1550 C1552 1.389 . S
C1551 H1530 0.950 . S
C1551 C1550 1.373 . S
C1551 C1567 1.377 . S
C1552 C1550 1.389 . S
C1552 C1553 1.524 . S
C1552 C1566 1.377 . S
C1553 C1552 1.524 . S
C1553 C1554 1.397 . S
C1553 C1558 1.363 . S
C1554 H1531 0.950 . S
C1554 C1553 1.397 . S
C1554 C1555 1.334 . S
C1555 H1532 0.950 . S
C1555 C1554 1.334 . S
C1555 C1556 1.287 . S
C1556 C1555 1.287 . S
C1556 C1557 1.524 . S
C1556 H1575 0.913 . S
C1557 H1533 0.950 . S
C1557 C1556 1.524 . S
C1557 C1558 1.415 . S
C1558 H1534 0.950 . S
C1558 C1553 1.363 . S
C1558 C1557 1.415 . S
C1559 H1535 0.951 . S
C1559 C1560 1.366 . S
C1559 C1561 1.388 . S
C1560 C1559 1.366 . S
C1560 C1564 1.385 . S
C1561 H1536 0.951 . S
C1561 C1559 1.388 . S
C1561 C1562 1.366 . S
C1562 C1561 1.366 . S
C1562 C1563 1.414 . S
C1562 C1565 1.499 . S
C1563 H1537 0.950 . S
C1563 C1562 1.414 . S
C1563 C1564 1.374 . S
C1564 H1538 0.950 . S
C1564 C1560 1.385 . S
C1564 C1563 1.374 . S
C1565 C1562 1.499 . S
C1565 C1566 1.373 . S
C1565 C1567 1.389 . S
C1566 H1539 0.950 . S
C1566 C1552 1.377 . S
C1566 C1565 1.373 . S
C1567 C1551 1.377 . S
C1567 C1565 1.389 . S
C1567 C1568 1.524 . S
C1568 C1567 1.524 . S
C1568 C1569 1.397 . S
C1568 C1573 1.363 . S
C1569 H1540 0.950 . S
C1569 C1568 1.397 . S
C1569 C1570 1.334 . S
C1570 H1541 0.950 . S
C1570 C1569 1.334 . S
C1570 C1571 1.287 . S
C1571 C1570 1.287 . S
C1571 C1572 1.524 . S
C1571 H1574 0.999 . S
C1572 H1542 0.950 . S
C1572 C1571 1.524 . S
C1572 C1573 1.415 . S
C1573 H1543 0.950 . S
C1573 C1568 1.363 . S
C1573 C1572 1.415 . S
H1574 C1571 0.999 . S
H1575 C1556 0.913 . S
H1576 C1594 0.951 . S
H1577 C1596 0.951 . S
H1578 C1598 0.950 . S
H1579 C1599 0.950 . S
H1580 C1601 0.937 1_455 S
H1581 C1604 0.950 . S
H1582 C1605 0.950 . S
H1583 C1607 0.950 . S
H1584 C1608 0.925 1_565 S
H1585 C1609 0.951 . S
H1586 C1611 0.951 . S
H1587 C1613 0.950 . S
H1588 C1614 0.950 . S
H1589 C1616 0.950 . S
H1590 C1619 0.950 . S
H1591 C1620 0.950 . S
H1592 C1622 0.950 . S
H1593 C1623 0.950 . S
C1594 H1576 0.951 . S
C1594 C1595 1.366 . S
C1594 C1596 1.388 . S
C1595 C1594 1.366 . S
C1595 C1599 1.385 . S
C1596 H1577 0.951 . S
C1596 C1594 1.388 . S
C1596 C1597 1.366 . S
C1597 C1596 1.366 . S
C1597 C1598 1.414 . S
C1597 C1600 1.499 . S
C1598 H1578 0.950 . S
C1598 C1597 1.414 . S
C1598 C1599 1.374 . S
C1599 H1579 0.950 . S
C1599 C1595 1.385 . S
C1599 C1598 1.374 . S
C1600 C1597 1.499 . S
C1600 C1601 1.373 . S
C1600 C1602 1.389 . S
C1601 H1580 0.937 1_655 S
C1601 C1600 1.373 . S
C1601 C1617 1.377 1_655 S
C1602 C1600 1.389 . S
C1602 C1603 1.524 . S
C1602 C1616 1.377 . S
C1603 C1602 1.524 . S
C1603 C1604 1.397 . S
C1603 C1608 1.363 . S
C1604 H1581 0.950 . S
C1604 C1603 1.397 . S
C1604 C1605 1.334 . S
C1605 H1582 0.950 . S
C1605 C1604 1.334 . S
C1605 C1606 1.287 . S
C1606 C1605 1.287 . S
C1606 C1607 1.524 1_545 S
C1606 H1625 0.913 1_545 S
C1607 H1583 0.950 . S
C1607 C1606 1.524 1_565 S
C1607 C1608 1.415 1_565 S
C1608 H1584 0.925 1_545 S
C1608 C1603 1.363 . S
C1608 C1607 1.415 1_545 S
C1609 H1585 0.951 . S
C1609 C1610 1.366 . S
C1609 C1611 1.388 . S
C1610 C1609 1.366 . S
C1610 C1614 1.385 . S
C1611 H1586 0.951 . S
C1611 C1609 1.388 . S
C1611 C1612 1.366 . S
C1612 C1611 1.366 . S
C1612 C1613 1.414 . S
C1612 C1615 1.499 1_455 S
C1613 H1587 0.950 . S
C1613 C1612 1.414 . S
C1613 C1614 1.374 . S
C1614 H1588 0.950 . S
C1614 C1610 1.385 . S
C1614 C1613 1.374 . S
C1615 C1612 1.499 1_655 S
C1615 C1616 1.373 . S
C1615 C1617 1.389 1_655 S
C1616 H1589 0.950 . S
C1616 C1602 1.377 . S
C1616 C1615 1.373 . S
C1617 C1601 1.377 1_455 S
C1617 C1615 1.389 1_455 S
C1617 C1618 1.524 . S
C1618 C1617 1.524 . S
C1618 C1619 1.397 . S
C1618 C1623 1.363 . S
C1619 H1590 0.950 . S
C1619 C1618 1.397 . S
C1619 C1620 1.334 . S
C1620 H1591 0.950 . S
C1620 C1619 1.334 . S
C1620 C1621 1.287 . S
C1621 C1620 1.287 . S
C1621 C1622 1.524 . S
C1621 H1624 0.999 . S
C1622 H1592 0.950 . S
C1622 C1621 1.524 . S
C1622 C1623 1.415 . S
C1623 H1593 0.950 . S
C1623 C1618 1.363 . S
C1623 C1622 1.415 . S
H1624 C1621 0.999 . S
H1625 C1606 0.913 1_565 S
H1626 C1644 0.951 . S
H1627 C1646 0.951 . S
H1628 C1648 0.950 . S
H1629 C1649 0.950 . S
H1630 C1651 0.950 . S
H1631 C1654 0.950 . S
H1632 C1655 0.950 . S
H1633 C1657 0.950 . S
H1634 C1658 0.950 . S
H1635 C1659 0.951 . S
H1636 C1661 0.951 . S
H1637 C1663 0.950 . S
H1638 C1664 0.950 . S
H1639 C1666 0.950 . S
H1640 C1669 0.950 . S
H1641 C1670 0.950 . S
H1642 C1672 0.950 . S
H1643 C1673 0.950 . S
C1644 H1626 0.951 . S
C1644 C1645 1.366 . S
C1644 C1646 1.388 . S
C1645 C1644 1.366 . S
C1645 C1649 1.385 . S
C1646 H1627 0.951 . S
C1646 C1644 1.388 . S
C1646 C1647 1.366 . S
C1647 C1646 1.366 . S
C1647 C1648 1.414 . S
C1647 C1650 1.499 . S
C1648 H1628 0.950 . S
C1648 C1647 1.414 . S
C1648 C1649 1.374 . S
C1649 H1629 0.950 . S
C1649 C1645 1.385 . S
C1649 C1648 1.374 . S
C1650 C1647 1.499 . S
C1650 C1651 1.373 . S
C1650 C1652 1.389 . S
C1651 H1630 0.950 . S
C1651 C1650 1.373 . S
C1651 C1667 1.377 . S
C1652 C1650 1.389 . S
C1652 C1653 1.524 . S
C1652 C1666 1.377 . S
C1653 C1652 1.524 . S
C1653 C1654 1.397 . S
C1653 C1658 1.363 . S
C1654 H1631 0.950 . S
C1654 C1653 1.397 . S
C1654 C1655 1.334 . S
C1655 H1632 0.950 . S
C1655 C1654 1.334 . S
C1655 C1656 1.287 . S
C1656 C1655 1.287 . S
C1656 C1657 1.524 . S
C1656 H1675 0.913 . S
C1657 H1633 0.950 . S
C1657 C1656 1.524 . S
C1657 C1658 1.415 . S
C1658 H1634 0.950 . S
C1658 C1653 1.363 . S
C1658 C1657 1.415 . S
C1659 H1635 0.951 . S
C1659 C1660 1.366 . S
C1659 C1661 1.388 . S
C1660 C1659 1.366 . S
C1660 C1664 1.385 . S
C1661 H1636 0.951 . S
C1661 C1659 1.388 . S
C1661 C1662 1.366 . S
C1662 C1661 1.366 . S
C1662 C1663 1.414 . S
C1662 C1665 1.499 . S
C1663 H1637 0.950 . S
C1663 C1662 1.414 . S
C1663 C1664 1.374 . S
C1664 H1638 0.950 . S
C1664 C1660 1.385 . S
C1664 C1663 1.374 . S
C1665 C1662 1.499 . S
C1665 C1666 1.373 . S
C1665 C1667 1.389 . S
C1666 H1639 0.950 . S
C1666 C1652 1.377 . S
C1666 C1665 1.373 . S
C1667 C1651 1.377 . S
C1667 C1665 1.389 . S
C1667 C1668 1.524 . S
C1668 C1667 1.524 . S
C1668 C1669 1.397 . S
C1668 C1673 1.363 . S
C1669 H1640 0.950 . S
C1669 C1668 1.397 . S
C1669 C1670 1.334 . S
C1670 H1641 0.950 . S
C1670 C1669 1.334 . S
C1670 C1671 1.287 . S
C1671 C1670 1.287 . S
C1671 C1672 1.524 . S
C1671 H1674 0.999 . S
C1672 H1642 0.950 . S
C1672 C1671 1.524 . S
C1672 C1673 1.415 . S
C1673 H1643 0.950 . S
C1673 C1668 1.363 . S
C1673 C1672 1.415 . S
H1674 C1671 0.999 . S
H1675 C1656 0.913 . S
H1676 C1694 0.951 . S
H1677 C1696 0.951 . S
H1678 C1698 0.950 . S
H1679 C1699 0.950 . S
H1680 C1701 0.950 . S
H1681 C1704 0.950 . S
H1682 C1705 0.950 . S
H1683 C1707 0.950 . S
H1684 C1708 0.950 . S
H1685 C1709 0.951 . S
H1686 C1711 0.951 . S
H1687 C1713 0.950 . S
H1688 C1714 0.950 . S
H1689 C1716 0.950 . S
H1690 C1719 0.950 . S
H1691 C1720 0.950 . S
H1692 C1722 0.950 . S
H1693 C1723 0.950 . S
C1694 H1676 0.951 . S
C1694 C1695 1.366 . S
C1694 C1696 1.388 . S
C1695 C1694 1.366 . S
C1695 C1699 1.385 . S
C1696 H1677 0.951 . S
C1696 C1694 1.388 . S
C1696 C1697 1.366 . S
C1697 C1696 1.366 . S
C1697 C1698 1.414 . S
C1697 C1700 1.499 . S
C1698 H1678 0.950 . S
C1698 C1697 1.414 . S
C1698 C1699 1.374 . S
C1699 H1679 0.950 . S
C1699 C1695 1.385 . S
C1699 C1698 1.374 . S
C1700 C1697 1.499 . S
C1700 C1701 1.373 . S
C1700 C1702 1.389 . S
C1701 H1680 0.950 . S
C1701 C1700 1.373 . S
C1701 C1717 1.377 . S
C1702 C1700 1.389 . S
C1702 C1703 1.524 . S
C1702 C1716 1.377 . S
C1703 C1702 1.524 . S
C1703 C1704 1.397 . S
C1703 C1708 1.363 . S
C1704 H1681 0.950 . S
C1704 C1703 1.397 . S
C1704 C1705 1.334 . S
C1705 H1682 0.950 . S
C1705 C1704 1.334 . S
C1705 C1706 1.287 . S
C1706 C1705 1.287 . S
C1706 C1707 1.524 . S
C1706 H1725 0.913 . S
C1707 H1683 0.950 . S
C1707 C1706 1.524 . S
C1707 C1708 1.415 . S
C1708 H1684 0.950 . S
C1708 C1703 1.363 . S
C1708 C1707 1.415 . S
C1709 H1685 0.951 . S
C1709 C1710 1.366 . S
C1709 C1711 1.388 . S
C1710 C1709 1.366 . S
C1710 C1714 1.385 . S
C1711 H1686 0.951 . S
C1711 C1709 1.388 . S
C1711 C1712 1.366 . S
C1712 C1711 1.366 . S
C1712 C1713 1.414 . S
C1712 C1715 1.499 . S
C1713 H1687 0.950 . S
C1713 C1712 1.414 . S
C1713 C1714 1.374 . S
C1714 H1688 0.950 . S
C1714 C1710 1.385 . S
C1714 C1713 1.374 . S
C1715 C1712 1.499 . S
C1715 C1716 1.373 . S
C1715 C1717 1.389 . S
C1716 H1689 0.950 . S
C1716 C1702 1.377 . S
C1716 C1715 1.373 . S
C1717 C1701 1.377 . S
C1717 C1715 1.389 . S
C1717 C1718 1.524 . S
C1718 C1717 1.524 . S
C1718 C1719 1.397 . S
C1718 C1723 1.363 . S
C1719 H1690 0.950 . S
C1719 C1718 1.397 . S
C1719 C1720 1.334 . S
C1720 H1691 0.950 . S
C1720 C1719 1.334 . S
C1720 C1721 1.287 . S
C1721 C1720 1.287 . S
C1721 C1722 1.524 . S
C1721 H1724 0.999 . S
C1722 H1692 0.950 . S
C1722 C1721 1.524 . S
C1722 C1723 1.415 . S
C1723 H1693 0.950 . S
C1723 C1718 1.363 . S
C1723 C1722 1.415 . S
H1724 C1721 0.999 . S
H1725 C1706 0.913 . S
H1726 C1744 0.951 . S
H1727 C1746 0.951 . S
H1728 C1748 0.950 . S
H1729 C1749 0.950 . S
H1730 C1751 0.950 . S
H1731 C1754 0.950 . S
H1732 C1755 0.950 . S
H1733 C1757 0.950 . S
H1734 C1758 0.950 . S
H1735 C1759 0.951 . S
H1736 C1761 0.951 . S
H1737 C1763 0.950 . S
H1738 C1764 0.950 . S
H1739 C1766 0.950 . S
H1740 C1769 0.950 . S
H1741 C1770 0.950 . S
H1742 C1772 0.950 . S
H1743 C1773 0.950 . S
C1744 H1726 0.951 . S
C1744 C1745 1.366 . S
C1744 C1746 1.388 . S
C1745 C1744 1.366 . S
C1745 C1749 1.385 . S
C1746 H1727 0.951 . S
C1746 C1744 1.388 . S
C1746 C1747 1.366 . S
C1747 C1746 1.366 . S
C1747 C1748 1.414 . S
C1747 C1750 1.499 . S
C1748 H1728 0.950 . S
C1748 C1747 1.414 . S
C1748 C1749 1.374 . S
C1749 H1729 0.950 . S
C1749 C1745 1.385 . S
C1749 C1748 1.374 . S
C1750 C1747 1.499 . S
C1750 C1751 1.373 . S
C1750 C1752 1.389 . S
C1751 H1730 0.950 . S
C1751 C1750 1.373 . S
C1751 C1767 1.377 . S
C1752 C1750 1.389 . S
C1752 C1753 1.524 . S
C1752 C1766 1.377 . S
C1753 C1752 1.524 . S
C1753 C1754 1.397 . S
C1753 C1758 1.363 . S
C1754 H1731 0.950 . S
C1754 C1753 1.397 . S
C1754 C1755 1.334 . S
C1755 H1732 0.950 . S
C1755 C1754 1.334 . S
C1755 C1756 1.287 . S
C1756 C1755 1.287 . S
C1756 C1757 1.524 . S
C1756 H1775 0.913 . S
C1757 H1733 0.950 . S
C1757 C1756 1.524 . S
C1757 C1758 1.415 . S
C1758 H1734 0.950 . S
C1758 C1753 1.363 . S
C1758 C1757 1.415 . S
C1759 H1735 0.951 . S
C1759 C1760 1.366 . S
C1759 C1761 1.388 . S
C1760 C1759 1.366 . S
C1760 C1764 1.385 . S
C1761 H1736 0.951 . S
C1761 C1759 1.388 . S
C1761 C1762 1.366 . S
C1762 C1761 1.366 . S
C1762 C1763 1.414 . S
C1762 C1765 1.499 . S
C1763 H1737 0.950 . S
C1763 C1762 1.414 . S
C1763 C1764 1.374 . S
C1764 H1738 0.950 . S
C1764 C1760 1.385 . S
C1764 C1763 1.374 . S
C1765 C1762 1.499 . S
C1765 C1766 1.373 . S
C1765 C1767 1.389 . S
C1766 H1739 0.950 . S
C1766 C1752 1.377 . S
C1766 C1765 1.373 . S
C1767 C1751 1.377 . S
C1767 C1765 1.389 . S
C1767 C1768 1.524 . S
C1768 C1767 1.524 . S
C1768 C1769 1.397 . S
C1768 C1773 1.363 . S
C1769 H1740 0.950 . S
C1769 C1768 1.397 . S
C1769 C1770 1.334 . S
C1770 H1741 0.950 . S
C1770 C1769 1.334 . S
C1770 C1771 1.287 . S
C1771 C1770 1.287 . S
C1771 C1772 1.524 . S
C1771 H1774 0.999 . S
C1772 H1742 0.950 . S
C1772 C1771 1.524 . S
C1772 C1773 1.415 . S
C1773 H1743 0.950 . S
C1773 C1768 1.363 . S
C1773 C1772 1.415 . S
H1774 C1771 0.999 . S
H1775 C1756 0.913 . S
H1776 C1794 0.951 . S
H1777 C1796 0.951 . S
H1778 C1798 0.950 1_556 S
H1779 C1799 0.950 . S
H1780 C1801 0.950 . S
H1781 C1804 0.950 . S
H1782 C1805 0.950 . S
H1783 C1807 0.950 . S
H1784 C1808 0.950 . S
H1785 C1809 0.943 1_545 S
H1786 C1811 0.951 . S
H1787 C1813 0.950 . S
H1788 C1814 0.950 . S
H1789 C1816 0.950 . S
H1790 C1819 0.950 . S
H1791 C1820 0.950 . S
H1792 C1822 0.911 1_556 S
H1793 C1823 0.974 1_556 S
C1794 H1776 0.951 . S
C1794 C1795 1.366 . S
C1794 C1796 1.388 . S
C1795 C1794 1.366 . S
C1795 C1799 1.385 1_554 S
C1796 H1777 0.951 . S
C1796 C1794 1.388 . S
C1796 C1797 1.366 . S
C1797 C1796 1.366 . S
C1797 C1798 1.414 . S
C1797 C1800 1.499 . S
C1798 H1778 0.950 1_554 S
C1798 C1797 1.414 . S
C1798 C1799 1.374 1_554 S
C1799 H1779 0.950 . S
C1799 C1795 1.385 1_556 S
C1799 C1798 1.374 1_556 S
C1800 C1797 1.499 . S
C1800 C1801 1.373 . S
C1800 C1802 1.389 . S
C1801 H1780 0.950 . S
C1801 C1800 1.373 . S
C1801 C1817 1.377 . S
C1802 C1800 1.389 . S
C1802 C1803 1.524 . S
C1802 C1816 1.377 . S
C1803 C1802 1.524 . S
C1803 C1804 1.397 . S
C1803 C1808 1.363 . S
C1804 H1781 0.950 . S
C1804 C1803 1.397 . S
C1804 C1805 1.334 . S
C1805 H1782 0.950 . S
C1805 C1804 1.334 . S
C1805 C1806 1.287 . S
C1806 C1805 1.287 . S
C1806 C1807 1.524 . S
C1806 H1825 0.913 . S
C1807 H1783 0.950 . S
C1807 C1806 1.524 . S
C1807 C1808 1.415 . S
C1808 H1784 0.950 . S
C1808 C1803 1.363 . S
C1808 C1807 1.415 . S
C1809 H1785 0.943 1_565 S
C1809 C1810 1.366 . S
C1809 C1811 1.388 . S
C1810 C1809 1.366 . S
C1810 C1814 1.385 . S
C1811 H1786 0.951 . S
C1811 C1809 1.388 . S
C1811 C1812 1.366 . S
C1812 C1811 1.366 . S
C1812 C1813 1.414 . S
C1812 C1815 1.499 . S
C1813 H1787 0.950 . S
C1813 C1812 1.414 . S
C1813 C1814 1.374 . S
C1814 H1788 0.950 . S
C1814 C1810 1.385 . S
C1814 C1813 1.374 . S
C1815 C1812 1.499 . S
C1815 C1816 1.373 . S
C1815 C1817 1.389 . S
C1816 H1789 0.950 . S
C1816 C1802 1.377 . S
C1816 C1815 1.373 . S
C1817 C1801 1.377 . S
C1817 C1815 1.389 . S
C1817 C1818 1.524 1_565 S
C1818 C1817 1.524 1_545 S
C1818 C1819 1.397 . S
C1818 C1823 1.363 . S
C1819 H1790 0.950 . S
C1819 C1818 1.397 . S
C1819 C1820 1.334 . S
C1820 H1791 0.950 . S
C1820 C1819 1.334 . S
C1820 C1821 1.287 . S
C1821 C1820 1.287 . S
C1821 C1822 1.556 . S
C1821 H1824 0.999 . S
C1822 H1792 0.911 1_554 S
C1822 C1821 1.556 . S
C1822 C1823 1.428 . S
C1823 H1793 0.974 1_554 S
C1823 C1818 1.363 . S
C1823 C1822 1.428 . S
H1824 C1821 0.999 . S
H1825 C1806 0.913 . S
H1826 C1844 0.951 . S
H1827 C1846 0.951 . S
H1828 C1848 0.950 . S
H1829 C1849 0.950 . S
H1830 C1851 0.952 . S
H1831 C1854 0.950 . S
H1832 C1855 0.950 . S
H1833 C1857 0.950 . S
H1834 C1858 0.950 . S
H1835 C1859 0.951 . S
H1836 C1861 0.951 . S
H1837 C1863 0.950 . S
H1838 C1864 0.950 . S
H1839 C1866 0.950 . S
H1840 C1869 0.950 . S
H1841 C1870 0.950 . S
H1842 C1872 0.950 . S
H1843 C1873 0.950 . S
C1844 H1826 0.951 . S
C1844 C1845 1.366 . S
C1844 C1846 1.388 . S
C1845 C1844 1.366 . S
C1845 C1849 1.385 1_556 S
C1846 H1827 0.951 . S
C1846 C1844 1.388 . S
C1846 C1847 1.392 . S
C1847 C1846 1.392 . S
C1847 C1848 1.396 1_556 S
C1847 C1850 1.487 1_556 S
C1848 H1828 0.950 . S
C1848 C1847 1.396 1_554 S
C1848 C1849 1.374 . S
C1849 H1829 0.950 . S
C1849 C1845 1.385 1_554 S
C1849 C1848 1.374 . S
C1850 C1847 1.487 1_554 S
C1850 C1851 1.372 . S
C1850 C1852 1.389 1_554 S
C1851 H1830 0.952 . S
C1851 C1850 1.372 . S
C1851 C1867 1.384 1_554 S
C1852 C1850 1.389 1_556 S
C1852 C1853 1.526 1_556 S
C1852 C1866 1.374 . S
C1853 C1852 1.526 1_554 S
C1853 C1854 1.397 . S
C1853 C1858 1.363 1_554 S
C1854 H1831 0.950 . S
C1854 C1853 1.397 . S
C1854 C1855 1.334 . S
C1855 H1832 0.950 . S
C1855 C1854 1.334 . S
C1855 C1856 1.287 . S
C1856 C1855 1.287 . S
C1856 C1857 1.524 1_554 S
C1856 H1875 0.913 . S
C1857 H1833 0.950 . S
C1857 C1856 1.524 1_556 S
C1857 C1858 1.415 . S
C1858 H1834 0.950 . S
C1858 C1853 1.363 1_556 S
C1858 C1857 1.415 . S
C1859 H1835 0.951 . S
C1859 C1860 1.366 . S
C1859 C1861 1.388 . S
C1860 C1859 1.366 . S
C1860 C1864 1.385 1_554 S
C1861 H1836 0.951 . S
C1861 C1859 1.388 . S
C1861 C1862 1.368 1_554 S
C1862 C1861 1.368 1_556 S
C1862 C1863 1.412 . S
C1862 C1865 1.498 . S
C1863 H1837 0.950 . S
C1863 C1862 1.412 . S
C1863 C1864 1.374 . S
C1864 H1838 0.950 . S
C1864 C1860 1.385 1_556 S
C1864 C1863 1.374 . S
C1865 C1862 1.498 . S
C1865 C1866 1.373 . S
C1865 C1867 1.390 . S
C1866 H1839 0.950 . S
C1866 C1852 1.374 . S
C1866 C1865 1.373 . S
C1867 C1851 1.384 1_556 S
C1867 C1865 1.390 . S
C1867 C1868 1.523 . S
C1868 C1867 1.523 . S
C1868 C1869 1.397 . S
C1868 C1873 1.363 1_556 S
C1869 H1840 0.950 . S
C1869 C1868 1.397 . S
C1869 C1870 1.334 . S
C1870 H1841 0.950 . S
C1870 C1869 1.334 . S
C1870 C1871 1.287 . S
C1871 C1870 1.287 . S
C1871 C1872 1.524 1_556 S
C1871 H1874 0.999 . S
C1872 H1842 0.950 . S
C1872 C1871 1.524 1_554 S
C1872 C1873 1.415 . S
C1873 H1843 0.950 . S
C1873 C1868 1.363 1_554 S
C1873 C1872 1.415 . S
H1874 C1871 0.999 . S
H1875 C1856 0.913 . S
H1876 C1894 0.951 . S
H1877 C1896 0.951 . S
H1878 C1898 0.950 . S
H1879 C1899 0.950 . S
H1880 C1901 0.950 . S
H1881 C1904 0.950 . S
H1882 C1905 0.950 . S
H1883 C1907 0.950 . S
H1884 C1908 0.950 . S
H1885 C1909 0.951 . S
H1886 C1911 0.951 . S
H1887 C1913 0.950 . S
H1888 C1914 0.950 . S
H1889 C1916 0.950 . S
H1890 C1919 0.950 . S
H1891 C1920 0.950 . S
H1892 C1922 0.950 . S
H1893 C1923 0.950 . S
C1894 H1876 0.951 . S
C1894 C1895 1.366 . S
C1894 C1896 1.388 . S
C1895 C1894 1.366 . S
C1895 C1899 1.385 . S
C1896 H1877 0.951 . S
C1896 C1894 1.388 . S
C1896 C1897 1.366 . S
C1897 C1896 1.366 . S
C1897 C1898 1.414 . S
C1897 C1900 1.499 . S
C1898 H1878 0.950 . S
C1898 C1897 1.414 . S
C1898 C1899 1.374 . S
C1899 H1879 0.950 . S
C1899 C1895 1.385 . S
C1899 C1898 1.374 . S
C1900 C1897 1.499 . S
C1900 C1901 1.373 . S
C1900 C1902 1.389 . S
C1901 H1880 0.950 . S
C1901 C1900 1.373 . S
C1901 C1917 1.377 . S
C1902 C1900 1.389 . S
C1902 C1903 1.524 . S
C1902 C1916 1.377 . S
C1903 C1902 1.524 . S
C1903 C1904 1.397 . S
C1903 C1908 1.363 . S
C1904 H1881 0.950 . S
C1904 C1903 1.397 . S
C1904 C1905 1.334 . S
C1905 H1882 0.950 . S
C1905 C1904 1.334 . S
C1905 C1906 1.287 . S
C1906 C1905 1.287 . S
C1906 C1907 1.524 . S
C1906 H1925 0.913 . S
C1907 H1883 0.950 . S
C1907 C1906 1.524 . S
C1907 C1908 1.415 . S
C1908 H1884 0.950 . S
C1908 C1903 1.363 . S
C1908 C1907 1.415 . S
C1909 H1885 0.951 . S
C1909 C1910 1.366 . S
C1909 C1911 1.388 . S
C1910 C1909 1.366 . S
C1910 C1914 1.385 . S
C1911 H1886 0.951 . S
C1911 C1909 1.388 . S
C1911 C1912 1.366 . S
C1912 C1911 1.366 . S
C1912 C1913 1.414 . S
C1912 C1915 1.499 . S
C1913 H1887 0.950 . S
C1913 C1912 1.414 . S
C1913 C1914 1.374 . S
C1914 H1888 0.950 . S
C1914 C1910 1.385 . S
C1914 C1913 1.374 . S
C1915 C1912 1.499 . S
C1915 C1916 1.373 . S
C1915 C1917 1.389 . S
C1916 H1889 0.950 . S
C1916 C1902 1.377 . S
C1916 C1915 1.373 . S
C1917 C1901 1.377 . S
C1917 C1915 1.389 . S
C1917 C1918 1.524 . S
C1918 C1917 1.524 . S
C1918 C1919 1.397 . S
C1918 C1923 1.363 . S
C1919 H1890 0.950 . S
C1919 C1918 1.397 . S
C1919 C1920 1.334 . S
C1920 H1891 0.950 . S
C1920 C1919 1.334 . S
C1920 C1921 1.287 . S
C1921 C1920 1.287 . S
C1921 C1922 1.524 . S
C1921 H1924 0.999 . S
C1922 H1892 0.950 . S
C1922 C1921 1.524 . S
C1922 C1923 1.415 . S
C1923 H1893 0.950 . S
C1923 C1918 1.363 . S
C1923 C1922 1.415 . S
H1924 C1921 0.999 . S
H1925 C1906 0.913 . S
H1926 C1944 0.951 . S
H1927 C1946 0.951 . S
H1928 C1948 0.950 . S
H1929 C1949 0.950 . S
H1930 C1951 0.950 . S
H1931 C1954 0.950 . S
H1932 C1955 0.950 . S
H1933 C1957 0.950 . S
H1934 C1958 0.950 . S
H1935 C1959 0.979 . S
H1936 C1961 0.951 . S
H1937 C1963 0.950 . S
H1938 C1964 0.950 . S
H1939 C1966 0.950 . S
H1940 C1969 0.950 . S
H1941 C1970 0.950 . S
H1942 C1972 0.950 . S
H1943 C1973 0.950 . S
C1944 H1926 0.951 . S
C1944 C1945 1.366 . S
C1944 C1946 1.388 . S
C1945 C1944 1.366 . S
C1945 C1949 1.385 . S
C1946 H1927 0.951 . S
C1946 C1944 1.388 . S
C1946 C1947 1.366 . S
C1947 C1946 1.366 . S
C1947 C1948 1.414 . S
C1947 C1950 1.499 . S
C1948 H1928 0.950 . S
C1948 C1947 1.414 . S
C1948 C1949 1.374 . S
C1949 H1929 0.950 . S
C1949 C1945 1.385 . S
C1949 C1948 1.374 . S
C1950 C1947 1.499 . S
C1950 C1951 1.373 . S
C1950 C1952 1.389 . S
C1951 H1930 0.950 . S
C1951 C1950 1.373 . S
C1951 C1967 1.377 . S
C1952 C1950 1.389 . S
C1952 C1953 1.524 . S
C1952 C1966 1.377 . S
C1953 C1952 1.524 . S
C1953 C1954 1.397 . S
C1953 C1958 1.363 . S
C1954 H1931 0.950 . S
C1954 C1953 1.397 . S
C1954 C1955 1.334 . S
C1955 H1932 0.950 . S
C1955 C1954 1.334 . S
C1955 C1956 1.287 . S
C1956 C1955 1.287 . S
C1956 C1957 1.524 . S
C1956 H1975 0.913 . S
C1957 H1933 0.950 . S
C1957 C1956 1.524 . S
C1957 C1958 1.415 . S
C1958 H1934 0.950 . S
C1958 C1953 1.363 . S
C1958 C1957 1.415 . S
C1959 H1935 0.979 . S
C1959 C1960 1.366 . S
C1959 C1961 1.388 . S
C1960 C1959 1.366 . S
C1960 C1964 1.385 . S
C1961 H1936 0.951 . S
C1961 C1959 1.388 . S
C1961 C1962 1.366 . S
C1962 C1961 1.366 . S
C1962 C1963 1.414 . S
C1962 C1965 1.499 . S
C1963 H1937 0.950 . S
C1963 C1962 1.414 . S
C1963 C1964 1.374 . S
C1964 H1938 0.950 . S
C1964 C1960 1.385 . S
C1964 C1963 1.374 . S
C1965 C1962 1.499 . S
C1965 C1966 1.373 . S
C1965 C1967 1.389 . S
C1966 H1939 0.950 . S
C1966 C1952 1.377 . S
C1966 C1965 1.373 . S
C1967 C1951 1.377 . S
C1967 C1965 1.389 . S
C1967 C1968 1.524 . S
C1968 C1967 1.524 . S
C1968 C1969 1.397 . S
C1968 C1973 1.363 . S
C1969 H1940 0.950 . S
C1969 C1968 1.397 . S
C1969 C1970 1.334 . S
C1970 H1941 0.950 . S
C1970 C1969 1.334 . S
C1970 C1971 1.287 . S
C1971 C1970 1.287 . S
C1971 C1972 1.524 . S
C1971 H1974 0.999 . S
C1972 H1942 0.950 . S
C1972 C1971 1.524 . S
C1972 C1973 1.415 . S
C1973 H1943 0.950 . S
C1973 C1968 1.363 . S
C1973 C1972 1.415 . S
H1974 C1971 0.999 . S
H1975 C1956 0.913 . S
H1976 C1994 0.951 . S
H1977 C1996 0.951 . S
H1978 C1998 0.950 . S
H1979 C1999 0.950 . S
H1980 C2001 0.950 . S
H1981 C2004 0.950 . S
H1982 C2005 0.950 . S
H1983 C2007 0.950 . S
H1984 C2008 0.950 . S
H1985 C2009 0.951 . S
H1986 C2011 0.951 . S
H1987 C2013 0.950 . S
H1988 C2014 0.950 . S
H1989 C2016 0.950 . S
H1990 C2019 0.950 . S
H1991 C2020 0.950 . S
H1992 C2022 0.950 . S
H1993 C2023 0.950 . S
C1994 H1976 0.951 . S
C1994 C1995 1.366 . S
C1994 C1996 1.388 . S
C1995 C1994 1.366 . S
C1995 C1999 1.385 . S
C1996 H1977 0.951 . S
C1996 C1994 1.388 . S
C1996 C1997 1.366 . S
C1997 C1996 1.366 . S
C1997 C1998 1.414 . S
C1997 C2000 1.499 . S
C1998 H1978 0.950 . S
C1998 C1997 1.414 . S
C1998 C1999 1.374 . S
C1999 H1979 0.950 . S
C1999 C1995 1.385 . S
C1999 C1998 1.374 . S
C2000 C1997 1.499 . S
C2000 C2001 1.373 . S
C2000 C2002 1.389 . S
C2001 H1980 0.950 . S
C2001 C2000 1.373 . S
C2001 C2017 1.377 . S
C2002 C2000 1.389 . S
C2002 C2003 1.524 . S
C2002 C2016 1.377 . S
C2003 C2002 1.524 . S
C2003 C2004 1.397 . S
C2003 C2008 1.363 . S
C2004 H1981 0.950 . S
C2004 C2003 1.397 . S
C2004 C2005 1.334 . S
C2005 H1982 0.950 . S
C2005 C2004 1.334 . S
C2005 C2006 1.287 . S
C2006 C2005 1.287 . S
C2006 C2007 1.524 . S
C2006 H2025 0.913 . S
C2007 H1983 0.950 . S
C2007 C2006 1.524 . S
C2007 C2008 1.415 . S
C2008 H1984 0.950 . S
C2008 C2003 1.363 . S
C2008 C2007 1.415 . S
C2009 H1985 0.951 . S
C2009 C2010 1.366 . S
C2009 C2011 1.388 . S
C2010 C2009 1.366 . S
C2010 C2014 1.385 . S
C2011 H1986 0.951 . S
C2011 C2009 1.388 . S
C2011 C2012 1.366 . S
C2012 C2011 1.366 . S
C2012 C2013 1.414 . S
C2012 C2015 1.499 . S
C2013 H1987 0.950 . S
C2013 C2012 1.414 . S
C2013 C2014 1.374 . S
C2014 H1988 0.950 . S
C2014 C2010 1.385 . S
C2014 C2013 1.374 . S
C2015 C2012 1.499 . S
C2015 C2016 1.373 . S
C2015 C2017 1.389 . S
C2016 H1989 0.950 . S
C2016 C2002 1.377 . S
C2016 C2015 1.373 . S
C2017 C2001 1.377 . S
C2017 C2015 1.389 . S
C2017 C2018 1.524 . S
C2018 C2017 1.524 . S
C2018 C2019 1.397 . S
C2018 C2023 1.363 . S
C2019 H1990 0.950 . S
C2019 C2018 1.397 . S
C2019 C2020 1.334 . S
C2020 H1991 0.950 . S
C2020 C2019 1.334 . S
C2020 C2021 1.287 . S
C2021 C2020 1.287 . S
C2021 C2022 1.524 . S
C2021 H2024 0.999 . S
C2022 H1992 0.950 . S
C2022 C2021 1.524 . S
C2022 C2023 1.415 . S
C2023 H1993 0.950 . S
C2023 C2018 1.363 . S
C2023 C2022 1.415 . S
H2024 C2021 0.999 . S
H2025 C2006 0.913 . S
H2026 C2044 0.951 . S
H2027 C2046 0.951 . S
H2028 C2048 0.950 . S
H2029 C2049 0.950 . S
H2030 C2051 0.950 . S
H2031 C2054 0.950 . S
H2032 C2055 0.950 . S
H2033 C2057 0.950 . S
H2034 C2058 0.950 . S
H2035 C2059 0.951 . S
H2036 C2061 0.951 . S
H2037 C2063 0.950 . S
H2038 C2064 0.950 . S
H2039 C2066 0.950 . S
H2040 C2069 0.950 . S
H2041 C2070 0.950 . S
H2042 C2072 0.950 . S
H2043 C2073 0.950 . S
C2044 H2026 0.951 . S
C2044 C2045 1.366 . S
C2044 C2046 1.388 . S
C2045 C2044 1.366 . S
C2045 C2049 1.385 . S
C2046 H2027 0.951 . S
C2046 C2044 1.388 . S
C2046 C2047 1.366 . S
C2047 C2046 1.366 . S
C2047 C2048 1.414 . S
C2047 C2050 1.499 . S
C2048 H2028 0.950 . S
C2048 C2047 1.414 . S
C2048 C2049 1.374 . S
C2049 H2029 0.950 . S
C2049 C2045 1.385 . S
C2049 C2048 1.374 . S
C2050 C2047 1.499 . S
C2050 C2051 1.373 . S
C2050 C2052 1.389 . S
C2051 H2030 0.950 . S
C2051 C2050 1.373 . S
C2051 C2067 1.377 . S
C2052 C2050 1.389 . S
C2052 C2053 1.524 . S
C2052 C2066 1.377 . S
C2053 C2052 1.524 . S
C2053 C2054 1.397 . S
C2053 C2058 1.363 . S
C2054 H2031 0.950 . S
C2054 C2053 1.397 . S
C2054 C2055 1.334 . S
C2055 H2032 0.950 . S
C2055 C2054 1.334 . S
C2055 C2056 1.287 . S
C2056 C2055 1.287 . S
C2056 C2057 1.524 . S
C2056 H2075 0.913 . S
C2057 H2033 0.950 . S
C2057 C2056 1.524 . S
C2057 C2058 1.415 . S
C2058 H2034 0.950 . S
C2058 C2053 1.363 . S
C2058 C2057 1.415 . S
C2059 H2035 0.951 . S
C2059 C2060 1.366 . S
C2059 C2061 1.388 . S
C2060 C2059 1.366 . S
C2060 C2064 1.385 . S
C2061 H2036 0.951 . S
C2061 C2059 1.388 . S
C2061 C2062 1.366 . S
C2062 C2061 1.366 . S
C2062 C2063 1.414 . S
C2062 C2065 1.499 . S
C2063 H2037 0.950 . S
C2063 C2062 1.414 . S
C2063 C2064 1.374 . S
C2064 H2038 0.950 . S
C2064 C2060 1.385 . S
C2064 C2063 1.374 . S
C2065 C2062 1.499 . S
C2065 C2066 1.373 . S
C2065 C2067 1.389 . S
C2066 H2039 0.950 . S
C2066 C2052 1.377 . S
C2066 C2065 1.373 . S
C2067 C2051 1.377 . S
C2067 C2065 1.389 . S
C2067 C2068 1.524 . S
C2068 C2067 1.524 . S
C2068 C2069 1.397 . S
C2068 C2073 1.363 . S
C2069 H2040 0.950 . S
C2069 C2068 1.397 . S
C2069 C2070 1.334 . S
C2070 H2041 0.950 . S
C2070 C2069 1.334 . S
C2070 C2071 1.287 . S
C2071 C2070 1.287 . S
C2071 C2072 1.524 . S
C2071 H2074 0.999 . S
C2072 H2042 0.950 . S
C2072 C2071 1.524 . S
C2072 C2073 1.415 . S
C2073 H2043 0.950 . S
C2073 C2068 1.363 . S
C2073 C2072 1.415 . S
H2074 C2071 0.999 . S
H2075 C2056 0.913 . S
H2076 C2094 0.951 . S
H2077 C2096 0.951 . S
H2078 C2098 0.950 . S
H2079 C2099 0.950 . S
H2080 C2101 0.950 . S
H2081 C2104 0.950 . S
H2082 C2105 0.950 . S
H2083 C2107 0.950 . S
H2084 C2108 0.950 . S
H2085 C2109 0.951 . S
H2086 C2111 0.951 . S
H2087 C2113 0.950 . S
H2088 C2114 0.950 . S
H2089 C2116 0.950 . S
H2090 C2119 0.950 . S
H2091 C2120 0.950 . S
H2092 C2122 0.950 . S
H2093 C2123 0.950 . S
C2094 H2076 0.951 . S
C2094 C2095 1.366 . S
C2094 C2096 1.388 . S
C2095 C2094 1.366 . S
C2095 C2099 1.385 . S
C2096 H2077 0.951 . S
C2096 C2094 1.388 . S
C2096 C2097 1.366 . S
C2097 C2096 1.366 . S
C2097 C2098 1.414 . S
C2097 C2100 1.499 . S
C2098 H2078 0.950 . S
C2098 C2097 1.414 . S
C2098 C2099 1.374 . S
C2099 H2079 0.950 . S
C2099 C2095 1.385 . S
C2099 C2098 1.374 . S
C2100 C2097 1.499 . S
C2100 C2101 1.373 . S
C2100 C2102 1.389 . S
C2101 H2080 0.950 . S
C2101 C2100 1.373 . S
C2101 C2117 1.377 . S
C2102 C2100 1.389 . S
C2102 C2103 1.524 . S
C2102 C2116 1.377 . S
C2103 C2102 1.524 . S
C2103 C2104 1.397 . S
C2103 C2108 1.363 . S
C2104 H2081 0.950 . S
C2104 C2103 1.397 . S
C2104 C2105 1.334 . S
C2105 H2082 0.950 . S
C2105 C2104 1.334 . S
C2105 C2106 1.287 . S
C2106 C2105 1.287 . S
C2106 C2107 1.524 . S
C2106 H2125 0.913 . S
C2107 H2083 0.950 . S
C2107 C2106 1.524 . S
C2107 C2108 1.415 . S
C2108 H2084 0.950 . S
C2108 C2103 1.363 . S
C2108 C2107 1.415 . S
C2109 H2085 0.951 . S
C2109 C2110 1.366 . S
C2109 C2111 1.388 . S
C2110 C2109 1.366 . S
C2110 C2114 1.385 . S
C2111 H2086 0.951 . S
C2111 C2109 1.388 . S
C2111 C2112 1.366 . S
C2112 C2111 1.366 . S
C2112 C2113 1.414 . S
C2112 C2115 1.499 . S
C2113 H2087 0.950 . S
C2113 C2112 1.414 . S
C2113 C2114 1.374 . S
C2114 H2088 0.950 . S
C2114 C2110 1.385 . S
C2114 C2113 1.374 . S
C2115 C2112 1.499 . S
C2115 C2116 1.373 . S
C2115 C2117 1.389 . S
C2116 H2089 0.950 . S
C2116 C2102 1.377 . S
C2116 C2115 1.373 . S
C2117 C2101 1.377 . S
C2117 C2115 1.389 . S
C2117 C2118 1.524 . S
C2118 C2117 1.524 . S
C2118 C2119 1.397 . S
C2118 C2123 1.363 . S
C2119 H2090 0.950 . S
C2119 C2118 1.397 . S
C2119 C2120 1.334 . S
C2120 H2091 0.950 . S
C2120 C2119 1.334 . S
C2120 C2121 1.287 . S
C2121 C2120 1.287 . S
C2121 C2122 1.524 . S
C2121 H2124 0.999 . S
C2122 H2092 0.950 . S
C2122 C2121 1.524 . S
C2122 C2123 1.415 . S
C2123 H2093 0.950 . S
C2123 C2118 1.363 . S
C2123 C2122 1.415 . S
H2124 C2121 0.999 . S
H2125 C2106 0.913 . S
H2126 C2144 0.951 . S
H2127 C2146 0.951 . S
H2128 C2148 0.950 . S
H2129 C2149 0.950 . S
H2130 C2151 0.950 . S
H2131 C2154 0.950 . S
H2132 C2155 0.950 . S
H2133 C2157 0.950 . S
H2134 C2158 0.950 . S
H2135 C2159 0.951 . S
H2136 C2161 0.951 . S
H2137 C2163 0.950 . S
H2138 C2164 0.950 . S
H2139 C2166 0.950 . S
H2140 C2169 0.950 . S
H2141 C2170 0.950 . S
H2142 C2172 0.950 . S
H2143 C2173 0.950 . S
C2144 H2126 0.951 . S
C2144 C2145 1.366 . S
C2144 C2146 1.388 . S
C2145 C2144 1.366 . S
C2145 C2149 1.385 . S
C2146 H2127 0.951 . S
C2146 C2144 1.388 . S
C2146 C2147 1.366 . S
C2147 C2146 1.366 . S
C2147 C2148 1.414 . S
C2147 C2150 1.499 . S
C2148 H2128 0.950 . S
C2148 C2147 1.414 . S
C2148 C2149 1.374 . S
C2149 H2129 0.950 . S
C2149 C2145 1.385 . S
C2149 C2148 1.374 . S
C2150 C2147 1.499 . S
C2150 C2151 1.373 . S
C2150 C2152 1.389 . S
C2151 H2130 0.950 . S
C2151 C2150 1.373 . S
C2151 C2167 1.377 . S
C2152 C2150 1.389 . S
C2152 C2153 1.524 . S
C2152 C2166 1.377 . S
C2153 C2152 1.524 . S
C2153 C2154 1.397 . S
C2153 C2158 1.363 . S
C2154 H2131 0.950 . S
C2154 C2153 1.397 . S
C2154 C2155 1.334 . S
C2155 H2132 0.950 . S
C2155 C2154 1.334 . S
C2155 C2156 1.287 . S
C2156 C2155 1.287 . S
C2156 C2157 1.524 . S
C2156 H2175 0.913 . S
C2157 H2133 0.950 . S
C2157 C2156 1.524 . S
C2157 C2158 1.415 . S
C2158 H2134 0.950 . S
C2158 C2153 1.363 . S
C2158 C2157 1.415 . S
C2159 H2135 0.951 . S
C2159 C2160 1.366 . S
C2159 C2161 1.388 . S
C2160 C2159 1.366 . S
C2160 C2164 1.385 . S
C2161 H2136 0.951 . S
C2161 C2159 1.388 . S
C2161 C2162 1.366 . S
C2162 C2161 1.366 . S
C2162 C2163 1.414 . S
C2162 C2165 1.499 . S
C2163 H2137 0.950 . S
C2163 C2162 1.414 . S
C2163 C2164 1.374 . S
C2164 H2138 0.950 . S
C2164 C2160 1.385 . S
C2164 C2163 1.374 . S
C2165 C2162 1.499 . S
C2165 C2166 1.373 . S
C2165 C2167 1.389 . S
C2166 H2139 0.950 . S
C2166 C2152 1.377 . S
C2166 C2165 1.373 . S
C2167 C2151 1.377 . S
C2167 C2165 1.389 . S
C2167 C2168 1.524 . S
C2168 C2167 1.524 . S
C2168 C2169 1.397 . S
C2168 C2173 1.363 . S
C2169 H2140 0.950 . S
C2169 C2168 1.397 . S
C2169 C2170 1.334 . S
C2170 H2141 0.950 . S
C2170 C2169 1.334 . S
C2170 C2171 1.287 . S
C2171 C2170 1.287 . S
C2171 C2172 1.524 . S
C2171 H2174 0.999 . S
C2172 H2142 0.950 . S
C2172 C2171 1.524 . S
C2172 C2173 1.415 . S
C2173 H2143 0.950 . S
C2173 C2168 1.363 . S
C2173 C2172 1.415 . S
H2174 C2171 0.999 . S
H2175 C2156 0.913 . S
H2176 C2194 0.951 . S
H2177 C2196 0.951 . S
H2178 C2198 0.950 . S
H2179 C2199 0.950 . S
H2180 C2201 0.950 . S
H2181 C2204 0.950 . S
H2182 C2205 0.950 . S
H2183 C2207 0.950 . S
H2184 C2208 0.950 . S
H2185 C2209 0.951 . S
H2186 C2211 0.951 . S
H2187 C2213 0.950 . S
H2188 C2214 0.950 . S
H2189 C2216 0.950 . S
H2190 C2219 0.950 . S
H2191 C2220 0.950 . S
H2192 C2222 0.950 . S
H2193 C2223 0.950 . S
C2194 H2176 0.951 . S
C2194 C2195 1.366 . S
C2194 C2196 1.388 . S
C2195 C2194 1.366 . S
C2195 C2199 1.385 . S
C2196 H2177 0.951 . S
C2196 C2194 1.388 . S
C2196 C2197 1.366 . S
C2197 C2196 1.366 . S
C2197 C2198 1.414 . S
C2197 C2200 1.499 . S
C2198 H2178 0.950 . S
C2198 C2197 1.414 . S
C2198 C2199 1.374 . S
C2199 H2179 0.950 . S
C2199 C2195 1.385 . S
C2199 C2198 1.374 . S
C2200 C2197 1.499 . S
C2200 C2201 1.373 . S
C2200 C2202 1.389 . S
C2201 H2180 0.950 . S
C2201 C2200 1.373 . S
C2201 C2217 1.377 . S
C2202 C2200 1.389 . S
C2202 C2203 1.524 . S
C2202 C2216 1.377 . S
C2203 C2202 1.524 . S
C2203 C2204 1.397 . S
C2203 C2208 1.363 . S
C2204 H2181 0.950 . S
C2204 C2203 1.397 . S
C2204 C2205 1.334 . S
C2205 H2182 0.950 . S
C2205 C2204 1.334 . S
C2205 C2206 1.287 1_455 S
C2206 C2205 1.287 1_655 S
C2206 C2207 1.524 . S
C2206 H2225 0.913 . S
C2207 H2183 0.950 . S
C2207 C2206 1.524 . S
C2207 C2208 1.415 1_655 S
C2208 H2184 0.950 . S
C2208 C2203 1.363 . S
C2208 C2207 1.415 1_455 S
C2209 H2185 0.951 . S
C2209 C2210 1.366 . S
C2209 C2211 1.388 . S
C2210 C2209 1.366 . S
C2210 C2214 1.385 . S
C2211 H2186 0.951 . S
C2211 C2209 1.388 . S
C2211 C2212 1.366 . S
C2212 C2211 1.366 . S
C2212 C2213 1.414 . S
C2212 C2215 1.499 . S
C2213 H2187 0.950 . S
C2213 C2212 1.414 . S
C2213 C2214 1.374 . S
C2214 H2188 0.950 . S
C2214 C2210 1.385 . S
C2214 C2213 1.374 . S
C2215 C2212 1.499 . S
C2215 C2216 1.373 . S
C2215 C2217 1.389 . S
C2216 H2189 0.950 . S
C2216 C2202 1.377 . S
C2216 C2215 1.373 . S
C2217 C2201 1.377 . S
C2217 C2215 1.389 . S
C2217 C2218 1.524 . S
C2218 C2217 1.524 . S
C2218 C2219 1.397 . S
C2218 C2223 1.363 . S
C2219 H2190 0.950 . S
C2219 C2218 1.397 . S
C2219 C2220 1.334 . S
C2220 H2191 0.950 . S
C2220 C2219 1.334 . S
C2220 C2221 1.287 . S
C2221 C2220 1.287 . S
C2221 C2222 1.524 . S
C2221 H2224 0.999 . S
C2222 H2192 0.950 . S
C2222 C2221 1.524 . S
C2222 C2223 1.415 . S
C2223 H2193 0.950 . S
C2223 C2218 1.363 . S
C2223 C2222 1.415 . S
H2224 C2221 0.999 . S
H2225 C2206 0.913 . S
H2226 C2244 0.951 . S
H2227 C2246 0.951 . S
H2228 C2248 0.950 . S
H2229 C2249 0.950 . S
H2230 C2251 0.950 . S
H2231 C2254 0.950 . S
H2232 C2255 0.950 . S
H2233 C2257 0.950 . S
H2234 C2258 0.950 . S
H2235 C2259 0.951 . S
H2236 C2261 0.951 . S
H2237 C2263 0.950 . S
H2238 C2264 0.950 . S
H2239 C2266 0.950 . S
H2240 C2269 0.950 . S
H2241 C2270 0.950 . S
H2242 C2272 0.950 . S
H2243 C2273 0.950 . S
C2244 H2226 0.951 . S
C2244 C2245 1.366 . S
C2244 C2246 1.388 . S
C2245 C2244 1.366 . S
C2245 C2249 1.385 . S
C2246 H2227 0.951 . S
C2246 C2244 1.388 . S
C2246 C2247 1.366 . S
C2247 C2246 1.366 . S
C2247 C2248 1.414 . S
C2247 C2250 1.499 . S
C2248 H2228 0.950 . S
C2248 C2247 1.414 . S
C2248 C2249 1.374 . S
C2249 H2229 0.950 . S
C2249 C2245 1.385 . S
C2249 C2248 1.374 . S
C2250 C2247 1.499 . S
C2250 C2251 1.373 . S
C2250 C2252 1.389 . S
C2251 H2230 0.950 . S
C2251 C2250 1.373 . S
C2251 C2267 1.377 . S
C2252 C2250 1.389 . S
C2252 C2253 1.524 . S
C2252 C2266 1.377 . S
C2253 C2252 1.524 . S
C2253 C2254 1.397 . S
C2253 C2258 1.363 . S
C2254 H2231 0.950 . S
C2254 C2253 1.397 . S
C2254 C2255 1.334 . S
C2255 H2232 0.950 . S
C2255 C2254 1.334 . S
C2255 C2256 1.287 . S
C2256 C2255 1.287 . S
C2256 C2257 1.524 . S
C2256 H2275 0.913 . S
C2257 H2233 0.950 . S
C2257 C2256 1.524 . S
C2257 C2258 1.415 . S
C2258 H2234 0.950 . S
C2258 C2253 1.363 . S
C2258 C2257 1.415 . S
C2259 H2235 0.951 . S
C2259 C2260 1.366 . S
C2259 C2261 1.388 . S
C2260 C2259 1.366 . S
C2260 C2264 1.385 . S
C2261 H2236 0.951 . S
C2261 C2259 1.388 . S
C2261 C2262 1.366 . S
C2262 C2261 1.366 . S
C2262 C2263 1.414 . S
C2262 C2265 1.499 . S
C2263 H2237 0.950 . S
C2263 C2262 1.414 . S
C2263 C2264 1.374 . S
C2264 H2238 0.950 . S
C2264 C2260 1.385 . S
C2264 C2263 1.374 . S
C2265 C2262 1.499 . S
C2265 C2266 1.373 . S
C2265 C2267 1.389 . S
C2266 H2239 0.950 . S
C2266 C2252 1.377 . S
C2266 C2265 1.373 . S
C2267 C2251 1.377 . S
C2267 C2265 1.389 . S
C2267 C2268 1.524 . S
C2268 C2267 1.524 . S
C2268 C2269 1.397 . S
C2268 C2273 1.363 . S
C2269 H2240 0.950 . S
C2269 C2268 1.397 . S
C2269 C2270 1.334 . S
C2270 H2241 0.950 . S
C2270 C2269 1.334 . S
C2270 C2271 1.287 . S
C2271 C2270 1.287 . S
C2271 C2272 1.524 . S
C2271 H2274 0.999 . S
C2272 H2242 0.950 . S
C2272 C2271 1.524 . S
C2272 C2273 1.415 . S
C2273 H2243 0.950 . S
C2273 C2268 1.363 . S
C2273 C2272 1.415 . S
H2274 C2271 0.999 . S
H2275 C2256 0.913 . S
H2276 C2294 0.951 . S
H2277 C2296 0.951 . S
H2278 C2298 0.950 . S
H2279 C2299 0.950 . S
H2280 C2301 0.950 . S
H2281 C2304 0.950 . S
H2282 C2305 0.950 . S
H2283 C2307 0.950 . S
H2284 C2308 0.950 . S
H2285 C2309 0.951 . S
H2286 C2311 0.951 . S
H2287 C2313 0.950 . S
H2288 C2314 0.950 . S
H2289 C2316 0.950 . S
H2290 C2319 0.950 . S
H2291 C2320 0.950 . S
H2292 C2322 0.950 . S
H2293 C2323 0.950 . S
C2294 H2276 0.951 . S
C2294 C2295 1.366 . S
C2294 C2296 1.388 . S
C2295 C2294 1.366 . S
C2295 C2299 1.385 . S
C2296 H2277 0.951 . S
C2296 C2294 1.388 . S
C2296 C2297 1.366 . S
C2297 C2296 1.366 . S
C2297 C2298 1.414 . S
C2297 C2300 1.499 . S
C2298 H2278 0.950 . S
C2298 C2297 1.414 . S
C2298 C2299 1.374 . S
C2299 H2279 0.950 . S
C2299 C2295 1.385 . S
C2299 C2298 1.374 . S
C2300 C2297 1.499 . S
C2300 C2301 1.373 . S
C2300 C2302 1.389 . S
C2301 H2280 0.950 . S
C2301 C2300 1.373 . S
C2301 C2317 1.377 . S
C2302 C2300 1.389 . S
C2302 C2303 1.524 . S
C2302 C2316 1.377 . S
C2303 C2302 1.524 . S
C2303 C2304 1.397 . S
C2303 C2308 1.363 . S
C2304 H2281 0.950 . S
C2304 C2303 1.397 . S
C2304 C2305 1.334 . S
C2305 H2282 0.950 . S
C2305 C2304 1.334 . S
C2305 C2306 1.287 . S
C2306 C2305 1.287 . S
C2306 C2307 1.524 . S
C2306 H2325 0.913 . S
C2307 H2283 0.950 . S
C2307 C2306 1.524 . S
C2307 C2308 1.415 . S
C2308 H2284 0.950 . S
C2308 C2303 1.363 . S
C2308 C2307 1.415 . S
C2309 H2285 0.951 . S
C2309 C2310 1.366 . S
C2309 C2311 1.388 . S
C2310 C2309 1.366 . S
C2310 C2314 1.385 . S
C2311 H2286 0.951 . S
C2311 C2309 1.388 . S
C2311 C2312 1.366 . S
C2312 C2311 1.366 . S
C2312 C2313 1.414 . S
C2312 C2315 1.499 . S
C2313 H2287 0.950 . S
C2313 C2312 1.414 . S
C2313 C2314 1.374 . S
C2314 H2288 0.950 . S
C2314 C2310 1.385 . S
C2314 C2313 1.374 . S
C2315 C2312 1.499 . S
C2315 C2316 1.373 . S
C2315 C2317 1.389 . S
C2316 H2289 0.950 . S
C2316 C2302 1.377 . S
C2316 C2315 1.373 . S
C2317 C2301 1.377 . S
C2317 C2315 1.389 . S
C2317 C2318 1.524 . S
C2318 C2317 1.524 . S
C2318 C2319 1.397 . S
C2318 C2323 1.363 . S
C2319 H2290 0.950 . S
C2319 C2318 1.397 . S
C2319 C2320 1.334 . S
C2320 H2291 0.950 . S
C2320 C2319 1.334 . S
C2320 C2321 1.287 . S
C2321 C2320 1.287 . S
C2321 C2322 1.524 . S
C2321 H2324 0.999 . S
C2322 H2292 0.950 . S
C2322 C2321 1.524 . S
C2322 C2323 1.415 . S
C2323 H2293 0.950 . S
C2323 C2318 1.363 . S
C2323 C2322 1.415 . S
H2324 C2321 0.999 . S
H2325 C2306 0.913 . S
H2326 C2344 0.951 . S
H2327 C2346 0.951 . S
H2328 C2348 0.950 . S
H2329 C2349 0.950 . S
H2330 C2351 0.950 . S
H2331 C2354 0.950 . S
H2332 C2355 0.950 . S
H2333 C2357 0.950 . S
H2334 C2358 0.950 . S
H2335 C2359 0.951 . S
H2336 C2361 0.951 . S
H2337 C2363 0.950 . S
H2338 C2364 0.950 . S
H2339 C2366 0.950 . S
H2340 C2369 0.950 . S
H2341 C2370 0.950 . S
H2342 C2372 0.950 . S
H2343 C2373 0.950 . S
C2344 H2326 0.951 . S
C2344 C2345 1.366 . S
C2344 C2346 1.388 . S
C2345 C2344 1.366 . S
C2345 C2349 1.385 . S
C2346 H2327 0.951 . S
C2346 C2344 1.388 . S
C2346 C2347 1.366 . S
C2347 C2346 1.366 . S
C2347 C2348 1.414 . S
C2347 C2350 1.499 . S
C2348 H2328 0.950 . S
C2348 C2347 1.414 . S
C2348 C2349 1.374 . S
C2349 H2329 0.950 . S
C2349 C2345 1.385 . S
C2349 C2348 1.374 . S
C2350 C2347 1.499 . S
C2350 C2351 1.373 . S
C2350 C2352 1.389 . S
C2351 H2330 0.950 . S
C2351 C2350 1.373 . S
C2351 C2367 1.377 . S
C2352 C2350 1.389 . S
C2352 C2353 1.524 . S
C2352 C2366 1.377 . S
C2353 C2352 1.524 . S
C2353 C2354 1.397 . S
C2353 C2358 1.363 . S
C2354 H2331 0.950 . S
C2354 C2353 1.397 . S
C2354 C2355 1.334 . S
C2355 H2332 0.950 . S
C2355 C2354 1.334 . S
C2355 C2356 1.287 . S
C2356 C2355 1.287 . S
C2356 C2357 1.524 . S
C2356 H2375 0.913 . S
C2357 H2333 0.950 . S
C2357 C2356 1.524 . S
C2357 C2358 1.415 . S
C2358 H2334 0.950 . S
C2358 C2353 1.363 . S
C2358 C2357 1.415 . S
C2359 H2335 0.951 . S
C2359 C2360 1.366 . S
C2359 C2361 1.388 . S
C2360 C2359 1.366 . S
C2360 C2364 1.385 . S
C2361 H2336 0.951 . S
C2361 C2359 1.388 . S
C2361 C2362 1.366 . S
C2362 C2361 1.366 . S
C2362 C2363 1.414 . S
C2362 C2365 1.499 . S
C2363 H2337 0.950 . S
C2363 C2362 1.414 . S
C2363 C2364 1.374 . S
C2364 H2338 0.950 . S
C2364 C2360 1.385 . S
C2364 C2363 1.374 . S
C2365 C2362 1.499 . S
C2365 C2366 1.373 . S
C2365 C2367 1.389 . S
C2366 H2339 0.950 . S
C2366 C2352 1.377 . S
C2366 C2365 1.373 . S
C2367 C2351 1.377 . S
C2367 C2365 1.389 . S
C2367 C2368 1.524 . S
C2368 C2367 1.524 . S
C2368 C2369 1.397 . S
C2368 C2373 1.363 . S
C2369 H2340 0.950 . S
C2369 C2368 1.397 . S
C2369 C2370 1.334 . S
C2370 H2341 0.950 . S
C2370 C2369 1.334 . S
C2370 C2371 1.287 . S
C2371 C2370 1.287 . S
C2371 C2372 1.524 . S
C2371 H2374 0.999 . S
C2372 H2342 0.950 . S
C2372 C2371 1.524 . S
C2372 C2373 1.415 . S
C2373 H2343 0.950 . S
C2373 C2368 1.363 . S
C2373 C2372 1.415 . S
H2374 C2371 0.999 . S
H2375 C2356 0.913 . S
H2376 C2394 0.951 . S
H2377 C2396 0.951 . S
H2378 C2398 0.950 . S
H2379 C2399 0.950 . S
H2380 C2401 0.950 . S
H2381 C2404 0.950 . S
H2382 C2405 0.950 . S
H2383 C2407 0.950 . S
H2384 C2408 0.950 . S
H2385 C2409 0.951 . S
H2386 C2411 0.951 . S
H2387 C2413 0.950 . S
H2388 C2414 0.950 . S
H2389 C2416 0.950 . S
H2390 C2419 0.950 . S
H2391 C2420 0.950 . S
H2392 C2422 0.950 1_655 S
H2393 C2423 0.950 . S
C2394 H2376 0.951 . S
C2394 C2395 1.366 . S
C2394 C2396 1.388 . S
C2395 C2394 1.366 . S
C2395 C2399 1.385 . S
C2396 H2377 0.951 . S
C2396 C2394 1.388 . S
C2396 C2397 1.366 . S
C2397 C2396 1.366 . S
C2397 C2398 1.414 . S
C2397 C2400 1.499 . S
C2398 H2378 0.950 . S
C2398 C2397 1.414 . S
C2398 C2399 1.374 . S
C2399 H2379 0.950 . S
C2399 C2395 1.385 . S
C2399 C2398 1.374 . S
C2400 C2397 1.499 . S
C2400 C2401 1.373 . S
C2400 C2402 1.389 . S
C2401 H2380 0.950 . S
C2401 C2400 1.373 . S
C2401 C2417 1.377 . S
C2402 C2400 1.389 . S
C2402 C2403 1.524 . S
C2402 C2416 1.377 . S
C2403 C2402 1.524 . S
C2403 C2404 1.397 . S
C2403 C2408 1.363 . S
C2404 H2381 0.950 . S
C2404 C2403 1.397 . S
C2404 C2405 1.334 . S
C2405 H2382 0.950 . S
C2405 C2404 1.334 . S
C2405 C2406 1.287 . S
C2406 C2405 1.287 . S
C2406 C2407 1.524 . S
C2406 H2425 0.913 . S
C2407 H2383 0.950 . S
C2407 C2406 1.524 . S
C2407 C2408 1.415 . S
C2408 H2384 0.950 . S
C2408 C2403 1.363 . S
C2408 C2407 1.415 . S
C2409 H2385 0.951 . S
C2409 C2410 1.366 . S
C2409 C2411 1.388 . S
C2410 C2409 1.366 . S
C2410 C2414 1.385 . S
C2411 H2386 0.951 . S
C2411 C2409 1.388 . S
C2411 C2412 1.366 . S
C2412 C2411 1.366 . S
C2412 C2413 1.414 . S
C2412 C2415 1.499 . S
C2413 H2387 0.950 . S
C2413 C2412 1.414 . S
C2413 C2414 1.374 . S
C2414 H2388 0.950 . S
C2414 C2410 1.385 . S
C2414 C2413 1.374 . S
C2415 C2412 1.499 . S
C2415 C2416 1.373 . S
C2415 C2417 1.389 . S
C2416 H2389 0.950 . S
C2416 C2402 1.377 . S
C2416 C2415 1.373 . S
C2417 C2401 1.377 . S
C2417 C2415 1.389 . S
C2417 C2418 1.524 . S
C2418 C2417 1.524 . S
C2418 C2419 1.397 . S
C2418 C2423 1.363 . S
C2419 H2390 0.950 . S
C2419 C2418 1.397 . S
C2419 C2420 1.334 . S
C2420 H2391 0.950 . S
C2420 C2419 1.334 . S
C2420 C2421 1.287 . S
C2421 C2420 1.287 . S
C2421 C2422 1.524 . S
C2421 H2424 0.999 . S
C2422 H2392 0.950 1_455 S
C2422 C2421 1.524 . S
C2422 C2423 1.415 . S
C2423 H2393 0.950 . S
C2423 C2418 1.363 . S
C2423 C2422 1.415 . S
H2424 C2421 0.999 . S
H2425 C2406 0.913 . S
H2426 C2444 0.951 . S
H2427 C2446 0.951 . S
H2428 C2448 0.950 . S
H2429 C2449 0.950 . S
H2430 C2451 0.950 . S
H2431 C2454 0.950 . S
H2432 C2455 0.950 . S
H2433 C2457 0.950 . S
H2434 C2458 0.950 . S
H2435 C2459 0.951 . S
H2436 C2461 0.951 . S
H2437 C2463 0.950 . S
H2438 C2464 0.950 . S
H2439 C2466 0.950 . S
H2440 C2469 0.950 . S
H2441 C2470 0.950 . S
H2442 C2472 0.950 . S
H2443 C2473 0.950 . S
C2444 H2426 0.951 . S
C2444 C2445 1.366 . S
C2444 C2446 1.388 . S
C2445 C2444 1.366 . S
C2445 C2449 1.385 . S
C2446 H2427 0.951 . S
C2446 C2444 1.388 . S
C2446 C2447 1.366 . S
C2447 C2446 1.366 . S
C2447 C2448 1.414 . S
C2447 C2450 1.499 . S
C2448 H2428 0.950 . S
C2448 C2447 1.414 . S
C2448 C2449 1.374 . S
C2449 H2429 0.950 . S
C2449 C2445 1.385 . S
C2449 C2448 1.374 . S
C2450 C2447 1.499 . S
C2450 C2451 1.373 . S
C2450 C2452 1.389 . S
C2451 H2430 0.950 . S
C2451 C2450 1.373 . S
C2451 C2467 1.377 . S
C2452 C2450 1.389 . S
C2452 C2453 1.524 . S
C2452 C2466 1.377 . S
C2453 C2452 1.524 . S
C2453 C2454 1.397 . S
C2453 C2458 1.363 . S
C2454 H2431 0.950 . S
C2454 C2453 1.397 . S
C2454 C2455 1.334 . S
C2455 H2432 0.950 . S
C2455 C2454 1.334 . S
C2455 C2456 1.287 . S
C2456 C2455 1.287 . S
C2456 C2457 1.524 . S
C2456 H2475 0.913 . S
C2457 H2433 0.950 . S
C2457 C2456 1.524 . S
C2457 C2458 1.415 . S
C2458 H2434 0.950 . S
C2458 C2453 1.363 . S
C2458 C2457 1.415 . S
C2459 H2435 0.951 . S
C2459 C2460 1.366 . S
C2459 C2461 1.388 . S
C2460 C2459 1.366 . S
C2460 C2464 1.385 . S
C2461 H2436 0.951 . S
C2461 C2459 1.388 . S
C2461 C2462 1.366 . S
C2462 C2461 1.366 . S
C2462 C2463 1.414 . S
C2462 C2465 1.499 . S
C2463 H2437 0.950 . S
C2463 C2462 1.414 . S
C2463 C2464 1.374 . S
C2464 H2438 0.950 . S
C2464 C2460 1.385 . S
C2464 C2463 1.374 . S
C2465 C2462 1.499 . S
C2465 C2466 1.373 . S
C2465 C2467 1.389 . S
C2466 H2439 0.950 . S
C2466 C2452 1.377 . S
C2466 C2465 1.373 . S
C2467 C2451 1.377 . S
C2467 C2465 1.389 . S
C2467 C2468 1.524 . S
C2468 C2467 1.524 . S
C2468 C2469 1.397 . S
C2468 C2473 1.363 . S
C2469 H2440 0.950 . S
C2469 C2468 1.397 . S
C2469 C2470 1.334 . S
C2470 H2441 0.950 . S
C2470 C2469 1.334 . S
C2470 C2471 1.287 . S
C2471 C2470 1.287 . S
C2471 C2472 1.524 . S
C2471 H2474 0.999 . S
C2472 H2442 0.950 . S
C2472 C2471 1.524 . S
C2472 C2473 1.415 . S
C2473 H2443 0.950 . S
C2473 C2468 1.363 . S
C2473 C2472 1.415 . S
H2474 C2471 0.999 . S
H2475 C2456 0.913 . S
H2476 C2494 0.951 . S
H2477 C2496 0.951 . S
H2478 C2498 0.950 . S
H2479 C2499 0.950 . S
H2480 C2501 0.950 . S
H2481 C2504 0.950 . S
H2482 C2505 0.950 . S
H2483 C2507 0.950 . S
H2484 C2508 0.950 . S
H2485 C2509 0.951 1_554 S
H2486 C2511 0.951 . S
H2487 C2513 0.950 . S
H2488 C2514 0.924 1_545 S
H2489 C2516 0.950 . S
H2490 C2519 0.950 . S
H2491 C2520 0.950 . S
H2492 C2522 0.950 . S
H2493 C2523 0.950 . S
C2494 H2476 0.951 . S
C2494 C2495 1.366 . S
C2494 C2496 1.388 . S
C2495 C2494 1.366 . S
C2495 C2499 1.385 . S
C2496 H2477 0.951 . S
C2496 C2494 1.388 . S
C2496 C2497 1.366 . S
C2497 C2496 1.366 . S
C2497 C2498 1.414 . S
C2497 C2500 1.499 . S
C2498 H2478 0.950 . S
C2498 C2497 1.414 . S
C2498 C2499 1.374 . S
C2499 H2479 0.950 . S
C2499 C2495 1.385 . S
C2499 C2498 1.374 . S
C2500 C2497 1.499 . S
C2500 C2501 1.373 . S
C2500 C2502 1.389 . S
C2501 H2480 0.950 . S
C2501 C2500 1.373 . S
C2501 C2517 1.377 . S
C2502 C2500 1.389 . S
C2502 C2503 1.524 . S
C2502 C2516 1.377 . S
C2503 C2502 1.524 . S
C2503 C2504 1.397 . S
C2503 C2508 1.363 . S
C2504 H2481 0.950 . S
C2504 C2503 1.397 . S
C2504 C2505 1.334 . S
C2505 H2482 0.950 . S
C2505 C2504 1.334 . S
C2505 C2506 1.287 . S
C2506 C2505 1.287 . S
C2506 C2507 1.524 . S
C2506 H2525 0.913 . S
C2507 H2483 0.950 . S
C2507 C2506 1.524 . S
C2507 C2508 1.415 . S
C2508 H2484 0.950 . S
C2508 C2503 1.363 . S
C2508 C2507 1.415 . S
C2509 H2485 0.951 1_556 S
C2509 C2510 1.366 . S
C2509 C2511 1.388 . S
C2510 C2509 1.366 . S
C2510 C2514 1.385 . S
C2511 H2486 0.951 . S
C2511 C2509 1.388 . S
C2511 C2512 1.366 . S
C2512 C2511 1.366 . S
C2512 C2513 1.414 . S
C2512 C2515 1.499 . S
C2513 H2487 0.950 . S
C2513 C2512 1.414 . S
C2513 C2514 1.374 . S
C2514 H2488 0.924 1_565 S
C2514 C2510 1.385 . S
C2514 C2513 1.374 . S
C2515 C2512 1.499 . S
C2515 C2516 1.373 . S
C2515 C2517 1.389 . S
C2516 H2489 0.950 . S
C2516 C2502 1.377 . S
C2516 C2515 1.373 . S
C2517 C2501 1.377 . S
C2517 C2515 1.389 . S
C2517 C2518 1.524 . S
C2518 C2517 1.524 . S
C2518 C2519 1.397 . S
C2518 C2523 1.363 . S
C2519 H2490 0.950 . S
C2519 C2518 1.397 . S
C2519 C2520 1.334 . S
C2520 H2491 0.950 . S
C2520 C2519 1.334 . S
C2520 C2521 1.287 . S
C2521 C2520 1.287 . S
C2521 C2522 1.524 . S
C2521 H2524 0.999 . S
C2522 H2492 0.950 . S
C2522 C2521 1.524 . S
C2522 C2523 1.415 . S
C2523 H2493 0.950 . S
C2523 C2518 1.363 . S
C2523 C2522 1.415 . S
H2524 C2521 0.999 . S
H2525 C2506 0.913 . S
H2526 C2544 0.951 . S
H2527 C2546 0.951 . S
H2528 C2548 0.950 . S
H2529 C2549 0.950 . S
H2530 C2551 0.950 . S
H2531 C2554 0.950 . S
H2532 C2555 0.950 . S
H2533 C2557 0.950 . S
H2534 C2558 0.950 . S
H2535 C2559 0.951 . S
H2536 C2561 0.951 . S
H2537 C2563 0.950 . S
H2538 C2564 0.950 . S
H2539 C2566 0.950 . S
H2540 C2569 0.950 . S
H2541 C2570 0.950 . S
H2542 C2572 0.950 . S
H2543 C2573 0.950 . S
C2544 H2526 0.951 . S
C2544 C2545 1.366 . S
C2544 C2546 1.388 . S
C2545 C2544 1.366 . S
C2545 C2549 1.385 . S
C2546 H2527 0.951 . S
C2546 C2544 1.388 . S
C2546 C2547 1.366 . S
C2547 C2546 1.366 . S
C2547 C2548 1.414 . S
C2547 C2550 1.499 . S
C2548 H2528 0.950 . S
C2548 C2547 1.414 . S
C2548 C2549 1.374 . S
C2549 H2529 0.950 . S
C2549 C2545 1.385 . S
C2549 C2548 1.374 . S
C2550 C2547 1.499 . S
C2550 C2551 1.373 . S
C2550 C2552 1.389 . S
C2551 H2530 0.950 . S
C2551 C2550 1.373 . S
C2551 C2567 1.377 . S
C2552 C2550 1.389 . S
C2552 C2553 1.524 . S
C2552 C2566 1.377 . S
C2553 C2552 1.524 . S
C2553 C2554 1.397 . S
C2553 C2558 1.363 . S
C2554 H2531 0.950 . S
C2554 C2553 1.397 . S
C2554 C2555 1.334 . S
C2555 H2532 0.950 . S
C2555 C2554 1.334 . S
C2555 C2556 1.287 . S
C2556 C2555 1.287 . S
C2556 C2557 1.524 . S
C2556 H2575 0.913 . S
C2557 H2533 0.950 . S
C2557 C2556 1.524 . S
C2557 C2558 1.415 . S
C2558 H2534 0.950 . S
C2558 C2553 1.363 . S
C2558 C2557 1.415 . S
C2559 H2535 0.951 . S
C2559 C2560 1.366 . S
C2559 C2561 1.388 . S
C2560 C2559 1.366 . S
C2560 C2564 1.385 . S
C2561 H2536 0.951 . S
C2561 C2559 1.388 . S
C2561 C2562 1.366 . S
C2562 C2561 1.366 . S
C2562 C2563 1.414 . S
C2562 C2565 1.499 . S
C2563 H2537 0.950 . S
C2563 C2562 1.414 . S
C2563 C2564 1.374 . S
C2564 H2538 0.950 . S
C2564 C2560 1.385 . S
C2564 C2563 1.374 . S
C2565 C2562 1.499 . S
C2565 C2566 1.373 . S
C2565 C2567 1.389 . S
C2566 H2539 0.950 . S
C2566 C2552 1.377 . S
C2566 C2565 1.373 . S
C2567 C2551 1.377 . S
C2567 C2565 1.389 . S
C2567 C2568 1.524 . S
C2568 C2567 1.524 . S
C2568 C2569 1.397 . S
C2568 C2573 1.363 . S
C2569 H2540 0.950 . S
C2569 C2568 1.397 . S
C2569 C2570 1.334 . S
C2570 H2541 0.950 . S
C2570 C2569 1.334 . S
C2570 C2571 1.287 . S
C2571 C2570 1.287 . S
C2571 C2572 1.524 . S
C2571 H2574 0.999 . S
C2572 H2542 0.950 . S
C2572 C2571 1.524 . S
C2572 C2573 1.415 . S
C2573 H2543 0.950 . S
C2573 C2568 1.363 . S
C2573 C2572 1.415 . S
H2574 C2571 0.999 . S
H2575 C2556 0.913 . S
H2576 C2594 0.951 . S
H2577 C2596 0.951 . S
H2578 C2598 0.950 . S
H2579 C2599 0.950 . S
H2580 C2601 0.979 . S
H2581 C2604 0.950 . S
H2582 C2605 0.950 . S
H2583 C2607 0.950 . S
H2584 C2608 0.950 . S
H2585 C2609 0.951 . S
H2586 C2611 0.951 . S
H2587 C2613 0.945 1_565 S
H2588 C2614 0.950 . S
H2589 C2616 0.950 . S
H2590 C2619 0.950 . S
H2591 C2620 0.950 . S
H2592 C2622 0.950 . S
H2593 C2623 0.950 . S
C2594 H2576 0.951 . S
C2594 C2595 1.366 1_565 S
C2594 C2596 1.388 . S
C2595 C2594 1.366 1_545 S
C2595 C2599 1.385 . S
C2596 H2577 0.951 . S
C2596 C2594 1.388 . S
C2596 C2597 1.366 1_565 S
C2597 C2596 1.366 1_545 S
C2597 C2598 1.414 . S
C2597 C2600 1.499 . S
C2598 H2578 0.950 . S
C2598 C2597 1.414 . S
C2598 C2599 1.374 . S
C2599 H2579 0.950 . S
C2599 C2595 1.385 . S
C2599 C2598 1.374 . S
C2600 C2597 1.499 . S
C2600 C2601 1.373 . S
C2600 C2602 1.389 . S
C2601 H2580 0.979 . S
C2601 C2600 1.373 . S
C2601 C2617 1.377 . S
C2602 C2600 1.389 . S
C2602 C2603 1.524 . S
C2602 C2616 1.377 . S
C2603 C2602 1.524 . S
C2603 C2604 1.397 . S
C2603 C2608 1.363 . S
C2604 H2581 0.950 . S
C2604 C2603 1.397 . S
C2604 C2605 1.334 . S
C2605 H2582 0.950 . S
C2605 C2604 1.334 . S
C2605 C2606 1.287 . S
C2606 C2605 1.287 . S
C2606 C2607 1.524 . S
C2606 H2625 0.913 . S
C2607 H2583 0.950 . S
C2607 C2606 1.524 . S
C2607 C2608 1.415 . S
C2608 H2584 0.950 . S
C2608 C2603 1.363 . S
C2608 C2607 1.415 . S
C2609 H2585 0.951 . S
C2609 C2610 1.366 . S
C2609 C2611 1.388 . S
C2610 C2609 1.366 . S
C2610 C2614 1.385 . S
C2611 H2586 0.951 . S
C2611 C2609 1.388 . S
C2611 C2612 1.366 . S
C2612 C2611 1.366 . S
C2612 C2613 1.414 . S
C2612 C2615 1.499 . S
C2613 H2587 0.945 1_545 S
C2613 C2612 1.414 . S
C2613 C2614 1.374 . S
C2614 H2588 0.950 . S
C2614 C2610 1.385 . S
C2614 C2613 1.374 . S
C2615 C2612 1.499 . S
C2615 C2616 1.373 . S
C2615 C2617 1.389 . S
C2616 H2589 0.950 . S
C2616 C2602 1.377 . S
C2616 C2615 1.373 . S
C2617 C2601 1.377 . S
C2617 C2615 1.389 . S
C2617 C2618 1.524 1_545 S
C2618 C2617 1.524 1_565 S
C2618 C2619 1.397 . S
C2618 C2623 1.363 1_565 S
C2619 H2590 0.950 . S
C2619 C2618 1.397 . S
C2619 C2620 1.334 . S
C2620 H2591 0.950 . S
C2620 C2619 1.334 . S
C2620 C2621 1.287 . S
C2621 C2620 1.287 . S
C2621 C2622 1.524 . S
C2621 H2624 0.999 . S
C2622 H2592 0.950 . S
C2622 C2621 1.524 . S
C2622 C2623 1.415 1_565 S
C2623 H2593 0.950 . S
C2623 C2618 1.363 1_545 S
C2623 C2622 1.415 1_545 S
H2624 C2621 0.999 . S
H2625 C2606 0.913 . S
H2626 C2644 0.951 . S
H2627 C2646 0.951 . S
H2628 C2648 0.950 . S
H2629 C2649 0.950 . S
H2630 C2651 0.950 . S
H2631 C2654 0.950 . S
H2632 C2655 0.950 . S
H2633 C2657 0.950 . S
H2634 C2658 0.950 . S
H2635 C2659 0.951 . S
H2636 C2661 0.951 . S
H2637 C2663 0.950 . S
H2638 C2664 0.950 . S
H2639 C2666 0.950 . S
H2640 C2669 0.950 . S
H2641 C2670 0.950 . S
H2642 C2672 0.950 . S
H2643 C2673 0.950 . S
C2644 H2626 0.951 . S
C2644 C2645 1.366 . S
C2644 C2646 1.388 . S
C2645 C2644 1.366 . S
C2645 C2649 1.385 . S
C2646 H2627 0.951 . S
C2646 C2644 1.388 . S
C2646 C2647 1.366 . S
C2647 C2646 1.366 . S
C2647 C2648 1.414 . S
C2647 C2650 1.499 . S
C2648 H2628 0.950 . S
C2648 C2647 1.414 . S
C2648 C2649 1.374 . S
C2649 H2629 0.950 . S
C2649 C2645 1.385 . S
C2649 C2648 1.374 . S
C2650 C2647 1.499 . S
C2650 C2651 1.373 . S
C2650 C2652 1.389 . S
C2651 H2630 0.950 . S
C2651 C2650 1.373 . S
C2651 C2667 1.377 . S
C2652 C2650 1.389 . S
C2652 C2653 1.524 . S
C2652 C2666 1.377 . S
C2653 C2652 1.524 . S
C2653 C2654 1.397 . S
C2653 C2658 1.363 . S
C2654 H2631 0.950 . S
C2654 C2653 1.397 . S
C2654 C2655 1.334 . S
C2655 H2632 0.950 . S
C2655 C2654 1.334 . S
C2655 C2656 1.287 . S
C2656 C2655 1.287 . S
C2656 C2657 1.524 . S
C2656 H2675 0.913 . S
C2657 H2633 0.950 . S
C2657 C2656 1.524 . S
C2657 C2658 1.415 . S
C2658 H2634 0.950 . S
C2658 C2653 1.363 . S
C2658 C2657 1.415 . S
C2659 H2635 0.951 . S
C2659 C2660 1.366 . S
C2659 C2661 1.388 . S
C2660 C2659 1.366 . S
C2660 C2664 1.385 . S
C2661 H2636 0.951 . S
C2661 C2659 1.388 . S
C2661 C2662 1.366 . S
C2662 C2661 1.366 . S
C2662 C2663 1.414 . S
C2662 C2665 1.499 . S
C2663 H2637 0.950 . S
C2663 C2662 1.414 . S
C2663 C2664 1.374 . S
C2664 H2638 0.950 . S
C2664 C2660 1.385 . S
C2664 C2663 1.374 . S
C2665 C2662 1.499 . S
C2665 C2666 1.373 . S
C2665 C2667 1.389 . S
C2666 H2639 0.950 . S
C2666 C2652 1.377 . S
C2666 C2665 1.373 . S
C2667 C2651 1.377 . S
C2667 C2665 1.389 . S
C2667 C2668 1.524 . S
C2668 C2667 1.524 . S
C2668 C2669 1.397 . S
C2668 C2673 1.363 . S
C2669 H2640 0.950 . S
C2669 C2668 1.397 . S
C2669 C2670 1.334 . S
C2670 H2641 0.950 . S
C2670 C2669 1.334 . S
C2670 C2671 1.287 . S
C2671 C2670 1.287 . S
C2671 C2672 1.524 . S
C2671 H2674 0.999 . S
C2672 H2642 0.950 . S
C2672 C2671 1.524 . S
C2672 C2673 1.415 . S
C2673 H2643 0.950 . S
C2673 C2668 1.363 . S
C2673 C2672 1.415 . S
H2674 C2671 0.999 . S
H2675 C2656 0.913 . S
H2676 C2694 0.951 . S
H2677 C2696 0.923 1_565 S
H2678 C2698 0.950 . S
H2679 C2699 0.950 . S
H2680 C2701 0.950 . S
H2681 C2704 0.950 . S
H2682 C2705 0.950 . S
H2683 C2707 0.950 . S
H2684 C2708 0.950 . S
H2685 C2709 0.951 . S
H2686 C2711 0.951 . S
H2687 C2713 0.950 1_565 S
H2688 C2714 1.003 . S
H2689 C2716 0.950 . S
H2690 C2719 0.950 . S
H2691 C2720 0.950 . S
H2692 C2722 0.950 . S
H2693 C2723 0.950 . S
C2694 H2676 0.951 . S
C2694 C2695 1.366 1_565 S
C2694 C2696 1.393 1_565 S
C2695 C2694 1.366 1_545 S
C2695 C2699 1.385 . S
C2696 H2677 0.923 1_545 S
C2696 C2694 1.393 1_545 S
C2696 C2697 1.388 . S
C2697 C2696 1.388 . S
C2697 C2698 1.414 . S
C2697 C2700 1.499 . S
C2698 H2678 0.950 . S
C2698 C2697 1.414 . S
C2698 C2699 1.374 . S
C2699 H2679 0.950 . S
C2699 C2695 1.385 . S
C2699 C2698 1.374 . S
C2700 C2697 1.499 . S
C2700 C2701 1.373 . S
C2700 C2702 1.389 . S
C2701 H2680 0.950 . S
C2701 C2700 1.373 . S
C2701 C2717 1.377 . S
C2702 C2700 1.389 . S
C2702 C2703 1.524 . S
C2702 C2716 1.377 . S
C2703 C2702 1.524 . S
C2703 C2704 1.397 . S
C2703 C2708 1.363 1_545 S
C2704 H2681 0.950 . S
C2704 C2703 1.397 . S
C2704 C2705 1.334 . S
C2705 H2682 0.950 . S
C2705 C2704 1.334 . S
C2705 C2706 1.287 . S
C2706 C2705 1.287 . S
C2706 C2707 1.524 1_545 S
C2706 H2725 0.913 . S
C2707 H2683 0.950 . S
C2707 C2706 1.524 1_565 S
C2707 C2708 1.415 . S
C2708 H2684 0.950 . S
C2708 C2703 1.363 1_565 S
C2708 C2707 1.415 . S
C2709 H2685 0.951 . S
C2709 C2710 1.366 . S
C2709 C2711 1.388 . S
C2710 C2709 1.366 . S
C2710 C2714 1.385 . S
C2711 H2686 0.951 . S
C2711 C2709 1.388 . S
C2711 C2712 1.366 . S
C2712 C2711 1.366 . S
C2712 C2713 1.414 . S
C2712 C2715 1.499 . S
C2713 H2687 0.950 1_545 S
C2713 C2712 1.414 . S
C2713 C2714 1.374 . S
C2714 H2688 1.003 . S
C2714 C2710 1.385 . S
C2714 C2713 1.374 . S
C2715 C2712 1.499 . S
C2715 C2716 1.373 . S
C2715 C2717 1.389 . S
C2716 H2689 0.950 . S
C2716 C2702 1.377 . S
C2716 C2715 1.373 . S
C2717 C2701 1.377 . S
C2717 C2715 1.389 . S
C2717 C2718 1.524 . S
C2718 C2717 1.524 . S
C2718 C2719 1.397 . S
C2718 C2723 1.363 . S
C2719 H2690 0.950 . S
C2719 C2718 1.397 . S
C2719 C2720 1.334 . S
C2720 H2691 0.950 . S
C2720 C2719 1.334 . S
C2720 C2721 1.287 . S
C2721 C2720 1.287 . S
C2721 C2722 1.524 . S
C2721 H2724 0.999 . S
C2722 H2692 0.950 . S
C2722 C2721 1.524 . S
C2722 C2723 1.415 . S
C2723 H2693 0.950 . S
C2723 C2718 1.363 . S
C2723 C2722 1.415 . S
H2724 C2721 0.999 . S
H2725 C2706 0.913 . S
H2726 C2744 0.951 . S
H2727 C2746 0.951 . S
H2728 C2748 0.950 . S
H2729 C2749 0.950 . S
H2730 C2751 0.950 . S
H2731 C2754 0.950 . S
H2732 C2755 0.950 . S
H2733 C2757 0.950 . S
H2734 C2758 0.950 . S
H2735 C2759 0.951 . S
H2736 C2761 0.951 . S
H2737 C2763 0.950 . S
H2738 C2764 0.950 . S
H2739 C2766 0.950 . S
H2740 C2769 0.950 . S
H2741 C2770 0.950 . S
H2742 C2772 0.950 . S
H2743 C2773 0.950 . S
C2744 H2726 0.951 . S
C2744 C2745 1.366 . S
C2744 C2746 1.388 . S
C2745 C2744 1.366 . S
C2745 C2749 1.385 . S
C2746 H2727 0.951 . S
C2746 C2744 1.388 . S
C2746 C2747 1.366 . S
C2747 C2746 1.366 . S
C2747 C2748 1.414 . S
C2747 C2750 1.499 . S
C2748 H2728 0.950 . S
C2748 C2747 1.414 . S
C2748 C2749 1.374 . S
C2749 H2729 0.950 . S
C2749 C2745 1.385 . S
C2749 C2748 1.374 . S
C2750 C2747 1.499 . S
C2750 C2751 1.373 . S
C2750 C2752 1.389 . S
C2751 H2730 0.950 . S
C2751 C2750 1.373 . S
C2751 C2767 1.377 . S
C2752 C2750 1.389 . S
C2752 C2753 1.524 . S
C2752 C2766 1.377 . S
C2753 C2752 1.524 . S
C2753 C2754 1.397 . S
C2753 C2758 1.363 . S
C2754 H2731 0.950 . S
C2754 C2753 1.397 . S
C2754 C2755 1.334 . S
C2755 H2732 0.950 . S
C2755 C2754 1.334 . S
C2755 C2756 1.287 . S
C2756 C2755 1.287 . S
C2756 C2757 1.524 . S
C2756 H2775 0.913 . S
C2757 H2733 0.950 . S
C2757 C2756 1.524 . S
C2757 C2758 1.415 . S
C2758 H2734 0.950 . S
C2758 C2753 1.363 . S
C2758 C2757 1.415 . S
C2759 H2735 0.951 . S
C2759 C2760 1.366 . S
C2759 C2761 1.388 . S
C2760 C2759 1.366 . S
C2760 C2764 1.385 . S
C2761 H2736 0.951 . S
C2761 C2759 1.388 . S
C2761 C2762 1.366 . S
C2762 C2761 1.366 . S
C2762 C2763 1.414 . S
C2762 C2765 1.499 . S
C2763 H2737 0.950 . S
C2763 C2762 1.414 . S
C2763 C2764 1.374 . S
C2764 H2738 0.950 . S
C2764 C2760 1.385 . S
C2764 C2763 1.374 . S
C2765 C2762 1.499 . S
C2765 C2766 1.373 . S
C2765 C2767 1.389 . S
C2766 H2739 0.950 . S
C2766 C2752 1.377 . S
C2766 C2765 1.373 . S
C2767 C2751 1.377 . S
C2767 C2765 1.389 . S
C2767 C2768 1.524 . S
C2768 C2767 1.524 . S
C2768 C2769 1.397 . S
C2768 C2773 1.363 . S
C2769 H2740 0.950 . S
C2769 C2768 1.397 . S
C2769 C2770 1.334 . S
C2770 H2741 0.950 . S
C2770 C2769 1.334 . S
C2770 C2771 1.287 . S
C2771 C2770 1.287 . S
C2771 C2772 1.524 . S
C2771 H2774 0.999 . S
C2772 H2742 0.950 . S
C2772 C2771 1.524 . S
C2772 C2773 1.415 . S
C2773 H2743 0.950 . S
C2773 C2768 1.363 . S
C2773 C2772 1.415 . S
H2774 C2771 0.999 . S
H2775 C2756 0.913 . S
H2776 C2794 0.951 . S
H2777 C2796 0.951 . S
H2778 C2798 0.950 . S
H2779 C2799 0.950 . S
H2780 C2801 0.950 . S
H2781 C2804 0.950 . S
H2782 C2805 0.950 . S
H2783 C2807 0.950 . S
H2784 C2808 0.950 . S
H2785 C2809 0.951 . S
H2786 C2811 0.951 . S
H2787 C2813 0.950 . S
H2788 C2814 0.950 . S
H2789 C2816 0.950 . S
H2790 C2819 0.950 . S
H2791 C2820 0.950 . S
H2792 C2822 0.950 . S
H2793 C2823 0.950 . S
C2794 H2776 0.951 . S
C2794 C2795 1.366 . S
C2794 C2796 1.388 . S
C2795 C2794 1.366 . S
C2795 C2799 1.383 1_565 S
C2796 H2777 0.951 . S
C2796 C2794 1.388 . S
C2796 C2797 1.366 1_565 S
C2797 C2796 1.366 1_545 S
C2797 C2798 1.414 . S
C2797 C2800 1.499 . S
C2798 H2778 0.950 . S
C2798 C2797 1.414 . S
C2798 C2799 1.375 . S
C2799 H2779 0.950 . S
C2799 C2795 1.383 1_545 S
C2799 C2798 1.375 . S
C2800 C2797 1.499 . S
C2800 C2801 1.373 1_545 S
C2800 C2802 1.389 . S
C2801 H2780 0.950 . S
C2801 C2800 1.373 1_565 S
C2801 C2817 1.377 . S
C2802 C2800 1.389 . S
C2802 C2803 1.524 . S
C2802 C2816 1.377 . S
C2803 C2802 1.524 . S
C2803 C2804 1.397 . S
C2803 C2808 1.363 . S
C2804 H2781 0.950 . S
C2804 C2803 1.397 . S
C2804 C2805 1.334 . S
C2805 H2782 0.950 . S
C2805 C2804 1.334 . S
C2805 C2806 1.287 . S
C2806 C2805 1.287 . S
C2806 C2807 1.524 . S
C2806 H2825 0.913 . S
C2807 H2783 0.950 . S
C2807 C2806 1.524 . S
C2807 C2808 1.415 . S
C2808 H2784 0.950 . S
C2808 C2803 1.363 . S
C2808 C2807 1.415 . S
C2809 H2785 0.951 . S
C2809 C2810 1.366 . S
C2809 C2811 1.388 . S
C2810 C2809 1.366 . S
C2810 C2814 1.385 . S
C2811 H2786 0.951 . S
C2811 C2809 1.388 . S
C2811 C2812 1.366 . S
C2812 C2811 1.366 . S
C2812 C2813 1.414 . S
C2812 C2815 1.499 . S
C2813 H2787 0.950 . S
C2813 C2812 1.414 . S
C2813 C2814 1.374 . S
C2814 H2788 0.950 . S
C2814 C2810 1.385 . S
C2814 C2813 1.374 . S
C2815 C2812 1.499 . S
C2815 C2816 1.373 . S
C2815 C2817 1.389 1_545 S
C2816 H2789 0.950 . S
C2816 C2802 1.377 . S
C2816 C2815 1.373 . S
C2817 C2801 1.377 . S
C2817 C2815 1.389 1_565 S
C2817 C2818 1.524 . S
C2818 C2817 1.524 . S
C2818 C2819 1.397 . S
C2818 C2823 1.363 . S
C2819 H2790 0.950 . S
C2819 C2818 1.397 . S
C2819 C2820 1.334 . S
C2820 H2791 0.950 . S
C2820 C2819 1.334 . S
C2820 C2821 1.287 . S
C2821 C2820 1.287 . S
C2821 C2822 1.524 . S
C2821 H2824 0.999 . S
C2822 H2792 0.950 . S
C2822 C2821 1.524 . S
C2822 C2823 1.415 . S
C2823 H2793 0.950 . S
C2823 C2818 1.363 . S
C2823 C2822 1.415 . S
H2824 C2821 0.999 . S
H2825 C2806 0.913 . S
H2826 C2844 0.951 . S
H2827 C2846 0.951 . S
H2828 C2848 0.950 . S
H2829 C2849 0.950 . S
H2830 C2851 0.950 . S
H2831 C2854 0.950 . S
H2832 C2855 0.950 . S
H2833 C2857 0.950 . S
H2834 C2858 0.950 . S
H2835 C2859 0.951 . S
H2836 C2861 0.951 . S
H2837 C2863 0.950 . S
H2838 C2864 0.950 . S
H2839 C2866 0.950 . S
H2840 C2869 0.950 . S
H2841 C2870 0.950 . S
H2842 C2872 0.950 . S
H2843 C2873 0.950 . S
C2844 H2826 0.951 . S
C2844 C2845 1.366 . S
C2844 C2846 1.388 . S
C2845 C2844 1.366 . S
C2845 C2849 1.385 . S
C2846 H2827 0.951 . S
C2846 C2844 1.388 . S
C2846 C2847 1.366 . S
C2847 C2846 1.366 . S
C2847 C2848 1.414 . S
C2847 C2850 1.499 . S
C2848 H2828 0.950 . S
C2848 C2847 1.414 . S
C2848 C2849 1.374 . S
C2849 H2829 0.950 . S
C2849 C2845 1.385 . S
C2849 C2848 1.374 . S
C2850 C2847 1.499 . S
C2850 C2851 1.373 . S
C2850 C2852 1.389 . S
C2851 H2830 0.950 . S
C2851 C2850 1.373 . S
C2851 C2867 1.377 . S
C2852 C2850 1.389 . S
C2852 C2853 1.524 . S
C2852 C2866 1.377 . S
C2853 C2852 1.524 . S
C2853 C2854 1.397 . S
C2853 C2858 1.363 . S
C2854 H2831 0.950 . S
C2854 C2853 1.397 . S
C2854 C2855 1.334 . S
C2855 H2832 0.950 . S
C2855 C2854 1.334 . S
C2855 C2856 1.287 . S
C2856 C2855 1.287 . S
C2856 C2857 1.524 . S
C2856 H2875 0.913 . S
C2857 H2833 0.950 . S
C2857 C2856 1.524 . S
C2857 C2858 1.415 . S
C2858 H2834 0.950 . S
C2858 C2853 1.363 . S
C2858 C2857 1.415 . S
C2859 H2835 0.951 . S
C2859 C2860 1.366 . S
C2859 C2861 1.388 . S
C2860 C2859 1.366 . S
C2860 C2864 1.385 . S
C2861 H2836 0.951 . S
C2861 C2859 1.388 . S
C2861 C2862 1.366 . S
C2862 C2861 1.366 . S
C2862 C2863 1.414 . S
C2862 C2865 1.499 . S
C2863 H2837 0.950 . S
C2863 C2862 1.414 . S
C2863 C2864 1.374 . S
C2864 H2838 0.950 . S
C2864 C2860 1.385 . S
C2864 C2863 1.374 . S
C2865 C2862 1.499 . S
C2865 C2866 1.373 . S
C2865 C2867 1.389 . S
C2866 H2839 0.950 . S
C2866 C2852 1.377 . S
C2866 C2865 1.373 . S
C2867 C2851 1.377 . S
C2867 C2865 1.389 . S
C2867 C2868 1.524 . S
C2868 C2867 1.524 . S
C2868 C2869 1.397 . S
C2868 C2873 1.363 . S
C2869 H2840 0.950 . S
C2869 C2868 1.397 . S
C2869 C2870 1.334 . S
C2870 H2841 0.950 . S
C2870 C2869 1.334 . S
C2870 C2871 1.287 . S
C2871 C2870 1.287 . S
C2871 C2872 1.524 . S
C2871 H2874 0.999 . S
C2872 H2842 0.950 . S
C2872 C2871 1.524 . S
C2872 C2873 1.415 . S
C2873 H2843 0.950 . S
C2873 C2868 1.363 . S
C2873 C2872 1.415 . S
H2874 C2871 0.999 . S
H2875 C2856 0.913 . S
H2876 C2894 0.951 . S
H2877 C2896 0.951 . S
H2878 C2898 0.950 . S
H2879 C2899 0.950 . S
H2880 C2901 0.950 . S
H2881 C2904 0.950 . S
H2882 C2905 0.950 . S
H2883 C2907 0.950 . S
H2884 C2908 0.950 . S
H2885 C2909 0.951 . S
H2886 C2911 0.951 . S
H2887 C2913 0.950 . S
H2888 C2914 0.950 . S
H2889 C2916 0.950 . S
H2890 C2919 0.950 . S
H2891 C2920 0.950 . S
H2892 C2922 0.950 . S
H2893 C2923 0.950 . S
C2894 H2876 0.951 . S
C2894 C2895 1.366 1_565 S
C2894 C2896 1.388 . S
C2895 C2894 1.366 1_545 S
C2895 C2899 1.385 . S
C2896 H2877 0.951 . S
C2896 C2894 1.388 . S
C2896 C2897 1.366 1_565 S
C2897 C2896 1.366 1_545 S
C2897 C2898 1.414 . S
C2897 C2900 1.499 . S
C2898 H2878 0.950 . S
C2898 C2897 1.414 . S
C2898 C2899 1.374 . S
C2899 H2879 0.950 . S
C2899 C2895 1.385 . S
C2899 C2898 1.374 . S
C2900 C2897 1.499 . S
C2900 C2901 1.373 . S
C2900 C2902 1.389 1_545 S
C2901 H2880 0.950 . S
C2901 C2900 1.373 . S
C2901 C2917 1.377 . S
C2902 C2900 1.389 1_565 S
C2902 C2903 1.524 . S
C2902 C2916 1.377 . S
C2903 C2902 1.524 . S
C2903 C2904 1.397 . S
C2903 C2908 1.363 . S
C2904 H2881 0.950 . S
C2904 C2903 1.397 . S
C2904 C2905 1.334 . S
C2905 H2882 0.950 . S
C2905 C2904 1.334 . S
C2905 C2906 1.287 . S
C2906 C2905 1.287 . S
C2906 C2907 1.524 . S
C2906 H2925 0.913 . S
C2907 H2883 0.950 . S
C2907 C2906 1.524 . S
C2907 C2908 1.415 . S
C2908 H2884 0.950 . S
C2908 C2903 1.363 . S
C2908 C2907 1.415 . S
C2909 H2885 0.951 . S
C2909 C2910 1.366 1_545 S
C2909 C2911 1.388 . S
C2910 C2909 1.366 1_565 S
C2910 C2914 1.385 . S
C2911 H2886 0.951 . S
C2911 C2909 1.388 . S
C2911 C2912 1.366 1_545 S
C2912 C2911 1.366 1_565 S
C2912 C2913 1.414 . S
C2912 C2915 1.501 . S
C2913 H2887 0.950 . S
C2913 C2912 1.414 . S
C2913 C2914 1.374 . S
C2914 H2888 0.950 . S
C2914 C2910 1.385 . S
C2914 C2913 1.374 . S
C2915 C2912 1.501 . S
C2915 C2916 1.399 . S
C2915 C2917 1.365 1_565 S
C2916 H2889 0.950 . S
C2916 C2902 1.377 . S
C2916 C2915 1.399 . S
C2917 C2901 1.377 . S
C2917 C2915 1.365 1_545 S
C2917 C2918 1.524 . S
C2918 C2917 1.524 . S
C2918 C2919 1.397 . S
C2918 C2923 1.363 . S
C2919 H2890 0.950 . S
C2919 C2918 1.397 . S
C2919 C2920 1.334 . S
C2920 H2891 0.950 . S
C2920 C2919 1.334 . S
C2920 C2921 1.287 . S
C2921 C2920 1.287 . S
C2921 C2922 1.524 . S
C2921 H2924 0.999 . S
C2922 H2892 0.950 . S
C2922 C2921 1.524 . S
C2922 C2923 1.415 . S
C2923 H2893 0.950 . S
C2923 C2918 1.363 . S
C2923 C2922 1.415 . S
H2924 C2921 0.999 . S
H2925 C2906 0.913 . S
H2926 C2944 0.951 . S
H2927 C2946 0.951 . S
H2928 C2948 0.950 . S
H2929 C2949 0.950 . S
H2930 C2951 0.950 . S
H2931 C2954 0.950 . S
H2932 C2955 0.950 . S
H2933 C2957 0.950 . S
H2934 C2958 0.950 . S
H2935 C2959 0.951 . S
H2936 C2961 0.951 . S
H2937 C2963 0.950 . S
H2938 C2964 0.950 . S
H2939 C2966 0.950 . S
H2940 C2969 0.950 . S
H2941 C2970 0.950 . S
H2942 C2972 0.950 . S
H2943 C2973 0.950 . S
C2944 H2926 0.951 . S
C2944 C2945 1.366 . S
C2944 C2946 1.388 . S
C2945 C2944 1.366 . S
C2945 C2949 1.385 . S
C2946 H2927 0.951 . S
C2946 C2944 1.388 . S
C2946 C2947 1.366 . S
C2947 C2946 1.366 . S
C2947 C2948 1.414 . S
C2947 C2950 1.499 . S
C2948 H2928 0.950 . S
C2948 C2947 1.414 . S
C2948 C2949 1.374 . S
C2949 H2929 0.950 . S
C2949 C2945 1.385 . S
C2949 C2948 1.374 . S
C2950 C2947 1.499 . S
C2950 C2951 1.373 . S
C2950 C2952 1.389 . S
C2951 H2930 0.950 . S
C2951 C2950 1.373 . S
C2951 C2967 1.377 . S
C2952 C2950 1.389 . S
C2952 C2953 1.524 . S
C2952 C2966 1.377 . S
C2953 C2952 1.524 . S
C2953 C2954 1.397 . S
C2953 C2958 1.363 . S
C2954 H2931 0.950 . S
C2954 C2953 1.397 . S
C2954 C2955 1.334 . S
C2955 H2932 0.950 . S
C2955 C2954 1.334 . S
C2955 C2956 1.287 . S
C2956 C2955 1.287 . S
C2956 C2957 1.524 . S
C2956 H2975 0.913 . S
C2957 H2933 0.950 . S
C2957 C2956 1.524 . S
C2957 C2958 1.415 . S
C2958 H2934 0.950 . S
C2958 C2953 1.363 . S
C2958 C2957 1.415 . S
C2959 H2935 0.951 . S
C2959 C2960 1.366 . S
C2959 C2961 1.388 . S
C2960 C2959 1.366 . S
C2960 C2964 1.385 . S
C2961 H2936 0.951 . S
C2961 C2959 1.388 . S
C2961 C2962 1.366 . S
C2962 C2961 1.366 . S
C2962 C2963 1.414 . S
C2962 C2965 1.499 . S
C2963 H2937 0.950 . S
C2963 C2962 1.414 . S
C2963 C2964 1.374 . S
C2964 H2938 0.950 . S
C2964 C2960 1.385 . S
C2964 C2963 1.374 . S
C2965 C2962 1.499 . S
C2965 C2966 1.373 . S
C2965 C2967 1.389 . S
C2966 H2939 0.950 . S
C2966 C2952 1.377 . S
C2966 C2965 1.373 . S
C2967 C2951 1.377 . S
C2967 C2965 1.389 . S
C2967 C2968 1.524 . S
C2968 C2967 1.524 . S
C2968 C2969 1.397 . S
C2968 C2973 1.363 . S
C2969 H2940 0.950 . S
C2969 C2968 1.397 . S
C2969 C2970 1.334 . S
C2970 H2941 0.950 . S
C2970 C2969 1.334 . S
C2970 C2971 1.287 . S
C2971 C2970 1.287 . S
C2971 C2972 1.524 . S
C2971 H2974 0.999 . S
C2972 H2942 0.950 . S
C2972 C2971 1.524 . S
C2972 C2973 1.415 . S
C2973 H2943 0.950 . S
C2973 C2968 1.363 . S
C2973 C2972 1.415 . S
H2974 C2971 0.999 . S
H2975 C2956 0.913 . S
H2976 C2994 0.951 . S
H2977 C2996 0.951 . S
H2978 C2998 0.950 . S
H2979 C2999 0.950 . S
H2980 C3001 0.950 . S
H2981 C3004 0.950 . S
H2982 C3005 0.950 . S
H2983 C3007 0.950 . S
H2984 C3008 0.950 . S
H2985 C3009 0.951 . S
H2986 C3011 0.951 . S
H2987 C3013 0.950 . S
H2988 C3014 0.950 1_554 S
H2989 C3016 0.950 . S
H2990 C3019 0.950 . S
H2991 C3020 0.950 . S
H2992 C3022 0.950 . S
H2993 C3023 0.950 . S
C2994 H2976 0.951 . S
C2994 C2995 1.366 . S
C2994 C2996 1.388 . S
C2995 C2994 1.366 . S
C2995 C2999 1.385 1_554 S
C2996 H2977 0.951 . S
C2996 C2994 1.388 . S
C2996 C2997 1.366 . S
C2997 C2996 1.366 . S
C2997 C2998 1.414 1_554 S
C2997 C3000 1.499 1_554 S
C2998 H2978 0.950 . S
C2998 C2997 1.414 1_556 S
C2998 C2999 1.374 . S
C2999 H2979 0.950 . S
C2999 C2995 1.385 1_556 S
C2999 C2998 1.374 . S
C3000 C2997 1.499 1_556 S
C3000 C3001 1.373 . S
C3000 C3002 1.389 1_556 S
C3001 H2980 0.950 . S
C3001 C3000 1.373 . S
C3001 C3017 1.377 . S
C3002 C3000 1.389 1_554 S
C3002 C3003 1.524 . S
C3002 C3016 1.377 . S
C3003 C3002 1.524 . S
C3003 C3004 1.397 . S
C3003 C3008 1.363 . S
C3004 H2981 0.950 . S
C3004 C3003 1.397 . S
C3004 C3005 1.334 . S
C3005 H2982 0.950 . S
C3005 C3004 1.334 . S
C3005 C3006 1.287 . S
C3006 C3005 1.287 . S
C3006 C3007 1.524 . S
C3006 H3025 0.913 . S
C3007 H2983 0.950 . S
C3007 C3006 1.524 . S
C3007 C3008 1.415 . S
C3008 H2984 0.950 . S
C3008 C3003 1.363 . S
C3008 C3007 1.415 . S
C3009 H2985 0.951 . S
C3009 C3010 1.366 . S
C3009 C3011 1.388 . S
C3010 C3009 1.366 . S
C3010 C3014 1.385 . S
C3011 H2986 0.951 . S
C3011 C3009 1.388 . S
C3011 C3012 1.366 . S
C3012 C3011 1.366 . S
C3012 C3013 1.414 1_556 S
C3012 C3015 1.499 . S
C3013 H2987 0.950 . S
C3013 C3012 1.414 1_554 S
C3013 C3014 1.374 1_554 S
C3014 H2988 0.950 1_556 S
C3014 C3010 1.385 . S
C3014 C3013 1.374 1_556 S
C3015 C3012 1.499 . S
C3015 C3016 1.373 1_556 S
C3015 C3017 1.389 . S
C3016 H2989 0.950 . S
C3016 C3002 1.377 . S
C3016 C3015 1.373 1_554 S
C3017 C3001 1.377 . S
C3017 C3015 1.389 . S
C3017 C3018 1.524 . S
C3018 C3017 1.524 . S
C3018 C3019 1.397 . S
C3018 C3023 1.363 . S
C3019 H2990 0.950 . S
C3019 C3018 1.397 . S
C3019 C3020 1.334 . S
C3020 H2991 0.950 . S
C3020 C3019 1.334 . S
C3020 C3021 1.287 . S
C3021 C3020 1.287 . S
C3021 C3022 1.524 . S
C3021 H3024 0.999 . S
C3022 H2992 0.950 . S
C3022 C3021 1.524 . S
C3022 C3023 1.415 . S
C3023 H2993 0.950 . S
C3023 C3018 1.363 . S
C3023 C3022 1.415 . S
H3024 C3021 0.999 . S
H3025 C3006 0.913 . S
H3026 C3044 0.951 . S
H3027 C3046 0.951 . S
H3028 C3048 0.950 . S
H3029 C3049 0.950 . S
H3030 C3051 0.950 . S
H3031 C3054 0.950 . S
H3032 C3055 0.950 . S
H3033 C3057 0.950 . S
H3034 C3058 0.950 . S
H3035 C3059 0.951 . S
H3036 C3061 0.951 . S
H3037 C3063 0.950 1_556 S
H3038 C3064 0.950 1_556 S
H3039 C3066 0.950 . S
H3040 C3069 0.950 . S
H3041 C3070 0.950 . S
H3042 C3072 0.950 . S
H3043 C3073 0.950 . S
C3044 H3026 0.951 . S
C3044 C3045 1.366 . S
C3044 C3046 1.388 . S
C3045 C3044 1.366 . S
C3045 C3049 1.385 . S
C3046 H3027 0.951 . S
C3046 C3044 1.388 . S
C3046 C3047 1.366 . S
C3047 C3046 1.366 . S
C3047 C3048 1.414 . S
C3047 C3050 1.499 . S
C3048 H3028 0.950 . S
C3048 C3047 1.414 . S
C3048 C3049 1.374 . S
C3049 H3029 0.950 . S
C3049 C3045 1.385 . S
C3049 C3048 1.374 . S
C3050 C3047 1.499 . S
C3050 C3051 1.373 . S
C3050 C3052 1.389 . S
C3051 H3030 0.950 . S
C3051 C3050 1.373 . S
C3051 C3067 1.377 . S
C3052 C3050 1.389 . S
C3052 C3053 1.524 . S
C3052 C3066 1.377 . S
C3053 C3052 1.524 . S
C3053 C3054 1.397 . S
C3053 C3058 1.363 . S
C3054 H3031 0.950 . S
C3054 C3053 1.397 . S
C3054 C3055 1.334 . S
C3055 H3032 0.950 . S
C3055 C3054 1.334 . S
C3055 C3056 1.287 . S
C3056 C3055 1.287 . S
C3056 C3057 1.524 . S
C3056 H3075 0.913 . S
C3057 H3033 0.950 . S
C3057 C3056 1.524 . S
C3057 C3058 1.415 . S
C3058 H3034 0.950 . S
C3058 C3053 1.363 . S
C3058 C3057 1.415 . S
C3059 H3035 0.951 . S
C3059 C3060 1.366 . S
C3059 C3061 1.388 . S
C3060 C3059 1.366 . S
C3060 C3064 1.385 . S
C3061 H3036 0.951 . S
C3061 C3059 1.388 . S
C3061 C3062 1.366 . S
C3062 C3061 1.366 . S
C3062 C3063 1.414 . S
C3062 C3065 1.499 . S
C3063 H3037 0.950 1_554 S
C3063 C3062 1.414 . S
C3063 C3064 1.374 . S
C3064 H3038 0.950 1_554 S
C3064 C3060 1.385 . S
C3064 C3063 1.374 . S
C3065 C3062 1.499 . S
C3065 C3066 1.373 . S
C3065 C3067 1.389 . S
C3066 H3039 0.950 . S
C3066 C3052 1.377 . S
C3066 C3065 1.373 . S
C3067 C3051 1.377 . S
C3067 C3065 1.389 . S
C3067 C3068 1.524 . S
C3068 C3067 1.524 . S
C3068 C3069 1.397 1_554 S
C3068 C3073 1.363 . S
C3069 H3040 0.950 . S
C3069 C3068 1.397 1_556 S
C3069 C3070 1.334 . S
C3070 H3041 0.950 . S
C3070 C3069 1.334 . S
C3070 C3071 1.287 . S
C3071 C3070 1.287 . S
C3071 C3072 1.524 1_556 S
C3071 H3074 0.999 . S
C3072 H3042 0.950 . S
C3072 C3071 1.524 1_554 S
C3072 C3073 1.415 . S
C3073 H3043 0.950 . S
C3073 C3068 1.363 . S
C3073 C3072 1.415 . S
H3074 C3071 0.999 . S
H3075 C3056 0.913 . S
H3076 C3094 0.951 . S
H3077 C3096 0.951 . S
H3078 C3098 0.950 . S
H3079 C3099 0.950 . S
H3080 C3101 0.950 . S
H3081 C3104 0.950 . S
H3082 C3105 0.950 . S
H3083 C3107 0.950 . S
H3084 C3108 0.950 . S
H3085 C3109 0.951 . S
H3086 C3111 0.951 . S
H3087 C3113 0.950 . S
H3088 C3114 0.950 . S
H3089 C3116 0.950 . S
H3090 C3119 0.950 . S
H3091 C3120 0.950 . S
H3092 C3122 0.950 . S
H3093 C3123 0.950 . S
C3094 H3076 0.951 . S
C3094 C3095 1.366 . S
C3094 C3096 1.388 . S
C3095 C3094 1.366 . S
C3095 C3099 1.385 . S
C3096 H3077 0.951 . S
C3096 C3094 1.388 . S
C3096 C3097 1.366 . S
C3097 C3096 1.366 . S
C3097 C3098 1.414 . S
C3097 C3100 1.499 . S
C3098 H3078 0.950 . S
C3098 C3097 1.414 . S
C3098 C3099 1.374 . S
C3099 H3079 0.950 . S
C3099 C3095 1.385 . S
C3099 C3098 1.374 . S
C3100 C3097 1.499 . S
C3100 C3101 1.373 . S
C3100 C3102 1.389 . S
C3101 H3080 0.950 . S
C3101 C3100 1.373 . S
C3101 C3117 1.377 . S
C3102 C3100 1.389 . S
C3102 C3103 1.524 . S
C3102 C3116 1.377 . S
C3103 C3102 1.524 . S
C3103 C3104 1.397 . S
C3103 C3108 1.363 . S
C3104 H3081 0.950 . S
C3104 C3103 1.397 . S
C3104 C3105 1.334 . S
C3105 H3082 0.950 . S
C3105 C3104 1.334 . S
C3105 C3106 1.287 . S
C3106 C3105 1.287 . S
C3106 C3107 1.524 . S
C3106 H3125 0.913 . S
C3107 H3083 0.950 . S
C3107 C3106 1.524 . S
C3107 C3108 1.415 . S
C3108 H3084 0.950 . S
C3108 C3103 1.363 . S
C3108 C3107 1.415 . S
C3109 H3085 0.951 . S
C3109 C3110 1.366 . S
C3109 C3111 1.388 . S
C3110 C3109 1.366 . S
C3110 C3114 1.385 . S
C3111 H3086 0.951 . S
C3111 C3109 1.388 . S
C3111 C3112 1.366 . S
C3112 C3111 1.366 . S
C3112 C3113 1.414 . S
C3112 C3115 1.499 . S
C3113 H3087 0.950 . S
C3113 C3112 1.414 . S
C3113 C3114 1.374 . S
C3114 H3088 0.950 . S
C3114 C3110 1.385 . S
C3114 C3113 1.374 . S
C3115 C3112 1.499 . S
C3115 C3116 1.373 . S
C3115 C3117 1.389 . S
C3116 H3089 0.950 . S
C3116 C3102 1.377 . S
C3116 C3115 1.373 . S
C3117 C3101 1.377 . S
C3117 C3115 1.389 . S
C3117 C3118 1.524 . S
C3118 C3117 1.524 . S
C3118 C3119 1.397 . S
C3118 C3123 1.363 . S
C3119 H3090 0.950 . S
C3119 C3118 1.397 . S
C3119 C3120 1.334 . S
C3120 H3091 0.950 . S
C3120 C3119 1.334 . S
C3120 C3121 1.287 . S
C3121 C3120 1.287 . S
C3121 C3122 1.524 . S
C3121 H3124 0.999 . S
C3122 H3092 0.950 . S
C3122 C3121 1.524 . S
C3122 C3123 1.415 . S
C3123 H3093 0.950 . S
C3123 C3118 1.363 . S
C3123 C3122 1.415 . S
H3124 C3121 0.999 . S
H3125 C3106 0.913 . S
H3126 C3144 0.951 . S
H3127 C3146 0.951 . S
H3128 C3148 0.950 . S
H3129 C3149 0.950 . S
H3130 C3151 0.950 . S
H3131 C3154 0.950 . S
H3132 C3155 0.950 . S
H3133 C3157 0.950 . S
H3134 C3158 0.950 . S
H3135 C3159 0.951 . S
H3136 C3161 0.951 . S
H3137 C3163 0.950 . S
H3138 C3164 0.950 . S
H3139 C3166 0.950 . S
H3140 C3169 0.950 . S
H3141 C3170 0.950 . S
H3142 C3172 0.950 . S
H3143 C3173 0.950 . S
C3144 H3126 0.951 . S
C3144 C3145 1.366 . S
C3144 C3146 1.388 . S
C3145 C3144 1.366 . S
C3145 C3149 1.385 . S
C3146 H3127 0.951 . S
C3146 C3144 1.388 . S
C3146 C3147 1.366 . S
C3147 C3146 1.366 . S
C3147 C3148 1.414 . S
C3147 C3150 1.499 . S
C3148 H3128 0.950 . S
C3148 C3147 1.414 . S
C3148 C3149 1.374 . S
C3149 H3129 0.950 . S
C3149 C3145 1.385 . S
C3149 C3148 1.374 . S
C3150 C3147 1.499 . S
C3150 C3151 1.373 . S
C3150 C3152 1.389 . S
C3151 H3130 0.950 . S
C3151 C3150 1.373 . S
C3151 C3167 1.377 . S
C3152 C3150 1.389 . S
C3152 C3153 1.524 . S
C3152 C3166 1.377 . S
C3153 C3152 1.524 . S
C3153 C3154 1.397 . S
C3153 C3158 1.363 . S
C3154 H3131 0.950 . S
C3154 C3153 1.397 . S
C3154 C3155 1.334 . S
C3155 H3132 0.950 . S
C3155 C3154 1.334 . S
C3155 C3156 1.287 . S
C3156 C3155 1.287 . S
C3156 C3157 1.524 . S
C3156 H3175 0.913 . S
C3157 H3133 0.950 . S
C3157 C3156 1.524 . S
C3157 C3158 1.415 . S
C3158 H3134 0.950 . S
C3158 C3153 1.363 . S
C3158 C3157 1.415 . S
C3159 H3135 0.951 . S
C3159 C3160 1.366 . S
C3159 C3161 1.388 . S
C3160 C3159 1.366 . S
C3160 C3164 1.385 . S
C3161 H3136 0.951 . S
C3161 C3159 1.388 . S
C3161 C3162 1.366 . S
C3162 C3161 1.366 . S
C3162 C3163 1.414 . S
C3162 C3165 1.499 . S
C3163 H3137 0.950 . S
C3163 C3162 1.414 . S
C3163 C3164 1.374 . S
C3164 H3138 0.950 . S
C3164 C3160 1.385 . S
C3164 C3163 1.374 . S
C3165 C3162 1.499 . S
C3165 C3166 1.373 . S
C3165 C3167 1.389 . S
C3166 H3139 0.950 . S
C3166 C3152 1.377 . S
C3166 C3165 1.373 . S
C3167 C3151 1.377 . S
C3167 C3165 1.389 . S
C3167 C3168 1.524 . S
C3168 C3167 1.524 . S
C3168 C3169 1.397 . S
C3168 C3173 1.363 . S
C3169 H3140 0.950 . S
C3169 C3168 1.397 . S
C3169 C3170 1.334 . S
C3170 H3141 0.950 . S
C3170 C3169 1.334 . S
C3170 C3171 1.287 . S
C3171 C3170 1.287 . S
C3171 C3172 1.524 . S
C3171 H3174 0.999 . S
C3172 H3142 0.950 . S
C3172 C3171 1.524 . S
C3172 C3173 1.415 . S
C3173 H3143 0.950 . S
C3173 C3168 1.363 . S
C3173 C3172 1.415 . S
H3174 C3171 0.999 . S
H3175 C3156 0.913 . S
H3176 C3194 0.951 . S
H3177 C3196 0.951 . S
H3178 C3198 0.950 . S
H3179 C3199 0.950 . S
H3180 C3201 0.950 . S
H3181 C3204 0.950 . S
H3182 C3205 0.950 . S
H3183 C3207 0.950 . S
H3184 C3208 0.950 . S
H3185 C3209 0.951 . S
H3186 C3211 0.951 . S
H3187 C3213 0.950 . S
H3188 C3214 0.950 . S
H3189 C3216 0.950 . S
H3190 C3219 0.950 . S
H3191 C3220 0.950 . S
H3192 C3222 0.950 . S
H3193 C3223 0.950 . S
C3194 H3176 0.951 . S
C3194 C3195 1.366 . S
C3194 C3196 1.388 1_545 S
C3195 C3194 1.366 . S
C3195 C3199 1.385 1_545 S
C3196 H3177 0.951 . S
C3196 C3194 1.388 1_565 S
C3196 C3197 1.366 . S
C3197 C3196 1.366 . S
C3197 C3198 1.414 . S
C3197 C3200 1.499 . S
C3198 H3178 0.950 . S
C3198 C3197 1.414 . S
C3198 C3199 1.374 . S
C3199 H3179 0.950 . S
C3199 C3195 1.385 1_565 S
C3199 C3198 1.374 . S
C3200 C3197 1.499 . S
C3200 C3201 1.373 . S
C3200 C3202 1.389 . S
C3201 H3180 0.950 . S
C3201 C3200 1.373 . S
C3201 C3217 1.377 . S
C3202 C3200 1.389 . S
C3202 C3203 1.524 . S
C3202 C3216 1.377 . S
C3203 C3202 1.524 . S
C3203 C3204 1.397 . S
C3203 C3208 1.363 . S
C3204 H3181 0.950 . S
C3204 C3203 1.397 . S
C3204 C3205 1.334 1_565 S
C3205 H3182 0.950 . S
C3205 C3204 1.334 1_545 S
C3205 C3206 1.287 . S
C3206 C3205 1.287 . S
C3206 C3207 1.524 . S
C3206 H3225 0.913 . S
C3207 H3183 0.950 . S
C3207 C3206 1.524 . S
C3207 C3208 1.415 1_545 S
C3208 H3184 0.950 . S
C3208 C3203 1.363 . S
C3208 C3207 1.415 1_565 S
C3209 H3185 0.951 . S
C3209 C3210 1.366 . S
C3209 C3211 1.388 . S
C3210 C3209 1.366 . S
C3210 C3214 1.385 . S
C3211 H3186 0.951 . S
C3211 C3209 1.388 . S
C3211 C3212 1.366 . S
C3212 C3211 1.366 . S
C3212 C3213 1.414 . S
C3212 C3215 1.499 . S
C3213 H3187 0.950 . S
C3213 C3212 1.414 . S
C3213 C3214 1.374 . S
C3214 H3188 0.950 . S
C3214 C3210 1.385 . S
C3214 C3213 1.374 . S
C3215 C3212 1.499 . S
C3215 C3216 1.373 . S
C3215 C3217 1.389 . S
C3216 H3189 0.950 . S
C3216 C3202 1.377 . S
C3216 C3215 1.373 . S
C3217 C3201 1.377 . S
C3217 C3215 1.389 . S
C3217 C3218 1.524 . S
C3218 C3217 1.524 . S
C3218 C3219 1.397 . S
C3218 C3223 1.363 . S
C3219 H3190 0.950 . S
C3219 C3218 1.397 . S
C3219 C3220 1.334 . S
C3220 H3191 0.950 . S
C3220 C3219 1.334 . S
C3220 C3221 1.287 . S
C3221 C3220 1.287 . S
C3221 C3222 1.524 . S
C3221 H3224 0.999 . S
C3222 H3192 0.950 . S
C3222 C3221 1.524 . S
C3222 C3223 1.415 . S
C3223 H3193 0.950 . S
C3223 C3218 1.363 . S
C3223 C3222 1.415 . S
H3224 C3221 0.999 . S
H3225 C3206 0.913 . S
H3226 C3244 0.951 . S
H3227 C3246 0.951 . S
H3228 C3248 0.950 . S
H3229 C3249 0.950 . S
H3230 C3251 0.950 . S
H3231 C3254 0.950 . S
H3232 C3255 0.950 . S
H3233 C3257 0.950 . S
H3234 C3258 0.950 . S
H3235 C3259 0.951 . S
H3236 C3261 0.951 . S
H3237 C3263 0.950 . S
H3238 C3264 0.950 . S
H3239 C3266 0.950 . S
H3240 C3269 0.950 . S
H3241 C3270 0.950 . S
H3242 C3272 0.950 1_545 S
H3243 C3273 0.950 . S
C3244 H3226 0.951 . S
C3244 C3245 1.366 . S
C3244 C3246 1.388 . S
C3245 C3244 1.366 . S
C3245 C3249 1.385 . S
C3246 H3227 0.951 . S
C3246 C3244 1.388 . S
C3246 C3247 1.366 . S
C3247 C3246 1.366 . S
C3247 C3248 1.414 . S
C3247 C3250 1.499 . S
C3248 H3228 0.950 . S
C3248 C3247 1.414 . S
C3248 C3249 1.374 . S
C3249 H3229 0.950 . S
C3249 C3245 1.385 . S
C3249 C3248 1.374 . S
C3250 C3247 1.499 . S
C3250 C3251 1.373 . S
C3250 C3252 1.389 . S
C3251 H3230 0.950 . S
C3251 C3250 1.373 . S
C3251 C3267 1.377 . S
C3252 C3250 1.389 . S
C3252 C3253 1.524 . S
C3252 C3266 1.377 . S
C3253 C3252 1.524 . S
C3253 C3254 1.397 . S
C3253 C3258 1.363 . S
C3254 H3231 0.950 . S
C3254 C3253 1.397 . S
C3254 C3255 1.334 . S
C3255 H3232 0.950 . S
C3255 C3254 1.334 . S
C3255 C3256 1.287 . S
C3256 C3255 1.287 . S
C3256 C3257 1.524 . S
C3256 H3275 0.913 . S
C3257 H3233 0.950 . S
C3257 C3256 1.524 . S
C3257 C3258 1.415 . S
C3258 H3234 0.950 . S
C3258 C3253 1.363 . S
C3258 C3257 1.415 . S
C3259 H3235 0.951 . S
C3259 C3260 1.366 . S
C3259 C3261 1.388 . S
C3260 C3259 1.366 . S
C3260 C3264 1.385 . S
C3261 H3236 0.951 . S
C3261 C3259 1.388 . S
C3261 C3262 1.366 . S
C3262 C3261 1.366 . S
C3262 C3263 1.414 . S
C3262 C3265 1.499 . S
C3263 H3237 0.950 . S
C3263 C3262 1.414 . S
C3263 C3264 1.374 . S
C3264 H3238 0.950 . S
C3264 C3260 1.385 . S
C3264 C3263 1.374 . S
C3265 C3262 1.499 . S
C3265 C3266 1.373 . S
C3265 C3267 1.389 . S
C3266 H3239 0.950 . S
C3266 C3252 1.377 . S
C3266 C3265 1.373 . S
C3267 C3251 1.377 . S
C3267 C3265 1.389 . S
C3267 C3268 1.524 . S
C3268 C3267 1.524 . S
C3268 C3269 1.397 . S
C3268 C3273 1.363 . S
C3269 H3240 0.950 . S
C3269 C3268 1.397 . S
C3269 C3270 1.334 . S
C3270 H3241 0.950 . S
C3270 C3269 1.334 . S
C3270 C3271 1.287 . S
C3271 C3270 1.287 . S
C3271 C3272 1.524 . S
C3271 H3274 0.999 1_565 S
C3272 H3242 0.950 1_565 S
C3272 C3271 1.524 . S
C3272 C3273 1.415 . S
C3273 H3243 0.950 . S
C3273 C3268 1.363 . S
C3273 C3272 1.415 . S
H3274 C3271 0.999 1_545 S
H3275 C3256 0.913 . S
H3276 C3294 0.951 . S
H3277 C3296 0.951 . S
H3278 C3298 0.950 . S
H3279 C3299 0.950 . S
H3280 C3301 0.950 . S
H3281 C3304 0.950 . S
H3282 C3305 0.950 . S
H3283 C3307 0.950 . S
H3284 C3308 0.950 . S
H3285 C3309 0.951 . S
H3286 C3311 0.951 . S
H3287 C3313 0.950 . S
H3288 C3314 0.950 . S
H3289 C3316 0.950 . S
H3290 C3319 0.950 . S
H3291 C3320 0.950 . S
H3292 C3322 0.950 . S
H3293 C3323 0.950 . S
C3294 H3276 0.951 . S
C3294 C3295 1.366 . S
C3294 C3296 1.388 . S
C3295 C3294 1.366 . S
C3295 C3299 1.385 . S
C3296 H3277 0.951 . S
C3296 C3294 1.388 . S
C3296 C3297 1.366 . S
C3297 C3296 1.366 . S
C3297 C3298 1.414 . S
C3297 C3300 1.499 . S
C3298 H3278 0.950 . S
C3298 C3297 1.414 . S
C3298 C3299 1.374 . S
C3299 H3279 0.950 . S
C3299 C3295 1.385 . S
C3299 C3298 1.374 . S
C3300 C3297 1.499 . S
C3300 C3301 1.373 . S
C3300 C3302 1.389 . S
C3301 H3280 0.950 . S
C3301 C3300 1.373 . S
C3301 C3317 1.377 . S
C3302 C3300 1.389 . S
C3302 C3303 1.524 . S
C3302 C3316 1.377 . S
C3303 C3302 1.524 . S
C3303 C3304 1.397 . S
C3303 C3308 1.363 . S
C3304 H3281 0.950 . S
C3304 C3303 1.397 . S
C3304 C3305 1.334 . S
C3305 H3282 0.950 . S
C3305 C3304 1.334 . S
C3305 C3306 1.287 . S
C3306 C3305 1.287 . S
C3306 C3307 1.524 . S
C3306 H3325 0.913 . S
C3307 H3283 0.950 . S
C3307 C3306 1.524 . S
C3307 C3308 1.415 . S
C3308 H3284 0.950 . S
C3308 C3303 1.363 . S
C3308 C3307 1.415 . S
C3309 H3285 0.951 . S
C3309 C3310 1.366 . S
C3309 C3311 1.388 . S
C3310 C3309 1.366 . S
C3310 C3314 1.385 . S
C3311 H3286 0.951 . S
C3311 C3309 1.388 . S
C3311 C3312 1.366 . S
C3312 C3311 1.366 . S
C3312 C3313 1.414 . S
C3312 C3315 1.499 . S
C3313 H3287 0.950 . S
C3313 C3312 1.414 . S
C3313 C3314 1.374 . S
C3314 H3288 0.950 . S
C3314 C3310 1.385 . S
C3314 C3313 1.374 . S
C3315 C3312 1.499 . S
C3315 C3316 1.373 . S
C3315 C3317 1.389 . S
C3316 H3289 0.950 . S
C3316 C3302 1.377 . S
C3316 C3315 1.373 . S
C3317 C3301 1.377 . S
C3317 C3315 1.389 . S
C3317 C3318 1.524 . S
C3318 C3317 1.524 . S
C3318 C3319 1.397 . S
C3318 C3323 1.363 . S
C3319 H3290 0.950 . S
C3319 C3318 1.397 . S
C3319 C3320 1.334 . S
C3320 H3291 0.950 . S
C3320 C3319 1.334 . S
C3320 C3321 1.287 . S
C3321 C3320 1.287 . S
C3321 C3322 1.524 . S
C3321 H3324 0.999 . S
C3322 H3292 0.950 . S
C3322 C3321 1.524 . S
C3322 C3323 1.415 . S
C3323 H3293 0.950 . S
C3323 C3318 1.363 . S
C3323 C3322 1.415 . S
H3324 C3321 0.999 . S
H3325 C3306 0.913 . S
H3326 C3344 0.951 . S
H3327 C3346 0.951 . S
H3328 C3348 0.950 . S
H3329 C3349 0.950 . S
H3330 C3351 0.950 . S
H3331 C3354 0.950 . S
H3332 C3355 0.950 . S
H3333 C3357 0.950 . S
H3334 C3358 0.950 . S
H3335 C3359 0.951 . S
H3336 C3361 0.951 . S
H3337 C3363 0.950 . S
H3338 C3364 0.950 . S
H3339 C3366 0.950 . S
H3340 C3369 0.950 . S
H3341 C3370 0.950 . S
H3342 C3372 0.950 . S
H3343 C3373 0.950 . S
C3344 H3326 0.951 . S
C3344 C3345 1.366 . S
C3344 C3346 1.388 . S
C3345 C3344 1.366 . S
C3345 C3349 1.385 . S
C3346 H3327 0.951 . S
C3346 C3344 1.388 . S
C3346 C3347 1.366 . S
C3347 C3346 1.366 . S
C3347 C3348 1.414 . S
C3347 C3350 1.499 . S
C3348 H3328 0.950 . S
C3348 C3347 1.414 . S
C3348 C3349 1.374 . S
C3349 H3329 0.950 . S
C3349 C3345 1.385 . S
C3349 C3348 1.374 . S
C3350 C3347 1.499 . S
C3350 C3351 1.373 . S
C3350 C3352 1.389 . S
C3351 H3330 0.950 . S
C3351 C3350 1.373 . S
C3351 C3367 1.377 . S
C3352 C3350 1.389 . S
C3352 C3353 1.524 . S
C3352 C3366 1.377 . S
C3353 C3352 1.524 . S
C3353 C3354 1.397 . S
C3353 C3358 1.363 . S
C3354 H3331 0.950 . S
C3354 C3353 1.397 . S
C3354 C3355 1.334 . S
C3355 H3332 0.950 . S
C3355 C3354 1.334 . S
C3355 C3356 1.287 . S
C3356 C3355 1.287 . S
C3356 C3357 1.524 . S
C3356 H3375 0.913 . S
C3357 H3333 0.950 . S
C3357 C3356 1.524 . S
C3357 C3358 1.415 . S
C3358 H3334 0.950 . S
C3358 C3353 1.363 . S
C3358 C3357 1.415 . S
C3359 H3335 0.951 . S
C3359 C3360 1.366 . S
C3359 C3361 1.388 . S
C3360 C3359 1.366 . S
C3360 C3364 1.385 . S
C3361 H3336 0.951 . S
C3361 C3359 1.388 . S
C3361 C3362 1.366 . S
C3362 C3361 1.366 . S
C3362 C3363 1.414 . S
C3362 C3365 1.499 . S
C3363 H3337 0.950 . S
C3363 C3362 1.414 . S
C3363 C3364 1.374 . S
C3364 H3338 0.950 . S
C3364 C3360 1.385 . S
C3364 C3363 1.374 . S
C3365 C3362 1.499 . S
C3365 C3366 1.373 . S
C3365 C3367 1.389 . S
C3366 H3339 0.950 . S
C3366 C3352 1.377 . S
C3366 C3365 1.373 . S
C3367 C3351 1.377 . S
C3367 C3365 1.389 . S
C3367 C3368 1.524 . S
C3368 C3367 1.524 . S
C3368 C3369 1.397 . S
C3368 C3373 1.363 . S
C3369 H3340 0.950 . S
C3369 C3368 1.397 . S
C3369 C3370 1.334 . S
C3370 H3341 0.950 . S
C3370 C3369 1.334 . S
C3370 C3371 1.287 . S
C3371 C3370 1.287 . S
C3371 C3372 1.524 . S
C3371 H3374 0.999 . S
C3372 H3342 0.950 . S
C3372 C3371 1.524 . S
C3372 C3373 1.415 . S
C3373 H3343 0.950 . S
C3373 C3368 1.363 . S
C3373 C3372 1.415 . S
H3374 C3371 0.999 . S
H3375 C3356 0.913 . S
H3376 C3394 0.951 . S
H3377 C3396 0.951 . S
H3378 C3398 0.950 . S
H3379 C3399 0.950 . S
H3380 C3401 0.950 . S
H3381 C3404 0.950 . S
H3382 C3405 0.950 . S
H3383 C3407 0.950 . S
H3384 C3408 0.950 . S
H3385 C3409 0.951 . S
H3386 C3411 0.951 . S
H3387 C3413 0.950 . S
H3388 C3414 0.950 . S
H3389 C3416 0.950 . S
H3390 C3419 0.950 . S
H3391 C3420 0.950 . S
H3392 C3422 0.950 . S
H3393 C3423 0.950 . S
C3394 H3376 0.951 . S
C3394 C3395 1.366 . S
C3394 C3396 1.388 . S
C3395 C3394 1.366 . S
C3395 C3399 1.385 . S
C3396 H3377 0.951 . S
C3396 C3394 1.388 . S
C3396 C3397 1.366 . S
C3397 C3396 1.366 . S
C3397 C3398 1.414 . S
C3397 C3400 1.499 . S
C3398 H3378 0.950 . S
C3398 C3397 1.414 . S
C3398 C3399 1.374 . S
C3399 H3379 0.950 . S
C3399 C3395 1.385 . S
C3399 C3398 1.374 . S
C3400 C3397 1.499 . S
C3400 C3401 1.373 . S
C3400 C3402 1.389 . S
C3401 H3380 0.950 . S
C3401 C3400 1.373 . S
C3401 C3417 1.377 . S
C3402 C3400 1.389 . S
C3402 C3403 1.524 . S
C3402 C3416 1.377 . S
C3403 C3402 1.524 . S
C3403 C3404 1.397 . S
C3403 C3408 1.363 . S
C3404 H3381 0.950 . S
C3404 C3403 1.397 . S
C3404 C3405 1.334 . S
C3405 H3382 0.950 . S
C3405 C3404 1.334 . S
C3405 C3406 1.287 . S
C3406 C3405 1.287 . S
C3406 C3407 1.524 . S
C3406 H3425 0.913 . S
C3407 H3383 0.950 . S
C3407 C3406 1.524 . S
C3407 C3408 1.415 . S
C3408 H3384 0.950 . S
C3408 C3403 1.363 . S
C3408 C3407 1.415 . S
C3409 H3385 0.951 . S
C3409 C3410 1.366 . S
C3409 C3411 1.388 . S
C3410 C3409 1.366 . S
C3410 C3414 1.385 . S
C3411 H3386 0.951 . S
C3411 C3409 1.388 . S
C3411 C3412 1.366 . S
C3412 C3411 1.366 . S
C3412 C3413 1.414 . S
C3412 C3415 1.499 . S
C3413 H3387 0.950 . S
C3413 C3412 1.414 . S
C3413 C3414 1.374 . S
C3414 H3388 0.950 . S
C3414 C3410 1.385 . S
C3414 C3413 1.374 . S
C3415 C3412 1.499 . S
C3415 C3416 1.373 . S
C3415 C3417 1.389 . S
C3416 H3389 0.950 . S
C3416 C3402 1.377 . S
C3416 C3415 1.373 . S
C3417 C3401 1.377 . S
C3417 C3415 1.389 . S
C3417 C3418 1.524 . S
C3418 C3417 1.524 . S
C3418 C3419 1.397 . S
C3418 C3423 1.363 . S
C3419 H3390 0.950 . S
C3419 C3418 1.397 . S
C3419 C3420 1.334 . S
C3420 H3391 0.950 . S
C3420 C3419 1.334 . S
C3420 C3421 1.287 . S
C3421 C3420 1.287 . S
C3421 C3422 1.524 . S
C3421 H3424 0.999 . S
C3422 H3392 0.950 . S
C3422 C3421 1.524 . S
C3422 C3423 1.415 . S
C3423 H3393 0.950 . S
C3423 C3418 1.363 . S
C3423 C3422 1.415 . S
H3424 C3421 0.999 . S
H3425 C3406 0.913 . S
H3426 C3444 0.951 . S
H3427 C3446 0.951 . S
H3428 C3448 0.950 . S
H3429 C3449 0.950 . S
H3430 C3451 0.950 . S
H3431 C3454 0.950 . S
H3432 C3455 0.950 . S
H3433 C3457 0.950 . S
H3434 C3458 0.950 . S
H3435 C3459 0.951 . S
H3436 C3461 0.951 . S
H3437 C3463 0.950 . S
H3438 C3464 0.950 . S
H3439 C3466 0.950 . S
H3440 C3469 0.950 . S
H3441 C3470 0.950 . S
H3442 C3472 0.950 . S
H3443 C3473 0.950 . S
C3444 H3426 0.951 . S
C3444 C3445 1.366 . S
C3444 C3446 1.388 . S
C3445 C3444 1.366 . S
C3445 C3449 1.385 . S
C3446 H3427 0.951 . S
C3446 C3444 1.388 . S
C3446 C3447 1.366 . S
C3447 C3446 1.366 . S
C3447 C3448 1.414 . S
C3447 C3450 1.499 . S
C3448 H3428 0.950 . S
C3448 C3447 1.414 . S
C3448 C3449 1.374 . S
C3449 H3429 0.950 . S
C3449 C3445 1.385 . S
C3449 C3448 1.374 . S
C3450 C3447 1.499 . S
C3450 C3451 1.373 . S
C3450 C3452 1.389 . S
C3451 H3430 0.950 . S
C3451 C3450 1.373 . S
C3451 C3467 1.377 . S
C3452 C3450 1.389 . S
C3452 C3453 1.524 . S
C3452 C3466 1.377 . S
C3453 C3452 1.524 . S
C3453 C3454 1.397 . S
C3453 C3458 1.363 . S
C3454 H3431 0.950 . S
C3454 C3453 1.397 . S
C3454 C3455 1.334 . S
C3455 H3432 0.950 . S
C3455 C3454 1.334 . S
C3455 C3456 1.287 . S
C3456 C3455 1.287 . S
C3456 C3457 1.524 . S
C3456 H3475 0.913 . S
C3457 H3433 0.950 . S
C3457 C3456 1.524 . S
C3457 C3458 1.415 . S
C3458 H3434 0.950 . S
C3458 C3453 1.363 . S
C3458 C3457 1.415 . S
C3459 H3435 0.951 . S
C3459 C3460 1.366 . S
C3459 C3461 1.388 . S
C3460 C3459 1.366 . S
C3460 C3464 1.385 . S
C3461 H3436 0.951 . S
C3461 C3459 1.388 . S
C3461 C3462 1.366 . S
C3462 C3461 1.366 . S
C3462 C3463 1.414 . S
C3462 C3465 1.499 . S
C3463 H3437 0.950 . S
C3463 C3462 1.414 . S
C3463 C3464 1.374 . S
C3464 H3438 0.950 . S
C3464 C3460 1.385 . S
C3464 C3463 1.374 . S
C3465 C3462 1.499 . S
C3465 C3466 1.373 . S
C3465 C3467 1.389 . S
C3466 H3439 0.950 . S
C3466 C3452 1.377 . S
C3466 C3465 1.373 . S
C3467 C3451 1.377 . S
C3467 C3465 1.389 . S
C3467 C3468 1.524 . S
C3468 C3467 1.524 . S
C3468 C3469 1.397 . S
C3468 C3473 1.363 . S
C3469 H3440 0.950 . S
C3469 C3468 1.397 . S
C3469 C3470 1.334 . S
C3470 H3441 0.950 . S
C3470 C3469 1.334 . S
C3470 C3471 1.287 . S
C3471 C3470 1.287 . S
C3471 C3472 1.524 . S
C3471 H3474 0.999 . S
C3472 H3442 0.950 . S
C3472 C3471 1.524 . S
C3472 C3473 1.415 . S
C3473 H3443 0.950 . S
C3473 C3468 1.363 . S
C3473 C3472 1.415 . S
H3474 C3471 0.999 . S
H3475 C3456 0.913 . S
H3476 C3494 0.951 . S
H3477 C3496 0.951 . S
H3478 C3498 0.950 . S
H3479 C3499 0.950 . S
H3480 C3501 0.950 . S
H3481 C3504 0.950 . S
H3482 C3505 0.950 . S
H3483 C3507 0.950 . S
H3484 C3508 0.950 . S
H3485 C3509 0.951 . S
H3486 C3511 0.951 . S
H3487 C3513 0.950 . S
H3488 C3514 0.950 . S
H3489 C3516 0.950 . S
H3490 C3519 0.917 1_655 S
H3491 C3520 0.950 . S
H3492 C3522 0.950 . S
H3493 C3523 0.950 . S
C3494 H3476 0.951 . S
C3494 C3495 1.366 . S
C3494 C3496 1.388 . S
C3495 C3494 1.366 . S
C3495 C3499 1.385 . S
C3496 H3477 0.951 . S
C3496 C3494 1.388 . S
C3496 C3497 1.366 . S
C3497 C3496 1.366 . S
C3497 C3498 1.414 . S
C3497 C3500 1.499 . S
C3498 H3478 0.950 . S
C3498 C3497 1.414 . S
C3498 C3499 1.374 . S
C3499 H3479 0.950 . S
C3499 C3495 1.385 . S
C3499 C3498 1.374 . S
C3500 C3497 1.499 . S
C3500 C3501 1.373 . S
C3500 C3502 1.389 . S
C3501 H3480 0.950 . S
C3501 C3500 1.373 . S
C3501 C3517 1.377 . S
C3502 C3500 1.389 . S
C3502 C3503 1.524 . S
C3502 C3516 1.377 . S
C3503 C3502 1.524 . S
C3503 C3504 1.397 . S
C3503 C3508 1.363 . S
C3504 H3481 0.950 . S
C3504 C3503 1.397 . S
C3504 C3505 1.334 . S
C3505 H3482 0.950 . S
C3505 C3504 1.334 . S
C3505 C3506 1.287 . S
C3506 C3505 1.287 . S
C3506 C3507 1.524 . S
C3506 H3525 0.913 . S
C3507 H3483 0.950 . S
C3507 C3506 1.524 . S
C3507 C3508 1.415 . S
C3508 H3484 0.950 . S
C3508 C3503 1.363 . S
C3508 C3507 1.415 . S
C3509 H3485 0.951 . S
C3509 C3510 1.366 . S
C3509 C3511 1.388 . S
C3510 C3509 1.366 . S
C3510 C3514 1.385 1_554 S
C3511 H3486 0.951 . S
C3511 C3509 1.388 . S
C3511 C3512 1.366 1_554 S
C3512 C3511 1.366 1_556 S
C3512 C3513 1.414 . S
C3512 C3515 1.499 . S
C3513 H3487 0.950 . S
C3513 C3512 1.414 . S
C3513 C3514 1.374 . S
C3514 H3488 0.950 . S
C3514 C3510 1.385 1_556 S
C3514 C3513 1.374 . S
C3515 C3512 1.499 . S
C3515 C3516 1.373 . S
C3515 C3517 1.389 . S
C3516 H3489 0.950 . S
C3516 C3502 1.377 . S
C3516 C3515 1.373 . S
C3517 C3501 1.377 . S
C3517 C3515 1.389 . S
C3517 C3518 1.524 1_556 S
C3518 C3517 1.524 1_554 S
C3518 C3519 1.397 . S
C3518 C3523 1.363 . S
C3519 H3490 0.917 1_455 S
C3519 C3518 1.397 . S
C3519 C3520 1.334 1_455 S
C3520 H3491 0.950 . S
C3520 C3519 1.334 1_655 S
C3520 C3521 1.287 1_655 S
C3521 C3520 1.287 1_455 S
C3521 C3522 1.524 . S
C3521 H3524 0.999 . S
C3522 H3492 0.950 . S
C3522 C3521 1.524 . S
C3522 C3523 1.415 . S
C3523 H3493 0.950 . S
C3523 C3518 1.363 . S
C3523 C3522 1.415 . S
H3524 C3521 0.999 . S
H3525 C3506 0.913 . S
H3526 C3544 0.951 . S
H3527 C3546 0.946 . S
H3528 C3548 0.950 . S
H3529 C3549 0.950 . S
H3530 C3551 0.950 . S
H3531 C3554 0.950 . S
H3532 C3555 0.952 . S
H3533 C3557 0.950 . S
H3534 C3558 0.950 . S
H3535 C3559 0.951 . S
H3536 C3561 0.951 . S
H3537 C3563 0.950 . S
H3538 C3564 0.950 . S
H3539 C3566 0.950 . S
H3540 C3569 0.950 . S
H3541 C3570 0.950 . S
H3542 C3572 0.950 . S
H3543 C3573 0.950 . S
C3544 H3526 0.951 . S
C3544 C3545 1.366 . S
C3544 C3546 1.388 1_455 S
C3545 C3544 1.366 . S
C3545 C3549 1.385 1_455 S
C3546 H3527 0.946 . S
C3546 C3544 1.388 1_655 S
C3546 C3547 1.366 . S
C3547 C3546 1.366 . S
C3547 C3548 1.414 . S
C3547 C3550 1.499 . S
C3548 H3528 0.950 . S
C3548 C3547 1.414 . S
C3548 C3549 1.374 . S
C3549 H3529 0.950 . S
C3549 C3545 1.385 1_655 S
C3549 C3548 1.374 . S
C3550 C3547 1.499 . S
C3550 C3551 1.373 . S
C3550 C3552 1.389 . S
C3551 H3530 0.950 . S
C3551 C3550 1.373 . S
C3551 C3567 1.377 . S
C3552 C3550 1.389 . S
C3552 C3553 1.524 . S
C3552 C3566 1.377 . S
C3553 C3552 1.524 . S
C3553 C3554 1.397 . S
C3553 C3558 1.363 . S
C3554 H3531 0.950 . S
C3554 C3553 1.397 . S
C3554 C3555 1.332 1_655 S
C3555 H3532 0.952 . S
C3555 C3554 1.332 1_455 S
C3555 C3556 1.287 . S
C3556 C3555 1.287 . S
C3556 C3557 1.524 . S
C3556 H3575 0.913 . S
C3557 H3533 0.950 . S
C3557 C3556 1.524 . S
C3557 C3558 1.415 1_455 S
C3558 H3534 0.950 . S
C3558 C3553 1.363 . S
C3558 C3557 1.415 1_655 S
C3559 H3535 0.951 . S
C3559 C3560 1.366 . S
C3559 C3561 1.388 . S
C3560 C3559 1.366 . S
C3560 C3564 1.385 . S
C3561 H3536 0.951 . S
C3561 C3559 1.388 . S
C3561 C3562 1.366 . S
C3562 C3561 1.366 . S
C3562 C3563 1.414 . S
C3562 C3565 1.499 . S
C3563 H3537 0.950 . S
C3563 C3562 1.414 . S
C3563 C3564 1.374 . S
C3564 H3538 0.950 . S
C3564 C3560 1.385 . S
C3564 C3563 1.374 . S
C3565 C3562 1.499 . S
C3565 C3566 1.373 . S
C3565 C3567 1.389 . S
C3566 H3539 0.950 . S
C3566 C3552 1.377 . S
C3566 C3565 1.373 . S
C3567 C3551 1.377 . S
C3567 C3565 1.389 . S
C3567 C3568 1.524 . S
C3568 C3567 1.524 . S
C3568 C3569 1.397 . S
C3568 C3573 1.363 . S
C3569 H3540 0.950 . S
C3569 C3568 1.397 . S
C3569 C3570 1.334 . S
C3570 H3541 0.950 . S
C3570 C3569 1.334 . S
C3570 C3571 1.287 . S
C3571 C3570 1.287 . S
C3571 C3572 1.524 . S
C3571 H3574 0.999 . S
C3572 H3542 0.950 . S
C3572 C3571 1.524 . S
C3572 C3573 1.415 . S
C3573 H3543 0.950 . S
C3573 C3568 1.363 . S
C3573 C3572 1.415 . S
H3574 C3571 0.999 . S
H3575 C3556 0.913 . S
H3576 C3594 0.951 . S
H3577 C3596 0.951 . S
H3578 C3598 0.950 . S
H3579 C3599 0.950 . S
H3580 C3601 0.950 . S
H3581 C3604 0.950 . S
H3582 C3605 0.950 . S
H3583 C3607 0.950 . S
H3584 C3608 0.950 . S
H3585 C3609 0.951 . S
H3586 C3611 0.951 . S
H3587 C3613 0.950 . S
H3588 C3614 0.950 . S
H3589 C3616 0.950 . S
H3590 C3619 0.950 . S
H3591 C3620 0.950 . S
H3592 C3622 0.950 . S
H3593 C3623 0.950 . S
C3594 H3576 0.951 . S
C3594 C3595 1.366 . S
C3594 C3596 1.388 . S
C3595 C3594 1.366 . S
C3595 C3599 1.385 . S
C3596 H3577 0.951 . S
C3596 C3594 1.388 . S
C3596 C3597 1.366 . S
C3597 C3596 1.366 . S
C3597 C3598 1.414 . S
C3597 C3600 1.499 . S
C3598 H3578 0.950 . S
C3598 C3597 1.414 . S
C3598 C3599 1.374 . S
C3599 H3579 0.950 . S
C3599 C3595 1.385 . S
C3599 C3598 1.374 . S
C3600 C3597 1.499 . S
C3600 C3601 1.373 . S
C3600 C3602 1.389 . S
C3601 H3580 0.950 . S
C3601 C3600 1.373 . S
C3601 C3617 1.377 . S
C3602 C3600 1.389 . S
C3602 C3603 1.524 . S
C3602 C3616 1.377 . S
C3603 C3602 1.524 . S
C3603 C3604 1.397 . S
C3603 C3608 1.363 . S
C3604 H3581 0.950 . S
C3604 C3603 1.397 . S
C3604 C3605 1.334 . S
C3605 H3582 0.950 . S
C3605 C3604 1.334 . S
C3605 C3606 1.287 . S
C3606 C3605 1.287 . S
C3606 C3607 1.524 . S
C3606 H3625 0.913 . S
C3607 H3583 0.950 . S
C3607 C3606 1.524 . S
C3607 C3608 1.415 . S
C3608 H3584 0.950 . S
C3608 C3603 1.363 . S
C3608 C3607 1.415 . S
C3609 H3585 0.951 . S
C3609 C3610 1.366 . S
C3609 C3611 1.388 . S
C3610 C3609 1.366 . S
C3610 C3614 1.385 . S
C3611 H3586 0.951 . S
C3611 C3609 1.388 . S
C3611 C3612 1.366 . S
C3612 C3611 1.366 . S
C3612 C3613 1.414 . S
C3612 C3615 1.499 . S
C3613 H3587 0.950 . S
C3613 C3612 1.414 . S
C3613 C3614 1.374 . S
C3614 H3588 0.950 . S
C3614 C3610 1.385 . S
C3614 C3613 1.374 . S
C3615 C3612 1.499 . S
C3615 C3616 1.373 . S
C3615 C3617 1.389 . S
C3616 H3589 0.950 . S
C3616 C3602 1.377 . S
C3616 C3615 1.373 . S
C3617 C3601 1.377 . S
C3617 C3615 1.389 . S
C3617 C3618 1.524 . S
C3618 C3617 1.524 . S
C3618 C3619 1.397 . S
C3618 C3623 1.363 . S
C3619 H3590 0.950 . S
C3619 C3618 1.397 . S
C3619 C3620 1.334 . S
C3620 H3591 0.950 . S
C3620 C3619 1.334 . S
C3620 C3621 1.287 . S
C3621 C3620 1.287 . S
C3621 C3622 1.524 . S
C3621 H3624 0.999 1_554 S
C3622 H3592 0.950 . S
C3622 C3621 1.524 . S
C3622 C3623 1.415 . S
C3623 H3593 0.950 . S
C3623 C3618 1.363 . S
C3623 C3622 1.415 . S
H3624 C3621 0.999 1_556 S
H3625 C3606 0.913 . S
H3626 C3644 0.951 . S
H3627 C3646 0.951 . S
H3628 C3648 0.950 1_655 S
H3629 C3649 0.950 . S
H3630 C3651 0.950 . S
H3631 C3654 0.950 . S
H3632 C3655 0.950 . S
H3633 C3657 0.950 . S
H3634 C3658 0.952 . S
H3635 C3659 0.951 . S
H3636 C3661 0.951 . S
H3637 C3663 0.950 . S
H3638 C3664 0.950 . S
H3639 C3666 0.950 . S
H3640 C3669 0.950 . S
H3641 C3670 0.950 . S
H3642 C3672 0.950 . S
H3643 C3673 0.950 . S
C3644 H3626 0.951 . S
C3644 C3645 1.366 . S
C3644 C3646 1.388 . S
C3645 C3644 1.366 . S
C3645 C3649 1.385 . S
C3646 H3627 0.951 . S
C3646 C3644 1.388 . S
C3646 C3647 1.366 . S
C3647 C3646 1.366 . S
C3647 C3648 1.414 . S
C3647 C3650 1.499 1_455 S
C3648 H3628 0.950 1_455 S
C3648 C3647 1.414 . S
C3648 C3649 1.374 . S
C3649 H3629 0.950 . S
C3649 C3645 1.385 . S
C3649 C3648 1.374 . S
C3650 C3647 1.499 1_655 S
C3650 C3651 1.373 . S
C3650 C3652 1.389 . S
C3651 H3630 0.950 . S
C3651 C3650 1.373 . S
C3651 C3667 1.377 . S
C3652 C3650 1.389 . S
C3652 C3653 1.524 . S
C3652 C3666 1.377 . S
C3653 C3652 1.524 . S
C3653 C3654 1.397 1_655 S
C3653 C3658 1.364 . S
C3654 H3631 0.950 . S
C3654 C3653 1.397 1_455 S
C3654 C3655 1.334 . S
C3655 H3632 0.950 . S
C3655 C3654 1.334 . S
C3655 C3656 1.287 . S
C3656 C3655 1.287 . S
C3656 C3657 1.524 . S
C3656 H3675 0.913 . S
C3657 H3633 0.950 . S
C3657 C3656 1.524 . S
C3657 C3658 1.412 1_455 S
C3658 H3634 0.952 . S
C3658 C3653 1.364 . S
C3658 C3657 1.412 1_655 S
C3659 H3635 0.951 . S
C3659 C3660 1.366 . S
C3659 C3661 1.388 . S
C3660 C3659 1.366 . S
C3660 C3664 1.385 . S
C3661 H3636 0.951 . S
C3661 C3659 1.388 . S
C3661 C3662 1.366 . S
C3662 C3661 1.366 . S
C3662 C3663 1.414 . S
C3662 C3665 1.499 . S
C3663 H3637 0.950 . S
C3663 C3662 1.414 . S
C3663 C3664 1.374 . S
C3664 H3638 0.950 . S
C3664 C3660 1.385 . S
C3664 C3663 1.374 . S
C3665 C3662 1.499 . S
C3665 C3666 1.373 . S
C3665 C3667 1.389 . S
C3666 H3639 0.950 . S
C3666 C3652 1.377 . S
C3666 C3665 1.373 . S
C3667 C3651 1.377 . S
C3667 C3665 1.389 . S
C3667 C3668 1.524 . S
C3668 C3667 1.524 . S
C3668 C3669 1.397 . S
C3668 C3673 1.363 . S
C3669 H3640 0.950 . S
C3669 C3668 1.397 . S
C3669 C3670 1.334 . S
C3670 H3641 0.950 . S
C3670 C3669 1.334 . S
C3670 C3671 1.287 . S
C3671 C3670 1.287 . S
C3671 C3672 1.524 . S
C3671 H3674 0.999 . S
C3672 H3642 0.950 . S
C3672 C3671 1.524 . S
C3672 C3673 1.415 . S
C3673 H3643 0.950 . S
C3673 C3668 1.363 . S
C3673 C3672 1.415 . S
H3674 C3671 0.999 . S
H3675 C3656 0.913 . S
H3676 C3694 0.951 . S
H3677 C3696 0.951 . S
H3678 C3698 0.950 . S
H3679 C3699 0.950 . S
H3680 C3701 0.950 . S
H3681 C3704 0.950 . S
H3682 C3705 0.950 . S
H3683 C3707 0.950 . S
H3684 C3708 0.950 . S
H3685 C3709 0.951 . S
H3686 C3711 0.951 . S
H3687 C3713 0.956 1_655 S
H3688 C3714 0.950 . S
H3689 C3716 0.950 . S
H3690 C3719 0.950 1_655 S
H3691 C3720 0.950 1_655 S
H3692 C3722 0.950 . S
H3693 C3723 0.950 . S
C3694 H3676 0.951 . S
C3694 C3695 1.366 . S
C3694 C3696 1.388 . S
C3695 C3694 1.366 . S
C3695 C3699 1.385 1_655 S
C3696 H3677 0.951 . S
C3696 C3694 1.388 . S
C3696 C3697 1.366 1_655 S
C3697 C3696 1.366 1_455 S
C3697 C3698 1.414 . S
C3697 C3700 1.499 . S
C3698 H3678 0.950 . S
C3698 C3697 1.414 . S
C3698 C3699 1.374 . S
C3699 H3679 0.950 . S
C3699 C3695 1.385 1_455 S
C3699 C3698 1.374 . S
C3700 C3697 1.499 . S
C3700 C3701 1.373 . S
C3700 C3702 1.389 . S
C3701 H3680 0.950 . S
C3701 C3700 1.373 . S
C3701 C3717 1.377 . S
C3702 C3700 1.389 . S
C3702 C3703 1.524 . S
C3702 C3716 1.377 . S
C3703 C3702 1.524 . S
C3703 C3704 1.397 . S
C3703 C3708 1.363 1_455 S
C3704 H3681 0.950 . S
C3704 C3703 1.397 . S
C3704 C3705 1.334 . S
C3705 H3682 0.950 . S
C3705 C3704 1.334 . S
C3705 C3706 1.287 . S
C3706 C3705 1.287 . S
C3706 C3707 1.524 1_455 S
C3706 H3725 0.913 . S
C3707 H3683 0.950 . S
C3707 C3706 1.524 1_655 S
C3707 C3708 1.415 . S
C3708 H3684 0.950 . S
C3708 C3703 1.363 1_655 S
C3708 C3707 1.415 . S
C3709 H3685 0.951 . S
C3709 C3710 1.366 . S
C3709 C3711 1.388 . S
C3710 C3709 1.366 . S
C3710 C3714 1.385 . S
C3711 H3686 0.951 . S
C3711 C3709 1.388 . S
C3711 C3712 1.366 . S
C3712 C3711 1.366 . S
C3712 C3713 1.414 . S
C3712 C3715 1.499 . S
C3713 H3687 0.956 1_455 S
C3713 C3712 1.414 . S
C3713 C3714 1.374 . S
C3714 H3688 0.950 . S
C3714 C3710 1.385 . S
C3714 C3713 1.374 . S
C3715 C3712 1.499 . S
C3715 C3716 1.373 . S
C3715 C3717 1.389 . S
C3716 H3689 0.950 . S
C3716 C3702 1.377 . S
C3716 C3715 1.373 . S
C3717 C3701 1.377 . S
C3717 C3715 1.389 . S
C3717 C3718 1.524 . S
C3718 C3717 1.524 . S
C3718 C3719 1.397 . S
C3718 C3723 1.363 . S
C3719 H3690 0.950 1_455 S
C3719 C3718 1.397 . S
C3719 C3720 1.334 . S
C3720 H3691 0.950 1_455 S
C3720 C3719 1.334 . S
C3720 C3721 1.287 . S
C3721 C3720 1.287 . S
C3721 C3722 1.524 . S
C3721 H3724 0.999 . S
C3722 H3692 0.950 . S
C3722 C3721 1.524 . S
C3722 C3723 1.415 . S
C3723 H3693 0.950 . S
C3723 C3718 1.363 . S
C3723 C3722 1.415 . S
H3724 C3721 0.999 . S
H3725 C3706 0.913 . S
H3726 C3744 0.951 . S
H3727 C3746 0.951 . S
H3728 C3748 0.950 . S
H3729 C3749 0.950 . S
H3730 C3751 0.950 . S
H3731 C3754 0.950 . S
H3732 C3755 0.950 . S
H3733 C3757 0.950 . S
H3734 C3758 0.950 . S
H3735 C3759 0.951 . S
H3736 C3761 0.951 . S
H3737 C3763 0.950 . S
H3738 C3764 0.950 . S
H3739 C3766 0.950 . S
H3740 C3769 0.950 . S
H3741 C3770 0.950 . S
H3742 C3772 0.950 . S
H3743 C3773 0.950 . S
C3744 H3726 0.951 . S
C3744 C3745 1.366 . S
C3744 C3746 1.388 . S
C3745 C3744 1.366 . S
C3745 C3749 1.385 . S
C3746 H3727 0.951 . S
C3746 C3744 1.388 . S
C3746 C3747 1.366 . S
C3747 C3746 1.366 . S
C3747 C3748 1.414 . S
C3747 C3750 1.499 . S
C3748 H3728 0.950 . S
C3748 C3747 1.414 . S
C3748 C3749 1.374 . S
C3749 H3729 0.950 . S
C3749 C3745 1.385 . S
C3749 C3748 1.374 . S
C3750 C3747 1.499 . S
C3750 C3751 1.373 . S
C3750 C3752 1.389 . S
C3751 H3730 0.950 . S
C3751 C3750 1.373 . S
C3751 C3767 1.377 . S
C3752 C3750 1.389 . S
C3752 C3753 1.524 . S
C3752 C3766 1.377 . S
C3753 C3752 1.524 . S
C3753 C3754 1.397 . S
C3753 C3758 1.363 . S
C3754 H3731 0.950 . S
C3754 C3753 1.397 . S
C3754 C3755 1.334 . S
C3755 H3732 0.950 . S
C3755 C3754 1.334 . S
C3755 C3756 1.287 . S
C3756 C3755 1.287 . S
C3756 C3757 1.524 . S
C3756 H3775 0.913 . S
C3757 H3733 0.950 . S
C3757 C3756 1.524 . S
C3757 C3758 1.415 . S
C3758 H3734 0.950 . S
C3758 C3753 1.363 . S
C3758 C3757 1.415 . S
C3759 H3735 0.951 . S
C3759 C3760 1.366 . S
C3759 C3761 1.388 . S
C3760 C3759 1.366 . S
C3760 C3764 1.385 . S
C3761 H3736 0.951 . S
C3761 C3759 1.388 . S
C3761 C3762 1.366 . S
C3762 C3761 1.366 . S
C3762 C3763 1.414 . S
C3762 C3765 1.499 . S
C3763 H3737 0.950 . S
C3763 C3762 1.414 . S
C3763 C3764 1.374 . S
C3764 H3738 0.950 . S
C3764 C3760 1.385 . S
C3764 C3763 1.374 . S
C3765 C3762 1.499 . S
C3765 C3766 1.373 . S
C3765 C3767 1.389 . S
C3766 H3739 0.950 . S
C3766 C3752 1.377 . S
C3766 C3765 1.373 . S
C3767 C3751 1.377 . S
C3767 C3765 1.389 . S
C3767 C3768 1.524 . S
C3768 C3767 1.524 . S
C3768 C3769 1.397 . S
C3768 C3773 1.363 . S
C3769 H3740 0.950 . S
C3769 C3768 1.397 . S
C3769 C3770 1.334 . S
C3770 H3741 0.950 . S
C3770 C3769 1.334 . S
C3770 C3771 1.287 . S
C3771 C3770 1.287 . S
C3771 C3772 1.524 . S
C3771 H3774 0.999 . S
C3772 H3742 0.950 . S
C3772 C3771 1.524 . S
C3772 C3773 1.415 . S
C3773 H3743 0.950 . S
C3773 C3768 1.363 . S
C3773 C3772 1.415 . S
H3774 C3771 0.999 . S
H3775 C3756 0.913 . S
H3776 C3794 0.951 . S
H3777 C3796 0.951 . S
H3778 C3798 0.950 . S
H3779 C3799 0.950 . S
H3780 C3801 0.950 . S
H3781 C3804 0.950 . S
H3782 C3805 0.950 . S
H3783 C3807 0.950 . S
H3784 C3808 0.950 . S
H3785 C3809 0.951 . S
H3786 C3811 0.951 . S
H3787 C3813 0.950 . S
H3788 C3814 0.950 . S
H3789 C3816 0.950 . S
H3790 C3819 0.950 . S
H3791 C3820 0.950 . S
H3792 C3822 0.950 . S
H3793 C3823 0.950 . S
C3794 H3776 0.951 . S
C3794 C3795 1.366 . S
C3794 C3796 1.388 . S
C3795 C3794 1.366 . S
C3795 C3799 1.385 . S
C3796 H3777 0.951 . S
C3796 C3794 1.388 . S
C3796 C3797 1.366 . S
C3797 C3796 1.366 . S
C3797 C3798 1.414 . S
C3797 C3800 1.499 . S
C3798 H3778 0.950 . S
C3798 C3797 1.414 . S
C3798 C3799 1.374 . S
C3799 H3779 0.950 . S
C3799 C3795 1.385 . S
C3799 C3798 1.374 . S
C3800 C3797 1.499 . S
C3800 C3801 1.373 . S
C3800 C3802 1.389 . S
C3801 H3780 0.950 . S
C3801 C3800 1.373 . S
C3801 C3817 1.377 . S
C3802 C3800 1.389 . S
C3802 C3803 1.524 . S
C3802 C3816 1.377 . S
C3803 C3802 1.524 . S
C3803 C3804 1.397 . S
C3803 C3808 1.363 . S
C3804 H3781 0.950 . S
C3804 C3803 1.397 . S
C3804 C3805 1.334 . S
C3805 H3782 0.950 . S
C3805 C3804 1.334 . S
C3805 C3806 1.287 . S
C3806 C3805 1.287 . S
C3806 C3807 1.524 . S
C3806 H3825 0.913 . S
C3807 H3783 0.950 . S
C3807 C3806 1.524 . S
C3807 C3808 1.415 . S
C3808 H3784 0.950 . S
C3808 C3803 1.363 . S
C3808 C3807 1.415 . S
C3809 H3785 0.951 . S
C3809 C3810 1.366 . S
C3809 C3811 1.388 . S
C3810 C3809 1.366 . S
C3810 C3814 1.385 . S
C3811 H3786 0.951 . S
C3811 C3809 1.388 . S
C3811 C3812 1.366 . S
C3812 C3811 1.366 . S
C3812 C3813 1.414 . S
C3812 C3815 1.499 . S
C3813 H3787 0.950 . S
C3813 C3812 1.414 . S
C3813 C3814 1.374 . S
C3814 H3788 0.950 . S
C3814 C3810 1.385 . S
C3814 C3813 1.374 . S
C3815 C3812 1.499 . S
C3815 C3816 1.373 . S
C3815 C3817 1.389 . S
C3816 H3789 0.950 . S
C3816 C3802 1.377 . S
C3816 C3815 1.373 . S
C3817 C3801 1.377 . S
C3817 C3815 1.389 . S
C3817 C3818 1.524 . S
C3818 C3817 1.524 . S
C3818 C3819 1.397 . S
C3818 C3823 1.363 . S
C3819 H3790 0.950 . S
C3819 C3818 1.397 . S
C3819 C3820 1.334 . S
C3820 H3791 0.950 . S
C3820 C3819 1.334 . S
C3820 C3821 1.287 . S
C3821 C3820 1.287 . S
C3821 C3822 1.524 . S
C3821 H3824 0.999 . S
C3822 H3792 0.950 . S
C3822 C3821 1.524 . S
C3822 C3823 1.415 . S
C3823 H3793 0.950 . S
C3823 C3818 1.363 . S
C3823 C3822 1.415 . S
H3824 C3821 0.999 . S
H3825 C3806 0.913 . S
H3826 C3844 0.951 . S
H3827 C3846 0.951 . S
H3828 C3848 0.950 . S
H3829 C3849 0.950 . S
H3830 C3851 0.950 . S
H3831 C3854 0.950 . S
H3832 C3855 0.950 . S
H3833 C3857 0.950 . S
H3834 C3858 0.950 . S
H3835 C3859 0.951 . S
H3836 C3861 0.951 . S
H3837 C3863 0.950 . S
H3838 C3864 0.950 . S
H3839 C3866 0.950 . S
H3840 C3869 0.950 . S
H3841 C3870 0.950 . S
H3842 C3872 0.950 . S
H3843 C3873 0.950 . S
C3844 H3826 0.951 . S
C3844 C3845 1.366 . S
C3844 C3846 1.388 . S
C3845 C3844 1.366 . S
C3845 C3849 1.385 . S
C3846 H3827 0.951 . S
C3846 C3844 1.388 . S
C3846 C3847 1.366 . S
C3847 C3846 1.366 . S
C3847 C3848 1.414 . S
C3847 C3850 1.499 . S
C3848 H3828 0.950 . S
C3848 C3847 1.414 . S
C3848 C3849 1.374 . S
C3849 H3829 0.950 . S
C3849 C3845 1.385 . S
C3849 C3848 1.374 . S
C3850 C3847 1.499 . S
C3850 C3851 1.373 . S
C3850 C3852 1.389 . S
C3851 H3830 0.950 . S
C3851 C3850 1.373 . S
C3851 C3867 1.377 . S
C3852 C3850 1.389 . S
C3852 C3853 1.524 . S
C3852 C3866 1.377 . S
C3853 C3852 1.524 . S
C3853 C3854 1.397 . S
C3853 C3858 1.363 . S
C3854 H3831 0.950 . S
C3854 C3853 1.397 . S
C3854 C3855 1.334 . S
C3855 H3832 0.950 . S
C3855 C3854 1.334 . S
C3855 C3856 1.287 . S
C3856 C3855 1.287 . S
C3856 C3857 1.524 . S
C3856 H3875 0.913 . S
C3857 H3833 0.950 . S
C3857 C3856 1.524 . S
C3857 C3858 1.415 . S
C3858 H3834 0.950 . S
C3858 C3853 1.363 . S
C3858 C3857 1.415 . S
C3859 H3835 0.951 . S
C3859 C3860 1.366 . S
C3859 C3861 1.388 . S
C3860 C3859 1.366 . S
C3860 C3864 1.385 . S
C3861 H3836 0.951 . S
C3861 C3859 1.388 . S
C3861 C3862 1.366 . S
C3862 C3861 1.366 . S
C3862 C3863 1.414 . S
C3862 C3865 1.499 . S
C3863 H3837 0.950 . S
C3863 C3862 1.414 . S
C3863 C3864 1.374 . S
C3864 H3838 0.950 . S
C3864 C3860 1.385 . S
C3864 C3863 1.374 . S
C3865 C3862 1.499 . S
C3865 C3866 1.373 . S
C3865 C3867 1.389 . S
C3866 H3839 0.950 . S
C3866 C3852 1.377 . S
C3866 C3865 1.373 . S
C3867 C3851 1.377 . S
C3867 C3865 1.389 . S
C3867 C3868 1.524 . S
C3868 C3867 1.524 . S
C3868 C3869 1.397 . S
C3868 C3873 1.363 . S
C3869 H3840 0.950 . S
C3869 C3868 1.397 . S
C3869 C3870 1.334 . S
C3870 H3841 0.950 . S
C3870 C3869 1.334 . S
C3870 C3871 1.287 . S
C3871 C3870 1.287 . S
C3871 C3872 1.524 . S
C3871 H3874 0.999 . S
C3872 H3842 0.950 . S
C3872 C3871 1.524 . S
C3872 C3873 1.415 . S
C3873 H3843 0.950 . S
C3873 C3868 1.363 . S
C3873 C3872 1.415 . S
H3874 C3871 0.999 . S
H3875 C3856 0.913 . S
H3876 C3894 0.951 . S
H3877 C3896 0.951 . S
H3878 C3898 0.950 . S
H3879 C3899 0.950 . S
H3880 C3901 0.950 . S
H3881 C3904 0.950 . S
H3882 C3905 0.950 . S
H3883 C3907 0.950 . S
H3884 C3908 0.950 . S
H3885 C3909 0.951 . S
H3886 C3911 0.951 . S
H3887 C3913 0.950 . S
H3888 C3914 0.950 . S
H3889 C3916 0.950 . S
H3890 C3919 0.950 . S
H3891 C3920 0.950 . S
H3892 C3922 0.950 . S
H3893 C3923 0.950 . S
C3894 H3876 0.951 . S
C3894 C3895 1.366 . S
C3894 C3896 1.388 . S
C3895 C3894 1.366 . S
C3895 C3899 1.385 . S
C3896 H3877 0.951 . S
C3896 C3894 1.388 . S
C3896 C3897 1.366 . S
C3897 C3896 1.366 . S
C3897 C3898 1.414 . S
C3897 C3900 1.499 . S
C3898 H3878 0.950 . S
C3898 C3897 1.414 . S
C3898 C3899 1.374 . S
C3899 H3879 0.950 . S
C3899 C3895 1.385 . S
C3899 C3898 1.374 . S
C3900 C3897 1.499 . S
C3900 C3901 1.373 . S
C3900 C3902 1.389 . S
C3901 H3880 0.950 . S
C3901 C3900 1.373 . S
C3901 C3917 1.377 . S
C3902 C3900 1.389 . S
C3902 C3903 1.524 . S
C3902 C3916 1.377 . S
C3903 C3902 1.524 . S
C3903 C3904 1.397 . S
C3903 C3908 1.363 . S
C3904 H3881 0.950 . S
C3904 C3903 1.397 . S
C3904 C3905 1.334 . S
C3905 H3882 0.950 . S
C3905 C3904 1.334 . S
C3905 C3906 1.287 . S
C3906 C3905 1.287 . S
C3906 C3907 1.524 . S
C3906 H3925 0.913 . S
C3907 H3883 0.950 . S
C3907 C3906 1.524 . S
C3907 C3908 1.415 . S
C3908 H3884 0.950 . S
C3908 C3903 1.363 . S
C3908 C3907 1.415 . S
C3909 H3885 0.951 . S
C3909 C3910 1.366 . S
C3909 C3911 1.388 . S
C3910 C3909 1.366 . S
C3910 C3914 1.385 . S
C3911 H3886 0.951 . S
C3911 C3909 1.388 . S
C3911 C3912 1.366 . S
C3912 C3911 1.366 . S
C3912 C3913 1.414 . S
C3912 C3915 1.499 . S
C3913 H3887 0.950 . S
C3913 C3912 1.414 . S
C3913 C3914 1.374 . S
C3914 H3888 0.950 . S
C3914 C3910 1.385 . S
C3914 C3913 1.374 . S
C3915 C3912 1.499 . S
C3915 C3916 1.373 . S
C3915 C3917 1.389 . S
C3916 H3889 0.950 . S
C3916 C3902 1.377 . S
C3916 C3915 1.373 . S
C3917 C3901 1.377 . S
C3917 C3915 1.389 . S
C3917 C3918 1.524 . S
C3918 C3917 1.524 . S
C3918 C3919 1.397 . S
C3918 C3923 1.363 . S
C3919 H3890 0.950 . S
C3919 C3918 1.397 . S
C3919 C3920 1.334 . S
C3920 H3891 0.950 . S
C3920 C3919 1.334 . S
C3920 C3921 1.287 . S
C3921 C3920 1.287 . S
C3921 C3922 1.524 . S
C3921 H3924 0.999 . S
C3922 H3892 0.950 . S
C3922 C3921 1.524 . S
C3922 C3923 1.415 . S
C3923 H3893 0.950 . S
C3923 C3918 1.363 . S
C3923 C3922 1.415 . S
H3924 C3921 0.999 . S
H3925 C3906 0.913 . S
H3926 C3944 0.951 . S
H3927 C3946 0.951 . S
H3928 C3948 0.950 . S
H3929 C3949 0.950 . S
H3930 C3951 0.950 . S
H3931 C3954 0.950 . S
H3932 C3955 0.950 . S
H3933 C3957 0.950 . S
H3934 C3958 0.950 . S
H3935 C3959 0.951 . S
H3936 C3961 0.951 . S
H3937 C3963 0.950 . S
H3938 C3964 0.950 . S
H3939 C3966 0.950 . S
H3940 C3969 0.950 . S
H3941 C3970 0.950 . S
H3942 C3972 0.950 . S
H3943 C3973 0.950 . S
C3944 H3926 0.951 . S
C3944 C3945 1.366 . S
C3944 C3946 1.388 . S
C3945 C3944 1.366 . S
C3945 C3949 1.385 . S
C3946 H3927 0.951 . S
C3946 C3944 1.388 . S
C3946 C3947 1.366 . S
C3947 C3946 1.366 . S
C3947 C3948 1.414 . S
C3947 C3950 1.499 . S
C3948 H3928 0.950 . S
C3948 C3947 1.414 . S
C3948 C3949 1.374 . S
C3949 H3929 0.950 . S
C3949 C3945 1.385 . S
C3949 C3948 1.374 . S
C3950 C3947 1.499 . S
C3950 C3951 1.373 . S
C3950 C3952 1.389 . S
C3951 H3930 0.950 . S
C3951 C3950 1.373 . S
C3951 C3967 1.377 . S
C3952 C3950 1.389 . S
C3952 C3953 1.524 . S
C3952 C3966 1.377 . S
C3953 C3952 1.524 . S
C3953 C3954 1.397 . S
C3953 C3958 1.363 . S
C3954 H3931 0.950 . S
C3954 C3953 1.397 . S
C3954 C3955 1.334 . S
C3955 H3932 0.950 . S
C3955 C3954 1.334 . S
C3955 C3956 1.287 . S
C3956 C3955 1.287 . S
C3956 C3957 1.524 . S
C3956 H3975 0.913 . S
C3957 H3933 0.950 . S
C3957 C3956 1.524 . S
C3957 C3958 1.415 . S
C3958 H3934 0.950 . S
C3958 C3953 1.363 . S
C3958 C3957 1.415 . S
C3959 H3935 0.951 . S
C3959 C3960 1.366 . S
C3959 C3961 1.388 . S
C3960 C3959 1.366 . S
C3960 C3964 1.385 . S
C3961 H3936 0.951 . S
C3961 C3959 1.388 . S
C3961 C3962 1.366 . S
C3962 C3961 1.366 . S
C3962 C3963 1.414 . S
C3962 C3965 1.499 . S
C3963 H3937 0.950 . S
C3963 C3962 1.414 . S
C3963 C3964 1.374 . S
C3964 H3938 0.950 . S
C3964 C3960 1.385 . S
C3964 C3963 1.374 . S
C3965 C3962 1.499 . S
C3965 C3966 1.373 . S
C3965 C3967 1.389 . S
C3966 H3939 0.950 . S
C3966 C3952 1.377 . S
C3966 C3965 1.373 . S
C3967 C3951 1.377 . S
C3967 C3965 1.389 . S
C3967 C3968 1.524 . S
C3968 C3967 1.524 . S
C3968 C3969 1.397 . S
C3968 C3973 1.363 . S
C3969 H3940 0.950 . S
C3969 C3968 1.397 . S
C3969 C3970 1.334 . S
C3970 H3941 0.950 . S
C3970 C3969 1.334 . S
C3970 C3971 1.287 . S
C3971 C3970 1.287 . S
C3971 C3972 1.524 . S
C3971 H3974 0.999 . S
C3972 H3942 0.950 . S
C3972 C3971 1.524 . S
C3972 C3973 1.415 . S
C3973 H3943 0.950 . S
C3973 C3968 1.363 . S
C3973 C3972 1.415 . S
H3974 C3971 0.999 . S
H3975 C3956 0.913 . S
H3976 C3994 0.951 . S
H3977 C3996 0.951 . S
H3978 C3998 0.950 . S
H3979 C3999 0.950 . S
H3980 C4001 0.950 . S
H3981 C4004 0.950 . S
H3982 C4005 0.950 . S
H3983 C4007 0.950 . S
H3984 C4008 0.950 . S
H3985 C4009 0.951 . S
H3986 C4011 0.951 . S
H3987 C4013 0.950 . S
H3988 C4014 0.950 . S
H3989 C4016 0.950 . S
H3990 C4019 0.950 . S
H3991 C4020 0.950 . S
H3992 C4022 0.950 . S
H3993 C4023 0.950 . S
C3994 H3976 0.951 . S
C3994 C3995 1.366 . S
C3994 C3996 1.388 . S
C3995 C3994 1.366 . S
C3995 C3999 1.385 . S
C3996 H3977 0.951 . S
C3996 C3994 1.388 . S
C3996 C3997 1.366 . S
C3997 C3996 1.366 . S
C3997 C3998 1.414 . S
C3997 C4000 1.499 . S
C3998 H3978 0.950 . S
C3998 C3997 1.414 . S
C3998 C3999 1.374 . S
C3999 H3979 0.950 . S
C3999 C3995 1.385 . S
C3999 C3998 1.374 . S
C4000 C3997 1.499 . S
C4000 C4001 1.373 . S
C4000 C4002 1.389 . S
C4001 H3980 0.950 . S
C4001 C4000 1.373 . S
C4001 C4017 1.377 . S
C4002 C4000 1.389 . S
C4002 C4003 1.524 . S
C4002 C4016 1.377 . S
C4003 C4002 1.524 . S
C4003 C4004 1.397 . S
C4003 C4008 1.363 . S
C4004 H3981 0.950 . S
C4004 C4003 1.397 . S
C4004 C4005 1.334 . S
C4005 H3982 0.950 . S
C4005 C4004 1.334 . S
C4005 C4006 1.287 . S
C4006 C4005 1.287 . S
C4006 C4007 1.524 . S
C4006 H4025 0.913 . S
C4007 H3983 0.950 . S
C4007 C4006 1.524 . S
C4007 C4008 1.415 . S
C4008 H3984 0.950 . S
C4008 C4003 1.363 . S
C4008 C4007 1.415 . S
C4009 H3985 0.951 . S
C4009 C4010 1.366 . S
C4009 C4011 1.388 . S
C4010 C4009 1.366 . S
C4010 C4014 1.385 . S
C4011 H3986 0.951 . S
C4011 C4009 1.388 . S
C4011 C4012 1.366 . S
C4012 C4011 1.366 . S
C4012 C4013 1.414 . S
C4012 C4015 1.499 . S
C4013 H3987 0.950 . S
C4013 C4012 1.414 . S
C4013 C4014 1.374 . S
C4014 H3988 0.950 . S
C4014 C4010 1.385 . S
C4014 C4013 1.374 . S
C4015 C4012 1.499 . S
C4015 C4016 1.373 . S
C4015 C4017 1.389 . S
C4016 H3989 0.950 . S
C4016 C4002 1.377 . S
C4016 C4015 1.373 . S
C4017 C4001 1.377 . S
C4017 C4015 1.389 . S
C4017 C4018 1.524 . S
C4018 C4017 1.524 . S
C4018 C4019 1.397 . S
C4018 C4023 1.363 . S
C4019 H3990 0.950 . S
C4019 C4018 1.397 . S
C4019 C4020 1.334 . S
C4020 H3991 0.950 . S
C4020 C4019 1.334 . S
C4020 C4021 1.287 . S
C4021 C4020 1.287 . S
C4021 C4022 1.524 . S
C4021 H4024 0.999 . S
C4022 H3992 0.950 . S
C4022 C4021 1.524 . S
C4022 C4023 1.415 . S
C4023 H3993 0.950 . S
C4023 C4018 1.363 . S
C4023 C4022 1.415 . S
H4024 C4021 0.999 . S
H4025 C4006 0.913 . S
H4026 C4044 0.951 . S
H4027 C4046 0.951 . S
H4028 C4048 0.950 . S
H4029 C4049 0.950 . S
H4030 C4051 0.950 . S
H4031 C4054 0.950 . S
H4032 C4055 0.950 . S
H4033 C4057 0.950 . S
H4034 C4058 0.950 . S
H4035 C4059 0.951 . S
H4036 C4061 0.951 . S
H4037 C4063 0.950 . S
H4038 C4064 0.950 . S
H4039 C4066 0.950 . S
H4040 C4069 0.950 . S
H4041 C4070 0.950 . S
H4042 C4072 0.950 . S
H4043 C4073 0.950 . S
C4044 H4026 0.951 . S
C4044 C4045 1.366 . S
C4044 C4046 1.388 . S
C4045 C4044 1.366 . S
C4045 C4049 1.385 . S
C4046 H4027 0.951 . S
C4046 C4044 1.388 . S
C4046 C4047 1.366 . S
C4047 C4046 1.366 . S
C4047 C4048 1.414 . S
C4047 C4050 1.499 . S
C4048 H4028 0.950 . S
C4048 C4047 1.414 . S
C4048 C4049 1.374 . S
C4049 H4029 0.950 . S
C4049 C4045 1.385 . S
C4049 C4048 1.374 . S
C4050 C4047 1.499 . S
C4050 C4051 1.373 . S
C4050 C4052 1.389 . S
C4051 H4030 0.950 . S
C4051 C4050 1.373 . S
C4051 C4067 1.377 . S
C4052 C4050 1.389 . S
C4052 C4053 1.524 . S
C4052 C4066 1.377 . S
C4053 C4052 1.524 . S
C4053 C4054 1.397 . S
C4053 C4058 1.363 . S
C4054 H4031 0.950 . S
C4054 C4053 1.397 . S
C4054 C4055 1.334 . S
C4055 H4032 0.950 . S
C4055 C4054 1.334 . S
C4055 C4056 1.287 . S
C4056 C4055 1.287 . S
C4056 C4057 1.524 . S
C4056 H4075 0.913 . S
C4057 H4033 0.950 . S
C4057 C4056 1.524 . S
C4057 C4058 1.415 . S
C4058 H4034 0.950 . S
C4058 C4053 1.363 . S
C4058 C4057 1.415 . S
C4059 H4035 0.951 . S
C4059 C4060 1.366 . S
C4059 C4061 1.388 . S
C4060 C4059 1.366 . S
C4060 C4064 1.385 . S
C4061 H4036 0.951 . S
C4061 C4059 1.388 . S
C4061 C4062 1.366 . S
C4062 C4061 1.366 . S
C4062 C4063 1.414 . S
C4062 C4065 1.499 . S
C4063 H4037 0.950 . S
C4063 C4062 1.414 . S
C4063 C4064 1.374 . S
C4064 H4038 0.950 . S
C4064 C4060 1.385 . S
C4064 C4063 1.374 . S
C4065 C4062 1.499 . S
C4065 C4066 1.373 . S
C4065 C4067 1.389 . S
C4066 H4039 0.950 . S
C4066 C4052 1.377 . S
C4066 C4065 1.373 . S
C4067 C4051 1.377 . S
C4067 C4065 1.389 . S
C4067 C4068 1.524 . S
C4068 C4067 1.524 . S
C4068 C4069 1.397 . S
C4068 C4073 1.363 . S
C4069 H4040 0.950 . S
C4069 C4068 1.397 . S
C4069 C4070 1.334 . S
C4070 H4041 0.950 . S
C4070 C4069 1.334 . S
C4070 C4071 1.287 . S
C4071 C4070 1.287 . S
C4071 C4072 1.524 . S
C4071 H4074 0.999 . S
C4072 H4042 0.950 . S
C4072 C4071 1.524 . S
C4072 C4073 1.415 . S
C4073 H4043 0.950 . S
C4073 C4068 1.363 . S
C4073 C4072 1.415 . S
H4074 C4071 0.999 . S
H4075 C4056 0.913 . S
H4076 C4094 0.951 . S
H4077 C4096 0.951 . S
H4078 C4098 0.950 . S
H4079 C4099 0.950 . S
H4080 C4101 0.950 . S
H4081 C4104 0.950 . S
H4082 C4105 0.950 . S
H4083 C4107 0.950 . S
H4084 C4108 0.950 . S
H4085 C4109 0.951 . S
H4086 C4111 0.951 . S
H4087 C4113 0.950 . S
H4088 C4114 0.950 . S
H4089 C4116 0.950 . S
H4090 C4119 0.950 . S
H4091 C4120 0.950 . S
H4092 C4122 0.950 . S
H4093 C4123 0.950 . S
C4094 H4076 0.951 . S
C4094 C4095 1.366 . S
C4094 C4096 1.388 . S
C4095 C4094 1.366 . S
C4095 C4099 1.385 . S
C4096 H4077 0.951 . S
C4096 C4094 1.388 . S
C4096 C4097 1.366 . S
C4097 C4096 1.366 . S
C4097 C4098 1.414 . S
C4097 C4100 1.499 . S
C4098 H4078 0.950 . S
C4098 C4097 1.414 . S
C4098 C4099 1.374 . S
C4099 H4079 0.950 . S
C4099 C4095 1.385 . S
C4099 C4098 1.374 . S
C4100 C4097 1.499 . S
C4100 C4101 1.373 . S
C4100 C4102 1.389 . S
C4101 H4080 0.950 . S
C4101 C4100 1.373 . S
C4101 C4117 1.377 . S
C4102 C4100 1.389 . S
C4102 C4103 1.524 . S
C4102 C4116 1.377 . S
C4103 C4102 1.524 . S
C4103 C4104 1.397 . S
C4103 C4108 1.363 . S
C4104 H4081 0.950 . S
C4104 C4103 1.397 . S
C4104 C4105 1.334 . S
C4105 H4082 0.950 . S
C4105 C4104 1.334 . S
C4105 C4106 1.287 . S
C4106 C4105 1.287 . S
C4106 C4107 1.524 . S
C4106 H4125 0.913 . S
C4107 H4083 0.950 . S
C4107 C4106 1.524 . S
C4107 C4108 1.415 . S
C4108 H4084 0.950 . S
C4108 C4103 1.363 . S
C4108 C4107 1.415 . S
C4109 H4085 0.951 . S
C4109 C4110 1.366 . S
C4109 C4111 1.388 . S
C4110 C4109 1.366 . S
C4110 C4114 1.385 . S
C4111 H4086 0.951 . S
C4111 C4109 1.388 . S
C4111 C4112 1.366 . S
C4112 C4111 1.366 . S
C4112 C4113 1.414 . S
C4112 C4115 1.499 . S
C4113 H4087 0.950 . S
C4113 C4112 1.414 . S
C4113 C4114 1.374 . S
C4114 H4088 0.950 . S
C4114 C4110 1.385 . S
C4114 C4113 1.374 . S
C4115 C4112 1.499 . S
C4115 C4116 1.373 . S
C4115 C4117 1.389 . S
C4116 H4089 0.950 . S
C4116 C4102 1.377 . S
C4116 C4115 1.373 . S
C4117 C4101 1.377 . S
C4117 C4115 1.389 . S
C4117 C4118 1.524 . S
C4118 C4117 1.524 . S
C4118 C4119 1.397 . S
C4118 C4123 1.363 . S
C4119 H4090 0.950 . S
C4119 C4118 1.397 . S
C4119 C4120 1.334 . S
C4120 H4091 0.950 . S
C4120 C4119 1.334 . S
C4120 C4121 1.287 . S
C4121 C4120 1.287 . S
C4121 C4122 1.524 . S
C4121 H4124 0.999 . S
C4122 H4092 0.950 . S
C4122 C4121 1.524 . S
C4122 C4123 1.415 . S
C4123 H4093 0.950 . S
C4123 C4118 1.363 . S
C4123 C4122 1.415 . S
H4124 C4121 0.999 . S
H4125 C4106 0.913 . S
H4126 C4144 0.951 . S
H4127 C4146 0.951 . S
H4128 C4148 0.950 . S
H4129 C4149 0.950 . S
H4130 C4151 0.950 . S
H4131 C4154 0.950 . S
H4132 C4155 0.950 . S
H4133 C4157 0.950 . S
H4134 C4158 0.950 . S
H4135 C4159 0.951 . S
H4136 C4161 0.951 . S
H4137 C4163 0.950 . S
H4138 C4164 0.950 . S
H4139 C4166 0.950 . S
H4140 C4169 0.950 . S
H4141 C4170 0.950 . S
H4142 C4172 0.950 . S
H4143 C4173 0.950 . S
C4144 H4126 0.951 . S
C4144 C4145 1.366 . S
C4144 C4146 1.388 . S
C4145 C4144 1.366 . S
C4145 C4149 1.385 . S
C4146 H4127 0.951 . S
C4146 C4144 1.388 . S
C4146 C4147 1.366 . S
C4147 C4146 1.366 . S
C4147 C4148 1.414 . S
C4147 C4150 1.499 . S
C4148 H4128 0.950 . S
C4148 C4147 1.414 . S
C4148 C4149 1.374 . S
C4149 H4129 0.950 . S
C4149 C4145 1.385 . S
C4149 C4148 1.374 . S
C4150 C4147 1.499 . S
C4150 C4151 1.373 . S
C4150 C4152 1.389 . S
C4151 H4130 0.950 . S
C4151 C4150 1.373 . S
C4151 C4167 1.377 . S
C4152 C4150 1.389 . S
C4152 C4153 1.524 . S
C4152 C4166 1.377 . S
C4153 C4152 1.524 . S
C4153 C4154 1.397 . S
C4153 C4158 1.363 . S
C4154 H4131 0.950 . S
C4154 C4153 1.397 . S
C4154 C4155 1.334 . S
C4155 H4132 0.950 . S
C4155 C4154 1.334 . S
C4155 C4156 1.287 . S
C4156 C4155 1.287 . S
C4156 C4157 1.524 . S
C4156 H4175 0.913 . S
C4157 H4133 0.950 . S
C4157 C4156 1.524 . S
C4157 C4158 1.415 . S
C4158 H4134 0.950 . S
C4158 C4153 1.363 . S
C4158 C4157 1.415 . S
C4159 H4135 0.951 . S
C4159 C4160 1.366 . S
C4159 C4161 1.388 . S
C4160 C4159 1.366 . S
C4160 C4164 1.385 . S
C4161 H4136 0.951 . S
C4161 C4159 1.388 . S
C4161 C4162 1.366 . S
C4162 C4161 1.366 . S
C4162 C4163 1.414 . S
C4162 C4165 1.499 . S
C4163 H4137 0.950 . S
C4163 C4162 1.414 . S
C4163 C4164 1.374 . S
C4164 H4138 0.950 . S
C4164 C4160 1.385 . S
C4164 C4163 1.374 . S
C4165 C4162 1.499 . S
C4165 C4166 1.373 . S
C4165 C4167 1.389 . S
C4166 H4139 0.950 . S
C4166 C4152 1.377 . S
C4166 C4165 1.373 . S
C4167 C4151 1.377 . S
C4167 C4165 1.389 . S
C4167 C4168 1.524 . S
C4168 C4167 1.524 . S
C4168 C4169 1.397 . S
C4168 C4173 1.363 . S
C4169 H4140 0.950 . S
C4169 C4168 1.397 . S
C4169 C4170 1.334 . S
C4170 H4141 0.950 . S
C4170 C4169 1.334 . S
C4170 C4171 1.287 . S
C4171 C4170 1.287 . S
C4171 C4172 1.524 . S
C4171 H4174 0.999 . S
C4172 H4142 0.950 . S
C4172 C4171 1.524 . S
C4172 C4173 1.415 . S
C4173 H4143 0.950 . S
C4173 C4168 1.363 . S
C4173 C4172 1.415 . S
H4174 C4171 0.999 . S
H4175 C4156 0.913 . S
H4176 C4194 0.951 . S
H4177 C4196 0.951 . S
H4178 C4198 0.950 . S
H4179 C4199 0.950 . S
H4180 C4201 0.950 . S
H4181 C4204 0.950 . S
H4182 C4205 0.950 . S
H4183 C4207 0.950 . S
H4184 C4208 0.950 . S
H4185 C4209 0.951 . S
H4186 C4211 0.951 . S
H4187 C4213 0.950 . S
H4188 C4214 0.950 . S
H4189 C4216 0.950 . S
H4190 C4219 0.950 . S
H4191 C4220 0.950 . S
H4192 C4222 0.950 . S
H4193 C4223 0.950 . S
C4194 H4176 0.951 . S
C4194 C4195 1.366 . S
C4194 C4196 1.388 . S
C4195 C4194 1.366 . S
C4195 C4199 1.385 . S
C4196 H4177 0.951 . S
C4196 C4194 1.388 . S
C4196 C4197 1.366 . S
C4197 C4196 1.366 . S
C4197 C4198 1.414 . S
C4197 C4200 1.499 . S
C4198 H4178 0.950 . S
C4198 C4197 1.414 . S
C4198 C4199 1.374 . S
C4199 H4179 0.950 . S
C4199 C4195 1.385 . S
C4199 C4198 1.374 . S
C4200 C4197 1.499 . S
C4200 C4201 1.373 . S
C4200 C4202 1.389 . S
C4201 H4180 0.950 . S
C4201 C4200 1.373 . S
C4201 C4217 1.377 . S
C4202 C4200 1.389 . S
C4202 C4203 1.524 . S
C4202 C4216 1.377 . S
C4203 C4202 1.524 . S
C4203 C4204 1.397 . S
C4203 C4208 1.363 . S
C4204 H4181 0.950 . S
C4204 C4203 1.397 . S
C4204 C4205 1.334 . S
C4205 H4182 0.950 . S
C4205 C4204 1.334 . S
C4205 C4206 1.287 . S
C4206 C4205 1.287 . S
C4206 C4207 1.524 . S
C4206 H4225 0.913 . S
C4207 H4183 0.950 . S
C4207 C4206 1.524 . S
C4207 C4208 1.415 . S
C4208 H4184 0.950 . S
C4208 C4203 1.363 . S
C4208 C4207 1.415 . S
C4209 H4185 0.951 . S
C4209 C4210 1.366 . S
C4209 C4211 1.388 . S
C4210 C4209 1.366 . S
C4210 C4214 1.385 . S
C4211 H4186 0.951 . S
C4211 C4209 1.388 . S
C4211 C4212 1.366 . S
C4212 C4211 1.366 . S
C4212 C4213 1.414 . S
C4212 C4215 1.499 . S
C4213 H4187 0.950 . S
C4213 C4212 1.414 . S
C4213 C4214 1.374 . S
C4214 H4188 0.950 . S
C4214 C4210 1.385 . S
C4214 C4213 1.374 . S
C4215 C4212 1.499 . S
C4215 C4216 1.373 . S
C4215 C4217 1.389 . S
C4216 H4189 0.950 . S
C4216 C4202 1.377 . S
C4216 C4215 1.373 . S
C4217 C4201 1.377 . S
C4217 C4215 1.389 . S
C4217 C4218 1.524 . S
C4218 C4217 1.524 . S
C4218 C4219 1.397 . S
C4218 C4223 1.363 . S
C4219 H4190 0.950 . S
C4219 C4218 1.397 . S
C4219 C4220 1.334 . S
C4220 H4191 0.950 . S
C4220 C4219 1.334 . S
C4220 C4221 1.287 . S
C4221 C4220 1.287 . S
C4221 C4222 1.524 . S
C4221 H4224 0.999 . S
C4222 H4192 0.950 . S
C4222 C4221 1.524 . S
C4222 C4223 1.415 . S
C4223 H4193 0.950 . S
C4223 C4218 1.363 . S
C4223 C4222 1.415 . S
H4224 C4221 0.999 . S
H4225 C4206 0.913 . S
H4226 C4244 0.951 . S
H4227 C4246 0.951 . S
H4228 C4248 0.950 . S
H4229 C4249 0.950 . S
H4230 C4251 0.950 . S
H4231 C4254 0.950 . S
H4232 C4255 0.950 . S
H4233 C4257 0.950 . S
H4234 C4258 0.950 . S
H4235 C4259 0.951 . S
H4236 C4261 0.951 . S
H4237 C4263 0.950 . S
H4238 C4264 0.950 . S
H4239 C4266 0.950 . S
H4240 C4269 0.950 . S
H4241 C4270 0.950 . S
H4242 C4272 0.950 . S
H4243 C4273 0.950 . S
C4244 H4226 0.951 . S
C4244 C4245 1.366 . S
C4244 C4246 1.388 . S
C4245 C4244 1.366 . S
C4245 C4249 1.385 . S
C4246 H4227 0.951 . S
C4246 C4244 1.388 . S
C4246 C4247 1.366 . S
C4247 C4246 1.366 . S
C4247 C4248 1.414 . S
C4247 C4250 1.499 . S
C4248 H4228 0.950 . S
C4248 C4247 1.414 . S
C4248 C4249 1.374 . S
C4249 H4229 0.950 . S
C4249 C4245 1.385 . S
C4249 C4248 1.374 . S
C4250 C4247 1.499 . S
C4250 C4251 1.373 . S
C4250 C4252 1.389 . S
C4251 H4230 0.950 . S
C4251 C4250 1.373 . S
C4251 C4267 1.377 . S
C4252 C4250 1.389 . S
C4252 C4253 1.524 . S
C4252 C4266 1.377 . S
C4253 C4252 1.524 . S
C4253 C4254 1.397 . S
C4253 C4258 1.363 . S
C4254 H4231 0.950 . S
C4254 C4253 1.397 . S
C4254 C4255 1.334 . S
C4255 H4232 0.950 . S
C4255 C4254 1.334 . S
C4255 C4256 1.287 . S
C4256 C4255 1.287 . S
C4256 C4257 1.524 . S
C4256 H4275 0.913 . S
C4257 H4233 0.950 . S
C4257 C4256 1.524 . S
C4257 C4258 1.415 . S
C4258 H4234 0.950 . S
C4258 C4253 1.363 . S
C4258 C4257 1.415 . S
C4259 H4235 0.951 . S
C4259 C4260 1.366 . S
C4259 C4261 1.388 . S
C4260 C4259 1.366 . S
C4260 C4264 1.385 . S
C4261 H4236 0.951 . S
C4261 C4259 1.388 . S
C4261 C4262 1.366 . S
C4262 C4261 1.366 . S
C4262 C4263 1.414 . S
C4262 C4265 1.499 . S
C4263 H4237 0.950 . S
C4263 C4262 1.414 . S
C4263 C4264 1.374 . S
C4264 H4238 0.950 . S
C4264 C4260 1.385 . S
C4264 C4263 1.374 . S
C4265 C4262 1.499 . S
C4265 C4266 1.373 . S
C4265 C4267 1.389 . S
C4266 H4239 0.950 . S
C4266 C4252 1.377 . S
C4266 C4265 1.373 . S
C4267 C4251 1.377 . S
C4267 C4265 1.389 . S
C4267 C4268 1.524 . S
C4268 C4267 1.524 . S
C4268 C4269 1.397 . S
C4268 C4273 1.363 . S
C4269 H4240 0.950 . S
C4269 C4268 1.397 . S
C4269 C4270 1.334 . S
C4270 H4241 0.950 . S
C4270 C4269 1.334 . S
C4270 C4271 1.287 . S
C4271 C4270 1.287 . S
C4271 C4272 1.524 . S
C4271 H4274 0.999 . S
C4272 H4242 0.950 . S
C4272 C4271 1.524 . S
C4272 C4273 1.415 . S
C4273 H4243 0.950 . S
C4273 C4268 1.363 . S
C4273 C4272 1.415 . S
H4274 C4271 0.999 . S
H4275 C4256 0.913 . S
H4276 C4294 0.951 . S
H4277 C4296 0.951 . S
H4278 C4298 0.950 . S
H4279 C4299 0.950 . S
H4280 C4301 0.950 . S
H4281 C4304 0.950 . S
H4282 C4305 0.950 . S
H4283 C4307 0.950 . S
H4284 C4308 0.950 . S
H4285 C4309 0.951 . S
H4286 C4311 0.951 . S
H4287 C4313 0.950 . S
H4288 C4314 0.950 . S
H4289 C4316 0.950 . S
H4290 C4319 0.950 . S
H4291 C4320 0.950 . S
H4292 C4322 0.950 . S
H4293 C4323 0.950 . S
C4294 H4276 0.951 . S
C4294 C4295 1.366 . S
C4294 C4296 1.388 . S
C4295 C4294 1.366 . S
C4295 C4299 1.385 . S
C4296 H4277 0.951 . S
C4296 C4294 1.388 . S
C4296 C4297 1.366 . S
C4297 C4296 1.366 . S
C4297 C4298 1.414 . S
C4297 C4300 1.499 . S
C4298 H4278 0.950 . S
C4298 C4297 1.414 . S
C4298 C4299 1.374 . S
C4299 H4279 0.950 . S
C4299 C4295 1.385 . S
C4299 C4298 1.374 . S
C4300 C4297 1.499 . S
C4300 C4301 1.373 . S
C4300 C4302 1.389 . S
C4301 H4280 0.950 . S
C4301 C4300 1.373 . S
C4301 C4317 1.377 . S
C4302 C4300 1.389 . S
C4302 C4303 1.524 . S
C4302 C4316 1.377 . S
C4303 C4302 1.524 . S
C4303 C4304 1.397 . S
C4303 C4308 1.363 . S
C4304 H4281 0.950 . S
C4304 C4303 1.397 . S
C4304 C4305 1.334 . S
C4305 H4282 0.950 . S
C4305 C4304 1.334 . S
C4305 C4306 1.287 . S
C4306 C4305 1.287 . S
C4306 C4307 1.524 . S
C4306 H4325 0.913 . S
C4307 H4283 0.950 . S
C4307 C4306 1.524 . S
C4307 C4308 1.415 . S
C4308 H4284 0.950 . S
C4308 C4303 1.363 . S
C4308 C4307 1.415 . S
C4309 H4285 0.951 . S
C4309 C4310 1.366 . S
C4309 C4311 1.388 . S
C4310 C4309 1.366 . S
C4310 C4314 1.385 . S
C4311 H4286 0.951 . S
C4311 C4309 1.388 . S
C4311 C4312 1.366 . S
C4312 C4311 1.366 . S
C4312 C4313 1.414 . S
C4312 C4315 1.499 . S
C4313 H4287 0.950 . S
C4313 C4312 1.414 . S
C4313 C4314 1.374 . S
C4314 H4288 0.950 . S
C4314 C4310 1.385 . S
C4314 C4313 1.374 . S
C4315 C4312 1.499 . S
C4315 C4316 1.373 . S
C4315 C4317 1.389 . S
C4316 H4289 0.950 . S
C4316 C4302 1.377 . S
C4316 C4315 1.373 . S
C4317 C4301 1.377 . S
C4317 C4315 1.389 . S
C4317 C4318 1.524 . S
C4318 C4317 1.524 . S
C4318 C4319 1.397 . S
C4318 C4323 1.363 . S
C4319 H4290 0.950 . S
C4319 C4318 1.397 . S
C4319 C4320 1.334 . S
C4320 H4291 0.950 . S
C4320 C4319 1.334 . S
C4320 C4321 1.287 . S
C4321 C4320 1.287 . S
C4321 C4322 1.524 . S
C4321 H4324 0.999 . S
C4322 H4292 0.950 . S
C4322 C4321 1.524 . S
C4322 C4323 1.415 . S
C4323 H4293 0.950 . S
C4323 C4318 1.363 . S
C4323 C4322 1.415 . S
H4324 C4321 0.999 . S
H4325 C4306 0.913 . S
H4326 C4344 0.951 . S
H4327 C4346 0.951 . S
H4328 C4348 0.950 . S
H4329 C4349 0.950 . S
H4330 C4351 0.950 . S
H4331 C4354 0.950 . S
H4332 C4355 0.950 . S
H4333 C4357 0.950 . S
H4334 C4358 0.950 . S
H4335 C4359 0.951 . S
H4336 C4361 0.951 . S
H4337 C4363 0.950 . S
H4338 C4364 0.950 . S
H4339 C4366 0.950 1_556 S
H4340 C4369 0.953 . S
H4341 C4370 0.950 . S
H4342 C4372 0.950 . S
H4343 C4373 0.950 . S
C4344 H4326 0.951 . S
C4344 C4345 1.366 1_556 S
C4344 C4346 1.388 . S
C4345 C4344 1.366 1_554 S
C4345 C4349 1.385 . S
C4346 H4327 0.951 . S
C4346 C4344 1.388 . S
C4346 C4347 1.366 1_556 S
C4347 C4346 1.366 1_554 S
C4347 C4348 1.414 . S
C4347 C4350 1.499 . S
C4348 H4328 0.950 . S
C4348 C4347 1.414 . S
C4348 C4349 1.374 . S
C4349 H4329 0.950 . S
C4349 C4345 1.385 . S
C4349 C4348 1.374 . S
C4350 C4347 1.499 . S
C4350 C4351 1.373 . S
C4350 C4352 1.389 . S
C4351 H4330 0.950 . S
C4351 C4350 1.373 . S
C4351 C4367 1.377 . S
C4352 C4350 1.389 . S
C4352 C4353 1.524 1_554 S
C4352 C4366 1.377 . S
C4353 C4352 1.524 1_556 S
C4353 C4354 1.397 1_556 S
C4353 C4358 1.363 . S
C4354 H4331 0.950 . S
C4354 C4353 1.397 1_554 S
C4354 C4355 1.334 . S
C4355 H4332 0.950 . S
C4355 C4354 1.334 . S
C4355 C4356 1.287 1_554 S
C4356 C4355 1.287 1_556 S
C4356 C4357 1.524 . S
C4356 H4375 0.913 . S
C4357 H4333 0.950 . S
C4357 C4356 1.524 . S
C4357 C4358 1.415 . S
C4358 H4334 0.950 . S
C4358 C4353 1.363 . S
C4358 C4357 1.415 . S
C4359 H4335 0.951 . S
C4359 C4360 1.366 . S
C4359 C4361 1.388 . S
C4360 C4359 1.366 . S
C4360 C4364 1.385 1_554 S
C4361 H4336 0.951 . S
C4361 C4359 1.388 . S
C4361 C4362 1.366 1_545 S
C4362 C4361 1.366 1_565 S
C4362 C4363 1.414 1_554 S
C4362 C4365 1.499 . S
C4363 H4337 0.950 . S
C4363 C4362 1.414 1_556 S
C4363 C4364 1.374 1_565 S
C4364 H4338 0.950 . S
C4364 C4360 1.385 1_556 S
C4364 C4363 1.374 1_545 S
C4365 C4362 1.499 . S
C4365 C4366 1.373 . S
C4365 C4367 1.389 . S
C4366 H4339 0.950 1_554 S
C4366 C4352 1.377 . S
C4366 C4365 1.373 . S
C4367 C4351 1.377 . S
C4367 C4365 1.389 . S
C4367 C4368 1.524 1_565 S
C4368 C4367 1.524 1_545 S
C4368 C4369 1.397 . S
C4368 C4373 1.363 . S
C4369 H4340 0.953 . S
C4369 C4368 1.397 . S
C4369 C4370 1.334 . S
C4370 H4341 0.950 . S
C4370 C4369 1.334 . S
C4370 C4371 1.287 . S
C4371 C4370 1.287 . S
C4371 C4372 1.524 . S
C4371 H4374 0.999 . S
C4372 H4342 0.950 . S
C4372 C4371 1.524 . S
C4372 C4373 1.415 . S
C4373 H4343 0.950 . S
C4373 C4368 1.363 . S
C4373 C4372 1.415 . S
H4374 C4371 0.999 . S
H4375 C4356 0.913 . S
H4376 C4394 0.951 . S
H4377 C4396 0.951 . S
H4378 C4398 0.950 . S
H4379 C4399 0.950 . S
H4380 C4401 0.950 . S
H4381 C4404 0.950 . S
H4382 C4405 0.950 . S
H4383 C4407 0.950 . S
H4384 C4408 0.950 . S
H4385 C4409 0.951 . S
H4386 C4411 0.951 . S
H4387 C4413 0.950 . S
H4388 C4414 0.950 . S
H4389 C4416 0.950 . S
H4390 C4419 0.950 . S
H4391 C4420 0.950 . S
H4392 C4422 0.950 . S
H4393 C4423 0.950 . S
C4394 H4376 0.951 . S
C4394 C4395 1.366 . S
C4394 C4396 1.388 . S
C4395 C4394 1.366 . S
C4395 C4399 1.385 . S
C4396 H4377 0.951 . S
C4396 C4394 1.388 . S
C4396 C4397 1.366 . S
C4397 C4396 1.366 . S
C4397 C4398 1.414 . S
C4397 C4400 1.499 . S
C4398 H4378 0.950 . S
C4398 C4397 1.414 . S
C4398 C4399 1.374 . S
C4399 H4379 0.950 . S
C4399 C4395 1.385 . S
C4399 C4398 1.374 . S
C4400 C4397 1.499 . S
C4400 C4401 1.373 . S
C4400 C4402 1.389 . S
C4401 H4380 0.950 . S
C4401 C4400 1.373 . S
C4401 C4417 1.377 . S
C4402 C4400 1.389 . S
C4402 C4403 1.524 . S
C4402 C4416 1.377 . S
C4403 C4402 1.524 . S
C4403 C4404 1.397 . S
C4403 C4408 1.363 . S
C4404 H4381 0.950 . S
C4404 C4403 1.397 . S
C4404 C4405 1.334 . S
C4405 H4382 0.950 . S
C4405 C4404 1.334 . S
C4405 C4406 1.287 . S
C4406 C4405 1.287 . S
C4406 C4407 1.524 . S
C4406 H4425 0.913 . S
C4407 H4383 0.950 . S
C4407 C4406 1.524 . S
C4407 C4408 1.415 . S
C4408 H4384 0.950 . S
C4408 C4403 1.363 . S
C4408 C4407 1.415 . S
C4409 H4385 0.951 . S
C4409 C4410 1.366 . S
C4409 C4411 1.388 . S
C4410 C4409 1.366 . S
C4410 C4414 1.385 . S
C4411 H4386 0.951 . S
C4411 C4409 1.388 . S
C4411 C4412 1.366 . S
C4412 C4411 1.366 . S
C4412 C4413 1.414 . S
C4412 C4415 1.499 . S
C4413 H4387 0.950 . S
C4413 C4412 1.414 . S
C4413 C4414 1.374 . S
C4414 H4388 0.950 . S
C4414 C4410 1.385 . S
C4414 C4413 1.374 . S
C4415 C4412 1.499 . S
C4415 C4416 1.373 . S
C4415 C4417 1.389 . S
C4416 H4389 0.950 . S
C4416 C4402 1.377 . S
C4416 C4415 1.373 . S
C4417 C4401 1.377 . S
C4417 C4415 1.389 . S
C4417 C4418 1.524 . S
C4418 C4417 1.524 . S
C4418 C4419 1.397 . S
C4418 C4423 1.363 . S
C4419 H4390 0.950 . S
C4419 C4418 1.397 . S
C4419 C4420 1.334 . S
C4420 H4391 0.950 . S
C4420 C4419 1.334 . S
C4420 C4421 1.287 . S
C4421 C4420 1.287 . S
C4421 C4422 1.524 . S
C4421 H4424 0.999 . S
C4422 H4392 0.950 . S
C4422 C4421 1.524 . S
C4422 C4423 1.415 . S
C4423 H4393 0.950 . S
C4423 C4418 1.363 . S
C4423 C4422 1.415 . S
H4424 C4421 0.999 . S
H4425 C4406 0.913 . S
H4426 C4444 0.951 . S
H4427 C4446 0.951 . S
H4428 C4448 0.950 . S
H4429 C4449 0.950 . S
H4430 C4451 0.950 . S
H4431 C4454 0.893 1_554 S
H4432 C4455 0.950 . S
H4433 C4457 0.950 . S
H4434 C4458 0.950 . S
H4435 C4459 0.951 . S
H4436 C4461 0.951 . S
H4437 C4463 0.950 . S
H4438 C4464 0.950 . S
H4439 C4466 0.950 1_556 S
H4440 C4469 0.950 . S
H4441 C4470 0.950 . S
H4442 C4472 0.950 . S
H4443 C4473 0.950 . S
C4444 H4426 0.951 . S
C4444 C4445 1.366 1_556 S
C4444 C4446 1.388 . S
C4445 C4444 1.366 1_554 S
C4445 C4449 1.385 . S
C4446 H4427 0.951 . S
C4446 C4444 1.388 . S
C4446 C4447 1.366 1_556 S
C4447 C4446 1.366 1_554 S
C4447 C4448 1.414 . S
C4447 C4450 1.499 . S
C4448 H4428 0.950 . S
C4448 C4447 1.414 . S
C4448 C4449 1.374 . S
C4449 H4429 0.950 . S
C4449 C4445 1.385 . S
C4449 C4448 1.374 . S
C4450 C4447 1.499 . S
C4450 C4451 1.373 . S
C4450 C4452 1.389 . S
C4451 H4430 0.950 . S
C4451 C4450 1.373 . S
C4451 C4467 1.377 . S
C4452 C4450 1.389 . S
C4452 C4453 1.524 1_554 S
C4452 C4466 1.377 . S
C4453 C4452 1.524 1_556 S
C4453 C4454 1.397 . S
C4453 C4458 1.363 . S
C4454 H4431 0.893 1_556 S
C4454 C4453 1.397 . S
C4454 C4455 1.334 . S
C4455 H4432 0.950 . S
C4455 C4454 1.334 . S
C4455 C4456 1.287 . S
C4456 C4455 1.287 . S
C4456 C4457 1.524 . S
C4456 H4475 0.913 . S
C4457 H4433 0.950 . S
C4457 C4456 1.524 . S
C4457 C4458 1.415 . S
C4458 H4434 0.950 . S
C4458 C4453 1.363 . S
C4458 C4457 1.415 . S
C4459 H4435 0.951 . S
C4459 C4460 1.366 . S
C4459 C4461 1.388 . S
C4460 C4459 1.366 . S
C4460 C4464 1.385 . S
C4461 H4436 0.951 . S
C4461 C4459 1.388 . S
C4461 C4462 1.366 . S
C4462 C4461 1.366 . S
C4462 C4463 1.414 . S
C4462 C4465 1.499 . S
C4463 H4437 0.950 . S
C4463 C4462 1.414 . S
C4463 C4464 1.374 . S
C4464 H4438 0.950 . S
C4464 C4460 1.385 . S
C4464 C4463 1.374 . S
C4465 C4462 1.499 . S
C4465 C4466 1.373 . S
C4465 C4467 1.389 . S
C4466 H4439 0.950 1_554 S
C4466 C4452 1.377 . S
C4466 C4465 1.373 . S
C4467 C4451 1.377 . S
C4467 C4465 1.389 . S
C4467 C4468 1.524 . S
C4468 C4467 1.524 . S
C4468 C4469 1.397 . S
C4468 C4473 1.363 . S
C4469 H4440 0.950 . S
C4469 C4468 1.397 . S
C4469 C4470 1.334 . S
C4470 H4441 0.950 . S
C4470 C4469 1.334 . S
C4470 C4471 1.287 . S
C4471 C4470 1.287 . S
C4471 C4472 1.524 . S
C4471 H4474 0.999 . S
C4472 H4442 0.950 . S
C4472 C4471 1.524 . S
C4472 C4473 1.415 . S
C4473 H4443 0.950 . S
C4473 C4468 1.363 . S
C4473 C4472 1.415 . S
H4474 C4471 0.999 . S
H4475 C4456 0.913 . S
H4476 C4494 0.951 . S
H4477 C4496 0.951 . S
H4478 C4498 0.950 . S
H4479 C4499 0.950 . S
H4480 C4501 0.950 . S
H4481 C4504 0.950 . S
H4482 C4505 0.950 . S
H4483 C4507 0.950 . S
H4484 C4508 0.950 . S
H4485 C4509 0.951 . S
H4486 C4511 0.951 . S
H4487 C4513 0.950 . S
H4488 C4514 0.950 . S
H4489 C4516 0.950 . S
H4490 C4519 0.950 . S
H4491 C4520 0.950 . S
H4492 C4522 0.950 . S
H4493 C4523 0.950 . S
C4494 H4476 0.951 . S
C4494 C4495 1.366 . S
C4494 C4496 1.388 . S
C4495 C4494 1.366 . S
C4495 C4499 1.385 . S
C4496 H4477 0.951 . S
C4496 C4494 1.388 . S
C4496 C4497 1.366 . S
C4497 C4496 1.366 . S
C4497 C4498 1.414 . S
C4497 C4500 1.499 . S
C4498 H4478 0.950 . S
C4498 C4497 1.414 . S
C4498 C4499 1.374 . S
C4499 H4479 0.950 . S
C4499 C4495 1.385 . S
C4499 C4498 1.374 . S
C4500 C4497 1.499 . S
C4500 C4501 1.373 . S
C4500 C4502 1.389 . S
C4501 H4480 0.950 . S
C4501 C4500 1.373 . S
C4501 C4517 1.377 . S
C4502 C4500 1.389 . S
C4502 C4503 1.524 . S
C4502 C4516 1.377 . S
C4503 C4502 1.524 . S
C4503 C4504 1.397 . S
C4503 C4508 1.363 . S
C4504 H4481 0.950 . S
C4504 C4503 1.397 . S
C4504 C4505 1.334 . S
C4505 H4482 0.950 . S
C4505 C4504 1.334 . S
C4505 C4506 1.287 . S
C4506 C4505 1.287 . S
C4506 C4507 1.524 . S
C4506 H4525 0.913 . S
C4507 H4483 0.950 . S
C4507 C4506 1.524 . S
C4507 C4508 1.415 . S
C4508 H4484 0.950 . S
C4508 C4503 1.363 . S
C4508 C4507 1.415 . S
C4509 H4485 0.951 . S
C4509 C4510 1.366 . S
C4509 C4511 1.388 . S
C4510 C4509 1.366 . S
C4510 C4514 1.385 . S
C4511 H4486 0.951 . S
C4511 C4509 1.388 . S
C4511 C4512 1.366 . S
C4512 C4511 1.366 . S
C4512 C4513 1.414 . S
C4512 C4515 1.499 . S
C4513 H4487 0.950 . S
C4513 C4512 1.414 . S
C4513 C4514 1.374 . S
C4514 H4488 0.950 . S
C4514 C4510 1.385 . S
C4514 C4513 1.374 . S
C4515 C4512 1.499 . S
C4515 C4516 1.373 . S
C4515 C4517 1.389 . S
C4516 H4489 0.950 . S
C4516 C4502 1.377 . S
C4516 C4515 1.373 . S
C4517 C4501 1.377 . S
C4517 C4515 1.389 . S
C4517 C4518 1.524 . S
C4518 C4517 1.524 . S
C4518 C4519 1.397 . S
C4518 C4523 1.363 . S
C4519 H4490 0.950 . S
C4519 C4518 1.397 . S
C4519 C4520 1.334 . S
C4520 H4491 0.950 . S
C4520 C4519 1.334 . S
C4520 C4521 1.287 . S
C4521 C4520 1.287 . S
C4521 C4522 1.524 . S
C4521 H4524 0.999 . S
C4522 H4492 0.950 . S
C4522 C4521 1.524 . S
C4522 C4523 1.415 . S
C4523 H4493 0.950 . S
C4523 C4518 1.363 . S
C4523 C4522 1.415 . S
H4524 C4521 0.999 . S
H4525 C4506 0.913 . S
H4526 C4544 0.951 . S
H4527 C4546 0.951 . S
H4528 C4548 0.950 . S
H4529 C4549 0.950 . S
H4530 C4551 0.950 . S
H4531 C4554 0.950 . S
H4532 C4555 0.950 . S
H4533 C4557 0.950 . S
H4534 C4558 0.950 . S
H4535 C4559 0.951 . S
H4536 C4561 0.951 . S
H4537 C4563 0.950 . S
H4538 C4564 0.950 . S
H4539 C4566 0.950 . S
H4540 C4569 0.950 . S
H4541 C4570 0.950 . S
H4542 C4572 0.950 . S
H4543 C4573 0.950 . S
C4544 H4526 0.951 . S
C4544 C4545 1.366 . S
C4544 C4546 1.388 . S
C4545 C4544 1.366 . S
C4545 C4549 1.385 . S
C4546 H4527 0.951 . S
C4546 C4544 1.388 . S
C4546 C4547 1.366 . S
C4547 C4546 1.366 . S
C4547 C4548 1.414 . S
C4547 C4550 1.499 . S
C4548 H4528 0.950 . S
C4548 C4547 1.414 . S
C4548 C4549 1.374 . S
C4549 H4529 0.950 . S
C4549 C4545 1.385 . S
C4549 C4548 1.374 . S
C4550 C4547 1.499 . S
C4550 C4551 1.373 . S
C4550 C4552 1.389 . S
C4551 H4530 0.950 . S
C4551 C4550 1.373 . S
C4551 C4567 1.377 . S
C4552 C4550 1.389 . S
C4552 C4553 1.524 . S
C4552 C4566 1.377 . S
C4553 C4552 1.524 . S
C4553 C4554 1.397 . S
C4553 C4558 1.363 . S
C4554 H4531 0.950 . S
C4554 C4553 1.397 . S
C4554 C4555 1.334 . S
C4555 H4532 0.950 . S
C4555 C4554 1.334 . S
C4555 C4556 1.287 . S
C4556 C4555 1.287 . S
C4556 C4557 1.524 . S
C4556 H4575 0.913 . S
C4557 H4533 0.950 . S
C4557 C4556 1.524 . S
C4557 C4558 1.415 . S
C4558 H4534 0.950 . S
C4558 C4553 1.363 . S
C4558 C4557 1.415 . S
C4559 H4535 0.951 . S
C4559 C4560 1.366 . S
C4559 C4561 1.388 . S
C4560 C4559 1.366 . S
C4560 C4564 1.385 . S
C4561 H4536 0.951 . S
C4561 C4559 1.388 . S
C4561 C4562 1.366 . S
C4562 C4561 1.366 . S
C4562 C4563 1.414 . S
C4562 C4565 1.499 . S
C4563 H4537 0.950 . S
C4563 C4562 1.414 . S
C4563 C4564 1.374 . S
C4564 H4538 0.950 . S
C4564 C4560 1.385 . S
C4564 C4563 1.374 . S
C4565 C4562 1.499 . S
C4565 C4566 1.373 . S
C4565 C4567 1.389 . S
C4566 H4539 0.950 . S
C4566 C4552 1.377 . S
C4566 C4565 1.373 . S
C4567 C4551 1.377 . S
C4567 C4565 1.389 . S
C4567 C4568 1.524 . S
C4568 C4567 1.524 . S
C4568 C4569 1.397 . S
C4568 C4573 1.363 . S
C4569 H4540 0.950 . S
C4569 C4568 1.397 . S
C4569 C4570 1.334 . S
C4570 H4541 0.950 . S
C4570 C4569 1.334 . S
C4570 C4571 1.287 . S
C4571 C4570 1.287 . S
C4571 C4572 1.524 . S
C4571 H4574 0.999 . S
C4572 H4542 0.950 . S
C4572 C4571 1.524 . S
C4572 C4573 1.415 . S
C4573 H4543 0.950 . S
C4573 C4568 1.363 . S
C4573 C4572 1.415 . S
H4574 C4571 0.999 . S
H4575 C4556 0.913 . S
H4576 C4594 0.951 . S
H4577 C4596 0.951 . S
H4578 C4598 0.950 . S
H4579 C4599 0.950 . S
H4580 C4601 0.950 . S
H4581 C4604 0.950 . S
H4582 C4605 0.950 . S
H4583 C4607 0.950 . S
H4584 C4608 0.950 . S
H4585 C4609 0.951 . S
H4586 C4611 0.951 . S
H4587 C4613 0.950 . S
H4588 C4614 0.950 . S
H4589 C4616 0.950 . S
H4590 C4619 0.950 . S
H4591 C4620 0.950 . S
H4592 C4622 0.950 . S
H4593 C4623 0.950 . S
C4594 H4576 0.951 . S
C4594 C4595 1.366 . S
C4594 C4596 1.388 . S
C4595 C4594 1.366 . S
C4595 C4599 1.385 . S
C4596 H4577 0.951 . S
C4596 C4594 1.388 . S
C4596 C4597 1.366 . S
C4597 C4596 1.366 . S
C4597 C4598 1.414 . S
C4597 C4600 1.499 . S
C4598 H4578 0.950 . S
C4598 C4597 1.414 . S
C4598 C4599 1.374 . S
C4599 H4579 0.950 . S
C4599 C4595 1.385 . S
C4599 C4598 1.374 . S
C4600 C4597 1.499 . S
C4600 C4601 1.373 . S
C4600 C4602 1.389 . S
C4601 H4580 0.950 . S
C4601 C4600 1.373 . S
C4601 C4617 1.377 . S
C4602 C4600 1.389 . S
C4602 C4603 1.524 . S
C4602 C4616 1.377 . S
C4603 C4602 1.524 . S
C4603 C4604 1.397 . S
C4603 C4608 1.363 . S
C4604 H4581 0.950 . S
C4604 C4603 1.397 . S
C4604 C4605 1.334 . S
C4605 H4582 0.950 . S
C4605 C4604 1.334 . S
C4605 C4606 1.287 . S
C4606 C4605 1.287 . S
C4606 C4607 1.524 . S
C4606 H4625 0.913 . S
C4607 H4583 0.950 . S
C4607 C4606 1.524 . S
C4607 C4608 1.415 . S
C4608 H4584 0.950 . S
C4608 C4603 1.363 . S
C4608 C4607 1.415 . S
C4609 H4585 0.951 . S
C4609 C4610 1.366 . S
C4609 C4611 1.388 . S
C4610 C4609 1.366 . S
C4610 C4614 1.385 . S
C4611 H4586 0.951 . S
C4611 C4609 1.388 . S
C4611 C4612 1.366 . S
C4612 C4611 1.366 . S
C4612 C4613 1.414 . S
C4612 C4615 1.499 . S
C4613 H4587 0.950 . S
C4613 C4612 1.414 . S
C4613 C4614 1.374 . S
C4614 H4588 0.950 . S
C4614 C4610 1.385 . S
C4614 C4613 1.374 . S
C4615 C4612 1.499 . S
C4615 C4616 1.373 . S
C4615 C4617 1.389 . S
C4616 H4589 0.950 . S
C4616 C4602 1.377 . S
C4616 C4615 1.373 . S
C4617 C4601 1.377 . S
C4617 C4615 1.389 . S
C4617 C4618 1.524 . S
C4618 C4617 1.524 . S
C4618 C4619 1.397 . S
C4618 C4623 1.363 . S
C4619 H4590 0.950 . S
C4619 C4618 1.397 . S
C4619 C4620 1.334 . S
C4620 H4591 0.950 . S
C4620 C4619 1.334 . S
C4620 C4621 1.287 . S
C4621 C4620 1.287 . S
C4621 C4622 1.524 . S
C4621 H4624 0.999 . S
C4622 H4592 0.950 . S
C4622 C4621 1.524 . S
C4622 C4623 1.415 . S
C4623 H4593 0.950 . S
C4623 C4618 1.363 . S
C4623 C4622 1.415 . S
H4624 C4621 0.999 . S
H4625 C4606 0.913 . S
H4626 C4644 0.951 . S
H4627 C4646 0.951 . S
H4628 C4648 0.950 . S
H4629 C4649 0.950 . S
H4630 C4651 0.950 . S
H4631 C4654 0.950 . S
H4632 C4655 0.950 . S
H4633 C4657 0.950 . S
H4634 C4658 0.950 . S
H4635 C4659 0.951 . S
H4636 C4661 0.951 . S
H4637 C4663 0.950 . S
H4638 C4664 0.950 . S
H4639 C4666 0.950 . S
H4640 C4669 0.950 . S
H4641 C4670 0.950 . S
H4642 C4672 0.950 . S
H4643 C4673 0.950 . S
C4644 H4626 0.951 . S
C4644 C4645 1.366 . S
C4644 C4646 1.388 . S
C4645 C4644 1.366 . S
C4645 C4649 1.385 . S
C4646 H4627 0.951 . S
C4646 C4644 1.388 . S
C4646 C4647 1.366 . S
C4647 C4646 1.366 . S
C4647 C4648 1.414 . S
C4647 C4650 1.499 . S
C4648 H4628 0.950 . S
C4648 C4647 1.414 . S
C4648 C4649 1.374 . S
C4649 H4629 0.950 . S
C4649 C4645 1.385 . S
C4649 C4648 1.374 . S
C4650 C4647 1.499 . S
C4650 C4651 1.373 . S
C4650 C4652 1.389 . S
C4651 H4630 0.950 . S
C4651 C4650 1.373 . S
C4651 C4667 1.377 . S
C4652 C4650 1.389 . S
C4652 C4653 1.524 . S
C4652 C4666 1.377 . S
C4653 C4652 1.524 . S
C4653 C4654 1.397 . S
C4653 C4658 1.363 . S
C4654 H4631 0.950 . S
C4654 C4653 1.397 . S
C4654 C4655 1.334 . S
C4655 H4632 0.950 . S
C4655 C4654 1.334 . S
C4655 C4656 1.287 . S
C4656 C4655 1.287 . S
C4656 C4657 1.524 . S
C4656 H4675 0.913 . S
C4657 H4633 0.950 . S
C4657 C4656 1.524 . S
C4657 C4658 1.415 . S
C4658 H4634 0.950 . S
C4658 C4653 1.363 . S
C4658 C4657 1.415 . S
C4659 H4635 0.951 . S
C4659 C4660 1.366 . S
C4659 C4661 1.388 . S
C4660 C4659 1.366 . S
C4660 C4664 1.385 . S
C4661 H4636 0.951 . S
C4661 C4659 1.388 . S
C4661 C4662 1.366 . S
C4662 C4661 1.366 . S
C4662 C4663 1.414 . S
C4662 C4665 1.499 . S
C4663 H4637 0.950 . S
C4663 C4662 1.414 . S
C4663 C4664 1.374 . S
C4664 H4638 0.950 . S
C4664 C4660 1.385 . S
C4664 C4663 1.374 . S
C4665 C4662 1.499 . S
C4665 C4666 1.373 . S
C4665 C4667 1.389 . S
C4666 H4639 0.950 . S
C4666 C4652 1.377 . S
C4666 C4665 1.373 . S
C4667 C4651 1.377 . S
C4667 C4665 1.389 . S
C4667 C4668 1.524 . S
C4668 C4667 1.524 . S
C4668 C4669 1.397 . S
C4668 C4673 1.363 . S
C4669 H4640 0.950 . S
C4669 C4668 1.397 . S
C4669 C4670 1.334 . S
C4670 H4641 0.950 . S
C4670 C4669 1.334 . S
C4670 C4671 1.287 . S
C4671 C4670 1.287 . S
C4671 C4672 1.524 . S
C4671 H4674 0.999 . S
C4672 H4642 0.950 . S
C4672 C4671 1.524 . S
C4672 C4673 1.415 . S
C4673 H4643 0.950 . S
C4673 C4668 1.363 . S
C4673 C4672 1.415 . S
H4674 C4671 0.999 . S
H4675 C4656 0.913 . S
H4676 C4694 0.951 . S
H4677 C4696 0.951 . S
H4678 C4698 0.950 . S
H4679 C4699 0.950 . S
H4680 C4701 0.950 . S
H4681 C4704 0.950 . S
H4682 C4705 0.950 . S
H4683 C4707 0.950 . S
H4684 C4708 0.950 . S
H4685 C4709 0.951 . S
H4686 C4711 0.951 . S
H4687 C4713 0.950 . S
H4688 C4714 0.950 . S
H4689 C4716 0.950 . S
H4690 C4719 0.950 . S
H4691 C4720 0.950 . S
H4692 C4722 0.950 . S
H4693 C4723 0.950 1_455 S
C4694 H4676 0.951 . S
C4694 C4695 1.366 . S
C4694 C4696 1.388 . S
C4695 C4694 1.366 . S
C4695 C4699 1.385 . S
C4696 H4677 0.951 . S
C4696 C4694 1.388 . S
C4696 C4697 1.366 . S
C4697 C4696 1.366 . S
C4697 C4698 1.414 . S
C4697 C4700 1.499 . S
C4698 H4678 0.950 . S
C4698 C4697 1.414 . S
C4698 C4699 1.374 . S
C4699 H4679 0.950 . S
C4699 C4695 1.385 . S
C4699 C4698 1.374 . S
C4700 C4697 1.499 . S
C4700 C4701 1.373 . S
C4700 C4702 1.389 . S
C4701 H4680 0.950 . S
C4701 C4700 1.373 . S
C4701 C4717 1.377 . S
C4702 C4700 1.389 . S
C4702 C4703 1.524 . S
C4702 C4716 1.377 . S
C4703 C4702 1.524 . S
C4703 C4704 1.397 . S
C4703 C4708 1.363 . S
C4704 H4681 0.950 . S
C4704 C4703 1.397 . S
C4704 C4705 1.334 . S
C4705 H4682 0.950 . S
C4705 C4704 1.334 . S
C4705 C4706 1.287 . S
C4706 C4705 1.287 . S
C4706 C4707 1.524 . S
C4706 H4725 0.913 . S
C4707 H4683 0.950 . S
C4707 C4706 1.524 . S
C4707 C4708 1.415 . S
C4708 H4684 0.950 . S
C4708 C4703 1.363 . S
C4708 C4707 1.415 . S
C4709 H4685 0.951 . S
C4709 C4710 1.366 . S
C4709 C4711 1.388 . S
C4710 C4709 1.366 . S
C4710 C4714 1.385 . S
C4711 H4686 0.951 . S
C4711 C4709 1.388 . S
C4711 C4712 1.366 . S
C4712 C4711 1.366 . S
C4712 C4713 1.414 . S
C4712 C4715 1.499 . S
C4713 H4687 0.950 . S
C4713 C4712 1.414 . S
C4713 C4714 1.374 . S
C4714 H4688 0.950 . S
C4714 C4710 1.385 . S
C4714 C4713 1.374 . S
C4715 C4712 1.499 . S
C4715 C4716 1.373 . S
C4715 C4717 1.389 . S
C4716 H4689 0.950 . S
C4716 C4702 1.377 . S
C4716 C4715 1.373 . S
C4717 C4701 1.377 . S
C4717 C4715 1.389 . S
C4717 C4718 1.524 . S
C4718 C4717 1.524 . S
C4718 C4719 1.397 . S
C4718 C4723 1.363 1_455 S
C4719 H4690 0.950 . S
C4719 C4718 1.397 . S
C4719 C4720 1.334 1_455 S
C4720 H4691 0.950 . S
C4720 C4719 1.334 1_655 S
C4720 C4721 1.287 . S
C4721 C4720 1.287 . S
C4721 C4722 1.524 . S
C4721 H4724 0.999 . S
C4722 H4692 0.950 . S
C4722 C4721 1.524 . S
C4722 C4723 1.415 . S
C4723 H4693 0.950 1_655 S
C4723 C4718 1.363 1_655 S
C4723 C4722 1.415 . S
H4724 C4721 0.999 . S
H4725 C4706 0.913 . S
H4726 C4744 0.951 . S
H4727 C4746 0.951 . S
H4728 C4748 0.950 . S
H4729 C4749 0.950 . S
H4730 C4751 0.950 . S
H4731 C4754 0.950 . S
H4732 C4755 0.950 . S
H4733 C4757 0.950 . S
H4734 C4758 0.950 . S
H4735 C4759 0.951 . S
H4736 C4761 0.951 . S
H4737 C4763 0.950 . S
H4738 C4764 0.950 . S
H4739 C4766 0.950 . S
H4740 C4769 0.950 . S
H4741 C4770 0.950 . S
H4742 C4772 0.950 . S
H4743 C4773 0.950 . S
C4744 H4726 0.951 . S
C4744 C4745 1.366 . S
C4744 C4746 1.388 . S
C4745 C4744 1.366 . S
C4745 C4749 1.385 . S
C4746 H4727 0.951 . S
C4746 C4744 1.388 . S
C4746 C4747 1.366 . S
C4747 C4746 1.366 . S
C4747 C4748 1.414 . S
C4747 C4750 1.499 . S
C4748 H4728 0.950 . S
C4748 C4747 1.414 . S
C4748 C4749 1.374 . S
C4749 H4729 0.950 . S
C4749 C4745 1.385 . S
C4749 C4748 1.374 . S
C4750 C4747 1.499 . S
C4750 C4751 1.373 . S
C4750 C4752 1.389 . S
C4751 H4730 0.950 . S
C4751 C4750 1.373 . S
C4751 C4767 1.377 . S
C4752 C4750 1.389 . S
C4752 C4753 1.524 . S
C4752 C4766 1.377 . S
C4753 C4752 1.524 . S
C4753 C4754 1.397 . S
C4753 C4758 1.363 . S
C4754 H4731 0.950 . S
C4754 C4753 1.397 . S
C4754 C4755 1.334 . S
C4755 H4732 0.950 . S
C4755 C4754 1.334 . S
C4755 C4756 1.287 . S
C4756 C4755 1.287 . S
C4756 C4757 1.524 . S
C4756 H4775 0.913 . S
C4757 H4733 0.950 . S
C4757 C4756 1.524 . S
C4757 C4758 1.415 . S
C4758 H4734 0.950 . S
C4758 C4753 1.363 . S
C4758 C4757 1.415 . S
C4759 H4735 0.951 . S
C4759 C4760 1.366 . S
C4759 C4761 1.388 . S
C4760 C4759 1.366 . S
C4760 C4764 1.385 . S
C4761 H4736 0.951 . S
C4761 C4759 1.388 . S
C4761 C4762 1.366 . S
C4762 C4761 1.366 . S
C4762 C4763 1.414 . S
C4762 C4765 1.499 . S
C4763 H4737 0.950 . S
C4763 C4762 1.414 . S
C4763 C4764 1.374 . S
C4764 H4738 0.950 . S
C4764 C4760 1.385 . S
C4764 C4763 1.374 . S
C4765 C4762 1.499 . S
C4765 C4766 1.373 . S
C4765 C4767 1.389 . S
C4766 H4739 0.950 . S
C4766 C4752 1.377 . S
C4766 C4765 1.373 . S
C4767 C4751 1.377 . S
C4767 C4765 1.389 . S
C4767 C4768 1.524 . S
C4768 C4767 1.524 . S
C4768 C4769 1.397 . S
C4768 C4773 1.363 . S
C4769 H4740 0.950 . S
C4769 C4768 1.397 . S
C4769 C4770 1.334 . S
C4770 H4741 0.950 . S
C4770 C4769 1.334 . S
C4770 C4771 1.287 . S
C4771 C4770 1.287 . S
C4771 C4772 1.524 . S
C4771 H4774 0.999 . S
C4772 H4742 0.950 . S
C4772 C4771 1.524 . S
C4772 C4773 1.415 . S
C4773 H4743 0.950 . S
C4773 C4768 1.363 . S
C4773 C4772 1.415 . S
H4774 C4771 0.999 . S
H4775 C4756 0.913 . S
H4776 C4794 0.951 . S
H4777 C4796 0.951 . S
H4778 C4798 0.950 . S
H4779 C4799 0.950 . S
H4780 C4801 0.950 . S
H4781 C4804 0.950 . S
H4782 C4805 0.950 . S
H4783 C4807 0.950 . S
H4784 C4808 0.950 . S
H4785 C4809 0.951 . S
H4786 C4811 0.951 . S
H4787 C4813 0.950 . S
H4788 C4814 0.950 . S
H4789 C4816 0.950 . S
H4790 C4819 0.950 . S
H4791 C4820 0.950 . S
H4792 C4822 0.931 1_554 S
H4793 C4823 0.950 . S
C4794 H4776 0.951 . S
C4794 C4795 1.366 . S
C4794 C4796 1.388 . S
C4795 C4794 1.366 . S
C4795 C4799 1.385 . S
C4796 H4777 0.951 . S
C4796 C4794 1.388 . S
C4796 C4797 1.366 . S
C4797 C4796 1.366 . S
C4797 C4798 1.414 . S
C4797 C4800 1.499 . S
C4798 H4778 0.950 . S
C4798 C4797 1.414 . S
C4798 C4799 1.374 . S
C4799 H4779 0.950 . S
C4799 C4795 1.385 . S
C4799 C4798 1.374 . S
C4800 C4797 1.499 . S
C4800 C4801 1.373 . S
C4800 C4802 1.389 . S
C4801 H4780 0.950 . S
C4801 C4800 1.373 . S
C4801 C4817 1.377 . S
C4802 C4800 1.389 . S
C4802 C4803 1.524 . S
C4802 C4816 1.377 . S
C4803 C4802 1.524 . S
C4803 C4804 1.397 . S
C4803 C4808 1.363 . S
C4804 H4781 0.950 . S
C4804 C4803 1.397 . S
C4804 C4805 1.334 . S
C4805 H4782 0.950 . S
C4805 C4804 1.334 . S
C4805 C4806 1.287 . S
C4806 C4805 1.287 . S
C4806 C4807 1.524 . S
C4806 H4825 0.913 . S
C4807 H4783 0.950 . S
C4807 C4806 1.524 . S
C4807 C4808 1.415 . S
C4808 H4784 0.950 . S
C4808 C4803 1.363 . S
C4808 C4807 1.415 . S
C4809 H4785 0.951 . S
C4809 C4810 1.366 . S
C4809 C4811 1.388 . S
C4810 C4809 1.366 . S
C4810 C4814 1.385 . S
C4811 H4786 0.951 . S
C4811 C4809 1.388 . S
C4811 C4812 1.366 . S
C4812 C4811 1.366 . S
C4812 C4813 1.414 . S
C4812 C4815 1.499 . S
C4813 H4787 0.950 . S
C4813 C4812 1.414 . S
C4813 C4814 1.374 . S
C4814 H4788 0.950 . S
C4814 C4810 1.385 . S
C4814 C4813 1.374 . S
C4815 C4812 1.499 . S
C4815 C4816 1.373 . S
C4815 C4817 1.389 . S
C4816 H4789 0.950 . S
C4816 C4802 1.377 . S
C4816 C4815 1.373 . S
C4817 C4801 1.377 . S
C4817 C4815 1.389 . S
C4817 C4818 1.524 . S
C4818 C4817 1.524 . S
C4818 C4819 1.397 . S
C4818 C4823 1.363 . S
C4819 H4790 0.950 . S
C4819 C4818 1.397 . S
C4819 C4820 1.334 . S
C4820 H4791 0.950 . S
C4820 C4819 1.334 . S
C4820 C4821 1.287 1_556 S
C4821 C4820 1.287 1_554 S
C4821 C4822 1.517 1_554 S
C4821 H4824 0.999 . S
C4822 H4792 0.931 1_556 S
C4822 C4821 1.517 1_556 S
C4822 C4823 1.444 . S
C4823 H4793 0.950 . S
C4823 C4818 1.363 . S
C4823 C4822 1.444 . S
H4824 C4821 0.999 . S
H4825 C4806 0.913 . S
H4826 C4844 0.951 . S
H4827 C4846 0.951 . S
H4828 C4848 0.950 . S
H4829 C4849 0.950 . S
H4830 C4851 0.950 . S
H4831 C4854 0.950 . S
H4832 C4855 0.950 . S
H4833 C4857 0.950 . S
H4834 C4858 0.950 . S
H4835 C4859 0.951 . S
H4836 C4861 0.951 . S
H4837 C4863 0.950 . S
H4838 C4864 0.950 . S
H4839 C4866 0.950 . S
H4840 C4869 0.950 . S
H4841 C4870 0.950 . S
H4842 C4872 0.950 . S
H4843 C4873 0.950 . S
C4844 H4826 0.951 . S
C4844 C4845 1.366 . S
C4844 C4846 1.388 . S
C4845 C4844 1.366 . S
C4845 C4849 1.385 . S
C4846 H4827 0.951 . S
C4846 C4844 1.388 . S
C4846 C4847 1.366 . S
C4847 C4846 1.366 . S
C4847 C4848 1.414 . S
C4847 C4850 1.499 . S
C4848 H4828 0.950 . S
C4848 C4847 1.414 . S
C4848 C4849 1.374 . S
C4849 H4829 0.950 . S
C4849 C4845 1.385 . S
C4849 C4848 1.374 . S
C4850 C4847 1.499 . S
C4850 C4851 1.373 . S
C4850 C4852 1.389 . S
C4851 H4830 0.950 . S
C4851 C4850 1.373 . S
C4851 C4867 1.377 . S
C4852 C4850 1.389 . S
C4852 C4853 1.524 . S
C4852 C4866 1.377 . S
C4853 C4852 1.524 . S
C4853 C4854 1.397 . S
C4853 C4858 1.363 . S
C4854 H4831 0.950 . S
C4854 C4853 1.397 . S
C4854 C4855 1.334 . S
C4855 H4832 0.950 . S
C4855 C4854 1.334 . S
C4855 C4856 1.287 . S
C4856 C4855 1.287 . S
C4856 C4857 1.524 . S
C4856 H4875 0.913 . S
C4857 H4833 0.950 . S
C4857 C4856 1.524 . S
C4857 C4858 1.415 . S
C4858 H4834 0.950 . S
C4858 C4853 1.363 . S
C4858 C4857 1.415 . S
C4859 H4835 0.951 . S
C4859 C4860 1.366 . S
C4859 C4861 1.388 . S
C4860 C4859 1.366 . S
C4860 C4864 1.385 . S
C4861 H4836 0.951 . S
C4861 C4859 1.388 . S
C4861 C4862 1.366 . S
C4862 C4861 1.366 . S
C4862 C4863 1.414 . S
C4862 C4865 1.499 . S
C4863 H4837 0.950 . S
C4863 C4862 1.414 . S
C4863 C4864 1.374 . S
C4864 H4838 0.950 . S
C4864 C4860 1.385 . S
C4864 C4863 1.374 . S
C4865 C4862 1.499 . S
C4865 C4866 1.373 . S
C4865 C4867 1.389 . S
C4866 H4839 0.950 . S
C4866 C4852 1.377 . S
C4866 C4865 1.373 . S
C4867 C4851 1.377 . S
C4867 C4865 1.389 . S
C4867 C4868 1.524 . S
C4868 C4867 1.524 . S
C4868 C4869 1.397 . S
C4868 C4873 1.363 . S
C4869 H4840 0.950 . S
C4869 C4868 1.397 . S
C4869 C4870 1.334 . S
C4870 H4841 0.950 . S
C4870 C4869 1.334 . S
C4870 C4871 1.287 . S
C4871 C4870 1.287 . S
C4871 C4872 1.524 . S
C4871 H4874 0.999 . S
C4872 H4842 0.950 . S
C4872 C4871 1.524 . S
C4872 C4873 1.415 . S
C4873 H4843 0.950 . S
C4873 C4868 1.363 . S
C4873 C4872 1.415 . S
H4874 C4871 0.999 . S
H4875 C4856 0.913 . S
H4876 C4894 0.951 . S
H4877 C4896 0.951 . S
H4878 C4898 0.950 . S
H4879 C4899 0.950 . S
H4880 C4901 0.950 . S
H4881 C4904 0.950 . S
H4882 C4905 0.950 . S
H4883 C4907 0.950 . S
H4884 C4908 0.950 . S
H4885 C4909 0.951 . S
H4886 C4911 0.951 . S
H4887 C4913 0.950 . S
H4888 C4914 0.950 . S
H4889 C4916 0.950 . S
H4890 C4919 0.950 . S
H4891 C4920 0.950 . S
H4892 C4922 0.950 . S
H4893 C4923 0.950 . S
C4894 H4876 0.951 . S
C4894 C4895 1.366 . S
C4894 C4896 1.388 . S
C4895 C4894 1.366 . S
C4895 C4899 1.385 . S
C4896 H4877 0.951 . S
C4896 C4894 1.388 . S
C4896 C4897 1.366 . S
C4897 C4896 1.366 . S
C4897 C4898 1.414 . S
C4897 C4900 1.499 . S
C4898 H4878 0.950 . S
C4898 C4897 1.414 . S
C4898 C4899 1.374 . S
C4899 H4879 0.950 . S
C4899 C4895 1.385 . S
C4899 C4898 1.374 . S
C4900 C4897 1.499 . S
C4900 C4901 1.373 . S
C4900 C4902 1.389 . S
C4901 H4880 0.950 . S
C4901 C4900 1.373 . S
C4901 C4917 1.377 . S
C4902 C4900 1.389 . S
C4902 C4903 1.524 . S
C4902 C4916 1.377 . S
C4903 C4902 1.524 . S
C4903 C4904 1.397 . S
C4903 C4908 1.363 . S
C4904 H4881 0.950 . S
C4904 C4903 1.397 . S
C4904 C4905 1.334 . S
C4905 H4882 0.950 . S
C4905 C4904 1.334 . S
C4905 C4906 1.287 . S
C4906 C4905 1.287 . S
C4906 C4907 1.524 . S
C4906 H4925 0.913 . S
C4907 H4883 0.950 . S
C4907 C4906 1.524 . S
C4907 C4908 1.415 . S
C4908 H4884 0.950 . S
C4908 C4903 1.363 . S
C4908 C4907 1.415 . S
C4909 H4885 0.951 . S
C4909 C4910 1.366 . S
C4909 C4911 1.388 . S
C4910 C4909 1.366 . S
C4910 C4914 1.385 . S
C4911 H4886 0.951 . S
C4911 C4909 1.388 . S
C4911 C4912 1.366 . S
C4912 C4911 1.366 . S
C4912 C4913 1.414 . S
C4912 C4915 1.499 . S
C4913 H4887 0.950 . S
C4913 C4912 1.414 . S
C4913 C4914 1.374 . S
C4914 H4888 0.950 . S
C4914 C4910 1.385 . S
C4914 C4913 1.374 . S
C4915 C4912 1.499 . S
C4915 C4916 1.373 . S
C4915 C4917 1.389 . S
C4916 H4889 0.950 . S
C4916 C4902 1.377 . S
C4916 C4915 1.373 . S
C4917 C4901 1.377 . S
C4917 C4915 1.389 . S
C4917 C4918 1.524 . S
C4918 C4917 1.524 . S
C4918 C4919 1.397 . S
C4918 C4923 1.363 . S
C4919 H4890 0.950 . S
C4919 C4918 1.397 . S
C4919 C4920 1.334 . S
C4920 H4891 0.950 . S
C4920 C4919 1.334 . S
C4920 C4921 1.287 . S
C4921 C4920 1.287 . S
C4921 C4922 1.524 . S
C4921 H4924 0.999 . S
C4922 H4892 0.950 . S
C4922 C4921 1.524 . S
C4922 C4923 1.415 . S
C4923 H4893 0.950 . S
C4923 C4918 1.363 . S
C4923 C4922 1.415 . S
H4924 C4921 0.999 . S
H4925 C4906 0.913 . S
H4926 C4944 0.951 . S
H4927 C4946 0.951 . S
H4928 C4948 0.950 . S
H4929 C4949 0.950 . S
H4930 C4951 0.950 . S
H4931 C4954 0.950 . S
H4932 C4955 0.950 . S
H4933 C4957 0.950 . S
H4934 C4958 0.950 . S
H4935 C4959 0.951 . S
H4936 C4961 0.951 . S
H4937 C4963 0.950 . S
H4938 C4964 0.950 . S
H4939 C4966 0.950 . S
H4940 C4969 0.950 . S
H4941 C4970 0.950 . S
H4942 C4972 0.950 . S
H4943 C4973 0.950 . S
C4944 H4926 0.951 . S
C4944 C4945 1.366 . S
C4944 C4946 1.388 . S
C4945 C4944 1.366 . S
C4945 C4949 1.385 . S
C4946 H4927 0.951 . S
C4946 C4944 1.388 . S
C4946 C4947 1.366 . S
C4947 C4946 1.366 . S
C4947 C4948 1.414 . S
C4947 C4950 1.499 . S
C4948 H4928 0.950 . S
C4948 C4947 1.414 . S
C4948 C4949 1.374 . S
C4949 H4929 0.950 . S
C4949 C4945 1.385 . S
C4949 C4948 1.374 . S
C4950 C4947 1.499 . S
C4950 C4951 1.373 . S
C4950 C4952 1.389 . S
C4951 H4930 0.950 . S
C4951 C4950 1.373 . S
C4951 C4967 1.377 . S
C4952 C4950 1.389 . S
C4952 C4953 1.524 . S
C4952 C4966 1.377 . S
C4953 C4952 1.524 . S
C4953 C4954 1.397 . S
C4953 C4958 1.363 . S
C4954 H4931 0.950 . S
C4954 C4953 1.397 . S
C4954 C4955 1.334 . S
C4955 H4932 0.950 . S
C4955 C4954 1.334 . S
C4955 C4956 1.287 . S
C4956 C4955 1.287 . S
C4956 C4957 1.524 . S
C4956 H4975 0.913 . S
C4957 H4933 0.950 . S
C4957 C4956 1.524 . S
C4957 C4958 1.415 . S
C4958 H4934 0.950 . S
C4958 C4953 1.363 . S
C4958 C4957 1.415 . S
C4959 H4935 0.951 . S
C4959 C4960 1.366 . S
C4959 C4961 1.388 . S
C4960 C4959 1.366 . S
C4960 C4964 1.385 . S
C4961 H4936 0.951 . S
C4961 C4959 1.388 . S
C4961 C4962 1.366 . S
C4962 C4961 1.366 . S
C4962 C4963 1.414 . S
C4962 C4965 1.499 . S
C4963 H4937 0.950 . S
C4963 C4962 1.414 . S
C4963 C4964 1.374 . S
C4964 H4938 0.950 . S
C4964 C4960 1.385 . S
C4964 C4963 1.374 . S
C4965 C4962 1.499 . S
C4965 C4966 1.373 . S
C4965 C4967 1.389 . S
C4966 H4939 0.950 . S
C4966 C4952 1.377 . S
C4966 C4965 1.373 . S
C4967 C4951 1.377 . S
C4967 C4965 1.389 . S
C4967 C4968 1.524 . S
C4968 C4967 1.524 . S
C4968 C4969 1.397 . S
C4968 C4973 1.363 . S
C4969 H4940 0.950 . S
C4969 C4968 1.397 . S
C4969 C4970 1.334 . S
C4970 H4941 0.950 . S
C4970 C4969 1.334 . S
C4970 C4971 1.287 . S
C4971 C4970 1.287 . S
C4971 C4972 1.524 . S
C4971 H4974 0.999 . S
C4972 H4942 0.950 . S
C4972 C4971 1.524 . S
C4972 C4973 1.415 . S
C4973 H4943 0.950 . S
C4973 C4968 1.363 . S
C4973 C4972 1.415 . S
H4974 C4971 0.999 . S
H4975 C4956 0.913 . S
H4976 C4994 0.951 . S
H4977 C4996 0.951 . S
H4978 C4998 0.950 . S
H4979 C4999 0.950 . S
H4980 C5001 0.950 . S
H4981 C5004 0.950 . S
H4982 C5005 0.950 . S
H4983 C5007 0.950 . S
H4984 C5008 0.950 . S
H4985 C5009 0.951 . S
H4986 C5011 0.951 . S
H4987 C5013 0.950 . S
H4988 C5014 0.950 . S
H4989 C5016 0.950 . S
H4990 C5019 0.950 . S
H4991 C5020 0.950 . S
H4992 C5022 0.950 . S
H4993 C5023 0.950 . S
C4994 H4976 0.951 . S
C4994 C4995 1.366 . S
C4994 C4996 1.388 . S
C4995 C4994 1.366 . S
C4995 C4999 1.385 . S
C4996 H4977 0.951 . S
C4996 C4994 1.388 . S
C4996 C4997 1.366 . S
C4997 C4996 1.366 . S
C4997 C4998 1.414 . S
C4997 C5000 1.499 . S
C4998 H4978 0.950 . S
C4998 C4997 1.414 . S
C4998 C4999 1.374 . S
C4999 H4979 0.950 . S
C4999 C4995 1.385 . S
C4999 C4998 1.374 . S
C5000 C4997 1.499 . S
C5000 C5001 1.373 . S
C5000 C5002 1.389 . S
C5001 H4980 0.950 . S
C5001 C5000 1.373 . S
C5001 C5017 1.377 . S
C5002 C5000 1.389 . S
C5002 C5003 1.524 . S
C5002 C5016 1.377 . S
C5003 C5002 1.524 . S
C5003 C5004 1.397 . S
C5003 C5008 1.363 . S
C5004 H4981 0.950 . S
C5004 C5003 1.397 . S
C5004 C5005 1.334 . S
C5005 H4982 0.950 . S
C5005 C5004 1.334 . S
C5005 C5006 1.287 . S
C5006 C5005 1.287 . S
C5006 C5007 1.524 . S
C5006 H5025 0.913 . S
C5007 H4983 0.950 . S
C5007 C5006 1.524 . S
C5007 C5008 1.415 . S
C5008 H4984 0.950 . S
C5008 C5003 1.363 . S
C5008 C5007 1.415 . S
C5009 H4985 0.951 . S
C5009 C5010 1.366 . S
C5009 C5011 1.388 . S
C5010 C5009 1.366 . S
C5010 C5014 1.385 . S
C5011 H4986 0.951 . S
C5011 C5009 1.388 . S
C5011 C5012 1.366 . S
C5012 C5011 1.366 . S
C5012 C5013 1.414 . S
C5012 C5015 1.499 . S
C5013 H4987 0.950 . S
C5013 C5012 1.414 . S
C5013 C5014 1.374 . S
C5014 H4988 0.950 . S
C5014 C5010 1.385 . S
C5014 C5013 1.374 . S
C5015 C5012 1.499 . S
C5015 C5016 1.373 . S
C5015 C5017 1.389 . S
C5016 H4989 0.950 . S
C5016 C5002 1.377 . S
C5016 C5015 1.373 . S
C5017 C5001 1.377 . S
C5017 C5015 1.389 . S
C5017 C5018 1.524 . S
C5018 C5017 1.524 . S
C5018 C5019 1.397 . S
C5018 C5023 1.363 . S
C5019 H4990 0.950 . S
C5019 C5018 1.397 . S
C5019 C5020 1.334 . S
C5020 H4991 0.950 . S
C5020 C5019 1.334 . S
C5020 C5021 1.287 . S
C5021 C5020 1.287 . S
C5021 C5022 1.524 . S
C5021 H5024 0.999 . S
C5022 H4992 0.950 . S
C5022 C5021 1.524 . S
C5022 C5023 1.415 . S
C5023 H4993 0.950 . S
C5023 C5018 1.363 . S
C5023 C5022 1.415 . S
H5024 C5021 0.999 . S
H5025 C5006 0.913 . S
H5026 C5044 0.951 . S
H5027 C5046 0.951 . S
H5028 C5048 0.950 . S
H5029 C5049 0.950 . S
H5030 C5051 0.950 . S
H5031 C5054 0.950 . S
H5032 C5055 0.950 . S
H5033 C5057 0.950 . S
H5034 C5058 0.950 . S
H5035 C5059 0.951 . S
H5036 C5061 0.951 . S
H5037 C5063 0.950 . S
H5038 C5064 0.950 . S
H5039 C5066 0.950 . S
H5040 C5069 0.950 . S
H5041 C5070 0.950 . S
H5042 C5072 0.950 . S
H5043 C5073 0.950 . S
C5044 H5026 0.951 . S
C5044 C5045 1.366 . S
C5044 C5046 1.388 . S
C5045 C5044 1.366 . S
C5045 C5049 1.385 . S
C5046 H5027 0.951 . S
C5046 C5044 1.388 . S
C5046 C5047 1.366 . S
C5047 C5046 1.366 . S
C5047 C5048 1.414 . S
C5047 C5050 1.499 . S
C5048 H5028 0.950 . S
C5048 C5047 1.414 . S
C5048 C5049 1.374 . S
C5049 H5029 0.950 . S
C5049 C5045 1.385 . S
C5049 C5048 1.374 . S
C5050 C5047 1.499 . S
C5050 C5051 1.373 . S
C5050 C5052 1.389 . S
C5051 H5030 0.950 . S
C5051 C5050 1.373 . S
C5051 C5067 1.377 . S
C5052 C5050 1.389 . S
C5052 C5053 1.524 . S
C5052 C5066 1.377 . S
C5053 C5052 1.524 . S
C5053 C5054 1.397 . S
C5053 C5058 1.363 . S
C5054 H5031 0.950 . S
C5054 C5053 1.397 . S
C5054 C5055 1.334 . S
C5055 H5032 0.950 . S
C5055 C5054 1.334 . S
C5055 C5056 1.287 . S
C5056 C5055 1.287 . S
C5056 C5057 1.524 . S
C5056 H5075 0.913 . S
C5057 H5033 0.950 . S
C5057 C5056 1.524 . S
C5057 C5058 1.415 . S
C5058 H5034 0.950 . S
C5058 C5053 1.363 . S
C5058 C5057 1.415 . S
C5059 H5035 0.951 . S
C5059 C5060 1.366 . S
C5059 C5061 1.388 . S
C5060 C5059 1.366 . S
C5060 C5064 1.385 . S
C5061 H5036 0.951 . S
C5061 C5059 1.388 . S
C5061 C5062 1.366 . S
C5062 C5061 1.366 . S
C5062 C5063 1.414 . S
C5062 C5065 1.499 . S
C5063 H5037 0.950 . S
C5063 C5062 1.414 . S
C5063 C5064 1.374 . S
C5064 H5038 0.950 . S
C5064 C5060 1.385 . S
C5064 C5063 1.374 . S
C5065 C5062 1.499 . S
C5065 C5066 1.373 . S
C5065 C5067 1.389 . S
C5066 H5039 0.950 . S
C5066 C5052 1.377 . S
C5066 C5065 1.373 . S
C5067 C5051 1.377 . S
C5067 C5065 1.389 . S
C5067 C5068 1.524 . S
C5068 C5067 1.524 . S
C5068 C5069 1.397 . S
C5068 C5073 1.363 . S
C5069 H5040 0.950 . S
C5069 C5068 1.397 . S
C5069 C5070 1.334 . S
C5070 H5041 0.950 . S
C5070 C5069 1.334 . S
C5070 C5071 1.287 . S
C5071 C5070 1.287 . S
C5071 C5072 1.524 . S
C5071 H5074 0.999 . S
C5072 H5042 0.950 . S
C5072 C5071 1.524 . S
C5072 C5073 1.415 . S
C5073 H5043 0.950 . S
C5073 C5068 1.363 . S
C5073 C5072 1.415 . S
H5074 C5071 0.999 . S
H5075 C5056 0.913 . S
H5076 C5094 0.951 . S
H5077 C5096 0.951 . S
H5078 C5098 0.950 . S
H5079 C5099 0.950 . S
H5080 C5101 0.950 . S
H5081 C5104 0.950 . S
H5082 C5105 0.950 . S
H5083 C5107 0.950 . S
H5084 C5108 0.950 . S
H5085 C5109 0.951 . S
H5086 C5111 0.951 . S
H5087 C5113 0.950 . S
H5088 C5114 0.950 . S
H5089 C5116 0.950 . S
H5090 C5119 0.950 . S
H5091 C5120 0.950 . S
H5092 C5122 0.950 . S
H5093 C5123 0.950 . S
C5094 H5076 0.951 . S
C5094 C5095 1.366 . S
C5094 C5096 1.388 . S
C5095 C5094 1.366 . S
C5095 C5099 1.385 . S
C5096 H5077 0.951 . S
C5096 C5094 1.388 . S
C5096 C5097 1.366 . S
C5097 C5096 1.366 . S
C5097 C5098 1.414 . S
C5097 C5100 1.499 . S
C5098 H5078 0.950 . S
C5098 C5097 1.414 . S
C5098 C5099 1.374 . S
C5099 H5079 0.950 . S
C5099 C5095 1.385 . S
C5099 C5098 1.374 . S
C5100 C5097 1.499 . S
C5100 C5101 1.373 . S
C5100 C5102 1.389 . S
C5101 H5080 0.950 . S
C5101 C5100 1.373 . S
C5101 C5117 1.377 . S
C5102 C5100 1.389 . S
C5102 C5103 1.524 . S
C5102 C5116 1.377 . S
C5103 C5102 1.524 . S
C5103 C5104 1.397 . S
C5103 C5108 1.363 . S
C5104 H5081 0.950 . S
C5104 C5103 1.397 . S
C5104 C5105 1.334 . S
C5105 H5082 0.950 . S
C5105 C5104 1.334 . S
C5105 C5106 1.287 . S
C5106 C5105 1.287 . S
C5106 C5107 1.524 . S
C5106 H5125 0.913 . S
C5107 H5083 0.950 . S
C5107 C5106 1.524 . S
C5107 C5108 1.415 . S
C5108 H5084 0.950 . S
C5108 C5103 1.363 . S
C5108 C5107 1.415 . S
C5109 H5085 0.951 . S
C5109 C5110 1.366 . S
C5109 C5111 1.388 . S
C5110 C5109 1.366 . S
C5110 C5114 1.385 . S
C5111 H5086 0.951 . S
C5111 C5109 1.388 . S
C5111 C5112 1.366 1_455 S
C5112 C5111 1.366 1_655 S
C5112 C5113 1.414 . S
C5112 C5115 1.499 . S
C5113 H5087 0.950 . S
C5113 C5112 1.414 . S
C5113 C5114 1.374 1_655 S
C5114 H5088 0.950 . S
C5114 C5110 1.385 . S
C5114 C5113 1.374 1_455 S
C5115 C5112 1.499 . S
C5115 C5116 1.373 . S
C5115 C5117 1.389 . S
C5116 H5089 0.950 . S
C5116 C5102 1.377 . S
C5116 C5115 1.373 . S
C5117 C5101 1.377 . S
C5117 C5115 1.389 . S
C5117 C5118 1.524 . S
C5118 C5117 1.524 . S
C5118 C5119 1.397 . S
C5118 C5123 1.363 . S
C5119 H5090 0.950 . S
C5119 C5118 1.397 . S
C5119 C5120 1.334 . S
C5120 H5091 0.950 . S
C5120 C5119 1.334 . S
C5120 C5121 1.287 . S
C5121 C5120 1.287 . S
C5121 C5122 1.524 . S
C5121 H5124 0.999 . S
C5122 H5092 0.950 . S
C5122 C5121 1.524 . S
C5122 C5123 1.415 . S
C5123 H5093 0.950 . S
C5123 C5118 1.363 . S
C5123 C5122 1.415 . S
H5124 C5121 0.999 . S
H5125 C5106 0.913 . S
H5126 C5144 0.951 . S
H5127 C5146 0.951 . S
H5128 C5148 0.950 . S
H5129 C5149 0.950 . S
H5130 C5151 0.950 . S
H5131 C5154 0.950 . S
H5132 C5155 0.950 . S
H5133 C5157 0.950 . S
H5134 C5158 0.950 . S
H5135 C5159 0.951 . S
H5136 C5161 0.951 . S
H5137 C5163 0.950 . S
H5138 C5164 0.950 . S
H5139 C5166 0.950 . S
H5140 C5169 0.950 . S
H5141 C5170 0.950 . S
H5142 C5172 0.950 . S
H5143 C5173 0.950 . S
C5144 H5126 0.951 . S
C5144 C5145 1.366 . S
C5144 C5146 1.388 . S
C5145 C5144 1.366 . S
C5145 C5149 1.385 . S
C5146 H5127 0.951 . S
C5146 C5144 1.388 . S
C5146 C5147 1.366 . S
C5147 C5146 1.366 . S
C5147 C5148 1.414 . S
C5147 C5150 1.499 . S
C5148 H5128 0.950 . S
C5148 C5147 1.414 . S
C5148 C5149 1.374 . S
C5149 H5129 0.950 . S
C5149 C5145 1.385 . S
C5149 C5148 1.374 . S
C5150 C5147 1.499 . S
C5150 C5151 1.373 . S
C5150 C5152 1.389 . S
C5151 H5130 0.950 . S
C5151 C5150 1.373 . S
C5151 C5167 1.377 . S
C5152 C5150 1.389 . S
C5152 C5153 1.524 . S
C5152 C5166 1.377 . S
C5153 C5152 1.524 . S
C5153 C5154 1.397 . S
C5153 C5158 1.363 . S
C5154 H5131 0.950 . S
C5154 C5153 1.397 . S
C5154 C5155 1.334 . S
C5155 H5132 0.950 . S
C5155 C5154 1.334 . S
C5155 C5156 1.287 . S
C5156 C5155 1.287 . S
C5156 C5157 1.524 . S
C5156 H5175 0.913 . S
C5157 H5133 0.950 . S
C5157 C5156 1.524 . S
C5157 C5158 1.415 . S
C5158 H5134 0.950 . S
C5158 C5153 1.363 . S
C5158 C5157 1.415 . S
C5159 H5135 0.951 . S
C5159 C5160 1.366 . S
C5159 C5161 1.388 . S
C5160 C5159 1.366 . S
C5160 C5164 1.385 . S
C5161 H5136 0.951 . S
C5161 C5159 1.388 . S
C5161 C5162 1.366 . S
C5162 C5161 1.366 . S
C5162 C5163 1.414 . S
C5162 C5165 1.499 . S
C5163 H5137 0.950 . S
C5163 C5162 1.414 . S
C5163 C5164 1.374 . S
C5164 H5138 0.950 . S
C5164 C5160 1.385 . S
C5164 C5163 1.374 . S
C5165 C5162 1.499 . S
C5165 C5166 1.373 . S
C5165 C5167 1.389 . S
C5166 H5139 0.950 . S
C5166 C5152 1.377 . S
C5166 C5165 1.373 . S
C5167 C5151 1.377 . S
C5167 C5165 1.389 . S
C5167 C5168 1.524 . S
C5168 C5167 1.524 . S
C5168 C5169 1.397 . S
C5168 C5173 1.363 . S
C5169 H5140 0.950 . S
C5169 C5168 1.397 . S
C5169 C5170 1.334 . S
C5170 H5141 0.950 . S
C5170 C5169 1.334 . S
C5170 C5171 1.287 . S
C5171 C5170 1.287 . S
C5171 C5172 1.524 . S
C5171 H5174 0.999 . S
C5172 H5142 0.950 . S
C5172 C5171 1.524 . S
C5172 C5173 1.415 . S
C5173 H5143 0.950 . S
C5173 C5168 1.363 . S
C5173 C5172 1.415 . S
H5174 C5171 0.999 . S
H5175 C5156 0.913 . S
H5176 C5194 0.951 . S
H5177 C5196 0.951 . S
H5178 C5198 0.950 . S
H5179 C5199 0.950 . S
H5180 C5201 0.950 . S
H5181 C5204 0.950 . S
H5182 C5205 0.950 . S
H5183 C5207 0.950 . S
H5184 C5208 0.950 . S
H5185 C5209 0.951 . S
H5186 C5211 0.951 . S
H5187 C5213 0.950 . S
H5188 C5214 0.950 . S
H5189 C5216 0.950 . S
H5190 C5219 0.950 . S
H5191 C5220 0.950 . S
H5192 C5222 0.950 . S
H5193 C5223 0.950 . S
C5194 H5176 0.951 . S
C5194 C5195 1.366 . S
C5194 C5196 1.388 . S
C5195 C5194 1.366 . S
C5195 C5199 1.385 . S
C5196 H5177 0.951 . S
C5196 C5194 1.388 . S
C5196 C5197 1.366 . S
C5197 C5196 1.366 . S
C5197 C5198 1.414 . S
C5197 C5200 1.499 . S
C5198 H5178 0.950 . S
C5198 C5197 1.414 . S
C5198 C5199 1.374 . S
C5199 H5179 0.950 . S
C5199 C5195 1.385 . S
C5199 C5198 1.374 . S
C5200 C5197 1.499 . S
C5200 C5201 1.373 . S
C5200 C5202 1.389 . S
C5201 H5180 0.950 . S
C5201 C5200 1.373 . S
C5201 C5217 1.377 . S
C5202 C5200 1.389 . S
C5202 C5203 1.524 . S
C5202 C5216 1.377 . S
C5203 C5202 1.524 . S
C5203 C5204 1.397 . S
C5203 C5208 1.363 . S
C5204 H5181 0.950 . S
C5204 C5203 1.397 . S
C5204 C5205 1.334 . S
C5205 H5182 0.950 . S
C5205 C5204 1.334 . S
C5205 C5206 1.287 . S
C5206 C5205 1.287 . S
C5206 C5207 1.524 . S
C5206 H5225 0.913 . S
C5207 H5183 0.950 . S
C5207 C5206 1.524 . S
C5207 C5208 1.415 . S
C5208 H5184 0.950 . S
C5208 C5203 1.363 . S
C5208 C5207 1.415 . S
C5209 H5185 0.951 . S
C5209 C5210 1.366 . S
C5209 C5211 1.388 . S
C5210 C5209 1.366 . S
C5210 C5214 1.385 . S
C5211 H5186 0.951 . S
C5211 C5209 1.388 . S
C5211 C5212 1.366 . S
C5212 C5211 1.366 . S
C5212 C5213 1.414 . S
C5212 C5215 1.499 . S
C5213 H5187 0.950 . S
C5213 C5212 1.414 . S
C5213 C5214 1.374 . S
C5214 H5188 0.950 . S
C5214 C5210 1.385 . S
C5214 C5213 1.374 . S
C5215 C5212 1.499 . S
C5215 C5216 1.373 . S
C5215 C5217 1.389 . S
C5216 H5189 0.950 . S
C5216 C5202 1.377 . S
C5216 C5215 1.373 . S
C5217 C5201 1.377 . S
C5217 C5215 1.389 . S
C5217 C5218 1.524 . S
C5218 C5217 1.524 . S
C5218 C5219 1.397 . S
C5218 C5223 1.363 . S
C5219 H5190 0.950 . S
C5219 C5218 1.397 . S
C5219 C5220 1.334 . S
C5220 H5191 0.950 . S
C5220 C5219 1.334 . S
C5220 C5221 1.287 . S
C5221 C5220 1.287 . S
C5221 C5222 1.524 . S
C5221 H5224 0.999 . S
C5222 H5192 0.950 . S
C5222 C5221 1.524 . S
C5222 C5223 1.415 . S
C5223 H5193 0.950 . S
C5223 C5218 1.363 . S
C5223 C5222 1.415 . S
H5224 C5221 0.999 . S
H5225 C5206 0.913 . S
H5226 C5244 0.951 . S
H5227 C5246 0.951 . S
H5228 C5248 0.950 . S
H5229 C5249 0.950 . S
H5230 C5251 0.950 . S
H5231 C5254 0.950 . S
H5232 C5255 0.950 . S
H5233 C5257 0.950 . S
H5234 C5258 0.950 . S
H5235 C5259 0.951 . S
H5236 C5261 0.951 . S
H5237 C5263 0.950 . S
H5238 C5264 0.950 . S
H5239 C5266 0.950 . S
H5240 C5269 0.950 . S
H5241 C5270 0.950 . S
H5242 C5272 0.950 . S
H5243 C5273 0.950 . S
C5244 H5226 0.951 . S
C5244 C5245 1.366 . S
C5244 C5246 1.388 . S
C5245 C5244 1.366 . S
C5245 C5249 1.385 . S
C5246 H5227 0.951 . S
C5246 C5244 1.388 . S
C5246 C5247 1.366 . S
C5247 C5246 1.366 . S
C5247 C5248 1.414 . S
C5247 C5250 1.499 . S
C5248 H5228 0.950 . S
C5248 C5247 1.414 . S
C5248 C5249 1.374 . S
C5249 H5229 0.950 . S
C5249 C5245 1.385 . S
C5249 C5248 1.374 . S
C5250 C5247 1.499 . S
C5250 C5251 1.373 . S
C5250 C5252 1.389 . S
C5251 H5230 0.950 . S
C5251 C5250 1.373 . S
C5251 C5267 1.377 . S
C5252 C5250 1.389 . S
C5252 C5253 1.524 . S
C5252 C5266 1.377 . S
C5253 C5252 1.524 . S
C5253 C5254 1.397 . S
C5253 C5258 1.363 . S
C5254 H5231 0.950 . S
C5254 C5253 1.397 . S
C5254 C5255 1.334 . S
C5255 H5232 0.950 . S
C5255 C5254 1.334 . S
C5255 C5256 1.287 . S
C5256 C5255 1.287 . S
C5256 C5257 1.524 . S
C5256 H5275 0.913 . S
C5257 H5233 0.950 . S
C5257 C5256 1.524 . S
C5257 C5258 1.415 . S
C5258 H5234 0.950 . S
C5258 C5253 1.363 . S
C5258 C5257 1.415 . S
C5259 H5235 0.951 . S
C5259 C5260 1.366 . S
C5259 C5261 1.388 . S
C5260 C5259 1.366 . S
C5260 C5264 1.385 . S
C5261 H5236 0.951 . S
C5261 C5259 1.388 . S
C5261 C5262 1.366 . S
C5262 C5261 1.366 . S
C5262 C5263 1.414 . S
C5262 C5265 1.499 . S
C5263 H5237 0.950 . S
C5263 C5262 1.414 . S
C5263 C5264 1.374 . S
C5264 H5238 0.950 . S
C5264 C5260 1.385 . S
C5264 C5263 1.374 . S
C5265 C5262 1.499 . S
C5265 C5266 1.373 . S
C5265 C5267 1.389 . S
C5266 H5239 0.950 . S
C5266 C5252 1.377 . S
C5266 C5265 1.373 . S
C5267 C5251 1.377 . S
C5267 C5265 1.389 . S
C5267 C5268 1.524 . S
C5268 C5267 1.524 . S
C5268 C5269 1.397 . S
C5268 C5273 1.363 . S
C5269 H5240 0.950 . S
C5269 C5268 1.397 . S
C5269 C5270 1.334 . S
C5270 H5241 0.950 . S
C5270 C5269 1.334 . S
C5270 C5271 1.287 . S
C5271 C5270 1.287 . S
C5271 C5272 1.524 . S
C5271 H5274 0.999 . S
C5272 H5242 0.950 . S
C5272 C5271 1.524 . S
C5272 C5273 1.415 . S
C5273 H5243 0.950 . S
C5273 C5268 1.363 . S
C5273 C5272 1.415 . S
H5274 C5271 0.999 . S
H5275 C5256 0.913 . S
H5276 C5294 0.951 . S
H5277 C5296 0.951 . S
H5278 C5298 0.950 . S
H5279 C5299 0.950 . S
H5280 C5301 0.950 . S
H5281 C5304 0.950 . S
H5282 C5305 0.950 . S
H5283 C5307 0.950 . S
H5284 C5308 0.950 . S
H5285 C5309 0.951 . S
H5286 C5311 0.951 . S
H5287 C5313 0.950 . S
H5288 C5314 0.950 1_455 S
H5289 C5316 0.950 . S
H5290 C5319 0.950 . S
H5291 C5320 0.950 . S
H5292 C5322 0.950 . S
H5293 C5323 0.950 . S
C5294 H5276 0.951 . S
C5294 C5295 1.366 . S
C5294 C5296 1.388 . S
C5295 C5294 1.366 . S
C5295 C5299 1.385 . S
C5296 H5277 0.951 . S
C5296 C5294 1.388 . S
C5296 C5297 1.366 . S
C5297 C5296 1.366 . S
C5297 C5298 1.414 . S
C5297 C5300 1.499 . S
C5298 H5278 0.950 . S
C5298 C5297 1.414 . S
C5298 C5299 1.374 . S
C5299 H5279 0.950 . S
C5299 C5295 1.385 . S
C5299 C5298 1.374 . S
C5300 C5297 1.499 . S
C5300 C5301 1.373 . S
C5300 C5302 1.389 . S
C5301 H5280 0.950 . S
C5301 C5300 1.373 . S
C5301 C5317 1.377 . S
C5302 C5300 1.389 . S
C5302 C5303 1.524 . S
C5302 C5316 1.377 . S
C5303 C5302 1.524 . S
C5303 C5304 1.397 . S
C5303 C5308 1.363 . S
C5304 H5281 0.950 . S
C5304 C5303 1.397 . S
C5304 C5305 1.334 . S
C5305 H5282 0.950 . S
C5305 C5304 1.334 . S
C5305 C5306 1.287 . S
C5306 C5305 1.287 . S
C5306 C5307 1.524 . S
C5306 H5325 0.913 . S
C5307 H5283 0.950 . S
C5307 C5306 1.524 . S
C5307 C5308 1.415 . S
C5308 H5284 0.950 . S
C5308 C5303 1.363 . S
C5308 C5307 1.415 . S
C5309 H5285 0.951 . S
C5309 C5310 1.366 . S
C5309 C5311 1.388 . S
C5310 C5309 1.366 . S
C5310 C5314 1.385 . S
C5311 H5286 0.951 . S
C5311 C5309 1.388 . S
C5311 C5312 1.366 . S
C5312 C5311 1.366 . S
C5312 C5313 1.414 . S
C5312 C5315 1.499 . S
C5313 H5287 0.950 . S
C5313 C5312 1.414 . S
C5313 C5314 1.374 . S
C5314 H5288 0.950 1_655 S
C5314 C5310 1.385 . S
C5314 C5313 1.374 . S
C5315 C5312 1.499 . S
C5315 C5316 1.373 . S
C5315 C5317 1.389 . S
C5316 H5289 0.950 . S
C5316 C5302 1.377 . S
C5316 C5315 1.373 . S
C5317 C5301 1.377 . S
C5317 C5315 1.389 . S
C5317 C5318 1.524 . S
C5318 C5317 1.524 . S
C5318 C5319 1.397 . S
C5318 C5323 1.363 . S
C5319 H5290 0.950 . S
C5319 C5318 1.397 . S
C5319 C5320 1.334 . S
C5320 H5291 0.950 . S
C5320 C5319 1.334 . S
C5320 C5321 1.287 . S
C5321 C5320 1.287 . S
C5321 C5322 1.524 . S
C5321 H5324 0.999 . S
C5322 H5292 0.950 . S
C5322 C5321 1.524 . S
C5322 C5323 1.415 . S
C5323 H5293 0.950 . S
C5323 C5318 1.363 . S
C5323 C5322 1.415 . S
H5324 C5321 0.999 . S
H5325 C5306 0.913 . S
H5326 C5344 0.951 . S
H5327 C5346 0.951 . S
H5328 C5348 0.950 . S
H5329 C5349 0.950 . S
H5330 C5351 0.950 . S
H5331 C5354 0.950 . S
H5332 C5355 0.950 . S
H5333 C5357 0.950 . S
H5334 C5358 0.950 . S
H5335 C5359 0.951 . S
H5336 C5361 0.951 . S
H5337 C5363 0.950 . S
H5338 C5364 0.950 . S
H5339 C5366 0.950 . S
H5340 C5369 0.950 . S
H5341 C5370 0.950 . S
H5342 C5372 0.950 . S
H5343 C5373 0.950 . S
C5344 H5326 0.951 . S
C5344 C5345 1.366 . S
C5344 C5346 1.388 . S
C5345 C5344 1.366 . S
C5345 C5349 1.385 . S
C5346 H5327 0.951 . S
C5346 C5344 1.388 . S
C5346 C5347 1.366 . S
C5347 C5346 1.366 . S
C5347 C5348 1.414 . S
C5347 C5350 1.499 . S
C5348 H5328 0.950 . S
C5348 C5347 1.414 . S
C5348 C5349 1.374 . S
C5349 H5329 0.950 . S
C5349 C5345 1.385 . S
C5349 C5348 1.374 . S
C5350 C5347 1.499 . S
C5350 C5351 1.373 . S
C5350 C5352 1.389 . S
C5351 H5330 0.950 . S
C5351 C5350 1.373 . S
C5351 C5367 1.377 . S
C5352 C5350 1.389 . S
C5352 C5353 1.524 . S
C5352 C5366 1.377 . S
C5353 C5352 1.524 . S
C5353 C5354 1.397 . S
C5353 C5358 1.363 . S
C5354 H5331 0.950 . S
C5354 C5353 1.397 . S
C5354 C5355 1.334 . S
C5355 H5332 0.950 . S
C5355 C5354 1.334 . S
C5355 C5356 1.287 . S
C5356 C5355 1.287 . S
C5356 C5357 1.524 . S
C5356 H5375 0.913 . S
C5357 H5333 0.950 . S
C5357 C5356 1.524 . S
C5357 C5358 1.415 . S
C5358 H5334 0.950 . S
C5358 C5353 1.363 . S
C5358 C5357 1.415 . S
C5359 H5335 0.951 . S
C5359 C5360 1.366 . S
C5359 C5361 1.388 . S
C5360 C5359 1.366 . S
C5360 C5364 1.385 . S
C5361 H5336 0.951 . S
C5361 C5359 1.388 . S
C5361 C5362 1.366 . S
C5362 C5361 1.366 . S
C5362 C5363 1.414 . S
C5362 C5365 1.499 . S
C5363 H5337 0.950 . S
C5363 C5362 1.414 . S
C5363 C5364 1.374 . S
C5364 H5338 0.950 . S
C5364 C5360 1.385 . S
C5364 C5363 1.374 . S
C5365 C5362 1.499 . S
C5365 C5366 1.373 . S
C5365 C5367 1.389 . S
C5366 H5339 0.950 . S
C5366 C5352 1.377 . S
C5366 C5365 1.373 . S
C5367 C5351 1.377 . S
C5367 C5365 1.389 . S
C5367 C5368 1.524 . S
C5368 C5367 1.524 . S
C5368 C5369 1.397 . S
C5368 C5373 1.363 . S
C5369 H5340 0.950 . S
C5369 C5368 1.397 . S
C5369 C5370 1.334 . S
C5370 H5341 0.950 . S
C5370 C5369 1.334 . S
C5370 C5371 1.287 . S
C5371 C5370 1.287 . S
C5371 C5372 1.524 . S
C5371 H5374 0.999 . S
C5372 H5342 0.950 . S
C5372 C5371 1.524 . S
C5372 C5373 1.415 . S
C5373 H5343 0.950 . S
C5373 C5368 1.363 . S
C5373 C5372 1.415 . S
H5374 C5371 0.999 . S
H5375 C5356 0.913 . S
H5376 C5394 0.951 . S
H5377 C5396 0.951 . S
H5378 C5398 0.950 . S
H5379 C5399 0.950 . S
H5380 C5401 0.950 . S
H5381 C5404 0.950 . S
H5382 C5405 0.950 . S
H5383 C5407 0.950 . S
H5384 C5408 0.950 . S
H5385 C5409 0.951 . S
H5386 C5411 0.951 . S
H5387 C5413 0.950 . S
H5388 C5414 0.950 . S
H5389 C5416 0.950 . S
H5390 C5419 0.950 . S
H5391 C5420 0.950 . S
H5392 C5422 0.950 . S
H5393 C5423 0.950 . S
C5394 H5376 0.951 . S
C5394 C5395 1.366 . S
C5394 C5396 1.388 . S
C5395 C5394 1.366 . S
C5395 C5399 1.385 . S
C5396 H5377 0.951 . S
C5396 C5394 1.388 . S
C5396 C5397 1.366 . S
C5397 C5396 1.366 . S
C5397 C5398 1.414 . S
C5397 C5400 1.499 . S
C5398 H5378 0.950 . S
C5398 C5397 1.414 . S
C5398 C5399 1.374 . S
C5399 H5379 0.950 . S
C5399 C5395 1.385 . S
C5399 C5398 1.374 . S
C5400 C5397 1.499 . S
C5400 C5401 1.373 . S
C5400 C5402 1.389 . S
C5401 H5380 0.950 . S
C5401 C5400 1.373 . S
C5401 C5417 1.377 . S
C5402 C5400 1.389 . S
C5402 C5403 1.524 . S
C5402 C5416 1.377 . S
C5403 C5402 1.524 . S
C5403 C5404 1.397 . S
C5403 C5408 1.363 . S
C5404 H5381 0.950 . S
C5404 C5403 1.397 . S
C5404 C5405 1.334 . S
C5405 H5382 0.950 . S
C5405 C5404 1.334 . S
C5405 C5406 1.287 . S
C5406 C5405 1.287 . S
C5406 C5407 1.524 . S
C5406 H5425 0.913 . S
C5407 H5383 0.950 . S
C5407 C5406 1.524 . S
C5407 C5408 1.415 . S
C5408 H5384 0.950 . S
C5408 C5403 1.363 . S
C5408 C5407 1.415 . S
C5409 H5385 0.951 . S
C5409 C5410 1.366 . S
C5409 C5411 1.388 . S
C5410 C5409 1.366 . S
C5410 C5414 1.385 . S
C5411 H5386 0.951 . S
C5411 C5409 1.388 . S
C5411 C5412 1.366 . S
C5412 C5411 1.366 . S
C5412 C5413 1.414 . S
C5412 C5415 1.499 . S
C5413 H5387 0.950 . S
C5413 C5412 1.414 . S
C5413 C5414 1.374 . S
C5414 H5388 0.950 . S
C5414 C5410 1.385 . S
C5414 C5413 1.374 . S
C5415 C5412 1.499 . S
C5415 C5416 1.373 . S
C5415 C5417 1.389 . S
C5416 H5389 0.950 . S
C5416 C5402 1.377 . S
C5416 C5415 1.373 . S
C5417 C5401 1.377 . S
C5417 C5415 1.389 . S
C5417 C5418 1.524 . S
C5418 C5417 1.524 . S
C5418 C5419 1.397 . S
C5418 C5423 1.363 . S
C5419 H5390 0.950 . S
C5419 C5418 1.397 . S
C5419 C5420 1.334 . S
C5420 H5391 0.950 . S
C5420 C5419 1.334 . S
C5420 C5421 1.287 . S
C5421 C5420 1.287 . S
C5421 C5422 1.524 . S
C5421 H5424 0.999 . S
C5422 H5392 0.950 . S
C5422 C5421 1.524 . S
C5422 C5423 1.415 . S
C5423 H5393 0.950 . S
C5423 C5418 1.363 . S
C5423 C5422 1.415 . S
H5424 C5421 0.999 . S
H5425 C5406 0.913 . S
H5426 C5444 0.951 . S
H5427 C5446 0.951 . S
H5428 C5448 0.950 . S
H5429 C5449 0.950 . S
H5430 C5451 0.950 . S
H5431 C5454 0.950 . S
H5432 C5455 0.950 . S
H5433 C5457 0.950 . S
H5434 C5458 0.950 . S
H5435 C5459 0.951 . S
H5436 C5461 0.951 . S
H5437 C5463 0.950 . S
H5438 C5464 0.950 . S
H5439 C5466 0.950 . S
H5440 C5469 0.950 . S
H5441 C5470 0.950 . S
H5442 C5472 0.950 . S
H5443 C5473 0.950 . S
C5444 H5426 0.951 . S
C5444 C5445 1.366 . S
C5444 C5446 1.388 . S
C5445 C5444 1.366 . S
C5445 C5449 1.385 . S
C5446 H5427 0.951 . S
C5446 C5444 1.388 . S
C5446 C5447 1.366 . S
C5447 C5446 1.366 . S
C5447 C5448 1.414 . S
C5447 C5450 1.499 . S
C5448 H5428 0.950 . S
C5448 C5447 1.414 . S
C5448 C5449 1.374 . S
C5449 H5429 0.950 . S
C5449 C5445 1.385 . S
C5449 C5448 1.374 . S
C5450 C5447 1.499 . S
C5450 C5451 1.373 . S
C5450 C5452 1.389 . S
C5451 H5430 0.950 . S
C5451 C5450 1.373 . S
C5451 C5467 1.377 . S
C5452 C5450 1.389 . S
C5452 C5453 1.524 . S
C5452 C5466 1.377 . S
C5453 C5452 1.524 . S
C5453 C5454 1.397 . S
C5453 C5458 1.363 . S
C5454 H5431 0.950 . S
C5454 C5453 1.397 . S
C5454 C5455 1.334 . S
C5455 H5432 0.950 . S
C5455 C5454 1.334 . S
C5455 C5456 1.287 . S
C5456 C5455 1.287 . S
C5456 C5457 1.524 . S
C5456 H5475 0.913 . S
C5457 H5433 0.950 . S
C5457 C5456 1.524 . S
C5457 C5458 1.415 . S
C5458 H5434 0.950 . S
C5458 C5453 1.363 . S
C5458 C5457 1.415 . S
C5459 H5435 0.951 . S
C5459 C5460 1.386 . S
C5459 C5461 1.388 1_545 S
C5460 C5459 1.386 . S
C5460 C5464 1.346 1_545 S
C5461 H5436 0.951 . S
C5461 C5459 1.388 1_565 S
C5461 C5462 1.366 . S
C5462 C5461 1.366 . S
C5462 C5463 1.414 . S
C5462 C5465 1.499 . S
C5463 H5437 0.950 . S
C5463 C5462 1.414 . S
C5463 C5464 1.374 . S
C5464 H5438 0.950 . S
C5464 C5460 1.346 1_565 S
C5464 C5463 1.374 . S
C5465 C5462 1.499 . S
C5465 C5466 1.373 . S
C5465 C5467 1.389 . S
C5466 H5439 0.950 . S
C5466 C5452 1.377 . S
C5466 C5465 1.373 . S
C5467 C5451 1.377 . S
C5467 C5465 1.389 . S
C5467 C5468 1.524 . S
C5468 C5467 1.524 . S
C5468 C5469 1.397 . S
C5468 C5473 1.363 . S
C5469 H5440 0.950 . S
C5469 C5468 1.397 . S
C5469 C5470 1.334 . S
C5470 H5441 0.950 . S
C5470 C5469 1.334 . S
C5470 C5471 1.287 . S
C5471 C5470 1.287 . S
C5471 C5472 1.524 . S
C5471 H5474 0.999 . S
C5472 H5442 0.950 . S
C5472 C5471 1.524 . S
C5472 C5473 1.415 . S
C5473 H5443 0.950 . S
C5473 C5468 1.363 . S
C5473 C5472 1.415 . S
H5474 C5471 0.999 . S
H5475 C5456 0.913 . S
H5476 C5494 0.951 . S
H5477 C5496 0.951 . S
H5478 C5498 0.950 . S
H5479 C5499 0.950 . S
H5480 C5501 0.950 . S
H5481 C5504 0.950 . S
H5482 C5505 0.950 . S
H5483 C5507 0.950 . S
H5484 C5508 0.950 . S
H5485 C5509 0.951 . S
H5486 C5511 0.951 . S
H5487 C5513 0.950 . S
H5488 C5514 0.950 . S
H5489 C5516 0.950 . S
H5490 C5519 0.950 . S
H5491 C5520 0.950 . S
H5492 C5522 0.950 . S
H5493 C5523 0.950 . S
C5494 H5476 0.951 . S
C5494 C5495 1.366 . S
C5494 C5496 1.388 . S
C5495 C5494 1.366 . S
C5495 C5499 1.385 . S
C5496 H5477 0.951 . S
C5496 C5494 1.388 . S
C5496 C5497 1.366 . S
C5497 C5496 1.366 . S
C5497 C5498 1.414 . S
C5497 C5500 1.499 . S
C5498 H5478 0.950 . S
C5498 C5497 1.414 . S
C5498 C5499 1.374 . S
C5499 H5479 0.950 . S
C5499 C5495 1.385 . S
C5499 C5498 1.374 . S
C5500 C5497 1.499 . S
C5500 C5501 1.373 . S
C5500 C5502 1.389 . S
C5501 H5480 0.950 . S
C5501 C5500 1.373 . S
C5501 C5517 1.377 . S
C5502 C5500 1.389 . S
C5502 C5503 1.524 . S
C5502 C5516 1.377 . S
C5503 C5502 1.524 . S
C5503 C5504 1.397 . S
C5503 C5508 1.363 . S
C5504 H5481 0.950 . S
C5504 C5503 1.397 . S
C5504 C5505 1.334 . S
C5505 H5482 0.950 . S
C5505 C5504 1.334 . S
C5505 C5506 1.287 . S
C5506 C5505 1.287 . S
C5506 C5507 1.524 . S
C5506 H5525 0.913 . S
C5507 H5483 0.950 . S
C5507 C5506 1.524 . S
C5507 C5508 1.415 . S
C5508 H5484 0.950 . S
C5508 C5503 1.363 . S
C5508 C5507 1.415 . S
C5509 H5485 0.951 . S
C5509 C5510 1.366 . S
C5509 C5511 1.388 . S
C5510 C5509 1.366 . S
C5510 C5514 1.385 . S
C5511 H5486 0.951 . S
C5511 C5509 1.388 . S
C5511 C5512 1.366 . S
C5512 C5511 1.366 . S
C5512 C5513 1.414 . S
C5512 C5515 1.499 . S
C5513 H5487 0.950 . S
C5513 C5512 1.414 . S
C5513 C5514 1.374 . S
C5514 H5488 0.950 . S
C5514 C5510 1.385 . S
C5514 C5513 1.374 . S
C5515 C5512 1.499 . S
C5515 C5516 1.373 . S
C5515 C5517 1.389 . S
C5516 H5489 0.950 . S
C5516 C5502 1.377 . S
C5516 C5515 1.373 . S
C5517 C5501 1.377 . S
C5517 C5515 1.389 . S
C5517 C5518 1.524 . S
C5518 C5517 1.524 . S
C5518 C5519 1.397 . S
C5518 C5523 1.363 . S
C5519 H5490 0.950 . S
C5519 C5518 1.397 . S
C5519 C5520 1.334 . S
C5520 H5491 0.950 . S
C5520 C5519 1.334 . S
C5520 C5521 1.287 . S
C5521 C5520 1.287 . S
C5521 C5522 1.524 . S
C5521 H5524 0.999 . S
C5522 H5492 0.950 . S
C5522 C5521 1.524 . S
C5522 C5523 1.415 . S
C5523 H5493 0.950 . S
C5523 C5518 1.363 . S
C5523 C5522 1.415 . S
H5524 C5521 0.999 . S
H5525 C5506 0.913 . S
H5526 C5544 0.951 . S
H5527 C5546 0.951 . S
H5528 C5548 0.950 . S
H5529 C5549 0.950 . S
H5530 C5551 0.950 . S
H5531 C5554 0.950 . S
H5532 C5555 0.950 . S
H5533 C5557 0.950 . S
H5534 C5558 0.950 . S
H5535 C5559 0.951 . S
H5536 C5561 0.951 . S
H5537 C5563 0.950 . S
H5538 C5564 0.950 . S
H5539 C5566 0.950 . S
H5540 C5569 0.950 . S
H5541 C5570 0.950 . S
H5542 C5572 0.950 . S
H5543 C5573 0.950 . S
C5544 H5526 0.951 . S
C5544 C5545 1.366 . S
C5544 C5546 1.388 . S
C5545 C5544 1.366 . S
C5545 C5549 1.385 . S
C5546 H5527 0.951 . S
C5546 C5544 1.388 . S
C5546 C5547 1.366 . S
C5547 C5546 1.366 . S
C5547 C5548 1.414 . S
C5547 C5550 1.499 . S
C5548 H5528 0.950 . S
C5548 C5547 1.414 . S
C5548 C5549 1.374 . S
C5549 H5529 0.950 . S
C5549 C5545 1.385 . S
C5549 C5548 1.374 . S
C5550 C5547 1.499 . S
C5550 C5551 1.373 1_554 S
C5550 C5552 1.389 . S
C5551 H5530 0.950 . S
C5551 C5550 1.373 1_556 S
C5551 C5567 1.377 . S
C5552 C5550 1.389 . S
C5552 C5553 1.524 . S
C5552 C5566 1.377 . S
C5553 C5552 1.524 . S
C5553 C5554 1.397 . S
C5553 C5558 1.363 . S
C5554 H5531 0.950 . S
C5554 C5553 1.397 . S
C5554 C5555 1.334 . S
C5555 H5532 0.950 . S
C5555 C5554 1.334 . S
C5555 C5556 1.287 . S
C5556 C5555 1.287 . S
C5556 C5557 1.524 . S
C5556 H5575 0.913 . S
C5557 H5533 0.950 . S
C5557 C5556 1.524 . S
C5557 C5558 1.415 . S
C5558 H5534 0.950 . S
C5558 C5553 1.363 . S
C5558 C5557 1.415 . S
C5559 H5535 0.951 . S
C5559 C5560 1.366 . S
C5559 C5561 1.388 . S
C5560 C5559 1.366 . S
C5560 C5564 1.385 . S
C5561 H5536 0.951 . S
C5561 C5559 1.388 . S
C5561 C5562 1.366 . S
C5562 C5561 1.366 . S
C5562 C5563 1.414 . S
C5562 C5565 1.499 . S
C5563 H5537 0.950 . S
C5563 C5562 1.414 . S
C5563 C5564 1.374 . S
C5564 H5538 0.950 . S
C5564 C5560 1.385 . S
C5564 C5563 1.374 . S
C5565 C5562 1.499 . S
C5565 C5566 1.373 . S
C5565 C5567 1.389 1_554 S
C5566 H5539 0.950 . S
C5566 C5552 1.377 . S
C5566 C5565 1.373 . S
C5567 C5551 1.377 . S
C5567 C5565 1.389 1_556 S
C5567 C5568 1.524 . S
C5568 C5567 1.524 . S
C5568 C5569 1.397 . S
C5568 C5573 1.363 . S
C5569 H5540 0.950 . S
C5569 C5568 1.397 . S
C5569 C5570 1.334 . S
C5570 H5541 0.950 . S
C5570 C5569 1.334 . S
C5570 C5571 1.287 . S
C5571 C5570 1.287 . S
C5571 C5572 1.524 . S
C5571 H5574 0.999 . S
C5572 H5542 0.950 . S
C5572 C5571 1.524 . S
C5572 C5573 1.415 . S
C5573 H5543 0.950 . S
C5573 C5568 1.363 . S
C5573 C5572 1.415 . S
H5574 C5571 0.999 . S
H5575 C5556 0.913 . S
H5576 C5594 0.951 . S
H5577 C5596 0.951 . S
H5578 C5598 0.950 . S
H5579 C5599 0.950 . S
H5580 C5601 0.950 . S
H5581 C5604 0.950 . S
H5582 C5605 0.950 . S
H5583 C5607 0.950 . S
H5584 C5608 0.950 . S
H5585 C5609 0.951 . S
H5586 C5611 0.951 . S
H5587 C5613 0.950 . S
H5588 C5614 0.950 . S
H5589 C5616 0.950 . S
H5590 C5619 0.950 . S
H5591 C5620 0.950 . S
H5592 C5622 0.950 . S
H5593 C5623 0.950 . S
C5594 H5576 0.951 . S
C5594 C5595 1.366 . S
C5594 C5596 1.388 . S
C5595 C5594 1.366 . S
C5595 C5599 1.385 . S
C5596 H5577 0.951 . S
C5596 C5594 1.388 . S
C5596 C5597 1.366 . S
C5597 C5596 1.366 . S
C5597 C5598 1.414 . S
C5597 C5600 1.499 . S
C5598 H5578 0.950 . S
C5598 C5597 1.414 . S
C5598 C5599 1.374 . S
C5599 H5579 0.950 . S
C5599 C5595 1.385 . S
C5599 C5598 1.374 . S
C5600 C5597 1.499 . S
C5600 C5601 1.373 . S
C5600 C5602 1.389 . S
C5601 H5580 0.950 . S
C5601 C5600 1.373 . S
C5601 C5617 1.377 . S
C5602 C5600 1.389 . S
C5602 C5603 1.524 . S
C5602 C5616 1.377 . S
C5603 C5602 1.524 . S
C5603 C5604 1.397 . S
C5603 C5608 1.363 . S
C5604 H5581 0.950 . S
C5604 C5603 1.397 . S
C5604 C5605 1.334 . S
C5605 H5582 0.950 . S
C5605 C5604 1.334 . S
C5605 C5606 1.287 . S
C5606 C5605 1.287 . S
C5606 C5607 1.524 . S
C5606 H5625 0.913 . S
C5607 H5583 0.950 . S
C5607 C5606 1.524 . S
C5607 C5608 1.415 . S
C5608 H5584 0.950 . S
C5608 C5603 1.363 . S
C5608 C5607 1.415 . S
C5609 H5585 0.951 . S
C5609 C5610 1.366 . S
C5609 C5611 1.388 . S
C5610 C5609 1.366 . S
C5610 C5614 1.385 . S
C5611 H5586 0.951 . S
C5611 C5609 1.388 . S
C5611 C5612 1.366 . S
C5612 C5611 1.366 . S
C5612 C5613 1.414 . S
C5612 C5615 1.499 . S
C5613 H5587 0.950 . S
C5613 C5612 1.414 . S
C5613 C5614 1.374 . S
C5614 H5588 0.950 . S
C5614 C5610 1.385 . S
C5614 C5613 1.374 . S
C5615 C5612 1.499 . S
C5615 C5616 1.373 . S
C5615 C5617 1.389 . S
C5616 H5589 0.950 . S
C5616 C5602 1.377 . S
C5616 C5615 1.373 . S
C5617 C5601 1.377 . S
C5617 C5615 1.389 . S
C5617 C5618 1.524 . S
C5618 C5617 1.524 . S
C5618 C5619 1.397 . S
C5618 C5623 1.363 . S
C5619 H5590 0.950 . S
C5619 C5618 1.397 . S
C5619 C5620 1.334 . S
C5620 H5591 0.950 . S
C5620 C5619 1.334 . S
C5620 C5621 1.287 . S
C5621 C5620 1.287 . S
C5621 C5622 1.524 . S
C5621 H5624 0.999 . S
C5622 H5592 0.950 . S
C5622 C5621 1.524 . S
C5622 C5623 1.415 . S
C5623 H5593 0.950 . S
C5623 C5618 1.363 . S
C5623 C5622 1.415 . S
H5624 C5621 0.999 . S
H5625 C5606 0.913 . S
H5626 C5644 0.951 . S
H5627 C5646 0.951 . S
H5628 C5648 0.950 . S
H5629 C5649 0.950 . S
H5630 C5651 0.950 . S
H5631 C5654 0.950 . S
H5632 C5655 0.950 . S
H5633 C5657 0.950 . S
H5634 C5658 0.950 . S
H5635 C5659 0.951 . S
H5636 C5661 0.951 . S
H5637 C5663 0.950 . S
H5638 C5664 0.950 . S
H5639 C5666 0.950 . S
H5640 C5669 0.950 . S
H5641 C5670 0.950 . S
H5642 C5672 0.950 . S
H5643 C5673 0.950 . S
C5644 H5626 0.951 . S
C5644 C5645 1.366 . S
C5644 C5646 1.388 . S
C5645 C5644 1.366 . S
C5645 C5649 1.385 . S
C5646 H5627 0.951 . S
C5646 C5644 1.388 . S
C5646 C5647 1.366 . S
C5647 C5646 1.366 . S
C5647 C5648 1.414 . S
C5647 C5650 1.499 . S
C5648 H5628 0.950 . S
C5648 C5647 1.414 . S
C5648 C5649 1.374 . S
C5649 H5629 0.950 . S
C5649 C5645 1.385 . S
C5649 C5648 1.374 . S
C5650 C5647 1.499 . S
C5650 C5651 1.373 . S
C5650 C5652 1.389 1_554 S
C5651 H5630 0.950 . S
C5651 C5650 1.373 . S
C5651 C5667 1.377 . S
C5652 C5650 1.389 1_556 S
C5652 C5653 1.524 . S
C5652 C5666 1.377 . S
C5653 C5652 1.524 . S
C5653 C5654 1.397 . S
C5653 C5658 1.363 . S
C5654 H5631 0.950 . S
C5654 C5653 1.397 . S
C5654 C5655 1.334 . S
C5655 H5632 0.950 . S
C5655 C5654 1.334 . S
C5655 C5656 1.287 . S
C5656 C5655 1.287 . S
C5656 C5657 1.524 . S
C5656 H5675 0.913 . S
C5657 H5633 0.950 . S
C5657 C5656 1.524 . S
C5657 C5658 1.415 . S
C5658 H5634 0.950 . S
C5658 C5653 1.363 . S
C5658 C5657 1.415 . S
C5659 H5635 0.951 . S
C5659 C5660 1.366 . S
C5659 C5661 1.388 . S
C5660 C5659 1.366 . S
C5660 C5664 1.385 . S
C5661 H5636 0.951 . S
C5661 C5659 1.388 . S
C5661 C5662 1.366 . S
C5662 C5661 1.366 . S
C5662 C5663 1.414 . S
C5662 C5665 1.499 . S
C5663 H5637 0.950 . S
C5663 C5662 1.414 . S
C5663 C5664 1.374 . S
C5664 H5638 0.950 . S
C5664 C5660 1.385 . S
C5664 C5663 1.374 . S
C5665 C5662 1.499 . S
C5665 C5666 1.373 . S
C5665 C5667 1.389 1_556 S
C5666 H5639 0.950 . S
C5666 C5652 1.377 . S
C5666 C5665 1.373 . S
C5667 C5651 1.377 . S
C5667 C5665 1.389 1_554 S
C5667 C5668 1.524 . S
C5668 C5667 1.524 . S
C5668 C5669 1.397 . S
C5668 C5673 1.363 . S
C5669 H5640 0.950 . S
C5669 C5668 1.397 . S
C5669 C5670 1.334 . S
C5670 H5641 0.950 . S
C5670 C5669 1.334 . S
C5670 C5671 1.287 . S
C5671 C5670 1.287 . S
C5671 C5672 1.524 . S
C5671 H5674 0.999 . S
C5672 H5642 0.950 . S
C5672 C5671 1.524 . S
C5672 C5673 1.415 . S
C5673 H5643 0.950 . S
C5673 C5668 1.363 . S
C5673 C5672 1.415 . S
H5674 C5671 0.999 . S
H5675 C5656 0.913 . S
H5676 C5694 0.951 . S
H5677 C5696 0.951 . S
H5678 C5698 0.950 . S
H5679 C5699 0.950 . S
H5680 C5701 0.950 . S
H5681 C5704 0.950 . S
H5682 C5705 0.950 . S
H5683 C5707 0.950 . S
H5684 C5708 0.950 . S
H5685 C5709 0.951 . S
H5686 C5711 0.951 . S
H5687 C5713 0.950 . S
H5688 C5714 0.950 . S
H5689 C5716 0.950 . S
H5690 C5719 0.950 . S
H5691 C5720 0.950 . S
H5692 C5722 0.950 . S
H5693 C5723 0.950 . S
C5694 H5676 0.951 . S
C5694 C5695 1.366 . S
C5694 C5696 1.388 . S
C5695 C5694 1.366 . S
C5695 C5699 1.385 . S
C5696 H5677 0.951 . S
C5696 C5694 1.388 . S
C5696 C5697 1.366 . S
C5697 C5696 1.366 . S
C5697 C5698 1.414 . S
C5697 C5700 1.499 . S
C5698 H5678 0.950 . S
C5698 C5697 1.414 . S
C5698 C5699 1.374 . S
C5699 H5679 0.950 . S
C5699 C5695 1.385 . S
C5699 C5698 1.374 . S
C5700 C5697 1.499 . S
C5700 C5701 1.373 . S
C5700 C5702 1.389 . S
C5701 H5680 0.950 . S
C5701 C5700 1.373 . S
C5701 C5717 1.377 . S
C5702 C5700 1.389 . S
C5702 C5703 1.524 . S
C5702 C5716 1.377 . S
C5703 C5702 1.524 . S
C5703 C5704 1.397 . S
C5703 C5708 1.363 . S
C5704 H5681 0.950 . S
C5704 C5703 1.397 . S
C5704 C5705 1.334 . S
C5705 H5682 0.950 . S
C5705 C5704 1.334 . S
C5705 C5706 1.287 . S
C5706 C5705 1.287 . S
C5706 C5707 1.524 . S
C5706 H5725 0.913 . S
C5707 H5683 0.950 . S
C5707 C5706 1.524 . S
C5707 C5708 1.415 . S
C5708 H5684 0.950 . S
C5708 C5703 1.363 . S
C5708 C5707 1.415 . S
C5709 H5685 0.951 . S
C5709 C5710 1.366 . S
C5709 C5711 1.388 . S
C5710 C5709 1.366 . S
C5710 C5714 1.385 . S
C5711 H5686 0.951 . S
C5711 C5709 1.388 . S
C5711 C5712 1.366 . S
C5712 C5711 1.366 . S
C5712 C5713 1.414 . S
C5712 C5715 1.499 . S
C5713 H5687 0.950 . S
C5713 C5712 1.414 . S
C5713 C5714 1.374 . S
C5714 H5688 0.950 . S
C5714 C5710 1.385 . S
C5714 C5713 1.374 . S
C5715 C5712 1.499 . S
C5715 C5716 1.373 . S
C5715 C5717 1.389 . S
C5716 H5689 0.950 . S
C5716 C5702 1.377 . S
C5716 C5715 1.373 . S
C5717 C5701 1.377 . S
C5717 C5715 1.389 . S
C5717 C5718 1.524 . S
C5718 C5717 1.524 . S
C5718 C5719 1.397 . S
C5718 C5723 1.363 . S
C5719 H5690 0.950 . S
C5719 C5718 1.397 . S
C5719 C5720 1.334 . S
C5720 H5691 0.950 . S
C5720 C5719 1.334 . S
C5720 C5721 1.287 . S
C5721 C5720 1.287 . S
C5721 C5722 1.524 . S
C5721 H5724 0.999 . S
C5722 H5692 0.950 . S
C5722 C5721 1.524 . S
C5722 C5723 1.415 . S
C5723 H5693 0.950 . S
C5723 C5718 1.363 . S
C5723 C5722 1.415 . S
H5724 C5721 0.999 . S
H5725 C5706 0.913 . S
H5726 C5744 0.951 . S
H5727 C5746 0.951 . S
H5728 C5748 0.950 . S
H5729 C5749 0.950 . S
H5730 C5751 0.950 . S
H5731 C5754 0.950 . S
H5732 C5755 0.950 . S
H5733 C5757 0.950 . S
H5734 C5758 0.950 . S
H5735 C5759 0.951 . S
H5736 C5761 0.951 . S
H5737 C5763 0.950 . S
H5738 C5764 0.950 . S
H5739 C5766 0.950 . S
H5740 C5769 0.950 . S
H5741 C5770 0.950 . S
H5742 C5772 0.950 . S
H5743 C5773 0.950 . S
C5744 H5726 0.951 . S
C5744 C5745 1.366 . S
C5744 C5746 1.388 . S
C5745 C5744 1.366 . S
C5745 C5749 1.385 . S
C5746 H5727 0.951 . S
C5746 C5744 1.388 . S
C5746 C5747 1.366 . S
C5747 C5746 1.366 . S
C5747 C5748 1.414 . S
C5747 C5750 1.499 . S
C5748 H5728 0.950 . S
C5748 C5747 1.414 . S
C5748 C5749 1.374 . S
C5749 H5729 0.950 . S
C5749 C5745 1.385 . S
C5749 C5748 1.374 . S
C5750 C5747 1.499 . S
C5750 C5751 1.373 . S
C5750 C5752 1.389 . S
C5751 H5730 0.950 . S
C5751 C5750 1.373 . S
C5751 C5767 1.377 . S
C5752 C5750 1.389 . S
C5752 C5753 1.524 . S
C5752 C5766 1.377 . S
C5753 C5752 1.524 . S
C5753 C5754 1.397 . S
C5753 C5758 1.363 . S
C5754 H5731 0.950 . S
C5754 C5753 1.397 . S
C5754 C5755 1.334 . S
C5755 H5732 0.950 . S
C5755 C5754 1.334 . S
C5755 C5756 1.287 . S
C5756 C5755 1.287 . S
C5756 C5757 1.524 . S
C5756 H5775 0.913 . S
C5757 H5733 0.950 . S
C5757 C5756 1.524 . S
C5757 C5758 1.415 . S
C5758 H5734 0.950 . S
C5758 C5753 1.363 . S
C5758 C5757 1.415 . S
C5759 H5735 0.951 . S
C5759 C5760 1.366 . S
C5759 C5761 1.388 . S
C5760 C5759 1.366 . S
C5760 C5764 1.385 . S
C5761 H5736 0.951 . S
C5761 C5759 1.388 . S
C5761 C5762 1.366 . S
C5762 C5761 1.366 . S
C5762 C5763 1.414 . S
C5762 C5765 1.499 . S
C5763 H5737 0.950 . S
C5763 C5762 1.414 . S
C5763 C5764 1.374 . S
C5764 H5738 0.950 . S
C5764 C5760 1.385 . S
C5764 C5763 1.374 . S
C5765 C5762 1.499 . S
C5765 C5766 1.373 . S
C5765 C5767 1.389 . S
C5766 H5739 0.950 . S
C5766 C5752 1.377 . S
C5766 C5765 1.373 . S
C5767 C5751 1.377 . S
C5767 C5765 1.389 . S
C5767 C5768 1.524 . S
C5768 C5767 1.524 . S
C5768 C5769 1.397 . S
C5768 C5773 1.363 . S
C5769 H5740 0.950 . S
C5769 C5768 1.397 . S
C5769 C5770 1.334 . S
C5770 H5741 0.950 . S
C5770 C5769 1.334 . S
C5770 C5771 1.287 . S
C5771 C5770 1.287 . S
C5771 C5772 1.524 . S
C5771 H5774 0.999 . S
C5772 H5742 0.950 . S
C5772 C5771 1.524 . S
C5772 C5773 1.415 . S
C5773 H5743 0.950 . S
C5773 C5768 1.363 . S
C5773 C5772 1.415 . S
H5774 C5771 0.999 . S
H5775 C5756 0.913 . S
C995 C105 2.192 . S
C1010 C338 2.168 1_556 S
C1045 C65 2.118 . S
C1060 C395 2.113 . S
C1095 C73 1.059 . S
C1110 C418 1.047 . S
C1160 C472 1.438 . S
C1145 C92 1.453 . S
C1195 C17 1.298 . S
C1210 C512 1.264 . S
C1260 C543 0.361 . S
C1245 C37 0.351 . S
C1310 C595 1.155 . S
C1295 C49 1.081 . S
C1345 C8 1.714 . S
C1360 C618 1.668 . S
C1410 C355 2.420 . S
C1395 C231 2.377 . S
C1445 C241 0.257 . S
C1460 C392 0.390 . S
C1510 C435 1.361 . S
C1495 C273 1.331 . S
C1560 C458 1.190 . S
C1545 C171 1.196 . S
C1595 C227 1.761 . S
C1610 C498 1.743 . S
C1660 C546 1.450 . S
C1645 C245 1.439 . S
C1710 C592 0.316 . S
C1695 C269 0.126 . S
C1760 C635 1.946 . S
C1745 C175 1.943 . S
C1810 C352 1.445 1_565 S
C1795 C162 1.483 . S
C1845 C289 2.048 . S
C1860 C675 2.043 . S
C1910 C707 2.588 . S
C1895 C330 2.612 . S
C1960 C738 0.460 1_655 S
C1945 C317 0.520 . S
C1995 C120 1.258 . S
C2010 C632 1.229 . S
C2045 C134 1.542 . S
C2060 C432 1.518 . S
C2095 C331 2.312 . S
C2110 C795 2.297 . S
C2160 C818 0.447 . S
C2145 C303 0.375 . S
C2210 C347 2.189 . S
C2195 C59 2.205 . S
C2260 C826 2.165 . S
C2245 C107 2.163 . S
C2295 C91 1.116 . S
C2310 C427 1.116 . S
C2345 C78 1.488 . S
C2360 C783 1.477 . S
C2410 C503 1.284 . S
C2395 C7 1.259 . S
C2445 C51 0.380 . S
C2460 C712 0.386 . S
C2510 C586 1.265 . S
C2495 C31 1.219 . S
C2560 C867 1.688 . S
C2545 C22 1.726 . S
C2610 C346 2.456 . S
C2595 C143 2.473 . S
C2660 C823 0.394 . S
C2645 C315 0.427 . S
C2695 C115 1.415 . S
C2710 C426 1.403 . S
C2745 C287 1.240 . S
C2760 C787 1.251 . S
C2795 C147 1.729 . S
C2810 C507 1.791 . S
C2860 C715 1.474 . S
C2845 C311 1.507 . S
C2895 C119 0.352 . S
C2910 C583 0.318 . S
C2945 C283 1.998 . S
C2960 C866 1.980 . S
C2995 C190 1.488 . S
C3010 C343 1.460 . S
C3045 C177 2.089 . S
C3060 C666 2.089 . S
C3095 C260 2.644 . S
C3110 C538 2.620 . S
C3145 C247 0.598 . S
C3160 C747 0.594 . S
C3210 C863 1.227 . S
C3195 C274 1.242 . S
C3245 C218 1.548 . S
C3260 C423 1.536 . S
C3310 C466 2.345 . S
C3295 C261 2.356 . S
C3360 C387 0.480 . S
C3345 C205 0.430 . S
C3395 C77 2.192 . S
C3410 C898 2.168 . S
C3460 C835 2.113 . S
C3445 C93 2.118 . S
C3495 C101 1.058 . S
C3510 C938 1.047 . S
C3545 C64 1.453 . S
C3560 C792 1.438 . S
C3595 C45 1.298 . S
C3610 C672 1.262 . S
C3660 C703 0.361 . S
C3645 C9 0.351 . S
C3710 C755 1.156 . S
C3695 C21 1.080 . S
C3760 C858 1.668 . S
C3745 C36 1.714 . S
C3810 C915 2.420 . S
C3795 C259 2.377 . S
C3845 C185 0.256 . S
C3860 C832 0.386 . S
C3910 C955 1.362 . S
C3895 C203 1.330 . S
C3960 C778 1.190 . S
C3945 C213 1.197 . S
C4010 C658 1.743 . S
C3995 C255 1.761 . S
C4045 C189 1.440 . S
C4060 C706 1.450 . S
C4110 C752 0.318 . S
C4095 C199 0.126 . S
C4145 C217 1.943 . S
C4160 C875 1.945 . S
C4210 C912 1.444 . S
C4195 C316 1.483 . S
C4245 C135 2.048 . S
C4260 C515 2.043 . S
C4310 C547 2.588 . S
C4295 C148 2.619 . S
C4360 C578 0.514 . S
C4345 C163 0.520 . S
C4410 C872 1.229 . S
C4395 C302 1.258 . S
C4445 C288 1.543 . S
C4460 C952 1.518 . S
C4510 C475 2.296 . S
C4495 C149 2.304 . S
C4560 C378 0.446 . S
C4545 C121 0.376 . S
C4595 C87 2.205 . S
C4610 C907 2.189 . S
C4660 C386 2.164 . S
C4645 C79 2.163 . S
C4695 C63 1.116 . S
C4710 C947 1.116 . S
C4745 C106 1.488 . S
C4760 C463 1.477 . S
C4795 C35 1.259 . S
C4810 C663 1.284 . S
C4860 C552 0.384 . S
C4845 C23 0.376 . S
C4895 C3 1.220 . S
C4910 C746 1.226 . S
C4945 C50 1.718 . S
C4960 C627 1.687 . S
C5010 C906 2.456 . S
C4995 C325 2.473 . S
C5045 C161 0.427 . S
C5060 C383 0.393 . S
C5110 C946 1.402 . S
C5095 C297 1.415 . S
C5145 C133 1.239 . S
C5160 C467 1.252 . S
C5195 C329 1.729 . S
C5210 C667 1.794 . S
C5260 C555 1.474 . S
C5245 C157 1.507 . S
C5295 C301 0.348 . S
C5310 C743 0.314 . S
C5360 C626 1.979 . S
C5345 C129 1.998 . S
C5410 C903 1.461 . S
C5395 C246 1.488 . S
C5460 C506 2.110 1_655 S
C5445 C219 2.089 . S
C5495 C232 2.644 . S
C5510 C698 2.620 . S
C5560 C587 0.594 . S
C5545 C191 0.598 . S
C5595 C204 1.243 . S
C5610 C623 1.228 . S
C5645 C176 1.548 . S
C5660 C943 1.536 . S
C5710 C786 2.346 . S
C5695 C233 2.356 1_565 S
C5760 C827 0.479 . S
C5745 C275 0.431 . S
