# Generated by pormake.
# Topology pth, (4,4)-cn, num edge types: 1
# Building blocks:
#     Node 0, Type 0, BuildingBlock: TATPOV_clean_sbu_0, # of connection points: 4
#     Node 1, Type 0, BuildingBlock: TATPOV_clean_sbu_0, # of connection points: 4
#     Node 2, Type 0, BuildingBlock: TATPOV_clean_sbu_0, # of connection points: 4
#     Node 3, Type 1, BuildingBlock: MUDLON_clean_sbu_0, # of connection points: 4
#     Node 4, Type 1, BuildingBlock: MUDLON_clean_sbu_0, # of connection points: 4
#     Node 5, Type 1, BuildingBlock: MUDLON_clean_sbu_0, # of connection points: 4
#     Edge 6, Type (0, 1), BuildingBlock: XUDNAN_clean_linker_2, # of connection points: 2
#     Edge 7, Type (0, 1), BuildingBlock: XUDNAN_clean_linker_2, # of connection points: 2
#     Edge 8, Type (0, 1), BuildingBlock: XUDNAN_clean_linker_2, # of connection points: 2
#     Edge 9, Type (0, 1), BuildingBlock: XUDNAN_clean_linker_2, # of connection points: 2
#     Edge 10, Type (0, 1), BuildingBlock: XUDNAN_clean_linker_2, # of connection points: 2
#     Edge 11, Type (0, 1), BuildingBlock: XUDNAN_clean_linker_2, # of connection points: 2
#     Edge 12, Type (0, 1), BuildingBlock: XUDNAN_clean_linker_2, # of connection points: 2
#     Edge 13, Type (0, 1), BuildingBlock: XUDNAN_clean_linker_2, # of connection points: 2
#     Edge 14, Type (0, 1), BuildingBlock: XUDNAN_clean_linker_2, # of connection points: 2
#     Edge 15, Type (0, 1), BuildingBlock: XUDNAN_clean_linker_2, # of connection points: 2
#     Edge 16, Type (0, 1), BuildingBlock: XUDNAN_clean_linker_2, # of connection points: 2
#     Edge 17, Type (0, 1), BuildingBlock: XUDNAN_clean_linker_2, # of connection points: 2
# Relax obj value: 0.072
# Max RMSD: 0.185
# Mean RMSD: 0.119
data_MOF--net-pth--node1-TATPOV_clean_sbu_0--node2-MUDLON_clean_sbu_0--edge1-XUDNAN_clean_linker_2
_symmetry_space_group_name_H-M    P1
_symmetry_Int_Tables_number       1
_symmetry_cell_setting            triclinic
loop_
_symmetry_equiv_pos_as_xyz
'x, y, z'
_cell_length_a     22.786502
_cell_length_b     22.609405
_cell_length_c     58.791669
_cell_angle_alpha  92.968481
_cell_angle_beta   91.378251
_cell_angle_gamma 120.68708
loop_
_atom_site_label
_atom_site_type_symbol
_atom_site_fract_x
_atom_site_fract_y
_atom_site_fract_z
_atom_type_partial_charge
Zn0 Zn 0.16315 0.02771 0.05455 0.0
Zn1 Zn 0.15324 0.12535 0.07787 0.0
O2 O 0.17215 0.0715 0.10226 0.0
O3 O 0.18282 0.99283 0.08233 0.0
O4 O 0.13628 0.19066 0.09796 0.0
O5 O 0.24125 0.10176 0.03881 0.0
O6 O 0.23475 0.18468 0.0579 0.0
C7 C 0.18314 0.02137 0.10143 0.0
C8 C 0.03386 0.01496 0.04568 0.0
O9 O 0.06121 0.07054 0.05858 0.0
O10 O 0.06622 0.98414 0.0417 0.0
C11 C 0.08227 0.15955 0.10888 0.0
O12 O 0.04578 0.09186 0.10632 0.0
C13 C 0.2629 0.16529 0.04309 0.0
Zn14 Zn 0.21064 0.14343 0.38741 0.0
Zn15 Zn 0.10151 0.11214 0.41055 0.0
O16 O 0.17526 0.12478 0.43521 0.0
O17 O 0.26109 0.13912 0.41505 0.0
O18 O 0.01704 0.08852 0.42816 0.0
O19 O 0.22164 0.23396 0.38037 0.0
O20 O 0.12288 0.20187 0.39529 0.0
C21 C 0.235 0.1333 0.43416 0.0
C22 C 0.09322 0.01625 0.36997 0.0
O23 O 0.0667 0.02686 0.38741 0.0
O24 O 0.15381 0.06008 0.36558 0.0
C25 C 1.00632 0.06278 0.44746 0.0
O26 O 0.0518 0.05098 0.45694 0.0
C27 C 0.17394 0.24517 0.38473 0.0
Zn28 Zn 0.17489 0.99203 0.76745 0.0
Zn29 Zn 0.07317 1.00055 0.74742 0.0
O30 O 0.1177 0.97482 0.72103 0.0
O31 O 0.19969 0.9654 0.73771 0.0
O32 O 1.001 0.01105 0.73029 0.0
O33 O 0.10549 0.91894 0.78643 0.0
O34 O 0.02118 0.92514 0.76988 0.0
C35 C 0.16635 0.96241 0.71974 0.0
C36 C 0.1908 0.12592 0.77544 0.0
O37 O 0.13312 0.09701 0.76429 0.0
O38 O 0.22087 0.09265 0.77859 0.0
C39 C 0.02178 0.06486 0.7194 0.0
O40 O 0.08771 0.10971 0.71983 0.0
C41 C 0.04249 0.89919 0.7844 0.0
Mg42 Mg 0.09877 0.60719 0.24566 0.0
C43 C 0.10471 0.53799 0.28596 0.0
O44 O 0.03879 0.51085 0.28147 0.0
C45 C 0.17603 0.71358 0.21214 0.0
O46 O 0.16057 0.65742 0.19945 0.0
C47 C 0.02086 0.46742 0.21735 0.0
O48 O 0.97677 0.45134 0.23327 0.0
O49 O 0.07254 0.52809 0.21804 0.0
O50 O 0.14627 0.58381 0.27346 0.0
O51 O 0.01634 0.61451 0.26078 0.0
C52 C 1.00571 0.6612 0.25432 0.0
O53 O 0.03113 0.68934 0.23525 0.0
O54 O 0.16253 0.7086 0.23304 0.0
Mg55 Mg 0.56957 0.03339 0.58169 0.0
C56 C 0.54523 0.11279 0.54676 0.0
O57 O 0.58003 0.09199 0.53471 0.0
C58 C 0.65197 0.04055 0.62277 0.0
O59 O 0.60014 0.97681 0.62189 0.0
C60 C 0.41991 0.95066 0.5903 0.0
O61 O 0.41594 0.97113 0.57011 0.0
O62 O 0.47754 0.96182 0.59813 0.0
O63 O 0.53999 0.10258 0.56787 0.0
O64 O 0.60344 0.9938 0.55325 0.0
C65 C 0.65905 0.9935 0.5554 0.0
O66 O 0.69023 0.00746 0.57573 0.0
O67 O 0.65253 0.08032 0.6081 0.0
Mg68 Mg 0.55999 0.62458 0.91055 0.0
C69 C 0.48024 0.53999 0.87214 0.0
O70 O 0.53142 0.53043 0.87666 0.0
C71 C 0.63121 0.71186 0.95014 0.0
O72 O 0.63494 0.65582 0.95017 0.0
C73 C 0.54117 0.49366 0.93341 0.0
O74 O 0.58355 0.4925 0.91889 0.0
O75 O 0.52532 0.53988 0.93278 0.0
O76 O 0.47542 0.58465 0.88479 0.0
O77 O 0.64803 0.6505 0.89037 0.0
C78 C 0.70149 0.64825 0.89513 0.0
O79 O 0.70823 0.62592 0.91463 0.0
O80 O 0.59604 0.71649 0.9339 0.0
H81 H 0.15179 0.29838 0.12352 0.0
H82 H 0.96114 0.10573 0.12923 0.0
H83 H 0.92249 0.16508 0.15567 0.0
H84 H 0.17206 0.35917 0.18193 0.0
H85 H 0.20678 0.44833 0.17638 0.0
H86 H 0.21839 0.39188 0.15672 0.0
H87 H 0.16331 0.42239 0.12375 0.0
H88 H 0.15142 0.47889 0.14335 0.0
H89 H 0.07936 0.41052 0.12641 0.0
H90 H 0.90577 0.24303 0.18281 0.0
H91 H 0.91337 0.33501 0.20945 0.0
H92 H 0.11418 0.47796 0.18647 0.0
C93 C 0.10167 0.2689 0.13016 0.0
C94 C 0.05953 0.19731 0.12422 0.0
C95 C 0.99453 0.16052 0.13349 0.0
C96 C 0.97188 0.19381 0.14851 0.0
C97 C 0.01468 0.2641 0.15415 0.0
C98 C 0.0782 0.30138 0.14531 0.0
C99 C 0.11504 0.37596 0.15497 0.0
C100 C 0.18202 0.39492 0.16829 0.0
C101 C 0.12803 0.42482 0.13598 0.0
C102 C 0.0626 0.37432 0.17078 0.0
C103 C 1.00495 0.30934 0.16992 0.0
C104 C 0.95045 0.29432 0.18353 0.0
C105 C 0.95525 0.34694 0.19863 0.0
C106 C 0.01416 0.41384 0.20004 0.0
C107 C 0.06811 0.4276 0.18567 0.0
H108 H 0.98001 0.03211 0.49194 0.0
H109 H 0.89083 0.05756 0.42986 0.0
H110 H 0.78697 0.03175 0.44986 0.0
H111 H 0.82264 0.89301 0.51257 0.0
H112 H 0.84666 0.92612 0.54197 0.0
H113 H 0.91162 0.94145 0.5223 0.0
H114 H 0.96995 0.07314 0.53232 0.0
H115 H 0.90551 0.05816 0.55209 0.0
H116 H 0.92064 0.11461 0.52957 0.0
H117 H 0.6941 0.00705 0.47729 0.0
H118 H 0.62457 0.99461 0.51033 0.0
H119 H 0.77629 0.98796 0.55445 0.0
C120 C 0.93838 0.03152 0.48244 0.0
C121 C 0.94347 0.04647 0.45927 0.0
C122 C 0.88814 0.0462 0.44761 0.0
C123 C 0.82878 0.03125 0.4588 0.0
C124 C 0.82554 0.01687 0.48168 0.0
C125 C 0.87912 0.01732 0.49339 0.0
C126 C 0.86482 0.00448 0.51823 0.0
C127 C 0.86121 0.93726 0.52411 0.0
C128 C 0.9184 0.06628 0.53397 0.0
C129 C 0.79525 0.99772 0.51879 0.0
C130 C 0.77294 0.00405 0.49749 0.0
C131 C 0.71095 1.00164 0.49401 0.0
C132 C 0.67163 0.99428 0.51289 0.0
C133 C 0.69477 0.99014 0.53502 0.0
C134 C 0.75683 0.99056 0.53778 0.0
H135 H 0.90931 0.86246 0.7919 0.0
H136 H 0.06985 0.82356 0.81292 0.0
H137 H 0.99724 0.7492 0.8419 0.0
H138 H 0.85864 0.8759 0.84681 0.0
H139 H 0.76855 0.83361 0.8389 0.0
H140 H 0.83014 0.87846 0.81819 0.0
H141 H 0.77444 0.76745 0.79092 0.0
H142 H 0.71234 0.72229 0.81152 0.0
H143 H 0.76412 0.68883 0.80095 0.0
H144 H 0.91178 0.68739 0.87092 0.0
H145 H 0.8173 0.63947 0.89701 0.0
H146 H 0.71178 0.71703 0.85697 0.0
C147 C 0.92865 0.83719 0.80228 0.0
C148 C 0.99534 0.84888 0.80005 0.0
C149 C 0.01901 0.81556 0.81425 0.0
C150 C 0.97809 0.77303 0.83077 0.0
C151 C 0.91333 0.76387 0.83289 0.0
C152 C 0.88842 0.7945 0.81893 0.0
C153 C 0.81835 0.77896 0.82556 0.0
C154 C 0.81901 0.84571 0.8328 0.0
C155 C 0.76411 0.73687 0.80608 0.0
C156 C 0.80854 0.73611 0.84568 0.0
C157 C 0.86375 0.72771 0.84957 0.0
C158 C 0.86782 0.69287 0.86788 0.0
C159 C 0.81402 0.666 0.88266 0.0
C160 C 0.75695 0.67411 0.87901 0.0
C161 C 0.75428 0.70922 0.86012 0.0
H162 H 0.21293 0.91946 0.10403 0.0
H163 H 0.17644 0.05923 0.14636 0.0
H164 H 0.18584 0.00465 0.1807 0.0
H165 H 0.11236 0.77369 0.13221 0.0
H166 H 0.1671 0.73828 0.12892 0.0
H167 H 0.16667 0.79453 0.10851 0.0
H168 H 0.2977 0.87511 0.11587 0.0
H169 H 0.2985 0.81901 0.13641 0.0
H170 H 0.33295 0.90918 0.14455 0.0
H171 H 0.18805 0.92588 0.20992 0.0
H172 H 0.17794 0.82896 0.23063 0.0
H173 H 0.21237 0.74209 0.16839 0.0
C174 C 0.20804 0.93969 0.12052 0.0
C175 C 0.19409 0.99386 0.12248 0.0
C176 C 0.1875 0.01806 0.14443 0.0
C177 C 0.19295 0.98747 0.16402 0.0
C178 C 0.20556 0.93324 0.16135 0.0
C179 C 0.21324 0.9099 0.14009 0.0
C180 C 0.22092 0.84751 0.14132 0.0
C181 C 0.16333 0.78484 0.1269 0.0
C182 C 0.29174 0.8637 0.13412 0.0
C183 C 0.21407 0.83762 0.16654 0.0
C184 C 0.2064 0.88811 0.17795 0.0
C185 C 0.19501 0.88677 0.20117 0.0
C186 C 0.18956 0.83155 0.21282 0.0
C187 C 0.19468 0.77799 0.20115 0.0
C188 C 0.20886 0.78243 0.17786 0.0
H189 H 0.3592 0.1425 0.43642 0.0
H190 H 0.20187 0.13239 0.47907 0.0
H191 H 0.27054 0.1385 0.51341 0.0
H192 H 0.39567 0.03514 0.46734 0.0
H193 H 0.48597 0.0827 0.46303 0.0
H194 H 0.42654 0.08284 0.44238 0.0
H195 H 0.49235 0.21653 0.44675 0.0
H196 H 0.55172 0.21673 0.46761 0.0
H197 H 0.50588 0.26013 0.47463 0.0
H198 H 0.35532 0.14011 0.54297 0.0
H199 H 0.44307 0.12868 0.56453 0.0
H200 H 0.54316 0.1376 0.50184 0.0
C201 C 0.33916 0.14219 0.45296 0.0
C202 C 0.27513 0.13722 0.45503 0.0
C203 C 0.2508 0.13627 0.47704 0.0
C204 C 0.28963 0.14007 0.49664 0.0
C205 C 0.35265 0.14499 0.49391 0.0
C206 C 0.37696 0.14579 0.47256 0.0
C207 C 0.44408 0.14729 0.47393 0.0
C208 C 0.43763 0.08318 0.46091 0.0
C209 C 0.50192 0.21416 0.46522 0.0
C210 C 0.45338 0.14582 0.49939 0.0
C211 C 0.40071 0.14543 0.51072 0.0
C212 C 0.39706 0.14102 0.53427 0.0
C213 C 0.44738 0.13487 0.54639 0.0
C214 C 0.50026 0.13251 0.5349 0.0
C215 C 0.50387 0.13983 0.51119 0.0
H216 H 0.32602 0.21632 0.78471 0.0
H217 H 0.12728 0.1963 0.7895 0.0
H218 H 0.18153 0.31068 0.8112 0.0
H219 H 0.3892 0.28585 0.83881 0.0
H220 H 0.47564 0.34373 0.83144 0.0
H221 H 0.42188 0.26598 0.81376 0.0
H222 H 0.44223 0.33739 0.77857 0.0
H223 H 0.49636 0.41565 0.79621 0.0
H224 H 0.42417 0.40635 0.77963 0.0
H225 H 0.258 0.42042 0.83761 0.0
H226 H 0.3479 0.51322 0.86433 0.0
H227 H 0.49441 0.46048 0.83956 0.0
C228 C 0.29401 0.23661 0.7899 0.0
C229 C 0.22259 0.1976 0.78553 0.0
C230 C 0.18231 0.22576 0.79258 0.0
C231 C 0.21269 0.29062 0.80491 0.0
C232 C 0.28344 0.32706 0.8095 0.0
C233 C 0.32349 0.30123 0.8018 0.0
C234 C 0.39742 0.34734 0.81003 0.0
C235 C 0.42243 0.3084 0.82436 0.0
C236 C 0.4427 0.37854 0.78991 0.0
C237 C 0.39257 0.40163 0.82449 0.0
C238 C 0.32685 0.39004 0.82392 0.0
C239 C 0.30991 0.43074 0.83777 0.0
C240 C 0.36119 0.48339 0.85286 0.0
C241 C 0.42811 0.49414 0.854 0.0
C242 C 0.44385 0.45392 0.83908 0.0
H243 H 0.88402 0.97541 0.70948 0.0
H244 H 0.05023 0.18141 0.69874 0.0
H245 H 0.97164 0.20096 0.67513 0.0
H246 H 0.80826 0.93706 0.65345 0.0
H247 H 0.7215 0.88929 0.66195 0.0
H248 H 0.78956 0.89341 0.67945 0.0
H249 H 0.75421 0.94126 0.71414 0.0
H250 H 0.68604 0.9374 0.6967 0.0
H251 H 0.74876 0.01755 0.71186 0.0
H252 H 0.87646 0.19608 0.65091 0.0
H253 H 0.77241 0.1655 0.62718 0.0
H254 H 0.66861 0.96294 0.65367 0.0
C255 C 0.90371 0.02493 0.7024 0.0
C256 C 0.97332 0.07692 0.70604 0.0
C257 C 0.99715 0.14073 0.69622 0.0
C258 C 0.95284 0.15248 0.68283 0.0
C259 C 0.88471 0.09999 0.67941 0.0
C260 C 0.8602 0.03748 0.6889 0.0
C261 C 0.78559 0.98841 0.68163 0.0
C262 C 0.77569 0.92321 0.66833 0.0
C263 C 0.74103 0.9701 0.70232 0.0
C264 C 0.77236 0.03271 0.66629 0.0
C265 C 0.82997 0.09711 0.66538 0.0
C266 C 0.83081 0.14599 0.65164 0.0
C267 C 0.77145 0.12818 0.63823 0.0
C268 C 0.71221 0.06195 0.63859 0.0
C269 C 0.71277 0.01421 0.6531 0.0
H270 H 0.93576 0.88047 0.04191 0.0
H271 H 0.97665 0.08188 0.02528 0.0
H272 H 0.86593 0.02692 1.0024 0.0
H273 H 0.8694 0.79581 0.99011 0.0
H274 H 0.80484 0.71572 1.00043 0.0
H275 H 0.88111 0.77201 0.01793 0.0
H276 H 0.80802 0.77532 0.05058 0.0
H277 H 0.73117 0.71863 0.03312 0.0
H278 H 0.74591 0.80048 0.04505 0.0
H279 H 0.75973 0.94606 0.97576 0.0
H280 H 0.66853 0.84966 0.95043 0.0
H281 H 0.69594 0.7044 0.98789 0.0
C282 C 0.92045 0.91304 0.03393 0.0
C283 C 0.96421 0.98507 0.03523 0.0
C284 C 0.94312 0.02642 0.02456 0.0
C285 C 0.88048 0.99562 0.01156 0.0
C286 C 0.83909 0.92377 0.01004 0.0
C287 C 0.85789 0.88335 0.02144 0.0
C288 C 0.80764 0.80749 0.0161 0.0
C289 C 0.84286 0.77067 1.00551 0.0
C290 C 0.77101 0.7735 0.03749 0.0
C291 C 0.75939 0.81105 0.99896 0.0
C292 C 0.77747 0.87823 0.99568 0.0
C293 C 0.7441 0.89326 0.97865 0.0
C294 C 0.6923 0.83829 0.96435 0.0
C295 C 0.67495 0.76953 0.96722 0.0
C296 C 0.70749 0.75627 0.9853 0.0
H297 H 0.10163 0.0049 0.32423 0.0
H298 H 0.99957 0.88537 0.38106 0.0
H299 H 0.94869 0.77802 0.35547 0.0
H300 H 0.96159 0.89356 0.27953 0.0
H301 H 0.02281 0.90693 0.25855 0.0
H302 H 0.04225 0.97375 0.28064 0.0
H303 H 0.15374 0.97607 0.29262 0.0
H304 H 0.13469 0.90963 0.27064 0.0
H305 H 0.14905 0.89728 0.29984 0.0
H306 H 0.92816 0.68386 0.32517 0.0
H307 H 0.93448 0.61306 0.29281 0.0
H308 H 0.04163 0.79579 0.25532 0.0
C309 C 0.06722 0.95621 0.33116 0.0
C310 C 0.05453 0.95307 0.35456 0.0
C311 C 1.00943 0.88867 0.3631 0.0
C312 C 0.98037 0.8276 0.34869 0.0
C313 C 0.9955 0.83234 0.32572 0.0
C314 C 0.03681 0.89536 0.31696 0.0
C315 C 0.04926 0.88691 0.29218 0.0
C316 C 0.01703 0.91707 0.27682 0.0
C317 C 0.12621 0.91934 0.28863 0.0
C318 C 0.01169 0.80915 0.28861 0.0
C319 C 0.98047 0.77829 0.30805 0.0
C320 C 0.95054 0.70733 0.30965 0.0
C321 C 0.95431 0.66746 0.29119 0.0
C322 C 0.98735 0.69864 0.27138 0.0
C323 C 0.01406 0.76994 0.26989 0.0
H324 H 0.27521 0.94621 0.71155 0.0
H325 H 0.10402 0.94538 0.67717 0.0
H326 H 0.14269 0.92657 0.63994 0.0
H327 H 0.39564 0.04156 0.67301 0.0
H328 H 0.44122 0.99601 0.67487 0.0
H329 H 0.39517 1.00077 0.69861 0.0
H330 H 0.32678 0.86732 0.69804 0.0
H331 H 0.37252 0.86218 0.67416 0.0
H332 H 0.28042 0.81693 0.67212 0.0
H333 H 0.2063 0.91823 0.60637 0.0
H334 H 0.29178 0.92745 0.57954 0.0
H335 H 0.42115 0.93412 0.63623 0.0
C336 C 0.24495 0.94085 0.69626 0.0
C337 C 0.18623 0.94689 0.69734 0.0
C338 C 0.14895 0.94064 0.67682 0.0
C339 C 0.1704 0.92966 0.65559 0.0
C340 C 0.22901 0.92475 0.65518 0.0
C341 C 0.2657 0.93017 0.67502 0.0
C342 C 0.32989 0.92878 0.67 0.0
C343 C 0.39425 0.99576 0.67969 0.0
C344 C 0.3272 0.86499 0.67912 0.0
C345 C 0.3248 0.9237 0.64419 0.0
C346 C 0.26576 0.92038 0.63593 0.0
C347 C 0.25221 0.91992 0.61266 0.0
C348 C 0.30112 0.92507 0.59753 0.0
C349 C 0.36316 0.93116 0.60572 0.0
C350 C 0.3739 0.92845 0.62933 0.0
H351 H 0.28966 0.29254 0.03073 0.0
H352 H 0.36201 0.14854 0.02477 0.0
H353 H 0.44674 0.22138 0.99812 0.0
H354 H 0.29709 0.32417 0.97322 0.0
H355 H 0.32554 0.4146 0.97746 0.0
H356 H 0.27664 0.35677 0.99856 0.0
H357 H 0.37251 0.4322 0.0297 0.0
H358 H 0.42149 0.49076 1.00871 0.0
H359 H 0.45871 0.45229 0.02547 0.0
H360 H 0.51548 0.30255 0.96927 0.0
H361 H 0.56628 0.38957 0.9409 0.0
H362 H 0.4492 0.48078 0.96497 0.0
C363 C 0.32474 0.27758 0.02432 0.0
C364 C 0.31956 0.21514 0.02993 0.0
C365 C 0.36513 0.19623 0.02072 0.0
C366 C 0.41357 0.23731 1.00559 0.0
C367 C 0.416 0.29733 0.99978 0.0
C368 C 0.37326 0.31787 1.00895 0.0
C369 C 0.38325 0.38209 0.99851 0.0
C370 C 0.31667 0.36855 0.98621 0.0
C371 C 0.41063 0.44294 0.01668 0.0
C372 C 0.43685 0.39316 0.98171 0.0
C373 C 0.45548 0.34407 0.98288 0.0
C374 C 0.50197 0.34186 0.96837 0.0
C375 C 0.53038 0.39134 0.95224 0.0
C376 C 0.51194 0.44212 0.95069 0.0
C377 C 0.46475 0.44294 0.96576 0.0
H378 H 0.06642 0.26023 0.37116 0.0
H379 H 0.28786 0.36626 0.37683 0.0
H380 H 0.29421 0.46069 0.35579 0.0
H381 H 0.05351 0.29248 0.31546 0.0
H382 H 0.98171 0.3048 0.318 0.0
H383 H 0.99369 0.25183 0.33713 0.0
H384 H 0.99309 0.32678 0.37188 0.0
H385 H 0.98035 0.37972 0.35283 0.0
H386 H 0.05139 0.41875 0.37378 0.0
H387 H 0.27717 0.53494 0.3297 0.0
H388 H 0.23729 0.58494 0.30108 0.0
H389 H 0.02704 0.4305 0.31189 0.0
C390 C 0.11611 0.30458 0.36869 0.0
C391 C 0.17663 0.30636 0.3758 0.0
C392 C 0.24085 0.36411 0.3716 0.0
C393 C 0.24501 0.4181 0.35972 0.0
C394 C 0.18447 0.41368 0.35214 0.0
C395 C 0.12116 0.35872 0.3566 0.0
C396 C 0.06413 0.36299 0.34449 0.0
C397 C 0.02075 0.29926 0.32778 0.0
C398 C 0.01962 0.37266 0.36178 0.0
C399 C 0.10536 0.42742 0.33194 0.0
C400 C 0.17463 0.45642 0.33682 0.0
C401 C 0.22298 0.51346 0.32604 0.0
C402 C 0.19989 0.54135 0.30974 0.0
C403 C 0.12911 0.51191 0.3043 0.0
C404 C 0.08149 0.45479 0.31584 0.0
loop_
_geom_bond_atom_site_label_1
_geom_bond_atom_site_label_2
_geom_bond_distance
_geom_bond_site_symmetry_2
_ccdc_geom_bond_type
Zn0 O3 2.031 1_545 S
Zn0 O5 2.049 . S
Zn0 O10 2.067 . S
Zn1 O2 1.962 . S
Zn1 O4 1.986 . S
Zn1 O6 1.996 . S
Zn1 O9 1.943 . S
O2 Zn1 1.962 . S
O2 C7 1.254 . S
O3 Zn0 2.031 1_565 S
O3 C7 1.269 1_565 S
O4 Zn1 1.986 . S
O4 C11 1.262 . S
O5 Zn0 2.049 . S
O5 C13 1.260 . S
O6 Zn1 1.996 . S
O6 C13 1.257 . S
C7 O2 1.254 . S
C7 O3 1.269 1_545 S
C8 O9 1.249 . S
C8 O10 1.270 . S
O9 Zn1 1.943 . S
O9 C8 1.249 . S
O10 Zn0 2.067 . S
O10 C8 1.270 . S
C11 O4 1.262 . S
C11 O12 1.232 . S
O12 C11 1.232 . S
C13 O5 1.260 . S
C13 O6 1.257 . S
Zn14 O17 2.031 . S
Zn14 O19 2.049 . S
Zn14 O24 2.067 . S
Zn15 O16 1.962 . S
Zn15 O18 1.986 1_455 S
Zn15 O20 1.996 . S
Zn15 O23 1.943 . S
O16 Zn15 1.962 . S
O16 C21 1.254 . S
O17 Zn14 2.031 . S
O17 C21 1.269 . S
O18 Zn15 1.986 1_655 S
O18 C25 1.262 . S
O19 Zn14 2.049 . S
O19 C27 1.260 . S
O20 Zn15 1.996 . S
O20 C27 1.257 . S
C21 O16 1.254 . S
C21 O17 1.269 . S
C22 O23 1.249 . S
C22 O24 1.270 . S
O23 Zn15 1.943 . S
O23 C22 1.249 . S
O24 Zn14 2.067 . S
O24 C22 1.270 . S
C25 O18 1.262 . S
C25 O26 1.232 . S
O26 C25 1.232 . S
C27 O19 1.260 . S
C27 O20 1.257 . S
Zn28 O31 2.031 1_565 S
Zn28 O33 2.049 . S
Zn28 O38 2.067 1_565 S
Zn29 O30 1.962 1_545 S
Zn29 O32 1.986 1_455 S
Zn29 O34 1.996 1_545 S
Zn29 O37 1.943 . S
O30 Zn29 1.962 1_565 S
O30 C35 1.254 1_565 S
O31 Zn28 2.031 1_545 S
O31 C35 1.269 . S
O32 Zn29 1.986 1_655 S
O32 C39 1.262 . S
O33 Zn28 2.049 . S
O33 C41 1.260 . S
O34 Zn29 1.996 1_565 S
O34 C41 1.257 . S
C35 O30 1.254 1_545 S
C35 O31 1.269 . S
C36 O37 1.249 . S
C36 O38 1.270 . S
O37 Zn29 1.943 . S
O37 C36 1.249 . S
O38 Zn28 2.067 1_545 S
O38 C36 1.270 . S
C39 O32 1.262 . S
C39 O40 1.232 1_655 S
O40 C39 1.232 1_455 S
C41 O33 1.260 . S
C41 O34 1.257 . S
Mg42 O49 2.141 . S
Mg42 O50 2.048 . S
Mg42 O51 2.048 . S
Mg42 O54 2.141 . S
C43 O44 1.313 . S
C43 O50 1.195 . S
O44 C43 1.313 . S
C45 O46 1.245 . S
C45 O54 1.289 . S
O46 C45 1.245 . S
C47 O48 1.245 . S
C47 O49 1.289 . S
O48 C47 1.245 . S
O49 Mg42 2.141 . S
O49 C47 1.289 . S
O50 Mg42 2.048 . S
O50 C43 1.195 . S
O51 Mg42 2.048 . S
O51 C52 1.195 . S
C52 O51 1.195 . S
C52 O53 1.313 . S
O53 C52 1.313 . S
O54 Mg42 2.141 . S
O54 C45 1.289 . S
Mg55 O62 2.141 . S
Mg55 O63 2.048 . S
Mg55 O64 2.048 . S
Mg55 O67 2.141 . S
C56 O57 1.329 . S
C56 O63 1.195 . S
O57 C56 1.329 . S
C58 O59 1.245 1_545 S
C58 O67 1.289 . S
O59 C58 1.245 1_565 S
C60 O61 1.245 1_545 S
C60 O62 1.289 . S
O61 C60 1.245 1_565 S
O62 Mg55 2.141 . S
O62 C60 1.289 . S
O63 Mg55 2.048 . S
O63 C56 1.195 . S
O64 Mg55 2.048 . S
O64 C65 1.195 . S
C65 O64 1.195 . S
C65 O66 1.324 . S
O66 C65 1.324 . S
O67 Mg55 2.141 . S
O67 C58 1.289 . S
Mg68 O75 2.141 . S
Mg68 O76 2.048 . S
Mg68 O77 2.048 . S
Mg68 O80 2.141 . S
C69 O70 1.313 . S
C69 O76 1.195 . S
O70 C69 1.313 . S
C71 O72 1.245 . S
C71 O80 1.289 . S
O72 C71 1.245 . S
C73 O74 1.245 . S
C73 O75 1.289 . S
O74 C73 1.245 . S
O75 Mg68 2.141 . S
O75 C73 1.289 . S
O76 Mg68 2.048 . S
O76 C69 1.195 . S
O77 Mg68 2.048 . S
O77 C78 1.195 . S
C78 O77 1.195 . S
C78 O79 1.313 . S
O79 C78 1.313 . S
O80 Mg68 2.141 . S
O80 C71 1.289 . S
H81 C93 0.930 . S
H82 C95 0.930 . S
H83 C96 0.930 . S
H84 C100 0.959 . S
H85 C100 0.959 . S
H86 C100 0.961 . S
H87 C101 0.960 . S
H88 C101 0.961 . S
H89 C101 0.959 . S
H90 C104 0.929 . S
H91 C105 0.931 . S
H92 C107 0.930 . S
C93 H81 0.930 . S
C93 C94 1.399 . S
C93 C98 1.399 . S
C94 C93 1.399 . S
C94 C95 1.376 . S
C95 H82 0.930 . S
C95 C94 1.376 . S
C95 C96 1.388 . S
C96 H83 0.930 . S
C96 C95 1.388 . S
C96 C97 1.390 . S
C97 C96 1.390 . S
C97 C98 1.394 . S
C97 C103 1.465 . S
C98 C93 1.399 . S
C98 C97 1.394 . S
C98 C99 1.516 . S
C99 C98 1.516 . S
C99 C100 1.502 . S
C99 C101 1.561 . S
C99 C102 1.526 . S
C100 H84 0.959 . S
C100 H85 0.959 . S
C100 H86 0.961 . S
C100 C99 1.502 . S
C101 H87 0.960 . S
C101 H88 0.961 . S
C101 H89 0.959 . S
C101 C99 1.561 . S
C102 C99 1.526 . S
C102 C103 1.396 . S
C102 C107 1.390 . S
C103 C97 1.465 . S
C103 C102 1.396 . S
C103 C104 1.399 . S
C104 H90 0.929 . S
C104 C103 1.399 . S
C104 C105 1.385 . S
C105 H91 0.931 . S
C105 C104 1.385 . S
C105 C106 1.389 . S
C106 C105 1.389 . S
C106 C107 1.387 . S
C107 H92 0.930 . S
C107 C102 1.390 . S
C107 C106 1.387 . S
H108 C120 0.930 1_565 S
H109 C122 0.930 . S
H110 C123 0.930 . S
H111 C127 0.959 . S
H112 C127 0.959 . S
H113 C127 0.961 . S
H114 C128 0.960 . S
H115 C128 0.961 . S
H116 C128 0.959 . S
H117 C131 0.929 . S
H118 C132 0.931 . S
H119 C134 0.930 1_565 S
C120 H108 0.930 1_545 S
C120 C121 1.399 . S
C120 C125 1.399 . S
C121 C120 1.399 . S
C121 C122 1.376 . S
C122 H109 0.930 . S
C122 C121 1.376 . S
C122 C123 1.388 . S
C123 H110 0.930 . S
C123 C122 1.388 . S
C123 C124 1.390 . S
C124 C123 1.390 . S
C124 C125 1.394 . S
C124 C130 1.465 . S
C125 C120 1.399 . S
C125 C124 1.394 . S
C125 C126 1.516 1_545 S
C126 C125 1.516 1_565 S
C126 C127 1.502 . S
C126 C128 1.561 . S
C126 C129 1.526 1_565 S
C127 H111 0.959 . S
C127 H112 0.959 . S
C127 H113 0.961 . S
C127 C126 1.502 . S
C128 H114 0.960 . S
C128 H115 0.961 . S
C128 H116 0.959 . S
C128 C126 1.561 . S
C129 C126 1.526 1_545 S
C129 C130 1.396 . S
C129 C134 1.390 . S
C130 C124 1.465 . S
C130 C129 1.396 . S
C130 C131 1.399 . S
C131 H117 0.929 . S
C131 C130 1.399 . S
C131 C132 1.385 . S
C132 H118 0.931 . S
C132 C131 1.385 . S
C132 C133 1.389 . S
C133 C132 1.389 . S
C133 C134 1.387 . S
C134 H119 0.930 1_545 S
C134 C129 1.390 . S
C134 C133 1.387 . S
H135 C147 0.930 . S
H136 C149 0.930 . S
H137 C150 0.930 . S
H138 C154 0.959 . S
H139 C154 0.959 . S
H140 C154 0.961 . S
H141 C155 0.960 . S
H142 C155 0.961 . S
H143 C155 0.959 . S
H144 C158 0.929 . S
H145 C159 0.931 . S
H146 C161 0.930 . S
C147 H135 0.930 . S
C147 C148 1.399 . S
C147 C152 1.399 . S
C148 C147 1.399 . S
C148 C149 1.376 . S
C149 H136 0.930 . S
C149 C148 1.376 . S
C149 C150 1.388 . S
C150 H137 0.930 . S
C150 C149 1.388 . S
C150 C151 1.390 . S
C151 C150 1.390 . S
C151 C152 1.394 . S
C151 C157 1.465 . S
C152 C147 1.399 . S
C152 C151 1.394 . S
C152 C153 1.516 . S
C153 C152 1.516 . S
C153 C154 1.502 . S
C153 C155 1.561 . S
C153 C156 1.526 . S
C154 H138 0.959 . S
C154 H139 0.959 . S
C154 H140 0.961 . S
C154 C153 1.502 . S
C155 H141 0.960 . S
C155 H142 0.961 . S
C155 H143 0.959 . S
C155 C153 1.561 . S
C156 C153 1.526 . S
C156 C157 1.396 . S
C156 C161 1.390 . S
C157 C151 1.465 . S
C157 C156 1.396 . S
C157 C158 1.399 . S
C158 H144 0.929 . S
C158 C157 1.399 . S
C158 C159 1.385 . S
C159 H145 0.931 . S
C159 C158 1.385 . S
C159 C160 1.389 . S
C160 C159 1.389 . S
C160 C161 1.387 . S
C161 H146 0.930 . S
C161 C156 1.390 . S
C161 C160 1.387 . S
H162 C174 0.930 . S
H163 C176 0.930 1_545 S
H164 C177 0.930 . S
H165 C181 0.959 . S
H166 C181 0.959 . S
H167 C181 0.961 . S
H168 C182 0.960 . S
H169 C182 0.961 . S
H170 C182 0.959 . S
H171 C185 0.929 . S
H172 C186 0.931 . S
H173 C188 0.930 . S
C174 H162 0.930 . S
C174 C175 1.399 . S
C174 C179 1.399 . S
C175 C174 1.399 . S
C175 C176 1.376 . S
C176 H163 0.930 1_565 S
C176 C175 1.376 . S
C176 C177 1.388 . S
C177 H164 0.930 . S
C177 C176 1.388 . S
C177 C178 1.390 . S
C178 C177 1.390 . S
C178 C179 1.394 . S
C178 C184 1.465 . S
C179 C174 1.399 . S
C179 C178 1.394 . S
C179 C180 1.516 . S
C180 C179 1.516 . S
C180 C181 1.502 . S
C180 C182 1.561 . S
C180 C183 1.526 . S
C181 H165 0.959 . S
C181 H166 0.959 . S
C181 H167 0.961 . S
C181 C180 1.502 . S
C182 H168 0.960 . S
C182 H169 0.961 . S
C182 H170 0.959 . S
C182 C180 1.561 . S
C183 C180 1.526 . S
C183 C184 1.396 . S
C183 C188 1.390 . S
C184 C178 1.465 . S
C184 C183 1.396 . S
C184 C185 1.399 . S
C185 H171 0.929 . S
C185 C184 1.399 . S
C185 C186 1.385 . S
C186 H172 0.931 . S
C186 C185 1.385 . S
C186 C187 1.389 . S
C187 C186 1.389 . S
C187 C188 1.387 . S
C188 H173 0.930 . S
C188 C183 1.390 . S
C188 C187 1.387 . S
H189 C201 0.930 . S
H190 C203 0.930 . S
H191 C204 0.930 1_565 S
H192 C208 0.959 . S
H193 C208 0.959 . S
H194 C208 0.961 . S
H195 C209 0.960 . S
H196 C209 0.961 . S
H197 C209 0.959 . S
H198 C212 0.929 1_565 S
H199 C213 0.931 1_565 S
H200 C215 0.930 . S
C201 H189 0.930 . S
C201 C202 1.399 . S
C201 C206 1.399 . S
C202 C201 1.399 . S
C202 C203 1.376 . S
C203 H190 0.930 . S
C203 C202 1.376 . S
C203 C204 1.388 . S
C204 H191 0.930 1_545 S
C204 C203 1.388 . S
C204 C205 1.390 . S
C205 C204 1.390 . S
C205 C206 1.394 . S
C205 C211 1.465 . S
C206 C201 1.399 . S
C206 C205 1.394 . S
C206 C207 1.516 . S
C207 C206 1.516 . S
C207 C208 1.502 . S
C207 C209 1.561 . S
C207 C210 1.526 . S
C208 H192 0.959 . S
C208 H193 0.959 . S
C208 H194 0.961 . S
C208 C207 1.502 . S
C209 H195 0.960 . S
C209 H196 0.961 . S
C209 H197 0.959 . S
C209 C207 1.561 . S
C210 C207 1.526 . S
C210 C211 1.396 . S
C210 C215 1.390 . S
C211 C205 1.465 . S
C211 C210 1.396 . S
C211 C212 1.399 . S
C212 H198 0.929 1_545 S
C212 C211 1.399 . S
C212 C213 1.385 . S
C213 H199 0.931 1_545 S
C213 C212 1.385 . S
C213 C214 1.389 . S
C214 C213 1.389 . S
C214 C215 1.387 . S
C215 H200 0.930 . S
C215 C210 1.390 . S
C215 C214 1.387 . S
H216 C228 0.930 . S
H217 C230 0.930 . S
H218 C231 0.930 . S
H219 C235 0.959 . S
H220 C235 0.959 . S
H221 C235 0.961 . S
H222 C236 0.960 . S
H223 C236 0.961 . S
H224 C236 0.959 . S
H225 C239 0.929 . S
H226 C240 0.931 . S
H227 C242 0.930 . S
C228 H216 0.930 . S
C228 C229 1.399 . S
C228 C233 1.399 . S
C229 C228 1.399 . S
C229 C230 1.376 . S
C230 H217 0.930 . S
C230 C229 1.376 . S
C230 C231 1.388 . S
C231 H218 0.930 . S
C231 C230 1.388 . S
C231 C232 1.390 . S
C232 C231 1.390 . S
C232 C233 1.394 . S
C232 C238 1.465 . S
C233 C228 1.399 . S
C233 C232 1.394 . S
C233 C234 1.516 . S
C234 C233 1.516 . S
C234 C235 1.502 . S
C234 C236 1.561 . S
C234 C237 1.526 . S
C235 H219 0.959 . S
C235 H220 0.959 . S
C235 H221 0.961 . S
C235 C234 1.502 . S
C236 H222 0.960 . S
C236 H223 0.961 . S
C236 H224 0.959 . S
C236 C234 1.561 . S
C237 C234 1.526 . S
C237 C238 1.396 . S
C237 C242 1.390 . S
C238 C232 1.465 . S
C238 C237 1.396 . S
C238 C239 1.399 . S
C239 H225 0.929 . S
C239 C238 1.399 . S
C239 C240 1.385 . S
C240 H226 0.931 . S
C240 C239 1.385 . S
C240 C241 1.389 . S
C241 C240 1.389 . S
C241 C242 1.387 . S
C242 H227 0.930 . S
C242 C237 1.390 . S
C242 C241 1.387 . S
H243 C255 0.930 1_565 S
H244 C257 0.930 . S
H245 C258 0.930 . S
H246 C262 0.959 . S
H247 C262 0.959 . S
H248 C262 0.961 . S
H249 C263 0.960 . S
H250 C263 0.961 . S
H251 C263 0.959 . S
H252 C266 0.929 . S
H253 C267 0.931 . S
H254 C269 0.930 1_565 S
C255 H243 0.930 1_545 S
C255 C256 1.399 . S
C255 C260 1.399 . S
C256 C255 1.399 . S
C256 C257 1.376 . S
C257 H244 0.930 . S
C257 C256 1.376 . S
C257 C258 1.388 . S
C258 H245 0.930 . S
C258 C257 1.388 . S
C258 C259 1.390 . S
C259 C258 1.390 . S
C259 C260 1.394 . S
C259 C265 1.465 . S
C260 C255 1.399 . S
C260 C259 1.394 . S
C260 C261 1.516 1_545 S
C261 C260 1.516 1_565 S
C261 C262 1.502 . S
C261 C263 1.561 . S
C261 C264 1.526 1_565 S
C262 H246 0.959 . S
C262 H247 0.959 . S
C262 H248 0.961 . S
C262 C261 1.502 . S
C263 H249 0.960 . S
C263 H250 0.961 . S
C263 H251 0.959 . S
C263 C261 1.561 . S
C264 C261 1.526 1_545 S
C264 C265 1.396 . S
C264 C269 1.390 . S
C265 C259 1.465 . S
C265 C264 1.396 . S
C265 C266 1.399 . S
C266 H252 0.929 . S
C266 C265 1.399 . S
C266 C267 1.385 . S
C267 H253 0.931 . S
C267 C266 1.385 . S
C267 C268 1.389 . S
C268 C267 1.389 . S
C268 C269 1.387 . S
C269 H254 0.930 1_545 S
C269 C264 1.390 . S
C269 C268 1.387 . S
H270 C282 0.930 . S
H271 C284 0.930 1_545 S
H272 C285 0.930 . S
H273 C289 0.959 . S
H274 C289 0.959 . S
H275 C289 0.961 . S
H276 C290 0.960 . S
H277 C290 0.961 . S
H278 C290 0.959 . S
H279 C293 0.929 . S
H280 C294 0.931 . S
H281 C296 0.930 . S
C282 H270 0.930 . S
C282 C283 1.399 . S
C282 C287 1.399 . S
C283 C282 1.399 . S
C283 C284 1.376 . S
C284 H271 0.930 1_565 S
C284 C283 1.376 . S
C284 C285 1.388 1_554 S
C285 H272 0.930 . S
C285 C284 1.388 1_556 S
C285 C286 1.390 . S
C286 C285 1.390 . S
C286 C287 1.394 1_556 S
C286 C292 1.465 . S
C287 C282 1.399 . S
C287 C286 1.394 1_554 S
C287 C288 1.516 . S
C288 C287 1.516 . S
C288 C289 1.502 . S
C288 C290 1.561 . S
C288 C291 1.526 1_554 S
C289 H273 0.959 . S
C289 H274 0.959 . S
C289 H275 0.961 . S
C289 C288 1.502 . S
C290 H276 0.960 . S
C290 H277 0.961 . S
C290 H278 0.959 . S
C290 C288 1.561 . S
C291 C288 1.526 1_556 S
C291 C292 1.396 . S
C291 C296 1.390 . S
C292 C286 1.465 . S
C292 C291 1.396 . S
C292 C293 1.399 . S
C293 H279 0.929 . S
C293 C292 1.399 . S
C293 C294 1.385 . S
C294 H280 0.931 . S
C294 C293 1.385 . S
C294 C295 1.389 . S
C295 C294 1.389 . S
C295 C296 1.387 . S
C296 H281 0.930 . S
C296 C291 1.390 . S
C296 C295 1.387 . S
H297 C309 0.930 . S
H298 C311 0.930 . S
H299 C312 0.930 . S
H300 C316 0.959 . S
H301 C316 0.959 . S
H302 C316 0.961 . S
H303 C317 0.960 . S
H304 C317 0.961 . S
H305 C317 0.959 . S
H306 C320 0.929 . S
H307 C321 0.931 . S
H308 C323 0.930 . S
C309 H297 0.930 . S
C309 C310 1.399 . S
C309 C314 1.399 . S
C310 C309 1.399 . S
C310 C311 1.376 . S
C311 H298 0.930 . S
C311 C310 1.376 . S
C311 C312 1.388 . S
C312 H299 0.930 . S
C312 C311 1.388 . S
C312 C313 1.390 . S
C313 C312 1.390 . S
C313 C314 1.394 . S
C313 C319 1.465 . S
C314 C309 1.399 . S
C314 C313 1.394 . S
C314 C315 1.516 . S
C315 C314 1.516 . S
C315 C316 1.502 1_455 S
C315 C317 1.561 . S
C315 C318 1.526 . S
C316 H300 0.959 . S
C316 H301 0.959 . S
C316 H302 0.961 . S
C316 C315 1.502 1_655 S
C317 H303 0.960 . S
C317 H304 0.961 . S
C317 H305 0.959 . S
C317 C315 1.561 . S
C318 C315 1.526 . S
C318 C319 1.396 . S
C318 C323 1.390 . S
C319 C313 1.465 . S
C319 C318 1.396 . S
C319 C320 1.399 . S
C320 H306 0.929 . S
C320 C319 1.399 . S
C320 C321 1.385 . S
C321 H307 0.931 . S
C321 C320 1.385 . S
C321 C322 1.389 . S
C322 C321 1.389 . S
C322 C323 1.387 . S
C323 H308 0.930 . S
C323 C318 1.390 . S
C323 C322 1.387 . S
H324 C336 0.930 . S
H325 C338 0.930 . S
H326 C339 0.930 . S
H327 C343 0.959 . S
H328 C343 0.959 . S
H329 C343 0.961 . S
H330 C344 0.960 . S
H331 C344 0.961 . S
H332 C344 0.959 . S
H333 C347 0.929 . S
H334 C348 0.931 1_565 S
H335 C350 0.930 . S
C336 H324 0.930 . S
C336 C337 1.399 . S
C336 C341 1.399 . S
C337 C336 1.399 . S
C337 C338 1.376 1_545 S
C338 H325 0.930 . S
C338 C337 1.376 1_565 S
C338 C339 1.388 . S
C339 H326 0.930 . S
C339 C338 1.388 . S
C339 C340 1.390 1_565 S
C340 C339 1.390 1_545 S
C340 C341 1.394 . S
C340 C346 1.465 . S
C341 C336 1.399 . S
C341 C340 1.394 . S
C341 C342 1.516 . S
C342 C341 1.516 . S
C342 C343 1.502 . S
C342 C344 1.561 . S
C342 C345 1.526 . S
C343 H327 0.959 . S
C343 H328 0.959 . S
C343 H329 0.961 . S
C343 C342 1.502 . S
C344 H330 0.960 . S
C344 H331 0.961 . S
C344 H332 0.959 . S
C344 C342 1.561 . S
C345 C342 1.526 . S
C345 C346 1.396 . S
C345 C350 1.390 . S
C346 C340 1.465 . S
C346 C345 1.396 . S
C346 C347 1.399 1_545 S
C347 H333 0.929 . S
C347 C346 1.399 1_565 S
C347 C348 1.385 1_565 S
C348 H334 0.931 1_545 S
C348 C347 1.385 1_545 S
C348 C349 1.389 . S
C349 C348 1.389 . S
C349 C350 1.387 . S
C350 H335 0.930 . S
C350 C345 1.390 . S
C350 C349 1.387 . S
H351 C363 0.930 . S
H352 C365 0.930 . S
H353 C366 0.930 . S
H354 C370 0.959 . S
H355 C370 0.959 . S
H356 C370 0.961 . S
H357 C371 0.960 . S
H358 C371 0.961 . S
H359 C371 0.959 . S
H360 C374 0.929 . S
H361 C375 0.931 . S
H362 C377 0.930 . S
C363 H351 0.930 . S
C363 C364 1.399 . S
C363 C368 1.399 . S
C364 C363 1.399 . S
C364 C365 1.376 . S
C365 H352 0.930 . S
C365 C364 1.376 . S
C365 C366 1.388 1_554 S
C366 H353 0.930 . S
C366 C365 1.388 1_556 S
C366 C367 1.390 . S
C367 C366 1.390 . S
C367 C368 1.394 1_556 S
C367 C373 1.465 . S
C368 C363 1.399 . S
C368 C367 1.394 1_554 S
C368 C369 1.516 . S
C369 C368 1.516 . S
C369 C370 1.502 . S
C369 C371 1.561 . S
C369 C372 1.526 1_554 S
C370 H354 0.959 . S
C370 H355 0.959 . S
C370 H356 0.961 . S
C370 C369 1.502 . S
C371 H357 0.960 . S
C371 H358 0.961 . S
C371 H359 0.959 . S
C371 C369 1.561 . S
C372 C369 1.526 1_556 S
C372 C373 1.396 . S
C372 C377 1.390 . S
C373 C367 1.465 . S
C373 C372 1.396 . S
C373 C374 1.399 . S
C374 H360 0.929 . S
C374 C373 1.399 . S
C374 C375 1.385 . S
C375 H361 0.931 . S
C375 C374 1.385 . S
C375 C376 1.389 . S
C376 C375 1.389 . S
C376 C377 1.387 . S
C377 H362 0.930 . S
C377 C372 1.390 . S
C377 C376 1.387 . S
H378 C390 0.930 . S
H379 C392 0.930 . S
H380 C393 0.930 . S
H381 C397 0.959 . S
H382 C397 0.959 . S
H383 C397 0.961 . S
H384 C398 0.960 . S
H385 C398 0.961 . S
H386 C398 0.959 . S
H387 C401 0.929 . S
H388 C402 0.931 . S
H389 C404 0.930 . S
C390 H378 0.930 . S
C390 C391 1.399 . S
C390 C395 1.399 . S
C391 C390 1.399 . S
C391 C392 1.376 . S
C392 H379 0.930 . S
C392 C391 1.376 . S
C392 C393 1.388 . S
C393 H380 0.930 . S
C393 C392 1.388 . S
C393 C394 1.390 . S
C394 C393 1.390 . S
C394 C395 1.394 . S
C394 C400 1.465 . S
C395 C390 1.399 . S
C395 C394 1.394 . S
C395 C396 1.516 . S
C396 C395 1.516 . S
C396 C397 1.502 . S
C396 C398 1.561 1_455 S
C396 C399 1.526 . S
C397 H381 0.959 . S
C397 H382 0.959 . S
C397 H383 0.961 . S
C397 C396 1.502 . S
C398 H384 0.960 . S
C398 H385 0.961 . S
C398 H386 0.959 . S
C398 C396 1.561 1_655 S
C399 C396 1.526 . S
C399 C400 1.396 . S
C399 C404 1.390 . S
C400 C394 1.465 . S
C400 C399 1.396 . S
C400 C401 1.399 . S
C401 H387 0.929 . S
C401 C400 1.399 . S
C401 C402 1.385 . S
C402 H388 0.931 . S
C402 C401 1.385 . S
C402 C403 1.389 . S
C403 C402 1.389 . S
C403 C404 1.387 . S
C404 H389 0.930 . S
C404 C399 1.390 . S
C404 C403 1.387 . S
C106 C47 1.255 . S
C94 C11 1.264 . S
C121 C25 1.357 . S
C133 C65 1.418 . S
C148 C41 1.381 1_655 S
C160 C78 1.417 . S
C175 C7 1.337 1_565 S
C187 C45 1.334 . S
C214 C56 1.447 . S
C202 C21 1.450 . S
C229 C36 1.374 . S
C241 C69 1.470 . S
C268 C58 1.342 . S
C256 C39 1.341 . S
C283 C8 1.340 1_665 S
C295 C71 1.400 . S
C322 C52 1.516 . S
C310 C22 1.442 1_565 S
C349 C60 1.347 . S
C337 C35 1.386 . S
C376 C73 1.345 . S
C364 C13 1.243 . S
C391 C27 1.438 . S
C403 C43 1.465 . S
