# Generated by pormake.
# Topology scu, (8,4)-cn, num edge types: 1
# Building blocks:
#     Node 0, Type 0, BuildingBlock: TAGTUT_clean_sbu_3, # of connection points: 8
#     Node 1, Type 1, BuildingBlock: ESEHIV_clean_sbu_0, # of connection points: 4
#     Node 2, Type 1, BuildingBlock: ESEHIV_clean_sbu_0, # of connection points: 4
#     Edge 3, Type (0, 1), BuildingBlock: FUNLAD_clean_linker_1, # of connection points: 2
#     Edge 4, Type (0, 1), BuildingBlock: FUNLAD_clean_linker_1, # of connection points: 2
#     Edge 5, Type (0, 1), BuildingBlock: FUNLAD_clean_linker_1, # of connection points: 2
#     Edge 6, Type (0, 1), BuildingBlock: FUNLAD_clean_linker_1, # of connection points: 2
#     Edge 7, Type (0, 1), BuildingBlock: FUNLAD_clean_linker_1, # of connection points: 2
#     Edge 8, Type (0, 1), BuildingBlock: FUNLAD_clean_linker_1, # of connection points: 2
#     Edge 9, Type (0, 1), BuildingBlock: FUNLAD_clean_linker_1, # of connection points: 2
#     Edge 10, Type (0, 1), BuildingBlock: FUNLAD_clean_linker_1, # of connection points: 2
# Relax obj value: 0.025
# Max RMSD: 0.106
# Mean RMSD: 0.103
data_MOF--net-scu--node1-TAGTUT_clean_sbu_3--node2-ESEHIV_clean_sbu_0--edge1-FUNLAD_clean_linker_1
_symmetry_space_group_name_H-M    P1
_symmetry_Int_Tables_number       1
_symmetry_cell_setting            triclinic
loop_
_symmetry_equiv_pos_as_xyz
'x, y, z'
_cell_length_a     29.696331
_cell_length_b     24.634046
_cell_length_c     20.863027
_cell_angle_alpha  93.806569
_cell_angle_beta   94.490291
_cell_angle_gamma 90.146841
loop_
_atom_site_label
_atom_site_type_symbol
_atom_site_fract_x
_atom_site_fract_y
_atom_site_fract_z
_atom_type_partial_charge
C0 C 0.98549 0.91683 0.07928 0.0
C1 C 0.82091 0.98856 0.06614 0.0
C2 C 0.85256 0.05005 0.88557 0.0
Mg3 Mg 0.07513 0.9549 0.01863 0.0
Mg4 Mg 0.09563 0.083 0.998 0.0
O5 O 0.05532 0.02451 0.9792 0.0
Mg6 Mg 0.99074 0.02843 1.00281 0.0
O7 O 0.92615 0.02261 0.02568 0.0
Mg8 Mg 0.90585 0.95388 0.97333 0.0
Mg9 Mg 0.88431 0.07911 0.02662 0.0
C10 C 1.01013 0.13979 0.92703 0.0
O11 O 1.0003 0.09995 0.08326 0.0
O12 O 0.13892 0.95916 0.96213 0.0
O13 O 0.93053 0.13805 0.07804 0.0
O14 O 0.11416 1.00023 0.10709 0.0
O15 O 0.15203 0.04777 0.94964 0.0
O16 O 0.11328 0.0902 0.10022 0.0
O17 O 0.9727 0.96039 0.92433 0.0
O18 O 0.03516 0.91037 0.93151 0.0
C19 C 0.99549 0.91913 0.90568 0.0
C20 C 0.16212 0.9973 0.94119 0.0
O21 O 0.98207 0.10084 0.93464 0.0
O22 O 0.8419 0.95397 0.03087 0.0
O23 O 0.05128 0.14086 0.95162 0.0
O24 O 0.86661 1.00191 0.89479 0.0
O25 O 0.83236 0.03896 0.07385 0.0
O26 O 0.85857 0.08895 0.92895 0.0
O27 O 1.0083 0.959 0.06859 0.0
O28 O 0.94592 0.90775 0.05163 0.0
C29 C 0.12328 0.04847 0.13116 0.0
C30 C 0.97248 0.13817 0.09859 0.0
Cu31 Cu 0.06793 0.54221 0.50239 0.0
N32 N 0.09306 0.50975 0.57519 0.0
N33 N 0.09433 0.45616 0.65773 0.0
C34 C 0.07105 0.47129 0.60374 0.0
C35 C 0.13257 0.48637 0.66329 0.0
C36 C 0.13167 0.51966 0.61235 0.0
O37 O 0.04704 0.48222 0.44163 0.0
C38 C 0.0428 0.63406 0.56731 0.0
O39 O 0.08703 0.63764 0.57183 0.0
H40 H 0.03822 0.45558 0.58524 0.0
H41 H 0.15685 0.54958 0.60386 0.0
N42 N 0.10786 0.58343 0.45949 0.0
N43 N 0.12841 0.64637 0.39458 0.0
C44 C 0.09368 0.62118 0.41882 0.0
C45 C 0.15324 0.5844 0.46106 0.0
C46 C 0.16599 0.62336 0.42105 0.0
C47 C 0.07868 0.449 0.42936 0.0
O48 O 0.11932 0.45855 0.4573 0.0
H49 H 0.05836 0.63012 0.40828 0.0
H50 H 0.17545 0.55885 0.48931 0.0
O51 O 0.02365 0.59306 0.5356 0.0
H52 H 0.15897 0.48498 0.70198 0.0
H53 H 0.20022 0.63411 0.41218 0.0
Cu54 Cu 0.48935 1.0074 0.51283 0.0
N55 N 0.47006 0.96422 0.57596 0.0
N56 N 0.4334 0.94281 0.66025 0.0
C57 C 0.43552 0.97649 0.61228 0.0
C58 C 0.46839 0.9086 0.65507 0.0
C59 C 0.49081 0.92157 0.60245 0.0
O60 O 0.43738 0.04173 0.46921 0.0
C61 C 0.57122 0.03737 0.57584 0.0
O62 O 0.57739 0.98516 0.56256 0.0
H63 H 0.41384 1.0113 0.60581 0.0
H64 H 0.52123 0.90283 0.58648 0.0
N65 N 0.51857 0.96775 0.44932 0.0
N66 N 0.56478 0.95289 0.37081 0.0
C67 C 0.54731 0.99013 0.41176 0.0
C68 C 0.51744 0.91425 0.43134 0.0
C69 C 0.54612 0.90485 0.38266 0.0
C70 C 0.40058 0.01478 0.4581 0.0
O71 O 0.39828 0.96513 0.47703 0.0
H72 H 0.55577 0.03307 0.41508 0.0
H73 H 0.49755 0.88427 0.45244 0.0
O74 O 0.53365 0.05832 0.55712 0.0
H75 H 0.47759 0.87743 0.68781 0.0
H76 H 0.55281 0.86579 0.35858 0.0
H77 H 0.96325 0.21902 0.14506 0.0
C78 C 0.98741 0.18602 0.14105 0.0
H79 H 0.05118 0.15799 0.1771 0.0
H80 H 0.04453 0.42895 0.24034 0.0
H81 H 0.05687 0.43303 0.12699 0.0
H82 H 0.0602 0.349 0.05626 0.0
H83 H 0.05074 0.2604 0.0982 0.0
C84 C 0.0269 0.19089 0.17673 0.0
C85 C 0.03473 0.24028 0.22163 0.0
C86 C 0.04086 0.29175 0.19672 0.0
C87 C 0.03961 0.34013 0.23778 0.0
C88 C 0.04536 0.39093 0.21133 0.0
C89 C 0.05246 0.39385 0.14639 0.0
C90 C 0.0542 0.34656 0.1065 0.0
C91 C 0.0485 0.296 0.13108 0.0
H92 H 0.09997 0.37089 0.38581 0.0
C93 C 0.07189 0.39916 0.38656 0.0
H94 H 1.0067 0.41586 0.3447 0.0
H95 H 0.02549 0.14811 0.28555 0.0
H96 H 0.01386 0.1437 0.39907 0.0
H97 H 1.01018 0.22757 0.46992 0.0
H98 H 0.01864 0.31627 0.42813 0.0
C99 C 0.0346 0.38749 0.34768 0.0
C100 C 0.03308 0.33694 0.30401 0.0
C101 C 0.02819 0.28534 0.3293 0.0
C102 C 0.02951 0.23697 0.28818 0.0
C103 C 0.02438 0.18607 0.31462 0.0
C104 C 0.01778 0.18296 0.37966 0.0
C105 C 0.01586 0.23018 0.41962 0.0
C106 C 0.02095 0.28085 0.39503 0.0
H107 H 0.77423 0.9254 0.09286 0.0
C108 C 0.78313 0.96833 0.10024 0.0
H109 H 0.76815 0.04369 0.14809 0.0
H110 H 0.56916 0.9761 0.19923 0.0
H111 H 0.55389 0.03514 0.11162 0.0
H112 H 0.61591 0.0689 0.0525 0.0
H113 H 0.69354 0.04371 0.08052 0.0
C114 C 0.76062 1.00042 0.14123 0.0
C115 C 0.72335 0.97865 0.17615 0.0
C116 C 0.67824 0.9943 0.15975 0.0
C117 C 0.64255 0.97542 0.1944 0.0
C118 C 0.59768 0.99046 0.17569 0.0
C119 C 0.5884 0.024 0.12517 0.0
C120 C 0.62331 0.04297 0.09184 0.0
C121 C 0.66774 0.0283 0.10856 0.0
H122 H 0.60871 1.00689 0.32512 0.0
C123 C 0.59761 0.96486 0.32633 0.0
H124 H 0.60688 0.88408 0.2888 0.0
H125 H 0.80627 0.94235 0.22189 0.0
H126 H 0.82125 0.88228 0.30825 0.0
H127 H 0.75916 0.84827 0.36697 0.0
H128 H 0.6817 0.87443 0.33982 0.0
C129 C 0.61582 0.92667 0.28744 0.0
C130 C 0.65215 0.94166 0.24624 0.0
C131 C 0.69708 0.92467 0.26138 0.0
C132 C 0.73282 0.94363 0.2268 0.0
C133 C 0.77764 0.92809 0.24519 0.0
C134 C 0.78679 0.89386 0.29505 0.0
C135 C 0.75185 0.87477 0.32817 0.0
C136 C 0.7075 0.89006 0.31199 0.0
H137 H 0.98313 0.84219 0.13131 0.0
C138 C 1.00506 0.87555 0.12139 0.0
H139 H 0.07037 0.91019 0.13878 0.0
H140 H 0.11076 0.79349 0.39969 0.0
H141 H 0.11682 0.88905 0.43606 0.0
H142 H 0.0993 0.96042 0.36059 0.0
H143 H 0.07569 0.93679 0.24832 0.0
C144 C 0.04813 0.87675 0.14696 0.0
C145 C 0.06531 0.83401 0.19018 0.0
C146 C 0.07976 0.84859 0.25553 0.0
C147 C 0.08988 0.80735 0.29917 0.0
C148 C 0.10292 0.82307 0.36449 0.0
C149 C 0.10644 0.87778 0.38604 0.0
C150 C 0.09652 0.91797 0.34356 0.0
C151 C 0.08306 0.90381 0.27914 0.0
H152 H 0.1585 0.70691 0.33833 0.0
C153 C 0.12689 0.68945 0.35064 0.0
H154 H 0.05572 0.69059 0.33378 0.0
H155 H 0.05016 0.79236 0.06525 0.0
H156 H 0.04673 0.69689 0.02817 0.0
H157 H 0.06072 0.62545 0.10467 0.0
H158 H 0.07893 0.64917 0.21862 0.0
C159 C 0.08767 0.70846 0.32424 0.0
C160 C 0.08559 0.75167 0.27734 0.0
C161 C 0.07432 0.73725 0.21113 0.0
C162 C 0.06499 0.77841 0.1673 0.0
C163 C 0.05568 0.76274 0.10102 0.0
C164 C 0.05404 0.70808 0.07899 0.0
C165 C 0.062 0.66787 0.12204 0.0
C166 C 0.0722 0.68203 0.18735 0.0
H167 H 0.14217 0.08715 0.22878 0.0
C168 C 0.15062 0.05535 0.19322 0.0
H169 H 0.19568 0.99413 0.16578 0.0
H170 H 0.31359 0.12594 0.41508 0.0
H171 H 0.30082 0.20931 0.36083 0.0
H172 H 0.2526 0.20935 0.25903 0.0
H173 H 0.21556 0.12685 0.21239 0.0
C174 C 0.18769 0.0248 0.20309 0.0
C175 C 0.21737 0.0269 0.26437 0.0
C176 C 0.24123 0.07505 0.28836 0.0
C177 C 0.27218 0.07414 0.3441 0.0
C178 C 0.29225 0.12367 0.37053 0.0
C179 C 0.28484 0.1719 0.34023 0.0
C180 C 0.25748 0.17199 0.28315 0.0
C181 C 0.23596 0.12427 0.25721 0.0
H182 H 0.37069 0.05749 0.3755 0.0
C183 C 0.36281 0.03501 0.41632 0.0
H184 H 0.31323 0.99882 0.46605 0.0
H185 H 0.17396 0.92897 0.23556 0.0
H186 H 0.18963 0.84492 0.2864 0.0
H187 H 0.24855 0.84109 0.37593 0.0
H188 H 0.29191 0.92103 0.41524 0.0
C189 C 0.31992 0.02038 0.42397 0.0
C190 C 0.28249 0.0242 0.37209 0.0
C191 C 0.25798 0.97629 0.34876 0.0
C192 C 0.22492 0.97799 0.29576 0.0
C193 C 0.20028 0.92984 0.27452 0.0
C194 C 0.20874 0.88122 0.30345 0.0
C195 C 0.24182 0.87912 0.35392 0.0
C196 C 0.26637 0.92575 0.37629 0.0
H197 H 0.93976 0.885 0.83763 0.0
C198 C 0.97468 0.87938 0.85556 0.0
H199 H 0.03288 0.83104 0.85039 0.0
H200 H 0.9693 0.61027 0.7263 0.0
H201 H 0.97971 0.58878 0.83834 0.0
H202 H 0.98864 0.66184 0.92532 0.0
H203 H 0.98764 0.75691 0.90065 0.0
C204 C 0.99839 0.83751 0.8311 0.0
C205 C 0.97932 0.79601 0.78086 0.0
C206 C 0.97806 0.74076 0.79602 0.0
C207 C 0.97232 0.69864 0.74591 0.0
C208 C 0.97341 0.64382 0.76242 0.0
C209 C 0.97922 0.63094 0.82657 0.0
C210 C 0.98428 0.67207 0.87555 0.0
C211 C 0.98381 0.7264 0.86075 0.0
H212 H 0.03735 0.71514 0.61346 0.0
C213 C 0.01839 0.67747 0.6015 0.0
H214 H 0.96193 0.63163 0.62233 0.0
H215 H 0.97458 0.89794 0.73404 0.0
H216 H 0.95707 0.91861 0.62308 0.0
H217 H 0.94219 0.84514 0.53768 0.0
H218 H 0.94569 0.75004 0.56322 0.0
C219 C 0.97967 0.67043 0.62918 0.0
C220 C 0.96785 0.71197 0.68071 0.0
C221 C 0.96252 0.76714 0.66634 0.0
C222 C 0.96936 0.80941 0.71613 0.0
C223 C 0.96812 0.86407 0.69896 0.0
C224 C 0.95829 0.87655 0.6352 0.0
C225 C 0.95003 0.8352 0.58706 0.0
C226 C 0.95229 0.781 0.60217 0.0
H227 H 0.19822 0.94116 0.877 0.0
C228 C 0.19961 0.98147 0.9017 0.0
H229 H 0.23552 0.05534 0.91922 0.0
H230 H 0.3601 0.86853 0.75891 0.0
H231 H 0.353 0.81136 0.84769 0.0
H232 H 0.31067 0.84257 0.94023 0.0
H233 H 0.27348 0.93011 0.94285 0.0
C234 C 0.23422 0.01516 0.89424 0.0
C235 C 0.26839 1.00136 0.84686 0.0
C236 C 0.29355 0.95243 0.84922 0.0
C237 C 0.32163 0.93676 0.79897 0.0
C238 C 0.34144 0.88449 0.79831 0.0
C239 C 0.33717 0.85091 0.84866 0.0
C240 C 0.31308 0.86831 0.90052 0.0
C241 C 0.29148 0.91843 0.90107 0.0
H242 H 0.41712 0.94221 0.7603 0.0
C243 C 0.40354 0.94738 0.71121 0.0
H244 H 0.34693 0.9631 0.649 0.0
H245 H 0.22506 0.0979 0.82652 0.0
H246 H 0.23806 0.15902 0.74384 0.0
H247 H 0.29404 0.1374 0.66488 0.0
H248 H 0.33658 0.054 0.66735 0.0
C249 C 0.35965 0.95898 0.6987 0.0
C250 C 0.32868 0.97294 0.75035 0.0
C251 C 0.30549 0.02331 0.7501 0.0
C252 C 0.27457 0.0369 0.79736 0.0
C253 C 0.25002 0.08604 0.79336 0.0
C254 C 0.25699 0.12159 0.74586 0.0
C255 C 0.2884 0.10936 0.70132 0.0
C256 C 0.31246 0.06099 0.70318 0.0
H257 H 0.96403 0.18103 0.8562 0.0
C258 C 0.99655 0.18363 0.88403 0.0
H259 H 0.058 0.22727 0.9045 0.0
H260 H 0.04116 0.30452 0.61593 0.0
H261 H 0.04219 0.20892 0.57993 0.0
H262 H 0.03286 0.13789 0.65573 0.0
H263 H 0.02251 0.1618 0.76791 0.0
C264 C 0.0261 0.22379 0.87518 0.0
C265 C 0.01931 0.26488 0.82609 0.0
C266 C 0.0245 0.25004 0.76015 0.0
C267 C 0.03025 0.29109 0.71637 0.0
C268 C 0.0365 0.27513 0.65119 0.0
C269 C 0.0372 0.22039 0.62982 0.0
C270 C 0.032 0.18038 0.67255 0.0
C271 C 0.02597 0.19475 0.73699 0.0
H272 H 0.10539 0.40955 0.74291 0.0
C273 C 0.08182 0.41699 0.70191 0.0
H274 H 0.01863 0.39439 0.65296 0.0
H275 H 1.00471 0.30703 0.9469 0.0
H276 H 1.00146 0.40288 0.98232 0.0
H277 H 1.01069 0.4739 0.90627 0.0
H278 H 0.0235 0.44968 0.7945 0.0
C279 C 0.04239 0.3891 0.69416 0.0
C280 C 0.03149 0.34678 0.73872 0.0
C281 C 0.02308 0.36164 0.80351 0.0
C282 C 0.01724 0.32066 0.84721 0.0
C283 C 1.00968 0.33661 0.91192 0.0
C284 C 1.00752 0.3914 0.93276 0.0
C285 C 0.01272 0.4314 0.88994 0.0
C286 C 0.02032 0.41695 0.82599 0.0
H287 H 0.81895 0.02366 0.7908 0.0
C288 C 0.82312 0.05788 0.82652 0.0
H289 H 0.79759 0.13414 0.8581 0.0
H290 H 0.70329 0.07144 0.55762 0.0
H291 H 0.77774 0.08845 0.52192 0.0
H292 H 0.84248 0.11134 0.6007 0.0
H293 H 0.83324 0.11709 0.71574 0.0
C294 C 0.7956 0.10094 0.82098 0.0
C295 C 0.75563 0.09797 0.77287 0.0
C296 C 0.76132 0.09604 0.70599 0.0
C297 C 0.72391 0.08327 0.66062 0.0
C298 C 0.73072 0.08058 0.59408 0.0
C299 C 0.77317 0.0905 0.57299 0.0
C300 C 0.80963 0.10337 0.61736 0.0
C301 C 0.80396 0.10625 0.68316 0.0
H302 H 0.59949 0.11118 0.63235 0.0
C303 C 0.60637 0.0694 0.61619 0.0
H304 H 0.65282 1.00465 0.61826 0.0
H305 H 0.73185 0.10547 0.89755 0.0
H306 H 0.65739 0.09056 0.93306 0.0
H307 H 0.59274 0.06705 0.85454 0.0
H308 H 0.60213 0.05855 0.74019 0.0
C309 C 0.64548 0.04589 0.63605 0.0
C310 C 0.68079 0.07282 0.6821 0.0
C311 C 0.67437 0.07878 0.74891 0.0
C312 C 0.7118 0.09184 0.7943 0.0
C313 C 0.70473 0.09586 0.86086 0.0
C314 C 0.66211 0.08731 0.88201 0.0
C315 C 0.62572 0.07409 0.83781 0.0
C316 C 0.6316 0.06951 0.77209 0.0
loop_
_geom_bond_atom_site_label_1
_geom_bond_atom_site_label_2
_geom_bond_distance
_geom_bond_site_symmetry_2
_ccdc_geom_bond_type
C0 O27 1.312 1_655 S
C0 O28 1.208 . S
C1 O22 1.331 1_545 S
C1 O25 1.244 . S
C2 O24 1.264 1_545 S
C2 O26 1.273 . S
Mg3 O5 1.936 1_564 S
Mg3 O12 2.081 1_554 S
Mg3 O14 2.023 . S
Mg3 O18 2.031 1_554 S
Mg3 O27 2.291 . S
Mg4 O5 1.963 . S
Mg4 O15 1.942 . S
Mg4 O16 1.955 1_556 S
Mg4 O23 1.986 . S
O5 Mg3 1.936 1_546 S
O5 Mg4 1.963 . S
O5 Mg6 1.915 1_556 S
Mg6 O5 1.915 1_554 S
Mg6 O7 1.915 1_455 S
Mg6 O11 2.013 . S
Mg6 O17 2.114 1_444 S
Mg6 O21 2.013 1_454 S
Mg6 O27 2.114 1_545 S
O7 Mg6 1.915 1_655 S
O7 Mg8 1.936 1_544 S
O7 Mg9 1.963 . S
Mg8 O7 1.936 1_566 S
Mg8 O17 2.291 . S
Mg8 O22 2.081 1_556 S
Mg8 O24 2.023 . S
Mg8 O28 2.031 1_556 S
Mg9 O7 1.963 . S
Mg9 O13 1.986 . S
Mg9 O25 1.942 . S
Mg9 O26 1.955 1_554 S
C10 O21 1.191 1_455 S
C10 O23 1.307 . S
O11 Mg6 2.013 . S
O11 C30 1.191 1_455 S
O12 Mg3 2.081 1_556 S
O12 C20 1.331 . S
O13 Mg9 1.986 . S
O13 C30 1.307 . S
O14 Mg3 2.023 . S
O14 C29 1.264 1_565 S
O15 Mg4 1.942 . S
O15 C20 1.244 1_545 S
O16 Mg4 1.955 1_554 S
O16 C29 1.273 . S
O17 Mg6 2.114 1_666 S
O17 Mg8 2.291 . S
O17 C19 1.312 1_655 S
O18 Mg3 2.031 1_556 S
O18 C19 1.208 . S
C19 O17 1.312 1_455 S
C19 O18 1.208 . S
C20 O12 1.331 . S
C20 O15 1.244 1_565 S
O21 Mg6 2.013 1_656 S
O21 C10 1.191 1_655 S
O22 C1 1.331 1_565 S
O22 Mg8 2.081 1_554 S
O23 Mg4 1.986 . S
O23 C10 1.307 . S
O24 C2 1.264 1_565 S
O24 Mg8 2.023 . S
O25 C1 1.244 . S
O25 Mg9 1.942 . S
O26 C2 1.273 . S
O26 Mg9 1.955 1_556 S
O27 C0 1.312 1_455 S
O27 Mg3 2.291 . S
O27 Mg6 2.114 1_565 S
O28 C0 1.208 . S
O28 Mg8 2.031 1_554 S
C29 O14 1.264 1_545 S
C29 O16 1.273 . S
C30 O11 1.191 1_655 S
C30 O13 1.307 . S
Cu31 N32 1.999 . S
Cu31 O37 1.974 . S
Cu31 N42 1.985 . S
Cu31 O51 1.959 . S
N32 Cu31 1.999 . S
N32 C34 1.263 . S
N32 C36 1.389 . S
N33 C34 1.358 . S
N33 C35 1.400 . S
C34 N32 1.263 . S
C34 N33 1.358 . S
C34 H40 0.930 1_655 S
C35 N33 1.400 . S
C35 C36 1.351 . S
C35 H52 0.930 . S
C36 N32 1.389 . S
C36 C35 1.351 . S
C36 H41 0.930 . S
O37 Cu31 1.974 . S
O37 C47 1.282 1_655 S
C38 O39 1.261 . S
C38 O51 1.251 1_455 S
O39 C38 1.261 . S
H40 C34 0.930 1_455 S
H41 C36 0.930 . S
N42 Cu31 1.985 . S
N42 C44 1.335 . S
N42 C45 1.390 1_655 S
N43 C44 1.345 . S
N43 C46 1.336 1_655 S
C44 N42 1.335 . S
C44 N43 1.345 . S
C44 H49 0.930 . S
C45 N42 1.390 1_455 S
C45 C46 1.346 . S
C45 H50 0.930 . S
C46 N43 1.336 1_455 S
C46 C45 1.346 . S
C46 H53 0.929 . S
C47 O37 1.282 1_455 S
C47 O48 1.216 . S
O48 C47 1.216 . S
H49 C44 0.930 . S
H50 C45 0.930 . S
O51 Cu31 1.959 . S
O51 C38 1.251 1_655 S
H52 C35 0.930 . S
H53 C46 0.929 . S
Cu54 N55 1.999 . S
Cu54 O60 1.974 . S
Cu54 N65 1.985 . S
Cu54 O74 1.959 . S
N55 Cu54 1.999 . S
N55 C57 1.263 . S
N55 C59 1.389 . S
N56 C57 1.358 . S
N56 C58 1.400 . S
C57 N55 1.263 . S
C57 N56 1.358 . S
C57 H63 0.930 1_545 S
C58 N56 1.400 . S
C58 C59 1.351 . S
C58 H75 0.930 . S
C59 N55 1.389 . S
C59 C58 1.351 . S
C59 H64 0.930 . S
O60 Cu54 1.974 . S
O60 C70 1.282 1_545 S
C61 O62 1.261 . S
C61 O74 1.251 1_565 S
O62 C61 1.261 . S
H63 C57 0.930 1_565 S
H64 C59 0.930 . S
N65 Cu54 1.985 . S
N65 C67 1.335 . S
N65 C68 1.390 1_545 S
N66 C67 1.345 . S
N66 C69 1.336 1_545 S
C67 N65 1.335 . S
C67 N66 1.345 . S
C67 H72 0.930 . S
C68 N65 1.390 1_565 S
C68 C69 1.346 . S
C68 H73 0.930 . S
C69 N66 1.336 1_565 S
C69 C68 1.346 . S
C69 H76 0.929 . S
C70 O60 1.282 1_565 S
C70 O71 1.216 . S
O71 C70 1.216 . S
H72 C67 0.930 . S
H73 C68 0.930 . S
O74 Cu54 1.959 . S
O74 C61 1.251 1_545 S
H75 C58 0.930 . S
H76 C69 0.929 . S
H77 C78 0.951 . S
C78 H77 0.951 . S
C78 C84 1.265 1_655 S
H79 C84 0.950 . S
H80 C88 0.949 . S
H81 C89 0.950 . S
H82 C90 0.951 . S
H83 C91 0.951 . S
C84 C78 1.265 1_455 S
C84 H79 0.950 . S
C84 C85 1.478 . S
C85 C84 1.478 . S
C85 C86 1.397 . S
C85 C102 1.394 1_455 S
C86 C85 1.397 . S
C86 C87 1.438 . S
C86 C91 1.429 . S
C87 C86 1.438 . S
C87 C88 1.428 . S
C87 C100 1.394 . S
C88 H80 0.949 . S
C88 C87 1.428 . S
C88 C89 1.345 . S
C89 H81 0.950 . S
C89 C88 1.345 . S
C89 C90 1.424 . S
C90 H82 0.951 . S
C90 C89 1.424 . S
C90 C91 1.347 . S
C91 H83 0.951 . S
C91 C86 1.429 . S
C91 C90 1.347 . S
H92 C93 0.951 . S
C93 H92 0.951 . S
C93 C99 1.265 1_455 S
H94 C99 0.950 . S
H95 C103 0.949 . S
H96 C104 0.950 . S
H97 C105 0.951 . S
H98 C106 0.951 . S
C99 C93 1.265 1_655 S
C99 H94 0.950 . S
C99 C100 1.478 1_655 S
C100 C87 1.394 . S
C100 C99 1.478 1_455 S
C100 C101 1.397 1_455 S
C101 C100 1.397 1_655 S
C101 C102 1.438 . S
C101 C106 1.429 . S
C102 C85 1.394 1_655 S
C102 C101 1.438 . S
C102 C103 1.428 . S
C103 H95 0.949 . S
C103 C102 1.428 . S
C103 C104 1.345 . S
C104 H96 0.950 . S
C104 C103 1.345 . S
C104 C105 1.424 . S
C105 H97 0.951 . S
C105 C104 1.424 . S
C105 C106 1.347 . S
C106 H98 0.951 . S
C106 C101 1.429 . S
C106 C105 1.347 . S
H107 C108 0.951 1_565 S
C108 H107 0.951 1_545 S
C108 C114 1.265 . S
H109 C114 0.950 . S
H110 C118 0.949 . S
H111 C119 0.950 . S
H112 C120 0.951 . S
H113 C121 0.951 . S
C114 C108 1.265 . S
C114 H109 0.950 . S
C114 C115 1.478 . S
C115 C114 1.478 . S
C115 C116 1.397 . S
C115 C132 1.394 1_545 S
C116 C115 1.397 . S
C116 C117 1.438 . S
C116 C121 1.429 . S
C117 C116 1.438 . S
C117 C118 1.428 . S
C117 C130 1.394 . S
C118 H110 0.949 . S
C118 C117 1.428 . S
C118 C119 1.345 . S
C119 H111 0.950 . S
C119 C118 1.345 . S
C119 C120 1.424 . S
C120 H112 0.951 . S
C120 C119 1.424 . S
C120 C121 1.347 . S
C121 H113 0.951 . S
C121 C116 1.429 . S
C121 C120 1.347 . S
H122 C123 0.951 . S
C123 H122 0.951 . S
C123 C129 1.265 . S
H124 C129 0.950 . S
H125 C133 0.949 . S
H126 C134 0.950 . S
H127 C135 0.951 . S
H128 C136 0.951 . S
C129 C123 1.265 . S
C129 H124 0.950 . S
C129 C130 1.478 . S
C130 C117 1.394 . S
C130 C129 1.478 . S
C130 C131 1.397 1_545 S
C131 C130 1.397 1_565 S
C131 C132 1.438 . S
C131 C136 1.429 . S
C132 C115 1.394 1_565 S
C132 C131 1.438 . S
C132 C133 1.428 . S
C133 H125 0.949 . S
C133 C132 1.428 . S
C133 C134 1.345 . S
C134 H126 0.950 . S
C134 C133 1.345 . S
C134 C135 1.424 . S
C135 H127 0.951 . S
C135 C134 1.424 . S
C135 C136 1.347 . S
C136 H128 0.951 . S
C136 C131 1.429 . S
C136 C135 1.347 . S
H137 C138 0.934 1_655 S
C138 H137 0.934 1_455 S
C138 C144 1.274 . S
H139 C144 0.950 . S
H140 C148 0.949 . S
H141 C149 0.950 . S
H142 C150 0.951 . S
H143 C151 0.951 . S
C144 C138 1.274 . S
C144 H139 0.950 . S
C144 C145 1.478 . S
C145 C144 1.478 . S
C145 C146 1.397 . S
C145 C162 1.394 1_455 S
C146 C145 1.397 . S
C146 C147 1.438 . S
C146 C151 1.429 . S
C147 C146 1.438 . S
C147 C148 1.428 . S
C147 C160 1.394 1_455 S
C148 H140 0.949 . S
C148 C147 1.428 . S
C148 C149 1.345 . S
C149 H141 0.950 . S
C149 C148 1.345 . S
C149 C150 1.424 . S
C150 H142 0.951 . S
C150 C149 1.424 . S
C150 C151 1.347 . S
C151 H143 0.951 . S
C151 C146 1.429 . S
C151 C150 1.347 . S
H152 C153 0.951 1_455 S
C153 H152 0.951 1_655 S
C153 C159 1.265 . S
H154 C159 0.950 . S
H155 C163 0.949 . S
H156 C164 0.950 . S
H157 C165 0.951 . S
H158 C166 0.951 . S
C159 C153 1.265 . S
C159 H154 0.950 . S
C159 C160 1.478 . S
C160 C147 1.394 1_655 S
C160 C159 1.478 . S
C160 C161 1.397 . S
C161 C160 1.397 . S
C161 C162 1.438 . S
C161 C166 1.429 . S
C162 C145 1.394 1_655 S
C162 C161 1.438 . S
C162 C163 1.428 . S
C163 H155 0.949 . S
C163 C162 1.428 . S
C163 C164 1.345 . S
C164 H156 0.950 . S
C164 C163 1.345 . S
C164 C165 1.424 . S
C165 H157 0.951 . S
C165 C164 1.424 . S
C165 C166 1.347 . S
C166 H158 0.951 . S
C166 C161 1.429 . S
C166 C165 1.347 . S
H167 C168 0.951 . S
C168 H167 0.951 . S
C168 C174 1.265 . S
H169 C174 0.950 . S
H170 C178 0.949 . S
H171 C179 0.950 . S
H172 C180 0.951 . S
H173 C181 0.951 . S
C174 C168 1.265 . S
C174 H169 0.950 . S
C174 C175 1.478 . S
C175 C174 1.478 . S
C175 C176 1.397 . S
C175 C192 1.394 1_545 S
C176 C175 1.397 . S
C176 C177 1.438 . S
C176 C181 1.429 . S
C177 C176 1.438 . S
C177 C178 1.428 . S
C177 C190 1.394 1_545 S
C178 H170 0.949 . S
C178 C177 1.428 . S
C178 C179 1.345 . S
C179 H171 0.950 . S
C179 C178 1.345 . S
C179 C180 1.424 . S
C180 H172 0.951 . S
C180 C179 1.424 . S
C180 C181 1.347 . S
C181 H173 0.951 . S
C181 C176 1.429 . S
C181 C180 1.347 . S
H182 C183 0.951 1_545 S
C183 H182 0.951 1_565 S
C183 C189 1.265 . S
H184 C189 0.950 . S
H185 C193 0.949 . S
H186 C194 0.950 . S
H187 C195 0.951 . S
H188 C196 0.951 . S
C189 C183 1.265 . S
C189 H184 0.950 . S
C189 C190 1.478 . S
C190 C177 1.394 1_565 S
C190 C189 1.478 . S
C190 C191 1.397 . S
C191 C190 1.397 . S
C191 C192 1.438 . S
C191 C196 1.429 . S
C192 C175 1.394 1_565 S
C192 C191 1.438 . S
C192 C193 1.428 . S
C193 H185 0.949 . S
C193 C192 1.428 . S
C193 C194 1.345 . S
C194 H186 0.950 . S
C194 C193 1.345 . S
C194 C195 1.424 . S
C195 H187 0.951 . S
C195 C194 1.424 . S
C195 C196 1.347 . S
C196 H188 0.951 . S
C196 C191 1.429 . S
C196 C195 1.347 . S
H197 C198 0.951 . S
C198 H197 0.951 . S
C198 C204 1.265 1_655 S
H199 C204 0.950 . S
H200 C208 0.949 . S
H201 C209 0.949 1_655 S
H202 C210 0.951 . S
H203 C211 0.951 . S
C204 C198 1.265 1_455 S
C204 H199 0.950 . S
C204 C205 1.478 . S
C205 C204 1.478 . S
C205 C206 1.397 . S
C205 C222 1.394 . S
C206 C205 1.397 . S
C206 C207 1.438 . S
C206 C211 1.429 . S
C207 C206 1.438 . S
C207 C208 1.428 1_455 S
C207 C220 1.394 1_455 S
C208 H200 0.949 . S
C208 C207 1.428 1_655 S
C208 C209 1.345 1_655 S
C209 H201 0.949 1_455 S
C209 C208 1.345 1_455 S
C209 C210 1.424 . S
C210 H202 0.951 . S
C210 C209 1.424 . S
C210 C211 1.347 . S
C211 H203 0.951 . S
C211 C206 1.429 . S
C211 C210 1.347 . S
H212 C213 0.951 . S
C213 H212 0.951 . S
C213 C219 1.265 1_455 S
H214 C219 0.950 . S
H215 C223 0.949 . S
H216 C224 0.950 . S
H217 C225 0.951 . S
H218 C226 0.951 1_655 S
C219 C213 1.265 1_655 S
C219 H214 0.950 . S
C219 C220 1.479 . S
C220 C207 1.394 1_655 S
C220 C219 1.479 . S
C220 C221 1.396 1_655 S
C221 C220 1.396 1_455 S
C221 C222 1.438 . S
C221 C226 1.429 . S
C222 C205 1.394 . S
C222 C221 1.438 . S
C222 C223 1.428 . S
C223 H215 0.949 . S
C223 C222 1.428 . S
C223 C224 1.345 . S
C224 H216 0.950 . S
C224 C223 1.345 . S
C224 C225 1.424 . S
C225 H217 0.951 . S
C225 C224 1.424 . S
C225 C226 1.347 . S
C226 H218 0.951 1_455 S
C226 C221 1.429 . S
C226 C225 1.347 . S
H227 C228 0.951 1_545 S
C228 H227 0.951 1_565 S
C228 C234 1.265 . S
H229 C234 0.950 . S
H230 C238 0.949 . S
H231 C239 0.950 . S
H232 C240 0.951 . S
H233 C241 0.951 . S
C234 C228 1.265 . S
C234 H229 0.950 . S
C234 C235 1.478 . S
C235 C234 1.478 . S
C235 C236 1.397 . S
C235 C252 1.394 1_565 S
C236 C235 1.397 . S
C236 C237 1.438 . S
C236 C241 1.429 . S
C237 C236 1.438 . S
C237 C238 1.428 . S
C237 C250 1.394 1_565 S
C238 H230 0.949 . S
C238 C237 1.428 . S
C238 C239 1.345 . S
C239 H231 0.950 . S
C239 C238 1.345 . S
C239 C240 1.424 . S
C240 H232 0.951 . S
C240 C239 1.424 . S
C240 C241 1.347 . S
C241 H233 0.951 . S
C241 C236 1.429 . S
C241 C240 1.347 . S
H242 C243 0.951 . S
C243 H242 0.951 . S
C243 C249 1.265 . S
H244 C249 0.950 . S
H245 C253 0.949 . S
H246 C254 0.950 . S
H247 C255 0.951 . S
H248 C256 0.951 . S
C249 C243 1.265 . S
C249 H244 0.950 . S
C249 C250 1.478 . S
C250 C237 1.394 1_545 S
C250 C249 1.478 . S
C250 C251 1.397 . S
C251 C250 1.397 . S
C251 C252 1.438 . S
C251 C256 1.429 . S
C252 C235 1.394 1_545 S
C252 C251 1.438 . S
C252 C253 1.428 . S
C253 H245 0.949 . S
C253 C252 1.428 . S
C253 C254 1.345 . S
C254 H246 0.950 . S
C254 C253 1.345 . S
C254 C255 1.424 . S
C255 H247 0.951 . S
C255 C254 1.424 . S
C255 C256 1.347 . S
C256 H248 0.951 . S
C256 C251 1.429 . S
C256 C255 1.347 . S
H257 C258 0.951 . S
C258 H257 0.951 . S
C258 C264 1.265 1_655 S
H259 C264 0.950 . S
H260 C268 0.949 . S
H261 C269 0.950 . S
H262 C270 0.951 . S
H263 C271 0.951 . S
C264 C258 1.265 1_455 S
C264 H259 0.950 . S
C264 C265 1.478 . S
C265 C264 1.478 . S
C265 C266 1.397 . S
C265 C282 1.394 1_455 S
C266 C265 1.397 . S
C266 C267 1.438 . S
C266 C271 1.429 . S
C267 C266 1.438 . S
C267 C268 1.428 . S
C267 C280 1.394 1_455 S
C268 H260 0.949 . S
C268 C267 1.428 . S
C268 C269 1.345 . S
C269 H261 0.950 . S
C269 C268 1.345 . S
C269 C270 1.424 . S
C270 H262 0.951 . S
C270 C269 1.424 . S
C270 C271 1.347 . S
C271 H263 0.951 . S
C271 C266 1.429 . S
C271 C270 1.347 . S
H272 C273 0.951 1_455 S
C273 H272 0.951 1_655 S
C273 C279 1.265 . S
H274 C279 0.950 . S
H275 C283 0.949 . S
H276 C284 0.950 . S
H277 C285 0.951 . S
H278 C286 0.951 . S
C279 C273 1.265 . S
C279 H274 0.950 . S
C279 C280 1.478 . S
C280 C267 1.394 1_655 S
C280 C279 1.478 . S
C280 C281 1.397 . S
C281 C280 1.397 . S
C281 C282 1.438 . S
C281 C286 1.429 . S
C282 C265 1.394 1_655 S
C282 C281 1.438 . S
C282 C283 1.428 . S
C283 H275 0.949 . S
C283 C282 1.428 . S
C283 C284 1.345 . S
C284 H276 0.950 . S
C284 C283 1.345 . S
C284 C285 1.424 . S
C285 H277 0.951 . S
C285 C284 1.424 . S
C285 C286 1.347 . S
C286 H278 0.951 . S
C286 C281 1.429 . S
C286 C285 1.347 . S
H287 C288 0.951 1_565 S
C288 H287 0.951 1_545 S
C288 C294 1.265 . S
H289 C294 0.950 . S
H290 C298 0.949 . S
H291 C299 0.950 . S
H292 C300 0.951 . S
H293 C301 0.951 . S
C294 C288 1.265 . S
C294 H289 0.950 . S
C294 C295 1.478 . S
C295 C294 1.478 . S
C295 C296 1.397 . S
C295 C312 1.394 1_545 S
C296 C295 1.397 . S
C296 C297 1.438 . S
C296 C301 1.429 . S
C297 C296 1.438 . S
C297 C298 1.428 . S
C297 C310 1.394 1_545 S
C298 H290 0.949 . S
C298 C297 1.428 . S
C298 C299 1.345 . S
C299 H291 0.950 . S
C299 C298 1.345 . S
C299 C300 1.424 . S
C300 H292 0.951 . S
C300 C299 1.424 . S
C300 C301 1.347 . S
C301 H293 0.951 . S
C301 C296 1.429 . S
C301 C300 1.347 . S
H302 C303 0.951 1_545 S
C303 H302 0.951 1_565 S
C303 C309 1.265 . S
H304 C309 0.950 . S
H305 C313 0.949 . S
H306 C314 0.950 . S
H307 C315 0.951 . S
H308 C316 0.951 . S
C309 C303 1.265 . S
C309 H304 0.950 . S
C309 C310 1.478 . S
C310 C297 1.394 1_565 S
C310 C309 1.478 . S
C310 C311 1.397 . S
C311 C310 1.397 . S
C311 C312 1.438 . S
C311 C316 1.429 . S
C312 C295 1.394 1_565 S
C312 C311 1.438 . S
C312 C313 1.428 . S
C313 H305 0.949 . S
C313 C312 1.428 . S
C313 C314 1.345 . S
C314 H306 0.950 . S
C314 C313 1.345 . S
C314 C315 1.424 . S
C315 H307 0.951 . S
C315 C314 1.424 . S
C315 C316 1.347 . S
C316 H308 0.951 . S
C316 C311 1.429 . S
C316 C315 1.347 . S
C78 C30 1.336 . S
C93 C47 1.385 . S
C108 C1 1.425 . S
C123 N66 1.482 . S
C138 C0 1.232 1_455 S
C153 N43 1.263 . S
C168 C29 1.641 . S
C183 C70 1.646 . S
C198 C19 1.441 1_655 S
C213 C38 1.464 . S
C228 C20 1.526 . S
C243 N56 1.482 . S
C273 N33 1.337 . S
C258 C10 1.341 1_655 S
C288 C2 1.648 . S
C303 C61 1.678 . S
