# Generated by pormake.
# Topology zzz, (3,6)-cn, num edge types: 1
# Building blocks:
#     Node 0, Type 0, BuildingBlock: OLANEW_clean_sbu_2, # of connection points: 3
#     Node 1, Type 0, BuildingBlock: OLANEW_clean_sbu_2, # of connection points: 3
#     Node 2, Type 0, BuildingBlock: OLANEW_clean_sbu_2, # of connection points: 3
#     Node 3, Type 0, BuildingBlock: OLANEW_clean_sbu_2, # of connection points: 3
#     Node 4, Type 0, BuildingBlock: OLANEW_clean_sbu_2, # of connection points: 3
#     Node 5, Type 0, BuildingBlock: OLANEW_clean_sbu_2, # of connection points: 3
#     Node 6, Type 0, BuildingBlock: OLANEW_clean_sbu_2, # of connection points: 3
#     Node 7, Type 0, BuildingBlock: OLANEW_clean_sbu_2, # of connection points: 3
#     Node 8, Type 1, BuildingBlock: VOLQOD_clean_sbu_1, # of connection points: 6
#     Node 9, Type 1, BuildingBlock: VOLQOD_clean_sbu_1, # of connection points: 6
#     Node 10, Type 1, BuildingBlock: VOLQOD_clean_sbu_1, # of connection points: 6
#     Node 11, Type 1, BuildingBlock: VOLQOD_clean_sbu_1, # of connection points: 6
#     Edge 12, Type (0, 1), BuildingBlock: CIFDUS_clean_linker_0, # of connection points: 2
#     Edge 13, Type (0, 1), BuildingBlock: CIFDUS_clean_linker_0, # of connection points: 2
#     Edge 14, Type (0, 1), BuildingBlock: CIFDUS_clean_linker_0, # of connection points: 2
#     Edge 15, Type (0, 1), BuildingBlock: CIFDUS_clean_linker_0, # of connection points: 2
#     Edge 16, Type (0, 1), BuildingBlock: CIFDUS_clean_linker_0, # of connection points: 2
#     Edge 17, Type (0, 1), BuildingBlock: CIFDUS_clean_linker_0, # of connection points: 2
#     Edge 18, Type (0, 1), BuildingBlock: CIFDUS_clean_linker_0, # of connection points: 2
#     Edge 19, Type (0, 1), BuildingBlock: CIFDUS_clean_linker_0, # of connection points: 2
#     Edge 20, Type (0, 1), BuildingBlock: CIFDUS_clean_linker_0, # of connection points: 2
#     Edge 21, Type (0, 1), BuildingBlock: CIFDUS_clean_linker_0, # of connection points: 2
#     Edge 22, Type (0, 1), BuildingBlock: CIFDUS_clean_linker_0, # of connection points: 2
#     Edge 23, Type (0, 1), BuildingBlock: CIFDUS_clean_linker_0, # of connection points: 2
#     Edge 24, Type (0, 1), BuildingBlock: CIFDUS_clean_linker_0, # of connection points: 2
#     Edge 25, Type (0, 1), BuildingBlock: CIFDUS_clean_linker_0, # of connection points: 2
#     Edge 26, Type (0, 1), BuildingBlock: CIFDUS_clean_linker_0, # of connection points: 2
#     Edge 27, Type (0, 1), BuildingBlock: CIFDUS_clean_linker_0, # of connection points: 2
#     Edge 28, Type (0, 1), BuildingBlock: CIFDUS_clean_linker_0, # of connection points: 2
#     Edge 29, Type (0, 1), BuildingBlock: CIFDUS_clean_linker_0, # of connection points: 2
#     Edge 30, Type (0, 1), BuildingBlock: CIFDUS_clean_linker_0, # of connection points: 2
#     Edge 31, Type (0, 1), BuildingBlock: CIFDUS_clean_linker_0, # of connection points: 2
#     Edge 32, Type (0, 1), BuildingBlock: CIFDUS_clean_linker_0, # of connection points: 2
#     Edge 33, Type (0, 1), BuildingBlock: CIFDUS_clean_linker_0, # of connection points: 2
#     Edge 34, Type (0, 1), BuildingBlock: CIFDUS_clean_linker_0, # of connection points: 2
#     Edge 35, Type (0, 1), BuildingBlock: CIFDUS_clean_linker_0, # of connection points: 2
# Relax obj value: 0.176
# Max RMSD: 0.229
# Mean RMSD: 0.108
data_MOF--net-zzz--node1-OLANEW_clean_sbu_2--node2-VOLQOD_clean_sbu_1--edge1-CIFDUS_clean_linker_0
_symmetry_space_group_name_H-M    P1
_symmetry_Int_Tables_number       1
_symmetry_cell_setting            triclinic
loop_
_symmetry_equiv_pos_as_xyz
'x, y, z'
_cell_length_a     47.809608
_cell_length_b     47.597625
_cell_length_c     16.928644
_cell_angle_alpha  90.189065
_cell_angle_beta   90.032788
_cell_angle_gamma 91.086258
loop_
_atom_site_label
_atom_site_type_symbol
_atom_site_fract_x
_atom_site_fract_y
_atom_site_fract_z
_atom_type_partial_charge
O0 O 0.80939 0.43294 0.10813 0.0
Cd1 Cd 0.76427 0.42646 0.17425 0.0
O2 O 0.8245 0.39106 0.13885 0.0
Cd3 Cd 0.80224 0.39465 0.25027 0.0
O4 O 0.82569 0.41109 0.35232 0.0
C5 C 0.8444 0.42978 0.33777 0.0
O6 O 0.8469 0.43924 0.26527 0.0
C7 C 0.82697 0.41349 0.09897 0.0
C8 C 0.72079 0.43992 0.07083 0.0
O9 O 0.72857 0.41444 0.07815 0.0
O10 O 0.73331 0.45877 0.11281 0.0
O11 O 0.88937 0.79207 0.8818 0.0
Cd12 Cd 0.87251 0.74693 0.93289 0.0
O13 O 0.91431 0.79962 0.9886 0.0
Cd14 Cd 0.94361 0.82208 0.06704 0.0
O15 O 0.96073 0.85608 0.14042 0.0
C16 C 0.94337 0.87304 0.17008 0.0
O17 O 0.91656 0.86897 0.15603 0.0
C18 C 0.90588 0.80794 0.92134 0.0
C19 C 0.91022 0.70363 0.91023 0.0
O20 O 0.90992 0.71763 0.97504 0.0
O21 O 0.89289 0.71032 0.85596 0.0
O22 O 0.70083 0.14188 0.8765 0.0
Cd23 Cd 0.7459 0.15986 0.92413 0.0
O24 O 0.68183 0.15148 0.99123 0.0
Cd25 Cd 0.64787 0.1448 0.07553 0.0
O26 O 0.61425 0.12549 0.14438 0.0
C27 C 0.6152 0.09913 0.1553 0.0
O28 O 0.63606 0.08514 0.12486 0.0
C29 C 0.67968 0.14131 0.92192 0.0
C30 C 0.78937 0.12667 0.86921 0.0
O31 O 0.77519 0.11958 0.93042 0.0
O32 O 0.7831 0.14951 0.83403 0.0
O33 O 0.62127 0.71875 0.9146 0.0
Cd34 Cd 0.64017 0.76189 0.97225 0.0
O35 O 0.61587 0.70201 0.03407 0.0
Cd36 Cd 0.60697 0.66752 0.11491 0.0
O37 O 0.60023 0.63211 0.19369 0.0
C38 C 0.61834 0.6267 0.24616 0.0
O39 O 0.64101 0.64264 0.25145 0.0
C40 C 0.61298 0.6991 0.95988 0.0
C41 C 0.60824 0.80597 0.91814 0.0
O42 O 0.63055 0.79883 0.88191 0.0
O43 O 0.60143 0.79264 0.98113 0.0
O44 O 0.23083 0.57928 0.41004 0.0
Cd45 Cd 0.2732 0.57598 0.32983 0.0
O46 O 0.23867 0.53554 0.44312 0.0
Cd47 Cd 0.25417 0.52736 0.32466 0.0
O48 O 0.22752 0.51951 0.2216 0.0
C49 C 0.20162 0.52367 0.23346 0.0
O50 O 0.19365 0.53239 0.30349 0.0
C51 C 0.22594 0.55838 0.45481 0.0
C52 C 0.3212 0.57045 0.42322 0.0
O53 O 0.31552 0.59394 0.39073 0.0
O54 O 0.3043 0.54963 0.41205 0.0
O55 O 0.14221 0.21425 0.4911 0.0
Cd56 Cd 0.16707 0.25831 0.46465 0.0
O57 O 0.15832 0.19407 0.38397 0.0
Cd58 Cd 0.15617 0.16055 0.29567 0.0
O59 O 0.13871 0.12816 0.21794 0.0
C60 C 0.11229 0.12806 0.20998 0.0
O61 O 0.0978 0.14679 0.24886 0.0
C62 C 0.14286 0.19314 0.44506 0.0
C63 C 0.14182 0.3014 0.54887 0.0
O64 O 0.1319 0.29288 0.4825 0.0
O65 O 0.16395 0.28984 0.57513 0.0
O66 O 0.27894 0.87225 0.50925 0.0
Cd67 Cd 0.23332 0.85427 0.46583 0.0
O68 O 0.28599 0.89375 0.39656 0.0
Cd69 Cd 0.30748 0.92032 0.30888 0.0
O70 O 0.33587 0.93155 0.21237 0.0
C71 C 0.35362 0.95181 0.21325 0.0
O72 O 0.35509 0.96846 0.27522 0.0
C73 C 0.29456 0.88748 0.46546 0.0
C74 C 0.19066 0.89101 0.5048 0.0
O75 O 0.19824 0.87198 0.5533 0.0
O76 O 0.20329 0.89262 0.43814 0.0
O77 O 0.37541 0.28585 0.55332 0.0
Cd78 Cd 0.34056 0.25043 0.51474 0.0
O79 O 0.36776 0.31396 0.4534 0.0
Cd80 Cd 0.37306 0.35211 0.38167 0.0
O81 O 0.38733 0.38484 0.29952 0.0
C82 C 0.41054 0.38036 0.26569 0.0
O83 O 0.42365 0.35706 0.28191 0.0
C84 C 0.38144 0.3082 0.51571 0.0
C85 C 0.36578 0.19853 0.53025 0.0
O86 O 0.36479 0.21081 0.46307 0.0
O87 O 0.35403 0.21036 0.58933 0.0
O88 O 0.0503 0.97964 0.73171 0.0
Zn89 Zn 0.01584 -0.00103 0.77396 0.0
O90 O 0.99638 0.01928 0.68945 0.0
Zn91 Zn 0.99272 0.05855 0.71855 0.0
Zn92 Zn 0.01785 0.01689 0.5913 0.0
Zn93 Zn 0.95877 0.00349 0.67351 0.0
O94 O 0.95288 0.07076 0.71966 0.0
O95 O 0.9284 0.03124 0.70013 0.0
O96 O 0.02803 0.02547 0.8619 0.0
O97 O 0.00846 0.06555 0.82666 0.0
O98 O 0.01433 0.08366 0.64526 0.0
O99 O 0.03285 0.05493 0.55685 0.0
O100 O 0.995 0.99833 0.50476 0.0
O101 O 0.99059 0.96841 0.81944 0.0
O102 O 0.95376 0.99012 0.56152 0.0
O103 O 0.95316 0.96943 0.7413 0.0
C104 C 0.06153 0.97918 0.66344 0.0
C105 C 0.92959 0.05754 0.71444 0.0
C106 C 0.02951 0.07953 0.58479 0.0
C107 C 0.02254 0.05116 0.87524 0.0
C108 C 0.96994 0.98877 0.50194 0.0
C109 C 0.96686 0.95854 0.79751 0.0
O110 O 0.05112 0.99261 0.606 0.0
O111 O 0.47021 0.06293 0.71578 0.0
Zn112 Zn 0.49394 0.03146 0.75705 0.0
O113 O 0.49669 0.00178 0.67582 0.0
Zn114 Zn 0.4798 0.96729 0.71587 0.0
Zn115 Zn 0.47803 0.01285 0.57818 0.0
Zn116 Zn 0.5355 0.99445 0.65051 0.0
O117 O 0.50827 0.93721 0.73284 0.0
O118 O 0.54677 0.95549 0.67912 0.0
O119 O 0.47382 0.01724 0.85603 0.0
O120 O 0.46139 0.97398 0.81952 0.0
O121 O 0.44983 0.95295 0.64278 0.0
O122 O 0.44968 0.98328 0.54309 0.0
O123 O 0.50564 0.0201 0.49013 0.0
O124 O 0.53263 0.04737 0.78516 0.0
O125 O 0.54466 0.00186 0.53681 0.0
O126 O 0.56012 0.02066 0.71191 0.0
C127 C 0.45683 0.06664 0.65159 0.0
C128 C 0.53394 0.93541 0.71381 0.0
C129 C 0.44035 0.96108 0.5766 0.0
C130 C 0.461 0.99399 0.86945 0.0
C131 C 0.53116 0.01355 0.48156 0.0
C132 C 0.55692 0.04044 0.76161 0.0
O133 O 0.4577 0.04888 0.59525 0.0
O134 O 0.45751 0.52011 0.74682 0.0
Zn135 Zn 0.49341 0.50918 0.80423 0.0
O136 O 0.51885 0.48935 0.73075 0.0
Zn137 Zn 0.52503 0.45096 0.76568 0.0
Zn138 Zn 0.50321 0.48887 0.62467 0.0
Zn139 Zn 0.5551 0.508 0.72492 0.0
O140 O 0.56584 0.44296 0.78965 0.0
O141 O 0.5851 0.48536 0.77529 0.0
O142 O 0.48275 0.48408 0.898 0.0
O143 O 0.50568 0.44525 0.86843 0.0
O144 O 0.50728 0.42285 0.69032 0.0
O145 O 0.49273 0.44963 0.59166 0.0
O146 O 0.52899 0.50589 0.54402 0.0
O147 O 0.51262 0.54536 0.84528 0.0
O148 O 0.5663 0.51842 0.61419 0.0
O149 O 0.55368 0.5437 0.78409 0.0
C150 C 0.45156 0.52063 0.67332 0.0
C151 C 0.5868 0.45978 0.79605 0.0
C152 C 0.49513 0.42568 0.62384 0.0
C153 C 0.48996 0.45906 0.91429 0.0
C154 C 0.55341 0.51683 0.54851 0.0
C155 C 0.53663 0.55612 0.82922 0.0
O156 O 0.46789 0.51071 0.62143 0.0
O157 O 0.98843 0.50482 0.60073 0.0
Zn158 Zn 0.01669 0.5216 0.67972 0.0
O159 O 0.0229 0.49581 0.76915 0.0
Zn160 Zn 0.01381 0.51382 0.86967 0.0
Zn161 Zn 0.00062 0.46147 0.7548 0.0
Zn162 Zn 0.0616 0.48523 0.77359 0.0
O163 O 0.04683 0.51525 0.94599 0.0
O164 O 0.07886 0.49197 0.87917 0.0
O165 O 0.99942 0.55723 0.72073 0.0
O166 O 1.00024 0.5531 0.85143 0.0
O167 O 0.98174 0.49282 0.92045 0.0
O168 O 0.97533 0.4543 0.84759 0.0
O169 O 0.02427 0.42772 0.72959 0.0
O170 O 0.05377 0.5331 0.62706 0.0
O171 O 0.06736 0.44524 0.74187 0.0
O172 O 0.08343 0.5091 0.70042 0.0
C173 C 0.9725 0.48307 0.60629 0.0
C174 C 0.07121 0.50496 0.94093 0.0
C175 C 0.96899 0.46957 0.90662 0.0
C176 C 0.99471 0.56708 0.78946 0.0
C177 C 0.05068 0.42486 0.72606 0.0
C178 C 0.07871 0.52668 0.64598 0.0
O179 O 0.97492 0.46593 0.66323 0.0
H180 H 0.16198 0.89487 0.6436 0.0
H181 H 0.16779 0.93062 0.40991 0.0
H182 H 0.12908 0.96152 0.43965 0.0
H183 H 0.09287 0.97748 0.52993 0.0
H184 H 0.08663 0.94218 0.76406 0.0
H185 H 0.1264 0.91216 0.73621 0.0
C186 C 0.15482 0.90946 0.59924 0.0
C187 C 0.16771 0.9103 0.52447 0.0
C188 C 0.1325 0.92726 0.61673 0.0
C189 C 0.15825 0.92946 0.46786 0.0
C190 C 0.13609 0.94715 0.48477 0.0
C191 C 0.10019 0.9633 0.57517 0.0
C192 C 0.08661 0.96203 0.6489 0.0
C193 C 0.12295 0.94609 0.55874 0.0
C194 C 0.09662 0.94363 0.70678 0.0
C195 C 0.11934 0.92638 0.69083 0.0
H196 H 0.38487 0.17639 0.66698 0.0
H197 H 0.3818 0.16188 0.41533 0.0
H198 H 0.40928 0.11947 0.43101 0.0
H199 H 0.435 0.0872 0.51573 0.0
H200 H 0.43991 0.10295 0.76676 0.0
H201 H 0.41099 0.14432 0.75163 0.0
C202 C 0.39002 0.16381 0.61565 0.0
C203 C 0.38119 0.17216 0.54017 0.0
C204 C 0.40631 0.13982 0.6249 0.0
C205 C 0.38834 0.15588 0.47408 0.0
C206 C 0.40407 0.13166 0.48298 0.0
C207 C 0.4297 0.09962 0.56724 0.0
C208 C 0.4396 0.09193 0.64229 0.0
C209 C 0.41332 0.12355 0.55804 0.0
C210 C 0.43269 0.10843 0.70825 0.0
C211 C 0.41607 0.13206 0.69971 0.0
H212 H 0.32845 0.53981 0.55665 0.0
H213 H 0.37224 0.59343 0.39131 0.0
H214 H 0.41662 0.58405 0.45735 0.0
H215 H 0.44333 0.55761 0.55581 0.0
H216 H 0.39954 0.50714 0.72841 0.0
H217 H 0.35466 0.51852 0.66693 0.0
C218 C 0.34772 0.5496 0.53577 0.0
C219 C 0.34726 0.56696 0.46871 0.0
C220 C 0.37305 0.54469 0.57538 0.0
C221 C 0.37219 0.57996 0.44276 0.0
C222 C 0.39754 0.57453 0.48033 0.0
C223 C 0.42386 0.54957 0.58066 0.0
C224 C 0.42456 0.53151 0.64608 0.0
C225 C 0.39827 0.55656 0.54579 0.0
C226 C 0.39935 0.52126 0.67835 0.0
C227 C 0.37378 0.52758 0.64281 0.0
H228 H 0.08746 0.3165 0.54145 0.0
H229 H 0.16572 0.33692 0.65696 0.0
H230 H 0.14394 0.3761 0.72577 0.0
H231 H 0.10333 0.40595 0.74754 0.0
H232 H 0.0245 0.38441 0.63643 0.0
H233 H 0.04572 0.34395 0.57245 0.0
C234 C 0.0997 0.32952 0.58184 0.0
C235 C 0.12823 0.32411 0.5934 0.0
C236 C 0.08693 0.35168 0.62216 0.0
C237 C 0.14375 0.34076 0.64693 0.0
C238 C 0.13132 0.36317 0.68619 0.0
C239 C 0.09072 0.39225 0.7099 0.0
C240 C 0.06244 0.39833 0.69623 0.0
C241 C 0.10302 0.36901 0.67352 0.0
C242 C 0.04629 0.38018 0.6481 0.0
C243 C 0.05846 0.35714 0.61105 0.0
H244 H 0.83301 0.143 0.77682 0.0
H245 H 0.79789 0.07118 0.89886 0.0
H246 H 0.83699 0.04259 0.85539 0.0
H247 H 0.88243 0.03862 0.78781 0.0
H248 H 0.91929 0.11167 0.67595 0.0
H249 H 0.87822 0.13908 0.7095 0.0
C250 C 0.83382 0.12104 0.79338 0.0
C251 C 0.8126 0.10921 0.84086 0.0
C252 C 0.85671 0.10494 0.76992 0.0
C253 C 0.81406 0.0808 0.8626 0.0
C254 C 0.83638 0.06443 0.83765 0.0
C255 C 0.88122 0.06044 0.76995 0.0
C256 C 0.90369 0.07311 0.72912 0.0
C257 C 0.85798 0.07634 0.79193 0.0
C258 C 0.90219 0.10151 0.70748 0.0
C259 C 0.87876 0.11719 0.72672 0.0
H260 H 0.61946 0.84061 0.79454 0.0
H261 H 0.55723 0.82206 0.97256 0.0
H262 H 0.52785 0.85923 0.92134 0.0
H263 H 0.52044 0.89784 0.82852 0.0
H264 H 0.58352 0.91759 0.65393 0.0
H265 H 0.61182 0.87886 0.70085 0.0
C266 C 0.59945 0.84466 0.8221 0.0
C267 C 0.5906 0.82864 0.88739 0.0
C268 C 0.58276 0.86619 0.79277 0.0
C269 C 0.56462 0.83418 0.92245 0.0
C270 C 0.54776 0.85538 0.89308 0.0
C271 C 0.54022 0.89346 0.8001 0.0
C272 C 0.54982 0.91051 0.73772 0.0
C273 C 0.55667 0.87158 0.82848 0.0
C274 C 0.57568 0.90479 0.70217 0.0
C275 C 0.5919 0.8827 0.72904 0.0
H276 H 0.68348 0.40484 0.99516 0.0
H277 H 0.70716 0.49233 0.02233 0.0
H278 H 0.6694 0.50571 0.93419 0.0
H279 H 0.62854 0.49304 0.85468 0.0
H280 H 0.60253 0.40604 0.83213 0.0
H281 H 0.64252 0.392 0.91236 0.0
C282 C 0.68044 0.42681 0.98143 0.0
C283 C 0.69811 0.44756 0.0156 0.0
C284 C 0.65832 0.43446 0.93141 0.0
C285 C 0.69381 0.47594 0.99738 0.0
C286 C 0.67225 0.48363 0.94676 0.0
C287 C 0.63173 0.47093 0.86624 0.0
C288 C 0.61254 0.45063 0.83703 0.0
C289 C 0.65424 0.46311 0.91407 0.0
C290 C 0.61696 0.42213 0.85368 0.0
C291 C 0.63978 0.41409 0.89983 0.0
H292 H 0.92225 0.67635 0.77345 0.0
H293 H 0.94106 0.67739 0.02284 0.0
H294 H 0.96998 0.63601 0.00686 0.0
H295 H 0.98793 0.59813 0.92338 0.0
H296 H 0.96974 0.5976 0.67345 0.0
H297 H 0.94283 0.64032 0.68839 0.0
C298 C 0.93278 0.6676 0.82425 0.0
C299 C 0.92929 0.67979 0.89932 0.0
C300 C 0.94949 0.64388 0.81462 0.0
C301 C 0.94334 0.66839 0.9644 0.0
C302 C 0.95985 0.64468 0.95536 0.0
C303 C 0.97825 0.60744 0.87202 0.0
C304 C 0.98071 0.59448 0.79753 0.0
C305 C 0.96277 0.63204 0.88094 0.0
C306 C 0.96822 0.60705 0.73155 0.0
C307 C 0.95271 0.63146 0.74003 0.0
H308 H 0.09097 0.19406 0.5067 0.0
H309 H 0.15337 0.13743 0.42041 0.0
H310 H 0.1221 0.09728 0.44623 0.0
H311 H 0.07819 0.07817 0.50194 0.0
H312 H 0.01725 0.13497 0.59646 0.0
H313 H 0.0467 0.17514 0.55871 0.0
C314 C 0.09767 0.17291 0.49344 0.0
C315 C 0.12418 0.16872 0.46023 0.0
C316 C 0.07984 0.14996 0.51011 0.0
C317 C 0.13268 0.14125 0.44348 0.0
C318 C 0.11492 0.11827 0.45906 0.0
C319 C 0.07115 0.09935 0.51298 0.0
C320 C 0.04559 0.10359 0.55195 0.0
C321 C 0.08853 0.12237 0.49299 0.0
C322 C 0.0369 0.13115 0.56677 0.0
C323 C 0.05375 0.15414 0.54545 0.0
H324 H 0.34206 0.90342 0.38412 0.0
H325 H 0.30863 0.89441 0.61955 0.0
H326 H 0.35187 0.91409 0.67457 0.0
H327 H 0.39773 0.93673 0.65581 0.0
H328 H 0.42872 0.95187 0.42036 0.0
H329 H 0.38727 0.92795 0.36459 0.0
C330 C 0.3436 0.90684 0.44702 0.0
C331 C 0.32151 0.89852 0.49714 0.0
C332 C 0.3681 0.91929 0.4782 0.0
C333 C 0.32512 0.90092 0.57936 0.0
C334 C 0.34981 0.91228 0.61097 0.0
C335 C 0.39548 0.93458 0.59227 0.0
C336 C 0.41621 0.94577 0.54209 0.0
C337 C 0.37122 0.92191 0.56092 0.0
C338 C 0.41293 0.94335 0.45993 0.0
C339 C 0.38928 0.92973 0.42819 0.0
H340 H 0.417 0.3425 0.43239 0.0
H341 H 0.39763 0.31462 0.66838 0.0
H342 H 0.43421 0.34572 0.7216 0.0
H343 H 0.46895 0.38357 0.70231 0.0
H344 H 0.485 0.41515 0.4679 0.0
H345 H 0.45226 0.38021 0.41253 0.0
C346 C 0.42015 0.3439 0.49546 0.0
C347 C 0.40385 0.32709 0.54643 0.0
C348 C 0.44081 0.36231 0.52581 0.0
C349 C 0.40961 0.32767 0.62788 0.0
C350 C 0.43054 0.34543 0.65841 0.0
C351 C 0.46572 0.38237 0.63893 0.0
C352 C 0.47948 0.40169 0.5891 0.0
C353 C 0.44598 0.36313 0.60806 0.0
C354 C 0.4747 0.40035 0.50727 0.0
C355 C 0.45586 0.38051 0.47571 0.0
H356 H 0.17377 0.57657 0.42541 0.0
H357 H 0.22462 0.53763 0.60304 0.0
H358 H 0.18298 0.52703 0.68191 0.0
H359 H 0.13251 0.52378 0.69212 0.0
H360 H 0.08032 0.55876 0.51036 0.0
H361 H 0.12221 0.57612 0.44086 0.0
C362 C 0.17566 0.56653 0.48255 0.0
C363 C 0.20208 0.55809 0.50926 0.0
C364 C 0.15146 0.55929 0.52557 0.0
C365 C 0.20444 0.54446 0.58211 0.0
C366 C 0.18066 0.53822 0.62669 0.0
C367 C 0.1301 0.53529 0.63741 0.0
C368 C 0.10328 0.53953 0.60574 0.0
C369 C 0.15408 0.54465 0.59757 0.0
C370 C 0.10072 0.55498 0.53563 0.0
C371 C 0.12466 0.56489 0.49596 0.0
H372 H 0.92264 0.85612 0.99891 0.0
H373 H 0.9083 0.82189 0.76601 0.0
H374 H 0.92424 0.86616 0.7075 0.0
H375 H 0.94418 0.91383 0.72231 0.0
H376 H 0.965 0.9455 0.95418 0.0
H377 H 0.94597 0.90233 0.01396 0.0
C378 C 0.9243 0.85767 0.9356 0.0
C379 C 0.91543 0.83513 0.88724 0.0
C380 C 0.93467 0.88275 0.90228 0.0
C381 C 0.91532 0.83875 0.80482 0.0
C382 C 0.92453 0.86402 0.77122 0.0
C383 C 0.94445 0.91121 0.78596 0.0
C384 C 0.95566 0.9327 0.83411 0.0
C385 C 0.93449 0.88604 0.81935 0.0
C386 C 0.9564 0.9291 0.91628 0.0
C387 C 0.94551 0.9045 0.95029 0.0
H388 H 0.67586 0.09345 0.83734 0.0
H389 H 0.62558 0.1562 0.94983 0.0
H390 H 0.5829 0.12988 0.91393 0.0
H391 H 0.55995 0.08902 0.84892 0.0
H392 H 0.61115 0.02679 0.73577 0.0
H393 H 0.65322 0.0529 0.77346 0.0
C394 C 0.65552 0.10141 0.85354 0.0
C395 C 0.65379 0.12643 0.89704 0.0
C396 C 0.6312 0.08622 0.83269 0.0
C397 C 0.62739 0.13656 0.91792 0.0
C398 C 0.603 0.12162 0.897 0.0
C399 C 0.5803 0.08109 0.83298 0.0
C400 C 0.58225 0.05598 0.78939 0.0
C401 C 0.60465 0.09633 0.85458 0.0
C402 C 0.60888 0.0461 0.76902 0.0
C403 C 0.63306 0.06102 0.79044 0.0
H404 H 0.56925 0.66746 0.01556 0.0
H405 H 0.62933 0.67304 0.82598 0.0
H406 H 0.61013 0.62978 0.76789 0.0
H407 H 0.57738 0.59018 0.77255 0.0
H408 H 0.51647 0.58382 0.96001 0.0
H409 H 0.53492 0.62779 0.01781 0.0
C410 C 0.57837 0.65888 0.96228 0.0
C411 C 0.6011 0.67294 0.92595 0.0
C412 C 0.56703 0.6341 0.92886 0.0
C413 C 0.61201 0.66238 0.85518 0.0
C414 C 0.60105 0.63769 0.82205 0.0
C415 C 0.56806 0.59832 0.82617 0.0
C416 C 0.54575 0.5836 0.86244 0.0
C417 C 0.57872 0.62336 0.85864 0.0
C418 C 0.53364 0.59477 0.93099 0.0
C419 C 0.54428 0.6198 0.96415 0.0
H420 H 0.85635 0.46192 0.0974 0.0
H421 H 0.85636 0.37722 0.00667 0.0
H422 H 0.90132 0.38668 0.94086 0.0
H423 H 0.94025 0.41947 0.90893 0.0
H424 H 0.94105 0.50307 0.00931 0.0
H425 H 0.89638 0.49334 0.07331 0.0
C426 C 0.86608 0.44565 0.06237 0.0
C427 C 0.85295 0.41916 0.05502 0.0
C428 C 0.89221 0.45091 0.02774 0.0
C429 C 0.86606 0.39791 0.0119 0.0
C430 C 0.89174 0.40327 0.97481 0.0
C431 C 0.93078 0.43546 0.94541 0.0
C432 C 0.94396 0.46201 0.95385 0.0
C433 C 0.90504 0.42972 0.9825 0.0
C434 C 0.93149 0.48242 0.00188 0.0
C435 C 0.90579 0.47699 0.03806 0.0
H436 H 0.05974 0.13185 0.15203 0.0
H437 H 0.13333 0.08088 0.14099 0.0
H438 H 0.1108 0.05063 0.04163 0.0
H439 H 0.07129 0.04064 0.9514 0.0
H440 H 0.99943 0.09409 0.95653 0.0
H441 H 0.02004 0.12122 0.06526 0.0
C442 C 0.07078 0.11397 0.12849 0.0
C443 C 0.09819 0.10867 0.15365 0.0
C444 C 0.058 0.09713 0.07017 0.0
C445 C 0.11226 0.0855 0.1222 0.0
C446 C 0.09938 0.06819 0.06546 0.0
C447 C 0.06001 0.05796 0.97727 0.0
C448 C 0.0339 0.06537 0.94623 0.0
C449 C 0.07241 0.07406 0.03811 0.0
C450 C 0.01963 0.08809 0.97936 0.0
C451 C 0.0314 0.10362 0.04141 0.0
H452 H 0.39088 0.99527 0.18721 0.0
H453 H 0.3596 0.9173 0.08632 0.0
H454 H 0.39075 0.92318 0.97394 0.0
H455 H 0.42598 0.95036 0.90295 0.0
H456 H 0.45712 0.02912 0.99868 0.0
H457 H 0.42698 0.02288 0.11465 0.0
C458 C 0.39092 0.97957 0.14066 0.0
C459 C 0.37281 0.9559 0.14533 0.0
C460 C 0.40886 0.98315 0.07534 0.0
C461 C 0.37315 0.93578 0.08436 0.0
C462 C 0.39102 0.93907 0.01996 0.0
C463 C 0.42642 0.96619 0.9492 0.0
C464 C 0.44391 0.99017 0.94197 0.0
C465 C 0.40886 0.96267 0.01474 0.0
C466 C 0.4439 0.01044 0.0026 0.0
C467 C 0.42664 0.0069 0.06889 0.0
H468 H 0.46103 0.37781 0.1951 0.0
H469 H 0.38664 0.42762 0.20387 0.0
H470 H 0.40554 0.45818 0.0998 0.0
H471 H 0.44224 0.46874 -0.00025 0.0
H472 H 0.51558 0.41722 0.99184 0.0
H473 H 0.49812 0.38959 0.10234 0.0
C474 C 0.44892 0.3954 0.17464 0.0
C475 C 0.42235 0.40021 0.20668 0.0
C476 C 0.45975 0.41263 0.11464 0.0
C477 C 0.40713 0.42334 0.17991 0.0
C478 C 0.41791 0.44081 0.12032 0.0
C479 C 0.4545 0.45171 0.02307 0.0
C480 C 0.48005 0.44492 0.9871 0.0
C481 C 0.44407 0.43541 0.08633 0.0
C482 C 0.49569 0.42271 0.01775 0.0
C483 C 0.48574 0.40686 0.08104 0.0
H484 H 0.14582 0.53349 0.24007 0.0
H485 H 0.21001 0.5019 0.08582 0.0
H486 H 0.17507 0.49266 0.98322 0.0
H487 H 0.12666 0.49383 0.93713 0.0
H488 H 0.06238 0.52628 0.0896 0.0
H489 H 0.09715 0.53478 0.19349 0.0
C490 C 0.15222 0.52457 0.18403 0.0
C491 C 0.18054 0.51839 0.17072 0.0
C492 C 0.13203 0.5194 0.12516 0.0
C493 C 0.1884 0.5069 0.09765 0.0
C494 C 0.16842 0.50157 0.03898 0.0
C495 C 0.12011 0.50262 0.99319 0.0
C496 C 0.09185 0.50931 0.00552 0.0
C497 C 0.14021 0.50773 0.05214 0.0
C498 C 0.08394 0.52091 0.07843 0.0
C499 C 0.10382 0.5258 0.13784 0.0
H500 H 0.91114 0.90837 0.25527 0.0
H501 H 0.99718 0.89047 0.2005 0.0
H502 H 0.01292 0.9274 0.2917 0.0
H503 H 0.00229 0.96208 0.39462 0.0
H504 H 0.91627 0.97787 0.45466 0.0
H505 H 0.90048 0.94476 0.35273 0.0
C506 C 0.93335 0.91266 0.26274 0.0
C507 C 0.95295 0.89649 0.22164 0.0
C508 C 0.94225 0.93359 0.31615 0.0
C509 C 0.98164 0.90242 0.23195 0.0
C510 C 0.99066 0.92357 0.28399 0.0
C511 C 0.98008 0.95871 0.38432 0.0
C512 C 0.96047 0.97241 0.43215 0.0
C513 C 0.97116 0.93896 0.3274 0.0
C514 C 0.93178 0.96753 0.41875 0.0
C515 C 0.92274 0.94852 0.36071 0.0
H516 H 0.61902 0.04757 0.2217 0.0
H517 H 0.56456 0.11854 0.20333 0.0
H518 H 0.5317 0.09628 0.29543 0.0
H519 H 0.52056 0.05865 0.38985 0.0
H520 H 0.577 0.98964 0.41602 0.0
H521 H 0.60677 0.0089 0.31126 0.0
C522 C 0.59981 0.05804 0.23713 0.0
C523 C 0.59432 0.08474 0.20613 0.0
C524 C 0.58138 0.04545 0.29158 0.0
C525 C 0.56939 0.09807 0.22695 0.0
C526 C 0.55057 0.08534 0.2795 0.0
C527 C 0.53907 0.04754 0.37143 0.0
C528 C 0.54658 0.02275 0.41039 0.0
C529 C 0.55663 0.0593 0.31336 0.0
C530 C 0.57084 0.00879 0.38688 0.0
C531 C 0.58791 0.01984 0.32725 0.0
H532 H 0.57717 0.58669 0.24114 0.0
H533 H 0.64723 0.6161 0.38177 0.0
H534 H 0.6351 0.58213 0.48454 0.0
H535 H 0.602 0.54746 0.53966 0.0
H536 H 0.53147 0.51872 0.39951 0.0
H537 H 0.54674 0.54875 0.29089 0.0
C538 C 0.58994 0.58552 0.29398 0.0
C539 C 0.61281 0.60418 0.3043 0.0
C540 C 0.58276 0.56609 0.353 0.0
C541 C 0.62938 0.60212 0.37257 0.0
C542 C 0.62244 0.58272 0.43145 0.0
C543 C 0.59019 0.54738 0.48495 0.0
C544 C 0.56541 0.53111 0.47834 0.0
C545 C 0.59879 0.56507 0.42307 0.0
C546 C 0.5505 0.53118 0.40666 0.0
C547 C 0.55914 0.54845 0.3445 0.0
H548 H 0.88653 0.46886 0.32388 0.0
H549 H 0.84876 0.41054 0.48912 0.0
H550 H 0.88492 0.42228 0.58615 0.0
H551 H 0.92797 0.44756 0.6223 0.0
H552 H 0.96592 0.50642 0.45912 0.0
H553 H 0.92884 0.49594 0.36281 0.0
C554 C 0.88607 0.45884 0.38131 0.0
C555 C 0.86497 0.43871 0.39895 0.0
C556 C 0.90703 0.46562 0.43688 0.0
C557 C 0.86469 0.42606 0.47382 0.0
C558 C 0.88544 0.43269 0.5293 0.0
C559 C 0.92826 0.45811 0.56561 0.0
C560 C 0.94993 0.47754 0.54767 0.0
C561 C 0.90686 0.45215 0.51107 0.0
C562 C 0.9496 0.49131 0.47438 0.0
C563 C 0.9284 0.48531 0.41932 0.0
loop_
_geom_bond_atom_site_label_1
_geom_bond_atom_site_label_2
_geom_bond_distance
_geom_bond_site_symmetry_2
_ccdc_geom_bond_type
O0 Cd1 2.300 . S
O0 C7 1.275 . S
Cd1 O0 2.300 . S
Cd1 O9 2.381 . S
Cd1 O10 2.378 1_556 S
O2 Cd3 2.385 . S
O2 C7 1.255 1_554 S
Cd3 O2 2.385 . S
Cd3 O4 2.317 . S
O4 Cd3 2.317 . S
O4 C5 1.232 . S
C5 O4 1.232 . S
C5 O6 1.218 . S
O6 C5 1.218 . S
C7 O0 1.275 . S
C7 O2 1.255 1_556 S
C8 O9 1.258 . S
C8 O10 1.256 1_556 S
O9 Cd1 2.381 . S
O9 C8 1.258 . S
O10 Cd1 2.378 1_554 S
O10 C8 1.256 1_554 S
O11 Cd12 2.300 1_655 S
O11 C18 1.275 1_655 S
Cd12 O11 2.300 1_455 S
Cd12 O20 2.381 1_455 S
Cd12 O21 2.378 . S
O13 Cd14 2.385 . S
O13 C18 1.255 . S
Cd14 O13 2.385 . S
Cd14 O15 2.317 . S
O15 Cd14 2.317 . S
O15 C16 1.232 . S
C16 O15 1.232 . S
C16 O17 1.218 . S
O17 C16 1.218 . S
C18 O11 1.275 1_455 S
C18 O13 1.255 . S
C19 O20 1.255 1_455 S
C19 O21 1.259 . S
O20 Cd12 2.381 1_655 S
O20 C19 1.255 1_655 S
O21 Cd12 2.378 . S
O21 C19 1.259 . S
O22 Cd23 2.300 1_566 S
O22 C29 1.275 1_565 S
Cd23 O22 2.300 1_544 S
Cd23 O31 2.381 1_544 S
Cd23 O32 2.378 . S
O24 Cd25 2.385 . S
O24 C29 1.255 1_554 S
Cd25 O24 2.385 . S
Cd25 O26 2.317 . S
O26 Cd25 2.317 . S
O26 C27 1.232 . S
C27 O26 1.232 . S
C27 O28 1.218 . S
O28 C27 1.218 . S
C29 O22 1.275 1_545 S
C29 O24 1.255 1_556 S
C30 O31 1.258 1_544 S
C30 O32 1.256 . S
O31 Cd23 2.381 1_566 S
O31 C30 1.258 1_566 S
O32 Cd23 2.378 . S
O32 C30 1.256 . S
O33 Cd34 2.300 1_556 S
O33 C40 1.275 . S
Cd34 O33 2.300 1_554 S
Cd34 O42 2.381 1_554 S
Cd34 O43 2.378 . S
O35 Cd36 2.385 . S
O35 C40 1.255 1_554 S
Cd36 O35 2.385 . S
Cd36 O37 2.317 . S
O37 Cd36 2.317 . S
O37 C38 1.232 . S
C38 O37 1.232 . S
C38 O39 1.218 . S
O39 C38 1.218 . S
C40 O33 1.275 . S
C40 O35 1.255 1_556 S
C41 O42 1.258 . S
C41 O43 1.256 1_556 S
O42 Cd34 2.381 1_556 S
O42 C41 1.258 . S
O43 Cd34 2.378 . S
O43 C41 1.256 1_554 S
O44 Cd45 2.300 . S
O44 C51 1.275 . S
Cd45 O44 2.300 . S
Cd45 O53 2.381 . S
Cd45 O54 2.378 . S
O46 Cd47 2.385 . S
O46 C51 1.255 . S
Cd47 O46 2.385 . S
Cd47 O48 2.317 . S
O48 Cd47 2.317 . S
O48 C49 1.232 . S
C49 O48 1.232 . S
C49 O50 1.218 . S
O50 C49 1.218 . S
C51 O44 1.275 . S
C51 O46 1.255 . S
C52 O53 1.258 . S
C52 O54 1.256 . S
O53 Cd45 2.381 . S
O53 C52 1.258 . S
O54 Cd45 2.378 . S
O54 C52 1.256 . S
O55 Cd56 2.300 . S
O55 C62 1.275 . S
Cd56 O55 2.300 . S
Cd56 O64 2.381 . S
Cd56 O65 2.378 . S
O57 Cd58 2.385 . S
O57 C62 1.255 . S
Cd58 O57 2.385 . S
Cd58 O59 2.317 . S
O59 Cd58 2.317 . S
O59 C60 1.232 . S
C60 O59 1.232 . S
C60 O61 1.218 . S
O61 C60 1.218 . S
C62 O55 1.275 . S
C62 O57 1.255 . S
C63 O64 1.258 . S
C63 O65 1.256 . S
O64 Cd56 2.381 . S
O64 C63 1.258 . S
O65 Cd56 2.378 . S
O65 C63 1.256 . S
O66 Cd67 2.300 . S
O66 C73 1.275 . S
Cd67 O66 2.300 . S
Cd67 O75 2.381 1_545 S
Cd67 O76 2.378 . S
O68 Cd69 2.385 . S
O68 C73 1.255 . S
Cd69 O68 2.385 . S
Cd69 O70 2.317 . S
O70 Cd69 2.317 . S
O70 C71 1.232 . S
C71 O70 1.232 . S
C71 O72 1.218 . S
O72 C71 1.218 . S
C73 O66 1.275 . S
C73 O68 1.255 . S
C74 O75 1.258 1_545 S
C74 O76 1.256 . S
O75 Cd67 2.381 1_565 S
O75 C74 1.258 1_565 S
O76 Cd67 2.378 . S
O76 C74 1.256 . S
O77 Cd78 2.300 . S
O77 C84 1.275 . S
Cd78 O77 2.300 . S
Cd78 O86 2.381 . S
Cd78 O87 2.378 . S
O79 Cd80 2.385 . S
O79 C84 1.255 . S
Cd80 O79 2.385 . S
Cd80 O81 2.317 . S
O81 Cd80 2.317 . S
O81 C82 1.232 . S
C82 O81 1.232 . S
C82 O83 1.218 . S
O83 C82 1.218 . S
C84 O77 1.275 . S
C84 O79 1.255 . S
C85 O86 1.258 . S
C85 O87 1.256 . S
O86 Cd78 2.381 . S
O86 C85 1.258 . S
O87 Cd78 2.378 . S
O87 C85 1.256 . S
O88 Zn89 1.953 . S
O88 C104 1.225 1_545 S
Zn89 O88 1.953 . S
Zn89 O90 1.949 1_545 S
Zn89 O96 1.919 . S
Zn89 O101 1.924 1_545 S
O90 Zn89 1.949 1_565 S
O90 Zn91 1.900 1_465 S
O90 Zn92 1.952 . S
O90 Zn93 1.966 1_455 S
Zn91 O90 1.900 1_645 S
Zn91 O94 1.933 . S
Zn91 O97 1.941 1_655 S
Zn91 O98 1.965 1_655 S
Zn92 O90 1.952 . S
Zn92 O99 1.938 1_565 S
Zn92 O100 1.906 . S
Zn92 O110 1.953 . S
Zn93 O90 1.966 1_655 S
Zn93 O95 1.932 . S
Zn93 O102 1.977 . S
Zn93 O103 1.910 1_655 S
O94 Zn91 1.933 . S
O94 C105 1.226 . S
O95 Zn93 1.932 . S
O95 C105 1.307 1_565 S
O96 Zn89 1.919 . S
O96 C107 1.253 . S
O97 Zn91 1.941 1_455 S
O97 C107 1.283 . S
O98 Zn91 1.965 1_455 S
O98 C106 1.303 . S
O99 Zn92 1.938 1_545 S
O99 C106 1.247 . S
O100 Zn92 1.906 . S
O100 C108 1.304 1_455 S
O101 Zn89 1.924 1_565 S
O101 C109 1.311 . S
O102 Zn93 1.977 . S
O102 C108 1.272 . S
O103 Zn93 1.910 1_455 S
O103 C109 1.231 . S
C104 O88 1.225 1_565 S
C104 O110 1.298 . S
C105 O94 1.226 . S
C105 O95 1.307 1_545 S
C106 O98 1.303 . S
C106 O99 1.247 . S
C107 O96 1.253 . S
C107 O97 1.283 . S
C108 O100 1.304 1_655 S
C108 O102 1.272 . S
C109 O101 1.311 . S
C109 O103 1.231 . S
O110 Zn92 1.953 . S
O110 C104 1.298 . S
O111 Zn112 1.953 . S
O111 C127 1.225 . S
Zn112 O111 1.953 . S
Zn112 O113 1.949 . S
Zn112 O119 1.919 . S
Zn112 O124 1.924 . S
O113 Zn112 1.949 . S
O113 Zn114 1.923 1_545 S
O113 Zn115 1.950 . S
O113 Zn116 1.945 1_545 S
Zn114 O113 1.923 1_565 S
Zn114 O117 1.933 . S
Zn114 O120 1.941 . S
Zn114 O121 1.965 . S
Zn115 O113 1.950 . S
Zn115 O122 1.938 . S
Zn115 O123 1.906 . S
Zn115 O133 1.953 . S
Zn116 O113 1.945 1_565 S
Zn116 O118 1.932 . S
Zn116 O125 1.977 . S
Zn116 O126 1.910 1_565 S
O117 Zn114 1.933 . S
O117 C128 1.226 . S
O118 Zn116 1.932 . S
O118 C128 1.307 . S
O119 Zn112 1.919 . S
O119 C130 1.253 . S
O120 Zn114 1.941 . S
O120 C130 1.283 1_565 S
O121 Zn114 1.965 . S
O121 C129 1.303 1_565 S
O122 Zn115 1.938 . S
O122 C129 1.247 . S
O123 Zn115 1.906 . S
O123 C131 1.304 1_545 S
O124 Zn112 1.924 . S
O124 C132 1.311 . S
O125 Zn116 1.977 . S
O125 C131 1.272 . S
O126 Zn116 1.910 1_545 S
O126 C132 1.231 . S
C127 O111 1.225 . S
C127 O133 1.298 . S
C128 O117 1.226 . S
C128 O118 1.307 . S
C129 O121 1.303 1_545 S
C129 O122 1.247 . S
C130 O119 1.253 . S
C130 O120 1.283 1_545 S
C131 O123 1.304 1_565 S
C131 O125 1.272 . S
C132 O124 1.311 . S
C132 O126 1.231 . S
O133 Zn115 1.953 . S
O133 C127 1.298 . S
O134 Zn135 1.953 . S
O134 C150 1.225 . S
Zn135 O134 1.953 . S
Zn135 O136 1.949 . S
Zn135 O142 1.919 . S
Zn135 O147 1.924 . S
O136 Zn135 1.949 . S
O136 Zn137 1.923 . S
O136 Zn138 1.950 . S
O136 Zn139 1.945 . S
Zn137 O136 1.923 . S
Zn137 O140 1.933 . S
Zn137 O143 1.941 . S
Zn137 O144 1.965 . S
Zn138 O136 1.950 . S
Zn138 O145 1.938 . S
Zn138 O146 1.906 . S
Zn138 O156 1.953 . S
Zn139 O136 1.945 . S
Zn139 O141 1.932 . S
Zn139 O148 1.977 . S
Zn139 O149 1.910 . S
O140 Zn137 1.933 . S
O140 C151 1.226 . S
O141 Zn139 1.932 . S
O141 C151 1.307 . S
O142 Zn135 1.919 . S
O142 C153 1.253 . S
O143 Zn137 1.941 . S
O143 C153 1.283 . S
O144 Zn137 1.965 . S
O144 C152 1.303 . S
O145 Zn138 1.938 . S
O145 C152 1.247 . S
O146 Zn138 1.906 . S
O146 C154 1.304 . S
O147 Zn135 1.924 . S
O147 C155 1.311 . S
O148 Zn139 1.977 . S
O148 C154 1.272 . S
O149 Zn139 1.910 . S
O149 C155 1.231 . S
C150 O134 1.225 . S
C150 O156 1.298 . S
C151 O140 1.226 . S
C151 O141 1.307 . S
C152 O144 1.303 . S
C152 O145 1.247 . S
C153 O142 1.253 . S
C153 O143 1.283 . S
C154 O146 1.304 . S
C154 O148 1.272 . S
C155 O147 1.311 . S
C155 O149 1.231 . S
O156 Zn138 1.953 . S
O156 C150 1.298 . S
O157 Zn158 1.953 1_655 S
O157 C173 1.225 . S
Zn158 O157 1.953 1_455 S
Zn158 O159 1.949 . S
Zn158 O165 1.919 . S
Zn158 O170 1.924 . S
O159 Zn158 1.949 . S
O159 Zn160 1.917 1_455 S
O159 Zn161 1.929 1_455 S
O159 Zn162 1.973 . S
Zn160 O159 1.917 1_655 S
Zn160 O163 1.933 1_655 S
Zn160 O166 1.941 . S
Zn160 O167 1.965 . S
Zn161 O159 1.929 1_655 S
Zn161 O168 1.938 . S
Zn161 O169 1.906 . S
Zn161 O179 1.953 . S
Zn162 O159 1.973 . S
Zn162 O164 1.932 . S
Zn162 O171 1.977 . S
Zn162 O172 1.910 . S
O163 Zn160 1.933 1_455 S
O163 C174 1.226 . S
O164 Zn162 1.932 . S
O164 C174 1.307 . S
O165 Zn158 1.919 . S
O165 C176 1.252 1_455 S
O166 Zn160 1.941 . S
O166 C176 1.287 . S
O167 Zn160 1.965 . S
O167 C175 1.303 . S
O168 Zn161 1.938 . S
O168 C175 1.247 . S
O169 Zn161 1.906 . S
O169 C177 1.304 1_655 S
O170 Zn158 1.924 . S
O170 C178 1.311 . S
O171 Zn162 1.977 . S
O171 C177 1.272 . S
O172 Zn162 1.910 . S
O172 C178 1.231 . S
C173 O157 1.225 . S
C173 O179 1.298 . S
C174 O163 1.226 . S
C174 O164 1.307 . S
C175 O167 1.303 . S
C175 O168 1.247 . S
C176 O165 1.252 1_655 S
C176 O166 1.287 . S
C177 O169 1.304 1_455 S
C177 O171 1.272 . S
C178 O170 1.311 . S
C178 O172 1.231 . S
O179 Zn161 1.953 . S
O179 C173 1.298 . S
H180 C186 0.930 . S
H181 C189 0.930 . S
H182 C190 0.930 . S
H183 C191 0.931 . S
H184 C194 0.930 . S
H185 C195 0.930 . S
C186 H180 0.930 . S
C186 C187 1.355 . S
C186 C188 1.415 . S
C187 C186 1.355 . S
C187 C189 1.419 . S
C188 C186 1.415 . S
C188 C193 1.425 . S
C188 C195 1.409 1_545 S
C189 H181 0.930 . S
C189 C187 1.419 . S
C189 C190 1.362 . S
C190 H182 0.930 . S
C190 C189 1.362 . S
C190 C193 1.409 . S
C191 H183 0.931 . S
C191 C192 1.357 . S
C191 C193 1.412 1_565 S
C192 C191 1.357 . S
C192 C194 1.419 . S
C193 C188 1.425 . S
C193 C190 1.409 . S
C193 C191 1.412 1_545 S
C194 H184 0.930 . S
C194 C192 1.419 . S
C194 C195 1.362 . S
C195 H185 0.930 . S
C195 C188 1.409 1_565 S
C195 C194 1.362 . S
H196 C202 0.930 . S
H197 C205 0.930 . S
H198 C206 0.930 . S
H199 C207 0.930 . S
H200 C210 0.930 . S
H201 C211 0.930 . S
C202 H196 0.930 . S
C202 C203 1.355 . S
C202 C204 1.415 . S
C203 C202 1.355 . S
C203 C205 1.419 . S
C204 C202 1.415 . S
C204 C209 1.425 . S
C204 C211 1.409 . S
C205 H197 0.930 . S
C205 C203 1.419 . S
C205 C206 1.362 . S
C206 H198 0.930 . S
C206 C205 1.362 . S
C206 C209 1.409 . S
C207 H199 0.930 . S
C207 C208 1.355 . S
C207 C209 1.415 . S
C208 C207 1.355 . S
C208 C210 1.419 . S
C209 C204 1.425 . S
C209 C206 1.409 . S
C209 C207 1.415 . S
C210 H200 0.930 . S
C210 C208 1.419 . S
C210 C211 1.362 . S
C211 H201 0.930 . S
C211 C204 1.409 . S
C211 C210 1.362 . S
H212 C218 0.930 . S
H213 C221 0.930 . S
H214 C222 0.930 . S
H215 C223 0.930 . S
H216 C226 0.930 . S
H217 C227 0.930 . S
C218 H212 0.930 . S
C218 C219 1.355 . S
C218 C220 1.415 . S
C219 C218 1.355 . S
C219 C221 1.419 . S
C220 C218 1.415 . S
C220 C225 1.425 . S
C220 C227 1.409 . S
C221 H213 0.930 . S
C221 C219 1.419 . S
C221 C222 1.362 . S
C222 H214 0.930 . S
C222 C221 1.362 . S
C222 C225 1.409 . S
C223 H215 0.930 . S
C223 C224 1.355 . S
C223 C225 1.415 . S
C224 C223 1.355 . S
C224 C226 1.419 . S
C225 C220 1.425 . S
C225 C222 1.409 . S
C225 C223 1.415 . S
C226 H216 0.930 . S
C226 C224 1.419 . S
C226 C227 1.362 . S
C227 H217 0.930 . S
C227 C220 1.409 . S
C227 C226 1.362 . S
H228 C234 0.930 . S
H229 C237 0.930 . S
H230 C238 0.930 . S
H231 C239 0.930 . S
H232 C242 0.930 . S
H233 C243 0.930 . S
C234 H228 0.930 . S
C234 C235 1.355 . S
C234 C236 1.415 . S
C235 C234 1.355 . S
C235 C237 1.419 . S
C236 C234 1.415 . S
C236 C241 1.425 . S
C236 C243 1.409 1_455 S
C237 H229 0.930 . S
C237 C235 1.419 . S
C237 C238 1.362 . S
C238 H230 0.930 . S
C238 C237 1.362 . S
C238 C241 1.409 . S
C239 H231 0.930 . S
C239 C240 1.355 . S
C239 C241 1.415 . S
C240 C239 1.355 . S
C240 C242 1.419 1_455 S
C241 C236 1.425 . S
C241 C238 1.409 . S
C241 C239 1.415 . S
C242 H232 0.930 . S
C242 C240 1.419 1_655 S
C242 C243 1.362 . S
C243 H233 0.930 . S
C243 C236 1.409 1_655 S
C243 C242 1.362 . S
H244 C250 0.931 . S
H245 C253 0.930 . S
H246 C254 0.930 . S
H247 C255 0.930 . S
H248 C258 0.933 . S
H249 C259 0.930 1_554 S
C250 H244 0.931 . S
C250 C251 1.353 1_564 S
C250 C252 1.415 1_554 S
C251 C250 1.353 1_546 S
C251 C253 1.421 . S
C252 C250 1.415 1_556 S
C252 C257 1.425 1_565 S
C252 C259 1.410 . S
C253 H245 0.930 . S
C253 C251 1.421 . S
C253 C254 1.362 . S
C254 H246 0.930 . S
C254 C253 1.362 . S
C254 C257 1.409 . S
C255 H247 0.930 . S
C255 C256 1.355 . S
C255 C257 1.415 . S
C256 C255 1.355 . S
C256 C258 1.416 1_545 S
C257 C252 1.425 1_545 S
C257 C254 1.409 . S
C257 C255 1.415 . S
C258 H248 0.933 . S
C258 C256 1.416 1_565 S
C258 C259 1.364 . S
C259 H249 0.930 1_556 S
C259 C252 1.410 . S
C259 C258 1.364 . S
H260 C266 0.930 . S
H261 C269 0.930 1_554 S
H262 C270 0.930 . S
H263 C271 0.930 . S
H264 C274 0.930 . S
H265 C275 0.930 . S
C266 H260 0.930 . S
C266 C267 1.355 . S
C266 C268 1.415 . S
C267 C266 1.355 . S
C267 C269 1.419 . S
C268 C266 1.415 . S
C268 C273 1.425 . S
C268 C275 1.409 . S
C269 H261 0.930 1_556 S
C269 C267 1.419 . S
C269 C270 1.362 . S
C270 H262 0.930 . S
C270 C269 1.362 . S
C270 C273 1.409 . S
C271 H263 0.930 . S
C271 C272 1.355 . S
C271 C273 1.415 . S
C272 C271 1.355 . S
C272 C274 1.419 . S
C273 C268 1.425 . S
C273 C270 1.409 . S
C273 C271 1.415 . S
C274 H264 0.930 . S
C274 C272 1.419 . S
C274 C275 1.362 . S
C275 H265 0.930 . S
C275 C268 1.409 . S
C275 C274 1.362 . S
H276 C282 0.930 . S
H277 C285 0.930 1_554 S
H278 C286 0.930 . S
H279 C287 0.930 . S
H280 C290 0.930 . S
H281 C291 0.930 . S
C282 H276 0.930 . S
C282 C283 1.355 . S
C282 C284 1.415 . S
C283 C282 1.355 . S
C283 C285 1.419 . S
C284 C282 1.415 . S
C284 C289 1.425 . S
C284 C291 1.409 . S
C285 H277 0.930 1_556 S
C285 C283 1.419 . S
C285 C286 1.362 . S
C286 H278 0.930 . S
C286 C285 1.362 . S
C286 C289 1.409 . S
C287 H279 0.930 . S
C287 C288 1.355 . S
C287 C289 1.415 . S
C288 C287 1.355 . S
C288 C290 1.419 . S
C289 C284 1.425 . S
C289 C286 1.409 . S
C289 C287 1.415 . S
C290 H280 0.930 . S
C290 C288 1.419 . S
C290 C291 1.362 . S
C291 H281 0.930 . S
C291 C284 1.409 . S
C291 C290 1.362 . S
H292 C298 0.930 . S
H293 C301 0.930 . S
H294 C302 0.930 . S
H295 C303 0.930 . S
H296 C306 0.930 . S
H297 C307 0.930 . S
C298 H292 0.930 . S
C298 C299 1.355 1_456 S
C298 C300 1.415 . S
C299 C298 1.355 1_654 S
C299 C301 1.419 . S
C300 C298 1.415 . S
C300 C305 1.425 1_455 S
C300 C307 1.409 . S
C301 H293 0.930 . S
C301 C299 1.419 . S
C301 C302 1.362 . S
C302 H294 0.930 . S
C302 C301 1.362 . S
C302 C305 1.409 1_554 S
C303 H295 0.930 . S
C303 C304 1.355 1_655 S
C303 C305 1.415 . S
C304 C303 1.355 1_455 S
C304 C306 1.419 . S
C305 C300 1.425 1_655 S
C305 C302 1.409 1_556 S
C305 C303 1.415 . S
C306 H296 0.930 . S
C306 C304 1.419 . S
C306 C307 1.362 . S
C307 H297 0.930 . S
C307 C300 1.409 . S
C307 C306 1.362 . S
H308 C314 0.930 . S
H309 C317 0.930 . S
H310 C318 0.930 . S
H311 C319 0.930 . S
H312 C322 0.923 1_655 S
H313 C323 0.930 1_655 S
C314 H308 0.930 . S
C314 C315 1.355 . S
C314 C316 1.415 . S
C315 C314 1.355 . S
C315 C317 1.419 . S
C316 C314 1.415 . S
C316 C321 1.425 . S
C316 C323 1.409 . S
C317 H309 0.930 . S
C317 C315 1.419 . S
C317 C318 1.362 . S
C318 H310 0.930 . S
C318 C317 1.362 . S
C318 C321 1.409 . S
C319 H311 0.930 . S
C319 C320 1.355 . S
C319 C321 1.415 . S
C320 C319 1.355 . S
C320 C322 1.426 . S
C321 C316 1.425 . S
C321 C318 1.409 . S
C321 C319 1.415 . S
C322 H312 0.923 1_455 S
C322 C320 1.426 . S
C322 C323 1.363 . S
C323 H313 0.930 1_455 S
C323 C316 1.409 . S
C323 C322 1.363 . S
H324 C330 0.930 . S
H325 C333 0.930 . S
H326 C334 0.930 . S
H327 C335 0.930 . S
H328 C338 0.930 . S
H329 C339 0.930 . S
C330 H324 0.930 . S
C330 C331 1.355 . S
C330 C332 1.415 . S
C331 C330 1.355 . S
C331 C333 1.419 1_545 S
C332 C330 1.415 . S
C332 C337 1.425 1_545 S
C332 C339 1.409 . S
C333 H325 0.930 . S
C333 C331 1.419 1_565 S
C333 C334 1.362 . S
C334 H326 0.930 . S
C334 C333 1.362 . S
C334 C337 1.409 . S
C335 H327 0.930 . S
C335 C336 1.355 1_565 S
C335 C337 1.415 . S
C336 C335 1.355 1_545 S
C336 C338 1.419 . S
C337 C332 1.425 1_565 S
C337 C334 1.409 . S
C337 C335 1.415 . S
C338 H328 0.930 . S
C338 C336 1.419 . S
C338 C339 1.362 . S
C339 H329 0.930 . S
C339 C332 1.409 . S
C339 C338 1.362 . S
H340 C346 0.930 . S
H341 C349 0.930 . S
H342 C350 0.930 . S
H343 C351 0.930 . S
H344 C354 0.930 . S
H345 C355 0.930 . S
C346 H340 0.930 . S
C346 C347 1.355 . S
C346 C348 1.415 . S
C347 C346 1.355 . S
C347 C349 1.419 . S
C348 C346 1.415 . S
C348 C353 1.425 . S
C348 C355 1.409 . S
C349 H341 0.930 . S
C349 C347 1.419 . S
C349 C350 1.362 . S
C350 H342 0.930 . S
C350 C349 1.362 . S
C350 C353 1.409 . S
C351 H343 0.930 . S
C351 C352 1.355 . S
C351 C353 1.415 . S
C352 C351 1.355 . S
C352 C354 1.419 . S
C353 C348 1.425 . S
C353 C350 1.409 . S
C353 C351 1.415 . S
C354 H344 0.930 . S
C354 C352 1.419 . S
C354 C355 1.362 . S
C355 H345 0.930 . S
C355 C348 1.409 . S
C355 C354 1.362 . S
H356 C362 0.930 . S
H357 C365 0.930 . S
H358 C366 0.930 . S
H359 C367 0.930 . S
H360 C370 0.930 . S
H361 C371 0.930 . S
C362 H356 0.930 . S
C362 C363 1.355 . S
C362 C364 1.415 . S
C363 C362 1.355 . S
C363 C365 1.419 . S
C364 C362 1.415 . S
C364 C369 1.425 . S
C364 C371 1.409 . S
C365 H357 0.930 . S
C365 C363 1.419 . S
C365 C366 1.362 . S
C366 H358 0.930 . S
C366 C365 1.362 . S
C366 C369 1.409 . S
C367 H359 0.930 . S
C367 C368 1.355 . S
C367 C369 1.415 . S
C368 C367 1.355 . S
C368 C370 1.419 . S
C369 C364 1.425 . S
C369 C366 1.409 . S
C369 C367 1.415 . S
C370 H360 0.930 . S
C370 C368 1.419 . S
C370 C371 1.362 . S
C371 H361 0.930 . S
C371 C364 1.409 . S
C371 C370 1.362 . S
H372 C378 0.930 1_655 S
H373 C381 0.930 . S
H374 C382 0.930 . S
H375 C383 0.930 . S
H376 C386 0.930 . S
H377 C387 0.930 . S
C378 H372 0.930 1_455 S
C378 C379 1.355 . S
C378 C380 1.408 1_554 S
C379 C378 1.355 . S
C379 C381 1.419 1_554 S
C380 C378 1.408 1_556 S
C380 C385 1.436 . S
C380 C387 1.406 1_556 S
C381 H373 0.930 . S
C381 C379 1.419 1_556 S
C381 C382 1.362 . S
C382 H374 0.930 . S
C382 C381 1.362 . S
C382 C385 1.409 . S
C383 H375 0.930 . S
C383 C384 1.355 . S
C383 C385 1.415 . S
C384 C383 1.355 . S
C384 C386 1.419 . S
C385 C380 1.436 . S
C385 C382 1.409 . S
C385 C383 1.415 . S
C386 H376 0.930 . S
C386 C384 1.419 . S
C386 C387 1.362 1_556 S
C387 H377 0.930 . S
C387 C380 1.406 1_554 S
C387 C386 1.362 1_554 S
H388 C394 0.930 . S
H389 C397 0.930 . S
H390 C398 0.930 . S
H391 C399 0.930 . S
H392 C402 0.930 1_565 S
H393 C403 0.930 . S
C394 H388 0.930 . S
C394 C395 1.355 1_565 S
C394 C396 1.415 1_565 S
C395 C394 1.355 1_545 S
C395 C397 1.419 . S
C396 C394 1.415 1_545 S
C396 C401 1.425 . S
C396 C403 1.409 1_545 S
C397 H389 0.930 . S
C397 C395 1.419 . S
C397 C398 1.362 . S
C398 H390 0.930 . S
C398 C397 1.362 . S
C398 C401 1.409 . S
C399 H391 0.930 . S
C399 C400 1.355 . S
C399 C401 1.415 . S
C400 C399 1.355 . S
C400 C402 1.419 . S
C401 C396 1.425 . S
C401 C398 1.409 . S
C401 C399 1.415 . S
C402 H392 0.930 1_545 S
C402 C400 1.419 . S
C402 C403 1.362 1_545 S
C403 H393 0.930 . S
C403 C396 1.409 1_565 S
C403 C402 1.362 1_565 S
H404 C410 0.930 . S
H405 C413 0.930 . S
H406 C414 0.930 1_554 S
H407 C415 0.930 . S
H408 C418 0.930 . S
H409 C419 0.930 . S
C410 H404 0.930 . S
C410 C411 1.355 . S
C410 C412 1.415 . S
C411 C410 1.355 . S
C411 C413 1.419 1_556 S
C412 C410 1.415 . S
C412 C417 1.425 . S
C412 C419 1.409 . S
C413 H405 0.930 . S
C413 C411 1.419 1_554 S
C413 C414 1.362 1_554 S
C414 H406 0.930 1_556 S
C414 C413 1.362 1_556 S
C414 C417 1.409 . S
C415 H407 0.930 . S
C415 C416 1.355 . S
C415 C417 1.415 . S
C416 C415 1.355 . S
C416 C418 1.419 . S
C417 C412 1.425 . S
C417 C414 1.409 . S
C417 C415 1.415 . S
C418 H408 0.930 . S
C418 C416 1.419 . S
C418 C419 1.362 . S
C419 H409 0.930 . S
C419 C412 1.409 . S
C419 C418 1.362 . S
H420 C426 0.930 1_554 S
H421 C429 0.930 . S
H422 C430 0.930 . S
H423 C431 0.930 . S
H424 C434 0.930 . S
H425 C435 0.930 1_554 S
C426 H420 0.930 1_556 S
C426 C427 1.355 . S
C426 C428 1.415 . S
C427 C426 1.355 . S
C427 C429 1.419 . S
C428 C426 1.415 . S
C428 C433 1.425 . S
C428 C435 1.409 . S
C429 H421 0.930 . S
C429 C427 1.419 . S
C429 C430 1.362 . S
C430 H422 0.930 . S
C430 C429 1.362 . S
C430 C433 1.409 . S
C431 H423 0.930 . S
C431 C432 1.355 . S
C431 C433 1.415 . S
C432 C431 1.355 . S
C432 C434 1.419 . S
C433 C428 1.425 . S
C433 C430 1.409 . S
C433 C431 1.415 . S
C434 H424 0.930 . S
C434 C432 1.419 . S
C434 C435 1.362 . S
C435 H425 0.930 1_556 S
C435 C428 1.409 . S
C435 C434 1.362 . S
H436 C442 0.930 . S
H437 C445 0.930 . S
H438 C446 0.930 1_556 S
H439 C447 0.930 . S
H440 C450 0.930 . S
H441 C451 0.930 . S
C442 H436 0.930 . S
C442 C443 1.355 . S
C442 C444 1.415 . S
C443 C442 1.355 . S
C443 C445 1.419 . S
C444 C442 1.415 . S
C444 C449 1.425 . S
C444 C451 1.409 . S
C445 H437 0.930 . S
C445 C443 1.419 . S
C445 C446 1.362 . S
C446 H438 0.930 1_554 S
C446 C445 1.362 . S
C446 C449 1.409 . S
C447 H439 0.930 . S
C447 C448 1.355 . S
C447 C449 1.415 1_556 S
C448 C447 1.355 . S
C448 C450 1.419 1_556 S
C449 C444 1.425 . S
C449 C446 1.409 . S
C449 C447 1.415 1_554 S
C450 H440 0.930 . S
C450 C448 1.419 1_554 S
C450 C451 1.362 . S
C451 H441 0.930 . S
C451 C444 1.409 . S
C451 C450 1.362 . S
H452 C458 0.930 . S
H453 C461 0.930 . S
H454 C462 0.930 . S
H455 C463 0.930 . S
H456 C466 0.930 . S
H457 C467 0.930 . S
C458 H452 0.930 . S
C458 C459 1.355 . S
C458 C460 1.415 . S
C459 C458 1.355 . S
C459 C461 1.419 . S
C460 C458 1.415 . S
C460 C465 1.425 . S
C460 C467 1.409 1_554 S
C461 H453 0.930 . S
C461 C459 1.419 . S
C461 C462 1.362 . S
C462 H454 0.930 . S
C462 C461 1.362 . S
C462 C465 1.409 . S
C463 H455 0.930 . S
C463 C464 1.355 1_554 S
C463 C465 1.415 . S
C464 C463 1.355 1_556 S
C464 C466 1.419 . S
C465 C460 1.425 . S
C465 C462 1.409 . S
C465 C463 1.415 . S
C466 H456 0.930 . S
C466 C464 1.419 . S
C466 C467 1.362 . S
C467 H457 0.930 . S
C467 C460 1.409 1_556 S
C467 C466 1.362 . S
H468 C474 0.930 . S
H469 C477 0.930 . S
H470 C478 0.930 . S
H471 C479 0.930 . S
H472 C482 0.929 1_554 S
H473 C483 0.930 . S
C474 H468 0.930 . S
C474 C475 1.355 . S
C474 C476 1.415 . S
C475 C474 1.355 . S
C475 C477 1.419 . S
C476 C474 1.415 . S
C476 C481 1.425 1_554 S
C476 C483 1.409 . S
C477 H469 0.930 . S
C477 C475 1.419 . S
C477 C478 1.362 1_554 S
C478 H470 0.930 . S
C478 C477 1.362 1_556 S
C478 C481 1.409 . S
C479 H471 0.930 . S
C479 C480 1.355 . S
C479 C481 1.415 . S
C480 C479 1.355 . S
C480 C482 1.419 . S
C481 C476 1.425 1_556 S
C481 C478 1.409 . S
C481 C479 1.415 . S
C482 H472 0.929 1_556 S
C482 C480 1.419 . S
C482 C483 1.362 1_556 S
C483 H473 0.930 . S
C483 C476 1.409 . S
C483 C482 1.362 1_554 S
H484 C490 0.930 . S
H485 C493 0.930 . S
H486 C494 0.930 . S
H487 C495 0.930 . S
H488 C498 0.930 . S
H489 C499 0.930 . S
C490 H484 0.930 . S
C490 C491 1.355 . S
C490 C492 1.415 . S
C491 C490 1.355 . S
C491 C493 1.419 . S
C492 C490 1.415 . S
C492 C497 1.425 1_554 S
C492 C499 1.409 . S
C493 H485 0.930 . S
C493 C491 1.419 . S
C493 C494 1.362 1_554 S
C494 H486 0.930 . S
C494 C493 1.362 1_556 S
C494 C497 1.409 . S
C495 H487 0.930 . S
C495 C496 1.355 . S
C495 C497 1.415 . S
C496 C495 1.355 . S
C496 C498 1.419 1_556 S
C497 C492 1.425 1_556 S
C497 C494 1.409 . S
C497 C495 1.415 . S
C498 H488 0.930 . S
C498 C496 1.419 1_554 S
C498 C499 1.362 . S
C499 H489 0.930 . S
C499 C492 1.409 . S
C499 C498 1.362 . S
H500 C506 0.930 . S
H501 C509 0.930 . S
H502 C510 0.930 . S
H503 C511 0.930 1_455 S
H504 C514 0.930 . S
H505 C515 0.930 . S
C506 H500 0.930 . S
C506 C507 1.360 . S
C506 C508 1.415 . S
C507 C506 1.360 . S
C507 C509 1.415 1_655 S
C508 C506 1.415 . S
C508 C513 1.425 . S
C508 C515 1.409 . S
C509 H501 0.930 . S
C509 C507 1.415 1_455 S
C509 C510 1.362 . S
C510 H502 0.930 . S
C510 C509 1.362 . S
C510 C513 1.409 1_455 S
C511 H503 0.930 1_655 S
C511 C512 1.355 . S
C511 C513 1.415 . S
C512 C511 1.355 . S
C512 C514 1.419 . S
C513 C508 1.425 . S
C513 C510 1.409 1_655 S
C513 C511 1.415 . S
C514 H504 0.930 . S
C514 C512 1.419 . S
C514 C515 1.362 . S
C515 H505 0.930 . S
C515 C508 1.409 . S
C515 C514 1.362 . S
H516 C522 0.930 . S
H517 C525 0.930 . S
H518 C526 0.930 . S
H519 C527 0.930 1_545 S
H520 C530 0.930 . S
H521 C531 0.930 . S
C522 H516 0.930 . S
C522 C523 1.355 . S
C522 C524 1.415 . S
C523 C522 1.355 . S
C523 C525 1.419 1_565 S
C524 C522 1.415 . S
C524 C529 1.425 . S
C524 C531 1.409 . S
C525 H517 0.930 . S
C525 C523 1.419 1_545 S
C525 C526 1.362 . S
C526 H518 0.930 . S
C526 C525 1.362 . S
C526 C529 1.409 1_545 S
C527 H519 0.930 1_565 S
C527 C528 1.355 . S
C527 C529 1.415 . S
C528 C527 1.355 . S
C528 C530 1.419 . S
C529 C524 1.425 . S
C529 C526 1.409 1_565 S
C529 C527 1.415 . S
C530 H520 0.930 . S
C530 C528 1.419 . S
C530 C531 1.362 . S
C531 H521 0.930 . S
C531 C524 1.409 . S
C531 C530 1.362 . S
H532 C538 0.930 . S
H533 C541 0.930 . S
H534 C542 0.930 . S
H535 C543 0.930 . S
H536 C546 0.930 . S
H537 C547 0.930 . S
C538 H532 0.930 . S
C538 C539 1.355 . S
C538 C540 1.415 . S
C539 C538 1.355 . S
C539 C541 1.419 . S
C540 C538 1.415 . S
C540 C545 1.425 . S
C540 C547 1.409 . S
C541 H533 0.930 . S
C541 C539 1.419 . S
C541 C542 1.362 . S
C542 H534 0.930 . S
C542 C541 1.362 . S
C542 C545 1.409 . S
C543 H535 0.930 . S
C543 C544 1.355 . S
C543 C545 1.415 . S
C544 C543 1.355 . S
C544 C546 1.419 . S
C545 C540 1.425 . S
C545 C542 1.409 . S
C545 C543 1.415 . S
C546 H536 0.930 . S
C546 C544 1.419 . S
C546 C547 1.362 . S
C547 H537 0.930 . S
C547 C540 1.409 . S
C547 C546 1.362 . S
H548 C554 0.930 . S
H549 C557 0.930 . S
H550 C558 0.930 . S
H551 C559 0.930 . S
H552 C562 0.930 . S
H553 C563 0.930 . S
C554 H548 0.930 . S
C554 C555 1.355 . S
C554 C556 1.415 . S
C555 C554 1.355 . S
C555 C557 1.419 . S
C556 C554 1.415 . S
C556 C561 1.425 . S
C556 C563 1.409 . S
C557 H549 0.930 . S
C557 C555 1.419 . S
C557 C558 1.362 . S
C558 H550 0.930 . S
C558 C557 1.362 . S
C558 C561 1.409 . S
C559 H551 0.930 . S
C559 C560 1.355 . S
C559 C561 1.415 . S
C560 C559 1.355 . S
C560 C562 1.419 . S
C561 C556 1.425 . S
C561 C558 1.409 . S
C561 C559 1.415 . S
C562 H552 0.930 . S
C562 C560 1.419 . S
C562 C563 1.362 . S
C563 H553 0.930 . S
C563 C556 1.409 . S
C563 C562 1.362 . S
C187 C74 1.517 . S
C192 C104 1.522 . S
C208 C127 1.600 . S
C203 C85 1.594 . S
C224 C150 1.608 . S
C219 C52 1.612 . S
C240 C177 1.515 . S
C235 C63 1.585 . S
C256 C105 1.512 . S
C251 C30 1.487 1_556 S
C267 C41 1.447 . S
C272 C128 1.486 . S
C283 C8 1.464 . S
C288 C151 1.473 . S
C299 C19 1.560 1_655 S
C304 C176 1.558 1_455 S
C320 C106 0.564 . S
C315 C62 0.568 . S
C336 C129 0.588 . S
C331 C73 0.604 . S
C352 C152 0.620 . S
C347 C84 0.607 . S
C363 C51 0.737 . S
C368 C178 0.672 . S
C379 C18 0.819 . S
C384 C109 0.820 . S
C400 C132 0.722 . S
C395 C29 0.755 . S
C416 C155 0.818 . S
C411 C40 0.827 . S
C427 C7 0.599 . S
C432 C175 0.529 . S
C443 C60 1.421 . S
C448 C107 1.579 . S
C459 C71 1.285 . S
C464 C130 1.477 . S
C480 C153 1.563 . S
C475 C82 1.335 . S
C496 C174 1.401 . S
C491 C49 1.173 . S
C507 C16 1.370 1_655 S
C512 C108 1.501 . S
C528 C131 1.471 . S
C523 C27 1.340 1_565 S
C544 C154 1.438 . S
C539 C38 1.399 . S
C555 C5 1.382 . S
C560 C173 1.677 . S
