# Generated by pormake.
# Topology csq, (4,8)-cn, num edge types: 1
# Building blocks:
#     Node 0, Type 0, BuildingBlock: NAWXER_clean_sbu_0, # of connection points: 4
#     Node 1, Type 0, BuildingBlock: NAWXER_clean_sbu_0, # of connection points: 4
#     Node 2, Type 0, BuildingBlock: NAWXER_clean_sbu_0, # of connection points: 4
#     Node 3, Type 0, BuildingBlock: NAWXER_clean_sbu_0, # of connection points: 4
#     Node 4, Type 0, BuildingBlock: NAWXER_clean_sbu_0, # of connection points: 4
#     Node 5, Type 0, BuildingBlock: NAWXER_clean_sbu_0, # of connection points: 4
#     Node 6, Type 1, BuildingBlock: TAGTUT_clean_sbu_3, # of connection points: 8
#     Node 7, Type 1, BuildingBlock: TAGTUT_clean_sbu_3, # of connection points: 8
#     Node 8, Type 1, BuildingBlock: TAGTUT_clean_sbu_3, # of connection points: 8
#     Edge 9, Type (0, 1), BuildingBlock: KIFKEQ_clean_linker_1, # of connection points: 2
#     Edge 10, Type (0, 1), BuildingBlock: KIFKEQ_clean_linker_1, # of connection points: 2
#     Edge 11, Type (0, 1), BuildingBlock: KIFKEQ_clean_linker_1, # of connection points: 2
#     Edge 12, Type (0, 1), BuildingBlock: KIFKEQ_clean_linker_1, # of connection points: 2
#     Edge 13, Type (0, 1), BuildingBlock: KIFKEQ_clean_linker_1, # of connection points: 2
#     Edge 14, Type (0, 1), BuildingBlock: KIFKEQ_clean_linker_1, # of connection points: 2
#     Edge 15, Type (0, 1), BuildingBlock: KIFKEQ_clean_linker_1, # of connection points: 2
#     Edge 16, Type (0, 1), BuildingBlock: KIFKEQ_clean_linker_1, # of connection points: 2
#     Edge 17, Type (0, 1), BuildingBlock: KIFKEQ_clean_linker_1, # of connection points: 2
#     Edge 18, Type (0, 1), BuildingBlock: KIFKEQ_clean_linker_1, # of connection points: 2
#     Edge 19, Type (0, 1), BuildingBlock: KIFKEQ_clean_linker_1, # of connection points: 2
#     Edge 20, Type (0, 1), BuildingBlock: KIFKEQ_clean_linker_1, # of connection points: 2
#     Edge 21, Type (0, 1), BuildingBlock: KIFKEQ_clean_linker_1, # of connection points: 2
#     Edge 22, Type (0, 1), BuildingBlock: KIFKEQ_clean_linker_1, # of connection points: 2
#     Edge 23, Type (0, 1), BuildingBlock: KIFKEQ_clean_linker_1, # of connection points: 2
#     Edge 24, Type (0, 1), BuildingBlock: KIFKEQ_clean_linker_1, # of connection points: 2
#     Edge 25, Type (0, 1), BuildingBlock: KIFKEQ_clean_linker_1, # of connection points: 2
#     Edge 26, Type (0, 1), BuildingBlock: KIFKEQ_clean_linker_1, # of connection points: 2
#     Edge 27, Type (0, 1), BuildingBlock: KIFKEQ_clean_linker_1, # of connection points: 2
#     Edge 28, Type (0, 1), BuildingBlock: KIFKEQ_clean_linker_1, # of connection points: 2
#     Edge 29, Type (0, 1), BuildingBlock: KIFKEQ_clean_linker_1, # of connection points: 2
#     Edge 30, Type (0, 1), BuildingBlock: KIFKEQ_clean_linker_1, # of connection points: 2
#     Edge 31, Type (0, 1), BuildingBlock: KIFKEQ_clean_linker_1, # of connection points: 2
#     Edge 32, Type (0, 1), BuildingBlock: KIFKEQ_clean_linker_1, # of connection points: 2
# Relax obj value: 0.043
# Max RMSD: 0.117
# Mean RMSD: 0.077
data_MOF--net-csq--node1-NAWXER_clean_sbu_0--node2-TAGTUT_clean_sbu_3--edge1-KIFKEQ_clean_linker_1
_symmetry_space_group_name_H-M    P1
_symmetry_Int_Tables_number       1
_symmetry_cell_setting            triclinic
loop_
_symmetry_equiv_pos_as_xyz
'x, y, z'
_cell_length_a     51.036025
_cell_length_b     50.304742
_cell_length_c     19.480416
_cell_angle_alpha  92.389751
_cell_angle_beta   92.326245
_cell_angle_gamma 119.66419
loop_
_atom_site_label
_atom_site_type_symbol
_atom_site_fract_x
_atom_site_fract_y
_atom_site_fract_z
_atom_type_partial_charge
C0 C 0.2932 0.49926 0.09281 0.0
C1 C 0.21343 0.49866 0.22386 0.0
O2 O 0.28912 0.52196 0.1048 0.0
Zn3 Zn 0.25197 0.4994 0.15144 0.0
O4 O 0.2732 0.47242 0.10772 0.0
Zn5 Zn 0.23149 0.45109 0.15668 0.0
O6 O 0.20085 0.42421 0.08619 0.0
O7 O 0.21835 0.47299 0.0691 0.0
O8 O 0.21034 0.47197 0.21195 0.0
O9 O 0.23474 0.52161 0.19812 0.0
O10 O 0.26859 0.48367 0.23617 0.0
O11 O 0.24291 0.43297 0.22868 0.0
C12 C 0.20039 0.44457 0.05067 0.0
C13 C 0.26371 0.45805 0.25855 0.0
C14 C 0.71582 0.22765 0.03969 0.0
C15 C 0.79029 0.29455 0.22549 0.0
O16 O 0.73871 0.22384 0.04862 0.0
Zn17 Zn 0.77904 0.24068 0.11385 0.0
O18 O 0.71382 0.24778 0.07747 0.0
Zn19 Zn 0.75207 0.26219 0.13201 0.0
O20 O 0.78477 0.28249 0.0579 0.0
O21 O 0.80972 0.25723 0.04795 0.0
O22 O 0.76638 0.29478 0.20527 0.0
O23 O 0.79681 0.2756 0.19566 0.0
O24 O 0.77058 0.20386 0.16007 0.0
O25 O 0.74053 0.22227 0.18502 0.0
C26 C 0.80521 0.27879 0.03024 0.0
C27 C 0.74825 0.2018 0.1912 0.0
C28 C 0.55146 0.79638 0.18079 0.0
C29 C 0.56083 0.74034 0.9796 0.0
O30 O 0.57559 0.79722 0.16301 0.0
Zn31 Zn 0.55755 0.76831 0.08231 0.0
O32 O 0.52642 0.77897 0.14537 0.0
Zn33 Zn 0.50964 0.74684 0.05659 0.0
O34 O 0.48279 0.70771 0.09537 0.0
O35 O 0.53082 0.72691 0.12951 0.0
O36 O 0.53384 0.73493 0.98676 0.0
O37 O 0.58193 0.75773 0.02456 0.0
O38 O 0.5436 0.79241 0.01507 0.0
O39 O 0.49392 0.766 0.99562 0.0
C40 C 0.50318 0.70596 0.13137 0.0
C41 C 0.51922 0.78935 0.98566 0.0
C42 C 0.80759 0.52146 0.97983 0.0
C43 C 0.74003 0.52701 0.14675 0.0
O44 O 0.81074 0.54818 0.9915 0.0
Zn45 Zn 0.79338 0.57094 0.05414 0.0
O46 O 0.78796 0.49899 0.01054 0.0
Zn47 Zn 0.77292 0.52206 0.06359 0.0
O48 O 0.75183 0.53543 0.98684 0.0
O49 O 0.77565 0.58611 0.98809 0.0
O50 O 0.7405 0.50286 0.12631 0.0
O51 O 0.75871 0.55272 0.12401 0.0
O52 O 0.82914 0.59907 0.11274 0.0
O53 O 0.81143 0.55024 0.13114 0.0
C54 C 0.7544 0.56003 0.96382 0.0
C55 C 0.83105 0.57856 0.14506 0.0
C56 C 0.21975 0.76333 0.23447 0.0
C57 C 0.25867 0.82801 0.04014 0.0
O58 O 0.21747 0.78667 0.22142 0.0
Zn59 Zn 0.23989 0.79717 0.13856 0.0
O60 O 0.23501 0.75558 0.19602 0.0
Zn61 Zn 0.261 0.77158 0.10818 0.0
O62 O 0.30192 0.78428 0.14241 0.0
O63 O 0.2859 0.81597 0.1761 0.0
O64 O 0.26631 0.8073 0.04287 0.0
O65 O 0.24328 0.8309 0.08669 0.0
O66 O 0.21344 0.75807 0.066 0.0
O67 O 0.24144 0.7368 0.04377 0.0
C68 C 0.30689 0.80908 0.17396 0.0
C69 C 0.21697 0.73739 0.03371 0.0
C70 C 0.43384 0.24894 0.28962 0.0
C71 C 0.45318 0.19473 0.10338 0.0
O72 O 0.46202 0.25951 0.28185 0.0
Zn73 Zn 0.48992 0.25123 0.21574 0.0
O74 O 0.414 0.22706 0.24923 0.0
Zn75 Zn 0.44213 0.22113 0.19565 0.0
O76 O 0.46354 0.20624 0.26953 0.0
O77 O 0.51237 0.23975 0.27995 0.0
O78 O 0.42741 0.18804 0.12393 0.0
O79 O 0.47717 0.21723 0.13339 0.0
O80 O 0.50994 0.28855 0.16627 0.0
O81 O 0.4611 0.26085 0.13698 0.0
C82 C 0.49005 0.21493 0.29692 0.0
C83 C 0.48684 0.28451 0.1297 0.0
C84 C 0.05366 0.49339 0.51552 0.0
C85 C 0.03978 0.43853 0.74818 0.0
C86 C 0.95375 0.43525 0.73941 0.0
Mg87 Mg 0.02839 0.53781 0.46911 0.0
Mg88 Mg 0.01578 0.57904 0.58533 0.0
O89 O 0.00647 0.53959 0.55083 0.0
Mg90 Mg 0.0154 0.51393 0.61236 0.0
O91 O 0.02513 0.48737 0.66844 0.0
Mg92 Mg 0.00168 0.44709 0.61269 0.0
Mg93 Mg 0.01821 0.48663 0.76204 0.0
C94 C 0.97683 0.53789 0.70369 0.0
O95 O 0.05099 0.55515 0.68189 0.0
O96 O 0.00491 0.56156 0.41384 0.0
O97 O 0.04274 0.53582 0.78651 0.0
O98 O 0.07001 0.58558 0.49581 0.0
O99 O 0.99606 0.58821 0.49677 0.0
O100 O 0.06369 0.61123 0.58372 0.0
O101 O 0.97941 0.47047 0.5495 0.0
O102 O 0.98681 0.48994 0.44643 0.0
C103 C 0.97235 0.46767 0.48457 0.0
C104 C 0.99466 0.57926 0.43347 0.0
O105 O 0.98108 0.51556 0.68454 0.0
O106 O 0.02861 0.43097 0.68518 0.0
O107 O 0.99029 0.56417 0.6776 0.0
O108 O 0.96229 0.42747 0.68508 0.0
O109 O 0.03785 0.45879 0.78634 0.0
O110 O 0.97092 0.46047 0.7744 0.0
O111 O 0.04891 0.51501 0.53631 0.0
O112 O 0.03975 0.46691 0.53952 0.0
C113 C 0.07995 0.60924 0.53785 0.0
C114 C 0.05525 0.55835 0.74791 0.0
C115 C 0.50653 0.04655 0.51732 0.0
C116 C 0.59871 0.03313 0.45414 0.0
C117 C 0.54816 0.94417 0.52938 0.0
Mg118 Mg 0.45712 0.01309 0.63455 0.0
Mg119 Mg 0.47821 0.99241 0.77538 0.0
O120 O 0.47498 0.98995 0.67949 0.0
Mg121 Mg 0.51164 0.00251 0.62801 0.0
O122 O 0.54674 0.01474 0.57001 0.0
Mg123 Mg 0.52422 0.99308 0.48017 0.0
Mg124 Mg 0.57932 0.00926 0.59867 0.0
C125 C 0.51547 0.95883 0.74602 0.0
O126 O 0.54558 0.03712 0.71276 0.0
O127 O 0.41373 0.98308 0.69498 0.0
O128 O 0.58783 0.03398 0.69998 0.0
O129 O 0.47448 0.05065 0.72431 0.0
O130 O 0.43067 0.96786 0.78574 0.0
O131 O 0.49474 0.03871 0.81299 0.0
O132 O 0.48117 0.96939 0.53932 0.0
O133 O 0.44127 0.97615 0.54619 0.0
C134 C 0.45487 0.96363 0.51675 0.0
C135 C 0.40927 0.96788 0.74915 0.0
O136 O 0.51803 0.96557 0.68267 0.0
O137 O 0.57065 0.02009 0.43237 0.0
O138 O 0.50409 0.96937 0.78965 0.0
O139 O 0.53303 0.95282 0.4919 0.0
O140 O 0.60714 0.03247 0.51665 0.0
O141 O 0.56661 0.96147 0.57929 0.0
O142 O 0.50262 0.03875 0.57976 0.0
O143 O 0.51531 0.03328 0.47374 0.0
C144 C 0.48787 0.05703 0.78462 0.0
C145 C 0.57292 0.04457 0.73198 0.0
C146 C 0.53312 0.56795 0.69432 0.0
C147 C 0.45664 0.48945 0.86014 0.0
C148 C 0.48858 0.4302 0.78596 0.0
Mg149 Mg 0.55169 0.55282 0.54557 0.0
Mg150 Mg 0.50498 0.49132 0.44616 0.0
O151 O 0.52539 0.5072 0.53362 0.0
Mg152 Mg 0.50325 0.49933 0.61934 0.0
O153 O 0.48346 0.49355 0.70777 0.0
Mg154 Mg 0.51906 0.50747 0.77646 0.0
Mg155 Mg 0.45053 0.4544 0.71875 0.0
C156 C 0.47253 0.43231 0.53328 0.0
O157 O 0.45812 0.48976 0.56495 0.0
O158 O 0.57752 0.54668 0.45467 0.0
O159 O 0.42426 0.45106 0.62385 0.0
O160 O 0.52106 0.56158 0.47059 0.0
O161 O 0.54524 0.50234 0.39403 0.0
O162 O 0.48652 0.51912 0.41003 0.0
O163 O 0.54582 0.50704 0.68243 0.0
O164 O 0.58036 0.5434 0.62189 0.0
C165 C 0.5734 0.52585 0.67166 0.0
C166 C 0.57167 0.52585 0.40623 0.0
O167 O 0.48423 0.44749 0.59179 0.0
O168 O 0.48555 0.50604 0.85788 0.0
O169 O 0.47559 0.44495 0.47587 0.0
O170 O 0.50759 0.45853 0.80084 0.0
O171 O 0.43975 0.46864 0.81307 0.0
O172 O 0.46511 0.42205 0.74558 0.0
O173 O 0.52298 0.55161 0.63702 0.0
O174 O 0.53187 0.55592 0.75148 0.0
C175 C 0.4984 0.54776 0.42645 0.0
C176 C 0.43088 0.46864 0.57355 0.0
H177 H 0.17619 0.45775 0.3097 0.0
H178 H 0.20162 0.54658 0.23585 0.0
H179 H 0.13791 0.45989 0.37503 0.0
H180 H 0.16215 0.54838 0.3008 0.0
H181 H 0.10562 0.54653 0.49187 0.0
H182 H 0.14553 0.55093 0.41874 0.0
H183 H 0.08971 0.45554 0.34711 0.0
H184 H 0.05085 0.451 0.42127 0.0
C185 C 0.17352 0.47776 0.30715 0.0
C186 C 0.19172 0.50182 0.26683 0.0
C187 C 0.15136 0.4789 0.34438 0.0
C188 C 0.14642 0.50397 0.34185 0.0
C189 C 0.16533 0.5287 0.30359 0.0
C190 C 0.18787 0.52765 0.26639 0.0
C191 C 0.10186 0.52673 0.45955 0.0
C192 C 0.07547 0.49826 0.46319 0.0
C193 C 0.12464 0.52924 0.4177 0.0
C194 C 0.12113 0.50335 0.37855 0.0
C195 C 0.09361 0.47566 0.37837 0.0
C196 C 0.07123 0.47308 0.42057 0.0
H197 H 0.69359 0.18705 0.23627 0.0
H198 H 0.758 0.15488 0.22981 0.0
H199 H 0.65903 0.1418 0.29139 0.0
H200 H 0.72271 0.10895 0.28688 0.0
H201 H 0.66031 0.06157 0.47815 0.0
H202 H 0.69839 0.09901 0.40858 0.0
H203 H 0.6284 0.08412 0.25452 0.0
H204 H 0.59023 0.04683 0.32361 0.0
C205 C 0.70054 0.17039 0.24694 0.0
C206 C 0.72869 0.17466 0.22868 0.0
C207 C 0.68048 0.14425 0.27794 0.0
C208 C 0.68802 0.12172 0.29228 0.0
C209 C 0.71638 0.12602 0.27577 0.0
C210 C 0.73651 0.15224 0.24342 0.0
C211 C 0.65304 0.06582 0.42884 0.0
C212 C 0.62212 0.05165 0.40712 0.0
C213 C 0.67492 0.08708 0.38886 0.0
C214 C 0.66622 0.09462 0.32679 0.0
C215 C 0.6356 0.07887 0.3027 0.0
C216 C 0.61376 0.05752 0.34233 0.0
H217 H 0.45111 0.64929 0.13109 0.0
H218 H 0.53947 0.70585 0.23604 0.0
H219 H 0.44203 0.60793 0.20684 0.0
H220 H 0.53057 0.66527 0.30996 0.0
H221 H 0.5047 0.60256 0.47174 0.0
H222 H 0.49867 0.6388 0.4034 0.0
H223 H 0.46398 0.57245 0.22812 0.0
H224 H 0.46935 0.53563 0.29746 0.0
C225 C 0.46841 0.65299 0.17046 0.0
C226 C 0.49602 0.68083 0.17741 0.0
C227 C 0.46327 0.62934 0.21355 0.0
C228 C 0.48544 0.63348 0.26496 0.0
C229 C 0.51274 0.66149 0.27198 0.0
C230 C 0.51796 0.68473 0.22891 0.0
C231 C 0.49513 0.59539 0.41911 0.0
C232 C 0.48812 0.56648 0.38955 0.0
C233 C 0.49172 0.61618 0.37989 0.0
C234 C 0.48157 0.60876 0.30988 0.0
C235 C 0.47191 0.57885 0.2819 0.0
C236 C 0.47506 0.55781 0.32157 0.0
H237 H 0.83507 0.54117 0.23524 0.0
H238 H 0.88619 0.63196 0.1625 0.0
H239 H 0.88026 0.54783 0.29753 0.0
H240 H 0.93182 0.63872 0.22739 0.0
H241 H 0.98124 0.62542 0.44711 0.0
H242 H 0.94484 0.63182 0.37425 0.0
H243 H 0.93363 0.55781 0.23372 0.0
H244 H 0.97009 0.55135 0.30571 0.0
C245 C 0.85587 0.56278 0.23333 0.0
C246 C 0.85717 0.58591 0.19314 0.0
C247 C 0.88172 0.56645 0.26876 0.0
C248 C 0.90937 0.59343 0.26555 0.0
C249 C 0.9106 0.61759 0.22961 0.0
C250 C 0.88455 0.61379 0.19315 0.0
C251 C 0.9716 0.61102 0.39973 0.0
C252 C 0.97806 0.58747 0.38271 0.0
C253 C 0.95102 0.61491 0.35799 0.0
C254 C 0.93654 0.59517 0.29911 0.0
C255 C 0.9447 0.57327 0.27916 0.0
C256 C 0.96551 0.56959 0.32036 0.0
H257 H 0.34157 0.79874 0.26767 0.0
H258 H 0.33879 0.86891 0.15292 0.0
H259 H 0.38486 0.83839 0.34069 0.0
H260 H 0.38266 0.90829 0.22292 0.0
H261 H 0.40848 0.95973 0.43637 0.0
H262 H 0.37976 0.92295 0.34113 0.0
H263 H 0.43786 0.88341 0.35944 0.0
H264 H 0.46686 0.92059 0.45702 0.0
C265 C 0.35104 0.82257 0.25658 0.0
C266 C 0.33682 0.83109 0.20602 0.0
C267 C 0.37582 0.84522 0.29797 0.0
C268 C 0.38667 0.87645 0.28834 0.0
C269 C 0.37431 0.88446 0.23257 0.0
C270 C 0.34932 0.862 0.19245 0.0
C271 C 0.41543 0.94346 0.41994 0.0
C272 C 0.43978 0.9429 0.45456 0.0
C273 C 0.39914 0.92253 0.36465 0.0
C274 C 0.4067 0.90042 0.34233 0.0
C275 C 0.43156 0.90023 0.37565 0.0
C276 C 0.44817 0.92152 0.43115 0.0
H277 H 0.40289 0.27907 0.27072 0.0
H278 H 0.44783 0.25464 0.42677 0.0
H279 H 0.4037 0.31772 0.35095 0.0
H280 H 0.4466 0.29154 0.50997 0.0
H281 H 0.49529 0.39616 0.56992 0.0
H282 H 0.47606 0.34343 0.52653 0.0
H283 H 0.39411 0.33974 0.44405 0.0
H284 H 0.41499 0.39355 0.48321 0.0
C285 C 0.41153 0.28101 0.32352 0.0
C286 C 0.42544 0.26423 0.34282 0.0
C287 C 0.41198 0.30316 0.37005 0.0
C288 C 0.42589 0.3085 0.43723 0.0
C289 C 0.43665 0.28897 0.45828 0.0
C290 C 0.437 0.2675 0.41105 0.0
C291 C 0.47276 0.38362 0.54452 0.0
C292 C 0.4567 0.39872 0.529 0.0
C293 C 0.46152 0.35321 0.51957 0.0
C294 C 0.43367 0.33721 0.47974 0.0
C295 C 0.41607 0.3515 0.47207 0.0
C296 C 0.42776 0.38218 0.49529 0.0
H297 H 0.56831 0.84541 0.97316 0.0
H298 H 0.47482 0.78797 0.898 0.0
H299 H 0.57172 0.88646 0.90548 0.0
H300 H 0.4785 0.82939 0.82956 0.0
H301 H 0.50542 0.90573 0.67719 0.0
H302 H 0.5083 0.8632 0.72798 0.0
H303 H 0.54509 0.91819 0.92033 0.0
H304 H 0.54165 0.96008 0.87041 0.0
C305 C 0.54852 0.84139 0.94172 0.0
C306 C 0.52116 0.81347 0.94152 0.0
C307 C 0.55056 0.86494 0.90291 0.0
C308 C 0.52542 0.86106 0.8623 0.0
C309 C 0.49832 0.83282 0.85997 0.0
C310 C 0.49614 0.80927 0.8996 0.0
C311 C 0.51481 0.90887 0.72973 0.0
C312 C 0.52329 0.93608 0.77007 0.0
C313 C 0.51615 0.88451 0.7589 0.0
C314 C 0.52671 0.88741 0.82814 0.0
C315 C 0.53698 0.91538 0.86678 0.0
C316 C 0.53503 0.93934 0.83825 0.0
H317 H 0.72402 0.51537 0.86216 0.0
H318 H 0.72982 0.59729 0.95783 0.0
H319 H 0.67883 0.50556 0.79225 0.0
H320 H 0.68396 0.58694 0.88873 0.0
H321 H 0.57894 0.52642 0.8123 0.0
H322 H 0.6245 0.53629 0.88272 0.0
H323 H 0.66931 0.53916 0.6977 0.0
H324 H 0.62451 0.53019 0.62788 0.0
C325 C 0.7158 0.53145 0.86745 0.0
C326 C 0.73044 0.55723 0.91467 0.0
C327 C 0.68994 0.52573 0.82794 0.0
C328 C 0.67791 0.5453 0.83619 0.0
C329 C 0.69279 0.57142 0.88238 0.0
C330 C 0.71915 0.57755 0.92092 0.0
C331 C 0.59844 0.52877 0.7871 0.0
C332 C 0.59841 0.52755 0.71504 0.0
C333 C 0.62445 0.53471 0.82708 0.0
C334 C 0.65024 0.53867 0.79515 0.0
C335 C 0.64966 0.53623 0.72319 0.0
C336 C 0.62409 0.53106 0.6835 0.0
H337 H 0.22084 0.6989 0.93699 0.0
H338 H 0.15841 0.72457 0.01922 0.0
H339 H 0.18009 0.65966 0.85907 0.0
H340 H 0.11769 0.68517 0.94131 0.0
H341 H 0.10376 0.60573 0.69438 0.0
H342 H 0.14262 0.65323 0.75713 0.0
H343 H 0.09296 0.62668 0.93983 0.0
H344 H 0.0544 0.57938 0.87775 0.0
C345 C 0.19848 0.69628 0.93814 0.0
C346 C 0.19271 0.71455 0.98466 0.0
C347 C 0.17529 0.67409 0.89304 0.0
C348 C 0.14588 0.66956 0.89425 0.0
C349 C 0.14022 0.68826 0.93961 0.0
C350 C 0.16349 0.71072 0.98413 0.0
C351 C 0.10092 0.61039 0.74754 0.0
C352 C 0.07634 0.5888 0.7816 0.0
C353 C 0.12316 0.63741 0.78338 0.0
C354 C 0.12074 0.6434 0.85323 0.0
C355 C 0.09522 0.62266 0.88589 0.0
C356 C 0.07331 0.59552 0.85052 0.0
H357 H 0.41943 0.13294 0.07254 0.0
H358 H 0.49527 0.21554 0.00934 0.0
H359 H 0.43113 0.10226 0.99122 0.0
H360 H 0.50634 0.18491 0.92701 0.0
H361 H 0.48266 0.10558 0.74197 0.0
H362 H 0.47373 0.1409 0.81461 0.0
H363 H 0.48599 0.10083 0.99592 0.0
H364 H 0.4957 0.06615 0.92448 0.0
C365 C 0.43806 0.14449 0.04009 0.0
C366 C 0.45653 0.17647 0.04714 0.0
C367 C 0.44486 0.12703 0.99417 0.0
C368 C 0.46974 0.14142 0.95371 0.0
C369 C 0.4871 0.17345 0.95785 0.0
C370 C 0.48075 0.19084 0.00482 0.0
C371 C 0.48422 0.10484 0.79742 0.0
C372 C 0.48967 0.08291 0.8274 0.0
C373 C 0.47894 0.12489 0.83872 0.0
C374 C 0.47852 0.12287 0.91028 0.0
C375 C 0.48572 0.1023 0.94058 0.0
C376 C 0.4916 0.08274 0.89961 0.0
H377 H 0.33165 0.53971 0.00366 0.0
H378 H 0.32102 0.46902 0.1367 0.0
H379 H 0.37752 0.54174 0.96264 0.0
H380 H 0.36701 0.47196 0.09888 0.0
H381 H 0.41079 0.44665 0.92539 0.0
H382 H 0.37553 0.45368 0.99254 0.0
H383 H 0.43015 0.55198 0.98506 0.0
H384 H 0.46562 0.54459 0.91584 0.0
C385 C 0.33941 0.52503 0.02479 0.0
C386 C 0.32237 0.50353 0.07151 0.0
C387 C 0.36578 0.52637 0.00199 0.0
C388 C 0.37563 0.50659 0.02666 0.0
C389 C 0.35965 0.48689 0.07737 0.0
C390 C 0.33321 0.48513 0.09888 0.0
C391 C 0.41577 0.46982 0.93983 0.0
C392 C 0.44089 0.49506 0.91573 0.0
C393 C 0.39558 0.47392 0.9785 0.0
C394 C 0.3999 0.50344 0.99402 0.0
C395 C 0.42607 0.52896 0.97336 0.0
C396 C 0.44658 0.52479 0.93475 0.0
H397 H 0.80168 0.32783 0.9871 0.0
H398 H 0.84988 0.2782 0.95728 0.0
H399 H 0.83277 0.36461 0.90698 0.0
H400 H 0.88126 0.31539 0.87728 0.0
H401 H 0.91873 0.37426 0.69919 0.0
H402 H 0.8793 0.33498 0.76253 0.0
H403 H 0.88635 0.40504 0.91031 0.0
H404 H 0.92558 0.44437 0.84699 0.0
C405 C 0.81883 0.32465 0.96326 0.0
C406 C 0.82344 0.30014 0.97901 0.0
C407 C 0.83667 0.34582 0.91742 0.0
C408 C 0.85946 0.34293 0.88595 0.0
C409 C 0.8636 0.318 0.90017 0.0
C410 C 0.8458 0.29683 0.94638 0.0
C411 C 0.9114 0.38139 0.74429 0.0
C412 C 0.9256 0.41245 0.76856 0.0
C413 C 0.88902 0.35883 0.78089 0.0
C414 C 0.88013 0.36689 0.84197 0.0
C415 C 0.89271 0.3981 0.86337 0.0
C416 C 0.91526 0.42065 0.82713 0.0
H417 H 0.8268 0.47888 0.97996 0.0
H418 H 0.83694 0.55779 0.8785 0.0
H419 H 0.86857 0.48065 0.9179 0.0
H420 H 0.87766 0.55915 0.81603 0.0
H421 H 0.97113 0.58109 0.78015 0.0
H422 H 0.92925 0.57373 0.84718 0.0
H423 H 0.88702 0.47565 0.80472 0.0
H424 H 0.92957 0.48304 0.73827 0.0
C425 C 0.83747 0.49613 0.94338 0.0
C426 C 0.82879 0.51839 0.93465 0.0
C427 C 0.86144 0.49722 0.90802 0.0
C428 C 0.87703 0.52055 0.86329 0.0
C429 C 0.86692 0.5415 0.85174 0.0
C430 C 0.84331 0.54054 0.88713 0.0
C431 C 0.95313 0.5579 0.78562 0.0
C432 C 0.95359 0.53272 0.75305 0.0
C433 C 0.92893 0.55366 0.8237 0.0
C434 C 0.90429 0.52413 0.82983 0.0
C435 C 0.90554 0.49871 0.80083 0.0
C436 C 0.92997 0.50297 0.76283 0.0
H437 H 0.25837 0.81253 0.90566 0.0
H438 H 0.28423 0.89047 0.0491 0.0
H439 H 0.28631 0.84666 0.81776 0.0
H440 H 0.31379 0.92492 0.96235 0.0
H441 H 0.36713 0.98239 0.79342 0.0
H442 H 0.32175 0.94843 0.8524 0.0
H443 H 0.33924 0.87361 0.81229 0.0
H444 H 0.38352 0.90715 0.75357 0.0
C445 C 0.26962 0.83709 0.91778 0.0
C446 C 0.26947 0.84894 0.98412 0.0
C447 C 0.2858 0.85668 0.86765 0.0
C448 C 0.30301 0.88855 0.88339 0.0
C449 C 0.30074 0.90054 0.94818 0.0
C450 C 0.2839 0.88085 0.99806 0.0
C451 C 0.36037 0.95836 0.79526 0.0
C452 C 0.37845 0.94714 0.76859 0.0
C453 C 0.33469 0.93901 0.82964 0.0
C454 C 0.32674 0.90822 0.83731 0.0
C455 C 0.34409 0.8969 0.80653 0.0
C456 C 0.36962 0.91614 0.77292 0.0
H457 H 0.53798 0.33021 0.07771 0.0
H458 H 0.4406 0.28692 0.06082 0.0
H459 H 0.54065 0.36318 0.98635 0.0
H460 H 0.4432 0.32033 0.97192 0.0
H461 H 0.45136 0.36742 0.77838 0.0
H462 H 0.45295 0.33143 0.85634 0.0
H463 H 0.53415 0.40515 0.96281 0.0
H464 H 0.53327 0.44061 0.88357 0.0
C465 C 0.51718 0.32792 0.05501 0.0
C466 C 0.48911 0.30592 0.07677 0.0
C467 C 0.51866 0.34685 0.00256 0.0
C468 C 0.49211 0.34441 0.97095 0.0
C469 C 0.46413 0.32251 0.99344 0.0
C470 C 0.46265 0.3035 0.04524 0.0
C471 C 0.4699 0.37581 0.81749 0.0
C472 C 0.492 0.40705 0.8248 0.0
C473 C 0.47065 0.35521 0.86288 0.0
C474 C 0.49339 0.36536 0.91708 0.0
C475 C 0.51637 0.39627 0.92177 0.0
C476 C 0.51576 0.41675 0.87618 0.0
H477 H 0.20215 0.47891 0.94433 0.0
H478 H 0.14657 0.39105 0.02596 0.0
H479 H 0.16128 0.46813 0.85851 0.0
H480 H 0.10543 0.38055 0.9406 0.0
H481 H 0.03618 0.41581 0.87304 0.0
H482 H 0.07515 0.40971 0.93529 0.0
H483 H 0.12627 0.43086 0.75465 0.0
H484 H 0.08663 0.43619 0.69162 0.0
C485 C 0.18141 0.45706 0.94311 0.0
C486 C 0.17751 0.43594 0.99224 0.0
C487 C 0.15809 0.45079 0.89361 0.0
C488 C 0.13018 0.4235 0.89293 0.0
C489 C 0.12673 0.40175 0.93999 0.0
C490 C 0.1503 0.40776 0.98871 0.0
C491 C 0.05514 0.41788 0.84585 0.0
C492 C 0.05839 0.42628 0.77756 0.0
C493 C 0.07746 0.41441 0.88143 0.0
C494 C 0.10382 0.42002 0.84992 0.0
C495 C 0.10617 0.42646 0.78011 0.0
C496 C 0.08341 0.42922 0.74391 0.0
H497 H 0.65447 0.19919 0.05117 0.0
H498 H 0.72242 0.20662 0.91619 0.0
H499 H 0.6162 0.15347 0.98084 0.0
H500 H 0.68459 0.1618 0.84589 0.0
H501 H 0.62729 0.06126 0.79954 0.0
H502 H 0.65881 0.10751 0.87342 0.0
H503 H 0.58832 0.13131 0.8625 0.0
H504 H 0.55639 0.08464 0.78857 0.0
C505 C 0.66095 0.1917 0.00518 0.0
C506 C 0.69135 0.20622 0.98915 0.0
C507 C 0.63916 0.16545 0.96531 0.0
C508 C 0.64763 0.15356 0.90911 0.0
C509 C 0.67755 0.16982 0.89013 0.0
C510 C 0.69915 0.19571 0.92985 0.0
C511 C 0.61823 0.07603 0.81356 0.0
C512 C 0.58943 0.06936 0.78731 0.0
C513 C 0.63641 0.10269 0.85552 0.0
C514 C 0.62635 0.12347 0.87217 0.0
C515 C 0.59675 0.11583 0.85015 0.0
C516 C 0.57845 0.08901 0.80798 0.0
H517 H 0.53627 0.73128 0.84908 0.0
H518 H 0.5966 0.71414 0.97663 0.0
H519 H 0.53677 0.69776 0.7559 0.0
H520 H 0.59567 0.67891 0.8857 0.0
H521 H 0.59045 0.61331 0.72716 0.0
H522 H 0.60476 0.66401 0.77953 0.0
H523 H 0.5132 0.64542 0.73502 0.0
H524 H 0.49998 0.5959 0.67926 0.0
C525 C 0.54997 0.72054 0.85668 0.0
C526 C 0.56618 0.72499 0.92009 0.0
C527 C 0.55007 0.7011 0.80349 0.0
C528 C 0.56567 0.68487 0.8132 0.0
C529 C 0.58359 0.69109 0.87539 0.0
C530 C 0.58407 0.71121 0.92801 0.0
C531 C 0.57401 0.62099 0.72541 0.0
C532 C 0.54426 0.60104 0.69867 0.0
C533 C 0.58196 0.64977 0.75669 0.0
C534 C 0.56001 0.65872 0.76367 0.0
C535 C 0.53096 0.63975 0.73059 0.0
C536 C 0.52325 0.61125 0.6981 0.0
H537 H 0.44655 0.16743 0.36161 0.0
H538 H 0.54278 0.21644 0.33939 0.0
H539 H 0.45185 0.12967 0.42636 0.0
H540 H 0.54801 0.17854 0.40439 0.0
H541 H 0.5321 0.07954 0.40832 0.0
H542 H 0.52991 0.12334 0.36842 0.0
H543 H 0.47526 0.11974 0.53504 0.0
H544 H 0.47763 0.07528 0.57629 0.0
C545 C 0.46893 0.17044 0.37145 0.0
C546 C 0.49422 0.19478 0.34448 0.0
C547 C 0.47195 0.14889 0.40909 0.0
C548 C 0.50028 0.15097 0.42004 0.0
C549 C 0.52581 0.17618 0.39619 0.0
C550 C 0.52285 0.19795 0.35914 0.0
C551 C 0.51958 0.08793 0.43694 0.0
C552 C 0.50479 0.07362 0.49535 0.0
C553 C 0.51866 0.11338 0.41431 0.0
C554 C 0.50266 0.12521 0.4488 0.0
C555 C 0.48782 0.1111 0.50745 0.0
C556 C 0.48916 0.0857 0.53104 0.0
H557 H 0.26751 0.40895 0.30301 0.0
H558 H 0.30888 0.50747 0.33469 0.0
H559 H 0.30768 0.41047 0.37843 0.0
H560 H 0.34856 0.50887 0.41081 0.0
H561 H 0.37118 0.42424 0.56846 0.0
H562 H 0.32937 0.42097 0.49669 0.0
H563 H 0.39184 0.50171 0.39824 0.0
H564 H 0.43356 0.50555 0.47132 0.0
C565 C 0.28481 0.43085 0.32709 0.0
C566 C 0.28503 0.4581 0.31254 0.0
C567 C 0.30786 0.43172 0.37027 0.0
C568 C 0.33159 0.45985 0.39983 0.0
C569 C 0.33102 0.4869 0.3876 0.0
C570 C 0.30806 0.48604 0.34448 0.0
C571 C 0.37607 0.44127 0.53137 0.0
C572 C 0.40582 0.46524 0.52591 0.0
C573 C 0.35206 0.43927 0.48997 0.0
C574 C 0.35719 0.46121 0.44216 0.0
C575 C 0.38701 0.48474 0.43549 0.0
C576 C 0.41102 0.48675 0.47689 0.0
H577 H 0.83329 0.29036 0.30399 0.0
H578 H 0.79747 0.35069 0.26631 0.0
H579 H 0.87526 0.33119 0.37648 0.0
H580 H 0.83972 0.39166 0.33866 0.0
H581 H 0.94278 0.46238 0.36112 0.0
H582 H 0.8956 0.41961 0.31138 0.0
H583 H 0.89032 0.36823 0.48731 0.0
H584 H 0.93796 0.41167 0.5386 0.0
C585 C 0.83407 0.31218 0.31228 0.0
C586 C 0.81225 0.31744 0.27886 0.0
C587 C 0.85802 0.33547 0.35413 0.0
C588 C 0.86088 0.36463 0.36262 0.0
C589 C 0.83815 0.36941 0.33244 0.0
C590 C 0.8139 0.34594 0.29136 0.0
C591 C 0.93177 0.44203 0.38954 0.0
C592 C 0.94432 0.44046 0.45389 0.0
C593 C 0.90447 0.41763 0.36121 0.0
C594 C 0.88909 0.39079 0.39586 0.0
C595 C 0.9017 0.38879 0.45972 0.0
C596 C 0.92895 0.41357 0.48889 0.0
H597 H 0.51049 0.81446 0.20416 0.0
H598 H 0.59252 0.82128 0.29371 0.0
H599 H 0.50961 0.84563 0.30075 0.0
H600 H 0.59088 0.85139 0.39378 0.0
H601 H 0.59709 0.93769 0.50975 0.0
H602 H 0.59822 0.89907 0.4323 0.0
H603 H 0.50041 0.84869 0.41388 0.0
H604 H 0.49971 0.88876 0.48704 0.0
C605 C 0.52816 0.82228 0.24528 0.0
C606 C 0.5516 0.81541 0.24115 0.0
C607 C 0.52748 0.83995 0.30153 0.0
C608 C 0.54989 0.85084 0.35644 0.0
C609 C 0.57332 0.84373 0.35253 0.0
C610 C 0.57429 0.82642 0.29521 0.0
C611 C 0.57587 0.91779 0.49085 0.0
C612 C 0.54831 0.9162 0.50409 0.0
C613 C 0.57646 0.89558 0.44605 0.0
C614 C 0.54941 0.871 0.41467 0.0
C615 C 0.52179 0.86784 0.4345 0.0
C616 C 0.52126 0.89048 0.4776 0.0
H617 H 0.73749 0.57565 0.20517 0.0
H618 H 0.68991 0.47655 0.18985 0.0
H619 H 0.69734 0.57544 0.26763 0.0
H620 H 0.64969 0.47636 0.25474 0.0
H621 H 0.63252 0.56582 0.43044 0.0
H622 H 0.67377 0.56484 0.37397 0.0
H623 H 0.60919 0.48798 0.23785 0.0
H624 H 0.56793 0.48846 0.29532 0.0
C625 C 0.71862 0.55372 0.21599 0.0
C626 C 0.71692 0.52607 0.19209 0.0
C627 C 0.69559 0.55365 0.25233 0.0
C628 C 0.67013 0.52592 0.26612 0.0
C629 C 0.66877 0.49817 0.24409 0.0
C630 C 0.69195 0.49824 0.20752 0.0
C631 C 0.62706 0.54888 0.38807 0.0
C632 C 0.59681 0.52731 0.36742 0.0
C633 C 0.65076 0.54828 0.35565 0.0
C634 C 0.64487 0.52619 0.30151 0.0
C635 C 0.61462 0.50493 0.28019 0.0
C636 C 0.59092 0.50546 0.31273 0.0
H637 H 0.19992 0.77909 0.3504 0.0
H638 H 0.20347 0.70365 0.24634 0.0
H639 H 0.17289 0.74618 0.44147 0.0
H640 H 0.17499 0.67035 0.33357 0.0
H641 H 0.1325 0.61294 0.50084 0.0
H642 H 0.17181 0.65404 0.44124 0.0
H643 H 0.12688 0.70722 0.468 0.0
H644 H 0.08931 0.66709 0.5324 0.0
C645 C 0.19481 0.75543 0.3469 0.0
C646 C 0.20387 0.744 0.29118 0.0
C647 C 0.17914 0.73642 0.39899 0.0
C648 C 0.17158 0.70532 0.39583 0.0
C649 C 0.18095 0.6942 0.33984 0.0
C650 C 0.1971 0.71331 0.2889 0.0
C651 C 0.13188 0.63402 0.49631 0.0
C652 C 0.10793 0.63687 0.52134 0.0
C653 C 0.15406 0.65744 0.46083 0.0
C654 C 0.15219 0.68379 0.44706 0.0
C655 C 0.12946 0.68755 0.47723 0.0
C656 C 0.1078 0.66448 0.51459 0.0
loop_
_geom_bond_atom_site_label_1
_geom_bond_atom_site_label_2
_geom_bond_distance
_geom_bond_site_symmetry_2
_ccdc_geom_bond_type
C0 O2 1.247 . S
C0 O4 1.258 . S
C1 O8 1.247 . S
C1 O9 1.258 . S
O2 C0 1.247 . S
O2 Zn3 2.028 . S
Zn3 O2 2.028 . S
Zn3 O7 2.035 . S
Zn3 O9 2.035 . S
Zn3 O10 2.028 . S
O4 C0 1.258 . S
O4 Zn5 2.035 . S
Zn5 O4 2.035 . S
Zn5 O6 2.028 . S
Zn5 O8 2.028 . S
Zn5 O11 2.035 . S
O6 Zn5 2.028 . S
O6 C12 1.247 . S
O7 Zn3 2.035 . S
O7 C12 1.258 . S
O8 C1 1.247 . S
O8 Zn5 2.028 . S
O9 C1 1.258 . S
O9 Zn3 2.035 . S
O10 Zn3 2.028 . S
O10 C13 1.247 . S
O11 Zn5 2.035 . S
O11 C13 1.258 . S
C12 O6 1.247 . S
C12 O7 1.258 . S
C13 O10 1.247 . S
C13 O11 1.258 . S
C14 O16 1.247 . S
C14 O18 1.258 . S
C15 O22 1.247 . S
C15 O23 1.258 . S
O16 C14 1.247 . S
O16 Zn17 2.028 . S
Zn17 O16 2.028 . S
Zn17 O21 2.035 . S
Zn17 O23 2.035 . S
Zn17 O24 2.028 . S
O18 C14 1.258 . S
O18 Zn19 2.035 . S
Zn19 O18 2.035 . S
Zn19 O20 2.028 . S
Zn19 O22 2.028 . S
Zn19 O25 2.035 . S
O20 Zn19 2.028 . S
O20 C26 1.247 . S
O21 Zn17 2.035 . S
O21 C26 1.258 . S
O22 C15 1.247 . S
O22 Zn19 2.028 . S
O23 C15 1.258 . S
O23 Zn17 2.035 . S
O24 Zn17 2.028 . S
O24 C27 1.247 . S
O25 Zn19 2.035 . S
O25 C27 1.258 . S
C26 O20 1.247 . S
C26 O21 1.258 . S
C27 O24 1.247 . S
C27 O25 1.258 . S
C28 O30 1.247 . S
C28 O32 1.258 . S
C29 O36 1.247 . S
C29 O37 1.258 . S
O30 C28 1.247 . S
O30 Zn31 2.028 . S
Zn31 O30 2.028 . S
Zn31 O35 2.035 . S
Zn31 O37 2.035 1_554 S
Zn31 O38 2.028 1_554 S
O32 C28 1.258 . S
O32 Zn33 2.035 . S
Zn33 O32 2.035 . S
Zn33 O34 2.028 . S
Zn33 O36 2.028 1_554 S
Zn33 O39 2.035 1_554 S
O34 Zn33 2.028 . S
O34 C40 1.247 . S
O35 Zn31 2.035 . S
O35 C40 1.258 . S
O36 C29 1.247 . S
O36 Zn33 2.028 1_556 S
O37 C29 1.258 . S
O37 Zn31 2.035 1_556 S
O38 Zn31 2.028 1_556 S
O38 C41 1.247 . S
O39 Zn33 2.035 1_556 S
O39 C41 1.258 . S
C40 O34 1.247 . S
C40 O35 1.258 . S
C41 O38 1.247 . S
C41 O39 1.258 . S
C42 O44 1.247 . S
C42 O46 1.258 . S
C43 O50 1.247 . S
C43 O51 1.258 . S
O44 C42 1.247 . S
O44 Zn45 2.028 1_556 S
Zn45 O44 2.028 1_554 S
Zn45 O49 2.035 1_554 S
Zn45 O51 2.035 . S
Zn45 O52 2.028 . S
O46 C42 1.258 . S
O46 Zn47 2.035 1_556 S
Zn47 O46 2.035 1_554 S
Zn47 O48 2.028 1_554 S
Zn47 O50 2.028 . S
Zn47 O53 2.035 . S
O48 Zn47 2.028 1_556 S
O48 C54 1.247 . S
O49 Zn45 2.035 1_556 S
O49 C54 1.258 . S
O50 C43 1.247 . S
O50 Zn47 2.028 . S
O51 C43 1.258 . S
O51 Zn45 2.035 . S
O52 Zn45 2.028 . S
O52 C55 1.247 . S
O53 Zn47 2.035 . S
O53 C55 1.258 . S
C54 O48 1.247 . S
C54 O49 1.258 . S
C55 O52 1.247 . S
C55 O53 1.258 . S
C56 O58 1.247 . S
C56 O60 1.258 . S
C57 O64 1.247 . S
C57 O65 1.258 . S
O58 C56 1.247 . S
O58 Zn59 2.028 . S
Zn59 O58 2.028 . S
Zn59 O63 2.035 . S
Zn59 O65 2.035 . S
Zn59 O66 2.028 . S
O60 C56 1.258 . S
O60 Zn61 2.035 . S
Zn61 O60 2.035 . S
Zn61 O62 2.028 . S
Zn61 O64 2.028 . S
Zn61 O67 2.035 . S
O62 Zn61 2.028 . S
O62 C68 1.247 . S
O63 Zn59 2.035 . S
O63 C68 1.258 . S
O64 C57 1.247 . S
O64 Zn61 2.028 . S
O65 C57 1.258 . S
O65 Zn59 2.035 . S
O66 Zn59 2.028 . S
O66 C69 1.247 . S
O67 Zn61 2.035 . S
O67 C69 1.258 . S
C68 O62 1.247 . S
C68 O63 1.258 . S
C69 O66 1.247 . S
C69 O67 1.258 . S
C70 O72 1.247 . S
C70 O74 1.258 . S
C71 O78 1.247 . S
C71 O79 1.258 . S
O72 C70 1.247 . S
O72 Zn73 2.028 . S
Zn73 O72 2.028 . S
Zn73 O77 2.035 . S
Zn73 O79 2.035 . S
Zn73 O80 2.028 . S
O74 C70 1.258 . S
O74 Zn75 2.035 . S
Zn75 O74 2.035 . S
Zn75 O76 2.028 . S
Zn75 O78 2.028 . S
Zn75 O81 2.035 . S
O76 Zn75 2.028 . S
O76 C82 1.247 . S
O77 Zn73 2.035 . S
O77 C82 1.258 . S
O78 C71 1.247 . S
O78 Zn75 2.028 . S
O79 C71 1.258 . S
O79 Zn73 2.035 . S
O80 Zn73 2.028 . S
O80 C83 1.247 . S
O81 Zn75 2.035 . S
O81 C83 1.258 . S
C82 O76 1.247 . S
C82 O77 1.258 . S
C83 O80 1.247 . S
C83 O81 1.258 . S
C84 O111 1.312 . S
C84 O112 1.208 . S
C85 O106 1.331 . S
C85 O109 1.244 . S
C86 O108 1.264 . S
C86 O110 1.273 . S
Mg87 O89 1.936 1_455 S
Mg87 O96 2.081 1_455 S
Mg87 O98 2.023 . S
Mg87 O102 2.031 1_455 S
Mg87 O111 2.291 . S
Mg88 O89 1.963 . S
Mg88 O99 1.942 . S
Mg88 O100 1.955 1_655 S
Mg88 O107 1.986 . S
O89 Mg87 1.936 1_655 S
O89 Mg88 1.963 . S
O89 Mg90 1.915 1_655 S
Mg90 O89 1.915 1_455 S
Mg90 O91 1.915 . S
Mg90 O95 2.013 . S
Mg90 O101 2.114 1_455 S
Mg90 O105 2.013 1_455 S
Mg90 O111 2.114 . S
O91 Mg90 1.915 . S
O91 Mg92 1.936 . S
O91 Mg93 1.963 . S
Mg92 O91 1.936 . S
Mg92 O101 2.291 1_455 S
Mg92 O106 2.081 . S
Mg92 O108 2.023 1_455 S
Mg92 O112 2.031 . S
Mg93 O91 1.963 . S
Mg93 O97 1.986 . S
Mg93 O109 1.942 . S
Mg93 O110 1.955 1_455 S
C94 O105 1.191 . S
C94 O107 1.307 . S
O95 Mg90 2.013 . S
O95 C114 1.191 . S
O96 Mg87 2.081 1_655 S
O96 C104 1.331 . S
O97 Mg93 1.986 . S
O97 C114 1.307 . S
O98 Mg87 2.023 . S
O98 C113 1.264 . S
O99 Mg88 1.942 . S
O99 C104 1.244 . S
O100 Mg88 1.955 1_455 S
O100 C113 1.273 . S
O101 Mg90 2.114 1_655 S
O101 Mg92 2.291 1_655 S
O101 C103 1.312 . S
O102 Mg87 2.031 1_655 S
O102 C103 1.208 . S
C103 O101 1.312 . S
C103 O102 1.208 . S
C104 O96 1.331 . S
C104 O99 1.244 . S
O105 Mg90 2.013 1_655 S
O105 C94 1.191 . S
O106 C85 1.331 . S
O106 Mg92 2.081 . S
O107 Mg88 1.986 . S
O107 C94 1.307 . S
O108 C86 1.264 . S
O108 Mg92 2.023 1_655 S
O109 C85 1.244 . S
O109 Mg93 1.942 . S
O110 C86 1.273 . S
O110 Mg93 1.955 1_655 S
O111 C84 1.312 . S
O111 Mg87 2.291 . S
O111 Mg90 2.114 . S
O112 C84 1.208 . S
O112 Mg92 2.031 . S
C113 O98 1.264 . S
C113 O100 1.273 . S
C114 O95 1.191 . S
C114 O97 1.307 . S
C115 O142 1.312 . S
C115 O143 1.208 . S
C116 O137 1.331 . S
C116 O140 1.244 . S
C117 O139 1.264 . S
C117 O141 1.273 . S
Mg118 O120 1.936 1_545 S
Mg118 O127 2.081 1_545 S
Mg118 O129 2.023 . S
Mg118 O133 2.031 1_545 S
Mg118 O142 2.291 . S
Mg119 O120 1.963 . S
Mg119 O130 1.942 . S
Mg119 O131 1.955 1_565 S
Mg119 O138 1.986 . S
O120 Mg118 1.936 1_565 S
O120 Mg119 1.963 . S
O120 Mg121 1.915 1_565 S
Mg121 O120 1.915 1_545 S
Mg121 O122 1.915 . S
Mg121 O126 2.013 . S
Mg121 O132 2.114 1_545 S
Mg121 O136 2.013 1_545 S
Mg121 O142 2.114 . S
O122 Mg121 1.915 . S
O122 Mg123 1.936 . S
O122 Mg124 1.963 . S
Mg123 O122 1.936 . S
Mg123 O132 2.291 1_545 S
Mg123 O137 2.081 . S
Mg123 O139 2.023 1_545 S
Mg123 O143 2.031 . S
Mg124 O122 1.963 . S
Mg124 O128 1.986 . S
Mg124 O140 1.942 . S
Mg124 O141 1.955 1_545 S
C125 O136 1.191 . S
C125 O138 1.307 . S
O126 Mg121 2.013 . S
O126 C145 1.191 . S
O127 Mg118 2.081 1_565 S
O127 C135 1.331 . S
O128 Mg124 1.986 . S
O128 C145 1.307 . S
O129 Mg118 2.023 . S
O129 C144 1.264 . S
O130 Mg119 1.942 . S
O130 C135 1.244 . S
O131 Mg119 1.955 1_545 S
O131 C144 1.273 . S
O132 Mg121 2.114 1_565 S
O132 Mg123 2.291 1_565 S
O132 C134 1.312 . S
O133 Mg118 2.031 1_565 S
O133 C134 1.208 . S
C134 O132 1.312 . S
C134 O133 1.208 . S
C135 O127 1.331 . S
C135 O130 1.244 . S
O136 Mg121 2.013 1_565 S
O136 C125 1.191 . S
O137 C116 1.331 . S
O137 Mg123 2.081 . S
O138 Mg119 1.986 . S
O138 C125 1.307 . S
O139 C117 1.264 . S
O139 Mg123 2.023 1_565 S
O140 C116 1.244 . S
O140 Mg124 1.942 . S
O141 C117 1.273 . S
O141 Mg124 1.955 1_565 S
O142 C115 1.312 . S
O142 Mg118 2.291 . S
O142 Mg121 2.114 . S
O143 C115 1.208 . S
O143 Mg123 2.031 . S
C144 O129 1.264 . S
C144 O131 1.273 . S
C145 O126 1.191 . S
C145 O128 1.307 . S
C146 O173 1.312 . S
C146 O174 1.208 . S
C147 O168 1.331 . S
C147 O171 1.244 . S
C148 O170 1.264 . S
C148 O172 1.273 . S
Mg149 O151 1.936 . S
Mg149 O158 2.081 . S
Mg149 O160 2.023 . S
Mg149 O164 2.031 . S
Mg149 O173 2.291 . S
Mg150 O151 1.963 . S
Mg150 O161 1.942 . S
Mg150 O162 1.955 . S
Mg150 O169 1.986 . S
O151 Mg149 1.936 . S
O151 Mg150 1.963 . S
O151 Mg152 1.915 . S
Mg152 O151 1.915 . S
Mg152 O153 1.915 . S
Mg152 O157 2.013 . S
Mg152 O163 2.114 . S
Mg152 O167 2.013 . S
Mg152 O173 2.114 . S
O153 Mg152 1.915 . S
O153 Mg154 1.936 . S
O153 Mg155 1.963 . S
Mg154 O153 1.936 . S
Mg154 O163 2.291 . S
Mg154 O168 2.081 . S
Mg154 O170 2.023 . S
Mg154 O174 2.031 . S
Mg155 O153 1.963 . S
Mg155 O159 1.986 . S
Mg155 O171 1.942 . S
Mg155 O172 1.955 . S
C156 O167 1.191 . S
C156 O169 1.307 . S
O157 Mg152 2.013 . S
O157 C176 1.191 . S
O158 Mg149 2.081 . S
O158 C166 1.331 . S
O159 Mg155 1.986 . S
O159 C176 1.307 . S
O160 Mg149 2.023 . S
O160 C175 1.264 . S
O161 Mg150 1.942 . S
O161 C166 1.244 . S
O162 Mg150 1.955 . S
O162 C175 1.273 . S
O163 Mg152 2.114 . S
O163 Mg154 2.291 . S
O163 C165 1.312 . S
O164 Mg149 2.031 . S
O164 C165 1.208 . S
C165 O163 1.312 . S
C165 O164 1.208 . S
C166 O158 1.331 . S
C166 O161 1.244 . S
O167 Mg152 2.013 . S
O167 C156 1.191 . S
O168 C147 1.331 . S
O168 Mg154 2.081 . S
O169 Mg150 1.986 . S
O169 C156 1.307 . S
O170 C148 1.264 . S
O170 Mg154 2.023 . S
O171 C147 1.244 . S
O171 Mg155 1.942 . S
O172 C148 1.273 . S
O172 Mg155 1.955 . S
O173 C146 1.312 . S
O173 Mg149 2.291 . S
O173 Mg152 2.114 . S
O174 C146 1.208 . S
O174 Mg154 2.031 . S
C175 O160 1.264 . S
C175 O162 1.273 . S
C176 O157 1.191 . S
C176 O159 1.307 . S
H177 C185 0.950 . S
H178 C190 0.950 . S
H179 C187 0.950 . S
H180 C189 0.950 . S
H181 C191 0.950 . S
H182 C193 0.950 . S
H183 C195 0.950 . S
H184 C196 0.950 . S
C185 H177 0.950 . S
C185 C186 1.386 . S
C185 C187 1.391 . S
C186 C185 1.386 . S
C186 C190 1.393 . S
C187 H179 0.950 . S
C187 C185 1.391 . S
C187 C188 1.400 . S
C188 C187 1.400 . S
C188 C189 1.398 . S
C188 C194 1.491 . S
C189 H180 0.950 . S
C189 C188 1.398 . S
C189 C190 1.391 . S
C190 H178 0.950 . S
C190 C186 1.393 . S
C190 C189 1.391 . S
C191 H181 0.950 . S
C191 C192 1.386 . S
C191 C193 1.391 . S
C192 C191 1.386 . S
C192 C196 1.393 . S
C193 H182 0.950 . S
C193 C191 1.391 . S
C193 C194 1.400 . S
C194 C188 1.491 . S
C194 C193 1.400 . S
C194 C195 1.398 . S
C195 H183 0.950 . S
C195 C194 1.398 . S
C195 C196 1.391 . S
C196 H184 0.950 . S
C196 C192 1.393 . S
C196 C195 1.391 . S
H197 C205 0.950 . S
H198 C210 0.950 . S
H199 C207 0.950 . S
H200 C209 0.950 . S
H201 C211 0.950 . S
H202 C213 0.950 . S
H203 C215 0.950 . S
H204 C216 0.950 . S
C205 H197 0.950 . S
C205 C206 1.386 . S
C205 C207 1.391 . S
C206 C205 1.386 . S
C206 C210 1.393 . S
C207 H199 0.950 . S
C207 C205 1.391 . S
C207 C208 1.400 . S
C208 C207 1.400 . S
C208 C209 1.398 . S
C208 C214 1.491 . S
C209 H200 0.950 . S
C209 C208 1.398 . S
C209 C210 1.391 . S
C210 H198 0.950 . S
C210 C206 1.393 . S
C210 C209 1.391 . S
C211 H201 0.950 . S
C211 C212 1.386 . S
C211 C213 1.391 . S
C212 C211 1.386 . S
C212 C216 1.393 . S
C213 H202 0.950 . S
C213 C211 1.391 . S
C213 C214 1.400 . S
C214 C208 1.491 . S
C214 C213 1.400 . S
C214 C215 1.398 . S
C215 H203 0.950 . S
C215 C214 1.398 . S
C215 C216 1.391 . S
C216 H204 0.950 . S
C216 C212 1.393 . S
C216 C215 1.391 . S
H217 C225 0.950 . S
H218 C230 0.950 . S
H219 C227 0.950 . S
H220 C229 0.950 . S
H221 C231 0.950 . S
H222 C233 0.950 . S
H223 C235 0.950 . S
H224 C236 0.950 . S
C225 H217 0.950 . S
C225 C226 1.386 . S
C225 C227 1.391 . S
C226 C225 1.386 . S
C226 C230 1.393 . S
C227 H219 0.950 . S
C227 C225 1.391 . S
C227 C228 1.400 . S
C228 C227 1.400 . S
C228 C229 1.398 . S
C228 C234 1.491 . S
C229 H220 0.950 . S
C229 C228 1.398 . S
C229 C230 1.391 . S
C230 H218 0.950 . S
C230 C226 1.393 . S
C230 C229 1.391 . S
C231 H221 0.950 . S
C231 C232 1.386 . S
C231 C233 1.391 . S
C232 C231 1.386 . S
C232 C236 1.393 . S
C233 H222 0.950 . S
C233 C231 1.391 . S
C233 C234 1.400 . S
C234 C228 1.491 . S
C234 C233 1.400 . S
C234 C235 1.398 . S
C235 H223 0.950 . S
C235 C234 1.398 . S
C235 C236 1.391 . S
C236 H224 0.950 . S
C236 C232 1.393 . S
C236 C235 1.391 . S
H237 C245 0.950 . S
H238 C250 0.950 . S
H239 C247 0.950 . S
H240 C249 0.950 . S
H241 C251 0.950 . S
H242 C253 0.950 . S
H243 C255 0.950 . S
H244 C256 0.950 . S
C245 H237 0.950 . S
C245 C246 1.386 . S
C245 C247 1.391 . S
C246 C245 1.386 . S
C246 C250 1.393 . S
C247 H239 0.950 . S
C247 C245 1.391 . S
C247 C248 1.400 . S
C248 C247 1.400 . S
C248 C249 1.398 . S
C248 C254 1.491 . S
C249 H240 0.950 . S
C249 C248 1.398 . S
C249 C250 1.391 . S
C250 H238 0.950 . S
C250 C246 1.393 . S
C250 C249 1.391 . S
C251 H241 0.950 . S
C251 C252 1.386 . S
C251 C253 1.391 . S
C252 C251 1.386 . S
C252 C256 1.393 . S
C253 H242 0.950 . S
C253 C251 1.391 . S
C253 C254 1.400 . S
C254 C248 1.491 . S
C254 C253 1.400 . S
C254 C255 1.398 . S
C255 H243 0.950 . S
C255 C254 1.398 . S
C255 C256 1.391 . S
C256 H244 0.950 . S
C256 C252 1.393 . S
C256 C255 1.391 . S
H257 C265 0.950 . S
H258 C270 0.950 . S
H259 C267 0.950 . S
H260 C269 0.950 . S
H261 C271 0.950 . S
H262 C273 0.950 . S
H263 C275 0.950 . S
H264 C276 0.950 . S
C265 H257 0.950 . S
C265 C266 1.386 . S
C265 C267 1.391 . S
C266 C265 1.386 . S
C266 C270 1.393 . S
C267 H259 0.950 . S
C267 C265 1.391 . S
C267 C268 1.400 . S
C268 C267 1.400 . S
C268 C269 1.398 . S
C268 C274 1.491 . S
C269 H260 0.950 . S
C269 C268 1.398 . S
C269 C270 1.391 . S
C270 H258 0.950 . S
C270 C266 1.393 . S
C270 C269 1.391 . S
C271 H261 0.950 . S
C271 C272 1.386 . S
C271 C273 1.391 . S
C272 C271 1.386 . S
C272 C276 1.393 . S
C273 H262 0.950 . S
C273 C271 1.391 . S
C273 C274 1.400 . S
C274 C268 1.491 . S
C274 C273 1.400 . S
C274 C275 1.398 . S
C275 H263 0.950 . S
C275 C274 1.398 . S
C275 C276 1.391 . S
C276 H264 0.950 . S
C276 C272 1.393 . S
C276 C275 1.391 . S
H277 C285 0.950 . S
H278 C290 0.950 . S
H279 C287 0.950 . S
H280 C289 0.950 . S
H281 C291 0.950 . S
H282 C293 0.950 . S
H283 C295 0.950 . S
H284 C296 0.950 . S
C285 H277 0.950 . S
C285 C286 1.386 . S
C285 C287 1.391 . S
C286 C285 1.386 . S
C286 C290 1.393 . S
C287 H279 0.950 . S
C287 C285 1.391 . S
C287 C288 1.400 . S
C288 C287 1.400 . S
C288 C289 1.398 . S
C288 C294 1.491 . S
C289 H280 0.950 . S
C289 C288 1.398 . S
C289 C290 1.391 . S
C290 H278 0.950 . S
C290 C286 1.393 . S
C290 C289 1.391 . S
C291 H281 0.950 . S
C291 C292 1.386 . S
C291 C293 1.391 . S
C292 C291 1.386 . S
C292 C296 1.393 . S
C293 H282 0.950 . S
C293 C291 1.391 . S
C293 C294 1.400 . S
C294 C288 1.491 . S
C294 C293 1.400 . S
C294 C295 1.398 . S
C295 H283 0.950 . S
C295 C294 1.398 . S
C295 C296 1.391 . S
C296 H284 0.950 . S
C296 C292 1.393 . S
C296 C295 1.391 . S
H297 C305 0.950 . S
H298 C310 0.950 . S
H299 C307 0.950 . S
H300 C309 0.950 . S
H301 C311 0.950 . S
H302 C313 0.950 . S
H303 C315 0.950 . S
H304 C316 0.950 . S
C305 H297 0.950 . S
C305 C306 1.386 . S
C305 C307 1.391 . S
C306 C305 1.386 . S
C306 C310 1.393 . S
C307 H299 0.950 . S
C307 C305 1.391 . S
C307 C308 1.400 . S
C308 C307 1.400 . S
C308 C309 1.398 . S
C308 C314 1.491 . S
C309 H300 0.950 . S
C309 C308 1.398 . S
C309 C310 1.391 . S
C310 H298 0.950 . S
C310 C306 1.393 . S
C310 C309 1.391 . S
C311 H301 0.950 . S
C311 C312 1.386 . S
C311 C313 1.391 . S
C312 C311 1.386 . S
C312 C316 1.393 . S
C313 H302 0.950 . S
C313 C311 1.391 . S
C313 C314 1.400 . S
C314 C308 1.491 . S
C314 C313 1.400 . S
C314 C315 1.398 . S
C315 H303 0.950 . S
C315 C314 1.398 . S
C315 C316 1.391 . S
C316 H304 0.950 . S
C316 C312 1.393 . S
C316 C315 1.391 . S
H317 C325 0.950 . S
H318 C330 0.950 . S
H319 C327 0.950 . S
H320 C329 0.950 . S
H321 C331 0.950 . S
H322 C333 0.950 . S
H323 C335 0.950 . S
H324 C336 0.950 . S
C325 H317 0.950 . S
C325 C326 1.386 . S
C325 C327 1.391 . S
C326 C325 1.386 . S
C326 C330 1.393 . S
C327 H319 0.950 . S
C327 C325 1.391 . S
C327 C328 1.400 . S
C328 C327 1.400 . S
C328 C329 1.398 . S
C328 C334 1.491 . S
C329 H320 0.950 . S
C329 C328 1.398 . S
C329 C330 1.391 . S
C330 H318 0.950 . S
C330 C326 1.393 . S
C330 C329 1.391 . S
C331 H321 0.950 . S
C331 C332 1.386 . S
C331 C333 1.391 . S
C332 C331 1.386 . S
C332 C336 1.393 . S
C333 H322 0.950 . S
C333 C331 1.391 . S
C333 C334 1.400 . S
C334 C328 1.491 . S
C334 C333 1.400 . S
C334 C335 1.398 . S
C335 H323 0.950 . S
C335 C334 1.398 . S
C335 C336 1.391 . S
C336 H324 0.950 . S
C336 C332 1.393 . S
C336 C335 1.391 . S
H337 C345 0.950 1_554 S
H338 C350 0.950 . S
H339 C347 0.950 . S
H340 C349 0.950 . S
H341 C351 0.950 . S
H342 C353 0.950 . S
H343 C355 0.950 . S
H344 C356 0.950 . S
C345 H337 0.950 1_556 S
C345 C346 1.386 . S
C345 C347 1.391 . S
C346 C345 1.386 . S
C346 C350 1.393 . S
C347 H339 0.950 . S
C347 C345 1.391 . S
C347 C348 1.400 . S
C348 C347 1.400 . S
C348 C349 1.398 . S
C348 C354 1.491 . S
C349 H340 0.950 . S
C349 C348 1.398 . S
C349 C350 1.391 . S
C350 H338 0.950 . S
C350 C346 1.393 . S
C350 C349 1.391 . S
C351 H341 0.950 . S
C351 C352 1.386 . S
C351 C353 1.391 . S
C352 C351 1.386 . S
C352 C356 1.393 . S
C353 H342 0.950 . S
C353 C351 1.391 . S
C353 C354 1.400 . S
C354 C348 1.491 . S
C354 C353 1.400 . S
C354 C355 1.398 . S
C355 H343 0.950 . S
C355 C354 1.398 . S
C355 C356 1.391 . S
C356 H344 0.950 . S
C356 C352 1.393 . S
C356 C355 1.391 . S
H357 C365 0.950 . S
H358 C370 0.950 . S
H359 C367 0.950 . S
H360 C369 0.950 . S
H361 C371 0.950 . S
H362 C373 0.950 . S
H363 C375 0.950 . S
H364 C376 0.950 . S
C365 H357 0.950 . S
C365 C366 1.386 . S
C365 C367 1.385 1_554 S
C366 C365 1.386 . S
C366 C370 1.393 . S
C367 H359 0.950 . S
C367 C365 1.385 1_556 S
C367 C368 1.407 . S
C368 C367 1.407 . S
C368 C369 1.398 . S
C368 C374 1.491 . S
C369 H360 0.950 . S
C369 C368 1.398 . S
C369 C370 1.391 1_556 S
C370 H358 0.950 . S
C370 C366 1.393 . S
C370 C369 1.391 1_554 S
C371 H361 0.950 . S
C371 C372 1.386 . S
C371 C373 1.391 . S
C372 C371 1.386 . S
C372 C376 1.393 . S
C373 H362 0.950 . S
C373 C371 1.391 . S
C373 C374 1.400 . S
C374 C368 1.491 . S
C374 C373 1.400 . S
C374 C375 1.398 . S
C375 H363 0.950 . S
C375 C374 1.398 . S
C375 C376 1.391 . S
C376 H364 0.950 . S
C376 C372 1.393 . S
C376 C375 1.391 . S
H377 C385 0.950 . S
H378 C390 0.950 . S
H379 C387 0.950 . S
H380 C389 0.950 . S
H381 C391 0.950 . S
H382 C393 0.950 . S
H383 C395 0.950 . S
H384 C396 0.950 . S
C385 H377 0.950 . S
C385 C386 1.386 . S
C385 C387 1.391 . S
C386 C385 1.386 . S
C386 C390 1.393 1_554 S
C387 H379 0.950 . S
C387 C385 1.391 . S
C387 C388 1.400 1_554 S
C388 C387 1.400 1_556 S
C388 C389 1.398 . S
C388 C394 1.491 . S
C389 H380 0.950 . S
C389 C388 1.398 . S
C389 C390 1.391 . S
C390 H378 0.950 . S
C390 C386 1.393 1_556 S
C390 C389 1.391 . S
C391 H381 0.950 . S
C391 C392 1.386 . S
C391 C393 1.391 . S
C392 C391 1.386 . S
C392 C396 1.393 . S
C393 H382 0.950 . S
C393 C391 1.391 . S
C393 C394 1.400 . S
C394 C388 1.491 . S
C394 C393 1.400 . S
C394 C395 1.398 . S
C395 H383 0.950 . S
C395 C394 1.398 . S
C395 C396 1.391 . S
C396 H384 0.950 . S
C396 C392 1.393 . S
C396 C395 1.391 . S
H397 C405 0.950 . S
H398 C410 0.950 . S
H399 C407 0.950 . S
H400 C409 0.950 . S
H401 C411 0.950 . S
H402 C413 0.950 . S
H403 C415 0.950 . S
H404 C416 0.950 . S
C405 H397 0.950 . S
C405 C406 1.386 . S
C405 C407 1.391 . S
C406 C405 1.386 . S
C406 C410 1.393 . S
C407 H399 0.950 . S
C407 C405 1.391 . S
C407 C408 1.400 . S
C408 C407 1.400 . S
C408 C409 1.398 . S
C408 C414 1.491 . S
C409 H400 0.950 . S
C409 C408 1.398 . S
C409 C410 1.391 . S
C410 H398 0.950 . S
C410 C406 1.393 . S
C410 C409 1.391 . S
C411 H401 0.950 . S
C411 C412 1.386 . S
C411 C413 1.391 . S
C412 C411 1.386 . S
C412 C416 1.393 . S
C413 H402 0.950 . S
C413 C411 1.391 . S
C413 C414 1.400 . S
C414 C408 1.491 . S
C414 C413 1.400 . S
C414 C415 1.398 . S
C415 H403 0.950 . S
C415 C414 1.398 . S
C415 C416 1.391 . S
C416 H404 0.950 . S
C416 C412 1.393 . S
C416 C415 1.391 . S
H417 C425 0.950 . S
H418 C430 0.950 . S
H419 C427 0.950 . S
H420 C429 0.950 . S
H421 C431 0.950 . S
H422 C433 0.950 . S
H423 C435 0.950 . S
H424 C436 0.950 . S
C425 H417 0.950 . S
C425 C426 1.386 . S
C425 C427 1.391 . S
C426 C425 1.386 . S
C426 C430 1.393 . S
C427 H419 0.950 . S
C427 C425 1.391 . S
C427 C428 1.400 . S
C428 C427 1.400 . S
C428 C429 1.398 . S
C428 C434 1.491 . S
C429 H420 0.950 . S
C429 C428 1.398 . S
C429 C430 1.391 . S
C430 H418 0.950 . S
C430 C426 1.393 . S
C430 C429 1.391 . S
C431 H421 0.950 . S
C431 C432 1.386 . S
C431 C433 1.391 . S
C432 C431 1.386 . S
C432 C436 1.393 . S
C433 H422 0.950 . S
C433 C431 1.391 . S
C433 C434 1.400 . S
C434 C428 1.491 . S
C434 C433 1.400 . S
C434 C435 1.398 . S
C435 H423 0.950 . S
C435 C434 1.398 . S
C435 C436 1.391 . S
C436 H424 0.950 . S
C436 C432 1.393 . S
C436 C435 1.391 . S
H437 C445 0.950 . S
H438 C450 0.950 . S
H439 C447 0.950 . S
H440 C449 0.950 . S
H441 C451 0.950 . S
H442 C453 0.950 . S
H443 C455 0.950 . S
H444 C456 0.950 . S
C445 H437 0.950 . S
C445 C446 1.386 . S
C445 C447 1.391 . S
C446 C445 1.386 . S
C446 C450 1.393 1_556 S
C447 H439 0.950 . S
C447 C445 1.391 . S
C447 C448 1.400 . S
C448 C447 1.400 . S
C448 C449 1.398 . S
C448 C454 1.491 . S
C449 H440 0.950 . S
C449 C448 1.398 . S
C449 C450 1.391 1_556 S
C450 H438 0.950 . S
C450 C446 1.393 1_554 S
C450 C449 1.391 1_554 S
C451 H441 0.950 . S
C451 C452 1.386 . S
C451 C453 1.391 . S
C452 C451 1.386 . S
C452 C456 1.393 . S
C453 H442 0.950 . S
C453 C451 1.391 . S
C453 C454 1.400 . S
C454 C448 1.491 . S
C454 C453 1.400 . S
C454 C455 1.398 . S
C455 H443 0.950 . S
C455 C454 1.398 . S
C455 C456 1.391 . S
C456 H444 0.950 . S
C456 C452 1.393 . S
C456 C455 1.391 . S
H457 C465 0.950 . S
H458 C470 0.950 . S
H459 C467 0.949 . S
H460 C469 0.950 . S
H461 C471 0.950 . S
H462 C473 0.950 . S
H463 C475 0.950 . S
H464 C476 0.950 . S
C465 H457 0.950 . S
C465 C466 1.386 . S
C465 C467 1.391 1_554 S
C466 C465 1.386 . S
C466 C470 1.393 1_554 S
C467 H459 0.949 . S
C467 C465 1.391 1_556 S
C467 C468 1.400 . S
C468 C467 1.400 . S
C468 C469 1.398 . S
C468 C474 1.491 . S
C469 H460 0.950 . S
C469 C468 1.398 . S
C469 C470 1.391 . S
C470 H458 0.950 . S
C470 C466 1.393 1_556 S
C470 C469 1.391 . S
C471 H461 0.950 . S
C471 C472 1.386 . S
C471 C473 1.391 . S
C472 C471 1.386 . S
C472 C476 1.393 . S
C473 H462 0.950 . S
C473 C471 1.391 . S
C473 C474 1.400 . S
C474 C468 1.491 . S
C474 C473 1.400 . S
C474 C475 1.398 . S
C475 H463 0.950 . S
C475 C474 1.398 . S
C475 C476 1.391 . S
C476 H464 0.950 . S
C476 C472 1.393 . S
C476 C475 1.391 . S
H477 C485 0.950 . S
H478 C490 0.950 . S
H479 C487 0.950 . S
H480 C489 0.950 . S
H481 C491 0.950 . S
H482 C493 0.950 . S
H483 C495 0.950 . S
H484 C496 0.950 . S
C485 H477 0.950 . S
C485 C486 1.386 1_556 S
C485 C487 1.391 . S
C486 C485 1.386 1_554 S
C486 C490 1.393 . S
C487 H479 0.950 . S
C487 C485 1.391 . S
C487 C488 1.400 . S
C488 C487 1.400 . S
C488 C489 1.398 1_556 S
C488 C494 1.491 . S
C489 H480 0.950 . S
C489 C488 1.398 1_554 S
C489 C490 1.391 . S
C490 H478 0.950 . S
C490 C486 1.393 . S
C490 C489 1.391 . S
C491 H481 0.950 . S
C491 C492 1.386 . S
C491 C493 1.391 . S
C492 C491 1.386 . S
C492 C496 1.393 . S
C493 H482 0.950 . S
C493 C491 1.391 . S
C493 C494 1.400 . S
C494 C488 1.491 . S
C494 C493 1.400 . S
C494 C495 1.398 . S
C495 H483 0.950 . S
C495 C494 1.398 . S
C495 C496 1.391 . S
C496 H484 0.950 . S
C496 C492 1.393 . S
C496 C495 1.391 . S
H497 C505 0.950 . S
H498 C510 0.950 . S
H499 C507 0.950 . S
H500 C509 0.950 . S
H501 C511 0.950 . S
H502 C513 0.950 . S
H503 C515 0.950 . S
H504 C516 0.950 . S
C505 H497 0.950 . S
C505 C506 1.386 . S
C505 C507 1.391 . S
C506 C505 1.386 . S
C506 C510 1.393 . S
C507 H499 0.950 . S
C507 C505 1.391 . S
C507 C508 1.400 . S
C508 C507 1.400 . S
C508 C509 1.398 . S
C508 C514 1.491 . S
C509 H500 0.950 . S
C509 C508 1.398 . S
C509 C510 1.391 . S
C510 H498 0.950 . S
C510 C506 1.393 . S
C510 C509 1.391 . S
C511 H501 0.950 . S
C511 C512 1.386 . S
C511 C513 1.391 . S
C512 C511 1.386 . S
C512 C516 1.393 . S
C513 H502 0.950 . S
C513 C511 1.391 . S
C513 C514 1.400 . S
C514 C508 1.491 . S
C514 C513 1.400 . S
C514 C515 1.398 . S
C515 H503 0.950 . S
C515 C514 1.398 . S
C515 C516 1.391 . S
C516 H504 0.950 . S
C516 C512 1.393 . S
C516 C515 1.391 . S
H517 C525 0.950 . S
H518 C530 0.950 . S
H519 C527 0.950 . S
H520 C529 0.950 . S
H521 C531 0.950 . S
H522 C533 0.950 . S
H523 C535 0.950 . S
H524 C536 0.950 . S
C525 H517 0.950 . S
C525 C526 1.386 . S
C525 C527 1.391 . S
C526 C525 1.386 . S
C526 C530 1.393 . S
C527 H519 0.950 . S
C527 C525 1.391 . S
C527 C528 1.400 . S
C528 C527 1.400 . S
C528 C529 1.398 . S
C528 C534 1.491 . S
C529 H520 0.950 . S
C529 C528 1.398 . S
C529 C530 1.391 . S
C530 H518 0.950 . S
C530 C526 1.393 . S
C530 C529 1.391 . S
C531 H521 0.950 . S
C531 C532 1.386 . S
C531 C533 1.391 . S
C532 C531 1.386 . S
C532 C536 1.393 . S
C533 H522 0.950 . S
C533 C531 1.391 . S
C533 C534 1.400 . S
C534 C528 1.491 . S
C534 C533 1.400 . S
C534 C535 1.398 . S
C535 H523 0.950 . S
C535 C534 1.398 . S
C535 C536 1.391 . S
C536 H524 0.950 . S
C536 C532 1.393 . S
C536 C535 1.391 . S
H537 C545 0.950 . S
H538 C550 0.950 . S
H539 C547 0.950 . S
H540 C549 0.950 . S
H541 C551 0.950 . S
H542 C553 0.950 . S
H543 C555 0.950 . S
H544 C556 0.950 . S
C545 H537 0.950 . S
C545 C546 1.386 . S
C545 C547 1.391 . S
C546 C545 1.386 . S
C546 C550 1.393 . S
C547 H539 0.950 . S
C547 C545 1.391 . S
C547 C548 1.400 . S
C548 C547 1.400 . S
C548 C549 1.398 . S
C548 C554 1.491 . S
C549 H540 0.950 . S
C549 C548 1.398 . S
C549 C550 1.391 . S
C550 H538 0.950 . S
C550 C546 1.393 . S
C550 C549 1.391 . S
C551 H541 0.950 . S
C551 C552 1.386 . S
C551 C553 1.391 . S
C552 C551 1.386 . S
C552 C556 1.393 . S
C553 H542 0.950 . S
C553 C551 1.391 . S
C553 C554 1.400 . S
C554 C548 1.491 . S
C554 C553 1.400 . S
C554 C555 1.398 . S
C555 H543 0.950 . S
C555 C554 1.398 . S
C555 C556 1.391 . S
C556 H544 0.950 . S
C556 C552 1.393 . S
C556 C555 1.391 . S
H557 C565 0.950 . S
H558 C570 0.950 . S
H559 C567 0.950 . S
H560 C569 0.950 . S
H561 C571 0.950 . S
H562 C573 0.950 . S
H563 C575 0.950 . S
H564 C576 0.950 . S
C565 H557 0.950 . S
C565 C566 1.386 . S
C565 C567 1.391 . S
C566 C565 1.386 . S
C566 C570 1.393 . S
C567 H559 0.950 . S
C567 C565 1.391 . S
C567 C568 1.400 . S
C568 C567 1.400 . S
C568 C569 1.398 . S
C568 C574 1.491 . S
C569 H560 0.950 . S
C569 C568 1.398 . S
C569 C570 1.391 . S
C570 H558 0.950 . S
C570 C566 1.393 . S
C570 C569 1.391 . S
C571 H561 0.950 . S
C571 C572 1.386 . S
C571 C573 1.391 . S
C572 C571 1.386 . S
C572 C576 1.393 . S
C573 H562 0.950 . S
C573 C571 1.391 . S
C573 C574 1.400 . S
C574 C568 1.491 . S
C574 C573 1.400 . S
C574 C575 1.398 . S
C575 H563 0.950 . S
C575 C574 1.398 . S
C575 C576 1.391 . S
C576 H564 0.950 . S
C576 C572 1.393 . S
C576 C575 1.391 . S
H577 C585 0.950 . S
H578 C590 0.950 . S
H579 C587 0.950 . S
H580 C589 0.950 . S
H581 C591 0.950 . S
H582 C593 0.950 . S
H583 C595 0.950 . S
H584 C596 0.950 . S
C585 H577 0.950 . S
C585 C586 1.386 . S
C585 C587 1.391 . S
C586 C585 1.386 . S
C586 C590 1.393 . S
C587 H579 0.950 . S
C587 C585 1.391 . S
C587 C588 1.400 . S
C588 C587 1.400 . S
C588 C589 1.398 . S
C588 C594 1.491 . S
C589 H580 0.950 . S
C589 C588 1.398 . S
C589 C590 1.391 . S
C590 H578 0.950 . S
C590 C586 1.393 . S
C590 C589 1.391 . S
C591 H581 0.950 . S
C591 C592 1.386 . S
C591 C593 1.391 . S
C592 C591 1.386 . S
C592 C596 1.393 . S
C593 H582 0.950 . S
C593 C591 1.391 . S
C593 C594 1.400 . S
C594 C588 1.491 . S
C594 C593 1.400 . S
C594 C595 1.398 . S
C595 H583 0.950 . S
C595 C594 1.398 . S
C595 C596 1.391 . S
C596 H584 0.950 . S
C596 C592 1.393 . S
C596 C595 1.391 . S
H597 C605 0.950 . S
H598 C610 0.950 . S
H599 C607 0.950 . S
H600 C609 0.950 . S
H601 C611 0.950 . S
H602 C613 0.950 . S
H603 C615 0.950 . S
H604 C616 0.950 . S
C605 H597 0.950 . S
C605 C606 1.386 . S
C605 C607 1.391 . S
C606 C605 1.386 . S
C606 C610 1.393 . S
C607 H599 0.950 . S
C607 C605 1.391 . S
C607 C608 1.400 . S
C608 C607 1.400 . S
C608 C609 1.398 . S
C608 C614 1.491 . S
C609 H600 0.950 . S
C609 C608 1.398 . S
C609 C610 1.391 . S
C610 H598 0.950 . S
C610 C606 1.393 . S
C610 C609 1.391 . S
C611 H601 0.950 . S
C611 C612 1.386 . S
C611 C613 1.391 . S
C612 C611 1.386 . S
C612 C616 1.393 . S
C613 H602 0.950 . S
C613 C611 1.391 . S
C613 C614 1.400 . S
C614 C608 1.491 . S
C614 C613 1.400 . S
C614 C615 1.398 . S
C615 H603 0.950 . S
C615 C614 1.398 . S
C615 C616 1.391 . S
C616 H604 0.950 . S
C616 C612 1.393 . S
C616 C615 1.391 . S
H617 C625 0.950 . S
H618 C630 0.950 . S
H619 C627 0.950 . S
H620 C629 0.950 . S
H621 C631 0.950 . S
H622 C633 0.950 . S
H623 C635 0.950 . S
H624 C636 0.950 . S
C625 H617 0.950 . S
C625 C626 1.386 . S
C625 C627 1.391 . S
C626 C625 1.386 . S
C626 C630 1.393 . S
C627 H619 0.950 . S
C627 C625 1.391 . S
C627 C628 1.400 . S
C628 C627 1.400 . S
C628 C629 1.398 . S
C628 C634 1.491 . S
C629 H620 0.950 . S
C629 C628 1.398 . S
C629 C630 1.391 . S
C630 H618 0.950 . S
C630 C626 1.393 . S
C630 C629 1.391 . S
C631 H621 0.950 . S
C631 C632 1.386 . S
C631 C633 1.391 . S
C632 C631 1.386 . S
C632 C636 1.393 . S
C633 H622 0.950 . S
C633 C631 1.391 . S
C633 C634 1.400 . S
C634 C628 1.491 . S
C634 C633 1.400 . S
C634 C635 1.398 . S
C635 H623 0.950 . S
C635 C634 1.398 . S
C635 C636 1.391 . S
C636 H624 0.950 . S
C636 C632 1.393 . S
C636 C635 1.391 . S
H637 C645 0.950 . S
H638 C650 0.950 . S
H639 C647 0.950 . S
H640 C649 0.950 . S
H641 C651 0.950 . S
H642 C653 0.950 . S
H643 C655 0.950 . S
H644 C656 0.950 . S
C645 H637 0.950 . S
C645 C646 1.386 . S
C645 C647 1.391 . S
C646 C645 1.386 . S
C646 C650 1.393 . S
C647 H639 0.950 . S
C647 C645 1.391 . S
C647 C648 1.400 . S
C648 C647 1.400 . S
C648 C649 1.398 . S
C648 C654 1.491 . S
C649 H640 0.950 . S
C649 C648 1.398 . S
C649 C650 1.391 . S
C650 H638 0.950 . S
C650 C646 1.393 . S
C650 C649 1.391 . S
C651 H641 0.950 . S
C651 C652 1.386 . S
C651 C653 1.391 . S
C652 C651 1.386 . S
C652 C656 1.393 . S
C653 H642 0.950 . S
C653 C651 1.391 . S
C653 C654 1.400 . S
C654 C648 1.491 . S
C654 C653 1.400 . S
C654 C655 1.398 . S
C655 H643 0.950 . S
C655 C654 1.398 . S
C655 C656 1.391 . S
C656 H644 0.950 . S
C656 C652 1.393 . S
C656 C655 1.391 . S
C186 C1 1.688 . S
C192 C84 1.605 . S
C206 C27 1.476 . S
C212 C116 1.457 . S
C232 C175 1.796 . S
C226 C40 1.835 . S
C252 C104 1.361 . S
C246 C55 1.389 . S
C266 C68 1.610 . S
C272 C134 1.535 . S
C292 C156 1.161 . S
C286 C70 1.195 . S
C312 C125 1.582 . S
C306 C41 1.625 . S
C326 C54 1.239 . S
C332 C165 1.183 . S
C352 C114 1.513 . S
C346 C69 1.561 1_556 S
C366 C71 1.455 . S
C372 C144 1.422 . S
C386 C0 1.761 . S
C392 C147 1.728 . S
C412 C86 1.513 . S
C406 C26 1.535 1_556 S
C432 C94 1.571 . S
C426 C42 1.611 . S
C452 C135 1.438 . S
C446 C57 1.475 1_556 S
C472 C148 1.800 . S
C466 C83 1.852 . S
C492 C85 1.404 . S
C486 C12 1.430 . S
C512 C145 1.500 . S
C506 C14 1.540 1_556 S
C526 C29 1.217 . S
C532 C146 1.155 . S
C552 C115 1.549 . S
C546 C82 1.617 . S
C572 C176 1.162 . S
C566 C13 1.194 . S
C592 C103 1.502 . S
C586 C15 1.566 . S
C612 C117 1.457 . S
C606 C28 1.496 . S
C626 C43 1.768 . S
C632 C166 1.722 . S
C646 C56 1.563 . S
C652 C113 1.536 . S
