# Generated by pormake.
# Topology fgl, (4,4)-cn, num edge types: 1
# Building blocks:
#     Node 0, Type 0, BuildingBlock: ESEHIV_clean_sbu_0, # of connection points: 4
#     Node 1, Type 0, BuildingBlock: ESEHIV_clean_sbu_0, # of connection points: 4
#     Node 2, Type 0, BuildingBlock: ESEHIV_clean_sbu_0, # of connection points: 4
#     Node 3, Type 0, BuildingBlock: ESEHIV_clean_sbu_0, # of connection points: 4
#     Node 4, Type 0, BuildingBlock: ESEHIV_clean_sbu_0, # of connection points: 4
#     Node 5, Type 0, BuildingBlock: ESEHIV_clean_sbu_0, # of connection points: 4
#     Node 6, Type 0, BuildingBlock: ESEHIV_clean_sbu_0, # of connection points: 4
#     Node 7, Type 0, BuildingBlock: ESEHIV_clean_sbu_0, # of connection points: 4
#     Node 8, Type 0, BuildingBlock: ESEHIV_clean_sbu_0, # of connection points: 4
#     Node 9, Type 0, BuildingBlock: ESEHIV_clean_sbu_0, # of connection points: 4
#     Node 10, Type 0, BuildingBlock: ESEHIV_clean_sbu_0, # of connection points: 4
#     Node 11, Type 0, BuildingBlock: ESEHIV_clean_sbu_0, # of connection points: 4
#     Node 12, Type 0, BuildingBlock: ESEHIV_clean_sbu_0, # of connection points: 4
#     Node 13, Type 0, BuildingBlock: ESEHIV_clean_sbu_0, # of connection points: 4
#     Node 14, Type 0, BuildingBlock: ESEHIV_clean_sbu_0, # of connection points: 4
#     Node 15, Type 0, BuildingBlock: ESEHIV_clean_sbu_0, # of connection points: 4
#     Node 16, Type 0, BuildingBlock: ESEHIV_clean_sbu_0, # of connection points: 4
#     Node 17, Type 0, BuildingBlock: ESEHIV_clean_sbu_0, # of connection points: 4
#     Node 18, Type 1, BuildingBlock: KUFVIS_clean_sbu_0, # of connection points: 4
#     Node 19, Type 1, BuildingBlock: KUFVIS_clean_sbu_0, # of connection points: 4
#     Node 20, Type 1, BuildingBlock: KUFVIS_clean_sbu_0, # of connection points: 4
#     Node 21, Type 1, BuildingBlock: KUFVIS_clean_sbu_0, # of connection points: 4
#     Node 22, Type 1, BuildingBlock: KUFVIS_clean_sbu_0, # of connection points: 4
#     Node 23, Type 1, BuildingBlock: KUFVIS_clean_sbu_0, # of connection points: 4
#     Node 24, Type 1, BuildingBlock: KUFVIS_clean_sbu_0, # of connection points: 4
#     Node 25, Type 1, BuildingBlock: KUFVIS_clean_sbu_0, # of connection points: 4
#     Node 26, Type 1, BuildingBlock: KUFVIS_clean_sbu_0, # of connection points: 4
#     Node 27, Type 1, BuildingBlock: KUFVIS_clean_sbu_0, # of connection points: 4
#     Node 28, Type 1, BuildingBlock: KUFVIS_clean_sbu_0, # of connection points: 4
#     Node 29, Type 1, BuildingBlock: KUFVIS_clean_sbu_0, # of connection points: 4
#     Node 30, Type 1, BuildingBlock: KUFVIS_clean_sbu_0, # of connection points: 4
#     Node 31, Type 1, BuildingBlock: KUFVIS_clean_sbu_0, # of connection points: 4
#     Node 32, Type 1, BuildingBlock: KUFVIS_clean_sbu_0, # of connection points: 4
#     Node 33, Type 1, BuildingBlock: KUFVIS_clean_sbu_0, # of connection points: 4
#     Node 34, Type 1, BuildingBlock: KUFVIS_clean_sbu_0, # of connection points: 4
#     Node 35, Type 1, BuildingBlock: KUFVIS_clean_sbu_0, # of connection points: 4
#     Edge 36, Type (0, 1), BuildingBlock: XIVTED_clean_linker_0, # of connection points: 2
#     Edge 37, Type (0, 1), BuildingBlock: XIVTED_clean_linker_0, # of connection points: 2
#     Edge 38, Type (0, 1), BuildingBlock: XIVTED_clean_linker_0, # of connection points: 2
#     Edge 39, Type (0, 1), BuildingBlock: XIVTED_clean_linker_0, # of connection points: 2
#     Edge 40, Type (0, 1), BuildingBlock: XIVTED_clean_linker_0, # of connection points: 2
#     Edge 41, Type (0, 1), BuildingBlock: XIVTED_clean_linker_0, # of connection points: 2
#     Edge 42, Type (0, 1), BuildingBlock: XIVTED_clean_linker_0, # of connection points: 2
#     Edge 43, Type (0, 1), BuildingBlock: XIVTED_clean_linker_0, # of connection points: 2
#     Edge 44, Type (0, 1), BuildingBlock: XIVTED_clean_linker_0, # of connection points: 2
#     Edge 45, Type (0, 1), BuildingBlock: XIVTED_clean_linker_0, # of connection points: 2
#     Edge 46, Type (0, 1), BuildingBlock: XIVTED_clean_linker_0, # of connection points: 2
#     Edge 47, Type (0, 1), BuildingBlock: XIVTED_clean_linker_0, # of connection points: 2
#     Edge 48, Type (0, 1), BuildingBlock: XIVTED_clean_linker_0, # of connection points: 2
#     Edge 49, Type (0, 1), BuildingBlock: XIVTED_clean_linker_0, # of connection points: 2
#     Edge 50, Type (0, 1), BuildingBlock: XIVTED_clean_linker_0, # of connection points: 2
#     Edge 51, Type (0, 1), BuildingBlock: XIVTED_clean_linker_0, # of connection points: 2
#     Edge 52, Type (0, 1), BuildingBlock: XIVTED_clean_linker_0, # of connection points: 2
#     Edge 53, Type (0, 1), BuildingBlock: XIVTED_clean_linker_0, # of connection points: 2
#     Edge 54, Type (0, 1), BuildingBlock: XIVTED_clean_linker_0, # of connection points: 2
#     Edge 55, Type (0, 1), BuildingBlock: XIVTED_clean_linker_0, # of connection points: 2
#     Edge 56, Type (0, 1), BuildingBlock: XIVTED_clean_linker_0, # of connection points: 2
#     Edge 57, Type (0, 1), BuildingBlock: XIVTED_clean_linker_0, # of connection points: 2
#     Edge 58, Type (0, 1), BuildingBlock: XIVTED_clean_linker_0, # of connection points: 2
#     Edge 59, Type (0, 1), BuildingBlock: XIVTED_clean_linker_0, # of connection points: 2
#     Edge 60, Type (0, 1), BuildingBlock: XIVTED_clean_linker_0, # of connection points: 2
#     Edge 61, Type (0, 1), BuildingBlock: XIVTED_clean_linker_0, # of connection points: 2
#     Edge 62, Type (0, 1), BuildingBlock: XIVTED_clean_linker_0, # of connection points: 2
#     Edge 63, Type (0, 1), BuildingBlock: XIVTED_clean_linker_0, # of connection points: 2
#     Edge 64, Type (0, 1), BuildingBlock: XIVTED_clean_linker_0, # of connection points: 2
#     Edge 65, Type (0, 1), BuildingBlock: XIVTED_clean_linker_0, # of connection points: 2
#     Edge 66, Type (0, 1), BuildingBlock: XIVTED_clean_linker_0, # of connection points: 2
#     Edge 67, Type (0, 1), BuildingBlock: XIVTED_clean_linker_0, # of connection points: 2
#     Edge 68, Type (0, 1), BuildingBlock: XIVTED_clean_linker_0, # of connection points: 2
#     Edge 69, Type (0, 1), BuildingBlock: XIVTED_clean_linker_0, # of connection points: 2
#     Edge 70, Type (0, 1), BuildingBlock: XIVTED_clean_linker_0, # of connection points: 2
#     Edge 71, Type (0, 1), BuildingBlock: XIVTED_clean_linker_0, # of connection points: 2
#     Edge 72, Type (0, 1), BuildingBlock: XIVTED_clean_linker_0, # of connection points: 2
#     Edge 73, Type (0, 1), BuildingBlock: XIVTED_clean_linker_0, # of connection points: 2
#     Edge 74, Type (0, 1), BuildingBlock: XIVTED_clean_linker_0, # of connection points: 2
#     Edge 75, Type (0, 1), BuildingBlock: XIVTED_clean_linker_0, # of connection points: 2
#     Edge 76, Type (0, 1), BuildingBlock: XIVTED_clean_linker_0, # of connection points: 2
#     Edge 77, Type (0, 1), BuildingBlock: XIVTED_clean_linker_0, # of connection points: 2
#     Edge 78, Type (0, 1), BuildingBlock: XIVTED_clean_linker_0, # of connection points: 2
#     Edge 79, Type (0, 1), BuildingBlock: XIVTED_clean_linker_0, # of connection points: 2
#     Edge 80, Type (0, 1), BuildingBlock: XIVTED_clean_linker_0, # of connection points: 2
#     Edge 81, Type (0, 1), BuildingBlock: XIVTED_clean_linker_0, # of connection points: 2
#     Edge 82, Type (0, 1), BuildingBlock: XIVTED_clean_linker_0, # of connection points: 2
#     Edge 83, Type (0, 1), BuildingBlock: XIVTED_clean_linker_0, # of connection points: 2
#     Edge 84, Type (0, 1), BuildingBlock: XIVTED_clean_linker_0, # of connection points: 2
#     Edge 85, Type (0, 1), BuildingBlock: XIVTED_clean_linker_0, # of connection points: 2
#     Edge 86, Type (0, 1), BuildingBlock: XIVTED_clean_linker_0, # of connection points: 2
#     Edge 87, Type (0, 1), BuildingBlock: XIVTED_clean_linker_0, # of connection points: 2
#     Edge 88, Type (0, 1), BuildingBlock: XIVTED_clean_linker_0, # of connection points: 2
#     Edge 89, Type (0, 1), BuildingBlock: XIVTED_clean_linker_0, # of connection points: 2
#     Edge 90, Type (0, 1), BuildingBlock: XIVTED_clean_linker_0, # of connection points: 2
#     Edge 91, Type (0, 1), BuildingBlock: XIVTED_clean_linker_0, # of connection points: 2
#     Edge 92, Type (0, 1), BuildingBlock: XIVTED_clean_linker_0, # of connection points: 2
#     Edge 93, Type (0, 1), BuildingBlock: XIVTED_clean_linker_0, # of connection points: 2
#     Edge 94, Type (0, 1), BuildingBlock: XIVTED_clean_linker_0, # of connection points: 2
#     Edge 95, Type (0, 1), BuildingBlock: XIVTED_clean_linker_0, # of connection points: 2
#     Edge 96, Type (0, 1), BuildingBlock: XIVTED_clean_linker_0, # of connection points: 2
#     Edge 97, Type (0, 1), BuildingBlock: XIVTED_clean_linker_0, # of connection points: 2
#     Edge 98, Type (0, 1), BuildingBlock: XIVTED_clean_linker_0, # of connection points: 2
#     Edge 99, Type (0, 1), BuildingBlock: XIVTED_clean_linker_0, # of connection points: 2
#     Edge 100, Type (0, 1), BuildingBlock: XIVTED_clean_linker_0, # of connection points: 2
#     Edge 101, Type (0, 1), BuildingBlock: XIVTED_clean_linker_0, # of connection points: 2
#     Edge 102, Type (0, 1), BuildingBlock: XIVTED_clean_linker_0, # of connection points: 2
#     Edge 103, Type (0, 1), BuildingBlock: XIVTED_clean_linker_0, # of connection points: 2
#     Edge 104, Type (0, 1), BuildingBlock: XIVTED_clean_linker_0, # of connection points: 2
#     Edge 105, Type (0, 1), BuildingBlock: XIVTED_clean_linker_0, # of connection points: 2
#     Edge 106, Type (0, 1), BuildingBlock: XIVTED_clean_linker_0, # of connection points: 2
#     Edge 107, Type (0, 1), BuildingBlock: XIVTED_clean_linker_0, # of connection points: 2
# Relax obj value: 0.017
# Max RMSD: 0.137
# Mean RMSD: 0.072
data_MOF--net-fgl--node1-ESEHIV_clean_sbu_0--node2-KUFVIS_clean_sbu_0--edge1-XIVTED_clean_linker_0
_symmetry_space_group_name_H-M    P1
_symmetry_Int_Tables_number       1
_symmetry_cell_setting            triclinic
loop_
_symmetry_equiv_pos_as_xyz
'x, y, z'
_cell_length_a     74.514119
_cell_length_b     77.074213
_cell_length_c     51.236666
_cell_angle_alpha  89.401148
_cell_angle_beta   89.539243
_cell_angle_gamma 119.91649
loop_
_atom_site_label
_atom_site_type_symbol
_atom_site_fract_x
_atom_site_fract_y
_atom_site_fract_z
_atom_type_partial_charge
Cu0 Cu 0.01831 0.5428 0.01603 0.0
N1 N 1.00475 0.5414 0.04795 0.0
N2 N 0.99689 0.55166 0.08514 0.0
C3 C 1.00757 0.55727 0.06216 0.0
C4 C 0.98697 0.53142 0.08521 0.0
C5 C 0.99188 0.52518 0.06242 0.0
O6 O 0.02127 0.5662 0.9977 0.0
C7 C 0.04986 0.54103 0.04493 0.0
O8 O 0.04187 0.54472 0.06562 0.0
H9 H 0.01748 0.57264 0.05578 0.0
H10 H 0.98687 0.5099 0.05713 0.0
N11 N 1.00408 0.5205 0.99425 0.0
N12 N 0.99892 0.49986 0.96081 0.0
C13 C 0.01248 0.5169 0.97293 0.0
C14 C 0.98451 0.50516 0.99582 0.0
C15 C 0.98128 0.49247 0.97528 0.0
C16 C 1.00474 0.56443 0.9881 0.0
O17 O 0.98764 0.54699 0.98981 0.0
H18 H 0.02824 0.52682 0.96633 0.0
H19 H 0.97334 0.50334 0.01075 0.0
O20 O 0.04418 0.54323 0.02236 0.0
H21 H 0.97731 0.5217 0.10097 0.0
H22 H 0.96703 0.47874 0.97156 0.0
Cu23 Cu 0.52146 0.55043 0.01866 0.0
N24 N 0.52204 0.55926 0.98256 0.0
N25 N 0.53453 0.5738 0.94353 0.0
C26 C 0.53892 0.56864 0.96695 0.0
C27 C 0.51398 0.56723 0.9446 0.0
C28 C 0.50633 0.5583 0.96875 0.0
O29 O 0.54552 0.57879 0.02706 0.0
C30 C 0.50071 0.50835 1.00195 0.0
O31 O 0.51998 0.5127 0.99816 0.0
H32 H 0.55412 0.57166 0.97281 0.0
H33 H 0.49055 0.5519 0.97589 0.0
N34 N 0.52133 0.54157 0.05457 0.0
N35 N 0.51062 0.52871 0.09468 0.0
C36 C 0.50578 0.53484 0.07232 0.0
C37 C 0.53649 0.5397 0.0659 0.0
C38 C 0.52994 0.53178 0.09068 0.0
C39 C 0.54302 0.59139 0.0404 0.0
O40 O 0.52447 0.58597 0.04983 0.0
H41 H 0.49106 0.53394 0.06862 0.0
H42 H 0.55115 0.5436 0.05664 0.0
O43 O 0.49736 0.52207 0.0103 0.0
H44 H 0.50515 0.56919 0.92935 0.0
H45 H 0.53875 0.52857 0.10467 0.0
Cu46 Cu 0.53391 0.06501 0.01906 0.0
N47 N 0.5299 0.07301 0.98623 0.0
N48 N 0.51794 0.06945 0.94574 0.0
C49 C 0.51817 0.06005 0.96794 0.0
C50 C 0.53008 0.08919 0.95027 0.0
C51 C 0.53745 0.09135 0.97536 0.0
O52 O 0.50622 0.04923 0.03511 0.0
C53 C 0.56718 0.06325 0.99982 0.0
O54 O 0.56987 0.08012 0.9897 0.0
H55 H 0.51016 0.04398 0.97092 0.0
H56 H 0.54763 0.10526 0.98489 0.0
N57 N 0.54977 0.08632 0.04079 0.0
N58 N 0.57127 0.10139 0.07363 0.0
C59 C 0.56174 0.08486 0.05907 0.0
C60 C 0.55169 0.10451 0.04375 0.0
C61 C 0.56494 0.11386 0.06421 0.0
C62 C 0.49649 0.05897 0.03584 0.0
O63 O 0.50602 0.07745 0.02669 0.0
H64 H 0.56281 0.0715 0.06217 0.0
H65 H 0.54378 0.11043 0.03227 0.0
O66 O 0.55104 0.05251 0.01393 0.0
H67 H 0.53314 0.10122 0.93666 0.0
H68 H 0.56945 0.12855 0.07163 0.0
Cu69 Cu 0.50747 0.03184 0.50655 0.0
N70 N 0.50546 0.0216 0.47326 0.0
N71 N 0.5159 0.02102 0.43258 0.0
C72 C 0.51795 0.03242 0.45333 0.0
C73 C 0.50139 1.00221 0.43966 0.0
C74 C 0.49482 1.00264 0.46484 0.0
O75 O 0.53573 0.03981 0.51936 0.0
C76 C 0.47915 0.04392 0.49505 0.0
O77 O 0.46967 0.02496 0.48861 0.0
H78 H 0.52946 0.04811 0.4548 0.0
H79 H 0.48401 0.98991 0.47667 0.0
N80 N 0.48932 0.01211 0.52992 0.0
N81 N 0.46824 0.99985 0.56462 0.0
C82 C 0.47676 0.0146 0.54647 0.0
C83 C 0.48877 0.99513 0.53787 0.0
C84 C 0.47577 0.98754 0.55947 0.0
C85 C 0.54281 0.02813 0.51367 0.0
O86 O 0.53164 0.01256 0.49913 0.0
H87 H 0.47516 0.0278 0.54652 0.0
H88 H 0.49805 0.98932 0.52954 0.0
O89 O 0.49767 0.05159 0.50362 0.0
H90 H 0.49648 0.98906 0.42789 0.0
H91 H 0.47272 0.9745 0.57106 0.0
Cu92 Cu 0.02602 0.5529 0.52091 0.0
N93 N 0.04173 0.5448 0.54136 0.0
N94 N 0.04671 0.52748 0.57339 0.0
C95 C 0.03279 0.53021 0.5599 0.0
C96 C 0.0653 0.54095 0.563 0.0
C97 C 0.06219 0.5515 0.5431 0.0
O98 O 1.00072 0.52698 0.51668 0.0
C99 C 0.04186 0.58908 0.54485 0.0
O100 O 0.05855 0.5884 0.53826 0.0
H101 H 0.0163 0.52211 0.56398 0.0
H102 H 0.07405 0.56339 0.53111 0.0
N103 N 0.03666 0.56482 0.4877 0.0
N104 N 0.0383 0.58076 0.44983 0.0
C105 C 0.02769 0.57273 0.47246 0.0
C106 C 0.05371 0.56807 0.47435 0.0
C107 C 0.05476 0.57789 0.45106 0.0
C108 C 0.99717 0.51741 0.49538 0.0
O109 O 1.00573 0.52742 0.47365 0.0
H110 H 0.01366 0.5727 0.47812 0.0
H111 H 0.06459 0.56365 0.48103 0.0
O112 O 0.02419 0.57397 0.53993 0.0
H113 H 0.08005 0.54293 0.56919 0.0
H114 H 0.06662 0.58229 0.43606 0.0
Cu115 Cu 0.52434 0.54497 0.52353 0.0
N116 N 0.55179 0.55234 0.51613 0.0
N117 N 0.58567 0.57347 0.51034 0.0
C118 C 0.56687 0.57158 0.51436 0.0
C119 C 0.58221 0.55453 0.5094 0.0
C120 C 0.56126 0.54149 0.5131 0.0
O121 O 0.52645 0.56179 0.55306 0.0
C122 C 0.51294 0.53699 0.47298 0.0
O123 O 0.52425 0.52851 0.47675 0.0
H124 H 0.56393 0.58393 0.51592 0.0
H125 H 0.55356 0.52533 0.51363 0.0
N126 N 0.50789 0.51825 0.53396 0.0
N127 N 0.47838 0.49049 0.5444 0.0
C128 C 0.48712 0.50905 0.53395 0.0
C129 C 0.51253 0.50489 0.54447 0.0
C130 C 0.49425 0.48773 0.5512 0.0
C131 C 0.53305 0.55727 0.5735 0.0
O132 O 0.53626 0.54203 0.57259 0.0
H133 H 0.47858 0.51623 0.52744 0.0
H134 H 0.52801 0.50765 0.54798 0.0
O135 O 0.51129 0.54705 0.49155 0.0
H136 H 0.59395 0.55034 0.50663 0.0
H137 H 0.49272 0.47443 0.56068 0.0
Cu138 Cu 0.69422 0.89627 0.33947 0.0
N139 N 0.70578 0.92187 0.32397 0.0
N140 N 0.70714 0.95024 0.31072 0.0
C141 C 0.69698 0.93344 0.32551 0.0
C142 C 0.72303 0.94932 0.2994 0.0
C143 C 0.72225 0.93187 0.30774 0.0
O144 O 0.68031 0.89839 0.3721 0.0
C145 C 0.69245 0.87701 0.29287 0.0
O146 O 0.71227 0.88931 0.29612 0.0
H147 H 0.68288 0.92922 0.3365 0.0
H148 H 0.73275 0.92676 0.30181 0.0
N149 N 0.71417 0.89017 0.35115 0.0
N150 N 0.72602 0.87017 0.36455 0.0
C151 C 0.70927 0.8723 0.36183 0.0
C152 C 0.73487 0.89985 0.34736 0.0
C153 C 0.7422 0.88738 0.35538 0.0
C154 C 0.69316 0.91185 0.38756 0.0
O155 O 0.71277 0.92147 0.38035 0.0
H156 H 0.69352 0.86054 0.36584 0.0
H157 H 0.74383 0.91444 0.33817 0.0
O158 O 0.67986 0.87661 0.31059 0.0
H159 H 0.73428 0.9604 0.28594 0.0
H160 H 0.75801 0.89042 0.35381 0.0
Cu161 Cu 0.18834 0.89 0.36333 0.0
N162 N 0.16187 0.87421 0.34914 0.0
N163 N 0.13433 0.84668 0.33394 0.0
C164 C 0.15385 0.85477 0.3429 0.0
C165 C 0.12994 0.86169 0.33452 0.0
C166 C 0.14694 0.87864 0.3438 0.0
O167 O 0.18805 0.87478 0.39467 0.0
C168 C 0.20555 0.90336 0.31482 0.0
O169 O 0.18917 0.90556 0.3146 0.0
H170 H 0.16207 0.84662 0.3455 0.0
H171 H 0.14826 0.89312 0.34636 0.0
N172 N 0.19464 0.9158 0.37398 0.0
N173 N 0.2147 0.94786 0.38564 0.0
C174 C 0.21415 0.93104 0.37713 0.0
C175 C 0.18233 0.92325 0.38067 0.0
C176 C 0.19463 0.94295 0.3879 0.0
C177 C 0.17532 0.87387 0.41227 0.0
O178 O 0.16498 0.88327 0.40795 0.0
H179 H 0.22769 0.9296 0.37371 0.0
H180 H 0.16561 0.91494 0.38076 0.0
O181 O 0.20869 0.89552 0.33517 0.0
H182 H 0.11553 0.86059 0.32846 0.0
H183 H 0.18915 0.95288 0.39419 0.0
Cu184 Cu 0.17743 0.36818 0.34786 0.0
N185 N 0.16504 0.35656 0.31629 0.0
N186 N 0.14919 0.35267 0.27816 0.0
C187 C 0.15494 0.36286 0.30066 0.0
C188 C 0.15582 0.33929 0.27974 0.0
C189 C 0.16573 0.34182 0.30323 0.0
O190 O 0.1604 0.37691 0.36611 0.0
C191 C 0.2159 0.39246 0.3208 0.0
O192 O 0.205 0.38571 0.29952 0.0
H193 H 0.15218 0.37495 0.3055 0.0
H194 H 0.17361 0.33404 0.30978 0.0
N195 N 0.17822 0.34974 0.37077 0.0
N196 N 0.18692 0.34016 0.4075 0.0
C197 C 0.18732 0.35543 0.39401 0.0
C198 C 0.17164 0.33002 0.36936 0.0
C199 C 0.17718 0.32408 0.39206 0.0
C200 C 0.1565 0.39083 0.36068 0.0
O201 O 0.16588 0.40295 0.3407 0.0
H202 H 0.19464 0.37074 0.40056 0.0
H203 H 0.16352 0.32064 0.3531 0.0
O204 O 0.20657 0.38845 0.34286 0.0
H205 H 0.15443 0.32905 0.26456 0.0
H206 H 0.17424 0.30916 0.39685 0.0
Cu207 Cu 0.17388 0.34943 0.85317 0.0
N208 N 0.17138 0.33168 0.82715 0.0
N209 N 0.17967 0.32409 0.78859 0.0
C210 C 0.17928 0.33838 0.80312 0.0
C211 C 0.17152 0.30758 0.80415 0.0
C212 C 0.16638 0.31231 0.828 0.0
O213 O 0.20321 0.36198 0.8637 0.0
C214 C 0.14299 0.35452 0.83293 0.0
O215 O 0.13492 0.33505 0.83564 0.0
H216 H 0.18624 0.35397 0.79725 0.0
H217 H 0.16071 0.30267 0.8451 0.0
N218 N 0.1576 0.33759 0.88306 0.0
N219 N 0.14036 0.33728 0.91903 0.0
C220 C 0.15208 0.34815 0.8985 0.0
C221 C 0.14904 0.3192 0.89422 0.0
C222 C 0.13846 0.31902 0.91664 0.0
C223 C 0.2077 0.35007 0.87591 0.0
O224 O 0.19291 0.33167 0.88086 0.0
H225 H 0.15669 0.36368 0.89468 0.0
H226 H 0.15034 0.30682 0.88674 0.0
O227 O 0.16211 0.3656 0.83873 0.0
H228 H 0.17023 0.29341 0.79912 0.0
H229 H 0.12969 0.30639 0.92977 0.0
Cu230 Cu 0.69287 0.88219 0.83751 0.0
N231 N 0.70301 0.86825 0.81875 0.0
N232 N 0.7055 0.84245 0.80372 0.0
C233 C 0.69686 0.8487 0.82186 0.0
C234 C 0.71763 0.85872 0.78867 0.0
C235 C 0.71615 0.87468 0.79811 0.0
O236 O 0.67775 0.86446 0.8683 0.0
C237 C 0.67405 0.88559 0.78922 0.0
O238 O 0.67267 0.86845 0.78322 0.0
H239 H 0.68556 0.83905 0.83641 0.0
H240 H 0.72354 0.88973 0.79001 0.0
N241 N 0.71514 0.90533 0.85023 0.0
N242 N 0.73222 0.93628 0.86584 0.0
C243 C 0.71493 0.92243 0.85406 0.0
C244 C 0.73326 0.90838 0.85966 0.0
C245 C 0.74386 0.92752 0.86942 0.0
C246 C 0.68062 0.87029 0.89206 0.0
O247 O 0.69057 0.88958 0.89655 0.0
H248 H 0.70175 0.9242 0.84959 0.0
H249 H 0.73808 0.89726 0.86018 0.0
O250 O 0.67968 0.89232 0.81228 0.0
H251 H 0.72668 0.85899 0.77189 0.0
H252 H 0.75874 0.93429 0.87884 0.0
Cu253 Cu 0.18858 0.87938 0.87142 0.0
N254 N 0.17202 0.87864 0.84354 0.0
N255 N 0.15488 0.86831 0.80585 0.0
C256 C 0.16682 0.86581 0.82354 0.0
C257 C 0.15249 0.88338 0.81529 0.0
C258 C 0.16303 0.88969 0.8385 0.0
O259 O 0.17815 0.85138 0.87988 0.0
C260 C 0.2237 0.91258 0.85569 0.0
O261 O 0.21052 0.91914 0.85793 0.0
H262 H 0.17204 0.85504 0.82189 0.0
H263 H 0.16408 0.90148 0.85077 0.0
N264 N 0.18732 0.8928 0.90125 0.0
N265 N 0.19784 0.90891 0.93922 0.0
C266 C 0.2026 0.90085 0.91887 0.0
C267 C 0.17228 0.89595 0.91062 0.0
C268 C 0.17876 0.90596 0.934 0.0
C269 C 0.17219 0.84394 0.90271 0.0
O270 O 0.17876 0.85579 0.92288 0.0
H271 H 0.21694 0.90063 0.91675 0.0
H272 H 0.15755 0.89104 0.90138 0.0
O273 O 0.21719 0.89404 0.85979 0.0
H274 H 0.14359 0.88936 0.80627 0.0
H275 H 0.16987 0.91023 0.94647 0.0
Cu276 Cu 0.37619 0.22449 0.7061 0.0
N277 N 0.39145 0.25044 0.69262 0.0
N278 N 0.39374 0.2775 0.67315 0.0
C279 C 0.38248 0.25751 0.67641 0.0
C280 C 0.41074 0.28332 0.68779 0.0
C281 C 0.40931 0.26651 0.69979 0.0
O282 O 0.36124 0.22748 0.73675 0.0
C283 C 0.37549 0.21035 0.65714 0.0
O284 O 0.39516 0.22247 0.66198 0.0
H285 H 0.36691 0.24831 0.66933 0.0
H286 H 0.4197 0.26635 0.71424 0.0
N287 N 0.39237 0.21385 0.71772 0.0
N288 N 0.39942 0.18935 0.72571 0.0
C289 C 0.38458 0.19404 0.72091 0.0
C290 C 0.41295 0.22215 0.72068 0.0
C291 C 0.41734 0.20702 0.72583 0.0
C292 C 0.37339 0.23791 0.75508 0.0
O293 O 0.39305 0.24328 0.75259 0.0
H294 H 0.3683 0.18328 0.71889 0.0
H295 H 0.42408 0.23787 0.71812 0.0
O296 O 0.3622 0.20807 0.67495 0.0
H297 H 0.42263 0.29867 0.69093 0.0
H298 H 0.4326 0.20885 0.72817 0.0
Cu299 Cu 0.85801 0.19934 0.69038 0.0
N300 N 0.8787 0.20477 0.6653 0.0
N301 N 0.90106 0.22239 0.63302 0.0
C302 C 0.88628 0.22106 0.64953 0.0
C303 C 0.90289 0.20616 0.63836 0.0
C304 C 0.88914 0.19535 0.65853 0.0
O305 O 0.86343 0.22696 0.69642 0.0
C306 C 0.83025 0.16151 0.67216 0.0
O307 O 0.84673 0.16013 0.67742 0.0
H308 H 0.88086 0.23172 0.64994 0.0
H309 H 0.88712 0.18178 0.66768 0.0
N310 N 0.86183 0.18911 0.72187 0.0
N311 N 0.85399 0.17624 0.76243 0.0
C312 C 0.84654 0.17803 0.73926 0.0
C313 C 0.8796 0.19426 0.73434 0.0
C314 C 0.87479 0.18644 0.75949 0.0
C315 C 0.86982 0.23606 0.71808 0.0
O316 O 0.86617 0.22544 0.73967 0.0
H317 H 0.83034 0.17275 0.73565 0.0
H318 H 0.89491 0.20415 0.72634 0.0
O319 O 0.83107 0.17827 0.67635 0.0
H320 H 0.91369 0.20266 0.62885 0.0
H321 H 0.88569 0.18876 0.77475 0.0
Cu322 Cu 0.87137 0.73153 0.67953 0.0
N323 N 0.87169 0.74717 0.6512 0.0
N324 N 0.86331 0.75339 0.6118 0.0
C325 C 0.86013 0.73929 0.62995 0.0
C326 C 0.87748 0.77093 0.62222 0.0
C327 C 0.88265 0.76703 0.64654 0.0
O328 O 0.84211 0.7144 0.68882 0.0
C329 C 0.90448 0.73065 0.6587 0.0
O330 O 0.9101 0.74967 0.65652 0.0
H331 H 0.84935 0.72345 0.62815 0.0
H332 H 0.89383 0.77787 0.65963 0.0
N333 N 0.88541 0.74646 0.70851 0.0
N334 N 0.90359 0.75352 0.74527 0.0
C335 C 0.8939 0.73998 0.72643 0.0
C336 C 0.88974 0.76477 0.71617 0.0
C337 C 0.90096 0.76917 0.73888 0.0
C338 C 0.83324 0.72453 0.69384 0.0
O339 O 0.84468 0.74414 0.69383 0.0
H340 H 0.89275 0.72545 0.72562 0.0
H341 H 0.88514 0.77426 0.70604 0.0
O342 O 0.88677 0.71844 0.66863 0.0
H343 H 0.88389 0.78551 0.61287 0.0
H344 H 0.90692 0.78295 0.74956 0.0
Cu345 Cu 0.83637 0.70577 0.16221 0.0
N346 N 0.83698 0.6934 0.13134 0.0
N347 N 0.8533 0.68988 0.0967 0.0
C348 C 0.85303 0.70253 0.1145 0.0
C349 C 0.83626 0.67203 0.10226 0.0
C350 C 0.82625 0.67423 0.12379 0.0
O351 O 0.86414 0.71538 0.1774 0.0
C352 C 0.80694 0.71478 0.14577 0.0
O353 O 0.79851 0.69541 0.14227 0.0
H354 H 0.86494 0.71801 0.11643 0.0
H355 H 0.81305 0.66245 0.13426 0.0
N356 N 0.81793 0.68858 0.18771 0.0
N357 N 0.80045 0.68269 0.22535 0.0
C358 C 0.80964 0.69551 0.20518 0.0
C359 C 0.81376 0.67051 0.19702 0.0
C360 C 0.80299 0.66687 0.22048 0.0
C361 C 0.86945 0.70189 0.17863 0.0
O362 O 0.85671 0.684 0.16985 0.0
H363 H 0.8118 0.71047 0.20415 0.0
H364 H 0.81915 0.66119 0.18832 0.0
O365 O 0.82566 0.7242 0.15382 0.0
H366 H 0.83208 0.6581 0.09267 0.0
H367 H 0.7981 0.65401 0.23334 0.0
Cu368 Cu 0.36832 0.22603 0.19575 0.0
N369 N 0.37976 0.21116 0.18196 0.0
N370 N 0.38028 0.1835 0.16994 0.0
C371 C 0.3727 0.19155 0.18708 0.0
C372 C 0.39269 0.19869 0.15349 0.0
C373 C 0.39231 0.21569 0.1609 0.0
O374 O 0.354 0.21092 0.22842 0.0
C375 C 0.35175 0.2454 0.16229 0.0
O376 O 0.35459 0.25688 0.18234 0.0
H377 H 0.36092 0.18296 0.20174 0.0
H378 H 0.39949 0.22993 0.15055 0.0
N379 N 0.38849 0.2521 0.20524 0.0
N380 N 0.40038 0.28334 0.21946 0.0
C381 C 0.38463 0.26422 0.22018 0.0
C382 C 0.40769 0.26386 0.19533 0.0
C383 C 0.4151 0.28312 0.20416 0.0
C384 C 0.36566 0.21366 0.24812 0.0
O385 O 0.3854 0.22708 0.246 0.0
H386 H 0.3699 0.25931 0.22997 0.0
H387 H 0.41524 0.25911 0.18133 0.0
O388 O 0.3535 0.22979 0.16557 0.0
H389 H 0.40076 0.1974 0.13661 0.0
H390 H 0.42952 0.29619 0.19818 0.0
Cu391 Cu 0.87038 0.23079 0.20359 0.0
N392 N 0.86684 0.21216 0.17797 0.0
N393 N 0.85295 0.19174 0.1441 0.0
C394 C 0.85008 0.20234 0.16285 0.0
C395 C 0.87224 0.19481 0.14782 0.0
C396 C 0.88079 0.20748 0.16863 0.0
O397 O 0.84362 0.22369 0.21795 0.0
C398 C 0.88577 0.26174 0.16485 0.0
O399 O 0.87451 0.24735 0.14866 0.0
H400 H 0.83622 0.20338 0.16513 0.0
H401 H 0.89637 0.2135 0.17576 0.0
N402 N 0.88604 0.23028 0.23146 0.0
N403 N 0.90275 0.23942 0.26932 0.0
C404 C 0.89239 0.24347 0.25099 0.0
C405 C 0.89255 0.21731 0.2375 0.0
C406 C 0.90297 0.22298 0.26085 0.0
C407 C 0.82968 0.22538 0.20606 0.0
O408 O 0.83379 0.23414 0.18292 0.0
H409 H 0.88945 0.25587 0.25157 0.0
H410 H 0.88966 0.20451 0.22602 0.0
O411 O 0.88492 0.25775 0.18912 0.0
H412 H 0.87999 0.1891 0.13562 0.0
H413 H 0.90975 0.21531 0.27102 0.0
Mn414 Mn 0.0089 0.67561 0.26245 0.0
Mn415 Mn 0.96062 0.63631 0.26967 0.0
C416 C 0.98116 0.67738 0.24438 0.0
C417 C 0.03517 0.70598 0.27946 0.0
C418 C 0.99198 0.63722 0.23009 0.0
O419 O 0.01212 0.65889 0.29157 0.0
O420 O 0.97893 0.63455 0.29688 0.0
C421 C 0.95005 0.64672 0.32076 0.0
N422 N 0.94585 0.64256 0.29502 0.0
C423 C 0.91607 0.64689 0.29815 0.0
C424 C 0.91999 0.65106 0.32474 0.0
C425 C 0.93706 0.651 0.33607 0.0
C426 C 0.92946 0.64259 0.28391 0.0
H427 H 0.96324 0.64684 0.3295 0.0
C428 C 0.99808 0.64315 0.30331 0.0
O429 O 0.03949 0.69599 0.26267 0.0
O430 O 0.016 0.69796 0.28681 0.0
N431 N 0.94124 0.63601 0.24512 0.0
C432 C 0.94008 0.63243 0.21901 0.0
C433 C 0.9241 0.6324 0.20462 0.0
C434 C 0.90943 0.63593 0.21721 0.0
C435 C 0.91078 0.6393 0.24415 0.0
C436 C 0.92693 0.63896 0.25753 0.0
H437 H 0.95135 0.62979 0.2092 0.0
O438 O 0.99997 0.68913 0.23617 0.0
O439 O 0.97918 0.665 0.26325 0.0
O440 O 1.00667 0.65502 0.23478 0.0
O441 O 0.97466 0.62896 0.2426 0.0
C442 C 0.89698 0.64336 0.25815 0.0
C443 C 0.89963 0.64717 0.28513 0.0
H444 H 0.91009 0.6545 0.33659 0.0
H445 H 0.94025 0.65432 0.35655 0.0
H446 H 0.92317 0.62979 0.18384 0.0
H447 H 0.89728 0.63612 0.20599 0.0
H448 H 0.88441 0.64383 0.2483 0.0
H449 H 0.88905 0.65048 0.29562 0.0
Mn450 Mn 0.39715 0.43451 0.29226 0.0
Mn451 Mn 0.38615 0.47193 0.28462 0.0
C452 C 0.36546 0.43025 0.30662 0.0
C453 C 0.39839 0.40643 0.27722 0.0
C454 C 0.41544 0.47231 0.32564 0.0
O455 O 0.41817 0.45262 0.26443 0.0
O456 O 0.40816 0.47564 0.25923 0.0
C457 C 0.3681 0.46208 0.23188 0.0
N458 N 0.36636 0.46541 0.25758 0.0
C459 C 0.33224 0.4607 0.25142 0.0
C460 C 0.33372 0.45734 0.22485 0.0
C461 C 0.35171 0.45798 0.21506 0.0
C462 C 0.3491 0.46477 0.26722 0.0
H463 H 0.38189 0.46251 0.22428 0.0
C464 C 0.41951 0.46808 0.25305 0.0
O465 O 0.41075 0.41791 0.29502 0.0
O466 O 0.38528 0.41129 0.26792 0.0
N467 N 0.36486 0.47004 0.30765 0.0
C468 C 0.36542 0.47249 0.33399 0.0
C469 C 0.3484 0.47181 0.34696 0.0
C470 C 0.33104 0.46873 0.33272 0.0
C471 C 0.33088 0.46639 0.30561 0.0
C472 C 0.34836 0.46737 0.29372 0.0
H473 H 0.37871 0.47487 0.34504 0.0
O474 O 0.37259 0.41932 0.31647 0.0
O475 O 0.37709 0.44331 0.28892 0.0
O476 O 0.41309 0.45519 0.32022 0.0
O477 O 0.40633 0.48015 0.31337 0.0
C478 C 0.3139 0.46272 0.28999 0.0
C479 C 0.31455 0.45981 0.26293 0.0
H480 H 0.32107 0.45408 0.21184 0.0
H481 H 0.35293 0.4553 0.1946 0.0
H482 H 0.34862 0.47359 0.3679 0.0
H483 H 0.31786 0.46802 0.34283 0.0
H484 H 0.30012 0.46177 0.29866 0.0
H485 H 0.30126 0.45667 0.25121 0.0
Mn486 Mn 0.66376 0.08218 0.26784 0.0
Mn487 Mn 0.66537 0.12526 0.28512 0.0
C488 C 0.69308 0.11244 0.25907 0.0
C489 C 0.66788 0.05482 0.27816 0.0
C490 C 0.64438 0.10271 0.23641 0.0
O491 O 0.63887 0.07233 0.29233 0.0
O492 O 0.64216 0.10191 0.30334 0.0
C493 C 0.67717 0.12479 0.34004 0.0
N494 N 0.68094 0.13434 0.31642 0.0
C495 C 0.71141 0.16311 0.33239 0.0
C496 C 0.70779 0.15365 0.35695 0.0
C497 C 0.69063 0.13438 0.36076 0.0
C498 C 0.69752 0.15278 0.31247 0.0
H499 H 0.66402 0.10997 0.34301 0.0
C500 C 0.63288 0.08278 0.30479 0.0
O501 O 0.65611 0.05418 0.2592 0.0
O502 O 0.67681 0.07113 0.29152 0.0
N503 N 0.68681 0.14947 0.26937 0.0
C504 C 0.68789 0.15666 0.24464 0.0
C505 C 0.70413 0.17582 0.23763 0.0
C506 C 0.71882 0.18755 0.25624 0.0
C507 C 0.71699 0.1801 0.2818 0.0
C508 C 0.70042 0.16094 0.28767 0.0
H509 H 0.67655 0.14779 0.2303 0.0
O510 O 0.68983 0.09647 0.24697 0.0
O511 O 0.67956 0.11018 0.27702 0.0
O512 O 0.64842 0.08853 0.23957 0.0
O513 O 0.64973 0.11703 0.25241 0.0
C514 C 0.73106 0.19086 0.30161 0.0
C515 C 0.72833 0.18233 0.32686 0.0
H516 H 0.71812 0.161 0.37298 0.0
H517 H 0.68777 0.12694 0.37962 0.0
H518 H 0.70533 0.18152 0.21792 0.0
H519 H 0.73141 0.20225 0.25071 0.0
H520 H 0.74411 0.20564 0.2976 0.0
H521 H 0.73934 0.19068 0.34188 0.0
Mn522 Mn 0.01881 0.41121 0.77159 0.0
Mn523 Mn 0.04069 0.39865 0.72246 0.0
C524 C 0.04004 0.3976 0.78097 0.0
C525 C 0.01698 0.43274 0.80283 0.0
C526 C 0.99524 0.37334 0.73785 0.0
O527 O 0.01775 0.42779 0.74025 0.0
O528 O 0.03266 0.41826 0.70928 0.0
C529 C 0.07868 0.43803 0.71454 0.0
N530 N 0.06953 0.41802 0.7198 0.0
C531 C 0.10265 0.41983 0.72263 0.0
C532 C 0.11241 0.44043 0.71706 0.0
C533 C 0.10037 0.44957 0.71306 0.0
C534 C 0.08097 0.40909 0.72379 0.0
H535 H 0.06951 0.44514 0.71153 0.0
C536 C 0.02447 0.4286 0.71686 0.0
O537 O 1.00068 0.41752 0.79361 0.0
O538 O 0.03466 0.43612 0.79317 0.0
N539 N 0.04953 0.38007 0.73223 0.0
C540 C 0.03775 0.36023 0.73849 0.0
C541 C 0.04747 0.34896 0.74361 0.0
C542 C 0.06915 0.35815 0.74203 0.0
C543 C 0.08091 0.37851 0.73519 0.0
C544 C 0.07037 0.38895 0.73013 0.0
H545 H 0.02109 0.35308 0.73974 0.0
O546 O 0.02604 0.396 0.79763 0.0
O547 O 0.04095 0.40673 0.75906 0.0
O548 O 0.99602 0.38476 0.75618 0.0
O549 O 0.01103 0.37724 0.72366 0.0
C550 C 0.10272 0.38894 0.7337 0.0
C551 C 0.11358 0.4096 0.72749 0.0
H552 H 0.12914 0.44939 0.71601 0.0
H553 H 0.1078 0.46547 0.70889 0.0
H554 H 0.03827 0.33325 0.74887 0.0
H555 H 0.07659 0.34946 0.74627 0.0
H556 H 0.1113 0.38129 0.73767 0.0
H557 H 0.13034 0.41751 0.72674 0.0
Mn558 Mn 0.64893 0.66316 0.74273 0.0
Mn559 Mn 0.68373 0.67037 0.78965 0.0
C560 C 0.68246 0.6716 0.73077 0.0
C561 C 0.62192 0.6425 0.71524 0.0
C562 C 0.6715 0.70123 0.77502 0.0
O563 O 0.63071 0.65083 0.7754 0.0
O564 O 0.65508 0.65428 0.80382 0.0
C565 C 0.67395 0.62829 0.79565 0.0
N566 N 0.68804 0.64794 0.79101 0.0
C567 C 0.71591 0.64076 0.78795 0.0
C568 C 0.70173 0.62045 0.79285 0.0
C569 C 0.68064 0.61419 0.79661 0.0
C570 C 0.70831 0.65409 0.78705 0.0
H571 H 0.65774 0.62344 0.79859 0.0
C572 C 0.6362 0.64809 0.79792 0.0
O573 O 0.62483 0.65982 0.72226 0.0
O574 O 0.63443 0.63692 0.72467 0.0
N575 N 0.71233 0.68568 0.77955 0.0
C576 C 0.72399 0.70578 0.7749 0.0
C577 C 0.74545 0.7145 0.77083 0.0
C578 C 0.75477 0.70254 0.77207 0.0
C579 C 0.74254 0.68198 0.77748 0.0
C580 C 0.72124 0.67415 0.78149 0.0
H581 H 0.71698 0.71511 0.77424 0.0
O582 O 0.67063 0.67412 0.71459 0.0
O583 O 0.67419 0.66359 0.7534 0.0
O584 O 0.65946 0.6914 0.75653 0.0
O585 O 0.68072 0.69447 0.78926 0.0
C586 C 0.75059 0.66888 0.77867 0.0
C587 C 0.73727 0.64827 0.78375 0.0
H588 H 0.70683 0.60953 0.79366 0.0
H589 H 0.66959 0.59854 0.80031 0.0
H590 H 0.7548 0.73039 0.76675 0.0
H591 H 0.77131 0.70929 0.76871 0.0
H592 H 0.76697 0.67448 0.77542 0.0
H593 H 0.74361 0.63832 0.78435 0.0
Mn594 Mn 0.39795 0.02812 0.77545 0.0
Mn595 Mn 0.35468 0.00769 0.73913 0.0
C596 C 0.36574 0.01142 0.79538 0.0
C597 C 0.42548 0.02854 0.79685 0.0
C598 C 0.38065 0.05211 0.74823 0.0
O599 O 0.4087 0.02602 0.73974 0.0
O600 O 0.37875 0.01168 0.71755 0.0
C601 C 0.35101 0.96814 0.73017 0.0
N602 N 0.3427 0.97923 0.73913 0.0
C603 C 0.31069 0.94954 0.75092 0.0
C604 C 0.31887 0.93781 0.7417 0.0
C605 C 0.33914 0.94716 0.73136 0.0
C606 C 0.32327 0.97039 0.74929 0.0
H607 H 0.36657 0.97526 0.72218 0.0
C608 C 0.39831 0.01855 0.71909 0.0
O609 O 0.42625 0.04475 0.78828 0.0
O610 O 0.40878 0.01165 0.79218 0.0
N611 N 0.33013 1.00272 0.75771 0.0
C612 C 0.32487 0.01618 0.76678 0.0
C613 C 0.30519 0.00925 0.77816 0.0
C614 C 0.29107 0.9886 0.77984 0.0
C615 C 0.29675 0.97505 0.77011 0.0
C616 C 0.31654 0.98283 0.75891 0.0
H617 H 0.33561 0.03207 0.76541 0.0
O618 O 0.38149 0.02491 0.80802 0.0
O619 O 0.36921 0.00841 0.77145 0.0
O620 O 0.39367 0.05069 0.76253 0.0
O621 O 0.36532 0.03699 0.73808 0.0
C622 C 0.28366 0.95412 0.77148 0.0
C623 C 0.29067 0.94137 0.762 0.0
H624 H 0.30978 0.92162 0.74261 0.0
H625 H 0.34559 0.9382 0.7243 0.0
H626 H 0.30093 0.0198 0.78561 0.0
H627 H 0.27596 0.9833 0.78879 0.0
H628 H 0.26831 0.94766 0.78017 0.0
H629 H 0.28059 0.9253 0.76353 0.0
Mn630 Mn 0.68219 1.00004 0.59566 0.0
Mn631 Mn 0.63283 0.9615 0.59446 0.0
C632 C 0.65628 1.00437 0.5762 0.0
C633 C 0.70964 0.02923 0.61461 0.0
C634 C 0.66613 0.96467 0.55667 0.0
O635 O 0.682 0.98099 0.62476 0.0
O636 O 0.64887 0.95624 0.62159 0.0
C637 C 0.61962 0.9672 0.64685 0.0
N638 N 0.61696 0.96573 0.62053 0.0
C639 C 0.58736 0.97032 0.624 0.0
C640 C 0.58971 0.97173 0.65115 0.0
C641 C 0.60593 0.9702 0.66261 0.0
C642 C 0.60142 0.96724 0.6093 0.0
H643 H 0.63212 0.96613 0.65577 0.0
C644 C 0.66673 0.96403 0.63225 0.0
O645 O 0.71299 0.01851 0.59804 0.0
O646 O 0.69041 0.02247 0.62125 0.0
N647 N 0.6153 0.96441 0.56978 0.0
C648 C 0.61551 0.96333 0.54325 0.0
C649 C 0.60043 0.96489 0.52878 0.0
C650 C 0.58521 0.96739 0.54172 0.0
C651 C 0.58511 0.96816 0.56905 0.0
C652 C 0.60041 0.96633 0.58245 0.0
H653 H 0.62719 0.96147 0.53315 0.0
O654 O 0.67561 0.01575 0.5697 0.0
O655 O 0.65255 0.99055 0.59374 0.0
O656 O 0.68083 0.98083 0.5662 0.0
O657 O 0.64771 0.95607 0.56616 0.0
C658 C 0.57065 0.97103 0.58347 0.0
C659 C 0.5718 0.97215 0.61093 0.0
H660 H 0.57924 0.97414 0.66337 0.0
H661 H 0.60791 0.97137 0.68354 0.0
H662 H 0.60061 0.96427 0.5077 0.0
H663 H 0.57375 0.96882 0.53048 0.0
H664 H 0.55873 0.97263 0.57363 0.0
H665 H 0.56072 0.97456 0.62178 0.0
Mn666 Mn 0.07487 0.75744 0.605 0.0
Mn667 Mn 0.06211 0.79357 0.59891 0.0
C668 C 0.0431 0.75194 0.62051 0.0
C669 C 0.07346 0.72832 0.58881 0.0
C670 C 0.09112 0.79416 0.6407 0.0
O671 O 0.09576 0.77614 0.57699 0.0
O672 O 0.08554 0.79916 0.57475 0.0
C673 C 0.04613 0.78481 0.54509 0.0
N674 N 0.04319 0.78709 0.57081 0.0
C675 C 0.00847 0.78029 0.56313 0.0
C676 C 0.01118 0.778 0.53653 0.0
C677 C 0.03008 0.78023 0.52749 0.0
C678 C 0.02506 0.78495 0.57973 0.0
H679 H 0.0606 0.78642 0.53808 0.0
C680 C 0.09734 0.79232 0.56759 0.0
O681 O 0.08705 0.73924 0.60604 0.0
O682 O 0.06193 0.73512 0.57987 0.0
N683 N 0.03962 0.79006 0.62092 0.0
C684 C 0.03915 0.79176 0.64733 0.0
C685 C 0.02111 0.78937 0.6596 0.0
C686 C 1.00383 0.78545 0.64459 0.0
C687 C 1.00478 0.78404 0.61741 0.0
C688 C 0.02322 0.78667 0.60625 0.0
H689 H 0.05237 0.79475 0.65898 0.0
O690 O 0.05106 0.7416 0.62966 0.0
O691 O 0.05403 0.76532 0.60267 0.0
O692 O 0.09075 0.77794 0.6342 0.0
O693 O 0.08107 0.80111 0.62858 0.0
C694 C 0.98801 0.77969 0.60101 0.0
C695 C 0.98984 0.77778 0.5739 0.0
H696 H 0.9988 0.77437 0.5229 0.0
H697 H 0.03225 0.77839 0.507 0.0
H698 H 0.0205 0.79048 0.68059 0.0
H699 H 0.98987 0.78341 0.65415 0.0
H700 H 0.97353 0.77749 0.6091 0.0
H701 H 0.97674 0.77416 0.56155 0.0
Mn702 Mn 0.30488 0.36541 0.59817 0.0
Mn703 Mn 0.30122 0.40711 0.59934 0.0
C704 C 0.33024 0.39448 0.57864 0.0
C705 C 0.31673 0.34558 0.61704 0.0
C706 C 0.27649 0.3728 0.56276 0.0
O707 O 0.28323 0.35888 0.62661 0.0
O708 O 0.28245 0.38775 0.62665 0.0
C709 C 0.31977 0.42175 0.65102 0.0
N710 N 0.32 0.42464 0.62473 0.0
C711 C 0.35116 0.45667 0.62705 0.0
C712 C 0.35117 0.45409 0.65418 0.0
C713 C 0.33541 0.43655 0.66621 0.0
C714 C 0.33506 0.44148 0.61296 0.0
H715 H 0.3078 0.40822 0.66033 0.0
C716 C 0.27637 0.36995 0.63533 0.0
O717 O 0.30167 0.33814 0.60046 0.0
O718 O 0.32397 0.36406 0.62347 0.0
N719 N 0.31881 0.42699 0.5741 0.0
C720 C 0.31697 0.42682 0.54765 0.0
C721 C 0.33175 0.44313 0.53262 0.0
C722 C 0.34823 0.45943 0.54491 0.0
C723 C 0.3497 0.45933 0.57217 0.0
C724 C 0.33438 0.44277 0.58617 0.0
H725 H 0.30442 0.41426 0.53809 0.0
O726 O 0.32771 0.3773 0.57168 0.0
O727 O 0.31778 0.39404 0.59688 0.0
O728 O 0.2838 0.36175 0.57029 0.0
O729 O 0.28193 0.38997 0.57232 0.0
C730 C 0.36594 0.47487 0.58598 0.0
C731 C 0.36667 0.47354 0.6134 0.0
H732 H 0.36329 0.46541 0.66595 0.0
H733 H 0.33538 0.43441 0.68712 0.0
H734 H 0.33052 0.44308 0.51158 0.0
H735 H 0.35973 0.47188 0.53322 0.0
H736 H 0.37805 0.48784 0.57568 0.0
H737 H 0.37933 0.48551 0.62377 0.0
Mn738 Mn 0.68074 0.77279 0.1014 0.0
Mn739 Mn 0.70432 0.76239 0.05178 0.0
C740 C 0.70464 0.76196 0.11037 0.0
C741 C 0.67931 0.7949 0.13286 0.0
C742 C 0.66016 0.73335 0.06976 0.0
O743 O 0.67593 0.78688 0.06942 0.0
O744 O 0.69211 0.77864 0.03881 0.0
C745 C 0.73831 0.80391 0.04201 0.0
N746 N 0.73191 0.78433 0.04748 0.0
C747 C 0.76705 0.79088 0.04777 0.0
C748 C 0.77401 0.8111 0.04197 0.0
C749 C 0.75958 0.81764 0.03916 0.0
C750 C 0.74567 0.77791 0.05045 0.0
H751 H 0.72728 0.80901 0.03988 0.0
C752 C 0.68191 0.78723 0.04569 0.0
O753 O 0.66289 0.77865 0.12582 0.0
O754 O 0.69628 0.79887 0.1206 0.0
N755 N 0.71703 0.74683 0.06053 0.0
C756 C 0.70778 0.72687 0.06624 0.0
C757 C 0.72007 0.71792 0.06963 0.0
C758 C 0.74168 0.72951 0.06677 0.0
C759 C 0.75081 0.74993 0.0603 0.0
C760 C 0.73777 0.75798 0.05692 0.0
H761 H 0.69117 0.71784 0.06834 0.0
O762 O 0.69088 0.76004 0.12755 0.0
O763 O 0.7042 0.77025 0.08826 0.0
O764 O 0.65924 0.74457 0.08748 0.0
O765 O 0.67625 0.73878 0.05538 0.0
C766 C 0.77237 0.76266 0.05742 0.0
C767 C 0.78048 0.78314 0.05126 0.0
H768 H 0.7904 0.82174 0.03977 0.0
H769 H 0.76483 0.83324 0.03479 0.0
H770 H 0.71289 0.70214 0.07453 0.0
H771 H 0.75112 0.72261 0.06968 0.0
H772 H 0.78285 0.75689 0.06012 0.0
H773 H 0.79709 0.79282 0.04931 0.0
Mn774 Mn 0.31808 1.00116 0.11682 0.0
Mn775 Mn 0.35512 0.01004 0.16117 0.0
C776 C 0.35188 0.01217 0.10276 0.0
C777 C 0.29123 0.98001 0.08892 0.0
C778 C 0.33947 0.03899 0.15028 0.0
O779 O 0.30124 0.9867 0.14991 0.0
O780 O 0.3272 0.99188 0.1767 0.0
C781 C 0.34893 0.96904 0.16491 0.0
N782 N 0.36162 0.98899 0.16025 0.0
C783 C 0.39089 0.9844 0.1527 0.0
C784 C 0.37817 0.96382 0.15759 0.0
C785 C 0.35709 0.9561 0.16365 0.0
C786 C 0.3819 0.99656 0.15426 0.0
H787 H 0.33271 0.96303 0.1695 0.0
C788 C 0.30789 0.98406 0.17171 0.0
O789 O 0.29263 0.99628 0.09799 0.0
O790 O 0.30497 0.97555 0.09687 0.0
N791 N 0.38304 0.02715 0.14927 0.0
C792 C 0.39312 0.04728 0.14445 0.0
C793 C 0.4143 0.0573 0.13785 0.0
C794 C 0.42497 0.04659 0.13658 0.0
C795 C 0.41438 0.02597 0.1421 0.0
C796 C 0.39331 0.01681 0.14881 0.0
H797 H 0.38505 0.05563 0.14548 0.0
O798 O 0.33901 0.0143 0.088 0.0
O799 O 0.34457 1.00335 0.12531 0.0
O800 O 0.32693 0.02876 0.13237 0.0
O801 O 0.35003 0.03295 0.16308 0.0
C802 C 0.42382 0.01406 0.14077 0.0
C803 C 0.41207 0.99329 0.14597 0.0
H804 H 0.38438 0.95378 0.15656 0.0
H805 H 0.34714 0.94022 0.16732 0.0
H806 H 0.42237 0.07323 0.13367 0.0
H807 H 0.44125 0.05433 0.13119 0.0
H808 H 0.44005 0.0207 0.13544 0.0
H809 H 0.41945 0.98426 0.14459 0.0
Mn810 Mn 0.05892 0.38612 0.10166 0.0
Mn811 Mn 0.02582 0.37358 0.0514 0.0
C812 C 0.02368 0.3714 0.10956 0.0
C813 C 0.07804 0.37889 0.13117 0.0
C814 C 0.0532 0.41632 0.06881 0.0
O815 O 0.07602 0.38561 0.07071 0.0
O816 O 0.05196 0.37528 0.03915 0.0
C817 C 0.01786 0.33255 0.04167 0.0
N818 N 0.01063 0.34519 0.04752 0.0
C819 C 0.97539 0.31802 0.04849 0.0
C820 C 0.98245 0.30474 0.04234 0.0
C821 C 1.00378 0.31204 0.03896 0.0
C822 C 0.99013 0.33833 0.05073 0.0
H823 H 0.03424 0.33809 0.03912 0.0
C824 C 0.07003 0.38011 0.0474 0.0
O825 O 0.08324 0.39717 0.1249 0.0
O826 O 0.06192 0.36472 0.11988 0.0
N827 N 0.99979 0.37116 0.06107 0.0
C828 C 0.99569 0.38566 0.069 0.0
C829 C 0.97514 0.38067 0.07439 0.0
C830 C 0.95904 0.36086 0.07147 0.0
C831 C 0.96363 0.34621 0.06318 0.0
C832 C 0.98439 0.35209 0.05793 0.0
H833 H 0.00802 0.4009 0.07135 0.0
O834 O 0.03669 0.38203 0.12743 0.0
O835 O 0.03171 0.36997 0.08768 0.0
O836 O 0.06108 0.41223 0.08824 0.0
O837 O 0.04026 0.40304 0.0536 0.0
C838 C 0.94848 0.32591 0.06049 0.0
C839 C 0.95435 0.31183 0.05315 0.0
H840 H 0.97166 0.28888 0.04044 0.0
H841 H 0.00936 0.30186 0.03434 0.0
H842 H 0.97173 0.39205 0.08087 0.0
H843 H 0.94323 0.35703 0.07588 0.0
H844 H 0.93231 0.32091 0.06448 0.0
H845 H 0.94261 0.29622 0.0516 0.0
Mn846 Mn 0.35789 0.33717 0.94685 0.0
Mn847 Mn 0.30923 0.29727 0.94837 0.0
C848 C 0.33079 0.33925 0.92701 0.0
C849 C 0.38498 0.36768 0.96348 0.0
C850 C 0.34262 0.30011 0.91116 0.0
O851 O 0.35894 0.31996 0.97747 0.0
O852 O 0.32621 0.29403 0.9761 0.0
C853 C 0.29603 0.30439 0.99994 0.0
N854 N 0.29304 0.30168 0.97377 0.0
C855 C 0.26227 0.30439 0.97644 0.0
C856 C 0.26494 0.30706 1.00344 0.0
C857 C 0.28191 0.3071 0.01523 0.0
C858 C 0.27677 0.30165 0.96222 0.0
H859 H 0.30908 0.30452 1.0091 0.0
C860 C 0.34429 0.30305 0.9862 0.0
O861 O 0.38856 0.35656 0.94789 0.0
O862 O 0.36576 0.36065 0.97046 0.0
N863 N 0.29091 0.29833 0.92321 0.0
C864 C 0.29116 0.29667 0.89677 0.0
C865 C 0.2755 0.29688 0.88196 0.0
C866 C 0.25967 0.29868 0.89446 0.0
C867 C 0.25962 0.30018 0.9217 0.0
C868 C 0.27555 0.29971 0.93548 0.0
H869 H 0.30332 0.29537 0.88701 0.0
O870 O 0.34985 0.35092 0.91953 0.0
O871 O 0.32807 0.32646 0.94559 0.0
O872 O 0.35697 0.31698 0.91939 0.0
O873 O 0.32429 0.29138 0.92091 0.0
C874 C 0.24465 0.30255 0.93567 0.0
C875 C 0.246 0.30471 0.96301 0.0
H876 H 0.25415 0.30927 0.01528 0.0
H877 H 0.28414 0.30926 0.03604 0.0
H878 H 0.27568 0.29577 0.86093 0.0
H879 H 0.24775 0.29907 0.88294 0.0
H880 H 0.23221 0.30306 0.92553 0.0
H881 H 0.23456 0.30683 0.97348 0.0
Mn882 Mn 0.73908 0.08576 0.95933 0.0
Mn883 Mn 0.73082 0.12482 0.95375 0.0
C884 C 0.70808 0.08245 0.97428 0.0
C885 C 0.73863 0.05798 0.94128 0.0
C886 C 0.75888 0.12231 0.99454 0.0
O887 O 0.76064 0.10389 0.93231 0.0
O888 O 0.75267 0.1284 0.92769 0.0
C889 C 0.71278 0.11721 0.90097 0.0
N890 N 0.71117 0.11982 0.92696 0.0
C891 C 0.67716 0.11564 0.9218 0.0
C892 C 0.67853 0.11306 0.89495 0.0
C893 C 0.6964 0.11382 0.88451 0.0
C894 C 0.69404 0.11911 0.93722 0.0
H895 H 0.72643 0.11764 0.89288 0.0
C896 C 0.76308 0.11987 0.9213 0.0
O897 O 0.75102 0.06773 0.96011 0.0
O898 O 0.72635 0.06424 0.93317 0.0
N899 N 0.70992 0.1231 0.97737 0.0
C900 C 0.71047 0.12454 1.00387 0.0
C901 C 0.69346 0.12338 0.01748 0.0
C902 C 0.67609 0.12081 1.00371 0.0
C903 C 0.67593 0.1195 0.97644 0.0
C904 C 0.69341 0.12093 0.96391 0.0
H905 H 0.72372 0.12641 0.01458 0.0
O906 O 0.71443 0.07061 0.9831 0.0
O907 O 0.72013 0.09584 0.95702 0.0
O908 O 0.75548 0.10492 0.98859 0.0
O909 O 0.75085 0.13128 0.98236 0.0
C910 C 0.65892 0.11637 0.96125 0.0
C911 C 0.65953 0.11443 0.93396 0.0
H912 H 0.66587 0.1103 0.88222 0.0
H913 H 0.69752 0.11172 0.86383 0.0
H914 H 0.69368 0.12435 0.03854 0.0
H915 H 0.66291 0.1197 0.0143 0.0
H916 H 0.64515 0.1151 0.97041 0.0
H917 H 0.64622 0.11171 0.92254 0.0
Mn918 Mn 0.99217 0.71329 0.92967 0.0
Mn919 Mn 1.00585 0.76099 0.94283 0.0
C920 C 0.02506 0.73872 0.91901 0.0
C921 C 0.99024 0.68348 0.94322 0.0
C922 C 0.97845 0.7381 0.89749 0.0
O923 O 0.96973 0.71015 0.95536 0.0
O924 O 0.98166 0.74249 0.96534 0.0
C925 C 0.02039 0.76286 0.99687 0.0
N926 N 0.02414 0.76997 0.9718 0.0
C927 C 0.0591 0.79489 0.98185 0.0
C928 C 0.05556 0.78793 1.00782 0.0
C929 C 0.03613 0.77183 0.01534 0.0
C930 C 0.04278 0.78547 0.96435 0.0
H931 H 1.00552 0.7504 1.00269 0.0
C932 C 0.96864 0.72372 0.96818 0.0
O933 O 0.97855 0.68369 0.92464 0.0
O934 O 1.00211 0.70028 0.95448 0.0
N935 N 0.02916 0.78031 0.9226 0.0
C936 C 0.03044 0.7844 0.89649 0.0
C937 C 0.04911 0.79969 0.88562 0.0
C938 C 0.06621 0.81066 0.90169 0.0
C939 C 0.06446 0.80629 0.92853 0.0
C940 C 0.04541 0.791 0.93831 0.0
H941 H 0.01738 0.77597 0.88402 0.0
O942 O 0.01739 0.72163 0.90751 0.0
O943 O 0.01321 0.74035 0.93642 0.0
O944 O 0.97915 0.72199 0.90091 0.0
O945 O 0.98747 0.75321 0.91237 0.0
C946 C 0.081 0.81621 0.94588 0.0
C947 C 0.07833 0.81051 0.97251 0.0
H948 H 0.06771 0.7947 0.02208 0.0
H949 H 0.03332 0.76629 0.03531 0.0
H950 H 0.05034 0.80295 0.86487 0.0
H951 H 0.08065 0.82229 0.89318 0.0
H952 H 0.09594 0.82802 0.93886 0.0
H953 H 0.09125 0.81804 0.98557 0.0
Mn954 Mn 0.36537 0.11712 0.45606 0.0
Mn955 Mn 0.38756 0.1067 0.40497 0.0
C956 C 0.38778 0.10433 0.4635 0.0
C957 C 0.36455 0.1383 0.48893 0.0
C958 C 0.34324 0.07896 0.42254 0.0
O959 O 0.36134 0.1327 0.42547 0.0
O960 O 0.37572 0.12364 0.39344 0.0
C961 C 0.42215 0.14808 0.39625 0.0
N962 N 0.41535 0.1283 0.40081 0.0
C963 C 0.45019 0.13404 0.39992 0.0
C964 C 0.45757 0.15445 0.39505 0.0
C965 C 0.44348 0.1615 0.39329 0.0
C966 C 0.42878 0.12139 0.40279 0.0
H967 H 0.41138 0.15356 0.39491 0.0
C968 C 0.36632 0.13275 0.4014 0.0
O969 O 0.34786 0.12277 0.48093 0.0
O970 O 0.38159 0.14221 0.47684 0.0
N971 N 0.39974 0.09043 0.41214 0.0
C972 C 0.3901 0.07032 0.41692 0.0
C973 C 0.40199 0.06087 0.41924 0.0
C974 C 0.42362 0.07212 0.41613 0.0
C975 C 0.43314 0.0927 0.41053 0.0
C976 C 0.42048 0.10127 0.40833 0.0
H977 H 0.37347 0.06156 0.41913 0.0
O978 O 0.37423 0.10256 0.48092 0.0
O979 O 0.38807 0.11372 0.44201 0.0
O980 O 0.34306 0.09019 0.44068 0.0
O981 O 0.35923 0.08357 0.40835 0.0
C982 C 0.45473 0.10509 0.40742 0.0
C983 C 0.46325 0.12577 0.40223 0.0
H984 H 0.47401 0.16485 0.39274 0.0
H985 H 0.44906 0.17725 0.38963 0.0
H986 H 0.39451 0.04497 0.42345 0.0
H987 H 0.43275 0.06481 0.41817 0.0
H988 H 0.46492 0.09892 0.40921 0.0
H989 H 0.47988 0.13518 0.40009 0.0
Mn990 Mn 0.98974 0.35248 0.45119 0.0
Mn991 Mn 0.02448 0.37153 0.49953 0.0
C992 C 0.02485 0.3713 0.44129 0.0
C993 C 0.96964 0.32701 0.42221 0.0
C994 C 0.99739 0.38888 0.48343 0.0
O995 O 0.97352 0.33536 0.48293 0.0
O996 O 0.99834 0.34834 0.51348 0.0
C997 C 0.03151 0.33744 0.50906 0.0
N998 N 0.03907 0.35707 0.50253 0.0
C999 C 0.07369 0.36252 0.49792 0.0
C1000 C 0.06629 0.34239 0.50476 0.0
C1001 C 0.04511 0.3298 0.51033 0.0
C1002 C 0.05944 0.36935 0.49726 0.0
H1003 H 0.01523 0.32765 0.51319 0.0
C1004 C 0.98005 0.33561 0.50602 0.0
O1005 O 0.96467 0.34026 0.42904 0.0
O1006 O 0.98597 0.3282 0.4328 0.0
N1007 N 0.05046 0.39366 0.48811 0.0
C1008 C 0.05481 0.41224 0.47983 0.0
C1009 C 0.07518 0.42642 0.4724 0.0
C1010 C 0.09086 0.42138 0.47357 0.0
C1011 C 0.08602 0.40218 0.4822 0.0
C1012 C 0.06547 0.38873 0.48959 0.0
H1013 H 0.04279 0.41615 0.4787 0.0
O1014 O 0.01126 0.36973 0.42437 0.0
O1015 O 0.0174 0.36219 0.46358 0.0
O1016 O 0.9884 0.37678 0.46489 0.0
O1017 O 0.01076 0.38792 0.49791 0.0
C1018 C 0.10068 0.39573 0.48316 0.0
C1019 C 0.09452 0.37592 0.49104 0.0
H1020 H 0.07669 0.33639 0.50551 0.0
H1021 H 0.03926 0.31422 0.51548 0.0
H1022 H 0.07878 0.44118 0.46565 0.0
H1023 H 0.10651 0.43229 0.46756 0.0
H1024 H 0.11667 0.40579 0.4775 0.0
H1025 H 0.10587 0.37105 0.49131 0.0
Mn1026 Mn 0.74199 0.72345 0.43904 0.0
Mn1027 Mn 0.70069 0.69675 0.40071 0.0
C1028 C 0.71023 0.70061 0.45733 0.0
C1029 C 0.77144 0.72904 0.46141 0.0
C1030 C 0.71828 0.74082 0.41101 0.0
O1031 O 0.75527 0.72515 0.40324 0.0
O1032 O 0.72646 0.70542 0.38024 0.0
C1033 C 0.7054 0.66133 0.39166 0.0
N1034 N 0.69383 0.66932 0.40049 0.0
C1035 C 0.6653 0.63666 0.41159 0.0
C1036 C 0.67687 0.62808 0.40252 0.0
C1037 C 0.69703 0.64048 0.39259 0.0
C1038 C 0.67446 0.65753 0.41019 0.0
H1039 H 0.7209 0.67081 0.384 0.0
C1040 C 0.74613 0.7162 0.38238 0.0
O1041 O 0.76865 0.7436 0.45383 0.0
O1042 O 0.7574 0.71104 0.45507 0.0
N1043 N 0.67479 0.68729 0.41873 0.0
C1044 C 0.66623 0.69801 0.42822 0.0
C1045 C 0.64632 0.68788 0.43962 0.0
C1046 C 0.63539 0.66685 0.441 0.0
C1047 C 0.64448 0.65614 0.43097 0.0
C1048 C 0.66434 0.66705 0.41978 0.0
H1049 H 0.67455 0.71416 0.42715 0.0
O1050 O 0.72367 0.7154 0.47108 0.0
O1051 O 0.71562 0.70007 0.43338 0.0
O1052 O 0.73185 0.74229 0.42705 0.0
O1053 O 0.70608 0.72466 0.3994 0.0
C1054 C 0.63477 0.63509 0.43207 0.0
C1055 C 0.6452 0.62536 0.42245 0.0
H1056 H 0.6705 0.61201 0.40328 0.0
H1057 H 0.70609 0.63398 0.38565 0.0
H1058 H 0.63942 0.69625 0.44736 0.0
H1059 H 0.62009 0.6591 0.44996 0.0
H1060 H 0.61945 0.62625 0.44071 0.0
H1061 H 0.63772 0.60919 0.42384 0.0
H1062 H 0.06132 0.5298 0.09001 0.0
H1063 H 0.04974 0.43313 0.02332 0.0
H1064 H 0.05927 0.52224 1.00649 0.0
H1065 H 0.06896 0.44748 0.10319 0.0
H1066 H 0.05568 0.46694 0.01648 0.0
H1067 H 0.06762 0.50172 0.0951 0.0
C1068 C 0.0627 0.52258 0.07269 0.0
C1069 C 0.05935 0.52818 0.04782 0.0
C1070 C 0.05887 0.46283 0.03543 0.0
C1071 C 0.06614 0.49577 0.05358 0.0
C1072 C 0.05536 0.44345 0.03939 0.0
C1073 C 0.05864 0.43737 0.06395 0.0
C1074 C 0.06537 0.4762 0.05628 0.0
C1075 C 0.06616 0.45149 0.08396 0.0
C1076 C 0.06622 0.50648 0.07563 0.0
C1077 C 0.06148 0.51833 0.02609 0.0
N1078 N 0.06896 0.47017 0.07981 0.0
N1079 N 0.0643 0.50236 0.02952 0.0
H1080 H 0.58288 0.60989 0.01997 0.0
H1081 H 0.62132 0.71422 0.09411 0.0
H1082 H 0.54333 0.62056 0.07125 0.0
H1083 H 0.65786 0.70466 0.03635 0.0
H1084 H 0.59296 0.67983 0.08737 0.0
H1085 H 0.61091 0.64421 0.02722 0.0
C1086 C 0.58006 0.61938 0.03282 0.0
C1087 C 0.56059 0.61216 0.04497 0.0
C1088 C 0.6072 0.68531 0.07615 0.0
C1089 C 0.59283 0.65176 0.05343 0.0
C1090 C 0.62344 0.70501 0.07999 0.0
C1091 C 0.64218 0.71261 0.0658 0.0
C1092 C 0.60964 0.67295 0.05808 0.0
C1093 C 0.64383 0.69972 0.0478 0.0
C1094 C 0.5961 0.63905 0.03693 0.0
C1095 C 0.55799 0.62535 0.06137 0.0
N1096 N 0.62792 0.68069 0.04456 0.0
N1097 N 0.57384 0.64438 0.06512 0.0
H1098 H 0.46973 0.02107 0.05717 0.0
H1099 H 0.37971 0.04808 0.08168 0.0
H1100 H 0.47374 0.07752 0.03745 0.0
H1101 H 0.37084 0.98952 0.09904 0.0
H1102 H 0.41442 0.05844 0.06484 0.0
H1103 H 0.43386 0.00856 0.07299 0.0
C1104 C 0.46314 0.0308 0.05613 0.0
C1105 C 0.47486 0.05039 0.04592 0.0
C1106 C 0.40502 0.04331 0.07238 0.0
C1107 C 0.43398 0.0362 0.06372 0.0
C1108 C 0.38521 0.03744 0.08201 0.0
C1109 C 0.37287 0.01825 0.09274 0.0
C1110 C 0.41249 0.02975 0.07299 0.0
C1111 C 0.38035 1.00476 0.09191 0.0
C1112 C 0.44268 0.02365 0.06509 0.0
C1113 C 0.46548 0.06233 0.04509 0.0
N1114 N 0.3998 0.0108 0.08244 0.0
N1115 N 0.44576 0.05506 0.05381 0.0
H1116 H 0.43754 0.02717 0.49826 0.0
H1117 H 0.43056 0.12492 0.46071 0.0
H1118 H 0.49262 0.08489 0.4886 0.0
H1119 H 0.37847 0.06761 0.48221 0.0
H1120 H 0.45403 0.11188 0.47111 0.0
H1121 H 0.41642 0.04269 0.49253 0.0
C1122 C 0.44528 0.04322 0.49502 0.0
C1123 C 0.46702 0.05465 0.49383 0.0
C1124 C 0.43748 0.10217 0.47356 0.0
C1125 C 0.44246 0.07282 0.487 0.0
C1126 C 0.42408 0.10954 0.46739 0.0
C1127 C 0.40247 0.09704 0.46953 0.0
C1128 C 0.42919 0.08215 0.48207 0.0
C1129 C 0.39496 0.07758 0.47951 0.0
C1130 C 0.4331 0.05213 0.49178 0.0
C1131 C 0.47596 0.07546 0.48979 0.0
N1132 N 0.4082 0.0707 0.48499 0.0
N1133 N 0.46365 0.08386 0.48627 0.0
H1134 H 0.98331 0.49158 0.45457 0.0
H1135 H 1.0073 0.41366 0.52559 0.0
H1136 H 0.99511 0.49352 0.53705 0.0
H1137 H 0.97756 0.40229 0.45079 0.0
H1138 H 1.00228 0.4425 0.53056 0.0
H1139 H 0.97958 0.45824 0.45323 0.0
C1140 C 0.98469 0.48483 0.47255 0.0
C1141 C 0.98974 0.49554 0.49592 0.0
C1142 C 0.99664 0.43356 0.51319 0.0
C1143 C 0.98605 0.45746 0.49437 0.0
C1144 C 0.99957 0.41711 0.51027 0.0
C1145 C 0.99295 0.4055 0.48765 0.0
C1146 C 0.98729 0.43874 0.49319 0.0
C1147 C 0.98295 0.41074 0.46856 0.0
C1148 C 0.98265 0.4658 0.47174 0.0
C1149 C 0.99133 0.48596 0.51857 0.0
N1150 N 0.98066 0.42707 0.47163 0.0
N1151 N 0.9899 0.46766 0.51713 0.0
H1152 H 0.59513 0.61039 0.52751 0.0
H1153 H 0.70562 0.66378 0.45558 0.0
H1154 H 0.62087 0.57906 0.48621 0.0
H1155 H 0.67835 0.69643 0.48913 0.0
H1156 H 0.67695 0.63265 0.4732 0.0
H1157 H 0.62713 0.64184 0.51907 0.0
C1158 C 0.60746 0.61005 0.51666 0.0
C1159 C 0.60509 0.59196 0.50724 0.0
C1160 C 0.67721 0.64657 0.47693 0.0
C1161 C 0.64204 0.62802 0.49805 0.0
C1162 C 0.69352 0.66431 0.4668 0.0
C1163 C 0.69381 0.68244 0.47023 0.0
C1164 C 0.66101 0.64697 0.49056 0.0
C1165 C 0.67829 0.68257 0.48563 0.0
C1166 C 0.62582 0.62805 0.51206 0.0
C1167 C 0.62192 0.59253 0.49395 0.0
N1168 N 0.66223 0.66498 0.4949 0.0
N1169 N 0.6396 0.61026 0.48962 0.0
H1170 H 0.97423 0.56449 0.95916 0.0
H1171 H 0.01666 0.68097 0.97732 0.0
H1172 H 0.0326 0.60423 0.99501 0.0
H1173 H 0.96757 0.64532 0.92416 0.0
H1174 H 0.02112 0.65228 0.98618 0.0
H1175 H 0.9705 0.59331 0.94737 0.0
C1176 C 0.98637 0.57932 0.96433 0.0
C1177 C 1.00373 0.58198 0.97818 0.0
C1178 C 0.00937 0.6507 0.97257 0.0
C1179 C 0.99938 0.61496 0.96507 0.0
C1180 C 1.00668 0.66704 0.96762 0.0
C1181 C 0.99167 0.66553 0.94997 0.0
C1182 C 0.99686 0.63258 0.95997 0.0
C1183 C 0.97929 0.64712 0.93793 0.0
C1184 C 0.9842 0.59575 0.9576 0.0
C1185 C 0.019 0.6015 0.98429 0.0
N1186 N 0.98213 0.63131 0.9432 0.0
N1187 N 0.01636 0.61724 0.97792 0.0
H1188 H 0.50334 0.4772 0.98068 0.0
H1189 H 0.38164 0.39655 0.99111 0.0
H1190 H 0.45844 0.49171 0.01138 0.0
H1191 H 0.4268 0.38559 0.95316 0.0
H1192 H 0.40929 0.43062 1.00096 0.0
H1193 H 0.47551 0.44324 0.97256 0.0
C1194 C 0.48762 0.47331 0.98575 0.0
C1195 C 0.48338 0.48756 0.99675 0.0
C1196 C 0.41317 0.42074 0.99056 0.0
C1197 C 0.45105 0.44814 0.98746 0.0
C1198 C 0.39737 0.40121 0.98501 0.0
C1199 C 0.4018 0.38803 0.97127 0.0
C1200 C 0.43368 0.42726 0.98244 0.0
C1201 C 0.42254 0.39509 0.96379 0.0
C1202 C 0.47165 0.45379 0.98106 0.0
C1203 C 0.46255 0.48136 1.00281 0.0
N1204 N 0.43759 0.4141 0.96944 0.0
N1205 N 0.44722 0.46218 0.99815 0.0
H1206 H 0.58688 0.05304 0.03703 0.0
H1207 H 0.67991 0.07569 0.937 0.0
H1208 H 0.58712 0.06538 0.95479 0.0
H1209 H 0.68624 0.07497 0.02039 0.0
H1210 H 0.64357 0.06624 0.94309 0.0
H1211 H 0.62073 0.05495 0.03126 0.0
C1212 C 0.59371 0.05541 0.01764 0.0
C1213 C 0.58415 0.05881 0.99626 0.0
C1214 C 0.65283 0.06816 0.96014 0.0
C1215 C 0.62285 0.0615 0.98961 0.0
C1216 C 0.67362 0.07375 0.95664 0.0
C1217 C 0.68621 0.07696 0.97826 0.0
C1218 C 0.64442 0.06551 0.98551 0.0
C1219 C 0.6771 0.07322 1.00327 0.0
C1220 C 0.61313 0.05681 0.01441 0.0
C1221 C 0.59392 0.0625 0.97171 0.0
N1222 N 0.65678 0.06794 1.00628 0.0
N1223 N 0.61271 0.06383 0.96908 0.0
H1224 H 0.55851 0.03584 0.56378 0.0
H1225 H 0.6488 0.0113 0.52628 0.0
H1226 H 0.57147 0.02413 0.48591 0.0
H1227 H 0.62944 0.01112 0.60569 0.0
H1228 H 0.62349 0.02062 0.5114 0.0
H1229 H 0.5874 0.03173 0.5798 0.0
C1230 C 0.56782 0.03305 0.54996 0.0
C1231 C 0.56273 0.03058 0.5234 0.0
C1232 C 0.62467 0.0185 0.53211 0.0
C1233 C 0.5955 0.02549 0.54157 0.0
C1234 C 0.6391 0.01314 0.54057 0.0
C1235 C 0.6406 0.00962 0.56714 0.0
C1236 C 0.61191 0.02094 0.55039 0.0
C1237 C 0.62816 0.0129 0.58492 0.0
C1238 C 0.58413 0.03043 0.55914 0.0
C1239 C 0.57494 0.02633 0.5065 0.0
N1240 N 0.61426 0.01824 0.57626 0.0
N1241 N 0.59062 0.02391 0.51581 0.0
H1242 H 0.07434 0.61676 0.57228 0.0
H1243 H 0.04285 0.70136 0.55767 0.0
H1244 H 0.01618 0.60526 0.54019 0.0
H1245 H 0.09388 0.70847 0.60453 0.0
H1246 H 0.03376 0.6668 0.54934 0.0
H1247 H 0.08204 0.65044 0.58351 0.0
C1248 C 0.06303 0.62125 0.56789 0.0
C1249 C 0.04455 0.60813 0.55528 0.0
C1250 C 0.04696 0.6759 0.56141 0.0
C1251 C 0.05354 0.64704 0.56766 0.0
C1252 C 0.05231 0.69574 0.56604 0.0
C1253 C 0.06927 0.70796 0.58178 0.0
C1254 C 0.05871 0.66811 0.57241 0.0
C1255 C 0.08077 0.69969 0.59219 0.0
C1256 C 0.06749 0.64055 0.57427 0.0
C1257 C 0.03051 0.6148 0.55009 0.0
N1258 N 0.07531 0.68033 0.58728 0.0
N1259 N 0.0354 0.63388 0.55603 0.0
H1260 H 0.46041 0.46749 0.58745 0.0
H1261 H 0.34789 0.40932 0.53095 0.0
H1262 H 0.44704 0.48408 0.51259 0.0
H1263 H 0.3585 0.41862 0.61345 0.0
H1264 H 0.38423 0.4348 0.52231 0.0
H1265 H 0.42309 0.44651 0.59618 0.0
C1266 C 0.44957 0.46653 0.5728 0.0
C1267 C 0.45666 0.47737 0.54926 0.0
C1268 C 0.37846 0.43155 0.54226 0.0
C1269 C 0.41423 0.45361 0.55901 0.0
C1270 C 0.35781 0.41714 0.54714 0.0
C1271 C 0.35027 0.41235 0.57285 0.0
C1272 C 0.39173 0.44048 0.56334 0.0
C1273 C 0.36372 0.42235 0.59332 0.0
C1274 C 0.42836 0.45481 0.57788 0.0
C1275 C 0.44206 0.47594 0.531 0.0
N1276 N 0.38393 0.43579 0.58815 0.0
N1277 N 0.42148 0.46409 0.53613 0.0
H1278 H 0.74322 0.85185 0.33813 0.0
H1279 H 0.72128 0.76915 0.44482 0.0
H1280 H 0.70769 0.84711 0.40724 0.0
H1281 H 0.71421 0.75437 0.36322 0.0
H1282 H 0.72298 0.80105 0.4338 0.0
H1283 H 0.74008 0.81927 0.34939 0.0
C1284 C 0.73503 0.84402 0.35585 0.0
C1285 C 0.72577 0.85204 0.37193 0.0
C1286 C 0.72092 0.79073 0.41839 0.0
C1287 C 0.72226 0.81521 0.38491 0.0
C1288 C 0.71995 0.7726 0.42462 0.0
C1289 C 0.71746 0.75914 0.40488 0.0
C1290 C 0.72009 0.79565 0.39218 0.0
C1291 C 0.71591 0.76429 0.37899 0.0
C1292 C 0.73307 0.82546 0.36209 0.0
C1293 C 0.71502 0.8413 0.39447 0.0
N1294 N 0.71756 0.78233 0.3733 0.0
N1295 N 0.71372 0.82348 0.40049 0.0
H1296 H 0.2174 0.97681 0.41835 0.0
H1297 H 0.33852 0.04976 0.38853 0.0
H1298 H 0.25386 0.96273 0.36607 0.0
H1299 H 0.30406 0.06345 0.44473 0.0
H1300 H 0.30736 0.01817 0.37982 0.0
H1301 H 0.2484 0.00877 0.42769 0.0
C1302 C 0.23185 0.98042 0.40871 0.0
C1303 C 0.23288 0.96689 0.39136 0.0
C1304 C 0.30655 0.02803 0.39407 0.0
C1305 C 0.26862 1.00359 0.40219 0.0
C1306 C 0.32441 0.04619 0.39909 0.0
C1307 C 0.32407 0.05949 0.41744 0.0
C1308 C 0.28796 0.02291 0.40737 0.0
C1309 C 0.30518 0.05377 0.43045 0.0
C1310 C 0.2496 0.99867 0.41419 0.0
C1311 C 0.25223 0.97243 0.3798 0.0
N1312 N 0.28791 0.03597 0.42513 0.0
N1313 N 0.26922 0.99028 0.38537 0.0
H1314 H 0.13884 0.41437 0.351 0.0
H1315 H 0.04368 0.34944 0.44791 0.0
H1316 H 0.13506 0.36842 0.40346 0.0
H1317 H 0.05271 0.40404 0.41198 0.0
H1318 H 0.07737 0.35657 0.43105 0.0
H1319 H 0.10797 0.41173 0.37259 0.0
C1320 C 0.13172 0.40392 0.36721 0.0
C1321 C 0.13949 0.39145 0.3752 0.0
C1322 C 0.07223 0.36721 0.42706 0.0
C1323 C 0.1041 0.38824 0.39975 0.0
C1324 C 0.05305 0.36321 0.43689 0.0
C1325 C 0.04585 0.37659 0.4322 0.0
C1326 C 0.08416 0.38448 0.41163 0.0
C1327 C 0.05803 0.39362 0.41654 0.0
C1328 C 0.11408 0.40241 0.37949 0.0
C1329 C 0.12959 0.37821 0.39636 0.0
N1330 N 0.07666 0.39713 0.40678 0.0
N1331 N 0.11238 0.37685 0.40766 0.0
H1332 H 0.1016 0.33264 0.82506 0.0
H1333 H 0.08236 0.42142 0.77898 0.0
H1334 H 0.15167 0.39389 0.82271 0.0
H1335 H 0.03409 0.36262 0.80282 0.0
H1336 H 0.10847 0.41239 0.79216 0.0
H1337 H 0.0776 0.34382 0.81336 0.0
C1338 C 0.10769 0.34855 0.82206 0.0
C1339 C 0.12892 0.3623 0.82502 0.0
C1340 C 0.09218 0.40147 0.79453 0.0
C1341 C 0.10085 0.37536 0.81144 0.0
C1342 C 0.07729 0.40655 0.78681 0.0
C1343 C 0.05603 0.39247 0.78894 0.0
C1344 C 0.08576 0.38214 0.80444 0.0
C1345 C 0.05029 0.37374 0.80022 0.0
C1346 C 0.09379 0.35493 0.81544 0.0
C1347 C 0.13551 0.38271 0.82073 0.0
N1348 N 0.065 0.36905 0.80715 0.0
N1349 N 0.12154 0.38862 0.81408 0.0
H1350 H 0.69809 0.81464 0.8413 0.0
H1351 H 0.66624 0.72598 0.74109 0.0
H1352 H 0.70283 0.82414 0.75789 0.0
H1353 H 0.68673 0.72371 0.81899 0.0
H1354 H 0.67487 0.76063 0.74815 0.0
H1355 H 0.68947 0.77985 0.83468 0.0
C1356 C 0.6973 0.80937 0.82161 0.0
C1357 C 0.70122 0.82225 0.8001 0.0
C1358 C 0.67745 0.75251 0.76368 0.0
C1359 C 0.69117 0.78255 0.79238 0.0
C1360 C 0.67239 0.7327 0.75976 0.0
C1361 C 0.67574 0.72189 0.7795 0.0
C1362 C 0.6856 0.76152 0.78766 0.0
C1363 C 0.68395 0.73148 0.8032 0.0
C1364 C 0.69248 0.78959 0.81785 0.0
C1365 C 0.70015 0.81475 0.77497 0.0
N1366 N 0.68849 0.75071 0.80667 0.0
N1367 N 0.69506 0.79534 0.77178 0.0
H1368 H 0.24243 0.9532 0.85558 0.0
H1369 H 0.34898 0.97127 0.79685 0.0
H1370 H 0.25526 0.90501 0.84395 0.0
H1371 H 0.34046 0.01876 0.82667 0.0
H1372 H 0.31569 0.94664 0.8164 0.0
H1373 H 0.27862 0.97728 0.84633 0.0
C1374 C 0.25288 0.94765 0.85111 0.0
C1375 C 0.24577 0.92703 0.85034 0.0
C1376 C 0.32116 0.96241 0.81899 0.0
C1377 C 0.2874 0.95465 0.83989 0.0
C1378 C 0.34004 0.97643 0.80771 0.0
C1379 C 0.34687 0.99691 0.80944 0.0
C1380 C 0.30901 0.96902 0.83184 0.0
C1381 C 0.33531 1.00301 0.82442 0.0
C1382 C 0.27362 0.96146 0.84605 0.0
C1383 C 0.26008 0.92077 0.84465 0.0
N1384 N 0.31664 0.98907 0.83462 0.0
N1385 N 0.28023 0.93456 0.83939 0.0
H1386 H 0.69264 0.96555 0.34701 0.0
H1387 H 0.66382 0.0257 0.24475 0.0
H1388 H 0.70808 0.96882 0.26522 0.0
H1389 H 0.68158 0.04642 0.32331 0.0
H1390 H 0.67323 0.99983 0.25284 0.0
H1391 H 0.68205 0.99072 0.33956 0.0
C1392 C 0.69374 0.97158 0.3275 0.0
C1393 C 0.70131 0.96525 0.3067 0.0
C1394 C 0.67497 0.01001 0.26829 0.0
C1395 C 0.68893 0.99358 0.29797 0.0
C1396 C 0.66948 0.02466 0.26378 0.0
C1397 C 0.67197 0.03822 0.28339 0.0
C1398 C 0.68256 0.00866 0.29276 0.0
C1399 C 0.67951 0.0363 0.30764 0.0
C1400 C 0.68779 0.98592 0.32329 0.0
C1401 C 0.70253 0.97351 0.28177 0.0
N1402 N 0.68443 0.02171 0.31171 0.0
N1403 N 0.69622 0.98714 0.27803 0.0
H1404 H 0.14528 0.82078 0.31316 0.0
H1405 H 0.02824 0.7301 0.31139 0.0
H1406 H 0.09233 0.82558 0.33704 0.0
H1407 H 0.07738 0.72816 0.26879 0.0
H1408 H 0.05265 0.76395 0.32484 0.0
H1409 H 0.12185 0.78603 0.30041 0.0
C1410 C 0.12876 0.81453 0.31583 0.0
C1411 C 0.12079 0.8262 0.32618 0.0
C1412 C 0.05819 0.75618 0.31259 0.0
C1413 C 0.09389 0.78639 0.31167 0.0
C1414 C 0.04423 0.73673 0.30494 0.0
C1415 C 0.0507 0.72617 0.28883 0.0
C1416 C 0.07897 0.76534 0.30429 0.0
C1417 C 0.07169 0.73571 0.28119 0.0
C1418 C 0.11539 0.79472 0.30841 0.0
C1419 C 0.0992 0.81731 0.3289 0.0
N1420 N 0.08509 0.75475 0.28899 0.0
N1421 N 0.08658 0.798 0.32183 0.0
H1422 H 0.24075 0.40362 0.27714 0.0
H1423 H 0.34371 0.42494 0.35242 0.0
H1424 H 0.24304 0.40017 0.36109 0.0
H1425 H 0.33719 0.42135 0.26892 0.0
H1426 H 0.30739 0.41697 0.3568 0.0
H1427 H 0.27708 0.41272 0.27442 0.0
C1428 C 0.24894 0.40498 0.29506 0.0
C1429 C 0.23871 0.401 0.31937 0.0
C1430 C 0.31392 0.41792 0.33753 0.0
C1431 C 0.28045 0.41109 0.31637 0.0
C1432 C 0.33457 0.42241 0.33508 0.0
C1433 C 0.3435 0.42446 0.31025 0.0
C1434 C 0.30218 0.41517 0.31497 0.0
C1435 C 0.331 0.42056 0.28837 0.0
C1436 C 0.2697 0.41005 0.29348 0.0
C1437 C 0.25025 0.4031 0.34191 0.0
N1438 N 0.31106 0.41629 0.29121 0.0
N1439 N 0.27046 0.40787 0.33985 0.0
H1440 H 0.21953 0.34719 0.92468 0.0
H1441 H 0.32109 0.34571 0.87754 0.0
H1442 H 0.24314 0.36305 0.84588 0.0
H1443 H 0.30444 0.34485 0.95836 0.0
H1444 H 0.29349 0.35282 0.86509 0.0
H1445 H 0.2512 0.34741 0.93728 0.0
C1446 C 0.23173 0.35135 0.91019 0.0
C1447 C 0.22889 0.35558 0.88434 0.0
C1448 C 0.2959 0.35113 0.88556 0.0
C1449 C 0.26502 0.35494 0.89834 0.0
C1450 C 0.31157 0.34698 0.89264 0.0
C1451 C 0.31441 0.3438 0.91895 0.0
C1452 C 0.28316 0.35241 0.90499 0.0
C1453 C 0.30215 0.3463 0.93779 0.0
C1454 C 0.24977 0.3513 0.91733 0.0
C1455 C 0.24494 0.36023 0.86616 0.0
N1456 N 0.28695 0.35019 0.93046 0.0
N1457 N 0.2622 0.35952 0.87341 0.0
H1458 H 0.75555 0.95712 0.90711 0.0
H1459 H 0.71681 0.03687 0.89911 0.0
H1460 H 0.71728 0.95913 0.84574 0.0
H1461 H 0.76079 0.03989 0.95579 0.0
H1462 H 0.71712 0.0084 0.87926 0.0
H1463 H 0.75862 0.98786 0.92475 0.0
C1464 C 0.74801 0.96413 0.89715 0.0
C1465 C 0.73595 0.95539 0.87506 0.0
C1466 C 0.72676 0.0153 0.89599 0.0
C1467 C 0.73913 0.99038 0.89535 0.0
C1468 C 0.72653 0.03153 0.9074 0.0
C1469 C 0.73873 0.04071 0.9292 0.0
C1470 C 0.7392 0.00809 0.90652 0.0
C1471 C 0.75111 0.03321 0.93903 0.0
C1472 C 0.74965 0.98162 0.90733 0.0
C1473 C 0.72637 0.96508 0.86311 0.0
N1474 N 0.75097 0.01728 0.92768 0.0
N1475 N 0.72806 0.98195 0.87349 0.0
H1476 H 0.14956 0.81816 0.864 0.0
H1477 H 0.05225 0.75299 0.9587 0.0
H1478 H 0.15102 0.82487 0.94768 0.0
H1479 H 0.04862 0.75423 0.87493 0.0
H1480 H 0.0898 0.77538 0.95534 0.0
H1481 H 0.11424 0.79015 0.86812 0.0
C1482 C 0.14266 0.81349 0.88332 0.0
C1483 C 0.15322 0.82412 0.90552 0.0
C1484 C 0.08082 0.77081 0.93767 0.0
C1485 C 0.11263 0.79219 0.91025 0.0
C1486 C 0.05943 0.75827 0.93961 0.0
C1487 C 0.04742 0.75267 0.91709 0.0
C1488 C 0.09024 0.77746 0.91295 0.0
C1489 C 0.05741 0.75885 0.89274 0.0
C1490 C 0.1224 0.79757 0.88561 0.0
C1491 C 0.14344 0.81727 0.93001 0.0
N1492 N 0.07827 0.77115 0.89129 0.0
N1493 N 0.12359 0.8019 0.93169 0.0
H1494 H 0.36845 0.15495 0.7056 0.0
H1495 H 0.41274 0.08766 0.76445 0.0
H1496 H 0.42416 0.17824 0.7508 0.0
H1497 H 0.35552 0.06313 0.72203 0.0
H1498 H 0.41746 0.12094 0.75833 0.0
H1499 H 0.36375 0.12144 0.71039 0.0
C1500 C 0.37964 0.15304 0.71672 0.0
C1501 C 0.39667 0.1695 0.72803 0.0
C1502 C 0.40387 0.10833 0.75031 0.0
C1503 C 0.39148 0.13105 0.73323 0.0
C1504 C 0.40112 0.08922 0.75378 0.0
C1505 C 0.38363 0.07244 0.74377 0.0
C1506 C 0.38906 0.11085 0.73671 0.0
C1507 C 0.36923 0.07558 0.73007 0.0
C1508 C 0.37699 0.13387 0.71928 0.0
C1509 C 0.4109 0.16607 0.74163 0.0
N1510 N 0.37225 0.09443 0.72698 0.0
N1511 N 0.40795 0.14724 0.7439 0.0
H1512 H 0.8941 0.26115 0.67769 0.0
H1513 H 0.96069 0.3551 0.76999 0.0
H1514 H 0.88196 0.26096 0.76011 0.0
H1515 H 0.98399 0.34759 0.69612 0.0
H1516 H 0.9289 0.32312 0.7639 0.0
H1517 H 0.9238 0.29519 0.68126 0.0
C1518 C 0.89738 0.26835 0.69643 0.0
C1519 C 0.8854 0.25799 0.71862 0.0
C1520 C 0.94091 0.3285 0.74894 0.0
C1521 C 0.91956 0.29716 0.72289 0.0
C1522 C 0.95912 0.34686 0.75235 0.0
C1523 C 0.97526 0.35423 0.73359 0.0
C1524 C 0.93848 0.31731 0.72641 0.0
C1525 C 0.97212 0.34261 0.71121 0.0
C1526 C 0.91449 0.28777 0.6985 0.0
C1527 C 0.89066 0.26822 0.74243 0.0
N1528 N 0.95417 0.32483 0.70825 0.0
N1529 N 0.90725 0.2871 0.74392 0.0
H1530 H 0.81141 0.74391 0.69714 0.0
H1531 H 0.7012 0.64864 0.72984 0.0
H1532 H 0.8031 0.68432 0.69924 0.0
H1533 H 0.71152 0.7076 0.71158 0.0
H1534 H 0.7376 0.66003 0.71786 0.0
H1535 H 0.77452 0.72991 0.70296 0.0
C1536 C 0.80182 0.72779 0.69884 0.0
C1537 C 0.8105 0.7153 0.69773 0.0
C1538 C 0.73185 0.67042 0.71636 0.0
C1539 C 0.76763 0.69898 0.70434 0.0
C1540 C 0.71121 0.66399 0.72341 0.0
C1541 C 0.70383 0.67755 0.72282 0.0
C1542 C 0.745 0.69052 0.70877 0.0
C1543 C 0.71691 0.69693 0.71313 0.0
C1544 C 0.7806 0.71977 0.70203 0.0
C1545 C 0.79708 0.69451 0.69999 0.0
N1546 N 0.73693 0.70293 0.70695 0.0
N1547 N 0.77626 0.68696 0.70336 0.0
H1548 H 0.81764 0.755 0.13839 0.0
H1549 H 0.69786 0.72656 0.13105 0.0
H1550 H 0.76503 0.69535 0.14574 0.0
H1551 H 0.74731 0.78482 0.10743 0.0
H1552 H 0.72341 0.7166 0.14184 0.0
H1553 H 0.79346 0.76786 0.13133 0.0
C1554 C 0.80112 0.74464 0.13871 0.0
C1555 C 0.79348 0.724 0.14254 0.0
C1556 C 0.72881 0.73159 0.13424 0.0
C1557 C 0.76575 0.7386 0.13482 0.0
C1558 C 0.71416 0.73725 0.12808 0.0
C1559 C 0.72041 0.75621 0.11723 0.0
C1560 C 0.75008 0.74513 0.13016 0.0
C1561 C 0.74182 0.76974 0.11471 0.0
C1562 C 0.78732 0.75197 0.13461 0.0
C1563 C 0.77184 0.71134 0.14265 0.0
N1564 N 0.7559 0.76392 0.12089 0.0
N1565 N 0.75891 0.71879 0.13893 0.0
H1566 H 0.37475 0.16304 0.12515 0.0
H1567 H 0.35581 0.06208 0.19378 0.0
H1568 H 0.37112 0.15601 0.20891 0.0
H1569 H 0.33274 0.06336 0.11723 0.0
H1570 H 0.36504 0.09716 0.19929 0.0
H1571 H 0.36343 0.1274 0.12117 0.0
C1572 C 0.37174 0.15403 0.14272 0.0
C1573 C 0.37399 0.16255 0.16742 0.0
C1574 C 0.35779 0.08968 0.1814 0.0
C1575 C 0.36101 0.12165 0.16299 0.0
C1576 C 0.35252 0.06965 0.17821 0.0
C1577 C 0.34337 0.05964 0.15503 0.0
C1578 C 0.35437 0.09998 0.16103 0.0
C1579 C 0.33957 0.07033 0.13552 0.0
C1580 C 0.36509 0.13364 0.14043 0.0
C1581 C 0.36952 0.15002 0.18952 0.0
N1582 N 0.3453 0.08993 0.13884 0.0
N1583 N 0.36343 0.13025 0.18681 0.0
H1584 H 0.90799 0.29693 0.19104 0.0
H1585 H 1.00377 0.3318 0.10124 0.0
H1586 H 0.9027 0.27024 0.11577 0.0
H1587 H 0.99547 0.37793 0.13632 0.0
H1588 H 0.96787 0.30729 0.11234 0.0
H1589 H 0.94068 0.32612 0.17621 0.0
C1590 C 0.91347 0.29739 0.17126 0.0
C1591 C 0.90275 0.28104 0.1547 0.0
C1592 C 0.97381 0.32282 0.11731 0.0
C1593 C 0.94009 0.31394 0.13809 0.0
C1594 C 0.9942 0.33678 0.11093 0.0
C1595 C 1.00211 0.35697 0.11678 0.0
C1596 C 0.96147 0.32896 0.13055 0.0
C1597 C 0.98958 0.36252 0.13082 0.0
C1598 C 0.93204 0.31402 0.16286 0.0
C1599 C 0.91047 0.28243 0.12924 0.0
N1600 N 0.96971 0.34851 0.13733 0.0
N1601 N 0.92894 0.29838 0.12192 0.0
H1602 H 0.40078 0.31377 0.68942 0.0
H1603 H 0.31085 0.30942 0.60038 0.0
H1604 H 0.36838 0.26848 0.63198 0.0
H1605 H 0.34662 0.35714 0.65368 0.0
H1606 H 0.3315 0.29389 0.61204 0.0
H1607 H 0.38202 0.33065 0.67541 0.0
C1608 C 0.39005 0.30762 0.67348 0.0
C1609 C 0.38598 0.28961 0.66198 0.0
C1610 C 0.33477 0.30773 0.62123 0.0
C1611 C 0.36405 0.30849 0.64632 0.0
C1612 C 0.32286 0.31648 0.61476 0.0
C1613 C 0.32703 0.33456 0.62609 0.0
C1614 C 0.3509 0.31714 0.63918 0.0
C1615 C 0.34289 0.34319 0.64445 0.0
C1616 C 0.37915 0.31711 0.66569 0.0
C1617 C 0.37171 0.28217 0.64161 0.0
N1618 N 0.35427 0.33442 0.65037 0.0
N1619 N 0.36111 0.29152 0.63459 0.0
H1620 H 0.83028 0.1315 0.64517 0.0
H1621 H 0.70711 0.05769 0.6445 0.0
H1622 H 0.78806 0.1496 0.6754 0.0
H1623 H 0.75145 0.04607 0.60556 0.0
H1624 H 0.73562 0.09062 0.65735 0.0
H1625 H 0.80107 0.10007 0.63148 0.0
C1626 C 0.8148 0.12894 0.64884 0.0
C1627 C 0.81178 0.14339 0.66156 0.0
C1628 C 0.73909 0.08085 0.64601 0.0
C1629 C 0.77769 0.10669 0.64597 0.0
C1630 C 0.72282 0.06196 0.63877 0.0
C1631 C 0.72679 0.0489 0.62396 0.0
C1632 C 0.7596 0.0868 0.63855 0.0
C1633 C 0.74751 0.05545 0.61701 0.0
C1634 C 0.79802 0.11084 0.64097 0.0
C1635 C 0.79121 0.13903 0.66553 0.0
N1636 N 0.76299 0.07378 0.62436 0.0
N1637 N 0.77496 0.12102 0.65798 0.0
H1638 H 0.92333 0.71633 0.69075 0.0
H1639 H 0.01328 0.74275 0.58456 0.0
H1640 H 0.92191 0.73419 0.61123 0.0
H1641 H 0.02259 0.74337 0.66745 0.0
H1642 H 0.97657 0.73132 0.59273 0.0
H1643 H 0.95632 0.71746 0.68102 0.0
C1644 C 0.92954 0.71963 0.67099 0.0
C1645 C 0.91986 0.72485 0.65159 0.0
C1646 C 0.98661 0.73393 0.60917 0.0
C1647 C 0.95757 0.72672 0.64053 0.0
C1648 C 1.00755 0.74066 0.60451 0.0
C1649 C 0.02102 0.74496 0.62544 0.0
C1650 C 0.97904 0.73117 0.63498 0.0
C1651 C 0.01272 0.74087 0.65087 0.0
C1652 C 0.94847 0.72059 0.66554 0.0
C1653 C 0.92883 0.72977 0.62654 0.0
N1654 N 0.99226 0.73448 0.655 0.0
N1655 N 0.94723 0.7307 0.62175 0.0
H1656 H 0.88335 0.70819 0.22913 0.0
H1657 H 0.97073 0.67934 0.19424 0.0
H1658 H 0.89956 0.70026 0.15111 0.0
H1659 H 0.95528 0.68587 0.27326 0.0
H1660 H 0.94579 0.68874 0.1784 0.0
H1661 H 0.91116 0.70285 0.24605 0.0
C1662 C 0.89332 0.70615 0.21551 0.0
C1663 C 0.88954 0.70524 0.18861 0.0
C1664 C 0.94765 0.688 0.19924 0.0
C1665 C 0.92077 0.69824 0.20781 0.0
C1666 C 0.96181 0.68249 0.20827 0.0
C1667 C 0.96444 0.68101 0.2351 0.0
C1668 C 0.93625 0.69259 0.21714 0.0
C1669 C 0.95306 0.68601 0.25243 0.0
C1670 C 0.90896 0.70275 0.22518 0.0
C1671 C 0.90229 0.70159 0.17193 0.0
N1672 N 0.93939 0.69147 0.24319 0.0
N1673 N 0.91718 0.69815 0.18175 0.0
H1674 H 0.36695 0.2885 0.22308 0.0
H1675 H 0.42871 0.39695 0.28588 0.0
H1676 H 0.4327 0.31826 0.23616 0.0
H1677 H 0.36979 0.37501 0.24848 0.0
H1678 H 0.42943 0.36697 0.27202 0.0
H1679 H 0.36657 0.31856 0.23693 0.0
C1680 C 0.38129 0.30127 0.22916 0.0
C1681 C 0.39989 0.30078 0.22863 0.0
C1682 C 0.41638 0.36875 0.26678 0.0
C1683 C 0.39956 0.33543 0.24436 0.0
C1684 C 0.41591 0.38583 0.27474 0.0
C1685 C 0.39915 0.38852 0.26832 0.0
C1686 C 0.3998 0.35402 0.25264 0.0
C1687 C 0.38304 0.37361 0.25379 0.0
C1688 C 0.38108 0.31853 0.23683 0.0
C1689 C 0.41805 0.31801 0.23622 0.0
N1690 N 0.3837 0.35696 0.2466 0.0
N1691 N 0.41742 0.33458 0.24391 0.0
H1692 H 0.79386 0.21263 0.17882 0.0
H1693 H 0.72367 0.13589 0.29238 0.0
H1694 H 0.81657 0.21045 0.25533 0.0
H1695 H 0.70571 0.13082 0.2119 0.0
H1696 H 0.75607 0.1667 0.28114 0.0
H1697 H 0.75912 0.18692 0.19313 0.0
C1698 C 0.79146 0.20707 0.19878 0.0
C1699 C 0.80815 0.21344 0.2158 0.0
C1700 C 0.74496 0.15897 0.26597 0.0
C1701 C 0.76865 0.18387 0.23211 0.0
C1702 C 0.72652 0.14152 0.27243 0.0
C1703 C 0.71194 0.1314 0.25312 0.0
C1704 C 0.74878 0.16612 0.24 0.0
C1705 C 0.71651 0.13861 0.22735 0.0
C1706 C 0.77168 0.19227 0.20686 0.0
C1707 C 0.80416 0.20573 0.24146 0.0
N1708 N 0.7345 0.15567 0.22153 0.0
N1709 N 0.78485 0.19118 0.24876 0.0
H1710 H 0.03587 0.50662 0.93987 0.0
H1711 H 0.98154 0.42985 0.82291 0.0
H1712 H 0.96995 0.47352 0.92754 0.0
H1713 H 0.04774 0.46228 0.83273 0.0
H1714 H 0.97761 0.44689 0.86042 0.0
H1715 H 0.04104 0.49178 0.90045 0.0
C1716 C 0.02246 0.49636 0.9289 0.0
C1717 C 1.00238 0.49137 0.93735 0.0
C1718 C 0.99305 0.45041 0.85441 0.0
C1719 C 0.00828 0.47413 0.89199 0.0
C1720 C 0.99533 0.44068 0.83285 0.0
C1721 C 0.01503 0.44456 0.82451 0.0
C1722 C 0.01057 0.46422 0.86812 0.0
C1723 C 0.03226 0.45881 0.83834 0.0
C1724 C 0.02545 0.4878 0.90638 0.0
C1725 C 0.98569 0.47771 0.92226 0.0
N1726 N 0.02962 0.46804 0.8595 0.0
N1727 N 0.98901 0.46964 0.90049 0.0
H1728 H 0.57628 0.59798 0.94651 0.0
H1729 H 0.59344 0.62818 0.79439 0.0
H1730 H 0.52595 0.57506 0.89202 0.0
H1731 H 0.64261 0.64312 0.8492 0.0
H1732 H 0.56807 0.61012 0.82965 0.0
H1733 H 0.60039 0.61598 0.91087 0.0
C1734 C 0.57023 0.59655 0.92705 0.0
C1735 C 0.54894 0.58475 0.92241 0.0
C1736 C 0.58444 0.61738 0.83385 0.0
C1737 C 0.57671 0.6058 0.88117 0.0
C1738 C 0.59893 0.62774 0.81375 0.0
C1739 C 0.62026 0.63723 0.81871 0.0
C1740 C 0.59134 0.61663 0.85909 0.0
C1741 C 0.6264 0.63606 0.84425 0.0
C1742 C 0.58407 0.607 0.90663 0.0
C1743 C 0.54216 0.58403 0.89666 0.0
N1744 N 0.61207 0.62602 0.86335 0.0
N1745 N 0.55599 0.59438 0.87702 0.0
H1746 H 0.48275 0.03339 0.94241 0.0
H1747 H 0.42428 1.00014 0.83087 0.0
H1748 H 0.52655 0.08439 0.89611 0.0
H1749 H 0.46399 0.06053 0.80231 0.0
H1750 H 0.44878 1.00616 0.86578 0.0
H1751 H 0.46216 0.01906 0.90392 0.0
C1752 C 0.48829 0.0414 0.92399 0.0
C1753 C 0.50639 0.06023 0.92259 0.0
C1754 C 0.45218 0.01815 0.85199 0.0
C1755 C 0.48285 0.0437 0.8779 0.0
C1756 C 0.43832 0.01456 0.83174 0.0
C1757 C 0.4419 0.03001 0.81408 0.0
C1758 C 0.46956 0.0374 0.85457 0.0
C1759 C 0.46041 0.04833 0.81588 0.0
C1760 C 0.4765 0.03311 0.9018 0.0
C1761 C 0.51254 0.07003 0.89822 0.0
N1762 N 0.47338 0.0516 0.83598 0.0
N1763 N 0.5007 0.06174 0.87693 0.0
H1764 H 0.47174 0.99029 0.61464 0.0
H1765 H 0.38603 0.01456 0.66848 0.0
H1766 H 0.43842 0.00979 0.56528 0.0
H1767 H 0.43434 0.01709 0.71706 0.0
H1768 H 0.40201 0.00823 0.63079 0.0
H1769 H 0.4545 0.99468 0.65305 0.0
C1770 C 0.4605 0.99513 0.61194 0.0
C1771 C 0.45641 0.9997 0.58692 0.0
C1772 C 0.40917 0.01026 0.64968 0.0
C1773 C 0.43693 1.00492 0.63038 0.0
C1774 C 0.40007 0.01389 0.67119 0.0
C1775 C 0.40892 0.01644 0.69593 0.0
C1776 C 0.42708 0.00886 0.65293 0.0
C1777 C 0.42713 0.01541 0.69829 0.0
C1778 C 0.45089 0.99786 0.63377 0.0
C1779 C 0.442 1.00623 0.58433 0.0
N1780 N 0.43556 0.01155 0.67704 0.0
N1781 N 0.43276 0.00864 0.6058 0.0
H1782 H 0.01579 0.48882 0.57618 0.0
H1783 H 0.03609 0.46825 0.72327 0.0
H1784 H 0.06756 0.53343 0.61883 0.0
H1785 H 0.01383 0.42211 0.66554 0.0
H1786 H 0.04113 0.49285 0.68864 0.0
H1787 H 0.00854 0.4646 0.61203 0.0
C1788 C 0.02554 0.49353 0.59318 0.0
C1789 C 0.04236 0.51315 0.59447 0.0
C1790 C 0.03489 0.47728 0.68368 0.0
C1791 C 0.03387 0.48563 0.63587 0.0
C1792 C 0.03179 0.46321 0.70346 0.0
C1793 C 0.02435 0.44304 0.69734 0.0
C1794 C 0.03005 0.47107 0.6577 0.0
C1795 C 0.01949 0.43746 0.67117 0.0
C1796 C 0.02144 0.47971 0.61358 0.0
C1797 C 0.05457 0.51842 0.61695 0.0
N1798 N 0.02228 0.45131 0.65242 0.0
N1799 N 0.05 0.50483 0.63685 0.0
H1800 H 0.53456 0.545 0.62251 0.0
H1801 H 0.60135 0.65422 0.68164 0.0
H1802 H 0.54818 0.59804 0.57788 0.0
H1803 H 0.60554 0.60262 0.70594 0.0
H1804 H 0.57588 0.6337 0.64881 0.0
H1805 H 0.55348 0.56582 0.65907 0.0
C1806 C 0.54122 0.56107 0.62059 0.0
C1807 C 0.53998 0.56982 0.59701 0.0
C1808 C 0.5823 0.6269 0.66149 0.0
C1809 C 0.562 0.59383 0.63886 0.0
C1810 C 0.59676 0.63853 0.68026 0.0
C1811 C 0.60564 0.6301 0.69647 0.0
C1812 C 0.5764 0.60662 0.65931 0.0
C1813 C 0.5992 0.60976 0.69377 0.0
C1814 C 0.55214 0.57295 0.64144 0.0
C1815 C 0.54874 0.59071 0.59574 0.0
N1816 N 0.58497 0.59873 0.6756 0.0
N1817 N 0.55966 0.60209 0.61633 0.0
H1818 H 0.9673 0.54179 0.12291 0.0
H1819 H 0.02399 0.64854 0.19352 0.0
H1820 H 0.02556 0.59082 0.09485 0.0
H1821 H 0.965 0.59835 0.21741 0.0
H1822 H 0.0258 0.62821 0.15787 0.0
H1823 H 0.96709 0.56273 0.15798 0.0
C1824 C 0.98015 0.55693 0.12411 0.0
C1825 C 0.99651 0.56436 0.10572 0.0
C1826 C 0.01251 0.6217 0.17101 0.0
C1827 C 0.99629 0.58884 0.14626 0.0
C1828 C 0.01148 0.6333 0.19144 0.0
C1829 C 0.99432 0.62528 0.20871 0.0
C1830 C 0.99627 0.60191 0.16778 0.0
C1831 C 0.97858 0.60537 0.20478 0.0
C1832 C 0.97997 0.56899 0.1442 0.0
C1833 C 0.0125 0.58438 0.10832 0.0
N1834 N 0.97996 0.59452 0.18491 0.0
N1835 N 0.01202 0.59586 0.12818 0.0
H1836 H 0.48016 0.53541 0.11215 0.0
H1837 H 0.44841 0.45888 0.23368 0.0
H1838 H 0.51161 0.50263 0.13003 0.0
H1839 H 0.42393 0.49858 0.22087 0.0
H1840 H 0.47108 0.47382 0.1953 0.0
H1841 H 0.45847 0.52089 0.15119 0.0
C1842 C 0.48245 0.52509 0.12421 0.0
C1843 C 0.49775 0.52026 0.11775 0.0
C1844 C 0.46079 0.47929 0.20101 0.0
C1845 C 0.47302 0.5036 0.16271 0.0
C1846 C 0.44784 0.47077 0.22294 0.0
C1847 C 0.43419 0.47744 0.23065 0.0
C1848 C 0.46 0.4945 0.18656 0.0
C1849 C 0.43417 0.49291 0.21584 0.0
C1850 C 0.47015 0.51689 0.14663 0.0
C1851 C 0.50019 0.50698 0.13438 0.0
N1852 N 0.44677 0.50081 0.19454 0.0
N1853 N 0.48792 0.49906 0.15603 0.0
H1854 H 0.59558 0.08497 0.08088 0.0
H1855 H 0.6289 0.1275 0.22456 0.0
H1856 H 0.57631 0.12352 0.11687 0.0
H1857 H 0.63567 0.07919 0.19329 0.0
H1858 H 0.61254 0.12886 0.18406 0.0
H1859 H 0.61388 0.08586 0.12043 0.0
C1860 C 0.59521 0.09365 0.09714 0.0
C1861 C 0.58411 0.10393 0.09573 0.0
C1862 C 0.61758 0.11795 0.18613 0.0
C1863 C 0.60521 0.10513 0.14111 0.0
C1864 C 0.62692 0.11713 0.20925 0.0
C1865 C 0.63365 0.10315 0.21243 0.0
C1866 C 0.61511 0.10483 0.16593 0.0
C1867 C 0.63066 0.09014 0.19184 0.0
C1868 C 0.6057 0.09417 0.11972 0.0
C1869 C 0.58468 0.1154 0.11713 0.0
N1870 N 0.62167 0.09135 0.16947 0.0
N1871 N 0.59495 0.11559 0.13906 0.0
H1872 H 0.53061 1.00038 0.40561 0.0
H1873 H 0.61228 0.09948 0.32827 0.0
H1874 H 0.5319 0.05687 0.40815 0.0
H1875 H 0.61015 0.04281 0.31919 0.0
H1876 H 0.58149 0.08309 0.3558 0.0
H1877 H 0.55775 0.01429 0.37151 0.0
C1878 C 0.53631 0.01556 0.3986 0.0
C1879 C 0.5292 0.02761 0.40983 0.0
C1880 C 0.58765 0.07415 0.34776 0.0
C1881 C 0.56031 0.04365 0.37134 0.0
C1882 C 0.60537 0.08355 0.33207 0.0
C1883 C 0.61398 0.07256 0.32148 0.0
C1884 C 0.57839 0.05356 0.35322 0.0
C1885 C 0.6041 0.0519 0.327 0.0
C1886 C 0.55189 0.02354 0.37932 0.0
C1887 C 0.53722 0.04723 0.40027 0.0
N1888 N 0.58687 0.04306 0.34266 0.0
N1889 N 0.55244 0.05467 0.38177 0.0
H1890 H 0.06424 0.60827 0.41343 0.0
H1891 H 0.97256 0.6129 0.33769 0.0
H1892 H 1.00005 0.57485 0.43763 0.0
H1893 H 0.03726 0.65276 0.31973 0.0
H1894 H 0.9824 0.59804 0.3732 0.0
H1895 H 0.05477 0.6237 0.37804 0.0
C1896 C 0.04814 0.60408 0.41133 0.0
C1897 C 0.03297 0.59016 0.42878 0.0
C1898 C 0.99448 0.61005 0.36154 0.0
C1899 C 0.02196 0.60795 0.38801 0.0
C1900 C 0.98886 0.61858 0.34113 0.0
C1901 C 1.00405 0.63419 0.32544 0.0
C1902 C 0.0155 0.61698 0.36646 0.0
C1903 C 0.02493 0.64082 0.33118 0.0
C1904 C 0.04275 0.61302 0.39112 0.0
C1905 C 0.01238 0.58561 0.42502 0.0
N1906 N 0.03 0.63217 0.35106 0.0
N1907 N 1.00752 0.59438 0.40511 0.0
H1908 H 0.51915 0.52201 0.42847 0.0
H1909 H 0.41742 0.50338 0.35429 0.0
H1910 H 0.47802 0.54005 0.46273 0.0
H1911 H 0.4467 0.46754 0.34517 0.0
H1912 H 0.442 0.52194 0.38908 0.0
H1913 H 0.49591 0.50806 0.39194 0.0
C1914 C 0.50531 0.52327 0.42819 0.0
C1915 C 0.50044 0.53203 0.44893 0.0
C1916 C 0.44295 0.51 0.37939 0.0
C1917 C 0.47351 0.51582 0.40687 0.0
C1918 C 0.429 0.49943 0.35952 0.0
C1919 C 0.42993 0.48379 0.3468 0.0
C1920 C 0.45818 0.50517 0.38612 0.0
C1921 C 0.44524 0.47933 0.35446 0.0
C1922 C 0.49197 0.51518 0.40731 0.0
C1923 C 0.48236 0.53341 0.44718 0.0
N1924 N 0.45877 0.49001 0.37343 0.0
N1925 N 0.46941 0.52521 0.42656 0.0
H1926 H 0.65732 0.83968 0.28153 0.0
H1927 H 0.71036 0.83183 0.14747 0.0
H1928 H 0.71455 0.88645 0.24773 0.0
H1929 H 0.64825 0.78673 0.16958 0.0
H1930 H 0.71128 0.85142 0.18505 0.0
H1931 H 0.6524 0.81964 0.24184 0.0
C1932 C 0.66866 0.84589 0.26577 0.0
C1933 C 0.68646 0.86485 0.26831 0.0
C1934 C 0.69733 0.8373 0.18176 0.0
C1935 C 0.68111 0.84187 0.22295 0.0
C1936 C 0.69681 0.82605 0.16012 0.0
C1937 C 0.67919 0.80753 0.15505 0.0
C1938 C 0.68019 0.83008 0.19905 0.0
C1939 C 0.66216 0.80095 0.1725 0.0
C1940 C 0.66592 0.83438 0.24314 0.0
C1941 C 0.70067 0.8719 0.24712 0.0
N1942 N 0.66312 0.81209 0.19372 0.0
N1943 N 0.69776 0.8605 0.22577 0.0
H1944 H 0.19746 0.91059 0.26563 0.0
H1945 H 0.31619 0.97294 0.21924 0.0
H1946 H 0.24757 0.91609 0.31298 0.0
H1947 H 0.2651 0.96479 0.17159 0.0
H1948 H 0.2916 0.95137 0.25294 0.0
H1949 H 0.22203 0.92887 0.23036 0.0
C1950 C 0.21367 0.91547 0.26853 0.0
C1951 C 0.22044 0.91181 0.29243 0.0
C1952 C 0.28575 0.95426 0.23512 0.0
C1953 C 0.24893 0.93319 0.25187 0.0
C1954 C 0.2998 0.96668 0.21579 0.0
C1955 C 0.29281 0.97091 0.19239 0.0
C1956 C 0.26441 0.94591 0.23125 0.0
C1957 C 0.27132 0.96211 0.18922 0.0
C1958 C 0.22774 0.92599 0.24831 0.0
C1959 C 0.24164 0.91846 0.29489 0.0
N1960 N 0.25795 0.95013 0.20841 0.0
N1961 N 0.25516 0.929 0.27495 0.0
H1962 H 0.15275 0.38816 0.26354 0.0
H1963 H 0.07195 0.34225 0.14743 0.0
H1964 H 0.12376 0.32598 0.24261 0.0
H1965 H 0.11 0.40557 0.16086 0.0
H1966 H 0.08989 0.33555 0.1826 0.0
H1967 H 0.13609 0.39439 0.22676 0.0
C1968 C 0.14276 0.37577 0.25129 0.0
C1969 C 0.13953 0.35647 0.25628 0.0
C1970 C 0.09437 0.35091 0.17773 0.0
C1971 C 0.12047 0.36355 0.21384 0.0
C1972 C 0.08414 0.35474 0.15766 0.0
C1973 C 0.08945 0.37451 0.15124 0.0
C1974 C 0.10989 0.36695 0.19158 0.0
C1975 C 0.10537 0.3901 0.16514 0.0
C1976 C 0.13336 0.37937 0.23013 0.0
C1977 C 0.12674 0.34108 0.23937 0.0
N1978 N 0.11492 0.38598 0.18472 0.0
N1979 N 0.11757 0.34493 0.21898 0.0
H1980 H 0.13376 0.32695 0.97054 0.0
H1981 H 0.07239 0.38527 0.99475 0.0
H1982 H 0.12614 0.36294 0.91151 0.0
H1983 H 0.09814 0.36803 0.05834 0.0
H1984 H 0.09085 0.37572 0.96384 0.0
H1985 H 0.11891 0.33967 1.00315 0.0
C1986 C 0.12889 0.33745 0.96449 0.0
C1987 C 0.1312 0.34397 0.93839 0.0
C1988 C 0.0927 0.37424 0.98455 0.0
C1989 C 0.11438 0.35854 0.97526 0.0
C1990 C 0.0822 0.37972 1.00218 0.0
C1991 C 0.0838 0.37746 0.02909 0.0
C1992 C 0.1046 0.36603 0.99383 0.0
C1993 C 0.09667 0.37016 0.03771 0.0
C1994 C 0.12064 0.34484 0.98307 0.0
C1995 C 0.12486 0.35773 0.93149 0.0
N1996 N 0.10639 0.36442 0.02008 0.0
N1997 N 0.11665 0.36445 0.94976 0.0
H1998 H 0.67148 0.83073 0.89165 0.0
H1999 H 0.67507 0.81969 0.04845 0.0
H2000 H 0.6801 0.87736 0.94451 0.0
H2001 H 0.67918 0.77982 0.99343 0.0
H2002 H 0.67187 0.83875 0.01148 0.0
H2003 H 0.66903 0.80963 0.92933 0.0
C2004 C 0.67249 0.83645 0.91113 0.0
C2005 C 0.67601 0.85596 0.91468 0.0
C2006 C 0.67331 0.82571 1.00757 0.0
C2007 C 0.67339 0.83177 0.95829 0.0
C2008 C 0.67501 0.81474 0.02873 0.0
C2009 C 0.67752 0.79809 0.02427 0.0
C2010 C 0.67383 0.81989 0.98165 0.0
C2011 C 0.67747 0.7926 0.99806 0.0
C2012 C 0.67125 0.82442 0.93273 0.0
C2013 C 0.67742 0.86248 0.94062 0.0
N2014 N 0.67571 0.80338 0.97798 0.0
N2015 N 0.67618 0.85053 0.96127 0.0
H2016 H 0.22749 0.9022 0.95972 0.0
H2017 H 0.25999 0.98537 0.06988 0.0
H2018 H 0.19688 0.93659 0.9711 0.0
H2019 H 0.2871 0.94759 0.06194 0.0
H2020 H 0.23631 0.96732 0.0345 0.0
H2021 H 0.24912 0.91844 0.99727 0.0
C2022 C 0.22534 0.91324 0.96999 0.0
C2023 C 0.21035 0.91809 0.96194 0.0
C2024 C 0.24734 0.96288 0.04058 0.0
C2025 C 0.23513 0.93674 1.00546 0.0
C2026 C 0.26087 0.97317 0.06085 0.0
C2027 C 0.27563 0.96803 0.06895 0.0
C2028 C 0.24857 0.94735 0.02809 0.0
C2029 C 0.276 0.95209 0.05642 0.0
C2030 C 0.23765 0.92243 0.99162 0.0
C2031 C 0.2081 0.93226 0.97656 0.0
N2032 N 0.2628 0.94242 0.03658 0.0
N2033 N 0.2204 0.94113 0.99746 0.0
H2034 H 0.65425 0.89783 0.4123 0.0
H2035 H 0.70306 0.97678 0.52985 0.0
H2036 H 0.71927 0.94009 0.42123 0.0
H2037 H 0.63816 0.93246 0.52765 0.0
H2038 H 0.70862 0.96317 0.4896 0.0
H2039 H 0.64724 0.9098 0.45375 0.0
C2040 C 0.66703 0.90951 0.42283 0.0
C2041 C 0.68741 0.91785 0.4129 0.0
C2042 C 0.69313 0.95633 0.49791 0.0
C2043 C 0.67949 0.93175 0.46048 0.0
C2044 C 0.68995 0.96413 0.52107 0.0
C2045 C 0.6701 0.95585 0.53257 0.0
C2046 C 0.67638 0.94006 0.48566 0.0
C2047 C 0.65379 0.93942 0.51982 0.0
C2048 C 0.66303 0.91637 0.44655 0.0
C2049 C 0.70327 0.93305 0.4277 0.0
N2050 N 0.65726 0.93217 0.49719 0.0
N2051 N 0.69899 0.93941 0.45038 0.0
H2052 H 0.16723 0.83499 0.42074 0.0
H2053 H 0.11728 0.83258 0.5605 0.0
H2054 H 0.17203 0.88624 0.46005 0.0
H2055 H 0.11395 0.77959 0.52837 0.0
H2056 H 0.14059 0.85247 0.52514 0.0
H2057 H 0.15143 0.81461 0.46081 0.0
C2058 C 0.1656 0.84208 0.43804 0.0
C2059 C 0.17101 0.86235 0.43715 0.0
C2060 C 0.13499 0.83653 0.52572 0.0
C2061 C 0.15262 0.83918 0.48265 0.0
C2062 C 0.12158 0.82511 0.54601 0.0
C2063 C 0.11346 0.80432 0.54738 0.0
C2064 C 0.14027 0.82722 0.50605 0.0
C2065 C 0.11985 0.79558 0.5281 0.0
C2066 C 0.15638 0.83042 0.46079 0.0
C2067 C 0.16811 0.87068 0.45987 0.0
N2068 N 0.13265 0.80703 0.50799 0.0
N2069 N 0.15903 0.8591 0.48146 0.0
H2070 H 0.18987 0.36448 0.44669 0.0
H2071 H 0.26393 0.33969 0.53206 0.0
H2072 H 0.20521 0.31943 0.42529 0.0
H2073 H 0.25381 0.38946 0.54518 0.0
H2074 H 0.23936 0.32911 0.49615 0.0
H2075 H 0.20965 0.37049 0.48644 0.0
C2076 C 0.19737 0.35578 0.45046 0.0
C2077 C 0.19619 0.34167 0.4325 0.0
C2078 C 0.24248 0.34227 0.50702 0.0
C2079 C 0.21896 0.34846 0.47806 0.0
C2080 C 0.25649 0.34834 0.52753 0.0
C2081 C 0.26109 0.36559 0.54162 0.0
C2082 C 0.23292 0.35348 0.50065 0.0
C2083 C 0.25093 0.37616 0.53484 0.0
C2084 C 0.20865 0.35919 0.47319 0.0
C2085 C 0.20577 0.33046 0.43866 0.0
N2086 N 0.2374 0.36996 0.51485 0.0
N2087 N 0.21698 0.33425 0.46085 0.0
H2088 H 0.19941 0.30506 0.76951 0.0
H2089 H 0.25382 0.38625 0.65476 0.0
H2090 H 0.1844 0.35104 0.75106 0.0
H2091 H 0.26244 0.33512 0.66418 0.0
H2092 H 0.22794 0.37302 0.68978 0.0
H2093 H 0.22146 0.31467 0.73023 0.0
C2094 C 0.20045 0.31693 0.75699 0.0
C2095 C 0.19024 0.32744 0.76377 0.0
C2096 C 0.23541 0.36462 0.68414 0.0
C2097 C 0.21571 0.33874 0.7191 0.0
C2098 C 0.2503 0.37223 0.66417 0.0
C2099 C 0.26045 0.36186 0.6565 0.0
C2100 C 0.23066 0.34654 0.69681 0.0
C2101 C 0.25506 0.34367 0.66941 0.0
C2102 C 0.21317 0.32252 0.73466 0.0
C2103 C 0.19232 0.34282 0.74689 0.0
N2104 N 0.24062 0.33666 0.68903 0.0
N2105 N 0.20495 0.34812 0.72553 0.0
H2106 H 0.68991 0.92677 0.78588 0.0
H2107 H 0.64337 0.92393 0.64383 0.0
H2108 H 0.65365 0.87265 0.74298 0.0
H2109 H 0.69441 0.97807 0.67355 0.0
H2110 H 0.64466 0.90563 0.68226 0.0
H2111 H 0.68908 0.94634 0.74792 0.0
C2112 C 0.68149 0.91894 0.76872 0.0
C2113 C 0.67173 0.8979 0.76787 0.0
C2114 C 0.65567 0.92149 0.68044 0.0
C2115 C 0.67084 0.92035 0.72409 0.0
C2116 C 0.65497 0.93204 0.65836 0.0
C2117 C 0.66888 0.9527 0.65508 0.0
C2118 C 0.67017 0.93154 0.70006 0.0
C2119 C 0.68349 0.96217 0.67492 0.0
C2120 C 0.68121 0.93017 0.74691 0.0
C2121 C 0.66138 0.88876 0.74476 0.0
N2122 N 0.68365 0.95159 0.69656 0.0
N2123 N 0.66116 0.89994 0.72405 0.0
H2124 H 0.14842 0.83114 0.79362 0.0
H2125 H 0.10169 0.83232 0.65363 0.0
H2126 H 0.1425 0.88033 0.76275 0.0
H2127 H 0.10725 0.78215 0.68137 0.0
H2128 H 0.11788 0.85017 0.69312 0.0
H2129 H 0.1346 0.81321 0.75287 0.0
C2130 C 0.14436 0.83828 0.77831 0.0
C2131 C 0.14668 0.8574 0.78187 0.0
C2132 C 0.1157 0.8353 0.69066 0.0
C2133 C 0.13064 0.83673 0.73499 0.0
C2134 C 0.10641 0.82501 0.66796 0.0
C2135 C 0.10293 0.80554 0.664 0.0
C2136 C 0.12162 0.8262 0.70999 0.0
C2137 C 0.10962 0.79711 0.68345 0.0
C2138 C 0.13637 0.82795 0.75503 0.0
C2139 C 0.14081 0.86561 0.76127 0.0
N2140 N 0.11852 0.80743 0.70565 0.0
N2141 N 0.13311 0.85527 0.73888 0.0
H2142 H 0.34011 0.17517 0.64125 0.0
H2143 H 0.39629 0.17363 0.50692 0.0
H2144 H 0.39973 0.22219 0.61363 0.0
H2145 H 0.3328 0.12942 0.52441 0.0
H2146 H 0.39695 0.19129 0.54649 0.0
H2147 H 0.33589 0.15794 0.59926 0.0
C2148 C 0.35214 0.18201 0.62636 0.0
C2149 C 0.37037 0.20014 0.63125 0.0
C2150 C 0.38276 0.1778 0.54171 0.0
C2151 C 0.36579 0.18045 0.58332 0.0
C2152 C 0.3824 0.16768 0.51897 0.0
C2153 C 0.36446 0.14999 0.51211 0.0
C2154 C 0.36514 0.17018 0.55821 0.0
C2155 C 0.34697 0.14306 0.52877 0.0
C2156 C 0.34979 0.17213 0.60243 0.0
C2157 C 0.38548 0.20817 0.61114 0.0
N2158 N 0.34777 0.15305 0.55108 0.0
N2159 N 0.38291 0.1983 0.58843 0.0
H2160 H 0.91191 0.21945 0.58322 0.0
H2161 H 0.97978 0.33718 0.55927 0.0
H2162 H 0.91664 0.26188 0.64065 0.0
H2163 H 0.95044 0.29691 0.49562 0.0
H2164 H 0.96036 0.30938 0.59018 0.0
H2165 H 0.93017 0.24726 0.55139 0.0
C2166 C 0.91695 0.23463 0.58912 0.0
C2167 C 0.91273 0.23843 0.61449 0.0
C2168 C 0.95805 0.30666 0.56945 0.0
C2169 C 0.93358 0.27014 0.57853 0.0
C2170 C 0.9691 0.32252 0.5518 0.0
C2171 C 0.96662 0.31941 0.52482 0.0
C2172 C 0.94477 0.28739 0.56011 0.0
C2173 C 0.95263 0.30003 0.51626 0.0
C2174 C 0.92716 0.25042 0.57098 0.0
C2175 C 0.91941 0.25833 0.6212 0.0
N2176 N 0.94241 0.28469 0.53384 0.0
N2177 N 0.92961 0.27344 0.60342 0.0
H2178 H 0.84445 0.71888 0.58423 0.0
H2179 H 0.80295 0.76527 0.4763 0.0
H2180 H 0.85881 0.78053 0.58229 0.0
H2181 H 0.77903 0.70179 0.48676 0.0
H2182 H 0.82817 0.77169 0.51021 0.0
H2183 H 0.82478 0.71307 0.54433 0.0
C2184 C 0.84349 0.73123 0.57552 0.0
C2185 C 0.85309 0.75019 0.58704 0.0
C2186 C 0.81755 0.75636 0.50495 0.0
C2187 C 0.83081 0.74363 0.54091 0.0
C2188 C 0.80317 0.75266 0.48549 0.0
C2189 C 0.78869 0.73293 0.47888 0.0
C2190 C 0.81749 0.74023 0.51796 0.0
C2191 C 0.78984 0.71722 0.49135 0.0
C2192 C 0.83234 0.72789 0.55258 0.0
C2193 C 0.85174 0.76569 0.57424 0.0
N2194 N 0.80386 0.7212 0.5105 0.0
N2195 N 0.84069 0.76203 0.55199 0.0
H2196 H 0.80408 0.67336 0.27564 0.0
H2197 H 0.74029 0.72272 0.33211 0.0
H2198 H 0.77943 0.70262 0.22773 0.0
H2199 H 0.77838 0.70879 0.38094 0.0
H2200 H 0.75445 0.71515 0.29362 0.0
H2201 H 0.79358 0.6845 0.3148 0.0
C2202 C 0.79621 0.68188 0.27342 0.0
C2203 C 0.79253 0.68706 0.24851 0.0
C2204 C 0.76003 0.71405 0.31267 0.0
C2205 C 0.78086 0.70008 0.29287 0.0
C2206 C 0.75207 0.71853 0.33459 0.0
C2207 C 0.75837 0.71654 0.35957 0.0
C2208 C 0.77406 0.70705 0.31577 0.0
C2209 C 0.77342 0.71078 0.36189 0.0
C2210 C 0.7905 0.68847 0.29569 0.0
C2211 C 0.78262 0.69842 0.24661 0.0
N2212 N 0.78057 0.70592 0.34021 0.0
N2213 N 0.7771 0.7045 0.26845 0.0
H2214 H 0.37475 0.22613 0.29816 0.0
H2215 H 0.35493 0.12105 0.35143 0.0
H2216 H 0.34265 0.17243 0.25335 0.0
H2217 H 0.36613 0.16878 0.40366 0.0
H2218 H 0.3501 0.13952 0.31571 0.0
H2219 H 0.37112 0.20575 0.33704 0.0
C2220 C 0.3664 0.20997 0.29667 0.0
C2221 C 0.35871 0.201 0.27245 0.0
C2222 C 0.35336 0.14592 0.33499 0.0
C2223 C 0.35525 0.17746 0.31694 0.0
C2224 C 0.3562 0.13539 0.35549 0.0
C2225 C 0.36101 0.14333 0.38075 0.0
C2226 C 0.35578 0.16491 0.33934 0.0
C2227 C 0.36235 0.16198 0.38464 0.0
C2228 C 0.36445 0.19833 0.3189 0.0
C2229 C 0.34844 0.17999 0.27164 0.0
N2230 N 0.36008 0.17225 0.36412 0.0
N2231 N 0.34733 0.169 0.29339 0.0
H2232 H 0.93462 0.24141 0.29738 0.0
H2233 H 0.93466 0.32078 0.39722 0.0
H2234 H 0.89068 0.26238 0.29572 0.0
H2235 H 0.97826 0.29945 0.40078 0.0
H2236 H 0.91729 0.29803 0.3614 0.0
H2237 H 0.94976 0.26107 0.33656 0.0
C2238 C 0.92805 0.25001 0.3053 0.0
C2239 C 0.91144 0.25034 0.29299 0.0
C2240 C 0.93058 0.29822 0.37008 0.0
C2241 C 0.9288 0.27302 0.33781 0.0
C2242 C 0.9405 0.3112 0.3906 0.0
C2243 C 0.95799 0.31209 0.40197 0.0
C2244 C 0.93824 0.28604 0.36072 0.0
C2245 C 0.96483 0.29929 0.39257 0.0
C2246 C 0.93676 0.26131 0.32764 0.0
C2247 C 0.90371 0.26194 0.30412 0.0
N2248 N 0.95502 0.28688 0.3724 0.0
N2249 N 0.91247 0.27282 0.32578 0.0
H2250 H 0.33396 0.23012 0.77175 0.0
H2251 H 0.3802 0.31024 0.88766 0.0
H2252 H 0.39863 0.26404 0.79131 0.0
H2253 H 0.31489 0.26784 0.88223 0.0
H2254 H 0.38663 0.29468 0.85005 0.0
H2255 H 0.3259 0.24472 0.8098 0.0
C2256 C 0.34643 0.24052 0.78393 0.0
C2257 C 0.36702 0.24569 0.77811 0.0
C2258 C 0.37086 0.28871 0.85709 0.0
C2259 C 0.35795 0.26268 0.82156 0.0
C2260 C 0.36718 0.29765 0.87867 0.0
C2261 C 0.34697 0.29041 0.88848 0.0
C2262 C 0.35425 0.27243 0.84473 0.0
C2263 C 0.33078 0.27397 0.87564 0.0
C2264 C 0.34184 0.24887 0.80568 0.0
C2265 C 0.38249 0.25939 0.79476 0.0
N2266 N 0.33474 0.26564 0.85449 0.0
N2267 N 0.37767 0.26735 0.81539 0.0
H2268 H 0.86245 0.1928 0.81031 0.0
H2269 H 0.77166 0.09925 0.88506 0.0
H2270 H 0.81837 0.14096 0.76849 0.0
H2271 H 0.78753 0.15925 0.90596 0.0
H2272 H 0.79445 0.11283 0.84645 0.0
H2273 H 0.84079 0.17919 0.85008 0.0
C2274 C 0.84834 0.17844 0.80965 0.0
C2275 C 0.84215 0.16791 0.78621 0.0
C2276 C 0.793 0.12298 0.8596 0.0
C2277 C 0.81757 0.15225 0.83142 0.0
C2278 C 0.78013 0.1153 0.88169 0.0
C2279 C 0.77773 0.12816 0.89876 0.0
C2280 C 0.80401 0.14372 0.8549 0.0
C2281 C 0.78891 0.14883 0.89326 0.0
C2282 C 0.83596 0.17079 0.8322 0.0
C2283 C 0.8236 0.14949 0.78622 0.0
N2284 N 0.80173 0.15601 0.87191 0.0
N2285 N 0.81204 0.14213 0.80854 0.0
H2286 H 0.91346 0.77451 0.79047 0.0
H2287 H 0.96182 0.7126 0.85615 0.0
H2288 H 0.91865 0.72791 0.751 0.0
H2289 H 0.96859 0.76732 0.88753 0.0
H2290 H 0.94341 0.71623 0.81903 0.0
H2291 H 0.93146 0.77058 0.82763 0.0
C2292 C 0.91842 0.76352 0.78946 0.0
C2293 C 0.91439 0.75151 0.7674 0.0
C2294 C 0.94894 0.72743 0.83407 0.0
C2295 C 0.93483 0.74674 0.81025 0.0
C2296 C 0.9594 0.72533 0.85532 0.0
C2297 C 0.96684 0.73968 0.87505 0.0
C2298 C 0.94572 0.74389 0.8326 0.0
C2299 C 0.96324 0.75589 0.87281 0.0
C2300 C 0.92864 0.76122 0.81081 0.0
C2301 C 0.92102 0.73731 0.7676 0.0
N2302 N 0.95293 0.75753 0.85205 0.0
N2303 N 0.93085 0.73531 0.78866 0.0
H2304 H 0.89339 0.72001 0.09888 0.0
H2305 H 0.93239 0.68754 0.97291 0.0
H2306 H 0.8518 0.66932 0.05286 0.0
H2307 H 0.96551 0.74605 1.00719 0.0
H2308 H 0.9039 0.67847 1.00433 0.0
H2309 H 0.92103 0.72755 0.06777 0.0
C2310 C 0.88988 0.71054 0.08209 0.0
C2311 C 0.86993 0.69415 0.07838 0.0
C2312 C 0.91743 0.69327 1.00489 0.0
C2313 C 0.90211 0.70258 0.04268 0.0
C2314 C 0.93373 0.69845 0.98707 0.0
C2315 C 0.9514 0.71763 0.98733 0.0
C2316 C 0.91892 0.70728 0.02331 0.0
C2317 C 0.95221 0.73115 1.00608 0.0
C2318 C 0.90584 0.71482 0.06435 0.0
C2319 C 0.86686 0.68209 0.05657 0.0
N2320 N 0.93627 0.72569 0.0233 0.0
N2321 N 0.88277 0.68655 0.03951 0.0
H2322 H 0.36102 0.28329 0.1484 0.0
H2323 H 0.32432 0.26326 1.00099 0.0
H2324 H 0.33965 0.22522 0.11493 0.0
H2325 H 0.37057 0.3214 0.02737 0.0
H2326 H 0.32646 0.24853 0.04279 0.0
H2327 H 0.36075 0.29678 0.10526 0.0
C2328 C 0.35605 0.27323 0.13205 0.0
C2329 C 0.35021 0.25292 0.13564 0.0
C2330 C 0.33629 0.26447 0.03933 0.0
C2331 C 0.34987 0.2686 0.08551 0.0
C2332 C 0.3351 0.27294 0.01544 0.0
C2333 C 0.34736 0.29369 0.0104 0.0
C2334 C 0.34945 0.27681 0.05886 0.0
C2335 C 0.36095 0.30537 0.03009 0.0
C2336 C 0.35609 0.28108 0.10726 0.0
C2337 C 0.3442 0.2409 0.1133 0.0
N2338 N 0.3614 0.29684 0.05345 0.0
N2339 N 0.344 0.24885 0.0893 0.0
H2340 H 0.85032 0.16029 0.11729 0.0
H2341 H 0.76557 0.15664 0.01871 0.0
H2342 H 0.82412 0.19902 0.12237 0.0
H2343 H 0.78372 0.11149 0.02144 0.0
H2344 H 0.78822 0.17325 0.05536 0.0
H2345 H 0.82737 0.14312 0.08086 0.0
C2346 C 0.83978 0.1652 0.11076 0.0
C2347 C 0.83915 0.1811 0.12303 0.0
C2348 C 0.78724 0.15969 0.04797 0.0
C2349 C 0.8128 0.16152 0.08129 0.0
C2350 C 0.77433 0.15021 0.02694 0.0
C2351 C 0.77268 0.13259 0.01684 0.0
C2352 C 0.79878 0.15165 0.05899 0.0
C2353 C 0.78441 0.12499 0.02853 0.0
C2354 C 0.8266 0.15533 0.09003 0.0
C2355 C 0.82499 0.18668 0.11383 0.0
N2356 N 0.79699 0.13458 0.04889 0.0
N2357 N 0.81248 0.17698 0.09351 0.0
loop_
_geom_bond_atom_site_label_1
_geom_bond_atom_site_label_2
_geom_bond_distance
_geom_bond_site_symmetry_2
_ccdc_geom_bond_type
Cu0 N1 1.999 . S
Cu0 O6 1.974 1_554 S
Cu0 N11 1.985 1_554 S
Cu0 O20 1.959 . S
N1 Cu0 1.999 . S
N1 C3 1.263 . S
N1 C5 1.389 . S
N2 C3 1.358 . S
N2 C4 1.400 . S
C3 N1 1.263 . S
C3 N2 1.358 . S
C3 H9 0.930 . S
C4 N2 1.400 . S
C4 C5 1.351 . S
C4 H21 0.930 . S
C5 N1 1.389 . S
C5 C4 1.351 . S
C5 H10 0.930 . S
O6 Cu0 1.974 1_556 S
O6 C16 1.282 . S
C7 O8 1.261 . S
C7 O20 1.251 . S
O8 C7 1.261 . S
H9 C3 0.930 . S
H10 C5 0.930 . S
N11 Cu0 1.985 1_556 S
N11 C13 1.335 . S
N11 C14 1.390 . S
N12 C13 1.345 . S
N12 C15 1.336 . S
C13 N11 1.335 . S
C13 N12 1.345 . S
C13 H18 0.930 . S
C14 N11 1.390 . S
C14 C15 1.346 . S
C14 H19 0.930 . S
C15 N12 1.336 . S
C15 C14 1.346 . S
C15 H22 0.929 . S
C16 O6 1.282 . S
C16 O17 1.216 . S
O17 C16 1.216 . S
H18 C13 0.930 . S
H19 C14 0.930 . S
O20 Cu0 1.959 . S
O20 C7 1.251 . S
H21 C4 0.930 . S
H22 C15 0.929 . S
Cu23 N24 1.999 1_554 S
Cu23 O29 1.974 . S
Cu23 N34 1.985 . S
Cu23 O43 1.959 1_554 S
N24 Cu23 1.999 1_556 S
N24 C26 1.263 . S
N24 C28 1.389 . S
N25 C26 1.358 . S
N25 C27 1.400 . S
C26 N24 1.263 . S
C26 N25 1.358 . S
C26 H32 0.930 . S
C27 N25 1.400 . S
C27 C28 1.351 . S
C27 H44 0.930 . S
C28 N24 1.389 . S
C28 C27 1.351 . S
C28 H33 0.930 . S
O29 Cu23 1.974 . S
O29 C39 1.282 . S
C30 O31 1.261 1_556 S
C30 O43 1.251 . S
O31 C30 1.261 1_554 S
H32 C26 0.930 . S
H33 C28 0.930 . S
N34 Cu23 1.985 . S
N34 C36 1.335 . S
N34 C37 1.390 . S
N35 C36 1.345 . S
N35 C38 1.336 . S
C36 N34 1.335 . S
C36 N35 1.345 . S
C36 H41 0.930 . S
C37 N34 1.390 . S
C37 C38 1.346 . S
C37 H42 0.930 . S
C38 N35 1.336 . S
C38 C37 1.346 . S
C38 H45 0.929 . S
C39 O29 1.282 . S
C39 O40 1.216 . S
O40 C39 1.216 . S
H41 C36 0.930 . S
H42 C37 0.930 . S
O43 Cu23 1.959 1_556 S
O43 C30 1.251 . S
H44 C27 0.930 . S
H45 C38 0.929 . S
Cu46 N47 1.999 1_554 S
Cu46 O52 1.974 . S
Cu46 N57 1.985 1_565 S
Cu46 O66 1.974 1_565 S
N47 Cu46 1.999 1_556 S
N47 C49 1.263 . S
N47 C51 1.389 . S
N48 C49 1.358 . S
N48 C50 1.400 . S
C49 N47 1.263 . S
C49 N48 1.358 . S
C49 H55 0.930 1_565 S
C50 N48 1.400 . S
C50 C51 1.351 . S
C50 H67 0.930 . S
C51 N47 1.389 . S
C51 C50 1.351 . S
C51 H56 0.930 . S
O52 Cu46 1.974 . S
O52 C62 1.282 1_565 S
C53 O54 1.261 . S
C53 O66 1.284 . S
O54 C53 1.261 . S
H55 C49 0.930 1_545 S
H56 C51 0.930 . S
N57 Cu46 1.985 1_545 S
N57 C59 1.315 1_545 S
N57 C60 1.407 . S
N58 C59 1.345 1_545 S
N58 C61 1.336 . S
C59 N57 1.315 1_565 S
C59 N58 1.345 1_565 S
C59 H64 0.930 . S
C60 N57 1.407 . S
C60 C61 1.346 . S
C60 H65 0.930 . S
C61 N58 1.336 . S
C61 C60 1.346 . S
C61 H68 0.929 . S
C62 O52 1.282 1_545 S
C62 O63 1.216 . S
O63 C62 1.216 . S
H64 C59 0.930 . S
H65 C60 0.930 . S
O66 Cu46 1.974 1_545 S
O66 C53 1.284 . S
H67 C50 0.930 . S
H68 C61 0.929 . S
Cu69 N70 1.999 . S
Cu69 O75 1.974 . S
Cu69 N80 1.985 . S
Cu69 O89 1.959 . S
N70 Cu69 1.999 . S
N70 C72 1.263 . S
N70 C74 1.389 . S
N71 C72 1.358 . S
N71 C73 1.400 . S
C72 N70 1.263 . S
C72 N71 1.358 . S
C72 H78 0.930 . S
C73 N71 1.400 . S
C73 C74 1.351 . S
C73 H90 0.930 . S
C74 N70 1.389 . S
C74 C73 1.351 . S
C74 H79 0.930 . S
O75 Cu69 1.974 . S
O75 C85 1.282 . S
C76 O77 1.261 . S
C76 O89 1.251 . S
O77 C76 1.261 . S
H78 C72 0.930 . S
H79 C74 0.930 . S
N80 Cu69 1.985 . S
N80 C82 1.335 . S
N80 C83 1.390 . S
N81 C82 1.345 . S
N81 C84 1.336 . S
C82 N80 1.335 . S
C82 N81 1.345 . S
C82 H87 0.930 . S
C83 N80 1.390 . S
C83 C84 1.346 . S
C83 H88 0.930 . S
C84 N81 1.336 . S
C84 C83 1.346 . S
C84 H91 0.929 . S
C85 O75 1.282 . S
C85 O86 1.216 1_545 S
O86 C85 1.216 1_565 S
H87 C82 0.930 . S
H88 C83 0.930 . S
O89 Cu69 1.959 . S
O89 C76 1.251 . S
H90 C73 0.930 . S
H91 C84 0.929 . S
Cu92 N93 1.999 . S
Cu92 O98 1.974 . S
Cu92 N103 1.985 . S
Cu92 O112 1.959 . S
N93 Cu92 1.999 . S
N93 C95 1.263 . S
N93 C97 1.389 . S
N94 C95 1.358 . S
N94 C96 1.400 . S
C95 N93 1.263 . S
C95 N94 1.358 . S
C95 H101 0.930 . S
C96 N94 1.400 . S
C96 C97 1.351 . S
C96 H113 0.930 . S
C97 N93 1.389 . S
C97 C96 1.351 . S
C97 H102 0.930 . S
O98 Cu92 1.974 . S
O98 C108 1.282 . S
C99 O100 1.261 . S
C99 O112 1.251 . S
O100 C99 1.261 . S
H101 C95 0.930 . S
H102 C97 0.930 . S
N103 Cu92 1.985 . S
N103 C105 1.335 . S
N103 C106 1.390 . S
N104 C105 1.345 . S
N104 C107 1.336 . S
C105 N103 1.335 . S
C105 N104 1.345 . S
C105 H110 0.930 . S
C106 N103 1.390 . S
C106 C107 1.346 . S
C106 H111 0.930 . S
C107 N104 1.336 . S
C107 C106 1.346 . S
C107 H114 0.929 . S
C108 O98 1.282 . S
C108 O109 1.216 . S
O109 C108 1.216 . S
H110 C105 0.930 . S
H111 C106 0.930 . S
O112 Cu92 1.959 . S
O112 C99 1.251 . S
H113 C96 0.930 . S
H114 C107 0.929 . S
Cu115 N116 1.999 . S
Cu115 O121 1.974 . S
Cu115 N126 1.985 . S
Cu115 O135 1.959 . S
N116 Cu115 1.999 . S
N116 C118 1.263 . S
N116 C120 1.389 . S
N117 C118 1.358 . S
N117 C119 1.400 . S
C118 N116 1.263 . S
C118 N117 1.358 . S
C118 H124 0.930 . S
C119 N117 1.400 . S
C119 C120 1.351 . S
C119 H136 0.930 . S
C120 N116 1.389 . S
C120 C119 1.351 . S
C120 H125 0.930 . S
O121 Cu115 1.974 . S
O121 C131 1.282 . S
C122 O123 1.261 . S
C122 O135 1.251 . S
O123 C122 1.261 . S
H124 C118 0.930 . S
H125 C120 0.930 . S
N126 Cu115 1.985 . S
N126 C128 1.335 . S
N126 C129 1.390 . S
N127 C128 1.345 . S
N127 C130 1.336 . S
C128 N126 1.335 . S
C128 N127 1.345 . S
C128 H133 0.930 . S
C129 N126 1.390 . S
C129 C130 1.346 . S
C129 H134 0.930 . S
C130 N127 1.336 . S
C130 C129 1.346 . S
C130 H137 0.929 . S
C131 O121 1.282 . S
C131 O132 1.216 . S
O132 C131 1.216 . S
H133 C128 0.930 . S
H134 C129 0.930 . S
O135 Cu115 1.959 . S
O135 C122 1.251 . S
H136 C119 0.930 . S
H137 C130 0.929 . S
Cu138 N139 1.999 . S
Cu138 O144 1.974 . S
Cu138 N149 1.985 . S
Cu138 O158 1.959 . S
N139 Cu138 1.999 . S
N139 C141 1.263 . S
N139 C143 1.389 . S
N140 C141 1.358 . S
N140 C142 1.400 . S
C141 N139 1.263 . S
C141 N140 1.358 . S
C141 H147 0.930 . S
C142 N140 1.400 . S
C142 C143 1.351 . S
C142 H159 0.930 . S
C143 N139 1.389 . S
C143 C142 1.351 . S
C143 H148 0.930 . S
O144 Cu138 1.974 . S
O144 C154 1.282 . S
C145 O146 1.261 . S
C145 O158 1.251 . S
O146 C145 1.261 . S
H147 C141 0.930 . S
H148 C143 0.930 . S
N149 Cu138 1.985 . S
N149 C151 1.335 . S
N149 C152 1.390 . S
N150 C151 1.345 . S
N150 C153 1.336 . S
C151 N149 1.335 . S
C151 N150 1.345 . S
C151 H156 0.930 . S
C152 N149 1.390 . S
C152 C153 1.346 . S
C152 H157 0.930 . S
C153 N150 1.336 . S
C153 C152 1.346 . S
C153 H160 0.929 . S
C154 O144 1.282 . S
C154 O155 1.216 . S
O155 C154 1.216 . S
H156 C151 0.930 . S
H157 C152 0.930 . S
O158 Cu138 1.959 . S
O158 C145 1.251 . S
H159 C142 0.930 . S
H160 C153 0.929 . S
Cu161 N162 1.999 . S
Cu161 O167 1.974 . S
Cu161 N172 1.985 . S
Cu161 O181 1.959 . S
N162 Cu161 1.999 . S
N162 C164 1.263 . S
N162 C166 1.389 . S
N163 C164 1.358 . S
N163 C165 1.400 . S
C164 N162 1.263 . S
C164 N163 1.358 . S
C164 H170 0.930 . S
C165 N163 1.400 . S
C165 C166 1.351 . S
C165 H182 0.930 . S
C166 N162 1.389 . S
C166 C165 1.351 . S
C166 H171 0.930 . S
O167 Cu161 1.974 . S
O167 C177 1.282 . S
C168 O169 1.261 . S
C168 O181 1.251 . S
O169 C168 1.261 . S
H170 C164 0.930 . S
H171 C166 0.930 . S
N172 Cu161 1.985 . S
N172 C174 1.335 . S
N172 C175 1.390 . S
N173 C174 1.345 . S
N173 C176 1.336 . S
C174 N172 1.335 . S
C174 N173 1.345 . S
C174 H179 0.930 . S
C175 N172 1.390 . S
C175 C176 1.346 . S
C175 H180 0.930 . S
C176 N173 1.336 . S
C176 C175 1.346 . S
C176 H183 0.929 . S
C177 O167 1.282 . S
C177 O178 1.216 . S
O178 C177 1.216 . S
H179 C174 0.930 . S
H180 C175 0.930 . S
O181 Cu161 1.959 . S
O181 C168 1.251 . S
H182 C165 0.930 . S
H183 C176 0.929 . S
Cu184 N185 1.999 . S
Cu184 O190 1.974 . S
Cu184 N195 1.985 . S
Cu184 O204 1.959 . S
N185 Cu184 1.999 . S
N185 C187 1.263 . S
N185 C189 1.389 . S
N186 C187 1.358 . S
N186 C188 1.400 . S
C187 N185 1.263 . S
C187 N186 1.358 . S
C187 H193 0.930 . S
C188 N186 1.400 . S
C188 C189 1.351 . S
C188 H205 0.930 . S
C189 N185 1.389 . S
C189 C188 1.351 . S
C189 H194 0.930 . S
O190 Cu184 1.974 . S
O190 C200 1.282 . S
C191 O192 1.261 . S
C191 O204 1.251 . S
O192 C191 1.261 . S
H193 C187 0.930 . S
H194 C189 0.930 . S
N195 Cu184 1.985 . S
N195 C197 1.335 . S
N195 C198 1.390 . S
N196 C197 1.345 . S
N196 C199 1.336 . S
C197 N195 1.335 . S
C197 N196 1.345 . S
C197 H202 0.930 . S
C198 N195 1.390 . S
C198 C199 1.346 . S
C198 H203 0.930 . S
C199 N196 1.336 . S
C199 C198 1.346 . S
C199 H206 0.929 . S
C200 O190 1.282 . S
C200 O201 1.216 . S
O201 C200 1.216 . S
H202 C197 0.930 . S
H203 C198 0.930 . S
O204 Cu184 1.959 . S
O204 C191 1.251 . S
H205 C188 0.930 . S
H206 C199 0.929 . S
Cu207 N208 1.999 . S
Cu207 O213 1.974 . S
Cu207 N218 1.985 . S
Cu207 O227 1.959 . S
N208 Cu207 1.999 . S
N208 C210 1.263 . S
N208 C212 1.389 . S
N209 C210 1.358 . S
N209 C211 1.400 . S
C210 N208 1.263 . S
C210 N209 1.358 . S
C210 H216 0.930 . S
C211 N209 1.400 . S
C211 C212 1.351 . S
C211 H228 0.930 . S
C212 N208 1.389 . S
C212 C211 1.351 . S
C212 H217 0.930 . S
O213 Cu207 1.974 . S
O213 C223 1.282 . S
C214 O215 1.261 . S
C214 O227 1.251 . S
O215 C214 1.261 . S
H216 C210 0.930 . S
H217 C212 0.930 . S
N218 Cu207 1.985 . S
N218 C220 1.335 . S
N218 C221 1.390 . S
N219 C220 1.345 . S
N219 C222 1.336 . S
C220 N218 1.335 . S
C220 N219 1.345 . S
C220 H225 0.930 . S
C221 N218 1.390 . S
C221 C222 1.346 . S
C221 H226 0.930 . S
C222 N219 1.336 . S
C222 C221 1.346 . S
C222 H229 0.929 . S
C223 O213 1.282 . S
C223 O224 1.216 . S
O224 C223 1.216 . S
H225 C220 0.930 . S
H226 C221 0.930 . S
O227 Cu207 1.959 . S
O227 C214 1.251 . S
H228 C211 0.930 . S
H229 C222 0.929 . S
Cu230 N231 1.999 . S
Cu230 O236 1.974 . S
Cu230 N241 1.985 . S
Cu230 O250 1.959 . S
N231 Cu230 1.999 . S
N231 C233 1.263 . S
N231 C235 1.389 . S
N232 C233 1.358 . S
N232 C234 1.400 . S
C233 N231 1.263 . S
C233 N232 1.358 . S
C233 H239 0.930 . S
C234 N232 1.400 . S
C234 C235 1.351 . S
C234 H251 0.930 . S
C235 N231 1.389 . S
C235 C234 1.351 . S
C235 H240 0.930 . S
O236 Cu230 1.974 . S
O236 C246 1.282 . S
C237 O238 1.261 . S
C237 O250 1.251 . S
O238 C237 1.261 . S
H239 C233 0.930 . S
H240 C235 0.930 . S
N241 Cu230 1.985 . S
N241 C243 1.335 . S
N241 C244 1.390 . S
N242 C243 1.345 . S
N242 C245 1.336 . S
C243 N241 1.335 . S
C243 N242 1.345 . S
C243 H248 0.930 . S
C244 N241 1.390 . S
C244 C245 1.346 . S
C244 H249 0.930 . S
C245 N242 1.336 . S
C245 C244 1.346 . S
C245 H252 0.929 . S
C246 O236 1.282 . S
C246 O247 1.216 . S
O247 C246 1.216 . S
H248 C243 0.930 . S
H249 C244 0.930 . S
O250 Cu230 1.959 . S
O250 C237 1.251 . S
H251 C234 0.930 . S
H252 C245 0.929 . S
Cu253 N254 1.999 . S
Cu253 O259 1.974 . S
Cu253 N264 1.985 . S
Cu253 O273 1.959 . S
N254 Cu253 1.999 . S
N254 C256 1.263 . S
N254 C258 1.389 . S
N255 C256 1.358 . S
N255 C257 1.400 . S
C256 N254 1.263 . S
C256 N255 1.358 . S
C256 H262 0.930 . S
C257 N255 1.400 . S
C257 C258 1.351 . S
C257 H274 0.930 . S
C258 N254 1.389 . S
C258 C257 1.351 . S
C258 H263 0.930 . S
O259 Cu253 1.974 . S
O259 C269 1.282 . S
C260 O261 1.261 . S
C260 O273 1.251 . S
O261 C260 1.261 . S
H262 C256 0.930 . S
H263 C258 0.930 . S
N264 Cu253 1.985 . S
N264 C266 1.335 . S
N264 C267 1.390 . S
N265 C266 1.345 . S
N265 C268 1.336 . S
C266 N264 1.335 . S
C266 N265 1.345 . S
C266 H271 0.930 . S
C267 N264 1.390 . S
C267 C268 1.346 . S
C267 H272 0.930 . S
C268 N265 1.336 . S
C268 C267 1.346 . S
C268 H275 0.929 . S
C269 O259 1.282 . S
C269 O270 1.216 . S
O270 C269 1.216 . S
H271 C266 0.930 . S
H272 C267 0.930 . S
O273 Cu253 1.959 . S
O273 C260 1.251 . S
H274 C257 0.930 . S
H275 C268 0.929 . S
Cu276 N277 1.999 . S
Cu276 O282 1.974 . S
Cu276 N287 1.985 . S
Cu276 O296 1.959 . S
N277 Cu276 1.999 . S
N277 C279 1.263 . S
N277 C281 1.389 . S
N278 C279 1.358 . S
N278 C280 1.400 . S
C279 N277 1.263 . S
C279 N278 1.358 . S
C279 H285 0.930 . S
C280 N278 1.400 . S
C280 C281 1.351 . S
C280 H297 0.930 . S
C281 N277 1.389 . S
C281 C280 1.351 . S
C281 H286 0.930 . S
O282 Cu276 1.974 . S
O282 C292 1.282 . S
C283 O284 1.261 . S
C283 O296 1.251 . S
O284 C283 1.261 . S
H285 C279 0.930 . S
H286 C281 0.930 . S
N287 Cu276 1.985 . S
N287 C289 1.335 . S
N287 C290 1.390 . S
N288 C289 1.345 . S
N288 C291 1.336 . S
C289 N287 1.335 . S
C289 N288 1.345 . S
C289 H294 0.930 . S
C290 N287 1.390 . S
C290 C291 1.346 . S
C290 H295 0.930 . S
C291 N288 1.336 . S
C291 C290 1.346 . S
C291 H298 0.929 . S
C292 O282 1.282 . S
C292 O293 1.216 . S
O293 C292 1.216 . S
H294 C289 0.930 . S
H295 C290 0.930 . S
O296 Cu276 1.959 . S
O296 C283 1.251 . S
H297 C280 0.930 . S
H298 C291 0.929 . S
Cu299 N300 1.999 . S
Cu299 O305 1.974 . S
Cu299 N310 1.985 . S
Cu299 O319 1.959 . S
N300 Cu299 1.999 . S
N300 C302 1.263 . S
N300 C304 1.389 . S
N301 C302 1.358 . S
N301 C303 1.400 . S
C302 N300 1.263 . S
C302 N301 1.358 . S
C302 H308 0.930 . S
C303 N301 1.400 . S
C303 C304 1.351 . S
C303 H320 0.930 . S
C304 N300 1.389 . S
C304 C303 1.351 . S
C304 H309 0.930 . S
O305 Cu299 1.974 . S
O305 C315 1.282 . S
C306 O307 1.261 . S
C306 O319 1.251 . S
O307 C306 1.261 . S
H308 C302 0.930 . S
H309 C304 0.930 . S
N310 Cu299 1.985 . S
N310 C312 1.335 . S
N310 C313 1.390 . S
N311 C312 1.345 . S
N311 C314 1.336 . S
C312 N310 1.335 . S
C312 N311 1.345 . S
C312 H317 0.930 . S
C313 N310 1.390 . S
C313 C314 1.346 . S
C313 H318 0.930 . S
C314 N311 1.336 . S
C314 C313 1.346 . S
C314 H321 0.929 . S
C315 O305 1.282 . S
C315 O316 1.216 . S
O316 C315 1.216 . S
H317 C312 0.930 . S
H318 C313 0.930 . S
O319 Cu299 1.959 . S
O319 C306 1.251 . S
H320 C303 0.930 . S
H321 C314 0.929 . S
Cu322 N323 1.999 . S
Cu322 O328 1.974 . S
Cu322 N333 1.985 . S
Cu322 O342 1.959 . S
N323 Cu322 1.999 . S
N323 C325 1.263 . S
N323 C327 1.389 . S
N324 C325 1.358 . S
N324 C326 1.400 . S
C325 N323 1.263 . S
C325 N324 1.358 . S
C325 H331 0.930 . S
C326 N324 1.400 . S
C326 C327 1.351 . S
C326 H343 0.930 . S
C327 N323 1.389 . S
C327 C326 1.351 . S
C327 H332 0.930 . S
O328 Cu322 1.974 . S
O328 C338 1.282 . S
C329 O330 1.261 . S
C329 O342 1.251 . S
O330 C329 1.261 . S
H331 C325 0.930 . S
H332 C327 0.930 . S
N333 Cu322 1.985 . S
N333 C335 1.335 . S
N333 C336 1.390 . S
N334 C335 1.345 . S
N334 C337 1.336 . S
C335 N333 1.335 . S
C335 N334 1.345 . S
C335 H340 0.930 . S
C336 N333 1.390 . S
C336 C337 1.346 . S
C336 H341 0.930 . S
C337 N334 1.336 . S
C337 C336 1.346 . S
C337 H344 0.929 . S
C338 O328 1.282 . S
C338 O339 1.216 . S
O339 C338 1.216 . S
H340 C335 0.930 . S
H341 C336 0.930 . S
O342 Cu322 1.959 . S
O342 C329 1.251 . S
H343 C326 0.930 . S
H344 C337 0.929 . S
Cu345 N346 1.999 . S
Cu345 O351 1.974 . S
Cu345 N356 1.985 . S
Cu345 O365 1.959 . S
N346 Cu345 1.999 . S
N346 C348 1.263 . S
N346 C350 1.389 . S
N347 C348 1.358 . S
N347 C349 1.400 . S
C348 N346 1.263 . S
C348 N347 1.358 . S
C348 H354 0.930 . S
C349 N347 1.400 . S
C349 C350 1.351 . S
C349 H366 0.930 . S
C350 N346 1.389 . S
C350 C349 1.351 . S
C350 H355 0.930 . S
O351 Cu345 1.974 . S
O351 C361 1.282 . S
C352 O353 1.261 . S
C352 O365 1.251 . S
O353 C352 1.261 . S
H354 C348 0.930 . S
H355 C350 0.930 . S
N356 Cu345 1.985 . S
N356 C358 1.335 . S
N356 C359 1.390 . S
N357 C358 1.345 . S
N357 C360 1.336 . S
C358 N356 1.335 . S
C358 N357 1.345 . S
C358 H363 0.930 . S
C359 N356 1.390 . S
C359 C360 1.346 . S
C359 H364 0.930 . S
C360 N357 1.336 . S
C360 C359 1.346 . S
C360 H367 0.929 . S
C361 O351 1.282 . S
C361 O362 1.216 . S
O362 C361 1.216 . S
H363 C358 0.930 . S
H364 C359 0.930 . S
O365 Cu345 1.959 . S
O365 C352 1.251 . S
H366 C349 0.930 . S
H367 C360 0.929 . S
Cu368 N369 1.999 . S
Cu368 O374 1.974 . S
Cu368 N379 1.985 . S
Cu368 O388 1.959 . S
N369 Cu368 1.999 . S
N369 C371 1.263 . S
N369 C373 1.389 . S
N370 C371 1.358 . S
N370 C372 1.400 . S
C371 N369 1.263 . S
C371 N370 1.358 . S
C371 H377 0.930 . S
C372 N370 1.400 . S
C372 C373 1.351 . S
C372 H389 0.930 . S
C373 N369 1.389 . S
C373 C372 1.351 . S
C373 H378 0.930 . S
O374 Cu368 1.974 . S
O374 C384 1.282 . S
C375 O376 1.261 . S
C375 O388 1.251 . S
O376 C375 1.261 . S
H377 C371 0.930 . S
H378 C373 0.930 . S
N379 Cu368 1.985 . S
N379 C381 1.335 . S
N379 C382 1.390 . S
N380 C381 1.345 . S
N380 C383 1.336 . S
C381 N379 1.335 . S
C381 N380 1.345 . S
C381 H386 0.930 . S
C382 N379 1.390 . S
C382 C383 1.346 . S
C382 H387 0.930 . S
C383 N380 1.336 . S
C383 C382 1.346 . S
C383 H390 0.929 . S
C384 O374 1.282 . S
C384 O385 1.216 . S
O385 C384 1.216 . S
H386 C381 0.930 . S
H387 C382 0.930 . S
O388 Cu368 1.959 . S
O388 C375 1.251 . S
H389 C372 0.930 . S
H390 C383 0.929 . S
Cu391 N392 1.999 . S
Cu391 O397 1.974 . S
Cu391 N402 1.985 . S
Cu391 O411 1.959 . S
N392 Cu391 1.999 . S
N392 C394 1.263 . S
N392 C396 1.389 . S
N393 C394 1.358 . S
N393 C395 1.400 . S
C394 N392 1.263 . S
C394 N393 1.358 . S
C394 H400 0.930 . S
C395 N393 1.400 . S
C395 C396 1.351 . S
C395 H412 0.930 . S
C396 N392 1.389 . S
C396 C395 1.351 . S
C396 H401 0.930 . S
O397 Cu391 1.974 . S
O397 C407 1.282 . S
C398 O399 1.261 . S
C398 O411 1.251 . S
O399 C398 1.261 . S
H400 C394 0.930 . S
H401 C396 0.930 . S
N402 Cu391 1.985 . S
N402 C404 1.335 . S
N402 C405 1.390 . S
N403 C404 1.345 . S
N403 C406 1.336 . S
C404 N402 1.335 . S
C404 N403 1.345 . S
C404 H409 0.930 . S
C405 N402 1.390 . S
C405 C406 1.346 . S
C405 H410 0.930 . S
C406 N403 1.336 . S
C406 C405 1.346 . S
C406 H413 0.929 . S
C407 O397 1.282 . S
C407 O408 1.216 . S
O408 C407 1.216 . S
H409 C404 0.930 . S
H410 C405 0.930 . S
O411 Cu391 1.959 . S
O411 C398 1.251 . S
H412 C395 0.930 . S
H413 C406 0.929 . S
Mn414 O419 2.095 . S
Mn414 O429 2.162 . S
Mn414 O430 2.297 . S
Mn414 O438 2.394 . S
Mn414 O439 2.209 1_455 S
Mn414 O440 2.094 . S
Mn415 O420 2.121 . S
Mn415 N422 2.257 . S
Mn415 N431 2.282 . S
Mn415 O439 2.215 . S
Mn415 O441 2.086 1_655 S
C416 O438 1.228 1_655 S
C416 O439 1.283 . S
C417 O429 1.281 . S
C417 O430 1.236 . S
C418 O440 1.240 . S
C418 O441 1.295 . S
O419 Mn414 2.095 . S
O419 C428 1.250 . S
O420 Mn415 2.121 . S
O420 C428 1.258 1_655 S
C421 N422 1.326 . S
C421 C425 1.460 . S
C421 H427 0.929 . S
N422 Mn415 2.257 . S
N422 C421 1.326 . S
N422 C426 1.362 . S
C423 C424 1.258 . S
C423 C426 1.431 . S
C423 C443 1.449 . S
C424 C423 1.258 . S
C424 C425 1.477 . S
C424 H444 0.931 . S
C425 C421 1.460 . S
C425 C424 1.477 . S
C425 H445 0.930 . S
C426 N422 1.362 . S
C426 C423 1.431 . S
C426 C436 1.476 . S
H427 C421 0.929 . S
C428 O419 1.250 . S
C428 O420 1.258 1_455 S
O429 Mn414 2.162 . S
O429 C417 1.281 . S
O430 Mn414 2.297 . S
O430 C417 1.236 . S
N431 Mn415 2.282 . S
N431 C432 1.328 . S
N431 C436 1.318 . S
C432 N431 1.328 . S
C432 C433 1.457 . S
C432 H437 0.929 . S
C433 C432 1.457 . S
C433 C434 1.291 . S
C433 H446 0.931 . S
C434 C433 1.291 . S
C434 C435 1.373 . S
C434 H447 0.929 . S
C435 C434 1.373 . S
C435 C436 1.396 . S
C435 C442 1.403 . S
C436 C426 1.476 . S
C436 N431 1.318 . S
C436 C435 1.396 . S
H437 C432 0.929 . S
O438 Mn414 2.394 . S
O438 C416 1.228 1_455 S
O439 Mn414 2.209 1_655 S
O439 Mn415 2.215 . S
O439 C416 1.283 . S
O440 Mn414 2.094 . S
O440 C418 1.240 . S
O441 Mn415 2.086 1_455 S
O441 C418 1.295 . S
C442 C435 1.403 . S
C442 C443 1.399 . S
C442 H448 0.929 . S
C443 C423 1.449 . S
C443 C442 1.399 . S
C443 H449 0.930 . S
H444 C424 0.931 . S
H445 C425 0.930 . S
H446 C433 0.931 . S
H447 C434 0.929 . S
H448 C442 0.929 . S
H449 C443 0.930 . S
Mn450 O455 2.095 . S
Mn450 O465 2.162 . S
Mn450 O466 2.297 . S
Mn450 O474 2.385 . S
Mn450 O475 2.209 . S
Mn450 O476 2.094 . S
Mn451 O456 2.121 . S
Mn451 N458 2.257 . S
Mn451 N467 2.282 . S
Mn451 O475 2.215 . S
Mn451 O477 2.117 . S
C452 O474 1.234 . S
C452 O475 1.283 . S
C453 O465 1.281 . S
C453 O466 1.236 . S
C454 O476 1.240 . S
C454 O477 1.264 . S
O455 Mn450 2.095 . S
O455 C464 1.250 . S
O456 Mn451 2.121 . S
O456 C464 1.258 . S
C457 N458 1.326 . S
C457 C461 1.460 . S
C457 H463 0.929 . S
N458 Mn451 2.257 . S
N458 C457 1.326 . S
N458 C462 1.362 . S
C459 C460 1.258 . S
C459 C462 1.431 . S
C459 C479 1.449 . S
C460 C459 1.258 . S
C460 C461 1.477 . S
C460 H480 0.931 . S
C461 C457 1.460 . S
C461 C460 1.477 . S
C461 H481 0.930 . S
C462 N458 1.362 . S
C462 C459 1.431 . S
C462 C472 1.476 . S
H463 C457 0.929 . S
C464 O455 1.250 . S
C464 O456 1.258 . S
O465 Mn450 2.162 . S
O465 C453 1.281 . S
O466 Mn450 2.297 . S
O466 C453 1.236 . S
N467 Mn451 2.282 . S
N467 C468 1.328 . S
N467 C472 1.318 . S
C468 N467 1.328 . S
C468 C469 1.457 . S
C468 H473 0.929 . S
C469 C468 1.457 . S
C469 C470 1.291 . S
C469 H482 0.931 . S
C470 C469 1.291 . S
C470 C471 1.373 . S
C470 H483 0.929 . S
C471 C470 1.373 . S
C471 C472 1.396 . S
C471 C478 1.403 . S
C472 C462 1.476 . S
C472 N467 1.318 . S
C472 C471 1.396 . S
H473 C468 0.929 . S
O474 Mn450 2.385 . S
O474 C452 1.234 . S
O475 Mn450 2.209 . S
O475 Mn451 2.215 . S
O475 C452 1.283 . S
O476 Mn450 2.094 . S
O476 C454 1.240 . S
O477 Mn451 2.117 . S
O477 C454 1.264 . S
C478 C471 1.403 . S
C478 C479 1.399 . S
C478 H484 0.929 . S
C479 C459 1.449 . S
C479 C478 1.399 . S
C479 H485 0.930 . S
H480 C460 0.931 . S
H481 C461 0.930 . S
H482 C469 0.931 . S
H483 C470 0.929 . S
H484 C478 0.929 . S
H485 C479 0.930 . S
Mn486 O491 2.095 . S
Mn486 O501 2.162 . S
Mn486 O502 2.297 . S
Mn486 O510 2.385 . S
Mn486 O511 2.209 . S
Mn486 O512 2.094 . S
Mn487 O492 2.121 . S
Mn487 N494 2.257 . S
Mn487 N503 2.282 . S
Mn487 O511 2.215 . S
Mn487 O513 2.117 . S
C488 O510 1.234 . S
C488 O511 1.283 . S
C489 O501 1.281 . S
C489 O502 1.236 . S
C490 O512 1.240 . S
C490 O513 1.264 . S
O491 Mn486 2.095 . S
O491 C500 1.250 . S
O492 Mn487 2.121 . S
O492 C500 1.258 . S
C493 N494 1.326 . S
C493 C497 1.460 . S
C493 H499 0.929 . S
N494 Mn487 2.257 . S
N494 C493 1.326 . S
N494 C498 1.362 . S
C495 C496 1.258 . S
C495 C498 1.431 . S
C495 C515 1.449 . S
C496 C495 1.258 . S
C496 C497 1.477 . S
C496 H516 0.931 . S
C497 C493 1.460 . S
C497 C496 1.477 . S
C497 H517 0.930 . S
C498 N494 1.362 . S
C498 C495 1.431 . S
C498 C508 1.476 . S
H499 C493 0.929 . S
C500 O491 1.250 . S
C500 O492 1.258 . S
O501 Mn486 2.162 . S
O501 C489 1.281 . S
O502 Mn486 2.297 . S
O502 C489 1.236 . S
N503 Mn487 2.282 . S
N503 C504 1.328 . S
N503 C508 1.318 . S
C504 N503 1.328 . S
C504 C505 1.457 . S
C504 H509 0.929 . S
C505 C504 1.457 . S
C505 C506 1.291 . S
C505 H518 0.931 . S
C506 C505 1.291 . S
C506 C507 1.373 . S
C506 H519 0.929 . S
C507 C506 1.373 . S
C507 C508 1.396 . S
C507 C514 1.403 . S
C508 C498 1.476 . S
C508 N503 1.318 . S
C508 C507 1.396 . S
H509 C504 0.929 . S
O510 Mn486 2.385 . S
O510 C488 1.234 . S
O511 Mn486 2.209 . S
O511 Mn487 2.215 . S
O511 C488 1.283 . S
O512 Mn486 2.094 . S
O512 C490 1.240 . S
O513 Mn487 2.117 . S
O513 C490 1.264 . S
C514 C507 1.403 . S
C514 C515 1.399 . S
C514 H520 0.929 . S
C515 C495 1.449 . S
C515 C514 1.399 . S
C515 H521 0.930 . S
H516 C496 0.931 . S
H517 C497 0.930 . S
H518 C505 0.931 . S
H519 C506 0.929 . S
H520 C514 0.929 . S
H521 C515 0.930 . S
Mn522 O527 2.095 . S
Mn522 O537 2.162 . S
Mn522 O538 2.297 . S
Mn522 O546 2.385 . S
Mn522 O547 2.209 . S
Mn522 O548 2.094 1_455 S
Mn523 O528 2.121 . S
Mn523 N530 2.257 . S
Mn523 N539 2.282 . S
Mn523 O547 2.215 . S
Mn523 O549 2.117 . S
C524 O546 1.234 . S
C524 O547 1.283 . S
C525 O537 1.281 . S
C525 O538 1.236 . S
C526 O548 1.240 . S
C526 O549 1.264 1_655 S
O527 Mn522 2.095 . S
O527 C536 1.250 . S
O528 Mn523 2.121 . S
O528 C536 1.258 . S
C529 N530 1.326 . S
C529 C533 1.460 . S
C529 H535 0.929 . S
N530 Mn523 2.257 . S
N530 C529 1.326 . S
N530 C534 1.362 . S
C531 C532 1.258 . S
C531 C534 1.431 . S
C531 C551 1.449 . S
C532 C531 1.258 . S
C532 C533 1.477 . S
C532 H552 0.931 . S
C533 C529 1.460 . S
C533 C532 1.477 . S
C533 H553 0.930 . S
C534 N530 1.362 . S
C534 C531 1.431 . S
C534 C544 1.476 . S
H535 C529 0.929 . S
C536 O527 1.250 . S
C536 O528 1.258 . S
O537 Mn522 2.162 . S
O537 C525 1.281 . S
O538 Mn522 2.297 . S
O538 C525 1.236 . S
N539 Mn523 2.282 . S
N539 C540 1.328 . S
N539 C544 1.318 . S
C540 N539 1.328 . S
C540 C541 1.457 . S
C540 H545 0.929 . S
C541 C540 1.457 . S
C541 C542 1.291 . S
C541 H554 0.931 . S
C542 C541 1.291 . S
C542 C543 1.373 . S
C542 H555 0.929 . S
C543 C542 1.373 . S
C543 C544 1.396 . S
C543 C550 1.403 . S
C544 C534 1.476 . S
C544 N539 1.318 . S
C544 C543 1.396 . S
H545 C540 0.929 . S
O546 Mn522 2.385 . S
O546 C524 1.234 . S
O547 Mn522 2.209 . S
O547 Mn523 2.215 . S
O547 C524 1.283 . S
O548 Mn522 2.094 1_655 S
O548 C526 1.240 . S
O549 Mn523 2.117 . S
O549 C526 1.264 1_455 S
C550 C543 1.403 . S
C550 C551 1.399 . S
C550 H556 0.929 . S
C551 C531 1.449 . S
C551 C550 1.399 . S
C551 H557 0.930 . S
H552 C532 0.931 . S
H553 C533 0.930 . S
H554 C541 0.931 . S
H555 C542 0.929 . S
H556 C550 0.929 . S
H557 C551 0.930 . S
Mn558 O563 2.095 . S
Mn558 O573 2.162 . S
Mn558 O574 2.297 . S
Mn558 O582 2.385 . S
Mn558 O583 2.209 . S
Mn558 O584 2.094 . S
Mn559 O564 2.121 . S
Mn559 N566 2.257 . S
Mn559 N575 2.282 . S
Mn559 O583 2.215 . S
Mn559 O585 2.117 . S
C560 O582 1.234 . S
C560 O583 1.283 . S
C561 O573 1.281 . S
C561 O574 1.236 . S
C562 O584 1.240 . S
C562 O585 1.264 . S
O563 Mn558 2.095 . S
O563 C572 1.250 . S
O564 Mn559 2.121 . S
O564 C572 1.258 . S
C565 N566 1.326 . S
C565 C569 1.460 . S
C565 H571 0.929 . S
N566 Mn559 2.257 . S
N566 C565 1.326 . S
N566 C570 1.362 . S
C567 C568 1.258 . S
C567 C570 1.431 . S
C567 C587 1.449 . S
C568 C567 1.258 . S
C568 C569 1.477 . S
C568 H588 0.931 . S
C569 C565 1.460 . S
C569 C568 1.477 . S
C569 H589 0.930 . S
C570 N566 1.362 . S
C570 C567 1.431 . S
C570 C580 1.476 . S
H571 C565 0.929 . S
C572 O563 1.250 . S
C572 O564 1.258 . S
O573 Mn558 2.162 . S
O573 C561 1.281 . S
O574 Mn558 2.297 . S
O574 C561 1.236 . S
N575 Mn559 2.282 . S
N575 C576 1.328 . S
N575 C580 1.318 . S
C576 N575 1.328 . S
C576 C577 1.457 . S
C576 H581 0.929 . S
C577 C576 1.457 . S
C577 C578 1.291 . S
C577 H590 0.931 . S
C578 C577 1.291 . S
C578 C579 1.373 . S
C578 H591 0.929 . S
C579 C578 1.373 . S
C579 C580 1.396 . S
C579 C586 1.403 . S
C580 C570 1.476 . S
C580 N575 1.318 . S
C580 C579 1.396 . S
H581 C576 0.929 . S
O582 Mn558 2.385 . S
O582 C560 1.234 . S
O583 Mn558 2.209 . S
O583 Mn559 2.215 . S
O583 C560 1.283 . S
O584 Mn558 2.094 . S
O584 C562 1.240 . S
O585 Mn559 2.117 . S
O585 C562 1.264 . S
C586 C579 1.403 . S
C586 C587 1.399 . S
C586 H592 0.929 . S
C587 C567 1.449 . S
C587 C586 1.399 . S
C587 H593 0.930 . S
H588 C568 0.931 . S
H589 C569 0.930 . S
H590 C577 0.931 . S
H591 C578 0.929 . S
H592 C586 0.929 . S
H593 C587 0.930 . S
Mn594 O599 2.095 . S
Mn594 O609 2.162 . S
Mn594 O610 2.297 . S
Mn594 O618 2.385 . S
Mn594 O619 2.209 . S
Mn594 O620 2.094 . S
Mn595 O600 2.121 . S
Mn595 N602 2.257 1_545 S
Mn595 N611 2.282 . S
Mn595 O619 2.215 . S
Mn595 O621 2.117 . S
C596 O618 1.234 . S
C596 O619 1.283 . S
C597 O609 1.281 . S
C597 O610 1.236 . S
C598 O620 1.240 . S
C598 O621 1.264 . S
O599 Mn594 2.095 . S
O599 C608 1.250 . S
O600 Mn595 2.121 . S
O600 C608 1.258 . S
C601 N602 1.326 . S
C601 C605 1.460 . S
C601 H607 0.929 . S
N602 Mn595 2.257 1_565 S
N602 C601 1.326 . S
N602 C606 1.362 . S
C603 C604 1.258 . S
C603 C606 1.431 . S
C603 C623 1.449 . S
C604 C603 1.258 . S
C604 C605 1.477 . S
C604 H624 0.931 . S
C605 C601 1.460 . S
C605 C604 1.477 . S
C605 H625 0.930 . S
C606 N602 1.362 . S
C606 C603 1.431 . S
C606 C616 1.476 . S
H607 C601 0.929 . S
C608 O599 1.250 . S
C608 O600 1.258 . S
O609 Mn594 2.162 . S
O609 C597 1.281 . S
O610 Mn594 2.297 . S
O610 C597 1.236 . S
N611 Mn595 2.282 . S
N611 C612 1.328 . S
N611 C616 1.318 1_545 S
C612 N611 1.328 . S
C612 C613 1.457 . S
C612 H617 0.929 . S
C613 C612 1.457 . S
C613 C614 1.291 1_545 S
C613 H626 0.931 . S
C614 C613 1.291 1_565 S
C614 C615 1.373 . S
C614 H627 0.929 . S
C615 C614 1.373 . S
C615 C616 1.396 . S
C615 C622 1.403 . S
C616 C606 1.476 . S
C616 N611 1.318 1_565 S
C616 C615 1.396 . S
H617 C612 0.929 . S
O618 Mn594 2.385 . S
O618 C596 1.234 . S
O619 Mn594 2.209 . S
O619 Mn595 2.215 . S
O619 C596 1.283 . S
O620 Mn594 2.094 . S
O620 C598 1.240 . S
O621 Mn595 2.117 . S
O621 C598 1.264 . S
C622 C615 1.403 . S
C622 C623 1.399 . S
C622 H628 0.929 . S
C623 C603 1.449 . S
C623 C622 1.399 . S
C623 H629 0.930 . S
H624 C604 0.931 . S
H625 C605 0.930 . S
H626 C613 0.931 . S
H627 C614 0.929 . S
H628 C622 0.929 . S
H629 C623 0.930 . S
Mn630 O635 2.095 1_545 S
Mn630 O645 2.162 . S
Mn630 O646 2.297 . S
Mn630 O654 2.385 . S
Mn630 O655 2.209 1_545 S
Mn630 O656 2.094 1_545 S
Mn631 O636 2.121 . S
Mn631 N638 2.257 . S
Mn631 N647 2.282 . S
Mn631 O655 2.215 . S
Mn631 O657 2.117 . S
C632 O654 1.252 . S
C632 O655 1.246 1_545 S
C633 O645 1.281 . S
C633 O646 1.236 . S
C634 O656 1.240 . S
C634 O657 1.264 . S
O635 Mn630 2.095 1_565 S
O635 C644 1.250 . S
O636 Mn631 2.121 . S
O636 C644 1.258 . S
C637 N638 1.326 . S
C637 C641 1.460 . S
C637 H643 0.929 . S
N638 Mn631 2.257 . S
N638 C637 1.326 . S
N638 C642 1.362 . S
C639 C640 1.258 . S
C639 C642 1.431 . S
C639 C659 1.449 . S
C640 C639 1.258 . S
C640 C641 1.477 . S
C640 H660 0.931 . S
C641 C637 1.460 . S
C641 C640 1.477 . S
C641 H661 0.930 . S
C642 N638 1.362 . S
C642 C639 1.431 . S
C642 C652 1.476 . S
H643 C637 0.929 . S
C644 O635 1.250 . S
C644 O636 1.258 . S
O645 Mn630 2.162 . S
O645 C633 1.281 . S
O646 Mn630 2.297 . S
O646 C633 1.236 . S
N647 Mn631 2.282 . S
N647 C648 1.328 . S
N647 C652 1.318 . S
C648 N647 1.328 . S
C648 C649 1.457 . S
C648 H653 0.929 . S
C649 C648 1.457 . S
C649 C650 1.291 . S
C649 H662 0.931 . S
C650 C649 1.291 . S
C650 C651 1.373 . S
C650 H663 0.929 . S
C651 C650 1.373 . S
C651 C652 1.396 . S
C651 C658 1.403 . S
C652 C642 1.476 . S
C652 N647 1.318 . S
C652 C651 1.396 . S
H653 C648 0.929 . S
O654 Mn630 2.385 . S
O654 C632 1.252 . S
O655 Mn630 2.209 1_565 S
O655 Mn631 2.215 . S
O655 C632 1.246 1_565 S
O656 Mn630 2.094 1_565 S
O656 C634 1.240 . S
O657 Mn631 2.117 . S
O657 C634 1.264 . S
C658 C651 1.403 . S
C658 C659 1.399 . S
C658 H664 0.929 . S
C659 C639 1.449 . S
C659 C658 1.399 . S
C659 H665 0.930 . S
H660 C640 0.931 . S
H661 C641 0.930 . S
H662 C649 0.931 . S
H663 C650 0.929 . S
H664 C658 0.929 . S
H665 C659 0.930 . S
Mn666 O671 2.095 . S
Mn666 O681 2.162 . S
Mn666 O682 2.297 . S
Mn666 O690 2.385 . S
Mn666 O691 2.209 . S
Mn666 O692 2.094 . S
Mn667 O672 2.121 . S
Mn667 N674 2.257 . S
Mn667 N683 2.282 . S
Mn667 O691 2.215 . S
Mn667 O693 2.117 . S
C668 O690 1.234 . S
C668 O691 1.283 . S
C669 O681 1.281 . S
C669 O682 1.236 . S
C670 O692 1.240 . S
C670 O693 1.264 . S
O671 Mn666 2.095 . S
O671 C680 1.250 . S
O672 Mn667 2.121 . S
O672 C680 1.258 . S
C673 N674 1.326 . S
C673 C677 1.460 . S
C673 H679 0.929 . S
N674 Mn667 2.257 . S
N674 C673 1.326 . S
N674 C678 1.362 . S
C675 C676 1.258 . S
C675 C678 1.431 1_655 S
C675 C695 1.449 . S
C676 C675 1.258 . S
C676 C677 1.477 1_655 S
C676 H696 0.931 . S
C677 C673 1.460 . S
C677 C676 1.477 1_455 S
C677 H697 0.930 . S
C678 N674 1.362 . S
C678 C675 1.431 1_455 S
C678 C688 1.476 . S
H679 C673 0.929 . S
C680 O671 1.250 . S
C680 O672 1.258 . S
O681 Mn666 2.162 . S
O681 C669 1.281 . S
O682 Mn666 2.297 . S
O682 C669 1.236 . S
N683 Mn667 2.282 . S
N683 C684 1.328 . S
N683 C688 1.318 . S
C684 N683 1.328 . S
C684 C685 1.457 . S
C684 H689 0.929 . S
C685 C684 1.457 . S
C685 C686 1.291 1_455 S
C685 H698 0.931 . S
C686 C685 1.291 1_655 S
C686 C687 1.373 . S
C686 H699 0.929 . S
C687 C686 1.373 . S
C687 C688 1.396 1_655 S
C687 C694 1.403 . S
C688 C678 1.476 . S
C688 N683 1.318 . S
C688 C687 1.396 1_455 S
H689 C684 0.929 . S
O690 Mn666 2.385 . S
O690 C668 1.234 . S
O691 Mn666 2.209 . S
O691 Mn667 2.215 . S
O691 C668 1.283 . S
O692 Mn666 2.094 . S
O692 C670 1.240 . S
O693 Mn667 2.117 . S
O693 C670 1.264 . S
C694 C687 1.403 . S
C694 C695 1.399 . S
C694 H700 0.929 . S
C695 C675 1.449 . S
C695 C694 1.399 . S
C695 H701 0.930 . S
H696 C676 0.931 . S
H697 C677 0.930 . S
H698 C685 0.931 . S
H699 C686 0.929 . S
H700 C694 0.929 . S
H701 C695 0.930 . S
Mn702 O707 2.095 . S
Mn702 O717 2.162 . S
Mn702 O718 2.297 . S
Mn702 O726 2.385 . S
Mn702 O727 2.209 . S
Mn702 O728 2.094 . S
Mn703 O708 2.121 . S
Mn703 N710 2.257 . S
Mn703 N719 2.282 . S
Mn703 O727 2.215 . S
Mn703 O729 2.117 . S
C704 O726 1.234 . S
C704 O727 1.283 . S
C705 O717 1.281 . S
C705 O718 1.236 . S
C706 O728 1.240 . S
C706 O729 1.264 . S
O707 Mn702 2.095 . S
O707 C716 1.250 . S
O708 Mn703 2.121 . S
O708 C716 1.258 . S
C709 N710 1.326 . S
C709 C713 1.460 . S
C709 H715 0.929 . S
N710 Mn703 2.257 . S
N710 C709 1.326 . S
N710 C714 1.362 . S
C711 C712 1.258 . S
C711 C714 1.431 . S
C711 C731 1.449 . S
C712 C711 1.258 . S
C712 C713 1.477 . S
C712 H732 0.931 . S
C713 C709 1.460 . S
C713 C712 1.477 . S
C713 H733 0.930 . S
C714 N710 1.362 . S
C714 C711 1.431 . S
C714 C724 1.476 . S
H715 C709 0.929 . S
C716 O707 1.250 . S
C716 O708 1.258 . S
O717 Mn702 2.162 . S
O717 C705 1.281 . S
O718 Mn702 2.297 . S
O718 C705 1.236 . S
N719 Mn703 2.282 . S
N719 C720 1.328 . S
N719 C724 1.318 . S
C720 N719 1.328 . S
C720 C721 1.457 . S
C720 H725 0.929 . S
C721 C720 1.457 . S
C721 C722 1.291 . S
C721 H734 0.931 . S
C722 C721 1.291 . S
C722 C723 1.373 . S
C722 H735 0.929 . S
C723 C722 1.373 . S
C723 C724 1.396 . S
C723 C730 1.403 . S
C724 C714 1.476 . S
C724 N719 1.318 . S
C724 C723 1.396 . S
H725 C720 0.929 . S
O726 Mn702 2.385 . S
O726 C704 1.234 . S
O727 Mn702 2.209 . S
O727 Mn703 2.215 . S
O727 C704 1.283 . S
O728 Mn702 2.094 . S
O728 C706 1.240 . S
O729 Mn703 2.117 . S
O729 C706 1.264 . S
C730 C723 1.403 . S
C730 C731 1.399 . S
C730 H736 0.929 . S
C731 C711 1.449 . S
C731 C730 1.399 . S
C731 H737 0.930 . S
H732 C712 0.931 . S
H733 C713 0.930 . S
H734 C721 0.931 . S
H735 C722 0.929 . S
H736 C730 0.929 . S
H737 C731 0.930 . S
Mn738 O743 2.095 . S
Mn738 O753 2.162 . S
Mn738 O754 2.297 . S
Mn738 O762 2.385 . S
Mn738 O763 2.209 . S
Mn738 O764 2.094 . S
Mn739 O744 2.121 . S
Mn739 N746 2.257 . S
Mn739 N755 2.282 . S
Mn739 O763 2.215 . S
Mn739 O765 2.117 . S
C740 O762 1.234 . S
C740 O763 1.283 . S
C741 O753 1.281 . S
C741 O754 1.236 . S
C742 O764 1.240 . S
C742 O765 1.264 . S
O743 Mn738 2.095 . S
O743 C752 1.250 . S
O744 Mn739 2.121 . S
O744 C752 1.258 . S
C745 N746 1.326 . S
C745 C749 1.460 . S
C745 H751 0.929 . S
N746 Mn739 2.257 . S
N746 C745 1.326 . S
N746 C750 1.362 . S
C747 C748 1.258 . S
C747 C750 1.431 . S
C747 C767 1.449 . S
C748 C747 1.258 . S
C748 C749 1.477 . S
C748 H768 0.931 . S
C749 C745 1.460 . S
C749 C748 1.477 . S
C749 H769 0.930 1_554 S
C750 N746 1.362 . S
C750 C747 1.431 . S
C750 C760 1.476 . S
H751 C745 0.929 . S
C752 O743 1.250 . S
C752 O744 1.258 . S
O753 Mn738 2.162 . S
O753 C741 1.281 . S
O754 Mn738 2.297 . S
O754 C741 1.236 . S
N755 Mn739 2.282 . S
N755 C756 1.328 . S
N755 C760 1.318 . S
C756 N755 1.328 . S
C756 C757 1.457 . S
C756 H761 0.929 . S
C757 C756 1.457 . S
C757 C758 1.291 . S
C757 H770 0.931 . S
C758 C757 1.291 . S
C758 C759 1.373 . S
C758 H771 0.929 . S
C759 C758 1.373 . S
C759 C760 1.396 . S
C759 C766 1.403 . S
C760 C750 1.476 . S
C760 N755 1.318 . S
C760 C759 1.396 . S
H761 C756 0.929 . S
O762 Mn738 2.385 . S
O762 C740 1.234 . S
O763 Mn738 2.209 . S
O763 Mn739 2.215 . S
O763 C740 1.283 . S
O764 Mn738 2.094 . S
O764 C742 1.240 . S
O765 Mn739 2.117 . S
O765 C742 1.264 . S
C766 C759 1.403 . S
C766 C767 1.399 . S
C766 H772 0.929 . S
C767 C747 1.449 . S
C767 C766 1.399 . S
C767 H773 0.930 . S
H768 C748 0.931 . S
H769 C749 0.930 1_556 S
H770 C757 0.931 . S
H771 C758 0.929 . S
H772 C766 0.929 . S
H773 C767 0.930 . S
Mn774 O779 2.095 . S
Mn774 O789 2.162 . S
Mn774 O790 2.297 . S
Mn774 O798 2.385 1_565 S
Mn774 O799 2.209 . S
Mn774 O800 2.094 1_565 S
Mn775 O780 2.121 1_545 S
Mn775 N782 2.257 1_545 S
Mn775 N791 2.282 . S
Mn775 O799 2.215 1_545 S
Mn775 O801 2.117 . S
C776 O798 1.234 1_565 S
C776 O799 1.283 . S
C777 O789 1.281 . S
C777 O790 1.236 . S
C778 O800 1.240 . S
C778 O801 1.264 . S
O779 Mn774 2.095 . S
O779 C788 1.250 . S
O780 Mn775 2.121 1_565 S
O780 C788 1.258 . S
C781 N782 1.326 . S
C781 C785 1.460 . S
C781 H787 0.929 . S
N782 Mn775 2.257 1_565 S
N782 C781 1.326 . S
N782 C786 1.362 . S
C783 C784 1.258 . S
C783 C786 1.431 . S
C783 C803 1.449 . S
C784 C783 1.258 . S
C784 C785 1.477 . S
C784 H804 0.931 . S
C785 C781 1.460 . S
C785 C784 1.477 . S
C785 H805 0.930 . S
C786 N782 1.362 . S
C786 C783 1.431 . S
C786 C796 1.476 1_565 S
H787 C781 0.929 . S
C788 O779 1.250 . S
C788 O780 1.258 . S
O789 Mn774 2.162 . S
O789 C777 1.281 . S
O790 Mn774 2.297 . S
O790 C777 1.236 . S
N791 Mn775 2.282 . S
N791 C792 1.328 . S
N791 C796 1.318 . S
C792 N791 1.328 . S
C792 C793 1.457 . S
C792 H797 0.929 . S
C793 C792 1.457 . S
C793 C794 1.291 . S
C793 H806 0.931 . S
C794 C793 1.291 . S
C794 C795 1.373 . S
C794 H807 0.929 . S
C795 C794 1.373 . S
C795 C796 1.396 . S
C795 C802 1.403 . S
C796 C786 1.476 1_545 S
C796 N791 1.318 . S
C796 C795 1.396 . S
H797 C792 0.929 . S
O798 Mn774 2.385 1_545 S
O798 C776 1.234 1_545 S
O799 Mn774 2.209 . S
O799 Mn775 2.215 1_565 S
O799 C776 1.283 . S
O800 Mn774 2.094 1_545 S
O800 C778 1.240 . S
O801 Mn775 2.117 . S
O801 C778 1.264 . S
C802 C795 1.403 . S
C802 C803 1.399 1_545 S
C802 H808 0.929 . S
C803 C783 1.449 . S
C803 C802 1.399 1_565 S
C803 H809 0.930 . S
H804 C784 0.931 . S
H805 C785 0.930 . S
H806 C793 0.931 . S
H807 C794 0.929 . S
H808 C802 0.929 . S
H809 C803 0.930 . S
Mn810 O815 2.095 . S
Mn810 O825 2.162 . S
Mn810 O826 2.297 . S
Mn810 O834 2.385 . S
Mn810 O835 2.209 . S
Mn810 O836 2.094 . S
Mn811 O816 2.121 . S
Mn811 N818 2.265 . S
Mn811 N827 2.282 1_455 S
Mn811 O835 2.215 . S
Mn811 O837 2.117 . S
C812 O834 1.234 . S
C812 O835 1.283 . S
C813 O825 1.281 . S
C813 O826 1.236 . S
C814 O836 1.240 . S
C814 O837 1.264 . S
O815 Mn810 2.095 . S
O815 C824 1.250 . S
O816 Mn811 2.121 . S
O816 C824 1.258 . S
C817 N818 1.349 . S
C817 C821 1.460 1_455 S
C817 H823 0.929 . S
N818 Mn811 2.265 . S
N818 C817 1.349 . S
N818 C822 1.329 1_455 S
C819 C820 1.258 . S
C819 C822 1.431 . S
C819 C839 1.449 . S
C820 C819 1.258 . S
C820 C821 1.477 . S
C820 H840 0.931 . S
C821 C817 1.460 1_655 S
C821 C820 1.477 . S
C821 H841 0.930 . S
C822 N818 1.329 1_655 S
C822 C819 1.431 . S
C822 C832 1.476 . S
H823 C817 0.929 . S
C824 O815 1.250 . S
C824 O816 1.258 . S
O825 Mn810 2.162 . S
O825 C813 1.281 . S
O826 Mn810 2.297 . S
O826 C813 1.236 . S
N827 Mn811 2.282 1_655 S
N827 C828 1.328 . S
N827 C832 1.318 . S
C828 N827 1.328 . S
C828 C829 1.457 . S
C828 H833 0.929 . S
C829 C828 1.457 . S
C829 C830 1.291 . S
C829 H842 0.931 . S
C830 C829 1.291 . S
C830 C831 1.373 . S
C830 H843 0.929 . S
C831 C830 1.373 . S
C831 C832 1.396 . S
C831 C838 1.403 . S
C832 C822 1.476 . S
C832 N827 1.318 . S
C832 C831 1.396 . S
H833 C828 0.929 . S
O834 Mn810 2.385 . S
O834 C812 1.234 . S
O835 Mn810 2.209 . S
O835 Mn811 2.215 . S
O835 C812 1.283 . S
O836 Mn810 2.094 . S
O836 C814 1.240 . S
O837 Mn811 2.117 . S
O837 C814 1.264 . S
C838 C831 1.403 . S
C838 C839 1.399 . S
C838 H844 0.929 . S
C839 C819 1.449 . S
C839 C838 1.399 . S
C839 H845 0.930 . S
H840 C820 0.931 . S
H841 C821 0.930 . S
H842 C829 0.931 . S
H843 C830 0.929 . S
H844 C838 0.929 . S
H845 C839 0.930 . S
Mn846 O851 2.095 . S
Mn846 O861 2.162 . S
Mn846 O862 2.297 . S
Mn846 O870 2.385 . S
Mn846 O871 2.209 . S
Mn846 O872 2.094 . S
Mn847 O852 2.121 . S
Mn847 N854 2.257 . S
Mn847 N863 2.282 . S
Mn847 O871 2.215 . S
Mn847 O873 2.117 . S
C848 O870 1.234 . S
C848 O871 1.283 . S
C849 O861 1.281 . S
C849 O862 1.236 . S
C850 O872 1.240 . S
C850 O873 1.264 . S
O851 Mn846 2.095 . S
O851 C860 1.250 . S
O852 Mn847 2.121 . S
O852 C860 1.258 . S
C853 N854 1.326 . S
C853 C857 1.460 . S
C853 H859 0.929 . S
N854 Mn847 2.257 . S
N854 C853 1.326 . S
N854 C858 1.362 . S
C855 C856 1.258 . S
C855 C858 1.431 . S
C855 C875 1.449 . S
C856 C855 1.258 . S
C856 C857 1.477 . S
C856 H876 0.931 . S
C857 C853 1.460 . S
C857 C856 1.477 . S
C857 H877 0.930 1_556 S
C858 N854 1.362 . S
C858 C855 1.431 . S
C858 C868 1.476 . S
H859 C853 0.929 . S
C860 O851 1.250 . S
C860 O852 1.258 . S
O861 Mn846 2.162 . S
O861 C849 1.281 . S
O862 Mn846 2.297 . S
O862 C849 1.236 . S
N863 Mn847 2.282 . S
N863 C864 1.328 . S
N863 C868 1.318 . S
C864 N863 1.328 . S
C864 C865 1.457 . S
C864 H869 0.929 . S
C865 C864 1.457 . S
C865 C866 1.291 . S
C865 H878 0.931 . S
C866 C865 1.291 . S
C866 C867 1.373 . S
C866 H879 0.929 . S
C867 C866 1.373 . S
C867 C868 1.396 . S
C867 C874 1.403 . S
C868 C858 1.476 . S
C868 N863 1.318 . S
C868 C867 1.396 . S
H869 C864 0.929 . S
O870 Mn846 2.385 . S
O870 C848 1.234 . S
O871 Mn846 2.209 . S
O871 Mn847 2.215 . S
O871 C848 1.283 . S
O872 Mn846 2.094 . S
O872 C850 1.240 . S
O873 Mn847 2.117 . S
O873 C850 1.264 . S
C874 C867 1.403 . S
C874 C875 1.399 . S
C874 H880 0.929 . S
C875 C855 1.449 . S
C875 C874 1.399 . S
C875 H881 0.930 . S
H876 C856 0.931 . S
H877 C857 0.930 1_554 S
H878 C865 0.931 . S
H879 C866 0.929 . S
H880 C874 0.929 . S
H881 C875 0.930 . S
Mn882 O887 2.095 . S
Mn882 O897 2.162 . S
Mn882 O898 2.297 . S
Mn882 O906 2.385 . S
Mn882 O907 2.209 . S
Mn882 O908 2.094 . S
Mn883 O888 2.121 . S
Mn883 N890 2.257 . S
Mn883 N899 2.282 . S
Mn883 O907 2.215 . S
Mn883 O909 2.117 . S
C884 O906 1.234 . S
C884 O907 1.283 . S
C885 O897 1.281 . S
C885 O898 1.236 . S
C886 O908 1.240 . S
C886 O909 1.264 . S
O887 Mn882 2.095 . S
O887 C896 1.250 . S
O888 Mn883 2.121 . S
O888 C896 1.258 . S
C889 N890 1.326 . S
C889 C893 1.460 . S
C889 H895 0.929 . S
N890 Mn883 2.257 . S
N890 C889 1.326 . S
N890 C894 1.362 . S
C891 C892 1.258 . S
C891 C894 1.431 . S
C891 C911 1.449 . S
C892 C891 1.258 . S
C892 C893 1.477 . S
C892 H912 0.931 . S
C893 C889 1.460 . S
C893 C892 1.477 . S
C893 H913 0.930 . S
C894 N890 1.362 . S
C894 C891 1.431 . S
C894 C904 1.476 . S
H895 C889 0.929 . S
C896 O887 1.250 . S
C896 O888 1.258 . S
O897 Mn882 2.162 . S
O897 C885 1.281 . S
O898 Mn882 2.297 . S
O898 C885 1.236 . S
N899 Mn883 2.282 . S
N899 C900 1.328 . S
N899 C904 1.318 . S
C900 N899 1.328 . S
C900 C901 1.457 1_556 S
C900 H905 0.929 . S
C901 C900 1.457 1_554 S
C901 C902 1.291 1_554 S
C901 H914 0.931 . S
C902 C901 1.291 1_556 S
C902 C903 1.373 . S
C902 H915 0.929 1_556 S
C903 C902 1.373 . S
C903 C904 1.396 . S
C903 C910 1.403 . S
C904 C894 1.476 . S
C904 N899 1.318 . S
C904 C903 1.396 . S
H905 C900 0.929 . S
O906 Mn882 2.385 . S
O906 C884 1.234 . S
O907 Mn882 2.209 . S
O907 Mn883 2.215 . S
O907 C884 1.283 . S
O908 Mn882 2.094 . S
O908 C886 1.240 . S
O909 Mn883 2.117 . S
O909 C886 1.264 . S
C910 C903 1.403 . S
C910 C911 1.399 . S
C910 H916 0.929 . S
C911 C891 1.449 . S
C911 C910 1.399 . S
C911 H917 0.930 . S
H912 C892 0.931 . S
H913 C893 0.930 . S
H914 C901 0.931 . S
H915 C902 0.929 1_554 S
H916 C910 0.929 . S
H917 C911 0.930 . S
Mn918 O923 2.095 . S
Mn918 O933 2.162 . S
Mn918 O934 2.297 . S
Mn918 O942 2.385 1_655 S
Mn918 O943 2.209 . S
Mn918 O944 2.094 . S
Mn919 O924 2.121 . S
Mn919 N926 2.257 . S
Mn919 N935 2.282 . S
Mn919 O943 2.215 . S
Mn919 O945 2.117 . S
C920 O942 1.234 . S
C920 O943 1.283 1_455 S
C921 O933 1.281 . S
C921 O934 1.236 . S
C922 O944 1.240 . S
C922 O945 1.264 . S
O923 Mn918 2.095 . S
O923 C932 1.250 . S
O924 Mn919 2.121 . S
O924 C932 1.258 . S
C925 N926 1.326 . S
C925 C929 1.457 1_655 S
C925 H931 0.929 . S
N926 Mn919 2.257 . S
N926 C925 1.326 . S
N926 C930 1.362 1_655 S
C927 C928 1.258 . S
C927 C930 1.431 . S
C927 C947 1.449 . S
C928 C927 1.258 . S
C928 C929 1.489 . S
C928 H948 0.931 . S
C929 C925 1.457 1_455 S
C929 C928 1.489 . S
C929 H949 0.925 . S
C930 N926 1.362 1_455 S
C930 C927 1.431 . S
C930 C940 1.476 . S
H931 C925 0.929 . S
C932 O923 1.250 . S
C932 O924 1.258 . S
O933 Mn918 2.162 . S
O933 C921 1.281 . S
O934 Mn918 2.297 . S
O934 C921 1.236 . S
N935 Mn919 2.282 . S
N935 C936 1.328 . S
N935 C940 1.318 1_655 S
C936 N935 1.328 . S
C936 C937 1.457 1_655 S
C936 H941 0.929 . S
C937 C936 1.457 1_455 S
C937 C938 1.291 . S
C937 H950 0.931 . S
C938 C937 1.291 . S
C938 C939 1.373 . S
C938 H951 0.929 . S
C939 C938 1.373 . S
C939 C940 1.396 . S
C939 C946 1.403 . S
C940 C930 1.476 . S
C940 N935 1.318 1_455 S
C940 C939 1.396 . S
H941 C936 0.929 . S
O942 Mn918 2.385 1_455 S
O942 C920 1.234 . S
O943 Mn918 2.209 . S
O943 Mn919 2.215 . S
O943 C920 1.283 1_655 S
O944 Mn918 2.094 . S
O944 C922 1.240 . S
O945 Mn919 2.117 . S
O945 C922 1.264 . S
C946 C939 1.403 . S
C946 C947 1.399 . S
C946 H952 0.929 . S
C947 C927 1.449 . S
C947 C946 1.399 . S
C947 H953 0.930 . S
H948 C928 0.931 . S
H949 C929 0.925 . S
H950 C937 0.931 . S
H951 C938 0.929 . S
H952 C946 0.929 . S
H953 C947 0.930 . S
Mn954 O959 2.095 . S
Mn954 O969 2.162 . S
Mn954 O970 2.297 . S
Mn954 O978 2.385 . S
Mn954 O979 2.209 . S
Mn954 O980 2.094 . S
Mn955 O960 2.121 . S
Mn955 N962 2.257 . S
Mn955 N971 2.282 . S
Mn955 O979 2.215 . S
Mn955 O981 2.117 . S
C956 O978 1.234 . S
C956 O979 1.283 . S
C957 O969 1.281 . S
C957 O970 1.236 . S
C958 O980 1.240 . S
C958 O981 1.264 . S
O959 Mn954 2.095 . S
O959 C968 1.250 . S
O960 Mn955 2.121 . S
O960 C968 1.258 . S
C961 N962 1.326 . S
C961 C965 1.460 . S
C961 H967 0.929 . S
N962 Mn955 2.257 . S
N962 C961 1.326 . S
N962 C966 1.362 . S
C963 C964 1.258 . S
C963 C966 1.431 . S
C963 C983 1.449 . S
C964 C963 1.258 . S
C964 C965 1.477 . S
C964 H984 0.931 . S
C965 C961 1.460 . S
C965 C964 1.477 . S
C965 H985 0.930 . S
C966 N962 1.362 . S
C966 C963 1.431 . S
C966 C976 1.476 . S
H967 C961 0.929 . S
C968 O959 1.250 . S
C968 O960 1.258 . S
O969 Mn954 2.162 . S
O969 C957 1.281 . S
O970 Mn954 2.297 . S
O970 C957 1.236 . S
N971 Mn955 2.282 . S
N971 C972 1.328 . S
N971 C976 1.318 . S
C972 N971 1.328 . S
C972 C973 1.457 . S
C972 H977 0.929 . S
C973 C972 1.457 . S
C973 C974 1.291 . S
C973 H986 0.931 . S
C974 C973 1.291 . S
C974 C975 1.373 . S
C974 H987 0.929 . S
C975 C974 1.373 . S
C975 C976 1.396 . S
C975 C982 1.403 . S
C976 C966 1.476 . S
C976 N971 1.318 . S
C976 C975 1.396 . S
H977 C972 0.929 . S
O978 Mn954 2.385 . S
O978 C956 1.234 . S
O979 Mn954 2.209 . S
O979 Mn955 2.215 . S
O979 C956 1.283 . S
O980 Mn954 2.094 . S
O980 C958 1.240 . S
O981 Mn955 2.117 . S
O981 C958 1.264 . S
C982 C975 1.403 . S
C982 C983 1.399 . S
C982 H988 0.929 . S
C983 C963 1.449 . S
C983 C982 1.399 . S
C983 H989 0.930 . S
H984 C964 0.931 . S
H985 C965 0.930 . S
H986 C973 0.931 . S
H987 C974 0.929 . S
H988 C982 0.929 . S
H989 C983 0.930 . S
Mn990 O995 2.095 . S
Mn990 O1005 2.162 . S
Mn990 O1006 2.297 . S
Mn990 O1014 2.385 . S
Mn990 O1015 2.209 . S
Mn990 O1016 2.094 . S
Mn991 O996 2.121 . S
Mn991 N998 2.257 1_655 S
Mn991 N1007 2.282 1_655 S
Mn991 O1015 2.215 . S
Mn991 O1017 2.117 . S
C992 O1014 1.234 1_455 S
C992 O1015 1.283 1_455 S
C993 O1005 1.281 . S
C993 O1006 1.236 . S
C994 O1016 1.240 . S
C994 O1017 1.264 . S
O995 Mn990 2.095 . S
O995 C1004 1.250 . S
O996 Mn991 2.121 . S
O996 C1004 1.258 . S
C997 N998 1.326 . S
C997 C1001 1.460 . S
C997 H1003 0.929 1_455 S
N998 Mn991 2.257 1_455 S
N998 C997 1.326 . S
N998 C1002 1.362 . S
C999 C1000 1.258 . S
C999 C1002 1.431 . S
C999 C1019 1.449 . S
C1000 C999 1.258 . S
C1000 C1001 1.477 . S
C1000 H1020 0.931 . S
C1001 C997 1.460 . S
C1001 C1000 1.477 . S
C1001 H1021 0.930 . S
C1002 N998 1.362 . S
C1002 C999 1.431 . S
C1002 C1012 1.476 . S
H1003 C997 0.929 1_655 S
C1004 O995 1.250 . S
C1004 O996 1.258 . S
O1005 Mn990 2.162 . S
O1005 C993 1.281 . S
O1006 Mn990 2.297 . S
O1006 C993 1.236 . S
N1007 Mn991 2.282 1_455 S
N1007 C1008 1.328 . S
N1007 C1012 1.318 . S
C1008 N1007 1.328 . S
C1008 C1009 1.457 . S
C1008 H1013 0.929 . S
C1009 C1008 1.457 . S
C1009 C1010 1.291 . S
C1009 H1022 0.931 . S
C1010 C1009 1.291 . S
C1010 C1011 1.373 . S
C1010 H1023 0.929 . S
C1011 C1010 1.373 . S
C1011 C1012 1.396 . S
C1011 C1018 1.403 . S
C1012 C1002 1.476 . S
C1012 N1007 1.318 . S
C1012 C1011 1.396 . S
H1013 C1008 0.929 . S
O1014 Mn990 2.385 . S
O1014 C992 1.234 1_655 S
O1015 Mn990 2.209 . S
O1015 Mn991 2.215 . S
O1015 C992 1.283 1_655 S
O1016 Mn990 2.094 . S
O1016 C994 1.240 . S
O1017 Mn991 2.117 . S
O1017 C994 1.264 . S
C1018 C1011 1.403 . S
C1018 C1019 1.399 . S
C1018 H1024 0.929 . S
C1019 C999 1.449 . S
C1019 C1018 1.399 . S
C1019 H1025 0.930 . S
H1020 C1000 0.931 . S
H1021 C1001 0.930 . S
H1022 C1009 0.931 . S
H1023 C1010 0.929 . S
H1024 C1018 0.929 . S
H1025 C1019 0.930 . S
Mn1026 O1031 2.095 . S
Mn1026 O1041 2.162 . S
Mn1026 O1042 2.297 . S
Mn1026 O1050 2.385 . S
Mn1026 O1051 2.209 . S
Mn1026 O1052 2.094 . S
Mn1027 O1032 2.121 . S
Mn1027 N1034 2.257 . S
Mn1027 N1043 2.282 . S
Mn1027 O1051 2.215 . S
Mn1027 O1053 2.117 . S
C1028 O1050 1.234 . S
C1028 O1051 1.283 . S
C1029 O1041 1.281 . S
C1029 O1042 1.236 . S
C1030 O1052 1.240 . S
C1030 O1053 1.264 . S
O1031 Mn1026 2.095 . S
O1031 C1040 1.250 . S
O1032 Mn1027 2.121 . S
O1032 C1040 1.258 . S
C1033 N1034 1.326 . S
C1033 C1037 1.460 . S
C1033 H1039 0.929 . S
N1034 Mn1027 2.257 . S
N1034 C1033 1.326 . S
N1034 C1038 1.362 . S
C1035 C1036 1.258 . S
C1035 C1038 1.431 . S
C1035 C1055 1.449 . S
C1036 C1035 1.258 . S
C1036 C1037 1.477 . S
C1036 H1056 0.931 . S
C1037 C1033 1.460 . S
C1037 C1036 1.477 . S
C1037 H1057 0.930 . S
C1038 N1034 1.362 . S
C1038 C1035 1.431 . S
C1038 C1048 1.476 . S
H1039 C1033 0.929 . S
C1040 O1031 1.250 . S
C1040 O1032 1.258 . S
O1041 Mn1026 2.162 . S
O1041 C1029 1.281 . S
O1042 Mn1026 2.297 . S
O1042 C1029 1.236 . S
N1043 Mn1027 2.282 . S
N1043 C1044 1.328 . S
N1043 C1048 1.318 . S
C1044 N1043 1.328 . S
C1044 C1045 1.457 . S
C1044 H1049 0.929 . S
C1045 C1044 1.457 . S
C1045 C1046 1.291 . S
C1045 H1058 0.931 . S
C1046 C1045 1.291 . S
C1046 C1047 1.373 . S
C1046 H1059 0.929 . S
C1047 C1046 1.373 . S
C1047 C1048 1.396 . S
C1047 C1054 1.403 . S
C1048 C1038 1.476 . S
C1048 N1043 1.318 . S
C1048 C1047 1.396 . S
H1049 C1044 0.929 . S
O1050 Mn1026 2.385 . S
O1050 C1028 1.234 . S
O1051 Mn1026 2.209 . S
O1051 Mn1027 2.215 . S
O1051 C1028 1.283 . S
O1052 Mn1026 2.094 . S
O1052 C1030 1.240 . S
O1053 Mn1027 2.117 . S
O1053 C1030 1.264 . S
C1054 C1047 1.403 . S
C1054 C1055 1.399 . S
C1054 H1060 0.929 . S
C1055 C1035 1.449 . S
C1055 C1054 1.399 . S
C1055 H1061 0.930 . S
H1056 C1036 0.931 . S
H1057 C1037 0.930 . S
H1058 C1045 0.931 . S
H1059 C1046 0.929 . S
H1060 C1054 0.929 . S
H1061 C1055 0.930 . S
H1062 C1068 0.930 . S
H1063 C1072 0.930 . S
H1064 C1077 0.959 . S
H1065 C1075 0.929 . S
H1066 C1070 0.929 . S
H1067 C1076 0.929 . S
C1068 H1062 0.930 . S
C1068 C1069 1.367 . S
C1068 C1076 1.378 . S
C1069 C1068 1.367 . S
C1069 C1077 1.433 . S
C1070 H1066 0.929 . S
C1070 C1072 1.378 . S
C1070 C1074 1.350 . S
C1071 C1074 1.463 . S
C1071 C1076 1.350 . S
C1071 N1079 1.427 . S
C1072 H1063 0.930 . S
C1072 C1070 1.378 . S
C1072 C1073 1.367 . S
C1073 C1072 1.367 . S
C1073 C1075 1.433 . S
C1074 C1070 1.350 . S
C1074 C1071 1.463 . S
C1074 N1078 1.427 . S
C1075 H1065 0.929 . S
C1075 C1073 1.433 . S
C1075 N1078 1.384 . S
C1076 H1067 0.929 . S
C1076 C1068 1.378 . S
C1076 C1071 1.350 . S
C1077 H1064 0.959 . S
C1077 C1069 1.433 . S
C1077 N1079 1.384 . S
N1078 C1074 1.427 . S
N1078 C1075 1.384 . S
N1079 C1071 1.427 . S
N1079 C1077 1.384 . S
H1080 C1086 0.922 1_556 S
H1081 C1090 0.930 . S
H1082 C1095 0.929 . S
H1083 C1093 0.929 . S
H1084 C1088 0.929 . S
H1085 C1094 0.929 . S
C1086 H1080 0.922 1_554 S
C1086 C1087 1.367 . S
C1086 C1094 1.378 . S
C1087 C1086 1.367 . S
C1087 C1095 1.433 . S
C1088 H1084 0.929 . S
C1088 C1090 1.378 . S
C1088 C1092 1.350 . S
C1089 C1092 1.463 . S
C1089 C1094 1.350 . S
C1089 N1097 1.427 . S
C1090 H1081 0.930 . S
C1090 C1088 1.378 . S
C1090 C1091 1.367 . S
C1091 C1090 1.367 . S
C1091 C1093 1.433 . S
C1092 C1088 1.350 . S
C1092 C1089 1.463 . S
C1092 N1096 1.427 . S
C1093 H1083 0.929 . S
C1093 C1091 1.433 . S
C1093 N1096 1.384 . S
C1094 H1085 0.929 . S
C1094 C1086 1.378 . S
C1094 C1089 1.350 . S
C1095 H1082 0.929 . S
C1095 C1087 1.433 . S
C1095 N1097 1.384 . S
N1096 C1092 1.427 . S
N1096 C1093 1.384 . S
N1097 C1089 1.427 . S
N1097 C1095 1.384 . S
H1098 C1104 0.930 . S
H1099 C1108 0.930 . S
H1100 C1113 0.929 . S
H1101 C1111 0.929 . S
H1102 C1106 0.929 . S
H1103 C1112 0.929 . S
C1104 H1098 0.930 . S
C1104 C1105 1.367 . S
C1104 C1112 1.378 . S
C1105 C1104 1.367 . S
C1105 C1113 1.433 1_565 S
C1106 H1102 0.929 . S
C1106 C1108 1.378 . S
C1106 C1110 1.350 1_545 S
C1107 C1110 1.463 . S
C1107 C1112 1.350 . S
C1107 N1115 1.427 1_565 S
C1108 H1099 0.930 . S
C1108 C1106 1.378 . S
C1108 C1109 1.367 1_545 S
C1109 C1108 1.367 1_565 S
C1109 C1111 1.433 . S
C1110 C1106 1.350 1_565 S
C1110 C1107 1.463 . S
C1110 N1114 1.427 . S
C1111 H1101 0.929 . S
C1111 C1109 1.433 . S
C1111 N1114 1.384 . S
C1112 H1103 0.929 . S
C1112 C1104 1.378 . S
C1112 C1107 1.350 . S
C1113 H1100 0.929 . S
C1113 C1105 1.433 1_545 S
C1113 N1115 1.384 . S
N1114 C1110 1.427 . S
N1114 C1111 1.384 . S
N1115 C1107 1.427 1_545 S
N1115 C1113 1.384 . S
H1116 C1122 0.930 . S
H1117 C1126 0.930 . S
H1118 C1131 0.929 . S
H1119 C1129 0.929 . S
H1120 C1124 0.929 . S
H1121 C1130 0.929 . S
C1122 H1116 0.930 . S
C1122 C1123 1.367 . S
C1122 C1130 1.378 . S
C1123 C1122 1.367 . S
C1123 C1131 1.433 . S
C1124 H1120 0.929 . S
C1124 C1126 1.378 . S
C1124 C1128 1.350 . S
C1125 C1128 1.463 . S
C1125 C1130 1.350 . S
C1125 N1133 1.427 . S
C1126 H1117 0.930 . S
C1126 C1124 1.378 . S
C1126 C1127 1.367 . S
C1127 C1126 1.367 . S
C1127 C1129 1.433 . S
C1128 C1124 1.350 . S
C1128 C1125 1.463 . S
C1128 N1132 1.427 . S
C1129 H1119 0.929 . S
C1129 C1127 1.433 . S
C1129 N1132 1.384 . S
C1130 H1121 0.929 . S
C1130 C1122 1.378 . S
C1130 C1125 1.350 . S
C1131 H1118 0.929 . S
C1131 C1123 1.433 . S
C1131 N1133 1.384 . S
N1132 C1128 1.427 . S
N1132 C1129 1.384 . S
N1133 C1125 1.427 . S
N1133 C1131 1.384 . S
H1134 C1140 0.930 . S
H1135 C1144 0.930 . S
H1136 C1149 0.929 . S
H1137 C1147 0.929 . S
H1138 C1142 0.929 . S
H1139 C1148 0.929 . S
C1140 H1134 0.930 . S
C1140 C1141 1.367 . S
C1140 C1148 1.378 . S
C1141 C1140 1.367 . S
C1141 C1149 1.433 . S
C1142 H1138 0.929 . S
C1142 C1144 1.378 . S
C1142 C1146 1.350 1_655 S
C1143 C1146 1.463 . S
C1143 C1148 1.350 . S
C1143 N1151 1.427 . S
C1144 H1135 0.930 . S
C1144 C1142 1.378 . S
C1144 C1145 1.367 . S
C1145 C1144 1.367 . S
C1145 C1147 1.433 1_655 S
C1146 C1142 1.350 1_455 S
C1146 C1143 1.463 . S
C1146 N1150 1.427 . S
C1147 H1137 0.929 . S
C1147 C1145 1.433 1_455 S
C1147 N1150 1.384 . S
C1148 H1139 0.929 . S
C1148 C1140 1.378 . S
C1148 C1143 1.350 . S
C1149 H1136 0.929 . S
C1149 C1141 1.433 . S
C1149 N1151 1.384 . S
N1150 C1146 1.427 . S
N1150 C1147 1.384 . S
N1151 C1143 1.427 . S
N1151 C1149 1.384 . S
H1152 C1158 0.930 . S
H1153 C1162 0.930 . S
H1154 C1167 0.929 . S
H1155 C1165 0.929 . S
H1156 C1160 0.929 . S
H1157 C1166 0.929 . S
C1158 H1152 0.930 . S
C1158 C1159 1.367 . S
C1158 C1166 1.378 . S
C1159 C1158 1.367 . S
C1159 C1167 1.433 . S
C1160 H1156 0.929 . S
C1160 C1162 1.378 . S
C1160 C1164 1.350 . S
C1161 C1164 1.463 . S
C1161 C1166 1.350 . S
C1161 N1169 1.427 . S
C1162 H1153 0.930 . S
C1162 C1160 1.378 . S
C1162 C1163 1.367 . S
C1163 C1162 1.367 . S
C1163 C1165 1.433 . S
C1164 C1160 1.350 . S
C1164 C1161 1.463 . S
C1164 N1168 1.427 . S
C1165 H1155 0.929 . S
C1165 C1163 1.433 . S
C1165 N1168 1.384 . S
C1166 H1157 0.929 . S
C1166 C1158 1.378 . S
C1166 C1161 1.350 . S
C1167 H1154 0.929 . S
C1167 C1159 1.433 . S
C1167 N1169 1.384 . S
N1168 C1164 1.427 . S
N1168 C1165 1.384 . S
N1169 C1161 1.427 . S
N1169 C1167 1.384 . S
H1170 C1176 0.930 . S
H1171 C1180 0.930 . S
H1172 C1185 0.906 1_554 S
H1173 C1183 0.929 . S
H1174 C1178 0.929 . S
H1175 C1184 0.929 . S
C1176 H1170 0.930 . S
C1176 C1177 1.367 . S
C1176 C1184 1.378 . S
C1177 C1176 1.367 . S
C1177 C1185 1.451 . S
C1178 H1174 0.929 . S
C1178 C1180 1.378 1_455 S
C1178 C1182 1.350 . S
C1179 C1182 1.463 . S
C1179 C1184 1.350 . S
C1179 N1187 1.427 . S
C1180 H1171 0.930 . S
C1180 C1178 1.378 1_655 S
C1180 C1181 1.370 1_655 S
C1181 C1180 1.370 1_455 S
C1181 C1183 1.462 . S
C1182 C1178 1.350 . S
C1182 C1179 1.463 . S
C1182 N1186 1.427 . S
C1183 H1173 0.929 . S
C1183 C1181 1.462 . S
C1183 N1186 1.384 . S
C1184 H1175 0.929 . S
C1184 C1176 1.378 . S
C1184 C1179 1.350 . S
C1185 H1172 0.906 1_556 S
C1185 C1177 1.451 . S
C1185 N1187 1.391 . S
N1186 C1182 1.427 . S
N1186 C1183 1.384 . S
N1187 C1179 1.427 . S
N1187 C1185 1.391 . S
H1188 C1194 0.930 . S
H1189 C1198 0.930 . S
H1190 C1203 0.929 . S
H1191 C1201 0.929 . S
H1192 C1196 0.929 1_554 S
H1193 C1202 0.929 . S
C1194 H1188 0.930 . S
C1194 C1195 1.367 . S
C1194 C1202 1.378 . S
C1195 C1194 1.367 . S
C1195 C1203 1.433 1_556 S
C1196 H1192 0.929 1_556 S
C1196 C1198 1.378 . S
C1196 C1200 1.350 . S
C1197 C1200 1.463 . S
C1197 C1202 1.350 . S
C1197 N1205 1.427 1_556 S
C1198 H1189 0.930 . S
C1198 C1196 1.378 . S
C1198 C1199 1.367 . S
C1199 C1198 1.367 . S
C1199 C1201 1.433 . S
C1200 C1196 1.350 . S
C1200 C1197 1.463 . S
C1200 N1204 1.427 . S
C1201 H1191 0.929 . S
C1201 C1199 1.433 . S
C1201 N1204 1.384 . S
C1202 H1193 0.929 . S
C1202 C1194 1.378 . S
C1202 C1197 1.350 . S
C1203 H1190 0.929 . S
C1203 C1195 1.433 1_554 S
C1203 N1205 1.384 . S
N1204 C1200 1.427 . S
N1204 C1201 1.384 . S
N1205 C1197 1.427 1_554 S
N1205 C1203 1.384 . S
H1206 C1212 0.930 . S
H1207 C1216 0.930 . S
H1208 C1221 0.929 . S
H1209 C1219 0.929 . S
H1210 C1214 0.929 . S
H1211 C1220 0.929 . S
C1212 H1206 0.930 . S
C1212 C1213 1.367 1_554 S
C1212 C1220 1.378 . S
C1213 C1212 1.367 1_556 S
C1213 C1221 1.433 . S
C1214 H1210 0.929 . S
C1214 C1216 1.378 . S
C1214 C1218 1.350 . S
C1215 C1218 1.463 . S
C1215 C1220 1.350 1_556 S
C1215 N1223 1.427 . S
C1216 H1207 0.930 . S
C1216 C1214 1.378 . S
C1216 C1217 1.367 . S
C1217 C1216 1.367 . S
C1217 C1219 1.433 . S
C1218 C1214 1.350 . S
C1218 C1215 1.463 . S
C1218 N1222 1.427 . S
C1219 H1209 0.929 . S
C1219 C1217 1.433 . S
C1219 N1222 1.384 . S
C1220 H1211 0.929 . S
C1220 C1212 1.378 . S
C1220 C1215 1.350 1_554 S
C1221 H1208 0.929 . S
C1221 C1213 1.433 . S
C1221 N1223 1.384 . S
N1222 C1218 1.427 . S
N1222 C1219 1.384 . S
N1223 C1215 1.427 . S
N1223 C1221 1.384 . S
H1224 C1230 0.930 . S
H1225 C1234 0.930 . S
H1226 C1239 0.929 . S
H1227 C1237 0.929 . S
H1228 C1232 0.929 . S
H1229 C1238 0.929 . S
C1230 H1224 0.930 . S
C1230 C1231 1.367 . S
C1230 C1238 1.378 . S
C1231 C1230 1.367 . S
C1231 C1239 1.433 1_545 S
C1232 H1228 0.929 . S
C1232 C1234 1.378 . S
C1232 C1236 1.350 1_565 S
C1233 C1236 1.463 . S
C1233 C1238 1.350 . S
C1233 N1241 1.427 1_545 S
C1234 H1225 0.930 . S
C1234 C1232 1.378 . S
C1234 C1235 1.364 . S
C1235 C1234 1.364 . S
C1235 C1237 1.440 1_565 S
C1236 C1232 1.350 1_545 S
C1236 C1233 1.463 . S
C1236 N1240 1.427 . S
C1237 H1227 0.929 . S
C1237 C1235 1.440 1_545 S
C1237 N1240 1.384 . S
C1238 H1229 0.929 . S
C1238 C1230 1.378 . S
C1238 C1233 1.350 . S
C1239 H1226 0.929 . S
C1239 C1231 1.433 1_565 S
C1239 N1241 1.384 . S
N1240 C1236 1.427 . S
N1240 C1237 1.384 . S
N1241 C1233 1.427 1_565 S
N1241 C1239 1.384 . S
H1242 C1248 0.930 . S
H1243 C1252 0.930 . S
H1244 C1257 0.929 . S
H1245 C1255 0.929 . S
H1246 C1250 0.929 . S
H1247 C1256 0.929 . S
C1248 H1242 0.930 . S
C1248 C1249 1.367 . S
C1248 C1256 1.378 . S
C1249 C1248 1.367 . S
C1249 C1257 1.433 . S
C1250 H1246 0.929 . S
C1250 C1252 1.378 . S
C1250 C1254 1.350 . S
C1251 C1254 1.463 . S
C1251 C1256 1.350 . S
C1251 N1259 1.427 . S
C1252 H1243 0.930 . S
C1252 C1250 1.378 . S
C1252 C1253 1.367 . S
C1253 C1252 1.367 . S
C1253 C1255 1.433 . S
C1254 C1250 1.350 . S
C1254 C1251 1.463 . S
C1254 N1258 1.427 . S
C1255 H1245 0.929 . S
C1255 C1253 1.433 . S
C1255 N1258 1.384 . S
C1256 H1247 0.929 . S
C1256 C1248 1.378 . S
C1256 C1251 1.350 . S
C1257 H1244 0.929 . S
C1257 C1249 1.433 . S
C1257 N1259 1.384 . S
N1258 C1254 1.427 . S
N1258 C1255 1.384 . S
N1259 C1251 1.427 . S
N1259 C1257 1.384 . S
H1260 C1266 0.930 . S
H1261 C1270 0.930 . S
H1262 C1275 0.929 . S
H1263 C1273 0.929 . S
H1264 C1268 0.929 . S
H1265 C1274 0.929 . S
C1266 H1260 0.930 . S
C1266 C1267 1.367 . S
C1266 C1274 1.378 . S
C1267 C1266 1.367 . S
C1267 C1275 1.433 . S
C1268 H1264 0.929 . S
C1268 C1270 1.378 . S
C1268 C1272 1.350 . S
C1269 C1272 1.463 . S
C1269 C1274 1.350 . S
C1269 N1277 1.427 . S
C1270 H1261 0.930 . S
C1270 C1268 1.378 . S
C1270 C1271 1.367 . S
C1271 C1270 1.367 . S
C1271 C1273 1.433 . S
C1272 C1268 1.350 . S
C1272 C1269 1.463 . S
C1272 N1276 1.427 . S
C1273 H1263 0.929 . S
C1273 C1271 1.433 . S
C1273 N1276 1.384 . S
C1274 H1265 0.929 . S
C1274 C1266 1.378 . S
C1274 C1269 1.350 . S
C1275 H1262 0.929 . S
C1275 C1267 1.433 . S
C1275 N1277 1.384 . S
N1276 C1272 1.427 . S
N1276 C1273 1.384 . S
N1277 C1269 1.427 . S
N1277 C1275 1.384 . S
H1278 C1284 0.930 . S
H1279 C1288 0.930 . S
H1280 C1293 0.929 . S
H1281 C1291 0.929 . S
H1282 C1286 0.929 . S
H1283 C1292 0.929 . S
C1284 H1278 0.930 . S
C1284 C1285 1.367 . S
C1284 C1292 1.378 . S
C1285 C1284 1.367 . S
C1285 C1293 1.433 . S
C1286 H1282 0.929 . S
C1286 C1288 1.378 . S
C1286 C1290 1.350 . S
C1287 C1290 1.463 . S
C1287 C1292 1.350 . S
C1287 N1295 1.427 . S
C1288 H1279 0.930 . S
C1288 C1286 1.378 . S
C1288 C1289 1.367 . S
C1289 C1288 1.367 . S
C1289 C1291 1.433 . S
C1290 C1286 1.350 . S
C1290 C1287 1.463 . S
C1290 N1294 1.427 . S
C1291 H1281 0.929 . S
C1291 C1289 1.433 . S
C1291 N1294 1.384 . S
C1292 H1283 0.929 . S
C1292 C1284 1.378 . S
C1292 C1287 1.350 . S
C1293 H1280 0.929 . S
C1293 C1285 1.433 . S
C1293 N1295 1.384 . S
N1294 C1290 1.427 . S
N1294 C1291 1.384 . S
N1295 C1287 1.427 . S
N1295 C1293 1.384 . S
H1296 C1302 0.930 . S
H1297 C1306 0.930 . S
H1298 C1311 0.929 . S
H1299 C1309 0.929 . S
H1300 C1304 0.929 . S
H1301 C1310 0.929 . S
C1302 H1296 0.930 . S
C1302 C1303 1.367 . S
C1302 C1310 1.378 . S
C1303 C1302 1.367 . S
C1303 C1311 1.433 . S
C1304 H1300 0.929 . S
C1304 C1306 1.378 . S
C1304 C1308 1.350 . S
C1305 C1308 1.447 1_565 S
C1305 C1310 1.358 . S
C1305 N1313 1.435 . S
C1306 H1297 0.930 . S
C1306 C1304 1.378 . S
C1306 C1307 1.367 . S
C1307 C1306 1.367 . S
C1307 C1309 1.433 . S
C1308 C1304 1.350 . S
C1308 C1305 1.447 1_545 S
C1308 N1312 1.427 . S
C1309 H1299 0.929 . S
C1309 C1307 1.433 . S
C1309 N1312 1.384 . S
C1310 H1301 0.929 . S
C1310 C1302 1.378 . S
C1310 C1305 1.358 . S
C1311 H1298 0.929 . S
C1311 C1303 1.433 . S
C1311 N1313 1.384 . S
N1312 C1308 1.427 . S
N1312 C1309 1.384 . S
N1313 C1305 1.435 . S
N1313 C1311 1.384 . S
H1314 C1320 0.930 . S
H1315 C1324 0.930 . S
H1316 C1329 0.929 . S
H1317 C1327 0.929 . S
H1318 C1322 0.929 . S
H1319 C1328 0.929 . S
C1320 H1314 0.930 . S
C1320 C1321 1.367 . S
C1320 C1328 1.378 . S
C1321 C1320 1.367 . S
C1321 C1329 1.433 . S
C1322 H1318 0.929 . S
C1322 C1324 1.378 . S
C1322 C1326 1.350 . S
C1323 C1326 1.463 . S
C1323 C1328 1.350 . S
C1323 N1331 1.427 . S
C1324 H1315 0.930 . S
C1324 C1322 1.378 . S
C1324 C1325 1.367 . S
C1325 C1324 1.367 . S
C1325 C1327 1.433 . S
C1326 C1322 1.350 . S
C1326 C1323 1.463 . S
C1326 N1330 1.427 . S
C1327 H1317 0.929 . S
C1327 C1325 1.433 . S
C1327 N1330 1.384 . S
C1328 H1319 0.929 . S
C1328 C1320 1.378 . S
C1328 C1323 1.350 . S
C1329 H1316 0.929 . S
C1329 C1321 1.433 . S
C1329 N1331 1.384 . S
N1330 C1326 1.427 . S
N1330 C1327 1.384 . S
N1331 C1323 1.427 . S
N1331 C1329 1.384 . S
H1332 C1338 0.930 . S
H1333 C1342 0.930 . S
H1334 C1347 0.929 . S
H1335 C1345 0.929 . S
H1336 C1340 0.929 . S
H1337 C1346 0.929 . S
C1338 H1332 0.930 . S
C1338 C1339 1.367 . S
C1338 C1346 1.378 . S
C1339 C1338 1.367 . S
C1339 C1347 1.433 . S
C1340 H1336 0.929 . S
C1340 C1342 1.378 . S
C1340 C1344 1.350 . S
C1341 C1344 1.463 . S
C1341 C1346 1.350 . S
C1341 N1349 1.427 . S
C1342 H1333 0.930 . S
C1342 C1340 1.378 . S
C1342 C1343 1.367 . S
C1343 C1342 1.367 . S
C1343 C1345 1.433 . S
C1344 C1340 1.350 . S
C1344 C1341 1.463 . S
C1344 N1348 1.427 . S
C1345 H1335 0.929 . S
C1345 C1343 1.433 . S
C1345 N1348 1.384 . S
C1346 H1337 0.929 . S
C1346 C1338 1.378 . S
C1346 C1341 1.350 . S
C1347 H1334 0.929 . S
C1347 C1339 1.433 . S
C1347 N1349 1.384 . S
N1348 C1344 1.427 . S
N1348 C1345 1.384 . S
N1349 C1341 1.427 . S
N1349 C1347 1.384 . S
H1350 C1356 0.930 . S
H1351 C1360 0.930 . S
H1352 C1365 0.929 . S
H1353 C1363 0.929 . S
H1354 C1358 0.929 . S
H1355 C1364 0.929 . S
C1356 H1350 0.930 . S
C1356 C1357 1.367 . S
C1356 C1364 1.378 . S
C1357 C1356 1.367 . S
C1357 C1365 1.433 . S
C1358 H1354 0.929 . S
C1358 C1360 1.378 . S
C1358 C1362 1.350 . S
C1359 C1362 1.463 . S
C1359 C1364 1.350 . S
C1359 N1367 1.427 . S
C1360 H1351 0.930 . S
C1360 C1358 1.378 . S
C1360 C1361 1.367 . S
C1361 C1360 1.367 . S
C1361 C1363 1.433 . S
C1362 C1358 1.350 . S
C1362 C1359 1.463 . S
C1362 N1366 1.427 . S
C1363 H1353 0.929 . S
C1363 C1361 1.433 . S
C1363 N1366 1.384 . S
C1364 H1355 0.929 . S
C1364 C1356 1.378 . S
C1364 C1359 1.350 . S
C1365 H1352 0.929 . S
C1365 C1357 1.433 . S
C1365 N1367 1.384 . S
N1366 C1362 1.427 . S
N1366 C1363 1.384 . S
N1367 C1359 1.427 . S
N1367 C1365 1.384 . S
H1368 C1374 0.930 . S
H1369 C1378 0.930 . S
H1370 C1383 0.929 . S
H1371 C1381 0.929 . S
H1372 C1376 0.929 . S
H1373 C1382 0.929 . S
C1374 H1368 0.930 . S
C1374 C1375 1.367 . S
C1374 C1382 1.378 . S
C1375 C1374 1.367 . S
C1375 C1383 1.433 . S
C1376 H1372 0.929 . S
C1376 C1378 1.378 . S
C1376 C1380 1.350 . S
C1377 C1380 1.463 . S
C1377 C1382 1.350 . S
C1377 N1385 1.427 . S
C1378 H1369 0.930 . S
C1378 C1376 1.378 . S
C1378 C1379 1.367 . S
C1379 C1378 1.367 . S
C1379 C1381 1.433 . S
C1380 C1376 1.350 . S
C1380 C1377 1.463 . S
C1380 N1384 1.427 . S
C1381 H1371 0.929 . S
C1381 C1379 1.433 . S
C1381 N1384 1.384 . S
C1382 H1373 0.929 . S
C1382 C1374 1.378 . S
C1382 C1377 1.350 . S
C1383 H1370 0.929 . S
C1383 C1375 1.433 . S
C1383 N1385 1.384 . S
N1384 C1380 1.427 . S
N1384 C1381 1.384 . S
N1385 C1377 1.427 . S
N1385 C1383 1.384 . S
H1386 C1392 0.930 . S
H1387 C1396 0.930 . S
H1388 C1401 0.929 . S
H1389 C1399 0.929 . S
H1390 C1394 0.929 . S
H1391 C1400 0.929 . S
C1392 H1386 0.930 . S
C1392 C1393 1.367 . S
C1392 C1400 1.378 . S
C1393 C1392 1.367 . S
C1393 C1401 1.433 . S
C1394 H1390 0.929 . S
C1394 C1396 1.378 1_565 S
C1394 C1398 1.350 . S
C1395 C1398 1.463 . S
C1395 C1400 1.350 . S
C1395 N1403 1.427 . S
C1396 H1387 0.930 . S
C1396 C1394 1.378 1_545 S
C1396 C1397 1.367 . S
C1397 C1396 1.367 . S
C1397 C1399 1.433 . S
C1398 C1394 1.350 . S
C1398 C1395 1.463 . S
C1398 N1402 1.427 1_565 S
C1399 H1389 0.929 . S
C1399 C1397 1.433 . S
C1399 N1402 1.384 . S
C1400 H1391 0.929 . S
C1400 C1392 1.378 . S
C1400 C1395 1.350 . S
C1401 H1388 0.929 . S
C1401 C1393 1.433 . S
C1401 N1403 1.384 . S
N1402 C1398 1.427 1_545 S
N1402 C1399 1.384 . S
N1403 C1395 1.427 . S
N1403 C1401 1.384 . S
H1404 C1410 0.930 . S
H1405 C1414 0.930 . S
H1406 C1419 0.929 . S
H1407 C1417 0.929 . S
H1408 C1412 0.929 . S
H1409 C1418 0.929 . S
C1410 H1404 0.930 . S
C1410 C1411 1.367 . S
C1410 C1418 1.378 . S
C1411 C1410 1.367 . S
C1411 C1419 1.433 . S
C1412 H1408 0.929 . S
C1412 C1414 1.378 . S
C1412 C1416 1.350 . S
C1413 C1416 1.463 . S
C1413 C1418 1.350 . S
C1413 N1421 1.427 . S
C1414 H1405 0.930 . S
C1414 C1412 1.378 . S
C1414 C1415 1.367 . S
C1415 C1414 1.367 . S
C1415 C1417 1.433 . S
C1416 C1412 1.350 . S
C1416 C1413 1.463 . S
C1416 N1420 1.427 . S
C1417 H1407 0.929 . S
C1417 C1415 1.433 . S
C1417 N1420 1.384 . S
C1418 H1409 0.929 . S
C1418 C1410 1.378 . S
C1418 C1413 1.350 . S
C1419 H1406 0.929 . S
C1419 C1411 1.433 . S
C1419 N1421 1.384 . S
N1420 C1416 1.427 . S
N1420 C1417 1.384 . S
N1421 C1413 1.427 . S
N1421 C1419 1.384 . S
H1422 C1428 0.930 . S
H1423 C1432 0.930 . S
H1424 C1437 0.929 . S
H1425 C1435 0.929 . S
H1426 C1430 0.929 . S
H1427 C1436 0.929 . S
C1428 H1422 0.930 . S
C1428 C1429 1.367 . S
C1428 C1436 1.378 . S
C1429 C1428 1.367 . S
C1429 C1437 1.433 . S
C1430 H1426 0.929 . S
C1430 C1432 1.378 . S
C1430 C1434 1.350 . S
C1431 C1434 1.463 . S
C1431 C1436 1.350 . S
C1431 N1439 1.427 . S
C1432 H1423 0.930 . S
C1432 C1430 1.378 . S
C1432 C1433 1.367 . S
C1433 C1432 1.367 . S
C1433 C1435 1.433 . S
C1434 C1430 1.350 . S
C1434 C1431 1.463 . S
C1434 N1438 1.427 . S
C1435 H1425 0.929 . S
C1435 C1433 1.433 . S
C1435 N1438 1.384 . S
C1436 H1427 0.929 . S
C1436 C1428 1.378 . S
C1436 C1431 1.350 . S
C1437 H1424 0.929 . S
C1437 C1429 1.433 . S
C1437 N1439 1.384 . S
N1438 C1434 1.427 . S
N1438 C1435 1.384 . S
N1439 C1431 1.427 . S
N1439 C1437 1.384 . S
H1440 C1446 0.930 . S
H1441 C1450 0.930 . S
H1442 C1455 0.929 . S
H1443 C1453 0.929 . S
H1444 C1448 0.929 . S
H1445 C1454 0.929 . S
C1446 H1440 0.930 . S
C1446 C1447 1.367 . S
C1446 C1454 1.378 . S
C1447 C1446 1.367 . S
C1447 C1455 1.433 . S
C1448 H1444 0.929 . S
C1448 C1450 1.378 . S
C1448 C1452 1.350 . S
C1449 C1452 1.463 . S
C1449 C1454 1.350 . S
C1449 N1457 1.427 . S
C1450 H1441 0.930 . S
C1450 C1448 1.378 . S
C1450 C1451 1.367 . S
C1451 C1450 1.367 . S
C1451 C1453 1.433 . S
C1452 C1448 1.350 . S
C1452 C1449 1.463 . S
C1452 N1456 1.427 . S
C1453 H1443 0.929 . S
C1453 C1451 1.433 . S
C1453 N1456 1.384 . S
C1454 H1445 0.929 . S
C1454 C1446 1.378 . S
C1454 C1449 1.350 . S
C1455 H1442 0.929 . S
C1455 C1447 1.433 . S
C1455 N1457 1.384 . S
N1456 C1452 1.427 . S
N1456 C1453 1.384 . S
N1457 C1449 1.427 . S
N1457 C1455 1.384 . S
H1458 C1464 0.930 . S
H1459 C1468 0.930 . S
H1460 C1473 0.929 . S
H1461 C1471 0.929 . S
H1462 C1466 0.929 1_565 S
H1463 C1472 0.929 1_545 S
C1464 H1458 0.930 . S
C1464 C1465 1.367 . S
C1464 C1472 1.378 . S
C1465 C1464 1.367 . S
C1465 C1473 1.433 . S
C1466 H1462 0.929 1_545 S
C1466 C1468 1.378 . S
C1466 C1470 1.350 . S
C1467 C1470 1.463 1_565 S
C1467 C1472 1.350 . S
C1467 N1475 1.427 . S
C1468 H1459 0.930 . S
C1468 C1466 1.378 . S
C1468 C1469 1.367 . S
C1469 C1468 1.367 . S
C1469 C1471 1.433 . S
C1470 C1466 1.350 . S
C1470 C1467 1.463 1_545 S
C1470 N1474 1.427 . S
C1471 H1461 0.929 . S
C1471 C1469 1.433 . S
C1471 N1474 1.384 . S
C1472 H1463 0.929 1_565 S
C1472 C1464 1.378 . S
C1472 C1467 1.350 . S
C1473 H1460 0.929 . S
C1473 C1465 1.433 . S
C1473 N1475 1.384 . S
N1474 C1470 1.427 . S
N1474 C1471 1.384 . S
N1475 C1467 1.427 . S
N1475 C1473 1.384 . S
H1476 C1482 0.930 . S
H1477 C1486 0.930 . S
H1478 C1491 0.929 . S
H1479 C1489 0.929 . S
H1480 C1484 0.929 . S
H1481 C1490 0.929 . S
C1482 H1476 0.930 . S
C1482 C1483 1.367 . S
C1482 C1490 1.378 . S
C1483 C1482 1.367 . S
C1483 C1491 1.433 . S
C1484 H1480 0.929 . S
C1484 C1486 1.378 . S
C1484 C1488 1.350 . S
C1485 C1488 1.463 . S
C1485 C1490 1.350 . S
C1485 N1493 1.427 . S
C1486 H1477 0.930 . S
C1486 C1484 1.378 . S
C1486 C1487 1.367 . S
C1487 C1486 1.367 . S
C1487 C1489 1.433 . S
C1488 C1484 1.350 . S
C1488 C1485 1.463 . S
C1488 N1492 1.427 . S
C1489 H1479 0.929 . S
C1489 C1487 1.433 . S
C1489 N1492 1.384 . S
C1490 H1481 0.929 . S
C1490 C1482 1.378 . S
C1490 C1485 1.350 . S
C1491 H1478 0.929 . S
C1491 C1483 1.433 . S
C1491 N1493 1.384 . S
N1492 C1488 1.427 . S
N1492 C1489 1.384 . S
N1493 C1485 1.427 . S
N1493 C1491 1.384 . S
H1494 C1500 0.930 . S
H1495 C1504 0.930 . S
H1496 C1509 0.929 . S
H1497 C1507 0.929 . S
H1498 C1502 0.929 . S
H1499 C1508 0.929 . S
C1500 H1494 0.930 . S
C1500 C1501 1.367 . S
C1500 C1508 1.378 . S
C1501 C1500 1.367 . S
C1501 C1509 1.433 . S
C1502 H1498 0.929 . S
C1502 C1504 1.378 . S
C1502 C1506 1.350 . S
C1503 C1506 1.463 . S
C1503 C1508 1.350 . S
C1503 N1511 1.427 . S
C1504 H1495 0.930 . S
C1504 C1502 1.378 . S
C1504 C1505 1.367 . S
C1505 C1504 1.367 . S
C1505 C1507 1.433 . S
C1506 C1502 1.350 . S
C1506 C1503 1.463 . S
C1506 N1510 1.427 . S
C1507 H1497 0.929 . S
C1507 C1505 1.433 . S
C1507 N1510 1.384 . S
C1508 H1499 0.929 . S
C1508 C1500 1.378 . S
C1508 C1503 1.350 . S
C1509 H1496 0.929 . S
C1509 C1501 1.433 . S
C1509 N1511 1.384 . S
N1510 C1506 1.427 . S
N1510 C1507 1.384 . S
N1511 C1503 1.427 . S
N1511 C1509 1.384 . S
H1512 C1518 0.930 . S
H1513 C1522 0.930 . S
H1514 C1527 0.929 . S
H1515 C1525 0.929 . S
H1516 C1520 0.929 . S
H1517 C1526 0.929 . S
C1518 H1512 0.930 . S
C1518 C1519 1.367 . S
C1518 C1526 1.378 . S
C1519 C1518 1.367 . S
C1519 C1527 1.433 . S
C1520 H1516 0.929 . S
C1520 C1522 1.378 . S
C1520 C1524 1.350 . S
C1521 C1524 1.463 . S
C1521 C1526 1.350 . S
C1521 N1529 1.427 . S
C1522 H1513 0.930 . S
C1522 C1520 1.378 . S
C1522 C1523 1.367 . S
C1523 C1522 1.367 . S
C1523 C1525 1.433 . S
C1524 C1520 1.350 . S
C1524 C1521 1.463 . S
C1524 N1528 1.427 . S
C1525 H1515 0.929 . S
C1525 C1523 1.433 . S
C1525 N1528 1.384 . S
C1526 H1517 0.929 . S
C1526 C1518 1.378 . S
C1526 C1521 1.350 . S
C1527 H1514 0.929 . S
C1527 C1519 1.433 . S
C1527 N1529 1.384 . S
N1528 C1524 1.427 . S
N1528 C1525 1.384 . S
N1529 C1521 1.427 . S
N1529 C1527 1.384 . S
H1530 C1536 0.930 . S
H1531 C1540 0.930 . S
H1532 C1545 0.929 . S
H1533 C1543 0.929 . S
H1534 C1538 0.929 . S
H1535 C1544 0.929 . S
C1536 H1530 0.930 . S
C1536 C1537 1.367 . S
C1536 C1544 1.378 . S
C1537 C1536 1.367 . S
C1537 C1545 1.433 . S
C1538 H1534 0.929 . S
C1538 C1540 1.378 . S
C1538 C1542 1.350 . S
C1539 C1542 1.463 . S
C1539 C1544 1.350 . S
C1539 N1547 1.427 . S
C1540 H1531 0.930 . S
C1540 C1538 1.378 . S
C1540 C1541 1.367 . S
C1541 C1540 1.367 . S
C1541 C1543 1.433 . S
C1542 C1538 1.350 . S
C1542 C1539 1.463 . S
C1542 N1546 1.427 . S
C1543 H1533 0.929 . S
C1543 C1541 1.433 . S
C1543 N1546 1.384 . S
C1544 H1535 0.929 . S
C1544 C1536 1.378 . S
C1544 C1539 1.350 . S
C1545 H1532 0.929 . S
C1545 C1537 1.433 . S
C1545 N1547 1.384 . S
N1546 C1542 1.427 . S
N1546 C1543 1.384 . S
N1547 C1539 1.427 . S
N1547 C1545 1.384 . S
H1548 C1554 0.930 . S
H1549 C1558 0.930 . S
H1550 C1563 0.929 . S
H1551 C1561 0.929 . S
H1552 C1556 0.929 . S
H1553 C1562 0.929 . S
C1554 H1548 0.930 . S
C1554 C1555 1.367 . S
C1554 C1562 1.378 . S
C1555 C1554 1.367 . S
C1555 C1563 1.433 . S
C1556 H1552 0.929 . S
C1556 C1558 1.378 . S
C1556 C1560 1.350 . S
C1557 C1560 1.463 . S
C1557 C1562 1.350 . S
C1557 N1565 1.427 . S
C1558 H1549 0.930 . S
C1558 C1556 1.378 . S
C1558 C1559 1.367 . S
C1559 C1558 1.367 . S
C1559 C1561 1.433 . S
C1560 C1556 1.350 . S
C1560 C1557 1.463 . S
C1560 N1564 1.427 . S
C1561 H1551 0.929 . S
C1561 C1559 1.433 . S
C1561 N1564 1.384 . S
C1562 H1553 0.929 . S
C1562 C1554 1.378 . S
C1562 C1557 1.350 . S
C1563 H1550 0.929 . S
C1563 C1555 1.433 . S
C1563 N1565 1.384 . S
N1564 C1560 1.427 . S
N1564 C1561 1.384 . S
N1565 C1557 1.427 . S
N1565 C1563 1.384 . S
H1566 C1572 0.930 . S
H1567 C1576 0.930 . S
H1568 C1581 0.929 . S
H1569 C1579 0.929 . S
H1570 C1574 0.929 . S
H1571 C1580 0.929 . S
C1572 H1566 0.930 . S
C1572 C1573 1.367 . S
C1572 C1580 1.378 . S
C1573 C1572 1.367 . S
C1573 C1581 1.433 . S
C1574 H1570 0.929 . S
C1574 C1576 1.378 . S
C1574 C1578 1.350 . S
C1575 C1578 1.463 . S
C1575 C1580 1.350 . S
C1575 N1583 1.427 . S
C1576 H1567 0.930 . S
C1576 C1574 1.378 . S
C1576 C1577 1.367 . S
C1577 C1576 1.367 . S
C1577 C1579 1.433 . S
C1578 C1574 1.350 . S
C1578 C1575 1.463 . S
C1578 N1582 1.427 . S
C1579 H1569 0.929 . S
C1579 C1577 1.433 . S
C1579 N1582 1.384 . S
C1580 H1571 0.929 . S
C1580 C1572 1.378 . S
C1580 C1575 1.350 . S
C1581 H1568 0.929 . S
C1581 C1573 1.433 . S
C1581 N1583 1.384 . S
N1582 C1578 1.427 . S
N1582 C1579 1.384 . S
N1583 C1575 1.427 . S
N1583 C1581 1.384 . S
H1584 C1590 0.930 . S
H1585 C1594 0.930 . S
H1586 C1599 0.929 . S
H1587 C1597 0.929 . S
H1588 C1592 0.929 . S
H1589 C1598 0.929 . S
C1590 H1584 0.930 . S
C1590 C1591 1.367 . S
C1590 C1598 1.378 . S
C1591 C1590 1.367 . S
C1591 C1599 1.433 . S
C1592 H1588 0.929 . S
C1592 C1594 1.378 . S
C1592 C1596 1.350 . S
C1593 C1596 1.463 . S
C1593 C1598 1.350 . S
C1593 N1601 1.427 . S
C1594 H1585 0.930 . S
C1594 C1592 1.378 . S
C1594 C1595 1.367 . S
C1595 C1594 1.367 . S
C1595 C1597 1.433 . S
C1596 C1592 1.350 . S
C1596 C1593 1.463 . S
C1596 N1600 1.427 . S
C1597 H1587 0.929 . S
C1597 C1595 1.433 . S
C1597 N1600 1.384 . S
C1598 H1589 0.929 . S
C1598 C1590 1.378 . S
C1598 C1593 1.350 . S
C1599 H1586 0.929 . S
C1599 C1591 1.433 . S
C1599 N1601 1.384 . S
N1600 C1596 1.427 . S
N1600 C1597 1.384 . S
N1601 C1593 1.427 . S
N1601 C1599 1.384 . S
H1602 C1608 0.930 . S
H1603 C1612 0.930 . S
H1604 C1617 0.929 . S
H1605 C1615 0.929 . S
H1606 C1610 0.929 . S
H1607 C1616 0.929 . S
C1608 H1602 0.930 . S
C1608 C1609 1.367 . S
C1608 C1616 1.378 . S
C1609 C1608 1.367 . S
C1609 C1617 1.433 . S
C1610 H1606 0.929 . S
C1610 C1612 1.378 . S
C1610 C1614 1.350 . S
C1611 C1614 1.463 . S
C1611 C1616 1.350 . S
C1611 N1619 1.427 . S
C1612 H1603 0.930 . S
C1612 C1610 1.378 . S
C1612 C1613 1.367 . S
C1613 C1612 1.367 . S
C1613 C1615 1.433 . S
C1614 C1610 1.350 . S
C1614 C1611 1.463 . S
C1614 N1618 1.427 . S
C1615 H1605 0.929 . S
C1615 C1613 1.433 . S
C1615 N1618 1.384 . S
C1616 H1607 0.929 . S
C1616 C1608 1.378 . S
C1616 C1611 1.350 . S
C1617 H1604 0.929 . S
C1617 C1609 1.433 . S
C1617 N1619 1.384 . S
N1618 C1614 1.427 . S
N1618 C1615 1.384 . S
N1619 C1611 1.427 . S
N1619 C1617 1.384 . S
H1620 C1626 0.930 . S
H1621 C1630 0.930 . S
H1622 C1635 0.929 . S
H1623 C1633 0.929 . S
H1624 C1628 0.929 . S
H1625 C1634 0.929 . S
C1626 H1620 0.930 . S
C1626 C1627 1.367 . S
C1626 C1634 1.378 . S
C1627 C1626 1.367 . S
C1627 C1635 1.433 . S
C1628 H1624 0.929 . S
C1628 C1630 1.378 . S
C1628 C1632 1.350 . S
C1629 C1632 1.463 . S
C1629 C1634 1.350 . S
C1629 N1637 1.427 . S
C1630 H1621 0.930 . S
C1630 C1628 1.378 . S
C1630 C1631 1.367 . S
C1631 C1630 1.367 . S
C1631 C1633 1.433 . S
C1632 C1628 1.350 . S
C1632 C1629 1.463 . S
C1632 N1636 1.427 . S
C1633 H1623 0.929 . S
C1633 C1631 1.433 . S
C1633 N1636 1.384 . S
C1634 H1625 0.929 . S
C1634 C1626 1.378 . S
C1634 C1629 1.350 . S
C1635 H1622 0.929 . S
C1635 C1627 1.433 . S
C1635 N1637 1.384 . S
N1636 C1632 1.427 . S
N1636 C1633 1.384 . S
N1637 C1629 1.427 . S
N1637 C1635 1.384 . S
H1638 C1644 0.930 . S
H1639 C1648 0.930 . S
H1640 C1653 0.929 . S
H1641 C1651 0.929 1_455 S
H1642 C1646 0.929 . S
H1643 C1652 0.929 . S
C1644 H1638 0.930 . S
C1644 C1645 1.367 . S
C1644 C1652 1.378 . S
C1645 C1644 1.367 . S
C1645 C1653 1.433 . S
C1646 H1642 0.929 . S
C1646 C1648 1.378 . S
C1646 C1650 1.350 . S
C1647 C1650 1.463 . S
C1647 C1652 1.350 . S
C1647 N1655 1.427 . S
C1648 H1639 0.930 . S
C1648 C1646 1.378 . S
C1648 C1649 1.367 1_655 S
C1649 C1648 1.367 1_455 S
C1649 C1651 1.433 1_455 S
C1650 C1646 1.350 . S
C1650 C1647 1.463 . S
C1650 N1654 1.427 . S
C1651 H1641 0.929 1_655 S
C1651 C1649 1.433 1_655 S
C1651 N1654 1.384 . S
C1652 H1643 0.929 . S
C1652 C1644 1.378 . S
C1652 C1647 1.350 . S
C1653 H1640 0.929 . S
C1653 C1645 1.433 . S
C1653 N1655 1.384 . S
N1654 C1650 1.427 . S
N1654 C1651 1.384 . S
N1655 C1647 1.427 . S
N1655 C1653 1.384 . S
H1656 C1662 0.930 . S
H1657 C1666 0.930 . S
H1658 C1671 0.929 . S
H1659 C1669 0.929 . S
H1660 C1664 0.929 . S
H1661 C1670 0.929 . S
C1662 H1656 0.930 . S
C1662 C1663 1.367 . S
C1662 C1670 1.378 . S
C1663 C1662 1.367 . S
C1663 C1671 1.433 . S
C1664 H1660 0.929 . S
C1664 C1666 1.378 . S
C1664 C1668 1.350 . S
C1665 C1668 1.463 . S
C1665 C1670 1.350 . S
C1665 N1673 1.427 . S
C1666 H1657 0.930 . S
C1666 C1664 1.378 . S
C1666 C1667 1.367 . S
C1667 C1666 1.367 . S
C1667 C1669 1.433 . S
C1668 C1664 1.350 . S
C1668 C1665 1.463 . S
C1668 N1672 1.427 . S
C1669 H1659 0.929 . S
C1669 C1667 1.433 . S
C1669 N1672 1.384 . S
C1670 H1661 0.929 . S
C1670 C1662 1.378 . S
C1670 C1665 1.350 . S
C1671 H1658 0.929 . S
C1671 C1663 1.433 . S
C1671 N1673 1.384 . S
N1672 C1668 1.427 . S
N1672 C1669 1.384 . S
N1673 C1665 1.427 . S
N1673 C1671 1.384 . S
H1674 C1680 0.930 . S
H1675 C1684 0.930 . S
H1676 C1689 0.929 . S
H1677 C1687 0.929 . S
H1678 C1682 0.929 . S
H1679 C1688 0.929 . S
C1680 H1674 0.930 . S
C1680 C1681 1.367 . S
C1680 C1688 1.378 . S
C1681 C1680 1.367 . S
C1681 C1689 1.433 . S
C1682 H1678 0.929 . S
C1682 C1684 1.378 . S
C1682 C1686 1.350 . S
C1683 C1686 1.463 . S
C1683 C1688 1.350 . S
C1683 N1691 1.427 . S
C1684 H1675 0.930 . S
C1684 C1682 1.378 . S
C1684 C1685 1.367 . S
C1685 C1684 1.367 . S
C1685 C1687 1.433 . S
C1686 C1682 1.350 . S
C1686 C1683 1.463 . S
C1686 N1690 1.427 . S
C1687 H1677 0.929 . S
C1687 C1685 1.433 . S
C1687 N1690 1.384 . S
C1688 H1679 0.929 . S
C1688 C1680 1.378 . S
C1688 C1683 1.350 . S
C1689 H1676 0.929 . S
C1689 C1681 1.433 . S
C1689 N1691 1.384 . S
N1690 C1686 1.427 . S
N1690 C1687 1.384 . S
N1691 C1683 1.427 . S
N1691 C1689 1.384 . S
H1692 C1698 0.930 . S
H1693 C1702 0.930 . S
H1694 C1707 0.929 . S
H1695 C1705 0.929 . S
H1696 C1700 0.929 . S
H1697 C1706 0.929 . S
C1698 H1692 0.930 . S
C1698 C1699 1.367 . S
C1698 C1706 1.378 . S
C1699 C1698 1.367 . S
C1699 C1707 1.433 . S
C1700 H1696 0.929 . S
C1700 C1702 1.378 . S
C1700 C1704 1.350 . S
C1701 C1704 1.463 . S
C1701 C1706 1.350 . S
C1701 N1709 1.427 . S
C1702 H1693 0.930 . S
C1702 C1700 1.378 . S
C1702 C1703 1.367 . S
C1703 C1702 1.367 . S
C1703 C1705 1.433 . S
C1704 C1700 1.350 . S
C1704 C1701 1.463 . S
C1704 N1708 1.427 . S
C1705 H1695 0.929 . S
C1705 C1703 1.433 . S
C1705 N1708 1.384 . S
C1706 H1697 0.929 . S
C1706 C1698 1.378 . S
C1706 C1701 1.350 . S
C1707 H1694 0.929 . S
C1707 C1699 1.433 . S
C1707 N1709 1.384 . S
N1708 C1704 1.427 . S
N1708 C1705 1.384 . S
N1709 C1701 1.427 . S
N1709 C1707 1.384 . S
H1710 C1716 0.930 . S
H1711 C1720 0.930 . S
H1712 C1725 0.929 . S
H1713 C1723 0.929 . S
H1714 C1718 0.929 . S
H1715 C1724 0.929 . S
C1716 H1710 0.930 . S
C1716 C1717 1.367 . S
C1716 C1724 1.378 . S
C1717 C1716 1.367 . S
C1717 C1725 1.433 . S
C1718 H1714 0.929 . S
C1718 C1720 1.378 . S
C1718 C1722 1.350 . S
C1719 C1722 1.463 . S
C1719 C1724 1.350 . S
C1719 N1727 1.427 . S
C1720 H1711 0.930 . S
C1720 C1718 1.378 . S
C1720 C1721 1.367 . S
C1721 C1720 1.367 . S
C1721 C1723 1.433 . S
C1722 C1718 1.350 . S
C1722 C1719 1.463 . S
C1722 N1726 1.427 . S
C1723 H1713 0.929 . S
C1723 C1721 1.433 . S
C1723 N1726 1.384 . S
C1724 H1715 0.929 . S
C1724 C1716 1.378 . S
C1724 C1719 1.350 . S
C1725 H1712 0.929 . S
C1725 C1717 1.433 . S
C1725 N1727 1.384 . S
N1726 C1722 1.427 . S
N1726 C1723 1.384 . S
N1727 C1719 1.427 . S
N1727 C1725 1.384 . S
H1728 C1734 0.930 . S
H1729 C1738 0.930 . S
H1730 C1743 0.929 . S
H1731 C1741 0.929 . S
H1732 C1736 0.929 . S
H1733 C1742 0.929 . S
C1734 H1728 0.930 . S
C1734 C1735 1.367 . S
C1734 C1742 1.378 . S
C1735 C1734 1.367 . S
C1735 C1743 1.433 . S
C1736 H1732 0.929 . S
C1736 C1738 1.378 . S
C1736 C1740 1.350 . S
C1737 C1740 1.463 . S
C1737 C1742 1.350 . S
C1737 N1745 1.427 . S
C1738 H1729 0.930 . S
C1738 C1736 1.378 . S
C1738 C1739 1.367 . S
C1739 C1738 1.367 . S
C1739 C1741 1.433 . S
C1740 C1736 1.350 . S
C1740 C1737 1.463 . S
C1740 N1744 1.427 . S
C1741 H1731 0.929 . S
C1741 C1739 1.433 . S
C1741 N1744 1.384 . S
C1742 H1733 0.929 . S
C1742 C1734 1.378 . S
C1742 C1737 1.350 . S
C1743 H1730 0.929 . S
C1743 C1735 1.433 . S
C1743 N1745 1.384 . S
N1744 C1740 1.427 . S
N1744 C1741 1.384 . S
N1745 C1737 1.427 . S
N1745 C1743 1.384 . S
H1746 C1752 0.930 . S
H1747 C1756 0.930 . S
H1748 C1761 0.929 . S
H1749 C1759 0.929 . S
H1750 C1754 0.929 . S
H1751 C1760 0.929 . S
C1752 H1746 0.930 . S
C1752 C1753 1.367 1_545 S
C1752 C1760 1.378 . S
C1753 C1752 1.367 1_565 S
C1753 C1761 1.433 . S
C1754 H1750 0.929 . S
C1754 C1756 1.378 . S
C1754 C1758 1.350 1_565 S
C1755 C1758 1.463 . S
C1755 C1760 1.350 . S
C1755 N1763 1.427 1_545 S
C1756 H1747 0.930 . S
C1756 C1754 1.378 . S
C1756 C1757 1.367 1_565 S
C1757 C1756 1.367 1_545 S
C1757 C1759 1.433 . S
C1758 C1754 1.350 1_545 S
C1758 C1755 1.463 . S
C1758 N1762 1.427 . S
C1759 H1749 0.929 . S
C1759 C1757 1.433 . S
C1759 N1762 1.384 . S
C1760 H1751 0.929 . S
C1760 C1752 1.378 . S
C1760 C1755 1.350 . S
C1761 H1748 0.929 . S
C1761 C1753 1.433 . S
C1761 N1763 1.384 . S
N1762 C1758 1.427 . S
N1762 C1759 1.384 . S
N1763 C1755 1.427 1_565 S
N1763 C1761 1.384 . S
H1764 C1770 0.930 . S
H1765 C1774 0.930 . S
H1766 C1779 0.929 . S
H1767 C1777 0.929 . S
H1768 C1772 0.929 . S
H1769 C1778 0.929 . S
C1770 H1764 0.930 . S
C1770 C1771 1.367 . S
C1770 C1778 1.378 . S
C1771 C1770 1.367 . S
C1771 C1779 1.433 . S
C1772 H1768 0.929 . S
C1772 C1774 1.378 . S
C1772 C1776 1.350 . S
C1773 C1776 1.463 . S
C1773 C1778 1.350 . S
C1773 N1781 1.427 . S
C1774 H1765 0.930 . S
C1774 C1772 1.378 . S
C1774 C1775 1.367 . S
C1775 C1774 1.367 . S
C1775 C1777 1.433 . S
C1776 C1772 1.350 . S
C1776 C1773 1.463 . S
C1776 N1780 1.427 . S
C1777 H1767 0.929 . S
C1777 C1775 1.433 . S
C1777 N1780 1.384 . S
C1778 H1769 0.929 . S
C1778 C1770 1.378 . S
C1778 C1773 1.350 . S
C1779 H1766 0.929 . S
C1779 C1771 1.433 . S
C1779 N1781 1.384 . S
N1780 C1776 1.427 . S
N1780 C1777 1.384 . S
N1781 C1773 1.427 . S
N1781 C1779 1.384 . S
H1782 C1788 0.930 . S
H1783 C1792 0.930 . S
H1784 C1797 0.929 . S
H1785 C1795 0.929 . S
H1786 C1790 0.929 . S
H1787 C1796 0.929 . S
C1788 H1782 0.930 . S
C1788 C1789 1.367 . S
C1788 C1796 1.378 . S
C1789 C1788 1.367 . S
C1789 C1797 1.433 . S
C1790 H1786 0.929 . S
C1790 C1792 1.378 . S
C1790 C1794 1.350 . S
C1791 C1794 1.463 . S
C1791 C1796 1.350 . S
C1791 N1799 1.427 . S
C1792 H1783 0.930 . S
C1792 C1790 1.378 . S
C1792 C1793 1.367 . S
C1793 C1792 1.367 . S
C1793 C1795 1.433 . S
C1794 C1790 1.350 . S
C1794 C1791 1.463 . S
C1794 N1798 1.427 . S
C1795 H1785 0.929 . S
C1795 C1793 1.433 . S
C1795 N1798 1.384 . S
C1796 H1787 0.929 . S
C1796 C1788 1.378 . S
C1796 C1791 1.350 . S
C1797 H1784 0.929 . S
C1797 C1789 1.433 . S
C1797 N1799 1.384 . S
N1798 C1794 1.427 . S
N1798 C1795 1.384 . S
N1799 C1791 1.427 . S
N1799 C1797 1.384 . S
H1800 C1806 0.930 . S
H1801 C1810 0.930 . S
H1802 C1815 0.929 . S
H1803 C1813 0.929 . S
H1804 C1808 0.929 . S
H1805 C1814 0.929 . S
C1806 H1800 0.930 . S
C1806 C1807 1.367 . S
C1806 C1814 1.378 . S
C1807 C1806 1.367 . S
C1807 C1815 1.433 . S
C1808 H1804 0.929 . S
C1808 C1810 1.378 . S
C1808 C1812 1.350 . S
C1809 C1812 1.463 . S
C1809 C1814 1.350 . S
C1809 N1817 1.427 . S
C1810 H1801 0.930 . S
C1810 C1808 1.378 . S
C1810 C1811 1.367 . S
C1811 C1810 1.367 . S
C1811 C1813 1.433 . S
C1812 C1808 1.350 . S
C1812 C1809 1.463 . S
C1812 N1816 1.427 . S
C1813 H1803 0.929 . S
C1813 C1811 1.433 . S
C1813 N1816 1.384 . S
C1814 H1805 0.929 . S
C1814 C1806 1.378 . S
C1814 C1809 1.350 . S
C1815 H1802 0.929 . S
C1815 C1807 1.433 . S
C1815 N1817 1.384 . S
N1816 C1812 1.427 . S
N1816 C1813 1.384 . S
N1817 C1809 1.427 . S
N1817 C1815 1.384 . S
H1818 C1824 0.930 . S
H1819 C1828 0.930 . S
H1820 C1833 0.929 . S
H1821 C1831 0.929 . S
H1822 C1826 0.929 . S
H1823 C1832 0.929 . S
C1824 H1818 0.930 . S
C1824 C1825 1.367 . S
C1824 C1832 1.378 . S
C1825 C1824 1.367 . S
C1825 C1833 1.433 . S
C1826 H1822 0.929 . S
C1826 C1828 1.378 . S
C1826 C1830 1.350 . S
C1827 C1830 1.463 . S
C1827 C1832 1.350 . S
C1827 N1835 1.427 . S
C1828 H1819 0.930 . S
C1828 C1826 1.378 . S
C1828 C1829 1.367 . S
C1829 C1828 1.367 . S
C1829 C1831 1.433 . S
C1830 C1826 1.350 . S
C1830 C1827 1.463 . S
C1830 N1834 1.427 . S
C1831 H1821 0.929 . S
C1831 C1829 1.433 . S
C1831 N1834 1.384 . S
C1832 H1823 0.929 . S
C1832 C1824 1.378 . S
C1832 C1827 1.350 . S
C1833 H1820 0.929 . S
C1833 C1825 1.433 . S
C1833 N1835 1.384 . S
N1834 C1830 1.427 . S
N1834 C1831 1.384 . S
N1835 C1827 1.427 . S
N1835 C1833 1.384 . S
H1836 C1842 0.930 . S
H1837 C1846 0.930 . S
H1838 C1851 0.929 . S
H1839 C1849 0.929 . S
H1840 C1844 0.929 . S
H1841 C1850 0.929 . S
C1842 H1836 0.930 . S
C1842 C1843 1.367 . S
C1842 C1850 1.378 . S
C1843 C1842 1.367 . S
C1843 C1851 1.433 . S
C1844 H1840 0.929 . S
C1844 C1846 1.378 . S
C1844 C1848 1.350 . S
C1845 C1848 1.463 . S
C1845 C1850 1.350 . S
C1845 N1853 1.427 . S
C1846 H1837 0.930 . S
C1846 C1844 1.378 . S
C1846 C1847 1.367 . S
C1847 C1846 1.367 . S
C1847 C1849 1.433 . S
C1848 C1844 1.350 . S
C1848 C1845 1.463 . S
C1848 N1852 1.427 . S
C1849 H1839 0.929 . S
C1849 C1847 1.433 . S
C1849 N1852 1.384 . S
C1850 H1841 0.929 . S
C1850 C1842 1.378 . S
C1850 C1845 1.350 . S
C1851 H1838 0.929 . S
C1851 C1843 1.433 . S
C1851 N1853 1.384 . S
N1852 C1848 1.427 . S
N1852 C1849 1.384 . S
N1853 C1845 1.427 . S
N1853 C1851 1.384 . S
H1854 C1860 0.928 . S
H1855 C1864 0.930 . S
H1856 C1869 0.929 . S
H1857 C1867 0.929 . S
H1858 C1862 0.929 . S
H1859 C1868 0.929 . S
C1860 H1854 0.928 . S
C1860 C1861 1.367 . S
C1860 C1868 1.378 . S
C1861 C1860 1.367 . S
C1861 C1869 1.433 . S
C1862 H1858 0.929 . S
C1862 C1864 1.378 . S
C1862 C1866 1.350 . S
C1863 C1866 1.463 . S
C1863 C1868 1.350 . S
C1863 N1871 1.427 . S
C1864 H1855 0.930 . S
C1864 C1862 1.378 . S
C1864 C1865 1.367 . S
C1865 C1864 1.367 . S
C1865 C1867 1.433 . S
C1866 C1862 1.350 . S
C1866 C1863 1.463 . S
C1866 N1870 1.427 . S
C1867 H1857 0.929 . S
C1867 C1865 1.433 . S
C1867 N1870 1.384 . S
C1868 H1859 0.929 . S
C1868 C1860 1.378 . S
C1868 C1863 1.350 . S
C1869 H1856 0.929 . S
C1869 C1861 1.433 . S
C1869 N1871 1.384 . S
N1870 C1866 1.427 . S
N1870 C1867 1.384 . S
N1871 C1863 1.427 . S
N1871 C1869 1.384 . S
H1872 C1878 0.930 . S
H1873 C1882 0.930 . S
H1874 C1887 0.929 . S
H1875 C1885 0.929 . S
H1876 C1880 0.929 . S
H1877 C1886 0.929 . S
C1878 H1872 0.930 . S
C1878 C1879 1.367 . S
C1878 C1886 1.378 . S
C1879 C1878 1.367 . S
C1879 C1887 1.433 . S
C1880 H1876 0.929 . S
C1880 C1882 1.378 . S
C1880 C1884 1.350 . S
C1881 C1884 1.463 . S
C1881 C1886 1.350 . S
C1881 N1889 1.427 . S
C1882 H1873 0.930 . S
C1882 C1880 1.378 . S
C1882 C1883 1.367 . S
C1883 C1882 1.367 . S
C1883 C1885 1.433 . S
C1884 C1880 1.350 . S
C1884 C1881 1.463 . S
C1884 N1888 1.427 . S
C1885 H1875 0.929 . S
C1885 C1883 1.433 . S
C1885 N1888 1.384 . S
C1886 H1877 0.929 . S
C1886 C1878 1.378 . S
C1886 C1881 1.350 . S
C1887 H1874 0.929 . S
C1887 C1879 1.433 . S
C1887 N1889 1.384 . S
N1888 C1884 1.427 . S
N1888 C1885 1.384 . S
N1889 C1881 1.427 . S
N1889 C1887 1.384 . S
H1890 C1896 0.930 . S
H1891 C1900 0.930 1_655 S
H1892 C1905 0.929 . S
H1893 C1903 0.929 . S
H1894 C1898 0.929 1_655 S
H1895 C1904 0.929 . S
C1896 H1890 0.930 . S
C1896 C1897 1.367 . S
C1896 C1904 1.378 . S
C1897 C1896 1.367 . S
C1897 C1905 1.433 . S
C1898 H1894 0.929 1_455 S
C1898 C1900 1.378 . S
C1898 C1902 1.350 . S
C1899 C1902 1.463 . S
C1899 C1904 1.350 . S
C1899 N1907 1.427 . S
C1900 H1891 0.930 1_455 S
C1900 C1898 1.378 . S
C1900 C1901 1.367 . S
C1901 C1900 1.367 . S
C1901 C1903 1.433 . S
C1902 C1898 1.350 . S
C1902 C1899 1.463 . S
C1902 N1906 1.427 . S
C1903 H1893 0.929 . S
C1903 C1901 1.433 . S
C1903 N1906 1.384 . S
C1904 H1895 0.929 . S
C1904 C1896 1.378 . S
C1904 C1899 1.350 . S
C1905 H1892 0.929 . S
C1905 C1897 1.433 . S
C1905 N1907 1.384 . S
N1906 C1902 1.427 . S
N1906 C1903 1.384 . S
N1907 C1899 1.427 . S
N1907 C1905 1.384 . S
H1908 C1914 0.930 . S
H1909 C1918 0.930 . S
H1910 C1923 0.929 . S
H1911 C1921 0.929 . S
H1912 C1916 0.929 . S
H1913 C1922 0.929 . S
C1914 H1908 0.930 . S
C1914 C1915 1.367 . S
C1914 C1922 1.378 . S
C1915 C1914 1.367 . S
C1915 C1923 1.433 . S
C1916 H1912 0.929 . S
C1916 C1918 1.378 . S
C1916 C1920 1.350 . S
C1917 C1920 1.463 . S
C1917 C1922 1.350 . S
C1917 N1925 1.427 . S
C1918 H1909 0.930 . S
C1918 C1916 1.378 . S
C1918 C1919 1.367 . S
C1919 C1918 1.367 . S
C1919 C1921 1.433 . S
C1920 C1916 1.350 . S
C1920 C1917 1.463 . S
C1920 N1924 1.427 . S
C1921 H1911 0.929 . S
C1921 C1919 1.433 . S
C1921 N1924 1.384 . S
C1922 H1913 0.929 . S
C1922 C1914 1.378 . S
C1922 C1917 1.350 . S
C1923 H1910 0.929 . S
C1923 C1915 1.433 . S
C1923 N1925 1.384 . S
N1924 C1920 1.427 . S
N1924 C1921 1.384 . S
N1925 C1917 1.427 . S
N1925 C1923 1.384 . S
H1926 C1932 0.930 . S
H1927 C1936 0.930 . S
H1928 C1941 0.929 . S
H1929 C1939 0.929 . S
H1930 C1934 0.929 . S
H1931 C1940 0.929 . S
C1932 H1926 0.930 . S
C1932 C1933 1.367 . S
C1932 C1940 1.378 . S
C1933 C1932 1.367 . S
C1933 C1941 1.433 . S
C1934 H1930 0.929 . S
C1934 C1936 1.378 . S
C1934 C1938 1.350 . S
C1935 C1938 1.463 . S
C1935 C1940 1.350 . S
C1935 N1943 1.427 . S
C1936 H1927 0.930 . S
C1936 C1934 1.378 . S
C1936 C1937 1.367 . S
C1937 C1936 1.367 . S
C1937 C1939 1.433 . S
C1938 C1934 1.350 . S
C1938 C1935 1.463 . S
C1938 N1942 1.427 . S
C1939 H1929 0.929 . S
C1939 C1937 1.433 . S
C1939 N1942 1.384 . S
C1940 H1931 0.929 . S
C1940 C1932 1.378 . S
C1940 C1935 1.350 . S
C1941 H1928 0.929 . S
C1941 C1933 1.433 . S
C1941 N1943 1.384 . S
N1942 C1938 1.427 . S
N1942 C1939 1.384 . S
N1943 C1935 1.427 . S
N1943 C1941 1.384 . S
H1944 C1950 0.930 . S
H1945 C1954 0.930 . S
H1946 C1959 0.929 . S
H1947 C1957 0.929 . S
H1948 C1952 0.929 . S
H1949 C1958 0.929 . S
C1950 H1944 0.930 . S
C1950 C1951 1.367 . S
C1950 C1958 1.378 . S
C1951 C1950 1.367 . S
C1951 C1959 1.433 . S
C1952 H1948 0.929 . S
C1952 C1954 1.378 . S
C1952 C1956 1.350 . S
C1953 C1956 1.463 . S
C1953 C1958 1.350 . S
C1953 N1961 1.427 . S
C1954 H1945 0.930 . S
C1954 C1952 1.378 . S
C1954 C1955 1.367 . S
C1955 C1954 1.367 . S
C1955 C1957 1.433 . S
C1956 C1952 1.350 . S
C1956 C1953 1.463 . S
C1956 N1960 1.427 . S
C1957 H1947 0.929 . S
C1957 C1955 1.433 . S
C1957 N1960 1.384 . S
C1958 H1949 0.929 . S
C1958 C1950 1.378 . S
C1958 C1953 1.350 . S
C1959 H1946 0.929 . S
C1959 C1951 1.433 . S
C1959 N1961 1.384 . S
N1960 C1956 1.427 . S
N1960 C1957 1.384 . S
N1961 C1953 1.427 . S
N1961 C1959 1.384 . S
H1962 C1968 0.930 . S
H1963 C1972 0.930 . S
H1964 C1977 0.929 . S
H1965 C1975 0.929 . S
H1966 C1970 0.929 . S
H1967 C1976 0.929 . S
C1968 H1962 0.930 . S
C1968 C1969 1.367 . S
C1968 C1976 1.378 . S
C1969 C1968 1.367 . S
C1969 C1977 1.433 . S
C1970 H1966 0.929 . S
C1970 C1972 1.378 . S
C1970 C1974 1.350 . S
C1971 C1974 1.463 . S
C1971 C1976 1.350 . S
C1971 N1979 1.427 . S
C1972 H1963 0.930 . S
C1972 C1970 1.378 . S
C1972 C1973 1.367 . S
C1973 C1972 1.367 . S
C1973 C1975 1.433 . S
C1974 C1970 1.350 . S
C1974 C1971 1.463 . S
C1974 N1978 1.427 . S
C1975 H1965 0.929 . S
C1975 C1973 1.433 . S
C1975 N1978 1.384 . S
C1976 H1967 0.929 . S
C1976 C1968 1.378 . S
C1976 C1971 1.350 . S
C1977 H1964 0.929 . S
C1977 C1969 1.433 . S
C1977 N1979 1.384 . S
N1978 C1974 1.427 . S
N1978 C1975 1.384 . S
N1979 C1971 1.427 . S
N1979 C1977 1.384 . S
H1980 C1986 0.930 . S
H1981 C1990 0.930 . S
H1982 C1995 0.929 . S
H1983 C1993 0.929 . S
H1984 C1988 0.953 . S
H1985 C1994 0.929 . S
C1986 H1980 0.930 . S
C1986 C1987 1.367 . S
C1986 C1994 1.378 . S
C1987 C1986 1.367 . S
C1987 C1995 1.433 . S
C1988 H1984 0.953 . S
C1988 C1990 1.351 1_556 S
C1988 C1992 1.353 . S
C1989 C1992 1.463 . S
C1989 C1994 1.350 . S
C1989 N1997 1.427 . S
C1990 H1981 0.930 . S
C1990 C1988 1.351 1_554 S
C1990 C1991 1.367 . S
C1991 C1990 1.367 . S
C1991 C1993 1.433 . S
C1992 C1988 1.353 . S
C1992 C1989 1.463 . S
C1992 N1996 1.427 1_556 S
C1993 H1983 0.929 . S
C1993 C1991 1.433 . S
C1993 N1996 1.384 . S
C1994 H1985 0.929 . S
C1994 C1986 1.378 . S
C1994 C1989 1.350 . S
C1995 H1982 0.929 . S
C1995 C1987 1.433 . S
C1995 N1997 1.384 . S
N1996 C1992 1.427 1_554 S
N1996 C1993 1.384 . S
N1997 C1989 1.427 . S
N1997 C1995 1.384 . S
H1998 C2004 0.930 . S
H1999 C2008 0.930 . S
H2000 C2013 0.929 . S
H2001 C2011 0.929 . S
H2002 C2006 0.930 . S
H2003 C2012 0.929 . S
C2004 H1998 0.930 . S
C2004 C2005 1.367 . S
C2004 C2012 1.378 . S
C2005 C2004 1.367 . S
C2005 C2013 1.433 . S
C2006 H2002 0.930 . S
C2006 C2008 1.378 1_556 S
C2006 C2010 1.350 . S
C2007 C2010 1.463 . S
C2007 C2012 1.350 . S
C2007 N2015 1.427 . S
C2008 H1999 0.930 . S
C2008 C2006 1.378 1_554 S
C2008 C2009 1.367 . S
C2009 C2008 1.367 . S
C2009 C2011 1.433 1_554 S
C2010 C2006 1.350 . S
C2010 C2007 1.463 . S
C2010 N2014 1.427 . S
C2011 H2001 0.929 . S
C2011 C2009 1.433 1_556 S
C2011 N2014 1.384 . S
C2012 H2003 0.929 . S
C2012 C2004 1.378 . S
C2012 C2007 1.350 . S
C2013 H2000 0.929 . S
C2013 C2005 1.433 . S
C2013 N2015 1.384 . S
N2014 C2010 1.427 . S
N2014 C2011 1.384 . S
N2015 C2007 1.427 . S
N2015 C2013 1.384 . S
H2016 C2022 0.930 . S
H2017 C2026 0.930 . S
H2018 C2031 0.929 . S
H2019 C2029 0.929 . S
H2020 C2024 0.929 . S
H2021 C2030 0.929 . S
C2022 H2016 0.930 . S
C2022 C2023 1.367 . S
C2022 C2030 1.378 . S
C2023 C2022 1.367 . S
C2023 C2031 1.433 . S
C2024 H2020 0.929 . S
C2024 C2026 1.378 . S
C2024 C2028 1.352 1_554 S
C2025 C2028 1.459 . S
C2025 C2030 1.350 . S
C2025 N2033 1.427 . S
C2026 H2017 0.930 . S
C2026 C2024 1.378 . S
C2026 C2027 1.367 . S
C2027 C2026 1.367 . S
C2027 C2029 1.433 . S
C2028 C2024 1.352 1_556 S
C2028 C2025 1.459 . S
C2028 N2032 1.428 1_556 S
C2029 H2019 0.929 . S
C2029 C2027 1.433 . S
C2029 N2032 1.384 . S
C2030 H2021 0.929 . S
C2030 C2022 1.378 . S
C2030 C2025 1.350 . S
C2031 H2018 0.929 . S
C2031 C2023 1.433 . S
C2031 N2033 1.384 . S
N2032 C2028 1.428 1_554 S
N2032 C2029 1.384 . S
N2033 C2025 1.427 . S
N2033 C2031 1.384 . S
H2034 C2040 0.930 . S
H2035 C2044 0.930 . S
H2036 C2049 0.929 . S
H2037 C2047 0.929 . S
H2038 C2042 0.929 . S
H2039 C2048 0.929 . S
C2040 H2034 0.930 . S
C2040 C2041 1.367 . S
C2040 C2048 1.378 . S
C2041 C2040 1.367 . S
C2041 C2049 1.433 . S
C2042 H2038 0.929 . S
C2042 C2044 1.378 . S
C2042 C2046 1.350 . S
C2043 C2046 1.463 . S
C2043 C2048 1.350 . S
C2043 N2051 1.427 . S
C2044 H2035 0.930 . S
C2044 C2042 1.378 . S
C2044 C2045 1.367 . S
C2045 C2044 1.367 . S
C2045 C2047 1.433 . S
C2046 C2042 1.350 . S
C2046 C2043 1.463 . S
C2046 N2050 1.427 . S
C2047 H2037 0.929 . S
C2047 C2045 1.433 . S
C2047 N2050 1.384 . S
C2048 H2039 0.929 . S
C2048 C2040 1.378 . S
C2048 C2043 1.350 . S
C2049 H2036 0.929 . S
C2049 C2041 1.433 . S
C2049 N2051 1.384 . S
N2050 C2046 1.427 . S
N2050 C2047 1.384 . S
N2051 C2043 1.427 . S
N2051 C2049 1.384 . S
H2052 C2058 0.930 . S
H2053 C2062 0.930 . S
H2054 C2067 0.929 . S
H2055 C2065 0.929 . S
H2056 C2060 0.929 . S
H2057 C2066 0.929 . S
C2058 H2052 0.930 . S
C2058 C2059 1.367 . S
C2058 C2066 1.378 . S
C2059 C2058 1.367 . S
C2059 C2067 1.433 . S
C2060 H2056 0.929 . S
C2060 C2062 1.378 . S
C2060 C2064 1.350 . S
C2061 C2064 1.463 . S
C2061 C2066 1.350 . S
C2061 N2069 1.427 . S
C2062 H2053 0.930 . S
C2062 C2060 1.378 . S
C2062 C2063 1.367 . S
C2063 C2062 1.367 . S
C2063 C2065 1.433 . S
C2064 C2060 1.350 . S
C2064 C2061 1.463 . S
C2064 N2068 1.427 . S
C2065 H2055 0.929 . S
C2065 C2063 1.433 . S
C2065 N2068 1.384 . S
C2066 H2057 0.929 . S
C2066 C2058 1.378 . S
C2066 C2061 1.350 . S
C2067 H2054 0.929 . S
C2067 C2059 1.433 . S
C2067 N2069 1.384 . S
N2068 C2064 1.427 . S
N2068 C2065 1.384 . S
N2069 C2061 1.427 . S
N2069 C2067 1.384 . S
H2070 C2076 0.930 . S
H2071 C2080 0.930 . S
H2072 C2085 0.929 . S
H2073 C2083 0.929 . S
H2074 C2078 0.929 . S
H2075 C2084 0.929 . S
C2076 H2070 0.930 . S
C2076 C2077 1.367 . S
C2076 C2084 1.378 . S
C2077 C2076 1.367 . S
C2077 C2085 1.433 . S
C2078 H2074 0.929 . S
C2078 C2080 1.378 . S
C2078 C2082 1.350 . S
C2079 C2082 1.463 . S
C2079 C2084 1.350 . S
C2079 N2087 1.427 . S
C2080 H2071 0.930 . S
C2080 C2078 1.378 . S
C2080 C2081 1.367 . S
C2081 C2080 1.367 . S
C2081 C2083 1.433 . S
C2082 C2078 1.350 . S
C2082 C2079 1.463 . S
C2082 N2086 1.427 . S
C2083 H2073 0.929 . S
C2083 C2081 1.433 . S
C2083 N2086 1.384 . S
C2084 H2075 0.929 . S
C2084 C2076 1.378 . S
C2084 C2079 1.350 . S
C2085 H2072 0.929 . S
C2085 C2077 1.433 . S
C2085 N2087 1.384 . S
N2086 C2082 1.427 . S
N2086 C2083 1.384 . S
N2087 C2079 1.427 . S
N2087 C2085 1.384 . S
H2088 C2094 0.930 . S
H2089 C2098 0.930 . S
H2090 C2103 0.929 . S
H2091 C2101 0.929 . S
H2092 C2096 0.929 . S
H2093 C2102 0.929 . S
C2094 H2088 0.930 . S
C2094 C2095 1.367 . S
C2094 C2102 1.378 . S
C2095 C2094 1.367 . S
C2095 C2103 1.433 . S
C2096 H2092 0.929 . S
C2096 C2098 1.378 . S
C2096 C2100 1.350 . S
C2097 C2100 1.463 . S
C2097 C2102 1.350 . S
C2097 N2105 1.427 . S
C2098 H2089 0.930 . S
C2098 C2096 1.378 . S
C2098 C2099 1.367 . S
C2099 C2098 1.367 . S
C2099 C2101 1.433 . S
C2100 C2096 1.350 . S
C2100 C2097 1.463 . S
C2100 N2104 1.427 . S
C2101 H2091 0.929 . S
C2101 C2099 1.433 . S
C2101 N2104 1.384 . S
C2102 H2093 0.929 . S
C2102 C2094 1.378 . S
C2102 C2097 1.350 . S
C2103 H2090 0.929 . S
C2103 C2095 1.433 . S
C2103 N2105 1.384 . S
N2104 C2100 1.427 . S
N2104 C2101 1.384 . S
N2105 C2097 1.427 . S
N2105 C2103 1.384 . S
H2106 C2112 0.930 . S
H2107 C2116 0.930 . S
H2108 C2121 0.929 . S
H2109 C2119 0.929 . S
H2110 C2114 0.929 . S
H2111 C2120 0.929 . S
C2112 H2106 0.930 . S
C2112 C2113 1.367 . S
C2112 C2120 1.378 . S
C2113 C2112 1.367 . S
C2113 C2121 1.433 . S
C2114 H2110 0.929 . S
C2114 C2116 1.378 . S
C2114 C2118 1.350 . S
C2115 C2118 1.463 . S
C2115 C2120 1.350 . S
C2115 N2123 1.427 . S
C2116 H2107 0.930 . S
C2116 C2114 1.378 . S
C2116 C2117 1.367 . S
C2117 C2116 1.367 . S
C2117 C2119 1.433 . S
C2118 C2114 1.350 . S
C2118 C2115 1.463 . S
C2118 N2122 1.427 . S
C2119 H2109 0.929 . S
C2119 C2117 1.433 . S
C2119 N2122 1.384 . S
C2120 H2111 0.929 . S
C2120 C2112 1.378 . S
C2120 C2115 1.350 . S
C2121 H2108 0.929 . S
C2121 C2113 1.433 . S
C2121 N2123 1.384 . S
N2122 C2118 1.427 . S
N2122 C2119 1.384 . S
N2123 C2115 1.427 . S
N2123 C2121 1.384 . S
H2124 C2130 0.930 . S
H2125 C2134 0.930 . S
H2126 C2139 0.929 . S
H2127 C2137 0.929 . S
H2128 C2132 0.929 . S
H2129 C2138 0.929 . S
C2130 H2124 0.930 . S
C2130 C2131 1.367 . S
C2130 C2138 1.378 . S
C2131 C2130 1.367 . S
C2131 C2139 1.433 . S
C2132 H2128 0.929 . S
C2132 C2134 1.378 . S
C2132 C2136 1.350 . S
C2133 C2136 1.463 . S
C2133 C2138 1.350 . S
C2133 N2141 1.427 . S
C2134 H2125 0.930 . S
C2134 C2132 1.378 . S
C2134 C2135 1.367 . S
C2135 C2134 1.367 . S
C2135 C2137 1.433 . S
C2136 C2132 1.350 . S
C2136 C2133 1.463 . S
C2136 N2140 1.427 . S
C2137 H2127 0.929 . S
C2137 C2135 1.433 . S
C2137 N2140 1.384 . S
C2138 H2129 0.929 . S
C2138 C2130 1.378 . S
C2138 C2133 1.350 . S
C2139 H2126 0.929 . S
C2139 C2131 1.433 . S
C2139 N2141 1.384 . S
N2140 C2136 1.427 . S
N2140 C2137 1.384 . S
N2141 C2133 1.427 . S
N2141 C2139 1.384 . S
H2142 C2148 0.930 . S
H2143 C2152 0.930 . S
H2144 C2157 0.929 . S
H2145 C2155 0.929 . S
H2146 C2150 0.929 . S
H2147 C2156 0.929 . S
C2148 H2142 0.930 . S
C2148 C2149 1.367 . S
C2148 C2156 1.378 . S
C2149 C2148 1.367 . S
C2149 C2157 1.433 . S
C2150 H2146 0.929 . S
C2150 C2152 1.378 . S
C2150 C2154 1.350 . S
C2151 C2154 1.463 . S
C2151 C2156 1.350 . S
C2151 N2159 1.427 . S
C2152 H2143 0.930 . S
C2152 C2150 1.378 . S
C2152 C2153 1.367 . S
C2153 C2152 1.367 . S
C2153 C2155 1.433 . S
C2154 C2150 1.350 . S
C2154 C2151 1.463 . S
C2154 N2158 1.427 . S
C2155 H2145 0.929 . S
C2155 C2153 1.433 . S
C2155 N2158 1.384 . S
C2156 H2147 0.929 . S
C2156 C2148 1.378 . S
C2156 C2151 1.350 . S
C2157 H2144 0.929 . S
C2157 C2149 1.433 . S
C2157 N2159 1.384 . S
N2158 C2154 1.427 . S
N2158 C2155 1.384 . S
N2159 C2151 1.427 . S
N2159 C2157 1.384 . S
H2160 C2166 0.930 . S
H2161 C2170 0.930 . S
H2162 C2175 0.929 . S
H2163 C2173 0.929 . S
H2164 C2168 0.929 . S
H2165 C2174 0.929 . S
C2166 H2160 0.930 . S
C2166 C2167 1.367 . S
C2166 C2174 1.378 . S
C2167 C2166 1.367 . S
C2167 C2175 1.433 . S
C2168 H2164 0.929 . S
C2168 C2170 1.378 . S
C2168 C2172 1.350 . S
C2169 C2172 1.463 . S
C2169 C2174 1.350 . S
C2169 N2177 1.427 . S
C2170 H2161 0.930 . S
C2170 C2168 1.378 . S
C2170 C2171 1.367 . S
C2171 C2170 1.367 . S
C2171 C2173 1.433 . S
C2172 C2168 1.350 . S
C2172 C2169 1.463 . S
C2172 N2176 1.427 . S
C2173 H2163 0.929 . S
C2173 C2171 1.433 . S
C2173 N2176 1.384 . S
C2174 H2165 0.929 . S
C2174 C2166 1.378 . S
C2174 C2169 1.350 . S
C2175 H2162 0.929 . S
C2175 C2167 1.433 . S
C2175 N2177 1.384 . S
N2176 C2172 1.427 . S
N2176 C2173 1.384 . S
N2177 C2169 1.427 . S
N2177 C2175 1.384 . S
H2178 C2184 0.930 . S
H2179 C2188 0.930 . S
H2180 C2193 0.929 . S
H2181 C2191 0.929 . S
H2182 C2186 0.929 . S
H2183 C2192 0.929 . S
C2184 H2178 0.930 . S
C2184 C2185 1.367 . S
C2184 C2192 1.378 . S
C2185 C2184 1.367 . S
C2185 C2193 1.433 . S
C2186 H2182 0.929 . S
C2186 C2188 1.378 . S
C2186 C2190 1.350 . S
C2187 C2190 1.463 . S
C2187 C2192 1.350 . S
C2187 N2195 1.427 . S
C2188 H2179 0.930 . S
C2188 C2186 1.378 . S
C2188 C2189 1.367 . S
C2189 C2188 1.367 . S
C2189 C2191 1.433 . S
C2190 C2186 1.350 . S
C2190 C2187 1.463 . S
C2190 N2194 1.427 . S
C2191 H2181 0.929 . S
C2191 C2189 1.433 . S
C2191 N2194 1.384 . S
C2192 H2183 0.929 . S
C2192 C2184 1.378 . S
C2192 C2187 1.350 . S
C2193 H2180 0.929 . S
C2193 C2185 1.433 . S
C2193 N2195 1.384 . S
N2194 C2190 1.427 . S
N2194 C2191 1.384 . S
N2195 C2187 1.427 . S
N2195 C2193 1.384 . S
H2196 C2202 0.930 . S
H2197 C2206 0.930 . S
H2198 C2211 0.929 . S
H2199 C2209 0.929 . S
H2200 C2204 0.929 . S
H2201 C2210 0.929 . S
C2202 H2196 0.930 . S
C2202 C2203 1.367 . S
C2202 C2210 1.378 . S
C2203 C2202 1.367 . S
C2203 C2211 1.433 . S
C2204 H2200 0.929 . S
C2204 C2206 1.378 . S
C2204 C2208 1.350 . S
C2205 C2208 1.463 . S
C2205 C2210 1.350 . S
C2205 N2213 1.427 . S
C2206 H2197 0.930 . S
C2206 C2204 1.378 . S
C2206 C2207 1.367 . S
C2207 C2206 1.367 . S
C2207 C2209 1.433 . S
C2208 C2204 1.350 . S
C2208 C2205 1.463 . S
C2208 N2212 1.427 . S
C2209 H2199 0.929 . S
C2209 C2207 1.433 . S
C2209 N2212 1.384 . S
C2210 H2201 0.929 . S
C2210 C2202 1.378 . S
C2210 C2205 1.350 . S
C2211 H2198 0.929 . S
C2211 C2203 1.433 . S
C2211 N2213 1.384 . S
N2212 C2208 1.427 . S
N2212 C2209 1.384 . S
N2213 C2205 1.427 . S
N2213 C2211 1.384 . S
H2214 C2220 0.930 . S
H2215 C2224 0.930 . S
H2216 C2229 0.929 . S
H2217 C2227 0.929 . S
H2218 C2222 0.929 . S
H2219 C2228 0.929 . S
C2220 H2214 0.930 . S
C2220 C2221 1.367 . S
C2220 C2228 1.378 . S
C2221 C2220 1.367 . S
C2221 C2229 1.433 . S
C2222 H2218 0.929 . S
C2222 C2224 1.378 . S
C2222 C2226 1.350 . S
C2223 C2226 1.463 . S
C2223 C2228 1.350 . S
C2223 N2231 1.427 . S
C2224 H2215 0.930 . S
C2224 C2222 1.378 . S
C2224 C2225 1.367 . S
C2225 C2224 1.367 . S
C2225 C2227 1.433 . S
C2226 C2222 1.350 . S
C2226 C2223 1.463 . S
C2226 N2230 1.427 . S
C2227 H2217 0.929 . S
C2227 C2225 1.433 . S
C2227 N2230 1.384 . S
C2228 H2219 0.929 . S
C2228 C2220 1.378 . S
C2228 C2223 1.350 . S
C2229 H2216 0.929 . S
C2229 C2221 1.433 . S
C2229 N2231 1.384 . S
N2230 C2226 1.427 . S
N2230 C2227 1.384 . S
N2231 C2223 1.427 . S
N2231 C2229 1.384 . S
H2232 C2238 0.930 . S
H2233 C2242 0.930 . S
H2234 C2247 0.929 . S
H2235 C2245 0.929 . S
H2236 C2240 0.929 . S
H2237 C2246 0.929 . S
C2238 H2232 0.930 . S
C2238 C2239 1.367 . S
C2238 C2246 1.378 . S
C2239 C2238 1.367 . S
C2239 C2247 1.433 . S
C2240 H2236 0.929 . S
C2240 C2242 1.378 . S
C2240 C2244 1.350 . S
C2241 C2244 1.463 . S
C2241 C2246 1.350 . S
C2241 N2249 1.427 . S
C2242 H2233 0.930 . S
C2242 C2240 1.378 . S
C2242 C2243 1.367 . S
C2243 C2242 1.367 . S
C2243 C2245 1.433 . S
C2244 C2240 1.350 . S
C2244 C2241 1.463 . S
C2244 N2248 1.427 . S
C2245 H2235 0.929 . S
C2245 C2243 1.433 . S
C2245 N2248 1.384 . S
C2246 H2237 0.929 . S
C2246 C2238 1.378 . S
C2246 C2241 1.350 . S
C2247 H2234 0.929 . S
C2247 C2239 1.433 . S
C2247 N2249 1.384 . S
N2248 C2244 1.427 . S
N2248 C2245 1.384 . S
N2249 C2241 1.427 . S
N2249 C2247 1.384 . S
H2250 C2256 0.930 . S
H2251 C2260 0.930 . S
H2252 C2265 0.929 . S
H2253 C2263 0.929 . S
H2254 C2258 0.929 . S
H2255 C2264 0.929 . S
C2256 H2250 0.930 . S
C2256 C2257 1.367 . S
C2256 C2264 1.378 . S
C2257 C2256 1.367 . S
C2257 C2265 1.433 . S
C2258 H2254 0.929 . S
C2258 C2260 1.378 . S
C2258 C2262 1.350 . S
C2259 C2262 1.463 . S
C2259 C2264 1.350 . S
C2259 N2267 1.427 . S
C2260 H2251 0.930 . S
C2260 C2258 1.378 . S
C2260 C2261 1.367 . S
C2261 C2260 1.367 . S
C2261 C2263 1.433 . S
C2262 C2258 1.350 . S
C2262 C2259 1.463 . S
C2262 N2266 1.427 . S
C2263 H2253 0.929 . S
C2263 C2261 1.433 . S
C2263 N2266 1.384 . S
C2264 H2255 0.929 . S
C2264 C2256 1.378 . S
C2264 C2259 1.350 . S
C2265 H2252 0.929 . S
C2265 C2257 1.433 . S
C2265 N2267 1.384 . S
N2266 C2262 1.427 . S
N2266 C2263 1.384 . S
N2267 C2259 1.427 . S
N2267 C2265 1.384 . S
H2268 C2274 0.930 . S
H2269 C2278 0.930 . S
H2270 C2283 0.929 . S
H2271 C2281 0.929 . S
H2272 C2276 0.929 . S
H2273 C2282 0.929 . S
C2274 H2268 0.930 . S
C2274 C2275 1.367 . S
C2274 C2282 1.378 . S
C2275 C2274 1.367 . S
C2275 C2283 1.433 . S
C2276 H2272 0.929 . S
C2276 C2278 1.378 . S
C2276 C2280 1.350 . S
C2277 C2280 1.463 . S
C2277 C2282 1.350 . S
C2277 N2285 1.427 . S
C2278 H2269 0.930 . S
C2278 C2276 1.378 . S
C2278 C2279 1.367 . S
C2279 C2278 1.367 . S
C2279 C2281 1.433 . S
C2280 C2276 1.350 . S
C2280 C2277 1.463 . S
C2280 N2284 1.427 . S
C2281 H2271 0.929 . S
C2281 C2279 1.433 . S
C2281 N2284 1.384 . S
C2282 H2273 0.929 . S
C2282 C2274 1.378 . S
C2282 C2277 1.350 . S
C2283 H2270 0.929 . S
C2283 C2275 1.433 . S
C2283 N2285 1.384 . S
N2284 C2280 1.427 . S
N2284 C2281 1.384 . S
N2285 C2277 1.427 . S
N2285 C2283 1.384 . S
H2286 C2292 0.930 . S
H2287 C2296 0.930 . S
H2288 C2301 0.929 . S
H2289 C2299 0.929 . S
H2290 C2294 0.929 . S
H2291 C2300 0.929 . S
C2292 H2286 0.930 . S
C2292 C2293 1.367 . S
C2292 C2300 1.378 . S
C2293 C2292 1.367 . S
C2293 C2301 1.433 . S
C2294 H2290 0.929 . S
C2294 C2296 1.378 . S
C2294 C2298 1.350 . S
C2295 C2298 1.463 . S
C2295 C2300 1.350 . S
C2295 N2303 1.427 . S
C2296 H2287 0.930 . S
C2296 C2294 1.378 . S
C2296 C2297 1.367 . S
C2297 C2296 1.367 . S
C2297 C2299 1.433 . S
C2298 C2294 1.350 . S
C2298 C2295 1.463 . S
C2298 N2302 1.427 . S
C2299 H2289 0.929 . S
C2299 C2297 1.433 . S
C2299 N2302 1.384 . S
C2300 H2291 0.929 . S
C2300 C2292 1.378 . S
C2300 C2295 1.350 . S
C2301 H2288 0.929 . S
C2301 C2293 1.433 . S
C2301 N2303 1.384 . S
N2302 C2298 1.427 . S
N2302 C2299 1.384 . S
N2303 C2295 1.427 . S
N2303 C2301 1.384 . S
H2304 C2310 0.930 . S
H2305 C2314 0.930 . S
H2306 C2319 0.929 . S
H2307 C2317 0.929 . S
H2308 C2312 0.929 . S
H2309 C2318 0.929 . S
C2310 H2304 0.930 . S
C2310 C2311 1.367 . S
C2310 C2318 1.378 . S
C2311 C2310 1.367 . S
C2311 C2319 1.433 . S
C2312 H2308 0.929 . S
C2312 C2314 1.378 1_554 S
C2312 C2316 1.350 . S
C2313 C2316 1.463 . S
C2313 C2318 1.350 . S
C2313 N2321 1.427 . S
C2314 H2305 0.930 . S
C2314 C2312 1.378 1_556 S
C2314 C2315 1.367 . S
C2315 C2314 1.367 . S
C2315 C2317 1.433 . S
C2316 C2312 1.350 . S
C2316 C2313 1.463 . S
C2316 N2320 1.427 . S
C2317 H2307 0.929 . S
C2317 C2315 1.433 . S
C2317 N2320 1.384 1_556 S
C2318 H2309 0.929 . S
C2318 C2310 1.378 . S
C2318 C2313 1.350 . S
C2319 H2306 0.929 . S
C2319 C2311 1.433 . S
C2319 N2321 1.384 . S
N2320 C2316 1.427 . S
N2320 C2317 1.384 1_554 S
N2321 C2313 1.427 . S
N2321 C2319 1.384 . S
H2322 C2328 0.930 . S
H2323 C2332 0.930 1_556 S
H2324 C2337 0.929 . S
H2325 C2335 0.929 . S
H2326 C2330 0.929 . S
H2327 C2336 0.929 . S
C2328 H2322 0.930 . S
C2328 C2329 1.367 . S
C2328 C2336 1.378 . S
C2329 C2328 1.367 . S
C2329 C2337 1.433 . S
C2330 H2326 0.929 . S
C2330 C2332 1.378 . S
C2330 C2334 1.350 . S
C2331 C2334 1.463 . S
C2331 C2336 1.350 . S
C2331 N2339 1.427 . S
C2332 H2323 0.930 1_554 S
C2332 C2330 1.378 . S
C2332 C2333 1.367 . S
C2333 C2332 1.367 . S
C2333 C2335 1.433 . S
C2334 C2330 1.350 . S
C2334 C2331 1.463 . S
C2334 N2338 1.427 . S
C2335 H2325 0.929 . S
C2335 C2333 1.433 . S
C2335 N2338 1.384 . S
C2336 H2327 0.929 . S
C2336 C2328 1.378 . S
C2336 C2331 1.350 . S
C2337 H2324 0.929 . S
C2337 C2329 1.433 . S
C2337 N2339 1.384 . S
N2338 C2334 1.427 . S
N2338 C2335 1.384 . S
N2339 C2331 1.427 . S
N2339 C2337 1.384 . S
H2340 C2346 0.930 . S
H2341 C2350 0.930 . S
H2342 C2355 0.929 . S
H2343 C2353 0.929 . S
H2344 C2348 0.929 . S
H2345 C2354 0.929 . S
C2346 H2340 0.930 . S
C2346 C2347 1.367 . S
C2346 C2354 1.378 . S
C2347 C2346 1.367 . S
C2347 C2355 1.433 . S
C2348 H2344 0.929 . S
C2348 C2350 1.378 . S
C2348 C2352 1.350 . S
C2349 C2352 1.463 . S
C2349 C2354 1.350 . S
C2349 N2357 1.427 . S
C2350 H2341 0.930 . S
C2350 C2348 1.378 . S
C2350 C2351 1.367 1_554 S
C2351 C2350 1.367 1_556 S
C2351 C2353 1.433 . S
C2352 C2348 1.350 . S
C2352 C2349 1.463 . S
C2352 N2356 1.427 . S
C2353 H2343 0.929 . S
C2353 C2351 1.433 . S
C2353 N2356 1.384 1_556 S
C2354 H2345 0.929 . S
C2354 C2346 1.378 . S
C2354 C2349 1.350 . S
C2355 H2342 0.929 . S
C2355 C2347 1.433 . S
C2355 N2357 1.384 . S
N2356 C2352 1.427 . S
N2356 C2353 1.384 1_554 S
N2357 C2349 1.427 . S
N2357 C2355 1.384 . S
C1069 C7 1.385 . S
C1073 C814 1.386 . S
C1091 C742 1.772 . S
C1087 C39 1.763 . S
C1109 C776 1.550 . S
C1105 C62 1.546 1_565 S
C1123 C76 1.872 . S
C1127 C956 1.855 . S
C1141 C108 1.418 . S
C1145 C994 1.410 . S
C1159 N117 1.329 . S
C1163 C1028 1.320 . S
C1181 C921 1.352 1_455 S
C1177 C16 1.369 . S
C1195 C30 1.825 . S
C1199 C849 1.832 . S
C1217 C884 1.543 . S
C1213 C53 1.549 1_556 S
C1231 C85 1.860 . S
C1235 C632 1.865 1_565 S
C1253 C669 1.644 . S
C1249 C99 1.639 . S
C1267 N127 1.270 . S
C1271 C704 1.305 . S
C1285 N150 1.137 . S
C1289 C1030 1.146 . S
C1307 C958 1.545 . S
C1303 N173 1.526 . S
C1325 C992 1.409 . S
C1321 C200 1.387 . S
C1339 C214 1.690 . S
C1343 C524 1.677 . S
C1357 N232 1.475 . S
C1361 C562 1.479 . S
C1375 C260 1.466 . S
C1379 C596 1.462 1_565 S
C1397 C489 1.233 . S
C1393 N140 1.200 . S
C1411 N163 1.266 . S
C1415 C417 1.325 . S
C1433 C452 1.624 . S
C1429 C191 1.631 . S
C1451 C848 1.940 . S
C1447 C223 1.955 . S
C1469 C885 1.438 . S
C1465 N242 1.393 . S
C1487 C920 1.492 . S
C1483 C269 1.496 . S
C1501 N288 1.287 . S
C1505 C598 1.301 . S
C1519 C315 1.517 . S
C1523 C526 1.538 . S
C1537 C338 1.609 . S
C1541 C560 1.627 . S
C1555 C352 1.873 . S
C1559 C740 1.859 . S
C1577 C778 1.525 . S
C1573 N370 1.519 . S
C1595 C812 1.536 1_655 S
C1591 C398 1.534 . S
C1613 C705 1.196 . S
C1609 N278 1.149 . S
C1627 C306 1.738 . S
C1631 C633 1.749 . S
C1645 C329 1.636 . S
C1649 C668 1.631 . S
C1667 C416 1.584 . S
C1663 C361 1.601 . S
C1681 N380 1.435 . S
C1685 C453 1.478 . S
C1703 C488 1.455 . S
C1699 C407 1.460 . S
C1721 C525 1.441 . S
C1717 N12 1.397 . S
C1735 N25 1.535 . S
C1739 C572 1.498 . S
C1757 C597 1.275 . S
C1753 N48 1.254 . S
C1775 C608 1.276 . S
C1771 N81 1.305 . S
C1793 C536 1.525 . S
C1789 N94 1.522 . S
C1811 C561 1.549 . S
C1807 C131 1.530 . S
C1829 C418 1.453 . S
C1825 N2 1.439 . S
C1843 N35 1.455 . S
C1847 C464 1.464 . S
C1861 N58 1.280 . S
C1865 C490 1.320 . S
C1883 C500 1.263 . S
C1879 N71 1.259 . S
C1901 C428 1.410 . S
C1897 N104 1.406 . S
C1919 C454 1.565 . S
C1915 C122 1.567 . S
C1933 C145 2.020 . S
C1937 C741 2.035 . S
C1951 C168 1.697 . S
C1955 C788 1.643 . S
C1969 N186 1.348 . S
C1973 C813 1.363 . S
C1991 C824 1.277 . S
C1987 N219 1.303 . S
C2009 C752 1.756 . S
C2005 C246 1.810 . S
C2027 C777 1.469 . S
C2023 N265 1.446 . S
C2045 C634 1.944 . S
C2041 C154 1.944 . S
C2059 C177 1.807 . S
C2063 C680 1.730 . S
C2077 N196 1.222 . S
C2081 C706 1.265 . S
C2095 N209 1.144 . S
C2099 C716 1.165 . S
C2113 C237 1.881 . S
C2117 C644 1.840 . S
C2135 C670 1.421 . S
C2131 N255 1.382 . S
C2149 C283 1.776 . S
C2153 C957 1.784 . S
C2167 N301 1.412 . S
C2171 C1004 1.384 . S
C2185 N324 1.255 . S
C2189 C1029 1.267 . S
C2207 C1040 1.116 . S
C2203 N357 1.136 . S
C2225 C968 1.719 . S
C2221 C384 1.789 . S
C2239 N403 1.296 . S
C2243 C993 1.315 . S
C2257 C292 1.896 . S
C2261 C850 1.894 . S
C2279 C896 1.329 . S
C2275 N311 1.316 . S
C2293 N334 1.349 . S
C2297 C922 1.408 . S
C2311 N347 1.298 . S
C2315 C932 1.301 . S
C2333 C860 1.885 1_554 S
C2329 C375 1.925 . S
C2347 N393 1.319 . S
C2351 C886 1.359 . S
