# Generated by pormake.
# Topology pts, (4,4)-cn, num edge types: 1
# Building blocks:
#     Node 0, Type 0, BuildingBlock: KOZSID_clean_sbu_0, # of connection points: 4
#     Node 1, Type 0, BuildingBlock: KOZSID_clean_sbu_0, # of connection points: 4
#     Node 2, Type 1, BuildingBlock: AZAVOO_clean_sbu_0, # of connection points: 4
#     Node 3, Type 1, BuildingBlock: AZAVOO_clean_sbu_0, # of connection points: 4
#     Edge 4, Type (0, 1), BuildingBlock: MIFKUJ_clean_linker_0, # of connection points: 2
#     Edge 5, Type (0, 1), BuildingBlock: MIFKUJ_clean_linker_0, # of connection points: 2
#     Edge 6, Type (0, 1), BuildingBlock: MIFKUJ_clean_linker_0, # of connection points: 2
#     Edge 7, Type (0, 1), BuildingBlock: MIFKUJ_clean_linker_0, # of connection points: 2
#     Edge 8, Type (0, 1), BuildingBlock: MIFKUJ_clean_linker_0, # of connection points: 2
#     Edge 9, Type (0, 1), BuildingBlock: MIFKUJ_clean_linker_0, # of connection points: 2
#     Edge 10, Type (0, 1), BuildingBlock: MIFKUJ_clean_linker_0, # of connection points: 2
#     Edge 11, Type (0, 1), BuildingBlock: MIFKUJ_clean_linker_0, # of connection points: 2
# Relax obj value: 0.000
# Max RMSD: 0.031
# Mean RMSD: 0.016
data_MOF--net-pts--node1-KOZSID_clean_sbu_0--node2-AZAVOO_clean_sbu_0--edge1-MIFKUJ_clean_linker_0
_symmetry_space_group_name_H-M    P1
_symmetry_Int_Tables_number       1
_symmetry_cell_setting            triclinic
loop_
_symmetry_equiv_pos_as_xyz
'x, y, z'
_cell_length_a     33.91098
_cell_length_b     34.518565
_cell_length_c     50.497719
_cell_angle_alpha  86.897408
_cell_angle_beta   99.124963
_cell_angle_gamma 90.324945
loop_
_atom_site_label
_atom_site_type_symbol
_atom_site_fract_x
_atom_site_fract_y
_atom_site_fract_z
_atom_type_partial_charge
C0 C 0.61014 0.0878 0.05021 0.0
C1 C 0.62351 0.12345 0.05945 0.0
C2 C 0.60043 0.15104 0.04402 0.0
C3 C 0.57425 0.13076 0.02642 0.0
N4 N 0.57882 0.0918 0.02989 0.0
Co5 Co 0.54764 0.05142 0.0083 0.0
N6 N 0.51617 0.09212 0.98401 0.0
C7 C 0.52051 0.13105 0.98483 0.0
C8 C 0.49394 0.15155 0.96601 0.0
C9 C 0.47086 0.12414 0.95256 0.0
C10 C 0.48468 0.08837 0.9641 0.0
N11 N 0.51613 0.01102 0.98689 0.0
C12 C 0.48451 0.01503 0.9668 0.0
C13 C 0.47003 0.97931 0.95831 0.0
C14 C 0.49303 0.95173 0.97375 0.0
C15 C 0.52003 0.97205 0.99077 0.0
N16 N 0.57938 0.0107 0.03244 0.0
C17 C 0.57582 0.97177 0.03105 0.0
C18 C 0.60304 0.95117 0.04932 0.0
C19 C 0.62581 0.97851 0.063 0.0
C20 C 0.61094 0.01441 0.05232 0.0
N21 N 0.50659 0.05122 0.03247 0.0
C22 C 0.44402 0.0511 0.06343 0.0
C23 C 0.46145 0.01642 0.05789 0.0
C24 C 0.49245 0.01714 0.04257 0.0
C25 C 0.45925 0.08582 0.05373 0.0
C26 C 0.49028 0.08522 0.03856 0.0
N27 N 0.58871 0.05171 0.98413 0.0
C28 C 0.63387 0.01738 0.96089 0.0
C29 C 0.65142 0.05214 0.95326 0.0
C30 C 0.63619 0.0867 0.96079 0.0
C31 C 0.60505 0.08583 0.97593 0.0
C32 C 0.60285 0.01782 0.97614 0.0
H33 H 0.59521 0.1132 0.98111 0.0
H34 H 0.59109 0.99035 0.98145 0.0
H35 H 0.50421 0.98975 0.03894 0.0
H36 H 0.50007 0.1127 0.03162 0.0
C37 C 0.54734 0.14746 0.00506 0.0
C38 C 0.62909 0.05111 0.06076 0.0
C39 C 0.46592 0.05179 0.95613 0.0
C40 C 0.54799 0.95542 0.01145 0.0
H41 H 0.64801 0.12896 0.07532 0.0
H42 H 0.60322 0.18221 0.04498 0.0
H43 H 0.49083 0.18275 0.96302 0.0
H44 H 0.44603 0.12981 0.93651 0.0
H45 H 0.44484 0.97373 0.94298 0.0
H46 H 0.48974 0.92056 0.97317 0.0
H47 H 0.60666 0.91998 0.05185 0.0
H48 H 0.65114 0.97258 0.0786 0.0
H49 H 0.45133 0.98872 0.06536 0.0
H50 H 0.44668 0.11351 0.05721 0.0
H51 H 0.64392 0.98979 0.95511 0.0
H52 H 0.64881 0.11446 0.95565 0.0
C53 C 0.07367 0.48539 0.55438 0.0
C54 C 0.10774 0.47185 0.57126 0.0
C55 C 0.13926 0.49135 0.56327 0.0
C56 C 0.12274 0.51578 0.54221 0.0
N57 N 0.08247 0.51329 0.5363 0.0
Co58 Co 0.04633 0.54464 0.50773 0.0
N59 N 0.09288 0.57294 0.49577 0.0
C60 C 0.132 0.56776 0.50592 0.0
C61 C 0.15705 0.5916 0.49378 0.0
C62 C 0.13254 0.61345 0.47475 0.0
C63 C 0.09378 0.60153 0.47635 0.0
N64 N 0.01015 0.57619 0.47931 0.0
C65 C 0.01889 0.6046 0.46158 0.0
C66 C 0.98472 0.61894 0.44517 0.0
C67 C 0.95323 0.59923 0.45301 0.0
C68 C 0.96986 0.57402 0.47357 0.0
N69 N 0.9998 0.51619 0.51961 0.0
C70 C 0.96076 0.5209 0.5091 0.0
C71 C 0.93572 0.49658 0.52083 0.0
C72 C 0.96014 0.47485 0.53997 0.0
C73 C 0.99887 0.48742 0.53892 0.0
N74 N 0.04187 0.58493 0.53381 0.0
C75 C 0.0359 0.64245 0.57049 0.0
C76 C 0.0022 0.63039 0.55339 0.0
C77 C 0.00574 0.60147 0.53554 0.0
C78 C 0.07255 0.6253 0.56905 0.0
C79 C 0.07491 0.59715 0.55052 0.0
N80 N 0.05087 0.50434 0.48164 0.0
C81 C 0.02103 0.46473 0.44563 0.0
C82 C 0.05757 0.44668 0.44511 0.0
C83 C 0.09075 0.4581 0.46296 0.0
C84 C 0.08685 0.48697 0.4807 0.0
C85 C 0.01827 0.49299 0.46409 0.0
H86 H 0.11341 0.49464 0.49351 0.0
H87 H 0.9894 0.50498 0.46389 0.0
H88 H 0.97889 0.59307 0.52332 0.0
H89 H 0.1039 0.58598 0.55002 0.0
C90 C 0.14424 0.54117 0.52744 0.0
C91 C 0.03379 0.47037 0.55616 0.0
C92 C 0.05882 0.61908 0.45953 0.0
C93 C 0.9485 0.54798 0.48791 0.0
H94 H 0.10966 0.45002 0.58763 0.0
H95 H 0.17051 0.48805 0.57176 0.0
H96 H 0.18926 0.59326 0.49848 0.0
H97 H 0.14211 0.63594 0.46141 0.0
H98 H 0.98274 0.64138 0.42918 0.0
H99 H 0.92194 0.6029 0.44474 0.0
H100 H 0.90355 0.49457 0.51584 0.0
H101 H 0.95044 0.45204 0.55299 0.0
H102 H 0.97314 0.64291 0.55397 0.0
H103 H 0.09951 0.63422 0.58175 0.0
H104 H 0.99444 0.45644 0.43228 0.0
H105 H 0.11975 0.44503 0.46307 0.0
Mg106 Mg 0.09068 0.0313 0.27123 0.0
O107 O 0.02672 0.03227 0.24702 0.0
O108 O 0.98586 0.02278 0.27744 0.0
Mg109 Mg 0.02171 0.01355 0.31966 0.0
C110 C 0.99161 0.02891 0.25317 0.0
C111 C 0.11963 0.03368 0.21574 0.0
O112 O 0.10027 0.00059 0.21538 0.0
O113 O 0.08069 0.09193 0.28588 0.0
O114 O 0.04385 0.07642 0.318 0.0
O115 O 0.09545 0.96646 0.26933 0.0
O116 O 0.07235 0.99531 0.30152 0.0
C117 C 0.06319 0.10111 0.30533 0.0
C118 C 0.08018 0.96355 0.29125 0.0
O119 O 0.11852 0.05532 0.23522 0.0
Mg120 Mg 0.00509 0.03887 0.74597 0.0
O121 O 0.06906 0.03739 0.7703 0.0
O122 O 0.11033 0.02902 0.74066 0.0
Mg123 Mg 0.07468 0.02471 0.69856 0.0
C124 C 0.10427 0.03364 0.76462 0.0
C125 C 0.97519 0.0363 0.80132 0.0
O126 O 0.99314 0.00247 0.80263 0.0
O127 O 0.01552 0.1009 0.7293 0.0
O128 O 0.05531 0.08801 0.6995 0.0
O129 O 1.00058 0.97354 0.74972 0.0
O130 O 0.02287 0.0062 0.71649 0.0
C131 C 0.0355 0.11194 0.71076 0.0
C132 C 0.01522 0.97328 0.72758 0.0
O133 O 0.97753 0.05979 0.78132 0.0
H134 H 0.42964 0.10166 0.101 0.0
H135 H 0.37239 0.10301 0.1248 0.0
H136 H 0.3242 0.00158 0.0851 0.0
H137 H 0.38054 0.00098 0.06034 0.0
H138 H 0.26665 0.05351 0.08561 0.0
H139 H 0.37126 0.99619 0.15101 0.0
H140 H 0.43805 0.99219 0.17869 0.0
H141 H 0.41519 0.09737 0.21542 0.0
H142 H 0.34843 0.10227 0.18768 0.0
H143 H 0.13091 0.99179 0.17315 0.0
H144 H 0.18344 -0.00012 0.14546 0.0
H145 H 0.22501 0.10213 0.18678 0.0
H146 H 0.17273 0.0939 0.21493 0.0
H147 H 0.28543 0.0534 0.18505 0.0
H148 H 0.17855 0.10825 0.12093 0.0
H149 H 0.11155 0.11077 0.0935 0.0
H150 H 0.13826 0.00873 0.0546 0.0
H151 H 0.20525 0.00527 0.08206 0.0
C152 C 0.40673 0.07979 0.09713 0.0
C153 C 0.40984 0.05115 0.07874 0.0
C154 C 0.37416 0.08039 0.11098 0.0
C155 C 0.34413 0.05214 0.10699 0.0
C156 C 0.34702 0.02363 0.08858 0.0
C157 C 0.37952 0.02308 0.07465 0.0
C158 C 0.30965 0.05236 0.12194 0.0
C159 C 0.27075 0.05304 0.10737 0.0
C160 C 0.31492 0.05274 0.15032 0.0
C161 C 0.35502 0.04981 0.16706 0.0
C162 C 0.3806 0.01863 0.16483 0.0
C163 C 0.41843 0.01617 0.18056 0.0
C164 C 0.4309 0.04457 0.19875 0.0
C165 C 0.40551 0.07543 0.20129 0.0
C166 C 0.36767 0.07805 0.18559 0.0
C167 C 0.15077 0.0164 0.1761 0.0
C168 C 0.14764 0.04212 0.19636 0.0
C169 C 0.18079 0.02106 0.16015 0.0
C170 C 0.20816 0.05171 0.16393 0.0
C171 C 0.20427 0.07823 0.18351 0.0
C172 C 0.17422 0.0736 0.1995 0.0
C173 C 0.24237 0.05441 0.14873 0.0
C174 C 0.28128 0.05418 0.16327 0.0
C175 C 0.23706 0.05426 0.12035 0.0
C176 C 0.19682 0.05633 0.10373 0.0
C177 C 0.17003 0.08617 0.10668 0.0
C178 C 0.13207 0.0878 0.09109 0.0
C179 C 0.12062 0.05988 0.07236 0.0
C180 C 0.14715 0.03032 0.06913 0.0
C181 C 0.18514 0.02854 0.08468 0.0
H182 H 0.09122 0.0612 0.06031 0.0
H183 H 0.46019 0.04261 0.21091 0.0
H184 H 0.99841 0.46608 0.60126 0.0
H185 H 0.99192 0.40856 0.63114 0.0
H186 H 0.05445 0.34013 0.5818 0.0
H187 H 0.05936 0.39718 0.55151 0.0
H188 H 0.99398 0.3011 0.5944 0.0
H189 H 0.09923 0.37593 0.64353 0.0
H190 H 0.12843 0.43406 0.66525 0.0
H191 H 0.0412 0.42875 0.71838 0.0
H192 H 0.01112 0.37085 0.6967 0.0
H193 H 0.07873 0.14488 0.67447 0.0
H194 H 0.07165 0.2095 0.65275 0.0
H195 H 0.98305 0.23785 0.70112 0.0
H196 H 0.98958 0.17232 0.72317 0.0
H197 H 0.04531 0.29923 0.69214 0.0
H198 H 0.94563 0.21794 0.64439 0.0
H199 H 0.9214 0.15809 0.62273 0.0
H200 H 0.00367 0.17467 0.56667 0.0
H201 H 0.02884 0.23432 0.58827 0.0
C202 C 0.01044 0.43857 0.59686 0.0
C203 C 0.02929 0.43573 0.57421 0.0
C204 C 0.00701 0.40586 0.61396 0.0
C205 C 0.02308 0.37003 0.60891 0.0
C206 C 0.04173 0.36736 0.58612 0.0
C207 C 0.0447 0.39988 0.5689 0.0
C208 C 0.02066 0.33506 0.62711 0.0
C209 C 0.00533 0.3008 0.61574 0.0
C210 C 0.03443 0.33473 0.65516 0.0
C211 C 0.05264 0.36936 0.66829 0.0
C212 C 0.0861 0.38733 0.65971 0.0
C213 C 0.10283 0.42021 0.67203 0.0
C214 C 0.08661 0.43516 0.69313 0.0
C215 C 0.05368 0.41718 0.702 0.0
C216 C 0.03679 0.38433 0.68971 0.0
C217 C 0.05791 0.16474 0.68083 0.0
C218 C 0.03431 0.15308 0.70039 0.0
C219 C 0.05401 0.20178 0.66835 0.0
C220 C 0.02653 0.22818 0.67512 0.0
C221 C 0.00437 0.21771 0.69563 0.0
C222 C 0.00811 0.18029 0.70815 0.0
C223 C 0.01967 0.26547 0.65916 0.0
C224 C 0.03324 0.29997 0.6709 0.0
C225 C 0.00474 0.26606 0.63136 0.0
C226 C 0.98927 0.23048 0.61806 0.0
C227 C 0.95874 0.20869 0.62756 0.0
C228 C 0.94481 0.17482 0.61528 0.0
C229 C 0.96102 0.16256 0.59336 0.0
C230 C 0.99114 0.1842 0.58364 0.0
C231 C 0.00521 0.21807 0.59588 0.0
H232 H 0.95021 0.13632 0.58388 0.0
H233 H 0.09961 0.46061 0.70265 0.0
H234 H 0.64192 0.03055 0.11427 0.0
H235 H 0.70561 0.02953 0.14513 0.0
H236 H 0.76609 0.07159 0.08023 0.0
H237 H 0.7023 0.07173 0.04927 0.0
H238 H 0.80802 0.01414 0.10957 0.0
H239 H 0.74647 0.13173 0.12795 0.0
H240 H 0.69234 0.17246 0.1388 0.0
H241 H 0.69495 0.10741 0.21398 0.0
H242 H 0.74868 0.06586 0.20339 0.0
H243 H 0.98859 0.05162 0.19972 0.0
H244 H 0.92914 0.05864 0.16521 0.0
H245 H 0.85509 0.02037 0.22353 0.0
H246 H 0.91383 0.01416 0.25807 0.0
H247 H 0.82238 0.08112 0.19503 0.0
H248 H 0.88042 0.96058 0.17486 0.0
H249 H 0.93399 0.91939 0.16365 0.0
H250 H 0.93802 0.99051 0.09168 0.0
H251 H 0.88479 0.03241 0.10265 0.0
C252 C 0.66891 0.03954 0.10673 0.0
C253 C 0.66755 0.05117 0.07956 0.0
C254 C 0.70519 0.03914 0.12431 0.0
C255 C 0.74064 0.0509 0.11507 0.0
C256 C 0.73919 0.06243 0.08782 0.0
C257 C 0.70287 0.06268 0.07021 0.0
C258 C 0.77914 0.05089 0.13389 0.0
C259 C 0.81138 0.0293 0.12806 0.0
C260 C 0.78343 0.07024 0.15819 0.0
C261 C 0.75142 0.09549 0.16478 0.0
C262 C 0.73534 0.12594 0.14672 0.0
C263 C 0.70474 0.1492 0.15283 0.0
C264 C 0.69017 0.14249 0.17704 0.0
C265 C 0.70625 0.11256 0.19523 0.0
C266 C 0.73681 0.08917 0.18919 0.0
C267 C 0.95965 0.0446 0.20517 0.0
C268 C 0.9561 0.03233 0.23173 0.0
C269 C 0.92567 0.04851 0.18538 0.0
C270 C 0.88756 0.03976 0.19169 0.0
C271 C 0.88407 0.02745 0.21815 0.0
C272 C 0.91784 0.0238 0.23791 0.0
C273 C 0.85103 0.04366 0.17103 0.0
C274 C 0.81914 0.06614 0.17647 0.0
C275 C 0.84712 0.02516 0.14638 0.0
C276 C 0.87895 -0.00014 0.13972 0.0
C277 C 0.89294 0.96759 0.15674 0.0
C278 C 0.92321 0.94409 0.15042 0.0
C279 C 0.93948 0.9524 0.12701 0.0
C280 C 0.92544 0.98415 0.10983 0.0
C281 C 0.89521 0.00777 0.11608 0.0
H282 H 0.96291 0.93417 0.12215 0.0
H283 H 0.66647 0.16052 0.18174 0.0
H284 H 0.00325 0.71439 0.55875 0.0
H285 H 0.00282 0.76733 0.58927 0.0
H286 H 0.06171 0.69319 0.65499 0.0
H287 H 0.0631 0.64038 0.62438 0.0
H288 H 0.98742 0.74317 0.66248 0.0
H289 H 0.11973 0.74718 0.63669 0.0
H290 H 0.16558 0.74819 0.60332 0.0
H291 H 0.1102 0.8528 0.56526 0.0
H292 H 0.06357 0.85203 0.59817 0.0
H293 H 0.02304 0.89901 0.75037 0.0
H294 H 0.03078 0.83925 0.72748 0.0
H295 H 0.0267 0.90632 0.65236 0.0
H296 H 0.02151 0.96571 0.67534 0.0
H297 H 0.07784 0.85479 0.65289 0.0
H298 H 0.94362 0.85186 0.67294 0.0
H299 H 0.89146 0.85243 0.70187 0.0
H300 H 0.94175 0.74951 0.74565 0.0
H301 H 0.9945 0.7486 0.71716 0.0
C302 C 0.01573 0.70934 0.57976 0.0
C303 C 0.03326 0.67345 0.58927 0.0
C304 C 0.01555 0.73952 0.5971 0.0
C305 C 0.03226 0.73402 0.62429 0.0
C306 C 0.04864 0.69784 0.63406 0.0
C307 C 0.04957 0.66788 0.61659 0.0
C308 C 0.03401 0.76674 0.64215 0.0
C309 C 0.00757 0.76739 0.66081 0.0
C310 C 0.05959 0.79857 0.6393 0.0
C311 C 0.08794 0.79932 0.61973 0.0
C312 C 0.1171 0.77019 0.62106 0.0
C313 C 0.14328 0.77076 0.60226 0.0
C314 C 0.14075 0.80049 0.58214 0.0
C315 C 0.1121 0.82977 0.58084 0.0
C316 C 0.08582 0.82929 0.59957 0.0
C317 C 0.0242 0.90085 0.72903 0.0
C318 C 0.02171 0.93697 0.71464 0.0
C319 C 0.02828 0.86669 0.71589 0.0
C320 C 0.02862 0.86802 0.688 0.0
C321 C 0.02669 0.90429 0.67384 0.0
C322 C 0.02363 0.93833 0.68703 0.0
C323 C 0.03054 0.83203 0.6732 0.0
C324 C 0.0578 0.8306 0.65499 0.0
C325 C 0.00491 0.79994 0.67601 0.0
C326 C 0.97325 0.80043 0.69314 0.0
C327 C 0.94371 0.82952 0.68887 0.0
C328 C 0.91402 0.82987 0.70516 0.0
C329 C 0.91337 0.8011 0.72564 0.0
C330 C 0.94235 0.77183 0.72982 0.0
C331 C 0.97213 0.77136 0.7136 0.0
H332 H 0.89036 0.80142 0.73823 0.0
H333 H 0.16103 0.80088 0.56761 0.0
H334 H 0.45371 0.03894 0.90279 0.0
H335 H 0.38976 0.03804 0.87222 0.0
H336 H 0.32769 0.06413 0.93745 0.0
H337 H 0.39185 0.06462 0.96804 0.0
H338 H 0.2902 0.00708 0.90778 0.0
H339 H 0.34071 0.1337 0.89083 0.0
H340 H 0.39081 0.18186 0.88053 0.0
H341 H 0.39296 0.13263 0.80448 0.0
H342 H 0.34335 0.0837 0.81453 0.0
H343 H 0.1061 0.04687 0.81816 0.0
H344 H 0.16516 0.05212 0.8527 0.0
H345 H 0.24121 0.02987 0.79435 0.0
H346 H 0.18283 0.02509 0.75982 0.0
H347 H 0.2688 0.08949 0.82314 0.0
H348 H 0.22206 0.95994 0.84186 0.0
H349 H 0.1727 0.9112 0.85258 0.0
H350 H 0.1633 0.96649 0.92549 0.0
H351 H 0.21226 0.01588 0.91502 0.0
C352 C 0.42632 0.04455 0.91044 0.0
C353 C 0.42732 0.05195 0.93755 0.0
C354 C 0.38989 0.04414 0.89305 0.0
C355 C 0.35392 0.05138 0.90249 0.0
C356 C 0.35502 0.0585 0.92973 0.0
C357 C 0.39151 0.05896 0.94712 0.0
C358 C 0.3153 0.05142 0.88384 0.0
C359 C 0.28523 0.02555 0.88948 0.0
C360 C 0.30899 0.07516 0.8598 0.0
C361 C 0.33852 0.10482 0.85354 0.0
C362 C 0.35207 0.13296 0.87199 0.0
C363 C 0.38036 0.16042 0.86619 0.0
C364 C 0.39511 0.16026 0.84188 0.0
C365 C 0.38153 0.13269 0.82331 0.0
C366 C 0.35329 0.1051 0.82904 0.0
C367 C 0.13538 0.04295 0.8127 0.0
C368 C 0.13957 0.03556 0.78613 0.0
C369 C 0.16913 0.04587 0.8325 0.0
C370 C 0.20768 0.04122 0.82616 0.0
C371 C 0.21184 0.03372 0.79973 0.0
C372 C 0.17828 0.03085 0.77998 0.0
C373 C 0.24396 0.04456 0.84677 0.0
C374 C 0.2736 0.0712 0.84153 0.0
C375 C 0.2498 0.02157 0.87117 0.0
C376 C 0.22046 0.99185 0.87751 0.0
C377 C 0.20922 0.96188 0.86007 0.0
C378 C 0.18136 0.93411 0.86612 0.0
C379 C 0.16478 0.93582 0.88965 0.0
C380 C 0.17611 0.96525 0.90724 0.0
C381 C 0.20393 0.99312 0.90127 0.0
H382 H 0.14322 0.91429 0.8943 0.0
H383 H 0.41702 0.18155 0.83742 0.0
H384 H 0.09056 0.3752 0.45781 0.0
H385 H 0.09547 0.3229 0.42787 0.0
H386 H 0.03833 0.39557 0.36054 0.0
H387 H 0.03178 0.4475 0.39091 0.0
H388 H 0.0093 0.32799 0.35553 0.0
H389 H 0.14221 0.37299 0.37087 0.0
H390 H 0.20581 0.39464 0.39641 0.0
H391 H 0.22299 0.2823 0.43739 0.0
H392 H 0.1592 0.2601 0.41239 0.0
H393 H 0.06783 0.17026 0.27605 0.0
H394 H 0.07069 0.23599 0.29324 0.0
H395 H 0.07103 0.18646 0.37349 0.0
H396 H 0.06686 0.12147 0.35656 0.0
H397 H 0.13354 0.25027 0.36257 0.0
H398 H 0.99042 0.21419 0.35069 0.0
H399 H 0.92823 0.19485 0.32223 0.0
H400 H 0.93495 0.29576 0.26954 0.0
H401 H 0.99755 0.31536 0.29755 0.0
C402 C 0.07931 0.38006 0.43659 0.0
C403 C 0.06102 0.4154 0.42662 0.0
C404 C 0.08235 0.35025 0.41941 0.0
C405 C 0.06819 0.35547 0.39172 0.0
C406 C 0.04969 0.39081 0.38175 0.0
C407 C 0.04595 0.42045 0.39908 0.0
C408 C 0.07132 0.3233 0.37363 0.0
C409 C 0.03681 0.31167 0.35669 0.0
C410 C 0.10719 0.30186 0.37477 0.0
C411 C 0.14575 0.31495 0.38982 0.0
C412 C 0.15942 0.35296 0.38545 0.0
C413 C 0.19553 0.36532 0.39982 0.0
C414 C 0.2184 0.33988 0.41853 0.0
C415 C 0.20524 0.30198 0.42288 0.0
C416 C 0.16913 0.28946 0.40858 0.0
C417 C 0.06867 0.17356 0.29734 0.0
C418 C 0.06684 0.14085 0.31496 0.0
C419 C 0.07026 0.21096 0.30709 0.0
C420 C 0.07109 0.21585 0.33461 0.0
C421 C 0.07046 0.18319 0.35221 0.0
C422 C 0.06786 0.14613 0.34247 0.0
C423 C 0.07142 0.25476 0.34551 0.0
C424 C 0.10652 0.26748 0.36106 0.0
C425 C 0.03649 0.27765 0.34263 0.0
C426 C 0.99887 0.26592 0.32596 0.0
C427 C 0.97885 0.23201 0.33288 0.0
C428 C 0.94349 0.22106 0.31687 0.0
C429 C 0.92773 0.24398 0.29403 0.0
C430 C 0.94724 0.27798 0.2872 0.0
C431 C 0.98264 0.28902 0.30312 0.0
H432 H 0.90034 0.23547 0.28167 0.0
H433 H 0.24634 0.34951 0.42965 0.0
H434 H 0.66675 0.10423 0.91304 0.0
H435 H 0.72404 0.10574 0.88923 0.0
H436 H 0.77051 0.00162 0.93421 0.0
H437 H 0.71428 0.00095 0.95906 0.0
H438 H 0.829 0.05166 0.93092 0.0
H439 H 0.72278 0.00063 0.86807 0.0
H440 H 0.65588 -0.00021 0.84057 0.0
H441 H 0.68138 0.10658 0.79903 0.0
H442 H 0.74828 0.10832 0.82655 0.0
H443 H 0.96242 0.99143 0.84542 0.0
H444 H 0.91018 0.99902 0.87289 0.0
H445 H 0.87197 0.10556 0.82779 0.0
H446 H 0.924 0.09795 0.79994 0.0
H447 H 0.80996 0.05777 0.83134 0.0
H448 H 0.91856 0.10606 0.89312 0.0
H449 H 0.98565 0.10507 0.92043 0.0
H450 H 0.95601 0.00128 0.96374 0.0
H451 H 0.8889 0.00133 0.93643 0.0
C452 C 0.6893 0.08182 0.91809 0.0
C453 C 0.6857 0.0524 0.93799 0.0
C454 C 0.7219 0.0825 0.90422 0.0
C455 C 0.75144 0.05352 0.90965 0.0
C456 C 0.74808 0.02425 0.92958 0.0
C457 C 0.71561 0.02366 0.94358 0.0
C458 C 0.78586 0.05373 0.89462 0.0
C459 C 0.82481 0.05255 0.90914 0.0
C460 C 0.78055 0.05584 0.86618 0.0
C461 C 0.74037 0.05481 0.84957 0.0
C462 C 0.71401 0.02409 0.85322 0.0
C463 C 0.67611 0.02343 0.8376 0.0
C464 C 0.66434 0.05317 0.81811 0.0
C465 C 0.69051 0.0836 0.81416 0.0
C466 C 0.72843 0.08442 0.82975 0.0
C467 C 0.94336 0.01684 0.84158 0.0
C468 C 0.94737 0.04401 0.82038 0.0
C469 C 0.91352 0.0212 0.85739 0.0
C470 C 0.88716 0.05294 0.85249 0.0
C471 C 0.89192 0.08081 0.83193 0.0
C472 C 0.92183 0.07651 0.8161 0.0
C473 C 0.8531 0.05555 0.86763 0.0
C474 C 0.81418 0.05717 0.85311 0.0
C475 C 0.85847 0.05359 0.89605 0.0
C476 C 0.89879 0.05353 0.91256 0.0
C477 C 0.92644 0.08285 0.90832 0.0
C478 C 0.96446 0.08249 0.92383 0.0
C479 C 0.97512 0.05308 0.94376 0.0
C480 C 0.94773 0.02402 0.94827 0.0
C481 C 0.90968 0.02423 0.93281 0.0
H482 H 0.00457 0.05285 0.95575 0.0
H483 H 0.63499 0.0526 0.80604 0.0
H484 H 0.04054 0.69414 0.46538 0.0
H485 H 0.04321 0.74952 0.43315 0.0
H486 H 0.08921 0.67476 0.37932 0.0
H487 H 0.08672 0.61933 0.4118 0.0
H488 H 0.12798 0.74497 0.38242 0.0
H489 H 0.99366 0.69954 0.36741 0.0
H490 H 0.92962 0.67837 0.38053 0.0
H491 H 0.91247 0.79107 0.40899 0.0
H492 H 0.97684 0.81272 0.39653 0.0
H493 H 0.09604 0.89121 0.27553 0.0
H494 H 0.09051 0.82887 0.30033 0.0
H495 H 0.04402 0.88752 0.36212 0.0
H496 H 0.04953 0.94955 0.33769 0.0
H497 H 0.00382 0.82044 0.35039 0.0
H498 H 0.14102 0.86292 0.37015 0.0
H499 H 0.20621 0.88382 0.35871 0.0
H500 H 0.21778 0.77629 0.32162 0.0
H501 H 0.15236 0.75497 0.33255 0.0
C502 C 0.05151 0.68981 0.44673 0.0
C503 C 0.06341 0.65284 0.44085 0.0
C504 C 0.05286 0.72125 0.42833 0.0
C505 C 0.06588 0.7161 0.40368 0.0
C506 C 0.07897 0.67929 0.39818 0.0
C507 C 0.07756 0.64778 0.41662 0.0
C508 C 0.06494 0.74913 0.38354 0.0
C509 C 0.10071 0.76105 0.37501 0.0
C510 C 0.0294 0.77034 0.37414 0.0
C511 C 0.99026 0.75767 0.3812 0.0
C512 C 0.97637 0.71975 0.37662 0.0
C513 C 0.94 0.70766 0.38393 0.0
C514 C 0.91702 0.73334 0.39562 0.0
C515 C 0.93032 0.77121 0.39995 0.0
C516 C 0.96675 0.78341 0.39275 0.0
C517 C 0.08417 0.89075 0.29423 0.0
C518 C 0.07317 0.92541 0.30459 0.0
C519 C 0.08117 0.85513 0.30841 0.0
C520 C 0.06717 0.85362 0.33318 0.0
C521 C 0.0548 0.88799 0.34302 0.0
C522 C 0.05795 0.92351 0.32896 0.0
C523 C 0.06701 0.81672 0.34966 0.0
C524 C 0.03098 0.80403 0.35749 0.0
C525 C 0.1023 0.79481 0.35841 0.0
C526 C 0.14161 0.80757 0.35186 0.0
C527 C 0.15732 0.84388 0.35935 0.0
C528 C 0.19433 0.85577 0.353 0.0
C529 C 0.21606 0.83145 0.33936 0.0
C530 C 0.20087 0.79514 0.33212 0.0
C531 C 0.16384 0.78313 0.3384 0.0
H532 H 0.24472 0.8407 0.33447 0.0
H533 H 0.88887 0.72392 0.40128 0.0
loop_
_geom_bond_atom_site_label_1
_geom_bond_atom_site_label_2
_geom_bond_distance
_geom_bond_site_symmetry_2
_ccdc_geom_bond_type
C0 C1 1.443 . S
C0 N4 1.376 . S
C0 C38 1.389 . S
C1 C0 1.443 . S
C1 C2 1.340 . S
C1 H41 0.951 . S
C2 C1 1.340 . S
C2 C3 1.439 . S
C2 H42 0.950 . S
C3 C2 1.439 . S
C3 N4 1.374 . S
C3 C37 1.394 . S
N4 C0 1.376 . S
N4 C3 1.374 . S
N4 Co5 2.008 . S
Co5 N4 2.008 . S
Co5 N6 1.995 1_554 S
Co5 N11 2.008 1_544 S
Co5 N16 1.995 1_545 S
Co5 N21 2.282 . S
Co5 N27 2.282 1_554 S
N6 Co5 1.995 1_556 S
N6 C7 1.376 . S
N6 C10 1.383 . S
C7 N6 1.376 . S
C7 C8 1.446 . S
C7 C37 1.392 1_556 S
C8 C7 1.446 . S
C8 C9 1.339 . S
C8 H43 0.949 . S
C9 C8 1.339 . S
C9 C10 1.439 . S
C9 H44 0.950 . S
C10 N6 1.383 . S
C10 C9 1.439 . S
C10 C39 1.392 . S
N11 Co5 2.008 1_566 S
N11 C12 1.376 1_565 S
N11 C15 1.374 . S
C12 N11 1.376 1_545 S
C12 C13 1.443 1_545 S
C12 C39 1.389 . S
C13 C12 1.443 1_565 S
C13 C14 1.340 . S
C13 H45 0.951 . S
C14 C13 1.340 . S
C14 C15 1.439 . S
C14 H46 0.950 . S
C15 N11 1.374 . S
C15 C14 1.439 . S
C15 C40 1.395 1_556 S
N16 Co5 1.995 1_565 S
N16 C17 1.376 . S
N16 C20 1.384 . S
C17 N16 1.376 . S
C17 C18 1.446 . S
C17 C40 1.391 . S
C18 C17 1.446 . S
C18 C19 1.339 . S
C18 H47 0.949 . S
C19 C18 1.339 . S
C19 C20 1.442 . S
C19 H48 0.950 . S
C20 N16 1.384 . S
C20 C19 1.442 . S
C20 C38 1.389 1_565 S
N21 Co5 2.282 . S
N21 C24 1.332 . S
N21 C26 1.332 . S
C22 C23 1.386 . S
C22 C25 1.388 . S
C23 C22 1.386 . S
C23 C24 1.382 . S
C23 H49 0.950 1_545 S
C24 N21 1.332 . S
C24 C23 1.382 . S
C24 H35 0.952 1_545 S
C25 C22 1.388 . S
C25 C26 1.382 . S
C25 H50 0.950 . S
C26 N21 1.332 . S
C26 C25 1.382 . S
C26 H36 0.948 . S
N27 Co5 2.282 1_556 S
N27 C31 1.332 . S
N27 C32 1.332 . S
C28 C29 1.388 . S
C28 C32 1.382 . S
C28 H51 0.950 1_545 S
C29 C28 1.388 . S
C29 C30 1.386 . S
C30 C29 1.386 . S
C30 C31 1.382 . S
C30 H52 0.950 . S
C31 N27 1.332 . S
C31 C30 1.382 . S
C31 H33 0.952 . S
C32 N27 1.332 . S
C32 C28 1.382 . S
C32 H34 0.948 1_545 S
H33 C31 0.952 . S
H34 C32 0.948 1_565 S
H35 C24 0.952 1_565 S
H36 C26 0.948 . S
C37 C3 1.394 . S
C37 C7 1.392 1_554 S
C38 C0 1.389 . S
C38 C20 1.389 1_545 S
C39 C10 1.392 . S
C39 C12 1.389 . S
C40 C15 1.395 1_554 S
C40 C17 1.391 . S
H41 C1 0.951 . S
H42 C2 0.950 . S
H43 C8 0.949 . S
H44 C9 0.950 . S
H45 C13 0.951 . S
H46 C14 0.950 . S
H47 C18 0.949 . S
H48 C19 0.950 . S
H49 C23 0.950 1_565 S
H50 C25 0.950 . S
H51 C28 0.950 1_565 S
H52 C30 0.950 . S
C53 C54 1.443 . S
C53 N57 1.376 . S
C53 C91 1.389 . S
C54 C53 1.443 . S
C54 C55 1.340 . S
C54 H94 0.951 . S
C55 C54 1.340 . S
C55 C56 1.439 . S
C55 H95 0.950 . S
C56 C55 1.439 . S
C56 N57 1.374 . S
C56 C90 1.395 . S
N57 C53 1.376 . S
N57 C56 1.374 . S
N57 Co58 2.008 . S
Co58 N57 2.008 . S
Co58 N59 1.995 . S
Co58 N64 2.008 . S
Co58 N69 1.995 . S
Co58 N74 2.282 . S
Co58 N80 2.282 . S
N59 Co58 1.995 . S
N59 C60 1.376 . S
N59 C63 1.383 . S
C60 N59 1.376 . S
C60 C61 1.446 . S
C60 C90 1.391 . S
C61 C60 1.446 . S
C61 C62 1.339 . S
C61 H96 0.949 . S
C62 C61 1.339 . S
C62 C63 1.439 . S
C62 H97 0.950 . S
C63 N59 1.383 . S
C63 C62 1.439 . S
C63 C92 1.392 . S
N64 Co58 2.008 . S
N64 C65 1.376 . S
N64 C68 1.374 1_455 S
C65 N64 1.376 . S
C65 C66 1.443 1_455 S
C65 C92 1.389 . S
C66 C65 1.443 1_655 S
C66 C67 1.340 . S
C66 H98 0.951 . S
C67 C66 1.340 . S
C67 C68 1.439 . S
C67 H99 0.950 . S
C68 N64 1.374 1_655 S
C68 C67 1.439 . S
C68 C93 1.395 . S
N69 Co58 1.995 . S
N69 C70 1.376 1_455 S
N69 C73 1.383 . S
C70 N69 1.376 1_655 S
C70 C71 1.446 . S
C70 C93 1.391 . S
C71 C70 1.446 . S
C71 C72 1.339 . S
C71 H100 0.949 . S
C72 C71 1.339 . S
C72 C73 1.439 1_655 S
C72 H101 0.950 . S
C73 N69 1.383 . S
C73 C72 1.439 1_455 S
C73 C91 1.392 . S
N74 Co58 2.282 . S
N74 C77 1.332 . S
N74 C79 1.332 . S
C75 C76 1.386 . S
C75 C78 1.388 . S
C76 C75 1.386 . S
C76 C77 1.382 . S
C76 H102 0.950 1_455 S
C77 N74 1.332 . S
C77 C76 1.382 . S
C77 H88 0.952 1_455 S
C78 C75 1.388 . S
C78 C79 1.382 . S
C78 H103 0.950 . S
C79 N74 1.332 . S
C79 C78 1.382 . S
C79 H89 0.948 . S
N80 Co58 2.282 . S
N80 C84 1.332 . S
N80 C85 1.332 . S
C81 C82 1.388 . S
C81 C85 1.382 . S
C81 H104 0.950 1_455 S
C82 C81 1.388 . S
C82 C83 1.386 . S
C83 C82 1.386 . S
C83 C84 1.382 . S
C83 H105 0.950 . S
C84 N80 1.332 . S
C84 C83 1.382 . S
C84 H86 0.952 . S
C85 N80 1.332 . S
C85 C81 1.382 . S
C85 H87 0.948 1_455 S
H86 C84 0.952 . S
H87 C85 0.948 1_655 S
H88 C77 0.952 1_655 S
H89 C79 0.948 . S
C90 C56 1.395 . S
C90 C60 1.391 . S
C91 C53 1.389 . S
C91 C73 1.392 . S
C92 C63 1.392 . S
C92 C65 1.389 . S
C93 C68 1.395 . S
C93 C70 1.391 . S
H94 C54 0.951 . S
H95 C55 0.950 . S
H96 C61 0.949 . S
H97 C62 0.950 . S
H98 C66 0.951 . S
H99 C67 0.950 . S
H100 C71 0.949 . S
H101 C72 0.950 . S
H102 C76 0.950 1_655 S
H103 C78 0.950 . S
H104 C81 0.950 1_655 S
H105 C83 0.950 . S
Mg106 O107 2.028 . S
Mg106 O113 1.986 . S
Mg106 O115 2.114 1_545 S
Mg106 O116 2.251 . S
Mg106 O119 2.010 . S
O107 Mg106 2.028 . S
O107 C110 1.250 1_455 S
O108 Mg109 2.028 . S
O108 C110 1.248 . S
Mg109 O108 2.028 . S
Mg109 O114 2.032 1_655 S
Mg109 O116 2.079 1_655 S
C110 O107 1.250 1_655 S
C110 O108 1.248 . S
C111 O112 1.264 . S
C111 O119 1.249 . S
O112 C111 1.264 . S
O113 Mg106 1.986 . S
O113 C117 1.246 . S
O114 Mg109 2.032 1_455 S
O114 C117 1.259 . S
O115 Mg106 2.114 1_565 S
O115 C118 1.252 . S
O116 Mg106 2.251 . S
O116 Mg109 2.079 1_455 S
O116 C118 1.273 1_545 S
C117 O113 1.246 . S
C117 O114 1.259 . S
C118 O115 1.252 . S
C118 O116 1.273 1_565 S
O119 Mg106 2.010 . S
O119 C111 1.249 . S
Mg120 O121 2.028 . S
Mg120 O127 1.986 . S
Mg120 O129 2.114 1_545 S
Mg120 O130 2.251 . S
Mg120 O133 2.010 1_455 S
O121 Mg120 2.028 . S
O121 C124 1.250 . S
O122 Mg123 2.028 . S
O122 C124 1.248 . S
Mg123 O122 2.028 . S
Mg123 O128 2.032 . S
Mg123 O130 2.079 . S
C124 O121 1.250 . S
C124 O122 1.248 . S
C125 O126 1.264 . S
C125 O133 1.249 . S
O126 C125 1.264 . S
O127 Mg120 1.986 . S
O127 C131 1.246 . S
O128 Mg123 2.032 . S
O128 C131 1.259 . S
O129 Mg120 2.114 1_565 S
O129 C132 1.252 . S
O130 Mg120 2.251 . S
O130 Mg123 2.079 . S
O130 C132 1.273 1_545 S
C131 O127 1.246 . S
C131 O128 1.259 . S
C132 O129 1.252 . S
C132 O130 1.273 1_565 S
O133 Mg120 2.010 1_655 S
O133 C125 1.249 . S
H134 C152 0.951 . S
H135 C154 0.951 . S
H136 C156 0.950 1_565 S
H137 C157 0.950 1_565 S
H138 C159 0.950 . S
H139 C162 0.950 1_565 S
H140 C163 0.950 . S
H141 C165 0.950 . S
H142 C166 0.950 . S
H143 C167 0.951 1_565 S
H144 C169 0.951 1_565 S
H145 C171 0.950 . S
H146 C172 0.950 . S
H147 C174 0.950 . S
H148 C177 0.950 . S
H149 C178 0.950 . S
H150 C180 0.950 . S
H151 C181 0.950 . S
C152 H134 0.951 . S
C152 C153 1.366 . S
C152 C154 1.388 . S
C153 C152 1.366 . S
C153 C157 1.385 . S
C154 H135 0.951 . S
C154 C152 1.388 . S
C154 C155 1.366 . S
C155 C154 1.366 . S
C155 C156 1.414 . S
C155 C158 1.499 . S
C156 H136 0.950 1_545 S
C156 C155 1.414 . S
C156 C157 1.374 . S
C157 H137 0.950 1_545 S
C157 C153 1.385 . S
C157 C156 1.374 . S
C158 C155 1.499 . S
C158 C159 1.373 . S
C158 C160 1.389 . S
C159 H138 0.950 . S
C159 C158 1.373 . S
C159 C175 1.377 . S
C160 C158 1.389 . S
C160 C161 1.524 . S
C160 C174 1.377 . S
C161 C160 1.524 . S
C161 C162 1.397 . S
C161 C166 1.363 . S
C162 H139 0.950 1_545 S
C162 C161 1.397 . S
C162 C163 1.334 . S
C163 H140 0.950 . S
C163 C162 1.334 . S
C163 C164 1.287 . S
C164 C163 1.287 . S
C164 C165 1.524 . S
C164 H183 0.913 . S
C165 H141 0.950 . S
C165 C164 1.524 . S
C165 C166 1.415 . S
C166 H142 0.950 . S
C166 C161 1.363 . S
C166 C165 1.415 . S
C167 H143 0.951 1_545 S
C167 C168 1.366 . S
C167 C169 1.388 . S
C168 C167 1.366 . S
C168 C172 1.385 . S
C169 H144 0.951 1_545 S
C169 C167 1.388 . S
C169 C170 1.366 . S
C170 C169 1.366 . S
C170 C171 1.414 . S
C170 C173 1.499 . S
C171 H145 0.950 . S
C171 C170 1.414 . S
C171 C172 1.374 . S
C172 H146 0.950 . S
C172 C168 1.385 . S
C172 C171 1.374 . S
C173 C170 1.499 . S
C173 C174 1.373 . S
C173 C175 1.389 . S
C174 H147 0.950 . S
C174 C160 1.377 . S
C174 C173 1.373 . S
C175 C159 1.377 . S
C175 C173 1.389 . S
C175 C176 1.524 . S
C176 C175 1.524 . S
C176 C177 1.397 . S
C176 C181 1.363 1_545 S
C177 H148 0.950 . S
C177 C176 1.397 . S
C177 C178 1.334 . S
C178 H149 0.950 . S
C178 C177 1.334 . S
C178 C179 1.287 . S
C179 C178 1.287 . S
C179 C180 1.524 1_545 S
C179 H182 0.999 . S
C180 H150 0.950 . S
C180 C179 1.524 1_565 S
C180 C181 1.415 . S
C181 H151 0.950 . S
C181 C176 1.363 1_565 S
C181 C180 1.415 . S
H182 C179 0.999 . S
H183 C164 0.913 . S
H184 C202 0.951 1_655 S
H185 C204 0.951 1_655 S
H186 C206 0.950 . S
H187 C207 0.950 . S
H188 C209 0.950 . S
H189 C212 0.950 . S
H190 C213 0.950 . S
H191 C215 0.950 . S
H192 C216 0.950 . S
H193 C217 0.951 . S
H194 C219 0.951 . S
H195 C221 0.940 1_655 S
H196 C222 0.948 . S
H197 C224 0.950 . S
H198 C227 0.950 . S
H199 C228 0.950 . S
H200 C230 0.950 . S
H201 C231 0.950 . S
C202 H184 0.951 1_455 S
C202 C203 1.366 . S
C202 C204 1.388 . S
C203 C202 1.366 . S
C203 C207 1.385 . S
C204 H185 0.951 1_455 S
C204 C202 1.388 . S
C204 C205 1.366 . S
C205 C204 1.366 . S
C205 C206 1.414 . S
C205 C208 1.499 . S
C206 H186 0.950 . S
C206 C205 1.414 . S
C206 C207 1.374 . S
C207 H187 0.950 . S
C207 C203 1.385 . S
C207 C206 1.374 . S
C208 C205 1.499 . S
C208 C209 1.373 . S
C208 C210 1.389 . S
C209 H188 0.950 . S
C209 C208 1.373 . S
C209 C225 1.377 . S
C210 C208 1.389 . S
C210 C211 1.524 . S
C210 C224 1.377 . S
C211 C210 1.524 . S
C211 C212 1.397 . S
C211 C216 1.363 1_455 S
C212 H189 0.950 . S
C212 C211 1.397 . S
C212 C213 1.334 . S
C213 H190 0.950 . S
C213 C212 1.334 . S
C213 C214 1.287 . S
C214 C213 1.287 . S
C214 C215 1.524 1_455 S
C214 H233 0.907 1_455 S
C215 H191 0.950 . S
C215 C214 1.524 1_655 S
C215 C216 1.415 . S
C216 H192 0.950 . S
C216 C211 1.363 1_655 S
C216 C215 1.415 . S
C217 H193 0.951 . S
C217 C218 1.366 . S
C217 C219 1.388 . S
C218 C217 1.366 . S
C218 C222 1.387 1_455 S
C219 H194 0.951 . S
C219 C217 1.388 . S
C219 C220 1.366 . S
C220 C219 1.366 . S
C220 C221 1.426 . S
C220 C223 1.499 . S
C221 H195 0.940 1_455 S
C221 C220 1.426 . S
C221 C222 1.373 1_455 S
C222 H196 0.948 . S
C222 C218 1.387 1_655 S
C222 C221 1.373 1_655 S
C223 C220 1.499 . S
C223 C224 1.373 . S
C223 C225 1.389 . S
C224 H197 0.950 . S
C224 C210 1.377 . S
C224 C223 1.373 . S
C225 C209 1.377 . S
C225 C223 1.389 . S
C225 C226 1.524 . S
C226 C225 1.524 . S
C226 C227 1.397 . S
C226 C231 1.363 . S
C227 H198 0.950 . S
C227 C226 1.397 . S
C227 C228 1.334 . S
C228 H199 0.950 . S
C228 C227 1.334 . S
C228 C229 1.287 . S
C229 C228 1.287 . S
C229 C230 1.524 . S
C229 H232 0.999 . S
C230 H200 0.950 . S
C230 C229 1.524 . S
C230 C231 1.415 . S
C231 H201 0.950 . S
C231 C226 1.363 . S
C231 C230 1.415 . S
H232 C229 0.999 . S
H233 C214 0.907 1_655 S
H234 C252 0.951 1_565 S
H235 C254 0.951 1_565 S
H236 C256 0.950 . S
H237 C257 0.950 . S
H238 C259 0.950 . S
H239 C262 0.950 . S
H240 C263 0.950 . S
H241 C265 0.965 . S
H242 C266 0.950 1_565 S
H243 C267 0.951 . S
H244 C269 0.951 . S
H245 C271 0.950 1_565 S
H246 C272 0.950 1_565 S
H247 C274 0.950 . S
H248 C277 0.936 1_565 S
H249 C278 0.950 . S
H250 C280 0.950 . S
H251 C281 0.950 . S
C252 H234 0.951 1_545 S
C252 C253 1.366 . S
C252 C254 1.388 . S
C253 C252 1.366 . S
C253 C257 1.385 . S
C254 H235 0.951 1_545 S
C254 C252 1.388 . S
C254 C255 1.366 . S
C255 C254 1.366 . S
C255 C256 1.414 . S
C255 C258 1.499 . S
C256 H236 0.950 . S
C256 C255 1.414 . S
C256 C257 1.374 . S
C257 H237 0.950 . S
C257 C253 1.385 . S
C257 C256 1.374 . S
C258 C255 1.499 . S
C258 C259 1.373 . S
C258 C260 1.389 . S
C259 H238 0.950 . S
C259 C258 1.373 . S
C259 C275 1.377 . S
C260 C258 1.389 . S
C260 C261 1.524 . S
C260 C274 1.377 . S
C261 C260 1.524 . S
C261 C262 1.397 . S
C261 C266 1.363 . S
C262 H239 0.950 . S
C262 C261 1.397 . S
C262 C263 1.334 . S
C263 H240 0.950 . S
C263 C262 1.334 . S
C263 C264 1.287 . S
C264 C263 1.287 . S
C264 C265 1.524 . S
C264 H283 0.913 . S
C265 H241 0.965 . S
C265 C264 1.524 . S
C265 C266 1.415 . S
C266 H242 0.950 1_545 S
C266 C261 1.363 . S
C266 C265 1.415 . S
C267 H243 0.951 . S
C267 C268 1.366 . S
C267 C269 1.388 . S
C268 C267 1.366 . S
C268 C272 1.385 . S
C269 H244 0.951 . S
C269 C267 1.388 . S
C269 C270 1.366 . S
C270 C269 1.366 . S
C270 C271 1.414 . S
C270 C273 1.499 . S
C271 H245 0.950 1_545 S
C271 C270 1.414 . S
C271 C272 1.374 . S
C272 H246 0.950 1_545 S
C272 C268 1.385 . S
C272 C271 1.374 . S
C273 C270 1.499 . S
C273 C274 1.373 . S
C273 C275 1.389 . S
C274 H247 0.950 . S
C274 C260 1.377 . S
C274 C273 1.373 . S
C275 C259 1.377 . S
C275 C273 1.389 . S
C275 C276 1.524 . S
C276 C275 1.524 . S
C276 C277 1.414 . S
C276 C281 1.363 . S
C277 H248 0.936 1_545 S
C277 C276 1.414 . S
C277 C278 1.330 1_545 S
C278 H249 0.950 . S
C278 C277 1.330 1_565 S
C278 C279 1.287 1_565 S
C279 C278 1.287 1_545 S
C279 C280 1.524 . S
C279 H282 0.999 . S
C280 H250 0.950 . S
C280 C279 1.524 . S
C280 C281 1.415 . S
C281 H251 0.950 . S
C281 C276 1.363 . S
C281 C280 1.415 . S
H282 C279 0.999 . S
H283 C264 0.913 . S
H284 C302 0.951 . S
H285 C304 0.951 . S
H286 C306 0.950 . S
H287 C307 0.950 . S
H288 C309 0.950 . S
H289 C312 0.950 . S
H290 C313 0.950 . S
H291 C315 0.950 . S
H292 C316 0.950 . S
H293 C317 0.951 . S
H294 C319 0.951 . S
H295 C321 0.950 . S
H296 C322 0.950 . S
H297 C324 0.950 . S
H298 C327 0.950 . S
H299 C328 0.950 . S
H300 C330 0.950 . S
H301 C331 0.950 . S
C302 H284 0.951 . S
C302 C303 1.366 . S
C302 C304 1.388 . S
C303 C302 1.366 . S
C303 C307 1.385 . S
C304 H285 0.951 . S
C304 C302 1.388 . S
C304 C305 1.366 . S
C305 C304 1.366 . S
C305 C306 1.414 . S
C305 C308 1.499 . S
C306 H286 0.950 . S
C306 C305 1.414 . S
C306 C307 1.374 . S
C307 H287 0.950 . S
C307 C303 1.385 . S
C307 C306 1.374 . S
C308 C305 1.499 . S
C308 C309 1.373 . S
C308 C310 1.389 . S
C309 H288 0.950 . S
C309 C308 1.373 . S
C309 C325 1.377 . S
C310 C308 1.389 . S
C310 C311 1.524 . S
C310 C324 1.377 . S
C311 C310 1.524 . S
C311 C312 1.397 . S
C311 C316 1.363 . S
C312 H289 0.950 . S
C312 C311 1.397 . S
C312 C313 1.334 . S
C313 H290 0.950 . S
C313 C312 1.334 . S
C313 C314 1.287 . S
C314 C313 1.287 . S
C314 C315 1.524 . S
C314 H333 0.913 . S
C315 H291 0.950 . S
C315 C314 1.524 . S
C315 C316 1.415 . S
C316 H292 0.950 . S
C316 C311 1.363 . S
C316 C315 1.415 . S
C317 H293 0.951 . S
C317 C318 1.366 . S
C317 C319 1.388 . S
C318 C317 1.366 . S
C318 C322 1.385 . S
C319 H294 0.951 . S
C319 C317 1.388 . S
C319 C320 1.366 . S
C320 C319 1.366 . S
C320 C321 1.414 . S
C320 C323 1.499 . S
C321 H295 0.950 . S
C321 C320 1.414 . S
C321 C322 1.374 . S
C322 H296 0.950 . S
C322 C318 1.385 . S
C322 C321 1.374 . S
C323 C320 1.499 . S
C323 C324 1.373 . S
C323 C325 1.389 . S
C324 H297 0.950 . S
C324 C310 1.377 . S
C324 C323 1.373 . S
C325 C309 1.377 . S
C325 C323 1.389 . S
C325 C326 1.524 1_455 S
C326 C325 1.524 1_655 S
C326 C327 1.397 . S
C326 C331 1.363 1_655 S
C327 H298 0.950 . S
C327 C326 1.397 . S
C327 C328 1.334 . S
C328 H299 0.950 . S
C328 C327 1.334 . S
C328 C329 1.287 . S
C329 C328 1.287 . S
C329 C330 1.524 . S
C329 H332 0.999 . S
C330 H300 0.950 . S
C330 C329 1.524 . S
C330 C331 1.415 1_655 S
C331 H301 0.950 . S
C331 C326 1.363 1_455 S
C331 C330 1.415 1_455 S
H332 C329 0.999 . S
H333 C314 0.913 . S
H334 C352 0.951 . S
H335 C354 0.951 . S
H336 C356 0.950 . S
H337 C357 0.950 . S
H338 C359 0.950 . S
H339 C362 0.950 . S
H340 C363 0.950 . S
H341 C365 0.950 . S
H342 C366 0.950 . S
H343 C367 0.951 . S
H344 C369 0.951 . S
H345 C371 0.950 . S
H346 C372 0.950 . S
H347 C374 0.950 . S
H348 C377 0.950 . S
H349 C378 0.950 . S
H350 C380 0.950 . S
H351 C381 0.950 1_545 S
C352 H334 0.951 . S
C352 C353 1.366 . S
C352 C354 1.388 . S
C353 C352 1.366 . S
C353 C357 1.385 . S
C354 H335 0.951 . S
C354 C352 1.388 . S
C354 C355 1.366 . S
C355 C354 1.366 . S
C355 C356 1.414 . S
C355 C358 1.499 . S
C356 H336 0.950 . S
C356 C355 1.414 . S
C356 C357 1.374 . S
C357 H337 0.950 . S
C357 C353 1.385 . S
C357 C356 1.374 . S
C358 C355 1.499 . S
C358 C359 1.373 . S
C358 C360 1.389 . S
C359 H338 0.950 . S
C359 C358 1.373 . S
C359 C375 1.377 . S
C360 C358 1.389 . S
C360 C361 1.524 . S
C360 C374 1.377 . S
C361 C360 1.524 . S
C361 C362 1.397 . S
C361 C366 1.363 . S
C362 H339 0.950 . S
C362 C361 1.397 . S
C362 C363 1.334 . S
C363 H340 0.950 . S
C363 C362 1.334 . S
C363 C364 1.287 . S
C364 C363 1.287 . S
C364 C365 1.524 . S
C364 H383 0.913 . S
C365 H341 0.950 . S
C365 C364 1.524 . S
C365 C366 1.415 . S
C366 H342 0.950 . S
C366 C361 1.363 . S
C366 C365 1.415 . S
C367 H343 0.951 . S
C367 C368 1.366 . S
C367 C369 1.388 . S
C368 C367 1.366 . S
C368 C372 1.385 . S
C369 H344 0.951 . S
C369 C367 1.388 . S
C369 C370 1.366 . S
C370 C369 1.366 . S
C370 C371 1.414 . S
C370 C373 1.499 . S
C371 H345 0.950 . S
C371 C370 1.414 . S
C371 C372 1.374 . S
C372 H346 0.950 . S
C372 C368 1.385 . S
C372 C371 1.374 . S
C373 C370 1.499 . S
C373 C374 1.373 . S
C373 C375 1.389 . S
C374 H347 0.950 . S
C374 C360 1.377 . S
C374 C373 1.373 . S
C375 C359 1.377 . S
C375 C373 1.389 . S
C375 C376 1.524 1_545 S
C376 C375 1.524 1_565 S
C376 C377 1.397 . S
C376 C381 1.363 . S
C377 H348 0.950 . S
C377 C376 1.397 . S
C377 C378 1.334 . S
C378 H349 0.950 . S
C378 C377 1.334 . S
C378 C379 1.287 . S
C379 C378 1.287 . S
C379 C380 1.524 . S
C379 H382 0.999 . S
C380 H350 0.950 . S
C380 C379 1.524 . S
C380 C381 1.415 . S
C381 H351 0.950 1_565 S
C381 C376 1.363 . S
C381 C380 1.415 . S
H382 C379 0.999 . S
H383 C364 0.913 . S
H384 C402 0.951 . S
H385 C404 0.951 . S
H386 C406 0.950 . S
H387 C407 0.950 . S
H388 C409 0.950 1_655 S
H389 C412 0.950 . S
H390 C413 0.950 . S
H391 C415 0.950 . S
H392 C416 0.950 . S
H393 C417 0.951 . S
H394 C419 0.951 . S
H395 C421 0.950 . S
H396 C422 0.950 . S
H397 C424 0.950 . S
H398 C427 0.950 . S
H399 C428 0.950 . S
H400 C430 0.950 . S
H401 C431 0.950 . S
C402 H384 0.951 . S
C402 C403 1.366 . S
C402 C404 1.388 . S
C403 C402 1.366 . S
C403 C407 1.385 . S
C404 H385 0.951 . S
C404 C402 1.388 . S
C404 C405 1.366 . S
C405 C404 1.366 . S
C405 C406 1.414 . S
C405 C408 1.499 . S
C406 H386 0.950 . S
C406 C405 1.414 . S
C406 C407 1.374 . S
C407 H387 0.950 . S
C407 C403 1.385 . S
C407 C406 1.374 . S
C408 C405 1.499 . S
C408 C409 1.373 . S
C408 C410 1.389 . S
C409 H388 0.950 1_455 S
C409 C408 1.373 . S
C409 C425 1.377 . S
C410 C408 1.389 . S
C410 C411 1.524 . S
C410 C424 1.377 . S
C411 C410 1.524 . S
C411 C412 1.397 . S
C411 C416 1.363 . S
C412 H389 0.950 . S
C412 C411 1.397 . S
C412 C413 1.334 . S
C413 H390 0.950 . S
C413 C412 1.334 . S
C413 C414 1.287 . S
C414 C413 1.287 . S
C414 C415 1.524 . S
C414 H433 0.913 . S
C415 H391 0.950 . S
C415 C414 1.524 . S
C415 C416 1.415 . S
C416 H392 0.950 . S
C416 C411 1.363 . S
C416 C415 1.415 . S
C417 H393 0.951 . S
C417 C418 1.366 . S
C417 C419 1.388 . S
C418 C417 1.366 . S
C418 C422 1.385 . S
C419 H394 0.951 . S
C419 C417 1.388 . S
C419 C420 1.366 . S
C420 C419 1.366 . S
C420 C421 1.414 . S
C420 C423 1.499 . S
C421 H395 0.950 . S
C421 C420 1.414 . S
C421 C422 1.374 . S
C422 H396 0.950 . S
C422 C418 1.385 . S
C422 C421 1.374 . S
C423 C420 1.499 . S
C423 C424 1.373 . S
C423 C425 1.389 . S
C424 H397 0.950 . S
C424 C410 1.377 . S
C424 C423 1.373 . S
C425 C409 1.377 . S
C425 C423 1.389 . S
C425 C426 1.524 1_455 S
C426 C425 1.524 1_655 S
C426 C427 1.397 . S
C426 C431 1.363 . S
C427 H398 0.950 . S
C427 C426 1.397 . S
C427 C428 1.334 . S
C428 H399 0.950 . S
C428 C427 1.334 . S
C428 C429 1.287 . S
C429 C428 1.287 . S
C429 C430 1.524 . S
C429 H432 0.999 . S
C430 H400 0.950 . S
C430 C429 1.524 . S
C430 C431 1.415 . S
C431 H401 0.950 . S
C431 C426 1.363 . S
C431 C430 1.415 . S
H432 C429 0.999 . S
H433 C414 0.913 . S
H434 C452 0.951 . S
H435 C454 0.951 . S
H436 C456 0.950 1_565 S
H437 C457 0.950 1_565 S
H438 C459 0.950 . S
H439 C462 0.950 . S
H440 C463 0.950 . S
H441 C465 0.950 . S
H442 C466 0.950 . S
H443 C467 0.951 . S
H444 C469 0.959 . S
H445 C471 0.950 . S
H446 C472 0.950 . S
H447 C474 0.950 . S
H448 C477 0.950 . S
H449 C478 0.950 . S
H450 C480 0.950 1_565 S
H451 C481 0.950 1_565 S
C452 H434 0.951 . S
C452 C453 1.366 . S
C452 C454 1.388 . S
C453 C452 1.366 . S
C453 C457 1.385 . S
C454 H435 0.951 . S
C454 C452 1.388 . S
C454 C455 1.366 . S
C455 C454 1.366 . S
C455 C456 1.414 . S
C455 C458 1.499 . S
C456 H436 0.950 1_545 S
C456 C455 1.414 . S
C456 C457 1.374 . S
C457 H437 0.950 1_545 S
C457 C453 1.385 . S
C457 C456 1.374 . S
C458 C455 1.499 . S
C458 C459 1.373 . S
C458 C460 1.389 . S
C459 H438 0.950 . S
C459 C458 1.373 . S
C459 C475 1.377 . S
C460 C458 1.389 . S
C460 C461 1.524 . S
C460 C474 1.377 . S
C461 C460 1.524 . S
C461 C462 1.397 . S
C461 C466 1.363 . S
C462 H439 0.950 . S
C462 C461 1.397 . S
C462 C463 1.334 . S
C463 H440 0.950 . S
C463 C462 1.334 . S
C463 C464 1.287 . S
C464 C463 1.287 . S
C464 C465 1.524 . S
C464 H483 0.913 . S
C465 H441 0.950 . S
C465 C464 1.524 . S
C465 C466 1.415 . S
C466 H442 0.950 . S
C466 C461 1.363 . S
C466 C465 1.415 . S
C467 H443 0.951 . S
C467 C468 1.366 . S
C467 C469 1.388 . S
C468 C467 1.366 . S
C468 C472 1.385 . S
C469 H444 0.959 . S
C469 C467 1.388 . S
C469 C470 1.366 . S
C470 C469 1.366 . S
C470 C471 1.414 . S
C470 C473 1.499 . S
C471 H445 0.950 . S
C471 C470 1.414 . S
C471 C472 1.374 . S
C472 H446 0.950 . S
C472 C468 1.385 . S
C472 C471 1.374 . S
C473 C470 1.499 . S
C473 C474 1.373 . S
C473 C475 1.389 . S
C474 H447 0.950 . S
C474 C460 1.377 . S
C474 C473 1.373 . S
C475 C459 1.377 . S
C475 C473 1.389 . S
C475 C476 1.524 . S
C476 C475 1.524 . S
C476 C477 1.397 . S
C476 C481 1.363 . S
C477 H448 0.950 . S
C477 C476 1.397 . S
C477 C478 1.334 . S
C478 H449 0.950 . S
C478 C477 1.334 . S
C478 C479 1.287 . S
C479 C478 1.287 . S
C479 C480 1.524 . S
C479 H482 0.999 . S
C480 H450 0.950 1_545 S
C480 C479 1.524 . S
C480 C481 1.415 . S
C481 H451 0.950 1_545 S
C481 C476 1.363 . S
C481 C480 1.415 . S
H482 C479 0.999 . S
H483 C464 0.913 . S
H484 C502 0.951 . S
H485 C504 0.951 . S
H486 C506 0.950 . S
H487 C507 0.950 . S
H488 C509 0.950 . S
H489 C512 0.950 . S
H490 C513 0.950 . S
H491 C515 0.950 . S
H492 C516 0.950 . S
H493 C517 0.951 . S
H494 C519 0.951 . S
H495 C521 0.950 . S
H496 C522 0.950 . S
H497 C524 0.950 1_655 S
H498 C527 0.950 . S
H499 C528 0.950 . S
H500 C530 0.950 . S
H501 C531 0.950 . S
C502 H484 0.951 . S
C502 C503 1.366 . S
C502 C504 1.388 . S
C503 C502 1.366 . S
C503 C507 1.385 . S
C504 H485 0.951 . S
C504 C502 1.388 . S
C504 C505 1.366 . S
C505 C504 1.366 . S
C505 C506 1.414 . S
C505 C508 1.499 . S
C506 H486 0.950 . S
C506 C505 1.414 . S
C506 C507 1.374 . S
C507 H487 0.950 . S
C507 C503 1.385 . S
C507 C506 1.374 . S
C508 C505 1.499 . S
C508 C509 1.373 . S
C508 C510 1.389 . S
C509 H488 0.950 . S
C509 C508 1.373 . S
C509 C525 1.377 . S
C510 C508 1.389 . S
C510 C511 1.524 1_455 S
C510 C524 1.377 . S
C511 C510 1.524 1_655 S
C511 C512 1.397 . S
C511 C516 1.363 . S
C512 H489 0.950 . S
C512 C511 1.397 . S
C512 C513 1.334 . S
C513 H490 0.950 . S
C513 C512 1.334 . S
C513 C514 1.287 . S
C514 C513 1.287 . S
C514 C515 1.524 . S
C514 H533 0.913 . S
C515 H491 0.950 . S
C515 C514 1.524 . S
C515 C516 1.415 . S
C516 H492 0.950 . S
C516 C511 1.363 . S
C516 C515 1.415 . S
C517 H493 0.951 . S
C517 C518 1.366 . S
C517 C519 1.388 . S
C518 C517 1.366 . S
C518 C522 1.385 . S
C519 H494 0.951 . S
C519 C517 1.388 . S
C519 C520 1.366 . S
C520 C519 1.366 . S
C520 C521 1.414 . S
C520 C523 1.499 . S
C521 H495 0.950 . S
C521 C520 1.414 . S
C521 C522 1.374 . S
C522 H496 0.950 . S
C522 C518 1.385 . S
C522 C521 1.374 . S
C523 C520 1.499 . S
C523 C524 1.373 . S
C523 C525 1.389 . S
C524 H497 0.950 1_455 S
C524 C510 1.377 . S
C524 C523 1.373 . S
C525 C509 1.377 . S
C525 C523 1.389 . S
C525 C526 1.524 . S
C526 C525 1.524 . S
C526 C527 1.397 . S
C526 C531 1.363 . S
C527 H498 0.950 . S
C527 C526 1.397 . S
C527 C528 1.334 . S
C528 H499 0.950 . S
C528 C527 1.334 . S
C528 C529 1.287 . S
C529 C528 1.287 . S
C529 C530 1.524 . S
C529 H532 0.999 . S
C530 H500 0.950 . S
C530 C529 1.524 . S
C530 C531 1.415 . S
C531 H501 0.950 . S
C531 C526 1.363 . S
C531 C530 1.415 . S
H532 C529 0.999 . S
H533 C514 0.913 . S
C168 C111 1.259 . S
C153 C22 1.501 . S
C218 C131 1.468 . S
C203 C91 1.495 . S
C268 C110 1.460 . S
C253 C38 1.501 . S
C318 C132 1.506 . S
C303 C75 1.505 . S
C368 C124 1.461 . S
C353 C39 1.502 . S
C418 C117 1.469 . S
C403 C82 1.495 . S
C468 C125 1.259 . S
C453 C29 1.502 . S
C503 C92 1.505 . S
C518 C118 1.505 . S
