# Generated by pormake.
# Topology iac, (4,6)-cn, num edge types: 1
# Building blocks:
#     Node 0, Type 0, BuildingBlock: QUQFOY_clean_sbu_1, # of connection points: 4
#     Node 1, Type 0, BuildingBlock: QUQFOY_clean_sbu_1, # of connection points: 4
#     Node 2, Type 0, BuildingBlock: QUQFOY_clean_sbu_1, # of connection points: 4
#     Node 3, Type 0, BuildingBlock: QUQFOY_clean_sbu_1, # of connection points: 4
#     Node 4, Type 0, BuildingBlock: QUQFOY_clean_sbu_1, # of connection points: 4
#     Node 5, Type 0, BuildingBlock: QUQFOY_clean_sbu_1, # of connection points: 4
#     Node 6, Type 0, BuildingBlock: QUQFOY_clean_sbu_1, # of connection points: 4
#     Node 7, Type 0, BuildingBlock: QUQFOY_clean_sbu_1, # of connection points: 4
#     Node 8, Type 0, BuildingBlock: QUQFOY_clean_sbu_1, # of connection points: 4
#     Node 9, Type 0, BuildingBlock: QUQFOY_clean_sbu_1, # of connection points: 4
#     Node 10, Type 0, BuildingBlock: QUQFOY_clean_sbu_1, # of connection points: 4
#     Node 11, Type 0, BuildingBlock: QUQFOY_clean_sbu_1, # of connection points: 4
#     Node 12, Type 0, BuildingBlock: QUQFOY_clean_sbu_1, # of connection points: 4
#     Node 13, Type 0, BuildingBlock: QUQFOY_clean_sbu_1, # of connection points: 4
#     Node 14, Type 0, BuildingBlock: QUQFOY_clean_sbu_1, # of connection points: 4
#     Node 15, Type 0, BuildingBlock: QUQFOY_clean_sbu_1, # of connection points: 4
#     Node 16, Type 0, BuildingBlock: QUQFOY_clean_sbu_1, # of connection points: 4
#     Node 17, Type 0, BuildingBlock: QUQFOY_clean_sbu_1, # of connection points: 4
#     Node 18, Type 0, BuildingBlock: QUQFOY_clean_sbu_1, # of connection points: 4
#     Node 19, Type 0, BuildingBlock: QUQFOY_clean_sbu_1, # of connection points: 4
#     Node 20, Type 0, BuildingBlock: QUQFOY_clean_sbu_1, # of connection points: 4
#     Node 21, Type 0, BuildingBlock: QUQFOY_clean_sbu_1, # of connection points: 4
#     Node 22, Type 0, BuildingBlock: QUQFOY_clean_sbu_1, # of connection points: 4
#     Node 23, Type 0, BuildingBlock: QUQFOY_clean_sbu_1, # of connection points: 4
#     Node 24, Type 1, BuildingBlock: FUNLAD_clean_sbu_0, # of connection points: 6
#     Node 25, Type 1, BuildingBlock: FUNLAD_clean_sbu_0, # of connection points: 6
#     Node 26, Type 1, BuildingBlock: FUNLAD_clean_sbu_0, # of connection points: 6
#     Node 27, Type 1, BuildingBlock: FUNLAD_clean_sbu_0, # of connection points: 6
#     Node 28, Type 1, BuildingBlock: FUNLAD_clean_sbu_0, # of connection points: 6
#     Node 29, Type 1, BuildingBlock: FUNLAD_clean_sbu_0, # of connection points: 6
#     Node 30, Type 1, BuildingBlock: FUNLAD_clean_sbu_0, # of connection points: 6
#     Node 31, Type 1, BuildingBlock: FUNLAD_clean_sbu_0, # of connection points: 6
#     Node 32, Type 1, BuildingBlock: FUNLAD_clean_sbu_0, # of connection points: 6
#     Node 33, Type 1, BuildingBlock: FUNLAD_clean_sbu_0, # of connection points: 6
#     Node 34, Type 1, BuildingBlock: FUNLAD_clean_sbu_0, # of connection points: 6
#     Node 35, Type 1, BuildingBlock: FUNLAD_clean_sbu_0, # of connection points: 6
#     Node 36, Type 1, BuildingBlock: FUNLAD_clean_sbu_0, # of connection points: 6
#     Node 37, Type 1, BuildingBlock: FUNLAD_clean_sbu_0, # of connection points: 6
#     Node 38, Type 1, BuildingBlock: FUNLAD_clean_sbu_0, # of connection points: 6
#     Node 39, Type 1, BuildingBlock: FUNLAD_clean_sbu_0, # of connection points: 6
#     Edge 40, Type (0, 1), BuildingBlock: AJUNOK_clean_linker_0, # of connection points: 2
#     Edge 41, Type (0, 1), BuildingBlock: AJUNOK_clean_linker_0, # of connection points: 2
#     Edge 42, Type (0, 1), BuildingBlock: AJUNOK_clean_linker_0, # of connection points: 2
#     Edge 43, Type (0, 1), BuildingBlock: AJUNOK_clean_linker_0, # of connection points: 2
#     Edge 44, Type (0, 1), BuildingBlock: AJUNOK_clean_linker_0, # of connection points: 2
#     Edge 45, Type (0, 1), BuildingBlock: AJUNOK_clean_linker_0, # of connection points: 2
#     Edge 46, Type (0, 1), BuildingBlock: AJUNOK_clean_linker_0, # of connection points: 2
#     Edge 47, Type (0, 1), BuildingBlock: AJUNOK_clean_linker_0, # of connection points: 2
#     Edge 48, Type (0, 1), BuildingBlock: AJUNOK_clean_linker_0, # of connection points: 2
#     Edge 49, Type (0, 1), BuildingBlock: AJUNOK_clean_linker_0, # of connection points: 2
#     Edge 50, Type (0, 1), BuildingBlock: AJUNOK_clean_linker_0, # of connection points: 2
#     Edge 51, Type (0, 1), BuildingBlock: AJUNOK_clean_linker_0, # of connection points: 2
#     Edge 52, Type (0, 1), BuildingBlock: AJUNOK_clean_linker_0, # of connection points: 2
#     Edge 53, Type (0, 1), BuildingBlock: AJUNOK_clean_linker_0, # of connection points: 2
#     Edge 54, Type (0, 1), BuildingBlock: AJUNOK_clean_linker_0, # of connection points: 2
#     Edge 55, Type (0, 1), BuildingBlock: AJUNOK_clean_linker_0, # of connection points: 2
#     Edge 56, Type (0, 1), BuildingBlock: AJUNOK_clean_linker_0, # of connection points: 2
#     Edge 57, Type (0, 1), BuildingBlock: AJUNOK_clean_linker_0, # of connection points: 2
#     Edge 58, Type (0, 1), BuildingBlock: AJUNOK_clean_linker_0, # of connection points: 2
#     Edge 59, Type (0, 1), BuildingBlock: AJUNOK_clean_linker_0, # of connection points: 2
#     Edge 60, Type (0, 1), BuildingBlock: AJUNOK_clean_linker_0, # of connection points: 2
#     Edge 61, Type (0, 1), BuildingBlock: AJUNOK_clean_linker_0, # of connection points: 2
#     Edge 62, Type (0, 1), BuildingBlock: AJUNOK_clean_linker_0, # of connection points: 2
#     Edge 63, Type (0, 1), BuildingBlock: AJUNOK_clean_linker_0, # of connection points: 2
#     Edge 64, Type (0, 1), BuildingBlock: AJUNOK_clean_linker_0, # of connection points: 2
#     Edge 65, Type (0, 1), BuildingBlock: AJUNOK_clean_linker_0, # of connection points: 2
#     Edge 66, Type (0, 1), BuildingBlock: AJUNOK_clean_linker_0, # of connection points: 2
#     Edge 67, Type (0, 1), BuildingBlock: AJUNOK_clean_linker_0, # of connection points: 2
#     Edge 68, Type (0, 1), BuildingBlock: AJUNOK_clean_linker_0, # of connection points: 2
#     Edge 69, Type (0, 1), BuildingBlock: AJUNOK_clean_linker_0, # of connection points: 2
#     Edge 70, Type (0, 1), BuildingBlock: AJUNOK_clean_linker_0, # of connection points: 2
#     Edge 71, Type (0, 1), BuildingBlock: AJUNOK_clean_linker_0, # of connection points: 2
#     Edge 72, Type (0, 1), BuildingBlock: AJUNOK_clean_linker_0, # of connection points: 2
#     Edge 73, Type (0, 1), BuildingBlock: AJUNOK_clean_linker_0, # of connection points: 2
#     Edge 74, Type (0, 1), BuildingBlock: AJUNOK_clean_linker_0, # of connection points: 2
#     Edge 75, Type (0, 1), BuildingBlock: AJUNOK_clean_linker_0, # of connection points: 2
#     Edge 76, Type (0, 1), BuildingBlock: AJUNOK_clean_linker_0, # of connection points: 2
#     Edge 77, Type (0, 1), BuildingBlock: AJUNOK_clean_linker_0, # of connection points: 2
#     Edge 78, Type (0, 1), BuildingBlock: AJUNOK_clean_linker_0, # of connection points: 2
#     Edge 79, Type (0, 1), BuildingBlock: AJUNOK_clean_linker_0, # of connection points: 2
#     Edge 80, Type (0, 1), BuildingBlock: AJUNOK_clean_linker_0, # of connection points: 2
#     Edge 81, Type (0, 1), BuildingBlock: AJUNOK_clean_linker_0, # of connection points: 2
#     Edge 82, Type (0, 1), BuildingBlock: AJUNOK_clean_linker_0, # of connection points: 2
#     Edge 83, Type (0, 1), BuildingBlock: AJUNOK_clean_linker_0, # of connection points: 2
#     Edge 84, Type (0, 1), BuildingBlock: AJUNOK_clean_linker_0, # of connection points: 2
#     Edge 85, Type (0, 1), BuildingBlock: AJUNOK_clean_linker_0, # of connection points: 2
#     Edge 86, Type (0, 1), BuildingBlock: AJUNOK_clean_linker_0, # of connection points: 2
#     Edge 87, Type (0, 1), BuildingBlock: AJUNOK_clean_linker_0, # of connection points: 2
#     Edge 88, Type (0, 1), BuildingBlock: AJUNOK_clean_linker_0, # of connection points: 2
#     Edge 89, Type (0, 1), BuildingBlock: AJUNOK_clean_linker_0, # of connection points: 2
#     Edge 90, Type (0, 1), BuildingBlock: AJUNOK_clean_linker_0, # of connection points: 2
#     Edge 91, Type (0, 1), BuildingBlock: AJUNOK_clean_linker_0, # of connection points: 2
#     Edge 92, Type (0, 1), BuildingBlock: AJUNOK_clean_linker_0, # of connection points: 2
#     Edge 93, Type (0, 1), BuildingBlock: AJUNOK_clean_linker_0, # of connection points: 2
#     Edge 94, Type (0, 1), BuildingBlock: AJUNOK_clean_linker_0, # of connection points: 2
#     Edge 95, Type (0, 1), BuildingBlock: AJUNOK_clean_linker_0, # of connection points: 2
#     Edge 96, Type (0, 1), BuildingBlock: AJUNOK_clean_linker_0, # of connection points: 2
#     Edge 97, Type (0, 1), BuildingBlock: AJUNOK_clean_linker_0, # of connection points: 2
#     Edge 98, Type (0, 1), BuildingBlock: AJUNOK_clean_linker_0, # of connection points: 2
#     Edge 99, Type (0, 1), BuildingBlock: AJUNOK_clean_linker_0, # of connection points: 2
#     Edge 100, Type (0, 1), BuildingBlock: AJUNOK_clean_linker_0, # of connection points: 2
#     Edge 101, Type (0, 1), BuildingBlock: AJUNOK_clean_linker_0, # of connection points: 2
#     Edge 102, Type (0, 1), BuildingBlock: AJUNOK_clean_linker_0, # of connection points: 2
#     Edge 103, Type (0, 1), BuildingBlock: AJUNOK_clean_linker_0, # of connection points: 2
#     Edge 104, Type (0, 1), BuildingBlock: AJUNOK_clean_linker_0, # of connection points: 2
#     Edge 105, Type (0, 1), BuildingBlock: AJUNOK_clean_linker_0, # of connection points: 2
#     Edge 106, Type (0, 1), BuildingBlock: AJUNOK_clean_linker_0, # of connection points: 2
#     Edge 107, Type (0, 1), BuildingBlock: AJUNOK_clean_linker_0, # of connection points: 2
#     Edge 108, Type (0, 1), BuildingBlock: AJUNOK_clean_linker_0, # of connection points: 2
#     Edge 109, Type (0, 1), BuildingBlock: AJUNOK_clean_linker_0, # of connection points: 2
#     Edge 110, Type (0, 1), BuildingBlock: AJUNOK_clean_linker_0, # of connection points: 2
#     Edge 111, Type (0, 1), BuildingBlock: AJUNOK_clean_linker_0, # of connection points: 2
#     Edge 112, Type (0, 1), BuildingBlock: AJUNOK_clean_linker_0, # of connection points: 2
#     Edge 113, Type (0, 1), BuildingBlock: AJUNOK_clean_linker_0, # of connection points: 2
#     Edge 114, Type (0, 1), BuildingBlock: AJUNOK_clean_linker_0, # of connection points: 2
#     Edge 115, Type (0, 1), BuildingBlock: AJUNOK_clean_linker_0, # of connection points: 2
#     Edge 116, Type (0, 1), BuildingBlock: AJUNOK_clean_linker_0, # of connection points: 2
#     Edge 117, Type (0, 1), BuildingBlock: AJUNOK_clean_linker_0, # of connection points: 2
#     Edge 118, Type (0, 1), BuildingBlock: AJUNOK_clean_linker_0, # of connection points: 2
#     Edge 119, Type (0, 1), BuildingBlock: AJUNOK_clean_linker_0, # of connection points: 2
#     Edge 120, Type (0, 1), BuildingBlock: AJUNOK_clean_linker_0, # of connection points: 2
#     Edge 121, Type (0, 1), BuildingBlock: AJUNOK_clean_linker_0, # of connection points: 2
#     Edge 122, Type (0, 1), BuildingBlock: AJUNOK_clean_linker_0, # of connection points: 2
#     Edge 123, Type (0, 1), BuildingBlock: AJUNOK_clean_linker_0, # of connection points: 2
#     Edge 124, Type (0, 1), BuildingBlock: AJUNOK_clean_linker_0, # of connection points: 2
#     Edge 125, Type (0, 1), BuildingBlock: AJUNOK_clean_linker_0, # of connection points: 2
#     Edge 126, Type (0, 1), BuildingBlock: AJUNOK_clean_linker_0, # of connection points: 2
#     Edge 127, Type (0, 1), BuildingBlock: AJUNOK_clean_linker_0, # of connection points: 2
#     Edge 128, Type (0, 1), BuildingBlock: AJUNOK_clean_linker_0, # of connection points: 2
#     Edge 129, Type (0, 1), BuildingBlock: AJUNOK_clean_linker_0, # of connection points: 2
#     Edge 130, Type (0, 1), BuildingBlock: AJUNOK_clean_linker_0, # of connection points: 2
#     Edge 131, Type (0, 1), BuildingBlock: AJUNOK_clean_linker_0, # of connection points: 2
#     Edge 132, Type (0, 1), BuildingBlock: AJUNOK_clean_linker_0, # of connection points: 2
#     Edge 133, Type (0, 1), BuildingBlock: AJUNOK_clean_linker_0, # of connection points: 2
#     Edge 134, Type (0, 1), BuildingBlock: AJUNOK_clean_linker_0, # of connection points: 2
#     Edge 135, Type (0, 1), BuildingBlock: AJUNOK_clean_linker_0, # of connection points: 2
# Relax obj value: 0.394
# Max RMSD: 0.285
# Mean RMSD: 0.190
data_MOF--net-iac--node1-QUQFOY_clean_sbu_1--node2-FUNLAD_clean_sbu_0--edge1-AJUNOK_clean_linker_0
_symmetry_space_group_name_H-M    P1
_symmetry_Int_Tables_number       1
_symmetry_cell_setting            triclinic
loop_
_symmetry_equiv_pos_as_xyz
'x, y, z'
_cell_length_a     41.736726
_cell_length_b     40.192321
_cell_length_c     46.689166
_cell_angle_alpha  90.55573
_cell_angle_beta   92.339487
_cell_angle_gamma 93.236125
loop_
_atom_site_label
_atom_site_type_symbol
_atom_site_fract_x
_atom_site_fract_y
_atom_site_fract_z
_atom_type_partial_charge
O0 O 0.06965 0.1708 0.12219 0.0
Cd1 Cd 0.07487 0.21523 0.14484 0.0
Cd2 Cd 0.11352 0.22601 0.09747 0.0
O3 O 0.10004 0.17913 0.08498 0.0
O4 O 0.0521 0.20483 0.1805 0.0
O5 O 0.03566 0.24127 0.1488 0.0
C6 C 0.03158 0.22606 0.17271 0.0
C7 C 0.08961 0.2712 0.07959 0.0
C8 C 0.08078 0.16072 0.09892 0.0
C9 C 0.14577 0.24181 0.15131 0.0
O10 O 0.15134 0.2353 0.12547 0.0
O11 O 0.11793 0.23643 0.16089 0.0
O12 O 0.11295 0.2587 0.06647 0.0
O13 O 0.07901 0.25653 0.10208 0.0
O14 O 0.11496 0.76448 0.39798 0.0
Cd15 Cd 0.07766 0.76366 0.42714 0.0
Cd16 Cd 0.04859 0.79824 0.37602 0.0
O17 O 0.09253 0.78416 0.35834 0.0
O18 O 0.09167 0.73334 0.45924 0.0
O19 O 0.05012 0.72033 0.43002 0.0
C20 C 0.06866 0.71207 0.45132 0.0
C21 C 0.99712 0.78993 0.35127 0.0
C22 C 0.11671 0.77206 0.37153 0.0
C23 C 0.05491 0.83467 0.43545 0.0
O24 O 0.04947 0.83546 0.40832 0.0
O25 O 0.06472 0.8082 0.44701 0.0
O26 O 0.01773 0.81328 0.34426 0.0
O27 O 1.00631 0.7701 0.37125 0.0
O28 O 0.55498 0.65658 0.65643 0.0
Cd29 Cd 0.57263 0.69462 0.68243 0.0
Cd30 Cd 0.57219 0.73316 0.63432 0.0
O31 O 0.54943 0.68947 0.61933 0.0
O32 O 0.55146 0.69363 0.71959 0.0
O33 O 0.54361 0.73125 0.68583 0.0
C34 C 0.53644 0.71897 0.71038 0.0
C35 C 0.55638 0.78143 0.61251 0.0
C36 C 0.54525 0.66111 0.63077 0.0
C37 C 0.63521 0.72486 0.66768 0.0
O38 O 0.62013 0.73758 0.64678 0.0
O39 O 0.62078 0.70611 0.68529 0.0
O40 O 0.57257 0.76024 0.59924 0.0
O41 O 0.54785 0.77443 0.63811 0.0
O42 O 0.61794 0.26666 0.89493 0.0
Cd43 Cd 0.58345 0.2636 0.92664 0.0
Cd44 Cd 0.54828 0.29889 0.87719 0.0
O45 O 0.59132 0.28607 0.85719 0.0
O46 O 0.60161 0.23402 0.95758 0.0
O47 O 0.55862 0.21896 0.93073 0.0
C48 C 0.57917 0.21163 0.95081 0.0
C49 C 0.49636 0.29379 0.8529 0.0
C50 C 0.6169 0.27457 0.86846 0.0
C51 C 0.55718 0.33279 0.93756 0.0
O52 O 0.55003 0.33443 0.91076 0.0
O53 O 0.56924 0.30669 0.94779 0.0
O54 O 0.51759 0.31695 0.84688 0.0
O55 O 0.50505 0.27229 0.87168 0.0
O56 O 0.16166 0.97502 0.2081 0.0
Cd57 Cd 0.19515 0.98703 0.24147 0.0
Cd58 Cd 0.13986 0.01099 0.26327 0.0
O59 O 0.11707 0.98504 0.2295 0.0
O60 O 0.23355 0.96247 0.23237 0.0
O61 O 0.20504 0.95214 0.27053 0.0
C62 C 0.22898 0.94535 0.25519 0.0
C63 C 0.11762 0.01478 0.30777 0.0
C64 C 0.13108 0.97401 0.20804 0.0
C65 C 0.1951 0.05968 0.25549 0.0
O66 O 0.16494 0.05509 0.25666 0.0
O67 O 0.2123 0.03536 0.25069 0.0
O68 O 0.10485 0.02813 0.28545 0.0
O69 O 0.14141 0.99612 0.30419 0.0
O70 O 0.28935 0.91178 0.62442 0.0
Cd71 Cd 0.28853 0.94501 0.5897 0.0
Cd72 Cd 0.31835 0.88901 0.56458 0.0
O73 O 0.30872 0.86808 0.60361 0.0
O74 O 0.25514 0.97731 0.59839 0.0
O75 O 0.24981 0.94159 0.56202 0.0
C76 C 0.23797 0.96493 0.57684 0.0
C77 C 0.31853 0.85487 0.52406 0.0
C78 C 0.2975 0.88165 0.62545 0.0
C79 C 0.35357 0.95831 0.56476 0.0
O80 O 0.35262 0.92701 0.56076 0.0
O81 O 0.33013 0.97168 0.57616 0.0
O82 O 0.34035 0.85379 0.54423 0.0
O83 O 0.29487 0.87359 0.5279 0.0
O84 O 0.42899 0.05097 0.69666 0.0
Cd85 Cd 0.39817 0.04686 0.73129 0.0
Cd86 Cd 0.45493 0.0205 0.75562 0.0
O87 O 0.4738 0.035 0.71776 0.0
O88 O 0.36126 0.07543 0.72219 0.0
O89 O 0.3965 0.08645 0.75801 0.0
C90 C 0.37107 0.09447 0.74353 0.0
C91 C 0.4864 0.02416 0.79768 0.0
C92 C 0.45891 0.046 0.69595 0.0
C93 C 0.39399 0.97665 0.75473 0.0
O94 O 0.42433 0.97936 0.75725 0.0
O95 O 0.37847 0.00103 0.74552 0.0
O96 O 0.49247 0.00403 0.77728 0.0
O97 O 0.46381 0.04442 0.79321 0.0
O98 O 0.3559 0.12873 0.0892 0.0
Cd99 Cd 0.34534 0.11332 0.04748 0.0
Cd100 Cd 0.30269 0.15797 0.05478 0.0
O101 O 0.33457 0.17732 0.0856 0.0
O102 O 0.36971 0.07319 0.04769 0.0
O103 O 0.38157 0.11696 0.02083 0.0
C104 C 0.38793 0.08755 0.02948 0.0
C105 C 0.29411 0.18366 0.01185 0.0
C106 C 0.353 0.15801 0.09862 0.0
C107 C 0.27706 0.09206 0.04569 0.0
O108 O 0.27296 0.11653 0.06225 0.0
O109 O 0.30317 0.09041 0.03324 0.0
O110 O 0.27881 0.19207 0.03409 0.0
O111 O 0.31526 0.16147 0.01462 0.0
O112 O 0.78905 0.40548 0.12086 0.0
Cd113 Cd 0.78711 0.44053 0.08738 0.0
Cd114 Cd 0.81192 0.38455 0.05858 0.0
O115 O 0.80475 0.36213 0.09683 0.0
O116 O 0.75301 0.47224 0.09632 0.0
O117 O 0.74861 0.43715 0.05946 0.0
C118 C 0.73636 0.46023 0.0743 0.0
C119 C 0.81304 0.35053 0.01842 0.0
C120 C 0.79621 0.375 0.11997 0.0
C121 C 0.85044 0.45205 0.05978 0.0
O122 O 0.8469 0.42114 0.05454 0.0
O123 O 0.82903 0.46648 0.07325 0.0
O124 O 0.83462 0.34982 0.03876 0.0
O125 O 0.78893 0.36872 0.02194 0.0
O126 O 0.92717 0.54105 0.19048 0.0
Cd127 Cd 0.8968 0.53573 0.22521 0.0
Cd128 Cd 0.95198 0.51049 0.24852 0.0
O129 O 0.97241 0.52751 0.21215 0.0
O130 O 0.86116 0.56611 0.21746 0.0
O131 O 0.89665 0.5736 0.25379 0.0
C132 C 0.87175 0.58347 0.2396 0.0
C133 C 0.98078 0.51419 0.29186 0.0
C134 C 0.9574 0.53794 0.19019 0.0
C135 C 0.89279 0.46482 0.24572 0.0
O136 O 0.92315 0.46791 0.2476 0.0
O137 O 0.87677 0.48952 0.2381 0.0
O138 O 0.98898 0.49514 0.27144 0.0
O139 O 0.95732 0.53326 0.28688 0.0
O140 O 0.89537 0.66536 0.60389 0.0
Cd141 Cd 0.86466 0.63652 0.57728 0.0
Cd142 Cd 0.85358 0.695 0.55615 0.0
O143 O 0.89267 0.71265 0.58102 0.0
O144 O 0.8775 0.59068 0.58363 0.0
O145 O 0.88226 0.61687 0.54234 0.0
C146 C 0.88678 0.59079 0.55763 0.0
C147 C 0.84606 0.70652 0.50844 0.0
C148 C 0.90506 0.69561 0.60089 0.0
C149 C 0.79822 0.65854 0.58067 0.0
O150 O 0.80937 0.68703 0.57338 0.0
O151 O 0.81632 0.63431 0.58237 0.0
O152 O 0.84418 0.72925 0.52789 0.0
O153 O 0.85573 0.67779 0.51603 0.0
O154 O 0.67626 0.49346 0.70608 0.0
Cd155 Cd 0.70382 0.50037 0.74347 0.0
Cd156 Cd 0.64758 0.52592 0.75974 0.0
O157 O 0.62887 0.50603 0.72081 0.0
O158 O 0.74171 0.47433 0.73639 0.0
O159 O 0.70878 0.46331 0.7715 0.0
C160 C 0.73391 0.45621 0.75789 0.0
C161 C 0.6233 0.5209 0.80375 0.0
C162 C 0.64633 0.4959 0.70113 0.0
C163 C 0.70687 0.57207 0.75876 0.0
O164 O 0.67648 0.56904 0.75942 0.0
O165 O 0.72301 0.54704 0.75375 0.0
O166 O 0.61167 0.53895 0.78358 0.0
O167 O 0.64709 0.5031 0.79786 0.0
O168 O 0.03256 0.85392 0.87163 0.0
Cd169 Cd 0.99381 0.8405 0.8966 0.0
Cd170 Cd 0.97998 0.89827 0.85298 0.0
O171 O 0.02447 0.89175 0.8379 0.0
O172 O 0.00856 0.82206 0.93326 0.0
O173 O 0.98174 0.79262 0.89836 0.0
C174 C 0.99517 0.79413 0.92384 0.0
C175 C 0.93711 0.85922 0.84252 0.0
C176 C 0.04262 0.87186 0.85105 0.0
C177 C 0.9713 0.89804 0.91304 0.0
O178 O 0.98348 0.91699 0.89444 0.0
O179 O 0.95765 0.87116 0.90387 0.0
O180 O 0.93455 0.89011 0.83617 0.0
O181 O 0.96435 0.85052 0.8523 0.0
O182 O 0.03671 0.20427 0.65766 0.0
Cd183 Cd 0.03739 0.24215 0.6894 0.0
Cd184 Cd 0.07146 0.2775 0.6414 0.0
O185 O 0.06124 0.23038 0.62239 0.0
O186 O 1.00553 0.22682 0.71948 0.0
O187 O 0.99862 0.27123 0.69362 0.0
C188 C 0.98803 0.25139 0.71317 0.0
C189 C 0.06347 0.32637 0.61358 0.0
C190 C 0.04773 0.20396 0.63248 0.0
C191 C 0.10795 0.26906 0.70008 0.0
O192 O 0.10719 0.28008 0.67447 0.0
O193 O 0.08302 0.25395 0.71005 0.0
O194 O 0.08694 0.30764 0.60931 0.0
O195 O 0.04427 0.31736 0.63347 0.0
O196 O 0.52446 0.30349 0.41812 0.0
Cd197 Cd 0.50578 0.31424 0.37808 0.0
Cd198 Cd 0.47837 0.35877 0.40833 0.0
O199 O 0.48661 0.3267 0.44144 0.0
O200 O 0.52946 0.34178 0.34937 0.0
O201 O 0.53152 0.2872 0.3525 0.0
C202 C 0.54171 0.3148 0.34131 0.0
C203 C 0.517 0.40235 0.40733 0.0
C204 C 0.50948 0.30719 0.44097 0.0
C205 C 0.43395 0.31511 0.37515 0.0
O206 O 0.43658 0.34466 0.38542 0.0
O207 O 0.45883 0.29908 0.37138 0.0
O208 O 0.4904 0.40595 0.42012 0.0
O209 O 0.51898 0.37595 0.39198 0.0
O210 O 0.53547 0.70165 0.15608 0.0
Cd211 Cd 0.53662 0.73888 0.18878 0.0
Cd212 Cd 0.57006 0.77619 0.14113 0.0
O213 O 0.55778 0.73028 0.12094 0.0
O214 O 0.50615 0.72436 0.22049 0.0
O215 O 0.49759 0.76761 0.19357 0.0
C216 C 0.48828 0.74865 0.2142 0.0
C217 C 0.5643 0.8265 0.11456 0.0
C218 C 0.54533 0.70302 0.13043 0.0
C219 C 0.60842 0.76333 0.19783 0.0
O220 O 0.60739 0.77506 0.17247 0.0
O221 O 0.58301 0.74984 0.20834 0.0
O222 O 0.58617 0.80622 0.10918 0.0
O223 O 0.5454 0.81836 0.1349 0.0
O224 O 0.92828 0.01648 0.76488 0.0
Cd225 Cd 0.89801 0.02322 0.79792 0.0
Cd226 Cd 0.94695 0.99035 0.82424 0.0
O227 O 0.97266 0.00487 0.78918 0.0
O228 O 0.86469 0.04914 0.77804 0.0
O229 O 0.89199 0.06762 0.8169 0.0
C230 C 0.87024 0.07221 0.7971 0.0
C231 C 0.97069 0.99295 0.87083 0.0
C232 C 0.95792 0.01087 0.76562 0.0
C233 C 0.88319 0.9535 0.80977 0.0
O234 O 0.91329 0.95167 0.81438 0.0
O235 O 0.87101 0.98155 0.80769 0.0
O236 O 0.97963 0.97247 0.85174 0.0
O237 O 0.94836 0.01256 0.86352 0.0
O238 O 0.80721 0.14373 0.55304 0.0
Cd239 Cd 0.80364 0.11003 0.51963 0.0
Cd240 Cd 0.78162 0.16737 0.49205 0.0
O241 O 0.79436 0.18988 0.53117 0.0
O242 O 0.83014 0.07274 0.53414 0.0
O243 O 0.84279 0.10244 0.49648 0.0
C244 C 0.85021 0.07959 0.51447 0.0
C245 C 0.79316 0.19663 0.44928 0.0
C246 C 0.80244 0.17466 0.55389 0.0
C247 C 0.73322 0.10904 0.50347 0.0
O248 O 0.73908 0.1383 0.494 0.0
O249 O 0.75623 0.09168 0.51236 0.0
O250 O 0.77103 0.2052 0.46585 0.0
O251 O 0.80893 0.1712 0.45691 0.0
O252 O 0.66123 0.01034 0.26767 0.0
Cd253 Cd 0.69708 0.01467 0.29909 0.0
Cd254 Cd 0.64527 0.04832 0.32565 0.0
O255 O 0.62164 0.0354 0.28737 0.0
O256 O 0.73062 0.98824 0.28121 0.0
O257 O 0.7095 0.9743 0.32205 0.0
C258 C 0.72861 0.96757 0.302 0.0
C259 C 0.61433 0.04483 0.36708 0.0
C260 C 0.63298 0.02059 0.26621 0.0
C261 C 0.70665 0.0887 0.31071 0.0
O262 O 0.67908 0.08752 0.32154 0.0
O263 O 0.71882 0.06215 0.30228 0.0
O264 O 0.61081 0.06779 0.34839 0.0
O265 O 0.63597 0.02386 0.36256 0.0
O266 O 0.80453 0.87931 0.03324 0.0
Cd267 Cd 0.78315 0.90497 0.00056 0.0
Cd268 Cd 0.76727 0.83601 0.98343 0.0
O269 O 0.77437 0.83234 0.02702 0.0
O270 O 0.77868 0.95294 0.00834 0.0
O271 O 0.73907 0.91329 0.00999 0.0
C272 C 0.74907 0.94418 0.01272 0.0
C273 C 0.71825 0.83398 0.95872 0.0
C274 C 0.79393 0.85122 0.04234 0.0
C275 C 0.81292 0.87574 0.95655 0.0
O276 O 0.80911 0.84484 0.96137 0.0
O277 O 0.78794 0.89171 0.95865 0.0
O278 O 0.733 0.80702 0.96383 0.0
O279 O 0.73051 0.86175 0.96955 0.0
O280 O 0.3045 0.64023 0.05519 0.0
Cd281 Cd 0.30168 0.60848 0.02034 0.0
Cd282 Cd 0.27835 0.66845 0.99536 0.0
O283 O 0.29037 0.68749 0.03589 0.0
O284 O 0.32816 0.57046 0.03366 0.0
O285 O 0.34148 0.60226 0.99748 0.0
C286 C 0.34862 0.57844 0.01458 0.0
C287 C 0.28909 0.70235 0.95495 0.0
C288 C 0.29892 0.67086 0.05769 0.0
C289 C 0.23119 0.60778 0.00287 0.0
O290 O 0.2367 0.63776 0.99497 0.0
O291 O 0.25432 0.59037 0.01151 0.0
O292 O 0.26647 0.7083 0.97191 0.0
O293 O 0.30575 0.67698 0.96082 0.0
O294 O 0.16911 0.52225 0.76746 0.0
Cd295 Cd 0.20055 0.52651 0.80239 0.0
Cd296 Cd 0.14532 0.55494 0.82409 0.0
O297 O 0.12509 0.541 0.78474 0.0
O298 O 0.2371 0.5015 0.78811 0.0
O299 O 0.21018 0.48508 0.82538 0.0
C300 C 0.23219 0.47957 0.80756 0.0
C301 C 0.11389 0.54481 0.86417 0.0
C302 C 0.13994 0.52927 0.76406 0.0
C303 C 0.20495 0.60038 0.81516 0.0
O304 O 0.17595 0.59714 0.82262 0.0
O305 O 0.21999 0.57483 0.80856 0.0
O306 O 0.10819 0.56848 0.8466 0.0
O307 O 0.138 0.52708 0.85926 0.0
O308 O 0.29568 0.41925 0.55399 0.0
Cd309 Cd 0.28996 0.43855 0.51409 0.0
Cd310 Cd 0.26066 0.37838 0.5049 0.0
O311 O 0.25523 0.38184 0.54819 0.0
O312 O 0.27876 0.48638 0.51625 0.0
O313 O 0.24568 0.44372 0.50146 0.0
C314 C 0.25034 0.47494 0.50765 0.0
C315 C 0.21886 0.35946 0.4732 0.0
C316 C 0.27655 0.39727 0.5643 0.0
C317 C 0.32767 0.39209 0.48532 0.0
O318 O 0.30715 0.37044 0.49424 0.0
O319 O 0.32173 0.42281 0.48538 0.0
O320 O 0.23248 0.33927 0.49055 0.0
O321 O 0.22855 0.39043 0.47437 0.0
O322 O 0.42275 0.50874 0.26592 0.0
Cd323 Cd 0.39203 0.51268 0.29921 0.0
Cd324 Cd 0.44081 0.47791 0.32707 0.0
O325 O 0.46228 0.48352 0.28783 0.0
O326 O 0.3592 0.54231 0.28303 0.0
O327 O 0.38883 0.55516 0.32214 0.0
C328 C 0.36663 0.563 0.30376 0.0
C329 C 0.47171 0.4868 0.37012 0.0
C330 C 0.44981 0.49576 0.26522 0.0
C331 C 0.37495 0.44339 0.31819 0.0
O332 O 0.40404 0.44182 0.32701 0.0
O333 O 0.36492 0.47005 0.30767 0.0
O334 O 0.47472 0.46109 0.35398 0.0
O335 O 0.45101 0.50779 0.36182 0.0
C336 C 0.02331 0.97636 0.98708 0.0
N337 N 0.97111 0.95856 0.05968 0.0
C338 C 0.95505 0.98135 0.04436 0.0
C339 C 0.92791 0.97109 0.02767 0.0
C340 C 0.91509 0.93804 0.02934 0.0
C341 C 0.9286 0.91752 0.05044 0.0
C342 C 0.95703 0.92822 0.06533 0.0
Zn343 Zn 0.01857 0.961 0.05159 0.0
C344 C 0.03493 0.89796 0.02307 0.0
N345 N 0.11363 0.9654 0.02459 0.0
C346 C 0.12153 0.99024 0.00613 0.0
C347 C 0.13649 0.95046 0.04075 0.0
C348 C 0.16815 0.9636 0.04154 0.0
C349 C 0.17596 0.99129 0.02471 0.0
C350 C 0.15289 0.0033 0.00556 0.0
Zn351 Zn 0.06704 0.96083 0.03494 0.0
O352 O 1.00452 0.97367 0.0077 0.0
C353 C 0.04863 0.02676 0.05782 0.0
O354 O 0.05267 0.97162 0.99213 0.0
H355 H 0.12975 0.93056 0.05509 0.0
H356 H 0.96667 0.00542 0.04013 0.0
H357 H 0.10321 0.00265 0.99409 0.0
O358 O 0.02257 0.01093 0.06329 0.0
O359 O 0.07036 0.01171 0.04568 0.0
H360 H 0.9701 0.91051 0.07783 0.0
O361 O 0.08106 0.95034 0.07783 0.0
O362 O 0.03268 0.94931 0.09444 0.0
O363 O 0.06345 0.91077 0.02373 0.0
O364 O 0.01501 0.91044 0.03933 0.0
C365 C 0.06282 0.94748 0.0989 0.0
H366 H 0.92008 0.98817 0.01154 0.0
H367 H 0.9193 0.89223 0.05351 0.0
H368 H 0.18567 0.95399 0.05661 0.0
H369 H 0.1582 0.02507 0.99268 0.0
C370 C 0.36555 0.76406 0.27107 0.0
N371 N 0.27673 0.74195 0.22873 0.0
C372 C 0.28887 0.76329 0.20885 0.0
C373 C 0.2893 0.75367 0.18016 0.0
C374 C 0.27769 0.72156 0.17187 0.0
C375 C 0.26311 0.70083 0.19225 0.0
C376 C 0.26281 0.71164 0.22081 0.0
Zn377 Zn 0.29082 0.75268 0.27053 0.0
C378 C 0.31191 0.69295 0.30141 0.0
N379 N 0.32833 0.77677 0.35446 0.0
C380 C 0.34577 0.80531 0.36216 0.0
C381 C 0.31447 0.75682 0.37445 0.0
C382 C 0.31572 0.76651 0.40317 0.0
C383 C 0.33186 0.7967 0.41145 0.0
C384 C 0.34803 0.81573 0.39088 0.0
Zn385 Zn 0.31382 0.76639 0.31297 0.0
O386 O 0.34005 0.7571 0.25574 0.0
C387 C 0.29342 0.82585 0.28178 0.0
O388 O 0.36275 0.77056 0.29766 0.0
H389 H 0.30041 0.73443 0.36791 0.0
H390 H 0.30085 0.78679 0.21544 0.0
H391 H 0.35622 0.82097 0.34587 0.0
O392 O 0.28508 0.8033 0.26339 0.0
O393 O 0.30682 0.81801 0.30551 0.0
H394 H 0.25359 0.69488 0.23689 0.0
O395 O 0.26513 0.76189 0.32754 0.0
O396 O 0.24114 0.749 0.28614 0.0
O397 O 0.32059 0.71529 0.31994 0.0
O398 O 0.29724 0.70139 0.27844 0.0
C399 C 0.2391 0.75535 0.3129 0.0
H400 H 0.3009 0.77022 0.16506 0.0
H401 H 0.25357 0.67595 0.18642 0.0
H402 H 0.30305 0.75129 0.41858 0.0
H403 H 0.36053 0.83934 0.39668 0.0
C404 C 0.5263 0.05908 0.58945 0.0
N405 N 0.55424 0.97695 0.54412 0.0
C406 C 0.57141 0.97034 0.56856 0.0
C407 C 0.57141 0.93795 0.57879 0.0
C408 C 0.55365 0.91239 0.5636 0.0
C409 C 0.53808 0.91943 0.5374 0.0
C410 C 0.53857 0.95224 0.52802 0.0
Zn411 Zn 0.54487 0.02461 0.53588 0.0
C412 C 0.47199 0.02777 0.52935 0.0
N413 N 0.51846 0.12259 0.52052 0.0
C414 C 0.53616 0.14643 0.53608 0.0
C415 C 0.49728 0.13071 0.49918 0.0
C416 C 0.4944 0.16403 0.49193 0.0
C417 C 0.51379 0.18884 0.50661 0.0
C418 C 0.53435 0.17994 0.52931 0.0
Zn419 Zn 0.52798 0.07449 0.52768 0.0
O420 O 0.53739 0.0323 0.58045 0.0
C421 C 0.60134 0.06964 0.53336 0.0
O422 O 0.52279 0.08275 0.57205 0.0
H423 H 0.48367 0.11127 0.48703 0.0
H424 H 0.58361 0.99047 0.58096 0.0
H425 H 0.55277 0.13934 0.55301 0.0
O426 O 0.59441 0.03959 0.53996 0.0
O427 O 0.57857 0.08904 0.5292 0.0
H428 H 0.52485 0.95824 0.5088 0.0
O429 O 0.53292 0.06614 0.48286 0.0
O430 O 0.55198 0.01742 0.49144 0.0
O431 O 0.47762 0.05891 0.52602 0.0
O432 O 0.49555 0.00918 0.53158 0.0
C433 C 0.5458 0.0403 0.47377 0.0
H434 H 0.58428 0.93306 0.5988 0.0
H435 H 0.52438 0.9001 0.52512 0.0
H436 H 0.47856 0.17022 0.47404 0.0
H437 H 0.54964 0.1986 0.54093 0.0
C438 C 0.31253 0.21848 0.77053 0.0
N439 N 0.27703 0.26091 0.84416 0.0
C440 C 0.26124 0.23091 0.84819 0.0
C441 C 0.25802 0.21874 0.87586 0.0
C442 C 0.27088 0.23793 0.89928 0.0
C443 C 0.28533 0.26958 0.89456 0.0
C444 C 0.28829 0.2806 0.86663 0.0
Zn445 Zn 0.28957 0.2752 0.80471 0.0
C446 C 0.36282 0.29255 0.8056 0.0
N447 N 0.31946 0.30692 0.72409 0.0
C448 C 0.30728 0.28799 0.70148 0.0
C449 C 0.33168 0.33863 0.72058 0.0
C450 C 0.32786 0.35398 0.69415 0.0
C451 C 0.31203 0.33605 0.6713 0.0
C452 C 0.30387 0.30203 0.67457 0.0
Zn453 Zn 0.30777 0.29164 0.76346 0.0
O454 O 0.3012 0.22521 0.79462 0.0
C455 C 0.23479 0.27481 0.76145 0.0
O456 O 0.31665 0.24154 0.75244 0.0
H457 H 0.34168 0.35302 0.73883 0.0
H458 H 0.25261 0.21573 0.82992 0.0
H459 H 0.29747 0.26292 0.70474 0.0
O460 O 0.23992 0.26619 0.78739 0.0
O461 O 0.25869 0.28532 0.7474 0.0
H462 H 0.3012 0.30412 0.86286 0.0
O463 O 0.29882 0.34154 0.77477 0.0
O464 O 0.27826 0.32557 0.8149 0.0
O465 O 0.35665 0.29849 0.7793 0.0
O466 O 0.33949 0.28377 0.82123 0.0
C467 C 0.28527 0.34884 0.79763 0.0
H468 H 0.24687 0.1941 0.87889 0.0
H469 H 0.2961 0.28469 0.91214 0.0
H470 H 0.33496 0.38018 0.69227 0.0
H471 H 0.29284 0.28705 0.65702 0.0
C472 C 0.10796 0.00456 0.54931 0.0
N473 N 0.06212 0.04833 0.47845 0.0
C474 C 0.09273 0.05913 0.47282 0.0
C475 C 0.10282 0.05922 0.44462 0.0
C476 C 0.08088 0.04902 0.42229 0.0
C477 C 0.0489 0.04102 0.42842 0.0
C478 C 0.04006 0.04045 0.45678 0.0
Zn479 Zn 0.05104 0.0303 0.5179 0.0
C480 C 0.03813 0.95373 0.50821 0.0
N481 N 0.02453 0.98408 0.59649 0.0
C482 C 0.0474 0.98871 0.61812 0.0
C483 C 0.99332 0.97661 0.60261 0.0
C484 C 0.98379 0.9772 0.63099 0.0
C485 C 1.00669 0.98472 0.65341 0.0
C486 C 0.03907 0.98837 0.6467 0.0
Zn487 Zn 0.03604 0.00179 0.55625 0.0
O488 O 0.10061 0.02039 0.5268 0.0
C489 C 0.04904 0.07856 0.56511 0.0
O490 O 0.08581 0.99462 0.56552 0.0
H491 H 0.97522 0.97264 0.58554 0.0
H492 H 0.11003 0.06509 0.49023 0.0
H493 H 0.07201 0.99529 0.61366 0.0
O494 O 0.05737 0.07855 0.5391 0.0
O495 O 0.04026 0.05083 0.57616 0.0
H496 H 0.01628 0.03053 0.46132 0.0
O497 O 0.98621 0.00988 0.54577 0.0
O498 O 1.00143 0.04021 0.50974 0.0
O499 O 0.03228 0.95257 0.53489 0.0
O500 O 0.04473 0.9821 0.49739 0.0
C501 C 0.97895 0.02847 0.52487 0.0
H502 H 0.12775 0.06555 0.44043 0.0
H503 H 0.03154 0.03252 0.41166 0.0
H504 H 0.95847 0.97383 0.63509 0.0
H505 H 0.05779 0.99267 0.66328 0.0
C506 C 0.28605 0.80982 0.73352 0.0
N507 N 0.3581 0.76216 0.77885 0.0
C508 C 0.3609 0.74481 0.75403 0.0
C509 C 0.39112 0.7375 0.74507 0.0
C510 C 0.41836 0.74783 0.76208 0.0
C511 C 0.4148 0.76371 0.78843 0.0
C512 C 0.38413 0.77091 0.79641 0.0
Zn513 Zn 0.3158 0.78147 0.78687 0.0
C514 C 0.3269 0.85571 0.79504 0.0
N515 N 0.23027 0.82762 0.80352 0.0
C516 C 0.20387 0.81872 0.78652 0.0
C517 C 0.22889 0.84936 0.82586 0.0
C518 C 0.19968 0.86198 0.83261 0.0
C519 C 0.17183 0.85195 0.81621 0.0
C520 C 0.17418 0.83078 0.79248 0.0
Zn521 Zn 0.27211 0.80694 0.79586 0.0
O522 O 0.3091 0.79277 0.74242 0.0
C523 C 0.26183 0.73205 0.78764 0.0
O524 O 0.26523 0.81754 0.75118 0.0
H525 H 0.25029 0.85616 0.83892 0.0
H526 H 0.33984 0.73817 0.74047 0.0
H527 H 0.20567 0.80145 0.76883 0.0
O528 O 0.29142 0.73425 0.78211 0.0
O529 O 0.24758 0.75867 0.79214 0.0
H530 H 0.38128 0.78507 0.81585 0.0
O531 O 0.27926 0.79619 0.84088 0.0
O532 O 0.32223 0.77032 0.83106 0.0
O533 O 0.29703 0.85472 0.79946 0.0
O534 O 0.3403 0.82853 0.79152 0.0
C535 C 0.30208 0.77836 0.84921 0.0
H536 H 0.39335 0.72501 0.72464 0.0
H537 H 0.43555 0.77199 0.80187 0.0
H538 H 0.19859 0.8784 0.85103 0.0
H539 H 0.15304 0.82234 0.77961 0.0
C540 C 0.56225 0.95233 0.05114 0.0
N541 N 0.57856 0.04437 0.09173 0.0
C542 C 0.55411 0.03317 0.10828 0.0
C543 C 0.55843 0.03241 0.13797 0.0
C544 C 0.58822 0.04298 0.15053 0.0
C545 C 0.61223 0.05688 0.13339 0.0
C546 C 0.60677 0.05754 0.10371 0.0
Zn547 Zn 0.5753 0.02932 0.04988 0.0
C548 C 0.63527 0.0093 0.02752 0.0
N549 N 0.56122 0.98946 0.96606 0.0
C550 C 0.5334 0.9729 0.95664 0.0
C551 C 0.58134 0.00489 0.94745 0.0
C552 C 0.57212 0.00715 0.91857 0.0
C553 C 0.54187 0.99374 0.90908 0.0
C554 C 0.52303 0.97498 0.92796 0.0
Zn555 Zn 0.56668 0.00429 0.00784 0.0
O556 O 0.56555 0.97944 0.06552 0.0
C557 C 0.50744 0.02714 0.02806 0.0
O558 O 0.56253 0.9538 0.02387 0.0
H559 H 0.60299 0.01853 0.95538 0.0
H560 H 0.53221 0.02187 0.09847 0.0
H561 H 0.51774 0.96087 0.97178 0.0
O562 O 0.52669 0.03896 0.04772 0.0
O563 O 0.5172 0.0083 0.00887 0.0
H564 H 0.62597 0.06599 0.09021 0.0
O565 O 0.57051 0.05489 0.99282 0.0
O566 O 0.58474 0.07891 0.03403 0.0
O567 O 0.61606 0.00123 0.00657 0.0
O568 O 0.62458 0.02053 0.05053 0.0
C569 C 0.57832 0.08134 0.00723 0.0
H570 H 0.5397 0.02114 0.15073 0.0
H571 H 0.6356 0.06501 0.1427 0.0
H572 H 0.58713 0.0218 0.90444 0.0
H573 H 0.49963 0.96407 0.92104 0.0
C574 C 0.25629 0.18961 0.28509 0.0
N575 N 0.33471 0.23954 0.25074 0.0
C576 C 0.35312 0.21332 0.25641 0.0
C577 C 0.37266 0.20157 0.23548 0.0
C578 C 0.37157 0.21587 0.20816 0.0
C579 C 0.3559 0.24572 0.20452 0.0
C580 C 0.33776 0.25735 0.22636 0.0
Zn581 Zn 0.29769 0.2489 0.27561 0.0
C582 C 0.2402 0.26665 0.24138 0.0
N583 N 0.22122 0.27108 0.32772 0.0
C584 C 0.21942 0.25355 0.35235 0.0
C585 C 0.20204 0.29672 0.32232 0.0
C586 C 0.1827 0.30807 0.34364 0.0
C587 C 0.18444 0.29378 0.37102 0.0
C588 C 0.2014 0.26469 0.37451 0.0
Zn589 Zn 0.25796 0.26199 0.30233 0.0
O590 O 0.28105 0.19907 0.27187 0.0
C591 C 0.3172 0.24827 0.33602 0.0
O592 O 0.243 0.21049 0.30072 0.0
H593 H 0.20364 0.3101 0.3024 0.0
H594 H 0.3508 0.19987 0.27623 0.0
H595 H 0.23444 0.23281 0.35591 0.0
O596 O 0.32568 0.2393 0.31153 0.0
O597 O 0.28875 0.25687 0.33897 0.0
H598 H 0.32372 0.27882 0.22272 0.0
O599 O 0.27325 0.31302 0.30365 0.0
O600 O 0.31457 0.2986 0.27969 0.0
O601 O 0.22884 0.26898 0.26604 0.0
O602 O 0.26905 0.25909 0.23909 0.0
C603 C 0.3002 0.32059 0.29306 0.0
H604 H 0.3858 0.17956 0.23972 0.0
H605 H 0.35455 0.25806 0.18403 0.0
H606 H 0.1694 0.33005 0.33971 0.0
H607 H 0.20418 0.25278 0.39506 0.0
C608 C 0.60644 0.50239 0.0488 0.0
N609 N 0.56091 0.54356 0.97583 0.0
C610 C 0.59157 0.5543 0.9703 0.0
C611 C 0.60216 0.5536 0.9422 0.0
C612 C 0.58088 0.54213 0.91969 0.0
C613 C 0.54883 0.53392 0.92569 0.0
C614 C 0.53939 0.5345 0.954 0.0
Zn615 Zn 0.54903 0.52741 0.01612 0.0
C616 C 0.53689 0.45112 0.00937 0.0
N617 N 0.52301 0.4845 0.09625 0.0
C618 C 0.54327 0.49452 0.11874 0.0
C619 C 0.49329 0.47027 0.10083 0.0
C620 C 0.48229 0.46771 0.12874 0.0
C621 C 0.50224 0.47943 0.15209 0.0
C622 C 0.53344 0.49192 0.14689 0.0
Zn623 Zn 0.53516 0.50144 0.0562 0.0
O624 O 0.59834 0.51711 0.02585 0.0
C625 C 0.54792 0.57802 0.06255 0.0
O626 O 0.58492 0.49408 0.06628 0.0
H627 H 0.47731 0.46282 0.08282 0.0
H628 H 0.60851 0.56113 0.98778 0.0
H629 H 0.56633 0.50685 0.11491 0.0
O630 O 0.55539 0.57656 0.03629 0.0
O631 O 0.5395 0.55097 0.07489 0.0
H632 H 0.5155 0.52485 0.95854 0.0
O633 O 0.48522 0.50956 0.04532 0.0
O634 O 0.49955 0.53723 0.0074 0.0
O635 O 0.53154 0.45162 0.03615 0.0
O636 O 0.54262 0.47871 0.99698 0.0
C637 C 0.47748 0.5268 0.02361 0.0
H638 H 0.62702 0.56061 0.93827 0.0
H639 H 0.53176 0.52483 0.90892 0.0
H640 H 0.45799 0.45797 0.13195 0.0
H641 H 0.5493 0.5018 0.16426 0.0
C642 C 0.79041 0.29555 0.22392 0.0
N643 N 0.86304 0.2484 0.26672 0.0
C644 C 0.86291 0.22888 0.24275 0.0
C645 C 0.89144 0.2237 0.22945 0.0
C646 C 0.92024 0.23852 0.24113 0.0
C647 C 0.92023 0.25621 0.26714 0.0
C648 C 0.89098 0.26104 0.27967 0.0
Zn649 Zn 0.82026 0.26627 0.27638 0.0
C650 C 0.82895 0.34172 0.28526 0.0
N651 N 0.73254 0.30835 0.29175 0.0
C652 C 0.71022 0.29821 0.27091 0.0
C653 C 0.72423 0.32505 0.31554 0.0
C654 C 0.69194 0.33054 0.31961 0.0
C655 C 0.66852 0.31871 0.29892 0.0
C656 C 0.67807 0.30369 0.27384 0.0
Zn657 Zn 0.77681 0.29191 0.28626 0.0
O658 O 0.81289 0.27713 0.23152 0.0
C659 C 0.76796 0.2163 0.27772 0.0
O660 O 0.77091 0.30348 0.24247 0.0
H661 H 0.74235 0.33259 0.3319 0.0
H662 H 0.84041 0.21943 0.23264 0.0
H663 H 0.71693 0.28414 0.2525 0.0
O664 O 0.79756 0.21785 0.27236 0.0
O665 O 0.75427 0.24326 0.28165 0.0
H666 H 0.89039 0.27679 0.29854 0.0
O667 O 0.7835 0.28097 0.33066 0.0
O668 O 0.82737 0.25599 0.32126 0.0
O669 O 0.79937 0.34028 0.29101 0.0
O670 O 0.84253 0.31479 0.28056 0.0
C671 C 0.80678 0.26388 0.33924 0.0
H672 H 0.89084 0.20974 0.20945 0.0
H673 H 0.94224 0.26792 0.27658 0.0
H674 H 0.68519 0.34214 0.33934 0.0
H675 H 0.66064 0.29465 0.25734 0.0
C676 C 0.05613 0.45107 0.54949 0.0
N677 N 0.07084 0.54288 0.59077 0.0
C678 C 0.05053 0.52863 0.60985 0.0
C679 C 0.0588 0.52935 0.63902 0.0
C680 C 0.08836 0.54449 0.64843 0.0
C681 C 0.10767 0.56143 0.62874 0.0
C682 C 0.09829 0.56044 0.59972 0.0
Zn683 Zn 0.06394 0.528 0.54916 0.0
C684 C 0.12362 0.51437 0.52162 0.0
N685 N 0.04628 0.48998 0.46486 0.0
C686 C 0.01878 0.47276 0.45549 0.0
C687 C 0.06647 0.5051 0.44615 0.0
C688 C 0.05832 0.50521 0.41702 0.0
C689 C 0.02896 0.49 0.40712 0.0
C690 C 0.00943 0.47271 0.42642 0.0
Zn691 Zn 0.05333 0.50432 0.50662 0.0
O692 O 0.06121 0.4777 0.56428 0.0
C693 C 0.99393 0.5193 0.53309 0.0
O694 O 0.0521 0.4533 0.52233 0.0
H695 H 0.08765 0.51965 0.45391 0.0
H696 H 0.02913 0.51423 0.60238 0.0
H697 H 1.00292 0.4612 0.47072 0.0
O698 O 0.01417 0.53023 0.55241 0.0
O699 O 1.00352 0.50617 0.51048 0.0
H700 H 0.11408 0.57154 0.58422 0.0
O701 O 0.05448 0.55522 0.49191 0.0
O702 O 0.0665 0.57839 0.53387 0.0
O703 O 0.10301 0.50322 0.50273 0.0
O704 O 0.11407 0.52597 0.54494 0.0
C705 C 0.06044 0.58146 0.5071 0.0
H706 H 0.0435 0.51593 0.65373 0.0
H707 H 0.1306 0.57358 0.63555 0.0
H708 H 0.07365 0.51925 0.40273 0.0
H709 H 0.98655 0.46073 0.4193 0.0
C710 C 0.81644 0.70901 0.26684 0.0
N711 N 0.7823 0.75332 0.33949 0.0
C712 C 0.77359 0.72151 0.34698 0.0
C713 C 0.77897 0.71121 0.3752 0.0
C714 C 0.79301 0.73411 0.39554 0.0
C715 C 0.79902 0.7673 0.38772 0.0
C716 C 0.79371 0.77636 0.35947 0.0
Zn717 Zn 0.79189 0.76543 0.29852 0.0
C718 C 0.86532 0.78478 0.29924 0.0
N719 N 0.82159 0.79486 0.21671 0.0
C720 C 0.81391 0.7713 0.19606 0.0
C721 C 0.83145 0.8265 0.20978 0.0
C722 C 0.8315 0.83601 0.18109 0.0
C723 C 0.82239 0.81235 0.15949 0.0
C724 C 0.81495 0.77934 0.1673 0.0
Zn725 Zn 0.81065 0.7828 0.25747 0.0
O726 O 0.80315 0.71532 0.29006 0.0
C727 C 0.73717 0.76328 0.25648 0.0
O728 O 0.82147 0.73235 0.24922 0.0
H729 H 0.83738 0.84494 0.22644 0.0
H730 H 0.76488 0.70349 0.33074 0.0
H731 H 0.80503 0.74658 0.20163 0.0
O732 O 0.74239 0.75587 0.28273 0.0
O733 O 0.76104 0.77355 0.24211 0.0
H734 H 0.80182 0.80109 0.3532 0.0
O735 O 0.79989 0.8331 0.26647 0.0
O736 O 0.78051 0.81579 0.30673 0.0
O737 O 0.86002 0.79219 0.27307 0.0
O738 O 0.84151 0.77478 0.3137 0.0
C739 C 0.78618 0.83943 0.28954 0.0
H740 H 0.77371 0.68543 0.38075 0.0
H741 H 0.81015 0.78555 0.4028 0.0
H742 H 0.83672 0.86195 0.17614 0.0
H743 H 0.80816 0.76021 0.15134 0.0
C744 C 0.86363 0.26975 0.7657 0.0
N745 N 0.77515 0.25117 0.72187 0.0
C746 C 0.78815 0.27246 0.70237 0.0
C747 C 0.78954 0.26276 0.67374 0.0
C748 C 0.7779 0.23071 0.66525 0.0
C749 C 0.76202 0.21034 0.68511 0.0
C750 C 0.76079 0.22121 0.71355 0.0
Zn751 Zn 0.78923 0.26001 0.76385 0.0
C752 C 0.80919 0.1983 0.79239 0.0
N753 N 0.82597 0.27813 0.84851 0.0
C754 C 0.84386 0.30601 0.85716 0.0
C755 C 0.81193 0.25724 0.8677 0.0
C756 C 0.81346 0.26535 0.8967 0.0
C757 C 0.82981 0.29504 0.90596 0.0
C758 C 0.84623 0.31498 0.88617 0.0
Zn759 Zn 0.81141 0.27024 0.80707 0.0
O760 O 0.83858 0.26425 0.74949 0.0
C761 C 0.79235 0.33194 0.77856 0.0
O762 O 0.86025 0.27453 0.79242 0.0
H763 H 0.79745 0.23544 0.86037 0.0
H764 H 0.80021 0.29579 0.70937 0.0
H765 H 0.85446 0.32237 0.84144 0.0
O766 O 0.78431 0.31115 0.7586 0.0
O767 O 0.80522 0.32196 0.80181 0.0
H768 H 0.75076 0.20456 0.72934 0.0
O769 O 0.76275 0.26554 0.82144 0.0
O770 O 0.73947 0.25625 0.77912 0.0
O771 O 0.81753 0.21925 0.81211 0.0
O772 O 0.795 0.20831 0.76977 0.0
C773 C 0.73698 0.26073 0.8061 0.0
H774 H 0.80202 0.27903 0.65897 0.0
H775 H 0.75244 0.18553 0.67909 0.0
H776 H 0.80058 0.24953 0.91155 0.0
H777 H 0.85882 0.33827 0.89279 0.0
C778 C 0.77132 0.70238 0.77639 0.0
N779 N 0.84778 0.75137 0.73715 0.0
C780 C 0.84428 0.72724 0.71658 0.0
C781 C 0.86973 0.72092 0.6995 0.0
C782 C 0.89892 0.73989 0.70337 0.0
C783 C 0.9023 0.76424 0.72501 0.0
C784 C 0.87626 0.76931 0.74211 0.0
Zn785 Zn 0.80916 0.76083 0.76012 0.0
C786 C 0.75065 0.76977 0.72456 0.0
N787 N 0.73206 0.78617 0.81035 0.0
C788 C 0.72973 0.76762 0.83436 0.0
C789 C 0.71185 0.81095 0.80473 0.0
C790 C 0.68996 0.81971 0.82507 0.0
C791 C 0.6895 0.80309 0.85145 0.0
C792 C 0.70855 0.77553 0.85513 0.0
Zn793 Zn 0.76951 0.77676 0.78576 0.0
O794 O 0.79588 0.70991 0.76219 0.0
C795 C 0.8296 0.77018 0.82024 0.0
O796 O 0.75747 0.72535 0.78894 0.0
H797 H 0.7139 0.82507 0.78522 0.0
H798 H 0.82146 0.71346 0.71289 0.0
H799 H 0.74591 0.74796 0.83839 0.0
O800 O 0.83782 0.75798 0.79676 0.0
O801 O 0.80075 0.77786 0.82271 0.0
H802 H 0.87859 0.78814 0.75888 0.0
O803 O 0.78149 0.82741 0.78283 0.0
O804 O 0.82253 0.8125 0.75902 0.0
O805 O 0.74 0.77714 0.74876 0.0
O806 O 0.77982 0.76303 0.72254 0.0
C807 C 0.80782 0.83512 0.77134 0.0
H808 H 0.86612 0.70248 0.6824 0.0
H809 H 0.92436 0.77959 0.72812 0.0
H810 H 0.67522 0.8406 0.82099 0.0
H811 H 0.70959 0.76199 0.87505 0.0
C812 C 0.54989 0.51912 0.47616 0.0
N813 N 0.50907 0.45386 0.53403 0.0
C814 C 0.48235 0.46889 0.52448 0.0
C815 C 0.45564 0.45007 0.51385 0.0
C816 C 0.45626 0.41532 0.51264 0.0
C817 C 0.48324 0.39999 0.52406 0.0
C818 C 0.50978 0.41999 0.53469 0.0
Zn819 Zn 0.54929 0.48501 0.5363 0.0
C820 C 0.59668 0.45498 0.50148 0.0
N821 N 0.62897 0.5516 0.52668 0.0
C822 C 0.62594 0.58508 0.52485 0.0
C823 C 0.65698 0.53887 0.53592 0.0
C824 C 0.68247 0.56004 0.54614 0.0
C825 C 0.67892 0.59455 0.54708 0.0
C826 C 0.65087 0.60721 0.53505 0.0
Zn827 Zn 0.58918 0.52038 0.52582 0.0
O828 O 0.53651 0.49853 0.49305 0.0
C829 C 0.53748 0.55181 0.55609 0.0
O830 O 0.57388 0.53755 0.48525 0.0
H831 H 0.65876 0.5122 0.5373 0.0
H832 H 0.48237 0.49567 0.52302 0.0
H833 H 0.6034 0.59462 0.51741 0.0
O834 O 0.52359 0.52304 0.55444 0.0
O835 O 0.56504 0.55695 0.54616 0.0
H836 H 0.53147 0.40851 0.54182 0.0
O837 O 0.60496 0.50293 0.56706 0.0
O838 O 0.56284 0.47134 0.57834 0.0
O839 O 0.61177 0.48326 0.50376 0.0
O840 O 0.5752 0.44754 0.51911 0.0
C841 C 0.59057 0.4845 0.58508 0.0
H842 H 0.4349 0.46272 0.50582 0.0
H843 H 0.48424 0.37312 0.52371 0.0
H844 H 0.70432 0.54943 0.5542 0.0
H845 H 0.6476 0.63376 0.53493 0.0
C846 C 0.02465 0.55306 0.08418 0.0
N847 N 0.05416 0.47112 0.03859 0.0
C848 C 0.07141 0.46329 0.06265 0.0
C849 C 0.07554 0.43004 0.0691 0.0
C850 C 0.06194 0.40513 0.05041 0.0
C851 C 0.04515 0.41385 0.02537 0.0
C852 C 0.0413 0.44729 0.01994 0.0
Zn853 Zn 0.04298 0.51808 0.03117 0.0
C854 C 0.97041 0.51846 0.02517 0.0
N855 N 0.01217 0.61311 0.013 0.0
C856 C 0.03006 0.64036 0.02308 0.0
C857 C 0.98716 0.61574 0.99375 0.0
C858 C 0.9802 0.64657 0.98281 0.0
C859 C 0.99979 0.67476 0.99109 0.0
C860 C 0.02446 0.6717 0.01208 0.0
Zn861 Zn 0.02526 0.56703 0.0223 0.0
O862 O 0.03529 0.52591 0.07542 0.0
C863 C 0.09851 0.5651 0.02779 0.0
O864 O 0.02117 0.57662 0.06658 0.0
H865 H 0.97362 0.59371 0.98563 0.0
H866 H 0.08127 0.48279 0.07711 0.0
H867 H 0.04982 0.63756 0.03841 0.0
O868 O 0.09207 0.53526 0.03537 0.0
O869 O 0.07535 0.58376 0.02255 0.0
H870 H 0.02721 0.45413 0.0012 0.0
O871 O 0.02914 0.55776 0.97733 0.0
O872 O 0.05073 0.51086 0.9872 0.0
O873 O 0.97572 0.54959 0.02241 0.0
O874 O 0.99412 0.50008 0.02688 0.0
C875 C 0.04334 0.53251 0.96891 0.0
H876 H 0.08901 0.42379 0.08844 0.0
H877 H 0.03445 0.395 0.01063 0.0
H878 H 0.96082 0.64807 0.96679 0.0
H879 H 0.04048 0.69278 0.01861 0.0
C880 C 0.09159 0.111 0.06986 0.0
C881 C 0.0712 0.12718 0.08793 0.0
C882 C 0.08362 0.07877 0.05969 0.0
C883 C 0.05483 0.06167 0.06703 0.0
H884 H 0.11425 0.12301 0.06399 0.0
H885 H 0.10047 0.06707 0.04629 0.0
S886 S 0.99195 0.09441 0.11191 0.0
N887 N 0.02021 0.12481 0.11154 0.0
N888 N 1.00501 0.06402 0.09227 0.0
C889 C 0.03369 0.078 0.08439 0.0
C890 C 0.04197 0.11081 0.09493 0.0
C891 C 0.1493 0.76772 0.32615 0.0
C892 C 0.14769 0.76675 0.35639 0.0
C893 C 0.1783 0.76284 0.31205 0.0
C894 C 0.20732 0.75715 0.32745 0.0
H895 H 0.12794 0.77232 0.31318 0.0
H896 H 0.1781 0.76438 0.2889 0.0
S897 S 0.21666 0.75175 0.40688 0.0
N898 N 0.17846 0.75903 0.401 0.0
N899 N 0.23198 0.75022 0.37493 0.0
C900 C 0.20589 0.75582 0.35762 0.0
C901 C 0.17651 0.7605 0.3719 0.0
C902 C 0.55975 0.81962 0.57103 0.0
C903 C 0.55082 0.81397 0.59943 0.0
C904 C 0.55963 0.85142 0.55924 0.0
C905 C 0.55078 0.87865 0.5755 0.0
H906 H 0.56794 0.79957 0.55802 0.0
H907 H 0.56768 0.85495 0.53764 0.0
S908 S 0.52125 0.87672 0.64931 0.0
N909 N 0.52984 0.8379 0.6425 0.0
N910 N 0.52967 0.89781 0.62012 0.0
C911 C 0.5401 0.87318 0.60329 0.0
C912 C 0.54002 0.84075 0.6153 0.0
C913 C 0.43727 0.27542 0.85319 0.0
C914 C 0.46268 0.29314 0.83994 0.0
C915 C 0.40518 0.27596 0.84237 0.0
C916 C 0.39696 0.2938 0.81749 0.0
H917 H 0.44207 0.26134 0.8724 0.0
H918 H 0.38671 0.26184 0.85346 0.0
S919 S 0.45432 0.34412 0.77434 0.0
N920 N 0.47707 0.32917 0.80039 0.0
N921 N 0.41733 0.32961 0.77989 0.0
C922 C 0.42218 0.31139 0.80389 0.0
C923 C 0.45477 0.31123 0.81513 0.0
C924 C 0.04882 0.86301 0.48401 0.0
C925 C 0.04946 0.86499 0.45378 0.0
C926 C 0.04394 0.89121 0.50147 0.0
C927 C 0.03975 0.92291 0.4896 0.0
H928 H 0.05223 0.83943 0.49441 0.0
H929 H 0.04428 0.88826 0.52451 0.0
S930 S 0.03871 0.94199 0.41168 0.0
N931 N 0.04479 0.90182 0.41296 0.0
N932 N 0.03584 0.9541 0.44528 0.0
C933 C 0.0399 0.9251 0.45938 0.0
C934 C 0.04467 0.89646 0.44167 0.0
C935 C 0.49995 0.71513 0.75138 0.0
C936 C 0.50917 0.731 0.72597 0.0
C937 C 0.47099 0.72172 0.76383 0.0
C938 C 0.45039 0.74417 0.75112 0.0
H939 H 0.51447 0.69645 0.76112 0.0
H940 H 0.46401 0.70815 0.78274 0.0
S941 S 0.46498 0.7958 0.68722 0.0
N942 N 0.49666 0.77309 0.69052 0.0
N943 N 0.44204 0.78486 0.71392 0.0
C944 C 0.46004 0.76171 0.72687 0.0
C945 C 0.48958 0.75533 0.7143 0.0
C946 C 0.5956 0.17382 0.99113 0.0
C947 C 0.5778 0.17843 0.96524 0.0
C948 C 0.59547 0.14264 0.00476 0.0
C949 C 0.57809 0.11447 0.99279 0.0
H950 H 0.60975 0.19455 0.00109 0.0
H951 H 0.6095 0.14052 0.02463 0.0
S952 S 0.52691 0.11301 0.92562 0.0
N953 N 0.54163 0.15194 0.92861 0.0
N954 N 0.54189 0.09357 0.95365 0.0
C955 C 0.5601 0.11875 0.96694 0.0
C956 C 0.55979 0.15059 0.95336 0.0
C957 C 0.20292 0.24403 0.16871 0.0
C958 C 0.17166 0.25454 0.17125 0.0
C959 C 0.22618 0.25051 0.19074 0.0
C960 C 0.21872 0.2677 0.2158 0.0
H961 H 0.20882 0.22881 0.15059 0.0
H962 H 0.24934 0.23994 0.18895 0.0
S963 S 0.14261 0.30739 0.22924 0.0
N964 N 0.13606 0.28795 0.19806 0.0
N965 N 0.17988 0.30023 0.23951 0.0
C966 C 0.18858 0.28131 0.21712 0.0
C967 C 0.16495 0.27465 0.19479 0.0
C968 C 0.1278 0.95094 0.15792 0.0
C969 C 0.11192 0.96202 0.18194 0.0
C970 C 0.11115 0.94384 0.13175 0.0
C971 C 0.07784 0.94748 0.12833 0.0
H972 H 0.1536 0.94897 0.15889 0.0
H973 H 0.12493 0.93692 0.11366 0.0
S974 S 0.02401 0.97124 0.18553 0.0
N975 N 0.06014 0.97279 0.20141 0.0
N976 N 0.02897 0.9596 0.15208 0.0
C977 C 0.0612 0.95617 0.15266 0.0
C978 C 0.0782 0.96345 0.17945 0.0
C979 C 0.29519 0.82991 0.47803 0.0
C980 C 0.32218 0.83758 0.4964 0.0
C981 C 0.29855 0.81586 0.4508 0.0
C982 C 0.32904 0.8097 0.44083 0.0
H983 H 0.27136 0.83502 0.48463 0.0
H984 H 0.27722 0.81056 0.43714 0.0
S985 S 0.40719 0.82492 0.4804 0.0
N986 N 0.38045 0.8373 0.50273 0.0
N987 N 0.38648 0.81156 0.45124 0.0
C988 C 0.35613 0.81693 0.45894 0.0
C989 C 0.35276 0.83065 0.48685 0.0
C990 C 0.50439 0.03407 0.66469 0.0
C991 C 0.47685 0.05184 0.66939 0.0
C992 C 0.52121 0.03772 0.63938 0.0
C993 C 0.5117 0.05989 0.61796 0.0
H994 H 0.5125 0.0163 0.6803 0.0
H995 H 0.5414 0.02245 0.6363 0.0
S996 S 0.44248 0.11402 0.62054 0.0
N997 N 0.44164 0.09345 0.65096 0.0
N998 N 0.47351 0.10094 0.60368 0.0
C999 C 0.48492 0.07882 0.62287 0.0
C1000 C 0.46742 0.07459 0.64844 0.0
C1001 C 0.29579 0.18109 0.95877 0.0
C1002 C 0.28674 0.19782 0.98351 0.0
C1003 C 0.28917 0.19358 0.93151 0.0
C1004 C 0.27353 0.22337 0.92802 0.0
H1005 H 0.30816 0.15816 0.96041 0.0
H1006 H 0.29729 0.18037 0.91305 0.0
S1007 S 0.24391 0.27623 0.98557 0.0
N1008 N 0.26044 0.24532 0.00268 0.0
N1009 N 0.2483 0.26891 0.95113 0.0
C1010 C 0.26387 0.24014 0.95242 0.0
C1011 C 0.27036 0.22729 0.98026 0.0
C1012 C 0.12101 0.00822 0.36105 0.0
C1013 C 0.10732 0.02339 0.33678 0.0
C1014 C 0.11326 0.01762 0.3888 0.0
C1015 C 0.09158 0.04249 0.3932 0.0
H1016 H 0.13785 0.98894 0.35866 0.0
H1017 H 0.12371 0.00482 0.40692 0.0
S1018 S 0.05019 0.09116 0.3375 0.0
N1019 N 0.0717 0.06559 0.31939 0.0
N1020 N 0.05717 0.08273 0.37164 0.0
C1021 C 0.07793 0.05807 0.36935 0.0
C1022 C 0.08579 0.04865 0.34111 0.0
C1023 C 0.27283 0.87169 0.6733 0.0
C1024 C 0.29371 0.86187 0.65222 0.0
C1025 C 0.26917 0.85364 0.69876 0.0
C1026 C 0.28653 0.82516 0.7045 0.0
H1027 H 0.25925 0.89365 0.6702 0.0
H1028 H 0.25339 0.86286 0.7145 0.0
S1029 S 0.34392 0.78833 0.65619 0.0
N1030 N 0.33146 0.821 0.63869 0.0
N1031 N 0.32485 0.78756 0.68647 0.0
C1032 C 0.30705 0.81469 0.68339 0.0
C1033 C 0.31056 0.83287 0.65735 0.0
C1034 C 0.5303 0.0026 0.82884 0.0
C1035 C 0.5024 0.02073 0.82621 0.0
C1036 C 0.54326 0.99419 0.85575 0.0
C1037 C 0.52841 0.0031 0.88087 0.0
H1038 H 0.54184 0.99416 0.80993 0.0
H1039 H 0.56454 0.97993 0.85693 0.0
S1040 S 0.45669 0.05278 0.88617 0.0
N1041 N 0.46165 0.04911 0.85139 0.0
N1042 N 0.48597 0.03286 0.90196 0.0
C1043 C 0.50126 0.02216 0.87872 0.0
C1044 C 0.48829 0.03116 0.85138 0.0
C1045 C 0.38264 0.20001 0.13029 0.0
C1046 C 0.36734 0.16822 0.12663 0.0
C1047 C 0.38901 0.21361 0.15774 0.0
C1048 C 0.37873 0.19645 0.1822 0.0
H1049 H 0.38791 0.21519 0.11183 0.0
H1050 H 0.399 0.23904 0.15961 0.0
S1051 S 0.34252 0.10969 0.18327 0.0
N1052 N 0.34716 0.11754 0.14903 0.0
N1053 N 0.35673 0.14363 0.20069 0.0
C1054 C 0.36667 0.16303 0.1787 0.0
C1055 C 0.36129 0.14886 0.15076 0.0
C1056 C 0.23154 0.05557 0.06225 0.0
C1057 C 0.25224 0.0652 0.04052 0.0
C1058 C 0.20837 0.02937 0.05765 0.0
C1059 C 0.20509 0.01243 0.03111 0.0
H1060 H 0.2332 0.06838 0.08283 0.0
H1061 H 0.19189 0.02338 0.07445 0.0
S1062 S 0.25334 0.02803 0.96743 0.0
N1063 N 0.26834 0.05546 0.99165 0.0
N1064 N 0.22421 0.00654 0.9831 0.0
C1065 C 0.22593 0.0214 0.00944 0.0
C1066 C 0.24968 0.04776 0.01413 0.0
C1067 C 0.68437 0.48256 0.08892 0.0
C1068 C 0.7038 0.47198 0.06698 0.0
C1069 C 0.65303 0.4925 0.08286 0.0
C1070 C 0.6402 0.4933 0.05454 0.0
H1071 H 0.69314 0.48239 0.11107 0.0
H1072 H 0.63876 0.49971 0.10053 0.0
S1073 S 0.68147 0.46915 0.98919 0.0
N1074 N 0.70789 0.4632 0.01571 0.0
N1075 N 0.64961 0.48306 0.00426 0.0
C1076 C 0.65963 0.48355 0.03233 0.0
C1077 C 0.69122 0.47256 0.03857 0.0
C1078 C 0.84373 0.43142 0.26138 0.0
C1079 C 0.87662 0.43315 0.25549 0.0
C1080 C 0.82877 0.40242 0.27262 0.0
C1081 C 0.84608 0.37395 0.27841 0.0
H1082 H 0.82939 0.45266 0.25742 0.0
H1083 H 0.80323 0.40203 0.27598 0.0
S1084 S 0.93294 0.36555 0.2673 0.0
N1085 N 0.92605 0.40355 0.25657 0.0
N1086 N 0.8982 0.34974 0.278 0.0
C1087 C 0.8791 0.37558 0.27307 0.0
C1088 C 0.89424 0.4049 0.26149 0.0
C1089 C 0.91995 0.54285 0.56817 0.0
C1090 C 0.9068 0.56426 0.54769 0.0
C1091 C 0.94668 0.52505 0.56222 0.0
C1092 C 0.96043 0.52735 0.53539 0.0
H1093 H 0.91164 0.54219 0.58985 0.0
H1094 H 0.95819 0.51155 0.5794 0.0
S1095 S 0.93054 0.5734 0.47232 0.0
N1096 N 0.9061 0.58213 0.49797 0.0
N1097 N 0.95615 0.5478 0.48665 0.0
C1098 C 0.94502 0.54497 0.51353 0.0
C1099 C 0.91811 0.56369 0.51972 0.0
C1100 C 0.24113 0.10225 0.25398 0.0
C1101 C 0.21033 0.09286 0.26317 0.0
C1102 C 0.2562 0.13321 0.26188 0.0
C1103 C 0.24123 0.15576 0.27962 0.0
H1104 H 0.25353 0.08576 0.24028 0.0
H1105 H 0.27963 0.13962 0.25368 0.0
S1106 S 0.16159 0.14162 0.31156 0.0
N1107 N 0.16607 0.10765 0.29235 0.0
N1108 N 0.19443 0.16559 0.30734 0.0
C1109 C 0.21079 0.14617 0.28967 0.0
C1110 C 0.19532 0.11484 0.28137 0.0
C1111 C 0.40619 0.9613 0.54084 0.0
C1112 C 0.3822 0.97825 0.55449 0.0
C1113 C 0.43393 0.97803 0.53125 0.0
C1114 C 0.43934 0.0127 0.53463 0.0
H1115 H 0.40397 0.9345 0.53782 0.0
H1116 H 0.45183 0.96333 0.52176 0.0
S1117 S 0.38365 0.06967 0.56726 0.0
N1118 N 0.36517 0.03239 0.56954 0.0
N1119 N 0.41773 0.06393 0.55157 0.0
C1120 C 0.41519 0.03042 0.54722 0.0
C1121 C 0.38665 0.01321 0.55716 0.0
C1122 C 0.84105 0.63302 0.22619 0.0
C1123 C 0.85635 0.61442 0.24761 0.0
C1124 C 0.82769 0.66331 0.23269 0.0
C1125 C 0.82821 0.67566 0.26098 0.0
H1126 H 0.84022 0.62461 0.20404 0.0
H1127 H 0.817 0.67726 0.21538 0.0
S1128 S 0.8642 0.63605 0.32515 0.0
N1129 N 0.87079 0.61041 0.29841 0.0
N1130 N 0.84468 0.66678 0.31073 0.0
C1131 C 0.84257 0.6569 0.28276 0.0
C1132 C 0.85693 0.62645 0.27605 0.0
C1133 C 0.76894 0.41142 0.74364 0.0
C1134 C 0.75221 0.42688 0.76519 0.0
C1135 C 0.78353 0.38145 0.74867 0.0
C1136 C 0.78268 0.36636 0.77563 0.0
H1137 H 0.76948 0.42165 0.72227 0.0
H1138 H 0.79467 0.36942 0.73106 0.0
S1139 S 0.74459 0.39822 0.84001 0.0
N1140 N 0.73728 0.42593 0.81501 0.0
N1141 N 0.76557 0.36984 0.82467 0.0
C1142 C 0.7677 0.38247 0.79787 0.0
C1143 C 0.75217 0.41268 0.79258 0.0
C1144 C 0.97146 0.88625 0.96488 0.0
C1145 C 0.98862 0.89592 0.94087 0.0
C1146 C 0.98732 0.88156 0.99136 0.0
C1147 C 0.02102 0.8865 0.99474 0.0
H1148 H 0.9455 0.88309 0.96328 0.0
H1149 H 0.97286 0.87669 0.00977 0.0
S1150 S 0.07727 0.90163 0.936 0.0
N1151 N 0.0412 0.90329 0.92042 0.0
N1152 N 0.07122 0.89374 0.97001 0.0
C1153 C 0.03858 0.89184 0.96989 0.0
C1154 C 0.02236 0.89729 0.94308 0.0
C1155 C 0.93842 0.28403 0.72099 0.0
C1156 C 0.95675 0.25633 0.72756 0.0
C1157 C 0.90867 0.28866 0.73363 0.0
C1158 C 0.89615 0.26619 0.75387 0.0
H1159 H 0.94692 0.30221 0.70568 0.0
H1160 H 0.89533 0.30999 0.72747 0.0
S1161 S 0.93266 0.18853 0.77743 0.0
N1162 N 0.95851 0.20519 0.75503 0.0
N1163 N 0.90344 0.21446 0.77885 0.0
C1164 C 0.91397 0.23845 0.76061 0.0
C1165 C 0.94398 0.23342 0.74752 0.0
C1166 C 0.48692 0.271 0.4789 0.0
C1167 C 0.51388 0.28299 0.46411 0.0
C1168 C 0.48749 0.24122 0.49419 0.0
C1169 C 0.51527 0.22311 0.49576 0.0
H1170 H 0.46439 0.28305 0.47666 0.0
H1171 H 0.46566 0.23143 0.50361 0.0
S1172 S 0.59349 0.24637 0.46457 0.0
N1173 N 0.57007 0.27636 0.45469 0.0
N1174 N 0.57123 0.22068 0.48396 0.0
C1175 C 0.54318 0.23633 0.48331 0.0
C1176 C 0.54249 0.26632 0.4674 0.0
C1177 C 0.66871 0.77489 0.20069 0.0
C1178 C 0.64051 0.76364 0.21421 0.0
C1179 C 0.69935 0.77415 0.2144 0.0
C1180 C 0.70378 0.76226 0.24256 0.0
H1181 H 0.6673 0.7842 0.17902 0.0
H1182 H 0.71984 0.78324 0.20263 0.0
S1183 S 0.63821 0.73012 0.28814 0.0
N1184 N 0.61936 0.74019 0.25792 0.0
N1185 N 0.67677 0.73913 0.28366 0.0
C1186 C 0.67586 0.75107 0.25655 0.0
C1187 C 0.64445 0.75168 0.24246 0.0
C1188 C 0.06187 0.17052 0.58872 0.0
C1189 C 0.04655 0.17194 0.61514 0.0
C1190 C 0.06257 0.14056 0.57272 0.0
C1191 C 0.04816 0.11037 0.58237 0.0
H1192 H 0.07381 0.19275 0.58032 0.0
H1193 H 0.07482 0.14107 0.5527 0.0
S1194 S 1.00303 0.10039 0.64918 0.0
N1195 N 0.0153 0.14014 0.64942 0.0
N1196 N 0.01672 0.08431 0.61974 0.0
C1197 C 0.03232 0.11149 0.60854 0.0
C1198 C 0.03148 0.14201 0.62475 0.0
C1199 C 0.58922 0.34672 0.32334 0.0
C1200 C 0.57057 0.31643 0.32425 0.0
C1201 C 0.62065 0.3476 0.31405 0.0
C1202 C 0.63416 0.31838 0.30491 0.0
H1203 H 0.58036 0.36957 0.33164 0.0
H1204 H 0.63485 0.37104 0.31495 0.0
S1205 S 0.59392 0.23366 0.29951 0.0
N1206 N 0.56667 0.25726 0.31242 0.0
N1207 N 0.62586 0.25887 0.29494 0.0
C1208 C 0.615 0.28841 0.3037 0.0
C1209 C 0.58309 0.28747 0.31332 0.0
C1210 C 0.57181 0.86051 0.06974 0.0
C1211 C 0.56158 0.85822 0.09814 0.0
C1212 C 0.57068 0.89046 0.05422 0.0
C1213 C 0.56002 0.91975 0.06665 0.0
H1214 H 0.58087 0.83893 0.05937 0.0
H1215 H 0.57924 0.89092 0.03263 0.0
S1216 S 0.53059 0.92729 0.14042 0.0
N1217 N 0.53986 0.888 0.13779 0.0
N1218 N 0.53857 0.94415 0.10923 0.0
C1219 C 0.54949 0.91768 0.09498 0.0
C1220 C 0.55003 0.88704 0.11053 0.0
C1221 C 0.8783 0.84549 0.84432 0.0
C1222 C 0.90946 0.83482 0.84144 0.0
C1223 C 0.85167 0.8227 0.84246 0.0
C1224 C 0.8554 0.78861 0.83706 0.0
H1225 H 0.87436 0.8717 0.84717 0.0
H1226 H 0.82798 0.83247 0.84219 0.0
S1227 S 0.93226 0.74743 0.83305 0.0
N1228 N 0.94291 0.78742 0.83726 0.0
N1229 N 0.89265 0.74475 0.83315 0.0
C1230 C 0.88659 0.77731 0.83714 0.0
C1231 C 0.91369 0.80042 0.83922 0.0
C1232 C 0.96507 0.99218 0.92408 0.0
C1233 C 0.98489 0.9926 0.90044 0.0
C1234 C 0.97774 0.98743 0.95203 0.0
C1235 C 0.01083 0.9836 0.9575 0.0
H1236 H 0.93939 0.99407 0.92082 0.0
H1237 H 0.9613 0.98612 0.96939 0.0
S1238 S 0.07324 0.98667 0.90285 0.0
N1239 N 0.03923 0.99069 0.88423 0.0
N1240 N 0.0634 0.98351 0.93665 0.0
C1241 C 0.03104 0.98567 0.93402 0.0
C1242 C 0.01799 0.98969 0.90555 0.0
C1243 C 0.78479 0.22107 0.58477 0.0
C1244 C 0.80083 0.19128 0.58231 0.0
C1245 C 0.77758 0.23392 0.61166 0.0
C1246 C 0.78589 0.21729 0.63698 0.0
H1247 H 0.77656 0.23391 0.56579 0.0
H1248 H 0.76466 0.25651 0.61263 0.0
S1249 S 0.83223 0.14147 0.64287 0.0
N1250 N 0.82786 0.14767 0.60806 0.0
N1251 N 0.814 0.17183 0.65837 0.0
C1252 C 0.80333 0.18856 0.635 0.0
C1253 C 0.81093 0.1756 0.60774 0.0
C1254 C 0.59675 0.016 0.41188 0.0
C1255 C 0.59434 0.04282 0.39289 0.0
C1256 C 0.57939 0.01435 0.43705 0.0
C1257 C 0.55892 0.03954 0.44449 0.0
H1258 H 0.61266 0.99633 0.4076 0.0
H1259 H 0.58308 0.99369 0.45132 0.0
S1260 S 0.54231 0.11415 0.40115 0.0
N1261 N 0.56833 0.09436 0.38258 0.0
N1262 N 0.53598 0.09132 0.42976 0.0
C1263 C 0.55532 0.06587 0.42512 0.0
C1264 C 0.57296 0.06751 0.39944 0.0
C1265 C 0.78242 0.81824 0.0857 0.0
C1266 C 0.80281 0.84122 0.07175 0.0
C1267 C 0.7891 0.80921 0.11396 0.0
C1268 C 0.8168 0.82226 0.12931 0.0
H1269 H 0.7606 0.8077 0.07499 0.0
H1270 H 0.77195 0.7923 0.12401 0.0
S1271 S 0.87861 0.88247 0.10225 0.0
N1272 N 0.85205 0.87682 0.07519 0.0
N1273 N 0.8653 0.85856 0.12823 0.0
C1274 C 0.83769 0.84494 0.11554 0.0
C1275 C 0.83058 0.85467 0.08677 0.0
C1276 C 0.95958 0.97723 0.72123 0.0
C1277 C 0.97271 0.00393 0.73836 0.0
C1278 C 0.97141 0.97057 0.69428 0.0
C1279 C 0.99652 0.99073 0.6832 0.0
H1280 H 0.93983 0.9614 0.72872 0.0
H1281 H 0.96057 0.94959 0.68196 0.0
S1282 S 0.03828 0.06461 0.71991 0.0
N1283 N 0.01197 0.05055 0.74302 0.0
N1284 N 0.03367 0.0393 0.69177 0.0
C1285 C 0.01001 0.01754 0.70044 0.0
C1286 C 0.99821 0.02386 0.72816 0.0
C1287 C 0.77947 0.24086 0.41381 0.0
C1288 C 0.79933 0.21513 0.42219 0.0
C1289 C 0.78314 0.2575 0.38771 0.0
C1290 C 0.80695 0.24938 0.36868 0.0
H1291 H 0.76028 0.2478 0.4272 0.0
H1292 H 0.76644 0.2763 0.3821 0.0
S1293 S 0.86689 0.1855 0.38124 0.0
N1294 N 0.84495 0.18357 0.40988 0.0
N1295 N 0.85194 0.21478 0.36098 0.0
C1296 C 0.82784 0.22456 0.37728 0.0
C1297 C 0.82399 0.20747 0.4039 0.0
C1298 C 0.59537 0.04692 0.23147 0.0
C1299 C 0.61613 0.02123 0.23779 0.0
C1300 C 0.58547 0.05344 0.20311 0.0
C1301 C 0.59604 0.03443 0.1804 0.0
H1302 H 0.5883 0.06344 0.24826 0.0
H1303 H 0.57061 0.07422 0.19883 0.0
S1304 S 0.64556 0.961 0.18558 0.0
N1305 N 0.64332 0.97413 0.21904 0.0
N1306 N 0.62465 0.98661 0.16582 0.0
C1307 C 0.61471 0.00728 0.18647 0.0
C1308 C 0.62474 1.00057 0.21521 0.0
C1309 C 0.67594 0.80388 0.92813 0.0
C1310 C 0.69332 0.8339 0.93543 0.0
C1311 C 0.66664 0.79652 0.89951 0.0
C1312 C 0.67656 0.81811 0.87754 0.0
H1313 H 0.67331 0.78432 0.94382 0.0
H1314 H 0.65717 0.77145 0.89423 0.0
S1315 S 0.70886 0.90558 0.88769 0.0
N1316 N 0.70859 0.89011 0.92029 0.0
N1317 N 0.69367 0.87531 0.86622 0.0
C1318 C 0.68689 0.85101 0.88547 0.0
C1319 C 0.69507 0.85902 0.91474 0.0
C1320 C 0.86736 0.87441 0.98101 0.0
C1321 C 0.84313 0.89288 0.96832 0.0
C1322 C 0.89081 0.88954 -0.00015 0.0
C1323 C 0.89066 0.92365 0.00752 0.0
H1324 H 0.86738 0.84772 0.97758 0.0
H1325 H 0.90886 0.87387 0.00873 0.0
S1326 S 0.8362 0.98433 0.97459 0.0
N1327 N 0.82463 0.94827 0.95928 0.0
N1328 N 0.86561 0.97609 0.9976 0.0
C1329 C 0.8679 0.94288 0.99305 0.0
C1330 C 0.84513 0.92768 0.97263 0.0
C1331 C 0.38921 0.54083 0.03631 0.0
C1332 C 0.38032 0.56259 0.0142 0.0
C1333 C 0.4201 0.52845 0.03855 0.0
C1334 C 0.44368 0.53713 0.01873 0.0
H1335 H 0.37249 0.53402 0.05269 0.0
H1336 H 0.42577 0.51267 0.05652 0.0
S1337 S 0.43194 0.59084 0.95514 0.0
N1338 N 0.39723 0.59047 0.9709 0.0
N1339 N 0.45496 0.56722 0.97493 0.0
C1340 C 0.43467 0.55772 0.99576 0.0
C1341 C 0.40318 0.57041 0.99354 0.0
C1342 C 0.24905 0.63814 0.79613 0.0
C1343 C 0.2197 0.63442 0.80998 0.0
C1344 C 0.26182 0.66958 0.78808 0.0
C1345 C 0.24583 0.69881 0.7934 0.0
H1346 H 0.2622 0.61653 0.79103 0.0
H1347 H 0.28462 0.67091 0.77775 0.0
S1348 S 0.1687 0.70326 0.82999 0.0
N1349 N 0.17535 0.66319 0.8293 0.0
N1350 N 0.19924 0.72202 0.81411 0.0
C1351 C 0.21651 0.69556 0.80736 0.0
C1352 C 0.20357 0.66353 0.81571 0.0
C1353 C 0.19848 0.48992 0.48629 0.0
C1354 C 0.22224 0.49506 0.50821 0.0
C1355 C 0.16705 0.49846 0.49025 0.0
C1356 C 0.15811 0.5119 0.51653 0.0
H1357 H 0.20372 0.47702 0.46668 0.0
H1358 H 0.14929 0.49251 0.47312 0.0
S1359 S 0.21287 0.53438 0.57923 0.0
N1360 N 0.23611 0.51782 0.55576 0.0
N1361 N 0.17665 0.5338 0.56355 0.0
C1362 C 0.18236 0.51989 0.53774 0.0
C1363 C 0.2146 0.51149 0.53348 0.0
C1364 C 0.87689 0.89874 0.7847 0.0
C1365 C 0.86328 0.92348 0.80095 0.0
C1366 C 0.85815 0.87144 0.77346 0.0
C1367 C 0.82507 0.86753 0.77833 0.0
H1368 H 0.9022 0.90066 0.78026 0.0
H1369 H 0.87007 0.85271 0.76169 0.0
S1370 S 0.77783 0.92606 0.81919 0.0
N1371 N 0.81479 0.94316 0.82081 0.0
N1372 N 0.77939 0.89138 0.80017 0.0
C1373 C 0.81104 0.89249 0.79419 0.0
C1374 C 0.83018 0.92053 0.80541 0.0
C1375 C 0.69222 0.06953 0.52559 0.0
C1376 C 0.69912 0.09766 0.50857 0.0
C1377 C 0.66081 0.06103 0.53403 0.0
C1378 C 0.63488 0.08047 0.52613 0.0
H1379 H 0.71135 0.05422 0.53302 0.0
H1380 H 0.65689 0.03911 0.54702 0.0
S1381 S 0.63916 0.15518 0.47979 0.0
N1382 N 0.67651 0.14381 0.48272 0.0
N1383 N 0.61802 0.12816 0.4988 0.0
C1384 C 0.64127 0.10828 0.50865 0.0
C1385 C 0.67314 0.11672 0.49979 0.0
C1386 C 0.23966 0.42141 0.82547 0.0
C1387 C 0.24925 0.44788 0.80758 0.0
C1388 C 0.25246 0.38988 0.82307 0.0
C1389 C 0.27533 0.38345 0.80261 0.0
H1390 H 0.22123 0.42464 0.84077 0.0
H1391 H 0.24338 0.37007 0.83662 0.0
S1392 S 0.31136 0.44525 0.75283 0.0
N1393 N 0.28528 0.46614 0.77037 0.0
N1394 N 0.30908 0.40723 0.76587 0.0
C1395 C 0.28632 0.41018 0.78562 0.0
C1396 C 0.27339 0.44225 0.78811 0.0
C1397 C 0.32953 0.60393 0.28284 0.0
C1398 C 0.35065 0.59504 0.30544 0.0
C1399 C 0.31584 0.63495 0.28246 0.0
C1400 C 0.32257 0.65847 0.30471 0.0
H1401 H 0.32414 0.58718 0.26475 0.0
H1402 H 0.30069 0.64088 0.26402 0.0
S1403 S 0.37371 0.6462 0.37043 0.0
N1404 N 0.37575 0.61136 0.35176 0.0
N1405 N 0.34994 0.66962 0.35121 0.0
C1406 C 0.34242 0.64929 0.32819 0.0
C1407 C 0.3565 0.61766 0.32849 0.0
C1408 C 0.52847 0.63724 0.58289 0.0
C1409 C 0.53271 0.63266 0.61266 0.0
C1410 C 0.52559 0.61002 0.56406 0.0
C1411 C 0.52591 0.57751 0.57448 0.0
H1412 H 0.53032 0.66191 0.57375 0.0
H1413 H 0.52607 0.61445 0.54121 0.0
S1414 S 0.52924 0.55172 0.65036 0.0
N1415 N 0.53167 0.59287 0.65176 0.0
N1416 N 0.5257 0.54162 0.61597 0.0
C1417 C 0.52583 0.57239 0.60411 0.0
C1418 C 0.52936 0.60009 0.62339 0.0
C1419 C 0.67589 0.26344 0.86537 0.0
C1420 C 0.6465 0.2703 0.85115 0.0
C1421 C 0.70426 0.25972 0.85051 0.0
C1422 C 0.7051 0.26218 0.82039 0.0
H1423 H 0.67729 0.26134 0.88849 0.0
H1424 H 0.72595 0.25505 0.86301 0.0
S1425 S 0.63497 0.27904 0.77219 0.0
N1426 N 0.62026 0.27892 0.80452 0.0
N1427 N 0.67336 0.27157 0.77674 0.0
C1428 C 0.67586 0.26845 0.80566 0.0
C1429 C 0.64681 0.27262 0.82092 0.0
C1430 C 0.08727 0.31717 0.04462 0.0
C1431 C 0.07779 0.30343 0.07075 0.0
C1432 C 0.08105 0.34994 0.03772 0.0
C1433 C 0.06547 0.36997 0.05688 0.0
H1434 H 0.10053 0.30293 0.02977 0.0
H1435 H 0.08957 0.36009 0.01782 0.0
S1436 S 0.03229 0.34504 0.12631 0.0
N1437 N 0.04928 0.31163 0.11466 0.0
N1438 N 0.03796 0.37355 0.10152 0.0
C1439 C 0.05434 0.35622 0.08232 0.0
C1440 C 0.06033 0.32274 0.08927 0.0
C1441 C 0.95592 0.80531 0.31284 0.0
C1442 C 0.96362 0.78723 0.33776 0.0
C1443 C 0.92438 0.80434 0.30043 0.0
C1444 C 0.89883 0.78575 0.31265 0.0
H1445 H 0.97445 0.82044 0.30272 0.0
H1446 H 0.91996 0.81863 0.28127 0.0
S1447 S 0.90581 0.73345 0.3777 0.0
N1448 N 0.94262 0.74958 0.37383 0.0
N1449 N 0.88382 0.74817 0.35105 0.0
C1450 C 0.90621 0.76747 0.33753 0.0
C1451 C 0.93837 0.76808 0.3499 0.0
C1452 C 0.5432 0.39263 0.94486 0.0
C1453 C 0.55096 0.3619 0.9569 0.0
C1454 C 0.5377 0.42059 0.96203 0.0
C1455 C 0.53921 0.41941 0.99227 0.0
H1456 H 0.54184 0.39545 0.9218 0.0
H1457 H 0.53258 0.4436 0.95132 0.0
S1458 S 0.55751 0.34494 0.03507 0.0
N1459 N 0.55909 0.33201 0.00149 0.0
N1460 N 0.54851 0.3844 0.03354 0.0
C1461 C 0.54619 0.38871 0.00473 0.0
C1462 C 0.55217 0.36015 0.98718 0.0
C1463 C 1.0024 0.2173 0.21794 0.0
C1464 C 1.00391 0.23182 0.19059 0.0
C1465 C 0.97566 0.22044 0.23473 0.0
C1466 C 0.94947 0.23788 0.2246 0.0
H1467 H 0.02181 0.20297 0.22635 0.0
H1468 H 0.97505 0.20837 0.25537 0.0
S1469 S 0.9421 0.28273 0.1559 0.0
N1470 N 0.97736 0.26613 0.15514 0.0
N1471 N 0.92699 0.27155 0.18673 0.0
C1472 C 0.95093 0.25338 0.19784 0.0
C1473 C 0.97822 0.2505 0.18082 0.0
C1474 C 0.08087 0.67362 0.49232 0.0
C1475 C 0.06457 0.67903 0.46582 0.0
C1476 C 0.07877 0.64242 0.50588 0.0
C1477 C 0.06075 0.61498 0.49333 0.0
H1478 H 0.0956 0.69364 0.5027 0.0
H1479 H 0.09206 0.63959 0.52604 0.0
S1480 S 0.01238 0.61587 0.42473 0.0
N1481 N 0.0287 0.65417 0.42814 0.0
N1482 N 0.02524 0.59573 0.45322 0.0
C1483 C 0.04393 0.62013 0.46705 0.0
C1484 C 0.04569 0.65203 0.45345 0.0
C1485 C 0.6757 0.7708 0.67851 0.0
C1486 C 0.66848 0.73645 0.67442 0.0
C1487 C 0.70452 0.78237 0.69248 0.0
C1488 C 0.72724 0.75993 0.7016 0.0
H1489 H 0.65778 0.78854 0.67331 0.0
H1490 H 0.70806 0.80861 0.69799 0.0
S1491 S 0.72141 0.66811 0.69208 0.0
N1492 N 0.68715 0.6805 0.67807 0.0
N1493 N 0.74228 0.70237 0.70299 0.0
C1494 C 0.72163 0.72588 0.69498 0.0
C1495 C 0.69186 0.71404 0.6817 0.0
C1496 C 0.59915 0.48365 0.66642 0.0
C1497 C 0.63254 0.48914 0.67158 0.0
C1498 C 0.58572 0.47985 0.63835 0.0
C1499 C 0.60515 0.48202 0.61442 0.0
H1500 H 0.58317 0.48291 0.68414 0.0
H1501 H 0.55984 0.47687 0.63536 0.0
S1502 S 0.694 0.49439 0.61602 0.0
N1503 N 0.68479 0.49496 0.65005 0.0
N1504 N 0.6595 0.48823 0.59772 0.0
C1505 C 0.63859 0.48636 0.61931 0.0
C1506 C 0.65229 0.48982 0.64775 0.0
C1507 C 0.79111 0.32572 0.97212 0.0
C1508 C 0.81761 0.33366 0.99091 0.0
C1509 C 0.79534 0.31232 0.94488 0.0
C1510 C 0.82622 0.30705 0.93541 0.0
H1511 H 0.767 0.33021 0.97837 0.0
H1512 H 0.77437 0.30691 0.93079 0.0
S1513 S 0.90341 0.32344 0.97623 0.0
N1514 N 0.87589 0.33475 0.99823 0.0
N1515 N 0.88354 0.31006 0.94665 0.0
C1516 C 0.85287 0.31452 0.95395 0.0
C1517 C 0.84862 0.32766 0.98186 0.0
C1518 C 1.00496 0.53026 0.16025 0.0
C1519 C 0.97548 0.54499 0.16391 0.0
C1520 C 0.02171 0.53442 0.13497 0.0
C1521 C 0.01014 0.55418 0.1126 0.0
H1522 H 0.01467 0.51429 0.17661 0.0
H1523 H 0.04346 0.52132 0.13261 0.0
S1524 S 0.93512 0.59979 0.11194 0.0
N1525 N 0.9361 0.58116 0.1433 0.0
N1526 N 0.96788 0.5896 0.09607 0.0
C1527 C 0.98142 0.57025 0.11643 0.0
C1528 C 0.964 0.56545 0.14196 0.0
C1529 C 0.81107 0.73713 0.47512 0.0
C1530 C 0.83322 0.7123 0.47918 0.0
C1531 C 0.79682 0.74266 0.44821 0.0
C1532 C 0.80432 0.72378 0.42423 0.0
H1533 H 0.80436 0.75236 0.49294 0.0
H1534 H 0.78023 0.76236 0.44602 0.0
S1535 S 0.86126 0.65622 0.42305 0.0
N1536 N 0.86191 0.66845 0.45697 0.0
N1537 N 0.83561 0.67959 0.40587 0.0
C1538 C 0.82616 0.6986 0.42787 0.0
C1539 C 0.84055 0.69273 0.45548 0.0
C1540 C 0.5857 0.54355 0.83859 0.0
C1541 C 0.61162 0.52359 0.83335 0.0
C1542 C 0.57607 0.54959 0.86651 0.0
C1543 C 0.59218 0.53627 0.8904 0.0
H1544 H 0.57291 0.55508 0.82101 0.0
H1545 H 0.55609 0.56519 0.86946 0.0
S1546 S 0.65998 0.48055 0.88874 0.0
N1547 N 0.65222 0.48919 0.85473 0.0
N1548 N 0.63403 0.50069 0.90713 0.0
C1549 C 0.61767 0.51575 0.88559 0.0
C1550 C 0.62736 0.50932 0.85711 0.0
C1551 C 0.77354 0.36083 0.16764 0.0
C1552 C 0.79445 0.35372 0.14586 0.0
C1553 C 0.77121 0.34072 0.19196 0.0
C1554 C 0.79008 0.31288 0.19585 0.0
H1555 H 0.75874 0.38207 0.16587 0.0
H1556 H 0.75509 0.34779 0.20829 0.0
S1557 S 0.84876 0.28347 0.14506 0.0
N1558 N 0.83425 0.31649 0.12956 0.0
N1559 N 0.83024 0.27921 0.17549 0.0
C1560 C 0.81089 0.30529 0.17408 0.0
C1561 C 0.81299 0.32555 0.14911 0.0
C1562 C 0.97766 0.51922 0.34483 0.0
C1563 C 0.99518 0.5108 0.32096 0.0
C1564 C 0.98847 0.51166 0.37264 0.0
C1565 C 0.0173 0.49579 0.37751 0.0
H1566 H 0.95492 0.53076 0.34201 0.0
H1567 H 0.97431 0.51851 0.3905 0.0
S1568 S 0.07293 0.47011 0.32269 0.0
N1569 N 0.04341 0.48674 0.30419 0.0
N1570 N 0.06375 0.4729 0.35666 0.0
C1571 C 0.03549 0.48804 0.35401 0.0
C1572 C 0.02441 0.49546 0.32567 0.0
C1573 C 0.93414 0.69282 0.64801 0.0
C1574 C 0.92403 0.71243 0.62484 0.0
C1575 C 0.9334 0.705 0.67611 0.0
C1576 C 0.92275 0.73692 0.68131 0.0
H1577 H 0.93744 0.6665 0.64493 0.0
H1578 H 0.93539 0.68752 0.69354 0.0
S1579 S 0.91089 0.80279 0.62785 0.0
N1580 N 0.91618 0.76896 0.60863 0.0
N1581 N 0.91457 0.79159 0.66171 0.0
C1582 C 0.92134 0.75914 0.65841 0.0
C1583 C 0.92197 0.74681 0.62978 0.0
C1584 C 0.74604 0.6613 0.55438 0.0
C1585 C 0.76345 0.65082 0.57878 0.0
C1586 C 0.71714 0.64442 0.5452 0.0
C1587 C 0.70477 0.6169 0.56038 0.0
H1588 H 0.75638 0.68026 0.54062 0.0
H1589 H 0.7059 0.65123 0.52493 0.0
S1590 S 0.73681 0.58619 0.62991 0.0
N1591 N 0.76351 0.61569 0.62074 0.0
N1592 N 0.70834 0.58476 0.60421 0.0
C1593 C 0.71985 0.60914 0.58678 0.0
C1594 C 0.74945 0.62598 0.59585 0.0
C1595 C 0.19258 0.97558 0.54151 0.0
C1596 C 0.20533 0.97653 0.56993 0.0
C1597 C 0.16149 0.98593 0.53477 0.0
C1598 C 0.14169 0.99665 0.55633 0.0
H1599 H 0.20676 0.9669 0.52431 0.0
H1600 H 0.15254 0.98455 0.51265 0.0
S1601 S 0.1636 0.00411 0.63401 0.0
N1602 N 0.19577 0.98994 0.61966 0.0
N1603 N 0.13726 0.00822 0.6071 0.0
C1604 C 0.15418 0.99783 0.58476 0.0
C1605 C 0.18601 0.9881 0.59153 0.0
C1606 C 0.34385 0.94443 0.76958 0.0
C1607 C 0.37709 0.94566 0.76517 0.0
C1608 C 0.32801 0.91598 0.78093 0.0
C1609 C 0.34474 0.88757 0.78828 0.0
H1610 H 0.32989 0.9656 0.76426 0.0
H1611 H 0.30226 0.91593 0.78306 0.0
S1612 S 0.43218 0.87807 0.78168 0.0
N1613 N 0.42625 0.91573 0.76957 0.0
N1614 N 0.39667 0.86292 0.79111 0.0
C1615 C 0.37808 0.88875 0.78454 0.0
C1616 C 0.39416 0.91753 0.77289 0.0
C1617 C 0.41863 0.03707 0.02486 0.0
C1618 C 0.4173 0.07187 0.02213 0.0
C1619 C 0.44802 0.02205 0.02545 0.0
C1620 C 0.4766 0.04165 0.02387 0.0
H1621 H 0.39699 0.02158 0.02798 0.0
H1622 H 0.44851 0.99542 0.02869 0.0
S1623 S 0.48597 0.13268 0.01235 0.0
N1624 N 0.44687 0.12474 0.01435 0.0
N1625 N 0.50225 0.0964 0.01615 0.0
C1626 C 0.47554 0.07596 0.01909 0.0
C1627 C 0.4457 0.09117 0.01793 0.0
C1628 C 0.75401 0.61227 0.75377 0.0
C1629 C 0.72366 0.60477 0.76482 0.0
C1630 C 0.76998 0.64348 0.75867 0.0
C1631 C 0.75631 0.66818 0.77505 0.0
H1632 H 0.76516 0.59422 0.7406 0.0
H1633 H 0.79279 0.64853 0.74883 0.0
S1634 S 0.67874 0.65936 0.81143 0.0
N1635 N 0.68155 0.62342 0.79462 0.0
N1636 N 0.71158 0.68195 0.80415 0.0
C1637 C 0.72655 0.66037 0.7873 0.0
C1638 C 0.71018 0.62874 0.78203 0.0
C1639 C 0.88773 0.50397 0.05618 0.0
C1640 C 0.8797 0.47033 0.04888 0.0
C1641 C 0.91625 0.52033 0.04691 0.0
C1642 C 0.93778 0.50358 0.03014 0.0
H1643 H 0.87238 0.51751 0.06972 0.0
H1644 H 0.92218 0.54573 0.05407 0.0
S1645 S 0.92681 0.41688 0.00233 0.0
N1646 N 0.89499 0.422 0.02136 0.0
N1647 N 0.94812 0.45267 0.00481 0.0
C1648 C 0.92944 0.47059 0.02171 0.0
C1649 C 0.90057 0.45401 0.03083 0.0
C1650 C 0.36331 0.14343 0.77598 0.0
C1651 C 0.35402 0.12486 0.75093 0.0
C1652 C 0.34863 0.17293 0.78285 0.0
C1653 C 0.32447 0.18529 0.76473 0.0
H1654 H 0.38237 0.13539 0.79028 0.0
H1655 H 0.35707 0.18684 0.80196 0.0
S1656 S 0.28952 0.14559 0.69783 0.0
N1657 N 0.31727 0.12039 0.70892 0.0
N1658 N 0.29071 0.17639 0.72159 0.0
C1659 C 0.31442 0.16686 0.74003 0.0
C1660 C 0.32887 0.13648 0.73323 0.0
C1661 C 0.2504 0.905 0.29077 0.0
C1662 C 0.24967 0.91773 0.26276 0.0
C1663 C 0.26722 0.87665 0.29759 0.0
C1664 C 0.28334 0.85982 0.27649 0.0
H1665 H 0.23714 0.91642 0.30735 0.0
H1666 H 0.26583 0.86664 0.319 0.0
S1667 S 0.29125 0.88433 0.20071 0.0
N1668 N 0.26886 0.91258 0.21441 0.0
N1669 N 0.29964 0.85895 0.22722 0.0
C1670 C 0.28414 0.87314 0.24886 0.0
C1671 C 0.26752 0.90222 0.24199 0.0
C1672 C 0.55635 0.39683 0.4458 0.0
C1673 C 0.54682 0.41583 0.42185 0.0
C1674 C 0.57623 0.40857 0.46926 0.0
C1675 C 0.58918 0.44143 0.47249 0.0
H1676 H 0.54561 0.37181 0.44792 0.0
H1677 H 0.57905 0.39172 0.48706 0.0
S1678 S 0.59898 0.52976 0.41191 0.0
N1679 N 0.57064 0.49666 0.38507 0.0
N1680 N 0.60203 0.50034 0.44768 0.0
C1681 C 0.58507 0.46295 0.44971 0.0
C1682 C 0.56275 0.44773 0.41871 0.0
C1683 C 0.43144 0.76826 0.21556 0.0
C1684 C 0.45783 0.75406 0.22971 0.0
C1685 C 0.40205 0.77179 0.22914 0.0
C1686 C 0.39789 0.76242 0.2579 0.0
H1687 H 0.43314 0.77585 0.19346 0.0
H1688 H 0.38233 0.78193 0.21691 0.0
S1689 S 0.45952 0.72484 0.30503 0.0
N1690 N 0.47752 0.7307 0.27446 0.0
N1691 N 0.42318 0.73861 0.30008 0.0
C1692 C 0.42432 0.74901 0.27253 0.0
C1693 C 0.45393 0.74451 0.25846 0.0
C1694 C 0.99349 0.73287 0.92849 0.0
C1695 C 0.99549 0.76442 0.9417 0.0
C1696 C 0.99458 0.70411 0.9448 0.0
C1697 C 0.99713 0.70586 0.97493 0.0
H1698 H 0.99183 0.73035 0.90534 0.0
H1699 H 0.9941 0.68032 0.93363 0.0
S1700 S 1.00043 0.78264 0.01986 0.0
N1701 N 0.99878 0.79607 0.98656 0.0
N1702 N 0.99987 0.74158 0.01742 0.0
C1703 C 0.99842 0.73727 0.98848 0.0
C1704 C 0.99776 0.76668 0.9718 0.0
C1705 C 0.14645 0.24973 0.73964 0.0
C1706 C 0.13916 0.27246 0.71769 0.0
C1707 C 0.17696 0.25085 0.7543 0.0
C1708 C 0.20158 0.27465 0.74754 0.0
H1709 H 0.12879 0.23024 0.74499 0.0
H1710 H 0.18158 0.23235 0.77044 0.0
S1711 S 0.19323 0.3434 0.6956 0.0
N1712 N 0.15834 0.32194 0.69264 0.0
N1713 N 0.215 0.32389 0.71972 0.0
C1714 C 0.19402 0.2984 0.72663 0.0
C1715 C 0.16311 0.29735 0.71188 0.0
C1716 C 0.53667 0.6404 0.12374 0.0
C1717 C 0.54468 0.67183 0.112 0.0
C1718 C 0.53806 0.61064 0.10769 0.0
C1719 C 0.54746 0.61054 0.07893 0.0
H1720 H 0.52967 0.63859 0.14578 0.0
H1721 H 0.53169 0.58738 0.11813 0.0
S1722 S 0.5699 0.68599 0.03729 0.0
N1723 N 0.56176 0.70079 0.06913 0.0
N1724 N 0.5642 0.64511 0.03923 0.0
C1725 C 0.55516 0.64177 0.06673 0.0
C1726 C 0.5538 0.67219 0.08312 0.0
C1727 C 0.08637 0.87951 0.81593 0.0
C1728 C 0.07627 0.86894 0.84294 0.0
C1729 C 0.11766 0.87466 0.80745 0.0
C1730 C 0.13995 0.85979 0.82596 0.0
H1731 H 0.06978 0.8907 0.80095 0.0
H1732 H 0.1244 0.88224 0.78621 0.0
S1733 S 0.12617 0.82854 0.89907 0.0
N1734 N 0.09171 0.84336 0.88831 0.0
N1735 N 0.15026 0.83482 0.87229 0.0
C1736 C 0.1305 0.84992 0.85318 0.0
C1737 C 0.09872 0.85437 0.8617 0.0
C1738 C 0.07207 0.36088 0.5691 0.0
C1739 C 0.05936 0.35748 0.59659 0.0
C1740 C 0.06967 0.39052 0.55326 0.0
C1741 C 0.05521 0.41833 0.56456 0.0
H1742 H 0.08414 0.3405 0.55976 0.0
H1743 H 0.08028 0.39207 0.53249 0.0
S1744 S 0.01754 0.42247 0.63515 0.0
N1745 N 0.03079 0.38456 0.63381 0.0
N1746 N 0.02722 0.44014 0.60468 0.0
C1747 C 0.04209 0.4151 0.59182 0.0
C1748 C 0.04389 0.38478 0.60763 0.0
C1749 C 0.40131 0.26309 0.36229 0.0
C1750 C 0.40229 0.29715 0.37004 0.0
C1751 C 0.37235 0.24529 0.35553 0.0
C1752 C 0.34317 0.26082 0.35607 0.0
H1753 H 0.42318 0.25015 0.3602 0.0
H1754 H 0.37304 0.22005 0.34725 0.0
S1755 S 0.33174 0.34749 0.38034 0.0
N1756 N 0.37104 0.34427 0.38215 0.0
N1757 N 0.31628 0.31072 0.36906 0.0
C1758 C 0.34335 0.29378 0.36671 0.0
C1759 C 0.37303 0.31208 0.37356 0.0
C1760 C 0.486 0.51705 0.4169 0.0
C1761 C 0.49304 0.4932 0.39609 0.0
C1762 C 0.50656 0.52717 0.44072 0.0
C1763 C 0.53858 0.51804 0.44571 0.0
H1764 H 0.46273 0.52771 0.41542 0.0
H1765 H 0.49626 0.54269 0.45668 0.0
S1766 S 0.58404 0.44459 0.37194 0.0
N1767 N 0.53648 0.45501 0.37424 0.0
N1768 N 0.6028 0.47368 0.40694 0.0
C1769 C 0.55147 0.49759 0.42406 0.0
C1770 C 0.52271 0.47941 0.39841 0.0
C1771 C 0.28144 0.71513 0.09089 0.0
C1772 C 0.29738 0.68553 0.08689 0.0
C1773 C 0.27502 0.72664 0.11841 0.0
C1774 C 0.28406 0.70885 0.14292 0.0
H1775 H 0.27287 0.72902 0.07263 0.0
H1776 H 0.26233 0.74926 0.12052 0.0
S1777 S 0.33001 0.63256 0.14475 0.0
N1778 N 0.3247 0.64048 0.11031 0.0
N1779 N 0.31241 0.66219 0.16185 0.0
C1780 C 0.30114 0.68008 0.13941 0.0
C1781 C 0.30791 0.66845 0.11146 0.0
C1782 C 0.07161 0.5626 0.89684 0.0
C1783 C 0.09361 0.53895 0.88936 0.0
C1784 C 0.05378 0.55917 0.92159 0.0
C1785 C 0.05699 0.53183 0.93991 0.0
H1786 H 0.06885 0.58464 0.884 0.0
H1787 H 0.03838 0.57892 0.92698 0.0
S1788 S 0.10843 0.46074 0.92814 0.0
N1789 N 0.11551 0.48572 0.90099 0.0
N1790 N 0.08191 0.47902 0.94728 0.0
C1791 C 0.07754 0.50698 0.93177 0.0
C1792 C 0.09589 0.51063 0.90664 0.0
C1793 C 0.31397 0.39163 0.6065 0.0
C1794 C 0.28316 0.38526 0.59349 0.0
C1795 C 0.32307 0.37586 0.63182 0.0
C1796 C 0.30165 0.35331 0.64507 0.0
H1797 H 0.3318 0.40772 0.59642 0.0
H1798 H 0.34737 0.38056 0.64057 0.0
S1799 S 0.21681 0.3316 0.62178 0.0
N1800 N 0.23031 0.35725 0.59707 0.0
N1801 N 0.24719 0.32805 0.64511 0.0
C1802 C 0.2702 0.3481 0.63315 0.0
C1803 C 0.26099 0.36403 0.60728 0.0
C1804 C 0.44989 0.50504 0.21218 0.0
C1805 C 0.46505 0.4924 0.23702 0.0
C1806 C 0.46176 0.50007 0.18491 0.0
C1807 C 0.48946 0.48247 0.1812 0.0
H1808 H 0.42836 0.51869 0.21364 0.0
H1809 H 0.44935 0.51053 0.16655 0.0
S1810 S 0.53831 0.44382 0.2386 0.0
N1811 N 0.50947 0.46104 0.25572 0.0
N1812 N 0.53182 0.45217 0.20435 0.0
C1813 C 0.50514 0.46991 0.20566 0.0
C1814 C 0.49295 0.47474 0.23355 0.0
C1815 C 0.27294 0.74764 0.92128 0.0
C1816 C 0.29486 0.7236 0.9293 0.0
C1817 C 0.27641 0.76653 0.89626 0.0
C1818 C 0.30209 0.76243 0.87809 0.0
H1819 H 0.25227 0.75134 0.934 0.0
H1820 H 0.25811 0.78366 0.89064 0.0
S1821 S 0.36799 0.70504 0.89073 0.0
N1822 N 0.34447 0.69842 0.91792 0.0
N1823 N 0.35121 0.73387 0.87122 0.0
C1824 C 0.32504 0.73953 0.88657 0.0
C1825 C 0.32136 0.72014 0.91199 0.0
C1826 C 0.09576 0.5441 0.72948 0.0
C1827 C 0.12491 0.52867 0.73476 0.0
C1828 C 0.08379 0.54896 0.70145 0.0
C1829 C 0.10073 0.53886 0.67784 0.0
H1830 H 0.08259 0.55358 0.74703 0.0
H1831 H 0.06162 0.56146 0.6982 0.0
S1832 S 0.17537 0.4931 0.67958 0.0
N1833 N 0.16844 0.5001 0.71361 0.0
N1834 N 0.14589 0.50972 0.66108 0.0
C1835 C 0.12889 0.52197 0.68267 0.0
C1836 C 0.14097 0.51669 0.7111 0.0
C1837 C 0.19775 0.36408 0.42328 0.0
C1838 C 0.1975 0.34673 0.44922 0.0
C1839 C 0.18832 0.34787 0.39749 0.0
C1840 C 0.17794 0.31385 0.3969 0.0
H1841 H 0.20884 0.38906 0.42231 0.0
H1842 H 0.19326 0.36113 0.37795 0.0
S1843 S 0.15985 0.26244 0.4604 0.0
N1844 N 0.17746 0.29732 0.47388 0.0
N1845 N 0.15773 0.2673 0.42528 0.0
C1846 C 0.1715 0.29859 0.42324 0.0
C1847 C 0.18198 0.31485 0.44951 0.0
C1848 C 0.38197 0.40079 0.46634 0.0
C1849 C 0.36161 0.38415 0.48536 0.0
C1850 C 0.41472 0.40644 0.47344 0.0
C1851 C 0.42773 0.39636 0.50008 0.0
H1852 H 0.37201 0.4125 0.44743 0.0
H1853 H 0.42911 0.42221 0.45962 0.0
S1854 S 0.38564 0.34622 0.55456 0.0
N1855 N 0.35776 0.35238 0.52936 0.0
N1856 N 0.41918 0.36431 0.54312 0.0
C1857 C 0.4086 0.37582 0.51734 0.0
C1858 C 0.37538 0.36942 0.50985 0.0
C1859 C 0.89063 0.04239 0.53686 0.0
C1860 C 0.88185 0.06372 0.5144 0.0
C1861 C 0.92154 0.03014 0.53944 0.0
C1862 C 0.94521 0.03863 0.51968 0.0
H1863 H 0.87382 0.03582 0.55323 0.0
H1864 H 0.92715 0.01471 0.55766 0.0
S1865 S 0.93374 0.09102 0.45525 0.0
N1866 N 0.89891 0.09083 0.47079 0.0
N1867 N 0.95673 0.0679 0.47553 0.0
C1868 C 0.93632 0.05875 0.49637 0.0
C1869 C 0.9048 0.07124 0.49376 0.0
C1870 C 0.75226 0.12338 0.29036 0.0
C1871 C 0.72264 0.1217 0.30394 0.0
C1872 C 0.76621 0.1538 0.28102 0.0
C1873 C 0.75105 0.18389 0.28458 0.0
H1874 H 0.76478 0.10095 0.28666 0.0
H1875 H 0.78923 0.1537 0.27112 0.0
S1876 S 0.67338 0.19356 0.3193 0.0
N1877 N 0.67888 0.1533 0.32086 0.0
N1878 N 0.70472 0.21007 0.30306 0.0
C1879 C 0.72138 0.18261 0.2981 0.0
C1880 C 0.70736 0.15171 0.3079 0.0
C1881 C 0.71246 0.9699 0.04538 0.0
C1882 C 0.72606 0.96888 0.01844 0.0
C1883 C 0.68437 0.98653 0.04914 0.0
C1884 C 0.66891 0.00154 0.02574 0.0
H1885 H 0.72242 0.95602 0.06309 0.0
H1886 H 0.67323 0.98498 0.06968 0.0
S1887 S 0.69741 0.00849 0.95176 0.0
N1888 N 0.72439 0.98673 0.96897 0.0
N1889 N 0.671 0.01746 0.97567 0.0
C1890 C 0.68376 0.00276 0.99928 0.0
C1891 C 0.71258 0.9864 0.99568 0.0
C1892 C 0.36929 0.38213 0.31174 0.0
C1893 C 0.35446 0.41234 0.31526 0.0
C1894 C 0.35132 0.3529 0.30412 0.0
C1895 C 0.31772 0.3525 0.30031 0.0
H1896 H 0.39518 0.38116 0.31376 0.0
H1897 H 0.36396 0.33032 0.30144 0.0
S1898 S 0.26688 0.42408 0.30975 0.0
N1899 N 0.30398 0.43982 0.31593 0.0
N1900 N 0.26993 0.38408 0.30254 0.0
C1901 C 0.3023 0.38205 0.30509 0.0
C1902 C 0.32075 0.41218 0.31231 0.0
C1903 C 0.18998 0.56715 0.02335 0.0
C1904 C 0.19706 0.59533 0.00646 0.0
C1905 C 0.15827 0.55788 0.03055 0.0
C1906 C 0.13219 0.57651 0.02141 0.0
H1907 H 0.20916 0.55252 0.03177 0.0
H1908 H 0.15425 0.53604 0.04362 0.0
S1909 S 0.13703 0.65071 0.97454 0.0
N1910 N 0.1746 0.64046 0.97918 0.0
N1911 N 0.11552 0.62334 0.99289 0.0
C1912 C 0.1388 0.60424 0.00391 0.0
C1913 C 0.17099 0.6135 0.99637 0.0
C1914 C 0.76418 0.92898 0.27748 0.0
C1915 C 0.74601 0.93618 0.30134 0.0
C1916 C 0.77806 0.89822 0.27442 0.0
C1917 C 0.77446 0.8732 0.29511 0.0
H1918 H 0.76702 0.94689 0.26045 0.0
H1919 H 0.79094 0.89376 0.2552 0.0
S1920 S 0.73175 0.88046 0.36305 0.0
N1921 N 0.72706 0.91642 0.34706 0.0
N1922 N 0.75317 0.85871 0.34146 0.0
C1923 C 0.75757 0.88058 0.31976 0.0
C1924 C 0.74336 0.91198 0.32283 0.0
C1925 C 0.85404 0.12492 0.81972 0.0
C1926 C 0.85228 0.10294 0.79606 0.0
C1927 C 0.83839 0.1548 0.81887 0.0
C1928 C 0.82052 0.16408 0.79425 0.0
H1929 H 0.86798 0.11927 0.83896 0.0
H1930 H 0.84127 0.17124 0.83744 0.0
S1931 S 0.80741 0.11461 0.72679 0.0
N1932 N 0.83025 0.09187 0.74755 0.0
N1933 N 0.80104 0.14813 0.74593 0.0
C1934 C 0.81769 0.1418 0.77074 0.0
C1935 C 0.83356 0.11126 0.77163 0.0
loop_
_geom_bond_atom_site_label_1
_geom_bond_atom_site_label_2
_geom_bond_distance
_geom_bond_site_symmetry_2
_ccdc_geom_bond_type
O0 Cd1 2.223 . S
O0 C8 1.315 . S
Cd1 O0 2.223 . S
Cd1 O4 2.297 . S
Cd1 O5 2.439 . S
Cd1 O11 2.240 . S
Cd2 O3 2.240 . S
Cd2 O10 2.223 . S
Cd2 O12 2.297 . S
Cd2 O13 2.439 . S
O3 Cd2 2.240 . S
O3 C8 1.279 . S
O4 Cd1 2.297 . S
O4 C6 1.247 . S
O5 Cd1 2.439 . S
O5 C6 1.208 . S
C6 O4 1.247 . S
C6 O5 1.208 . S
C7 O12 1.247 . S
C7 O13 1.208 . S
C8 O0 1.315 . S
C8 O3 1.279 . S
C9 O10 1.315 . S
C9 O11 1.279 . S
O10 Cd2 2.223 . S
O10 C9 1.315 . S
O11 Cd1 2.240 . S
O11 C9 1.279 . S
O12 Cd2 2.297 . S
O12 C7 1.247 . S
O13 Cd2 2.439 . S
O13 C7 1.208 . S
O14 Cd15 2.223 . S
O14 C22 1.315 . S
Cd15 O14 2.223 . S
Cd15 O18 2.297 . S
Cd15 O19 2.439 . S
Cd15 O25 2.240 . S
Cd16 O17 2.240 . S
Cd16 O24 2.223 . S
Cd16 O26 2.297 1_455 S
Cd16 O27 2.439 1_455 S
O17 Cd16 2.240 . S
O17 C22 1.279 . S
O18 Cd15 2.297 . S
O18 C20 1.247 . S
O19 Cd15 2.439 . S
O19 C20 1.208 . S
C20 O18 1.247 . S
C20 O19 1.208 . S
C21 O26 1.247 . S
C21 O27 1.208 . S
C22 O14 1.315 . S
C22 O17 1.279 . S
C23 O24 1.315 . S
C23 O25 1.279 . S
O24 Cd16 2.223 . S
O24 C23 1.315 . S
O25 Cd15 2.240 . S
O25 C23 1.279 . S
O26 Cd16 2.297 1_655 S
O26 C21 1.247 . S
O27 Cd16 2.439 1_655 S
O27 C21 1.208 . S
O28 Cd29 2.223 . S
O28 C36 1.315 . S
Cd29 O28 2.223 . S
Cd29 O32 2.297 . S
Cd29 O33 2.439 . S
Cd29 O39 2.240 . S
Cd30 O31 2.240 . S
Cd30 O38 2.223 . S
Cd30 O40 2.297 . S
Cd30 O41 2.439 . S
O31 Cd30 2.240 . S
O31 C36 1.279 . S
O32 Cd29 2.297 . S
O32 C34 1.247 . S
O33 Cd29 2.439 . S
O33 C34 1.208 . S
C34 O32 1.247 . S
C34 O33 1.208 . S
C35 O40 1.247 . S
C35 O41 1.208 . S
C36 O28 1.315 . S
C36 O31 1.279 . S
C37 O38 1.315 . S
C37 O39 1.279 . S
O38 Cd30 2.223 . S
O38 C37 1.315 . S
O39 Cd29 2.240 . S
O39 C37 1.279 . S
O40 Cd30 2.297 . S
O40 C35 1.247 . S
O41 Cd30 2.439 . S
O41 C35 1.208 . S
O42 Cd43 2.223 . S
O42 C50 1.315 . S
Cd43 O42 2.223 . S
Cd43 O46 2.297 . S
Cd43 O47 2.439 . S
Cd43 O53 2.240 . S
Cd44 O45 2.240 . S
Cd44 O52 2.223 . S
Cd44 O54 2.297 . S
Cd44 O55 2.439 . S
O45 Cd44 2.240 . S
O45 C50 1.279 . S
O46 Cd43 2.297 . S
O46 C48 1.247 . S
O47 Cd43 2.439 . S
O47 C48 1.208 . S
C48 O46 1.247 . S
C48 O47 1.208 . S
C49 O54 1.247 . S
C49 O55 1.208 . S
C50 O42 1.315 . S
C50 O45 1.279 . S
C51 O52 1.315 . S
C51 O53 1.279 . S
O52 Cd44 2.223 . S
O52 C51 1.315 . S
O53 Cd43 2.240 . S
O53 C51 1.279 . S
O54 Cd44 2.297 . S
O54 C49 1.247 . S
O55 Cd44 2.439 . S
O55 C49 1.208 . S
O56 Cd57 2.223 . S
O56 C64 1.315 . S
Cd57 O56 2.223 . S
Cd57 O60 2.297 1_545 S
Cd57 O61 2.439 1_545 S
Cd57 O67 2.240 . S
Cd58 O59 2.240 . S
Cd58 O66 2.223 . S
Cd58 O68 2.297 . S
Cd58 O69 2.439 . S
O59 Cd58 2.240 . S
O59 C64 1.279 . S
O60 Cd57 2.297 1_565 S
O60 C62 1.247 . S
O61 Cd57 2.439 1_565 S
O61 C62 1.208 . S
C62 O60 1.247 . S
C62 O61 1.208 . S
C63 O68 1.247 . S
C63 O69 1.208 . S
C64 O56 1.315 . S
C64 O59 1.279 . S
C65 O66 1.315 . S
C65 O67 1.279 . S
O66 Cd58 2.223 . S
O66 C65 1.315 . S
O67 Cd57 2.240 . S
O67 C65 1.279 . S
O68 Cd58 2.297 . S
O68 C63 1.247 . S
O69 Cd58 2.439 . S
O69 C63 1.208 . S
O70 Cd71 2.223 . S
O70 C78 1.315 . S
Cd71 O70 2.223 . S
Cd71 O74 2.297 . S
Cd71 O75 2.439 . S
Cd71 O81 2.240 . S
Cd72 O73 2.240 . S
Cd72 O80 2.223 . S
Cd72 O82 2.297 . S
Cd72 O83 2.439 . S
O73 Cd72 2.240 . S
O73 C78 1.279 . S
O74 Cd71 2.297 . S
O74 C76 1.247 . S
O75 Cd71 2.439 . S
O75 C76 1.208 . S
C76 O74 1.247 . S
C76 O75 1.208 . S
C77 O82 1.247 . S
C77 O83 1.208 . S
C78 O70 1.315 . S
C78 O73 1.279 . S
C79 O80 1.315 . S
C79 O81 1.279 . S
O80 Cd72 2.223 . S
O80 C79 1.315 . S
O81 Cd71 2.240 . S
O81 C79 1.279 . S
O82 Cd72 2.297 . S
O82 C77 1.247 . S
O83 Cd72 2.439 . S
O83 C77 1.208 . S
O84 Cd85 2.223 . S
O84 C92 1.315 . S
Cd85 O84 2.223 . S
Cd85 O88 2.297 . S
Cd85 O89 2.439 . S
Cd85 O95 2.240 1_545 S
Cd86 O87 2.240 . S
Cd86 O94 2.223 1_545 S
Cd86 O96 2.297 1_545 S
Cd86 O97 2.439 . S
O87 Cd86 2.240 . S
O87 C92 1.279 . S
O88 Cd85 2.297 . S
O88 C90 1.247 . S
O89 Cd85 2.439 . S
O89 C90 1.208 . S
C90 O88 1.247 . S
C90 O89 1.208 . S
C91 O96 1.247 1_545 S
C91 O97 1.208 . S
C92 O84 1.315 . S
C92 O87 1.279 . S
C93 O94 1.315 . S
C93 O95 1.279 . S
O94 Cd86 2.223 1_565 S
O94 C93 1.315 . S
O95 Cd85 2.240 1_565 S
O95 C93 1.279 . S
O96 Cd86 2.297 1_565 S
O96 C91 1.247 1_565 S
O97 Cd86 2.439 . S
O97 C91 1.208 . S
O98 Cd99 2.223 . S
O98 C106 1.315 . S
Cd99 O98 2.223 . S
Cd99 O102 2.297 . S
Cd99 O103 2.439 . S
Cd99 O109 2.240 . S
Cd100 O101 2.240 . S
Cd100 O108 2.223 . S
Cd100 O110 2.297 1_554 S
Cd100 O111 2.439 1_554 S
O101 Cd100 2.240 . S
O101 C106 1.279 . S
O102 Cd99 2.297 . S
O102 C104 1.247 . S
O103 Cd99 2.439 . S
O103 C104 1.208 . S
C104 O102 1.247 . S
C104 O103 1.208 . S
C105 O110 1.247 . S
C105 O111 1.208 . S
C106 O98 1.315 . S
C106 O101 1.279 . S
C107 O108 1.315 . S
C107 O109 1.279 . S
O108 Cd100 2.223 . S
O108 C107 1.315 . S
O109 Cd99 2.240 . S
O109 C107 1.279 . S
O110 Cd100 2.297 1_556 S
O110 C105 1.247 . S
O111 Cd100 2.439 1_556 S
O111 C105 1.208 . S
O112 Cd113 2.223 . S
O112 C120 1.315 . S
Cd113 O112 2.223 . S
Cd113 O116 2.297 . S
Cd113 O117 2.439 . S
Cd113 O123 2.240 . S
Cd114 O115 2.240 . S
Cd114 O122 2.223 . S
Cd114 O124 2.297 . S
Cd114 O125 2.439 . S
O115 Cd114 2.240 . S
O115 C120 1.279 . S
O116 Cd113 2.297 . S
O116 C118 1.247 . S
O117 Cd113 2.439 . S
O117 C118 1.208 . S
C118 O116 1.247 . S
C118 O117 1.208 . S
C119 O124 1.247 . S
C119 O125 1.208 . S
C120 O112 1.315 . S
C120 O115 1.279 . S
C121 O122 1.315 . S
C121 O123 1.279 . S
O122 Cd114 2.223 . S
O122 C121 1.315 . S
O123 Cd113 2.240 . S
O123 C121 1.279 . S
O124 Cd114 2.297 . S
O124 C119 1.247 . S
O125 Cd114 2.439 . S
O125 C119 1.208 . S
O126 Cd127 2.223 . S
O126 C134 1.315 . S
Cd127 O126 2.223 . S
Cd127 O130 2.297 . S
Cd127 O131 2.439 . S
Cd127 O137 2.240 . S
Cd128 O129 2.240 . S
Cd128 O136 2.223 . S
Cd128 O138 2.297 . S
Cd128 O139 2.439 . S
O129 Cd128 2.240 . S
O129 C134 1.279 . S
O130 Cd127 2.297 . S
O130 C132 1.247 . S
O131 Cd127 2.439 . S
O131 C132 1.208 . S
C132 O130 1.247 . S
C132 O131 1.208 . S
C133 O138 1.247 . S
C133 O139 1.208 . S
C134 O126 1.315 . S
C134 O129 1.279 . S
C135 O136 1.315 . S
C135 O137 1.279 . S
O136 Cd128 2.223 . S
O136 C135 1.315 . S
O137 Cd127 2.240 . S
O137 C135 1.279 . S
O138 Cd128 2.297 . S
O138 C133 1.247 . S
O139 Cd128 2.439 . S
O139 C133 1.208 . S
O140 Cd141 2.223 . S
O140 C148 1.315 . S
Cd141 O140 2.223 . S
Cd141 O144 2.297 . S
Cd141 O145 2.439 . S
Cd141 O151 2.240 . S
Cd142 O143 2.240 . S
Cd142 O150 2.223 . S
Cd142 O152 2.297 . S
Cd142 O153 2.439 . S
O143 Cd142 2.240 . S
O143 C148 1.279 . S
O144 Cd141 2.297 . S
O144 C146 1.247 . S
O145 Cd141 2.439 . S
O145 C146 1.208 . S
C146 O144 1.247 . S
C146 O145 1.208 . S
C147 O152 1.247 . S
C147 O153 1.208 . S
C148 O140 1.315 . S
C148 O143 1.279 . S
C149 O150 1.315 . S
C149 O151 1.279 . S
O150 Cd142 2.223 . S
O150 C149 1.315 . S
O151 Cd141 2.240 . S
O151 C149 1.279 . S
O152 Cd142 2.297 . S
O152 C147 1.247 . S
O153 Cd142 2.439 . S
O153 C147 1.208 . S
O154 Cd155 2.223 . S
O154 C162 1.315 . S
Cd155 O154 2.223 . S
Cd155 O158 2.297 . S
Cd155 O159 2.439 . S
Cd155 O165 2.240 . S
Cd156 O157 2.240 . S
Cd156 O164 2.223 . S
Cd156 O166 2.297 . S
Cd156 O167 2.439 . S
O157 Cd156 2.240 . S
O157 C162 1.279 . S
O158 Cd155 2.297 . S
O158 C160 1.247 . S
O159 Cd155 2.439 . S
O159 C160 1.208 . S
C160 O158 1.247 . S
C160 O159 1.208 . S
C161 O166 1.247 . S
C161 O167 1.208 . S
C162 O154 1.315 . S
C162 O157 1.279 . S
C163 O164 1.315 . S
C163 O165 1.279 . S
O164 Cd156 2.223 . S
O164 C163 1.315 . S
O165 Cd155 2.240 . S
O165 C163 1.279 . S
O166 Cd156 2.297 . S
O166 C161 1.247 . S
O167 Cd156 2.439 . S
O167 C161 1.208 . S
O168 Cd169 2.223 . S
O168 C176 1.315 . S
Cd169 O168 2.223 . S
Cd169 O172 2.297 . S
Cd169 O173 2.439 1_455 S
Cd169 O179 2.240 1_455 S
Cd170 O171 2.240 1_655 S
Cd170 O178 2.223 1_655 S
Cd170 O180 2.297 . S
Cd170 O181 2.439 . S
O171 Cd170 2.240 1_455 S
O171 C176 1.279 . S
O172 Cd169 2.297 . S
O172 C174 1.247 . S
O173 Cd169 2.439 1_655 S
O173 C174 1.208 1_655 S
C174 O172 1.247 . S
C174 O173 1.208 1_455 S
C175 O180 1.247 . S
C175 O181 1.208 . S
C176 O168 1.315 . S
C176 O171 1.279 . S
C177 O178 1.315 . S
C177 O179 1.279 1_455 S
O178 Cd170 2.223 1_455 S
O178 C177 1.315 . S
O179 Cd169 2.240 1_655 S
O179 C177 1.279 1_655 S
O180 Cd170 2.297 . S
O180 C175 1.247 . S
O181 Cd170 2.439 . S
O181 C175 1.208 . S
O182 Cd183 2.223 . S
O182 C190 1.315 . S
Cd183 O182 2.223 . S
Cd183 O186 2.297 1_455 S
Cd183 O187 2.439 1_455 S
Cd183 O193 2.240 . S
Cd184 O185 2.240 . S
Cd184 O192 2.223 . S
Cd184 O194 2.297 . S
Cd184 O195 2.439 . S
O185 Cd184 2.240 . S
O185 C190 1.279 . S
O186 Cd183 2.297 1_655 S
O186 C188 1.247 . S
O187 Cd183 2.439 1_655 S
O187 C188 1.208 . S
C188 O186 1.247 . S
C188 O187 1.208 . S
C189 O194 1.247 . S
C189 O195 1.208 . S
C190 O182 1.315 . S
C190 O185 1.279 . S
C191 O192 1.315 . S
C191 O193 1.279 . S
O192 Cd184 2.223 . S
O192 C191 1.315 . S
O193 Cd183 2.240 . S
O193 C191 1.279 . S
O194 Cd184 2.297 . S
O194 C189 1.247 . S
O195 Cd184 2.439 . S
O195 C189 1.208 . S
O196 Cd197 2.223 . S
O196 C204 1.315 . S
Cd197 O196 2.223 . S
Cd197 O200 2.297 . S
Cd197 O201 2.439 . S
Cd197 O207 2.240 . S
Cd198 O199 2.240 . S
Cd198 O206 2.223 . S
Cd198 O208 2.297 . S
Cd198 O209 2.439 . S
O199 Cd198 2.240 . S
O199 C204 1.279 . S
O200 Cd197 2.297 . S
O200 C202 1.247 . S
O201 Cd197 2.439 . S
O201 C202 1.208 . S
C202 O200 1.247 . S
C202 O201 1.208 . S
C203 O208 1.247 . S
C203 O209 1.208 . S
C204 O196 1.315 . S
C204 O199 1.279 . S
C205 O206 1.315 . S
C205 O207 1.279 . S
O206 Cd198 2.223 . S
O206 C205 1.315 . S
O207 Cd197 2.240 . S
O207 C205 1.279 . S
O208 Cd198 2.297 . S
O208 C203 1.247 . S
O209 Cd198 2.439 . S
O209 C203 1.208 . S
O210 Cd211 2.223 . S
O210 C218 1.315 . S
Cd211 O210 2.223 . S
Cd211 O214 2.297 . S
Cd211 O215 2.439 . S
Cd211 O221 2.240 . S
Cd212 O213 2.240 . S
Cd212 O220 2.223 . S
Cd212 O222 2.297 . S
Cd212 O223 2.439 . S
O213 Cd212 2.240 . S
O213 C218 1.279 . S
O214 Cd211 2.297 . S
O214 C216 1.247 . S
O215 Cd211 2.439 . S
O215 C216 1.208 . S
C216 O214 1.247 . S
C216 O215 1.208 . S
C217 O222 1.247 . S
C217 O223 1.208 . S
C218 O210 1.315 . S
C218 O213 1.279 . S
C219 O220 1.315 . S
C219 O221 1.279 . S
O220 Cd212 2.223 . S
O220 C219 1.315 . S
O221 Cd211 2.240 . S
O221 C219 1.279 . S
O222 Cd212 2.297 . S
O222 C217 1.247 . S
O223 Cd212 2.439 . S
O223 C217 1.208 . S
O224 Cd225 2.223 . S
O224 C232 1.315 . S
Cd225 O224 2.223 . S
Cd225 O228 2.297 . S
Cd225 O229 2.439 . S
Cd225 O235 2.240 1_545 S
Cd226 O227 2.240 1_565 S
Cd226 O234 2.223 . S
Cd226 O236 2.297 . S
Cd226 O237 2.439 1_565 S
O227 Cd226 2.240 1_545 S
O227 C232 1.279 . S
O228 Cd225 2.297 . S
O228 C230 1.247 . S
O229 Cd225 2.439 . S
O229 C230 1.208 . S
C230 O228 1.247 . S
C230 O229 1.208 . S
C231 O236 1.247 . S
C231 O237 1.208 1_565 S
C232 O224 1.315 . S
C232 O227 1.279 . S
C233 O234 1.315 . S
C233 O235 1.279 . S
O234 Cd226 2.223 . S
O234 C233 1.315 . S
O235 Cd225 2.240 1_565 S
O235 C233 1.279 . S
O236 Cd226 2.297 . S
O236 C231 1.247 . S
O237 Cd226 2.439 1_545 S
O237 C231 1.208 1_545 S
O238 Cd239 2.223 . S
O238 C246 1.315 . S
Cd239 O238 2.223 . S
Cd239 O242 2.297 . S
Cd239 O243 2.439 . S
Cd239 O249 2.240 . S
Cd240 O241 2.240 . S
Cd240 O248 2.223 . S
Cd240 O250 2.297 . S
Cd240 O251 2.439 . S
O241 Cd240 2.240 . S
O241 C246 1.279 . S
O242 Cd239 2.297 . S
O242 C244 1.247 . S
O243 Cd239 2.439 . S
O243 C244 1.208 . S
C244 O242 1.247 . S
C244 O243 1.208 . S
C245 O250 1.247 . S
C245 O251 1.208 . S
C246 O238 1.315 . S
C246 O241 1.279 . S
C247 O248 1.315 . S
C247 O249 1.279 . S
O248 Cd240 2.223 . S
O248 C247 1.315 . S
O249 Cd239 2.240 . S
O249 C247 1.279 . S
O250 Cd240 2.297 . S
O250 C245 1.247 . S
O251 Cd240 2.439 . S
O251 C245 1.208 . S
O252 Cd253 2.223 . S
O252 C260 1.315 . S
Cd253 O252 2.223 . S
Cd253 O256 2.297 1_545 S
Cd253 O257 2.439 1_545 S
Cd253 O263 2.240 . S
Cd254 O255 2.240 . S
Cd254 O262 2.223 . S
Cd254 O264 2.297 . S
Cd254 O265 2.439 . S
O255 Cd254 2.240 . S
O255 C260 1.279 . S
O256 Cd253 2.297 1_565 S
O256 C258 1.247 . S
O257 Cd253 2.439 1_565 S
O257 C258 1.208 . S
C258 O256 1.247 . S
C258 O257 1.208 . S
C259 O264 1.247 . S
C259 O265 1.208 . S
C260 O252 1.315 . S
C260 O255 1.279 . S
C261 O262 1.315 . S
C261 O263 1.279 . S
O262 Cd254 2.223 . S
O262 C261 1.315 . S
O263 Cd253 2.240 . S
O263 C261 1.279 . S
O264 Cd254 2.297 . S
O264 C259 1.247 . S
O265 Cd254 2.439 . S
O265 C259 1.208 . S
O266 Cd267 2.223 . S
O266 C274 1.315 . S
Cd267 O266 2.223 . S
Cd267 O270 2.297 . S
Cd267 O271 2.439 . S
Cd267 O277 2.240 . S
Cd268 O269 2.240 . S
Cd268 O276 2.223 . S
Cd268 O278 2.297 1_554 S
Cd268 O279 2.439 1_554 S
O269 Cd268 2.240 . S
O269 C274 1.279 . S
O270 Cd267 2.297 . S
O270 C272 1.247 . S
O271 Cd267 2.439 . S
O271 C272 1.208 . S
C272 O270 1.247 . S
C272 O271 1.208 . S
C273 O278 1.247 . S
C273 O279 1.208 . S
C274 O266 1.315 . S
C274 O269 1.279 . S
C275 O276 1.315 . S
C275 O277 1.279 . S
O276 Cd268 2.223 . S
O276 C275 1.315 . S
O277 Cd267 2.240 . S
O277 C275 1.279 . S
O278 Cd268 2.297 1_556 S
O278 C273 1.247 . S
O279 Cd268 2.439 1_556 S
O279 C273 1.208 . S
O280 Cd281 2.223 . S
O280 C288 1.315 . S
Cd281 O280 2.223 . S
Cd281 O284 2.297 . S
Cd281 O285 2.439 1_554 S
Cd281 O291 2.240 1_554 S
Cd282 O283 2.240 1_556 S
Cd282 O290 2.223 1_556 S
Cd282 O292 2.297 . S
Cd282 O293 2.439 . S
O283 Cd282 2.240 1_554 S
O283 C288 1.279 . S
O284 Cd281 2.297 . S
O284 C286 1.247 . S
O285 Cd281 2.439 1_556 S
O285 C286 1.208 1_556 S
C286 O284 1.247 . S
C286 O285 1.208 1_554 S
C287 O292 1.247 . S
C287 O293 1.208 . S
C288 O280 1.315 . S
C288 O283 1.279 . S
C289 O290 1.315 . S
C289 O291 1.279 1_554 S
O290 Cd282 2.223 1_554 S
O290 C289 1.315 . S
O291 Cd281 2.240 1_556 S
O291 C289 1.279 1_556 S
O292 Cd282 2.297 . S
O292 C287 1.247 . S
O293 Cd282 2.439 . S
O293 C287 1.208 . S
O294 Cd295 2.223 . S
O294 C302 1.315 . S
Cd295 O294 2.223 . S
Cd295 O298 2.297 . S
Cd295 O299 2.439 . S
Cd295 O305 2.240 . S
Cd296 O297 2.240 . S
Cd296 O304 2.223 . S
Cd296 O306 2.297 . S
Cd296 O307 2.439 . S
O297 Cd296 2.240 . S
O297 C302 1.279 . S
O298 Cd295 2.297 . S
O298 C300 1.247 . S
O299 Cd295 2.439 . S
O299 C300 1.208 . S
C300 O298 1.247 . S
C300 O299 1.208 . S
C301 O306 1.247 . S
C301 O307 1.208 . S
C302 O294 1.315 . S
C302 O297 1.279 . S
C303 O304 1.315 . S
C303 O305 1.279 . S
O304 Cd296 2.223 . S
O304 C303 1.315 . S
O305 Cd295 2.240 . S
O305 C303 1.279 . S
O306 Cd296 2.297 . S
O306 C301 1.247 . S
O307 Cd296 2.439 . S
O307 C301 1.208 . S
O308 Cd309 2.223 . S
O308 C316 1.315 . S
Cd309 O308 2.223 . S
Cd309 O312 2.297 . S
Cd309 O313 2.439 . S
Cd309 O319 2.240 . S
Cd310 O311 2.240 . S
Cd310 O318 2.223 . S
Cd310 O320 2.297 . S
Cd310 O321 2.439 . S
O311 Cd310 2.240 . S
O311 C316 1.279 . S
O312 Cd309 2.297 . S
O312 C314 1.247 . S
O313 Cd309 2.439 . S
O313 C314 1.208 . S
C314 O312 1.247 . S
C314 O313 1.208 . S
C315 O320 1.247 . S
C315 O321 1.208 . S
C316 O308 1.315 . S
C316 O311 1.279 . S
C317 O318 1.315 . S
C317 O319 1.279 . S
O318 Cd310 2.223 . S
O318 C317 1.315 . S
O319 Cd309 2.240 . S
O319 C317 1.279 . S
O320 Cd310 2.297 . S
O320 C315 1.247 . S
O321 Cd310 2.439 . S
O321 C315 1.208 . S
O322 Cd323 2.223 . S
O322 C330 1.315 . S
Cd323 O322 2.223 . S
Cd323 O326 2.297 . S
Cd323 O327 2.439 . S
Cd323 O333 2.240 . S
Cd324 O325 2.240 . S
Cd324 O332 2.223 . S
Cd324 O334 2.297 . S
Cd324 O335 2.439 . S
O325 Cd324 2.240 . S
O325 C330 1.279 . S
O326 Cd323 2.297 . S
O326 C328 1.247 . S
O327 Cd323 2.439 . S
O327 C328 1.208 . S
C328 O326 1.247 . S
C328 O327 1.208 . S
C329 O334 1.247 . S
C329 O335 1.208 . S
C330 O322 1.315 . S
C330 O325 1.279 . S
C331 O332 1.315 . S
C331 O333 1.279 . S
O332 Cd324 2.223 . S
O332 C331 1.315 . S
O333 Cd323 2.240 . S
O333 C331 1.279 . S
O334 Cd324 2.297 . S
O334 C329 1.247 . S
O335 Cd324 2.439 . S
O335 C329 1.208 . S
C336 O352 1.251 1_556 S
C336 O354 1.254 . S
N337 C338 1.333 . S
N337 C342 1.307 . S
N337 Zn343 2.020 1_655 S
C338 N337 1.333 . S
C338 C339 1.379 . S
C338 H356 0.952 1_565 S
C339 C338 1.379 . S
C339 C340 1.390 . S
C339 H366 0.949 1_565 S
C340 C339 1.390 . S
C340 C341 1.357 . S
C341 C340 1.357 . S
C341 C342 1.370 . S
C341 H367 0.950 . S
C342 N337 1.307 . S
C342 C341 1.370 . S
C342 H360 0.948 . S
Zn343 N337 2.020 1_455 S
Zn343 O352 2.039 1_565 S
Zn343 O358 2.034 1_565 S
Zn343 O362 2.025 . S
Zn343 O364 2.024 . S
C344 O363 1.246 . S
C344 O364 1.249 . S
N345 C346 1.307 . S
N345 C347 1.333 . S
N345 Zn351 2.020 . S
C346 N345 1.307 . S
C346 C350 1.370 1_554 S
C346 H357 0.948 1_554 S
C347 N345 1.333 . S
C347 C348 1.379 . S
C347 H355 0.952 1_545 S
C348 C347 1.379 . S
C348 C349 1.390 . S
C348 H368 0.949 . S
C349 C348 1.390 . S
C349 C350 1.357 1_554 S
C350 C346 1.370 1_556 S
C350 C349 1.357 1_556 S
C350 H369 0.950 . S
Zn351 N345 2.020 . S
Zn351 O354 2.025 1_554 S
Zn351 O359 2.024 . S
Zn351 O361 2.029 1_545 S
Zn351 O363 2.034 1_545 S
O352 C336 1.251 1_554 S
O352 Zn343 2.039 1_545 S
C353 O358 1.246 . S
C353 O359 1.249 . S
O354 C336 1.254 . S
O354 Zn351 2.025 1_556 S
H355 C347 0.952 1_565 S
H356 C338 0.952 1_545 S
H357 C346 0.948 1_556 S
O358 Zn343 2.034 1_545 S
O358 C353 1.246 . S
O359 Zn351 2.024 . S
O359 C353 1.249 . S
H360 C342 0.948 . S
O361 Zn351 2.029 1_565 S
O361 C365 1.261 . S
O362 Zn343 2.025 . S
O362 C365 1.254 . S
O363 C344 1.246 . S
O363 Zn351 2.034 1_565 S
O364 Zn343 2.024 . S
O364 C344 1.249 . S
C365 O361 1.261 . S
C365 O362 1.254 . S
H366 C339 0.949 1_545 S
H367 C341 0.950 . S
H368 C348 0.949 . S
H369 C350 0.950 . S
C370 O386 1.251 . S
C370 O388 1.254 . S
N371 C372 1.333 . S
N371 C376 1.307 . S
N371 Zn377 2.020 . S
C372 N371 1.333 . S
C372 C373 1.379 . S
C372 H390 0.952 . S
C373 C372 1.379 . S
C373 C374 1.390 . S
C373 H400 0.949 . S
C374 C373 1.390 . S
C374 C375 1.357 . S
C375 C374 1.357 . S
C375 C376 1.370 . S
C375 H401 0.950 . S
C376 N371 1.307 . S
C376 C375 1.370 . S
C376 H394 0.948 . S
Zn377 N371 2.020 . S
Zn377 O386 2.039 . S
Zn377 O392 2.034 . S
Zn377 O396 2.025 . S
Zn377 O398 2.024 . S
C378 O397 1.246 . S
C378 O398 1.249 . S
N379 C380 1.307 . S
N379 C381 1.333 . S
N379 Zn385 2.020 . S
C380 N379 1.307 . S
C380 C384 1.370 . S
C380 H391 0.948 . S
C381 N379 1.333 . S
C381 C382 1.379 . S
C381 H389 0.952 . S
C382 C381 1.379 . S
C382 C383 1.390 . S
C382 H402 0.949 . S
C383 C382 1.390 . S
C383 C384 1.357 . S
C384 C380 1.370 . S
C384 C383 1.357 . S
C384 H403 0.950 . S
Zn385 N379 2.020 . S
Zn385 O388 2.025 . S
Zn385 O393 2.024 . S
Zn385 O395 2.039 . S
Zn385 O397 2.034 . S
O386 C370 1.251 . S
O386 Zn377 2.039 . S
C387 O392 1.246 . S
C387 O393 1.249 . S
O388 C370 1.254 . S
O388 Zn385 2.025 . S
H389 C381 0.952 . S
H390 C372 0.952 . S
H391 C380 0.948 . S
O392 Zn377 2.034 . S
O392 C387 1.246 . S
O393 Zn385 2.024 . S
O393 C387 1.249 . S
H394 C376 0.948 . S
O395 Zn385 2.039 . S
O395 C399 1.251 . S
O396 Zn377 2.025 . S
O396 C399 1.254 . S
O397 C378 1.246 . S
O397 Zn385 2.034 . S
O398 Zn377 2.024 . S
O398 C378 1.249 . S
C399 O395 1.251 . S
C399 O396 1.254 . S
H400 C373 0.949 . S
H401 C375 0.950 . S
H402 C382 0.949 . S
H403 C384 0.950 . S
C404 O420 1.251 . S
C404 O422 1.254 . S
N405 C406 1.333 . S
N405 C410 1.307 . S
N405 Zn411 2.020 . S
C406 N405 1.333 . S
C406 C407 1.379 . S
C406 H424 0.952 . S
C407 C406 1.379 . S
C407 C408 1.390 . S
C407 H434 0.949 . S
C408 C407 1.390 . S
C408 C409 1.357 . S
C409 C408 1.357 . S
C409 C410 1.370 . S
C409 H435 0.950 . S
C410 N405 1.307 . S
C410 C409 1.370 . S
C410 H428 0.948 . S
Zn411 N405 2.020 . S
Zn411 O420 2.039 1_565 S
Zn411 O426 2.034 1_565 S
Zn411 O430 2.025 . S
Zn411 O432 2.024 . S
C412 O431 1.246 . S
C412 O432 1.249 1_545 S
N413 C414 1.307 . S
N413 C415 1.333 . S
N413 Zn419 2.020 . S
C414 N413 1.307 . S
C414 C418 1.370 . S
C414 H425 0.948 . S
C415 N413 1.333 . S
C415 C416 1.379 . S
C415 H423 0.952 . S
C416 C415 1.379 . S
C416 C417 1.390 . S
C416 H436 0.949 . S
C417 C416 1.390 . S
C417 C418 1.357 . S
C418 C414 1.370 . S
C418 C417 1.357 . S
C418 H437 0.950 . S
Zn419 N413 2.020 . S
Zn419 O422 2.025 . S
Zn419 O427 2.024 . S
Zn419 O429 2.039 . S
Zn419 O431 2.034 . S
O420 C404 1.251 . S
O420 Zn411 2.039 1_545 S
C421 O426 1.246 . S
C421 O427 1.249 . S
O422 C404 1.254 . S
O422 Zn419 2.025 . S
H423 C415 0.952 . S
H424 C406 0.952 . S
H425 C414 0.948 . S
O426 Zn411 2.034 1_545 S
O426 C421 1.246 . S
O427 Zn419 2.024 . S
O427 C421 1.249 . S
H428 C410 0.948 . S
O429 Zn419 2.039 . S
O429 C433 1.251 . S
O430 Zn411 2.025 . S
O430 C433 1.254 1_565 S
O431 C412 1.246 . S
O431 Zn419 2.034 . S
O432 Zn411 2.024 . S
O432 C412 1.249 1_565 S
C433 O429 1.251 . S
C433 O430 1.254 1_545 S
H434 C407 0.949 . S
H435 C409 0.950 . S
H436 C416 0.949 . S
H437 C418 0.950 . S
C438 O454 1.251 . S
C438 O456 1.254 . S
N439 C440 1.333 . S
N439 C444 1.307 . S
N439 Zn445 2.020 . S
C440 N439 1.333 . S
C440 C441 1.379 . S
C440 H458 0.952 . S
C441 C440 1.379 . S
C441 C442 1.390 . S
C441 H468 0.949 . S
C442 C441 1.390 . S
C442 C443 1.357 . S
C443 C442 1.357 . S
C443 C444 1.370 . S
C443 H469 0.950 . S
C444 N439 1.307 . S
C444 C443 1.370 . S
C444 H462 0.948 . S
Zn445 N439 2.020 . S
Zn445 O454 2.039 . S
Zn445 O460 2.034 . S
Zn445 O464 2.025 . S
Zn445 O466 2.024 . S
C446 O465 1.246 . S
C446 O466 1.249 . S
N447 C448 1.307 . S
N447 C449 1.333 . S
N447 Zn453 2.020 . S
C448 N447 1.307 . S
C448 C452 1.370 . S
C448 H459 0.948 . S
C449 N447 1.333 . S
C449 C450 1.379 . S
C449 H457 0.952 . S
C450 C449 1.379 . S
C450 C451 1.390 . S
C450 H470 0.949 . S
C451 C450 1.390 . S
C451 C452 1.357 . S
C452 C448 1.370 . S
C452 C451 1.357 . S
C452 H471 0.950 . S
Zn453 N447 2.020 . S
Zn453 O456 2.025 . S
Zn453 O461 2.024 . S
Zn453 O463 2.039 . S
Zn453 O465 2.034 . S
O454 C438 1.251 . S
O454 Zn445 2.039 . S
C455 O460 1.246 . S
C455 O461 1.249 . S
O456 C438 1.254 . S
O456 Zn453 2.025 . S
H457 C449 0.952 . S
H458 C440 0.952 . S
H459 C448 0.948 . S
O460 Zn445 2.034 . S
O460 C455 1.246 . S
O461 Zn453 2.024 . S
O461 C455 1.249 . S
H462 C444 0.948 . S
O463 Zn453 2.039 . S
O463 C467 1.251 . S
O464 Zn445 2.025 . S
O464 C467 1.254 . S
O465 C446 1.246 . S
O465 Zn453 2.034 . S
O466 Zn445 2.024 . S
O466 C446 1.249 . S
C467 O463 1.251 . S
C467 O464 1.254 . S
H468 C441 0.949 . S
H469 C443 0.950 . S
H470 C450 0.949 . S
H471 C452 0.950 . S
C472 O488 1.251 . S
C472 O490 1.254 . S
N473 C474 1.333 . S
N473 C478 1.307 . S
N473 Zn479 2.020 . S
C474 N473 1.333 . S
C474 C475 1.379 . S
C474 H492 0.952 . S
C475 C474 1.379 . S
C475 C476 1.390 . S
C475 H502 0.949 . S
C476 C475 1.390 . S
C476 C477 1.357 . S
C477 C476 1.357 . S
C477 C478 1.370 . S
C477 H503 0.950 . S
C478 N473 1.307 . S
C478 C477 1.370 . S
C478 H496 0.948 . S
Zn479 N473 2.020 . S
Zn479 O488 2.039 . S
Zn479 O494 2.034 . S
Zn479 O498 2.025 . S
Zn479 O500 2.024 1_545 S
C480 O499 1.246 . S
C480 O500 1.249 . S
N481 C482 1.307 . S
N481 C483 1.333 1_455 S
N481 Zn487 2.020 1_565 S
C482 N481 1.307 . S
C482 C486 1.370 . S
C482 H493 0.948 1_565 S
C483 N481 1.333 1_655 S
C483 C484 1.379 . S
C483 H491 0.952 . S
C484 C483 1.379 . S
C484 C485 1.390 . S
C484 H504 0.949 . S
C485 C484 1.390 . S
C485 C486 1.357 1_655 S
C486 C482 1.370 . S
C486 C485 1.357 1_455 S
C486 H505 0.950 . S
Zn487 N481 2.020 1_545 S
Zn487 O490 2.025 . S
Zn487 O495 2.024 . S
Zn487 O497 2.039 1_455 S
Zn487 O499 2.034 1_545 S
O488 C472 1.251 . S
O488 Zn479 2.039 . S
C489 O494 1.246 . S
C489 O495 1.249 . S
O490 C472 1.254 . S
O490 Zn487 2.025 . S
H491 C483 0.952 . S
H492 C474 0.952 . S
H493 C482 0.948 1_545 S
O494 Zn479 2.034 . S
O494 C489 1.246 . S
O495 Zn487 2.024 . S
O495 C489 1.249 . S
H496 C478 0.948 . S
O497 Zn487 2.039 1_655 S
O497 C501 1.251 . S
O498 Zn479 2.025 . S
O498 C501 1.254 1_455 S
O499 C480 1.246 . S
O499 Zn487 2.034 1_565 S
O500 Zn479 2.024 1_565 S
O500 C480 1.249 . S
C501 O497 1.251 . S
C501 O498 1.254 1_655 S
H502 C475 0.949 . S
H503 C477 0.950 . S
H504 C484 0.949 . S
H505 C486 0.950 . S
C506 O522 1.251 . S
C506 O524 1.254 . S
N507 C508 1.333 . S
N507 C512 1.307 . S
N507 Zn513 2.020 . S
C508 N507 1.333 . S
C508 C509 1.379 . S
C508 H526 0.952 . S
C509 C508 1.379 . S
C509 C510 1.390 . S
C509 H536 0.949 . S
C510 C509 1.390 . S
C510 C511 1.357 . S
C511 C510 1.357 . S
C511 C512 1.370 . S
C511 H537 0.950 . S
C512 N507 1.307 . S
C512 C511 1.370 . S
C512 H530 0.948 . S
Zn513 N507 2.020 . S
Zn513 O522 2.039 . S
Zn513 O528 2.034 . S
Zn513 O532 2.025 . S
Zn513 O534 2.024 . S
C514 O533 1.246 . S
C514 O534 1.249 . S
N515 C516 1.307 . S
N515 C517 1.333 . S
N515 Zn521 2.020 . S
C516 N515 1.307 . S
C516 C520 1.370 . S
C516 H527 0.948 . S
C517 N515 1.333 . S
C517 C518 1.379 . S
C517 H525 0.952 . S
C518 C517 1.379 . S
C518 C519 1.390 . S
C518 H538 0.949 . S
C519 C518 1.390 . S
C519 C520 1.357 . S
C520 C516 1.370 . S
C520 C519 1.357 . S
C520 H539 0.950 . S
Zn521 N515 2.020 . S
Zn521 O524 2.025 . S
Zn521 O529 2.024 . S
Zn521 O531 2.039 . S
Zn521 O533 2.034 . S
O522 C506 1.251 . S
O522 Zn513 2.039 . S
C523 O528 1.246 . S
C523 O529 1.249 . S
O524 C506 1.254 . S
O524 Zn521 2.025 . S
H525 C517 0.952 . S
H526 C508 0.952 . S
H527 C516 0.948 . S
O528 Zn513 2.034 . S
O528 C523 1.246 . S
O529 Zn521 2.024 . S
O529 C523 1.249 . S
H530 C512 0.948 . S
O531 Zn521 2.039 . S
O531 C535 1.251 . S
O532 Zn513 2.025 . S
O532 C535 1.254 . S
O533 C514 1.246 . S
O533 Zn521 2.034 . S
O534 Zn513 2.024 . S
O534 C514 1.249 . S
C535 O531 1.251 . S
C535 O532 1.254 . S
H536 C509 0.949 . S
H537 C511 0.950 . S
H538 C518 0.949 . S
H539 C520 0.950 . S
C540 O556 1.251 . S
C540 O558 1.254 . S
N541 C542 1.333 . S
N541 C546 1.307 . S
N541 Zn547 2.020 . S
C542 N541 1.333 . S
C542 C543 1.379 . S
C542 H560 0.952 . S
C543 C542 1.379 . S
C543 C544 1.390 . S
C543 H570 0.949 . S
C544 C543 1.390 . S
C544 C545 1.357 . S
C545 C544 1.357 . S
C545 C546 1.370 . S
C545 H571 0.950 . S
C546 N541 1.307 . S
C546 C545 1.370 . S
C546 H564 0.948 . S
Zn547 N541 2.020 . S
Zn547 O556 2.039 1_545 S
Zn547 O562 2.034 . S
Zn547 O566 2.025 . S
Zn547 O568 2.024 . S
C548 O567 1.246 . S
C548 O568 1.249 . S
N549 C550 1.307 1_545 S
N549 C551 1.333 . S
N549 Zn555 2.020 1_556 S
C550 N549 1.307 1_565 S
C550 C554 1.370 . S
C550 H561 0.948 . S
C551 N549 1.333 . S
C551 C552 1.379 . S
C551 H559 0.952 . S
C552 C551 1.379 . S
C552 C553 1.390 1_545 S
C552 H572 0.949 . S
C553 C552 1.390 1_565 S
C553 C554 1.357 . S
C554 C550 1.370 . S
C554 C553 1.357 . S
C554 H573 0.950 . S
Zn555 N549 2.020 1_554 S
Zn555 O558 2.025 1_545 S
Zn555 O563 2.024 . S
Zn555 O565 2.039 . S
Zn555 O567 2.034 . S
O556 C540 1.251 . S
O556 Zn547 2.039 1_565 S
C557 O562 1.246 . S
C557 O563 1.249 . S
O558 C540 1.254 . S
O558 Zn555 2.025 1_565 S
H559 C551 0.952 . S
H560 C542 0.952 . S
H561 C550 0.948 . S
O562 Zn547 2.034 . S
O562 C557 1.246 . S
O563 Zn555 2.024 . S
O563 C557 1.249 . S
H564 C546 0.948 . S
O565 Zn555 2.039 . S
O565 C569 1.251 . S
O566 Zn547 2.025 . S
O566 C569 1.254 . S
O567 C548 1.246 . S
O567 Zn555 2.034 . S
O568 Zn547 2.024 . S
O568 C548 1.249 . S
C569 O565 1.251 . S
C569 O566 1.254 . S
H570 C543 0.949 . S
H571 C545 0.950 . S
H572 C552 0.949 . S
H573 C554 0.950 . S
C574 O590 1.251 . S
C574 O592 1.254 . S
N575 C576 1.333 . S
N575 C580 1.307 . S
N575 Zn581 2.020 . S
C576 N575 1.333 . S
C576 C577 1.379 . S
C576 H594 0.952 . S
C577 C576 1.379 . S
C577 C578 1.390 . S
C577 H604 0.949 . S
C578 C577 1.390 . S
C578 C579 1.357 . S
C579 C578 1.357 . S
C579 C580 1.370 . S
C579 H605 0.950 . S
C580 N575 1.307 . S
C580 C579 1.370 . S
C580 H598 0.948 . S
Zn581 N575 2.020 . S
Zn581 O590 2.039 . S
Zn581 O596 2.034 . S
Zn581 O600 2.025 . S
Zn581 O602 2.024 . S
C582 O601 1.246 . S
C582 O602 1.249 . S
N583 C584 1.307 . S
N583 C585 1.333 . S
N583 Zn589 2.020 . S
C584 N583 1.307 . S
C584 C588 1.370 . S
C584 H595 0.948 . S
C585 N583 1.333 . S
C585 C586 1.379 . S
C585 H593 0.952 . S
C586 C585 1.379 . S
C586 C587 1.390 . S
C586 H606 0.949 . S
C587 C586 1.390 . S
C587 C588 1.357 . S
C588 C584 1.370 . S
C588 C587 1.357 . S
C588 H607 0.950 . S
Zn589 N583 2.020 . S
Zn589 O592 2.025 . S
Zn589 O597 2.024 . S
Zn589 O599 2.039 . S
Zn589 O601 2.034 . S
O590 C574 1.251 . S
O590 Zn581 2.039 . S
C591 O596 1.246 . S
C591 O597 1.249 . S
O592 C574 1.254 . S
O592 Zn589 2.025 . S
H593 C585 0.952 . S
H594 C576 0.952 . S
H595 C584 0.948 . S
O596 Zn581 2.034 . S
O596 C591 1.246 . S
O597 Zn589 2.024 . S
O597 C591 1.249 . S
H598 C580 0.948 . S
O599 Zn589 2.039 . S
O599 C603 1.251 . S
O600 Zn581 2.025 . S
O600 C603 1.254 . S
O601 C582 1.246 . S
O601 Zn589 2.034 . S
O602 Zn581 2.024 . S
O602 C582 1.249 . S
C603 O599 1.251 . S
C603 O600 1.254 . S
H604 C577 0.949 . S
H605 C579 0.950 . S
H606 C586 0.949 . S
H607 C588 0.950 . S
C608 O624 1.251 . S
C608 O626 1.254 . S
N609 C610 1.333 . S
N609 C614 1.307 . S
N609 Zn615 2.020 1_556 S
C610 N609 1.333 . S
C610 C611 1.379 . S
C610 H628 0.952 . S
C611 C610 1.379 . S
C611 C612 1.390 . S
C611 H638 0.949 . S
C612 C611 1.390 . S
C612 C613 1.357 . S
C613 C612 1.357 . S
C613 C614 1.370 . S
C613 H639 0.950 . S
C614 N609 1.307 . S
C614 C613 1.370 . S
C614 H632 0.948 . S
Zn615 N609 2.020 1_554 S
Zn615 O624 2.039 . S
Zn615 O630 2.034 . S
Zn615 O634 2.025 . S
Zn615 O636 2.024 . S
C616 O635 1.246 . S
C616 O636 1.249 . S
N617 C618 1.307 . S
N617 C619 1.333 . S
N617 Zn623 2.020 . S
C618 N617 1.307 . S
C618 C622 1.370 . S
C618 H629 0.948 . S
C619 N617 1.333 . S
C619 C620 1.379 . S
C619 H627 0.952 . S
C620 C619 1.379 . S
C620 C621 1.390 . S
C620 H640 0.949 . S
C621 C620 1.390 . S
C621 C622 1.357 . S
C622 C618 1.370 . S
C622 C621 1.357 . S
C622 H641 0.950 . S
Zn623 N617 2.020 . S
Zn623 O626 2.025 . S
Zn623 O631 2.024 . S
Zn623 O633 2.039 . S
Zn623 O635 2.034 . S
O624 C608 1.251 . S
O624 Zn615 2.039 . S
C625 O630 1.246 . S
C625 O631 1.249 . S
O626 C608 1.254 . S
O626 Zn623 2.025 . S
H627 C619 0.952 . S
H628 C610 0.952 . S
H629 C618 0.948 . S
O630 Zn615 2.034 . S
O630 C625 1.246 . S
O631 Zn623 2.024 . S
O631 C625 1.249 . S
H632 C614 0.948 . S
O633 Zn623 2.039 . S
O633 C637 1.251 . S
O634 Zn615 2.025 . S
O634 C637 1.254 . S
O635 C616 1.246 . S
O635 Zn623 2.034 . S
O636 Zn615 2.024 . S
O636 C616 1.249 . S
C637 O633 1.251 . S
C637 O634 1.254 . S
H638 C611 0.949 . S
H639 C613 0.950 . S
H640 C620 0.949 . S
H641 C622 0.950 . S
C642 O658 1.251 . S
C642 O660 1.254 . S
N643 C644 1.333 . S
N643 C648 1.307 . S
N643 Zn649 2.020 . S
C644 N643 1.333 . S
C644 C645 1.379 . S
C644 H662 0.952 . S
C645 C644 1.379 . S
C645 C646 1.390 . S
C645 H672 0.949 . S
C646 C645 1.390 . S
C646 C647 1.357 . S
C647 C646 1.357 . S
C647 C648 1.370 . S
C647 H673 0.950 . S
C648 N643 1.307 . S
C648 C647 1.370 . S
C648 H666 0.948 . S
Zn649 N643 2.020 . S
Zn649 O658 2.039 . S
Zn649 O664 2.034 . S
Zn649 O668 2.025 . S
Zn649 O670 2.024 . S
C650 O669 1.246 . S
C650 O670 1.249 . S
N651 C652 1.307 . S
N651 C653 1.333 . S
N651 Zn657 2.020 . S
C652 N651 1.307 . S
C652 C656 1.370 . S
C652 H663 0.948 . S
C653 N651 1.333 . S
C653 C654 1.379 . S
C653 H661 0.952 . S
C654 C653 1.379 . S
C654 C655 1.390 . S
C654 H674 0.949 . S
C655 C654 1.390 . S
C655 C656 1.357 . S
C656 C652 1.370 . S
C656 C655 1.357 . S
C656 H675 0.950 . S
Zn657 N651 2.020 . S
Zn657 O660 2.025 . S
Zn657 O665 2.024 . S
Zn657 O667 2.039 . S
Zn657 O669 2.034 . S
O658 C642 1.251 . S
O658 Zn649 2.039 . S
C659 O664 1.246 . S
C659 O665 1.249 . S
O660 C642 1.254 . S
O660 Zn657 2.025 . S
H661 C653 0.952 . S
H662 C644 0.952 . S
H663 C652 0.948 . S
O664 Zn649 2.034 . S
O664 C659 1.246 . S
O665 Zn657 2.024 . S
O665 C659 1.249 . S
H666 C648 0.948 . S
O667 Zn657 2.039 . S
O667 C671 1.251 . S
O668 Zn649 2.025 . S
O668 C671 1.254 . S
O669 C650 1.246 . S
O669 Zn657 2.034 . S
O670 Zn649 2.024 . S
O670 C650 1.249 . S
C671 O667 1.251 . S
C671 O668 1.254 . S
H672 C645 0.949 . S
H673 C647 0.950 . S
H674 C654 0.949 . S
H675 C656 0.950 . S
C676 O692 1.251 . S
C676 O694 1.254 . S
N677 C678 1.333 . S
N677 C682 1.307 . S
N677 Zn683 2.020 . S
C678 N677 1.333 . S
C678 C679 1.379 . S
C678 H696 0.952 . S
C679 C678 1.379 . S
C679 C680 1.390 . S
C679 H706 0.949 . S
C680 C679 1.390 . S
C680 C681 1.357 . S
C681 C680 1.357 . S
C681 C682 1.370 . S
C681 H707 0.950 . S
C682 N677 1.307 . S
C682 C681 1.370 . S
C682 H700 0.948 . S
Zn683 N677 2.020 . S
Zn683 O692 2.039 . S
Zn683 O698 2.034 . S
Zn683 O702 2.025 . S
Zn683 O704 2.024 . S
C684 O703 1.246 . S
C684 O704 1.249 . S
N685 C686 1.307 1_455 S
N685 C687 1.333 . S
N685 Zn691 2.020 . S
C686 N685 1.307 1_655 S
C686 C690 1.370 . S
C686 H697 0.948 . S
C687 N685 1.333 . S
C687 C688 1.379 . S
C687 H695 0.952 . S
C688 C687 1.379 . S
C688 C689 1.368 1_455 S
C688 H708 0.949 . S
C689 C688 1.368 1_655 S
C689 C690 1.372 . S
C690 C686 1.370 . S
C690 C689 1.372 . S
C690 H709 0.950 . S
Zn691 N685 2.020 . S
Zn691 O694 2.025 . S
Zn691 O699 2.024 1_455 S
Zn691 O701 2.039 . S
Zn691 O703 2.034 . S
O692 C676 1.251 . S
O692 Zn683 2.039 . S
C693 O698 1.246 1_655 S
C693 O699 1.249 . S
O694 C676 1.254 . S
O694 Zn691 2.025 . S
H695 C687 0.952 . S
H696 C678 0.952 . S
H697 C686 0.948 . S
O698 Zn683 2.034 . S
O698 C693 1.246 1_455 S
O699 Zn691 2.024 1_655 S
O699 C693 1.249 . S
H700 C682 0.948 . S
O701 Zn691 2.039 . S
O701 C705 1.251 . S
O702 Zn683 2.025 . S
O702 C705 1.254 . S
O703 C684 1.246 . S
O703 Zn691 2.034 . S
O704 Zn683 2.024 . S
O704 C684 1.249 . S
C705 O701 1.251 . S
C705 O702 1.254 . S
H706 C679 0.949 . S
H707 C681 0.950 . S
H708 C688 0.949 . S
H709 C690 0.950 . S
C710 O726 1.251 . S
C710 O728 1.254 . S
N711 C712 1.333 . S
N711 C716 1.307 . S
N711 Zn717 2.020 . S
C712 N711 1.333 . S
C712 C713 1.379 . S
C712 H730 0.952 . S
C713 C712 1.379 . S
C713 C714 1.390 . S
C713 H740 0.949 . S
C714 C713 1.390 . S
C714 C715 1.357 . S
C715 C714 1.357 . S
C715 C716 1.370 . S
C715 H741 0.950 . S
C716 N711 1.307 . S
C716 C715 1.370 . S
C716 H734 0.948 . S
Zn717 N711 2.020 . S
Zn717 O726 2.039 . S
Zn717 O732 2.034 . S
Zn717 O736 2.025 . S
Zn717 O738 2.024 . S
C718 O737 1.246 . S
C718 O738 1.249 . S
N719 C720 1.307 . S
N719 C721 1.333 . S
N719 Zn725 2.020 . S
C720 N719 1.307 . S
C720 C724 1.370 . S
C720 H731 0.948 . S
C721 N719 1.333 . S
C721 C722 1.379 . S
C721 H729 0.952 . S
C722 C721 1.379 . S
C722 C723 1.390 . S
C722 H742 0.949 . S
C723 C722 1.390 . S
C723 C724 1.357 . S
C724 C720 1.370 . S
C724 C723 1.357 . S
C724 H743 0.950 . S
Zn725 N719 2.020 . S
Zn725 O728 2.025 . S
Zn725 O733 2.024 . S
Zn725 O735 2.039 . S
Zn725 O737 2.034 . S
O726 C710 1.251 . S
O726 Zn717 2.039 . S
C727 O732 1.246 . S
C727 O733 1.249 . S
O728 C710 1.254 . S
O728 Zn725 2.025 . S
H729 C721 0.952 . S
H730 C712 0.952 . S
H731 C720 0.948 . S
O732 Zn717 2.034 . S
O732 C727 1.246 . S
O733 Zn725 2.024 . S
O733 C727 1.249 . S
H734 C716 0.948 . S
O735 Zn725 2.039 . S
O735 C739 1.251 . S
O736 Zn717 2.025 . S
O736 C739 1.254 . S
O737 C718 1.246 . S
O737 Zn725 2.034 . S
O738 Zn717 2.024 . S
O738 C718 1.249 . S
C739 O735 1.251 . S
C739 O736 1.254 . S
H740 C713 0.949 . S
H741 C715 0.950 . S
H742 C722 0.949 . S
H743 C724 0.950 . S
C744 O760 1.251 . S
C744 O762 1.254 . S
N745 C746 1.333 . S
N745 C750 1.307 . S
N745 Zn751 2.020 . S
C746 N745 1.333 . S
C746 C747 1.379 . S
C746 H764 0.952 . S
C747 C746 1.379 . S
C747 C748 1.390 . S
C747 H774 0.949 . S
C748 C747 1.390 . S
C748 C749 1.357 . S
C749 C748 1.357 . S
C749 C750 1.370 . S
C749 H775 0.950 . S
C750 N745 1.307 . S
C750 C749 1.370 . S
C750 H768 0.948 . S
Zn751 N745 2.020 . S
Zn751 O760 2.039 . S
Zn751 O766 2.034 . S
Zn751 O770 2.025 . S
Zn751 O772 2.024 . S
C752 O771 1.246 . S
C752 O772 1.249 . S
N753 C754 1.307 . S
N753 C755 1.333 . S
N753 Zn759 2.020 . S
C754 N753 1.307 . S
C754 C758 1.370 . S
C754 H765 0.948 . S
C755 N753 1.333 . S
C755 C756 1.379 . S
C755 H763 0.952 . S
C756 C755 1.379 . S
C756 C757 1.390 . S
C756 H776 0.949 . S
C757 C756 1.390 . S
C757 C758 1.357 . S
C758 C754 1.370 . S
C758 C757 1.357 . S
C758 H777 0.950 . S
Zn759 N753 2.020 . S
Zn759 O762 2.025 . S
Zn759 O767 2.024 . S
Zn759 O769 2.039 . S
Zn759 O771 2.034 . S
O760 C744 1.251 . S
O760 Zn751 2.039 . S
C761 O766 1.246 . S
C761 O767 1.249 . S
O762 C744 1.254 . S
O762 Zn759 2.025 . S
H763 C755 0.952 . S
H764 C746 0.952 . S
H765 C754 0.948 . S
O766 Zn751 2.034 . S
O766 C761 1.246 . S
O767 Zn759 2.024 . S
O767 C761 1.249 . S
H768 C750 0.948 . S
O769 Zn759 2.039 . S
O769 C773 1.251 . S
O770 Zn751 2.025 . S
O770 C773 1.254 . S
O771 C752 1.246 . S
O771 Zn759 2.034 . S
O772 Zn751 2.024 . S
O772 C752 1.249 . S
C773 O769 1.251 . S
C773 O770 1.254 . S
H774 C747 0.949 . S
H775 C749 0.950 . S
H776 C756 0.949 . S
H777 C758 0.950 . S
C778 O794 1.251 . S
C778 O796 1.254 . S
N779 C780 1.333 . S
N779 C784 1.307 . S
N779 Zn785 2.020 . S
C780 N779 1.333 . S
C780 C781 1.379 . S
C780 H798 0.952 . S
C781 C780 1.379 . S
C781 C782 1.390 . S
C781 H808 0.949 . S
C782 C781 1.390 . S
C782 C783 1.357 . S
C783 C782 1.357 . S
C783 C784 1.370 . S
C783 H809 0.950 . S
C784 N779 1.307 . S
C784 C783 1.370 . S
C784 H802 0.948 . S
Zn785 N779 2.020 . S
Zn785 O794 2.039 . S
Zn785 O800 2.034 . S
Zn785 O804 2.025 . S
Zn785 O806 2.024 . S
C786 O805 1.246 . S
C786 O806 1.249 . S
N787 C788 1.307 . S
N787 C789 1.333 . S
N787 Zn793 2.020 . S
C788 N787 1.307 . S
C788 C792 1.370 . S
C788 H799 0.948 . S
C789 N787 1.333 . S
C789 C790 1.379 . S
C789 H797 0.952 . S
C790 C789 1.379 . S
C790 C791 1.390 . S
C790 H810 0.949 . S
C791 C790 1.390 . S
C791 C792 1.357 . S
C792 C788 1.370 . S
C792 C791 1.357 . S
C792 H811 0.950 . S
Zn793 N787 2.020 . S
Zn793 O796 2.025 . S
Zn793 O801 2.024 . S
Zn793 O803 2.039 . S
Zn793 O805 2.034 . S
O794 C778 1.251 . S
O794 Zn785 2.039 . S
C795 O800 1.246 . S
C795 O801 1.249 . S
O796 C778 1.254 . S
O796 Zn793 2.025 . S
H797 C789 0.952 . S
H798 C780 0.952 . S
H799 C788 0.948 . S
O800 Zn785 2.034 . S
O800 C795 1.246 . S
O801 Zn793 2.024 . S
O801 C795 1.249 . S
H802 C784 0.948 . S
O803 Zn793 2.039 . S
O803 C807 1.251 . S
O804 Zn785 2.025 . S
O804 C807 1.254 . S
O805 C786 1.246 . S
O805 Zn793 2.034 . S
O806 Zn785 2.024 . S
O806 C786 1.249 . S
C807 O803 1.251 . S
C807 O804 1.254 . S
H808 C781 0.949 . S
H809 C783 0.950 . S
H810 C790 0.949 . S
H811 C792 0.950 . S
C812 O828 1.251 . S
C812 O830 1.254 . S
N813 C814 1.333 . S
N813 C818 1.307 . S
N813 Zn819 2.020 . S
C814 N813 1.333 . S
C814 C815 1.379 . S
C814 H832 0.952 . S
C815 C814 1.379 . S
C815 C816 1.390 . S
C815 H842 0.949 . S
C816 C815 1.390 . S
C816 C817 1.357 . S
C817 C816 1.357 . S
C817 C818 1.370 . S
C817 H843 0.950 . S
C818 N813 1.307 . S
C818 C817 1.370 . S
C818 H836 0.948 . S
Zn819 N813 2.020 . S
Zn819 O828 2.039 . S
Zn819 O834 2.034 . S
Zn819 O838 2.025 . S
Zn819 O840 2.024 . S
C820 O839 1.246 . S
C820 O840 1.249 . S
N821 C822 1.307 . S
N821 C823 1.333 . S
N821 Zn827 2.020 . S
C822 N821 1.307 . S
C822 C826 1.370 . S
C822 H833 0.948 . S
C823 N821 1.333 . S
C823 C824 1.379 . S
C823 H831 0.952 . S
C824 C823 1.379 . S
C824 C825 1.390 . S
C824 H844 0.949 . S
C825 C824 1.390 . S
C825 C826 1.357 . S
C826 C822 1.370 . S
C826 C825 1.357 . S
C826 H845 0.950 . S
Zn827 N821 2.020 . S
Zn827 O830 2.025 . S
Zn827 O835 2.024 . S
Zn827 O837 2.039 . S
Zn827 O839 2.034 . S
O828 C812 1.251 . S
O828 Zn819 2.039 . S
C829 O834 1.246 . S
C829 O835 1.249 . S
O830 C812 1.254 . S
O830 Zn827 2.025 . S
H831 C823 0.952 . S
H832 C814 0.952 . S
H833 C822 0.948 . S
O834 Zn819 2.034 . S
O834 C829 1.246 . S
O835 Zn827 2.024 . S
O835 C829 1.249 . S
H836 C818 0.948 . S
O837 Zn827 2.039 . S
O837 C841 1.251 . S
O838 Zn819 2.025 . S
O838 C841 1.254 . S
O839 C820 1.246 . S
O839 Zn827 2.034 . S
O840 Zn819 2.024 . S
O840 C820 1.249 . S
C841 O837 1.251 . S
C841 O838 1.254 . S
H842 C815 0.949 . S
H843 C817 0.950 . S
H844 C824 0.949 . S
H845 C826 0.950 . S
C846 O862 1.251 . S
C846 O864 1.254 . S
N847 C848 1.333 . S
N847 C852 1.307 . S
N847 Zn853 2.020 . S
C848 N847 1.333 . S
C848 C849 1.379 . S
C848 H866 0.952 . S
C849 C848 1.379 . S
C849 C850 1.390 . S
C849 H876 0.949 . S
C850 C849 1.390 . S
C850 C851 1.357 . S
C851 C850 1.357 . S
C851 C852 1.370 . S
C851 H877 0.950 . S
C852 N847 1.307 . S
C852 C851 1.370 . S
C852 H870 0.948 . S
Zn853 N847 2.020 . S
Zn853 O862 2.039 . S
Zn853 O868 2.034 . S
Zn853 O872 2.025 . S
Zn853 O874 2.024 . S
C854 O873 1.239 1_655 S
C854 O874 1.249 1_655 S
N855 C856 1.307 . S
N855 C857 1.333 1_554 S
N855 Zn861 2.020 . S
C856 N855 1.307 . S
C856 C860 1.370 . S
C856 H867 0.948 . S
C857 N855 1.333 1_556 S
C857 C858 1.379 . S
C857 H865 0.952 . S
C858 C857 1.379 . S
C858 C859 1.390 . S
C858 H878 0.949 . S
C859 C858 1.390 . S
C859 C860 1.357 1_556 S
C860 C856 1.370 . S
C860 C859 1.357 1_554 S
C860 H879 0.950 . S
Zn861 N855 2.020 . S
Zn861 O864 2.025 . S
Zn861 O869 2.024 . S
Zn861 O871 2.039 1_554 S
Zn861 O873 2.064 . S
O862 C846 1.251 . S
O862 Zn853 2.039 . S
C863 O868 1.246 . S
C863 O869 1.249 . S
O864 C846 1.254 . S
O864 Zn861 2.025 . S
H865 C857 0.952 . S
H866 C848 0.952 . S
H867 C856 0.948 . S
O868 Zn853 2.034 . S
O868 C863 1.246 . S
O869 Zn861 2.024 . S
O869 C863 1.249 . S
H870 C852 0.948 . S
O871 Zn861 2.039 1_556 S
O871 C875 1.251 . S
O872 Zn853 2.025 . S
O872 C875 1.254 1_554 S
O873 C854 1.239 1_455 S
O873 Zn861 2.064 . S
O874 Zn853 2.024 . S
O874 C854 1.249 1_455 S
C875 O871 1.251 . S
C875 O872 1.254 1_556 S
H876 C849 0.949 . S
H877 C851 0.950 . S
H878 C858 0.949 . S
H879 C860 0.950 . S
C880 C881 1.369 . S
C880 C882 1.419 . S
C880 H884 0.930 . S
C881 C880 1.369 . S
C881 C890 1.429 . S
C882 C880 1.419 . S
C882 C883 1.363 . S
C882 H885 0.929 . S
C883 C882 1.363 . S
C883 C889 1.428 . S
H884 C880 0.930 . S
H885 C882 0.929 . S
S886 N887 1.613 . S
S886 N888 1.610 . S
N887 S886 1.613 . S
N887 C890 1.350 . S
N888 S886 1.610 . S
N888 C889 1.351 . S
C889 C883 1.428 . S
C889 N888 1.351 . S
C889 C890 1.434 . S
C890 C881 1.429 . S
C890 N887 1.350 . S
C890 C889 1.434 . S
C891 C892 1.369 . S
C891 C893 1.419 . S
C891 H895 0.930 . S
C892 C891 1.369 . S
C892 C901 1.429 . S
C893 C891 1.419 . S
C893 C894 1.363 . S
C893 H896 0.929 . S
C894 C893 1.363 . S
C894 C900 1.428 . S
H895 C891 0.930 . S
H896 C893 0.929 . S
S897 N898 1.613 . S
S897 N899 1.610 . S
N898 S897 1.613 . S
N898 C901 1.350 . S
N899 S897 1.610 . S
N899 C900 1.351 . S
C900 C894 1.428 . S
C900 N899 1.351 . S
C900 C901 1.434 . S
C901 C892 1.429 . S
C901 N898 1.350 . S
C901 C900 1.434 . S
C902 C903 1.369 . S
C902 C904 1.419 . S
C902 H906 0.930 . S
C903 C902 1.369 . S
C903 C912 1.429 . S
C904 C902 1.419 . S
C904 C905 1.363 . S
C904 H907 0.929 . S
C905 C904 1.363 . S
C905 C911 1.428 . S
H906 C902 0.930 . S
H907 C904 0.929 . S
S908 N909 1.613 . S
S908 N910 1.610 . S
N909 S908 1.613 . S
N909 C912 1.350 . S
N910 S908 1.610 . S
N910 C911 1.351 . S
C911 C905 1.428 . S
C911 N910 1.351 . S
C911 C912 1.434 . S
C912 C903 1.429 . S
C912 N909 1.350 . S
C912 C911 1.434 . S
C913 C914 1.369 . S
C913 C915 1.419 . S
C913 H917 0.930 . S
C914 C913 1.369 . S
C914 C923 1.429 . S
C915 C913 1.419 . S
C915 C916 1.363 . S
C915 H918 0.929 . S
C916 C915 1.363 . S
C916 C922 1.428 . S
H917 C913 0.930 . S
H918 C915 0.929 . S
S919 N920 1.613 . S
S919 N921 1.610 . S
N920 S919 1.613 . S
N920 C923 1.350 . S
N921 S919 1.610 . S
N921 C922 1.351 . S
C922 C916 1.428 . S
C922 N921 1.351 . S
C922 C923 1.434 . S
C923 C914 1.429 . S
C923 N920 1.350 . S
C923 C922 1.434 . S
C924 C925 1.369 . S
C924 C926 1.419 . S
C924 H928 0.930 . S
C925 C924 1.369 . S
C925 C934 1.429 . S
C926 C924 1.419 . S
C926 C927 1.363 . S
C926 H929 0.929 . S
C927 C926 1.363 . S
C927 C933 1.428 . S
H928 C924 0.930 . S
H929 C926 0.929 . S
S930 N931 1.613 . S
S930 N932 1.610 . S
N931 S930 1.613 . S
N931 C934 1.350 1_655 S
N932 S930 1.610 . S
N932 C933 1.351 1_655 S
C933 C927 1.428 . S
C933 N932 1.351 1_455 S
C933 C934 1.434 . S
C934 C925 1.429 . S
C934 N931 1.350 1_455 S
C934 C933 1.434 . S
C935 C936 1.369 . S
C935 C937 1.419 . S
C935 H939 0.930 . S
C936 C935 1.369 . S
C936 C945 1.429 . S
C937 C935 1.419 . S
C937 C938 1.363 . S
C937 H940 0.929 . S
C938 C937 1.363 . S
C938 C944 1.428 . S
H939 C935 0.930 . S
H940 C937 0.929 . S
S941 N942 1.613 . S
S941 N943 1.610 . S
N942 S941 1.613 . S
N942 C945 1.350 . S
N943 S941 1.610 . S
N943 C944 1.351 . S
C944 C938 1.428 . S
C944 N943 1.351 . S
C944 C945 1.434 . S
C945 C936 1.429 . S
C945 N942 1.350 . S
C945 C944 1.434 . S
C946 C947 1.369 . S
C946 C948 1.419 1_556 S
C946 H950 0.930 . S
C947 C946 1.369 . S
C947 C956 1.429 . S
C948 C946 1.419 1_554 S
C948 C949 1.363 1_554 S
C948 H951 0.929 . S
C949 C948 1.363 1_556 S
C949 C955 1.428 . S
H950 C946 0.930 . S
H951 C948 0.929 . S
S952 N953 1.613 . S
S952 N954 1.610 . S
N953 S952 1.613 . S
N953 C956 1.350 . S
N954 S952 1.610 . S
N954 C955 1.351 . S
C955 C949 1.428 . S
C955 N954 1.351 . S
C955 C956 1.434 . S
C956 C947 1.429 . S
C956 N953 1.350 . S
C956 C955 1.434 . S
C957 C958 1.369 . S
C957 C959 1.419 . S
C957 H961 0.930 . S
C958 C957 1.369 . S
C958 C967 1.429 . S
C959 C957 1.419 . S
C959 C960 1.363 . S
C959 H962 0.929 . S
C960 C959 1.363 . S
C960 C966 1.428 . S
H961 C957 0.930 . S
H962 C959 0.929 . S
S963 N964 1.613 . S
S963 N965 1.610 . S
N964 S963 1.613 . S
N964 C967 1.350 . S
N965 S963 1.610 . S
N965 C966 1.351 . S
C966 C960 1.428 . S
C966 N965 1.351 . S
C966 C967 1.434 . S
C967 C958 1.429 . S
C967 N964 1.350 . S
C967 C966 1.434 . S
C968 C969 1.369 . S
C968 C970 1.419 . S
C968 H972 0.930 . S
C969 C968 1.369 . S
C969 C978 1.429 1_545 S
C970 C968 1.419 . S
C970 C971 1.363 1_545 S
C970 H973 0.929 . S
C971 C970 1.363 1_565 S
C971 C977 1.428 . S
H972 C968 0.930 . S
H973 C970 0.929 . S
S974 N975 1.613 . S
S974 N976 1.610 . S
N975 S974 1.613 . S
N975 C978 1.350 . S
N976 S974 1.610 . S
N976 C977 1.351 . S
C977 C971 1.428 . S
C977 N976 1.351 . S
C977 C978 1.434 . S
C978 C969 1.429 1_565 S
C978 N975 1.350 . S
C978 C977 1.434 . S
C979 C980 1.369 . S
C979 C981 1.419 . S
C979 H983 0.930 . S
C980 C979 1.369 . S
C980 C989 1.429 . S
C981 C979 1.419 . S
C981 C982 1.363 . S
C981 H984 0.929 . S
C982 C981 1.363 . S
C982 C988 1.428 . S
H983 C979 0.930 . S
H984 C981 0.929 . S
S985 N986 1.613 . S
S985 N987 1.610 . S
N986 S985 1.613 . S
N986 C989 1.350 . S
N987 S985 1.610 . S
N987 C988 1.351 . S
C988 C982 1.428 . S
C988 N987 1.351 . S
C988 C989 1.434 . S
C989 C980 1.429 . S
C989 N986 1.350 . S
C989 C988 1.434 . S
C990 C991 1.369 . S
C990 C992 1.419 . S
C990 H994 0.930 1_545 S
C991 C990 1.369 . S
C991 C1000 1.429 . S
C992 C990 1.419 . S
C992 C993 1.363 . S
C992 H995 0.929 . S
C993 C992 1.363 . S
C993 C999 1.428 . S
H994 C990 0.930 1_565 S
H995 C992 0.929 . S
S996 N997 1.613 . S
S996 N998 1.610 . S
N997 S996 1.613 . S
N997 C1000 1.350 . S
N998 S996 1.610 . S
N998 C999 1.351 . S
C999 C993 1.428 . S
C999 N998 1.351 . S
C999 C1000 1.434 . S
C1000 C991 1.429 . S
C1000 N997 1.350 . S
C1000 C999 1.434 . S
C1001 C1002 1.369 . S
C1001 C1003 1.419 . S
C1001 H1005 0.930 . S
C1002 C1001 1.369 . S
C1002 C1011 1.429 . S
C1003 C1001 1.419 . S
C1003 C1004 1.363 . S
C1003 H1006 0.929 . S
C1004 C1003 1.363 . S
C1004 C1010 1.428 . S
H1005 C1001 0.930 . S
H1006 C1003 0.929 . S
S1007 N1008 1.613 . S
S1007 N1009 1.610 . S
N1008 S1007 1.613 . S
N1008 C1011 1.350 . S
N1009 S1007 1.610 . S
N1009 C1010 1.351 . S
C1010 C1004 1.428 . S
C1010 N1009 1.351 . S
C1010 C1011 1.434 . S
C1011 C1002 1.429 . S
C1011 N1008 1.350 . S
C1011 C1010 1.434 . S
C1012 C1013 1.369 . S
C1012 C1014 1.419 . S
C1012 H1016 0.930 . S
C1013 C1012 1.369 . S
C1013 C1022 1.429 . S
C1014 C1012 1.419 . S
C1014 C1015 1.363 . S
C1014 H1017 0.929 . S
C1015 C1014 1.363 . S
C1015 C1021 1.428 . S
H1016 C1012 0.930 . S
H1017 C1014 0.929 . S
S1018 N1019 1.613 . S
S1018 N1020 1.610 . S
N1019 S1018 1.613 . S
N1019 C1022 1.350 . S
N1020 S1018 1.610 . S
N1020 C1021 1.351 . S
C1021 C1015 1.428 . S
C1021 N1020 1.351 . S
C1021 C1022 1.434 . S
C1022 C1013 1.429 . S
C1022 N1019 1.350 . S
C1022 C1021 1.434 . S
C1023 C1024 1.369 . S
C1023 C1025 1.419 . S
C1023 H1027 0.930 . S
C1024 C1023 1.369 . S
C1024 C1033 1.429 . S
C1025 C1023 1.419 . S
C1025 C1026 1.363 . S
C1025 H1028 0.929 . S
C1026 C1025 1.363 . S
C1026 C1032 1.428 . S
H1027 C1023 0.930 . S
H1028 C1025 0.929 . S
S1029 N1030 1.613 . S
S1029 N1031 1.610 . S
N1030 S1029 1.613 . S
N1030 C1033 1.350 . S
N1031 S1029 1.610 . S
N1031 C1032 1.351 . S
C1032 C1026 1.428 . S
C1032 N1031 1.351 . S
C1032 C1033 1.434 . S
C1033 C1024 1.429 . S
C1033 N1030 1.350 . S
C1033 C1032 1.434 . S
C1034 C1035 1.369 1_565 S
C1034 C1036 1.419 . S
C1034 H1038 0.930 . S
C1035 C1034 1.369 1_545 S
C1035 C1044 1.429 . S
C1036 C1034 1.419 . S
C1036 C1037 1.363 . S
C1036 H1039 0.929 . S
C1037 C1036 1.363 . S
C1037 C1043 1.428 1_565 S
H1038 C1034 0.930 . S
H1039 C1036 0.929 . S
S1040 N1041 1.613 . S
S1040 N1042 1.610 . S
N1041 S1040 1.613 . S
N1041 C1044 1.350 . S
N1042 S1040 1.610 . S
N1042 C1043 1.351 . S
C1043 C1037 1.428 1_545 S
C1043 N1042 1.351 . S
C1043 C1044 1.434 . S
C1044 C1035 1.429 . S
C1044 N1041 1.350 . S
C1044 C1043 1.434 . S
C1045 C1046 1.369 . S
C1045 C1047 1.419 . S
C1045 H1049 0.930 . S
C1046 C1045 1.369 . S
C1046 C1055 1.429 . S
C1047 C1045 1.419 . S
C1047 C1048 1.363 . S
C1047 H1050 0.929 . S
C1048 C1047 1.363 . S
C1048 C1054 1.428 . S
H1049 C1045 0.930 . S
H1050 C1047 0.929 . S
S1051 N1052 1.613 . S
S1051 N1053 1.610 . S
N1052 S1051 1.613 . S
N1052 C1055 1.350 . S
N1053 S1051 1.610 . S
N1053 C1054 1.351 . S
C1054 C1048 1.428 . S
C1054 N1053 1.351 . S
C1054 C1055 1.434 . S
C1055 C1046 1.429 . S
C1055 N1052 1.350 . S
C1055 C1054 1.434 . S
C1056 C1057 1.369 . S
C1056 C1058 1.419 . S
C1056 H1060 0.930 . S
C1057 C1056 1.369 . S
C1057 C1066 1.392 1_554 S
C1058 C1056 1.419 . S
C1058 C1059 1.363 . S
C1058 H1061 0.929 . S
C1059 C1058 1.363 . S
C1059 C1065 1.428 1_554 S
H1060 C1056 0.930 . S
H1061 C1058 0.929 . S
S1062 N1063 1.613 . S
S1062 N1064 1.610 . S
N1063 S1062 1.613 . S
N1063 C1066 1.381 . S
N1064 S1062 1.610 . S
N1064 C1065 1.351 . S
C1065 C1059 1.428 1_556 S
C1065 N1064 1.351 . S
C1065 C1066 1.444 . S
C1066 C1057 1.392 1_556 S
C1066 N1063 1.381 . S
C1066 C1065 1.444 . S
C1067 C1068 1.369 . S
C1067 C1069 1.419 . S
C1067 H1071 0.930 . S
C1068 C1067 1.369 . S
C1068 C1077 1.429 . S
C1069 C1067 1.419 . S
C1069 C1070 1.363 . S
C1069 H1072 0.929 . S
C1070 C1069 1.363 . S
C1070 C1076 1.428 . S
H1071 C1067 0.930 . S
H1072 C1069 0.929 . S
S1073 N1074 1.613 . S
S1073 N1075 1.610 . S
N1074 S1073 1.613 . S
N1074 C1077 1.350 . S
N1075 S1073 1.610 . S
N1075 C1076 1.351 . S
C1076 C1070 1.428 . S
C1076 N1075 1.351 . S
C1076 C1077 1.434 . S
C1077 C1068 1.429 . S
C1077 N1074 1.350 . S
C1077 C1076 1.434 . S
C1078 C1079 1.369 . S
C1078 C1080 1.419 . S
C1078 H1082 0.930 . S
C1079 C1078 1.369 . S
C1079 C1088 1.429 . S
C1080 C1078 1.419 . S
C1080 C1081 1.363 . S
C1080 H1083 0.929 . S
C1081 C1080 1.363 . S
C1081 C1087 1.428 . S
H1082 C1078 0.930 . S
H1083 C1080 0.929 . S
S1084 N1085 1.613 . S
S1084 N1086 1.610 . S
N1085 S1084 1.613 . S
N1085 C1088 1.350 . S
N1086 S1084 1.610 . S
N1086 C1087 1.351 . S
C1087 C1081 1.428 . S
C1087 N1086 1.351 . S
C1087 C1088 1.434 . S
C1088 C1079 1.429 . S
C1088 N1085 1.350 . S
C1088 C1087 1.434 . S
C1089 C1090 1.369 . S
C1089 C1091 1.419 . S
C1089 H1093 0.930 . S
C1090 C1089 1.369 . S
C1090 C1099 1.429 . S
C1091 C1089 1.419 . S
C1091 C1092 1.363 . S
C1091 H1094 0.932 . S
C1092 C1091 1.363 . S
C1092 C1098 1.428 . S
H1093 C1089 0.930 . S
H1094 C1091 0.932 . S
S1095 N1096 1.613 . S
S1095 N1097 1.610 . S
N1096 S1095 1.613 . S
N1096 C1099 1.350 . S
N1097 S1095 1.610 . S
N1097 C1098 1.351 . S
C1098 C1092 1.428 . S
C1098 N1097 1.351 . S
C1098 C1099 1.434 . S
C1099 C1090 1.429 . S
C1099 N1096 1.350 . S
C1099 C1098 1.434 . S
C1100 C1101 1.369 . S
C1100 C1102 1.419 . S
C1100 H1104 0.930 . S
C1101 C1100 1.369 . S
C1101 C1110 1.429 . S
C1102 C1100 1.419 . S
C1102 C1103 1.363 . S
C1102 H1105 0.929 . S
C1103 C1102 1.363 . S
C1103 C1109 1.428 . S
H1104 C1100 0.930 . S
H1105 C1102 0.929 . S
S1106 N1107 1.613 . S
S1106 N1108 1.610 . S
N1107 S1106 1.613 . S
N1107 C1110 1.350 . S
N1108 S1106 1.610 . S
N1108 C1109 1.351 . S
C1109 C1103 1.428 . S
C1109 N1108 1.351 . S
C1109 C1110 1.434 . S
C1110 C1101 1.429 . S
C1110 N1107 1.350 . S
C1110 C1109 1.434 . S
C1111 C1112 1.369 . S
C1111 C1113 1.419 . S
C1111 H1115 0.930 . S
C1112 C1111 1.369 . S
C1112 C1121 1.429 . S
C1113 C1111 1.419 . S
C1113 C1114 1.363 . S
C1113 H1116 0.929 1_565 S
C1114 C1113 1.363 . S
C1114 C1120 1.428 . S
H1115 C1111 0.930 . S
H1116 C1113 0.929 1_545 S
S1117 N1118 1.613 . S
S1117 N1119 1.610 . S
N1118 S1117 1.613 . S
N1118 C1121 1.350 . S
N1119 S1117 1.610 . S
N1119 C1120 1.351 . S
C1120 C1114 1.428 . S
C1120 N1119 1.351 . S
C1120 C1121 1.434 . S
C1121 C1112 1.429 . S
C1121 N1118 1.350 . S
C1121 C1120 1.434 . S
C1122 C1123 1.369 . S
C1122 C1124 1.419 . S
C1122 H1126 0.930 . S
C1123 C1122 1.369 . S
C1123 C1132 1.429 . S
C1124 C1122 1.419 . S
C1124 C1125 1.363 . S
C1124 H1127 0.929 . S
C1125 C1124 1.363 . S
C1125 C1131 1.428 . S
H1126 C1122 0.930 . S
H1127 C1124 0.929 . S
S1128 N1129 1.613 . S
S1128 N1130 1.610 . S
N1129 S1128 1.613 . S
N1129 C1132 1.350 . S
N1130 S1128 1.610 . S
N1130 C1131 1.351 . S
C1131 C1125 1.428 . S
C1131 N1130 1.351 . S
C1131 C1132 1.434 . S
C1132 C1123 1.429 . S
C1132 N1129 1.350 . S
C1132 C1131 1.434 . S
C1133 C1134 1.369 . S
C1133 C1135 1.419 . S
C1133 H1137 0.930 . S
C1134 C1133 1.369 . S
C1134 C1143 1.429 . S
C1135 C1133 1.419 . S
C1135 C1136 1.363 . S
C1135 H1138 0.929 . S
C1136 C1135 1.363 . S
C1136 C1142 1.428 . S
H1137 C1133 0.930 . S
H1138 C1135 0.929 . S
S1139 N1140 1.613 . S
S1139 N1141 1.610 . S
N1140 S1139 1.613 . S
N1140 C1143 1.350 . S
N1141 S1139 1.610 . S
N1141 C1142 1.351 . S
C1142 C1136 1.428 . S
C1142 N1141 1.351 . S
C1142 C1143 1.434 . S
C1143 C1134 1.429 . S
C1143 N1140 1.350 . S
C1143 C1142 1.434 . S
C1144 C1145 1.369 . S
C1144 C1146 1.419 . S
C1144 H1148 0.930 1_455 S
C1145 C1144 1.369 . S
C1145 C1154 1.429 . S
C1146 C1144 1.419 . S
C1146 C1147 1.363 . S
C1146 H1149 0.929 . S
C1147 C1146 1.363 . S
C1147 C1153 1.428 . S
H1148 C1144 0.930 1_655 S
H1149 C1146 0.929 . S
S1150 N1151 1.613 . S
S1150 N1152 1.610 . S
N1151 S1150 1.613 . S
N1151 C1154 1.350 . S
N1152 S1150 1.610 . S
N1152 C1153 1.351 . S
C1153 C1147 1.428 . S
C1153 N1152 1.351 . S
C1153 C1154 1.434 . S
C1154 C1145 1.429 . S
C1154 N1151 1.350 . S
C1154 C1153 1.434 . S
C1155 C1156 1.369 . S
C1155 C1157 1.419 . S
C1155 H1159 0.930 . S
C1156 C1155 1.369 . S
C1156 C1165 1.429 . S
C1157 C1155 1.419 . S
C1157 C1158 1.363 . S
C1157 H1160 0.929 . S
C1158 C1157 1.363 . S
C1158 C1164 1.428 . S
H1159 C1155 0.930 . S
H1160 C1157 0.929 . S
S1161 N1162 1.613 . S
S1161 N1163 1.610 . S
N1162 S1161 1.613 . S
N1162 C1165 1.350 . S
N1163 S1161 1.610 . S
N1163 C1164 1.351 . S
C1164 C1158 1.428 . S
C1164 N1163 1.351 . S
C1164 C1165 1.434 . S
C1165 C1156 1.429 . S
C1165 N1162 1.350 . S
C1165 C1164 1.434 . S
C1166 C1167 1.369 . S
C1166 C1168 1.419 . S
C1166 H1170 0.930 . S
C1167 C1166 1.369 . S
C1167 C1176 1.429 . S
C1168 C1166 1.419 . S
C1168 C1169 1.363 . S
C1168 H1171 0.929 . S
C1169 C1168 1.363 . S
C1169 C1175 1.428 . S
H1170 C1166 0.930 . S
H1171 C1168 0.929 . S
S1172 N1173 1.613 . S
S1172 N1174 1.610 . S
N1173 S1172 1.613 . S
N1173 C1176 1.350 . S
N1174 S1172 1.610 . S
N1174 C1175 1.351 . S
C1175 C1169 1.428 . S
C1175 N1174 1.351 . S
C1175 C1176 1.434 . S
C1176 C1167 1.429 . S
C1176 N1173 1.350 . S
C1176 C1175 1.434 . S
C1177 C1178 1.369 . S
C1177 C1179 1.419 . S
C1177 H1181 0.930 . S
C1178 C1177 1.369 . S
C1178 C1187 1.429 . S
C1179 C1177 1.419 . S
C1179 C1180 1.363 . S
C1179 H1182 0.929 . S
C1180 C1179 1.363 . S
C1180 C1186 1.428 . S
H1181 C1177 0.930 . S
H1182 C1179 0.929 . S
S1183 N1184 1.613 . S
S1183 N1185 1.610 . S
N1184 S1183 1.613 . S
N1184 C1187 1.350 . S
N1185 S1183 1.610 . S
N1185 C1186 1.351 . S
C1186 C1180 1.428 . S
C1186 N1185 1.351 . S
C1186 C1187 1.434 . S
C1187 C1178 1.429 . S
C1187 N1184 1.350 . S
C1187 C1186 1.434 . S
C1188 C1189 1.369 . S
C1188 C1190 1.419 . S
C1188 H1192 0.930 . S
C1189 C1188 1.369 . S
C1189 C1198 1.429 . S
C1190 C1188 1.419 . S
C1190 C1191 1.363 . S
C1190 H1193 0.929 . S
C1191 C1190 1.363 . S
C1191 C1197 1.428 . S
H1192 C1188 0.930 . S
H1193 C1190 0.929 . S
S1194 N1195 1.613 . S
S1194 N1196 1.610 1_655 S
N1195 S1194 1.613 . S
N1195 C1198 1.350 1_655 S
N1196 S1194 1.610 1_455 S
N1196 C1197 1.351 . S
C1197 C1191 1.428 . S
C1197 N1196 1.351 . S
C1197 C1198 1.434 . S
C1198 C1189 1.429 . S
C1198 N1195 1.350 1_455 S
C1198 C1197 1.434 . S
C1199 C1200 1.369 . S
C1199 C1201 1.419 . S
C1199 H1203 0.930 . S
C1200 C1199 1.369 . S
C1200 C1209 1.429 . S
C1201 C1199 1.419 . S
C1201 C1202 1.363 . S
C1201 H1204 0.929 . S
C1202 C1201 1.363 . S
C1202 C1208 1.428 . S
H1203 C1199 0.930 . S
H1204 C1201 0.929 . S
S1205 N1206 1.613 . S
S1205 N1207 1.610 . S
N1206 S1205 1.613 . S
N1206 C1209 1.350 . S
N1207 S1205 1.610 . S
N1207 C1208 1.351 . S
C1208 C1202 1.428 . S
C1208 N1207 1.351 . S
C1208 C1209 1.434 . S
C1209 C1200 1.429 . S
C1209 N1206 1.350 . S
C1209 C1208 1.434 . S
C1210 C1211 1.369 . S
C1210 C1212 1.419 . S
C1210 H1214 0.930 . S
C1211 C1210 1.369 . S
C1211 C1220 1.429 . S
C1212 C1210 1.419 . S
C1212 C1213 1.363 . S
C1212 H1215 0.929 . S
C1213 C1212 1.363 . S
C1213 C1219 1.428 . S
H1214 C1210 0.930 . S
H1215 C1212 0.929 . S
S1216 N1217 1.613 . S
S1216 N1218 1.610 . S
N1217 S1216 1.613 . S
N1217 C1220 1.350 . S
N1218 S1216 1.610 . S
N1218 C1219 1.351 . S
C1219 C1213 1.428 . S
C1219 N1218 1.351 . S
C1219 C1220 1.434 . S
C1220 C1211 1.429 . S
C1220 N1217 1.350 . S
C1220 C1219 1.434 . S
C1221 C1222 1.369 . S
C1221 C1223 1.419 . S
C1221 H1225 0.930 . S
C1222 C1221 1.369 . S
C1222 C1231 1.429 . S
C1223 C1221 1.419 . S
C1223 C1224 1.363 . S
C1223 H1226 0.929 . S
C1224 C1223 1.363 . S
C1224 C1230 1.428 . S
H1225 C1221 0.930 . S
H1226 C1223 0.929 . S
S1227 N1228 1.613 . S
S1227 N1229 1.610 . S
N1228 S1227 1.613 . S
N1228 C1231 1.350 . S
N1229 S1227 1.610 . S
N1229 C1230 1.351 . S
C1230 C1224 1.428 . S
C1230 N1229 1.351 . S
C1230 C1231 1.434 . S
C1231 C1222 1.429 . S
C1231 N1228 1.350 . S
C1231 C1230 1.434 . S
C1232 C1233 1.369 1_565 S
C1232 C1234 1.418 1_655 S
C1232 H1236 0.930 . S
C1233 C1232 1.369 1_545 S
C1233 C1242 1.429 . S
C1234 C1232 1.418 1_455 S
C1234 C1235 1.363 1_565 S
C1234 H1237 0.930 . S
C1235 C1234 1.363 1_545 S
C1235 C1241 1.428 1_455 S
H1236 C1232 0.930 . S
H1237 C1234 0.930 . S
S1238 N1239 1.613 . S
S1238 N1240 1.610 1_655 S
N1239 S1238 1.613 . S
N1239 C1242 1.350 . S
N1240 S1238 1.610 1_455 S
N1240 C1241 1.351 1_455 S
C1241 C1235 1.428 1_655 S
C1241 N1240 1.351 1_655 S
C1241 C1242 1.434 . S
C1242 C1233 1.429 . S
C1242 N1239 1.350 . S
C1242 C1241 1.434 . S
C1243 C1244 1.369 . S
C1243 C1245 1.419 . S
C1243 H1247 0.930 . S
C1244 C1243 1.369 . S
C1244 C1253 1.429 . S
C1245 C1243 1.419 . S
C1245 C1246 1.363 . S
C1245 H1248 0.929 . S
C1246 C1245 1.363 . S
C1246 C1252 1.428 . S
H1247 C1243 0.930 . S
H1248 C1245 0.929 . S
S1249 N1250 1.613 . S
S1249 N1251 1.610 . S
N1250 S1249 1.613 . S
N1250 C1253 1.350 . S
N1251 S1249 1.610 . S
N1251 C1252 1.351 . S
C1252 C1246 1.428 . S
C1252 N1251 1.351 . S
C1252 C1253 1.434 . S
C1253 C1244 1.429 . S
C1253 N1250 1.350 . S
C1253 C1252 1.434 . S
C1254 C1255 1.369 . S
C1254 C1256 1.419 . S
C1254 H1258 0.930 . S
C1255 C1254 1.369 . S
C1255 C1264 1.429 . S
C1256 C1254 1.419 . S
C1256 C1257 1.363 . S
C1256 H1259 0.929 . S
C1257 C1256 1.363 . S
C1257 C1263 1.428 . S
H1258 C1254 0.930 . S
H1259 C1256 0.929 . S
S1260 N1261 1.613 . S
S1260 N1262 1.610 . S
N1261 S1260 1.613 . S
N1261 C1264 1.350 . S
N1262 S1260 1.610 . S
N1262 C1263 1.351 . S
C1263 C1257 1.428 . S
C1263 N1262 1.351 . S
C1263 C1264 1.434 . S
C1264 C1255 1.429 . S
C1264 N1261 1.350 . S
C1264 C1263 1.434 . S
C1265 C1266 1.369 . S
C1265 C1267 1.419 . S
C1265 H1269 0.930 . S
C1266 C1265 1.369 . S
C1266 C1275 1.429 . S
C1267 C1265 1.419 . S
C1267 C1268 1.363 . S
C1267 H1270 0.929 . S
C1268 C1267 1.363 . S
C1268 C1274 1.428 . S
H1269 C1265 0.930 . S
H1270 C1267 0.929 . S
S1271 N1272 1.613 . S
S1271 N1273 1.610 . S
N1272 S1271 1.613 . S
N1272 C1275 1.350 . S
N1273 S1271 1.610 . S
N1273 C1274 1.351 . S
C1274 C1268 1.428 . S
C1274 N1273 1.351 . S
C1274 C1275 1.434 . S
C1275 C1266 1.429 . S
C1275 N1272 1.350 . S
C1275 C1274 1.434 . S
C1276 C1277 1.344 1_565 S
C1276 C1278 1.419 . S
C1276 H1280 0.930 . S
C1277 C1276 1.344 1_545 S
C1277 C1286 1.444 . S
C1278 C1276 1.419 . S
C1278 C1279 1.363 . S
C1278 H1281 0.929 . S
C1279 C1278 1.363 . S
C1279 C1285 1.428 1_565 S
H1280 C1276 0.930 . S
H1281 C1278 0.929 . S
S1282 N1283 1.613 1_455 S
S1282 N1284 1.610 . S
N1283 S1282 1.613 1_655 S
N1283 C1286 1.350 . S
N1284 S1282 1.610 . S
N1284 C1285 1.351 1_455 S
C1285 C1279 1.428 1_545 S
C1285 N1284 1.351 1_655 S
C1285 C1286 1.434 . S
C1286 C1277 1.444 . S
C1286 N1283 1.350 . S
C1286 C1285 1.434 . S
C1287 C1288 1.369 . S
C1287 C1289 1.419 . S
C1287 H1291 0.930 . S
C1288 C1287 1.369 . S
C1288 C1297 1.429 . S
C1289 C1287 1.419 . S
C1289 C1290 1.363 . S
C1289 H1292 0.929 . S
C1290 C1289 1.363 . S
C1290 C1296 1.428 . S
H1291 C1287 0.930 . S
H1292 C1289 0.929 . S
S1293 N1294 1.613 . S
S1293 N1295 1.610 . S
N1294 S1293 1.613 . S
N1294 C1297 1.350 . S
N1295 S1293 1.610 . S
N1295 C1296 1.351 . S
C1296 C1290 1.428 . S
C1296 N1295 1.351 . S
C1296 C1297 1.434 . S
C1297 C1288 1.429 . S
C1297 N1294 1.350 . S
C1297 C1296 1.434 . S
C1298 C1299 1.369 . S
C1298 C1300 1.419 . S
C1298 H1302 0.930 . S
C1299 C1298 1.369 . S
C1299 C1308 1.429 . S
C1300 C1298 1.419 . S
C1300 C1301 1.363 . S
C1300 H1303 0.929 . S
C1301 C1300 1.363 . S
C1301 C1307 1.428 . S
H1302 C1298 0.930 . S
H1303 C1300 0.929 . S
S1304 N1305 1.613 . S
S1304 N1306 1.610 1_565 S
N1305 S1304 1.613 . S
N1305 C1308 1.350 1_565 S
N1306 S1304 1.610 1_545 S
N1306 C1307 1.351 . S
C1307 C1301 1.428 . S
C1307 N1306 1.351 . S
C1307 C1308 1.434 . S
C1308 C1299 1.429 . S
C1308 N1305 1.350 1_545 S
C1308 C1307 1.434 . S
C1309 C1310 1.369 . S
C1309 C1311 1.419 . S
C1309 H1313 0.930 . S
C1310 C1309 1.369 . S
C1310 C1319 1.429 . S
C1311 C1309 1.419 . S
C1311 C1312 1.363 . S
C1311 H1314 0.929 . S
C1312 C1311 1.363 . S
C1312 C1318 1.428 . S
H1313 C1309 0.930 . S
H1314 C1311 0.929 . S
S1315 N1316 1.613 . S
S1315 N1317 1.610 . S
N1316 S1315 1.613 . S
N1316 C1319 1.350 . S
N1317 S1315 1.610 . S
N1317 C1318 1.351 . S
C1318 C1312 1.428 . S
C1318 N1317 1.351 . S
C1318 C1319 1.434 . S
C1319 C1310 1.429 . S
C1319 N1316 1.350 . S
C1319 C1318 1.434 . S
C1320 C1321 1.369 . S
C1320 C1322 1.419 . S
C1320 H1324 0.930 . S
C1321 C1320 1.369 . S
C1321 C1330 1.429 . S
C1322 C1320 1.419 . S
C1322 C1323 1.363 . S
C1322 H1325 0.929 . S
C1323 C1322 1.363 . S
C1323 C1329 1.428 . S
H1324 C1320 0.930 . S
H1325 C1322 0.929 . S
S1326 N1327 1.613 . S
S1326 N1328 1.610 . S
N1327 S1326 1.613 . S
N1327 C1330 1.350 1_545 S
N1328 S1326 1.610 . S
N1328 C1329 1.351 1_545 S
C1329 C1323 1.428 . S
C1329 N1328 1.351 1_565 S
C1329 C1330 1.434 . S
C1330 C1321 1.429 . S
C1330 N1327 1.350 1_565 S
C1330 C1329 1.434 . S
C1331 C1332 1.369 . S
C1331 C1333 1.419 . S
C1331 H1335 0.930 . S
C1332 C1331 1.369 . S
C1332 C1341 1.429 1_554 S
C1333 C1331 1.419 . S
C1333 C1334 1.363 . S
C1333 H1336 0.929 . S
C1334 C1333 1.363 . S
C1334 C1340 1.434 . S
H1335 C1331 0.930 . S
H1336 C1333 0.929 . S
S1337 N1338 1.613 . S
S1337 N1339 1.610 . S
N1338 S1337 1.613 . S
N1338 C1341 1.350 . S
N1339 S1337 1.610 . S
N1339 C1340 1.345 1_556 S
C1340 C1334 1.434 . S
C1340 N1339 1.345 1_554 S
C1340 C1341 1.433 1_554 S
C1341 C1332 1.429 1_556 S
C1341 N1338 1.350 . S
C1341 C1340 1.433 1_556 S
C1342 C1343 1.369 . S
C1342 C1344 1.419 . S
C1342 H1346 0.930 . S
C1343 C1342 1.369 . S
C1343 C1352 1.429 . S
C1344 C1342 1.419 . S
C1344 C1345 1.363 . S
C1344 H1347 0.929 . S
C1345 C1344 1.363 . S
C1345 C1351 1.428 . S
H1346 C1342 0.930 . S
H1347 C1344 0.929 . S
S1348 N1349 1.613 . S
S1348 N1350 1.610 . S
N1349 S1348 1.613 . S
N1349 C1352 1.350 . S
N1350 S1348 1.610 . S
N1350 C1351 1.351 . S
C1351 C1345 1.428 . S
C1351 N1350 1.351 . S
C1351 C1352 1.434 . S
C1352 C1343 1.429 . S
C1352 N1349 1.350 . S
C1352 C1351 1.434 . S
C1353 C1354 1.369 . S
C1353 C1355 1.419 . S
C1353 H1357 0.930 . S
C1354 C1353 1.369 . S
C1354 C1363 1.429 . S
C1355 C1353 1.419 . S
C1355 C1356 1.363 . S
C1355 H1358 0.929 . S
C1356 C1355 1.363 . S
C1356 C1362 1.428 . S
H1357 C1353 0.930 . S
H1358 C1355 0.929 . S
S1359 N1360 1.613 . S
S1359 N1361 1.610 . S
N1360 S1359 1.613 . S
N1360 C1363 1.350 . S
N1361 S1359 1.610 . S
N1361 C1362 1.351 . S
C1362 C1356 1.428 . S
C1362 N1361 1.351 . S
C1362 C1363 1.434 . S
C1363 C1354 1.429 . S
C1363 N1360 1.350 . S
C1363 C1362 1.434 . S
C1364 C1365 1.369 . S
C1364 C1366 1.419 . S
C1364 H1368 0.930 . S
C1365 C1364 1.369 . S
C1365 C1374 1.429 . S
C1366 C1364 1.419 . S
C1366 C1367 1.363 . S
C1366 H1369 0.929 . S
C1367 C1366 1.363 . S
C1367 C1373 1.428 . S
H1368 C1364 0.930 . S
H1369 C1366 0.929 . S
S1370 N1371 1.613 . S
S1370 N1372 1.610 . S
N1371 S1370 1.613 . S
N1371 C1374 1.350 . S
N1372 S1370 1.610 . S
N1372 C1373 1.351 . S
C1373 C1367 1.428 . S
C1373 N1372 1.351 . S
C1373 C1374 1.434 . S
C1374 C1365 1.429 . S
C1374 N1371 1.350 . S
C1374 C1373 1.434 . S
C1375 C1376 1.369 . S
C1375 C1377 1.419 . S
C1375 H1379 0.930 . S
C1376 C1375 1.369 . S
C1376 C1385 1.429 . S
C1377 C1375 1.419 . S
C1377 C1378 1.363 . S
C1377 H1380 0.929 . S
C1378 C1377 1.363 . S
C1378 C1384 1.428 . S
H1379 C1375 0.930 . S
H1380 C1377 0.929 . S
S1381 N1382 1.613 . S
S1381 N1383 1.610 . S
N1382 S1381 1.613 . S
N1382 C1385 1.350 . S
N1383 S1381 1.610 . S
N1383 C1384 1.351 . S
C1384 C1378 1.428 . S
C1384 N1383 1.351 . S
C1384 C1385 1.434 . S
C1385 C1376 1.429 . S
C1385 N1382 1.350 . S
C1385 C1384 1.434 . S
C1386 C1387 1.369 . S
C1386 C1388 1.419 . S
C1386 H1390 0.930 . S
C1387 C1386 1.369 . S
C1387 C1396 1.429 . S
C1388 C1386 1.419 . S
C1388 C1389 1.363 . S
C1388 H1391 0.929 . S
C1389 C1388 1.363 . S
C1389 C1395 1.428 . S
H1390 C1386 0.930 . S
H1391 C1388 0.929 . S
S1392 N1393 1.613 . S
S1392 N1394 1.610 . S
N1393 S1392 1.613 . S
N1393 C1396 1.350 . S
N1394 S1392 1.610 . S
N1394 C1395 1.351 . S
C1395 C1389 1.428 . S
C1395 N1394 1.351 . S
C1395 C1396 1.434 . S
C1396 C1387 1.429 . S
C1396 N1393 1.350 . S
C1396 C1395 1.434 . S
C1397 C1398 1.369 . S
C1397 C1399 1.419 . S
C1397 H1401 0.930 . S
C1398 C1397 1.369 . S
C1398 C1407 1.429 . S
C1399 C1397 1.419 . S
C1399 C1400 1.363 . S
C1399 H1402 0.929 . S
C1400 C1399 1.363 . S
C1400 C1406 1.428 . S
H1401 C1397 0.930 . S
H1402 C1399 0.929 . S
S1403 N1404 1.613 . S
S1403 N1405 1.610 . S
N1404 S1403 1.613 . S
N1404 C1407 1.350 . S
N1405 S1403 1.610 . S
N1405 C1406 1.351 . S
C1406 C1400 1.428 . S
C1406 N1405 1.351 . S
C1406 C1407 1.434 . S
C1407 C1398 1.429 . S
C1407 N1404 1.350 . S
C1407 C1406 1.434 . S
C1408 C1409 1.369 . S
C1408 C1410 1.419 . S
C1408 H1412 0.930 . S
C1409 C1408 1.369 . S
C1409 C1418 1.429 . S
C1410 C1408 1.419 . S
C1410 C1411 1.363 . S
C1410 H1413 0.929 . S
C1411 C1410 1.363 . S
C1411 C1417 1.428 . S
H1412 C1408 0.930 . S
H1413 C1410 0.929 . S
S1414 N1415 1.613 . S
S1414 N1416 1.610 . S
N1415 S1414 1.613 . S
N1415 C1418 1.350 . S
N1416 S1414 1.610 . S
N1416 C1417 1.351 . S
C1417 C1411 1.428 . S
C1417 N1416 1.351 . S
C1417 C1418 1.434 . S
C1418 C1409 1.429 . S
C1418 N1415 1.350 . S
C1418 C1417 1.434 . S
C1419 C1420 1.369 . S
C1419 C1421 1.419 . S
C1419 H1423 0.930 . S
C1420 C1419 1.369 . S
C1420 C1429 1.429 . S
C1421 C1419 1.419 . S
C1421 C1422 1.363 . S
C1421 H1424 0.929 . S
C1422 C1421 1.363 . S
C1422 C1428 1.428 . S
H1423 C1419 0.930 . S
H1424 C1421 0.929 . S
S1425 N1426 1.613 . S
S1425 N1427 1.610 . S
N1426 S1425 1.613 . S
N1426 C1429 1.350 . S
N1427 S1425 1.610 . S
N1427 C1428 1.351 . S
C1428 C1422 1.428 . S
C1428 N1427 1.351 . S
C1428 C1429 1.434 . S
C1429 C1420 1.429 . S
C1429 N1426 1.350 . S
C1429 C1428 1.434 . S
C1430 C1431 1.369 . S
C1430 C1432 1.419 . S
C1430 H1434 0.930 . S
C1431 C1430 1.369 . S
C1431 C1440 1.429 . S
C1432 C1430 1.419 . S
C1432 C1433 1.363 . S
C1432 H1435 0.929 . S
C1433 C1432 1.363 . S
C1433 C1439 1.428 . S
H1434 C1430 0.930 . S
H1435 C1432 0.929 . S
S1436 N1437 1.613 . S
S1436 N1438 1.610 . S
N1437 S1436 1.613 . S
N1437 C1440 1.350 . S
N1438 S1436 1.610 . S
N1438 C1439 1.351 . S
C1439 C1433 1.428 . S
C1439 N1438 1.351 . S
C1439 C1440 1.434 . S
C1440 C1431 1.429 . S
C1440 N1437 1.350 . S
C1440 C1439 1.434 . S
C1441 C1442 1.369 . S
C1441 C1443 1.419 . S
C1441 H1445 0.930 . S
C1442 C1441 1.369 . S
C1442 C1451 1.429 . S
C1443 C1441 1.419 . S
C1443 C1444 1.363 . S
C1443 H1446 0.929 . S
C1444 C1443 1.363 . S
C1444 C1450 1.428 . S
H1445 C1441 0.930 . S
H1446 C1443 0.929 . S
S1447 N1448 1.613 . S
S1447 N1449 1.610 . S
N1448 S1447 1.613 . S
N1448 C1451 1.350 . S
N1449 S1447 1.610 . S
N1449 C1450 1.351 . S
C1450 C1444 1.428 . S
C1450 N1449 1.351 . S
C1450 C1451 1.434 . S
C1451 C1442 1.429 . S
C1451 N1448 1.350 . S
C1451 C1450 1.434 . S
C1452 C1453 1.369 . S
C1452 C1454 1.419 . S
C1452 H1456 0.930 . S
C1453 C1452 1.369 . S
C1453 C1462 1.429 . S
C1454 C1452 1.419 . S
C1454 C1455 1.363 . S
C1454 H1457 0.929 . S
C1455 C1454 1.363 . S
C1455 C1461 1.428 1_556 S
H1456 C1452 0.930 . S
H1457 C1454 0.929 . S
S1458 N1459 1.613 1_554 S
S1458 N1460 1.610 . S
N1459 S1458 1.613 1_556 S
N1459 C1462 1.350 . S
N1460 S1458 1.610 . S
N1460 C1461 1.351 . S
C1461 C1455 1.428 1_554 S
C1461 N1460 1.351 . S
C1461 C1462 1.434 1_554 S
C1462 C1453 1.429 . S
C1462 N1459 1.350 . S
C1462 C1461 1.434 1_556 S
C1463 C1464 1.369 . S
C1463 C1465 1.419 . S
C1463 H1467 0.930 1_655 S
C1464 C1463 1.369 . S
C1464 C1473 1.429 . S
C1465 C1463 1.419 . S
C1465 C1466 1.363 . S
C1465 H1468 0.929 . S
C1466 C1465 1.363 . S
C1466 C1472 1.428 . S
H1467 C1463 0.930 1_455 S
H1468 C1465 0.929 . S
S1469 N1470 1.613 . S
S1469 N1471 1.610 . S
N1470 S1469 1.613 . S
N1470 C1473 1.350 . S
N1471 S1469 1.610 . S
N1471 C1472 1.351 . S
C1472 C1466 1.428 . S
C1472 N1471 1.351 . S
C1472 C1473 1.434 . S
C1473 C1464 1.429 . S
C1473 N1470 1.350 . S
C1473 C1472 1.434 . S
C1474 C1475 1.369 . S
C1474 C1476 1.419 . S
C1474 H1478 0.930 . S
C1475 C1474 1.369 . S
C1475 C1484 1.429 . S
C1476 C1474 1.419 . S
C1476 C1477 1.363 . S
C1476 H1479 0.929 . S
C1477 C1476 1.363 . S
C1477 C1483 1.428 . S
H1478 C1474 0.930 . S
H1479 C1476 0.929 . S
S1480 N1481 1.613 . S
S1480 N1482 1.610 . S
N1481 S1480 1.613 . S
N1481 C1484 1.350 . S
N1482 S1480 1.610 . S
N1482 C1483 1.351 . S
C1483 C1477 1.428 . S
C1483 N1482 1.351 . S
C1483 C1484 1.434 . S
C1484 C1475 1.429 . S
C1484 N1481 1.350 . S
C1484 C1483 1.434 . S
C1485 C1486 1.369 . S
C1485 C1487 1.419 . S
C1485 H1489 0.930 . S
C1486 C1485 1.369 . S
C1486 C1495 1.429 . S
C1487 C1485 1.419 . S
C1487 C1488 1.363 . S
C1487 H1490 0.929 . S
C1488 C1487 1.363 . S
C1488 C1494 1.428 . S
H1489 C1485 0.930 . S
H1490 C1487 0.929 . S
S1491 N1492 1.613 . S
S1491 N1493 1.610 . S
N1492 S1491 1.613 . S
N1492 C1495 1.350 . S
N1493 S1491 1.610 . S
N1493 C1494 1.351 . S
C1494 C1488 1.428 . S
C1494 N1493 1.351 . S
C1494 C1495 1.434 . S
C1495 C1486 1.429 . S
C1495 N1492 1.350 . S
C1495 C1494 1.434 . S
C1496 C1497 1.369 . S
C1496 C1498 1.419 . S
C1496 H1500 0.930 . S
C1497 C1496 1.369 . S
C1497 C1506 1.429 . S
C1498 C1496 1.419 . S
C1498 C1499 1.363 . S
C1498 H1501 0.929 . S
C1499 C1498 1.363 . S
C1499 C1505 1.428 . S
H1500 C1496 0.930 . S
H1501 C1498 0.929 . S
S1502 N1503 1.613 . S
S1502 N1504 1.610 . S
N1503 S1502 1.613 . S
N1503 C1506 1.350 . S
N1504 S1502 1.610 . S
N1504 C1505 1.351 . S
C1505 C1499 1.428 . S
C1505 N1504 1.351 . S
C1505 C1506 1.434 . S
C1506 C1497 1.429 . S
C1506 N1503 1.350 . S
C1506 C1505 1.434 . S
C1507 C1508 1.369 . S
C1507 C1509 1.419 . S
C1507 H1511 0.930 . S
C1508 C1507 1.369 . S
C1508 C1517 1.429 . S
C1509 C1507 1.419 . S
C1509 C1510 1.363 . S
C1509 H1512 0.929 . S
C1510 C1509 1.363 . S
C1510 C1516 1.428 . S
H1511 C1507 0.930 . S
H1512 C1509 0.929 . S
S1513 N1514 1.613 . S
S1513 N1515 1.610 . S
N1514 S1513 1.613 . S
N1514 C1517 1.350 . S
N1515 S1513 1.610 . S
N1515 C1516 1.351 . S
C1516 C1510 1.428 . S
C1516 N1515 1.351 . S
C1516 C1517 1.434 . S
C1517 C1508 1.429 . S
C1517 N1514 1.350 . S
C1517 C1516 1.434 . S
C1518 C1519 1.369 . S
C1518 C1520 1.419 1_655 S
C1518 H1522 0.930 . S
C1519 C1518 1.369 . S
C1519 C1528 1.429 . S
C1520 C1518 1.419 1_455 S
C1520 C1521 1.363 . S
C1520 H1523 0.929 . S
C1521 C1520 1.363 . S
C1521 C1527 1.428 1_455 S
H1522 C1518 0.930 . S
H1523 C1520 0.929 . S
S1524 N1525 1.613 . S
S1524 N1526 1.610 . S
N1525 S1524 1.613 . S
N1525 C1528 1.350 . S
N1526 S1524 1.610 . S
N1526 C1527 1.351 . S
C1527 C1521 1.428 1_655 S
C1527 N1526 1.351 . S
C1527 C1528 1.434 . S
C1528 C1519 1.429 . S
C1528 N1525 1.350 . S
C1528 C1527 1.434 . S
C1529 C1530 1.369 . S
C1529 C1531 1.419 . S
C1529 H1533 0.930 . S
C1530 C1529 1.369 . S
C1530 C1539 1.429 . S
C1531 C1529 1.419 . S
C1531 C1532 1.363 . S
C1531 H1534 0.929 . S
C1532 C1531 1.363 . S
C1532 C1538 1.428 . S
H1533 C1529 0.930 . S
H1534 C1531 0.929 . S
S1535 N1536 1.613 . S
S1535 N1537 1.610 . S
N1536 S1535 1.613 . S
N1536 C1539 1.350 . S
N1537 S1535 1.610 . S
N1537 C1538 1.351 . S
C1538 C1532 1.428 . S
C1538 N1537 1.351 . S
C1538 C1539 1.434 . S
C1539 C1530 1.429 . S
C1539 N1536 1.350 . S
C1539 C1538 1.434 . S
C1540 C1541 1.369 . S
C1540 C1542 1.419 . S
C1540 H1544 0.930 . S
C1541 C1540 1.369 . S
C1541 C1550 1.429 . S
C1542 C1540 1.419 . S
C1542 C1543 1.363 . S
C1542 H1545 0.929 . S
C1543 C1542 1.363 . S
C1543 C1549 1.428 . S
H1544 C1540 0.930 . S
H1545 C1542 0.929 . S
S1546 N1547 1.613 . S
S1546 N1548 1.610 . S
N1547 S1546 1.613 . S
N1547 C1550 1.350 . S
N1548 S1546 1.610 . S
N1548 C1549 1.351 . S
C1549 C1543 1.428 . S
C1549 N1548 1.351 . S
C1549 C1550 1.434 . S
C1550 C1541 1.429 . S
C1550 N1547 1.350 . S
C1550 C1549 1.434 . S
C1551 C1552 1.369 . S
C1551 C1553 1.419 . S
C1551 H1555 0.930 . S
C1552 C1551 1.369 . S
C1552 C1561 1.429 . S
C1553 C1551 1.419 . S
C1553 C1554 1.363 . S
C1553 H1556 0.929 . S
C1554 C1553 1.363 . S
C1554 C1560 1.428 . S
H1555 C1551 0.930 . S
H1556 C1553 0.929 . S
S1557 N1558 1.613 . S
S1557 N1559 1.610 . S
N1558 S1557 1.613 . S
N1558 C1561 1.350 . S
N1559 S1557 1.610 . S
N1559 C1560 1.351 . S
C1560 C1554 1.428 . S
C1560 N1559 1.351 . S
C1560 C1561 1.434 . S
C1561 C1552 1.429 . S
C1561 N1558 1.350 . S
C1561 C1560 1.434 . S
C1562 C1563 1.369 . S
C1562 C1564 1.419 . S
C1562 H1566 0.930 . S
C1563 C1562 1.369 . S
C1563 C1572 1.429 . S
C1564 C1562 1.419 . S
C1564 C1565 1.363 . S
C1564 H1567 0.929 . S
C1565 C1564 1.363 . S
C1565 C1571 1.428 . S
H1566 C1562 0.930 . S
H1567 C1564 0.929 . S
S1568 N1569 1.613 1_455 S
S1568 N1570 1.610 . S
N1569 S1568 1.613 1_655 S
N1569 C1572 1.350 . S
N1570 S1568 1.610 . S
N1570 C1571 1.351 1_455 S
C1571 C1565 1.428 . S
C1571 N1570 1.351 1_655 S
C1571 C1572 1.434 . S
C1572 C1563 1.429 . S
C1572 N1569 1.350 . S
C1572 C1571 1.434 . S
C1573 C1574 1.369 . S
C1573 C1575 1.419 . S
C1573 H1577 0.930 . S
C1574 C1573 1.369 . S
C1574 C1583 1.429 . S
C1575 C1573 1.419 . S
C1575 C1576 1.363 . S
C1575 H1578 0.929 . S
C1576 C1575 1.363 . S
C1576 C1582 1.428 . S
H1577 C1573 0.930 . S
H1578 C1575 0.929 . S
S1579 N1580 1.613 . S
S1579 N1581 1.610 . S
N1580 S1579 1.613 . S
N1580 C1583 1.350 . S
N1581 S1579 1.610 . S
N1581 C1582 1.351 . S
C1582 C1576 1.428 . S
C1582 N1581 1.351 . S
C1582 C1583 1.434 . S
C1583 C1574 1.429 . S
C1583 N1580 1.350 . S
C1583 C1582 1.434 . S
C1584 C1585 1.369 . S
C1584 C1586 1.419 . S
C1584 H1588 0.930 . S
C1585 C1584 1.369 . S
C1585 C1594 1.429 . S
C1586 C1584 1.419 . S
C1586 C1587 1.363 . S
C1586 H1589 0.929 . S
C1587 C1586 1.363 . S
C1587 C1593 1.428 . S
H1588 C1584 0.930 . S
H1589 C1586 0.929 . S
S1590 N1591 1.613 . S
S1590 N1592 1.610 . S
N1591 S1590 1.613 . S
N1591 C1594 1.350 . S
N1592 S1590 1.610 . S
N1592 C1593 1.351 . S
C1593 C1587 1.428 . S
C1593 N1592 1.351 . S
C1593 C1594 1.434 . S
C1594 C1585 1.429 . S
C1594 N1591 1.350 . S
C1594 C1593 1.434 . S
C1595 C1596 1.369 . S
C1595 C1597 1.419 . S
C1595 H1599 0.930 . S
C1596 C1595 1.369 . S
C1596 C1605 1.429 . S
C1597 C1595 1.419 . S
C1597 C1598 1.363 . S
C1597 H1600 0.929 . S
C1598 C1597 1.363 . S
C1598 C1604 1.428 . S
H1599 C1595 0.930 . S
H1600 C1597 0.929 . S
S1601 N1602 1.613 . S
S1601 N1603 1.610 . S
N1602 S1601 1.613 . S
N1602 C1605 1.350 . S
N1603 S1601 1.610 . S
N1603 C1604 1.351 . S
C1604 C1598 1.428 . S
C1604 N1603 1.351 . S
C1604 C1605 1.434 . S
C1605 C1596 1.429 . S
C1605 N1602 1.350 . S
C1605 C1604 1.434 . S
C1606 C1607 1.369 . S
C1606 C1608 1.419 . S
C1606 H1610 0.930 . S
C1607 C1606 1.369 . S
C1607 C1616 1.429 . S
C1608 C1606 1.419 . S
C1608 C1609 1.363 . S
C1608 H1611 0.929 . S
C1609 C1608 1.363 . S
C1609 C1615 1.428 . S
H1610 C1606 0.930 . S
H1611 C1608 0.929 . S
S1612 N1613 1.613 . S
S1612 N1614 1.610 . S
N1613 S1612 1.613 . S
N1613 C1616 1.350 . S
N1614 S1612 1.610 . S
N1614 C1615 1.351 . S
C1615 C1609 1.428 . S
C1615 N1614 1.351 . S
C1615 C1616 1.434 . S
C1616 C1607 1.429 . S
C1616 N1613 1.350 . S
C1616 C1615 1.434 . S
C1617 C1618 1.369 . S
C1617 C1619 1.419 . S
C1617 H1621 0.930 . S
C1618 C1617 1.369 . S
C1618 C1627 1.429 . S
C1619 C1617 1.419 . S
C1619 C1620 1.363 . S
C1619 H1622 0.929 . S
C1620 C1619 1.363 . S
C1620 C1626 1.428 . S
H1621 C1617 0.930 . S
H1622 C1619 0.929 . S
S1623 N1624 1.613 . S
S1623 N1625 1.610 . S
N1624 S1623 1.613 . S
N1624 C1627 1.350 . S
N1625 S1623 1.610 . S
N1625 C1626 1.351 . S
C1626 C1620 1.428 . S
C1626 N1625 1.351 . S
C1626 C1627 1.434 . S
C1627 C1618 1.429 . S
C1627 N1624 1.350 . S
C1627 C1626 1.434 . S
C1628 C1629 1.369 . S
C1628 C1630 1.419 . S
C1628 H1632 0.930 . S
C1629 C1628 1.369 . S
C1629 C1638 1.429 . S
C1630 C1628 1.419 . S
C1630 C1631 1.363 . S
C1630 H1633 0.929 . S
C1631 C1630 1.363 . S
C1631 C1637 1.428 . S
H1632 C1628 0.930 . S
H1633 C1630 0.929 . S
S1634 N1635 1.613 . S
S1634 N1636 1.610 . S
N1635 S1634 1.613 . S
N1635 C1638 1.350 . S
N1636 S1634 1.610 . S
N1636 C1637 1.351 . S
C1637 C1631 1.428 . S
C1637 N1636 1.351 . S
C1637 C1638 1.434 . S
C1638 C1629 1.429 . S
C1638 N1635 1.350 . S
C1638 C1637 1.434 . S
C1639 C1640 1.369 . S
C1639 C1641 1.419 . S
C1639 H1643 0.930 . S
C1640 C1639 1.369 . S
C1640 C1649 1.429 . S
C1641 C1639 1.419 . S
C1641 C1642 1.363 . S
C1641 H1644 0.929 . S
C1642 C1641 1.363 . S
C1642 C1648 1.428 . S
H1643 C1639 0.930 . S
H1644 C1641 0.929 . S
S1645 N1646 1.613 1_556 S
S1645 N1647 1.610 . S
N1646 S1645 1.613 1_554 S
N1646 C1649 1.350 . S
N1647 S1645 1.610 . S
N1647 C1648 1.351 1_556 S
C1648 C1642 1.428 . S
C1648 N1647 1.351 1_554 S
C1648 C1649 1.434 . S
C1649 C1640 1.429 . S
C1649 N1646 1.350 . S
C1649 C1648 1.434 . S
C1650 C1651 1.369 . S
C1650 C1652 1.419 . S
C1650 H1654 0.930 . S
C1651 C1650 1.369 . S
C1651 C1660 1.429 . S
C1652 C1650 1.419 . S
C1652 C1653 1.363 . S
C1652 H1655 0.929 . S
C1653 C1652 1.363 . S
C1653 C1659 1.428 . S
H1654 C1650 0.930 . S
H1655 C1652 0.929 . S
S1656 N1657 1.613 . S
S1656 N1658 1.610 . S
N1657 S1656 1.613 . S
N1657 C1660 1.350 . S
N1658 S1656 1.610 . S
N1658 C1659 1.351 . S
C1659 C1653 1.428 . S
C1659 N1658 1.351 . S
C1659 C1660 1.434 . S
C1660 C1651 1.429 . S
C1660 N1657 1.350 . S
C1660 C1659 1.434 . S
C1661 C1662 1.369 . S
C1661 C1663 1.419 . S
C1661 H1665 0.930 . S
C1662 C1661 1.369 . S
C1662 C1671 1.429 . S
C1663 C1661 1.419 . S
C1663 C1664 1.363 . S
C1663 H1666 0.929 . S
C1664 C1663 1.363 . S
C1664 C1670 1.428 . S
H1665 C1661 0.930 . S
H1666 C1663 0.929 . S
S1667 N1668 1.613 . S
S1667 N1669 1.610 . S
N1668 S1667 1.613 . S
N1668 C1671 1.350 . S
N1669 S1667 1.610 . S
N1669 C1670 1.351 . S
C1670 C1664 1.428 . S
C1670 N1669 1.351 . S
C1670 C1671 1.434 . S
C1671 C1662 1.429 . S
C1671 N1668 1.350 . S
C1671 C1670 1.434 . S
C1672 C1673 1.369 . S
C1672 C1674 1.419 . S
C1672 H1676 0.930 . S
C1673 C1672 1.369 . S
C1673 C1682 1.429 . S
C1674 C1672 1.419 . S
C1674 C1675 1.363 . S
C1674 H1677 0.929 . S
C1675 C1674 1.363 . S
C1675 C1681 1.428 . S
H1676 C1672 0.930 . S
H1677 C1674 0.929 . S
S1678 N1679 1.613 . S
S1678 N1680 1.610 . S
N1679 S1678 1.613 . S
N1679 C1682 1.350 . S
N1680 S1678 1.610 . S
N1680 C1681 1.351 . S
C1681 C1675 1.428 . S
C1681 N1680 1.351 . S
C1681 C1682 1.434 . S
C1682 C1673 1.429 . S
C1682 N1679 1.350 . S
C1682 C1681 1.434 . S
C1683 C1684 1.369 . S
C1683 C1685 1.419 . S
C1683 H1687 0.930 . S
C1684 C1683 1.369 . S
C1684 C1693 1.429 . S
C1685 C1683 1.419 . S
C1685 C1686 1.363 . S
C1685 H1688 0.929 . S
C1686 C1685 1.363 . S
C1686 C1692 1.428 . S
H1687 C1683 0.930 . S
H1688 C1685 0.929 . S
S1689 N1690 1.613 . S
S1689 N1691 1.610 . S
N1690 S1689 1.613 . S
N1690 C1693 1.350 . S
N1691 S1689 1.610 . S
N1691 C1692 1.351 . S
C1692 C1686 1.428 . S
C1692 N1691 1.351 . S
C1692 C1693 1.434 . S
C1693 C1684 1.429 . S
C1693 N1690 1.350 . S
C1693 C1692 1.434 . S
C1694 C1695 1.369 . S
C1694 C1696 1.419 . S
C1694 H1698 0.930 . S
C1695 C1694 1.369 . S
C1695 C1704 1.429 1_455 S
C1696 C1694 1.419 . S
C1696 C1697 1.363 . S
C1696 H1699 0.929 . S
C1697 C1696 1.363 . S
C1697 C1703 1.428 1_455 S
H1698 C1694 0.930 . S
H1699 C1696 0.929 . S
S1700 N1701 1.613 . S
S1700 N1702 1.610 1_556 S
N1701 S1700 1.613 . S
N1701 C1704 1.350 . S
N1702 S1700 1.610 1_554 S
N1702 C1703 1.351 1_554 S
C1703 C1697 1.428 1_655 S
C1703 N1702 1.351 1_556 S
C1703 C1704 1.434 . S
C1704 C1695 1.429 1_655 S
C1704 N1701 1.350 . S
C1704 C1703 1.434 . S
C1705 C1706 1.369 . S
C1705 C1707 1.419 . S
C1705 H1709 0.930 . S
C1706 C1705 1.369 . S
C1706 C1715 1.429 . S
C1707 C1705 1.419 . S
C1707 C1708 1.363 . S
C1707 H1710 0.929 . S
C1708 C1707 1.363 . S
C1708 C1714 1.428 . S
H1709 C1705 0.930 . S
H1710 C1707 0.929 . S
S1711 N1712 1.613 . S
S1711 N1713 1.610 . S
N1712 S1711 1.613 . S
N1712 C1715 1.350 . S
N1713 S1711 1.610 . S
N1713 C1714 1.351 . S
C1714 C1708 1.428 . S
C1714 N1713 1.351 . S
C1714 C1715 1.434 . S
C1715 C1706 1.429 . S
C1715 N1712 1.350 . S
C1715 C1714 1.434 . S
C1716 C1717 1.369 . S
C1716 C1718 1.419 . S
C1716 H1720 0.930 . S
C1717 C1716 1.369 . S
C1717 C1726 1.429 . S
C1718 C1716 1.419 . S
C1718 C1719 1.363 . S
C1718 H1721 0.929 . S
C1719 C1718 1.363 . S
C1719 C1725 1.428 . S
H1720 C1716 0.930 . S
H1721 C1718 0.929 . S
S1722 N1723 1.613 . S
S1722 N1724 1.610 . S
N1723 S1722 1.613 . S
N1723 C1726 1.350 . S
N1724 S1722 1.610 . S
N1724 C1725 1.351 . S
C1725 C1719 1.428 . S
C1725 N1724 1.351 . S
C1725 C1726 1.434 . S
C1726 C1717 1.429 . S
C1726 N1723 1.350 . S
C1726 C1725 1.434 . S
C1727 C1728 1.369 . S
C1727 C1729 1.419 . S
C1727 H1731 0.930 . S
C1728 C1727 1.369 . S
C1728 C1737 1.429 . S
C1729 C1727 1.419 . S
C1729 C1730 1.363 . S
C1729 H1732 0.929 . S
C1730 C1729 1.363 . S
C1730 C1736 1.428 . S
H1731 C1727 0.930 . S
H1732 C1729 0.929 . S
S1733 N1734 1.613 . S
S1733 N1735 1.610 . S
N1734 S1733 1.613 . S
N1734 C1737 1.350 . S
N1735 S1733 1.610 . S
N1735 C1736 1.351 . S
C1736 C1730 1.428 . S
C1736 N1735 1.351 . S
C1736 C1737 1.434 . S
C1737 C1728 1.429 . S
C1737 N1734 1.350 . S
C1737 C1736 1.434 . S
C1738 C1739 1.369 . S
C1738 C1740 1.419 . S
C1738 H1742 0.930 . S
C1739 C1738 1.369 . S
C1739 C1748 1.429 . S
C1740 C1738 1.419 . S
C1740 C1741 1.363 . S
C1740 H1743 0.929 . S
C1741 C1740 1.363 . S
C1741 C1747 1.428 . S
H1742 C1738 0.930 . S
H1743 C1740 0.929 . S
S1744 N1745 1.613 . S
S1744 N1746 1.610 . S
N1745 S1744 1.613 . S
N1745 C1748 1.350 1_655 S
N1746 S1744 1.610 . S
N1746 C1747 1.351 1_655 S
C1747 C1741 1.428 . S
C1747 N1746 1.351 1_455 S
C1747 C1748 1.434 . S
C1748 C1739 1.429 . S
C1748 N1745 1.350 1_455 S
C1748 C1747 1.434 . S
C1749 C1750 1.369 . S
C1749 C1751 1.419 . S
C1749 H1753 0.930 . S
C1750 C1749 1.369 . S
C1750 C1759 1.429 . S
C1751 C1749 1.419 . S
C1751 C1752 1.363 . S
C1751 H1754 0.929 . S
C1752 C1751 1.363 . S
C1752 C1758 1.428 . S
H1753 C1749 0.930 . S
H1754 C1751 0.929 . S
S1755 N1756 1.613 . S
S1755 N1757 1.610 . S
N1756 S1755 1.613 . S
N1756 C1759 1.350 . S
N1757 S1755 1.610 . S
N1757 C1758 1.351 . S
C1758 C1752 1.428 . S
C1758 N1757 1.351 . S
C1758 C1759 1.434 . S
C1759 C1750 1.429 . S
C1759 N1756 1.350 . S
C1759 C1758 1.434 . S
C1760 C1761 1.369 . S
C1760 C1762 1.419 . S
C1760 H1764 0.930 . S
C1761 C1760 1.369 . S
C1761 C1770 1.429 . S
C1762 C1760 1.419 . S
C1762 C1763 1.363 . S
C1762 H1765 0.929 . S
C1763 C1762 1.363 . S
C1763 C1769 1.428 . S
H1764 C1760 0.930 . S
H1765 C1762 0.929 . S
S1766 N1767 1.613 . S
S1766 N1768 1.610 . S
N1767 S1766 1.613 . S
N1767 C1770 1.350 . S
N1768 S1766 1.610 . S
N1768 C1769 1.351 . S
C1769 C1763 1.428 . S
C1769 N1768 1.351 . S
C1769 C1770 1.434 . S
C1770 C1761 1.429 . S
C1770 N1767 1.350 . S
C1770 C1769 1.434 . S
C1771 C1772 1.369 . S
C1771 C1773 1.419 . S
C1771 H1775 0.930 . S
C1772 C1771 1.369 . S
C1772 C1781 1.429 . S
C1773 C1771 1.419 . S
C1773 C1774 1.363 . S
C1773 H1776 0.929 . S
C1774 C1773 1.363 . S
C1774 C1780 1.428 . S
H1775 C1771 0.930 . S
H1776 C1773 0.929 . S
S1777 N1778 1.613 . S
S1777 N1779 1.610 . S
N1778 S1777 1.613 . S
N1778 C1781 1.350 . S
N1779 S1777 1.610 . S
N1779 C1780 1.351 . S
C1780 C1774 1.428 . S
C1780 N1779 1.351 . S
C1780 C1781 1.434 . S
C1781 C1772 1.429 . S
C1781 N1778 1.350 . S
C1781 C1780 1.434 . S
C1782 C1783 1.369 . S
C1782 C1784 1.419 . S
C1782 H1786 0.930 . S
C1783 C1782 1.369 . S
C1783 C1792 1.429 . S
C1784 C1782 1.419 . S
C1784 C1785 1.363 . S
C1784 H1787 0.929 . S
C1785 C1784 1.363 . S
C1785 C1791 1.428 . S
H1786 C1782 0.930 . S
H1787 C1784 0.929 . S
S1788 N1789 1.613 . S
S1788 N1790 1.610 . S
N1789 S1788 1.613 . S
N1789 C1792 1.350 . S
N1790 S1788 1.610 . S
N1790 C1791 1.351 . S
C1791 C1785 1.428 . S
C1791 N1790 1.351 . S
C1791 C1792 1.434 . S
C1792 C1783 1.429 . S
C1792 N1789 1.350 . S
C1792 C1791 1.434 . S
C1793 C1794 1.369 . S
C1793 C1795 1.419 . S
C1793 H1797 0.930 . S
C1794 C1793 1.369 . S
C1794 C1803 1.429 . S
C1795 C1793 1.419 . S
C1795 C1796 1.363 . S
C1795 H1798 0.929 . S
C1796 C1795 1.363 . S
C1796 C1802 1.428 . S
H1797 C1793 0.930 . S
H1798 C1795 0.929 . S
S1799 N1800 1.613 . S
S1799 N1801 1.610 . S
N1800 S1799 1.613 . S
N1800 C1803 1.350 . S
N1801 S1799 1.610 . S
N1801 C1802 1.351 . S
C1802 C1796 1.428 . S
C1802 N1801 1.351 . S
C1802 C1803 1.434 . S
C1803 C1794 1.429 . S
C1803 N1800 1.350 . S
C1803 C1802 1.434 . S
C1804 C1805 1.369 . S
C1804 C1806 1.419 . S
C1804 H1808 0.930 . S
C1805 C1804 1.369 . S
C1805 C1814 1.429 . S
C1806 C1804 1.419 . S
C1806 C1807 1.363 . S
C1806 H1809 0.929 . S
C1807 C1806 1.363 . S
C1807 C1813 1.428 . S
H1808 C1804 0.930 . S
H1809 C1806 0.929 . S
S1810 N1811 1.613 . S
S1810 N1812 1.610 . S
N1811 S1810 1.613 . S
N1811 C1814 1.350 . S
N1812 S1810 1.610 . S
N1812 C1813 1.351 . S
C1813 C1807 1.428 . S
C1813 N1812 1.351 . S
C1813 C1814 1.434 . S
C1814 C1805 1.429 . S
C1814 N1811 1.350 . S
C1814 C1813 1.434 . S
C1815 C1816 1.369 . S
C1815 C1817 1.419 . S
C1815 H1819 0.930 . S
C1816 C1815 1.369 . S
C1816 C1825 1.429 . S
C1817 C1815 1.419 . S
C1817 C1818 1.363 . S
C1817 H1820 0.929 . S
C1818 C1817 1.363 . S
C1818 C1824 1.428 . S
H1819 C1815 0.930 . S
H1820 C1817 0.929 . S
S1821 N1822 1.613 . S
S1821 N1823 1.610 . S
N1822 S1821 1.613 . S
N1822 C1825 1.350 . S
N1823 S1821 1.610 . S
N1823 C1824 1.351 . S
C1824 C1818 1.428 . S
C1824 N1823 1.351 . S
C1824 C1825 1.434 . S
C1825 C1816 1.429 . S
C1825 N1822 1.350 . S
C1825 C1824 1.434 . S
C1826 C1827 1.369 . S
C1826 C1828 1.419 . S
C1826 H1830 0.930 . S
C1827 C1826 1.369 . S
C1827 C1836 1.429 . S
C1828 C1826 1.419 . S
C1828 C1829 1.363 . S
C1828 H1831 0.929 . S
C1829 C1828 1.363 . S
C1829 C1835 1.428 . S
H1830 C1826 0.930 . S
H1831 C1828 0.929 . S
S1832 N1833 1.613 . S
S1832 N1834 1.610 . S
N1833 S1832 1.613 . S
N1833 C1836 1.350 . S
N1834 S1832 1.610 . S
N1834 C1835 1.351 . S
C1835 C1829 1.428 . S
C1835 N1834 1.351 . S
C1835 C1836 1.434 . S
C1836 C1827 1.429 . S
C1836 N1833 1.350 . S
C1836 C1835 1.434 . S
C1837 C1838 1.369 . S
C1837 C1839 1.419 . S
C1837 H1841 0.930 . S
C1838 C1837 1.369 . S
C1838 C1847 1.429 . S
C1839 C1837 1.419 . S
C1839 C1840 1.363 . S
C1839 H1842 0.929 . S
C1840 C1839 1.363 . S
C1840 C1846 1.428 . S
H1841 C1837 0.930 . S
H1842 C1839 0.929 . S
S1843 N1844 1.613 . S
S1843 N1845 1.610 . S
N1844 S1843 1.613 . S
N1844 C1847 1.350 . S
N1845 S1843 1.610 . S
N1845 C1846 1.351 . S
C1846 C1840 1.428 . S
C1846 N1845 1.351 . S
C1846 C1847 1.434 . S
C1847 C1838 1.429 . S
C1847 N1844 1.350 . S
C1847 C1846 1.434 . S
C1848 C1849 1.369 . S
C1848 C1850 1.419 . S
C1848 H1852 0.930 . S
C1849 C1848 1.369 . S
C1849 C1858 1.429 . S
C1850 C1848 1.419 . S
C1850 C1851 1.363 . S
C1850 H1853 0.929 . S
C1851 C1850 1.363 . S
C1851 C1857 1.428 . S
H1852 C1848 0.930 . S
H1853 C1850 0.929 . S
S1854 N1855 1.613 . S
S1854 N1856 1.610 . S
N1855 S1854 1.613 . S
N1855 C1858 1.350 . S
N1856 S1854 1.610 . S
N1856 C1857 1.351 . S
C1857 C1851 1.428 . S
C1857 N1856 1.351 . S
C1857 C1858 1.434 . S
C1858 C1849 1.429 . S
C1858 N1855 1.350 . S
C1858 C1857 1.434 . S
C1859 C1860 1.369 . S
C1859 C1861 1.419 . S
C1859 H1863 0.930 . S
C1860 C1859 1.369 . S
C1860 C1869 1.429 . S
C1861 C1859 1.419 . S
C1861 C1862 1.363 . S
C1861 H1864 0.929 . S
C1862 C1861 1.363 . S
C1862 C1868 1.428 . S
H1863 C1859 0.930 . S
H1864 C1861 0.929 . S
S1865 N1866 1.613 . S
S1865 N1867 1.610 . S
N1866 S1865 1.613 . S
N1866 C1869 1.350 . S
N1867 S1865 1.610 . S
N1867 C1868 1.351 . S
C1868 C1862 1.428 . S
C1868 N1867 1.351 . S
C1868 C1869 1.434 . S
C1869 C1860 1.429 . S
C1869 N1866 1.350 . S
C1869 C1868 1.434 . S
C1870 C1871 1.369 . S
C1870 C1872 1.419 . S
C1870 H1874 0.930 . S
C1871 C1870 1.369 . S
C1871 C1880 1.429 . S
C1872 C1870 1.419 . S
C1872 C1873 1.363 . S
C1872 H1875 0.929 . S
C1873 C1872 1.363 . S
C1873 C1879 1.428 . S
H1874 C1870 0.930 . S
H1875 C1872 0.929 . S
S1876 N1877 1.613 . S
S1876 N1878 1.610 . S
N1877 S1876 1.613 . S
N1877 C1880 1.350 . S
N1878 S1876 1.610 . S
N1878 C1879 1.351 . S
C1879 C1873 1.428 . S
C1879 N1878 1.351 . S
C1879 C1880 1.434 . S
C1880 C1871 1.429 . S
C1880 N1877 1.350 . S
C1880 C1879 1.434 . S
C1881 C1882 1.369 . S
C1881 C1883 1.419 1_565 S
C1881 H1885 0.930 . S
C1882 C1881 1.369 . S
C1882 C1891 1.429 . S
C1883 C1881 1.419 1_545 S
C1883 C1884 1.363 . S
C1883 H1886 0.929 . S
C1884 C1883 1.363 . S
C1884 C1890 1.428 1_545 S
H1885 C1881 0.930 . S
H1886 C1883 0.929 . S
S1887 N1888 1.609 1_556 S
S1887 N1889 1.610 . S
N1888 S1887 1.609 1_554 S
N1888 C1891 1.354 . S
N1889 S1887 1.610 . S
N1889 C1890 1.351 1_556 S
C1890 C1884 1.428 1_565 S
C1890 N1889 1.351 1_554 S
C1890 C1891 1.434 . S
C1891 C1882 1.429 . S
C1891 N1888 1.354 . S
C1891 C1890 1.434 . S
C1892 C1893 1.369 . S
C1892 C1894 1.419 . S
C1892 H1896 0.930 . S
C1893 C1892 1.369 . S
C1893 C1902 1.429 . S
C1894 C1892 1.419 . S
C1894 C1895 1.363 . S
C1894 H1897 0.929 . S
C1895 C1894 1.363 . S
C1895 C1901 1.428 . S
H1896 C1892 0.930 . S
H1897 C1894 0.929 . S
S1898 N1899 1.613 . S
S1898 N1900 1.610 . S
N1899 S1898 1.613 . S
N1899 C1902 1.350 . S
N1900 S1898 1.610 . S
N1900 C1901 1.351 . S
C1901 C1895 1.428 . S
C1901 N1900 1.351 . S
C1901 C1902 1.434 . S
C1902 C1893 1.429 . S
C1902 N1899 1.350 . S
C1902 C1901 1.434 . S
C1903 C1904 1.369 . S
C1903 C1905 1.419 . S
C1903 H1907 0.930 . S
C1904 C1903 1.369 . S
C1904 C1913 1.429 . S
C1905 C1903 1.419 . S
C1905 C1906 1.363 . S
C1905 H1908 0.929 . S
C1906 C1905 1.363 . S
C1906 C1912 1.428 . S
H1907 C1903 0.930 . S
H1908 C1905 0.929 . S
S1909 N1910 1.613 1_554 S
S1909 N1911 1.610 . S
N1910 S1909 1.613 1_556 S
N1910 C1913 1.350 1_556 S
N1911 S1909 1.610 . S
N1911 C1912 1.351 . S
C1912 C1906 1.428 . S
C1912 N1911 1.351 . S
C1912 C1913 1.434 . S
C1913 C1904 1.429 . S
C1913 N1910 1.350 1_554 S
C1913 C1912 1.434 . S
C1914 C1915 1.369 . S
C1914 C1916 1.419 . S
C1914 H1918 0.930 . S
C1915 C1914 1.369 . S
C1915 C1924 1.429 . S
C1916 C1914 1.419 . S
C1916 C1917 1.363 . S
C1916 H1919 0.929 . S
C1917 C1916 1.363 . S
C1917 C1923 1.428 . S
H1918 C1914 0.930 . S
H1919 C1916 0.929 . S
S1920 N1921 1.613 . S
S1920 N1922 1.610 . S
N1921 S1920 1.613 . S
N1921 C1924 1.350 . S
N1922 S1920 1.610 . S
N1922 C1923 1.351 . S
C1923 C1917 1.428 . S
C1923 N1922 1.351 . S
C1923 C1924 1.434 . S
C1924 C1915 1.429 . S
C1924 N1921 1.350 . S
C1924 C1923 1.434 . S
C1925 C1926 1.369 . S
C1925 C1927 1.419 . S
C1925 H1929 0.930 . S
C1926 C1925 1.369 . S
C1926 C1935 1.429 . S
C1927 C1925 1.419 . S
C1927 C1928 1.363 . S
C1927 H1930 0.929 . S
C1928 C1927 1.363 . S
C1928 C1934 1.428 . S
H1929 C1925 0.930 . S
H1930 C1927 0.929 . S
S1931 N1932 1.613 . S
S1931 N1933 1.610 . S
N1932 S1931 1.613 . S
N1932 C1935 1.350 . S
N1933 S1931 1.610 . S
N1933 C1934 1.351 . S
C1934 C1928 1.428 . S
C1934 N1933 1.351 . S
C1934 C1935 1.434 . S
C1935 C1926 1.429 . S
C1935 N1932 1.350 . S
C1935 C1934 1.434 . S
C883 C353 1.393 . S
C881 C8 1.382 . S
C892 C22 2.311 . S
C894 C399 2.294 . S
C903 C35 0.865 . S
C905 C408 0.869 . S
C916 C446 1.758 . S
C914 C49 1.731 . S
C925 C23 2.148 . S
C927 C480 2.098 . S
C938 C510 0.847 . S
C936 C34 0.839 . S
C949 C569 1.666 1_556 S
C947 C48 1.611 . S
C958 C9 1.310 . S
C960 C582 1.345 . S
C969 C64 1.643 . S
C971 C365 1.625 . S
C980 C77 1.200 . S
C982 C383 1.222 . S
C993 C404 2.082 . S
C991 C92 2.122 . S
C1004 C442 1.133 . S
C1002 C105 1.095 . S
C1013 C63 1.370 . S
C1015 C476 1.352 . S
C1026 C506 2.014 . S
C1024 C78 2.039 . S
C1037 C553 1.369 . S
C1035 C91 1.352 . S
C1048 C578 0.938 . S
C1046 C106 0.962 . S
C1059 C349 0.974 . S
C1057 C107 0.974 . S
C1070 C608 1.656 . S
C1068 C118 1.635 . S
C1079 C135 1.787 . S
C1081 C650 1.820 . S
C1092 C693 0.644 . S
C1090 C146 0.640 . S
C1101 C65 1.620 . S
C1103 C574 1.604 . S
C1114 C412 1.854 1_565 S
C1112 C79 1.814 . S
C1123 C132 1.487 . S
C1125 C710 1.518 . S
C1136 C761 1.622 . S
C1134 C160 1.585 . S
C1145 C177 1.533 . S
C1147 C344 1.480 1_556 S
C1158 C744 1.819 . S
C1156 C188 1.807 . S
C1167 C204 1.239 . S
C1169 C417 1.221 . S
C1178 C219 1.821 . S
C1180 C727 1.772 . S
C1191 C489 1.804 . S
C1189 C190 1.861 . S
C1202 C655 0.919 . S
C1200 C202 0.899 . S
C1213 C540 1.626 . S
C1211 C217 1.587 . S
C1224 C795 1.267 . S
C1222 C175 1.229 . S
C1235 C336 1.554 . S
C1233 C231 1.543 1_545 S
C1244 C246 1.446 . S
C1246 C748 1.409 . S
C1257 C433 1.744 . S
C1255 C259 1.705 . S
C1266 C274 1.189 . S
C1268 C723 1.130 . S
C1277 C232 1.492 . S
C1279 C485 1.435 . S
C1288 C245 1.648 . S
C1290 C671 1.669 . S
C1301 C544 1.376 . S
C1299 C260 1.437 . S
C1310 C273 0.831 . S
C1312 C791 0.815 . S
C1321 C275 1.010 . S
C1323 C340 0.983 . S
C1332 C286 1.603 . S
C1334 C637 1.632 . S
C1343 C303 1.631 . S
C1345 C523 1.586 . S
C1354 C314 0.578 . S
C1356 C684 0.521 . S
C1367 C807 1.582 . S
C1365 C233 1.673 . S
C1378 C421 1.668 . S
C1376 C247 1.692 . S
C1389 C467 1.383 . S
C1387 C300 1.342 . S
C1400 C378 1.606 . S
C1398 C328 1.568 . S
C1409 C36 1.315 . S
C1411 C829 1.309 . S
C1422 C773 2.300 . S
C1420 C50 2.314 . S
C1433 C850 0.907 . S
C1431 C7 0.889 . S
C1442 C21 1.741 . S
C1444 C718 1.757 . S
C1453 C51 2.145 . S
C1455 C616 2.098 1_556 S
C1466 C646 0.881 . S
C1464 C6 0.878 1_655 S
C1477 C705 1.670 . S
C1475 C20 1.614 . S
C1488 C786 1.264 . S
C1486 C37 1.249 . S
C1499 C841 1.553 . S
C1497 C162 1.592 . S
C1508 C119 1.175 1_556 S
C1510 C757 1.202 . S
C1519 C134 2.086 . S
C1521 C846 2.026 . S
C1532 C714 1.095 . S
C1530 C147 1.085 . S
C1543 C612 1.338 . S
C1541 C161 1.356 . S
C1552 C120 2.009 . S
C1554 C642 1.960 . S
C1565 C689 1.361 . S
C1563 C133 1.312 . S
C1574 C148 0.960 . S
C1576 C782 0.949 . S
C1587 C825 0.913 . S
C1585 C149 0.904 . S
C1598 C472 1.598 1_565 S
C1596 C76 1.576 . S
C1609 C514 1.808 . S
C1607 C93 1.787 . S
C1618 C104 0.635 . S
C1620 C557 0.608 . S
C1631 C778 1.629 . S
C1629 C163 1.620 . S
C1640 C121 1.819 . S
C1642 C854 1.872 . S
C1653 C438 1.480 . S
C1651 C90 1.441 . S
C1664 C387 1.583 . S
C1662 C62 1.539 . S
C1673 C203 1.279 . S
C1675 C820 1.384 . S
C1686 C370 1.861 . S
C1684 C216 1.836 . S
C1697 C859 1.035 . S
C1695 C174 0.981 . S
C1706 C191 1.859 . S
C1708 C455 1.806 . S
C1717 C218 1.809 . S
C1719 C625 1.758 . S
C1728 C176 1.130 . S
C1730 C519 1.120 . S
C1739 C189 1.538 . S
C1741 C676 1.570 . S
C1750 C205 1.423 . S
C1752 C591 1.337 . S
C1763 C812 1.530 . S
C1761 C329 1.555 . S
C1772 C288 1.414 . S
C1774 C374 1.370 . S
C1785 C875 1.693 . S
C1783 C301 1.672 . S
C1794 C316 1.174 . S
C1796 C451 1.093 . S
C1805 C330 1.531 . S
C1807 C621 1.495 . S
C1818 C535 1.713 . S
C1816 C287 1.690 . S
C1827 C302 1.466 . S
C1829 C680 1.415 . S
C1840 C587 0.880 . S
C1838 C315 0.846 . S
C1851 C816 0.988 . S
C1849 C317 1.034 . S
C1862 C501 1.622 . S
C1860 C244 1.604 . S
C1871 C261 1.584 . S
C1873 C659 1.537 . S
C1884 C548 0.507 . S
C1882 C272 0.528 . S
C1895 C603 1.639 . S
C1893 C331 1.703 . S
C1904 C289 1.631 . S
C1906 C863 1.587 . S
C1917 C739 1.429 . S
C1915 C258 1.378 . S
C1928 C752 1.627 . S
C1926 C230 1.561 . S
