# Generated by pormake.
# Topology ocu, (6,8)-cn, num edge types: 1
# Building blocks:
#     Node 0, Type 0, BuildingBlock: JUFBIX_clean_sbu_0, # of connection points: 6
#     Node 1, Type 0, BuildingBlock: JUFBIX_clean_sbu_0, # of connection points: 6
#     Node 2, Type 0, BuildingBlock: JUFBIX_clean_sbu_0, # of connection points: 6
#     Node 3, Type 0, BuildingBlock: JUFBIX_clean_sbu_0, # of connection points: 6
#     Node 4, Type 0, BuildingBlock: JUFBIX_clean_sbu_0, # of connection points: 6
#     Node 5, Type 0, BuildingBlock: JUFBIX_clean_sbu_0, # of connection points: 6
#     Node 6, Type 0, BuildingBlock: JUFBIX_clean_sbu_0, # of connection points: 6
#     Node 7, Type 0, BuildingBlock: JUFBIX_clean_sbu_0, # of connection points: 6
#     Node 8, Type 1, BuildingBlock: TAGTUT_clean_sbu_1, # of connection points: 8
#     Node 9, Type 1, BuildingBlock: TAGTUT_clean_sbu_1, # of connection points: 8
#     Node 10, Type 1, BuildingBlock: TAGTUT_clean_sbu_1, # of connection points: 8
#     Node 11, Type 1, BuildingBlock: TAGTUT_clean_sbu_1, # of connection points: 8
#     Node 12, Type 1, BuildingBlock: TAGTUT_clean_sbu_1, # of connection points: 8
#     Node 13, Type 1, BuildingBlock: TAGTUT_clean_sbu_1, # of connection points: 8
#     Edge 14, Type (0, 1), BuildingBlock: TEMPAE_clean_linker_10, # of connection points: 2
#     Edge 15, Type (0, 1), BuildingBlock: TEMPAE_clean_linker_10, # of connection points: 2
#     Edge 16, Type (0, 1), BuildingBlock: TEMPAE_clean_linker_10, # of connection points: 2
#     Edge 17, Type (0, 1), BuildingBlock: TEMPAE_clean_linker_10, # of connection points: 2
#     Edge 18, Type (0, 1), BuildingBlock: TEMPAE_clean_linker_10, # of connection points: 2
#     Edge 19, Type (0, 1), BuildingBlock: TEMPAE_clean_linker_10, # of connection points: 2
#     Edge 20, Type (0, 1), BuildingBlock: TEMPAE_clean_linker_10, # of connection points: 2
#     Edge 21, Type (0, 1), BuildingBlock: TEMPAE_clean_linker_10, # of connection points: 2
#     Edge 22, Type (0, 1), BuildingBlock: TEMPAE_clean_linker_10, # of connection points: 2
#     Edge 23, Type (0, 1), BuildingBlock: TEMPAE_clean_linker_10, # of connection points: 2
#     Edge 24, Type (0, 1), BuildingBlock: TEMPAE_clean_linker_10, # of connection points: 2
#     Edge 25, Type (0, 1), BuildingBlock: TEMPAE_clean_linker_10, # of connection points: 2
#     Edge 26, Type (0, 1), BuildingBlock: TEMPAE_clean_linker_10, # of connection points: 2
#     Edge 27, Type (0, 1), BuildingBlock: TEMPAE_clean_linker_10, # of connection points: 2
#     Edge 28, Type (0, 1), BuildingBlock: TEMPAE_clean_linker_10, # of connection points: 2
#     Edge 29, Type (0, 1), BuildingBlock: TEMPAE_clean_linker_10, # of connection points: 2
#     Edge 30, Type (0, 1), BuildingBlock: TEMPAE_clean_linker_10, # of connection points: 2
#     Edge 31, Type (0, 1), BuildingBlock: TEMPAE_clean_linker_10, # of connection points: 2
#     Edge 32, Type (0, 1), BuildingBlock: TEMPAE_clean_linker_10, # of connection points: 2
#     Edge 33, Type (0, 1), BuildingBlock: TEMPAE_clean_linker_10, # of connection points: 2
#     Edge 34, Type (0, 1), BuildingBlock: TEMPAE_clean_linker_10, # of connection points: 2
#     Edge 35, Type (0, 1), BuildingBlock: TEMPAE_clean_linker_10, # of connection points: 2
#     Edge 36, Type (0, 1), BuildingBlock: TEMPAE_clean_linker_10, # of connection points: 2
#     Edge 37, Type (0, 1), BuildingBlock: TEMPAE_clean_linker_10, # of connection points: 2
#     Edge 38, Type (0, 1), BuildingBlock: TEMPAE_clean_linker_10, # of connection points: 2
#     Edge 39, Type (0, 1), BuildingBlock: TEMPAE_clean_linker_10, # of connection points: 2
#     Edge 40, Type (0, 1), BuildingBlock: TEMPAE_clean_linker_10, # of connection points: 2
#     Edge 41, Type (0, 1), BuildingBlock: TEMPAE_clean_linker_10, # of connection points: 2
#     Edge 42, Type (0, 1), BuildingBlock: TEMPAE_clean_linker_10, # of connection points: 2
#     Edge 43, Type (0, 1), BuildingBlock: TEMPAE_clean_linker_10, # of connection points: 2
#     Edge 44, Type (0, 1), BuildingBlock: TEMPAE_clean_linker_10, # of connection points: 2
#     Edge 45, Type (0, 1), BuildingBlock: TEMPAE_clean_linker_10, # of connection points: 2
#     Edge 46, Type (0, 1), BuildingBlock: TEMPAE_clean_linker_10, # of connection points: 2
#     Edge 47, Type (0, 1), BuildingBlock: TEMPAE_clean_linker_10, # of connection points: 2
#     Edge 48, Type (0, 1), BuildingBlock: TEMPAE_clean_linker_10, # of connection points: 2
#     Edge 49, Type (0, 1), BuildingBlock: TEMPAE_clean_linker_10, # of connection points: 2
#     Edge 50, Type (0, 1), BuildingBlock: TEMPAE_clean_linker_10, # of connection points: 2
#     Edge 51, Type (0, 1), BuildingBlock: TEMPAE_clean_linker_10, # of connection points: 2
#     Edge 52, Type (0, 1), BuildingBlock: TEMPAE_clean_linker_10, # of connection points: 2
#     Edge 53, Type (0, 1), BuildingBlock: TEMPAE_clean_linker_10, # of connection points: 2
#     Edge 54, Type (0, 1), BuildingBlock: TEMPAE_clean_linker_10, # of connection points: 2
#     Edge 55, Type (0, 1), BuildingBlock: TEMPAE_clean_linker_10, # of connection points: 2
#     Edge 56, Type (0, 1), BuildingBlock: TEMPAE_clean_linker_10, # of connection points: 2
#     Edge 57, Type (0, 1), BuildingBlock: TEMPAE_clean_linker_10, # of connection points: 2
#     Edge 58, Type (0, 1), BuildingBlock: TEMPAE_clean_linker_10, # of connection points: 2
#     Edge 59, Type (0, 1), BuildingBlock: TEMPAE_clean_linker_10, # of connection points: 2
#     Edge 60, Type (0, 1), BuildingBlock: TEMPAE_clean_linker_10, # of connection points: 2
#     Edge 61, Type (0, 1), BuildingBlock: TEMPAE_clean_linker_10, # of connection points: 2
# Relax obj value: 0.185
# Max RMSD: 0.311
# Mean RMSD: 0.181
data_MOF--net-ocu--node1-JUFBIX_clean_sbu_0--node2-TAGTUT_clean_sbu_1--edge1-TEMPAE_clean_linker_10
_symmetry_space_group_name_H-M    P1
_symmetry_Int_Tables_number       1
_symmetry_cell_setting            triclinic
loop_
_symmetry_equiv_pos_as_xyz
'x, y, z'
_cell_length_a     38.026794
_cell_length_b     36.816868
_cell_length_c     39.828469
_cell_angle_alpha  93.486765
_cell_angle_beta   95.404197
_cell_angle_gamma 100.73529
loop_
_atom_site_label
_atom_site_type_symbol
_atom_site_fract_x
_atom_site_fract_y
_atom_site_fract_z
_atom_type_partial_charge
Co0 Co 0.23616 0.23531 0.24442 0.0
C1 C 0.23485 0.28964 0.2972 0.0
Co2 Co 0.28364 0.27977 0.25217 0.0
C3 C 0.17426 0.18834 0.26307 0.0
C4 C 0.17641 0.18148 0.2097 0.0
N5 N 0.19484 0.19931 0.23855 0.0
N6 N 0.14352 0.16514 0.25082 0.0
C7 C 0.14478 0.15996 0.21729 0.0
H8 H 0.18144 0.19735 0.28961 0.0
H9 H 0.18485 0.18475 0.18469 0.0
C10 C 0.28555 0.22549 0.19973 0.0
N11 N 0.32453 0.31578 0.25809 0.0
C12 C 0.34188 0.3311 0.23307 0.0
C13 C 0.34425 0.33174 0.28695 0.0
N14 N 0.37167 0.35618 0.2449 0.0
C15 C 0.37344 0.35668 0.27888 0.0
C16 C 0.29093 0.21893 0.28962 0.0
O17 O 0.25363 0.21295 0.20613 0.0
O18 O 0.30355 0.25411 0.21723 0.0
O19 O 0.30527 0.2521 0.2851 0.0
O20 O 0.26026 0.205 0.27361 0.0
O21 O 0.26413 0.30518 0.28695 0.0
H22 H 0.33789 0.3255 0.31213 0.0
H23 H 0.33305 0.32332 0.20655 0.0
O24 O 0.219 0.25825 0.28302 0.0
O25 O 0.21226 0.26539 0.21572 0.0
O26 O 0.26144 0.30772 0.21892 0.0
C27 C 0.22854 0.29636 0.20736 0.0
H28 H 0.124 0.14283 0.19965 0.0
H29 H 0.39401 0.37404 0.29656 0.0
Co30 Co 0.79793 0.26005 0.23564 0.0
C31 C 0.78089 0.3047 0.29131 0.0
Co32 Co 0.74743 0.24226 0.2572 0.0
C33 C 0.86412 0.28706 0.20455 0.0
C34 C 0.87177 0.27918 0.25724 0.0
N35 N 0.84602 0.276 0.23074 0.0
N36 N 0.89998 0.29675 0.21393 0.0
C37 C 0.90474 0.29138 0.24695 0.0
H38 H 0.85114 0.29004 0.17976 0.0
H39 H 0.86692 0.27421 0.28305 0.0
C40 C 0.76479 0.19765 0.20176 0.0
N41 N 0.70034 0.22543 0.26327 0.0
C42 C 0.68444 0.21909 0.2916 0.0
C43 C 0.67371 0.21545 0.23771 0.0
N44 N 0.64884 0.20486 0.2847 0.0
C45 C 0.64216 0.20274 0.25072 0.0
C46 C 0.74761 0.29294 0.20408 0.0
O47 O 0.79295 0.22196 0.20052 0.0
O48 O 0.74345 0.20246 0.22358 0.0
O49 O 0.73048 0.27317 0.22453 0.0
O50 O 0.78111 0.29269 0.20348 0.0
O51 O 0.75154 0.28168 0.29095 0.0
H52 H 0.67727 0.21613 0.2111 0.0
H53 H 0.69911 0.22395 0.31657 0.0
O54 O 0.803 0.29868 0.27063 0.0
O55 O 0.81362 0.22697 0.26669 0.0
O56 O 0.76462 0.21137 0.29081 0.0
C57 C 0.79728 0.20894 0.28851 0.0
H58 H 0.93007 0.29777 0.26296 0.0
H59 H 0.61687 0.19066 0.23599 0.0
Co60 Co 0.75506 0.73037 0.26971 0.0
C61 C 0.79269 0.79901 0.29565 0.0
Co62 Co 0.74956 0.77452 0.23632 0.0
C63 C 0.77702 0.66418 0.28867 0.0
C64 C 0.75756 0.69178 0.32988 0.0
N65 N 0.76137 0.693 0.2967 0.0
N66 N 0.78498 0.64596 0.31583 0.0
C67 C 0.77209 0.66294 0.34173 0.0
H68 H 0.78488 0.65847 0.2638 0.0
H69 H 0.74781 0.7124 0.34505 0.0
C70 C 0.71254 0.70548 0.21011 0.0
N71 N 0.74346 0.81213 0.20962 0.0
C72 C 0.73001 0.84214 0.21875 0.0
C73 C 0.74617 0.81342 0.17625 0.0
N74 N 0.72251 0.86137 0.1922 0.0
C75 C 0.73326 0.84365 0.16545 0.0
C76 C 0.80503 0.74012 0.22126 0.0
O77 O 0.72588 0.69535 0.23754 0.0
O78 O 0.71765 0.73968 0.20496 0.0
O79 O 0.78827 0.76527 0.21231 0.0
O80 O 0.7963 0.72311 0.24697 0.0
O81 O 0.78153 0.80921 0.26742 0.0
H82 H 0.75424 0.7922 0.16037 0.0
H83 H 0.72338 0.84827 0.24403 0.0
O84 O 0.78455 0.76532 0.3019 0.0
O85 O 0.71434 0.73811 0.29237 0.0
O86 O 0.71043 0.78359 0.26043 0.0
C87 C 0.69976 0.76532 0.2848 0.0
H88 H 0.77634 0.65769 0.3681 0.0
H89 H 0.72855 0.84966 0.13931 0.0
Co90 Co 0.24426 0.76918 0.24546 0.0
C91 C 0.2895 0.79801 0.30276 0.0
Co92 Co 0.28688 0.73776 0.2572 0.0
C93 C 0.19144 0.81092 0.25836 0.0
C94 C 0.20039 0.81054 0.20619 0.0
N95 N 0.20848 0.79518 0.23518 0.0
N96 N 0.17434 0.83664 0.24561 0.0
C97 C 0.17968 0.83666 0.21274 0.0
H98 H 0.1953 0.8071 0.28513 0.0
H99 H 0.21193 0.80597 0.18284 0.0
C100 C 0.24161 0.7091 0.20019 0.0
N101 N 0.32369 0.71227 0.26598 0.0
C102 C 0.34585 0.70643 0.24273 0.0
C103 C 0.33677 0.69829 0.29409 0.0
N104 N 0.37266 0.69036 0.25502 0.0
C105 C 0.36705 0.68437 0.28725 0.0
C106 C 0.22377 0.71158 0.28946 0.0
O107 O 0.2262 0.73575 0.20772 0.0
O108 O 0.26911 0.70448 0.21871 0.0
O109 O 0.2554 0.70578 0.28541 0.0
O110 O 0.21335 0.73783 0.27402 0.0
O111 O 0.3049 0.77118 0.29558 0.0
H112 H 0.32558 0.69894 0.31805 0.0
H113 H 0.3426 0.71402 0.21694 0.0
O114 O 0.26235 0.80269 0.28373 0.0
O115 O 0.2753 0.80091 0.21724 0.0
O116 O 0.31768 0.76995 0.22889 0.0
C117 C 0.30697 0.79582 0.21337 0.0
H118 H 0.17248 0.85664 0.1958 0.0
H119 H 0.38403 0.67193 0.30465 0.0
Co120 Co 0.29467 0.76221 0.74294 0.0
C121 C 0.26958 0.79519 0.80097 0.0
Co122 Co 0.24203 0.73714 0.75785 0.0
C123 C 0.36187 0.79753 0.7187 0.0
C124 C 0.36657 0.78714 0.771 0.0
N125 N 0.34274 0.78266 0.74291 0.0
N126 N 0.39655 0.81116 0.73078 0.0
C127 C 0.39957 0.80467 0.76364 0.0
H128 H 0.35021 0.80014 0.6933 0.0
H129 H 0.36008 0.77927 0.79576 0.0
C130 C 0.26667 0.70426 0.69952 0.0
N131 N 0.1939 0.71703 0.75796 0.0
C132 C 0.17319 0.71004 0.78328 0.0
C133 C 0.17066 0.71008 0.72944 0.0
N134 N 0.13799 0.69907 0.77153 0.0
C135 C 0.13641 0.69896 0.73766 0.0
C136 C 0.24553 0.79678 0.7132 0.0
O137 O 0.29479 0.7295 0.70392 0.0
O138 O 0.24271 0.70404 0.71965 0.0
O139 O 0.22681 0.77312 0.72953 0.0
O140 O 0.27928 0.79787 0.71445 0.0
O141 O 0.24159 0.7699 0.79635 0.0
H142 H 0.17805 0.7137 0.70411 0.0
H143 H 0.18377 0.7126 0.80969 0.0
O144 O 0.29407 0.7953 0.7814 0.0
O145 O 0.3097 0.72642 0.77085 0.0
O146 O 0.25785 0.70146 0.78693 0.0
C147 C 0.29172 0.70296 0.78781 0.0
H148 H 0.42358 0.81324 0.7813 0.0
H149 H 0.11225 0.69149 0.72008 0.0
Co150 Co 0.28693 0.26018 0.77651 0.0
C151 C 0.30566 0.33834 0.77547 0.0
Co152 Co 0.26184 0.28564 0.73489 0.0
C153 C 0.33923 0.22708 0.81202 0.0
C154 C 0.31585 0.26169 0.84502 0.0
N155 N 0.31266 0.24645 0.81292 0.0
N156 N 0.35968 0.23074 0.84183 0.0
C157 C 0.34475 0.25188 0.86296 0.0
H158 H 0.34446 0.21178 0.78957 0.0
H159 H 0.30001 0.28101 0.85409 0.0
C160 C 0.24237 0.2077 0.73697 0.0
N161 N 0.23609 0.29889 0.69789 0.0
C162 C 0.20703 0.31486 0.69805 0.0
C163 C 0.23425 0.28304 0.66612 0.0
N164 N 0.18638 0.30823 0.66818 0.0
C165 C 0.20371 0.28878 0.64779 0.0
C166 C 0.32349 0.26197 0.71854 0.0
O167 O 0.26278 0.21056 0.76445 0.0
O168 O 0.23935 0.23632 0.72176 0.0
O169 O 0.29978 0.27977 0.70768 0.0
O170 O 0.32325 0.25203 0.74843 0.0
O171 O 0.28382 0.33572 0.74886 0.0
H172 H 0.25167 0.26499 0.6578 0.0
H173 H 0.19988 0.32902 0.72025 0.0
O174 O 0.31115 0.30919 0.78867 0.0
O175 O 0.25038 0.2683 0.80448 0.0
O176 O 0.22415 0.29126 0.76196 0.0
C177 C 0.225 0.2833 0.79249 0.0
H178 H 0.35511 0.26116 0.88891 0.0
H179 H 0.1937 0.27705 0.62234 0.0
Co180 Co 0.73615 0.27609 0.74569 0.0
C181 C 0.7804 0.30788 0.80182 0.0
Co182 Co 0.77873 0.245 0.75904 0.0
C183 C 0.67493 0.30645 0.75484 0.0
C184 C 0.68405 0.3055 0.7027 0.0
N185 N 0.69862 0.29934 0.73363 0.0
N186 N 0.64576 0.31567 0.73855 0.0
C187 C 0.65112 0.31555 0.70569 0.0
H188 H 0.6777 0.30234 0.7816 0.0
H189 H 0.6953 0.30033 0.67932 0.0
C190 C 0.73481 0.2132 0.70266 0.0
N191 N 0.81551 0.22017 0.77126 0.0
C192 C 0.84929 0.22926 0.76288 0.0
C193 C 0.81104 0.18379 0.77625 0.0
N194 N 0.86401 0.19921 0.75722 0.0
C195 C 0.84095 0.17094 0.76785 0.0
C196 C 0.71609 0.21959 0.79139 0.0
O197 O 0.71953 0.24032 0.70888 0.0
O198 O 0.7621 0.20927 0.72191 0.0
O199 O 0.74792 0.21463 0.78816 0.0
O200 O 0.70534 0.245 0.77511 0.0
O201 O 0.79569 0.28071 0.79559 0.0
H202 H 0.78565 0.16633 0.77971 0.0
H203 H 0.86004 0.25578 0.75391 0.0
O204 O 0.75279 0.31172 0.78288 0.0
O205 O 0.76706 0.30715 0.71646 0.0
O206 O 0.80895 0.27568 0.72909 0.0
C207 C 0.79871 0.30141 0.71287 0.0
H208 H 0.63177 0.31991 0.68534 0.0
H209 H 0.84201 0.1419 0.76303 0.0
Co210 Co 0.73991 0.73925 0.74636 0.0
C211 C 0.73765 0.7922 0.79974 0.0
Co212 Co 0.78777 0.78387 0.7559 0.0
C213 C 0.68213 0.68698 0.7653 0.0
C214 C 0.6804 0.68546 0.71144 0.0
N215 N 0.69921 0.70267 0.74024 0.0
N216 N 0.65347 0.6603 0.75361 0.0
C217 C 0.65218 0.6593 0.71959 0.0
H218 H 0.69073 0.6953 0.79175 0.0
H219 H 0.68701 0.69127 0.68623 0.0
C220 C 0.78992 0.73075 0.70256 0.0
N221 N 0.82909 0.82008 0.76257 0.0
C222 C 0.85091 0.83087 0.73887 0.0
C223 C 0.84692 0.8371 0.79198 0.0
N224 N 0.88187 0.85315 0.75219 0.0
C225 C 0.8794 0.85785 0.78558 0.0
C226 C 0.79494 0.72252 0.7916 0.0
O227 O 0.7594 0.71555 0.71053 0.0
O228 O 0.80616 0.76103 0.71853 0.0
O229 O 0.81099 0.75427 0.785 0.0
O230 O 0.76264 0.71055 0.77852 0.0
O231 O 0.7693 0.80585 0.79339 0.0
H232 H 0.83763 0.83343 0.81662 0.0
H233 H 0.84457 0.82205 0.71221 0.0
O234 O 0.72019 0.76345 0.78209 0.0
O235 O 0.71792 0.7676 0.71473 0.0
O236 O 0.764 0.8139 0.72605 0.0
C237 C 0.73301 0.80055 0.71034 0.0
H238 H 0.63289 0.64048 0.70186 0.0
H239 H 0.90005 0.87391 0.80403 0.0
C240 C 0.9437 0.10242 0.54705 0.0
C241 C 0.95801 0.08518 0.44492 0.0
C242 C 0.96528 0.94225 0.47367 0.0
Mg243 Mg 1.0111 0.09738 0.51044 0.0
O244 O 0.99587 0.04864 0.52237 0.0
Mg245 Mg 0.94678 0.02155 0.50437 0.0
Mg246 Mg 0.02495 0.01269 0.50784 0.0
O247 O 0.05556 0.97824 0.49261 0.0
Mg248 Mg 0.04558 0.92717 0.4955 0.0
Mg249 Mg 0.10453 1.0073 0.50951 0.0
C250 C 0.08614 0.08154 0.54446 0.0
C251 C 0.06946 0.05177 0.45086 0.0
O252 O 0.92845 0.06905 0.53579 0.0
O253 O 0.97508 0.11769 0.5404 0.0
O254 O 0.94213 0.05616 0.45754 0.0
O255 O 0.98796 0.10416 0.45928 0.0
O256 O 0.06764 0.10561 0.53428 0.0
O257 O 0.07449 0.04665 0.5382 0.0
C258 C 0.97863 0.97673 0.56497 0.0
O259 O 1.00938 0.98146 0.55356 0.0
O260 O 0.95223 0.98918 0.55061 0.0
O261 O 0.12596 0.96765 0.47379 0.0
O262 O 0.08189 0.91737 0.45935 0.0
O263 O 0.11153 0.96864 0.55358 0.0
C264 C 0.11267 0.93716 0.45595 0.0
O265 O 0.06975 0.9166 0.54446 0.0
O266 O 0.98738 0.92008 0.47947 0.0
C267 C 0.09736 0.93646 0.56198 0.0
O268 O 0.9752 0.97769 0.47826 0.0
O269 O 0.03895 0.04376 0.46222 0.0
O270 O 0.09745 0.04228 0.46526 0.0
C271 C 0.41892 0.09113 0.04008 0.0
C272 C 0.47671 0.08317 0.94747 0.0
C273 C 0.45396 0.94064 0.95339 0.0
Mg274 Mg 0.49669 0.08875 0.0236 0.0
O275 O 0.48058 0.03739 0.02112 0.0
Mg276 Mg 0.43434 0.0161 0.99169 0.0
Mg277 Mg 0.51157 1.00486 0.00126 0.0
O278 O 0.54244 0.97164 0.98213 0.0
Mg279 Mg 0.52733 0.92018 0.9847 0.0
Mg280 Mg 0.5895 0.99505 0.00953 0.0
C281 C 0.56974 0.06757 0.05209 0.0
C282 C 0.57432 0.05319 0.95396 0.0
O283 O 0.40804 0.05962 0.0227 0.0
O284 O 0.45199 0.10756 0.04381 0.0
O285 O 0.45064 0.0565 0.95091 0.0
O286 O 0.49844 0.09929 0.97247 0.0
O287 O 0.54922 0.0916 0.05095 0.0
O288 O 0.55945 0.03483 0.03722 0.0
C289 C 0.44814 0.95727 0.04747 0.0
O290 O 0.48191 0.96355 0.04166 0.0
O291 O 0.42549 0.97395 0.03176 0.0
O292 O 0.61498 0.95179 0.9787 0.0
O293 O 0.5714 0.90166 0.96272 0.0
O294 O 0.57704 0.95714 0.05132 0.0
C295 C 0.60395 0.91921 0.96345 0.0
O296 O 0.5295 0.91127 0.0374 0.0
O297 O 0.47421 0.91659 0.95779 0.0
C298 C 0.55355 0.93041 0.05912 0.0
O299 O 0.46405 0.97476 0.96513 0.0
O300 O 0.5408 0.04669 0.96048 0.0
O301 O 0.59713 0.03636 0.96901 0.0
C302 C 0.94202 0.61058 0.06096 0.0
C303 C 0.94323 0.59366 0.95381 0.0
C304 C 0.9426 0.44769 0.978 0.0
Mg305 Mg 1.00279 0.60354 0.01505 0.0
O306 O 0.98912 0.55327 0.02212 0.0
Mg307 Mg 0.93716 0.52955 0.01248 0.0
Mg308 Mg 1.0117 0.5136 1.00102 0.0
O309 O 0.03445 0.47368 0.98031 0.0
Mg310 Mg 0.02091 0.42353 0.98809 0.0
Mg311 Mg 0.0864 0.49726 0.99056 0.0
C312 C 0.08085 0.57897 0.02364 0.0
C313 C 0.04702 0.54407 0.9361 0.0
O314 O 0.92526 0.5784 0.04785 0.0
O315 O 0.97352 0.62502 0.0536 0.0
O316 O 0.92756 0.56407 0.96586 0.0
O317 O 0.9736 0.61213 0.96756 0.0
O318 O 0.06169 0.60448 0.02166 0.0
O319 O 0.0668 0.5443 0.02134 0.0
C320 C 0.97717 0.4831 0.06623 0.0
O321 O 1.00377 0.48561 0.04862 0.0
O322 O 0.94946 0.49708 0.0577 0.0
O323 O 0.09845 0.44862 0.95571 0.0
O324 O 0.05044 0.40167 0.95013 0.0
O325 O 0.09655 0.46223 0.03711 0.0
C326 C 0.08196 0.41625 0.94294 0.0
O327 O 0.05051 0.41417 0.03522 0.0
O328 O 0.96201 0.42242 0.98045 0.0
C329 C 0.08118 0.43221 0.04874 0.0
O330 O 0.95641 0.48249 0.98091 0.0
O331 O 0.01992 0.54196 0.95309 0.0
O332 O 0.07429 0.5297 0.94534 0.0
C333 C 0.46783 0.60663 0.05213 0.0
C334 C 0.45318 0.58067 0.94321 0.0
C335 C 0.43958 0.43655 0.97926 0.0
Mg336 Mg 0.51818 0.58886 0.99939 0.0
O337 O 0.49971 0.54153 0.01179 0.0
Mg338 Mg 0.44672 0.52371 0.00772 0.0
Mg339 Mg 0.51566 0.49592 0.99561 0.0
O340 O 0.53121 0.45006 0.97981 0.0
Mg341 Mg 0.51269 0.40441 0.99631 0.0
Mg342 Mg 0.5842 0.46762 0.98306 0.0
C343 C 0.59125 0.5557 0.01217 0.0
C344 C 0.547 0.51094 0.92449 0.0
O345 O 0.44477 0.57749 0.04022 0.0
O346 O 0.49872 0.61568 0.04133 0.0
O347 O 0.43703 0.55372 0.95843 0.0
O348 O 0.4852 0.59777 0.95378 0.0
O349 O 0.57524 0.5829 0.00567 0.0
O350 O 0.57393 0.52213 0.01154 0.0
C351 C 0.48426 0.48115 0.06643 0.0
O352 O 0.50877 0.476 0.04788 0.0
O353 O 0.4586 0.49718 0.0563 0.0
O354 O 0.58357 0.41226 0.95118 0.0
O355 O 0.53072 0.37417 0.95615 0.0
O356 O 0.59577 0.43868 0.03245 0.0
C357 C 0.56011 0.38227 0.94259 0.0
O358 O 0.54749 0.39746 0.0422 0.0
O359 O 0.45502 0.4093 0.98718 0.0
C360 C 0.58052 0.41346 0.05003 0.0
O361 O 0.45755 0.46978 0.97965 0.0
O362 O 0.52265 0.51607 0.94328 0.0
O363 O 0.57223 0.49421 0.93436 0.0
C364 C 0.92316 0.59749 0.54276 0.0
C365 C 0.96704 0.58313 0.44477 0.0
C366 C 0.94885 0.44504 0.45658 0.0
Mg367 Mg 0.99811 0.59401 0.51808 0.0
O368 O 0.98203 0.54288 0.52197 0.0
Mg369 Mg 0.93334 0.51989 0.49672 0.0
Mg370 Mg 1.01114 0.50835 0.50194 0.0
O371 O 0.04006 0.47435 0.4814 0.0
Mg372 Mg 0.02295 0.42324 0.48012 0.0
Mg373 Mg 0.08787 0.4945 0.50887 0.0
C374 C 0.07215 0.57206 0.54685 0.0
C375 C 0.07429 0.55362 0.4533 0.0
O376 O 0.91077 0.56472 0.52836 0.0
O377 O 0.9558 0.61419 0.54193 0.0
O378 O 0.94409 0.55695 0.45417 0.0
O379 O 0.99272 0.60208 0.46502 0.0
O380 O 0.05244 0.59667 0.54267 0.0
O381 O 0.0607 0.53767 0.53643 0.0
C382 C 0.94966 0.46183 0.55195 0.0
O383 O 0.98266 0.46732 0.54388 0.0
O384 O 0.9267 0.4792 0.53796 0.0
O385 O 0.11127 0.44903 0.47694 0.0
O386 O 0.06438 0.40472 0.45462 0.0
O387 O 0.07256 0.45547 0.55056 0.0
C388 C 0.098 0.41908 0.45783 0.0
O389 O 0.02465 0.41181 0.53149 0.0
O390 O 0.96889 0.42061 0.45744 0.0
C391 C 0.04731 0.42867 0.55549 0.0
O392 O 0.961 0.47889 0.46799 0.0
O393 O 0.04082 0.54875 0.46025 0.0
O394 O 0.09656 0.53597 0.46823 0.0
C395 C 0.44236 0.11282 0.5575 0.0
C396 C 0.43627 0.08459 0.45117 0.0
C397 C 0.43799 0.94262 0.48558 0.0
Mg398 Mg 0.49968 0.09886 0.50931 0.0
O399 O 0.4864 0.05066 0.52281 0.0
Mg400 Mg 0.43403 0.02747 0.51592 0.0
Mg401 Mg 0.50788 0.00874 0.50405 0.0
O402 O 0.52938 0.96707 0.48459 0.0
Mg403 Mg 0.51633 0.91799 0.49567 0.0
Mg404 Mg 0.58164 0.99037 0.49087 0.0
C405 C 0.57804 0.07454 0.52142 0.0
C406 C 0.54016 0.0345 0.43614 0.0
O407 O 0.42467 0.07974 0.54831 0.0
O408 O 0.47279 0.12546 0.54686 0.0
O409 O 0.42128 0.05791 0.4674 0.0
O410 O 0.46808 0.10257 0.4611 0.0
O411 O 0.55869 0.09961 0.51676 0.0
O412 O 0.56408 0.0399 0.52099 0.0
C413 C 0.47545 0.98523 0.57269 0.0
O414 O 0.50144 0.98465 0.55457 0.0
O415 O 0.44821 0.99938 0.56307 0.0
O416 O 0.5918 0.93903 0.4578 0.0
O417 O 0.54369 0.89285 0.45721 0.0
O418 O 0.59388 0.95865 0.53864 0.0
C419 C 0.5745 0.9061 0.44757 0.0
O420 O 0.5473 0.91313 0.54371 0.0
O421 O 0.45751 0.91755 0.48902 0.0
C422 C 0.57907 0.93112 0.55404 0.0
O423 O 0.45177 0.97739 0.48678 0.0
O424 O 0.51439 0.03374 0.4546 0.0
O425 O 0.56759 0.01997 0.44413 0.0
C426 C 0.10359 0.11118 0.26855 0.0
C427 C 0.11614 0.1495 0.27087 0.0
C428 C 0.08622 0.0945 0.29484 0.0
C429 C 0.08161 0.11701 0.32363 0.0
C430 C 0.08978 0.15607 0.32363 0.0
C431 C 0.10707 0.17186 0.29712 0.0
C432 C 0.07724 0.05273 0.29374 0.0
C433 C 0.08511 0.18113 0.35367 0.0
C434 C 0.04101 0.07435 0.39891 0.0
C435 C 0.07211 0.07003 0.41903 0.0
C436 C 0.04335 0.08951 0.36755 0.0
C437 C 0.0776 0.10039 0.35623 0.0
C438 C 0.10905 0.09624 0.37652 0.0
C439 C 0.10588 0.08116 0.40766 0.0
C440 C 1.00934 0.09367 0.34655 0.0
C441 C 0.14619 0.1076 0.36535 0.0
H442 H 0.11055 0.09409 0.24802 0.0
H443 H 0.11635 0.20165 0.29831 0.0
H444 H 0.09904 0.04266 0.3088 0.0
H445 H 0.05181 0.04324 0.30493 0.0
H446 H 0.07472 0.03986 0.26744 0.0
H447 H 0.08544 0.21001 0.34687 0.0
H448 H 0.05959 0.17078 0.36437 0.0
H449 H 0.10756 0.1817 0.37377 0.0
H450 H 0.01476 0.06523 0.4073 0.0
H451 H 0.13 0.0778 0.42298 0.0
H452 H 1.00812 0.08002 0.32074 0.0
H453 H 1.00934 0.12346 0.34379 0.0
H454 H 0.9847 0.0816 0.35803 0.0
H455 H 0.14805 0.09183 0.34116 0.0
H456 H 0.1678 0.10265 0.38431 0.0
H457 H 0.15131 0.1375 0.36091 0.0
C458 C 0.84688 0.17328 0.29737 0.0
C459 C 0.81757 0.18599 0.30993 0.0
C460 C 0.86949 0.15502 0.31744 0.0
C461 C 0.86338 0.14963 0.35145 0.0
C462 C 0.83335 0.16164 0.36418 0.0
C463 C 0.81062 0.17936 0.34321 0.0
C464 C 0.90048 0.14217 0.30232 0.0
C465 C 0.82596 0.15689 0.40036 0.0
C466 C 0.90685 0.07833 0.39834 0.0
C467 C 0.93731 0.10059 0.41706 0.0
C468 C 0.88298 0.09369 0.37663 0.0
C469 C 0.88914 0.13253 0.37375 0.0
C470 C 0.92048 0.15499 0.39171 0.0
C471 C 0.94424 0.1388 0.4128 0.0
C472 C 0.85067 0.06836 0.35734 0.0
C473 C 0.9283 0.19647 0.38959 0.0
H474 H 0.85249 0.17801 0.27163 0.0
H475 H 0.78835 0.18932 0.35329 0.0
H476 H 0.92639 0.15763 0.31559 0.0
H477 H 0.8995 0.11232 0.30574 0.0
H478 H 0.90028 0.1463 0.27491 0.0
H479 H 0.8011 0.1666 0.40625 0.0
H480 H 0.82325 0.1273 0.40557 0.0
H481 H 0.84901 0.17272 0.4177 0.0
H482 H 0.90109 0.04881 0.40131 0.0
H483 H 0.96733 0.15647 0.42731 0.0
H484 H 0.85001 0.07246 0.32993 0.0
H485 H 0.82562 0.0753 0.3659 0.0
H486 H 0.85067 0.03865 0.36082 0.0
H487 H 0.93024 0.20302 0.36293 0.0
H488 H 0.95372 0.21015 0.40499 0.0
H489 H 0.90584 0.20853 0.3985 0.0
C490 C 0.84706 0.84401 0.32011 0.0
C491 C 0.81167 0.82643 0.32235 0.0
C492 C 0.86663 0.86723 0.34739 0.0
C493 C 0.84984 0.87339 0.37702 0.0
C494 C 0.81315 0.85767 0.3782 0.0
C495 C 0.79457 0.83374 0.35093 0.0
C496 C 0.90583 0.88332 0.34528 0.0
C497 C 0.79401 0.86499 0.40871 0.0
C498 C 0.91769 0.88738 0.4538 0.0
C499 C 0.92925 0.92598 0.45632 0.0
C500 C 0.88962 0.86996 0.42966 0.0
C501 C 0.87227 0.89181 0.40799 0.0
C502 C 0.88075 0.93097 0.41326 0.0
C503 C 0.90941 0.94771 0.43737 0.0
C504 C 0.88122 0.82807 0.42509 0.0
C505 C 0.862 0.95532 0.39153 0.0
H506 H 0.85987 0.8382 0.29771 0.0
H507 H 0.76682 0.8203 0.35206 0.0
H508 H 0.91112 0.91381 0.35113 0.0
H509 H 0.92285 0.87162 0.36434 0.0
H510 H 0.91423 0.87733 0.31988 0.0
H511 H 0.76459 0.85394 0.40408 0.0
H512 H 0.80512 0.85186 0.4306 0.0
H513 H 0.7985 0.89523 0.41586 0.0
H514 H 0.93237 0.87046 0.46896 0.0
H515 H 0.91787 0.97762 0.43944 0.0
H516 H 0.89057 0.81873 0.40103 0.0
H517 H 0.85179 0.81751 0.42343 0.0
H518 H 0.89454 0.81531 0.4461 0.0
H519 H 0.87598 0.96019 0.36852 0.0
H520 H 0.86277 0.98272 0.4052 0.0
H521 H 0.83353 0.94216 0.38339 0.0
C522 C 0.19522 0.88874 0.28726 0.0
C523 C 0.16671 0.86642 0.26638 0.0
C524 C 0.18896 0.90766 0.31687 0.0
C525 C 0.15311 0.90503 0.32467 0.0
C526 C 0.12403 0.88694 0.30097 0.0
C527 C 0.13126 0.86712 0.27212 0.0
C528 C 0.22088 0.92768 0.34077 0.0
C529 C 0.08541 0.88531 0.30776 0.0
C530 C 0.13258 0.89409 0.41477 0.0
C531 C 0.12878 0.92991 0.42502 0.0
C532 C 0.14225 0.88617 0.38249 0.0
C533 C 0.14623 0.91444 0.35966 0.0
C534 C 0.143 0.95086 0.37021 0.0
C535 C 0.13495 0.95833 0.40315 0.0
C536 C 0.14718 0.84731 0.37252 0.0
C537 C 0.14649 0.98141 0.34639 0.0
H538 H 0.22261 0.88803 0.28216 0.0
H539 H 0.10946 0.84971 0.25569 0.0
H540 H 0.22502 0.95777 0.33726 0.0
H541 H 0.21657 0.9241 0.36761 0.0
H542 H 0.24603 0.91803 0.33575 0.0
H543 H 0.06656 0.87713 0.28434 0.0
H544 H 0.07828 0.86459 0.32632 0.0
H545 H 0.08163 0.91256 0.31878 0.0
H546 H 0.12746 0.87228 0.43181 0.0
H547 H 0.1312 0.98594 0.41111 0.0
H548 H 0.1727 0.84813 0.36091 0.0
H549 H 0.12484 0.83353 0.35338 0.0
H550 H 0.14756 0.83011 0.39448 0.0
H551 H 0.1743 0.98735 0.33913 0.0
H552 H 0.14033 1.00748 0.35786 0.0
H553 H 0.12806 0.97249 0.32284 0.0
C554 C 0.23768 0.83414 0.66283 0.0
C555 C 0.22708 0.82248 0.69383 0.0
C556 C 0.21716 0.85481 0.64287 0.0
C557 C 0.18588 0.86493 0.65462 0.0
C558 C 0.17627 0.85475 0.68673 0.0
C559 C 0.19659 0.83327 0.70561 0.0
C560 C 0.22803 0.86437 0.60854 0.0
C561 C 0.14392 0.86574 0.70084 0.0
C562 C 0.14621 0.94015 0.61044 0.0
C563 C 0.11715 0.9191 0.58897 0.0
C564 C 0.16818 0.92312 0.63259 0.0
C565 C 0.16184 0.88391 0.63255 0.0
C566 C 0.13222 0.86258 0.61136 0.0
C567 C 0.11004 0.88037 0.59032 0.0
C568 C 0.19861 0.9471 0.65555 0.0
C569 C 0.12463 0.82072 0.61 0.0
H570 H 0.26102 0.82567 0.65349 0.0
H571 H 0.18838 0.82463 0.7297 0.0
H572 H 0.20659 0.85037 0.58861 0.0
H573 H 0.23104 0.89465 0.60635 0.0
H574 H 0.2537 0.85583 0.60357 0.0
H575 H 0.14217 0.85894 0.72751 0.0
H576 H 0.14495 0.89594 0.69957 0.0
H577 H 0.11893 0.85112 0.68541 0.0
H578 H 0.15231 0.96995 0.60942 0.0
H579 H 0.08803 0.8636 0.57367 0.0
H580 H 0.22477 0.94247 0.64775 0.0
H581 H 0.19744 0.93942 0.682 0.0
H582 H 0.19789 0.97707 0.65498 0.0
H583 H 0.14844 0.81003 0.60255 0.0
H584 H 0.10094 0.80807 0.59178 0.0
H585 H 0.11965 0.8114 0.63538 0.0
C586 C 0.24339 0.15675 0.69513 0.0
C587 C 0.22494 0.17215 0.71941 0.0
C588 C 0.22447 0.13538 0.66646 0.0
C589 C 0.18645 0.12974 0.66228 0.0
C590 C 0.16785 0.14123 0.68896 0.0
C591 C 0.18743 0.16274 0.7172 0.0
C592 C 0.24545 0.12266 0.63924 0.0
C593 C 0.12725 0.13396 0.68619 0.0
C594 C 0.13321 0.13101 0.5773 0.0
C595 C 0.11774 0.09342 0.57005 0.0
C596 C 0.15771 0.14286 0.60623 0.0
C597 C 0.16609 0.11657 0.6288 0.0
C598 C 0.15212 0.07844 0.62067 0.0
C599 C 0.12876 0.06728 0.59101 0.0
C600 C 0.173 0.18379 0.61368 0.0
C601 C 0.1606 0.04935 0.64367 0.0
H602 H 0.27248 0.16482 0.6966 0.0
H603 H 0.17331 0.1753 0.7358 0.0
H604 H 0.23054 0.09701 0.62447 0.0
H605 H 0.25077 0.14476 0.6216 0.0
H606 H 0.27173 0.11743 0.65041 0.0
H607 H 0.11712 0.14012 0.71077 0.0
H608 H 0.11698 0.15162 0.66744 0.0
H609 H 0.11607 0.10458 0.67717 0.0
H610 H 0.1251 0.15131 0.56114 0.0
H611 H 0.11723 0.03807 0.58563 0.0
H612 H 0.20265 0.18844 0.6199 0.0
H613 H 0.16159 0.19458 0.63603 0.0
H614 H 0.16686 0.20008 0.59203 0.0
H615 H 0.18638 0.04168 0.63791 0.0
H616 H 0.13931 0.0239 0.63981 0.0
H617 H 0.16357 0.05953 0.67077 0.0
C618 C 0.86519 0.20508 0.69659 0.0
C619 C 0.88054 0.19406 0.7269 0.0
C620 C 0.87526 0.19415 0.66545 0.0
C621 C 0.90122 0.17144 0.66461 0.0
C622 C 0.91818 0.16161 0.69507 0.0
C623 C 0.90728 0.17283 0.72607 0.0
C624 C 0.85632 0.20483 0.63349 0.0
C625 C 0.94652 0.13787 0.69476 0.0
C626 C 0.89885 0.10435 0.58862 0.0
C627 C 0.9276 0.12261 0.5727 0.0
C628 C 0.88899 0.12072 0.61805 0.0
C629 C 0.9087 0.15581 0.63176 0.0
C630 C 0.936 0.1755 0.61453 0.0
C631 C 0.94485 0.1588 0.58492 0.0
C632 C 0.85881 0.09962 0.63541 0.0
C633 C 0.95731 0.21315 0.62841 0.0
H634 H 0.84341 0.22025 0.69704 0.0
H635 H 0.91848 0.16392 0.7495 0.0
H636 H 0.87622 0.21766 0.61693 0.0
H637 H 0.83992 0.17963 0.61911 0.0
H638 H 0.83834 0.22458 0.63884 0.0
H639 H 0.95934 0.13562 0.7206 0.0
H640 H 0.93413 0.10957 0.68341 0.0
H641 H 0.96771 0.14949 0.67891 0.0
H642 H 0.88527 0.07655 0.5792 0.0
H643 H 0.96676 0.17343 0.57243 0.0
H644 H 0.83986 0.1178 0.64203 0.0
H645 H 0.87009 0.09025 0.65936 0.0
H646 H 0.8435 0.07491 0.61942 0.0
H647 H 0.93903 0.23235 0.63418 0.0
H648 H 0.97588 0.22589 0.61057 0.0
H649 H 0.97346 0.21035 0.65248 0.0
C650 C 0.91896 0.84667 0.70602 0.0
C651 C 0.911 0.86803 0.73359 0.0
C652 C 0.94011 0.86311 0.68212 0.0
C653 C 0.95335 0.90182 0.68603 0.0
C654 C 0.94967 0.9224 0.7163 0.0
C655 C 0.9283 0.90516 0.73988 0.0
C656 C 0.94403 0.83994 0.65059 0.0
C657 C 0.96436 0.96352 0.72178 0.0
C658 C 1.00187 0.947 0.61546 0.0
C659 C 0.97309 0.95711 0.59585 0.0
C660 C 0.99627 0.92917 0.64527 0.0
C661 C 0.96116 0.92153 0.65548 0.0
C662 C 0.93211 0.9316 0.63564 0.0
C663 C 0.93846 0.94922 0.60619 0.0
C664 C 0.02791 0.91913 0.66594 0.0
C665 C 0.89404 0.92355 0.64533 0.0
H666 H 0.90645 0.81757 0.7019 0.0
H667 H 0.92253 0.92146 0.76153 0.0
H668 H 0.92423 0.84462 0.62977 0.0
H669 H 0.9713 0.84799 0.64241 0.0
H670 H 0.93898 0.80985 0.65447 0.0
H671 H 0.96636 0.97359 0.74889 0.0
H672 H 0.99131 0.97051 0.7127 0.0
H673 H 0.94613 0.97854 0.70713 0.0
H674 H 0.02877 0.95325 0.60771 0.0
H675 H 0.91603 0.9568 0.59119 0.0
H676 H 0.021 0.89065 0.67413 0.0
H677 H 0.0352 0.93839 0.68911 0.0
H678 H 0.05189 0.92107 0.65171 0.0
H679 H 0.88501 0.89327 0.64665 0.0
H680 H 0.87462 0.93332 0.62704 0.0
H681 H 0.89302 0.93726 0.67071 0.0
C682 C 0.33944 0.20516 0.17889 0.0
C683 C 0.30253 0.20569 0.17392 0.0
C684 C 0.35592 0.18511 0.1558 0.0
C685 C 0.33536 0.16615 0.12619 0.0
C686 C 0.29818 0.16729 0.12067 0.0
C687 C 0.28207 0.1864 0.14492 0.0
C688 C 0.39531 0.18382 0.16339 0.0
C689 C 0.27551 0.14871 0.08895 0.0
C690 C 0.39237 0.14621 0.05584 0.0
C691 C 0.39329 0.10858 0.05837 0.0
C692 C 0.37188 0.16467 0.07632 0.0
C693 C 0.35308 0.14551 0.10108 0.0
C694 C 0.35344 0.10722 0.10328 0.0
C695 C 0.37304 0.08909 0.08149 0.0
C696 C 0.37131 0.20504 0.07213 0.0
C697 C 0.33489 0.08592 0.12995 0.0
H698 H 0.35532 0.21963 0.20145 0.0
H699 H 0.25356 0.18683 0.14089 0.0
H700 H 0.3989 0.15457 0.16311 0.0
H701 H 0.41075 0.19694 0.14357 0.0
H702 H 0.40701 0.19827 0.18836 0.0
H703 H 0.24735 0.1532 0.08785 0.0
H704 H 0.28752 0.15956 0.06635 0.0
H705 H 0.27506 0.11845 0.08751 0.0
H706 H 0.4081 0.16136 0.03802 0.0
H707 H 0.37422 0.06015 0.0839 0.0
H708 H 0.38665 0.22235 0.09442 0.0
H709 H 0.34326 0.20984 0.07069 0.0
H710 H 0.38333 0.21456 0.04906 0.0
H711 H 0.34773 0.09778 0.15543 0.0
H712 H 0.33625 0.05601 0.12738 0.0
H713 H 0.30622 0.08854 0.12855 0.0
C714 C 0.95111 0.34785 0.21257 0.0
C715 C 0.92592 0.31809 0.1956 0.0
C716 C 0.97003 0.37486 0.19452 0.0
C717 C 0.96339 0.37167 0.15897 0.0
C718 C 0.94224 0.33901 0.14171 0.0
C719 C 0.92323 0.31259 0.16038 0.0
C720 C 0.99354 0.40886 0.21353 0.0
C721 C 0.93657 0.33399 0.10357 0.0
C722 C 0.94661 0.45325 0.11261 0.0
C723 C 0.97705 0.46023 0.09514 0.0
C724 C 0.94316 0.42599 0.13551 0.0
C725 C 0.97071 0.40513 0.14059 0.0
C726 C 1.00296 0.41436 0.12553 0.0
C727 C 1.00588 0.44223 0.1031 0.0
C728 C 0.90891 0.41786 0.15246 0.0
C729 C 0.03344 0.39355 0.13085 0.0
H730 H 0.95357 0.35208 0.23989 0.0
H731 H 0.90458 0.2889 0.14747 0.0
H732 H 0.01839 0.41749 0.20116 0.0
H733 H 0.9787 0.43213 0.21332 0.0
H734 H 1.00119 0.40405 0.24027 0.0
H735 H 0.92498 0.30474 0.09429 0.0
H736 H 0.91777 0.35171 0.09408 0.0
H737 H 0.96241 0.34271 0.09277 0.0
H738 H 0.92463 0.46774 0.1072 0.0
H739 H 0.0301 0.44855 0.09064 0.0
H740 H 0.91526 0.41648 0.18007 0.0
H741 H 0.89281 0.39051 0.14207 0.0
H742 H 0.89204 0.43916 0.14853 0.0
H743 H 0.05967 0.41322 0.13373 0.0
H744 H 0.03291 0.37431 0.10816 0.0
H745 H 0.03197 0.37718 0.15331 0.0
C746 C 0.66864 0.88166 0.21077 0.0
C747 C 0.69685 0.88551 0.19001 0.0
C748 C 0.63697 0.89446 0.20138 0.0
C749 C 0.63391 0.91151 0.17077 0.0
C750 C 0.66451 0.92085 0.15287 0.0
C751 C 0.69577 0.90783 0.16296 0.0
C752 C 0.60623 0.88688 0.22296 0.0
C753 C 0.66304 0.94054 0.12066 0.0
C754 C 0.56122 0.88537 0.10089 0.0
C755 C 0.55682 0.92106 0.09415 0.0
C756 C 0.58206 0.88015 0.13039 0.0
C757 C 0.59816 0.9115 0.15281 0.0
C758 C 0.58647 0.94538 0.14972 0.0
C759 C 0.56617 0.95009 0.11976 0.0
C760 C 0.5916 0.84257 0.13463 0.0
C761 C 0.59976 0.97799 0.17541 0.0
H762 H 0.66956 0.8656 0.23254 0.0
H763 H 0.71821 0.91216 0.14784 0.0
H764 H 0.58017 0.89087 0.21025 0.0
H765 H 0.60298 0.85814 0.23091 0.0
H766 H 0.61276 0.90613 0.24618 0.0
H767 H 0.68976 0.94719 0.11097 0.0
H768 H 0.644 0.92282 0.10074 0.0
H769 H 0.65326 0.9668 0.12497 0.0
H770 H 0.55298 0.86283 0.08126 0.0
H771 H 0.56135 0.9775 0.11478 0.0
H772 H 0.58981 0.83531 0.16113 0.0
H773 H 0.61974 0.84325 0.12893 0.0
H774 H 0.57357 0.82045 0.11751 0.0
H775 H 0.58038 0.99716 0.17536 0.0
H776 H 0.62581 0.99371 0.16909 0.0
H777 H 0.60404 0.96861 0.2012 0.0
C778 C 0.25016 0.67048 0.14907 0.0
C779 C 0.22723 0.68394 0.17021 0.0
C780 C 0.23611 0.64953 0.1185 0.0
C781 C 0.19832 0.64085 0.11002 0.0
C782 C 0.17519 0.65298 0.13244 0.0
C783 C 0.19004 0.67492 0.16193 0.0
C784 C 0.2618 0.63725 0.09554 0.0
C785 C 0.13461 0.6437 0.12503 0.0
C786 C 0.13749 0.62635 0.03098 0.0
C787 C 0.11964 0.59017 0.03453 0.0
C788 C 0.1691 0.64179 0.05185 0.0
C789 C 0.18174 0.62083 0.07737 0.0
C790 C 0.16786 0.58237 0.07645 0.0
C791 C 0.13681 0.56727 0.05467 0.0
C792 C 0.18526 0.68221 0.05037 0.0
C793 C 0.18177 0.55867 0.10222 0.0
H794 H 0.27907 0.67761 0.15575 0.0
H795 H 0.17248 0.68512 0.17866 0.0
H796 H 0.26644 0.60948 0.1019 0.0
H797 H 0.25103 0.63524 0.06848 0.0
H798 H 0.28832 0.65654 0.09913 0.0
H799 H 0.12079 0.6527 0.14654 0.0
H800 H 0.12606 0.65761 0.10258 0.0
H801 H 0.12527 0.61337 0.11933 0.0
H802 H 0.12503 0.64368 0.01432 0.0
H803 H 0.1237 0.53883 0.05674 0.0
H804 H 0.21488 0.68742 0.05694 0.0
H805 H 0.17373 0.69907 0.06898 0.0
H806 H 0.17918 0.69163 0.02486 0.0
H807 H 0.21147 0.56631 0.10744 0.0
H808 H 0.17411 0.5287 0.09364 0.0
H809 H 0.17009 0.56323 0.12629 0.0
C810 C 0.27996 0.81436 0.86236 0.0
C811 C 0.27569 0.82404 0.82904 0.0
C812 C 0.30051 0.83994 0.88767 0.0
C813 C 0.3169 0.87547 0.87895 0.0
C814 C 0.3072 0.88703 0.84673 0.0
C815 C 0.28702 0.86089 0.8219 0.0
C816 C 0.30922 0.827 0.92212 0.0
C817 C 0.32295 0.92503 0.83672 0.0
C818 C 0.38741 0.93925 0.94157 0.0
C819 C 0.41874 0.9274 0.93344 0.0
C820 C 0.35365 0.92292 0.92406 0.0
C821 C 0.35163 0.89441 0.89795 0.0
C822 C 0.38356 0.8834 0.88912 0.0
C823 C 0.41651 0.89994 0.90702 0.0
C824 C 0.32031 0.93527 0.93439 0.0
C825 C 0.3831 0.85368 0.86097 0.0
H826 H 0.27106 0.78579 0.86779 0.0
H827 H 0.28327 0.86832 0.79604 0.0
H828 H 0.33569 0.81828 0.92317 0.0
H829 H 0.31111 0.84975 0.94218 0.0
H830 H 0.28865 0.803 0.92746 0.0
H831 H 0.30651 0.93275 0.81468 0.0
H832 H 0.32504 0.94639 0.85807 0.0
H833 H 0.35048 0.9251 0.82958 0.0
H834 H 0.38904 0.96017 0.96228 0.0
H835 H 0.44081 0.89106 0.90047 0.0
H836 H 0.30711 0.91527 0.95125 0.0
H837 H 0.30063 0.93593 0.91213 0.0
H838 H 0.32688 0.96313 0.94839 0.0
H839 H 0.36634 0.82716 0.86658 0.0
H840 H 0.41046 0.84866 0.85734 0.0
H841 H 0.37111 0.86176 0.83673 0.0
C842 C 0.17022 0.31008 0.80035 0.0
C843 C 0.19975 0.29627 0.81461 0.0
C844 C 0.14919 0.32775 0.82071 0.0
C845 C 0.15786 0.33187 0.85626 0.0
C846 C 0.18693 0.31696 0.87091 0.0
C847 C 0.20741 0.29916 0.84994 0.0
C848 C 0.11892 0.34385 0.80402 0.0
C849 C 0.19754 0.3215 0.90862 0.0
C850 C 0.13121 0.41236 0.90602 0.0
C851 C 0.10048 0.39478 0.91979 0.0
C852 C 0.14973 0.39245 0.88488 0.0
C853 C 0.13781 0.35365 0.87785 0.0
C854 C 0.10665 0.33573 0.89147 0.0
C855 C 0.08825 0.35651 0.91208 0.0
C856 C 0.18266 0.41343 0.87125 0.0
C857 C 0.09296 0.2945 0.88453 0.0
H858 H 0.16417 0.30811 0.77308 0.0
H859 H 0.23047 0.28908 0.86119 0.0
H860 H 0.09377 0.33476 0.81578 0.0
H861 H 0.12584 0.37457 0.80772 0.0
H862 H 0.11379 0.33559 0.77648 0.0
H863 H 0.21955 0.30667 0.91627 0.0
H864 H 0.20667 0.35141 0.91685 0.0
H865 H 0.17397 0.31104 0.92217 0.0
H866 H 0.14095 0.4419 0.9117 0.0
H867 H 0.06463 0.34257 0.92268 0.0
H868 H 0.18915 0.39953 0.84778 0.0
H869 H 0.20592 0.41616 0.89086 0.0
H870 H 0.17919 0.44193 0.86601 0.0
H871 H 0.08706 0.28724 0.85686 0.0
H872 H 0.0682 0.28475 0.89676 0.0
H873 H 0.11402 0.27927 0.8939 0.0
C874 C 0.69494 0.15915 0.81863 0.0
C875 C 0.69208 0.19617 0.81388 0.0
C876 C 0.67281 0.13691 0.83957 0.0
C877 C 0.64771 0.15192 0.85797 0.0
C878 C 0.64522 0.18956 0.85363 0.0
C879 C 0.6664 0.2106 0.83118 0.0
C880 C 0.67641 0.09702 0.84203 0.0
C881 C 0.62024 0.20809 0.87276 0.0
C882 C 0.57283 0.08492 0.89759 0.0
C883 C 0.58948 0.08174 0.93014 0.0
C884 C 0.59075 0.10801 0.87422 0.0
C885 C 0.62635 0.12902 0.88322 0.0
C886 C 0.64229 0.12713 0.91665 0.0
C887 C 0.62417 0.10354 0.93909 0.0
C888 C 0.57178 0.10927 0.83949 0.0
C889 C 0.67898 0.15004 0.92885 0.0
H890 H 0.71426 0.14721 0.80542 0.0
H891 H 0.66357 0.239 0.82803 0.0
H892 H 0.68737 0.09306 0.86806 0.0
H893 H 0.64952 0.07859 0.83684 0.0
H894 H 0.69442 0.08825 0.82404 0.0
H895 H 0.62839 0.23879 0.87443 0.0
H896 H 0.59283 0.20036 0.85916 0.0
H897 H 0.61915 0.199 0.89876 0.0
H898 H 0.54634 0.06827 0.88986 0.0
H899 H 0.6376 0.10185 0.96404 0.0
H900 H 0.58867 0.10171 0.81991 0.0
H901 H 0.56774 0.1379 0.8359 0.0
H902 H 0.54512 0.09028 0.83549 0.0
H903 H 0.69961 0.14058 0.9144 0.0
H904 H 0.68658 0.14813 0.95621 0.0
H905 H 0.67952 0.17959 0.92432 0.0
C906 C 0.84932 0.69488 0.80532 0.0
C907 C 0.8149 0.69932 0.81259 0.0
C908 C 0.86978 0.67461 0.8256 0.0
C909 C 0.85627 0.65971 0.85488 0.0
C910 C 0.82129 0.66392 0.86216 0.0
C911 C 0.80075 0.68301 0.84054 0.0
C912 C 0.90616 0.66965 0.81594 0.0
C913 C 0.8062 0.64972 0.89363 0.0
C914 C 0.89873 0.58751 0.9015 0.0
C915 C 0.92325 0.60995 0.92633 0.0
C916 C 0.87755 0.60323 0.87743 0.0
C917 C 0.87976 0.64225 0.87908 0.0
C918 C 0.90457 0.66491 0.90414 0.0
C919 C 0.92637 0.64859 0.92692 0.0
C920 C 0.85275 0.57806 0.85031 0.0
C921 C 0.9073 0.70644 0.90768 0.0
H922 H 0.86021 0.70718 0.78352 0.0
H923 H 0.77425 0.68659 0.84632 0.0
H924 H 0.92773 0.68583 0.83461 0.0
H925 H 0.90859 0.64009 0.81628 0.0
H926 H 0.91091 0.67891 0.79043 0.0
H927 H 0.77836 0.65438 0.89533 0.0
H928 H 0.80606 0.61964 0.89423 0.0
H929 H 0.82364 0.66393 0.91635 0.0
H930 H 0.8962 0.55766 0.90082 0.0
H931 H 0.94485 0.66615 0.9463 0.0
H932 H 0.85806 0.58744 0.82498 0.0
H933 H 0.82436 0.5794 0.85349 0.0
H934 H 0.85599 0.54872 0.85096 0.0
H935 H 0.91579 0.71862 0.88426 0.0
H936 H 0.92682 0.72001 0.92936 0.0
H937 H 0.88053 0.71306 0.91127 0.0
C938 C 0.22344 0.33742 0.15918 0.0
C939 C 0.20844 0.31945 0.18604 0.0
C940 C 0.20339 0.35732 0.13781 0.0
C941 C 0.16797 0.36082 0.14427 0.0
C942 C 0.15345 0.34405 0.17239 0.0
C943 C 0.17346 0.32299 0.19235 0.0
C944 C 0.21962 0.37336 0.10752 0.0
C945 C 0.11656 0.3481 0.18127 0.0
C946 C 0.12621 0.43579 0.10067 0.0
C947 C 0.10188 0.41462 0.0749 0.0
C948 C 0.14721 0.41876 0.12392 0.0
C949 C 0.14519 0.37973 0.12047 0.0
C950 C 0.12097 0.35844 0.09414 0.0
C951 C 0.0993 0.37596 0.07224 0.0
C952 C 0.17134 0.44252 0.15235 0.0
C953 C 0.11851 0.31707 0.08848 0.0
H954 H 0.25037 0.33469 0.15407 0.0
H955 H 0.16183 0.30956 0.21332 0.0
H956 H 0.20282 0.36043 0.084 0.0
H957 H 0.21993 0.40356 0.10826 0.0
H958 H 0.24754 0.36879 0.10619 0.0
H959 H 0.11078 0.33711 0.20595 0.0
H960 H 0.11413 0.37772 0.18234 0.0
H961 H 0.09566 0.33299 0.16142 0.0
H962 H 0.12846 0.46565 0.10292 0.0
H963 H 0.08112 0.35936 0.05207 0.0
H964 H 0.19982 0.4406 0.15024 0.0
H965 H 0.16451 0.43223 0.17701 0.0
H966 H 0.16892 0.47213 0.15241 0.0
H967 H 0.14558 0.31092 0.08543 0.0
H968 H 0.09992 0.30477 0.06576 0.0
H969 H 0.10895 0.30323 0.1108 0.0
C970 C 0.11061 0.69767 0.82492 0.0
C971 C 0.10902 0.68539 0.79077 0.0
C972 C 0.08825 0.67777 0.84613 0.0
C973 C 0.0645 0.6448 0.83266 0.0
C974 C 0.05843 0.63612 0.79735 0.0
C975 C 0.08109 0.65649 0.77664 0.0
C976 C 0.09363 0.68906 0.88359 0.0
C977 C 0.03166 0.60233 0.78206 0.0
C978 C 0.07748 0.56797 0.88736 0.0
C979 C 0.04806 0.56568 0.90621 0.0
C980 C 0.0818 0.59225 0.86192 0.0
C981 C 0.05596 0.61485 0.85522 0.0
C982 C 0.02473 0.6107 0.87232 0.0
C983 C 0.02113 0.58598 0.89771 0.0
C984 C 0.11518 0.59509 0.84357 0.0
C985 C 0.99597 0.63339 0.86553 0.0
H986 H 0.13106 0.72116 0.83551 0.0
H987 H 0.07906 0.64738 0.75005 0.0
H988 H 0.06739 0.68506 0.89428 0.0
H989 H 0.11038 0.67134 0.89658 0.0
H990 H 0.10743 0.71848 0.88908 0.0
H991 H 0.02391 0.6044 0.75475 0.0
H992 H 0.04388 0.57737 0.78462 0.0
H993 H 1.00707 0.5984 0.79545 0.0
H994 H 0.09797 0.55174 0.89326 0.0
H995 H 0.99782 0.58362 0.91162 0.0
H996 H 0.13237 0.62302 0.84952 0.0
H997 H 0.10766 0.59129 0.81582 0.0
H998 H 0.13148 0.5741 0.85071 0.0
H999 H 0.99947 0.6562 0.88583 0.0
H1000 H 0.96885 0.61605 0.86622 0.0
H1001 H 0.99684 0.64565 0.8408 0.0
C1002 C 0.3996 0.20544 0.88144 0.0
C1003 C 0.39139 0.2158 0.84905 0.0
C1004 C 0.42683 0.18553 0.88797 0.0
C1005 C 0.44632 0.17577 0.86109 0.0
C1006 C 0.4409 0.18987 0.82924 0.0
C1007 C 0.41309 0.20958 0.82346 0.0
C1008 C 0.43235 0.17267 0.92313 0.0
C1009 C 0.4627 0.18271 0.80066 0.0
C1010 C 0.50582 0.13051 0.91165 0.0
C1011 C 0.47989 0.09853 0.91444 0.0
C1012 C 0.49969 0.15457 0.88687 0.0
C1013 C 0.467 0.146 0.86565 0.0
C1014 C 0.44689 0.10931 0.86232 0.0
C1015 C 0.4533 0.08574 0.88743 0.0
C1016 C 0.52361 0.19228 0.88838 0.0
C1017 C 0.41399 0.09784 0.83703 0.0
H1018 H 0.38309 0.21076 0.90121 0.0
H1019 H 0.40773 0.21918 0.79865 0.0
H1020 H 0.42412 0.14209 0.92224 0.0
H1021 H 0.46103 0.18053 0.93348 0.0
H1022 H 0.4163 0.18488 0.94115 0.0
H1023 H 0.44657 0.16044 0.78246 0.0
H1024 H 0.46896 0.20795 0.78669 0.0
H1025 H 0.4883 0.17426 0.80955 0.0
H1026 H 0.52821 0.13923 0.93117 0.0
H1027 H 0.43469 0.05969 0.88815 0.0
H1028 H 0.51108 0.21303 0.90184 0.0
H1029 H 0.52682 0.20089 0.86245 0.0
H1030 H 0.55044 0.19254 0.90215 0.0
H1031 H 0.39131 0.10922 0.84636 0.0
H1032 H 0.40573 0.06717 0.83323 0.0
H1033 H 0.41912 0.10897 0.81234 0.0
C1034 C 0.83303 0.34399 0.83775 0.0
C1035 C 0.79567 0.33492 0.83045 0.0
C1036 C 0.84885 0.36757 0.86607 0.0
C1037 C 0.8266 0.38154 0.8883 0.0
C1038 C 0.78868 0.37297 0.88075 0.0
C1039 C 0.77358 0.35015 0.85136 0.0
C1040 C 0.88949 0.3765 0.87262 0.0
C1041 C 0.76412 0.38716 0.90386 0.0
C1042 C 0.88642 0.39977 0.969 0.0
C1043 C 0.9043 0.43584 0.96506 0.0
C1044 C 0.85593 0.3832 0.94705 0.0
C1045 C 0.8441 0.40297 0.92016 0.0
C1046 C 0.85839 0.44126 0.91975 0.0
C1047 C 0.88835 0.45745 0.94257 0.0
C1048 C 0.84008 0.34284 0.94947 0.0
C1049 C 0.84611 0.46369 0.89205 0.0
H1050 H 0.84999 0.33245 0.82123 0.0
H1051 H 0.74458 0.34298 0.84551 0.0
H1052 H 0.89922 0.40695 0.8765 0.0
H1053 H 0.89833 0.36421 0.89596 0.0
H1054 H 0.90265 0.36563 0.85145 0.0
H1055 H 0.76552 0.41723 0.90146 0.0
H1056 H 0.73564 0.37279 0.89757 0.0
H1057 H 0.77271 0.38366 0.93068 0.0
H1058 H 0.89811 0.38336 0.98712 0.0
H1059 H 0.9017 0.48567 0.93984 0.0
H1060 H 0.8522 0.32556 0.93173 0.0
H1061 H 0.81054 0.33707 0.94233 0.0
H1062 H 0.84569 0.33433 0.97542 0.0
H1063 H 0.86101 0.45978 0.86985 0.0
H1064 H 0.85167 0.49375 0.90038 0.0
H1065 H 0.81696 0.45466 0.88379 0.0
C1066 C 0.68358 0.81154 0.82056 0.0
C1067 C 0.72037 0.81073 0.82589 0.0
C1068 C 0.66679 0.83034 0.84423 0.0
C1069 C 0.68696 0.84759 0.87465 0.0
C1070 C 0.72402 0.84614 0.88049 0.0
C1071 C 0.74046 0.82836 0.8557 0.0
C1072 C 0.62755 0.83219 0.8364 0.0
C1073 C 0.74617 0.86297 0.91305 0.0
C1074 C 0.64952 0.92268 0.92188 0.0
C1075 C 0.62871 0.90203 0.94393 0.0
C1076 C 0.66915 0.90549 0.89955 0.0
C1077 C 0.669 0.86698 0.90021 0.0
C1078 C 0.64959 0.84651 0.92385 0.0
C1079 C 0.62906 0.86412 0.9449 0.0
C1080 C 0.68841 0.92811 0.87404 0.0
C1081 C 0.64969 0.80577 0.92628 0.0
H1082 H 0.6681 0.7983 0.79733 0.0
H1083 H 0.7689 0.8276 0.85991 0.0
H1084 H 0.6116 0.81808 0.85543 0.0
H1085 H 0.62421 0.86153 0.83785 0.0
H1086 H 0.61621 0.81901 0.81087 0.0
H1087 H 0.77427 0.85827 0.91424 0.0
H1088 H 0.74688 0.89325 0.91581 0.0
H1089 H 0.73357 0.85091 0.93493 0.0
H1090 H 0.64887 0.95191 0.9208 0.0
H1091 H 0.61303 0.84815 0.96202 0.0
H1092 H 0.67612 0.91739 0.8481 0.0
H1093 H 0.71708 0.92548 0.87573 0.0
H1094 H 0.68709 0.95797 0.87765 0.0
H1095 H 0.63486 0.78967 0.90315 0.0
H1096 H 0.6369 0.79499 0.94857 0.0
H1097 H 0.67768 0.80079 0.92799 0.0
C1098 C 0.82763 0.73299 0.16461 0.0
C1099 C 0.83039 0.72705 0.19919 0.0
C1100 C 0.84748 0.71631 0.14215 0.0
C1101 C 0.87132 0.69369 0.15457 0.0
C1102 C 0.87574 0.68938 0.18974 0.0
C1103 C 0.85475 0.70547 0.21152 0.0
C1104 C 0.84168 0.72155 0.10488 0.0
C1105 C 0.90153 0.66649 0.20433 0.0
C1106 C 0.89022 0.61651 0.09457 0.0
C1107 C 0.92419 0.63186 0.08518 0.0
C1108 C 0.87288 0.63635 0.11702 0.0
C1109 C 0.8897 0.67256 0.13056 0.0
C1110 C 0.92402 0.68822 0.12134 0.0
C1111 C 0.94082 0.66776 0.09883 0.0
C1112 C 0.83639 0.61857 0.12623 0.0
C1113 C 0.9431 0.72653 0.13549 0.0
H1114 H 0.80859 0.74927 0.15473 0.0
H1115 H 0.85706 0.70066 0.23816 0.0
H1116 H 0.86787 0.7306 0.09483 0.0
H1117 H 0.82859 0.69472 0.09089 0.0
H1118 H 0.82447 0.74227 0.09958 0.0
H1119 H 0.90933 0.67438 0.2317 0.0
H1120 H 0.88838 0.63678 0.20089 0.0
H1121 H 0.92638 0.66977 0.19139 0.0
H1122 H 0.87701 0.58886 0.08436 0.0
H1123 H 0.96705 0.68002 0.09189 0.0
H1124 H 0.81678 0.63664 0.1201 0.0
H1125 H 0.83779 0.61567 0.15387 0.0
H1126 H 0.82622 0.59076 0.11269 0.0
H1127 H 0.92621 0.74714 0.12894 0.0
H1128 H 0.96963 0.73489 0.12578 0.0
H1129 H 0.94732 0.72751 0.16351 0.0
C1130 C 0.32677 0.8554 0.18432 0.0
C1131 C 0.33071 0.81902 0.19054 0.0
C1132 C 0.34861 0.87722 0.16289 0.0
C1133 C 0.37456 0.86234 0.1456 0.0
C1134 C 0.37828 0.82537 0.15149 0.0
C1135 C 0.35722 0.80478 0.17426 0.0
C1136 C 0.34378 0.9165 0.15872 0.0
C1137 C 0.40427 0.80701 0.13346 0.0
C1138 C 0.39843 0.90728 0.06303 0.0
C1139 C 0.43284 0.92965 0.07188 0.0
C1140 C 0.38026 0.88458 0.08605 0.0
C1141 C 0.39577 0.88455 0.11994 0.0
C1142 C 0.43097 0.90643 0.12894 0.0
C1143 C 0.44914 0.92821 0.10491 0.0
C1144 C 0.34404 0.86064 0.07397 0.0
C1145 C 0.44905 0.9078 0.16444 0.0
H1146 H 0.30679 0.86717 0.19667 0.0
H1147 H 0.36082 0.77683 0.17849 0.0
H1148 H 0.37022 0.93578 0.16358 0.0
H1149 H 0.33285 0.91898 0.13232 0.0
H1150 H 0.32521 0.92541 0.17606 0.0
H1151 H 0.39715 0.77634 0.13313 0.0
H1152 H 0.4049 0.81464 0.10696 0.0
H1153 H 0.43177 0.81624 0.14674 0.0
H1154 H 0.38533 0.90775 0.03771 0.0
H1155 H 0.4754 0.94542 0.11251 0.0
H1156 H 0.32286 0.8703 0.08749 0.0
H1157 H 0.34397 0.83151 0.07978 0.0
H1158 H 0.33684 0.86115 0.04634 0.0
H1159 H 0.4319 0.91771 0.18269 0.0
H1160 H 0.47598 0.92631 0.16794 0.0
H1161 H 0.45222 0.87954 0.17061 0.0
C1162 C 0.73222 0.13353 0.18693 0.0
C1163 C 0.75407 0.16524 0.17709 0.0
C1164 C 0.70976 0.10834 0.16287 0.0
C1165 C 0.70942 0.11538 0.12835 0.0
C1166 C 0.73635 0.14328 0.11811 0.0
C1167 C 0.75843 0.1684 0.14284 0.0
C1168 C 0.6822 0.07828 0.17495 0.0
C1169 C 0.73817 0.15001 0.08132 0.0
C1170 C 0.63218 0.05654 0.06988 0.0
C1171 C 0.60633 0.07924 0.07027 0.0
C1172 C 0.66667 0.06826 0.0875 0.0
C1173 C 0.67509 0.1032 0.1063 0.0
C1174 C 0.64909 0.12621 0.10667 0.0
C1175 C 0.61533 0.11406 0.0885 0.0
C1176 C 0.69401 0.04349 0.08557 0.0
C1177 C 0.65639 0.16343 0.12706 0.0
H1178 H 0.72977 0.13055 0.2136 0.0
H1179 H 0.77594 0.19255 0.13523 0.0
H1180 H 0.65621 0.08787 0.17519 0.0
H1181 H 0.67753 0.05258 0.15782 0.0
H1182 H 0.6906 0.07161 0.20098 0.0
H1183 H 0.76524 0.16519 0.07691 0.0
H1184 H 0.73169 0.12343 0.06525 0.0
H1185 H 0.71811 0.16702 0.07334 0.0
H1186 H 0.62564 0.02962 0.05601 0.0
H1187 H 0.59566 0.13188 0.08917 0.0
H1188 H 0.70923 0.04279 0.1106 0.0
H1189 H 0.71376 0.05467 0.06817 0.0
H1190 H 0.68127 0.01465 0.07585 0.0
H1191 H 0.66325 0.15984 0.15421 0.0
H1192 H 0.63294 0.1775 0.1249 0.0
H1193 H 0.67962 0.18201 0.11839 0.0
C1194 C 0.64303 0.63227 0.80718 0.0
C1195 C 0.63057 0.63696 0.77376 0.0
C1196 C 0.62151 0.61011 0.82749 0.0
C1197 C 0.58674 0.59123 0.81389 0.0
C1198 C 0.57373 0.59561 0.78022 0.0
C1199 C 0.59581 0.6186 0.76051 0.0
C1200 C 0.63646 0.60639 0.86343 0.0
C1201 C 0.53697 0.57547 0.76482 0.0
C1202 C 0.56481 0.51084 0.86614 0.0
C1203 C 0.54791 0.52671 0.89146 0.0
C1204 C 0.57341 0.52975 0.8377 0.0
C1205 C 0.56556 0.56562 0.8351 0.0
C1206 C 0.54468 0.57974 0.85854 0.0
C1207 C 0.53588 0.55988 0.88651 0.0
C1208 C 0.59459 0.51315 0.81264 0.0
C1209 C 0.5354 0.6177 0.85651 0.0
H1210 H 0.67004 0.64535 0.81754 0.0
H1211 H 0.5858 0.62222 0.73483 0.0
H1212 H 0.61763 0.61325 0.88141 0.0
H1213 H 0.6395 0.57733 0.86638 0.0
H1214 H 0.66312 0.62478 0.87067 0.0
H1215 H 0.52895 0.58564 0.74009 0.0
H1216 H 0.53708 0.5454 0.76084 0.0
H1217 H 0.51633 0.57855 0.78214 0.0
H1218 H 0.57321 0.48459 0.86951 0.0
H1219 H 0.52238 0.57192 0.90587 0.0
H1220 H 0.62351 0.52615 0.8181 0.0
H1221 H 0.58562 0.51854 0.78642 0.0
H1222 H 0.59198 0.48275 0.81416 0.0
H1223 H 0.55908 0.63897 0.86731 0.0
H1224 H 0.51243 0.62073 0.87107 0.0
H1225 H 0.52862 0.62343 0.82991 0.0
C1226 C 0.30015 0.66414 0.83756 0.0
C1227 C 0.31182 0.67893 0.80798 0.0
C1228 C 0.32238 0.64586 0.85846 0.0
C1229 C 0.35689 0.64202 0.84944 0.0
C1230 C 0.36781 0.65528 0.81873 0.0
C1231 C 0.34541 0.67362 0.79864 0.0
C1232 C 0.30945 0.63158 0.8907 0.0
C1233 C 0.40364 0.65074 0.80735 0.0
C1234 C 0.43232 0.63458 0.91789 0.0
C1235 C 0.43166 0.5963 0.91648 0.0
C1236 C 0.40791 0.64959 0.89657 0.0
C1237 C 0.3825 0.6259 0.87263 0.0
C1238 C 0.38287 0.58734 0.8701 0.0
C1239 C 0.40712 0.57305 0.8923 0.0
C1240 C 0.40881 0.69083 0.90019 0.0
C1241 C 0.35714 0.56076 0.84467 0.0
H1242 H 0.27437 0.66812 0.84506 0.0
H1243 H 0.35461 0.68445 0.77562 0.0
H1244 H 0.31007 0.60158 0.89095 0.0
H1245 H 0.3278 0.64609 0.91274 0.0
H1246 H 0.28167 0.63564 0.89378 0.0
H1247 H 0.40742 0.66081 0.78195 0.0
H1248 H 0.42585 0.66633 0.82574 0.0
H1249 H 0.40593 0.62109 0.80655 0.0
H1250 H 0.45093 0.65272 0.93679 0.0
H1251 H 0.407 0.54359 0.89081 0.0
H1252 H 0.38217 0.69609 0.90609 0.0
H1253 H 0.4143 0.70298 0.87596 0.0
H1254 H 0.42966 0.70541 0.92041 0.0
H1255 H 0.33175 0.55132 0.85599 0.0
H1256 H 0.36844 0.53593 0.8378 0.0
H1257 H 0.35046 0.57385 0.82115 0.0
C1258 C 0.35257 0.38675 0.80659 0.0
C1259 C 0.31595 0.37245 0.79786 0.0
C1260 C 0.36514 0.40407 0.83897 0.0
C1261 C 0.34053 0.4056 0.86348 0.0
C1262 C 0.30315 0.39451 0.8536 0.0
C1263 C 0.29126 0.37903 0.82043 0.0
C1264 C 0.40521 0.41664 0.84809 0.0
C1265 C 0.27591 0.39557 0.87866 0.0
C1266 C 0.38922 0.39099 0.94675 0.0
C1267 C 0.40376 0.42779 0.95896 0.0
C1268 C 0.36495 0.38307 0.9173 0.0
C1269 C 0.35486 0.41259 0.89991 0.0
C1270 C 0.36449 0.4491 0.9153 0.0
C1271 C 0.38894 0.45638 0.94475 0.0
C1272 C 0.35317 0.34334 0.90292 0.0
C1273 C 0.35194 0.48082 0.89879 0.0
H1274 H 0.37167 0.38099 0.78937 0.0
H1275 H 0.26291 0.36737 0.81373 0.0
H1276 H 0.41116 0.44412 0.86269 0.0
H1277 H 0.41551 0.39657 0.86425 0.0
H1278 H 0.42 0.41857 0.8253 0.0
H1279 H 0.24905 0.37923 0.8686 0.0
H1280 H 0.28457 0.38461 0.90278 0.0
H1281 H 0.27317 0.42467 0.88445 0.0
H1282 H 0.39946 0.36846 0.95806 0.0
H1283 H 0.39887 0.48484 0.9547 0.0
H1284 H 0.3677 0.33865 0.88063 0.0
H1285 H 0.32392 0.33736 0.89431 0.0
H1286 H 0.35878 0.3235 0.92171 0.0
H1287 H 0.36541 0.48572 0.87552 0.0
H1288 H 0.35791 0.50668 0.91588 0.0
H1289 H 0.32257 0.47385 0.89104 0.0
C1290 C 0.6058 0.35232 0.76223 0.0
C1291 C 0.61374 0.31762 0.7539 0.0
C1292 C 0.58624 0.35738 0.78967 0.0
C1293 C 0.57538 0.32703 0.80906 0.0
C1294 C 0.57832 0.29091 0.79719 0.0
C1295 C 0.59755 0.28663 0.76945 0.0
C1296 C 0.58165 0.39602 0.80063 0.0
C1297 C 0.56518 0.25766 0.81621 0.0
C1298 C 0.59743 0.35815 0.9018 0.0
C1299 C 0.56348 0.36055 0.9113 0.0
C1300 C 0.60117 0.34459 0.86901 0.0
C1301 C 0.57026 0.33458 0.84499 0.0
C1302 C 0.53568 0.33469 0.8551 0.0
C1303 C 0.53268 0.34737 0.88838 0.0
C1304 C 0.63847 0.34282 0.85964 0.0
C1305 C 0.50201 0.32457 0.83051 0.0
H1306 H 0.61839 0.37609 0.74993 0.0
H1307 H 0.60371 0.25977 0.76242 0.0
H1308 H 0.55494 0.39541 0.80991 0.0
H1309 H 0.60258 0.40798 0.82174 0.0
H1310 H 0.58441 0.41454 0.77964 0.0
H1311 H 0.57071 0.23157 0.80419 0.0
H1312 H 0.57825 0.26187 0.84261 0.0
H1313 H 0.53576 0.25444 0.81748 0.0
H1314 H 0.62112 0.3681 0.91964 0.0
H1315 H 0.50631 0.34958 0.89559 0.0
H1316 H 0.64636 0.36381 0.8415 0.0
H1317 H 0.63878 0.31514 0.84707 0.0
H1318 H 0.659 0.34813 0.88204 0.0
H1319 H 0.49652 0.35002 0.81918 0.0
H1320 H 0.47836 0.31301 0.84362 0.0
H1321 H 0.50466 0.30426 0.80963 0.0
C1322 C 0.69956 0.33072 0.19588 0.0
C1323 C 0.72733 0.3159 0.18256 0.0
C1324 C 0.67665 0.3488 0.17585 0.0
C1325 C 0.68059 0.35151 0.14102 0.0
C1326 C 0.70906 0.33721 0.12746 0.0
C1327 C 0.73232 0.32001 0.14843 0.0
C1328 C 0.64763 0.36434 0.19196 0.0
C1329 C 0.71406 0.33878 0.09043 0.0
C1330 C 0.59636 0.36135 0.08334 0.0
C1331 C 0.60382 0.39888 0.07657 0.0
C1332 C 0.62114 0.34564 0.1038 0.0
C1333 C 0.65407 0.36802 0.11881 0.0
C1334 C 0.66105 0.40628 0.11316 0.0
C1335 C 0.63625 0.42103 0.09185 0.0
C1336 C 0.61247 0.3047 0.10857 0.0
C1337 C 0.69499 0.43169 0.12937 0.0
H1338 H 0.69544 0.32782 0.22224 0.0
H1339 H 0.7533 0.30826 0.13775 0.0
H1340 H 0.64901 0.39374 0.18649 0.0
H1341 H 0.62074 0.34877 0.18106 0.0
H1342 H 0.64989 0.36275 0.21982 0.0
H1343 H 0.73789 0.32751 0.08384 0.0
H1344 H 0.68974 0.32259 0.07497 0.0
H1345 H 0.71719 0.3678 0.0834 0.0
H1346 H 0.57179 0.34372 0.07135 0.0
H1347 H 0.64248 0.45002 0.08683 0.0
H1348 H 0.6117 0.30036 0.13582 0.0
H1349 H 0.63391 0.29103 0.09959 0.0
H1350 H 0.58622 0.29084 0.0947 0.0
H1351 H 0.69759 0.42977 0.15716 0.0
H1352 H 0.69552 0.4611 0.12421 0.0
H1353 H 0.71881 0.42295 0.11974 0.0
C1354 C 0.7224 0.65488 0.17087 0.0
C1355 C 0.69929 0.67765 0.18173 0.0
C1356 C 0.71245 0.63052 0.14168 0.0
C1357 C 0.67823 0.62836 0.1236 0.0
C1358 C 0.6543 0.65049 0.13529 0.0
C1359 C 0.66552 0.67561 0.1639 0.0
C1360 C 0.73918 0.60854 0.12945 0.0
C1361 C 0.61697 0.64795 0.1174 0.0
C1362 C 0.64795 0.60027 0.03172 0.0
C1363 C 0.62554 0.56595 0.03416 0.0
C1364 C 0.66941 0.61923 0.06032 0.0
C1365 C 0.66726 0.60381 0.09194 0.0
C1366 C 0.6489 0.5669 0.09335 0.0
C1367 C 0.62892 0.54796 0.06406 0.0
C1368 C 0.69087 0.65753 0.05743 0.0
C1369 C 0.64588 0.54921 0.12646 0.0
H1370 H 0.74893 0.65729 0.18448 0.0
H1371 H 0.64794 0.69351 0.17243 0.0
H1372 H 0.72617 0.57938 0.12148 0.0
H1373 H 0.75016 0.62086 0.10697 0.0
H1374 H 0.76187 0.60864 0.1492 0.0
H1375 H 0.60073 0.66464 0.1314 0.0
H1376 H 0.61886 0.65799 0.09181 0.0
H1377 H 0.60251 0.61864 0.11415 0.0
H1378 H 0.64587 0.61397 0.00847 0.0
H1379 H 0.61195 0.52119 0.06609 0.0
H1380 H 0.71703 0.66203 0.07348 0.0
H1381 H 0.67571 0.67858 0.06638 0.0
H1382 H 0.69598 0.66212 0.03086 0.0
H1383 H 0.67161 0.5561 0.14315 0.0
H1384 H 0.63768 0.51854 0.12243 0.0
H1385 H 0.6252 0.55997 0.13991 0.0
C1386 C 0.40632 0.6463 0.2309 0.0
C1387 C 0.40082 0.68262 0.23595 0.0
C1388 C 0.42456 0.63622 0.20379 0.0
C1389 C 0.43714 0.66322 0.18155 0.0
C1390 C 0.43529 0.70075 0.18914 0.0
C1391 C 0.41714 0.70999 0.21638 0.0
C1392 C 0.42722 0.59611 0.19703 0.0
C1393 C 0.44896 0.73045 0.16645 0.0
C1394 C 0.48887 0.6384 0.10929 0.0
C1395 C 0.46077 0.62629 0.0833 0.0
C1396 C 0.48181 0.65066 0.14155 0.0
C1397 C 0.44589 0.65144 0.14758 0.0
C1398 C 0.41766 0.64096 0.1209 0.0
C1399 C 0.42542 0.62801 0.08918 0.0
C1400 C 0.51248 0.66079 0.16947 0.0
C1401 C 0.37907 0.64255 0.12605 0.0
H1402 H 0.39358 0.62527 0.24613 0.0
H1403 H 0.41297 0.73816 0.22073 0.0
H1404 H 0.40702 0.58318 0.17568 0.0
H1405 H 0.4542 0.59394 0.18964 0.0
H1406 H 0.42219 0.58014 0.21946 0.0
H1407 H 0.44869 0.75871 0.17777 0.0
H1408 H 0.47679 0.72907 0.1611 0.0
H1409 H 0.43181 0.72578 0.14185 0.0
H1410 H 0.51619 0.6363 0.10498 0.0
H1411 H 0.40374 0.61852 0.06909 0.0
H1412 H 0.51101 0.63824 0.18684 0.0
H1413 H 0.51062 0.6865 0.18464 0.0
H1414 H 0.53912 0.66466 0.15947 0.0
H1415 H 0.36063 0.635 0.1023 0.0
H1416 H 0.37715 0.67089 0.1359 0.0
H1417 H 0.36963 0.62328 0.14511 0.0
C1418 C 0.43242 0.3898 0.23636 0.0
C1419 C 0.39587 0.3776 0.2247 0.0
C1420 C 0.45621 0.40922 0.21574 0.0
C1421 C 0.44301 0.4159 0.18275 0.0
C1422 C 0.40606 0.40401 0.17113 0.0
C1423 C 0.38299 0.38547 0.19239 0.0
C1424 C 0.49533 0.42211 0.22906 0.0
C1425 C 0.39066 0.41081 0.13614 0.0
C1426 C 0.47472 0.48934 0.12663 0.0
C1427 C 0.4846 0.46779 0.10027 0.0
C1428 C 0.46637 0.47404 0.15681 0.0
C1429 C 0.46675 0.43604 0.15986 0.0
C1430 C 0.48113 0.41562 0.13501 0.0
C1431 C 0.4902 0.43198 0.10534 0.0
C1432 C 0.45263 0.49725 0.18331 0.0
C1433 C 0.4823 0.37513 0.13747 0.0
H1434 H 0.44251 0.38359 0.26127 0.0
H1435 H 0.35463 0.37713 0.18363 0.0
H1436 H 0.51192 0.40518 0.21591 0.0
H1437 H 0.5048 0.45142 0.22393 0.0
H1438 H 0.50013 0.41957 0.25669 0.0
H1439 H 0.36162 0.39816 0.13064 0.0
H1440 H 0.39382 0.44105 0.1336 0.0
H1441 H 0.40543 0.3992 0.11666 0.0
H1442 H 0.47138 0.5175 0.12285 0.0
H1443 H 0.49826 0.41559 0.08493 0.0
H1444 H 0.45973 0.48929 0.20913 0.0
H1445 H 0.42284 0.49298 0.1787 0.0
H1446 H 0.46367 0.52723 0.18218 0.0
H1447 H 0.49022 0.36945 0.16385 0.0
H1448 H 0.50134 0.36589 0.12082 0.0
H1449 H 0.45505 0.35834 0.1295 0.0
C1450 C 0.78768 0.69169 0.64829 0.0
C1451 C 0.80772 0.71221 0.67686 0.0
C1452 C 0.80459 0.67342 0.62424 0.0
C1453 C 0.84216 0.67439 0.62969 0.0
C1454 C 0.86237 0.69482 0.65878 0.0
C1455 C 0.84502 0.71407 0.68161 0.0
C1456 C 0.78232 0.65327 0.59292 0.0
C1457 C 0.90222 0.69567 0.66625 0.0
C1458 C 0.88076 0.5973 0.58696 0.0
C1459 C 0.89972 0.61609 0.56267 0.0
C1460 C 0.86171 0.61585 0.60882 0.0
C1461 C 0.86043 0.65371 0.60536 0.0
C1462 C 0.87819 0.67226 0.5797 0.0
C1463 C 0.8983 0.65345 0.55918 0.0
C1464 C 0.84437 0.59539 0.6366 0.0
C1465 C 0.87643 0.71213 0.57426 0.0
H1466 H 0.75885 0.69043 0.64451 0.0
H1467 H 0.86051 0.72961 0.7039 0.0
H1468 H 0.79416 0.66335 0.56998 0.0
H1469 H 0.78252 0.62317 0.59262 0.0
H1470 H 0.75393 0.6571 0.59139 0.0
H1471 H 0.91366 0.71144 0.69074 0.0
H1472 H 0.90721 0.66695 0.667 0.0
H1473 H 0.91688 0.70854 0.64586 0.0
H1474 H 0.88227 0.56852 0.58992 0.0
H1475 H 0.91292 0.66793 0.5403 0.0
H1476 H 0.81526 0.59617 0.63475 0.0
H1477 H 0.85664 0.60926 0.6616 0.0
H1478 H 0.84752 0.56595 0.63568 0.0
H1479 H 0.84807 0.71598 0.57244 0.0
H1480 H 0.88824 0.72119 0.55096 0.0
H1481 H 0.89126 0.7305 0.59616 0.0
C1482 C 0.44362 0.8667 0.73122 0.0
C1483 C 0.42254 0.83447 0.71394 0.0
C1484 C 0.46295 0.89396 0.71351 0.0
C1485 C 0.46091 0.88846 0.67793 0.0
C1486 C 0.44336 0.85396 0.66103 0.0
C1487 C 0.42402 0.8274 0.67933 0.0
C1488 C 0.48189 0.93005 0.73256 0.0
C1489 C 0.44156 0.84669 0.62311 0.0
C1490 C 0.44431 0.9621 0.62132 0.0
C1491 C 0.47531 0.96672 0.6044 0.0
C1492 C 0.44065 0.939 0.64772 0.0
C1493 C 0.46892 0.92049 0.6576 0.0
C1494 C 0.50191 0.92847 0.6435 0.0
C1495 C 0.50466 0.95128 0.61657 0.0
C1496 C 0.40526 0.93192 0.66291 0.0
C1497 C 0.53324 0.91096 0.65526 0.0
H1498 H 0.44262 0.87208 0.75812 0.0
H1499 H 0.40834 0.80197 0.66635 0.0
H1500 H 0.50486 0.94388 0.71979 0.0
H1501 H 0.46257 0.94911 0.73412 0.0
H1502 H 0.49185 0.92554 0.75882 0.0
H1503 H 0.43137 0.81695 0.6147 0.0
H1504 H 0.42325 0.86321 0.61058 0.0
H1505 H 0.46852 0.85534 0.61443 0.0
H1506 H 0.42185 0.9747 0.61267 0.0
H1507 H 0.52918 0.95572 0.60428 0.0
H1508 H 0.40997 0.93468 0.69093 0.0
H1509 H 0.39077 0.90317 0.65505 0.0
H1510 H 0.38755 0.95132 0.65479 0.0
H1511 H 0.53591 0.90995 0.68314 0.0
H1512 H 0.55894 0.92632 0.64778 0.0
H1513 H 0.52849 0.88197 0.64396 0.0
C1514 C 0.14003 0.32264 0.62732 0.0
C1515 C 0.15164 0.31735 0.66058 0.0
C1516 C 0.10874 0.33636 0.61973 0.0
C1517 C 0.08874 0.34545 0.64643 0.0
C1518 C 0.09796 0.33596 0.67947 0.0
C1519 C 0.12961 0.32217 0.68627 0.0
C1520 C 0.09945 0.34422 0.58344 0.0
C1521 C 0.076 0.34218 0.70814 0.0
C1522 C 0.0727 0.43089 0.61541 0.0
C1523 C 0.04629 0.41464 0.58922 0.0
C1524 C 0.082 0.40993 0.64169 0.0
C1525 C 0.06485 0.37225 0.64048 0.0
C1526 C 0.03183 0.36001 0.62017 0.0
C1527 C 0.02292 0.38141 0.59395 0.0
C1528 C 0.11484 0.42555 0.66615 0.0
C1529 C 1.01015 0.32161 0.62173 0.0
H1530 H 0.15667 0.31832 0.6074 0.0
H1531 H 0.13747 0.31617 0.71187 0.0
H1532 H 0.07082 0.33242 0.57485 0.0
H1533 H 0.10414 0.37459 0.58132 0.0
H1534 H 0.11605 0.33229 0.5658 0.0
H1535 H 0.09102 0.36566 0.72572 0.0
H1536 H 0.04928 0.34822 0.69938 0.0
H1537 H 0.07191 0.31724 0.72274 0.0
H1538 H 0.08906 0.45795 0.61328 0.0
H1539 H 1.00049 0.36994 0.57511 0.0
H1540 H 0.13841 0.41503 0.65783 0.0
H1541 H 0.11074 0.41667 0.69183 0.0
H1542 H 0.12116 0.45635 0.66752 0.0
H1543 H 0.02072 0.30158 0.60536 0.0
H1544 H 0.98141 0.32027 0.61248 0.0
H1545 H 1.01212 0.31295 0.64795 0.0
C1546 C 0.7432 0.17195 0.65299 0.0
C1547 C 0.72036 0.18674 0.67337 0.0
C1548 C 0.72907 0.14957 0.6231 0.0
C1549 C 0.69132 0.14146 0.61412 0.0
C1550 C 0.66827 0.15504 0.63575 0.0
C1551 C 0.68315 0.17795 0.66478 0.0
C1552 C 0.75484 0.13652 0.6007 0.0
C1553 C 0.62774 0.14626 0.62788 0.0
C1554 C 0.63372 0.12338 0.53192 0.0
C1555 C 0.61615 0.08698 0.53516 0.0
C1556 C 0.66347 0.14019 0.55474 0.0
C1557 C 0.67481 0.12036 0.58175 0.0
C1558 C 0.66115 0.08188 0.58149 0.0
C1559 C 0.632 0.06544 0.55786 0.0
C1560 C 0.67931 0.18062 0.55279 0.0
C1561 C 0.67351 0.05938 0.60911 0.0
H1562 H 0.77211 0.17912 0.65961 0.0
H1563 H 0.66559 0.18919 0.68082 0.0
H1564 H 0.7424 0.11081 0.58468 0.0
H1565 H 0.76372 0.15853 0.58378 0.0
H1566 H 0.77919 0.13158 0.61605 0.0
H1567 H 0.6138 0.15644 0.6488 0.0
H1568 H 0.61979 0.15936 0.60472 0.0
H1569 H 0.61804 0.11588 0.62305 0.0
H1570 H 0.62232 0.1398 0.51361 0.0
H1571 H 0.61914 0.03694 0.56001 0.0
H1572 H 0.70882 0.1862 0.56017 0.0
H1573 H 0.66708 0.19768 0.57064 0.0
H1574 H 0.67395 0.18948 0.52694 0.0
H1575 H 0.70304 0.0673 0.61593 0.0
H1576 H 0.66639 0.02915 0.60149 0.0
H1577 H 0.66025 0.06489 0.63205 0.0
C1578 C 0.77275 0.34115 0.34467 0.0
C1579 C 0.79124 0.33727 0.31621 0.0
C1580 C 0.78769 0.36788 0.37146 0.0
C1581 C 0.82215 0.39 0.3699 0.0
C1582 C 0.83825 0.38947 0.33927 0.0
C1583 C 0.82239 0.36329 0.31275 0.0
C1584 C 0.76793 0.37004 0.40237 0.0
C1585 C 0.87451 0.41325 0.33578 0.0
C1586 C 0.88939 0.45681 0.43022 0.0
C1587 C 0.91091 0.43232 0.44231 0.0
C1588 C 0.85644 0.44306 0.41029 0.0
C1589 C 0.84604 0.40442 0.40136 0.0
C1590 C 0.8655 0.37972 0.41718 0.0
C1591 C 0.89729 0.39405 0.43788 0.0
C1592 C 0.83427 0.47003 0.397 0.0
C1593 C 0.85525 0.33814 0.40928 0.0
H1594 H 0.74788 0.32202 0.34699 0.0
H1595 H 0.83601 0.36152 0.29015 0.0
H1596 H 0.77131 0.3466 0.41782 0.0
H1597 H 0.77785 0.39646 0.41825 0.0
H1598 H 0.73863 0.36734 0.39478 0.0
H1599 H 0.88247 0.41043 0.30976 0.0
H1600 H 0.87407 0.44284 0.34221 0.0
H1601 H 0.89553 0.40529 0.35358 0.0
H1602 H 0.89906 0.48649 0.43455 0.0
H1603 H 0.91289 0.37491 0.4486 0.0
H1604 H 0.80571 0.45652 0.38977 0.0
H1605 H 0.84542 0.48187 0.37444 0.0
H1606 H 0.83542 0.4934 0.41633 0.0
H1607 H 0.82726 0.32797 0.41477 0.0
H1608 H 0.87315 0.32296 0.4242 0.0
H1609 H 0.85665 0.33101 0.38201 0.0
C1610 C 0.67158 0.76752 0.33953 0.0
C1611 C 0.67521 0.77974 0.30708 0.0
C1612 C 0.6535 0.78557 0.36284 0.0
C1613 C 0.63878 0.81669 0.35362 0.0
C1614 C 0.6414 0.82831 0.32052 0.0
C1615 C 0.6591 0.80946 0.29766 0.0
C1616 C 0.65157 0.77234 0.39786 0.0
C1617 C 0.62615 0.86104 0.3089 0.0
C1618 C 0.5698 0.85156 0.40476 0.0
C1619 C 0.59094 0.88256 0.42408 0.0
C1620 C 0.585 0.82963 0.38206 0.0
C1621 C 0.62239 0.83832 0.37898 0.0
C1622 C 0.64395 0.86921 0.3988 0.0
C1623 C 0.62798 0.89103 0.42085 0.0
C1624 C 0.56089 0.79772 0.36067 0.0
C1625 C 0.68381 0.87983 0.39598 0.0
H1626 H 0.68414 0.7448 0.34726 0.0
H1627 H 0.66138 0.81896 0.27261 0.0
H1628 H 0.66749 0.79406 0.41672 0.0
H1629 H 0.62334 0.76753 0.40412 0.0
H1630 H 0.6621 0.74634 0.40042 0.0
H1631 H 0.64229 0.8751 0.28994 0.0
H1632 H 0.59825 0.85097 0.29679 0.0
H1633 H 0.62533 0.88193 0.32992 0.0
H1634 H 0.54115 0.84484 0.40684 0.0
H1635 H 0.64466 0.91475 0.43571 0.0
H1636 H 0.57128 0.77177 0.36387 0.0
H1637 H 0.56093 0.80317 0.33357 0.0
H1638 H 0.5327 0.79336 0.36713 0.0
H1639 H 0.6969 0.8557 0.40011 0.0
H1640 H 0.69727 0.90322 0.41448 0.0
H1641 H 0.68812 0.88798 0.37008 0.0
C1642 C 0.20498 0.65382 0.3219 0.0
C1643 C 0.19945 0.68878 0.31234 0.0
C1644 C 0.18238 0.63253 0.34321 0.0
C1645 C 0.15352 0.64635 0.35665 0.0
C1646 C 0.14801 0.68177 0.34725 0.0
C1647 C 0.1704 0.70201 0.32518 0.0
C1648 C 0.18951 0.59494 0.35139 0.0
C1649 C 0.11878 0.69885 0.3612 0.0
C1650 C 0.07756 0.57865 0.39425 0.0
C1651 C 0.09005 0.58116 0.42893 0.0
C1652 C 0.09738 0.59968 0.37069 0.0
C1653 C 0.13053 0.62472 0.38164 0.0
C1654 C 0.14226 0.62831 0.41689 0.0
C1655 C 0.12251 0.60637 0.43958 0.0
C1656 C 0.08355 0.59381 0.33367 0.0
C1657 C 0.17641 0.65492 0.43077 0.0
H1658 H 0.22693 0.64276 0.31238 0.0
H1659 H 0.16553 0.72889 0.31852 0.0
H1660 H 0.19771 0.59512 0.37888 0.0
H1661 H 0.16453 0.57365 0.34522 0.0
H1662 H 0.21101 0.58666 0.3373 0.0
H1663 H 0.11764 0.72644 0.35176 0.0
H1664 H 0.09222 0.68031 0.35423 0.0
H1665 H 0.1234 0.70208 0.38924 0.0
H1666 H 0.0532 0.55883 0.38518 0.0
H1667 H 0.133 0.60849 0.46605 0.0
H1668 H 0.10293 0.5817 0.31946 0.0
H1669 H 0.08142 0.62072 0.32336 0.0
H1670 H 0.05681 0.57501 0.32903 0.0
H1671 H 0.1999 0.64559 0.42104 0.0
H1672 H 0.18044 0.65708 0.45887 0.0
H1673 H 0.17587 0.68293 0.42216 0.0
C1674 C 0.30942 0.15891 0.30432 0.0
C1675 C 0.31058 0.1968 0.31243 0.0
C1676 C 0.33002 0.1385 0.32454 0.0
C1677 C 0.35132 0.15591 0.35444 0.0
C1678 C 0.35181 0.194 0.3631 0.0
C1679 C 0.33212 0.21405 0.34171 0.0
C1680 C 0.32952 0.09844 0.31354 0.0
C1681 C 0.37293 0.21361 0.39519 0.0
C1682 C 0.377 0.09646 0.4252 0.0
C1683 C 0.41412 0.09875 0.42359 0.0
C1684 C 0.35629 0.11444 0.40273 0.0
C1685 C 0.37262 0.13441 0.37706 0.0
C1686 C 0.40975 0.13529 0.37427 0.0
C1687 C 0.4301 0.11802 0.39781 0.0
C1688 C 0.31725 0.11356 0.40761 0.0
C1689 C 0.42816 0.15497 0.34667 0.0
H1690 H 0.29328 0.14548 0.28148 0.0
H1691 H 0.33315 0.24329 0.34821 0.0
H1692 H 0.35736 0.09435 0.311 0.0
H1693 H 0.3189 0.08033 0.333 0.0
H1694 H 0.31276 0.08929 0.28905 0.0
H1695 H 0.36929 0.24276 0.39914 0.0
H1696 H 0.36442 0.19861 0.41731 0.0
H1697 H 0.40202 0.21367 0.39443 0.0
H1698 H 0.36438 0.08215 0.44525 0.0
H1699 H 0.45863 0.1198 0.39617 0.0
H1700 H 0.29981 0.10273 0.38389 0.0
H1701 H 0.31317 0.14218 0.41383 0.0
H1702 H 0.30827 0.09616 0.42818 0.0
H1703 H 0.41384 0.14359 0.32159 0.0
H1704 H 0.45676 0.15216 0.3472 0.0
H1705 H 0.4271 0.18489 0.34931 0.0
C1706 C 0.70132 0.85393 0.70259 0.0
C1707 C 0.71348 0.82331 0.68847 0.0
C1708 C 0.67929 0.8733 0.68283 0.0
C1709 C 0.67007 0.86257 0.64778 0.0
C1710 C 0.68331 0.83224 0.63332 0.0
C1711 C 0.70415 0.81256 0.65395 0.0
C1712 C 0.66495 0.90452 0.69968 0.0
C1713 C 0.67517 0.8203 0.59603 0.0
C1714 C 0.58683 0.88508 0.59749 0.0
C1715 C 0.60136 0.91647 0.58131 0.0
C1716 C 0.6085 0.86839 0.62025 0.0
C1717 C 0.6461 0.8824 0.62627 0.0
C1718 C 0.6609 0.91434 0.61036 0.0
C1719 C 0.63841 0.93117 0.58854 0.0
C1720 C 0.59116 0.8353 0.6375 0.0
C1721 C 0.70085 0.9298 0.61512 0.0
H1722 H 0.70794 0.86184 0.72944 0.0
H1723 H 0.71329 0.78871 0.64305 0.0
H1724 H 0.6735 0.93056 0.68751 0.0
H1725 H 0.63507 0.89811 0.69645 0.0
H1726 H 0.67431 0.90934 0.72714 0.0
H1727 H 0.68942 0.79793 0.58825 0.0
H1728 H 0.64581 0.81014 0.58968 0.0
H1729 H 0.6831 0.84431 0.58096 0.0
H1730 H 0.55844 0.87312 0.59202 0.0
H1731 H 0.65028 0.95507 0.57603 0.0
H1732 H 0.5969 0.841 0.66536 0.0
H1733 H 0.6027 0.81076 0.63035 0.0
H1734 H 0.56152 0.82825 0.63087 0.0
H1735 H 0.71048 0.93568 0.64241 0.0
H1736 H 0.70804 0.95567 0.60224 0.0
H1737 H 0.71546 0.90889 0.60485 0.0
C1738 C 0.58763 0.17766 0.29723 0.0
C1739 C 0.62475 0.18787 0.30748 0.0
C1740 C 0.56508 0.15392 0.31565 0.0
C1741 C 0.58006 0.1409 0.34525 0.0
C1742 C 0.61662 0.15412 0.35762 0.0
C1743 C 0.63856 0.17732 0.33847 0.0
C1744 C 0.52612 0.14081 0.30184 0.0
C1745 C 0.6333 0.14169 0.38989 0.0
C1746 C 0.53393 0.09388 0.41367 0.0
C1747 C 0.5413 0.05829 0.40819 0.0
C1748 C 0.54238 0.12051 0.39078 0.0
C1749 C 0.55916 0.11112 0.36226 0.0
C1750 C 0.56325 0.07412 0.35482 0.0
C1751 C 0.55462 0.04803 0.37829 0.0
C1752 C 0.53729 0.15962 0.39915 0.0
C1753 C 0.58015 0.06312 0.32392 0.0
H1754 H 0.57632 0.18677 0.27398 0.0
H1755 H 0.66695 0.18512 0.347 0.0
H1756 H 0.52388 0.11581 0.28414 0.0
H1757 H 0.50863 0.13327 0.32208 0.0
H1758 H 0.51588 0.16234 0.28749 0.0
H1759 H 0.66121 0.15716 0.39741 0.0
H1760 H 0.61692 0.14551 0.41097 0.0
H1761 H 0.63405 0.11172 0.38638 0.0
H1762 H 0.52497 0.10203 0.43744 0.0
H1763 H 0.56011 0.02031 0.3742 0.0
H1764 H 0.52596 0.1711 0.37633 0.0
H1765 H 0.56378 0.17757 0.40795 0.0
H1766 H 0.51923 0.16105 0.41936 0.0
H1767 H 0.5689 0.07503 0.30131 0.0
H1768 H 0.5759 0.03251 0.3189 0.0
H1769 H 0.60957 0.07429 0.32774 0.0
C1770 C 0.81536 0.60387 0.34807 0.0
C1771 C 0.8122 0.62357 0.31935 0.0
C1772 C 0.84758 0.59267 0.35827 0.0
C1773 C 0.87687 0.60052 0.33859 0.0
C1774 C 0.87181 0.6147 0.30682 0.0
C1775 C 0.83955 0.62647 0.29759 0.0
C1776 C 0.85144 0.57655 0.39213 0.0
C1777 C 0.90143 0.62107 0.28402 0.0
C1778 C 0.95489 0.62764 0.40385 0.0
C1779 C 0.96082 0.59224 0.40987 0.0
C1780 C 0.93105 0.63227 0.37619 0.0
C1781 C 0.91348 0.60066 0.35476 0.0
C1782 C 0.92559 0.56684 0.35683 0.0
C1783 C 0.94921 0.56287 0.38484 0.0
C1784 C 0.9203 0.6695 0.37331 0.0
C1785 C 0.9094 0.53348 0.33269 0.0
H1786 H 0.79373 0.60007 0.36415 0.0
H1787 H 0.83744 0.64073 0.27475 0.0
H1788 H 0.86511 0.55254 0.39043 0.0
H1789 H 0.86822 0.59786 0.41088 0.0
H1790 H 0.825 0.56741 0.40178 0.0
H1791 H 0.89001 0.61363 0.25729 0.0
H1792 H 0.91413 0.65092 0.28662 0.0
H1793 H 0.92261 0.60472 0.29 0.0
H1794 H 0.96454 0.65039 0.42307 0.0
H1795 H 0.95482 0.53564 0.38936 0.0
H1796 H 0.89362 0.66863 0.38274 0.0
H1797 H 0.91793 0.67618 0.34652 0.0
H1798 H 0.94003 0.69209 0.38833 0.0
H1799 H 0.88177 0.52205 0.33859 0.0
H1800 H 0.92553 0.51128 0.33447 0.0
H1801 H 0.90726 0.54151 0.30629 0.0
C1802 C 0.33977 0.83129 0.34372 0.0
C1803 C 0.30293 0.82331 0.33308 0.0
C1804 C 0.35334 0.85479 0.37275 0.0
C1805 C 0.32923 0.86962 0.39231 0.0
C1806 C 0.29183 0.8614 0.38181 0.0
C1807 C 0.27912 0.83882 0.35178 0.0
C1808 C 0.3936 0.86341 0.38259 0.0
C1809 C 0.26533 0.87559 0.40264 0.0
C1810 C 0.38245 0.89399 0.47644 0.0
C1811 C 0.40008 0.92993 0.47164 0.0
C1812 C 0.35409 0.87535 0.453 0.0
C1813 C 0.34414 0.89296 0.42394 0.0
C1814 C 0.3577 0.93123 0.4222 0.0
C1815 C 0.3854 0.94952 0.44651 0.0
C1816 C 0.33893 0.83508 0.4567 0.0
C1817 C 0.34761 0.95134 0.39192 0.0
H1818 H 0.35808 0.81945 0.32902 0.0
H1819 H 0.2505 0.83235 0.34351 0.0
H1820 H 0.40349 0.89385 0.38603 0.0
H1821 H 0.40003 0.85185 0.407 0.0
H1822 H 0.4086 0.85165 0.36334 0.0
H1823 H 0.23704 0.8658 0.39136 0.0
H1824 H 0.26811 0.86629 0.42856 0.0
H1825 H 0.27111 0.90633 0.40517 0.0
H1826 H 0.39317 0.87911 0.49644 0.0
H1827 H 0.39857 0.97759 0.443 0.0
H1828 H 0.35393 0.81745 0.44224 0.0
H1829 H 0.31013 0.82762 0.44651 0.0
H1830 H 0.3417 0.82862 0.4836 0.0
H1831 H 0.36433 0.94574 0.37152 0.0
H1832 H 0.35259 0.98181 0.39822 0.0
H1833 H 0.31898 0.9417 0.38188 0.0
C1834 C 0.19369 0.28835 0.34313 0.0
C1835 C 0.21846 0.30866 0.324 0.0
C1836 C 0.17672 0.30629 0.3674 0.0
C1837 C 0.18374 0.3456 0.37194 0.0
C1838 C 0.20902 0.36617 0.35288 0.0
C1839 C 0.22643 0.34746 0.32957 0.0
C1840 C 0.15064 0.2831 0.38762 0.0
C1841 C 0.21648 0.40805 0.35594 0.0
C1842 C 0.10809 0.38936 0.40263 0.0
C1843 C 0.12118 0.40167 0.43631 0.0
C1844 C 0.12847 0.37187 0.38141 0.0
C1845 C 0.16247 0.36521 0.39439 0.0
C1846 C 0.17581 0.37737 0.42853 0.0
C1847 C 0.15528 0.39609 0.44894 0.0
C1848 C 0.11358 0.36063 0.34497 0.0
C1849 C 0.21137 0.36984 0.44369 0.0
H1850 H 0.18751 0.25835 0.33911 0.0
H1851 H 0.24531 0.36338 0.31469 0.0
H1852 H 0.15644 0.29259 0.41491 0.0
H1853 H 0.1228 0.28639 0.37939 0.0
H1854 H 0.15176 0.25316 0.38442 0.0
H1855 H 0.23794 0.41997 0.34043 0.0
H1856 H 0.19154 0.41807 0.34762 0.0
H1857 H 0.22466 0.41879 0.3827 0.0
H1858 H 0.08186 0.3939 0.39266 0.0
H1859 H 0.16534 0.40528 0.47503 0.0
H1860 H 0.10918 0.33006 0.34012 0.0
H1861 H 0.13322 0.37282 0.32785 0.0
H1862 H 0.08768 0.36965 0.33831 0.0
H1863 H 0.21078 0.33952 0.44177 0.0
H1864 H 0.21777 0.38055 0.47068 0.0
H1865 H 0.23338 0.3828 0.42934 0.0
C1866 C 0.37206 0.22649 0.70757 0.0
C1867 C 0.347 0.24743 0.69529 0.0
C1868 C 0.38987 0.20684 0.68543 0.0
C1869 C 0.38257 0.20807 0.65001 0.0
C1870 C 0.35871 0.23067 0.6375 0.0
C1871 C 0.34125 0.25006 0.66025 0.0
C1872 C 0.41518 0.1833 0.69997 0.0
C1873 C 0.35025 0.23296 0.59998 0.0
C1874 C 0.44573 0.17346 0.59184 0.0
C1875 C 0.42711 0.13728 0.58119 0.0
C1876 C 0.43161 0.19683 0.6141 0.0
C1877 C 0.39802 0.18386 0.62612 0.0
C1878 C 0.3791 0.14745 0.61547 0.0
C1879 C 0.3938 0.12468 0.59322 0.0
C1880 C 0.45265 0.23543 0.62476 0.0
C1881 C 0.34315 0.13255 0.62754 0.0
H1882 H 0.37679 0.22424 0.73456 0.0
H1883 H 0.32186 0.26598 0.65042 0.0
H1884 H 0.40354 0.15355 0.693 0.0
H1885 H 0.44132 0.18952 0.68923 0.0
H1886 H 0.42023 0.1877 0.72798 0.0
H1887 H 0.33389 0.25436 0.59441 0.0
H1888 H 0.37547 0.23942 0.58775 0.0
H1889 H 0.33511 0.20573 0.58831 0.0
H1890 H 0.47146 0.18366 0.58279 0.0
H1891 H 0.37906 0.0969 0.58524 0.0
H1892 H 0.45893 0.23892 0.65267 0.0
H1893 H 0.4362 0.25625 0.61762 0.0
H1894 H 0.47826 0.24148 0.61303 0.0
H1895 H 0.34584 0.13346 0.65558 0.0
H1896 H 0.33191 0.10357 0.6172 0.0
H1897 H 0.32366 0.15026 0.61985 0.0
C1898 C 0.81628 0.35735 0.67782 0.0
C1899 C 0.82343 0.32402 0.69009 0.0
C1900 C 0.83927 0.37863 0.65681 0.0
C1901 C 0.87043 0.36651 0.64655 0.0
C1902 C 0.87764 0.3327 0.65867 0.0
C1903 C 0.85466 0.31245 0.68031 0.0
C1904 C 0.83008 0.41441 0.64551 0.0
C1905 C 0.9095 0.3174 0.6483 0.0
C1906 C 0.90525 0.40512 0.56436 0.0
C1907 C 0.93508 0.43341 0.57607 0.0
C1908 C 0.8854 0.38248 0.58657 0.0
C1909 C 0.89428 0.38837 0.62226 0.0
C1910 C 0.92502 0.41634 0.63428 0.0
C1911 C 0.94495 0.43818 0.61129 0.0
C1912 C 0.85398 0.35282 0.57165 0.0
C1913 C 0.93594 0.4245 0.67173 0.0
H1914 H 0.79266 0.36716 0.68493 0.0
H1915 H 0.86101 0.287 0.68923 0.0
H1916 H 0.85341 0.43752 0.65251 0.0
H1917 H 0.82428 0.41231 0.61756 0.0
H1918 H 0.80636 0.42139 0.65688 0.0
H1919 H 0.91159 0.29083 0.65942 0.0
H1920 H 0.9073 0.31272 0.62033 0.0
H1921 H 0.93475 0.33775 0.65629 0.0
H1922 H 0.89667 0.40127 0.53742 0.0
H1923 H 0.96715 0.46035 0.62111 0.0
H1924 H 0.8285 0.36026 0.57861 0.0
H1925 H 0.85602 0.32595 0.58213 0.0
H1926 H 0.85243 0.34907 0.54363 0.0
H1927 H 0.91425 0.43508 0.68373 0.0
H1928 H 0.96132 0.44538 0.67733 0.0
H1929 H 0.93952 0.39873 0.68353 0.0
C1930 C 0.25478 0.68806 0.63759 0.0
C1931 C 0.25867 0.67653 0.67033 0.0
C1932 C 0.2318 0.6651 0.61184 0.0
C1933 C 0.21244 0.6303 0.61946 0.0
C1934 C 0.22107 0.61648 0.65095 0.0
C1935 C 0.24401 0.63993 0.67613 0.0
C1936 C 0.2243 0.68033 0.57818 0.0
C1937 C 0.20176 0.57933 0.66006 0.0
C1938 C 0.1126 0.61315 0.59141 0.0
C1939 C 0.10831 0.58478 0.56544 0.0
C1940 C 0.1463 0.6279 0.60892 0.0
C1941 C 0.17698 0.61438 0.59996 0.0
C1942 C 0.17295 0.58552 0.57381 0.0
C1943 C 0.13845 0.57081 0.55691 0.0
C1944 C 0.14888 0.65797 0.63721 0.0
C1945 C 0.20501 0.5709 0.56305 0.0
H1946 H 0.26605 0.71644 0.63314 0.0
H1947 H 0.24724 0.63103 0.70152 0.0
H1948 H 0.21979 0.65808 0.55729 0.0
H1949 H 0.1995 0.69217 0.5782 0.0
H1950 H 0.24677 0.70265 0.57323 0.0
H1951 H 0.21678 0.56927 0.68175 0.0
H1952 H 0.17483 0.58205 0.66731 0.0
H1953 H 0.1977 0.55825 0.63824 0.0
H1954 H 0.08928 0.6238 0.59826 0.0
H1955 H 0.1353 0.54926 0.5365 0.0
H1956 H 0.16718 0.68353 0.63161 0.0
H1957 H 0.16025 0.64894 0.66129 0.0
H1958 H 0.12232 0.66503 0.6411 0.0
H1959 H 0.2208 0.59165 0.54846 0.0
H1960 H 0.1968 0.54445 0.54685 0.0
H1961 H 0.22306 0.56646 0.58534 0.0
loop_
_geom_bond_atom_site_label_1
_geom_bond_atom_site_label_2
_geom_bond_distance
_geom_bond_site_symmetry_2
_ccdc_geom_bond_type
Co0 N5 2.057 . S
Co0 O17 2.021 . S
Co0 O20 2.062 . S
Co0 O24 2.117 . S
Co0 O25 2.020 . S
C1 O21 1.259 . S
C1 O24 1.258 . S
Co2 N11 2.057 . S
Co2 O18 2.117 . S
Co2 O19 2.020 . S
Co2 O21 2.021 . S
Co2 O26 2.062 . S
C3 N5 1.316 . S
C3 N6 1.347 . S
C3 H8 0.931 . S
C4 N5 1.375 . S
C4 C7 1.350 . S
C4 H9 0.930 . S
N5 Co0 2.057 . S
N5 C3 1.316 . S
N5 C4 1.375 . S
N6 C3 1.347 . S
N6 C7 1.373 . S
C7 C4 1.350 . S
C7 N6 1.373 . S
C7 H28 0.931 . S
H8 C3 0.931 . S
H9 C4 0.930 . S
C10 O17 1.259 . S
C10 O18 1.258 . S
N11 Co2 2.057 . S
N11 C12 1.316 . S
N11 C13 1.375 . S
C12 N11 1.316 . S
C12 N14 1.347 . S
C12 H23 0.931 . S
C13 N11 1.375 . S
C13 C15 1.350 . S
C13 H22 0.930 . S
N14 C12 1.347 . S
N14 C15 1.373 . S
C15 C13 1.350 . S
C15 N14 1.373 . S
C15 H29 0.931 . S
C16 O19 1.256 . S
C16 O20 1.255 . S
O17 Co0 2.021 . S
O17 C10 1.259 . S
O18 Co2 2.117 . S
O18 C10 1.258 . S
O19 Co2 2.020 . S
O19 C16 1.256 . S
O20 Co0 2.062 . S
O20 C16 1.255 . S
O21 C1 1.259 . S
O21 Co2 2.021 . S
H22 C13 0.930 . S
H23 C12 0.931 . S
O24 Co0 2.117 . S
O24 C1 1.258 . S
O25 Co0 2.020 . S
O25 C27 1.256 . S
O26 Co2 2.062 . S
O26 C27 1.255 . S
C27 O25 1.256 . S
C27 O26 1.255 . S
H28 C7 0.931 . S
H29 C15 0.931 . S
Co30 N35 2.057 . S
Co30 O47 2.021 . S
Co30 O50 2.062 . S
Co30 O54 2.117 . S
Co30 O55 2.020 . S
C31 O51 1.259 . S
C31 O54 1.258 . S
Co32 N41 2.057 . S
Co32 O48 2.117 . S
Co32 O49 2.020 . S
Co32 O51 2.021 . S
Co32 O56 2.062 . S
C33 N35 1.316 . S
C33 N36 1.347 . S
C33 H38 0.931 . S
C34 N35 1.375 . S
C34 C37 1.350 . S
C34 H39 0.930 . S
N35 Co30 2.057 . S
N35 C33 1.316 . S
N35 C34 1.375 . S
N36 C33 1.347 . S
N36 C37 1.373 . S
C37 C34 1.350 . S
C37 N36 1.373 . S
C37 H58 0.931 . S
H38 C33 0.931 . S
H39 C34 0.930 . S
C40 O47 1.259 . S
C40 O48 1.258 . S
N41 Co32 2.057 . S
N41 C42 1.316 . S
N41 C43 1.375 . S
C42 N41 1.316 . S
C42 N44 1.347 . S
C42 H53 0.931 . S
C43 N41 1.375 . S
C43 C45 1.350 . S
C43 H52 0.930 . S
N44 C42 1.347 . S
N44 C45 1.373 . S
C45 C43 1.350 . S
C45 N44 1.373 . S
C45 H59 0.931 . S
C46 O49 1.256 . S
C46 O50 1.255 . S
O47 Co30 2.021 . S
O47 C40 1.259 . S
O48 Co32 2.117 . S
O48 C40 1.258 . S
O49 Co32 2.020 . S
O49 C46 1.256 . S
O50 Co30 2.062 . S
O50 C46 1.255 . S
O51 C31 1.259 . S
O51 Co32 2.021 . S
H52 C43 0.930 . S
H53 C42 0.931 . S
O54 Co30 2.117 . S
O54 C31 1.258 . S
O55 Co30 2.020 . S
O55 C57 1.256 . S
O56 Co32 2.062 . S
O56 C57 1.255 . S
C57 O55 1.256 . S
C57 O56 1.255 . S
H58 C37 0.931 . S
H59 C45 0.931 . S
Co60 N65 2.057 . S
Co60 O77 2.021 . S
Co60 O80 2.062 . S
Co60 O84 2.117 . S
Co60 O85 2.020 . S
C61 O81 1.259 . S
C61 O84 1.258 . S
Co62 N71 2.057 . S
Co62 O78 2.117 . S
Co62 O79 2.020 . S
Co62 O81 2.021 . S
Co62 O86 2.062 . S
C63 N65 1.316 . S
C63 N66 1.347 . S
C63 H68 0.931 . S
C64 N65 1.375 . S
C64 C67 1.350 . S
C64 H69 0.930 . S
N65 Co60 2.057 . S
N65 C63 1.316 . S
N65 C64 1.375 . S
N66 C63 1.347 . S
N66 C67 1.373 . S
C67 C64 1.350 . S
C67 N66 1.373 . S
C67 H88 0.931 . S
H68 C63 0.931 . S
H69 C64 0.930 . S
C70 O77 1.259 . S
C70 O78 1.258 . S
N71 Co62 2.057 . S
N71 C72 1.316 . S
N71 C73 1.375 . S
C72 N71 1.316 . S
C72 N74 1.347 . S
C72 H83 0.931 . S
C73 N71 1.375 . S
C73 C75 1.350 . S
C73 H82 0.930 . S
N74 C72 1.347 . S
N74 C75 1.373 . S
C75 C73 1.350 . S
C75 N74 1.373 . S
C75 H89 0.931 . S
C76 O79 1.256 . S
C76 O80 1.255 . S
O77 Co60 2.021 . S
O77 C70 1.259 . S
O78 Co62 2.117 . S
O78 C70 1.258 . S
O79 Co62 2.020 . S
O79 C76 1.256 . S
O80 Co60 2.062 . S
O80 C76 1.255 . S
O81 C61 1.259 . S
O81 Co62 2.021 . S
H82 C73 0.930 . S
H83 C72 0.931 . S
O84 Co60 2.117 . S
O84 C61 1.258 . S
O85 Co60 2.020 . S
O85 C87 1.256 . S
O86 Co62 2.062 . S
O86 C87 1.255 . S
C87 O85 1.256 . S
C87 O86 1.255 . S
H88 C67 0.931 . S
H89 C75 0.931 . S
Co90 N95 2.057 . S
Co90 O107 2.021 . S
Co90 O110 2.062 . S
Co90 O114 2.117 . S
Co90 O115 2.020 . S
C91 O111 1.259 . S
C91 O114 1.258 . S
Co92 N101 2.057 . S
Co92 O108 2.117 . S
Co92 O109 2.020 . S
Co92 O111 2.021 . S
Co92 O116 2.062 . S
C93 N95 1.316 . S
C93 N96 1.347 . S
C93 H98 0.931 . S
C94 N95 1.375 . S
C94 C97 1.350 . S
C94 H99 0.930 . S
N95 Co90 2.057 . S
N95 C93 1.316 . S
N95 C94 1.375 . S
N96 C93 1.347 . S
N96 C97 1.373 . S
C97 C94 1.350 . S
C97 N96 1.373 . S
C97 H118 0.931 . S
H98 C93 0.931 . S
H99 C94 0.930 . S
C100 O107 1.259 . S
C100 O108 1.258 . S
N101 Co92 2.057 . S
N101 C102 1.316 . S
N101 C103 1.375 . S
C102 N101 1.316 . S
C102 N104 1.347 . S
C102 H113 0.931 . S
C103 N101 1.375 . S
C103 C105 1.350 . S
C103 H112 0.930 . S
N104 C102 1.347 . S
N104 C105 1.373 . S
C105 C103 1.350 . S
C105 N104 1.373 . S
C105 H119 0.931 . S
C106 O109 1.256 . S
C106 O110 1.255 . S
O107 Co90 2.021 . S
O107 C100 1.259 . S
O108 Co92 2.117 . S
O108 C100 1.258 . S
O109 Co92 2.020 . S
O109 C106 1.256 . S
O110 Co90 2.062 . S
O110 C106 1.255 . S
O111 C91 1.259 . S
O111 Co92 2.021 . S
H112 C103 0.930 . S
H113 C102 0.931 . S
O114 Co90 2.117 . S
O114 C91 1.258 . S
O115 Co90 2.020 . S
O115 C117 1.256 . S
O116 Co92 2.062 . S
O116 C117 1.255 . S
C117 O115 1.256 . S
C117 O116 1.255 . S
H118 C97 0.931 . S
H119 C105 0.931 . S
Co120 N125 2.057 . S
Co120 O137 2.021 . S
Co120 O140 2.062 . S
Co120 O144 2.117 . S
Co120 O145 2.020 . S
C121 O141 1.259 . S
C121 O144 1.258 . S
Co122 N131 2.057 . S
Co122 O138 2.117 . S
Co122 O139 2.020 . S
Co122 O141 2.021 . S
Co122 O146 2.062 . S
C123 N125 1.316 . S
C123 N126 1.347 . S
C123 H128 0.931 . S
C124 N125 1.375 . S
C124 C127 1.350 . S
C124 H129 0.930 . S
N125 Co120 2.057 . S
N125 C123 1.316 . S
N125 C124 1.375 . S
N126 C123 1.347 . S
N126 C127 1.373 . S
C127 C124 1.350 . S
C127 N126 1.373 . S
C127 H148 0.931 . S
H128 C123 0.931 . S
H129 C124 0.930 . S
C130 O137 1.259 . S
C130 O138 1.258 . S
N131 Co122 2.057 . S
N131 C132 1.316 . S
N131 C133 1.375 . S
C132 N131 1.316 . S
C132 N134 1.347 . S
C132 H143 0.931 . S
C133 N131 1.375 . S
C133 C135 1.350 . S
C133 H142 0.930 . S
N134 C132 1.347 . S
N134 C135 1.373 . S
C135 C133 1.350 . S
C135 N134 1.373 . S
C135 H149 0.931 . S
C136 O139 1.256 . S
C136 O140 1.255 . S
O137 Co120 2.021 . S
O137 C130 1.259 . S
O138 Co122 2.117 . S
O138 C130 1.258 . S
O139 Co122 2.020 . S
O139 C136 1.256 . S
O140 Co120 2.062 . S
O140 C136 1.255 . S
O141 C121 1.259 . S
O141 Co122 2.021 . S
H142 C133 0.930 . S
H143 C132 0.931 . S
O144 Co120 2.117 . S
O144 C121 1.258 . S
O145 Co120 2.020 . S
O145 C147 1.256 . S
O146 Co122 2.062 . S
O146 C147 1.255 . S
C147 O145 1.256 . S
C147 O146 1.255 . S
H148 C127 0.931 . S
H149 C135 0.931 . S
Co150 N155 2.057 . S
Co150 O167 2.021 . S
Co150 O170 2.062 . S
Co150 O174 2.117 . S
Co150 O175 2.020 . S
C151 O171 1.259 . S
C151 O174 1.258 . S
Co152 N161 2.057 . S
Co152 O168 2.117 . S
Co152 O169 2.020 . S
Co152 O171 2.021 . S
Co152 O176 2.062 . S
C153 N155 1.316 . S
C153 N156 1.347 . S
C153 H158 0.931 . S
C154 N155 1.375 . S
C154 C157 1.350 . S
C154 H159 0.930 . S
N155 Co150 2.057 . S
N155 C153 1.316 . S
N155 C154 1.375 . S
N156 C153 1.347 . S
N156 C157 1.373 . S
C157 C154 1.350 . S
C157 N156 1.373 . S
C157 H178 0.931 . S
H158 C153 0.931 . S
H159 C154 0.930 . S
C160 O167 1.259 . S
C160 O168 1.258 . S
N161 Co152 2.057 . S
N161 C162 1.316 . S
N161 C163 1.375 . S
C162 N161 1.316 . S
C162 N164 1.347 . S
C162 H173 0.931 . S
C163 N161 1.375 . S
C163 C165 1.350 . S
C163 H172 0.930 . S
N164 C162 1.347 . S
N164 C165 1.373 . S
C165 C163 1.350 . S
C165 N164 1.373 . S
C165 H179 0.931 . S
C166 O169 1.256 . S
C166 O170 1.255 . S
O167 Co150 2.021 . S
O167 C160 1.259 . S
O168 Co152 2.117 . S
O168 C160 1.258 . S
O169 Co152 2.020 . S
O169 C166 1.256 . S
O170 Co150 2.062 . S
O170 C166 1.255 . S
O171 C151 1.259 . S
O171 Co152 2.021 . S
H172 C163 0.930 . S
H173 C162 0.931 . S
O174 Co150 2.117 . S
O174 C151 1.258 . S
O175 Co150 2.020 . S
O175 C177 1.256 . S
O176 Co152 2.062 . S
O176 C177 1.255 . S
C177 O175 1.256 . S
C177 O176 1.255 . S
H178 C157 0.931 . S
H179 C165 0.931 . S
Co180 N185 2.057 . S
Co180 O197 2.021 . S
Co180 O200 2.062 . S
Co180 O204 2.117 . S
Co180 O205 2.020 . S
C181 O201 1.259 . S
C181 O204 1.258 . S
Co182 N191 2.057 . S
Co182 O198 2.117 . S
Co182 O199 2.020 . S
Co182 O201 2.021 . S
Co182 O206 2.062 . S
C183 N185 1.316 . S
C183 N186 1.347 . S
C183 H188 0.931 . S
C184 N185 1.375 . S
C184 C187 1.350 . S
C184 H189 0.930 . S
N185 Co180 2.057 . S
N185 C183 1.316 . S
N185 C184 1.375 . S
N186 C183 1.347 . S
N186 C187 1.373 . S
C187 C184 1.350 . S
C187 N186 1.373 . S
C187 H208 0.931 . S
H188 C183 0.931 . S
H189 C184 0.930 . S
C190 O197 1.259 . S
C190 O198 1.258 . S
N191 Co182 2.057 . S
N191 C192 1.316 . S
N191 C193 1.375 . S
C192 N191 1.316 . S
C192 N194 1.347 . S
C192 H203 0.931 . S
C193 N191 1.375 . S
C193 C195 1.350 . S
C193 H202 0.930 . S
N194 C192 1.347 . S
N194 C195 1.373 . S
C195 C193 1.350 . S
C195 N194 1.373 . S
C195 H209 0.931 . S
C196 O199 1.256 . S
C196 O200 1.255 . S
O197 Co180 2.021 . S
O197 C190 1.259 . S
O198 Co182 2.117 . S
O198 C190 1.258 . S
O199 Co182 2.020 . S
O199 C196 1.256 . S
O200 Co180 2.062 . S
O200 C196 1.255 . S
O201 C181 1.259 . S
O201 Co182 2.021 . S
H202 C193 0.930 . S
H203 C192 0.931 . S
O204 Co180 2.117 . S
O204 C181 1.258 . S
O205 Co180 2.020 . S
O205 C207 1.256 . S
O206 Co182 2.062 . S
O206 C207 1.255 . S
C207 O205 1.256 . S
C207 O206 1.255 . S
H208 C187 0.931 . S
H209 C195 0.931 . S
Co210 N215 2.057 . S
Co210 O227 2.021 . S
Co210 O230 2.062 . S
Co210 O234 2.117 . S
Co210 O235 2.020 . S
C211 O231 1.259 . S
C211 O234 1.258 . S
Co212 N221 2.057 . S
Co212 O228 2.117 . S
Co212 O229 2.020 . S
Co212 O231 2.021 . S
Co212 O236 2.062 . S
C213 N215 1.316 . S
C213 N216 1.347 . S
C213 H218 0.931 . S
C214 N215 1.375 . S
C214 C217 1.350 . S
C214 H219 0.930 . S
N215 Co210 2.057 . S
N215 C213 1.316 . S
N215 C214 1.375 . S
N216 C213 1.347 . S
N216 C217 1.373 . S
C217 C214 1.350 . S
C217 N216 1.373 . S
C217 H238 0.931 . S
H218 C213 0.931 . S
H219 C214 0.930 . S
C220 O227 1.259 . S
C220 O228 1.258 . S
N221 Co212 2.057 . S
N221 C222 1.316 . S
N221 C223 1.375 . S
C222 N221 1.316 . S
C222 N224 1.347 . S
C222 H233 0.931 . S
C223 N221 1.375 . S
C223 C225 1.350 . S
C223 H232 0.930 . S
N224 C222 1.347 . S
N224 C225 1.373 . S
C225 C223 1.350 . S
C225 N224 1.373 . S
C225 H239 0.931 . S
C226 O229 1.256 . S
C226 O230 1.255 . S
O227 Co210 2.021 . S
O227 C220 1.259 . S
O228 Co212 2.117 . S
O228 C220 1.258 . S
O229 Co212 2.020 . S
O229 C226 1.256 . S
O230 Co210 2.062 . S
O230 C226 1.255 . S
O231 C211 1.259 . S
O231 Co212 2.021 . S
H232 C223 0.930 . S
H233 C222 0.931 . S
O234 Co210 2.117 . S
O234 C211 1.258 . S
O235 Co210 2.020 . S
O235 C237 1.256 . S
O236 Co212 2.062 . S
O236 C237 1.255 . S
C237 O235 1.256 . S
C237 O236 1.255 . S
H238 C217 0.931 . S
H239 C225 0.931 . S
C240 O252 1.241 . S
C240 O253 1.280 . S
C241 O254 1.277 . S
C241 O255 1.245 . S
C242 O266 1.247 . S
C242 O268 1.289 . S
Mg243 O244 1.926 . S
Mg243 O253 1.984 . S
Mg243 O255 1.988 . S
Mg243 O256 2.061 1_655 S
O244 Mg243 1.926 . S
O244 Mg245 1.986 . S
O244 Mg246 1.917 1_655 S
Mg245 O244 1.986 . S
Mg245 O252 2.042 . S
Mg245 O254 2.041 . S
Mg245 O260 2.038 1_545 S
Mg245 O268 2.238 1_545 S
Mg246 O244 1.917 1_455 S
Mg246 O247 1.917 1_545 S
Mg246 O257 2.106 . S
Mg246 O259 2.079 1_445 S
Mg246 O268 2.106 1_445 S
Mg246 O269 2.079 . S
O247 Mg246 1.917 1_565 S
O247 Mg248 1.926 . S
O247 Mg249 1.986 . S
Mg248 O247 1.926 . S
Mg248 O262 1.984 . S
Mg248 O265 1.988 . S
Mg248 O266 2.061 1_455 S
Mg249 O247 1.986 . S
Mg249 O257 2.238 1_565 S
Mg249 O261 2.042 . S
Mg249 O263 2.041 . S
Mg249 O270 2.038 1_565 S
C250 O256 1.247 . S
C250 O257 1.289 . S
C251 O269 1.245 . S
C251 O270 1.274 . S
O252 C240 1.241 . S
O252 Mg245 2.042 . S
O253 C240 1.280 . S
O253 Mg243 1.984 . S
O254 C241 1.277 . S
O254 Mg245 2.041 . S
O255 C241 1.245 . S
O255 Mg243 1.988 . S
O256 Mg243 2.061 1_455 S
O256 C250 1.247 . S
O257 Mg246 2.106 . S
O257 Mg249 2.238 1_545 S
O257 C250 1.289 . S
C258 O259 1.245 . S
C258 O260 1.274 . S
O259 Mg246 2.079 1_665 S
O259 C258 1.245 . S
O260 Mg245 2.038 1_565 S
O260 C258 1.274 . S
O261 Mg249 2.042 . S
O261 C264 1.241 . S
O262 Mg248 1.984 . S
O262 C264 1.280 . S
O263 Mg249 2.041 . S
O263 C267 1.277 . S
C264 O261 1.241 . S
C264 O262 1.280 . S
O265 Mg248 1.988 . S
O265 C267 1.245 . S
O266 C242 1.247 . S
O266 Mg248 2.061 1_655 S
C267 O263 1.277 . S
C267 O265 1.245 . S
O268 C242 1.289 . S
O268 Mg245 2.238 1_565 S
O268 Mg246 2.106 1_665 S
O269 Mg246 2.079 . S
O269 C251 1.245 . S
O270 Mg249 2.038 1_545 S
O270 C251 1.274 . S
C271 O283 1.241 . S
C271 O284 1.280 . S
C272 O285 1.277 . S
C272 O286 1.245 . S
C273 O297 1.247 . S
C273 O299 1.289 . S
Mg274 O275 1.926 . S
Mg274 O284 1.984 . S
Mg274 O286 1.988 1_554 S
Mg274 O287 2.061 . S
O275 Mg274 1.926 . S
O275 Mg276 1.986 1_554 S
O275 Mg277 1.917 . S
Mg276 O275 1.986 1_556 S
Mg276 O283 2.042 1_556 S
Mg276 O285 2.041 . S
Mg276 O291 2.038 1_546 S
Mg276 O299 2.238 1_545 S
Mg277 O275 1.917 . S
Mg277 O278 1.917 1_544 S
Mg277 O288 2.106 . S
Mg277 O290 2.079 1_545 S
Mg277 O299 2.106 1_544 S
Mg277 O300 2.079 1_554 S
O278 Mg277 1.917 1_566 S
O278 Mg279 1.926 . S
O278 Mg280 1.986 1_556 S
Mg279 O278 1.926 . S
Mg279 O293 1.984 . S
Mg279 O296 1.988 1_556 S
Mg279 O297 2.061 . S
Mg280 O278 1.986 1_554 S
Mg280 O288 2.238 1_565 S
Mg280 O292 2.042 1_554 S
Mg280 O294 2.041 . S
Mg280 O301 2.038 1_564 S
C281 O287 1.247 . S
C281 O288 1.289 . S
C282 O300 1.245 . S
C282 O301 1.274 . S
O283 C271 1.241 . S
O283 Mg276 2.042 1_554 S
O284 C271 1.280 . S
O284 Mg274 1.984 . S
O285 C272 1.277 . S
O285 Mg276 2.041 . S
O286 C272 1.245 . S
O286 Mg274 1.988 1_556 S
O287 Mg274 2.061 . S
O287 C281 1.247 . S
O288 Mg277 2.106 . S
O288 Mg280 2.238 1_545 S
O288 C281 1.289 . S
C289 O290 1.245 . S
C289 O291 1.274 . S
O290 Mg277 2.079 1_565 S
O290 C289 1.245 . S
O291 Mg276 2.038 1_564 S
O291 C289 1.274 . S
O292 Mg280 2.042 1_556 S
O292 C295 1.241 . S
O293 Mg279 1.984 . S
O293 C295 1.280 . S
O294 Mg280 2.041 . S
O294 C298 1.277 . S
C295 O292 1.241 . S
C295 O293 1.280 . S
O296 Mg279 1.988 1_554 S
O296 C298 1.245 . S
O297 C273 1.247 . S
O297 Mg279 2.061 . S
C298 O294 1.277 . S
C298 O296 1.245 . S
O299 C273 1.289 . S
O299 Mg276 2.238 1_565 S
O299 Mg277 2.106 1_566 S
O300 Mg277 2.079 1_556 S
O300 C282 1.245 . S
O301 Mg280 2.038 1_546 S
O301 C282 1.274 . S
C302 O314 1.241 . S
C302 O315 1.280 . S
C303 O316 1.277 . S
C303 O317 1.245 . S
C304 O328 1.247 . S
C304 O330 1.289 . S
Mg305 O306 1.926 . S
Mg305 O315 1.984 . S
Mg305 O317 1.988 1_554 S
Mg305 O318 2.061 1_655 S
O306 Mg305 1.926 . S
O306 Mg307 1.986 1_554 S
O306 Mg308 1.917 1_655 S
Mg307 O306 1.986 1_556 S
Mg307 O314 2.042 1_556 S
Mg307 O316 2.041 . S
Mg307 O322 2.038 1_556 S
Mg307 O330 2.238 . S
Mg308 O306 1.917 1_455 S
Mg308 O309 1.917 1_554 S
Mg308 O319 2.106 . S
Mg308 O321 2.079 1_455 S
Mg308 O330 2.106 1_454 S
Mg308 O331 2.079 1_554 S
O309 Mg308 1.917 1_556 S
O309 Mg310 1.926 . S
O309 Mg311 1.986 1_556 S
Mg310 O309 1.926 . S
Mg310 O324 1.984 . S
Mg310 O327 1.988 1_556 S
Mg310 O328 2.061 1_455 S
Mg311 O309 1.986 1_554 S
Mg311 O319 2.238 . S
Mg311 O323 2.042 1_554 S
Mg311 O325 2.041 . S
Mg311 O332 2.038 1_554 S
C312 O318 1.247 . S
C312 O319 1.289 . S
C313 O331 1.245 . S
C313 O332 1.274 . S
O314 C302 1.241 . S
O314 Mg307 2.042 1_554 S
O315 C302 1.280 . S
O315 Mg305 1.984 . S
O316 C303 1.277 . S
O316 Mg307 2.041 . S
O317 C303 1.245 . S
O317 Mg305 1.988 1_556 S
O318 Mg305 2.061 1_455 S
O318 C312 1.247 . S
O319 Mg308 2.106 . S
O319 Mg311 2.238 . S
O319 C312 1.289 . S
C320 O321 1.245 . S
C320 O322 1.274 . S
O321 Mg308 2.079 1_655 S
O321 C320 1.245 . S
O322 Mg307 2.038 1_554 S
O322 C320 1.274 . S
O323 Mg311 2.042 1_556 S
O323 C326 1.241 . S
O324 Mg310 1.984 . S
O324 C326 1.280 . S
O325 Mg311 2.041 . S
O325 C329 1.277 . S
C326 O323 1.241 . S
C326 O324 1.280 . S
O327 Mg310 1.988 1_554 S
O327 C329 1.245 . S
O328 C304 1.247 . S
O328 Mg310 2.061 1_655 S
C329 O325 1.277 . S
C329 O327 1.245 . S
O330 C304 1.289 . S
O330 Mg307 2.238 . S
O330 Mg308 2.106 1_656 S
O331 Mg308 2.079 1_556 S
O331 C313 1.245 . S
O332 Mg311 2.038 1_556 S
O332 C313 1.274 . S
C333 O345 1.241 . S
C333 O346 1.280 . S
C334 O347 1.277 . S
C334 O348 1.245 . S
C335 O359 1.247 . S
C335 O361 1.289 . S
Mg336 O337 1.926 . S
Mg336 O346 1.984 . S
Mg336 O348 1.988 1_554 S
Mg336 O349 2.061 . S
O337 Mg336 1.926 . S
O337 Mg338 1.986 1_554 S
O337 Mg339 1.917 . S
Mg338 O337 1.986 1_556 S
Mg338 O345 2.042 1_556 S
Mg338 O347 2.041 . S
Mg338 O353 2.038 1_556 S
Mg338 O361 2.238 . S
Mg339 O337 1.917 . S
Mg339 O340 1.917 1_554 S
Mg339 O350 2.106 . S
Mg339 O352 2.079 . S
Mg339 O361 2.106 1_554 S
Mg339 O362 2.079 1_554 S
O340 Mg339 1.917 1_556 S
O340 Mg341 1.926 . S
O340 Mg342 1.986 1_556 S
Mg341 O340 1.926 . S
Mg341 O355 1.984 . S
Mg341 O358 1.988 1_556 S
Mg341 O359 2.061 . S
Mg342 O340 1.986 1_554 S
Mg342 O350 2.238 . S
Mg342 O354 2.042 1_554 S
Mg342 O356 2.041 . S
Mg342 O363 2.038 1_554 S
C343 O349 1.247 . S
C343 O350 1.289 . S
C344 O362 1.245 . S
C344 O363 1.274 . S
O345 C333 1.241 . S
O345 Mg338 2.042 1_554 S
O346 C333 1.280 . S
O346 Mg336 1.984 . S
O347 C334 1.277 . S
O347 Mg338 2.041 . S
O348 C334 1.245 . S
O348 Mg336 1.988 1_556 S
O349 Mg336 2.061 . S
O349 C343 1.247 . S
O350 Mg339 2.106 . S
O350 Mg342 2.238 . S
O350 C343 1.289 . S
C351 O352 1.245 . S
C351 O353 1.274 . S
O352 Mg339 2.079 . S
O352 C351 1.245 . S
O353 Mg338 2.038 1_554 S
O353 C351 1.274 . S
O354 Mg342 2.042 1_556 S
O354 C357 1.241 . S
O355 Mg341 1.984 . S
O355 C357 1.280 . S
O356 Mg342 2.041 . S
O356 C360 1.277 . S
C357 O354 1.241 . S
C357 O355 1.280 . S
O358 Mg341 1.988 1_554 S
O358 C360 1.245 . S
O359 C335 1.247 . S
O359 Mg341 2.061 . S
C360 O356 1.277 . S
C360 O358 1.245 . S
O361 C335 1.289 . S
O361 Mg338 2.238 . S
O361 Mg339 2.106 1_556 S
O362 Mg339 2.079 1_556 S
O362 C344 1.245 . S
O363 Mg342 2.038 1_556 S
O363 C344 1.274 . S
C364 O376 1.241 . S
C364 O377 1.280 . S
C365 O378 1.277 . S
C365 O379 1.245 . S
C366 O390 1.247 . S
C366 O392 1.289 . S
Mg367 O368 1.926 . S
Mg367 O377 1.984 . S
Mg367 O379 1.988 . S
Mg367 O380 2.061 1_655 S
O368 Mg367 1.926 . S
O368 Mg369 1.986 . S
O368 Mg370 1.917 1_655 S
Mg369 O368 1.986 . S
Mg369 O376 2.042 . S
Mg369 O378 2.041 . S
Mg369 O384 2.038 . S
Mg369 O392 2.238 . S
Mg370 O368 1.917 1_455 S
Mg370 O371 1.917 . S
Mg370 O381 2.106 . S
Mg370 O383 2.079 1_455 S
Mg370 O392 2.106 1_455 S
Mg370 O393 2.079 . S
O371 Mg370 1.917 . S
O371 Mg372 1.926 . S
O371 Mg373 1.986 . S
Mg372 O371 1.926 . S
Mg372 O386 1.984 . S
Mg372 O389 1.988 . S
Mg372 O390 2.061 1_455 S
Mg373 O371 1.986 . S
Mg373 O381 2.238 . S
Mg373 O385 2.042 . S
Mg373 O387 2.041 . S
Mg373 O394 2.038 . S
C374 O380 1.247 . S
C374 O381 1.289 . S
C375 O393 1.245 . S
C375 O394 1.274 . S
O376 C364 1.241 . S
O376 Mg369 2.042 . S
O377 C364 1.280 . S
O377 Mg367 1.984 . S
O378 C365 1.277 . S
O378 Mg369 2.041 . S
O379 C365 1.245 . S
O379 Mg367 1.988 . S
O380 Mg367 2.061 1_455 S
O380 C374 1.247 . S
O381 Mg370 2.106 . S
O381 Mg373 2.238 . S
O381 C374 1.289 . S
C382 O383 1.245 . S
C382 O384 1.274 . S
O383 Mg370 2.079 1_655 S
O383 C382 1.245 . S
O384 Mg369 2.038 . S
O384 C382 1.274 . S
O385 Mg373 2.042 . S
O385 C388 1.241 . S
O386 Mg372 1.984 . S
O386 C388 1.280 . S
O387 Mg373 2.041 . S
O387 C391 1.277 . S
C388 O385 1.241 . S
C388 O386 1.280 . S
O389 Mg372 1.988 . S
O389 C391 1.245 . S
O390 C366 1.247 . S
O390 Mg372 2.061 1_655 S
C391 O387 1.277 . S
C391 O389 1.245 . S
O392 C366 1.289 . S
O392 Mg369 2.238 . S
O392 Mg370 2.106 1_655 S
O393 Mg370 2.079 . S
O393 C375 1.245 . S
O394 Mg373 2.038 . S
O394 C375 1.274 . S
C395 O407 1.241 . S
C395 O408 1.280 . S
C396 O409 1.277 . S
C396 O410 1.245 . S
C397 O421 1.247 . S
C397 O423 1.289 . S
Mg398 O399 1.926 . S
Mg398 O408 1.984 . S
Mg398 O410 1.988 . S
Mg398 O411 2.061 . S
O399 Mg398 1.926 . S
O399 Mg400 1.986 . S
O399 Mg401 1.917 . S
Mg400 O399 1.986 . S
Mg400 O407 2.042 . S
Mg400 O409 2.041 . S
Mg400 O415 2.038 1_545 S
Mg400 O423 2.238 1_545 S
Mg401 O399 1.917 . S
Mg401 O402 1.917 1_545 S
Mg401 O412 2.106 . S
Mg401 O414 2.079 1_545 S
Mg401 O423 2.106 1_545 S
Mg401 O424 2.079 . S
O402 Mg401 1.917 1_565 S
O402 Mg403 1.926 . S
O402 Mg404 1.986 . S
Mg403 O402 1.926 . S
Mg403 O417 1.984 . S
Mg403 O420 1.988 . S
Mg403 O421 2.061 . S
Mg404 O402 1.986 . S
Mg404 O412 2.238 1_565 S
Mg404 O416 2.042 . S
Mg404 O418 2.041 . S
Mg404 O425 2.038 1_565 S
C405 O411 1.247 . S
C405 O412 1.289 . S
C406 O424 1.245 . S
C406 O425 1.274 . S
O407 C395 1.241 . S
O407 Mg400 2.042 . S
O408 C395 1.280 . S
O408 Mg398 1.984 . S
O409 C396 1.277 . S
O409 Mg400 2.041 . S
O410 C396 1.245 . S
O410 Mg398 1.988 . S
O411 Mg398 2.061 . S
O411 C405 1.247 . S
O412 Mg401 2.106 . S
O412 Mg404 2.238 1_545 S
O412 C405 1.289 . S
C413 O414 1.245 . S
C413 O415 1.274 . S
O414 Mg401 2.079 1_565 S
O414 C413 1.245 . S
O415 Mg400 2.038 1_565 S
O415 C413 1.274 . S
O416 Mg404 2.042 . S
O416 C419 1.241 . S
O417 Mg403 1.984 . S
O417 C419 1.280 . S
O418 Mg404 2.041 . S
O418 C422 1.277 . S
C419 O416 1.241 . S
C419 O417 1.280 . S
O420 Mg403 1.988 . S
O420 C422 1.245 . S
O421 C397 1.247 . S
O421 Mg403 2.061 . S
C422 O418 1.277 . S
C422 O420 1.245 . S
O423 C397 1.289 . S
O423 Mg400 2.238 1_565 S
O423 Mg401 2.106 1_565 S
O424 Mg401 2.079 . S
O424 C406 1.245 . S
O425 Mg404 2.038 1_545 S
O425 C406 1.274 . S
C426 C427 1.391 . S
C426 C428 1.394 . S
C426 H442 0.931 . S
C427 C426 1.391 . S
C427 C431 1.376 . S
C428 C426 1.394 . S
C428 C429 1.369 . S
C428 C432 1.531 . S
C429 C428 1.369 . S
C429 C430 1.410 . S
C429 C437 1.503 . S
C430 C429 1.410 . S
C430 C431 1.392 . S
C430 C433 1.511 . S
C431 C427 1.376 . S
C431 C430 1.392 . S
C431 H443 0.929 . S
C432 C428 1.531 . S
C432 H444 0.960 . S
C432 H445 0.962 . S
C432 H446 0.960 . S
C433 C430 1.511 . S
C433 H447 0.961 . S
C433 H448 0.961 . S
C433 H449 0.961 . S
C434 C435 1.370 . S
C434 C436 1.363 . S
C434 H450 0.931 . S
C435 C434 1.370 . S
C435 C439 1.408 . S
C436 C434 1.363 . S
C436 C437 1.370 . S
C436 C440 1.524 . S
C437 C429 1.503 . S
C437 C436 1.370 . S
C437 C438 1.403 . S
C438 C437 1.403 . S
C438 C439 1.404 . S
C438 C441 1.539 . S
C439 C435 1.408 . S
C439 C438 1.404 . S
C439 H451 0.930 . S
C440 C436 1.524 . S
C440 H452 0.956 . S
C440 H453 0.961 . S
C440 H454 0.961 . S
C441 C438 1.539 . S
C441 H455 0.953 1_545 S
C441 H456 0.961 . S
C441 H457 0.960 . S
H442 C426 0.931 . S
H443 C431 0.929 . S
H444 C432 0.960 . S
H445 C432 0.962 . S
H446 C432 0.960 . S
H447 C433 0.961 . S
H448 C433 0.961 . S
H449 C433 0.961 . S
H450 C434 0.931 . S
H451 C439 0.930 . S
H452 C440 0.956 . S
H453 C440 0.961 . S
H454 C440 0.961 . S
H455 C441 0.953 1_565 S
H456 C441 0.961 . S
H457 C441 0.960 . S
C458 C459 1.391 . S
C458 C460 1.394 . S
C458 H474 0.931 . S
C459 C458 1.391 . S
C459 C463 1.376 . S
C460 C458 1.394 . S
C460 C461 1.369 . S
C460 C464 1.531 . S
C461 C460 1.369 . S
C461 C462 1.410 . S
C461 C469 1.503 . S
C462 C461 1.410 . S
C462 C463 1.392 . S
C462 C465 1.511 . S
C463 C459 1.376 . S
C463 C462 1.392 . S
C463 H475 0.929 . S
C464 C460 1.531 . S
C464 H476 0.960 . S
C464 H477 0.962 . S
C464 H478 0.960 . S
C465 C462 1.511 . S
C465 H479 0.961 . S
C465 H480 0.961 . S
C465 H481 0.961 . S
C466 C467 1.370 . S
C466 C468 1.363 . S
C466 H482 0.931 . S
C467 C466 1.370 . S
C467 C471 1.408 . S
C468 C466 1.363 . S
C468 C469 1.370 . S
C468 C472 1.524 . S
C469 C461 1.503 . S
C469 C468 1.370 . S
C469 C470 1.403 . S
C470 C469 1.403 . S
C470 C471 1.404 . S
C470 C473 1.539 . S
C471 C467 1.408 . S
C471 C470 1.404 . S
C471 H483 0.930 . S
C472 C468 1.524 . S
C472 H484 0.956 . S
C472 H485 0.961 . S
C472 H486 0.961 . S
C473 C470 1.539 . S
C473 H487 0.958 . S
C473 H488 0.961 . S
C473 H489 0.960 . S
H474 C458 0.931 . S
H475 C463 0.929 . S
H476 C464 0.960 . S
H477 C464 0.962 . S
H478 C464 0.960 . S
H479 C465 0.961 . S
H480 C465 0.961 . S
H481 C465 0.961 . S
H482 C466 0.931 . S
H483 C471 0.930 . S
H484 C472 0.956 . S
H485 C472 0.961 . S
H486 C472 0.961 . S
H487 C473 0.958 . S
H488 C473 0.961 . S
H489 C473 0.960 . S
C490 C491 1.391 . S
C490 C492 1.394 . S
C490 H506 0.931 . S
C491 C490 1.391 . S
C491 C495 1.376 . S
C492 C490 1.394 . S
C492 C493 1.369 . S
C492 C496 1.531 . S
C493 C492 1.369 . S
C493 C494 1.410 . S
C493 C501 1.503 . S
C494 C493 1.410 . S
C494 C495 1.392 . S
C494 C497 1.511 . S
C495 C491 1.376 . S
C495 C494 1.392 . S
C495 H507 0.929 . S
C496 C492 1.531 . S
C496 H508 0.960 . S
C496 H509 0.962 . S
C496 H510 0.960 . S
C497 C494 1.511 . S
C497 H511 0.961 . S
C497 H512 0.961 . S
C497 H513 0.961 . S
C498 C499 1.370 . S
C498 C500 1.363 . S
C498 H514 0.931 . S
C499 C498 1.370 . S
C499 C503 1.408 . S
C500 C498 1.363 . S
C500 C501 1.370 . S
C500 C504 1.524 . S
C501 C493 1.503 . S
C501 C500 1.370 . S
C501 C502 1.403 . S
C502 C501 1.403 . S
C502 C503 1.404 . S
C502 C505 1.539 . S
C503 C499 1.408 . S
C503 C502 1.404 . S
C503 H515 0.930 . S
C504 C500 1.524 . S
C504 H516 0.956 . S
C504 H517 0.961 . S
C504 H518 0.961 . S
C505 C502 1.539 . S
C505 H519 0.958 . S
C505 H520 0.961 . S
C505 H521 0.960 . S
H506 C490 0.931 . S
H507 C495 0.929 . S
H508 C496 0.960 . S
H509 C496 0.962 . S
H510 C496 0.960 . S
H511 C497 0.961 . S
H512 C497 0.961 . S
H513 C497 0.961 . S
H514 C498 0.931 . S
H515 C503 0.930 . S
H516 C504 0.956 . S
H517 C504 0.961 . S
H518 C504 0.961 . S
H519 C505 0.958 . S
H520 C505 0.961 . S
H521 C505 0.960 . S
C522 C523 1.391 . S
C522 C524 1.394 . S
C522 H538 0.931 . S
C523 C522 1.391 . S
C523 C527 1.376 . S
C524 C522 1.394 . S
C524 C525 1.369 . S
C524 C528 1.531 . S
C525 C524 1.369 . S
C525 C526 1.410 . S
C525 C533 1.503 . S
C526 C525 1.410 . S
C526 C527 1.392 . S
C526 C529 1.511 . S
C527 C523 1.376 . S
C527 C526 1.392 . S
C527 H539 0.929 . S
C528 C524 1.531 . S
C528 H540 0.960 . S
C528 H541 0.962 . S
C528 H542 0.960 . S
C529 C526 1.511 . S
C529 H543 0.961 . S
C529 H544 0.961 . S
C529 H545 0.961 . S
C530 C531 1.370 . S
C530 C532 1.363 . S
C530 H546 0.931 . S
C531 C530 1.370 . S
C531 C535 1.408 . S
C532 C530 1.363 . S
C532 C533 1.370 . S
C532 C536 1.524 . S
C533 C525 1.503 . S
C533 C532 1.370 . S
C533 C534 1.403 . S
C534 C533 1.403 . S
C534 C535 1.404 . S
C534 C537 1.539 . S
C535 C531 1.408 . S
C535 C534 1.404 . S
C535 H547 0.930 . S
C536 C532 1.524 . S
C536 H548 0.956 . S
C536 H549 0.961 . S
C536 H550 0.961 . S
C537 C534 1.539 . S
C537 H551 0.958 . S
C537 H552 0.961 . S
C537 H553 0.960 . S
H538 C522 0.931 . S
H539 C527 0.929 . S
H540 C528 0.960 . S
H541 C528 0.962 . S
H542 C528 0.960 . S
H543 C529 0.961 . S
H544 C529 0.961 . S
H545 C529 0.961 . S
H546 C530 0.931 . S
H547 C535 0.930 . S
H548 C536 0.956 . S
H549 C536 0.961 . S
H550 C536 0.961 . S
H551 C537 0.958 . S
H552 C537 0.961 . S
H553 C537 0.960 . S
C554 C555 1.391 . S
C554 C556 1.394 . S
C554 H570 0.931 . S
C555 C554 1.391 . S
C555 C559 1.376 . S
C556 C554 1.394 . S
C556 C557 1.369 . S
C556 C560 1.531 . S
C557 C556 1.369 . S
C557 C558 1.410 . S
C557 C565 1.503 . S
C558 C557 1.410 . S
C558 C559 1.392 . S
C558 C561 1.511 . S
C559 C555 1.376 . S
C559 C558 1.392 . S
C559 H571 0.929 . S
C560 C556 1.531 . S
C560 H572 0.960 . S
C560 H573 0.962 . S
C560 H574 0.960 . S
C561 C558 1.511 . S
C561 H575 0.961 . S
C561 H576 0.961 . S
C561 H577 0.961 . S
C562 C563 1.370 . S
C562 C564 1.363 . S
C562 H578 0.931 . S
C563 C562 1.370 . S
C563 C567 1.408 . S
C564 C562 1.363 . S
C564 C565 1.370 . S
C564 C568 1.524 . S
C565 C557 1.503 . S
C565 C564 1.370 . S
C565 C566 1.403 . S
C566 C565 1.403 . S
C566 C567 1.404 . S
C566 C569 1.539 . S
C567 C563 1.408 . S
C567 C566 1.404 . S
C567 H579 0.930 . S
C568 C564 1.524 . S
C568 H580 0.956 . S
C568 H581 0.961 . S
C568 H582 0.961 . S
C569 C566 1.539 . S
C569 H583 0.958 . S
C569 H584 0.961 . S
C569 H585 0.960 . S
H570 C554 0.931 . S
H571 C559 0.929 . S
H572 C560 0.960 . S
H573 C560 0.962 . S
H574 C560 0.960 . S
H575 C561 0.961 . S
H576 C561 0.961 . S
H577 C561 0.961 . S
H578 C562 0.931 . S
H579 C567 0.930 . S
H580 C568 0.956 . S
H581 C568 0.961 . S
H582 C568 0.961 . S
H583 C569 0.958 . S
H584 C569 0.961 . S
H585 C569 0.960 . S
C586 C587 1.391 . S
C586 C588 1.394 . S
C586 H602 0.931 . S
C587 C586 1.391 . S
C587 C591 1.376 . S
C588 C586 1.394 . S
C588 C589 1.369 . S
C588 C592 1.531 . S
C589 C588 1.369 . S
C589 C590 1.410 . S
C589 C597 1.503 . S
C590 C589 1.410 . S
C590 C591 1.392 . S
C590 C593 1.511 . S
C591 C587 1.376 . S
C591 C590 1.392 . S
C591 H603 0.929 . S
C592 C588 1.531 . S
C592 H604 0.960 . S
C592 H605 0.962 . S
C592 H606 0.960 . S
C593 C590 1.511 . S
C593 H607 0.961 . S
C593 H608 0.961 . S
C593 H609 0.961 . S
C594 C595 1.370 . S
C594 C596 1.363 . S
C594 H610 0.931 . S
C595 C594 1.370 . S
C595 C599 1.408 . S
C596 C594 1.363 . S
C596 C597 1.370 . S
C596 C600 1.524 . S
C597 C589 1.503 . S
C597 C596 1.370 . S
C597 C598 1.403 . S
C598 C597 1.403 . S
C598 C599 1.404 . S
C598 C601 1.539 . S
C599 C595 1.408 . S
C599 C598 1.404 . S
C599 H611 0.930 . S
C600 C596 1.524 . S
C600 H612 0.956 . S
C600 H613 0.961 . S
C600 H614 0.961 . S
C601 C598 1.539 . S
C601 H615 0.958 . S
C601 H616 0.961 . S
C601 H617 0.960 . S
H602 C586 0.931 . S
H603 C591 0.929 . S
H604 C592 0.960 . S
H605 C592 0.962 . S
H606 C592 0.960 . S
H607 C593 0.961 . S
H608 C593 0.961 . S
H609 C593 0.961 . S
H610 C594 0.931 . S
H611 C599 0.930 . S
H612 C600 0.956 . S
H613 C600 0.961 . S
H614 C600 0.961 . S
H615 C601 0.958 . S
H616 C601 0.961 . S
H617 C601 0.960 . S
C618 C619 1.391 . S
C618 C620 1.394 . S
C618 H634 0.931 . S
C619 C618 1.391 . S
C619 C623 1.376 . S
C620 C618 1.394 . S
C620 C621 1.369 . S
C620 C624 1.531 . S
C621 C620 1.369 . S
C621 C622 1.410 . S
C621 C629 1.503 . S
C622 C621 1.410 . S
C622 C623 1.392 . S
C622 C625 1.511 . S
C623 C619 1.376 . S
C623 C622 1.392 . S
C623 H635 0.929 . S
C624 C620 1.531 . S
C624 H636 0.960 . S
C624 H637 0.962 . S
C624 H638 0.960 . S
C625 C622 1.511 . S
C625 H639 0.961 . S
C625 H640 0.961 . S
C625 H641 0.961 . S
C626 C627 1.370 . S
C626 C628 1.363 . S
C626 H642 0.931 . S
C627 C626 1.370 . S
C627 C631 1.408 . S
C628 C626 1.363 . S
C628 C629 1.370 . S
C628 C632 1.524 . S
C629 C621 1.503 . S
C629 C628 1.370 . S
C629 C630 1.403 . S
C630 C629 1.403 . S
C630 C631 1.404 . S
C630 C633 1.539 . S
C631 C627 1.408 . S
C631 C630 1.404 . S
C631 H643 0.930 . S
C632 C628 1.524 . S
C632 H644 0.956 . S
C632 H645 0.961 . S
C632 H646 0.961 . S
C633 C630 1.539 . S
C633 H647 0.958 . S
C633 H648 0.961 . S
C633 H649 0.960 . S
H634 C618 0.931 . S
H635 C623 0.929 . S
H636 C624 0.960 . S
H637 C624 0.962 . S
H638 C624 0.960 . S
H639 C625 0.961 . S
H640 C625 0.961 . S
H641 C625 0.961 . S
H642 C626 0.931 . S
H643 C631 0.930 . S
H644 C632 0.956 . S
H645 C632 0.961 . S
H646 C632 0.961 . S
H647 C633 0.958 . S
H648 C633 0.961 . S
H649 C633 0.960 . S
C650 C651 1.391 . S
C650 C652 1.394 . S
C650 H666 0.931 . S
C651 C650 1.391 . S
C651 C655 1.376 . S
C652 C650 1.394 . S
C652 C653 1.369 . S
C652 C656 1.531 . S
C653 C652 1.369 . S
C653 C654 1.410 . S
C653 C661 1.503 . S
C654 C653 1.410 . S
C654 C655 1.392 . S
C654 C657 1.511 . S
C655 C651 1.376 . S
C655 C654 1.392 . S
C655 H667 0.929 . S
C656 C652 1.531 . S
C656 H668 0.960 . S
C656 H669 0.962 . S
C656 H670 0.960 . S
C657 C654 1.511 . S
C657 H671 0.961 . S
C657 H672 0.961 . S
C657 H673 0.961 . S
C658 C659 1.370 . S
C658 C660 1.363 . S
C658 H674 0.931 . S
C659 C658 1.370 . S
C659 C663 1.408 . S
C660 C658 1.363 . S
C660 C661 1.370 . S
C660 C664 1.524 . S
C661 C653 1.503 . S
C661 C660 1.370 . S
C661 C662 1.403 . S
C662 C661 1.403 . S
C662 C663 1.404 . S
C662 C665 1.539 . S
C663 C659 1.408 . S
C663 C662 1.404 . S
C663 H675 0.916 1_565 S
C664 C660 1.524 . S
C664 H676 0.956 . S
C664 H677 0.961 . S
C664 H678 0.961 . S
C665 C662 1.539 . S
C665 H679 0.958 . S
C665 H680 0.961 1_565 S
C665 H681 0.960 . S
H666 C650 0.931 . S
H667 C655 0.929 . S
H668 C656 0.960 . S
H669 C656 0.962 . S
H670 C656 0.960 . S
H671 C657 0.961 . S
H672 C657 0.961 . S
H673 C657 0.961 . S
H674 C658 0.931 . S
H675 C663 0.916 1_545 S
H676 C664 0.956 . S
H677 C664 0.961 . S
H678 C664 0.961 . S
H679 C665 0.958 . S
H680 C665 0.961 1_545 S
H681 C665 0.960 . S
C682 C683 1.391 . S
C682 C684 1.394 . S
C682 H698 0.931 . S
C683 C682 1.391 . S
C683 C687 1.376 . S
C684 C682 1.394 . S
C684 C685 1.369 . S
C684 C688 1.531 . S
C685 C684 1.369 . S
C685 C686 1.410 . S
C685 C693 1.503 . S
C686 C685 1.410 . S
C686 C687 1.392 . S
C686 C689 1.511 . S
C687 C683 1.376 . S
C687 C686 1.392 . S
C687 H699 0.929 . S
C688 C684 1.531 . S
C688 H700 0.960 . S
C688 H701 0.962 . S
C688 H702 0.960 . S
C689 C686 1.511 . S
C689 H703 0.961 . S
C689 H704 0.961 . S
C689 H705 0.961 . S
C690 C691 1.370 . S
C690 C692 1.363 . S
C690 H706 0.931 . S
C691 C690 1.370 . S
C691 C695 1.408 . S
C692 C690 1.363 . S
C692 C693 1.370 . S
C692 C696 1.524 . S
C693 C685 1.503 . S
C693 C692 1.370 . S
C693 C694 1.403 . S
C694 C693 1.403 . S
C694 C695 1.404 . S
C694 C697 1.539 . S
C695 C691 1.408 . S
C695 C694 1.404 . S
C695 H707 0.930 . S
C696 C692 1.524 . S
C696 H708 0.956 . S
C696 H709 0.961 . S
C696 H710 0.961 . S
C697 C694 1.539 . S
C697 H711 0.958 . S
C697 H712 0.961 . S
C697 H713 0.960 . S
H698 C682 0.931 . S
H699 C687 0.929 . S
H700 C688 0.960 . S
H701 C688 0.962 . S
H702 C688 0.960 . S
H703 C689 0.961 . S
H704 C689 0.961 . S
H705 C689 0.961 . S
H706 C690 0.931 . S
H707 C695 0.930 . S
H708 C696 0.956 . S
H709 C696 0.961 . S
H710 C696 0.961 . S
H711 C697 0.958 . S
H712 C697 0.961 . S
H713 C697 0.960 . S
C714 C715 1.391 . S
C714 C716 1.394 . S
C714 H730 0.931 . S
C715 C714 1.391 . S
C715 C719 1.376 . S
C716 C714 1.394 . S
C716 C717 1.369 . S
C716 C720 1.531 . S
C717 C716 1.369 . S
C717 C718 1.410 . S
C717 C725 1.503 . S
C718 C717 1.410 . S
C718 C719 1.392 . S
C718 C721 1.511 . S
C719 C715 1.376 . S
C719 C718 1.392 . S
C719 H731 0.929 . S
C720 C716 1.531 . S
C720 H732 0.960 . S
C720 H733 0.962 . S
C720 H734 0.960 . S
C721 C718 1.511 . S
C721 H735 0.961 . S
C721 H736 0.961 . S
C721 H737 0.961 . S
C722 C723 1.370 . S
C722 C724 1.363 . S
C722 H738 0.931 . S
C723 C722 1.370 . S
C723 C727 1.408 . S
C724 C722 1.363 . S
C724 C725 1.370 . S
C724 C728 1.524 . S
C725 C717 1.503 . S
C725 C724 1.370 . S
C725 C726 1.403 . S
C726 C725 1.403 . S
C726 C727 1.404 . S
C726 C729 1.539 . S
C727 C723 1.408 . S
C727 C726 1.404 . S
C727 H739 0.930 . S
C728 C724 1.524 . S
C728 H740 0.956 . S
C728 H741 0.961 . S
C728 H742 0.961 . S
C729 C726 1.539 . S
C729 H743 0.958 . S
C729 H744 0.961 . S
C729 H745 0.960 . S
H730 C714 0.931 . S
H731 C719 0.929 . S
H732 C720 0.960 . S
H733 C720 0.962 . S
H734 C720 0.960 . S
H735 C721 0.961 . S
H736 C721 0.961 . S
H737 C721 0.961 . S
H738 C722 0.931 . S
H739 C727 0.930 . S
H740 C728 0.956 . S
H741 C728 0.961 . S
H742 C728 0.961 . S
H743 C729 0.958 . S
H744 C729 0.961 . S
H745 C729 0.960 . S
C746 C747 1.391 . S
C746 C748 1.394 . S
C746 H762 0.931 . S
C747 C746 1.391 . S
C747 C751 1.376 . S
C748 C746 1.394 . S
C748 C749 1.369 . S
C748 C752 1.531 . S
C749 C748 1.369 . S
C749 C750 1.410 . S
C749 C757 1.503 . S
C750 C749 1.410 . S
C750 C751 1.392 . S
C750 C753 1.511 . S
C751 C747 1.376 . S
C751 C750 1.392 . S
C751 H763 0.929 . S
C752 C748 1.531 . S
C752 H764 0.960 . S
C752 H765 0.962 . S
C752 H766 0.960 . S
C753 C750 1.511 . S
C753 H767 0.961 . S
C753 H768 0.961 . S
C753 H769 0.961 . S
C754 C755 1.370 . S
C754 C756 1.363 . S
C754 H770 0.931 . S
C755 C754 1.370 . S
C755 C759 1.408 . S
C756 C754 1.363 . S
C756 C757 1.370 . S
C756 C760 1.524 . S
C757 C749 1.503 . S
C757 C756 1.370 . S
C757 C758 1.403 . S
C758 C757 1.403 . S
C758 C759 1.404 . S
C758 C761 1.539 . S
C759 C755 1.408 . S
C759 C758 1.404 . S
C759 H771 0.930 . S
C760 C756 1.524 . S
C760 H772 0.956 . S
C760 H773 0.961 . S
C760 H774 0.961 . S
C761 C758 1.539 . S
C761 H775 0.958 . S
C761 H776 0.961 . S
C761 H777 0.960 . S
H762 C746 0.931 . S
H763 C751 0.929 . S
H764 C752 0.960 . S
H765 C752 0.962 . S
H766 C752 0.960 . S
H767 C753 0.961 . S
H768 C753 0.961 . S
H769 C753 0.961 . S
H770 C754 0.931 . S
H771 C759 0.930 . S
H772 C760 0.956 . S
H773 C760 0.961 . S
H774 C760 0.961 . S
H775 C761 0.958 . S
H776 C761 0.961 . S
H777 C761 0.960 . S
C778 C779 1.391 . S
C778 C780 1.394 . S
C778 H794 0.931 . S
C779 C778 1.391 . S
C779 C783 1.376 . S
C780 C778 1.394 . S
C780 C781 1.369 . S
C780 C784 1.531 . S
C781 C780 1.369 . S
C781 C782 1.410 . S
C781 C789 1.503 . S
C782 C781 1.410 . S
C782 C783 1.392 . S
C782 C785 1.511 . S
C783 C779 1.376 . S
C783 C782 1.392 . S
C783 H795 0.929 . S
C784 C780 1.531 . S
C784 H796 0.960 . S
C784 H797 0.962 . S
C784 H798 0.960 . S
C785 C782 1.511 . S
C785 H799 0.961 . S
C785 H800 0.961 . S
C785 H801 0.961 . S
C786 C787 1.370 . S
C786 C788 1.363 . S
C786 H802 0.931 . S
C787 C786 1.370 . S
C787 C791 1.408 . S
C788 C786 1.363 . S
C788 C789 1.370 . S
C788 C792 1.524 . S
C789 C781 1.503 . S
C789 C788 1.370 . S
C789 C790 1.403 . S
C790 C789 1.403 . S
C790 C791 1.404 . S
C790 C793 1.539 . S
C791 C787 1.408 . S
C791 C790 1.404 . S
C791 H803 0.930 . S
C792 C788 1.524 . S
C792 H804 0.956 . S
C792 H805 0.961 . S
C792 H806 0.961 . S
C793 C790 1.539 . S
C793 H807 0.958 . S
C793 H808 0.961 . S
C793 H809 0.960 . S
H794 C778 0.931 . S
H795 C783 0.929 . S
H796 C784 0.960 . S
H797 C784 0.962 . S
H798 C784 0.960 . S
H799 C785 0.961 . S
H800 C785 0.961 . S
H801 C785 0.961 . S
H802 C786 0.931 . S
H803 C791 0.930 . S
H804 C792 0.956 . S
H805 C792 0.961 . S
H806 C792 0.961 . S
H807 C793 0.958 . S
H808 C793 0.961 . S
H809 C793 0.960 . S
C810 C811 1.391 . S
C810 C812 1.394 . S
C810 H826 0.931 . S
C811 C810 1.391 . S
C811 C815 1.376 . S
C812 C810 1.394 . S
C812 C813 1.369 . S
C812 C816 1.531 . S
C813 C812 1.369 . S
C813 C814 1.410 . S
C813 C821 1.503 . S
C814 C813 1.410 . S
C814 C815 1.392 . S
C814 C817 1.511 . S
C815 C811 1.376 . S
C815 C814 1.392 . S
C815 H827 0.929 . S
C816 C812 1.531 . S
C816 H828 0.960 . S
C816 H829 0.962 . S
C816 H830 0.960 . S
C817 C814 1.511 . S
C817 H831 0.961 . S
C817 H832 0.961 . S
C817 H833 0.961 . S
C818 C819 1.370 . S
C818 C820 1.363 . S
C818 H834 0.931 . S
C819 C818 1.370 . S
C819 C823 1.408 . S
C820 C818 1.363 . S
C820 C821 1.370 . S
C820 C824 1.524 . S
C821 C813 1.503 . S
C821 C820 1.370 . S
C821 C822 1.403 . S
C822 C821 1.403 . S
C822 C823 1.404 . S
C822 C825 1.539 . S
C823 C819 1.408 . S
C823 C822 1.404 . S
C823 H835 0.930 . S
C824 C820 1.524 . S
C824 H836 0.956 . S
C824 H837 0.961 . S
C824 H838 0.961 . S
C825 C822 1.539 . S
C825 H839 0.958 . S
C825 H840 0.961 . S
C825 H841 0.960 . S
H826 C810 0.931 . S
H827 C815 0.929 . S
H828 C816 0.960 . S
H829 C816 0.962 . S
H830 C816 0.960 . S
H831 C817 0.961 . S
H832 C817 0.961 . S
H833 C817 0.961 . S
H834 C818 0.931 . S
H835 C823 0.930 . S
H836 C824 0.956 . S
H837 C824 0.961 . S
H838 C824 0.961 . S
H839 C825 0.958 . S
H840 C825 0.961 . S
H841 C825 0.960 . S
C842 C843 1.391 . S
C842 C844 1.394 . S
C842 H858 0.931 . S
C843 C842 1.391 . S
C843 C847 1.376 . S
C844 C842 1.394 . S
C844 C845 1.369 . S
C844 C848 1.531 . S
C845 C844 1.369 . S
C845 C846 1.410 . S
C845 C853 1.503 . S
C846 C845 1.410 . S
C846 C847 1.392 . S
C846 C849 1.511 . S
C847 C843 1.376 . S
C847 C846 1.392 . S
C847 H859 0.929 . S
C848 C844 1.531 . S
C848 H860 0.960 . S
C848 H861 0.962 . S
C848 H862 0.960 . S
C849 C846 1.511 . S
C849 H863 0.961 . S
C849 H864 0.961 . S
C849 H865 0.961 . S
C850 C851 1.370 . S
C850 C852 1.363 . S
C850 H866 0.931 . S
C851 C850 1.370 . S
C851 C855 1.408 . S
C852 C850 1.363 . S
C852 C853 1.370 . S
C852 C856 1.524 . S
C853 C845 1.503 . S
C853 C852 1.370 . S
C853 C854 1.403 . S
C854 C853 1.403 . S
C854 C855 1.404 . S
C854 C857 1.539 . S
C855 C851 1.408 . S
C855 C854 1.404 . S
C855 H867 0.930 . S
C856 C852 1.524 . S
C856 H868 0.956 . S
C856 H869 0.961 . S
C856 H870 0.961 . S
C857 C854 1.539 . S
C857 H871 0.958 . S
C857 H872 0.961 . S
C857 H873 0.960 . S
H858 C842 0.931 . S
H859 C847 0.929 . S
H860 C848 0.960 . S
H861 C848 0.962 . S
H862 C848 0.960 . S
H863 C849 0.961 . S
H864 C849 0.961 . S
H865 C849 0.961 . S
H866 C850 0.931 . S
H867 C855 0.930 . S
H868 C856 0.956 . S
H869 C856 0.961 . S
H870 C856 0.961 . S
H871 C857 0.958 . S
H872 C857 0.961 . S
H873 C857 0.960 . S
C874 C875 1.391 . S
C874 C876 1.394 . S
C874 H890 0.931 . S
C875 C874 1.391 . S
C875 C879 1.376 . S
C876 C874 1.394 . S
C876 C877 1.369 . S
C876 C880 1.531 . S
C877 C876 1.369 . S
C877 C878 1.410 . S
C877 C885 1.503 . S
C878 C877 1.410 . S
C878 C879 1.392 . S
C878 C881 1.511 . S
C879 C875 1.376 . S
C879 C878 1.392 . S
C879 H891 0.929 . S
C880 C876 1.531 . S
C880 H892 0.960 . S
C880 H893 0.962 . S
C880 H894 0.960 . S
C881 C878 1.511 . S
C881 H895 0.961 . S
C881 H896 0.961 . S
C881 H897 0.961 . S
C882 C883 1.370 . S
C882 C884 1.363 . S
C882 H898 0.931 . S
C883 C882 1.370 . S
C883 C887 1.408 . S
C884 C882 1.363 . S
C884 C885 1.370 . S
C884 C888 1.524 . S
C885 C877 1.503 . S
C885 C884 1.370 . S
C885 C886 1.403 . S
C886 C885 1.403 . S
C886 C887 1.404 . S
C886 C889 1.539 . S
C887 C883 1.408 . S
C887 C886 1.404 . S
C887 H899 0.930 . S
C888 C884 1.524 . S
C888 H900 0.956 . S
C888 H901 0.961 . S
C888 H902 0.961 . S
C889 C886 1.539 . S
C889 H903 0.958 . S
C889 H904 0.961 . S
C889 H905 0.960 . S
H890 C874 0.931 . S
H891 C879 0.929 . S
H892 C880 0.960 . S
H893 C880 0.962 . S
H894 C880 0.960 . S
H895 C881 0.961 . S
H896 C881 0.961 . S
H897 C881 0.961 . S
H898 C882 0.931 . S
H899 C887 0.930 . S
H900 C888 0.956 . S
H901 C888 0.961 . S
H902 C888 0.961 . S
H903 C889 0.958 . S
H904 C889 0.961 . S
H905 C889 0.960 . S
C906 C907 1.391 . S
C906 C908 1.394 . S
C906 H922 0.931 . S
C907 C906 1.391 . S
C907 C911 1.376 . S
C908 C906 1.394 . S
C908 C909 1.369 . S
C908 C912 1.531 . S
C909 C908 1.369 . S
C909 C910 1.410 . S
C909 C917 1.503 . S
C910 C909 1.410 . S
C910 C911 1.392 . S
C910 C913 1.511 . S
C911 C907 1.376 . S
C911 C910 1.392 . S
C911 H923 0.929 . S
C912 C908 1.531 . S
C912 H924 0.960 . S
C912 H925 0.962 . S
C912 H926 0.960 . S
C913 C910 1.511 . S
C913 H927 0.961 . S
C913 H928 0.961 . S
C913 H929 0.961 . S
C914 C915 1.370 . S
C914 C916 1.363 . S
C914 H930 0.931 . S
C915 C914 1.370 . S
C915 C919 1.408 . S
C916 C914 1.363 . S
C916 C917 1.370 . S
C916 C920 1.524 . S
C917 C909 1.503 . S
C917 C916 1.370 . S
C917 C918 1.403 . S
C918 C917 1.403 . S
C918 C919 1.404 . S
C918 C921 1.539 . S
C919 C915 1.408 . S
C919 C918 1.404 . S
C919 H931 0.930 . S
C920 C916 1.524 . S
C920 H932 0.956 . S
C920 H933 0.961 . S
C920 H934 0.961 . S
C921 C918 1.539 . S
C921 H935 0.958 . S
C921 H936 0.961 . S
C921 H937 0.960 . S
H922 C906 0.931 . S
H923 C911 0.929 . S
H924 C912 0.960 . S
H925 C912 0.962 . S
H926 C912 0.960 . S
H927 C913 0.961 . S
H928 C913 0.961 . S
H929 C913 0.961 . S
H930 C914 0.931 . S
H931 C919 0.930 . S
H932 C920 0.956 . S
H933 C920 0.961 . S
H934 C920 0.961 . S
H935 C921 0.958 . S
H936 C921 0.961 . S
H937 C921 0.960 . S
C938 C939 1.391 . S
C938 C940 1.394 . S
C938 H954 0.931 . S
C939 C938 1.391 . S
C939 C943 1.376 . S
C940 C938 1.394 . S
C940 C941 1.369 . S
C940 C944 1.531 . S
C941 C940 1.369 . S
C941 C942 1.410 . S
C941 C949 1.503 . S
C942 C941 1.410 . S
C942 C943 1.392 . S
C942 C945 1.511 . S
C943 C939 1.376 . S
C943 C942 1.392 . S
C943 H955 0.929 . S
C944 C940 1.531 . S
C944 H956 0.960 . S
C944 H957 0.962 . S
C944 H958 0.960 . S
C945 C942 1.511 . S
C945 H959 0.961 . S
C945 H960 0.961 . S
C945 H961 0.961 . S
C946 C947 1.370 . S
C946 C948 1.363 . S
C946 H962 0.931 . S
C947 C946 1.370 . S
C947 C951 1.408 . S
C948 C946 1.363 . S
C948 C949 1.370 . S
C948 C952 1.524 . S
C949 C941 1.503 . S
C949 C948 1.370 . S
C949 C950 1.403 . S
C950 C949 1.403 . S
C950 C951 1.404 . S
C950 C953 1.539 . S
C951 C947 1.408 . S
C951 C950 1.404 . S
C951 H963 0.930 . S
C952 C948 1.524 . S
C952 H964 0.956 . S
C952 H965 0.961 . S
C952 H966 0.961 . S
C953 C950 1.539 . S
C953 H967 0.958 . S
C953 H968 0.961 . S
C953 H969 0.960 . S
H954 C938 0.931 . S
H955 C943 0.929 . S
H956 C944 0.960 . S
H957 C944 0.962 . S
H958 C944 0.960 . S
H959 C945 0.961 . S
H960 C945 0.961 . S
H961 C945 0.961 . S
H962 C946 0.931 . S
H963 C951 0.930 . S
H964 C952 0.956 . S
H965 C952 0.961 . S
H966 C952 0.961 . S
H967 C953 0.958 . S
H968 C953 0.961 . S
H969 C953 0.960 . S
C970 C971 1.391 . S
C970 C972 1.394 . S
C970 H986 0.931 . S
C971 C970 1.391 . S
C971 C975 1.376 . S
C972 C970 1.394 . S
C972 C973 1.369 . S
C972 C976 1.531 . S
C973 C972 1.369 . S
C973 C974 1.410 . S
C973 C981 1.503 . S
C974 C973 1.410 . S
C974 C975 1.392 . S
C974 C977 1.511 . S
C975 C971 1.376 . S
C975 C974 1.392 . S
C975 H987 0.929 . S
C976 C972 1.531 . S
C976 H988 0.960 . S
C976 H989 0.962 . S
C976 H990 0.960 . S
C977 C974 1.511 . S
C977 H991 0.961 . S
C977 H992 0.961 . S
C977 H993 0.961 . S
C978 C979 1.370 . S
C978 C980 1.363 . S
C978 H994 0.931 . S
C979 C978 1.370 . S
C979 C983 1.408 . S
C980 C978 1.363 . S
C980 C981 1.370 . S
C980 C984 1.524 . S
C981 C973 1.503 . S
C981 C980 1.370 . S
C981 C982 1.403 . S
C982 C981 1.403 . S
C982 C983 1.404 . S
C982 C985 1.539 . S
C983 C979 1.408 . S
C983 C982 1.404 . S
C983 H995 0.930 . S
C984 C980 1.524 . S
C984 H996 0.956 . S
C984 H997 0.961 . S
C984 H998 0.961 . S
C985 C982 1.539 . S
C985 H999 0.958 . S
C985 H1000 0.961 . S
C985 H1001 0.960 . S
H986 C970 0.931 . S
H987 C975 0.929 . S
H988 C976 0.960 . S
H989 C976 0.962 . S
H990 C976 0.960 . S
H991 C977 0.961 . S
H992 C977 0.961 . S
H993 C977 0.961 . S
H994 C978 0.931 . S
H995 C983 0.930 . S
H996 C984 0.956 . S
H997 C984 0.961 . S
H998 C984 0.961 . S
H999 C985 0.958 . S
H1000 C985 0.961 . S
H1001 C985 0.960 . S
C1002 C1003 1.391 . S
C1002 C1004 1.394 . S
C1002 H1018 0.931 . S
C1003 C1002 1.391 . S
C1003 C1007 1.376 . S
C1004 C1002 1.394 . S
C1004 C1005 1.369 . S
C1004 C1008 1.531 . S
C1005 C1004 1.369 . S
C1005 C1006 1.410 . S
C1005 C1013 1.503 . S
C1006 C1005 1.410 . S
C1006 C1007 1.392 . S
C1006 C1009 1.511 . S
C1007 C1003 1.376 . S
C1007 C1006 1.392 . S
C1007 H1019 0.929 . S
C1008 C1004 1.531 . S
C1008 H1020 0.960 . S
C1008 H1021 0.962 . S
C1008 H1022 0.960 . S
C1009 C1006 1.511 . S
C1009 H1023 0.961 . S
C1009 H1024 0.961 . S
C1009 H1025 0.961 . S
C1010 C1011 1.370 . S
C1010 C1012 1.363 . S
C1010 H1026 0.931 . S
C1011 C1010 1.370 . S
C1011 C1015 1.408 . S
C1012 C1010 1.363 . S
C1012 C1013 1.370 . S
C1012 C1016 1.524 . S
C1013 C1005 1.503 . S
C1013 C1012 1.370 . S
C1013 C1014 1.403 . S
C1014 C1013 1.403 . S
C1014 C1015 1.404 . S
C1014 C1017 1.539 . S
C1015 C1011 1.408 . S
C1015 C1014 1.404 . S
C1015 H1027 0.930 . S
C1016 C1012 1.524 . S
C1016 H1028 0.956 . S
C1016 H1029 0.961 . S
C1016 H1030 0.961 . S
C1017 C1014 1.539 . S
C1017 H1031 0.958 . S
C1017 H1032 0.961 . S
C1017 H1033 0.960 . S
H1018 C1002 0.931 . S
H1019 C1007 0.929 . S
H1020 C1008 0.960 . S
H1021 C1008 0.962 . S
H1022 C1008 0.960 . S
H1023 C1009 0.961 . S
H1024 C1009 0.961 . S
H1025 C1009 0.961 . S
H1026 C1010 0.931 . S
H1027 C1015 0.930 . S
H1028 C1016 0.956 . S
H1029 C1016 0.961 . S
H1030 C1016 0.961 . S
H1031 C1017 0.958 . S
H1032 C1017 0.961 . S
H1033 C1017 0.960 . S
C1034 C1035 1.391 . S
C1034 C1036 1.394 . S
C1034 H1050 0.931 . S
C1035 C1034 1.391 . S
C1035 C1039 1.376 . S
C1036 C1034 1.394 . S
C1036 C1037 1.369 . S
C1036 C1040 1.531 . S
C1037 C1036 1.369 . S
C1037 C1038 1.410 . S
C1037 C1045 1.503 . S
C1038 C1037 1.410 . S
C1038 C1039 1.392 . S
C1038 C1041 1.511 . S
C1039 C1035 1.376 . S
C1039 C1038 1.392 . S
C1039 H1051 0.929 . S
C1040 C1036 1.531 . S
C1040 H1052 0.960 . S
C1040 H1053 0.962 . S
C1040 H1054 0.960 . S
C1041 C1038 1.511 . S
C1041 H1055 0.961 . S
C1041 H1056 0.961 . S
C1041 H1057 0.961 . S
C1042 C1043 1.370 . S
C1042 C1044 1.363 . S
C1042 H1058 0.931 . S
C1043 C1042 1.370 . S
C1043 C1047 1.408 . S
C1044 C1042 1.363 . S
C1044 C1045 1.370 . S
C1044 C1048 1.524 . S
C1045 C1037 1.503 . S
C1045 C1044 1.370 . S
C1045 C1046 1.403 . S
C1046 C1045 1.403 . S
C1046 C1047 1.404 . S
C1046 C1049 1.539 . S
C1047 C1043 1.408 . S
C1047 C1046 1.404 . S
C1047 H1059 0.930 . S
C1048 C1044 1.524 . S
C1048 H1060 0.956 . S
C1048 H1061 0.961 . S
C1048 H1062 0.961 . S
C1049 C1046 1.539 . S
C1049 H1063 0.958 . S
C1049 H1064 0.961 . S
C1049 H1065 0.960 . S
H1050 C1034 0.931 . S
H1051 C1039 0.929 . S
H1052 C1040 0.960 . S
H1053 C1040 0.962 . S
H1054 C1040 0.960 . S
H1055 C1041 0.961 . S
H1056 C1041 0.961 . S
H1057 C1041 0.961 . S
H1058 C1042 0.931 . S
H1059 C1047 0.930 . S
H1060 C1048 0.956 . S
H1061 C1048 0.961 . S
H1062 C1048 0.961 . S
H1063 C1049 0.958 . S
H1064 C1049 0.961 . S
H1065 C1049 0.960 . S
C1066 C1067 1.391 . S
C1066 C1068 1.394 . S
C1066 H1082 0.931 . S
C1067 C1066 1.391 . S
C1067 C1071 1.376 . S
C1068 C1066 1.394 . S
C1068 C1069 1.369 . S
C1068 C1072 1.531 . S
C1069 C1068 1.369 . S
C1069 C1070 1.410 . S
C1069 C1077 1.503 . S
C1070 C1069 1.410 . S
C1070 C1071 1.392 . S
C1070 C1073 1.511 . S
C1071 C1067 1.376 . S
C1071 C1070 1.392 . S
C1071 H1083 0.929 . S
C1072 C1068 1.531 . S
C1072 H1084 0.960 . S
C1072 H1085 0.962 . S
C1072 H1086 0.960 . S
C1073 C1070 1.511 . S
C1073 H1087 0.961 . S
C1073 H1088 0.961 . S
C1073 H1089 0.961 . S
C1074 C1075 1.370 . S
C1074 C1076 1.363 . S
C1074 H1090 0.931 . S
C1075 C1074 1.370 . S
C1075 C1079 1.408 . S
C1076 C1074 1.363 . S
C1076 C1077 1.370 . S
C1076 C1080 1.524 . S
C1077 C1069 1.503 . S
C1077 C1076 1.370 . S
C1077 C1078 1.403 . S
C1078 C1077 1.403 . S
C1078 C1079 1.404 . S
C1078 C1081 1.539 . S
C1079 C1075 1.408 . S
C1079 C1078 1.404 . S
C1079 H1091 0.930 . S
C1080 C1076 1.524 . S
C1080 H1092 0.956 . S
C1080 H1093 0.961 . S
C1080 H1094 0.961 . S
C1081 C1078 1.539 . S
C1081 H1095 0.958 . S
C1081 H1096 0.961 . S
C1081 H1097 0.960 . S
H1082 C1066 0.931 . S
H1083 C1071 0.929 . S
H1084 C1072 0.960 . S
H1085 C1072 0.962 . S
H1086 C1072 0.960 . S
H1087 C1073 0.961 . S
H1088 C1073 0.961 . S
H1089 C1073 0.961 . S
H1090 C1074 0.931 . S
H1091 C1079 0.930 . S
H1092 C1080 0.956 . S
H1093 C1080 0.961 . S
H1094 C1080 0.961 . S
H1095 C1081 0.958 . S
H1096 C1081 0.961 . S
H1097 C1081 0.960 . S
C1098 C1099 1.391 . S
C1098 C1100 1.394 . S
C1098 H1114 0.931 . S
C1099 C1098 1.391 . S
C1099 C1103 1.376 . S
C1100 C1098 1.394 . S
C1100 C1101 1.369 . S
C1100 C1104 1.531 . S
C1101 C1100 1.369 . S
C1101 C1102 1.410 . S
C1101 C1109 1.503 . S
C1102 C1101 1.410 . S
C1102 C1103 1.392 . S
C1102 C1105 1.511 . S
C1103 C1099 1.376 . S
C1103 C1102 1.392 . S
C1103 H1115 0.929 . S
C1104 C1100 1.531 . S
C1104 H1116 0.960 . S
C1104 H1117 0.962 . S
C1104 H1118 0.960 . S
C1105 C1102 1.511 . S
C1105 H1119 0.961 . S
C1105 H1120 0.961 . S
C1105 H1121 0.961 . S
C1106 C1107 1.370 . S
C1106 C1108 1.363 . S
C1106 H1122 0.931 . S
C1107 C1106 1.370 . S
C1107 C1111 1.408 . S
C1108 C1106 1.363 . S
C1108 C1109 1.370 . S
C1108 C1112 1.524 . S
C1109 C1101 1.503 . S
C1109 C1108 1.370 . S
C1109 C1110 1.403 . S
C1110 C1109 1.403 . S
C1110 C1111 1.404 . S
C1110 C1113 1.539 . S
C1111 C1107 1.408 . S
C1111 C1110 1.404 . S
C1111 H1123 0.930 . S
C1112 C1108 1.524 . S
C1112 H1124 0.956 . S
C1112 H1125 0.961 . S
C1112 H1126 0.961 . S
C1113 C1110 1.539 . S
C1113 H1127 0.958 . S
C1113 H1128 0.961 . S
C1113 H1129 0.960 . S
H1114 C1098 0.931 . S
H1115 C1103 0.929 . S
H1116 C1104 0.960 . S
H1117 C1104 0.962 . S
H1118 C1104 0.960 . S
H1119 C1105 0.961 . S
H1120 C1105 0.961 . S
H1121 C1105 0.961 . S
H1122 C1106 0.931 . S
H1123 C1111 0.930 . S
H1124 C1112 0.956 . S
H1125 C1112 0.961 . S
H1126 C1112 0.961 . S
H1127 C1113 0.958 . S
H1128 C1113 0.961 . S
H1129 C1113 0.960 . S
C1130 C1131 1.391 . S
C1130 C1132 1.394 . S
C1130 H1146 0.931 . S
C1131 C1130 1.391 . S
C1131 C1135 1.376 . S
C1132 C1130 1.394 . S
C1132 C1133 1.369 . S
C1132 C1136 1.531 . S
C1133 C1132 1.369 . S
C1133 C1134 1.410 . S
C1133 C1141 1.503 . S
C1134 C1133 1.410 . S
C1134 C1135 1.392 . S
C1134 C1137 1.511 . S
C1135 C1131 1.376 . S
C1135 C1134 1.392 . S
C1135 H1147 0.929 . S
C1136 C1132 1.531 . S
C1136 H1148 0.960 . S
C1136 H1149 0.962 . S
C1136 H1150 0.960 . S
C1137 C1134 1.511 . S
C1137 H1151 0.961 . S
C1137 H1152 0.961 . S
C1137 H1153 0.961 . S
C1138 C1139 1.370 . S
C1138 C1140 1.363 . S
C1138 H1154 0.931 . S
C1139 C1138 1.370 . S
C1139 C1143 1.408 . S
C1140 C1138 1.363 . S
C1140 C1141 1.370 . S
C1140 C1144 1.524 . S
C1141 C1133 1.503 . S
C1141 C1140 1.370 . S
C1141 C1142 1.403 . S
C1142 C1141 1.403 . S
C1142 C1143 1.404 . S
C1142 C1145 1.539 . S
C1143 C1139 1.408 . S
C1143 C1142 1.404 . S
C1143 H1155 0.930 . S
C1144 C1140 1.524 . S
C1144 H1156 0.956 . S
C1144 H1157 0.961 . S
C1144 H1158 0.961 . S
C1145 C1142 1.539 . S
C1145 H1159 0.958 . S
C1145 H1160 0.961 . S
C1145 H1161 0.960 . S
H1146 C1130 0.931 . S
H1147 C1135 0.929 . S
H1148 C1136 0.960 . S
H1149 C1136 0.962 . S
H1150 C1136 0.960 . S
H1151 C1137 0.961 . S
H1152 C1137 0.961 . S
H1153 C1137 0.961 . S
H1154 C1138 0.931 . S
H1155 C1143 0.930 . S
H1156 C1144 0.956 . S
H1157 C1144 0.961 . S
H1158 C1144 0.961 . S
H1159 C1145 0.958 . S
H1160 C1145 0.961 . S
H1161 C1145 0.960 . S
C1162 C1163 1.391 . S
C1162 C1164 1.394 . S
C1162 H1178 0.931 . S
C1163 C1162 1.391 . S
C1163 C1167 1.376 . S
C1164 C1162 1.394 . S
C1164 C1165 1.369 . S
C1164 C1168 1.531 . S
C1165 C1164 1.369 . S
C1165 C1166 1.410 . S
C1165 C1173 1.503 . S
C1166 C1165 1.410 . S
C1166 C1167 1.392 . S
C1166 C1169 1.511 . S
C1167 C1163 1.376 . S
C1167 C1166 1.392 . S
C1167 H1179 0.929 . S
C1168 C1164 1.531 . S
C1168 H1180 0.960 . S
C1168 H1181 0.962 . S
C1168 H1182 0.960 . S
C1169 C1166 1.511 . S
C1169 H1183 0.961 . S
C1169 H1184 0.961 . S
C1169 H1185 0.961 . S
C1170 C1171 1.370 . S
C1170 C1172 1.363 . S
C1170 H1186 0.931 . S
C1171 C1170 1.370 . S
C1171 C1175 1.408 . S
C1172 C1170 1.363 . S
C1172 C1173 1.370 . S
C1172 C1176 1.524 . S
C1173 C1165 1.503 . S
C1173 C1172 1.370 . S
C1173 C1174 1.403 . S
C1174 C1173 1.403 . S
C1174 C1175 1.404 . S
C1174 C1177 1.539 . S
C1175 C1171 1.408 . S
C1175 C1174 1.404 . S
C1175 H1187 0.930 . S
C1176 C1172 1.524 . S
C1176 H1188 0.956 . S
C1176 H1189 0.961 . S
C1176 H1190 0.961 . S
C1177 C1174 1.539 . S
C1177 H1191 0.958 . S
C1177 H1192 0.961 . S
C1177 H1193 0.960 . S
H1178 C1162 0.931 . S
H1179 C1167 0.929 . S
H1180 C1168 0.960 . S
H1181 C1168 0.962 . S
H1182 C1168 0.960 . S
H1183 C1169 0.961 . S
H1184 C1169 0.961 . S
H1185 C1169 0.961 . S
H1186 C1170 0.931 . S
H1187 C1175 0.930 . S
H1188 C1176 0.956 . S
H1189 C1176 0.961 . S
H1190 C1176 0.961 . S
H1191 C1177 0.958 . S
H1192 C1177 0.961 . S
H1193 C1177 0.960 . S
C1194 C1195 1.391 . S
C1194 C1196 1.394 . S
C1194 H1210 0.931 . S
C1195 C1194 1.391 . S
C1195 C1199 1.376 . S
C1196 C1194 1.394 . S
C1196 C1197 1.369 . S
C1196 C1200 1.531 . S
C1197 C1196 1.369 . S
C1197 C1198 1.410 . S
C1197 C1205 1.503 . S
C1198 C1197 1.410 . S
C1198 C1199 1.392 . S
C1198 C1201 1.511 . S
C1199 C1195 1.376 . S
C1199 C1198 1.392 . S
C1199 H1211 0.929 . S
C1200 C1196 1.531 . S
C1200 H1212 0.960 . S
C1200 H1213 0.962 . S
C1200 H1214 0.960 . S
C1201 C1198 1.511 . S
C1201 H1215 0.961 . S
C1201 H1216 0.961 . S
C1201 H1217 0.961 . S
C1202 C1203 1.370 . S
C1202 C1204 1.363 . S
C1202 H1218 0.931 . S
C1203 C1202 1.370 . S
C1203 C1207 1.408 . S
C1204 C1202 1.363 . S
C1204 C1205 1.370 . S
C1204 C1208 1.524 . S
C1205 C1197 1.503 . S
C1205 C1204 1.370 . S
C1205 C1206 1.403 . S
C1206 C1205 1.403 . S
C1206 C1207 1.404 . S
C1206 C1209 1.539 . S
C1207 C1203 1.408 . S
C1207 C1206 1.404 . S
C1207 H1219 0.930 . S
C1208 C1204 1.524 . S
C1208 H1220 0.956 . S
C1208 H1221 0.961 . S
C1208 H1222 0.961 . S
C1209 C1206 1.539 . S
C1209 H1223 0.958 . S
C1209 H1224 0.961 . S
C1209 H1225 0.960 . S
H1210 C1194 0.931 . S
H1211 C1199 0.929 . S
H1212 C1200 0.960 . S
H1213 C1200 0.962 . S
H1214 C1200 0.960 . S
H1215 C1201 0.961 . S
H1216 C1201 0.961 . S
H1217 C1201 0.961 . S
H1218 C1202 0.931 . S
H1219 C1207 0.930 . S
H1220 C1208 0.956 . S
H1221 C1208 0.961 . S
H1222 C1208 0.961 . S
H1223 C1209 0.958 . S
H1224 C1209 0.961 . S
H1225 C1209 0.960 . S
C1226 C1227 1.391 . S
C1226 C1228 1.394 . S
C1226 H1242 0.931 . S
C1227 C1226 1.391 . S
C1227 C1231 1.376 . S
C1228 C1226 1.394 . S
C1228 C1229 1.369 . S
C1228 C1232 1.531 . S
C1229 C1228 1.369 . S
C1229 C1230 1.410 . S
C1229 C1237 1.503 . S
C1230 C1229 1.410 . S
C1230 C1231 1.392 . S
C1230 C1233 1.511 . S
C1231 C1227 1.376 . S
C1231 C1230 1.392 . S
C1231 H1243 0.929 . S
C1232 C1228 1.531 . S
C1232 H1244 0.960 . S
C1232 H1245 0.962 . S
C1232 H1246 0.960 . S
C1233 C1230 1.511 . S
C1233 H1247 0.961 . S
C1233 H1248 0.961 . S
C1233 H1249 0.961 . S
C1234 C1235 1.370 . S
C1234 C1236 1.363 . S
C1234 H1250 0.931 . S
C1235 C1234 1.370 . S
C1235 C1239 1.408 . S
C1236 C1234 1.363 . S
C1236 C1237 1.370 . S
C1236 C1240 1.524 . S
C1237 C1229 1.503 . S
C1237 C1236 1.370 . S
C1237 C1238 1.403 . S
C1238 C1237 1.403 . S
C1238 C1239 1.404 . S
C1238 C1241 1.539 . S
C1239 C1235 1.408 . S
C1239 C1238 1.404 . S
C1239 H1251 0.930 . S
C1240 C1236 1.524 . S
C1240 H1252 0.956 . S
C1240 H1253 0.961 . S
C1240 H1254 0.961 . S
C1241 C1238 1.539 . S
C1241 H1255 0.958 . S
C1241 H1256 0.961 . S
C1241 H1257 0.960 . S
H1242 C1226 0.931 . S
H1243 C1231 0.929 . S
H1244 C1232 0.960 . S
H1245 C1232 0.962 . S
H1246 C1232 0.960 . S
H1247 C1233 0.961 . S
H1248 C1233 0.961 . S
H1249 C1233 0.961 . S
H1250 C1234 0.931 . S
H1251 C1239 0.930 . S
H1252 C1240 0.956 . S
H1253 C1240 0.961 . S
H1254 C1240 0.961 . S
H1255 C1241 0.958 . S
H1256 C1241 0.961 . S
H1257 C1241 0.960 . S
C1258 C1259 1.391 . S
C1258 C1260 1.394 . S
C1258 H1274 0.931 . S
C1259 C1258 1.391 . S
C1259 C1263 1.376 . S
C1260 C1258 1.394 . S
C1260 C1261 1.369 . S
C1260 C1264 1.531 . S
C1261 C1260 1.369 . S
C1261 C1262 1.410 . S
C1261 C1269 1.503 . S
C1262 C1261 1.410 . S
C1262 C1263 1.392 . S
C1262 C1265 1.511 . S
C1263 C1259 1.376 . S
C1263 C1262 1.392 . S
C1263 H1275 0.929 . S
C1264 C1260 1.531 . S
C1264 H1276 0.960 . S
C1264 H1277 0.962 . S
C1264 H1278 0.960 . S
C1265 C1262 1.511 . S
C1265 H1279 0.961 . S
C1265 H1280 0.961 . S
C1265 H1281 0.961 . S
C1266 C1267 1.370 . S
C1266 C1268 1.363 . S
C1266 H1282 0.931 . S
C1267 C1266 1.370 . S
C1267 C1271 1.408 . S
C1268 C1266 1.363 . S
C1268 C1269 1.370 . S
C1268 C1272 1.524 . S
C1269 C1261 1.503 . S
C1269 C1268 1.370 . S
C1269 C1270 1.403 . S
C1270 C1269 1.403 . S
C1270 C1271 1.404 . S
C1270 C1273 1.539 . S
C1271 C1267 1.408 . S
C1271 C1270 1.404 . S
C1271 H1283 0.930 . S
C1272 C1268 1.524 . S
C1272 H1284 0.956 . S
C1272 H1285 0.961 . S
C1272 H1286 0.961 . S
C1273 C1270 1.539 . S
C1273 H1287 0.958 . S
C1273 H1288 0.961 . S
C1273 H1289 0.960 . S
H1274 C1258 0.931 . S
H1275 C1263 0.929 . S
H1276 C1264 0.960 . S
H1277 C1264 0.962 . S
H1278 C1264 0.960 . S
H1279 C1265 0.961 . S
H1280 C1265 0.961 . S
H1281 C1265 0.961 . S
H1282 C1266 0.931 . S
H1283 C1271 0.930 . S
H1284 C1272 0.956 . S
H1285 C1272 0.961 . S
H1286 C1272 0.961 . S
H1287 C1273 0.958 . S
H1288 C1273 0.961 . S
H1289 C1273 0.960 . S
C1290 C1291 1.391 . S
C1290 C1292 1.394 . S
C1290 H1306 0.931 . S
C1291 C1290 1.391 . S
C1291 C1295 1.376 . S
C1292 C1290 1.394 . S
C1292 C1293 1.369 . S
C1292 C1296 1.531 . S
C1293 C1292 1.369 . S
C1293 C1294 1.410 . S
C1293 C1301 1.503 . S
C1294 C1293 1.410 . S
C1294 C1295 1.392 . S
C1294 C1297 1.511 . S
C1295 C1291 1.376 . S
C1295 C1294 1.392 . S
C1295 H1307 0.929 . S
C1296 C1292 1.531 . S
C1296 H1308 0.960 . S
C1296 H1309 0.962 . S
C1296 H1310 0.960 . S
C1297 C1294 1.511 . S
C1297 H1311 0.961 . S
C1297 H1312 0.961 . S
C1297 H1313 0.961 . S
C1298 C1299 1.370 . S
C1298 C1300 1.363 . S
C1298 H1314 0.931 . S
C1299 C1298 1.370 . S
C1299 C1303 1.408 . S
C1300 C1298 1.363 . S
C1300 C1301 1.370 . S
C1300 C1304 1.524 . S
C1301 C1293 1.503 . S
C1301 C1300 1.370 . S
C1301 C1302 1.403 . S
C1302 C1301 1.403 . S
C1302 C1303 1.404 . S
C1302 C1305 1.539 . S
C1303 C1299 1.408 . S
C1303 C1302 1.404 . S
C1303 H1315 0.930 . S
C1304 C1300 1.524 . S
C1304 H1316 0.956 . S
C1304 H1317 0.961 . S
C1304 H1318 0.961 . S
C1305 C1302 1.539 . S
C1305 H1319 0.958 . S
C1305 H1320 0.961 . S
C1305 H1321 0.960 . S
H1306 C1290 0.931 . S
H1307 C1295 0.929 . S
H1308 C1296 0.960 . S
H1309 C1296 0.962 . S
H1310 C1296 0.960 . S
H1311 C1297 0.961 . S
H1312 C1297 0.961 . S
H1313 C1297 0.961 . S
H1314 C1298 0.931 . S
H1315 C1303 0.930 . S
H1316 C1304 0.956 . S
H1317 C1304 0.961 . S
H1318 C1304 0.961 . S
H1319 C1305 0.958 . S
H1320 C1305 0.961 . S
H1321 C1305 0.960 . S
C1322 C1323 1.391 . S
C1322 C1324 1.394 . S
C1322 H1338 0.931 . S
C1323 C1322 1.391 . S
C1323 C1327 1.376 . S
C1324 C1322 1.394 . S
C1324 C1325 1.369 . S
C1324 C1328 1.531 . S
C1325 C1324 1.369 . S
C1325 C1326 1.410 . S
C1325 C1333 1.503 . S
C1326 C1325 1.410 . S
C1326 C1327 1.392 . S
C1326 C1329 1.511 . S
C1327 C1323 1.376 . S
C1327 C1326 1.392 . S
C1327 H1339 0.929 . S
C1328 C1324 1.531 . S
C1328 H1340 0.960 . S
C1328 H1341 0.962 . S
C1328 H1342 0.960 . S
C1329 C1326 1.511 . S
C1329 H1343 0.961 . S
C1329 H1344 0.961 . S
C1329 H1345 0.961 . S
C1330 C1331 1.370 . S
C1330 C1332 1.363 . S
C1330 H1346 0.931 . S
C1331 C1330 1.370 . S
C1331 C1335 1.408 . S
C1332 C1330 1.363 . S
C1332 C1333 1.370 . S
C1332 C1336 1.524 . S
C1333 C1325 1.503 . S
C1333 C1332 1.370 . S
C1333 C1334 1.403 . S
C1334 C1333 1.403 . S
C1334 C1335 1.404 . S
C1334 C1337 1.539 . S
C1335 C1331 1.408 . S
C1335 C1334 1.404 . S
C1335 H1347 0.930 . S
C1336 C1332 1.524 . S
C1336 H1348 0.956 . S
C1336 H1349 0.961 . S
C1336 H1350 0.961 . S
C1337 C1334 1.539 . S
C1337 H1351 0.958 . S
C1337 H1352 0.961 . S
C1337 H1353 0.960 . S
H1338 C1322 0.931 . S
H1339 C1327 0.929 . S
H1340 C1328 0.960 . S
H1341 C1328 0.962 . S
H1342 C1328 0.960 . S
H1343 C1329 0.961 . S
H1344 C1329 0.961 . S
H1345 C1329 0.961 . S
H1346 C1330 0.931 . S
H1347 C1335 0.930 . S
H1348 C1336 0.956 . S
H1349 C1336 0.961 . S
H1350 C1336 0.961 . S
H1351 C1337 0.958 . S
H1352 C1337 0.961 . S
H1353 C1337 0.960 . S
C1354 C1355 1.391 . S
C1354 C1356 1.394 . S
C1354 H1370 0.931 . S
C1355 C1354 1.391 . S
C1355 C1359 1.376 . S
C1356 C1354 1.394 . S
C1356 C1357 1.369 . S
C1356 C1360 1.531 . S
C1357 C1356 1.369 . S
C1357 C1358 1.410 . S
C1357 C1365 1.503 . S
C1358 C1357 1.410 . S
C1358 C1359 1.392 . S
C1358 C1361 1.511 . S
C1359 C1355 1.376 . S
C1359 C1358 1.392 . S
C1359 H1371 0.929 . S
C1360 C1356 1.531 . S
C1360 H1372 0.960 . S
C1360 H1373 0.962 . S
C1360 H1374 0.960 . S
C1361 C1358 1.511 . S
C1361 H1375 0.961 . S
C1361 H1376 0.961 . S
C1361 H1377 0.961 . S
C1362 C1363 1.370 . S
C1362 C1364 1.363 . S
C1362 H1378 0.931 . S
C1363 C1362 1.370 . S
C1363 C1367 1.408 . S
C1364 C1362 1.363 . S
C1364 C1365 1.370 . S
C1364 C1368 1.524 . S
C1365 C1357 1.503 . S
C1365 C1364 1.370 . S
C1365 C1366 1.403 . S
C1366 C1365 1.403 . S
C1366 C1367 1.404 . S
C1366 C1369 1.539 . S
C1367 C1363 1.408 . S
C1367 C1366 1.404 . S
C1367 H1379 0.930 . S
C1368 C1364 1.524 . S
C1368 H1380 0.956 . S
C1368 H1381 0.961 . S
C1368 H1382 0.961 . S
C1369 C1366 1.539 . S
C1369 H1383 0.958 . S
C1369 H1384 0.961 . S
C1369 H1385 0.960 . S
H1370 C1354 0.931 . S
H1371 C1359 0.929 . S
H1372 C1360 0.960 . S
H1373 C1360 0.962 . S
H1374 C1360 0.960 . S
H1375 C1361 0.961 . S
H1376 C1361 0.961 . S
H1377 C1361 0.961 . S
H1378 C1362 0.931 . S
H1379 C1367 0.930 . S
H1380 C1368 0.956 . S
H1381 C1368 0.961 . S
H1382 C1368 0.961 . S
H1383 C1369 0.958 . S
H1384 C1369 0.961 . S
H1385 C1369 0.960 . S
C1386 C1387 1.391 . S
C1386 C1388 1.394 . S
C1386 H1402 0.931 . S
C1387 C1386 1.391 . S
C1387 C1391 1.376 . S
C1388 C1386 1.394 . S
C1388 C1389 1.369 . S
C1388 C1392 1.531 . S
C1389 C1388 1.369 . S
C1389 C1390 1.410 . S
C1389 C1397 1.503 . S
C1390 C1389 1.410 . S
C1390 C1391 1.392 . S
C1390 C1393 1.511 . S
C1391 C1387 1.376 . S
C1391 C1390 1.392 . S
C1391 H1403 0.929 . S
C1392 C1388 1.531 . S
C1392 H1404 0.960 . S
C1392 H1405 0.962 . S
C1392 H1406 0.960 . S
C1393 C1390 1.511 . S
C1393 H1407 0.961 . S
C1393 H1408 0.961 . S
C1393 H1409 0.961 . S
C1394 C1395 1.370 . S
C1394 C1396 1.363 . S
C1394 H1410 0.931 . S
C1395 C1394 1.370 . S
C1395 C1399 1.408 . S
C1396 C1394 1.363 . S
C1396 C1397 1.370 . S
C1396 C1400 1.524 . S
C1397 C1389 1.503 . S
C1397 C1396 1.370 . S
C1397 C1398 1.403 . S
C1398 C1397 1.403 . S
C1398 C1399 1.404 . S
C1398 C1401 1.539 . S
C1399 C1395 1.408 . S
C1399 C1398 1.404 . S
C1399 H1411 0.930 . S
C1400 C1396 1.524 . S
C1400 H1412 0.956 . S
C1400 H1413 0.961 . S
C1400 H1414 0.961 . S
C1401 C1398 1.539 . S
C1401 H1415 0.958 . S
C1401 H1416 0.961 . S
C1401 H1417 0.960 . S
H1402 C1386 0.931 . S
H1403 C1391 0.929 . S
H1404 C1392 0.960 . S
H1405 C1392 0.962 . S
H1406 C1392 0.960 . S
H1407 C1393 0.961 . S
H1408 C1393 0.961 . S
H1409 C1393 0.961 . S
H1410 C1394 0.931 . S
H1411 C1399 0.930 . S
H1412 C1400 0.956 . S
H1413 C1400 0.961 . S
H1414 C1400 0.961 . S
H1415 C1401 0.958 . S
H1416 C1401 0.961 . S
H1417 C1401 0.960 . S
C1418 C1419 1.391 . S
C1418 C1420 1.394 . S
C1418 H1434 0.931 . S
C1419 C1418 1.391 . S
C1419 C1423 1.376 . S
C1420 C1418 1.394 . S
C1420 C1421 1.369 . S
C1420 C1424 1.531 . S
C1421 C1420 1.369 . S
C1421 C1422 1.410 . S
C1421 C1429 1.503 . S
C1422 C1421 1.410 . S
C1422 C1423 1.392 . S
C1422 C1425 1.511 . S
C1423 C1419 1.376 . S
C1423 C1422 1.392 . S
C1423 H1435 0.929 . S
C1424 C1420 1.531 . S
C1424 H1436 0.960 . S
C1424 H1437 0.962 . S
C1424 H1438 0.960 . S
C1425 C1422 1.511 . S
C1425 H1439 0.961 . S
C1425 H1440 0.961 . S
C1425 H1441 0.961 . S
C1426 C1427 1.370 . S
C1426 C1428 1.363 . S
C1426 H1442 0.931 . S
C1427 C1426 1.370 . S
C1427 C1431 1.408 . S
C1428 C1426 1.363 . S
C1428 C1429 1.370 . S
C1428 C1432 1.524 . S
C1429 C1421 1.503 . S
C1429 C1428 1.370 . S
C1429 C1430 1.403 . S
C1430 C1429 1.403 . S
C1430 C1431 1.404 . S
C1430 C1433 1.539 . S
C1431 C1427 1.408 . S
C1431 C1430 1.404 . S
C1431 H1443 0.930 . S
C1432 C1428 1.524 . S
C1432 H1444 0.956 . S
C1432 H1445 0.961 . S
C1432 H1446 0.961 . S
C1433 C1430 1.539 . S
C1433 H1447 0.958 . S
C1433 H1448 0.961 . S
C1433 H1449 0.960 . S
H1434 C1418 0.931 . S
H1435 C1423 0.929 . S
H1436 C1424 0.960 . S
H1437 C1424 0.962 . S
H1438 C1424 0.960 . S
H1439 C1425 0.961 . S
H1440 C1425 0.961 . S
H1441 C1425 0.961 . S
H1442 C1426 0.931 . S
H1443 C1431 0.930 . S
H1444 C1432 0.956 . S
H1445 C1432 0.961 . S
H1446 C1432 0.961 . S
H1447 C1433 0.958 . S
H1448 C1433 0.961 . S
H1449 C1433 0.960 . S
C1450 C1451 1.391 . S
C1450 C1452 1.394 . S
C1450 H1466 0.931 . S
C1451 C1450 1.391 . S
C1451 C1455 1.376 . S
C1452 C1450 1.394 . S
C1452 C1453 1.369 . S
C1452 C1456 1.531 . S
C1453 C1452 1.369 . S
C1453 C1454 1.410 . S
C1453 C1461 1.503 . S
C1454 C1453 1.410 . S
C1454 C1455 1.392 . S
C1454 C1457 1.511 . S
C1455 C1451 1.376 . S
C1455 C1454 1.392 . S
C1455 H1467 0.929 . S
C1456 C1452 1.531 . S
C1456 H1468 0.960 . S
C1456 H1469 0.962 . S
C1456 H1470 0.960 . S
C1457 C1454 1.511 . S
C1457 H1471 0.961 . S
C1457 H1472 0.961 . S
C1457 H1473 0.961 . S
C1458 C1459 1.370 . S
C1458 C1460 1.363 . S
C1458 H1474 0.931 . S
C1459 C1458 1.370 . S
C1459 C1463 1.408 . S
C1460 C1458 1.363 . S
C1460 C1461 1.370 . S
C1460 C1464 1.524 . S
C1461 C1453 1.503 . S
C1461 C1460 1.370 . S
C1461 C1462 1.403 . S
C1462 C1461 1.403 . S
C1462 C1463 1.404 . S
C1462 C1465 1.539 . S
C1463 C1459 1.408 . S
C1463 C1462 1.404 . S
C1463 H1475 0.930 . S
C1464 C1460 1.524 . S
C1464 H1476 0.956 . S
C1464 H1477 0.961 . S
C1464 H1478 0.961 . S
C1465 C1462 1.539 . S
C1465 H1479 0.958 . S
C1465 H1480 0.961 . S
C1465 H1481 0.960 . S
H1466 C1450 0.931 . S
H1467 C1455 0.929 . S
H1468 C1456 0.960 . S
H1469 C1456 0.962 . S
H1470 C1456 0.960 . S
H1471 C1457 0.961 . S
H1472 C1457 0.961 . S
H1473 C1457 0.961 . S
H1474 C1458 0.931 . S
H1475 C1463 0.930 . S
H1476 C1464 0.956 . S
H1477 C1464 0.961 . S
H1478 C1464 0.961 . S
H1479 C1465 0.958 . S
H1480 C1465 0.961 . S
H1481 C1465 0.960 . S
C1482 C1483 1.391 . S
C1482 C1484 1.394 . S
C1482 H1498 0.931 . S
C1483 C1482 1.391 . S
C1483 C1487 1.376 . S
C1484 C1482 1.394 . S
C1484 C1485 1.369 . S
C1484 C1488 1.531 . S
C1485 C1484 1.369 . S
C1485 C1486 1.410 . S
C1485 C1493 1.503 . S
C1486 C1485 1.410 . S
C1486 C1487 1.392 . S
C1486 C1489 1.511 . S
C1487 C1483 1.376 . S
C1487 C1486 1.392 . S
C1487 H1499 0.929 . S
C1488 C1484 1.531 . S
C1488 H1500 0.960 . S
C1488 H1501 0.962 . S
C1488 H1502 0.960 . S
C1489 C1486 1.511 . S
C1489 H1503 0.961 . S
C1489 H1504 0.961 . S
C1489 H1505 0.961 . S
C1490 C1491 1.370 . S
C1490 C1492 1.363 . S
C1490 H1506 0.931 . S
C1491 C1490 1.370 . S
C1491 C1495 1.408 . S
C1492 C1490 1.363 . S
C1492 C1493 1.370 . S
C1492 C1496 1.524 . S
C1493 C1485 1.503 . S
C1493 C1492 1.370 . S
C1493 C1494 1.403 . S
C1494 C1493 1.403 . S
C1494 C1495 1.404 . S
C1494 C1497 1.539 . S
C1495 C1491 1.408 . S
C1495 C1494 1.404 . S
C1495 H1507 0.930 . S
C1496 C1492 1.524 . S
C1496 H1508 0.956 . S
C1496 H1509 0.961 . S
C1496 H1510 0.961 . S
C1497 C1494 1.539 . S
C1497 H1511 0.958 . S
C1497 H1512 0.961 . S
C1497 H1513 0.960 . S
H1498 C1482 0.931 . S
H1499 C1487 0.929 . S
H1500 C1488 0.960 . S
H1501 C1488 0.962 . S
H1502 C1488 0.960 . S
H1503 C1489 0.961 . S
H1504 C1489 0.961 . S
H1505 C1489 0.961 . S
H1506 C1490 0.931 . S
H1507 C1495 0.930 . S
H1508 C1496 0.956 . S
H1509 C1496 0.961 . S
H1510 C1496 0.961 . S
H1511 C1497 0.958 . S
H1512 C1497 0.961 . S
H1513 C1497 0.960 . S
C1514 C1515 1.391 . S
C1514 C1516 1.394 . S
C1514 H1530 0.931 . S
C1515 C1514 1.391 . S
C1515 C1519 1.376 . S
C1516 C1514 1.394 . S
C1516 C1517 1.369 . S
C1516 C1520 1.531 . S
C1517 C1516 1.369 . S
C1517 C1518 1.410 . S
C1517 C1525 1.503 . S
C1518 C1517 1.410 . S
C1518 C1519 1.392 . S
C1518 C1521 1.511 . S
C1519 C1515 1.376 . S
C1519 C1518 1.392 . S
C1519 H1531 0.929 . S
C1520 C1516 1.531 . S
C1520 H1532 0.960 . S
C1520 H1533 0.962 . S
C1520 H1534 0.960 . S
C1521 C1518 1.511 . S
C1521 H1535 0.961 . S
C1521 H1536 0.961 . S
C1521 H1537 0.961 . S
C1522 C1523 1.370 . S
C1522 C1524 1.363 . S
C1522 H1538 0.931 . S
C1523 C1522 1.370 . S
C1523 C1527 1.408 . S
C1524 C1522 1.363 . S
C1524 C1525 1.370 . S
C1524 C1528 1.524 . S
C1525 C1517 1.503 . S
C1525 C1524 1.370 . S
C1525 C1526 1.403 . S
C1526 C1525 1.403 . S
C1526 C1527 1.404 . S
C1526 C1529 1.539 . S
C1527 C1523 1.408 . S
C1527 C1526 1.404 . S
C1527 H1539 0.930 . S
C1528 C1524 1.524 . S
C1528 H1540 0.956 . S
C1528 H1541 0.961 . S
C1528 H1542 0.961 . S
C1529 C1526 1.539 . S
C1529 H1543 0.958 . S
C1529 H1544 0.961 . S
C1529 H1545 0.960 . S
H1530 C1514 0.931 . S
H1531 C1519 0.929 . S
H1532 C1520 0.960 . S
H1533 C1520 0.962 . S
H1534 C1520 0.960 . S
H1535 C1521 0.961 . S
H1536 C1521 0.961 . S
H1537 C1521 0.961 . S
H1538 C1522 0.931 . S
H1539 C1527 0.930 . S
H1540 C1528 0.956 . S
H1541 C1528 0.961 . S
H1542 C1528 0.961 . S
H1543 C1529 0.958 . S
H1544 C1529 0.961 . S
H1545 C1529 0.960 . S
C1546 C1547 1.391 . S
C1546 C1548 1.394 . S
C1546 H1562 0.931 . S
C1547 C1546 1.391 . S
C1547 C1551 1.376 . S
C1548 C1546 1.394 . S
C1548 C1549 1.369 . S
C1548 C1552 1.531 . S
C1549 C1548 1.369 . S
C1549 C1550 1.410 . S
C1549 C1557 1.503 . S
C1550 C1549 1.410 . S
C1550 C1551 1.392 . S
C1550 C1553 1.511 . S
C1551 C1547 1.376 . S
C1551 C1550 1.392 . S
C1551 H1563 0.929 . S
C1552 C1548 1.531 . S
C1552 H1564 0.960 . S
C1552 H1565 0.962 . S
C1552 H1566 0.960 . S
C1553 C1550 1.511 . S
C1553 H1567 0.961 . S
C1553 H1568 0.961 . S
C1553 H1569 0.961 . S
C1554 C1555 1.370 . S
C1554 C1556 1.363 . S
C1554 H1570 0.931 . S
C1555 C1554 1.370 . S
C1555 C1559 1.408 . S
C1556 C1554 1.363 . S
C1556 C1557 1.370 . S
C1556 C1560 1.524 . S
C1557 C1549 1.503 . S
C1557 C1556 1.370 . S
C1557 C1558 1.403 . S
C1558 C1557 1.403 . S
C1558 C1559 1.404 . S
C1558 C1561 1.539 . S
C1559 C1555 1.408 . S
C1559 C1558 1.404 . S
C1559 H1571 0.930 . S
C1560 C1556 1.524 . S
C1560 H1572 0.956 . S
C1560 H1573 0.961 . S
C1560 H1574 0.961 . S
C1561 C1558 1.539 . S
C1561 H1575 0.958 . S
C1561 H1576 0.961 . S
C1561 H1577 0.960 . S
H1562 C1546 0.931 . S
H1563 C1551 0.929 . S
H1564 C1552 0.960 . S
H1565 C1552 0.962 . S
H1566 C1552 0.960 . S
H1567 C1553 0.961 . S
H1568 C1553 0.961 . S
H1569 C1553 0.961 . S
H1570 C1554 0.931 . S
H1571 C1559 0.930 . S
H1572 C1560 0.956 . S
H1573 C1560 0.961 . S
H1574 C1560 0.961 . S
H1575 C1561 0.958 . S
H1576 C1561 0.961 . S
H1577 C1561 0.960 . S
C1578 C1579 1.391 . S
C1578 C1580 1.394 . S
C1578 H1594 0.931 . S
C1579 C1578 1.391 . S
C1579 C1583 1.376 . S
C1580 C1578 1.394 . S
C1580 C1581 1.369 . S
C1580 C1584 1.531 . S
C1581 C1580 1.369 . S
C1581 C1582 1.410 . S
C1581 C1589 1.503 . S
C1582 C1581 1.410 . S
C1582 C1583 1.392 . S
C1582 C1585 1.511 . S
C1583 C1579 1.376 . S
C1583 C1582 1.392 . S
C1583 H1595 0.929 . S
C1584 C1580 1.531 . S
C1584 H1596 0.960 . S
C1584 H1597 0.962 . S
C1584 H1598 0.960 . S
C1585 C1582 1.511 . S
C1585 H1599 0.961 . S
C1585 H1600 0.961 . S
C1585 H1601 0.961 . S
C1586 C1587 1.370 . S
C1586 C1588 1.363 . S
C1586 H1602 0.931 . S
C1587 C1586 1.370 . S
C1587 C1591 1.408 . S
C1588 C1586 1.363 . S
C1588 C1589 1.370 . S
C1588 C1592 1.524 . S
C1589 C1581 1.503 . S
C1589 C1588 1.370 . S
C1589 C1590 1.403 . S
C1590 C1589 1.403 . S
C1590 C1591 1.404 . S
C1590 C1593 1.539 . S
C1591 C1587 1.408 . S
C1591 C1590 1.404 . S
C1591 H1603 0.930 . S
C1592 C1588 1.524 . S
C1592 H1604 0.956 . S
C1592 H1605 0.961 . S
C1592 H1606 0.961 . S
C1593 C1590 1.539 . S
C1593 H1607 0.958 . S
C1593 H1608 0.961 . S
C1593 H1609 0.960 . S
H1594 C1578 0.931 . S
H1595 C1583 0.929 . S
H1596 C1584 0.960 . S
H1597 C1584 0.962 . S
H1598 C1584 0.960 . S
H1599 C1585 0.961 . S
H1600 C1585 0.961 . S
H1601 C1585 0.961 . S
H1602 C1586 0.931 . S
H1603 C1591 0.930 . S
H1604 C1592 0.956 . S
H1605 C1592 0.961 . S
H1606 C1592 0.961 . S
H1607 C1593 0.958 . S
H1608 C1593 0.961 . S
H1609 C1593 0.960 . S
C1610 C1611 1.391 . S
C1610 C1612 1.394 . S
C1610 H1626 0.931 . S
C1611 C1610 1.391 . S
C1611 C1615 1.376 . S
C1612 C1610 1.394 . S
C1612 C1613 1.369 . S
C1612 C1616 1.531 . S
C1613 C1612 1.369 . S
C1613 C1614 1.410 . S
C1613 C1621 1.503 . S
C1614 C1613 1.410 . S
C1614 C1615 1.392 . S
C1614 C1617 1.511 . S
C1615 C1611 1.376 . S
C1615 C1614 1.392 . S
C1615 H1627 0.929 . S
C1616 C1612 1.531 . S
C1616 H1628 0.960 . S
C1616 H1629 0.962 . S
C1616 H1630 0.960 . S
C1617 C1614 1.511 . S
C1617 H1631 0.961 . S
C1617 H1632 0.961 . S
C1617 H1633 0.961 . S
C1618 C1619 1.370 . S
C1618 C1620 1.363 . S
C1618 H1634 0.931 . S
C1619 C1618 1.370 . S
C1619 C1623 1.408 . S
C1620 C1618 1.363 . S
C1620 C1621 1.370 . S
C1620 C1624 1.524 . S
C1621 C1613 1.503 . S
C1621 C1620 1.370 . S
C1621 C1622 1.403 . S
C1622 C1621 1.403 . S
C1622 C1623 1.404 . S
C1622 C1625 1.539 . S
C1623 C1619 1.408 . S
C1623 C1622 1.404 . S
C1623 H1635 0.930 . S
C1624 C1620 1.524 . S
C1624 H1636 0.956 . S
C1624 H1637 0.961 . S
C1624 H1638 0.961 . S
C1625 C1622 1.539 . S
C1625 H1639 0.958 . S
C1625 H1640 0.961 . S
C1625 H1641 0.960 . S
H1626 C1610 0.931 . S
H1627 C1615 0.929 . S
H1628 C1616 0.960 . S
H1629 C1616 0.962 . S
H1630 C1616 0.960 . S
H1631 C1617 0.961 . S
H1632 C1617 0.961 . S
H1633 C1617 0.961 . S
H1634 C1618 0.931 . S
H1635 C1623 0.930 . S
H1636 C1624 0.956 . S
H1637 C1624 0.961 . S
H1638 C1624 0.961 . S
H1639 C1625 0.958 . S
H1640 C1625 0.961 . S
H1641 C1625 0.960 . S
C1642 C1643 1.391 . S
C1642 C1644 1.394 . S
C1642 H1658 0.931 . S
C1643 C1642 1.391 . S
C1643 C1647 1.376 . S
C1644 C1642 1.394 . S
C1644 C1645 1.369 . S
C1644 C1648 1.531 . S
C1645 C1644 1.369 . S
C1645 C1646 1.410 . S
C1645 C1653 1.503 . S
C1646 C1645 1.410 . S
C1646 C1647 1.392 . S
C1646 C1649 1.511 . S
C1647 C1643 1.376 . S
C1647 C1646 1.392 . S
C1647 H1659 0.929 . S
C1648 C1644 1.531 . S
C1648 H1660 0.960 . S
C1648 H1661 0.962 . S
C1648 H1662 0.960 . S
C1649 C1646 1.511 . S
C1649 H1663 0.961 . S
C1649 H1664 0.961 . S
C1649 H1665 0.961 . S
C1650 C1651 1.370 . S
C1650 C1652 1.363 . S
C1650 H1666 0.931 . S
C1651 C1650 1.370 . S
C1651 C1655 1.408 . S
C1652 C1650 1.363 . S
C1652 C1653 1.370 . S
C1652 C1656 1.524 . S
C1653 C1645 1.503 . S
C1653 C1652 1.370 . S
C1653 C1654 1.403 . S
C1654 C1653 1.403 . S
C1654 C1655 1.404 . S
C1654 C1657 1.539 . S
C1655 C1651 1.408 . S
C1655 C1654 1.404 . S
C1655 H1667 0.930 . S
C1656 C1652 1.524 . S
C1656 H1668 0.956 . S
C1656 H1669 0.961 . S
C1656 H1670 0.961 . S
C1657 C1654 1.539 . S
C1657 H1671 0.958 . S
C1657 H1672 0.961 . S
C1657 H1673 0.960 . S
H1658 C1642 0.931 . S
H1659 C1647 0.929 . S
H1660 C1648 0.960 . S
H1661 C1648 0.962 . S
H1662 C1648 0.960 . S
H1663 C1649 0.961 . S
H1664 C1649 0.961 . S
H1665 C1649 0.961 . S
H1666 C1650 0.931 . S
H1667 C1655 0.930 . S
H1668 C1656 0.956 . S
H1669 C1656 0.961 . S
H1670 C1656 0.961 . S
H1671 C1657 0.958 . S
H1672 C1657 0.961 . S
H1673 C1657 0.960 . S
C1674 C1675 1.391 . S
C1674 C1676 1.394 . S
C1674 H1690 0.931 . S
C1675 C1674 1.391 . S
C1675 C1679 1.376 . S
C1676 C1674 1.394 . S
C1676 C1677 1.369 . S
C1676 C1680 1.531 . S
C1677 C1676 1.369 . S
C1677 C1678 1.410 . S
C1677 C1685 1.503 . S
C1678 C1677 1.410 . S
C1678 C1679 1.392 . S
C1678 C1681 1.511 . S
C1679 C1675 1.376 . S
C1679 C1678 1.392 . S
C1679 H1691 0.929 . S
C1680 C1676 1.531 . S
C1680 H1692 0.960 . S
C1680 H1693 0.962 . S
C1680 H1694 0.960 . S
C1681 C1678 1.511 . S
C1681 H1695 0.961 . S
C1681 H1696 0.961 . S
C1681 H1697 0.961 . S
C1682 C1683 1.370 . S
C1682 C1684 1.363 . S
C1682 H1698 0.931 . S
C1683 C1682 1.370 . S
C1683 C1687 1.408 . S
C1684 C1682 1.363 . S
C1684 C1685 1.370 . S
C1684 C1688 1.524 . S
C1685 C1677 1.503 . S
C1685 C1684 1.370 . S
C1685 C1686 1.403 . S
C1686 C1685 1.403 . S
C1686 C1687 1.404 . S
C1686 C1689 1.539 . S
C1687 C1683 1.408 . S
C1687 C1686 1.404 . S
C1687 H1699 0.930 . S
C1688 C1684 1.524 . S
C1688 H1700 0.956 . S
C1688 H1701 0.961 . S
C1688 H1702 0.961 . S
C1689 C1686 1.539 . S
C1689 H1703 0.958 . S
C1689 H1704 0.961 . S
C1689 H1705 0.960 . S
H1690 C1674 0.931 . S
H1691 C1679 0.929 . S
H1692 C1680 0.960 . S
H1693 C1680 0.962 . S
H1694 C1680 0.960 . S
H1695 C1681 0.961 . S
H1696 C1681 0.961 . S
H1697 C1681 0.961 . S
H1698 C1682 0.931 . S
H1699 C1687 0.930 . S
H1700 C1688 0.956 . S
H1701 C1688 0.961 . S
H1702 C1688 0.961 . S
H1703 C1689 0.958 . S
H1704 C1689 0.961 . S
H1705 C1689 0.960 . S
C1706 C1707 1.391 . S
C1706 C1708 1.394 . S
C1706 H1722 0.931 . S
C1707 C1706 1.391 . S
C1707 C1711 1.376 . S
C1708 C1706 1.394 . S
C1708 C1709 1.369 . S
C1708 C1712 1.531 . S
C1709 C1708 1.369 . S
C1709 C1710 1.410 . S
C1709 C1717 1.503 . S
C1710 C1709 1.410 . S
C1710 C1711 1.392 . S
C1710 C1713 1.511 . S
C1711 C1707 1.376 . S
C1711 C1710 1.392 . S
C1711 H1723 0.929 . S
C1712 C1708 1.531 . S
C1712 H1724 0.960 . S
C1712 H1725 0.962 . S
C1712 H1726 0.960 . S
C1713 C1710 1.511 . S
C1713 H1727 0.961 . S
C1713 H1728 0.961 . S
C1713 H1729 0.961 . S
C1714 C1715 1.370 . S
C1714 C1716 1.363 . S
C1714 H1730 0.931 . S
C1715 C1714 1.370 . S
C1715 C1719 1.408 . S
C1716 C1714 1.363 . S
C1716 C1717 1.370 . S
C1716 C1720 1.524 . S
C1717 C1709 1.503 . S
C1717 C1716 1.370 . S
C1717 C1718 1.403 . S
C1718 C1717 1.403 . S
C1718 C1719 1.404 . S
C1718 C1721 1.539 . S
C1719 C1715 1.408 . S
C1719 C1718 1.404 . S
C1719 H1731 0.930 . S
C1720 C1716 1.524 . S
C1720 H1732 0.956 . S
C1720 H1733 0.961 . S
C1720 H1734 0.961 . S
C1721 C1718 1.539 . S
C1721 H1735 0.958 . S
C1721 H1736 0.961 . S
C1721 H1737 0.960 . S
H1722 C1706 0.931 . S
H1723 C1711 0.929 . S
H1724 C1712 0.960 . S
H1725 C1712 0.962 . S
H1726 C1712 0.960 . S
H1727 C1713 0.961 . S
H1728 C1713 0.961 . S
H1729 C1713 0.961 . S
H1730 C1714 0.931 . S
H1731 C1719 0.930 . S
H1732 C1720 0.956 . S
H1733 C1720 0.961 . S
H1734 C1720 0.961 . S
H1735 C1721 0.958 . S
H1736 C1721 0.961 . S
H1737 C1721 0.960 . S
C1738 C1739 1.391 . S
C1738 C1740 1.394 . S
C1738 H1754 0.931 . S
C1739 C1738 1.391 . S
C1739 C1743 1.376 . S
C1740 C1738 1.394 . S
C1740 C1741 1.369 . S
C1740 C1744 1.531 . S
C1741 C1740 1.369 . S
C1741 C1742 1.410 . S
C1741 C1749 1.503 . S
C1742 C1741 1.410 . S
C1742 C1743 1.392 . S
C1742 C1745 1.511 . S
C1743 C1739 1.376 . S
C1743 C1742 1.392 . S
C1743 H1755 0.929 . S
C1744 C1740 1.531 . S
C1744 H1756 0.960 . S
C1744 H1757 0.962 . S
C1744 H1758 0.960 . S
C1745 C1742 1.511 . S
C1745 H1759 0.961 . S
C1745 H1760 0.961 . S
C1745 H1761 0.961 . S
C1746 C1747 1.370 . S
C1746 C1748 1.363 . S
C1746 H1762 0.931 . S
C1747 C1746 1.370 . S
C1747 C1751 1.408 . S
C1748 C1746 1.363 . S
C1748 C1749 1.370 . S
C1748 C1752 1.524 . S
C1749 C1741 1.503 . S
C1749 C1748 1.370 . S
C1749 C1750 1.403 . S
C1750 C1749 1.403 . S
C1750 C1751 1.404 . S
C1750 C1753 1.539 . S
C1751 C1747 1.408 . S
C1751 C1750 1.404 . S
C1751 H1763 0.930 . S
C1752 C1748 1.524 . S
C1752 H1764 0.956 . S
C1752 H1765 0.961 . S
C1752 H1766 0.961 . S
C1753 C1750 1.539 . S
C1753 H1767 0.958 . S
C1753 H1768 0.961 . S
C1753 H1769 0.960 . S
H1754 C1738 0.931 . S
H1755 C1743 0.929 . S
H1756 C1744 0.960 . S
H1757 C1744 0.962 . S
H1758 C1744 0.960 . S
H1759 C1745 0.961 . S
H1760 C1745 0.961 . S
H1761 C1745 0.961 . S
H1762 C1746 0.931 . S
H1763 C1751 0.930 . S
H1764 C1752 0.956 . S
H1765 C1752 0.961 . S
H1766 C1752 0.961 . S
H1767 C1753 0.958 . S
H1768 C1753 0.961 . S
H1769 C1753 0.960 . S
C1770 C1771 1.391 . S
C1770 C1772 1.394 . S
C1770 H1786 0.931 . S
C1771 C1770 1.391 . S
C1771 C1775 1.376 . S
C1772 C1770 1.394 . S
C1772 C1773 1.369 . S
C1772 C1776 1.531 . S
C1773 C1772 1.369 . S
C1773 C1774 1.410 . S
C1773 C1781 1.503 . S
C1774 C1773 1.410 . S
C1774 C1775 1.392 . S
C1774 C1777 1.511 . S
C1775 C1771 1.376 . S
C1775 C1774 1.392 . S
C1775 H1787 0.929 . S
C1776 C1772 1.531 . S
C1776 H1788 0.960 . S
C1776 H1789 0.962 . S
C1776 H1790 0.960 . S
C1777 C1774 1.511 . S
C1777 H1791 0.961 . S
C1777 H1792 0.961 . S
C1777 H1793 0.961 . S
C1778 C1779 1.370 . S
C1778 C1780 1.363 . S
C1778 H1794 0.931 . S
C1779 C1778 1.370 . S
C1779 C1783 1.408 . S
C1780 C1778 1.363 . S
C1780 C1781 1.370 . S
C1780 C1784 1.524 . S
C1781 C1773 1.503 . S
C1781 C1780 1.370 . S
C1781 C1782 1.403 . S
C1782 C1781 1.403 . S
C1782 C1783 1.404 . S
C1782 C1785 1.539 . S
C1783 C1779 1.408 . S
C1783 C1782 1.404 . S
C1783 H1795 0.930 . S
C1784 C1780 1.524 . S
C1784 H1796 0.956 . S
C1784 H1797 0.961 . S
C1784 H1798 0.961 . S
C1785 C1782 1.539 . S
C1785 H1799 0.958 . S
C1785 H1800 0.961 . S
C1785 H1801 0.960 . S
H1786 C1770 0.931 . S
H1787 C1775 0.929 . S
H1788 C1776 0.960 . S
H1789 C1776 0.962 . S
H1790 C1776 0.960 . S
H1791 C1777 0.961 . S
H1792 C1777 0.961 . S
H1793 C1777 0.961 . S
H1794 C1778 0.931 . S
H1795 C1783 0.930 . S
H1796 C1784 0.956 . S
H1797 C1784 0.961 . S
H1798 C1784 0.961 . S
H1799 C1785 0.958 . S
H1800 C1785 0.961 . S
H1801 C1785 0.960 . S
C1802 C1803 1.391 . S
C1802 C1804 1.394 . S
C1802 H1818 0.931 . S
C1803 C1802 1.391 . S
C1803 C1807 1.376 . S
C1804 C1802 1.394 . S
C1804 C1805 1.369 . S
C1804 C1808 1.531 . S
C1805 C1804 1.369 . S
C1805 C1806 1.410 . S
C1805 C1813 1.503 . S
C1806 C1805 1.410 . S
C1806 C1807 1.392 . S
C1806 C1809 1.511 . S
C1807 C1803 1.376 . S
C1807 C1806 1.392 . S
C1807 H1819 0.929 . S
C1808 C1804 1.531 . S
C1808 H1820 0.960 . S
C1808 H1821 0.962 . S
C1808 H1822 0.960 . S
C1809 C1806 1.511 . S
C1809 H1823 0.961 . S
C1809 H1824 0.961 . S
C1809 H1825 0.961 . S
C1810 C1811 1.370 . S
C1810 C1812 1.363 . S
C1810 H1826 0.931 . S
C1811 C1810 1.370 . S
C1811 C1815 1.408 . S
C1812 C1810 1.363 . S
C1812 C1813 1.370 . S
C1812 C1816 1.524 . S
C1813 C1805 1.503 . S
C1813 C1812 1.370 . S
C1813 C1814 1.403 . S
C1814 C1813 1.403 . S
C1814 C1815 1.404 . S
C1814 C1817 1.539 . S
C1815 C1811 1.408 . S
C1815 C1814 1.404 . S
C1815 H1827 0.930 . S
C1816 C1812 1.524 . S
C1816 H1828 0.956 . S
C1816 H1829 0.961 . S
C1816 H1830 0.961 . S
C1817 C1814 1.539 . S
C1817 H1831 0.958 . S
C1817 H1832 0.961 . S
C1817 H1833 0.960 . S
H1818 C1802 0.931 . S
H1819 C1807 0.929 . S
H1820 C1808 0.960 . S
H1821 C1808 0.962 . S
H1822 C1808 0.960 . S
H1823 C1809 0.961 . S
H1824 C1809 0.961 . S
H1825 C1809 0.961 . S
H1826 C1810 0.931 . S
H1827 C1815 0.930 . S
H1828 C1816 0.956 . S
H1829 C1816 0.961 . S
H1830 C1816 0.961 . S
H1831 C1817 0.958 . S
H1832 C1817 0.961 . S
H1833 C1817 0.960 . S
C1834 C1835 1.391 . S
C1834 C1836 1.394 . S
C1834 H1850 0.931 . S
C1835 C1834 1.391 . S
C1835 C1839 1.376 . S
C1836 C1834 1.394 . S
C1836 C1837 1.369 . S
C1836 C1840 1.531 . S
C1837 C1836 1.369 . S
C1837 C1838 1.410 . S
C1837 C1845 1.503 . S
C1838 C1837 1.410 . S
C1838 C1839 1.392 . S
C1838 C1841 1.511 . S
C1839 C1835 1.376 . S
C1839 C1838 1.392 . S
C1839 H1851 0.929 . S
C1840 C1836 1.531 . S
C1840 H1852 0.960 . S
C1840 H1853 0.962 . S
C1840 H1854 0.960 . S
C1841 C1838 1.511 . S
C1841 H1855 0.961 . S
C1841 H1856 0.961 . S
C1841 H1857 0.961 . S
C1842 C1843 1.370 . S
C1842 C1844 1.363 . S
C1842 H1858 0.931 . S
C1843 C1842 1.370 . S
C1843 C1847 1.408 . S
C1844 C1842 1.363 . S
C1844 C1845 1.370 . S
C1844 C1848 1.524 . S
C1845 C1837 1.503 . S
C1845 C1844 1.370 . S
C1845 C1846 1.403 . S
C1846 C1845 1.403 . S
C1846 C1847 1.404 . S
C1846 C1849 1.539 . S
C1847 C1843 1.408 . S
C1847 C1846 1.404 . S
C1847 H1859 0.930 . S
C1848 C1844 1.524 . S
C1848 H1860 0.956 . S
C1848 H1861 0.961 . S
C1848 H1862 0.961 . S
C1849 C1846 1.539 . S
C1849 H1863 0.958 . S
C1849 H1864 0.961 . S
C1849 H1865 0.960 . S
H1850 C1834 0.931 . S
H1851 C1839 0.929 . S
H1852 C1840 0.960 . S
H1853 C1840 0.962 . S
H1854 C1840 0.960 . S
H1855 C1841 0.961 . S
H1856 C1841 0.961 . S
H1857 C1841 0.961 . S
H1858 C1842 0.931 . S
H1859 C1847 0.930 . S
H1860 C1848 0.956 . S
H1861 C1848 0.961 . S
H1862 C1848 0.961 . S
H1863 C1849 0.958 . S
H1864 C1849 0.961 . S
H1865 C1849 0.960 . S
C1866 C1867 1.391 . S
C1866 C1868 1.394 . S
C1866 H1882 0.931 . S
C1867 C1866 1.391 . S
C1867 C1871 1.376 . S
C1868 C1866 1.394 . S
C1868 C1869 1.369 . S
C1868 C1872 1.531 . S
C1869 C1868 1.369 . S
C1869 C1870 1.410 . S
C1869 C1877 1.503 . S
C1870 C1869 1.410 . S
C1870 C1871 1.392 . S
C1870 C1873 1.511 . S
C1871 C1867 1.376 . S
C1871 C1870 1.392 . S
C1871 H1883 0.929 . S
C1872 C1868 1.531 . S
C1872 H1884 0.960 . S
C1872 H1885 0.962 . S
C1872 H1886 0.960 . S
C1873 C1870 1.511 . S
C1873 H1887 0.961 . S
C1873 H1888 0.961 . S
C1873 H1889 0.961 . S
C1874 C1875 1.370 . S
C1874 C1876 1.363 . S
C1874 H1890 0.931 . S
C1875 C1874 1.370 . S
C1875 C1879 1.408 . S
C1876 C1874 1.363 . S
C1876 C1877 1.370 . S
C1876 C1880 1.524 . S
C1877 C1869 1.503 . S
C1877 C1876 1.370 . S
C1877 C1878 1.403 . S
C1878 C1877 1.403 . S
C1878 C1879 1.404 . S
C1878 C1881 1.539 . S
C1879 C1875 1.408 . S
C1879 C1878 1.404 . S
C1879 H1891 0.930 . S
C1880 C1876 1.524 . S
C1880 H1892 0.956 . S
C1880 H1893 0.961 . S
C1880 H1894 0.961 . S
C1881 C1878 1.539 . S
C1881 H1895 0.958 . S
C1881 H1896 0.961 . S
C1881 H1897 0.960 . S
H1882 C1866 0.931 . S
H1883 C1871 0.929 . S
H1884 C1872 0.960 . S
H1885 C1872 0.962 . S
H1886 C1872 0.960 . S
H1887 C1873 0.961 . S
H1888 C1873 0.961 . S
H1889 C1873 0.961 . S
H1890 C1874 0.931 . S
H1891 C1879 0.930 . S
H1892 C1880 0.956 . S
H1893 C1880 0.961 . S
H1894 C1880 0.961 . S
H1895 C1881 0.958 . S
H1896 C1881 0.961 . S
H1897 C1881 0.960 . S
C1898 C1899 1.391 . S
C1898 C1900 1.394 . S
C1898 H1914 0.931 . S
C1899 C1898 1.391 . S
C1899 C1903 1.376 . S
C1900 C1898 1.394 . S
C1900 C1901 1.369 . S
C1900 C1904 1.531 . S
C1901 C1900 1.369 . S
C1901 C1902 1.410 . S
C1901 C1909 1.503 . S
C1902 C1901 1.410 . S
C1902 C1903 1.392 . S
C1902 C1905 1.511 . S
C1903 C1899 1.376 . S
C1903 C1902 1.392 . S
C1903 H1915 0.929 . S
C1904 C1900 1.531 . S
C1904 H1916 0.960 . S
C1904 H1917 0.962 . S
C1904 H1918 0.960 . S
C1905 C1902 1.511 . S
C1905 H1919 0.961 . S
C1905 H1920 0.961 . S
C1905 H1921 0.961 . S
C1906 C1907 1.370 . S
C1906 C1908 1.363 . S
C1906 H1922 0.931 . S
C1907 C1906 1.370 . S
C1907 C1911 1.408 . S
C1908 C1906 1.363 . S
C1908 C1909 1.370 . S
C1908 C1912 1.524 . S
C1909 C1901 1.503 . S
C1909 C1908 1.370 . S
C1909 C1910 1.403 . S
C1910 C1909 1.403 . S
C1910 C1911 1.404 . S
C1910 C1913 1.539 . S
C1911 C1907 1.408 . S
C1911 C1910 1.404 . S
C1911 H1923 0.930 . S
C1912 C1908 1.524 . S
C1912 H1924 0.956 . S
C1912 H1925 0.961 . S
C1912 H1926 0.961 . S
C1913 C1910 1.539 . S
C1913 H1927 0.958 . S
C1913 H1928 0.961 . S
C1913 H1929 0.960 . S
H1914 C1898 0.931 . S
H1915 C1903 0.929 . S
H1916 C1904 0.960 . S
H1917 C1904 0.962 . S
H1918 C1904 0.960 . S
H1919 C1905 0.961 . S
H1920 C1905 0.961 . S
H1921 C1905 0.961 . S
H1922 C1906 0.931 . S
H1923 C1911 0.930 . S
H1924 C1912 0.956 . S
H1925 C1912 0.961 . S
H1926 C1912 0.961 . S
H1927 C1913 0.958 . S
H1928 C1913 0.961 . S
H1929 C1913 0.960 . S
C1930 C1931 1.391 . S
C1930 C1932 1.394 . S
C1930 H1946 0.931 . S
C1931 C1930 1.391 . S
C1931 C1935 1.376 . S
C1932 C1930 1.394 . S
C1932 C1933 1.369 . S
C1932 C1936 1.531 . S
C1933 C1932 1.369 . S
C1933 C1934 1.410 . S
C1933 C1941 1.503 . S
C1934 C1933 1.410 . S
C1934 C1935 1.392 . S
C1934 C1937 1.511 . S
C1935 C1931 1.376 . S
C1935 C1934 1.392 . S
C1935 H1947 0.929 . S
C1936 C1932 1.531 . S
C1936 H1948 0.960 . S
C1936 H1949 0.962 . S
C1936 H1950 0.960 . S
C1937 C1934 1.511 . S
C1937 H1951 0.961 . S
C1937 H1952 0.961 . S
C1937 H1953 0.961 . S
C1938 C1939 1.370 . S
C1938 C1940 1.363 . S
C1938 H1954 0.931 . S
C1939 C1938 1.370 . S
C1939 C1943 1.408 . S
C1940 C1938 1.363 . S
C1940 C1941 1.370 . S
C1940 C1944 1.524 . S
C1941 C1933 1.503 . S
C1941 C1940 1.370 . S
C1941 C1942 1.403 . S
C1942 C1941 1.403 . S
C1942 C1943 1.404 . S
C1942 C1945 1.539 . S
C1943 C1939 1.408 . S
C1943 C1942 1.404 . S
C1943 H1955 0.930 . S
C1944 C1940 1.524 . S
C1944 H1956 0.956 . S
C1944 H1957 0.961 . S
C1944 H1958 0.961 . S
C1945 C1942 1.539 . S
C1945 H1959 0.958 . S
C1945 H1960 0.961 . S
C1945 H1961 0.960 . S
H1946 C1930 0.931 . S
H1947 C1935 0.929 . S
H1948 C1936 0.960 . S
H1949 C1936 0.962 . S
H1950 C1936 0.960 . S
H1951 C1937 0.961 . S
H1952 C1937 0.961 . S
H1953 C1937 0.961 . S
H1954 C1938 0.931 . S
H1955 C1943 0.930 . S
H1956 C1944 0.956 . S
H1957 C1944 0.961 . S
H1958 C1944 0.961 . S
H1959 C1945 0.958 . S
H1960 C1945 0.961 . S
H1961 C1945 0.960 . S
C435 C251 0.959 . S
C427 N6 0.985 . S
C467 C241 2.021 . S
C459 C57 2.015 . S
C499 C242 1.002 . S
C491 C61 1.012 . S
C523 N96 0.729 . S
C531 C264 0.663 . S
C555 C136 2.015 . S
C563 C267 2.025 . S
C595 C250 0.996 . S
C587 C160 1.020 . S
C619 N194 0.740 . S
C627 C240 0.636 . S
C651 N224 0.995 . S
C659 C258 0.967 . S
C691 C271 1.920 . S
C683 C10 1.947 . S
C715 N36 0.929 . S
C723 C320 0.847 . S
C755 C298 0.721 . S
C747 N74 0.822 . S
C787 C312 0.988 . S
C779 C100 0.987 . S
C811 C121 0.988 . S
C819 C273 0.986 . S
C851 C326 1.860 . S
C843 C177 1.918 . S
C875 C196 2.259 . S
C883 C282 2.167 . S
C907 C226 2.043 . S
C915 C303 1.999 . S
C939 C27 2.046 . S
C947 C329 2.000 . S
C971 N134 0.926 . S
C979 C313 0.858 . S
C1011 C272 0.734 . S
C1003 N156 0.822 . S
C1043 C304 0.988 . S
C1035 C181 0.988 . S
C1067 C211 1.947 . S
C1075 C295 1.904 . S
C1099 C76 1.920 . S
C1107 C302 1.860 . S
C1139 C289 2.187 . S
C1131 C117 2.241 . S
C1163 C40 0.983 . S
C1171 C281 0.970 . S
C1195 N216 0.860 . S
C1203 C344 0.985 . S
C1227 C147 2.031 . S
C1235 C334 2.027 . S
C1267 C335 1.001 . S
C1259 C151 1.009 . S
C1299 C357 0.656 . S
C1291 N186 0.760 . S
C1323 C46 2.031 . S
C1331 C360 2.024 . S
C1363 C343 1.003 . S
C1355 C70 1.021 . S
C1387 N104 0.649 . S
C1395 C333 0.633 . S
C1419 N14 0.871 . S
C1427 C351 0.966 . S
C1451 C220 1.941 . S
C1459 C364 1.907 . S
C1491 C413 0.895 . S
C1483 N126 0.800 . S
C1515 N164 0.652 . S
C1523 C391 0.750 . S
C1547 C190 0.993 . S
C1555 C405 0.981 . S
C1587 C366 0.975 . S
C1579 C31 0.982 . S
C1611 C87 1.915 . S
C1619 C419 1.862 . S
C1651 C375 2.168 . S
C1643 C106 2.259 . S
C1683 C396 2.016 . S
C1675 C16 2.023 . S
C1715 C422 1.998 . S
C1707 C237 2.041 . S
C1739 N44 0.798 . S
C1747 C406 0.886 . S
C1771 N66 0.779 . S
C1779 C365 0.764 . S
C1811 C397 0.987 . S
C1803 C91 0.988 . S
C1835 C1 1.951 . S
C1843 C388 1.903 . S
C1867 C166 1.892 . S
C1875 C395 1.874 . S
C1907 C382 2.181 . S
C1899 C207 2.251 . S
C1939 C374 0.961 . S
C1931 C130 1.004 . S
