# Generated by pormake.
# Topology ocu, (6,8)-cn, num edge types: 1
# Building blocks:
#     Node 0, Type 0, BuildingBlock: JUFBIX_clean_sbu_0, # of connection points: 6
#     Node 1, Type 0, BuildingBlock: JUFBIX_clean_sbu_0, # of connection points: 6
#     Node 2, Type 0, BuildingBlock: JUFBIX_clean_sbu_0, # of connection points: 6
#     Node 3, Type 0, BuildingBlock: JUFBIX_clean_sbu_0, # of connection points: 6
#     Node 4, Type 0, BuildingBlock: JUFBIX_clean_sbu_0, # of connection points: 6
#     Node 5, Type 0, BuildingBlock: JUFBIX_clean_sbu_0, # of connection points: 6
#     Node 6, Type 0, BuildingBlock: JUFBIX_clean_sbu_0, # of connection points: 6
#     Node 7, Type 0, BuildingBlock: JUFBIX_clean_sbu_0, # of connection points: 6
#     Node 8, Type 1, BuildingBlock: GIZVER_clean_sbu_0, # of connection points: 8
#     Node 9, Type 1, BuildingBlock: GIZVER_clean_sbu_0, # of connection points: 8
#     Node 10, Type 1, BuildingBlock: GIZVER_clean_sbu_0, # of connection points: 8
#     Node 11, Type 1, BuildingBlock: GIZVER_clean_sbu_0, # of connection points: 8
#     Node 12, Type 1, BuildingBlock: GIZVER_clean_sbu_0, # of connection points: 8
#     Node 13, Type 1, BuildingBlock: GIZVER_clean_sbu_0, # of connection points: 8
#     Edge 14, Type (0, 1), BuildingBlock: TEMPAE_clean_linker_10, # of connection points: 2
#     Edge 15, Type (0, 1), BuildingBlock: TEMPAE_clean_linker_10, # of connection points: 2
#     Edge 16, Type (0, 1), BuildingBlock: TEMPAE_clean_linker_10, # of connection points: 2
#     Edge 17, Type (0, 1), BuildingBlock: TEMPAE_clean_linker_10, # of connection points: 2
#     Edge 18, Type (0, 1), BuildingBlock: TEMPAE_clean_linker_10, # of connection points: 2
#     Edge 19, Type (0, 1), BuildingBlock: TEMPAE_clean_linker_10, # of connection points: 2
#     Edge 20, Type (0, 1), BuildingBlock: TEMPAE_clean_linker_10, # of connection points: 2
#     Edge 21, Type (0, 1), BuildingBlock: TEMPAE_clean_linker_10, # of connection points: 2
#     Edge 22, Type (0, 1), BuildingBlock: TEMPAE_clean_linker_10, # of connection points: 2
#     Edge 23, Type (0, 1), BuildingBlock: TEMPAE_clean_linker_10, # of connection points: 2
#     Edge 24, Type (0, 1), BuildingBlock: TEMPAE_clean_linker_10, # of connection points: 2
#     Edge 25, Type (0, 1), BuildingBlock: TEMPAE_clean_linker_10, # of connection points: 2
#     Edge 26, Type (0, 1), BuildingBlock: TEMPAE_clean_linker_10, # of connection points: 2
#     Edge 27, Type (0, 1), BuildingBlock: TEMPAE_clean_linker_10, # of connection points: 2
#     Edge 28, Type (0, 1), BuildingBlock: TEMPAE_clean_linker_10, # of connection points: 2
#     Edge 29, Type (0, 1), BuildingBlock: TEMPAE_clean_linker_10, # of connection points: 2
#     Edge 30, Type (0, 1), BuildingBlock: TEMPAE_clean_linker_10, # of connection points: 2
#     Edge 31, Type (0, 1), BuildingBlock: TEMPAE_clean_linker_10, # of connection points: 2
#     Edge 32, Type (0, 1), BuildingBlock: TEMPAE_clean_linker_10, # of connection points: 2
#     Edge 33, Type (0, 1), BuildingBlock: TEMPAE_clean_linker_10, # of connection points: 2
#     Edge 34, Type (0, 1), BuildingBlock: TEMPAE_clean_linker_10, # of connection points: 2
#     Edge 35, Type (0, 1), BuildingBlock: TEMPAE_clean_linker_10, # of connection points: 2
#     Edge 36, Type (0, 1), BuildingBlock: TEMPAE_clean_linker_10, # of connection points: 2
#     Edge 37, Type (0, 1), BuildingBlock: TEMPAE_clean_linker_10, # of connection points: 2
#     Edge 38, Type (0, 1), BuildingBlock: TEMPAE_clean_linker_10, # of connection points: 2
#     Edge 39, Type (0, 1), BuildingBlock: TEMPAE_clean_linker_10, # of connection points: 2
#     Edge 40, Type (0, 1), BuildingBlock: TEMPAE_clean_linker_10, # of connection points: 2
#     Edge 41, Type (0, 1), BuildingBlock: TEMPAE_clean_linker_10, # of connection points: 2
#     Edge 42, Type (0, 1), BuildingBlock: TEMPAE_clean_linker_10, # of connection points: 2
#     Edge 43, Type (0, 1), BuildingBlock: TEMPAE_clean_linker_10, # of connection points: 2
#     Edge 44, Type (0, 1), BuildingBlock: TEMPAE_clean_linker_10, # of connection points: 2
#     Edge 45, Type (0, 1), BuildingBlock: TEMPAE_clean_linker_10, # of connection points: 2
#     Edge 46, Type (0, 1), BuildingBlock: TEMPAE_clean_linker_10, # of connection points: 2
#     Edge 47, Type (0, 1), BuildingBlock: TEMPAE_clean_linker_10, # of connection points: 2
#     Edge 48, Type (0, 1), BuildingBlock: TEMPAE_clean_linker_10, # of connection points: 2
#     Edge 49, Type (0, 1), BuildingBlock: TEMPAE_clean_linker_10, # of connection points: 2
#     Edge 50, Type (0, 1), BuildingBlock: TEMPAE_clean_linker_10, # of connection points: 2
#     Edge 51, Type (0, 1), BuildingBlock: TEMPAE_clean_linker_10, # of connection points: 2
#     Edge 52, Type (0, 1), BuildingBlock: TEMPAE_clean_linker_10, # of connection points: 2
#     Edge 53, Type (0, 1), BuildingBlock: TEMPAE_clean_linker_10, # of connection points: 2
#     Edge 54, Type (0, 1), BuildingBlock: TEMPAE_clean_linker_10, # of connection points: 2
#     Edge 55, Type (0, 1), BuildingBlock: TEMPAE_clean_linker_10, # of connection points: 2
#     Edge 56, Type (0, 1), BuildingBlock: TEMPAE_clean_linker_10, # of connection points: 2
#     Edge 57, Type (0, 1), BuildingBlock: TEMPAE_clean_linker_10, # of connection points: 2
#     Edge 58, Type (0, 1), BuildingBlock: TEMPAE_clean_linker_10, # of connection points: 2
#     Edge 59, Type (0, 1), BuildingBlock: TEMPAE_clean_linker_10, # of connection points: 2
#     Edge 60, Type (0, 1), BuildingBlock: TEMPAE_clean_linker_10, # of connection points: 2
#     Edge 61, Type (0, 1), BuildingBlock: TEMPAE_clean_linker_10, # of connection points: 2
# Relax obj value: 0.259
# Max RMSD: 0.325
# Mean RMSD: 0.220
data_MOF--net-ocu--node1-JUFBIX_clean_sbu_0--node2-GIZVER_clean_sbu_0--edge1-TEMPAE_clean_linker_10
_symmetry_space_group_name_H-M    P1
_symmetry_Int_Tables_number       1
_symmetry_cell_setting            triclinic
loop_
_symmetry_equiv_pos_as_xyz
'x, y, z'
_cell_length_a     41.011383
_cell_length_b     42.965844
_cell_length_c     31.170094
_cell_angle_alpha  92.388034
_cell_angle_beta   94.066854
_cell_angle_gamma 100.4248
loop_
_atom_site_label
_atom_site_type_symbol
_atom_site_fract_x
_atom_site_fract_y
_atom_site_fract_z
_atom_type_partial_charge
Co0 Co 0.25889 0.25812 0.25174 0.0
C1 C 0.2458 0.30648 0.30588 0.0
Co2 Co 0.30103 0.29761 0.26081 0.0
C3 C 0.2103 0.2046 0.27053 0.0
C4 C 0.21279 0.20992 0.2028 0.0
N5 N 0.22509 0.22372 0.24171 0.0
N6 N 0.18956 0.1792 0.25113 0.0
C7 C 0.19092 0.18245 0.20851 0.0
H8 H 0.21565 0.20859 0.30504 0.0
H9 H 0.22008 0.21877 0.17225 0.0
C10 C 0.31362 0.2497 0.20565 0.0
N11 N 0.33516 0.33235 0.26993 0.0
C12 C 0.33441 0.362 0.2578 0.0
C13 C 0.36599 0.33389 0.28913 0.0
N14 N 0.36354 0.38185 0.26801 0.0
C15 C 0.3835 0.36432 0.28794 0.0
C16 C 0.30664 0.2495 0.31742 0.0
O17 O 0.28348 0.23879 0.21165 0.0
O18 O 0.32717 0.27646 0.2239 0.0
O19 O 0.31957 0.27768 0.30939 0.0
O20 O 0.27933 0.23675 0.29665 0.0
O21 O 0.27508 0.31862 0.2972 0.0
H22 H 0.37562 0.31396 0.30163 0.0
H23 H 0.31332 0.36886 0.24031 0.0
O24 O 0.2339 0.27801 0.29202 0.0
O25 O 0.23859 0.27897 0.20716 0.0
O26 O 0.28193 0.31709 0.21186 0.0
C27 C 0.25288 0.30542 0.19491 0.0
H28 H 0.17717 0.16613 0.18338 0.0
H29 H 0.40962 0.37232 0.29791 0.0
Co30 Co 0.77659 0.27916 0.2574 0.0
C31 C 0.79666 0.32679 0.32372 0.0
Co32 Co 0.74366 0.27848 0.30983 0.0
C33 C 0.81728 0.31088 0.19902 0.0
C34 C 0.82487 0.26299 0.20037 0.0
N35 N 0.80594 0.28295 0.21542 0.0
N36 N 0.84346 0.30991 0.17578 0.0
C37 C 0.84816 0.27963 0.17588 0.0
H38 H 0.80775 0.33216 0.20658 0.0
H39 H 0.82348 0.23873 0.2092 0.0
C40 C 0.72414 0.23089 0.24343 0.0
N41 N 0.71401 0.27569 0.35161 0.0
C42 C 0.69888 0.24847 0.36688 0.0
C43 C 0.69728 0.29793 0.36575 0.0
N44 N 0.67285 0.25253 0.38893 0.0
C45 C 0.67141 0.28353 0.38816 0.0
C46 C 0.7266 0.31449 0.242 0.0
O47 O 0.75087 0.24322 0.22778 0.0
O48 O 0.71642 0.24287 0.27842 0.0
O49 O 0.71917 0.30624 0.2793 0.0
O50 O 0.75107 0.30507 0.22641 0.0
O51 O 0.77085 0.31382 0.3409 0.0
H52 H 0.70166 0.32234 0.35698 0.0
H53 H 0.70444 0.22549 0.35787 0.0
O54 O 0.80286 0.31555 0.28755 0.0
O55 O 0.8017 0.25305 0.28794 0.0
O56 O 0.7682 0.25045 0.33985 0.0
C57 C 0.7934 0.24245 0.3238 0.0
H58 H 0.8685 0.27079 0.1623 0.0
H59 H 0.65162 0.29434 0.39983 0.0
Co60 Co 0.76253 0.74919 0.29098 0.0
C61 C 0.81983 0.79609 0.31301 0.0
Co62 Co 0.77659 0.78338 0.24211 0.0
C63 C 0.78116 0.70946 0.35241 0.0
C64 C 0.73437 0.72089 0.36644 0.0
N65 N 0.75576 0.72192 0.33522 0.0
N66 N 0.77762 0.70226 0.39344 0.0
C67 C 0.74813 0.70914 0.40274 0.0
H68 H 0.80453 0.71058 0.33788 0.0
H69 H 0.71261 0.73186 0.36518 0.0
C70 C 0.71938 0.73643 0.21971 0.0
N71 N 0.78474 0.81087 0.19934 0.0
C72 C 0.76158 0.82537 0.18073 0.0
C73 C 0.81225 0.82008 0.17829 0.0
N74 N 0.77327 0.84346 0.14914 0.0
C75 C 0.80512 0.84018 0.14691 0.0
C76 C 0.80491 0.73034 0.23099 0.0
O77 O 0.72455 0.72665 0.25713 0.0
O78 O 0.73858 0.76074 0.20807 0.0
O79 O 0.80278 0.75695 0.21608 0.0
O80 O 0.78962 0.72223 0.26407 0.0
O81 O 0.81456 0.80557 0.27562 0.0
H82 H 0.83572 0.81244 0.18502 0.0
H83 H 0.73617 0.82211 0.18957 0.0
O84 O 0.80047 0.77218 0.32507 0.0
O85 O 0.73594 0.7761 0.31678 0.0
O86 O 0.74987 0.81056 0.26868 0.0
C87 C 0.73435 0.80285 0.3017 0.0
H88 H 0.73912 0.7092 0.43456 0.0
H89 H 0.82192 0.85163 0.12465 0.0
Co90 Co 0.25414 0.79707 0.25084 0.0
C91 C 0.29688 0.82049 0.32327 0.0
Co92 Co 0.29139 0.76822 0.26671 0.0
C93 C 0.18867 0.81003 0.24239 0.0
C94 C 0.22495 0.85185 0.23669 0.0
N95 N 0.2214 0.82029 0.2398 0.0
N96 N 0.17174 0.83407 0.24452 0.0
C97 C 0.19445 0.86039 0.23955 0.0
H98 H 0.17796 0.7857 0.24755 0.0
H99 H 0.24856 0.86793 0.23716 0.0
C100 C 0.24768 0.7445 0.19488 0.0
N101 N 0.32423 0.74544 0.27734 0.0
C102 C 0.3441 0.73862 0.24745 0.0
C103 C 0.33609 0.73445 0.31412 0.0
N104 N 0.36843 0.72446 0.26382 0.0
C105 C 0.36339 0.72114 0.30572 0.0
C106 C 0.23318 0.74507 0.30677 0.0
O107 O 0.23649 0.76967 0.20222 0.0
O108 O 0.27258 0.73936 0.21846 0.0
O109 O 0.26293 0.74105 0.30329 0.0
O110 O 0.22441 0.76849 0.28777 0.0
O111 O 0.30935 0.79617 0.315 0.0
H112 H 0.32602 0.73659 0.34503 0.0
H113 H 0.34075 0.744 0.21397 0.0
O114 O 0.27184 0.82523 0.29974 0.0
O115 O 0.2835 0.82473 0.21492 0.0
O116 O 0.321 0.79603 0.2293 0.0
C117 C 0.31292 0.81987 0.2108 0.0
H118 H 0.19037 0.88448 0.24398 0.0
H119 H 0.37864 0.71054 0.32854 0.0
Co120 Co 0.30044 0.77878 0.70033 0.0
C121 C 0.31936 0.8262 0.76719 0.0
Co122 Co 0.26875 0.77577 0.75438 0.0
C123 C 0.3612 0.79579 0.66082 0.0
C124 C 0.32116 0.77755 0.61368 0.0
N125 N 0.32851 0.78335 0.65642 0.0
N126 N 0.37463 0.79892 0.62264 0.0
C127 C 0.34945 0.78721 0.59278 0.0
H128 H 0.37439 0.80459 0.69148 0.0
H129 H 0.29654 0.76832 0.59857 0.0
C130 C 0.24962 0.7281 0.68806 0.0
N131 N 0.24097 0.76999 0.79802 0.0
C132 C 0.23145 0.74156 0.81407 0.0
C133 C 0.22197 0.78889 0.81552 0.0
N134 N 0.20637 0.74123 0.83962 0.0
C135 C 0.2005 0.77115 0.84123 0.0
C136 C 0.24747 0.81177 0.68986 0.0
O137 O 0.2746 0.74234 0.67047 0.0
O138 O 0.24313 0.73882 0.72439 0.0
O139 O 0.24126 0.80093 0.7263 0.0
O140 O 0.2726 0.80511 0.67201 0.0
O141 O 0.29389 0.81219 0.78411 0.0
H142 H 0.22213 0.81323 0.80781 0.0
H143 H 0.24155 0.72091 0.80491 0.0
O144 O 0.32626 0.81556 0.73092 0.0
O145 O 0.32806 0.75248 0.72896 0.0
O146 O 0.29656 0.75079 0.78272 0.0
C147 C 0.32146 0.74303 0.76609 0.0
H148 H 0.35084 0.78719 0.55824 0.0
H149 H 0.18054 0.77904 0.85703 0.0
Co150 Co 0.26479 0.25349 0.77511 0.0
C151 C 0.32126 0.3009 0.79604 0.0
Co152 Co 0.27742 0.28679 0.72487 0.0
C153 C 0.27715 0.20788 0.83358 0.0
C154 C 0.22904 0.21906 0.84049 0.0
N155 N 0.25625 0.22607 0.81811 0.0
N156 N 0.26417 0.18957 0.86423 0.0
C157 C 0.23406 0.19663 0.8695 0.0
H158 H 0.30182 0.20828 0.82306 0.0
H159 H 0.207 0.22945 0.83594 0.0
C160 C 0.22071 0.23922 0.7042 0.0
N161 N 0.28413 0.31367 0.68058 0.0
C162 C 0.25855 0.32494 0.66181 0.0
C163 C 0.30776 0.31781 0.65216 0.0
N164 N 0.26437 0.33469 0.62239 0.0
C165 C 0.29541 0.33067 0.61581 0.0
C166 C 0.30691 0.23401 0.7154 0.0
O167 O 0.22686 0.2307 0.7419 0.0
O168 O 0.23941 0.26318 0.69108 0.0
O169 O 0.30429 0.26026 0.69953 0.0
O170 O 0.29182 0.2264 0.7488 0.0
O171 O 0.31522 0.3098 0.75833 0.0
H172 H 0.3308 0.3089 0.65546 0.0
H173 H 0.2343 0.3223 0.67437 0.0
O174 O 0.3028 0.27658 0.809 0.0
O175 O 0.23851 0.28017 0.80072 0.0
O176 O 0.25029 0.31386 0.7511 0.0
C177 C 0.23587 0.30643 0.78501 0.0
H178 H 0.217 0.1861 0.89209 0.0
H179 H 0.30694 0.3339 0.58573 0.0
Co180 Co 0.76508 0.28548 0.7476 0.0
C181 C 0.80843 0.30917 0.81986 0.0
Co182 Co 0.80204 0.25636 0.76416 0.0
C183 C 0.71306 0.31701 0.76361 0.0
C184 C 0.72312 0.32033 0.69745 0.0
N185 N 0.7337 0.30957 0.73508 0.0
N186 N 0.68937 0.33119 0.74549 0.0
C187 C 0.69571 0.334 0.70391 0.0
H188 H 0.7151 0.31165 0.79722 0.0
H189 H 0.73387 0.31744 0.66717 0.0
C190 C 0.7588 0.23293 0.69147 0.0
N191 N 0.83257 0.23103 0.77859 0.0
C192 C 0.83996 0.20785 0.75294 0.0
C193 C 0.843 0.22448 0.81886 0.0
N194 N 0.85304 0.18649 0.77551 0.0
C195 C 0.85573 0.19692 0.81699 0.0
C196 C 0.74145 0.23493 0.80272 0.0
O197 O 0.74679 0.25754 0.69937 0.0
O198 O 0.78378 0.22827 0.7151 0.0
O199 O 0.77083 0.22988 0.79909 0.0
O200 O 0.73382 0.25897 0.78432 0.0
O201 O 0.8195 0.28397 0.81261 0.0
H202 H 0.83839 0.23686 0.84809 0.0
H203 H 0.83314 0.20483 0.71864 0.0
O204 O 0.78385 0.31452 0.79587 0.0
O205 O 0.79544 0.31101 0.71158 0.0
O206 O 0.83386 0.28335 0.72827 0.0
C207 C 0.82519 0.30666 0.70858 0.0
H208 H 0.68103 0.34415 0.67989 0.0
H209 H 0.86333 0.18409 0.84397 0.0
Co210 Co 0.76056 0.75543 0.76355 0.0
C211 C 0.75345 0.80798 0.81588 0.0
Co212 Co 0.8045 0.79374 0.76839 0.0
C213 C 0.71953 0.69439 0.77286 0.0
C214 C 0.69424 0.7232 0.73285 0.0
N215 N 0.7231 0.72343 0.7568 0.0
N216 N 0.68994 0.67624 0.75968 0.0
C217 C 0.67386 0.6942 0.73456 0.0
H218 H 0.73802 0.6865 0.79412 0.0
H219 H 0.68796 0.7429 0.71562 0.0
C220 C 0.81191 0.74121 0.71604 0.0
N221 N 0.84263 0.82447 0.77446 0.0
C222 C 0.8475 0.85488 0.76326 0.0
C223 C 0.87325 0.81922 0.78711 0.0
N224 N 0.87994 0.86848 0.7681 0.0
C225 C 0.89615 0.84617 0.78323 0.0
C226 C 0.80755 0.74658 0.82849 0.0
O227 O 0.78249 0.73079 0.72589 0.0
O228 O 0.82574 0.76921 0.72943 0.0
O229 O 0.82228 0.77261 0.8154 0.0
O230 O 0.77852 0.73507 0.81165 0.0
O231 O 0.78314 0.81807 0.80665 0.0
H232 H 0.87899 0.79662 0.79576 0.0
H233 H 0.82815 0.86606 0.74867 0.0
O234 O 0.73883 0.78028 0.80177 0.0
O235 O 0.7431 0.77649 0.71546 0.0
O236 O 0.78635 0.81491 0.72171 0.0
C237 C 0.7576 0.80323 0.70396 0.0
H238 H 0.64859 0.68733 0.72026 0.0
H239 H 0.92292 0.84852 0.788 0.0
Co240 Co 0.0491 0.95491 0.50398 0.0
Co241 Co 0.0703 0.99646 0.56561 0.0
Co242 Co 1.01686 1.0207 0.49922 0.0
O243 O 0.05646 1.00033 0.50895 0.0
H244 H 0.07485 1.01014 0.49346 0.0
O245 O 0.9762 0.03883 0.48929 0.0
Co246 Co 0.96892 0.07603 0.51738 0.0
Co247 Co 0.96643 0.05668 0.44013 0.0
H248 H 0.95735 1.02222 0.49238 0.0
O249 O 0.11378 0.99264 0.58121 0.0
O250 O 0.07041 0.95288 0.56318 0.0
O251 O 0.04094 1.00782 0.60681 0.0
O252 O 0.99992 1.01157 0.55724 0.0
O253 O 0.04486 0.06099 0.52446 0.0
O254 O 0.95742 0.10795 0.54625 0.0
O255 O 0.92699 0.0597 0.5254 0.0
O256 O 1.01318 0.09736 0.51408 0.0
O257 O 0.03355 0.03099 0.44088 0.0
O258 O 1.00154 0.05947 0.40353 0.0
O259 O 0.95626 0.09416 0.46177 0.0
O260 O 0.92304 0.05646 0.41818 0.0
C261 C 0.07198 0.92299 0.47643 0.0
C262 C 0.98474 0.95532 0.49559 0.0
C263 C 1.01106 1.01049 0.59642 0.0
C264 C 0.10174 0.96245 0.57644 0.0
C265 C 0.93062 0.08656 0.54749 0.0
C266 C 0.04121 0.08978 0.52394 0.0
C267 C 0.02701 0.04647 0.40796 0.0
C268 C 0.9289 0.08472 0.43705 0.0
O269 O 0.04503 0.91388 0.4954 0.0
O270 O 0.08707 0.95257 0.48034 0.0
O271 O 0.98957 0.98021 0.47454 0.0
O272 O 1.00654 0.95131 0.52491 0.0
Co273 Co 0.56697 0.96652 0.97055 0.0
Co274 Co 0.56429 0.97735 0.05277 0.0
Co275 Co 0.52648 0.02566 1.00277 0.0
O276 O 0.56537 1.00378 1.00715 0.0
H277 H 0.58621 1.01864 0.00934 0.0
O278 O 0.48754 0.04724 0.99839 0.0
Co279 Co 0.48628 0.08598 0.03139 0.0
Co280 Co 0.48878 0.07112 0.94994 0.0
H281 H 0.46671 0.03243 0.9973 0.0
O282 O 0.60446 0.97344 0.07822 0.0
O283 O 0.57432 0.9433 0.02261 0.0
O284 O 0.52362 0.96508 0.0803 0.0
O285 O 0.49488 0.99324 0.0385 0.0
O286 O 0.54524 0.05268 0.0554 0.0
O287 O 0.48214 0.12138 0.0613 0.0
O288 O 0.44172 0.07978 0.03984 0.0
O289 O 0.53283 0.09702 0.02992 0.0
O290 O 0.5583 0.05812 0.96748 0.0
O291 O 0.52932 0.08356 0.92231 0.0
O292 O 0.47766 0.1059 0.97642 0.0
O293 O 0.44897 0.07233 0.9226 0.0
C294 C 0.6029 0.94653 0.94067 0.0
C295 C 0.50117 0.96914 0.94949 0.0
C296 C 0.4961 0.97241 0.06752 0.0
C297 C 0.6013 0.9507 0.0485 0.0
C298 C 0.45109 0.10778 0.05973 0.0
C299 C 0.55073 0.08292 0.05489 0.0
C300 C 0.55705 0.07787 0.93713 0.0
C301 C 0.45104 0.09624 0.95027 0.0
O302 O 0.57167 0.93322 0.93702 0.0
O303 O 0.61189 0.97337 0.96367 0.0
O304 O 0.50741 0.99931 0.94966 0.0
O305 O 0.52039 0.95429 0.97101 0.0
Co306 Co 0.06862 0.46298 0.98071 0.0
Co307 Co 0.07914 0.48416 0.05828 0.0
Co308 Co 0.02824 0.52453 0.01098 0.0
O309 O 0.06906 0.50409 0.00917 0.0
H310 H 0.0883 0.51929 1.00289 0.0
O311 O 0.98725 0.54462 0.01282 0.0
Co312 Co 0.98613 0.58479 0.04259 0.0
Co313 Co 0.97699 0.56494 0.96437 0.0
H314 H 0.96809 0.52901 0.01825 0.0
O315 O 0.12181 0.48278 0.07729 0.0
O316 O 0.08582 0.44517 0.03574 0.0
O317 O 0.04528 0.47672 0.09733 0.0
O318 O 1.00928 0.49978 0.05915 0.0
O319 O 0.055 0.55859 0.05161 0.0
O320 O 0.9819 0.61982 0.07248 0.0
O321 O 0.94327 0.5757 0.05753 0.0
O322 O 0.03174 0.59977 0.03307 0.0
O323 O 0.04719 0.54934 0.9627 0.0
O324 O 1.01081 0.57265 0.92551 0.0
O325 O 0.97003 0.60352 0.98785 0.0
O326 O 0.93428 0.56642 0.94532 0.0
C327 C 0.10085 0.44191 0.94607 0.0
C328 C 0.99908 0.46081 0.97501 0.0
C329 C 1.01651 0.48312 0.09007 0.0
C330 C 0.11376 0.45403 0.06019 0.0
C331 C 0.95212 0.60411 0.07632 0.0
C332 C 0.05658 0.58839 0.04825 0.0
C333 C 0.0396 0.56612 0.93206 0.0
C334 C 0.94227 0.59499 0.96303 0.0
O335 O 0.07108 0.4271 0.95192 0.0
O336 O 0.11101 0.47058 0.96362 0.0
O337 O 1.00152 0.49054 0.97033 0.0
O338 O 1.02317 0.44934 0.99227 0.0
Co339 Co 0.55156 0.4572 0.99725 0.0
Co340 Co 0.57084 0.49337 0.06302 0.0
Co341 Co 0.52017 0.52397 1.00116 0.0
O342 O 0.55816 0.50138 0.00845 0.0
H343 H 0.57732 0.5124 0.99539 0.0
O344 O 0.48257 0.54717 0.99363 0.0
Co345 Co 0.4907 0.59196 1.00308 0.0
Co346 Co 0.46988 0.55433 0.9382 0.0
H347 H 0.46343 0.53693 0.00745 0.0
O348 O 0.6134 0.48935 0.07941 0.0
O349 O 0.57015 0.44997 0.05709 0.0
O350 O 0.54187 0.50211 0.10475 0.0
O351 O 0.50147 0.51163 0.05778 0.0
O352 O 0.54957 0.56152 0.03089 0.0
O353 O 0.4951 0.63249 0.01627 0.0
O354 O 0.45132 0.59313 0.02297 0.0
O355 O 0.53489 0.59608 0.98679 0.0
O356 O 0.53885 0.53636 0.94468 0.0
O357 O 0.49818 0.54344 0.8965 0.0
O358 O 0.47326 0.59831 0.94263 0.0
O359 O 0.42802 0.56105 0.9213 0.0
C360 C 0.5764 0.42861 0.96684 0.0
C361 C 0.48632 0.45855 0.9867 0.0
C362 C 0.51243 0.50641 0.09579 0.0
C363 C 0.60039 0.45933 0.07527 0.0
C364 C 0.46702 0.62208 0.03212 0.0
C365 C 0.55536 0.58873 0.01554 0.0
C366 C 0.52792 0.5403 0.90617 0.0
C367 C 0.4428 0.59059 0.92481 0.0
O368 O 0.54837 0.41694 0.98203 0.0
O369 O 0.59092 0.45782 0.97671 0.0
O370 O 0.49074 0.486 0.97172 0.0
O371 O 0.5077 0.45164 0.01462 0.0
Co372 Co 0.08064 0.47454 0.51362 0.0
Co373 Co 0.07447 0.49263 0.43985 0.0
Co374 Co 0.02703 0.52542 0.50435 0.0
O375 O 0.0452 0.48821 0.48156 0.0
H376 H 0.02736 0.47059 0.47322 0.0
O377 O 1.00886 0.56276 0.52703 0.0
Co378 Co 0.97244 0.57598 0.49639 0.0
Co379 Co 0.98069 0.55807 0.56998 0.0
H380 H 0.0266 0.5806 0.53456 0.0
O381 O 0.0743 0.45952 0.39972 0.0
O382 O 0.10734 0.47113 0.46143 0.0
O383 O 0.08931 0.53592 0.42618 0.0
O384 O 0.05663 0.55905 0.46756 0.0
O385 O 0.99146 0.515 0.45634 0.0
O386 O 0.94191 0.59144 0.46664 0.0
O387 O 0.98907 0.61788 0.50308 0.0
O388 O 0.95054 0.53365 0.48507 0.0
O389 O 0.99769 0.49171 0.54122 0.0
O390 O 0.96664 0.51503 0.58463 0.0
O391 O 0.94672 0.5785 0.54965 0.0
O392 O 0.9812 0.591 0.61011 0.0
C393 C 0.08939 0.43249 0.53261 0.0
C394 C 0.0931 0.53778 0.54738 0.0
C395 C 0.07954 0.5607 0.44006 0.0
C396 C 0.09935 0.45443 0.42471 0.0
C397 C 0.96211 0.61784 0.47827 0.0
C398 C 0.96074 0.51289 0.46205 0.0
C399 C 0.97575 0.49017 0.56996 0.0
C400 C 0.9551 0.59513 0.58637 0.0
O401 O 0.11008 0.45853 0.54465 0.0
O402 O 0.06305 0.43301 0.50691 0.0
O403 O 0.06234 0.53577 0.55253 0.0
O404 O 0.10342 0.51674 0.52502 0.0
Co405 Co 0.59731 0.98289 0.52761 0.0
Co406 Co 0.57186 0.987 0.45366 0.0
Co407 Co 0.52782 0.02344 0.51341 0.0
O408 O 0.55211 0.98657 0.50466 0.0
H409 H 0.53708 0.96657 0.50598 0.0
O410 O 0.50386 0.06061 0.52229 0.0
Co411 Co 0.45997 0.06574 0.4965 0.0
Co412 Co 0.48213 0.05885 0.57168 0.0
H413 H 0.51935 0.08051 0.52342 0.0
O414 O 0.56934 0.94969 0.4221 0.0
O415 O 0.61201 0.97493 0.46822 0.0
O416 O 0.57548 0.02665 0.4267 0.0
O417 O 0.5283 0.03537 0.45169 0.0
O418 O 0.48524 0.99261 0.49787 0.0
O419 O 0.42174 0.0745 0.47194 0.0
O420 O 0.46893 0.10895 0.49232 0.0
O421 O 0.44435 1.02097 0.49498 0.0
O422 O 0.52691 1.0115 0.57516 0.0
O423 O 0.47822 1.01856 0.59688 0.0
O424 O 0.4423 0.07067 0.55464 0.0
O425 O 0.4825 0.09533 0.6045 0.0
C426 C 0.62037 0.94659 0.55081 0.0
C427 C 0.60132 0.05348 0.52965 0.0
C428 C 0.55268 0.04299 0.42854 0.0
C429 C 0.59965 0.95203 0.43916 0.0
C430 C 0.43838 0.10341 0.47464 0.0
C431 C 0.45445 0.99456 0.49335 0.0
C432 C 0.50152 1.00271 0.59624 0.0
C433 C 0.45284 0.09282 0.58528 0.0
O434 O 0.63671 0.97547 0.55018 0.0
O435 O 0.58916 0.94017 0.53564 0.0
O436 O 0.57028 0.05421 0.52903 0.0
O437 O 0.61254 0.02778 0.52491 0.0
C438 C 0.15646 0.16022 0.31035 0.0
C439 C 0.17005 0.15388 0.27177 0.0
C440 C 0.13549 0.13638 0.32951 0.0
C441 C 0.12828 0.10537 0.30969 0.0
C442 C 0.14329 0.09839 0.27189 0.0
C443 C 0.16383 0.12292 0.25306 0.0
C444 C 0.11982 0.14481 0.36985 0.0
C445 C 0.13677 0.06544 0.25054 0.0
C446 C 0.08506 0.05 0.38662 0.0
C447 C 0.05197 0.05298 0.37614 0.0
C448 C 0.11047 0.06415 0.36206 0.0
C449 C 0.10234 0.08161 0.32663 0.0
C450 C 0.06866 0.08125 0.31292 0.0
C451 C 0.04381 0.06679 0.33782 0.0
C452 C 0.14612 0.06322 0.37677 0.0
C453 C 0.05894 0.09929 0.27493 0.0
H454 H 0.16117 0.1842 0.3246 0.0
H455 H 0.17493 0.11795 0.22361 0.0
H456 H 0.09244 0.14153 0.36313 0.0
H457 H 0.12482 0.12889 0.39564 0.0
H458 H 0.12924 0.16971 0.38209 0.0
H459 H 0.15505 0.06266 0.22667 0.0
H460 H 0.13759 0.04739 0.27485 0.0
H461 H 0.11153 0.06051 0.23355 0.0
H462 H 0.09153 0.03887 0.41582 0.0
H463 H 1.01815 0.0684 0.32891 0.0
H464 H 0.15716 0.0855 0.39581 0.0
H465 H 0.16116 0.06136 0.34887 0.0
H466 H 0.14791 0.04304 0.39743 0.0
H467 H 0.06487 0.12509 0.28384 0.0
H468 H 0.03196 0.09278 0.26476 0.0
H469 H 0.07319 0.09489 0.24709 0.0
C470 C 0.84147 0.21383 0.3282 0.0
C471 C 0.81256 0.22038 0.34545 0.0
C472 C 0.85933 0.19208 0.34658 0.0
C473 C 0.84811 0.17621 0.38321 0.0
C474 C 0.81924 0.18301 0.40129 0.0
C475 C 0.80182 0.20505 0.38224 0.0
C476 C 0.89002 0.1857 0.32627 0.0
C477 C 0.80641 0.1666 0.44027 0.0
C478 C 0.87815 0.09816 0.39749 0.0
C479 C 0.90609 0.10725 0.42703 0.0
C480 C 0.85818 0.12001 0.38449 0.0
C481 C 0.86625 0.15184 0.40135 0.0
C482 C 0.8935 0.16082 0.43267 0.0
C483 C 0.91305 0.13846 0.44514 0.0
C484 C 0.82926 0.10931 0.35125 0.0
C485 C 0.90293 0.19442 0.45164 0.0
H486 H 0.85011 0.22555 0.29989 0.0
H487 H 0.77951 0.20987 0.39579 0.0
H488 H 0.91171 0.19017 0.35053 0.0
H489 H 0.88635 0.16044 0.31472 0.0
H490 H 0.89602 0.20067 0.29865 0.0
H491 H 0.78445 0.1754 0.45153 0.0
H492 H 0.79933 0.14071 0.4325 0.0
H493 H 0.82625 0.17012 0.46706 0.0
H494 H 0.87232 0.0741 0.38349 0.0
H495 H 0.93437 0.14573 0.46827 0.0
H496 H 0.83447 0.12116 0.32086 0.0
H497 H 0.80636 0.11625 0.3624 0.0
H498 H 0.82445 0.08326 0.34416 0.0
H499 H 0.91226 0.21037 0.42633 0.0
H500 H 0.92253 0.19686 0.4787 0.0
H501 H 0.88085 0.20262 0.46342 0.0
C502 C 0.87484 0.83193 0.32949 0.0
C503 C 0.84586 0.81445 0.34385 0.0
C504 C 0.8982 0.8517 0.35839 0.0
C505 C 0.89182 0.85471 0.40234 0.0
C506 C 0.86306 0.8363 0.41718 0.0
C507 C 0.84053 0.81619 0.38776 0.0
C508 C 0.9291 0.87028 0.3416 0.0
C509 C 0.85502 0.83918 0.46354 0.0
C510 C 0.96277 0.89715 0.48074 0.0
C511 C 0.95839 0.92869 0.47837 0.0
C512 C 0.94101 0.87253 0.45667 0.0
C513 C 0.91343 0.87954 0.43144 0.0
C514 C 0.90743 0.91098 0.43192 0.0
C515 C 0.93025 0.93521 0.45484 0.0
C516 C 0.94849 0.83938 0.45646 0.0
C517 C 0.87768 0.91931 0.40665 0.0
H518 H 0.87903 0.83042 0.29557 0.0
H519 H 0.81786 0.803 0.3988 0.0
H520 H 0.92781 0.89587 0.34286 0.0
H521 H 0.95152 0.86749 0.36213 0.0
H522 H 0.93215 0.86269 0.30783 0.0
H523 H 0.83401 0.82047 0.47096 0.0
H524 H 0.87699 0.83775 0.48571 0.0
H525 H 0.8482 0.86266 0.47017 0.0
H526 H 0.98409 0.89185 0.49951 0.0
H527 H 0.92652 0.95952 0.45347 0.0
H528 H 0.9525 0.83143 0.42322 0.0
H529 H 0.92702 0.82264 0.46689 0.0
H530 H 0.97091 0.83786 0.47788 0.0
H531 H 0.88035 0.91613 0.37165 0.0
H532 H 0.87484 0.94417 0.41389 0.0
H533 H 0.85457 0.90324 0.41385 0.0
C534 C 0.12477 0.85838 0.26392 0.0
C535 C 0.14308 0.83406 0.2685 0.0
C536 C 0.10594 0.86642 0.29699 0.0
C537 C 0.10592 0.84979 0.33525 0.0
C538 C 0.12001 0.82222 0.33714 0.0
C539 C 0.1383 0.8145 0.30345 0.0
C540 C 0.08968 0.89511 0.29318 0.0
C541 C 0.11993 0.80347 0.37707 0.0
C542 C 0.11493 0.90575 0.43354 0.0
C543 C 0.08249 0.90055 0.44608 0.0
C544 C 0.12321 0.88793 0.39874 0.0
C545 C 0.09811 0.86512 0.37552 0.0
C546 C 0.06571 0.85868 0.38948 0.0
C547 C 0.05836 0.87631 0.42503 0.0
C548 C 0.15845 0.89465 0.38554 0.0
C549 C 0.03815 0.83499 0.36527 0.0
H550 H 0.12779 0.87296 0.23641 0.0
H551 H 0.15198 0.79538 0.30734 0.0
H552 H 0.06511 0.89095 0.30685 0.0
H553 H 0.10556 0.91564 0.31171 0.0
H554 H 0.08629 0.9014 0.25914 0.0
H555 H 0.12545 0.77946 0.37015 0.0
H556 H 0.13929 0.8162 0.40152 0.0
H557 H 0.09565 0.80101 0.39136 0.0
H558 H 0.13351 0.92438 0.45006 0.0
H559 H 0.03304 0.87249 0.43445 0.0
H560 H 0.15885 0.90545 0.35382 0.0
H561 H 0.16817 0.87227 0.38204 0.0
H562 H 0.17547 0.91106 0.40923 0.0
H563 H 0.02837 0.84609 0.33677 0.0
H564 H 1.01722 0.82745 0.38555 0.0
H565 H 0.04727 0.81367 0.35344 0.0
C566 C 0.22991 0.84284 0.62785 0.0
C567 C 0.22572 0.83233 0.66952 0.0
C568 C 0.20959 0.86277 0.60929 0.0
C569 C 0.18467 0.87271 0.63305 0.0
C570 C 0.18017 0.86187 0.67489 0.0
C571 C 0.20055 0.84183 0.69244 0.0
C572 C 0.21504 0.87352 0.56445 0.0
C573 C 0.15418 0.87199 0.70162 0.0
C574 C 0.15504 0.94997 0.61006 0.0
C575 C 0.12333 0.93926 0.58889 0.0
C576 C 0.17546 0.92864 0.62359 0.0
C577 C 0.16426 0.89562 0.61539 0.0
C578 C 0.1327 0.88465 0.59289 0.0
C579 C 0.11253 0.90653 0.58026 0.0
C580 C 0.20872 0.94148 0.64781 0.0
C581 C 0.11992 0.84971 0.58292 0.0
H582 H 0.24914 0.83558 0.60975 0.0
H583 H 0.19698 0.83393 0.72464 0.0
H584 H 0.19137 0.86779 0.54373 0.0
H585 H 0.22322 0.89962 0.56561 0.0
H586 H 0.23405 0.8623 0.54923 0.0
H587 H 0.15325 0.86089 0.73318 0.0
H588 H 0.15952 0.89812 0.70757 0.0
H589 H 0.12926 0.86559 0.68392 0.0
H590 H 0.16378 0.97515 0.61695 0.0
H591 H 0.0882 0.89792 0.5638 0.0
H592 H 0.22884 0.93264 0.63181 0.0
H593 H 0.2089 0.93294 0.68093 0.0
H594 H 0.21446 0.9678 0.65005 0.0
H595 H 0.13873 0.83885 0.56679 0.0
H596 H 0.09632 0.84516 0.56193 0.0
H597 H 0.11557 0.83766 0.61334 0.0
C598 C 0.16894 0.19799 0.6911 0.0
C599 C 0.19364 0.22033 0.67488 0.0
C600 C 0.14436 0.17861 0.66332 0.0
C601 C 0.1446 0.18147 0.61819 0.0
C602 C 0.16917 0.20433 0.60168 0.0
C603 C 0.19343 0.22342 0.63023 0.0
C604 C 0.1184 0.15469 0.68225 0.0
C605 C 0.17039 0.20809 0.55384 0.0
C606 C 0.10084 0.10765 0.55185 0.0
C607 C 0.06929 0.11496 0.54168 0.0
C608 C 0.12613 0.12968 0.57497 0.0
C609 C 0.1197 0.15971 0.58851 0.0
C610 C 0.08858 0.16791 0.5763 0.0
C611 C 0.06379 0.1455 0.55291 0.0
C612 C 0.1592 0.12021 0.5867 0.0
C613 C 0.08082 0.19974 0.58994 0.0
H614 H 0.16897 0.19547 0.72556 0.0
H615 H 0.21288 0.24011 0.61744 0.0
H616 H 0.09313 0.15831 0.6711 0.0
H617 H 0.12056 0.13037 0.67094 0.0
H618 H 0.12089 0.15628 0.71803 0.0
H619 H 0.1897 0.22839 0.5464 0.0
H620 H 0.17576 0.18614 0.53809 0.0
H621 H 0.14592 0.21167 0.5394 0.0
H622 H 0.1055 0.08427 0.54304 0.0
H623 H 0.03957 0.1515 0.54522 0.0
H624 H 0.1624 0.11808 0.62204 0.0
H625 H 0.17987 0.13869 0.57797 0.0
H626 H 0.16131 0.09724 0.57043 0.0
H627 H 0.0798 0.20142 0.62543 0.0
H628 H 0.05668 0.20356 0.5746 0.0
H629 H 0.10074 0.21916 0.58169 0.0
C630 C 0.82886 0.13834 0.73241 0.0
C631 C 0.85578 0.15592 0.75833 0.0
C632 C 0.83407 0.11597 0.70114 0.0
C633 C 0.8669 0.11168 0.69619 0.0
C634 C 0.89276 0.12467 0.72797 0.0
C635 C 0.88691 0.14719 0.75883 0.0
C636 C 0.80548 0.10107 0.66942 0.0
C637 C 0.92766 0.11862 0.72522 0.0
C638 C 0.894 0.06612 0.6033 0.0
C639 C 0.90661 0.09123 0.57831 0.0
C640 C 0.87892 0.0718 0.64099 0.0
C641 C 0.87603 0.10319 0.65294 0.0
C642 C 0.88554 0.12799 0.62508 0.0
C643 C 0.90124 0.12172 0.58826 0.0
C644 C 0.86893 0.04453 0.66914 0.0
C645 C 0.88155 0.16169 0.63572 0.0
H646 H 0.80451 0.14474 0.73331 0.0
H647 H 0.90739 0.16053 0.77972 0.0
H648 H 0.80341 0.11707 0.64269 0.0
H649 H 0.80921 0.07788 0.65555 0.0
H650 H 0.78168 0.09758 0.68502 0.0
H651 H 0.94286 0.12487 0.75635 0.0
H652 H 0.92729 0.09336 0.71576 0.0
H653 H 0.93982 0.13327 0.70024 0.0
H654 H 0.89842 0.04248 0.5955 0.0
H655 H 0.91083 0.14092 0.56843 0.0
H656 H 0.85202 0.04974 0.69361 0.0
H657 H 0.89167 0.03874 0.68594 0.0
H658 H 0.85652 0.02316 0.64902 0.0
H659 H 0.8557 0.16232 0.64354 0.0
H660 H 0.88743 0.17731 0.60871 0.0
H661 H 0.89841 0.1716 0.66438 0.0
C662 C 0.91916 0.89407 0.71966 0.0
C663 C 0.89507 0.8964 0.74848 0.0
C664 C 0.93436 0.92055 0.69941 0.0
C665 C 0.92573 0.95043 0.70904 0.0
C666 C 0.90142 0.95303 0.73846 0.0
C667 C 0.88583 0.92565 0.75734 0.0
C668 C 0.9596 0.91631 0.66753 0.0
C669 C 0.8914 0.98427 0.74973 0.0
C670 C 0.99753 1.00572 0.67311 0.0
C671 C 0.98677 1.00623 0.62949 0.0
C672 C 0.9755 0.99217 0.70247 0.0
C673 C 0.94261 0.97812 0.68726 0.0
C674 C 0.93037 0.98343 0.64519 0.0
C675 C 0.95265 0.99777 0.61673 0.0
C676 C 0.98868 0.98884 0.74812 0.0
C677 C 0.8952 0.96952 0.62805 0.0
H678 H 0.92563 0.87116 0.71241 0.0
H679 H 0.86691 0.92712 0.77954 0.0
H680 H 0.95228 0.92502 0.6359 0.0
H681 H 0.98431 0.93034 0.67916 0.0
H682 H 0.96221 0.89116 0.6625 0.0
H683 H 0.88305 0.98483 0.78284 0.0
H684 H 0.91199 1.00464 0.7473 0.0
H685 H 0.87018 0.98729 0.72716 0.0
H686 H 1.02361 1.01347 0.68365 0.0
H687 H 0.94379 0.99914 0.58337 0.0
H688 H 0.99556 0.96512 0.75076 0.0
H689 H 0.96943 0.9908 0.77088 0.0
H690 H 1.01115 1.00709 0.75778 0.0
H691 H 0.89371 0.94414 0.61819 0.0
H692 H 0.88731 0.98179 0.59951 0.0
H693 H 0.87757 0.97087 0.65313 0.0
C694 C 0.36792 0.23456 0.18731 0.0
C695 C 0.33307 0.22952 0.18148 0.0
C696 C 0.38607 0.21332 0.16843 0.0
C697 C 0.3692 0.18684 0.14174 0.0
C698 C 0.33395 0.18169 0.1359 0.0
C699 C 0.31648 0.20288 0.15592 0.0
C700 C 0.42325 0.21847 0.1787 0.0
C701 C 0.31385 0.15331 0.11006 0.0
C702 C 0.42315 0.15473 0.06164 0.0
C703 C 0.42702 0.12564 0.07813 0.0
C704 C 0.4033 0.17405 0.08085 0.0
C705 C 0.38854 0.16519 0.11939 0.0
C706 C 0.39263 0.13582 0.13643 0.0
C707 C 0.41124 0.11611 0.11509 0.0
C708 C 0.39855 0.20418 0.05999 0.0
C709 C 0.37801 0.12553 0.17774 0.0
H710 H 0.38099 0.25448 0.208 0.0
H711 H 0.28953 0.19825 0.1518 0.0
H712 H 0.43047 0.19642 0.19043 0.0
H713 H 0.43622 0.22417 0.14924 0.0
H714 H 0.43219 0.23804 0.20353 0.0
H715 H 0.29287 0.16036 0.09066 0.0
H716 H 0.32873 0.14148 0.08843 0.0
H717 H 0.30274 0.1358 0.13257 0.0
H718 H 0.43599 0.16258 0.03374 0.0
H719 H 0.41474 0.09394 0.12845 0.0
H720 H 0.41394 0.22489 0.0786 0.0
H721 H 0.37221 0.20716 0.05969 0.0
H722 H 0.406 0.20451 0.02644 0.0
H723 H 0.3838 0.14524 0.20289 0.0
H724 H 0.38744 0.10468 0.19012 0.0
H725 H 0.35056 0.11915 0.1721 0.0
C726 C 0.86813 0.36664 0.18498 0.0
C727 C 0.86567 0.33707 0.1627 0.0
C728 C 0.89058 0.39308 0.1744 0.0
C729 C 0.91159 0.38977 0.14132 0.0
C730 C 0.90881 0.36037 0.11778 0.0
C731 C 0.88581 0.33423 0.12886 0.0
C732 C 0.89239 0.42435 0.19939 0.0
C733 C 0.9305 0.35645 0.08148 0.0
C734 C 0.95613 0.46241 0.09181 0.0
C735 C 0.98867 0.46459 0.11067 0.0
C736 C 0.9305 0.43849 0.1021 0.0
C737 C 0.9375 0.4168 0.1327 0.0
C738 C 0.9695 0.42052 0.15463 0.0
C739 C 0.99484 0.4444 0.14321 0.0
C740 C 0.89661 0.43524 0.0781 0.0
C741 C 0.9774 0.39818 0.18839 0.0
H742 H 0.85324 0.36914 0.21172 0.0
H743 H 0.88366 0.31158 0.11128 0.0
H744 H 0.91632 0.43028 0.21953 0.0
H745 H 0.89161 0.44373 0.17714 0.0
H746 H 0.87169 0.4238 0.22065 0.0
H747 H 0.92416 0.3324 0.06514 0.0
H748 H 0.9279 0.37421 0.05722 0.0
H749 H 0.95699 0.36073 0.09418 0.0
H750 H 0.95101 0.47796 0.06669 0.0
H751 H 1.01986 0.44612 0.15811 0.0
H752 H 0.89395 0.45668 0.06042 0.0
H753 H 0.8766 0.4308 0.10043 0.0
H754 H 0.89281 0.41465 0.0544 0.0
H755 H 0.95944 0.39702 0.21353 0.0
H756 H 1.00298 0.40546 0.20413 0.0
H757 H 0.97495 0.37393 0.17332 0.0
C758 C 0.73089 0.8763 0.14375 0.0
C759 C 0.75425 0.86188 0.12392 0.0
C760 C 0.7082 0.89027 0.11962 0.0
C761 C 0.70935 0.89042 0.0743 0.0
C762 C 0.73383 0.87696 0.05409 0.0
C763 C 0.75626 0.8629 0.07938 0.0
C764 C 0.68256 0.90426 0.14288 0.0
C765 C 0.73669 0.87717 1.0062 0.0
C766 C 0.62516 0.9023 0.03436 0.0
C767 C 0.62968 0.93508 0.04258 0.0
C768 C 0.65251 0.88691 0.03812 0.0
C769 C 0.68459 0.90509 0.04964 0.0
C770 C 0.68956 0.93848 0.05031 0.0
C771 C 0.66184 0.95318 0.04788 0.0
C772 C 0.64639 0.85119 0.03579 0.0
C773 C 0.72369 0.95863 0.05938 0.0
H774 H 0.72993 0.87593 0.17839 0.0
H775 H 0.77444 0.85165 0.06422 0.0
H776 H 0.68614 0.93016 0.13886 0.0
H777 H 0.65713 0.89357 0.12907 0.0
H778 H 0.68411 0.9004 0.17794 0.0
H779 H 0.75604 0.8976 0.99948 0.0
H780 H 0.74466 0.8553 0.99398 0.0
H781 H 0.71303 0.87935 0.98817 0.0
H782 H 0.6002 0.88849 0.02888 0.0
H783 H 0.66528 0.97878 0.05215 0.0
H784 H 0.64304 0.84274 0.06864 0.0
H785 H 0.66777 0.84205 0.02348 0.0
H786 H 0.62354 0.84114 0.01484 0.0
H787 H 0.72987 0.9617 0.09473 0.0
H788 H 0.72467 0.9825 0.04657 0.0
H789 H 0.74288 0.94718 0.04506 0.0
C790 C 0.21639 0.68928 0.18285 0.0
C791 C 0.22714 0.71889 0.16625 0.0
C792 C 0.19056 0.66695 0.16105 0.0
C793 C 0.17597 0.67387 0.12076 0.0
C794 C 0.18855 0.70284 0.10238 0.0
C795 C 0.21336 0.72536 0.12588 0.0
C796 C 0.17725 0.63701 0.18275 0.0
C797 C 0.17473 0.71066 0.05877 0.0
C798 C 0.11874 0.60478 0.0566 0.0
C799 C 0.08722 0.61059 0.06519 0.0
C800 C 0.14789 0.62571 0.07316 0.0
C801 C 0.14544 0.65239 0.10029 0.0
C802 C 0.11353 0.65815 0.10912 0.0
C803 C 0.08487 0.63756 0.09079 0.0
C804 C 0.18126 0.61938 0.06148 0.0
C805 C 0.1096 0.68565 0.13889 0.0
H806 H 0.22641 0.68454 0.21455 0.0
H807 H 0.22143 0.74837 0.11319 0.0
H808 H 0.1515 0.63753 0.19121 0.0
H809 H 0.17611 0.61592 0.16058 0.0
H810 H 0.19262 0.63418 0.21265 0.0
H811 H 0.17294 0.69024 0.03517 0.0
H812 H 0.14925 0.71554 0.06104 0.0
H813 H 0.19029 0.73175 0.0463 0.0
H814 H 0.12057 0.58411 0.03639 0.0
H815 H 0.0605 0.64197 0.09766 0.0
H816 H 0.19708 0.61682 0.091 0.0
H817 H 0.19431 0.63983 0.04492 0.0
H818 H 0.17896 0.59763 0.04009 0.0
H819 H 0.12283 0.68411 0.17084 0.0
H820 H 0.08311 0.68628 0.14351 0.0
H821 H 0.12096 0.70834 0.12582 0.0
C822 C 0.37341 0.86425 0.77585 0.0
C823 C 0.34248 0.85257 0.79123 0.0
C824 C 0.39763 0.88582 0.80118 0.0
C825 C 0.39045 0.89645 0.84245 0.0
C826 C 0.35859 0.88625 0.85707 0.0
C827 C 0.33499 0.86428 0.83134 0.0
C828 C 0.43135 0.89616 0.78443 0.0
C829 C 0.35001 0.89724 0.90083 0.0
C830 C 0.46449 0.91783 0.92456 0.0
C831 C 0.47163 0.95097 0.9238 0.0
C832 C 0.43766 0.89995 0.89891 0.0
C833 C 0.41737 0.91557 0.87188 0.0
C834 C 0.42379 0.94905 0.87178 0.0
C835 C 0.45091 0.9664 0.89778 0.0
C836 C 0.43166 0.86423 0.89978 0.0
C837 C 0.40247 0.96645 0.84359 0.0
H838 H 0.3793 0.85553 0.74473 0.0
H839 H 0.31103 0.85554 0.8433 0.0
H840 H 0.43519 0.92184 0.77879 0.0
H841 H 0.4514 0.89245 0.80843 0.0
H842 H 0.43396 0.88299 0.75387 0.0
H843 H 0.3231 0.89011 0.90528 0.0
H844 H 0.36435 0.88691 0.92631 0.0
H845 H 0.35702 0.9234 0.90554 0.0
H846 H 0.48019 0.90569 0.94477 0.0
H847 H 0.45613 0.99203 0.89722 0.0
H848 H 0.43453 0.85375 0.86742 0.0
H849 H 0.40586 0.85515 0.90777 0.0
H850 H 0.44913 0.85583 0.92358 0.0
H851 H 0.40549 0.96078 0.80921 0.0
H852 H 0.40907 0.99256 0.84988 0.0
H853 H 0.37582 0.9586 0.84879 0.0
C854 C 0.20875 0.35471 0.78725 0.0
C855 C 0.21761 0.3285 0.80745 0.0
C856 C 0.19142 0.37546 0.80864 0.0
C857 C 0.18314 0.3702 0.85152 0.0
C858 C 0.1927 0.34416 0.87228 0.0
C859 C 0.20954 0.3236 0.84999 0.0
C860 C 0.18136 0.40263 0.78504 0.0
C861 C 0.18482 0.33777 0.91803 0.0
C862 C 0.15715 0.43502 0.92273 0.0
C863 C 0.12248 0.4253 0.92026 0.0
C864 C 0.17728 0.41776 0.89994 0.0
C865 C 0.16238 0.39032 0.87375 0.0
C866 C 0.12735 0.38097 0.87043 0.0
C867 C 0.10797 0.39839 0.89376 0.0
C868 C 0.21454 0.42838 0.90476 0.0
C869 C 0.11025 0.35206 0.84289 0.0
H870 H 0.21491 0.35875 0.75444 0.0
H871 H 0.21659 0.30368 0.86616 0.0
H872 H 0.191 0.42534 0.80381 0.0
H873 H 0.19066 0.40422 0.75243 0.0
H874 H 0.15384 0.39971 0.78166 0.0
H875 H 0.19486 0.31715 0.93012 0.0
H876 H 0.19538 0.35893 0.93956 0.0
H877 H 0.15749 0.33315 0.92013 0.0
H878 H 0.16861 0.45563 0.94327 0.0
H879 H 0.0812 0.39071 0.89131 0.0
H880 H 0.22441 0.43103 0.87262 0.0
H881 H 0.22621 0.4101 0.92082 0.0
H882 H 0.22219 0.45121 0.92401 0.0
H883 H 0.11786 0.35379 0.80949 0.0
H884 H 0.08271 0.34894 0.84183 0.0
H885 H 0.11788 0.33053 0.85573 0.0
C886 C 0.72142 0.18109 0.83426 0.0
C887 C 0.71613 0.21191 0.82571 0.0
C888 C 0.69753 0.15857 0.8534 0.0
C889 C 0.66717 0.16657 0.86582 0.0
C890 C 0.662 0.1979 0.85809 0.0
C891 C 0.686 0.21975 0.83794 0.0
C892 C 0.70453 0.12568 0.85929 0.0
C893 C 0.63082 0.20844 0.87106 0.0
C894 C 0.58835 0.10182 0.87496 0.0
C895 C 0.58801 0.09694 0.91946 0.0
C896 C 0.61406 0.12325 0.85742 0.0
C897 C 0.64034 0.14192 0.88466 0.0
C898 C 0.6403 0.13701 0.92975 0.0
C899 C 0.61466 0.1146 0.94637 0.0
C900 C 0.61267 0.12625 0.80929 0.0
C901 C 0.66677 0.15642 0.96089 0.0
H902 H 0.74413 0.17412 0.82491 0.0
H903 H 0.6811 0.2432 0.8319 0.0
H904 H 0.70363 0.12005 0.89363 0.0
H905 H 0.68504 0.10804 0.84056 0.0
H906 H 0.7292 0.12293 0.84868 0.0
H907 H 0.63096 0.23379 0.8653 0.0
H908 H 0.60875 0.19393 0.85265 0.0
H909 H 0.62799 0.20474 0.90573 0.0
H910 H 0.56797 0.08893 0.85351 0.0
H911 H 0.61461 0.11209 0.98083 0.0
H912 H 0.63665 0.12308 0.79695 0.0
H913 H 0.60876 0.15033 0.80157 0.0
H914 H 0.59234 0.10861 0.79198 0.0
H915 H 0.69178 0.15331 0.95217 0.0
H916 H 0.6639 0.14988 0.99471 0.0
H917 H 0.66567 0.18194 0.95883 0.0
C918 C 0.86112 0.7348 0.8623 0.0
C919 C 0.82617 0.72784 0.85766 0.0
C920 C 0.87977 0.71473 0.8836 0.0
C921 C 0.86326 0.68723 0.90207 0.0
C922 C 0.82795 0.68109 0.89988 0.0
C923 C 0.80986 0.70112 0.87718 0.0
C924 C 0.91722 0.72195 0.88383 0.0
C925 C 0.80921 0.65263 0.92009 0.0
C926 C 0.90709 0.61607 0.90648 0.0
C927 C 0.92197 0.61882 0.94881 0.0
C928 C 0.88818 0.63812 0.89112 0.0
C929 C 0.88284 0.66326 0.91907 0.0
C930 C 0.8973 0.6659 0.9622 0.0
C931 C 0.91715 0.64399 0.97634 0.0
C932 C 0.87447 0.63479 0.84452 0.0
C933 C 0.89157 0.69171 0.9935 0.0
H934 H 0.87415 0.75516 0.84721 0.0
H935 H 0.78291 0.69546 0.87396 0.0
H936 H 0.92887 0.72155 0.91695 0.0
H937 H 0.92565 0.70342 0.8638 0.0
H938 H 0.92642 0.74539 0.87098 0.0
H939 H 0.78235 0.6535 0.92091 0.0
H940 H 0.81159 0.6307 0.90145 0.0
H941 H 0.81994 0.651 0.95345 0.0
H942 H 0.91095 0.59693 0.88475 0.0
H943 H 0.92836 0.64621 0.00913 0.0
H944 H 0.88393 0.65666 0.82808 0.0
H945 H 0.84696 0.63176 0.84249 0.0
H946 H 0.88137 0.6143 0.82673 0.0
H947 H 0.90061 0.71532 0.9812 0.0
H948 H 0.90433 0.69048 0.02586 0.0
H949 H 0.86451 0.68978 0.99671 0.0
C950 C 0.2493 0.35159 0.14772 0.0
C951 C 0.23369 0.32422 0.1665 0.0
C952 C 0.23052 0.37124 0.12529 0.0
C953 C 0.1952 0.36401 0.12259 0.0
C954 C 0.17944 0.33597 0.14056 0.0
C955 C 0.19876 0.31634 0.16164 0.0
C956 C 0.24852 0.40036 0.10572 0.0
C957 C 0.14201 0.32757 0.13978 0.0
C958 C 0.1486 0.43334 0.11756 0.0
C959 C 0.13426 0.43046 0.07495 0.0
C960 C 0.16815 0.41189 0.13323 0.0
C961 C 0.17472 0.38724 0.10535 0.0
C962 C 0.16064 0.38438 0.06201 0.0
C963 C 0.14017 0.4057 0.04752 0.0
C964 C 0.18131 0.41534 0.18006 0.0
C965 C 0.1676 0.35912 0.03074 0.0
H966 H 0.2762 0.358 0.1512 0.0
H967 H 0.18626 0.29548 0.17629 0.0
H968 H 0.23824 0.40164 0.07206 0.0
H969 H 0.24474 0.4219 0.12411 0.0
H970 H 0.27568 0.40067 0.10584 0.0
H971 H 0.13347 0.30398 0.1526 0.0
H972 H 0.13268 0.34569 0.15952 0.0
H973 H 0.13056 0.32759 0.10647 0.0
H974 H 0.14391 0.45217 0.13919 0.0
H975 H 0.12943 0.40343 0.01451 0.0
H976 H 0.20887 0.41929 0.18265 0.0
H977 H 0.17241 0.39319 0.19618 0.0
H978 H 0.1734 0.43533 0.19777 0.0
H979 H 0.19454 0.36337 0.02578 0.0
H980 H 0.15332 0.35883 0.99903 0.0
H981 H 0.16137 0.33539 0.04396 0.0
C982 C 0.18391 0.68397 0.83108 0.0
C983 C 0.18605 0.7133 0.85387 0.0
C984 C 0.16285 0.65687 0.84257 0.0
C985 C 0.14288 0.65927 0.8771 0.0
C986 C 0.14557 0.6884 0.90127 0.0
C987 C 0.16721 0.71518 0.8893 0.0
C988 C 0.16108 0.62596 0.81673 0.0
C989 C 0.1249 0.69145 0.93893 0.0
C990 C 0.06011 0.60438 0.87789 0.0
C991 C 0.06699 0.58435 0.91033 0.0
C992 C 0.08509 0.62817 0.86546 0.0
C993 C 0.11753 0.63184 0.88605 0.0
C994 C 0.12528 0.61013 0.91622 0.0
C995 C 0.0999 0.5864 0.92777 0.0
C996 C 0.07627 0.6506 0.83232 0.0
C997 C 0.15972 0.61324 0.93854 0.0
H998 H 0.19778 0.68217 0.80315 0.0
H999 H 0.16914 0.73764 0.9073 0.0
H1000 H 0.16227 0.60627 0.83836 0.0
H1001 H 0.13699 0.62012 0.79692 0.0
H1002 H 0.18154 0.62706 0.795 0.0
H1003 H 0.13158 0.71519 0.95609 0.0
H1004 H 0.09817 0.68735 0.92735 0.0
H1005 H 0.12813 0.67319 0.96221 0.0
H1006 H 0.03481 0.6027 0.86399 0.0
H1007 H 0.10555 0.57093 0.95275 0.0
H1008 H 0.09365 0.65206 0.80647 0.0
H1009 H 0.07881 0.67476 0.84775 0.0
H1010 H 0.05045 0.64322 0.81741 0.0
H1011 H 0.1628 0.59179 0.95595 0.0
H1012 H 0.16433 0.63387 0.96222 0.0
H1013 H 0.17896 0.61754 0.9151 0.0
C1014 C 0.2978 0.14871 0.86272 0.0
C1015 C 0.28099 0.16809 0.88653 0.0
C1016 C 0.32247 0.13466 0.88267 0.0
C1017 C 0.33031 0.14028 0.9276 0.0
C1018 C 0.31094 0.15713 0.95242 0.0
C1019 C 0.28612 0.17082 0.9314 0.0
C1020 C 0.34205 0.11626 0.85496 0.0
C1021 C 0.31668 0.16169 1.00069 0.0
C1022 C 0.39154 0.08969 0.96149 0.0
C1023 C 0.42132 0.10985 0.95455 0.0
C1024 C 0.36143 0.1006 0.95839 0.0
C1025 C 0.36137 0.13185 0.94634 0.0
C1026 C 0.3918 0.1531 0.94338 0.0
C1027 C 0.42171 0.14174 0.94761 0.0
C1028 C 0.32954 0.07804 0.96429 0.0
C1029 C 0.39251 0.18696 0.93183 0.0
H1030 H 0.29321 0.14654 0.82793 0.0
H1031 H 0.27264 0.18565 0.94958 0.0
H1032 H 0.36767 0.12989 0.8539 0.0
H1033 H 0.344 0.09324 0.86878 0.0
H1034 H 0.33056 0.11158 0.82142 0.0
H1035 H 0.31268 0.18548 0.01198 0.0
H1036 H 0.29819 0.14376 0.01491 0.0
H1037 H 0.34185 0.15863 0.013 0.0
H1038 H 0.39168 0.06506 0.96768 0.0
H1039 H 0.44502 0.15718 0.94278 0.0
H1040 H 0.31589 0.07072 0.9324 0.0
H1041 H 0.31328 0.08994 0.98384 0.0
H1042 H 0.33421 0.05644 0.98024 0.0
H1043 H 0.38425 0.18738 0.89719 0.0
H1044 H 0.41785 0.20157 0.93768 0.0
H1045 H 0.37514 0.19787 0.95073 0.0
C1046 C 0.84114 0.36374 0.83332 0.0
C1047 C 0.82867 0.33435 0.84942 0.0
C1048 C 0.86695 0.38533 0.85644 0.0
C1049 C 0.87975 0.37788 0.89747 0.0
C1050 C 0.86539 0.3492 0.91523 0.0
C1051 C 0.84066 0.32739 0.89048 0.0
C1052 C 0.88217 0.41499 0.83546 0.0
C1053 C 0.87722 0.34087 0.95953 0.0
C1054 C 0.97073 0.41159 0.93259 0.0
C1055 C 0.96843 0.43894 0.95737 0.0
C1056 C 0.94209 0.39166 0.91293 0.0
C1057 C 0.9102 0.3985 0.91961 0.0
C1058 C 0.90775 0.4255 0.9461 0.0
C1059 C 0.93692 0.44575 0.96396 0.0
C1060 C 0.94608 0.36378 0.8839 0.0
C1061 C 0.87433 0.43291 0.95567 0.0
H1062 H 0.83249 0.3688 0.80112 0.0
H1063 H 0.83129 0.30451 0.90276 0.0
H1064 H 0.88306 0.43619 0.85734 0.0
H1065 H 0.90818 0.41373 0.82894 0.0
H1066 H 0.86823 0.41822 0.80458 0.0
H1067 H 0.86021 0.32044 0.97133 0.0
H1068 H 0.90228 0.33466 0.9587 0.0
H1069 H 0.87938 0.36147 0.98293 0.0
H1070 H 0.99509 0.40642 0.92724 0.0
H1071 H 0.93512 0.46675 0.9835 0.0
H1072 H 0.93421 0.36568 0.85123 0.0
H1073 H 0.93338 0.34138 0.89645 0.0
H1074 H 0.97261 0.36226 0.88105 0.0
H1075 H 0.85966 0.43581 0.9253 0.0
H1076 H 0.87664 0.4548 0.97678 0.0
H1077 H 0.86006 0.41282 0.97171 0.0
C1078 C 0.7353 0.86037 0.82105 0.0
C1079 C 0.73458 0.83014 0.83676 0.0
C1080 C 0.7152 0.88092 0.83689 0.0
C1081 C 0.69507 0.87187 0.87115 0.0
C1082 C 0.6952 0.84159 0.88809 0.0
C1083 C 0.71427 0.82089 0.86997 0.0
C1084 C 0.71487 0.91186 0.81579 0.0
C1085 C 0.67477 0.83005 0.92465 0.0
C1086 C 0.66175 0.93795 0.93198 0.0
C1087 C 0.62744 0.92964 0.92072 0.0
C1088 C 0.68426 0.91991 0.91581 0.0
C1089 C 0.67229 0.89296 0.88708 0.0
C1090 C 0.63786 0.88572 0.87378 0.0
C1091 C 0.61598 0.90367 0.89119 0.0
C1092 C 0.72072 0.93051 0.92956 0.0
C1093 C 0.62387 0.85888 0.84102 0.0
H1094 H 0.75055 0.86743 0.79481 0.0
H1095 H 0.71345 0.79749 0.88211 0.0
H1096 H 0.68916 0.91659 0.81106 0.0
H1097 H 0.72986 0.9315 0.83681 0.0
H1098 H 0.72561 0.91208 0.78402 0.0
H1099 H 0.69003 0.81916 0.94852 0.0
H1100 H 0.66472 0.84903 0.94153 0.0
H1101 H 0.65369 0.81121 0.91193 0.0
H1102 H 0.67107 0.95822 0.95417 0.0
H1103 H 0.58962 0.89721 0.8815 0.0
H1104 H 0.73061 0.95147 0.9116 0.0
H1105 H 0.73568 0.91193 0.92367 0.0
H1106 H 0.72417 0.93823 0.96426 0.0
H1107 H 0.64017 0.85872 0.81407 0.0
H1108 H 0.59846 0.86048 0.82751 0.0
H1109 H 0.62249 0.83596 0.85651 0.0
C1110 C 0.83428 0.6835 0.22977 0.0
C1111 C 0.82434 0.70908 0.20913 0.0
C1112 C 0.85356 0.66409 0.20932 0.0
C1113 C 0.8627 0.67003 0.16693 0.0
C1114 C 0.85192 0.69531 0.14563 0.0
C1115 C 0.83319 0.71458 0.16702 0.0
C1116 C 0.86486 0.63773 0.23349 0.0
C1117 C 0.86075 0.70246 0.10042 0.0
C1118 C 0.94133 0.64662 0.12793 0.0
C1119 C 0.92882 0.61938 0.10105 0.0
C1120 C 0.9202 0.66262 0.15038 0.0
C1121 C 0.88541 0.65145 0.14576 0.0
C1122 C 0.87254 0.62371 0.11913 0.0
C1123 C 0.89439 0.60791 0.09726 0.0
C1124 C 0.93517 0.69194 0.17846 0.0
C1125 C 0.83561 0.61119 0.11287 0.0
H1126 H 0.82762 0.67907 0.26229 0.0
H1127 H 0.82541 0.73407 0.15056 0.0
H1128 H 0.8572 0.61488 0.21438 0.0
H1129 H 0.89241 0.64233 0.23834 0.0
H1130 H 0.85459 0.63531 0.26547 0.0
H1131 H 0.84839 0.72134 0.0871 0.0
H1132 H 0.88805 0.7102 0.10025 0.0
H1133 H 0.85354 0.68077 0.07877 0.0
H1134 H 0.96788 0.65567 0.13138 0.0
H1135 H 0.88444 0.58703 0.07643 0.0
H1136 H 0.92681 0.6896 0.21145 0.0
H1137 H 0.92651 0.71289 0.16527 0.0
H1138 H 0.96279 0.6965 0.18067 0.0
H1139 H 0.82515 0.60758 0.14453 0.0
H1140 H 0.82962 0.58845 0.09317 0.0
H1141 H 0.82305 0.62883 0.09664 0.0
C1142 C 0.33273 0.87336 0.17783 0.0
C1143 C 0.33784 0.84253 0.18671 0.0
C1144 C 0.35639 0.89538 0.15751 0.0
C1145 C 0.38629 0.88685 0.1442 0.0
C1146 C 0.39126 0.85553 0.15233 0.0
C1147 C 0.36752 0.8342 0.17359 0.0
C1148 C 0.34967 0.92832 0.15128 0.0
C1149 C 0.4219 0.84439 0.13847 0.0
C1150 C 0.43783 0.93682 0.06079 0.0
C1151 C 0.4652 0.95438 0.08657 0.0
C1152 C 0.4122 0.91515 0.07869 0.0
C1153 C 0.41294 0.91092 0.124 0.0
C1154 C 0.43998 0.92953 0.1501 0.0
C1155 C 0.46563 0.95018 0.13128 0.0
C1156 C 0.3849 0.89576 0.04868 0.0
C1157 C 0.44227 0.92721 0.19835 0.0
H1158 H 0.31037 0.8807 0.18782 0.0
H1159 H 0.37226 0.81072 0.1798 0.0
H1160 H 0.36966 0.94597 0.16913 0.0
H1161 H 0.34993 0.93351 0.11674 0.0
H1162 H 0.32536 0.93152 0.16266 0.0
H1163 H 0.4222 0.81944 0.14614 0.0
H1164 H 0.42325 0.84648 0.10324 0.0
H1165 H 0.44453 0.85964 0.1546 0.0
H1166 H 0.43726 0.93878 0.02619 0.0
H1167 H 0.4866 0.96297 0.15187 0.0
H1168 H 0.36025 0.89928 0.05834 0.0
H1169 H 0.38576 0.87021 0.05096 0.0
H1170 H 0.38706 0.90196 0.01461 0.0
H1171 H 0.41868 0.93092 0.21138 0.0
H1172 H 0.46307 0.94484 0.21472 0.0
H1173 H 0.44601 0.90315 0.20647 0.0
C1174 C 0.7096 0.19154 0.18077 0.0
C1175 C 0.70117 0.20436 0.21968 0.0
C1176 C 0.68659 0.1689 0.15536 0.0
C1177 C 0.65441 0.15903 0.16919 0.0
C1178 C 0.64626 0.17075 0.2094 0.0
C1179 C 0.66986 0.19317 0.23435 0.0
C1180 C 0.69615 0.1568 0.11269 0.0
C1181 C 0.61216 0.16069 0.22518 0.0
C1182 C 0.58398 0.13516 0.08254 0.0
C1183 C 0.57792 0.10203 0.08353 0.0
C1184 C 0.60888 0.15388 0.11024 0.0
C1185 C 0.62828 0.13912 0.13961 0.0
C1186 C 0.62265 0.10569 0.14053 0.0
C1187 C 0.59746 0.08748 0.11242 0.0
C1188 C 0.61419 0.18952 0.10835 0.0
C1189 C 0.6431 0.08925 0.1713 0.0
H1190 H 0.73386 0.19988 0.16943 0.0
H1191 H 0.66331 0.20277 0.26461 0.0
H1192 H 0.68971 0.13056 0.10944 0.0
H1193 H 0.68196 0.16604 0.08599 0.0
H1194 H 0.72312 0.16419 0.1088 0.0
H1195 H 0.60954 0.17293 0.2565 0.0
H1196 H 0.5928 0.16588 0.20123 0.0
H1197 H 0.60723 0.13474 0.22895 0.0
H1198 H 0.56908 0.14662 0.06026 0.0
H1199 H 0.59297 0.06188 0.1133 0.0
H1200 H 0.64007 0.19886 0.10089 0.0
H1201 H 0.61061 0.20042 0.14018 0.0
H1202 H 0.59688 0.19723 0.08366 0.0
H1203 H 0.66992 0.09641 0.16655 0.0
H1204 H 0.63622 0.06302 0.16707 0.0
H1205 H 0.63965 0.09653 0.205 0.0
C1206 C 0.65728 0.62231 0.74887 0.0
C1207 C 0.67543 0.64688 0.77646 0.0
C1208 C 0.63743 0.59623 0.76554 0.0
C1209 C 0.6345 0.59591 0.81047 0.0
C1210 C 0.65527 0.61925 0.83853 0.0
C1211 C 0.67594 0.64429 0.82104 0.0
C1212 C 0.61754 0.57047 0.73495 0.0
C1213 C 0.65295 0.61987 0.88669 0.0
C1214 C 0.54893 0.57472 0.84915 0.0
C1215 C 0.5523 0.54918 0.87444 0.0
C1216 C 0.57511 0.58913 0.82632 0.0
C1217 C 0.60486 0.57668 0.8272 0.0
C1218 C 0.60707 0.54879 0.84907 0.0
C1219 C 0.581 0.53583 0.87359 0.0
C1220 C 0.57186 0.61936 0.80452 0.0
C1221 C 0.63743 0.53356 0.84877 0.0
H1222 H 0.6576 0.62422 0.71433 0.0
H1223 H 0.69019 0.66339 0.84213 0.0
H1224 H 0.61576 0.54698 0.74909 0.0
H1225 H 0.59191 0.57504 0.72869 0.0
H1226 H 0.62876 0.5696 0.70361 0.0
H1227 H 0.6724 0.63839 0.90404 0.0
H1228 H 0.62819 0.62461 0.89426 0.0
H1229 H 0.65546 0.59657 0.89915 0.0
H1230 H 0.52683 0.58522 0.85012 0.0
H1231 H 0.58345 0.51586 0.89297 0.0
H1232 H 0.57586 0.61682 0.76986 0.0
H1233 H 0.5911 0.63923 0.81917 0.0
H1234 H 0.54706 0.6259 0.80728 0.0
H1235 H 0.65088 0.53865 0.81945 0.0
H1236 H 0.63046 0.50746 0.85068 0.0
H1237 H 0.65464 0.54269 0.87741 0.0
C1238 C 0.3674 0.71095 0.77128 0.0
C1239 C 0.3419 0.72306 0.79018 0.0
C1240 C 0.38561 0.69095 0.7937 0.0
C1241 C 0.37834 0.68299 0.83617 0.0
C1242 C 0.35324 0.69586 0.85575 0.0
C1243 C 0.33534 0.71555 0.83258 0.0
C1244 C 0.41204 0.67765 0.77152 0.0
C1245 C 0.34469 0.68822 0.90094 0.0
C1246 C 0.39644 0.60504 0.87726 0.0
C1247 C 0.42615 0.61473 0.90355 0.0
C1248 C 0.38101 0.62692 0.85495 0.0
C1249 C 0.39528 0.65958 0.85914 0.0
C1250 C 0.42504 0.66967 0.88603 0.0
C1251 C 0.44019 0.64715 0.90775 0.0
C1252 C 0.34937 0.61499 0.82668 0.0
C1253 C 0.44086 0.70428 0.89189 0.0
H1254 H 0.37275 0.71661 0.73865 0.0
H1255 H 0.31587 0.72486 0.84774 0.0
H1256 H 0.43595 0.68289 0.79174 0.0
H1257 H 0.40477 0.65149 0.76719 0.0
H1258 H 0.41601 0.68742 0.73946 0.0
H1259 H 0.32609 0.70175 0.91263 0.0
H1260 H 0.33449 0.66254 0.90194 0.0
H1261 H 0.3674 0.69354 0.92349 0.0
H1262 H 0.38532 0.58011 0.8735 0.0
H1263 H 0.46306 0.65496 0.92798 0.0
H1264 H 0.35269 0.62207 0.7932 0.0
H1265 H 0.32883 0.62588 0.83829 0.0
H1266 H 0.34178 0.5888 0.82612 0.0
H1267 H 0.44694 0.71371 0.86025 0.0
H1268 H 0.46395 0.70834 0.91385 0.0
H1269 H 0.42308 0.71805 0.90515 0.0
C1270 C 0.34276 0.32189 0.87047 0.0
C1271 C 0.34712 0.32051 0.82624 0.0
C1272 C 0.36493 0.34299 0.89927 0.0
C1273 C 0.3927 0.36251 0.88364 0.0
C1274 C 0.39803 0.36015 0.83927 0.0
C1275 C 0.37484 0.33956 0.81096 0.0
C1276 C 0.35783 0.34536 0.94606 0.0
C1277 C 0.42791 0.37981 0.82156 0.0
C1278 C 0.43262 0.44112 0.94189 0.0
C1279 C 0.46039 0.43321 0.96476 0.0
C1280 C 0.40971 0.41806 0.91676 0.0
C1281 C 0.41529 0.38649 0.91321 0.0
C1282 C 0.4429 0.37821 0.93695 0.0
C1283 C 0.4647 0.40153 0.96318 0.0
C1284 C 0.37994 0.42766 0.8932 0.0
C1285 C 0.45026 0.34506 0.93318 0.0
H1286 H 0.32112 0.30746 0.88235 0.0
H1287 H 0.37833 0.33844 0.77681 0.0
H1288 H 0.37963 0.34171 0.96708 0.0
H1289 H 0.35329 0.36948 0.95449 0.0
H1290 H 0.33581 0.32778 0.95335 0.0
H1291 H 0.42995 0.37326 0.78713 0.0
H1292 H 0.42623 0.40527 0.82461 0.0
H1293 H 0.45105 0.37687 0.84041 0.0
H1294 H 0.42896 0.4655 0.9433 0.0
H1295 H 0.4859 0.39511 0.98097 0.0
H1296 H 0.35677 0.41162 0.90025 0.0
H1297 H 0.38195 0.42549 0.85795 0.0
H1298 H 0.3777 0.45244 0.90218 0.0
H1299 H 0.42845 0.32753 0.94103 0.0
H1300 H 0.47217 0.34221 0.95473 0.0
H1301 H 0.45516 0.33933 0.89946 0.0
C1302 C 0.65376 0.3698 0.76091 0.0
C1303 C 0.66313 0.34059 0.76774 0.0
C1304 C 0.63443 0.38248 0.78998 0.0
C1305 C 0.62501 0.36552 0.82652 0.0
C1306 C 0.63175 0.3347 0.83105 0.0
C1307 C 0.65033 0.32241 0.80107 0.0
C1308 C 0.6265 0.41501 0.78356 0.0
C1309 C 0.62237 0.31601 0.86978 0.0
C1310 C 0.62337 0.4142 0.92959 0.0
C1311 C 0.58925 0.41013 0.93388 0.0
C1312 C 0.63535 0.39949 0.89471 0.0
C1313 C 0.61241 0.38141 0.86291 0.0
C1314 C 0.57787 0.37742 0.86707 0.0
C1315 C 0.56669 0.39145 0.90308 0.0
C1316 C 0.67248 0.40334 0.89185 0.0
C1317 C 0.55282 0.35916 0.83301 0.0
H1318 H 0.66351 0.38363 0.73483 0.0
H1319 H 0.65686 0.29933 0.80536 0.0
H1320 H 0.60054 0.41574 0.79081 0.0
H1321 H 0.64319 0.43261 0.80602 0.0
H1322 H 0.62996 0.42227 0.75014 0.0
H1323 H 0.62653 0.29125 0.86609 0.0
H1324 H 0.63761 0.32765 0.89889 0.0
H1325 H 0.59592 0.31548 0.8755 0.0
H1326 H 0.6406 0.42893 0.95343 0.0
H1327 H 0.54016 0.38906 0.90606 0.0
H1328 H 0.6796 0.41546 0.86226 0.0
H1329 H 0.67981 0.37973 0.88964 0.0
H1330 H 0.68681 0.41728 0.92009 0.0
H1331 H 0.55605 0.37019 0.80165 0.0
H1332 H 0.52677 0.35849 0.84118 0.0
H1333 H 0.55698 0.33447 0.8286 0.0
C1334 C 0.71402 0.34078 0.17388 0.0
C1335 C 0.7069 0.33422 0.21638 0.0
C1336 C 0.69588 0.3594 0.14902 0.0
C1337 C 0.67001 0.37208 0.16702 0.0
C1338 C 0.66242 0.36528 0.20972 0.0
C1339 C 0.68085 0.34639 0.23381 0.0
C1340 C 0.70479 0.3659 0.10366 0.0
C1341 C 0.63521 0.37848 0.23028 0.0
C1342 C 0.64851 0.44762 0.12211 0.0
C1343 C 0.61876 0.43639 0.09647 0.0
C1344 C 0.66529 0.42698 0.14502 0.0
C1345 C 0.65234 0.39404 0.14213 0.0
C1346 C 0.62273 0.38236 0.11559 0.0
C1347 C 0.60622 0.40365 0.09322 0.0
C1348 C 0.69671 0.44056 0.1729 0.0
C1349 C 0.60833 0.34738 0.11116 0.0
H1350 H 0.73395 0.3314 0.15991 0.0
H1351 H 0.67505 0.34143 0.26651 0.0
H1352 H 0.68241 0.35913 0.08073 0.0
H1353 H 0.71401 0.39164 0.10126 0.0
H1354 H 0.72424 0.35283 0.09351 0.0
H1355 H 0.63143 0.36999 0.26306 0.0
H1356 H 0.64147 0.40476 0.23263 0.0
H1357 H 0.61143 0.37171 0.20998 0.0
H1358 H 0.65855 0.47281 0.12505 0.0
H1359 H 0.58336 0.39466 0.07347 0.0
H1360 H 0.71768 0.42981 0.16246 0.0
H1361 H 0.69347 0.43472 0.20686 0.0
H1362 H 0.70358 0.46672 0.17165 0.0
H1363 H 0.62708 0.33402 0.09965 0.0
H1364 H 0.58567 0.34194 0.08842 0.0
H1365 H 0.60188 0.33869 0.14306 0.0
C1366 C 0.66553 0.69854 0.2013 0.0
C1367 C 0.69372 0.71814 0.18802 0.0
C1368 C 0.64233 0.67971 0.17106 0.0
C1369 C 0.64814 0.6797 0.12674 0.0
C1370 C 0.67639 0.69976 0.1132 0.0
C1371 C 0.69855 0.71905 0.14392 0.0
C1372 C 0.61193 0.65938 0.1866 0.0
C1373 C 0.68401 0.69985 0.06649 0.0
C1374 C 0.60878 0.60418 0.06098 0.0
C1375 C 0.58144 0.61329 0.03865 0.0
C1376 C 0.63134 0.6259 0.08844 0.0
C1377 C 0.62581 0.65728 0.09494 0.0
C1378 C 0.59874 0.66689 0.07163 0.0
C1379 C 0.57735 0.64495 0.04293 0.0
C1380 C 0.6606 0.61498 0.11138 0.0
C1381 C 0.59145 0.69986 0.0785 0.0
H1382 H 0.66164 0.69793 0.23532 0.0
H1383 H 0.7205 0.73395 0.1335 0.0
H1384 H 0.58915 0.66353 0.16801 0.0
H1385 H 0.61323 0.63397 0.18115 0.0
H1386 H 0.60951 0.66419 0.22141 0.0
H1387 H 0.70634 0.7177 0.06103 0.0
H1388 H 0.68832 0.67608 0.05572 0.0
H1389 H 0.66256 0.70481 0.04594 0.0
H1390 H 0.61224 0.57979 0.05748 0.0
H1391 H 0.55656 0.65231 0.02552 0.0
H1392 H 0.65791 0.61529 0.14654 0.0
H1393 H 0.68403 0.63138 0.10627 0.0
H1394 H 0.66284 0.59063 0.10016 0.0
H1395 H 0.58594 0.70376 0.11246 0.0
H1396 H 0.56992 0.70386 0.0571 0.0
H1397 H 0.61349 0.71786 0.07273 0.0
C1398 C 0.40201 0.68483 0.24496 0.0
C1399 C 0.39319 0.71442 0.23931 0.0
C1400 C 0.41911 0.67141 0.21382 0.0
C1401 C 0.42681 0.688 0.17643 0.0
C1402 C 0.42075 0.71912 0.17282 0.0
C1403 C 0.40448 0.73217 0.20484 0.0
C1404 C 0.42643 0.63854 0.2192 0.0
C1405 C 0.42835 0.73742 0.13323 0.0
C1406 C 0.48021 0.66004 0.09486 0.0
C1407 C 0.45605 0.64147 0.06579 0.0
C1408 C 0.47116 0.67475 0.1318 0.0
C1409 C 0.43712 0.67159 0.13873 0.0
C1410 C 0.41253 0.65372 0.10866 0.0
C1411 C 0.4224 0.63829 0.07275 0.0
C1412 C 0.49798 0.69275 0.16396 0.0
C1413 C 0.37587 0.65077 0.11455 0.0
H1414 H 0.39342 0.67129 0.27186 0.0
H1415 H 0.39838 0.7555 0.20137 0.0
H1416 H 0.40838 0.62122 0.19793 0.0
H1417 H 0.4517 0.63712 0.20966 0.0
H1418 H 0.42451 0.63143 0.25293 0.0
H1419 H 0.4247 0.76232 0.1373 0.0
H1420 H 0.45429 0.73752 0.12532 0.0
H1421 H 0.41171 0.72575 0.10526 0.0
H1422 H 0.50638 0.66176 0.08989 0.0
H1423 H 0.40393 0.62364 0.05029 0.0
H1424 H 0.49609 0.68194 0.19562 0.0
H1425 H 0.49459 0.71763 0.16885 0.0
H1426 H 0.52337 0.69279 0.15361 0.0
H1427 H 0.36995 0.63888 0.1447 0.0
H1428 H 0.36003 0.63701 0.08729 0.0
H1429 H 0.36927 0.67466 0.11759 0.0
C1430 C 0.39742 0.43545 0.27311 0.0
C1431 C 0.37446 0.41165 0.24966 0.0
C1432 C 0.41512 0.46065 0.25216 0.0
C1433 C 0.41072 0.46085 0.20674 0.0
C1434 C 0.38444 0.43921 0.18393 0.0
C1435 C 0.36631 0.41499 0.20591 0.0
C1436 C 0.44131 0.48472 0.27788 0.0
C1437 C 0.37874 0.43846 0.13546 0.0
C1438 C 0.46316 0.51528 0.13461 0.0
C1439 C 0.48846 0.49806 0.12807 0.0
C1440 C 0.43854 0.50478 0.16265 0.0
C1441 C 0.43879 0.47581 0.1827 0.0
C1442 C 0.46482 0.4588 0.17653 0.0
C1443 C 0.48964 0.47054 0.15001 0.0
C1444 C 0.41254 0.5246 0.17086 0.0
C1445 C 0.46572 0.42726 0.19608 0.0
H1446 H 0.40304 0.4332 0.30722 0.0
H1447 H 0.34835 0.39667 0.18781 0.0
H1448 H 0.4658 0.47728 0.27702 0.0
H1449 H 0.44341 0.50833 0.26406 0.0
H1450 H 0.43565 0.48682 0.3121 0.0
H1451 H 0.35415 0.42412 0.1237 0.0
H1452 H 0.38028 0.4627 0.12396 0.0
H1453 H 0.39837 0.42781 0.12084 0.0
H1454 H 0.46264 0.5368 0.11779 0.0
H1455 H 0.50908 0.45709 0.14445 0.0
H1456 H 0.41714 0.53519 0.20431 0.0
H1457 H 0.38724 0.50986 0.16801 0.0
H1458 H 0.41311 0.54409 0.14844 0.0
H1459 H 0.46777 0.43028 0.23171 0.0
H1460 H 0.48696 0.41656 0.18629 0.0
H1461 H 0.44236 0.41028 0.18614 0.0
C1462 C 0.86128 0.73218 0.6766 0.0
C1463 C 0.83121 0.71983 0.69369 0.0
C1464 C 0.8813 0.71226 0.65887 0.0
C1465 C 0.87113 0.67872 0.65793 0.0
C1466 C 0.84103 0.66616 0.6761 0.0
C1467 C 0.82128 0.68673 0.69297 0.0
C1468 C 0.91342 0.72811 0.64208 0.0
C1469 C 0.83007 0.63086 0.67888 0.0
C1470 C 0.90463 0.62209 0.58014 0.0
C1471 C 0.93327 0.61653 0.60388 0.0
C1472 C 0.88387 0.64169 0.59734 0.0
C1473 C 0.89206 0.65673 0.63925 0.0
C1474 C 0.92041 0.65043 0.66372 0.0
C1475 C 0.94069 0.63091 0.6457 0.0
C1476 C 0.85344 0.64611 0.56978 0.0
C1477 C 0.92922 0.66409 0.70938 0.0
H1478 H 0.86955 0.75767 0.67744 0.0
H1479 H 0.79851 0.67679 0.70701 0.0
H1480 H 0.93025 0.7116 0.63437 0.0
H1481 H 0.9076 0.74053 0.61278 0.0
H1482 H 0.92698 0.74653 0.66623 0.0
H1483 H 0.80829 0.62497 0.69826 0.0
H1484 H 0.82327 0.61949 0.64608 0.0
H1485 H 0.85079 0.62039 0.69351 0.0
H1486 H 0.89828 0.6111 0.54797 0.0
H1487 H 0.96238 0.62667 0.66488 0.0
H1488 H 0.83503 0.65605 0.5878 0.0
H1489 H 0.84094 0.62312 0.55352 0.0
H1490 H 0.86112 0.66247 0.54441 0.0
H1491 H 0.93784 0.69009 0.70919 0.0
H1492 H 0.9492 0.65368 0.72609 0.0
H1493 H 0.90698 0.65994 0.7282 0.0
C1494 C 0.43131 0.82508 0.64951 0.0
C1495 C 0.4057 0.81923 0.61617 0.0
C1496 C 0.45655 0.85193 0.6503 0.0
C1497 C 0.45624 0.87287 0.61659 0.0
C1498 C 0.43358 0.86438 0.57977 0.0
C1499 C 0.40841 0.83767 0.5801 0.0
C1500 C 0.48153 0.85951 0.68895 0.0
C1501 C 0.433 0.88542 0.54217 0.0
C1502 C 0.468 0.96099 0.63587 0.0
C1503 C 0.49631 0.97097 0.61385 0.0
C1504 C 0.4564 0.92881 0.64076 0.0
C1505 C 0.47377 0.90617 0.62344 0.0
C1506 C 0.50463 0.91626 0.60622 0.0
C1507 C 0.51569 0.94874 0.60173 0.0
C1508 C 0.42349 0.91911 0.65992 0.0
C1509 C 0.52393 0.89284 0.58778 0.0
H1510 H 0.43015 0.81003 0.67659 0.0
H1511 H 0.38919 0.83318 0.55381 0.0
H1512 H 0.50712 0.86249 0.67839 0.0
H1513 H 0.47909 0.88228 0.70541 0.0
H1514 H 0.47838 0.84071 0.71253 0.0
H1515 H 0.42385 0.87113 0.51183 0.0
H1516 H 0.41584 0.90215 0.54776 0.0
H1517 H 0.45786 0.89942 0.53764 0.0
H1518 H 0.45328 0.97808 0.64622 0.0
H1519 H 0.53802 0.9563 0.58546 0.0
H1520 H 0.42411 0.89906 0.681 0.0
H1521 H 0.40372 0.91117 0.63352 0.0
H1522 H 0.41656 0.93901 0.67898 0.0
H1523 H 0.52174 0.87119 0.60633 0.0
H1524 H 0.5506 0.90347 0.58722 0.0
H1525 H 0.51386 0.88562 0.55413 0.0
C1526 C 0.21071 0.31449 0.58381 0.0
C1527 C 0.23835 0.33903 0.59167 0.0
C1528 C 0.17939 0.32086 0.57066 0.0
C1529 C 0.17632 0.35246 0.56336 0.0
C1530 C 0.20523 0.37669 0.56602 0.0
C1531 C 0.23597 0.36959 0.58054 0.0
C1532 C 0.1496 0.2942 0.5681 0.0
C1533 C 0.20365 0.41095 0.55858 0.0
C1534 C 0.10289 0.38082 0.5113 0.0
C1535 C 0.09891 0.40267 0.54406 0.0
C1536 C 0.12539 0.36023 0.51831 0.0
C1537 C 0.14322 0.36163 0.5591 0.0
C1538 C 0.13353 0.37878 0.59424 0.0
C1539 C 0.11213 0.40004 0.58603 0.0
C1540 C 0.1311 0.33879 0.48127 0.0
C1541 C 0.14861 0.37746 0.63959 0.0
H1542 H 0.21308 0.29085 0.59256 0.0
H1543 H 0.25741 0.38845 0.58726 0.0
H1544 H 0.12757 0.30214 0.58048 0.0
H1545 H 0.14315 0.28563 0.53396 0.0
H1546 H 0.1548 0.27382 0.58652 0.0
H1547 H 0.22658 0.42282 0.54469 0.0
H1548 H 0.18176 0.41359 0.53699 0.0
H1549 H 0.20225 0.42366 0.58991 0.0
H1550 H 0.09154 0.3823 0.47912 0.0
H1551 H 0.108 0.41641 0.61166 0.0
H1552 H 0.11256 0.31646 0.48062 0.0
H1553 H 0.15624 0.33262 0.48366 0.0
H1554 H 0.12719 0.34989 0.45036 0.0
H1555 H 0.15417 0.35356 0.64539 0.0
H1556 H 0.1317 0.3835 0.66367 0.0
H1557 H 0.17222 0.3949 0.64476 0.0
C1558 C 0.72276 0.21606 0.62304 0.0
C1559 C 0.74094 0.20803 0.6594 0.0
C1560 C 0.70196 0.19258 0.59571 0.0
C1561 C 0.69847 0.16027 0.60568 0.0
C1562 C 0.71745 0.15208 0.64196 0.0
C1563 C 0.73896 0.17597 0.66774 0.0
C1564 C 0.68387 0.20262 0.55628 0.0
C1565 C 0.71375 0.11824 0.65503 0.0
C1566 C 0.6162 0.10453 0.57398 0.0
C1567 C 0.62526 0.08311 0.54381 0.0
C1568 C 0.63956 0.13012 0.59339 0.0
C1569 C 0.6727 0.13533 0.5813 0.0
C1570 C 0.68141 0.11513 0.54857 0.0
C1571 C 0.65781 0.08883 0.53089 0.0
C1572 C 0.62911 0.15073 0.6284 0.0
C1573 C 0.71576 0.12107 0.53269 0.0
H1574 H 0.7245 0.24083 0.61626 0.0
H1575 H 0.75273 0.16965 0.69605 0.0
H1576 H 0.69742 0.19806 0.52779 0.0
H1577 H 0.65812 0.189 0.55066 0.0
H1578 H 0.68285 0.22829 0.55859 0.0
H1579 H 0.72756 0.11632 0.68648 0.0
H1580 H 0.68712 0.10801 0.65745 0.0
H1581 H 0.72315 0.10365 0.63021 0.0
H1582 H 0.59117 0.10026 0.58434 0.0
H1583 H 0.66488 0.07262 0.50721 0.0
H1584 H 0.6334 0.17581 0.61959 0.0
H1585 H 0.64444 0.14955 0.65891 0.0
H1586 H 0.60247 0.14346 0.63428 0.0
H1587 H 0.72276 0.14625 0.5248 0.0
H1588 H 0.71744 0.10569 0.50369 0.0
H1589 H 0.73418 0.11657 0.55839 0.0
C1590 C 0.84503 0.37108 0.32273 0.0
C1591 C 0.81996 0.35412 0.34548 0.0
C1592 C 0.8681 0.39651 0.34265 0.0
C1593 C 0.86604 0.40531 0.38648 0.0
C1594 C 0.84106 0.38808 0.4099 0.0
C1595 C 0.81809 0.3628 0.38899 0.0
C1596 C 0.8942 0.41421 0.31628 0.0
C1597 C 0.83883 0.39619 0.45708 0.0
C1598 C 0.94452 0.45514 0.44249 0.0
C1599 C 0.93658 0.48548 0.44275 0.0
C1600 C 0.92129 0.4286 0.42578 0.0
C1601 C 0.88988 0.43279 0.40749 0.0
C1602 C 0.88186 0.4635 0.40744 0.0
C1603 C 0.90515 0.48945 0.42584 0.0
C1604 C 0.93053 0.39618 0.42707 0.0
C1605 C 0.84902 0.469 0.3871 0.0
H1606 H 0.84663 0.36455 0.2891 0.0
H1607 H 0.79898 0.34956 0.40687 0.0
H1608 H 0.88672 0.43671 0.30695 0.0
H1609 H 0.91876 0.42031 0.33488 0.0
H1610 H 0.89713 0.40018 0.28654 0.0
H1611 H 0.81926 0.3793 0.47132 0.0
H1612 H 0.86306 0.39616 0.47535 0.0
H1613 H 0.83328 0.4204 0.46132 0.0
H1614 H 0.96866 0.45205 0.45621 0.0
H1615 H 0.89909 0.513 0.4261 0.0
H1616 H 0.93255 0.38689 0.39381 0.0
H1617 H 0.91083 0.37938 0.44115 0.0
H1618 H 0.95456 0.39661 0.44616 0.0
H1619 H 0.84655 0.46137 0.35238 0.0
H1620 H 0.84648 0.49429 0.39021 0.0
H1621 H 0.82816 0.45453 0.40224 0.0
C1622 C 0.71028 0.85291 0.3039 0.0
C1623 C 0.71563 0.82511 0.32322 0.0
C1624 C 0.69281 0.87413 0.32402 0.0
C1625 C 0.6805 0.86771 0.36477 0.0
C1626 C 0.68634 0.83997 0.38478 0.0
C1627 C 0.7036 0.819 0.36375 0.0
C1628 C 0.68714 0.90328 0.30134 0.0
C1629 C 0.67408 0.83228 0.42835 0.0
C1630 C 0.65529 0.93534 0.43168 0.0
C1631 C 0.62068 0.92997 0.42212 0.0
C1632 C 0.67507 0.91518 0.41377 0.0
C1633 C 0.66 0.88904 0.38534 0.0
C1634 C 0.62504 0.88331 0.37611 0.0
C1635 C 0.60594 0.90371 0.3945 0.0
C1636 C 0.7122 0.9223 0.42454 0.0
C1637 C 0.60774 0.85572 0.34633 0.0
H1638 H 0.71948 0.85799 0.27271 0.0
H1639 H 0.70782 0.79781 0.37927 0.0
H1640 H 0.66006 0.90254 0.29465 0.0
H1641 H 0.69712 0.92485 0.32238 0.0
H1642 H 0.69906 0.90542 0.27041 0.0
H1643 H 0.68192 0.81062 0.44055 0.0
H1644 H 0.68359 0.8524 0.45211 0.0
H1645 H 0.64653 0.8287 0.42634 0.0
H1646 H 0.66705 0.95561 0.45266 0.0
H1647 H 0.57925 0.89909 0.3869 0.0
H1648 H 0.72476 0.93052 0.3956 0.0
H1649 H 0.72132 0.90058 0.434 0.0
H1650 H 0.71964 0.9409 0.45102 0.0
H1651 H 0.61735 0.85793 0.31399 0.0
H1652 H 0.58035 0.85423 0.34276 0.0
H1653 H 0.6131 0.83318 0.35869 0.0
C1654 C 0.17437 0.72146 0.32809 0.0
C1655 C 0.2089 0.72152 0.33049 0.0
C1656 C 0.15153 0.69806 0.34757 0.0
C1657 C 0.16285 0.6736 0.3708 0.0
C1658 C 0.19778 0.67413 0.37425 0.0
C1659 C 0.21997 0.69757 0.35418 0.0
C1660 C 0.11493 0.69909 0.34218 0.0
C1661 C 0.21185 0.64933 0.39866 0.0
C1662 C 0.10703 0.62043 0.44719 0.0
C1663 C 0.09648 0.59178 0.42211 0.0
C1664 C 0.12784 0.64723 0.43105 0.0
C1665 C 0.13843 0.64614 0.38833 0.0
C1666 C 0.12669 0.61768 0.36261 0.0
C1667 C 0.10652 0.59131 0.37965 0.0
C1668 C 0.13943 0.6765 0.46036 0.0
C1669 C 0.13625 0.61461 0.31695 0.0
H1670 H 0.16493 0.73936 0.30997 0.0
H1671 H 0.24631 0.69686 0.35677 0.0
H1672 H 0.10157 0.67764 0.32301 0.0
H1673 H 0.10449 0.69891 0.37406 0.0
H1674 H 0.10994 0.7204 0.32575 0.0
H1675 H 0.23948 0.65389 0.40118 0.0
H1676 H 0.20323 0.64849 0.43162 0.0
H1677 H 0.20269 0.62563 0.38224 0.0
H1678 H 0.10028 0.62151 0.48011 0.0
H1679 H 0.09896 0.56967 0.35947 0.0
H1680 H 0.13281 0.69751 0.4448 0.0
H1681 H 0.16693 0.68076 0.46609 0.0
H1682 H 0.12842 0.67448 0.49188 0.0
H1683 H 0.12997 0.63453 0.29844 0.0
H1684 H 0.12359 0.59195 0.29993 0.0
H1685 H 0.16353 0.61591 0.31707 0.0
C1686 C 0.34889 0.24399 0.37902 0.0
C1687 C 0.32541 0.23005 0.34548 0.0
C1688 C 0.36808 0.22562 0.40338 0.0
C1689 C 0.36487 0.19263 0.39297 0.0
C1690 C 0.34139 0.1786 0.35882 0.0
C1691 C 0.32169 0.19724 0.33619 0.0
C1692 C 0.39179 0.24153 0.44035 0.0
C1693 C 0.33754 0.14387 0.34541 0.0
C1694 C 0.43555 0.14811 0.42534 0.0
C1695 C 0.42199 0.12927 0.45772 0.0
C1696 C 0.41765 0.16925 0.40458 0.0
C1697 C 0.3858 0.17256 0.41745 0.0
C1698 C 0.37295 0.15475 0.45185 0.0
C1699 C 0.39076 0.1329 0.47074 0.0
C1700 C 0.43211 0.18679 0.36733 0.0
C1701 C 0.33995 0.15825 0.46814 0.0
H1702 H 0.35212 0.26929 0.38642 0.0
H1703 H 0.30412 0.18622 0.3099 0.0
H1704 H 0.38641 0.22915 0.47031 0.0
H1705 H 0.4177 0.23998 0.43384 0.0
H1706 H 0.39017 0.2669 0.44595 0.0
H1707 H 0.31914 0.13674 0.31724 0.0
H1708 H 0.36186 0.13842 0.33711 0.0
H1709 H 0.32947 0.1292 0.37253 0.0
H1710 H 0.4594 0.14506 0.41461 0.0
H1711 H 0.38005 0.11835 0.49561 0.0
H1712 H 0.43265 0.21257 0.37249 0.0
H1713 H 0.41607 0.17865 0.33731 0.0
H1714 H 0.45772 0.18298 0.36259 0.0
H1715 H 0.33966 0.1836 0.47617 0.0
H1716 H 0.33459 0.14466 0.49716 0.0
H1717 H 0.31964 0.1498 0.44264 0.0
C1718 C 0.74552 0.85586 0.68171 0.0
C1719 C 0.73898 0.82265 0.6758 0.0
C1720 C 0.72544 0.87465 0.66003 0.0
C1721 C 0.69851 0.86016 0.63045 0.0
C1722 C 0.69248 0.82668 0.62325 0.0
C1723 C 0.71232 0.80836 0.6465 0.0
C1724 C 0.73245 0.91003 0.6699 0.0
C1725 C 0.66478 0.81014 0.59129 0.0
C1726 C 0.62815 0.90655 0.60563 0.0
C1727 C 0.63787 0.9217 0.56836 0.0
C1728 C 0.64726 0.88615 0.62577 0.0
C1729 C 0.67654 0.8801 0.60775 0.0
C1730 C 0.68567 0.89452 0.56914 0.0
C1731 C 0.66667 0.91554 0.55051 0.0
C1732 C 0.63687 0.87215 0.66739 0.0
C1733 C 0.71592 0.88819 0.54786 0.0
H1734 H 0.76555 0.86719 0.70488 0.0
H1735 H 0.70686 0.78274 0.64187 0.0
H1736 H 0.73726 0.9226 0.63997 0.0
H1737 H 0.71036 0.91749 0.68282 0.0
H1738 H 0.75417 0.91771 0.69375 0.0
H1739 H 0.66452 0.78428 0.58733 0.0
H1740 H 0.64044 0.81369 0.60205 0.0
H1741 H 0.66735 0.82054 0.55943 0.0
H1742 H 0.60648 0.91188 0.6203 0.0
H1743 H 0.67454 0.92744 0.52203 0.0
H1744 H 0.65632 0.88118 0.69378 0.0
H1745 H 0.6344 0.846 0.66474 0.0
H1746 H 0.61289 0.87808 0.67641 0.0
H1747 H 0.73864 0.89668 0.5697 0.0
H1748 H 0.71887 0.90003 0.51702 0.0
H1749 H 0.71413 0.86231 0.54145 0.0
C1750 C 0.61762 0.22147 0.36858 0.0
C1751 C 0.64661 0.22721 0.39646 0.0
C1752 C 0.59535 0.19255 0.36795 0.0
C1753 C 0.60226 0.16941 0.39646 0.0
C1754 C 0.63065 0.17598 0.42641 0.0
C1755 C 0.65271 0.20483 0.42568 0.0
C1756 C 0.56566 0.18601 0.3352 0.0
C1757 C 0.63848 0.15197 0.45787 0.0
C1758 C 0.54281 0.09829 0.42701 0.0
C1759 C 0.55713 0.07398 0.40905 0.0
C1760 C 0.55527 0.13005 0.42013 0.0
C1761 C 0.58167 0.13729 0.39334 0.0
C1762 C 0.59259 0.11266 0.36995 0.0
C1763 C 0.58052 0.08115 0.37863 0.0
C1764 C 0.54303 0.15558 0.4458 0.0
C1765 C 0.61994 0.11951 0.3398 0.0
H1766 H 0.6137 0.23877 0.34535 0.0
H1767 H 0.67554 0.20949 0.44655 0.0
H1768 H 0.56683 0.16486 0.3141 0.0
H1769 H 0.54239 0.1806 0.35173 0.0
H1770 H 0.56427 0.20636 0.31473 0.0
H1771 H 0.66248 0.16016 0.47723 0.0
H1772 H 0.61837 0.14712 0.48005 0.0
H1773 H 0.63983 0.12922 0.44056 0.0
H1774 H 0.52416 0.09286 0.4498 0.0
H1775 H 0.59112 0.06236 0.36392 0.0
H1776 H 0.54269 0.17699 0.42726 0.0
H1777 H 0.56009 0.16263 0.47523 0.0
H1778 H 0.5177 0.14709 0.45595 0.0
H1779 H 0.61972 0.09903 0.31674 0.0
H1780 H 0.64438 0.12446 0.3589 0.0
H1781 H 0.61766 0.14064 0.32139 0.0
C1782 C 0.81085 0.67112 0.43514 0.0
C1783 C 0.80558 0.70063 0.42267 0.0
C1784 C 0.84285 0.66664 0.44879 0.0
C1785 C 0.87009 0.69246 0.44927 0.0
C1786 C 0.86424 0.72302 0.44031 0.0
C1787 C 0.83178 0.72679 0.42778 0.0
C1788 C 0.8475 0.6333 0.45749 0.0
C1789 C 0.89243 0.75097 0.43993 0.0
C1790 C 0.94655 0.66865 0.49994 0.0
C1791 C 0.95143 0.64728 0.46706 0.0
C1792 C 0.92273 0.68799 0.49326 0.0
C1793 C 0.90436 0.6858 0.45271 0.0
C1794 C 0.91468 0.66933 0.41739 0.0
C1795 C 0.93759 0.64942 0.42524 0.0
C1796 C 0.91606 0.70869 0.53057 0.0
C1797 C 0.89849 0.6695 0.37238 0.0
H1798 H 0.79056 0.65097 0.43029 0.0
H1799 H 0.82728 0.74951 0.4175 0.0
H1800 H 0.86994 0.63284 0.47931 0.0
H1801 H 0.82543 0.61998 0.47171 0.0
H1802 H 0.85013 0.62057 0.42659 0.0
H1803 H 0.88388 0.77233 0.42787 0.0
H1804 H 0.90434 0.7569 0.47301 0.0
H1805 H 0.91171 0.74501 0.41936 0.0
H1806 H 0.95824 0.66756 0.53204 0.0
H1807 H 0.94228 0.63341 0.39951 0.0
H1808 H 0.89089 0.71477 0.52765 0.0
H1809 H 0.93461 0.73109 0.53259 0.0
H1810 H 0.91935 0.69695 0.5611 0.0
H1811 H 0.8754 0.6513 0.36835 0.0
H1812 H 0.91519 0.66383 0.34779 0.0
H1813 H 0.89172 0.69289 0.36629 0.0
C1814 C 0.32353 0.87634 0.3435 0.0
C1815 C 0.31447 0.84513 0.35555 0.0
C1816 C 0.3449 0.89923 0.37091 0.0
C1817 C 0.35639 0.89109 0.41224 0.0
C1818 C 0.34542 0.85998 0.42554 0.0
C1819 C 0.32541 0.83713 0.39653 0.0
C1820 C 0.35659 0.93166 0.35462 0.0
C1821 C 0.35552 0.85008 0.46962 0.0
C1822 C 0.43961 0.94029 0.4566 0.0
C1823 C 0.4297 0.9654 0.47943 0.0
C1824 C 0.41604 0.91518 0.43624 0.0
C1825 C 0.38166 0.91463 0.43958 0.0
C1826 C 0.37167 0.93848 0.46564 0.0
C1827 C 0.39571 0.96384 0.48465 0.0
C1828 C 0.42791 0.89008 0.40929 0.0
C1829 C 0.33546 0.93771 0.47228 0.0
H1830 H 0.31548 0.88237 0.3115 0.0
H1831 H 0.31846 0.81293 0.40583 0.0
H1832 H 0.35044 0.95023 0.37679 0.0
H1833 H 0.38405 0.93604 0.35372 0.0
H1834 H 0.34524 0.93426 0.32183 0.0
H1835 H 0.37776 0.8389 0.46765 0.0
H1836 H 0.36146 0.87042 0.49375 0.0
H1837 H 0.33548 0.83212 0.48111 0.0
H1838 H 0.46577 0.94112 0.45249 0.0
H1839 H 0.38783 0.98285 0.50282 0.0
H1840 H 0.41808 0.89043 0.37523 0.0
H1841 H 0.41828 0.86629 0.42062 0.0
H1842 H 0.45548 0.89353 0.41056 0.0
H1843 H 0.32214 0.94258 0.44178 0.0
H1844 H 0.33206 0.95551 0.49767 0.0
H1845 H 0.3237 0.91379 0.48136 0.0
C1846 C 0.19392 0.31431 0.34145 0.0
C1847 C 0.22463 0.32709 0.32631 0.0
C1848 C 0.17282 0.33396 0.35747 0.0
C1849 C 0.18251 0.3676 0.35856 0.0
C1850 C 0.21313 0.38051 0.34195 0.0
C1851 C 0.23389 0.36029 0.32692 0.0
C1852 C 0.14022 0.31779 0.37255 0.0
C1853 C 0.22376 0.41586 0.33916 0.0
C1854 C 0.11358 0.4169 0.36716 0.0
C1855 C 0.12055 0.43176 0.40877 0.0
C1856 C 0.13349 0.39635 0.35058 0.0
C1857 C 0.161 0.38951 0.37631 0.0
C1858 C 0.16857 0.40484 0.41814 0.0
C1859 C 0.1482 0.42541 0.43389 0.0
C1860 C 0.1255 0.38253 0.30489 0.0
C1861 C 0.19809 0.39985 0.44703 0.0
H1862 H 0.1861 0.28877 0.34052 0.0
H1863 H 0.25712 0.37065 0.31428 0.0
H1864 H 0.14518 0.30647 0.40309 0.0
H1865 H 0.12251 0.33397 0.37758 0.0
H1866 H 0.12808 0.29848 0.34872 0.0
H1867 H 0.2459 0.42195 0.32046 0.0
H1868 H 0.20313 0.42608 0.32377 0.0
H1869 H 0.22989 0.4273 0.37201 0.0
H1870 H 0.09263 0.42166 0.34695 0.0
H1871 H 0.15415 0.43663 0.46598 0.0
H1872 H 0.1173 0.35648 0.30502 0.0
H1873 H 0.14807 0.38701 0.28672 0.0
H1874 H 0.10555 0.3926 0.28753 0.0
H1875 H 0.18937 0.38309 0.47152 0.0
H1876 H 0.21034 0.42256 0.46425 0.0
H1877 H 0.217 0.39002 0.42987 0.0
C1878 C 0.33146 0.18422 0.71316 0.0
C1879 C 0.32686 0.21254 0.69471 0.0
C1880 C 0.35048 0.164 0.69394 0.0
C1881 C 0.36536 0.17215 0.65522 0.0
C1882 C 0.36033 0.20043 0.63607 0.0
C1883 C 0.34129 0.22024 0.65601 0.0
C1884 C 0.35508 0.13412 0.71551 0.0
C1885 C 0.37548 0.21001 0.59472 0.0
C1886 C 0.44286 0.13884 0.63177 0.0
C1887 C 0.43029 0.11367 0.60138 0.0
C1888 C 0.42209 0.15801 0.64915 0.0
C1889 C 0.38765 0.15206 0.63605 0.0
C1890 C 0.3748 0.12702 0.60487 0.0
C1891 C 0.39621 0.10813 0.58799 0.0
C1892 C 0.43707 0.18457 0.68188 0.0
C1893 C 0.33828 0.11974 0.58998 0.0
H1894 H 0.32041 0.17792 0.74291 0.0
H1895 H 0.33779 0.2419 0.64121 0.0
H1896 H 0.34035 0.13017 0.744 0.0
H1897 H 0.34764 0.1133 0.69235 0.0
H1898 H 0.38173 0.13548 0.72609 0.0
H1899 H 0.36815 0.232 0.58293 0.0
H1900 H 0.403 0.21393 0.5998 0.0
H1901 H 0.36778 0.19072 0.56925 0.0
H1902 H 0.46912 0.14356 0.64233 0.0
H1903 H 0.38612 0.08869 0.56477 0.0
H1904 H 0.42529 0.1808 0.71267 0.0
H1905 H 0.43213 0.2075 0.67039 0.0
H1906 H 0.46436 0.18641 0.68831 0.0
H1907 H 0.32376 0.11068 0.61702 0.0
H1908 H 0.33273 0.10176 0.56254 0.0
H1909 H 0.3296 0.14159 0.58015 0.0
C1910 C 0.83771 0.35297 0.65926 0.0
C1911 C 0.8493 0.32983 0.68412 0.0
C1912 C 0.85947 0.37623 0.63837 0.0
C1913 C 0.89448 0.37741 0.64209 0.0
C1914 C 0.90636 0.35375 0.66645 0.0
C1915 C 0.88393 0.33049 0.68678 0.0
C1916 C 0.84483 0.40018 0.61286 0.0
C1917 C 0.9431 0.35347 0.67199 0.0
C1918 C 0.94911 0.43018 0.56414 0.0
C1919 C 0.95921 0.45919 0.58851 0.0
C1920 C 0.92892 0.40335 0.58105 0.0
C1921 C 0.91839 0.40485 0.62377 0.0
C1922 C 0.92964 0.43371 0.64876 0.0
C1923 C 0.94933 0.46003 0.63104 0.0
C1924 C 0.91777 0.37368 0.55237 0.0
C1925 C 0.92 0.43728 0.69432 0.0
H1926 H 0.81127 0.3532 0.65638 0.0
H1927 H 0.89375 0.3132 0.70572 0.0
H1928 H 0.85371 0.42427 0.62827 0.0
H1929 H 0.85331 0.40036 0.57982 0.0
H1930 H 0.81721 0.39524 0.61053 0.0
H1931 H 0.94857 0.33254 0.68894 0.0
H1932 H 0.95356 0.35352 0.64012 0.0
H1933 H 0.95605 0.37527 0.69076 0.0
H1934 H 0.95576 0.42878 0.53119 0.0
H1935 H 0.95661 0.48192 0.65074 0.0
H1936 H 0.89088 0.37126 0.54237 0.0
H1937 H 0.92106 0.35242 0.57002 0.0
H1938 H 0.93162 0.37412 0.52299 0.0
H1939 H 0.89265 0.43542 0.6941 0.0
H1940 H 0.93216 0.46035 0.71068 0.0
H1941 H 0.92682 0.41791 0.71351 0.0
C1942 C 0.20445 0.68086 0.68966 0.0
C1943 C 0.22792 0.6997 0.66657 0.0
C1944 C 0.18301 0.65427 0.66978 0.0
C1945 C 0.1851 0.64631 0.62566 0.0
C1946 C 0.20863 0.66531 0.60204 0.0
C1947 C 0.23 0.69167 0.6229 0.0
C1948 C 0.15845 0.6346 0.69632 0.0
C1949 C 0.21086 0.65805 0.55462 0.0
C1950 C 0.14886 0.56218 0.58288 0.0
C1951 C 0.11695 0.5654 0.56681 0.0
C1952 C 0.1714 0.58836 0.60222 0.0
C1953 C 0.16207 0.61853 0.60408 0.0
C1954 C 0.13021 0.622 0.58659 0.0
C1955 C 0.10784 0.59527 0.56882 0.0
C1956 C 0.20485 0.58365 0.62149 0.0
C1957 C 0.11951 0.65384 0.58737 0.0
H1958 H 0.20284 0.68684 0.72348 0.0
H1959 H 0.24795 0.70628 0.60481 0.0
H1960 H 0.1336 0.62797 0.67849 0.0
H1961 H 0.16731 0.61235 0.7037 0.0
H1962 H 0.15557 0.64736 0.72713 0.0
H1963 H 0.2184 0.6347 0.54979 0.0
H1964 H 0.18613 0.65645 0.53689 0.0
H1965 H 0.22902 0.67628 0.54026 0.0
H1966 H 0.15584 0.53902 0.58135 0.0
H1967 H 0.08337 0.59786 0.55581 0.0
H1968 H 0.20734 0.59029 0.65652 0.0
H1969 H 0.22506 0.59935 0.60676 0.0
H1970 H 0.20844 0.55874 0.6169 0.0
H1971 H 0.11654 0.66152 0.62108 0.0
H1972 H 0.09558 0.65316 0.56794 0.0
H1973 H 0.13879 0.67201 0.57491 0.0
loop_
_geom_bond_atom_site_label_1
_geom_bond_atom_site_label_2
_geom_bond_distance
_geom_bond_site_symmetry_2
_ccdc_geom_bond_type
Co0 N5 2.057 . S
Co0 O17 2.021 . S
Co0 O20 2.062 . S
Co0 O24 2.117 . S
Co0 O25 2.020 . S
C1 O21 1.259 . S
C1 O24 1.258 . S
Co2 N11 2.057 . S
Co2 O18 2.117 . S
Co2 O19 2.020 . S
Co2 O21 2.021 . S
Co2 O26 2.062 . S
C3 N5 1.316 . S
C3 N6 1.347 . S
C3 H8 0.931 . S
C4 N5 1.375 . S
C4 C7 1.350 . S
C4 H9 0.930 . S
N5 Co0 2.057 . S
N5 C3 1.316 . S
N5 C4 1.375 . S
N6 C3 1.347 . S
N6 C7 1.373 . S
C7 C4 1.350 . S
C7 N6 1.373 . S
C7 H28 0.931 . S
H8 C3 0.931 . S
H9 C4 0.930 . S
C10 O17 1.259 . S
C10 O18 1.258 . S
N11 Co2 2.057 . S
N11 C12 1.316 . S
N11 C13 1.375 . S
C12 N11 1.316 . S
C12 N14 1.347 . S
C12 H23 0.931 . S
C13 N11 1.375 . S
C13 C15 1.350 . S
C13 H22 0.930 . S
N14 C12 1.347 . S
N14 C15 1.373 . S
C15 C13 1.350 . S
C15 N14 1.373 . S
C15 H29 0.931 . S
C16 O19 1.256 . S
C16 O20 1.255 . S
O17 Co0 2.021 . S
O17 C10 1.259 . S
O18 Co2 2.117 . S
O18 C10 1.258 . S
O19 Co2 2.020 . S
O19 C16 1.256 . S
O20 Co0 2.062 . S
O20 C16 1.255 . S
O21 C1 1.259 . S
O21 Co2 2.021 . S
H22 C13 0.930 . S
H23 C12 0.931 . S
O24 Co0 2.117 . S
O24 C1 1.258 . S
O25 Co0 2.020 . S
O25 C27 1.256 . S
O26 Co2 2.062 . S
O26 C27 1.255 . S
C27 O25 1.256 . S
C27 O26 1.255 . S
H28 C7 0.931 . S
H29 C15 0.931 . S
Co30 N35 2.057 . S
Co30 O47 2.021 . S
Co30 O50 2.062 . S
Co30 O54 2.117 . S
Co30 O55 2.020 . S
C31 O51 1.259 . S
C31 O54 1.258 . S
Co32 N41 2.057 . S
Co32 O48 2.117 . S
Co32 O49 2.020 . S
Co32 O51 2.021 . S
Co32 O56 2.062 . S
C33 N35 1.316 . S
C33 N36 1.347 . S
C33 H38 0.931 . S
C34 N35 1.375 . S
C34 C37 1.350 . S
C34 H39 0.930 . S
N35 Co30 2.057 . S
N35 C33 1.316 . S
N35 C34 1.375 . S
N36 C33 1.347 . S
N36 C37 1.373 . S
C37 C34 1.350 . S
C37 N36 1.373 . S
C37 H58 0.931 . S
H38 C33 0.931 . S
H39 C34 0.930 . S
C40 O47 1.259 . S
C40 O48 1.258 . S
N41 Co32 2.057 . S
N41 C42 1.316 . S
N41 C43 1.375 . S
C42 N41 1.316 . S
C42 N44 1.347 . S
C42 H53 0.931 . S
C43 N41 1.375 . S
C43 C45 1.350 . S
C43 H52 0.930 . S
N44 C42 1.347 . S
N44 C45 1.373 . S
C45 C43 1.350 . S
C45 N44 1.373 . S
C45 H59 0.931 . S
C46 O49 1.256 . S
C46 O50 1.255 . S
O47 Co30 2.021 . S
O47 C40 1.259 . S
O48 Co32 2.117 . S
O48 C40 1.258 . S
O49 Co32 2.020 . S
O49 C46 1.256 . S
O50 Co30 2.062 . S
O50 C46 1.255 . S
O51 C31 1.259 . S
O51 Co32 2.021 . S
H52 C43 0.930 . S
H53 C42 0.931 . S
O54 Co30 2.117 . S
O54 C31 1.258 . S
O55 Co30 2.020 . S
O55 C57 1.256 . S
O56 Co32 2.062 . S
O56 C57 1.255 . S
C57 O55 1.256 . S
C57 O56 1.255 . S
H58 C37 0.931 . S
H59 C45 0.931 . S
Co60 N65 2.057 . S
Co60 O77 2.021 . S
Co60 O80 2.062 . S
Co60 O84 2.117 . S
Co60 O85 2.020 . S
C61 O81 1.259 . S
C61 O84 1.258 . S
Co62 N71 2.057 . S
Co62 O78 2.117 . S
Co62 O79 2.020 . S
Co62 O81 2.021 . S
Co62 O86 2.062 . S
C63 N65 1.316 . S
C63 N66 1.347 . S
C63 H68 0.931 . S
C64 N65 1.375 . S
C64 C67 1.350 . S
C64 H69 0.930 . S
N65 Co60 2.057 . S
N65 C63 1.316 . S
N65 C64 1.375 . S
N66 C63 1.347 . S
N66 C67 1.373 . S
C67 C64 1.350 . S
C67 N66 1.373 . S
C67 H88 0.931 . S
H68 C63 0.931 . S
H69 C64 0.930 . S
C70 O77 1.259 . S
C70 O78 1.258 . S
N71 Co62 2.057 . S
N71 C72 1.316 . S
N71 C73 1.375 . S
C72 N71 1.316 . S
C72 N74 1.347 . S
C72 H83 0.931 . S
C73 N71 1.375 . S
C73 C75 1.350 . S
C73 H82 0.930 . S
N74 C72 1.347 . S
N74 C75 1.373 . S
C75 C73 1.350 . S
C75 N74 1.373 . S
C75 H89 0.931 . S
C76 O79 1.256 . S
C76 O80 1.255 . S
O77 Co60 2.021 . S
O77 C70 1.259 . S
O78 Co62 2.117 . S
O78 C70 1.258 . S
O79 Co62 2.020 . S
O79 C76 1.256 . S
O80 Co60 2.062 . S
O80 C76 1.255 . S
O81 C61 1.259 . S
O81 Co62 2.021 . S
H82 C73 0.930 . S
H83 C72 0.931 . S
O84 Co60 2.117 . S
O84 C61 1.258 . S
O85 Co60 2.020 . S
O85 C87 1.256 . S
O86 Co62 2.062 . S
O86 C87 1.255 . S
C87 O85 1.256 . S
C87 O86 1.255 . S
H88 C67 0.931 . S
H89 C75 0.931 . S
Co90 N95 2.057 . S
Co90 O107 2.021 . S
Co90 O110 2.062 . S
Co90 O114 2.117 . S
Co90 O115 2.020 . S
C91 O111 1.259 . S
C91 O114 1.258 . S
Co92 N101 2.057 . S
Co92 O108 2.117 . S
Co92 O109 2.020 . S
Co92 O111 2.021 . S
Co92 O116 2.062 . S
C93 N95 1.316 . S
C93 N96 1.347 . S
C93 H98 0.931 . S
C94 N95 1.375 . S
C94 C97 1.350 . S
C94 H99 0.930 . S
N95 Co90 2.057 . S
N95 C93 1.316 . S
N95 C94 1.375 . S
N96 C93 1.347 . S
N96 C97 1.373 . S
C97 C94 1.350 . S
C97 N96 1.373 . S
C97 H118 0.931 . S
H98 C93 0.931 . S
H99 C94 0.930 . S
C100 O107 1.259 . S
C100 O108 1.258 . S
N101 Co92 2.057 . S
N101 C102 1.316 . S
N101 C103 1.375 . S
C102 N101 1.316 . S
C102 N104 1.347 . S
C102 H113 0.931 . S
C103 N101 1.375 . S
C103 C105 1.350 . S
C103 H112 0.930 . S
N104 C102 1.347 . S
N104 C105 1.373 . S
C105 C103 1.350 . S
C105 N104 1.373 . S
C105 H119 0.931 . S
C106 O109 1.256 . S
C106 O110 1.255 . S
O107 Co90 2.021 . S
O107 C100 1.259 . S
O108 Co92 2.117 . S
O108 C100 1.258 . S
O109 Co92 2.020 . S
O109 C106 1.256 . S
O110 Co90 2.062 . S
O110 C106 1.255 . S
O111 C91 1.259 . S
O111 Co92 2.021 . S
H112 C103 0.930 . S
H113 C102 0.931 . S
O114 Co90 2.117 . S
O114 C91 1.258 . S
O115 Co90 2.020 . S
O115 C117 1.256 . S
O116 Co92 2.062 . S
O116 C117 1.255 . S
C117 O115 1.256 . S
C117 O116 1.255 . S
H118 C97 0.931 . S
H119 C105 0.931 . S
Co120 N125 2.057 . S
Co120 O137 2.021 . S
Co120 O140 2.062 . S
Co120 O144 2.117 . S
Co120 O145 2.020 . S
C121 O141 1.259 . S
C121 O144 1.258 . S
Co122 N131 2.057 . S
Co122 O138 2.117 . S
Co122 O139 2.020 . S
Co122 O141 2.021 . S
Co122 O146 2.062 . S
C123 N125 1.316 . S
C123 N126 1.347 . S
C123 H128 0.931 . S
C124 N125 1.375 . S
C124 C127 1.350 . S
C124 H129 0.930 . S
N125 Co120 2.057 . S
N125 C123 1.316 . S
N125 C124 1.375 . S
N126 C123 1.347 . S
N126 C127 1.373 . S
C127 C124 1.350 . S
C127 N126 1.373 . S
C127 H148 0.931 . S
H128 C123 0.931 . S
H129 C124 0.930 . S
C130 O137 1.259 . S
C130 O138 1.258 . S
N131 Co122 2.057 . S
N131 C132 1.316 . S
N131 C133 1.375 . S
C132 N131 1.316 . S
C132 N134 1.347 . S
C132 H143 0.931 . S
C133 N131 1.375 . S
C133 C135 1.350 . S
C133 H142 0.930 . S
N134 C132 1.347 . S
N134 C135 1.373 . S
C135 C133 1.350 . S
C135 N134 1.373 . S
C135 H149 0.931 . S
C136 O139 1.256 . S
C136 O140 1.255 . S
O137 Co120 2.021 . S
O137 C130 1.259 . S
O138 Co122 2.117 . S
O138 C130 1.258 . S
O139 Co122 2.020 . S
O139 C136 1.256 . S
O140 Co120 2.062 . S
O140 C136 1.255 . S
O141 C121 1.259 . S
O141 Co122 2.021 . S
H142 C133 0.930 . S
H143 C132 0.931 . S
O144 Co120 2.117 . S
O144 C121 1.258 . S
O145 Co120 2.020 . S
O145 C147 1.256 . S
O146 Co122 2.062 . S
O146 C147 1.255 . S
C147 O145 1.256 . S
C147 O146 1.255 . S
H148 C127 0.931 . S
H149 C135 0.931 . S
Co150 N155 2.057 . S
Co150 O167 2.021 . S
Co150 O170 2.062 . S
Co150 O174 2.117 . S
Co150 O175 2.020 . S
C151 O171 1.259 . S
C151 O174 1.258 . S
Co152 N161 2.057 . S
Co152 O168 2.117 . S
Co152 O169 2.020 . S
Co152 O171 2.021 . S
Co152 O176 2.062 . S
C153 N155 1.316 . S
C153 N156 1.347 . S
C153 H158 0.931 . S
C154 N155 1.375 . S
C154 C157 1.350 . S
C154 H159 0.930 . S
N155 Co150 2.057 . S
N155 C153 1.316 . S
N155 C154 1.375 . S
N156 C153 1.347 . S
N156 C157 1.373 . S
C157 C154 1.350 . S
C157 N156 1.373 . S
C157 H178 0.931 . S
H158 C153 0.931 . S
H159 C154 0.930 . S
C160 O167 1.259 . S
C160 O168 1.258 . S
N161 Co152 2.057 . S
N161 C162 1.316 . S
N161 C163 1.375 . S
C162 N161 1.316 . S
C162 N164 1.347 . S
C162 H173 0.931 . S
C163 N161 1.375 . S
C163 C165 1.350 . S
C163 H172 0.930 . S
N164 C162 1.347 . S
N164 C165 1.373 . S
C165 C163 1.350 . S
C165 N164 1.373 . S
C165 H179 0.931 . S
C166 O169 1.256 . S
C166 O170 1.255 . S
O167 Co150 2.021 . S
O167 C160 1.259 . S
O168 Co152 2.117 . S
O168 C160 1.258 . S
O169 Co152 2.020 . S
O169 C166 1.256 . S
O170 Co150 2.062 . S
O170 C166 1.255 . S
O171 C151 1.259 . S
O171 Co152 2.021 . S
H172 C163 0.930 . S
H173 C162 0.931 . S
O174 Co150 2.117 . S
O174 C151 1.258 . S
O175 Co150 2.020 . S
O175 C177 1.256 . S
O176 Co152 2.062 . S
O176 C177 1.255 . S
C177 O175 1.256 . S
C177 O176 1.255 . S
H178 C157 0.931 . S
H179 C165 0.931 . S
Co180 N185 2.057 . S
Co180 O197 2.021 . S
Co180 O200 2.062 . S
Co180 O204 2.117 . S
Co180 O205 2.020 . S
C181 O201 1.259 . S
C181 O204 1.258 . S
Co182 N191 2.057 . S
Co182 O198 2.117 . S
Co182 O199 2.020 . S
Co182 O201 2.021 . S
Co182 O206 2.062 . S
C183 N185 1.316 . S
C183 N186 1.347 . S
C183 H188 0.931 . S
C184 N185 1.375 . S
C184 C187 1.350 . S
C184 H189 0.930 . S
N185 Co180 2.057 . S
N185 C183 1.316 . S
N185 C184 1.375 . S
N186 C183 1.347 . S
N186 C187 1.373 . S
C187 C184 1.350 . S
C187 N186 1.373 . S
C187 H208 0.931 . S
H188 C183 0.931 . S
H189 C184 0.930 . S
C190 O197 1.259 . S
C190 O198 1.258 . S
N191 Co182 2.057 . S
N191 C192 1.316 . S
N191 C193 1.375 . S
C192 N191 1.316 . S
C192 N194 1.347 . S
C192 H203 0.931 . S
C193 N191 1.375 . S
C193 C195 1.350 . S
C193 H202 0.930 . S
N194 C192 1.347 . S
N194 C195 1.373 . S
C195 C193 1.350 . S
C195 N194 1.373 . S
C195 H209 0.931 . S
C196 O199 1.256 . S
C196 O200 1.255 . S
O197 Co180 2.021 . S
O197 C190 1.259 . S
O198 Co182 2.117 . S
O198 C190 1.258 . S
O199 Co182 2.020 . S
O199 C196 1.256 . S
O200 Co180 2.062 . S
O200 C196 1.255 . S
O201 C181 1.259 . S
O201 Co182 2.021 . S
H202 C193 0.930 . S
H203 C192 0.931 . S
O204 Co180 2.117 . S
O204 C181 1.258 . S
O205 Co180 2.020 . S
O205 C207 1.256 . S
O206 Co182 2.062 . S
O206 C207 1.255 . S
C207 O205 1.256 . S
C207 O206 1.255 . S
H208 C187 0.931 . S
H209 C195 0.931 . S
Co210 N215 2.057 . S
Co210 O227 2.021 . S
Co210 O230 2.062 . S
Co210 O234 2.117 . S
Co210 O235 2.020 . S
C211 O231 1.259 . S
C211 O234 1.258 . S
Co212 N221 2.057 . S
Co212 O228 2.117 . S
Co212 O229 2.020 . S
Co212 O231 2.021 . S
Co212 O236 2.062 . S
C213 N215 1.316 . S
C213 N216 1.347 . S
C213 H218 0.931 . S
C214 N215 1.375 . S
C214 C217 1.350 . S
C214 H219 0.930 . S
N215 Co210 2.057 . S
N215 C213 1.316 . S
N215 C214 1.375 . S
N216 C213 1.347 . S
N216 C217 1.373 . S
C217 C214 1.350 . S
C217 N216 1.373 . S
C217 H238 0.931 . S
H218 C213 0.931 . S
H219 C214 0.930 . S
C220 O227 1.259 . S
C220 O228 1.258 . S
N221 Co212 2.057 . S
N221 C222 1.316 . S
N221 C223 1.375 . S
C222 N221 1.316 . S
C222 N224 1.347 . S
C222 H233 0.931 . S
C223 N221 1.375 . S
C223 C225 1.350 . S
C223 H232 0.930 . S
N224 C222 1.347 . S
N224 C225 1.373 . S
C225 C223 1.350 . S
C225 N224 1.373 . S
C225 H239 0.931 . S
C226 O229 1.256 . S
C226 O230 1.255 . S
O227 Co210 2.021 . S
O227 C220 1.259 . S
O228 Co212 2.117 . S
O228 C220 1.258 . S
O229 Co212 2.020 . S
O229 C226 1.256 . S
O230 Co210 2.062 . S
O230 C226 1.255 . S
O231 C211 1.259 . S
O231 Co212 2.021 . S
H232 C223 0.930 . S
H233 C222 0.931 . S
O234 Co210 2.117 . S
O234 C211 1.258 . S
O235 Co210 2.020 . S
O235 C237 1.256 . S
O236 Co212 2.062 . S
O236 C237 1.255 . S
C237 O235 1.256 . S
C237 O236 1.255 . S
H238 C217 0.931 . S
H239 C225 0.931 . S
Co240 O243 2.042 . S
Co240 O250 2.264 . S
Co240 O269 2.286 . S
Co240 O270 2.069 . S
Co240 O272 2.015 1_455 S
Co241 O243 2.122 . S
Co241 O249 2.073 . S
Co241 O250 2.327 . S
Co241 O251 1.976 1_455 S
Co242 O243 2.077 1_545 S
Co242 O245 2.097 1_455 S
Co242 O252 2.107 1_445 S
Co242 O253 2.150 . S
Co242 O257 2.116 . S
Co242 O271 2.137 1_445 S
O243 Co240 2.042 . S
O243 Co241 2.122 . S
O243 Co242 2.077 1_565 S
O243 H244 0.980 . S
H244 O243 0.980 . S
O245 Co242 2.097 1_655 S
O245 Co246 2.042 . S
O245 Co247 2.122 . S
O245 H248 0.980 . S
Co246 O245 2.042 . S
Co246 O254 2.286 . S
Co246 O255 2.069 . S
Co246 O256 2.015 1_655 S
Co246 O259 2.264 . S
Co247 O245 2.122 . S
Co247 O258 1.976 1_655 S
Co247 O259 2.327 . S
Co247 O260 2.073 . S
H248 O245 0.980 . S
O249 Co241 2.073 . S
O249 C264 1.245 . S
O250 Co240 2.264 . S
O250 Co241 2.327 . S
O250 C264 1.257 . S
O251 Co241 1.976 1_655 S
O251 C263 1.251 . S
O252 Co242 2.107 1_665 S
O252 C263 1.274 . S
O253 Co242 2.150 . S
O253 C266 1.246 . S
O254 Co246 2.286 . S
O254 C265 1.259 . S
O255 Co246 2.069 . S
O255 C265 1.289 . S
O256 Co246 2.015 1_455 S
O256 C266 1.257 . S
O257 Co242 2.116 . S
O257 C267 1.274 . S
O258 Co247 1.976 1_455 S
O258 C267 1.251 . S
O259 Co246 2.264 . S
O259 Co247 2.327 . S
O259 C268 1.257 . S
O260 Co247 2.073 . S
O260 C268 1.245 . S
C261 O269 1.259 . S
C261 O270 1.289 . S
C262 O271 1.246 . S
C262 O272 1.257 . S
C263 O251 1.251 . S
C263 O252 1.274 . S
C264 O249 1.245 . S
C264 O250 1.257 . S
C265 O254 1.259 . S
C265 O255 1.289 . S
C266 O253 1.246 . S
C266 O256 1.257 . S
C267 O257 1.274 . S
C267 O258 1.251 . S
C268 O259 1.257 . S
C268 O260 1.245 . S
O269 Co240 2.286 . S
O269 C261 1.259 . S
O270 Co240 2.069 . S
O270 C261 1.289 . S
O271 Co242 2.137 1_665 S
O271 C262 1.246 . S
O272 Co240 2.015 1_655 S
O272 C262 1.257 . S
Co273 O276 2.042 1_556 S
Co273 O283 2.264 1_556 S
Co273 O302 2.286 . S
Co273 O303 2.069 . S
Co273 O305 2.015 . S
Co274 O276 2.122 . S
Co274 O282 2.073 . S
Co274 O283 2.327 . S
Co274 O284 1.976 . S
Co275 O276 2.077 1_545 S
Co275 O278 2.097 1_554 S
Co275 O285 2.107 1_545 S
Co275 O286 2.150 . S
Co275 O290 2.115 1_554 S
Co275 O304 2.137 1_544 S
O276 Co273 2.042 1_554 S
O276 Co274 2.122 . S
O276 Co275 2.077 1_565 S
O276 H277 0.980 . S
H277 O276 0.980 . S
O278 Co275 2.097 1_556 S
O278 Co279 2.042 1_556 S
O278 Co280 2.122 . S
O278 H281 0.980 . S
Co279 O278 2.042 1_554 S
Co279 O287 2.286 . S
Co279 O288 2.069 . S
Co279 O289 2.015 . S
Co279 O292 2.264 1_554 S
Co280 O278 2.122 . S
Co280 O291 1.976 . S
Co280 O292 2.327 . S
Co280 O293 2.073 . S
H281 O278 0.980 . S
O282 Co274 2.073 . S
O282 C297 1.245 . S
O283 Co273 2.264 1_554 S
O283 Co274 2.327 . S
O283 C297 1.257 . S
O284 Co274 1.976 . S
O284 C296 1.251 . S
O285 Co275 2.107 1_565 S
O285 C296 1.274 . S
O286 Co275 2.150 . S
O286 C299 1.246 . S
O287 Co279 2.286 . S
O287 C298 1.259 . S
O288 Co279 2.069 . S
O288 C298 1.289 . S
O289 Co279 2.015 . S
O289 C299 1.257 . S
O290 Co275 2.115 1_556 S
O290 C300 1.274 . S
O291 Co280 1.976 . S
O291 C300 1.251 . S
O292 Co279 2.264 1_556 S
O292 Co280 2.327 . S
O292 C301 1.257 . S
O293 Co280 2.073 . S
O293 C301 1.245 . S
C294 O302 1.259 . S
C294 O303 1.289 . S
C295 O304 1.246 . S
C295 O305 1.257 . S
C296 O284 1.251 . S
C296 O285 1.274 . S
C297 O282 1.245 . S
C297 O283 1.257 . S
C298 O287 1.259 . S
C298 O288 1.289 . S
C299 O286 1.246 . S
C299 O289 1.257 . S
C300 O290 1.274 . S
C300 O291 1.251 . S
C301 O292 1.257 . S
C301 O293 1.245 . S
O302 Co273 2.286 . S
O302 C294 1.259 . S
O303 Co273 2.069 . S
O303 C294 1.289 . S
O304 Co275 2.137 1_566 S
O304 C295 1.246 . S
O305 Co273 2.015 . S
O305 C295 1.257 . S
Co306 O309 2.042 1_556 S
Co306 O316 2.264 1_556 S
Co306 O335 2.286 . S
Co306 O336 2.069 . S
Co306 O338 2.015 1_455 S
Co307 O309 2.122 . S
Co307 O315 2.073 . S
Co307 O316 2.327 . S
Co307 O317 1.976 1_455 S
Co308 O309 2.087 . S
Co308 O311 2.087 1_454 S
Co308 O318 2.111 1_455 S
Co308 O319 2.144 . S
Co308 O323 2.112 1_554 S
Co308 O337 2.143 1_454 S
O309 Co306 2.042 1_554 S
O309 Co307 2.122 . S
O309 Co308 2.087 . S
O309 H310 0.980 . S
H310 O309 0.980 . S
O311 Co308 2.087 1_656 S
O311 Co312 2.042 1_556 S
O311 Co313 2.122 . S
O311 H314 0.980 . S
Co312 O311 2.042 1_554 S
Co312 O320 2.286 . S
Co312 O321 2.069 . S
Co312 O322 2.015 1_655 S
Co312 O325 2.264 1_554 S
Co313 O311 2.122 . S
Co313 O324 1.976 1_655 S
Co313 O325 2.327 . S
Co313 O326 2.073 . S
H314 O311 0.980 . S
O315 Co307 2.073 . S
O315 C330 1.245 . S
O316 Co306 2.264 1_554 S
O316 Co307 2.327 . S
O316 C330 1.257 . S
O317 Co307 1.976 1_655 S
O317 C329 1.251 . S
O318 Co308 2.111 1_655 S
O318 C329 1.274 . S
O319 Co308 2.144 . S
O319 C332 1.246 . S
O320 Co312 2.286 . S
O320 C331 1.259 . S
O321 Co312 2.069 . S
O321 C331 1.289 . S
O322 Co312 2.015 1_455 S
O322 C332 1.257 . S
O323 Co308 2.112 1_556 S
O323 C333 1.274 . S
O324 Co313 1.976 1_455 S
O324 C333 1.251 . S
O325 Co312 2.264 1_556 S
O325 Co313 2.327 . S
O325 C334 1.257 . S
O326 Co313 2.073 . S
O326 C334 1.245 . S
C327 O335 1.259 . S
C327 O336 1.289 . S
C328 O337 1.246 . S
C328 O338 1.257 . S
C329 O317 1.251 . S
C329 O318 1.274 . S
C330 O315 1.245 . S
C330 O316 1.257 . S
C331 O320 1.259 . S
C331 O321 1.289 . S
C332 O319 1.246 . S
C332 O322 1.257 . S
C333 O323 1.274 . S
C333 O324 1.251 . S
C334 O325 1.257 . S
C334 O326 1.245 . S
O335 Co306 2.286 . S
O335 C327 1.259 . S
O336 Co306 2.069 . S
O336 C327 1.289 . S
O337 Co308 2.143 1_656 S
O337 C328 1.246 . S
O338 Co306 2.015 1_655 S
O338 C328 1.257 . S
Co339 O342 2.042 1_556 S
Co339 O349 2.264 1_556 S
Co339 O368 2.286 . S
Co339 O369 2.069 . S
Co339 O371 2.015 . S
Co340 O342 2.122 . S
Co340 O348 2.073 . S
Co340 O349 2.327 . S
Co340 O350 1.976 . S
Co341 O342 2.087 . S
Co341 O344 2.087 1_554 S
Co341 O351 2.111 . S
Co341 O352 2.143 . S
Co341 O356 2.111 1_554 S
Co341 O370 2.143 1_554 S
O342 Co339 2.042 1_554 S
O342 Co340 2.122 . S
O342 Co341 2.087 . S
O342 H343 0.980 . S
H343 O342 0.980 . S
O344 Co341 2.087 1_556 S
O344 Co345 2.042 1_556 S
O344 Co346 2.122 . S
O344 H347 0.980 . S
Co345 O344 2.042 1_554 S
Co345 O353 2.286 . S
Co345 O354 2.069 . S
Co345 O355 2.015 . S
Co345 O358 2.264 1_554 S
Co346 O344 2.122 . S
Co346 O357 1.976 . S
Co346 O358 2.327 . S
Co346 O359 2.073 . S
H347 O344 0.980 . S
O348 Co340 2.073 . S
O348 C363 1.245 . S
O349 Co339 2.264 1_554 S
O349 Co340 2.327 . S
O349 C363 1.257 . S
O350 Co340 1.976 . S
O350 C362 1.251 . S
O351 Co341 2.111 . S
O351 C362 1.274 . S
O352 Co341 2.143 . S
O352 C365 1.246 . S
O353 Co345 2.286 . S
O353 C364 1.259 . S
O354 Co345 2.069 . S
O354 C364 1.289 . S
O355 Co345 2.015 . S
O355 C365 1.257 . S
O356 Co341 2.111 1_556 S
O356 C366 1.274 . S
O357 Co346 1.976 . S
O357 C366 1.251 . S
O358 Co345 2.264 1_556 S
O358 Co346 2.327 . S
O358 C367 1.257 . S
O359 Co346 2.073 . S
O359 C367 1.245 . S
C360 O368 1.259 . S
C360 O369 1.289 . S
C361 O370 1.246 . S
C361 O371 1.257 . S
C362 O350 1.251 . S
C362 O351 1.274 . S
C363 O348 1.245 . S
C363 O349 1.257 . S
C364 O353 1.259 . S
C364 O354 1.289 . S
C365 O352 1.246 . S
C365 O355 1.257 . S
C366 O356 1.274 . S
C366 O357 1.251 . S
C367 O358 1.257 . S
C367 O359 1.245 . S
O368 Co339 2.286 . S
O368 C360 1.259 . S
O369 Co339 2.069 . S
O369 C360 1.289 . S
O370 Co341 2.143 1_556 S
O370 C361 1.246 . S
O371 Co339 2.015 . S
O371 C361 1.257 . S
Co372 O375 2.042 . S
Co372 O382 2.264 . S
Co372 O401 2.286 . S
Co372 O402 2.069 . S
Co372 O404 2.015 . S
Co373 O375 2.122 . S
Co373 O381 2.073 . S
Co373 O382 2.327 . S
Co373 O383 1.976 . S
Co374 O375 2.087 . S
Co374 O377 2.087 1_455 S
Co374 O384 2.111 . S
Co374 O385 2.143 1_455 S
Co374 O389 2.111 1_455 S
Co374 O403 2.144 . S
O375 Co372 2.042 . S
O375 Co373 2.122 . S
O375 Co374 2.087 . S
O375 H376 0.980 . S
H376 O375 0.980 . S
O377 Co374 2.087 1_655 S
O377 Co378 2.042 . S
O377 Co379 2.122 . S
O377 H380 0.980 . S
Co378 O377 2.042 . S
Co378 O386 2.286 . S
Co378 O387 2.069 . S
Co378 O388 2.015 . S
Co378 O391 2.264 . S
Co379 O377 2.122 . S
Co379 O390 1.976 . S
Co379 O391 2.327 . S
Co379 O392 2.073 . S
H380 O377 0.980 . S
O381 Co373 2.073 . S
O381 C396 1.245 . S
O382 Co372 2.264 . S
O382 Co373 2.327 . S
O382 C396 1.257 . S
O383 Co373 1.976 . S
O383 C395 1.251 . S
O384 Co374 2.111 . S
O384 C395 1.274 . S
O385 Co374 2.143 1_655 S
O385 C398 1.246 . S
O386 Co378 2.286 . S
O386 C397 1.259 . S
O387 Co378 2.069 . S
O387 C397 1.289 . S
O388 Co378 2.015 . S
O388 C398 1.257 . S
O389 Co374 2.111 1_655 S
O389 C399 1.274 . S
O390 Co379 1.976 . S
O390 C399 1.251 . S
O391 Co378 2.264 . S
O391 Co379 2.327 . S
O391 C400 1.257 . S
O392 Co379 2.073 . S
O392 C400 1.245 . S
C393 O401 1.259 . S
C393 O402 1.289 . S
C394 O403 1.246 . S
C394 O404 1.257 . S
C395 O383 1.251 . S
C395 O384 1.274 . S
C396 O381 1.245 . S
C396 O382 1.257 . S
C397 O386 1.259 . S
C397 O387 1.289 . S
C398 O385 1.246 . S
C398 O388 1.257 . S
C399 O389 1.274 . S
C399 O390 1.251 . S
C400 O391 1.257 . S
C400 O392 1.245 . S
O401 Co372 2.286 . S
O401 C393 1.259 . S
O402 Co372 2.069 . S
O402 C393 1.289 . S
O403 Co374 2.144 . S
O403 C394 1.246 . S
O404 Co372 2.015 . S
O404 C394 1.257 . S
Co405 O408 2.042 . S
Co405 O415 2.264 . S
Co405 O434 2.286 . S
Co405 O435 2.069 . S
Co405 O437 2.015 1_565 S
Co406 O408 2.122 . S
Co406 O414 2.073 . S
Co406 O415 2.327 . S
Co406 O416 1.976 1_565 S
Co407 O408 2.077 1_545 S
Co407 O410 2.097 . S
Co407 O417 2.119 . S
Co407 O418 2.139 1_545 S
Co407 O422 2.104 1_545 S
Co407 O436 2.148 . S
O408 Co405 2.042 . S
O408 Co406 2.122 . S
O408 Co407 2.077 1_565 S
O408 H409 0.980 . S
H409 O408 0.980 . S
O410 Co407 2.097 . S
O410 Co411 2.042 . S
O410 Co412 2.122 . S
O410 H413 0.980 . S
Co411 O410 2.042 . S
Co411 O419 2.286 . S
Co411 O420 2.069 . S
Co411 O421 2.015 1_545 S
Co411 O424 2.264 . S
Co412 O410 2.122 . S
Co412 O423 1.976 1_545 S
Co412 O424 2.327 . S
Co412 O425 2.073 . S
H413 O410 0.980 . S
O414 Co406 2.073 . S
O414 C429 1.245 . S
O415 Co405 2.264 . S
O415 Co406 2.327 . S
O415 C429 1.257 . S
O416 Co406 1.976 1_545 S
O416 C428 1.251 . S
O417 Co407 2.119 . S
O417 C428 1.274 . S
O418 Co407 2.139 1_565 S
O418 C431 1.246 . S
O419 Co411 2.286 . S
O419 C430 1.259 . S
O420 Co411 2.069 . S
O420 C430 1.289 . S
O421 Co411 2.015 1_565 S
O421 C431 1.257 . S
O422 Co407 2.104 1_565 S
O422 C432 1.274 . S
O423 Co412 1.976 1_565 S
O423 C432 1.251 . S
O424 Co411 2.264 . S
O424 Co412 2.327 . S
O424 C433 1.257 . S
O425 Co412 2.073 . S
O425 C433 1.245 . S
C426 O434 1.259 . S
C426 O435 1.289 . S
C427 O436 1.246 . S
C427 O437 1.257 . S
C428 O416 1.251 . S
C428 O417 1.274 . S
C429 O414 1.245 . S
C429 O415 1.257 . S
C430 O419 1.259 . S
C430 O420 1.289 . S
C431 O418 1.246 . S
C431 O421 1.257 . S
C432 O422 1.274 . S
C432 O423 1.251 . S
C433 O424 1.257 . S
C433 O425 1.245 . S
O434 Co405 2.286 . S
O434 C426 1.259 . S
O435 Co405 2.069 . S
O435 C426 1.289 . S
O436 Co407 2.148 . S
O436 C427 1.246 . S
O437 Co405 2.015 1_545 S
O437 C427 1.257 . S
C438 C439 1.391 . S
C438 C440 1.394 . S
C438 H454 0.931 . S
C439 C438 1.391 . S
C439 C443 1.376 . S
C440 C438 1.394 . S
C440 C441 1.369 . S
C440 C444 1.531 . S
C441 C440 1.369 . S
C441 C442 1.410 . S
C441 C449 1.503 . S
C442 C441 1.410 . S
C442 C443 1.392 . S
C442 C445 1.511 . S
C443 C439 1.376 . S
C443 C442 1.392 . S
C443 H455 0.929 . S
C444 C440 1.531 . S
C444 H456 0.960 . S
C444 H457 0.962 . S
C444 H458 0.960 . S
C445 C442 1.511 . S
C445 H459 0.961 . S
C445 H460 0.961 . S
C445 H461 0.961 . S
C446 C447 1.370 . S
C446 C448 1.363 . S
C446 H462 0.931 . S
C447 C446 1.370 . S
C447 C451 1.408 . S
C448 C446 1.363 . S
C448 C449 1.370 . S
C448 C452 1.524 . S
C449 C441 1.503 . S
C449 C448 1.370 . S
C449 C450 1.403 . S
C450 C449 1.403 . S
C450 C451 1.404 . S
C450 C453 1.539 . S
C451 C447 1.408 . S
C451 C450 1.404 . S
C451 H463 0.930 . S
C452 C448 1.524 . S
C452 H464 0.956 . S
C452 H465 0.961 . S
C452 H466 0.961 . S
C453 C450 1.539 . S
C453 H467 0.958 . S
C453 H468 0.961 . S
C453 H469 0.960 . S
H454 C438 0.931 . S
H455 C443 0.929 . S
H456 C444 0.960 . S
H457 C444 0.962 . S
H458 C444 0.960 . S
H459 C445 0.961 . S
H460 C445 0.961 . S
H461 C445 0.961 . S
H462 C446 0.931 . S
H463 C451 0.930 . S
H464 C452 0.956 . S
H465 C452 0.961 . S
H466 C452 0.961 . S
H467 C453 0.958 . S
H468 C453 0.961 . S
H469 C453 0.960 . S
C470 C471 1.391 . S
C470 C472 1.394 . S
C470 H486 0.931 . S
C471 C470 1.391 . S
C471 C475 1.376 . S
C472 C470 1.394 . S
C472 C473 1.369 . S
C472 C476 1.531 . S
C473 C472 1.369 . S
C473 C474 1.410 . S
C473 C481 1.503 . S
C474 C473 1.410 . S
C474 C475 1.392 . S
C474 C477 1.511 . S
C475 C471 1.376 . S
C475 C474 1.392 . S
C475 H487 0.929 . S
C476 C472 1.531 . S
C476 H488 0.960 . S
C476 H489 0.962 . S
C476 H490 0.960 . S
C477 C474 1.511 . S
C477 H491 0.961 . S
C477 H492 0.961 . S
C477 H493 0.961 . S
C478 C479 1.370 . S
C478 C480 1.363 . S
C478 H494 0.931 . S
C479 C478 1.370 . S
C479 C483 1.408 . S
C480 C478 1.363 . S
C480 C481 1.370 . S
C480 C484 1.524 . S
C481 C473 1.503 . S
C481 C480 1.370 . S
C481 C482 1.403 . S
C482 C481 1.403 . S
C482 C483 1.404 . S
C482 C485 1.539 . S
C483 C479 1.408 . S
C483 C482 1.404 . S
C483 H495 0.930 . S
C484 C480 1.524 . S
C484 H496 0.956 . S
C484 H497 0.961 . S
C484 H498 0.961 . S
C485 C482 1.539 . S
C485 H499 0.958 . S
C485 H500 0.961 . S
C485 H501 0.960 . S
H486 C470 0.931 . S
H487 C475 0.929 . S
H488 C476 0.960 . S
H489 C476 0.962 . S
H490 C476 0.960 . S
H491 C477 0.961 . S
H492 C477 0.961 . S
H493 C477 0.961 . S
H494 C478 0.931 . S
H495 C483 0.930 . S
H496 C484 0.956 . S
H497 C484 0.961 . S
H498 C484 0.961 . S
H499 C485 0.958 . S
H500 C485 0.961 . S
H501 C485 0.960 . S
C502 C503 1.391 . S
C502 C504 1.394 . S
C502 H518 0.931 . S
C503 C502 1.391 . S
C503 C507 1.376 . S
C504 C502 1.394 . S
C504 C505 1.369 . S
C504 C508 1.531 . S
C505 C504 1.369 . S
C505 C506 1.410 . S
C505 C513 1.503 . S
C506 C505 1.410 . S
C506 C507 1.392 . S
C506 C509 1.511 . S
C507 C503 1.376 . S
C507 C506 1.392 . S
C507 H519 0.929 . S
C508 C504 1.531 . S
C508 H520 0.960 . S
C508 H521 0.962 . S
C508 H522 0.960 . S
C509 C506 1.511 . S
C509 H523 0.961 . S
C509 H524 0.961 . S
C509 H525 0.961 . S
C510 C511 1.370 . S
C510 C512 1.363 . S
C510 H526 0.931 . S
C511 C510 1.370 . S
C511 C515 1.408 . S
C512 C510 1.363 . S
C512 C513 1.370 . S
C512 C516 1.524 . S
C513 C505 1.503 . S
C513 C512 1.370 . S
C513 C514 1.403 . S
C514 C513 1.403 . S
C514 C515 1.404 . S
C514 C517 1.539 . S
C515 C511 1.408 . S
C515 C514 1.404 . S
C515 H527 0.930 . S
C516 C512 1.524 . S
C516 H528 0.956 . S
C516 H529 0.961 . S
C516 H530 0.961 . S
C517 C514 1.539 . S
C517 H531 0.958 . S
C517 H532 0.961 . S
C517 H533 0.960 . S
H518 C502 0.931 . S
H519 C507 0.929 . S
H520 C508 0.960 . S
H521 C508 0.962 . S
H522 C508 0.960 . S
H523 C509 0.961 . S
H524 C509 0.961 . S
H525 C509 0.961 . S
H526 C510 0.931 . S
H527 C515 0.930 . S
H528 C516 0.956 . S
H529 C516 0.961 . S
H530 C516 0.961 . S
H531 C517 0.958 . S
H532 C517 0.961 . S
H533 C517 0.960 . S
C534 C535 1.391 . S
C534 C536 1.394 . S
C534 H550 0.931 . S
C535 C534 1.391 . S
C535 C539 1.376 . S
C536 C534 1.394 . S
C536 C537 1.369 . S
C536 C540 1.531 . S
C537 C536 1.369 . S
C537 C538 1.410 . S
C537 C545 1.503 . S
C538 C537 1.410 . S
C538 C539 1.392 . S
C538 C541 1.511 . S
C539 C535 1.376 . S
C539 C538 1.392 . S
C539 H551 0.929 . S
C540 C536 1.531 . S
C540 H552 0.960 . S
C540 H553 0.962 . S
C540 H554 0.960 . S
C541 C538 1.511 . S
C541 H555 0.961 . S
C541 H556 0.961 . S
C541 H557 0.961 . S
C542 C543 1.370 . S
C542 C544 1.363 . S
C542 H558 0.931 . S
C543 C542 1.370 . S
C543 C547 1.408 . S
C544 C542 1.363 . S
C544 C545 1.370 . S
C544 C548 1.524 . S
C545 C537 1.503 . S
C545 C544 1.370 . S
C545 C546 1.403 . S
C546 C545 1.403 . S
C546 C547 1.404 . S
C546 C549 1.539 . S
C547 C543 1.408 . S
C547 C546 1.404 . S
C547 H559 0.930 . S
C548 C544 1.524 . S
C548 H560 0.956 . S
C548 H561 0.961 . S
C548 H562 0.961 . S
C549 C546 1.539 . S
C549 H563 0.958 . S
C549 H564 0.961 . S
C549 H565 0.960 . S
H550 C534 0.931 . S
H551 C539 0.929 . S
H552 C540 0.960 . S
H553 C540 0.962 . S
H554 C540 0.960 . S
H555 C541 0.961 . S
H556 C541 0.961 . S
H557 C541 0.961 . S
H558 C542 0.931 . S
H559 C547 0.930 . S
H560 C548 0.956 . S
H561 C548 0.961 . S
H562 C548 0.961 . S
H563 C549 0.958 . S
H564 C549 0.961 . S
H565 C549 0.960 . S
C566 C567 1.391 . S
C566 C568 1.394 . S
C566 H582 0.931 . S
C567 C566 1.391 . S
C567 C571 1.376 . S
C568 C566 1.394 . S
C568 C569 1.369 . S
C568 C572 1.531 . S
C569 C568 1.369 . S
C569 C570 1.410 . S
C569 C577 1.503 . S
C570 C569 1.410 . S
C570 C571 1.392 . S
C570 C573 1.511 . S
C571 C567 1.376 . S
C571 C570 1.392 . S
C571 H583 0.929 . S
C572 C568 1.531 . S
C572 H584 0.960 . S
C572 H585 0.962 . S
C572 H586 0.960 . S
C573 C570 1.511 . S
C573 H587 0.961 . S
C573 H588 0.961 . S
C573 H589 0.961 . S
C574 C575 1.370 . S
C574 C576 1.363 . S
C574 H590 0.931 . S
C575 C574 1.370 . S
C575 C579 1.408 . S
C576 C574 1.363 . S
C576 C577 1.370 . S
C576 C580 1.524 . S
C577 C569 1.503 . S
C577 C576 1.370 . S
C577 C578 1.403 . S
C578 C577 1.403 . S
C578 C579 1.404 . S
C578 C581 1.539 . S
C579 C575 1.408 . S
C579 C578 1.404 . S
C579 H591 0.930 . S
C580 C576 1.524 . S
C580 H592 0.956 . S
C580 H593 0.961 . S
C580 H594 0.961 . S
C581 C578 1.539 . S
C581 H595 0.958 . S
C581 H596 0.961 . S
C581 H597 0.960 . S
H582 C566 0.931 . S
H583 C571 0.929 . S
H584 C572 0.960 . S
H585 C572 0.962 . S
H586 C572 0.960 . S
H587 C573 0.961 . S
H588 C573 0.961 . S
H589 C573 0.961 . S
H590 C574 0.931 . S
H591 C579 0.930 . S
H592 C580 0.956 . S
H593 C580 0.961 . S
H594 C580 0.961 . S
H595 C581 0.958 . S
H596 C581 0.961 . S
H597 C581 0.960 . S
C598 C599 1.391 . S
C598 C600 1.394 . S
C598 H614 0.931 . S
C599 C598 1.391 . S
C599 C603 1.376 . S
C600 C598 1.394 . S
C600 C601 1.369 . S
C600 C604 1.531 . S
C601 C600 1.369 . S
C601 C602 1.410 . S
C601 C609 1.503 . S
C602 C601 1.410 . S
C602 C603 1.392 . S
C602 C605 1.511 . S
C603 C599 1.376 . S
C603 C602 1.392 . S
C603 H615 0.929 . S
C604 C600 1.531 . S
C604 H616 0.960 . S
C604 H617 0.962 . S
C604 H618 0.960 . S
C605 C602 1.511 . S
C605 H619 0.961 . S
C605 H620 0.961 . S
C605 H621 0.961 . S
C606 C607 1.370 . S
C606 C608 1.363 . S
C606 H622 0.931 . S
C607 C606 1.370 . S
C607 C611 1.408 . S
C608 C606 1.363 . S
C608 C609 1.370 . S
C608 C612 1.524 . S
C609 C601 1.503 . S
C609 C608 1.370 . S
C609 C610 1.403 . S
C610 C609 1.403 . S
C610 C611 1.404 . S
C610 C613 1.539 . S
C611 C607 1.408 . S
C611 C610 1.404 . S
C611 H623 0.930 . S
C612 C608 1.524 . S
C612 H624 0.956 . S
C612 H625 0.961 . S
C612 H626 0.961 . S
C613 C610 1.539 . S
C613 H627 0.958 . S
C613 H628 0.961 . S
C613 H629 0.960 . S
H614 C598 0.931 . S
H615 C603 0.929 . S
H616 C604 0.960 . S
H617 C604 0.962 . S
H618 C604 0.960 . S
H619 C605 0.961 . S
H620 C605 0.961 . S
H621 C605 0.961 . S
H622 C606 0.931 . S
H623 C611 0.930 . S
H624 C612 0.956 . S
H625 C612 0.961 . S
H626 C612 0.961 . S
H627 C613 0.958 . S
H628 C613 0.961 . S
H629 C613 0.960 . S
C630 C631 1.391 . S
C630 C632 1.394 . S
C630 H646 0.931 . S
C631 C630 1.391 . S
C631 C635 1.376 . S
C632 C630 1.394 . S
C632 C633 1.369 . S
C632 C636 1.531 . S
C633 C632 1.369 . S
C633 C634 1.410 . S
C633 C641 1.503 . S
C634 C633 1.410 . S
C634 C635 1.392 . S
C634 C637 1.511 . S
C635 C631 1.376 . S
C635 C634 1.392 . S
C635 H647 0.929 . S
C636 C632 1.531 . S
C636 H648 0.960 . S
C636 H649 0.962 . S
C636 H650 0.960 . S
C637 C634 1.511 . S
C637 H651 0.961 . S
C637 H652 0.961 . S
C637 H653 0.961 . S
C638 C639 1.370 . S
C638 C640 1.363 . S
C638 H654 0.931 . S
C639 C638 1.370 . S
C639 C643 1.408 . S
C640 C638 1.363 . S
C640 C641 1.370 . S
C640 C644 1.524 . S
C641 C633 1.503 . S
C641 C640 1.370 . S
C641 C642 1.403 . S
C642 C641 1.403 . S
C642 C643 1.404 . S
C642 C645 1.539 . S
C643 C639 1.408 . S
C643 C642 1.404 . S
C643 H655 0.930 . S
C644 C640 1.524 . S
C644 H656 0.956 . S
C644 H657 0.961 . S
C644 H658 0.961 . S
C645 C642 1.539 . S
C645 H659 0.958 . S
C645 H660 0.961 . S
C645 H661 0.960 . S
H646 C630 0.931 . S
H647 C635 0.929 . S
H648 C636 0.960 . S
H649 C636 0.962 . S
H650 C636 0.960 . S
H651 C637 0.961 . S
H652 C637 0.961 . S
H653 C637 0.961 . S
H654 C638 0.931 . S
H655 C643 0.930 . S
H656 C644 0.956 . S
H657 C644 0.961 . S
H658 C644 0.961 . S
H659 C645 0.958 . S
H660 C645 0.961 . S
H661 C645 0.960 . S
C662 C663 1.391 . S
C662 C664 1.394 . S
C662 H678 0.931 . S
C663 C662 1.391 . S
C663 C667 1.376 . S
C664 C662 1.394 . S
C664 C665 1.369 . S
C664 C668 1.531 . S
C665 C664 1.369 . S
C665 C666 1.410 . S
C665 C673 1.503 . S
C666 C665 1.410 . S
C666 C667 1.392 . S
C666 C669 1.511 . S
C667 C663 1.376 . S
C667 C666 1.392 . S
C667 H679 0.929 . S
C668 C664 1.531 . S
C668 H680 0.960 . S
C668 H681 0.962 . S
C668 H682 0.960 . S
C669 C666 1.511 . S
C669 H683 0.961 . S
C669 H684 0.961 . S
C669 H685 0.961 . S
C670 C671 1.370 . S
C670 C672 1.363 . S
C670 H686 0.931 . S
C671 C670 1.370 . S
C671 C675 1.408 . S
C672 C670 1.363 . S
C672 C673 1.370 . S
C672 C676 1.524 . S
C673 C665 1.503 . S
C673 C672 1.370 . S
C673 C674 1.403 . S
C674 C673 1.403 . S
C674 C675 1.404 . S
C674 C677 1.539 . S
C675 C671 1.408 . S
C675 C674 1.404 . S
C675 H687 0.930 . S
C676 C672 1.524 . S
C676 H688 0.956 . S
C676 H689 0.961 . S
C676 H690 0.961 . S
C677 C674 1.539 . S
C677 H691 0.958 . S
C677 H692 0.961 . S
C677 H693 0.960 . S
H678 C662 0.931 . S
H679 C667 0.929 . S
H680 C668 0.960 . S
H681 C668 0.962 . S
H682 C668 0.960 . S
H683 C669 0.961 . S
H684 C669 0.961 . S
H685 C669 0.961 . S
H686 C670 0.931 . S
H687 C675 0.930 . S
H688 C676 0.956 . S
H689 C676 0.961 . S
H690 C676 0.961 . S
H691 C677 0.958 . S
H692 C677 0.961 . S
H693 C677 0.960 . S
C694 C695 1.391 . S
C694 C696 1.394 . S
C694 H710 0.931 . S
C695 C694 1.391 . S
C695 C699 1.376 . S
C696 C694 1.394 . S
C696 C697 1.369 . S
C696 C700 1.531 . S
C697 C696 1.369 . S
C697 C698 1.410 . S
C697 C705 1.503 . S
C698 C697 1.410 . S
C698 C699 1.392 . S
C698 C701 1.511 . S
C699 C695 1.376 . S
C699 C698 1.392 . S
C699 H711 0.929 . S
C700 C696 1.531 . S
C700 H712 0.960 . S
C700 H713 0.962 . S
C700 H714 0.960 . S
C701 C698 1.511 . S
C701 H715 0.961 . S
C701 H716 0.961 . S
C701 H717 0.961 . S
C702 C703 1.370 . S
C702 C704 1.363 . S
C702 H718 0.931 . S
C703 C702 1.370 . S
C703 C707 1.408 . S
C704 C702 1.363 . S
C704 C705 1.370 . S
C704 C708 1.524 . S
C705 C697 1.503 . S
C705 C704 1.370 . S
C705 C706 1.403 . S
C706 C705 1.403 . S
C706 C707 1.404 . S
C706 C709 1.539 . S
C707 C703 1.408 . S
C707 C706 1.404 . S
C707 H719 0.930 . S
C708 C704 1.524 . S
C708 H720 0.956 . S
C708 H721 0.961 . S
C708 H722 0.961 . S
C709 C706 1.539 . S
C709 H723 0.958 . S
C709 H724 0.961 . S
C709 H725 0.960 . S
H710 C694 0.931 . S
H711 C699 0.929 . S
H712 C700 0.960 . S
H713 C700 0.962 . S
H714 C700 0.960 . S
H715 C701 0.961 . S
H716 C701 0.961 . S
H717 C701 0.961 . S
H718 C702 0.931 . S
H719 C707 0.930 . S
H720 C708 0.956 . S
H721 C708 0.961 . S
H722 C708 0.961 . S
H723 C709 0.958 . S
H724 C709 0.961 . S
H725 C709 0.960 . S
C726 C727 1.391 . S
C726 C728 1.394 . S
C726 H742 0.931 . S
C727 C726 1.391 . S
C727 C731 1.376 . S
C728 C726 1.394 . S
C728 C729 1.369 . S
C728 C732 1.531 . S
C729 C728 1.369 . S
C729 C730 1.410 . S
C729 C737 1.503 . S
C730 C729 1.410 . S
C730 C731 1.392 . S
C730 C733 1.511 . S
C731 C727 1.376 . S
C731 C730 1.392 . S
C731 H743 0.929 . S
C732 C728 1.531 . S
C732 H744 0.960 . S
C732 H745 0.962 . S
C732 H746 0.960 . S
C733 C730 1.511 . S
C733 H747 0.961 . S
C733 H748 0.961 . S
C733 H749 0.961 . S
C734 C735 1.370 . S
C734 C736 1.363 . S
C734 H750 0.931 . S
C735 C734 1.370 . S
C735 C739 1.408 . S
C736 C734 1.363 . S
C736 C737 1.370 . S
C736 C740 1.524 . S
C737 C729 1.503 . S
C737 C736 1.370 . S
C737 C738 1.403 . S
C738 C737 1.403 . S
C738 C739 1.404 . S
C738 C741 1.539 . S
C739 C735 1.408 . S
C739 C738 1.404 . S
C739 H751 0.930 . S
C740 C736 1.524 . S
C740 H752 0.956 . S
C740 H753 0.961 . S
C740 H754 0.961 . S
C741 C738 1.539 . S
C741 H755 0.958 . S
C741 H756 0.961 . S
C741 H757 0.960 . S
H742 C726 0.931 . S
H743 C731 0.929 . S
H744 C732 0.960 . S
H745 C732 0.962 . S
H746 C732 0.960 . S
H747 C733 0.961 . S
H748 C733 0.961 . S
H749 C733 0.961 . S
H750 C734 0.931 . S
H751 C739 0.930 . S
H752 C740 0.956 . S
H753 C740 0.961 . S
H754 C740 0.961 . S
H755 C741 0.958 . S
H756 C741 0.961 . S
H757 C741 0.960 . S
C758 C759 1.391 . S
C758 C760 1.394 . S
C758 H774 0.931 . S
C759 C758 1.391 . S
C759 C763 1.376 . S
C760 C758 1.394 . S
C760 C761 1.369 . S
C760 C764 1.531 . S
C761 C760 1.369 . S
C761 C762 1.410 . S
C761 C769 1.503 . S
C762 C761 1.410 . S
C762 C763 1.392 . S
C762 C765 1.511 . S
C763 C759 1.376 . S
C763 C762 1.392 . S
C763 H775 0.929 . S
C764 C760 1.531 . S
C764 H776 0.960 . S
C764 H777 0.962 . S
C764 H778 0.960 . S
C765 C762 1.511 . S
C765 H779 0.961 . S
C765 H780 0.961 . S
C765 H781 0.961 . S
C766 C767 1.370 . S
C766 C768 1.363 . S
C766 H782 0.931 . S
C767 C766 1.370 . S
C767 C771 1.408 . S
C768 C766 1.363 . S
C768 C769 1.370 . S
C768 C772 1.524 . S
C769 C761 1.503 . S
C769 C768 1.370 . S
C769 C770 1.403 . S
C770 C769 1.403 . S
C770 C771 1.404 . S
C770 C773 1.539 . S
C771 C767 1.408 . S
C771 C770 1.404 . S
C771 H783 0.930 . S
C772 C768 1.524 . S
C772 H784 0.956 . S
C772 H785 0.961 . S
C772 H786 0.961 . S
C773 C770 1.539 . S
C773 H787 0.958 . S
C773 H788 0.961 . S
C773 H789 0.960 . S
H774 C758 0.931 . S
H775 C763 0.929 . S
H776 C764 0.960 . S
H777 C764 0.962 . S
H778 C764 0.960 . S
H779 C765 0.961 . S
H780 C765 0.961 . S
H781 C765 0.961 . S
H782 C766 0.931 . S
H783 C771 0.930 . S
H784 C772 0.956 . S
H785 C772 0.961 . S
H786 C772 0.961 . S
H787 C773 0.958 . S
H788 C773 0.961 . S
H789 C773 0.960 . S
C790 C791 1.391 . S
C790 C792 1.394 . S
C790 H806 0.931 . S
C791 C790 1.391 . S
C791 C795 1.376 . S
C792 C790 1.394 . S
C792 C793 1.369 . S
C792 C796 1.531 . S
C793 C792 1.369 . S
C793 C794 1.410 . S
C793 C801 1.503 . S
C794 C793 1.410 . S
C794 C795 1.392 . S
C794 C797 1.511 . S
C795 C791 1.376 . S
C795 C794 1.392 . S
C795 H807 0.929 . S
C796 C792 1.531 . S
C796 H808 0.960 . S
C796 H809 0.962 . S
C796 H810 0.960 . S
C797 C794 1.511 . S
C797 H811 0.961 . S
C797 H812 0.961 . S
C797 H813 0.961 . S
C798 C799 1.370 . S
C798 C800 1.363 . S
C798 H814 0.931 . S
C799 C798 1.370 . S
C799 C803 1.408 . S
C800 C798 1.363 . S
C800 C801 1.370 . S
C800 C804 1.524 . S
C801 C793 1.503 . S
C801 C800 1.370 . S
C801 C802 1.403 . S
C802 C801 1.403 . S
C802 C803 1.404 . S
C802 C805 1.539 . S
C803 C799 1.408 . S
C803 C802 1.404 . S
C803 H815 0.930 . S
C804 C800 1.524 . S
C804 H816 0.956 . S
C804 H817 0.961 . S
C804 H818 0.961 . S
C805 C802 1.539 . S
C805 H819 0.958 . S
C805 H820 0.961 . S
C805 H821 0.960 . S
H806 C790 0.931 . S
H807 C795 0.929 . S
H808 C796 0.960 . S
H809 C796 0.962 . S
H810 C796 0.960 . S
H811 C797 0.961 . S
H812 C797 0.961 . S
H813 C797 0.961 . S
H814 C798 0.931 . S
H815 C803 0.930 . S
H816 C804 0.956 . S
H817 C804 0.961 . S
H818 C804 0.961 . S
H819 C805 0.958 . S
H820 C805 0.961 . S
H821 C805 0.960 . S
C822 C823 1.391 . S
C822 C824 1.394 . S
C822 H838 0.931 . S
C823 C822 1.391 . S
C823 C827 1.376 . S
C824 C822 1.394 . S
C824 C825 1.369 . S
C824 C828 1.531 . S
C825 C824 1.369 . S
C825 C826 1.410 . S
C825 C833 1.503 . S
C826 C825 1.410 . S
C826 C827 1.392 . S
C826 C829 1.511 . S
C827 C823 1.376 . S
C827 C826 1.392 . S
C827 H839 0.929 . S
C828 C824 1.531 . S
C828 H840 0.960 . S
C828 H841 0.962 . S
C828 H842 0.960 . S
C829 C826 1.511 . S
C829 H843 0.961 . S
C829 H844 0.961 . S
C829 H845 0.961 . S
C830 C831 1.370 . S
C830 C832 1.363 . S
C830 H846 0.931 . S
C831 C830 1.370 . S
C831 C835 1.408 . S
C832 C830 1.363 . S
C832 C833 1.370 . S
C832 C836 1.524 . S
C833 C825 1.503 . S
C833 C832 1.370 . S
C833 C834 1.403 . S
C834 C833 1.403 . S
C834 C835 1.404 . S
C834 C837 1.539 . S
C835 C831 1.408 . S
C835 C834 1.404 . S
C835 H847 0.930 . S
C836 C832 1.524 . S
C836 H848 0.956 . S
C836 H849 0.961 . S
C836 H850 0.961 . S
C837 C834 1.539 . S
C837 H851 0.958 . S
C837 H852 0.961 . S
C837 H853 0.960 . S
H838 C822 0.931 . S
H839 C827 0.929 . S
H840 C828 0.960 . S
H841 C828 0.962 . S
H842 C828 0.960 . S
H843 C829 0.961 . S
H844 C829 0.961 . S
H845 C829 0.961 . S
H846 C830 0.931 . S
H847 C835 0.930 . S
H848 C836 0.956 . S
H849 C836 0.961 . S
H850 C836 0.961 . S
H851 C837 0.958 . S
H852 C837 0.961 . S
H853 C837 0.960 . S
C854 C855 1.391 . S
C854 C856 1.394 . S
C854 H870 0.931 . S
C855 C854 1.391 . S
C855 C859 1.376 . S
C856 C854 1.394 . S
C856 C857 1.369 . S
C856 C860 1.531 . S
C857 C856 1.369 . S
C857 C858 1.410 . S
C857 C865 1.503 . S
C858 C857 1.410 . S
C858 C859 1.392 . S
C858 C861 1.511 . S
C859 C855 1.376 . S
C859 C858 1.392 . S
C859 H871 0.929 . S
C860 C856 1.531 . S
C860 H872 0.960 . S
C860 H873 0.962 . S
C860 H874 0.960 . S
C861 C858 1.511 . S
C861 H875 0.961 . S
C861 H876 0.961 . S
C861 H877 0.961 . S
C862 C863 1.370 . S
C862 C864 1.363 . S
C862 H878 0.931 . S
C863 C862 1.370 . S
C863 C867 1.408 . S
C864 C862 1.363 . S
C864 C865 1.370 . S
C864 C868 1.524 . S
C865 C857 1.503 . S
C865 C864 1.370 . S
C865 C866 1.403 . S
C866 C865 1.403 . S
C866 C867 1.404 . S
C866 C869 1.539 . S
C867 C863 1.408 . S
C867 C866 1.404 . S
C867 H879 0.930 . S
C868 C864 1.524 . S
C868 H880 0.956 . S
C868 H881 0.961 . S
C868 H882 0.961 . S
C869 C866 1.539 . S
C869 H883 0.958 . S
C869 H884 0.961 . S
C869 H885 0.960 . S
H870 C854 0.931 . S
H871 C859 0.929 . S
H872 C860 0.960 . S
H873 C860 0.962 . S
H874 C860 0.960 . S
H875 C861 0.961 . S
H876 C861 0.961 . S
H877 C861 0.961 . S
H878 C862 0.931 . S
H879 C867 0.930 . S
H880 C868 0.956 . S
H881 C868 0.961 . S
H882 C868 0.961 . S
H883 C869 0.958 . S
H884 C869 0.961 . S
H885 C869 0.960 . S
C886 C887 1.391 . S
C886 C888 1.394 . S
C886 H902 0.931 . S
C887 C886 1.391 . S
C887 C891 1.376 . S
C888 C886 1.394 . S
C888 C889 1.369 . S
C888 C892 1.531 . S
C889 C888 1.369 . S
C889 C890 1.410 . S
C889 C897 1.503 . S
C890 C889 1.410 . S
C890 C891 1.392 . S
C890 C893 1.511 . S
C891 C887 1.376 . S
C891 C890 1.392 . S
C891 H903 0.929 . S
C892 C888 1.531 . S
C892 H904 0.960 . S
C892 H905 0.962 . S
C892 H906 0.960 . S
C893 C890 1.511 . S
C893 H907 0.961 . S
C893 H908 0.961 . S
C893 H909 0.961 . S
C894 C895 1.370 . S
C894 C896 1.363 . S
C894 H910 0.931 . S
C895 C894 1.370 . S
C895 C899 1.408 . S
C896 C894 1.363 . S
C896 C897 1.370 . S
C896 C900 1.524 . S
C897 C889 1.503 . S
C897 C896 1.370 . S
C897 C898 1.403 . S
C898 C897 1.403 . S
C898 C899 1.404 . S
C898 C901 1.539 . S
C899 C895 1.408 . S
C899 C898 1.404 . S
C899 H911 0.930 . S
C900 C896 1.524 . S
C900 H912 0.956 . S
C900 H913 0.961 . S
C900 H914 0.961 . S
C901 C898 1.539 . S
C901 H915 0.958 . S
C901 H916 0.961 1_556 S
C901 H917 0.960 . S
H902 C886 0.931 . S
H903 C891 0.929 . S
H904 C892 0.960 . S
H905 C892 0.962 . S
H906 C892 0.960 . S
H907 C893 0.961 . S
H908 C893 0.961 . S
H909 C893 0.961 . S
H910 C894 0.931 . S
H911 C899 0.930 . S
H912 C900 0.956 . S
H913 C900 0.961 . S
H914 C900 0.961 . S
H915 C901 0.958 . S
H916 C901 0.961 1_554 S
H917 C901 0.960 . S
C918 C919 1.391 . S
C918 C920 1.394 . S
C918 H934 0.931 . S
C919 C918 1.391 . S
C919 C923 1.376 . S
C920 C918 1.394 . S
C920 C921 1.369 . S
C920 C924 1.531 . S
C921 C920 1.369 . S
C921 C922 1.410 . S
C921 C929 1.503 . S
C922 C921 1.410 . S
C922 C923 1.392 . S
C922 C925 1.511 . S
C923 C919 1.376 . S
C923 C922 1.392 . S
C923 H935 0.929 . S
C924 C920 1.531 . S
C924 H936 0.960 . S
C924 H937 0.962 . S
C924 H938 0.960 . S
C925 C922 1.511 . S
C925 H939 0.961 . S
C925 H940 0.961 . S
C925 H941 0.961 . S
C926 C927 1.370 . S
C926 C928 1.363 . S
C926 H942 0.931 . S
C927 C926 1.370 . S
C927 C931 1.408 . S
C928 C926 1.363 . S
C928 C929 1.370 . S
C928 C932 1.524 . S
C929 C921 1.503 . S
C929 C928 1.370 . S
C929 C930 1.403 . S
C930 C929 1.403 . S
C930 C931 1.404 . S
C930 C933 1.539 . S
C931 C927 1.408 . S
C931 C930 1.404 . S
C931 H943 0.930 . S
C932 C928 1.524 . S
C932 H944 0.956 . S
C932 H945 0.961 . S
C932 H946 0.961 . S
C933 C930 1.539 . S
C933 H947 0.958 . S
C933 H948 0.961 . S
C933 H949 0.960 . S
H934 C918 0.931 . S
H935 C923 0.929 . S
H936 C924 0.960 . S
H937 C924 0.962 . S
H938 C924 0.960 . S
H939 C925 0.961 . S
H940 C925 0.961 . S
H941 C925 0.961 . S
H942 C926 0.931 . S
H943 C931 0.930 . S
H944 C932 0.956 . S
H945 C932 0.961 . S
H946 C932 0.961 . S
H947 C933 0.958 . S
H948 C933 0.961 . S
H949 C933 0.960 . S
C950 C951 1.391 . S
C950 C952 1.394 . S
C950 H966 0.931 . S
C951 C950 1.391 . S
C951 C955 1.376 . S
C952 C950 1.394 . S
C952 C953 1.369 . S
C952 C956 1.531 . S
C953 C952 1.369 . S
C953 C954 1.410 . S
C953 C961 1.503 . S
C954 C953 1.410 . S
C954 C955 1.392 . S
C954 C957 1.511 . S
C955 C951 1.376 . S
C955 C954 1.392 . S
C955 H967 0.929 . S
C956 C952 1.531 . S
C956 H968 0.960 . S
C956 H969 0.962 . S
C956 H970 0.960 . S
C957 C954 1.511 . S
C957 H971 0.961 . S
C957 H972 0.961 . S
C957 H973 0.961 . S
C958 C959 1.370 . S
C958 C960 1.363 . S
C958 H974 0.931 . S
C959 C958 1.370 . S
C959 C963 1.408 . S
C960 C958 1.363 . S
C960 C961 1.370 . S
C960 C964 1.524 . S
C961 C953 1.503 . S
C961 C960 1.370 . S
C961 C962 1.403 . S
C962 C961 1.403 . S
C962 C963 1.404 . S
C962 C965 1.539 . S
C963 C959 1.408 . S
C963 C962 1.404 . S
C963 H975 0.930 . S
C964 C960 1.524 . S
C964 H976 0.956 . S
C964 H977 0.961 . S
C964 H978 0.961 . S
C965 C962 1.539 . S
C965 H979 0.958 . S
C965 H980 0.961 1_554 S
C965 H981 0.960 . S
H966 C950 0.931 . S
H967 C955 0.929 . S
H968 C956 0.960 . S
H969 C956 0.962 . S
H970 C956 0.960 . S
H971 C957 0.961 . S
H972 C957 0.961 . S
H973 C957 0.961 . S
H974 C958 0.931 . S
H975 C963 0.930 . S
H976 C964 0.956 . S
H977 C964 0.961 . S
H978 C964 0.961 . S
H979 C965 0.958 . S
H980 C965 0.961 1_556 S
H981 C965 0.960 . S
C982 C983 1.391 . S
C982 C984 1.394 . S
C982 H998 0.931 . S
C983 C982 1.391 . S
C983 C987 1.376 . S
C984 C982 1.394 . S
C984 C985 1.369 . S
C984 C988 1.531 . S
C985 C984 1.369 . S
C985 C986 1.410 . S
C985 C993 1.503 . S
C986 C985 1.410 . S
C986 C987 1.392 . S
C986 C989 1.511 . S
C987 C983 1.376 . S
C987 C986 1.392 . S
C987 H999 0.929 . S
C988 C984 1.531 . S
C988 H1000 0.960 . S
C988 H1001 0.962 . S
C988 H1002 0.960 . S
C989 C986 1.511 . S
C989 H1003 0.961 . S
C989 H1004 0.961 . S
C989 H1005 0.961 . S
C990 C991 1.370 . S
C990 C992 1.363 . S
C990 H1006 0.931 . S
C991 C990 1.370 . S
C991 C995 1.408 . S
C992 C990 1.363 . S
C992 C993 1.370 . S
C992 C996 1.524 . S
C993 C985 1.503 . S
C993 C992 1.370 . S
C993 C994 1.403 . S
C994 C993 1.403 . S
C994 C995 1.404 . S
C994 C997 1.539 1_556 S
C995 C991 1.408 . S
C995 C994 1.404 . S
C995 H1007 0.930 1_556 S
C996 C992 1.524 . S
C996 H1008 0.956 . S
C996 H1009 0.961 . S
C996 H1010 0.961 . S
C997 C994 1.539 1_554 S
C997 H1011 0.958 . S
C997 H1012 0.961 . S
C997 H1013 0.960 1_554 S
H998 C982 0.931 . S
H999 C987 0.929 . S
H1000 C988 0.960 . S
H1001 C988 0.962 . S
H1002 C988 0.960 . S
H1003 C989 0.961 . S
H1004 C989 0.961 . S
H1005 C989 0.961 . S
H1006 C990 0.931 . S
H1007 C995 0.930 1_554 S
H1008 C996 0.956 . S
H1009 C996 0.961 . S
H1010 C996 0.961 . S
H1011 C997 0.958 . S
H1012 C997 0.961 . S
H1013 C997 0.960 1_556 S
C1014 C1015 1.391 . S
C1014 C1016 1.394 . S
C1014 H1030 0.931 . S
C1015 C1014 1.391 . S
C1015 C1019 1.376 . S
C1016 C1014 1.394 . S
C1016 C1017 1.369 . S
C1016 C1020 1.531 . S
C1017 C1016 1.369 . S
C1017 C1018 1.410 . S
C1017 C1025 1.503 . S
C1018 C1017 1.410 . S
C1018 C1019 1.392 . S
C1018 C1021 1.511 . S
C1019 C1015 1.376 . S
C1019 C1018 1.392 . S
C1019 H1031 0.929 . S
C1020 C1016 1.531 . S
C1020 H1032 0.960 . S
C1020 H1033 0.962 . S
C1020 H1034 0.960 . S
C1021 C1018 1.511 . S
C1021 H1035 0.961 . S
C1021 H1036 0.961 . S
C1021 H1037 0.961 . S
C1022 C1023 1.370 . S
C1022 C1024 1.363 . S
C1022 H1038 0.931 . S
C1023 C1022 1.370 . S
C1023 C1027 1.408 . S
C1024 C1022 1.363 . S
C1024 C1025 1.370 . S
C1024 C1028 1.524 . S
C1025 C1017 1.503 . S
C1025 C1024 1.370 . S
C1025 C1026 1.403 . S
C1026 C1025 1.403 . S
C1026 C1027 1.404 . S
C1026 C1029 1.539 . S
C1027 C1023 1.408 . S
C1027 C1026 1.404 . S
C1027 H1039 0.930 . S
C1028 C1024 1.524 . S
C1028 H1040 0.956 . S
C1028 H1041 0.961 . S
C1028 H1042 0.961 . S
C1029 C1026 1.539 . S
C1029 H1043 0.958 . S
C1029 H1044 0.961 . S
C1029 H1045 0.960 . S
H1030 C1014 0.931 . S
H1031 C1019 0.929 . S
H1032 C1020 0.960 . S
H1033 C1020 0.962 . S
H1034 C1020 0.960 . S
H1035 C1021 0.961 . S
H1036 C1021 0.961 . S
H1037 C1021 0.961 . S
H1038 C1022 0.931 . S
H1039 C1027 0.930 . S
H1040 C1028 0.956 . S
H1041 C1028 0.961 . S
H1042 C1028 0.961 . S
H1043 C1029 0.958 . S
H1044 C1029 0.961 . S
H1045 C1029 0.960 . S
C1046 C1047 1.391 . S
C1046 C1048 1.394 . S
C1046 H1062 0.931 . S
C1047 C1046 1.391 . S
C1047 C1051 1.376 . S
C1048 C1046 1.394 . S
C1048 C1049 1.369 . S
C1048 C1052 1.531 . S
C1049 C1048 1.369 . S
C1049 C1050 1.410 . S
C1049 C1057 1.503 . S
C1050 C1049 1.410 . S
C1050 C1051 1.392 . S
C1050 C1053 1.511 . S
C1051 C1047 1.376 . S
C1051 C1050 1.392 . S
C1051 H1063 0.929 . S
C1052 C1048 1.531 . S
C1052 H1064 0.960 . S
C1052 H1065 0.962 . S
C1052 H1066 0.960 . S
C1053 C1050 1.511 . S
C1053 H1067 0.961 . S
C1053 H1068 0.961 . S
C1053 H1069 0.961 . S
C1054 C1055 1.370 . S
C1054 C1056 1.363 . S
C1054 H1070 0.931 . S
C1055 C1054 1.370 . S
C1055 C1059 1.408 . S
C1056 C1054 1.363 . S
C1056 C1057 1.370 . S
C1056 C1060 1.524 . S
C1057 C1049 1.503 . S
C1057 C1056 1.370 . S
C1057 C1058 1.403 . S
C1058 C1057 1.403 . S
C1058 C1059 1.404 . S
C1058 C1061 1.539 . S
C1059 C1055 1.408 . S
C1059 C1058 1.404 . S
C1059 H1071 0.930 . S
C1060 C1056 1.524 . S
C1060 H1072 0.956 . S
C1060 H1073 0.961 . S
C1060 H1074 0.961 . S
C1061 C1058 1.539 . S
C1061 H1075 0.958 . S
C1061 H1076 0.961 1_556 S
C1061 H1077 0.960 . S
H1062 C1046 0.931 . S
H1063 C1051 0.929 . S
H1064 C1052 0.960 . S
H1065 C1052 0.962 . S
H1066 C1052 0.960 . S
H1067 C1053 0.961 . S
H1068 C1053 0.961 . S
H1069 C1053 0.961 . S
H1070 C1054 0.931 . S
H1071 C1059 0.930 . S
H1072 C1060 0.956 . S
H1073 C1060 0.961 . S
H1074 C1060 0.961 . S
H1075 C1061 0.958 . S
H1076 C1061 0.961 1_554 S
H1077 C1061 0.960 . S
C1078 C1079 1.391 . S
C1078 C1080 1.394 . S
C1078 H1094 0.931 . S
C1079 C1078 1.391 . S
C1079 C1083 1.376 . S
C1080 C1078 1.394 . S
C1080 C1081 1.369 . S
C1080 C1084 1.531 . S
C1081 C1080 1.369 . S
C1081 C1082 1.410 . S
C1081 C1089 1.503 . S
C1082 C1081 1.410 . S
C1082 C1083 1.392 . S
C1082 C1085 1.511 . S
C1083 C1079 1.376 . S
C1083 C1082 1.392 . S
C1083 H1095 0.929 . S
C1084 C1080 1.531 . S
C1084 H1096 0.960 . S
C1084 H1097 0.962 . S
C1084 H1098 0.960 . S
C1085 C1082 1.511 . S
C1085 H1099 0.961 . S
C1085 H1100 0.961 . S
C1085 H1101 0.961 . S
C1086 C1087 1.370 . S
C1086 C1088 1.363 . S
C1086 H1102 0.931 . S
C1087 C1086 1.370 . S
C1087 C1091 1.408 . S
C1088 C1086 1.363 . S
C1088 C1089 1.370 . S
C1088 C1092 1.524 . S
C1089 C1081 1.503 . S
C1089 C1088 1.370 . S
C1089 C1090 1.403 . S
C1090 C1089 1.403 . S
C1090 C1091 1.404 . S
C1090 C1093 1.539 . S
C1091 C1087 1.408 . S
C1091 C1090 1.404 . S
C1091 H1103 0.930 . S
C1092 C1088 1.524 . S
C1092 H1104 0.956 . S
C1092 H1105 0.961 . S
C1092 H1106 0.961 . S
C1093 C1090 1.539 . S
C1093 H1107 0.958 . S
C1093 H1108 0.961 . S
C1093 H1109 0.960 . S
H1094 C1078 0.931 . S
H1095 C1083 0.929 . S
H1096 C1084 0.960 . S
H1097 C1084 0.962 . S
H1098 C1084 0.960 . S
H1099 C1085 0.961 . S
H1100 C1085 0.961 . S
H1101 C1085 0.961 . S
H1102 C1086 0.931 . S
H1103 C1091 0.930 . S
H1104 C1092 0.956 . S
H1105 C1092 0.961 . S
H1106 C1092 0.961 . S
H1107 C1093 0.958 . S
H1108 C1093 0.961 . S
H1109 C1093 0.960 . S
C1110 C1111 1.391 . S
C1110 C1112 1.394 . S
C1110 H1126 0.931 . S
C1111 C1110 1.391 . S
C1111 C1115 1.376 . S
C1112 C1110 1.394 . S
C1112 C1113 1.369 . S
C1112 C1116 1.531 . S
C1113 C1112 1.369 . S
C1113 C1114 1.410 . S
C1113 C1121 1.503 . S
C1114 C1113 1.410 . S
C1114 C1115 1.392 . S
C1114 C1117 1.511 . S
C1115 C1111 1.376 . S
C1115 C1114 1.392 . S
C1115 H1127 0.929 . S
C1116 C1112 1.531 . S
C1116 H1128 0.960 . S
C1116 H1129 0.962 . S
C1116 H1130 0.960 . S
C1117 C1114 1.511 . S
C1117 H1131 0.961 . S
C1117 H1132 0.961 . S
C1117 H1133 0.961 . S
C1118 C1119 1.370 . S
C1118 C1120 1.363 . S
C1118 H1134 0.931 . S
C1119 C1118 1.370 . S
C1119 C1123 1.408 . S
C1120 C1118 1.363 . S
C1120 C1121 1.370 . S
C1120 C1124 1.524 . S
C1121 C1113 1.503 . S
C1121 C1120 1.370 . S
C1121 C1122 1.403 . S
C1122 C1121 1.403 . S
C1122 C1123 1.404 . S
C1122 C1125 1.539 . S
C1123 C1119 1.408 . S
C1123 C1122 1.404 . S
C1123 H1135 0.930 . S
C1124 C1120 1.524 . S
C1124 H1136 0.956 . S
C1124 H1137 0.961 . S
C1124 H1138 0.961 . S
C1125 C1122 1.539 . S
C1125 H1139 0.958 . S
C1125 H1140 0.961 . S
C1125 H1141 0.960 . S
H1126 C1110 0.931 . S
H1127 C1115 0.929 . S
H1128 C1116 0.960 . S
H1129 C1116 0.962 . S
H1130 C1116 0.960 . S
H1131 C1117 0.961 . S
H1132 C1117 0.961 . S
H1133 C1117 0.961 . S
H1134 C1118 0.931 . S
H1135 C1123 0.930 . S
H1136 C1124 0.956 . S
H1137 C1124 0.961 . S
H1138 C1124 0.961 . S
H1139 C1125 0.958 . S
H1140 C1125 0.961 . S
H1141 C1125 0.960 . S
C1142 C1143 1.391 . S
C1142 C1144 1.394 . S
C1142 H1158 0.931 . S
C1143 C1142 1.391 . S
C1143 C1147 1.376 . S
C1144 C1142 1.394 . S
C1144 C1145 1.369 . S
C1144 C1148 1.531 . S
C1145 C1144 1.369 . S
C1145 C1146 1.410 . S
C1145 C1153 1.503 . S
C1146 C1145 1.410 . S
C1146 C1147 1.392 . S
C1146 C1149 1.511 . S
C1147 C1143 1.376 . S
C1147 C1146 1.392 . S
C1147 H1159 0.929 . S
C1148 C1144 1.531 . S
C1148 H1160 0.960 . S
C1148 H1161 0.962 . S
C1148 H1162 0.960 . S
C1149 C1146 1.511 . S
C1149 H1163 0.961 . S
C1149 H1164 0.961 . S
C1149 H1165 0.961 . S
C1150 C1151 1.370 . S
C1150 C1152 1.363 . S
C1150 H1166 0.931 . S
C1151 C1150 1.370 . S
C1151 C1155 1.408 . S
C1152 C1150 1.363 . S
C1152 C1153 1.370 . S
C1152 C1156 1.524 . S
C1153 C1145 1.503 . S
C1153 C1152 1.370 . S
C1153 C1154 1.403 . S
C1154 C1153 1.403 . S
C1154 C1155 1.404 . S
C1154 C1157 1.539 . S
C1155 C1151 1.408 . S
C1155 C1154 1.404 . S
C1155 H1167 0.930 . S
C1156 C1152 1.524 . S
C1156 H1168 0.956 . S
C1156 H1169 0.961 . S
C1156 H1170 0.961 . S
C1157 C1154 1.539 . S
C1157 H1171 0.958 . S
C1157 H1172 0.961 . S
C1157 H1173 0.960 . S
H1158 C1142 0.931 . S
H1159 C1147 0.929 . S
H1160 C1148 0.960 . S
H1161 C1148 0.962 . S
H1162 C1148 0.960 . S
H1163 C1149 0.961 . S
H1164 C1149 0.961 . S
H1165 C1149 0.961 . S
H1166 C1150 0.931 . S
H1167 C1155 0.930 . S
H1168 C1156 0.956 . S
H1169 C1156 0.961 . S
H1170 C1156 0.961 . S
H1171 C1157 0.958 . S
H1172 C1157 0.961 . S
H1173 C1157 0.960 . S
C1174 C1175 1.391 . S
C1174 C1176 1.394 . S
C1174 H1190 0.931 . S
C1175 C1174 1.391 . S
C1175 C1179 1.376 . S
C1176 C1174 1.394 . S
C1176 C1177 1.369 . S
C1176 C1180 1.531 . S
C1177 C1176 1.369 . S
C1177 C1178 1.410 . S
C1177 C1185 1.503 . S
C1178 C1177 1.410 . S
C1178 C1179 1.392 . S
C1178 C1181 1.511 . S
C1179 C1175 1.376 . S
C1179 C1178 1.392 . S
C1179 H1191 0.929 . S
C1180 C1176 1.531 . S
C1180 H1192 0.960 . S
C1180 H1193 0.962 . S
C1180 H1194 0.960 . S
C1181 C1178 1.511 . S
C1181 H1195 0.961 . S
C1181 H1196 0.961 . S
C1181 H1197 0.961 . S
C1182 C1183 1.370 . S
C1182 C1184 1.363 . S
C1182 H1198 0.931 . S
C1183 C1182 1.370 . S
C1183 C1187 1.408 . S
C1184 C1182 1.363 . S
C1184 C1185 1.370 . S
C1184 C1188 1.524 . S
C1185 C1177 1.503 . S
C1185 C1184 1.370 . S
C1185 C1186 1.403 . S
C1186 C1185 1.403 . S
C1186 C1187 1.404 . S
C1186 C1189 1.539 . S
C1187 C1183 1.408 . S
C1187 C1186 1.404 . S
C1187 H1199 0.930 . S
C1188 C1184 1.524 . S
C1188 H1200 0.956 . S
C1188 H1201 0.961 . S
C1188 H1202 0.961 . S
C1189 C1186 1.539 . S
C1189 H1203 0.958 . S
C1189 H1204 0.961 . S
C1189 H1205 0.960 . S
H1190 C1174 0.931 . S
H1191 C1179 0.929 . S
H1192 C1180 0.960 . S
H1193 C1180 0.962 . S
H1194 C1180 0.960 . S
H1195 C1181 0.961 . S
H1196 C1181 0.961 . S
H1197 C1181 0.961 . S
H1198 C1182 0.931 . S
H1199 C1187 0.930 . S
H1200 C1188 0.956 . S
H1201 C1188 0.961 . S
H1202 C1188 0.961 . S
H1203 C1189 0.958 . S
H1204 C1189 0.961 . S
H1205 C1189 0.960 . S
C1206 C1207 1.391 . S
C1206 C1208 1.394 . S
C1206 H1222 0.931 . S
C1207 C1206 1.391 . S
C1207 C1211 1.376 . S
C1208 C1206 1.394 . S
C1208 C1209 1.369 . S
C1208 C1212 1.531 . S
C1209 C1208 1.369 . S
C1209 C1210 1.410 . S
C1209 C1217 1.503 . S
C1210 C1209 1.410 . S
C1210 C1211 1.392 . S
C1210 C1213 1.511 . S
C1211 C1207 1.376 . S
C1211 C1210 1.392 . S
C1211 H1223 0.929 . S
C1212 C1208 1.531 . S
C1212 H1224 0.960 . S
C1212 H1225 0.962 . S
C1212 H1226 0.960 . S
C1213 C1210 1.511 . S
C1213 H1227 0.961 . S
C1213 H1228 0.961 . S
C1213 H1229 0.961 . S
C1214 C1215 1.370 . S
C1214 C1216 1.363 . S
C1214 H1230 0.931 . S
C1215 C1214 1.370 . S
C1215 C1219 1.408 . S
C1216 C1214 1.363 . S
C1216 C1217 1.370 . S
C1216 C1220 1.524 . S
C1217 C1209 1.503 . S
C1217 C1216 1.370 . S
C1217 C1218 1.403 . S
C1218 C1217 1.403 . S
C1218 C1219 1.404 . S
C1218 C1221 1.539 . S
C1219 C1215 1.408 . S
C1219 C1218 1.404 . S
C1219 H1231 0.930 . S
C1220 C1216 1.524 . S
C1220 H1232 0.956 . S
C1220 H1233 0.961 . S
C1220 H1234 0.961 . S
C1221 C1218 1.539 . S
C1221 H1235 0.958 . S
C1221 H1236 0.961 . S
C1221 H1237 0.960 . S
H1222 C1206 0.931 . S
H1223 C1211 0.929 . S
H1224 C1212 0.960 . S
H1225 C1212 0.962 . S
H1226 C1212 0.960 . S
H1227 C1213 0.961 . S
H1228 C1213 0.961 . S
H1229 C1213 0.961 . S
H1230 C1214 0.931 . S
H1231 C1219 0.930 . S
H1232 C1220 0.956 . S
H1233 C1220 0.961 . S
H1234 C1220 0.961 . S
H1235 C1221 0.958 . S
H1236 C1221 0.961 . S
H1237 C1221 0.960 . S
C1238 C1239 1.391 . S
C1238 C1240 1.394 . S
C1238 H1254 0.931 . S
C1239 C1238 1.391 . S
C1239 C1243 1.376 . S
C1240 C1238 1.394 . S
C1240 C1241 1.369 . S
C1240 C1244 1.531 . S
C1241 C1240 1.369 . S
C1241 C1242 1.410 . S
C1241 C1249 1.503 . S
C1242 C1241 1.410 . S
C1242 C1243 1.392 . S
C1242 C1245 1.511 . S
C1243 C1239 1.376 . S
C1243 C1242 1.392 . S
C1243 H1255 0.929 . S
C1244 C1240 1.531 . S
C1244 H1256 0.960 . S
C1244 H1257 0.962 . S
C1244 H1258 0.960 . S
C1245 C1242 1.511 . S
C1245 H1259 0.961 . S
C1245 H1260 0.961 . S
C1245 H1261 0.961 . S
C1246 C1247 1.370 . S
C1246 C1248 1.363 . S
C1246 H1262 0.931 . S
C1247 C1246 1.370 . S
C1247 C1251 1.408 . S
C1248 C1246 1.363 . S
C1248 C1249 1.370 . S
C1248 C1252 1.524 . S
C1249 C1241 1.503 . S
C1249 C1248 1.370 . S
C1249 C1250 1.403 . S
C1250 C1249 1.403 . S
C1250 C1251 1.404 . S
C1250 C1253 1.539 . S
C1251 C1247 1.408 . S
C1251 C1250 1.404 . S
C1251 H1263 0.930 . S
C1252 C1248 1.524 . S
C1252 H1264 0.956 . S
C1252 H1265 0.961 . S
C1252 H1266 0.961 . S
C1253 C1250 1.539 . S
C1253 H1267 0.958 . S
C1253 H1268 0.961 . S
C1253 H1269 0.960 . S
H1254 C1238 0.931 . S
H1255 C1243 0.929 . S
H1256 C1244 0.960 . S
H1257 C1244 0.962 . S
H1258 C1244 0.960 . S
H1259 C1245 0.961 . S
H1260 C1245 0.961 . S
H1261 C1245 0.961 . S
H1262 C1246 0.931 . S
H1263 C1251 0.930 . S
H1264 C1252 0.956 . S
H1265 C1252 0.961 . S
H1266 C1252 0.961 . S
H1267 C1253 0.958 . S
H1268 C1253 0.961 . S
H1269 C1253 0.960 . S
C1270 C1271 1.391 . S
C1270 C1272 1.394 . S
C1270 H1286 0.931 . S
C1271 C1270 1.391 . S
C1271 C1275 1.376 . S
C1272 C1270 1.394 . S
C1272 C1273 1.369 . S
C1272 C1276 1.531 . S
C1273 C1272 1.369 . S
C1273 C1274 1.410 . S
C1273 C1281 1.503 . S
C1274 C1273 1.410 . S
C1274 C1275 1.392 . S
C1274 C1277 1.511 . S
C1275 C1271 1.376 . S
C1275 C1274 1.392 . S
C1275 H1287 0.929 . S
C1276 C1272 1.531 . S
C1276 H1288 0.960 . S
C1276 H1289 0.962 . S
C1276 H1290 0.960 . S
C1277 C1274 1.511 . S
C1277 H1291 0.961 . S
C1277 H1292 0.961 . S
C1277 H1293 0.961 . S
C1278 C1279 1.370 . S
C1278 C1280 1.363 . S
C1278 H1294 0.931 . S
C1279 C1278 1.370 . S
C1279 C1283 1.408 . S
C1280 C1278 1.363 . S
C1280 C1281 1.370 . S
C1280 C1284 1.524 . S
C1281 C1273 1.503 . S
C1281 C1280 1.370 . S
C1281 C1282 1.403 . S
C1282 C1281 1.403 . S
C1282 C1283 1.404 . S
C1282 C1285 1.539 . S
C1283 C1279 1.408 . S
C1283 C1282 1.404 . S
C1283 H1295 0.930 . S
C1284 C1280 1.524 . S
C1284 H1296 0.956 . S
C1284 H1297 0.961 . S
C1284 H1298 0.961 . S
C1285 C1282 1.539 . S
C1285 H1299 0.958 . S
C1285 H1300 0.961 . S
C1285 H1301 0.960 . S
H1286 C1270 0.931 . S
H1287 C1275 0.929 . S
H1288 C1276 0.960 . S
H1289 C1276 0.962 . S
H1290 C1276 0.960 . S
H1291 C1277 0.961 . S
H1292 C1277 0.961 . S
H1293 C1277 0.961 . S
H1294 C1278 0.931 . S
H1295 C1283 0.930 . S
H1296 C1284 0.956 . S
H1297 C1284 0.961 . S
H1298 C1284 0.961 . S
H1299 C1285 0.958 . S
H1300 C1285 0.961 . S
H1301 C1285 0.960 . S
C1302 C1303 1.391 . S
C1302 C1304 1.394 . S
C1302 H1318 0.931 . S
C1303 C1302 1.391 . S
C1303 C1307 1.376 . S
C1304 C1302 1.394 . S
C1304 C1305 1.369 . S
C1304 C1308 1.531 . S
C1305 C1304 1.369 . S
C1305 C1306 1.410 . S
C1305 C1313 1.503 . S
C1306 C1305 1.410 . S
C1306 C1307 1.392 . S
C1306 C1309 1.511 . S
C1307 C1303 1.376 . S
C1307 C1306 1.392 . S
C1307 H1319 0.929 . S
C1308 C1304 1.531 . S
C1308 H1320 0.960 . S
C1308 H1321 0.962 . S
C1308 H1322 0.960 . S
C1309 C1306 1.511 . S
C1309 H1323 0.961 . S
C1309 H1324 0.961 . S
C1309 H1325 0.961 . S
C1310 C1311 1.370 . S
C1310 C1312 1.363 . S
C1310 H1326 0.931 . S
C1311 C1310 1.370 . S
C1311 C1315 1.408 . S
C1312 C1310 1.363 . S
C1312 C1313 1.370 . S
C1312 C1316 1.524 . S
C1313 C1305 1.503 . S
C1313 C1312 1.370 . S
C1313 C1314 1.403 . S
C1314 C1313 1.403 . S
C1314 C1315 1.404 . S
C1314 C1317 1.539 . S
C1315 C1311 1.408 . S
C1315 C1314 1.404 . S
C1315 H1327 0.930 . S
C1316 C1312 1.524 . S
C1316 H1328 0.956 . S
C1316 H1329 0.961 . S
C1316 H1330 0.961 . S
C1317 C1314 1.539 . S
C1317 H1331 0.958 . S
C1317 H1332 0.961 . S
C1317 H1333 0.960 . S
H1318 C1302 0.931 . S
H1319 C1307 0.929 . S
H1320 C1308 0.960 . S
H1321 C1308 0.962 . S
H1322 C1308 0.960 . S
H1323 C1309 0.961 . S
H1324 C1309 0.961 . S
H1325 C1309 0.961 . S
H1326 C1310 0.931 . S
H1327 C1315 0.930 . S
H1328 C1316 0.956 . S
H1329 C1316 0.961 . S
H1330 C1316 0.961 . S
H1331 C1317 0.958 . S
H1332 C1317 0.961 . S
H1333 C1317 0.960 . S
C1334 C1335 1.391 . S
C1334 C1336 1.394 . S
C1334 H1350 0.931 . S
C1335 C1334 1.391 . S
C1335 C1339 1.376 . S
C1336 C1334 1.394 . S
C1336 C1337 1.369 . S
C1336 C1340 1.531 . S
C1337 C1336 1.369 . S
C1337 C1338 1.410 . S
C1337 C1345 1.503 . S
C1338 C1337 1.410 . S
C1338 C1339 1.392 . S
C1338 C1341 1.511 . S
C1339 C1335 1.376 . S
C1339 C1338 1.392 . S
C1339 H1351 0.929 . S
C1340 C1336 1.531 . S
C1340 H1352 0.960 . S
C1340 H1353 0.962 . S
C1340 H1354 0.960 . S
C1341 C1338 1.511 . S
C1341 H1355 0.961 . S
C1341 H1356 0.961 . S
C1341 H1357 0.961 . S
C1342 C1343 1.370 . S
C1342 C1344 1.363 . S
C1342 H1358 0.931 . S
C1343 C1342 1.370 . S
C1343 C1347 1.408 . S
C1344 C1342 1.363 . S
C1344 C1345 1.370 . S
C1344 C1348 1.524 . S
C1345 C1337 1.503 . S
C1345 C1344 1.370 . S
C1345 C1346 1.403 . S
C1346 C1345 1.403 . S
C1346 C1347 1.404 . S
C1346 C1349 1.539 . S
C1347 C1343 1.408 . S
C1347 C1346 1.404 . S
C1347 H1359 0.930 . S
C1348 C1344 1.524 . S
C1348 H1360 0.956 . S
C1348 H1361 0.961 . S
C1348 H1362 0.961 . S
C1349 C1346 1.539 . S
C1349 H1363 0.958 . S
C1349 H1364 0.961 . S
C1349 H1365 0.960 . S
H1350 C1334 0.931 . S
H1351 C1339 0.929 . S
H1352 C1340 0.960 . S
H1353 C1340 0.962 . S
H1354 C1340 0.960 . S
H1355 C1341 0.961 . S
H1356 C1341 0.961 . S
H1357 C1341 0.961 . S
H1358 C1342 0.931 . S
H1359 C1347 0.930 . S
H1360 C1348 0.956 . S
H1361 C1348 0.961 . S
H1362 C1348 0.961 . S
H1363 C1349 0.958 . S
H1364 C1349 0.961 . S
H1365 C1349 0.960 . S
C1366 C1367 1.391 . S
C1366 C1368 1.394 . S
C1366 H1382 0.931 . S
C1367 C1366 1.391 . S
C1367 C1371 1.376 . S
C1368 C1366 1.394 . S
C1368 C1369 1.369 . S
C1368 C1372 1.531 . S
C1369 C1368 1.369 . S
C1369 C1370 1.410 . S
C1369 C1377 1.503 . S
C1370 C1369 1.410 . S
C1370 C1371 1.392 . S
C1370 C1373 1.511 . S
C1371 C1367 1.376 . S
C1371 C1370 1.392 . S
C1371 H1383 0.929 . S
C1372 C1368 1.531 . S
C1372 H1384 0.960 . S
C1372 H1385 0.962 . S
C1372 H1386 0.960 . S
C1373 C1370 1.511 . S
C1373 H1387 0.961 . S
C1373 H1388 0.961 . S
C1373 H1389 0.961 . S
C1374 C1375 1.370 . S
C1374 C1376 1.363 . S
C1374 H1390 0.931 . S
C1375 C1374 1.370 . S
C1375 C1379 1.408 . S
C1376 C1374 1.363 . S
C1376 C1377 1.370 . S
C1376 C1380 1.524 . S
C1377 C1369 1.503 . S
C1377 C1376 1.370 . S
C1377 C1378 1.403 . S
C1378 C1377 1.403 . S
C1378 C1379 1.404 . S
C1378 C1381 1.539 . S
C1379 C1375 1.408 . S
C1379 C1378 1.404 . S
C1379 H1391 0.930 . S
C1380 C1376 1.524 . S
C1380 H1392 0.956 . S
C1380 H1393 0.961 . S
C1380 H1394 0.961 . S
C1381 C1378 1.539 . S
C1381 H1395 0.958 . S
C1381 H1396 0.961 . S
C1381 H1397 0.960 . S
H1382 C1366 0.931 . S
H1383 C1371 0.929 . S
H1384 C1372 0.960 . S
H1385 C1372 0.962 . S
H1386 C1372 0.960 . S
H1387 C1373 0.961 . S
H1388 C1373 0.961 . S
H1389 C1373 0.961 . S
H1390 C1374 0.931 . S
H1391 C1379 0.930 . S
H1392 C1380 0.956 . S
H1393 C1380 0.961 . S
H1394 C1380 0.961 . S
H1395 C1381 0.958 . S
H1396 C1381 0.961 . S
H1397 C1381 0.960 . S
C1398 C1399 1.391 . S
C1398 C1400 1.394 . S
C1398 H1414 0.931 . S
C1399 C1398 1.391 . S
C1399 C1403 1.376 . S
C1400 C1398 1.394 . S
C1400 C1401 1.369 . S
C1400 C1404 1.531 . S
C1401 C1400 1.369 . S
C1401 C1402 1.410 . S
C1401 C1409 1.503 . S
C1402 C1401 1.410 . S
C1402 C1403 1.392 . S
C1402 C1405 1.511 . S
C1403 C1399 1.376 . S
C1403 C1402 1.392 . S
C1403 H1415 0.929 . S
C1404 C1400 1.531 . S
C1404 H1416 0.960 . S
C1404 H1417 0.962 . S
C1404 H1418 0.960 . S
C1405 C1402 1.511 . S
C1405 H1419 0.961 . S
C1405 H1420 0.961 . S
C1405 H1421 0.961 . S
C1406 C1407 1.370 . S
C1406 C1408 1.363 . S
C1406 H1422 0.931 . S
C1407 C1406 1.370 . S
C1407 C1411 1.408 . S
C1408 C1406 1.363 . S
C1408 C1409 1.370 . S
C1408 C1412 1.524 . S
C1409 C1401 1.503 . S
C1409 C1408 1.370 . S
C1409 C1410 1.403 . S
C1410 C1409 1.403 . S
C1410 C1411 1.404 . S
C1410 C1413 1.539 . S
C1411 C1407 1.408 . S
C1411 C1410 1.404 . S
C1411 H1423 0.930 . S
C1412 C1408 1.524 . S
C1412 H1424 0.956 . S
C1412 H1425 0.961 . S
C1412 H1426 0.961 . S
C1413 C1410 1.539 . S
C1413 H1427 0.958 . S
C1413 H1428 0.961 . S
C1413 H1429 0.960 . S
H1414 C1398 0.931 . S
H1415 C1403 0.929 . S
H1416 C1404 0.960 . S
H1417 C1404 0.962 . S
H1418 C1404 0.960 . S
H1419 C1405 0.961 . S
H1420 C1405 0.961 . S
H1421 C1405 0.961 . S
H1422 C1406 0.931 . S
H1423 C1411 0.930 . S
H1424 C1412 0.956 . S
H1425 C1412 0.961 . S
H1426 C1412 0.961 . S
H1427 C1413 0.958 . S
H1428 C1413 0.961 . S
H1429 C1413 0.960 . S
C1430 C1431 1.391 . S
C1430 C1432 1.394 . S
C1430 H1446 0.931 . S
C1431 C1430 1.391 . S
C1431 C1435 1.376 . S
C1432 C1430 1.394 . S
C1432 C1433 1.369 . S
C1432 C1436 1.531 . S
C1433 C1432 1.369 . S
C1433 C1434 1.410 . S
C1433 C1441 1.503 . S
C1434 C1433 1.410 . S
C1434 C1435 1.392 . S
C1434 C1437 1.511 . S
C1435 C1431 1.376 . S
C1435 C1434 1.392 . S
C1435 H1447 0.929 . S
C1436 C1432 1.531 . S
C1436 H1448 0.960 . S
C1436 H1449 0.962 . S
C1436 H1450 0.960 . S
C1437 C1434 1.511 . S
C1437 H1451 0.961 . S
C1437 H1452 0.961 . S
C1437 H1453 0.961 . S
C1438 C1439 1.370 . S
C1438 C1440 1.363 . S
C1438 H1454 0.931 . S
C1439 C1438 1.370 . S
C1439 C1443 1.408 . S
C1440 C1438 1.363 . S
C1440 C1441 1.370 . S
C1440 C1444 1.524 . S
C1441 C1433 1.503 . S
C1441 C1440 1.370 . S
C1441 C1442 1.403 . S
C1442 C1441 1.403 . S
C1442 C1443 1.404 . S
C1442 C1445 1.539 . S
C1443 C1439 1.408 . S
C1443 C1442 1.404 . S
C1443 H1455 0.930 . S
C1444 C1440 1.524 . S
C1444 H1456 0.956 . S
C1444 H1457 0.961 . S
C1444 H1458 0.961 . S
C1445 C1442 1.539 . S
C1445 H1459 0.958 . S
C1445 H1460 0.961 . S
C1445 H1461 0.960 . S
H1446 C1430 0.931 . S
H1447 C1435 0.929 . S
H1448 C1436 0.960 . S
H1449 C1436 0.962 . S
H1450 C1436 0.960 . S
H1451 C1437 0.961 . S
H1452 C1437 0.961 . S
H1453 C1437 0.961 . S
H1454 C1438 0.931 . S
H1455 C1443 0.930 . S
H1456 C1444 0.956 . S
H1457 C1444 0.961 . S
H1458 C1444 0.961 . S
H1459 C1445 0.958 . S
H1460 C1445 0.961 . S
H1461 C1445 0.960 . S
C1462 C1463 1.391 . S
C1462 C1464 1.394 . S
C1462 H1478 0.931 . S
C1463 C1462 1.391 . S
C1463 C1467 1.376 . S
C1464 C1462 1.394 . S
C1464 C1465 1.369 . S
C1464 C1468 1.531 . S
C1465 C1464 1.369 . S
C1465 C1466 1.410 . S
C1465 C1473 1.503 . S
C1466 C1465 1.410 . S
C1466 C1467 1.392 . S
C1466 C1469 1.511 . S
C1467 C1463 1.376 . S
C1467 C1466 1.392 . S
C1467 H1479 0.929 . S
C1468 C1464 1.531 . S
C1468 H1480 0.960 . S
C1468 H1481 0.962 . S
C1468 H1482 0.960 . S
C1469 C1466 1.511 . S
C1469 H1483 0.961 . S
C1469 H1484 0.961 . S
C1469 H1485 0.961 . S
C1470 C1471 1.370 . S
C1470 C1472 1.363 . S
C1470 H1486 0.931 . S
C1471 C1470 1.370 . S
C1471 C1475 1.408 . S
C1472 C1470 1.363 . S
C1472 C1473 1.370 . S
C1472 C1476 1.524 . S
C1473 C1465 1.503 . S
C1473 C1472 1.370 . S
C1473 C1474 1.403 . S
C1474 C1473 1.403 . S
C1474 C1475 1.404 . S
C1474 C1477 1.539 . S
C1475 C1471 1.408 . S
C1475 C1474 1.404 . S
C1475 H1487 0.930 . S
C1476 C1472 1.524 . S
C1476 H1488 0.956 . S
C1476 H1489 0.961 . S
C1476 H1490 0.961 . S
C1477 C1474 1.539 . S
C1477 H1491 0.958 . S
C1477 H1492 0.961 . S
C1477 H1493 0.960 . S
H1478 C1462 0.931 . S
H1479 C1467 0.929 . S
H1480 C1468 0.960 . S
H1481 C1468 0.962 . S
H1482 C1468 0.960 . S
H1483 C1469 0.961 . S
H1484 C1469 0.961 . S
H1485 C1469 0.961 . S
H1486 C1470 0.931 . S
H1487 C1475 0.930 . S
H1488 C1476 0.956 . S
H1489 C1476 0.961 . S
H1490 C1476 0.961 . S
H1491 C1477 0.958 . S
H1492 C1477 0.961 . S
H1493 C1477 0.960 . S
C1494 C1495 1.391 . S
C1494 C1496 1.394 . S
C1494 H1510 0.931 . S
C1495 C1494 1.391 . S
C1495 C1499 1.376 . S
C1496 C1494 1.394 . S
C1496 C1497 1.369 . S
C1496 C1500 1.531 . S
C1497 C1496 1.369 . S
C1497 C1498 1.410 . S
C1497 C1505 1.503 . S
C1498 C1497 1.410 . S
C1498 C1499 1.392 . S
C1498 C1501 1.511 . S
C1499 C1495 1.376 . S
C1499 C1498 1.392 . S
C1499 H1511 0.929 . S
C1500 C1496 1.531 . S
C1500 H1512 0.960 . S
C1500 H1513 0.962 . S
C1500 H1514 0.960 . S
C1501 C1498 1.511 . S
C1501 H1515 0.961 . S
C1501 H1516 0.961 . S
C1501 H1517 0.961 . S
C1502 C1503 1.370 . S
C1502 C1504 1.363 . S
C1502 H1518 0.931 . S
C1503 C1502 1.370 . S
C1503 C1507 1.408 . S
C1504 C1502 1.363 . S
C1504 C1505 1.370 . S
C1504 C1508 1.524 . S
C1505 C1497 1.503 . S
C1505 C1504 1.370 . S
C1505 C1506 1.403 . S
C1506 C1505 1.403 . S
C1506 C1507 1.404 . S
C1506 C1509 1.539 . S
C1507 C1503 1.408 . S
C1507 C1506 1.404 . S
C1507 H1519 0.930 . S
C1508 C1504 1.524 . S
C1508 H1520 0.956 . S
C1508 H1521 0.961 . S
C1508 H1522 0.961 . S
C1509 C1506 1.539 . S
C1509 H1523 0.958 . S
C1509 H1524 0.961 . S
C1509 H1525 0.960 . S
H1510 C1494 0.931 . S
H1511 C1499 0.929 . S
H1512 C1500 0.960 . S
H1513 C1500 0.962 . S
H1514 C1500 0.960 . S
H1515 C1501 0.961 . S
H1516 C1501 0.961 . S
H1517 C1501 0.961 . S
H1518 C1502 0.931 . S
H1519 C1507 0.930 . S
H1520 C1508 0.956 . S
H1521 C1508 0.961 . S
H1522 C1508 0.961 . S
H1523 C1509 0.958 . S
H1524 C1509 0.961 . S
H1525 C1509 0.960 . S
C1526 C1527 1.391 . S
C1526 C1528 1.394 . S
C1526 H1542 0.931 . S
C1527 C1526 1.391 . S
C1527 C1531 1.376 . S
C1528 C1526 1.394 . S
C1528 C1529 1.369 . S
C1528 C1532 1.531 . S
C1529 C1528 1.369 . S
C1529 C1530 1.410 . S
C1529 C1537 1.503 . S
C1530 C1529 1.410 . S
C1530 C1531 1.392 . S
C1530 C1533 1.511 . S
C1531 C1527 1.376 . S
C1531 C1530 1.392 . S
C1531 H1543 0.929 . S
C1532 C1528 1.531 . S
C1532 H1544 0.960 . S
C1532 H1545 0.962 . S
C1532 H1546 0.960 . S
C1533 C1530 1.511 . S
C1533 H1547 0.961 . S
C1533 H1548 0.961 . S
C1533 H1549 0.961 . S
C1534 C1535 1.370 . S
C1534 C1536 1.363 . S
C1534 H1550 0.931 . S
C1535 C1534 1.370 . S
C1535 C1539 1.408 . S
C1536 C1534 1.363 . S
C1536 C1537 1.370 . S
C1536 C1540 1.524 . S
C1537 C1529 1.503 . S
C1537 C1536 1.370 . S
C1537 C1538 1.403 . S
C1538 C1537 1.403 . S
C1538 C1539 1.404 . S
C1538 C1541 1.539 . S
C1539 C1535 1.408 . S
C1539 C1538 1.404 . S
C1539 H1551 0.930 . S
C1540 C1536 1.524 . S
C1540 H1552 0.956 . S
C1540 H1553 0.961 . S
C1540 H1554 0.961 . S
C1541 C1538 1.539 . S
C1541 H1555 0.958 . S
C1541 H1556 0.961 . S
C1541 H1557 0.960 . S
H1542 C1526 0.931 . S
H1543 C1531 0.929 . S
H1544 C1532 0.960 . S
H1545 C1532 0.962 . S
H1546 C1532 0.960 . S
H1547 C1533 0.961 . S
H1548 C1533 0.961 . S
H1549 C1533 0.961 . S
H1550 C1534 0.931 . S
H1551 C1539 0.930 . S
H1552 C1540 0.956 . S
H1553 C1540 0.961 . S
H1554 C1540 0.961 . S
H1555 C1541 0.958 . S
H1556 C1541 0.961 . S
H1557 C1541 0.960 . S
C1558 C1559 1.391 . S
C1558 C1560 1.394 . S
C1558 H1574 0.931 . S
C1559 C1558 1.391 . S
C1559 C1563 1.376 . S
C1560 C1558 1.394 . S
C1560 C1561 1.369 . S
C1560 C1564 1.531 . S
C1561 C1560 1.369 . S
C1561 C1562 1.410 . S
C1561 C1569 1.503 . S
C1562 C1561 1.410 . S
C1562 C1563 1.392 . S
C1562 C1565 1.511 . S
C1563 C1559 1.376 . S
C1563 C1562 1.392 . S
C1563 H1575 0.929 . S
C1564 C1560 1.531 . S
C1564 H1576 0.960 . S
C1564 H1577 0.962 . S
C1564 H1578 0.960 . S
C1565 C1562 1.511 . S
C1565 H1579 0.961 . S
C1565 H1580 0.961 . S
C1565 H1581 0.961 . S
C1566 C1567 1.370 . S
C1566 C1568 1.363 . S
C1566 H1582 0.931 . S
C1567 C1566 1.370 . S
C1567 C1571 1.408 . S
C1568 C1566 1.363 . S
C1568 C1569 1.370 . S
C1568 C1572 1.524 . S
C1569 C1561 1.503 . S
C1569 C1568 1.370 . S
C1569 C1570 1.403 . S
C1570 C1569 1.403 . S
C1570 C1571 1.404 . S
C1570 C1573 1.539 . S
C1571 C1567 1.408 . S
C1571 C1570 1.404 . S
C1571 H1583 0.930 . S
C1572 C1568 1.524 . S
C1572 H1584 0.956 . S
C1572 H1585 0.961 . S
C1572 H1586 0.961 . S
C1573 C1570 1.539 . S
C1573 H1587 0.958 . S
C1573 H1588 0.961 . S
C1573 H1589 0.960 . S
H1574 C1558 0.931 . S
H1575 C1563 0.929 . S
H1576 C1564 0.960 . S
H1577 C1564 0.962 . S
H1578 C1564 0.960 . S
H1579 C1565 0.961 . S
H1580 C1565 0.961 . S
H1581 C1565 0.961 . S
H1582 C1566 0.931 . S
H1583 C1571 0.930 . S
H1584 C1572 0.956 . S
H1585 C1572 0.961 . S
H1586 C1572 0.961 . S
H1587 C1573 0.958 . S
H1588 C1573 0.961 . S
H1589 C1573 0.960 . S
C1590 C1591 1.391 . S
C1590 C1592 1.394 . S
C1590 H1606 0.931 . S
C1591 C1590 1.391 . S
C1591 C1595 1.376 . S
C1592 C1590 1.394 . S
C1592 C1593 1.369 . S
C1592 C1596 1.531 . S
C1593 C1592 1.369 . S
C1593 C1594 1.410 . S
C1593 C1601 1.503 . S
C1594 C1593 1.410 . S
C1594 C1595 1.392 . S
C1594 C1597 1.511 . S
C1595 C1591 1.376 . S
C1595 C1594 1.392 . S
C1595 H1607 0.929 . S
C1596 C1592 1.531 . S
C1596 H1608 0.960 . S
C1596 H1609 0.962 . S
C1596 H1610 0.960 . S
C1597 C1594 1.511 . S
C1597 H1611 0.961 . S
C1597 H1612 0.961 . S
C1597 H1613 0.961 . S
C1598 C1599 1.370 . S
C1598 C1600 1.363 . S
C1598 H1614 0.931 . S
C1599 C1598 1.370 . S
C1599 C1603 1.408 . S
C1600 C1598 1.363 . S
C1600 C1601 1.370 . S
C1600 C1604 1.524 . S
C1601 C1593 1.503 . S
C1601 C1600 1.370 . S
C1601 C1602 1.403 . S
C1602 C1601 1.403 . S
C1602 C1603 1.404 . S
C1602 C1605 1.539 . S
C1603 C1599 1.408 . S
C1603 C1602 1.404 . S
C1603 H1615 0.930 . S
C1604 C1600 1.524 . S
C1604 H1616 0.956 . S
C1604 H1617 0.961 . S
C1604 H1618 0.961 . S
C1605 C1602 1.539 . S
C1605 H1619 0.958 . S
C1605 H1620 0.961 . S
C1605 H1621 0.960 . S
H1606 C1590 0.931 . S
H1607 C1595 0.929 . S
H1608 C1596 0.960 . S
H1609 C1596 0.962 . S
H1610 C1596 0.960 . S
H1611 C1597 0.961 . S
H1612 C1597 0.961 . S
H1613 C1597 0.961 . S
H1614 C1598 0.931 . S
H1615 C1603 0.930 . S
H1616 C1604 0.956 . S
H1617 C1604 0.961 . S
H1618 C1604 0.961 . S
H1619 C1605 0.958 . S
H1620 C1605 0.961 . S
H1621 C1605 0.960 . S
C1622 C1623 1.391 . S
C1622 C1624 1.394 . S
C1622 H1638 0.931 . S
C1623 C1622 1.391 . S
C1623 C1627 1.376 . S
C1624 C1622 1.394 . S
C1624 C1625 1.369 . S
C1624 C1628 1.531 . S
C1625 C1624 1.369 . S
C1625 C1626 1.410 . S
C1625 C1633 1.503 . S
C1626 C1625 1.410 . S
C1626 C1627 1.392 . S
C1626 C1629 1.511 . S
C1627 C1623 1.376 . S
C1627 C1626 1.392 . S
C1627 H1639 0.929 . S
C1628 C1624 1.531 . S
C1628 H1640 0.960 . S
C1628 H1641 0.962 . S
C1628 H1642 0.960 . S
C1629 C1626 1.511 . S
C1629 H1643 0.961 . S
C1629 H1644 0.961 . S
C1629 H1645 0.961 . S
C1630 C1631 1.370 . S
C1630 C1632 1.363 . S
C1630 H1646 0.931 . S
C1631 C1630 1.370 . S
C1631 C1635 1.408 . S
C1632 C1630 1.363 . S
C1632 C1633 1.370 . S
C1632 C1636 1.524 . S
C1633 C1625 1.503 . S
C1633 C1632 1.370 . S
C1633 C1634 1.403 . S
C1634 C1633 1.403 . S
C1634 C1635 1.404 . S
C1634 C1637 1.539 . S
C1635 C1631 1.408 . S
C1635 C1634 1.404 . S
C1635 H1647 0.930 . S
C1636 C1632 1.524 . S
C1636 H1648 0.956 . S
C1636 H1649 0.961 . S
C1636 H1650 0.961 . S
C1637 C1634 1.539 . S
C1637 H1651 0.958 . S
C1637 H1652 0.961 . S
C1637 H1653 0.960 . S
H1638 C1622 0.931 . S
H1639 C1627 0.929 . S
H1640 C1628 0.960 . S
H1641 C1628 0.962 . S
H1642 C1628 0.960 . S
H1643 C1629 0.961 . S
H1644 C1629 0.961 . S
H1645 C1629 0.961 . S
H1646 C1630 0.931 . S
H1647 C1635 0.930 . S
H1648 C1636 0.956 . S
H1649 C1636 0.961 . S
H1650 C1636 0.961 . S
H1651 C1637 0.958 . S
H1652 C1637 0.961 . S
H1653 C1637 0.960 . S
C1654 C1655 1.391 . S
C1654 C1656 1.394 . S
C1654 H1670 0.931 . S
C1655 C1654 1.391 . S
C1655 C1659 1.376 . S
C1656 C1654 1.394 . S
C1656 C1657 1.369 . S
C1656 C1660 1.531 . S
C1657 C1656 1.369 . S
C1657 C1658 1.410 . S
C1657 C1665 1.503 . S
C1658 C1657 1.410 . S
C1658 C1659 1.392 . S
C1658 C1661 1.511 . S
C1659 C1655 1.376 . S
C1659 C1658 1.392 . S
C1659 H1671 0.929 . S
C1660 C1656 1.531 . S
C1660 H1672 0.960 . S
C1660 H1673 0.962 . S
C1660 H1674 0.960 . S
C1661 C1658 1.511 . S
C1661 H1675 0.961 . S
C1661 H1676 0.961 . S
C1661 H1677 0.961 . S
C1662 C1663 1.370 . S
C1662 C1664 1.363 . S
C1662 H1678 0.931 . S
C1663 C1662 1.370 . S
C1663 C1667 1.408 . S
C1664 C1662 1.363 . S
C1664 C1665 1.370 . S
C1664 C1668 1.524 . S
C1665 C1657 1.503 . S
C1665 C1664 1.370 . S
C1665 C1666 1.403 . S
C1666 C1665 1.403 . S
C1666 C1667 1.404 . S
C1666 C1669 1.539 . S
C1667 C1663 1.408 . S
C1667 C1666 1.404 . S
C1667 H1679 0.930 . S
C1668 C1664 1.524 . S
C1668 H1680 0.956 . S
C1668 H1681 0.961 . S
C1668 H1682 0.961 . S
C1669 C1666 1.539 . S
C1669 H1683 0.958 . S
C1669 H1684 0.961 . S
C1669 H1685 0.960 . S
H1670 C1654 0.931 . S
H1671 C1659 0.929 . S
H1672 C1660 0.960 . S
H1673 C1660 0.962 . S
H1674 C1660 0.960 . S
H1675 C1661 0.961 . S
H1676 C1661 0.961 . S
H1677 C1661 0.961 . S
H1678 C1662 0.931 . S
H1679 C1667 0.930 . S
H1680 C1668 0.956 . S
H1681 C1668 0.961 . S
H1682 C1668 0.961 . S
H1683 C1669 0.958 . S
H1684 C1669 0.961 . S
H1685 C1669 0.960 . S
C1686 C1687 1.391 . S
C1686 C1688 1.394 . S
C1686 H1702 0.931 . S
C1687 C1686 1.391 . S
C1687 C1691 1.376 . S
C1688 C1686 1.394 . S
C1688 C1689 1.369 . S
C1688 C1692 1.531 . S
C1689 C1688 1.369 . S
C1689 C1690 1.410 . S
C1689 C1697 1.503 . S
C1690 C1689 1.410 . S
C1690 C1691 1.392 . S
C1690 C1693 1.511 . S
C1691 C1687 1.376 . S
C1691 C1690 1.392 . S
C1691 H1703 0.929 . S
C1692 C1688 1.531 . S
C1692 H1704 0.960 . S
C1692 H1705 0.962 . S
C1692 H1706 0.960 . S
C1693 C1690 1.511 . S
C1693 H1707 0.961 . S
C1693 H1708 0.961 . S
C1693 H1709 0.961 . S
C1694 C1695 1.370 . S
C1694 C1696 1.363 . S
C1694 H1710 0.931 . S
C1695 C1694 1.370 . S
C1695 C1699 1.408 . S
C1696 C1694 1.363 . S
C1696 C1697 1.370 . S
C1696 C1700 1.524 . S
C1697 C1689 1.503 . S
C1697 C1696 1.370 . S
C1697 C1698 1.403 . S
C1698 C1697 1.403 . S
C1698 C1699 1.404 . S
C1698 C1701 1.539 . S
C1699 C1695 1.408 . S
C1699 C1698 1.404 . S
C1699 H1711 0.930 . S
C1700 C1696 1.524 . S
C1700 H1712 0.956 . S
C1700 H1713 0.961 . S
C1700 H1714 0.961 . S
C1701 C1698 1.539 . S
C1701 H1715 0.958 . S
C1701 H1716 0.961 . S
C1701 H1717 0.960 . S
H1702 C1686 0.931 . S
H1703 C1691 0.929 . S
H1704 C1692 0.960 . S
H1705 C1692 0.962 . S
H1706 C1692 0.960 . S
H1707 C1693 0.961 . S
H1708 C1693 0.961 . S
H1709 C1693 0.961 . S
H1710 C1694 0.931 . S
H1711 C1699 0.930 . S
H1712 C1700 0.956 . S
H1713 C1700 0.961 . S
H1714 C1700 0.961 . S
H1715 C1701 0.958 . S
H1716 C1701 0.961 . S
H1717 C1701 0.960 . S
C1718 C1719 1.391 . S
C1718 C1720 1.394 . S
C1718 H1734 0.931 . S
C1719 C1718 1.391 . S
C1719 C1723 1.376 . S
C1720 C1718 1.394 . S
C1720 C1721 1.369 . S
C1720 C1724 1.531 . S
C1721 C1720 1.369 . S
C1721 C1722 1.410 . S
C1721 C1729 1.503 . S
C1722 C1721 1.410 . S
C1722 C1723 1.392 . S
C1722 C1725 1.511 . S
C1723 C1719 1.376 . S
C1723 C1722 1.392 . S
C1723 H1735 0.929 . S
C1724 C1720 1.531 . S
C1724 H1736 0.960 . S
C1724 H1737 0.962 . S
C1724 H1738 0.960 . S
C1725 C1722 1.511 . S
C1725 H1739 0.961 . S
C1725 H1740 0.961 . S
C1725 H1741 0.961 . S
C1726 C1727 1.370 . S
C1726 C1728 1.363 . S
C1726 H1742 0.931 . S
C1727 C1726 1.370 . S
C1727 C1731 1.408 . S
C1728 C1726 1.363 . S
C1728 C1729 1.370 . S
C1728 C1732 1.524 . S
C1729 C1721 1.503 . S
C1729 C1728 1.370 . S
C1729 C1730 1.403 . S
C1730 C1729 1.403 . S
C1730 C1731 1.404 . S
C1730 C1733 1.539 . S
C1731 C1727 1.408 . S
C1731 C1730 1.404 . S
C1731 H1743 0.930 . S
C1732 C1728 1.524 . S
C1732 H1744 0.956 . S
C1732 H1745 0.961 . S
C1732 H1746 0.961 . S
C1733 C1730 1.539 . S
C1733 H1747 0.958 . S
C1733 H1748 0.961 . S
C1733 H1749 0.960 . S
H1734 C1718 0.931 . S
H1735 C1723 0.929 . S
H1736 C1724 0.960 . S
H1737 C1724 0.962 . S
H1738 C1724 0.960 . S
H1739 C1725 0.961 . S
H1740 C1725 0.961 . S
H1741 C1725 0.961 . S
H1742 C1726 0.931 . S
H1743 C1731 0.930 . S
H1744 C1732 0.956 . S
H1745 C1732 0.961 . S
H1746 C1732 0.961 . S
H1747 C1733 0.958 . S
H1748 C1733 0.961 . S
H1749 C1733 0.960 . S
C1750 C1751 1.391 . S
C1750 C1752 1.394 . S
C1750 H1766 0.931 . S
C1751 C1750 1.391 . S
C1751 C1755 1.376 . S
C1752 C1750 1.394 . S
C1752 C1753 1.369 . S
C1752 C1756 1.531 . S
C1753 C1752 1.369 . S
C1753 C1754 1.410 . S
C1753 C1761 1.503 . S
C1754 C1753 1.410 . S
C1754 C1755 1.392 . S
C1754 C1757 1.511 . S
C1755 C1751 1.376 . S
C1755 C1754 1.392 . S
C1755 H1767 0.929 . S
C1756 C1752 1.531 . S
C1756 H1768 0.960 . S
C1756 H1769 0.962 . S
C1756 H1770 0.960 . S
C1757 C1754 1.511 . S
C1757 H1771 0.961 . S
C1757 H1772 0.961 . S
C1757 H1773 0.961 . S
C1758 C1759 1.370 . S
C1758 C1760 1.363 . S
C1758 H1774 0.931 . S
C1759 C1758 1.370 . S
C1759 C1763 1.408 . S
C1760 C1758 1.363 . S
C1760 C1761 1.370 . S
C1760 C1764 1.524 . S
C1761 C1753 1.503 . S
C1761 C1760 1.370 . S
C1761 C1762 1.403 . S
C1762 C1761 1.403 . S
C1762 C1763 1.404 . S
C1762 C1765 1.539 . S
C1763 C1759 1.408 . S
C1763 C1762 1.404 . S
C1763 H1775 0.930 . S
C1764 C1760 1.524 . S
C1764 H1776 0.956 . S
C1764 H1777 0.961 . S
C1764 H1778 0.961 . S
C1765 C1762 1.539 . S
C1765 H1779 0.958 . S
C1765 H1780 0.961 . S
C1765 H1781 0.960 . S
H1766 C1750 0.931 . S
H1767 C1755 0.929 . S
H1768 C1756 0.960 . S
H1769 C1756 0.962 . S
H1770 C1756 0.960 . S
H1771 C1757 0.961 . S
H1772 C1757 0.961 . S
H1773 C1757 0.961 . S
H1774 C1758 0.931 . S
H1775 C1763 0.930 . S
H1776 C1764 0.956 . S
H1777 C1764 0.961 . S
H1778 C1764 0.961 . S
H1779 C1765 0.958 . S
H1780 C1765 0.961 . S
H1781 C1765 0.960 . S
C1782 C1783 1.391 . S
C1782 C1784 1.394 . S
C1782 H1798 0.931 . S
C1783 C1782 1.391 . S
C1783 C1787 1.376 . S
C1784 C1782 1.394 . S
C1784 C1785 1.369 . S
C1784 C1788 1.531 . S
C1785 C1784 1.369 . S
C1785 C1786 1.410 . S
C1785 C1793 1.503 . S
C1786 C1785 1.410 . S
C1786 C1787 1.392 . S
C1786 C1789 1.511 . S
C1787 C1783 1.376 . S
C1787 C1786 1.392 . S
C1787 H1799 0.929 . S
C1788 C1784 1.531 . S
C1788 H1800 0.960 . S
C1788 H1801 0.962 . S
C1788 H1802 0.960 . S
C1789 C1786 1.511 . S
C1789 H1803 0.961 . S
C1789 H1804 0.961 . S
C1789 H1805 0.961 . S
C1790 C1791 1.370 . S
C1790 C1792 1.363 . S
C1790 H1806 0.931 . S
C1791 C1790 1.370 . S
C1791 C1795 1.408 . S
C1792 C1790 1.363 . S
C1792 C1793 1.370 . S
C1792 C1796 1.524 . S
C1793 C1785 1.503 . S
C1793 C1792 1.370 . S
C1793 C1794 1.403 . S
C1794 C1793 1.403 . S
C1794 C1795 1.404 . S
C1794 C1797 1.539 . S
C1795 C1791 1.408 . S
C1795 C1794 1.404 . S
C1795 H1807 0.930 . S
C1796 C1792 1.524 . S
C1796 H1808 0.956 . S
C1796 H1809 0.961 . S
C1796 H1810 0.961 . S
C1797 C1794 1.539 . S
C1797 H1811 0.958 . S
C1797 H1812 0.961 . S
C1797 H1813 0.960 . S
H1798 C1782 0.931 . S
H1799 C1787 0.929 . S
H1800 C1788 0.960 . S
H1801 C1788 0.962 . S
H1802 C1788 0.960 . S
H1803 C1789 0.961 . S
H1804 C1789 0.961 . S
H1805 C1789 0.961 . S
H1806 C1790 0.931 . S
H1807 C1795 0.930 . S
H1808 C1796 0.956 . S
H1809 C1796 0.961 . S
H1810 C1796 0.961 . S
H1811 C1797 0.958 . S
H1812 C1797 0.961 . S
H1813 C1797 0.960 . S
C1814 C1815 1.391 . S
C1814 C1816 1.394 . S
C1814 H1830 0.931 . S
C1815 C1814 1.391 . S
C1815 C1819 1.376 . S
C1816 C1814 1.394 . S
C1816 C1817 1.369 . S
C1816 C1820 1.531 . S
C1817 C1816 1.369 . S
C1817 C1818 1.410 . S
C1817 C1825 1.503 . S
C1818 C1817 1.410 . S
C1818 C1819 1.392 . S
C1818 C1821 1.511 . S
C1819 C1815 1.376 . S
C1819 C1818 1.392 . S
C1819 H1831 0.929 . S
C1820 C1816 1.531 . S
C1820 H1832 0.960 . S
C1820 H1833 0.962 . S
C1820 H1834 0.960 . S
C1821 C1818 1.511 . S
C1821 H1835 0.961 . S
C1821 H1836 0.961 . S
C1821 H1837 0.961 . S
C1822 C1823 1.370 . S
C1822 C1824 1.363 . S
C1822 H1838 0.931 . S
C1823 C1822 1.370 . S
C1823 C1827 1.408 . S
C1824 C1822 1.363 . S
C1824 C1825 1.370 . S
C1824 C1828 1.524 . S
C1825 C1817 1.503 . S
C1825 C1824 1.370 . S
C1825 C1826 1.403 . S
C1826 C1825 1.403 . S
C1826 C1827 1.404 . S
C1826 C1829 1.539 . S
C1827 C1823 1.408 . S
C1827 C1826 1.404 . S
C1827 H1839 0.930 . S
C1828 C1824 1.524 . S
C1828 H1840 0.956 . S
C1828 H1841 0.961 . S
C1828 H1842 0.961 . S
C1829 C1826 1.539 . S
C1829 H1843 0.958 . S
C1829 H1844 0.961 . S
C1829 H1845 0.960 . S
H1830 C1814 0.931 . S
H1831 C1819 0.929 . S
H1832 C1820 0.960 . S
H1833 C1820 0.962 . S
H1834 C1820 0.960 . S
H1835 C1821 0.961 . S
H1836 C1821 0.961 . S
H1837 C1821 0.961 . S
H1838 C1822 0.931 . S
H1839 C1827 0.930 . S
H1840 C1828 0.956 . S
H1841 C1828 0.961 . S
H1842 C1828 0.961 . S
H1843 C1829 0.958 . S
H1844 C1829 0.961 . S
H1845 C1829 0.960 . S
C1846 C1847 1.391 . S
C1846 C1848 1.394 . S
C1846 H1862 0.931 . S
C1847 C1846 1.391 . S
C1847 C1851 1.376 . S
C1848 C1846 1.394 . S
C1848 C1849 1.369 . S
C1848 C1852 1.531 . S
C1849 C1848 1.369 . S
C1849 C1850 1.410 . S
C1849 C1857 1.503 . S
C1850 C1849 1.410 . S
C1850 C1851 1.392 . S
C1850 C1853 1.511 . S
C1851 C1847 1.376 . S
C1851 C1850 1.392 . S
C1851 H1863 0.929 . S
C1852 C1848 1.531 . S
C1852 H1864 0.960 . S
C1852 H1865 0.962 . S
C1852 H1866 0.960 . S
C1853 C1850 1.511 . S
C1853 H1867 0.961 . S
C1853 H1868 0.961 . S
C1853 H1869 0.961 . S
C1854 C1855 1.370 . S
C1854 C1856 1.363 . S
C1854 H1870 0.931 . S
C1855 C1854 1.370 . S
C1855 C1859 1.408 . S
C1856 C1854 1.363 . S
C1856 C1857 1.370 . S
C1856 C1860 1.524 . S
C1857 C1849 1.503 . S
C1857 C1856 1.370 . S
C1857 C1858 1.403 . S
C1858 C1857 1.403 . S
C1858 C1859 1.404 . S
C1858 C1861 1.539 . S
C1859 C1855 1.408 . S
C1859 C1858 1.404 . S
C1859 H1871 0.930 . S
C1860 C1856 1.524 . S
C1860 H1872 0.956 . S
C1860 H1873 0.961 . S
C1860 H1874 0.961 . S
C1861 C1858 1.539 . S
C1861 H1875 0.958 . S
C1861 H1876 0.961 . S
C1861 H1877 0.960 . S
H1862 C1846 0.931 . S
H1863 C1851 0.929 . S
H1864 C1852 0.960 . S
H1865 C1852 0.962 . S
H1866 C1852 0.960 . S
H1867 C1853 0.961 . S
H1868 C1853 0.961 . S
H1869 C1853 0.961 . S
H1870 C1854 0.931 . S
H1871 C1859 0.930 . S
H1872 C1860 0.956 . S
H1873 C1860 0.961 . S
H1874 C1860 0.961 . S
H1875 C1861 0.958 . S
H1876 C1861 0.961 . S
H1877 C1861 0.960 . S
C1878 C1879 1.391 . S
C1878 C1880 1.394 . S
C1878 H1894 0.931 . S
C1879 C1878 1.391 . S
C1879 C1883 1.376 . S
C1880 C1878 1.394 . S
C1880 C1881 1.369 . S
C1880 C1884 1.531 . S
C1881 C1880 1.369 . S
C1881 C1882 1.410 . S
C1881 C1889 1.503 . S
C1882 C1881 1.410 . S
C1882 C1883 1.392 . S
C1882 C1885 1.511 . S
C1883 C1879 1.376 . S
C1883 C1882 1.392 . S
C1883 H1895 0.929 . S
C1884 C1880 1.531 . S
C1884 H1896 0.960 . S
C1884 H1897 0.962 . S
C1884 H1898 0.960 . S
C1885 C1882 1.511 . S
C1885 H1899 0.961 . S
C1885 H1900 0.961 . S
C1885 H1901 0.961 . S
C1886 C1887 1.370 . S
C1886 C1888 1.363 . S
C1886 H1902 0.931 . S
C1887 C1886 1.370 . S
C1887 C1891 1.408 . S
C1888 C1886 1.363 . S
C1888 C1889 1.370 . S
C1888 C1892 1.524 . S
C1889 C1881 1.503 . S
C1889 C1888 1.370 . S
C1889 C1890 1.403 . S
C1890 C1889 1.403 . S
C1890 C1891 1.404 . S
C1890 C1893 1.539 . S
C1891 C1887 1.408 . S
C1891 C1890 1.404 . S
C1891 H1903 0.930 . S
C1892 C1888 1.524 . S
C1892 H1904 0.956 . S
C1892 H1905 0.961 . S
C1892 H1906 0.961 . S
C1893 C1890 1.539 . S
C1893 H1907 0.958 . S
C1893 H1908 0.961 . S
C1893 H1909 0.960 . S
H1894 C1878 0.931 . S
H1895 C1883 0.929 . S
H1896 C1884 0.960 . S
H1897 C1884 0.962 . S
H1898 C1884 0.960 . S
H1899 C1885 0.961 . S
H1900 C1885 0.961 . S
H1901 C1885 0.961 . S
H1902 C1886 0.931 . S
H1903 C1891 0.930 . S
H1904 C1892 0.956 . S
H1905 C1892 0.961 . S
H1906 C1892 0.961 . S
H1907 C1893 0.958 . S
H1908 C1893 0.961 . S
H1909 C1893 0.960 . S
C1910 C1911 1.391 . S
C1910 C1912 1.394 . S
C1910 H1926 0.931 . S
C1911 C1910 1.391 . S
C1911 C1915 1.376 . S
C1912 C1910 1.394 . S
C1912 C1913 1.369 . S
C1912 C1916 1.531 . S
C1913 C1912 1.369 . S
C1913 C1914 1.410 . S
C1913 C1921 1.503 . S
C1914 C1913 1.410 . S
C1914 C1915 1.392 . S
C1914 C1917 1.511 . S
C1915 C1911 1.376 . S
C1915 C1914 1.392 . S
C1915 H1927 0.929 . S
C1916 C1912 1.531 . S
C1916 H1928 0.960 . S
C1916 H1929 0.962 . S
C1916 H1930 0.960 . S
C1917 C1914 1.511 . S
C1917 H1931 0.961 . S
C1917 H1932 0.961 . S
C1917 H1933 0.961 . S
C1918 C1919 1.370 . S
C1918 C1920 1.363 . S
C1918 H1934 0.931 . S
C1919 C1918 1.370 . S
C1919 C1923 1.408 . S
C1920 C1918 1.363 . S
C1920 C1921 1.370 . S
C1920 C1924 1.524 . S
C1921 C1913 1.503 . S
C1921 C1920 1.370 . S
C1921 C1922 1.403 . S
C1922 C1921 1.403 . S
C1922 C1923 1.404 . S
C1922 C1925 1.539 . S
C1923 C1919 1.408 . S
C1923 C1922 1.404 . S
C1923 H1935 0.930 . S
C1924 C1920 1.524 . S
C1924 H1936 0.956 . S
C1924 H1937 0.961 . S
C1924 H1938 0.961 . S
C1925 C1922 1.539 . S
C1925 H1939 0.958 . S
C1925 H1940 0.961 . S
C1925 H1941 0.960 . S
H1926 C1910 0.931 . S
H1927 C1915 0.929 . S
H1928 C1916 0.960 . S
H1929 C1916 0.962 . S
H1930 C1916 0.960 . S
H1931 C1917 0.961 . S
H1932 C1917 0.961 . S
H1933 C1917 0.961 . S
H1934 C1918 0.931 . S
H1935 C1923 0.930 . S
H1936 C1924 0.956 . S
H1937 C1924 0.961 . S
H1938 C1924 0.961 . S
H1939 C1925 0.958 . S
H1940 C1925 0.961 . S
H1941 C1925 0.960 . S
C1942 C1943 1.391 . S
C1942 C1944 1.394 . S
C1942 H1958 0.931 . S
C1943 C1942 1.391 . S
C1943 C1947 1.376 . S
C1944 C1942 1.394 . S
C1944 C1945 1.369 . S
C1944 C1948 1.531 . S
C1945 C1944 1.369 . S
C1945 C1946 1.410 . S
C1945 C1953 1.503 . S
C1946 C1945 1.410 . S
C1946 C1947 1.392 . S
C1946 C1949 1.511 . S
C1947 C1943 1.376 . S
C1947 C1946 1.392 . S
C1947 H1959 0.929 . S
C1948 C1944 1.531 . S
C1948 H1960 0.960 . S
C1948 H1961 0.962 . S
C1948 H1962 0.960 . S
C1949 C1946 1.511 . S
C1949 H1963 0.961 . S
C1949 H1964 0.961 . S
C1949 H1965 0.961 . S
C1950 C1951 1.370 . S
C1950 C1952 1.363 . S
C1950 H1966 0.931 . S
C1951 C1950 1.370 . S
C1951 C1955 1.408 . S
C1952 C1950 1.363 . S
C1952 C1953 1.370 . S
C1952 C1956 1.524 . S
C1953 C1945 1.503 . S
C1953 C1952 1.370 . S
C1953 C1954 1.403 . S
C1954 C1953 1.403 . S
C1954 C1955 1.404 . S
C1954 C1957 1.539 . S
C1955 C1951 1.408 . S
C1955 C1954 1.404 . S
C1955 H1967 0.930 . S
C1956 C1952 1.524 . S
C1956 H1968 0.956 . S
C1956 H1969 0.961 . S
C1956 H1970 0.961 . S
C1957 C1954 1.539 . S
C1957 H1971 0.958 . S
C1957 H1972 0.961 . S
C1957 H1973 0.960 . S
H1958 C1942 0.931 . S
H1959 C1947 0.929 . S
H1960 C1948 0.960 . S
H1961 C1948 0.962 . S
H1962 C1948 0.960 . S
H1963 C1949 0.961 . S
H1964 C1949 0.961 . S
H1965 C1949 0.961 . S
H1966 C1950 0.931 . S
H1967 C1955 0.930 . S
H1968 C1956 0.956 . S
H1969 C1956 0.961 . S
H1970 C1956 0.961 . S
H1971 C1957 0.958 . S
H1972 C1957 0.961 . S
H1973 C1957 0.960 . S
C447 C267 0.735 . S
C439 N6 0.719 . S
C479 C268 2.143 . S
C471 C57 2.243 . S
C511 C262 1.353 . S
C503 C61 1.374 . S
C535 N96 0.636 . S
C543 C261 0.374 . S
C567 C136 2.253 . S
C575 C264 2.127 . S
C607 C266 1.329 . S
C599 C160 1.374 . S
C631 N194 0.580 . S
C639 C265 0.416 . S
C663 N224 0.757 . S
C671 C263 0.801 . S
C703 C298 2.006 . S
C695 C10 1.969 . S
C727 N36 0.887 . S
C735 C329 0.932 . S
C767 C297 0.633 . S
C759 N74 0.707 . S
C799 C332 1.224 . S
C791 C100 1.279 . S
C823 C121 1.477 . S
C831 C295 1.469 . S
C863 C327 1.919 . S
C855 C177 1.918 . S
C887 C196 2.087 . S
C895 C300 2.033 . S
C919 C226 1.963 . S
C927 C334 1.909 . S
C951 C27 1.964 . S
C959 C330 1.920 . S
C983 N134 0.966 . S
C991 C333 0.933 . S
C1023 C301 0.619 . S
C1015 N156 0.546 . S
C1055 C328 1.245 . S
C1047 C181 1.286 . S
C1079 C211 1.966 . S
C1087 C294 2.006 . S
C1111 C76 1.915 . S
C1119 C331 1.925 . S
C1151 C296 2.014 . S
C1143 C117 2.051 . S
C1175 C40 1.496 . S
C1183 C299 1.469 . S
C1207 N216 0.839 . S
C1215 C366 0.803 . S
C1239 C147 1.837 . S
C1247 C367 1.759 . S
C1279 C361 1.253 . S
C1271 C151 1.279 . S
C1311 C360 0.578 . S
C1303 N186 0.696 . S
C1335 C46 1.855 . S
C1343 C363 1.736 . S
C1375 C365 1.257 . S
C1367 C70 1.277 . S
C1399 N104 0.540 . S
C1407 C364 0.626 . S
C1431 N14 0.705 . S
C1439 C362 0.787 . S
C1463 C220 2.079 . S
C1471 C400 2.012 . S
C1503 C432 0.909 . S
C1495 N126 0.860 . S
C1527 N164 0.579 . S
C1535 C393 0.475 . S
C1559 C190 1.523 . S
C1567 C427 1.510 . S
C1599 C398 1.273 . S
C1591 C31 1.300 . S
C1623 C87 2.082 . S
C1631 C429 2.037 . S
C1663 C395 2.177 . S
C1655 C106 2.254 . S
C1695 C430 1.920 . S
C1687 C16 1.850 . S
C1727 C426 1.921 . S
C1719 C237 1.858 . S
C1751 N44 0.788 . S
C1759 C428 0.884 . S
C1783 N66 0.612 . S
C1791 C397 0.473 . S
C1823 C431 1.505 . S
C1815 C91 1.508 . S
C1847 C1 2.096 . S
C1855 C396 2.034 . S
C1879 C166 2.077 . S
C1887 C433 2.042 . S
C1919 C399 2.177 . S
C1911 C207 2.264 . S
C1951 C394 1.294 . S
C1943 C130 1.304 . S
