# Generated by pormake.
# Topology cml, (3,6)-cn, num edge types: 1
# Building blocks:
#     Node 0, Type 0, BuildingBlock: WUSLED_clean_sbu_0, # of connection points: 3
#     Node 1, Type 0, BuildingBlock: WUSLED_clean_sbu_0, # of connection points: 3
#     Node 2, Type 0, BuildingBlock: WUSLED_clean_sbu_0, # of connection points: 3
#     Node 3, Type 0, BuildingBlock: WUSLED_clean_sbu_0, # of connection points: 3
#     Node 4, Type 0, BuildingBlock: WUSLED_clean_sbu_0, # of connection points: 3
#     Node 5, Type 0, BuildingBlock: WUSLED_clean_sbu_0, # of connection points: 3
#     Node 6, Type 0, BuildingBlock: WUSLED_clean_sbu_0, # of connection points: 3
#     Node 7, Type 0, BuildingBlock: WUSLED_clean_sbu_0, # of connection points: 3
#     Node 8, Type 1, BuildingBlock: IZENUY_clean_sbu_0, # of connection points: 6
#     Node 9, Type 1, BuildingBlock: IZENUY_clean_sbu_0, # of connection points: 6
#     Node 10, Type 1, BuildingBlock: IZENUY_clean_sbu_0, # of connection points: 6
#     Node 11, Type 1, BuildingBlock: IZENUY_clean_sbu_0, # of connection points: 6
#     Edge 12, Type (0, 1), BuildingBlock: MIFKUJ_clean_linker_0, # of connection points: 2
#     Edge 13, Type (0, 1), BuildingBlock: MIFKUJ_clean_linker_0, # of connection points: 2
#     Edge 14, Type (0, 1), BuildingBlock: MIFKUJ_clean_linker_0, # of connection points: 2
#     Edge 15, Type (0, 1), BuildingBlock: MIFKUJ_clean_linker_0, # of connection points: 2
#     Edge 16, Type (0, 1), BuildingBlock: MIFKUJ_clean_linker_0, # of connection points: 2
#     Edge 17, Type (0, 1), BuildingBlock: MIFKUJ_clean_linker_0, # of connection points: 2
#     Edge 18, Type (0, 1), BuildingBlock: MIFKUJ_clean_linker_0, # of connection points: 2
#     Edge 19, Type (0, 1), BuildingBlock: MIFKUJ_clean_linker_0, # of connection points: 2
#     Edge 20, Type (0, 1), BuildingBlock: MIFKUJ_clean_linker_0, # of connection points: 2
#     Edge 21, Type (0, 1), BuildingBlock: MIFKUJ_clean_linker_0, # of connection points: 2
#     Edge 22, Type (0, 1), BuildingBlock: MIFKUJ_clean_linker_0, # of connection points: 2
#     Edge 23, Type (0, 1), BuildingBlock: MIFKUJ_clean_linker_0, # of connection points: 2
#     Edge 24, Type (0, 1), BuildingBlock: MIFKUJ_clean_linker_0, # of connection points: 2
#     Edge 25, Type (0, 1), BuildingBlock: MIFKUJ_clean_linker_0, # of connection points: 2
#     Edge 26, Type (0, 1), BuildingBlock: MIFKUJ_clean_linker_0, # of connection points: 2
#     Edge 27, Type (0, 1), BuildingBlock: MIFKUJ_clean_linker_0, # of connection points: 2
#     Edge 28, Type (0, 1), BuildingBlock: MIFKUJ_clean_linker_0, # of connection points: 2
#     Edge 29, Type (0, 1), BuildingBlock: MIFKUJ_clean_linker_0, # of connection points: 2
#     Edge 30, Type (0, 1), BuildingBlock: MIFKUJ_clean_linker_0, # of connection points: 2
#     Edge 31, Type (0, 1), BuildingBlock: MIFKUJ_clean_linker_0, # of connection points: 2
#     Edge 32, Type (0, 1), BuildingBlock: MIFKUJ_clean_linker_0, # of connection points: 2
#     Edge 33, Type (0, 1), BuildingBlock: MIFKUJ_clean_linker_0, # of connection points: 2
#     Edge 34, Type (0, 1), BuildingBlock: MIFKUJ_clean_linker_0, # of connection points: 2
#     Edge 35, Type (0, 1), BuildingBlock: MIFKUJ_clean_linker_0, # of connection points: 2
# Relax obj value: 0.052
# Max RMSD: 0.067
# Mean RMSD: 0.065
data_MOF--net-cml--node1-WUSLED_clean_sbu_0--node2-IZENUY_clean_sbu_0--edge1-MIFKUJ_clean_linker_0
_symmetry_space_group_name_H-M    P1
_symmetry_Int_Tables_number       1
_symmetry_cell_setting            triclinic
loop_
_symmetry_equiv_pos_as_xyz
'x, y, z'
_cell_length_a     56.102951
_cell_length_b     65.291493
_cell_length_c     60.106565
_cell_angle_alpha  90.370983
_cell_angle_beta   90.135362
_cell_angle_gamma 90.05157
loop_
_atom_site_label
_atom_site_type_symbol
_atom_site_fract_x
_atom_site_fract_y
_atom_site_fract_z
_atom_type_partial_charge
C0 C 0.31048 0.4243 0.96051 0.0
C1 C 0.31927 0.43935 0.97516 0.0
C2 C 0.33459 0.45903 0.94393 0.0
C3 C 0.33108 0.45658 0.96696 0.0
C4 C 0.32571 0.44386 0.92934 0.0
C5 C 0.31375 0.42669 0.93757 0.0
U6 U 0.30108 0.38586 1.00671 0.0
O7 O 0.26855 0.37136 0.0195 0.0
O8 O 0.29712 0.35229 1.00557 0.0
C9 C 0.27524 0.35289 0.01332 0.0
C10 C 0.29855 0.40583 0.96902 0.0
C11 C 0.25744 0.34085 1.00078 0.0
C12 C 0.22812 0.33746 0.97107 0.0
C13 C 0.24548 0.34903 0.98232 0.0
C14 C 0.23484 0.30932 0.99638 0.0
C15 C 0.22246 0.31748 0.97806 0.0
C16 C 0.2521 0.32091 1.00761 0.0
C17 C 0.33861 0.39507 0.06018 0.0
C18 C 0.34844 0.37099 0.08954 0.0
C19 C 0.35718 0.40708 0.0944 0.0
C20 C 0.34759 0.41105 0.0734 0.0
C21 C 0.35807 0.38697 0.10262 0.0
C22 C 0.33879 0.37501 0.06846 0.0
C23 C 0.33032 0.39979 0.03751 0.0
O24 O 0.31253 0.38993 0.97197 0.0
O25 O 0.28367 0.40883 0.98559 0.0
O26 O 0.30814 0.40598 0.03558 0.0
O27 O 0.33682 0.38698 0.02169 0.0
H28 H 0.31707 0.43775 0.99297 0.0
H29 H 0.33733 0.46805 0.9787 0.0
H30 H 0.32838 0.44504 0.91156 0.0
H31 H 0.30727 0.41514 0.92602 0.0
H32 H 0.21883 0.34431 0.95718 0.0
H33 H 0.2494 0.36442 0.97676 0.0
H34 H 0.23131 0.29389 1.002 0.0
H35 H 0.26125 0.31429 0.02175 0.0
H36 H 0.34895 0.35532 0.09531 0.0
H37 H 0.36399 0.41981 0.10417 0.0
H38 H 0.34752 0.42665 0.06733 0.0
H39 H 0.33191 0.36244 0.05849 0.0
C40 C 0.70684 0.66022 0.57039 0.0
C41 C 0.69664 0.6419 0.57793 0.0
C42 C 0.68057 0.65958 0.61047 0.0
C43 C 0.68373 0.64156 0.59781 0.0
C44 C 0.69075 0.67792 0.60271 0.0
C45 C 0.70378 0.67821 0.58287 0.0
U46 U 0.7218 0.63624 0.51459 0.0
O47 O 0.7272 0.6499 0.48162 0.0
O48 O 0.75603 0.63237 0.49723 0.0
C49 C 0.74955 0.64393 0.48046 0.0
C50 C 0.72026 0.66072 0.54936 0.0
C51 C 0.76693 0.65955 0.47355 0.0
C52 C 0.78588 0.69289 0.47776 0.0
C53 C 0.7693 0.67827 0.48495 0.0
C54 C 0.79793 0.67009 0.4479 0.0
C55 C 0.80033 0.68901 0.45905 0.0
C56 C 0.78139 0.65556 0.45507 0.0
C57 C 0.68904 0.5855 0.50021 0.0
C58 C 0.67379 0.5707 0.4657 0.0
C59 C 0.68168 0.54887 0.49728 0.0
C60 C 0.68935 0.56589 0.50957 0.0
C61 C 0.67334 0.5511 0.47533 0.0
C62 C 0.68157 0.58774 0.47801 0.0
C63 C 0.69484 0.60333 0.51452 0.0
O64 O 0.73635 0.64625 0.54688 0.0
O65 O 0.70731 0.66358 0.5314 0.0
O66 O 0.6874 0.62135 0.50777 0.0
O67 O 0.71638 0.60378 0.52315 0.0
H68 H 0.69872 0.62784 0.56845 0.0
H69 H 0.67646 0.62711 0.60336 0.0
H70 H 0.6884 0.69215 0.6118 0.0
H71 H 0.71135 0.69252 0.57721 0.0
H72 H 0.7871 0.70733 0.48664 0.0
H73 H 0.75828 0.68159 0.4993 0.0
H74 H 0.80903 0.66639 0.43372 0.0
H75 H 0.7799 0.64113 0.44615 0.0
H76 H 0.66732 0.57302 0.44892 0.0
H77 H 0.68202 0.53398 0.5051 0.0
H78 H 0.69504 0.56378 0.52665 0.0
H79 H 0.68114 0.6027 0.47033 0.0
C80 C 0.71165 0.42979 0.96959 0.0
C81 C 0.68937 0.43465 0.97882 0.0
C82 C 0.68734 0.46568 0.95654 0.0
C83 C 0.67729 0.45237 0.97228 0.0
C84 C 0.70989 0.46095 0.94768 0.0
C85 C 0.72189 0.44313 0.95411 0.0
U86 U 0.72211 0.38653 1.01047 0.0
O87 O 0.72735 0.35346 1.00508 0.0
O88 O 0.75522 0.37165 0.02161 0.0
C89 C 0.74901 0.35368 0.01347 0.0
C90 C 0.72426 0.41089 0.97595 0.0
C91 C 0.76735 0.34273 1.00056 0.0
C92 C 0.79184 0.33831 0.96752 0.0
C93 C 0.77435 0.34919 0.97933 0.0
C94 C 0.79541 0.3145 0.99807 0.0
C95 C 0.80266 0.32084 0.97679 0.0
C96 C 0.77798 0.32534 1.0098 0.0
C97 C 0.68481 0.38786 0.06466 0.0
C98 C 0.66995 0.36075 0.08861 0.0
C99 C 0.674 0.3953 0.10301 0.0
C100 C 0.68257 0.40175 0.08241 0.0
C101 C 0.66736 0.37477 0.10634 0.0
C102 C 0.67867 0.36722 0.06796 0.0
C103 C 0.69238 0.39567 0.04275 0.0
O104 O 0.7386 0.4126 0.99318 0.0
O105 O 0.71112 0.39421 0.9764 0.0
O106 O 0.68629 0.38482 0.02512 0.0
O107 O 0.71416 0.40301 0.04169 0.0
H108 H 0.68126 0.42466 0.99098 0.0
H109 H 0.6601 0.4557 0.97962 0.0
H110 H 0.71802 0.47077 0.93538 0.0
H111 H 0.73909 0.43967 0.94686 0.0
H112 H 0.79712 0.34373 0.95126 0.0
H113 H 0.76633 0.36263 0.97195 0.0
H114 H 0.80299 0.30095 1.00559 0.0
H115 H 0.77271 0.32007 0.02613 0.0
H116 H 0.66519 0.3448 0.09069 0.0
H117 H 0.67191 0.40658 0.11616 0.0
H118 H 0.68704 0.41776 0.0802 0.0
H119 H 0.6803 0.35614 0.05456 0.0
C120 C 0.31057 0.66123 0.57101 0.0
C121 C 0.32193 0.64363 0.57908 0.0
C122 C 0.33534 0.66245 0.61202 0.0
C123 C 0.33411 0.64421 0.59941 0.0
C124 C 0.32388 0.68004 0.60379 0.0
C125 C 0.3116 0.67941 0.58349 0.0
U126 U 0.29893 0.63592 0.51499 0.0
O127 O 0.26565 0.6312 0.49614 0.0
O128 O 0.29472 0.6492 0.48167 0.0
C129 C 0.27259 0.64283 0.4796 0.0
C130 C 0.29809 0.66085 0.54943 0.0
C131 C 0.25528 0.65824 0.47204 0.0
C132 C 0.23422 0.69051 0.47681 0.0
C133 C 0.25064 0.67601 0.48454 0.0
C134 C 0.22692 0.66954 0.4441 0.0
C135 C 0.22219 0.68748 0.45644 0.0
C136 C 0.2433 0.6551 0.45183 0.0
C137 C 0.33426 0.58632 0.50178 0.0
C138 C 0.32595 0.55353 0.48374 0.0
C139 C 0.3659 0.56753 0.48301 0.0
C140 C 0.35816 0.58457 0.49517 0.0
C141 C 0.34996 0.55171 0.4773 0.0
C142 C 0.31815 0.57067 0.49582 0.0
C143 C 0.32713 0.60383 0.51609 0.0
O144 O 0.3117 0.66384 0.53199 0.0
O145 O 0.28277 0.64579 0.54659 0.0
O146 O 0.30529 0.60378 0.52402 0.0
O147 O 0.33422 0.62203 0.50962 0.0
H148 H 0.3214 0.62945 0.56963 0.0
H149 H 0.34241 0.63029 0.60532 0.0
H150 H 0.32473 0.69442 0.61284 0.0
H151 H 0.30307 0.69318 0.57744 0.0
H152 H 0.2312 0.70421 0.48664 0.0
H153 H 0.25977 0.67868 0.5002 0.0
H154 H 0.21772 0.6665 0.42857 0.0
H155 H 0.2466 0.64143 0.44201 0.0
H156 H 0.31319 0.54168 0.47943 0.0
H157 H 0.38458 0.56648 0.47862 0.0
H158 H 0.37101 0.59625 0.49979 0.0
H159 H 0.29962 0.57149 0.50072 0.0
C160 C 0.8123 0.9261 0.96668 0.0
C161 C 0.82567 0.93772 0.98197 0.0
C162 C 0.83721 0.96131 0.95262 0.0
C163 C 0.83795 0.95521 0.97502 0.0
C164 C 0.82368 0.94962 0.9374 0.0
C165 C 0.81133 0.93218 0.94439 0.0
U166 U 0.80134 0.88508 1.00986 0.0
O167 O 0.76806 0.8705 0.02111 0.0
O168 O 0.79662 0.85177 1.00657 0.0
C169 C 0.77451 0.85231 0.0138 0.0
C170 C 0.79977 0.90743 0.97374 0.0
C171 C 0.75649 0.84092 1.00061 0.0
C172 C 0.74403 0.82243 0.9672 0.0
C173 C 0.76095 0.83424 0.97872 0.0
C174 C 0.71772 0.82421 0.99901 0.0
C175 C 0.72226 0.8171 0.97726 0.0
C176 C 0.73467 0.83589 1.01054 0.0
C177 C 0.83801 0.88983 0.06437 0.0
C178 C 0.85007 0.86357 0.09065 0.0
C179 C 0.85338 0.89942 0.10077 0.0
C180 C 0.84408 0.90489 0.08008 0.0
C181 C 0.85695 0.87871 0.10617 0.0
C182 C 0.84068 0.86908 0.06989 0.0
C183 C 0.83036 0.89636 0.04203 0.0
O184 O 0.81325 0.89108 0.97564 0.0
O185 O 0.78492 0.90981 0.99044 0.0
O186 O 0.80841 0.90318 0.04028 0.0
O187 O 0.83688 0.88465 0.02525 0.0
H188 H 0.82676 0.93316 0.99925 0.0
H189 H 0.84844 0.9637 0.9871 0.0
H190 H 0.82252 0.95401 0.92008 0.0
H191 H 0.8011 0.92339 0.93236 0.0
H192 H 0.74828 0.8171 0.95058 0.0
H193 H 0.77762 0.83787 0.97059 0.0
H194 H 0.70101 0.82078 1.00717 0.0
H195 H 0.7308 0.84087 0.02738 0.0
H196 H 0.85268 0.84749 0.09423 0.0
H197 H 0.85801 0.91147 0.11248 0.0
H198 H 0.84205 0.92098 0.07617 0.0
H199 H 0.83605 0.85717 0.05802 0.0
C200 C 0.21475 0.16101 0.57393 0.0
C201 C 0.20485 0.14319 0.58301 0.0
C202 C 0.18983 0.16273 0.61475 0.0
C203 C 0.19264 0.14401 0.60326 0.0
C204 C 0.19995 0.18053 0.60559 0.0
C205 C 0.2123 0.17965 0.58537 0.0
U206 U 0.22439 0.13509 0.51812 0.0
O207 O 0.22769 0.14782 0.48446 0.0
O208 O 0.25687 0.12962 0.4985 0.0
C209 C 0.24963 0.14116 0.48197 0.0
C210 C 0.22679 0.1604 0.55216 0.0
C211 C 0.26697 0.15631 0.47388 0.0
C212 C 0.29053 0.1873 0.47891 0.0
C213 C 0.27404 0.17306 0.48707 0.0
C214 C 0.293 0.16813 0.44436 0.0
C215 C 0.30018 0.18502 0.45741 0.0
C216 C 0.27657 0.15394 0.45253 0.0
C217 C 0.18712 0.08595 0.50782 0.0
C218 C 0.18986 0.06304 0.47585 0.0
C219 C 0.15871 0.05818 0.50317 0.0
C220 C 0.16729 0.07495 0.51529 0.0
C221 C 0.16979 0.05204 0.48324 0.0
C222 C 0.19843 0.07993 0.48802 0.0
C223 C 0.19539 0.10359 0.52109 0.0
O224 O 0.24179 0.14518 0.54915 0.0
O225 O 0.21281 0.16345 0.53493 0.0
O226 O 0.18864 0.12168 0.51402 0.0
O227 O 0.2177 0.10315 0.52778 0.0
H228 H 0.20644 0.12864 0.57437 0.0
H229 H 0.18542 0.12995 0.60991 0.0
H230 H 0.19787 0.19525 0.61374 0.0
H231 H 0.21965 0.1936 0.57852 0.0
H232 H 0.29546 0.20022 0.48933 0.0
H233 H 0.26675 0.17515 0.5036 0.0
H234 H 0.30032 0.16569 0.4279 0.0
H235 H 0.27137 0.14105 0.44214 0.0
H236 H 0.1987 0.05878 0.4605 0.0
H237 H 0.1435 0.04987 0.50956 0.0
H238 H 0.1584 0.07934 0.53058 0.0
H239 H 0.21376 0.08831 0.48199 0.0
C240 C 0.20818 0.9244 0.96396 0.0
C241 C 0.19284 0.93549 0.97795 0.0
C242 C 0.18359 0.95904 0.94779 0.0
C243 C 0.18066 0.95265 0.96995 0.0
C244 C 0.19903 0.94782 0.93387 0.0
C245 C 0.2112 0.93067 0.9419 0.0
U246 U 0.22079 0.88614 1.00988 0.0
O247 O 0.22589 0.85275 1.00858 0.0
O248 O 0.25457 0.87253 0.02125 0.0
C249 C 0.24809 0.85387 0.01556 0.0
C250 C 0.22097 0.90628 0.97219 0.0
C251 C 0.26568 0.84193 1.00273 0.0
C252 C 0.28453 0.83209 0.96782 0.0
C253 C 0.26795 0.84401 0.9796 0.0
C254 C 0.2969 0.81616 1.00224 0.0
C255 C 0.29913 0.81789 0.979 0.0
C256 C 0.28035 0.82803 0.01393 0.0
C257 C 0.18595 0.89386 0.06493 0.0
C258 C 0.17857 0.86913 0.09425 0.0
C259 C 0.1697 0.90501 0.10044 0.0
C260 C 0.17766 0.90948 0.079 0.0
C261 C 0.16984 0.88475 0.1083 0.0
C262 C 0.18662 0.87365 0.07276 0.0
C263 C 0.1927 0.89908 0.04197 0.0
O264 O 0.23627 0.9098 0.98836 0.0
O265 O 0.20765 0.89004 0.97563 0.0
O266 O 0.18581 0.88625 0.02628 0.0
O267 O 0.2145 0.90594 0.03914 0.0
H268 H 0.19032 0.93087 0.99507 0.0
H269 H 0.16917 0.96104 0.98122 0.0
H270 H 0.20146 0.95209 0.91664 0.0
H271 H 0.2229 0.92224 0.93084 0.0
H272 H 0.28562 0.83374 0.94994 0.0
H273 H 0.25678 0.85471 0.97065 0.0
H274 H 0.30812 0.80572 0.01148 0.0
H275 H 0.27896 0.8263 0.0318 0.0
H276 H 0.17916 0.85341 0.09985 0.0
H277 H 0.16279 0.91738 0.11063 0.0
H278 H 0.17691 0.92516 0.07323 0.0
H279 H 0.19305 0.86136 0.06217 0.0
C280 C 0.80885 0.16031 0.57238 0.0
C281 C 0.81522 0.14192 0.58282 0.0
C282 C 0.83347 0.16091 0.61353 0.0
C283 C 0.82725 0.14222 0.60322 0.0
C284 C 0.82708 0.1793 0.60293 0.0
C285 C 0.81486 0.17897 0.58259 0.0
U286 U 0.79874 0.13631 0.51545 0.0
O287 O 0.76578 0.13077 0.49631 0.0
O288 O 0.79407 0.15011 0.48247 0.0
C289 C 0.77214 0.14322 0.48028 0.0
C290 C 0.79656 0.16022 0.55063 0.0
C291 C 0.754 0.15824 0.47326 0.0
C292 C 0.73831 0.19297 0.472 0.0
C293 C 0.75536 0.17896 0.47958 0.0
C294 C 0.71803 0.16565 0.45215 0.0
C295 C 0.71949 0.18652 0.45804 0.0
C296 C 0.73513 0.15171 0.45963 0.0
C297 C 0.83685 0.08827 0.50248 0.0
C298 C 0.83862 0.07008 0.46709 0.0
C299 C 0.86219 0.05839 0.49836 0.0
C300 C 0.85307 0.07428 0.51145 0.0
C301 C 0.85528 0.05619 0.47595 0.0
C302 C 0.8295 0.08606 0.48026 0.0
C303 C 0.82853 0.10528 0.5166 0.0
O304 O 0.81015 0.1642 0.53341 0.0
O305 O 0.78172 0.14494 0.54706 0.0
O306 O 0.80643 0.10415 0.52367 0.0
O307 O 0.83463 0.12374 0.51013 0.0
H308 H 0.81093 0.12729 0.57519 0.0
H309 H 0.83152 0.12775 0.61098 0.0
H310 H 0.83188 0.19398 0.61011 0.0
H311 H 0.81029 0.19333 0.57471 0.0
H312 H 0.74018 0.20892 0.47672 0.0
H313 H 0.76972 0.18436 0.49018 0.0
H314 H 0.70358 0.16001 0.44182 0.0
H315 H 0.73367 0.13577 0.45468 0.0
H316 H 0.83305 0.06889 0.44987 0.0
H317 H 0.87463 0.04778 0.50583 0.0
H318 H 0.85886 0.07573 0.5286 0.0
H319 H 0.81698 0.09679 0.47308 0.0
Fe320 Fe 0.01078 0.83432 0.33889 0.0
Fe321 Fe 0.01146 0.85821 0.38329 0.0
O322 O 0.01172 0.8579 0.35374 0.0
Fe323 Fe 0.01314 0.88125 0.33891 0.0
O324 O 0.99583 0.87196 0.31497 0.0
O325 O 0.98344 0.84138 0.32454 0.0
O326 O 0.99206 0.82104 0.35935 0.0
C327 C 0.97909 0.82764 0.37507 0.0
C328 C 0.04352 0.85826 0.31381 0.0
O329 O 0.98334 0.84462 0.38435 0.0
C330 C 0.04373 0.88884 0.37573 0.0
O331 O 0.03809 0.82563 0.352 0.0
O332 O 0.02859 0.83436 0.38626 0.0
O333 O 0.04107 0.87402 0.32585 0.0
O334 O 0.02929 0.84327 0.31563 0.0
C335 C 0.98142 0.89168 0.37149 0.0
O336 O 0.03971 0.87179 0.38472 0.0
O337 O 0.03068 0.89507 0.35998 0.0
C338 C 0.04175 0.82467 0.37269 0.0
O339 O 0.99416 0.88215 0.38551 0.0
O340 O 0.98536 0.89003 0.3509 0.0
C341 C 0.98159 0.85706 0.31249 0.0
Fe342 Fe 0.0112 0.15903 0.8803 0.0
Fe343 Fe 0.01097 0.13773 0.83453 0.0
O344 O 0.01081 0.16056 0.85077 0.0
Fe345 Fe 0.01024 0.18477 0.83744 0.0
O346 O 0.02879 0.19783 0.85851 0.0
O347 O 0.03854 0.17364 0.88225 0.0
O348 O 0.02974 0.13573 0.88115 0.0
C349 C 0.04312 0.12737 0.86672 0.0
C350 C 0.97942 0.19212 0.87203 0.0
O351 O 0.0393 0.12986 0.84622 0.0
C352 C 0.97846 0.16035 0.81139 0.0
O353 O 0.98372 0.14426 0.88072 0.0
O354 O 0.99433 0.1224 0.85472 0.0
O355 O 0.98278 0.19201 0.8513 0.0
O356 O 0.99294 0.18208 0.88487 0.0
C357 C 0.0407 0.16429 0.80959 0.0
O358 O 0.98272 0.14397 0.82166 0.0
O359 O 0.9915 0.17607 0.81401 0.0
C360 C 0.98084 0.1274 0.87071 0.0
O361 O 0.02753 0.14863 0.81115 0.0
O362 O 0.0377 0.17946 0.82237 0.0
C363 C 0.04201 0.19107 0.87394 0.0
Fe364 Fe 0.50922 0.33272 0.3372 0.0
Fe365 Fe 0.50927 0.35604 0.38188 0.0
O366 O 0.50932 0.35615 0.35234 0.0
Fe367 Fe 0.50938 0.37979 0.33802 0.0
O368 O 0.48143 0.37382 0.32416 0.0
O369 O 0.49119 0.34252 0.314 0.0
O370 O 0.48148 0.32468 0.35007 0.0
C371 C 0.47808 0.32328 0.37074 0.0
C372 C 0.53987 0.3549 0.31147 0.0
O373 O 0.49171 0.3324 0.38439 0.0
C374 C 0.54064 0.38885 0.37153 0.0
O375 O 0.52742 0.31878 0.35767 0.0
O376 O 0.53712 0.34203 0.3828 0.0
O377 O 0.52667 0.3704 0.31426 0.0
O378 O 0.53685 0.33897 0.32293 0.0
C379 C 0.47829 0.38751 0.37436 0.0
O380 O 0.52694 0.37965 0.3849 0.0
O381 O 0.53739 0.38741 0.3508 0.0
C382 C 0.5409 0.32506 0.37328 0.0
O383 O 0.48132 0.37015 0.38306 0.0
O384 O 0.49202 0.39365 0.3591 0.0
C385 C 0.47811 0.35823 0.31199 0.0
Fe386 Fe 0.50975 0.6593 0.88103 0.0
Fe387 Fe 0.51031 0.63782 0.83559 0.0
O388 O 0.50986 0.66068 0.85159 0.0
Fe389 Fe 0.50955 0.68477 0.83816 0.0
O390 O 0.53708 0.69256 0.85172 0.0
O391 O 0.52706 0.68289 0.88536 0.0
O392 O 0.53794 0.6455 0.88139 0.0
C393 C 0.54104 0.62854 0.87167 0.0
C394 C 0.47773 0.69042 0.87452 0.0
O395 O 0.52731 0.62292 0.85604 0.0
C396 C 0.4797 0.66353 0.81051 0.0
O397 O 0.49232 0.6354 0.88203 0.0
O398 O 0.48211 0.62953 0.84724 0.0
O399 O 0.49115 0.69755 0.85948 0.0
O400 O 0.48167 0.67299 0.88272 0.0
C401 C 0.54166 0.66095 0.81192 0.0
O402 O 0.49349 0.64829 0.81207 0.0
O403 O 0.48197 0.67871 0.82345 0.0
C404 C 0.47872 0.62696 0.86778 0.0
O405 O 0.53847 0.64474 0.82288 0.0
O406 O 0.52793 0.67622 0.8145 0.0
C407 C 0.54062 0.69274 0.87245 0.0
H408 H 0.21301 0.31482 0.93319 0.0
H409 H 0.18239 0.29419 0.91453 0.0
H410 H 0.15882 0.27152 0.97801 0.0
H411 H 0.18907 0.29227 0.9968 0.0
H412 H 0.16354 0.2408 0.94804 0.0
H413 H 0.12689 0.30747 0.95018 0.0
H414 H 0.12447 0.3446 0.94324 0.0
H415 H 0.1306 0.3337 0.87296 0.0
H416 H 0.13338 0.29651 0.87951 0.0
H417 H 0.05609 0.19284 0.91726 0.0
H418 H 0.08604 0.2153 0.934 0.0
H419 H 0.10032 0.24163 0.86968 0.0
H420 H 0.06908 0.22002 0.85315 0.0
H421 H 0.10178 0.27044 0.89863 0.0
H422 H 0.13716 0.20333 0.8964 0.0
H423 H 0.13786 0.16619 0.9036 0.0
H424 H 0.13454 0.17774 0.97394 0.0
H425 H 0.13333 0.21493 0.96715 0.0
C426 C 0.20114 0.30564 0.94322 0.0
C427 C 0.20361 0.30521 0.96653 0.0
C428 C 0.18366 0.2938 0.9325 0.0
C429 C 0.16821 0.28135 0.94487 0.0
C430 C 0.1706 0.28091 0.96811 0.0
C431 C 0.18801 0.29275 0.97882 0.0
C432 C 0.14975 0.2685 0.93368 0.0
C433 C 0.1499 0.2473 0.93739 0.0
C434 C 0.13232 0.27688 0.91932 0.0
C435 C 0.1306 0.29923 0.91536 0.0
C436 C 0.12792 0.31301 0.93326 0.0
C437 C 0.12645 0.33406 0.92939 0.0
C438 C 0.12746 0.34151 0.90768 0.0
C439 C 0.12987 0.32791 0.88977 0.0
C440 C 0.13137 0.30685 0.89355 0.0
C441 C 0.06566 0.2034 0.90669 0.0
C442 C 0.06045 0.20455 0.88386 0.0
C443 C 0.0829 0.21618 0.91625 0.0
C444 C 0.09605 0.22983 0.90305 0.0
C445 C 0.09059 0.23119 0.88025 0.0
C446 C 0.0728 0.21879 0.87079 0.0
C447 C 0.11541 0.24266 0.91306 0.0
C448 C 0.1155 0.26386 0.90912 0.0
C449 C 0.13318 0.23426 0.92714 0.0
C450 C 0.13497 0.21192 0.93125 0.0
C451 C 0.13654 0.19794 0.9134 0.0
C452 C 0.13699 0.17688 0.91741 0.0
C453 C 0.13617 0.16961 0.93922 0.0
C454 C 0.13512 0.18339 0.95706 0.0
C455 C 0.13457 0.20446 0.95314 0.0
H456 H 0.13632 0.15332 0.94232 0.0
H457 H 0.12631 0.35781 0.90471 0.0
H458 H 0.81073 0.69921 0.416 0.0
H459 H 0.84081 0.72325 0.40279 0.0
H460 H 0.85958 0.7383 0.47056 0.0
H461 H 0.82964 0.71402 0.48397 0.0
H462 H 0.85701 0.77247 0.44454 0.0
H463 H 0.89449 0.70658 0.44077 0.0
H464 H 0.89796 0.67017 0.43012 0.0
H465 H 0.89502 0.68634 0.36104 0.0
H466 H 0.89119 0.72285 0.37128 0.0
H467 H 0.96425 0.82485 0.41814 0.0
H468 H 0.93432 0.80167 0.43335 0.0
H469 H 0.92045 0.77777 0.36742 0.0
H470 H 0.95159 0.80001 0.35245 0.0
H471 H 0.92069 0.74788 0.3939 0.0
H472 H 0.88276 0.81431 0.39796 0.0
H473 H 0.88057 0.85066 0.40916 0.0
H474 H 0.88435 0.83361 0.47796 0.0
H475 H 0.88702 0.79718 0.46715 0.0
C476 C 0.82135 0.7075 0.42814 0.0
C477 C 0.81788 0.70449 0.45108 0.0
C478 C 0.83851 0.7213 0.42054 0.0
C479 C 0.8527 0.73239 0.43567 0.0
C480 C 0.84886 0.7299 0.45857 0.0
C481 C 0.83168 0.71605 0.46621 0.0
C482 C 0.87173 0.74632 0.4275 0.0
C483 C 0.8711 0.76708 0.43365 0.0
C484 C 0.88989 0.73937 0.41301 0.0
C485 C 0.89233 0.71743 0.4068 0.0
C486 C 0.8944 0.70236 0.42331 0.0
C487 C 0.89646 0.68171 0.41735 0.0
C488 C 0.89665 0.67594 0.39492 0.0
C489 C 0.89484 0.69083 0.37841 0.0
C490 C 0.89275 0.7115 0.38428 0.0
C491 C 0.95471 0.81471 0.4069 0.0
C492 C 0.96014 0.81431 0.38409 0.0
C493 C 0.93746 0.80151 0.41559 0.0
C494 C 0.92458 0.78819 0.40153 0.0
C495 C 0.93001 0.78787 0.37869 0.0
C496 C 0.94776 0.80064 0.3701 0.0
C497 C 0.90585 0.77426 0.41057 0.0
C498 C 0.90657 0.7534 0.40467 0.0
C499 C 0.88773 0.78117 0.42525 0.0
C500 C 0.8853 0.80303 0.43173 0.0
C501 C 0.88319 0.81832 0.41547 0.0
C502 C 0.88189 0.83895 0.42175 0.0
C503 C 0.88238 0.84444 0.44426 0.0
C504 C 0.88401 0.82932 0.46053 0.0
C505 C 0.88541 0.80869 0.45434 0.0
H506 H 0.88153 0.8604 0.44914 0.0
H507 H 0.89824 0.65994 0.39034 0.0
H508 H 0.80409 0.31107 0.93223 0.0
H509 H 0.83405 0.2906 0.91262 0.0
H510 H 0.87302 0.28304 0.97396 0.0
H511 H 0.84368 0.30406 0.99345 0.0
H512 H 0.903 0.29016 0.94092 0.0
H513 H 0.83654 0.245 0.95269 0.0
H514 H 0.79458 0.2339 0.9504 0.0
H515 H 0.79772 0.23553 0.87906 0.0
H516 H 0.83964 0.24691 0.88094 0.0
H517 H 0.97316 0.20293 0.91572 0.0
H518 H 0.9431 0.22587 0.93141 0.0
H519 H 0.913 0.23471 0.86612 0.0
H520 H 0.94311 0.21177 0.85019 0.0
H521 H 0.87848 0.22803 0.89872 0.0
H522 H 0.94615 0.27139 0.88745 0.0
H523 H 0.98837 0.28158 0.89039 0.0
H524 H 0.98308 0.28257 0.96165 0.0
H525 H 0.94089 0.27207 0.95914 0.0
C526 C 0.8192 0.30528 0.94149 0.0
C527 C 0.82133 0.30911 0.96449 0.0
C528 C 0.83621 0.29339 0.93029 0.0
C529 C 0.85565 0.28498 0.94186 0.0
C530 C 0.85815 0.28925 0.96466 0.0
C531 C 0.8412 0.30113 0.97585 0.0
C532 C 0.87329 0.27152 0.93039 0.0
C533 C 0.89762 0.27647 0.93189 0.0
C534 C 0.86633 0.25387 0.91813 0.0
C535 C 0.84114 0.24703 0.91696 0.0
C536 C 0.82822 0.24316 0.93652 0.0
C537 C 0.80446 0.23678 0.93529 0.0
C538 C 0.79347 0.23407 0.9146 0.0
C539 C 0.80624 0.23768 0.89508 0.0
C540 C 0.83001 0.24408 0.89621 0.0
C541 C 0.96013 0.20968 0.90466 0.0
C542 C 0.96066 0.20556 0.88165 0.0
C543 C 0.943 0.22287 0.91366 0.0
C544 C 0.92594 0.23217 0.89991 0.0
C545 C 0.92604 0.22775 0.87703 0.0
C546 C 0.94332 0.21469 0.86795 0.0
C547 C 0.90812 0.24657 0.90951 0.0
C548 C 0.8838 0.24179 0.90764 0.0
C549 C 0.91508 0.26432 0.92153 0.0
C550 C 0.94041 0.27075 0.9231 0.0
C551 C 0.95404 0.27361 0.90375 0.0
C552 C 0.97796 0.27948 0.90534 0.0
C553 C 0.98842 0.28267 0.9262 0.0
C554 C 0.97496 0.28007 0.9455 0.0
C555 C 0.95104 0.27418 0.94401 0.0
H556 H 1.00694 0.28721 0.92739 0.0
H557 H 0.77507 0.22913 0.91368 0.0
H558 H 0.18892 0.70919 0.48031 0.0
H559 H 0.15936 0.7334 0.46625 0.0
H560 H 0.18553 0.72417 0.39952 0.0
H561 H 0.21572 0.70055 0.41356 0.0
H562 H 0.17631 0.76362 0.4064 0.0
H563 H 0.13455 0.70062 0.41745 0.0
H564 H 0.12071 0.67038 0.43812 0.0
H565 H 0.08535 0.70944 0.48535 0.0
H566 H 0.09927 0.73995 0.46512 0.0
H567 H 0.07511 0.80308 0.3489 0.0
H568 H 0.10631 0.7806 0.36331 0.0
H569 H 0.08288 0.79291 0.43035 0.0
H570 H 0.05154 0.8153 0.41613 0.0
H571 H 0.0908 0.75214 0.42317 0.0
H572 H 0.1327 0.81542 0.41055 0.0
H573 H 0.14544 0.84489 0.38803 0.0
H574 H 0.17969 0.80422 0.34169 0.0
H575 H 0.16689 0.77447 0.36381 0.0
C576 C 0.18862 0.71251 0.46268 0.0
C577 C 0.20464 0.70278 0.44806 0.0
C578 C 0.17154 0.72621 0.45463 0.0
C579 C 0.16995 0.73039 0.43176 0.0
C580 C 0.1863 0.72113 0.41721 0.0
C581 C 0.20342 0.70746 0.42525 0.0
C582 C 0.15101 0.74413 0.42295 0.0
C583 C 0.1576 0.76097 0.40988 0.0
C584 C 0.12657 0.74088 0.42768 0.0
C585 C 0.11817 0.72258 0.4399 0.0
C586 C 0.12399 0.70277 0.43235 0.0
C587 C 0.1161 0.68558 0.44397 0.0
C588 C 0.10222 0.68799 0.46307 0.0
C589 C 0.09615 0.7076 0.47057 0.0
C590 C 0.10402 0.72485 0.45902 0.0
C591 C 0.07656 0.80102 0.36672 0.0
C592 C 0.06077 0.81103 0.38134 0.0
C593 C 0.09449 0.78822 0.37493 0.0
C594 C 0.09707 0.78521 0.39793 0.0
C595 C 0.08124 0.79503 0.41255 0.0
C596 C 0.06336 0.80788 0.40437 0.0
C597 C 0.11612 0.77166 0.40676 0.0
C598 C 0.10953 0.75483 0.41979 0.0
C599 C 0.14051 0.77482 0.40181 0.0
C600 C 0.14866 0.79271 0.38874 0.0
C601 C 0.14284 0.81275 0.3955 0.0
C602 C 0.15009 0.82951 0.38281 0.0
C603 C 0.16332 0.82643 0.36341 0.0
C604 C 0.16942 0.80658 0.35672 0.0
C605 C 0.16221 0.78977 0.36934 0.0
H606 H 0.16887 0.83941 0.35358 0.0
H607 H 0.09612 0.67466 0.47204 0.0
H608 H 0.7101 0.81749 0.93288 0.0
H609 H 0.68095 0.79589 0.91362 0.0
H610 H 0.66428 0.76589 0.9754 0.0
H611 H 0.69421 0.78668 0.99454 0.0
H612 H 0.66644 0.73847 0.94327 0.0
H613 H 0.62793 0.80368 0.95267 0.0
H614 H 0.62362 0.84113 0.94945 0.0
H615 H 0.62681 0.83617 0.87825 0.0
H616 H 0.63145 0.79869 0.88106 0.0
H617 H 0.55425 0.69565 0.91606 0.0
H618 H 0.58613 0.71653 0.93203 0.0
H619 H 0.60301 0.73974 0.86693 0.0
H620 H 0.57092 0.71894 0.85072 0.0
H621 H 0.60186 0.77021 0.89874 0.0
H622 H 0.63811 0.70424 0.8899 0.0
H623 H 0.64006 0.66671 0.89383 0.0
H624 H 0.63947 0.67306 0.96496 0.0
H625 H 0.63717 0.71066 0.96146 0.0
C626 C 0.70046 0.80614 0.94235 0.0
C627 C 0.70447 0.80397 0.96535 0.0
C628 C 0.68358 0.79392 0.93133 0.0
C629 C 0.67011 0.77943 0.94309 0.0
C630 C 0.67435 0.777 0.96595 0.0
C631 C 0.69131 0.7891 0.97694 0.0
C632 C 0.65146 0.76689 0.9317 0.0
C633 C 0.65221 0.74546 0.93373 0.0
C634 C 0.6331 0.77589 0.91881 0.0
C635 C 0.6303 0.79841 0.91708 0.0
C636 C 0.6279 0.8106 0.93633 0.0
C637 C 0.62537 0.83182 0.93458 0.0
C638 C 0.62501 0.84103 0.91367 0.0
C639 C 0.62713 0.82902 0.89445 0.0
C640 C 0.6297 0.80779 0.8961 0.0
C641 C 0.56469 0.70518 0.90507 0.0
C642 C 0.55999 0.70557 0.88207 0.0
C643 C 0.583 0.71706 0.91425 0.0
C644 C 0.59713 0.72953 0.90065 0.0
C645 C 0.59235 0.73019 0.87772 0.0
C646 C 0.57404 0.71824 0.86849 0.0
C647 C 0.6168 0.74191 0.91048 0.0
C648 C 0.61623 0.76327 0.90816 0.0
C649 C 0.63521 0.73286 0.9232 0.0
C650 C 0.6373 0.71028 0.92541 0.0
C651 C 0.63829 0.69764 0.90638 0.0
C652 C 0.63946 0.67636 0.90853 0.0
C653 C 0.63984 0.66751 0.92963 0.0
C654 C 0.63917 0.67994 0.94863 0.0
C655 C 0.63797 0.70125 0.94657 0.0
H656 H 0.6407 0.65103 0.93123 0.0
H657 H 0.62304 0.85747 0.91235 0.0
H658 H 0.3374 0.20355 0.47948 0.0
H659 H 0.3666 0.22766 0.4646 0.0
H660 H 0.33217 0.22458 0.40043 0.0
H661 H 0.30282 0.20059 0.41522 0.0
H662 H 0.37974 0.22149 0.39632 0.0
H663 H 0.32544 0.26636 0.43458 0.0
H664 H 0.30214 0.27886 0.46664 0.0
H665 H 0.36664 0.28811 0.50399 0.0
H666 H 0.39032 0.2754 0.47224 0.0
H667 H 0.44161 0.30491 0.34747 0.0
H668 H 0.41065 0.2822 0.36188 0.0
H669 H 0.44103 0.2874 0.42769 0.0
H670 H 0.47153 0.31054 0.41356 0.0
H671 H 0.39482 0.2896 0.43059 0.0
H672 H 0.4492 0.24412 0.39349 0.0
H673 H 0.47313 0.23112 0.36207 0.0
H674 H 0.40946 0.22234 0.32336 0.0
H675 H 0.38517 0.23556 0.35446 0.0
C676 C 0.33584 0.20819 0.46228 0.0
C677 C 0.31771 0.20011 0.44857 0.0
C678 C 0.3526 0.22196 0.45376 0.0
C679 C 0.3515 0.22808 0.43141 0.0
C680 C 0.33345 0.22004 0.4177 0.0
C681 C 0.31671 0.20627 0.42618 0.0
C682 C 0.36938 0.2426 0.42221 0.0
C683 C 0.3828 0.23651 0.40362 0.0
C684 C 0.37383 0.262 0.43204 0.0
C685 C 0.35963 0.26975 0.4511 0.0
C686 C 0.33464 0.27092 0.44969 0.0
C687 C 0.32137 0.27807 0.46779 0.0
C688 C 0.33289 0.28423 0.48736 0.0
C689 C 0.35773 0.28331 0.48883 0.0
C690 C 0.37109 0.27615 0.47078 0.0
C691 C 0.44171 0.30121 0.36501 0.0
C692 C 0.45915 0.30951 0.37931 0.0
C693 C 0.42404 0.28814 0.37323 0.0
C694 C 0.42364 0.2828 0.39586 0.0
C695 C 0.4409 0.29125 0.41018 0.0
C696 C 0.4584 0.30446 0.40204 0.0
C697 C 0.40528 0.26849 0.4047 0.0
C698 C 0.39175 0.27461 0.42323 0.0
C699 C 0.40084 0.24905 0.39491 0.0
C700 C 0.4154 0.24102 0.37622 0.0
C701 C 0.44032 0.23956 0.37822 0.0
C702 C 0.45394 0.23213 0.36048 0.0
C703 C 0.44283 0.22596 0.34071 0.0
C704 C 0.41805 0.22716 0.33867 0.0
C705 C 0.40435 0.2346 0.35635 0.0
H706 H 0.45341 0.22021 0.32699 0.0
H707 H 0.32259 0.28975 0.50136 0.0
H708 H 0.30966 0.77743 0.98584 0.0
H709 H 0.33947 0.75645 0.96696 0.0
H710 H 0.35776 0.80737 0.92499 0.0
H711 H 0.32806 0.82864 0.94401 0.0
H712 H 0.35528 0.77152 0.90127 0.0
H713 H 0.39326 0.79515 0.96807 0.0
H714 H 0.39721 0.80127 1.00843 0.0
H715 H 0.39404 0.73653 0.02021 0.0
H716 H 0.38972 0.73003 0.97992 0.0
H717 H 0.46534 0.72954 0.86275 0.0
H718 H 0.43453 0.75126 0.8792 0.0
H719 H 0.41544 0.70265 0.92404 0.0
H720 H 0.44642 0.68091 0.90791 0.0
H721 H 0.41878 0.73831 0.94585 0.0
H722 H 0.38062 0.71472 0.87884 0.0
H723 H 0.37702 0.70875 0.83842 0.0
H724 H 0.38087 0.7735 0.8269 0.0
H725 H 0.38486 0.77985 0.86725 0.0
C726 C 0.32012 0.78428 0.97271 0.0
C727 C 0.31658 0.80485 0.96665 0.0
C728 C 0.33713 0.77221 0.96187 0.0
C729 C 0.35113 0.78039 0.94475 0.0
C730 C 0.3472 0.80072 0.93817 0.0
C731 C 0.33016 0.81285 0.94903 0.0
C732 C 0.37009 0.76778 0.93407 0.0
C733 C 0.36936 0.76449 0.91097 0.0
C734 C 0.38824 0.75827 0.94675 0.0
C735 C 0.39094 0.76212 0.97099 0.0
C736 C 0.39321 0.78222 0.97928 0.0
C737 C 0.39555 0.78576 1.00214 0.0
C738 C 0.39581 0.7693 0.01688 0.0
C739 C 0.3938 0.74926 1.00878 0.0
C740 C 0.39143 0.74564 0.98593 0.0
C741 C 0.45455 0.7234 0.87606 0.0
C742 C 0.45845 0.70343 0.88399 0.0
C743 C 0.43684 0.73584 0.8854 0.0
C744 C 0.42248 0.72856 0.90276 0.0
C745 C 0.42628 0.70863 0.91067 0.0
C746 C 0.44399 0.69619 0.90137 0.0
C747 C 0.40387 0.74184 0.91306 0.0
C748 C 0.40471 0.74532 0.93612 0.0
C749 C 0.38586 0.75152 0.90032 0.0
C750 C 0.38328 0.74775 0.87606 0.0
C751 C 0.38088 0.72768 0.86768 0.0
C752 C 0.37874 0.72423 0.84478 0.0
C753 C 0.37878 0.74073 0.8301 0.0
C754 C 0.38088 0.76073 0.8383 0.0
C755 C 0.38306 0.76427 0.86118 0.0
H756 H 0.37713 0.73802 0.81238 0.0
H757 H 0.39763 0.77207 0.03458 0.0
H758 H 0.69885 0.18755 0.41661 0.0
H759 H 0.66913 0.21151 0.4027 0.0
H760 H 0.6705 0.24398 0.46542 0.0
H761 H 0.69942 0.2194 0.47989 0.0
H762 H 0.62621 0.24 0.45176 0.0
H763 H 0.69851 0.2628 0.41816 0.0
H764 H 0.73575 0.25972 0.3967 0.0
H765 H 0.69593 0.24107 0.33891 0.0
H766 H 0.65846 0.24376 0.36013 0.0
H767 H 0.56651 0.32906 0.41198 0.0
H768 H 0.5973 0.30612 0.42634 0.0
H769 H 0.58983 0.26759 0.36821 0.0
H770 H 0.5589 0.29037 0.35374 0.0
H771 H 0.63756 0.2756 0.37987 0.0
H772 H 0.5652 0.25257 0.41456 0.0
H773 H 0.52833 0.25673 0.43637 0.0
H774 H 0.56921 0.27727 0.49274 0.0
H775 H 0.60633 0.27353 0.47114 0.0
C776 C 0.69268 0.19963 0.42759 0.0
C777 C 0.70161 0.20147 0.44943 0.0
C778 C 0.67586 0.21352 0.41948 0.0
C779 C 0.66779 0.2298 0.43286 0.0
C780 C 0.67652 0.23163 0.45471 0.0
C781 C 0.69326 0.21765 0.4629 0.0
C782 C 0.64998 0.24468 0.42415 0.0
C783 C 0.6289 0.24801 0.43621 0.0
C784 C 0.65319 0.25491 0.40363 0.0
C785 C 0.67569 0.25329 0.3908 0.0
C786 C 0.69771 0.25788 0.40093 0.0
C787 C 0.71886 0.25623 0.3888 0.0
C788 C 0.71821 0.25015 0.36647 0.0
C789 C 0.69641 0.24576 0.35622 0.0
C790 C 0.6752 0.24736 0.36828 0.0
C791 C 0.57143 0.31574 0.40219 0.0
C792 C 0.5601 0.31151 0.38174 0.0
C793 C 0.58899 0.30261 0.41047 0.0
C794 C 0.59572 0.28507 0.39842 0.0
C795 C 0.58487 0.28103 0.37779 0.0
C796 C 0.56712 0.29403 0.3696 0.0
C797 C 0.61389 0.27079 0.40747 0.0
C798 C 0.63499 0.26761 0.39545 0.0
C799 C 0.6108 0.26083 0.4281 0.0
C800 C 0.58852 0.26298 0.44115 0.0
C801 C 0.56631 0.25814 0.43155 0.0
C802 C 0.54537 0.26039 0.44388 0.0
C803 C 0.54642 0.26731 0.4659 0.0
C804 C 0.56843 0.27194 0.47566 0.0
C805 C 0.58942 0.26975 0.46339 0.0
H806 H 0.53019 0.26904 0.47543 0.0
H807 H 0.7346 0.24889 0.35711 0.0
H808 H 0.37376 0.4781 0.96202 0.0
H809 H 0.39493 0.50806 0.94812 0.0
H810 H 0.34714 0.51081 0.89196 0.0
H811 H 0.32537 0.4811 0.90603 0.0
H812 H 0.39475 0.51512 0.88001 0.0
H813 H 0.34051 0.54449 0.93279 0.0
H814 H 0.32071 0.54805 0.96918 0.0
H815 H 0.38811 0.56088 1.00029 0.0
H816 H 0.40838 0.5571 0.96412 0.0
H817 H 0.44113 0.61076 0.84427 0.0
H818 H 0.41347 0.58401 0.85621 0.0
H819 H 0.44948 0.58098 0.91963 0.0
H820 H 0.47645 0.6082 0.90817 0.0
H821 H 0.40434 0.57779 0.92631 0.0
H822 H 0.45923 0.54535 0.87534 0.0
H823 H 0.48018 0.54125 0.83955 0.0
H824 H 0.41318 0.53351 0.80583 0.0
H825 H 0.39182 0.53776 0.84142 0.0
C826 C 0.36748 0.4852 0.94687 0.0
C827 C 0.3477 0.47719 0.93526 0.0
C828 C 0.3797 0.50229 0.93889 0.0
C829 C 0.37248 0.51178 0.91911 0.0
C830 C 0.35301 0.50371 0.90726 0.0
C831 C 0.34066 0.48666 0.9153 0.0
C832 C 0.38543 0.53005 0.91082 0.0
C833 C 0.39655 0.52896 0.88996 0.0
C834 C 0.38814 0.54794 0.92399 0.0
C835 C 0.37598 0.55035 0.94576 0.0
C836 C 0.35114 0.54792 0.94741 0.0
C837 C 0.33983 0.55 0.968 0.0
C838 C 0.35315 0.55465 0.98705 0.0
C839 C 0.37782 0.55727 0.98553 0.0
C840 C 0.38922 0.55518 0.96498 0.0
C841 C 0.44304 0.60447 0.86081 0.0
C842 C 0.46108 0.61155 0.87522 0.0
C843 C 0.42729 0.58909 0.86758 0.0
C844 C 0.42963 0.58014 0.8887 0.0
C845 C 0.44727 0.58758 0.90327 0.0
C846 C 0.46274 0.60316 0.89666 0.0
C847 C 0.41412 0.56278 0.89563 0.0
C848 C 0.40246 0.56403 0.91625 0.0
C849 C 0.41112 0.54495 0.88232 0.0
C850 C 0.42393 0.54206 0.86099 0.0
C851 C 0.44897 0.54287 0.86027 0.0
C852 C 0.46091 0.5405 0.84003 0.0
C853 C 0.44801 0.53717 0.82042 0.0
C854 C 0.42314 0.53611 0.82103 0.0
C855 C 0.41111 0.53847 0.84123 0.0
H856 H 0.45728 0.53538 0.80476 0.0
H857 H 0.34436 0.55625 1.00297 0.0
H858 H 0.67843 0.54103 0.43104 0.0
H859 H 0.66019 0.51225 0.41091 0.0
H860 H 0.62702 0.49199 0.47158 0.0
H861 H 0.64485 0.52072 0.49169 0.0
H862 H 0.64588 0.46009 0.44852 0.0
H863 H 0.59578 0.51866 0.43282 0.0
H864 H 0.58765 0.5535 0.41915 0.0
H865 H 0.61263 0.53626 0.3542 0.0
H866 H 0.62121 0.50137 0.36759 0.0
H867 H 0.54923 0.3986 0.41508 0.0
H868 H 0.57618 0.42458 0.42987 0.0
H869 H 0.59963 0.43864 0.36339 0.0
H870 H 0.57218 0.41283 0.34831 0.0
H871 H 0.59037 0.47282 0.38576 0.0
H872 H 0.63612 0.41303 0.40018 0.0
H873 H 0.64389 0.37808 0.41365 0.0
H874 H 0.62769 0.39716 0.48041 0.0
H875 H 0.61947 0.43217 0.46731 0.0
C876 C 0.66717 0.5305 0.44008 0.0
C877 C 0.66314 0.53322 0.46302 0.0
C878 C 0.65682 0.51402 0.42855 0.0
C879 C 0.64212 0.50002 0.43971 0.0
C880 C 0.63841 0.50251 0.46264 0.0
C881 C 0.64871 0.51894 0.47414 0.0
C882 C 0.63004 0.48301 0.42758 0.0
C883 C 0.63363 0.46286 0.43488 0.0
C884 C 0.61463 0.48656 0.40933 0.0
C885 C 0.6094 0.5075 0.40127 0.0
C886 C 0.59972 0.52235 0.41567 0.0
C887 C 0.595 0.5421 0.40797 0.0
C888 C 0.59969 0.54711 0.38584 0.0
C889 C 0.60905 0.53237 0.37135 0.0
C890 C 0.61384 0.51261 0.37898 0.0
C891 C 0.56024 0.40704 0.40355 0.0
C892 C 0.55846 0.4036 0.38047 0.0
C893 C 0.57578 0.42186 0.41207 0.0
C894 C 0.59019 0.43343 0.39778 0.0
C895 C 0.58873 0.42988 0.37475 0.0
C896 C 0.57307 0.41507 0.36616 0.0
C897 C 0.60581 0.44988 0.40698 0.0
C898 C 0.60288 0.46994 0.39916 0.0
C899 C 0.6219 0.44623 0.42471 0.0
C900 C 0.62703 0.42522 0.43272 0.0
C901 C 0.63406 0.40975 0.41772 0.0
C902 C 0.63857 0.38993 0.42529 0.0
C903 C 0.63625 0.38539 0.44787 0.0
C904 C 0.62948 0.40069 0.46293 0.0
C905 C 0.62492 0.42054 0.45544 0.0
H906 H 0.63974 0.37003 0.4537 0.0
H907 H 0.59602 0.56241 0.3799 0.0
H908 H 0.64014 0.46832 0.94559 0.0
H909 H 0.61844 0.4981 0.93176 0.0
H910 H 0.68252 0.53443 0.93596 0.0
H911 H 0.7044 0.50464 0.95006 0.0
H912 H 0.6411 0.55509 0.95183 0.0
H913 H 0.66695 0.51788 0.88714 0.0
H914 H 0.6721 0.48718 0.86354 0.0
H915 H 0.59615 0.47983 0.85939 0.0
H916 H 0.59055 0.51032 0.88325 0.0
H917 H 0.58511 0.63586 0.89005 0.0
H918 H 0.61347 0.6104 0.90411 0.0
H919 H 0.56284 0.56228 0.8893 0.0
H920 H 0.53545 0.58742 0.87396 0.0
H921 H 0.60268 0.54945 0.87764 0.0
H922 H 0.57624 0.58417 0.94501 0.0
H923 H 0.57029 0.61449 0.96908 0.0
H924 H 0.64564 0.62609 0.96903 0.0
H925 H 0.652 0.59598 0.94474 0.0
C926 C 0.64959 0.48269 0.94384 0.0
C927 C 0.67403 0.48408 0.94888 0.0
C928 C 0.63718 0.49967 0.93581 0.0
C929 C 0.64891 0.51844 0.93267 0.0
C930 C 0.67315 0.52008 0.93822 0.0
C931 C 0.68565 0.50301 0.94611 0.0
C932 C 0.63588 0.53604 0.92286 0.0
C933 C 0.63292 0.55402 0.93549 0.0
C934 C 0.62503 0.53454 0.90166 0.0
C935 C 0.62834 0.5163 0.88713 0.0
C936 C 0.65135 0.50964 0.88133 0.0
C937 C 0.65435 0.49228 0.86788 0.0
C938 C 0.63447 0.48154 0.86001 0.0
C939 C 0.61154 0.48816 0.86552 0.0
C940 C 0.60844 0.50549 0.87898 0.0
C941 C 0.58017 0.61982 0.88982 0.0
C942 C 0.55816 0.61358 0.88084 0.0
C943 C 0.5963 0.60526 0.898 0.0
C944 C 0.59029 0.58429 0.89812 0.0
C945 C 0.56812 0.57824 0.88933 0.0
C946 C 0.55239 0.59266 0.88059 0.0
C947 C 0.60691 0.56839 0.90693 0.0
C948 C 0.61079 0.55068 0.89399 0.0
C949 C 0.61834 0.5701 0.92795 0.0
C950 C 0.61456 0.58795 0.9429 0.0
C951 C 0.59152 0.59324 0.95007 0.0
C952 C 0.58808 0.61039 0.96374 0.0
C953 C 0.60757 0.62224 0.97052 0.0
C954 C 0.63056 0.6169 0.96375 0.0
C955 C 0.63409 0.5998 0.95004 0.0
H956 H 0.60487 0.63554 0.98106 0.0
H957 H 0.63683 0.4681 0.8496 0.0
H958 H 0.33918 0.51149 0.48551 0.0
H959 H 0.35561 0.48102 0.46717 0.0
H960 H 0.39721 0.51952 0.424 0.0
H961 H 0.38052 0.55001 0.44193 0.0
H962 H 0.37715 0.48721 0.40141 0.0
H963 H 0.42207 0.49808 0.46957 0.0
H964 H 0.42648 0.50223 0.51018 0.0
H965 H 0.39511 0.44299 0.52018 0.0
H966 H 0.39023 0.43861 0.4796 0.0
H967 H 0.47271 0.42781 0.36405 0.0
H968 H 0.44589 0.45259 0.38086 0.0
H969 H 0.41673 0.40552 0.4229 0.0
H970 H 0.44429 0.3805 0.40648 0.0
H971 H 0.42491 0.43878 0.44652 0.0
H972 H 0.38456 0.42574 0.3783 0.0
H973 H 0.3802 0.42121 0.33774 0.0
H974 H 0.40172 0.48358 0.32761 0.0
H975 H 0.40655 0.48841 0.36809 0.0
C976 C 0.35155 0.51347 0.47188 0.0
C977 C 0.35865 0.53318 0.46526 0.0
C978 C 0.36105 0.49604 0.46153 0.0
C979 C 0.37784 0.49799 0.44437 0.0
C980 C 0.38434 0.51764 0.43724 0.0
C981 C 0.37492 0.53505 0.44762 0.0
C982 C 0.38939 0.47968 0.43431 0.0
C983 C 0.3877 0.47666 0.41123 0.0
C984 C 0.40249 0.46552 0.44723 0.0
C985 C 0.40553 0.46812 0.47159 0.0
C986 C 0.41594 0.48601 0.48044 0.0
C987 C 0.41855 0.48839 0.50345 0.0
C988 C 0.41101 0.47291 0.51776 0.0
C989 C 0.4009 0.45498 0.50908 0.0
C990 C 0.39822 0.45254 0.48608 0.0
C991 C 0.46049 0.42257 0.37673 0.0
C992 C 0.46068 0.40209 0.38387 0.0
C993 C 0.445 0.43681 0.38626 0.0
C994 C 0.42893 0.43091 0.4029 0.0
C995 C 0.42889 0.41043 0.41001 0.0
C996 C 0.44461 0.39614 0.40058 0.0
C997 C 0.41315 0.4465 0.41346 0.0
C998 C 0.41404 0.44905 0.43666 0.0
C999 C 0.39917 0.46015 0.40065 0.0
C1000 C 0.39605 0.45739 0.37626 0.0
C1001 C 0.3885 0.43846 0.36743 0.0
C1002 C 0.38593 0.43584 0.34444 0.0
C1003 C 0.39071 0.45209 0.33011 0.0
C1004 C 0.39802 0.471 0.33873 0.0
C1005 C 0.40064 0.4737 0.36171 0.0
H1006 H 0.38873 0.45002 0.31232 0.0
H1007 H 0.41305 0.47478 0.53556 0.0
H1008 H 0.86378 0.96511 0.91476 0.0
H1009 H 0.88679 0.99474 0.90254 0.0
H1010 H 0.86524 0.02824 0.96119 0.0
H1011 H 0.84168 0.99873 0.97333 0.0
H1012 H 0.86299 0.05204 0.92384 0.0
H1013 H 0.91995 1.00853 0.95881 0.0
H1014 H 0.94137 0.97636 0.96637 0.0
H1015 H 0.96607 0.97433 0.89884 0.0
H1016 H 0.94448 1.00634 0.89076 0.0
H1017 H 0.95248 0.13 0.90798 0.0
H1018 H 0.92673 0.10324 0.92329 0.0
H1019 H 0.94475 0.06338 0.86837 0.0
H1020 H 0.97057 0.08978 0.85313 0.0
H1021 H 0.94903 0.04386 0.90715 0.0
H1022 H 0.8902 0.08677 0.87195 0.0
H1023 H 0.86903 0.11917 0.86484 0.0
H1024 H 0.84838 0.12268 0.93351 0.0
H1025 H 0.86972 0.09042 0.94109 0.0
C1026 C 0.86371 0.97884 0.92496 0.0
C1027 C 0.85091 0.97952 0.94505 0.0
C1028 C 0.87704 0.99572 0.91804 0.0
C1029 C 0.87796 0.01364 0.93107 0.0
C1030 C 0.86486 0.01455 0.95092 0.0
C1031 C 0.85157 0.99762 0.95791 0.0
C1032 C 0.89282 0.03129 0.92396 0.0
C1033 C 0.88189 0.05035 0.9205 0.0
C1034 C 0.91741 0.02903 0.91936 0.0
C1035 C 0.93039 0.00974 0.92413 0.0
C1036 C 0.92977 1.00113 0.94551 0.0
C1037 C 0.94198 0.98294 0.9499 0.0
C1038 C 0.95502 0.97328 0.93308 0.0
C1039 C 0.95593 0.98182 0.91184 0.0
C1040 C 0.94372 0.99999 0.90735 0.0
C1041 C 0.9508 0.1156 0.89906 0.0
C1042 C 0.96372 0.11204 0.87936 0.0
C1043 C 0.93603 0.10033 0.90782 0.0
C1044 C 0.93377 0.08129 0.89696 0.0
C1045 C 0.94628 0.07789 0.8771 0.0
C1046 C 0.96101 0.09308 0.86837 0.0
C1047 C 0.91913 0.06452 0.90652 0.0
C1048 C 0.93015 0.0456 0.91055 0.0
C1049 C 0.89468 0.06696 0.91169 0.0
C1050 C 0.88178 0.0863 0.90713 0.0
C1051 C 0.88131 0.09454 0.88557 0.0
C1052 C 0.86925 0.11286 0.88145 0.0
C1053 C 0.85743 0.12301 0.89873 0.0
C1054 C 0.85758 0.11482 0.92015 0.0
C1055 C 0.86964 0.09651 0.92436 0.0
H1056 H 0.8481 0.13719 0.8955 0.0
H1057 H 0.96448 0.9592 0.93652 0.0
H1058 H 0.12317 0.04289 0.47455 0.0
H1059 H 0.10708 0.01256 0.45593 0.0
H1060 H 0.17839 0.99051 0.44405 0.0
H1061 H 0.19471 0.02095 0.46283 0.0
H1062 H 0.15021 0.98411 0.40804 0.0
H1063 H 0.14627 0.97007 0.48542 0.0
H1064 H 0.13693 0.97676 0.52486 0.0
H1065 H 0.06234 0.97982 0.50908 0.0
H1066 H 0.07126 0.97345 0.46947 0.0
H1067 H 0.0729 0.88256 0.41189 0.0
H1068 H 0.10027 0.90716 0.4293 0.0
H1069 H 0.08227 0.95175 0.37937 0.0
H1070 H 0.05535 0.92728 0.36171 0.0
H1071 H 0.09039 0.94243 0.44831 0.0
H1072 H 0.12783 0.98398 0.37017 0.0
H1073 H 0.13954 0.9753 0.33172 0.0
H1074 H 0.15218 0.913 0.35088 0.0
H1075 H 0.14091 0.92136 0.3895 0.0
C1076 C 0.13547 0.03157 0.46807 0.0
C1077 C 0.16023 0.03423 0.47044 0.0
C1078 C 0.12624 0.01424 0.45739 0.0
C1079 C 0.14151 0.99906 0.44895 0.0
C1080 C 0.16627 1.00198 0.45052 0.0
C1081 C 0.17556 0.01941 0.4612 0.0
C1082 C 0.1314 0.98007 0.43889 0.0
C1083 C 0.13721 0.97493 0.41685 0.0
C1084 C 0.11496 0.96771 0.4506 0.0
C1085 C 0.10947 0.97141 0.47444 0.0
C1086 C 0.12789 0.9723 0.49033 0.0
C1087 C 0.12267 0.97602 0.51272 0.0
C1088 C 0.09906 0.97875 0.51946 0.0
C1089 C 0.08062 0.97771 0.50383 0.0
C1090 C 0.08575 0.97402 0.48141 0.0
C1091 C 0.075 0.89751 0.40445 0.0
C1092 C 0.06181 0.90294 0.38543 0.0
C1093 C 0.09062 0.91158 0.41445 0.0
C1094 C 0.09349 0.93128 0.40557 0.0
C1095 C 0.08072 0.93655 0.38633 0.0
C1096 C 0.06517 0.92253 0.37632 0.0
C1097 C 0.10848 0.94688 0.41714 0.0
C1098 C 0.10358 0.95142 0.43952 0.0
C1099 C 0.12611 0.95837 0.40586 0.0
C1100 C 0.13334 0.95329 0.38272 0.0
C1101 C 0.13325 0.96846 0.36622 0.0
C1102 C 0.13978 0.96359 0.34438 0.0
C1103 C 0.14654 0.9436 0.33885 0.0
C1104 C 0.14687 0.92846 0.35517 0.0
C1105 C 0.14038 0.93326 0.37703 0.0
H1106 H 0.15156 0.93986 0.32193 0.0
H1107 H 0.09505 0.98162 0.53681 0.0
H1108 H 0.13735 0.97038 0.95614 0.0
H1109 H 0.11585 1.00001 0.9417 0.0
H1110 H 0.17821 0.01818 0.90491 0.0
H1111 H 0.20012 0.98899 0.91993 0.0
H1112 H 0.158 0.05076 0.92358 0.0
H1113 H 0.13143 0.99407 0.87911 0.0
H1114 H 0.11468 0.95973 0.87192 0.0
H1115 H 0.04957 0.97724 0.90425 0.0
H1116 H 0.06607 0.01162 0.91191 0.0
H1117 H 0.06517 0.09809 0.84128 0.0
H1118 H 0.09174 0.07083 0.85385 0.0
H1119 H 0.08838 0.09452 0.92089 0.0
H1120 H 0.06153 0.12177 0.90852 0.0
H1121 H 0.0808 0.04107 0.88449 0.0
H1122 H 0.14506 0.08418 0.94497 0.0
H1123 H 0.16526 0.11763 0.9485 0.0
H1124 H 0.15845 0.12689 0.87813 0.0
H1125 H 0.13865 0.09335 0.87409 0.0
C1126 C 0.14661 0.98079 0.94519 0.0
C1127 C 0.17048 0.97721 0.93915 0.0
C1128 C 0.1342 0.99764 0.93676 0.0
C1129 C 0.1453 0.01121 0.92198 0.0
C1130 C 0.16923 1.00789 0.91622 0.0
C1131 C 0.18167 0.99106 0.92466 0.0
C1132 C 0.1319 0.02876 0.9124 0.0
C1133 C 0.14108 0.04865 0.9151 0.0
C1134 C 0.11007 0.026 0.90089 0.0
C1135 C 0.10008 1.00536 0.89626 0.0
C1136 C 0.11361 0.99055 0.88484 0.0
C1137 C 0.10415 0.97108 0.88065 0.0
C1138 C 0.0811 0.96629 0.88767 0.0
C1139 C 0.06743 0.98097 0.89885 0.0
C1140 C 0.07682 1.00045 0.9031 0.0
C1141 C 0.07027 0.09768 0.85866 0.0
C1142 C 0.0611 0.11208 0.87392 0.0
C1143 C 0.08539 0.08202 0.86583 0.0
C1144 C 0.09203 0.08063 0.88829 0.0
C1145 C 0.08359 0.09537 0.90345 0.0
C1146 C 0.06819 0.11089 0.89635 0.0
C1147 C 0.10665 0.0631 0.89607 0.0
C1148 C 0.09766 0.0432 0.89306 0.0
C1149 C 0.12884 0.06585 0.90694 0.0
C1150 C 0.14011 0.08632 0.90928 0.0
C1151 C 0.14788 0.09335 0.93025 0.0
C1152 C 0.15932 0.1123 0.93233 0.0
C1153 C 0.16316 0.12434 0.91355 0.0
C1154 C 0.15543 0.11754 0.89267 0.0
C1155 C 0.14405 0.09858 0.89048 0.0
H1156 H 0.17215 0.13895 0.91518 0.0
H1157 H 0.0738 0.95121 0.88441 0.0
H1158 H 0.90174 0.04372 0.47479 0.0
H1159 H 0.91898 0.01563 0.4533 0.0
H1160 H 0.8504 1.00325 0.42352 0.0
H1161 H 0.83279 0.0311 0.44558 0.0
H1162 H 0.87126 0.9684 0.43596 0.0
H1163 H 0.89381 0.02618 0.39344 0.0
H1164 H 0.91033 0.06051 0.38629 0.0
H1165 H 0.97909 0.04067 0.40906 0.0
H1166 H 0.9629 1.00629 0.41666 0.0
H1167 H 0.95897 0.9214 0.34726 0.0
H1168 H 0.93288 0.94861 0.36104 0.0
H1169 H 0.93797 0.9242 0.42736 0.0
H1170 H 0.96421 0.89696 0.41377 0.0
H1171 H 0.94441 0.97798 0.39098 0.0
H1172 H 0.88418 0.93422 0.45422 0.0
H1173 H 0.86335 0.90108 0.45737 0.0
H1174 H 0.86496 0.8937 0.38637 0.0
H1175 H 0.88542 0.92692 0.38274 0.0
C1176 C 0.89025 0.03498 0.46377 0.0
C1177 C 0.86584 0.03962 0.46199 0.0
C1178 C 0.9002 0.01903 0.45131 0.0
C1179 C 0.88605 1.00743 0.43662 0.0
C1180 C 0.86168 0.01203 0.43471 0.0
C1181 C 0.85168 0.02804 0.44719 0.0
C1182 C 0.89678 0.99024 0.42375 0.0
C1183 C 0.88723 0.97049 0.42609 0.0
C1184 C 0.91722 0.99303 0.41033 0.0
C1185 C 0.92708 0.01369 0.40578 0.0
C1186 C 0.91241 0.02918 0.39709 0.0
C1187 C 0.92173 0.04864 0.39292 0.0
C1188 C 0.94573 0.05278 0.39726 0.0
C1189 C 0.96049 0.03745 0.40572 0.0
C1190 C 0.95126 0.01796 0.40994 0.0
C1191 C 0.95434 0.92164 0.36474 0.0
C1192 C 0.96384 0.90704 0.37944 0.0
C1193 C 0.93946 0.93725 0.37259 0.0
C1194 C 0.93344 0.93843 0.39521 0.0
C1195 C 0.94221 0.92349 0.4098 0.0
C1196 C 0.95731 0.90798 0.40202 0.0
C1197 C 0.9194 0.95603 0.40386 0.0
C1198 C 0.92838 0.97588 0.40076 0.0
C1199 C 0.89814 0.95335 0.41614 0.0
C1200 C 0.88654 0.93302 0.41824 0.0
C1201 C 0.88009 0.92554 0.43928 0.0
C1202 C 0.86831 0.90675 0.44114 0.0
C1203 C 0.8628 0.89533 0.42207 0.0
C1204 C 0.86926 0.90256 0.40112 0.0
C1205 C 0.88101 0.92135 0.39916 0.0
H1206 H 0.85343 0.88091 0.42352 0.0
H1207 H 0.95292 0.06786 0.39402 0.0
H1208 H 0.34325 0.36069 0.1354 0.0
H1209 H 0.36212 0.35454 0.17155 0.0
H1210 H 0.41739 0.39798 0.15566 0.0
H1211 H 0.39913 0.40369 0.11934 0.0
H1212 H 0.43625 0.36529 0.17455 0.0
H1213 H 0.37123 0.41088 0.19022 0.0
H1214 H 0.32934 0.42229 0.19013 0.0
H1215 H 0.30924 0.36926 0.2276 0.0
H1216 H 0.35099 0.35739 0.22766 0.0
H1217 H 0.45039 0.39083 0.29935 0.0
H1218 H 0.4281 0.39453 0.26459 0.0
H1219 H 0.44646 0.33267 0.24589 0.0
H1220 H 0.46895 0.32885 0.28043 0.0
H1221 H 0.39082 0.37513 0.24455 0.0
H1222 H 0.4597 0.33238 0.18986 0.0
H1223 H 0.50251 0.32378 0.19041 0.0
H1224 H 0.51683 0.37658 0.23124 0.0
H1225 H 0.47417 0.38573 0.23058 0.0
C1226 C 0.35955 0.36878 0.13952 0.0
C1227 C 0.36956 0.38281 0.12452 0.0
C1228 C 0.37021 0.36538 0.16027 0.0
C1229 C 0.39104 0.37598 0.16645 0.0
C1230 C 0.4013 0.38967 0.15132 0.0
C1231 C 0.39068 0.39306 0.13063 0.0
C1232 C 0.40215 0.37302 0.18871 0.0
C1233 C 0.42627 0.36736 0.18983 0.0
C1234 C 0.38928 0.37603 0.20871 0.0
C1235 C 0.36419 0.38315 0.20874 0.0
C1236 C 0.35785 0.40157 0.19829 0.0
C1237 C 0.33413 0.40814 0.19827 0.0
C1238 C 0.31663 0.39648 0.2088 0.0
C1239 C 0.32281 0.37826 0.21942 0.0
C1240 C 0.3465 0.37161 0.21946 0.0
C1241 C 0.44944 0.3779 0.288 0.0
C1242 C 0.46174 0.35962 0.29261 0.0
C1243 C 0.43664 0.38004 0.26814 0.0
C1244 C 0.43597 0.36401 0.25248 0.0
C1245 C 0.44709 0.34537 0.25757 0.0
C1246 C 0.45987 0.3432 0.2774 0.0
C1247 C 0.42478 0.36715 0.23033 0.0
C1248 C 0.40071 0.37288 0.22924 0.0
C1249 C 0.43783 0.36459 0.21035 0.0
C1250 C 0.46366 0.35958 0.21039 0.0
C1251 C 0.47199 0.34222 0.19886 0.0
C1252 C 0.49623 0.33725 0.19919 0.0
C1253 C 0.51235 0.34957 0.21095 0.0
C1254 C 0.5043 0.367 0.22222 0.0
C1255 C 0.48008 0.37208 0.22188 0.0
H1256 H 0.53106 0.34559 0.21131 0.0
H1257 H 0.29828 0.40158 0.20877 0.0
H1258 H 0.68979 0.68051 0.64935 0.0
H1259 H 0.66698 0.67998 0.68388 0.0
H1260 H 0.61775 0.6367 0.65461 0.0
H1261 H 0.6398 0.63791 0.61965 0.0
H1262 H 0.59386 0.66398 0.67719 0.0
H1263 H 0.66121 0.62169 0.69221 0.0
H1264 H 0.70379 0.61259 0.69436 0.0
H1265 H 0.71583 0.66164 0.74099 0.0
H1266 H 0.67335 0.67122 0.73889 0.0
H1267 H 0.57167 0.62996 0.79867 0.0
H1268 H 0.59648 0.6288 0.76525 0.0
H1269 H 0.57566 0.69059 0.74945 0.0
H1270 H 0.55071 0.69188 0.78262 0.0
H1271 H 0.63393 0.65079 0.7494 0.0
H1272 H 0.5655 0.69315 0.69353 0.0
H1273 H 0.522 0.69854 0.69182 0.0
H1274 H 0.51052 0.64215 0.72658 0.0
H1275 H 0.5539 0.63622 0.72809 0.0
C1276 C 0.67396 0.67105 0.65012 0.0
C1277 C 0.66672 0.65921 0.63165 0.0
C1278 C 0.66107 0.67058 0.67001 0.0
C1279 C 0.64081 0.65807 0.67201 0.0
C1280 C 0.63337 0.64641 0.65354 0.0
C1281 C 0.64617 0.64696 0.6336 0.0
C1282 C 0.6273 0.65724 0.69329 0.0
C1283 C 0.60266 0.6611 0.69295 0.0
C1284 C 0.63859 0.65303 0.71388 0.0
C1285 C 0.66414 0.64728 0.71524 0.0
C1286 C 0.67297 0.63063 0.7028 0.0
C1287 C 0.69708 0.62537 0.70403 0.0
C1288 C 0.71252 0.63656 0.71776 0.0
C1289 C 0.70385 0.653 0.73034 0.0
C1290 C 0.67976 0.65834 0.72916 0.0
C1291 C 0.57255 0.6434 0.78823 0.0
C1292 C 0.55894 0.66094 0.79324 0.0
C1293 C 0.58679 0.64271 0.76915 0.0
C1294 C 0.58761 0.65948 0.75467 0.0
C1295 C 0.57498 0.67734 0.7602 0.0
C1296 C 0.56077 0.67806 0.77924 0.0
C1297 C 0.60073 0.65805 0.73328 0.0
C1298 C 0.62521 0.65371 0.73361 0.0
C1299 C 0.58918 0.66127 0.71262 0.0
C1300 C 0.563 0.66437 0.71111 0.0
C1301 C 0.5537 0.68184 0.70067 0.0
C1302 C 0.52905 0.68499 0.69975 0.0
C1303 C 0.51352 0.67073 0.70915 0.0
C1304 C 0.52258 0.65321 0.71936 0.0
C1305 C 0.54719 0.64995 0.72025 0.0
H1306 H 0.49446 0.67323 0.7085 0.0
H1307 H 0.73118 0.63246 0.71869 0.0
H1308 H 0.62891 0.34968 0.11335 0.0
H1309 H 0.60942 0.34208 0.14875 0.0
H1310 H 0.66206 0.37835 0.18355 0.0
H1311 H 0.68198 0.38557 0.14832 0.0
H1312 H 0.65069 0.34434 0.20707 0.0
H1313 H 0.60894 0.39863 0.16882 0.0
H1314 H 0.5868 0.41426 0.13778 0.0
H1315 H 0.53273 0.36794 0.14291 0.0
H1316 H 0.55479 0.35182 0.17372 0.0
H1317 H 0.55262 0.38732 0.28587 0.0
H1318 H 0.57633 0.3871 0.25205 0.0
H1319 H 0.58805 0.32217 0.25893 0.0
H1320 H 0.56435 0.32226 0.2932 0.0
H1321 H 0.56708 0.36809 0.2142 0.0
H1322 H 0.64237 0.31083 0.2332 0.0
H1323 H 0.66492 0.29774 0.26541 0.0
H1324 H 0.65268 0.35412 0.30072 0.0
H1325 H 0.63034 0.36763 0.26863 0.0
C1326 C 0.63663 0.35569 0.12858 0.0
C1327 C 0.65689 0.3684 0.12797 0.0
C1328 C 0.62537 0.35144 0.14879 0.0
C1329 C 0.6341 0.35986 0.16879 0.0
C1330 C 0.65496 0.37172 0.16834 0.0
C1331 C 0.6662 0.376 0.14816 0.0
C1332 C 0.6207 0.35757 0.18995 0.0
C1333 C 0.63232 0.34934 0.20859 0.0
C1334 C 0.59681 0.36428 0.19204 0.0
C1335 C 0.58367 0.37387 0.17337 0.0
C1336 C 0.59246 0.39166 0.16317 0.0
C1337 C 0.57991 0.40062 0.14564 0.0
C1338 C 0.55841 0.39206 0.13832 0.0
C1339 C 0.54941 0.37453 0.14855 0.0
C1340 C 0.56194 0.36546 0.16603 0.0
C1341 C 0.56039 0.37297 0.28039 0.0
C1342 C 0.55647 0.35477 0.29227 0.0
C1343 C 0.5739 0.37288 0.26096 0.0
C1344 C 0.58393 0.35463 0.25287 0.0
C1345 C 0.58064 0.33648 0.26494 0.0
C1346 C 0.56709 0.33655 0.28453 0.0
C1347 C 0.59698 0.3548 0.23137 0.0
C1348 C 0.58528 0.36267 0.21262 0.0
C1349 C 0.62082 0.34796 0.2293 0.0
C1350 C 0.63445 0.34012 0.24861 0.0
C1351 C 0.64455 0.32044 0.24782 0.0
C1352 C 0.65729 0.31295 0.26606 0.0
C1353 C 0.66015 0.32506 0.28514 0.0
C1354 C 0.65036 0.34472 0.28598 0.0
C1355 C 0.63763 0.35229 0.26778 0.0
H1356 H 0.67 0.31923 0.29924 0.0
H1357 H 0.5487 0.39904 0.12477 0.0
H1358 H 0.32348 0.68281 0.65062 0.0
H1359 H 0.34582 0.68407 0.68562 0.0
H1360 H 0.39958 0.64469 0.65729 0.0
H1361 H 0.37769 0.64367 0.62215 0.0
H1362 H 0.38635 0.63257 0.69911 0.0
H1363 H 0.40945 0.6954 0.66276 0.0
H1364 H 0.40196 0.72862 0.64476 0.0
H1365 H 0.36749 0.7507 0.70393 0.0
H1366 H 0.37451 0.7175 0.72219 0.0
H1367 H 0.48301 0.64237 0.77158 0.0
H1368 H 0.45638 0.64348 0.73965 0.0
H1369 H 0.41206 0.68762 0.77363 0.0
H1370 H 0.43942 0.68714 0.80564 0.0
H1371 H 0.41664 0.69777 0.73133 0.0
H1372 H 0.39554 0.6364 0.76894 0.0
H1373 H 0.40267 0.60341 0.78755 0.0
H1374 H 0.43166 0.57849 0.72713 0.0
H1375 H 0.42504 0.61143 0.70823 0.0
C1376 C 0.34018 0.67459 0.65173 0.0
C1377 C 0.34875 0.66315 0.63348 0.0
C1378 C 0.35289 0.67527 0.67179 0.0
C1379 C 0.37444 0.66455 0.67404 0.0
C1380 C 0.38294 0.653 0.65597 0.0
C1381 C 0.37032 0.65237 0.63589 0.0
C1382 C 0.38821 0.66527 0.69519 0.0
C1383 C 0.39315 0.6468 0.70607 0.0
C1384 C 0.39638 0.68391 0.70468 0.0
C1385 C 0.39227 0.7039 0.69375 0.0
C1386 C 0.4001 0.70728 0.67187 0.0
C1387 C 0.39597 0.72612 0.66163 0.0
C1388 C 0.38419 0.74174 0.67317 0.0
C1389 C 0.37658 0.73858 0.695 0.0
C1390 C 0.38064 0.71976 0.7053 0.0
C1391 C 0.46753 0.65225 0.77239 0.0
C1392 C 0.46314 0.66447 0.7913 0.0
C1393 C 0.45225 0.65282 0.75409 0.0
C1394 C 0.43183 0.66523 0.7544 0.0
C1395 C 0.4276 0.6778 0.77307 0.0
C1396 C 0.44318 0.67748 0.79136 0.0
C1397 C 0.41518 0.665 0.73507 0.0
C1398 C 0.40965 0.68354 0.72455 0.0
C1399 C 0.40625 0.64642 0.726 0.0
C1400 C 0.40992 0.62645 0.73721 0.0
C1401 C 0.40355 0.62392 0.75965 0.0
C1402 C 0.4075 0.60522 0.77025 0.0
C1403 C 0.41764 0.58887 0.75854 0.0
C1404 C 0.4238 0.59117 0.73618 0.0
C1405 C 0.41993 0.60985 0.72551 0.0
H1406 H 0.4207 0.57442 0.76679 0.0
H1407 H 0.38101 0.75631 0.66521 0.0
H1408 H 0.84577 0.84724 0.1346 0.0
H1409 H 0.86532 0.83868 0.16988 0.0
H1410 H 0.91386 0.8893 0.1614 0.0
H1411 H 0.89505 0.89747 0.12598 0.0
H1412 H 0.93719 0.85627 0.17531 0.0
H1413 H 0.86494 0.89224 0.19615 0.0
H1414 H 0.82147 0.89771 0.19721 0.0
H1415 H 0.81194 0.839 0.22776 0.0
H1416 H 0.85537 0.83309 0.22662 0.0
H1417 H 0.97904 0.88557 0.2797 0.0
H1418 H 0.95605 0.88405 0.2454 0.0
H1419 H 0.92475 0.82684 0.26569 0.0
H1420 H 0.94809 0.82806 0.30037 0.0
H1421 H 0.8918 0.85626 0.24608 0.0
H1422 H 0.96505 0.82288 0.2302 0.0
H1423 H 1.00865 0.8183 0.23006 0.0
H1424 H 0.01663 0.87224 0.1903 0.0
H1425 H 0.97306 0.87745 0.19061 0.0
C1426 C 0.86075 0.85641 0.14018 0.0
C1427 C 0.86869 0.87316 0.12755 0.0
C1428 C 0.87179 0.8516 0.16043 0.0
C1429 C 0.89093 0.86348 0.16842 0.0
C1430 C 0.89911 0.87994 0.15563 0.0
C1431 C 0.88814 0.88473 0.13546 0.0
C1432 C 0.90245 0.85914 0.19019 0.0
C1433 C 0.92726 0.85635 0.19077 0.0
C1434 C 0.88943 0.85856 0.21035 0.0
C1435 C 0.86335 0.86212 0.21105 0.0
C1436 C 0.85355 0.88043 0.20292 0.0
C1437 C 0.82893 0.88362 0.20357 0.0
C1438 C 0.81394 0.86868 0.21248 0.0
C1439 C 0.82356 0.85054 0.22082 0.0
C1440 C 0.84818 0.84726 0.22019 0.0
C1441 C 0.96717 0.87269 0.2771 0.0
C1442 C 0.96559 0.85684 0.29279 0.0
C1443 C 0.95408 0.87184 0.25738 0.0
C1444 C 0.93897 0.85521 0.2529 0.0
C1445 C 0.93644 0.83975 0.26885 0.0
C1446 C 0.94979 0.84047 0.28861 0.0
C1447 C 0.92653 0.85404 0.23114 0.0
C1448 C 0.90163 0.8558 0.23056 0.0
C1449 C 0.93947 0.85371 0.21096 0.0
C1450 C 0.96574 0.85064 0.21059 0.0
C1451 C 0.97609 0.83389 0.2216 0.0
C1452 C 1.0008 0.83117 0.22148 0.0
C1453 C 0.01538 0.84498 0.21021 0.0
C1454 C 1.00529 0.86156 0.19904 0.0
C1455 C 0.98057 0.8644 0.19918 0.0
H1456 H 0.03448 0.84277 0.2101 0.0
H1457 H 0.79488 0.87118 0.21297 0.0
H1458 H 0.19887 0.18596 0.65222 0.0
H1459 H 0.17511 0.1882 0.6862 0.0
H1460 H 0.12597 0.1435 0.65944 0.0
H1461 H 0.1489 0.14193 0.62508 0.0
H1462 H 0.10219 0.17357 0.67752 0.0
H1463 H 0.16827 0.13183 0.70039 0.0
H1464 H 0.21062 0.12327 0.70617 0.0
H1465 H 0.21883 0.17569 0.74902 0.0
H1466 H 0.17657 0.18472 0.74326 0.0
H1467 H 0.04301 0.13919 0.77325 0.0
H1468 H 0.06982 0.1415 0.74154 0.0
H1469 H 0.1041 0.19415 0.77117 0.0
H1470 H 0.07697 0.19212 0.80318 0.0
H1471 H 0.13629 0.16335 0.75288 0.0
H1472 H 0.06998 0.20463 0.7299 0.0
H1473 H 0.02773 0.21305 0.72366 0.0
H1474 H 0.02 0.16013 0.68142 0.0
H1475 H 0.06237 0.15149 0.68732 0.0
C1476 C 0.1829 0.17672 0.65348 0.0
C1477 C 0.17588 0.16372 0.63585 0.0
C1478 C 0.16947 0.17784 0.67306 0.0
C1479 C 0.14886 0.16583 0.67555 0.0
C1480 C 0.14183 0.15287 0.65799 0.0
C1481 C 0.15514 0.15183 0.63839 0.0
C1482 C 0.13416 0.16708 0.69613 0.0
C1483 C 0.10969 0.17111 0.69394 0.0
C1484 C 0.14393 0.16448 0.7177 0.0
C1485 C 0.16933 0.15908 0.72119 0.0
C1486 C 0.17915 0.14163 0.71089 0.0
C1487 C 0.20313 0.13667 0.7142 0.0
C1488 C 0.21743 0.14896 0.7279 0.0
C1489 C 0.20775 0.1662 0.73838 0.0
C1490 C 0.18378 0.17124 0.73511 0.0
C1491 C 0.05627 0.15126 0.77317 0.0
C1492 C 0.05777 0.16552 0.79079 0.0
C1493 C 0.07155 0.15258 0.75495 0.0
C1494 C 0.08882 0.16807 0.75392 0.0
C1495 C 0.09083 0.1821 0.77165 0.0
C1496 C 0.07529 0.18095 0.78986 0.0
C1497 C 0.10444 0.1695 0.73407 0.0
C1498 C 0.12897 0.16596 0.73642 0.0
C1499 C 0.09477 0.17241 0.71259 0.0
C1500 C 0.06925 0.17734 0.7092 0.0
C1501 C 0.05921 0.1947 0.71942 0.0
C1502 C 0.03525 0.19954 0.7159 0.0
C1503 C 0.02111 0.18705 0.70225 0.0
C1504 C 0.03096 0.16976 0.69201 0.0
C1505 C 0.05497 0.16494 0.69536 0.0
H1506 H 1.00255 0.19082 0.69952 0.0
H1507 H 0.23599 0.14509 0.73044 0.0
H1508 H 0.14147 0.85242 0.12022 0.0
H1509 H 0.123 0.84612 0.15635 0.0
H1510 H 0.15668 0.90039 0.18306 0.0
H1511 H 0.1758 0.90644 0.14717 0.0
H1512 H 0.15768 0.86997 0.21304 0.0
H1513 H 0.0989 0.90103 0.16598 0.0
H1514 H 0.07321 0.90507 0.13296 0.0
H1515 H 0.0407 0.84674 0.1456 0.0
H1516 H 0.06656 0.84215 0.17843 0.0
H1517 H 0.07824 0.88675 0.30498 0.0
H1518 H 0.10265 0.88931 0.2714 0.0
H1519 H 0.07078 0.83384 0.2457 0.0
H1520 H 0.04635 0.83115 0.27906 0.0
H1521 H 0.06954 0.8647 0.21571 0.0
H1522 H 0.12792 0.83401 0.26366 0.0
H1523 H 0.15196 0.8314 0.29793 0.0
H1524 H 0.18388 0.88983 0.2846 0.0
H1525 H 0.15978 0.89292 0.2504 0.0
C1526 C 0.1453 0.86283 0.13387 0.0
C1527 C 0.16001 0.88003 0.13072 0.0
C1528 C 0.13453 0.85931 0.15448 0.0
C1529 C 0.13814 0.87296 0.17235 0.0
C1530 C 0.15352 0.8897 0.16951 0.0
C1531 C 0.16428 0.89323 0.14891 0.0
C1532 C 0.12525 0.8702 0.19374 0.0
C1533 C 0.13839 0.86895 0.21364 0.0
C1534 C 0.10008 0.8686 0.19455 0.0
C1535 C 0.08488 0.87114 0.17452 0.0
C1536 C 0.08648 0.88895 0.16157 0.0
C1537 C 0.07186 0.89136 0.1429 0.0
C1538 C 0.05539 0.87614 0.13714 0.0
C1539 C 0.05352 0.85848 0.15003 0.0
C1540 C 0.06816 0.85597 0.16866 0.0
C1541 C 0.07665 0.87494 0.29232 0.0
C1542 C 0.06028 0.85876 0.29475 0.0
C1543 C 0.09068 0.8764 0.27316 0.0
C1544 C 0.08861 0.86172 0.25607 0.0
C1545 C 0.0727 0.84533 0.25868 0.0
C1546 C 0.0588 0.84378 0.27785 0.0
C1547 C 0.10193 0.86404 0.2349 0.0
C1548 C 0.08884 0.8654 0.21506 0.0
C1549 C 0.12707 0.86575 0.23419 0.0
C1550 C 0.14189 0.86377 0.25455 0.0
C1551 C 0.13996 0.84636 0.2681 0.0
C1552 C 0.15361 0.84478 0.28751 0.0
C1553 C 0.16939 0.86046 0.29347 0.0
C1554 C 0.17163 0.8777 0.27998 0.0
C1555 C 0.158 0.87936 0.26056 0.0
H1556 H 0.17992 0.85922 0.30851 0.0
H1557 H 0.04404 0.87806 0.12272 0.0
H1558 H 0.86899 0.13493 0.62727 0.0
H1559 H 0.89038 0.13521 0.66268 0.0
H1560 H 0.85032 0.18811 0.68391 0.0
H1561 H 0.82823 0.18763 0.64878 0.0
H1562 H 0.89922 0.19186 0.69168 0.0
H1563 H 0.83675 0.14327 0.70526 0.0
H1564 H 0.8122 0.11274 0.69727 0.0
H1565 H 0.87436 0.0746 0.70101 0.0
H1566 H 0.89936 0.10495 0.7087 0.0
H1567 H 0.94686 0.19053 0.80098 0.0
H1568 H 0.9185 0.19095 0.7699 0.0
H1569 H 0.94276 0.13096 0.74942 0.0
H1570 H 0.96961 0.12995 0.78145 0.0
H1571 H 0.89888 0.13208 0.74219 0.0
H1572 H 0.96202 0.18038 0.7271 0.0
H1573 H 0.98683 0.21067 0.73528 0.0
H1574 H 0.92507 0.24928 0.73236 0.0
H1575 H 0.89965 0.2191 0.72514 0.0
C1576 C 0.86441 0.14647 0.63955 0.0
C1577 C 0.84673 0.1612 0.6351 0.0
C1578 C 0.87677 0.14665 0.65977 0.0
C1579 C 0.87182 0.16158 0.676 0.0
C1580 C 0.85444 0.17647 0.67159 0.0
C1581 C 0.84192 0.17621 0.65142 0.0
C1582 C 0.88501 0.16176 0.69746 0.0
C1583 C 0.89893 0.17892 0.70292 0.0
C1584 C 0.88497 0.14471 0.71185 0.0
C1585 C 0.86995 0.12641 0.70736 0.0
C1586 C 0.84521 0.12839 0.7042 0.0
C1587 C 0.83121 0.11112 0.69976 0.0
C1588 C 0.84172 0.09175 0.69858 0.0
C1589 C 0.86625 0.08961 0.7019 0.0
C1590 C 0.88034 0.10684 0.70633 0.0
C1591 C 0.94584 0.17738 0.78993 0.0
C1592 C 0.9604 0.16024 0.79351 0.0
C1593 C 0.92979 0.17767 0.77206 0.0
C1594 C 0.92885 0.16122 0.75681 0.0
C1595 C 0.94307 0.14389 0.76081 0.0
C1596 C 0.95847 0.14331 0.7791 0.0
C1597 C 0.91364 0.16209 0.7364 0.0
C1598 C 0.89924 0.1451 0.73107 0.0
C1599 C 0.91348 0.17925 0.72199 0.0
C1600 C 0.92889 0.19743 0.72581 0.0
C1601 C 0.95369 0.1953 0.72834 0.0
C1602 C 0.96787 0.21246 0.73281 0.0
C1603 C 0.95758 0.23189 0.73424 0.0
C1604 C 0.93303 0.23421 0.73126 0.0
C1605 C 0.91871 0.21708 0.72707 0.0
H1606 H 0.96863 0.24514 0.73766 0.0
H1607 H 0.83085 0.07839 0.69514 0.0
loop_
_geom_bond_atom_site_label_1
_geom_bond_atom_site_label_2
_geom_bond_distance
_geom_bond_site_symmetry_2
_ccdc_geom_bond_type
C0 C1 1.264 . S
C0 C5 1.479 . S
C0 C10 1.465 . S
C1 C0 1.264 . S
C1 C3 1.339 . S
C1 H28 0.931 1_556 S
C2 C3 1.395 . S
C2 C4 1.320 . S
C3 C1 1.339 . S
C3 C2 1.395 . S
C3 H29 0.929 . S
C4 C2 1.320 . S
C4 C5 1.405 . S
C4 H30 0.930 . S
C5 C0 1.479 . S
C5 C4 1.405 . S
C5 H31 0.931 . S
U6 O7 2.454 1_554 S
U6 O8 2.458 . S
U6 C9 2.984 1_554 S
U6 C10 2.847 1_554 S
U6 C23 2.882 . S
U6 O24 2.441 1_554 S
U6 O25 2.420 . S
U6 O26 2.455 . S
U6 O27 2.449 . S
O7 U6 2.454 1_556 S
O7 C9 1.353 . S
O8 U6 2.458 . S
O8 C9 1.286 1_554 S
C9 U6 2.984 1_556 S
C9 O7 1.353 . S
C9 O8 1.286 1_556 S
C9 C11 1.363 . S
C10 C0 1.465 . S
C10 U6 2.847 1_556 S
C10 O24 1.249 . S
C10 O25 1.202 1_556 S
C11 C9 1.363 . S
C11 C13 1.408 . S
C11 C16 1.342 . S
C12 C13 1.310 . S
C12 C15 1.461 . S
C12 H32 0.932 . S
C13 C11 1.408 . S
C13 C12 1.310 . S
C13 H33 0.930 . S
C14 C15 1.474 . S
C14 C16 1.285 . S
C14 H34 0.929 . S
C15 C12 1.461 . S
C15 C14 1.474 . S
C16 C11 1.342 . S
C16 C14 1.285 . S
C16 H35 0.930 1_556 S
C17 C20 1.424 . S
C17 C22 1.245 . S
C17 C23 1.428 . S
C18 C21 1.260 . S
C18 C22 1.477 . S
C18 H36 0.932 . S
C19 C20 1.384 . S
C19 C21 1.479 . S
C19 H37 0.929 . S
C20 C17 1.424 . S
C20 C19 1.384 . S
C20 H38 0.928 . S
C21 C18 1.260 . S
C21 C19 1.479 . S
C22 C17 1.245 . S
C22 C18 1.477 . S
C22 H39 0.932 . S
C23 U6 2.882 . S
C23 C17 1.428 . S
C23 O26 1.301 . S
C23 O27 1.282 . S
O24 U6 2.441 1_556 S
O24 C10 1.249 . S
O25 U6 2.420 . S
O25 C10 1.202 1_554 S
O26 U6 2.455 . S
O26 C23 1.301 . S
O27 U6 2.449 . S
O27 C23 1.282 . S
H28 C1 0.931 1_554 S
H29 C3 0.929 . S
H30 C4 0.930 . S
H31 C5 0.931 . S
H32 C12 0.932 . S
H33 C13 0.930 . S
H34 C14 0.929 . S
H35 C16 0.930 1_554 S
H36 C18 0.932 . S
H37 C19 0.929 . S
H38 C20 0.928 . S
H39 C22 0.932 . S
C40 C41 1.264 . S
C40 C45 1.479 . S
C40 C50 1.465 . S
C41 C40 1.264 . S
C41 C43 1.339 . S
C41 H68 0.931 . S
C42 C43 1.395 . S
C42 C44 1.320 . S
C43 C41 1.339 . S
C43 C42 1.395 . S
C43 H69 0.929 . S
C44 C42 1.320 . S
C44 C45 1.405 . S
C44 H70 0.930 . S
C45 C40 1.479 . S
C45 C44 1.405 . S
C45 H71 0.931 . S
U46 O47 2.454 . S
U46 O48 2.458 . S
U46 C49 2.984 . S
U46 C50 2.847 . S
U46 C63 2.882 . S
U46 O64 2.441 . S
U46 O65 2.420 . S
U46 O66 2.455 . S
U46 O67 2.449 . S
O47 U46 2.454 . S
O47 C49 1.353 . S
O48 U46 2.458 . S
O48 C49 1.286 . S
C49 U46 2.984 . S
C49 O47 1.353 . S
C49 O48 1.286 . S
C49 C51 1.363 . S
C50 C40 1.465 . S
C50 U46 2.847 . S
C50 O64 1.249 . S
C50 O65 1.202 . S
C51 C49 1.363 . S
C51 C53 1.408 . S
C51 C56 1.342 . S
C52 C53 1.310 . S
C52 C55 1.461 . S
C52 H72 0.932 . S
C53 C51 1.408 . S
C53 C52 1.310 . S
C53 H73 0.930 . S
C54 C55 1.474 . S
C54 C56 1.285 . S
C54 H74 0.929 . S
C55 C52 1.461 . S
C55 C54 1.474 . S
C56 C51 1.342 . S
C56 C54 1.285 . S
C56 H75 0.930 . S
C57 C60 1.424 . S
C57 C62 1.245 . S
C57 C63 1.428 . S
C58 C61 1.260 . S
C58 C62 1.477 . S
C58 H76 0.932 . S
C59 C60 1.384 . S
C59 C61 1.479 . S
C59 H77 0.929 . S
C60 C57 1.424 . S
C60 C59 1.384 . S
C60 H78 0.928 . S
C61 C58 1.260 . S
C61 C59 1.479 . S
C62 C57 1.245 . S
C62 C58 1.477 . S
C62 H79 0.932 . S
C63 U46 2.882 . S
C63 C57 1.428 . S
C63 O66 1.301 . S
C63 O67 1.282 . S
O64 U46 2.441 . S
O64 C50 1.249 . S
O65 U46 2.420 . S
O65 C50 1.202 . S
O66 U46 2.455 . S
O66 C63 1.301 . S
O67 U46 2.449 . S
O67 C63 1.282 . S
H68 C41 0.931 . S
H69 C43 0.929 . S
H70 C44 0.930 . S
H71 C45 0.931 . S
H72 C52 0.932 . S
H73 C53 0.930 . S
H74 C54 0.929 . S
H75 C56 0.930 . S
H76 C58 0.932 . S
H77 C59 0.929 . S
H78 C60 0.928 . S
H79 C62 0.932 . S
C80 C81 1.264 . S
C80 C85 1.479 . S
C80 C90 1.465 . S
C81 C80 1.264 . S
C81 C83 1.339 . S
C81 H108 0.931 . S
C82 C83 1.395 . S
C82 C84 1.320 . S
C83 C81 1.339 . S
C83 C82 1.395 . S
C83 H109 0.929 . S
C84 C82 1.320 . S
C84 C85 1.405 . S
C84 H110 0.930 . S
C85 C80 1.479 . S
C85 C84 1.405 . S
C85 H111 0.931 . S
U86 O87 2.454 1_554 S
U86 O88 2.458 . S
U86 C89 2.984 1_554 S
U86 C90 2.847 1_554 S
U86 C103 2.882 . S
U86 O104 2.441 1_554 S
U86 O105 2.420 1_554 S
U86 O106 2.455 . S
U86 O107 2.449 . S
O87 U86 2.454 1_556 S
O87 C89 1.353 . S
O88 U86 2.458 . S
O88 C89 1.286 1_554 S
C89 U86 2.984 1_556 S
C89 O87 1.353 . S
C89 O88 1.286 1_556 S
C89 C91 1.363 . S
C90 C80 1.465 . S
C90 U86 2.847 1_556 S
C90 O104 1.249 . S
C90 O105 1.202 . S
C91 C89 1.363 . S
C91 C93 1.408 . S
C91 C96 1.342 . S
C92 C93 1.310 . S
C92 C95 1.461 . S
C92 H112 0.932 . S
C93 C91 1.408 . S
C93 C92 1.310 . S
C93 H113 0.930 . S
C94 C95 1.474 . S
C94 C96 1.285 . S
C94 H114 0.929 . S
C95 C92 1.461 . S
C95 C94 1.474 . S
C96 C91 1.342 . S
C96 C94 1.285 . S
C96 H115 0.930 1_556 S
C97 C100 1.424 . S
C97 C102 1.245 . S
C97 C103 1.428 . S
C98 C101 1.260 . S
C98 C102 1.477 . S
C98 H116 0.932 . S
C99 C100 1.384 . S
C99 C101 1.479 . S
C99 H117 0.929 . S
C100 C97 1.424 . S
C100 C99 1.384 . S
C100 H118 0.928 . S
C101 C98 1.260 . S
C101 C99 1.479 . S
C102 C97 1.245 . S
C102 C98 1.477 . S
C102 H119 0.932 . S
C103 U86 2.882 . S
C103 C97 1.428 . S
C103 O106 1.301 . S
C103 O107 1.282 . S
O104 U86 2.441 1_556 S
O104 C90 1.249 . S
O105 U86 2.420 1_556 S
O105 C90 1.202 . S
O106 U86 2.455 . S
O106 C103 1.301 . S
O107 U86 2.449 . S
O107 C103 1.282 . S
H108 C81 0.931 . S
H109 C83 0.929 . S
H110 C84 0.930 . S
H111 C85 0.931 . S
H112 C92 0.932 . S
H113 C93 0.930 . S
H114 C94 0.929 . S
H115 C96 0.930 1_554 S
H116 C98 0.932 . S
H117 C99 0.929 . S
H118 C100 0.928 . S
H119 C102 0.932 . S
C120 C121 1.264 . S
C120 C125 1.479 . S
C120 C130 1.465 . S
C121 C120 1.264 . S
C121 C123 1.339 . S
C121 H148 0.931 . S
C122 C123 1.395 . S
C122 C124 1.320 . S
C123 C121 1.339 . S
C123 C122 1.395 . S
C123 H149 0.929 . S
C124 C122 1.320 . S
C124 C125 1.405 . S
C124 H150 0.930 . S
C125 C120 1.479 . S
C125 C124 1.405 . S
C125 H151 0.931 . S
U126 O127 2.454 . S
U126 O128 2.458 . S
U126 C129 2.984 . S
U126 C130 2.847 . S
U126 C143 2.882 . S
U126 O144 2.441 . S
U126 O145 2.420 . S
U126 O146 2.455 . S
U126 O147 2.449 . S
O127 U126 2.454 . S
O127 C129 1.353 . S
O128 U126 2.458 . S
O128 C129 1.286 . S
C129 U126 2.984 . S
C129 O127 1.353 . S
C129 O128 1.286 . S
C129 C131 1.363 . S
C130 C120 1.465 . S
C130 U126 2.847 . S
C130 O144 1.249 . S
C130 O145 1.202 . S
C131 C129 1.363 . S
C131 C133 1.408 . S
C131 C136 1.342 . S
C132 C133 1.310 . S
C132 C135 1.461 . S
C132 H152 0.932 . S
C133 C131 1.408 . S
C133 C132 1.310 . S
C133 H153 0.930 . S
C134 C135 1.474 . S
C134 C136 1.285 . S
C134 H154 0.929 . S
C135 C132 1.461 . S
C135 C134 1.474 . S
C136 C131 1.342 . S
C136 C134 1.285 . S
C136 H155 0.930 . S
C137 C140 1.424 . S
C137 C142 1.245 . S
C137 C143 1.428 . S
C138 C141 1.260 . S
C138 C142 1.477 . S
C138 H156 0.932 . S
C139 C140 1.384 . S
C139 C141 1.479 . S
C139 H157 0.929 . S
C140 C137 1.424 . S
C140 C139 1.384 . S
C140 H158 0.928 . S
C141 C138 1.260 . S
C141 C139 1.479 . S
C142 C137 1.245 . S
C142 C138 1.477 . S
C142 H159 0.932 . S
C143 U126 2.882 . S
C143 C137 1.428 . S
C143 O146 1.301 . S
C143 O147 1.282 . S
O144 U126 2.441 . S
O144 C130 1.249 . S
O145 U126 2.420 . S
O145 C130 1.202 . S
O146 U126 2.455 . S
O146 C143 1.301 . S
O147 U126 2.449 . S
O147 C143 1.282 . S
H148 C121 0.931 . S
H149 C123 0.929 . S
H150 C124 0.930 . S
H151 C125 0.931 . S
H152 C132 0.932 . S
H153 C133 0.930 . S
H154 C134 0.929 . S
H155 C136 0.930 . S
H156 C138 0.932 . S
H157 C139 0.929 . S
H158 C140 0.928 . S
H159 C142 0.932 . S
C160 C161 1.264 . S
C160 C165 1.479 . S
C160 C170 1.465 . S
C161 C160 1.264 . S
C161 C163 1.339 . S
C161 H188 0.931 1_556 S
C162 C163 1.395 . S
C162 C164 1.320 . S
C163 C161 1.339 . S
C163 C162 1.395 . S
C163 H189 0.929 . S
C164 C162 1.320 . S
C164 C165 1.405 . S
C164 H190 0.930 . S
C165 C160 1.479 . S
C165 C164 1.405 . S
C165 H191 0.931 . S
U166 O167 2.454 1_554 S
U166 O168 2.458 . S
U166 C169 2.984 1_554 S
U166 C170 2.847 1_554 S
U166 C183 2.882 . S
U166 O184 2.441 1_554 S
U166 O185 2.420 . S
U166 O186 2.455 . S
U166 O187 2.449 . S
O167 U166 2.454 1_556 S
O167 C169 1.353 . S
O168 U166 2.458 . S
O168 C169 1.286 1_554 S
C169 U166 2.984 1_556 S
C169 O167 1.353 . S
C169 O168 1.286 1_556 S
C169 C171 1.363 . S
C170 C160 1.465 . S
C170 U166 2.847 1_556 S
C170 O184 1.249 . S
C170 O185 1.202 1_556 S
C171 C169 1.363 . S
C171 C173 1.408 . S
C171 C176 1.342 . S
C172 C173 1.310 . S
C172 C175 1.461 . S
C172 H192 0.932 . S
C173 C171 1.408 . S
C173 C172 1.310 . S
C173 H193 0.930 . S
C174 C175 1.474 . S
C174 C176 1.285 . S
C174 H194 0.929 . S
C175 C172 1.461 . S
C175 C174 1.474 . S
C176 C171 1.342 . S
C176 C174 1.285 . S
C176 H195 0.930 1_556 S
C177 C180 1.424 . S
C177 C182 1.245 . S
C177 C183 1.428 . S
C178 C181 1.260 . S
C178 C182 1.477 . S
C178 H196 0.932 . S
C179 C180 1.384 . S
C179 C181 1.479 . S
C179 H197 0.929 . S
C180 C177 1.424 . S
C180 C179 1.384 . S
C180 H198 0.928 . S
C181 C178 1.260 . S
C181 C179 1.479 . S
C182 C177 1.245 . S
C182 C178 1.477 . S
C182 H199 0.932 . S
C183 U166 2.882 . S
C183 C177 1.428 . S
C183 O186 1.301 . S
C183 O187 1.282 . S
O184 U166 2.441 1_556 S
O184 C170 1.249 . S
O185 U166 2.420 . S
O185 C170 1.202 1_554 S
O186 U166 2.455 . S
O186 C183 1.301 . S
O187 U166 2.449 . S
O187 C183 1.282 . S
H188 C161 0.931 1_554 S
H189 C163 0.929 . S
H190 C164 0.930 . S
H191 C165 0.931 . S
H192 C172 0.932 . S
H193 C173 0.930 . S
H194 C174 0.929 . S
H195 C176 0.930 1_554 S
H196 C178 0.932 . S
H197 C179 0.929 . S
H198 C180 0.928 . S
H199 C182 0.932 . S
C200 C201 1.264 . S
C200 C205 1.479 . S
C200 C210 1.465 . S
C201 C200 1.264 . S
C201 C203 1.339 . S
C201 H228 0.931 . S
C202 C203 1.395 . S
C202 C204 1.320 . S
C203 C201 1.339 . S
C203 C202 1.395 . S
C203 H229 0.929 . S
C204 C202 1.320 . S
C204 C205 1.405 . S
C204 H230 0.930 . S
C205 C200 1.479 . S
C205 C204 1.405 . S
C205 H231 0.931 . S
U206 O207 2.454 . S
U206 O208 2.458 . S
U206 C209 2.984 . S
U206 C210 2.847 . S
U206 C223 2.882 . S
U206 O224 2.441 . S
U206 O225 2.420 . S
U206 O226 2.455 . S
U206 O227 2.449 . S
O207 U206 2.454 . S
O207 C209 1.353 . S
O208 U206 2.458 . S
O208 C209 1.286 . S
C209 U206 2.984 . S
C209 O207 1.353 . S
C209 O208 1.286 . S
C209 C211 1.363 . S
C210 C200 1.465 . S
C210 U206 2.847 . S
C210 O224 1.249 . S
C210 O225 1.202 . S
C211 C209 1.363 . S
C211 C213 1.408 . S
C211 C216 1.342 . S
C212 C213 1.310 . S
C212 C215 1.461 . S
C212 H232 0.932 . S
C213 C211 1.408 . S
C213 C212 1.310 . S
C213 H233 0.930 . S
C214 C215 1.474 . S
C214 C216 1.285 . S
C214 H234 0.929 . S
C215 C212 1.461 . S
C215 C214 1.474 . S
C216 C211 1.342 . S
C216 C214 1.285 . S
C216 H235 0.930 . S
C217 C220 1.424 . S
C217 C222 1.245 . S
C217 C223 1.428 . S
C218 C221 1.260 . S
C218 C222 1.477 . S
C218 H236 0.932 . S
C219 C220 1.384 . S
C219 C221 1.479 . S
C219 H237 0.929 . S
C220 C217 1.424 . S
C220 C219 1.384 . S
C220 H238 0.928 . S
C221 C218 1.260 . S
C221 C219 1.479 . S
C222 C217 1.245 . S
C222 C218 1.477 . S
C222 H239 0.932 . S
C223 U206 2.882 . S
C223 C217 1.428 . S
C223 O226 1.301 . S
C223 O227 1.282 . S
O224 U206 2.441 . S
O224 C210 1.249 . S
O225 U206 2.420 . S
O225 C210 1.202 . S
O226 U206 2.455 . S
O226 C223 1.301 . S
O227 U206 2.449 . S
O227 C223 1.282 . S
H228 C201 0.931 . S
H229 C203 0.929 . S
H230 C204 0.930 . S
H231 C205 0.931 . S
H232 C212 0.932 . S
H233 C213 0.930 . S
H234 C214 0.929 . S
H235 C216 0.930 . S
H236 C218 0.932 . S
H237 C219 0.929 . S
H238 C220 0.928 . S
H239 C222 0.932 . S
C240 C241 1.264 . S
C240 C245 1.479 . S
C240 C250 1.465 . S
C241 C240 1.264 . S
C241 C243 1.339 . S
C241 H268 0.931 . S
C242 C243 1.395 . S
C242 C244 1.320 . S
C243 C241 1.339 . S
C243 C242 1.395 . S
C243 H269 0.929 . S
C244 C242 1.320 . S
C244 C245 1.405 . S
C244 H270 0.930 . S
C245 C240 1.479 . S
C245 C244 1.405 . S
C245 H271 0.931 . S
U246 O247 2.454 1_554 S
U246 O248 2.458 . S
U246 C249 2.984 1_554 S
U246 C250 2.847 1_554 S
U246 C263 2.882 . S
U246 O264 2.441 1_554 S
U246 O265 2.420 1_554 S
U246 O266 2.455 . S
U246 O267 2.449 . S
O247 U246 2.454 1_556 S
O247 C249 1.353 . S
O248 U246 2.458 . S
O248 C249 1.286 1_554 S
C249 U246 2.984 1_556 S
C249 O247 1.353 . S
C249 O248 1.286 1_556 S
C249 C251 1.363 . S
C250 C240 1.465 . S
C250 U246 2.847 1_556 S
C250 O264 1.249 . S
C250 O265 1.202 . S
C251 C249 1.363 . S
C251 C253 1.408 . S
C251 C256 1.342 . S
C252 C253 1.310 . S
C252 C255 1.461 . S
C252 H272 0.932 . S
C253 C251 1.408 . S
C253 C252 1.310 . S
C253 H273 0.930 . S
C254 C255 1.474 . S
C254 C256 1.285 . S
C254 H274 0.929 . S
C255 C252 1.461 . S
C255 C254 1.474 . S
C256 C251 1.342 . S
C256 C254 1.285 . S
C256 H275 0.930 1_556 S
C257 C260 1.424 . S
C257 C262 1.245 . S
C257 C263 1.428 . S
C258 C261 1.260 . S
C258 C262 1.477 . S
C258 H276 0.932 . S
C259 C260 1.384 . S
C259 C261 1.479 . S
C259 H277 0.929 . S
C260 C257 1.424 . S
C260 C259 1.384 . S
C260 H278 0.928 . S
C261 C258 1.260 . S
C261 C259 1.479 . S
C262 C257 1.245 . S
C262 C258 1.477 . S
C262 H279 0.932 . S
C263 U246 2.882 . S
C263 C257 1.428 . S
C263 O266 1.301 . S
C263 O267 1.282 . S
O264 U246 2.441 1_556 S
O264 C250 1.249 . S
O265 U246 2.420 1_556 S
O265 C250 1.202 . S
O266 U246 2.455 . S
O266 C263 1.301 . S
O267 U246 2.449 . S
O267 C263 1.282 . S
H268 C241 0.931 . S
H269 C243 0.929 . S
H270 C244 0.930 . S
H271 C245 0.931 . S
H272 C252 0.932 . S
H273 C253 0.930 . S
H274 C254 0.929 . S
H275 C256 0.930 1_554 S
H276 C258 0.932 . S
H277 C259 0.929 . S
H278 C260 0.928 . S
H279 C262 0.932 . S
C280 C281 1.264 . S
C280 C285 1.479 . S
C280 C290 1.465 . S
C281 C280 1.264 . S
C281 C283 1.339 . S
C281 H308 0.931 . S
C282 C283 1.395 . S
C282 C284 1.320 . S
C283 C281 1.339 . S
C283 C282 1.395 . S
C283 H309 0.929 . S
C284 C282 1.320 . S
C284 C285 1.405 . S
C284 H310 0.930 . S
C285 C280 1.479 . S
C285 C284 1.405 . S
C285 H311 0.931 . S
U286 O287 2.454 . S
U286 O288 2.458 . S
U286 C289 2.984 . S
U286 C290 2.847 . S
U286 C303 2.882 . S
U286 O304 2.441 . S
U286 O305 2.420 . S
U286 O306 2.455 . S
U286 O307 2.449 . S
O287 U286 2.454 . S
O287 C289 1.353 . S
O288 U286 2.458 . S
O288 C289 1.286 . S
C289 U286 2.984 . S
C289 O287 1.353 . S
C289 O288 1.286 . S
C289 C291 1.363 . S
C290 C280 1.465 . S
C290 U286 2.847 . S
C290 O304 1.249 . S
C290 O305 1.202 . S
C291 C289 1.363 . S
C291 C293 1.408 . S
C291 C296 1.342 . S
C292 C293 1.310 . S
C292 C295 1.461 . S
C292 H312 0.932 . S
C293 C291 1.408 . S
C293 C292 1.310 . S
C293 H313 0.930 . S
C294 C295 1.474 . S
C294 C296 1.285 . S
C294 H314 0.929 . S
C295 C292 1.461 . S
C295 C294 1.474 . S
C296 C291 1.342 . S
C296 C294 1.285 . S
C296 H315 0.930 . S
C297 C300 1.424 . S
C297 C302 1.245 . S
C297 C303 1.428 . S
C298 C301 1.260 . S
C298 C302 1.477 . S
C298 H316 0.932 . S
C299 C300 1.384 . S
C299 C301 1.479 . S
C299 H317 0.929 . S
C300 C297 1.424 . S
C300 C299 1.384 . S
C300 H318 0.928 . S
C301 C298 1.260 . S
C301 C299 1.479 . S
C302 C297 1.245 . S
C302 C298 1.477 . S
C302 H319 0.932 . S
C303 U286 2.882 . S
C303 C297 1.428 . S
C303 O306 1.301 . S
C303 O307 1.282 . S
O304 U286 2.441 . S
O304 C290 1.249 . S
O305 U286 2.420 . S
O305 C290 1.202 . S
O306 U286 2.455 . S
O306 C303 1.301 . S
O307 U286 2.449 . S
O307 C303 1.282 . S
H308 C281 0.931 . S
H309 C283 0.929 . S
H310 C284 0.930 . S
H311 C285 0.931 . S
H312 C292 0.932 . S
H313 C293 0.930 . S
H314 C294 0.929 . S
H315 C296 0.930 . S
H316 C298 0.932 . S
H317 C299 0.929 . S
H318 C300 0.928 . S
H319 C302 0.932 . S
Fe320 O322 1.918 . S
Fe320 O325 1.997 1_455 S
Fe320 O326 2.002 1_455 S
Fe320 O331 1.976 . S
Fe320 O334 1.996 . S
Fe321 O322 1.918 . S
Fe321 O329 1.997 1_455 S
Fe321 O332 1.996 . S
Fe321 O336 1.976 . S
Fe321 O339 2.002 1_455 S
O322 Fe320 1.918 . S
O322 Fe321 1.918 . S
O322 Fe323 1.918 . S
Fe323 O322 1.918 . S
Fe323 O324 2.002 1_455 S
Fe323 O333 1.976 . S
Fe323 O337 1.996 . S
Fe323 O340 1.997 1_455 S
O324 Fe323 2.002 1_655 S
O324 C341 1.295 . S
O325 Fe320 1.997 1_655 S
O325 C341 1.235 . S
O326 Fe320 2.002 1_655 S
O326 C327 1.295 . S
C327 O326 1.295 . S
C327 O329 1.235 . S
C328 O333 1.287 . S
C328 O334 1.255 . S
O329 Fe321 1.997 1_655 S
O329 C327 1.235 . S
C330 O336 1.287 . S
C330 O337 1.255 . S
O331 Fe320 1.976 . S
O331 C338 1.287 . S
O332 Fe321 1.996 . S
O332 C338 1.255 . S
O333 Fe323 1.976 . S
O333 C328 1.287 . S
O334 Fe320 1.996 . S
O334 C328 1.255 . S
C335 O339 1.295 . S
C335 O340 1.235 . S
O336 Fe321 1.976 . S
O336 C330 1.287 . S
O337 Fe323 1.996 . S
O337 C330 1.255 . S
C338 O331 1.287 . S
C338 O332 1.255 . S
O339 Fe321 2.002 1_655 S
O339 C335 1.295 . S
O340 Fe323 1.997 1_655 S
O340 C335 1.235 . S
C341 O324 1.295 . S
C341 O325 1.235 . S
Fe342 O344 1.919 . S
Fe342 O347 1.979 1_655 S
Fe342 O348 1.985 1_655 S
Fe342 O353 1.993 . S
Fe342 O356 2.013 . S
Fe343 O344 1.919 . S
Fe343 O351 1.980 1_655 S
Fe343 O354 2.013 . S
Fe343 O358 1.993 . S
Fe343 O361 1.985 1_655 S
O344 Fe342 1.919 . S
O344 Fe343 1.919 . S
O344 Fe345 1.919 . S
Fe345 O344 1.919 . S
Fe345 O346 1.985 1_655 S
Fe345 O355 1.993 . S
Fe345 O359 2.012 . S
Fe345 O362 1.980 1_655 S
O346 Fe345 1.985 1_455 S
O346 C363 1.295 . S
O347 Fe342 1.979 1_455 S
O347 C363 1.235 . S
O348 Fe342 1.985 1_455 S
O348 C349 1.295 . S
C349 O348 1.295 . S
C349 O351 1.235 . S
C350 O355 1.287 . S
C350 O356 1.255 . S
O351 Fe343 1.980 1_455 S
O351 C349 1.235 . S
C352 O358 1.287 . S
C352 O359 1.255 . S
O353 Fe342 1.993 . S
O353 C360 1.287 . S
O354 Fe343 2.013 . S
O354 C360 1.255 . S
O355 Fe345 1.993 . S
O355 C350 1.287 . S
O356 Fe342 2.013 . S
O356 C350 1.255 . S
C357 O361 1.295 . S
C357 O362 1.235 . S
O358 Fe343 1.993 . S
O358 C352 1.287 . S
O359 Fe345 2.012 . S
O359 C352 1.255 . S
C360 O353 1.287 . S
C360 O354 1.255 . S
O361 Fe343 1.985 1_455 S
O361 C357 1.295 . S
O362 Fe345 1.980 1_455 S
O362 C357 1.235 . S
C363 O346 1.295 . S
C363 O347 1.235 . S
Fe364 O366 1.918 . S
Fe364 O369 1.997 . S
Fe364 O370 2.002 . S
Fe364 O375 1.976 . S
Fe364 O378 1.996 . S
Fe365 O366 1.918 . S
Fe365 O373 1.997 . S
Fe365 O376 1.996 . S
Fe365 O380 1.976 . S
Fe365 O383 2.002 . S
O366 Fe364 1.918 . S
O366 Fe365 1.918 . S
O366 Fe367 1.918 . S
Fe367 O366 1.918 . S
Fe367 O368 2.002 . S
Fe367 O377 1.976 . S
Fe367 O381 1.996 . S
Fe367 O384 1.997 . S
O368 Fe367 2.002 . S
O368 C385 1.295 . S
O369 Fe364 1.997 . S
O369 C385 1.235 . S
O370 Fe364 2.002 . S
O370 C371 1.295 . S
C371 O370 1.295 . S
C371 O373 1.235 . S
C372 O377 1.287 . S
C372 O378 1.255 . S
O373 Fe365 1.997 . S
O373 C371 1.235 . S
C374 O380 1.287 . S
C374 O381 1.255 . S
O375 Fe364 1.976 . S
O375 C382 1.287 . S
O376 Fe365 1.996 . S
O376 C382 1.255 . S
O377 Fe367 1.976 . S
O377 C372 1.287 . S
O378 Fe364 1.996 . S
O378 C372 1.255 . S
C379 O383 1.295 . S
C379 O384 1.235 . S
O380 Fe365 1.976 . S
O380 C374 1.287 . S
O381 Fe367 1.996 . S
O381 C374 1.255 . S
C382 O375 1.287 . S
C382 O376 1.255 . S
O383 Fe365 2.002 . S
O383 C379 1.295 . S
O384 Fe367 1.997 . S
O384 C379 1.235 . S
C385 O368 1.295 . S
C385 O369 1.235 . S
Fe386 O388 1.918 . S
Fe386 O391 1.997 . S
Fe386 O392 2.002 . S
Fe386 O397 1.976 . S
Fe386 O400 1.996 . S
Fe387 O388 1.918 . S
Fe387 O395 1.997 . S
Fe387 O398 1.996 . S
Fe387 O402 1.976 . S
Fe387 O405 2.002 . S
O388 Fe386 1.918 . S
O388 Fe387 1.918 . S
O388 Fe389 1.918 . S
Fe389 O388 1.918 . S
Fe389 O390 2.002 . S
Fe389 O399 1.976 . S
Fe389 O403 1.996 . S
Fe389 O406 1.997 . S
O390 Fe389 2.002 . S
O390 C407 1.295 . S
O391 Fe386 1.997 . S
O391 C407 1.235 . S
O392 Fe386 2.002 . S
O392 C393 1.295 . S
C393 O392 1.295 . S
C393 O395 1.235 . S
C394 O399 1.287 . S
C394 O400 1.255 . S
O395 Fe387 1.997 . S
O395 C393 1.235 . S
C396 O402 1.287 . S
C396 O403 1.255 . S
O397 Fe386 1.976 . S
O397 C404 1.287 . S
O398 Fe387 1.996 . S
O398 C404 1.255 . S
O399 Fe389 1.976 . S
O399 C394 1.287 . S
O400 Fe386 1.996 . S
O400 C394 1.255 . S
C401 O405 1.295 . S
C401 O406 1.235 . S
O402 Fe387 1.976 . S
O402 C396 1.287 . S
O403 Fe389 1.996 . S
O403 C396 1.255 . S
C404 O397 1.287 . S
C404 O398 1.255 . S
O405 Fe387 2.002 . S
O405 C401 1.295 . S
O406 Fe389 1.997 . S
O406 C401 1.235 . S
C407 O390 1.295 . S
C407 O391 1.235 . S
H408 C426 0.951 . S
H409 C428 0.951 . S
H410 C430 0.950 . S
H411 C431 0.950 . S
H412 C433 0.950 . S
H413 C436 0.950 . S
H414 C437 0.950 . S
H415 C439 0.950 . S
H416 C440 0.950 . S
H417 C441 0.951 . S
H418 C443 0.951 . S
H419 C445 0.950 . S
H420 C446 0.950 . S
H421 C448 0.950 . S
H422 C451 0.950 . S
H423 C452 0.950 . S
H424 C454 0.950 . S
H425 C455 0.950 . S
C426 H408 0.951 . S
C426 C427 1.366 . S
C426 C428 1.388 . S
C427 C426 1.366 . S
C427 C431 1.385 . S
C428 H409 0.951 . S
C428 C426 1.388 . S
C428 C429 1.366 . S
C429 C428 1.366 . S
C429 C430 1.414 . S
C429 C432 1.499 . S
C430 H410 0.950 . S
C430 C429 1.414 . S
C430 C431 1.374 . S
C431 H411 0.950 . S
C431 C427 1.385 . S
C431 C430 1.374 . S
C432 C429 1.499 . S
C432 C433 1.373 . S
C432 C434 1.389 . S
C433 H412 0.950 . S
C433 C432 1.373 . S
C433 C449 1.377 . S
C434 C432 1.389 . S
C434 C435 1.524 . S
C434 C448 1.377 . S
C435 C434 1.524 . S
C435 C436 1.397 . S
C435 C440 1.363 . S
C436 H413 0.950 . S
C436 C435 1.397 . S
C436 C437 1.334 . S
C437 H414 0.950 . S
C437 C436 1.334 . S
C437 C438 1.287 . S
C438 C437 1.287 . S
C438 C439 1.524 . S
C438 H457 0.913 . S
C439 H415 0.950 . S
C439 C438 1.524 . S
C439 C440 1.415 . S
C440 H416 0.950 . S
C440 C435 1.363 . S
C440 C439 1.415 . S
C441 H417 0.951 . S
C441 C442 1.366 . S
C441 C443 1.388 . S
C442 C441 1.366 . S
C442 C446 1.385 . S
C443 H418 0.951 . S
C443 C441 1.388 . S
C443 C444 1.366 . S
C444 C443 1.366 . S
C444 C445 1.414 . S
C444 C447 1.499 . S
C445 H419 0.950 . S
C445 C444 1.414 . S
C445 C446 1.374 . S
C446 H420 0.950 . S
C446 C442 1.385 . S
C446 C445 1.374 . S
C447 C444 1.499 . S
C447 C448 1.373 . S
C447 C449 1.389 . S
C448 H421 0.950 . S
C448 C434 1.377 . S
C448 C447 1.373 . S
C449 C433 1.377 . S
C449 C447 1.389 . S
C449 C450 1.524 . S
C450 C449 1.524 . S
C450 C451 1.397 . S
C450 C455 1.363 . S
C451 H422 0.950 . S
C451 C450 1.397 . S
C451 C452 1.334 . S
C452 H423 0.950 . S
C452 C451 1.334 . S
C452 C453 1.287 . S
C453 C452 1.287 . S
C453 C454 1.524 . S
C453 H456 0.999 . S
C454 H424 0.950 . S
C454 C453 1.524 . S
C454 C455 1.415 . S
C455 H425 0.950 . S
C455 C450 1.363 . S
C455 C454 1.415 . S
H456 C453 0.999 . S
H457 C438 0.913 . S
H458 C476 0.951 . S
H459 C478 0.951 . S
H460 C480 0.950 . S
H461 C481 0.950 . S
H462 C483 0.950 . S
H463 C486 0.950 . S
H464 C487 0.950 . S
H465 C489 0.950 . S
H466 C490 0.950 . S
H467 C491 0.951 . S
H468 C493 0.951 . S
H469 C495 0.950 . S
H470 C496 0.950 . S
H471 C498 0.950 . S
H472 C501 0.950 . S
H473 C502 0.950 . S
H474 C504 0.950 . S
H475 C505 0.950 . S
C476 H458 0.951 . S
C476 C477 1.366 . S
C476 C478 1.388 . S
C477 C476 1.366 . S
C477 C481 1.385 . S
C478 H459 0.951 . S
C478 C476 1.388 . S
C478 C479 1.366 . S
C479 C478 1.366 . S
C479 C480 1.414 . S
C479 C482 1.499 . S
C480 H460 0.950 . S
C480 C479 1.414 . S
C480 C481 1.374 . S
C481 H461 0.950 . S
C481 C477 1.385 . S
C481 C480 1.374 . S
C482 C479 1.499 . S
C482 C483 1.373 . S
C482 C484 1.389 . S
C483 H462 0.950 . S
C483 C482 1.373 . S
C483 C499 1.377 . S
C484 C482 1.389 . S
C484 C485 1.524 . S
C484 C498 1.377 . S
C485 C484 1.524 . S
C485 C486 1.397 . S
C485 C490 1.363 . S
C486 H463 0.950 . S
C486 C485 1.397 . S
C486 C487 1.334 . S
C487 H464 0.950 . S
C487 C486 1.334 . S
C487 C488 1.287 . S
C488 C487 1.287 . S
C488 C489 1.524 . S
C488 H507 0.913 . S
C489 H465 0.950 . S
C489 C488 1.524 . S
C489 C490 1.415 . S
C490 H466 0.950 . S
C490 C485 1.363 . S
C490 C489 1.415 . S
C491 H467 0.951 . S
C491 C492 1.366 . S
C491 C493 1.388 . S
C492 C491 1.366 . S
C492 C496 1.385 . S
C493 H468 0.951 . S
C493 C491 1.388 . S
C493 C494 1.366 . S
C494 C493 1.366 . S
C494 C495 1.414 . S
C494 C497 1.499 . S
C495 H469 0.950 . S
C495 C494 1.414 . S
C495 C496 1.374 . S
C496 H470 0.950 . S
C496 C492 1.385 . S
C496 C495 1.374 . S
C497 C494 1.499 . S
C497 C498 1.373 . S
C497 C499 1.389 . S
C498 H471 0.950 . S
C498 C484 1.377 . S
C498 C497 1.373 . S
C499 C483 1.377 . S
C499 C497 1.389 . S
C499 C500 1.524 . S
C500 C499 1.524 . S
C500 C501 1.397 . S
C500 C505 1.363 . S
C501 H472 0.950 . S
C501 C500 1.397 . S
C501 C502 1.334 . S
C502 H473 0.950 . S
C502 C501 1.334 . S
C502 C503 1.287 . S
C503 C502 1.287 . S
C503 C504 1.524 . S
C503 H506 0.999 . S
C504 H474 0.950 . S
C504 C503 1.524 . S
C504 C505 1.415 . S
C505 H475 0.950 . S
C505 C500 1.363 . S
C505 C504 1.415 . S
H506 C503 0.999 . S
H507 C488 0.913 . S
H508 C526 0.951 . S
H509 C528 0.951 . S
H510 C530 0.950 . S
H511 C531 0.950 . S
H512 C533 0.950 . S
H513 C536 0.950 . S
H514 C537 0.950 . S
H515 C539 0.950 . S
H516 C540 0.950 . S
H517 C541 0.951 . S
H518 C543 0.951 . S
H519 C545 0.950 . S
H520 C546 0.950 . S
H521 C548 0.950 . S
H522 C551 0.950 . S
H523 C552 0.950 . S
H524 C554 0.950 . S
H525 C555 0.950 . S
C526 H508 0.951 . S
C526 C527 1.366 . S
C526 C528 1.388 . S
C527 C526 1.366 . S
C527 C531 1.385 . S
C528 H509 0.951 . S
C528 C526 1.388 . S
C528 C529 1.366 . S
C529 C528 1.366 . S
C529 C530 1.414 . S
C529 C532 1.499 . S
C530 H510 0.950 . S
C530 C529 1.414 . S
C530 C531 1.374 . S
C531 H511 0.950 . S
C531 C527 1.385 . S
C531 C530 1.374 . S
C532 C529 1.499 . S
C532 C533 1.373 . S
C532 C534 1.389 . S
C533 H512 0.950 . S
C533 C532 1.373 . S
C533 C549 1.377 . S
C534 C532 1.389 . S
C534 C535 1.524 . S
C534 C548 1.377 . S
C535 C534 1.524 . S
C535 C536 1.397 . S
C535 C540 1.363 . S
C536 H513 0.950 . S
C536 C535 1.397 . S
C536 C537 1.334 . S
C537 H514 0.950 . S
C537 C536 1.334 . S
C537 C538 1.287 . S
C538 C537 1.287 . S
C538 C539 1.524 . S
C538 H557 0.913 . S
C539 H515 0.950 . S
C539 C538 1.524 . S
C539 C540 1.415 . S
C540 H516 0.950 . S
C540 C535 1.363 . S
C540 C539 1.415 . S
C541 H517 0.951 . S
C541 C542 1.366 . S
C541 C543 1.388 . S
C542 C541 1.366 . S
C542 C546 1.385 . S
C543 H518 0.951 . S
C543 C541 1.388 . S
C543 C544 1.366 . S
C544 C543 1.366 . S
C544 C545 1.414 . S
C544 C547 1.499 . S
C545 H519 0.950 . S
C545 C544 1.414 . S
C545 C546 1.374 . S
C546 H520 0.950 . S
C546 C542 1.385 . S
C546 C545 1.374 . S
C547 C544 1.499 . S
C547 C548 1.373 . S
C547 C549 1.389 . S
C548 H521 0.950 . S
C548 C534 1.377 . S
C548 C547 1.373 . S
C549 C533 1.377 . S
C549 C547 1.389 . S
C549 C550 1.524 . S
C550 C549 1.524 . S
C550 C551 1.397 . S
C550 C555 1.363 . S
C551 H522 0.950 . S
C551 C550 1.397 . S
C551 C552 1.334 . S
C552 H523 0.950 . S
C552 C551 1.334 . S
C552 C553 1.287 . S
C553 C552 1.287 . S
C553 C554 1.524 . S
C553 H556 0.999 . S
C554 H524 0.950 . S
C554 C553 1.524 . S
C554 C555 1.415 . S
C555 H525 0.950 . S
C555 C550 1.363 . S
C555 C554 1.415 . S
H556 C553 0.999 . S
H557 C538 0.913 . S
H558 C576 0.951 . S
H559 C578 0.951 . S
H560 C580 0.950 . S
H561 C581 0.950 . S
H562 C583 0.950 . S
H563 C586 0.950 . S
H564 C587 0.950 . S
H565 C589 0.950 . S
H566 C590 0.950 . S
H567 C591 0.951 . S
H568 C593 0.951 . S
H569 C595 0.950 . S
H570 C596 0.950 . S
H571 C598 0.950 . S
H572 C601 0.950 . S
H573 C602 0.950 . S
H574 C604 0.950 . S
H575 C605 0.950 . S
C576 H558 0.951 . S
C576 C577 1.366 . S
C576 C578 1.388 . S
C577 C576 1.366 . S
C577 C581 1.385 . S
C578 H559 0.951 . S
C578 C576 1.388 . S
C578 C579 1.366 . S
C579 C578 1.366 . S
C579 C580 1.414 . S
C579 C582 1.499 . S
C580 H560 0.950 . S
C580 C579 1.414 . S
C580 C581 1.374 . S
C581 H561 0.950 . S
C581 C577 1.385 . S
C581 C580 1.374 . S
C582 C579 1.499 . S
C582 C583 1.373 . S
C582 C584 1.389 . S
C583 H562 0.950 . S
C583 C582 1.373 . S
C583 C599 1.377 . S
C584 C582 1.389 . S
C584 C585 1.524 . S
C584 C598 1.377 . S
C585 C584 1.524 . S
C585 C586 1.397 . S
C585 C590 1.363 . S
C586 H563 0.950 . S
C586 C585 1.397 . S
C586 C587 1.334 . S
C587 H564 0.950 . S
C587 C586 1.334 . S
C587 C588 1.287 . S
C588 C587 1.287 . S
C588 C589 1.524 . S
C588 H607 0.913 . S
C589 H565 0.950 . S
C589 C588 1.524 . S
C589 C590 1.415 . S
C590 H566 0.950 . S
C590 C585 1.363 . S
C590 C589 1.415 . S
C591 H567 0.951 . S
C591 C592 1.366 . S
C591 C593 1.388 . S
C592 C591 1.366 . S
C592 C596 1.385 . S
C593 H568 0.951 . S
C593 C591 1.388 . S
C593 C594 1.366 . S
C594 C593 1.366 . S
C594 C595 1.414 . S
C594 C597 1.499 . S
C595 H569 0.950 . S
C595 C594 1.414 . S
C595 C596 1.374 . S
C596 H570 0.950 . S
C596 C592 1.385 . S
C596 C595 1.374 . S
C597 C594 1.499 . S
C597 C598 1.373 . S
C597 C599 1.389 . S
C598 H571 0.950 . S
C598 C584 1.377 . S
C598 C597 1.373 . S
C599 C583 1.377 . S
C599 C597 1.389 . S
C599 C600 1.524 . S
C600 C599 1.524 . S
C600 C601 1.397 . S
C600 C605 1.363 . S
C601 H572 0.950 . S
C601 C600 1.397 . S
C601 C602 1.334 . S
C602 H573 0.950 . S
C602 C601 1.334 . S
C602 C603 1.287 . S
C603 C602 1.287 . S
C603 C604 1.524 . S
C603 H606 0.999 . S
C604 H574 0.950 . S
C604 C603 1.524 . S
C604 C605 1.415 . S
C605 H575 0.950 . S
C605 C600 1.363 . S
C605 C604 1.415 . S
H606 C603 0.999 . S
H607 C588 0.913 . S
H608 C626 0.951 . S
H609 C628 0.951 . S
H610 C630 0.950 . S
H611 C631 0.950 . S
H612 C633 0.950 . S
H613 C636 0.950 . S
H614 C637 0.950 . S
H615 C639 0.950 . S
H616 C640 0.950 . S
H617 C641 0.951 . S
H618 C643 0.951 . S
H619 C645 0.950 . S
H620 C646 0.950 . S
H621 C648 0.950 . S
H622 C651 0.950 . S
H623 C652 0.950 . S
H624 C654 0.950 . S
H625 C655 0.950 . S
C626 H608 0.951 . S
C626 C627 1.366 . S
C626 C628 1.388 . S
C627 C626 1.366 . S
C627 C631 1.385 . S
C628 H609 0.951 . S
C628 C626 1.388 . S
C628 C629 1.366 . S
C629 C628 1.366 . S
C629 C630 1.414 . S
C629 C632 1.499 . S
C630 H610 0.950 . S
C630 C629 1.414 . S
C630 C631 1.374 . S
C631 H611 0.950 . S
C631 C627 1.385 . S
C631 C630 1.374 . S
C632 C629 1.499 . S
C632 C633 1.373 . S
C632 C634 1.389 . S
C633 H612 0.950 . S
C633 C632 1.373 . S
C633 C649 1.377 . S
C634 C632 1.389 . S
C634 C635 1.524 . S
C634 C648 1.377 . S
C635 C634 1.524 . S
C635 C636 1.397 . S
C635 C640 1.363 . S
C636 H613 0.950 . S
C636 C635 1.397 . S
C636 C637 1.334 . S
C637 H614 0.950 . S
C637 C636 1.334 . S
C637 C638 1.287 . S
C638 C637 1.287 . S
C638 C639 1.524 . S
C638 H657 0.913 . S
C639 H615 0.950 . S
C639 C638 1.524 . S
C639 C640 1.415 . S
C640 H616 0.950 . S
C640 C635 1.363 . S
C640 C639 1.415 . S
C641 H617 0.951 . S
C641 C642 1.366 . S
C641 C643 1.388 . S
C642 C641 1.366 . S
C642 C646 1.385 . S
C643 H618 0.951 . S
C643 C641 1.388 . S
C643 C644 1.366 . S
C644 C643 1.366 . S
C644 C645 1.414 . S
C644 C647 1.499 . S
C645 H619 0.950 . S
C645 C644 1.414 . S
C645 C646 1.374 . S
C646 H620 0.950 . S
C646 C642 1.385 . S
C646 C645 1.374 . S
C647 C644 1.499 . S
C647 C648 1.373 . S
C647 C649 1.389 . S
C648 H621 0.950 . S
C648 C634 1.377 . S
C648 C647 1.373 . S
C649 C633 1.377 . S
C649 C647 1.389 . S
C649 C650 1.524 . S
C650 C649 1.524 . S
C650 C651 1.397 . S
C650 C655 1.363 . S
C651 H622 0.950 . S
C651 C650 1.397 . S
C651 C652 1.334 . S
C652 H623 0.950 . S
C652 C651 1.334 . S
C652 C653 1.287 . S
C653 C652 1.287 . S
C653 C654 1.524 . S
C653 H656 0.999 . S
C654 H624 0.950 . S
C654 C653 1.524 . S
C654 C655 1.415 . S
C655 H625 0.950 . S
C655 C650 1.363 . S
C655 C654 1.415 . S
H656 C653 0.999 . S
H657 C638 0.913 . S
H658 C676 0.951 . S
H659 C678 0.951 . S
H660 C680 0.950 . S
H661 C681 0.950 . S
H662 C683 0.950 . S
H663 C686 0.950 . S
H664 C687 0.950 . S
H665 C689 0.950 . S
H666 C690 0.950 . S
H667 C691 0.951 . S
H668 C693 0.951 . S
H669 C695 0.950 . S
H670 C696 0.950 . S
H671 C698 0.950 . S
H672 C701 0.950 . S
H673 C702 0.950 . S
H674 C704 0.950 . S
H675 C705 0.950 . S
C676 H658 0.951 . S
C676 C677 1.366 . S
C676 C678 1.388 . S
C677 C676 1.366 . S
C677 C681 1.385 . S
C678 H659 0.951 . S
C678 C676 1.388 . S
C678 C679 1.366 . S
C679 C678 1.366 . S
C679 C680 1.414 . S
C679 C682 1.499 . S
C680 H660 0.950 . S
C680 C679 1.414 . S
C680 C681 1.374 . S
C681 H661 0.950 . S
C681 C677 1.385 . S
C681 C680 1.374 . S
C682 C679 1.499 . S
C682 C683 1.373 . S
C682 C684 1.389 . S
C683 H662 0.950 . S
C683 C682 1.373 . S
C683 C699 1.377 . S
C684 C682 1.389 . S
C684 C685 1.524 . S
C684 C698 1.377 . S
C685 C684 1.524 . S
C685 C686 1.397 . S
C685 C690 1.363 . S
C686 H663 0.950 . S
C686 C685 1.397 . S
C686 C687 1.334 . S
C687 H664 0.950 . S
C687 C686 1.334 . S
C687 C688 1.287 . S
C688 C687 1.287 . S
C688 C689 1.524 . S
C688 H707 0.913 . S
C689 H665 0.950 . S
C689 C688 1.524 . S
C689 C690 1.415 . S
C690 H666 0.950 . S
C690 C685 1.363 . S
C690 C689 1.415 . S
C691 H667 0.951 . S
C691 C692 1.366 . S
C691 C693 1.388 . S
C692 C691 1.366 . S
C692 C696 1.385 . S
C693 H668 0.951 . S
C693 C691 1.388 . S
C693 C694 1.366 . S
C694 C693 1.366 . S
C694 C695 1.414 . S
C694 C697 1.499 . S
C695 H669 0.950 . S
C695 C694 1.414 . S
C695 C696 1.374 . S
C696 H670 0.950 . S
C696 C692 1.385 . S
C696 C695 1.374 . S
C697 C694 1.499 . S
C697 C698 1.373 . S
C697 C699 1.389 . S
C698 H671 0.950 . S
C698 C684 1.377 . S
C698 C697 1.373 . S
C699 C683 1.377 . S
C699 C697 1.389 . S
C699 C700 1.524 . S
C700 C699 1.524 . S
C700 C701 1.397 . S
C700 C705 1.363 . S
C701 H672 0.950 . S
C701 C700 1.397 . S
C701 C702 1.334 . S
C702 H673 0.950 . S
C702 C701 1.334 . S
C702 C703 1.287 . S
C703 C702 1.287 . S
C703 C704 1.524 . S
C703 H706 0.999 . S
C704 H674 0.950 . S
C704 C703 1.524 . S
C704 C705 1.415 . S
C705 H675 0.950 . S
C705 C700 1.363 . S
C705 C704 1.415 . S
H706 C703 0.999 . S
H707 C688 0.913 . S
H708 C726 0.951 . S
H709 C728 0.951 . S
H710 C730 0.950 . S
H711 C731 0.950 . S
H712 C733 0.950 . S
H713 C736 0.950 . S
H714 C737 0.950 . S
H715 C739 0.950 . S
H716 C740 0.950 . S
H717 C741 0.951 . S
H718 C743 0.951 . S
H719 C745 0.950 . S
H720 C746 0.950 . S
H721 C748 0.950 . S
H722 C751 0.950 . S
H723 C752 0.950 . S
H724 C754 0.950 . S
H725 C755 0.950 . S
C726 H708 0.951 . S
C726 C727 1.366 . S
C726 C728 1.388 . S
C727 C726 1.366 . S
C727 C731 1.385 . S
C728 H709 0.951 . S
C728 C726 1.388 . S
C728 C729 1.366 . S
C729 C728 1.366 . S
C729 C730 1.414 . S
C729 C732 1.499 . S
C730 H710 0.950 . S
C730 C729 1.414 . S
C730 C731 1.374 . S
C731 H711 0.950 . S
C731 C727 1.385 . S
C731 C730 1.374 . S
C732 C729 1.499 . S
C732 C733 1.373 . S
C732 C734 1.389 . S
C733 H712 0.950 . S
C733 C732 1.373 . S
C733 C749 1.377 . S
C734 C732 1.389 . S
C734 C735 1.524 . S
C734 C748 1.377 . S
C735 C734 1.524 . S
C735 C736 1.397 . S
C735 C740 1.363 . S
C736 H713 0.950 . S
C736 C735 1.397 . S
C736 C737 1.334 . S
C737 H714 0.950 . S
C737 C736 1.334 . S
C737 C738 1.287 . S
C738 C737 1.287 . S
C738 C739 1.524 . S
C738 H757 0.913 1_556 S
C739 H715 0.950 . S
C739 C738 1.524 . S
C739 C740 1.415 . S
C740 H716 0.950 . S
C740 C735 1.363 . S
C740 C739 1.415 . S
C741 H717 0.951 . S
C741 C742 1.366 . S
C741 C743 1.388 . S
C742 C741 1.366 . S
C742 C746 1.385 . S
C743 H718 0.951 . S
C743 C741 1.388 . S
C743 C744 1.366 . S
C744 C743 1.366 . S
C744 C745 1.414 . S
C744 C747 1.499 . S
C745 H719 0.950 . S
C745 C744 1.414 . S
C745 C746 1.374 . S
C746 H720 0.950 . S
C746 C742 1.385 . S
C746 C745 1.374 . S
C747 C744 1.499 . S
C747 C748 1.373 . S
C747 C749 1.389 . S
C748 H721 0.950 . S
C748 C734 1.377 . S
C748 C747 1.373 . S
C749 C733 1.377 . S
C749 C747 1.389 . S
C749 C750 1.524 . S
C750 C749 1.524 . S
C750 C751 1.397 . S
C750 C755 1.363 . S
C751 H722 0.950 . S
C751 C750 1.397 . S
C751 C752 1.334 . S
C752 H723 0.950 . S
C752 C751 1.334 . S
C752 C753 1.287 . S
C753 C752 1.287 . S
C753 C754 1.524 . S
C753 H756 0.999 . S
C754 H724 0.950 . S
C754 C753 1.524 . S
C754 C755 1.415 . S
C755 H725 0.950 . S
C755 C750 1.363 . S
C755 C754 1.415 . S
H756 C753 0.999 . S
H757 C738 0.913 1_554 S
H758 C776 0.951 . S
H759 C778 0.951 . S
H760 C780 0.950 . S
H761 C781 0.950 . S
H762 C783 0.950 . S
H763 C786 0.950 . S
H764 C787 0.950 . S
H765 C789 0.950 . S
H766 C790 0.950 . S
H767 C791 0.951 . S
H768 C793 0.951 . S
H769 C795 0.950 . S
H770 C796 0.950 . S
H771 C798 0.950 . S
H772 C801 0.950 . S
H773 C802 0.950 . S
H774 C804 0.950 . S
H775 C805 0.950 . S
C776 H758 0.951 . S
C776 C777 1.366 . S
C776 C778 1.388 . S
C777 C776 1.366 . S
C777 C781 1.385 . S
C778 H759 0.951 . S
C778 C776 1.388 . S
C778 C779 1.366 . S
C779 C778 1.366 . S
C779 C780 1.414 . S
C779 C782 1.499 . S
C780 H760 0.950 . S
C780 C779 1.414 . S
C780 C781 1.374 . S
C781 H761 0.950 . S
C781 C777 1.385 . S
C781 C780 1.374 . S
C782 C779 1.499 . S
C782 C783 1.373 . S
C782 C784 1.389 . S
C783 H762 0.950 . S
C783 C782 1.373 . S
C783 C799 1.377 . S
C784 C782 1.389 . S
C784 C785 1.524 . S
C784 C798 1.377 . S
C785 C784 1.524 . S
C785 C786 1.397 . S
C785 C790 1.363 . S
C786 H763 0.950 . S
C786 C785 1.397 . S
C786 C787 1.334 . S
C787 H764 0.950 . S
C787 C786 1.334 . S
C787 C788 1.287 . S
C788 C787 1.287 . S
C788 C789 1.524 . S
C788 H807 0.913 . S
C789 H765 0.950 . S
C789 C788 1.524 . S
C789 C790 1.415 . S
C790 H766 0.950 . S
C790 C785 1.363 . S
C790 C789 1.415 . S
C791 H767 0.951 . S
C791 C792 1.366 . S
C791 C793 1.388 . S
C792 C791 1.366 . S
C792 C796 1.385 . S
C793 H768 0.951 . S
C793 C791 1.388 . S
C793 C794 1.366 . S
C794 C793 1.366 . S
C794 C795 1.414 . S
C794 C797 1.499 . S
C795 H769 0.950 . S
C795 C794 1.414 . S
C795 C796 1.374 . S
C796 H770 0.950 . S
C796 C792 1.385 . S
C796 C795 1.374 . S
C797 C794 1.499 . S
C797 C798 1.373 . S
C797 C799 1.389 . S
C798 H771 0.950 . S
C798 C784 1.377 . S
C798 C797 1.373 . S
C799 C783 1.377 . S
C799 C797 1.389 . S
C799 C800 1.524 . S
C800 C799 1.524 . S
C800 C801 1.397 . S
C800 C805 1.363 . S
C801 H772 0.950 . S
C801 C800 1.397 . S
C801 C802 1.334 . S
C802 H773 0.950 . S
C802 C801 1.334 . S
C802 C803 1.287 . S
C803 C802 1.287 . S
C803 C804 1.524 . S
C803 H806 0.999 . S
C804 H774 0.950 . S
C804 C803 1.524 . S
C804 C805 1.415 . S
C805 H775 0.950 . S
C805 C800 1.363 . S
C805 C804 1.415 . S
H806 C803 0.999 . S
H807 C788 0.913 . S
H808 C826 0.951 . S
H809 C828 0.951 . S
H810 C830 0.950 . S
H811 C831 0.950 . S
H812 C833 0.950 . S
H813 C836 0.950 . S
H814 C837 0.950 . S
H815 C839 0.950 . S
H816 C840 0.950 . S
H817 C841 0.951 . S
H818 C843 0.951 . S
H819 C845 0.950 . S
H820 C846 0.950 . S
H821 C848 0.950 . S
H822 C851 0.950 . S
H823 C852 0.950 . S
H824 C854 0.950 . S
H825 C855 0.950 . S
C826 H808 0.951 . S
C826 C827 1.366 . S
C826 C828 1.388 . S
C827 C826 1.366 . S
C827 C831 1.385 . S
C828 H809 0.951 . S
C828 C826 1.388 . S
C828 C829 1.366 . S
C829 C828 1.366 . S
C829 C830 1.414 . S
C829 C832 1.499 . S
C830 H810 0.950 . S
C830 C829 1.414 . S
C830 C831 1.374 . S
C831 H811 0.950 . S
C831 C827 1.385 . S
C831 C830 1.374 . S
C832 C829 1.499 . S
C832 C833 1.373 . S
C832 C834 1.389 . S
C833 H812 0.950 . S
C833 C832 1.373 . S
C833 C849 1.377 . S
C834 C832 1.389 . S
C834 C835 1.524 . S
C834 C848 1.377 . S
C835 C834 1.524 . S
C835 C836 1.397 . S
C835 C840 1.363 . S
C836 H813 0.950 . S
C836 C835 1.397 . S
C836 C837 1.334 . S
C837 H814 0.950 . S
C837 C836 1.334 . S
C837 C838 1.287 . S
C838 C837 1.287 . S
C838 C839 1.524 . S
C838 H857 0.913 1_556 S
C839 H815 0.950 . S
C839 C838 1.524 . S
C839 C840 1.415 . S
C840 H816 0.950 . S
C840 C835 1.363 . S
C840 C839 1.415 . S
C841 H817 0.951 . S
C841 C842 1.366 . S
C841 C843 1.388 . S
C842 C841 1.366 . S
C842 C846 1.385 . S
C843 H818 0.951 . S
C843 C841 1.388 . S
C843 C844 1.366 . S
C844 C843 1.366 . S
C844 C845 1.414 . S
C844 C847 1.499 . S
C845 H819 0.950 . S
C845 C844 1.414 . S
C845 C846 1.374 . S
C846 H820 0.950 . S
C846 C842 1.385 . S
C846 C845 1.374 . S
C847 C844 1.499 . S
C847 C848 1.373 . S
C847 C849 1.389 . S
C848 H821 0.950 . S
C848 C834 1.377 . S
C848 C847 1.373 . S
C849 C833 1.377 . S
C849 C847 1.389 . S
C849 C850 1.524 . S
C850 C849 1.524 . S
C850 C851 1.397 . S
C850 C855 1.363 . S
C851 H822 0.950 . S
C851 C850 1.397 . S
C851 C852 1.334 . S
C852 H823 0.950 . S
C852 C851 1.334 . S
C852 C853 1.287 . S
C853 C852 1.287 . S
C853 C854 1.524 . S
C853 H856 0.999 . S
C854 H824 0.950 . S
C854 C853 1.524 . S
C854 C855 1.415 . S
C855 H825 0.950 . S
C855 C850 1.363 . S
C855 C854 1.415 . S
H856 C853 0.999 . S
H857 C838 0.913 1_554 S
H858 C876 0.951 . S
H859 C878 0.951 . S
H860 C880 0.950 . S
H861 C881 0.950 . S
H862 C883 0.950 . S
H863 C886 0.950 . S
H864 C887 0.950 . S
H865 C889 0.950 . S
H866 C890 0.950 . S
H867 C891 0.951 . S
H868 C893 0.951 . S
H869 C895 0.950 . S
H870 C896 0.950 . S
H871 C898 0.950 . S
H872 C901 0.950 . S
H873 C902 0.950 . S
H874 C904 0.950 . S
H875 C905 0.950 . S
C876 H858 0.951 . S
C876 C877 1.366 . S
C876 C878 1.388 . S
C877 C876 1.366 . S
C877 C881 1.385 . S
C878 H859 0.951 . S
C878 C876 1.388 . S
C878 C879 1.366 . S
C879 C878 1.366 . S
C879 C880 1.414 . S
C879 C882 1.499 . S
C880 H860 0.950 . S
C880 C879 1.414 . S
C880 C881 1.374 . S
C881 H861 0.950 . S
C881 C877 1.385 . S
C881 C880 1.374 . S
C882 C879 1.499 . S
C882 C883 1.373 . S
C882 C884 1.389 . S
C883 H862 0.950 . S
C883 C882 1.373 . S
C883 C899 1.377 . S
C884 C882 1.389 . S
C884 C885 1.524 . S
C884 C898 1.377 . S
C885 C884 1.524 . S
C885 C886 1.397 . S
C885 C890 1.363 . S
C886 H863 0.950 . S
C886 C885 1.397 . S
C886 C887 1.334 . S
C887 H864 0.950 . S
C887 C886 1.334 . S
C887 C888 1.287 . S
C888 C887 1.287 . S
C888 C889 1.524 . S
C888 H907 0.913 . S
C889 H865 0.950 . S
C889 C888 1.524 . S
C889 C890 1.415 . S
C890 H866 0.950 . S
C890 C885 1.363 . S
C890 C889 1.415 . S
C891 H867 0.951 . S
C891 C892 1.366 . S
C891 C893 1.388 . S
C892 C891 1.366 . S
C892 C896 1.385 . S
C893 H868 0.951 . S
C893 C891 1.388 . S
C893 C894 1.366 . S
C894 C893 1.366 . S
C894 C895 1.414 . S
C894 C897 1.499 . S
C895 H869 0.950 . S
C895 C894 1.414 . S
C895 C896 1.374 . S
C896 H870 0.950 . S
C896 C892 1.385 . S
C896 C895 1.374 . S
C897 C894 1.499 . S
C897 C898 1.373 . S
C897 C899 1.389 . S
C898 H871 0.950 . S
C898 C884 1.377 . S
C898 C897 1.373 . S
C899 C883 1.377 . S
C899 C897 1.389 . S
C899 C900 1.524 . S
C900 C899 1.524 . S
C900 C901 1.397 . S
C900 C905 1.363 . S
C901 H872 0.950 . S
C901 C900 1.397 . S
C901 C902 1.334 . S
C902 H873 0.950 . S
C902 C901 1.334 . S
C902 C903 1.287 . S
C903 C902 1.287 . S
C903 C904 1.524 . S
C903 H906 0.999 . S
C904 H874 0.950 . S
C904 C903 1.524 . S
C904 C905 1.415 . S
C905 H875 0.950 . S
C905 C900 1.363 . S
C905 C904 1.415 . S
H906 C903 0.999 . S
H907 C888 0.913 . S
H908 C926 0.951 . S
H909 C928 0.951 . S
H910 C930 0.950 . S
H911 C931 0.950 . S
H912 C933 0.950 . S
H913 C936 0.950 . S
H914 C937 0.950 . S
H915 C939 0.950 . S
H916 C940 0.950 . S
H917 C941 0.951 . S
H918 C943 0.951 . S
H919 C945 0.950 . S
H920 C946 0.950 . S
H921 C948 0.950 . S
H922 C951 0.950 . S
H923 C952 0.950 . S
H924 C954 0.950 . S
H925 C955 0.950 . S
C926 H908 0.951 . S
C926 C927 1.366 . S
C926 C928 1.388 . S
C927 C926 1.366 . S
C927 C931 1.385 . S
C928 H909 0.951 . S
C928 C926 1.388 . S
C928 C929 1.366 . S
C929 C928 1.366 . S
C929 C930 1.414 . S
C929 C932 1.499 . S
C930 H910 0.950 . S
C930 C929 1.414 . S
C930 C931 1.374 . S
C931 H911 0.950 . S
C931 C927 1.385 . S
C931 C930 1.374 . S
C932 C929 1.499 . S
C932 C933 1.373 . S
C932 C934 1.389 . S
C933 H912 0.950 . S
C933 C932 1.373 . S
C933 C949 1.377 . S
C934 C932 1.389 . S
C934 C935 1.524 . S
C934 C948 1.377 . S
C935 C934 1.524 . S
C935 C936 1.397 . S
C935 C940 1.363 . S
C936 H913 0.950 . S
C936 C935 1.397 . S
C936 C937 1.334 . S
C937 H914 0.950 . S
C937 C936 1.334 . S
C937 C938 1.287 . S
C938 C937 1.287 . S
C938 C939 1.524 . S
C938 H957 0.913 . S
C939 H915 0.950 . S
C939 C938 1.524 . S
C939 C940 1.415 . S
C940 H916 0.950 . S
C940 C935 1.363 . S
C940 C939 1.415 . S
C941 H917 0.951 . S
C941 C942 1.366 . S
C941 C943 1.388 . S
C942 C941 1.366 . S
C942 C946 1.385 . S
C943 H918 0.951 . S
C943 C941 1.388 . S
C943 C944 1.366 . S
C944 C943 1.366 . S
C944 C945 1.414 . S
C944 C947 1.499 . S
C945 H919 0.950 . S
C945 C944 1.414 . S
C945 C946 1.374 . S
C946 H920 0.950 . S
C946 C942 1.385 . S
C946 C945 1.374 . S
C947 C944 1.499 . S
C947 C948 1.373 . S
C947 C949 1.389 . S
C948 H921 0.950 . S
C948 C934 1.377 . S
C948 C947 1.373 . S
C949 C933 1.377 . S
C949 C947 1.389 . S
C949 C950 1.524 . S
C950 C949 1.524 . S
C950 C951 1.397 . S
C950 C955 1.363 . S
C951 H922 0.950 . S
C951 C950 1.397 . S
C951 C952 1.334 . S
C952 H923 0.950 . S
C952 C951 1.334 . S
C952 C953 1.287 . S
C953 C952 1.287 . S
C953 C954 1.524 . S
C953 H956 0.999 . S
C954 H924 0.950 . S
C954 C953 1.524 . S
C954 C955 1.415 . S
C955 H925 0.950 . S
C955 C950 1.363 . S
C955 C954 1.415 . S
H956 C953 0.999 . S
H957 C938 0.913 . S
H958 C976 0.951 . S
H959 C978 0.951 . S
H960 C980 0.950 . S
H961 C981 0.950 . S
H962 C983 0.950 . S
H963 C986 0.950 . S
H964 C987 0.950 . S
H965 C989 0.950 . S
H966 C990 0.950 . S
H967 C991 0.951 . S
H968 C993 0.951 . S
H969 C995 0.950 . S
H970 C996 0.950 . S
H971 C998 0.950 . S
H972 C1001 0.950 . S
H973 C1002 0.950 . S
H974 C1004 0.950 . S
H975 C1005 0.950 . S
C976 H958 0.951 . S
C976 C977 1.366 . S
C976 C978 1.388 . S
C977 C976 1.366 . S
C977 C981 1.385 . S
C978 H959 0.951 . S
C978 C976 1.388 . S
C978 C979 1.366 . S
C979 C978 1.366 . S
C979 C980 1.414 . S
C979 C982 1.499 . S
C980 H960 0.950 . S
C980 C979 1.414 . S
C980 C981 1.374 . S
C981 H961 0.950 . S
C981 C977 1.385 . S
C981 C980 1.374 . S
C982 C979 1.499 . S
C982 C983 1.373 . S
C982 C984 1.389 . S
C983 H962 0.950 . S
C983 C982 1.373 . S
C983 C999 1.377 . S
C984 C982 1.389 . S
C984 C985 1.524 . S
C984 C998 1.377 . S
C985 C984 1.524 . S
C985 C986 1.397 . S
C985 C990 1.363 . S
C986 H963 0.950 . S
C986 C985 1.397 . S
C986 C987 1.334 . S
C987 H964 0.950 . S
C987 C986 1.334 . S
C987 C988 1.287 . S
C988 C987 1.287 . S
C988 C989 1.524 . S
C988 H1007 0.913 . S
C989 H965 0.950 . S
C989 C988 1.524 . S
C989 C990 1.415 . S
C990 H966 0.950 . S
C990 C985 1.363 . S
C990 C989 1.415 . S
C991 H967 0.951 . S
C991 C992 1.366 . S
C991 C993 1.388 . S
C992 C991 1.366 . S
C992 C996 1.385 . S
C993 H968 0.951 . S
C993 C991 1.388 . S
C993 C994 1.366 . S
C994 C993 1.366 . S
C994 C995 1.414 . S
C994 C997 1.499 . S
C995 H969 0.950 . S
C995 C994 1.414 . S
C995 C996 1.374 . S
C996 H970 0.950 . S
C996 C992 1.385 . S
C996 C995 1.374 . S
C997 C994 1.499 . S
C997 C998 1.373 . S
C997 C999 1.389 . S
C998 H971 0.950 . S
C998 C984 1.377 . S
C998 C997 1.373 . S
C999 C983 1.377 . S
C999 C997 1.389 . S
C999 C1000 1.524 . S
C1000 C999 1.524 . S
C1000 C1001 1.397 . S
C1000 C1005 1.363 . S
C1001 H972 0.950 . S
C1001 C1000 1.397 . S
C1001 C1002 1.334 . S
C1002 H973 0.950 . S
C1002 C1001 1.334 . S
C1002 C1003 1.287 . S
C1003 C1002 1.287 . S
C1003 C1004 1.524 . S
C1003 H1006 0.999 . S
C1004 H974 0.950 . S
C1004 C1003 1.524 . S
C1004 C1005 1.415 . S
C1005 H975 0.950 . S
C1005 C1000 1.363 . S
C1005 C1004 1.415 . S
H1006 C1003 0.999 . S
H1007 C988 0.913 . S
H1008 C1026 0.951 . S
H1009 C1028 0.951 1_565 S
H1010 C1030 0.950 . S
H1011 C1031 0.950 . S
H1012 C1033 0.950 . S
H1013 C1036 0.950 . S
H1014 C1037 0.957 . S
H1015 C1039 0.950 . S
H1016 C1040 0.950 . S
H1017 C1041 0.951 . S
H1018 C1043 0.951 . S
H1019 C1045 0.950 . S
H1020 C1046 0.950 . S
H1021 C1048 0.950 . S
H1022 C1051 0.950 . S
H1023 C1052 0.950 . S
H1024 C1054 0.950 . S
H1025 C1055 0.950 . S
C1026 H1008 0.951 . S
C1026 C1027 1.366 . S
C1026 C1028 1.388 1_565 S
C1027 C1026 1.366 . S
C1027 C1031 1.385 1_565 S
C1028 H1009 0.951 1_545 S
C1028 C1026 1.388 1_545 S
C1028 C1029 1.366 . S
C1029 C1028 1.366 . S
C1029 C1030 1.414 . S
C1029 C1032 1.499 . S
C1030 H1010 0.950 . S
C1030 C1029 1.414 . S
C1030 C1031 1.374 . S
C1031 H1011 0.950 . S
C1031 C1027 1.385 1_545 S
C1031 C1030 1.374 . S
C1032 C1029 1.499 . S
C1032 C1033 1.373 . S
C1032 C1034 1.389 . S
C1033 H1012 0.950 . S
C1033 C1032 1.373 . S
C1033 C1049 1.377 . S
C1034 C1032 1.389 . S
C1034 C1035 1.524 . S
C1034 C1048 1.377 . S
C1035 C1034 1.524 . S
C1035 C1036 1.397 . S
C1035 C1040 1.363 . S
C1036 H1013 0.950 . S
C1036 C1035 1.397 . S
C1036 C1037 1.305 1_545 S
C1037 H1014 0.957 . S
C1037 C1036 1.305 1_565 S
C1037 C1038 1.309 . S
C1038 C1037 1.309 . S
C1038 C1039 1.524 . S
C1038 H1057 0.913 . S
C1039 H1015 0.950 . S
C1039 C1038 1.524 . S
C1039 C1040 1.415 1_565 S
C1040 H1016 0.950 . S
C1040 C1035 1.363 . S
C1040 C1039 1.415 1_545 S
C1041 H1017 0.951 . S
C1041 C1042 1.366 . S
C1041 C1043 1.388 . S
C1042 C1041 1.366 . S
C1042 C1046 1.385 . S
C1043 H1018 0.951 . S
C1043 C1041 1.388 . S
C1043 C1044 1.366 . S
C1044 C1043 1.366 . S
C1044 C1045 1.414 . S
C1044 C1047 1.499 . S
C1045 H1019 0.950 . S
C1045 C1044 1.414 . S
C1045 C1046 1.374 . S
C1046 H1020 0.950 . S
C1046 C1042 1.385 . S
C1046 C1045 1.374 . S
C1047 C1044 1.499 . S
C1047 C1048 1.373 . S
C1047 C1049 1.389 . S
C1048 H1021 0.950 . S
C1048 C1034 1.377 . S
C1048 C1047 1.373 . S
C1049 C1033 1.377 . S
C1049 C1047 1.389 . S
C1049 C1050 1.524 . S
C1050 C1049 1.524 . S
C1050 C1051 1.397 . S
C1050 C1055 1.363 . S
C1051 H1022 0.950 . S
C1051 C1050 1.397 . S
C1051 C1052 1.334 . S
C1052 H1023 0.950 . S
C1052 C1051 1.334 . S
C1052 C1053 1.287 . S
C1053 C1052 1.287 . S
C1053 C1054 1.524 . S
C1053 H1056 0.999 . S
C1054 H1024 0.950 . S
C1054 C1053 1.524 . S
C1054 C1055 1.415 . S
C1055 H1025 0.950 . S
C1055 C1050 1.363 . S
C1055 C1054 1.415 . S
H1056 C1053 0.999 . S
H1057 C1038 0.913 . S
H1058 C1076 0.951 . S
H1059 C1078 0.951 . S
H1060 C1080 0.950 . S
H1061 C1081 0.950 . S
H1062 C1083 0.950 . S
H1063 C1086 0.950 . S
H1064 C1087 0.950 . S
H1065 C1089 0.950 . S
H1066 C1090 0.950 . S
H1067 C1091 0.951 . S
H1068 C1093 0.951 . S
H1069 C1095 0.950 . S
H1070 C1096 0.950 . S
H1071 C1098 0.950 . S
H1072 C1101 0.950 . S
H1073 C1102 0.950 . S
H1074 C1104 0.950 . S
H1075 C1105 0.950 . S
C1076 H1058 0.951 . S
C1076 C1077 1.366 . S
C1076 C1078 1.388 1_545 S
C1077 C1076 1.366 . S
C1077 C1081 1.385 1_545 S
C1078 H1059 0.951 . S
C1078 C1076 1.388 1_565 S
C1078 C1079 1.366 . S
C1079 C1078 1.366 . S
C1079 C1080 1.414 . S
C1079 C1082 1.499 . S
C1080 H1060 0.950 . S
C1080 C1079 1.414 . S
C1080 C1081 1.374 . S
C1081 H1061 0.950 . S
C1081 C1077 1.385 1_565 S
C1081 C1080 1.374 . S
C1082 C1079 1.499 . S
C1082 C1083 1.373 . S
C1082 C1084 1.389 . S
C1083 H1062 0.950 . S
C1083 C1082 1.373 . S
C1083 C1099 1.377 . S
C1084 C1082 1.389 . S
C1084 C1085 1.524 . S
C1084 C1098 1.377 . S
C1085 C1084 1.524 . S
C1085 C1086 1.397 . S
C1085 C1090 1.363 . S
C1086 H1063 0.950 . S
C1086 C1085 1.397 . S
C1086 C1087 1.334 . S
C1087 H1064 0.950 . S
C1087 C1086 1.334 . S
C1087 C1088 1.287 . S
C1088 C1087 1.287 . S
C1088 C1089 1.524 . S
C1088 H1107 0.913 . S
C1089 H1065 0.950 . S
C1089 C1088 1.524 . S
C1089 C1090 1.415 . S
C1090 H1066 0.950 . S
C1090 C1085 1.363 . S
C1090 C1089 1.415 . S
C1091 H1067 0.951 . S
C1091 C1092 1.366 . S
C1091 C1093 1.388 . S
C1092 C1091 1.366 . S
C1092 C1096 1.385 . S
C1093 H1068 0.951 . S
C1093 C1091 1.388 . S
C1093 C1094 1.366 . S
C1094 C1093 1.366 . S
C1094 C1095 1.414 . S
C1094 C1097 1.499 . S
C1095 H1069 0.950 . S
C1095 C1094 1.414 . S
C1095 C1096 1.374 . S
C1096 H1070 0.950 . S
C1096 C1092 1.385 . S
C1096 C1095 1.374 . S
C1097 C1094 1.499 . S
C1097 C1098 1.373 . S
C1097 C1099 1.389 . S
C1098 H1071 0.950 . S
C1098 C1084 1.377 . S
C1098 C1097 1.373 . S
C1099 C1083 1.377 . S
C1099 C1097 1.389 . S
C1099 C1100 1.524 . S
C1100 C1099 1.524 . S
C1100 C1101 1.397 . S
C1100 C1105 1.363 . S
C1101 H1072 0.950 . S
C1101 C1100 1.397 . S
C1101 C1102 1.334 . S
C1102 H1073 0.950 . S
C1102 C1101 1.334 . S
C1102 C1103 1.287 . S
C1103 C1102 1.287 . S
C1103 C1104 1.524 . S
C1103 H1106 0.999 . S
C1104 H1074 0.950 . S
C1104 C1103 1.524 . S
C1104 C1105 1.415 . S
C1105 H1075 0.950 . S
C1105 C1100 1.363 . S
C1105 C1104 1.415 . S
H1106 C1103 0.999 . S
H1107 C1088 0.913 . S
H1108 C1126 0.951 . S
H1109 C1128 0.951 . S
H1110 C1130 0.950 . S
H1111 C1131 0.950 . S
H1112 C1133 0.950 . S
H1113 C1136 0.950 . S
H1114 C1137 0.950 . S
H1115 C1139 0.950 . S
H1116 C1140 0.950 . S
H1117 C1141 0.951 . S
H1118 C1143 0.951 . S
H1119 C1145 0.950 . S
H1120 C1146 0.950 . S
H1121 C1148 0.950 . S
H1122 C1151 0.950 . S
H1123 C1152 0.950 . S
H1124 C1154 0.950 . S
H1125 C1155 0.950 . S
C1126 H1108 0.951 . S
C1126 C1127 1.370 . S
C1126 C1128 1.388 1_565 S
C1127 C1126 1.370 . S
C1127 C1131 1.363 1_565 S
C1128 H1109 0.951 . S
C1128 C1126 1.388 1_545 S
C1128 C1129 1.366 . S
C1129 C1128 1.366 . S
C1129 C1130 1.414 . S
C1129 C1132 1.499 . S
C1130 H1110 0.950 . S
C1130 C1129 1.414 . S
C1130 C1131 1.374 . S
C1131 H1111 0.950 . S
C1131 C1127 1.363 1_545 S
C1131 C1130 1.374 . S
C1132 C1129 1.499 . S
C1132 C1133 1.373 . S
C1132 C1134 1.389 . S
C1133 H1112 0.950 . S
C1133 C1132 1.373 . S
C1133 C1149 1.377 . S
C1134 C1132 1.389 . S
C1134 C1135 1.524 . S
C1134 C1148 1.377 . S
C1135 C1134 1.524 . S
C1135 C1136 1.397 . S
C1135 C1140 1.363 . S
C1136 H1113 0.950 . S
C1136 C1135 1.397 . S
C1136 C1137 1.334 1_545 S
C1137 H1114 0.950 . S
C1137 C1136 1.334 1_565 S
C1137 C1138 1.287 . S
C1138 C1137 1.287 . S
C1138 C1139 1.524 . S
C1138 H1157 0.913 . S
C1139 H1115 0.950 . S
C1139 C1138 1.524 . S
C1139 C1140 1.415 1_565 S
C1140 H1116 0.950 . S
C1140 C1135 1.363 . S
C1140 C1139 1.415 1_545 S
C1141 H1117 0.951 . S
C1141 C1142 1.366 . S
C1141 C1143 1.388 . S
C1142 C1141 1.366 . S
C1142 C1146 1.385 . S
C1143 H1118 0.951 . S
C1143 C1141 1.388 . S
C1143 C1144 1.366 . S
C1144 C1143 1.366 . S
C1144 C1145 1.414 . S
C1144 C1147 1.499 . S
C1145 H1119 0.950 . S
C1145 C1144 1.414 . S
C1145 C1146 1.374 . S
C1146 H1120 0.950 . S
C1146 C1142 1.385 . S
C1146 C1145 1.374 . S
C1147 C1144 1.499 . S
C1147 C1148 1.373 . S
C1147 C1149 1.389 . S
C1148 H1121 0.950 . S
C1148 C1134 1.377 . S
C1148 C1147 1.373 . S
C1149 C1133 1.377 . S
C1149 C1147 1.389 . S
C1149 C1150 1.524 . S
C1150 C1149 1.524 . S
C1150 C1151 1.397 . S
C1150 C1155 1.363 . S
C1151 H1122 0.950 . S
C1151 C1150 1.397 . S
C1151 C1152 1.334 . S
C1152 H1123 0.950 . S
C1152 C1151 1.334 . S
C1152 C1153 1.287 . S
C1153 C1152 1.287 . S
C1153 C1154 1.524 . S
C1153 H1156 0.999 . S
C1154 H1124 0.950 . S
C1154 C1153 1.524 . S
C1154 C1155 1.415 . S
C1155 H1125 0.950 . S
C1155 C1150 1.363 . S
C1155 C1154 1.415 . S
H1156 C1153 0.999 . S
H1157 C1138 0.913 . S
H1158 C1176 0.951 . S
H1159 C1178 0.951 . S
H1160 C1180 0.950 . S
H1161 C1181 0.950 . S
H1162 C1183 0.950 . S
H1163 C1186 0.950 . S
H1164 C1187 0.950 . S
H1165 C1189 0.950 . S
H1166 C1190 0.950 . S
H1167 C1191 0.951 . S
H1168 C1193 0.951 . S
H1169 C1195 0.950 . S
H1170 C1196 0.950 . S
H1171 C1198 0.950 . S
H1172 C1201 0.950 . S
H1173 C1202 0.950 . S
H1174 C1204 0.950 . S
H1175 C1205 0.950 . S
C1176 H1158 0.951 . S
C1176 C1177 1.366 . S
C1176 C1178 1.388 1_545 S
C1177 C1176 1.366 . S
C1177 C1181 1.385 1_545 S
C1178 H1159 0.951 . S
C1178 C1176 1.388 1_565 S
C1178 C1179 1.366 . S
C1179 C1178 1.366 . S
C1179 C1180 1.414 . S
C1179 C1182 1.499 . S
C1180 H1160 0.950 . S
C1180 C1179 1.414 . S
C1180 C1181 1.374 . S
C1181 H1161 0.950 . S
C1181 C1177 1.385 1_565 S
C1181 C1180 1.374 . S
C1182 C1179 1.499 . S
C1182 C1183 1.373 . S
C1182 C1184 1.389 . S
C1183 H1162 0.950 . S
C1183 C1182 1.373 . S
C1183 C1199 1.377 . S
C1184 C1182 1.389 . S
C1184 C1185 1.524 . S
C1184 C1198 1.377 . S
C1185 C1184 1.524 . S
C1185 C1186 1.397 . S
C1185 C1190 1.363 . S
C1186 H1163 0.950 . S
C1186 C1185 1.397 . S
C1186 C1187 1.334 1_565 S
C1187 H1164 0.950 . S
C1187 C1186 1.334 1_545 S
C1187 C1188 1.287 . S
C1188 C1187 1.287 . S
C1188 C1189 1.524 . S
C1188 H1207 0.913 . S
C1189 H1165 0.950 . S
C1189 C1188 1.524 . S
C1189 C1190 1.415 1_545 S
C1190 H1166 0.950 . S
C1190 C1185 1.363 . S
C1190 C1189 1.415 1_565 S
C1191 H1167 0.951 . S
C1191 C1192 1.366 . S
C1191 C1193 1.388 . S
C1192 C1191 1.366 . S
C1192 C1196 1.385 . S
C1193 H1168 0.951 . S
C1193 C1191 1.388 . S
C1193 C1194 1.366 . S
C1194 C1193 1.366 . S
C1194 C1195 1.414 . S
C1194 C1197 1.499 . S
C1195 H1169 0.950 . S
C1195 C1194 1.414 . S
C1195 C1196 1.374 . S
C1196 H1170 0.950 . S
C1196 C1192 1.385 . S
C1196 C1195 1.374 . S
C1197 C1194 1.499 . S
C1197 C1198 1.373 . S
C1197 C1199 1.389 . S
C1198 H1171 0.950 . S
C1198 C1184 1.377 . S
C1198 C1197 1.373 . S
C1199 C1183 1.377 . S
C1199 C1197 1.389 . S
C1199 C1200 1.524 . S
C1200 C1199 1.524 . S
C1200 C1201 1.397 . S
C1200 C1205 1.363 . S
C1201 H1172 0.950 . S
C1201 C1200 1.397 . S
C1201 C1202 1.334 . S
C1202 H1173 0.950 . S
C1202 C1201 1.334 . S
C1202 C1203 1.287 . S
C1203 C1202 1.287 . S
C1203 C1204 1.524 . S
C1203 H1206 0.999 . S
C1204 H1174 0.950 . S
C1204 C1203 1.524 . S
C1204 C1205 1.415 . S
C1205 H1175 0.950 . S
C1205 C1200 1.363 . S
C1205 C1204 1.415 . S
H1206 C1203 0.999 . S
H1207 C1188 0.913 . S
H1208 C1226 0.951 . S
H1209 C1228 0.951 . S
H1210 C1230 0.950 . S
H1211 C1231 0.950 . S
H1212 C1233 0.950 . S
H1213 C1236 0.950 . S
H1214 C1237 0.950 . S
H1215 C1239 0.950 . S
H1216 C1240 0.950 . S
H1217 C1241 0.951 . S
H1218 C1243 0.951 . S
H1219 C1245 0.950 . S
H1220 C1246 0.950 . S
H1221 C1248 0.950 . S
H1222 C1251 0.950 . S
H1223 C1252 0.950 . S
H1224 C1254 0.950 . S
H1225 C1255 0.950 . S
C1226 H1208 0.951 . S
C1226 C1227 1.366 . S
C1226 C1228 1.388 . S
C1227 C1226 1.366 . S
C1227 C1231 1.385 . S
C1228 H1209 0.951 . S
C1228 C1226 1.388 . S
C1228 C1229 1.366 . S
C1229 C1228 1.366 . S
C1229 C1230 1.414 . S
C1229 C1232 1.499 . S
C1230 H1210 0.950 . S
C1230 C1229 1.414 . S
C1230 C1231 1.374 . S
C1231 H1211 0.950 . S
C1231 C1227 1.385 . S
C1231 C1230 1.374 . S
C1232 C1229 1.499 . S
C1232 C1233 1.373 . S
C1232 C1234 1.389 . S
C1233 H1212 0.950 . S
C1233 C1232 1.373 . S
C1233 C1249 1.377 . S
C1234 C1232 1.389 . S
C1234 C1235 1.524 . S
C1234 C1248 1.377 . S
C1235 C1234 1.524 . S
C1235 C1236 1.397 . S
C1235 C1240 1.363 . S
C1236 H1213 0.950 . S
C1236 C1235 1.397 . S
C1236 C1237 1.334 . S
C1237 H1214 0.950 . S
C1237 C1236 1.334 . S
C1237 C1238 1.287 . S
C1238 C1237 1.287 . S
C1238 C1239 1.524 . S
C1238 H1257 0.913 . S
C1239 H1215 0.950 . S
C1239 C1238 1.524 . S
C1239 C1240 1.415 . S
C1240 H1216 0.950 . S
C1240 C1235 1.363 . S
C1240 C1239 1.415 . S
C1241 H1217 0.951 . S
C1241 C1242 1.366 . S
C1241 C1243 1.388 . S
C1242 C1241 1.366 . S
C1242 C1246 1.385 . S
C1243 H1218 0.951 . S
C1243 C1241 1.388 . S
C1243 C1244 1.366 . S
C1244 C1243 1.366 . S
C1244 C1245 1.414 . S
C1244 C1247 1.499 . S
C1245 H1219 0.950 . S
C1245 C1244 1.414 . S
C1245 C1246 1.374 . S
C1246 H1220 0.950 . S
C1246 C1242 1.385 . S
C1246 C1245 1.374 . S
C1247 C1244 1.499 . S
C1247 C1248 1.373 . S
C1247 C1249 1.389 . S
C1248 H1221 0.950 . S
C1248 C1234 1.377 . S
C1248 C1247 1.373 . S
C1249 C1233 1.377 . S
C1249 C1247 1.389 . S
C1249 C1250 1.524 . S
C1250 C1249 1.524 . S
C1250 C1251 1.397 . S
C1250 C1255 1.363 . S
C1251 H1222 0.950 . S
C1251 C1250 1.397 . S
C1251 C1252 1.334 . S
C1252 H1223 0.950 . S
C1252 C1251 1.334 . S
C1252 C1253 1.287 . S
C1253 C1252 1.287 . S
C1253 C1254 1.524 . S
C1253 H1256 0.999 . S
C1254 H1224 0.950 . S
C1254 C1253 1.524 . S
C1254 C1255 1.415 . S
C1255 H1225 0.950 . S
C1255 C1250 1.363 . S
C1255 C1254 1.415 . S
H1256 C1253 0.999 . S
H1257 C1238 0.913 . S
H1258 C1276 0.951 . S
H1259 C1278 0.951 . S
H1260 C1280 0.950 . S
H1261 C1281 0.950 . S
H1262 C1283 0.950 . S
H1263 C1286 0.950 . S
H1264 C1287 0.950 . S
H1265 C1289 0.950 . S
H1266 C1290 0.950 . S
H1267 C1291 0.951 . S
H1268 C1293 0.951 . S
H1269 C1295 0.950 . S
H1270 C1296 0.950 . S
H1271 C1298 0.950 . S
H1272 C1301 0.950 . S
H1273 C1302 0.950 . S
H1274 C1304 0.950 . S
H1275 C1305 0.950 . S
C1276 H1258 0.951 . S
C1276 C1277 1.366 . S
C1276 C1278 1.388 . S
C1277 C1276 1.366 . S
C1277 C1281 1.385 . S
C1278 H1259 0.951 . S
C1278 C1276 1.388 . S
C1278 C1279 1.366 . S
C1279 C1278 1.366 . S
C1279 C1280 1.414 . S
C1279 C1282 1.499 . S
C1280 H1260 0.950 . S
C1280 C1279 1.414 . S
C1280 C1281 1.374 . S
C1281 H1261 0.950 . S
C1281 C1277 1.385 . S
C1281 C1280 1.374 . S
C1282 C1279 1.499 . S
C1282 C1283 1.373 . S
C1282 C1284 1.389 . S
C1283 H1262 0.950 . S
C1283 C1282 1.373 . S
C1283 C1299 1.377 . S
C1284 C1282 1.389 . S
C1284 C1285 1.524 . S
C1284 C1298 1.377 . S
C1285 C1284 1.524 . S
C1285 C1286 1.397 . S
C1285 C1290 1.363 . S
C1286 H1263 0.950 . S
C1286 C1285 1.397 . S
C1286 C1287 1.334 . S
C1287 H1264 0.950 . S
C1287 C1286 1.334 . S
C1287 C1288 1.287 . S
C1288 C1287 1.287 . S
C1288 C1289 1.524 . S
C1288 H1307 0.913 . S
C1289 H1265 0.950 . S
C1289 C1288 1.524 . S
C1289 C1290 1.415 . S
C1290 H1266 0.950 . S
C1290 C1285 1.363 . S
C1290 C1289 1.415 . S
C1291 H1267 0.951 . S
C1291 C1292 1.366 . S
C1291 C1293 1.388 . S
C1292 C1291 1.366 . S
C1292 C1296 1.385 . S
C1293 H1268 0.951 . S
C1293 C1291 1.388 . S
C1293 C1294 1.366 . S
C1294 C1293 1.366 . S
C1294 C1295 1.414 . S
C1294 C1297 1.499 . S
C1295 H1269 0.950 . S
C1295 C1294 1.414 . S
C1295 C1296 1.374 . S
C1296 H1270 0.950 . S
C1296 C1292 1.385 . S
C1296 C1295 1.374 . S
C1297 C1294 1.499 . S
C1297 C1298 1.373 . S
C1297 C1299 1.389 . S
C1298 H1271 0.950 . S
C1298 C1284 1.377 . S
C1298 C1297 1.373 . S
C1299 C1283 1.377 . S
C1299 C1297 1.389 . S
C1299 C1300 1.524 . S
C1300 C1299 1.524 . S
C1300 C1301 1.397 . S
C1300 C1305 1.363 . S
C1301 H1272 0.950 . S
C1301 C1300 1.397 . S
C1301 C1302 1.334 . S
C1302 H1273 0.950 . S
C1302 C1301 1.334 . S
C1302 C1303 1.287 . S
C1303 C1302 1.287 . S
C1303 C1304 1.524 . S
C1303 H1306 0.999 . S
C1304 H1274 0.950 . S
C1304 C1303 1.524 . S
C1304 C1305 1.415 . S
C1305 H1275 0.950 . S
C1305 C1300 1.363 . S
C1305 C1304 1.415 . S
H1306 C1303 0.999 . S
H1307 C1288 0.913 . S
H1308 C1326 0.951 . S
H1309 C1328 0.951 . S
H1310 C1330 0.950 . S
H1311 C1331 0.950 . S
H1312 C1333 0.950 . S
H1313 C1336 0.950 . S
H1314 C1337 0.950 . S
H1315 C1339 0.950 . S
H1316 C1340 0.950 . S
H1317 C1341 0.951 . S
H1318 C1343 0.951 . S
H1319 C1345 0.950 . S
H1320 C1346 0.950 . S
H1321 C1348 0.950 . S
H1322 C1351 0.950 . S
H1323 C1352 0.950 . S
H1324 C1354 0.950 . S
H1325 C1355 0.950 . S
C1326 H1308 0.951 . S
C1326 C1327 1.366 . S
C1326 C1328 1.388 . S
C1327 C1326 1.366 . S
C1327 C1331 1.385 . S
C1328 H1309 0.951 . S
C1328 C1326 1.388 . S
C1328 C1329 1.366 . S
C1329 C1328 1.366 . S
C1329 C1330 1.414 . S
C1329 C1332 1.499 . S
C1330 H1310 0.950 . S
C1330 C1329 1.414 . S
C1330 C1331 1.374 . S
C1331 H1311 0.950 . S
C1331 C1327 1.385 . S
C1331 C1330 1.374 . S
C1332 C1329 1.499 . S
C1332 C1333 1.373 . S
C1332 C1334 1.389 . S
C1333 H1312 0.950 . S
C1333 C1332 1.373 . S
C1333 C1349 1.377 . S
C1334 C1332 1.389 . S
C1334 C1335 1.524 . S
C1334 C1348 1.377 . S
C1335 C1334 1.524 . S
C1335 C1336 1.397 . S
C1335 C1340 1.363 . S
C1336 H1313 0.950 . S
C1336 C1335 1.397 . S
C1336 C1337 1.334 . S
C1337 H1314 0.950 . S
C1337 C1336 1.334 . S
C1337 C1338 1.287 . S
C1338 C1337 1.287 . S
C1338 C1339 1.524 . S
C1338 H1357 0.913 . S
C1339 H1315 0.950 . S
C1339 C1338 1.524 . S
C1339 C1340 1.415 . S
C1340 H1316 0.950 . S
C1340 C1335 1.363 . S
C1340 C1339 1.415 . S
C1341 H1317 0.951 . S
C1341 C1342 1.366 . S
C1341 C1343 1.388 . S
C1342 C1341 1.366 . S
C1342 C1346 1.385 . S
C1343 H1318 0.951 . S
C1343 C1341 1.388 . S
C1343 C1344 1.366 . S
C1344 C1343 1.366 . S
C1344 C1345 1.414 . S
C1344 C1347 1.499 . S
C1345 H1319 0.950 . S
C1345 C1344 1.414 . S
C1345 C1346 1.374 . S
C1346 H1320 0.950 . S
C1346 C1342 1.385 . S
C1346 C1345 1.374 . S
C1347 C1344 1.499 . S
C1347 C1348 1.373 . S
C1347 C1349 1.389 . S
C1348 H1321 0.950 . S
C1348 C1334 1.377 . S
C1348 C1347 1.373 . S
C1349 C1333 1.377 . S
C1349 C1347 1.389 . S
C1349 C1350 1.524 . S
C1350 C1349 1.524 . S
C1350 C1351 1.397 . S
C1350 C1355 1.363 . S
C1351 H1322 0.950 . S
C1351 C1350 1.397 . S
C1351 C1352 1.334 . S
C1352 H1323 0.950 . S
C1352 C1351 1.334 . S
C1352 C1353 1.287 . S
C1353 C1352 1.287 . S
C1353 C1354 1.524 . S
C1353 H1356 0.999 . S
C1354 H1324 0.950 . S
C1354 C1353 1.524 . S
C1354 C1355 1.415 . S
C1355 H1325 0.950 . S
C1355 C1350 1.363 . S
C1355 C1354 1.415 . S
H1356 C1353 0.999 . S
H1357 C1338 0.913 . S
H1358 C1376 0.951 . S
H1359 C1378 0.951 . S
H1360 C1380 0.950 . S
H1361 C1381 0.950 . S
H1362 C1383 0.950 . S
H1363 C1386 0.950 . S
H1364 C1387 0.950 . S
H1365 C1389 0.950 . S
H1366 C1390 0.950 . S
H1367 C1391 0.951 . S
H1368 C1393 0.951 . S
H1369 C1395 0.950 . S
H1370 C1396 0.950 . S
H1371 C1398 0.950 . S
H1372 C1401 0.950 . S
H1373 C1402 0.950 . S
H1374 C1404 0.950 . S
H1375 C1405 0.950 . S
C1376 H1358 0.951 . S
C1376 C1377 1.366 . S
C1376 C1378 1.388 . S
C1377 C1376 1.366 . S
C1377 C1381 1.385 . S
C1378 H1359 0.951 . S
C1378 C1376 1.388 . S
C1378 C1379 1.366 . S
C1379 C1378 1.366 . S
C1379 C1380 1.414 . S
C1379 C1382 1.499 . S
C1380 H1360 0.950 . S
C1380 C1379 1.414 . S
C1380 C1381 1.374 . S
C1381 H1361 0.950 . S
C1381 C1377 1.385 . S
C1381 C1380 1.374 . S
C1382 C1379 1.499 . S
C1382 C1383 1.373 . S
C1382 C1384 1.389 . S
C1383 H1362 0.950 . S
C1383 C1382 1.373 . S
C1383 C1399 1.377 . S
C1384 C1382 1.389 . S
C1384 C1385 1.524 . S
C1384 C1398 1.377 . S
C1385 C1384 1.524 . S
C1385 C1386 1.397 . S
C1385 C1390 1.363 . S
C1386 H1363 0.950 . S
C1386 C1385 1.397 . S
C1386 C1387 1.334 . S
C1387 H1364 0.950 . S
C1387 C1386 1.334 . S
C1387 C1388 1.287 . S
C1388 C1387 1.287 . S
C1388 C1389 1.524 . S
C1388 H1407 0.913 . S
C1389 H1365 0.950 . S
C1389 C1388 1.524 . S
C1389 C1390 1.415 . S
C1390 H1366 0.950 . S
C1390 C1385 1.363 . S
C1390 C1389 1.415 . S
C1391 H1367 0.951 . S
C1391 C1392 1.366 . S
C1391 C1393 1.388 . S
C1392 C1391 1.366 . S
C1392 C1396 1.385 . S
C1393 H1368 0.951 . S
C1393 C1391 1.388 . S
C1393 C1394 1.366 . S
C1394 C1393 1.366 . S
C1394 C1395 1.414 . S
C1394 C1397 1.499 . S
C1395 H1369 0.950 . S
C1395 C1394 1.414 . S
C1395 C1396 1.374 . S
C1396 H1370 0.950 . S
C1396 C1392 1.385 . S
C1396 C1395 1.374 . S
C1397 C1394 1.499 . S
C1397 C1398 1.373 . S
C1397 C1399 1.389 . S
C1398 H1371 0.950 . S
C1398 C1384 1.377 . S
C1398 C1397 1.373 . S
C1399 C1383 1.377 . S
C1399 C1397 1.389 . S
C1399 C1400 1.524 . S
C1400 C1399 1.524 . S
C1400 C1401 1.397 . S
C1400 C1405 1.363 . S
C1401 H1372 0.950 . S
C1401 C1400 1.397 . S
C1401 C1402 1.334 . S
C1402 H1373 0.950 . S
C1402 C1401 1.334 . S
C1402 C1403 1.287 . S
C1403 C1402 1.287 . S
C1403 C1404 1.524 . S
C1403 H1406 0.999 . S
C1404 H1374 0.950 . S
C1404 C1403 1.524 . S
C1404 C1405 1.415 . S
C1405 H1375 0.950 . S
C1405 C1400 1.363 . S
C1405 C1404 1.415 . S
H1406 C1403 0.999 . S
H1407 C1388 0.913 . S
H1408 C1426 0.951 . S
H1409 C1428 0.951 . S
H1410 C1430 0.950 . S
H1411 C1431 0.950 . S
H1412 C1433 0.950 . S
H1413 C1436 0.950 . S
H1414 C1437 0.950 . S
H1415 C1439 0.950 . S
H1416 C1440 0.950 . S
H1417 C1441 0.951 . S
H1418 C1443 0.951 . S
H1419 C1445 0.950 . S
H1420 C1446 0.950 . S
H1421 C1448 0.950 . S
H1422 C1451 0.950 . S
H1423 C1452 0.950 . S
H1424 C1454 0.950 . S
H1425 C1455 0.950 . S
C1426 H1408 0.951 . S
C1426 C1427 1.366 . S
C1426 C1428 1.388 . S
C1427 C1426 1.366 . S
C1427 C1431 1.385 . S
C1428 H1409 0.951 . S
C1428 C1426 1.388 . S
C1428 C1429 1.366 . S
C1429 C1428 1.366 . S
C1429 C1430 1.414 . S
C1429 C1432 1.499 . S
C1430 H1410 0.950 . S
C1430 C1429 1.414 . S
C1430 C1431 1.374 . S
C1431 H1411 0.950 . S
C1431 C1427 1.385 . S
C1431 C1430 1.374 . S
C1432 C1429 1.499 . S
C1432 C1433 1.373 . S
C1432 C1434 1.389 . S
C1433 H1412 0.950 . S
C1433 C1432 1.373 . S
C1433 C1449 1.377 . S
C1434 C1432 1.389 . S
C1434 C1435 1.524 . S
C1434 C1448 1.377 . S
C1435 C1434 1.524 . S
C1435 C1436 1.397 . S
C1435 C1440 1.363 . S
C1436 H1413 0.950 . S
C1436 C1435 1.397 . S
C1436 C1437 1.334 . S
C1437 H1414 0.950 . S
C1437 C1436 1.334 . S
C1437 C1438 1.287 . S
C1438 C1437 1.287 . S
C1438 C1439 1.524 . S
C1438 H1457 0.913 . S
C1439 H1415 0.950 . S
C1439 C1438 1.524 . S
C1439 C1440 1.415 . S
C1440 H1416 0.950 . S
C1440 C1435 1.363 . S
C1440 C1439 1.415 . S
C1441 H1417 0.951 . S
C1441 C1442 1.366 . S
C1441 C1443 1.388 . S
C1442 C1441 1.366 . S
C1442 C1446 1.385 . S
C1443 H1418 0.951 . S
C1443 C1441 1.388 . S
C1443 C1444 1.366 . S
C1444 C1443 1.366 . S
C1444 C1445 1.414 . S
C1444 C1447 1.499 . S
C1445 H1419 0.950 . S
C1445 C1444 1.414 . S
C1445 C1446 1.374 . S
C1446 H1420 0.950 . S
C1446 C1442 1.385 . S
C1446 C1445 1.374 . S
C1447 C1444 1.499 . S
C1447 C1448 1.373 . S
C1447 C1449 1.389 . S
C1448 H1421 0.950 . S
C1448 C1434 1.377 . S
C1448 C1447 1.373 . S
C1449 C1433 1.377 . S
C1449 C1447 1.389 . S
C1449 C1450 1.524 . S
C1450 C1449 1.524 . S
C1450 C1451 1.397 . S
C1450 C1455 1.363 . S
C1451 H1422 0.950 . S
C1451 C1450 1.397 . S
C1451 C1452 1.334 . S
C1452 H1423 0.950 . S
C1452 C1451 1.334 . S
C1452 C1453 1.287 . S
C1453 C1452 1.287 . S
C1453 C1454 1.524 . S
C1453 H1456 0.999 . S
C1454 H1424 0.950 . S
C1454 C1453 1.524 . S
C1454 C1455 1.415 . S
C1455 H1425 0.950 . S
C1455 C1450 1.363 . S
C1455 C1454 1.415 . S
H1456 C1453 0.999 . S
H1457 C1438 0.913 . S
H1458 C1476 0.951 . S
H1459 C1478 0.951 . S
H1460 C1480 0.950 . S
H1461 C1481 0.950 . S
H1462 C1483 0.950 . S
H1463 C1486 0.950 . S
H1464 C1487 0.950 . S
H1465 C1489 0.950 . S
H1466 C1490 0.950 . S
H1467 C1491 0.951 . S
H1468 C1493 0.951 . S
H1469 C1495 0.950 . S
H1470 C1496 0.950 . S
H1471 C1498 0.950 . S
H1472 C1501 0.950 . S
H1473 C1502 0.950 . S
H1474 C1504 0.950 . S
H1475 C1505 0.950 . S
C1476 H1458 0.951 . S
C1476 C1477 1.366 . S
C1476 C1478 1.388 . S
C1477 C1476 1.366 . S
C1477 C1481 1.385 . S
C1478 H1459 0.951 . S
C1478 C1476 1.388 . S
C1478 C1479 1.366 . S
C1479 C1478 1.366 . S
C1479 C1480 1.414 . S
C1479 C1482 1.499 . S
C1480 H1460 0.950 . S
C1480 C1479 1.414 . S
C1480 C1481 1.374 . S
C1481 H1461 0.950 . S
C1481 C1477 1.385 . S
C1481 C1480 1.374 . S
C1482 C1479 1.499 . S
C1482 C1483 1.373 . S
C1482 C1484 1.389 . S
C1483 H1462 0.950 . S
C1483 C1482 1.373 . S
C1483 C1499 1.377 . S
C1484 C1482 1.389 . S
C1484 C1485 1.524 . S
C1484 C1498 1.377 . S
C1485 C1484 1.524 . S
C1485 C1486 1.397 . S
C1485 C1490 1.363 . S
C1486 H1463 0.950 . S
C1486 C1485 1.397 . S
C1486 C1487 1.334 . S
C1487 H1464 0.950 . S
C1487 C1486 1.334 . S
C1487 C1488 1.287 . S
C1488 C1487 1.287 . S
C1488 C1489 1.524 . S
C1488 H1507 0.913 . S
C1489 H1465 0.950 . S
C1489 C1488 1.524 . S
C1489 C1490 1.415 . S
C1490 H1466 0.950 . S
C1490 C1485 1.363 . S
C1490 C1489 1.415 . S
C1491 H1467 0.951 . S
C1491 C1492 1.366 . S
C1491 C1493 1.388 . S
C1492 C1491 1.366 . S
C1492 C1496 1.385 . S
C1493 H1468 0.951 . S
C1493 C1491 1.388 . S
C1493 C1494 1.366 . S
C1494 C1493 1.366 . S
C1494 C1495 1.414 . S
C1494 C1497 1.499 . S
C1495 H1469 0.950 . S
C1495 C1494 1.414 . S
C1495 C1496 1.374 . S
C1496 H1470 0.950 . S
C1496 C1492 1.385 . S
C1496 C1495 1.374 . S
C1497 C1494 1.499 . S
C1497 C1498 1.373 . S
C1497 C1499 1.389 . S
C1498 H1471 0.950 . S
C1498 C1484 1.377 . S
C1498 C1497 1.373 . S
C1499 C1483 1.377 . S
C1499 C1497 1.389 . S
C1499 C1500 1.524 . S
C1500 C1499 1.524 . S
C1500 C1501 1.397 . S
C1500 C1505 1.363 . S
C1501 H1472 0.950 . S
C1501 C1500 1.397 . S
C1501 C1502 1.334 . S
C1502 H1473 0.950 . S
C1502 C1501 1.334 . S
C1502 C1503 1.287 . S
C1503 C1502 1.287 . S
C1503 C1504 1.524 . S
C1503 H1506 0.999 . S
C1504 H1474 0.950 . S
C1504 C1503 1.524 . S
C1504 C1505 1.415 . S
C1505 H1475 0.950 . S
C1505 C1500 1.363 . S
C1505 C1504 1.415 . S
H1506 C1503 0.999 . S
H1507 C1488 0.913 . S
H1508 C1526 0.951 . S
H1509 C1528 0.951 . S
H1510 C1530 0.950 . S
H1511 C1531 0.950 . S
H1512 C1533 0.950 . S
H1513 C1536 0.950 . S
H1514 C1537 0.950 . S
H1515 C1539 0.950 . S
H1516 C1540 0.950 . S
H1517 C1541 0.951 . S
H1518 C1543 0.951 . S
H1519 C1545 0.950 . S
H1520 C1546 0.950 . S
H1521 C1548 0.950 . S
H1522 C1551 0.950 . S
H1523 C1552 0.950 . S
H1524 C1554 0.950 . S
H1525 C1555 0.950 . S
C1526 H1508 0.951 . S
C1526 C1527 1.366 . S
C1526 C1528 1.388 . S
C1527 C1526 1.366 . S
C1527 C1531 1.385 . S
C1528 H1509 0.951 . S
C1528 C1526 1.388 . S
C1528 C1529 1.366 . S
C1529 C1528 1.366 . S
C1529 C1530 1.414 . S
C1529 C1532 1.499 . S
C1530 H1510 0.950 . S
C1530 C1529 1.414 . S
C1530 C1531 1.374 . S
C1531 H1511 0.950 . S
C1531 C1527 1.385 . S
C1531 C1530 1.374 . S
C1532 C1529 1.499 . S
C1532 C1533 1.373 . S
C1532 C1534 1.389 . S
C1533 H1512 0.950 . S
C1533 C1532 1.373 . S
C1533 C1549 1.377 . S
C1534 C1532 1.389 . S
C1534 C1535 1.524 . S
C1534 C1548 1.377 . S
C1535 C1534 1.524 . S
C1535 C1536 1.397 . S
C1535 C1540 1.363 . S
C1536 H1513 0.950 . S
C1536 C1535 1.397 . S
C1536 C1537 1.334 . S
C1537 H1514 0.950 . S
C1537 C1536 1.334 . S
C1537 C1538 1.287 . S
C1538 C1537 1.287 . S
C1538 C1539 1.524 . S
C1538 H1557 0.913 . S
C1539 H1515 0.950 . S
C1539 C1538 1.524 . S
C1539 C1540 1.415 . S
C1540 H1516 0.950 . S
C1540 C1535 1.363 . S
C1540 C1539 1.415 . S
C1541 H1517 0.951 . S
C1541 C1542 1.366 . S
C1541 C1543 1.388 . S
C1542 C1541 1.366 . S
C1542 C1546 1.385 . S
C1543 H1518 0.951 . S
C1543 C1541 1.388 . S
C1543 C1544 1.366 . S
C1544 C1543 1.366 . S
C1544 C1545 1.414 . S
C1544 C1547 1.499 . S
C1545 H1519 0.950 . S
C1545 C1544 1.414 . S
C1545 C1546 1.374 . S
C1546 H1520 0.950 . S
C1546 C1542 1.385 . S
C1546 C1545 1.374 . S
C1547 C1544 1.499 . S
C1547 C1548 1.373 . S
C1547 C1549 1.389 . S
C1548 H1521 0.950 . S
C1548 C1534 1.377 . S
C1548 C1547 1.373 . S
C1549 C1533 1.377 . S
C1549 C1547 1.389 . S
C1549 C1550 1.524 . S
C1550 C1549 1.524 . S
C1550 C1551 1.397 . S
C1550 C1555 1.363 . S
C1551 H1522 0.950 . S
C1551 C1550 1.397 . S
C1551 C1552 1.334 . S
C1552 H1523 0.950 . S
C1552 C1551 1.334 . S
C1552 C1553 1.287 . S
C1553 C1552 1.287 . S
C1553 C1554 1.524 . S
C1553 H1556 0.999 . S
C1554 H1524 0.950 . S
C1554 C1553 1.524 . S
C1554 C1555 1.415 . S
C1555 H1525 0.950 . S
C1555 C1550 1.363 . S
C1555 C1554 1.415 . S
H1556 C1553 0.999 . S
H1557 C1538 0.913 . S
H1558 C1576 0.951 . S
H1559 C1578 0.951 . S
H1560 C1580 0.950 . S
H1561 C1581 0.950 . S
H1562 C1583 0.950 . S
H1563 C1586 0.950 . S
H1564 C1587 0.950 . S
H1565 C1589 0.950 . S
H1566 C1590 0.950 . S
H1567 C1591 0.951 . S
H1568 C1593 0.951 . S
H1569 C1595 0.950 . S
H1570 C1596 0.950 . S
H1571 C1598 0.950 . S
H1572 C1601 0.950 . S
H1573 C1602 0.950 . S
H1574 C1604 0.950 . S
H1575 C1605 0.950 . S
C1576 H1558 0.951 . S
C1576 C1577 1.366 . S
C1576 C1578 1.388 . S
C1577 C1576 1.366 . S
C1577 C1581 1.385 . S
C1578 H1559 0.951 . S
C1578 C1576 1.388 . S
C1578 C1579 1.366 . S
C1579 C1578 1.366 . S
C1579 C1580 1.414 . S
C1579 C1582 1.499 . S
C1580 H1560 0.950 . S
C1580 C1579 1.414 . S
C1580 C1581 1.374 . S
C1581 H1561 0.950 . S
C1581 C1577 1.385 . S
C1581 C1580 1.374 . S
C1582 C1579 1.499 . S
C1582 C1583 1.373 . S
C1582 C1584 1.389 . S
C1583 H1562 0.950 . S
C1583 C1582 1.373 . S
C1583 C1599 1.377 . S
C1584 C1582 1.389 . S
C1584 C1585 1.524 . S
C1584 C1598 1.377 . S
C1585 C1584 1.524 . S
C1585 C1586 1.397 . S
C1585 C1590 1.363 . S
C1586 H1563 0.950 . S
C1586 C1585 1.397 . S
C1586 C1587 1.334 . S
C1587 H1564 0.950 . S
C1587 C1586 1.334 . S
C1587 C1588 1.287 . S
C1588 C1587 1.287 . S
C1588 C1589 1.524 . S
C1588 H1607 0.913 . S
C1589 H1565 0.950 . S
C1589 C1588 1.524 . S
C1589 C1590 1.415 . S
C1590 H1566 0.950 . S
C1590 C1585 1.363 . S
C1590 C1589 1.415 . S
C1591 H1567 0.951 . S
C1591 C1592 1.366 . S
C1591 C1593 1.388 . S
C1592 C1591 1.366 . S
C1592 C1596 1.385 . S
C1593 H1568 0.951 . S
C1593 C1591 1.388 . S
C1593 C1594 1.366 . S
C1594 C1593 1.366 . S
C1594 C1595 1.414 . S
C1594 C1597 1.499 . S
C1595 H1569 0.950 . S
C1595 C1594 1.414 . S
C1595 C1596 1.374 . S
C1596 H1570 0.950 . S
C1596 C1592 1.385 . S
C1596 C1595 1.374 . S
C1597 C1594 1.499 . S
C1597 C1598 1.373 . S
C1597 C1599 1.389 . S
C1598 H1571 0.950 . S
C1598 C1584 1.377 . S
C1598 C1597 1.373 . S
C1599 C1583 1.377 . S
C1599 C1597 1.389 . S
C1599 C1600 1.524 . S
C1600 C1599 1.524 . S
C1600 C1601 1.397 . S
C1600 C1605 1.363 . S
C1601 H1572 0.950 . S
C1601 C1600 1.397 . S
C1601 C1602 1.334 . S
C1602 H1573 0.950 . S
C1602 C1601 1.334 . S
C1602 C1603 1.287 . S
C1603 C1602 1.287 . S
C1603 C1604 1.524 . S
C1603 H1606 0.999 . S
C1604 H1574 0.950 . S
C1604 C1603 1.524 . S
C1604 C1605 1.415 . S
C1605 H1575 0.950 . S
C1605 C1600 1.363 . S
C1605 C1604 1.415 . S
H1606 C1603 0.999 . S
H1607 C1588 0.913 . S
C427 C15 1.535 . S
C442 C363 1.521 . S
C492 C327 1.572 . S
C477 C55 1.583 . S
C542 C350 1.509 . S
C527 C95 1.508 . S
C592 C338 1.561 . S
C577 C135 1.564 . S
C642 C407 1.520 . S
C627 C175 1.534 . S
C692 C371 1.572 . S
C677 C215 1.583 . S
C727 C255 1.508 . S
C742 C394 1.509 . S
C792 C382 1.562 . S
C777 C295 1.564 . S
C827 C2 1.483 . S
C842 C404 1.483 . S
C892 C374 1.560 . S
C877 C61 1.507 . S
C927 C82 1.486 . S
C942 C393 1.518 . S
C977 C141 1.589 . S
C992 C379 1.595 . S
C1042 C360 1.482 . S
C1027 C162 1.482 . S
C1077 C221 1.507 . S
C1092 C330 1.560 . S
C1142 C349 1.518 . S
C1127 C242 1.509 . S
C1192 C335 1.595 . S
C1177 C301 1.589 . S
C1242 C385 1.523 . S
C1227 C21 1.523 . S
C1292 C401 1.525 . S
C1277 C42 1.495 . S
C1327 C101 1.432 . S
C1342 C372 1.486 . S
C1392 C396 1.488 . S
C1377 C122 1.489 . S
C1442 C341 1.523 . S
C1427 C181 1.523 . S
C1477 C202 1.495 . S
C1492 C357 1.524 . S
C1527 C261 1.433 . S
C1542 C328 1.487 . S
C1577 C282 1.490 . S
C1592 C352 1.488 . S
