# Generated by pormake.
# Topology wbl, (4,4)-cn, num edge types: 1
# Building blocks:
#     Node 0, Type 0, BuildingBlock: MUDLON_clean_sbu_0, # of connection points: 4
#     Node 1, Type 0, BuildingBlock: MUDLON_clean_sbu_0, # of connection points: 4
#     Node 2, Type 0, BuildingBlock: MUDLON_clean_sbu_0, # of connection points: 4
#     Node 3, Type 0, BuildingBlock: MUDLON_clean_sbu_0, # of connection points: 4
#     Node 4, Type 0, BuildingBlock: MUDLON_clean_sbu_0, # of connection points: 4
#     Node 5, Type 0, BuildingBlock: MUDLON_clean_sbu_0, # of connection points: 4
#     Node 6, Type 0, BuildingBlock: MUDLON_clean_sbu_0, # of connection points: 4
#     Node 7, Type 0, BuildingBlock: MUDLON_clean_sbu_0, # of connection points: 4
#     Node 8, Type 1, BuildingBlock: GALJAG_clean_sbu_0, # of connection points: 4
#     Node 9, Type 1, BuildingBlock: GALJAG_clean_sbu_0, # of connection points: 4
#     Node 10, Type 1, BuildingBlock: GALJAG_clean_sbu_0, # of connection points: 4
#     Node 11, Type 1, BuildingBlock: GALJAG_clean_sbu_0, # of connection points: 4
#     Node 12, Type 1, BuildingBlock: GALJAG_clean_sbu_0, # of connection points: 4
#     Node 13, Type 1, BuildingBlock: GALJAG_clean_sbu_0, # of connection points: 4
#     Node 14, Type 1, BuildingBlock: GALJAG_clean_sbu_0, # of connection points: 4
#     Node 15, Type 1, BuildingBlock: GALJAG_clean_sbu_0, # of connection points: 4
#     Edge 16, Type (0, 1), BuildingBlock: UVAHIK_clean_linker_0, # of connection points: 2
#     Edge 17, Type (0, 1), BuildingBlock: UVAHIK_clean_linker_0, # of connection points: 2
#     Edge 18, Type (0, 1), BuildingBlock: UVAHIK_clean_linker_0, # of connection points: 2
#     Edge 19, Type (0, 1), BuildingBlock: UVAHIK_clean_linker_0, # of connection points: 2
#     Edge 20, Type (0, 1), BuildingBlock: UVAHIK_clean_linker_0, # of connection points: 2
#     Edge 21, Type (0, 1), BuildingBlock: UVAHIK_clean_linker_0, # of connection points: 2
#     Edge 22, Type (0, 1), BuildingBlock: UVAHIK_clean_linker_0, # of connection points: 2
#     Edge 23, Type (0, 1), BuildingBlock: UVAHIK_clean_linker_0, # of connection points: 2
#     Edge 24, Type (0, 1), BuildingBlock: UVAHIK_clean_linker_0, # of connection points: 2
#     Edge 25, Type (0, 1), BuildingBlock: UVAHIK_clean_linker_0, # of connection points: 2
#     Edge 26, Type (0, 1), BuildingBlock: UVAHIK_clean_linker_0, # of connection points: 2
#     Edge 27, Type (0, 1), BuildingBlock: UVAHIK_clean_linker_0, # of connection points: 2
#     Edge 28, Type (0, 1), BuildingBlock: UVAHIK_clean_linker_0, # of connection points: 2
#     Edge 29, Type (0, 1), BuildingBlock: UVAHIK_clean_linker_0, # of connection points: 2
#     Edge 30, Type (0, 1), BuildingBlock: UVAHIK_clean_linker_0, # of connection points: 2
#     Edge 31, Type (0, 1), BuildingBlock: UVAHIK_clean_linker_0, # of connection points: 2
#     Edge 32, Type (0, 1), BuildingBlock: UVAHIK_clean_linker_0, # of connection points: 2
#     Edge 33, Type (0, 1), BuildingBlock: UVAHIK_clean_linker_0, # of connection points: 2
#     Edge 34, Type (0, 1), BuildingBlock: UVAHIK_clean_linker_0, # of connection points: 2
#     Edge 35, Type (0, 1), BuildingBlock: UVAHIK_clean_linker_0, # of connection points: 2
#     Edge 36, Type (0, 1), BuildingBlock: UVAHIK_clean_linker_0, # of connection points: 2
#     Edge 37, Type (0, 1), BuildingBlock: UVAHIK_clean_linker_0, # of connection points: 2
#     Edge 38, Type (0, 1), BuildingBlock: UVAHIK_clean_linker_0, # of connection points: 2
#     Edge 39, Type (0, 1), BuildingBlock: UVAHIK_clean_linker_0, # of connection points: 2
#     Edge 40, Type (0, 1), BuildingBlock: UVAHIK_clean_linker_0, # of connection points: 2
#     Edge 41, Type (0, 1), BuildingBlock: UVAHIK_clean_linker_0, # of connection points: 2
#     Edge 42, Type (0, 1), BuildingBlock: UVAHIK_clean_linker_0, # of connection points: 2
#     Edge 43, Type (0, 1), BuildingBlock: UVAHIK_clean_linker_0, # of connection points: 2
#     Edge 44, Type (0, 1), BuildingBlock: UVAHIK_clean_linker_0, # of connection points: 2
#     Edge 45, Type (0, 1), BuildingBlock: UVAHIK_clean_linker_0, # of connection points: 2
#     Edge 46, Type (0, 1), BuildingBlock: UVAHIK_clean_linker_0, # of connection points: 2
#     Edge 47, Type (0, 1), BuildingBlock: UVAHIK_clean_linker_0, # of connection points: 2
# Relax obj value: 0.157
# Max RMSD: 0.184
# Mean RMSD: 0.147
data_MOF--net-wbl--node1-MUDLON_clean_sbu_0--node2-GALJAG_clean_sbu_0--edge1-UVAHIK_clean_linker_0
_symmetry_space_group_name_H-M    P1
_symmetry_Int_Tables_number       1
_symmetry_cell_setting            triclinic
loop_
_symmetry_equiv_pos_as_xyz
'x, y, z'
_cell_length_a     43.851618
_cell_length_b     43.987649
_cell_length_c     104.46258
_cell_angle_alpha  90.016709
_cell_angle_beta   90.044753
_cell_angle_gamma 89.997514
loop_
_atom_site_label
_atom_site_type_symbol
_atom_site_fract_x
_atom_site_fract_y
_atom_site_fract_z
_atom_type_partial_charge
Mg0 Mg 0.0024 0.01607 0.35753 0.0
C1 C 0.06683 0.00379 0.36691 0.0
O2 O 0.069 0.99002 0.35579 0.0
C3 C 0.00297 0.054 0.33341 0.0
O4 O 0.01857 0.03047 0.32927 0.0
C5 C 0.01321 0.95001 0.34982 0.0
O6 O 0.01495 0.94605 0.36226 0.0
O7 O 0.00639 0.97613 0.34549 0.0
O8 O 0.04279 0.01873 0.36949 0.0
O9 O 0.96496 0.01385 0.37107 0.0
C10 C 0.9443 0.03411 0.3708 0.0
O11 O 0.94412 0.05381 0.36135 0.0
O12 O 0.99528 0.05502 0.34513 0.0
Mg13 Mg 0.00406 0.51021 0.59242 0.0
C14 C 0.03984 0.48015 0.6134 0.0
O15 O 0.01567 0.46249 0.6134 0.0
C16 C 0.00208 0.44839 0.57834 0.0
O17 O 0.02863 0.44354 0.58379 0.0
C18 C 0.02557 0.54787 0.57015 0.0
O19 O 0.02777 0.52061 0.56509 0.0
O20 O 0.01528 0.55055 0.58147 0.0
O21 O 0.04275 0.49973 0.60453 0.0
O22 O 0.96906 0.5184 0.60668 0.0
C23 C 0.95039 0.497 0.60902 0.0
O24 O 0.95017 0.47313 0.60147 0.0
O25 O 0.9886 0.47362 0.58008 0.0
Mg26 Mg 0.49559 0.49142 0.84807 0.0
C27 C 0.48537 0.553 0.86043 0.0
O28 O 0.46028 0.55202 0.85357 0.0
C29 C 0.55468 0.49535 0.83278 0.0
O30 O 0.55501 0.52314 0.83738 0.0
C31 C 0.45417 0.51553 0.82807 0.0
O32 O 0.47985 0.52967 0.82551 0.0
O33 O 0.45357 0.49672 0.83731 0.0
O34 O 0.50538 0.53243 0.85888 0.0
O35 O 0.49371 0.45895 0.86364 0.0
C36 C 0.51945 0.45779 0.86925 0.0
O37 O 0.54238 0.47277 0.86417 0.0
O38 O 0.53254 0.4779 0.83551 0.0
Mg39 Mg 0.48764 0.0069 0.10773 0.0
C40 C 0.52171 0.98653 0.1312 0.0
O41 O 0.4945 0.97579 0.13387 0.0
C42 C 0.49681 0.94768 0.09249 0.0
O43 O 0.5231 0.94659 0.09852 0.0
C44 C 0.50685 0.04712 0.08584 0.0
O45 O 0.50873 0.02047 0.08021 0.0
O46 O 0.49753 0.04849 0.09735 0.0
O47 O 0.52617 0.99887 0.12035 0.0
O48 O 0.44824 0.01122 0.12025 0.0
C49 C 0.42951 0.98917 0.12079 0.0
O50 O 0.43307 0.96621 0.1129 0.0
O51 O 0.47899 0.96997 0.09444 0.0
Mg52 Mg 0.00287 0.4974 0.91749 0.0
C53 C 0.99923 0.55691 0.90203 0.0
O54 O 0.01647 0.56824 0.91115 0.0
C55 C 0.94607 0.50391 0.93436 0.0
O56 O 0.94636 0.53198 0.93006 0.0
C57 C 0.04372 0.51706 0.93927 0.0
O58 O 0.01875 0.51129 0.94577 0.0
O59 O 0.0438 0.51285 0.92723 0.0
O60 O 0.98891 0.53006 0.90315 0.0
O61 O 0.0108 0.45823 0.90536 0.0
C62 C 0.98651 0.44483 0.90185 0.0
O63 O 0.96059 0.45313 0.9071 0.0
O64 O 0.96685 0.48562 0.93084 0.0
Mg65 Mg 0.49285 0.50102 0.17406 0.0
C66 C 0.4702 0.47925 0.14889 0.0
O67 O 0.49803 0.46819 0.14902 0.0
C68 C 0.51086 0.45769 0.19561 0.0
O69 O 0.50341 0.48097 0.20285 0.0
C70 C 0.44559 0.53754 0.18777 0.0
O71 O 0.42843 0.51896 0.18105 0.0
O72 O 0.47443 0.53506 0.187 0.0
O73 O 0.46014 0.49219 0.15892 0.0
O74 O 0.53074 0.5181 0.16288 0.0
C75 C 0.55604 0.50405 0.1626 0.0
O76 O 0.56128 0.48277 0.17114 0.0
O77 O 0.50745 0.45961 0.18356 0.0
Mg78 Mg 0.50688 0.99878 0.40576 0.0
C79 C 0.57062 0.00705 0.3941 0.0
O80 O 0.57679 0.02054 0.40502 0.0
C81 C 0.50872 0.95602 0.42813 0.0
O82 O 0.52759 0.97707 0.43224 0.0
C83 C 0.52458 0.06137 0.41717 0.0
O84 O 0.52923 0.06962 0.40524 0.0
O85 O 0.51454 0.03486 0.41953 0.0
O86 O 0.54479 0.99448 0.39257 0.0
O87 O 0.46767 0.00588 0.39352 0.0
C88 C 0.47146 0.02034 0.38311 0.0
O89 O 0.49773 0.03387 0.38107 0.0
O90 O 0.49813 0.95808 0.41683 0.0
Mg91 Mg 0.99578 0.99708 0.65698 0.0
C92 C 0.04851 0.97741 0.64078 0.0
O93 O 0.04216 0.95192 0.64675 0.0
C94 C 0.99135 0.04323 0.67892 0.0
O95 O 0.00531 0.02186 0.68546 0.0
C96 C 0.03046 0.9582 0.67567 0.0
O97 O 0.05073 0.97959 0.67349 0.0
O98 O 0.00463 0.95981 0.67015 0.0
O99 O 0.03338 0.00121 0.64351 0.0
O100 O 0.95651 0.98879 0.64486 0.0
C101 C 0.93092 0.00106 0.6473 0.0
O102 O 0.92749 0.01584 0.65814 0.0
O103 O 0.98605 0.03919 0.66708 0.0
In104 In 0.37522 0.63774 0.0083 0.0
O105 O 0.36659 0.68572 0.01602 0.0
O106 O 0.41195 0.66867 0.01641 0.0
C107 C 0.31964 0.62111 0.99969 0.0
C108 C 0.38123 0.60161 0.02901 0.0
C109 C 0.40517 0.63702 0.98573 0.0
O110 O 0.32569 0.64818 0.00287 0.0
O111 O 0.34145 0.60266 0.001 0.0
O112 O 0.41056 0.61789 0.99446 0.0
O113 O 0.38512 0.65649 0.98848 0.0
C114 C 0.39416 0.69034 0.01898 0.0
O115 O 0.39875 0.59954 0.01944 0.0
O116 O 0.36074 0.62162 0.02803 0.0
In117 In 0.29317 0.85193 0.25849 0.0
O118 O 0.28776 0.80764 0.24721 0.0
O119 O 0.32811 0.8135 0.25816 0.0
C120 C 0.23748 0.84351 0.26892 0.0
C121 C 0.3059 0.88514 0.23737 0.0
C122 C 0.31789 0.88434 0.27786 0.0
O123 O 0.26089 0.82959 0.27281 0.0
O124 O 0.24203 0.86101 0.25954 0.0
O125 O 0.32602 0.85751 0.27528 0.0
O126 O 0.29737 0.89487 0.27065 0.0
C127 C 0.31315 0.79682 0.25061 0.0
O128 O 0.32592 0.87683 0.24528 0.0
O129 O 0.27914 0.87682 0.2401 0.0
In130 In 0.20494 0.85422 0.5047 0.0
O131 O 0.21085 0.86626 0.52579 0.0
O132 O 0.17836 0.89146 0.51503 0.0
C133 C 0.18646 0.87941 0.48244 0.0
C134 C 0.17621 0.80204 0.51128 0.0
C135 C 0.2652 0.85183 0.49925 0.0
O136 O 0.19243 0.89503 0.49226 0.0
O137 O 0.18922 0.85107 0.48391 0.0
O138 O 0.24604 0.83385 0.49441 0.0
O139 O 0.25415 0.87064 0.50708 0.0
C140 C 0.19093 0.88698 0.52574 0.0
O141 O 0.20427 0.80639 0.51316 0.0
O142 O 0.16268 0.82375 0.50581 0.0
In143 In 0.12544 0.63204 0.75528 0.0
O144 O 0.08489 0.61851 0.76788 0.0
O145 O 0.11827 0.64827 0.77572 0.0
C146 C 0.1192 0.59402 0.73511 0.0
C147 C 0.17844 0.61131 0.7649 0.0
C148 C 0.11221 0.68655 0.7446 0.0
O149 O 0.09908 0.59642 0.7437 0.0
O150 O 0.14236 0.61053 0.73676 0.0
O151 O 0.13869 0.68004 0.74848 0.0
O152 O 0.09279 0.66583 0.74621 0.0
C153 C 0.09381 0.63376 0.77742 0.0
O154 O 0.17619 0.63716 0.75967 0.0
O155 O 0.15407 0.59599 0.76514 0.0
In156 In 0.80033 0.15383 0.51334 0.0
O157 O 0.80426 0.20244 0.52103 0.0
O158 O 0.8452 0.17812 0.51753 0.0
C159 C 0.7414 0.15723 0.50577 0.0
C160 C 0.80464 0.11975 0.53469 0.0
C161 C 0.82304 0.13226 0.49108 0.0
O162 O 0.76064 0.17766 0.50328 0.0
O163 O 0.75156 0.13568 0.51248 0.0
O164 O 0.81865 0.11544 0.50068 0.0
O165 O 0.81663 0.15988 0.49282 0.0
C166 C 0.83303 0.20243 0.52135 0.0
O167 O 0.81895 0.11358 0.52453 0.0
O168 O 0.7878 0.14302 0.53405 0.0
In169 In 0.87148 0.36376 0.75523 0.0
O170 O 0.90186 0.39194 0.74186 0.0
O171 O 0.85475 0.38833 0.73742 0.0
C172 C 0.9055 0.36664 0.77666 0.0
C173 C 0.88241 0.30862 0.74481 0.0
C174 C 0.81879 0.38183 0.76617 0.0
O175 O 0.90593 0.38739 0.76829 0.0
O176 O 0.88812 0.34455 0.77415 0.0
O177 O 0.82314 0.35456 0.76279 0.0
O178 O 0.84078 0.39951 0.76396 0.0
C179 C 0.8804 0.39892 0.73435 0.0
O180 O 0.85624 0.32061 0.74457 0.0
O181 O 0.90256 0.32425 0.75034 0.0
In182 In 0.63671 0.37434 0.01724 0.0
O183 O 0.64676 0.32548 0.02365 0.0
O184 O 0.60075 0.34082 0.02384 0.0
C185 C 0.68965 0.39325 0.00673 0.0
C186 C 0.63497 0.40546 0.03948 0.0
C187 C 0.60141 0.38068 0.99629 0.0
O188 O 0.68465 0.36554 0.00917 0.0
O189 O 0.66826 0.41099 0.00974 0.0
O190 O 0.59941 0.39836 0.0058 0.0
O191 O 0.62093 0.35978 0.99745 0.0
C192 C 0.61914 0.31938 0.02599 0.0
O193 O 0.61576 0.40974 0.03065 0.0
O194 O 0.65491 0.38561 0.03706 0.0
In195 In 0.70309 0.14998 0.25451 0.0
O196 O 0.67354 0.14599 0.27237 0.0
O197 O 0.70578 0.11087 0.26886 0.0
C198 C 0.68348 0.11221 0.2358 0.0
C199 C 0.76273 0.1589 0.26018 0.0
C200 C 0.67851 0.20352 0.24676 0.0
O201 O 0.66784 0.11795 0.24564 0.0
O202 O 0.70904 0.1253 0.23545 0.0
O203 O 0.69629 0.18809 0.23987 0.0
O204 O 0.67377 0.19243 0.2577 0.0
C205 C 0.68538 0.1214 0.27613 0.0
O206 O 0.74161 0.17368 0.26549 0.0
O207 O 0.75385 0.1405 0.25172 0.0
C208 C 0.02625 0.93245 0.32771 0.0
C209 C 0.02558 0.9268 0.34095 0.0
C210 C 0.04313 0.91379 0.31954 0.0
C211 C 0.11152 0.86653 0.32094 0.0
H212 H 0.09394 0.85376 0.28496 0.0
C213 C 0.20482 0.82438 0.28683 0.0
C214 C 0.20794 0.84203 0.2757 0.0
C215 C 0.17842 0.82642 0.29428 0.0
C216 C 0.09916 0.8571 0.29499 0.0
H217 H 0.03998 0.89555 0.35584 0.0
H218 H 0.06915 0.86273 0.34154 0.0
H219 H 0.05365 0.87169 0.29923 0.0
H220 H 0.1852 0.87424 0.26322 0.0
H221 H 0.13936 0.87809 0.27627 0.0
H222 H 0.15722 0.8532 0.31667 0.0
C223 C 0.05711 0.88199 0.33752 0.0
C224 C 0.07609 0.86736 0.30317 0.0
C225 C 0.04021 0.9007 0.3457 0.0
C226 C 0.18347 0.86039 0.27177 0.0
C227 C 0.15709 0.86244 0.27921 0.0
C228 C 0.13452 0.85627 0.31278 0.0
C229 C 0.05968 0.88898 0.32442 0.0
C230 C 0.08225 0.87305 0.31617 0.0
C231 C 0.15461 0.84615 0.29075 0.0
C232 C 0.12887 0.85226 0.29964 0.0
H233 H 0.0151 0.95227 0.32371 0.0
H234 H 0.04473 0.92004 0.30954 0.0
H235 H 0.11727 0.8711 0.33084 0.0
H236 H 0.22323 0.80986 0.29005 0.0
H237 H 0.17703 0.81322 0.30301 0.0
C238 C 0.03912 0.60321 0.56926 0.0
C239 C 0.03737 0.57474 0.56319 0.0
C240 C 0.05249 0.62798 0.56304 0.0
C241 C 0.0751 0.65761 0.53138 0.0
H242 H 0.13313 0.70506 0.55105 0.0
C243 C 0.12898 0.77037 0.51338 0.0
C244 C 0.16019 0.77457 0.51587 0.0
C245 C 0.11344 0.74542 0.51851 0.0
C246 C 0.11712 0.69193 0.54541 0.0
H247 H 0.04738 0.55025 0.54565 0.0
H248 H 0.07066 0.59354 0.53481 0.0
H249 H 0.10612 0.66314 0.56125 0.0
H250 H 0.19978 0.75557 0.5254 0.0
H251 H 0.17267 0.71207 0.53436 0.0
H252 H 0.08639 0.68636 0.5155 0.0
C253 C 0.06162 0.59669 0.54437 0.0
C254 C 0.10138 0.66814 0.55129 0.0
C255 C 0.0484 0.57185 0.55061 0.0
C256 C 0.17571 0.75299 0.52334 0.0
C257 C 0.16015 0.72819 0.52854 0.0
C258 C 0.0907 0.6816 0.52551 0.0
C259 C 0.06424 0.62489 0.55059 0.0
C260 C 0.08026 0.65065 0.54434 0.0
C261 C 0.12878 0.72432 0.52631 0.0
C262 C 0.11199 0.69891 0.53246 0.0
H263 H 0.03075 0.60626 0.57893 0.0
H264 H 0.0538 0.64955 0.56802 0.0
H265 H 0.05883 0.64464 0.5258 0.0
H266 H 0.11642 0.78665 0.50765 0.0
H267 H 0.08922 0.74314 0.51669 0.0
C268 C 0.42619 0.54707 0.81197 0.0
C269 C 0.42611 0.52305 0.82083 0.0
C270 C 0.39954 0.55519 0.80548 0.0
C271 C 0.3155 0.54839 0.80748 0.0
H272 H 0.31884 0.57597 0.77224 0.0
C273 C 0.20725 0.57287 0.77772 0.0
C274 C 0.20711 0.60002 0.77064 0.0
C275 C 0.23404 0.56253 0.78351 0.0
C276 C 0.31761 0.56852 0.78211 0.0
H277 H 0.39809 0.48827 0.82965 0.0
H278 H 0.35168 0.50198 0.81812 0.0
H279 H 0.36537 0.5588 0.78282 0.0
H280 H 0.23496 0.63746 0.76392 0.0
H281 H 0.28192 0.61927 0.77398 0.0
H282 H 0.26765 0.55792 0.8067 0.0
C283 C 0.37222 0.51499 0.81637 0.0
C284 C 0.34426 0.55873 0.78819 0.0
C285 C 0.39887 0.50699 0.82292 0.0
C286 C 0.2344 0.61644 0.76931 0.0
C287 C 0.26129 0.60596 0.77502 0.0
C288 C 0.28883 0.55797 0.80136 0.0
C289 C 0.37216 0.53936 0.80763 0.0
C290 C 0.3436 0.54871 0.80099 0.0
C291 C 0.26133 0.579 0.78225 0.0
C292 C 0.28962 0.5683 0.78864 0.0
H293 H 0.44674 0.56004 0.81017 0.0
H294 H 0.40029 0.57437 0.799 0.0
H295 H 0.31417 0.54137 0.8174 0.0
H296 H 0.18657 0.5597 0.7789 0.0
H297 H 0.23345 0.54152 0.78891 0.0
C298 C 0.45766 0.9226 0.07859 0.0
C299 C 0.48712 0.92261 0.08393 0.0
C300 C 0.44786 0.89849 0.07093 0.0
C301 C 0.4752 0.83474 0.05115 0.0
H302 H 0.3945 0.80175 0.05729 0.0
C303 C 0.43535 0.72095 0.02932 0.0
C304 C 0.40482 0.71837 0.02538 0.0
C305 C 0.44539 0.74679 0.03585 0.0
C306 C 0.41691 0.81095 0.0553 0.0
H307 H 0.52956 0.89747 0.08521 0.0
H308 H 0.51238 0.85528 0.07179 0.0
H309 H 0.41226 0.84501 0.06981 0.0
H310 H 0.36097 0.74107 0.02497 0.0
H311 H 0.3786 0.78653 0.03619 0.0
H312 H 0.47984 0.80074 0.03663 0.0
C313 C 0.49696 0.87407 0.07351 0.0
C314 C 0.42711 0.83572 0.06251 0.0
C315 C 0.50674 0.89816 0.08125 0.0
C316 C 0.38461 0.74238 0.02793 0.0
C317 C 0.39469 0.76833 0.03443 0.0
C318 C 0.46493 0.81004 0.0439 0.0
C319 C 0.46731 0.87386 0.06837 0.0
C320 C 0.45641 0.84781 0.06055 0.0
C321 C 0.42516 0.77075 0.03856 0.0
C322 C 0.43571 0.79774 0.04593 0.0
H323 H 0.44196 0.9411 0.08043 0.0
H324 H 0.42504 0.89918 0.06697 0.0
H325 H 0.49773 0.84382 0.0493 0.0
H326 H 0.45145 0.70276 0.02754 0.0
H327 H 0.46887 0.74764 0.03905 0.0
C328 C 0.07198 0.53088 0.95931 0.0
C329 C 0.07123 0.52875 0.94588 0.0
C330 C 0.09788 0.54196 0.96557 0.0
C331 C 0.16679 0.58848 0.96066 0.0
H332 H 0.19722 0.54556 0.99047 0.0
C333 C 0.28371 0.58072 0.99229 0.0
C334 C 0.28975 0.61165 0.9945 0.0
C335 C 0.25599 0.57158 0.98695 0.0
C336 C 0.18901 0.55776 0.98215 0.0
H337 H 0.09704 0.53683 0.9285 0.0
H338 H 0.14225 0.55614 0.93945 0.0
H339 H 0.1511 0.52762 0.97977 0.0
H340 H 0.27144 0.65727 0.99294 0.0
H341 H 0.22287 0.64125 0.98352 0.0
H342 H 0.20502 0.61833 0.96292 0.0
C343 C 0.12272 0.54939 0.94512 0.0
C344 C 0.16246 0.54765 0.97609 0.0
C345 C 0.09689 0.53813 0.93885 0.0
C346 C 0.26739 0.63327 0.99135 0.0
C347 C 0.23969 0.62412 0.9859 0.0
C348 C 0.19323 0.59873 0.96678 0.0
C349 C 0.12353 0.55135 0.95855 0.0
C350 C 0.1512 0.56274 0.96521 0.0
C351 C 0.23375 0.59317 0.98362 0.0
C352 C 0.20479 0.58331 0.97752 0.0
H353 H 0.05259 0.52392 0.96501 0.0
H354 H 0.09771 0.54347 0.97592 0.0
H355 H 0.15849 0.60075 0.95237 0.0
H356 H 0.30051 0.56353 0.9946 0.0
H357 H 0.25224 0.54761 0.98518 0.0
C358 C 0.39974 0.56682 0.19492 0.0
C359 C 0.4314 0.56196 0.1955 0.0
C360 C 0.38631 0.59075 0.20165 0.0
C361 C 0.39772 0.64359 0.22858 0.0
H362 H 0.33981 0.69402 0.21024 0.0
C363 C 0.35545 0.75912 0.24817 0.0
C364 C 0.32522 0.76778 0.24561 0.0
C365 C 0.36762 0.73273 0.24274 0.0
C366 C 0.35552 0.67992 0.2156 0.0
H367 H 0.47369 0.57803 0.2039 0.0
H368 H 0.45013 0.61985 0.21573 0.0
H369 H 0.36254 0.65032 0.19961 0.0
H370 H 0.2837 0.75512 0.23569 0.0
H371 H 0.30463 0.70865 0.22646 0.0
H372 H 0.39059 0.67308 0.24461 0.0
C373 C 0.43574 0.60504 0.21005 0.0
C374 C 0.36863 0.6549 0.20947 0.0
C375 C 0.44924 0.58118 0.20323 0.0
C376 C 0.30714 0.7491 0.23778 0.0
C377 C 0.31923 0.72259 0.23242 0.0
C378 C 0.38443 0.66852 0.23475 0.0
C379 C 0.40417 0.61028 0.20921 0.0
C380 C 0.38995 0.63652 0.21588 0.0
C381 C 0.34977 0.71428 0.23468 0.0
C382 C 0.36323 0.68709 0.22832 0.0
H383 H 0.38528 0.5524 0.18909 0.0
H384 H 0.36187 0.59398 0.20095 0.0
H385 H 0.41383 0.62963 0.23381 0.0
H386 H 0.36999 0.77313 0.25413 0.0
H387 H 0.39131 0.72731 0.24457 0.0
C388 C 0.49994 0.93769 0.4505 0.0
C389 C 0.49497 0.93429 0.43727 0.0
C390 C 0.48219 0.92161 0.4593 0.0
C391 C 0.42605 0.85941 0.46332 0.0
H392 H 0.38567 0.91658 0.48589 0.0
C393 C 0.30613 0.83853 0.48365 0.0
C394 C 0.29733 0.85284 0.49507 0.0
C395 C 0.33533 0.84302 0.47866 0.0
C396 C 0.39711 0.89995 0.47996 0.0
H397 H 0.46954 0.90919 0.42292 0.0
H398 H 0.4387 0.88104 0.43829 0.0
H399 H 0.4292 0.93302 0.47344 0.0
H400 H 0.31273 0.88114 0.51076 0.0
H401 H 0.36415 0.88801 0.50237 0.0
H402 H 0.3936 0.8264 0.4697 0.0
C403 C 0.4562 0.89624 0.44185 0.0
C404 C 0.42213 0.90948 0.47277 0.0
C405 C 0.47376 0.91251 0.43304 0.0
C406 C 0.31884 0.87013 0.50185 0.0
C407 C 0.34824 0.87421 0.49698 0.0
C408 C 0.40121 0.8497 0.47066 0.0
C409 C 0.45939 0.90157 0.45505 0.0
C410 C 0.43633 0.88959 0.46411 0.0
C411 C 0.35655 0.86157 0.48509 0.0
C412 C 0.38583 0.87012 0.4788 0.0
H413 H 0.51624 0.95411 0.45409 0.0
H414 H 0.48536 0.92587 0.46943 0.0
H415 H 0.43677 0.84353 0.45679 0.0
H416 H 0.28997 0.82512 0.4782 0.0
H417 H 0.3406 0.8332 0.46942 0.0
C418 C 0.06779 0.92897 0.68902 0.0
C419 C 0.03841 0.93169 0.68375 0.0
C420 C 0.07589 0.90325 0.69611 0.0
C421 C 0.05405 0.823 0.70087 0.0
H422 H 0.10461 0.82896 0.73126 0.0
C423 C 0.07451 0.72055 0.73388 0.0
C424 C 0.10434 0.71566 0.73834 0.0
C425 C 0.06689 0.74744 0.72756 0.0
C426 C 0.09075 0.82692 0.72271 0.0
H427 H 0.99425 0.90985 0.68205 0.0
H428 H 0.00824 0.86519 0.69456 0.0
H429 H 0.08996 0.87511 0.71978 0.0
H430 H 0.14951 0.73532 0.73986 0.0
H431 H 0.13618 0.78251 0.72874 0.0
H432 H 0.05475 0.77489 0.7038 0.0
C433 C 0.02521 0.8827 0.69303 0.0
C434 C 0.08234 0.85335 0.71614 0.0
C435 C 0.01712 0.9084 0.68593 0.0
C436 C 0.12633 0.73847 0.73652 0.0
C437 C 0.11866 0.76552 0.73022 0.0
C438 C 0.06239 0.79665 0.70745 0.0
C439 C 0.05479 0.87967 0.6981 0.0
C440 C 0.06378 0.8517 0.70517 0.0
C441 C 0.0889 0.77015 0.72556 0.0
C442 C 0.08072 0.79829 0.71848 0.0
H443 H 0.08478 0.94647 0.68751 0.0
H444 H 0.09895 0.90153 0.69976 0.0
H445 H 0.0403 0.82082 0.69231 0.0
H446 H 0.05699 0.70346 0.73518 0.0
H447 H 0.04365 0.75049 0.72429 0.0
C448 C 0.60535 0.50273 0.8221 0.0
C449 C 0.58054 0.48379 0.82506 0.0
C450 C 0.63035 0.49137 0.81532 0.0
C451 C 0.65507 0.428 0.79434 0.0
H452 H 0.73584 0.45205 0.80556 0.0
C453 C 0.7663 0.37265 0.77502 0.0
C454 C 0.79054 0.39259 0.77243 0.0
C455 C 0.74002 0.38319 0.78122 0.0
C456 C 0.71344 0.44533 0.80223 0.0
H457 H 0.56237 0.43813 0.82304 0.0
H458 H 0.6061 0.4183 0.81136 0.0
H459 H 0.6912 0.47195 0.81658 0.0
H460 H 0.80612 0.43924 0.77411 0.0
H461 H 0.76043 0.45756 0.78479 0.0
H462 H 0.6775 0.40125 0.78 0.0
C463 C 0.60609 0.44202 0.81414 0.0
C464 C 0.68784 0.45679 0.80852 0.0
C465 C 0.58108 0.45338 0.8209 0.0
C466 C 0.7879 0.42325 0.77603 0.0
C467 C 0.76177 0.43373 0.78222 0.0
C468 C 0.68075 0.41647 0.78804 0.0
C469 C 0.63116 0.4608 0.81136 0.0
C470 C 0.65833 0.44842 0.80462 0.0
C471 C 0.7376 0.41383 0.78498 0.0
C472 C 0.71022 0.42518 0.79186 0.0
H473 H 0.6056 0.52629 0.8251 0.0
H474 H 0.64907 0.50658 0.81316 0.0
H475 H 0.63266 0.42132 0.79101 0.0
H476 H 0.76772 0.34889 0.77236 0.0
H477 H 0.72186 0.36725 0.78329 0.0
C478 C 0.52158 0.10221 0.08588 0.0
C479 C 0.51751 0.07482 0.07915 0.0
C480 C 0.53331 0.12786 0.0797 0.0
C481 C 0.54263 0.16289 0.04808 0.0
H482 H 0.60613 0.21003 0.06469 0.0
C483 C 0.62984 0.2685 0.03589 0.0
C484 C 0.60884 0.28981 0.03112 0.0
C485 C 0.61962 0.24123 0.0413 0.0
C486 C 0.58858 0.19694 0.05989 0.0
H487 H 0.52204 0.05307 0.06061 0.0
H488 H 0.54216 0.09799 0.04981 0.0
H489 H 0.58602 0.16457 0.07518 0.0
H490 H 0.56082 0.29906 0.02803 0.0
H491 H 0.54309 0.25143 0.03732 0.0
H492 H 0.54502 0.1954 0.03284 0.0
C493 C 0.53633 0.09956 0.05986 0.0
C494 C 0.57686 0.17113 0.06595 0.0
C495 C 0.52489 0.07381 0.06606 0.0
C496 C 0.57755 0.28309 0.03163 0.0
C497 C 0.56738 0.25574 0.03689 0.0
C498 C 0.55413 0.18887 0.04209 0.0
C499 C 0.54091 0.12677 0.06664 0.0
C500 C 0.55367 0.15391 0.06013 0.0
C501 C 0.58827 0.23463 0.04188 0.0
C502 C 0.57713 0.20624 0.04796 0.0
H503 H 0.51617 0.10374 0.09597 0.0
H504 H 0.53626 0.14864 0.08513 0.0
H505 H 0.52467 0.15014 0.04339 0.0
H506 H 0.65409 0.27312 0.03563 0.0
H507 H 0.63623 0.22525 0.045 0.0
C508 C 0.96869 0.09802 0.32838 0.0
C509 C 0.98923 0.07559 0.32417 0.0
C510 C 0.9512 0.11443 0.31957 0.0
C511 C 0.91758 0.10249 0.2881 0.0
H512 H 0.88842 0.18511 0.29225 0.0
C513 C 0.81757 0.14458 0.25785 0.0
C514 C 0.79464 0.15975 0.26471 0.0
C515 C 0.84656 0.14072 0.26316 0.0
C516 C 0.89629 0.16197 0.29097 0.0
H517 H 0.00947 0.05476 0.30737 0.0
H518 H 0.97908 0.08354 0.29202 0.0
H519 H 0.93088 0.16691 0.30536 0.0
H520 H 0.78453 0.18442 0.28215 0.0
H521 H 0.83472 0.17696 0.29161 0.0
H522 H 0.88228 0.09677 0.27427 0.0
C523 C 0.97611 0.08802 0.30214 0.0
C524 C 0.92066 0.1516 0.29846 0.0
C525 C 0.99362 0.07163 0.31095 0.0
C526 C 0.80179 0.17265 0.27663 0.0
C527 C 0.83068 0.16848 0.28203 0.0
C528 C 0.89318 0.11275 0.2807 0.0
C529 C 0.9539 0.10877 0.30637 0.0
C530 C 0.93116 0.12152 0.29728 0.0
C531 C 0.85313 0.15156 0.27554 0.0
C532 C 0.88175 0.14241 0.28221 0.0
H533 H 0.96485 0.10178 0.3385 0.0
H534 H 0.9342 0.13013 0.32316 0.0
H535 H 0.92468 0.07902 0.28711 0.0
H536 H 0.81278 0.13466 0.24857 0.0
H537 H 0.8635 0.12824 0.25775 0.0
C538 C 0.00083 0.39588 0.56881 0.0
C539 C 0.98646 0.42394 0.5711 0.0
C540 C 0.98511 0.37231 0.56266 0.0
C541 C 0.90727 0.34471 0.55706 0.0
H542 H 0.94369 0.29573 0.53027 0.0
C543 C 0.83685 0.25609 0.52919 0.0
C544 C 0.85108 0.22842 0.52616 0.0
C545 C 0.85385 0.28033 0.5341 0.0
C546 C 0.93329 0.30894 0.53785 0.0
H547 H 0.94449 0.4494 0.56845 0.0
H548 H 0.91724 0.40837 0.55781 0.0
H549 H 0.97297 0.33703 0.53994 0.0
H550 H 0.89426 0.20443 0.52583 0.0
H551 H 0.9238 0.24639 0.53468 0.0
H552 H 0.86787 0.31648 0.55522 0.0
C553 C 0.94054 0.40451 0.56085 0.0
C554 C 0.95007 0.33263 0.54336 0.0
C555 C 0.95628 0.42808 0.56688 0.0
C556 C 0.88267 0.22555 0.52803 0.0
C557 C 0.89964 0.24969 0.53303 0.0
C558 C 0.8906 0.32092 0.55163 0.0
C559 C 0.95464 0.37626 0.5588 0.0
C560 C 0.93717 0.35085 0.55298 0.0
C561 C 0.88543 0.27736 0.5362 0.0
C562 C 0.90332 0.30278 0.54192 0.0
H563 H 0.02406 0.39196 0.57193 0.0
H564 H 0.9965 0.35072 0.56126 0.0
H565 H 0.89689 0.35804 0.56461 0.0
H566 H 0.81255 0.25902 0.52778 0.0
H567 H 0.84221 0.30145 0.53621 0.0
C568 C 0.55511 0.10526 0.42568 0.0
C569 C 0.53604 0.08013 0.42792 0.0
C570 C 0.57039 0.11934 0.43586 0.0
C571 C 0.60161 0.09786 0.46682 0.0
H572 H 0.62114 0.18341 0.47029 0.0
C573 C 0.68898 0.1354 0.50414 0.0
C574 C 0.71083 0.15635 0.49986 0.0
C575 C 0.66207 0.13087 0.49723 0.0
C576 C 0.61601 0.15942 0.46942 0.0
H577 H 0.51591 0.05185 0.4427 0.0
H578 H 0.54237 0.07647 0.46037 0.0
H579 H 0.5836 0.16715 0.45434 0.0
H580 H 0.72099 0.19029 0.48545 0.0
H581 H 0.67467 0.18169 0.47313 0.0
H582 H 0.63484 0.08961 0.48129 0.0
C583 C 0.54599 0.08492 0.45075 0.0
C584 C 0.59444 0.15016 0.46032 0.0
C585 C 0.53077 0.07088 0.44061 0.0
C586 C 0.70449 0.174 0.48898 0.0
C587 C 0.67779 0.16914 0.48195 0.0
C588 C 0.62327 0.10702 0.4758 0.0
C589 C 0.56684 0.10852 0.44844 0.0
C590 C 0.5873 0.11922 0.45883 0.0
C591 C 0.6567 0.14679 0.48575 0.0
C592 C 0.63111 0.13787 0.47713 0.0
H593 H 0.5596 0.11299 0.41602 0.0
H594 H 0.5864 0.13742 0.43377 0.0
H595 H 0.59709 0.07378 0.46575 0.0
H596 H 0.69315 0.12171 0.51258 0.0
H597 H 0.64598 0.11408 0.50065 0.0
C598 C 0.95701 0.08867 0.67969 0.0
C599 C 0.97959 0.07063 0.68548 0.0
C600 C 0.94451 0.1135 0.68619 0.0
C601 C 0.93718 0.14649 0.71894 0.0
H602 H 0.91405 0.21917 0.7003 0.0
C603 C 0.91599 0.2633 0.74247 0.0
C604 C 0.88964 0.27918 0.73876 0.0
C605 C 0.9243 0.23646 0.73626 0.0
C606 C 0.92009 0.19886 0.70559 0.0
H607 H 0.00734 0.06494 0.70249 0.0
H608 H 0.98654 0.10893 0.71362 0.0
H609 H 0.93521 0.17589 0.68872 0.0
H610 H 0.85111 0.2794 0.72576 0.0
H611 H 0.86619 0.23259 0.71462 0.0
H612 H 0.9232 0.17024 0.73587 0.0
C613 C 0.97766 0.1034 0.70423 0.0
C614 C 0.93216 0.17399 0.69897 0.0
C615 C 0.98984 0.0783 0.6978 0.0
C616 C 0.87147 0.2675 0.72883 0.0
C617 C 0.88015 0.24089 0.72243 0.0
C618 C 0.92557 0.17154 0.72556 0.0
C619 C 0.95458 0.12118 0.69857 0.0
C620 C 0.94107 0.1475 0.70557 0.0
C621 C 0.90674 0.22525 0.72606 0.0
C622 C 0.91706 0.19799 0.71896 0.0
H623 H 0.94839 0.08318 0.67025 0.0
H624 H 0.92648 0.12626 0.68158 0.0
H625 H 0.94304 0.1263 0.72434 0.0
H626 H 0.93038 0.27179 0.75011 0.0
H627 H 0.94501 0.22494 0.73918 0.0
C628 C 0.89816 0.51303 0.94692 0.0
C629 C 0.92116 0.49309 0.94278 0.0
C630 C 0.87408 0.50242 0.95447 0.0
C631 C 0.85047 0.43822 0.97531 0.0
H632 H 0.76903 0.46738 0.96769 0.0
C633 C 0.74077 0.38414 0.99658 0.0
C634 C 0.71768 0.40432 0.00041 0.0
C635 C 0.76647 0.3949 0.99004 0.0
C636 C 0.79167 0.45925 0.97004 0.0
H637 H 0.93704 0.44637 0.94345 0.0
H638 H 0.89491 0.42786 0.95644 0.0
H639 H 0.81218 0.48663 0.9555 0.0
H640 H 0.70372 0.45164 0.00066 0.0
H641 H 0.74847 0.47033 0.98938 0.0
H642 H 0.82975 0.41059 0.9898 0.0
C643 C 0.89566 0.45178 0.95402 0.0
C644 C 0.81643 0.47034 0.96306 0.0
C645 C 0.91975 0.4624 0.9465 0.0
C646 C 0.72104 0.43547 0.99778 0.0
C647 C 0.74661 0.44618 0.99125 0.0
C648 C 0.82565 0.42706 0.98228 0.0
C649 C 0.87241 0.4716 0.95803 0.0
C650 C 0.84616 0.46002 0.96562 0.0
C651 C 0.76948 0.42602 0.98718 0.0
C652 C 0.79597 0.43752 0.97975 0.0
H653 H 0.89863 0.53683 0.94428 0.0
H654 H 0.85679 0.51841 0.95755 0.0
H655 H 0.87311 0.43006 0.97764 0.0
H656 H 0.73877 0.36001 0.99846 0.0
H657 H 0.78362 0.37876 0.98696 0.0
C658 C 0.52724 0.42674 0.21461 0.0
C659 C 0.52569 0.43055 0.20127 0.0
C660 C 0.54281 0.40197 0.2199 0.0
C661 C 0.57525 0.32615 0.21156 0.0
H662 H 0.62346 0.33872 0.24225 0.0
C663 C 0.66405 0.23891 0.22904 0.0
C664 C 0.66283 0.23111 0.24207 0.0
C665 C 0.64728 0.26355 0.22438 0.0
C666 C 0.60992 0.33484 0.23373 0.0
H667 H 0.53919 0.41123 0.18302 0.0
H668 H 0.56685 0.36864 0.1922 0.0
H669 H 0.59348 0.38063 0.23352 0.0
H670 H 0.64378 0.24347 0.2605 0.0
H671 H 0.6148 0.28689 0.25235 0.0
H672 H 0.59233 0.28055 0.21164 0.0
C673 C 0.5555 0.38429 0.19862 0.0
C674 C 0.59259 0.3588 0.22874 0.0
C675 C 0.53972 0.40886 0.19334 0.0
C676 C 0.64517 0.24896 0.25041 0.0
C677 C 0.62866 0.27385 0.24576 0.0
C678 C 0.5928 0.30234 0.21646 0.0
C679 C 0.55742 0.38056 0.21198 0.0
C680 C 0.57511 0.35481 0.21755 0.0
C681 C 0.62919 0.28111 0.23266 0.0
C682 C 0.61041 0.30646 0.22757 0.0
H683 H 0.51656 0.44298 0.22098 0.0
H684 H 0.54333 0.39959 0.23022 0.0
H685 H 0.56161 0.32199 0.20309 0.0
H686 H 0.67743 0.22556 0.22239 0.0
H687 H 0.6484 0.26885 0.21426 0.0
C688 C 0.10738 0.97063 0.37632 0.0
C689 C 0.08836 0.99624 0.37735 0.0
C690 C 0.12308 0.95971 0.38702 0.0
C691 C 0.14911 0.97765 0.4197 0.0
H692 H 0.13099 0.89294 0.42656 0.0
C693 C 0.16914 0.92397 0.46945 0.0
C694 C 0.17776 0.89327 0.47009 0.0
C695 C 0.16111 0.93712 0.45774 0.0
C696 C 0.13688 0.91643 0.42473 0.0
H697 H 0.07279 0.03185 0.39014 0.0
H698 H 0.10069 0.01304 0.40877 0.0
H699 H 0.1145 0.91571 0.40653 0.0
H700 H 0.18543 0.85239 0.45898 0.0
H701 H 0.17246 0.87545 0.4385 0.0
H702 H 0.17173 0.97842 0.43784 0.0
C703 C 0.10321 0.00129 0.39971 0.0
C704 C 0.12733 0.92949 0.41323 0.0
C705 C 0.08718 0.012 0.38906 0.0
C706 C 0.17854 0.87604 0.45879 0.0
C707 C 0.17096 0.88927 0.44705 0.0
C708 C 0.15907 0.96448 0.43115 0.0
C709 C 0.12043 0.97444 0.39891 0.0
C710 C 0.13305 0.96029 0.41065 0.0
C711 C 0.16193 0.91996 0.44636 0.0
C712 C 0.15275 0.93376 0.4339 0.0
H713 H 0.1088 0.95794 0.36746 0.0
H714 H 0.1365 0.93914 0.38612 0.0
H715 H 0.15395 0.00142 0.41791 0.0
H716 H 0.16826 0.93777 0.47803 0.0
H717 H 0.15376 0.96061 0.45767 0.0
C718 C 0.07583 0.50924 0.62736 0.0
C719 C 0.05852 0.48287 0.62516 0.0
C720 C 0.08794 0.51523 0.63946 0.0
C721 C 0.07364 0.49535 0.67342 0.0
H722 H 0.14196 0.54974 0.67868 0.0
C723 C 0.08636 0.56553 0.71964 0.0
C724 C 0.11547 0.57466 0.72367 0.0
C725 C 0.08265 0.54956 0.70817 0.0
C726 C 0.12314 0.53407 0.67751 0.0
H727 H 0.04277 0.44074 0.63364 0.0
H728 H 0.06514 0.45044 0.65461 0.0
H729 H 0.13283 0.52866 0.65761 0.0
H730 H 0.1637 0.57294 0.71928 0.0
H731 H 0.15752 0.54377 0.69962 0.0
H732 H 0.06457 0.4999 0.69341 0.0
C733 C 0.0683 0.46718 0.64714 0.0
C734 C 0.11758 0.52232 0.6653 0.0
C735 C 0.05574 0.46142 0.63506 0.0
C736 C 0.14093 0.56643 0.71631 0.0
C737 C 0.13732 0.54991 0.70498 0.0
C738 C 0.07955 0.50663 0.68568 0.0
C739 C 0.08352 0.49475 0.64965 0.0
C740 C 0.09221 0.50352 0.66298 0.0
C741 C 0.10806 0.54179 0.70058 0.0
C742 C 0.10386 0.52687 0.68785 0.0
H743 H 0.07837 0.52632 0.61997 0.0
H744 H 0.09916 0.53685 0.64096 0.0
H745 H 0.05369 0.4812 0.67208 0.0
H746 H 0.06632 0.57176 0.72511 0.0
H747 H 0.05969 0.54431 0.70507 0.0
C748 C 0.46608 0.5969 0.87332 0.0
C749 C 0.48652 0.57255 0.87195 0.0
C750 C 0.46242 0.6112 0.88517 0.0
C751 C 0.49257 0.61431 0.91882 0.0
H752 H 0.40728 0.62757 0.92682 0.0
C753 C 0.4423 0.6142 0.97019 0.0
C754 C 0.4197 0.63586 0.97297 0.0
C755 C 0.45413 0.61173 0.95779 0.0
C756 C 0.43126 0.62443 0.92471 0.0
H757 H 0.52075 0.54551 0.88172 0.0
H758 H 0.51372 0.56962 0.9024 0.0
H759 H 0.42194 0.6151 0.90507 0.0
H760 H 0.39259 0.67263 0.96509 0.0
H761 H 0.41304 0.66811 0.94347 0.0
H762 H 0.50136 0.62221 0.93876 0.0
C763 C 0.50084 0.57823 0.89434 0.0
C764 C 0.43976 0.61743 0.91218 0.0
C765 C 0.50483 0.56427 0.88244 0.0
C766 C 0.40989 0.65561 0.96323 0.0
C767 C 0.42151 0.65299 0.95084 0.0
C768 C 0.48396 0.62099 0.93141 0.0
C769 C 0.47874 0.60111 0.89598 0.0
C770 C 0.47049 0.6119 0.90907 0.0
C771 C 0.44338 0.6307 0.94794 0.0
C772 C 0.45316 0.62579 0.9345 0.0
H773 H 0.45189 0.60402 0.86537 0.0
H774 H 0.44586 0.62936 0.88596 0.0
H775 H 0.51649 0.61066 0.91677 0.0
H776 H 0.45033 0.59871 0.97751 0.0
H777 H 0.47079 0.59418 0.9558 0.0
C778 C 0.39061 0.95988 0.13315 0.0
C779 C 0.40769 0.98664 0.13156 0.0
C780 C 0.37374 0.95506 0.14429 0.0
C781 C 0.37378 0.97818 0.17813 0.0
H782 H 0.30265 0.92592 0.17935 0.0
C783 C 0.34421 0.90833 0.22269 0.0
C784 C 0.31357 0.90249 0.2257 0.0
C785 C 0.3519 0.92358 0.21144 0.0
C786 C 0.32219 0.94097 0.17923 0.0
H787 H 0.41865 0.03032 0.14003 0.0
H788 H 0.38855 0.02222 0.15937 0.0
H789 H 0.32053 0.94511 0.15883 0.0
H790 H 0.26685 0.90869 0.21945 0.0
H791 H 0.28024 0.93591 0.19983 0.0
H792 H 0.37533 0.97424 0.19852 0.0
C793 C 0.38885 0.00459 0.15214 0.0
C794 C 0.33269 0.95168 0.16742 0.0
C795 C 0.40593 0.00934 0.141 0.0
C796 C 0.29069 0.91276 0.21734 0.0
C797 C 0.29838 0.92823 0.20608 0.0
C798 C 0.36313 0.9677 0.18993 0.0
C799 C 0.3733 0.97698 0.15409 0.0
C800 C 0.35918 0.96966 0.16669 0.0
C801 C 0.32912 0.93361 0.20294 0.0
C802 C 0.33778 0.94818 0.1906 0.0
H803 H 0.39137 0.94192 0.12606 0.0
H804 H 0.36241 0.93337 0.14547 0.0
H805 H 0.39436 0.99177 0.17799 0.0
H806 H 0.36239 0.90059 0.22892 0.0
H807 H 0.37582 0.92672 0.20925 0.0
C808 C 0.00505 0.60287 0.88795 0.0
C809 C 0.99764 0.57201 0.88938 0.0
C810 C 0.00803 0.61562 0.87572 0.0
C811 C 0.9989 0.59713 0.84056 0.0
H812 H 0.06449 0.65545 0.8372 0.0
C813 C 0.04667 0.62749 0.79068 0.0
C814 C 0.07805 0.63327 0.78988 0.0
C815 C 0.03224 0.62595 0.80262 0.0
C816 C 0.04639 0.63881 0.83789 0.0
H817 H 0.9864 0.53061 0.87911 0.0
H818 H 0.99323 0.55195 0.85808 0.0
H819 H 0.04715 0.64106 0.85826 0.0
H820 H 0.11908 0.6419 0.80082 0.0
H821 H 0.09479 0.63712 0.82154 0.0
H822 H 0.00023 0.59251 0.82027 0.0
C823 C 0.99567 0.567 0.86621 0.0
C824 C 0.03585 0.63102 0.85008 0.0
C825 C 0.99195 0.55455 0.87838 0.0
C826 C 0.09475 0.63768 0.80118 0.0
C827 C 0.0806 0.63524 0.8131 0.0
C828 C 0.0101 0.60418 0.82839 0.0
C829 C 0.00446 0.59758 0.86465 0.0
C830 C 0.01248 0.6094 0.85164 0.0
C831 C 0.04911 0.62921 0.81405 0.0
C832 C 0.03459 0.62455 0.82687 0.0
H833 H 0.00931 0.61696 0.89626 0.0
H834 H 0.01394 0.63944 0.875 0.0
H835 H 0.98016 0.5812 0.84123 0.0
H836 H 0.03325 0.62431 0.78207 0.0
H837 H 0.0079 0.62203 0.80282 0.0
C838 C 0.42534 0.49726 0.13603 0.0
C839 C 0.45367 0.48238 0.13658 0.0
C840 C 0.41242 0.50499 0.12423 0.0
C841 C 0.41887 0.49341 0.08893 0.0
H842 H 0.39016 0.57672 0.08762 0.0
C843 C 0.4095 0.56273 0.04196 0.0
C844 C 0.38504 0.58313 0.04073 0.0
C845 C 0.41411 0.5469 0.05342 0.0
C846 C 0.39759 0.55324 0.08782 0.0
H847 H 0.48967 0.4622 0.12513 0.0
H848 H 0.4674 0.47599 0.10463 0.0
H849 H 0.40383 0.55439 0.10809 0.0
H850 H 0.34556 0.60212 0.05034 0.0
H851 H 0.35344 0.57437 0.07025 0.0
H852 H 0.41339 0.49273 0.06853 0.0
C853 C 0.45496 0.4815 0.11328 0.0
C854 C 0.40538 0.54038 0.09959 0.0
C855 C 0.46782 0.47369 0.12507 0.0
C856 C 0.36476 0.58671 0.05102 0.0
C857 C 0.36935 0.57091 0.06246 0.0
C858 C 0.41112 0.50634 0.07712 0.0
C859 C 0.42757 0.49808 0.11272 0.0
C860 C 0.41647 0.51043 0.10029 0.0
C861 C 0.39435 0.55119 0.06387 0.0
C862 C 0.40072 0.53653 0.07642 0.0
H863 H 0.41372 0.50409 0.14472 0.0
H864 H 0.39098 0.51721 0.12413 0.0
H865 H 0.42699 0.47017 0.08914 0.0
H866 H 0.4255 0.55951 0.03418 0.0
H867 H 0.43376 0.53211 0.05423 0.0
C868 C 0.42318 0.99858 0.37406 0.0
C869 C 0.4496 0.01629 0.37244 0.0
C870 C 0.40575 0.98981 0.36347 0.0
C871 C 0.41719 0.97288 0.32972 0.0
H872 H 0.32924 0.96389 0.32873 0.0
C873 C 0.35706 0.89101 0.29501 0.0
C874 C 0.33141 0.90206 0.28844 0.0
C875 C 0.37012 0.90788 0.30492 0.0
C876 C 0.3538 0.96649 0.32884 0.0
H877 H 0.47698 0.04072 0.35853 0.0
H878 H 0.44652 0.02543 0.34009 0.0
H879 H 0.35321 0.99072 0.34667 0.0
H880 H 0.29905 0.93923 0.28719 0.0
H881 H 0.32179 0.96862 0.30465 0.0
H882 H 0.41794 0.94823 0.31206 0.0
C883 C 0.43959 0.01796 0.34953 0.0
C884 C 0.3675 0.98168 0.33912 0.0
C885 C 0.45693 0.02685 0.36012 0.0
C886 C 0.31887 0.93018 0.29207 0.0
C887 C 0.33176 0.94693 0.30209 0.0
C888 C 0.40356 0.95749 0.31953 0.0
C889 C 0.41446 0.99849 0.35105 0.0
C890 C 0.39937 0.98481 0.33971 0.0
C891 C 0.35764 0.93602 0.30856 0.0
C892 C 0.37177 0.95383 0.31905 0.0
H893 H 0.41681 0.99017 0.38343 0.0
H894 H 0.38654 0.97473 0.36494 0.0
H895 H 0.44183 0.97456 0.32997 0.0
H896 H 0.36718 0.86939 0.29244 0.0
H897 H 0.38985 0.89875 0.30985 0.0
C898 C 0.06778 0.9986 0.62002 0.0
C899 C 0.07009 0.97706 0.62991 0.0
C900 C 0.08508 0.99532 0.60885 0.0
C901 C 0.1517 0.95664 0.59472 0.0
H902 H 0.10276 0.95337 0.56383 0.0
C903 C 0.19167 0.89346 0.5495 0.0
C904 C 0.18189 0.90356 0.53744 0.0
C905 C 0.18119 0.90757 0.56065 0.0
C906 C 0.11704 0.95484 0.57226 0.0
H907 H 0.09366 0.93642 0.63624 0.0
H908 H 0.12422 0.93108 0.61687 0.0
H909 H 0.07973 0.97021 0.58378 0.0
H910 H 0.15458 0.93718 0.52751 0.0
H911 H 0.137 0.96248 0.54693 0.0
H912 H 0.18901 0.94113 0.58327 0.0
C913 C 0.10893 0.95032 0.6177 0.0
C914 C 0.10375 0.96446 0.58372 0.0
C915 C 0.0913 0.95329 0.62875 0.0
C916 C 0.1623 0.92875 0.5367 0.0
C917 C 0.15209 0.94312 0.54785 0.0
C918 C 0.16513 0.94739 0.58322 0.0
C919 C 0.10538 0.9708 0.60749 0.0
C920 C 0.12075 0.96477 0.59511 0.0
C921 C 0.16095 0.93237 0.55999 0.0
C922 C 0.14778 0.94562 0.5719 0.0
H923 H 0.05156 0.01711 0.62064 0.0
H924 H 0.08206 0.01152 0.60114 0.0
H925 H 0.16538 0.95696 0.60336 0.0
H926 H 0.20667 0.874 0.55037 0.0
H927 H 0.18816 0.89826 0.56979 0.0
C928 C 0.55106 0.44711 0.88852 0.0
C929 C 0.52296 0.4443 0.88215 0.0
C930 C 0.55403 0.4383 0.90126 0.0
C931 C 0.52493 0.39055 0.92664 0.0
H932 H 0.56196 0.4514 0.94862 0.0
C933 C 0.58631 0.36416 0.97429 0.0
C934 C 0.58383 0.38517 0.98437 0.0
C935 C 0.57236 0.3699 0.9625 0.0
C936 C 0.55116 0.4343 0.94269 0.0
H937 H 0.47631 0.4285 0.88398 0.0
H938 H 0.48184 0.41237 0.9064 0.0
H939 H 0.55053 0.46375 0.9264 0.0
H940 H 0.56354 0.42788 0.99026 0.0
H941 H 0.53931 0.43801 0.96961 0.0
H942 H 0.52656 0.36075 0.9429 0.0
C943 C 0.50136 0.42179 0.90144 0.0
C944 C 0.54488 0.44129 0.92994 0.0
C945 C 0.49823 0.43099 0.88864 0.0
C946 C 0.56598 0.41136 0.98263 0.0
C947 C 0.55219 0.41719 0.97082 0.0
C948 C 0.53155 0.3834 0.93941 0.0
C949 C 0.52911 0.42616 0.90793 0.0
C950 C 0.53231 0.41933 0.92173 0.0
C951 C 0.55582 0.39685 0.96054 0.0
C952 C 0.54522 0.40508 0.9475 0.0
H953 H 0.57067 0.45706 0.88382 0.0
H954 H 0.57582 0.44141 0.90599 0.0
H955 H 0.51525 0.37325 0.92047 0.0
H956 H 0.59982 0.34371 0.97536 0.0
H957 H 0.57583 0.35393 0.95474 0.0
C958 C 0.57393 0.00133 0.1388 0.0
C959 C 0.54486 0.98947 0.14145 0.0
C960 C 0.59394 0.00869 0.14876 0.0
C961 C 0.6058 0.00169 0.18414 0.0
H962 H 0.64496 0.08011 0.18004 0.0
C963 C 0.64445 0.07712 0.22644 0.0
C964 C 0.6722 0.09282 0.22526 0.0
C965 C 0.6329 0.06026 0.21618 0.0
C966 C 0.6346 0.05795 0.18128 0.0
H967 H 0.51473 0.97436 0.15664 0.0
H968 H 0.54911 0.98782 0.17395 0.0
H969 H 0.61822 0.0574 0.16203 0.0
H970 H 0.71002 0.10256 0.21254 0.0
H971 H 0.68968 0.07331 0.19458 0.0
H972 H 0.62119 0.00312 0.20362 0.0
C973 C 0.55681 0.99108 0.1642 0.0
C974 C 0.61932 0.04482 0.17093 0.0
C975 C 0.53694 0.98348 0.15424 0.0
C976 C 0.68852 0.09076 0.21372 0.0
C977 C 0.67684 0.07412 0.20343 0.0
C978 C 0.62087 0.01499 0.19454 0.0
C979 C 0.58522 0.00459 0.16161 0.0
C980 C 0.6043 0.01673 0.17226 0.0
C981 C 0.64874 0.05898 0.2045 0.0
C982 C 0.63504 0.04347 0.19326 0.0
H983 H 0.58086 0.00594 0.12904 0.0
H984 H 0.61592 0.01839 0.1464 0.0
H985 H 0.59495 0.9798 0.18547 0.0
H986 H 0.6314 0.07826 0.23523 0.0
H987 H 0.61103 0.04909 0.21725 0.0
C988 C 0.9061 0.06517 0.38281 0.0
C989 C 0.92471 0.0392 0.38214 0.0
C990 C 0.89173 0.07309 0.39426 0.0
C991 C 0.86859 0.04616 0.42619 0.0
H992 H 0.88435 0.1296 0.4362 0.0
C993 C 0.84451 0.09061 0.47742 0.0
C994 C 0.83372 0.12053 0.47862 0.0
C995 C 0.8542 0.0796 0.46553 0.0
C996 C 0.87924 0.10638 0.43351 0.0
H997 H 0.94099 -4e-05 0.39272 0.0
H998 H 0.91561 0.01376 0.41271 0.0
H999 H 0.90137 0.11161 0.41541 0.0
H1000 H 0.824 0.1622 0.46833 0.0
H1001 H 0.84003 0.14289 0.4476 0.0
H1002 H 0.84617 0.04101 0.44426 0.0
C1003 C 0.91233 0.02803 0.40438 0.0
C1004 C 0.88906 0.09607 0.42158 0.0
C1005 C 0.92692 0.02019 0.39293 0.0
C1006 C 0.83253 0.13914 0.46772 0.0
C1007 C 0.84188 0.12807 0.45584 0.0
C1008 C 0.85844 0.05659 0.43811 0.0
C1009 C 0.89545 0.05509 0.40525 0.0
C1010 C 0.88386 0.06588 0.41778 0.0
C1011 C 0.85302 0.09821 0.45458 0.0
C1012 C 0.86367 0.08686 0.44192 0.0
H1013 H 0.9037 0.08021 0.37466 0.0
H1014 H 0.87842 0.09382 0.39461 0.0
H1015 H 0.8642 0.0228 0.42347 0.0
H1016 H 0.84569 0.07577 0.48568 0.0
H1017 H 0.86303 0.05665 0.46497 0.0
C1018 C 0.91746 0.46971 0.62475 0.0
C1019 C 0.93448 0.49564 0.6215 0.0
C1020 C 0.90717 0.46541 0.63725 0.0
C1021 C 0.92706 0.48753 0.6702 0.0
H1022 H 0.85491 0.44032 0.67815 0.0
C1023 C 0.91417 0.4213 0.71751 0.0
C1024 C 0.88489 0.41689 0.72258 0.0
C1025 C 0.91798 0.43605 0.70576 0.0
C1026 C 0.87491 0.45399 0.6762 0.0
H1027 H 0.95211 0.5385 0.62865 0.0
H1028 H 0.93345 0.53133 0.65044 0.0
H1029 H 0.86288 0.45833 0.65645 0.0
H1030 H 0.83675 0.42578 0.71972 0.0
H1031 H 0.84338 0.45241 0.69948 0.0
H1032 H 0.93887 0.48352 0.69 0.0
C1033 C 0.92875 0.51393 0.64337 0.0
C1034 C 0.87968 0.46399 0.66367 0.0
C1035 C 0.9392 0.51818 0.63085 0.0
C1036 C 0.85959 0.42858 0.71596 0.0
C1037 C 0.8634 0.44368 0.70432 0.0
C1038 C 0.92213 0.47778 0.68277 0.0
C1039 C 0.91342 0.48705 0.64682 0.0
C1040 C 0.90619 0.48021 0.66044 0.0
C1041 C 0.89258 0.44705 0.69891 0.0
C1042 C 0.89635 0.46025 0.68587 0.0
H1043 H 0.91337 0.4519 0.6178 0.0
H1044 H 0.89575 0.44428 0.63954 0.0
H1045 H 0.94789 0.49973 0.66807 0.0
H1046 H 0.93407 0.41242 0.7224 0.0
H1047 H 0.94077 0.4378 0.70185 0.0
C1048 C 0.61584 0.03125 0.38352 0.0
C1049 C 0.59061 0.01161 0.38284 0.0
C1050 C 0.63134 0.0398 0.37239 0.0
C1051 C 0.64048 0.02256 0.33769 0.0
H1052 H 0.65304 0.10957 0.33491 0.0
C1053 C 0.69104 0.07976 0.29234 0.0
C1054 C 0.67677 0.10675 0.28834 0.0
C1055 C 0.6836 0.06659 0.30412 0.0
C1056 C 0.64961 0.08523 0.33552 0.0
H1057 H 0.56323 0.98391 0.37003 0.0
H1058 H 0.59005 0.99894 0.3507 0.0
H1059 H 0.63612 0.08798 0.35514 0.0
H1060 H 0.6433 0.14093 0.29346 0.0
H1061 H 0.6301 0.11785 0.31392 0.0
H1062 H 0.6529 0.02006 0.31789 0.0
C1063 C 0.59801 0.00768 0.3598 0.0
C1064 C 0.64033 0.07278 0.34717 0.0
C1065 C 0.58251 0.99917 0.37091 0.0
C1066 C 0.65475 0.12017 0.29629 0.0
C1067 C 0.64736 0.10706 0.30806 0.0
C1068 C 0.64984 0.03504 0.32602 0.0
C1069 C 0.622 0.02882 0.36036 0.0
C1070 C 0.63517 0.04136 0.34835 0.0
C1071 C 0.66182 0.08022 0.31215 0.0
C1072 C 0.65398 0.06659 0.32474 0.0
H1073 H 0.62279 0.04114 0.39256 0.0
H1074 H 0.65009 0.05574 0.37316 0.0
H1075 H 0.63696 0.99824 0.33831 0.0
H1076 H 0.70817 0.06895 0.28642 0.0
H1077 H 0.69528 0.04604 0.30703 0.0
C1078 C 0.88158 0.02186 0.63893 0.0
C1079 C 0.90776 0.00397 0.63704 0.0
C1080 C 0.8627 0.02937 0.62862 0.0
C1081 C 0.8465 0.01282 0.59427 0.0
H1082 H 0.83066 0.09945 0.59259 0.0
C1083 C 0.82866 0.07712 0.54687 0.0
C1084 C 0.80861 0.10201 0.54658 0.0
C1085 C 0.83443 0.0618 0.55833 0.0
C1086 C 0.83426 0.07511 0.59297 0.0
H1087 H 0.93327 0.97797 0.62301 0.0
H1088 H 0.9006 0.99129 0.60505 0.0
H1089 H 0.85123 0.0776 0.61212 0.0
H1090 H 0.77787 0.1296 0.55794 0.0
H1091 H 0.78777 0.10268 0.57797 0.0
H1092 H 0.83045 0.01064 0.57492 0.0
C1093 C 0.89451 0.99945 0.61449 0.0
C1094 C 0.84606 0.06254 0.6042 0.0
C1095 C 0.91338 0.99193 0.6248 0.0
C1096 C 0.79359 0.1106 0.55789 0.0
C1097 C 0.79935 0.09526 0.56937 0.0
C1098 C 0.83467 0.02542 0.58302 0.0
C1099 C 0.86956 0.01912 0.6162 0.0
C1100 C 0.85297 0.03136 0.6049 0.0
C1101 C 0.82025 0.07101 0.56976 0.0
C1102 C 0.82908 0.05684 0.58215 0.0
H1103 H 0.87642 0.0313 0.64826 0.0
H1104 H 0.84332 0.04411 0.63029 0.0
H1105 H 0.85116 0.98865 0.59456 0.0
H1106 H 0.84057 0.06995 0.53831 0.0
H1107 H 0.85095 0.04349 0.55831 0.0
C1108 C 0.95837 0.41263 0.88616 0.0
C1109 C 0.98607 0.42525 0.89032 0.0
C1110 C 0.95605 0.39918 0.87411 0.0
C1111 C 0.99204 0.40369 0.8424 0.0
H1112 H 0.931 0.34279 0.83452 0.0
C1113 C 0.93414 0.39655 0.79309 0.0
C1114 C 0.9227 0.36858 0.78878 0.0
C1115 C 0.94773 0.39888 0.80516 0.0
C1116 C 0.94861 0.35941 0.83647 0.0
H1117 H 0.03376 0.43149 0.88549 0.0
H1118 H 0.0299 0.40726 0.8645 0.0
H1119 H 0.94514 0.35196 0.85663 0.0
H1120 H 0.91806 0.32074 0.79333 0.0
H1121 H 0.9428 0.32447 0.81416 0.0
H1122 H 0.99579 0.41086 0.82222 0.0
C1123 C 0.00973 0.40849 0.87045 0.0
C1124 C 0.95642 0.36497 0.84922 0.0
C1125 C 0.01202 0.42213 0.88253 0.0
C1126 C 0.92638 0.34269 0.79649 0.0
C1127 C 0.94041 0.34489 0.80847 0.0
C1128 C 0.98451 0.39785 0.82963 0.0
C1129 C 0.98146 0.39775 0.86593 0.0
C1130 C 0.97742 0.38793 0.85238 0.0
C1131 C 0.9506 0.37316 0.81311 0.0
C1132 C 0.96195 0.37634 0.82651 0.0
H1133 H 0.93794 0.41451 0.89193 0.0
H1134 H 0.9338 0.39154 0.87096 0.0
H1135 H 0.0082 0.42167 0.84444 0.0
H1136 H 0.9315 0.4169 0.78736 0.0
H1137 H 0.95481 0.42114 0.80844 0.0
C1138 C 0.56326 0.51927 0.13973 0.0
C1139 C 0.57479 0.50526 0.15083 0.0
C1140 C 0.57692 0.51416 0.12785 0.0
C1141 C 0.62142 0.45422 0.11211 0.0
H1142 H 0.61762 0.5088 0.08301 0.0
C1143 C 0.65488 0.41457 0.06157 0.0
C1144 C 0.63383 0.42164 0.05187 0.0
C1145 C 0.65287 0.4285 0.07356 0.0
C1146 C 0.61878 0.49332 0.09106 0.0
H1147 H 0.61155 0.47754 0.15834 0.0
H1148 H 0.63597 0.46941 0.13766 0.0
H1149 H 0.60681 0.52818 0.10447 0.0
H1150 H 0.59478 0.44952 0.04696 0.0
H1151 H 0.59112 0.47374 0.06796 0.0
H1152 H 0.63277 0.41927 0.09872 0.0
C1153 C 0.61574 0.48349 0.13808 0.0
C1154 C 0.61261 0.5044 0.10335 0.0
C1155 C 0.6019 0.48837 0.14996 0.0
C1156 C 0.61128 0.44358 0.05427 0.0
C1157 C 0.60934 0.45761 0.06626 0.0
C1158 C 0.62776 0.44323 0.09987 0.0
C1159 C 0.60261 0.49518 0.12681 0.0
C1160 C 0.61326 0.48482 0.114 0.0
C1161 C 0.62983 0.44986 0.07609 0.0
C1162 C 0.62594 0.4625 0.08917 0.0
H1163 H 0.5424 0.53243 0.14004 0.0
H1164 H 0.56602 0.52342 0.11941 0.0
H1165 H 0.62154 0.43828 0.12001 0.0
H1166 H 0.67264 0.39787 0.05998 0.0
H1167 H 0.6692 0.42231 0.08089 0.0
loop_
_geom_bond_atom_site_label_1
_geom_bond_atom_site_label_2
_geom_bond_distance
_geom_bond_site_symmetry_2
_ccdc_geom_bond_type
Mg0 O7 2.141 1_545 S
Mg0 O8 2.048 1_545 S
Mg0 O9 2.048 1_455 S
Mg0 O12 2.141 1_455 S
C1 O2 1.313 . S
C1 O8 1.195 . S
O2 C1 1.313 . S
C3 O4 1.245 . S
C3 O12 1.289 . S
O4 C3 1.245 . S
C5 O6 1.245 . S
C5 O7 1.289 . S
O6 C5 1.245 . S
O7 Mg0 2.141 1_565 S
O7 C5 1.289 . S
O8 Mg0 2.048 1_565 S
O8 C1 1.195 . S
O9 Mg0 2.048 1_655 S
O9 C10 1.195 . S
C10 O9 1.195 . S
C10 O11 1.313 1_545 S
O11 C10 1.313 1_565 S
O12 Mg0 2.141 1_655 S
O12 C3 1.289 . S
Mg13 O20 2.141 1_655 S
Mg13 O21 2.048 1_655 S
Mg13 O22 2.048 . S
Mg13 O25 2.141 . S
C14 O15 1.313 . S
C14 O21 1.195 . S
O15 C14 1.313 . S
C16 O17 1.245 . S
C16 O25 1.289 . S
O17 C16 1.245 . S
C18 O19 1.245 . S
C18 O20 1.289 . S
O19 C18 1.245 . S
O20 Mg13 2.141 1_455 S
O20 C18 1.289 . S
O21 Mg13 2.048 1_455 S
O21 C14 1.195 . S
O22 Mg13 2.048 . S
O22 C23 1.195 . S
C23 O22 1.195 . S
C23 O24 1.313 1_655 S
O24 C23 1.313 1_455 S
O25 Mg13 2.141 . S
O25 C16 1.289 . S
Mg26 O33 2.141 . S
Mg26 O34 2.048 . S
Mg26 O35 2.048 . S
Mg26 O38 2.141 . S
C27 O28 1.313 . S
C27 O34 1.195 . S
O28 C27 1.313 . S
C29 O30 1.245 . S
C29 O38 1.289 . S
O30 C29 1.245 . S
C31 O32 1.245 . S
C31 O33 1.289 . S
O32 C31 1.245 . S
O33 Mg26 2.141 . S
O33 C31 1.289 . S
O34 Mg26 2.048 . S
O34 C27 1.195 . S
O35 Mg26 2.048 . S
O35 C36 1.195 . S
C36 O35 1.195 . S
C36 O37 1.313 . S
O37 C36 1.313 . S
O38 Mg26 2.141 . S
O38 C29 1.289 . S
Mg39 O46 2.141 . S
Mg39 O47 2.048 . S
Mg39 O48 2.048 1_545 S
Mg39 O51 2.141 1_545 S
C40 O41 1.313 . S
C40 O47 1.195 . S
O41 C40 1.313 . S
C42 O43 1.245 . S
C42 O51 1.289 . S
O43 C42 1.245 . S
C44 O45 1.245 . S
C44 O46 1.289 . S
O45 C44 1.245 . S
O46 Mg39 2.141 . S
O46 C44 1.289 . S
O47 Mg39 2.048 . S
O47 C40 1.195 . S
O48 Mg39 2.048 1_565 S
O48 C49 1.195 . S
C49 O48 1.195 . S
C49 O50 1.313 . S
O50 C49 1.313 . S
O51 Mg39 2.141 1_565 S
O51 C42 1.289 . S
Mg52 O59 2.141 . S
Mg52 O60 2.048 . S
Mg52 O61 2.048 1_455 S
Mg52 O64 2.141 1_455 S
C53 O54 1.313 . S
C53 O60 1.195 . S
O54 C53 1.313 . S
C55 O56 1.245 . S
C55 O64 1.289 . S
O56 C55 1.245 . S
C57 O58 1.245 . S
C57 O59 1.289 . S
O58 C57 1.245 . S
O59 Mg52 2.141 . S
O59 C57 1.289 . S
O60 Mg52 2.048 . S
O60 C53 1.195 . S
O61 Mg52 2.048 1_655 S
O61 C62 1.195 . S
C62 O61 1.195 . S
C62 O63 1.313 . S
O63 C62 1.313 . S
O64 Mg52 2.141 1_655 S
O64 C55 1.289 . S
Mg65 O72 2.141 . S
Mg65 O73 2.048 . S
Mg65 O74 2.048 . S
Mg65 O77 2.141 . S
C66 O67 1.313 . S
C66 O73 1.195 . S
O67 C66 1.313 . S
C68 O69 1.245 . S
C68 O77 1.289 . S
O69 C68 1.245 . S
C70 O71 1.245 . S
C70 O72 1.289 . S
O71 C70 1.245 . S
O72 Mg65 2.141 . S
O72 C70 1.289 . S
O73 Mg65 2.048 . S
O73 C66 1.195 . S
O74 Mg65 2.048 . S
O74 C75 1.195 . S
C75 O74 1.195 . S
C75 O76 1.313 . S
O76 C75 1.313 . S
O77 Mg65 2.141 . S
O77 C68 1.289 . S
Mg78 O85 2.141 1_565 S
Mg78 O86 2.048 1_565 S
Mg78 O87 2.048 . S
Mg78 O90 2.141 . S
C79 O80 1.313 . S
C79 O86 1.195 . S
O80 C79 1.313 . S
C81 O82 1.261 . S
C81 O90 1.289 . S
O82 C81 1.261 . S
C83 O84 1.245 . S
C83 O85 1.289 . S
O84 C83 1.245 . S
O85 Mg78 2.141 1_545 S
O85 C83 1.289 . S
O86 Mg78 2.048 1_545 S
O86 C79 1.195 . S
O87 Mg78 2.048 . S
O87 C88 1.195 . S
C88 O87 1.195 . S
C88 O89 1.313 1_565 S
O89 C88 1.313 1_545 S
O90 Mg78 2.141 . S
O90 C81 1.289 . S
Mg91 O98 2.141 1_655 S
Mg91 O99 2.048 1_655 S
Mg91 O100 2.048 1_565 S
Mg91 O103 2.141 1_565 S
C92 O93 1.313 . S
C92 O99 1.195 . S
O93 C92 1.313 . S
C94 O95 1.245 . S
C94 O103 1.289 . S
O95 C94 1.245 . S
C96 O97 1.245 . S
C96 O98 1.289 . S
O97 C96 1.245 . S
O98 Mg91 2.141 1_455 S
O98 C96 1.289 . S
O99 Mg91 2.048 1_455 S
O99 C92 1.195 . S
O100 Mg91 2.048 1_545 S
O100 C101 1.195 . S
C101 O100 1.195 . S
C101 O102 1.313 1_655 S
O102 C101 1.313 1_455 S
O103 Mg91 2.141 1_545 S
O103 C94 1.289 . S
In104 O105 2.294 . S
In104 O106 2.326 . S
In104 O110 2.266 . S
In104 O111 2.339 . S
In104 O112 2.266 1_554 S
In104 O113 2.326 1_554 S
In104 O115 2.294 . S
In104 O116 2.326 . S
O105 In104 2.294 . S
O105 C114 1.240 . S
O106 In104 2.326 . S
O106 C114 1.252 . S
C107 O110 1.252 1_556 S
C107 O111 1.255 1_556 S
C108 O115 1.240 . S
C108 O116 1.252 . S
C109 O112 1.252 . S
C109 O113 1.260 . S
O110 In104 2.266 . S
O110 C107 1.252 1_554 S
O111 In104 2.339 . S
O111 C107 1.255 1_554 S
O112 In104 2.266 1_556 S
O112 C109 1.252 . S
O113 In104 2.326 1_556 S
O113 C109 1.260 . S
C114 O105 1.240 . S
C114 O106 1.252 . S
O115 In104 2.294 . S
O115 C108 1.240 . S
O116 In104 2.326 . S
O116 C108 1.252 . S
In117 O118 2.294 . S
In117 O119 2.326 . S
In117 O123 2.266 . S
In117 O124 2.326 . S
In117 O125 2.266 . S
In117 O126 2.326 . S
In117 O128 2.294 . S
In117 O129 2.326 . S
O118 In117 2.294 . S
O118 C127 1.240 . S
O119 In117 2.326 . S
O119 C127 1.252 . S
C120 O123 1.252 . S
C120 O124 1.260 . S
C121 O128 1.240 . S
C121 O129 1.252 . S
C122 O125 1.252 . S
C122 O126 1.260 . S
O123 In117 2.266 . S
O123 C120 1.252 . S
O124 In117 2.326 . S
O124 C120 1.260 . S
O125 In117 2.266 . S
O125 C122 1.252 . S
O126 In117 2.326 . S
O126 C122 1.260 . S
C127 O118 1.240 . S
C127 O119 1.252 . S
O128 In117 2.294 . S
O128 C121 1.240 . S
O129 In117 2.326 . S
O129 C121 1.252 . S
In130 O131 2.294 . S
In130 O132 2.326 . S
In130 O136 2.266 . S
In130 O137 2.326 . S
In130 O138 2.266 . S
In130 O139 2.326 . S
In130 O141 2.294 . S
In130 O142 2.326 . S
O131 In130 2.294 . S
O131 C140 1.240 . S
O132 In130 2.326 . S
O132 C140 1.252 . S
C133 O136 1.252 . S
C133 O137 1.260 . S
C134 O141 1.240 . S
C134 O142 1.252 . S
C135 O138 1.252 . S
C135 O139 1.260 . S
O136 In130 2.266 . S
O136 C133 1.252 . S
O137 In130 2.326 . S
O137 C133 1.260 . S
O138 In130 2.266 . S
O138 C135 1.252 . S
O139 In130 2.326 . S
O139 C135 1.260 . S
C140 O131 1.240 . S
C140 O132 1.252 . S
O141 In130 2.294 . S
O141 C134 1.240 . S
O142 In130 2.326 . S
O142 C134 1.252 . S
In143 O144 2.294 . S
In143 O145 2.326 . S
In143 O149 2.266 . S
In143 O150 2.326 . S
In143 O151 2.266 . S
In143 O152 2.326 . S
In143 O154 2.294 . S
In143 O155 2.326 . S
O144 In143 2.294 . S
O144 C153 1.240 . S
O145 In143 2.326 . S
O145 C153 1.252 . S
C146 O149 1.252 . S
C146 O150 1.260 . S
C147 O154 1.240 . S
C147 O155 1.252 . S
C148 O151 1.252 . S
C148 O152 1.260 . S
O149 In143 2.266 . S
O149 C146 1.252 . S
O150 In143 2.326 . S
O150 C146 1.260 . S
O151 In143 2.266 . S
O151 C148 1.252 . S
O152 In143 2.326 . S
O152 C148 1.260 . S
C153 O144 1.240 . S
C153 O145 1.252 . S
O154 In143 2.294 . S
O154 C147 1.240 . S
O155 In143 2.326 . S
O155 C147 1.252 . S
In156 O157 2.294 . S
In156 O158 2.326 . S
In156 O162 2.266 . S
In156 O163 2.326 . S
In156 O164 2.266 . S
In156 O165 2.326 . S
In156 O167 2.294 . S
In156 O168 2.326 . S
O157 In156 2.294 . S
O157 C166 1.240 . S
O158 In156 2.326 . S
O158 C166 1.252 . S
C159 O162 1.252 . S
C159 O163 1.260 . S
C160 O167 1.240 . S
C160 O168 1.252 . S
C161 O164 1.252 . S
C161 O165 1.260 . S
O162 In156 2.266 . S
O162 C159 1.252 . S
O163 In156 2.326 . S
O163 C159 1.260 . S
O164 In156 2.266 . S
O164 C161 1.252 . S
O165 In156 2.326 . S
O165 C161 1.260 . S
C166 O157 1.240 . S
C166 O158 1.252 . S
O167 In156 2.294 . S
O167 C160 1.240 . S
O168 In156 2.326 . S
O168 C160 1.252 . S
In169 O170 2.294 . S
In169 O171 2.326 . S
In169 O175 2.266 . S
In169 O176 2.326 . S
In169 O177 2.266 . S
In169 O178 2.326 . S
In169 O180 2.294 . S
In169 O181 2.326 . S
O170 In169 2.294 . S
O170 C179 1.240 . S
O171 In169 2.326 . S
O171 C179 1.252 . S
C172 O175 1.252 . S
C172 O176 1.260 . S
C173 O180 1.240 . S
C173 O181 1.252 . S
C174 O177 1.252 . S
C174 O178 1.260 . S
O175 In169 2.266 . S
O175 C172 1.252 . S
O176 In169 2.326 . S
O176 C172 1.260 . S
O177 In169 2.266 . S
O177 C174 1.252 . S
O178 In169 2.326 . S
O178 C174 1.260 . S
C179 O170 1.240 . S
C179 O171 1.252 . S
O180 In169 2.294 . S
O180 C173 1.240 . S
O181 In169 2.326 . S
O181 C173 1.252 . S
In182 O183 2.294 . S
In182 O184 2.326 . S
In182 O188 2.266 . S
In182 O189 2.340 . S
In182 O190 2.266 1_554 S
In182 O191 2.326 1_554 S
In182 O193 2.294 . S
In182 O194 2.326 . S
O183 In182 2.294 . S
O183 C192 1.240 . S
O184 In182 2.326 . S
O184 C192 1.252 . S
C185 O188 1.252 1_556 S
C185 O189 1.255 1_556 S
C186 O193 1.240 . S
C186 O194 1.252 . S
C187 O190 1.252 . S
C187 O191 1.260 . S
O188 In182 2.266 . S
O188 C185 1.252 1_554 S
O189 In182 2.340 . S
O189 C185 1.255 1_554 S
O190 In182 2.266 1_556 S
O190 C187 1.252 . S
O191 In182 2.326 1_556 S
O191 C187 1.260 . S
C192 O183 1.240 . S
C192 O184 1.252 . S
O193 In182 2.294 . S
O193 C186 1.240 . S
O194 In182 2.326 . S
O194 C186 1.252 . S
In195 O196 2.294 . S
In195 O197 2.326 . S
In195 O201 2.266 . S
In195 O202 2.326 . S
In195 O203 2.266 . S
In195 O204 2.326 . S
In195 O206 2.294 . S
In195 O207 2.326 . S
O196 In195 2.294 . S
O196 C205 1.240 . S
O197 In195 2.326 . S
O197 C205 1.252 . S
C198 O201 1.252 . S
C198 O202 1.260 . S
C199 O206 1.240 . S
C199 O207 1.252 . S
C200 O203 1.252 . S
C200 O204 1.260 . S
O201 In195 2.266 . S
O201 C198 1.252 . S
O202 In195 2.326 . S
O202 C198 1.260 . S
O203 In195 2.266 . S
O203 C200 1.252 . S
O204 In195 2.326 . S
O204 C200 1.260 . S
C205 O196 1.240 . S
C205 O197 1.252 . S
O206 In195 2.294 . S
O206 C199 1.240 . S
O207 In195 2.326 . S
O207 C199 1.252 . S
C208 C209 1.349 . S
C208 C210 1.327 . S
C208 H233 0.950 . S
C209 C208 1.349 . S
C209 C225 1.349 . S
C210 C208 1.327 . S
C210 C229 1.429 . S
C210 H234 0.950 . S
C211 C228 1.574 . S
C211 C230 1.368 . S
C211 H235 0.949 . S
H212 C216 0.949 . S
C213 C214 1.349 . S
C213 C215 1.327 . S
C213 H236 0.950 . S
C214 C213 1.349 . S
C214 C226 1.349 . S
C215 C213 1.327 . S
C215 C231 1.429 . S
C215 H237 0.950 . S
C216 H212 0.949 . S
C216 C224 1.574 . S
C216 C232 1.368 . S
H217 C225 0.950 . S
H218 C223 0.950 . S
H219 C224 0.949 . S
H220 C226 0.950 . S
H221 C227 0.950 . S
H222 C228 0.949 . S
C223 H218 0.950 . S
C223 C225 1.327 . S
C223 C229 1.429 . S
C224 C216 1.574 . S
C224 H219 0.949 . S
C224 C230 1.368 . S
C225 C209 1.349 . S
C225 H217 0.950 . S
C225 C223 1.327 . S
C226 C214 1.349 . S
C226 H220 0.950 . S
C226 C227 1.327 . S
C227 H221 0.950 . S
C227 C226 1.327 . S
C227 C231 1.429 . S
C228 C211 1.574 . S
C228 H222 0.949 . S
C228 C232 1.368 . S
C229 C210 1.429 . S
C229 C223 1.429 . S
C229 C230 1.523 . S
C230 C211 1.368 . S
C230 C224 1.368 . S
C230 C229 1.523 . S
C231 C215 1.429 . S
C231 C227 1.429 . S
C231 C232 1.523 . S
C232 C216 1.368 . S
C232 C228 1.368 . S
C232 C231 1.523 . S
H233 C208 0.950 . S
H234 C210 0.950 . S
H235 C211 0.949 . S
H236 C213 0.950 . S
H237 C215 0.950 . S
C238 C239 1.349 . S
C238 C240 1.327 . S
C238 H263 0.950 . S
C239 C238 1.349 . S
C239 C255 1.349 . S
C240 C238 1.327 . S
C240 C259 1.429 . S
C240 H264 0.950 . S
C241 C258 1.574 . S
C241 C260 1.368 . S
C241 H265 0.949 . S
H242 C246 0.949 . S
C243 C244 1.349 . S
C243 C245 1.327 . S
C243 H266 0.950 . S
C244 C243 1.349 . S
C244 C256 1.349 . S
C245 C243 1.327 . S
C245 C261 1.429 . S
C245 H267 0.950 . S
C246 H242 0.949 . S
C246 C254 1.574 . S
C246 C262 1.368 . S
H247 C255 0.950 . S
H248 C253 0.950 . S
H249 C254 0.949 . S
H250 C256 0.950 . S
H251 C257 0.950 . S
H252 C258 0.949 . S
C253 H248 0.950 . S
C253 C255 1.327 . S
C253 C259 1.429 . S
C254 C246 1.574 . S
C254 H249 0.949 . S
C254 C260 1.368 . S
C255 C239 1.349 . S
C255 H247 0.950 . S
C255 C253 1.327 . S
C256 C244 1.349 . S
C256 H250 0.950 . S
C256 C257 1.327 . S
C257 H251 0.950 . S
C257 C256 1.327 . S
C257 C261 1.429 . S
C258 C241 1.574 . S
C258 H252 0.949 . S
C258 C262 1.368 . S
C259 C240 1.429 . S
C259 C253 1.429 . S
C259 C260 1.523 . S
C260 C241 1.368 . S
C260 C254 1.368 . S
C260 C259 1.523 . S
C261 C245 1.429 . S
C261 C257 1.429 . S
C261 C262 1.523 . S
C262 C246 1.368 . S
C262 C258 1.368 . S
C262 C261 1.523 . S
H263 C238 0.950 . S
H264 C240 0.950 . S
H265 C241 0.949 . S
H266 C243 0.950 . S
H267 C245 0.950 . S
C268 C269 1.349 . S
C268 C270 1.327 . S
C268 H293 0.950 . S
C269 C268 1.349 . S
C269 C285 1.349 . S
C270 C268 1.327 . S
C270 C289 1.429 . S
C270 H294 0.950 . S
C271 C288 1.574 . S
C271 C290 1.368 . S
C271 H295 0.949 . S
H272 C276 0.949 . S
C273 C274 1.349 . S
C273 C275 1.327 . S
C273 H296 0.950 . S
C274 C273 1.349 . S
C274 C286 1.349 . S
C275 C273 1.327 . S
C275 C291 1.429 . S
C275 H297 0.950 . S
C276 H272 0.949 . S
C276 C284 1.574 . S
C276 C292 1.368 . S
H277 C285 0.950 . S
H278 C283 0.950 . S
H279 C284 0.949 . S
H280 C286 0.950 . S
H281 C287 0.950 . S
H282 C288 0.949 . S
C283 H278 0.950 . S
C283 C285 1.327 . S
C283 C289 1.429 . S
C284 C276 1.574 . S
C284 H279 0.949 . S
C284 C290 1.368 . S
C285 C269 1.349 . S
C285 H277 0.950 . S
C285 C283 1.327 . S
C286 C274 1.349 . S
C286 H280 0.950 . S
C286 C287 1.327 . S
C287 H281 0.950 . S
C287 C286 1.327 . S
C287 C291 1.429 . S
C288 C271 1.574 . S
C288 H282 0.949 . S
C288 C292 1.368 . S
C289 C270 1.429 . S
C289 C283 1.429 . S
C289 C290 1.523 . S
C290 C271 1.368 . S
C290 C284 1.368 . S
C290 C289 1.523 . S
C291 C275 1.429 . S
C291 C287 1.429 . S
C291 C292 1.523 . S
C292 C276 1.368 . S
C292 C288 1.368 . S
C292 C291 1.523 . S
H293 C268 0.950 . S
H294 C270 0.950 . S
H295 C271 0.949 . S
H296 C273 0.950 . S
H297 C275 0.950 . S
C298 C299 1.349 . S
C298 C300 1.327 . S
C298 H323 0.950 . S
C299 C298 1.349 . S
C299 C315 1.349 . S
C300 C298 1.327 . S
C300 C319 1.429 . S
C300 H324 0.950 . S
C301 C318 1.574 . S
C301 C320 1.368 . S
C301 H325 0.949 . S
H302 C306 0.949 . S
C303 C304 1.349 . S
C303 C305 1.327 . S
C303 H326 0.950 . S
C304 C303 1.349 . S
C304 C316 1.349 . S
C305 C303 1.327 . S
C305 C321 1.429 . S
C305 H327 0.950 . S
C306 H302 0.949 . S
C306 C314 1.574 . S
C306 C322 1.368 . S
H307 C315 0.950 . S
H308 C313 0.950 . S
H309 C314 0.949 . S
H310 C316 0.950 . S
H311 C317 0.950 . S
H312 C318 0.949 . S
C313 H308 0.950 . S
C313 C315 1.327 . S
C313 C319 1.429 . S
C314 C306 1.574 . S
C314 H309 0.949 . S
C314 C320 1.368 . S
C315 C299 1.349 . S
C315 H307 0.950 . S
C315 C313 1.327 . S
C316 C304 1.349 . S
C316 H310 0.950 . S
C316 C317 1.327 . S
C317 H311 0.950 . S
C317 C316 1.327 . S
C317 C321 1.429 . S
C318 C301 1.574 . S
C318 H312 0.949 . S
C318 C322 1.368 . S
C319 C300 1.429 . S
C319 C313 1.429 . S
C319 C320 1.523 . S
C320 C301 1.368 . S
C320 C314 1.368 . S
C320 C319 1.523 . S
C321 C305 1.429 . S
C321 C317 1.429 . S
C321 C322 1.523 . S
C322 C306 1.368 . S
C322 C318 1.368 . S
C322 C321 1.523 . S
H323 C298 0.950 . S
H324 C300 0.950 . S
H325 C301 0.949 . S
H326 C303 0.950 . S
H327 C305 0.950 . S
C328 C329 1.349 . S
C328 C330 1.327 . S
C328 H353 0.950 . S
C329 C328 1.349 . S
C329 C345 1.349 . S
C330 C328 1.327 . S
C330 C349 1.429 . S
C330 H354 0.950 . S
C331 C348 1.574 . S
C331 C350 1.368 . S
C331 H355 0.949 . S
H332 C336 0.949 . S
C333 C334 1.349 . S
C333 C335 1.327 . S
C333 H356 0.950 . S
C334 C333 1.349 . S
C334 C346 1.349 . S
C335 C333 1.327 . S
C335 C351 1.429 . S
C335 H357 0.950 . S
C336 H332 0.949 . S
C336 C344 1.574 . S
C336 C352 1.368 . S
H337 C345 0.950 . S
H338 C343 0.950 . S
H339 C344 0.949 . S
H340 C346 0.950 1_554 S
H341 C347 0.950 . S
H342 C348 0.949 . S
C343 H338 0.950 . S
C343 C345 1.327 . S
C343 C349 1.429 . S
C344 C336 1.574 . S
C344 H339 0.949 . S
C344 C350 1.368 . S
C345 C329 1.349 . S
C345 H337 0.950 . S
C345 C343 1.327 . S
C346 C334 1.349 . S
C346 H340 0.950 1_556 S
C346 C347 1.327 . S
C347 H341 0.950 . S
C347 C346 1.327 . S
C347 C351 1.429 . S
C348 C331 1.574 . S
C348 H342 0.949 . S
C348 C352 1.368 . S
C349 C330 1.429 . S
C349 C343 1.429 . S
C349 C350 1.523 . S
C350 C331 1.368 . S
C350 C344 1.368 . S
C350 C349 1.523 . S
C351 C335 1.429 . S
C351 C347 1.429 . S
C351 C352 1.523 . S
C352 C336 1.368 . S
C352 C348 1.368 . S
C352 C351 1.523 . S
H353 C328 0.950 . S
H354 C330 0.950 . S
H355 C331 0.949 . S
H356 C333 0.950 . S
H357 C335 0.950 . S
C358 C359 1.349 . S
C358 C360 1.327 . S
C358 H383 0.950 . S
C359 C358 1.349 . S
C359 C375 1.349 . S
C360 C358 1.327 . S
C360 C379 1.429 . S
C360 H384 0.950 . S
C361 C378 1.574 . S
C361 C380 1.368 . S
C361 H385 0.949 . S
H362 C366 0.949 . S
C363 C364 1.349 . S
C363 C365 1.327 . S
C363 H386 0.950 . S
C364 C363 1.349 . S
C364 C376 1.349 . S
C365 C363 1.327 . S
C365 C381 1.429 . S
C365 H387 0.950 . S
C366 H362 0.949 . S
C366 C374 1.574 . S
C366 C382 1.368 . S
H367 C375 0.950 . S
H368 C373 0.950 . S
H369 C374 0.949 . S
H370 C376 0.950 . S
H371 C377 0.950 . S
H372 C378 0.949 . S
C373 H368 0.950 . S
C373 C375 1.327 . S
C373 C379 1.429 . S
C374 C366 1.574 . S
C374 H369 0.949 . S
C374 C380 1.368 . S
C375 C359 1.349 . S
C375 H367 0.950 . S
C375 C373 1.327 . S
C376 C364 1.349 . S
C376 H370 0.950 . S
C376 C377 1.327 . S
C377 H371 0.950 . S
C377 C376 1.327 . S
C377 C381 1.429 . S
C378 C361 1.574 . S
C378 H372 0.949 . S
C378 C382 1.368 . S
C379 C360 1.429 . S
C379 C373 1.429 . S
C379 C380 1.523 . S
C380 C361 1.368 . S
C380 C374 1.368 . S
C380 C379 1.523 . S
C381 C365 1.429 . S
C381 C377 1.429 . S
C381 C382 1.523 . S
C382 C366 1.368 . S
C382 C378 1.368 . S
C382 C381 1.523 . S
H383 C358 0.950 . S
H384 C360 0.950 . S
H385 C361 0.949 . S
H386 C363 0.950 . S
H387 C365 0.950 . S
C388 C389 1.349 . S
C388 C390 1.327 . S
C388 H413 0.950 . S
C389 C388 1.349 . S
C389 C405 1.349 . S
C390 C388 1.327 . S
C390 C409 1.429 . S
C390 H414 0.950 . S
C391 C408 1.574 . S
C391 C410 1.368 . S
C391 H415 0.949 . S
H392 C396 0.949 . S
C393 C394 1.349 . S
C393 C395 1.327 . S
C393 H416 0.950 . S
C394 C393 1.349 . S
C394 C406 1.349 . S
C395 C393 1.327 . S
C395 C411 1.429 . S
C395 H417 0.950 . S
C396 H392 0.949 . S
C396 C404 1.574 . S
C396 C412 1.368 . S
H397 C405 0.950 . S
H398 C403 0.950 . S
H399 C404 0.949 . S
H400 C406 0.950 . S
H401 C407 0.950 . S
H402 C408 0.949 . S
C403 H398 0.950 . S
C403 C405 1.327 . S
C403 C409 1.429 . S
C404 C396 1.574 . S
C404 H399 0.949 . S
C404 C410 1.368 . S
C405 C389 1.349 . S
C405 H397 0.950 . S
C405 C403 1.327 . S
C406 C394 1.349 . S
C406 H400 0.950 . S
C406 C407 1.327 . S
C407 H401 0.950 . S
C407 C406 1.327 . S
C407 C411 1.429 . S
C408 C391 1.574 . S
C408 H402 0.949 . S
C408 C412 1.368 . S
C409 C390 1.429 . S
C409 C403 1.429 . S
C409 C410 1.523 . S
C410 C391 1.368 . S
C410 C404 1.368 . S
C410 C409 1.523 . S
C411 C395 1.429 . S
C411 C407 1.429 . S
C411 C412 1.523 . S
C412 C396 1.368 . S
C412 C408 1.368 . S
C412 C411 1.523 . S
H413 C388 0.950 . S
H414 C390 0.950 . S
H415 C391 0.949 . S
H416 C393 0.950 . S
H417 C395 0.950 . S
C418 C419 1.349 . S
C418 C420 1.327 . S
C418 H443 0.950 . S
C419 C418 1.349 . S
C419 C435 1.349 . S
C420 C418 1.327 . S
C420 C439 1.429 . S
C420 H444 0.950 . S
C421 C438 1.574 . S
C421 C440 1.368 . S
C421 H445 0.949 . S
H422 C426 0.949 . S
C423 C424 1.349 . S
C423 C425 1.327 . S
C423 H446 0.950 . S
C424 C423 1.349 . S
C424 C436 1.349 . S
C425 C423 1.327 . S
C425 C441 1.429 . S
C425 H447 0.950 . S
C426 H422 0.949 . S
C426 C434 1.574 . S
C426 C442 1.368 . S
H427 C435 0.950 . S
H428 C433 0.950 . S
H429 C434 0.949 . S
H430 C436 0.950 . S
H431 C437 0.950 . S
H432 C438 0.949 . S
C433 H428 0.950 . S
C433 C435 1.327 . S
C433 C439 1.429 . S
C434 C426 1.574 . S
C434 H429 0.949 . S
C434 C440 1.368 . S
C435 C419 1.349 . S
C435 H427 0.950 . S
C435 C433 1.327 . S
C436 C424 1.349 . S
C436 H430 0.950 . S
C436 C437 1.327 . S
C437 H431 0.950 . S
C437 C436 1.327 . S
C437 C441 1.429 . S
C438 C421 1.574 . S
C438 H432 0.949 . S
C438 C442 1.368 . S
C439 C420 1.429 . S
C439 C433 1.429 . S
C439 C440 1.523 . S
C440 C421 1.368 . S
C440 C434 1.368 . S
C440 C439 1.523 . S
C441 C425 1.429 . S
C441 C437 1.429 . S
C441 C442 1.523 . S
C442 C426 1.368 . S
C442 C438 1.368 . S
C442 C441 1.523 . S
H443 C418 0.950 . S
H444 C420 0.950 . S
H445 C421 0.949 . S
H446 C423 0.950 . S
H447 C425 0.950 . S
C448 C449 1.349 . S
C448 C450 1.327 . S
C448 H473 0.950 . S
C449 C448 1.349 . S
C449 C465 1.349 . S
C450 C448 1.327 . S
C450 C469 1.429 . S
C450 H474 0.950 . S
C451 C468 1.574 . S
C451 C470 1.368 . S
C451 H475 0.949 . S
H452 C456 0.949 . S
C453 C454 1.349 . S
C453 C455 1.327 . S
C453 H476 0.950 . S
C454 C453 1.349 . S
C454 C466 1.349 . S
C455 C453 1.327 . S
C455 C471 1.429 . S
C455 H477 0.950 . S
C456 H452 0.949 . S
C456 C464 1.574 . S
C456 C472 1.368 . S
H457 C465 0.950 . S
H458 C463 0.950 . S
H459 C464 0.949 . S
H460 C466 0.950 . S
H461 C467 0.950 . S
H462 C468 0.949 . S
C463 H458 0.950 . S
C463 C465 1.327 . S
C463 C469 1.429 . S
C464 C456 1.574 . S
C464 H459 0.949 . S
C464 C470 1.368 . S
C465 C449 1.349 . S
C465 H457 0.950 . S
C465 C463 1.327 . S
C466 C454 1.349 . S
C466 H460 0.950 . S
C466 C467 1.327 . S
C467 H461 0.950 . S
C467 C466 1.327 . S
C467 C471 1.429 . S
C468 C451 1.574 . S
C468 H462 0.949 . S
C468 C472 1.368 . S
C469 C450 1.429 . S
C469 C463 1.429 . S
C469 C470 1.523 . S
C470 C451 1.368 . S
C470 C464 1.368 . S
C470 C469 1.523 . S
C471 C455 1.429 . S
C471 C467 1.429 . S
C471 C472 1.523 . S
C472 C456 1.368 . S
C472 C468 1.368 . S
C472 C471 1.523 . S
H473 C448 0.950 . S
H474 C450 0.950 . S
H475 C451 0.949 . S
H476 C453 0.950 . S
H477 C455 0.950 . S
C478 C479 1.349 . S
C478 C480 1.327 . S
C478 H503 0.950 . S
C479 C478 1.349 . S
C479 C495 1.349 . S
C480 C478 1.327 . S
C480 C499 1.429 . S
C480 H504 0.950 . S
C481 C498 1.574 . S
C481 C500 1.368 . S
C481 H505 0.949 . S
H482 C486 0.949 . S
C483 C484 1.349 . S
C483 C485 1.327 . S
C483 H506 0.950 . S
C484 C483 1.349 . S
C484 C496 1.349 . S
C485 C483 1.327 . S
C485 C501 1.429 . S
C485 H507 0.950 . S
C486 H482 0.949 . S
C486 C494 1.574 . S
C486 C502 1.368 . S
H487 C495 0.950 . S
H488 C493 0.950 . S
H489 C494 0.949 . S
H490 C496 0.950 . S
H491 C497 0.950 . S
H492 C498 0.949 . S
C493 H488 0.950 . S
C493 C495 1.327 . S
C493 C499 1.429 . S
C494 C486 1.574 . S
C494 H489 0.949 . S
C494 C500 1.368 . S
C495 C479 1.349 . S
C495 H487 0.950 . S
C495 C493 1.327 . S
C496 C484 1.349 . S
C496 H490 0.950 . S
C496 C497 1.327 . S
C497 H491 0.950 . S
C497 C496 1.327 . S
C497 C501 1.429 . S
C498 C481 1.574 . S
C498 H492 0.949 . S
C498 C502 1.368 . S
C499 C480 1.429 . S
C499 C493 1.429 . S
C499 C500 1.523 . S
C500 C481 1.368 . S
C500 C494 1.368 . S
C500 C499 1.523 . S
C501 C485 1.429 . S
C501 C497 1.429 . S
C501 C502 1.523 . S
C502 C486 1.368 . S
C502 C498 1.368 . S
C502 C501 1.523 . S
H503 C478 0.950 . S
H504 C480 0.950 . S
H505 C481 0.949 . S
H506 C483 0.950 . S
H507 C485 0.950 . S
C508 C509 1.349 . S
C508 C510 1.327 . S
C508 H533 0.950 . S
C509 C508 1.349 . S
C509 C525 1.349 . S
C510 C508 1.327 . S
C510 C529 1.429 . S
C510 H534 0.950 . S
C511 C528 1.574 . S
C511 C530 1.368 . S
C511 H535 0.949 . S
H512 C516 0.949 . S
C513 C514 1.349 . S
C513 C515 1.327 . S
C513 H536 0.950 . S
C514 C513 1.349 . S
C514 C526 1.349 . S
C515 C513 1.327 . S
C515 C531 1.429 . S
C515 H537 0.950 . S
C516 H512 0.949 . S
C516 C524 1.574 . S
C516 C532 1.368 . S
H517 C525 0.950 . S
H518 C523 0.950 . S
H519 C524 0.949 . S
H520 C526 0.950 . S
H521 C527 0.950 . S
H522 C528 0.949 . S
C523 H518 0.950 . S
C523 C525 1.327 . S
C523 C529 1.429 . S
C524 C516 1.574 . S
C524 H519 0.949 . S
C524 C530 1.368 . S
C525 C509 1.349 . S
C525 H517 0.950 . S
C525 C523 1.327 . S
C526 C514 1.349 . S
C526 H520 0.950 . S
C526 C527 1.327 . S
C527 H521 0.950 . S
C527 C526 1.327 . S
C527 C531 1.429 . S
C528 C511 1.574 . S
C528 H522 0.949 . S
C528 C532 1.368 . S
C529 C510 1.429 . S
C529 C523 1.429 . S
C529 C530 1.523 . S
C530 C511 1.368 . S
C530 C524 1.368 . S
C530 C529 1.523 . S
C531 C515 1.429 . S
C531 C527 1.429 . S
C531 C532 1.523 . S
C532 C516 1.368 . S
C532 C528 1.368 . S
C532 C531 1.523 . S
H533 C508 0.950 . S
H534 C510 0.950 . S
H535 C511 0.949 . S
H536 C513 0.950 . S
H537 C515 0.950 . S
C538 C539 1.349 . S
C538 C540 1.327 . S
C538 H563 0.950 . S
C539 C538 1.349 . S
C539 C555 1.349 . S
C540 C538 1.327 . S
C540 C559 1.429 . S
C540 H564 0.950 . S
C541 C558 1.574 . S
C541 C560 1.368 . S
C541 H565 0.949 . S
H542 C546 0.949 . S
C543 C544 1.349 . S
C543 C545 1.327 . S
C543 H566 0.950 . S
C544 C543 1.349 . S
C544 C556 1.349 . S
C545 C543 1.327 . S
C545 C561 1.429 . S
C545 H567 0.950 . S
C546 H542 0.949 . S
C546 C554 1.574 . S
C546 C562 1.368 . S
H547 C555 0.950 . S
H548 C553 0.950 . S
H549 C554 0.949 . S
H550 C556 0.950 . S
H551 C557 0.950 . S
H552 C558 0.949 . S
C553 H548 0.950 . S
C553 C555 1.327 . S
C553 C559 1.429 . S
C554 C546 1.574 . S
C554 H549 0.949 . S
C554 C560 1.368 . S
C555 C539 1.349 . S
C555 H547 0.950 . S
C555 C553 1.327 . S
C556 C544 1.349 . S
C556 H550 0.950 . S
C556 C557 1.327 . S
C557 H551 0.950 . S
C557 C556 1.327 . S
C557 C561 1.429 . S
C558 C541 1.574 . S
C558 H552 0.949 . S
C558 C562 1.368 . S
C559 C540 1.429 . S
C559 C553 1.429 . S
C559 C560 1.523 . S
C560 C541 1.368 . S
C560 C554 1.368 . S
C560 C559 1.523 . S
C561 C545 1.429 . S
C561 C557 1.429 . S
C561 C562 1.523 . S
C562 C546 1.368 . S
C562 C558 1.368 . S
C562 C561 1.523 . S
H563 C538 0.950 . S
H564 C540 0.950 . S
H565 C541 0.949 . S
H566 C543 0.950 . S
H567 C545 0.950 . S
C568 C569 1.349 . S
C568 C570 1.327 . S
C568 H593 0.950 . S
C569 C568 1.349 . S
C569 C585 1.349 . S
C570 C568 1.327 . S
C570 C589 1.429 . S
C570 H594 0.950 . S
C571 C588 1.574 . S
C571 C590 1.368 . S
C571 H595 0.949 . S
H572 C576 0.949 . S
C573 C574 1.349 . S
C573 C575 1.327 . S
C573 H596 0.950 . S
C574 C573 1.349 . S
C574 C586 1.349 . S
C575 C573 1.327 . S
C575 C591 1.429 . S
C575 H597 0.950 . S
C576 H572 0.949 . S
C576 C584 1.574 . S
C576 C592 1.368 . S
H577 C585 0.950 . S
H578 C583 0.950 . S
H579 C584 0.949 . S
H580 C586 0.950 . S
H581 C587 0.950 . S
H582 C588 0.949 . S
C583 H578 0.950 . S
C583 C585 1.327 . S
C583 C589 1.429 . S
C584 C576 1.574 . S
C584 H579 0.949 . S
C584 C590 1.368 . S
C585 C569 1.349 . S
C585 H577 0.950 . S
C585 C583 1.327 . S
C586 C574 1.349 . S
C586 H580 0.950 . S
C586 C587 1.327 . S
C587 H581 0.950 . S
C587 C586 1.327 . S
C587 C591 1.429 . S
C588 C571 1.574 . S
C588 H582 0.949 . S
C588 C592 1.368 . S
C589 C570 1.429 . S
C589 C583 1.429 . S
C589 C590 1.523 . S
C590 C571 1.368 . S
C590 C584 1.368 . S
C590 C589 1.523 . S
C591 C575 1.429 . S
C591 C587 1.429 . S
C591 C592 1.523 . S
C592 C576 1.368 . S
C592 C588 1.368 . S
C592 C591 1.523 . S
H593 C568 0.950 . S
H594 C570 0.950 . S
H595 C571 0.949 . S
H596 C573 0.950 . S
H597 C575 0.950 . S
C598 C599 1.349 . S
C598 C600 1.327 . S
C598 H623 0.950 . S
C599 C598 1.349 . S
C599 C615 1.349 . S
C600 C598 1.327 . S
C600 C619 1.429 . S
C600 H624 0.950 . S
C601 C618 1.574 . S
C601 C620 1.368 . S
C601 H625 0.949 . S
H602 C606 0.949 . S
C603 C604 1.349 . S
C603 C605 1.327 . S
C603 H626 0.950 . S
C604 C603 1.349 . S
C604 C616 1.349 . S
C605 C603 1.327 . S
C605 C621 1.429 . S
C605 H627 0.950 . S
C606 H602 0.949 . S
C606 C614 1.574 . S
C606 C622 1.368 . S
H607 C615 0.950 . S
H608 C613 0.950 . S
H609 C614 0.949 . S
H610 C616 0.950 . S
H611 C617 0.950 . S
H612 C618 0.949 . S
C613 H608 0.950 . S
C613 C615 1.327 . S
C613 C619 1.429 . S
C614 C606 1.574 . S
C614 H609 0.949 . S
C614 C620 1.368 . S
C615 C599 1.349 . S
C615 H607 0.950 . S
C615 C613 1.327 . S
C616 C604 1.349 . S
C616 H610 0.950 . S
C616 C617 1.327 . S
C617 H611 0.950 . S
C617 C616 1.327 . S
C617 C621 1.429 . S
C618 C601 1.574 . S
C618 H612 0.949 . S
C618 C622 1.368 . S
C619 C600 1.429 . S
C619 C613 1.429 . S
C619 C620 1.523 . S
C620 C601 1.368 . S
C620 C614 1.368 . S
C620 C619 1.523 . S
C621 C605 1.429 . S
C621 C617 1.429 . S
C621 C622 1.523 . S
C622 C606 1.368 . S
C622 C618 1.368 . S
C622 C621 1.523 . S
H623 C598 0.950 . S
H624 C600 0.950 . S
H625 C601 0.949 . S
H626 C603 0.950 . S
H627 C605 0.950 . S
C628 C629 1.349 . S
C628 C630 1.327 . S
C628 H653 0.950 . S
C629 C628 1.349 . S
C629 C645 1.349 . S
C630 C628 1.327 . S
C630 C649 1.429 . S
C630 H654 0.950 . S
C631 C648 1.574 . S
C631 C650 1.368 . S
C631 H655 0.949 . S
H632 C636 0.949 . S
C633 C634 1.349 . S
C633 C635 1.327 . S
C633 H656 0.950 . S
C634 C633 1.349 . S
C634 C646 1.349 . S
C635 C633 1.327 . S
C635 C651 1.429 . S
C635 H657 0.950 . S
C636 H632 0.949 . S
C636 C644 1.574 . S
C636 C652 1.368 . S
H637 C645 0.950 . S
H638 C643 0.950 . S
H639 C644 0.949 . S
H640 C646 0.947 1_554 S
H641 C647 0.950 . S
H642 C648 0.949 . S
C643 H638 0.950 . S
C643 C645 1.327 . S
C643 C649 1.429 . S
C644 C636 1.574 . S
C644 H639 0.949 . S
C644 C650 1.368 . S
C645 C629 1.349 . S
C645 H637 0.950 . S
C645 C643 1.327 . S
C646 C634 1.349 . S
C646 H640 0.947 1_556 S
C646 C647 1.327 . S
C647 H641 0.950 . S
C647 C646 1.327 . S
C647 C651 1.429 . S
C648 C631 1.574 . S
C648 H642 0.949 . S
C648 C652 1.368 . S
C649 C630 1.429 . S
C649 C643 1.429 . S
C649 C650 1.523 . S
C650 C631 1.368 . S
C650 C644 1.368 . S
C650 C649 1.523 . S
C651 C635 1.429 . S
C651 C647 1.429 . S
C651 C652 1.523 . S
C652 C636 1.368 . S
C652 C648 1.368 . S
C652 C651 1.523 . S
H653 C628 0.950 . S
H654 C630 0.950 . S
H655 C631 0.949 . S
H656 C633 0.950 . S
H657 C635 0.950 . S
C658 C659 1.349 . S
C658 C660 1.327 . S
C658 H683 0.950 . S
C659 C658 1.349 . S
C659 C675 1.349 . S
C660 C658 1.327 . S
C660 C679 1.429 . S
C660 H684 0.950 . S
C661 C678 1.574 . S
C661 C680 1.368 . S
C661 H685 0.949 . S
H662 C666 0.949 . S
C663 C664 1.349 . S
C663 C665 1.327 . S
C663 H686 0.950 . S
C664 C663 1.349 . S
C664 C676 1.349 . S
C665 C663 1.327 . S
C665 C681 1.429 . S
C665 H687 0.950 . S
C666 H662 0.949 . S
C666 C674 1.574 . S
C666 C682 1.368 . S
H667 C675 0.950 . S
H668 C673 0.950 . S
H669 C674 0.949 . S
H670 C676 0.950 . S
H671 C677 0.950 . S
H672 C678 0.949 . S
C673 H668 0.950 . S
C673 C675 1.327 . S
C673 C679 1.429 . S
C674 C666 1.574 . S
C674 H669 0.949 . S
C674 C680 1.368 . S
C675 C659 1.349 . S
C675 H667 0.950 . S
C675 C673 1.327 . S
C676 C664 1.349 . S
C676 H670 0.950 . S
C676 C677 1.327 . S
C677 H671 0.950 . S
C677 C676 1.327 . S
C677 C681 1.429 . S
C678 C661 1.574 . S
C678 H672 0.949 . S
C678 C682 1.368 . S
C679 C660 1.429 . S
C679 C673 1.429 . S
C679 C680 1.523 . S
C680 C661 1.368 . S
C680 C674 1.368 . S
C680 C679 1.523 . S
C681 C665 1.429 . S
C681 C677 1.429 . S
C681 C682 1.523 . S
C682 C666 1.368 . S
C682 C678 1.368 . S
C682 C681 1.523 . S
H683 C658 0.950 . S
H684 C660 0.950 . S
H685 C661 0.949 . S
H686 C663 0.950 . S
H687 C665 0.950 . S
C688 C689 1.349 . S
C688 C690 1.327 . S
C688 H713 0.950 . S
C689 C688 1.349 . S
C689 C705 1.349 . S
C690 C688 1.327 . S
C690 C709 1.429 . S
C690 H714 0.950 . S
C691 C708 1.574 . S
C691 C710 1.368 . S
C691 H715 0.949 . S
H692 C696 0.949 . S
C693 C694 1.349 . S
C693 C695 1.327 . S
C693 H716 0.950 . S
C694 C693 1.349 . S
C694 C706 1.349 . S
C695 C693 1.327 . S
C695 C711 1.429 . S
C695 H717 0.950 . S
C696 H692 0.949 . S
C696 C704 1.574 . S
C696 C712 1.368 . S
H697 C705 0.950 . S
H698 C703 0.950 . S
H699 C704 0.949 . S
H700 C706 0.950 . S
H701 C707 0.950 . S
H702 C708 0.949 . S
C703 H698 0.950 . S
C703 C705 1.327 . S
C703 C709 1.429 . S
C704 C696 1.574 . S
C704 H699 0.949 . S
C704 C710 1.368 . S
C705 C689 1.349 . S
C705 H697 0.950 . S
C705 C703 1.327 . S
C706 C694 1.349 . S
C706 H700 0.950 . S
C706 C707 1.327 . S
C707 H701 0.950 . S
C707 C706 1.327 . S
C707 C711 1.429 . S
C708 C691 1.574 . S
C708 H702 0.949 . S
C708 C712 1.368 . S
C709 C690 1.429 . S
C709 C703 1.429 . S
C709 C710 1.523 . S
C710 C691 1.368 . S
C710 C704 1.368 . S
C710 C709 1.523 . S
C711 C695 1.429 . S
C711 C707 1.429 . S
C711 C712 1.523 . S
C712 C696 1.368 . S
C712 C708 1.368 . S
C712 C711 1.523 . S
H713 C688 0.950 . S
H714 C690 0.950 . S
H715 C691 0.949 . S
H716 C693 0.950 . S
H717 C695 0.950 . S
C718 C719 1.349 . S
C718 C720 1.327 . S
C718 H743 0.950 . S
C719 C718 1.349 . S
C719 C735 1.349 . S
C720 C718 1.327 . S
C720 C739 1.429 . S
C720 H744 0.950 . S
C721 C738 1.574 . S
C721 C740 1.368 . S
C721 H745 0.949 . S
H722 C726 0.949 . S
C723 C724 1.349 . S
C723 C725 1.327 . S
C723 H746 0.950 . S
C724 C723 1.349 . S
C724 C736 1.349 . S
C725 C723 1.327 . S
C725 C741 1.429 . S
C725 H747 0.950 . S
C726 H722 0.949 . S
C726 C734 1.574 . S
C726 C742 1.368 . S
H727 C735 0.950 . S
H728 C733 0.950 . S
H729 C734 0.949 . S
H730 C736 0.950 . S
H731 C737 0.950 . S
H732 C738 0.949 . S
C733 H728 0.950 . S
C733 C735 1.327 . S
C733 C739 1.429 . S
C734 C726 1.574 . S
C734 H729 0.949 . S
C734 C740 1.368 . S
C735 C719 1.349 . S
C735 H727 0.950 . S
C735 C733 1.327 . S
C736 C724 1.349 . S
C736 H730 0.950 . S
C736 C737 1.327 . S
C737 H731 0.950 . S
C737 C736 1.327 . S
C737 C741 1.429 . S
C738 C721 1.574 . S
C738 H732 0.949 . S
C738 C742 1.368 . S
C739 C720 1.429 . S
C739 C733 1.429 . S
C739 C740 1.523 . S
C740 C721 1.368 . S
C740 C734 1.368 . S
C740 C739 1.523 . S
C741 C725 1.429 . S
C741 C737 1.429 . S
C741 C742 1.523 . S
C742 C726 1.368 . S
C742 C738 1.368 . S
C742 C741 1.523 . S
H743 C718 0.950 . S
H744 C720 0.950 . S
H745 C721 0.949 . S
H746 C723 0.950 . S
H747 C725 0.950 . S
C748 C749 1.349 . S
C748 C750 1.327 . S
C748 H773 0.950 . S
C749 C748 1.349 . S
C749 C765 1.349 . S
C750 C748 1.327 . S
C750 C769 1.429 . S
C750 H774 0.950 . S
C751 C768 1.574 . S
C751 C770 1.368 . S
C751 H775 0.949 . S
H752 C756 0.949 . S
C753 C754 1.349 . S
C753 C755 1.327 . S
C753 H776 0.950 . S
C754 C753 1.349 . S
C754 C766 1.349 . S
C755 C753 1.327 . S
C755 C771 1.429 . S
C755 H777 0.950 . S
C756 H752 0.949 . S
C756 C764 1.574 . S
C756 C772 1.368 . S
H757 C765 0.950 . S
H758 C763 0.950 . S
H759 C764 0.949 . S
H760 C766 0.950 . S
H761 C767 0.950 . S
H762 C768 0.949 . S
C763 H758 0.950 . S
C763 C765 1.327 . S
C763 C769 1.429 . S
C764 C756 1.574 . S
C764 H759 0.949 . S
C764 C770 1.368 . S
C765 C749 1.349 . S
C765 H757 0.950 . S
C765 C763 1.327 . S
C766 C754 1.349 . S
C766 H760 0.950 . S
C766 C767 1.327 . S
C767 H761 0.950 . S
C767 C766 1.327 . S
C767 C771 1.429 . S
C768 C751 1.574 . S
C768 H762 0.949 . S
C768 C772 1.368 . S
C769 C750 1.429 . S
C769 C763 1.429 . S
C769 C770 1.523 . S
C770 C751 1.368 . S
C770 C764 1.368 . S
C770 C769 1.523 . S
C771 C755 1.429 . S
C771 C767 1.429 . S
C771 C772 1.523 . S
C772 C756 1.368 . S
C772 C768 1.368 . S
C772 C771 1.523 . S
H773 C748 0.950 . S
H774 C750 0.950 . S
H775 C751 0.949 . S
H776 C753 0.950 . S
H777 C755 0.950 . S
C778 C779 1.349 . S
C778 C780 1.327 . S
C778 H803 0.950 . S
C779 C778 1.349 . S
C779 C795 1.349 . S
C780 C778 1.327 . S
C780 C799 1.429 . S
C780 H804 0.950 . S
C781 C798 1.574 . S
C781 C800 1.368 . S
C781 H805 0.949 . S
H782 C786 0.949 . S
C783 C784 1.349 . S
C783 C785 1.327 . S
C783 H806 0.950 . S
C784 C783 1.349 . S
C784 C796 1.349 . S
C785 C783 1.327 . S
C785 C801 1.429 . S
C785 H807 0.950 . S
C786 H782 0.949 . S
C786 C794 1.574 . S
C786 C802 1.368 . S
H787 C795 0.950 . S
H788 C793 0.950 . S
H789 C794 0.949 . S
H790 C796 0.950 . S
H791 C797 0.950 . S
H792 C798 0.949 . S
C793 H788 0.950 . S
C793 C795 1.327 . S
C793 C799 1.429 . S
C794 C786 1.574 . S
C794 H789 0.949 . S
C794 C800 1.368 . S
C795 C779 1.349 . S
C795 H787 0.950 . S
C795 C793 1.327 . S
C796 C784 1.349 . S
C796 H790 0.950 . S
C796 C797 1.327 . S
C797 H791 0.950 . S
C797 C796 1.327 . S
C797 C801 1.429 . S
C798 C781 1.574 . S
C798 H792 0.949 . S
C798 C802 1.368 . S
C799 C780 1.429 . S
C799 C793 1.429 . S
C799 C800 1.523 . S
C800 C781 1.368 . S
C800 C794 1.368 . S
C800 C799 1.523 . S
C801 C785 1.429 . S
C801 C797 1.429 . S
C801 C802 1.523 . S
C802 C786 1.368 . S
C802 C798 1.368 . S
C802 C801 1.523 . S
H803 C778 0.950 . S
H804 C780 0.950 . S
H805 C781 0.949 . S
H806 C783 0.950 . S
H807 C785 0.950 . S
C808 C809 1.349 . S
C808 C810 1.327 . S
C808 H833 0.950 . S
C809 C808 1.349 . S
C809 C825 1.349 . S
C810 C808 1.327 . S
C810 C829 1.429 . S
C810 H834 0.950 . S
C811 C828 1.574 . S
C811 C830 1.368 . S
C811 H835 0.949 . S
H812 C816 0.949 . S
C813 C814 1.349 . S
C813 C815 1.327 . S
C813 H836 0.950 . S
C814 C813 1.349 . S
C814 C826 1.349 . S
C815 C813 1.327 . S
C815 C831 1.429 . S
C815 H837 0.950 . S
C816 H812 0.949 . S
C816 C824 1.574 . S
C816 C832 1.368 . S
H817 C825 0.950 . S
H818 C823 0.950 . S
H819 C824 0.949 . S
H820 C826 0.950 . S
H821 C827 0.950 . S
H822 C828 0.949 . S
C823 H818 0.950 . S
C823 C825 1.327 . S
C823 C829 1.429 . S
C824 C816 1.574 . S
C824 H819 0.949 . S
C824 C830 1.368 . S
C825 C809 1.349 . S
C825 H817 0.950 . S
C825 C823 1.327 . S
C826 C814 1.349 . S
C826 H820 0.950 . S
C826 C827 1.327 . S
C827 H821 0.950 . S
C827 C826 1.327 . S
C827 C831 1.429 . S
C828 C811 1.574 . S
C828 H822 0.949 . S
C828 C832 1.368 . S
C829 C810 1.429 . S
C829 C823 1.429 . S
C829 C830 1.523 . S
C830 C811 1.368 . S
C830 C824 1.368 . S
C830 C829 1.523 . S
C831 C815 1.429 . S
C831 C827 1.429 . S
C831 C832 1.523 . S
C832 C816 1.368 . S
C832 C828 1.368 . S
C832 C831 1.523 . S
H833 C808 0.950 . S
H834 C810 0.950 . S
H835 C811 0.949 . S
H836 C813 0.950 . S
H837 C815 0.950 . S
C838 C839 1.349 . S
C838 C840 1.327 . S
C838 H863 0.950 . S
C839 C838 1.349 . S
C839 C855 1.349 . S
C840 C838 1.327 . S
C840 C859 1.429 . S
C840 H864 0.950 . S
C841 C858 1.574 . S
C841 C860 1.368 . S
C841 H865 0.949 . S
H842 C846 0.949 . S
C843 C844 1.349 . S
C843 C845 1.327 . S
C843 H866 0.950 . S
C844 C843 1.349 . S
C844 C856 1.349 . S
C845 C843 1.327 . S
C845 C861 1.429 . S
C845 H867 0.950 . S
C846 H842 0.949 . S
C846 C854 1.574 . S
C846 C862 1.368 . S
H847 C855 0.950 . S
H848 C853 0.950 . S
H849 C854 0.949 . S
H850 C856 0.950 . S
H851 C857 0.950 . S
H852 C858 0.949 . S
C853 H848 0.950 . S
C853 C855 1.327 . S
C853 C859 1.429 . S
C854 C846 1.574 . S
C854 H849 0.949 . S
C854 C860 1.368 . S
C855 C839 1.349 . S
C855 H847 0.950 . S
C855 C853 1.327 . S
C856 C844 1.349 . S
C856 H850 0.950 . S
C856 C857 1.327 . S
C857 H851 0.950 . S
C857 C856 1.327 . S
C857 C861 1.429 . S
C858 C841 1.574 . S
C858 H852 0.949 . S
C858 C862 1.368 . S
C859 C840 1.429 . S
C859 C853 1.429 . S
C859 C860 1.523 . S
C860 C841 1.368 . S
C860 C854 1.368 . S
C860 C859 1.523 . S
C861 C845 1.429 . S
C861 C857 1.429 . S
C861 C862 1.523 . S
C862 C846 1.368 . S
C862 C858 1.368 . S
C862 C861 1.523 . S
H863 C838 0.950 . S
H864 C840 0.950 . S
H865 C841 0.949 . S
H866 C843 0.950 . S
H867 C845 0.950 . S
C868 C869 1.349 . S
C868 C870 1.327 . S
C868 H893 0.950 . S
C869 C868 1.349 . S
C869 C885 1.349 . S
C870 C868 1.327 . S
C870 C889 1.429 . S
C870 H894 0.950 . S
C871 C888 1.574 . S
C871 C890 1.368 . S
C871 H895 0.949 . S
H872 C876 0.949 . S
C873 C874 1.349 . S
C873 C875 1.327 . S
C873 H896 0.950 . S
C874 C873 1.349 . S
C874 C886 1.349 . S
C875 C873 1.327 . S
C875 C891 1.429 . S
C875 H897 0.950 . S
C876 H872 0.949 . S
C876 C884 1.574 . S
C876 C892 1.368 . S
H877 C885 0.950 . S
H878 C883 0.950 . S
H879 C884 0.949 . S
H880 C886 0.950 . S
H881 C887 0.950 . S
H882 C888 0.949 . S
C883 H878 0.950 . S
C883 C885 1.327 . S
C883 C889 1.429 . S
C884 C876 1.574 . S
C884 H879 0.949 . S
C884 C890 1.368 . S
C885 C869 1.349 . S
C885 H877 0.950 . S
C885 C883 1.327 . S
C886 C874 1.349 . S
C886 H880 0.950 . S
C886 C887 1.327 . S
C887 H881 0.950 . S
C887 C886 1.327 . S
C887 C891 1.429 . S
C888 C871 1.574 . S
C888 H882 0.949 . S
C888 C892 1.368 . S
C889 C870 1.429 . S
C889 C883 1.429 . S
C889 C890 1.523 . S
C890 C871 1.368 . S
C890 C884 1.368 . S
C890 C889 1.523 . S
C891 C875 1.429 . S
C891 C887 1.429 . S
C891 C892 1.523 . S
C892 C876 1.368 . S
C892 C888 1.368 . S
C892 C891 1.523 . S
H893 C868 0.950 . S
H894 C870 0.950 . S
H895 C871 0.949 . S
H896 C873 0.950 . S
H897 C875 0.950 . S
C898 C899 1.349 . S
C898 C900 1.327 . S
C898 H923 0.950 . S
C899 C898 1.349 . S
C899 C915 1.349 . S
C900 C898 1.327 . S
C900 C919 1.429 . S
C900 H924 0.950 . S
C901 C918 1.574 . S
C901 C920 1.368 . S
C901 H925 0.949 . S
H902 C906 0.949 . S
C903 C904 1.349 . S
C903 C905 1.327 . S
C903 H926 0.950 . S
C904 C903 1.349 . S
C904 C916 1.349 . S
C905 C903 1.327 . S
C905 C921 1.429 . S
C905 H927 0.950 . S
C906 H902 0.949 . S
C906 C914 1.574 . S
C906 C922 1.368 . S
H907 C915 0.950 . S
H908 C913 0.950 . S
H909 C914 0.949 . S
H910 C916 0.950 . S
H911 C917 0.950 . S
H912 C918 0.949 . S
C913 H908 0.950 . S
C913 C915 1.327 . S
C913 C919 1.429 . S
C914 C906 1.574 . S
C914 H909 0.949 . S
C914 C920 1.368 . S
C915 C899 1.349 . S
C915 H907 0.950 . S
C915 C913 1.327 . S
C916 C904 1.349 . S
C916 H910 0.950 . S
C916 C917 1.327 . S
C917 H911 0.950 . S
C917 C916 1.327 . S
C917 C921 1.429 . S
C918 C901 1.574 . S
C918 H912 0.949 . S
C918 C922 1.368 . S
C919 C900 1.429 . S
C919 C913 1.429 . S
C919 C920 1.523 . S
C920 C901 1.368 . S
C920 C914 1.368 . S
C920 C919 1.523 . S
C921 C905 1.429 . S
C921 C917 1.429 . S
C921 C922 1.523 . S
C922 C906 1.368 . S
C922 C918 1.368 . S
C922 C921 1.523 . S
H923 C898 0.950 . S
H924 C900 0.950 . S
H925 C901 0.949 . S
H926 C903 0.950 . S
H927 C905 0.950 . S
C928 C929 1.349 . S
C928 C930 1.327 . S
C928 H953 0.950 . S
C929 C928 1.349 . S
C929 C945 1.349 . S
C930 C928 1.327 . S
C930 C949 1.429 . S
C930 H954 0.950 . S
C931 C948 1.574 . S
C931 C950 1.368 . S
C931 H955 0.949 . S
H932 C936 0.949 . S
C933 C934 1.349 . S
C933 C935 1.327 . S
C933 H956 0.950 . S
C934 C933 1.349 . S
C934 C946 1.349 . S
C935 C933 1.327 . S
C935 C951 1.429 . S
C935 H957 0.950 . S
C936 H932 0.949 . S
C936 C944 1.574 . S
C936 C952 1.368 . S
H937 C945 0.950 . S
H938 C943 0.950 . S
H939 C944 0.949 . S
H940 C946 0.950 . S
H941 C947 0.950 . S
H942 C948 0.949 . S
C943 H938 0.950 . S
C943 C945 1.327 . S
C943 C949 1.429 . S
C944 C936 1.574 . S
C944 H939 0.949 . S
C944 C950 1.368 . S
C945 C929 1.349 . S
C945 H937 0.950 . S
C945 C943 1.327 . S
C946 C934 1.349 . S
C946 H940 0.950 . S
C946 C947 1.327 . S
C947 H941 0.950 . S
C947 C946 1.327 . S
C947 C951 1.429 . S
C948 C931 1.574 . S
C948 H942 0.949 . S
C948 C952 1.368 . S
C949 C930 1.429 . S
C949 C943 1.429 . S
C949 C950 1.523 . S
C950 C931 1.368 . S
C950 C944 1.368 . S
C950 C949 1.523 . S
C951 C935 1.429 . S
C951 C947 1.429 . S
C951 C952 1.523 . S
C952 C936 1.368 . S
C952 C948 1.368 . S
C952 C951 1.523 . S
H953 C928 0.950 . S
H954 C930 0.950 . S
H955 C931 0.949 . S
H956 C933 0.950 . S
H957 C935 0.950 . S
C958 C959 1.349 . S
C958 C960 1.327 . S
C958 H983 0.950 . S
C959 C958 1.349 . S
C959 C975 1.349 . S
C960 C958 1.327 . S
C960 C979 1.429 . S
C960 H984 0.950 . S
C961 C978 1.574 . S
C961 C980 1.368 . S
C961 H985 0.949 . S
H962 C966 0.949 . S
C963 C964 1.349 . S
C963 C965 1.327 . S
C963 H986 0.950 . S
C964 C963 1.349 . S
C964 C976 1.349 . S
C965 C963 1.327 . S
C965 C981 1.429 . S
C965 H987 0.950 . S
C966 H962 0.949 . S
C966 C974 1.574 . S
C966 C982 1.368 . S
H967 C975 0.950 . S
H968 C973 0.950 . S
H969 C974 0.949 . S
H970 C976 0.950 . S
H971 C977 0.950 . S
H972 C978 0.949 . S
C973 H968 0.950 . S
C973 C975 1.327 . S
C973 C979 1.429 . S
C974 C966 1.574 . S
C974 H969 0.949 . S
C974 C980 1.368 . S
C975 C959 1.349 . S
C975 H967 0.950 . S
C975 C973 1.327 . S
C976 C964 1.349 . S
C976 H970 0.950 . S
C976 C977 1.327 . S
C977 H971 0.950 . S
C977 C976 1.327 . S
C977 C981 1.429 . S
C978 C961 1.574 . S
C978 H972 0.949 . S
C978 C982 1.368 . S
C979 C960 1.429 . S
C979 C973 1.429 . S
C979 C980 1.523 . S
C980 C961 1.368 . S
C980 C974 1.368 . S
C980 C979 1.523 . S
C981 C965 1.429 . S
C981 C977 1.429 . S
C981 C982 1.523 . S
C982 C966 1.368 . S
C982 C978 1.368 . S
C982 C981 1.523 . S
H983 C958 0.950 . S
H984 C960 0.950 . S
H985 C961 0.949 . S
H986 C963 0.950 . S
H987 C965 0.950 . S
C988 C989 1.349 . S
C988 C990 1.327 . S
C988 H1013 0.950 . S
C989 C988 1.349 . S
C989 C1005 1.349 . S
C990 C988 1.327 . S
C990 C1009 1.429 . S
C990 H1014 0.950 . S
C991 C1008 1.574 . S
C991 C1010 1.368 . S
C991 H1015 0.949 . S
H992 C996 0.949 . S
C993 C994 1.349 . S
C993 C995 1.327 . S
C993 H1016 0.950 . S
C994 C993 1.349 . S
C994 C1006 1.349 . S
C995 C993 1.327 . S
C995 C1011 1.429 . S
C995 H1017 0.950 . S
C996 H992 0.949 . S
C996 C1004 1.574 . S
C996 C1012 1.368 . S
H997 C1005 0.950 . S
H998 C1003 0.950 . S
H999 C1004 0.949 . S
H1000 C1006 0.950 . S
H1001 C1007 0.950 . S
H1002 C1008 0.949 . S
C1003 H998 0.950 . S
C1003 C1005 1.327 . S
C1003 C1009 1.429 . S
C1004 C996 1.574 . S
C1004 H999 0.949 . S
C1004 C1010 1.368 . S
C1005 C989 1.349 . S
C1005 H997 0.950 . S
C1005 C1003 1.327 . S
C1006 C994 1.349 . S
C1006 H1000 0.950 . S
C1006 C1007 1.327 . S
C1007 H1001 0.950 . S
C1007 C1006 1.327 . S
C1007 C1011 1.429 . S
C1008 C991 1.574 . S
C1008 H1002 0.949 . S
C1008 C1012 1.368 . S
C1009 C990 1.429 . S
C1009 C1003 1.429 . S
C1009 C1010 1.523 . S
C1010 C991 1.368 . S
C1010 C1004 1.368 . S
C1010 C1009 1.523 . S
C1011 C995 1.429 . S
C1011 C1007 1.429 . S
C1011 C1012 1.523 . S
C1012 C996 1.368 . S
C1012 C1008 1.368 . S
C1012 C1011 1.523 . S
H1013 C988 0.950 . S
H1014 C990 0.950 . S
H1015 C991 0.949 . S
H1016 C993 0.950 . S
H1017 C995 0.950 . S
C1018 C1019 1.349 . S
C1018 C1020 1.327 . S
C1018 H1043 0.950 . S
C1019 C1018 1.349 . S
C1019 C1035 1.349 . S
C1020 C1018 1.327 . S
C1020 C1039 1.429 . S
C1020 H1044 0.950 . S
C1021 C1038 1.574 . S
C1021 C1040 1.368 . S
C1021 H1045 0.949 . S
H1022 C1026 0.949 . S
C1023 C1024 1.349 . S
C1023 C1025 1.327 . S
C1023 H1046 0.950 . S
C1024 C1023 1.349 . S
C1024 C1036 1.349 . S
C1025 C1023 1.327 . S
C1025 C1041 1.429 . S
C1025 H1047 0.950 . S
C1026 H1022 0.949 . S
C1026 C1034 1.574 . S
C1026 C1042 1.368 . S
H1027 C1035 0.950 . S
H1028 C1033 0.950 . S
H1029 C1034 0.949 . S
H1030 C1036 0.950 . S
H1031 C1037 0.950 . S
H1032 C1038 0.949 . S
C1033 H1028 0.950 . S
C1033 C1035 1.327 . S
C1033 C1039 1.429 . S
C1034 C1026 1.574 . S
C1034 H1029 0.949 . S
C1034 C1040 1.368 . S
C1035 C1019 1.349 . S
C1035 H1027 0.950 . S
C1035 C1033 1.327 . S
C1036 C1024 1.349 . S
C1036 H1030 0.950 . S
C1036 C1037 1.327 . S
C1037 H1031 0.950 . S
C1037 C1036 1.327 . S
C1037 C1041 1.429 . S
C1038 C1021 1.574 . S
C1038 H1032 0.949 . S
C1038 C1042 1.368 . S
C1039 C1020 1.429 . S
C1039 C1033 1.429 . S
C1039 C1040 1.523 . S
C1040 C1021 1.368 . S
C1040 C1034 1.368 . S
C1040 C1039 1.523 . S
C1041 C1025 1.429 . S
C1041 C1037 1.429 . S
C1041 C1042 1.523 . S
C1042 C1026 1.368 . S
C1042 C1038 1.368 . S
C1042 C1041 1.523 . S
H1043 C1018 0.950 . S
H1044 C1020 0.950 . S
H1045 C1021 0.949 . S
H1046 C1023 0.950 . S
H1047 C1025 0.950 . S
C1048 C1049 1.349 . S
C1048 C1050 1.327 . S
C1048 H1073 0.950 . S
C1049 C1048 1.349 . S
C1049 C1065 1.349 . S
C1050 C1048 1.327 . S
C1050 C1069 1.429 . S
C1050 H1074 0.950 . S
C1051 C1068 1.574 . S
C1051 C1070 1.368 . S
C1051 H1075 0.949 . S
H1052 C1056 0.949 . S
C1053 C1054 1.349 . S
C1053 C1055 1.327 . S
C1053 H1076 0.950 . S
C1054 C1053 1.349 . S
C1054 C1066 1.349 . S
C1055 C1053 1.327 . S
C1055 C1071 1.429 . S
C1055 H1077 0.950 . S
C1056 H1052 0.949 . S
C1056 C1064 1.574 . S
C1056 C1072 1.368 . S
H1057 C1065 0.950 . S
H1058 C1063 0.950 . S
H1059 C1064 0.949 . S
H1060 C1066 0.950 . S
H1061 C1067 0.950 . S
H1062 C1068 0.949 . S
C1063 H1058 0.950 . S
C1063 C1065 1.327 . S
C1063 C1069 1.429 . S
C1064 C1056 1.574 . S
C1064 H1059 0.949 . S
C1064 C1070 1.368 . S
C1065 C1049 1.349 . S
C1065 H1057 0.950 . S
C1065 C1063 1.327 . S
C1066 C1054 1.349 . S
C1066 H1060 0.950 . S
C1066 C1067 1.327 . S
C1067 H1061 0.950 . S
C1067 C1066 1.327 . S
C1067 C1071 1.429 . S
C1068 C1051 1.574 . S
C1068 H1062 0.949 . S
C1068 C1072 1.368 . S
C1069 C1050 1.429 . S
C1069 C1063 1.429 . S
C1069 C1070 1.523 . S
C1070 C1051 1.368 . S
C1070 C1064 1.368 . S
C1070 C1069 1.523 . S
C1071 C1055 1.429 . S
C1071 C1067 1.429 . S
C1071 C1072 1.523 . S
C1072 C1056 1.368 . S
C1072 C1068 1.368 . S
C1072 C1071 1.523 . S
H1073 C1048 0.950 . S
H1074 C1050 0.950 . S
H1075 C1051 0.949 . S
H1076 C1053 0.950 . S
H1077 C1055 0.950 . S
C1078 C1079 1.349 . S
C1078 C1080 1.327 . S
C1078 H1103 0.950 . S
C1079 C1078 1.349 . S
C1079 C1095 1.349 . S
C1080 C1078 1.327 . S
C1080 C1099 1.429 . S
C1080 H1104 0.950 . S
C1081 C1098 1.574 . S
C1081 C1100 1.368 . S
C1081 H1105 0.949 . S
H1082 C1086 0.949 . S
C1083 C1084 1.349 . S
C1083 C1085 1.327 . S
C1083 H1106 0.950 . S
C1084 C1083 1.349 . S
C1084 C1096 1.349 . S
C1085 C1083 1.327 . S
C1085 C1101 1.429 . S
C1085 H1107 0.950 . S
C1086 H1082 0.949 . S
C1086 C1094 1.574 . S
C1086 C1102 1.368 . S
H1087 C1095 0.950 . S
H1088 C1093 0.950 . S
H1089 C1094 0.949 . S
H1090 C1096 0.950 . S
H1091 C1097 0.950 . S
H1092 C1098 0.949 . S
C1093 H1088 0.950 . S
C1093 C1095 1.327 . S
C1093 C1099 1.429 . S
C1094 C1086 1.574 . S
C1094 H1089 0.949 . S
C1094 C1100 1.368 . S
C1095 C1079 1.349 . S
C1095 H1087 0.950 . S
C1095 C1093 1.327 . S
C1096 C1084 1.349 . S
C1096 H1090 0.950 . S
C1096 C1097 1.327 . S
C1097 H1091 0.950 . S
C1097 C1096 1.327 . S
C1097 C1101 1.429 . S
C1098 C1081 1.574 . S
C1098 H1092 0.949 . S
C1098 C1102 1.368 . S
C1099 C1080 1.429 . S
C1099 C1093 1.429 . S
C1099 C1100 1.523 . S
C1100 C1081 1.368 . S
C1100 C1094 1.368 . S
C1100 C1099 1.523 . S
C1101 C1085 1.429 . S
C1101 C1097 1.429 . S
C1101 C1102 1.523 . S
C1102 C1086 1.368 . S
C1102 C1098 1.368 . S
C1102 C1101 1.523 . S
H1103 C1078 0.950 . S
H1104 C1080 0.950 . S
H1105 C1081 0.949 . S
H1106 C1083 0.950 . S
H1107 C1085 0.950 . S
C1108 C1109 1.349 . S
C1108 C1110 1.327 . S
C1108 H1133 0.950 . S
C1109 C1108 1.349 . S
C1109 C1125 1.349 . S
C1110 C1108 1.327 . S
C1110 C1129 1.429 . S
C1110 H1134 0.950 . S
C1111 C1128 1.574 . S
C1111 C1130 1.368 . S
C1111 H1135 0.949 . S
H1112 C1116 0.949 . S
C1113 C1114 1.349 . S
C1113 C1115 1.327 . S
C1113 H1136 0.950 . S
C1114 C1113 1.349 . S
C1114 C1126 1.349 . S
C1115 C1113 1.327 . S
C1115 C1131 1.429 . S
C1115 H1137 0.950 . S
C1116 H1112 0.949 . S
C1116 C1124 1.574 . S
C1116 C1132 1.368 . S
H1117 C1125 0.950 . S
H1118 C1123 0.950 . S
H1119 C1124 0.949 . S
H1120 C1126 0.950 . S
H1121 C1127 0.950 . S
H1122 C1128 0.949 . S
C1123 H1118 0.950 . S
C1123 C1125 1.327 . S
C1123 C1129 1.429 . S
C1124 C1116 1.574 . S
C1124 H1119 0.949 . S
C1124 C1130 1.368 . S
C1125 C1109 1.349 . S
C1125 H1117 0.950 . S
C1125 C1123 1.327 . S
C1126 C1114 1.349 . S
C1126 H1120 0.950 . S
C1126 C1127 1.327 . S
C1127 H1121 0.950 . S
C1127 C1126 1.327 . S
C1127 C1131 1.429 . S
C1128 C1111 1.574 . S
C1128 H1122 0.949 . S
C1128 C1132 1.368 . S
C1129 C1110 1.429 . S
C1129 C1123 1.429 . S
C1129 C1130 1.523 . S
C1130 C1111 1.368 . S
C1130 C1124 1.368 . S
C1130 C1129 1.523 . S
C1131 C1115 1.429 . S
C1131 C1127 1.429 . S
C1131 C1132 1.523 . S
C1132 C1116 1.368 . S
C1132 C1128 1.368 . S
C1132 C1131 1.523 . S
H1133 C1108 0.950 . S
H1134 C1110 0.950 . S
H1135 C1111 0.949 . S
H1136 C1113 0.950 . S
H1137 C1115 0.950 . S
C1138 C1139 1.349 . S
C1138 C1140 1.327 . S
C1138 H1163 0.950 . S
C1139 C1138 1.349 . S
C1139 C1155 1.349 . S
C1140 C1138 1.327 . S
C1140 C1159 1.429 . S
C1140 H1164 0.950 . S
C1141 C1158 1.574 . S
C1141 C1160 1.368 . S
C1141 H1165 0.949 . S
H1142 C1146 0.949 . S
C1143 C1144 1.349 . S
C1143 C1145 1.327 . S
C1143 H1166 0.950 . S
C1144 C1143 1.349 . S
C1144 C1156 1.349 . S
C1145 C1143 1.327 . S
C1145 C1161 1.429 . S
C1145 H1167 0.950 . S
C1146 H1142 0.949 . S
C1146 C1154 1.574 . S
C1146 C1162 1.368 . S
H1147 C1155 0.950 . S
H1148 C1153 0.950 . S
H1149 C1154 0.949 . S
H1150 C1156 0.950 . S
H1151 C1157 0.950 . S
H1152 C1158 0.949 . S
C1153 H1148 0.950 . S
C1153 C1155 1.327 . S
C1153 C1159 1.429 . S
C1154 C1146 1.574 . S
C1154 H1149 0.949 . S
C1154 C1160 1.368 . S
C1155 C1139 1.349 . S
C1155 H1147 0.950 . S
C1155 C1153 1.327 . S
C1156 C1144 1.349 . S
C1156 H1150 0.950 . S
C1156 C1157 1.327 . S
C1157 H1151 0.950 . S
C1157 C1156 1.327 . S
C1157 C1161 1.429 . S
C1158 C1141 1.574 . S
C1158 H1152 0.949 . S
C1158 C1162 1.368 . S
C1159 C1140 1.429 . S
C1159 C1153 1.429 . S
C1159 C1160 1.523 . S
C1160 C1141 1.368 . S
C1160 C1154 1.368 . S
C1160 C1159 1.523 . S
C1161 C1145 1.429 . S
C1161 C1157 1.429 . S
C1161 C1162 1.523 . S
C1162 C1146 1.368 . S
C1162 C1158 1.368 . S
C1162 C1161 1.523 . S
H1163 C1138 0.950 . S
H1164 C1140 0.950 . S
H1165 C1141 0.949 . S
H1166 C1143 0.950 . S
H1167 C1145 0.950 . S
C214 C120 1.188 . S
C209 C5 1.194 . S
C244 C134 1.181 . S
C239 C18 1.188 . S
C274 C147 1.188 . S
C269 C31 1.196 . S
C299 C42 1.186 . S
C304 C114 1.190 . S
C329 C57 1.204 . S
C334 C107 1.198 . S
C359 C70 1.199 . S
C364 C127 1.191 . S
C394 C135 1.189 . S
C389 C81 1.185 . S
C424 C148 1.191 . S
C419 C96 1.197 . S
C449 C29 1.183 . S
C454 C174 1.187 . S
C484 C192 1.181 . S
C479 C44 1.188 . S
C509 C3 1.185 . S
C514 C199 1.188 . S
C544 C166 1.190 . S
C539 C16 1.186 . S
C569 C83 1.204 . S
C574 C159 1.199 . S
C599 C94 1.188 . S
C604 C173 1.191 . S
C634 C185 1.189 . S
C629 C55 1.185 . S
C659 C68 1.186 . S
C664 C200 1.191 . S
C694 C133 1.512 . S
C689 C1 1.505 . S
C724 C146 1.514 . S
C719 C14 1.507 . S
C749 C27 1.501 . S
C754 C109 1.507 . S
C779 C49 1.520 . S
C784 C121 1.499 . S
C809 C53 1.493 . S
C814 C153 1.493 . S
C844 C108 1.495 . S
C839 C66 1.494 . S
C874 C122 1.507 . S
C869 C88 1.523 . S
C904 C140 1.499 . S
C899 C92 1.498 . S
C934 C187 1.511 . S
C929 C36 1.527 . S
C964 C198 1.513 . S
C959 C40 1.506 . S
C989 C10 1.522 . S
C994 C161 1.507 . S
C1024 C179 1.499 . S
C1019 C23 1.519 . S
C1054 C205 1.493 . S
C1049 C79 1.493 . S
C1079 C101 1.516 . S
C1084 C160 1.495 . S
C1114 C172 1.507 . S
C1109 C62 1.523 . S
C1144 C186 1.500 . S
C1139 C75 1.521 . S
