# Generated by pormake.
# Topology ctn, (3,4)-cn, num edge types: 1
# Building blocks:
#     Node 0, Type 0, BuildingBlock: OLANEW_clean_sbu_2, # of connection points: 3
#     Node 1, Type 0, BuildingBlock: OLANEW_clean_sbu_2, # of connection points: 3
#     Node 2, Type 0, BuildingBlock: OLANEW_clean_sbu_2, # of connection points: 3
#     Node 3, Type 0, BuildingBlock: OLANEW_clean_sbu_2, # of connection points: 3
#     Node 4, Type 0, BuildingBlock: OLANEW_clean_sbu_2, # of connection points: 3
#     Node 5, Type 0, BuildingBlock: OLANEW_clean_sbu_2, # of connection points: 3
#     Node 6, Type 0, BuildingBlock: OLANEW_clean_sbu_2, # of connection points: 3
#     Node 7, Type 0, BuildingBlock: OLANEW_clean_sbu_2, # of connection points: 3
#     Node 8, Type 0, BuildingBlock: OLANEW_clean_sbu_2, # of connection points: 3
#     Node 9, Type 0, BuildingBlock: OLANEW_clean_sbu_2, # of connection points: 3
#     Node 10, Type 0, BuildingBlock: OLANEW_clean_sbu_2, # of connection points: 3
#     Node 11, Type 0, BuildingBlock: OLANEW_clean_sbu_2, # of connection points: 3
#     Node 12, Type 0, BuildingBlock: OLANEW_clean_sbu_2, # of connection points: 3
#     Node 13, Type 0, BuildingBlock: OLANEW_clean_sbu_2, # of connection points: 3
#     Node 14, Type 0, BuildingBlock: OLANEW_clean_sbu_2, # of connection points: 3
#     Node 15, Type 0, BuildingBlock: OLANEW_clean_sbu_2, # of connection points: 3
#     Node 16, Type 1, BuildingBlock: QUQFOY_clean_sbu_1, # of connection points: 4
#     Node 17, Type 1, BuildingBlock: QUQFOY_clean_sbu_1, # of connection points: 4
#     Node 18, Type 1, BuildingBlock: QUQFOY_clean_sbu_1, # of connection points: 4
#     Node 19, Type 1, BuildingBlock: QUQFOY_clean_sbu_1, # of connection points: 4
#     Node 20, Type 1, BuildingBlock: QUQFOY_clean_sbu_1, # of connection points: 4
#     Node 21, Type 1, BuildingBlock: QUQFOY_clean_sbu_1, # of connection points: 4
#     Node 22, Type 1, BuildingBlock: QUQFOY_clean_sbu_1, # of connection points: 4
#     Node 23, Type 1, BuildingBlock: QUQFOY_clean_sbu_1, # of connection points: 4
#     Node 24, Type 1, BuildingBlock: QUQFOY_clean_sbu_1, # of connection points: 4
#     Node 25, Type 1, BuildingBlock: QUQFOY_clean_sbu_1, # of connection points: 4
#     Node 26, Type 1, BuildingBlock: QUQFOY_clean_sbu_1, # of connection points: 4
#     Node 27, Type 1, BuildingBlock: QUQFOY_clean_sbu_1, # of connection points: 4
#     Edge 28, Type (0, 1), BuildingBlock: UVAHIK_clean_linker_0, # of connection points: 2
#     Edge 29, Type (0, 1), BuildingBlock: UVAHIK_clean_linker_0, # of connection points: 2
#     Edge 30, Type (0, 1), BuildingBlock: UVAHIK_clean_linker_0, # of connection points: 2
#     Edge 31, Type (0, 1), BuildingBlock: UVAHIK_clean_linker_0, # of connection points: 2
#     Edge 32, Type (0, 1), BuildingBlock: UVAHIK_clean_linker_0, # of connection points: 2
#     Edge 33, Type (0, 1), BuildingBlock: UVAHIK_clean_linker_0, # of connection points: 2
#     Edge 34, Type (0, 1), BuildingBlock: UVAHIK_clean_linker_0, # of connection points: 2
#     Edge 35, Type (0, 1), BuildingBlock: UVAHIK_clean_linker_0, # of connection points: 2
#     Edge 36, Type (0, 1), BuildingBlock: UVAHIK_clean_linker_0, # of connection points: 2
#     Edge 37, Type (0, 1), BuildingBlock: UVAHIK_clean_linker_0, # of connection points: 2
#     Edge 38, Type (0, 1), BuildingBlock: UVAHIK_clean_linker_0, # of connection points: 2
#     Edge 39, Type (0, 1), BuildingBlock: UVAHIK_clean_linker_0, # of connection points: 2
#     Edge 40, Type (0, 1), BuildingBlock: UVAHIK_clean_linker_0, # of connection points: 2
#     Edge 41, Type (0, 1), BuildingBlock: UVAHIK_clean_linker_0, # of connection points: 2
#     Edge 42, Type (0, 1), BuildingBlock: UVAHIK_clean_linker_0, # of connection points: 2
#     Edge 43, Type (0, 1), BuildingBlock: UVAHIK_clean_linker_0, # of connection points: 2
#     Edge 44, Type (0, 1), BuildingBlock: UVAHIK_clean_linker_0, # of connection points: 2
#     Edge 45, Type (0, 1), BuildingBlock: UVAHIK_clean_linker_0, # of connection points: 2
#     Edge 46, Type (0, 1), BuildingBlock: UVAHIK_clean_linker_0, # of connection points: 2
#     Edge 47, Type (0, 1), BuildingBlock: UVAHIK_clean_linker_0, # of connection points: 2
#     Edge 48, Type (0, 1), BuildingBlock: UVAHIK_clean_linker_0, # of connection points: 2
#     Edge 49, Type (0, 1), BuildingBlock: UVAHIK_clean_linker_0, # of connection points: 2
#     Edge 50, Type (0, 1), BuildingBlock: UVAHIK_clean_linker_0, # of connection points: 2
#     Edge 51, Type (0, 1), BuildingBlock: UVAHIK_clean_linker_0, # of connection points: 2
#     Edge 52, Type (0, 1), BuildingBlock: UVAHIK_clean_linker_0, # of connection points: 2
#     Edge 53, Type (0, 1), BuildingBlock: UVAHIK_clean_linker_0, # of connection points: 2
#     Edge 54, Type (0, 1), BuildingBlock: UVAHIK_clean_linker_0, # of connection points: 2
#     Edge 55, Type (0, 1), BuildingBlock: UVAHIK_clean_linker_0, # of connection points: 2
#     Edge 56, Type (0, 1), BuildingBlock: UVAHIK_clean_linker_0, # of connection points: 2
#     Edge 57, Type (0, 1), BuildingBlock: UVAHIK_clean_linker_0, # of connection points: 2
#     Edge 58, Type (0, 1), BuildingBlock: UVAHIK_clean_linker_0, # of connection points: 2
#     Edge 59, Type (0, 1), BuildingBlock: UVAHIK_clean_linker_0, # of connection points: 2
#     Edge 60, Type (0, 1), BuildingBlock: UVAHIK_clean_linker_0, # of connection points: 2
#     Edge 61, Type (0, 1), BuildingBlock: UVAHIK_clean_linker_0, # of connection points: 2
#     Edge 62, Type (0, 1), BuildingBlock: UVAHIK_clean_linker_0, # of connection points: 2
#     Edge 63, Type (0, 1), BuildingBlock: UVAHIK_clean_linker_0, # of connection points: 2
#     Edge 64, Type (0, 1), BuildingBlock: UVAHIK_clean_linker_0, # of connection points: 2
#     Edge 65, Type (0, 1), BuildingBlock: UVAHIK_clean_linker_0, # of connection points: 2
#     Edge 66, Type (0, 1), BuildingBlock: UVAHIK_clean_linker_0, # of connection points: 2
#     Edge 67, Type (0, 1), BuildingBlock: UVAHIK_clean_linker_0, # of connection points: 2
#     Edge 68, Type (0, 1), BuildingBlock: UVAHIK_clean_linker_0, # of connection points: 2
#     Edge 69, Type (0, 1), BuildingBlock: UVAHIK_clean_linker_0, # of connection points: 2
#     Edge 70, Type (0, 1), BuildingBlock: UVAHIK_clean_linker_0, # of connection points: 2
#     Edge 71, Type (0, 1), BuildingBlock: UVAHIK_clean_linker_0, # of connection points: 2
#     Edge 72, Type (0, 1), BuildingBlock: UVAHIK_clean_linker_0, # of connection points: 2
#     Edge 73, Type (0, 1), BuildingBlock: UVAHIK_clean_linker_0, # of connection points: 2
#     Edge 74, Type (0, 1), BuildingBlock: UVAHIK_clean_linker_0, # of connection points: 2
#     Edge 75, Type (0, 1), BuildingBlock: UVAHIK_clean_linker_0, # of connection points: 2
# Relax obj value: 0.079
# Max RMSD: 0.182
# Mean RMSD: 0.128
data_MOF--net-ctn--node1-OLANEW_clean_sbu_2--node2-QUQFOY_clean_sbu_1--edge1-UVAHIK_clean_linker_0
_symmetry_space_group_name_H-M    P1
_symmetry_Int_Tables_number       1
_symmetry_cell_setting            triclinic
loop_
_symmetry_equiv_pos_as_xyz
'x, y, z'
_cell_length_a     73.580046
_cell_length_b     75.729947
_cell_length_c     71.470062
_cell_angle_alpha  93.856192
_cell_angle_beta   94.584246
_cell_angle_gamma 99.775659
loop_
_atom_site_label
_atom_site_type_symbol
_atom_site_fract_x
_atom_site_fract_y
_atom_site_fract_z
_atom_type_partial_charge
O0 O 0.08937 0.1293 0.08453 0.0
Cd1 Cd 0.09097 0.11325 0.11316 0.0
O2 O 0.09175 0.15563 0.10041 0.0
Cd3 Cd 0.08819 0.14402 0.12721 0.0
O4 O 0.07007 0.13339 0.14802 0.0
C5 C 0.06055 0.1438 0.15586 0.0
O6 O 0.0629 0.16073 0.15205 0.0
C7 C 0.09062 0.14629 0.08476 0.0
C8 C 0.10516 0.08149 0.10805 0.0
O9 O 0.11589 0.09657 0.11285 0.0
O10 O 0.0877 0.08144 0.10557 0.0
O11 O 0.31243 0.77145 0.2869 0.0
Cd12 Cd 0.28027 0.76675 0.27309 0.0
O13 O 0.3165 0.74426 0.27743 0.0
Cd14 Cd 0.28817 0.735 0.26523 0.0
O15 O 0.26467 0.71332 0.26563 0.0
C16 C 0.26511 0.70492 0.28041 0.0
O17 O 0.27874 0.71036 0.29366 0.0
C18 C 0.32277 0.75962 0.28595 0.0
C19 C 0.27498 0.78817 0.24356 0.0
O20 O 0.27446 0.79412 0.2607 0.0
O21 O 0.27811 0.77214 0.24042 0.0
O22 O 0.89669 0.48129 0.15858 0.0
Cd23 Cd 0.8646 0.47957 0.14582 0.0
O24 O 0.89881 0.45805 0.13936 0.0
Cd25 Cd 0.91443 0.43967 0.12547 0.0
O26 O 0.92921 0.42301 0.10823 0.0
C27 C 0.92831 0.4064 0.11052 0.0
O28 O 0.91857 0.39937 0.12368 0.0
C29 C 0.9062 0.47007 0.15229 0.0
C30 C 0.85895 0.51075 0.12922 0.0
O31 O 0.85613 0.50885 0.1465 0.0
O32 O 0.86449 0.49794 0.11988 0.0
O33 O 0.73958 0.84385 0.24235 0.0
Cd34 Cd 0.72115 0.81386 0.2432 0.0
O35 O 0.72611 0.85523 0.26559 0.0
Cd36 Cd 0.70731 0.83106 0.27132 0.0
O37 O 0.68599 0.82077 0.28935 0.0
C38 C 0.67806 0.8329 0.29655 0.0
O39 O 0.68291 0.8495 0.29211 0.0
C40 C 0.7378 0.8572 0.25339 0.0
C41 C 0.72323 0.79166 0.2109 0.0
O42 O 0.71053 0.80129 0.21174 0.0
O43 O 0.73495 0.79253 0.22534 0.0
O44 O 0.13684 0.93596 0.44894 0.0
Cd45 Cd 0.12108 0.90483 0.44338 0.0
O46 O 0.10969 0.9441 0.44822 0.0
Cd47 Cd 0.08877 0.9614 0.45009 0.0
O48 O 0.06688 0.9767 0.44313 0.0
C49 C 0.06803 0.98509 0.42834 0.0
O50 O 0.08239 0.98453 0.41863 0.0
C51 C 0.12728 0.94841 0.45018 0.0
C52 C 0.10256 0.89457 0.47449 0.0
O53 O 0.11929 0.89229 0.47319 0.0
O54 O 0.09456 0.90157 0.46098 0.0
O55 O 0.26892 0.79197 0.85171 0.0
Cd56 Cd 0.27616 0.77793 0.822 0.0
O57 O 0.24081 0.78802 0.83786 0.0
Cd58 Cd 0.21183 0.79108 0.83318 0.0
O59 O 0.18494 0.79133 0.81797 0.0
C60 C 0.18389 0.80238 0.80547 0.0
O61 O 0.19881 0.81381 0.80276 0.0
C62 C 0.2521 0.79377 0.85225 0.0
C63 C 0.29417 0.74855 0.82519 0.0
O64 O 0.30336 0.76437 0.8241 0.0
O65 O 0.27653 0.74671 0.82517 0.0
O66 O 0.90483 0.57257 0.38013 0.0
Cd67 Cd 0.87181 0.57163 0.38182 0.0
O68 O 0.90974 0.57927 0.41062 0.0
Cd69 Cd 0.92672 0.58829 0.43714 0.0
O70 O 0.93717 0.60576 0.46264 0.0
C71 C 0.93468 0.62193 0.46218 0.0
O72 O 0.92667 0.62677 0.44671 0.0
C73 C 0.916 0.57593 0.39494 0.0
C74 C 0.86063 0.55498 0.41352 0.0
O75 O 0.86211 0.54576 0.39819 0.0
O76 O 0.86429 0.57217 0.41385 0.0
O77 O 0.78573 0.80235 0.82689 0.0
Cd78 Cd 0.78596 0.82516 0.80424 0.0
O79 O 0.75622 0.79115 0.81952 0.0
Cd80 Cd 0.75076 0.81244 0.80192 0.0
O81 O 0.73581 0.83469 0.79829 0.0
C82 C 0.73078 0.8411 0.81354 0.0
O83 O 0.73536 0.83428 0.82932 0.0
C84 C 0.77156 0.79067 0.82886 0.0
C85 C 0.81368 0.82269 0.78028 0.0
O86 O 0.81691 0.83303 0.79556 0.0
O87 O 0.79727 0.81371 0.77623 0.0
O88 O 0.28012 0.29453 0.32207 0.0
Cd89 Cd 0.27552 0.30974 0.29342 0.0
O90 O 0.25379 0.29943 0.33219 0.0
Cd91 Cd 0.24594 0.31619 0.31032 0.0
O92 O 0.23051 0.33764 0.30411 0.0
C93 C 0.2284 0.34742 0.31866 0.0
O94 O 0.2359 0.34407 0.33507 0.0
C95 C 0.2684 0.29262 0.33424 0.0
C96 C 0.30475 0.30815 0.27118 0.0
O97 O 0.30461 0.32207 0.28237 0.0
O98 O 0.29101 0.29513 0.27039 0.0
O99 O 0.40711 0.99161 0.67227 0.0
Cd100 Cd 0.37444 0.989 0.6611 0.0
O101 O 0.40821 0.96774 0.65356 0.0
Cd102 Cd 0.42282 0.94861 0.63942 0.0
O103 O 0.43697 0.93113 0.62246 0.0
C104 C 0.43329 0.91417 0.62295 0.0
O105 O 0.42102 0.90729 0.63406 0.0
C106 C 0.41626 0.98015 0.6658 0.0
C107 C 0.36719 0.01816 0.64167 0.0
O108 O 0.36552 0.01795 0.65938 0.0
O109 O 0.37239 0.00465 0.63324 0.0
O110 O 0.24049 0.34602 0.74039 0.0
Cd111 Cd 0.2224 0.31609 0.74252 0.0
O112 O 0.22547 0.35841 0.76166 0.0
Cd113 Cd 0.20699 0.33429 0.76803 0.0
O114 O 0.18589 0.32287 0.78576 0.0
C115 C 0.17708 0.33429 0.79293 0.0
O116 O 0.18097 0.35104 0.78865 0.0
C117 C 0.23785 0.35987 0.75016 0.0
C118 C 0.22434 0.29269 0.71112 0.0
O119 O 0.21156 0.30226 0.71157 0.0
O120 O 0.23622 0.2942 0.72552 0.0
O121 O 0.79837 0.29966 0.80233 0.0
Cd122 Cd 0.76783 0.30659 0.79298 0.0
O123 O 0.78594 0.27113 0.79963 0.0
Cd124 Cd 0.7852 0.24217 0.79975 0.0
O125 O 0.77604 0.21315 0.79848 0.0
C126 C 0.77917 0.20412 0.81236 0.0
O127 O 0.78886 0.21235 0.82767 0.0
C128 C 0.80008 0.28338 0.80378 0.0
C129 C 0.76586 0.32138 0.75836 0.0
O130 O 0.77092 0.33139 0.7737 0.0
O131 O 0.76187 0.30434 0.75939 0.0
O132 O 0.62587 0.64503 0.59155 0.0
Cd133 Cd 0.64032 0.63256 0.61853 0.0
O134 O 0.6028 0.64614 0.60874 0.0
Cd135 Cd 0.57677 0.65273 0.61755 0.0
O136 O 0.5537 0.65265 0.63497 0.0
C137 C 0.53691 0.64744 0.62848 0.0
O138 O 0.53306 0.64276 0.61037 0.0
C139 C 0.60999 0.64904 0.59339 0.0
C140 C 0.6464 0.59749 0.61109 0.0
O141 O 0.6588 0.61108 0.60885 0.0
O142 O 0.63098 0.60048 0.61666 0.0
O143 O 0.63122 0.43656 0.94529 0.0
Cd144 Cd 0.61499 0.40562 0.93962 0.0
O145 O 0.60435 0.44529 0.94281 0.0
Cd146 Cd 0.58374 0.46304 0.94322 0.0
O147 O 0.5624 0.47872 0.93536 0.0
C148 C 0.56404 0.48695 0.9205 0.0
O149 O 0.57857 0.48602 0.91114 0.0
C150 C 0.62193 0.44926 0.94576 0.0
C151 C 0.59751 0.39544 0.97137 0.0
O152 O 0.61402 0.39282 0.96936 0.0
O153 O 0.58922 0.40268 0.95825 0.0
O154 O 0.76844 0.28649 0.34593 0.0
Cd155 Cd 0.7759 0.27169 0.31673 0.0
O156 O 0.7403 0.28231 0.33208 0.0
Cd157 Cd 0.71136 0.28556 0.32759 0.0
O158 O 0.68426 0.28641 0.31315 0.0
C159 C 0.6828 0.29842 0.30179 0.0
O160 O 0.69748 0.31045 0.29975 0.0
C161 C 0.75162 0.28831 0.34638 0.0
C162 C 0.79456 0.24294 0.32142 0.0
O163 O 0.80347 0.25874 0.31968 0.0
O164 O 0.77689 0.24083 0.32129 0.0
O165 O 0.40589 0.05507 0.88419 0.0
Cd166 Cd 0.37355 0.05759 0.8862 0.0
O167 O 0.41367 0.07315 0.90981 0.0
Cd168 Cd 0.43131 0.08819 0.93371 0.0
O169 O 0.4421 0.10759 0.95766 0.0
C170 C 0.43935 0.12361 0.95645 0.0
O171 O 0.4308 0.12764 0.94087 0.0
C172 C 0.41836 0.06326 0.89658 0.0
C173 C 0.36171 0.04476 0.91956 0.0
O174 O 0.36207 0.03405 0.90498 0.0
O175 O 0.3668 0.06166 0.91836 0.0
O176 O 0.23776 0.88922 0.0341 0.0
Cd177 Cd 0.24823 0.90665 0.05727 0.0
Cd178 Cd 0.2219 0.92558 0.04352 0.0
O179 O 0.21632 0.90402 0.02321 0.0
O180 O 0.26339 0.89302 0.0732 0.0
O181 O 0.23846 0.90247 0.08247 0.0
C182 C 0.25205 0.89401 0.08591 0.0
C183 C 0.19764 0.9382 0.05497 0.0
C184 C 0.22478 0.89073 0.0218 0.0
C185 C 0.26208 0.94335 0.04557 0.0
O186 O 0.24522 0.94439 0.04139 0.0
O187 O 0.26645 0.92939 0.05231 0.0
O188 O 0.20175 0.93946 0.03787 0.0
O189 O 0.20684 0.92896 0.06554 0.0
O190 O 0.13172 0.53921 0.31613 0.0
Cd191 Cd 0.11235 0.51763 0.32175 0.0
Cd192 Cd 0.09373 0.52564 0.29066 0.0
O193 O 0.11871 0.54171 0.28782 0.0
O194 O 0.12572 0.50137 0.33597 0.0
O195 O 0.11209 0.49411 0.307 0.0
C196 C 0.12204 0.49002 0.32128 0.0
C197 C 0.07577 0.51237 0.2632 0.0
C198 C 0.132 0.54644 0.3006 0.0
C199 C 0.07806 0.53102 0.3283 0.0
O200 O 0.07797 0.53393 0.311 0.0
O201 O 0.09026 0.52304 0.33584 0.0
O202 O 0.07876 0.52945 0.2674 0.0
O203 O 0.0836 0.50259 0.27436 0.0
O204 O 0.74305 0.6794 0.99066 0.0
Cd205 Cd 0.73457 0.66477 0.01259 0.0
Cd206 Cd 0.76438 0.64983 0.0066 0.0
O207 O 0.76972 0.6701 0.98868 0.0
O208 O 0.71981 0.67909 0.02776 0.0
O209 O 0.7466 0.67234 0.03871 0.0
C210 C 0.73268 0.68028 0.04139 0.0
C211 C 0.78786 0.64222 0.02675 0.0
C212 C 0.75831 0.68003 0.98334 0.0
C213 C 0.72651 0.62621 0.99935 0.0
O214 O 0.74382 0.62801 0.99793 0.0
O215 O 0.71952 0.63934 0.00576 0.0
O216 O 0.78713 0.6389 0.00875 0.0
O217 O 0.7758 0.65094 0.03332 0.0
O218 O 0.91985 0.04218 0.30926 0.0
Cd219 Cd 0.9025 0.04611 0.28642 0.0
Cd220 Cd 0.88167 0.05331 0.31468 0.0
O221 O 0.90336 0.04827 0.33253 0.0
O222 O 0.91851 0.04478 0.26546 0.0
O223 O 0.90818 0.06949 0.27426 0.0
C224 C 0.91809 0.06148 0.26351 0.0
C225 C 0.87257 0.08123 0.31716 0.0
C226 C 0.91797 0.04381 0.32678 0.0
C227 C 0.86497 0.02284 0.28619 0.0
O228 O 0.86312 0.03175 0.30142 0.0
O229 O 0.87951 0.02672 0.27775 0.0
O230 O 0.86729 0.06912 0.32841 0.0
O231 O 0.88328 0.0775 0.30452 0.0
O232 O 0.24934 0.18076 0.49524 0.0
Cd233 Cd 0.23981 0.1643 0.51546 0.0
Cd234 Cd 0.26947 0.14929 0.50807 0.0
O235 O 0.2751 0.17034 0.49123 0.0
O236 O 0.22404 0.17766 0.5304 0.0
O237 O 0.2504 0.17073 0.54229 0.0
C238 C 0.23626 0.17845 0.54457 0.0
C239 C 0.29219 0.14156 0.52901 0.0
C240 C 0.26436 0.18138 0.48747 0.0
C241 C 0.23164 0.12608 0.49986 0.0
O242 O 0.24895 0.1278 0.49852 0.0
O243 O 0.22478 0.13908 0.50684 0.0
O244 O 0.29221 0.13843 0.51105 0.0
O245 O 0.27977 0.15011 0.53509 0.0
O246 O 0.41796 0.54814 0.80059 0.0
Cd247 Cd 0.39973 0.55137 0.77812 0.0
Cd248 Cd 0.37921 0.5579 0.80674 0.0
O249 O 0.40124 0.55285 0.82409 0.0
O250 O 0.41533 0.55118 0.75669 0.0
O251 O 0.40326 0.57478 0.76575 0.0
C252 C 0.41347 0.56756 0.75466 0.0
C253 C 0.36973 0.58558 0.81038 0.0
C254 C 0.4161 0.54917 0.81814 0.0
C255 C 0.36287 0.5271 0.77848 0.0
O256 O 0.36078 0.53627 0.79347 0.0
O257 O 0.37741 0.53104 0.77005 0.0
O258 O 0.36478 0.57306 0.82129 0.0
O259 O 0.38025 0.58236 0.79736 0.0
O260 O 0.74063 0.387 0.52619 0.0
Cd261 Cd 0.75189 0.40558 0.54816 0.0
Cd262 Cd 0.72522 0.42325 0.53556 0.0
O263 O 0.71827 0.40106 0.51612 0.0
O264 O 0.76567 0.39297 0.56654 0.0
O265 O 0.74111 0.40477 0.57306 0.0
C266 C 0.75401 0.39604 0.57839 0.0
C267 C 0.70293 0.43616 0.55034 0.0
C268 C 0.72685 0.38787 0.51459 0.0
C269 C 0.76494 0.44132 0.53452 0.0
O270 O 0.74788 0.442 0.53116 0.0
O271 O 0.76996 0.42774 0.54153 0.0
O272 O 0.70447 0.43689 0.53256 0.0
O273 O 0.71335 0.42702 0.55963 0.0
O274 O 0.64398 0.0362 0.82665 0.0
Cd275 Cd 0.6221 0.01553 0.82828 0.0
Cd276 Cd 0.60747 0.02949 0.79869 0.0
O277 O 0.63418 0.04323 0.79865 0.0
O278 O 0.63225 0.99652 0.84133 0.0
O279 O 0.62129 0.99322 0.81125 0.0
C280 C 0.62919 0.98682 0.82546 0.0
C281 C 0.59005 0.01787 0.77047 0.0
C282 C 0.64663 0.04511 0.81237 0.0
C283 C 0.58915 0.03163 0.83486 0.0
O284 O 0.59126 0.03747 0.81878 0.0
O285 O 0.59941 0.0211 0.84125 0.0
O286 O 0.59428 0.03492 0.77498 0.0
O287 O 0.59664 0.00727 0.7816 0.0
O288 O 0.98614 0.2798 0.96554 0.0
Cd289 Cd 0.98952 0.2618 0.9437 0.0
Cd290 Cd 0.00496 0.29153 0.92887 0.0
O291 O 0.00155 0.30396 0.9547 0.0
O292 O 0.98956 0.23823 0.95449 0.0
O293 O 0.01407 0.25377 0.94337 0.0
C294 C 0.00684 0.23992 0.95156 0.0
C295 C 0.03331 0.29723 0.91598 0.0
C296 C 0.99267 0.29654 0.96748 0.0
C297 C 0.9697 0.27026 0.90846 0.0
O298 O 0.98191 0.28446 0.90978 0.0
O299 O 0.97045 0.25858 0.92034 0.0
O300 O 0.02256 0.30902 0.91648 0.0
O301 O 0.02817 0.28229 0.92334 0.0
O302 O 0.4932 0.78833 0.47836 0.0
Cd303 Cd 0.49851 0.77064 0.45705 0.0
Cd304 Cd 0.51468 0.80082 0.44436 0.0
O305 O 0.51171 0.81225 0.47069 0.0
O306 O 0.49674 0.7469 0.46786 0.0
O307 O 0.52288 0.76214 0.45959 0.0
C308 C 0.51438 0.74834 0.467 0.0
C309 C 0.54259 0.80562 0.43068 0.0
C310 C 0.50092 0.80469 0.48194 0.0
C311 C 0.48054 0.78067 0.42172 0.0
O312 O 0.49155 0.79557 0.42532 0.0
O313 O 0.48186 0.76772 0.4319 0.0
O314 O 0.5328 0.81813 0.43248 0.0
O315 O 0.53694 0.79052 0.43756 0.0
O316 O 0.96924 0.77935 0.67119 0.0
Cd317 Cd 0.99119 0.77219 0.658 0.0
Cd318 Cd 0.98163 0.79492 0.63339 0.0
O319 O 0.96445 0.80107 0.65339 0.0
O320 O 0.00687 0.76287 0.67766 0.0
O321 O 0.01623 0.78771 0.66386 0.0
C322 C 0.01953 0.77662 0.67616 0.0
C323 C 0.00021 0.81751 0.61954 0.0
C324 C 0.96075 0.79216 0.66747 0.0
C325 C 0.97777 0.75595 0.61929 0.0
O326 O 0.97396 0.77133 0.61632 0.0
O327 O 0.98574 0.75338 0.63506 0.0
O328 O 0.98249 0.8141 0.61563 0.0
O329 O 0.00738 0.80858 0.6321 0.0
O330 O 0.46712 0.2759 0.16691 0.0
Cd331 Cd 0.49024 0.27074 0.15451 0.0
Cd332 Cd 0.48122 0.2947 0.13141 0.0
O333 O 0.4637 0.29962 0.15162 0.0
O334 O 0.50596 0.26125 0.174 0.0
O335 O 0.51451 0.28719 0.16184 0.0
C336 C 0.51808 0.27565 0.17352 0.0
C337 C 0.49953 0.31823 0.11862 0.0
C338 C 0.45903 0.2892 0.1643 0.0
C339 C 0.47851 0.25651 0.11502 0.0
O340 O 0.47408 0.27183 0.11303 0.0
O341 O 0.48644 0.25332 0.13057 0.0
O342 O 0.48181 0.31472 0.11471 0.0
O343 O 0.50684 0.30889 0.13067 0.0
C344 C 0.22828 0.7979 0.87462 0.0
C345 C 0.24615 0.80299 0.86897 0.0
C346 C 0.22292 0.80654 0.89068 0.0
C347 C 0.23307 0.84869 0.92074 0.0
H348 H 0.21281 0.82078 0.96022 0.0
C349 C 0.21226 0.88289 0.98806 0.0
C350 C 0.22112 0.87808 0.00465 0.0
C351 C 0.21181 0.87254 0.97101 0.0
C352 C 0.21832 0.82872 0.94924 0.0
H353 H 0.27243 0.82099 0.87563 0.0
H354 H 0.26295 0.83631 0.90346 0.0
H355 H 0.21939 0.80535 0.9309 0.0
H356 H 0.23521 0.85792 0.0166 0.0
H357 H 0.23414 0.83974 0.98689 0.0
H358 H 0.23233 0.87203 0.93909 0.0
C359 C 0.25309 0.82567 0.89548 0.0
C360 C 0.222 0.81991 0.93247 0.0
C361 C 0.25855 0.81685 0.87964 0.0
C362 C 0.22836 0.86204 0.00405 0.0
C363 C 0.22768 0.85157 0.98706 0.0
C364 C 0.22914 0.85748 0.93735 0.0
C365 C 0.23525 0.82059 0.90118 0.0
C366 C 0.22976 0.82983 0.91823 0.0
C367 C 0.21994 0.85704 0.97027 0.0
C368 C 0.22203 0.84759 0.9519 0.0
H369 H 0.21859 0.78699 0.8669 0.0
H370 H 0.2091 0.80234 0.89482 0.0
H371 H 0.23893 0.85664 0.90993 0.0
H372 H 0.20656 0.89517 0.98802 0.0
H373 H 0.20561 0.87696 0.95829 0.0
C374 C 0.94385 0.58064 0.37711 0.0
C375 C 0.93586 0.57574 0.3936 0.0
C376 C 0.96199 0.57854 0.37465 0.0
C377 C 0.99513 0.55002 0.38753 0.0
H378 H 0.02799 0.58379 0.36174 0.0
C379 C 0.06243 0.53334 0.35828 0.0
C380 C 0.06406 0.53748 0.33952 0.0
C381 C 0.04908 0.53967 0.36859 0.0
C382 C 0.01899 0.57423 0.36899 0.0
H383 H 0.94051 0.56479 0.42047 0.0
H384 H 0.9724 0.5611 0.41614 0.0
H385 H 0.00045 0.59267 0.37366 0.0
H386 H 0.053 0.55158 0.31696 0.0
H387 H 0.02989 0.56241 0.33478 0.0
H388 H 0.01327 0.5313 0.38209 0.0
C389 C 0.96463 0.56676 0.40524 0.0
C390 C 0.00326 0.57933 0.37583 0.0
C391 C 0.94649 0.56907 0.40781 0.0
C392 C 0.05218 0.54813 0.33137 0.0
C393 C 0.03901 0.5545 0.34165 0.0
C394 C 0.01089 0.54489 0.38064 0.0
C395 C 0.97246 0.57126 0.38851 0.0
C396 C 0.99082 0.56707 0.38458 0.0
C397 C 0.03729 0.55038 0.36036 0.0
C398 C 0.0226 0.55674 0.37068 0.0
H399 H 0.93591 0.58572 0.3659 0.0
H400 H 0.96752 0.58188 0.36148 0.0
H401 H 0.98572 0.54024 0.39412 0.0
H402 H 0.07139 0.52518 0.36497 0.0
H403 H 0.04804 0.53628 0.38299 0.0
C404 C 0.78947 0.77531 0.85229 0.0
C405 C 0.77249 0.77718 0.84283 0.0
C406 C 0.79001 0.76341 0.8664 0.0
C407 C 0.76099 0.72526 0.8866 0.0
H408 H 0.7936 0.74131 0.93213 0.0
C409 C 0.74752 0.69789 0.9579 0.0
C410 C 0.76211 0.69146 0.96762 0.0
C411 C 0.75058 0.70752 0.94215 0.0
C412 C 0.78459 0.7366 0.9194 0.0
H413 H 0.74278 0.76783 0.84062 0.0
H414 H 0.74363 0.74761 0.86541 0.0
H415 H 0.79567 0.75928 0.90496 0.0
H416 H 0.7915 0.6906 0.96877 0.0
H417 H 0.79692 0.708 0.94136 0.0
H418 H 0.74933 0.70306 0.90146 0.0
C419 C 0.75664 0.75492 0.86171 0.0
C420 C 0.7858 0.74682 0.90379 0.0
C421 C 0.75612 0.76665 0.84752 0.0
C422 C 0.77998 0.69534 0.96154 0.0
C423 C 0.7831 0.7053 0.94592 0.0
C424 C 0.75961 0.71524 0.90226 0.0
C425 C 0.77356 0.75322 0.87145 0.0
C426 C 0.77375 0.74145 0.88732 0.0
C427 C 0.76834 0.71119 0.93594 0.0
C428 C 0.77116 0.72098 0.91889 0.0
H429 H 0.80235 0.78318 0.84893 0.0
H430 H 0.80331 0.76227 0.87341 0.0
H431 H 0.75182 0.72045 0.87401 0.0
H432 H 0.73359 0.6951 0.96216 0.0
H433 H 0.73902 0.71211 0.93479 0.0
C434 C 0.05393 0.00256 0.40437 0.0
C435 C 0.05296 0.99437 0.42141 0.0
C436 C 0.03929 0.01036 0.3971 0.0
C437 C 0.98909 0.00832 0.39865 0.0
H438 H 0.99824 0.05037 0.37035 0.0
C439 C 0.93027 0.03784 0.3592 0.0
C440 C 0.93312 0.04058 0.34031 0.0
C441 C 0.94465 0.03418 0.37159 0.0
C442 C 0.99548 0.03864 0.37824 0.0
H443 H 0.03603 0.9884 0.44447 0.0
H444 H 0.0105 0.00226 0.43183 0.0
H445 H 0.02407 0.04066 0.38791 0.0
H446 H 0.95342 0.04205 0.31976 0.0
H447 H 0.97836 0.03585 0.34132 0.0
H448 H 0.96047 0.00622 0.38868 0.0
C449 C 0.02251 0.0024 0.42397 0.0
C450 C 0.01026 0.03303 0.38824 0.0
C451 C 0.03718 0.99455 0.43126 0.0
C452 C 0.95071 0.03995 0.3342 0.0
C453 C 0.96507 0.03654 0.34659 0.0
C454 C 0.97426 0.01402 0.38873 0.0
C455 C 0.02332 0.01024 0.4067 0.0
C456 C 0.00733 0.01751 0.39814 0.0
C457 C 0.96219 0.0335 0.36537 0.0
C458 C 0.97739 0.02895 0.37801 0.0
H459 H 0.06585 0.00264 0.3964 0.0
H460 H 0.04029 0.016 0.38361 0.0
H461 H 0.98633 0.99623 0.40598 0.0
H462 H 0.91687 0.03823 0.36432 0.0
H463 H 0.94209 0.03193 0.38603 0.0
C464 C 0.23989 0.27045 0.69371 0.0
C465 C 0.22537 0.28031 0.69443 0.0
C466 C 0.24093 0.25888 0.67788 0.0
C467 C 0.22441 0.25004 0.62731 0.0
H468 H 0.23923 0.20377 0.63289 0.0
C469 C 0.21924 0.19743 0.56435 0.0
C470 C 0.2344 0.18857 0.56256 0.0
C471 C 0.21797 0.20798 0.58082 0.0
C472 C 0.23524 0.21672 0.63111 0.0
H473 H 0.20044 0.2856 0.67916 0.0
H474 H 0.20212 0.26529 0.65169 0.0
H475 H 0.23733 0.2235 0.66087 0.0
H476 H 0.25991 0.18352 0.57687 0.0
H477 H 0.2577 0.20204 0.60567 0.0
H478 H 0.22227 0.24328 0.59759 0.0
C479 C 0.21288 0.26669 0.66322 0.0
C480 C 0.23417 0.22804 0.64713 0.0
C481 C 0.21186 0.27827 0.67903 0.0
C482 C 0.24805 0.19016 0.57781 0.0
C483 C 0.24674 0.20071 0.59434 0.0
C484 C 0.22544 0.23873 0.61133 0.0
C485 C 0.22747 0.2569 0.66242 0.0
C486 C 0.2287 0.24483 0.64543 0.0
C487 C 0.2318 0.20993 0.59592 0.0
C488 C 0.23081 0.22191 0.61302 0.0
H489 H 0.25055 0.27174 0.70533 0.0
H490 H 0.25248 0.25173 0.67764 0.0
H491 H 0.2205 0.26302 0.62546 0.0
H492 H 0.20844 0.19644 0.55291 0.0
H493 H 0.20613 0.21466 0.58171 0.0
C494 C 0.5268 0.64826 0.6611 0.0
C495 C 0.52227 0.64447 0.64159 0.0
C496 C 0.5137 0.6432 0.67371 0.0
C497 C 0.46395 0.6273 0.67848 0.0
H498 H 0.483 0.6003 0.71753 0.0
C499 C 0.42184 0.59572 0.73807 0.0
C500 C 0.42366 0.57783 0.74069 0.0
C501 C 0.43273 0.60562 0.72582 0.0
C502 C 0.47749 0.60784 0.70673 0.0
H503 H 0.50005 0.6335 0.62 0.0
H504 H 0.47719 0.62456 0.64211 0.0
H505 H 0.50405 0.6155 0.69676 0.0
H506 H 0.43786 0.55616 0.73206 0.0
H507 H 0.45681 0.57341 0.71098 0.0
H508 H 0.43722 0.61918 0.68841 0.0
C509 C 0.49088 0.63149 0.6476 0.0
C510 C 0.48957 0.6167 0.69496 0.0
C511 C 0.50401 0.63652 0.63495 0.0
C512 C 0.43616 0.56993 0.73047 0.0
C513 C 0.4471 0.57982 0.71844 0.0
C514 C 0.45184 0.61854 0.69046 0.0
C515 C 0.49577 0.63428 0.66713 0.0
C516 C 0.48292 0.62632 0.68053 0.0
C517 C 0.44573 0.59783 0.71622 0.0
C518 C 0.45848 0.60844 0.70445 0.0
H519 H 0.54067 0.65455 0.6667 0.0
H520 H 0.51778 0.64579 0.68868 0.0
H521 H 0.45848 0.63469 0.66754 0.0
H522 H 0.41229 0.60216 0.74572 0.0
H523 H 0.43144 0.6195 0.72433 0.0
C524 C 0.75777 0.31828 0.72343 0.0
C525 C 0.7645 0.32926 0.74 0.0
C526 C 0.75633 0.32574 0.70612 0.0
C527 C 0.76513 0.34326 0.67027 0.0
H528 H 0.74887 0.38916 0.667 0.0
C529 C 0.77017 0.38097 0.60316 0.0
C530 C 0.75529 0.38937 0.59736 0.0
C531 C 0.77118 0.37404 0.62075 0.0
C532 C 0.75329 0.37626 0.66764 0.0
H533 H 0.77507 0.35669 0.7514 0.0
H534 H 0.77286 0.36965 0.72118 0.0
H535 H 0.75035 0.37598 0.69718 0.0
H536 H 0.7299 0.39729 0.60558 0.0
H537 H 0.73153 0.38494 0.63625 0.0
H538 H 0.76766 0.3433 0.64069 0.0
C539 C 0.76839 0.35531 0.72158 0.0
C540 C 0.75435 0.36881 0.68499 0.0
C541 C 0.76978 0.34786 0.7389 0.0
C542 C 0.74156 0.39092 0.60966 0.0
C543 C 0.74255 0.38392 0.62727 0.0
C544 C 0.76403 0.35069 0.65294 0.0
C545 C 0.76165 0.34434 0.70498 0.0
C546 C 0.76033 0.35224 0.68652 0.0
C547 C 0.7573 0.37526 0.63296 0.0
C548 C 0.75818 0.36731 0.65141 0.0
H549 H 0.75349 0.30391 0.7238 0.0
H550 H 0.75083 0.31692 0.69366 0.0
H551 H 0.76998 0.33058 0.67096 0.0
H552 H 0.78105 0.37966 0.59409 0.0
H553 H 0.78292 0.36778 0.62481 0.0
C554 C 0.4436 0.96599 0.67527 0.0
C555 C 0.43602 0.98151 0.67231 0.0
C556 C 0.46211 0.96741 0.68238 0.0
C557 C 0.50705 0.99811 0.68872 0.0
H558 H 0.51628 0.97352 0.73345 0.0
C559 C 0.5691 0.02302 0.74296 0.0
C560 C 0.57649 0.0109 0.75413 0.0
C561 C 0.55407 0.017 0.7296 0.0
C562 C 0.51413 0.98016 0.72071 0.0
H563 H 0.44175 0.01061 0.67434 0.0
H564 H 0.47415 0.01312 0.68658 0.0
H565 H 0.48562 0.9675 0.71631 0.0
H566 H 0.57471 0.98276 0.75912 0.0
H567 H 0.5486 0.97214 0.73542 0.0
H568 H 0.53543 0.01096 0.69318 0.0
C569 C 0.46585 -0.00013 0.68326 0.0
C570 C 0.4965 0.97674 0.71093 0.0
C571 C 0.4473 0.99845 0.6764 0.0
C572 C 0.56927 0.99245 0.75079 0.0
C573 C 0.55421 0.98639 0.73732 0.0
C574 C 0.52473 0.00138 0.69835 0.0
C575 C 0.47339 0.98437 0.68649 0.0
C576 C 0.49265 0.98609 0.69519 0.0
C577 C 0.54607 0.99867 0.72695 0.0
C578 C 0.52834 0.99288 0.71483 0.0
H579 H 0.43507 0.95278 0.67269 0.0
H580 H 0.46756 0.95526 0.68481 0.0
H581 H 0.50452 0.00528 0.67643 0.0
H582 H 0.57434 0.03733 0.74512 0.0
H583 H 0.5481 0.02692 0.72211 0.0
C584 C 0.81926 0.26478 0.82193 0.0
C585 C 0.81818 0.2791 0.81062 0.0
C586 C 0.83642 0.26193 0.82988 0.0
C587 C 0.88326 0.2871 0.84443 0.0
H588 H 0.89559 0.23999 0.85117 0.0
C589 C 0.95397 0.28025 0.87974 0.0
C590 C 0.95387 0.26818 0.89385 0.0
C591 C 0.93824 0.27987 0.86734 0.0
C592 C 0.89229 0.25323 0.84946 0.0
H593 H 0.83417 0.30137 0.79833 0.0
H594 H 0.86413 0.29628 0.81192 0.0
H595 H 0.86643 0.2425 0.83339 0.0
H596 H 0.93744 0.24559 0.90534 0.0
H597 H 0.90983 0.2451 0.88381 0.0
H598 H 0.90881 0.29787 0.86071 0.0
C599 C 0.85174 0.28737 0.81489 0.0
C600 C 0.8756 0.25467 0.83929 0.0
C601 C 0.8346 0.29025 0.80704 0.0
C602 C 0.93797 0.2551 0.89465 0.0
C603 C 0.92216 0.25477 0.88226 0.0
C604 C 0.89987 0.28566 0.85454 0.0
C605 C 0.85284 0.2734 0.82672 0.0
C606 C 0.87087 0.27164 0.83672 0.0
C607 C 0.92198 0.26747 0.86879 0.0
C608 C 0.90459 0.26873 0.85725 0.0
H609 H 0.80683 0.25633 0.82548 0.0
H610 H 0.83674 0.25124 0.83917 0.0
H611 H 0.87989 0.30036 0.84312 0.0
H612 H 0.96605 0.29036 0.87856 0.0
H613 H 0.93869 0.28958 0.85686 0.0
C614 C 0.45513 0.90971 0.59858 0.0
C615 C 0.44211 0.90233 0.61056 0.0
C616 C 0.46285 0.89855 0.58629 0.0
C617 C 0.45339 0.8533 0.5617 0.0
H618 H 0.50512 0.86399 0.55224 0.0
C619 C 0.48494 0.80674 0.51148 0.0
C620 C 0.49649 0.81515 0.49872 0.0
C621 C 0.47958 0.8168 0.52652 0.0
C622 C 0.49061 0.86091 0.55463 0.0
H623 H 0.42733 0.87741 0.61932 0.0
H624 H 0.4409 0.85794 0.59793 0.0
H625 H 0.49335 0.88265 0.57601 0.0
H626 H 0.51189 0.84067 0.49211 0.0
H627 H 0.50235 0.85824 0.51821 0.0
H628 H 0.45052 0.83178 0.54014 0.0
C629 C 0.44496 0.87238 0.5979 0.0
C630 C 0.48388 0.87159 0.56825 0.0
C631 C 0.43725 0.88353 0.61022 0.0
C632 C 0.503 0.83376 0.50168 0.0
C633 C 0.4976 0.84383 0.51671 0.0
C634 C 0.4601 0.84265 0.54808 0.0
C635 C 0.45772 0.87976 0.58567 0.0
C636 C 0.46515 0.86797 0.57185 0.0
C637 C 0.48561 0.83551 0.52915 0.0
C638 C 0.47877 0.84639 0.54428 0.0
H639 H 0.45918 0.92413 0.59849 0.0
H640 H 0.47249 0.90467 0.57691 0.0
H641 H 0.43883 0.85033 0.56391 0.0
H642 H 0.47978 0.79241 0.50971 0.0
H643 H 0.4706 0.80992 0.53604 0.0
C644 C 0.15988 0.31174 0.81243 0.0
C645 C 0.16324 0.32922 0.80645 0.0
C646 C 0.14721 0.30736 0.82573 0.0
C647 C 0.12346 0.32848 0.86275 0.0
H648 H 0.08828 0.2837 0.85596 0.0
C649 C 0.05645 0.31738 0.89976 0.0
C650 C 0.05049 0.30049 0.90636 0.0
C651 C 0.07179 0.32019 0.88935 0.0
C652 C 0.0982 0.29613 0.85822 0.0
H653 H 0.1557 0.35569 0.80951 0.0
H654 H 0.13354 0.34799 0.83236 0.0
H655 H 0.11188 0.28973 0.83395 0.0
H656 H 0.05623 0.27341 0.9076 0.0
H657 H 0.08311 0.27835 0.88932 0.0
H658 H 0.10953 0.33507 0.88674 0.0
C659 C 0.14091 0.33775 0.82711 0.0
C660 C 0.11172 0.29959 0.8456 0.0
C661 C 0.15354 0.34212 0.81387 0.0
C662 C 0.06049 0.28658 0.9027 0.0
C663 C 0.0758 0.28937 0.89215 0.0
C664 C 0.10994 0.32505 0.87531 0.0
C665 C 0.13769 0.32037 0.83331 0.0
C666 C 0.12428 0.31596 0.84753 0.0
C667 C 0.08149 0.30616 0.88521 0.0
C668 C 0.09696 0.30898 0.87299 0.0
H669 H 0.16717 0.3015 0.807 0.0
H670 H 0.14511 0.29387 0.8303 0.0
H671 H 0.13319 0.34105 0.86488 0.0
H672 H 0.04905 0.32838 0.90232 0.0
H673 H 0.07569 0.33322 0.88402 0.0
C674 C 0.61113 0.6681 0.56616 0.0
C675 C 0.60061 0.6575 0.57821 0.0
C676 C 0.60244 0.67655 0.55209 0.0
C677 C 0.55775 0.67526 0.52402 0.0
H678 H 0.57681 0.72551 0.51897 0.0
C679 C 0.51536 0.72149 0.48536 0.0
C680 C 0.52468 0.73534 0.4757 0.0
C681 C 0.52523 0.71057 0.49564 0.0
C682 C 0.57148 0.7114 0.51991 0.0
H683 H 0.57271 0.64648 0.58415 0.0
H684 H 0.55751 0.66154 0.55988 0.0
H685 H 0.59285 0.70924 0.54133 0.0
H686 H 0.55163 0.748 0.46849 0.0
H687 H 0.56887 0.72872 0.48617 0.0
H688 H 0.53627 0.67746 0.50272 0.0
C689 C 0.57249 0.66342 0.56138 0.0
C690 C 0.58067 0.70207 0.53279 0.0
C691 C 0.58121 0.65505 0.57553 0.0
C692 C 0.54404 0.73751 0.47585 0.0
C693 C 0.55393 0.72654 0.48611 0.0
C694 C 0.54859 0.68456 0.51108 0.0
C695 C 0.58302 0.67441 0.54962 0.0
C696 C 0.57378 0.68397 0.53516 0.0
C697 C 0.54467 0.7132 0.49647 0.0
C698 C 0.55521 0.70282 0.50903 0.0
H699 H 0.62612 0.67012 0.56781 0.0
H700 H 0.61092 0.68473 0.54309 0.0
H701 H 0.55227 0.66124 0.52532 0.0
H702 H 0.50045 0.71946 0.48557 0.0
H703 H 0.51764 0.70058 0.50359 0.0
C704 C 0.84649 0.83084 0.77236 0.0
C705 C 0.82857 0.82081 0.76792 0.0
C706 C 0.86072 0.82851 0.7611 0.0
C707 C 0.87445 0.79537 0.72749 0.0
H708 H 0.91012 0.83585 0.71526 0.0
C709 C 0.94126 0.7859 0.69427 0.0
C710 C 0.94618 0.79638 0.67934 0.0
C711 C 0.92707 0.78941 0.70506 0.0
C712 C 0.9002 0.82442 0.71847 0.0
H713 H 0.81147 0.8007 0.74795 0.0
H714 H 0.83629 0.7967 0.72828 0.0
H715 H 0.88461 0.84115 0.73355 0.0
H716 H 0.9402 0.81897 0.66425 0.0
H717 H 0.91537 0.82504 0.68309 0.0
H718 H 0.88988 0.77865 0.71228 0.0
C719 C 0.83938 0.80622 0.74059 0.0
C720 C 0.8857 0.82744 0.72908 0.0
C721 C 0.82513 0.8086 0.75181 0.0
C722 C 0.93676 0.81063 0.67565 0.0
C723 C 0.9226 0.81418 0.6865 0.0
C724 C 0.88897 0.79235 0.71696 0.0
C725 C 0.85736 0.81604 0.74519 0.0
C726 C 0.87266 0.81294 0.73371 0.0
C727 C 0.91749 0.80351 0.70122 0.0
C728 C 0.90203 0.80683 0.71235 0.0
H729 H 0.8496 0.84036 0.78468 0.0
H730 H 0.87447 0.83615 0.76512 0.0
H731 H 0.86475 0.7839 0.73098 0.0
H732 H 0.94826 0.77486 0.69757 0.0
H733 H 0.92365 0.78112 0.71649 0.0
C734 C 0.10138 0.88106 0.50554 0.0
C735 C 0.09272 0.88921 0.49104 0.0
C736 C 0.09191 0.87562 0.52095 0.0
C737 C 0.04456 0.8629 0.53452 0.0
H738 H 0.06868 0.86812 0.58536 0.0
C739 C 0.00361 0.84058 0.59611 0.0
C740 C 0.01189 0.83004 0.60855 0.0
C741 C 0.01402 0.85026 0.58348 0.0
C742 C 0.06179 0.86649 0.57123 0.0
H743 H 0.06746 0.89846 0.48157 0.0
H744 H 0.051 0.88911 0.5085 0.0
H745 H 0.08581 0.88014 0.55972 0.0
H746 H 0.03782 0.82221 0.61828 0.0
H747 H 0.05599 0.83895 0.59602 0.0
H748 H 0.02069 0.84901 0.54582 0.0
C749 C 0.06503 0.88667 0.50783 0.0
C750 C 0.0716 0.87335 0.55654 0.0
C751 C 0.07449 0.89209 0.49243 0.0
C752 C 0.03104 0.83022 0.60886 0.0
C753 C 0.04147 0.83985 0.59613 0.0
C754 C 0.03479 0.85605 0.54915 0.0
C755 C 0.07356 0.87823 0.52219 0.0
C756 C 0.0631 0.87156 0.53801 0.0
C757 C 0.03294 0.84955 0.58292 0.0
C758 C 0.04328 0.8577 0.56767 0.0
H759 H 0.11543 0.87866 0.5049 0.0
H760 H 0.0988 0.86898 0.53166 0.0
H761 H 0.0377 0.86097 0.52036 0.0
H762 H 0.98892 0.84089 0.59566 0.0
H763 H 0.00712 0.85794 0.5738 0.0
C764 C 0.16539 0.8137 0.77933 0.0
C765 C 0.16651 0.8015 0.79318 0.0
C766 C 0.1494 0.81221 0.76695 0.0
C767 C 0.09966 0.7914 0.76036 0.0
H768 H 0.10533 0.7973 0.70752 0.0
C769 C 0.03951 0.76822 0.70288 0.0
C770 C 0.03694 0.77984 0.68875 0.0
C771 C 0.0554 0.77166 0.71552 0.0
C772 C 0.10352 0.79582 0.72226 0.0
H773 H 0.15157 0.77834 0.80509 0.0
H774 H 0.12382 0.77558 0.78339 0.0
H775 H 0.1327 0.80215 0.73016 0.0
H776 H 0.04922 0.80403 0.6766 0.0
H777 H 0.0771 0.81002 0.69874 0.0
H778 H 0.0705 0.7848 0.7524 0.0
C779 C 0.13519 0.78647 0.78223 0.0
C780 C 0.11919 0.79862 0.73525 0.0
C781 C 0.15115 0.788 0.79463 0.0
C782 C 0.05081 0.79481 0.68732 0.0
C783 C 0.06679 0.79821 0.69995 0.0
C784 C 0.08402 0.78853 0.74737 0.0
C785 C 0.13417 0.79846 0.76813 0.0
C786 C 0.11746 0.7963 0.75444 0.0
C787 C 0.06915 0.78677 0.71432 0.0
C788 C 0.08578 0.79054 0.72815 0.0
H789 H 0.17694 0.82432 0.77788 0.0
H790 H 0.14897 0.82183 0.75645 0.0
H791 H 0.09779 0.78983 0.77507 0.0
H792 H 0.02914 0.75653 0.70435 0.0
H793 H 0.05696 0.76242 0.72623 0.0
C794 C 0.94802 0.62995 0.49578 0.0
C795 C 0.93991 0.63498 0.47891 0.0
C796 C 0.95225 0.64224 0.5117 0.0
C797 C 0.93937 0.68379 0.5324 0.0
H798 H 0.98598 0.68894 0.5634 0.0
C799 C 0.96446 0.74415 0.58664 0.0
C800 C 0.97312 0.74116 0.60411 0.0
C801 C 0.96026 0.73042 0.57214 0.0
C802 C 0.97279 0.68749 0.55503 0.0
H803 H 0.93024 0.65695 0.46544 0.0
H804 H 0.93771 0.67831 0.49306 0.0
H805 H 0.97915 0.66635 0.53654 0.0
H806 H 0.98414 0.72129 0.62 0.0
H807 H 0.97663 0.6972 0.59463 0.0
H808 H 0.933 0.70492 0.55074 0.0
C809 C 0.94055 0.66482 0.4941 0.0
C810 C 0.96889 0.67456 0.53964 0.0
C811 C 0.93638 0.65259 0.47822 0.0
C812 C 0.97747 0.72405 0.60672 0.0
C813 C 0.97326 0.71028 0.59216 0.0
C814 C 0.94324 0.69666 0.54776 0.0
C815 C 0.94837 0.65976 0.51107 0.0
C816 C 0.95224 0.67276 0.52801 0.0
C817 C 0.96458 0.71331 0.57471 0.0
C818 C 0.9601 0.69884 0.55911 0.0
H819 H 0.95092 0.61648 0.49676 0.0
H820 H 0.95818 0.63792 0.5246 0.0
H821 H 0.92624 0.68248 0.52396 0.0
H822 H 0.96099 0.75717 0.58407 0.0
H823 H 0.95385 0.7333 0.55877 0.0
C824 C 0.74705 0.88972 0.26462 0.0
C825 C 0.74955 0.87504 0.25259 0.0
C826 C 0.75857 0.90638 0.26472 0.0
C827 C 0.80504 0.92677 0.25392 0.0
H828 H 0.7862 0.9712 0.26228 0.0
C829 C 0.85334 0.99599 0.2632 0.0
C830 C 0.85051 0.00734 0.2787 0.0
C831 C 0.84029 0.98061 0.25704 0.0
C832 C 0.79167 0.9589 0.25999 0.0
H833 H 0.76589 0.86652 0.23083 0.0
H834 H 0.78602 0.89576 0.23095 0.0
H835 H 0.7646 0.94275 0.25647 0.0
H836 H 0.83141 0.01173 0.29945 0.0
H837 H 0.80874 0.98492 0.28875 0.0
H838 H 0.83213 0.9429 0.25782 0.0
C839 C 0.77521 0.89426 0.24045 0.0
C840 C 0.77931 0.94261 0.25667 0.0
C841 C 0.76363 0.87753 0.24033 0.0
C842 C 0.83406 0.00327 0.2875 0.0
C843 C 0.82099 0.98796 0.28128 0.0
C844 C 0.81741 0.94308 0.25719 0.0
C845 C 0.7729 0.90883 0.25277 0.0
C846 C 0.78587 0.9263 0.25402 0.0
C847 C 0.82408 0.97631 0.26616 0.0
C848 C 0.81087 0.95929 0.26067 0.0
H849 H 0.73635 0.88832 0.27425 0.0
H850 H 0.75656 0.91721 0.2746 0.0
H851 H 0.81058 0.91445 0.25215 0.0
H852 H 0.86582 0.99875 0.25605 0.0
H853 H 0.84296 0.972 0.24522 0.0
C854 C 0.82238 0.22848 0.31756 0.0
C855 C 0.80427 0.22744 0.32289 0.0
C856 C 0.83112 0.21346 0.31784 0.0
C857 C 0.83128 0.17092 0.33913 0.0
H858 H 0.85126 0.15533 0.29349 0.0
C859 C 0.85126 0.10091 0.32907 0.0
C860 C 0.86619 0.09873 0.31859 0.0
C861 C 0.84484 0.11723 0.33019 0.0
C862 C 0.8461 0.15963 0.30649 0.0
H863 H 0.78132 0.21004 0.33318 0.0
H864 H 0.79677 0.18394 0.33406 0.0
H865 H 0.83842 0.18298 0.29486 0.0
H866 H 0.88633 0.11206 0.3013 0.0
H867 H 0.87558 0.14081 0.30376 0.0
H868 H 0.83918 0.1479 0.35099 0.0
C869 C 0.80412 0.19633 0.32955 0.0
C870 C 0.83866 0.17545 0.30722 0.0
C871 C 0.79526 0.21124 0.32897 0.0
C872 C 0.87472 0.11331 0.3094 0.0
C873 C 0.86846 0.12976 0.31073 0.0
C874 C 0.83896 0.15526 0.33853 0.0
C875 C 0.82204 0.19724 0.32378 0.0
C876 C 0.83096 0.1811 0.32345 0.0
C877 C 0.85336 0.13192 0.32107 0.0
C878 C 0.84623 0.14923 0.3221 0.0
H879 H 0.82966 0.24077 0.31277 0.0
H880 H 0.84498 0.21452 0.31343 0.0
H881 H 0.82562 0.17512 0.3519 0.0
H882 H 0.84428 0.08987 0.33619 0.0
H883 H 0.83293 0.11817 0.33793 0.0
C884 C 0.34842 0.04878 0.95043 0.0
C885 C 0.35532 0.03774 0.93712 0.0
C886 C 0.34119 0.04168 0.96639 0.0
C887 C 0.34097 0.0052 0.99738 0.0
H888 H 0.28896 0.00705 0.00023 0.0
C889 C 0.29315 0.95347 0.03447 0.0
C890 C 0.27658 0.95769 0.04045 0.0
C891 C 0.30525 0.96614 0.02602 0.0
C892 C 0.3036 0.00675 0.00014 0.0
H893 H 0.36091 0.01093 0.93048 0.0
H894 H 0.34868 0.99868 0.95861 0.0
H895 H 0.30601 0.02423 0.97779 0.0
H896 H 0.26047 0.9789 0.04399 0.0
H897 H 0.28207 0.00139 0.03033 0.0
H898 H 0.33872 0.98779 0.01973 0.0
C899 C 0.34872 0.01274 0.95659 0.0
C900 C 0.31333 0.01657 0.98713 0.0
C901 C 0.35557 0.01971 0.94044 0.0
C902 C 0.27306 0.97524 0.03926 0.0
C903 C 0.28538 0.98806 0.03124 0.0
C904 C 0.33135 0.99566 0.0107 0.0
C905 C 0.34118 0.02357 0.96952 0.0
C906 C 0.33193 0.01545 0.98527 0.0
C907 C 0.30123 0.98345 0.02373 0.0
C908 C 0.31235 0.99583 0.01185 0.0
H909 H 0.34806 0.06272 0.9482 0.0
H910 H 0.33541 0.05026 0.97619 0.0
H911 H 0.35538 0.00428 0.99626 0.0
H912 H 0.29615 0.93999 0.03512 0.0
H913 H 0.31714 0.96191 0.02028 0.0
C914 C 0.21591 0.37295 0.33377 0.0
C915 C 0.21726 0.36192 0.31752 0.0
C916 C 0.20514 0.3864 0.33308 0.0
C917 C 0.16613 0.40043 0.30606 0.0
H918 H 0.18531 0.44653 0.3337 0.0
C919 C 0.12939 0.46274 0.30351 0.0
C920 C 0.13022 0.47346 0.32051 0.0
C921 C 0.13912 0.44839 0.30242 0.0
C922 C 0.17965 0.43367 0.32609 0.0
H923 H 0.20832 0.35639 0.28772 0.0
H924 H 0.18947 0.38007 0.2865 0.0
H925 H 0.20449 0.42337 0.33268 0.0
H926 H 0.14106 0.47693 0.34991 0.0
H927 H 0.15771 0.45185 0.34807 0.0
H928 H 0.1412 0.41082 0.29957 0.0
C929 C 0.1967 0.37816 0.29981 0.0
C930 C 0.19067 0.42041 0.32546 0.0
C931 C 0.20758 0.36468 0.30049 0.0
C932 C 0.14027 0.46905 0.33655 0.0
C933 C 0.14993 0.45474 0.33547 0.0
C934 C 0.15506 0.41375 0.30669 0.0
C935 C 0.1954 0.38918 0.31612 0.0
C936 C 0.18397 0.40356 0.31566 0.0
C937 C 0.14986 0.44452 0.3183 0.0
C938 C 0.16162 0.43043 0.31694 0.0
H939 H 0.22312 0.37116 0.34714 0.0
H940 H 0.20421 0.39448 0.34595 0.0
H941 H 0.16054 0.38753 0.2985 0.0
H942 H 0.12177 0.46581 0.29089 0.0
H943 H 0.13882 0.44079 0.28897 0.0
C944 C 0.15494 0.97077 0.46346 0.0
C945 C 0.13681 0.96728 0.45461 0.0
C946 C 0.16413 0.98838 0.4681 0.0
C947 C 0.16315 0.03582 0.45814 0.0
H948 H 0.19652 0.04545 0.5039 0.0
C949 C 0.20037 0.1071 0.49036 0.0
C950 C 0.21966 0.10855 0.49395 0.0
C951 C 0.18919 0.09031 0.4852 0.0
C952 C 0.18724 0.04292 0.49108 0.0
H953 H 0.11475 0.97976 0.44238 0.0
H954 H 0.13022 0.01046 0.45158 0.0
H955 H 0.17869 0.01538 0.4959 0.0
H956 H 0.24235 0.09357 0.49495 0.0
H957 H 0.22279 0.06433 0.48641 0.0
H958 H 0.17158 0.06369 0.45375 0.0
C959 C 0.13739 0.99955 0.45492 0.0
C960 C 0.17711 0.02568 0.48639 0.0
C961 C 0.12828 0.98187 0.45003 0.0
C962 C 0.22754 0.09292 0.49223 0.0
C963 C 0.21637 0.07617 0.48744 0.0
C964 C 0.17309 0.0532 0.46304 0.0
C965 C 0.1554 0.00303 0.46417 0.0
C966 C 0.1652 0.02178 0.46966 0.0
C967 C 0.19711 0.0747 0.48395 0.0
C968 C 0.18546 0.05678 0.47938 0.0
H969 H 0.16204 0.95985 0.46696 0.0
H970 H 0.17819 0.99046 0.47468 0.0
H971 H 0.15428 0.03333 0.44507 0.0
H972 H 0.19392 0.11891 0.49152 0.0
H973 H 0.17435 0.08945 0.4826 0.0
C974 C 0.75917 0.17656 0.79583 0.0
C975 C 0.77036 0.18498 0.8119 0.0
C976 C 0.74927 0.15914 0.79597 0.0
C977 C 0.72874 0.12836 0.82906 0.0
H978 H 0.71839 0.09459 0.78468 0.0
C979 C 0.67711 0.0618 0.82779 0.0
C980 C 0.66394 0.05827 0.81202 0.0
C981 C 0.69277 0.07517 0.82792 0.0
C982 C 0.72114 0.1039 0.79718 0.0
H983 H 0.78066 0.18133 0.84042 0.0
H984 H 0.76346 0.15081 0.84061 0.0
H985 H 0.74161 0.12178 0.78468 0.0
H986 H 0.65727 0.06558 0.78375 0.0
H987 H 0.68447 0.08894 0.78407 0.0
H988 H 0.70796 0.11075 0.84138 0.0
C989 C 0.76214 0.15783 0.828 0.0
C990 C 0.73443 0.11946 0.79718 0.0
C991 C 0.77206 0.17528 0.82785 0.0
C992 C 0.66711 0.06798 0.79616 0.0
C993 C 0.68278 0.08129 0.79628 0.0
C994 C 0.71549 0.11279 0.82906 0.0
C995 C 0.75034 0.1497 0.81218 0.0
C996 C 0.73807 0.13207 0.81297 0.0
C997 C 0.69564 0.08523 0.81227 0.0
C998 C 0.71125 0.10059 0.81298 0.0
H999 H 0.75758 0.18362 0.78328 0.0
H1000 H 0.74016 0.15339 0.78363 0.0
H1001 H 0.731 0.1379 0.84136 0.0
H1002 H 0.67515 0.0545 0.84021 0.0
H1003 H 0.70254 0.07777 0.84037 0.0
C1004 C 0.35394 0.04645 0.63953 0.0
C1005 C 0.36277 0.0333 0.63114 0.0
C1006 C 0.34881 0.06014 0.62917 0.0
C1007 C 0.33873 0.07018 0.5799 0.0
H1008 H 0.33985 0.11856 0.6021 0.0
C1009 C 0.31787 0.12433 0.53488 0.0
C1010 C 0.30473 0.13377 0.54206 0.0
C1011 C 0.32748 0.11421 0.54646 0.0
C1012 C 0.33942 0.10509 0.59575 0.0
H1013 H 0.37383 0.02463 0.60552 0.0
H1014 H 0.36532 0.04868 0.58762 0.0
H1015 H 0.35191 0.09656 0.62093 0.0
H1016 H 0.29227 0.14098 0.56733 0.0
H1017 H 0.30908 0.12323 0.5876 0.0
H1018 H 0.32619 0.07859 0.55481 0.0
C1019 C 0.36189 0.0482 0.60205 0.0
C1020 C 0.34627 0.09246 0.60653 0.0
C1021 C 0.36687 0.03444 0.61235 0.0
C1022 C 0.3023 0.13384 0.56137 0.0
C1023 C 0.31195 0.1237 0.573 0.0
C1024 C 0.33202 0.08278 0.56913 0.0
C1025 C 0.35252 0.06105 0.61022 0.0
C1026 C 0.34593 0.07481 0.59874 0.0
C1027 C 0.32418 0.1133 0.56549 0.0
C1028 C 0.33222 0.10036 0.57693 0.0
H1029 H 0.35056 0.04592 0.65398 0.0
H1030 H 0.34144 0.06967 0.63587 0.0
H1031 H 0.33783 0.05663 0.57353 0.0
H1032 H 0.32021 0.12412 0.5201 0.0
H1033 H 0.33709 0.10663 0.54036 0.0
C1034 C 0.63594 0.56402 0.609 0.0
C1035 C 0.64989 0.57892 0.60753 0.0
C1036 C 0.63933 0.54651 0.6056 0.0
C1037 C 0.67739 0.52039 0.60305 0.0
H1038 H 0.64158 0.48601 0.57041 0.0
C1039 C 0.67936 0.4563 0.54919 0.0
C1040 C 0.69128 0.44738 0.55992 0.0
C1041 C 0.67121 0.46974 0.55769 0.0
C1042 C 0.65166 0.49542 0.57964 0.0
H1043 H 0.67838 0.5871 0.60146 0.0
H1044 H 0.68424 0.55664 0.59544 0.0
H1045 H 0.6342 0.51535 0.58 0.0
H1046 H 0.70287 0.44464 0.58821 0.0
H1047 H 0.68851 0.46813 0.60312 0.0
H1048 H 0.6952 0.50087 0.60203 0.0
C1049 C 0.67074 0.55845 0.59942 0.0
C1050 C 0.64739 0.51218 0.58525 0.0
C1051 C 0.66733 0.57593 0.60272 0.0
C1052 C 0.69379 0.45129 0.57955 0.0
C1053 C 0.68569 0.46484 0.58807 0.0
C1054 C 0.68164 0.50364 0.59751 0.0
C1055 C 0.65679 0.54354 0.60079 0.0
C1056 C 0.6604 0.52502 0.59661 0.0
C1057 C 0.67482 0.47463 0.57713 0.0
C1058 C 0.66902 0.49113 0.58535 0.0
H1059 H 0.62236 0.56587 0.61272 0.0
H1060 H 0.62834 0.53529 0.60687 0.0
H1061 H 0.6876 0.5299 0.61205 0.0
H1062 H 0.67708 0.45355 0.53403 0.0
H1063 H 0.66303 0.47707 0.54881 0.0
C1064 C 0.72791 0.29259 0.36881 0.0
C1065 C 0.74567 0.29779 0.36292 0.0
C1066 C 0.72257 0.30141 0.38477 0.0
C1067 C 0.73228 0.34399 0.41403 0.0
H1068 H 0.71359 0.31653 0.4545 0.0
C1069 C 0.72995 0.35879 0.49735 0.0
C1070 C 0.72247 0.37469 0.49789 0.0
C1071 C 0.72876 0.34795 0.48053 0.0
C1072 C 0.71864 0.32434 0.44323 0.0
H1073 H 0.77176 0.3162 0.36903 0.0
H1074 H 0.76229 0.33185 0.39668 0.0
H1075 H 0.71986 0.3008 0.42522 0.0
H1076 H 0.70688 0.3911 0.48142 0.0
H1077 H 0.70504 0.37224 0.45198 0.0
H1078 H 0.73141 0.36751 0.43206 0.0
C1079 C 0.75252 0.32097 0.38896 0.0
C1080 C 0.72214 0.31536 0.42649 0.0
C1081 C 0.75797 0.31197 0.37323 0.0
C1082 C 0.71279 0.37894 0.4815 0.0
C1083 C 0.71183 0.36822 0.46461 0.0
C1084 C 0.72851 0.35295 0.43061 0.0
C1085 C 0.7348 0.31575 0.39492 0.0
C1086 C 0.72937 0.32513 0.4119 0.0
C1087 C 0.72026 0.3529 0.46386 0.0
C1088 C 0.72198 0.34322 0.44552 0.0
H1089 H 0.71831 0.28145 0.36136 0.0
H1090 H 0.70885 0.29711 0.38912 0.0
H1091 H 0.73773 0.35182 0.40294 0.0
H1092 H 0.73743 0.35511 0.50975 0.0
H1093 H 0.73546 0.33626 0.48035 0.0
C1094 C 0.44132 0.04472 0.88668 0.0
C1095 C 0.43774 0.06075 0.89547 0.0
C1096 C 0.45944 0.04239 0.88446 0.0
C1097 C 0.50555 0.06838 0.88046 0.0
H1098 H 0.51989 0.02147 0.88175 0.0
C1099 C 0.56296 0.04838 0.83837 0.0
C1100 C 0.57427 0.0368 0.84571 0.0
C1101 C 0.54825 0.05259 0.8479 0.0
C1102 C 0.51628 0.03475 0.88162 0.0
H1103 H 0.4504 0.0871 0.90852 0.0
H1104 H 0.48218 0.08287 0.90511 0.0
H1105 H 0.49056 0.0261 0.89307 0.0
H1106 H 0.57926 0.02097 0.86918 0.0
H1107 H 0.55353 0.02846 0.88595 0.0
H1108 H 0.53121 0.077 0.86892 0.0
C1109 C 0.47091 0.07206 0.89997 0.0
C1110 C 0.49935 0.03734 0.88791 0.0
C1111 C 0.45271 0.07438 0.9022 0.0
C1112 C 0.57077 0.02988 0.8631 0.0
C1113 C 0.556 0.03411 0.87267 0.0
C1114 C 0.5225 0.0658 0.87424 0.0
C1115 C 0.47446 0.05608 0.89091 0.0
C1116 C 0.49355 0.05405 0.88689 0.0
C1117 C 0.54446 0.04538 0.86507 0.0
C1118 C 0.52781 0.04881 0.87423 0.0
H1119 H 0.43005 0.03399 0.88129 0.0
H1120 H 0.46161 0.03006 0.87708 0.0
H1121 H 0.50149 0.0814 0.87939 0.0
H1122 H 0.56522 0.05396 0.82501 0.0
H1123 H 0.53947 0.06106 0.84146 0.0
C1124 C 0.25961 0.28231 0.36529 0.0
C1125 C 0.2716 0.28255 0.35092 0.0
C1126 C 0.26228 0.27274 0.38098 0.0
C1127 C 0.28234 0.23469 0.39672 0.0
H1128 H 0.27408 0.25457 0.44613 0.0
C1129 C 0.28392 0.19409 0.46261 0.0
C1130 C 0.26889 0.19465 0.4735 0.0
C1131 C 0.28735 0.206 0.44863 0.0
C1132 C 0.27639 0.24881 0.43242 0.0
H1133 H 0.29589 0.27297 0.34183 0.0
H1134 H 0.3005 0.25609 0.36936 0.0
H1135 H 0.27448 0.27325 0.41965 0.0
H1136 H 0.246 0.2085 0.47854 0.0
H1137 H 0.25191 0.22909 0.45422 0.0
H1138 H 0.28371 0.21007 0.40942 0.0
C1139 C 0.28901 0.26333 0.36837 0.0
C1140 C 0.27662 0.25951 0.41726 0.0
C1141 C 0.28641 0.27304 0.35266 0.0
C1142 C 0.25769 0.20767 0.47042 0.0
C1143 C 0.26116 0.21958 0.45655 0.0
C1144 C 0.28208 0.22395 0.41191 0.0
C1145 C 0.27697 0.26311 0.3827 0.0
C1146 C 0.27912 0.25243 0.39915 0.0
C1147 C 0.27591 0.21879 0.44537 0.0
C1148 C 0.27862 0.23077 0.42983 0.0
H1149 H 0.24806 0.28947 0.36444 0.0
H1150 H 0.25257 0.2726 0.39162 0.0
H1151 H 0.28417 0.22882 0.3829 0.0
H1152 H 0.29283 0.18424 0.46463 0.0
H1153 H 0.2989 0.20516 0.44032 0.0
C1154 C 0.55075 0.5044 0.89596 0.0
C1155 C 0.54934 0.49647 0.91312 0.0
C1156 C 0.53646 0.51247 0.88831 0.0
C1157 C 0.48635 0.51176 0.88925 0.0
H1158 H 0.49683 0.55356 0.86078 0.0
C1159 C 0.42856 0.54278 0.85032 0.0
C1160 C 0.43135 0.54579 0.83148 0.0
C1161 C 0.44289 0.53873 0.8625 0.0
C1162 C 0.4937 0.54188 0.86868 0.0
H1163 H 0.53199 0.49125 0.93599 0.0
H1164 H 0.50709 0.50556 0.92272 0.0
H1165 H 0.52218 0.54311 0.87839 0.0
H1166 H 0.45152 0.54739 0.81081 0.0
H1167 H 0.47639 0.54046 0.832 0.0
H1168 H 0.45786 0.51045 0.87928 0.0
C1169 C 0.51916 0.50529 0.91504 0.0
C1170 C 0.50821 0.53585 0.87873 0.0
C1171 C 0.53347 0.49717 0.92269 0.0
C1172 C 0.44886 0.54509 0.82522 0.0
C1173 C 0.46319 0.54125 0.8374 0.0
C1174 C 0.47181 0.51786 0.87927 0.0
C1175 C 0.5204 0.51287 0.89766 0.0
C1176 C 0.50477 0.52046 0.88877 0.0
C1177 C 0.46033 0.53787 0.85612 0.0
C1178 C 0.47539 0.53273 0.86853 0.0
H1179 H 0.56275 0.50408 0.88819 0.0
H1180 H 0.53779 0.51791 0.87476 0.0
H1181 H 0.4832 0.49976 0.89666 0.0
H1182 H 0.41522 0.54321 0.85558 0.0
H1183 H 0.44034 0.53627 0.8769 0.0
C1184 C 0.71096 0.77852 0.17829 0.0
C1185 C 0.72434 0.77992 0.19374 0.0
C1186 C 0.71203 0.7675 0.16206 0.0
C1187 C 0.73302 0.72914 0.14462 0.0
H1188 H 0.72121 0.74585 0.09576 0.0
C1189 C 0.74559 0.6922 0.07429 0.0
C1190 C 0.73165 0.69086 0.05935 0.0
C1191 C 0.74482 0.70276 0.09095 0.0
C1192 C 0.72437 0.74091 0.1093 0.0
H1193 H 0.74938 0.77085 0.20423 0.0
H1194 H 0.75138 0.75183 0.17583 0.0
H1195 H 0.71973 0.76493 0.12422 0.0
H1196 H 0.70584 0.69935 0.05033 0.0
H1197 H 0.70448 0.71763 0.07936 0.0
H1198 H 0.73775 0.70512 0.1296 0.0
C1199 C 0.7399 0.75904 0.17635 0.0
C1200 C 0.7235 0.75184 0.12563 0.0
C1201 C 0.73881 0.77003 0.1926 0.0
C1202 C 0.71685 0.70013 0.06152 0.0
C1203 C 0.71612 0.71071 0.07813 0.0
C1204 C 0.73394 0.71821 0.12826 0.0
C1205 C 0.72654 0.75765 0.16087 0.0
C1206 C 0.72773 0.74607 0.1435 0.0
C1207 C 0.73015 0.71226 0.09299 0.0
C1208 C 0.72953 0.72394 0.11042 0.0
H1209 H 0.69959 0.78589 0.17873 0.0
H1210 H 0.70134 0.76655 0.15052 0.0
H1211 H 0.73613 0.72417 0.15815 0.0
H1212 H 0.75719 0.68524 0.07305 0.0
H1213 H 0.75592 0.70379 0.10209 0.0
C1214 C 0.03541 0.14813 0.17653 0.0
C1215 C 0.04576 0.1366 0.16759 0.0
C1216 C 0.02052 0.14117 0.18642 0.0
C1217 C 0.98687 0.09979 0.18887 0.0
H1218 H 0.9799 0.12043 0.23836 0.0
C1219 C 0.93963 0.06169 0.23829 0.0
C1220 C 0.92966 0.07119 0.25016 0.0
C1221 C 0.9521 0.07077 0.22702 0.0
C1222 C 0.98144 0.11471 0.2244 0.0
H1223 H 0.04886 0.10874 0.16245 0.0
H1224 H 0.02293 0.09664 0.17972 0.0
H1225 H 0.00564 0.13422 0.22162 0.0
H1226 H 0.92446 0.09768 0.25904 0.0
H1227 H 0.94623 0.11364 0.23909 0.0
H1228 H 0.96281 0.08023 0.1916 0.0
C1229 C 0.02621 0.11105 0.17889 0.0
C1230 C 0.99623 0.12257 0.21486 0.0
C1231 C 0.04116 0.118 0.16912 0.0
C1232 C 0.93196 0.08999 0.25004 0.0
C1233 C 0.94452 0.09913 0.23873 0.0
C1234 C 0.97206 0.092 0.19834 0.0
C1235 C 0.0156 0.12253 0.18745 0.0
C1236 C 0.9993 0.11497 0.19715 0.0
C1237 C 0.95492 0.08961 0.22729 0.0
C1238 C 0.96938 0.09914 0.21638 0.0
H1239 H 0.03861 0.16253 0.17563 0.0
H1240 H 0.01256 0.15034 0.19283 0.0
H1241 H 0.98865 0.09387 0.17506 0.0
H1242 H 0.9382 0.0472 0.23804 0.0
H1243 H 0.96004 0.06302 0.21861 0.0
C1244 C 0.26943 0.7919 0.20915 0.0
C1245 C 0.27201 0.79946 0.22787 0.0
C1246 C 0.26669 0.80254 0.1943 0.0
C1247 C 0.27247 0.82933 0.16504 0.0
H1248 H 0.24469 0.8683 0.17003 0.0
C1249 C 0.27124 0.87946 0.10851 0.0
C1250 C 0.25444 0.88514 0.10353 0.0
C1251 C 0.27331 0.86991 0.12434 0.0
C1252 C 0.25235 0.85738 0.16833 0.0
H1253 H 0.27373 0.82413 0.24569 0.0
H1254 H 0.2695 0.84281 0.21976 0.0
H1255 H 0.24766 0.8493 0.19593 0.0
H1256 H 0.22672 0.88565 0.1115 0.0
H1257 H 0.23011 0.86849 0.13895 0.0
H1258 H 0.27659 0.83688 0.13725 0.0
C1259 C 0.26916 0.82858 0.21654 0.0
C1260 C 0.25426 0.84661 0.18329 0.0
C1261 C 0.27172 0.81789 0.23141 0.0
C1262 C 0.23986 0.88148 0.11502 0.0
C1263 C 0.24184 0.8717 0.1308 0.0
C1264 C 0.27043 0.83997 0.15007 0.0
C1265 C 0.26666 0.82105 0.19777 0.0
C1266 C 0.26439 0.83247 0.18185 0.0
C1267 C 0.25853 0.86557 0.13549 0.0
C1268 C 0.26044 0.85421 0.15153 0.0
H1269 H 0.26941 0.77771 0.20595 0.0
H1270 H 0.26445 0.79617 0.18008 0.0
H1271 H 0.28058 0.81875 0.16346 0.0
H1272 H 0.28283 0.88226 0.10007 0.0
H1273 H 0.28652 0.86585 0.12777 0.0
C1274 C 0.93323 0.45588 0.16277 0.0
C1275 C 0.92572 0.4714 0.15966 0.0
C1276 C 0.9515 0.45731 0.17067 0.0
C1277 C 0.99622 0.48795 0.17846 0.0
H1278 H 0.00373 0.46491 0.2246 0.0
C1279 C 0.05509 0.51586 0.23488 0.0
C1280 C 0.06259 0.50445 0.24689 0.0
C1281 C 0.04072 0.50898 0.22108 0.0
C1282 C 0.00207 0.47109 0.21149 0.0
H1283 H 0.93128 0.50052 0.16216 0.0
H1284 H 0.96329 0.50304 0.17566 0.0
H1285 H 0.97372 0.45805 0.20608 0.0
H1286 H 0.0616 0.4767 0.25312 0.0
H1287 H 0.0365 0.46456 0.22868 0.0
H1288 H 0.02439 0.50121 0.1839 0.0
C1289 C 0.95512 0.48978 0.17194 0.0
C1290 C 0.98482 0.4672 0.20093 0.0
C1291 C 0.9368 0.48835 0.16436 0.0
C1292 C 0.05606 0.48583 0.24411 0.0
C1293 C 0.0416 0.47891 0.23021 0.0
C1294 C 0.01351 0.49167 0.18886 0.0
C1295 C 0.9626 0.47429 0.17532 0.0
C1296 C 0.98158 0.47608 0.18469 0.0
C1297 C 0.03347 0.49048 0.21883 0.0
C1298 C 0.01644 0.48382 0.2059 0.0
H1299 H 0.92483 0.44265 0.15966 0.0
H1300 H 0.95693 0.44517 0.17324 0.0
H1301 H 0.99413 0.49476 0.16581 0.0
H1302 H 0.05983 0.53027 0.2366 0.0
H1303 H 0.03467 0.51838 0.21284 0.0
C1304 C 0.34967 0.78032 0.30395 0.0
C1305 C 0.34142 0.76297 0.29632 0.0
C1306 C 0.36632 0.78302 0.31552 0.0
C1307 C 0.4054 0.76029 0.33196 0.0
H1308 H 0.40893 0.79443 0.3756 0.0
C1309 C 0.45587 0.76176 0.39902 0.0
C1310 C 0.46588 0.77875 0.40592 0.0
C1311 C 0.44179 0.76019 0.38433 0.0
C1312 C 0.4082 0.78496 0.36339 0.0
H1313 H 0.34447 0.73492 0.29438 0.0
H1314 H 0.373 0.73949 0.31493 0.0
H1315 H 0.38266 0.79138 0.35195 0.0
H1316 H 0.469 0.8074 0.40274 0.0
H1317 H 0.44423 0.80461 0.37739 0.0
H1318 H 0.43068 0.75343 0.34402 0.0
C1319 C 0.36697 0.75114 0.3117 0.0
C1320 C 0.39321 0.78328 0.34974 0.0
C1321 C 0.3505 0.74849 0.29995 0.0
C1322 C 0.46158 0.7941 0.39776 0.0
C1323 C 0.44735 0.79254 0.3833 0.0
C1324 C 0.42026 0.7618 0.34578 0.0
C1325 C 0.37495 0.76839 0.31993 0.0
C1326 C 0.39155 0.77088 0.33386 0.0
C1327 C 0.43729 0.7756 0.37649 0.0
C1328 C 0.42176 0.77411 0.36164 0.0
H1329 H 0.34309 0.79178 0.30129 0.0
H1330 H 0.37227 0.79656 0.32122 0.0
H1331 H 0.40479 0.75082 0.31979 0.0
H1332 H 0.4589 0.74968 0.40498 0.0
H1333 H 0.43413 0.74697 0.37939 0.0
C1334 C 0.94779 0.40249 0.08383 0.0
C1335 C 0.93735 0.39496 0.09789 0.0
C1336 C 0.95554 0.39158 0.0713 0.0
C1337 C 0.94919 0.34501 0.05054 0.0
H1338 H 0.99803 0.35989 0.03413 0.0
C1339 C 0.98016 0.29929 0.99894 0.0
C1340 C 0.98905 0.30754 0.98427 0.0
C1341 C 0.97546 0.30966 0.01413 0.0
C1342 C 0.98431 0.35561 0.03846 0.0
H1343 H 0.92729 0.3701 0.11012 0.0
H1344 H 0.94089 0.35108 0.08828 0.0
H1345 H 0.98685 0.37859 0.05832 0.0
H1346 H 0.00044 0.33319 0.97435 0.0
H1347 H 0.99198 0.35129 0.00069 0.0
H1348 H 0.94643 0.32226 0.0305 0.0
C1349 C 0.94289 0.36541 0.08683 0.0
C1350 C 0.97792 0.36631 0.05233 0.0
C1351 C 0.93518 0.37632 0.0994 0.0
C1352 C 0.99362 0.3264 0.98542 0.0
C1353 C 0.98885 0.33678 0.00058 0.0
C1354 C 0.95555 0.33435 0.03666 0.0
C1355 C 0.953 0.37289 0.07252 0.0
C1356 C 0.96023 0.36118 0.05844 0.0
C1357 C 0.97946 0.32854 0.01498 0.0
C1358 C 0.97314 0.33956 0.03036 0.0
H1359 H 0.94974 0.4168 0.08228 0.0
H1360 H 0.96309 0.39773 0.06031 0.0
H1361 H 0.93538 0.34082 0.05471 0.0
H1362 H 0.97657 0.28479 0.9986 0.0
H1363 H 0.96855 0.30286 0.02514 0.0
C1364 C 0.65522 0.84244 0.3174 0.0
C1365 C 0.66412 0.82879 0.3102 0.0
C1366 C 0.64241 0.83896 0.33063 0.0
C1367 C 0.62791 0.8082 0.36653 0.0
H1368 H 0.58341 0.82924 0.36199 0.0
C1369 C 0.56742 0.79353 0.41433 0.0
C1370 C 0.55884 0.80811 0.41958 0.0
C1371 C 0.58108 0.79545 0.40168 0.0
C1372 C 0.59587 0.82344 0.3636 0.0
H1373 H 0.66648 0.8007 0.31125 0.0
H1374 H 0.64391 0.79457 0.33441 0.0
H1375 H 0.60502 0.83318 0.33796 0.0
H1376 H 0.55861 0.83638 0.41654 0.0
H1377 H 0.58252 0.83979 0.3948 0.0
H1378 H 0.61866 0.7985 0.39228 0.0
C1379 C 0.64702 0.80802 0.32985 0.0
C1380 C 0.60824 0.82567 0.34979 0.0
C1381 C 0.65985 0.81151 0.31651 0.0
C1382 C 0.56482 0.82484 0.41266 0.0
C1383 C 0.57844 0.82676 0.40008 0.0
C1384 C 0.61549 0.80596 0.3804 0.0
C1385 C 0.63815 0.82173 0.33703 0.0
C1386 C 0.62452 0.81829 0.3512 0.0
C1387 C 0.58638 0.81199 0.39405 0.0
C1388 C 0.59945 0.81377 0.3792 0.0
H1389 H 0.65821 0.85592 0.3129 0.0
H1390 H 0.63604 0.84988 0.33608 0.0
H1391 H 0.64042 0.80247 0.36809 0.0
H1392 H 0.56309 0.78045 0.4194 0.0
H1393 H 0.5869 0.78381 0.39727 0.0
C1394 C 0.08863 0.17358 0.06736 0.0
C1395 C 0.08877 0.15502 0.06692 0.0
C1396 C 0.08397 0.18148 0.05096 0.0
C1397 C 0.05612 0.16926 0.00565 0.0
H1398 H 0.07347 0.21938 0.99841 0.0
C1399 C 0.0103 0.21281 0.96869 0.0
C1400 C 0.0183 0.22716 0.95886 0.0
C1401 C 0.02136 0.2022 0.97787 0.0
C1402 C 0.06866 0.20527 0.99993 0.0
H1403 H 0.08544 0.13044 0.0486 0.0
H1404 H 0.07757 0.1443 0.01987 0.0
H1405 H 0.09013 0.20466 0.02179 0.0
H1406 H 0.04412 0.24099 0.95005 0.0
H1407 H 0.06346 0.22226 0.96594 0.0
H1408 H 0.03455 0.16991 0.98392 0.0
C1409 C 0.08069 0.15268 0.03301 0.0
C1410 C 0.0781 0.19688 0.01352 0.0
C1411 C 0.08531 0.14475 0.04947 0.0
C1412 C 0.03753 0.23008 0.95759 0.0
C1413 C 0.04863 0.21942 0.96679 0.0
C1414 C 0.04674 0.17761 0.99199 0.0
C1415 C 0.07942 0.17103 0.03367 0.0
C1416 C 0.07157 0.17896 0.017 0.0
C1417 C 0.04071 0.20563 0.97742 0.0
C1418 C 0.05251 0.19589 0.98943 0.0
H1419 H 0.09128 0.18193 0.08054 0.0
H1420 H 0.08295 0.1956 0.0521 0.0
H1421 H 0.05061 0.15548 0.00798 0.0
H1422 H 0.99553 0.21019 0.96994 0.0
H1423 H 0.01478 0.19187 0.98612 0.0
C1424 C 0.33274 0.32253 0.25643 0.0
C1425 C 0.32042 0.30698 0.25972 0.0
C1426 C 0.3476 0.32133 0.24565 0.0
C1427 C 0.36521 0.28967 0.21203 0.0
H1428 H 0.41187 0.32232 0.22478 0.0
C1429 C 0.43414 0.27788 0.18457 0.0
C1430 C 0.44369 0.29214 0.17562 0.0
C1431 C 0.41909 0.28032 0.19458 0.0
C1432 C 0.39886 0.31321 0.22103 0.0
H1433 H 0.31417 0.27797 0.25462 0.0
H1434 H 0.34043 0.27573 0.2366 0.0
H1435 H 0.38559 0.3252 0.24287 0.0
H1436 H 0.44525 0.32025 0.17052 0.0
H1437 H 0.41917 0.32462 0.18856 0.0
H1438 H 0.37888 0.27727 0.1907 0.0
C1439 C 0.33835 0.28897 0.24168 0.0
C1440 C 0.38374 0.31489 0.23129 0.0
C1441 C 0.32332 0.29021 0.25215 0.0
C1442 C 0.43812 0.309 0.17722 0.0
C1443 C 0.42328 0.31153 0.18757 0.0
C1444 C 0.38041 0.2878 0.20204 0.0
C1445 C 0.35068 0.30451 0.2382 0.0
C1446 C 0.36671 0.30309 0.22698 0.0
C1447 C 0.41352 0.29715 0.19614 0.0
C1448 C 0.39736 0.29951 0.20648 0.0
H1449 H 0.33077 0.33566 0.262 0.0
H1450 H 0.35655 0.33363 0.24303 0.0
H1451 H 0.35225 0.28061 0.20793 0.0
H1452 H 0.43805 0.26472 0.18354 0.0
H1453 H 0.41184 0.26907 0.20118 0.0
C1454 C 0.59719 0.38175 0.00236 0.0
C1455 C 0.58826 0.39023 0.98831 0.0
C1456 C 0.58826 0.37651 0.01816 0.0
C1457 C 0.54153 0.36494 0.03362 0.0
H1458 H 0.56749 0.36909 0.08358 0.0
C1459 C 0.50264 0.34231 0.09632 0.0
C1460 C 0.51106 0.33122 0.10799 0.0
C1461 C 0.51277 0.35225 0.08368 0.0
C1462 C 0.56008 0.36777 0.06969 0.0
H1463 H 0.56312 0.40026 0.98008 0.0
H1464 H 0.54762 0.39123 0.00767 0.0
H1465 H 0.58381 0.38097 0.05735 0.0
H1466 H 0.53699 0.32274 0.11643 0.0
H1467 H 0.55466 0.33992 0.09412 0.0
H1468 H 0.51795 0.35147 0.04572 0.0
C1469 C 0.56142 0.3884 0.00635 0.0
C1470 C 0.56943 0.37455 0.05468 0.0
C1471 C 0.57034 0.39363 0.99056 0.0
C1472 C 0.53012 0.33118 0.10762 0.0
C1473 C 0.54025 0.34106 0.09486 0.0
C1474 C 0.53222 0.35818 0.04858 0.0
C1475 C 0.57021 0.37963 0.02025 0.0
C1476 C 0.56026 0.37312 0.03645 0.0
C1477 C 0.53152 0.35123 0.0823 0.0
C1478 C 0.54138 0.35944 0.06678 0.0
H1479 H 0.61101 0.37896 0.00105 0.0
H1480 H 0.59533 0.3696 0.02849 0.0
H1481 H 0.53415 0.36329 0.01971 0.0
H1482 H 0.48802 0.3428 0.09642 0.0
H1483 H 0.50574 0.36031 0.07453 0.0
C1484 C 0.66372 0.31117 0.27721 0.0
C1485 C 0.66525 0.29803 0.28996 0.0
C1486 C 0.64757 0.31015 0.26516 0.0
C1487 C 0.59808 0.28854 0.25794 0.0
H1488 H 0.60327 0.29782 0.20575 0.0
C1489 C 0.53816 0.26678 0.19989 0.0
C1490 C 0.53527 0.27898 0.18645 0.0
C1491 C 0.55396 0.27013 0.21266 0.0
C1492 C 0.60157 0.2954 0.22032 0.0
H1493 H 0.65085 0.27372 0.30032 0.0
H1494 H 0.62283 0.27182 0.27919 0.0
H1495 H 0.63075 0.30207 0.22817 0.0
H1496 H 0.54685 0.30418 0.17572 0.0
H1497 H 0.57455 0.31001 0.19808 0.0
H1498 H 0.56893 0.28159 0.25001 0.0
C1499 C 0.634 0.28305 0.27863 0.0
C1500 C 0.61732 0.29786 0.23319 0.0
C1501 C 0.65012 0.28408 0.29069 0.0
C1502 C 0.54869 0.29451 0.1859 0.0
C1503 C 0.56457 0.29782 0.19865 0.0
C1504 C 0.58236 0.28603 0.24507 0.0
C1505 C 0.63259 0.29596 0.26559 0.0
C1506 C 0.61577 0.29429 0.25212 0.0
C1507 C 0.5673 0.28572 0.21227 0.0
C1508 C 0.58395 0.28925 0.22608 0.0
H1509 H 0.67508 0.32214 0.27634 0.0
H1510 H 0.64684 0.32047 0.25549 0.0
H1511 H 0.59635 0.28599 0.27248 0.0
H1512 H 0.52814 0.25466 0.20068 0.0
H1513 H 0.5558 0.2604 0.22278 0.0
C1514 C 0.44099 0.15478 0.97129 0.0
C1515 C 0.44473 0.1373 0.97261 0.0
C1516 C 0.44517 0.16751 0.98677 0.0
C1517 C 0.47343 0.17843 0.03245 0.0
H1518 H 0.43684 0.20814 0.04307 0.0
C1519 C 0.47935 0.22542 0.10085 0.0
C1520 C 0.47465 0.24251 0.09902 0.0
C1521 C 0.47589 0.21235 0.0856 0.0
C1522 C 0.44729 0.2001 0.04019 0.0
H1523 H 0.45618 0.11958 0.99114 0.0
H1524 H 0.46339 0.14183 0.01823 0.0
H1525 H 0.43083 0.18595 0.01604 0.0
H1526 H 0.46272 0.25925 0.07966 0.0
H1527 H 0.45688 0.23656 0.05312 0.0
H1528 H 0.48992 0.19266 0.05662 0.0
C1529 C 0.45733 0.1457 0.00516 0.0
C1530 C 0.44385 0.18738 0.02469 0.0
C1531 C 0.45311 0.13293 0.98966 0.0
C1532 C 0.46643 0.24621 0.08161 0.0
C1533 C 0.46298 0.23316 0.0664 0.0
C1534 C 0.47689 0.1912 0.04797 0.0
C1535 C 0.45321 0.16308 0.00394 0.0
C1536 C 0.45691 0.17645 0.02058 0.0
C1537 C 0.46765 0.21607 0.06821 0.0
C1538 C 0.46389 0.20223 0.05197 0.0
H1539 H 0.43463 0.15863 0.95835 0.0
H1540 H 0.44211 0.18087 0.98528 0.0
H1541 H 0.48385 0.17035 0.02954 0.0
H1542 H 0.48569 0.22211 0.11406 0.0
H1543 H 0.47946 0.19925 0.08752 0.0
C1544 C 0.26401 0.37973 0.73706 0.0
C1545 C 0.24944 0.37768 0.74876 0.0
C1546 C 0.27546 0.39646 0.7367 0.0
C1547 C 0.27853 0.44528 0.75026 0.0
H1548 H 0.33152 0.44614 0.75346 0.0
C1549 C 0.33207 0.50736 0.77984 0.0
C1550 C 0.34871 0.51125 0.77133 0.0
C1551 C 0.31928 0.49175 0.774 0.0
C1552 C 0.31676 0.44614 0.75225 0.0
H1553 H 0.23522 0.39176 0.7689 0.0
H1554 H 0.25522 0.42066 0.76846 0.0
H1555 H 0.31034 0.41742 0.74859 0.0
H1556 H 0.36467 0.50198 0.74958 0.0
H1557 H 0.34231 0.47468 0.73944 0.0
H1558 H 0.285 0.474 0.75454 0.0
C1559 C 0.25771 0.40947 0.75935 0.0
C1560 C 0.3046 0.42967 0.74943 0.0
C1561 C 0.24631 0.39281 0.75971 0.0
C1562 C 0.35202 0.49938 0.75649 0.0
C1563 C 0.33926 0.48369 0.75073 0.0
C1564 C 0.29068 0.46174 0.75315 0.0
C1565 C 0.27253 0.41149 0.74799 0.0
C1566 C 0.28535 0.42903 0.74879 0.0
C1567 C 0.32285 0.47961 0.75957 0.0
C1568 C 0.30993 0.46233 0.75455 0.0
H1569 H 0.26676 0.36836 0.72839 0.0
H1570 H 0.28665 0.39761 0.72764 0.0
H1571 H 0.26377 0.44529 0.74945 0.0
H1572 H 0.32905 0.51621 0.79128 0.0
H1573 H 0.30686 0.48889 0.78124 0.0
C1574 C 0.32156 0.73377 0.82013 0.0
C1575 C 0.30354 0.73276 0.82569 0.0
C1576 C 0.32993 0.71851 0.81937 0.0
C1577 C 0.32932 0.67463 0.83793 0.0
H1578 H 0.34856 0.66106 0.79113 0.0
C1579 C 0.34849 0.60471 0.82352 0.0
C1580 C 0.3633 0.603 0.8127 0.0
C1581 C 0.34216 0.62103 0.82562 0.0
C1582 C 0.34359 0.66478 0.80445 0.0
H1583 H 0.28037 0.71514 0.83535 0.0
H1584 H 0.29519 0.68858 0.83442 0.0
H1585 H 0.33625 0.68892 0.79445 0.0
H1586 H 0.3833 0.61715 0.7958 0.0
H1587 H 0.37272 0.64587 0.79999 0.0
H1588 H 0.33692 0.6508 0.84818 0.0
C1589 C 0.30275 0.70115 0.83052 0.0
C1590 C 0.33647 0.68072 0.80628 0.0
C1591 C 0.29426 0.71632 0.83098 0.0
C1592 C 0.37177 0.61803 0.80413 0.0
C1593 C 0.36561 0.63447 0.80646 0.0
C1594 C 0.3367 0.65883 0.83622 0.0
C1595 C 0.32056 0.70204 0.82447 0.0
C1596 C 0.32907 0.68568 0.82296 0.0
C1597 C 0.35066 0.63618 0.81718 0.0
C1598 C 0.34371 0.65354 0.81936 0.0
H1599 H 0.32905 0.74624 0.81593 0.0
H1600 H 0.34372 0.71956 0.81477 0.0
H1601 H 0.32388 0.67827 0.85102 0.0
H1602 H 0.34156 0.59332 0.83017 0.0
H1603 H 0.33036 0.62163 0.83362 0.0
C1604 C 0.84694 0.55527 0.44446 0.0
C1605 C 0.85451 0.54597 0.43019 0.0
C1606 C 0.83995 0.54632 0.45954 0.0
C1607 C 0.84118 0.50704 0.4864 0.0
H1608 H 0.78903 0.50718 0.49062 0.0
C1609 C 0.79504 0.45208 0.52165 0.0
C1610 C 0.77879 0.45588 0.52878 0.0
C1611 C 0.80657 0.46526 0.51321 0.0
C1612 C 0.80371 0.50729 0.49013 0.0
H1613 H 0.86155 0.52032 0.42093 0.0
H1614 H 0.84966 0.5048 0.44751 0.0
H1615 H 0.80545 0.52658 0.46949 0.0
H1616 H 0.76261 0.47672 0.53425 0.0
H1617 H 0.78323 0.50002 0.52061 0.0
H1618 H 0.83958 0.48785 0.5071 0.0
C1619 C 0.84902 0.51895 0.44693 0.0
C1620 C 0.81307 0.51837 0.47788 0.0
C1621 C 0.85567 0.52778 0.43167 0.0
C1622 C 0.77496 0.4734 0.5286 0.0
C1623 C 0.78671 0.48669 0.52061 0.0
C1624 C 0.83191 0.49618 0.49897 0.0
C1625 C 0.8408 0.52805 0.4608 0.0
C1626 C 0.83175 0.51804 0.47558 0.0
C1627 C 0.80228 0.48262 0.5121 0.0
C1628 C 0.8129 0.49582 0.50066 0.0
H1629 H 0.84589 0.5693 0.44368 0.0
H1630 H 0.83366 0.5536 0.4701 0.0
H1631 H 0.85566 0.50668 0.48493 0.0
H1632 H 0.79825 0.43863 0.52154 0.0
H1633 H 0.81827 0.46146 0.50667 0.0
C1634 C 0.71524 0.86312 0.83096 0.0
C1635 C 0.71963 0.85563 0.81373 0.0
C1636 C 0.70457 0.87668 0.83139 0.0
C1637 C 0.67078 0.89686 0.80306 0.0
H1638 H 0.68621 0.93736 0.84035 0.0
C1639 C 0.63739 0.96127 0.80555 0.0
C1640 C 0.63599 0.96957 0.82344 0.0
C1641 C 0.64632 0.94641 0.80374 0.0
C1642 C 0.68153 0.92603 0.83002 0.0
H1643 H 0.71614 0.85644 0.78339 0.0
H1644 H 0.69746 0.88029 0.78417 0.0
H1645 H 0.70472 0.91373 0.83811 0.0
H1646 H 0.64171 0.96807 0.85348 0.0
H1647 H 0.65682 0.94199 0.85036 0.0
H1648 H 0.6475 0.90922 0.79504 0.0
C1649 C 0.70224 0.87553 0.79733 0.0
C1650 C 0.69219 0.91251 0.82871 0.0
C1651 C 0.71303 0.86197 0.79689 0.0
C1652 C 0.64276 0.96212 0.83949 0.0
C1653 C 0.65155 0.94724 0.83769 0.0
C1654 C 0.66004 0.91041 0.80441 0.0
C1655 C 0.69798 0.88307 0.81461 0.0
C1656 C 0.68688 0.8977 0.81533 0.0
C1657 C 0.65393 0.93953 0.8198 0.0
C1658 C 0.66522 0.92507 0.81804 0.0
H1659 H 0.72003 0.85851 0.84419 0.0
H1660 H 0.70132 0.88204 0.84491 0.0
H1661 H 0.66627 0.88553 0.7927 0.0
H1662 H 0.63233 0.96673 0.79292 0.0
H1663 H 0.64797 0.94082 0.78975 0.0
C1664 C 0.62375 0.48281 0.94554 0.0
C1665 C 0.63168 0.46799 0.95058 0.0
C1666 C 0.63298 0.50036 0.95092 0.0
C1667 C 0.6715 0.5257 0.98447 0.0
H1668 H 0.6683 0.56421 0.95188 0.0
C1669 C 0.72247 0.5929 0.9929 0.0
C1670 C 0.71461 0.60858 0.99378 0.0
C1671 C 0.71136 0.57615 0.9879 0.0
C1672 C 0.66915 0.55358 0.96116 0.0
H1673 H 0.65604 0.46002 0.9643 0.0
H1674 H 0.67244 0.49041 0.97288 0.0
H1675 H 0.65104 0.53404 0.94218 0.0
H1676 H 0.68902 0.61903 0.98981 0.0
H1677 H 0.66961 0.58958 0.98053 0.0
H1678 H 0.69025 0.54517 0.00301 0.0
C1679 C 0.65872 0.48861 0.96554 0.0
C1680 C 0.65922 0.53631 0.95568 0.0
C1681 C 0.64939 0.47112 0.9604 0.0
C1682 C 0.69543 0.60717 0.98932 0.0
C1683 C 0.68436 0.59039 0.98394 0.0
C1684 C 0.68163 0.54285 0.98976 0.0
C1685 C 0.65053 0.50349 0.96115 0.0
C1686 C 0.66041 0.52209 0.96719 0.0
C1687 C 0.69224 0.57474 0.98334 0.0
C1688 C 0.68066 0.55689 0.9781 0.0
H1689 H 0.61061 0.48098 0.93716 0.0
H1690 H 0.62622 0.51145 0.94721 0.0
H1691 H 0.6724 0.51527 0.99397 0.0
H1692 H 0.73719 0.59354 0.99631 0.0
H1693 H 0.71776 0.56427 0.9874 0.0
C1694 C 0.23738 0.68191 0.26779 0.0
C1695 C 0.2512 0.68876 0.28243 0.0
C1696 C 0.22478 0.6662 0.26955 0.0
C1697 C 0.20475 0.63719 0.30489 0.0
H1698 H 0.19255 0.60106 0.26262 0.0
C1699 C 0.16139 0.56761 0.31217 0.0
C1700 C 0.14721 0.56123 0.29774 0.0
C1701 C 0.17482 0.58257 0.31001 0.0
C1702 C 0.19571 0.61109 0.27449 0.0
H1703 H 0.26252 0.68459 0.31045 0.0
H1704 H 0.24065 0.65722 0.31345 0.0
H1705 H 0.21398 0.62884 0.25944 0.0
H1706 H 0.1364 0.56522 0.26946 0.0
H1707 H 0.15972 0.59135 0.26579 0.0
H1708 H 0.18643 0.61953 0.31992 0.0
C1709 C 0.23942 0.66405 0.30069 0.0
C1710 C 0.20794 0.627 0.27266 0.0
C1711 C 0.25201 0.67971 0.29892 0.0
C1712 C 0.14712 0.56978 0.28088 0.0
C1713 C 0.16055 0.58472 0.27872 0.0
C1714 C 0.19252 0.62129 0.30672 0.0
C1715 C 0.22572 0.65707 0.286 0.0
C1716 C 0.21258 0.64023 0.28784 0.0
C1717 C 0.17438 0.59145 0.29337 0.0
C1718 C 0.18785 0.60807 0.29154 0.0
H1719 H 0.23637 0.68859 0.25491 0.0
H1720 H 0.21422 0.66126 0.25808 0.0
H1721 H 0.20785 0.64723 0.31676 0.0
H1722 H 0.16192 0.56128 0.32531 0.0
H1723 H 0.18549 0.58727 0.32144 0.0
C1724 C 0.84637 0.53954 0.12928 0.0
C1725 C 0.85544 0.527 0.12013 0.0
C1726 C 0.84205 0.55428 0.12016 0.0
C1727 C 0.83442 0.56851 0.07219 0.0
H1728 H 0.83482 0.61522 0.09823 0.0
C1729 C 0.81417 0.62562 0.0316 0.0
C1730 C 0.80071 0.6343 0.0393 0.0
C1731 C 0.82386 0.61501 0.04247 0.0
C1732 C 0.83461 0.60223 0.0908 0.0
H1733 H 0.86781 0.52052 0.09458 0.0
H1734 H 0.86065 0.54637 0.07885 0.0
H1735 H 0.84606 0.59164 0.11528 0.0
H1736 H 0.78785 0.63974 0.06483 0.0
H1737 H 0.80472 0.62105 0.08382 0.0
H1738 H 0.8228 0.57891 0.04783 0.0
C1739 C 0.85644 0.54462 0.09289 0.0
C1740 C 0.84099 0.58871 0.10056 0.0
C1741 C 0.86063 0.52983 0.10194 0.0
C1742 C 0.79813 0.63321 0.05849 0.0
C1743 C 0.80782 0.62252 0.06938 0.0
C1744 C 0.82815 0.582 0.06246 0.0
C1745 C 0.8468 0.55686 0.10174 0.0
C1746 C 0.84087 0.57164 0.09138 0.0
C1747 C 0.82027 0.61277 0.06127 0.0
C1748 C 0.82808 0.59899 0.07164 0.0
H1749 H 0.84218 0.53773 0.14331 0.0
H1750 H 0.83444 0.56332 0.12733 0.0
H1751 H 0.83369 0.55544 0.06475 0.0
H1752 H 0.81664 0.62634 0.01691 0.0
H1753 H 0.83367 0.60799 0.03593 0.0
C1754 C 0.13195 0.06511 0.10662 0.0
C1755 C 0.11272 0.06467 0.10527 0.0
C1756 C 0.13912 0.04933 0.10347 0.0
C1757 C 0.12664 0.00364 0.07955 0.0
H1758 H 0.17233 0.99687 0.10679 0.0
C1759 C 0.18226 0.95069 0.08181 0.0
C1760 C 0.18393 0.94841 0.06238 0.0
C1761 C 0.17119 0.96251 0.08879 0.0
C1762 C 0.1594 0.99836 0.09924 0.0
H1763 H 0.08592 0.04722 0.10004 0.0
H1764 H 0.09843 0.01965 0.09479 0.0
H1765 H 0.15782 0.02222 0.11642 0.0
H1766 H 0.17455 0.956 0.03499 0.0
H1767 H 0.1555 0.97653 0.04708 0.0
H1768 H 0.12821 0.97979 0.06237 0.0
C1769 C 0.10799 0.03224 0.09797 0.0
C1770 C 0.15121 0.01306 0.1046 0.0
C1771 C 0.10081 0.04804 0.10105 0.0
C1772 C 0.1736 0.95746 0.05004 0.0
C1773 C 0.16255 0.96918 0.05699 0.0
C1774 C 0.13479 0.98893 0.07423 0.0
C1775 C 0.12724 0.0327 0.09898 0.0
C1776 C 0.13495 0.01611 0.09455 0.0
C1777 C 0.16152 0.97217 0.07647 0.0
C1778 C 0.15151 0.98633 0.08373 0.0
H1779 H 0.14151 0.07769 0.10982 0.0
H1780 H 0.15401 0.05026 0.10408 0.0
H1781 H 0.11419 0.0056 0.0714 0.0
H1782 H 0.19004 0.9439 0.09167 0.0
H1783 H 0.17051 0.96434 0.10386 0.0
loop_
_geom_bond_atom_site_label_1
_geom_bond_atom_site_label_2
_geom_bond_distance
_geom_bond_site_symmetry_2
_ccdc_geom_bond_type
O0 Cd1 2.300 . S
O0 C7 1.275 . S
Cd1 O0 2.300 . S
Cd1 O9 2.381 . S
Cd1 O10 2.378 . S
O2 Cd3 2.385 . S
O2 C7 1.255 . S
Cd3 O2 2.385 . S
Cd3 O4 2.317 . S
O4 Cd3 2.317 . S
O4 C5 1.232 . S
C5 O4 1.232 . S
C5 O6 1.218 . S
O6 C5 1.218 . S
C7 O0 1.275 . S
C7 O2 1.255 . S
C8 O9 1.258 . S
C8 O10 1.256 . S
O9 Cd1 2.381 . S
O9 C8 1.258 . S
O10 Cd1 2.378 . S
O10 C8 1.256 . S
O11 Cd12 2.300 . S
O11 C18 1.275 . S
Cd12 O11 2.300 . S
Cd12 O20 2.381 . S
Cd12 O21 2.378 . S
O13 Cd14 2.385 . S
O13 C18 1.255 . S
Cd14 O13 2.385 . S
Cd14 O15 2.317 . S
O15 Cd14 2.317 . S
O15 C16 1.232 . S
C16 O15 1.232 . S
C16 O17 1.218 . S
O17 C16 1.218 . S
C18 O11 1.275 . S
C18 O13 1.255 . S
C19 O20 1.258 . S
C19 O21 1.256 . S
O20 Cd12 2.381 . S
O20 C19 1.258 . S
O21 Cd12 2.378 . S
O21 C19 1.256 . S
O22 Cd23 2.300 . S
O22 C29 1.275 . S
Cd23 O22 2.300 . S
Cd23 O31 2.381 . S
Cd23 O32 2.378 . S
O24 Cd25 2.385 . S
O24 C29 1.255 . S
Cd25 O24 2.385 . S
Cd25 O26 2.317 . S
O26 Cd25 2.317 . S
O26 C27 1.232 . S
C27 O26 1.232 . S
C27 O28 1.218 . S
O28 C27 1.218 . S
C29 O22 1.275 . S
C29 O24 1.255 . S
C30 O31 1.258 . S
C30 O32 1.256 . S
O31 Cd23 2.381 . S
O31 C30 1.258 . S
O32 Cd23 2.378 . S
O32 C30 1.256 . S
O33 Cd34 2.300 . S
O33 C40 1.275 . S
Cd34 O33 2.300 . S
Cd34 O42 2.381 . S
Cd34 O43 2.378 . S
O35 Cd36 2.385 . S
O35 C40 1.255 . S
Cd36 O35 2.385 . S
Cd36 O37 2.317 . S
O37 Cd36 2.317 . S
O37 C38 1.232 . S
C38 O37 1.232 . S
C38 O39 1.218 . S
O39 C38 1.218 . S
C40 O33 1.275 . S
C40 O35 1.255 . S
C41 O42 1.258 . S
C41 O43 1.256 . S
O42 Cd34 2.381 . S
O42 C41 1.258 . S
O43 Cd34 2.378 . S
O43 C41 1.256 . S
O44 Cd45 2.300 . S
O44 C51 1.275 . S
Cd45 O44 2.300 . S
Cd45 O53 2.381 . S
Cd45 O54 2.378 . S
O46 Cd47 2.385 . S
O46 C51 1.255 . S
Cd47 O46 2.385 . S
Cd47 O48 2.317 . S
O48 Cd47 2.317 . S
O48 C49 1.232 . S
C49 O48 1.232 . S
C49 O50 1.198 1_565 S
O50 C49 1.198 1_545 S
C51 O44 1.275 . S
C51 O46 1.255 . S
C52 O53 1.258 . S
C52 O54 1.256 . S
O53 Cd45 2.381 . S
O53 C52 1.258 . S
O54 Cd45 2.378 . S
O54 C52 1.256 . S
O55 Cd56 2.300 . S
O55 C62 1.275 . S
Cd56 O55 2.300 . S
Cd56 O64 2.381 . S
Cd56 O65 2.378 . S
O57 Cd58 2.385 . S
O57 C62 1.255 . S
Cd58 O57 2.385 . S
Cd58 O59 2.317 . S
O59 Cd58 2.317 . S
O59 C60 1.232 . S
C60 O59 1.232 . S
C60 O61 1.218 . S
O61 C60 1.218 . S
C62 O55 1.275 . S
C62 O57 1.255 . S
C63 O64 1.258 . S
C63 O65 1.256 . S
O64 Cd56 2.381 . S
O64 C63 1.258 . S
O65 Cd56 2.378 . S
O65 C63 1.256 . S
O66 Cd67 2.300 . S
O66 C73 1.275 . S
Cd67 O66 2.300 . S
Cd67 O75 2.381 . S
Cd67 O76 2.378 . S
O68 Cd69 2.385 . S
O68 C73 1.255 . S
Cd69 O68 2.385 . S
Cd69 O70 2.317 . S
O70 Cd69 2.317 . S
O70 C71 1.232 . S
C71 O70 1.232 . S
C71 O72 1.218 . S
O72 C71 1.218 . S
C73 O66 1.275 . S
C73 O68 1.255 . S
C74 O75 1.258 . S
C74 O76 1.256 . S
O75 Cd67 2.381 . S
O75 C74 1.258 . S
O76 Cd67 2.378 . S
O76 C74 1.256 . S
O77 Cd78 2.300 . S
O77 C84 1.275 . S
Cd78 O77 2.300 . S
Cd78 O86 2.381 . S
Cd78 O87 2.378 . S
O79 Cd80 2.385 . S
O79 C84 1.255 . S
Cd80 O79 2.385 . S
Cd80 O81 2.317 . S
O81 Cd80 2.317 . S
O81 C82 1.232 . S
C82 O81 1.232 . S
C82 O83 1.218 . S
O83 C82 1.218 . S
C84 O77 1.275 . S
C84 O79 1.255 . S
C85 O86 1.258 . S
C85 O87 1.256 . S
O86 Cd78 2.381 . S
O86 C85 1.258 . S
O87 Cd78 2.378 . S
O87 C85 1.256 . S
O88 Cd89 2.300 . S
O88 C95 1.275 . S
Cd89 O88 2.300 . S
Cd89 O97 2.381 . S
Cd89 O98 2.378 . S
O90 Cd91 2.385 . S
O90 C95 1.255 . S
Cd91 O90 2.385 . S
Cd91 O92 2.317 . S
O92 Cd91 2.317 . S
O92 C93 1.232 . S
C93 O92 1.232 . S
C93 O94 1.218 . S
O94 C93 1.218 . S
C95 O88 1.275 . S
C95 O90 1.255 . S
C96 O97 1.258 . S
C96 O98 1.256 . S
O97 Cd89 2.381 . S
O97 C96 1.258 . S
O98 Cd89 2.378 . S
O98 C96 1.256 . S
O99 Cd100 2.300 . S
O99 C106 1.275 . S
Cd100 O99 2.300 . S
Cd100 O108 2.381 . S
Cd100 O109 2.378 . S
O101 Cd102 2.385 . S
O101 C106 1.255 . S
Cd102 O101 2.385 . S
Cd102 O103 2.317 . S
O103 Cd102 2.317 . S
O103 C104 1.232 . S
C104 O103 1.232 . S
C104 O105 1.218 . S
O105 C104 1.218 . S
C106 O99 1.275 . S
C106 O101 1.255 . S
C107 O108 1.258 . S
C107 O109 1.256 . S
O108 Cd100 2.381 . S
O108 C107 1.258 . S
O109 Cd100 2.378 . S
O109 C107 1.256 . S
O110 Cd111 2.300 . S
O110 C117 1.275 . S
Cd111 O110 2.300 . S
Cd111 O119 2.381 . S
Cd111 O120 2.378 . S
O112 Cd113 2.385 . S
O112 C117 1.255 . S
Cd113 O112 2.385 . S
Cd113 O114 2.317 . S
O114 Cd113 2.317 . S
O114 C115 1.232 . S
C115 O114 1.232 . S
C115 O116 1.218 . S
O116 C115 1.218 . S
C117 O110 1.275 . S
C117 O112 1.255 . S
C118 O119 1.258 . S
C118 O120 1.256 . S
O119 Cd111 2.381 . S
O119 C118 1.258 . S
O120 Cd111 2.378 . S
O120 C118 1.256 . S
O121 Cd122 2.300 . S
O121 C128 1.275 . S
Cd122 O121 2.300 . S
Cd122 O130 2.381 . S
Cd122 O131 2.378 . S
O123 Cd124 2.385 . S
O123 C128 1.255 . S
Cd124 O123 2.385 . S
Cd124 O125 2.317 . S
O125 Cd124 2.317 . S
O125 C126 1.232 . S
C126 O125 1.232 . S
C126 O127 1.218 . S
O127 C126 1.218 . S
C128 O121 1.275 . S
C128 O123 1.255 . S
C129 O130 1.258 . S
C129 O131 1.256 . S
O130 Cd122 2.381 . S
O130 C129 1.258 . S
O131 Cd122 2.378 . S
O131 C129 1.256 . S
O132 Cd133 2.300 . S
O132 C139 1.275 . S
Cd133 O132 2.300 . S
Cd133 O141 2.381 . S
Cd133 O142 2.378 . S
O134 Cd135 2.385 . S
O134 C139 1.255 . S
Cd135 O134 2.385 . S
Cd135 O136 2.317 . S
O136 Cd135 2.317 . S
O136 C137 1.232 . S
C137 O136 1.232 . S
C137 O138 1.218 . S
O138 C137 1.218 . S
C139 O132 1.275 . S
C139 O134 1.255 . S
C140 O141 1.258 . S
C140 O142 1.256 . S
O141 Cd133 2.381 . S
O141 C140 1.258 . S
O142 Cd133 2.378 . S
O142 C140 1.256 . S
O143 Cd144 2.300 . S
O143 C150 1.275 . S
Cd144 O143 2.300 . S
Cd144 O152 2.381 . S
Cd144 O153 2.378 . S
O145 Cd146 2.385 . S
O145 C150 1.255 . S
Cd146 O145 2.385 . S
Cd146 O147 2.317 . S
O147 Cd146 2.317 . S
O147 C148 1.232 . S
C148 O147 1.232 . S
C148 O149 1.218 . S
O149 C148 1.218 . S
C150 O143 1.275 . S
C150 O145 1.255 . S
C151 O152 1.258 . S
C151 O153 1.256 . S
O152 Cd144 2.381 . S
O152 C151 1.258 . S
O153 Cd144 2.378 . S
O153 C151 1.256 . S
O154 Cd155 2.300 . S
O154 C161 1.275 . S
Cd155 O154 2.300 . S
Cd155 O163 2.381 . S
Cd155 O164 2.378 . S
O156 Cd157 2.385 . S
O156 C161 1.255 . S
Cd157 O156 2.385 . S
Cd157 O158 2.317 . S
O158 Cd157 2.317 . S
O158 C159 1.232 . S
C159 O158 1.232 . S
C159 O160 1.218 . S
O160 C159 1.218 . S
C161 O154 1.275 . S
C161 O156 1.255 . S
C162 O163 1.258 . S
C162 O164 1.256 . S
O163 Cd155 2.381 . S
O163 C162 1.258 . S
O164 Cd155 2.378 . S
O164 C162 1.256 . S
O165 Cd166 2.300 . S
O165 C172 1.275 . S
Cd166 O165 2.300 . S
Cd166 O174 2.381 . S
Cd166 O175 2.378 . S
O167 Cd168 2.385 . S
O167 C172 1.255 . S
Cd168 O167 2.385 . S
Cd168 O169 2.317 . S
O169 Cd168 2.317 . S
O169 C170 1.232 . S
C170 O169 1.232 . S
C170 O171 1.218 . S
O171 C170 1.218 . S
C172 O165 1.275 . S
C172 O167 1.255 . S
C173 O174 1.258 . S
C173 O175 1.256 . S
O174 Cd166 2.381 . S
O174 C173 1.258 . S
O175 Cd166 2.378 . S
O175 C173 1.256 . S
O176 Cd177 2.223 . S
O176 C184 1.315 . S
Cd177 O176 2.223 . S
Cd177 O180 2.297 . S
Cd177 O181 2.439 . S
Cd177 O187 2.240 . S
Cd178 O179 2.240 . S
Cd178 O186 2.223 . S
Cd178 O188 2.297 . S
Cd178 O189 2.439 . S
O179 Cd178 2.240 . S
O179 C184 1.279 . S
O180 Cd177 2.297 . S
O180 C182 1.247 . S
O181 Cd177 2.439 . S
O181 C182 1.208 . S
C182 O180 1.247 . S
C182 O181 1.208 . S
C183 O188 1.247 . S
C183 O189 1.208 . S
C184 O176 1.315 . S
C184 O179 1.279 . S
C185 O186 1.315 . S
C185 O187 1.279 . S
O186 Cd178 2.223 . S
O186 C185 1.315 . S
O187 Cd177 2.240 . S
O187 C185 1.279 . S
O188 Cd178 2.297 . S
O188 C183 1.247 . S
O189 Cd178 2.439 . S
O189 C183 1.208 . S
O190 Cd191 2.223 . S
O190 C198 1.315 . S
Cd191 O190 2.223 . S
Cd191 O194 2.297 . S
Cd191 O195 2.439 . S
Cd191 O201 2.240 . S
Cd192 O193 2.240 . S
Cd192 O200 2.223 . S
Cd192 O202 2.297 . S
Cd192 O203 2.439 . S
O193 Cd192 2.240 . S
O193 C198 1.279 . S
O194 Cd191 2.297 . S
O194 C196 1.247 . S
O195 Cd191 2.439 . S
O195 C196 1.208 . S
C196 O194 1.247 . S
C196 O195 1.208 . S
C197 O202 1.247 . S
C197 O203 1.208 . S
C198 O190 1.315 . S
C198 O193 1.279 . S
C199 O200 1.315 . S
C199 O201 1.279 . S
O200 Cd192 2.223 . S
O200 C199 1.315 . S
O201 Cd191 2.240 . S
O201 C199 1.279 . S
O202 Cd192 2.297 . S
O202 C197 1.247 . S
O203 Cd192 2.439 . S
O203 C197 1.208 . S
O204 Cd205 2.223 1_556 S
O204 C212 1.315 . S
Cd205 O204 2.223 1_554 S
Cd205 O208 2.297 . S
Cd205 O209 2.439 . S
Cd205 O215 2.240 . S
Cd206 O207 2.243 . S
Cd206 O214 2.223 1_554 S
Cd206 O216 2.297 . S
Cd206 O217 2.439 . S
O207 Cd206 2.243 . S
O207 C212 1.261 1_554 S
O208 Cd205 2.297 . S
O208 C210 1.247 . S
O209 Cd205 2.439 . S
O209 C210 1.208 . S
C210 O208 1.247 . S
C210 O209 1.208 . S
C211 O216 1.247 . S
C211 O217 1.208 . S
C212 O204 1.315 . S
C212 O207 1.261 1_556 S
C213 O214 1.315 . S
C213 O215 1.279 1_556 S
O214 Cd206 2.223 1_556 S
O214 C213 1.315 . S
O215 Cd205 2.240 . S
O215 C213 1.279 1_554 S
O216 Cd206 2.297 . S
O216 C211 1.247 . S
O217 Cd206 2.439 . S
O217 C211 1.208 . S
O218 Cd219 2.223 . S
O218 C226 1.315 . S
Cd219 O218 2.223 . S
Cd219 O222 2.297 . S
Cd219 O223 2.439 . S
Cd219 O229 2.240 . S
Cd220 O221 2.240 . S
Cd220 O228 2.223 . S
Cd220 O230 2.297 . S
Cd220 O231 2.439 . S
O221 Cd220 2.240 . S
O221 C226 1.279 . S
O222 Cd219 2.297 . S
O222 C224 1.247 . S
O223 Cd219 2.439 . S
O223 C224 1.208 . S
C224 O222 1.247 . S
C224 O223 1.208 . S
C225 O230 1.247 . S
C225 O231 1.208 . S
C226 O218 1.315 . S
C226 O221 1.279 . S
C227 O228 1.315 . S
C227 O229 1.279 . S
O228 Cd220 2.223 . S
O228 C227 1.315 . S
O229 Cd219 2.240 . S
O229 C227 1.279 . S
O230 Cd220 2.297 . S
O230 C225 1.247 . S
O231 Cd220 2.439 . S
O231 C225 1.208 . S
O232 Cd233 2.223 . S
O232 C240 1.315 . S
Cd233 O232 2.223 . S
Cd233 O236 2.297 . S
Cd233 O237 2.439 . S
Cd233 O243 2.240 . S
Cd234 O235 2.240 . S
Cd234 O242 2.223 . S
Cd234 O244 2.297 . S
Cd234 O245 2.439 . S
O235 Cd234 2.240 . S
O235 C240 1.279 . S
O236 Cd233 2.297 . S
O236 C238 1.247 . S
O237 Cd233 2.439 . S
O237 C238 1.208 . S
C238 O236 1.247 . S
C238 O237 1.208 . S
C239 O244 1.247 . S
C239 O245 1.208 . S
C240 O232 1.315 . S
C240 O235 1.279 . S
C241 O242 1.315 . S
C241 O243 1.279 . S
O242 Cd234 2.223 . S
O242 C241 1.315 . S
O243 Cd233 2.240 . S
O243 C241 1.279 . S
O244 Cd234 2.297 . S
O244 C239 1.247 . S
O245 Cd234 2.439 . S
O245 C239 1.208 . S
O246 Cd247 2.223 . S
O246 C254 1.315 . S
Cd247 O246 2.223 . S
Cd247 O250 2.297 . S
Cd247 O251 2.439 . S
Cd247 O257 2.240 . S
Cd248 O249 2.240 . S
Cd248 O256 2.223 . S
Cd248 O258 2.297 . S
Cd248 O259 2.439 . S
O249 Cd248 2.240 . S
O249 C254 1.279 . S
O250 Cd247 2.297 . S
O250 C252 1.247 . S
O251 Cd247 2.439 . S
O251 C252 1.208 . S
C252 O250 1.247 . S
C252 O251 1.208 . S
C253 O258 1.247 . S
C253 O259 1.208 . S
C254 O246 1.315 . S
C254 O249 1.279 . S
C255 O256 1.315 . S
C255 O257 1.279 . S
O256 Cd248 2.223 . S
O256 C255 1.315 . S
O257 Cd247 2.240 . S
O257 C255 1.279 . S
O258 Cd248 2.297 . S
O258 C253 1.247 . S
O259 Cd248 2.439 . S
O259 C253 1.208 . S
O260 Cd261 2.223 . S
O260 C268 1.315 . S
Cd261 O260 2.223 . S
Cd261 O264 2.297 . S
Cd261 O265 2.439 . S
Cd261 O271 2.240 . S
Cd262 O263 2.240 . S
Cd262 O270 2.223 . S
Cd262 O272 2.297 . S
Cd262 O273 2.439 . S
O263 Cd262 2.240 . S
O263 C268 1.279 . S
O264 Cd261 2.297 . S
O264 C266 1.247 . S
O265 Cd261 2.439 . S
O265 C266 1.208 . S
C266 O264 1.247 . S
C266 O265 1.208 . S
C267 O272 1.247 . S
C267 O273 1.208 . S
C268 O260 1.315 . S
C268 O263 1.279 . S
C269 O270 1.315 . S
C269 O271 1.279 . S
O270 Cd262 2.223 . S
O270 C269 1.315 . S
O271 Cd261 2.240 . S
O271 C269 1.279 . S
O272 Cd262 2.297 . S
O272 C267 1.247 . S
O273 Cd262 2.439 . S
O273 C267 1.208 . S
O274 Cd275 2.183 1_545 S
O274 C282 1.315 . S
Cd275 O274 2.183 1_565 S
Cd275 O278 2.322 . S
Cd275 O279 2.466 . S
Cd275 O285 2.221 1_565 S
Cd276 O277 2.240 . S
Cd276 O284 2.223 . S
Cd276 O286 2.297 . S
Cd276 O287 2.439 1_545 S
O277 Cd276 2.240 . S
O277 C282 1.279 . S
O278 Cd275 2.322 . S
O278 C280 1.247 . S
O279 Cd275 2.466 . S
O279 C280 1.208 . S
C280 O278 1.247 . S
C280 O279 1.208 . S
C281 O286 1.247 1_565 S
C281 O287 1.208 . S
C282 O274 1.315 . S
C282 O277 1.279 . S
C283 O284 1.315 . S
C283 O285 1.279 . S
O284 Cd276 2.223 . S
O284 C283 1.315 . S
O285 Cd275 2.221 1_545 S
O285 C283 1.279 . S
O286 Cd276 2.297 . S
O286 C281 1.247 1_545 S
O287 Cd276 2.439 1_565 S
O287 C281 1.208 . S
O288 Cd289 2.223 . S
O288 C296 1.315 . S
Cd289 O288 2.223 . S
Cd289 O292 2.297 1_655 S
Cd289 O293 2.439 1_655 S
Cd289 O299 2.240 . S
Cd290 O291 2.240 . S
Cd290 O298 2.223 1_455 S
Cd290 O300 2.297 . S
Cd290 O301 2.439 . S
O291 Cd290 2.240 . S
O291 C296 1.279 1_455 S
O292 Cd289 2.297 1_455 S
O292 C294 1.247 . S
O293 Cd289 2.439 1_455 S
O293 C294 1.208 . S
C294 O292 1.247 . S
C294 O293 1.208 . S
C295 O300 1.247 . S
C295 O301 1.208 . S
C296 O288 1.315 . S
C296 O291 1.279 1_655 S
C297 O298 1.315 . S
C297 O299 1.279 . S
O298 Cd290 2.223 1_655 S
O298 C297 1.315 . S
O299 Cd289 2.240 . S
O299 C297 1.279 . S
O300 Cd290 2.297 . S
O300 C295 1.247 . S
O301 Cd290 2.439 . S
O301 C295 1.208 . S
O302 Cd303 2.223 . S
O302 C310 1.315 . S
Cd303 O302 2.223 . S
Cd303 O306 2.297 . S
Cd303 O307 2.439 . S
Cd303 O313 2.240 . S
Cd304 O305 2.240 . S
Cd304 O312 2.223 . S
Cd304 O314 2.297 . S
Cd304 O315 2.439 . S
O305 Cd304 2.240 . S
O305 C310 1.279 . S
O306 Cd303 2.297 . S
O306 C308 1.247 . S
O307 Cd303 2.439 . S
O307 C308 1.208 . S
C308 O306 1.247 . S
C308 O307 1.208 . S
C309 O314 1.247 . S
C309 O315 1.208 . S
C310 O302 1.315 . S
C310 O305 1.279 . S
C311 O312 1.315 . S
C311 O313 1.279 . S
O312 Cd304 2.223 . S
O312 C311 1.315 . S
O313 Cd303 2.240 . S
O313 C311 1.279 . S
O314 Cd304 2.297 . S
O314 C309 1.247 . S
O315 Cd304 2.439 . S
O315 C309 1.208 . S
O316 Cd317 2.247 . S
O316 C324 1.305 1_455 S
Cd317 O316 2.247 . S
Cd317 O320 2.297 . S
Cd317 O321 2.439 . S
Cd317 O327 2.240 . S
Cd318 O319 2.240 . S
Cd318 O326 2.223 1_455 S
Cd318 O328 2.297 . S
Cd318 O329 2.439 . S
O319 Cd318 2.240 . S
O319 C324 1.279 1_455 S
O320 Cd317 2.297 . S
O320 C322 1.247 . S
O321 Cd317 2.439 . S
O321 C322 1.208 . S
C322 O320 1.247 . S
C322 O321 1.208 . S
C323 O328 1.247 . S
C323 O329 1.208 . S
C324 O316 1.305 1_655 S
C324 O319 1.279 1_655 S
C325 O326 1.300 1_455 S
C325 O327 1.299 . S
O326 Cd318 2.223 1_655 S
O326 C325 1.300 1_655 S
O327 Cd317 2.240 . S
O327 C325 1.299 . S
O328 Cd318 2.297 . S
O328 C323 1.247 . S
O329 Cd318 2.439 . S
O329 C323 1.208 . S
O330 Cd331 2.223 . S
O330 C338 1.315 . S
Cd331 O330 2.223 . S
Cd331 O334 2.297 . S
Cd331 O335 2.439 . S
Cd331 O341 2.240 . S
Cd332 O333 2.240 . S
Cd332 O340 2.223 . S
Cd332 O342 2.297 . S
Cd332 O343 2.439 . S
O333 Cd332 2.240 . S
O333 C338 1.279 . S
O334 Cd331 2.297 . S
O334 C336 1.247 . S
O335 Cd331 2.439 . S
O335 C336 1.208 . S
C336 O334 1.247 . S
C336 O335 1.208 . S
C337 O342 1.247 . S
C337 O343 1.208 . S
C338 O330 1.315 . S
C338 O333 1.279 . S
C339 O340 1.315 . S
C339 O341 1.279 . S
O340 Cd332 2.223 . S
O340 C339 1.315 . S
O341 Cd331 2.240 . S
O341 C339 1.279 . S
O342 Cd332 2.297 . S
O342 C337 1.247 . S
O343 Cd332 2.439 . S
O343 C337 1.208 . S
C344 C345 1.349 . S
C344 C346 1.327 . S
C344 H369 0.950 . S
C345 C344 1.349 . S
C345 C361 1.349 . S
C346 C344 1.327 . S
C346 C365 1.429 . S
C346 H370 0.950 . S
C347 C364 1.574 . S
C347 C366 1.368 . S
C347 H371 0.949 . S
H348 C352 0.949 . S
C349 C350 1.349 1_556 S
C349 C351 1.327 . S
C349 H372 0.950 . S
C350 C349 1.349 1_554 S
C350 C362 1.349 . S
C351 C349 1.327 . S
C351 C367 1.429 . S
C351 H373 0.950 . S
C352 H348 0.949 . S
C352 C360 1.574 . S
C352 C368 1.368 . S
H353 C361 0.950 . S
H354 C359 0.950 . S
H355 C360 0.949 . S
H356 C362 0.950 . S
H357 C363 0.950 . S
H358 C364 0.949 . S
C359 H354 0.950 . S
C359 C361 1.327 . S
C359 C365 1.429 . S
C360 C352 1.574 . S
C360 H355 0.949 . S
C360 C366 1.368 . S
C361 C345 1.349 . S
C361 H353 0.950 . S
C361 C359 1.327 . S
C362 C350 1.349 . S
C362 H356 0.950 . S
C362 C363 1.327 1_554 S
C363 H357 0.950 . S
C363 C362 1.327 1_556 S
C363 C367 1.429 . S
C364 C347 1.574 . S
C364 H358 0.949 . S
C364 C368 1.368 . S
C365 C346 1.429 . S
C365 C359 1.429 . S
C365 C366 1.523 . S
C366 C347 1.368 . S
C366 C360 1.368 . S
C366 C365 1.523 . S
C367 C351 1.429 . S
C367 C363 1.429 . S
C367 C368 1.523 . S
C368 C352 1.368 . S
C368 C364 1.368 . S
C368 C367 1.523 . S
H369 C344 0.950 . S
H370 C346 0.950 . S
H371 C347 0.949 . S
H372 C349 0.950 . S
H373 C351 0.950 . S
C374 C375 1.349 . S
C374 C376 1.327 . S
C374 H399 0.950 . S
C375 C374 1.349 . S
C375 C391 1.349 . S
C376 C374 1.327 . S
C376 C395 1.429 . S
C376 H400 0.950 . S
C377 C394 1.574 . S
C377 C396 1.354 1_455 S
C377 H401 0.949 1_455 S
H378 C382 0.949 . S
C379 C380 1.349 . S
C379 C381 1.327 . S
C379 H402 0.950 . S
C380 C379 1.349 . S
C380 C392 1.349 . S
C381 C379 1.327 . S
C381 C397 1.429 . S
C381 H403 0.950 . S
C382 H378 0.949 . S
C382 C390 1.574 . S
C382 C398 1.368 . S
H383 C391 0.950 . S
H384 C389 0.950 . S
H385 C390 0.969 . S
H386 C392 0.950 . S
H387 C393 0.950 . S
H388 C394 0.949 . S
C389 H384 0.950 . S
C389 C391 1.327 . S
C389 C395 1.429 . S
C390 C382 1.574 . S
C390 H385 0.969 . S
C390 C396 1.356 1_455 S
C391 C375 1.349 . S
C391 H383 0.950 . S
C391 C389 1.327 . S
C392 C380 1.349 . S
C392 H386 0.950 . S
C392 C393 1.327 . S
C393 H387 0.950 . S
C393 C392 1.327 . S
C393 C397 1.429 . S
C394 C377 1.574 . S
C394 H388 0.949 . S
C394 C398 1.368 . S
C395 C376 1.429 . S
C395 C389 1.429 . S
C395 C396 1.559 . S
C396 C377 1.354 1_655 S
C396 C390 1.356 1_655 S
C396 C395 1.559 . S
C397 C381 1.429 . S
C397 C393 1.429 . S
C397 C398 1.523 . S
C398 C382 1.368 . S
C398 C394 1.368 . S
C398 C397 1.523 . S
H399 C374 0.950 . S
H400 C376 0.950 . S
H401 C377 0.949 1_655 S
H402 C379 0.950 . S
H403 C381 0.950 . S
C404 C405 1.349 . S
C404 C406 1.327 . S
C404 H429 0.950 . S
C405 C404 1.349 . S
C405 C421 1.349 . S
C406 C404 1.327 . S
C406 C425 1.429 . S
C406 H430 0.950 . S
C407 C424 1.574 . S
C407 C426 1.368 . S
C407 H431 0.949 . S
H408 C412 0.949 . S
C409 C410 1.349 . S
C409 C411 1.327 . S
C409 H432 0.950 . S
C410 C409 1.349 . S
C410 C422 1.349 . S
C411 C409 1.327 . S
C411 C427 1.429 . S
C411 H433 0.950 . S
C412 H408 0.949 . S
C412 C420 1.574 . S
C412 C428 1.368 . S
H413 C421 0.950 . S
H414 C419 0.950 . S
H415 C420 0.949 . S
H416 C422 0.950 . S
H417 C423 0.950 . S
H418 C424 0.949 . S
C419 H414 0.950 . S
C419 C421 1.327 . S
C419 C425 1.429 . S
C420 C412 1.574 . S
C420 H415 0.949 . S
C420 C426 1.368 . S
C421 C405 1.349 . S
C421 H413 0.950 . S
C421 C419 1.327 . S
C422 C410 1.349 . S
C422 H416 0.950 . S
C422 C423 1.327 . S
C423 H417 0.950 . S
C423 C422 1.327 . S
C423 C427 1.429 . S
C424 C407 1.574 . S
C424 H418 0.949 . S
C424 C428 1.368 . S
C425 C406 1.429 . S
C425 C419 1.429 . S
C425 C426 1.523 . S
C426 C407 1.368 . S
C426 C420 1.368 . S
C426 C425 1.523 . S
C427 C411 1.429 . S
C427 C423 1.429 . S
C427 C428 1.523 . S
C428 C412 1.368 . S
C428 C424 1.368 . S
C428 C427 1.523 . S
H429 C404 0.950 . S
H430 C406 0.950 . S
H431 C407 0.949 . S
H432 C409 0.950 . S
H433 C411 0.950 . S
C434 C435 1.346 1_545 S
C434 C436 1.329 . S
C434 H459 0.951 . S
C435 C434 1.346 1_565 S
C435 C451 1.349 . S
C436 C434 1.329 . S
C436 C455 1.429 1_545 S
C436 H460 0.950 . S
C437 C454 1.574 1_565 S
C437 C456 1.368 1_565 S
C437 H461 0.949 . S
H438 C442 0.949 . S
C439 C440 1.349 . S
C439 C441 1.327 . S
C439 H462 0.950 . S
C440 C439 1.349 . S
C440 C452 1.349 . S
C441 C439 1.327 . S
C441 C457 1.429 . S
C441 H463 0.950 . S
C442 H438 0.949 . S
C442 C450 1.567 1_655 S
C442 C458 1.368 . S
H443 C451 0.950 . S
H444 C449 0.950 1_655 S
H445 C450 0.956 . S
H446 C452 0.950 . S
H447 C453 0.950 . S
H448 C454 0.949 1_565 S
C449 H444 0.950 1_455 S
C449 C451 1.327 . S
C449 C455 1.429 . S
C450 C442 1.567 1_455 S
C450 H445 0.956 . S
C450 C456 1.368 1_455 S
C451 C435 1.349 . S
C451 H443 0.950 . S
C451 C449 1.327 . S
C452 C440 1.349 . S
C452 H446 0.950 . S
C452 C453 1.327 . S
C453 H447 0.950 . S
C453 C452 1.327 . S
C453 C457 1.429 . S
C454 C437 1.574 1_545 S
C454 H448 0.949 1_545 S
C454 C458 1.368 . S
C455 C436 1.429 1_565 S
C455 C449 1.429 . S
C455 C456 1.523 1_465 S
C456 C437 1.368 1_545 S
C456 C450 1.368 1_655 S
C456 C455 1.523 1_645 S
C457 C441 1.429 . S
C457 C453 1.429 . S
C457 C458 1.523 . S
C458 C442 1.368 . S
C458 C454 1.368 . S
C458 C457 1.523 . S
H459 C434 0.951 . S
H460 C436 0.950 . S
H461 C437 0.949 . S
H462 C439 0.950 . S
H463 C441 0.950 . S
C464 C465 1.349 . S
C464 C466 1.327 . S
C464 H489 0.950 . S
C465 C464 1.349 . S
C465 C481 1.349 . S
C466 C464 1.327 . S
C466 C485 1.429 . S
C466 H490 0.950 . S
C467 C484 1.574 . S
C467 C486 1.368 . S
C467 H491 0.949 . S
H468 C472 0.949 . S
C469 C470 1.349 . S
C469 C471 1.327 . S
C469 H492 0.950 . S
C470 C469 1.349 . S
C470 C482 1.349 . S
C471 C469 1.327 . S
C471 C487 1.429 . S
C471 H493 0.950 . S
C472 H468 0.949 . S
C472 C480 1.574 . S
C472 C488 1.368 . S
H473 C481 0.950 . S
H474 C479 0.950 . S
H475 C480 0.949 . S
H476 C482 0.950 . S
H477 C483 0.950 . S
H478 C484 0.949 . S
C479 H474 0.950 . S
C479 C481 1.327 . S
C479 C485 1.429 . S
C480 C472 1.574 . S
C480 H475 0.949 . S
C480 C486 1.368 . S
C481 C465 1.349 . S
C481 H473 0.950 . S
C481 C479 1.327 . S
C482 C470 1.349 . S
C482 H476 0.950 . S
C482 C483 1.327 . S
C483 H477 0.950 . S
C483 C482 1.327 . S
C483 C487 1.429 . S
C484 C467 1.574 . S
C484 H478 0.949 . S
C484 C488 1.368 . S
C485 C466 1.429 . S
C485 C479 1.429 . S
C485 C486 1.523 . S
C486 C467 1.368 . S
C486 C480 1.368 . S
C486 C485 1.523 . S
C487 C471 1.429 . S
C487 C483 1.429 . S
C487 C488 1.523 . S
C488 C472 1.368 . S
C488 C484 1.368 . S
C488 C487 1.523 . S
H489 C464 0.950 . S
H490 C466 0.950 . S
H491 C467 0.949 . S
H492 C469 0.950 . S
H493 C471 0.950 . S
C494 C495 1.349 . S
C494 C496 1.327 . S
C494 H519 0.950 . S
C495 C494 1.349 . S
C495 C511 1.349 . S
C496 C494 1.327 . S
C496 C515 1.429 . S
C496 H520 0.950 . S
C497 C514 1.574 . S
C497 C516 1.368 . S
C497 H521 0.949 . S
H498 C502 0.949 . S
C499 C500 1.349 . S
C499 C501 1.327 . S
C499 H522 0.950 . S
C500 C499 1.349 . S
C500 C512 1.349 . S
C501 C499 1.327 . S
C501 C517 1.429 . S
C501 H523 0.950 . S
C502 H498 0.949 . S
C502 C510 1.574 . S
C502 C518 1.368 . S
H503 C511 0.950 . S
H504 C509 0.950 . S
H505 C510 0.949 . S
H506 C512 0.950 . S
H507 C513 0.950 . S
H508 C514 0.949 . S
C509 H504 0.950 . S
C509 C511 1.327 . S
C509 C515 1.429 . S
C510 C502 1.574 . S
C510 H505 0.949 . S
C510 C516 1.368 . S
C511 C495 1.349 . S
C511 H503 0.950 . S
C511 C509 1.327 . S
C512 C500 1.349 . S
C512 H506 0.950 . S
C512 C513 1.327 . S
C513 H507 0.950 . S
C513 C512 1.327 . S
C513 C517 1.429 . S
C514 C497 1.574 . S
C514 H508 0.949 . S
C514 C518 1.368 . S
C515 C496 1.429 . S
C515 C509 1.429 . S
C515 C516 1.523 . S
C516 C497 1.368 . S
C516 C510 1.368 . S
C516 C515 1.523 . S
C517 C501 1.429 . S
C517 C513 1.429 . S
C517 C518 1.523 . S
C518 C502 1.368 . S
C518 C514 1.368 . S
C518 C517 1.523 . S
H519 C494 0.950 . S
H520 C496 0.950 . S
H521 C497 0.949 . S
H522 C499 0.950 . S
H523 C501 0.950 . S
C524 C525 1.349 . S
C524 C526 1.327 . S
C524 H549 0.950 . S
C525 C524 1.349 . S
C525 C541 1.349 . S
C526 C524 1.327 . S
C526 C545 1.429 . S
C526 H550 0.950 . S
C527 C544 1.574 . S
C527 C546 1.368 . S
C527 H551 0.949 . S
H528 C532 0.949 . S
C529 C530 1.349 . S
C529 C531 1.327 . S
C529 H552 0.950 . S
C530 C529 1.349 . S
C530 C542 1.349 . S
C531 C529 1.327 . S
C531 C547 1.429 . S
C531 H553 0.950 . S
C532 H528 0.949 . S
C532 C540 1.574 . S
C532 C548 1.368 . S
H533 C541 0.950 . S
H534 C539 0.950 . S
H535 C540 0.949 . S
H536 C542 0.950 . S
H537 C543 0.950 . S
H538 C544 0.949 . S
C539 H534 0.950 . S
C539 C541 1.327 . S
C539 C545 1.429 . S
C540 C532 1.574 . S
C540 H535 0.949 . S
C540 C546 1.368 . S
C541 C525 1.349 . S
C541 H533 0.950 . S
C541 C539 1.327 . S
C542 C530 1.349 . S
C542 H536 0.950 . S
C542 C543 1.327 . S
C543 H537 0.950 . S
C543 C542 1.327 . S
C543 C547 1.429 . S
C544 C527 1.574 . S
C544 H538 0.949 . S
C544 C548 1.368 . S
C545 C526 1.429 . S
C545 C539 1.429 . S
C545 C546 1.523 . S
C546 C527 1.368 . S
C546 C540 1.368 . S
C546 C545 1.523 . S
C547 C531 1.429 . S
C547 C543 1.429 . S
C547 C548 1.523 . S
C548 C532 1.368 . S
C548 C544 1.368 . S
C548 C547 1.523 . S
H549 C524 0.950 . S
H550 C526 0.950 . S
H551 C527 0.949 . S
H552 C529 0.950 . S
H553 C531 0.950 . S
C554 C555 1.349 . S
C554 C556 1.327 . S
C554 H579 0.950 . S
C555 C554 1.349 . S
C555 C571 1.349 . S
C556 C554 1.327 . S
C556 C575 1.429 . S
C556 H580 0.950 . S
C557 C574 1.574 . S
C557 C576 1.368 . S
C557 H581 0.949 . S
H558 C562 0.949 . S
C559 C560 1.349 . S
C559 C561 1.327 . S
C559 H582 0.950 1_565 S
C560 C559 1.349 . S
C560 C572 1.349 . S
C561 C559 1.327 . S
C561 C577 1.429 . S
C561 H583 0.950 . S
C562 H558 0.949 . S
C562 C570 1.574 . S
C562 C578 1.368 . S
H563 C571 0.950 . S
H564 C569 0.950 . S
H565 C570 0.949 . S
H566 C572 0.950 . S
H567 C573 0.950 . S
H568 C574 0.949 . S
C569 H564 0.950 . S
C569 C571 1.327 . S
C569 C575 1.429 . S
C570 C562 1.574 . S
C570 H565 0.949 . S
C570 C576 1.368 . S
C571 C555 1.349 . S
C571 H563 0.950 . S
C571 C569 1.327 . S
C572 C560 1.349 . S
C572 H566 0.950 . S
C572 C573 1.327 . S
C573 H567 0.950 . S
C573 C572 1.327 . S
C573 C577 1.429 . S
C574 C557 1.574 . S
C574 H568 0.949 . S
C574 C578 1.368 . S
C575 C556 1.429 . S
C575 C569 1.429 . S
C575 C576 1.523 . S
C576 C557 1.368 . S
C576 C570 1.368 . S
C576 C575 1.523 . S
C577 C561 1.429 . S
C577 C573 1.429 . S
C577 C578 1.523 . S
C578 C562 1.368 . S
C578 C574 1.368 . S
C578 C577 1.523 . S
H579 C554 0.950 . S
H580 C556 0.950 . S
H581 C557 0.949 . S
H582 C559 0.950 1_545 S
H583 C561 0.950 . S
C584 C585 1.349 . S
C584 C586 1.327 . S
C584 H609 0.950 . S
C585 C584 1.349 . S
C585 C601 1.349 . S
C586 C584 1.327 . S
C586 C605 1.429 . S
C586 H610 0.950 . S
C587 C604 1.574 . S
C587 C606 1.368 . S
C587 H611 0.949 . S
H588 C592 0.949 . S
C589 C590 1.349 . S
C589 C591 1.327 . S
C589 H612 0.950 . S
C590 C589 1.349 . S
C590 C602 1.349 . S
C591 C589 1.327 . S
C591 C607 1.429 . S
C591 H613 0.950 . S
C592 H588 0.949 . S
C592 C600 1.574 . S
C592 C608 1.368 . S
H593 C601 0.950 . S
H594 C599 0.950 . S
H595 C600 0.949 . S
H596 C602 0.950 . S
H597 C603 0.950 . S
H598 C604 0.949 . S
C599 H594 0.950 . S
C599 C601 1.327 . S
C599 C605 1.429 . S
C600 C592 1.574 . S
C600 H595 0.949 . S
C600 C606 1.368 . S
C601 C585 1.349 . S
C601 H593 0.950 . S
C601 C599 1.327 . S
C602 C590 1.349 . S
C602 H596 0.950 . S
C602 C603 1.327 . S
C603 H597 0.950 . S
C603 C602 1.327 . S
C603 C607 1.429 . S
C604 C587 1.574 . S
C604 H598 0.949 . S
C604 C608 1.368 . S
C605 C586 1.429 . S
C605 C599 1.429 . S
C605 C606 1.523 . S
C606 C587 1.368 . S
C606 C600 1.368 . S
C606 C605 1.523 . S
C607 C591 1.429 . S
C607 C603 1.429 . S
C607 C608 1.523 . S
C608 C592 1.368 . S
C608 C604 1.368 . S
C608 C607 1.523 . S
H609 C584 0.950 . S
H610 C586 0.950 . S
H611 C587 0.949 . S
H612 C589 0.950 . S
H613 C591 0.950 . S
C614 C615 1.349 . S
C614 C616 1.327 . S
C614 H639 0.950 . S
C615 C614 1.349 . S
C615 C631 1.349 . S
C616 C614 1.327 . S
C616 C635 1.429 . S
C616 H640 0.950 . S
C617 C634 1.574 . S
C617 C636 1.368 . S
C617 H641 0.949 . S
H618 C622 0.949 . S
C619 C620 1.349 . S
C619 C621 1.327 . S
C619 H642 0.950 . S
C620 C619 1.349 . S
C620 C632 1.349 . S
C621 C619 1.327 . S
C621 C637 1.429 . S
C621 H643 0.950 . S
C622 H618 0.949 . S
C622 C630 1.574 . S
C622 C638 1.368 . S
H623 C631 0.950 . S
H624 C629 0.950 . S
H625 C630 0.949 . S
H626 C632 0.950 . S
H627 C633 0.950 . S
H628 C634 0.949 . S
C629 H624 0.950 . S
C629 C631 1.327 . S
C629 C635 1.429 . S
C630 C622 1.574 . S
C630 H625 0.949 . S
C630 C636 1.368 . S
C631 C615 1.349 . S
C631 H623 0.950 . S
C631 C629 1.327 . S
C632 C620 1.349 . S
C632 H626 0.950 . S
C632 C633 1.327 . S
C633 H627 0.950 . S
C633 C632 1.327 . S
C633 C637 1.429 . S
C634 C617 1.574 . S
C634 H628 0.949 . S
C634 C638 1.368 . S
C635 C616 1.429 . S
C635 C629 1.429 . S
C635 C636 1.523 . S
C636 C617 1.368 . S
C636 C630 1.368 . S
C636 C635 1.523 . S
C637 C621 1.429 . S
C637 C633 1.429 . S
C637 C638 1.523 . S
C638 C622 1.368 . S
C638 C634 1.368 . S
C638 C637 1.523 . S
H639 C614 0.950 . S
H640 C616 0.950 . S
H641 C617 0.949 . S
H642 C619 0.950 . S
H643 C621 0.950 . S
C644 C645 1.349 . S
C644 C646 1.327 . S
C644 H669 0.950 . S
C645 C644 1.349 . S
C645 C661 1.349 . S
C646 C644 1.327 . S
C646 C665 1.429 . S
C646 H670 0.950 . S
C647 C664 1.574 . S
C647 C666 1.368 . S
C647 H671 0.949 . S
H648 C652 0.949 . S
C649 C650 1.349 . S
C649 C651 1.327 . S
C649 H672 0.950 . S
C650 C649 1.349 . S
C650 C662 1.349 . S
C651 C649 1.327 . S
C651 C667 1.429 . S
C651 H673 0.950 . S
C652 H648 0.949 . S
C652 C660 1.574 . S
C652 C668 1.368 . S
H653 C661 0.950 . S
H654 C659 0.950 . S
H655 C660 0.949 . S
H656 C662 0.950 . S
H657 C663 0.950 . S
H658 C664 0.949 . S
C659 H654 0.950 . S
C659 C661 1.327 . S
C659 C665 1.429 . S
C660 C652 1.574 . S
C660 H655 0.949 . S
C660 C666 1.368 . S
C661 C645 1.349 . S
C661 H653 0.950 . S
C661 C659 1.327 . S
C662 C650 1.349 . S
C662 H656 0.950 . S
C662 C663 1.327 . S
C663 H657 0.950 . S
C663 C662 1.327 . S
C663 C667 1.429 . S
C664 C647 1.574 . S
C664 H658 0.949 . S
C664 C668 1.368 . S
C665 C646 1.429 . S
C665 C659 1.429 . S
C665 C666 1.523 . S
C666 C647 1.368 . S
C666 C660 1.368 . S
C666 C665 1.523 . S
C667 C651 1.429 . S
C667 C663 1.429 . S
C667 C668 1.523 . S
C668 C652 1.368 . S
C668 C664 1.368 . S
C668 C667 1.523 . S
H669 C644 0.950 . S
H670 C646 0.950 . S
H671 C647 0.949 . S
H672 C649 0.950 . S
H673 C651 0.950 . S
C674 C675 1.349 . S
C674 C676 1.327 . S
C674 H699 0.950 . S
C675 C674 1.349 . S
C675 C691 1.349 . S
C676 C674 1.327 . S
C676 C695 1.429 . S
C676 H700 0.950 . S
C677 C694 1.574 . S
C677 C696 1.368 . S
C677 H701 0.949 . S
H678 C682 0.949 . S
C679 C680 1.349 . S
C679 C681 1.327 . S
C679 H702 0.950 . S
C680 C679 1.349 . S
C680 C692 1.349 . S
C681 C679 1.327 . S
C681 C697 1.429 . S
C681 H703 0.950 . S
C682 H678 0.949 . S
C682 C690 1.574 . S
C682 C698 1.368 . S
H683 C691 0.950 . S
H684 C689 0.950 . S
H685 C690 0.949 . S
H686 C692 0.950 . S
H687 C693 0.950 . S
H688 C694 0.949 . S
C689 H684 0.950 . S
C689 C691 1.327 . S
C689 C695 1.429 . S
C690 C682 1.574 . S
C690 H685 0.949 . S
C690 C696 1.368 . S
C691 C675 1.349 . S
C691 H683 0.950 . S
C691 C689 1.327 . S
C692 C680 1.349 . S
C692 H686 0.950 . S
C692 C693 1.327 . S
C693 H687 0.950 . S
C693 C692 1.327 . S
C693 C697 1.429 . S
C694 C677 1.574 . S
C694 H688 0.949 . S
C694 C698 1.368 . S
C695 C676 1.429 . S
C695 C689 1.429 . S
C695 C696 1.523 . S
C696 C677 1.368 . S
C696 C690 1.368 . S
C696 C695 1.523 . S
C697 C681 1.429 . S
C697 C693 1.429 . S
C697 C698 1.523 . S
C698 C682 1.368 . S
C698 C694 1.368 . S
C698 C697 1.523 . S
H699 C674 0.950 . S
H700 C676 0.950 . S
H701 C677 0.949 . S
H702 C679 0.950 . S
H703 C681 0.950 . S
C704 C705 1.349 . S
C704 C706 1.327 . S
C704 H729 0.950 . S
C705 C704 1.349 . S
C705 C721 1.349 . S
C706 C704 1.327 . S
C706 C725 1.429 . S
C706 H730 0.950 . S
C707 C724 1.574 . S
C707 C726 1.368 . S
C707 H731 0.949 . S
H708 C712 0.949 . S
C709 C710 1.349 . S
C709 C711 1.327 . S
C709 H732 0.950 . S
C710 C709 1.349 . S
C710 C722 1.349 . S
C711 C709 1.327 . S
C711 C727 1.429 . S
C711 H733 0.950 . S
C712 H708 0.949 . S
C712 C720 1.574 . S
C712 C728 1.368 . S
H713 C721 0.950 . S
H714 C719 0.950 . S
H715 C720 0.949 . S
H716 C722 0.950 . S
H717 C723 0.950 . S
H718 C724 0.949 . S
C719 H714 0.950 . S
C719 C721 1.327 . S
C719 C725 1.429 . S
C720 C712 1.574 . S
C720 H715 0.949 . S
C720 C726 1.368 . S
C721 C705 1.349 . S
C721 H713 0.950 . S
C721 C719 1.327 . S
C722 C710 1.349 . S
C722 H716 0.950 . S
C722 C723 1.327 . S
C723 H717 0.950 . S
C723 C722 1.327 . S
C723 C727 1.429 . S
C724 C707 1.574 . S
C724 H718 0.949 . S
C724 C728 1.368 . S
C725 C706 1.429 . S
C725 C719 1.429 . S
C725 C726 1.523 . S
C726 C707 1.368 . S
C726 C720 1.368 . S
C726 C725 1.523 . S
C727 C711 1.429 . S
C727 C723 1.429 . S
C727 C728 1.523 . S
C728 C712 1.368 . S
C728 C724 1.368 . S
C728 C727 1.523 . S
H729 C704 0.950 . S
H730 C706 0.950 . S
H731 C707 0.949 . S
H732 C709 0.950 . S
H733 C711 0.950 . S
C734 C735 1.349 . S
C734 C736 1.327 . S
C734 H759 0.950 . S
C735 C734 1.349 . S
C735 C751 1.349 . S
C736 C734 1.327 . S
C736 C755 1.429 . S
C736 H760 0.950 . S
C737 C754 1.574 . S
C737 C756 1.368 . S
C737 H761 0.949 . S
H738 C742 0.949 . S
C739 C740 1.349 . S
C739 C741 1.327 . S
C739 H762 0.950 . S
C740 C739 1.349 . S
C740 C752 1.349 . S
C741 C739 1.327 . S
C741 C757 1.429 . S
C741 H763 0.950 . S
C742 H738 0.949 . S
C742 C750 1.574 . S
C742 C758 1.368 . S
H743 C751 0.950 . S
H744 C749 0.950 . S
H745 C750 0.949 . S
H746 C752 0.950 . S
H747 C753 0.950 . S
H748 C754 0.949 . S
C749 H744 0.950 . S
C749 C751 1.327 . S
C749 C755 1.429 . S
C750 C742 1.574 . S
C750 H745 0.949 . S
C750 C756 1.368 . S
C751 C735 1.349 . S
C751 H743 0.950 . S
C751 C749 1.327 . S
C752 C740 1.349 . S
C752 H746 0.950 . S
C752 C753 1.327 . S
C753 H747 0.950 . S
C753 C752 1.327 . S
C753 C757 1.429 . S
C754 C737 1.574 . S
C754 H748 0.949 . S
C754 C758 1.368 . S
C755 C736 1.429 . S
C755 C749 1.429 . S
C755 C756 1.523 . S
C756 C737 1.368 . S
C756 C750 1.368 . S
C756 C755 1.523 . S
C757 C741 1.429 . S
C757 C753 1.429 . S
C757 C758 1.523 . S
C758 C742 1.368 . S
C758 C754 1.368 . S
C758 C757 1.523 . S
H759 C734 0.950 . S
H760 C736 0.950 . S
H761 C737 0.949 . S
H762 C739 0.950 . S
H763 C741 0.950 . S
C764 C765 1.349 . S
C764 C766 1.327 . S
C764 H789 0.950 . S
C765 C764 1.349 . S
C765 C781 1.349 . S
C766 C764 1.327 . S
C766 C785 1.429 . S
C766 H790 0.950 . S
C767 C784 1.574 . S
C767 C786 1.368 . S
C767 H791 0.949 . S
H768 C772 0.949 . S
C769 C770 1.349 . S
C769 C771 1.327 . S
C769 H792 0.950 . S
C770 C769 1.349 . S
C770 C782 1.349 . S
C771 C769 1.327 . S
C771 C787 1.429 . S
C771 H793 0.950 . S
C772 H768 0.949 . S
C772 C780 1.574 . S
C772 C788 1.368 . S
H773 C781 0.950 . S
H774 C779 0.950 . S
H775 C780 0.949 . S
H776 C782 0.950 . S
H777 C783 0.950 . S
H778 C784 0.949 . S
C779 H774 0.950 . S
C779 C781 1.327 . S
C779 C785 1.429 . S
C780 C772 1.574 . S
C780 H775 0.949 . S
C780 C786 1.368 . S
C781 C765 1.349 . S
C781 H773 0.950 . S
C781 C779 1.327 . S
C782 C770 1.349 . S
C782 H776 0.950 . S
C782 C783 1.327 . S
C783 H777 0.950 . S
C783 C782 1.327 . S
C783 C787 1.429 . S
C784 C767 1.574 . S
C784 H778 0.949 . S
C784 C788 1.368 . S
C785 C766 1.429 . S
C785 C779 1.429 . S
C785 C786 1.523 . S
C786 C767 1.368 . S
C786 C780 1.368 . S
C786 C785 1.523 . S
C787 C771 1.429 . S
C787 C783 1.429 . S
C787 C788 1.523 . S
C788 C772 1.368 . S
C788 C784 1.368 . S
C788 C787 1.523 . S
H789 C764 0.950 . S
H790 C766 0.950 . S
H791 C767 0.949 . S
H792 C769 0.950 . S
H793 C771 0.950 . S
C794 C795 1.349 . S
C794 C796 1.327 . S
C794 H819 0.950 . S
C795 C794 1.349 . S
C795 C811 1.349 . S
C796 C794 1.327 . S
C796 C815 1.429 . S
C796 H820 0.950 . S
C797 C814 1.574 . S
C797 C816 1.368 . S
C797 H821 0.949 . S
H798 C802 0.949 . S
C799 C800 1.349 . S
C799 C801 1.327 . S
C799 H822 0.950 . S
C800 C799 1.349 . S
C800 C812 1.317 1_655 S
C801 C799 1.327 . S
C801 C817 1.429 . S
C801 H823 0.950 . S
C802 H798 0.949 . S
C802 C810 1.574 . S
C802 C818 1.368 . S
H803 C811 0.950 . S
H804 C809 0.950 . S
H805 C810 0.949 . S
H806 C812 0.990 . S
H807 C813 0.950 1_455 S
H808 C814 0.949 . S
C809 H804 0.950 . S
C809 C811 1.327 . S
C809 C815 1.429 . S
C810 C802 1.574 . S
C810 H805 0.949 . S
C810 C816 1.368 . S
C811 C795 1.349 . S
C811 H803 0.950 . S
C811 C809 1.327 . S
C812 C800 1.317 1_455 S
C812 H806 0.990 . S
C812 C813 1.322 1_455 S
C813 H807 0.950 1_655 S
C813 C812 1.322 1_655 S
C813 C817 1.429 . S
C814 C797 1.574 . S
C814 H808 0.949 . S
C814 C818 1.368 . S
C815 C796 1.429 . S
C815 C809 1.429 . S
C815 C816 1.523 . S
C816 C797 1.368 . S
C816 C810 1.368 . S
C816 C815 1.523 . S
C817 C801 1.429 . S
C817 C813 1.429 . S
C817 C818 1.523 . S
C818 C802 1.368 . S
C818 C814 1.368 . S
C818 C817 1.523 . S
H819 C794 0.950 . S
H820 C796 0.950 . S
H821 C797 0.949 . S
H822 C799 0.950 . S
H823 C801 0.950 . S
C824 C825 1.349 . S
C824 C826 1.327 . S
C824 H849 0.950 . S
C825 C824 1.349 . S
C825 C841 1.349 . S
C826 C824 1.327 . S
C826 C845 1.429 . S
C826 H850 0.950 . S
C827 C844 1.574 . S
C827 C846 1.368 . S
C827 H851 0.949 . S
H828 C832 0.949 . S
C829 C830 1.349 . S
C829 C831 1.327 1_545 S
C829 H852 0.950 . S
C830 C829 1.349 . S
C830 C842 1.349 . S
C831 C829 1.327 1_565 S
C831 C847 1.429 . S
C831 H853 0.950 . S
C832 H828 0.949 . S
C832 C840 1.574 . S
C832 C848 1.368 . S
H833 C841 0.950 . S
H834 C839 0.950 . S
H835 C840 0.949 . S
H836 C842 0.950 . S
H837 C843 0.950 . S
H838 C844 0.949 . S
C839 H834 0.950 . S
C839 C841 1.327 . S
C839 C845 1.429 . S
C840 C832 1.574 . S
C840 H835 0.949 . S
C840 C846 1.368 . S
C841 C825 1.349 . S
C841 H833 0.950 . S
C841 C839 1.327 . S
C842 C830 1.349 . S
C842 H836 0.950 . S
C842 C843 1.327 . S
C843 H837 0.950 . S
C843 C842 1.327 . S
C843 C847 1.429 1_545 S
C844 C827 1.574 . S
C844 H838 0.949 . S
C844 C848 1.368 . S
C845 C826 1.429 . S
C845 C839 1.429 . S
C845 C846 1.523 . S
C846 C827 1.368 . S
C846 C840 1.368 . S
C846 C845 1.523 . S
C847 C831 1.429 . S
C847 C843 1.429 1_565 S
C847 C848 1.523 . S
C848 C832 1.368 . S
C848 C844 1.368 . S
C848 C847 1.523 . S
H849 C824 0.950 . S
H850 C826 0.950 . S
H851 C827 0.949 . S
H852 C829 0.950 . S
H853 C831 0.950 . S
C854 C855 1.349 . S
C854 C856 1.327 . S
C854 H879 0.950 . S
C855 C854 1.349 . S
C855 C871 1.349 . S
C856 C854 1.327 . S
C856 C875 1.429 . S
C856 H880 0.950 . S
C857 C874 1.574 . S
C857 C876 1.368 . S
C857 H881 0.949 . S
H858 C862 0.949 . S
C859 C860 1.349 . S
C859 C861 1.327 . S
C859 H882 0.950 . S
C860 C859 1.349 . S
C860 C872 1.349 . S
C861 C859 1.327 . S
C861 C877 1.429 . S
C861 H883 0.950 . S
C862 H858 0.949 . S
C862 C870 1.574 . S
C862 C878 1.368 . S
H863 C871 0.950 . S
H864 C869 0.950 . S
H865 C870 0.949 . S
H866 C872 0.950 . S
H867 C873 0.950 . S
H868 C874 0.949 . S
C869 H864 0.950 . S
C869 C871 1.327 . S
C869 C875 1.429 . S
C870 C862 1.574 . S
C870 H865 0.949 . S
C870 C876 1.368 . S
C871 C855 1.349 . S
C871 H863 0.950 . S
C871 C869 1.327 . S
C872 C860 1.349 . S
C872 H866 0.950 . S
C872 C873 1.327 . S
C873 H867 0.950 . S
C873 C872 1.327 . S
C873 C877 1.429 . S
C874 C857 1.574 . S
C874 H868 0.949 . S
C874 C878 1.368 . S
C875 C856 1.429 . S
C875 C869 1.429 . S
C875 C876 1.523 . S
C876 C857 1.368 . S
C876 C870 1.368 . S
C876 C875 1.523 . S
C877 C861 1.429 . S
C877 C873 1.429 . S
C877 C878 1.523 . S
C878 C862 1.368 . S
C878 C874 1.368 . S
C878 C877 1.523 . S
H879 C854 0.950 . S
H880 C856 0.950 . S
H881 C857 0.949 . S
H882 C859 0.950 . S
H883 C861 0.950 . S
C884 C885 1.349 . S
C884 C886 1.327 . S
C884 H909 0.950 . S
C885 C884 1.349 . S
C885 C901 1.349 . S
C886 C884 1.327 . S
C886 C905 1.429 . S
C886 H910 0.950 . S
C887 C904 1.574 . S
C887 C906 1.368 1_565 S
C887 H911 0.949 . S
H888 C892 0.949 . S
C889 C890 1.349 . S
C889 C891 1.327 . S
C889 H912 0.950 . S
C890 C889 1.349 . S
C890 C902 1.349 . S
C891 C889 1.327 . S
C891 C907 1.429 . S
C891 H913 0.950 . S
C892 H888 0.949 . S
C892 C900 1.574 1_554 S
C892 C908 1.366 1_544 S
H893 C901 0.950 . S
H894 C899 0.950 . S
H895 C900 0.949 . S
H896 C902 0.950 . S
H897 C903 0.950 . S
H898 C904 0.949 . S
C899 H894 0.950 . S
C899 C901 1.327 . S
C899 C905 1.429 . S
C900 C892 1.574 1_556 S
C900 H895 0.949 . S
C900 C906 1.368 . S
C901 C885 1.349 . S
C901 H893 0.950 . S
C901 C899 1.327 . S
C902 C890 1.349 . S
C902 H896 0.950 . S
C902 C903 1.327 . S
C903 H897 0.950 . S
C903 C902 1.327 . S
C903 C907 1.429 . S
C904 C887 1.574 . S
C904 H898 0.949 . S
C904 C908 1.386 . S
C905 C886 1.429 . S
C905 C899 1.429 . S
C905 C906 1.523 . S
C906 C887 1.368 1_545 S
C906 C900 1.368 . S
C906 C905 1.523 . S
C907 C891 1.429 . S
C907 C903 1.429 . S
C907 C908 1.504 1_554 S
C908 C892 1.366 1_566 S
C908 C904 1.386 . S
C908 C907 1.504 1_556 S
H909 C884 0.950 . S
H910 C886 0.950 . S
H911 C887 0.949 . S
H912 C889 0.950 . S
H913 C891 0.950 . S
C914 C915 1.349 . S
C914 C916 1.327 . S
C914 H939 0.950 . S
C915 C914 1.349 . S
C915 C931 1.349 . S
C916 C914 1.327 . S
C916 C935 1.429 . S
C916 H940 0.950 . S
C917 C934 1.574 . S
C917 C936 1.368 . S
C917 H941 0.949 . S
H918 C922 0.949 . S
C919 C920 1.349 . S
C919 C921 1.327 . S
C919 H942 0.950 . S
C920 C919 1.349 . S
C920 C932 1.349 . S
C921 C919 1.327 . S
C921 C937 1.429 . S
C921 H943 0.950 . S
C922 H918 0.949 . S
C922 C930 1.574 . S
C922 C938 1.368 . S
H923 C931 0.950 . S
H924 C929 0.950 . S
H925 C930 0.949 . S
H926 C932 0.950 . S
H927 C933 0.950 . S
H928 C934 0.949 . S
C929 H924 0.950 . S
C929 C931 1.327 . S
C929 C935 1.429 . S
C930 C922 1.574 . S
C930 H925 0.949 . S
C930 C936 1.368 . S
C931 C915 1.349 . S
C931 H923 0.950 . S
C931 C929 1.327 . S
C932 C920 1.349 . S
C932 H926 0.950 . S
C932 C933 1.327 . S
C933 H927 0.950 . S
C933 C932 1.327 . S
C933 C937 1.429 . S
C934 C917 1.574 . S
C934 H928 0.949 . S
C934 C938 1.368 . S
C935 C916 1.429 . S
C935 C929 1.429 . S
C935 C936 1.523 . S
C936 C917 1.368 . S
C936 C930 1.368 . S
C936 C935 1.523 . S
C937 C921 1.429 . S
C937 C933 1.429 . S
C937 C938 1.523 . S
C938 C922 1.368 . S
C938 C934 1.368 . S
C938 C937 1.523 . S
H939 C914 0.950 . S
H940 C916 0.950 . S
H941 C917 0.949 . S
H942 C919 0.950 . S
H943 C921 0.950 . S
C944 C945 1.349 . S
C944 C946 1.327 1_565 S
C944 H969 0.950 . S
C945 C944 1.349 . S
C945 C961 1.349 1_565 S
C946 C944 1.327 1_545 S
C946 C965 1.429 . S
C946 H970 0.950 . S
C947 C964 1.574 . S
C947 C966 1.368 . S
C947 H971 0.949 . S
H948 C952 0.949 . S
C949 C950 1.349 . S
C949 C951 1.327 . S
C949 H972 0.950 . S
C950 C949 1.349 . S
C950 C962 1.349 . S
C951 C949 1.327 . S
C951 C967 1.429 . S
C951 H973 0.950 . S
C952 H948 0.949 . S
C952 C960 1.574 . S
C952 C968 1.368 . S
H953 C961 0.950 . S
H954 C959 0.950 . S
H955 C960 0.949 . S
H956 C962 0.950 . S
H957 C963 0.950 . S
H958 C964 0.949 . S
C959 H954 0.950 . S
C959 C961 1.327 . S
C959 C965 1.429 . S
C960 C952 1.574 . S
C960 H955 0.949 . S
C960 C966 1.368 . S
C961 C945 1.349 1_545 S
C961 H953 0.950 . S
C961 C959 1.327 . S
C962 C950 1.349 . S
C962 H956 0.950 . S
C962 C963 1.327 . S
C963 H957 0.950 . S
C963 C962 1.327 . S
C963 C967 1.429 . S
C964 C947 1.574 . S
C964 H958 0.949 . S
C964 C968 1.368 . S
C965 C946 1.429 . S
C965 C959 1.429 . S
C965 C966 1.523 . S
C966 C947 1.368 . S
C966 C960 1.368 . S
C966 C965 1.523 . S
C967 C951 1.429 . S
C967 C963 1.429 . S
C967 C968 1.523 . S
C968 C952 1.368 . S
C968 C964 1.368 . S
C968 C967 1.523 . S
H969 C944 0.950 . S
H970 C946 0.950 . S
H971 C947 0.949 . S
H972 C949 0.950 . S
H973 C951 0.950 . S
C974 C975 1.349 . S
C974 C976 1.327 . S
C974 H999 0.950 . S
C975 C974 1.349 . S
C975 C991 1.349 . S
C976 C974 1.327 . S
C976 C995 1.429 . S
C976 H1000 0.950 . S
C977 C994 1.574 . S
C977 C996 1.368 . S
C977 H1001 0.949 . S
H978 C982 0.949 . S
C979 C980 1.349 . S
C979 C981 1.327 . S
C979 H1002 0.950 . S
C980 C979 1.349 . S
C980 C992 1.349 . S
C981 C979 1.327 . S
C981 C997 1.429 . S
C981 H1003 0.950 . S
C982 H978 0.949 . S
C982 C990 1.574 . S
C982 C998 1.368 . S
H983 C991 0.950 . S
H984 C989 0.950 . S
H985 C990 0.949 . S
H986 C992 0.950 . S
H987 C993 0.950 . S
H988 C994 0.949 . S
C989 H984 0.950 . S
C989 C991 1.327 . S
C989 C995 1.429 . S
C990 C982 1.574 . S
C990 H985 0.949 . S
C990 C996 1.368 . S
C991 C975 1.349 . S
C991 H983 0.950 . S
C991 C989 1.327 . S
C992 C980 1.349 . S
C992 H986 0.950 . S
C992 C993 1.327 . S
C993 H987 0.950 . S
C993 C992 1.327 . S
C993 C997 1.429 . S
C994 C977 1.574 . S
C994 H988 0.949 . S
C994 C998 1.368 . S
C995 C976 1.429 . S
C995 C989 1.429 . S
C995 C996 1.523 . S
C996 C977 1.368 . S
C996 C990 1.368 . S
C996 C995 1.523 . S
C997 C981 1.429 . S
C997 C993 1.429 . S
C997 C998 1.523 . S
C998 C982 1.368 . S
C998 C994 1.368 . S
C998 C997 1.523 . S
H999 C974 0.950 . S
H1000 C976 0.950 . S
H1001 C977 0.949 . S
H1002 C979 0.950 . S
H1003 C981 0.950 . S
C1004 C1005 1.349 1_545 S
C1004 C1006 1.327 . S
C1004 H1029 0.950 . S
C1005 C1004 1.349 1_565 S
C1005 C1021 1.349 . S
C1006 C1004 1.327 . S
C1006 C1025 1.429 . S
C1006 H1030 0.950 . S
C1007 C1024 1.574 . S
C1007 C1026 1.368 . S
C1007 H1031 0.949 . S
H1008 C1012 0.949 . S
C1009 C1010 1.349 . S
C1009 C1011 1.327 . S
C1009 H1032 0.950 . S
C1010 C1009 1.349 . S
C1010 C1022 1.349 . S
C1011 C1009 1.327 . S
C1011 C1027 1.429 . S
C1011 H1033 0.950 . S
C1012 H1008 0.949 . S
C1012 C1020 1.574 . S
C1012 C1028 1.368 . S
H1013 C1021 0.950 . S
H1014 C1019 0.950 . S
H1015 C1020 0.949 . S
H1016 C1022 0.950 . S
H1017 C1023 0.950 . S
H1018 C1024 0.949 . S
C1019 H1014 0.950 . S
C1019 C1021 1.327 1_545 S
C1019 C1025 1.429 . S
C1020 C1012 1.574 . S
C1020 H1015 0.949 . S
C1020 C1026 1.368 . S
C1021 C1005 1.349 . S
C1021 H1013 0.950 . S
C1021 C1019 1.327 1_565 S
C1022 C1010 1.349 . S
C1022 H1016 0.950 . S
C1022 C1023 1.327 . S
C1023 H1017 0.950 . S
C1023 C1022 1.327 . S
C1023 C1027 1.429 . S
C1024 C1007 1.574 . S
C1024 H1018 0.949 . S
C1024 C1028 1.368 . S
C1025 C1006 1.429 . S
C1025 C1019 1.429 . S
C1025 C1026 1.523 . S
C1026 C1007 1.368 . S
C1026 C1020 1.368 . S
C1026 C1025 1.523 . S
C1027 C1011 1.429 . S
C1027 C1023 1.429 . S
C1027 C1028 1.523 . S
C1028 C1012 1.368 . S
C1028 C1024 1.368 . S
C1028 C1027 1.523 . S
H1029 C1004 0.950 . S
H1030 C1006 0.950 . S
H1031 C1007 0.949 . S
H1032 C1009 0.950 . S
H1033 C1011 0.950 . S
C1034 C1035 1.349 . S
C1034 C1036 1.327 . S
C1034 H1059 0.950 . S
C1035 C1034 1.349 . S
C1035 C1051 1.349 . S
C1036 C1034 1.327 . S
C1036 C1055 1.429 . S
C1036 H1060 0.950 . S
C1037 C1054 1.574 . S
C1037 C1056 1.368 . S
C1037 H1061 0.949 . S
H1038 C1042 0.949 . S
C1039 C1040 1.349 . S
C1039 C1041 1.327 . S
C1039 H1062 0.950 . S
C1040 C1039 1.349 . S
C1040 C1052 1.349 . S
C1041 C1039 1.327 . S
C1041 C1057 1.429 . S
C1041 H1063 0.950 . S
C1042 H1038 0.949 . S
C1042 C1050 1.574 . S
C1042 C1058 1.368 . S
H1043 C1051 0.950 . S
H1044 C1049 0.950 . S
H1045 C1050 0.949 . S
H1046 C1052 0.950 . S
H1047 C1053 0.950 . S
H1048 C1054 0.949 . S
C1049 H1044 0.950 . S
C1049 C1051 1.327 . S
C1049 C1055 1.429 . S
C1050 C1042 1.574 . S
C1050 H1045 0.949 . S
C1050 C1056 1.368 . S
C1051 C1035 1.349 . S
C1051 H1043 0.950 . S
C1051 C1049 1.327 . S
C1052 C1040 1.349 . S
C1052 H1046 0.950 . S
C1052 C1053 1.327 . S
C1053 H1047 0.950 . S
C1053 C1052 1.327 . S
C1053 C1057 1.429 . S
C1054 C1037 1.574 . S
C1054 H1048 0.949 . S
C1054 C1058 1.368 . S
C1055 C1036 1.429 . S
C1055 C1049 1.429 . S
C1055 C1056 1.523 . S
C1056 C1037 1.368 . S
C1056 C1050 1.368 . S
C1056 C1055 1.523 . S
C1057 C1041 1.429 . S
C1057 C1053 1.429 . S
C1057 C1058 1.523 . S
C1058 C1042 1.368 . S
C1058 C1054 1.368 . S
C1058 C1057 1.523 . S
H1059 C1034 0.950 . S
H1060 C1036 0.950 . S
H1061 C1037 0.949 . S
H1062 C1039 0.950 . S
H1063 C1041 0.950 . S
C1064 C1065 1.349 . S
C1064 C1066 1.327 . S
C1064 H1089 0.950 . S
C1065 C1064 1.349 . S
C1065 C1081 1.349 . S
C1066 C1064 1.327 . S
C1066 C1085 1.429 . S
C1066 H1090 0.950 . S
C1067 C1084 1.574 . S
C1067 C1086 1.368 . S
C1067 H1091 0.949 . S
H1068 C1072 0.949 . S
C1069 C1070 1.349 . S
C1069 C1071 1.327 . S
C1069 H1092 0.950 . S
C1070 C1069 1.349 . S
C1070 C1082 1.349 . S
C1071 C1069 1.327 . S
C1071 C1087 1.429 . S
C1071 H1093 0.950 . S
C1072 H1068 0.949 . S
C1072 C1080 1.574 . S
C1072 C1088 1.368 . S
H1073 C1081 0.950 . S
H1074 C1079 0.950 . S
H1075 C1080 0.949 . S
H1076 C1082 0.950 . S
H1077 C1083 0.950 . S
H1078 C1084 0.949 . S
C1079 H1074 0.950 . S
C1079 C1081 1.327 . S
C1079 C1085 1.429 . S
C1080 C1072 1.574 . S
C1080 H1075 0.949 . S
C1080 C1086 1.368 . S
C1081 C1065 1.349 . S
C1081 H1073 0.950 . S
C1081 C1079 1.327 . S
C1082 C1070 1.349 . S
C1082 H1076 0.950 . S
C1082 C1083 1.327 . S
C1083 H1077 0.950 . S
C1083 C1082 1.327 . S
C1083 C1087 1.429 . S
C1084 C1067 1.574 . S
C1084 H1078 0.949 . S
C1084 C1088 1.368 . S
C1085 C1066 1.429 . S
C1085 C1079 1.429 . S
C1085 C1086 1.523 . S
C1086 C1067 1.368 . S
C1086 C1080 1.368 . S
C1086 C1085 1.523 . S
C1087 C1071 1.429 . S
C1087 C1083 1.429 . S
C1087 C1088 1.523 . S
C1088 C1072 1.368 . S
C1088 C1084 1.368 . S
C1088 C1087 1.523 . S
H1089 C1064 0.950 . S
H1090 C1066 0.950 . S
H1091 C1067 0.949 . S
H1092 C1069 0.950 . S
H1093 C1071 0.950 . S
C1094 C1095 1.349 . S
C1094 C1096 1.327 . S
C1094 H1119 0.950 . S
C1095 C1094 1.349 . S
C1095 C1111 1.349 . S
C1096 C1094 1.327 . S
C1096 C1115 1.429 . S
C1096 H1120 0.950 . S
C1097 C1114 1.574 . S
C1097 C1116 1.368 . S
C1097 H1121 0.949 . S
H1098 C1102 0.949 . S
C1099 C1100 1.349 . S
C1099 C1101 1.327 . S
C1099 H1122 0.950 . S
C1100 C1099 1.349 . S
C1100 C1112 1.349 . S
C1101 C1099 1.327 . S
C1101 C1117 1.429 . S
C1101 H1123 0.950 . S
C1102 H1098 0.949 . S
C1102 C1110 1.574 . S
C1102 C1118 1.368 . S
H1103 C1111 0.950 . S
H1104 C1109 0.950 . S
H1105 C1110 0.949 . S
H1106 C1112 0.950 . S
H1107 C1113 0.950 . S
H1108 C1114 0.949 . S
C1109 H1104 0.950 . S
C1109 C1111 1.327 . S
C1109 C1115 1.429 . S
C1110 C1102 1.574 . S
C1110 H1105 0.949 . S
C1110 C1116 1.368 . S
C1111 C1095 1.349 . S
C1111 H1103 0.950 . S
C1111 C1109 1.327 . S
C1112 C1100 1.349 . S
C1112 H1106 0.950 . S
C1112 C1113 1.327 . S
C1113 H1107 0.950 . S
C1113 C1112 1.327 . S
C1113 C1117 1.429 . S
C1114 C1097 1.574 . S
C1114 H1108 0.949 . S
C1114 C1118 1.368 . S
C1115 C1096 1.429 . S
C1115 C1109 1.429 . S
C1115 C1116 1.523 . S
C1116 C1097 1.368 . S
C1116 C1110 1.368 . S
C1116 C1115 1.523 . S
C1117 C1101 1.429 . S
C1117 C1113 1.429 . S
C1117 C1118 1.523 . S
C1118 C1102 1.368 . S
C1118 C1114 1.368 . S
C1118 C1117 1.523 . S
H1119 C1094 0.950 . S
H1120 C1096 0.950 . S
H1121 C1097 0.949 . S
H1122 C1099 0.950 . S
H1123 C1101 0.950 . S
C1124 C1125 1.349 . S
C1124 C1126 1.327 . S
C1124 H1149 0.950 . S
C1125 C1124 1.349 . S
C1125 C1141 1.349 . S
C1126 C1124 1.327 . S
C1126 C1145 1.429 . S
C1126 H1150 0.950 . S
C1127 C1144 1.574 . S
C1127 C1146 1.368 . S
C1127 H1151 0.949 . S
H1128 C1132 0.949 . S
C1129 C1130 1.349 . S
C1129 C1131 1.327 . S
C1129 H1152 0.950 . S
C1130 C1129 1.349 . S
C1130 C1142 1.349 . S
C1131 C1129 1.327 . S
C1131 C1147 1.429 . S
C1131 H1153 0.950 . S
C1132 H1128 0.949 . S
C1132 C1140 1.574 . S
C1132 C1148 1.368 . S
H1133 C1141 0.950 . S
H1134 C1139 0.950 . S
H1135 C1140 0.949 . S
H1136 C1142 0.950 . S
H1137 C1143 0.950 . S
H1138 C1144 0.949 . S
C1139 H1134 0.950 . S
C1139 C1141 1.327 . S
C1139 C1145 1.429 . S
C1140 C1132 1.574 . S
C1140 H1135 0.949 . S
C1140 C1146 1.368 . S
C1141 C1125 1.349 . S
C1141 H1133 0.950 . S
C1141 C1139 1.327 . S
C1142 C1130 1.349 . S
C1142 H1136 0.950 . S
C1142 C1143 1.327 . S
C1143 H1137 0.950 . S
C1143 C1142 1.327 . S
C1143 C1147 1.429 . S
C1144 C1127 1.574 . S
C1144 H1138 0.949 . S
C1144 C1148 1.368 . S
C1145 C1126 1.429 . S
C1145 C1139 1.429 . S
C1145 C1146 1.523 . S
C1146 C1127 1.368 . S
C1146 C1140 1.368 . S
C1146 C1145 1.523 . S
C1147 C1131 1.429 . S
C1147 C1143 1.429 . S
C1147 C1148 1.523 . S
C1148 C1132 1.368 . S
C1148 C1144 1.368 . S
C1148 C1147 1.523 . S
H1149 C1124 0.950 . S
H1150 C1126 0.950 . S
H1151 C1127 0.949 . S
H1152 C1129 0.950 . S
H1153 C1131 0.950 . S
C1154 C1155 1.349 . S
C1154 C1156 1.327 . S
C1154 H1179 0.950 . S
C1155 C1154 1.349 . S
C1155 C1171 1.349 . S
C1156 C1154 1.327 . S
C1156 C1175 1.429 . S
C1156 H1180 0.950 . S
C1157 C1174 1.574 . S
C1157 C1176 1.368 . S
C1157 H1181 0.949 . S
H1158 C1162 0.949 . S
C1159 C1160 1.349 . S
C1159 C1161 1.327 . S
C1159 H1182 0.950 . S
C1160 C1159 1.349 . S
C1160 C1172 1.349 . S
C1161 C1159 1.327 . S
C1161 C1177 1.429 . S
C1161 H1183 0.950 . S
C1162 H1158 0.949 . S
C1162 C1170 1.574 . S
C1162 C1178 1.368 . S
H1163 C1171 0.950 . S
H1164 C1169 0.950 . S
H1165 C1170 0.949 . S
H1166 C1172 0.950 . S
H1167 C1173 0.950 . S
H1168 C1174 0.949 . S
C1169 H1164 0.950 . S
C1169 C1171 1.327 . S
C1169 C1175 1.429 . S
C1170 C1162 1.574 . S
C1170 H1165 0.949 . S
C1170 C1176 1.368 . S
C1171 C1155 1.349 . S
C1171 H1163 0.950 . S
C1171 C1169 1.327 . S
C1172 C1160 1.349 . S
C1172 H1166 0.950 . S
C1172 C1173 1.327 . S
C1173 H1167 0.950 . S
C1173 C1172 1.327 . S
C1173 C1177 1.429 . S
C1174 C1157 1.574 . S
C1174 H1168 0.949 . S
C1174 C1178 1.368 . S
C1175 C1156 1.429 . S
C1175 C1169 1.429 . S
C1175 C1176 1.523 . S
C1176 C1157 1.368 . S
C1176 C1170 1.368 . S
C1176 C1175 1.523 . S
C1177 C1161 1.429 . S
C1177 C1173 1.429 . S
C1177 C1178 1.523 . S
C1178 C1162 1.368 . S
C1178 C1174 1.368 . S
C1178 C1177 1.523 . S
H1179 C1154 0.950 . S
H1180 C1156 0.950 . S
H1181 C1157 0.949 . S
H1182 C1159 0.950 . S
H1183 C1161 0.950 . S
C1184 C1185 1.349 . S
C1184 C1186 1.327 . S
C1184 H1209 0.950 . S
C1185 C1184 1.349 . S
C1185 C1201 1.349 . S
C1186 C1184 1.327 . S
C1186 C1205 1.429 . S
C1186 H1210 0.950 . S
C1187 C1204 1.574 . S
C1187 C1206 1.368 . S
C1187 H1211 0.949 . S
H1188 C1192 0.949 . S
C1189 C1190 1.349 . S
C1189 C1191 1.327 . S
C1189 H1212 0.950 . S
C1190 C1189 1.349 . S
C1190 C1202 1.349 . S
C1191 C1189 1.327 . S
C1191 C1207 1.429 . S
C1191 H1213 0.950 . S
C1192 H1188 0.949 . S
C1192 C1200 1.574 . S
C1192 C1208 1.368 . S
H1193 C1201 0.950 . S
H1194 C1199 0.950 . S
H1195 C1200 0.949 . S
H1196 C1202 0.950 . S
H1197 C1203 0.950 . S
H1198 C1204 0.949 . S
C1199 H1194 0.950 . S
C1199 C1201 1.327 . S
C1199 C1205 1.429 . S
C1200 C1192 1.574 . S
C1200 H1195 0.949 . S
C1200 C1206 1.368 . S
C1201 C1185 1.349 . S
C1201 H1193 0.950 . S
C1201 C1199 1.327 . S
C1202 C1190 1.349 . S
C1202 H1196 0.950 . S
C1202 C1203 1.327 . S
C1203 H1197 0.950 . S
C1203 C1202 1.327 . S
C1203 C1207 1.429 . S
C1204 C1187 1.574 . S
C1204 H1198 0.949 . S
C1204 C1208 1.368 . S
C1205 C1186 1.429 . S
C1205 C1199 1.429 . S
C1205 C1206 1.523 . S
C1206 C1187 1.368 . S
C1206 C1200 1.368 . S
C1206 C1205 1.523 . S
C1207 C1191 1.429 . S
C1207 C1203 1.429 . S
C1207 C1208 1.523 . S
C1208 C1192 1.368 . S
C1208 C1204 1.368 . S
C1208 C1207 1.523 . S
H1209 C1184 0.950 . S
H1210 C1186 0.950 . S
H1211 C1187 0.949 . S
H1212 C1189 0.950 . S
H1213 C1191 0.950 . S
C1214 C1215 1.349 . S
C1214 C1216 1.327 . S
C1214 H1239 0.950 . S
C1215 C1214 1.349 . S
C1215 C1231 1.349 . S
C1216 C1214 1.327 . S
C1216 C1235 1.429 . S
C1216 H1240 0.950 . S
C1217 C1234 1.574 1_455 S
C1217 C1236 1.368 . S
C1217 H1241 0.949 . S
H1218 C1222 0.949 . S
C1219 C1220 1.349 . S
C1219 C1221 1.327 . S
C1219 H1242 0.950 . S
C1220 C1219 1.349 . S
C1220 C1232 1.349 . S
C1221 C1219 1.327 . S
C1221 C1237 1.429 . S
C1221 H1243 0.950 . S
C1222 H1218 0.949 . S
C1222 C1230 1.596 . S
C1222 C1238 1.368 . S
H1223 C1231 0.950 . S
H1224 C1229 0.950 . S
H1225 C1230 0.951 1_455 S
H1226 C1232 0.950 . S
H1227 C1233 0.950 . S
H1228 C1234 0.949 . S
C1229 H1224 0.950 . S
C1229 C1231 1.327 . S
C1229 C1235 1.429 . S
C1230 C1222 1.596 . S
C1230 H1225 0.951 1_655 S
C1230 C1236 1.345 1_655 S
C1231 C1215 1.349 . S
C1231 H1223 0.950 . S
C1231 C1229 1.327 . S
C1232 C1220 1.349 . S
C1232 H1226 0.950 . S
C1232 C1233 1.327 . S
C1233 H1227 0.950 . S
C1233 C1232 1.327 . S
C1233 C1237 1.429 . S
C1234 C1217 1.574 1_655 S
C1234 H1228 0.949 . S
C1234 C1238 1.368 . S
C1235 C1216 1.429 . S
C1235 C1229 1.429 . S
C1235 C1236 1.523 . S
C1236 C1217 1.368 . S
C1236 C1230 1.345 1_455 S
C1236 C1235 1.523 . S
C1237 C1221 1.429 . S
C1237 C1233 1.429 . S
C1237 C1238 1.523 . S
C1238 C1222 1.368 . S
C1238 C1234 1.368 . S
C1238 C1237 1.523 . S
H1239 C1214 0.950 . S
H1240 C1216 0.950 . S
H1241 C1217 0.949 . S
H1242 C1219 0.950 . S
H1243 C1221 0.950 . S
C1244 C1245 1.349 . S
C1244 C1246 1.327 . S
C1244 H1269 0.950 . S
C1245 C1244 1.349 . S
C1245 C1261 1.349 . S
C1246 C1244 1.327 . S
C1246 C1265 1.429 . S
C1246 H1270 0.950 . S
C1247 C1264 1.574 . S
C1247 C1266 1.368 . S
C1247 H1271 0.949 . S
H1248 C1252 0.949 . S
C1249 C1250 1.349 . S
C1249 C1251 1.327 . S
C1249 H1272 0.950 . S
C1250 C1249 1.349 . S
C1250 C1262 1.349 . S
C1251 C1249 1.327 . S
C1251 C1267 1.429 . S
C1251 H1273 0.950 . S
C1252 H1248 0.949 . S
C1252 C1260 1.574 . S
C1252 C1268 1.368 . S
H1253 C1261 0.950 . S
H1254 C1259 0.950 . S
H1255 C1260 0.949 . S
H1256 C1262 0.950 . S
H1257 C1263 0.950 . S
H1258 C1264 0.949 . S
C1259 H1254 0.950 . S
C1259 C1261 1.327 . S
C1259 C1265 1.429 . S
C1260 C1252 1.574 . S
C1260 H1255 0.949 . S
C1260 C1266 1.368 . S
C1261 C1245 1.349 . S
C1261 H1253 0.950 . S
C1261 C1259 1.327 . S
C1262 C1250 1.349 . S
C1262 H1256 0.950 . S
C1262 C1263 1.327 . S
C1263 H1257 0.950 . S
C1263 C1262 1.327 . S
C1263 C1267 1.429 . S
C1264 C1247 1.574 . S
C1264 H1258 0.949 . S
C1264 C1268 1.368 . S
C1265 C1246 1.429 . S
C1265 C1259 1.429 . S
C1265 C1266 1.523 . S
C1266 C1247 1.368 . S
C1266 C1260 1.368 . S
C1266 C1265 1.523 . S
C1267 C1251 1.429 . S
C1267 C1263 1.429 . S
C1267 C1268 1.523 . S
C1268 C1252 1.368 . S
C1268 C1264 1.368 . S
C1268 C1267 1.523 . S
H1269 C1244 0.950 . S
H1270 C1246 0.950 . S
H1271 C1247 0.949 . S
H1272 C1249 0.950 . S
H1273 C1251 0.950 . S
C1274 C1275 1.349 . S
C1274 C1276 1.327 . S
C1274 H1299 0.950 . S
C1275 C1274 1.349 . S
C1275 C1291 1.349 . S
C1276 C1274 1.327 . S
C1276 C1295 1.429 . S
C1276 H1300 0.950 . S
C1277 C1294 1.574 . S
C1277 C1296 1.368 . S
C1277 H1301 0.949 . S
H1278 C1282 0.949 . S
C1279 C1280 1.349 . S
C1279 C1281 1.327 . S
C1279 H1302 0.950 . S
C1280 C1279 1.349 . S
C1280 C1292 1.349 . S
C1281 C1279 1.327 . S
C1281 C1297 1.429 . S
C1281 H1303 0.950 . S
C1282 H1278 0.949 . S
C1282 C1290 1.574 1_455 S
C1282 C1298 1.368 . S
H1283 C1291 0.950 . S
H1284 C1289 0.950 . S
H1285 C1290 0.949 . S
H1286 C1292 0.950 . S
H1287 C1293 0.950 . S
H1288 C1294 0.949 . S
C1289 H1284 0.950 . S
C1289 C1291 1.327 . S
C1289 C1295 1.429 . S
C1290 C1282 1.574 1_655 S
C1290 H1285 0.949 . S
C1290 C1296 1.368 . S
C1291 C1275 1.349 . S
C1291 H1283 0.950 . S
C1291 C1289 1.327 . S
C1292 C1280 1.349 . S
C1292 H1286 0.950 . S
C1292 C1293 1.327 . S
C1293 H1287 0.950 . S
C1293 C1292 1.327 . S
C1293 C1297 1.429 . S
C1294 C1277 1.574 . S
C1294 H1288 0.949 . S
C1294 C1298 1.368 1_655 S
C1295 C1276 1.429 . S
C1295 C1289 1.429 . S
C1295 C1296 1.523 . S
C1296 C1277 1.368 . S
C1296 C1290 1.368 . S
C1296 C1295 1.523 . S
C1297 C1281 1.429 . S
C1297 C1293 1.429 . S
C1297 C1298 1.523 . S
C1298 C1282 1.368 . S
C1298 C1294 1.368 1_455 S
C1298 C1297 1.523 . S
H1299 C1274 0.950 . S
H1300 C1276 0.950 . S
H1301 C1277 0.949 . S
H1302 C1279 0.950 . S
H1303 C1281 0.950 . S
C1304 C1305 1.349 . S
C1304 C1306 1.327 . S
C1304 H1329 0.950 . S
C1305 C1304 1.349 . S
C1305 C1321 1.349 . S
C1306 C1304 1.327 . S
C1306 C1325 1.429 . S
C1306 H1330 0.950 . S
C1307 C1324 1.574 . S
C1307 C1326 1.368 . S
C1307 H1331 0.949 . S
H1308 C1312 0.949 . S
C1309 C1310 1.349 . S
C1309 C1311 1.327 . S
C1309 H1332 0.950 . S
C1310 C1309 1.349 . S
C1310 C1322 1.349 . S
C1311 C1309 1.327 . S
C1311 C1327 1.429 . S
C1311 H1333 0.950 . S
C1312 H1308 0.949 . S
C1312 C1320 1.574 . S
C1312 C1328 1.368 . S
H1313 C1321 0.950 . S
H1314 C1319 0.950 . S
H1315 C1320 0.949 . S
H1316 C1322 0.950 . S
H1317 C1323 0.950 . S
H1318 C1324 0.949 . S
C1319 H1314 0.950 . S
C1319 C1321 1.327 . S
C1319 C1325 1.429 . S
C1320 C1312 1.574 . S
C1320 H1315 0.949 . S
C1320 C1326 1.368 . S
C1321 C1305 1.349 . S
C1321 H1313 0.950 . S
C1321 C1319 1.327 . S
C1322 C1310 1.349 . S
C1322 H1316 0.950 . S
C1322 C1323 1.327 . S
C1323 H1317 0.950 . S
C1323 C1322 1.327 . S
C1323 C1327 1.429 . S
C1324 C1307 1.574 . S
C1324 H1318 0.949 . S
C1324 C1328 1.368 . S
C1325 C1306 1.429 . S
C1325 C1319 1.429 . S
C1325 C1326 1.523 . S
C1326 C1307 1.368 . S
C1326 C1320 1.368 . S
C1326 C1325 1.523 . S
C1327 C1311 1.429 . S
C1327 C1323 1.429 . S
C1327 C1328 1.523 . S
C1328 C1312 1.368 . S
C1328 C1324 1.368 . S
C1328 C1327 1.523 . S
H1329 C1304 0.950 . S
H1330 C1306 0.950 . S
H1331 C1307 0.949 . S
H1332 C1309 0.950 . S
H1333 C1311 0.950 . S
C1334 C1335 1.349 . S
C1334 C1336 1.327 . S
C1334 H1359 0.950 . S
C1335 C1334 1.349 . S
C1335 C1351 1.349 . S
C1336 C1334 1.327 . S
C1336 C1355 1.429 . S
C1336 H1360 0.950 . S
C1337 C1354 1.574 . S
C1337 C1356 1.368 . S
C1337 H1361 0.949 . S
H1338 C1342 0.927 1_556 S
C1339 C1340 1.364 . S
C1339 C1341 1.317 1_556 S
C1339 H1362 0.945 1_556 S
C1340 C1339 1.364 . S
C1340 C1352 1.349 . S
C1341 C1339 1.317 1_554 S
C1341 C1357 1.429 . S
C1341 H1363 0.950 . S
C1342 H1338 0.927 1_554 S
C1342 C1350 1.574 . S
C1342 C1358 1.368 . S
H1343 C1351 0.950 . S
H1344 C1349 0.950 . S
H1345 C1350 0.949 . S
H1346 C1352 0.950 . S
H1347 C1353 0.950 . S
H1348 C1354 0.949 . S
C1349 H1344 0.950 . S
C1349 C1351 1.327 . S
C1349 C1355 1.429 . S
C1350 C1342 1.574 . S
C1350 H1345 0.949 . S
C1350 C1356 1.368 . S
C1351 C1335 1.349 . S
C1351 H1343 0.950 . S
C1351 C1349 1.327 . S
C1352 C1340 1.349 . S
C1352 H1346 0.950 . S
C1352 C1353 1.327 . S
C1353 H1347 0.950 . S
C1353 C1352 1.327 . S
C1353 C1357 1.429 1_556 S
C1354 C1337 1.574 . S
C1354 H1348 0.949 . S
C1354 C1358 1.368 . S
C1355 C1336 1.429 . S
C1355 C1349 1.429 . S
C1355 C1356 1.523 . S
C1356 C1337 1.368 . S
C1356 C1350 1.368 . S
C1356 C1355 1.523 . S
C1357 C1341 1.429 . S
C1357 C1353 1.429 1_554 S
C1357 C1358 1.523 . S
C1358 C1342 1.368 . S
C1358 C1354 1.368 . S
C1358 C1357 1.523 . S
H1359 C1334 0.950 . S
H1360 C1336 0.950 . S
H1361 C1337 0.949 . S
H1362 C1339 0.945 1_554 S
H1363 C1341 0.950 . S
C1364 C1365 1.349 . S
C1364 C1366 1.327 . S
C1364 H1389 0.950 . S
C1365 C1364 1.349 . S
C1365 C1381 1.349 . S
C1366 C1364 1.327 . S
C1366 C1385 1.429 . S
C1366 H1390 0.950 . S
C1367 C1384 1.574 . S
C1367 C1386 1.368 . S
C1367 H1391 0.949 . S
H1368 C1372 0.949 . S
C1369 C1370 1.349 . S
C1369 C1371 1.327 . S
C1369 H1392 0.950 . S
C1370 C1369 1.349 . S
C1370 C1382 1.349 . S
C1371 C1369 1.327 . S
C1371 C1387 1.429 . S
C1371 H1393 0.950 . S
C1372 H1368 0.949 . S
C1372 C1380 1.574 . S
C1372 C1388 1.368 . S
H1373 C1381 0.950 . S
H1374 C1379 0.950 . S
H1375 C1380 0.949 . S
H1376 C1382 0.950 . S
H1377 C1383 0.950 . S
H1378 C1384 0.949 . S
C1379 H1374 0.950 . S
C1379 C1381 1.327 . S
C1379 C1385 1.429 . S
C1380 C1372 1.574 . S
C1380 H1375 0.949 . S
C1380 C1386 1.368 . S
C1381 C1365 1.349 . S
C1381 H1373 0.950 . S
C1381 C1379 1.327 . S
C1382 C1370 1.349 . S
C1382 H1376 0.950 . S
C1382 C1383 1.327 . S
C1383 H1377 0.950 . S
C1383 C1382 1.327 . S
C1383 C1387 1.429 . S
C1384 C1367 1.574 . S
C1384 H1378 0.949 . S
C1384 C1388 1.368 . S
C1385 C1366 1.429 . S
C1385 C1379 1.429 . S
C1385 C1386 1.523 . S
C1386 C1367 1.368 . S
C1386 C1380 1.368 . S
C1386 C1385 1.523 . S
C1387 C1371 1.429 . S
C1387 C1383 1.429 . S
C1387 C1388 1.523 . S
C1388 C1372 1.368 . S
C1388 C1384 1.368 . S
C1388 C1387 1.523 . S
H1389 C1364 0.950 . S
H1390 C1366 0.950 . S
H1391 C1367 0.949 . S
H1392 C1369 0.950 . S
H1393 C1371 0.950 . S
C1394 C1395 1.349 . S
C1394 C1396 1.327 . S
C1394 H1419 0.950 . S
C1395 C1394 1.349 . S
C1395 C1411 1.349 . S
C1396 C1394 1.327 . S
C1396 C1415 1.429 . S
C1396 H1420 0.950 . S
C1397 C1414 1.574 . S
C1397 C1416 1.368 . S
C1397 H1421 0.949 . S
H1398 C1402 0.949 . S
C1399 C1400 1.349 . S
C1399 C1401 1.327 1_556 S
C1399 H1422 0.950 . S
C1400 C1399 1.349 . S
C1400 C1412 1.349 1_556 S
C1401 C1399 1.327 1_554 S
C1401 C1417 1.429 . S
C1401 H1423 0.950 . S
C1402 H1398 0.949 . S
C1402 C1410 1.574 . S
C1402 C1418 1.368 . S
H1403 C1411 0.950 . S
H1404 C1409 0.950 . S
H1405 C1410 0.949 . S
H1406 C1412 0.950 . S
H1407 C1413 0.950 . S
H1408 C1414 0.949 . S
C1409 H1404 0.950 . S
C1409 C1411 1.327 . S
C1409 C1415 1.429 . S
C1410 C1402 1.574 . S
C1410 H1405 0.949 . S
C1410 C1416 1.368 . S
C1411 C1395 1.349 . S
C1411 H1403 0.950 . S
C1411 C1409 1.327 . S
C1412 C1400 1.349 1_554 S
C1412 H1406 0.950 . S
C1412 C1413 1.327 . S
C1413 H1407 0.950 . S
C1413 C1412 1.327 . S
C1413 C1417 1.429 . S
C1414 C1397 1.574 . S
C1414 H1408 0.949 . S
C1414 C1418 1.368 . S
C1415 C1396 1.429 . S
C1415 C1409 1.429 . S
C1415 C1416 1.523 . S
C1416 C1397 1.368 . S
C1416 C1410 1.368 . S
C1416 C1415 1.523 . S
C1417 C1401 1.429 . S
C1417 C1413 1.429 . S
C1417 C1418 1.523 . S
C1418 C1402 1.368 . S
C1418 C1414 1.368 . S
C1418 C1417 1.523 . S
H1419 C1394 0.950 . S
H1420 C1396 0.950 . S
H1421 C1397 0.949 . S
H1422 C1399 0.950 . S
H1423 C1401 0.950 . S
C1424 C1425 1.349 . S
C1424 C1426 1.327 . S
C1424 H1449 0.950 . S
C1425 C1424 1.349 . S
C1425 C1441 1.349 . S
C1426 C1424 1.327 . S
C1426 C1445 1.429 . S
C1426 H1450 0.950 . S
C1427 C1444 1.574 . S
C1427 C1446 1.368 . S
C1427 H1451 0.949 . S
H1428 C1432 0.949 . S
C1429 C1430 1.349 . S
C1429 C1431 1.327 . S
C1429 H1452 0.950 . S
C1430 C1429 1.349 . S
C1430 C1442 1.349 . S
C1431 C1429 1.327 . S
C1431 C1447 1.429 . S
C1431 H1453 0.950 . S
C1432 H1428 0.949 . S
C1432 C1440 1.574 . S
C1432 C1448 1.368 . S
H1433 C1441 0.950 . S
H1434 C1439 0.950 . S
H1435 C1440 0.949 . S
H1436 C1442 0.950 . S
H1437 C1443 0.950 . S
H1438 C1444 0.949 . S
C1439 H1434 0.950 . S
C1439 C1441 1.327 . S
C1439 C1445 1.429 . S
C1440 C1432 1.574 . S
C1440 H1435 0.949 . S
C1440 C1446 1.368 . S
C1441 C1425 1.349 . S
C1441 H1433 0.950 . S
C1441 C1439 1.327 . S
C1442 C1430 1.349 . S
C1442 H1436 0.950 . S
C1442 C1443 1.327 . S
C1443 H1437 0.950 . S
C1443 C1442 1.327 . S
C1443 C1447 1.429 . S
C1444 C1427 1.574 . S
C1444 H1438 0.949 . S
C1444 C1448 1.368 . S
C1445 C1426 1.429 . S
C1445 C1439 1.429 . S
C1445 C1446 1.523 . S
C1446 C1427 1.368 . S
C1446 C1440 1.368 . S
C1446 C1445 1.523 . S
C1447 C1431 1.429 . S
C1447 C1443 1.429 . S
C1447 C1448 1.523 . S
C1448 C1432 1.368 . S
C1448 C1444 1.368 . S
C1448 C1447 1.523 . S
H1449 C1424 0.950 . S
H1450 C1426 0.950 . S
H1451 C1427 0.949 . S
H1452 C1429 0.950 . S
H1453 C1431 0.950 . S
C1454 C1455 1.349 . S
C1454 C1456 1.327 . S
C1454 H1479 0.950 . S
C1455 C1454 1.349 . S
C1455 C1471 1.349 . S
C1456 C1454 1.327 . S
C1456 C1475 1.429 . S
C1456 H1480 0.950 . S
C1457 C1474 1.574 . S
C1457 C1476 1.368 . S
C1457 H1481 0.949 . S
H1458 C1462 0.949 . S
C1459 C1460 1.349 . S
C1459 C1461 1.327 . S
C1459 H1482 0.950 . S
C1460 C1459 1.349 . S
C1460 C1472 1.349 . S
C1461 C1459 1.327 . S
C1461 C1477 1.429 . S
C1461 H1483 0.950 . S
C1462 H1458 0.949 . S
C1462 C1470 1.574 . S
C1462 C1478 1.368 . S
H1463 C1471 0.950 . S
H1464 C1469 0.950 1_554 S
H1465 C1470 0.949 . S
H1466 C1472 0.950 . S
H1467 C1473 0.950 . S
H1468 C1474 0.949 . S
C1469 H1464 0.950 1_556 S
C1469 C1471 1.327 . S
C1469 C1475 1.429 . S
C1470 C1462 1.574 . S
C1470 H1465 0.949 . S
C1470 C1476 1.368 . S
C1471 C1455 1.349 . S
C1471 H1463 0.950 . S
C1471 C1469 1.327 . S
C1472 C1460 1.349 . S
C1472 H1466 0.950 . S
C1472 C1473 1.327 . S
C1473 H1467 0.950 . S
C1473 C1472 1.327 . S
C1473 C1477 1.429 . S
C1474 C1457 1.574 . S
C1474 H1468 0.949 . S
C1474 C1478 1.368 . S
C1475 C1456 1.429 . S
C1475 C1469 1.429 . S
C1475 C1476 1.523 1_556 S
C1476 C1457 1.368 . S
C1476 C1470 1.368 . S
C1476 C1475 1.523 1_554 S
C1477 C1461 1.429 . S
C1477 C1473 1.429 . S
C1477 C1478 1.523 . S
C1478 C1462 1.368 . S
C1478 C1474 1.368 . S
C1478 C1477 1.523 . S
H1479 C1454 0.950 . S
H1480 C1456 0.950 . S
H1481 C1457 0.949 . S
H1482 C1459 0.950 . S
H1483 C1461 0.950 . S
C1484 C1485 1.349 . S
C1484 C1486 1.327 . S
C1484 H1509 0.950 . S
C1485 C1484 1.349 . S
C1485 C1501 1.349 . S
C1486 C1484 1.327 . S
C1486 C1505 1.429 . S
C1486 H1510 0.950 . S
C1487 C1504 1.574 . S
C1487 C1506 1.368 . S
C1487 H1511 0.949 . S
H1488 C1492 0.949 . S
C1489 C1490 1.349 . S
C1489 C1491 1.327 . S
C1489 H1512 0.950 . S
C1490 C1489 1.349 . S
C1490 C1502 1.349 . S
C1491 C1489 1.327 . S
C1491 C1507 1.429 . S
C1491 H1513 0.950 . S
C1492 H1488 0.949 . S
C1492 C1500 1.574 . S
C1492 C1508 1.368 . S
H1493 C1501 0.950 . S
H1494 C1499 0.950 . S
H1495 C1500 0.949 . S
H1496 C1502 0.950 . S
H1497 C1503 0.950 . S
H1498 C1504 0.949 . S
C1499 H1494 0.950 . S
C1499 C1501 1.327 . S
C1499 C1505 1.429 . S
C1500 C1492 1.574 . S
C1500 H1495 0.949 . S
C1500 C1506 1.368 . S
C1501 C1485 1.349 . S
C1501 H1493 0.950 . S
C1501 C1499 1.327 . S
C1502 C1490 1.349 . S
C1502 H1496 0.950 . S
C1502 C1503 1.327 . S
C1503 H1497 0.950 . S
C1503 C1502 1.327 . S
C1503 C1507 1.429 . S
C1504 C1487 1.574 . S
C1504 H1498 0.949 . S
C1504 C1508 1.368 . S
C1505 C1486 1.429 . S
C1505 C1499 1.429 . S
C1505 C1506 1.523 . S
C1506 C1487 1.368 . S
C1506 C1500 1.368 . S
C1506 C1505 1.523 . S
C1507 C1491 1.429 . S
C1507 C1503 1.429 . S
C1507 C1508 1.523 . S
C1508 C1492 1.368 . S
C1508 C1504 1.368 . S
C1508 C1507 1.523 . S
H1509 C1484 0.950 . S
H1510 C1486 0.950 . S
H1511 C1487 0.949 . S
H1512 C1489 0.950 . S
H1513 C1491 0.950 . S
C1514 C1515 1.349 . S
C1514 C1516 1.327 . S
C1514 H1539 0.950 . S
C1515 C1514 1.349 . S
C1515 C1531 1.349 . S
C1516 C1514 1.327 . S
C1516 C1535 1.429 1_556 S
C1516 H1540 0.950 . S
C1517 C1534 1.574 . S
C1517 C1536 1.368 . S
C1517 H1541 0.949 . S
H1518 C1522 0.949 . S
C1519 C1520 1.349 . S
C1519 C1521 1.327 . S
C1519 H1542 0.950 . S
C1520 C1519 1.349 . S
C1520 C1532 1.349 . S
C1521 C1519 1.327 . S
C1521 C1537 1.429 . S
C1521 H1543 0.950 . S
C1522 H1518 0.949 . S
C1522 C1530 1.574 . S
C1522 C1538 1.368 . S
H1523 C1531 0.950 . S
H1524 C1529 0.950 . S
H1525 C1530 0.949 . S
H1526 C1532 0.950 . S
H1527 C1533 0.950 . S
H1528 C1534 0.949 . S
C1529 H1524 0.950 . S
C1529 C1531 1.327 1_554 S
C1529 C1535 1.429 . S
C1530 C1522 1.574 . S
C1530 H1525 0.949 . S
C1530 C1536 1.368 . S
C1531 C1515 1.349 . S
C1531 H1523 0.950 . S
C1531 C1529 1.327 1_556 S
C1532 C1520 1.349 . S
C1532 H1526 0.950 . S
C1532 C1533 1.327 . S
C1533 H1527 0.950 . S
C1533 C1532 1.327 . S
C1533 C1537 1.429 . S
C1534 C1517 1.574 . S
C1534 H1528 0.949 . S
C1534 C1538 1.368 . S
C1535 C1516 1.429 1_554 S
C1535 C1529 1.429 . S
C1535 C1536 1.523 . S
C1536 C1517 1.368 . S
C1536 C1530 1.368 . S
C1536 C1535 1.523 . S
C1537 C1521 1.429 . S
C1537 C1533 1.429 . S
C1537 C1538 1.523 . S
C1538 C1522 1.368 . S
C1538 C1534 1.368 . S
C1538 C1537 1.523 . S
H1539 C1514 0.950 . S
H1540 C1516 0.950 . S
H1541 C1517 0.949 . S
H1542 C1519 0.950 . S
H1543 C1521 0.950 . S
C1544 C1545 1.349 . S
C1544 C1546 1.327 . S
C1544 H1569 0.950 . S
C1545 C1544 1.349 . S
C1545 C1561 1.349 . S
C1546 C1544 1.327 . S
C1546 C1565 1.429 . S
C1546 H1570 0.950 . S
C1547 C1564 1.574 . S
C1547 C1566 1.368 . S
C1547 H1571 0.949 . S
H1548 C1552 0.949 . S
C1549 C1550 1.349 . S
C1549 C1551 1.327 . S
C1549 H1572 0.950 . S
C1550 C1549 1.349 . S
C1550 C1562 1.349 . S
C1551 C1549 1.327 . S
C1551 C1567 1.429 . S
C1551 H1573 0.950 . S
C1552 H1548 0.949 . S
C1552 C1560 1.574 . S
C1552 C1568 1.368 . S
H1553 C1561 0.950 . S
H1554 C1559 0.950 . S
H1555 C1560 0.949 . S
H1556 C1562 0.950 . S
H1557 C1563 0.950 . S
H1558 C1564 0.949 . S
C1559 H1554 0.950 . S
C1559 C1561 1.327 . S
C1559 C1565 1.429 . S
C1560 C1552 1.574 . S
C1560 H1555 0.949 . S
C1560 C1566 1.368 . S
C1561 C1545 1.349 . S
C1561 H1553 0.950 . S
C1561 C1559 1.327 . S
C1562 C1550 1.349 . S
C1562 H1556 0.950 . S
C1562 C1563 1.327 . S
C1563 H1557 0.950 . S
C1563 C1562 1.327 . S
C1563 C1567 1.429 . S
C1564 C1547 1.574 . S
C1564 H1558 0.949 . S
C1564 C1568 1.368 . S
C1565 C1546 1.429 . S
C1565 C1559 1.429 . S
C1565 C1566 1.523 . S
C1566 C1547 1.368 . S
C1566 C1560 1.368 . S
C1566 C1565 1.523 . S
C1567 C1551 1.429 . S
C1567 C1563 1.429 . S
C1567 C1568 1.523 . S
C1568 C1552 1.368 . S
C1568 C1564 1.368 . S
C1568 C1567 1.523 . S
H1569 C1544 0.950 . S
H1570 C1546 0.950 . S
H1571 C1547 0.949 . S
H1572 C1549 0.950 . S
H1573 C1551 0.950 . S
C1574 C1575 1.349 . S
C1574 C1576 1.327 . S
C1574 H1599 0.950 . S
C1575 C1574 1.349 . S
C1575 C1591 1.349 . S
C1576 C1574 1.327 . S
C1576 C1595 1.429 . S
C1576 H1600 0.950 . S
C1577 C1594 1.574 . S
C1577 C1596 1.368 . S
C1577 H1601 0.949 . S
H1578 C1582 0.949 . S
C1579 C1580 1.349 . S
C1579 C1581 1.327 . S
C1579 H1602 0.950 . S
C1580 C1579 1.349 . S
C1580 C1592 1.349 . S
C1581 C1579 1.327 . S
C1581 C1597 1.429 . S
C1581 H1603 0.950 . S
C1582 H1578 0.949 . S
C1582 C1590 1.574 . S
C1582 C1598 1.368 . S
H1583 C1591 0.950 . S
H1584 C1589 0.950 . S
H1585 C1590 0.949 . S
H1586 C1592 0.950 . S
H1587 C1593 0.950 . S
H1588 C1594 0.949 . S
C1589 H1584 0.950 . S
C1589 C1591 1.327 . S
C1589 C1595 1.429 . S
C1590 C1582 1.574 . S
C1590 H1585 0.949 . S
C1590 C1596 1.368 . S
C1591 C1575 1.349 . S
C1591 H1583 0.950 . S
C1591 C1589 1.327 . S
C1592 C1580 1.349 . S
C1592 H1586 0.950 . S
C1592 C1593 1.327 . S
C1593 H1587 0.950 . S
C1593 C1592 1.327 . S
C1593 C1597 1.429 . S
C1594 C1577 1.574 . S
C1594 H1588 0.949 . S
C1594 C1598 1.368 . S
C1595 C1576 1.429 . S
C1595 C1589 1.429 . S
C1595 C1596 1.523 . S
C1596 C1577 1.368 . S
C1596 C1590 1.368 . S
C1596 C1595 1.523 . S
C1597 C1581 1.429 . S
C1597 C1593 1.429 . S
C1597 C1598 1.523 . S
C1598 C1582 1.368 . S
C1598 C1594 1.368 . S
C1598 C1597 1.523 . S
H1599 C1574 0.950 . S
H1600 C1576 0.950 . S
H1601 C1577 0.949 . S
H1602 C1579 0.950 . S
H1603 C1581 0.950 . S
C1604 C1605 1.349 . S
C1604 C1606 1.327 . S
C1604 H1629 0.950 . S
C1605 C1604 1.349 . S
C1605 C1621 1.349 . S
C1606 C1604 1.327 . S
C1606 C1625 1.429 . S
C1606 H1630 0.950 . S
C1607 C1624 1.574 . S
C1607 C1626 1.368 . S
C1607 H1631 0.949 . S
H1608 C1612 0.949 . S
C1609 C1610 1.349 . S
C1609 C1611 1.327 . S
C1609 H1632 0.950 . S
C1610 C1609 1.349 . S
C1610 C1622 1.349 . S
C1611 C1609 1.327 . S
C1611 C1627 1.429 . S
C1611 H1633 0.950 . S
C1612 H1608 0.949 . S
C1612 C1620 1.574 . S
C1612 C1628 1.368 . S
H1613 C1621 0.950 . S
H1614 C1619 0.950 . S
H1615 C1620 0.949 . S
H1616 C1622 0.950 . S
H1617 C1623 0.950 . S
H1618 C1624 0.949 . S
C1619 H1614 0.950 . S
C1619 C1621 1.327 . S
C1619 C1625 1.429 . S
C1620 C1612 1.574 . S
C1620 H1615 0.949 . S
C1620 C1626 1.368 . S
C1621 C1605 1.349 . S
C1621 H1613 0.950 . S
C1621 C1619 1.327 . S
C1622 C1610 1.349 . S
C1622 H1616 0.950 . S
C1622 C1623 1.327 . S
C1623 H1617 0.950 . S
C1623 C1622 1.327 . S
C1623 C1627 1.429 . S
C1624 C1607 1.574 . S
C1624 H1618 0.949 . S
C1624 C1628 1.368 . S
C1625 C1606 1.429 . S
C1625 C1619 1.429 . S
C1625 C1626 1.523 . S
C1626 C1607 1.368 . S
C1626 C1620 1.368 . S
C1626 C1625 1.523 . S
C1627 C1611 1.429 . S
C1627 C1623 1.429 . S
C1627 C1628 1.523 . S
C1628 C1612 1.368 . S
C1628 C1624 1.368 . S
C1628 C1627 1.523 . S
H1629 C1604 0.950 . S
H1630 C1606 0.950 . S
H1631 C1607 0.949 . S
H1632 C1609 0.950 . S
H1633 C1611 0.950 . S
C1634 C1635 1.349 . S
C1634 C1636 1.327 . S
C1634 H1659 0.950 . S
C1635 C1634 1.349 . S
C1635 C1651 1.349 . S
C1636 C1634 1.327 . S
C1636 C1655 1.429 . S
C1636 H1660 0.950 . S
C1637 C1654 1.574 . S
C1637 C1656 1.368 . S
C1637 H1661 0.949 . S
H1638 C1642 0.949 . S
C1639 C1640 1.349 . S
C1639 C1641 1.327 . S
C1639 H1662 0.950 . S
C1640 C1639 1.349 . S
C1640 C1652 1.349 . S
C1641 C1639 1.327 . S
C1641 C1657 1.429 . S
C1641 H1663 0.950 . S
C1642 H1638 0.949 . S
C1642 C1650 1.574 . S
C1642 C1658 1.368 . S
H1643 C1651 0.950 . S
H1644 C1649 0.950 . S
H1645 C1650 0.949 . S
H1646 C1652 0.950 . S
H1647 C1653 0.950 . S
H1648 C1654 0.949 . S
C1649 H1644 0.950 . S
C1649 C1651 1.327 . S
C1649 C1655 1.429 . S
C1650 C1642 1.574 . S
C1650 H1645 0.949 . S
C1650 C1656 1.368 . S
C1651 C1635 1.349 . S
C1651 H1643 0.950 . S
C1651 C1649 1.327 . S
C1652 C1640 1.349 . S
C1652 H1646 0.950 . S
C1652 C1653 1.327 . S
C1653 H1647 0.950 . S
C1653 C1652 1.327 . S
C1653 C1657 1.429 . S
C1654 C1637 1.574 . S
C1654 H1648 0.949 . S
C1654 C1658 1.368 . S
C1655 C1636 1.429 . S
C1655 C1649 1.429 . S
C1655 C1656 1.523 . S
C1656 C1637 1.368 . S
C1656 C1650 1.368 . S
C1656 C1655 1.523 . S
C1657 C1641 1.429 . S
C1657 C1653 1.429 . S
C1657 C1658 1.523 . S
C1658 C1642 1.368 . S
C1658 C1654 1.368 . S
C1658 C1657 1.523 . S
H1659 C1634 0.950 . S
H1660 C1636 0.950 . S
H1661 C1637 0.949 . S
H1662 C1639 0.950 . S
H1663 C1641 0.950 . S
C1664 C1665 1.349 . S
C1664 C1666 1.327 . S
C1664 H1689 0.950 . S
C1665 C1664 1.349 . S
C1665 C1681 1.349 . S
C1666 C1664 1.327 . S
C1666 C1685 1.429 . S
C1666 H1690 0.950 . S
C1667 C1684 1.574 . S
C1667 C1686 1.368 . S
C1667 H1691 0.949 . S
H1668 C1672 0.949 . S
C1669 C1670 1.349 . S
C1669 C1671 1.327 . S
C1669 H1692 0.950 1_556 S
C1670 C1669 1.349 . S
C1670 C1682 1.349 . S
C1671 C1669 1.327 . S
C1671 C1687 1.429 . S
C1671 H1693 0.950 . S
C1672 H1668 0.949 . S
C1672 C1680 1.574 . S
C1672 C1688 1.368 . S
H1673 C1681 0.950 . S
H1674 C1679 0.950 . S
H1675 C1680 0.949 . S
H1676 C1682 0.950 . S
H1677 C1683 0.950 . S
H1678 C1684 0.949 . S
C1679 H1674 0.950 . S
C1679 C1681 1.327 . S
C1679 C1685 1.429 . S
C1680 C1672 1.574 . S
C1680 H1675 0.949 . S
C1680 C1686 1.368 . S
C1681 C1665 1.349 . S
C1681 H1673 0.950 . S
C1681 C1679 1.327 . S
C1682 C1670 1.349 . S
C1682 H1676 0.950 . S
C1682 C1683 1.327 . S
C1683 H1677 0.950 . S
C1683 C1682 1.327 . S
C1683 C1687 1.429 . S
C1684 C1667 1.574 . S
C1684 H1678 0.949 . S
C1684 C1688 1.368 . S
C1685 C1666 1.429 . S
C1685 C1679 1.429 . S
C1685 C1686 1.523 . S
C1686 C1667 1.368 . S
C1686 C1680 1.368 . S
C1686 C1685 1.523 . S
C1687 C1671 1.429 . S
C1687 C1683 1.429 . S
C1687 C1688 1.523 . S
C1688 C1672 1.368 . S
C1688 C1684 1.368 . S
C1688 C1687 1.523 . S
H1689 C1664 0.950 . S
H1690 C1666 0.950 . S
H1691 C1667 0.949 . S
H1692 C1669 0.950 1_554 S
H1693 C1671 0.950 . S
C1694 C1695 1.349 . S
C1694 C1696 1.327 . S
C1694 H1719 0.950 . S
C1695 C1694 1.349 . S
C1695 C1711 1.349 . S
C1696 C1694 1.327 . S
C1696 C1715 1.429 . S
C1696 H1720 0.950 . S
C1697 C1714 1.574 . S
C1697 C1716 1.368 . S
C1697 H1721 0.949 . S
H1698 C1702 0.949 . S
C1699 C1700 1.349 . S
C1699 C1701 1.327 . S
C1699 H1722 0.950 . S
C1700 C1699 1.349 . S
C1700 C1712 1.349 . S
C1701 C1699 1.327 . S
C1701 C1717 1.429 . S
C1701 H1723 0.950 . S
C1702 H1698 0.949 . S
C1702 C1710 1.574 . S
C1702 C1718 1.368 . S
H1703 C1711 0.950 . S
H1704 C1709 0.950 . S
H1705 C1710 0.949 . S
H1706 C1712 0.950 . S
H1707 C1713 0.950 . S
H1708 C1714 0.949 . S
C1709 H1704 0.950 . S
C1709 C1711 1.327 . S
C1709 C1715 1.429 . S
C1710 C1702 1.574 . S
C1710 H1705 0.949 . S
C1710 C1716 1.368 . S
C1711 C1695 1.349 . S
C1711 H1703 0.950 . S
C1711 C1709 1.327 . S
C1712 C1700 1.349 . S
C1712 H1706 0.950 . S
C1712 C1713 1.327 . S
C1713 H1707 0.950 . S
C1713 C1712 1.327 . S
C1713 C1717 1.429 . S
C1714 C1697 1.574 . S
C1714 H1708 0.949 . S
C1714 C1718 1.368 . S
C1715 C1696 1.429 . S
C1715 C1709 1.429 . S
C1715 C1716 1.523 . S
C1716 C1697 1.368 . S
C1716 C1710 1.368 . S
C1716 C1715 1.523 . S
C1717 C1701 1.429 . S
C1717 C1713 1.429 . S
C1717 C1718 1.523 . S
C1718 C1702 1.368 . S
C1718 C1714 1.368 . S
C1718 C1717 1.523 . S
H1719 C1694 0.950 . S
H1720 C1696 0.950 . S
H1721 C1697 0.949 . S
H1722 C1699 0.950 . S
H1723 C1701 0.950 . S
C1724 C1725 1.349 . S
C1724 C1726 1.327 . S
C1724 H1749 0.950 . S
C1725 C1724 1.349 . S
C1725 C1741 1.349 . S
C1726 C1724 1.327 . S
C1726 C1745 1.429 . S
C1726 H1750 0.950 . S
C1727 C1744 1.574 . S
C1727 C1746 1.368 . S
C1727 H1751 0.949 . S
H1728 C1732 0.949 . S
C1729 C1730 1.349 . S
C1729 C1731 1.327 . S
C1729 H1752 0.950 . S
C1730 C1729 1.349 . S
C1730 C1742 1.349 . S
C1731 C1729 1.327 . S
C1731 C1747 1.429 . S
C1731 H1753 0.950 . S
C1732 H1728 0.949 . S
C1732 C1740 1.574 . S
C1732 C1748 1.368 . S
H1733 C1741 0.950 . S
H1734 C1739 0.950 . S
H1735 C1740 0.949 . S
H1736 C1742 0.950 . S
H1737 C1743 0.950 . S
H1738 C1744 0.949 . S
C1739 H1734 0.950 . S
C1739 C1741 1.327 . S
C1739 C1745 1.429 . S
C1740 C1732 1.574 . S
C1740 H1735 0.949 . S
C1740 C1746 1.368 . S
C1741 C1725 1.349 . S
C1741 H1733 0.950 . S
C1741 C1739 1.327 . S
C1742 C1730 1.349 . S
C1742 H1736 0.950 . S
C1742 C1743 1.327 . S
C1743 H1737 0.950 . S
C1743 C1742 1.327 . S
C1743 C1747 1.429 . S
C1744 C1727 1.574 . S
C1744 H1738 0.949 . S
C1744 C1748 1.368 . S
C1745 C1726 1.429 . S
C1745 C1739 1.429 . S
C1745 C1746 1.523 . S
C1746 C1727 1.368 . S
C1746 C1740 1.368 . S
C1746 C1745 1.523 . S
C1747 C1731 1.429 . S
C1747 C1743 1.429 . S
C1747 C1748 1.523 . S
C1748 C1732 1.368 . S
C1748 C1744 1.368 . S
C1748 C1747 1.523 . S
H1749 C1724 0.950 . S
H1750 C1726 0.950 . S
H1751 C1727 0.949 . S
H1752 C1729 0.950 . S
H1753 C1731 0.950 . S
C1754 C1755 1.349 . S
C1754 C1756 1.327 . S
C1754 H1779 0.950 . S
C1755 C1754 1.349 . S
C1755 C1771 1.349 . S
C1756 C1754 1.327 . S
C1756 C1775 1.429 . S
C1756 H1780 0.950 . S
C1757 C1774 1.574 . S
C1757 C1776 1.368 . S
C1757 H1781 0.949 . S
H1758 C1762 0.949 . S
C1759 C1760 1.349 . S
C1759 C1761 1.327 . S
C1759 H1782 0.950 . S
C1760 C1759 1.349 . S
C1760 C1772 1.349 . S
C1761 C1759 1.327 . S
C1761 C1777 1.429 . S
C1761 H1783 0.950 . S
C1762 H1758 0.949 . S
C1762 C1770 1.574 . S
C1762 C1778 1.368 . S
H1763 C1771 0.950 . S
H1764 C1769 0.950 . S
H1765 C1770 0.949 . S
H1766 C1772 0.950 . S
H1767 C1773 0.950 1_545 S
H1768 C1774 0.949 1_565 S
C1769 H1764 0.950 . S
C1769 C1771 1.327 . S
C1769 C1775 1.429 . S
C1770 C1762 1.574 . S
C1770 H1765 0.949 . S
C1770 C1776 1.368 . S
C1771 C1755 1.349 . S
C1771 H1763 0.950 . S
C1771 C1769 1.327 . S
C1772 C1760 1.349 . S
C1772 H1766 0.950 . S
C1772 C1773 1.327 . S
C1773 H1767 0.950 1_565 S
C1773 C1772 1.327 . S
C1773 C1777 1.429 . S
C1774 C1757 1.574 . S
C1774 H1768 0.949 1_545 S
C1774 C1778 1.368 . S
C1775 C1756 1.429 . S
C1775 C1769 1.429 . S
C1775 C1776 1.523 . S
C1776 C1757 1.368 . S
C1776 C1770 1.368 . S
C1776 C1775 1.523 . S
C1777 C1761 1.429 . S
C1777 C1773 1.429 . S
C1777 C1778 1.523 1_565 S
C1778 C1762 1.368 . S
C1778 C1774 1.368 . S
C1778 C1777 1.523 1_545 S
H1779 C1754 0.950 . S
H1780 C1756 0.950 . S
H1781 C1757 0.949 . S
H1782 C1759 0.950 . S
H1783 C1761 0.950 . S
C350 C184 1.248 . S
C345 C62 1.222 . S
C380 C199 1.771 . S
C375 C73 1.717 . S
C405 C84 1.832 . S
C410 C212 1.860 . S
C440 C226 1.259 . S
C435 C49 1.009 . S
C470 C238 1.540 . S
C465 C118 1.575 . S
C500 C252 1.260 . S
C495 C137 1.221 . S
C525 C129 1.805 . S
C530 C266 1.769 . S
C560 C281 1.722 . S
C555 C106 1.694 . S
C585 C128 1.914 . S
C590 C297 1.976 . S
C620 C310 1.580 . S
C615 C104 1.268 . S
C645 C115 1.663 . S
C650 C295 1.864 . S
C680 C308 1.602 . S
C675 C139 1.607 . S
C705 C85 2.031 . S
C710 C324 2.024 . S
C735 C52 1.230 . S
C740 C323 1.253 . S
C765 C60 1.189 . S
C770 C322 1.295 . S
C795 C71 1.337 . S
C800 C325 1.609 1_655 S
C825 C40 1.961 . S
C830 C227 2.046 . S
C855 C162 1.049 . S
C860 C225 1.042 . S
C890 C185 1.139 . S
C885 C173 1.122 . S
C920 C196 2.043 . S
C915 C93 1.885 . S
C945 C51 1.466 . S
C950 C241 1.559 . S
C980 C282 1.962 . S
C975 C126 1.739 . S
C1010 C239 1.798 . S
C1005 C107 1.763 . S
C1040 C267 1.509 . S
C1035 C140 1.533 . S
C1070 C268 1.248 . S
C1065 C161 1.222 . S
C1095 C172 1.717 . S
C1100 C283 1.771 . S
C1125 C95 1.832 . S
C1130 C240 1.860 . S
C1160 C254 1.259 . S
C1155 C148 1.009 . S
C1185 C41 1.575 . S
C1190 C210 1.540 . S
C1220 C224 1.260 . S
C1215 C5 1.221 . S
C1250 C182 1.769 . S
C1245 C19 1.805 . S
C1280 C197 1.722 . S
C1275 C29 1.693 . S
C1305 C18 1.914 . S
C1310 C311 1.976 . S
C1335 C27 1.268 . S
C1340 C296 1.580 . S
C1365 C38 1.663 . S
C1370 C309 1.864 . S
C1395 C7 1.608 . S
C1400 C294 1.602 . S
C1430 C338 2.024 . S
C1425 C96 2.032 . S
C1460 C337 1.253 . S
C1455 C151 1.230 . S
C1490 C336 1.295 . S
C1485 C159 1.189 . S
C1515 C170 1.337 . S
C1520 C339 1.613 . S
C1545 C117 1.961 . S
C1550 C255 2.046 . S
C1580 C253 1.043 . S
C1575 C63 1.050 . S
C1610 C269 1.139 . S
C1605 C74 1.122 . S
C1640 C280 2.043 . S
C1635 C82 1.884 . S
C1665 C150 1.466 . S
C1670 C213 1.559 . S
C1700 C198 1.963 . S
C1695 C16 1.739 . S
C1725 C30 1.763 . S
C1730 C211 1.798 . S
C1760 C183 1.509 . S
C1755 C8 1.533 . S
