# Generated by pormake.
# Topology pts, (4,4)-cn, num edge types: 1
# Building blocks:
#     Node 0, Type 0, BuildingBlock: ESEHIV_clean_sbu_0, # of connection points: 4
#     Node 1, Type 0, BuildingBlock: ESEHIV_clean_sbu_0, # of connection points: 4
#     Node 2, Type 1, BuildingBlock: AZAVOO_clean_sbu_0, # of connection points: 4
#     Node 3, Type 1, BuildingBlock: AZAVOO_clean_sbu_0, # of connection points: 4
#     Edge 4, Type (0, 1), BuildingBlock: ZUJKAS_clean_linker_0, # of connection points: 2
#     Edge 5, Type (0, 1), BuildingBlock: ZUJKAS_clean_linker_0, # of connection points: 2
#     Edge 6, Type (0, 1), BuildingBlock: ZUJKAS_clean_linker_0, # of connection points: 2
#     Edge 7, Type (0, 1), BuildingBlock: ZUJKAS_clean_linker_0, # of connection points: 2
#     Edge 8, Type (0, 1), BuildingBlock: ZUJKAS_clean_linker_0, # of connection points: 2
#     Edge 9, Type (0, 1), BuildingBlock: ZUJKAS_clean_linker_0, # of connection points: 2
#     Edge 10, Type (0, 1), BuildingBlock: ZUJKAS_clean_linker_0, # of connection points: 2
#     Edge 11, Type (0, 1), BuildingBlock: ZUJKAS_clean_linker_0, # of connection points: 2
# Relax obj value: 0.001
# Max RMSD: 0.095
# Mean RMSD: 0.063
data_MOF--net-pts--node1-ESEHIV_clean_sbu_0--node2-AZAVOO_clean_sbu_0--edge1-ZUJKAS_clean_linker_0
_symmetry_space_group_name_H-M    P1
_symmetry_Int_Tables_number       1
_symmetry_cell_setting            triclinic
loop_
_symmetry_equiv_pos_as_xyz
'x, y, z'
_cell_length_a     31.607305
_cell_length_b     32.473218
_cell_length_c     48.428401
_cell_angle_alpha  92.799944
_cell_angle_beta   98.632288
_cell_angle_gamma 89.600318
loop_
_atom_site_label
_atom_site_type_symbol
_atom_site_fract_x
_atom_site_fract_y
_atom_site_fract_z
_atom_type_partial_charge
Cu0 Cu 0.54523 0.03623 0.0122 0.0
N1 N 0.57834 0.00558 0.9896 0.0
N2 N 0.62863 0.99497 0.9621 0.0
C3 C 0.60696 0.02312 0.97589 0.0
C4 C 0.61266 0.95808 0.96719 0.0
C5 C 0.58171 0.96471 0.98432 0.0
O6 O 0.58519 0.0734 0.0358 0.0
C7 C 0.47567 0.03303 0.97258 0.0
O8 O 0.48651 0.99422 0.9758 0.0
H9 H 0.6117 0.0561 0.97616 0.0
H10 H 0.56344 0.94145 0.9926 0.0
N11 N 0.51867 0.00516 0.03617 0.0
N12 N 0.47202 0.99257 0.06518 0.0
C13 C 0.48283 0.01765 0.04598 0.0
C14 C 0.53117 0.97077 0.04953 0.0
C15 C 0.50241 0.96295 0.06755 0.0
C16 C 0.61845 0.05485 0.04734 0.0
O17 O 0.62167 0.01481 0.04303 0.0
H18 H 0.46619 0.04586 0.04006 0.0
H19 H 0.5598 0.95341 0.04706 0.0
O20 O 0.49865 0.06066 0.98722 0.0
H21 H 0.62319 0.92839 0.95964 0.0
H22 H 0.50416 0.93786 0.08159 0.0
Cu23 Cu 0.0857 0.55616 0.51935 0.0
N24 N 0.11566 0.53034 0.54993 0.0
N25 N 0.12609 0.48724 0.58487 0.0
C26 C 0.10038 0.49786 0.56151 0.0
C27 C 0.15892 0.51429 0.58821 0.0
C28 C 0.15242 0.54089 0.56652 0.0
O29 O 0.05815 0.51353 0.49324 0.0
C30 C 0.06797 0.62702 0.54748 0.0
O31 O 0.10969 0.62908 0.54858 0.0
H32 H 0.07011 0.48319 0.55339 0.0
H33 H 0.17249 0.5666 0.56344 0.0
N34 N 0.12048 0.58539 0.49928 0.0
N35 N 0.13612 0.63102 0.46929 0.0
C36 C 0.10589 0.61644 0.48312 0.0
C37 C 0.16152 0.57977 0.49557 0.0
C38 C 0.17127 0.60795 0.47694 0.0
C39 C 0.08346 0.48473 0.48744 0.0
O40 O 0.1235 0.48614 0.49964 0.0
H41 H 0.07315 0.62729 0.48097 0.0
H42 H 0.18253 0.55647 0.50531 0.0
O43 O 0.04808 0.59593 0.53477 0.0
H44 H 0.18557 0.51488 0.60511 0.0
H45 H 0.20172 0.61117 0.4696 0.0
Mg46 Mg 0.0857 0.04436 0.27697 0.0
O47 O 0.01885 0.04397 0.24972 0.0
O48 O 0.97254 0.0342 0.27949 0.0
Mg49 Mg 1.00765 0.02332 0.3233 0.0
C50 C 0.98053 0.04104 0.25503 0.0
C51 C 0.15936 0.05799 0.24815 0.0
O52 O 0.17225 0.04217 0.27246 0.0
O53 O 0.0712 0.10884 0.29542 0.0
O54 O 0.02847 0.09102 0.32582 0.0
O55 O 0.09402 0.97601 0.27107 0.0
O56 O 0.06471 0.00573 0.30532 0.0
C57 C 0.04935 0.11812 0.3151 0.0
C58 C 0.07645 0.97232 0.29327 0.0
O59 O 0.11999 0.06754 0.24224 0.0
Mg60 Mg 0.99825 0.04754 0.74304 0.0
O61 O 0.06298 0.04118 0.77183 0.0
O62 O 0.11187 0.02626 0.74397 0.0
Mg63 Mg 0.07951 0.02126 0.69846 0.0
C64 C 0.10166 0.03393 0.76824 0.0
C65 C 0.92492 0.06742 0.77355 0.0
O66 O 0.90885 0.05546 0.74781 0.0
O67 O 0.01993 0.1112 0.73118 0.0
O68 O 0.06572 0.09049 0.70228 0.0
O69 O 0.98409 0.97977 0.74245 0.0
O70 O 0.01834 0.0085 0.71202 0.0
C71 C 0.04577 0.11907 0.71411 0.0
C72 C 1.00334 0.97563 0.72073 0.0
O73 O 0.96529 0.07184 0.77947 0.0
H74 H 0.39563 0.029 0.04876 0.0
H75 H 0.33941 0.04493 0.0774 0.0
H76 H 0.41358 0.98672 0.14687 0.0
H77 H 0.47013 0.97103 0.11844 0.0
H78 H 0.29281 0.98801 0.10832 0.0
H79 H 0.38826 0.1074 0.17615 0.0
H80 H 0.40088 0.09013 0.1423 0.0
H81 H 0.41469 0.05879 0.17185 0.0
C82 C 0.39999 0.01962 0.07015 0.0
C83 C 0.43753 0.999 0.08139 0.0
C84 C 0.36776 0.02858 0.08642 0.0
C85 C 0.37262 0.0175 0.11433 0.0
C86 C 0.40947 0.99596 0.12544 0.0
H87 H 0.24388 0.03851 0.25634 0.0
H88 H 0.29243 0.03234 0.22194 0.0
C89 C 0.44159 0.98669 0.1091 0.0
C90 C 0.33946 0.02888 0.13202 0.0
H91 H 0.32306 0.08714 0.19006 0.0
C92 C 0.29914 0.00993 0.12607 0.0
C93 C 0.34786 0.05767 0.15501 0.0
C94 C 0.39012 0.08003 0.16169 0.0
C95 C 0.26761 0.01756 0.14334 0.0
C96 C 0.27634 0.04573 0.16677 0.0
C97 C 0.31629 0.06562 0.17211 0.0
C98 C 0.24631 0.05213 0.18752 0.0
C99 C 0.22605 0.99395 0.13707 0.0
C100 C 0.20423 0.06639 0.17987 0.0
C101 C 0.17595 0.06975 0.19966 0.0
C102 C 0.18949 0.05925 0.22744 0.0
C103 C 0.23216 0.0467 0.23514 0.0
C104 C 0.26013 0.04317 0.21545 0.0
H105 H 0.2282 0.9671 0.12221 0.0
H106 H 0.21651 0.98269 0.15652 0.0
H107 H 0.20045 0.01462 0.12749 0.0
H108 H 0.1931 0.07447 0.15858 0.0
H109 H 0.14337 0.07966 0.19307 0.0
H110 H 0.14872 0.48557 0.64115 0.0
H111 H 0.13345 0.43054 0.67122 0.0
H112 H 0.07148 0.35999 0.59877 0.0
H113 H 0.08604 0.41494 0.56887 0.0
H114 H 0.02496 0.36042 0.64177 0.0
H115 H 0.19476 0.32101 0.67927 0.0
H116 H 0.18004 0.37362 0.68608 0.0
H117 H 0.1796 0.3542 0.65065 0.0
C118 C 0.1322 0.45813 0.63168 0.0
C119 C 0.11865 0.45453 0.60265 0.0
C120 C 0.12347 0.42673 0.64887 0.0
C121 C 0.10166 0.39093 0.63723 0.0
C122 C 0.08816 0.38739 0.60826 0.0
H123 H 0.09653 0.1445 0.67756 0.0
H124 H 0.10801 0.21389 0.66405 0.0
C125 C 0.0965 0.41882 0.59117 0.0
C126 C 0.09299 0.35664 0.65482 0.0
H127 H 0.1421 0.2816 0.69511 0.0
C128 C 0.0505 0.34341 0.65373 0.0
C129 C 0.1264 0.33451 0.67038 0.0
C130 C 0.1728 0.34622 0.67158 0.0
C131 C 0.04065 0.30758 0.66663 0.0
C132 C 0.07419 0.28485 0.68153 0.0
C133 C 0.11644 0.29924 0.6838 0.0
C134 C 0.06716 0.24313 0.69127 0.0
C135 C 0.99481 0.29304 0.66277 0.0
C136 C 0.04043 0.23628 0.71134 0.0
C137 C 0.03339 0.19606 0.71911 0.0
C138 C 0.05323 0.16219 0.70703 0.0
C139 C 0.08054 0.16959 0.68736 0.0
C140 C 0.08734 0.20943 0.67961 0.0
H141 H 0.9739 0.31043 0.64685 0.0
H142 H 0.99272 0.25972 0.65635 0.0
H143 H 0.98222 0.29731 0.68291 0.0
H144 H 0.02502 0.26194 0.72094 0.0
H145 H 0.01238 0.19153 0.73443 0.0
H146 H 0.61716 0.09138 0.09896 0.0
H147 H 0.68035 0.10269 0.13483 0.0
H148 H 0.76253 0.07257 0.07328 0.0
H149 H 0.69964 0.06086 0.0377 0.0
H150 H 0.7355 0.03141 0.14418 0.0
H151 H 0.82663 0.16875 0.12236 0.0
H152 H 0.76985 0.16279 0.11059 0.0
H153 H 0.80765 0.13502 0.09258 0.0
C154 C 0.64877 0.08935 0.09289 0.0
C155 C 0.65378 0.07601 0.06559 0.0
C156 C 0.6848 0.09543 0.11338 0.0
C157 C 0.72616 0.08875 0.10666 0.0
C158 C 0.73106 0.07869 0.07883 0.0
H159 H 0.98032 0.04477 0.19823 0.0
H160 H 0.91866 0.05704 0.16225 0.0
C161 C 0.69514 0.07212 0.0585 0.0
C162 C 0.76322 0.08468 0.1291 0.0
H163 H 0.863 0.1222 0.15429 0.0
C164 C 0.76317 0.05159 0.14666 0.0
C165 C 0.79964 0.11039 0.13177 0.0
C166 C 0.80108 0.14646 0.11349 0.0
C167 C 0.79879 0.04302 0.16653 0.0
C168 C 0.83512 0.06907 0.16958 0.0
C169 C 0.83517 0.10229 0.15201 0.0
C170 C 0.87286 0.0626 0.19127 0.0
C171 C 0.79761 0.00521 0.18336 0.0
C172 C 0.86776 0.06224 0.21953 0.0
C173 C 0.90261 0.05465 0.23997 0.0
C174 C 0.94374 0.04801 0.23277 0.0
C175 C 0.94909 0.04946 0.2045 0.0
C176 C 0.91392 0.05664 0.18393 0.0
H177 H 0.77416 0.98214 0.17263 0.0
H178 H 0.82953 0.9903 0.18726 0.0
H179 H 0.78768 0.01429 0.20382 0.0
H180 H 0.8367 0.0679 0.22583 0.0
H181 H 0.89728 0.05453 0.26154 0.0
H182 H 0.09168 0.70676 0.55459 0.0
H183 H 0.06482 0.76023 0.58454 0.0
H184 H 0.97002 0.67602 0.60421 0.0
H185 H 0.99675 0.62185 0.57368 0.0
H186 H 0.97097 0.79033 0.58485 0.0
H187 H 0.05349 0.71806 0.68052 0.0
H188 H 0.07122 0.70794 0.64709 0.0
H189 H 0.02136 0.68714 0.65334 0.0
C190 C 0.06463 0.69974 0.5649 0.0
C191 C 0.04637 0.66016 0.56195 0.0
C192 C 0.04932 0.73033 0.58197 0.0
C193 C 0.01578 0.72188 0.59671 0.0
C194 C 0.99607 0.68294 0.59299 0.0
H195 H 0.96994 0.90151 0.7318 0.0
H196 H 0.96651 0.83723 0.70272 0.0
C197 C 0.01113 0.65222 0.57548 0.0
C198 C 1.00407 0.75368 0.61712 0.0
H199 H 0.03011 0.78651 0.6856 0.0
C200 C 0.98297 0.78921 0.60699 0.0
C201 C 0.01978 0.75199 0.64595 0.0
C202 C 0.04282 0.71435 0.65762 0.0
C203 C 0.97892 0.82396 0.62479 0.0
C204 C 0.99754 0.82345 0.65325 0.0
C205 C 0.01623 0.78696 0.66373 0.0
C206 C 1.00102 0.86147 0.67173 0.0
C207 C 0.95562 0.86126 0.61276 0.0
C208 C 0.02291 0.89583 0.6645 0.0
C209 C 0.02494 0.93243 0.68098 0.0
C210 C 1.00555 0.93533 0.70529 0.0
C211 C 0.98522 0.90028 0.7132 0.0
C212 C 0.98308 0.86359 0.69658 0.0
H213 H 0.93182 0.85247 0.59414 0.0
H214 H 0.93889 0.8781 0.62846 0.0
H215 H 0.97904 0.88249 0.60602 0.0
H216 H 0.03803 0.89452 0.64582 0.0
H217 H 0.04084 0.9587 0.67422 0.0
H218 H 0.4304 0.97998 0.93476 0.0
H219 H 0.36339 0.99175 0.9046 0.0
H220 H 0.36336 0.11848 0.93566 0.0
H221 H 0.43164 0.10691 0.96633 0.0
H222 H 0.2854 0.01842 0.92276 0.0
H223 H 0.34244 0.12343 0.84843 0.0
H224 H 0.37892 0.09184 0.87067 0.0
H225 H 0.35495 0.13636 0.88534 0.0
C226 C 0.41649 0.01054 0.93524 0.0
C227 C 0.43641 0.04252 0.95308 0.0
C228 C 0.37801 0.01714 0.91794 0.0
C229 C 0.35832 0.05589 0.91789 0.0
C230 C 0.37824 0.08836 0.93526 0.0
H231 H 0.09657 0.0621 0.82219 0.0
H232 H 0.15569 0.07284 0.86083 0.0
C233 C 0.41718 0.08174 0.95273 0.0
C234 C 0.31665 0.06091 0.89968 0.0
H235 H 0.27199 0.0988 0.83744 0.0
C236 C 0.28206 0.0366 0.90435 0.0
C237 C 0.31266 0.08442 0.87564 0.0
C238 C 0.34913 0.11044 0.86944 0.0
C239 C 0.24435 0.0335 0.88491 0.0
C240 C 0.24092 0.05583 0.86033 0.0
C241 C 0.27473 0.08172 0.85632 0.0
C242 C 0.20454 0.04963 0.83726 0.0
C243 C 0.20958 0.00446 0.89005 0.0
C244 C 0.21235 0.03327 0.81116 0.0
C245 C 0.1788 0.0272 0.78908 0.0
C246 C 0.1365 0.03744 0.79254 0.0
C247 C 0.12864 0.05348 0.81884 0.0
C248 C 0.1624 0.05968 0.84096 0.0
H249 H 0.22057 0.9839 0.90737 0.0
H250 H 0.182 0.02265 0.89567 0.0
H251 H 0.19818 0.98508 0.87088 0.0
H252 H 0.24458 0.02512 0.80786 0.0
H253 H 0.18619 0.01483 0.76919 0.0
H254 H 0.02206 0.48523 0.44064 0.0
H255 H 1.00913 0.43067 0.40323 0.0
H256 H 0.10219 0.35344 0.45054 0.0
H257 H 0.11606 0.40785 0.4871 0.0
H258 H 0.11673 0.35773 0.39749 0.0
H259 H 0.94504 0.32247 0.39892 0.0
H260 H 0.95744 0.37515 0.39361 0.0
H261 H 0.97654 0.35318 0.4265 0.0
C262 C 0.03907 0.45626 0.44315 0.0
C263 C 0.07009 0.45072 0.46669 0.0
C264 C 0.03171 0.42514 0.4218 0.0
C265 C 0.05469 0.38788 0.42407 0.0
C266 C 0.08434 0.38199 0.44816 0.0
H267 H 0.02248 0.14404 0.36376 0.0
H268 H 0.02174 0.21353 0.38439 0.0
C269 C 0.09211 0.41307 0.46912 0.0
C270 C 0.04984 0.35508 0.40132 0.0
H271 H 0.9805 0.28224 0.36793 0.0
C272 C 0.08682 0.34145 0.39074 0.0
C273 C 0.01076 0.33408 0.39246 0.0
C274 C 0.97017 0.34663 0.40353 0.0
C275 C 0.08655 0.30582 0.3731 0.0
C276 C 0.04779 0.28389 0.36502 0.0
C277 C 1.01018 0.2991 0.37412 0.0
C278 C 0.04669 0.24221 0.35078 0.0
C279 C 0.12837 0.29053 0.36491 0.0
C280 C 0.06078 0.23493 0.32476 0.0
C281 C 0.06195 0.19465 0.31295 0.0
C282 C 0.04827 0.16118 0.32676 0.0
C283 C 0.03319 0.16895 0.35242 0.0
C284 C 0.03256 0.20884 0.36427 0.0
H285 H 0.15639 0.30654 0.37739 0.0
H286 H 0.13206 0.25689 0.36766 0.0
H287 H 0.12888 0.29621 0.34255 0.0
H288 H 0.07105 0.26029 0.31366 0.0
H289 H 0.07331 0.18977 0.29303 0.0
H290 H 0.68251 0.06059 0.96862 0.0
H291 H 0.73615 0.07674 0.9394 0.0
H292 H 0.70541 0.96431 0.88956 0.0
H293 H 0.65122 0.94801 0.91865 0.0
H294 H 0.7945 0.97983 0.9038 0.0
H295 H 0.70702 0.11615 0.85925 0.0
H296 H 0.71688 0.11687 0.89678 0.0
H297 H 0.68212 0.07833 0.8777 0.0
C298 C 0.68678 0.03941 0.95131 0.0
C299 C 0.662 0.00324 0.94574 0.0
C300 C 0.7176 0.04868 0.93466 0.0
C301 C 0.72424 0.02212 0.91201 0.0
C302 C 0.70063 0.98534 0.90689 0.0
H303 H 0.83803 0.06255 0.76616 0.0
H304 H 0.79205 0.05438 0.80165 0.0
C305 C 0.66976 0.97599 0.92358 0.0
C306 C 0.75539 0.03298 0.89343 0.0
H307 H 0.77574 0.10361 0.84706 0.0
C308 C 0.79055 0.00695 0.89145 0.0
C309 C 0.74993 0.06824 0.87719 0.0
C310 C 0.71179 0.09639 0.87756 0.0
C311 C 0.82033 0.01512 0.87357 0.0
C312 C 0.81508 0.05062 0.85753 0.0
C313 C 0.78001 0.07673 0.85963 0.0
C314 C 0.8434 0.05919 0.83661 0.0
C315 C 0.85631 0.98495 0.87128 0.0
C316 C 0.88752 0.06601 0.8445 0.0
C317 C 0.91411 0.07074 0.82414 0.0
C318 C 0.89692 0.06879 0.79557 0.0
C319 C 0.85243 0.064 0.78794 0.0
C320 C 0.82601 0.05931 0.80822 0.0
H321 H 0.85072 0.95517 0.88051 0.0
H322 H 0.86044 0.97879 0.84908 0.0
H323 H 0.88661 0.99827 0.88263 0.0
H324 H 0.90149 0.06688 0.86635 0.0
H325 H 0.94821 0.07447 0.83072 0.0
H326 H 0.084 0.69713 0.47059 0.0
H327 H 0.0713 0.75018 0.43631 0.0
H328 H 0.16274 0.69191 0.38928 0.0
H329 H 0.17586 0.63865 0.42382 0.0
H330 H 0.17282 0.7754 0.39502 0.0
H331 H 1.00216 0.73846 0.359 0.0
H332 H 0.01349 0.74798 0.39617 0.0
H333 H 0.03749 0.70441 0.38003 0.0
C334 C 0.10115 0.69537 0.45283 0.0
C335 C 0.13058 0.66342 0.44974 0.0
C336 C 0.09374 0.72565 0.43319 0.0
C337 C 0.11517 0.7244 0.40981 0.0
C338 C 0.14549 0.6932 0.40701 0.0
H339 H 0.10802 0.89833 0.27613 0.0
H340 H 0.11558 0.83489 0.30179 0.0
C341 C 0.15315 0.66295 0.42682 0.0
C342 C 0.10678 0.75653 0.38888 0.0
H343 H 0.02652 0.80391 0.34659 0.0
C344 C 0.14096 0.78125 0.38412 0.0
C345 C 0.06516 0.76406 0.3746 0.0
C346 C 0.02757 0.73704 0.37747 0.0
C347 C 0.13434 0.81437 0.36637 0.0
C348 C 0.09253 0.8227 0.35288 0.0
C349 C 0.0585 0.79744 0.35707 0.0
C350 C 0.08341 0.85892 0.33553 0.0
C351 C 0.17182 0.8412 0.36296 0.0
C352 C 0.06133 0.89276 0.3455 0.0
C353 C 0.05698 0.92904 0.33094 0.0
C354 C 0.07435 0.93198 0.30601 0.0
C355 C 0.09427 0.89711 0.29526 0.0
C356 C 0.09884 0.8609 0.30995 0.0
H357 H 0.20073 0.83448 0.37814 0.0
H358 H 0.1798 0.83587 0.34152 0.0
H359 H 0.16353 0.8743 0.36566 0.0
H360 H 0.04909 0.89171 0.36518 0.0
H361 H 0.04155 0.95526 0.33986 0.0
loop_
_geom_bond_atom_site_label_1
_geom_bond_atom_site_label_2
_geom_bond_distance
_geom_bond_site_symmetry_2
_ccdc_geom_bond_type
Cu0 N1 1.999 1_554 S
Cu0 O6 1.974 . S
Cu0 N11 1.985 . S
Cu0 O20 1.959 1_554 S
N1 Cu0 1.999 1_556 S
N1 C3 1.263 . S
N1 C5 1.389 . S
N2 C3 1.358 . S
N2 C4 1.400 . S
C3 N1 1.263 . S
C3 N2 1.358 . S
C3 H9 0.930 . S
C4 N2 1.400 . S
C4 C5 1.351 . S
C4 H21 0.930 . S
C5 N1 1.389 . S
C5 C4 1.351 . S
C5 H10 0.930 . S
O6 Cu0 1.974 . S
O6 C16 1.282 . S
C7 O8 1.261 1_545 S
C7 O20 1.251 . S
O8 C7 1.261 1_565 S
H9 C3 0.930 . S
H10 C5 0.930 . S
N11 Cu0 1.985 . S
N11 C13 1.335 . S
N11 C14 1.390 . S
N12 C13 1.345 . S
N12 C15 1.336 . S
C13 N11 1.335 . S
C13 N12 1.345 . S
C13 H18 0.930 . S
C14 N11 1.390 . S
C14 C15 1.346 . S
C14 H19 0.930 . S
C15 N12 1.336 . S
C15 C14 1.346 . S
C15 H22 0.929 . S
C16 O6 1.282 . S
C16 O17 1.216 1_545 S
O17 C16 1.216 1_565 S
H18 C13 0.930 . S
H19 C14 0.930 . S
O20 Cu0 1.959 1_556 S
O20 C7 1.251 . S
H21 C4 0.930 . S
H22 C15 0.929 . S
Cu23 N24 1.999 . S
Cu23 O29 1.974 . S
Cu23 N34 1.985 . S
Cu23 O43 1.959 . S
N24 Cu23 1.999 . S
N24 C26 1.263 . S
N24 C28 1.389 1_455 S
N25 C26 1.358 . S
N25 C27 1.400 1_455 S
C26 N24 1.263 . S
C26 N25 1.358 . S
C26 H32 0.930 . S
C27 N25 1.400 1_655 S
C27 C28 1.351 . S
C27 H44 0.930 . S
C28 N24 1.389 1_655 S
C28 C27 1.351 . S
C28 H33 0.930 . S
O29 Cu23 1.974 . S
O29 C39 1.282 . S
C30 O31 1.261 . S
C30 O43 1.251 . S
O31 C30 1.261 . S
H32 C26 0.930 . S
H33 C28 0.930 . S
N34 Cu23 1.985 . S
N34 C36 1.335 . S
N34 C37 1.390 . S
N35 C36 1.345 . S
N35 C38 1.336 . S
C36 N34 1.335 . S
C36 N35 1.345 . S
C36 H41 0.930 . S
C37 N34 1.390 . S
C37 C38 1.346 . S
C37 H42 0.930 . S
C38 N35 1.336 . S
C38 C37 1.346 . S
C38 H45 0.929 . S
C39 O29 1.282 . S
C39 O40 1.216 . S
O40 C39 1.216 . S
H41 C36 0.930 . S
H42 C37 0.930 . S
O43 Cu23 1.959 . S
O43 C30 1.251 . S
H44 C27 0.930 . S
H45 C38 0.929 . S
Mg46 O47 2.028 . S
Mg46 O53 1.986 . S
Mg46 O55 2.114 1_545 S
Mg46 O56 2.251 . S
Mg46 O59 2.010 . S
O47 Mg46 2.028 . S
O47 C50 1.250 1_455 S
O48 Mg49 2.028 . S
O48 C50 1.248 . S
Mg49 O48 2.028 . S
Mg49 O54 2.032 1_655 S
Mg49 O56 2.079 1_655 S
C50 O47 1.250 1_655 S
C50 O48 1.248 . S
C51 O52 1.264 . S
C51 O59 1.249 . S
O52 C51 1.264 . S
O53 Mg46 1.986 . S
O53 C57 1.246 . S
O54 Mg49 2.032 1_455 S
O54 C57 1.259 . S
O55 Mg46 2.114 1_565 S
O55 C58 1.252 . S
O56 Mg46 2.251 . S
O56 Mg49 2.079 1_455 S
O56 C58 1.273 1_545 S
C57 O53 1.246 . S
C57 O54 1.259 . S
C58 O55 1.252 . S
C58 O56 1.273 1_565 S
O59 Mg46 2.010 . S
O59 C51 1.249 . S
Mg60 O61 2.028 . S
Mg60 O67 1.986 . S
Mg60 O69 2.114 1_545 S
Mg60 O70 2.251 . S
Mg60 O73 2.010 1_455 S
O61 Mg60 2.028 . S
O61 C64 1.250 . S
O62 Mg63 2.028 . S
O62 C64 1.248 . S
Mg63 O62 2.028 . S
Mg63 O68 2.032 . S
Mg63 O70 2.079 . S
C64 O61 1.250 . S
C64 O62 1.248 . S
C65 O66 1.264 . S
C65 O73 1.249 . S
O66 C65 1.264 . S
O67 Mg60 1.986 . S
O67 C71 1.246 . S
O68 Mg63 2.032 . S
O68 C71 1.259 . S
O69 Mg60 2.114 1_565 S
O69 C72 1.252 . S
O70 Mg60 2.251 . S
O70 Mg63 2.079 . S
O70 C72 1.273 1_545 S
C71 O67 1.246 . S
C71 O68 1.259 . S
C72 O69 1.252 . S
C72 O70 1.273 1_565 S
O73 Mg60 2.010 1_655 S
O73 C65 1.249 . S
H74 C82 0.929 . S
H75 C84 0.930 . S
H76 C86 0.930 . S
H77 C89 0.929 . S
H78 C92 0.930 . S
H79 C94 0.960 . S
H80 C94 0.960 . S
H81 C94 0.960 . S
C82 H74 0.929 . S
C82 C83 1.377 . S
C82 C84 1.384 . S
C83 C82 1.377 . S
C83 C89 1.390 . S
C84 H75 0.930 . S
C84 C82 1.384 . S
C84 C85 1.372 . S
C85 C84 1.372 . S
C85 C86 1.400 . S
C85 C90 1.490 . S
C86 H76 0.930 . S
C86 C85 1.400 . S
C86 C89 1.386 . S
H87 C103 0.930 . S
H88 C104 0.931 . S
C89 H77 0.929 . S
C89 C83 1.390 . S
C89 C86 1.386 . S
C90 C85 1.490 . S
C90 C92 1.395 . S
C90 C93 1.403 . S
H91 C97 0.930 . S
C92 H78 0.930 . S
C92 C90 1.395 . S
C92 C95 1.403 . S
C93 C90 1.403 . S
C93 C94 1.524 . S
C93 C97 1.400 . S
C94 H79 0.960 . S
C94 H80 0.960 . S
C94 H81 0.960 . S
C94 C93 1.524 . S
C95 C92 1.403 . S
C95 C96 1.392 . S
C95 C99 1.495 . S
C96 C95 1.392 . S
C96 C97 1.385 . S
C96 C98 1.478 . S
C97 H91 0.930 . S
C97 C93 1.400 . S
C97 C96 1.385 . S
C98 C96 1.478 . S
C98 C100 1.381 . S
C98 C104 1.383 . S
C99 C95 1.495 . S
C99 H105 0.959 . S
C99 H106 0.961 1_545 S
C99 H107 0.960 . S
C100 C98 1.381 . S
C100 C101 1.394 . S
C100 H108 0.930 . S
C101 C100 1.394 . S
C101 C102 1.383 . S
C101 H109 0.929 . S
C102 C101 1.383 . S
C102 C103 1.377 . S
C103 H87 0.930 . S
C103 C102 1.377 . S
C103 C104 1.379 . S
C104 H88 0.931 . S
C104 C98 1.383 . S
C104 C103 1.379 . S
H105 C99 0.959 . S
H106 C99 0.961 1_565 S
H107 C99 0.960 . S
H108 C100 0.930 . S
H109 C101 0.929 . S
H110 C118 0.929 1_655 S
H111 C120 0.930 1_655 S
H112 C122 0.930 . S
H113 C125 0.929 . S
H114 C128 0.930 . S
H115 C130 0.960 . S
H116 C130 0.960 . S
H117 C130 0.960 . S
C118 H110 0.929 1_455 S
C118 C119 1.377 . S
C118 C120 1.384 . S
C119 C118 1.377 . S
C119 C125 1.390 . S
C120 H111 0.930 1_455 S
C120 C118 1.384 . S
C120 C121 1.372 . S
C121 C120 1.372 . S
C121 C122 1.400 . S
C121 C126 1.490 . S
C122 H112 0.930 . S
C122 C121 1.400 . S
C122 C125 1.386 . S
H123 C139 0.930 . S
H124 C140 0.931 . S
C125 H113 0.929 . S
C125 C119 1.390 . S
C125 C122 1.386 . S
C126 C121 1.490 . S
C126 C128 1.395 1_455 S
C126 C129 1.403 . S
H127 C133 0.930 . S
C128 H114 0.930 . S
C128 C126 1.395 1_655 S
C128 C131 1.403 . S
C129 C126 1.403 . S
C129 C130 1.524 . S
C129 C133 1.400 . S
C130 H115 0.960 . S
C130 H116 0.960 . S
C130 H117 0.960 . S
C130 C129 1.524 . S
C131 C128 1.403 . S
C131 C132 1.392 1_655 S
C131 C135 1.495 . S
C132 C131 1.392 1_455 S
C132 C133 1.385 . S
C132 C134 1.478 . S
C133 H127 0.930 . S
C133 C129 1.400 . S
C133 C132 1.385 . S
C134 C132 1.478 . S
C134 C136 1.381 . S
C134 C140 1.383 . S
C135 C131 1.495 . S
C135 H141 0.959 . S
C135 H142 0.961 . S
C135 H143 0.960 . S
C136 C134 1.381 . S
C136 C137 1.394 . S
C136 H144 0.930 1_455 S
C137 C136 1.394 . S
C137 C138 1.383 . S
C137 H145 0.929 1_455 S
C138 C137 1.383 . S
C138 C139 1.377 . S
C139 H123 0.930 . S
C139 C138 1.377 . S
C139 C140 1.379 . S
C140 H124 0.931 . S
C140 C134 1.383 . S
C140 C139 1.379 . S
H141 C135 0.959 . S
H142 C135 0.961 . S
H143 C135 0.960 . S
H144 C136 0.930 1_655 S
H145 C137 0.929 1_655 S
H146 C154 0.929 . S
H147 C156 0.930 . S
H148 C158 0.930 . S
H149 C161 0.929 . S
H150 C164 0.930 . S
H151 C166 0.960 . S
H152 C166 0.960 . S
H153 C166 0.960 . S
C154 H146 0.929 . S
C154 C155 1.377 . S
C154 C156 1.384 . S
C155 C154 1.377 . S
C155 C161 1.390 1_545 S
C156 H147 0.930 . S
C156 C154 1.384 . S
C156 C157 1.372 . S
C157 C156 1.372 . S
C157 C158 1.400 1_545 S
C157 C162 1.490 . S
C158 H148 0.930 . S
C158 C157 1.400 1_565 S
C158 C161 1.386 . S
H159 C175 0.930 1_565 S
H160 C176 0.931 1_565 S
C161 H149 0.929 . S
C161 C155 1.390 1_565 S
C161 C158 1.386 . S
C162 C157 1.490 . S
C162 C164 1.395 . S
C162 C165 1.403 . S
H163 C169 0.930 . S
C164 H150 0.930 . S
C164 C162 1.395 . S
C164 C167 1.403 . S
C165 C162 1.403 . S
C165 C166 1.524 . S
C165 C169 1.400 . S
C166 H151 0.960 . S
C166 H152 0.960 . S
C166 H153 0.960 . S
C166 C165 1.524 . S
C167 C164 1.403 . S
C167 C168 1.392 . S
C167 C171 1.495 . S
C168 C167 1.392 . S
C168 C169 1.385 . S
C168 C170 1.478 . S
C169 H163 0.930 . S
C169 C165 1.400 . S
C169 C168 1.385 . S
C170 C168 1.478 . S
C170 C172 1.381 . S
C170 C176 1.383 . S
C171 C167 1.495 . S
C171 H177 0.959 . S
C171 H178 0.961 . S
C171 H179 0.960 . S
C172 C170 1.381 . S
C172 C173 1.394 . S
C172 H180 0.930 . S
C173 C172 1.394 . S
C173 C174 1.383 . S
C173 H181 0.929 . S
C174 C173 1.383 . S
C174 C175 1.377 . S
C175 H159 0.930 1_545 S
C175 C174 1.377 . S
C175 C176 1.379 . S
C176 H160 0.931 1_545 S
C176 C170 1.383 . S
C176 C175 1.379 . S
H177 C171 0.959 . S
H178 C171 0.961 . S
H179 C171 0.960 . S
H180 C172 0.930 . S
H181 C173 0.929 . S
H182 C190 0.929 . S
H183 C192 0.930 . S
H184 C194 0.930 1_655 S
H185 C197 0.929 1_655 S
H186 C200 0.930 . S
H187 C202 0.960 . S
H188 C202 0.960 . S
H189 C202 0.955 1_655 S
C190 H182 0.929 . S
C190 C191 1.377 . S
C190 C192 1.384 . S
C191 C190 1.377 . S
C191 C197 1.390 . S
C192 H183 0.930 . S
C192 C190 1.384 . S
C192 C193 1.372 . S
C193 C192 1.372 . S
C193 C194 1.400 . S
C193 C198 1.490 . S
C194 H184 0.930 1_455 S
C194 C193 1.400 . S
C194 C197 1.386 . S
H195 C211 0.912 1_655 S
H196 C212 0.931 1_655 S
C197 H185 0.929 1_455 S
C197 C191 1.390 . S
C197 C194 1.386 . S
C198 C193 1.490 . S
C198 C200 1.395 . S
C198 C201 1.403 . S
H199 C205 0.930 . S
C200 H186 0.930 . S
C200 C198 1.395 . S
C200 C203 1.403 . S
C201 C198 1.403 . S
C201 C202 1.524 . S
C201 C205 1.400 . S
C202 H187 0.960 . S
C202 H188 0.960 . S
C202 H189 0.955 1_455 S
C202 C201 1.524 . S
C203 C200 1.403 . S
C203 C204 1.392 . S
C203 C207 1.495 . S
C204 C203 1.392 . S
C204 C205 1.385 . S
C204 C206 1.478 . S
C205 H199 0.930 . S
C205 C201 1.400 . S
C205 C204 1.385 . S
C206 C204 1.478 . S
C206 C208 1.381 . S
C206 C212 1.383 . S
C207 C203 1.495 . S
C207 H213 0.959 . S
C207 H214 0.961 . S
C207 H215 0.960 . S
C208 C206 1.381 . S
C208 C209 1.394 . S
C208 H216 0.930 . S
C209 C208 1.394 . S
C209 C210 1.383 . S
C209 H217 0.929 . S
C210 C209 1.383 . S
C210 C211 1.391 . S
C211 H195 0.912 1_455 S
C211 C210 1.391 . S
C211 C212 1.383 . S
C212 H196 0.931 1_455 S
C212 C206 1.383 . S
C212 C211 1.383 . S
H213 C207 0.959 . S
H214 C207 0.961 . S
H215 C207 0.960 . S
H216 C208 0.930 . S
H217 C209 0.929 . S
H218 C226 0.929 . S
H219 C228 0.930 . S
H220 C230 0.930 . S
H221 C233 0.929 . S
H222 C236 0.930 . S
H223 C238 0.960 . S
H224 C238 0.960 . S
H225 C238 0.960 . S
C226 H218 0.929 . S
C226 C227 1.377 1_565 S
C226 C228 1.384 . S
C227 C226 1.377 1_545 S
C227 C233 1.390 . S
C228 H219 0.930 . S
C228 C226 1.384 . S
C228 C229 1.372 1_565 S
C229 C228 1.372 1_545 S
C229 C230 1.400 . S
C229 C234 1.490 . S
C230 H220 0.930 . S
C230 C229 1.400 . S
C230 C233 1.386 . S
H231 C247 0.930 . S
H232 C248 0.931 . S
C233 H221 0.929 . S
C233 C227 1.390 . S
C233 C230 1.386 . S
C234 C229 1.490 . S
C234 C236 1.395 1_545 S
C234 C237 1.403 . S
H235 C241 0.930 . S
C236 H222 0.930 . S
C236 C234 1.395 1_565 S
C236 C239 1.403 . S
C237 C234 1.403 . S
C237 C238 1.524 . S
C237 C241 1.400 . S
C238 H223 0.960 . S
C238 H224 0.960 . S
C238 H225 0.960 . S
C238 C237 1.524 . S
C239 C236 1.403 . S
C239 C240 1.392 1_565 S
C239 C243 1.495 . S
C240 C239 1.392 1_545 S
C240 C241 1.385 . S
C240 C242 1.478 . S
C241 H235 0.930 . S
C241 C237 1.400 . S
C241 C240 1.385 . S
C242 C240 1.478 . S
C242 C244 1.381 1_545 S
C242 C248 1.383 . S
C243 C239 1.495 . S
C243 H249 0.959 . S
C243 H250 0.961 . S
C243 H251 0.960 . S
C244 C242 1.381 1_565 S
C244 C245 1.394 . S
C244 H252 0.930 . S
C245 C244 1.394 . S
C245 C246 1.383 1_565 S
C245 H253 0.929 . S
C246 C245 1.383 1_545 S
C246 C247 1.377 . S
C247 H231 0.930 . S
C247 C246 1.377 . S
C247 C248 1.379 . S
C248 H232 0.931 . S
C248 C242 1.383 . S
C248 C247 1.379 . S
H249 C243 0.959 . S
H250 C243 0.961 . S
H251 C243 0.960 . S
H252 C244 0.930 . S
H253 C245 0.929 . S
H254 C262 0.929 . S
H255 C264 0.930 . S
H256 C266 0.930 . S
H257 C269 0.929 . S
H258 C272 0.930 . S
H259 C274 0.960 1_655 S
H260 C274 0.960 1_655 S
H261 C274 0.960 . S
C262 H254 0.929 . S
C262 C263 1.377 . S
C262 C264 1.384 . S
C263 C262 1.377 . S
C263 C269 1.390 . S
C264 H255 0.930 . S
C264 C262 1.384 . S
C264 C265 1.372 . S
C265 C264 1.372 . S
C265 C266 1.400 . S
C265 C270 1.490 . S
C266 H256 0.930 . S
C266 C265 1.400 . S
C266 C269 1.386 . S
H267 C283 0.930 . S
H268 C284 0.931 . S
C269 H257 0.929 . S
C269 C263 1.390 . S
C269 C266 1.386 . S
C270 C265 1.490 . S
C270 C272 1.395 . S
C270 C273 1.403 . S
H271 C277 0.930 . S
C272 H258 0.930 . S
C272 C270 1.395 . S
C272 C275 1.403 . S
C273 C270 1.403 . S
C273 C274 1.524 . S
C273 C277 1.400 . S
C274 H259 0.960 1_455 S
C274 H260 0.960 1_455 S
C274 H261 0.960 . S
C274 C273 1.524 . S
C275 C272 1.403 . S
C275 C276 1.392 . S
C275 C279 1.495 . S
C276 C275 1.392 . S
C276 C277 1.385 . S
C276 C278 1.478 . S
C277 H271 0.930 . S
C277 C273 1.400 . S
C277 C276 1.385 . S
C278 C276 1.478 . S
C278 C280 1.381 . S
C278 C284 1.383 . S
C279 C275 1.495 . S
C279 H285 0.959 . S
C279 H286 0.961 . S
C279 H287 0.960 . S
C280 C278 1.381 . S
C280 C281 1.394 . S
C280 H288 0.930 . S
C281 C280 1.394 . S
C281 C282 1.383 . S
C281 H289 0.929 . S
C282 C281 1.383 . S
C282 C283 1.377 . S
C283 H267 0.930 . S
C283 C282 1.377 . S
C283 C284 1.379 . S
C284 H268 0.931 . S
C284 C278 1.383 . S
C284 C283 1.379 . S
H285 C279 0.959 . S
H286 C279 0.961 . S
H287 C279 0.960 . S
H288 C280 0.930 . S
H289 C281 0.929 . S
H290 C298 0.929 . S
H291 C300 0.930 . S
H292 C302 0.930 1_565 S
H293 C305 0.929 1_565 S
H294 C308 0.930 . S
H295 C310 0.960 . S
H296 C310 0.960 . S
H297 C310 0.960 . S
C298 H290 0.929 . S
C298 C299 1.377 . S
C298 C300 1.384 . S
C299 C298 1.377 . S
C299 C305 1.390 . S
C300 H291 0.930 . S
C300 C298 1.384 . S
C300 C301 1.372 . S
C301 C300 1.372 . S
C301 C302 1.400 . S
C301 C306 1.490 . S
C302 H292 0.930 1_545 S
C302 C301 1.400 . S
C302 C305 1.386 . S
H303 C319 0.930 1_565 S
H304 C320 0.931 1_565 S
C305 H293 0.929 1_545 S
C305 C299 1.390 . S
C305 C302 1.386 . S
C306 C301 1.490 . S
C306 C308 1.395 . S
C306 C309 1.403 . S
H307 C313 0.930 . S
C308 H294 0.930 . S
C308 C306 1.395 . S
C308 C311 1.403 . S
C309 C306 1.403 . S
C309 C310 1.524 . S
C309 C313 1.400 . S
C310 H295 0.960 . S
C310 H296 0.960 . S
C310 H297 0.960 . S
C310 C309 1.524 . S
C311 C308 1.403 . S
C311 C312 1.392 . S
C311 C315 1.495 . S
C312 C311 1.392 . S
C312 C313 1.385 . S
C312 C314 1.478 . S
C313 H307 0.930 . S
C313 C309 1.400 . S
C313 C312 1.385 . S
C314 C312 1.478 . S
C314 C316 1.381 . S
C314 C320 1.383 . S
C315 C311 1.495 . S
C315 H321 0.959 . S
C315 H322 0.961 . S
C315 H323 0.960 . S
C316 C314 1.381 . S
C316 C317 1.394 . S
C316 H324 0.930 . S
C317 C316 1.394 . S
C317 C318 1.383 . S
C317 H325 0.929 . S
C318 C317 1.383 . S
C318 C319 1.377 . S
C319 H303 0.930 1_545 S
C319 C318 1.377 . S
C319 C320 1.379 . S
C320 H304 0.931 1_545 S
C320 C314 1.383 . S
C320 C319 1.379 . S
H321 C315 0.959 . S
H322 C315 0.961 . S
H323 C315 0.960 . S
H324 C316 0.930 . S
H325 C317 0.929 . S
H326 C334 0.929 . S
H327 C336 0.930 . S
H328 C338 0.930 . S
H329 C341 0.929 . S
H330 C344 0.930 . S
H331 C346 0.960 . S
H332 C346 0.960 . S
H333 C346 0.960 . S
C334 H326 0.929 . S
C334 C335 1.377 . S
C334 C336 1.384 . S
C335 C334 1.377 . S
C335 C341 1.390 . S
C336 H327 0.930 . S
C336 C334 1.384 . S
C336 C337 1.372 . S
C337 C336 1.372 . S
C337 C338 1.400 . S
C337 C342 1.490 . S
C338 H328 0.930 . S
C338 C337 1.400 . S
C338 C341 1.386 . S
H339 C355 0.930 . S
H340 C356 0.931 . S
C341 H329 0.929 . S
C341 C335 1.390 . S
C341 C338 1.386 . S
C342 C337 1.490 . S
C342 C344 1.395 . S
C342 C345 1.403 . S
H343 C349 0.930 1_655 S
C344 H330 0.930 . S
C344 C342 1.395 . S
C344 C347 1.403 . S
C345 C342 1.403 . S
C345 C346 1.524 1_455 S
C345 C349 1.400 . S
C346 H331 0.960 . S
C346 H332 0.960 . S
C346 H333 0.960 . S
C346 C345 1.524 1_655 S
C347 C344 1.403 . S
C347 C348 1.392 . S
C347 C351 1.495 . S
C348 C347 1.392 . S
C348 C349 1.385 . S
C348 C350 1.478 . S
C349 H343 0.930 1_455 S
C349 C345 1.400 . S
C349 C348 1.385 . S
C350 C348 1.478 . S
C350 C352 1.381 . S
C350 C356 1.383 . S
C351 C347 1.495 . S
C351 H357 0.959 . S
C351 H358 0.961 . S
C351 H359 0.960 . S
C352 C350 1.381 . S
C352 C353 1.394 . S
C352 H360 0.930 . S
C353 C352 1.394 . S
C353 C354 1.383 . S
C353 H361 0.929 . S
C354 C353 1.383 . S
C354 C355 1.377 . S
C355 H339 0.930 . S
C355 C354 1.377 . S
C355 C356 1.379 . S
C356 H340 0.931 . S
C356 C350 1.383 . S
C356 C355 1.379 . S
H357 C351 0.959 . S
H358 C351 0.961 . S
H359 C351 0.960 . S
H360 C352 0.930 . S
H361 C353 0.929 . S
C102 C51 1.281 . S
C83 N12 1.431 . S
C138 C71 1.485 . S
C119 N25 1.468 . S
C174 C50 1.399 . S
C155 C16 1.460 . S
C210 C72 1.504 . S
C191 C30 1.507 . S
C246 C64 1.484 . S
C227 C7 1.509 . S
C282 C57 1.439 . S
C263 C39 1.444 . S
C318 C65 1.314 . S
C299 N2 1.461 . S
C335 N35 1.444 . S
C354 C58 1.471 . S
