# Generated by pormake.
# Topology gar, (4,6)-cn, num edge types: 1
# Building blocks:
#     Node 0, Type 0, BuildingBlock: CEKHIL_clean_sbu_0, # of connection points: 4
#     Node 1, Type 0, BuildingBlock: CEKHIL_clean_sbu_0, # of connection points: 4
#     Node 2, Type 0, BuildingBlock: CEKHIL_clean_sbu_0, # of connection points: 4
#     Node 3, Type 0, BuildingBlock: CEKHIL_clean_sbu_0, # of connection points: 4
#     Node 4, Type 0, BuildingBlock: CEKHIL_clean_sbu_0, # of connection points: 4
#     Node 5, Type 0, BuildingBlock: CEKHIL_clean_sbu_0, # of connection points: 4
#     Node 6, Type 0, BuildingBlock: CEKHIL_clean_sbu_0, # of connection points: 4
#     Node 7, Type 0, BuildingBlock: CEKHIL_clean_sbu_0, # of connection points: 4
#     Node 8, Type 0, BuildingBlock: CEKHIL_clean_sbu_0, # of connection points: 4
#     Node 9, Type 0, BuildingBlock: CEKHIL_clean_sbu_0, # of connection points: 4
#     Node 10, Type 0, BuildingBlock: CEKHIL_clean_sbu_0, # of connection points: 4
#     Node 11, Type 0, BuildingBlock: CEKHIL_clean_sbu_0, # of connection points: 4
#     Node 12, Type 0, BuildingBlock: CEKHIL_clean_sbu_0, # of connection points: 4
#     Node 13, Type 0, BuildingBlock: CEKHIL_clean_sbu_0, # of connection points: 4
#     Node 14, Type 0, BuildingBlock: CEKHIL_clean_sbu_0, # of connection points: 4
#     Node 15, Type 0, BuildingBlock: CEKHIL_clean_sbu_0, # of connection points: 4
#     Node 16, Type 0, BuildingBlock: CEKHIL_clean_sbu_0, # of connection points: 4
#     Node 17, Type 0, BuildingBlock: CEKHIL_clean_sbu_0, # of connection points: 4
#     Node 18, Type 0, BuildingBlock: CEKHIL_clean_sbu_0, # of connection points: 4
#     Node 19, Type 0, BuildingBlock: CEKHIL_clean_sbu_0, # of connection points: 4
#     Node 20, Type 0, BuildingBlock: CEKHIL_clean_sbu_0, # of connection points: 4
#     Node 21, Type 0, BuildingBlock: CEKHIL_clean_sbu_0, # of connection points: 4
#     Node 22, Type 0, BuildingBlock: CEKHIL_clean_sbu_0, # of connection points: 4
#     Node 23, Type 0, BuildingBlock: CEKHIL_clean_sbu_0, # of connection points: 4
#     Node 24, Type 1, BuildingBlock: KUMJIN_clean_sbu_0, # of connection points: 6
#     Node 25, Type 1, BuildingBlock: KUMJIN_clean_sbu_0, # of connection points: 6
#     Node 26, Type 1, BuildingBlock: KUMJIN_clean_sbu_0, # of connection points: 6
#     Node 27, Type 1, BuildingBlock: KUMJIN_clean_sbu_0, # of connection points: 6
#     Node 28, Type 1, BuildingBlock: KUMJIN_clean_sbu_0, # of connection points: 6
#     Node 29, Type 1, BuildingBlock: KUMJIN_clean_sbu_0, # of connection points: 6
#     Node 30, Type 1, BuildingBlock: KUMJIN_clean_sbu_0, # of connection points: 6
#     Node 31, Type 1, BuildingBlock: KUMJIN_clean_sbu_0, # of connection points: 6
#     Node 32, Type 1, BuildingBlock: KUMJIN_clean_sbu_0, # of connection points: 6
#     Node 33, Type 1, BuildingBlock: KUMJIN_clean_sbu_0, # of connection points: 6
#     Node 34, Type 1, BuildingBlock: KUMJIN_clean_sbu_0, # of connection points: 6
#     Node 35, Type 1, BuildingBlock: KUMJIN_clean_sbu_0, # of connection points: 6
#     Node 36, Type 1, BuildingBlock: KUMJIN_clean_sbu_0, # of connection points: 6
#     Node 37, Type 1, BuildingBlock: KUMJIN_clean_sbu_0, # of connection points: 6
#     Node 38, Type 1, BuildingBlock: KUMJIN_clean_sbu_0, # of connection points: 6
#     Node 39, Type 1, BuildingBlock: KUMJIN_clean_sbu_0, # of connection points: 6
#     Edge 40, Type (0, 1), BuildingBlock: XIVTED_clean_linker_0, # of connection points: 2
#     Edge 41, Type (0, 1), BuildingBlock: XIVTED_clean_linker_0, # of connection points: 2
#     Edge 42, Type (0, 1), BuildingBlock: XIVTED_clean_linker_0, # of connection points: 2
#     Edge 43, Type (0, 1), BuildingBlock: XIVTED_clean_linker_0, # of connection points: 2
#     Edge 44, Type (0, 1), BuildingBlock: XIVTED_clean_linker_0, # of connection points: 2
#     Edge 45, Type (0, 1), BuildingBlock: XIVTED_clean_linker_0, # of connection points: 2
#     Edge 46, Type (0, 1), BuildingBlock: XIVTED_clean_linker_0, # of connection points: 2
#     Edge 47, Type (0, 1), BuildingBlock: XIVTED_clean_linker_0, # of connection points: 2
#     Edge 48, Type (0, 1), BuildingBlock: XIVTED_clean_linker_0, # of connection points: 2
#     Edge 49, Type (0, 1), BuildingBlock: XIVTED_clean_linker_0, # of connection points: 2
#     Edge 50, Type (0, 1), BuildingBlock: XIVTED_clean_linker_0, # of connection points: 2
#     Edge 51, Type (0, 1), BuildingBlock: XIVTED_clean_linker_0, # of connection points: 2
#     Edge 52, Type (0, 1), BuildingBlock: XIVTED_clean_linker_0, # of connection points: 2
#     Edge 53, Type (0, 1), BuildingBlock: XIVTED_clean_linker_0, # of connection points: 2
#     Edge 54, Type (0, 1), BuildingBlock: XIVTED_clean_linker_0, # of connection points: 2
#     Edge 55, Type (0, 1), BuildingBlock: XIVTED_clean_linker_0, # of connection points: 2
#     Edge 56, Type (0, 1), BuildingBlock: XIVTED_clean_linker_0, # of connection points: 2
#     Edge 57, Type (0, 1), BuildingBlock: XIVTED_clean_linker_0, # of connection points: 2
#     Edge 58, Type (0, 1), BuildingBlock: XIVTED_clean_linker_0, # of connection points: 2
#     Edge 59, Type (0, 1), BuildingBlock: XIVTED_clean_linker_0, # of connection points: 2
#     Edge 60, Type (0, 1), BuildingBlock: XIVTED_clean_linker_0, # of connection points: 2
#     Edge 61, Type (0, 1), BuildingBlock: XIVTED_clean_linker_0, # of connection points: 2
#     Edge 62, Type (0, 1), BuildingBlock: XIVTED_clean_linker_0, # of connection points: 2
#     Edge 63, Type (0, 1), BuildingBlock: XIVTED_clean_linker_0, # of connection points: 2
#     Edge 64, Type (0, 1), BuildingBlock: XIVTED_clean_linker_0, # of connection points: 2
#     Edge 65, Type (0, 1), BuildingBlock: XIVTED_clean_linker_0, # of connection points: 2
#     Edge 66, Type (0, 1), BuildingBlock: XIVTED_clean_linker_0, # of connection points: 2
#     Edge 67, Type (0, 1), BuildingBlock: XIVTED_clean_linker_0, # of connection points: 2
#     Edge 68, Type (0, 1), BuildingBlock: XIVTED_clean_linker_0, # of connection points: 2
#     Edge 69, Type (0, 1), BuildingBlock: XIVTED_clean_linker_0, # of connection points: 2
#     Edge 70, Type (0, 1), BuildingBlock: XIVTED_clean_linker_0, # of connection points: 2
#     Edge 71, Type (0, 1), BuildingBlock: XIVTED_clean_linker_0, # of connection points: 2
#     Edge 72, Type (0, 1), BuildingBlock: XIVTED_clean_linker_0, # of connection points: 2
#     Edge 73, Type (0, 1), BuildingBlock: XIVTED_clean_linker_0, # of connection points: 2
#     Edge 74, Type (0, 1), BuildingBlock: XIVTED_clean_linker_0, # of connection points: 2
#     Edge 75, Type (0, 1), BuildingBlock: XIVTED_clean_linker_0, # of connection points: 2
#     Edge 76, Type (0, 1), BuildingBlock: XIVTED_clean_linker_0, # of connection points: 2
#     Edge 77, Type (0, 1), BuildingBlock: XIVTED_clean_linker_0, # of connection points: 2
#     Edge 78, Type (0, 1), BuildingBlock: XIVTED_clean_linker_0, # of connection points: 2
#     Edge 79, Type (0, 1), BuildingBlock: XIVTED_clean_linker_0, # of connection points: 2
#     Edge 80, Type (0, 1), BuildingBlock: XIVTED_clean_linker_0, # of connection points: 2
#     Edge 81, Type (0, 1), BuildingBlock: XIVTED_clean_linker_0, # of connection points: 2
#     Edge 82, Type (0, 1), BuildingBlock: XIVTED_clean_linker_0, # of connection points: 2
#     Edge 83, Type (0, 1), BuildingBlock: XIVTED_clean_linker_0, # of connection points: 2
#     Edge 84, Type (0, 1), BuildingBlock: XIVTED_clean_linker_0, # of connection points: 2
#     Edge 85, Type (0, 1), BuildingBlock: XIVTED_clean_linker_0, # of connection points: 2
#     Edge 86, Type (0, 1), BuildingBlock: XIVTED_clean_linker_0, # of connection points: 2
#     Edge 87, Type (0, 1), BuildingBlock: XIVTED_clean_linker_0, # of connection points: 2
#     Edge 88, Type (0, 1), BuildingBlock: XIVTED_clean_linker_0, # of connection points: 2
#     Edge 89, Type (0, 1), BuildingBlock: XIVTED_clean_linker_0, # of connection points: 2
#     Edge 90, Type (0, 1), BuildingBlock: XIVTED_clean_linker_0, # of connection points: 2
#     Edge 91, Type (0, 1), BuildingBlock: XIVTED_clean_linker_0, # of connection points: 2
#     Edge 92, Type (0, 1), BuildingBlock: XIVTED_clean_linker_0, # of connection points: 2
#     Edge 93, Type (0, 1), BuildingBlock: XIVTED_clean_linker_0, # of connection points: 2
#     Edge 94, Type (0, 1), BuildingBlock: XIVTED_clean_linker_0, # of connection points: 2
#     Edge 95, Type (0, 1), BuildingBlock: XIVTED_clean_linker_0, # of connection points: 2
#     Edge 96, Type (0, 1), BuildingBlock: XIVTED_clean_linker_0, # of connection points: 2
#     Edge 97, Type (0, 1), BuildingBlock: XIVTED_clean_linker_0, # of connection points: 2
#     Edge 98, Type (0, 1), BuildingBlock: XIVTED_clean_linker_0, # of connection points: 2
#     Edge 99, Type (0, 1), BuildingBlock: XIVTED_clean_linker_0, # of connection points: 2
#     Edge 100, Type (0, 1), BuildingBlock: XIVTED_clean_linker_0, # of connection points: 2
#     Edge 101, Type (0, 1), BuildingBlock: XIVTED_clean_linker_0, # of connection points: 2
#     Edge 102, Type (0, 1), BuildingBlock: XIVTED_clean_linker_0, # of connection points: 2
#     Edge 103, Type (0, 1), BuildingBlock: XIVTED_clean_linker_0, # of connection points: 2
#     Edge 104, Type (0, 1), BuildingBlock: XIVTED_clean_linker_0, # of connection points: 2
#     Edge 105, Type (0, 1), BuildingBlock: XIVTED_clean_linker_0, # of connection points: 2
#     Edge 106, Type (0, 1), BuildingBlock: XIVTED_clean_linker_0, # of connection points: 2
#     Edge 107, Type (0, 1), BuildingBlock: XIVTED_clean_linker_0, # of connection points: 2
#     Edge 108, Type (0, 1), BuildingBlock: XIVTED_clean_linker_0, # of connection points: 2
#     Edge 109, Type (0, 1), BuildingBlock: XIVTED_clean_linker_0, # of connection points: 2
#     Edge 110, Type (0, 1), BuildingBlock: XIVTED_clean_linker_0, # of connection points: 2
#     Edge 111, Type (0, 1), BuildingBlock: XIVTED_clean_linker_0, # of connection points: 2
#     Edge 112, Type (0, 1), BuildingBlock: XIVTED_clean_linker_0, # of connection points: 2
#     Edge 113, Type (0, 1), BuildingBlock: XIVTED_clean_linker_0, # of connection points: 2
#     Edge 114, Type (0, 1), BuildingBlock: XIVTED_clean_linker_0, # of connection points: 2
#     Edge 115, Type (0, 1), BuildingBlock: XIVTED_clean_linker_0, # of connection points: 2
#     Edge 116, Type (0, 1), BuildingBlock: XIVTED_clean_linker_0, # of connection points: 2
#     Edge 117, Type (0, 1), BuildingBlock: XIVTED_clean_linker_0, # of connection points: 2
#     Edge 118, Type (0, 1), BuildingBlock: XIVTED_clean_linker_0, # of connection points: 2
#     Edge 119, Type (0, 1), BuildingBlock: XIVTED_clean_linker_0, # of connection points: 2
#     Edge 120, Type (0, 1), BuildingBlock: XIVTED_clean_linker_0, # of connection points: 2
#     Edge 121, Type (0, 1), BuildingBlock: XIVTED_clean_linker_0, # of connection points: 2
#     Edge 122, Type (0, 1), BuildingBlock: XIVTED_clean_linker_0, # of connection points: 2
#     Edge 123, Type (0, 1), BuildingBlock: XIVTED_clean_linker_0, # of connection points: 2
#     Edge 124, Type (0, 1), BuildingBlock: XIVTED_clean_linker_0, # of connection points: 2
#     Edge 125, Type (0, 1), BuildingBlock: XIVTED_clean_linker_0, # of connection points: 2
#     Edge 126, Type (0, 1), BuildingBlock: XIVTED_clean_linker_0, # of connection points: 2
#     Edge 127, Type (0, 1), BuildingBlock: XIVTED_clean_linker_0, # of connection points: 2
#     Edge 128, Type (0, 1), BuildingBlock: XIVTED_clean_linker_0, # of connection points: 2
#     Edge 129, Type (0, 1), BuildingBlock: XIVTED_clean_linker_0, # of connection points: 2
#     Edge 130, Type (0, 1), BuildingBlock: XIVTED_clean_linker_0, # of connection points: 2
#     Edge 131, Type (0, 1), BuildingBlock: XIVTED_clean_linker_0, # of connection points: 2
#     Edge 132, Type (0, 1), BuildingBlock: XIVTED_clean_linker_0, # of connection points: 2
#     Edge 133, Type (0, 1), BuildingBlock: XIVTED_clean_linker_0, # of connection points: 2
#     Edge 134, Type (0, 1), BuildingBlock: XIVTED_clean_linker_0, # of connection points: 2
#     Edge 135, Type (0, 1), BuildingBlock: XIVTED_clean_linker_0, # of connection points: 2
# Relax obj value: 0.122
# Max RMSD: 0.322
# Mean RMSD: 0.150
data_MOF--net-gar--node1-CEKHIL_clean_sbu_0--node2-KUMJIN_clean_sbu_0--edge1-XIVTED_clean_linker_0
_symmetry_space_group_name_H-M    P1
_symmetry_Int_Tables_number       1
_symmetry_cell_setting            triclinic
loop_
_symmetry_equiv_pos_as_xyz
'x, y, z'
_cell_length_a     62.101502
_cell_length_b     56.248077
_cell_length_c     55.636649
_cell_angle_alpha  100.28105
_cell_angle_beta   93.713272
_cell_angle_gamma 101.9767
loop_
_atom_site_label
_atom_site_type_symbol
_atom_site_fract_x
_atom_site_fract_y
_atom_site_fract_z
_atom_type_partial_charge
Co0 Co 0.12444 0.34121 0.39015 0.0
O1 O 0.15303 0.33322 0.39271 0.0
O2 O 0.12724 0.31724 0.36136 0.0
C3 C 0.13797 0.38248 0.40028 0.0
O4 O 0.09345 0.34632 0.38049 0.0
Co5 Co 0.10741 0.37112 0.43482 0.0
O6 O 0.08641 0.37656 0.40917 0.0
C7 C 0.10656 0.31749 0.43182 0.0
C8 C 0.14744 0.31957 0.37096 0.0
C9 C 0.08196 0.36235 0.38809 0.0
O10 O 0.11209 0.31483 0.40962 0.0
O11 O 0.10571 0.3385 0.44468 0.0
O12 O 0.13716 0.37106 0.37771 0.0
O13 O 0.13188 0.36866 0.4158 0.0
Co14 Co 1.00524 0.76703 0.66371 0.0
O15 O 0.97379 0.76385 0.6597 0.0
O16 O 0.99303 0.76342 0.69446 0.0
C17 C 0.01284 0.79878 0.6434 0.0
O18 O 0.03783 0.7702 0.67489 0.0
Co19 Co 0.03159 0.76001 0.61805 0.0
O20 O 0.05798 0.76965 0.64271 0.0
C21 C 1.00265 0.71712 0.63216 0.0
C22 C 0.97391 0.76221 0.68266 0.0
C23 C 0.05644 0.77135 0.66568 0.0
O24 O 1.00123 0.72997 0.65337 0.0
O25 O 0.01147 0.7265 0.61482 0.0
O26 O 0.01006 0.80338 0.66662 0.0
O27 O 0.01 0.77577 0.63354 0.0
Co28 Co 0.62604 0.8389 0.88954 0.0
O29 O 0.65528 0.83275 0.89126 0.0
O30 O 0.63033 0.81961 0.85861 0.0
C31 C 0.63625 0.87959 0.90568 0.0
O32 O 0.59487 0.8428 0.88031 0.0
Co33 Co 0.60519 0.85866 0.93649 0.0
O34 O 0.58151 0.8626 0.91291 0.0
C35 C 0.60742 0.80592 0.92433 0.0
C36 C 0.65036 0.82159 0.86844 0.0
C37 C 0.5801 0.8532 0.89013 0.0
O38 O 0.6144 0.80823 0.90334 0.0
O39 O 0.60441 0.82393 0.94036 0.0
O40 O 0.63746 0.87178 0.8825 0.0
O41 O 0.63084 0.86268 0.91845 0.0
Co42 Co 0.50472 0.26915 0.16505 0.0
O43 O 0.4733 0.26645 0.15976 0.0
O44 O 0.49168 0.26843 0.19576 0.0
C45 C 0.51397 0.29832 0.14196 0.0
O46 O 0.53701 0.27233 0.17767 0.0
Co47 Co 0.53248 0.25781 0.12112 0.0
O48 O 0.55833 0.27062 0.14644 0.0
C49 C 0.50214 0.21755 0.13793 0.0
C50 C 0.47283 0.26651 0.18305 0.0
C51 C 0.55601 0.27349 0.16931 0.0
O52 O 0.5002 0.23199 0.15797 0.0
O53 O 0.51184 0.22504 0.12014 0.0
O54 O 0.51035 0.30502 0.16471 0.0
O55 O 0.51069 0.27487 0.13407 0.0
Co56 Co 0.09812 0.82354 0.1239 0.0
O57 O 0.06567 0.81859 0.12091 0.0
O58 O 0.08606 0.81589 0.15362 0.0
C59 C 0.10291 0.86023 0.10775 0.0
O60 O 0.13096 0.82746 0.13785 0.0
Co61 Co 0.1273 0.82304 0.08517 0.0
O62 O 0.15391 0.82738 0.10889 0.0
C63 C 0.10206 0.77456 0.09084 0.0
C64 C 0.06649 0.81491 0.14334 0.0
C65 C 0.1506 0.82785 0.13124 0.0
O66 O 0.09557 0.78628 0.11026 0.0
O67 O 0.11381 0.78629 0.0768 0.0
O68 O 0.10083 0.85979 0.13075 0.0
O69 O 0.10254 0.8385 0.09453 0.0
Co70 Co 0.53067 0.77642 0.42689 0.0
O71 O 0.56304 0.78218 0.43043 0.0
O72 O 0.54176 0.7632 0.3965 0.0
C73 C 0.52959 0.8168 0.44453 0.0
O74 O 0.49733 0.76938 0.41306 0.0
Co75 Co 0.50226 0.77892 0.46753 0.0
O76 O 0.47832 0.78225 0.44354 0.0
C77 C 0.5227 0.73568 0.45925 0.0
C78 C 0.5617 0.7719 0.40738 0.0
C79 C 0.47959 0.77557 0.42068 0.0
O80 O 0.52861 0.74277 0.43911 0.0
O81 O 0.51283 0.74877 0.47415 0.0
O82 O 0.53286 0.8104 0.42173 0.0
O83 O 0.52832 0.79903 0.45687 0.0
Co84 Co 0.5976 0.32232 0.62379 0.0
O85 O 0.56515 0.31693 0.62052 0.0
O86 O 0.58538 0.31433 0.65337 0.0
C87 C 0.60188 0.35926 0.60798 0.0
O88 O 0.63054 0.32668 0.63785 0.0
Co89 Co 0.62695 0.32296 0.58518 0.0
O90 O 0.65356 0.32799 0.60897 0.0
C91 C 0.60276 0.2738 0.59071 0.0
C92 C 0.56585 0.31328 0.64295 0.0
C93 C 0.65026 0.32786 0.63123 0.0
O94 O 0.59559 0.28513 0.60989 0.0
O95 O 0.61458 0.28598 0.57704 0.0
O96 O 0.59977 0.35853 0.6309 0.0
O97 O 0.60188 0.33771 0.59464 0.0
Co98 Co 0.03081 0.27788 0.92606 0.0
O99 O 0.06319 0.28424 0.92937 0.0
O100 O 0.04183 0.26545 0.89541 0.0
C101 C 0.02902 0.31774 0.94456 0.0
O102 O 0.9974 0.27031 0.91248 0.0
Co103 Co 1.00278 0.27833 0.96698 0.0
O104 O 0.9782 0.28125 0.94348 0.0
C105 C 0.02465 0.23647 0.95766 0.0
C106 C 0.06178 0.27418 0.90625 0.0
C107 C 0.97943 0.27547 0.92051 0.0
O108 O 0.02959 0.24406 0.93748 0.0
O109 O 0.01478 0.24884 0.97322 0.0
O110 O 0.03227 0.31198 0.92166 0.0
O111 O 0.02826 0.29968 0.95648 0.0
Co112 Co 0.41973 0.05731 0.3207 0.0
O113 O 0.42046 0.09122 0.31831 0.0
O114 O 0.39098 0.06 0.30825 0.0
C115 C 0.43833 0.06531 0.35811 0.0
O116 O 0.41203 0.02051 0.32056 0.0
Co117 Co 0.46226 0.03664 0.32631 0.0
O118 O 0.44172 1.00488 0.32783 0.0
C119 C 0.4478 0.04948 0.27962 0.0
C120 C 0.39973 0.08334 0.30965 0.0
C121 C 0.42088 1.00239 0.32356 0.0
O122 O 0.42864 0.05066 0.28649 0.0
O123 O 0.46398 0.04702 0.29371 0.0
O124 O 0.41721 0.06459 0.35609 0.0
O125 O 0.44749 0.06288 0.33803 0.0
Co126 Co 0.30418 0.18664 0.50813 0.0
O127 O 0.33616 0.19053 0.51353 0.0
O128 O 0.3114 0.15772 0.518 0.0
C129 C 0.3038 0.1998 0.47162 0.0
O130 O 0.27053 0.17402 0.50346 0.0
Co131 Co 0.28091 0.22942 0.50534 0.0
O132 O 0.253 0.20357 0.49659 0.0
C133 C 0.29871 0.22352 0.55388 0.0
C134 C 0.33212 0.16843 0.51859 0.0
C135 C 0.25269 0.18129 0.49855 0.0
O136 O 0.30318 0.20282 0.54374 0.0
O137 O 0.29143 0.23781 0.54142 0.0
O138 O 0.30508 0.17721 0.4726 0.0
O139 O 0.30431 0.21415 0.49269 0.0
Co140 Co 0.18781 1.01045 0.77791 0.0
O141 O 0.18523 0.9728 0.77529 0.0
O142 O 0.215 0.99631 0.76929 0.0
C143 C 0.17101 0.01666 0.81717 0.0
O144 O 0.20244 0.04915 0.78093 0.0
Co145 Co 0.15325 0.04125 0.78134 0.0
O146 O 0.17708 0.07194 0.7871 0.0
C147 C 0.15776 0.01718 0.73046 0.0
C148 C 0.20583 0.97389 0.77125 0.0
C149 C 0.19708 0.07076 0.78457 0.0
O150 O 0.1744 1.00858 0.73971 0.0
O151 O 0.14668 0.02904 0.74492 0.0
O152 O 0.19133 0.01431 0.81558 0.0
O153 O 0.16124 0.01454 0.79539 0.0
Co154 Co 0.32583 0.946 0.02294 0.0
O155 O 0.29581 0.94856 0.02631 0.0
O156 O 0.325 0.98008 0.03582 0.0
C157 C 0.31964 0.92222 0.98517 0.0
O158 O 0.359 0.95045 0.02083 0.0
Co159 Co 0.33861 0.89459 0.01657 0.0
O160 O 0.36721 0.91331 0.00863 0.0
C161 C 0.32606 0.91783 0.0638 0.0
C162 C 0.30365 0.9721 0.03449 0.0
C163 C 0.37261 0.93694 0.01344 0.0
O164 O 0.32874 0.93889 0.05711 0.0
O165 O 0.32671 0.8976 0.04936 0.0
O166 O 0.3218 0.94608 0.98779 0.0
O167 O 0.31904 0.91365 1.00513 0.0
Co168 Co 0.3238 0.4013 0.03402 0.0
O169 O 0.29192 0.39768 0.02945 0.0
O170 O 0.31553 0.43175 0.04858 0.0
C171 C 0.327 0.3846 0.99428 0.0
O172 O 0.35761 0.41361 0.04083 0.0
Co173 Co 0.34643 0.35705 0.02595 0.0
O174 O 0.37374 0.38263 0.0261 0.0
C175 C 0.32438 0.36717 0.07115 0.0
C176 C 0.2952 0.42082 0.04012 0.0
C177 C 0.37488 0.40542 0.03494 0.0
O178 O 0.32168 0.388 0.06602 0.0
O179 O 0.33225 0.35166 0.05648 0.0
O180 O 0.32584 0.40761 1.00069 0.0
O181 O 0.32464 0.37192 0.01152 0.0
Co182 Co 0.79922 0.13721 0.01124 0.0
O183 O 0.82994 0.13666 0.01537 0.0
O184 O 0.80262 0.10637 0.02051 0.0
C185 C 0.80094 0.15034 0.97529 0.0
O186 O 0.76547 0.13125 0.0079 0.0
Co187 Co 0.7848 0.18672 0.00779 0.0
O188 O 0.75497 0.16489 0.99886 0.0
C189 C 0.79735 0.17563 0.05634 0.0
C190 C 0.82377 0.1147 0.02019 0.0
C191 C 0.75044 0.14268 1.00234 0.0
O192 O 0.80058 0.15424 0.04667 0.0
O193 O 0.79223 0.19117 0.04399 0.0
O194 O 0.79846 0.12688 0.97551 0.0
O195 O 0.80365 0.16485 0.99645 0.0
Co196 Co 0.206 0.5322 0.25139 0.0
O197 O 0.20797 0.49813 0.24714 0.0
O198 O 0.23388 0.52879 0.23969 0.0
C199 C 0.19321 0.53418 0.28825 0.0
O200 O 0.2109 0.5695 0.25472 0.0
Co201 Co 0.16201 0.54953 0.25769 0.0
O202 O 0.18076 0.58375 0.2645 0.0
C203 C 0.16964 0.51988 0.2111 0.0
C204 C 0.22758 0.50547 0.24058 0.0
C205 C 0.20113 0.58736 0.26087 0.0
O206 O 0.1907 0.52585 0.21713 0.0
O207 O 0.1556 0.5246 0.22609 0.0
O208 O 0.21442 0.5372 0.28693 0.0
O209 O 0.1809 0.52895 0.26772 0.0
Co210 Co 0.82762 0.90029 0.53254 0.0
O211 O 0.79576 0.89544 0.52665 0.0
O212 O 0.81804 0.93016 0.54653 0.0
C213 C 0.83219 0.88404 0.49324 0.0
O214 O 0.86127 0.91347 0.54059 0.0
Co215 Co 0.85115 0.85669 0.52561 0.0
O216 O 0.8784 0.88283 0.52756 0.0
C217 C 0.82746 0.8661 0.56957 0.0
C218 C 0.79808 0.91845 0.53726 0.0
C219 C 0.87897 0.90557 0.53602 0.0
O220 O 0.82487 0.88691 0.56435 0.0
O221 O 0.83579 0.85073 0.55528 0.0
O222 O 0.83046 0.90688 0.49946 0.0
O223 O 0.82958 0.87124 0.51037 0.0
Co224 Co 0.94319 0.07928 0.28248 0.0
O225 O 0.94621 0.11728 0.28726 0.0
O226 O 0.91547 0.09211 0.2742 0.0
C227 C 0.96232 0.0763 0.3218 0.0
O228 O 0.92833 0.04035 0.27665 0.0
Co229 Co 0.97843 0.04859 0.27964 0.0
O230 O 0.95467 0.01949 0.28223 0.0
C231 C 0.97117 0.06955 0.23554 0.0
C232 C 0.92528 0.11537 0.28044 0.0
C233 C 0.93421 0.01966 0.27881 0.0
O234 O 0.95412 0.07689 0.24561 0.0
O235 O 0.98382 0.05943 0.2475 0.0
O236 O 0.94243 0.08041 0.31956 0.0
O237 O 0.97071 0.07638 0.30108 0.0
Co238 Co 0.30117 0.64003 0.5135 0.0
O239 O 0.33252 0.64246 0.51519 0.0
O240 O 0.30866 0.61091 0.52376 0.0
C241 C 0.29922 0.65099 0.47633 0.0
O242 O 0.26731 0.63193 0.51376 0.0
Co243 Co 0.28345 0.68763 0.50864 0.0
O244 O 0.25428 0.66461 0.50576 0.0
C245 C 0.29974 0.6798 0.5575 0.0
C246 C 0.32912 0.62112 0.5216 0.0
C247 C 0.25129 0.64294 0.5107 0.0
O248 O 0.30404 0.65873 0.54853 0.0
O249 O 0.29286 0.69396 0.5446 0.0
O250 O 0.29821 0.62796 0.4776 0.0
O251 O 0.30239 0.66626 0.497 0.0
Co252 Co 0.44162 0.57956 0.78155 0.0
O253 O 0.44409 0.61749 0.78723 0.0
O254 O 0.41414 0.59196 0.77161 0.0
C255 C 0.45985 0.57665 0.82132 0.0
O256 O 0.42714 0.54051 0.77516 0.0
Co257 Co 0.47723 0.54938 0.78018 0.0
O258 O 0.45351 0.52028 0.78271 0.0
C259 C 0.47084 0.57034 0.73572 0.0
C260 C 0.42344 0.61527 0.779 0.0
C261 C 0.43308 0.52009 0.77823 0.0
O262 O 0.45352 0.57764 0.74513 0.0
O263 O 0.48316 0.56033 0.74825 0.0
O264 O 0.43983 0.58029 0.81846 0.0
O265 O 0.46874 0.57696 0.80095 0.0
Co266 Co 0.69427 0.03566 0.76592 0.0
O267 O 0.69257 1.00097 0.76482 0.0
O268 O 0.72044 0.02677 0.7536 0.0
C269 C 0.68339 0.04323 0.80375 0.0
O270 O 0.70279 0.07254 0.76558 0.0
Co271 Co 0.65344 0.05918 0.77152 0.0
O272 O 0.67486 0.09136 0.77426 0.0
C273 C 0.65712 0.02514 0.72593 0.0
C274 C 0.71199 1.00458 0.75693 0.0
C275 C 0.69486 0.0921 0.76989 0.0
O276 O 0.678 0.02785 0.73192 0.0
O277 O 0.64419 0.03358 0.74057 0.0
O278 O 0.70405 0.04306 0.80129 0.0
O279 O 0.67023 0.03768 0.78376 0.0
Co280 Co 0.80012 0.68818 0.00756 0.0
O281 O 0.8321 0.69189 0.01308 0.0
O282 O 0.80721 0.65898 0.01698 0.0
C283 C 0.80019 0.70208 0.97138 0.0
O284 O 0.76641 0.67552 1.00267 0.0
Co285 Co 0.77678 0.73093 1.00501 0.0
O286 O 0.74883 0.70516 0.99623 0.0
C287 C 0.79485 0.72489 0.05342 0.0
C288 C 0.82796 0.66963 0.01773 0.0
C289 C 0.74853 0.68281 0.99794 0.0
O290 O 0.79903 0.70402 0.04328 0.0
O291 O 0.78771 0.73927 0.04096 0.0
O292 O 0.80124 0.67935 0.97198 0.0
O293 O 0.80045 0.71605 0.9926 0.0
Co294 Co 0.92186 0.55816 0.81726 0.0
O295 O 0.92261 0.59233 0.81614 0.0
O296 O 0.89403 0.56073 0.80212 0.0
C297 C 0.93712 0.56461 0.85596 0.0
O298 O 0.9143 0.52102 0.81531 0.0
Co299 Co 0.96422 0.5383 0.8264 0.0
O300 O 0.94356 0.50594 0.82571 0.0
C301 C 0.95422 0.55427 0.78004 0.0
C302 C 0.90256 0.58434 0.80526 0.0
C303 C 0.92297 0.50302 0.8192 0.0
O304 O 0.93412 0.55376 0.78462 0.0
O305 O 0.96924 0.5517 0.79564 0.0
O306 O 0.91601 0.56337 0.85181 0.0
O307 O 0.94816 0.56359 0.83721 0.0
Co308 Co 0.82872 0.44685 0.51968 0.0
O309 O 0.7986 0.4499 0.52094 0.0
O310 O 0.82796 0.48091 0.53296 0.0
C311 C 0.82394 0.42365 0.48162 0.0
O312 O 0.86214 0.45082 0.5195 0.0
Co313 Co 0.84041 0.39489 0.51356 0.0
O314 O 0.86932 0.41336 0.50612 0.0
C315 C 0.82617 0.41762 0.56 0.0
C316 C 0.80651 0.47328 0.52982 0.0
C317 C 0.87536 0.43694 0.51169 0.0
O318 O 0.82952 0.43889 0.55366 0.0
O319 O 0.82715 0.39754 0.54554 0.0
O320 O 0.82667 0.4476 0.48451 0.0
O321 O 0.82208 0.41478 0.50133 0.0
Co322 Co 0.68685 0.51094 0.27726 0.0
O323 O 0.68471 0.47306 0.27344 0.0
O324 O 0.71474 0.49764 0.27011 0.0
C325 C 0.66899 0.51644 0.31593 0.0
O326 O 0.70132 0.54975 0.28111 0.0
Co327 Co 0.652 0.54174 0.28052 0.0
O328 O 0.67584 0.57246 0.28674 0.0
C329 C 0.6571 0.51794 0.22969 0.0
C330 C 0.7057 0.47484 0.27081 0.0
C331 C 0.69591 0.57133 0.28465 0.0
O332 O 0.67397 0.50964 0.23894 0.0
O333 O 0.64574 0.5294 0.24414 0.0
O334 O 0.68933 0.51405 0.31488 0.0
O335 O 0.65978 0.51463 0.29397 0.0
Eu336 Eu 0.04221 0.02652 0.00861 0.0
C337 C 0.0999 0.11998 0.07474 0.0
C338 C 0.10321 0.14989 0.04812 0.0
C339 C 0.1052 0.16388 0.09228 0.0
C340 C 0.09974 0.12512 0.05142 0.0
C341 C 0.10336 0.13936 0.0955 0.0
C342 C 0.10514 0.16914 0.06859 0.0
C343 C 0.10595 0.10932 0.12099 0.0
N344 N 0.09864 0.09621 0.07717 0.0
C345 C 0.10265 0.09079 0.09983 0.0
C346 C 0.10589 0.13366 0.11885 0.0
Eu347 Eu 0.09183 0.0654 0.04062 0.0
N348 N 0.09827 0.10612 0.03214 0.0
C349 C 0.10263 0.11093 0.0095 0.0
C350 C 0.10579 0.15467 0.02453 0.0
C351 C 0.10601 0.13514 1.00524 0.0
H352 H 0.1026 0.07198 0.10164 0.0
H353 H 0.10867 0.13868 0.98705 0.0
H354 H 0.10749 0.18824 0.06639 0.0
H355 H 0.1085 0.1048 0.13892 0.0
H356 H 0.10274 0.09608 0.99433 0.0
H357 H 0.02387 0.95433 0.06348 0.0
H358 H 0.10847 0.17341 0.02121 0.0
H359 H 0.03172 0.0187 0.94745 0.0
H360 H 0.03028 0.99652 0.05546 0.0
H361 H 0.02564 0.98531 0.91067 0.0
H362 H 0.10758 0.17899 0.10799 0.0
H363 H 0.02399 0.91899 0.02997 0.0
H364 H 0.02504 0.9033 0.98499 0.0
H365 H 0.10859 0.14801 0.13525 0.0
H366 H 0.02529 0.91174 0.9431 0.0
N367 N 0.03509 0.98591 0.01777 0.0
C368 C 0.03042 0.98154 0.04049 0.0
C369 C 0.02692 0.93761 0.0263 0.0
C370 C 0.02972 0.9419 1.00259 0.0
C371 C 0.02675 0.95748 0.04521 0.0
C372 C 0.03352 0.96654 0.99884 0.0
H373 H 0.02486 0.94218 0.91516 0.0
N374 N 0.03496 0.99487 0.97256 0.0
C375 C 0.02794 0.98107 0.92875 0.0
C376 C 0.0335 0.97121 0.9754 0.0
C377 C 0.0313 0.9999 0.94965 0.0
C378 C 0.02763 0.95679 0.93136 0.0
C379 C 0.02993 0.9515 0.9549 0.0
O380 O 0.01243 0.03046 0.98788 0.0
O381 O 0.05969 0.0669 0.02057 0.0
O382 O 0.06556 0.07076 0.06851 0.0
O383 O 0.03649 0.03809 0.05046 0.0
O384 O 0.04587 0.05549 0.9846 0.0
O385 O 0.0113 0.02574 0.02543 0.0
O386 O 0.12002 0.05588 0.05928 0.0
O387 O 0.07448 0.0247 0.02845 0.0
O388 O 0.06827 0.02299 0.97993 0.0
O389 O 0.09846 0.0536 0.99918 0.0
O390 O 0.08746 0.03687 0.06483 0.0
O391 O 0.12475 0.07387 0.02824 0.0
C392 C 0.0561 0.07457 1.00063 0.0
C393 C 0.97751 0.01378 0.99987 0.0
C394 C 0.93801 0.01309 0.99911 0.0
C395 C 0.96028 0.02577 1.00518 0.0
C396 C 0.93332 0.98774 0.98823 0.0
C397 C 0.97265 0.98857 0.98896 0.0
C398 C 0.95057 0.9756 0.98328 0.0
C399 C 0.04581 0.05617 0.06971 0.0
C400 C 1.00026 0.02844 1.00584 0.0
C401 C 0.02777 0.92709 0.95858 0.0
C402 C 0.02766 0.92229 0.98243 0.0
C403 C 0.07769 0.01753 0.04883 0.0
C404 C 0.15586 0.07904 0.05713 0.0
C405 C 0.17328 0.06678 0.05648 0.0
C406 C 0.19457 0.07896 0.06775 0.0
C407 C 0.19824 0.10398 0.07948 0.0
C408 C 0.15961 0.10391 0.06904 0.0
C409 C 0.1808 0.11632 0.08014 0.0
C410 C 0.08859 0.03666 0.97932 0.0
C411 C 0.13407 0.06506 0.04522 0.0
H412 H 0.96436 0.04515 0.01412 0.0
H413 H 0.91639 0.97742 0.98308 0.0
H414 H 0.98584 0.97904 0.98483 0.0
H415 H 0.94681 0.95614 0.97477 0.0
H416 H 0.17022 0.04764 0.04687 0.0
H417 H 0.21444 0.11386 0.08841 0.0
H418 H 0.14628 0.11365 0.0697 0.0
H419 H 0.1837 0.13552 0.08934 0.0
Eu420 Eu 0.32268 0.78134 0.25047 0.0
C421 C 0.30871 0.86858 0.31445 0.0
C422 C 0.33663 0.88417 0.34925 0.0
C423 C 0.32346 0.9131 0.32768 0.0
C424 C 0.32248 0.86416 0.33272 0.0
C425 C 0.30851 0.89324 0.31228 0.0
C426 C 0.33755 0.90856 0.34612 0.0
C427 C 0.27675 0.87721 0.2824 0.0
N428 N 0.29443 0.84892 0.2999 0.0
C429 C 0.27741 0.85327 0.28554 0.0
C430 C 0.29276 0.89728 0.29534 0.0
Eu431 Eu 0.2984 0.80809 0.30444 0.0
N432 N 0.32096 0.84041 0.33543 0.0
C433 C 0.33109 0.83585 0.35622 0.0
C434 C 0.34886 0.87915 0.36896 0.0
C435 C 0.34566 0.85492 0.37278 0.0
H436 H 0.26352 0.83879 0.27708 0.0
H437 H 0.35416 0.85092 0.38869 0.0
H438 H 0.34859 0.92409 0.35835 0.0
H439 H 0.2635 0.88019 0.27047 0.0
H440 H 0.32798 0.81744 0.36023 0.0
H441 H 0.25135 0.73068 0.18352 0.0
H442 H 0.35998 0.89396 0.38194 0.0
H443 H 0.36363 0.75508 0.27197 0.0
H444 H 0.28046 0.76616 0.20288 0.0
H445 H 0.36802 0.71509 0.27974 0.0
H446 H 0.32379 0.93205 0.32595 0.0
H447 H 0.251 0.68945 0.19313 0.0
H448 H 0.26986 0.66275 0.2144 0.0
H449 H 0.29207 0.91587 0.29311 0.0
H450 H 0.30164 0.65847 0.24055 0.0
N451 N 0.29533 0.74694 0.22703 0.0
C452 C 0.28003 0.74904 0.20906 0.0
C453 C 0.2636 0.70534 0.20253 0.0
C454 C 0.28053 0.70264 0.21887 0.0
C455 C 0.26366 0.72857 0.1972 0.0
C456 C 0.29653 0.72399 0.2308 0.0
H457 H 0.33819 0.67775 0.26492 0.0
N458 N 0.32988 0.74226 0.25622 0.0
C459 C 0.35256 0.71666 0.27068 0.0
C460 C 0.31433 0.72158 0.24571 0.0
C461 C 0.3496 0.7397 0.26689 0.0
C462 C 0.33579 0.69564 0.26215 0.0
C463 C 0.31668 0.69777 0.24881 0.0
O464 O 0.35692 0.78537 0.24194 0.0
O465 O 0.32494 0.81427 0.28018 0.0
O466 O 0.27487 0.80273 0.26875 0.0
O467 O 0.29514 0.79755 0.23521 0.0
O468 O 0.32779 0.82118 0.2452 0.0
O469 O 0.33049 0.77783 0.21248 0.0
O470 O 0.26262 0.80027 0.30633 0.0
O471 O 0.29655 0.77403 0.27571 0.0
O472 O 0.34799 0.78796 0.28483 0.0
O473 O 0.32977 0.79725 0.31946 0.0
O474 O 0.29932 0.77055 0.31241 0.0
O475 O 0.28469 0.80629 0.33943 0.0
C476 C 0.32839 0.83119 0.268 0.0
C477 C 0.36465 0.80397 0.20799 0.0
C478 C 0.36715 0.84115 0.19035 0.0
C479 C 0.35463 0.82168 0.19972 0.0
C480 C 0.39 0.84269 0.18951 0.0
C481 C 0.38742 0.80585 0.20695 0.0
C482 C 0.40001 0.82515 0.19778 0.0
C483 C 0.27716 0.80207 0.245 0.0
C484 C 0.35183 0.78403 0.21861 0.0
C485 C 0.30025 0.67676 0.23799 0.0
C486 C 0.28218 0.6792 0.22309 0.0
C487 C 0.29636 0.75876 0.28992 0.0
C488 C 0.25121 0.77574 0.33533 0.0
C489 C 0.2614 0.75996 0.3468 0.0
C490 C 0.24886 0.73794 0.35202 0.0
C491 C 0.22588 0.73168 0.34515 0.0
C492 C 0.22827 0.76918 0.32879 0.0
C493 C 0.21572 0.74722 0.3336 0.0
C494 C 0.34716 0.79144 0.30904 0.0
C495 C 0.26433 0.79861 0.32935 0.0
H496 H 0.33707 0.82036 0.20065 0.0
H497 H 0.40009 0.85704 0.18185 0.0
H498 H 0.39545 0.79244 0.21333 0.0
H499 H 0.41756 0.82643 0.19691 0.0
H500 H 0.27914 0.76478 0.35164 0.0
H501 H 0.21563 0.71515 0.34928 0.0
H502 H 0.22007 0.78101 0.31987 0.0
H503 H 0.198 0.74233 0.32857 0.0
Eu504 Eu 0.59267 0.0447 0.51598 0.0
C505 C 0.51492 0.99786 0.56333 0.0
C506 C 0.4958 0.96582 0.52905 0.0
C507 C 0.49308 0.95922 0.57087 0.0
C508 C 0.50969 0.98939 0.53821 0.0
C509 C 0.50611 0.98315 0.57993 0.0
C510 C 0.48798 0.95055 0.54548 0.0
C511 C 0.52163 0.01784 0.61315 0.0
N512 N 0.52736 0.02115 0.57156 0.0
C513 C 0.52997 0.03174 0.59597 0.0
C514 C 0.50996 0.9933 0.60513 0.0
Eu515 Eu 0.54031 0.04329 0.54117 0.0
N516 N 0.51723 1.00466 0.52279 0.0
C517 C 0.5105 0.99825 0.49823 0.0
C518 C 0.48967 0.95859 0.5037 0.0
C519 C 0.49678 0.97505 0.48827 0.0
H520 H 0.539 0.05073 0.60212 0.0
H521 H 0.49179 0.96984 0.46871 0.0
H522 H 0.47746 0.93229 0.53878 0.0
H523 H 0.52418 0.02605 0.63253 0.0
H524 H 0.51596 1.01093 0.48632 0.0
H525 H 0.64675 0.12156 0.58227 0.0
H526 H 0.47905 0.94062 0.49594 0.0
H527 H 0.58984 0.0375 0.45339 0.0
H528 H 0.62588 0.0791 0.56745 0.0
H529 H 0.59643 0.06363 0.42244 0.0
H530 H 0.48636 0.94754 0.58334 0.0
H531 H 0.65043 0.15172 0.5547 0.0
H532 H 0.64368 0.16019 0.5126 0.0
H533 H 0.50342 0.98261 0.61846 0.0
H534 H 0.62981 0.14447 0.46908 0.0
N535 N 0.61592 0.08473 0.5317 0.0
C536 C 0.62662 0.09178 0.55502 0.0
C537 C 0.64091 0.13296 0.54799 0.0
C538 C 0.63148 0.1252 0.52362 0.0
C539 C 0.63885 0.11601 0.5636 0.0
C540 C 0.61912 0.10056 0.5158 0.0
H541 H 0.61259 0.10851 0.43531 0.0
N542 N 0.60073 0.06753 0.48404 0.0
C543 C 0.6004 0.07187 0.44176 0.0
C544 C 0.61117 0.09175 0.49131 0.0
C545 C 0.59658 0.05717 0.45947 0.0
C546 C 0.60949 0.09718 0.44909 0.0
C547 C 0.61554 0.10731 0.47404 0.0
O548 O 0.6105 0.02462 0.48952 0.0
O549 O 0.5583 0.02019 0.51537 0.0
O550 O 0.56177 0.02728 0.56584 0.0
O551 O 0.59637 0.04564 0.55662 0.0
O552 O 0.58507 1.00468 0.52037 0.0
O553 O 0.62305 0.03439 0.52803 0.0
O554 O 0.5223 0.06849 0.56159 0.0
O555 O 0.57109 0.06927 0.53432 0.0
O556 O 0.56487 0.03854 0.48518 0.0
O557 O 0.54219 0.05973 0.50707 0.0
O558 O 0.56084 0.07564 0.56919 0.0
O559 O 0.50907 0.04903 0.52499 0.0
C560 C 0.56389 1.0002 0.51835 0.0
C561 C 0.64904 0.02727 0.49979 0.0
C562 C 0.68496 0.01569 0.50217 0.0
C563 C 0.66266 0.01204 0.50712 0.0
C564 C 0.69333 0.03446 0.48944 0.0
C565 C 0.65773 0.04582 0.48702 0.0
C566 C 0.67975 0.04926 0.48178 0.0
C567 C 0.58358 0.03278 0.56993 0.0
C568 C 0.62603 0.02369 0.5061 0.0
C569 C 0.62662 0.1322 0.48204 0.0
C570 C 0.63456 0.14114 0.50679 0.0
C571 C 0.57467 0.08458 0.55488 0.0
C572 C 0.48335 0.06067 0.55194 0.0
C573 C 0.46875 0.07511 0.54505 0.0
C574 C 0.44705 0.07166 0.55225 0.0
C575 C 0.44053 0.05385 0.56679 0.0
C576 C 0.47618 0.04291 0.56615 0.0
C577 C 0.45495 0.03963 0.57358 0.0
C578 C 0.54937 0.05145 0.48623 0.0
C579 C 0.50599 0.06427 0.54433 0.0
H580 H 0.65606 0.99774 0.5171 0.0
H581 H 0.71038 0.03757 0.48531 0.0
H582 H 0.64756 0.05769 0.48124 0.0
H583 H 0.68637 0.06358 0.47188 0.0
H584 H 0.47417 0.08866 0.53383 0.0
H585 H 0.42425 0.051 0.57316 0.0
H586 H 0.48698 0.03164 0.57161 0.0
H587 H 0.44964 0.026 0.58472 0.0
Eu588 Eu 0.28825 0.30297 0.77262 0.0
C589 C 0.35911 0.25768 0.82229 0.0
C590 C 0.37474 0.2888 0.85847 0.0
C591 C 0.37332 0.24539 0.85885 0.0
C592 C 0.36416 0.28208 0.83423 0.0
C593 C 0.36443 0.23912 0.8341 0.0
C594 C 0.37846 0.27024 0.87104 0.0
C595 C 0.35513 0.21049 0.79514 0.0
N596 N 0.3512 0.25249 0.79825 0.0
C597 C 0.3502 0.22958 0.78427 0.0
C598 C 0.36181 0.21514 0.82031 0.0
Eu599 Eu 0.34208 0.28526 0.78094 0.0
N600 N 0.36095 0.29948 0.82122 0.0
C601 C 0.37033 0.32393 0.83037 0.0
C602 C 0.38246 0.31397 0.86876 0.0
C603 C 0.38075 0.33158 0.8544 0.0
H604 H 0.3449 0.22585 0.76482 0.0
H605 H 0.38741 0.35107 0.86182 0.0
H606 H 0.38627 0.27501 0.88978 0.0
H607 H 0.35371 0.19221 0.78412 0.0
H608 H 0.36919 0.33783 0.81961 0.0
H609 H 0.24542 0.23281 0.69326 0.0
H610 H 0.39066 0.31992 0.8873 0.0
H611 H 0.28529 0.36246 0.78532 0.0
H612 H 0.26355 0.24827 0.73521 0.0
H613 H 0.27572 0.39442 0.76396 0.0
H614 H 0.37723 0.23136 0.86837 0.0
H615 H 0.24005 0.26221 0.66646 0.0
H616 H 0.24254 0.30634 0.66201 0.0
H617 H 0.36577 0.20038 0.82867 0.0
H618 H 0.25073 0.35058 0.68137 0.0
N619 N 0.26952 0.28638 0.73245 0.0
C620 C 0.26145 0.26152 0.72399 0.0
C621 C 0.24816 0.26919 0.68496 0.0
C622 C 0.25482 0.29466 0.69433 0.0
C623 C 0.25108 0.25256 0.70005 0.0
C624 C 0.26538 0.30274 0.71854 0.0
H625 H 0.26257 0.38355 0.7196 0.0
N626 N 0.27831 0.33406 0.75322 0.0
C627 C 0.27417 0.37569 0.75392 0.0
C628 C 0.27 0.32748 0.7293 0.0
C629 C 0.2795 0.35755 0.76596 0.0
C630 C 0.26685 0.36951 0.72887 0.0
C631 C 0.2642 0.34503 0.71635 0.0
O632 O 0.26682 0.31854 0.7981 0.0
O633 O 0.31506 0.29924 0.79992 0.0
O634 O 0.31588 0.25216 0.78906 0.0
O635 O 0.28282 0.26119 0.77493 0.0
O636 O 0.30224 0.33095 0.80692 0.0
O637 O 0.2572 0.2803 0.78048 0.0
O638 O 0.36195 0.27144 0.75256 0.0
O639 O 0.31565 0.28989 0.75366 0.0
O640 O 0.31482 0.33641 0.76554 0.0
O641 O 0.34773 0.32744 0.78027 0.0
O642 O 0.32734 0.25754 0.74666 0.0
O643 O 0.37481 0.30675 0.77607 0.0
C644 C 0.31611 0.31939 0.81502 0.0
C645 C 0.22828 0.3006 0.79116 0.0
C646 C 0.19051 0.29643 0.80376 0.0
C647 C 0.21287 0.29474 0.80818 0.0
C648 C 0.18422 0.3046 0.78241 0.0
C649 C 0.22126 0.30847 0.77007 0.0
C650 C 0.19943 0.31055 0.76583 0.0
C651 C 0.29396 0.24564 0.78286 0.0
C652 C 0.25156 0.29826 0.79507 0.0
C653 C 0.25504 0.33735 0.69173 0.0
C654 C 0.25037 0.31217 0.68072 0.0
C655 C 0.3142 0.26981 0.73833 0.0
C656 C 0.40099 0.28426 0.76048 0.0
C657 C 0.4168 0.29076 0.74405 0.0
C658 C 0.43801 0.28517 0.74652 0.0
C659 C 0.44264 0.27244 0.76518 0.0
C660 C 0.40647 0.27201 0.77903 0.0
C661 C 0.42706 0.266 0.78122 0.0
C662 C 0.33667 0.34306 0.77233 0.0
C663 C 0.37881 0.29017 0.75847 0.0
H664 H 0.21814 0.28845 0.82443 0.0
H665 H 0.16743 0.3066 0.77856 0.0
H666 H 0.23268 0.31299 0.75683 0.0
H667 H 0.19424 0.31678 0.74952 0.0
H668 H 0.41277 0.30049 0.72983 0.0
H669 H 0.45842 0.26729 0.76739 0.0
H670 H 0.3948 0.26704 0.79187 0.0
H671 H 0.43102 0.25634 0.79551 0.0
Eu672 Eu 0.06074 0.07023 0.53671 0.0
C673 C 0.08062 1.00435 0.44839 0.0
C674 C 0.04466 0.99295 0.42459 0.0
C675 C 0.07794 0.99537 0.40369 0.0
C676 C 0.05779 1.00012 0.4475 0.0
C677 C 0.09089 1.00129 0.42647 0.0
C678 C 0.05487 0.99124 0.40275 0.0
C679 C 0.12581 1.0075 0.45106 0.0
N680 N 0.09272 1.00988 0.47064 0.0
C681 C 0.11489 1.01023 0.47223 0.0
C682 C 0.11381 1.00343 0.42807 0.0
Eu683 Eu 0.07316 0.01566 0.50581 0.0
N684 N 0.04836 1.00175 0.46894 0.0
C685 C 0.02583 0.99474 0.46854 0.0
C686 C 0.02163 0.98712 0.42423 0.0
C687 C 0.0122 0.98767 0.44631 0.0
H688 H 0.12427 0.01338 0.49001 0.0
H689 H 0.9944 0.98278 0.44624 0.0
H690 H 0.04504 0.98607 0.38504 0.0
H691 H 0.14345 1.00852 0.4525 0.0
H692 H 0.01792 0.99519 0.48518 0.0
H693 H 0.12424 0.09714 0.6157 0.0
H694 H 0.01101 0.98164 0.40703 0.0
H695 H 0.00898 0.07964 0.53521 0.0
H696 H 0.11008 0.08631 0.57209 0.0
H697 H 0.98167 0.08803 0.56399 0.0
H698 H 0.08557 0.99325 0.38669 0.0
H699 H 0.09838 0.10027 0.64749 0.0
H700 H 0.05961 0.10008 0.65775 0.0
H701 H 0.12228 1.00119 0.41166 0.0
H702 H 0.02073 0.09782 0.64365 0.0
N703 N 0.07612 0.08192 0.57858 0.0
C704 C 0.09841 0.08733 0.58553 0.0
C705 C 0.09198 0.09529 0.62825 0.0
C706 C 0.06935 0.09165 0.62103 0.0
C707 C 0.10662 0.09362 0.61038 0.0
C708 C 0.06187 0.08517 0.59571 0.0
H709 H 0.99164 0.09385 0.60875 0.0
N710 N 0.03397 0.07967 0.56329 0.0
C711 C 0.99799 0.08678 0.57094 0.0
C712 C 0.04009 0.08405 0.58781 0.0
C713 C 0.01353 0.08198 0.55468 0.0
C714 C 1.00366 0.08999 0.59618 0.0
C715 C 0.02506 0.08914 0.60495 0.0
O716 O 0.05147 0.09832 0.51816 0.0
O717 O 0.05977 0.04859 0.49715 0.0
O718 O 0.09875 0.04691 0.49655 0.0
O719 O 0.0968 0.0772 0.52954 0.0
O720 O 0.03155 0.05985 0.50676 0.0
O721 O 0.08022 0.10847 0.54469 0.0
O722 O 0.09296 0.98833 0.50913 0.0
O723 O 0.07416 0.03697 0.54508 0.0
O724 O 0.03295 0.0415 0.54587 0.0
O725 O 0.04048 1.00637 0.52216 0.0
O726 O 0.10228 0.02532 0.53605 0.0
O727 O 0.05673 0.97723 0.50673 0.0
C728 C 0.04022 0.04982 0.48821 0.0
C729 C 0.06321 0.1405 0.5363 0.0
C730 C 0.06494 0.18164 0.52708 0.0
C731 C 0.06977 0.15806 0.52166 0.0
C732 C 0.05338 0.18729 0.54758 0.0
C733 C 0.05188 0.14644 0.55669 0.0
C734 C 0.04701 0.16982 0.56228 0.0
C735 C 0.10664 0.06883 0.51064 0.0
C736 C 0.06787 0.11593 0.52918 0.0
C737 C 0.03209 0.09411 0.63021 0.0
C738 C 0.05421 0.09537 0.63823 0.0
C739 C 0.09339 0.03531 0.55447 0.0
C740 C 0.07753 0.9455 0.51024 0.0
C741 C 0.06652 0.93298 0.5272 0.0
C742 C 0.06922 0.90912 0.529 0.0
C743 C 0.08286 0.89794 0.51349 0.0
C744 C 0.0913 0.93421 0.49517 0.0
C745 C 0.09382 0.91045 0.49672 0.0
C746 C 0.02799 0.0175 0.5367 0.0
C747 C 0.07564 0.9708 0.50904 0.0
H748 H 0.07884 0.15332 0.50615 0.0
H749 H 0.04901 0.20509 0.55215 0.0
H750 H 0.04673 0.13304 0.56812 0.0
H751 H 0.03813 0.17439 0.57796 0.0
H752 H 0.05603 0.9418 0.53901 0.0
H753 H 0.08528 0.87962 0.51459 0.0
H754 H 0.10005 0.94377 0.48218 0.0
H755 H 0.10441 0.90176 0.485 0.0
Eu756 Eu 0.33987 0.81403 0.76845 0.0
C757 C 0.28257 0.74806 0.82783 0.0
C758 C 0.29279 0.70851 0.81707 0.0
C759 C 0.27936 0.71987 0.85659 0.0
C760 C 0.29077 0.73151 0.81145 0.0
C761 C 0.27633 0.74218 0.85039 0.0
C762 C 0.28756 0.70306 0.83995 0.0
C763 C 0.26265 0.77967 0.8581 0.0
N764 N 0.27961 0.76934 0.82116 0.0
C765 C 0.26898 0.78465 0.83553 0.0
C766 C 0.26663 0.75853 0.86574 0.0
Eu767 Eu 0.29189 0.77688 0.78296 0.0
N768 N 0.29534 0.73714 0.78934 0.0
C769 C 0.30011 0.71969 0.77129 0.0
C770 C 0.29919 0.69127 0.79918 0.0
C771 C 0.30247 0.69672 0.77603 0.0
H772 H 0.26551 0.80095 0.82995 0.0
H773 H 0.30679 0.68324 0.76179 0.0
H774 H 0.2892 0.68559 0.84466 0.0
H775 H 0.25468 0.79215 0.86959 0.0
H776 H 0.30245 0.72346 0.75319 0.0
H777 H 0.32529 0.90741 0.7956 0.0
H778 H 0.30092 0.67341 0.80277 0.0
H779 H 0.36756 0.79492 0.7216 0.0
H780 H 0.32974 0.86638 0.80145 0.0
H781 H 0.3764 0.805 0.68146 0.0
H782 H 0.27484 0.71515 0.87392 0.0
H783 H 0.32867 0.91891 0.75491 0.0
H784 H 0.33757 0.90805 0.7115 0.0
H785 H 0.26162 0.75467 0.88321 0.0
H786 H 0.35117 0.8798 0.68007 0.0
N787 N 0.33506 0.85406 0.76427 0.0
C788 C 0.33125 0.87095 0.78355 0.0
C789 C 0.3306 0.90076 0.75735 0.0
C790 C 0.3358 0.88399 0.73805 0.0
C791 C 0.32877 0.89438 0.78035 0.0
C792 C 0.33824 0.86061 0.74224 0.0
H793 H 0.36606 0.84148 0.66883 0.0
N794 N 0.35048 0.82386 0.73052 0.0
C795 C 0.36759 0.8162 0.69328 0.0
C796 C 0.34603 0.84487 0.72468 0.0
C797 C 0.36235 0.81037 0.71592 0.0
C798 C 0.36169 0.83678 0.6862 0.0
C799 C 0.35139 0.85186 0.70229 0.0
O800 O 0.37413 0.81045 0.77372 0.0
O801 O 0.32913 0.77754 0.78231 0.0
O802 O 0.31214 0.79178 0.81946 0.0
O803 O 0.33317 0.82578 0.8078 0.0
O804 O 0.35026 0.77714 0.75559 0.0
O805 O 0.36529 0.84369 0.79157 0.0
O806 O 0.25868 0.78237 0.7741 0.0
O807 O 0.30244 0.81347 0.76862 0.0
O808 O 0.32131 0.79588 0.73167 0.0
O809 O 0.29875 0.76306 0.74409 0.0
O810 O 0.28312 0.81414 0.79695 0.0
O811 O 0.26572 0.74651 0.76207 0.0
C812 C 0.34037 0.76336 0.7696 0.0
C813 C 0.40209 0.84681 0.78139 0.0
C814 C 0.44249 0.8581 0.78865 0.0
C815 C 0.4218 0.84668 0.79501 0.0
C816 C 0.44287 0.87029 0.76858 0.0
C817 C 0.4028 0.85934 0.76175 0.0
C818 C 0.42314 0.87107 0.75544 0.0
C819 C 0.32558 0.81378 0.82486 0.0
C820 C 0.38125 0.83236 0.78724 0.0
C821 C 0.34741 0.87426 0.69728 0.0
C822 C 0.33967 0.89034 0.71517 0.0
C823 C 0.29156 0.82765 0.78199 0.0
C824 C 0.22859 0.74819 0.76875 0.0
C825 C 0.21017 0.75346 0.75662 0.0
C826 C 0.18853 0.74327 0.76129 0.0
C827 C 0.1857 0.72784 0.7787 0.0
C828 C 0.2255 0.7328 0.78604 0.0
C829 C 0.20409 0.72269 0.79097 0.0
C830 C 0.30779 0.77391 0.72698 0.0
C831 C 0.25071 0.75958 0.76315 0.0
H832 H 0.42083 0.8375 0.81058 0.0
H833 H 0.45835 0.87889 0.76267 0.0
H834 H 0.38775 0.85987 0.75119 0.0
H835 H 0.42364 0.8805 0.74007 0.0
H836 H 0.2128 0.76584 0.74369 0.0
H837 H 0.16929 0.71944 0.78257 0.0
H838 H 0.23954 0.72863 0.79569 0.0
H839 H 0.20173 0.71075 0.80427 0.0
Eu840 Eu 0.57135 0.04482 0.04625 0.0
C841 C 0.49301 0.04087 0.97448 0.0
C842 C 0.4859 1.00244 0.94487 0.0
C843 C 0.45508 0.01867 0.9604 0.0
C844 C 0.50084 0.02261 0.96022 0.0
C845 C 0.47007 0.03982 0.97378 0.0
C846 C 0.46301 0.9999 0.94601 0.0
C847 C 0.47871 0.08209 0.99619 0.0
N848 N 0.50796 0.06095 0.98705 0.0
C849 C 0.50124 0.08212 0.99628 0.0
C850 C 0.463 0.06056 0.98551 0.0
Eu851 Eu 0.54578 0.05843 0.99022 0.0
N852 N 0.52301 0.02629 0.95906 0.0
C853 C 0.53084 0.01277 0.93997 0.0
C854 C 0.49435 0.98645 0.92768 0.0
C855 C 0.51686 0.99214 0.92466 0.0
H856 H 0.51331 0.09888 1.00457 0.0
H857 H 0.5234 0.98087 0.91033 0.0
H858 H 0.45129 0.98424 0.93477 0.0
H859 H 0.4735 0.09864 1.00439 0.0
H860 H 0.54796 0.01765 0.93666 0.0
H861 H 0.64153 0.12453 0.07328 0.0
H862 H 0.48348 0.9707 0.91557 0.0
H863 H 0.56935 0.98552 0.05103 0.0
H864 H 0.60241 0.10358 0.06269 0.0
H865 H 0.59523 0.95867 0.05655 0.0
H866 H 0.43739 0.0172 0.96014 0.0
H867 H 0.67017 0.09999 0.07424 0.0
H868 H 0.67954 0.05839 0.07113 0.0
H869 H 0.44554 0.06056 0.98537 0.0
H870 H 0.66697 0.01323 0.06645 0.0
N871 N 0.60851 0.06715 0.05698 0.0
C872 C 0.61453 0.09243 0.06301 0.0
C873 C 0.65293 0.09057 0.06954 0.0
C874 C 0.64656 0.06469 0.06478 0.0
C875 C 0.63681 0.10449 0.06908 0.0
C876 C 0.62388 0.05332 0.0587 0.0
H877 H 0.63561 0.976 0.0615 0.0
N878 N 0.59479 0.01758 0.05165 0.0
C879 C 0.60154 0.97802 0.05613 0.0
C880 C 0.61683 0.02782 0.05593 0.0
C881 C 0.58692 0.9933 0.05287 0.0
C882 C 0.62431 0.98786 0.05888 0.0
C883 C 0.63222 0.01314 0.05932 0.0
O884 O 0.54572 0.0438 0.0714 0.0
O885 O 0.54064 0.03969 0.02145 0.0
O886 O 0.53259 0.07226 0.02607 0.0
O887 O 0.56498 0.08335 0.05099 0.0
O888 O 0.54517 1.00863 0.0343 0.0
O889 O 0.57977 0.0501 0.08594 0.0
O890 O 0.55533 0.09885 0.9957 0.0
O891 O 0.57621 0.06796 0.0174 0.0
O892 O 0.57985 0.01811 0.01484 0.0
O893 O 0.55973 0.02354 0.9795 0.0
O894 O 0.58025 0.05965 0.9797 0.0
O895 O 0.54661 0.07712 0.95895 0.0
C896 C 0.53232 0.01716 0.02047 0.0
C897 C 0.55233 0.02982 0.10769 0.0
C898 C 0.52767 0.01896 0.1382 0.0
C899 C 0.5351 0.03412 0.12161 0.0
C900 C 0.53733 0.99877 0.14015 0.0
C901 C 0.5621 1.00987 0.11002 0.0
C902 C 0.55445 0.99429 0.12608 0.0
C903 C 0.54465 0.08579 0.04613 0.0
C904 C 0.55931 0.04644 0.0908 0.0
C905 C 0.65489 0.02426 0.06405 0.0
C906 C 0.66205 0.04998 0.06675 0.0
C907 C 0.59016 0.06648 1.00178 0.0
C908 C 0.5762 0.11279 0.96519 0.0
C909 C 0.58898 0.10077 0.94923 0.0
C910 C 0.60943 0.11363 0.94368 0.0
C911 C 0.61709 0.13881 0.95457 0.0
C912 C 0.58406 0.13797 0.97567 0.0
C913 C 0.60442 0.15086 0.97041 0.0
C914 C 0.57298 0.01227 0.99101 0.0
C915 C 0.5555 0.09891 0.97237 0.0
H916 H 0.52752 0.04947 0.11954 0.0
H917 H 0.53212 0.98691 0.15302 0.0
H918 H 0.5756 1.00638 0.09961 0.0
H919 H 0.56202 0.97892 0.12788 0.0
H920 H 0.58317 0.08123 0.94139 0.0
H921 H 0.63259 0.14936 0.95043 0.0
H922 H 0.57458 0.14758 0.98818 0.0
H923 H 0.61038 0.17029 0.9786 0.0
Eu924 Eu 0.32768 0.315 0.2885 0.0
C925 C 0.23705 0.26769 0.25648 0.0
C926 C 0.21894 0.24654 0.28653 0.0
C927 C 0.19896 0.2694 0.26353 0.0
C928 C 0.23779 0.25339 0.27417 0.0
C929 C 0.21736 0.27535 0.25061 0.0
C930 C 0.19977 0.25506 0.2815 0.0
C931 C 0.23453 0.29235 0.21807 0.0
N932 N 0.25518 0.27332 0.24436 0.0
C933 C 0.25346 0.28406 0.22426 0.0
C934 C 0.21653 0.28842 0.23161 0.0
Eu935 Eu 0.28732 0.25914 0.25691 0.0
N936 N 0.2565 0.24525 0.27857 0.0
C937 C 0.25626 0.22779 0.29295 0.0
C938 C 0.21966 0.23077 0.30317 0.0
C939 C 0.23826 0.22095 0.306 0.0
H940 H 0.26601 0.28558 0.21194 0.0
H941 H 0.23858 0.20768 0.31784 0.0
H942 H 0.18531 0.25025 0.29105 0.0
H943 H 0.23365 0.30125 0.20242 0.0
H944 H 0.26971 0.21848 0.29415 0.0
H945 H 0.38097 0.34408 0.21882 0.0
H946 H 0.20561 0.22523 0.31309 0.0
H947 H 0.34607 0.30168 0.34331 0.0
H948 H 0.34864 0.34153 0.24132 0.0
H949 H 0.37642 0.28628 0.3601 0.0
H950 H 0.1839 0.27545 0.25947 0.0
H951 H 0.41237 0.32726 0.23225 0.0
H952 H 0.42975 0.30766 0.26274 0.0
H953 H 0.20178 0.29466 0.22661 0.0
H954 H 0.42813 0.29093 0.30054 0.0
N955 N 0.35921 0.31974 0.26571 0.0
C956 C 0.36108 0.33224 0.24665 0.0
C957 C 0.39768 0.32526 0.24188 0.0
C958 C 0.39662 0.31436 0.26256 0.0
C959 C 0.37995 0.33456 0.23413 0.0
C960 C 0.377 0.31197 0.27444 0.0
H961 H 0.40827 0.28243 0.33658 0.0
N962 N 0.35759 0.30175 0.3078 0.0
C963 C 0.3763 0.29004 0.34168 0.0
C964 C 0.37605 0.30245 0.2958 0.0
C965 C 0.35852 0.29792 0.33149 0.0
C966 C 0.39429 0.28807 0.32844 0.0
C967 C 0.39477 0.29528 0.3057 0.0
O968 O 0.3304 0.33888 0.32483 0.0
O969 O 0.29268 0.29398 0.28476 0.0
O970 O 0.29967 0.28455 0.23033 0.0
O971 O 0.31512 0.32428 0.2528 0.0
O972 O 0.29722 0.33165 0.28644 0.0
O973 O 0.34676 0.35294 0.29541 0.0
O974 O 0.28376 0.24243 0.2178 0.0
O975 O 0.32261 0.27992 0.26056 0.0
O976 O 0.31497 0.29068 0.31591 0.0
O977 O 0.29942 0.25102 0.29346 0.0
O978 O 0.31724 0.24264 0.26211 0.0
O979 O 0.27453 0.21941 0.24425 0.0
C980 C 0.28262 0.31129 0.28525 0.0
C981 C 0.33468 0.38159 0.32454 0.0
C982 C 0.31937 0.41483 0.31275 0.0
C983 C 0.32453 0.39154 0.30661 0.0
C984 C 0.3241 0.42795 0.33717 0.0
C985 C 0.33919 0.39478 0.34884 0.0
C986 C 0.33383 0.41786 0.35512 0.0
C987 C 0.30708 0.30877 0.23184 0.0
C988 C 0.34173 0.35819 0.3178 0.0
C989 C 0.41379 0.29661 0.29328 0.0
C990 C 0.41475 0.30622 0.27183 0.0
C991 C 0.33216 0.26234 0.26179 0.0
C992 C 0.29111 0.20249 0.21007 0.0
C993 C 0.303 0.19038 0.22443 0.0
C994 C 0.31646 0.17521 0.21368 0.0
C995 C 0.31784 0.17194 0.18826 0.0
C996 C 0.29241 0.19879 0.18463 0.0
C997 C 0.3057 0.18353 0.17381 0.0
C998 C 0.30745 0.26651 0.31441 0.0
C999 C 0.27825 0.21988 0.22156 0.0
H1000 H 0.32114 0.38147 0.28775 0.0
H1001 H 0.32001 0.44584 0.34243 0.0
H1002 H 0.34706 0.38735 0.36286 0.0
H1003 H 0.33735 0.42801 0.3739 0.0
H1004 H 0.30227 0.19317 0.24412 0.0
H1005 H 0.32808 0.1602 0.17958 0.0
H1006 H 0.28336 0.20792 0.17322 0.0
H1007 H 0.3067 0.18082 0.15419 0.0
Eu1008 Eu 0.55697 0.57041 0.03722 0.0
C1009 C 0.59213 0.50231 0.95733 0.0
C1010 C 0.56436 0.49518 0.92252 0.0
C1011 C 0.60202 0.49228 0.91566 0.0
C1012 C 0.57066 0.50162 0.94811 0.0
C1013 C 0.60788 0.49708 0.94114 0.0
C1014 C 0.58029 0.49127 0.90637 0.0
C1015 C 0.63333 0.49871 0.97639 0.0
N1016 N 0.5972 0.50641 0.98209 0.0
C1017 C 0.61714 0.50357 0.99171 0.0
C1018 C 0.62882 0.49586 0.95102 0.0
Eu1019 Eu 0.56889 0.51581 0.00642 0.0
N1020 N 0.55548 0.50503 0.96415 0.0
C1021 C 0.53346 0.49963 0.95593 0.0
C1022 C 0.54202 0.49164 0.91396 0.0
C1023 C 0.52644 0.49331 0.93078 0.0
H1024 H 0.62086 0.50524 0.0112 0.0
H1025 H 0.50902 0.48974 0.9244 0.0
H1026 H 0.57579 0.48659 0.88668 0.0
H1027 H 0.64925 0.49704 0.98416 0.0
H1028 H 0.52114 0.50042 0.96866 0.0
H1029 H 0.62362 0.60033 0.11276 0.0
H1030 H 0.53652 0.48662 0.89448 0.0
H1031 H 0.50395 0.57476 0.03828 0.0
H1032 H 0.60746 0.58787 0.06969 0.0
H1033 H 0.47778 0.58288 0.06859 0.0
H1034 H 0.61396 0.48843 0.90298 0.0
H1035 H 0.59934 0.60403 0.1461 0.0
H1036 H 0.56107 0.60306 0.15855 0.0
H1037 H 0.64136 0.49189 0.9392 0.0
H1038 H 0.52138 0.59858 0.14652 0.0
N1039 N 0.57408 0.58337 0.07826 0.0
C1040 C 0.59654 0.58922 0.08393 0.0
C1041 C 0.59209 0.59838 0.12716 0.0
C1042 C 0.5692 0.59398 0.12119 0.0
C1043 C 0.60585 0.59638 0.1084 0.0
C1044 C 0.5606 0.58659 0.09622 0.0
H1045 H 0.49028 0.59158 0.11304 0.0
N1046 N 0.53096 0.57838 0.06524 0.0
C1047 C 0.49474 0.58316 0.07474 0.0
C1048 C 0.53834 0.5841 0.08949 0.0
C1049 C 0.50964 0.57859 0.05761 0.0
C1050 C 0.50184 0.58799 0.0998 0.0
C1051 C 0.52395 0.58886 0.10748 0.0
O1052 O 0.54372 0.59958 0.02469 0.0
O1053 O 0.55571 0.54902 0.99768 0.0
O1054 O 0.597 0.54468 0.99792 0.0
O1055 O 0.59237 0.57783 0.02694 0.0
O1056 O 0.52804 0.56157 0.00703 0.0
O1057 O 0.57779 0.60765 0.04091 0.0
O1058 O 0.56869 0.48772 0.02921 0.0
O1059 O 0.57044 0.53754 0.04572 0.0
O1060 O 0.53154 0.53952 0.04739 0.0
O1061 O 0.53256 0.5114 0.01228 0.0
O1062 O 0.59803 0.52483 0.03656 0.0
O1063 O 0.55423 0.4767 0.99166 0.0
C1064 C 0.5365 0.55114 0.98854 0.0
C1065 C 0.5612 0.64177 0.03861 0.0
C1066 C 0.56623 0.6829 0.02881 0.0
C1067 C 0.56883 0.65843 0.02351 0.0
C1068 C 0.55617 0.6907 0.04985 0.0
C1069 C 0.55135 0.64964 0.05964 0.0
C1070 C 0.54898 0.67417 0.06529 0.0
C1071 C 0.60361 0.56775 0.01008 0.0
C1072 C 0.56232 0.61596 0.03041 0.0
C1073 C 0.53221 0.59507 0.13243 0.0
C1074 C 0.5548 0.5976 0.13927 0.0
C1075 C 0.58979 0.53596 0.05493 0.0
C1076 C 0.5673 0.44653 0.00963 0.0
C1077 C 0.56228 0.43181 0.02722 0.0
C1078 C 0.56833 0.4089 0.02526 0.0
C1079 C 0.57967 0.40092 1.00534 0.0
C1080 C 0.57879 0.43848 0.98997 0.0
C1081 C 0.58494 0.41573 0.9879 0.0
C1082 C 0.52324 0.51825 0.03221 0.0
C1083 C 0.5591 0.46937 0.01173 0.0
H1084 H 0.576 0.65199 0.00697 0.0
H1085 H 0.55391 0.70951 0.05434 0.0
H1086 H 0.54524 0.63682 0.07135 0.0
H1087 H 0.54125 0.68029 0.08146 0.0
H1088 H 0.55297 0.43791 0.04206 0.0
H1089 H 0.58455 0.38332 1.0033 0.0
H1090 H 0.58274 0.44957 0.97614 0.0
H1091 H 0.59366 0.40945 0.97263 0.0
Eu1092 Eu 0.84305 0.31623 0.26502 0.0
C1093 C 0.78506 0.2493 0.32338 0.0
C1094 C 0.79178 0.20857 0.30836 0.0
C1095 C 0.77968 0.21809 0.34893 0.0
C1096 C 0.79169 0.23291 0.30522 0.0
C1097 C 0.77855 0.24187 0.34524 0.0
C1098 C 0.78623 0.20145 0.33051 0.0
C1099 C 0.76791 0.28092 0.35702 0.0
N1100 N 0.78359 0.27195 0.31902 0.0
C1101 C 0.77435 0.28737 0.335 0.0
C1102 C 0.77029 0.25821 0.36233 0.0
Eu1103 Eu 0.79384 0.28084 0.28079 0.0
N1104 N 0.79676 0.24022 0.2839 0.0
C1105 C 0.801 0.22376 0.26457 0.0
C1106 C 0.79676 0.19184 0.28885 0.0
C1107 C 0.8011 0.19939 0.26675 0.0
H1108 H 0.77218 0.30484 0.33102 0.0
H1109 H 0.80469 0.18653 0.25143 0.0
H1110 H 0.78641 0.18292 0.33333 0.0
H1111 H 0.76103 0.29342 0.36984 0.0
H1112 H 0.80437 0.22929 0.2474 0.0
H1113 H 0.83966 0.41151 0.3048 0.0
H1114 H 0.79692 0.17297 0.29051 0.0
H1115 H 0.85626 0.29986 0.20592 0.0
H1116 H 0.8482 0.37077 0.30436 0.0
H1117 H 0.84794 0.30924 0.16528 0.0
H1118 H 0.77489 0.21212 0.36567 0.0
H1119 H 0.82456 0.42143 0.2665 0.0
H1120 H 0.81484 0.4091 0.22085 0.0
H1121 H 0.76512 0.25318 0.37932 0.0
H1122 H 0.81656 0.38051 0.18241 0.0
N1123 N 0.83715 0.35689 0.2665 0.0
C1124 C 0.84125 0.37448 0.28763 0.0
C1125 C 0.82818 0.40336 0.26624 0.0
C1126 C 0.8256 0.38597 0.24431 0.0
C1127 C 0.83672 0.39785 0.28788 0.0
C1128 C 0.83076 0.36278 0.24497 0.0
H1129 H 0.8294 0.34346 0.16144 0.0
N1130 N 0.83998 0.32638 0.22494 0.0
C1131 C 0.84293 0.31968 0.18141 0.0
C1132 C 0.83191 0.34679 0.22343 0.0
C1133 C 0.84731 0.31421 0.20453 0.0
C1134 C 0.83243 0.33896 0.17932 0.0
C1135 C 0.82766 0.35348 0.20057 0.0
O1136 O 0.87544 0.32903 0.25305 0.0
O1137 O 0.8299 0.27839 0.27522 0.0
O1138 O 0.81596 0.29426 0.31635 0.0
O1139 O 0.8386 0.32774 0.30521 0.0
O1140 O 0.86093 0.28435 0.26486 0.0
O1141 O 0.87214 0.33176 0.29194 0.0
O1142 O 0.76093 0.28858 0.27623 0.0
O1143 O 0.80576 0.31712 0.26642 0.0
O1144 O 0.83154 0.28421 0.23334 0.0
O1145 O 0.79543 0.26894 0.24003 0.0
O1146 O 0.78746 0.31929 0.29586 0.0
O1147 O 0.76546 0.25207 0.2616 0.0
C1148 C 0.84707 0.26791 0.27295 0.0
C1149 C 0.90338 0.35804 0.28065 0.0
C1150 C 0.94191 0.37743 0.29629 0.0
C1151 C 0.92399 0.3567 0.29161 0.0
C1152 C 0.93872 0.39965 0.28984 0.0
C1153 C 0.90051 0.38027 0.27431 0.0
C1154 C 0.91816 0.401 0.27896 0.0
C1155 C 0.8306 0.31551 0.32199 0.0
C1156 C 0.88556 0.33556 0.27525 0.0
C1157 C 0.82029 0.37533 0.1998 0.0
C1158 C 0.81933 0.39163 0.22168 0.0
C1159 C 0.79603 0.33217 0.28042 0.0
C1160 C 0.72962 0.25599 0.27215 0.0
C1161 C 0.71064 0.26018 0.25997 0.0
C1162 C 0.68949 0.25242 0.26752 0.0
C1163 C 0.68784 0.24009 0.2875 0.0
C1164 C 0.72751 0.24337 0.29171 0.0
C1165 C 0.70668 0.23546 0.2993 0.0
C1166 C 0.81185 0.2699 0.22623 0.0
C1167 C 0.75141 0.2663 0.26485 0.0
H1168 H 0.92598 0.33947 0.29666 0.0
H1169 H 0.95218 0.41591 0.29292 0.0
H1170 H 0.88478 0.38154 0.26563 0.0
H1171 H 0.91596 0.41814 0.27396 0.0
H1172 H 0.71251 0.26949 0.24453 0.0
H1173 H 0.67207 0.23427 0.29433 0.0
H1174 H 0.74188 0.23982 0.30121 0.0
H1175 H 0.70516 0.22594 0.3146 0.0
Eu1176 Eu 0.07142 0.52844 0.5484 0.0
C1177 C 0.01237 0.57552 0.48226 0.0
C1178 C 0.98864 0.54034 0.45462 0.0
C1179 C 0.97607 0.57861 0.46566 0.0
C1180 C 0.00867 0.55128 0.4697 0.0
C1181 C 0.99628 0.58962 0.48009 0.0
C1182 C 0.97225 0.554 0.45298 0.0
C1183 C 0.02183 0.62483 0.50548 0.0
N1184 N 0.03204 0.58561 0.496 0.0
C1185 C 0.03727 0.61012 0.507 0.0
C1186 C 1.00115 0.61448 0.49214 0.0
Eu1187 Eu 0.05719 0.5596 0.49841 0.0
N1188 N 0.02492 0.53868 0.47154 0.0
C1189 C 0.0227 0.51553 0.45759 0.0
C1190 C 0.98587 0.51617 0.44126 0.0
C1191 C 1.00308 0.50382 0.44257 0.0
H1192 H 0.05321 0.61813 0.51745 0.0
H1193 H 1.00125 0.48525 0.43201 0.0
H1194 H 0.95672 0.54586 0.4416 0.0
H1195 H 0.02588 0.64412 0.5146 0.0
H1196 H 0.03572 0.50559 0.45835 0.0
H1197 H 0.11955 0.61035 0.61328 0.0
H1198 H 0.97072 0.50708 0.42955 0.0
H1199 H 0.08293 0.47271 0.53254 0.0
H1200 H 0.08691 0.58494 0.58687 0.0
H1201 H 0.11423 0.45237 0.53747 0.0
H1202 H 0.96345 0.58908 0.46388 0.0
H1203 H 0.15344 0.59431 0.61779 0.0
H1204 H 0.17265 0.55928 0.60778 0.0
H1205 H 0.98923 0.62593 0.49092 0.0
H1206 H 0.17126 0.51639 0.5872 0.0
N1207 N 0.10171 0.55421 0.57589 0.0
C1208 C 0.10127 0.57726 0.58862 0.0
C1209 C 0.13902 0.58287 0.60611 0.0
C1210 C 0.13916 0.55896 0.59382 0.0
C1211 C 0.11992 0.59196 0.60366 0.0
C1212 C 0.11997 0.54485 0.57875 0.0
H1213 H 0.1495 0.47634 0.56121 0.0
N1214 N 0.10051 0.50776 0.553 0.0
C1215 C 0.11593 0.47168 0.54578 0.0
C1216 C 0.11933 0.52088 0.56697 0.0
C1217 C 0.09825 0.48319 0.54311 0.0
C1218 C 0.13582 0.48528 0.55915 0.0
C1219 C 0.13764 0.51011 0.57019 0.0
O1220 O 0.05601 0.49452 0.56028 0.0
O1221 O 0.04537 0.53138 0.52057 0.0
O1222 O 0.03656 0.56971 0.52868 0.0
O1223 O 0.05512 0.5606 0.56266 0.0
O1224 O 0.04752 0.49599 0.52337 0.0
O1225 O 0.05742 0.53091 0.58361 0.0
O1226 O 0.0758 0.59054 0.48428 0.0
O1227 O 0.08325 0.55601 0.5258 0.0
O1228 O 0.09031 0.51715 0.51658 0.0
O1229 O 0.06945 0.52485 0.48355 0.0
O1230 O 0.08219 0.59146 0.52307 0.0
O1231 O 0.06994 0.55297 0.46292 0.0
C1232 C 0.03627 0.50889 0.51289 0.0
C1233 C 0.03901 0.49442 0.59833 0.0
C1234 C 0.01469 0.49535 0.63091 0.0
C1235 C 0.02798 0.50759 0.6154 0.0
C1236 C 0.01281 0.46979 0.62948 0.0
C1237 C 0.03703 0.46889 0.59715 0.0
C1238 C 0.02406 0.4567 0.61276 0.0
C1239 C 0.04049 0.57113 0.55258 0.0
C1240 C 0.05072 0.50683 0.58031 0.0
C1241 C 0.15696 0.52426 0.58466 0.0
C1242 C 0.15774 0.54866 0.59641 0.0
C1243 C 0.09332 0.57818 0.53314 0.0
C1244 C 0.07652 0.58555 0.44127 0.0
C1245 C 0.09322 0.58404 0.42586 0.0
C1246 C 0.09153 0.59062 0.40285 0.0
C1247 C 0.07297 0.59928 0.39551 0.0
C1248 C 0.05808 0.59436 0.43407 0.0
C1249 C 0.05644 0.60139 0.41123 0.0
C1250 C 0.08494 0.51497 0.49275 0.0
C1251 C 0.07862 0.57639 0.46402 0.0
H1252 H 0.02906 0.52719 0.61603 0.0
H1253 H 1.00288 0.46001 0.64149 0.0
H1254 H 0.04528 0.45831 0.58397 0.0
H1255 H 0.02257 0.43703 0.61177 0.0
H1256 H 0.10714 0.57658 0.43135 0.0
H1257 H 0.0712 0.60414 0.37762 0.0
H1258 H 0.04495 0.59547 0.44584 0.0
H1259 H 0.04215 0.60803 0.40552 0.0
Eu1260 Eu 0.78787 0.80309 0.27257 0.0
C1261 C 0.85903 0.75726 0.32124 0.0
C1262 C 0.87561 0.78849 0.35699 0.0
C1263 C 0.87359 0.74504 0.35767 0.0
C1264 C 0.86458 0.78173 0.33296 0.0
C1265 C 0.86428 0.73868 0.33307 0.0
C1266 C 0.87924 0.76995 0.36965 0.0
C1267 C 0.85419 0.70983 0.29431 0.0
N1268 N 0.85072 0.75198 0.29732 0.0
C1269 C 0.84932 0.72894 0.28342 0.0
C1270 C 0.86121 0.71458 0.3194 0.0
Eu1271 Eu 0.84172 0.78479 0.27997 0.0
N1272 N 0.86143 0.79908 0.31986 0.0
C1273 C 0.8713 0.82347 0.32868 0.0
C1274 C 0.88386 0.81365 0.36698 0.0
C1275 C 0.8822 0.83117 0.35249 0.0
H1276 H 0.84375 0.72512 0.26403 0.0
H1277 H 0.88926 0.85063 0.35966 0.0
H1278 H 0.88737 0.77477 0.38824 0.0
H1279 H 0.85244 0.69145 0.28337 0.0
H1280 H 0.87021 0.83732 0.31785 0.0
H1281 H 0.7435 0.73296 0.19398 0.0
H1282 H 0.89242 0.81964 0.38535 0.0
H1283 H 0.78527 0.8627 0.28519 0.0
H1284 H 0.76207 0.74848 0.23574 0.0
H1285 H 0.77589 0.89472 0.26379 0.0
H1286 H 0.87744 0.731 0.36721 0.0
H1287 H 0.73847 0.76228 0.16696 0.0
H1288 H 0.74152 0.80641 0.16223 0.0
H1289 H 0.86511 0.69981 0.32778 0.0
H1290 H 0.75027 0.85074 0.18137 0.0
N1291 N 0.76863 0.78651 0.23263 0.0
C1292 C 0.76013 0.76169 0.22443 0.0
C1293 C 0.74678 0.76928 0.18537 0.0
C1294 C 0.75384 0.79475 0.19455 0.0
C1295 C 0.7495 0.7527 0.2006 0.0
C1296 C 0.76463 0.80285 0.21864 0.0
H1297 H 0.76254 0.8838 0.21948 0.0
N1298 N 0.778 0.83423 0.25316 0.0
C1299 C 0.77416 0.87595 0.25379 0.0
C1300 C 0.76954 0.82762 0.22929 0.0
C1301 C 0.77939 0.85777 0.26585 0.0
C1302 C 0.76674 0.86974 0.22877 0.0
C1303 C 0.76385 0.8452 0.21631 0.0
O1304 O 0.76671 0.81895 0.29823 0.0
O1305 O 0.81502 0.79909 0.29916 0.0
O1306 O 0.81543 0.75204 0.28859 0.0
O1307 O 0.78233 0.76134 0.27493 0.0
O1308 O 0.80217 0.83074 0.30702 0.0
O1309 O 0.75703 0.78058 0.28115 0.0
O1310 O 0.86096 0.7705 0.25116 0.0
O1311 O 0.81494 0.78962 0.25317 0.0
O1312 O 0.81462 0.83664 0.26582 0.0
O1313 O 0.84759 0.82701 0.27943 0.0
O1314 O 0.82646 0.75713 0.24587 0.0
O1315 O 0.87436 0.8059 0.2743 0.0
C1316 C 0.81622 0.81907 0.31453 0.0
C1317 C 0.72815 0.8009 0.29208 0.0
C1318 C 0.69043 0.79629 0.30498 0.0
C1319 C 0.71285 0.79465 0.30911 0.0
C1320 C 0.68399 0.80481 0.2839 0.0
C1321 C 0.72096 0.80911 0.27127 0.0
C1322 C 0.69909 0.81115 0.26732 0.0
C1323 C 0.79346 0.74571 0.2827 0.0
C1324 C 0.75151 0.79867 0.29567 0.0
C1325 C 0.7545 0.83749 0.19176 0.0
C1326 C 0.74952 0.81226 0.18087 0.0
C1327 C 0.81322 0.76946 0.23785 0.0
C1328 C 0.90005 0.78287 0.25839 0.0
C1329 C 0.91588 0.78963 0.24208 0.0
C1330 C 0.93694 0.7836 0.24412 0.0
C1331 C 0.94138 0.77015 0.26224 0.0
C1332 C 0.90537 0.76997 0.27645 0.0
C1333 C 0.9258 0.76351 0.27821 0.0
C1334 C 0.83655 0.84296 0.27212 0.0
C1335 C 0.87798 0.78907 0.2567 0.0
H1336 H 0.71825 0.78811 0.32515 0.0
H1337 H 0.66717 0.80679 0.28027 0.0
H1338 H 0.73229 0.81395 0.25803 0.0
H1339 H 0.69377 0.81765 0.25124 0.0
H1340 H 0.91198 0.79988 0.22827 0.0
H1341 H 0.95699 0.76458 0.26407 0.0
H1342 H 0.8937 0.7648 0.28921 0.0
H1343 H 0.92961 0.75332 0.29209 0.0
Eu1344 Eu 0.82273 0.28192 0.74937 0.0
C1345 C 0.8097 0.36891 0.81237 0.0
C1346 C 0.83921 0.38524 0.84548 0.0
C1347 C 0.82462 0.41351 0.82423 0.0
C1348 C 0.82445 0.36492 0.82997 0.0
C1349 C 0.80912 0.3934 0.80991 0.0
C1350 C 0.83967 0.40944 0.84198 0.0
C1351 C 0.77606 0.37678 0.78202 0.0
N1352 N 0.79495 0.34903 0.79878 0.0
C1353 C 0.77715 0.35302 0.7854 0.0
C1354 C 0.79248 0.39704 0.79379 0.0
Eu1355 Eu 0.79941 0.30854 0.80373 0.0
N1356 N 0.82343 0.34134 0.83305 0.0
C1357 C 0.83475 0.33735 0.85339 0.0
C1358 C 0.85258 0.38073 0.86456 0.0
C1359 C 0.84994 0.35672 0.86888 0.0
H1360 H 0.76303 0.33838 0.77796 0.0
H1361 H 0.85933 0.35315 0.88441 0.0
H1362 H 0.85116 0.42517 0.8534 0.0
H1363 H 0.76218 0.37948 0.77083 0.0
H1364 H 0.83203 0.31922 0.85806 0.0
H1365 H 0.7509 0.23125 0.68315 0.0
H1366 H 0.86419 0.39578 0.87673 0.0
H1367 H 0.86413 0.25575 0.76978 0.0
H1368 H 0.78008 0.26677 0.70231 0.0
H1369 H 0.86883 0.21574 0.77731 0.0
H1370 H 0.82466 0.43234 0.82223 0.0
H1371 H 0.7508 0.19 0.69259 0.0
H1372 H 0.76997 0.1633 0.71354 0.0
H1373 H 0.79146 0.41549 0.79139 0.0
H1374 H 0.80209 0.15905 0.73919 0.0
N1375 N 0.79529 0.24751 0.72613 0.0
C1376 C 0.77979 0.24962 0.70839 0.0
C1377 C 0.76344 0.20589 0.70189 0.0
C1378 C 0.78056 0.2032 0.718 0.0
C1379 C 0.76337 0.22914 0.69665 0.0
C1380 C 0.79661 0.22456 0.72978 0.0
H1381 H 0.83891 0.17837 0.76297 0.0
N1382 N 0.83019 0.24286 0.75475 0.0
C1383 C 0.85322 0.2173 0.7686 0.0
C1384 C 0.81458 0.22217 0.74443 0.0
C1385 C 0.85009 0.24033 0.76495 0.0
C1386 C 0.83639 0.19627 0.76033 0.0
C1387 C 0.81708 0.19837 0.74738 0.0
O1388 O 0.85688 0.28659 0.74037 0.0
O1389 O 0.82584 0.31503 0.77925 0.0
O1390 O 0.7751 0.30272 0.7686 0.0
O1391 O 0.79491 0.29814 0.73467 0.0
O1392 O 0.82701 0.32155 0.74391 0.0
O1393 O 0.83009 0.2782 0.71122 0.0
O1394 O 0.76391 0.30153 0.80733 0.0
O1395 O 0.7967 0.27452 0.77466 0.0
O1396 O 0.8483 0.28837 0.78353 0.0
O1397 O 0.83 0.29609 0.81834 0.0
O1398 O 0.79951 0.27056 0.81117 0.0
O1399 O 0.78716 0.30881 0.83967 0.0
C1400 C 0.82869 0.33178 0.76678 0.0
C1401 C 0.8636 0.30514 0.70618 0.0
C1402 C 0.86472 0.34187 0.68804 0.0
C1403 C 0.85287 0.32228 0.69781 0.0
C1404 C 0.88764 0.34412 0.68698 0.0
C1405 C 0.88641 0.30778 0.70495 0.0
C1406 C 0.89835 0.32722 0.69544 0.0
C1407 C 0.777 0.30235 0.74483 0.0
C1408 C 0.85145 0.28501 0.71706 0.0
C1409 C 0.80059 0.17734 0.73674 0.0
C1410 C 0.78233 0.17976 0.72213 0.0
C1411 C 0.79633 0.25897 0.78859 0.0
C1412 C 0.75341 0.27948 0.83839 0.0
C1413 C 0.76383 0.26327 0.84882 0.0
C1414 C 0.75135 0.24229 0.85594 0.0
C1415 C 0.72811 0.23746 0.85199 0.0
C1416 C 0.73024 0.27439 0.83471 0.0
C1417 C 0.71768 0.25342 0.84141 0.0
C1418 C 0.84748 0.29091 0.8077 0.0
C1419 C 0.76648 0.30131 0.83065 0.0
H1420 H 0.83529 0.32039 0.69897 0.0
H1421 H 0.89726 0.35852 0.679 0.0
H1422 H 0.895 0.29484 0.71144 0.0
H1423 H 0.91595 0.32908 0.69441 0.0
H1424 H 0.78172 0.26698 0.85143 0.0
H1425 H 0.71794 0.22177 0.85768 0.0
H1426 H 0.72187 0.2866 0.8266 0.0
H1427 H 0.69979 0.24966 0.83862 0.0
Eu1428 Eu 0.83017 0.81595 0.78727 0.0
C1429 C 0.7385 0.76579 0.75812 0.0
C1430 C 0.72176 0.74089 0.7862 0.0
C1431 C 0.70047 0.76535 0.76702 0.0
C1432 C 0.74011 0.74977 0.77393 0.0
C1433 C 0.71841 0.77334 0.75413 0.0
C1434 C 0.70216 0.74921 0.78309 0.0
C1435 C 0.73463 0.79512 0.72394 0.0
N1436 N 0.75629 0.77356 0.74621 0.0
C1437 C 0.7541 0.78714 0.7284 0.0
C1438 C 0.7168 0.78852 0.73711 0.0
Eu1439 Eu 0.78934 0.75959 0.7558 0.0
N1440 N 0.75924 0.74198 0.77654 0.0
C1441 C 0.76 0.72307 0.78884 0.0
C1442 C 0.72341 0.72338 0.80075 0.0
C1443 C 0.74247 0.71406 0.80167 0.0
H1444 H 0.76682 0.79163 0.71684 0.0
H1445 H 0.74357 0.69965 0.81194 0.0
H1446 H 0.68805 0.74286 0.79262 0.0
H1447 H 0.73332 0.80615 0.71005 0.0
H1448 H 0.77411 0.71462 0.7887 0.0
H1449 H 0.88379 0.84707 0.71866 0.0
H1450 H 0.70974 0.71622 0.81052 0.0
H1451 H 0.84842 0.80076 0.84131 0.0
H1452 H 0.85169 0.84453 0.74159 0.0
H1453 H 0.87862 0.78471 0.85729 0.0
H1454 H 0.6851 0.77128 0.76443 0.0
H1455 H 0.91479 0.82899 0.73083 0.0
H1456 H 0.93195 0.8081 0.76035 0.0
H1457 H 0.70171 0.79471 0.73356 0.0
H1458 H 0.93029 0.7905 0.79766 0.0
N1459 N 0.86195 0.82153 0.76486 0.0
C1460 C 0.86396 0.83475 0.74634 0.0
C1461 C 0.9002 0.82701 0.74063 0.0
C1462 C 0.89909 0.81551 0.76091 0.0
C1463 C 0.88269 0.83704 0.7336 0.0
C1464 C 0.8796 0.8132 0.773 0.0
H1465 H 0.91049 0.78145 0.83364 0.0
N1466 N 0.86025 0.80252 0.80614 0.0
C1467 C 0.87864 0.78922 0.83917 0.0
C1468 C 0.87865 0.80325 0.79405 0.0
C1469 C 0.86096 0.79757 0.82943 0.0
C1470 C 0.89663 0.78757 0.82587 0.0
C1471 C 0.8972 0.79547 0.80347 0.0
O1472 O 0.83525 0.83882 0.8242 0.0
O1473 O 0.79523 0.79492 0.78282 0.0
O1474 O 0.80068 0.78474 0.72886 0.0
O1475 O 0.81839 0.82411 0.75075 0.0
O1476 O 0.7997 0.83252 0.78518 0.0
O1477 O 0.84493 0.85547 0.79324 0.0
O1478 O 0.78663 0.74524 0.71623 0.0
O1479 O 0.82465 0.7803 0.76013 0.0
O1480 O 0.81679 0.79222 0.81509 0.0
O1481 O 0.80082 0.75243 0.79297 0.0
O1482 O 0.8191 0.74308 0.76193 0.0
O1483 O 0.77777 0.72008 0.74082 0.0
C1484 C 0.78513 0.81213 0.78344 0.0
C1485 C 0.83119 0.87971 0.82539 0.0
C1486 C 0.80694 0.90713 0.81813 0.0
C1487 C 0.81812 0.88877 0.80911 0.0
C1488 C 0.80903 0.91675 0.84343 0.0
C1489 C 0.83329 0.88961 0.85065 0.0
C1490 C 0.82227 0.9081 0.85959 0.0
C1491 C 0.80942 0.80862 0.73009 0.0
C1492 C 0.84203 0.85939 0.81649 0.0
C1493 C 0.91609 0.79668 0.79082 0.0
C1494 C 0.91706 0.80675 0.76963 0.0
C1495 C 0.83412 0.76274 0.76174 0.0
C1496 C 0.7965 0.70665 0.70706 0.0
C1497 C 0.80736 0.69317 0.72086 0.0
C1498 C 0.8226 0.68019 0.7106 0.0
C1499 C 0.82683 0.68048 0.68617 0.0
C1500 C 0.80063 0.70647 0.68252 0.0
C1501 C 0.81571 0.6934 0.67216 0.0
C1502 C 0.80896 0.76808 0.8138 0.0
C1503 C 0.78212 0.7222 0.71863 0.0
H1504 H 0.8163 0.88138 0.78953 0.0
H1505 H 0.80042 0.93095 0.85061 0.0
H1506 H 0.84328 0.88286 0.86346 0.0
H1507 H 0.82387 0.91559 0.87911 0.0
H1508 H 0.80453 0.69328 0.73989 0.0
H1509 H 0.83851 0.6705 0.67789 0.0
H1510 H 0.79246 0.71677 0.67154 0.0
H1511 H 0.81892 0.69345 0.65327 0.0
Eu1512 Eu 0.53911 0.52518 0.50728 0.0
C1513 C 0.59605 0.61584 0.57229 0.0
C1514 C 0.59726 0.64531 0.54532 0.0
C1515 C 0.60006 0.65962 0.58951 0.0
C1516 C 0.59492 0.62073 0.54887 0.0
C1517 C 0.59947 0.63535 0.59293 0.0
C1518 C 0.59896 0.6646 0.56571 0.0
C1519 C 0.60495 0.60611 0.61843 0.0
N1520 N 0.59598 0.59232 0.57487 0.0
C1521 C 0.60164 0.58745 0.59737 0.0
C1522 C 0.60337 0.63006 0.61626 0.0
Eu1523 Eu 0.58945 0.56143 0.53849 0.0
N1524 N 0.59371 0.60174 0.52968 0.0
C1525 C 0.5971 0.60632 0.50677 0.0
C1526 C 0.59907 0.6499 0.52154 0.0
C1527 C 0.59961 0.63041 0.5023 0.0
H1528 H 0.60293 0.56895 0.59909 0.0
H1529 H 0.60169 0.63386 0.48397 0.0
H1530 H 0.60043 0.68355 0.56333 0.0
H1531 H 0.60874 0.602 0.6363 0.0
H1532 H 0.5973 0.59132 0.49177 0.0
H1533 H 0.49065 0.47653 0.57097 0.0
H1534 H 0.60094 0.66852 0.51802 0.0
H1535 H 0.55428 0.49437 0.45355 0.0
H1536 H 0.50091 0.50916 0.54749 0.0
H1537 H 0.56568 0.4561 0.43895 0.0
H1538 H 0.60235 0.67481 0.60513 0.0
H1539 H 0.50527 0.43861 0.56245 0.0
H1540 H 0.52631 0.41309 0.53587 0.0
H1541 H 0.60611 0.64453 0.63258 0.0
H1542 H 0.54676 0.40748 0.49973 0.0
N1543 N 0.52439 0.49236 0.5282 0.0
C1544 C 0.50886 0.49373 0.54456 0.0
C1545 C 0.5105 0.45338 0.55255 0.0
C1546 C 0.52411 0.45062 0.5337 0.0
C1547 C 0.50234 0.47478 0.55751 0.0
C1548 C 0.53056 0.47051 0.5214 0.0
H1549 H 0.5614 0.42328 0.4635 0.0
N1550 N 0.54706 0.48634 0.48883 0.0
C1551 C 0.55971 0.45924 0.45684 0.0
C1552 C 0.54227 0.46745 0.50119 0.0
C1553 C 0.55391 0.48162 0.46584 0.0
C1554 C 0.55713 0.44073 0.47064 0.0
C1555 C 0.54756 0.4443 0.49265 0.0
O1556 O 0.52284 0.52182 0.4703 0.0
O1557 O 0.56139 0.56313 0.51129 0.0
O1558 O 0.56404 0.56638 0.56771 0.0
O1559 O 0.53144 0.54045 0.54757 0.0
O1560 O 0.52875 0.56191 0.5174 0.0
O1561 O 0.50314 0.51313 0.4992 0.0
O1562 O 0.61732 0.54739 0.55236 0.0
O1563 O 0.57097 0.5211 0.52645 0.0
O1564 O 0.56296 0.53317 0.4765 0.0
O1565 O 0.5974 0.54731 0.49851 0.0
O1566 O 0.58267 0.53366 0.56336 0.0
O1567 O 0.62328 0.57605 0.5312 0.0
C1568 C 0.54718 0.5766 0.5154 0.0
C1569 C 0.487 0.5308 0.46871 0.0
C1570 C 0.45593 0.55107 0.4752 0.0
C1571 C 0.47062 0.53751 0.48347 0.0
C1572 C 0.45751 0.5576 0.45208 0.0
C1573 C 0.48793 0.53728 0.44549 0.0
C1574 C 0.47331 0.5506 0.4373 0.0
C1575 C 0.54272 0.55549 0.56792 0.0
C1576 C 0.5029 0.51667 0.47679 0.0
C1577 C 0.54242 0.42512 0.50578 0.0
C1578 C 0.53077 0.42831 0.52633 0.0
C1579 C 0.57308 0.51428 0.54723 0.0
C1580 C 0.65325 0.57339 0.55818 0.0
C1581 C 0.67094 0.56179 0.55427 0.0
C1582 C 0.69221 0.57268 0.56647 0.0
C1583 C 0.69521 0.5951 0.58358 0.0
C1584 C 0.65654 0.59586 0.57504 0.0
C1585 C 0.67743 0.6065 0.58786 0.0
C1586 C 0.58512 0.53875 0.47694 0.0
C1587 C 0.63206 0.56208 0.5432 0.0
H1588 H 0.46945 0.53258 0.50138 0.0
H1589 H 0.44637 0.56803 0.4454 0.0
H1590 H 0.50003 0.53205 0.43362 0.0
H1591 H 0.47425 0.55556 0.41941 0.0
H1592 H 0.66804 0.54425 0.54141 0.0
H1593 H 0.71135 0.60414 0.59321 0.0
H1594 H 0.64315 0.60529 0.57803 0.0
H1595 H 0.67995 0.62388 0.60085 0.0
Eu1596 Eu 0.08926 0.54623 0.01624 0.0
C1597 C 0.01159 0.49764 0.06213 0.0
C1598 C 0.99316 0.46517 0.02788 0.0
C1599 C 0.99067 0.45856 0.06971 0.0
C1600 C 1.00656 0.48902 0.03704 0.0
C1601 C 1.00319 0.48274 0.07875 0.0
C1602 C 0.9857 0.44978 0.04433 0.0
C1603 C 0.01808 0.51765 0.11194 0.0
N1604 N 0.02346 0.5212 0.07031 0.0
C1605 C 0.02593 0.53176 0.09474 0.0
C1606 C 1.00693 0.49291 0.10394 0.0
Eu1607 Eu 0.03611 0.54354 0.03987 0.0
N1608 N 0.01376 0.50442 0.02161 0.0
C1609 C 1.00708 0.49786 0.99706 0.0
C1610 C 0.9871 0.45782 1.00253 0.0
C1611 C 0.99379 0.4744 0.98709 0.0
H1612 H 0.03452 0.55093 0.10088 0.0
H1613 H 0.98884 0.4691 0.96753 0.0
H1614 H 0.97556 0.43132 0.03763 0.0
H1615 H 0.02055 0.52587 0.13132 0.0
H1616 H 0.01218 0.51065 0.98518 0.0
H1617 H 0.14446 0.6234 0.08079 0.0
H1618 H 0.97684 0.43964 0.99477 0.0
H1619 H 0.0872 0.53849 0.95347 0.0
H1620 H 0.12464 0.5804 0.0657 0.0
H1621 H 0.09232 0.56457 0.92232 0.0
H1622 H 0.98425 0.44674 0.0822 0.0
H1623 H 0.14566 0.65399 0.05379 0.0
H1624 H 0.13714 0.66247 0.01195 0.0
H1625 H 1.00071 0.48207 0.11729 0.0
H1626 H 0.12279 0.64637 0.9686 0.0
N1627 N 0.11212 0.58654 0.03127 0.0
C1628 C 0.12391 0.59351 0.05399 0.0
C1629 C 0.13641 0.6351 0.04721 0.0
C1630 C 0.12627 0.62729 0.0231 0.0
C1631 C 0.13571 0.61793 0.06251 0.0
C1632 C 0.11432 0.60246 0.01545 0.0
H1633 H 0.10652 0.60985 0.93495 0.0
N1634 N 0.09677 0.56888 0.98397 0.0
C1635 C 0.09604 0.573 0.94162 0.0
C1636 C 0.10623 0.59339 0.99109 0.0
C1637 C 0.09304 0.55832 0.95944 0.0
C1638 C 0.104 0.59853 0.94882 0.0
C1639 C 0.10986 0.60895 0.97373 0.0
O1640 O 0.10948 0.5284 0.99095 0.0
O1641 O 0.05514 0.5209 0.01499 0.0
O1642 O 0.05807 0.52884 0.06528 0.0
O1643 O 0.09217 0.54988 0.05726 0.0
O1644 O 0.08222 0.50633 0.02124 0.0
O1645 O 0.1185 0.53487 0.03013 0.0
O1646 O 0.01696 0.56788 0.05962 0.0
O1647 O 0.06678 0.57026 0.03358 0.0
O1648 O 0.06181 0.5382 0.98474 0.0
O1649 O 0.03836 0.55922 1.00537 0.0
O1650 O 0.05526 0.57668 0.0679 0.0
O1651 O 1.00505 0.54867 0.02262 0.0
C1652 C 0.06102 0.50123 0.01851 0.0
C1653 C 0.14746 0.53225 1.00496 0.0
C1654 C 0.18428 0.52282 0.00956 0.0
C1655 C 0.16135 0.51714 0.01202 0.0
C1656 C 0.19286 0.54368 0.99955 0.0
C1657 C 0.15655 0.55301 0.99527 0.0
C1658 C 0.17911 0.55857 0.99248 0.0
C1659 C 0.07965 0.53685 0.07063 0.0
C1660 C 0.1237 0.52644 0.00844 0.0
C1661 C 0.1202 0.6341 0.98161 0.0
C1662 C 0.1284 0.64326 0.00628 0.0
C1663 C 0.0696 0.5856 0.05409 0.0
C1664 C 0.9782 0.55942 0.04837 0.0
C1665 C 0.96386 0.57436 0.04194 0.0
C1666 C 0.94181 0.57031 0.04813 0.0
C1667 C 0.93468 0.55134 0.0612 0.0
C1668 C 0.97042 0.54055 0.06111 0.0
C1669 C 0.94884 0.53663 0.06753 0.0
C1670 C 0.04609 0.55077 0.98495 0.0
C1671 C 1.00117 0.56358 0.04176 0.0
H1672 H 0.15436 0.5013 0.01985 0.0
H1673 H 0.21024 0.54843 0.99693 0.0
H1674 H 0.14622 0.56492 0.98991 0.0
H1675 H 0.186 0.57454 0.98485 0.0
H1676 H 0.96977 0.58879 0.03184 0.0
H1677 H 0.91812 0.54795 0.0668 0.0
H1678 H 0.98105 0.52889 0.06618 0.0
H1679 H 0.94304 0.52211 0.07754 0.0
H1680 H 0.0414 0.19942 0.9288 0.0
H1681 H 0.04912 0.11622 0.03373 0.0
H1682 H 0.02153 0.21886 1.00117 0.0
H1683 H 0.0572 0.09156 0.95775 0.0
H1684 H 0.04234 0.15542 0.02365 0.0
H1685 H 0.0502 0.16175 0.94007 0.0
C1686 C 0.03886 0.19595 0.94704 0.0
C1687 C 0.03047 0.21281 0.96382 0.0
C1688 C 0.04572 0.14149 0.00917 0.0
C1689 C 0.04093 0.16902 0.97722 0.0
C1690 C 0.04977 0.11905 0.01503 0.0
C1691 C 0.05402 0.10028 0.99669 0.0
C1692 C 0.0459 0.14554 0.98474 0.0
C1693 C 0.05416 0.10529 0.97265 0.0
C1694 C 0.04393 0.17426 0.95354 0.0
C1695 C 0.02776 0.20673 0.9873 0.0
N1696 N 0.05029 0.1271 0.9675 0.0
N1697 N 0.03295 0.18571 0.99319 0.0
H1698 H 0.15 0.82242 0.18005 0.0
H1699 H 0.27789 0.81191 0.19799 0.0
H1700 H 0.19458 0.82931 0.12416 0.0
H1701 H 0.2335 0.80242 0.2537 0.0
H1702 H 0.24788 0.81928 0.17144 0.0
H1703 H 0.18024 0.81663 0.2077 0.0
C1704 C 0.16614 0.82301 0.17357 0.0
C1705 C 0.16945 0.82652 0.14947 0.0
C1706 C 0.24462 0.8156 0.18947 0.0
C1707 C 0.20456 0.81954 0.18142 0.0
C1708 C 0.26185 0.81129 0.20474 0.0
C1709 C 0.25854 0.80647 0.2284 0.0
C1710 C 0.22353 0.81517 0.1976 0.0
C1711 C 0.23715 0.80616 0.2358 0.0
C1712 C 0.18347 0.81954 0.18944 0.0
C1713 C 0.19095 0.82678 0.14242 0.0
N1714 N 0.22064 0.8104 0.22059 0.0
N1715 N 0.20744 0.82333 0.15813 0.0
H1716 H 0.53033 0.85599 0.42118 0.0
H1717 H 0.55419 0.96252 0.54362 0.0
H1718 H 0.53179 0.83948 0.49388 0.0
H1719 H 0.54863 0.97732 0.47055 0.0
H1720 H 0.54325 0.91775 0.52641 0.0
H1721 H 0.53466 0.89994 0.43912 0.0
C1722 C 0.53143 0.86151 0.44097 0.0
C1723 C 0.53072 0.84364 0.45591 0.0
C1724 C 0.54395 0.93071 0.51409 0.0
C1725 C 0.5359 0.89482 0.47691 0.0
C1726 C 0.54997 0.95636 0.52397 0.0
C1727 C 0.55159 0.9739 0.50864 0.0
C1728 C 0.54006 0.92219 0.48845 0.0
C1729 C 0.54687 0.96464 0.48319 0.0
C1730 C 0.53392 0.88679 0.45125 0.0
C1731 C 0.53222 0.85234 0.4815 0.0
N1732 N 0.54147 0.93963 0.47398 0.0
N1733 N 0.53487 0.87715 0.49111 0.0
H1734 H 0.52145 0.30646 0.62606 0.0
H1735 H 0.48198 0.30508 0.7607 0.0
H1736 H 0.5646 0.31149 0.69156 0.0
H1737 H 0.43514 0.2822 0.69577 0.0
H1738 H 0.51199 0.31221 0.73502 0.0
H1739 H 0.48947 0.30127 0.65032 0.0
C1740 C 0.52423 0.30643 0.64547 0.0
C1741 C 0.54586 0.30936 0.6567 0.0
C1742 C 0.49519 0.30566 0.72624 0.0
C1743 C 0.50933 0.30378 0.68465 0.0
C1744 C 0.47794 0.30156 0.74097 0.0
C1745 C 0.45587 0.29258 0.73049 0.0
C1746 C 0.49066 0.30096 0.70056 0.0
C1747 C 0.45184 0.28907 0.70474 0.0
C1748 C 0.50596 0.30348 0.65931 0.0
C1749 C 0.54836 0.30923 0.68197 0.0
N1750 N 0.46905 0.2931 0.69065 0.0
N1751 N 0.53046 0.3066 0.69496 0.0
H1752 H 1.00323 0.79174 0.59458 0.0
H1753 H 0.06811 0.92555 0.5785 0.0
H1754 H 0.03387 0.84865 0.65711 0.0
H1755 H 0.04479 0.86189 0.52 0.0
H1756 H 0.05182 0.90084 0.60794 0.0
H1757 H 0.01392 0.82045 0.56763 0.0
C1758 C 0.01225 0.81042 0.60267 0.0
C1759 C 0.01797 0.81772 0.6281 0.0
C1760 C 0.05017 0.89242 0.58863 0.0
C1761 C 0.03062 0.85094 0.59703 0.0
C1762 C 0.05933 0.90649 0.57186 0.0
C1763 C 0.05792 0.8956 0.54685 0.0
C1764 C 0.03936 0.86746 0.58016 0.0
C1765 C 0.04651 0.87089 0.53915 0.0
C1766 C 0.01836 0.82687 0.58721 0.0
C1767 C 0.02926 0.8423 0.63755 0.0
N1768 N 0.03776 0.85771 0.55571 0.0
N1769 N 0.03551 0.85806 0.62193 0.0
H1770 H 0.5785 0.86583 0.84505 0.0
H1771 H 0.45067 0.82082 0.81172 0.0
H1772 H 0.53719 0.84245 0.89971 0.0
H1773 H 0.48265 0.89229 0.79764 0.0
H1774 H 0.48424 0.8203 0.83661 0.0
H1775 H 0.54514 0.8676 0.81947 0.0
C1776 C 0.56239 0.86093 0.85152 0.0
C1777 C 0.56042 0.85398 0.8744 0.0
C1778 C 0.48376 0.83601 0.82796 0.0
C1779 C 0.52266 0.85541 0.84532 0.0
C1780 C 0.46454 0.83654 0.8139 0.0
C1781 C 0.46343 0.85689 0.80274 0.0
C1782 C 0.50233 0.85551 0.83027 0.0
C1783 C 0.48259 0.87606 0.80555 0.0
C1784 C 0.54352 0.86208 0.83707 0.0
C1785 C 0.5393 0.84797 0.88218 0.0
N1786 N 0.50131 0.87484 0.81893 0.0
N1787 N 0.52114 0.8485 0.86749 0.0
H1788 H 0.52252 0.19179 0.16502 0.0
H1789 H 0.50054 0.08516 0.04647 0.0
H1790 H 0.47224 0.18313 0.10511 0.0
H1791 H 0.56339 0.11467 0.09062 0.0
H1792 H 0.48297 0.10928 0.07688 0.0
H1793 H 0.52873 0.15084 0.14781 0.0
C1794 C 0.51185 0.18058 0.14907 0.0
C1795 C 0.49704 0.19073 0.1362 0.0
C1796 C 0.50055 0.11019 0.08003 0.0
C1797 C 0.50442 0.14464 0.1162 0.0
C1798 C 0.5107 0.09676 0.06249 0.0
C1799 C 0.53368 0.09879 0.06545 0.0
C1800 C 0.51341 0.12561 0.10081 0.0
C1801 C 0.54574 0.11313 0.08726 0.0
C1802 C 0.51565 0.15745 0.13904 0.0
C1803 C 0.48388 0.17582 0.11541 0.0
N1804 N 0.5355 0.12632 0.10398 0.0
N1805 N 0.48823 0.15365 0.10566 0.0
H1806 H 0.18416 0.30578 0.38781 0.0
H1807 H 0.24955 0.33449 0.27471 0.0
H1808 H 0.15096 0.31756 0.32194 0.0
H1809 H 0.26948 0.28937 0.32323 0.0
H1810 H 0.21491 0.33329 0.29427 0.0
H1811 H 0.21689 0.30268 0.3662 0.0
C1812 C 0.18361 0.30712 0.36861 0.0
C1813 C 0.16479 0.3117 0.35656 0.0
C1814 C 0.22688 0.3236 0.30051 0.0
C1815 C 0.20248 0.30934 0.33208 0.0
C1816 C 0.2466 0.32439 0.28947 0.0
C1817 C 0.26197 0.31141 0.29692 0.0
C1818 C 0.22299 0.31041 0.31963 0.0
C1819 C 0.25774 0.29905 0.3165 0.0
C1820 C 0.20233 0.30555 0.35634 0.0
C1821 C 0.16504 0.31366 0.33177 0.0
N1822 N 0.23867 0.29887 0.32718 0.0
N1823 N 0.18376 0.31291 0.32043 0.0
H1824 H 0.95188 0.04262 0.18815 0.0
H1825 H 0.05807 0.09115 0.11452 0.0
H1826 H 0.00888 0.09868 0.22219 0.0
H1827 H 1.00503 0.02939 0.08154 0.0
H1828 H 0.03937 0.09567 0.15232 0.0
H1829 H 0.96886 0.03955 0.14887 0.0
C1830 C 0.96754 0.0551 0.18742 0.0
C1831 C 0.97805 0.07192 0.20922 0.0
C1832 C 0.03165 0.08106 0.13692 0.0
C1833 C 0.99886 0.06751 0.16292 0.0
C1834 C 0.04255 0.07835 0.11492 0.0
C1835 C 0.03372 0.05964 0.09383 0.0
C1836 C 0.01112 0.06515 0.13882 0.0
C1837 C 0.01305 0.04417 0.09665 0.0
C1838 C 0.97757 0.05298 0.16471 0.0
C1839 C 0.99926 0.08612 0.2063 0.0
N1840 N 1.00277 0.04726 0.11815 0.0
N1841 N 0.00859 0.0837 0.18421 0.0
H1842 H 0.31999 0.69473 0.46721 0.0
H1843 H 0.2397 0.68689 0.34674 0.0
H1844 H 0.27185 0.6281 0.43381 0.0
H1845 H 0.2824 0.75369 0.38952 0.0
H1846 H 0.2553 0.66275 0.37321 0.0
H1847 H 0.31138 0.71368 0.4329 0.0
C1848 C 0.30773 0.68399 0.45238 0.0
C1849 C 0.29638 0.66 0.45338 0.0
C1850 C 0.26139 0.68266 0.3765 0.0
C1851 C 0.28593 0.68181 0.41423 0.0
C1852 C 0.2524 0.69649 0.36155 0.0
C1853 C 0.25954 0.72247 0.366 0.0
C1854 C 0.2777 0.69491 0.39592 0.0
C1855 C 0.27644 0.73377 0.38508 0.0
C1856 C 0.30276 0.69483 0.4328 0.0
C1857 C 0.28088 0.64672 0.43362 0.0
N1858 N 0.28477 0.71996 0.39933 0.0
N1859 N 0.27577 0.658 0.41494 0.0
H1860 H 0.61455 1.00109 0.70997 0.0
H1861 H 0.62794 0.03772 0.5808 0.0
H1862 H 0.67766 0.02597 0.68386 0.0
H1863 H 0.56482 1.0074 0.60422 0.0
H1864 H 0.64652 0.02605 0.61505 0.0
H1865 H 0.59657 0.99473 0.66837 0.0
C1866 C 0.62469 1.00468 0.69531 0.0
C1867 C 0.64754 0.0147 0.70039 0.0
C1868 C 0.6286 0.02182 0.61269 0.0
C1869 C 0.62702 1.00795 0.65291 0.0
C1870 C 0.61789 0.02869 0.59319 0.0
C1871 C 0.59468 0.02444 0.59013 0.0
C1872 C 0.61608 1.01083 0.62951 0.0
C1873 C 0.5827 0.0119 0.60636 0.0
C1874 C 0.6144 1.00108 0.67157 0.0
C1875 C 0.65995 0.01854 0.68075 0.0
N1876 N 0.59355 1.0059 0.62563 0.0
N1877 N 0.64944 0.01572 0.65789 0.0
H1878 H 0.32381 0.33546 0.97353 0.0
H1879 H 0.33482 0.36537 0.83886 0.0
H1880 H 0.33696 0.40865 0.95658 0.0
H1881 H 0.31604 0.29059 0.85076 0.0
H1882 H 0.34171 0.38054 0.88303 0.0
H1883 H 0.32599 0.31794 0.93015 0.0
C1884 C 0.32736 0.34786 0.96076 0.0
C1885 C 0.33 0.37359 0.96869 0.0
C1886 C 0.33639 0.36076 0.87619 0.0
C1887 C 0.33261 0.35367 0.91912 0.0
C1888 C 0.3326 0.35208 0.85091 0.0
C1889 C 0.32509 0.3267 0.84117 0.0
C1890 C 0.33205 0.34406 0.89218 0.0
C1891 C 0.32218 0.31028 0.85758 0.0
C1892 C 0.32858 0.33783 0.93601 0.0
C1893 C 0.33461 0.38873 0.95135 0.0
N1894 N 0.32541 0.31928 0.88237 0.0
N1895 N 0.33566 0.37857 0.9275 0.0
H1896 H 0.94699 0.07249 0.36811 0.0
H1897 H 0.05975 0.05324 0.44218 0.0
H1898 H 1.00584 0.06902 0.33228 0.0
H1899 H 0.99754 0.05117 0.47234 0.0
H1900 H 0.04192 0.0588 0.40273 0.0
H1901 H 0.96584 0.06527 0.40571 0.0
C1902 C 0.96388 0.07025 0.36784 0.0
C1903 C 0.97431 0.07156 0.34597 0.0
C1904 C 0.03205 0.05704 0.41791 0.0
C1905 C 0.99703 0.06303 0.39093 0.0
C1906 C 0.04237 0.05363 0.44077 0.0
C1907 C 0.0305 0.05128 0.4616 0.0
C1908 C 0.00939 0.05857 0.41508 0.0
C1909 C 1.00788 0.05263 0.45751 0.0
C1910 C 0.97484 0.06604 0.38974 0.0
C1911 C 0.99655 0.06831 0.34803 0.0
N1912 N 0.99847 0.05613 0.43549 0.0
N1913 N 1.00686 0.06436 0.36955 0.0
H1914 H 0.33371 0.6844 0.5935 0.0
H1915 H 0.27005 0.75058 0.69751 0.0
H1916 H 0.26687 0.69352 0.58142 0.0
H1917 H 0.34091 0.76044 0.70232 0.0
H1918 H 0.26715 0.72268 0.65751 0.0
H1919 H 0.33516 0.70496 0.63679 0.0
C1920 C 0.31926 0.69027 0.60015 0.0
C1921 C 0.30026 0.68765 0.58411 0.0
C1922 C 0.28337 0.73116 0.66724 0.0
C1923 C 0.30172 0.71099 0.63288 0.0
C1924 C 0.28498 0.74713 0.68987 0.0
C1925 C 0.30581 0.75862 0.70243 0.0
C1926 C 0.30274 0.72634 0.65755 0.0
C1927 C 0.3247 0.75301 0.69243 0.0
C1928 C 0.32011 0.70213 0.62466 0.0
C1929 C 0.28192 0.69557 0.59334 0.0
N1930 N 0.32275 0.73728 0.67049 0.0
N1931 N 0.28313 0.70702 0.61709 0.0
H1932 H 0.6421 0.02674 0.81449 0.0
H1933 H 0.65478 0.11861 0.94446 0.0
H1934 H 0.70486 0.07433 0.84654 0.0
H1935 H 0.59297 0.07974 0.9016 0.0
H1936 H 0.67471 0.09866 0.91283 0.0
H1937 H 0.62546 0.04087 0.85107 0.0
C1938 C 0.65242 0.04014 0.82941 0.0
C1939 C 0.67476 0.0497 0.82744 0.0
C1940 C 0.65679 0.09443 0.91059 0.0
C1941 C 0.65569 0.06643 0.86937 0.0
C1942 C 0.64539 0.1059 0.9285 0.0
C1943 C 0.62211 0.10094 0.9257 0.0
C1944 C 0.64477 0.0778 0.8899 0.0
C1945 C 0.61085 0.08394 0.90488 0.0
C1946 C 0.6429 0.04824 0.85031 0.0
C1947 C 0.6875 0.06665 0.84744 0.0
N1948 N 0.62227 0.07311 0.88786 0.0
N1949 N 0.67768 0.07483 0.86757 0.0
H1950 H 0.32102 0.39726 0.11578 0.0
H1951 H 0.3017 0.28177 0.18502 0.0
H1952 H 0.31542 0.32084 0.0814 0.0
H1953 H 0.31409 0.35736 0.22477 0.0
H1954 H 0.30376 0.29669 0.1467 0.0
H1955 H 0.3155 0.38405 0.15541 0.0
C1956 C 0.31839 0.37775 0.11644 0.0
C1957 C 0.31884 0.3602 0.09512 0.0
C1958 C 0.306 0.31014 0.16373 0.0
C1959 C 0.3126 0.34499 0.14035 0.0
C1960 C 0.30475 0.30158 0.18576 0.0
C1961 C 0.30776 0.31826 0.20836 0.0
C1962 C 0.31029 0.33573 0.16392 0.0
C1963 C 0.31178 0.34376 0.20785 0.0
C1964 C 0.31538 0.37024 0.1391 0.0
C1965 C 0.31545 0.33517 0.09723 0.0
N1966 N 0.31297 0.35172 0.18602 0.0
N1967 N 0.31255 0.32843 0.11926 0.0
H1968 H 0.26005 0.95875 0.04059 0.0
H1969 H 0.23792 0.09494 0.05915 0.0
H1970 H 0.31302 0.02313 0.04496 0.0
H1971 H 0.19229 0.03161 0.07436 0.0
H1972 H 0.26589 0.06988 0.05341 0.0
H1973 H 0.23485 0.98577 0.05151 0.0
C1974 C 0.26641 0.97863 0.04392 0.0
C1975 C 0.28867 0.98871 0.04184 0.0
C1976 C 0.2498 0.0616 0.05821 0.0
C1977 C 0.25977 0.0199 0.05434 0.0
C1978 C 0.23388 0.0759 0.0616 0.0
C1979 C 0.21262 0.06524 0.06688 0.0
C1980 C 0.24432 0.0365 0.06 0.0
C1981 C 0.20826 0.04045 0.06971 0.0
C1982 C 0.252 0.99408 0.05026 0.0
C1983 C 0.29597 0.01462 0.04642 0.0
N1984 N 0.22386 0.02691 0.06601 0.0
N1985 N 0.28149 0.02939 0.0523 0.0
H1986 H 0.70724 0.69314 0.99803 0.0
H1987 H 0.63939 0.55355 0.98904 0.0
H1988 H 0.73978 0.63199 0.99407 0.0
H1989 H 0.61609 0.61828 0.02017 0.0
H1990 H 0.67453 0.58076 0.98362 0.0
H1991 H 0.6719 0.66459 0.99857 0.0
C1992 C 0.70699 0.67367 0.99703 0.0
C1993 C 0.72668 0.66508 0.99615 0.0
C1994 C 0.66165 0.58891 0.99161 0.0
C1995 C 0.68596 0.63211 0.99673 0.0
C1996 C 0.64157 0.57339 0.99465 0.0
C1997 C 0.62477 0.58352 1.00539 0.0
C1998 C 0.66476 0.61477 0.99886 0.0
C1999 C 0.62857 0.60948 0.01216 0.0
C2000 C 0.68675 0.65737 0.99746 0.0
C2001 C 0.72511 0.63954 0.99492 0.0
N2002 N 0.64804 0.62411 0.00874 0.0
N2003 N 0.70514 0.62397 0.99525 0.0
H2004 H 0.69298 0.42206 0.25223 0.0
H2005 H 0.79645 0.37691 0.31213 0.0
H2006 H 0.75009 0.47643 0.28896 0.0
H2007 H 0.76755 0.33911 0.2397 0.0
H2008 H 0.77627 0.40991 0.30897 0.0
H2009 H 0.71466 0.38951 0.25213 0.0
C2010 C 0.70999 0.42754 0.26041 0.0
C2011 C 0.71906 0.45317 0.27047 0.0
C2012 C 0.77434 0.39467 0.29348 0.0
C2013 C 0.74497 0.41398 0.27114 0.0
C2014 C 0.78629 0.3755 0.29515 0.0
C2015 C 0.78536 0.35479 0.27576 0.0
C2016 C 0.75937 0.39349 0.27268 0.0
C2017 C 0.77028 0.3546 0.25504 0.0
C2018 C 0.72263 0.40851 0.26026 0.0
C2019 C 0.74166 0.45762 0.28068 0.0
N2020 N 0.75812 0.37296 0.25428 0.0
N2021 N 0.75322 0.4388 0.28106 0.0
H2022 H 0.89576 0.48656 0.52152 0.0
H2023 H 0.01465 0.46175 0.49268 0.0
H2024 H 0.90796 0.41404 0.49508 0.0
H2025 H 1.00302 0.53433 0.51914 0.0
H2026 H 0.97474 0.44456 0.48887 0.0
H2027 H 0.93424 0.50499 0.51709 0.0
C2028 C 0.90647 0.47449 0.51478 0.0
C2029 C 0.89857 0.44865 0.50893 0.0
C2030 C 0.98088 0.46433 0.49519 0.0
C2031 C 0.94267 0.46969 0.50367 0.0
C2032 C 1.00364 0.47413 0.49724 0.0
C2033 C 0.01218 0.49949 0.5062 0.0
C2034 C 0.96654 0.47998 0.50247 0.0
C2035 C 0.99723 0.51473 0.512 0.0
C2036 C 0.92844 0.48505 0.51217 0.0
C2037 C 0.91326 0.43402 0.50006 0.0
N2038 N 0.97516 0.50471 0.51026 0.0
N2039 N 0.93456 0.44473 0.49783 0.0
H2040 H 0.35493 0.07643 0.30128 0.0
H2041 H 0.3606 0.17561 0.21579 0.0
H2042 H 0.41608 0.12649 0.29449 0.0
H2043 H 0.30101 0.14762 0.24709 0.0
H2044 H 0.38123 0.15552 0.24216 0.0
H2045 H 0.33457 0.1006 0.27972 0.0
C2046 C 0.36403 0.09268 0.29547 0.0
C2047 C 0.38718 0.09948 0.29956 0.0
C2048 C 0.36366 0.15389 0.24332 0.0
C2049 C 0.36412 0.12681 0.27452 0.0
C2050 C 0.35189 0.16512 0.22815 0.0
C2051 C 0.32911 0.16304 0.22922 0.0
C2052 C 0.35244 0.14021 0.25932 0.0
C2053 C 0.31859 0.14961 0.24577 0.0
C2054 C 0.35242 0.10645 0.28319 0.0
C2055 C 0.3982 0.12069 0.29173 0.0
N2056 N 0.33031 0.13849 0.26004 0.0
N2057 N 0.38658 0.13344 0.27924 0.0
H2058 H 0.37748 0.18619 0.52337 0.0
H2059 H 0.40277 0.05475 0.53732 0.0
H2060 H 0.32756 0.12066 0.52491 0.0
H2061 H 0.45422 0.12158 0.55006 0.0
H2062 H 0.37563 0.07864 0.52906 0.0
H2063 H 0.40625 0.16316 0.53019 0.0
C2064 C 0.37255 0.16702 0.52521 0.0
C2065 C 0.35001 0.15539 0.52361 0.0
C2066 C 0.39283 0.08818 0.53365 0.0
C2067 C 0.38284 0.12887 0.53113 0.0
C2068 C 0.40841 0.07451 0.53845 0.0
C2069 C 0.43088 0.08614 0.54482 0.0
C2070 C 0.39957 0.11386 0.53505 0.0
C2071 C 0.43712 0.11176 0.54523 0.0
C2072 C 0.38899 0.15388 0.52907 0.0
C2073 C 0.34465 0.13049 0.52607 0.0
N2074 N 0.42155 0.12478 0.54056 0.0
N2075 N 0.36087 0.11813 0.52961 0.0
H2076 H 0.74301 0.5835 0.2844 0.0
H2077 H 0.7479 0.72767 0.27658 0.0
H2078 H 0.68685 0.61748 0.28581 0.0
H2079 H 0.80753 0.70282 0.29156 0.0
H2080 H 0.72616 0.68635 0.27744 0.0
H2081 H 0.76725 0.62473 0.28461 0.0
C2082 C 0.73562 0.59937 0.2848 0.0
C2083 C 0.71241 0.59625 0.28517 0.0
C2084 C 0.74401 0.68973 0.28055 0.0
C2085 C 0.74055 0.64433 0.28511 0.0
C2086 C 0.75666 0.71368 0.28007 0.0
C2087 C 0.78006 0.71957 0.28398 0.0
C2088 C 0.75437 0.67051 0.2847 0.0
C2089 C 0.78977 0.69978 0.28836 0.0
C2090 C 0.7496 0.62312 0.28493 0.0
C2091 C 0.70438 0.61818 0.2856 0.0
N2092 N 0.77707 0.67646 0.28847 0.0
N2093 N 0.71813 0.64067 0.28544 0.0
H2094 H 0.87966 0.48911 0.79972 0.0
H2095 H 0.86419 0.34558 0.80169 0.0
H2096 H 0.93324 0.45922 0.82643 0.0
H2097 H 0.82559 0.37385 0.75089 0.0
H2098 H 0.88769 0.38735 0.81561 0.0
H2099 H 0.85697 0.44725 0.78751 0.0
C2100 C 0.88667 0.4738 0.80319 0.0
C2101 C 0.90855 0.47777 0.81396 0.0
C2102 C 0.87408 0.38438 0.80142 0.0
C2103 C 0.8825 0.42966 0.79978 0.0
C2104 C 0.86062 0.36068 0.79364 0.0
C2105 C 0.84262 0.35666 0.7757 0.0
C2106 C 0.86931 0.40407 0.79128 0.0
C2107 C 0.83905 0.37649 0.76516 0.0
C2108 C 0.8737 0.44987 0.79602 0.0
C2109 C 0.91654 0.45706 0.81805 0.0
N2110 N 0.8521 0.39948 0.77337 0.0
N2111 N 0.90351 0.43384 0.81092 0.0
H2112 H 0.10063 0.86668 0.0586 0.0
H2113 H 0.07533 1.00386 0.09282 0.0
H2114 H 0.09737 0.90566 0.1318 0.0
H2115 H 0.08411 0.97307 0.01849 0.0
H2116 H 0.0814 0.96638 0.10563 0.0
H2117 H 0.09356 0.90295 0.0424 0.0
C2118 C 0.09858 0.88279 0.07138 0.0
C2119 C 0.09978 0.88269 0.09687 0.0
C2120 C 0.08195 0.96748 0.08644 0.0
C2121 C 0.09129 0.9248 0.07807 0.0
C2122 C 0.07836 0.98909 0.07898 0.0
C2123 C 0.07895 0.99208 0.05436 0.0
C2124 C 0.08648 0.94789 0.06943 0.0
C2125 C 0.08315 0.97186 0.0376 0.0
C2126 C 0.09445 0.90361 0.06201 0.0
C2127 C 0.09675 0.90442 0.11212 0.0
N2128 N 0.08676 0.95082 0.04541 0.0
N2129 N 0.09267 0.92415 0.1026 0.0
H2130 H 0.93699 0.27759 0.93104 0.0
H2131 H 0.89039 0.29059 0.7962 0.0
H2132 H 0.9761 0.27408 0.8698 0.0
H2133 H 0.8502 0.28461 0.85609 0.0
H2134 H 0.92187 0.28537 0.82233 0.0
H2135 H 0.90562 0.28076 0.90384 0.0
C2136 C 0.93907 0.27733 0.91183 0.0
C2137 C 0.95957 0.27545 0.90298 0.0
C2138 C 0.90617 0.28518 0.82979 0.0
C2139 C 0.92302 0.27948 0.8712 0.0
C2140 C 0.88803 0.28812 0.81478 0.0
C2141 C 0.86725 0.2881 0.82368 0.0
C2142 C 0.90387 0.28231 0.8542 0.0
C2143 C 0.86572 0.28509 0.84821 0.0
C2144 C 0.92098 0.27919 0.8962 0.0
C2145 C 0.96079 0.2753 0.87768 0.0
N2146 N 0.88359 0.28239 0.86242 0.0
N2147 N 0.94296 0.27742 0.86286 0.0
H2148 H 0.60871 0.24438 0.54758 0.0
H2149 H 0.5762 0.11423 0.5197 0.0
H2150 H 0.58689 0.23846 0.6187 0.0
H2151 H 0.58654 0.11877 0.59778 0.0
H2152 H 0.58289 0.15959 0.52668 0.0
H2153 H 0.60349 0.19944 0.53728 0.0
C2154 C 0.60259 0.23368 0.56106 0.0
C2155 C 0.59812 0.2457 0.58411 0.0
C2156 C 0.58421 0.15087 0.54237 0.0
C2157 C 0.59182 0.19309 0.57209 0.0
C2158 C 0.58048 0.12477 0.5383 0.0
C2159 C 0.58152 0.11244 0.55809 0.0
C2160 C 0.58855 0.16507 0.56654 0.0
C2161 C 0.58604 0.12735 0.58188 0.0
C2162 C 0.59944 0.20773 0.55501 0.0
C2163 C 0.59039 0.23034 0.60064 0.0
N2164 N 0.58924 0.15261 0.58541 0.0
N2165 N 0.58767 0.20505 0.5944 0.0
H2166 H 0.56326 0.75141 0.35912 0.0
H2167 H 0.6932 0.80806 0.35596 0.0
H2168 H 0.60574 0.7933 0.42369 0.0
H2169 H 0.6481 0.76851 0.29254 0.0
H2170 H 0.66286 0.80012 0.38203 0.0
H2171 H 0.59523 0.75487 0.33555 0.0
C2172 C 0.57936 0.76117 0.36846 0.0
C2173 C 0.58166 0.77207 0.39353 0.0
C2174 C 0.65967 0.79304 0.36242 0.0
C2175 C 0.61874 0.77637 0.36631 0.0
C2176 C 0.67706 0.79742 0.34754 0.0
C2177 C 0.67327 0.78917 0.32189 0.0
C2178 C 0.6383 0.78014 0.35165 0.0
C2179 C 0.65185 0.77562 0.3121 0.0
C2180 C 0.59769 0.76321 0.35491 0.0
C2181 C 0.60308 0.78454 0.40445 0.0
N2182 N 0.63533 0.77168 0.32686 0.0
N2183 N 0.62071 0.78645 0.3908 0.0
H2184 H 0.09194 0.31817 0.47683 0.0
H2185 H 0.06618 0.17432 0.47665 0.0
H2186 H 0.10676 0.26749 0.41531 0.0
H2187 H 0.08034 0.23175 0.54204 0.0
H2188 H 0.07728 0.20605 0.45195 0.0
H2189 H 0.0827 0.28465 0.49836 0.0
C2190 C 0.0934 0.29997 0.46771 0.0
C2191 C 0.10048 0.29591 0.44409 0.0
C2192 C 0.07802 0.21155 0.47171 0.0
C2193 C 0.08965 0.25683 0.46932 0.0
C2194 C 0.07175 0.1935 0.48589 0.0
C2195 C 0.07206 0.20034 0.51157 0.0
C2196 C 0.08438 0.23658 0.48329 0.0
C2197 C 0.07922 0.22553 0.52235 0.0
C2198 C 0.0881 0.28073 0.48023 0.0
C2199 C 0.10153 0.27157 0.43348 0.0
N2200 N 0.08492 0.24264 0.50818 0.0
N2201 N 0.09614 0.25284 0.4462 0.0
H2202 H 0.59949 0.29315 0.16498 0.0
H2203 H 0.64677 0.22394 0.26003 0.0
H2204 H 0.55738 0.25628 0.21216 0.0
H2205 H 0.68581 0.292 0.24547 0.0
H2206 H 0.61424 0.23215 0.23891 0.0
H2207 H 0.63203 0.29 0.19068 0.0
C2208 C 0.5971 0.28471 0.18093 0.0
C2209 C 0.5757 0.27505 0.18651 0.0
C2210 C 0.62996 0.2453 0.24051 0.0
C2211 C 0.61276 0.27076 0.21544 0.0
C2212 C 0.64861 0.24073 0.25269 0.0
C2213 C 0.66933 0.25725 0.2547 0.0
C2214 C 0.632 0.26626 0.22972 0.0
C2215 C 0.67046 0.27834 0.24404 0.0
C2216 C 0.61565 0.28291 0.19555 0.0
C2217 C 0.57356 0.26418 0.20734 0.0
N2218 N 0.65214 0.2821 0.23182 0.0
N2219 N 0.59185 0.26196 0.22082 0.0
H2220 H 0.64867 0.90417 0.9522 0.0
H2221 H 0.58225 1.00956 0.943 0.0
H2222 H 0.61939 0.91176 0.88234 0.0
H2223 H 0.58832 0.97468 1.00532 0.0
H2224 H 0.60268 0.98144 0.92035 0.0
H2225 H 0.63623 0.94043 0.9721 0.0
C2226 C 0.64012 0.91397 0.941 0.0
C2227 C 0.63478 0.90499 0.91576 0.0
C2228 C 0.59946 0.98008 0.93902 0.0
C2229 C 0.61987 0.94575 0.93836 0.0
C2230 C 0.58745 0.99573 0.95179 0.0
C2231 C 0.58324 0.99419 0.97604 0.0
C2232 C 0.60768 0.96331 0.9509 0.0
C2233 C 0.59133 0.97673 0.98687 0.0
C2234 C 0.63285 0.93446 0.95235 0.0
C2235 C 0.62379 0.91827 0.90192 0.0
N2236 N 0.60321 0.96206 0.97429 0.0
N2237 N 0.61622 0.93786 0.91352 0.0
H2238 H 0.96703 0.75469 0.72953 0.0
H2239 H 0.84501 0.77691 0.71933 0.0
H2240 H 0.93324 0.76342 0.66247 0.0
H2241 H 0.86734 0.74103 0.77539 0.0
H2242 H 0.87823 0.77346 0.69917 0.0
H2243 H 0.93193 0.75147 0.74821 0.0
C2244 C 0.95226 0.75581 0.71872 0.0
C2245 C 0.95308 0.75943 0.69444 0.0
C2246 C 0.87591 0.76621 0.71582 0.0
C2247 C 0.91312 0.75578 0.71558 0.0
C2248 C 0.85705 0.76839 0.72743 0.0
C2249 C 0.85398 0.76005 0.74948 0.0
C2250 C 0.89197 0.75586 0.72646 0.0
C2251 C 0.86956 0.74826 0.75872 0.0
C2252 C 0.93226 0.75383 0.72932 0.0
C2253 C 0.93345 0.76071 0.68125 0.0
N2254 N 0.88822 0.74693 0.74742 0.0
N2255 N 0.91438 0.75908 0.69204 0.0
H2256 H 0.18897 0.0299 0.86737 0.0
H2257 H 0.07214 0.01289 0.93017 0.0
H2258 H 0.12562 0.01117 0.8244 0.0
H2259 H 0.13376 0.05289 0.97165 0.0
H2260 H 0.0913 1.00861 0.89267 0.0
H2261 H 0.17004 0.03487 0.90522 0.0
C2262 C 0.17109 0.02674 0.86557 0.0
C2263 C 0.15937 0.02008 0.84165 0.0
C2264 C 0.10082 0.01831 0.90989 0.0
C2265 C 0.13669 0.0255 0.88668 0.0
C2266 C 0.0897 0.02075 0.93178 0.0
C2267 C 0.10079 0.03335 0.95519 0.0
C2268 C 0.12388 0.02806 0.91043 0.0
C2269 C 0.1239 0.043 0.9547 0.0
C2270 C 0.16012 0.02966 0.88759 0.0
C2271 C 0.13593 0.01639 0.84176 0.0
N2272 N 0.13435 0.04003 0.93329 0.0
N2273 N 0.12571 0.01891 0.86333 0.0
H2274 H 0.85052 0.44687 0.60143 0.0
H2275 H 0.82289 0.3308 0.66351 0.0
H2276 H 0.79653 0.38343 0.57649 0.0
H2277 H 0.87951 0.3917 0.68813 0.0
H2278 H 0.80649 0.35648 0.64052 0.0
H2279 H 0.85437 0.43405 0.6411 0.0
C2280 C 0.8389 0.43083 0.60471 0.0
C2281 C 0.82351 0.41582 0.58568 0.0
C2282 C 0.82237 0.36442 0.65123 0.0
C2283 C 0.82803 0.40082 0.63045 0.0
C2284 C 0.83176 0.34973 0.66459 0.0
C2285 C 0.85301 0.35877 0.67734 0.0
C2286 C 0.83446 0.38815 0.65005 0.0
C2287 C 0.86352 0.38355 0.67777 0.0
C2288 C 0.84121 0.42337 0.62724 0.0
C2289 C 0.80888 0.39519 0.59068 0.0
N2290 N 0.85438 0.39719 0.66385 0.0
N2291 N 0.81177 0.38801 0.61242 0.0
H2292 H 0.46466 0.10428 0.38929 0.0
H2293 H 0.53247 0.017 0.44462 0.0
H2294 H 0.4426 0.02485 0.37618 0.0
H2295 H 0.53805 0.09341 0.47875 0.0
H2296 H 0.50363 0.0208 0.41398 0.0
H2297 H 0.4945 0.1018 0.41922 0.0
C2298 C 0.46571 0.08642 0.39344 0.0
C2299 C 0.45102 0.06478 0.38089 0.0
C2300 C 0.51144 0.0368 0.428 0.0
C2301 C 0.48562 0.06158 0.41362 0.0
C2302 C 0.5281 0.03474 0.44511 0.0
C2303 C 0.53743 0.05492 0.46406 0.0
C2304 C 0.50451 0.05928 0.42985 0.0
C2305 C 0.53107 0.07745 0.46433 0.0
C2306 C 0.48289 0.08495 0.41013 0.0
C2307 C 0.45346 0.04193 0.38595 0.0
N2308 N 0.51489 0.07902 0.44754 0.0
N2309 N 0.47064 0.04086 0.40179 0.0
H2310 H 0.79451 0.77043 0.08125 0.0
H2311 H 0.79988 0.72443 0.20907 0.0
H2312 H 0.80049 0.69679 0.08821 0.0
H2313 H 0.812 0.80196 0.20572 0.0
H2314 H 0.79466 0.71383 0.16434 0.0
H2315 H 0.7966 0.78207 0.12603 0.0
C2316 C 0.79633 0.75667 0.09213 0.0
C2317 C 0.79736 0.7325 0.08075 0.0
C2318 C 0.79825 0.73318 0.17326 0.0
C2319 C 0.7995 0.74582 0.13224 0.0
C2320 C 0.80108 0.73925 0.19882 0.0
C2321 C 0.80615 0.7641 0.21112 0.0
C2322 C 0.80069 0.75207 0.1596 0.0
C2323 C 0.80775 0.78257 0.19694 0.0
C2324 C 0.79751 0.7634 0.11774 0.0
C2325 C 0.79973 0.71562 0.096 0.0
N2326 N 0.80508 0.77618 0.17187 0.0
N2327 N 0.80061 0.72257 0.12085 0.0
H2328 H 0.18015 0.01816 0.68595 0.0
H2329 H 0.0718 0.03183 0.59883 0.0
H2330 H 0.11521 0.01407 0.70987 0.0
H2331 H 0.13545 0.03271 0.57247 0.0
H2332 H 0.08738 0.02589 0.63905 0.0
H2333 H 0.16482 0.02275 0.64496 0.0
C2334 C 0.16265 0.01758 0.68281 0.0
C2335 C 0.14931 0.01514 0.70248 0.0
C2336 C 0.09809 0.02741 0.62455 0.0
C2337 C 0.13113 0.0215 0.6541 0.0
C2338 C 0.08905 0.03099 0.60122 0.0
C2339 C 0.102 0.03315 0.58125 0.0
C2340 C 0.12058 0.02568 0.62886 0.0
C2341 C 0.12438 0.03141 0.58665 0.0
C2342 C 0.15378 0.0206 0.65908 0.0
C2343 C 0.12668 0.01557 0.69608 0.0
N2344 N 0.13267 0.02791 0.60924 0.0
N2345 N 0.11867 0.01866 0.67327 0.0
H2346 H 0.84041 0.43747 0.44037 0.0
H2347 H 0.81545 0.29945 0.36311 0.0
H2348 H 0.81347 0.37342 0.4706 0.0
H2349 H 0.85699 0.36147 0.34078 0.0
H2350 H 0.81525 0.32567 0.40312 0.0
H2351 H 0.84606 0.40975 0.40316 0.0
C2352 C 0.83556 0.4176 0.43908 0.0
C2353 C 0.82636 0.40768 0.45843 0.0
C2354 C 0.82442 0.33351 0.38941 0.0
C2355 C 0.83291 0.37597 0.41627 0.0
C2356 C 0.8244 0.31858 0.3665 0.0
C2357 C 0.83492 0.32873 0.34791 0.0
C2358 C 0.83519 0.35869 0.39371 0.0
C2359 C 0.84751 0.35321 0.35395 0.0
C2360 C 0.83898 0.4018 0.418 0.0
C2361 C 0.82059 0.38181 0.45602 0.0
N2362 N 0.84693 0.36751 0.37615 0.0
N2363 N 0.82385 0.36683 0.43526 0.0
H2364 H 0.42903 0.0138 0.24005 0.0
H2365 H 0.52496 0.06494 0.16179 0.0
H2366 H 0.4762 0.08364 0.26196 0.0
H2367 H 0.4923 0.98764 0.1517 0.0
H2368 H 0.49912 0.07526 0.19086 0.0
H2369 H 0.44393 1.00777 0.20007 0.0
C2370 C 0.44193 0.02826 0.23598 0.0
C2371 C 0.45151 0.04923 0.25399 0.0
C2372 C 0.49743 0.05607 0.18206 0.0
C2373 C 0.46872 0.0424 0.20905 0.0
C2374 C 0.51211 0.05014 0.16537 0.0
C2375 C 0.51091 0.02533 0.15446 0.0
C2376 C 0.48148 0.03708 0.18807 0.0
C2377 C 0.49406 1.00695 0.16007 0.0
C2378 C 0.45056 0.02473 0.21338 0.0
C2379 C 0.46846 0.06728 0.24833 0.0
N2380 N 0.48009 0.01317 0.17672 0.0
N2381 N 0.4767 0.06335 0.22638 0.0
H2382 H 0.80041 0.74961 0.96556 0.0
H2383 H 0.80554 0.72002 0.81954 0.0
H2384 H 0.80047 0.67706 0.92424 0.0
H2385 H 0.80982 0.79361 0.86113 0.0
H2386 H 0.80246 0.70388 0.85744 0.0
H2387 H 0.80246 0.76582 0.92751 0.0
C2388 C 0.80075 0.73703 0.94847 0.0
C2389 C 0.80028 0.71189 0.94818 0.0
C2390 C 0.80406 0.72356 0.85834 0.0
C2391 C 0.80272 0.73043 0.90436 0.0
C2392 C 0.80573 0.73282 0.83662 0.0
C2393 C 0.80783 0.75825 0.83701 0.0
C2394 C 0.80446 0.73978 0.88081 0.0
C2395 C 0.80834 0.7739 0.85988 0.0
C2396 C 0.80198 0.74634 0.92672 0.0
C2397 C 0.80079 0.69655 0.92542 0.0
N2398 N 0.80662 0.76443 0.88079 0.0
N2399 N 0.802 0.70604 0.90451 0.0
H2400 H 0.86844 0.13039 0.02575 0.0
H2401 H 0.89679 0.99697 0.0143 0.0
H2402 H 0.8168 0.06442 0.01952 0.0
H2403 H 0.93805 0.06053 0.99387 0.0
H2404 H 0.86839 0.02113 0.02271 0.0
H2405 H 0.89576 0.10501 0.0227 0.0
C2406 C 0.86284 0.11053 0.02401 0.0
C2407 C 0.84026 0.09947 0.02255 0.0
C2408 C 0.88374 0.02967 0.01646 0.0
C2409 C 0.8716 0.07017 0.01875 0.0
C2410 C 0.8999 0.0159 0.0115 0.0
C2411 C 0.92005 0.02677 1.00364 0.0
C2412 C 0.8879 0.0545 0.01375 0.0
C2413 C 0.92314 0.05146 1.00054 0.0
C2414 C 0.87848 0.09602 0.02213 0.0
C2415 C 0.83406 0.07366 0.0206 0.0
N2416 N 0.90736 0.06443 1.00572 0.0
N2417 N 0.84967 0.05976 0.01852 0.0
H2418 H 0.38606 0.45625 0.05268 0.0
H2419 H 0.50849 0.46929 0.01283 0.0
H2420 H 0.41446 0.39454 0.02389 0.0
H2421 H 0.48961 0.52957 0.05988 0.0
H2422 H 0.47316 0.44245 0.01596 0.0
H2423 H 0.42264 0.48421 0.0548 0.0
C2424 C 0.39992 0.44851 0.04696 0.0
C2425 C 0.397 0.4229 0.03795 0.0
C2426 C 0.47664 0.46154 0.02568 0.0
C2427 C 0.43883 0.45485 0.04021 0.0
C2428 C 0.49688 0.47698 0.02383 0.0
C2429 C 0.50202 0.50195 0.03582 0.0
C2430 C 0.46101 0.47101 0.03936 0.0
C2431 C 0.48631 0.51058 0.05011 0.0
C2432 C 0.4208 0.46451 0.04822 0.0
C2433 C 0.41568 0.41406 0.03084 0.0
N2434 N 0.46638 0.49522 0.05126 0.0
N2435 N 0.4356 0.42995 0.03197 0.0
H2436 H 0.38615 0.61783 0.74807 0.0
H2437 H 0.36068 0.75105 0.81294 0.0
H2438 H 0.4306 0.66454 0.80844 0.0
H2439 H 0.3446 0.72196 0.73564 0.0
H2440 H 0.38054 0.71725 0.8157 0.0
H2441 H 0.36629 0.65152 0.7469 0.0
C2442 C 0.39197 0.63502 0.76126 0.0
C2443 C 0.41087 0.63734 0.77824 0.0
C2444 C 0.37244 0.71789 0.79809 0.0
C2445 C 0.38649 0.67765 0.77752 0.0
C2446 C 0.36061 0.7374 0.79653 0.0
C2447 C 0.3498 0.73997 0.77402 0.0
C2448 C 0.37369 0.69961 0.77713 0.0
C2449 C 0.35184 0.72129 0.75366 0.0
C2450 C 0.38033 0.65465 0.76055 0.0
C2451 C 0.41661 0.66097 0.79466 0.0
N2452 N 0.36286 0.70243 0.75577 0.0
N2453 N 0.40465 0.67946 0.79402 0.0
H2454 H 0.21914 0.66758 0.52292 0.0
H2455 H 0.12444 0.54958 0.52552 0.0
H2456 H 0.23179 0.59396 0.51219 0.0
H2457 H 0.11824 0.625 0.54817 0.0
H2458 H 0.16386 0.56437 0.52325 0.0
H2459 H 0.18257 0.65148 0.53349 0.0
C2460 C 0.21418 0.64786 0.52249 0.0
C2461 C 0.22861 0.63205 0.51616 0.0
C2462 C 0.15398 0.57767 0.52912 0.0
C2463 C 0.18616 0.61334 0.52867 0.0
C2464 C 0.13136 0.56921 0.5306 0.0
C2465 C 0.11785 0.58607 0.537 0.0
C2466 C 0.16311 0.60324 0.53369 0.0
C2467 C 0.12797 0.61135 0.54308 0.0
C2468 C 0.19322 0.63871 0.52884 0.0
C2469 C 0.22119 0.6068 0.51669 0.0
N2470 N 0.14987 0.61916 0.54099 0.0
N2471 N 0.20035 0.59815 0.52258 0.0
H2472 H 0.75528 1.00847 0.74769 0.0
H2473 H 0.76242 0.89213 0.8076 0.0
H2474 H 0.69845 0.95688 0.76303 0.0
H2475 H 0.81936 0.94222 0.79084 0.0
H2476 H 0.73835 0.91082 0.78368 0.0
H2477 H 0.77844 0.9797 0.75497 0.0
C2478 C 0.74758 0.99086 0.75207 0.0
C2479 C 0.72502 0.98531 0.75538 0.0
C2480 C 0.75611 0.91755 0.78489 0.0
C2481 C 0.75142 0.95252 0.76407 0.0
C2482 C 0.76976 0.90691 0.79855 0.0
C2483 C 0.79269 0.91603 0.80129 0.0
C2484 C 0.76554 0.93767 0.77428 0.0
C2485 C 0.80164 0.93498 0.7892 0.0
C2486 C 0.76083 0.97447 0.75631 0.0
C2487 C 0.71588 0.96213 0.76079 0.0
N2488 N 0.788 0.94547 0.77646 0.0
N2489 N 0.72918 0.94678 0.7654 0.0
H2490 H 0.75631 0.89979 0.51337 0.0
H2491 H 0.72214 0.0315 0.53466 0.0
H2492 H 0.7975 0.96672 0.55732 0.0
H2493 H 0.68183 0.96558 0.48843 0.0
H2494 H 0.74827 1.00716 0.54613 0.0
H2495 H 0.72747 0.92246 0.50697 0.0
C2496 C 0.7592 0.91918 0.522 0.0
C2497 C 0.77946 0.93134 0.53592 0.0
C2498 C 0.73371 0.99792 0.53353 0.0
C2499 C 0.74638 0.95757 0.52844 0.0
C2500 C 0.71879 0.01183 0.52702 0.0
C2501 C 0.69984 1.00051 0.51059 0.0
C2502 C 0.72987 0.97249 0.52329 0.0
C2503 C 0.69618 0.97495 0.5013 0.0
C2504 C 0.74271 0.93216 0.51822 0.0
C2505 C 0.78221 0.95655 0.54646 0.0
N2506 N 0.71114 0.96184 0.5076 0.0
N2507 N 0.76595 0.96881 0.54241 0.0
H2508 H 0.38599 0.50474 0.76626 0.0
H2509 H 0.38157 0.36324 0.78492 0.0
H2510 H 0.44236 0.47616 0.78645 0.0
H2511 H 0.32279 0.38476 0.75968 0.0
H2512 H 0.40294 0.40512 0.7859 0.0
H2513 H 0.36203 0.46292 0.76419 0.0
C2514 C 0.39349 0.48996 0.77027 0.0
C2515 C 0.4167 0.49479 0.77653 0.0
C2516 C 0.38536 0.40092 0.78012 0.0
C2517 C 0.38882 0.44595 0.77421 0.0
C2518 C 0.37292 0.37662 0.77953 0.0
C2519 C 0.34988 0.36962 0.77224 0.0
C2520 C 0.37516 0.41937 0.77347 0.0
C2521 C 0.3403 0.38868 0.76555 0.0
C2522 C 0.37967 0.46585 0.76906 0.0
C2523 C 0.42485 0.47415 0.78147 0.0
N2524 N 0.35279 0.41233 0.76636 0.0
N2525 N 0.41122 0.45128 0.78024 0.0
H2526 H 0.18691 0.63037 0.25963 0.0
H2527 H 0.30474 0.71936 0.30728 0.0
H2528 H 0.24594 0.60278 0.27076 0.0
H2529 H 0.25639 0.74151 0.26216 0.0
H2530 H 0.28096 0.67754 0.3004 0.0
H2531 H 0.21 0.67263 0.26639 0.0
C2532 C 0.20467 0.63319 0.26351 0.0
C2533 C 0.21452 0.61302 0.26456 0.0
C2534 C 0.27564 0.69151 0.29186 0.0
C2535 C 0.24081 0.66111 0.27264 0.0
C2536 C 0.28918 0.71523 0.29574 0.0
C2537 C 0.2828 0.73338 0.28446 0.0
C2538 C 0.25527 0.68623 0.27729 0.0
C2539 C 0.26215 0.72761 0.27041 0.0
C2540 C 0.21779 0.65724 0.26726 0.0
C2541 C 0.23764 0.61773 0.26961 0.0
N2542 N 0.24905 0.70445 0.26718 0.0
N2543 N 0.24997 0.64128 0.27363 0.0
H2544 H 0.51575 0.71918 0.5025 0.0
H2545 H 0.55369 0.58872 0.46939 0.0
H2546 H 0.54032 0.69698 0.43323 0.0
H2547 H 0.53685 0.61891 0.54044 0.0
H2548 H 0.54863 0.62659 0.45497 0.0
H2549 H 0.52275 0.68203 0.51532 0.0
C2550 C 0.5226 0.70656 0.48975 0.0
C2551 C 0.52729 0.71186 0.46647 0.0
C2552 C 0.54626 0.62512 0.4738 0.0
C2553 C 0.53552 0.66787 0.48162 0.0
C2554 C 0.54931 0.60345 0.48214 0.0
C2555 C 0.54649 0.60068 0.50659 0.0
C2556 C 0.53977 0.64431 0.48972 0.0
C2557 C 0.53984 0.62021 0.52172 0.0
C2558 C 0.52667 0.68508 0.49728 0.0
C2559 C 0.53629 0.69415 0.45129 0.0
N2560 N 0.53683 0.64089 0.51316 0.0
N2561 N 0.53999 0.67316 0.45903 0.0
H2562 H 0.69437 0.33171 0.62393 0.0
H2563 H 0.73349 0.30154 0.75449 0.0
H2564 H 0.65024 0.32047 0.6796 0.0
H2565 H 0.77666 0.31292 0.69799 0.0
H2566 H 0.70323 0.30905 0.7282 0.0
H2567 H 0.72454 0.32603 0.65131 0.0
C2568 C 0.69094 0.32826 0.64199 0.0
C2569 C 0.66939 0.32671 0.6492 0.0
C2570 C 0.71931 0.30994 0.72152 0.0
C2571 C 0.70452 0.31978 0.68111 0.0
C2572 C 0.73673 0.30566 0.73661 0.0
C2573 C 0.75798 0.30657 0.72872 0.0
C2574 C 0.72285 0.31524 0.69808 0.0
C2575 C 0.76074 0.31186 0.70509 0.0
C2576 C 0.70832 0.3249 0.65769 0.0
C2577 C 0.6664 0.32203 0.67302 0.0
N2578 N 0.74357 0.31596 0.69081 0.0
N2579 N 0.68359 0.31868 0.68793 0.0
H2580 H 0.03115 0.33907 0.99419 0.0
H2581 H 0.04529 0.47918 0.97063 0.0
H2582 H 0.02932 0.35774 0.92239 0.0
H2583 H 0.05319 0.46246 0.04272 0.0
H2584 H 0.03497 0.4345 0.9531 0.0
H2585 H 0.03527 0.38326 0.01259 0.0
C2586 C 0.03142 0.35233 0.98224 0.0
C2587 C 0.02994 0.34436 0.95658 0.0
C2588 C 0.03853 0.44049 0.97282 0.0
C2589 C 0.03469 0.39546 0.97769 0.0
C2590 C 0.04414 0.46611 0.98288 0.0
C2591 C 0.04939 0.47475 0.00833 0.0
C2592 C 0.03852 0.42304 0.98818 0.0
C2593 C 0.04866 0.45673 0.02309 0.0
C2594 C 0.03383 0.37768 0.99279 0.0
C2595 C 0.03047 0.36273 0.94221 0.0
N2596 N 0.04339 0.43193 0.01289 0.0
N2597 N 0.03283 0.38715 0.95287 0.0
H2598 H 0.06565 0.81149 0.19153 0.0
H2599 H 0.93366 0.78295 0.19377 0.0
H2600 H 0.02195 0.80891 0.12718 0.0
H2601 H 0.98128 0.80159 0.25794 0.0
H2602 H 0.96442 0.79124 0.16825 0.0
H2603 H 0.03394 0.80567 0.21501 0.0
C2604 C 0.04934 0.80964 0.18224 0.0
C2605 C 0.04662 0.81072 0.15723 0.0
C2606 C 0.96805 0.79361 0.18794 0.0
C2607 C 0.00969 0.80398 0.18439 0.0
C2608 C 0.95048 0.78903 0.20256 0.0
C2609 C 0.95477 0.79118 0.22812 0.0
C2610 C 0.9901 0.80036 0.19894 0.0
C2611 C 0.97702 0.79905 0.23833 0.0
C2612 C 0.03113 0.80639 0.19577 0.0
C2613 C 0.0249 0.80821 0.1464 0.0
N2614 N 0.99366 0.80311 0.2238 0.0
N2615 N 1.00728 0.80488 0.16 0.0
H2616 H 0.51619 0.2862 0.09317 0.0
H2617 H 0.57055 0.42289 0.0754 0.0
H2618 H 0.53028 0.34929 0.15326 0.0
H2619 H 0.55104 0.35891 0.01652 0.0
H2620 H 0.55746 0.39675 0.10469 0.0
H2621 H 0.53016 0.31303 0.06552 0.0
C2622 C 0.52228 0.3058 0.10062 0.0
C2623 C 0.52212 0.31551 0.12565 0.0
C2624 C 0.5561 0.38846 0.08537 0.0
C2625 C 0.53831 0.34659 0.09375 0.0
C2626 C 0.56352 0.40334 0.06864 0.0
C2627 C 0.56187 0.39306 0.04345 0.0
C2628 C 0.54691 0.36312 0.07684 0.0
C2629 C 0.55291 0.36759 0.03576 0.0
C2630 C 0.53027 0.32115 0.08471 0.0
C2631 C 0.53009 0.34108 0.13409 0.0
N2632 N 0.54572 0.35356 0.05236 0.0
N2633 N 0.53795 0.3558 0.11813 0.0
H2634 H 0.0594 0.32993 0.34646 0.0
H2635 H 0.96995 0.41235 0.33168 0.0
H2636 H 0.06009 0.39996 0.39369 0.0
H2637 H 0.96361 0.3391 0.28819 0.0
H2638 H 1.00492 0.40919 0.35201 0.0
H2639 H 0.0261 0.3339 0.32247 0.0
C2640 C 0.05266 0.34615 0.35173 0.0
C2641 C 0.06248 0.36449 0.37231 0.0
C2642 C 0.99593 0.39379 0.33798 0.0
C2643 C 0.02449 0.36918 0.34495 0.0
C2644 C 0.97598 0.39566 0.32622 0.0
C2645 C 0.96369 0.37594 0.30822 0.0
C2646 C 1.00382 0.37203 0.33177 0.0
C2647 C 0.97231 0.35463 0.30223 0.0
C2648 C 0.03363 0.34838 0.33807 0.0
C2649 C 0.053 0.38515 0.37821 0.0
N2650 N 0.99181 0.35322 0.314 0.0
N2651 N 0.03461 0.38688 0.36468 0.0
H2652 H 0.01682 0.68742 0.66046 0.0
H2653 H 1.00219 0.58431 0.53969 0.0
H2654 H 0.97754 0.68566 0.59318 0.0
H2655 H 0.04976 0.59107 0.60204 0.0
H2656 H 0.98464 0.61365 0.56417 0.0
H2657 H 0.0198 0.64468 0.64487 0.0
C2658 C 0.00796 0.67759 0.6429 0.0
C2659 C 0.99709 0.68995 0.62791 0.0
C2660 C 0.99874 0.60851 0.57267 0.0
C2661 C 1.00087 0.64168 0.60978 0.0
C2662 C 0.00888 0.59184 0.55863 0.0
C2663 C 0.02794 0.58584 0.56861 0.0
C2664 C 1.0078 0.61954 0.59685 0.0
C2665 C 0.03538 0.59558 0.59348 0.0
C2666 C 0.0099 0.65336 0.63387 0.0
C2667 C 0.98618 0.67669 0.60516 0.0
N2668 N 0.02555 0.61237 0.60665 0.0
N2669 N 0.98867 0.6534 0.5966 0.0
H2670 H 0.65285 0.82012 0.81937 0.0
H2671 H 0.77138 0.78795 0.8196 0.0
H2672 H 0.68799 0.80916 0.88451 0.0
H2673 H 0.75273 0.83671 0.77441 0.0
H2674 H 0.73726 0.7874 0.83898 0.0
H2675 H 0.68556 0.81692 0.79736 0.0
C2676 C 0.66725 0.81646 0.82884 0.0
C2677 C 0.66785 0.81492 0.85376 0.0
C2678 C 0.74059 0.79817 0.82479 0.0
C2679 C 0.70498 0.81147 0.82893 0.0
C2680 C 0.76 0.79843 0.81365 0.0
C2681 C 0.76451 0.81191 0.79498 0.0
C2682 C 0.72553 0.81138 0.81711 0.0
C2683 C 0.74952 0.82574 0.78845 0.0
C2684 C 0.68591 0.81499 0.8164 0.0
C2685 C 0.68695 0.81051 0.86532 0.0
N2686 N 0.73042 0.82489 0.79932 0.0
N2687 N 0.70479 0.80893 0.8528 0.0
H2688 H 0.44752 0.5598 0.68681 0.0
H2689 H 0.56101 0.57594 0.61687 0.0
H2690 H 0.51353 0.58397 0.72379 0.0
H2691 H 0.49708 0.54461 0.57638 0.0
H2692 H 0.54318 0.58115 0.65504 0.0
H2693 H 0.46363 0.55672 0.64679 0.0
C2694 C 0.4653 0.56517 0.68686 0.0
C2695 C 0.47879 0.5728 0.70975 0.0
C2696 C 0.53284 0.57315 0.6379 0.0
C2697 C 0.498 0.5685 0.66249 0.0
C2698 C 0.54321 0.57022 0.61562 0.0
C2699 C 0.53109 0.55969 0.59229 0.0
C2700 C 0.50957 0.56577 0.63795 0.0
C2701 C 0.50773 0.55262 0.59327 0.0
C2702 C 0.47466 0.56304 0.66364 0.0
C2703 C 0.50195 0.57838 0.70734 0.0
N2704 N 0.49802 0.55576 0.61517 0.0
N2705 N 0.51047 0.5762 0.68487 0.0
H2706 H 0.77623 0.12728 0.93132 0.0
H2707 H 0.78831 0.25715 0.88919 0.0
H2708 H 0.81942 0.19609 0.96872 0.0
H2709 H 0.74011 0.19153 0.85256 0.0
H2710 H 0.80482 0.23222 0.91294 0.0
H2711 H 0.7675 0.14769 0.89742 0.0
C2712 C 0.78421 0.14649 0.93209 0.0
C2713 C 0.79829 0.16021 0.95285 0.0
C2714 C 0.79072 0.22314 0.8996 0.0
C2715 C 0.78848 0.18349 0.91459 0.0
C2716 C 0.78134 0.2374 0.88578 0.0
C2717 C 0.76257 0.22655 0.86892 0.0
C2718 C 0.7811 0.19781 0.89701 0.0
C2719 C 0.75421 0.20083 0.86579 0.0
C2720 C 0.77917 0.15814 0.91288 0.0
C2721 C 0.8082 0.185 0.95314 0.0
N2722 N 0.76336 0.18736 0.87996 0.0
N2723 N 0.80298 0.19588 0.93443 0.0
H2724 H 0.1867 0.53533 0.17129 0.0
H2725 H 0.07032 0.49399 0.08892 0.0
H2726 H 0.13147 0.48624 0.1928 0.0
H2727 H 0.11553 0.56536 0.09961 0.0
H2728 H 0.09507 0.48177 0.11878 0.0
H2729 H 0.16436 0.53434 0.13311 0.0
C2730 C 0.17023 0.52347 0.16746 0.0
C2731 C 0.16063 0.51133 0.18528 0.0
C2732 C 0.09949 0.5 0.11429 0.0
C2733 C 0.13501 0.51063 0.14237 0.0
C2734 C 0.08528 0.5071 0.09771 0.0
C2735 C 0.0912 0.53055 0.09159 0.0
C2736 C 0.11964 0.51643 0.12424 0.0
C2737 C 0.11076 0.54685 0.10322 0.0
C2738 C 0.15739 0.52319 0.1459 0.0
C2739 C 0.13919 0.49626 0.17954 0.0
N2740 N 0.12438 0.53941 0.1188 0.0
N2741 N 0.1268 0.49675 0.15872 0.0
H2742 H 0.82874 0.83493 0.47247 0.0
H2743 H 0.83593 0.86498 0.33772 0.0
H2744 H 0.84253 0.90825 0.45581 0.0
H2745 H 0.81745 0.79028 0.34994 0.0
H2746 H 0.84478 0.88011 0.38176 0.0
H2747 H 0.83014 0.81744 0.42894 0.0
C2748 C 0.83232 0.84736 0.45974 0.0
C2749 C 0.83528 0.8731 0.46774 0.0
C2750 C 0.83912 0.86035 0.37499 0.0
C2751 C 0.83695 0.85324 0.41804 0.0
C2752 C 0.83419 0.85171 0.3498 0.0
C2753 C 0.82623 0.82637 0.34024 0.0
C2754 C 0.83541 0.84365 0.39105 0.0
C2755 C 0.82393 0.80993 0.35664 0.0
C2756 C 0.83309 0.83735 0.43491 0.0
C2757 C 0.83992 0.88831 0.45047 0.0
N2758 N 0.82825 0.8189 0.38137 0.0
N2759 N 0.84047 0.87816 0.42652 0.0
H2760 H 0.44399 0.57299 0.86745 0.0
H2761 H 0.55633 0.55421 0.94265 0.0
H2762 H 0.50325 0.56971 0.83238 0.0
H2763 H 0.49407 0.553 0.97254 0.0
H2764 H 0.53874 0.55968 0.90303 0.0
H2765 H 0.46262 0.56614 0.90537 0.0
C2766 C 0.46091 0.57086 0.86742 0.0
C2767 C 0.47156 0.57211 0.84569 0.0
C2768 C 0.52882 0.55815 0.9182 0.0
C2769 C 0.49398 0.56401 0.89095 0.0
C2770 C 0.53901 0.55486 0.94116 0.0
C2771 C 0.52702 0.55273 0.96192 0.0
C2772 C 0.5062 0.55979 0.91524 0.0
C2773 C 0.50447 0.55427 0.95773 0.0
C2774 C 0.47175 0.56687 0.88949 0.0
C2775 C 0.49383 0.56903 0.84803 0.0
N2776 N 0.49518 0.55763 0.93561 0.0
N2777 N 0.504 0.56528 0.86969 0.0
H2778 H 0.82984 0.17471 0.09189 0.0
H2779 H 0.77282 0.24687 0.19826 0.0
H2780 H 0.76643 0.19329 0.08106 0.0
H2781 H 0.84339 0.25267 0.20073 0.0
H2782 H 0.76797 0.21829 0.15862 0.0
H2783 H 0.83257 0.19414 0.13571 0.0
C2784 C 0.81634 0.18238 0.09891 0.0
C2785 C 0.79802 0.18275 0.08307 0.0
C2786 C 0.7845 0.22579 0.16792 0.0
C2787 C 0.80092 0.2047 0.13249 0.0
C2788 C 0.78727 0.24211 0.19046 0.0
C2789 C 0.80856 0.25255 0.20246 0.0
C2790 C 0.80313 0.21966 0.15752 0.0
C2791 C 0.82672 0.24552 0.19173 0.0
C2792 C 0.81794 0.19356 0.12372 0.0
C2793 C 0.78094 0.19296 0.09279 0.0
N2794 N 0.8236 0.22954 0.16978 0.0
N2795 N 0.78284 0.20364 0.11687 0.0
H2796 H 0.20769 0.5731 0.32742 0.0
H2797 H 0.08366 0.56335 0.35655 0.0
H2798 H 0.15471 0.50934 0.29901 0.0
H2799 H 0.13669 0.60511 0.4114 0.0
H2800 H 0.11087 0.54845 0.33159 0.0
H2801 H 0.18362 0.58859 0.35728 0.0
C2802 C 0.19134 0.56198 0.32813 0.0
C2803 C 0.183 0.54002 0.31087 0.0
C2804 C 0.11658 0.56102 0.34903 0.0
C2805 C 0.15549 0.55788 0.3437 0.0
C2806 C 0.1011 0.56981 0.36303 0.0
C2807 C 0.10803 0.58549 0.38591 0.0
C2808 C 0.13916 0.56817 0.35788 0.0
C2809 C 0.13081 0.59298 0.39376 0.0
C2810 C 0.17757 0.57094 0.34484 0.0
C2811 C 0.16161 0.52645 0.31202 0.0
N2812 N 0.14567 0.58425 0.37973 0.0
N2813 N 0.14845 0.53579 0.32785 0.0
H2814 H 0.82421 0.89635 0.61394 0.0
H2815 H 0.80171 0.78125 0.68335 0.0
H2816 H 0.81722 0.8197 0.57951 0.0
H2817 H 0.81807 0.8571 0.72285 0.0
H2818 H 0.80358 0.79591 0.64486 0.0
H2819 H 0.81819 0.88328 0.65351 0.0
C2820 C 0.82114 0.87682 0.61459 0.0
C2821 C 0.82139 0.85915 0.59331 0.0
C2822 C 0.80674 0.80945 0.66189 0.0
C2823 C 0.81456 0.8441 0.63842 0.0
C2824 C 0.8056 0.80105 0.684 0.0
C2825 C 0.80987 0.8179 0.70656 0.0
C2826 C 0.81214 0.83501 0.66201 0.0
C2827 C 0.81488 0.84338 0.70596 0.0
C2828 C 0.81785 0.86939 0.6372 0.0
C2829 C 0.81743 0.83409 0.59536 0.0
N2830 N 0.81593 0.85117 0.68407 0.0
N2831 N 0.81425 0.82741 0.61736 0.0
H2832 H 0.81409 0.51731 0.56324 0.0
H2833 H 0.69996 0.54826 0.52178 0.0
H2834 H 0.76466 0.46745 0.50896 0.0
H2835 H 0.72789 0.57022 0.5977 0.0
H2836 H 0.72891 0.5257 0.51299 0.0
H2837 H 0.7875 0.5439 0.57254 0.0
C2838 C 0.79774 0.51209 0.55321 0.0
C2839 C 0.79146 0.49017 0.53539 0.0
C2840 C 0.72869 0.53553 0.53155 0.0
C2841 C 0.76145 0.52044 0.54552 0.0
C2842 C 0.71207 0.54828 0.53669 0.0
C2843 C 0.71106 0.56074 0.56071 0.0
C2844 C 0.7448 0.53553 0.55038 0.0
C2845 C 0.72793 0.5609 0.57893 0.0
C2846 C 0.78263 0.52715 0.55858 0.0
C2847 C 0.7701 0.48412 0.52294 0.0
N2848 N 0.74412 0.54839 0.57341 0.0
N2849 N 0.75593 0.49925 0.52812 0.0
H2850 H 0.24422 0.13072 0.49576 0.0
H2851 H 0.11744 0.11918 0.5185 0.0
H2852 H 0.21127 0.19139 0.49777 0.0
H2853 H 0.14372 0.05522 0.49262 0.0
H2854 H 0.15237 0.14597 0.51299 0.0
H2855 H 0.20834 0.10271 0.49623 0.0
C2856 C 0.22947 0.13817 0.49613 0.0
C2857 C 0.23089 0.16357 0.49681 0.0
C2858 C 0.15048 0.12606 0.50832 0.0
C2859 C 0.18974 0.13155 0.49765 0.0
C2860 C 0.13054 0.11073 0.51157 0.0
C2861 C 0.12756 0.08483 0.50595 0.0
C2862 C 0.16787 0.11552 0.49983 0.0
C2863 C 0.14512 0.07499 0.49688 0.0
C2864 C 0.20898 0.12212 0.49636 0.0
C2865 C 0.21111 0.17202 0.49723 0.0
N2866 N 0.1646 0.09032 0.49435 0.0
N2867 N 0.19147 0.15614 0.49788 0.0
H2868 H 0.24457 0.9654 0.74901 0.0
H2869 H 0.26574 0.85118 0.81245 0.0
H2870 H 0.19769 0.93058 0.79261 0.0
H2871 H 0.2891 0.85634 0.7421 0.0
H2872 H 0.2457 0.88377 0.8088 0.0
H2873 H 0.26468 0.9316 0.7493 0.0
C2874 C 0.2382 0.9508 0.75869 0.0
C2875 C 0.21859 0.95178 0.77058 0.0
C2876 C 0.25526 0.87817 0.79407 0.0
C2877 C 0.24311 0.91158 0.77166 0.0
C2878 C 0.26708 0.8591 0.79609 0.0
C2879 C 0.28015 0.84998 0.77787 0.0
C2880 C 0.2561 0.89004 0.77368 0.0
C2881 C 0.2801 0.86211 0.75727 0.0
C2882 C 0.24996 0.9311 0.75879 0.0
C2883 C 0.21222 0.93147 0.78278 0.0
N2884 N 0.26884 0.88121 0.75604 0.0
N2885 N 0.22427 0.9131 0.78322 0.0
H2886 H 0.39091 0.98681 0.0209 0.0
H2887 H 0.51328 0.96975 0.99736 0.0
H2888 H 0.40693 0.9153 0.99986 0.0
H2889 H 0.49796 0.03834 0.0316 0.0
H2890 H 0.47353 0.95008 0.99189 0.0
H2891 H 0.42933 1.00668 0.01841 0.0
C2892 C 0.40246 0.97525 0.01573 0.0
C2893 C 0.39567 0.94929 0.01093 0.0
C2894 C 0.47888 0.96953 1.0003 0.0
C2895 C 0.43978 0.97201 0.0081 0.0
C2896 C 0.50146 0.9807 1.00333 0.0
C2897 C 0.50867 1.00575 0.01438 0.0
C2898 C 0.46361 0.98353 0.00881 0.0
C2899 C 0.49295 0.01914 0.02236 0.0
C2900 C 0.42442 0.98663 0.01431 0.0
C2901 C 0.41141 0.93535 1.00399 0.0
N2902 N 0.47116 1.00787 0.01946 0.0
N2903 N 0.43275 0.94688 1.00295 0.0
H2904 H 0.91968 0.63013 0.7958 0.0
H2905 H 0.8042 0.64729 0.73801 0.0
H2906 H 0.85838 0.5759 0.791 0.0
H2907 H 0.86706 0.68303 0.71812 0.0
H2908 H 0.82351 0.62586 0.76408 0.0
H2909 H 0.90007 0.65501 0.77418 0.0
C2910 C 0.90205 0.62365 0.7905 0.0
C2911 C 0.89061 0.60088 0.79499 0.0
C2912 C 0.83306 0.63836 0.75397 0.0
C2913 C 0.86823 0.62911 0.77039 0.0
C2914 C 0.82209 0.65057 0.73916 0.0
C2915 C 0.83411 0.66668 0.72577 0.0
C2916 C 0.85623 0.64255 0.75563 0.0
C2917 C 0.85724 0.6704 0.72788 0.0
C2918 C 0.89093 0.63774 0.77804 0.0
C2919 C 0.86781 0.59326 0.78769 0.0
N2920 N 0.8676 0.65845 0.74262 0.0
N2921 N 0.85735 0.60735 0.7757 0.0
H2922 H 0.8734 0.68724 0.02331 0.0
H2923 H 0.89778 0.55406 0.03144 0.0
H2924 H 0.82311 0.62134 0.02239 0.0
H2925 H 0.94931 0.62088 0.04874 0.0
H2926 H 0.87097 0.57861 0.02405 0.0
H2927 H 0.90197 0.66371 0.02939 0.0
C2928 C 0.86835 0.66789 0.02445 0.0
C2929 C 0.84575 0.6563 0.02238 0.0
C2930 C 0.88812 0.58801 0.02946 0.0
C2931 C 0.87837 0.62921 0.02901 0.0
C2932 C 0.90352 0.57395 0.03377 0.0
C2933 C 0.92591 0.58535 0.04118 0.0
C2934 C 0.89496 0.61387 0.03237 0.0
C2935 C 0.93228 0.61121 0.04308 0.0
C2936 C 0.88467 0.65447 0.0279 0.0
C2937 C 0.84024 0.63115 0.02395 0.0
N2938 N 0.91688 0.62461 0.03885 0.0
N2939 N 0.85635 0.61853 0.02706 0.0
H2940 H 0.24431 0.08335 0.78525 0.0
H2941 H 0.24849 0.22695 0.77534 0.0
H2942 H 0.18771 0.11651 0.78416 0.0
H2943 H 0.30819 0.20314 0.79266 0.0
H2944 H 0.22693 0.18548 0.77597 0.0
H2945 H 0.26839 0.12467 0.78545 0.0
C2946 C 0.23678 0.09904 0.78505 0.0
C2947 C 0.2135 0.09568 0.78478 0.0
C2948 C 0.24477 0.18912 0.77964 0.0
C2949 C 0.24148 0.14388 0.78474 0.0
C2950 C 0.2573 0.21316 0.7793 0.0
C2951 C 0.28066 0.21939 0.78393 0.0
C2952 C 0.2552 0.17014 0.7844 0.0
C2953 C 0.29045 0.19983 0.78887 0.0
C2954 C 0.25068 0.12286 0.7852 0.0
C2955 C 0.20531 0.11742 0.7845 0.0
N2956 N 0.27787 0.17642 0.78886 0.0
N2957 N 0.21898 0.13996 0.78437 0.0
H2958 H 0.37713 0.98872 0.30582 0.0
H2959 H 0.36239 0.84488 0.3046 0.0
H2960 H 0.43134 0.95868 0.3306 0.0
H2961 H 0.32556 0.87357 0.2525 0.0
H2962 H 0.38515 0.88676 0.32005 0.0
H2963 H 0.35459 0.94679 0.29313 0.0
C2964 C 0.38427 0.97337 0.30889 0.0
C2965 C 0.40631 0.97728 0.31909 0.0
C2966 C 0.37208 0.88385 0.30526 0.0
C2967 C 0.38048 0.9292 0.30441 0.0
C2968 C 0.35904 0.8601 0.29659 0.0
C2969 C 0.34177 0.85615 0.27779 0.0
C2970 C 0.3676 0.90366 0.29516 0.0
C2971 C 0.33847 0.87614 0.26739 0.0
C2972 C 0.3714 0.94943 0.30142 0.0
C2973 C 0.41452 0.95655 0.32263 0.0
N2974 N 0.35109 0.8992 0.27647 0.0
N2975 N 0.40158 0.93333 0.31524 0.0
H2976 H 0.60433 0.36808 0.55986 0.0
H2977 H 0.56097 0.49577 0.58744 0.0
H2978 H 0.59051 0.40207 0.63114 0.0
H2979 H 0.59107 0.47594 0.52151 0.0
H2980 H 0.56799 0.45874 0.6011 0.0
H2981 H 0.5967 0.40399 0.54346 0.0
C2982 C 0.5998 0.38301 0.57218 0.0
C2983 C 0.59828 0.38163 0.59719 0.0
C2984 C 0.5729 0.46214 0.58348 0.0
C2985 C 0.58899 0.42327 0.5781 0.0
C2986 C 0.56872 0.48337 0.57551 0.0
C2987 C 0.57472 0.48902 0.55281 0.0
C2988 C 0.58356 0.44584 0.56897 0.0
C2989 C 0.58538 0.47223 0.53873 0.0
C2990 C 0.5954 0.40364 0.56271 0.0
C2991 C 0.59213 0.40191 0.61187 0.0
N2992 N 0.58931 0.45156 0.54691 0.0
N2993 N 0.58767 0.42142 0.60219 0.0
H2994 H 0.47663 0.77239 0.36976 0.0
H2995 H 0.34947 0.78644 0.35771 0.0
H2996 H 0.43746 0.77975 0.43073 0.0
H2997 H 0.39008 0.79001 0.29794 0.0
H2998 H 0.38104 0.78182 0.38376 0.0
H2999 H 0.44501 0.776 0.34246 0.0
C3000 C 0.4614 0.77449 0.37746 0.0
C3001 C 0.46 0.77566 0.40284 0.0
C3002 C 0.38314 0.78363 0.36495 0.0
C3003 C 0.42338 0.77998 0.37136 0.0
C3004 C 0.36501 0.78647 0.34998 0.0
C3005 C 0.36679 0.78881 0.32535 0.0
C3006 C 0.40356 0.78292 0.35549 0.0
C3007 C 0.38758 0.78811 0.31663 0.0
C3008 C 0.44331 0.77671 0.3618 0.0
C3009 C 0.43964 0.7787 0.41145 0.0
N3010 N 0.40497 0.78522 0.33154 0.0
N3011 N 0.42238 0.7807 0.39592 0.0
H3012 H 0.10278 0.74396 0.04635 0.0
H3013 H 0.08409 0.6173 0.09764 0.0
H3014 H 0.08971 0.7406 0.12096 0.0
H3015 H 0.07165 0.61743 0.02065 0.0
H3016 H 0.09162 0.66274 0.10646 0.0
H3017 H 0.09628 0.69857 0.0367 0.0
C3018 C 0.09847 0.73376 0.06077 0.0
C3019 C 0.09674 0.7465 0.0846 0.0
C3020 C 0.08751 0.65293 0.08758 0.0
C3021 C 0.08962 0.69389 0.07355 0.0
C3022 C 0.08338 0.62691 0.08248 0.0
C3023 C 0.07774 0.61332 0.05828 0.0
C3024 C 0.08605 0.66592 0.06838 0.0
C3025 C 0.07657 0.62698 0.03951 0.0
C3026 C 0.09474 0.70771 0.05516 0.0
C3027 C 0.09111 0.73188 0.10232 0.0
N3028 N 0.08079 0.6524 0.04492 0.0
N3029 N 0.08796 0.70657 0.09652 0.0
H3030 H 0.06318 0.25357 0.85802 0.0
H3031 H 0.19325 0.3089 0.85467 0.0
H3032 H 0.10585 0.29544 0.92247 0.0
H3033 H 0.14809 0.26887 0.79146 0.0
H3034 H 0.16287 0.30156 0.88077 0.0
H3035 H 0.09512 0.25653 0.83445 0.0
C3036 C 0.0793 0.26325 0.86732 0.0
C3037 C 0.08168 0.27429 0.89236 0.0
C3038 C 0.15968 0.29425 0.8612 0.0
C3039 C 0.11873 0.27798 0.86515 0.0
C3040 C 0.17709 0.29829 0.8463 0.0
C3041 C 0.17328 0.28973 0.8207 0.0
C3042 C 0.13829 0.28139 0.85048 0.0
C3043 C 0.15184 0.27622 0.81098 0.0
C3044 C 0.09763 0.26499 0.85378 0.0
C3045 C 0.10314 0.28661 0.90325 0.0
N3046 N 0.1353 0.27262 0.82575 0.0
N3047 N 0.12076 0.28823 0.8896 0.0
H3048 H 0.56606 0.78039 0.92591 0.0
H3049 H 0.60539 0.69136 0.00844 0.0
H3050 H 0.63449 0.77782 0.93965 0.0
H3051 H 0.54209 0.71154 0.00914 0.0
H3052 H 0.61521 0.71693 0.97768 0.0
H3053 H 0.55557 0.74752 0.94915 0.0
C3054 C 0.57878 0.77217 0.93311 0.0
C3055 C 0.60109 0.78142 0.93067 0.0
C3056 C 0.59918 0.71573 0.98457 0.0
C3057 C 0.58943 0.74472 0.95817 0.0
C3058 C 0.5936 0.70123 1.00212 0.0
C3059 C 0.57297 0.69954 0.01146 0.0
C3060 C 0.5839 0.72834 0.97605 0.0
C3061 C 0.55828 0.71266 1.0027 0.0
C3062 C 0.57285 0.75372 0.94668 0.0
C3063 C 0.61707 0.77075 0.94083 0.0
N3064 N 0.56401 0.72644 0.98543 0.0
N3065 N 0.61096 0.75308 0.95444 0.0
H3066 H 0.06016 0.76897 0.71481 0.0
H3067 H 0.18317 0.74697 0.71292 0.0
H3068 H 0.09875 0.77407 0.65331 0.0
H3069 H 0.14959 0.75175 0.77859 0.0
H3070 H 0.15207 0.75704 0.69115 0.0
H3071 H 0.09255 0.7636 0.73902 0.0
C3072 C 0.07548 0.76932 0.70646 0.0
C3073 C 0.0766 0.77181 0.68184 0.0
C3074 C 0.15148 0.756 0.71036 0.0
C3075 C 0.11364 0.76531 0.70942 0.0
C3076 C 0.16934 0.75033 0.72287 0.0
C3077 C 0.16917 0.74867 0.74775 0.0
C3078 C 0.13309 0.7599 0.72264 0.0
C3079 C 0.15041 0.7526 0.75939 0.0
C3080 C 0.09394 0.76613 0.7203 0.0
C3081 C 0.09695 0.77206 0.67211 0.0
N3082 N 0.13312 0.75802 0.74673 0.0
N3083 N 0.11453 0.76864 0.68582 0.0
H3084 H 0.16171 0.41342 0.43997 0.0
H3085 H 0.07433 0.49734 0.44319 0.0
H3086 H 0.11595 0.4109 0.3775 0.0
H3087 H 0.1236 0.50128 0.5031 0.0
H3088 H 0.09366 0.4717 0.41599 0.0
H3089 H 0.15367 0.45242 0.45967 0.0
C3090 C 0.15056 0.42168 0.43006 0.0
C3091 C 0.1394 0.40911 0.40724 0.0
C3092 C 0.10035 0.47843 0.43502 0.0
C3093 C 0.12913 0.45289 0.43008 0.0
C3094 C 0.08927 0.49295 0.4506 0.0
C3095 C 0.09701 0.50085 0.47561 0.0
C3096 C 0.11929 0.47184 0.44459 0.0
C3097 C 0.11662 0.49496 0.48413 0.0
C3098 C 0.14576 0.4438 0.44138 0.0
C3099 C 0.12495 0.42027 0.39511 0.0
N3100 N 0.12692 0.48061 0.46871 0.0
N3101 N 0.11973 0.44129 0.407 0.0
H3102 H 0.43291 0.26962 0.16213 0.0
H3103 H 0.36543 0.24075 0.2754 0.0
H3104 H 0.46431 0.2575 0.22899 0.0
H3105 H 0.34321 0.27666 0.21933 0.0
H3106 H 0.39945 0.23892 0.25528 0.0
H3107 H 0.3978 0.26523 0.17999 0.0
C3108 C 0.43242 0.26598 0.18059 0.0
C3109 C 0.45162 0.26405 0.19413 0.0
C3110 C 0.38706 0.24711 0.24738 0.0
C3111 C 0.41128 0.25868 0.21461 0.0
C3112 C 0.36774 0.24814 0.25882 0.0
C3113 C 0.3521 0.25981 0.24951 0.0
C3114 C 0.39029 0.25721 0.22617 0.0
C3115 C 0.35534 0.26839 0.22758 0.0
C3116 C 0.41234 0.26346 0.19076 0.0
C3117 C 0.44994 0.25928 0.21796 0.0
N3118 N 0.37413 0.26706 0.21675 0.0
N3119 N 0.43008 0.25671 0.22746 0.0
H3120 H 0.6853 0.52407 0.36632 0.0
H3121 H 0.5678 0.52692 0.42635 0.0
H3122 H 0.62414 0.5174 0.32218 0.0
H3123 H 0.63052 0.54313 0.47032 0.0
H3124 H 0.58725 0.52195 0.38891 0.0
H3125 H 0.66575 0.52946 0.40363 0.0
C3126 C 0.66778 0.52371 0.36415 0.0
C3127 C 0.65689 0.5202 0.34007 0.0
C3128 C 0.59692 0.5266 0.40668 0.0
C3129 C 0.63341 0.52637 0.38449 0.0
C3130 C 0.58563 0.52947 0.42848 0.0
C3131 C 0.597 0.53561 0.45257 0.0
C3132 C 0.62029 0.52955 0.40798 0.0
C3133 C 0.62043 0.5385 0.45282 0.0
C3134 C 0.65644 0.52684 0.38587 0.0
C3135 C 0.63384 0.52002 0.33971 0.0
N3136 N 0.63091 0.53543 0.43148 0.0
N3137 N 0.62321 0.5229 0.36099 0.0
H3138 H 0.29501 0.88695 0.08227 0.0
H3139 H 0.383 0.89112 0.19226 0.0
H3140 H 0.35426 0.94454 0.10348 0.0
H3141 H 0.32609 0.83142 0.16456 0.0
H3142 H 0.36724 0.9174 0.16873 0.0
H3143 H 0.29972 0.87446 0.12172 0.0
C3144 C 0.30862 0.89747 0.09569 0.0
C3145 C 0.32447 0.91649 0.08969 0.0
C3146 C 0.35802 0.89871 0.16827 0.0
C3147 C 0.33065 0.90162 0.13421 0.0
C3148 C 0.36711 0.88359 0.18149 0.0
C3149 C 0.3562 0.85874 0.1799 0.0
C3150 C 0.33791 0.88888 0.15333 0.0
C3151 C 0.33526 0.85034 0.16636 0.0
C3152 C 0.31143 0.89025 0.11812 0.0
C3153 C 0.34178 0.92966 0.10754 0.0
N3154 N 0.32701 0.86524 0.15333 0.0
N3155 N 0.34481 0.92151 0.12883 0.0
H3156 H 0.93769 0.52374 0.87501 0.0
H3157 H 0.03874 0.59356 0.97523 0.0
H3158 H 0.96353 0.60263 0.88779 0.0
H3159 H 0.02649 0.51535 0.945 0.0
H3160 H 0.00994 0.59759 0.94522 0.0
H3161 H 0.96706 0.52033 0.90507 0.0
C3162 C 0.94905 0.54043 0.88496 0.0
C3163 C 0.94809 0.56356 0.87952 0.0
C3164 C 0.01375 0.5796 0.94482 0.0
C3165 C 0.98204 0.55978 0.91276 0.0
C3166 C 0.03035 0.57738 0.96168 0.0
C3167 C 0.03483 0.55413 0.96239 0.0
C3168 C 1.0013 0.55829 0.92893 0.0
C3169 C 0.0235 0.53361 0.94479 0.0
C3170 C 0.96604 0.53843 0.90163 0.0
C3171 C 0.96353 0.58458 0.89208 0.0
N3172 N 1.00685 0.53606 0.92895 0.0
N3173 N 0.97999 0.5822 0.90809 0.0
H3174 H 0.30493 0.19528 0.58827 0.0
H3175 H 0.31268 0.30275 0.7067 0.0
H3176 H 0.29729 0.26858 0.58211 0.0
H3177 H 0.30271 0.22502 0.70874 0.0
H3178 H 0.30803 0.29191 0.66136 0.0
H3179 H 0.30643 0.20716 0.6329 0.0
C3180 C 0.3037 0.21391 0.59625 0.0
C3181 C 0.30097 0.23088 0.58124 0.0
C3182 C 0.30662 0.27725 0.67179 0.0
C3183 C 0.3026 0.24469 0.63264 0.0
C3184 C 0.30907 0.28344 0.69762 0.0
C3185 C 0.30782 0.26471 0.71144 0.0
C3186 C 0.30341 0.25226 0.65988 0.0
C3187 C 0.30369 0.24002 0.69877 0.0
C3188 C 0.30441 0.22067 0.62179 0.0
C3189 C 0.29936 0.25479 0.59284 0.0
N3190 N 0.30179 0.23455 0.67385 0.0
N3191 N 0.30027 0.26099 0.61778 0.0
H3192 H 0.6794 0.5216 0.18542 0.0
H3193 H 0.56901 0.53261 0.09987 0.0
H3194 H 0.61414 0.51244 0.20912 0.0
H3195 H 0.63233 0.53468 0.07236 0.0
H3196 H 0.58538 0.52671 0.13977 0.0
H3197 H 0.66342 0.52649 0.14482 0.0
C3198 C 0.66172 0.51991 0.18228 0.0
C3199 C 0.6485 0.51592 0.20176 0.0
C3200 C 0.59585 0.52852 0.12509 0.0
C3201 C 0.6295 0.52277 0.15391 0.0
C3202 C 0.58635 0.53211 0.10196 0.0
C3203 C 0.59894 0.53448 0.08174 0.0
C3204 C 0.61847 0.52712 0.12897 0.0
C3205 C 0.6215 0.53316 0.08675 0.0
C3206 C 0.65247 0.52314 0.1588 0.0
C3207 C 0.62556 0.51511 0.19544 0.0
N3208 N 0.63024 0.52971 0.10917 0.0
N3209 N 0.61717 0.51849 0.1729 0.0
H3210 H 0.3329 0.93621 0.94283 0.0
H3211 H 0.31179 0.79788 0.86652 0.0
H3212 H 0.31113 0.87192 0.97473 0.0
H3213 H 0.34734 0.86191 0.84153 0.0
H3214 H 0.31169 0.82416 0.90661 0.0
H3215 H 0.33763 0.90888 0.90503 0.0
C3216 C 0.32898 0.91635 0.94178 0.0
C3217 C 0.32149 0.90626 0.96178 0.0
C3218 C 0.31963 0.83236 0.89234 0.0
C3219 C 0.32698 0.87494 0.91887 0.0
C3220 C 0.31963 0.81738 0.86946 0.0
C3221 C 0.32886 0.82785 0.85036 0.0
C3222 C 0.32893 0.85791 0.89603 0.0
C3223 C 0.33948 0.85308 0.85546 0.0
C3224 C 0.33186 0.90076 0.92034 0.0
C3225 C 0.31689 0.88041 0.95964 0.0
N3226 N 0.33894 0.86731 0.87768 0.0
N3227 N 0.3196 0.86561 0.93851 0.0
H3228 H 0.99373 0.57564 0.76657 0.0
H3229 H 0.97162 0.48267 0.64056 0.0
H3230 H 0.92832 0.53341 0.73682 0.0
H3231 H 0.0313 0.5399 0.66171 0.0
H3232 H 0.95394 0.50409 0.6732 0.0
H3233 H 1.00629 0.56721 0.72596 0.0
C3234 C 0.9819 0.56505 0.75128 0.0
C3235 C 0.9601 0.55481 0.75499 0.0
C3236 C 0.97077 0.5122 0.67044 0.0
C3237 C 0.97442 0.54451 0.7087 0.0
C3238 C 0.98092 0.49985 0.652 0.0
C3239 C 1.00305 0.50933 0.64881 0.0
C3240 C 0.983 0.53392 0.68601 0.0
C3241 C 0.01423 0.53191 0.66368 0.0
C3242 C 0.98905 0.56023 0.7281 0.0
C3243 C 0.94532 0.54147 0.73465 0.0
N3244 N 1.0042 0.54324 0.68193 0.0
N3245 N 0.95291 0.53615 0.71239 0.0
H3246 H 0.30287 0.17361 0.42473 0.0
H3247 H 0.30872 0.29226 0.36149 0.0
H3248 H 0.30336 0.24685 0.46476 0.0
H3249 H 0.30419 0.21837 0.32047 0.0
H3250 H 0.30717 0.27597 0.39939 0.0
H3251 H 0.30336 0.18947 0.38644 0.0
C3252 C 0.30299 0.19301 0.42548 0.0
C3253 C 0.30309 0.2089 0.44807 0.0
C3254 C 0.30649 0.26327 0.38212 0.0
C3255 C 0.30379 0.22729 0.40416 0.0
C3256 C 0.30749 0.2726 0.36042 0.0
C3257 C 0.30663 0.25671 0.33764 0.0
C3258 C 0.30468 0.23779 0.38124 0.0
C3259 C 0.30475 0.23134 0.33752 0.0
C3260 C 0.3033 0.20207 0.40357 0.0
C3261 C 0.30327 0.23389 0.44783 0.0
N3262 N 0.30389 0.2227 0.35893 0.0
N3263 N 0.30369 0.24228 0.4263 0.0
H3264 H 0.37215 0.64384 0.53485 0.0
H3265 H 0.41779 0.52282 0.4867 0.0
H3266 H 0.32924 0.57112 0.51332 0.0
H3267 H 0.45538 0.59803 0.49691 0.0
H3268 H 0.38692 0.53831 0.50489 0.0
H3269 H 0.4042 0.62545 0.53038 0.0
C3270 C 0.36949 0.62387 0.52957 0.0
C3271 C 0.34798 0.60902 0.52416 0.0
C3272 C 0.40208 0.55136 0.50357 0.0
C3273 C 0.38481 0.58772 0.5184 0.0
C3274 C 0.41971 0.54253 0.49337 0.0
C3275 C 0.43907 0.55924 0.49039 0.0
C3276 C 0.404 0.57705 0.51087 0.0
C3277 C 0.44071 0.58459 0.49895 0.0
C3278 C 0.38784 0.61336 0.52691 0.0
C3279 C 0.34556 0.58323 0.51763 0.0
N3280 N 0.42339 0.59269 0.50864 0.0
N3281 N 0.36378 0.57339 0.5145 0.0
H3282 H 0.88874 0.95695 0.54812 0.0
H3283 H 0.01755 0.96725 0.53235 0.0
H3284 H 0.91977 0.89466 0.53335 0.0
H3285 H 0.99009 0.03168 0.55162 0.0
H3286 H 0.98185 0.94092 0.53532 0.0
H3287 H 0.9254 0.98504 0.5519 0.0
C3288 C 0.90319 0.94914 0.54586 0.0
C3289 C 0.901 0.9233 0.54021 0.0
C3290 C 0.98356 0.96082 0.53909 0.0
C3291 C 0.94302 0.95538 0.54448 0.0
C3292 C 1.00404 0.97594 0.53739 0.0
C3293 C 1.0069 1.00183 0.54157 0.0
C3294 C 0.96549 0.97147 0.54478 0.0
C3295 C 0.98871 0.01188 0.54828 0.0
C3296 C 0.92413 0.96521 0.54801 0.0
C3297 C 0.92042 0.91436 0.5375 0.0
N3298 N 0.96872 0.99668 0.54942 0.0
N3299 N 0.94044 0.9303 0.53954 0.0
H3300 H 0.94077 0.16466 0.2723 0.0
H3301 H 0.83872 0.23162 0.30589 0.0
H3302 H 0.88078 0.11906 0.2878 0.0
H3303 H 0.87557 0.24593 0.24534 0.0
H3304 H 0.85566 0.19533 0.30753 0.0
H3305 H 0.92098 0.19846 0.27067 0.0
C3306 C 0.92351 0.16145 0.27561 0.0
C3307 C 0.91305 0.13782 0.28011 0.0
C3308 C 0.85992 0.20617 0.29359 0.0
C3309 C 0.88936 0.17874 0.27907 0.0
C3310 C 0.84966 0.22706 0.29231 0.0
C3311 C 0.85412 0.24227 0.27441 0.0
C3312 C 0.87626 0.20037 0.27789 0.0
C3313 C 0.87041 0.2352 0.25911 0.0
C3314 C 0.91198 0.18118 0.27462 0.0
C3315 C 0.89022 0.13622 0.2841 0.0
N3316 N 0.88059 0.21575 0.26134 0.0
N3317 N 0.87963 0.15588 0.2838 0.0
H3318 H 0.71494 0.16416 1.00067 0.0
H3319 H 0.62302 0.04118 0.99787 0.0
H3320 H 0.73187 0.09397 1.00383 0.0
H3321 H 0.61082 0.11475 0.01244 0.0
H3322 H 0.66274 0.05917 0.99856 0.0
H3323 H 0.67638 0.14534 1.0026 0.0
C3324 C 0.71057 0.14469 1.00157 0.0
C3325 C 0.72678 0.13062 1.00197 0.0
C3326 C 0.65142 0.07138 1.00195 0.0
C3327 C 0.68234 0.10892 1.0044 0.0
C3328 C 0.62888 0.06114 1.00171 0.0
C3329 C 0.61402 0.07666 1.00602 0.0
C3330 C 0.65885 0.09725 1.00563 0.0
C3331 C 0.62202 0.10232 0.00986 0.0
C3332 C 0.68848 0.134 1.00287 0.0
C3333 C 0.71997 0.10553 1.00342 0.0
N3334 N 0.64392 0.11183 0.00954 0.0
N3335 N 0.69821 0.09543 1.00452 0.0
H3336 H 0.27249 0.5183 0.24062 0.0
H3337 H 0.28452 0.39143 0.27827 0.0
H3338 H 0.21826 0.45521 0.23633 0.0
H3339 H 0.33058 0.46177 0.30379 0.0
H3340 H 0.26495 0.41036 0.24987 0.0
H3341 H 0.29836 0.4929 0.2496 0.0
C3342 C 0.26606 0.49891 0.24083 0.0
C3343 C 0.2432 0.48897 0.23848 0.0
C3344 C 0.27955 0.42151 0.26141 0.0
C3345 C 0.27258 0.46006 0.24889 0.0
C3346 C 0.2907 0.41076 0.2776 0.0
C3347 C 0.30886 0.42527 0.29374 0.0
C3348 C 0.28669 0.44687 0.26136 0.0
C3349 C 0.31627 0.45016 0.29208 0.0
C3350 C 0.28083 0.48449 0.24609 0.0
C3351 C 0.23577 0.46371 0.23866 0.0
N3352 N 0.30501 0.46026 0.27636 0.0
N3353 N 0.25042 0.45019 0.2443 0.0
H3354 H 0.25139 0.40313 0.02203 0.0
H3355 H 0.22614 0.5387 0.03391 0.0
H3356 H 0.29809 0.47053 0.05667 0.0
H3357 H 0.17727 0.47174 1.00321 0.0
H3358 H 0.25192 0.51369 0.04395 0.0
H3359 H 0.22337 0.42731 0.01697 0.0
C3360 C 0.2557 0.42297 0.02888 0.0
C3361 C 0.27723 0.43477 0.03979 0.0
C3362 C 0.23554 0.50439 0.03513 0.0
C3363 C 0.24516 0.4627 0.03374 0.0
C3364 C 0.22079 0.5187 0.02924 0.0
C3365 C 0.19947 0.50741 0.01741 0.0
C3366 C 0.22914 0.47839 0.02911 0.0
C3367 C 0.19345 0.48134 0.01237 0.0
C3368 C 0.23968 0.4368 0.0259 0.0
C3369 C 0.28178 0.46057 0.04818 0.0
N3370 N 0.20824 0.46775 0.01805 0.0
N3371 N 0.26599 0.47362 0.04482 0.0
H3372 H 0.8869 1.00521 0.26891 0.0
H3373 H 0.88178 0.8622 0.28288 0.0
H3374 H 0.94332 0.97505 0.2851 0.0
H3375 H 0.82278 0.88558 0.26169 0.0
H3376 H 0.90346 0.90402 0.28415 0.0
H3377 H 0.86267 0.96352 0.26671 0.0
C3378 C 0.89436 0.99011 0.27203 0.0
C3379 C 0.91767 0.99446 0.27721 0.0
C3380 C 0.88577 0.90023 0.27921 0.0
C3381 C 0.88946 0.94574 0.27471 0.0
C3382 C 0.87315 0.87598 0.27844 0.0
C3383 C 0.84994 0.8695 0.27218 0.0
C3384 C 0.8756 0.91919 0.27377 0.0
C3385 C 0.8404 0.88906 0.26669 0.0
C3386 C 0.88038 0.96607 0.27074 0.0
C3387 C 0.92575 0.97342 0.281 0.0
N3388 N 0.85308 0.91265 0.26766 0.0
N3389 N 0.91196 0.95061 0.27972 0.0
H3390 H 0.68361 0.13575 0.7647 0.0
H3391 H 0.80445 0.219 0.80516 0.0
H3392 H 0.74016 0.10402 0.77614 0.0
H3393 H 0.75622 0.24237 0.76101 0.0
H3394 H 0.77987 0.17767 0.79891 0.0
H3395 H 0.70877 0.17616 0.76717 0.0
C3396 C 0.70129 0.13726 0.7677 0.0
C3397 C 0.70978 0.11647 0.77031 0.0
C3398 C 0.77478 0.19175 0.79035 0.0
C3399 C 0.73853 0.16263 0.77341 0.0
C3400 C 0.78876 0.21523 0.7939 0.0
C3401 C 0.78256 0.23366 0.78291 0.0
C3402 C 0.75411 0.18703 0.77646 0.0
C3403 C 0.7618 0.2283 0.76914 0.0
C3404 C 0.71561 0.16028 0.76897 0.0
C3405 C 0.73286 0.1195 0.77399 0.0
N3406 N 0.74822 0.20543 0.76637 0.0
N3407 N 0.74642 0.1422 0.77569 0.0
loop_
_geom_bond_atom_site_label_1
_geom_bond_atom_site_label_2
_geom_bond_distance
_geom_bond_site_symmetry_2
_ccdc_geom_bond_type
Co0 O1 2.216 . S
Co0 O2 2.091 . S
Co0 O4 2.004 . S
Co0 O10 2.021 . S
Co0 O12 2.137 . S
Co0 O13 2.244 . S
O1 Co0 2.216 . S
O1 C8 1.247 . S
O2 Co0 2.091 . S
O2 C8 1.261 . S
C3 O12 1.247 . S
C3 O13 1.272 . S
O4 Co0 2.004 . S
O4 C9 1.259 . S
Co5 O6 2.061 . S
Co5 O11 2.052 . S
Co5 O13 2.135 . S
O6 Co5 2.061 . S
O6 C9 1.235 . S
C7 O10 1.238 . S
C7 O11 1.241 . S
C8 O1 1.247 . S
C8 O2 1.261 . S
C9 O4 1.259 . S
C9 O6 1.235 . S
O10 Co0 2.021 . S
O10 C7 1.238 . S
O11 Co5 2.052 . S
O11 C7 1.241 . S
O12 Co0 2.137 . S
O12 C3 1.247 . S
O13 Co0 2.244 . S
O13 C3 1.272 . S
O13 Co5 2.135 . S
Co14 O15 2.216 . S
Co14 O16 2.091 . S
Co14 O18 2.004 1_655 S
Co14 O24 2.021 . S
Co14 O26 2.137 . S
Co14 O27 2.244 1_655 S
O15 Co14 2.216 . S
O15 C22 1.247 . S
O16 Co14 2.091 . S
O16 C22 1.261 . S
C17 O26 1.247 1_455 S
C17 O27 1.272 . S
O18 Co14 2.004 1_455 S
O18 C23 1.259 . S
Co19 O20 2.061 . S
Co19 O25 2.052 . S
Co19 O27 2.135 . S
O20 Co19 2.061 . S
O20 C23 1.235 . S
C21 O24 1.238 . S
C21 O25 1.241 1_655 S
C22 O15 1.247 . S
C22 O16 1.261 . S
C23 O18 1.259 . S
C23 O20 1.235 . S
O24 Co14 2.021 . S
O24 C21 1.238 . S
O25 Co19 2.052 . S
O25 C21 1.241 1_455 S
O26 Co14 2.137 . S
O26 C17 1.247 1_655 S
O27 Co14 2.244 1_455 S
O27 C17 1.272 . S
O27 Co19 2.135 . S
Co28 O29 2.216 . S
Co28 O30 2.091 . S
Co28 O32 2.004 . S
Co28 O38 2.021 . S
Co28 O40 2.137 . S
Co28 O41 2.244 . S
O29 Co28 2.216 . S
O29 C36 1.247 . S
O30 Co28 2.091 . S
O30 C36 1.261 . S
C31 O40 1.247 . S
C31 O41 1.272 . S
O32 Co28 2.004 . S
O32 C37 1.259 . S
Co33 O34 2.061 . S
Co33 O39 2.052 . S
Co33 O41 2.135 . S
O34 Co33 2.061 . S
O34 C37 1.235 . S
C35 O38 1.238 . S
C35 O39 1.241 . S
C36 O29 1.247 . S
C36 O30 1.261 . S
C37 O32 1.259 . S
C37 O34 1.235 . S
O38 Co28 2.021 . S
O38 C35 1.238 . S
O39 Co33 2.052 . S
O39 C35 1.241 . S
O40 Co28 2.137 . S
O40 C31 1.247 . S
O41 Co28 2.244 . S
O41 C31 1.272 . S
O41 Co33 2.135 . S
Co42 O43 2.216 . S
Co42 O44 2.091 . S
Co42 O46 2.004 . S
Co42 O52 2.021 . S
Co42 O54 2.137 . S
Co42 O55 2.244 . S
O43 Co42 2.216 . S
O43 C50 1.247 . S
O44 Co42 2.091 . S
O44 C50 1.261 . S
C45 O54 1.247 . S
C45 O55 1.272 . S
O46 Co42 2.004 . S
O46 C51 1.259 . S
Co47 O48 2.061 . S
Co47 O53 2.052 . S
Co47 O55 2.135 . S
O48 Co47 2.061 . S
O48 C51 1.235 . S
C49 O52 1.238 . S
C49 O53 1.241 . S
C50 O43 1.247 . S
C50 O44 1.261 . S
C51 O46 1.259 . S
C51 O48 1.235 . S
O52 Co42 2.021 . S
O52 C49 1.238 . S
O53 Co47 2.052 . S
O53 C49 1.241 . S
O54 Co42 2.137 . S
O54 C45 1.247 . S
O55 Co42 2.244 . S
O55 C45 1.272 . S
O55 Co47 2.135 . S
Co56 O57 2.216 . S
Co56 O58 2.091 . S
Co56 O60 2.004 . S
Co56 O66 2.021 . S
Co56 O68 2.137 . S
Co56 O69 2.244 . S
O57 Co56 2.216 . S
O57 C64 1.247 . S
O58 Co56 2.091 . S
O58 C64 1.261 . S
C59 O68 1.247 . S
C59 O69 1.272 . S
O60 Co56 2.004 . S
O60 C65 1.259 . S
Co61 O62 2.061 . S
Co61 O67 2.052 . S
Co61 O69 2.135 . S
O62 Co61 2.061 . S
O62 C65 1.235 . S
C63 O66 1.238 . S
C63 O67 1.241 . S
C64 O57 1.247 . S
C64 O58 1.261 . S
C65 O60 1.259 . S
C65 O62 1.235 . S
O66 Co56 2.021 . S
O66 C63 1.238 . S
O67 Co61 2.052 . S
O67 C63 1.241 . S
O68 Co56 2.137 . S
O68 C59 1.247 . S
O69 Co56 2.244 . S
O69 C59 1.272 . S
O69 Co61 2.135 . S
Co70 O71 2.216 . S
Co70 O72 2.091 . S
Co70 O74 2.004 . S
Co70 O80 2.021 . S
Co70 O82 2.137 . S
Co70 O83 2.244 . S
O71 Co70 2.216 . S
O71 C78 1.247 . S
O72 Co70 2.091 . S
O72 C78 1.261 . S
C73 O82 1.247 . S
C73 O83 1.272 . S
O74 Co70 2.004 . S
O74 C79 1.259 . S
Co75 O76 2.061 . S
Co75 O81 2.052 . S
Co75 O83 2.135 . S
O76 Co75 2.061 . S
O76 C79 1.235 . S
C77 O80 1.238 . S
C77 O81 1.241 . S
C78 O71 1.247 . S
C78 O72 1.261 . S
C79 O74 1.259 . S
C79 O76 1.235 . S
O80 Co70 2.021 . S
O80 C77 1.238 . S
O81 Co75 2.052 . S
O81 C77 1.241 . S
O82 Co70 2.137 . S
O82 C73 1.247 . S
O83 Co70 2.244 . S
O83 C73 1.272 . S
O83 Co75 2.135 . S
Co84 O85 2.216 . S
Co84 O86 2.091 . S
Co84 O88 2.004 . S
Co84 O94 2.021 . S
Co84 O96 2.137 . S
Co84 O97 2.244 . S
O85 Co84 2.216 . S
O85 C92 1.247 . S
O86 Co84 2.091 . S
O86 C92 1.261 . S
C87 O96 1.247 . S
C87 O97 1.272 . S
O88 Co84 2.004 . S
O88 C93 1.259 . S
Co89 O90 2.061 . S
Co89 O95 2.052 . S
Co89 O97 2.135 . S
O90 Co89 2.061 . S
O90 C93 1.235 . S
C91 O94 1.238 . S
C91 O95 1.241 . S
C92 O85 1.247 . S
C92 O86 1.261 . S
C93 O88 1.259 . S
C93 O90 1.235 . S
O94 Co84 2.021 . S
O94 C91 1.238 . S
O95 Co89 2.052 . S
O95 C91 1.241 . S
O96 Co84 2.137 . S
O96 C87 1.247 . S
O97 Co84 2.244 . S
O97 C87 1.272 . S
O97 Co89 2.135 . S
Co98 O99 2.216 . S
Co98 O100 2.091 . S
Co98 O102 2.004 1_455 S
Co98 O108 2.021 . S
Co98 O110 2.137 . S
Co98 O111 2.244 . S
O99 Co98 2.216 . S
O99 C106 1.247 . S
O100 Co98 2.091 . S
O100 C106 1.261 . S
C101 O110 1.247 . S
C101 O111 1.272 . S
O102 Co98 2.004 1_655 S
O102 C107 1.259 . S
Co103 O104 2.061 . S
Co103 O109 2.052 1_655 S
Co103 O111 2.135 1_655 S
O104 Co103 2.061 . S
O104 C107 1.235 . S
C105 O108 1.238 . S
C105 O109 1.241 . S
C106 O99 1.247 . S
C106 O100 1.261 . S
C107 O102 1.259 . S
C107 O104 1.235 . S
O108 Co98 2.021 . S
O108 C105 1.238 . S
O109 Co103 2.052 1_455 S
O109 C105 1.241 . S
O110 Co98 2.137 . S
O110 C101 1.247 . S
O111 Co98 2.244 . S
O111 C101 1.272 . S
O111 Co103 2.135 1_455 S
Co112 O113 2.216 . S
Co112 O114 2.091 . S
Co112 O116 2.004 1_545 S
Co112 O122 2.021 . S
Co112 O124 2.137 . S
Co112 O125 2.244 . S
O113 Co112 2.216 . S
O113 C120 1.247 . S
O114 Co112 2.091 . S
O114 C120 1.261 . S
C115 O124 1.247 . S
C115 O125 1.272 . S
O116 Co112 2.004 1_565 S
O116 C121 1.259 . S
Co117 O118 2.061 . S
Co117 O123 2.052 1_565 S
Co117 O125 2.135 1_565 S
O118 Co117 2.061 . S
O118 C121 1.235 . S
C119 O122 1.238 . S
C119 O123 1.241 . S
C120 O113 1.247 . S
C120 O114 1.261 . S
C121 O116 1.259 . S
C121 O118 1.235 . S
O122 Co112 2.021 . S
O122 C119 1.238 . S
O123 Co117 2.052 1_545 S
O123 C119 1.241 . S
O124 Co112 2.137 . S
O124 C115 1.247 . S
O125 Co112 2.244 . S
O125 C115 1.272 . S
O125 Co117 2.135 1_545 S
Co126 O127 2.216 . S
Co126 O128 2.091 . S
Co126 O130 2.004 . S
Co126 O136 2.021 . S
Co126 O138 2.137 . S
Co126 O139 2.244 . S
O127 Co126 2.216 . S
O127 C134 1.247 . S
O128 Co126 2.091 . S
O128 C134 1.261 . S
C129 O138 1.247 . S
C129 O139 1.272 . S
O130 Co126 2.004 . S
O130 C135 1.259 . S
Co131 O132 2.061 . S
Co131 O137 2.052 . S
Co131 O139 2.135 . S
O132 Co131 2.061 . S
O132 C135 1.235 . S
C133 O136 1.238 . S
C133 O137 1.241 . S
C134 O127 1.247 . S
C134 O128 1.261 . S
C135 O130 1.259 . S
C135 O132 1.235 . S
O136 Co126 2.021 . S
O136 C133 1.238 . S
O137 Co131 2.052 . S
O137 C133 1.241 . S
O138 Co126 2.137 . S
O138 C129 1.247 . S
O139 Co126 2.244 . S
O139 C129 1.272 . S
O139 Co131 2.135 . S
Co140 O141 2.216 . S
Co140 O142 2.091 . S
Co140 O144 2.004 1_565 S
Co140 O150 2.021 . S
Co140 O152 2.137 . S
Co140 O153 2.244 1_565 S
O141 Co140 2.216 . S
O141 C148 1.247 . S
O142 Co140 2.091 . S
O142 C148 1.261 . S
C143 O152 1.247 1_545 S
C143 O153 1.272 . S
O144 Co140 2.004 1_545 S
O144 C149 1.259 . S
Co145 O146 2.061 . S
Co145 O151 2.052 . S
Co145 O153 2.135 . S
O146 Co145 2.061 . S
O146 C149 1.235 . S
C147 O150 1.238 . S
C147 O151 1.241 1_565 S
C148 O141 1.247 . S
C148 O142 1.261 . S
C149 O144 1.259 . S
C149 O146 1.235 . S
O150 Co140 2.021 . S
O150 C147 1.238 . S
O151 Co145 2.052 . S
O151 C147 1.241 1_545 S
O152 Co140 2.137 . S
O152 C143 1.247 1_565 S
O153 Co140 2.244 1_545 S
O153 C143 1.272 . S
O153 Co145 2.135 . S
Co154 O155 2.216 . S
Co154 O156 2.091 . S
Co154 O158 2.004 . S
Co154 O164 2.021 . S
Co154 O166 2.137 1_554 S
Co154 O167 2.244 1_554 S
O155 Co154 2.216 . S
O155 C162 1.247 . S
O156 Co154 2.091 . S
O156 C162 1.261 . S
C157 O166 1.247 . S
C157 O167 1.272 . S
O158 Co154 2.004 . S
O158 C163 1.259 . S
Co159 O160 2.061 . S
Co159 O165 2.052 . S
Co159 O167 2.135 1_554 S
O160 Co159 2.061 . S
O160 C163 1.235 . S
C161 O164 1.238 . S
C161 O165 1.241 . S
C162 O155 1.247 . S
C162 O156 1.261 . S
C163 O158 1.259 . S
C163 O160 1.235 . S
O164 Co154 2.021 . S
O164 C161 1.238 . S
O165 Co159 2.052 . S
O165 C161 1.241 . S
O166 Co154 2.137 1_556 S
O166 C157 1.247 . S
O167 Co154 2.244 1_556 S
O167 C157 1.272 . S
O167 Co159 2.135 1_556 S
Co168 O169 2.216 . S
Co168 O170 2.091 . S
Co168 O172 2.004 . S
Co168 O178 2.021 . S
Co168 O180 2.137 1_554 S
Co168 O181 2.244 . S
O169 Co168 2.216 . S
O169 C176 1.247 . S
O170 Co168 2.091 . S
O170 C176 1.261 . S
C171 O180 1.247 . S
C171 O181 1.272 1_556 S
O172 Co168 2.004 . S
O172 C177 1.259 . S
Co173 O174 2.061 . S
Co173 O179 2.052 . S
Co173 O181 2.135 . S
O174 Co173 2.061 . S
O174 C177 1.235 . S
C175 O178 1.238 . S
C175 O179 1.241 . S
C176 O169 1.247 . S
C176 O170 1.261 . S
C177 O172 1.259 . S
C177 O174 1.235 . S
O178 Co168 2.021 . S
O178 C175 1.238 . S
O179 Co173 2.052 . S
O179 C175 1.241 . S
O180 Co168 2.137 1_556 S
O180 C171 1.247 . S
O181 Co168 2.244 . S
O181 C171 1.272 1_554 S
O181 Co173 2.135 . S
Co182 O183 2.216 . S
Co182 O184 2.091 . S
Co182 O186 2.004 . S
Co182 O192 2.021 . S
Co182 O194 2.137 1_554 S
Co182 O195 2.244 . S
O183 Co182 2.216 . S
O183 C190 1.247 . S
O184 Co182 2.091 . S
O184 C190 1.261 . S
C185 O194 1.247 . S
C185 O195 1.272 1_556 S
O186 Co182 2.004 . S
O186 C191 1.259 . S
Co187 O188 2.061 . S
Co187 O193 2.052 . S
Co187 O195 2.135 . S
O188 Co187 2.061 . S
O188 C191 1.235 . S
C189 O192 1.238 . S
C189 O193 1.241 . S
C190 O183 1.247 . S
C190 O184 1.261 . S
C191 O186 1.259 . S
C191 O188 1.235 . S
O192 Co182 2.021 . S
O192 C189 1.238 . S
O193 Co187 2.052 . S
O193 C189 1.241 . S
O194 Co182 2.137 1_556 S
O194 C185 1.247 . S
O195 Co182 2.244 . S
O195 C185 1.272 1_554 S
O195 Co187 2.135 . S
Co196 O197 2.216 . S
Co196 O198 2.091 . S
Co196 O200 2.004 . S
Co196 O206 2.021 . S
Co196 O208 2.137 . S
Co196 O209 2.244 . S
O197 Co196 2.216 . S
O197 C204 1.247 . S
O198 Co196 2.091 . S
O198 C204 1.261 . S
C199 O208 1.247 . S
C199 O209 1.272 . S
O200 Co196 2.004 . S
O200 C205 1.259 . S
Co201 O202 2.061 . S
Co201 O207 2.052 . S
Co201 O209 2.135 . S
O202 Co201 2.061 . S
O202 C205 1.235 . S
C203 O206 1.238 . S
C203 O207 1.241 . S
C204 O197 1.247 . S
C204 O198 1.261 . S
C205 O200 1.259 . S
C205 O202 1.235 . S
O206 Co196 2.021 . S
O206 C203 1.238 . S
O207 Co201 2.052 . S
O207 C203 1.241 . S
O208 Co196 2.137 . S
O208 C199 1.247 . S
O209 Co196 2.244 . S
O209 C199 1.272 . S
O209 Co201 2.135 . S
Co210 O211 2.216 . S
Co210 O212 2.091 . S
Co210 O214 2.004 . S
Co210 O220 2.021 . S
Co210 O222 2.137 . S
Co210 O223 2.244 . S
O211 Co210 2.216 . S
O211 C218 1.247 . S
O212 Co210 2.091 . S
O212 C218 1.261 . S
C213 O222 1.247 . S
C213 O223 1.272 . S
O214 Co210 2.004 . S
O214 C219 1.259 . S
Co215 O216 2.061 . S
Co215 O221 2.052 . S
Co215 O223 2.135 . S
O216 Co215 2.061 . S
O216 C219 1.235 . S
C217 O220 1.238 . S
C217 O221 1.241 . S
C218 O211 1.247 . S
C218 O212 1.261 . S
C219 O214 1.259 . S
C219 O216 1.235 . S
O220 Co210 2.021 . S
O220 C217 1.238 . S
O221 Co215 2.052 . S
O221 C217 1.241 . S
O222 Co210 2.137 . S
O222 C213 1.247 . S
O223 Co210 2.244 . S
O223 C213 1.272 . S
O223 Co215 2.135 . S
Co224 O225 2.216 . S
Co224 O226 2.091 . S
Co224 O228 2.004 . S
Co224 O234 2.021 . S
Co224 O236 2.137 . S
Co224 O237 2.244 . S
O225 Co224 2.216 . S
O225 C232 1.247 . S
O226 Co224 2.091 . S
O226 C232 1.261 . S
C227 O236 1.247 . S
C227 O237 1.272 . S
O228 Co224 2.004 . S
O228 C233 1.259 . S
Co229 O230 2.061 . S
Co229 O235 2.052 . S
Co229 O237 2.135 . S
O230 Co229 2.061 . S
O230 C233 1.235 . S
C231 O234 1.238 . S
C231 O235 1.241 . S
C232 O225 1.247 . S
C232 O226 1.261 . S
C233 O228 1.259 . S
C233 O230 1.235 . S
O234 Co224 2.021 . S
O234 C231 1.238 . S
O235 Co229 2.052 . S
O235 C231 1.241 . S
O236 Co224 2.137 . S
O236 C227 1.247 . S
O237 Co224 2.244 . S
O237 C227 1.272 . S
O237 Co229 2.135 . S
Co238 O239 2.216 . S
Co238 O240 2.091 . S
Co238 O242 2.004 . S
Co238 O248 2.021 . S
Co238 O250 2.137 . S
Co238 O251 2.244 . S
O239 Co238 2.216 . S
O239 C246 1.247 . S
O240 Co238 2.091 . S
O240 C246 1.261 . S
C241 O250 1.247 . S
C241 O251 1.272 . S
O242 Co238 2.004 . S
O242 C247 1.259 . S
Co243 O244 2.061 . S
Co243 O249 2.052 . S
Co243 O251 2.135 . S
O244 Co243 2.061 . S
O244 C247 1.235 . S
C245 O248 1.238 . S
C245 O249 1.241 . S
C246 O239 1.247 . S
C246 O240 1.261 . S
C247 O242 1.259 . S
C247 O244 1.235 . S
O248 Co238 2.021 . S
O248 C245 1.238 . S
O249 Co243 2.052 . S
O249 C245 1.241 . S
O250 Co238 2.137 . S
O250 C241 1.247 . S
O251 Co238 2.244 . S
O251 C241 1.272 . S
O251 Co243 2.135 . S
Co252 O253 2.216 . S
Co252 O254 2.091 . S
Co252 O256 2.004 . S
Co252 O262 2.021 . S
Co252 O264 2.137 . S
Co252 O265 2.244 . S
O253 Co252 2.216 . S
O253 C260 1.247 . S
O254 Co252 2.091 . S
O254 C260 1.261 . S
C255 O264 1.247 . S
C255 O265 1.272 . S
O256 Co252 2.004 . S
O256 C261 1.259 . S
Co257 O258 2.061 . S
Co257 O263 2.052 . S
Co257 O265 2.135 . S
O258 Co257 2.061 . S
O258 C261 1.235 . S
C259 O262 1.238 . S
C259 O263 1.241 . S
C260 O253 1.247 . S
C260 O254 1.261 . S
C261 O256 1.259 . S
C261 O258 1.235 . S
O262 Co252 2.021 . S
O262 C259 1.238 . S
O263 Co257 2.052 . S
O263 C259 1.241 . S
O264 Co252 2.137 . S
O264 C255 1.247 . S
O265 Co252 2.244 . S
O265 C255 1.272 . S
O265 Co257 2.135 . S
Co266 O267 2.216 . S
Co266 O268 2.091 . S
Co266 O270 2.004 . S
Co266 O276 2.021 . S
Co266 O278 2.137 . S
Co266 O279 2.244 . S
O267 Co266 2.216 . S
O267 C274 1.247 . S
O268 Co266 2.091 . S
O268 C274 1.261 . S
C269 O278 1.247 . S
C269 O279 1.272 . S
O270 Co266 2.004 . S
O270 C275 1.259 . S
Co271 O272 2.061 . S
Co271 O277 2.052 . S
Co271 O279 2.135 . S
O272 Co271 2.061 . S
O272 C275 1.235 . S
C273 O276 1.238 . S
C273 O277 1.241 . S
C274 O267 1.247 . S
C274 O268 1.261 . S
C275 O270 1.259 . S
C275 O272 1.235 . S
O276 Co266 2.021 . S
O276 C273 1.238 . S
O277 Co271 2.052 . S
O277 C273 1.241 . S
O278 Co266 2.137 . S
O278 C269 1.247 . S
O279 Co266 2.244 . S
O279 C269 1.272 . S
O279 Co271 2.135 . S
Co280 O281 2.216 . S
Co280 O282 2.091 . S
Co280 O284 2.004 . S
Co280 O290 2.021 1_556 S
Co280 O292 2.137 . S
Co280 O293 2.244 . S
O281 Co280 2.216 . S
O281 C288 1.246 . S
O282 Co280 2.091 . S
O282 C288 1.261 . S
C283 O292 1.247 . S
C283 O293 1.272 . S
O284 Co280 2.004 . S
O284 C289 1.259 . S
Co285 O286 2.061 . S
Co285 O291 2.052 . S
Co285 O293 2.135 1_554 S
O286 Co285 2.061 . S
O286 C289 1.235 1_554 S
C287 O290 1.238 . S
C287 O291 1.241 . S
C288 O281 1.246 . S
C288 O282 1.261 . S
C289 O284 1.259 . S
C289 O286 1.235 1_556 S
O290 Co280 2.021 1_554 S
O290 C287 1.238 . S
O291 Co285 2.052 . S
O291 C287 1.241 . S
O292 Co280 2.137 . S
O292 C283 1.247 . S
O293 Co280 2.244 . S
O293 C283 1.272 . S
O293 Co285 2.135 1_556 S
Co294 O295 2.216 . S
Co294 O296 2.091 . S
Co294 O298 2.004 . S
Co294 O304 2.021 . S
Co294 O306 2.137 . S
Co294 O307 2.244 . S
O295 Co294 2.216 . S
O295 C302 1.247 . S
O296 Co294 2.091 . S
O296 C302 1.261 . S
C297 O306 1.247 . S
C297 O307 1.272 . S
O298 Co294 2.004 . S
O298 C303 1.259 . S
Co299 O300 2.061 . S
Co299 O305 2.052 . S
Co299 O307 2.135 . S
O300 Co299 2.061 . S
O300 C303 1.235 . S
C301 O304 1.238 . S
C301 O305 1.241 . S
C302 O295 1.247 . S
C302 O296 1.261 . S
C303 O298 1.259 . S
C303 O300 1.235 . S
O304 Co294 2.021 . S
O304 C301 1.238 . S
O305 Co299 2.052 . S
O305 C301 1.241 . S
O306 Co294 2.137 . S
O306 C297 1.247 . S
O307 Co294 2.244 . S
O307 C297 1.272 . S
O307 Co299 2.135 . S
Co308 O309 2.216 . S
Co308 O310 2.091 . S
Co308 O312 2.004 . S
Co308 O318 2.021 . S
Co308 O320 2.137 . S
Co308 O321 2.244 . S
O309 Co308 2.216 . S
O309 C316 1.247 . S
O310 Co308 2.091 . S
O310 C316 1.261 . S
C311 O320 1.247 . S
C311 O321 1.272 . S
O312 Co308 2.004 . S
O312 C317 1.259 . S
Co313 O314 2.061 . S
Co313 O319 2.052 . S
Co313 O321 2.135 . S
O314 Co313 2.061 . S
O314 C317 1.235 . S
C315 O318 1.238 . S
C315 O319 1.241 . S
C316 O309 1.247 . S
C316 O310 1.261 . S
C317 O312 1.259 . S
C317 O314 1.235 . S
O318 Co308 2.021 . S
O318 C315 1.238 . S
O319 Co313 2.052 . S
O319 C315 1.241 . S
O320 Co308 2.137 . S
O320 C311 1.247 . S
O321 Co308 2.244 . S
O321 C311 1.272 . S
O321 Co313 2.135 . S
Co322 O323 2.216 . S
Co322 O324 2.091 . S
Co322 O326 2.004 . S
Co322 O332 2.021 . S
Co322 O334 2.137 . S
Co322 O335 2.244 . S
O323 Co322 2.216 . S
O323 C330 1.247 . S
O324 Co322 2.091 . S
O324 C330 1.261 . S
C325 O334 1.247 . S
C325 O335 1.272 . S
O326 Co322 2.004 . S
O326 C331 1.259 . S
Co327 O328 2.061 . S
Co327 O333 2.052 . S
Co327 O335 2.135 . S
O328 Co327 2.061 . S
O328 C331 1.235 . S
C329 O332 1.238 . S
C329 O333 1.241 . S
C330 O323 1.247 . S
C330 O324 1.261 . S
C331 O326 1.259 . S
C331 O328 1.235 . S
O332 Co322 2.021 . S
O332 C329 1.238 . S
O333 Co327 2.052 . S
O333 C329 1.241 . S
O334 Co322 2.137 . S
O334 C325 1.247 . S
O335 Co322 2.244 . S
O335 C325 1.272 . S
O335 Co327 2.135 . S
Eu336 N367 2.657 1_545 S
Eu336 N374 2.609 1_544 S
Eu336 O380 2.558 1_454 S
Eu336 O381 2.612 . S
Eu336 O383 2.339 . S
Eu336 O384 2.563 . S
Eu336 O385 2.419 1_455 S
Eu336 O387 2.380 . S
Eu336 O388 2.432 1_554 S
Eu336 C400 2.848 1_454 S
C337 C340 1.429 . S
C337 C341 1.411 . S
C337 N344 1.377 . S
C338 C340 1.420 . S
C338 C342 1.423 . S
C338 C350 1.392 . S
C339 C341 1.420 . S
C339 C342 1.351 . S
C339 H362 0.931 . S
C340 C337 1.429 . S
C340 C338 1.420 . S
C340 N348 1.362 . S
C341 C337 1.411 . S
C341 C339 1.420 . S
C341 C346 1.395 . S
C342 C338 1.423 . S
C342 C339 1.351 . S
C342 H354 0.930 . S
C343 C345 1.400 . S
C343 C346 1.386 . S
C343 H355 0.930 . S
N344 C337 1.377 . S
N344 C345 1.321 . S
N344 Eu347 2.609 . S
C345 C343 1.400 . S
C345 N344 1.321 . S
C345 H352 0.930 . S
C346 C341 1.395 . S
C346 C343 1.386 . S
C346 H365 0.930 . S
Eu347 N344 2.609 . S
Eu347 N348 2.657 . S
Eu347 O381 2.380 . S
Eu347 O382 2.432 . S
Eu347 O386 2.558 . S
Eu347 O387 2.612 . S
Eu347 O389 2.339 1_554 S
Eu347 O390 2.563 . S
Eu347 O391 2.419 . S
Eu347 C411 2.848 . S
N348 C340 1.362 . S
N348 Eu347 2.657 . S
N348 C349 1.334 1_554 S
C349 N348 1.334 1_556 S
C349 C351 1.413 . S
C349 H356 0.929 . S
C350 C338 1.392 . S
C350 C351 1.367 1_554 S
C350 H358 0.930 1_554 S
C351 C349 1.413 . S
C351 C350 1.367 1_556 S
C351 H353 0.930 . S
H352 C345 0.930 . S
H353 C351 0.930 . S
H354 C342 0.930 . S
H355 C343 0.930 . S
H356 C349 0.929 . S
H357 C371 0.930 . S
H358 C350 0.930 1_556 S
H359 C377 0.930 . S
H360 C368 0.929 . S
H361 C375 0.929 . S
H362 C339 0.931 . S
H363 C369 0.930 . S
H364 C402 0.930 1_554 S
H365 C346 0.930 . S
H366 C401 0.931 . S
N367 Eu336 2.657 1_565 S
N367 C368 1.334 . S
N367 C372 1.367 . S
C368 H360 0.929 . S
C368 N367 1.334 . S
C368 C371 1.413 . S
C369 H363 0.930 . S
C369 C370 1.392 . S
C369 C371 1.367 1_655 S
C370 C369 1.392 . S
C370 C372 1.415 1_655 S
C370 C402 1.423 1_554 S
C371 H357 0.930 . S
C371 C368 1.413 . S
C371 C369 1.367 1_455 S
C372 N367 1.367 . S
C372 C370 1.415 1_455 S
C372 C376 1.431 1_554 S
H373 C378 0.930 . S
N374 Eu336 2.609 1_566 S
N374 C376 1.376 . S
N374 C377 1.321 . S
C375 H361 0.929 . S
C375 C377 1.395 1_655 S
C375 C378 1.393 . S
C376 C372 1.431 1_556 S
C376 N374 1.376 . S
C376 C379 1.412 1_455 S
C377 H359 0.930 . S
C377 N374 1.321 . S
C377 C375 1.395 1_455 S
C378 H373 0.930 . S
C378 C375 1.393 . S
C378 C379 1.395 . S
C379 C376 1.412 1_655 S
C379 C378 1.395 . S
C379 C401 1.420 . S
O380 Eu336 2.558 1_656 S
O380 C400 1.257 . S
O381 Eu336 2.612 . S
O381 Eu347 2.380 . S
O381 C392 1.276 . S
O382 Eu347 2.432 . S
O382 C399 1.264 . S
O383 Eu336 2.339 . S
O383 C399 1.254 . S
O384 Eu336 2.563 . S
O384 C392 1.235 . S
O385 Eu336 2.419 1_655 S
O385 C400 1.249 1_554 S
O386 Eu347 2.558 . S
O386 C411 1.257 . S
O387 Eu336 2.380 . S
O387 Eu347 2.612 . S
O387 C403 1.276 1_545 S
O388 Eu336 2.432 1_556 S
O388 C410 1.264 . S
O389 Eu347 2.339 1_556 S
O389 C410 1.254 . S
O390 Eu347 2.563 . S
O390 C403 1.235 1_545 S
O391 Eu347 2.419 . S
O391 C411 1.249 . S
C392 O381 1.276 . S
C392 O384 1.235 . S
C393 C395 1.393 1_556 S
C393 C397 1.395 . S
C393 C400 1.492 . S
C394 C395 1.386 1_556 S
C394 C396 1.414 . S
C395 C393 1.393 1_554 S
C395 C394 1.386 1_554 S
C395 H412 0.930 . S
C396 C394 1.414 . S
C396 C398 1.395 . S
C396 H413 0.930 . S
C397 C393 1.395 . S
C397 C398 1.379 . S
C397 H414 0.930 . S
C398 C396 1.395 . S
C398 C397 1.379 . S
C398 H415 0.930 . S
C399 O382 1.264 . S
C399 O383 1.254 . S
C400 Eu336 2.848 1_656 S
C400 O380 1.257 . S
C400 O385 1.249 1_556 S
C400 C393 1.492 . S
C401 H366 0.931 . S
C401 C379 1.420 . S
C401 C402 1.351 . S
C402 H364 0.930 1_556 S
C402 C370 1.423 1_556 S
C402 C401 1.351 . S
C403 O387 1.276 1_565 S
C403 O390 1.235 1_565 S
C404 C405 1.393 . S
C404 C408 1.395 . S
C404 C411 1.492 . S
C405 C404 1.393 . S
C405 C406 1.392 . S
C405 H416 0.930 . S
C406 C405 1.392 . S
C406 C407 1.386 . S
C407 C406 1.386 . S
C407 C409 1.395 . S
C407 H417 0.930 . S
C408 C404 1.395 . S
C408 C409 1.379 . S
C408 H418 0.930 . S
C409 C407 1.395 . S
C409 C408 1.379 . S
C409 H419 0.930 . S
C410 O388 1.264 . S
C410 O389 1.254 . S
C411 Eu347 2.848 . S
C411 O386 1.257 . S
C411 O391 1.249 . S
C411 C404 1.492 . S
H412 C395 0.930 . S
H413 C396 0.930 . S
H414 C397 0.930 . S
H415 C398 0.930 . S
H416 C405 0.930 . S
H417 C407 0.930 . S
H418 C408 0.930 . S
H419 C409 0.930 . S
Eu420 N451 2.657 . S
Eu420 N458 2.609 . S
Eu420 O464 2.558 . S
Eu420 O465 2.612 . S
Eu420 O467 2.339 . S
Eu420 O468 2.563 . S
Eu420 O469 2.419 . S
Eu420 O471 2.380 . S
Eu420 O472 2.432 . S
Eu420 C484 2.848 . S
C421 C424 1.429 . S
C421 C425 1.411 . S
C421 N428 1.377 . S
C422 C424 1.420 . S
C422 C426 1.423 . S
C422 C434 1.392 . S
C423 C425 1.420 . S
C423 C426 1.351 . S
C423 H446 0.931 . S
C424 C421 1.429 . S
C424 C422 1.420 . S
C424 N432 1.362 . S
C425 C421 1.411 . S
C425 C423 1.420 . S
C425 C430 1.395 . S
C426 C422 1.423 . S
C426 C423 1.351 . S
C426 H438 0.930 . S
C427 C429 1.400 . S
C427 C430 1.386 . S
C427 H439 0.930 . S
N428 C421 1.377 . S
N428 C429 1.321 . S
N428 Eu431 2.609 . S
C429 C427 1.400 . S
C429 N428 1.321 . S
C429 H436 0.930 . S
C430 C425 1.395 . S
C430 C427 1.386 . S
C430 H449 0.930 . S
Eu431 N428 2.609 . S
Eu431 N432 2.657 . S
Eu431 O465 2.380 . S
Eu431 O466 2.432 . S
Eu431 O470 2.558 . S
Eu431 O471 2.612 . S
Eu431 O473 2.339 . S
Eu431 O474 2.563 . S
Eu431 O475 2.419 . S
Eu431 C495 2.848 . S
N432 C424 1.362 . S
N432 Eu431 2.657 . S
N432 C433 1.334 . S
C433 N432 1.334 . S
C433 C435 1.413 . S
C433 H440 0.929 . S
C434 C422 1.392 . S
C434 C435 1.367 . S
C434 H442 0.930 . S
C435 C433 1.413 . S
C435 C434 1.367 . S
C435 H437 0.930 . S
H436 C429 0.930 . S
H437 C435 0.930 . S
H438 C426 0.930 . S
H439 C427 0.930 . S
H440 C433 0.929 . S
H441 C455 0.930 . S
H442 C434 0.930 . S
H443 C461 0.930 . S
H444 C452 0.929 . S
H445 C459 0.930 . S
H446 C423 0.931 . S
H447 C453 0.930 . S
H448 C486 0.930 . S
H449 C430 0.930 . S
H450 C485 0.931 . S
N451 Eu420 2.657 . S
N451 C452 1.334 . S
N451 C456 1.362 . S
C452 H444 0.929 . S
C452 N451 1.334 . S
C452 C455 1.413 . S
C453 H447 0.930 . S
C453 C454 1.392 . S
C453 C455 1.367 . S
C454 C453 1.392 . S
C454 C456 1.420 . S
C454 C486 1.423 . S
C455 H441 0.930 . S
C455 C452 1.413 . S
C455 C453 1.367 . S
C456 N451 1.362 . S
C456 C454 1.420 . S
C456 C460 1.429 . S
H457 C462 0.930 . S
N458 Eu420 2.609 . S
N458 C460 1.377 . S
N458 C461 1.321 . S
C459 H445 0.930 . S
C459 C461 1.400 . S
C459 C462 1.386 . S
C460 C456 1.429 . S
C460 N458 1.377 . S
C460 C463 1.411 . S
C461 H443 0.930 . S
C461 N458 1.321 . S
C461 C459 1.400 . S
C462 H457 0.930 . S
C462 C459 1.386 . S
C462 C463 1.395 . S
C463 C460 1.411 . S
C463 C462 1.395 . S
C463 C485 1.420 . S
O464 Eu420 2.558 . S
O464 C484 1.257 . S
O465 Eu420 2.612 . S
O465 Eu431 2.380 . S
O465 C476 1.276 . S
O466 Eu431 2.432 . S
O466 C483 1.264 . S
O467 Eu420 2.339 . S
O467 C483 1.254 . S
O468 Eu420 2.563 . S
O468 C476 1.235 . S
O469 Eu420 2.419 . S
O469 C484 1.249 . S
O470 Eu431 2.558 . S
O470 C495 1.257 . S
O471 Eu420 2.380 . S
O471 Eu431 2.612 . S
O471 C487 1.276 . S
O472 Eu420 2.432 . S
O472 C494 1.264 . S
O473 Eu431 2.339 . S
O473 C494 1.254 . S
O474 Eu431 2.563 . S
O474 C487 1.235 . S
O475 Eu431 2.419 . S
O475 C495 1.249 . S
C476 O465 1.276 . S
C476 O468 1.235 . S
C477 C479 1.393 . S
C477 C481 1.395 . S
C477 C484 1.492 . S
C478 C479 1.392 . S
C478 C480 1.386 . S
C479 C477 1.393 . S
C479 C478 1.392 . S
C479 H496 0.930 . S
C480 C478 1.386 . S
C480 C482 1.395 . S
C480 H497 0.930 . S
C481 C477 1.395 . S
C481 C482 1.379 . S
C481 H498 0.930 . S
C482 C480 1.395 . S
C482 C481 1.379 . S
C482 H499 0.930 . S
C483 O466 1.264 . S
C483 O467 1.254 . S
C484 Eu420 2.848 . S
C484 O464 1.257 . S
C484 O469 1.249 . S
C484 C477 1.492 . S
C485 H450 0.931 . S
C485 C463 1.420 . S
C485 C486 1.351 . S
C486 H448 0.930 . S
C486 C454 1.423 . S
C486 C485 1.351 . S
C487 O471 1.276 . S
C487 O474 1.235 . S
C488 C489 1.393 . S
C488 C492 1.395 . S
C488 C495 1.492 . S
C489 C488 1.393 . S
C489 C490 1.392 . S
C489 H500 0.930 . S
C490 C489 1.392 . S
C490 C491 1.386 . S
C491 C490 1.386 . S
C491 C493 1.395 . S
C491 H501 0.930 . S
C492 C488 1.395 . S
C492 C493 1.379 . S
C492 H502 0.930 . S
C493 C491 1.395 . S
C493 C492 1.379 . S
C493 H503 0.930 . S
C494 O472 1.264 . S
C494 O473 1.254 . S
C495 Eu431 2.848 . S
C495 O470 1.257 . S
C495 O475 1.249 . S
C495 C488 1.492 . S
H496 C479 0.930 . S
H497 C480 0.930 . S
H498 C481 0.930 . S
H499 C482 0.930 . S
H500 C489 0.930 . S
H501 C491 0.930 . S
H502 C492 0.930 . S
H503 C493 0.930 . S
Eu504 N535 2.657 . S
Eu504 N542 2.609 . S
Eu504 O548 2.558 . S
Eu504 O549 2.612 . S
Eu504 O551 2.339 . S
Eu504 O552 2.563 1_545 S
Eu504 O553 2.419 . S
Eu504 O555 2.380 . S
Eu504 O556 2.432 . S
Eu504 C568 2.848 . S
C505 C508 1.429 . S
C505 C509 1.411 . S
C505 N512 1.377 1_565 S
C506 C508 1.420 . S
C506 C510 1.423 . S
C506 C518 1.392 . S
C507 C509 1.420 . S
C507 C510 1.351 . S
C507 H530 0.931 . S
C508 C505 1.429 . S
C508 C506 1.420 . S
C508 N516 1.362 . S
C509 C505 1.411 . S
C509 C507 1.420 . S
C509 C514 1.395 . S
C510 C506 1.423 . S
C510 C507 1.351 . S
C510 H522 0.930 . S
C511 C513 1.381 1_565 S
C511 C514 1.409 . S
C511 H523 0.926 1_565 S
N512 C505 1.377 1_545 S
N512 C513 1.321 . S
N512 Eu515 2.609 . S
C513 C511 1.381 1_545 S
C513 N512 1.321 . S
C513 H520 0.930 . S
C514 C509 1.395 . S
C514 C511 1.409 . S
C514 H533 0.930 . S
Eu515 N512 2.609 . S
Eu515 N516 2.657 1_545 S
Eu515 O549 2.380 . S
Eu515 O550 2.432 . S
Eu515 O554 2.558 . S
Eu515 O555 2.612 . S
Eu515 O557 2.339 . S
Eu515 O558 2.563 . S
Eu515 O559 2.419 . S
Eu515 C579 2.848 . S
N516 C508 1.362 . S
N516 Eu515 2.657 1_565 S
N516 C517 1.334 . S
C517 N516 1.334 . S
C517 C519 1.413 . S
C517 H524 0.929 . S
C518 C506 1.392 . S
C518 C519 1.367 . S
C518 H526 0.930 . S
C519 C517 1.413 . S
C519 C518 1.367 . S
C519 H521 0.930 . S
H520 C513 0.930 . S
H521 C519 0.930 . S
H522 C510 0.930 . S
H523 C511 0.926 1_545 S
H524 C517 0.929 . S
H525 C539 0.930 . S
H526 C518 0.930 . S
H527 C545 0.930 . S
H528 C536 0.929 . S
H529 C543 0.930 . S
H530 C507 0.931 . S
H531 C537 0.930 . S
H532 C570 0.930 . S
H533 C514 0.930 . S
H534 C569 0.931 . S
N535 Eu504 2.657 . S
N535 C536 1.334 . S
N535 C540 1.362 . S
C536 H528 0.929 . S
C536 N535 1.334 . S
C536 C539 1.413 . S
C537 H531 0.930 . S
C537 C538 1.392 . S
C537 C539 1.367 . S
C538 C537 1.392 . S
C538 C540 1.420 . S
C538 C570 1.423 . S
C539 H525 0.930 . S
C539 C536 1.413 . S
C539 C537 1.367 . S
C540 N535 1.362 . S
C540 C538 1.420 . S
C540 C544 1.429 . S
H541 C546 0.930 . S
N542 Eu504 2.609 . S
N542 C544 1.377 . S
N542 C545 1.321 . S
C543 H529 0.930 . S
C543 C545 1.400 . S
C543 C546 1.386 . S
C544 C540 1.429 . S
C544 N542 1.377 . S
C544 C547 1.411 . S
C545 H527 0.930 . S
C545 N542 1.321 . S
C545 C543 1.400 . S
C546 H541 0.930 . S
C546 C543 1.386 . S
C546 C547 1.395 . S
C547 C544 1.411 . S
C547 C546 1.395 . S
C547 C569 1.420 . S
O548 Eu504 2.558 . S
O548 C568 1.257 . S
O549 Eu504 2.612 . S
O549 Eu515 2.380 . S
O549 C560 1.276 1_545 S
O550 Eu515 2.432 . S
O550 C567 1.264 . S
O551 Eu504 2.339 . S
O551 C567 1.254 . S
O552 Eu504 2.563 1_565 S
O552 C560 1.235 . S
O553 Eu504 2.419 . S
O553 C568 1.249 . S
O554 Eu515 2.558 . S
O554 C579 1.257 . S
O555 Eu504 2.380 . S
O555 Eu515 2.612 . S
O555 C571 1.276 . S
O556 Eu504 2.432 . S
O556 C578 1.264 . S
O557 Eu515 2.339 . S
O557 C578 1.254 . S
O558 Eu515 2.563 . S
O558 C571 1.235 . S
O559 Eu515 2.419 . S
O559 C579 1.249 . S
C560 O549 1.276 1_565 S
C560 O552 1.235 . S
C561 C563 1.393 1_545 S
C561 C565 1.395 . S
C561 C568 1.492 . S
C562 C563 1.392 . S
C562 C564 1.386 . S
C563 C561 1.393 1_565 S
C563 C562 1.392 . S
C563 H580 0.930 . S
C564 C562 1.386 . S
C564 C566 1.395 . S
C564 H581 0.930 . S
C565 C561 1.395 . S
C565 C566 1.379 1_545 S
C565 H582 0.930 . S
C566 C564 1.395 . S
C566 C565 1.379 1_565 S
C566 H583 0.930 . S
C567 O550 1.264 . S
C567 O551 1.254 . S
C568 Eu504 2.848 . S
C568 O548 1.257 . S
C568 O553 1.249 . S
C568 C561 1.492 . S
C569 H534 0.931 . S
C569 C547 1.420 . S
C569 C570 1.351 . S
C570 H532 0.930 . S
C570 C538 1.423 . S
C570 C569 1.351 . S
C571 O555 1.276 . S
C571 O558 1.235 . S
C572 C573 1.393 . S
C572 C576 1.395 . S
C572 C579 1.492 . S
C573 C572 1.393 . S
C573 C574 1.392 . S
C573 H584 0.930 . S
C574 C573 1.392 . S
C574 C575 1.386 . S
C575 C574 1.386 . S
C575 C577 1.395 . S
C575 H585 0.930 . S
C576 C572 1.395 . S
C576 C577 1.379 . S
C576 H586 0.930 . S
C577 C575 1.395 . S
C577 C576 1.379 . S
C577 H587 0.930 . S
C578 O556 1.264 . S
C578 O557 1.254 . S
C579 Eu515 2.848 . S
C579 O554 1.257 . S
C579 O559 1.249 . S
C579 C572 1.492 . S
H580 C563 0.930 . S
H581 C564 0.930 . S
H582 C565 0.930 . S
H583 C566 0.930 . S
H584 C573 0.930 . S
H585 C575 0.930 . S
H586 C576 0.930 . S
H587 C577 0.930 . S
Eu588 N619 2.657 . S
Eu588 N626 2.609 . S
Eu588 O632 2.558 . S
Eu588 O633 2.612 . S
Eu588 O635 2.339 . S
Eu588 O636 2.563 . S
Eu588 O637 2.419 . S
Eu588 O639 2.380 . S
Eu588 O640 2.432 . S
Eu588 C652 2.848 . S
C589 C592 1.429 . S
C589 C593 1.411 . S
C589 N596 1.377 . S
C590 C592 1.420 . S
C590 C594 1.423 . S
C590 C602 1.392 . S
C591 C593 1.420 . S
C591 C594 1.351 . S
C591 H614 0.931 . S
C592 C589 1.429 . S
C592 C590 1.420 . S
C592 N600 1.362 . S
C593 C589 1.411 . S
C593 C591 1.420 . S
C593 C598 1.395 . S
C594 C590 1.423 . S
C594 C591 1.351 . S
C594 H606 0.930 . S
C595 C597 1.400 . S
C595 C598 1.386 . S
C595 H607 0.930 . S
N596 C589 1.377 . S
N596 C597 1.321 . S
N596 Eu599 2.609 . S
C597 C595 1.400 . S
C597 N596 1.321 . S
C597 H604 0.930 . S
C598 C593 1.395 . S
C598 C595 1.386 . S
C598 H617 0.930 . S
Eu599 N596 2.609 . S
Eu599 N600 2.657 . S
Eu599 O633 2.380 . S
Eu599 O634 2.432 . S
Eu599 O638 2.558 . S
Eu599 O639 2.612 . S
Eu599 O641 2.339 . S
Eu599 O642 2.563 . S
Eu599 O643 2.419 . S
Eu599 C663 2.848 . S
N600 C592 1.362 . S
N600 Eu599 2.657 . S
N600 C601 1.334 . S
C601 N600 1.334 . S
C601 C603 1.413 . S
C601 H608 0.929 . S
C602 C590 1.392 . S
C602 C603 1.367 . S
C602 H610 0.930 . S
C603 C601 1.413 . S
C603 C602 1.367 . S
C603 H605 0.930 . S
H604 C597 0.930 . S
H605 C603 0.930 . S
H606 C594 0.930 . S
H607 C595 0.930 . S
H608 C601 0.929 . S
H609 C623 0.930 . S
H610 C602 0.930 . S
H611 C629 0.930 . S
H612 C620 0.929 . S
H613 C627 0.930 . S
H614 C591 0.931 . S
H615 C621 0.930 . S
H616 C654 0.930 . S
H617 C598 0.930 . S
H618 C653 0.931 . S
N619 Eu588 2.657 . S
N619 C620 1.334 . S
N619 C624 1.362 . S
C620 H612 0.929 . S
C620 N619 1.334 . S
C620 C623 1.413 . S
C621 H615 0.930 . S
C621 C622 1.392 . S
C621 C623 1.367 . S
C622 C621 1.392 . S
C622 C624 1.420 . S
C622 C654 1.423 . S
C623 H609 0.930 . S
C623 C620 1.413 . S
C623 C621 1.367 . S
C624 N619 1.362 . S
C624 C622 1.420 . S
C624 C628 1.429 . S
H625 C630 0.930 . S
N626 Eu588 2.609 . S
N626 C628 1.377 . S
N626 C629 1.321 . S
C627 H613 0.930 . S
C627 C629 1.400 . S
C627 C630 1.386 . S
C628 C624 1.429 . S
C628 N626 1.377 . S
C628 C631 1.411 . S
C629 H611 0.930 . S
C629 N626 1.321 . S
C629 C627 1.400 . S
C630 H625 0.930 . S
C630 C627 1.386 . S
C630 C631 1.395 . S
C631 C628 1.411 . S
C631 C630 1.395 . S
C631 C653 1.420 . S
O632 Eu588 2.558 . S
O632 C652 1.257 . S
O633 Eu588 2.612 . S
O633 Eu599 2.380 . S
O633 C644 1.276 . S
O634 Eu599 2.432 . S
O634 C651 1.264 . S
O635 Eu588 2.339 . S
O635 C651 1.254 . S
O636 Eu588 2.563 . S
O636 C644 1.235 . S
O637 Eu588 2.419 . S
O637 C652 1.249 . S
O638 Eu599 2.558 . S
O638 C663 1.257 . S
O639 Eu588 2.380 . S
O639 Eu599 2.612 . S
O639 C655 1.276 . S
O640 Eu588 2.432 . S
O640 C662 1.264 . S
O641 Eu599 2.339 . S
O641 C662 1.254 . S
O642 Eu599 2.563 . S
O642 C655 1.235 . S
O643 Eu599 2.419 . S
O643 C663 1.249 . S
C644 O633 1.276 . S
C644 O636 1.235 . S
C645 C647 1.393 . S
C645 C649 1.395 . S
C645 C652 1.492 . S
C646 C647 1.392 . S
C646 C648 1.386 . S
C647 C645 1.393 . S
C647 C646 1.392 . S
C647 H664 0.930 . S
C648 C646 1.386 . S
C648 C650 1.395 . S
C648 H665 0.930 . S
C649 C645 1.395 . S
C649 C650 1.379 . S
C649 H666 0.930 . S
C650 C648 1.395 . S
C650 C649 1.379 . S
C650 H667 0.930 . S
C651 O634 1.264 . S
C651 O635 1.254 . S
C652 Eu588 2.848 . S
C652 O632 1.257 . S
C652 O637 1.249 . S
C652 C645 1.492 . S
C653 H618 0.931 . S
C653 C631 1.420 . S
C653 C654 1.351 . S
C654 H616 0.930 . S
C654 C622 1.423 . S
C654 C653 1.351 . S
C655 O639 1.276 . S
C655 O642 1.235 . S
C656 C657 1.393 . S
C656 C660 1.395 . S
C656 C663 1.492 . S
C657 C656 1.393 . S
C657 C658 1.392 . S
C657 H668 0.930 . S
C658 C657 1.392 . S
C658 C659 1.386 . S
C659 C658 1.386 . S
C659 C661 1.395 . S
C659 H669 0.930 . S
C660 C656 1.395 . S
C660 C661 1.379 . S
C660 H670 0.930 . S
C661 C659 1.395 . S
C661 C660 1.379 . S
C661 H671 0.930 . S
C662 O640 1.264 . S
C662 O641 1.254 . S
C663 Eu599 2.848 . S
C663 O638 1.257 . S
C663 O643 1.249 . S
C663 C656 1.492 . S
H664 C647 0.930 . S
H665 C648 0.930 . S
H666 C649 0.930 . S
H667 C650 0.930 . S
H668 C657 0.930 . S
H669 C659 0.930 . S
H670 C660 0.930 . S
H671 C661 0.930 . S
Eu672 N703 2.657 . S
Eu672 N710 2.609 . S
Eu672 O716 2.558 . S
Eu672 O717 2.612 . S
Eu672 O719 2.339 . S
Eu672 O720 2.563 . S
Eu672 O721 2.419 . S
Eu672 O723 2.380 . S
Eu672 O724 2.432 . S
Eu672 C736 2.848 . S
C673 C676 1.429 . S
C673 C677 1.411 . S
C673 N680 1.377 . S
C674 C676 1.420 . S
C674 C678 1.423 . S
C674 C686 1.392 . S
C675 C677 1.420 . S
C675 C678 1.351 . S
C675 H698 0.931 . S
C676 C673 1.429 . S
C676 C674 1.420 . S
C676 N684 1.362 . S
C677 C673 1.411 . S
C677 C675 1.420 . S
C677 C682 1.395 . S
C678 C674 1.423 . S
C678 C675 1.351 . S
C678 H690 0.930 . S
C679 C681 1.400 . S
C679 C682 1.386 . S
C679 H691 0.930 . S
N680 C673 1.377 . S
N680 C681 1.321 . S
N680 Eu683 2.614 . S
C681 C679 1.400 . S
C681 N680 1.321 . S
C681 H688 0.930 . S
C682 C677 1.395 . S
C682 C679 1.386 . S
C682 H701 0.930 . S
Eu683 N680 2.614 . S
Eu683 N684 2.659 . S
Eu683 O717 2.365 1_565 S
Eu683 O718 2.423 1_565 S
Eu683 O722 2.573 . S
Eu683 O723 2.602 1_565 S
Eu683 O725 2.338 . S
Eu683 O726 2.566 1_565 S
Eu683 O727 2.435 . S
Eu683 C747 2.865 . S
N684 C676 1.362 . S
N684 Eu683 2.659 . S
N684 C685 1.334 . S
C685 N684 1.334 . S
C685 C687 1.413 . S
C685 H692 0.929 . S
C686 C674 1.392 . S
C686 C687 1.367 . S
C686 H694 0.915 1_455 S
C687 C685 1.413 . S
C687 C686 1.367 . S
C687 H689 0.930 1_455 S
H688 C681 0.930 . S
H689 C687 0.930 1_655 S
H690 C678 0.930 . S
H691 C679 0.930 . S
H692 C685 0.929 . S
H693 C707 0.930 . S
H694 C686 0.915 1_655 S
H695 C713 0.930 . S
H696 C704 0.929 . S
H697 C711 0.930 1_655 S
H698 C675 0.931 . S
H699 C705 0.930 . S
H700 C738 0.930 . S
H701 C682 0.930 . S
H702 C737 0.931 . S
N703 Eu672 2.657 . S
N703 C704 1.334 . S
N703 C708 1.362 . S
C704 H696 0.929 . S
C704 N703 1.334 . S
C704 C707 1.413 . S
C705 H699 0.930 . S
C705 C706 1.392 . S
C705 C707 1.367 . S
C706 C705 1.392 . S
C706 C708 1.420 . S
C706 C738 1.423 . S
C707 H693 0.930 . S
C707 C704 1.413 . S
C707 C705 1.367 . S
C708 N703 1.362 . S
C708 C706 1.420 . S
C708 C712 1.429 . S
H709 C714 0.930 . S
N710 Eu672 2.609 . S
N710 C712 1.377 . S
N710 C713 1.321 . S
C711 H697 0.930 1_455 S
C711 C713 1.400 . S
C711 C714 1.386 . S
C712 C708 1.429 . S
C712 N710 1.377 . S
C712 C715 1.411 . S
C713 H695 0.930 . S
C713 N710 1.321 . S
C713 C711 1.400 . S
C714 H709 0.930 . S
C714 C711 1.386 . S
C714 C715 1.395 . S
C715 C712 1.411 . S
C715 C714 1.395 . S
C715 C737 1.420 . S
O716 Eu672 2.558 . S
O716 C736 1.257 . S
O717 Eu672 2.612 . S
O717 Eu683 2.365 1_545 S
O717 C728 1.276 . S
O718 Eu683 2.423 1_545 S
O718 C735 1.264 . S
O719 Eu672 2.339 . S
O719 C735 1.254 . S
O720 Eu672 2.563 . S
O720 C728 1.235 . S
O721 Eu672 2.419 . S
O721 C736 1.249 . S
O722 Eu683 2.573 . S
O722 C747 1.257 . S
O723 Eu672 2.380 . S
O723 Eu683 2.602 1_545 S
O723 C739 1.276 . S
O724 Eu672 2.432 . S
O724 C746 1.264 . S
O725 Eu683 2.338 . S
O725 C746 1.244 1_565 S
O726 Eu683 2.566 1_545 S
O726 C739 1.235 . S
O727 Eu683 2.435 . S
O727 C747 1.249 . S
C728 O717 1.276 . S
C728 O720 1.235 . S
C729 C731 1.393 . S
C729 C733 1.395 . S
C729 C736 1.492 . S
C730 C731 1.392 . S
C730 C732 1.386 . S
C731 C729 1.393 . S
C731 C730 1.392 . S
C731 H748 0.930 . S
C732 C730 1.386 . S
C732 C734 1.395 . S
C732 H749 0.930 . S
C733 C729 1.395 . S
C733 C734 1.379 . S
C733 H750 0.930 . S
C734 C732 1.395 . S
C734 C733 1.379 . S
C734 H751 0.930 . S
C735 O718 1.264 . S
C735 O719 1.254 . S
C736 Eu672 2.848 . S
C736 O716 1.257 . S
C736 O721 1.249 . S
C736 C729 1.492 . S
C737 H702 0.931 . S
C737 C715 1.420 . S
C737 C738 1.351 . S
C738 H700 0.930 . S
C738 C706 1.423 . S
C738 C737 1.351 . S
C739 O723 1.276 . S
C739 O726 1.235 . S
C740 C741 1.393 . S
C740 C744 1.395 . S
C740 C747 1.492 . S
C741 C740 1.393 . S
C741 C742 1.392 . S
C741 H752 0.930 . S
C742 C741 1.392 . S
C742 C743 1.386 . S
C743 C742 1.386 . S
C743 C745 1.395 . S
C743 H753 0.930 . S
C744 C740 1.395 . S
C744 C745 1.379 . S
C744 H754 0.930 . S
C745 C743 1.395 . S
C745 C744 1.379 . S
C745 H755 0.930 . S
C746 O724 1.264 . S
C746 O725 1.244 1_545 S
C747 Eu683 2.865 . S
C747 O722 1.257 . S
C747 O727 1.249 . S
C747 C740 1.492 . S
H748 C731 0.930 . S
H749 C732 0.930 . S
H750 C733 0.930 . S
H751 C734 0.930 . S
H752 C741 0.930 . S
H753 C743 0.930 . S
H754 C744 0.930 . S
H755 C745 0.930 . S
Eu756 N787 2.657 . S
Eu756 N794 2.609 . S
Eu756 O800 2.558 . S
Eu756 O801 2.612 . S
Eu756 O803 2.339 . S
Eu756 O804 2.563 . S
Eu756 O805 2.419 . S
Eu756 O807 2.380 . S
Eu756 O808 2.432 . S
Eu756 C820 2.848 . S
C757 C760 1.429 . S
C757 C761 1.411 . S
C757 N764 1.377 . S
C758 C760 1.420 . S
C758 C762 1.423 . S
C758 C770 1.392 . S
C759 C761 1.420 . S
C759 C762 1.351 . S
C759 H782 0.931 . S
C760 C757 1.429 . S
C760 C758 1.420 . S
C760 N768 1.362 . S
C761 C757 1.411 . S
C761 C759 1.420 . S
C761 C766 1.395 . S
C762 C758 1.423 . S
C762 C759 1.351 . S
C762 H774 0.930 . S
C763 C765 1.400 . S
C763 C766 1.386 . S
C763 H775 0.930 . S
N764 C757 1.377 . S
N764 C765 1.321 . S
N764 Eu767 2.609 . S
C765 C763 1.400 . S
C765 N764 1.321 . S
C765 H772 0.930 . S
C766 C761 1.395 . S
C766 C763 1.386 . S
C766 H785 0.930 . S
Eu767 N764 2.609 . S
Eu767 N768 2.657 . S
Eu767 O801 2.380 . S
Eu767 O802 2.432 . S
Eu767 O806 2.558 . S
Eu767 O807 2.612 . S
Eu767 O809 2.339 . S
Eu767 O810 2.563 . S
Eu767 O811 2.419 . S
Eu767 C831 2.848 . S
N768 C760 1.362 . S
N768 Eu767 2.657 . S
N768 C769 1.334 . S
C769 N768 1.334 . S
C769 C771 1.413 . S
C769 H776 0.929 . S
C770 C758 1.392 . S
C770 C771 1.367 . S
C770 H778 0.930 . S
C771 C769 1.413 . S
C771 C770 1.367 . S
C771 H773 0.930 . S
H772 C765 0.930 . S
H773 C771 0.930 . S
H774 C762 0.930 . S
H775 C763 0.930 . S
H776 C769 0.929 . S
H777 C791 0.930 . S
H778 C770 0.930 . S
H779 C797 0.930 . S
H780 C788 0.929 . S
H781 C795 0.930 . S
H782 C759 0.931 . S
H783 C789 0.930 . S
H784 C822 0.930 . S
H785 C766 0.930 . S
H786 C821 0.931 . S
N787 Eu756 2.657 . S
N787 C788 1.334 . S
N787 C792 1.362 . S
C788 H780 0.929 . S
C788 N787 1.334 . S
C788 C791 1.413 . S
C789 H783 0.930 . S
C789 C790 1.392 . S
C789 C791 1.367 . S
C790 C789 1.392 . S
C790 C792 1.420 . S
C790 C822 1.423 . S
C791 H777 0.930 . S
C791 C788 1.413 . S
C791 C789 1.367 . S
C792 N787 1.362 . S
C792 C790 1.420 . S
C792 C796 1.429 . S
H793 C798 0.930 . S
N794 Eu756 2.609 . S
N794 C796 1.377 . S
N794 C797 1.321 . S
C795 H781 0.930 . S
C795 C797 1.400 . S
C795 C798 1.386 . S
C796 C792 1.429 . S
C796 N794 1.377 . S
C796 C799 1.411 . S
C797 H779 0.930 . S
C797 N794 1.321 . S
C797 C795 1.400 . S
C798 H793 0.930 . S
C798 C795 1.386 . S
C798 C799 1.395 . S
C799 C796 1.411 . S
C799 C798 1.395 . S
C799 C821 1.420 . S
O800 Eu756 2.558 . S
O800 C820 1.257 . S
O801 Eu756 2.612 . S
O801 Eu767 2.380 . S
O801 C812 1.276 . S
O802 Eu767 2.432 . S
O802 C819 1.264 . S
O803 Eu756 2.339 . S
O803 C819 1.254 . S
O804 Eu756 2.563 . S
O804 C812 1.235 . S
O805 Eu756 2.419 . S
O805 C820 1.249 . S
O806 Eu767 2.558 . S
O806 C831 1.257 . S
O807 Eu756 2.380 . S
O807 Eu767 2.612 . S
O807 C823 1.276 . S
O808 Eu756 2.432 . S
O808 C830 1.264 . S
O809 Eu767 2.339 . S
O809 C830 1.254 . S
O810 Eu767 2.563 . S
O810 C823 1.235 . S
O811 Eu767 2.419 . S
O811 C831 1.249 . S
C812 O801 1.276 . S
C812 O804 1.235 . S
C813 C815 1.393 . S
C813 C817 1.395 . S
C813 C820 1.492 . S
C814 C815 1.392 . S
C814 C816 1.386 . S
C815 C813 1.393 . S
C815 C814 1.392 . S
C815 H832 0.930 . S
C816 C814 1.386 . S
C816 C818 1.395 . S
C816 H833 0.930 . S
C817 C813 1.395 . S
C817 C818 1.379 . S
C817 H834 0.930 . S
C818 C816 1.395 . S
C818 C817 1.379 . S
C818 H835 0.930 . S
C819 O802 1.264 . S
C819 O803 1.254 . S
C820 Eu756 2.848 . S
C820 O800 1.257 . S
C820 O805 1.249 . S
C820 C813 1.492 . S
C821 H786 0.931 . S
C821 C799 1.420 . S
C821 C822 1.351 . S
C822 H784 0.930 . S
C822 C790 1.423 . S
C822 C821 1.351 . S
C823 O807 1.276 . S
C823 O810 1.235 . S
C824 C825 1.393 . S
C824 C828 1.395 . S
C824 C831 1.492 . S
C825 C824 1.393 . S
C825 C826 1.392 . S
C825 H836 0.930 . S
C826 C825 1.392 . S
C826 C827 1.386 . S
C827 C826 1.386 . S
C827 C829 1.395 . S
C827 H837 0.930 . S
C828 C824 1.395 . S
C828 C829 1.379 . S
C828 H838 0.930 . S
C829 C827 1.395 . S
C829 C828 1.379 . S
C829 H839 0.930 . S
C830 O808 1.264 . S
C830 O809 1.254 . S
C831 Eu767 2.848 . S
C831 O806 1.257 . S
C831 O811 1.249 . S
C831 C824 1.492 . S
H832 C815 0.930 . S
H833 C816 0.930 . S
H834 C817 0.930 . S
H835 C818 0.930 . S
H836 C825 0.930 . S
H837 C827 0.930 . S
H838 C828 0.930 . S
H839 C829 0.930 . S
Eu840 N871 2.657 . S
Eu840 N878 2.609 . S
Eu840 O884 2.558 1_545 S
Eu840 O885 2.612 . S
Eu840 O887 2.339 . S
Eu840 O888 2.563 . S
Eu840 O889 2.419 . S
Eu840 O891 2.380 . S
Eu840 O892 2.432 1_545 S
Eu840 C904 2.848 . S
C841 C844 1.429 . S
C841 C845 1.411 . S
C841 N848 1.377 . S
C842 C844 1.420 . S
C842 C846 1.423 . S
C842 C854 1.392 1_545 S
C843 C845 1.420 . S
C843 C846 1.351 . S
C843 H866 0.931 . S
C844 C841 1.429 . S
C844 C842 1.420 . S
C844 N852 1.362 . S
C845 C841 1.411 . S
C845 C843 1.420 . S
C845 C850 1.395 . S
C846 C842 1.423 . S
C846 C843 1.351 . S
C846 H858 0.930 . S
C847 C849 1.400 . S
C847 C850 1.386 . S
C847 H859 0.930 . S
N848 C841 1.377 . S
N848 C849 1.321 . S
N848 Eu851 2.609 . S
C849 C847 1.400 . S
C849 N848 1.321 . S
C849 H856 0.930 . S
C850 C845 1.395 . S
C850 C847 1.386 . S
C850 H869 0.930 . S
Eu851 N848 2.609 . S
Eu851 N852 2.657 . S
Eu851 O885 2.380 1_556 S
Eu851 O886 2.432 1_556 S
Eu851 O890 2.558 . S
Eu851 O891 2.612 1_556 S
Eu851 O893 2.339 . S
Eu851 O894 2.563 . S
Eu851 O895 2.419 . S
Eu851 C915 2.848 . S
N852 C844 1.362 . S
N852 Eu851 2.657 . S
N852 C853 1.334 1_545 S
C853 N852 1.334 1_565 S
C853 C855 1.413 . S
C853 H860 0.929 . S
C854 C842 1.392 1_565 S
C854 C855 1.367 . S
C854 H862 0.930 . S
C855 C853 1.413 . S
C855 C854 1.367 . S
C855 H857 0.930 . S
H856 C849 0.930 . S
H857 C855 0.930 . S
H858 C846 0.930 . S
H859 C847 0.930 . S
H860 C853 0.929 . S
H861 C875 0.930 . S
H862 C854 0.930 . S
H863 C881 0.930 . S
H864 C872 0.929 . S
H865 C879 0.930 . S
H866 C843 0.931 . S
H867 C873 0.930 . S
H868 C906 0.930 . S
H869 C850 0.930 . S
H870 C905 0.931 . S
N871 Eu840 2.657 . S
N871 C872 1.334 . S
N871 C876 1.362 . S
C872 H864 0.929 . S
C872 N871 1.334 . S
C872 C875 1.413 . S
C873 H867 0.930 . S
C873 C874 1.392 . S
C873 C875 1.367 . S
C874 C873 1.392 . S
C874 C876 1.420 . S
C874 C906 1.423 . S
C875 H861 0.930 . S
C875 C872 1.413 . S
C875 C873 1.367 . S
C876 N871 1.362 . S
C876 C874 1.420 . S
C876 C880 1.429 . S
H877 C882 0.930 . S
N878 Eu840 2.609 . S
N878 C880 1.377 . S
N878 C881 1.321 1_545 S
C879 H865 0.930 . S
C879 C881 1.400 . S
C879 C882 1.386 . S
C880 C876 1.429 . S
C880 N878 1.377 . S
C880 C883 1.411 . S
C881 H863 0.930 . S
C881 N878 1.321 1_565 S
C881 C879 1.400 . S
C882 H877 0.930 . S
C882 C879 1.386 . S
C882 C883 1.395 1_565 S
C883 C880 1.411 . S
C883 C882 1.395 1_545 S
C883 C905 1.420 . S
O884 Eu840 2.558 1_565 S
O884 C904 1.257 1_565 S
O885 Eu840 2.612 . S
O885 Eu851 2.380 1_554 S
O885 C896 1.276 . S
O886 Eu851 2.432 1_554 S
O886 C903 1.264 . S
O887 Eu840 2.339 . S
O887 C903 1.254 . S
O888 Eu840 2.563 . S
O888 C896 1.235 . S
O889 Eu840 2.419 . S
O889 C904 1.249 . S
O890 Eu851 2.558 . S
O890 C915 1.257 . S
O891 Eu840 2.380 . S
O891 Eu851 2.612 1_554 S
O891 C907 1.276 . S
O892 Eu840 2.432 1_565 S
O892 C914 1.264 1_554 S
O893 Eu851 2.339 . S
O893 C914 1.254 1_545 S
O894 Eu851 2.563 . S
O894 C907 1.235 1_556 S
O895 Eu851 2.419 . S
O895 C915 1.249 . S
C896 O885 1.276 . S
C896 O888 1.235 . S
C897 C899 1.393 . S
C897 C901 1.395 1_545 S
C897 C904 1.492 . S
C898 C899 1.392 . S
C898 C900 1.386 1_545 S
C899 C897 1.393 . S
C899 C898 1.392 . S
C899 H916 0.930 . S
C900 C898 1.386 1_565 S
C900 C902 1.395 . S
C900 H917 0.930 . S
C901 C897 1.395 1_565 S
C901 C902 1.379 . S
C901 H918 0.930 . S
C902 C900 1.395 . S
C902 C901 1.379 . S
C902 H919 0.930 . S
C903 O886 1.264 . S
C903 O887 1.254 . S
C904 Eu840 2.848 . S
C904 O884 1.257 1_545 S
C904 O889 1.249 . S
C904 C897 1.492 . S
C905 H870 0.931 . S
C905 C883 1.420 . S
C905 C906 1.351 . S
C906 H868 0.930 . S
C906 C874 1.423 . S
C906 C905 1.351 . S
C907 O891 1.276 . S
C907 O894 1.235 1_554 S
C908 C909 1.393 . S
C908 C912 1.395 . S
C908 C915 1.492 . S
C909 C908 1.393 . S
C909 C910 1.392 . S
C909 H920 0.930 . S
C910 C909 1.392 . S
C910 C911 1.386 . S
C911 C910 1.386 . S
C911 C913 1.395 . S
C911 H921 0.930 . S
C912 C908 1.395 . S
C912 C913 1.379 . S
C912 H922 0.930 . S
C913 C911 1.395 . S
C913 C912 1.379 . S
C913 H923 0.930 . S
C914 O892 1.264 1_556 S
C914 O893 1.254 1_565 S
C915 Eu851 2.848 . S
C915 O890 1.257 . S
C915 O895 1.249 . S
C915 C908 1.492 . S
H916 C899 0.930 . S
H917 C900 0.930 . S
H918 C901 0.930 . S
H919 C902 0.930 . S
H920 C909 0.930 . S
H921 C911 0.930 . S
H922 C912 0.930 . S
H923 C913 0.930 . S
Eu924 N955 2.657 . S
Eu924 N962 2.609 . S
Eu924 O968 2.558 . S
Eu924 O969 2.612 . S
Eu924 O971 2.339 . S
Eu924 O972 2.563 . S
Eu924 O973 2.419 . S
Eu924 O975 2.380 . S
Eu924 O976 2.432 . S
Eu924 C988 2.848 . S
C925 C928 1.429 . S
C925 C929 1.411 . S
C925 N932 1.377 . S
C926 C928 1.420 . S
C926 C930 1.423 . S
C926 C938 1.392 . S
C927 C929 1.420 . S
C927 C930 1.351 . S
C927 H950 0.931 . S
C928 C925 1.429 . S
C928 C926 1.420 . S
C928 N936 1.362 . S
C929 C925 1.411 . S
C929 C927 1.420 . S
C929 C934 1.395 . S
C930 C926 1.423 . S
C930 C927 1.351 . S
C930 H942 0.930 . S
C931 C933 1.400 . S
C931 C934 1.386 . S
C931 H943 0.930 . S
N932 C925 1.377 . S
N932 C933 1.321 . S
N932 Eu935 2.609 . S
C933 C931 1.400 . S
C933 N932 1.321 . S
C933 H940 0.930 . S
C934 C929 1.395 . S
C934 C931 1.386 . S
C934 H953 0.930 . S
Eu935 N932 2.609 . S
Eu935 N936 2.657 . S
Eu935 O969 2.380 . S
Eu935 O970 2.432 . S
Eu935 O974 2.558 . S
Eu935 O975 2.612 . S
Eu935 O977 2.339 . S
Eu935 O978 2.563 . S
Eu935 O979 2.419 . S
Eu935 C999 2.848 . S
N936 C928 1.362 . S
N936 Eu935 2.657 . S
N936 C937 1.334 . S
C937 N936 1.334 . S
C937 C939 1.413 . S
C937 H944 0.929 . S
C938 C926 1.392 . S
C938 C939 1.367 . S
C938 H946 0.930 . S
C939 C937 1.413 . S
C939 C938 1.367 . S
C939 H941 0.930 . S
H940 C933 0.930 . S
H941 C939 0.930 . S
H942 C930 0.930 . S
H943 C931 0.930 . S
H944 C937 0.929 . S
H945 C959 0.930 . S
H946 C938 0.930 . S
H947 C965 0.930 . S
H948 C956 0.929 . S
H949 C963 0.930 . S
H950 C927 0.931 . S
H951 C957 0.930 . S
H952 C990 0.930 . S
H953 C934 0.930 . S
H954 C989 0.931 . S
N955 Eu924 2.657 . S
N955 C956 1.334 . S
N955 C960 1.362 . S
C956 H948 0.929 . S
C956 N955 1.334 . S
C956 C959 1.413 . S
C957 H951 0.930 . S
C957 C958 1.392 . S
C957 C959 1.367 . S
C958 C957 1.392 . S
C958 C960 1.420 . S
C958 C990 1.423 . S
C959 H945 0.930 . S
C959 C956 1.413 . S
C959 C957 1.367 . S
C960 N955 1.362 . S
C960 C958 1.420 . S
C960 C964 1.429 . S
H961 C966 0.930 . S
N962 Eu924 2.609 . S
N962 C964 1.377 . S
N962 C965 1.321 . S
C963 H949 0.930 . S
C963 C965 1.400 . S
C963 C966 1.386 . S
C964 C960 1.429 . S
C964 N962 1.377 . S
C964 C967 1.411 . S
C965 H947 0.930 . S
C965 N962 1.321 . S
C965 C963 1.400 . S
C966 H961 0.930 . S
C966 C963 1.386 . S
C966 C967 1.395 . S
C967 C964 1.411 . S
C967 C966 1.395 . S
C967 C989 1.420 . S
O968 Eu924 2.558 . S
O968 C988 1.257 . S
O969 Eu924 2.612 . S
O969 Eu935 2.380 . S
O969 C980 1.276 . S
O970 Eu935 2.432 . S
O970 C987 1.264 . S
O971 Eu924 2.339 . S
O971 C987 1.254 . S
O972 Eu924 2.563 . S
O972 C980 1.235 . S
O973 Eu924 2.419 . S
O973 C988 1.249 . S
O974 Eu935 2.558 . S
O974 C999 1.257 . S
O975 Eu924 2.380 . S
O975 Eu935 2.612 . S
O975 C991 1.276 . S
O976 Eu924 2.432 . S
O976 C998 1.264 . S
O977 Eu935 2.339 . S
O977 C998 1.254 . S
O978 Eu935 2.563 . S
O978 C991 1.235 . S
O979 Eu935 2.419 . S
O979 C999 1.249 . S
C980 O969 1.276 . S
C980 O972 1.235 . S
C981 C983 1.393 . S
C981 C985 1.395 . S
C981 C988 1.492 . S
C982 C983 1.392 . S
C982 C984 1.386 . S
C983 C981 1.393 . S
C983 C982 1.392 . S
C983 H1000 0.930 . S
C984 C982 1.386 . S
C984 C986 1.395 . S
C984 H1001 0.930 . S
C985 C981 1.395 . S
C985 C986 1.379 . S
C985 H1002 0.930 . S
C986 C984 1.395 . S
C986 C985 1.379 . S
C986 H1003 0.930 . S
C987 O970 1.264 . S
C987 O971 1.254 . S
C988 Eu924 2.848 . S
C988 O968 1.257 . S
C988 O973 1.249 . S
C988 C981 1.492 . S
C989 H954 0.931 . S
C989 C967 1.420 . S
C989 C990 1.351 . S
C990 H952 0.930 . S
C990 C958 1.423 . S
C990 C989 1.351 . S
C991 O975 1.276 . S
C991 O978 1.235 . S
C992 C993 1.393 . S
C992 C996 1.395 . S
C992 C999 1.492 . S
C993 C992 1.393 . S
C993 C994 1.392 . S
C993 H1004 0.930 . S
C994 C993 1.392 . S
C994 C995 1.386 . S
C995 C994 1.386 . S
C995 C997 1.395 . S
C995 H1005 0.930 . S
C996 C992 1.395 . S
C996 C997 1.379 . S
C996 H1006 0.930 . S
C997 C995 1.395 . S
C997 C996 1.379 . S
C997 H1007 0.930 . S
C998 O976 1.264 . S
C998 O977 1.254 . S
C999 Eu935 2.848 . S
C999 O974 1.257 . S
C999 O979 1.249 . S
C999 C992 1.492 . S
H1000 C983 0.930 . S
H1001 C984 0.930 . S
H1002 C985 0.930 . S
H1003 C986 0.930 . S
H1004 C993 0.930 . S
H1005 C995 0.930 . S
H1006 C996 0.930 . S
H1007 C997 0.930 . S
Eu1008 N1039 2.657 . S
Eu1008 N1046 2.609 . S
Eu1008 O1052 2.558 . S
Eu1008 O1053 2.612 1_554 S
Eu1008 O1055 2.339 . S
Eu1008 O1056 2.563 1_554 S
Eu1008 O1057 2.419 . S
Eu1008 O1059 2.380 . S
Eu1008 O1060 2.432 . S
Eu1008 C1072 2.848 . S
C1009 C1012 1.429 . S
C1009 C1013 1.411 . S
C1009 N1016 1.377 . S
C1010 C1012 1.420 . S
C1010 C1014 1.423 . S
C1010 C1022 1.392 . S
C1011 C1013 1.420 . S
C1011 C1014 1.351 . S
C1011 H1034 0.931 . S
C1012 C1009 1.429 . S
C1012 C1010 1.420 . S
C1012 N1020 1.362 . S
C1013 C1009 1.411 . S
C1013 C1011 1.420 . S
C1013 C1018 1.395 . S
C1014 C1010 1.423 . S
C1014 C1011 1.351 . S
C1014 H1026 0.930 . S
C1015 C1017 1.400 . S
C1015 C1018 1.386 . S
C1015 H1027 0.930 . S
N1016 C1009 1.377 . S
N1016 C1017 1.321 . S
N1016 Eu1019 2.609 1_556 S
C1017 C1015 1.400 . S
C1017 N1016 1.321 . S
C1017 H1024 0.930 . S
C1018 C1013 1.395 . S
C1018 C1015 1.386 . S
C1018 H1037 0.930 . S
Eu1019 N1016 2.609 1_554 S
Eu1019 N1020 2.657 1_554 S
Eu1019 O1053 2.380 1_554 S
Eu1019 O1054 2.432 . S
Eu1019 O1058 2.558 . S
Eu1019 O1059 2.612 . S
Eu1019 O1061 2.339 . S
Eu1019 O1062 2.563 . S
Eu1019 O1063 2.419 . S
Eu1019 C1083 2.848 . S
N1020 C1012 1.362 . S
N1020 Eu1019 2.657 1_556 S
N1020 C1021 1.334 . S
C1021 N1020 1.334 . S
C1021 C1023 1.413 . S
C1021 H1028 0.929 . S
C1022 C1010 1.392 . S
C1022 C1023 1.367 . S
C1022 H1030 0.930 . S
C1023 C1021 1.413 . S
C1023 C1022 1.367 . S
C1023 H1025 0.930 . S
H1024 C1017 0.930 . S
H1025 C1023 0.930 . S
H1026 C1014 0.930 . S
H1027 C1015 0.930 . S
H1028 C1021 0.929 . S
H1029 C1043 0.930 . S
H1030 C1022 0.930 . S
H1031 C1049 0.930 . S
H1032 C1040 0.929 . S
H1033 C1047 0.930 . S
H1034 C1011 0.931 . S
H1035 C1041 0.930 . S
H1036 C1074 0.930 . S
H1037 C1018 0.930 . S
H1038 C1073 0.931 . S
N1039 Eu1008 2.657 . S
N1039 C1040 1.334 . S
N1039 C1044 1.362 . S
C1040 H1032 0.929 . S
C1040 N1039 1.334 . S
C1040 C1043 1.413 . S
C1041 H1035 0.930 . S
C1041 C1042 1.392 . S
C1041 C1043 1.367 . S
C1042 C1041 1.392 . S
C1042 C1044 1.420 . S
C1042 C1074 1.423 . S
C1043 H1029 0.930 . S
C1043 C1040 1.413 . S
C1043 C1041 1.367 . S
C1044 N1039 1.362 . S
C1044 C1042 1.420 . S
C1044 C1048 1.429 . S
H1045 C1050 0.930 . S
N1046 Eu1008 2.609 . S
N1046 C1048 1.377 . S
N1046 C1049 1.321 . S
C1047 H1033 0.930 . S
C1047 C1049 1.400 . S
C1047 C1050 1.386 . S
C1048 C1044 1.429 . S
C1048 N1046 1.377 . S
C1048 C1051 1.411 . S
C1049 H1031 0.930 . S
C1049 N1046 1.321 . S
C1049 C1047 1.400 . S
C1050 H1045 0.930 . S
C1050 C1047 1.386 . S
C1050 C1051 1.395 . S
C1051 C1048 1.411 . S
C1051 C1050 1.395 . S
C1051 C1073 1.420 . S
O1052 Eu1008 2.558 . S
O1052 C1072 1.257 . S
O1053 Eu1008 2.612 1_556 S
O1053 Eu1019 2.380 1_556 S
O1053 C1064 1.276 . S
O1054 Eu1019 2.432 . S
O1054 C1071 1.264 . S
O1055 Eu1008 2.339 . S
O1055 C1071 1.254 . S
O1056 Eu1008 2.563 1_556 S
O1056 C1064 1.235 . S
O1057 Eu1008 2.419 . S
O1057 C1072 1.249 . S
O1058 Eu1019 2.558 . S
O1058 C1083 1.257 . S
O1059 Eu1008 2.380 . S
O1059 Eu1019 2.612 . S
O1059 C1075 1.276 . S
O1060 Eu1008 2.432 . S
O1060 C1082 1.264 . S
O1061 Eu1019 2.339 . S
O1061 C1082 1.254 . S
O1062 Eu1019 2.563 . S
O1062 C1075 1.235 . S
O1063 Eu1019 2.419 . S
O1063 C1083 1.249 . S
C1064 O1053 1.276 . S
C1064 O1056 1.235 . S
C1065 C1067 1.393 . S
C1065 C1069 1.395 . S
C1065 C1072 1.492 . S
C1066 C1067 1.392 1_556 S
C1066 C1068 1.386 1_556 S
C1067 C1065 1.393 . S
C1067 C1066 1.392 1_554 S
C1067 H1084 0.930 1_554 S
C1068 C1066 1.386 1_554 S
C1068 C1070 1.395 . S
C1068 H1085 0.924 1_554 S
C1069 C1065 1.395 . S
C1069 C1070 1.379 . S
C1069 H1086 0.930 . S
C1070 C1068 1.395 . S
C1070 C1069 1.379 . S
C1070 H1087 0.930 . S
C1071 O1054 1.264 . S
C1071 O1055 1.254 . S
C1072 Eu1008 2.848 . S
C1072 O1052 1.257 . S
C1072 O1057 1.249 . S
C1072 C1065 1.492 . S
C1073 H1038 0.931 . S
C1073 C1051 1.420 . S
C1073 C1074 1.351 . S
C1074 H1036 0.930 . S
C1074 C1042 1.423 . S
C1074 C1073 1.351 . S
C1075 O1059 1.276 . S
C1075 O1062 1.235 . S
C1076 C1077 1.393 . S
C1076 C1080 1.395 . S
C1076 C1083 1.492 . S
C1077 C1076 1.393 . S
C1077 C1078 1.392 . S
C1077 H1088 0.930 . S
C1078 C1077 1.392 . S
C1078 C1079 1.386 . S
C1079 C1078 1.386 . S
C1079 C1081 1.395 . S
C1079 H1089 0.930 . S
C1080 C1076 1.395 . S
C1080 C1081 1.379 . S
C1080 H1090 0.930 . S
C1081 C1079 1.395 . S
C1081 C1080 1.379 . S
C1081 H1091 0.930 . S
C1082 O1060 1.264 . S
C1082 O1061 1.254 . S
C1083 Eu1019 2.848 . S
C1083 O1058 1.257 . S
C1083 O1063 1.249 . S
C1083 C1076 1.492 . S
H1084 C1067 0.930 1_556 S
H1085 C1068 0.924 1_556 S
H1086 C1069 0.930 . S
H1087 C1070 0.930 . S
H1088 C1077 0.930 . S
H1089 C1079 0.930 . S
H1090 C1080 0.930 . S
H1091 C1081 0.930 . S
Eu1092 N1123 2.657 . S
Eu1092 N1130 2.609 . S
Eu1092 O1136 2.558 . S
Eu1092 O1137 2.612 . S
Eu1092 O1139 2.339 . S
Eu1092 O1140 2.563 . S
Eu1092 O1141 2.419 . S
Eu1092 O1143 2.380 . S
Eu1092 O1144 2.432 . S
Eu1092 C1156 2.848 . S
C1093 C1096 1.429 . S
C1093 C1097 1.411 . S
C1093 N1100 1.377 . S
C1094 C1096 1.420 . S
C1094 C1098 1.423 . S
C1094 C1106 1.392 . S
C1095 C1097 1.420 . S
C1095 C1098 1.351 . S
C1095 H1118 0.931 . S
C1096 C1093 1.429 . S
C1096 C1094 1.420 . S
C1096 N1104 1.362 . S
C1097 C1093 1.411 . S
C1097 C1095 1.420 . S
C1097 C1102 1.395 . S
C1098 C1094 1.423 . S
C1098 C1095 1.351 . S
C1098 H1110 0.930 . S
C1099 C1101 1.400 . S
C1099 C1102 1.386 . S
C1099 H1111 0.930 . S
N1100 C1093 1.377 . S
N1100 C1101 1.321 . S
N1100 Eu1103 2.609 . S
C1101 C1099 1.400 . S
C1101 N1100 1.321 . S
C1101 H1108 0.930 . S
C1102 C1097 1.395 . S
C1102 C1099 1.386 . S
C1102 H1121 0.930 . S
Eu1103 N1100 2.609 . S
Eu1103 N1104 2.657 . S
Eu1103 O1137 2.380 . S
Eu1103 O1138 2.432 . S
Eu1103 O1142 2.558 . S
Eu1103 O1143 2.612 . S
Eu1103 O1145 2.339 . S
Eu1103 O1146 2.563 . S
Eu1103 O1147 2.419 . S
Eu1103 C1167 2.848 . S
N1104 C1096 1.362 . S
N1104 Eu1103 2.657 . S
N1104 C1105 1.334 . S
C1105 N1104 1.334 . S
C1105 C1107 1.413 . S
C1105 H1112 0.929 . S
C1106 C1094 1.392 . S
C1106 C1107 1.367 . S
C1106 H1114 0.930 . S
C1107 C1105 1.413 . S
C1107 C1106 1.367 . S
C1107 H1109 0.930 . S
H1108 C1101 0.930 . S
H1109 C1107 0.930 . S
H1110 C1098 0.930 . S
H1111 C1099 0.930 . S
H1112 C1105 0.929 . S
H1113 C1127 0.930 . S
H1114 C1106 0.930 . S
H1115 C1133 0.930 . S
H1116 C1124 0.929 . S
H1117 C1131 0.930 . S
H1118 C1095 0.931 . S
H1119 C1125 0.930 . S
H1120 C1158 0.930 . S
H1121 C1102 0.930 . S
H1122 C1157 0.931 . S
N1123 Eu1092 2.657 . S
N1123 C1124 1.334 . S
N1123 C1128 1.362 . S
C1124 H1116 0.929 . S
C1124 N1123 1.334 . S
C1124 C1127 1.413 . S
C1125 H1119 0.930 . S
C1125 C1126 1.392 . S
C1125 C1127 1.367 . S
C1126 C1125 1.392 . S
C1126 C1128 1.420 . S
C1126 C1158 1.423 . S
C1127 H1113 0.930 . S
C1127 C1124 1.413 . S
C1127 C1125 1.367 . S
C1128 N1123 1.362 . S
C1128 C1126 1.420 . S
C1128 C1132 1.429 . S
H1129 C1134 0.930 . S
N1130 Eu1092 2.609 . S
N1130 C1132 1.377 . S
N1130 C1133 1.321 . S
C1131 H1117 0.930 . S
C1131 C1133 1.400 . S
C1131 C1134 1.386 . S
C1132 C1128 1.429 . S
C1132 N1130 1.377 . S
C1132 C1135 1.411 . S
C1133 H1115 0.930 . S
C1133 N1130 1.321 . S
C1133 C1131 1.400 . S
C1134 H1129 0.930 . S
C1134 C1131 1.386 . S
C1134 C1135 1.395 . S
C1135 C1132 1.411 . S
C1135 C1134 1.395 . S
C1135 C1157 1.420 . S
O1136 Eu1092 2.558 . S
O1136 C1156 1.257 . S
O1137 Eu1092 2.612 . S
O1137 Eu1103 2.380 . S
O1137 C1148 1.276 . S
O1138 Eu1103 2.432 . S
O1138 C1155 1.264 . S
O1139 Eu1092 2.339 . S
O1139 C1155 1.254 . S
O1140 Eu1092 2.563 . S
O1140 C1148 1.235 . S
O1141 Eu1092 2.419 . S
O1141 C1156 1.249 . S
O1142 Eu1103 2.558 . S
O1142 C1167 1.257 . S
O1143 Eu1092 2.380 . S
O1143 Eu1103 2.612 . S
O1143 C1159 1.276 . S
O1144 Eu1092 2.432 . S
O1144 C1166 1.264 . S
O1145 Eu1103 2.339 . S
O1145 C1166 1.254 . S
O1146 Eu1103 2.563 . S
O1146 C1159 1.235 . S
O1147 Eu1103 2.419 . S
O1147 C1167 1.249 . S
C1148 O1137 1.276 . S
C1148 O1140 1.235 . S
C1149 C1151 1.393 . S
C1149 C1153 1.395 . S
C1149 C1156 1.492 . S
C1150 C1151 1.392 . S
C1150 C1152 1.386 . S
C1151 C1149 1.393 . S
C1151 C1150 1.392 . S
C1151 H1168 0.930 . S
C1152 C1150 1.386 . S
C1152 C1154 1.395 . S
C1152 H1169 0.930 . S
C1153 C1149 1.395 . S
C1153 C1154 1.379 . S
C1153 H1170 0.930 . S
C1154 C1152 1.395 . S
C1154 C1153 1.379 . S
C1154 H1171 0.930 . S
C1155 O1138 1.264 . S
C1155 O1139 1.254 . S
C1156 Eu1092 2.848 . S
C1156 O1136 1.257 . S
C1156 O1141 1.249 . S
C1156 C1149 1.492 . S
C1157 H1122 0.931 . S
C1157 C1135 1.420 . S
C1157 C1158 1.351 . S
C1158 H1120 0.930 . S
C1158 C1126 1.423 . S
C1158 C1157 1.351 . S
C1159 O1143 1.276 . S
C1159 O1146 1.235 . S
C1160 C1161 1.393 . S
C1160 C1164 1.395 . S
C1160 C1167 1.492 . S
C1161 C1160 1.393 . S
C1161 C1162 1.392 . S
C1161 H1172 0.930 . S
C1162 C1161 1.392 . S
C1162 C1163 1.386 . S
C1163 C1162 1.386 . S
C1163 C1165 1.395 . S
C1163 H1173 0.930 . S
C1164 C1160 1.395 . S
C1164 C1165 1.379 . S
C1164 H1174 0.930 . S
C1165 C1163 1.395 . S
C1165 C1164 1.379 . S
C1165 H1175 0.930 . S
C1166 O1144 1.264 . S
C1166 O1145 1.254 . S
C1167 Eu1103 2.848 . S
C1167 O1142 1.257 . S
C1167 O1147 1.249 . S
C1167 C1160 1.492 . S
H1168 C1151 0.930 . S
H1169 C1152 0.930 . S
H1170 C1153 0.930 . S
H1171 C1154 0.930 . S
H1172 C1161 0.930 . S
H1173 C1163 0.930 . S
H1174 C1164 0.930 . S
H1175 C1165 0.930 . S
Eu1176 N1207 2.657 . S
Eu1176 N1214 2.609 . S
Eu1176 O1220 2.558 . S
Eu1176 O1221 2.612 . S
Eu1176 O1223 2.339 . S
Eu1176 O1224 2.563 . S
Eu1176 O1225 2.419 . S
Eu1176 O1227 2.380 . S
Eu1176 O1228 2.432 . S
Eu1176 C1240 2.848 . S
C1177 C1180 1.425 . S
C1177 C1181 1.411 1_455 S
C1177 N1184 1.377 . S
C1178 C1180 1.404 1_655 S
C1178 C1182 1.423 . S
C1178 C1190 1.392 . S
C1179 C1181 1.420 . S
C1179 C1182 1.351 . S
C1179 H1202 0.931 . S
C1180 C1177 1.425 . S
C1180 C1178 1.404 1_455 S
C1180 N1188 1.381 . S
C1181 C1177 1.411 1_655 S
C1181 C1179 1.420 . S
C1181 C1186 1.395 . S
C1182 C1178 1.423 . S
C1182 C1179 1.351 . S
C1182 H1194 0.930 . S
C1183 C1185 1.400 . S
C1183 C1186 1.386 1_455 S
C1183 H1195 0.930 . S
N1184 C1177 1.377 . S
N1184 C1185 1.321 . S
N1184 Eu1187 2.609 . S
C1185 C1183 1.400 . S
C1185 N1184 1.321 . S
C1185 H1192 0.930 . S
C1186 C1181 1.395 . S
C1186 C1183 1.386 1_655 S
C1186 H1205 0.930 . S
Eu1187 N1184 2.609 . S
Eu1187 N1188 2.657 . S
Eu1187 O1221 2.380 . S
Eu1187 O1222 2.432 . S
Eu1187 O1226 2.558 . S
Eu1187 O1227 2.612 . S
Eu1187 O1229 2.339 . S
Eu1187 O1230 2.563 . S
Eu1187 O1231 2.419 . S
Eu1187 C1251 2.848 . S
N1188 C1180 1.381 . S
N1188 Eu1187 2.657 . S
N1188 C1189 1.334 . S
C1189 N1188 1.334 . S
C1189 C1191 1.413 1_455 S
C1189 H1196 0.929 . S
C1190 C1178 1.392 . S
C1190 C1191 1.367 . S
C1190 H1198 0.930 . S
C1191 C1189 1.413 1_655 S
C1191 C1190 1.367 . S
C1191 H1193 0.930 . S
H1192 C1185 0.930 . S
H1193 C1191 0.930 . S
H1194 C1182 0.930 . S
H1195 C1183 0.930 . S
H1196 C1189 0.929 . S
H1197 C1211 0.930 . S
H1198 C1190 0.930 . S
H1199 C1217 0.930 . S
H1200 C1208 0.929 . S
H1201 C1215 0.930 . S
H1202 C1179 0.931 . S
H1203 C1209 0.930 . S
H1204 C1242 0.930 . S
H1205 C1186 0.930 . S
H1206 C1241 0.931 . S
N1207 Eu1176 2.657 . S
N1207 C1208 1.334 . S
N1207 C1212 1.362 . S
C1208 H1200 0.929 . S
C1208 N1207 1.334 . S
C1208 C1211 1.413 . S
C1209 H1203 0.930 . S
C1209 C1210 1.392 . S
C1209 C1211 1.367 . S
C1210 C1209 1.392 . S
C1210 C1212 1.420 . S
C1210 C1242 1.423 . S
C1211 H1197 0.930 . S
C1211 C1208 1.413 . S
C1211 C1209 1.367 . S
C1212 N1207 1.362 . S
C1212 C1210 1.420 . S
C1212 C1216 1.429 . S
H1213 C1218 0.930 . S
N1214 Eu1176 2.609 . S
N1214 C1216 1.377 . S
N1214 C1217 1.321 . S
C1215 H1201 0.930 . S
C1215 C1217 1.400 . S
C1215 C1218 1.386 . S
C1216 C1212 1.429 . S
C1216 N1214 1.377 . S
C1216 C1219 1.411 . S
C1217 H1199 0.930 . S
C1217 N1214 1.321 . S
C1217 C1215 1.400 . S
C1218 H1213 0.930 . S
C1218 C1215 1.386 . S
C1218 C1219 1.395 . S
C1219 C1216 1.411 . S
C1219 C1218 1.395 . S
C1219 C1241 1.420 . S
O1220 Eu1176 2.558 . S
O1220 C1240 1.257 . S
O1221 Eu1176 2.612 . S
O1221 Eu1187 2.380 . S
O1221 C1232 1.276 . S
O1222 Eu1187 2.432 . S
O1222 C1239 1.264 . S
O1223 Eu1176 2.339 . S
O1223 C1239 1.254 . S
O1224 Eu1176 2.563 . S
O1224 C1232 1.235 . S
O1225 Eu1176 2.419 . S
O1225 C1240 1.249 . S
O1226 Eu1187 2.558 . S
O1226 C1251 1.257 . S
O1227 Eu1176 2.380 . S
O1227 Eu1187 2.612 . S
O1227 C1243 1.276 . S
O1228 Eu1176 2.432 . S
O1228 C1250 1.264 . S
O1229 Eu1187 2.339 . S
O1229 C1250 1.254 . S
O1230 Eu1187 2.563 . S
O1230 C1243 1.235 . S
O1231 Eu1187 2.419 . S
O1231 C1251 1.249 . S
C1232 O1221 1.276 . S
C1232 O1224 1.235 . S
C1233 C1235 1.393 . S
C1233 C1237 1.395 . S
C1233 C1240 1.492 . S
C1234 C1235 1.392 . S
C1234 C1236 1.386 . S
C1235 C1233 1.393 . S
C1235 C1234 1.392 . S
C1235 H1252 0.930 . S
C1236 C1234 1.386 . S
C1236 C1238 1.395 . S
C1236 H1253 0.930 . S
C1237 C1233 1.395 . S
C1237 C1238 1.379 . S
C1237 H1254 0.930 . S
C1238 C1236 1.395 . S
C1238 C1237 1.379 . S
C1238 H1255 0.930 . S
C1239 O1222 1.264 . S
C1239 O1223 1.254 . S
C1240 Eu1176 2.848 . S
C1240 O1220 1.257 . S
C1240 O1225 1.249 . S
C1240 C1233 1.492 . S
C1241 H1206 0.931 . S
C1241 C1219 1.420 . S
C1241 C1242 1.351 . S
C1242 H1204 0.930 . S
C1242 C1210 1.423 . S
C1242 C1241 1.351 . S
C1243 O1227 1.276 . S
C1243 O1230 1.235 . S
C1244 C1245 1.393 . S
C1244 C1248 1.395 . S
C1244 C1251 1.492 . S
C1245 C1244 1.393 . S
C1245 C1246 1.392 . S
C1245 H1256 0.930 . S
C1246 C1245 1.392 . S
C1246 C1247 1.386 . S
C1247 C1246 1.386 . S
C1247 C1249 1.395 . S
C1247 H1257 0.930 . S
C1248 C1244 1.395 . S
C1248 C1249 1.379 . S
C1248 H1258 0.930 . S
C1249 C1247 1.395 . S
C1249 C1248 1.379 . S
C1249 H1259 0.930 . S
C1250 O1228 1.264 . S
C1250 O1229 1.254 . S
C1251 Eu1187 2.848 . S
C1251 O1226 1.257 . S
C1251 O1231 1.249 . S
C1251 C1244 1.492 . S
H1252 C1235 0.930 . S
H1253 C1236 0.930 . S
H1254 C1237 0.930 . S
H1255 C1238 0.930 . S
H1256 C1245 0.930 . S
H1257 C1247 0.930 . S
H1258 C1248 0.930 . S
H1259 C1249 0.930 . S
Eu1260 N1291 2.657 . S
Eu1260 N1298 2.609 . S
Eu1260 O1304 2.558 . S
Eu1260 O1305 2.612 . S
Eu1260 O1307 2.339 . S
Eu1260 O1308 2.563 . S
Eu1260 O1309 2.419 . S
Eu1260 O1311 2.380 . S
Eu1260 O1312 2.432 . S
Eu1260 C1324 2.848 . S
C1261 C1264 1.429 . S
C1261 C1265 1.411 . S
C1261 N1268 1.377 . S
C1262 C1264 1.420 . S
C1262 C1266 1.423 . S
C1262 C1274 1.392 . S
C1263 C1265 1.420 . S
C1263 C1266 1.351 . S
C1263 H1286 0.931 . S
C1264 C1261 1.429 . S
C1264 C1262 1.420 . S
C1264 N1272 1.362 . S
C1265 C1261 1.411 . S
C1265 C1263 1.420 . S
C1265 C1270 1.395 . S
C1266 C1262 1.423 . S
C1266 C1263 1.351 . S
C1266 H1278 0.930 . S
C1267 C1269 1.400 . S
C1267 C1270 1.386 . S
C1267 H1279 0.930 . S
N1268 C1261 1.377 . S
N1268 C1269 1.321 . S
N1268 Eu1271 2.609 . S
C1269 C1267 1.400 . S
C1269 N1268 1.321 . S
C1269 H1276 0.930 . S
C1270 C1265 1.395 . S
C1270 C1267 1.386 . S
C1270 H1289 0.930 . S
Eu1271 N1268 2.609 . S
Eu1271 N1272 2.657 . S
Eu1271 O1305 2.380 . S
Eu1271 O1306 2.432 . S
Eu1271 O1310 2.558 . S
Eu1271 O1311 2.612 . S
Eu1271 O1313 2.339 . S
Eu1271 O1314 2.563 . S
Eu1271 O1315 2.419 . S
Eu1271 C1335 2.848 . S
N1272 C1264 1.362 . S
N1272 Eu1271 2.657 . S
N1272 C1273 1.334 . S
C1273 N1272 1.334 . S
C1273 C1275 1.413 . S
C1273 H1280 0.929 . S
C1274 C1262 1.392 . S
C1274 C1275 1.367 . S
C1274 H1282 0.930 . S
C1275 C1273 1.413 . S
C1275 C1274 1.367 . S
C1275 H1277 0.930 . S
H1276 C1269 0.930 . S
H1277 C1275 0.930 . S
H1278 C1266 0.930 . S
H1279 C1267 0.930 . S
H1280 C1273 0.929 . S
H1281 C1295 0.930 . S
H1282 C1274 0.930 . S
H1283 C1301 0.930 . S
H1284 C1292 0.929 . S
H1285 C1299 0.930 . S
H1286 C1263 0.931 . S
H1287 C1293 0.930 . S
H1288 C1326 0.930 . S
H1289 C1270 0.930 . S
H1290 C1325 0.931 . S
N1291 Eu1260 2.657 . S
N1291 C1292 1.334 . S
N1291 C1296 1.362 . S
C1292 H1284 0.929 . S
C1292 N1291 1.334 . S
C1292 C1295 1.413 . S
C1293 H1287 0.930 . S
C1293 C1294 1.392 . S
C1293 C1295 1.367 . S
C1294 C1293 1.392 . S
C1294 C1296 1.420 . S
C1294 C1326 1.423 . S
C1295 H1281 0.930 . S
C1295 C1292 1.413 . S
C1295 C1293 1.367 . S
C1296 N1291 1.362 . S
C1296 C1294 1.420 . S
C1296 C1300 1.429 . S
H1297 C1302 0.930 . S
N1298 Eu1260 2.609 . S
N1298 C1300 1.377 . S
N1298 C1301 1.321 . S
C1299 H1285 0.930 . S
C1299 C1301 1.400 . S
C1299 C1302 1.386 . S
C1300 C1296 1.429 . S
C1300 N1298 1.377 . S
C1300 C1303 1.411 . S
C1301 H1283 0.930 . S
C1301 N1298 1.321 . S
C1301 C1299 1.400 . S
C1302 H1297 0.930 . S
C1302 C1299 1.386 . S
C1302 C1303 1.395 . S
C1303 C1300 1.411 . S
C1303 C1302 1.395 . S
C1303 C1325 1.420 . S
O1304 Eu1260 2.558 . S
O1304 C1324 1.257 . S
O1305 Eu1260 2.612 . S
O1305 Eu1271 2.380 . S
O1305 C1316 1.276 . S
O1306 Eu1271 2.432 . S
O1306 C1323 1.264 . S
O1307 Eu1260 2.339 . S
O1307 C1323 1.254 . S
O1308 Eu1260 2.563 . S
O1308 C1316 1.235 . S
O1309 Eu1260 2.419 . S
O1309 C1324 1.249 . S
O1310 Eu1271 2.558 . S
O1310 C1335 1.257 . S
O1311 Eu1260 2.380 . S
O1311 Eu1271 2.612 . S
O1311 C1327 1.276 . S
O1312 Eu1260 2.432 . S
O1312 C1334 1.264 . S
O1313 Eu1271 2.339 . S
O1313 C1334 1.254 . S
O1314 Eu1271 2.563 . S
O1314 C1327 1.235 . S
O1315 Eu1271 2.419 . S
O1315 C1335 1.249 . S
C1316 O1305 1.276 . S
C1316 O1308 1.235 . S
C1317 C1319 1.393 . S
C1317 C1321 1.395 . S
C1317 C1324 1.492 . S
C1318 C1319 1.392 . S
C1318 C1320 1.386 . S
C1319 C1317 1.393 . S
C1319 C1318 1.392 . S
C1319 H1336 0.930 . S
C1320 C1318 1.386 . S
C1320 C1322 1.395 . S
C1320 H1337 0.930 . S
C1321 C1317 1.395 . S
C1321 C1322 1.379 . S
C1321 H1338 0.930 . S
C1322 C1320 1.395 . S
C1322 C1321 1.379 . S
C1322 H1339 0.930 . S
C1323 O1306 1.264 . S
C1323 O1307 1.254 . S
C1324 Eu1260 2.848 . S
C1324 O1304 1.257 . S
C1324 O1309 1.249 . S
C1324 C1317 1.492 . S
C1325 H1290 0.931 . S
C1325 C1303 1.420 . S
C1325 C1326 1.351 . S
C1326 H1288 0.930 . S
C1326 C1294 1.423 . S
C1326 C1325 1.351 . S
C1327 O1311 1.276 . S
C1327 O1314 1.235 . S
C1328 C1329 1.393 . S
C1328 C1332 1.395 . S
C1328 C1335 1.492 . S
C1329 C1328 1.393 . S
C1329 C1330 1.392 . S
C1329 H1340 0.930 . S
C1330 C1329 1.392 . S
C1330 C1331 1.386 . S
C1331 C1330 1.386 . S
C1331 C1333 1.395 . S
C1331 H1341 0.930 . S
C1332 C1328 1.395 . S
C1332 C1333 1.379 . S
C1332 H1342 0.930 . S
C1333 C1331 1.395 . S
C1333 C1332 1.379 . S
C1333 H1343 0.930 . S
C1334 O1312 1.264 . S
C1334 O1313 1.254 . S
C1335 Eu1271 2.848 . S
C1335 O1310 1.257 . S
C1335 O1315 1.249 . S
C1335 C1328 1.492 . S
H1336 C1319 0.930 . S
H1337 C1320 0.930 . S
H1338 C1321 0.930 . S
H1339 C1322 0.930 . S
H1340 C1329 0.930 . S
H1341 C1331 0.930 . S
H1342 C1332 0.930 . S
H1343 C1333 0.930 . S
Eu1344 N1375 2.657 . S
Eu1344 N1382 2.609 . S
Eu1344 O1388 2.558 . S
Eu1344 O1389 2.612 . S
Eu1344 O1391 2.339 . S
Eu1344 O1392 2.563 . S
Eu1344 O1393 2.419 . S
Eu1344 O1395 2.380 . S
Eu1344 O1396 2.432 . S
Eu1344 C1408 2.848 . S
C1345 C1348 1.429 . S
C1345 C1349 1.411 . S
C1345 N1352 1.377 . S
C1346 C1348 1.420 . S
C1346 C1350 1.423 . S
C1346 C1358 1.392 . S
C1347 C1349 1.420 . S
C1347 C1350 1.351 . S
C1347 H1370 0.931 . S
C1348 C1345 1.429 . S
C1348 C1346 1.420 . S
C1348 N1356 1.362 . S
C1349 C1345 1.411 . S
C1349 C1347 1.420 . S
C1349 C1354 1.395 . S
C1350 C1346 1.423 . S
C1350 C1347 1.351 . S
C1350 H1362 0.930 . S
C1351 C1353 1.400 . S
C1351 C1354 1.386 . S
C1351 H1363 0.930 . S
N1352 C1345 1.377 . S
N1352 C1353 1.321 . S
N1352 Eu1355 2.609 . S
C1353 C1351 1.400 . S
C1353 N1352 1.321 . S
C1353 H1360 0.930 . S
C1354 C1349 1.395 . S
C1354 C1351 1.386 . S
C1354 H1373 0.930 . S
Eu1355 N1352 2.609 . S
Eu1355 N1356 2.657 . S
Eu1355 O1389 2.380 . S
Eu1355 O1390 2.432 . S
Eu1355 O1394 2.558 . S
Eu1355 O1395 2.612 . S
Eu1355 O1397 2.339 . S
Eu1355 O1398 2.563 . S
Eu1355 O1399 2.419 . S
Eu1355 C1419 2.848 . S
N1356 C1348 1.362 . S
N1356 Eu1355 2.657 . S
N1356 C1357 1.334 . S
C1357 N1356 1.334 . S
C1357 C1359 1.413 . S
C1357 H1364 0.929 . S
C1358 C1346 1.392 . S
C1358 C1359 1.367 . S
C1358 H1366 0.930 . S
C1359 C1357 1.413 . S
C1359 C1358 1.367 . S
C1359 H1361 0.930 . S
H1360 C1353 0.930 . S
H1361 C1359 0.930 . S
H1362 C1350 0.930 . S
H1363 C1351 0.930 . S
H1364 C1357 0.929 . S
H1365 C1379 0.930 . S
H1366 C1358 0.930 . S
H1367 C1385 0.930 . S
H1368 C1376 0.929 . S
H1369 C1383 0.930 . S
H1370 C1347 0.931 . S
H1371 C1377 0.930 . S
H1372 C1410 0.930 . S
H1373 C1354 0.930 . S
H1374 C1409 0.931 . S
N1375 Eu1344 2.657 . S
N1375 C1376 1.334 . S
N1375 C1380 1.362 . S
C1376 H1368 0.929 . S
C1376 N1375 1.334 . S
C1376 C1379 1.413 . S
C1377 H1371 0.930 . S
C1377 C1378 1.392 . S
C1377 C1379 1.367 . S
C1378 C1377 1.392 . S
C1378 C1380 1.420 . S
C1378 C1410 1.423 . S
C1379 H1365 0.930 . S
C1379 C1376 1.413 . S
C1379 C1377 1.367 . S
C1380 N1375 1.362 . S
C1380 C1378 1.420 . S
C1380 C1384 1.429 . S
H1381 C1386 0.930 . S
N1382 Eu1344 2.609 . S
N1382 C1384 1.377 . S
N1382 C1385 1.321 . S
C1383 H1369 0.930 . S
C1383 C1385 1.400 . S
C1383 C1386 1.386 . S
C1384 C1380 1.429 . S
C1384 N1382 1.377 . S
C1384 C1387 1.411 . S
C1385 H1367 0.930 . S
C1385 N1382 1.321 . S
C1385 C1383 1.400 . S
C1386 H1381 0.930 . S
C1386 C1383 1.386 . S
C1386 C1387 1.395 . S
C1387 C1384 1.411 . S
C1387 C1386 1.395 . S
C1387 C1409 1.420 . S
O1388 Eu1344 2.558 . S
O1388 C1408 1.257 . S
O1389 Eu1344 2.612 . S
O1389 Eu1355 2.380 . S
O1389 C1400 1.276 . S
O1390 Eu1355 2.432 . S
O1390 C1407 1.264 . S
O1391 Eu1344 2.339 . S
O1391 C1407 1.254 . S
O1392 Eu1344 2.563 . S
O1392 C1400 1.235 . S
O1393 Eu1344 2.419 . S
O1393 C1408 1.249 . S
O1394 Eu1355 2.558 . S
O1394 C1419 1.257 . S
O1395 Eu1344 2.380 . S
O1395 Eu1355 2.612 . S
O1395 C1411 1.276 . S
O1396 Eu1344 2.432 . S
O1396 C1418 1.264 . S
O1397 Eu1355 2.339 . S
O1397 C1418 1.254 . S
O1398 Eu1355 2.563 . S
O1398 C1411 1.235 . S
O1399 Eu1355 2.419 . S
O1399 C1419 1.249 . S
C1400 O1389 1.276 . S
C1400 O1392 1.235 . S
C1401 C1403 1.393 . S
C1401 C1405 1.395 . S
C1401 C1408 1.492 . S
C1402 C1403 1.392 . S
C1402 C1404 1.386 . S
C1403 C1401 1.393 . S
C1403 C1402 1.392 . S
C1403 H1420 0.930 . S
C1404 C1402 1.386 . S
C1404 C1406 1.395 . S
C1404 H1421 0.930 . S
C1405 C1401 1.395 . S
C1405 C1406 1.379 . S
C1405 H1422 0.930 . S
C1406 C1404 1.395 . S
C1406 C1405 1.379 . S
C1406 H1423 0.930 . S
C1407 O1390 1.264 . S
C1407 O1391 1.254 . S
C1408 Eu1344 2.848 . S
C1408 O1388 1.257 . S
C1408 O1393 1.249 . S
C1408 C1401 1.492 . S
C1409 H1374 0.931 . S
C1409 C1387 1.420 . S
C1409 C1410 1.351 . S
C1410 H1372 0.930 . S
C1410 C1378 1.423 . S
C1410 C1409 1.351 . S
C1411 O1395 1.276 . S
C1411 O1398 1.235 . S
C1412 C1413 1.393 . S
C1412 C1416 1.395 . S
C1412 C1419 1.492 . S
C1413 C1412 1.393 . S
C1413 C1414 1.392 . S
C1413 H1424 0.930 . S
C1414 C1413 1.392 . S
C1414 C1415 1.386 . S
C1415 C1414 1.386 . S
C1415 C1417 1.395 . S
C1415 H1425 0.930 . S
C1416 C1412 1.395 . S
C1416 C1417 1.379 . S
C1416 H1426 0.930 . S
C1417 C1415 1.395 . S
C1417 C1416 1.379 . S
C1417 H1427 0.930 . S
C1418 O1396 1.264 . S
C1418 O1397 1.254 . S
C1419 Eu1355 2.848 . S
C1419 O1394 1.257 . S
C1419 O1399 1.249 . S
C1419 C1412 1.492 . S
H1420 C1403 0.930 . S
H1421 C1404 0.930 . S
H1422 C1405 0.930 . S
H1423 C1406 0.930 . S
H1424 C1413 0.930 . S
H1425 C1415 0.930 . S
H1426 C1416 0.930 . S
H1427 C1417 0.930 . S
Eu1428 N1459 2.657 . S
Eu1428 N1466 2.609 . S
Eu1428 O1472 2.558 . S
Eu1428 O1473 2.612 . S
Eu1428 O1475 2.339 . S
Eu1428 O1476 2.563 . S
Eu1428 O1477 2.419 . S
Eu1428 O1479 2.380 . S
Eu1428 O1480 2.432 . S
Eu1428 C1492 2.848 . S
C1429 C1432 1.429 . S
C1429 C1433 1.411 . S
C1429 N1436 1.377 . S
C1430 C1432 1.420 . S
C1430 C1434 1.423 . S
C1430 C1442 1.392 . S
C1431 C1433 1.420 . S
C1431 C1434 1.351 . S
C1431 H1454 0.931 . S
C1432 C1429 1.429 . S
C1432 C1430 1.420 . S
C1432 N1440 1.362 . S
C1433 C1429 1.411 . S
C1433 C1431 1.420 . S
C1433 C1438 1.395 . S
C1434 C1430 1.423 . S
C1434 C1431 1.351 . S
C1434 H1446 0.930 . S
C1435 C1437 1.400 . S
C1435 C1438 1.386 . S
C1435 H1447 0.930 . S
N1436 C1429 1.377 . S
N1436 C1437 1.321 . S
N1436 Eu1439 2.609 . S
C1437 C1435 1.400 . S
C1437 N1436 1.321 . S
C1437 H1444 0.930 . S
C1438 C1433 1.395 . S
C1438 C1435 1.386 . S
C1438 H1457 0.930 . S
Eu1439 N1436 2.609 . S
Eu1439 N1440 2.657 . S
Eu1439 O1473 2.380 . S
Eu1439 O1474 2.432 . S
Eu1439 O1478 2.558 . S
Eu1439 O1479 2.612 . S
Eu1439 O1481 2.339 . S
Eu1439 O1482 2.563 . S
Eu1439 O1483 2.419 . S
Eu1439 C1503 2.848 . S
N1440 C1432 1.362 . S
N1440 Eu1439 2.657 . S
N1440 C1441 1.334 . S
C1441 N1440 1.334 . S
C1441 C1443 1.413 . S
C1441 H1448 0.929 . S
C1442 C1430 1.392 . S
C1442 C1443 1.367 . S
C1442 H1450 0.930 . S
C1443 C1441 1.413 . S
C1443 C1442 1.367 . S
C1443 H1445 0.930 . S
H1444 C1437 0.930 . S
H1445 C1443 0.930 . S
H1446 C1434 0.930 . S
H1447 C1435 0.930 . S
H1448 C1441 0.929 . S
H1449 C1463 0.930 . S
H1450 C1442 0.930 . S
H1451 C1469 0.930 . S
H1452 C1460 0.929 . S
H1453 C1467 0.930 . S
H1454 C1431 0.931 . S
H1455 C1461 0.930 . S
H1456 C1494 0.930 . S
H1457 C1438 0.930 . S
H1458 C1493 0.931 . S
N1459 Eu1428 2.657 . S
N1459 C1460 1.334 . S
N1459 C1464 1.362 . S
C1460 H1452 0.929 . S
C1460 N1459 1.334 . S
C1460 C1463 1.413 . S
C1461 H1455 0.930 . S
C1461 C1462 1.392 . S
C1461 C1463 1.367 . S
C1462 C1461 1.392 . S
C1462 C1464 1.420 . S
C1462 C1494 1.423 . S
C1463 H1449 0.930 . S
C1463 C1460 1.413 . S
C1463 C1461 1.367 . S
C1464 N1459 1.362 . S
C1464 C1462 1.420 . S
C1464 C1468 1.429 . S
H1465 C1470 0.930 . S
N1466 Eu1428 2.609 . S
N1466 C1468 1.377 . S
N1466 C1469 1.321 . S
C1467 H1453 0.930 . S
C1467 C1469 1.400 . S
C1467 C1470 1.386 . S
C1468 C1464 1.429 . S
C1468 N1466 1.377 . S
C1468 C1471 1.411 . S
C1469 H1451 0.930 . S
C1469 N1466 1.321 . S
C1469 C1467 1.400 . S
C1470 H1465 0.930 . S
C1470 C1467 1.386 . S
C1470 C1471 1.395 . S
C1471 C1468 1.411 . S
C1471 C1470 1.395 . S
C1471 C1493 1.420 . S
O1472 Eu1428 2.558 . S
O1472 C1492 1.257 . S
O1473 Eu1428 2.612 . S
O1473 Eu1439 2.380 . S
O1473 C1484 1.276 . S
O1474 Eu1439 2.432 . S
O1474 C1491 1.264 . S
O1475 Eu1428 2.339 . S
O1475 C1491 1.254 . S
O1476 Eu1428 2.563 . S
O1476 C1484 1.235 . S
O1477 Eu1428 2.419 . S
O1477 C1492 1.249 . S
O1478 Eu1439 2.558 . S
O1478 C1503 1.257 . S
O1479 Eu1428 2.380 . S
O1479 Eu1439 2.612 . S
O1479 C1495 1.276 . S
O1480 Eu1428 2.432 . S
O1480 C1502 1.264 . S
O1481 Eu1439 2.339 . S
O1481 C1502 1.254 . S
O1482 Eu1439 2.563 . S
O1482 C1495 1.235 . S
O1483 Eu1439 2.419 . S
O1483 C1503 1.249 . S
C1484 O1473 1.276 . S
C1484 O1476 1.235 . S
C1485 C1487 1.393 . S
C1485 C1489 1.395 . S
C1485 C1492 1.492 . S
C1486 C1487 1.392 . S
C1486 C1488 1.386 . S
C1487 C1485 1.393 . S
C1487 C1486 1.392 . S
C1487 H1504 0.930 . S
C1488 C1486 1.386 . S
C1488 C1490 1.395 . S
C1488 H1505 0.930 . S
C1489 C1485 1.395 . S
C1489 C1490 1.379 . S
C1489 H1506 0.930 . S
C1490 C1488 1.395 . S
C1490 C1489 1.379 . S
C1490 H1507 0.930 . S
C1491 O1474 1.264 . S
C1491 O1475 1.254 . S
C1492 Eu1428 2.848 . S
C1492 O1472 1.257 . S
C1492 O1477 1.249 . S
C1492 C1485 1.492 . S
C1493 H1458 0.931 . S
C1493 C1471 1.420 . S
C1493 C1494 1.351 . S
C1494 H1456 0.930 . S
C1494 C1462 1.423 . S
C1494 C1493 1.351 . S
C1495 O1479 1.276 . S
C1495 O1482 1.235 . S
C1496 C1497 1.393 . S
C1496 C1500 1.395 . S
C1496 C1503 1.492 . S
C1497 C1496 1.393 . S
C1497 C1498 1.392 . S
C1497 H1508 0.930 . S
C1498 C1497 1.392 . S
C1498 C1499 1.386 . S
C1499 C1498 1.386 . S
C1499 C1501 1.395 . S
C1499 H1509 0.930 . S
C1500 C1496 1.395 . S
C1500 C1501 1.379 . S
C1500 H1510 0.930 . S
C1501 C1499 1.395 . S
C1501 C1500 1.379 . S
C1501 H1511 0.930 . S
C1502 O1480 1.264 . S
C1502 O1481 1.254 . S
C1503 Eu1439 2.848 . S
C1503 O1478 1.257 . S
C1503 O1483 1.249 . S
C1503 C1496 1.492 . S
H1504 C1487 0.930 . S
H1505 C1488 0.930 . S
H1506 C1489 0.930 . S
H1507 C1490 0.930 . S
H1508 C1497 0.930 . S
H1509 C1499 0.930 . S
H1510 C1500 0.930 . S
H1511 C1501 0.930 . S
Eu1512 N1543 2.657 . S
Eu1512 N1550 2.609 . S
Eu1512 O1556 2.558 . S
Eu1512 O1557 2.612 . S
Eu1512 O1559 2.339 . S
Eu1512 O1560 2.563 . S
Eu1512 O1561 2.419 . S
Eu1512 O1563 2.380 . S
Eu1512 O1564 2.432 . S
Eu1512 C1576 2.848 . S
C1513 C1516 1.429 . S
C1513 C1517 1.411 . S
C1513 N1520 1.377 . S
C1514 C1516 1.420 . S
C1514 C1518 1.423 . S
C1514 C1526 1.392 . S
C1515 C1517 1.420 . S
C1515 C1518 1.351 . S
C1515 H1538 0.931 . S
C1516 C1513 1.429 . S
C1516 C1514 1.420 . S
C1516 N1524 1.362 . S
C1517 C1513 1.411 . S
C1517 C1515 1.420 . S
C1517 C1522 1.395 . S
C1518 C1514 1.423 . S
C1518 C1515 1.351 . S
C1518 H1530 0.930 . S
C1519 C1521 1.400 . S
C1519 C1522 1.386 . S
C1519 H1531 0.930 . S
N1520 C1513 1.377 . S
N1520 C1521 1.321 . S
N1520 Eu1523 2.609 . S
C1521 C1519 1.400 . S
C1521 N1520 1.321 . S
C1521 H1528 0.930 . S
C1522 C1517 1.395 . S
C1522 C1519 1.386 . S
C1522 H1541 0.930 . S
Eu1523 N1520 2.609 . S
Eu1523 N1524 2.657 . S
Eu1523 O1557 2.380 . S
Eu1523 O1558 2.432 . S
Eu1523 O1562 2.558 . S
Eu1523 O1563 2.612 . S
Eu1523 O1565 2.339 . S
Eu1523 O1566 2.563 . S
Eu1523 O1567 2.419 . S
Eu1523 C1587 2.848 . S
N1524 C1516 1.362 . S
N1524 Eu1523 2.657 . S
N1524 C1525 1.334 . S
C1525 N1524 1.334 . S
C1525 C1527 1.413 . S
C1525 H1532 0.929 . S
C1526 C1514 1.392 . S
C1526 C1527 1.367 . S
C1526 H1534 0.930 . S
C1527 C1525 1.413 . S
C1527 C1526 1.367 . S
C1527 H1529 0.930 . S
H1528 C1521 0.930 . S
H1529 C1527 0.930 . S
H1530 C1518 0.930 . S
H1531 C1519 0.930 . S
H1532 C1525 0.929 . S
H1533 C1547 0.930 . S
H1534 C1526 0.930 . S
H1535 C1553 0.930 . S
H1536 C1544 0.929 . S
H1537 C1551 0.930 . S
H1538 C1515 0.931 . S
H1539 C1545 0.930 . S
H1540 C1578 0.930 . S
H1541 C1522 0.930 . S
H1542 C1577 0.931 . S
N1543 Eu1512 2.657 . S
N1543 C1544 1.334 . S
N1543 C1548 1.362 . S
C1544 H1536 0.929 . S
C1544 N1543 1.334 . S
C1544 C1547 1.413 . S
C1545 H1539 0.930 . S
C1545 C1546 1.392 . S
C1545 C1547 1.367 . S
C1546 C1545 1.392 . S
C1546 C1548 1.420 . S
C1546 C1578 1.423 . S
C1547 H1533 0.930 . S
C1547 C1544 1.413 . S
C1547 C1545 1.367 . S
C1548 N1543 1.362 . S
C1548 C1546 1.420 . S
C1548 C1552 1.429 . S
H1549 C1554 0.930 . S
N1550 Eu1512 2.609 . S
N1550 C1552 1.377 . S
N1550 C1553 1.321 . S
C1551 H1537 0.930 . S
C1551 C1553 1.400 . S
C1551 C1554 1.386 . S
C1552 C1548 1.429 . S
C1552 N1550 1.377 . S
C1552 C1555 1.411 . S
C1553 H1535 0.930 . S
C1553 N1550 1.321 . S
C1553 C1551 1.400 . S
C1554 H1549 0.930 . S
C1554 C1551 1.386 . S
C1554 C1555 1.395 . S
C1555 C1552 1.411 . S
C1555 C1554 1.395 . S
C1555 C1577 1.420 . S
O1556 Eu1512 2.558 . S
O1556 C1576 1.257 . S
O1557 Eu1512 2.612 . S
O1557 Eu1523 2.380 . S
O1557 C1568 1.276 . S
O1558 Eu1523 2.432 . S
O1558 C1575 1.264 . S
O1559 Eu1512 2.339 . S
O1559 C1575 1.254 . S
O1560 Eu1512 2.563 . S
O1560 C1568 1.235 . S
O1561 Eu1512 2.419 . S
O1561 C1576 1.249 . S
O1562 Eu1523 2.558 . S
O1562 C1587 1.257 . S
O1563 Eu1512 2.380 . S
O1563 Eu1523 2.612 . S
O1563 C1579 1.276 . S
O1564 Eu1512 2.432 . S
O1564 C1586 1.264 . S
O1565 Eu1523 2.339 . S
O1565 C1586 1.254 . S
O1566 Eu1523 2.563 . S
O1566 C1579 1.235 . S
O1567 Eu1523 2.419 . S
O1567 C1587 1.249 . S
C1568 O1557 1.276 . S
C1568 O1560 1.235 . S
C1569 C1571 1.393 . S
C1569 C1573 1.395 . S
C1569 C1576 1.492 . S
C1570 C1571 1.392 . S
C1570 C1572 1.386 . S
C1571 C1569 1.393 . S
C1571 C1570 1.392 . S
C1571 H1588 0.930 . S
C1572 C1570 1.386 . S
C1572 C1574 1.395 . S
C1572 H1589 0.930 . S
C1573 C1569 1.395 . S
C1573 C1574 1.379 . S
C1573 H1590 0.930 . S
C1574 C1572 1.395 . S
C1574 C1573 1.379 . S
C1574 H1591 0.930 . S
C1575 O1558 1.264 . S
C1575 O1559 1.254 . S
C1576 Eu1512 2.848 . S
C1576 O1556 1.257 . S
C1576 O1561 1.249 . S
C1576 C1569 1.492 . S
C1577 H1542 0.931 . S
C1577 C1555 1.420 . S
C1577 C1578 1.351 . S
C1578 H1540 0.930 . S
C1578 C1546 1.423 . S
C1578 C1577 1.351 . S
C1579 O1563 1.276 . S
C1579 O1566 1.235 . S
C1580 C1581 1.393 . S
C1580 C1584 1.395 . S
C1580 C1587 1.492 . S
C1581 C1580 1.393 . S
C1581 C1582 1.392 . S
C1581 H1592 0.930 . S
C1582 C1581 1.392 . S
C1582 C1583 1.386 . S
C1583 C1582 1.386 . S
C1583 C1585 1.395 . S
C1583 H1593 0.930 . S
C1584 C1580 1.395 . S
C1584 C1585 1.379 . S
C1584 H1594 0.930 . S
C1585 C1583 1.395 . S
C1585 C1584 1.379 . S
C1585 H1595 0.930 . S
C1586 O1564 1.264 . S
C1586 O1565 1.254 . S
C1587 Eu1523 2.848 . S
C1587 O1562 1.257 . S
C1587 O1567 1.249 . S
C1587 C1580 1.492 . S
H1588 C1571 0.930 . S
H1589 C1572 0.930 . S
H1590 C1573 0.930 . S
H1591 C1574 0.930 . S
H1592 C1581 0.930 . S
H1593 C1583 0.930 . S
H1594 C1584 0.930 . S
H1595 C1585 0.930 . S
Eu1596 N1627 2.657 . S
Eu1596 N1634 2.609 1_554 S
Eu1596 O1640 2.558 1_554 S
Eu1596 O1641 2.612 . S
Eu1596 O1643 2.339 . S
Eu1596 O1644 2.563 . S
Eu1596 O1645 2.419 . S
Eu1596 O1647 2.380 . S
Eu1596 O1648 2.432 1_554 S
Eu1596 C1660 2.848 1_554 S
C1597 C1600 1.429 . S
C1597 C1601 1.411 . S
C1597 N1604 1.377 1_655 S
C1598 C1600 1.420 . S
C1598 C1602 1.423 . S
C1598 C1610 1.392 1_554 S
C1599 C1601 1.420 . S
C1599 C1602 1.351 . S
C1599 H1622 0.931 . S
C1600 C1597 1.429 . S
C1600 C1598 1.420 . S
C1600 N1608 1.366 . S
C1601 C1597 1.411 . S
C1601 C1599 1.420 . S
C1601 C1606 1.395 . S
C1602 C1598 1.423 . S
C1602 C1599 1.351 . S
C1602 H1614 0.930 . S
C1603 C1605 1.400 . S
C1603 C1606 1.386 1_455 S
C1603 H1615 0.930 . S
N1604 C1597 1.377 1_455 S
N1604 C1605 1.321 . S
N1604 Eu1607 2.609 . S
C1605 C1603 1.400 . S
C1605 N1604 1.321 . S
C1605 H1612 0.930 . S
C1606 C1601 1.395 . S
C1606 C1603 1.386 1_655 S
C1606 H1625 0.930 . S
Eu1607 N1604 2.609 . S
Eu1607 N1608 2.652 1_455 S
Eu1607 O1641 2.380 . S
Eu1607 O1642 2.432 . S
Eu1607 O1646 2.558 . S
Eu1607 O1647 2.612 . S
Eu1607 O1649 2.339 1_554 S
Eu1607 O1650 2.563 . S
Eu1607 O1651 2.419 1_455 S
Eu1607 C1671 2.848 1_455 S
N1608 C1600 1.366 . S
N1608 Eu1607 2.652 1_655 S
N1608 C1609 1.335 1_554 S
C1609 N1608 1.335 1_556 S
C1609 C1611 1.413 . S
C1609 H1616 0.916 1_655 S
C1610 C1598 1.392 1_556 S
C1610 C1611 1.367 . S
C1610 H1618 0.930 . S
C1611 C1609 1.413 . S
C1611 C1610 1.367 . S
C1611 H1613 0.930 . S
H1612 C1605 0.930 . S
H1613 C1611 0.930 . S
H1614 C1602 0.930 . S
H1615 C1603 0.930 . S
H1616 C1609 0.916 1_455 S
H1617 C1631 0.930 . S
H1618 C1610 0.930 . S
H1619 C1637 0.930 . S
H1620 C1628 0.929 . S
H1621 C1635 0.930 . S
H1622 C1599 0.931 . S
H1623 C1629 0.930 . S
H1624 C1662 0.930 . S
H1625 C1606 0.930 . S
H1626 C1661 0.931 . S
N1627 Eu1596 2.657 . S
N1627 C1628 1.334 . S
N1627 C1632 1.362 . S
C1628 H1620 0.929 . S
C1628 N1627 1.334 . S
C1628 C1631 1.413 . S
C1629 H1623 0.930 . S
C1629 C1630 1.392 . S
C1629 C1631 1.367 . S
C1630 C1629 1.392 . S
C1630 C1632 1.420 . S
C1630 C1662 1.423 . S
C1631 H1617 0.930 . S
C1631 C1628 1.413 . S
C1631 C1629 1.367 . S
C1632 N1627 1.362 . S
C1632 C1630 1.420 . S
C1632 C1636 1.429 1_554 S
H1633 C1638 0.930 . S
N1634 Eu1596 2.609 1_556 S
N1634 C1636 1.377 . S
N1634 C1637 1.321 . S
C1635 H1621 0.930 . S
C1635 C1637 1.400 . S
C1635 C1638 1.386 . S
C1636 C1632 1.429 1_556 S
C1636 N1634 1.377 . S
C1636 C1639 1.411 . S
C1637 H1619 0.930 . S
C1637 N1634 1.321 . S
C1637 C1635 1.400 . S
C1638 H1633 0.930 . S
C1638 C1635 1.386 . S
C1638 C1639 1.395 . S
C1639 C1636 1.411 . S
C1639 C1638 1.395 . S
C1639 C1661 1.420 . S
O1640 Eu1596 2.558 1_556 S
O1640 C1660 1.257 . S
O1641 Eu1596 2.612 . S
O1641 Eu1607 2.380 . S
O1641 C1652 1.276 . S
O1642 Eu1607 2.432 . S
O1642 C1659 1.264 . S
O1643 Eu1596 2.339 . S
O1643 C1659 1.254 . S
O1644 Eu1596 2.563 . S
O1644 C1652 1.235 . S
O1645 Eu1596 2.419 . S
O1645 C1660 1.249 1_554 S
O1646 Eu1607 2.558 . S
O1646 C1671 1.257 1_455 S
O1647 Eu1596 2.380 . S
O1647 Eu1607 2.612 . S
O1647 C1663 1.276 . S
O1648 Eu1596 2.432 1_556 S
O1648 C1670 1.264 . S
O1649 Eu1607 2.339 1_556 S
O1649 C1670 1.254 . S
O1650 Eu1607 2.563 . S
O1650 C1663 1.235 . S
O1651 Eu1607 2.419 1_655 S
O1651 C1671 1.249 . S
C1652 O1641 1.276 . S
C1652 O1644 1.235 . S
C1653 C1655 1.393 1_556 S
C1653 C1657 1.395 . S
C1653 C1660 1.492 . S
C1654 C1655 1.392 1_556 S
C1654 C1656 1.386 . S
C1655 C1653 1.393 1_554 S
C1655 C1654 1.392 1_554 S
C1655 H1672 0.930 . S
C1656 C1654 1.386 . S
C1656 C1658 1.395 . S
C1656 H1673 0.930 . S
C1657 C1653 1.395 . S
C1657 C1658 1.379 . S
C1657 H1674 0.930 . S
C1658 C1656 1.395 . S
C1658 C1657 1.379 . S
C1658 H1675 0.930 . S
C1659 O1642 1.264 . S
C1659 O1643 1.254 . S
C1660 Eu1596 2.848 1_556 S
C1660 O1640 1.257 . S
C1660 O1645 1.249 1_556 S
C1660 C1653 1.492 . S
C1661 H1626 0.931 . S
C1661 C1639 1.420 . S
C1661 C1662 1.351 1_556 S
C1662 H1624 0.930 . S
C1662 C1630 1.423 . S
C1662 C1661 1.351 1_554 S
C1663 O1647 1.276 . S
C1663 O1650 1.235 . S
C1664 C1665 1.393 . S
C1664 C1668 1.395 . S
C1664 C1671 1.492 . S
C1665 C1664 1.393 . S
C1665 C1666 1.392 . S
C1665 H1676 0.930 . S
C1666 C1665 1.392 . S
C1666 C1667 1.386 . S
C1667 C1666 1.386 . S
C1667 C1669 1.395 . S
C1667 H1677 0.930 . S
C1668 C1664 1.395 . S
C1668 C1669 1.379 . S
C1668 H1678 0.930 . S
C1669 C1667 1.395 . S
C1669 C1668 1.379 . S
C1669 H1679 0.930 . S
C1670 O1648 1.264 . S
C1670 O1649 1.254 . S
C1671 Eu1607 2.848 1_655 S
C1671 O1646 1.257 1_655 S
C1671 O1651 1.249 . S
C1671 C1664 1.492 . S
H1672 C1655 0.930 . S
H1673 C1656 0.930 . S
H1674 C1657 0.930 . S
H1675 C1658 0.930 . S
H1676 C1665 0.930 . S
H1677 C1667 0.930 . S
H1678 C1668 0.930 . S
H1679 C1669 0.930 . S
H1680 C1686 0.930 . S
H1681 C1690 0.930 . S
H1682 C1695 0.929 . S
H1683 C1693 0.929 . S
H1684 C1688 0.929 . S
H1685 C1694 0.929 . S
C1686 H1680 0.930 . S
C1686 C1687 1.367 . S
C1686 C1694 1.378 . S
C1687 C1686 1.367 . S
C1687 C1695 1.433 . S
C1688 H1684 0.929 . S
C1688 C1690 1.378 . S
C1688 C1692 1.350 1_554 S
C1689 C1692 1.463 . S
C1689 C1694 1.350 . S
C1689 N1697 1.427 . S
C1690 H1681 0.930 . S
C1690 C1688 1.378 . S
C1690 C1691 1.367 . S
C1691 C1690 1.367 . S
C1691 C1693 1.433 1_554 S
C1692 C1688 1.350 1_556 S
C1692 C1689 1.463 . S
C1692 N1696 1.427 . S
C1693 H1683 0.929 . S
C1693 C1691 1.433 1_556 S
C1693 N1696 1.384 . S
C1694 H1685 0.929 . S
C1694 C1686 1.378 . S
C1694 C1689 1.350 . S
C1695 H1682 0.929 . S
C1695 C1687 1.433 . S
C1695 N1697 1.384 . S
N1696 C1692 1.427 . S
N1696 C1693 1.384 . S
N1697 C1689 1.427 . S
N1697 C1695 1.384 . S
H1698 C1704 0.930 . S
H1699 C1708 0.930 . S
H1700 C1713 0.929 . S
H1701 C1711 0.929 . S
H1702 C1706 0.929 . S
H1703 C1712 0.929 . S
C1704 H1698 0.930 . S
C1704 C1705 1.367 . S
C1704 C1712 1.378 . S
C1705 C1704 1.367 . S
C1705 C1713 1.433 . S
C1706 H1702 0.929 . S
C1706 C1708 1.378 . S
C1706 C1710 1.350 . S
C1707 C1710 1.463 . S
C1707 C1712 1.350 . S
C1707 N1715 1.427 . S
C1708 H1699 0.930 . S
C1708 C1706 1.378 . S
C1708 C1709 1.367 . S
C1709 C1708 1.367 . S
C1709 C1711 1.433 . S
C1710 C1706 1.350 . S
C1710 C1707 1.463 . S
C1710 N1714 1.427 . S
C1711 H1701 0.929 . S
C1711 C1709 1.433 . S
C1711 N1714 1.384 . S
C1712 H1703 0.929 . S
C1712 C1704 1.378 . S
C1712 C1707 1.350 . S
C1713 H1700 0.929 . S
C1713 C1705 1.433 . S
C1713 N1715 1.384 . S
N1714 C1710 1.427 . S
N1714 C1711 1.384 . S
N1715 C1707 1.427 . S
N1715 C1713 1.384 . S
H1716 C1722 0.930 . S
H1717 C1726 0.930 . S
H1718 C1731 0.929 . S
H1719 C1729 0.929 . S
H1720 C1724 0.929 . S
H1721 C1730 0.929 . S
C1722 H1716 0.930 . S
C1722 C1723 1.367 . S
C1722 C1730 1.378 . S
C1723 C1722 1.367 . S
C1723 C1731 1.433 . S
C1724 H1720 0.929 . S
C1724 C1726 1.378 . S
C1724 C1728 1.350 . S
C1725 C1728 1.463 . S
C1725 C1730 1.350 . S
C1725 N1733 1.427 . S
C1726 H1717 0.930 . S
C1726 C1724 1.378 . S
C1726 C1727 1.367 . S
C1727 C1726 1.367 . S
C1727 C1729 1.433 . S
C1728 C1724 1.350 . S
C1728 C1725 1.463 . S
C1728 N1732 1.427 . S
C1729 H1719 0.929 . S
C1729 C1727 1.433 . S
C1729 N1732 1.384 . S
C1730 H1721 0.929 . S
C1730 C1722 1.378 . S
C1730 C1725 1.350 . S
C1731 H1718 0.929 . S
C1731 C1723 1.433 . S
C1731 N1733 1.384 . S
N1732 C1728 1.427 . S
N1732 C1729 1.384 . S
N1733 C1725 1.427 . S
N1733 C1731 1.384 . S
H1734 C1740 0.930 . S
H1735 C1744 0.930 . S
H1736 C1749 0.929 . S
H1737 C1747 0.929 . S
H1738 C1742 0.929 . S
H1739 C1748 0.929 . S
C1740 H1734 0.930 . S
C1740 C1741 1.367 . S
C1740 C1748 1.378 . S
C1741 C1740 1.367 . S
C1741 C1749 1.433 . S
C1742 H1738 0.929 . S
C1742 C1744 1.378 . S
C1742 C1746 1.350 . S
C1743 C1746 1.463 . S
C1743 C1748 1.350 . S
C1743 N1751 1.427 . S
C1744 H1735 0.930 . S
C1744 C1742 1.378 . S
C1744 C1745 1.367 . S
C1745 C1744 1.367 . S
C1745 C1747 1.433 . S
C1746 C1742 1.350 . S
C1746 C1743 1.463 . S
C1746 N1750 1.427 . S
C1747 H1737 0.929 . S
C1747 C1745 1.433 . S
C1747 N1750 1.384 . S
C1748 H1739 0.929 . S
C1748 C1740 1.378 . S
C1748 C1743 1.350 . S
C1749 H1736 0.929 . S
C1749 C1741 1.433 . S
C1749 N1751 1.384 . S
N1750 C1746 1.427 . S
N1750 C1747 1.384 . S
N1751 C1743 1.427 . S
N1751 C1749 1.384 . S
H1752 C1758 0.930 . S
H1753 C1762 0.930 . S
H1754 C1767 0.929 . S
H1755 C1765 0.929 . S
H1756 C1760 0.929 . S
H1757 C1766 0.929 1_655 S
C1758 H1752 0.930 . S
C1758 C1759 1.367 1_655 S
C1758 C1766 1.378 1_655 S
C1759 C1758 1.367 1_455 S
C1759 C1767 1.433 . S
C1760 H1756 0.929 . S
C1760 C1762 1.378 . S
C1760 C1764 1.350 . S
C1761 C1764 1.463 . S
C1761 C1766 1.350 . S
C1761 N1769 1.427 . S
C1762 H1753 0.930 . S
C1762 C1760 1.378 . S
C1762 C1763 1.367 . S
C1763 C1762 1.367 . S
C1763 C1765 1.433 . S
C1764 C1760 1.350 . S
C1764 C1761 1.463 . S
C1764 N1768 1.427 . S
C1765 H1755 0.929 . S
C1765 C1763 1.433 . S
C1765 N1768 1.384 . S
C1766 H1757 0.929 1_455 S
C1766 C1758 1.378 1_455 S
C1766 C1761 1.350 . S
C1767 H1754 0.929 . S
C1767 C1759 1.433 . S
C1767 N1769 1.384 . S
N1768 C1764 1.427 . S
N1768 C1765 1.384 . S
N1769 C1761 1.427 . S
N1769 C1767 1.384 . S
H1770 C1776 0.930 . S
H1771 C1780 0.930 . S
H1772 C1785 0.929 . S
H1773 C1783 0.929 . S
H1774 C1778 0.929 . S
H1775 C1784 0.929 . S
C1776 H1770 0.930 . S
C1776 C1777 1.367 . S
C1776 C1784 1.378 . S
C1777 C1776 1.367 . S
C1777 C1785 1.433 . S
C1778 H1774 0.929 . S
C1778 C1780 1.378 . S
C1778 C1782 1.350 . S
C1779 C1782 1.463 . S
C1779 C1784 1.350 . S
C1779 N1787 1.427 . S
C1780 H1771 0.930 . S
C1780 C1778 1.378 . S
C1780 C1781 1.367 . S
C1781 C1780 1.367 . S
C1781 C1783 1.433 . S
C1782 C1778 1.350 . S
C1782 C1779 1.463 . S
C1782 N1786 1.427 . S
C1783 H1773 0.929 . S
C1783 C1781 1.433 . S
C1783 N1786 1.384 . S
C1784 H1775 0.929 . S
C1784 C1776 1.378 . S
C1784 C1779 1.350 . S
C1785 H1772 0.929 . S
C1785 C1777 1.433 . S
C1785 N1787 1.384 . S
N1786 C1782 1.427 . S
N1786 C1783 1.384 . S
N1787 C1779 1.427 . S
N1787 C1785 1.384 . S
H1788 C1794 0.930 . S
H1789 C1798 0.930 . S
H1790 C1803 0.929 . S
H1791 C1801 0.929 . S
H1792 C1796 0.929 . S
H1793 C1802 0.929 . S
C1794 H1788 0.930 . S
C1794 C1795 1.367 . S
C1794 C1802 1.378 . S
C1795 C1794 1.367 . S
C1795 C1803 1.433 . S
C1796 H1792 0.929 . S
C1796 C1798 1.378 . S
C1796 C1800 1.350 . S
C1797 C1800 1.463 . S
C1797 C1802 1.350 . S
C1797 N1805 1.427 . S
C1798 H1789 0.930 . S
C1798 C1796 1.378 . S
C1798 C1799 1.367 . S
C1799 C1798 1.367 . S
C1799 C1801 1.433 . S
C1800 C1796 1.350 . S
C1800 C1797 1.463 . S
C1800 N1804 1.427 . S
C1801 H1791 0.929 . S
C1801 C1799 1.433 . S
C1801 N1804 1.384 . S
C1802 H1793 0.929 . S
C1802 C1794 1.378 . S
C1802 C1797 1.350 . S
C1803 H1790 0.929 . S
C1803 C1795 1.433 . S
C1803 N1805 1.384 . S
N1804 C1800 1.427 . S
N1804 C1801 1.384 . S
N1805 C1797 1.427 . S
N1805 C1803 1.384 . S
H1806 C1812 0.930 . S
H1807 C1816 0.930 . S
H1808 C1821 0.929 . S
H1809 C1819 0.929 . S
H1810 C1814 0.929 . S
H1811 C1820 0.929 . S
C1812 H1806 0.930 . S
C1812 C1813 1.367 . S
C1812 C1820 1.378 . S
C1813 C1812 1.367 . S
C1813 C1821 1.433 . S
C1814 H1810 0.929 . S
C1814 C1816 1.378 . S
C1814 C1818 1.350 . S
C1815 C1818 1.463 . S
C1815 C1820 1.350 . S
C1815 N1823 1.427 . S
C1816 H1807 0.930 . S
C1816 C1814 1.378 . S
C1816 C1817 1.367 . S
C1817 C1816 1.367 . S
C1817 C1819 1.433 . S
C1818 C1814 1.350 . S
C1818 C1815 1.463 . S
C1818 N1822 1.427 . S
C1819 H1809 0.929 . S
C1819 C1817 1.433 . S
C1819 N1822 1.384 . S
C1820 H1811 0.929 . S
C1820 C1812 1.378 . S
C1820 C1815 1.350 . S
C1821 H1808 0.929 . S
C1821 C1813 1.433 . S
C1821 N1823 1.384 . S
N1822 C1818 1.427 . S
N1822 C1819 1.384 . S
N1823 C1815 1.427 . S
N1823 C1821 1.384 . S
H1824 C1830 0.930 . S
H1825 C1834 0.930 . S
H1826 C1839 0.929 . S
H1827 C1837 0.929 . S
H1828 C1832 0.929 . S
H1829 C1838 0.929 . S
C1830 H1824 0.930 . S
C1830 C1831 1.367 . S
C1830 C1838 1.378 . S
C1831 C1830 1.367 . S
C1831 C1839 1.433 . S
C1832 H1828 0.929 . S
C1832 C1834 1.378 . S
C1832 C1836 1.350 . S
C1833 C1836 1.463 1_655 S
C1833 C1838 1.350 . S
C1833 N1841 1.427 . S
C1834 H1825 0.930 . S
C1834 C1832 1.378 . S
C1834 C1835 1.367 . S
C1835 C1834 1.367 . S
C1835 C1837 1.433 . S
C1836 C1832 1.350 . S
C1836 C1833 1.463 1_455 S
C1836 N1840 1.427 . S
C1837 H1827 0.929 . S
C1837 C1835 1.433 . S
C1837 N1840 1.384 . S
C1838 H1829 0.929 . S
C1838 C1830 1.378 . S
C1838 C1833 1.350 . S
C1839 H1826 0.929 . S
C1839 C1831 1.433 . S
C1839 N1841 1.384 . S
N1840 C1836 1.427 . S
N1840 C1837 1.384 . S
N1841 C1833 1.427 . S
N1841 C1839 1.384 . S
H1842 C1848 0.930 . S
H1843 C1852 0.930 . S
H1844 C1857 0.929 . S
H1845 C1855 0.929 . S
H1846 C1850 0.929 . S
H1847 C1856 0.929 . S
C1848 H1842 0.930 . S
C1848 C1849 1.367 . S
C1848 C1856 1.378 . S
C1849 C1848 1.367 . S
C1849 C1857 1.433 . S
C1850 H1846 0.929 . S
C1850 C1852 1.378 . S
C1850 C1854 1.350 . S
C1851 C1854 1.463 . S
C1851 C1856 1.350 . S
C1851 N1859 1.427 . S
C1852 H1843 0.930 . S
C1852 C1850 1.378 . S
C1852 C1853 1.367 . S
C1853 C1852 1.367 . S
C1853 C1855 1.433 . S
C1854 C1850 1.350 . S
C1854 C1851 1.463 . S
C1854 N1858 1.427 . S
C1855 H1845 0.929 . S
C1855 C1853 1.433 . S
C1855 N1858 1.384 . S
C1856 H1847 0.929 . S
C1856 C1848 1.378 . S
C1856 C1851 1.350 . S
C1857 H1844 0.929 . S
C1857 C1849 1.433 . S
C1857 N1859 1.384 . S
N1858 C1854 1.427 . S
N1858 C1855 1.384 . S
N1859 C1851 1.427 . S
N1859 C1857 1.384 . S
H1860 C1866 0.930 . S
H1861 C1870 0.930 . S
H1862 C1875 0.929 . S
H1863 C1873 0.929 . S
H1864 C1868 0.929 . S
H1865 C1874 0.929 . S
C1866 H1860 0.930 . S
C1866 C1867 1.367 . S
C1866 C1874 1.378 . S
C1867 C1866 1.367 . S
C1867 C1875 1.433 . S
C1868 H1864 0.929 . S
C1868 C1870 1.378 . S
C1868 C1872 1.350 . S
C1869 C1872 1.463 . S
C1869 C1874 1.350 . S
C1869 N1877 1.427 . S
C1870 H1861 0.930 . S
C1870 C1868 1.378 . S
C1870 C1871 1.367 . S
C1871 C1870 1.367 . S
C1871 C1873 1.433 . S
C1872 C1868 1.350 . S
C1872 C1869 1.463 . S
C1872 N1876 1.427 . S
C1873 H1863 0.929 . S
C1873 C1871 1.433 . S
C1873 N1876 1.384 . S
C1874 H1865 0.929 . S
C1874 C1866 1.378 . S
C1874 C1869 1.350 . S
C1875 H1862 0.929 . S
C1875 C1867 1.433 . S
C1875 N1877 1.384 . S
N1876 C1872 1.427 . S
N1876 C1873 1.384 . S
N1877 C1869 1.427 . S
N1877 C1875 1.384 . S
H1878 C1884 0.930 . S
H1879 C1888 0.930 . S
H1880 C1893 0.929 . S
H1881 C1891 0.929 . S
H1882 C1886 0.929 . S
H1883 C1892 0.929 . S
C1884 H1878 0.930 . S
C1884 C1885 1.367 . S
C1884 C1892 1.378 . S
C1885 C1884 1.367 . S
C1885 C1893 1.433 . S
C1886 H1882 0.929 . S
C1886 C1888 1.378 . S
C1886 C1890 1.350 . S
C1887 C1890 1.463 . S
C1887 C1892 1.350 . S
C1887 N1895 1.427 . S
C1888 H1879 0.930 . S
C1888 C1886 1.378 . S
C1888 C1889 1.367 . S
C1889 C1888 1.367 . S
C1889 C1891 1.433 . S
C1890 C1886 1.350 . S
C1890 C1887 1.463 . S
C1890 N1894 1.427 . S
C1891 H1881 0.929 . S
C1891 C1889 1.433 . S
C1891 N1894 1.384 . S
C1892 H1883 0.929 . S
C1892 C1884 1.378 . S
C1892 C1887 1.350 . S
C1893 H1880 0.929 . S
C1893 C1885 1.433 . S
C1893 N1895 1.384 . S
N1894 C1890 1.427 . S
N1894 C1891 1.384 . S
N1895 C1887 1.427 . S
N1895 C1893 1.384 . S
H1896 C1902 0.930 . S
H1897 C1906 0.930 . S
H1898 C1911 0.929 . S
H1899 C1909 0.929 . S
H1900 C1904 0.929 . S
H1901 C1910 0.937 . S
C1902 H1896 0.930 . S
C1902 C1903 1.367 . S
C1902 C1910 1.358 1_655 S
C1903 C1902 1.367 . S
C1903 C1911 1.433 . S
C1904 H1900 0.929 . S
C1904 C1906 1.378 . S
C1904 C1908 1.350 . S
C1905 C1908 1.463 . S
C1905 C1910 1.363 . S
C1905 N1913 1.427 1_455 S
C1906 H1897 0.930 . S
C1906 C1904 1.378 . S
C1906 C1907 1.367 . S
C1907 C1906 1.367 . S
C1907 C1909 1.433 . S
C1908 C1904 1.350 . S
C1908 C1905 1.463 . S
C1908 N1912 1.427 . S
C1909 H1899 0.929 . S
C1909 C1907 1.433 . S
C1909 N1912 1.384 . S
C1910 H1901 0.937 . S
C1910 C1902 1.358 1_455 S
C1910 C1905 1.363 . S
C1911 H1898 0.929 . S
C1911 C1903 1.433 . S
C1911 N1913 1.384 . S
N1912 C1908 1.427 . S
N1912 C1909 1.384 . S
N1913 C1905 1.427 1_655 S
N1913 C1911 1.384 . S
H1914 C1920 0.930 . S
H1915 C1924 0.930 . S
H1916 C1929 0.929 . S
H1917 C1927 0.929 . S
H1918 C1922 0.929 . S
H1919 C1928 0.929 . S
C1920 H1914 0.930 . S
C1920 C1921 1.367 . S
C1920 C1928 1.378 . S
C1921 C1920 1.367 . S
C1921 C1929 1.433 . S
C1922 H1918 0.929 . S
C1922 C1924 1.378 . S
C1922 C1926 1.350 . S
C1923 C1926 1.463 . S
C1923 C1928 1.350 . S
C1923 N1931 1.427 . S
C1924 H1915 0.930 . S
C1924 C1922 1.378 . S
C1924 C1925 1.367 . S
C1925 C1924 1.367 . S
C1925 C1927 1.433 . S
C1926 C1922 1.350 . S
C1926 C1923 1.463 . S
C1926 N1930 1.427 . S
C1927 H1917 0.929 . S
C1927 C1925 1.433 . S
C1927 N1930 1.384 . S
C1928 H1919 0.929 . S
C1928 C1920 1.378 . S
C1928 C1923 1.350 . S
C1929 H1916 0.929 . S
C1929 C1921 1.433 . S
C1929 N1931 1.384 . S
N1930 C1926 1.427 . S
N1930 C1927 1.384 . S
N1931 C1923 1.427 . S
N1931 C1929 1.384 . S
H1932 C1938 0.930 . S
H1933 C1942 0.930 . S
H1934 C1947 0.929 . S
H1935 C1945 0.929 . S
H1936 C1940 0.929 . S
H1937 C1946 0.929 . S
C1938 H1932 0.930 . S
C1938 C1939 1.367 . S
C1938 C1946 1.378 . S
C1939 C1938 1.367 . S
C1939 C1947 1.433 . S
C1940 H1936 0.929 . S
C1940 C1942 1.378 . S
C1940 C1944 1.350 . S
C1941 C1944 1.463 . S
C1941 C1946 1.350 . S
C1941 N1949 1.427 . S
C1942 H1933 0.930 . S
C1942 C1940 1.378 . S
C1942 C1943 1.367 . S
C1943 C1942 1.367 . S
C1943 C1945 1.433 . S
C1944 C1940 1.350 . S
C1944 C1941 1.463 . S
C1944 N1948 1.427 . S
C1945 H1935 0.929 . S
C1945 C1943 1.433 . S
C1945 N1948 1.384 . S
C1946 H1937 0.929 . S
C1946 C1938 1.378 . S
C1946 C1941 1.350 . S
C1947 H1934 0.929 . S
C1947 C1939 1.433 . S
C1947 N1949 1.384 . S
N1948 C1944 1.427 . S
N1948 C1945 1.384 . S
N1949 C1941 1.427 . S
N1949 C1947 1.384 . S
H1950 C1956 0.930 . S
H1951 C1960 0.930 . S
H1952 C1965 0.929 . S
H1953 C1963 0.929 . S
H1954 C1958 0.929 . S
H1955 C1964 0.929 . S
C1956 H1950 0.930 . S
C1956 C1957 1.367 . S
C1956 C1964 1.378 . S
C1957 C1956 1.367 . S
C1957 C1965 1.433 . S
C1958 H1954 0.929 . S
C1958 C1960 1.378 . S
C1958 C1962 1.350 . S
C1959 C1962 1.463 . S
C1959 C1964 1.350 . S
C1959 N1967 1.427 . S
C1960 H1951 0.930 . S
C1960 C1958 1.378 . S
C1960 C1961 1.367 . S
C1961 C1960 1.367 . S
C1961 C1963 1.433 . S
C1962 C1958 1.350 . S
C1962 C1959 1.463 . S
C1962 N1966 1.427 . S
C1963 H1953 0.929 . S
C1963 C1961 1.433 . S
C1963 N1966 1.384 . S
C1964 H1955 0.929 . S
C1964 C1956 1.378 . S
C1964 C1959 1.350 . S
C1965 H1952 0.929 . S
C1965 C1957 1.433 . S
C1965 N1967 1.384 . S
N1966 C1962 1.427 . S
N1966 C1963 1.384 . S
N1967 C1959 1.427 . S
N1967 C1965 1.384 . S
H1968 C1974 0.930 . S
H1969 C1978 0.930 . S
H1970 C1983 0.929 . S
H1971 C1981 0.929 . S
H1972 C1976 0.929 . S
H1973 C1982 0.913 1_556 S
C1974 H1968 0.930 . S
C1974 C1975 1.367 1_556 S
C1974 C1982 1.374 1_556 S
C1975 C1974 1.367 1_554 S
C1975 C1983 1.433 . S
C1976 H1972 0.929 . S
C1976 C1978 1.378 . S
C1976 C1980 1.350 1_545 S
C1977 C1980 1.463 . S
C1977 C1982 1.370 . S
C1977 N1985 1.427 . S
C1978 H1969 0.930 . S
C1978 C1976 1.378 . S
C1978 C1979 1.367 . S
C1979 C1978 1.367 . S
C1979 C1981 1.433 1_545 S
C1980 C1976 1.350 1_565 S
C1980 C1977 1.463 . S
C1980 N1984 1.427 . S
C1981 H1971 0.929 . S
C1981 C1979 1.433 1_565 S
C1981 N1984 1.384 . S
C1982 H1973 0.913 1_554 S
C1982 C1974 1.374 1_554 S
C1982 C1977 1.370 . S
C1983 H1970 0.929 . S
C1983 C1975 1.433 . S
C1983 N1985 1.384 . S
N1984 C1980 1.427 . S
N1984 C1981 1.384 . S
N1985 C1977 1.427 . S
N1985 C1983 1.384 . S
H1986 C1992 0.930 . S
H1987 C1996 0.930 . S
H1988 C2001 0.929 . S
H1989 C1999 0.929 . S
H1990 C1994 0.929 . S
H1991 C2000 0.929 . S
C1992 H1986 0.930 . S
C1992 C1993 1.367 . S
C1992 C2000 1.378 . S
C1993 C1992 1.367 . S
C1993 C2001 1.433 1_556 S
C1994 H1990 0.929 . S
C1994 C1996 1.378 . S
C1994 C1998 1.350 1_554 S
C1995 C1998 1.463 . S
C1995 C2000 1.350 . S
C1995 N2003 1.427 1_556 S
C1996 H1987 0.930 . S
C1996 C1994 1.378 . S
C1996 C1997 1.353 1_554 S
C1997 C1996 1.353 1_556 S
C1997 C1999 1.456 . S
C1998 C1994 1.350 1_556 S
C1998 C1995 1.463 . S
C1998 N2002 1.427 . S
C1999 H1989 0.929 . S
C1999 C1997 1.456 . S
C1999 N2002 1.384 . S
C2000 H1991 0.929 . S
C2000 C1992 1.378 . S
C2000 C1995 1.350 . S
C2001 H1988 0.929 . S
C2001 C1993 1.433 1_554 S
C2001 N2003 1.384 . S
N2002 C1998 1.427 . S
N2002 C1999 1.384 . S
N2003 C1995 1.427 1_554 S
N2003 C2001 1.384 . S
H2004 C2010 0.930 . S
H2005 C2014 0.930 . S
H2006 C2019 0.929 . S
H2007 C2017 0.929 . S
H2008 C2012 0.929 . S
H2009 C2018 0.929 . S
C2010 H2004 0.930 . S
C2010 C2011 1.367 . S
C2010 C2018 1.378 . S
C2011 C2010 1.367 . S
C2011 C2019 1.433 . S
C2012 H2008 0.929 . S
C2012 C2014 1.378 . S
C2012 C2016 1.350 . S
C2013 C2016 1.463 . S
C2013 C2018 1.350 . S
C2013 N2021 1.427 . S
C2014 H2005 0.930 . S
C2014 C2012 1.378 . S
C2014 C2015 1.367 . S
C2015 C2014 1.367 . S
C2015 C2017 1.433 . S
C2016 C2012 1.350 . S
C2016 C2013 1.463 . S
C2016 N2020 1.427 . S
C2017 H2007 0.929 . S
C2017 C2015 1.433 . S
C2017 N2020 1.384 . S
C2018 H2009 0.929 . S
C2018 C2010 1.378 . S
C2018 C2013 1.350 . S
C2019 H2006 0.929 . S
C2019 C2011 1.433 . S
C2019 N2021 1.384 . S
N2020 C2016 1.427 . S
N2020 C2017 1.384 . S
N2021 C2013 1.427 . S
N2021 C2019 1.384 . S
H2022 C2028 0.930 . S
H2023 C2032 0.930 1_455 S
H2024 C2037 0.929 . S
H2025 C2035 0.929 1_455 S
H2026 C2030 0.929 . S
H2027 C2036 0.929 . S
C2028 H2022 0.930 . S
C2028 C2029 1.367 . S
C2028 C2036 1.378 . S
C2029 C2028 1.367 . S
C2029 C2037 1.433 . S
C2030 H2026 0.929 . S
C2030 C2032 1.378 . S
C2030 C2034 1.350 . S
C2031 C2034 1.463 . S
C2031 C2036 1.350 . S
C2031 N2039 1.427 . S
C2032 H2023 0.930 1_655 S
C2032 C2030 1.378 . S
C2032 C2033 1.367 1_655 S
C2033 C2032 1.367 1_455 S
C2033 C2035 1.433 1_455 S
C2034 C2030 1.350 . S
C2034 C2031 1.463 . S
C2034 N2038 1.427 . S
C2035 H2025 0.929 1_655 S
C2035 C2033 1.433 1_655 S
C2035 N2038 1.384 . S
C2036 H2027 0.929 . S
C2036 C2028 1.378 . S
C2036 C2031 1.350 . S
C2037 H2024 0.929 . S
C2037 C2029 1.433 . S
C2037 N2039 1.384 . S
N2038 C2034 1.427 . S
N2038 C2035 1.384 . S
N2039 C2031 1.427 . S
N2039 C2037 1.384 . S
H2040 C2046 0.930 . S
H2041 C2050 0.930 . S
H2042 C2055 0.929 . S
H2043 C2053 0.929 . S
H2044 C2048 0.929 . S
H2045 C2054 0.929 . S
C2046 H2040 0.930 . S
C2046 C2047 1.367 . S
C2046 C2054 1.378 . S
C2047 C2046 1.367 . S
C2047 C2055 1.433 . S
C2048 H2044 0.929 . S
C2048 C2050 1.378 . S
C2048 C2052 1.350 . S
C2049 C2052 1.463 . S
C2049 C2054 1.350 . S
C2049 N2057 1.427 . S
C2050 H2041 0.930 . S
C2050 C2048 1.378 . S
C2050 C2051 1.367 . S
C2051 C2050 1.367 . S
C2051 C2053 1.433 . S
C2052 C2048 1.350 . S
C2052 C2049 1.463 . S
C2052 N2056 1.427 . S
C2053 H2043 0.929 . S
C2053 C2051 1.433 . S
C2053 N2056 1.384 . S
C2054 H2045 0.929 . S
C2054 C2046 1.378 . S
C2054 C2049 1.350 . S
C2055 H2042 0.929 . S
C2055 C2047 1.433 . S
C2055 N2057 1.384 . S
N2056 C2052 1.427 . S
N2056 C2053 1.384 . S
N2057 C2049 1.427 . S
N2057 C2055 1.384 . S
H2058 C2064 0.930 . S
H2059 C2068 0.930 . S
H2060 C2073 0.929 . S
H2061 C2071 0.929 . S
H2062 C2066 0.929 . S
H2063 C2072 0.929 . S
C2064 H2058 0.930 . S
C2064 C2065 1.367 . S
C2064 C2072 1.378 . S
C2065 C2064 1.367 . S
C2065 C2073 1.433 . S
C2066 H2062 0.929 . S
C2066 C2068 1.378 . S
C2066 C2070 1.350 . S
C2067 C2070 1.463 . S
C2067 C2072 1.350 . S
C2067 N2075 1.427 . S
C2068 H2059 0.930 . S
C2068 C2066 1.378 . S
C2068 C2069 1.367 . S
C2069 C2068 1.367 . S
C2069 C2071 1.433 . S
C2070 C2066 1.350 . S
C2070 C2067 1.463 . S
C2070 N2074 1.427 . S
C2071 H2061 0.929 . S
C2071 C2069 1.433 . S
C2071 N2074 1.384 . S
C2072 H2063 0.929 . S
C2072 C2064 1.378 . S
C2072 C2067 1.350 . S
C2073 H2060 0.929 . S
C2073 C2065 1.433 . S
C2073 N2075 1.384 . S
N2074 C2070 1.427 . S
N2074 C2071 1.384 . S
N2075 C2067 1.427 . S
N2075 C2073 1.384 . S
H2076 C2082 0.930 . S
H2077 C2086 0.930 . S
H2078 C2091 0.929 . S
H2079 C2089 0.929 . S
H2080 C2084 0.929 . S
H2081 C2090 0.929 . S
C2082 H2076 0.930 . S
C2082 C2083 1.367 . S
C2082 C2090 1.378 . S
C2083 C2082 1.367 . S
C2083 C2091 1.433 . S
C2084 H2080 0.929 . S
C2084 C2086 1.378 . S
C2084 C2088 1.350 . S
C2085 C2088 1.463 . S
C2085 C2090 1.350 . S
C2085 N2093 1.427 . S
C2086 H2077 0.930 . S
C2086 C2084 1.378 . S
C2086 C2087 1.367 . S
C2087 C2086 1.367 . S
C2087 C2089 1.433 . S
C2088 C2084 1.350 . S
C2088 C2085 1.463 . S
C2088 N2092 1.427 . S
C2089 H2079 0.929 . S
C2089 C2087 1.433 . S
C2089 N2092 1.384 . S
C2090 H2081 0.929 . S
C2090 C2082 1.378 . S
C2090 C2085 1.350 . S
C2091 H2078 0.929 . S
C2091 C2083 1.433 . S
C2091 N2093 1.384 . S
N2092 C2088 1.427 . S
N2092 C2089 1.384 . S
N2093 C2085 1.427 . S
N2093 C2091 1.384 . S
H2094 C2100 0.930 . S
H2095 C2104 0.930 . S
H2096 C2109 0.929 . S
H2097 C2107 0.929 . S
H2098 C2102 0.929 . S
H2099 C2108 0.929 . S
C2100 H2094 0.930 . S
C2100 C2101 1.367 . S
C2100 C2108 1.378 . S
C2101 C2100 1.367 . S
C2101 C2109 1.433 . S
C2102 H2098 0.929 . S
C2102 C2104 1.378 . S
C2102 C2106 1.350 . S
C2103 C2106 1.463 . S
C2103 C2108 1.350 . S
C2103 N2111 1.427 . S
C2104 H2095 0.930 . S
C2104 C2102 1.378 . S
C2104 C2105 1.367 . S
C2105 C2104 1.367 . S
C2105 C2107 1.433 . S
C2106 C2102 1.350 . S
C2106 C2103 1.463 . S
C2106 N2110 1.427 . S
C2107 H2097 0.929 . S
C2107 C2105 1.433 . S
C2107 N2110 1.384 . S
C2108 H2099 0.929 . S
C2108 C2100 1.378 . S
C2108 C2103 1.350 . S
C2109 H2096 0.929 . S
C2109 C2101 1.433 . S
C2109 N2111 1.384 . S
N2110 C2106 1.427 . S
N2110 C2107 1.384 . S
N2111 C2103 1.427 . S
N2111 C2109 1.384 . S
H2112 C2118 0.930 . S
H2113 C2122 0.930 . S
H2114 C2127 0.929 . S
H2115 C2125 0.929 . S
H2116 C2120 0.929 . S
H2117 C2126 0.929 . S
C2118 H2112 0.930 . S
C2118 C2119 1.367 . S
C2118 C2126 1.378 . S
C2119 C2118 1.367 . S
C2119 C2127 1.433 . S
C2120 H2116 0.929 . S
C2120 C2122 1.378 . S
C2120 C2124 1.350 . S
C2121 C2124 1.463 . S
C2121 C2126 1.350 . S
C2121 N2129 1.427 . S
C2122 H2113 0.930 . S
C2122 C2120 1.378 . S
C2122 C2123 1.367 . S
C2123 C2122 1.367 . S
C2123 C2125 1.433 . S
C2124 C2120 1.350 . S
C2124 C2121 1.463 . S
C2124 N2128 1.427 . S
C2125 H2115 0.929 . S
C2125 C2123 1.433 . S
C2125 N2128 1.384 . S
C2126 H2117 0.929 . S
C2126 C2118 1.378 . S
C2126 C2121 1.350 . S
C2127 H2114 0.929 . S
C2127 C2119 1.433 . S
C2127 N2129 1.384 . S
N2128 C2124 1.427 . S
N2128 C2125 1.384 . S
N2129 C2121 1.427 . S
N2129 C2127 1.384 . S
H2130 C2136 0.930 . S
H2131 C2140 0.930 . S
H2132 C2145 0.929 . S
H2133 C2143 0.929 . S
H2134 C2138 0.929 . S
H2135 C2144 0.929 . S
C2136 H2130 0.930 . S
C2136 C2137 1.367 . S
C2136 C2144 1.378 . S
C2137 C2136 1.367 . S
C2137 C2145 1.433 . S
C2138 H2134 0.929 . S
C2138 C2140 1.378 . S
C2138 C2142 1.350 . S
C2139 C2142 1.463 . S
C2139 C2144 1.350 . S
C2139 N2147 1.427 . S
C2140 H2131 0.930 . S
C2140 C2138 1.378 . S
C2140 C2141 1.367 . S
C2141 C2140 1.367 . S
C2141 C2143 1.433 . S
C2142 C2138 1.350 . S
C2142 C2139 1.463 . S
C2142 N2146 1.427 . S
C2143 H2133 0.929 . S
C2143 C2141 1.433 . S
C2143 N2146 1.384 . S
C2144 H2135 0.929 . S
C2144 C2136 1.378 . S
C2144 C2139 1.350 . S
C2145 H2132 0.929 . S
C2145 C2137 1.433 . S
C2145 N2147 1.384 . S
N2146 C2142 1.427 . S
N2146 C2143 1.384 . S
N2147 C2139 1.427 . S
N2147 C2145 1.384 . S
H2148 C2154 0.930 . S
H2149 C2158 0.930 . S
H2150 C2163 0.929 . S
H2151 C2161 0.929 . S
H2152 C2156 0.929 . S
H2153 C2162 0.929 . S
C2154 H2148 0.930 . S
C2154 C2155 1.367 . S
C2154 C2162 1.378 . S
C2155 C2154 1.367 . S
C2155 C2163 1.433 . S
C2156 H2152 0.929 . S
C2156 C2158 1.378 . S
C2156 C2160 1.350 . S
C2157 C2160 1.463 . S
C2157 C2162 1.350 . S
C2157 N2165 1.427 . S
C2158 H2149 0.930 . S
C2158 C2156 1.378 . S
C2158 C2159 1.367 . S
C2159 C2158 1.367 . S
C2159 C2161 1.433 . S
C2160 C2156 1.350 . S
C2160 C2157 1.463 . S
C2160 N2164 1.427 . S
C2161 H2151 0.929 . S
C2161 C2159 1.433 . S
C2161 N2164 1.384 . S
C2162 H2153 0.929 . S
C2162 C2154 1.378 . S
C2162 C2157 1.350 . S
C2163 H2150 0.929 . S
C2163 C2155 1.433 . S
C2163 N2165 1.384 . S
N2164 C2160 1.427 . S
N2164 C2161 1.384 . S
N2165 C2157 1.427 . S
N2165 C2163 1.384 . S
H2166 C2172 0.930 . S
H2167 C2176 0.930 . S
H2168 C2181 0.929 . S
H2169 C2179 0.929 . S
H2170 C2174 0.929 . S
H2171 C2180 0.929 . S
C2172 H2166 0.930 . S
C2172 C2173 1.367 . S
C2172 C2180 1.378 . S
C2173 C2172 1.367 . S
C2173 C2181 1.433 . S
C2174 H2170 0.929 . S
C2174 C2176 1.378 . S
C2174 C2178 1.350 . S
C2175 C2178 1.463 . S
C2175 C2180 1.350 . S
C2175 N2183 1.427 . S
C2176 H2167 0.930 . S
C2176 C2174 1.378 . S
C2176 C2177 1.367 . S
C2177 C2176 1.367 . S
C2177 C2179 1.433 . S
C2178 C2174 1.350 . S
C2178 C2175 1.463 . S
C2178 N2182 1.427 . S
C2179 H2169 0.929 . S
C2179 C2177 1.433 . S
C2179 N2182 1.384 . S
C2180 H2171 0.929 . S
C2180 C2172 1.378 . S
C2180 C2175 1.350 . S
C2181 H2168 0.929 . S
C2181 C2173 1.433 . S
C2181 N2183 1.384 . S
N2182 C2178 1.427 . S
N2182 C2179 1.384 . S
N2183 C2175 1.427 . S
N2183 C2181 1.384 . S
H2184 C2190 0.930 . S
H2185 C2194 0.930 . S
H2186 C2199 0.929 . S
H2187 C2197 0.929 . S
H2188 C2192 0.929 . S
H2189 C2198 0.929 . S
C2190 H2184 0.930 . S
C2190 C2191 1.367 . S
C2190 C2198 1.378 . S
C2191 C2190 1.367 . S
C2191 C2199 1.433 . S
C2192 H2188 0.929 . S
C2192 C2194 1.378 . S
C2192 C2196 1.350 . S
C2193 C2196 1.463 . S
C2193 C2198 1.350 . S
C2193 N2201 1.427 . S
C2194 H2185 0.930 . S
C2194 C2192 1.378 . S
C2194 C2195 1.367 . S
C2195 C2194 1.367 . S
C2195 C2197 1.433 . S
C2196 C2192 1.350 . S
C2196 C2193 1.463 . S
C2196 N2200 1.427 . S
C2197 H2187 0.929 . S
C2197 C2195 1.433 . S
C2197 N2200 1.384 . S
C2198 H2189 0.929 . S
C2198 C2190 1.378 . S
C2198 C2193 1.350 . S
C2199 H2186 0.929 . S
C2199 C2191 1.433 . S
C2199 N2201 1.384 . S
N2200 C2196 1.427 . S
N2200 C2197 1.384 . S
N2201 C2193 1.427 . S
N2201 C2199 1.384 . S
H2202 C2208 0.930 . S
H2203 C2212 0.930 . S
H2204 C2217 0.929 . S
H2205 C2215 0.929 . S
H2206 C2210 0.929 . S
H2207 C2216 0.929 . S
C2208 H2202 0.930 . S
C2208 C2209 1.367 . S
C2208 C2216 1.378 . S
C2209 C2208 1.367 . S
C2209 C2217 1.433 . S
C2210 H2206 0.929 . S
C2210 C2212 1.378 . S
C2210 C2214 1.350 . S
C2211 C2214 1.463 . S
C2211 C2216 1.350 . S
C2211 N2219 1.427 . S
C2212 H2203 0.930 . S
C2212 C2210 1.378 . S
C2212 C2213 1.367 . S
C2213 C2212 1.367 . S
C2213 C2215 1.433 . S
C2214 C2210 1.350 . S
C2214 C2211 1.463 . S
C2214 N2218 1.427 . S
C2215 H2205 0.929 . S
C2215 C2213 1.433 . S
C2215 N2218 1.384 . S
C2216 H2207 0.929 . S
C2216 C2208 1.378 . S
C2216 C2211 1.350 . S
C2217 H2204 0.929 . S
C2217 C2209 1.433 . S
C2217 N2219 1.384 . S
N2218 C2214 1.427 . S
N2218 C2215 1.384 . S
N2219 C2211 1.427 . S
N2219 C2217 1.384 . S
H2220 C2226 0.930 . S
H2221 C2230 0.930 . S
H2222 C2235 0.929 . S
H2223 C2233 0.929 1_554 S
H2224 C2228 0.929 . S
H2225 C2234 0.929 . S
C2226 H2220 0.930 . S
C2226 C2227 1.367 . S
C2226 C2234 1.378 . S
C2227 C2226 1.367 . S
C2227 C2235 1.433 . S
C2228 H2224 0.929 . S
C2228 C2230 1.378 . S
C2228 C2232 1.350 . S
C2229 C2232 1.463 . S
C2229 C2234 1.350 . S
C2229 N2237 1.427 . S
C2230 H2221 0.930 . S
C2230 C2228 1.378 . S
C2230 C2231 1.367 . S
C2231 C2230 1.367 . S
C2231 C2233 1.433 . S
C2232 C2228 1.350 . S
C2232 C2229 1.463 . S
C2232 N2236 1.427 . S
C2233 H2223 0.929 1_556 S
C2233 C2231 1.433 . S
C2233 N2236 1.384 . S
C2234 H2225 0.929 . S
C2234 C2226 1.378 . S
C2234 C2229 1.350 . S
C2235 H2222 0.929 . S
C2235 C2227 1.433 . S
C2235 N2237 1.384 . S
N2236 C2232 1.427 . S
N2236 C2233 1.384 . S
N2237 C2229 1.427 . S
N2237 C2235 1.384 . S
H2238 C2244 0.930 . S
H2239 C2248 0.930 . S
H2240 C2253 0.929 . S
H2241 C2251 0.929 . S
H2242 C2246 0.929 . S
H2243 C2252 0.929 . S
C2244 H2238 0.930 . S
C2244 C2245 1.367 . S
C2244 C2252 1.378 . S
C2245 C2244 1.367 . S
C2245 C2253 1.433 . S
C2246 H2242 0.929 . S
C2246 C2248 1.378 . S
C2246 C2250 1.350 . S
C2247 C2250 1.463 . S
C2247 C2252 1.350 . S
C2247 N2255 1.427 . S
C2248 H2239 0.930 . S
C2248 C2246 1.378 . S
C2248 C2249 1.367 . S
C2249 C2248 1.367 . S
C2249 C2251 1.433 . S
C2250 C2246 1.350 . S
C2250 C2247 1.463 . S
C2250 N2254 1.427 . S
C2251 H2241 0.929 . S
C2251 C2249 1.433 . S
C2251 N2254 1.384 . S
C2252 H2243 0.929 . S
C2252 C2244 1.378 . S
C2252 C2247 1.350 . S
C2253 H2240 0.929 . S
C2253 C2245 1.433 . S
C2253 N2255 1.384 . S
N2254 C2250 1.427 . S
N2254 C2251 1.384 . S
N2255 C2247 1.427 . S
N2255 C2253 1.384 . S
H2256 C2262 0.930 . S
H2257 C2266 0.930 . S
H2258 C2271 0.929 . S
H2259 C2269 0.929 . S
H2260 C2264 0.929 . S
H2261 C2270 0.929 . S
C2262 H2256 0.930 . S
C2262 C2263 1.367 1_565 S
C2262 C2270 1.378 . S
C2263 C2262 1.367 1_545 S
C2263 C2271 1.433 . S
C2264 H2260 0.929 . S
C2264 C2266 1.378 . S
C2264 C2268 1.350 . S
C2265 C2268 1.463 . S
C2265 C2270 1.350 1_545 S
C2265 N2273 1.427 . S
C2266 H2257 0.930 . S
C2266 C2264 1.378 . S
C2266 C2267 1.367 . S
C2267 C2266 1.367 . S
C2267 C2269 1.433 1_545 S
C2268 C2264 1.350 . S
C2268 C2265 1.463 . S
C2268 N2272 1.427 1_545 S
C2269 H2259 0.929 . S
C2269 C2267 1.433 1_565 S
C2269 N2272 1.384 . S
C2270 H2261 0.929 . S
C2270 C2262 1.378 . S
C2270 C2265 1.350 1_565 S
C2271 H2258 0.929 . S
C2271 C2263 1.433 . S
C2271 N2273 1.384 . S
N2272 C2268 1.427 1_565 S
N2272 C2269 1.384 . S
N2273 C2265 1.427 . S
N2273 C2271 1.384 . S
H2274 C2280 0.930 . S
H2275 C2284 0.930 . S
H2276 C2289 0.929 . S
H2277 C2287 0.929 . S
H2278 C2282 0.929 . S
H2279 C2288 0.929 . S
C2280 H2274 0.930 . S
C2280 C2281 1.367 . S
C2280 C2288 1.378 . S
C2281 C2280 1.367 . S
C2281 C2289 1.433 . S
C2282 H2278 0.929 . S
C2282 C2284 1.378 . S
C2282 C2286 1.350 . S
C2283 C2286 1.463 . S
C2283 C2288 1.350 . S
C2283 N2291 1.427 . S
C2284 H2275 0.930 . S
C2284 C2282 1.378 . S
C2284 C2285 1.367 . S
C2285 C2284 1.367 . S
C2285 C2287 1.433 . S
C2286 C2282 1.350 . S
C2286 C2283 1.463 . S
C2286 N2290 1.427 . S
C2287 H2277 0.929 . S
C2287 C2285 1.433 . S
C2287 N2290 1.384 . S
C2288 H2279 0.929 . S
C2288 C2280 1.378 . S
C2288 C2283 1.350 . S
C2289 H2276 0.929 . S
C2289 C2281 1.433 . S
C2289 N2291 1.384 . S
N2290 C2286 1.427 . S
N2290 C2287 1.384 . S
N2291 C2283 1.427 . S
N2291 C2289 1.384 . S
H2292 C2298 0.930 . S
H2293 C2302 0.930 . S
H2294 C2307 0.929 1_565 S
H2295 C2305 0.929 . S
H2296 C2300 0.929 1_565 S
H2297 C2306 0.929 . S
C2298 H2292 0.930 . S
C2298 C2299 1.367 . S
C2298 C2306 1.378 . S
C2299 C2298 1.367 . S
C2299 C2307 1.433 . S
C2300 H2296 0.929 1_545 S
C2300 C2302 1.378 . S
C2300 C2304 1.350 . S
C2301 C2304 1.463 . S
C2301 C2306 1.350 . S
C2301 N2309 1.427 . S
C2302 H2293 0.930 . S
C2302 C2300 1.378 . S
C2302 C2303 1.367 . S
C2303 C2302 1.367 . S
C2303 C2305 1.433 . S
C2304 C2300 1.350 . S
C2304 C2301 1.463 . S
C2304 N2308 1.427 . S
C2305 H2295 0.929 . S
C2305 C2303 1.433 . S
C2305 N2308 1.384 . S
C2306 H2297 0.929 . S
C2306 C2298 1.378 . S
C2306 C2301 1.350 . S
C2307 H2294 0.929 1_545 S
C2307 C2299 1.433 . S
C2307 N2309 1.384 . S
N2308 C2304 1.427 . S
N2308 C2305 1.384 . S
N2309 C2301 1.427 . S
N2309 C2307 1.384 . S
H2310 C2316 0.930 . S
H2311 C2320 0.930 . S
H2312 C2325 0.929 . S
H2313 C2323 0.929 . S
H2314 C2318 0.929 . S
H2315 C2324 0.929 . S
C2316 H2310 0.930 . S
C2316 C2317 1.367 . S
C2316 C2324 1.378 . S
C2317 C2316 1.367 . S
C2317 C2325 1.433 . S
C2318 H2314 0.929 . S
C2318 C2320 1.378 . S
C2318 C2322 1.350 . S
C2319 C2322 1.463 . S
C2319 C2324 1.350 . S
C2319 N2327 1.427 . S
C2320 H2311 0.930 . S
C2320 C2318 1.378 . S
C2320 C2321 1.367 . S
C2321 C2320 1.367 . S
C2321 C2323 1.433 . S
C2322 C2318 1.350 . S
C2322 C2319 1.463 . S
C2322 N2326 1.427 . S
C2323 H2313 0.929 . S
C2323 C2321 1.433 . S
C2323 N2326 1.384 . S
C2324 H2315 0.929 . S
C2324 C2316 1.378 . S
C2324 C2319 1.350 . S
C2325 H2312 0.929 . S
C2325 C2317 1.433 . S
C2325 N2327 1.384 . S
N2326 C2322 1.427 . S
N2326 C2323 1.384 . S
N2327 C2319 1.427 . S
N2327 C2325 1.384 . S
H2328 C2334 0.930 . S
H2329 C2338 0.930 . S
H2330 C2343 0.929 . S
H2331 C2341 0.929 . S
H2332 C2336 0.929 . S
H2333 C2342 0.929 . S
C2334 H2328 0.930 . S
C2334 C2335 1.367 . S
C2334 C2342 1.378 . S
C2335 C2334 1.367 . S
C2335 C2343 1.433 1_565 S
C2336 H2332 0.929 . S
C2336 C2338 1.378 . S
C2336 C2340 1.350 . S
C2337 C2340 1.463 . S
C2337 C2342 1.350 1_545 S
C2337 N2345 1.427 . S
C2338 H2329 0.930 . S
C2338 C2336 1.378 . S
C2338 C2339 1.367 . S
C2339 C2338 1.367 . S
C2339 C2341 1.433 1_545 S
C2340 C2336 1.350 . S
C2340 C2337 1.463 . S
C2340 N2344 1.427 1_545 S
C2341 H2331 0.929 . S
C2341 C2339 1.433 1_565 S
C2341 N2344 1.384 . S
C2342 H2333 0.929 . S
C2342 C2334 1.378 . S
C2342 C2337 1.350 1_565 S
C2343 H2330 0.929 . S
C2343 C2335 1.433 1_545 S
C2343 N2345 1.384 . S
N2344 C2340 1.427 1_565 S
N2344 C2341 1.384 . S
N2345 C2337 1.427 . S
N2345 C2343 1.384 . S
H2346 C2352 0.930 . S
H2347 C2356 0.930 . S
H2348 C2361 0.929 . S
H2349 C2359 0.929 . S
H2350 C2354 0.929 . S
H2351 C2360 0.929 . S
C2352 H2346 0.930 . S
C2352 C2353 1.367 . S
C2352 C2360 1.378 . S
C2353 C2352 1.367 . S
C2353 C2361 1.433 . S
C2354 H2350 0.929 . S
C2354 C2356 1.378 . S
C2354 C2358 1.350 . S
C2355 C2358 1.463 . S
C2355 C2360 1.350 . S
C2355 N2363 1.427 . S
C2356 H2347 0.930 . S
C2356 C2354 1.378 . S
C2356 C2357 1.367 . S
C2357 C2356 1.367 . S
C2357 C2359 1.433 . S
C2358 C2354 1.350 . S
C2358 C2355 1.463 . S
C2358 N2362 1.427 . S
C2359 H2349 0.929 . S
C2359 C2357 1.433 . S
C2359 N2362 1.384 . S
C2360 H2351 0.929 . S
C2360 C2352 1.378 . S
C2360 C2355 1.350 . S
C2361 H2348 0.929 . S
C2361 C2353 1.433 . S
C2361 N2363 1.384 . S
N2362 C2358 1.427 . S
N2362 C2359 1.384 . S
N2363 C2355 1.427 . S
N2363 C2361 1.384 . S
H2364 C2370 0.930 . S
H2365 C2374 0.930 . S
H2366 C2379 0.929 . S
H2367 C2377 0.929 . S
H2368 C2372 0.929 . S
H2369 C2378 0.929 . S
C2370 H2364 0.930 . S
C2370 C2371 1.367 1_565 S
C2370 C2378 1.378 . S
C2371 C2370 1.367 1_545 S
C2371 C2379 1.433 . S
C2372 H2368 0.929 . S
C2372 C2374 1.378 . S
C2372 C2376 1.350 . S
C2373 C2376 1.463 . S
C2373 C2378 1.350 1_545 S
C2373 N2381 1.427 . S
C2374 H2365 0.930 . S
C2374 C2372 1.378 . S
C2374 C2375 1.367 . S
C2375 C2374 1.367 . S
C2375 C2377 1.433 1_545 S
C2376 C2372 1.350 . S
C2376 C2373 1.463 . S
C2376 N2380 1.427 1_545 S
C2377 H2367 0.929 . S
C2377 C2375 1.433 1_565 S
C2377 N2380 1.384 . S
C2378 H2369 0.929 . S
C2378 C2370 1.378 . S
C2378 C2373 1.350 1_565 S
C2379 H2366 0.929 . S
C2379 C2371 1.433 . S
C2379 N2381 1.384 . S
N2380 C2376 1.427 1_565 S
N2380 C2377 1.384 . S
N2381 C2373 1.427 . S
N2381 C2379 1.384 . S
H2382 C2388 0.930 . S
H2383 C2392 0.930 . S
H2384 C2397 0.929 . S
H2385 C2395 0.929 . S
H2386 C2390 0.929 . S
H2387 C2396 0.929 . S
C2388 H2382 0.930 . S
C2388 C2389 1.367 . S
C2388 C2396 1.378 . S
C2389 C2388 1.367 . S
C2389 C2397 1.433 . S
C2390 H2386 0.929 . S
C2390 C2392 1.378 . S
C2390 C2394 1.350 . S
C2391 C2394 1.463 . S
C2391 C2396 1.350 . S
C2391 N2399 1.427 . S
C2392 H2383 0.930 . S
C2392 C2390 1.378 . S
C2392 C2393 1.367 . S
C2393 C2392 1.367 . S
C2393 C2395 1.433 . S
C2394 C2390 1.350 . S
C2394 C2391 1.463 . S
C2394 N2398 1.427 . S
C2395 H2385 0.929 . S
C2395 C2393 1.433 . S
C2395 N2398 1.384 . S
C2396 H2387 0.929 . S
C2396 C2388 1.378 . S
C2396 C2391 1.350 . S
C2397 H2384 0.929 . S
C2397 C2389 1.433 . S
C2397 N2399 1.384 . S
N2398 C2394 1.427 . S
N2398 C2395 1.384 . S
N2399 C2391 1.427 . S
N2399 C2397 1.384 . S
H2400 C2406 0.930 1_556 S
H2401 C2410 0.930 . S
H2402 C2415 0.929 . S
H2403 C2413 0.929 . S
H2404 C2408 0.929 . S
H2405 C2414 0.929 1_556 S
C2406 H2400 0.930 1_554 S
C2406 C2407 1.367 . S
C2406 C2414 1.378 . S
C2407 C2406 1.367 . S
C2407 C2415 1.433 . S
C2408 H2404 0.929 . S
C2408 C2410 1.378 . S
C2408 C2412 1.350 . S
C2409 C2412 1.463 . S
C2409 C2414 1.350 . S
C2409 N2417 1.427 . S
C2410 H2401 0.930 . S
C2410 C2408 1.378 . S
C2410 C2411 1.367 . S
C2411 C2410 1.367 . S
C2411 C2413 1.433 1_554 S
C2412 C2408 1.350 . S
C2412 C2409 1.463 . S
C2412 N2416 1.427 1_554 S
C2413 H2403 0.929 . S
C2413 C2411 1.433 1_556 S
C2413 N2416 1.384 . S
C2414 H2405 0.929 1_554 S
C2414 C2406 1.378 . S
C2414 C2409 1.350 . S
C2415 H2402 0.929 . S
C2415 C2407 1.433 . S
C2415 N2417 1.384 . S
N2416 C2412 1.427 1_556 S
N2416 C2413 1.384 . S
N2417 C2409 1.427 . S
N2417 C2415 1.384 . S
H2418 C2424 0.930 . S
H2419 C2428 0.930 . S
H2420 C2433 0.929 . S
H2421 C2431 0.929 . S
H2422 C2426 0.929 . S
H2423 C2432 0.929 . S
C2424 H2418 0.930 . S
C2424 C2425 1.367 . S
C2424 C2432 1.378 . S
C2425 C2424 1.367 . S
C2425 C2433 1.433 . S
C2426 H2422 0.929 . S
C2426 C2428 1.378 . S
C2426 C2430 1.350 . S
C2427 C2430 1.463 . S
C2427 C2432 1.350 . S
C2427 N2435 1.427 . S
C2428 H2419 0.930 . S
C2428 C2426 1.378 . S
C2428 C2429 1.367 . S
C2429 C2428 1.367 . S
C2429 C2431 1.433 . S
C2430 C2426 1.350 . S
C2430 C2427 1.463 . S
C2430 N2434 1.427 . S
C2431 H2421 0.929 . S
C2431 C2429 1.433 . S
C2431 N2434 1.384 . S
C2432 H2423 0.929 . S
C2432 C2424 1.378 . S
C2432 C2427 1.350 . S
C2433 H2420 0.929 . S
C2433 C2425 1.433 . S
C2433 N2435 1.384 . S
N2434 C2430 1.427 . S
N2434 C2431 1.384 . S
N2435 C2427 1.427 . S
N2435 C2433 1.384 . S
H2436 C2442 0.930 . S
H2437 C2446 0.930 . S
H2438 C2451 0.929 . S
H2439 C2449 0.929 . S
H2440 C2444 0.929 . S
H2441 C2450 0.929 . S
C2442 H2436 0.930 . S
C2442 C2443 1.367 . S
C2442 C2450 1.378 . S
C2443 C2442 1.367 . S
C2443 C2451 1.433 . S
C2444 H2440 0.929 . S
C2444 C2446 1.378 . S
C2444 C2448 1.350 . S
C2445 C2448 1.463 . S
C2445 C2450 1.350 . S
C2445 N2453 1.427 . S
C2446 H2437 0.930 . S
C2446 C2444 1.378 . S
C2446 C2447 1.367 . S
C2447 C2446 1.367 . S
C2447 C2449 1.433 . S
C2448 C2444 1.350 . S
C2448 C2445 1.463 . S
C2448 N2452 1.427 . S
C2449 H2439 0.929 . S
C2449 C2447 1.433 . S
C2449 N2452 1.384 . S
C2450 H2441 0.929 . S
C2450 C2442 1.378 . S
C2450 C2445 1.350 . S
C2451 H2438 0.929 . S
C2451 C2443 1.433 . S
C2451 N2453 1.384 . S
N2452 C2448 1.427 . S
N2452 C2449 1.384 . S
N2453 C2445 1.427 . S
N2453 C2451 1.384 . S
H2454 C2460 0.930 . S
H2455 C2464 0.930 . S
H2456 C2469 0.929 . S
H2457 C2467 0.929 . S
H2458 C2462 0.929 . S
H2459 C2468 0.929 . S
C2460 H2454 0.930 . S
C2460 C2461 1.367 . S
C2460 C2468 1.378 . S
C2461 C2460 1.367 . S
C2461 C2469 1.433 . S
C2462 H2458 0.929 . S
C2462 C2464 1.378 . S
C2462 C2466 1.350 . S
C2463 C2466 1.463 . S
C2463 C2468 1.350 . S
C2463 N2471 1.427 . S
C2464 H2455 0.930 . S
C2464 C2462 1.378 . S
C2464 C2465 1.367 . S
C2465 C2464 1.367 . S
C2465 C2467 1.433 . S
C2466 C2462 1.350 . S
C2466 C2463 1.463 . S
C2466 N2470 1.427 . S
C2467 H2457 0.929 . S
C2467 C2465 1.433 . S
C2467 N2470 1.384 . S
C2468 H2459 0.929 . S
C2468 C2460 1.378 . S
C2468 C2463 1.350 . S
C2469 H2456 0.929 . S
C2469 C2461 1.433 . S
C2469 N2471 1.384 . S
N2470 C2466 1.427 . S
N2470 C2467 1.384 . S
N2471 C2463 1.427 . S
N2471 C2469 1.384 . S
H2472 C2478 0.930 . S
H2473 C2482 0.930 . S
H2474 C2487 0.929 . S
H2475 C2485 0.929 . S
H2476 C2480 0.929 . S
H2477 C2486 0.929 . S
C2478 H2472 0.930 . S
C2478 C2479 1.367 . S
C2478 C2486 1.378 . S
C2479 C2478 1.367 . S
C2479 C2487 1.433 . S
C2480 H2476 0.929 . S
C2480 C2482 1.378 . S
C2480 C2484 1.350 . S
C2481 C2484 1.463 . S
C2481 C2486 1.350 . S
C2481 N2489 1.427 . S
C2482 H2473 0.930 . S
C2482 C2480 1.378 . S
C2482 C2483 1.367 . S
C2483 C2482 1.367 . S
C2483 C2485 1.433 . S
C2484 C2480 1.350 . S
C2484 C2481 1.463 . S
C2484 N2488 1.427 . S
C2485 H2475 0.929 . S
C2485 C2483 1.433 . S
C2485 N2488 1.384 . S
C2486 H2477 0.929 . S
C2486 C2478 1.378 . S
C2486 C2481 1.350 . S
C2487 H2474 0.929 . S
C2487 C2479 1.433 . S
C2487 N2489 1.384 . S
N2488 C2484 1.427 . S
N2488 C2485 1.384 . S
N2489 C2481 1.427 . S
N2489 C2487 1.384 . S
H2490 C2496 0.930 . S
H2491 C2500 0.930 . S
H2492 C2505 0.929 . S
H2493 C2503 0.929 . S
H2494 C2498 0.929 . S
H2495 C2504 0.929 . S
C2496 H2490 0.930 . S
C2496 C2497 1.367 . S
C2496 C2504 1.378 . S
C2497 C2496 1.367 . S
C2497 C2505 1.433 . S
C2498 H2494 0.929 . S
C2498 C2500 1.378 . S
C2498 C2502 1.350 . S
C2499 C2502 1.463 . S
C2499 C2504 1.350 . S
C2499 N2507 1.427 . S
C2500 H2491 0.930 . S
C2500 C2498 1.378 . S
C2500 C2501 1.367 . S
C2501 C2500 1.367 . S
C2501 C2503 1.433 . S
C2502 C2498 1.350 . S
C2502 C2499 1.463 . S
C2502 N2506 1.427 . S
C2503 H2493 0.929 . S
C2503 C2501 1.433 . S
C2503 N2506 1.384 . S
C2504 H2495 0.929 . S
C2504 C2496 1.378 . S
C2504 C2499 1.350 . S
C2505 H2492 0.929 . S
C2505 C2497 1.433 . S
C2505 N2507 1.384 . S
N2506 C2502 1.427 . S
N2506 C2503 1.384 . S
N2507 C2499 1.427 . S
N2507 C2505 1.384 . S
H2508 C2514 0.930 . S
H2509 C2518 0.930 . S
H2510 C2523 0.929 . S
H2511 C2521 0.929 . S
H2512 C2516 0.929 . S
H2513 C2522 0.929 . S
C2514 H2508 0.930 . S
C2514 C2515 1.367 . S
C2514 C2522 1.378 . S
C2515 C2514 1.367 . S
C2515 C2523 1.433 . S
C2516 H2512 0.929 . S
C2516 C2518 1.378 . S
C2516 C2520 1.350 . S
C2517 C2520 1.463 . S
C2517 C2522 1.350 . S
C2517 N2525 1.427 . S
C2518 H2509 0.930 . S
C2518 C2516 1.378 . S
C2518 C2519 1.367 . S
C2519 C2518 1.367 . S
C2519 C2521 1.433 . S
C2520 C2516 1.350 . S
C2520 C2517 1.463 . S
C2520 N2524 1.427 . S
C2521 H2511 0.929 . S
C2521 C2519 1.433 . S
C2521 N2524 1.384 . S
C2522 H2513 0.929 . S
C2522 C2514 1.378 . S
C2522 C2517 1.350 . S
C2523 H2510 0.929 . S
C2523 C2515 1.433 . S
C2523 N2525 1.384 . S
N2524 C2520 1.427 . S
N2524 C2521 1.384 . S
N2525 C2517 1.427 . S
N2525 C2523 1.384 . S
H2526 C2532 0.930 . S
H2527 C2536 0.930 . S
H2528 C2541 0.929 . S
H2529 C2539 0.929 . S
H2530 C2534 0.929 . S
H2531 C2540 0.929 . S
C2532 H2526 0.930 . S
C2532 C2533 1.367 . S
C2532 C2540 1.378 . S
C2533 C2532 1.367 . S
C2533 C2541 1.433 . S
C2534 H2530 0.929 . S
C2534 C2536 1.378 . S
C2534 C2538 1.350 . S
C2535 C2538 1.463 . S
C2535 C2540 1.350 . S
C2535 N2543 1.427 . S
C2536 H2527 0.930 . S
C2536 C2534 1.378 . S
C2536 C2537 1.367 . S
C2537 C2536 1.367 . S
C2537 C2539 1.433 . S
C2538 C2534 1.350 . S
C2538 C2535 1.463 . S
C2538 N2542 1.427 . S
C2539 H2529 0.929 . S
C2539 C2537 1.433 . S
C2539 N2542 1.384 . S
C2540 H2531 0.929 . S
C2540 C2532 1.378 . S
C2540 C2535 1.350 . S
C2541 H2528 0.929 . S
C2541 C2533 1.433 . S
C2541 N2543 1.384 . S
N2542 C2538 1.427 . S
N2542 C2539 1.384 . S
N2543 C2535 1.427 . S
N2543 C2541 1.384 . S
H2544 C2550 0.930 . S
H2545 C2554 0.930 . S
H2546 C2559 0.929 . S
H2547 C2557 0.929 . S
H2548 C2552 0.929 . S
H2549 C2558 0.929 . S
C2550 H2544 0.930 . S
C2550 C2551 1.367 . S
C2550 C2558 1.378 . S
C2551 C2550 1.367 . S
C2551 C2559 1.433 . S
C2552 H2548 0.929 . S
C2552 C2554 1.378 . S
C2552 C2556 1.350 . S
C2553 C2556 1.463 . S
C2553 C2558 1.350 . S
C2553 N2561 1.427 . S
C2554 H2545 0.930 . S
C2554 C2552 1.378 . S
C2554 C2555 1.367 . S
C2555 C2554 1.367 . S
C2555 C2557 1.433 . S
C2556 C2552 1.350 . S
C2556 C2553 1.463 . S
C2556 N2560 1.427 . S
C2557 H2547 0.929 . S
C2557 C2555 1.433 . S
C2557 N2560 1.384 . S
C2558 H2549 0.929 . S
C2558 C2550 1.378 . S
C2558 C2553 1.350 . S
C2559 H2546 0.929 . S
C2559 C2551 1.433 . S
C2559 N2561 1.384 . S
N2560 C2556 1.427 . S
N2560 C2557 1.384 . S
N2561 C2553 1.427 . S
N2561 C2559 1.384 . S
H2562 C2568 0.930 . S
H2563 C2572 0.930 . S
H2564 C2577 0.929 . S
H2565 C2575 0.929 . S
H2566 C2570 0.929 . S
H2567 C2576 0.929 . S
C2568 H2562 0.930 . S
C2568 C2569 1.367 . S
C2568 C2576 1.378 . S
C2569 C2568 1.367 . S
C2569 C2577 1.433 . S
C2570 H2566 0.929 . S
C2570 C2572 1.378 . S
C2570 C2574 1.350 . S
C2571 C2574 1.463 . S
C2571 C2576 1.350 . S
C2571 N2579 1.427 . S
C2572 H2563 0.930 . S
C2572 C2570 1.378 . S
C2572 C2573 1.367 . S
C2573 C2572 1.367 . S
C2573 C2575 1.433 . S
C2574 C2570 1.350 . S
C2574 C2571 1.463 . S
C2574 N2578 1.427 . S
C2575 H2565 0.929 . S
C2575 C2573 1.433 . S
C2575 N2578 1.384 . S
C2576 H2567 0.929 . S
C2576 C2568 1.378 . S
C2576 C2571 1.350 . S
C2577 H2564 0.929 . S
C2577 C2569 1.433 . S
C2577 N2579 1.384 . S
N2578 C2574 1.427 . S
N2578 C2575 1.384 . S
N2579 C2571 1.427 . S
N2579 C2577 1.384 . S
H2580 C2586 0.930 1_554 S
H2581 C2590 0.930 . S
H2582 C2595 0.929 . S
H2583 C2593 0.929 . S
H2584 C2588 0.929 . S
H2585 C2594 0.929 . S
C2586 H2580 0.930 1_556 S
C2586 C2587 1.367 . S
C2586 C2594 1.378 1_556 S
C2587 C2586 1.367 . S
C2587 C2595 1.433 . S
C2588 H2584 0.929 . S
C2588 C2590 1.378 . S
C2588 C2592 1.350 . S
C2589 C2592 1.463 . S
C2589 C2594 1.350 1_556 S
C2589 N2597 1.427 . S
C2590 H2581 0.930 . S
C2590 C2588 1.378 . S
C2590 C2591 1.367 1_556 S
C2591 C2590 1.367 1_554 S
C2591 C2593 1.433 . S
C2592 C2588 1.350 . S
C2592 C2589 1.463 . S
C2592 N2596 1.427 1_556 S
C2593 H2583 0.929 . S
C2593 C2591 1.433 . S
C2593 N2596 1.384 . S
C2594 H2585 0.929 . S
C2594 C2586 1.378 1_554 S
C2594 C2589 1.350 1_554 S
C2595 H2582 0.929 . S
C2595 C2587 1.433 . S
C2595 N2597 1.384 . S
N2596 C2592 1.427 1_554 S
N2596 C2593 1.384 . S
N2597 C2589 1.427 . S
N2597 C2595 1.384 . S
H2598 C2604 0.930 . S
H2599 C2608 0.930 . S
H2600 C2613 0.929 . S
H2601 C2611 0.929 . S
H2602 C2606 0.929 . S
H2603 C2612 0.929 . S
C2604 H2598 0.930 . S
C2604 C2605 1.367 . S
C2604 C2612 1.378 . S
C2605 C2604 1.367 . S
C2605 C2613 1.433 . S
C2606 H2602 0.929 . S
C2606 C2608 1.378 . S
C2606 C2610 1.350 . S
C2607 C2610 1.463 . S
C2607 C2612 1.350 1_655 S
C2607 N2615 1.427 . S
C2608 H2599 0.930 . S
C2608 C2606 1.378 . S
C2608 C2609 1.367 . S
C2609 C2608 1.367 . S
C2609 C2611 1.433 . S
C2610 C2606 1.350 . S
C2610 C2607 1.463 . S
C2610 N2614 1.427 . S
C2611 H2601 0.929 . S
C2611 C2609 1.433 . S
C2611 N2614 1.384 . S
C2612 H2603 0.929 . S
C2612 C2604 1.378 . S
C2612 C2607 1.350 1_455 S
C2613 H2600 0.929 . S
C2613 C2605 1.433 . S
C2613 N2615 1.384 1_455 S
N2614 C2610 1.427 . S
N2614 C2611 1.384 . S
N2615 C2607 1.427 . S
N2615 C2613 1.384 1_655 S
H2616 C2622 0.930 . S
H2617 C2626 0.930 . S
H2618 C2631 0.929 . S
H2619 C2629 0.929 . S
H2620 C2624 0.929 . S
H2621 C2630 0.929 . S
C2622 H2616 0.930 . S
C2622 C2623 1.367 . S
C2622 C2630 1.378 . S
C2623 C2622 1.367 . S
C2623 C2631 1.433 . S
C2624 H2620 0.929 . S
C2624 C2626 1.378 . S
C2624 C2628 1.350 . S
C2625 C2628 1.463 . S
C2625 C2630 1.350 . S
C2625 N2633 1.427 . S
C2626 H2617 0.930 . S
C2626 C2624 1.378 . S
C2626 C2627 1.367 . S
C2627 C2626 1.367 . S
C2627 C2629 1.433 . S
C2628 C2624 1.350 . S
C2628 C2625 1.463 . S
C2628 N2632 1.427 . S
C2629 H2619 0.929 . S
C2629 C2627 1.433 . S
C2629 N2632 1.384 . S
C2630 H2621 0.929 . S
C2630 C2622 1.378 . S
C2630 C2625 1.350 . S
C2631 H2618 0.929 . S
C2631 C2623 1.433 . S
C2631 N2633 1.384 . S
N2632 C2628 1.427 . S
N2632 C2629 1.384 . S
N2633 C2625 1.427 . S
N2633 C2631 1.384 . S
H2634 C2640 0.930 . S
H2635 C2644 0.930 . S
H2636 C2649 0.929 . S
H2637 C2647 0.929 . S
H2638 C2642 0.954 . S
H2639 C2648 0.929 . S
C2640 H2634 0.930 . S
C2640 C2641 1.367 . S
C2640 C2648 1.378 . S
C2641 C2640 1.367 . S
C2641 C2649 1.433 . S
C2642 H2638 0.954 . S
C2642 C2644 1.378 . S
C2642 C2646 1.350 . S
C2643 C2646 1.463 1_455 S
C2643 C2648 1.350 . S
C2643 N2651 1.427 . S
C2644 H2635 0.930 . S
C2644 C2642 1.378 . S
C2644 C2645 1.367 . S
C2645 C2644 1.367 . S
C2645 C2647 1.433 . S
C2646 C2642 1.350 . S
C2646 C2643 1.463 1_655 S
C2646 N2650 1.427 . S
C2647 H2637 0.929 . S
C2647 C2645 1.433 . S
C2647 N2650 1.384 . S
C2648 H2639 0.929 . S
C2648 C2640 1.378 . S
C2648 C2643 1.350 . S
C2649 H2636 0.929 . S
C2649 C2641 1.433 . S
C2649 N2651 1.384 . S
N2650 C2646 1.427 . S
N2650 C2647 1.384 . S
N2651 C2643 1.427 . S
N2651 C2649 1.384 . S
H2652 C2658 0.930 . S
H2653 C2662 0.930 . S
H2654 C2667 0.929 . S
H2655 C2665 0.929 . S
H2656 C2660 0.929 . S
H2657 C2666 0.929 . S
C2658 H2652 0.930 . S
C2658 C2659 1.367 . S
C2658 C2666 1.378 . S
C2659 C2658 1.367 . S
C2659 C2667 1.433 1_655 S
C2660 H2656 0.929 . S
C2660 C2662 1.378 . S
C2660 C2664 1.350 . S
C2661 C2664 1.463 . S
C2661 C2666 1.350 1_455 S
C2661 N2669 1.427 . S
C2662 H2653 0.930 . S
C2662 C2660 1.378 . S
C2662 C2663 1.367 . S
C2663 C2662 1.367 . S
C2663 C2665 1.433 . S
C2664 C2660 1.350 . S
C2664 C2661 1.463 . S
C2664 N2668 1.427 . S
C2665 H2655 0.929 . S
C2665 C2663 1.433 . S
C2665 N2668 1.384 . S
C2666 H2657 0.929 . S
C2666 C2658 1.378 . S
C2666 C2661 1.350 1_655 S
C2667 H2654 0.929 . S
C2667 C2659 1.433 1_455 S
C2667 N2669 1.384 . S
N2668 C2664 1.427 . S
N2668 C2665 1.384 . S
N2669 C2661 1.427 . S
N2669 C2667 1.384 . S
H2670 C2676 0.930 . S
H2671 C2680 0.930 . S
H2672 C2685 0.929 . S
H2673 C2683 0.929 . S
H2674 C2678 0.929 . S
H2675 C2684 0.929 . S
C2676 H2670 0.930 . S
C2676 C2677 1.367 . S
C2676 C2684 1.378 . S
C2677 C2676 1.367 . S
C2677 C2685 1.433 . S
C2678 H2674 0.929 . S
C2678 C2680 1.378 . S
C2678 C2682 1.350 . S
C2679 C2682 1.463 . S
C2679 C2684 1.350 . S
C2679 N2687 1.427 . S
C2680 H2671 0.930 . S
C2680 C2678 1.378 . S
C2680 C2681 1.367 . S
C2681 C2680 1.367 . S
C2681 C2683 1.433 . S
C2682 C2678 1.350 . S
C2682 C2679 1.463 . S
C2682 N2686 1.427 . S
C2683 H2673 0.929 . S
C2683 C2681 1.433 . S
C2683 N2686 1.384 . S
C2684 H2675 0.929 . S
C2684 C2676 1.378 . S
C2684 C2679 1.350 . S
C2685 H2672 0.929 . S
C2685 C2677 1.433 . S
C2685 N2687 1.384 . S
N2686 C2682 1.427 . S
N2686 C2683 1.384 . S
N2687 C2679 1.427 . S
N2687 C2685 1.384 . S
H2688 C2694 0.930 . S
H2689 C2698 0.930 . S
H2690 C2703 0.929 . S
H2691 C2701 0.929 . S
H2692 C2696 0.929 . S
H2693 C2702 0.929 . S
C2694 H2688 0.930 . S
C2694 C2695 1.367 . S
C2694 C2702 1.378 . S
C2695 C2694 1.367 . S
C2695 C2703 1.433 . S
C2696 H2692 0.929 . S
C2696 C2698 1.378 . S
C2696 C2700 1.350 . S
C2697 C2700 1.463 . S
C2697 C2702 1.350 . S
C2697 N2705 1.427 . S
C2698 H2689 0.930 . S
C2698 C2696 1.378 . S
C2698 C2699 1.367 . S
C2699 C2698 1.367 . S
C2699 C2701 1.433 . S
C2700 C2696 1.350 . S
C2700 C2697 1.463 . S
C2700 N2704 1.427 . S
C2701 H2691 0.929 . S
C2701 C2699 1.433 . S
C2701 N2704 1.384 . S
C2702 H2693 0.929 . S
C2702 C2694 1.378 . S
C2702 C2697 1.350 . S
C2703 H2690 0.929 . S
C2703 C2695 1.433 . S
C2703 N2705 1.384 . S
N2704 C2700 1.427 . S
N2704 C2701 1.384 . S
N2705 C2697 1.427 . S
N2705 C2703 1.384 . S
H2706 C2712 0.930 . S
H2707 C2716 0.930 . S
H2708 C2721 0.929 1_554 S
H2709 C2719 0.929 . S
H2710 C2714 0.929 . S
H2711 C2720 0.929 . S
C2712 H2706 0.930 . S
C2712 C2713 1.367 . S
C2712 C2720 1.378 . S
C2713 C2712 1.367 . S
C2713 C2721 1.433 . S
C2714 H2710 0.929 . S
C2714 C2716 1.378 . S
C2714 C2718 1.350 . S
C2715 C2718 1.463 . S
C2715 C2720 1.350 . S
C2715 N2723 1.427 . S
C2716 H2707 0.930 . S
C2716 C2714 1.378 . S
C2716 C2717 1.367 . S
C2717 C2716 1.367 . S
C2717 C2719 1.433 . S
C2718 C2714 1.350 . S
C2718 C2715 1.463 . S
C2718 N2722 1.427 . S
C2719 H2709 0.929 . S
C2719 C2717 1.433 . S
C2719 N2722 1.384 . S
C2720 H2711 0.929 . S
C2720 C2712 1.378 . S
C2720 C2715 1.350 . S
C2721 H2708 0.929 1_556 S
C2721 C2713 1.433 . S
C2721 N2723 1.384 . S
N2722 C2718 1.427 . S
N2722 C2719 1.384 . S
N2723 C2715 1.427 . S
N2723 C2721 1.384 . S
H2724 C2730 0.930 . S
H2725 C2734 0.930 . S
H2726 C2739 0.929 . S
H2727 C2737 0.929 . S
H2728 C2732 0.929 . S
H2729 C2738 0.929 . S
C2730 H2724 0.930 . S
C2730 C2731 1.367 . S
C2730 C2738 1.378 . S
C2731 C2730 1.367 . S
C2731 C2739 1.433 . S
C2732 H2728 0.929 . S
C2732 C2734 1.378 . S
C2732 C2736 1.350 . S
C2733 C2736 1.463 . S
C2733 C2738 1.350 . S
C2733 N2741 1.427 . S
C2734 H2725 0.930 . S
C2734 C2732 1.378 . S
C2734 C2735 1.367 . S
C2735 C2734 1.367 . S
C2735 C2737 1.433 . S
C2736 C2732 1.350 . S
C2736 C2733 1.463 . S
C2736 N2740 1.427 . S
C2737 H2727 0.929 . S
C2737 C2735 1.433 . S
C2737 N2740 1.384 . S
C2738 H2729 0.929 . S
C2738 C2730 1.378 . S
C2738 C2733 1.350 . S
C2739 H2726 0.929 . S
C2739 C2731 1.433 . S
C2739 N2741 1.384 . S
N2740 C2736 1.427 . S
N2740 C2737 1.384 . S
N2741 C2733 1.427 . S
N2741 C2739 1.384 . S
H2742 C2748 0.930 . S
H2743 C2752 0.930 . S
H2744 C2757 0.929 . S
H2745 C2755 0.929 . S
H2746 C2750 0.929 . S
H2747 C2756 0.929 . S
C2748 H2742 0.930 . S
C2748 C2749 1.367 . S
C2748 C2756 1.378 . S
C2749 C2748 1.367 . S
C2749 C2757 1.433 . S
C2750 H2746 0.929 . S
C2750 C2752 1.378 . S
C2750 C2754 1.350 . S
C2751 C2754 1.463 . S
C2751 C2756 1.350 . S
C2751 N2759 1.427 . S
C2752 H2743 0.930 . S
C2752 C2750 1.378 . S
C2752 C2753 1.367 . S
C2753 C2752 1.367 . S
C2753 C2755 1.433 . S
C2754 C2750 1.350 . S
C2754 C2751 1.463 . S
C2754 N2758 1.427 . S
C2755 H2745 0.929 . S
C2755 C2753 1.433 . S
C2755 N2758 1.384 . S
C2756 H2747 0.929 . S
C2756 C2748 1.378 . S
C2756 C2751 1.350 . S
C2757 H2744 0.929 . S
C2757 C2749 1.433 . S
C2757 N2759 1.384 . S
N2758 C2754 1.427 . S
N2758 C2755 1.384 . S
N2759 C2751 1.427 . S
N2759 C2757 1.384 . S
H2760 C2766 0.930 . S
H2761 C2770 0.930 . S
H2762 C2775 0.929 . S
H2763 C2773 0.929 . S
H2764 C2768 0.929 . S
H2765 C2774 0.929 . S
C2766 H2760 0.930 . S
C2766 C2767 1.367 . S
C2766 C2774 1.378 . S
C2767 C2766 1.367 . S
C2767 C2775 1.433 . S
C2768 H2764 0.929 . S
C2768 C2770 1.378 . S
C2768 C2772 1.350 . S
C2769 C2772 1.463 . S
C2769 C2774 1.350 . S
C2769 N2777 1.427 . S
C2770 H2761 0.930 . S
C2770 C2768 1.378 . S
C2770 C2771 1.367 . S
C2771 C2770 1.367 . S
C2771 C2773 1.433 . S
C2772 C2768 1.350 . S
C2772 C2769 1.463 . S
C2772 N2776 1.427 . S
C2773 H2763 0.929 . S
C2773 C2771 1.433 . S
C2773 N2776 1.384 . S
C2774 H2765 0.929 . S
C2774 C2766 1.378 . S
C2774 C2769 1.350 . S
C2775 H2762 0.929 . S
C2775 C2767 1.433 . S
C2775 N2777 1.384 . S
N2776 C2772 1.427 . S
N2776 C2773 1.384 . S
N2777 C2769 1.427 . S
N2777 C2775 1.384 . S
H2778 C2784 0.930 . S
H2779 C2788 0.930 . S
H2780 C2793 0.929 . S
H2781 C2791 0.929 . S
H2782 C2786 0.929 . S
H2783 C2792 0.929 . S
C2784 H2778 0.930 . S
C2784 C2785 1.367 . S
C2784 C2792 1.378 . S
C2785 C2784 1.367 . S
C2785 C2793 1.433 . S
C2786 H2782 0.929 . S
C2786 C2788 1.378 . S
C2786 C2790 1.350 . S
C2787 C2790 1.463 . S
C2787 C2792 1.350 . S
C2787 N2795 1.427 . S
C2788 H2779 0.930 . S
C2788 C2786 1.378 . S
C2788 C2789 1.367 . S
C2789 C2788 1.367 . S
C2789 C2791 1.433 . S
C2790 C2786 1.350 . S
C2790 C2787 1.463 . S
C2790 N2794 1.427 . S
C2791 H2781 0.929 . S
C2791 C2789 1.433 . S
C2791 N2794 1.384 . S
C2792 H2783 0.929 . S
C2792 C2784 1.378 . S
C2792 C2787 1.350 . S
C2793 H2780 0.929 . S
C2793 C2785 1.433 . S
C2793 N2795 1.384 . S
N2794 C2790 1.427 . S
N2794 C2791 1.384 . S
N2795 C2787 1.427 . S
N2795 C2793 1.384 . S
H2796 C2802 0.930 . S
H2797 C2806 0.930 . S
H2798 C2811 0.929 . S
H2799 C2809 0.929 . S
H2800 C2804 0.929 . S
H2801 C2810 0.929 . S
C2802 H2796 0.930 . S
C2802 C2803 1.367 . S
C2802 C2810 1.378 . S
C2803 C2802 1.367 . S
C2803 C2811 1.433 . S
C2804 H2800 0.929 . S
C2804 C2806 1.378 . S
C2804 C2808 1.350 . S
C2805 C2808 1.463 . S
C2805 C2810 1.350 . S
C2805 N2813 1.427 . S
C2806 H2797 0.930 . S
C2806 C2804 1.378 . S
C2806 C2807 1.367 . S
C2807 C2806 1.367 . S
C2807 C2809 1.433 . S
C2808 C2804 1.350 . S
C2808 C2805 1.463 . S
C2808 N2812 1.427 . S
C2809 H2799 0.929 . S
C2809 C2807 1.433 . S
C2809 N2812 1.384 . S
C2810 H2801 0.929 . S
C2810 C2802 1.378 . S
C2810 C2805 1.350 . S
C2811 H2798 0.929 . S
C2811 C2803 1.433 . S
C2811 N2813 1.384 . S
N2812 C2808 1.427 . S
N2812 C2809 1.384 . S
N2813 C2805 1.427 . S
N2813 C2811 1.384 . S
H2814 C2820 0.930 . S
H2815 C2824 0.930 . S
H2816 C2829 0.929 . S
H2817 C2827 0.929 . S
H2818 C2822 0.929 . S
H2819 C2828 0.929 . S
C2820 H2814 0.930 . S
C2820 C2821 1.367 . S
C2820 C2828 1.378 . S
C2821 C2820 1.367 . S
C2821 C2829 1.433 . S
C2822 H2818 0.929 . S
C2822 C2824 1.378 . S
C2822 C2826 1.350 . S
C2823 C2826 1.463 . S
C2823 C2828 1.350 . S
C2823 N2831 1.427 . S
C2824 H2815 0.930 . S
C2824 C2822 1.378 . S
C2824 C2825 1.367 . S
C2825 C2824 1.367 . S
C2825 C2827 1.433 . S
C2826 C2822 1.350 . S
C2826 C2823 1.463 . S
C2826 N2830 1.427 . S
C2827 H2817 0.929 . S
C2827 C2825 1.433 . S
C2827 N2830 1.384 . S
C2828 H2819 0.929 . S
C2828 C2820 1.378 . S
C2828 C2823 1.350 . S
C2829 H2816 0.929 . S
C2829 C2821 1.433 . S
C2829 N2831 1.384 . S
N2830 C2826 1.427 . S
N2830 C2827 1.384 . S
N2831 C2823 1.427 . S
N2831 C2829 1.384 . S
H2832 C2838 0.930 . S
H2833 C2842 0.930 . S
H2834 C2847 0.929 . S
H2835 C2845 0.929 . S
H2836 C2840 0.929 . S
H2837 C2846 0.929 . S
C2838 H2832 0.930 . S
C2838 C2839 1.367 . S
C2838 C2846 1.378 . S
C2839 C2838 1.367 . S
C2839 C2847 1.433 . S
C2840 H2836 0.929 . S
C2840 C2842 1.378 . S
C2840 C2844 1.350 . S
C2841 C2844 1.463 . S
C2841 C2846 1.350 . S
C2841 N2849 1.427 . S
C2842 H2833 0.930 . S
C2842 C2840 1.378 . S
C2842 C2843 1.367 . S
C2843 C2842 1.367 . S
C2843 C2845 1.433 . S
C2844 C2840 1.350 . S
C2844 C2841 1.463 . S
C2844 N2848 1.427 . S
C2845 H2835 0.929 . S
C2845 C2843 1.433 . S
C2845 N2848 1.384 . S
C2846 H2837 0.929 . S
C2846 C2838 1.378 . S
C2846 C2841 1.350 . S
C2847 H2834 0.929 . S
C2847 C2839 1.433 . S
C2847 N2849 1.384 . S
N2848 C2844 1.427 . S
N2848 C2845 1.384 . S
N2849 C2841 1.427 . S
N2849 C2847 1.384 . S
H2850 C2856 0.930 . S
H2851 C2860 0.930 . S
H2852 C2865 0.929 . S
H2853 C2863 0.929 . S
H2854 C2858 0.929 . S
H2855 C2864 0.929 . S
C2856 H2850 0.930 . S
C2856 C2857 1.367 . S
C2856 C2864 1.378 . S
C2857 C2856 1.367 . S
C2857 C2865 1.433 . S
C2858 H2854 0.929 . S
C2858 C2860 1.378 . S
C2858 C2862 1.350 . S
C2859 C2862 1.463 . S
C2859 C2864 1.350 . S
C2859 N2867 1.427 . S
C2860 H2851 0.930 . S
C2860 C2858 1.378 . S
C2860 C2861 1.367 . S
C2861 C2860 1.367 . S
C2861 C2863 1.433 . S
C2862 C2858 1.350 . S
C2862 C2859 1.463 . S
C2862 N2866 1.427 . S
C2863 H2853 0.929 . S
C2863 C2861 1.433 . S
C2863 N2866 1.384 . S
C2864 H2855 0.929 . S
C2864 C2856 1.378 . S
C2864 C2859 1.350 . S
C2865 H2852 0.929 . S
C2865 C2857 1.433 . S
C2865 N2867 1.384 . S
N2866 C2862 1.427 . S
N2866 C2863 1.384 . S
N2867 C2859 1.427 . S
N2867 C2865 1.384 . S
H2868 C2874 0.930 . S
H2869 C2878 0.930 . S
H2870 C2883 0.929 . S
H2871 C2881 0.929 . S
H2872 C2876 0.929 . S
H2873 C2882 0.929 . S
C2874 H2868 0.930 . S
C2874 C2875 1.367 . S
C2874 C2882 1.378 . S
C2875 C2874 1.367 . S
C2875 C2883 1.433 . S
C2876 H2872 0.929 . S
C2876 C2878 1.378 . S
C2876 C2880 1.350 . S
C2877 C2880 1.463 . S
C2877 C2882 1.350 . S
C2877 N2885 1.427 . S
C2878 H2869 0.930 . S
C2878 C2876 1.378 . S
C2878 C2879 1.367 . S
C2879 C2878 1.367 . S
C2879 C2881 1.433 . S
C2880 C2876 1.350 . S
C2880 C2877 1.463 . S
C2880 N2884 1.427 . S
C2881 H2871 0.929 . S
C2881 C2879 1.433 . S
C2881 N2884 1.384 . S
C2882 H2873 0.929 . S
C2882 C2874 1.378 . S
C2882 C2877 1.350 . S
C2883 H2870 0.929 . S
C2883 C2875 1.433 . S
C2883 N2885 1.384 . S
N2884 C2880 1.427 . S
N2884 C2881 1.384 . S
N2885 C2877 1.427 . S
N2885 C2883 1.384 . S
H2886 C2892 0.930 . S
H2887 C2896 0.930 . S
H2888 C2901 0.929 . S
H2889 C2899 0.929 . S
H2890 C2894 0.929 . S
H2891 C2900 0.929 . S
C2892 H2886 0.930 . S
C2892 C2893 1.367 1_556 S
C2892 C2900 1.378 . S
C2893 C2892 1.367 1_554 S
C2893 C2901 1.433 . S
C2894 H2890 0.929 . S
C2894 C2896 1.378 1_565 S
C2894 C2898 1.350 . S
C2895 C2898 1.463 . S
C2895 C2900 1.350 1_554 S
C2895 N2903 1.427 . S
C2896 H2887 0.930 . S
C2896 C2894 1.378 1_545 S
C2896 C2897 1.367 . S
C2897 C2896 1.367 . S
C2897 C2899 1.433 1_554 S
C2898 C2894 1.350 . S
C2898 C2895 1.463 . S
C2898 N2902 1.427 1_564 S
C2899 H2889 0.929 . S
C2899 C2897 1.433 1_556 S
C2899 N2902 1.384 . S
C2900 H2891 0.929 . S
C2900 C2892 1.378 . S
C2900 C2895 1.350 1_556 S
C2901 H2888 0.929 . S
C2901 C2893 1.433 . S
C2901 N2903 1.384 . S
N2902 C2898 1.427 1_546 S
N2902 C2899 1.384 . S
N2903 C2895 1.427 . S
N2903 C2901 1.384 . S
H2904 C2910 0.930 . S
H2905 C2914 0.930 . S
H2906 C2919 0.929 . S
H2907 C2917 0.929 . S
H2908 C2912 0.929 . S
H2909 C2918 0.929 . S
C2910 H2904 0.930 . S
C2910 C2911 1.367 . S
C2910 C2918 1.378 . S
C2911 C2910 1.367 . S
C2911 C2919 1.433 . S
C2912 H2908 0.929 . S
C2912 C2914 1.378 . S
C2912 C2916 1.350 . S
C2913 C2916 1.463 . S
C2913 C2918 1.350 . S
C2913 N2921 1.427 . S
C2914 H2905 0.930 . S
C2914 C2912 1.378 . S
C2914 C2915 1.367 . S
C2915 C2914 1.367 . S
C2915 C2917 1.433 . S
C2916 C2912 1.350 . S
C2916 C2913 1.463 . S
C2916 N2920 1.427 . S
C2917 H2907 0.929 . S
C2917 C2915 1.433 . S
C2917 N2920 1.384 . S
C2918 H2909 0.929 . S
C2918 C2910 1.378 . S
C2918 C2913 1.350 . S
C2919 H2906 0.929 . S
C2919 C2911 1.433 . S
C2919 N2921 1.384 . S
N2920 C2916 1.427 . S
N2920 C2917 1.384 . S
N2921 C2913 1.427 . S
N2921 C2919 1.384 . S
H2922 C2928 0.930 . S
H2923 C2932 0.930 . S
H2924 C2937 0.929 . S
H2925 C2935 0.929 . S
H2926 C2930 0.929 1_556 S
H2927 C2936 0.929 . S
C2928 H2922 0.930 . S
C2928 C2929 1.367 . S
C2928 C2936 1.378 . S
C2929 C2928 1.367 . S
C2929 C2937 1.433 1_554 S
C2930 H2926 0.929 1_554 S
C2930 C2932 1.378 . S
C2930 C2934 1.350 . S
C2931 C2934 1.463 . S
C2931 C2936 1.350 . S
C2931 N2939 1.427 1_554 S
C2932 H2923 0.930 . S
C2932 C2930 1.378 . S
C2932 C2933 1.367 . S
C2933 C2932 1.367 . S
C2933 C2935 1.433 . S
C2934 C2930 1.350 . S
C2934 C2931 1.463 . S
C2934 N2938 1.427 . S
C2935 H2925 0.929 . S
C2935 C2933 1.433 . S
C2935 N2938 1.384 . S
C2936 H2927 0.929 . S
C2936 C2928 1.378 . S
C2936 C2931 1.350 . S
C2937 H2924 0.929 . S
C2937 C2929 1.433 1_556 S
C2937 N2939 1.384 . S
N2938 C2934 1.427 . S
N2938 C2935 1.384 . S
N2939 C2931 1.427 1_556 S
N2939 C2937 1.384 . S
H2940 C2946 0.930 . S
H2941 C2950 0.930 . S
H2942 C2955 0.929 . S
H2943 C2953 0.929 . S
H2944 C2948 0.929 . S
H2945 C2954 0.929 . S
C2946 H2940 0.930 . S
C2946 C2947 1.367 . S
C2946 C2954 1.378 . S
C2947 C2946 1.367 . S
C2947 C2955 1.433 . S
C2948 H2944 0.929 . S
C2948 C2950 1.378 . S
C2948 C2952 1.350 . S
C2949 C2952 1.463 . S
C2949 C2954 1.350 . S
C2949 N2957 1.427 . S
C2950 H2941 0.930 . S
C2950 C2948 1.378 . S
C2950 C2951 1.367 . S
C2951 C2950 1.367 . S
C2951 C2953 1.433 . S
C2952 C2948 1.350 . S
C2952 C2949 1.463 . S
C2952 N2956 1.427 . S
C2953 H2943 0.929 . S
C2953 C2951 1.433 . S
C2953 N2956 1.384 . S
C2954 H2945 0.929 . S
C2954 C2946 1.378 . S
C2954 C2949 1.350 . S
C2955 H2942 0.929 . S
C2955 C2947 1.433 . S
C2955 N2957 1.384 . S
N2956 C2952 1.427 . S
N2956 C2953 1.384 . S
N2957 C2949 1.427 . S
N2957 C2955 1.384 . S
H2958 C2964 0.930 . S
H2959 C2968 0.930 . S
H2960 C2973 0.929 . S
H2961 C2971 0.929 . S
H2962 C2966 0.929 . S
H2963 C2972 0.929 . S
C2964 H2958 0.930 . S
C2964 C2965 1.367 . S
C2964 C2972 1.378 . S
C2965 C2964 1.367 . S
C2965 C2973 1.433 . S
C2966 H2962 0.929 . S
C2966 C2968 1.378 . S
C2966 C2970 1.350 . S
C2967 C2970 1.463 . S
C2967 C2972 1.350 . S
C2967 N2975 1.427 . S
C2968 H2959 0.930 . S
C2968 C2966 1.378 . S
C2968 C2969 1.367 . S
C2969 C2968 1.367 . S
C2969 C2971 1.433 . S
C2970 C2966 1.350 . S
C2970 C2967 1.463 . S
C2970 N2974 1.427 . S
C2971 H2961 0.929 . S
C2971 C2969 1.433 . S
C2971 N2974 1.384 . S
C2972 H2963 0.929 . S
C2972 C2964 1.378 . S
C2972 C2967 1.350 . S
C2973 H2960 0.929 . S
C2973 C2965 1.433 . S
C2973 N2975 1.384 . S
N2974 C2970 1.427 . S
N2974 C2971 1.384 . S
N2975 C2967 1.427 . S
N2975 C2973 1.384 . S
H2976 C2982 0.930 . S
H2977 C2986 0.930 . S
H2978 C2991 0.929 . S
H2979 C2989 0.929 . S
H2980 C2984 0.929 . S
H2981 C2990 0.929 . S
C2982 H2976 0.930 . S
C2982 C2983 1.367 . S
C2982 C2990 1.378 . S
C2983 C2982 1.367 . S
C2983 C2991 1.433 . S
C2984 H2980 0.929 . S
C2984 C2986 1.378 . S
C2984 C2988 1.350 . S
C2985 C2988 1.463 . S
C2985 C2990 1.350 . S
C2985 N2993 1.427 . S
C2986 H2977 0.930 . S
C2986 C2984 1.378 . S
C2986 C2987 1.367 . S
C2987 C2986 1.367 . S
C2987 C2989 1.433 . S
C2988 C2984 1.350 . S
C2988 C2985 1.463 . S
C2988 N2992 1.427 . S
C2989 H2979 0.929 . S
C2989 C2987 1.433 . S
C2989 N2992 1.384 . S
C2990 H2981 0.929 . S
C2990 C2982 1.378 . S
C2990 C2985 1.350 . S
C2991 H2978 0.929 . S
C2991 C2983 1.433 . S
C2991 N2993 1.384 . S
N2992 C2988 1.427 . S
N2992 C2989 1.384 . S
N2993 C2985 1.427 . S
N2993 C2991 1.384 . S
H2994 C3000 0.930 . S
H2995 C3004 0.930 . S
H2996 C3009 0.929 . S
H2997 C3007 0.929 . S
H2998 C3002 0.929 . S
H2999 C3008 0.929 . S
C3000 H2994 0.930 . S
C3000 C3001 1.367 . S
C3000 C3008 1.378 . S
C3001 C3000 1.367 . S
C3001 C3009 1.433 . S
C3002 H2998 0.929 . S
C3002 C3004 1.378 . S
C3002 C3006 1.350 . S
C3003 C3006 1.463 . S
C3003 C3008 1.350 . S
C3003 N3011 1.427 . S
C3004 H2995 0.930 . S
C3004 C3002 1.378 . S
C3004 C3005 1.367 . S
C3005 C3004 1.367 . S
C3005 C3007 1.433 . S
C3006 C3002 1.350 . S
C3006 C3003 1.463 . S
C3006 N3010 1.427 . S
C3007 H2997 0.929 . S
C3007 C3005 1.433 . S
C3007 N3010 1.384 . S
C3008 H2999 0.929 . S
C3008 C3000 1.378 . S
C3008 C3003 1.350 . S
C3009 H2996 0.929 . S
C3009 C3001 1.433 . S
C3009 N3011 1.384 . S
N3010 C3006 1.427 . S
N3010 C3007 1.384 . S
N3011 C3003 1.427 . S
N3011 C3009 1.384 . S
H3012 C3018 0.930 . S
H3013 C3022 0.930 . S
H3014 C3027 0.929 . S
H3015 C3025 0.929 1_556 S
H3016 C3020 0.929 . S
H3017 C3026 0.929 . S
C3018 H3012 0.930 . S
C3018 C3019 1.367 . S
C3018 C3026 1.378 . S
C3019 C3018 1.367 . S
C3019 C3027 1.433 . S
C3020 H3016 0.929 . S
C3020 C3022 1.378 . S
C3020 C3024 1.350 . S
C3021 C3024 1.463 . S
C3021 C3026 1.350 . S
C3021 N3029 1.427 . S
C3022 H3013 0.930 . S
C3022 C3020 1.378 . S
C3022 C3023 1.367 . S
C3023 C3022 1.367 . S
C3023 C3025 1.433 . S
C3024 C3020 1.350 . S
C3024 C3021 1.463 . S
C3024 N3028 1.427 . S
C3025 H3015 0.929 1_554 S
C3025 C3023 1.433 . S
C3025 N3028 1.384 . S
C3026 H3017 0.929 . S
C3026 C3018 1.378 . S
C3026 C3021 1.350 . S
C3027 H3014 0.929 . S
C3027 C3019 1.433 . S
C3027 N3029 1.384 . S
N3028 C3024 1.427 . S
N3028 C3025 1.384 . S
N3029 C3021 1.427 . S
N3029 C3027 1.384 . S
H3030 C3036 0.930 . S
H3031 C3040 0.930 . S
H3032 C3045 0.929 . S
H3033 C3043 0.929 . S
H3034 C3038 0.929 . S
H3035 C3044 0.929 . S
C3036 H3030 0.930 . S
C3036 C3037 1.367 . S
C3036 C3044 1.378 . S
C3037 C3036 1.367 . S
C3037 C3045 1.433 . S
C3038 H3034 0.929 . S
C3038 C3040 1.378 . S
C3038 C3042 1.350 . S
C3039 C3042 1.463 . S
C3039 C3044 1.350 . S
C3039 N3047 1.427 . S
C3040 H3031 0.930 . S
C3040 C3038 1.378 . S
C3040 C3041 1.367 . S
C3041 C3040 1.367 . S
C3041 C3043 1.433 . S
C3042 C3038 1.350 . S
C3042 C3039 1.463 . S
C3042 N3046 1.427 . S
C3043 H3033 0.929 . S
C3043 C3041 1.433 . S
C3043 N3046 1.384 . S
C3044 H3035 0.929 . S
C3044 C3036 1.378 . S
C3044 C3039 1.350 . S
C3045 H3032 0.929 . S
C3045 C3037 1.433 . S
C3045 N3047 1.384 . S
N3046 C3042 1.427 . S
N3046 C3043 1.384 . S
N3047 C3039 1.427 . S
N3047 C3045 1.384 . S
H3048 C3054 0.930 . S
H3049 C3058 0.930 . S
H3050 C3063 0.929 . S
H3051 C3061 0.929 . S
H3052 C3056 0.929 . S
H3053 C3062 0.929 . S
C3054 H3048 0.930 . S
C3054 C3055 1.367 . S
C3054 C3062 1.378 . S
C3055 C3054 1.367 . S
C3055 C3063 1.433 . S
C3056 H3052 0.929 . S
C3056 C3058 1.378 . S
C3056 C3060 1.350 . S
C3057 C3060 1.463 . S
C3057 C3062 1.350 . S
C3057 N3065 1.427 . S
C3058 H3049 0.930 . S
C3058 C3056 1.378 . S
C3058 C3059 1.367 . S
C3059 C3058 1.367 . S
C3059 C3061 1.433 . S
C3060 C3056 1.350 . S
C3060 C3057 1.463 . S
C3060 N3064 1.427 . S
C3061 H3051 0.929 . S
C3061 C3059 1.433 . S
C3061 N3064 1.384 . S
C3062 H3053 0.929 . S
C3062 C3054 1.378 . S
C3062 C3057 1.350 . S
C3063 H3050 0.929 . S
C3063 C3055 1.433 . S
C3063 N3065 1.384 . S
N3064 C3060 1.427 . S
N3064 C3061 1.384 . S
N3065 C3057 1.427 . S
N3065 C3063 1.384 . S
H3066 C3072 0.930 . S
H3067 C3076 0.930 . S
H3068 C3081 0.929 . S
H3069 C3079 0.929 . S
H3070 C3074 0.929 . S
H3071 C3080 0.929 . S
C3072 H3066 0.930 . S
C3072 C3073 1.367 . S
C3072 C3080 1.378 . S
C3073 C3072 1.367 . S
C3073 C3081 1.433 . S
C3074 H3070 0.929 . S
C3074 C3076 1.378 . S
C3074 C3078 1.350 . S
C3075 C3078 1.463 . S
C3075 C3080 1.350 . S
C3075 N3083 1.427 . S
C3076 H3067 0.930 . S
C3076 C3074 1.378 . S
C3076 C3077 1.367 . S
C3077 C3076 1.367 . S
C3077 C3079 1.433 . S
C3078 C3074 1.350 . S
C3078 C3075 1.463 . S
C3078 N3082 1.427 . S
C3079 H3069 0.929 . S
C3079 C3077 1.433 . S
C3079 N3082 1.384 . S
C3080 H3071 0.929 . S
C3080 C3072 1.378 . S
C3080 C3075 1.350 . S
C3081 H3068 0.929 . S
C3081 C3073 1.433 . S
C3081 N3083 1.384 . S
N3082 C3078 1.427 . S
N3082 C3079 1.384 . S
N3083 C3075 1.427 . S
N3083 C3081 1.384 . S
H3084 C3090 0.930 . S
H3085 C3094 0.930 . S
H3086 C3099 0.929 . S
H3087 C3097 0.929 . S
H3088 C3092 0.929 . S
H3089 C3098 0.929 . S
C3090 H3084 0.930 . S
C3090 C3091 1.367 . S
C3090 C3098 1.378 . S
C3091 C3090 1.367 . S
C3091 C3099 1.433 . S
C3092 H3088 0.929 . S
C3092 C3094 1.378 . S
C3092 C3096 1.350 . S
C3093 C3096 1.463 . S
C3093 C3098 1.350 . S
C3093 N3101 1.427 . S
C3094 H3085 0.930 . S
C3094 C3092 1.378 . S
C3094 C3095 1.367 . S
C3095 C3094 1.367 . S
C3095 C3097 1.433 . S
C3096 C3092 1.350 . S
C3096 C3093 1.463 . S
C3096 N3100 1.427 . S
C3097 H3087 0.929 . S
C3097 C3095 1.433 . S
C3097 N3100 1.384 . S
C3098 H3089 0.929 . S
C3098 C3090 1.378 . S
C3098 C3093 1.350 . S
C3099 H3086 0.929 . S
C3099 C3091 1.433 . S
C3099 N3101 1.384 . S
N3100 C3096 1.427 . S
N3100 C3097 1.384 . S
N3101 C3093 1.427 . S
N3101 C3099 1.384 . S
H3102 C3108 0.930 . S
H3103 C3112 0.930 . S
H3104 C3117 0.929 . S
H3105 C3115 0.929 . S
H3106 C3110 0.929 . S
H3107 C3116 0.929 . S
C3108 H3102 0.930 . S
C3108 C3109 1.367 . S
C3108 C3116 1.378 . S
C3109 C3108 1.367 . S
C3109 C3117 1.433 . S
C3110 H3106 0.929 . S
C3110 C3112 1.378 . S
C3110 C3114 1.350 . S
C3111 C3114 1.463 . S
C3111 C3116 1.350 . S
C3111 N3119 1.427 . S
C3112 H3103 0.930 . S
C3112 C3110 1.378 . S
C3112 C3113 1.367 . S
C3113 C3112 1.367 . S
C3113 C3115 1.433 . S
C3114 C3110 1.350 . S
C3114 C3111 1.463 . S
C3114 N3118 1.427 . S
C3115 H3105 0.929 . S
C3115 C3113 1.433 . S
C3115 N3118 1.384 . S
C3116 H3107 0.929 . S
C3116 C3108 1.378 . S
C3116 C3111 1.350 . S
C3117 H3104 0.929 . S
C3117 C3109 1.433 . S
C3117 N3119 1.384 . S
N3118 C3114 1.427 . S
N3118 C3115 1.384 . S
N3119 C3111 1.427 . S
N3119 C3117 1.384 . S
H3120 C3126 0.930 . S
H3121 C3130 0.930 . S
H3122 C3135 0.929 . S
H3123 C3133 0.929 . S
H3124 C3128 0.929 . S
H3125 C3134 0.929 . S
C3126 H3120 0.930 . S
C3126 C3127 1.367 . S
C3126 C3134 1.378 . S
C3127 C3126 1.367 . S
C3127 C3135 1.433 . S
C3128 H3124 0.929 . S
C3128 C3130 1.378 . S
C3128 C3132 1.350 . S
C3129 C3132 1.463 . S
C3129 C3134 1.350 . S
C3129 N3137 1.427 . S
C3130 H3121 0.930 . S
C3130 C3128 1.378 . S
C3130 C3131 1.367 . S
C3131 C3130 1.367 . S
C3131 C3133 1.433 . S
C3132 C3128 1.350 . S
C3132 C3129 1.463 . S
C3132 N3136 1.427 . S
C3133 H3123 0.929 . S
C3133 C3131 1.433 . S
C3133 N3136 1.384 . S
C3134 H3125 0.929 . S
C3134 C3126 1.378 . S
C3134 C3129 1.350 . S
C3135 H3122 0.929 . S
C3135 C3127 1.433 . S
C3135 N3137 1.384 . S
N3136 C3132 1.427 . S
N3136 C3133 1.384 . S
N3137 C3129 1.427 . S
N3137 C3135 1.384 . S
H3138 C3144 0.930 . S
H3139 C3148 0.930 . S
H3140 C3153 0.929 . S
H3141 C3151 0.929 . S
H3142 C3146 0.929 . S
H3143 C3152 0.929 . S
C3144 H3138 0.930 . S
C3144 C3145 1.367 . S
C3144 C3152 1.378 . S
C3145 C3144 1.367 . S
C3145 C3153 1.433 . S
C3146 H3142 0.929 . S
C3146 C3148 1.378 . S
C3146 C3150 1.350 . S
C3147 C3150 1.463 . S
C3147 C3152 1.350 . S
C3147 N3155 1.427 . S
C3148 H3139 0.930 . S
C3148 C3146 1.378 . S
C3148 C3149 1.367 . S
C3149 C3148 1.367 . S
C3149 C3151 1.433 . S
C3150 C3146 1.350 . S
C3150 C3147 1.463 . S
C3150 N3154 1.427 . S
C3151 H3141 0.929 . S
C3151 C3149 1.433 . S
C3151 N3154 1.384 . S
C3152 H3143 0.929 . S
C3152 C3144 1.378 . S
C3152 C3147 1.350 . S
C3153 H3140 0.929 . S
C3153 C3145 1.433 . S
C3153 N3155 1.384 . S
N3154 C3150 1.427 . S
N3154 C3151 1.384 . S
N3155 C3147 1.427 . S
N3155 C3153 1.384 . S
H3156 C3162 0.930 . S
H3157 C3166 0.930 . S
H3158 C3171 0.929 . S
H3159 C3169 0.929 . S
H3160 C3164 0.929 1_655 S
H3161 C3170 0.929 . S
C3162 H3156 0.930 . S
C3162 C3163 1.367 . S
C3162 C3170 1.378 . S
C3163 C3162 1.367 . S
C3163 C3171 1.433 . S
C3164 H3160 0.929 1_455 S
C3164 C3166 1.378 . S
C3164 C3168 1.350 1_455 S
C3165 C3168 1.463 . S
C3165 C3170 1.350 . S
C3165 N3173 1.427 . S
C3166 H3157 0.930 . S
C3166 C3164 1.378 . S
C3166 C3167 1.367 . S
C3167 C3166 1.367 . S
C3167 C3169 1.433 . S
C3168 C3164 1.350 1_655 S
C3168 C3165 1.463 . S
C3168 N3172 1.422 1_655 S
C3169 H3159 0.929 . S
C3169 C3167 1.433 . S
C3169 N3172 1.391 . S
C3170 H3161 0.929 . S
C3170 C3162 1.378 . S
C3170 C3165 1.350 . S
C3171 H3158 0.929 . S
C3171 C3163 1.433 . S
C3171 N3173 1.384 . S
N3172 C3168 1.422 1_455 S
N3172 C3169 1.391 . S
N3173 C3165 1.427 . S
N3173 C3171 1.384 . S
H3174 C3180 0.930 . S
H3175 C3184 0.930 . S
H3176 C3189 0.929 . S
H3177 C3187 0.929 . S
H3178 C3182 0.929 . S
H3179 C3188 0.929 . S
C3180 H3174 0.930 . S
C3180 C3181 1.367 . S
C3180 C3188 1.378 . S
C3181 C3180 1.367 . S
C3181 C3189 1.433 . S
C3182 H3178 0.929 . S
C3182 C3184 1.378 . S
C3182 C3186 1.350 . S
C3183 C3186 1.463 . S
C3183 C3188 1.350 . S
C3183 N3191 1.427 . S
C3184 H3175 0.930 . S
C3184 C3182 1.378 . S
C3184 C3185 1.367 . S
C3185 C3184 1.367 . S
C3185 C3187 1.433 . S
C3186 C3182 1.350 . S
C3186 C3183 1.463 . S
C3186 N3190 1.427 . S
C3187 H3177 0.929 . S
C3187 C3185 1.433 . S
C3187 N3190 1.384 . S
C3188 H3179 0.929 . S
C3188 C3180 1.378 . S
C3188 C3183 1.350 . S
C3189 H3176 0.929 . S
C3189 C3181 1.433 . S
C3189 N3191 1.384 . S
N3190 C3186 1.427 . S
N3190 C3187 1.384 . S
N3191 C3183 1.427 . S
N3191 C3189 1.384 . S
H3192 C3198 0.930 . S
H3193 C3202 0.930 . S
H3194 C3207 0.929 . S
H3195 C3205 0.929 . S
H3196 C3200 0.929 . S
H3197 C3206 0.929 . S
C3198 H3192 0.930 . S
C3198 C3199 1.367 . S
C3198 C3206 1.378 . S
C3199 C3198 1.367 . S
C3199 C3207 1.433 . S
C3200 H3196 0.929 . S
C3200 C3202 1.378 . S
C3200 C3204 1.350 . S
C3201 C3204 1.463 . S
C3201 C3206 1.350 . S
C3201 N3209 1.427 . S
C3202 H3193 0.930 . S
C3202 C3200 1.378 . S
C3202 C3203 1.367 . S
C3203 C3202 1.367 . S
C3203 C3205 1.433 . S
C3204 C3200 1.350 . S
C3204 C3201 1.463 . S
C3204 N3208 1.427 . S
C3205 H3195 0.929 . S
C3205 C3203 1.433 . S
C3205 N3208 1.384 . S
C3206 H3197 0.929 . S
C3206 C3198 1.378 . S
C3206 C3201 1.350 . S
C3207 H3194 0.929 . S
C3207 C3199 1.433 . S
C3207 N3209 1.384 . S
N3208 C3204 1.427 . S
N3208 C3205 1.384 . S
N3209 C3201 1.427 . S
N3209 C3207 1.384 . S
H3210 C3216 0.930 . S
H3211 C3220 0.930 . S
H3212 C3225 0.929 . S
H3213 C3223 0.929 . S
H3214 C3218 0.929 . S
H3215 C3224 0.929 . S
C3216 H3210 0.930 . S
C3216 C3217 1.367 . S
C3216 C3224 1.378 . S
C3217 C3216 1.367 . S
C3217 C3225 1.433 . S
C3218 H3214 0.929 . S
C3218 C3220 1.378 . S
C3218 C3222 1.350 . S
C3219 C3222 1.463 . S
C3219 C3224 1.350 . S
C3219 N3227 1.427 . S
C3220 H3211 0.930 . S
C3220 C3218 1.378 . S
C3220 C3221 1.367 . S
C3221 C3220 1.367 . S
C3221 C3223 1.433 . S
C3222 C3218 1.350 . S
C3222 C3219 1.463 . S
C3222 N3226 1.427 . S
C3223 H3213 0.929 . S
C3223 C3221 1.433 . S
C3223 N3226 1.384 . S
C3224 H3215 0.929 . S
C3224 C3216 1.378 . S
C3224 C3219 1.350 . S
C3225 H3212 0.929 . S
C3225 C3217 1.433 . S
C3225 N3227 1.384 . S
N3226 C3222 1.427 . S
N3226 C3223 1.384 . S
N3227 C3219 1.427 . S
N3227 C3225 1.384 . S
H3228 C3234 0.930 . S
H3229 C3238 0.930 . S
H3230 C3243 0.929 . S
H3231 C3241 0.929 . S
H3232 C3236 0.929 . S
H3233 C3242 0.929 . S
C3234 H3228 0.930 . S
C3234 C3235 1.367 . S
C3234 C3242 1.378 . S
C3235 C3234 1.367 . S
C3235 C3243 1.433 . S
C3236 H3232 0.929 . S
C3236 C3238 1.378 . S
C3236 C3240 1.350 . S
C3237 C3240 1.463 . S
C3237 C3242 1.350 . S
C3237 N3245 1.427 . S
C3238 H3229 0.930 . S
C3238 C3236 1.378 . S
C3238 C3239 1.367 . S
C3239 C3238 1.367 . S
C3239 C3241 1.433 1_655 S
C3240 C3236 1.350 . S
C3240 C3237 1.463 . S
C3240 N3244 1.427 . S
C3241 H3231 0.929 . S
C3241 C3239 1.433 1_455 S
C3241 N3244 1.384 1_455 S
C3242 H3233 0.929 . S
C3242 C3234 1.378 . S
C3242 C3237 1.350 . S
C3243 H3230 0.929 . S
C3243 C3235 1.433 . S
C3243 N3245 1.384 . S
N3244 C3240 1.427 . S
N3244 C3241 1.384 1_655 S
N3245 C3237 1.427 . S
N3245 C3243 1.384 . S
H3246 C3252 0.930 . S
H3247 C3256 0.930 . S
H3248 C3261 0.929 . S
H3249 C3259 0.929 . S
H3250 C3254 0.929 . S
H3251 C3260 0.929 . S
C3252 H3246 0.930 . S
C3252 C3253 1.367 . S
C3252 C3260 1.378 . S
C3253 C3252 1.367 . S
C3253 C3261 1.433 . S
C3254 H3250 0.929 . S
C3254 C3256 1.378 . S
C3254 C3258 1.350 . S
C3255 C3258 1.463 . S
C3255 C3260 1.350 . S
C3255 N3263 1.427 . S
C3256 H3247 0.930 . S
C3256 C3254 1.378 . S
C3256 C3257 1.367 . S
C3257 C3256 1.367 . S
C3257 C3259 1.433 . S
C3258 C3254 1.350 . S
C3258 C3255 1.463 . S
C3258 N3262 1.427 . S
C3259 H3249 0.929 . S
C3259 C3257 1.433 . S
C3259 N3262 1.384 . S
C3260 H3251 0.929 . S
C3260 C3252 1.378 . S
C3260 C3255 1.350 . S
C3261 H3248 0.929 . S
C3261 C3253 1.433 . S
C3261 N3263 1.384 . S
N3262 C3258 1.427 . S
N3262 C3259 1.384 . S
N3263 C3255 1.427 . S
N3263 C3261 1.384 . S
H3264 C3270 0.930 . S
H3265 C3274 0.930 . S
H3266 C3279 0.929 . S
H3267 C3277 0.929 . S
H3268 C3272 0.929 . S
H3269 C3278 0.929 . S
C3270 H3264 0.930 . S
C3270 C3271 1.367 . S
C3270 C3278 1.378 . S
C3271 C3270 1.367 . S
C3271 C3279 1.433 . S
C3272 H3268 0.929 . S
C3272 C3274 1.378 . S
C3272 C3276 1.350 . S
C3273 C3276 1.463 . S
C3273 C3278 1.350 . S
C3273 N3281 1.427 . S
C3274 H3265 0.930 . S
C3274 C3272 1.378 . S
C3274 C3275 1.367 . S
C3275 C3274 1.367 . S
C3275 C3277 1.433 . S
C3276 C3272 1.350 . S
C3276 C3273 1.463 . S
C3276 N3280 1.427 . S
C3277 H3267 0.929 . S
C3277 C3275 1.433 . S
C3277 N3280 1.384 . S
C3278 H3269 0.929 . S
C3278 C3270 1.378 . S
C3278 C3273 1.350 . S
C3279 H3266 0.929 . S
C3279 C3271 1.433 . S
C3279 N3281 1.384 . S
N3280 C3276 1.427 . S
N3280 C3277 1.384 . S
N3281 C3273 1.427 . S
N3281 C3279 1.384 . S
H3282 C3288 0.930 . S
H3283 C3292 0.930 . S
H3284 C3297 0.929 . S
H3285 C3295 0.929 . S
H3286 C3290 0.929 . S
H3287 C3296 0.929 . S
C3288 H3282 0.930 . S
C3288 C3289 1.367 . S
C3288 C3296 1.378 . S
C3289 C3288 1.367 . S
C3289 C3297 1.433 . S
C3290 H3286 0.929 . S
C3290 C3292 1.378 . S
C3290 C3294 1.350 . S
C3291 C3294 1.463 . S
C3291 C3296 1.350 . S
C3291 N3299 1.427 . S
C3292 H3283 0.930 . S
C3292 C3290 1.378 . S
C3292 C3293 1.367 . S
C3293 C3292 1.367 . S
C3293 C3295 1.433 . S
C3294 C3290 1.350 . S
C3294 C3291 1.463 . S
C3294 N3298 1.427 . S
C3295 H3285 0.929 . S
C3295 C3293 1.433 . S
C3295 N3298 1.384 . S
C3296 H3287 0.929 . S
C3296 C3288 1.378 . S
C3296 C3291 1.350 . S
C3297 H3284 0.929 . S
C3297 C3289 1.433 . S
C3297 N3299 1.384 . S
N3298 C3294 1.427 . S
N3298 C3295 1.384 . S
N3299 C3291 1.427 . S
N3299 C3297 1.384 . S
H3300 C3306 0.930 . S
H3301 C3310 0.930 . S
H3302 C3315 0.929 . S
H3303 C3313 0.929 . S
H3304 C3308 0.929 . S
H3305 C3314 0.929 . S
C3306 H3300 0.930 . S
C3306 C3307 1.367 . S
C3306 C3314 1.378 . S
C3307 C3306 1.367 . S
C3307 C3315 1.433 . S
C3308 H3304 0.929 . S
C3308 C3310 1.378 . S
C3308 C3312 1.350 . S
C3309 C3312 1.463 . S
C3309 C3314 1.350 . S
C3309 N3317 1.427 . S
C3310 H3301 0.930 . S
C3310 C3308 1.378 . S
C3310 C3311 1.367 . S
C3311 C3310 1.367 . S
C3311 C3313 1.433 . S
C3312 C3308 1.350 . S
C3312 C3309 1.463 . S
C3312 N3316 1.427 . S
C3313 H3303 0.929 . S
C3313 C3311 1.433 . S
C3313 N3316 1.384 . S
C3314 H3305 0.929 . S
C3314 C3306 1.378 . S
C3314 C3309 1.350 . S
C3315 H3302 0.929 . S
C3315 C3307 1.433 . S
C3315 N3317 1.384 . S
N3316 C3312 1.427 . S
N3316 C3313 1.384 . S
N3317 C3309 1.427 . S
N3317 C3315 1.384 . S
H3318 C3324 0.930 . S
H3319 C3328 0.930 . S
H3320 C3333 0.929 1_556 S
H3321 C3331 0.929 . S
H3322 C3326 0.945 . S
H3323 C3332 0.929 . S
C3324 H3318 0.930 . S
C3324 C3325 1.367 . S
C3324 C3332 1.378 . S
C3325 C3324 1.367 . S
C3325 C3333 1.433 . S
C3326 H3322 0.945 . S
C3326 C3328 1.376 . S
C3326 C3330 1.336 1_556 S
C3327 C3330 1.463 . S
C3327 C3332 1.350 . S
C3327 N3335 1.427 . S
C3328 H3319 0.930 . S
C3328 C3326 1.376 . S
C3328 C3329 1.367 1_556 S
C3329 C3328 1.367 1_554 S
C3329 C3331 1.433 . S
C3330 C3326 1.336 1_554 S
C3330 C3327 1.463 . S
C3330 N3334 1.427 . S
C3331 H3321 0.929 . S
C3331 C3329 1.433 . S
C3331 N3334 1.384 . S
C3332 H3323 0.929 . S
C3332 C3324 1.378 . S
C3332 C3327 1.350 . S
C3333 H3320 0.929 1_554 S
C3333 C3325 1.433 . S
C3333 N3335 1.384 . S
N3334 C3330 1.427 . S
N3334 C3331 1.384 . S
N3335 C3327 1.427 . S
N3335 C3333 1.384 . S
H3336 C3342 0.930 . S
H3337 C3346 0.930 . S
H3338 C3351 0.929 . S
H3339 C3349 0.929 . S
H3340 C3344 0.929 . S
H3341 C3350 0.929 . S
C3342 H3336 0.930 . S
C3342 C3343 1.367 . S
C3342 C3350 1.378 . S
C3343 C3342 1.367 . S
C3343 C3351 1.433 . S
C3344 H3340 0.929 . S
C3344 C3346 1.378 . S
C3344 C3348 1.350 . S
C3345 C3348 1.463 . S
C3345 C3350 1.350 . S
C3345 N3353 1.427 . S
C3346 H3337 0.930 . S
C3346 C3344 1.378 . S
C3346 C3347 1.367 . S
C3347 C3346 1.367 . S
C3347 C3349 1.433 . S
C3348 C3344 1.350 . S
C3348 C3345 1.463 . S
C3348 N3352 1.427 . S
C3349 H3339 0.929 . S
C3349 C3347 1.433 . S
C3349 N3352 1.384 . S
C3350 H3341 0.929 . S
C3350 C3342 1.378 . S
C3350 C3345 1.350 . S
C3351 H3338 0.929 . S
C3351 C3343 1.433 . S
C3351 N3353 1.384 . S
N3352 C3348 1.427 . S
N3352 C3349 1.384 . S
N3353 C3345 1.427 . S
N3353 C3351 1.384 . S
H3354 C3360 0.930 . S
H3355 C3364 0.930 . S
H3356 C3369 0.929 . S
H3357 C3367 0.929 . S
H3358 C3362 0.929 . S
H3359 C3368 0.929 . S
C3360 H3354 0.930 . S
C3360 C3361 1.367 . S
C3360 C3368 1.378 . S
C3361 C3360 1.367 . S
C3361 C3369 1.433 . S
C3362 H3358 0.929 . S
C3362 C3364 1.378 . S
C3362 C3366 1.350 . S
C3363 C3366 1.463 . S
C3363 C3368 1.350 . S
C3363 N3371 1.427 . S
C3364 H3355 0.930 . S
C3364 C3362 1.378 . S
C3364 C3365 1.367 . S
C3365 C3364 1.367 . S
C3365 C3367 1.433 . S
C3366 C3362 1.350 . S
C3366 C3363 1.463 . S
C3366 N3370 1.427 . S
C3367 H3357 0.929 . S
C3367 C3365 1.433 . S
C3367 N3370 1.384 . S
C3368 H3359 0.929 . S
C3368 C3360 1.378 . S
C3368 C3363 1.350 . S
C3369 H3356 0.929 . S
C3369 C3361 1.433 . S
C3369 N3371 1.384 . S
N3370 C3366 1.427 . S
N3370 C3367 1.384 . S
N3371 C3363 1.427 . S
N3371 C3369 1.384 . S
H3372 C3378 0.930 . S
H3373 C3382 0.930 . S
H3374 C3387 0.929 . S
H3375 C3385 0.929 . S
H3376 C3380 0.929 . S
H3377 C3386 0.929 . S
C3378 H3372 0.930 . S
C3378 C3379 1.367 . S
C3378 C3386 1.378 . S
C3379 C3378 1.367 . S
C3379 C3387 1.433 . S
C3380 H3376 0.929 . S
C3380 C3382 1.378 . S
C3380 C3384 1.350 . S
C3381 C3384 1.463 . S
C3381 C3386 1.350 . S
C3381 N3389 1.427 . S
C3382 H3373 0.930 . S
C3382 C3380 1.378 . S
C3382 C3383 1.367 . S
C3383 C3382 1.367 . S
C3383 C3385 1.433 . S
C3384 C3380 1.350 . S
C3384 C3381 1.463 . S
C3384 N3388 1.427 . S
C3385 H3375 0.929 . S
C3385 C3383 1.433 . S
C3385 N3388 1.384 . S
C3386 H3377 0.929 . S
C3386 C3378 1.378 . S
C3386 C3381 1.350 . S
C3387 H3374 0.929 . S
C3387 C3379 1.433 . S
C3387 N3389 1.384 . S
N3388 C3384 1.427 . S
N3388 C3385 1.384 . S
N3389 C3381 1.427 . S
N3389 C3387 1.384 . S
H3390 C3396 0.930 . S
H3391 C3400 0.930 . S
H3392 C3405 0.929 . S
H3393 C3403 0.929 . S
H3394 C3398 0.929 . S
H3395 C3404 0.929 . S
C3396 H3390 0.930 . S
C3396 C3397 1.367 . S
C3396 C3404 1.378 . S
C3397 C3396 1.367 . S
C3397 C3405 1.433 . S
C3398 H3394 0.929 . S
C3398 C3400 1.378 . S
C3398 C3402 1.350 . S
C3399 C3402 1.463 . S
C3399 C3404 1.350 . S
C3399 N3407 1.427 . S
C3400 H3391 0.930 . S
C3400 C3398 1.378 . S
C3400 C3401 1.367 . S
C3401 C3400 1.367 . S
C3401 C3403 1.433 . S
C3402 C3398 1.350 . S
C3402 C3399 1.463 . S
C3402 N3406 1.427 . S
C3403 H3393 0.929 . S
C3403 C3401 1.433 . S
C3403 N3406 1.384 . S
C3404 H3395 0.929 . S
C3404 C3396 1.378 . S
C3404 C3399 1.350 . S
C3405 H3392 0.929 . S
C3405 C3397 1.433 . S
C3405 N3407 1.384 . S
N3406 C3402 1.427 . S
N3406 C3403 1.384 . S
N3407 C3399 1.427 . S
N3407 C3405 1.384 . S
C1687 C105 1.866 . S
C1691 C392 1.718 . S
C1705 C65 2.253 . S
C1709 C483 2.176 . S
C1723 C73 1.585 . S
C1727 C560 1.519 . S
C1745 C658 1.475 . S
C1741 C92 1.586 . S
C1759 C17 1.604 . S
C1763 C742 1.551 . S
C1781 C814 0.958 . S
C1777 C37 0.999 . S
C1799 C903 0.941 . S
C1795 C49 0.862 . S
C1813 C8 1.530 . S
C1817 C980 1.358 . S
C1835 C399 2.041 . S
C1831 C231 2.086 . S
C1849 C241 0.729 . S
C1853 C490 0.737 . S
C1871 C567 1.210 . S
C1867 C273 1.205 . S
C1889 C644 1.536 . S
C1885 C171 1.640 . S
C1903 C227 2.136 . S
C1907 C728 1.966 . S
C1925 C830 1.151 . S
C1921 C245 1.204 . S
C1943 C910 0.804 . S
C1939 C269 0.805 . S
C1961 C987 1.510 . S
C1957 C175 1.642 . S
C1979 C406 1.392 . S
C1975 C162 1.484 . S
C1993 C289 1.991 . S
C1997 C1071 1.891 1_556 S
C2015 C1159 2.226 . S
C2011 C330 2.407 . S
C2033 C1232 0.593 . S
C2029 C317 0.527 . S
C2047 C120 0.964 . S
C2051 C994 0.964 . S
C2065 C134 1.490 . S
C2069 C574 1.458 . S
C2083 C331 2.233 . S
C2087 C1323 2.152 . S
C2105 C1400 0.693 . S
C2101 C303 0.697 . S
C2123 C403 1.747 . S
C2119 C59 1.865 . S
C2141 C1418 2.217 . S
C2137 C107 2.271 . S
C2155 C91 1.642 . S
C2159 C571 1.561 . S
C2173 C78 1.611 . S
C2177 C1318 1.503 . S
C2195 C730 1.571 . S
C2191 C7 1.529 . S
C2209 C51 1.027 . S
C2213 C1162 0.960 . S
C2231 C914 0.992 . S
C2227 C31 0.996 . S
C2249 C1495 1.361 . S
C2245 C22 1.513 . S
C2267 C410 2.062 . S
C2263 C143 2.170 . S
C2285 C1402 0.756 . S
C2281 C315 0.764 . S
C2299 C115 1.288 . S
C2303 C578 1.225 . S
C2317 C287 1.659 . S
C2321 C1327 1.574 . S
C2335 C147 2.063 . S
C2339 C739 2.002 . S
C2357 C1155 1.167 . S
C2353 C311 1.263 . S
C2371 C119 0.831 . S
C2375 C898 0.819 . S
C2389 C283 1.675 . S
C2393 C1502 1.552 . S
C2407 C190 1.485 . S
C2411 C394 1.401 1_554 S
C2425 C177 2.020 . S
C2429 C1082 1.943 . S
C2443 C260 2.430 . S
C2447 C812 2.259 . S
C2461 C247 0.573 . S
C2465 C1243 0.615 . S
C2483 C1486 0.924 . S
C2479 C274 0.923 1_565 S
C2497 C218 1.483 . S
C2501 C562 1.461 . S
C2519 C662 2.184 . S
C2515 C261 2.266 . S
C2537 C487 0.756 . S
C2533 C205 0.728 . S
C2551 C77 1.862 . S
C2555 C1568 1.709 . S
C2573 C1407 2.186 . S
C2569 C93 2.250 . S
C2587 C101 1.593 . S
C2591 C1652 1.505 . S
C2605 C64 1.583 . S
C2609 C1330 1.480 . S
C2623 C45 1.605 . S
C2627 C1078 1.549 . S
C2645 C1150 0.944 . S
C2641 C9 1.002 . S
C2663 C1239 0.931 . S
C2659 C21 0.899 . S
C2681 C1484 1.352 . S
C2677 C36 1.529 . S
C2699 C1575 2.029 . S
C2695 C259 2.094 . S
C2713 C185 0.736 . S
C2717 C1414 0.737 . S
C2735 C1659 1.226 . S
C2731 C203 1.204 . S
C2753 C1316 1.543 . S
C2749 C213 1.639 . S
C2771 C1064 1.968 . S
C2767 C255 2.136 . S
C2785 C189 1.206 . S
C2789 C1166 1.153 . S
C2807 C1246 0.788 . S
C2803 C199 0.808 . S
C2821 C217 1.641 . S
C2825 C1491 1.507 . S
C2843 C1582 1.410 . S
C2839 C316 1.482 . S
C2857 C135 1.992 . S
C2861 C735 1.917 . S
C2879 C823 2.220 . S
C2875 C148 2.409 . S
C2897 C896 0.561 . S
C2893 C163 0.519 . S
C2915 C1498 0.976 . S
C2911 C302 0.952 . S
C2929 C288 1.490 1_554 S
C2933 C1666 1.454 . S
C2951 C651 2.146 . S
C2947 C149 2.228 . S
C2969 C476 0.692 . S
C2965 C121 0.698 . S
C2983 C87 1.864 . S
C2987 C1579 1.741 . S
C3005 C494 2.220 . S
C3001 C79 2.269 . S
C3019 C63 1.645 . S
C3023 C1663 1.558 . S
C3037 C106 1.613 . S
C3041 C646 1.495 . S
C3055 C35 1.529 . S
C3059 C1066 1.571 . S
C3077 C826 0.986 . S
C3073 C23 1.037 . S
C3091 C3 0.994 . S
C3095 C1250 0.993 . S
C3109 C50 1.521 . S
C3113 C991 1.382 . S
C3131 C1586 2.064 . S
C3127 C325 2.170 . S
C3145 C161 0.768 . S
C3149 C478 0.738 . S
C3167 C1670 1.244 . S
C3163 C297 1.287 . S
C3181 C133 1.668 . S
C3185 C655 1.598 . S
C3199 C329 2.060 . S
C3203 C1075 2.004 . S
C3221 C819 1.169 . S
C3217 C157 1.263 . S
C3235 C301 0.819 . S
C3239 C1234 0.830 1_655 S
C3257 C998 1.559 . S
C3253 C129 1.676 . S
C3275 C1570 1.413 . S
C3271 C246 1.485 . S
C3293 C746 1.951 1_665 S
C3289 C219 2.017 . S
C3307 C232 2.433 . S
C3311 C1148 2.262 . S
C3329 C907 0.608 . S
C3325 C191 0.576 . S
C3343 C204 0.905 . S
C3347 C982 0.937 . S
C3361 C176 1.490 . S
C3365 C1654 1.451 1_554 S
C3383 C1334 2.191 . S
C3379 C233 2.264 1_565 S
C3401 C1411 0.757 . S
C3397 C275 0.727 . S
