# Generated by pormake.
# Topology gar, (4,6)-cn, num edge types: 1
# Building blocks:
#     Node 0, Type 0, BuildingBlock: KUFVIS_clean_sbu_0, # of connection points: 4
#     Node 1, Type 0, BuildingBlock: KUFVIS_clean_sbu_0, # of connection points: 4
#     Node 2, Type 0, BuildingBlock: KUFVIS_clean_sbu_0, # of connection points: 4
#     Node 3, Type 0, BuildingBlock: KUFVIS_clean_sbu_0, # of connection points: 4
#     Node 4, Type 0, BuildingBlock: KUFVIS_clean_sbu_0, # of connection points: 4
#     Node 5, Type 0, BuildingBlock: KUFVIS_clean_sbu_0, # of connection points: 4
#     Node 6, Type 0, BuildingBlock: KUFVIS_clean_sbu_0, # of connection points: 4
#     Node 7, Type 0, BuildingBlock: KUFVIS_clean_sbu_0, # of connection points: 4
#     Node 8, Type 0, BuildingBlock: KUFVIS_clean_sbu_0, # of connection points: 4
#     Node 9, Type 0, BuildingBlock: KUFVIS_clean_sbu_0, # of connection points: 4
#     Node 10, Type 0, BuildingBlock: KUFVIS_clean_sbu_0, # of connection points: 4
#     Node 11, Type 0, BuildingBlock: KUFVIS_clean_sbu_0, # of connection points: 4
#     Node 12, Type 0, BuildingBlock: KUFVIS_clean_sbu_0, # of connection points: 4
#     Node 13, Type 0, BuildingBlock: KUFVIS_clean_sbu_0, # of connection points: 4
#     Node 14, Type 0, BuildingBlock: KUFVIS_clean_sbu_0, # of connection points: 4
#     Node 15, Type 0, BuildingBlock: KUFVIS_clean_sbu_0, # of connection points: 4
#     Node 16, Type 0, BuildingBlock: KUFVIS_clean_sbu_0, # of connection points: 4
#     Node 17, Type 0, BuildingBlock: KUFVIS_clean_sbu_0, # of connection points: 4
#     Node 18, Type 0, BuildingBlock: KUFVIS_clean_sbu_0, # of connection points: 4
#     Node 19, Type 0, BuildingBlock: KUFVIS_clean_sbu_0, # of connection points: 4
#     Node 20, Type 0, BuildingBlock: KUFVIS_clean_sbu_0, # of connection points: 4
#     Node 21, Type 0, BuildingBlock: KUFVIS_clean_sbu_0, # of connection points: 4
#     Node 22, Type 0, BuildingBlock: KUFVIS_clean_sbu_0, # of connection points: 4
#     Node 23, Type 0, BuildingBlock: KUFVIS_clean_sbu_0, # of connection points: 4
#     Node 24, Type 1, BuildingBlock: CUKXOW_clean_sbu_0, # of connection points: 6
#     Node 25, Type 1, BuildingBlock: CUKXOW_clean_sbu_0, # of connection points: 6
#     Node 26, Type 1, BuildingBlock: CUKXOW_clean_sbu_0, # of connection points: 6
#     Node 27, Type 1, BuildingBlock: CUKXOW_clean_sbu_0, # of connection points: 6
#     Node 28, Type 1, BuildingBlock: CUKXOW_clean_sbu_0, # of connection points: 6
#     Node 29, Type 1, BuildingBlock: CUKXOW_clean_sbu_0, # of connection points: 6
#     Node 30, Type 1, BuildingBlock: CUKXOW_clean_sbu_0, # of connection points: 6
#     Node 31, Type 1, BuildingBlock: CUKXOW_clean_sbu_0, # of connection points: 6
#     Node 32, Type 1, BuildingBlock: CUKXOW_clean_sbu_0, # of connection points: 6
#     Node 33, Type 1, BuildingBlock: CUKXOW_clean_sbu_0, # of connection points: 6
#     Node 34, Type 1, BuildingBlock: CUKXOW_clean_sbu_0, # of connection points: 6
#     Node 35, Type 1, BuildingBlock: CUKXOW_clean_sbu_0, # of connection points: 6
#     Node 36, Type 1, BuildingBlock: CUKXOW_clean_sbu_0, # of connection points: 6
#     Node 37, Type 1, BuildingBlock: CUKXOW_clean_sbu_0, # of connection points: 6
#     Node 38, Type 1, BuildingBlock: CUKXOW_clean_sbu_0, # of connection points: 6
#     Node 39, Type 1, BuildingBlock: CUKXOW_clean_sbu_0, # of connection points: 6
#     Edge 40, Type (0, 1), BuildingBlock: UVAHIK_clean_linker_0, # of connection points: 2
#     Edge 41, Type (0, 1), BuildingBlock: UVAHIK_clean_linker_0, # of connection points: 2
#     Edge 42, Type (0, 1), BuildingBlock: UVAHIK_clean_linker_0, # of connection points: 2
#     Edge 43, Type (0, 1), BuildingBlock: UVAHIK_clean_linker_0, # of connection points: 2
#     Edge 44, Type (0, 1), BuildingBlock: UVAHIK_clean_linker_0, # of connection points: 2
#     Edge 45, Type (0, 1), BuildingBlock: UVAHIK_clean_linker_0, # of connection points: 2
#     Edge 46, Type (0, 1), BuildingBlock: UVAHIK_clean_linker_0, # of connection points: 2
#     Edge 47, Type (0, 1), BuildingBlock: UVAHIK_clean_linker_0, # of connection points: 2
#     Edge 48, Type (0, 1), BuildingBlock: UVAHIK_clean_linker_0, # of connection points: 2
#     Edge 49, Type (0, 1), BuildingBlock: UVAHIK_clean_linker_0, # of connection points: 2
#     Edge 50, Type (0, 1), BuildingBlock: UVAHIK_clean_linker_0, # of connection points: 2
#     Edge 51, Type (0, 1), BuildingBlock: UVAHIK_clean_linker_0, # of connection points: 2
#     Edge 52, Type (0, 1), BuildingBlock: UVAHIK_clean_linker_0, # of connection points: 2
#     Edge 53, Type (0, 1), BuildingBlock: UVAHIK_clean_linker_0, # of connection points: 2
#     Edge 54, Type (0, 1), BuildingBlock: UVAHIK_clean_linker_0, # of connection points: 2
#     Edge 55, Type (0, 1), BuildingBlock: UVAHIK_clean_linker_0, # of connection points: 2
#     Edge 56, Type (0, 1), BuildingBlock: UVAHIK_clean_linker_0, # of connection points: 2
#     Edge 57, Type (0, 1), BuildingBlock: UVAHIK_clean_linker_0, # of connection points: 2
#     Edge 58, Type (0, 1), BuildingBlock: UVAHIK_clean_linker_0, # of connection points: 2
#     Edge 59, Type (0, 1), BuildingBlock: UVAHIK_clean_linker_0, # of connection points: 2
#     Edge 60, Type (0, 1), BuildingBlock: UVAHIK_clean_linker_0, # of connection points: 2
#     Edge 61, Type (0, 1), BuildingBlock: UVAHIK_clean_linker_0, # of connection points: 2
#     Edge 62, Type (0, 1), BuildingBlock: UVAHIK_clean_linker_0, # of connection points: 2
#     Edge 63, Type (0, 1), BuildingBlock: UVAHIK_clean_linker_0, # of connection points: 2
#     Edge 64, Type (0, 1), BuildingBlock: UVAHIK_clean_linker_0, # of connection points: 2
#     Edge 65, Type (0, 1), BuildingBlock: UVAHIK_clean_linker_0, # of connection points: 2
#     Edge 66, Type (0, 1), BuildingBlock: UVAHIK_clean_linker_0, # of connection points: 2
#     Edge 67, Type (0, 1), BuildingBlock: UVAHIK_clean_linker_0, # of connection points: 2
#     Edge 68, Type (0, 1), BuildingBlock: UVAHIK_clean_linker_0, # of connection points: 2
#     Edge 69, Type (0, 1), BuildingBlock: UVAHIK_clean_linker_0, # of connection points: 2
#     Edge 70, Type (0, 1), BuildingBlock: UVAHIK_clean_linker_0, # of connection points: 2
#     Edge 71, Type (0, 1), BuildingBlock: UVAHIK_clean_linker_0, # of connection points: 2
#     Edge 72, Type (0, 1), BuildingBlock: UVAHIK_clean_linker_0, # of connection points: 2
#     Edge 73, Type (0, 1), BuildingBlock: UVAHIK_clean_linker_0, # of connection points: 2
#     Edge 74, Type (0, 1), BuildingBlock: UVAHIK_clean_linker_0, # of connection points: 2
#     Edge 75, Type (0, 1), BuildingBlock: UVAHIK_clean_linker_0, # of connection points: 2
#     Edge 76, Type (0, 1), BuildingBlock: UVAHIK_clean_linker_0, # of connection points: 2
#     Edge 77, Type (0, 1), BuildingBlock: UVAHIK_clean_linker_0, # of connection points: 2
#     Edge 78, Type (0, 1), BuildingBlock: UVAHIK_clean_linker_0, # of connection points: 2
#     Edge 79, Type (0, 1), BuildingBlock: UVAHIK_clean_linker_0, # of connection points: 2
#     Edge 80, Type (0, 1), BuildingBlock: UVAHIK_clean_linker_0, # of connection points: 2
#     Edge 81, Type (0, 1), BuildingBlock: UVAHIK_clean_linker_0, # of connection points: 2
#     Edge 82, Type (0, 1), BuildingBlock: UVAHIK_clean_linker_0, # of connection points: 2
#     Edge 83, Type (0, 1), BuildingBlock: UVAHIK_clean_linker_0, # of connection points: 2
#     Edge 84, Type (0, 1), BuildingBlock: UVAHIK_clean_linker_0, # of connection points: 2
#     Edge 85, Type (0, 1), BuildingBlock: UVAHIK_clean_linker_0, # of connection points: 2
#     Edge 86, Type (0, 1), BuildingBlock: UVAHIK_clean_linker_0, # of connection points: 2
#     Edge 87, Type (0, 1), BuildingBlock: UVAHIK_clean_linker_0, # of connection points: 2
#     Edge 88, Type (0, 1), BuildingBlock: UVAHIK_clean_linker_0, # of connection points: 2
#     Edge 89, Type (0, 1), BuildingBlock: UVAHIK_clean_linker_0, # of connection points: 2
#     Edge 90, Type (0, 1), BuildingBlock: UVAHIK_clean_linker_0, # of connection points: 2
#     Edge 91, Type (0, 1), BuildingBlock: UVAHIK_clean_linker_0, # of connection points: 2
#     Edge 92, Type (0, 1), BuildingBlock: UVAHIK_clean_linker_0, # of connection points: 2
#     Edge 93, Type (0, 1), BuildingBlock: UVAHIK_clean_linker_0, # of connection points: 2
#     Edge 94, Type (0, 1), BuildingBlock: UVAHIK_clean_linker_0, # of connection points: 2
#     Edge 95, Type (0, 1), BuildingBlock: UVAHIK_clean_linker_0, # of connection points: 2
#     Edge 96, Type (0, 1), BuildingBlock: UVAHIK_clean_linker_0, # of connection points: 2
#     Edge 97, Type (0, 1), BuildingBlock: UVAHIK_clean_linker_0, # of connection points: 2
#     Edge 98, Type (0, 1), BuildingBlock: UVAHIK_clean_linker_0, # of connection points: 2
#     Edge 99, Type (0, 1), BuildingBlock: UVAHIK_clean_linker_0, # of connection points: 2
#     Edge 100, Type (0, 1), BuildingBlock: UVAHIK_clean_linker_0, # of connection points: 2
#     Edge 101, Type (0, 1), BuildingBlock: UVAHIK_clean_linker_0, # of connection points: 2
#     Edge 102, Type (0, 1), BuildingBlock: UVAHIK_clean_linker_0, # of connection points: 2
#     Edge 103, Type (0, 1), BuildingBlock: UVAHIK_clean_linker_0, # of connection points: 2
#     Edge 104, Type (0, 1), BuildingBlock: UVAHIK_clean_linker_0, # of connection points: 2
#     Edge 105, Type (0, 1), BuildingBlock: UVAHIK_clean_linker_0, # of connection points: 2
#     Edge 106, Type (0, 1), BuildingBlock: UVAHIK_clean_linker_0, # of connection points: 2
#     Edge 107, Type (0, 1), BuildingBlock: UVAHIK_clean_linker_0, # of connection points: 2
#     Edge 108, Type (0, 1), BuildingBlock: UVAHIK_clean_linker_0, # of connection points: 2
#     Edge 109, Type (0, 1), BuildingBlock: UVAHIK_clean_linker_0, # of connection points: 2
#     Edge 110, Type (0, 1), BuildingBlock: UVAHIK_clean_linker_0, # of connection points: 2
#     Edge 111, Type (0, 1), BuildingBlock: UVAHIK_clean_linker_0, # of connection points: 2
#     Edge 112, Type (0, 1), BuildingBlock: UVAHIK_clean_linker_0, # of connection points: 2
#     Edge 113, Type (0, 1), BuildingBlock: UVAHIK_clean_linker_0, # of connection points: 2
#     Edge 114, Type (0, 1), BuildingBlock: UVAHIK_clean_linker_0, # of connection points: 2
#     Edge 115, Type (0, 1), BuildingBlock: UVAHIK_clean_linker_0, # of connection points: 2
#     Edge 116, Type (0, 1), BuildingBlock: UVAHIK_clean_linker_0, # of connection points: 2
#     Edge 117, Type (0, 1), BuildingBlock: UVAHIK_clean_linker_0, # of connection points: 2
#     Edge 118, Type (0, 1), BuildingBlock: UVAHIK_clean_linker_0, # of connection points: 2
#     Edge 119, Type (0, 1), BuildingBlock: UVAHIK_clean_linker_0, # of connection points: 2
#     Edge 120, Type (0, 1), BuildingBlock: UVAHIK_clean_linker_0, # of connection points: 2
#     Edge 121, Type (0, 1), BuildingBlock: UVAHIK_clean_linker_0, # of connection points: 2
#     Edge 122, Type (0, 1), BuildingBlock: UVAHIK_clean_linker_0, # of connection points: 2
#     Edge 123, Type (0, 1), BuildingBlock: UVAHIK_clean_linker_0, # of connection points: 2
#     Edge 124, Type (0, 1), BuildingBlock: UVAHIK_clean_linker_0, # of connection points: 2
#     Edge 125, Type (0, 1), BuildingBlock: UVAHIK_clean_linker_0, # of connection points: 2
#     Edge 126, Type (0, 1), BuildingBlock: UVAHIK_clean_linker_0, # of connection points: 2
#     Edge 127, Type (0, 1), BuildingBlock: UVAHIK_clean_linker_0, # of connection points: 2
#     Edge 128, Type (0, 1), BuildingBlock: UVAHIK_clean_linker_0, # of connection points: 2
#     Edge 129, Type (0, 1), BuildingBlock: UVAHIK_clean_linker_0, # of connection points: 2
#     Edge 130, Type (0, 1), BuildingBlock: UVAHIK_clean_linker_0, # of connection points: 2
#     Edge 131, Type (0, 1), BuildingBlock: UVAHIK_clean_linker_0, # of connection points: 2
#     Edge 132, Type (0, 1), BuildingBlock: UVAHIK_clean_linker_0, # of connection points: 2
#     Edge 133, Type (0, 1), BuildingBlock: UVAHIK_clean_linker_0, # of connection points: 2
#     Edge 134, Type (0, 1), BuildingBlock: UVAHIK_clean_linker_0, # of connection points: 2
#     Edge 135, Type (0, 1), BuildingBlock: UVAHIK_clean_linker_0, # of connection points: 2
# Relax obj value: 0.100
# Max RMSD: 0.216
# Mean RMSD: 0.116
data_MOF--net-gar--node1-KUFVIS_clean_sbu_0--node2-CUKXOW_clean_sbu_0--edge1-UVAHIK_clean_linker_0
_symmetry_space_group_name_H-M    P1
_symmetry_Int_Tables_number       1
_symmetry_cell_setting            triclinic
loop_
_symmetry_equiv_pos_as_xyz
'x, y, z'
_cell_length_a     69.951167
_cell_length_b     68.660777
_cell_length_c     70.580076
_cell_angle_alpha  93.498148
_cell_angle_beta   95.461841
_cell_angle_gamma 99.503946
loop_
_atom_site_label
_atom_site_type_symbol
_atom_site_fract_x
_atom_site_fract_y
_atom_site_fract_z
_atom_type_partial_charge
Mn0 Mn 0.02618 0.27533 0.41981 0.0
Mn1 Mn 0.02254 0.30499 0.38371 0.0
C2 C 0.99617 0.28216 0.40833 0.0
C3 C 0.0271 0.24443 0.4311 0.0
C4 C 0.03738 0.32041 0.42447 0.0
O5 O 0.05192 0.2755 0.40841 0.0
O6 O 0.04685 0.29385 0.38362 0.0
C7 C 0.01792 0.27444 0.35134 0.0
N8 N 0.01116 0.28933 0.36085 0.0
C9 C 0.98343 0.28671 0.33732 0.0
C10 C 0.99014 0.27141 0.32722 0.0
C11 C 0.00742 0.2652 0.33431 0.0
C12 C 0.99443 0.29524 0.35429 0.0
H13 H 0.03123 0.26966 0.35671 0.0
C14 C 0.05702 0.28325 0.39328 0.0
O15 O 0.03496 0.26061 0.44135 0.0
O16 O 0.01906 0.24618 0.41407 0.0
N17 N 0.99943 0.31657 0.38189 0.0
C18 C 0.99473 0.33121 0.39358 0.0
C19 C 0.97791 0.33919 0.38848 0.0
C20 C 0.96622 0.33221 0.37134 0.0
C21 C 0.97135 0.31714 0.35954 0.0
C22 C 0.98835 0.30984 0.36531 0.0
H23 H 0.00379 0.33685 0.40663 0.0
O24 O 0.99877 0.27629 0.42538 0.0
O25 O 0.0111 0.28377 0.39862 0.0
O26 O 0.03499 0.30365 0.4315 0.0
O27 O 0.03387 0.32254 0.40669 0.0
C28 C 0.9603 0.3091 0.34227 0.0
C29 C 0.96623 0.29376 0.33126 0.0
H30 H 0.98211 0.26429 0.31405 0.0
H31 H 0.01266 0.25336 0.32663 0.0
H32 H 0.97403 0.3508 0.39766 0.0
H33 H 0.95337 0.33855 0.3674 0.0
H34 H 0.94712 0.31449 0.33739 0.0
H35 H 0.95745 0.28751 0.31816 0.0
Mn36 Mn 0.99554 0.7898 0.61083 0.0
Mn37 Mn 0.01604 0.82242 0.64789 0.0
C38 C 0.02697 0.78978 0.62395 0.0
C39 C 0.978 0.75941 0.59786 0.0
C40 C 0.01151 0.83358 0.60727 0.0
O41 O 0.97194 0.79884 0.62092 0.0
O42 O 0.9873 0.82036 0.64521 0.0
C43 C 1.00042 0.79955 0.67893 0.0
N44 N 0.01592 0.80895 0.6708 0.0
C45 C 0.03839 0.80262 0.69673 0.0
C46 C 0.02267 0.79293 0.70543 0.0
C47 C 0.00361 0.7913 0.69644 0.0
C48 C 0.03433 0.81032 0.67917 0.0
H49 H 0.98573 0.79839 0.67213 0.0
C50 C 0.97188 0.81146 0.63496 0.0
O51 O 0.97951 0.77495 0.58816 0.0
O52 O 0.98583 0.76179 0.61546 0.0
N53 N 0.04385 0.8259 0.65238 0.0
C54 C 0.05742 0.83551 0.642 0.0
C55 C 0.07725 0.83823 0.64893 0.0
C56 C 0.08289 0.83138 0.66661 0.0
C57 C 0.06863 0.82188 0.6772 0.0
C58 C 0.04911 0.81949 0.66952 0.0
H59 H 0.05315 0.841 0.6285 0.0
O60 O 0.02138 0.78251 0.60653 0.0
O61 O 0.01413 0.79694 0.6331 0.0
O62 O 0.00305 0.81653 0.60006 0.0
O63 O 0.01724 0.83748 0.62501 0.0
C64 C 0.07302 0.81474 0.69511 0.0
C65 C 0.05793 0.80497 0.7048 0.0
H66 H 0.02507 0.78665 0.719 0.0
H67 H 0.9914 0.7838 0.70304 0.0
H68 H 0.08815 0.84564 0.6407 0.0
H69 H 0.09819 0.83349 0.67191 0.0
H70 H 0.08798 0.81648 0.70147 0.0
H71 H 0.06152 0.79928 0.71843 0.0
Mn72 Mn 0.52255 0.77269 0.91712 0.0
Mn73 Mn 0.51719 0.80048 0.87978 0.0
C74 C 0.49198 0.7775 0.90534 0.0
C75 C 0.52502 0.74272 0.92964 0.0
C76 C 0.53213 0.81772 0.91997 0.0
O77 O 0.54829 0.77368 0.90566 0.0
O78 O 0.54204 0.79031 0.87985 0.0
C79 C 0.51334 0.76928 0.8481 0.0
N80 N 0.50603 0.78393 0.85737 0.0
C81 C 0.47791 0.77965 0.83409 0.0
C82 C 0.48517 0.76457 0.82425 0.0
C83 C 0.50293 0.75932 0.83132 0.0
C84 C 0.48891 0.78902 0.85075 0.0
H85 H 0.527 0.76522 0.85348 0.0
C86 C 0.55286 0.78076 0.89007 0.0
O87 O 0.53229 0.75943 0.93926 0.0
O88 O 0.51675 0.74339 0.91247 0.0
N89 N 0.4934 0.81092 0.87792 0.0
C90 C 0.48795 0.82508 0.88962 0.0
C91 C 0.47032 0.83175 0.88477 0.0
C92 C 0.45858 0.82393 0.86789 0.0
C93 C 0.46452 0.80941 0.85604 0.0
C94 C 0.48227 0.80341 0.86157 0.0
H95 H 0.49697 0.83126 0.90255 0.0
O96 O 0.49501 0.77254 0.92269 0.0
O97 O 0.50687 0.77951 0.89556 0.0
O98 O 0.53016 0.80139 0.92775 0.0
O99 O 0.52837 0.81904 0.90208 0.0
C100 C 0.45342 0.8005 0.83909 0.0
C101 C 0.46006 0.78556 0.82817 0.0
H102 H 0.47718 0.75683 0.81132 0.0
H103 H 0.5086 0.74765 0.82385 0.0
H104 H 0.46582 0.84293 0.894 0.0
H105 H 0.44501 0.82912 0.8642 0.0
H106 H 0.43962 0.80483 0.83445 0.0
H107 H 0.45124 0.7786 0.81534 0.0
Mn108 Mn 0.49573 0.29119 0.1195 0.0
Mn109 Mn 0.46174 0.28085 0.08158 0.0
C110 C 0.48369 0.2587 0.10854 0.0
C111 C 0.52796 0.29869 0.13257 0.0
C112 C 0.45355 0.2957 0.12087 0.0
O113 O 0.49724 0.31735 0.10707 0.0
O114 O 0.47751 0.30739 0.07971 0.0
C115 C 0.48726 0.27768 0.05078 0.0
N116 N 0.47225 0.26953 0.06029 0.0
C117 C 0.46742 0.2392 0.04009 0.0
C118 C 0.48257 0.24745 0.02983 0.0
C119 C 0.49259 0.26674 0.03526 0.0
C120 C 0.46266 0.25089 0.05533 0.0
H121 H 0.49526 0.29231 0.05515 0.0
C122 C 0.48986 0.32031 0.09045 0.0
O123 O 0.51403 0.30374 0.14165 0.0
O124 O 0.52322 0.2898 0.11559 0.0
N125 N 0.446 0.25525 0.08186 0.0
C126 C 0.43298 0.24883 0.09427 0.0
C127 C 0.42243 0.22944 0.09147 0.0
C128 C 0.42532 0.21686 0.07594 0.0
C129 C 0.43876 0.2238 0.06333 0.0
C130 C 0.44874 0.24332 0.06675 0.0
H131 H 0.4307 0.25839 0.10626 0.0
O132 O 0.49188 0.26281 0.12594 0.0
O133 O 0.48285 0.27369 0.09841 0.0
O134 O 0.47023 0.29475 0.12925 0.0
O135 O 0.44908 0.29199 0.10288 0.0
C136 C 0.44295 0.21196 0.04777 0.0
C137 C 0.45731 0.21964 0.03618 0.0
H138 H 0.48685 0.23899 0.01798 0.0
H139 H 0.50449 0.2731 0.0276 0.0
H140 H 0.41213 0.22417 0.10131 0.0
H141 H 0.41729 0.20185 0.07394 0.0
H142 H 0.43547 0.1968 0.04479 0.0
H143 H 0.4607 0.21025 0.02451 0.0
Mn144 Mn 0.99061 0.76452 0.15454 0.0
Mn145 Mn 0.95715 0.74851 0.11672 0.0
C146 C 0.98502 0.73159 0.14258 0.0
C147 C 0.02236 0.77745 0.16808 0.0
C148 C 0.94636 0.75778 0.1565 0.0
O149 O 0.98706 0.7902 0.14251 0.0
O150 O 0.9655 0.7777 0.11708 0.0
C151 C 0.98222 0.75701 0.08566 0.0
N152 N 0.97014 0.74384 0.09467 0.0
C153 C 0.9732 0.71706 0.07213 0.0
C154 C 0.98558 0.73036 0.06256 0.0
C155 C 0.99013 0.75042 0.06938 0.0
C156 C 0.96567 0.72451 0.08823 0.0
H157 H 0.98582 0.77242 0.09089 0.0
C158 C 0.97658 0.79221 0.1271 0.0
O159 O 0.00732 0.77904 0.17713 0.0
O160 O 0.01891 0.76899 0.15086 0.0
N161 N 0.94829 0.72046 0.11465 0.0
C162 C 0.93704 0.70935 0.12613 0.0
C163 C 0.93157 0.68886 0.12156 0.0
C164 C 0.93768 0.68002 0.10523 0.0
C165 C 0.94918 0.69177 0.09359 0.0
C166 C 0.95403 0.71214 0.09876 0.0
H167 H 0.93238 0.71604 0.13875 0.0
O168 O 0.99232 0.73646 0.16017 0.0
O169 O 0.98085 0.74602 0.13284 0.0
O170 O 0.96381 0.76252 0.16442 0.0
O171 O 0.94219 0.75239 0.13874 0.0
C172 C 0.95632 0.68401 0.07725 0.0
C173 C 0.96835 0.69664 0.06655 0.0
H174 H 0.99181 0.72532 0.05007 0.0
H175 H 0.99975 0.76076 0.06213 0.0
H176 H 0.92275 0.67989 0.13066 0.0
H177 H 0.9336 0.66419 0.10186 0.0
H178 H 0.95287 0.66831 0.07294 0.0
H179 H 0.97398 0.69045 0.05418 0.0
Mn180 Mn 0.51708 0.7886 0.37488 0.0
Mn181 Mn 0.50975 0.81398 0.33598 0.0
C182 C 0.48568 0.78851 0.36095 0.0
C183 C 0.52295 0.76042 0.38981 0.0
C184 C 0.51873 0.83367 0.37614 0.0
O185 O 0.54394 0.79304 0.36526 0.0
O186 O 0.53727 0.80955 0.33953 0.0
C187 C 0.51507 0.78306 0.30674 0.0
N188 N 0.50397 0.79576 0.31378 0.0
C189 C 0.4787 0.7857 0.28779 0.0
C190 C 0.48992 0.7726 0.28019 0.0
C191 C 0.50816 0.77124 0.28975 0.0
C192 C 0.48634 0.79709 0.30477 0.0
H193 H 0.52909 0.78195 0.31403 0.0
C194 C 0.54898 0.80166 0.35054 0.0
O195 O 0.52753 0.77798 0.39855 0.0
O196 O 0.51551 0.75923 0.3721 0.0
N197 N 0.48386 0.81926 0.33034 0.0
C198 C 0.4745 0.83205 0.33991 0.0
C199 C 0.45601 0.83504 0.3323 0.0
C200 C 0.4474 0.82498 0.31487 0.0
C201 C 0.45734 0.81198 0.30522 0.0
C202 C 0.47581 0.80974 0.31341 0.0
H203 H 0.48102 0.83982 0.35331 0.0
O204 O 0.48878 0.7847 0.37866 0.0
O205 O 0.50102 0.79221 0.3518 0.0
O206 O 0.52032 0.81787 0.38429 0.0
O207 O 0.51495 0.83397 0.35811 0.0
C208 C 0.4495 0.80092 0.28795 0.0
C209 C 0.46014 0.78772 0.27929 0.0
H210 H 0.48463 0.76344 0.26711 0.0
H211 H 0.51687 0.7611 0.28402 0.0
H212 H 0.4484 0.84504 0.33987 0.0
H213 H 0.4331 0.82725 0.30908 0.0
H214 H 0.43519 0.80224 0.28136 0.0
H215 H 0.45386 0.77911 0.26614 0.0
Mn216 Mn 0.49495 0.2631 0.65536 0.0
Mn217 Mn 0.46206 0.24851 0.61682 0.0
C218 C 0.48934 0.23051 0.64244 0.0
C219 C 0.52655 0.27552 0.66958 0.0
C220 C 0.45066 0.25672 0.65659 0.0
O221 O 0.49164 0.28931 0.64412 0.0
O222 O 0.47091 0.2776 0.61787 0.0
C223 C 0.48778 0.25721 0.58632 0.0
N224 N 0.47531 0.24402 0.59491 0.0
C225 C 0.47816 0.21754 0.57194 0.0
C226 C 0.49095 0.23087 0.5628 0.0
C227 C 0.4958 0.25078 0.57004 0.0
C228 C 0.47055 0.22482 0.58806 0.0
H229 H 0.49161 0.27251 0.59187 0.0
C230 C 0.48167 0.29182 0.62854 0.0
O231 O 0.51136 0.27682 0.67848 0.0
O232 O 0.52335 0.26772 0.6521 0.0
N233 N 0.45271 0.22055 0.61414 0.0
C234 C 0.44103 0.20938 0.62524 0.0
C235 C 0.43523 0.189 0.62023 0.0
C236 C 0.44142 0.18033 0.60386 0.0
C237 C 0.45333 0.19215 0.5926 0.0
C238 C 0.45852 0.21241 0.5982 0.0
H239 H 0.43626 0.21595 0.63785 0.0
O240 O 0.49648 0.2348 0.66014 0.0
O241 O 0.48542 0.24531 0.63311 0.0
O242 O 0.46798 0.2606 0.66492 0.0
O243 O 0.44682 0.25233 0.63862 0.0
C244 C 0.46054 0.18456 0.57623 0.0
C245 C 0.47298 0.19724 0.56593 0.0
H246 H 0.49725 0.22594 0.5503 0.0
H247 H 0.50573 0.26113 0.56311 0.0
H248 H 0.42606 0.17997 0.62902 0.0
H249 H 0.43707 0.16457 0.60015 0.0
H250 H 0.45684 0.16894 0.57159 0.0
H251 H 0.47866 0.19117 0.55354 0.0
Mn252 Mn 0.01952 0.29004 0.87458 0.0
Mn253 Mn 0.01277 0.31661 0.83644 0.0
C254 C 0.98836 0.28937 0.85952 0.0
C255 C 0.02538 0.26161 0.88912 0.0
C256 C 0.01973 0.33495 0.87713 0.0
O257 O 0.04686 0.29552 0.86595 0.0
O258 O 0.04049 0.31317 0.84096 0.0
C259 C 0.02073 0.28764 0.80661 0.0
N260 N 0.00869 0.29938 0.81358 0.0
C261 C 0.98524 0.29038 0.78593 0.0
C262 C 0.99743 0.27827 0.77841 0.0
C263 C 0.01521 0.27683 0.78884 0.0
C264 C 0.99146 0.30071 0.80376 0.0
H265 H 0.03445 0.28655 0.81452 0.0
C266 C 0.05217 0.30508 0.85181 0.0
O267 O 0.02936 0.27899 0.89826 0.0
O268 O 0.01867 0.26077 0.87122 0.0
N269 N 0.98668 0.32093 0.82995 0.0
C270 C 0.97611 0.33236 0.83967 0.0
C271 C 0.95767 0.33486 0.83144 0.0
C272 C 0.95043 0.32584 0.8132 0.0
C273 C 0.96168 0.31433 0.80338 0.0
C274 C 0.97989 0.31228 0.81234 0.0
H275 H 0.98161 0.33937 0.85367 0.0
O276 O 0.99091 0.28522 0.87718 0.0
O277 O 0.00409 0.29389 0.85111 0.0
O278 O 0.0218 0.31901 0.8848 0.0
O279 O 0.01627 0.33575 0.85913 0.0
C280 C 0.95543 0.30462 0.78515 0.0
C281 C 0.96712 0.29251 0.7765 0.0
H282 H 0.99325 0.26995 0.76469 0.0
H283 H 0.02467 0.26747 0.78316 0.0
H284 H 0.94907 0.34373 0.83914 0.0
H285 H 0.93618 0.32775 0.80692 0.0
H286 H 0.94153 0.30615 0.77775 0.0
H287 H 0.96198 0.28484 0.76262 0.0
Mn288 Mn 0.4063 0.06977 0.25092 0.0
Mn289 Mn 0.3681 0.06556 0.27738 0.0
C290 C 0.38977 0.03878 0.2561 0.0
C291 C 0.41917 0.07246 0.22144 0.0
C292 C 0.41031 0.07554 0.29466 0.0
O293 O 0.39887 0.09754 0.25135 0.0
O294 O 0.37197 0.092 0.267 0.0
C295 C 0.33623 0.0663 0.24677 0.0
N296 N 0.3442 0.05707 0.26132 0.0
C297 C 0.31689 0.03024 0.25733 0.0
C298 C 0.30834 0.03953 0.24238 0.0
C299 C 0.31808 0.05761 0.23705 0.0
C300 C 0.33499 0.03963 0.26652 0.0
H301 H 0.34367 0.08017 0.24261 0.0
C302 C 0.38397 0.103 0.25791 0.0
O303 O 0.42988 0.07829 0.23748 0.0
O304 O 0.40082 0.06608 0.22249 0.0
N305 N 0.3625 0.04053 0.28808 0.0
C306 C 0.37316 0.03299 0.30214 0.0
C307 C 0.36565 0.01474 0.30885 0.0
C308 C 0.34722 0.00451 0.30115 0.0
C309 C 0.33645 0.01262 0.2868 0.0
C310 C 0.34461 0.03094 0.28079 0.0
H311 H 0.3873 0.04079 0.30819 0.0
O312 O 0.4074 0.04083 0.25133 0.0
O313 O 0.3823 0.05484 0.2576 0.0
O314 O 0.41804 0.0742 0.27905 0.0
O315 O 0.39194 0.07374 0.29543 0.0
C316 C 0.31808 0.00309 0.27801 0.0
C317 C 0.30834 0.01187 0.26325 0.0
H318 H 0.29438 0.03284 0.23479 0.0
H319 H 0.31162 0.06483 0.22546 0.0
H320 H 0.37406 0.00857 0.31991 0.0
H321 H 0.34152 0.99039 0.30628 0.0
H322 H 0.31147 0.98886 0.28228 0.0
H323 H 0.29436 0.00426 0.2564 0.0
Mn324 Mn 0.27085 0.16313 0.49055 0.0
Mn325 Mn 0.26398 0.12695 0.45492 0.0
C326 C 0.23996 0.15126 0.47576 0.0
C327 C 0.27314 0.17422 0.52241 0.0
C328 C 0.2816 0.16954 0.45037 0.0
O329 O 0.29546 0.15125 0.49426 0.0
O330 O 0.28876 0.12616 0.47111 0.0
C331 C 0.25857 0.09161 0.47719 0.0
N332 N 0.25168 0.10252 0.46342 0.0
C333 C 0.22174 0.07912 0.45702 0.0
C334 C 0.2286 0.06755 0.471 0.0
C335 C 0.24709 0.07384 0.48113 0.0
C336 C 0.23395 0.09654 0.45349 0.0
H337 H 0.27266 0.09647 0.48518 0.0
C338 C 0.29952 0.13587 0.48551 0.0
O339 O 0.28136 0.18512 0.51006 0.0
O340 O 0.26411 0.15654 0.51635 0.0
N341 N 0.2401 0.12613 0.43894 0.0
C342 C 0.23491 0.13988 0.42724 0.0
C343 C 0.21639 0.13636 0.4168 0.0
C344 C 0.20341 0.11879 0.41853 0.0
C345 C 0.20906 0.10488 0.4307 0.0
C346 C 0.22778 0.1091 0.4406 0.0
H347 H 0.24473 0.15351 0.42601 0.0
O348 O 0.24405 0.16899 0.48426 0.0
O349 O 0.25426 0.14137 0.47577 0.0
O350 O 0.27997 0.17599 0.46727 0.0
O351 O 0.27632 0.15139 0.44421 0.0
C352 C 0.19667 0.08725 0.43376 0.0
C353 C 0.20302 0.07436 0.44688 0.0
H354 H 0.21968 0.05397 0.47426 0.0
H355 H 0.25242 0.06508 0.49205 0.0
H356 H 0.21209 0.14723 0.40754 0.0
H357 H 0.18906 0.11623 0.41061 0.0
H358 H 0.18211 0.08361 0.42632 0.0
H359 H 0.19323 0.06101 0.44934 0.0
Mn360 Mn 0.13846 0.00546 0.78543 0.0
Mn361 Mn 0.17572 0.01696 0.82049 0.0
C362 C 0.15207 0.03823 0.79406 0.0
C363 C 0.12631 0.99774 0.75345 0.0
C364 C 0.13369 0.00417 0.8281 0.0
O365 O 0.14862 0.97941 0.78736 0.0
O366 O 0.17395 0.98897 0.81011 0.0
C367 C 0.20863 0.0145 0.79748 0.0
N368 N 0.19951 0.02511 0.80964 0.0
C369 C 0.22462 0.05375 0.81009 0.0
C370 C 0.23434 0.04308 0.79768 0.0
C371 C 0.22629 0.02338 0.79133 0.0
C372 C 0.20715 0.04407 0.81588 0.0
H373 H 0.20245 0.9994 0.79247 0.0
C374 C 0.16346 0.97602 0.79784 0.0
O375 O 0.11571 0.99295 0.76713 0.0
O376 O 0.1442 0.00639 0.75837 0.0
N377 N 0.17919 0.04372 0.83136 0.0
C378 C 0.16732 0.05238 0.84222 0.0
C379 C 0.17291 0.07233 0.84913 0.0
C380 C 0.19063 0.08314 0.84487 0.0
C381 C 0.20265 0.07388 0.83378 0.0
C382 C 0.19641 0.05391 0.82743 0.0
H383 H 0.15362 0.04419 0.84543 0.0
O384 O 0.13442 0.03365 0.78568 0.0
O385 O 0.16113 0.02349 0.79728 0.0
O386 O 0.1265 0.0022 0.81067 0.0
O387 O 0.15192 0.00932 0.83329 0.0
C388 C 0.22035 0.08382 0.8284 0.0
C389 C 0.23133 0.07376 0.81657 0.0
H390 H 0.24788 0.04993 0.79277 0.0
H391 H 0.23365 0.01509 0.78167 0.0
H392 H 0.16351 0.07939 0.85762 0.0
H393 H 0.19477 0.09859 0.85003 0.0
H394 H 0.22551 0.09928 0.83304 0.0
H395 H 0.24477 0.08164 0.8123 0.0
Mn396 Mn 0.22369 0.89017 0.02346 0.0
Mn397 Mn 0.23453 0.92949 0.99726 0.0
C398 C 0.25598 0.90348 0.0205 0.0
C399 C 0.21858 0.87661 0.05293 0.0
C400 C 0.22157 0.8874 0.97933 0.0
O401 O 0.19784 0.90126 0.02115 0.0
O402 O 0.20741 0.92716 0.0041 0.0
C403 C 0.23325 0.96108 0.02739 0.0
N404 N 0.24304 0.95283 0.01411 0.0
C405 C 0.27094 0.97877 0.02132 0.0
C406 C 0.26111 0.98762 0.03499 0.0
C407 C 0.24221 0.9787 0.03808 0.0
C408 C 0.26129 0.9612 0.01113 0.0
H409 H 0.21874 0.95427 0.02983 0.0
C410 C 0.19463 0.91667 0.0128 0.0
O411 O 0.21245 0.86645 0.03673 0.0
O412 O 0.22644 0.89494 0.05198 0.0
N413 N 0.26033 0.9339 0.98962 0.0
C414 C 0.268 0.92325 0.97622 0.0
C415 C 0.28685 0.93015 0.97147 0.0
C416 C 0.29753 0.94802 0.98037 0.0
C417 C 0.28926 0.95884 0.99395 0.0
C418 C 0.27034 0.95133 0.99797 0.0
H419 H 0.25983 0.90958 0.96921 0.0
O420 O 0.2513 0.88544 0.02502 0.0
O421 O 0.24171 0.91333 0.01791 0.0
O422 O 0.21937 0.87908 0.99495 0.0
O423 O 0.22662 0.9061 0.97882 0.0
C424 C 0.29914 0.97666 0.00382 0.0
C425 C 0.29002 0.98657 0.01756 0.0
H426 H 0.26797 0.00119 0.04328 0.0
H427 H 0.23456 0.98539 0.04867 0.0
H428 H 0.29312 0.92173 0.96096 0.0
H429 H 0.31207 0.95328 0.9767 0.0
H430 H 0.31384 0.98274 1.00112 0.0
H431 H 0.29785 1.00013 0.02522 0.0
Mn432 Mn 0.25392 0.40977 0.04113 0.0
Mn433 Mn 0.27173 0.44986 0.01853 0.0
C434 C 0.28709 0.41982 0.04233 0.0
C435 C 0.24137 0.39431 0.06669 0.0
C436 C 0.25875 0.4094 0.99826 0.0
O437 O 0.23003 0.42252 0.03586 0.0
O438 O 0.2433 0.44761 0.01975 0.0
C439 C 0.26531 0.479 0.04894 0.0
N440 N 0.27745 0.47179 0.03737 0.0
C441 C 0.30431 0.49716 0.05018 0.0
C442 C 0.29208 0.50493 0.06217 0.0
C443 C 0.27251 0.49575 0.0616 0.0
C444 C 0.29638 0.48026 0.03809 0.0
H445 H 0.25024 0.47203 0.0485 0.0
C446 C 0.22875 0.43743 0.02628 0.0
O447 O 0.23763 0.38615 0.0494 0.0
O448 O 0.25202 0.41187 0.06913 0.0
N449 N 0.29894 0.45483 0.01559 0.0
C450 C 0.30838 0.44633 1.00214 0.0
C451 C 0.32775 0.45443 1.0 0.0
C452 C 0.33717 0.47133 0.01153 0.0
C453 C 0.32704 0.4801 0.02496 0.0
C454 C 0.30763 0.47158 0.0262 0.0
H455 H 0.3011 0.43359 0.99295 0.0
O456 O 0.27989 0.40191 0.04577 0.0
O457 O 0.27474 0.43185 0.039 0.0
O458 O 0.25282 0.40123 0.01286 0.0
O459 O 0.26658 0.42763 0.99859 0.0
C460 C 0.33533 0.49717 0.03693 0.0
C461 C 0.32402 0.50559 0.04966 0.0
H462 H 0.29754 0.51795 0.07184 0.0
H463 H 0.26298 0.50163 0.07083 0.0
H464 H 0.33534 0.44775 0.98936 0.0
H465 H 0.3521 0.47758 0.0098 0.0
H466 H 0.35037 0.50397 0.03641 0.0
H467 H 0.33056 0.51869 0.05882 0.0
Mn468 Mn 0.79557 0.1788 0.01284 0.0
Mn469 Mn 0.78357 0.13969 0.97985 0.0
C470 C 0.76324 0.16412 0.00494 0.0
C471 C 0.8031 0.19241 0.04473 0.0
C472 C 0.79321 0.18212 0.96923 0.0
O473 O 0.8217 0.16878 0.01156 0.0
O474 O 0.81174 0.14315 0.9893 0.0
C475 C 0.78947 0.10804 0.0054 0.0
N476 N 0.7777 0.11602 0.99265 0.0
C477 C 0.75104 0.08932 0.99433 0.0
C478 C 0.76291 0.08076 0.00738 0.0
C479 C 0.7822 0.09019 0.01297 0.0
C480 C 0.75909 0.10711 0.98725 0.0
H481 H 0.80428 0.11526 0.00979 0.0
C482 C 0.82489 0.15395 1.00109 0.0
O483 O 0.80752 0.20273 0.03045 0.0
O484 O 0.7956 0.17391 0.04052 0.0
N485 N 0.75674 0.13431 0.96957 0.0
C486 C 0.74698 0.14481 0.95733 0.0
C487 C 0.7274 0.13755 0.95063 0.0
C488 C 0.7181 0.11949 0.9564 0.0
C489 C 0.72853 0.10879 0.96875 0.0
C490 C 0.74805 0.1167 0.97489 0.0
H491 H 0.75404 0.15869 0.95281 0.0
O492 O 0.76768 0.18225 0.01233 0.0
O493 O 0.77782 0.15508 0.00232 0.0
O494 O 0.7968 0.1902 0.98632 0.0
O495 O 0.78868 0.1634 0.9654 0.0
C496 C 0.72023 0.0907 0.9754 0.0
C497 C 0.73145 0.08102 0.98825 0.0
H498 H 0.75735 0.06702 0.01329 0.0
H499 H 0.79143 0.08373 0.02311 0.0
H500 H 0.71946 0.14589 0.94107 0.0
H501 H 0.70295 0.11402 0.95132 0.0
H502 H 0.70517 0.08423 0.97091 0.0
H503 H 0.72483 0.06726 0.99347 0.0
Mn504 Mn 0.11097 0.49837 0.27602 0.0
Mn505 Mn 0.15079 0.51344 0.30785 0.0
C506 C 0.12586 0.53136 0.27981 0.0
C507 C 0.0962 0.48792 0.24495 0.0
C508 C 0.10975 0.50469 0.31948 0.0
O509 O 0.12077 0.47224 0.28051 0.0
O510 O 0.14701 0.48435 0.30156 0.0
C511 C 0.181 0.50465 0.28347 0.0
N512 N 0.17362 0.5178 0.29471 0.0
C513 C 0.20016 0.5439 0.29079 0.0
C514 C 0.2081 0.5306 0.27927 0.0
C515 C 0.19845 0.51091 0.27556 0.0
C516 C 0.18278 0.53678 0.29837 0.0
H517 H 0.17364 0.48951 0.28054 0.0
C518 C 0.13594 0.47002 0.29131 0.0
O519 O 0.08672 0.48502 0.25977 0.0
O520 O 0.11452 0.49559 0.24831 0.0
N521 N 0.1564 0.54135 0.31487 0.0
C522 C 0.1461 0.55266 0.32509 0.0
C523 C 0.15344 0.5729 0.32949 0.0
C524 C 0.17131 0.58128 0.32342 0.0
C525 C 0.18169 0.56935 0.31299 0.0
C526 C 0.17372 0.54923 0.30915 0.0
H527 H 0.13228 0.54636 0.32964 0.0
O528 O 0.10766 0.52653 0.27313 0.0
O529 O 0.13471 0.51687 0.28442 0.0
O530 O 0.1011 0.4994 0.30273 0.0
O531 O 0.1282 0.51001 0.32282 0.0
C532 C 0.19937 0.57673 0.30584 0.0
C533 C 0.20859 0.56402 0.29473 0.0
H534 H 0.2215 0.5354 0.27305 0.0
H535 H 0.20444 0.50059 0.26661 0.0
H536 H 0.14528 0.58203 0.33745 0.0
H537 H 0.17681 0.59695 0.32665 0.0
H538 H 0.20582 0.59224 0.3085 0.0
H539 H 0.22202 0.56994 0.28905 0.0
Mn540 Mn 0.75699 0.91247 0.54402 0.0
Mn541 Mn 0.77699 0.9524 0.52235 0.0
C542 C 0.79041 0.92203 0.54693 0.0
C543 C 0.74277 0.89758 0.56912 0.0
C544 C 0.76235 0.91218 0.50148 0.0
O545 O 0.7338 0.92603 0.53741 0.0
O546 O 0.74897 0.95258 0.52432 0.0
C547 C 0.77346 0.98286 0.55274 0.0
N548 N 0.78463 0.97431 0.54102 0.0
C549 C 0.81279 0.99892 0.55192 0.0
C550 C 0.80159 0.00805 0.56407 0.0
C551 C 0.78187 0.99989 0.56458 0.0
C552 C 0.80372 0.98172 0.54078 0.0
H553 H 0.75824 0.97677 0.55298 0.0
C554 C 0.73375 0.94232 0.52968 0.0
O555 O 0.73963 0.88929 0.55185 0.0
O556 O 0.7538 0.91493 0.57177 0.0
N557 N 0.8041 0.95487 0.51912 0.0
C558 C 0.8128 0.94444 0.50639 0.0
C559 C 0.83254 0.95069 0.50408 0.0
C560 C 0.84297 0.96791 0.51443 0.0
C561 C 0.83356 0.97872 0.52702 0.0
C562 C 0.81395 0.97162 0.52893 0.0
H563 H 0.80473 0.93147 0.49804 0.0
O564 O 0.78271 0.90415 0.55005 0.0
O565 O 0.77839 0.93412 0.54273 0.0
O566 O 0.7569 0.90362 0.51602 0.0
O567 O 0.76997 0.93047 0.50209 0.0
C568 C 0.8428 0.9964 0.53757 0.0
C569 C 0.83252 0.00632 0.55024 0.0
H570 H 0.80797 0.02134 0.57303 0.0
H571 H 0.77313 0.00684 0.57393 0.0
H572 H 0.83964 0.94235 0.49421 0.0
H573 H 0.85817 0.97275 0.51253 0.0
H574 H 0.85788 0.00242 0.53618 0.0
H575 H 0.83989 0.01973 0.5585 0.0
Mn576 Mn 0.87248 0.04797 0.23642 0.0
Mn577 Mn 0.83338 0.03601 0.26092 0.0
C578 C 0.85901 0.01503 0.2381 0.0
C579 C 0.88776 0.05684 0.20938 0.0
C580 C 0.87434 0.04673 0.28018 0.0
O581 O 0.86258 0.07425 0.2392 0.0
O582 O 0.83803 0.06468 0.25683 0.0
C583 C 0.80394 0.04315 0.2303 0.0
N584 N 0.81061 0.03095 0.24293 0.0
C585 C 0.78271 0.00548 0.23365 0.0
C586 C 0.77548 0.0178 0.22061 0.0
C587 C 0.7862 0.03668 0.21886 0.0
C588 C 0.80057 0.01264 0.2445 0.0
H589 H 0.81208 0.05771 0.22899 0.0
C590 C 0.84876 0.07785 0.24867 0.0
O591 O 0.8965 0.06117 0.2265 0.0
O592 O 0.86975 0.0478 0.20787 0.0
N593 N 0.82652 0.00897 0.26642 0.0
C594 C 0.83551 0.99895 0.2797 0.0
C595 C 0.82667 0.97981 0.28324 0.0
C596 C 0.80849 0.97137 0.27344 0.0
C597 C 0.7993 0.98215 0.26016 0.0
C598 C 0.80884 0.00114 0.2572 0.0
H599 H 0.84933 0.0055 0.28752 0.0
O600 O 0.87688 0.02003 0.23436 0.0
O601 O 0.84916 0.02942 0.24039 0.0
O602 O 0.8822 0.05054 0.26494 0.0
O603 O 0.85611 0.04063 0.28041 0.0
C604 C 0.78108 0.97481 0.24971 0.0
C605 C 0.77287 0.98638 0.23634 0.0
H606 H 0.76175 0.01291 0.21184 0.0
H607 H 0.78075 0.04626 0.20879 0.0
H608 H 0.83381 0.97162 0.29357 0.0
H609 H 0.80172 0.95662 0.27622 0.0
H610 H 0.77329 0.96022 0.25176 0.0
H611 H 0.75896 0.98048 0.22825 0.0
Mn612 Mn 0.29433 0.67762 0.50774 0.0
Mn613 Mn 0.28212 0.63831 0.47503 0.0
C614 C 0.26191 0.66327 0.4997 0.0
C615 C 0.30172 0.69118 0.53971 0.0
C616 C 0.29247 0.68056 0.46402 0.0
O617 O 0.32028 0.6672 0.5068 0.0
O618 O 0.31022 0.64141 0.48473 0.0
C619 C 0.28729 0.60678 0.50094 0.0
N620 N 0.27576 0.61484 0.48803 0.0
C621 C 0.24861 0.58875 0.49002 0.0
C622 C 0.26024 0.58011 0.50323 0.0
C623 C 0.27965 0.58919 0.50874 0.0
C624 C 0.25704 0.60626 0.48268 0.0
H625 H 0.30219 0.61374 0.50529 0.0
C626 C 0.32338 0.65216 0.49657 0.0
O627 O 0.30639 0.70149 0.52548 0.0
O628 O 0.294 0.67277 0.5354 0.0
N629 N 0.25532 0.63328 0.46461 0.0
C630 C 0.24583 0.64387 0.45224 0.0
C631 C 0.22616 0.63697 0.44561 0.0
C632 C 0.21649 0.61919 0.45162 0.0
C633 C 0.22664 0.6084 0.46413 0.0
C634 C 0.24627 0.61593 0.47015 0.0
H635 H 0.25316 0.65755 0.44756 0.0
O636 O 0.26651 0.68144 0.50695 0.0
O637 O 0.27639 0.65404 0.49726 0.0
O638 O 0.29599 0.68879 0.48108 0.0
O639 O 0.28771 0.66183 0.46037 0.0
C640 C 0.21795 0.59062 0.47107 0.0
C641 C 0.22891 0.58084 0.48406 0.0
H642 H 0.25438 0.56658 0.50934 0.0
H643 H 0.28869 0.58266 0.519 0.0
H644 H 0.21844 0.64538 0.43594 0.0
H645 H 0.20127 0.61402 0.44662 0.0
H646 H 0.20278 0.58447 0.4667 0.0
H647 H 0.22199 0.56732 0.4895 0.0
Mn648 Mn 0.37617 0.54989 0.73983 0.0
Mn649 Mn 0.33706 0.53772 0.76428 0.0
C650 C 0.36333 0.51692 0.74216 0.0
C651 C 0.39111 0.55855 0.71258 0.0
C652 C 0.37798 0.55011 0.78363 0.0
O653 O 0.36556 0.57581 0.74199 0.0
O654 O 0.34039 0.56605 0.75885 0.0
C655 C 0.30722 0.54207 0.73288 0.0
N656 N 0.31452 0.53082 0.74609 0.0
C657 C 0.28843 0.50346 0.73664 0.0
C658 C 0.28056 0.51479 0.723 0.0
C659 C 0.29004 0.53415 0.72107 0.0
C660 C 0.30568 0.51208 0.74787 0.0
H661 H 0.31444 0.55697 0.73137 0.0
C662 C 0.35109 0.57921 0.75062 0.0
O663 O 0.39991 0.56335 0.72963 0.0
O664 O 0.37326 0.5491 0.71127 0.0
N665 N 0.33153 0.51089 0.77087 0.0
C666 C 0.34074 0.50213 0.78505 0.0
C667 C 0.33298 0.48278 0.789 0.0
C668 C 0.31565 0.4728 0.77861 0.0
C669 C 0.30611 0.48235 0.7645 0.0
C670 C 0.3145 0.50165 0.76122 0.0
H671 H 0.35394 0.50981 0.79325 0.0
O672 O 0.38116 0.52208 0.73833 0.0
O673 O 0.35326 0.53114 0.74416 0.0
O674 O 0.3859 0.55317 0.7683 0.0
O675 O 0.35973 0.54414 0.78393 0.0
C676 C 0.28858 0.47349 0.75357 0.0
C677 C 0.27984 0.48397 0.73954 0.0
H678 H 0.26727 0.50877 0.71393 0.0
H679 H 0.28409 0.54297 0.71054 0.0
H680 H 0.34035 0.47558 0.80004 0.0
H681 H 0.30977 0.45783 0.78162 0.0
H682 H 0.28173 0.45858 0.7558 0.0
H683 H 0.26645 0.47693 0.73112 0.0
Mn684 Mn 0.61047 0.99405 0.7755 0.0
Mn685 Mn 0.65072 0.00301 0.8074 0.0
C686 C 0.6276 0.02593 0.78236 0.0
C687 C 0.59568 0.98702 0.74399 0.0
C688 C 0.60963 0.99628 0.81918 0.0
O689 O 0.618 0.96658 0.77705 0.0
O690 O 0.64485 0.9744 0.7983 0.0
C691 C 0.67954 0.99467 0.78118 0.0
N692 N 0.67332 0.00732 0.79392 0.0
C693 C 0.70075 0.03277 0.79095 0.0
C694 C 0.70751 0.01996 0.77791 0.0
C695 C 0.69683 1.00084 0.77298 0.0
C696 C 0.68346 0.02577 0.79872 0.0
H697 H 0.67136 0.97998 0.77726 0.0
C698 C 0.63269 0.96197 0.78691 0.0
O699 O 0.58578 0.98366 0.75848 0.0
O700 O 0.6142 0.99349 0.74785 0.0
N701 N 0.65834 0.03015 0.81707 0.0
C702 C 0.64942 0.04101 0.82923 0.0
C703 C 0.65807 0.06061 0.83529 0.0
C704 C 0.67582 0.06882 0.82888 0.0
C705 C 0.68482 0.05732 0.81653 0.0
C706 C 0.67561 0.03781 0.8111 0.0
H707 H 0.63572 0.03485 0.83412 0.0
O708 O 0.60941 0.02299 0.77547 0.0
O709 O 0.63517 0.01017 0.78516 0.0
O710 O 0.60072 0.99342 0.80228 0.0
O711 O 0.6282 0.99952 0.82252 0.0
C712 C 0.70242 0.06455 0.80915 0.0
C713 C 0.71034 0.05231 0.79632 0.0
H714 H 0.72079 0.0247 0.77148 0.0
H715 H 0.7019 0.99091 0.76284 0.0
H716 H 0.65101 0.06941 0.84479 0.0
H717 H 0.68235 0.08402 0.83342 0.0
H718 H 0.70984 0.0796 0.81305 0.0
H719 H 0.72374 0.05814 0.79054 0.0
Mn720 Mn 0.77378 0.671 0.99598 0.0
Mn721 Mn 0.75732 0.63398 0.96186 0.0
C722 C 0.74074 0.66121 0.9877 0.0
C723 C 0.78381 0.68288 0.02732 0.0
C724 C 0.77624 0.67517 0.95366 0.0
O725 O 0.79699 0.65695 0.99431 0.0
O726 O 0.78365 0.63095 0.97338 0.0
C727 C 0.75333 0.59951 0.98533 0.0
N728 N 0.74518 0.61091 0.97281 0.0
C729 C 0.71369 0.59031 0.97202 0.0
C730 C 0.72179 0.57828 0.98481 0.0
C731 C 0.74169 0.58292 0.9915 0.0
C732 C 0.72605 0.60652 0.9662 0.0
H733 H 0.76858 0.60309 0.99065 0.0
C734 C 0.79763 0.64041 0.98527 0.0
O735 O 0.78931 0.69287 0.0132 0.0
O736 O 0.77294 0.66559 0.02322 0.0
N737 N 0.7317 0.63533 0.95033 0.0
C738 C 0.72582 0.64935 0.93936 0.0
C739 C 0.7061 0.64743 0.93224 0.0
C740 C 0.69265 0.63114 0.93649 0.0
C741 C 0.69903 0.6169 0.9478 0.0
C742 C 0.7189 0.61949 0.95434 0.0
H743 H 0.73606 0.66198 0.93618 0.0
O744 O 0.74745 0.67891 0.99557 0.0
O745 O 0.75362 0.65011 0.98465 0.0
O746 O 0.77798 0.68255 0.97078 0.0
O747 O 0.76916 0.65702 0.9487 0.0
C748 C 0.68639 0.6005 0.95322 0.0
C749 C 0.69371 0.5872 0.9653 0.0
H750 H 0.71282 0.5656 0.98977 0.0
H751 H 0.74803 0.57378 1.00147 0.0
H752 H 0.70127 0.65854 0.92361 0.0
H753 H 0.67741 0.62984 0.93116 0.0
H754 H 0.67094 0.59817 0.94845 0.0
H755 H 0.68379 0.57483 0.96962 0.0
Mn756 Mn 0.90623 0.56631 0.75265 0.0
Mn757 Mn 0.86652 0.5594 0.7769 0.0
C758 C 0.89135 0.53454 0.75758 0.0
C759 C 0.92001 0.56999 0.7237 0.0
C760 C 0.90787 0.57241 0.79619 0.0
O761 O 0.897 0.59326 0.75247 0.0
O762 O 0.86879 0.58542 0.76567 0.0
C763 C 0.83553 0.55672 0.7447 0.0
N764 N 0.84367 0.54872 0.76001 0.0
C765 C 0.81794 0.52035 0.7561 0.0
C766 C 0.80921 0.52838 0.74037 0.0
C767 C 0.81811 0.5466 0.7346 0.0
C768 C 0.83537 0.53107 0.76554 0.0
H769 H 0.84231 0.57069 0.74024 0.0
C770 C 0.88086 0.59728 0.75741 0.0
O771 O 0.93007 0.57616 0.74001 0.0
O772 O 0.90179 0.5626 0.72419 0.0
N773 N 0.86232 0.53463 0.78829 0.0
C774 C 0.87298 0.5285 0.80327 0.0
C775 C 0.86632 0.51029 0.8105 0.0
C776 C 0.84865 0.49868 0.80245 0.0
C777 C 0.83779 0.50542 0.78724 0.0
C778 C 0.84516 0.52368 0.78061 0.0
H779 H 0.88649 0.53739 0.80966 0.0
O780 O 0.90921 0.53783 0.75344 0.0
O781 O 0.88265 0.54981 0.7584 0.0
O782 O 0.91665 0.57138 0.78117 0.0
O783 O 0.8893 0.56968 0.79577 0.0
C784 C 0.82 0.49464 0.7783 0.0
C785 C 0.81014 0.50204 0.76267 0.0
H786 H 0.79576 0.52062 0.73256 0.0
H787 H 0.81152 0.55286 0.72241 0.0
H788 H 0.87478 0.50522 0.82227 0.0
H789 H 0.84359 0.48461 0.80801 0.0
H790 H 0.81391 0.4805 0.78315 0.0
H791 H 0.79664 0.49345 0.7557 0.0
Mn792 Mn 0.72394 0.39023 0.5271 0.0
Mn793 Mn 0.73464 0.42908 0.50031 0.0
C794 C 0.75619 0.40362 0.52413 0.0
C795 C 0.71876 0.37682 0.55658 0.0
C796 C 0.72197 0.38677 0.48301 0.0
O797 O 0.69805 0.40121 0.52456 0.0
O798 O 0.70744 0.42669 0.50694 0.0
C799 C 0.73292 0.46112 0.52984 0.0
N800 N 0.74288 0.45272 0.51681 0.0
C801 C 0.77056 0.47895 0.52376 0.0
C802 C 0.76055 0.48794 0.53718 0.0
C803 C 0.74167 0.47895 0.54027 0.0
C804 C 0.7611 0.46117 0.51382 0.0
H805 H 0.71842 0.45425 0.53228 0.0
C806 C 0.69472 0.41636 0.51584 0.0
O807 O 0.71264 0.36664 0.5404 0.0
O808 O 0.72664 0.39515 0.55562 0.0
N809 N 0.76051 0.43354 0.49282 0.0
C810 C 0.76839 0.4227 0.47975 0.0
C811 C 0.78727 0.4296 0.47509 0.0
C812 C 0.79776 0.44767 0.48374 0.0
C813 C 0.78927 0.45869 0.49697 0.0
C814 C 0.77034 0.45115 0.50093 0.0
H815 H 0.76037 0.40886 0.47294 0.0
O816 O 0.75157 0.38563 0.52882 0.0
O817 O 0.74187 0.41337 0.52133 0.0
O818 O 0.71969 0.37878 0.49877 0.0
O819 O 0.72701 0.40542 0.48216 0.0
C820 C 0.79895 0.47672 0.50658 0.0
C821 C 0.78963 0.4868 0.52003 0.0
H822 H 0.76726 0.50168 0.54527 0.0
H823 H 0.73389 0.48576 0.55066 0.0
H824 H 0.79373 0.42102 0.46485 0.0
H825 H 0.81234 0.45292 0.48015 0.0
H826 H 0.81366 0.48284 0.50392 0.0
H827 H 0.79731 0.50053 0.5275 0.0
Mn828 Mn 0.63779 0.50635 0.2885 0.0
Mn829 Mn 0.67485 0.51864 0.32366 0.0
C830 C 0.64994 0.53934 0.29782 0.0
C831 C 0.6258 0.49866 0.25654 0.0
C832 C 0.63316 0.50367 0.33105 0.0
O833 O 0.64922 0.48099 0.28978 0.0
O834 O 0.6743 0.4911 0.31263 0.0
C835 C 0.70805 0.51846 0.30059 0.0
N836 N 0.69845 0.52816 0.31304 0.0
C837 C 0.72287 0.55753 0.31475 0.0
C838 C 0.73308 0.54781 0.30205 0.0
C839 C 0.72561 0.5282 0.29491 0.0
C840 C 0.7055 0.54703 0.31999 0.0
H841 H 0.70235 0.5034 0.29502 0.0
C842 C 0.66434 0.47807 0.3001 0.0
O843 O 0.61548 0.493 0.27018 0.0
O844 O 0.64331 0.50834 0.26148 0.0
N845 N 0.67722 0.54501 0.33519 0.0
C846 C 0.66488 0.55276 0.34618 0.0
C847 C 0.66983 0.57251 0.35383 0.0
C848 C 0.68744 0.58405 0.35022 0.0
C849 C 0.69995 0.57573 0.33896 0.0
C850 C 0.69429 0.55594 0.33177 0.0
H851 H 0.6513 0.54398 0.34896 0.0
O852 O 0.63235 0.53407 0.2894 0.0
O853 O 0.65981 0.52512 0.30067 0.0
O854 O 0.62599 0.50178 0.31363 0.0
O855 O 0.65127 0.50956 0.33632 0.0
C856 C 0.71762 0.58642 0.33427 0.0
C857 C 0.72904 0.57735 0.32213 0.0
H858 H 0.74657 0.55531 0.29754 0.0
H859 H 0.73335 0.52063 0.28502 0.0
H860 H 0.66007 0.57885 0.36245 0.0
H861 H 0.69113 0.59934 0.35602 0.0
H862 H 0.72241 0.60173 0.33968 0.0
H863 H 0.74243 0.58583 0.31835 0.0
Tb864 Tb 0.01256 0.05319 0.00958 0.0
C865 C 0.01464 0.01738 0.98045 0.0
Tb866 Tb 1.00106 0.01067 0.02163 0.0
O867 O 0.0427 0.04899 0.00749 0.0
O868 O 0.02602 0.03312 0.02604 0.0
O869 O 0.01207 0.03608 0.98256 0.0
C870 C 1.00002 0.97454 0.03406 0.0
O871 O 0.01259 0.00514 0.99432 0.0
C872 C 0.97186 0.02952 0.01229 0.0
C873 C 0.99928 0.0464 0.05086 0.0
O874 O 0.98808 0.97912 0.02044 0.0
O875 O 0.01258 0.99019 0.04035 0.0
O876 O 0.97109 0.01565 0.02403 0.0
O877 O 0.98778 0.03064 0.00507 0.0
O878 O 0.00205 0.02775 0.04876 0.0
O879 O 1.00108 0.05862 0.03695 0.0
C880 C 0.01239 0.08871 0.99608 0.0
O881 O 0.02436 0.08504 0.01017 0.0
O882 O 1.00047 0.07253 0.99003 0.0
C883 C 0.04198 0.03469 0.01876 0.0
Tb884 Tb 0.26256 0.80802 0.2646 0.0
C885 C 0.29298 0.77937 0.26676 0.0
Tb886 Tb 0.24721 0.76377 0.26063 0.0
O887 O 0.27546 0.8065 0.29383 0.0
O888 O 0.25049 0.78659 0.28286 0.0
O889 O 0.28982 0.79721 0.26256 0.0
C890 C 0.23596 0.7253 0.26478 0.0
O891 O 0.27853 0.76441 0.26796 0.0
C892 C 0.2463 0.78143 0.22849 0.0
C893 C 0.21687 0.79235 0.25876 0.0
O894 O 0.24161 0.73268 0.24935 0.0
O895 O 0.23693 0.73954 0.27796 0.0
O896 O 0.23395 0.766 0.23163 0.0
O897 O 0.25938 0.78518 0.24248 0.0
O898 O 0.22012 0.7747 0.26359 0.0
O899 O 0.2313 0.80709 0.25681 0.0
C900 C 0.27412 0.84608 0.25905 0.0
O901 O 0.26563 0.83964 0.2736 0.0
O902 O 0.27576 0.83111 0.24757 0.0
C903 C 0.26352 0.79073 0.29691 0.0
Tb904 Tb 0.52476 0.02604 0.51156 0.0
C905 C 0.51618 0.01492 0.55309 0.0
Tb906 Tb 0.48378 0.0268 0.5229 0.0
O907 O 0.5366 0.05176 0.53149 0.0
O908 O 0.508 0.04802 0.51831 0.0
O909 O 0.52801 0.01432 0.53948 0.0
C910 C 0.4533 0.03751 0.53821 0.0
O911 O 0.49863 0.01999 0.55 0.0
C912 C 0.48848 0.99439 0.50383 0.0
C913 C 0.49252 0.03815 0.48159 0.0
O914 O 0.45284 0.02155 0.52721 0.0
O915 O 0.471 0.04716 0.54082 0.0
O916 O 0.47202 0.00088 0.50306 0.0
O917 O 0.50053 0.00495 0.51622 0.0
O918 O 0.48127 0.0399 0.49556 0.0
O919 O 0.50951 0.03183 0.48428 0.0
C920 C 0.55543 0.01491 0.49708 0.0
O921 O 0.55429 0.03291 0.50305 0.0
O922 O 0.5392 0.0034 0.49897 0.0
C923 C 0.52021 0.05841 0.53075 0.0
Tb924 Tb 0.26282 0.28301 0.78785 0.0
C925 C 0.2732 0.31582 0.75963 0.0
Tb926 Tb 0.25295 0.27189 0.74477 0.0
O927 O 0.29431 0.28661 0.78609 0.0
O928 O 0.27465 0.26774 0.76619 0.0
O929 O 0.26899 0.31224 0.77721 0.0
C930 C 0.25588 0.25981 0.70889 0.0
O931 O 0.26978 0.30189 0.74517 0.0
C932 C 0.2238 0.27971 0.76281 0.0
C933 C 0.24313 0.23876 0.7733 0.0
O934 O 0.24656 0.27387 0.71392 0.0
O935 O 0.26326 0.2527 0.72392 0.0
O936 O 0.22166 0.2682 0.74716 0.0
O937 O 0.24143 0.28792 0.76623 0.0
O938 O 0.24464 0.24297 0.75535 0.0
O939 O 0.24887 0.25205 0.78808 0.0
C940 C 0.25908 0.29227 0.82429 0.0
O941 O 0.24525 0.28995 0.8104 0.0
O942 O 0.27513 0.28921 0.81774 0.0
C943 C 0.29224 0.27601 0.76991 0.0
Tb944 Tb 0.00495 0.03544 0.49233 0.0
C945 C 0.9809 0.01159 0.5211 0.0
Tb946 Tb 0.02461 0.03208 0.53328 0.0
O947 O 0.00299 0.00369 0.48505 0.0
O948 O 0.02464 0.01875 0.50542 0.0
O949 O 0.97997 0.0226 0.50632 0.0
C950 C 0.04005 0.02063 0.56596 0.0
O951 O 0.99743 0.01097 0.53179 0.0
C952 C 0.01281 0.06589 0.52763 0.0
C953 C 0.04871 0.05619 0.50463 0.0
O954 O 0.02365 0.02712 0.56358 0.0
O955 O 0.04778 0.02064 0.54997 0.0
O956 O 0.02629 0.06375 0.54093 0.0
O957 O 0.00521 0.04896 0.52011 0.0
O958 O 0.04957 0.04591 0.51995 0.0
O959 O 0.03247 0.05596 0.49314 0.0
C960 C 0.98871 0.04596 0.4596 0.0
O961 O 0.00486 0.03898 0.46168 0.0
O962 O 0.98178 0.04709 0.47595 0.0
C963 C 0.01699 0.00183 0.49791 0.0
Tb964 Tb 0.28138 0.78332 0.77159 0.0
C965 C 0.24913 0.79039 0.79831 0.0
Tb966 Tb 0.23912 0.77847 0.75351 0.0
O967 O 0.28246 0.81478 0.77943 0.0
O968 O 0.26411 0.80068 0.75591 0.0
O969 O 0.26671 0.7856 0.79743 0.0
C970 C 0.20359 0.78188 0.73874 0.0
O971 O 0.23662 0.79013 0.78278 0.0
C972 C 0.25257 0.74546 0.75873 0.0
C973 C 0.2716 0.77302 0.72654 0.0
O974 O 0.20748 0.76917 0.7508 0.0
O975 O 0.21965 0.7928 0.73529 0.0
O976 O 0.23912 0.74721 0.74529 0.0
O977 O 0.25633 0.7613 0.76937 0.0
O978 O 0.2539 0.77745 0.72763 0.0
O979 O 0.28414 0.773 0.74198 0.0
C980 C 0.31556 0.77648 0.7869 0.0
O981 O 0.31314 0.79132 0.77688 0.0
O982 O 0.29883 0.76552 0.78807 0.0
C983 C 0.26845 0.81659 0.76653 0.0
Tb984 Tb 0.48871 0.02377 0.01559 0.0
C985 C 0.52361 0.00097 0.0153 0.0
Tb986 Tb 0.53015 0.0478 0.01812 0.0
O987 O 0.49028 0.01083 0.9868 0.0
O988 O 0.50698 0.03827 0.99622 0.0
O989 O 0.50571 1.00035 0.0203 0.0
C990 C 0.56649 0.06472 0.01334 0.0
O991 O 0.53468 0.01764 0.01163 0.0
C992 C 0.51472 0.04704 0.05074 0.0
C993 C 0.49532 0.07059 0.01835 0.0
O994 O 0.56181 0.05145 0.02518 0.0
O995 O 0.5507 0.06846 0.00414 0.0
O996 O 0.52849 0.0608 0.0468 0.0
O997 O 0.512 0.03325 0.03752 0.0
O998 O 0.51303 0.07094 0.01298 0.0
O999 O 0.48417 0.05402 0.02217 0.0
C1000 C 0.45224 0.00674 0.01981 0.0
O1001 O 0.45724 0.01874 0.00694 0.0
O1002 O 0.46779 0.00443 0.03042 0.0
C1003 C 0.50417 0.02451 0.98298 0.0
Tb1004 Tb 0.24126 0.27365 0.26764 0.0
C1005 C 0.27404 0.28963 0.30219 0.0
Tb1006 Tb 0.27879 0.29962 0.26072 0.0
O1007 O 0.24928 0.2479 0.25235 0.0
O1008 O 0.27063 0.26982 0.267 0.0
O1009 O 0.25514 0.28408 0.29653 0.0
C1010 C 0.31164 0.31477 0.24669 0.0
O1011 O 0.28698 0.29469 0.29006 0.0
C1012 C 0.252 0.31875 0.2726 0.0
C1013 C 0.24683 0.28283 0.2261 0.0
O1014 O 0.29529 0.3213 0.24436 0.0
O1015 O 0.30961 0.29991 0.25726 0.0
O1016 O 0.27063 0.32509 0.27639 0.0
O1017 O 0.24945 0.30339 0.26136 0.0
O1018 O 0.26568 0.28787 0.23206 0.0
O1019 O 0.23356 0.27846 0.23806 0.0
C1020 C 0.20742 0.26026 0.2808 0.0
O1021 O 0.22277 0.25193 0.2825 0.0
O1022 O 0.21106 0.27587 0.27144 0.0
C1023 C 0.26794 0.25424 0.25599 0.0
Tb1024 Tb 0.5067 0.53782 0.99609 0.0
C1025 C 0.4794 0.51446 0.02306 0.0
Tb1026 Tb 0.52302 0.53417 0.03828 0.0
O1027 O 0.50502 0.50618 0.989 0.0
O1028 O 0.52509 0.52097 0.01089 0.0
O1029 O 0.48031 0.5235 0.00698 0.0
C1030 C 0.53631 0.52166 0.07123 0.0
O1031 O 0.49437 0.51549 0.03635 0.0
C1032 C 0.5121 0.56788 0.03122 0.0
C1033 C 0.55 0.55824 0.01171 0.0
O1034 O 0.54077 0.51617 0.05453 0.0
O1035 O 0.52439 0.53421 0.06938 0.0
O1036 O 0.52515 0.56597 0.04505 0.0
O1037 O 0.50463 0.55095 0.02353 0.0
O1038 O 0.54938 0.5482 0.02723 0.0
O1039 O 0.53478 0.55777 0.99877 0.0
C1040 C 0.49227 0.54926 0.96302 0.0
O1041 O 0.50747 0.54069 0.96537 0.0
O1042 O 0.48539 0.5515 0.97928 0.0
C1043 C 0.51773 0.50409 0.00306 0.0
Tb1044 Tb 0.78292 0.28535 0.27581 0.0
C1045 C 0.75049 0.28863 0.30346 0.0
Tb1046 Tb 0.74063 0.27898 0.25828 0.0
O1047 O 0.78238 0.3164 0.28326 0.0
O1048 O 0.76502 0.30174 0.25929 0.0
O1049 O 0.76857 0.28543 0.30203 0.0
C1050 C 0.70458 0.28259 0.24474 0.0
O1051 O 0.73741 0.28748 0.28824 0.0
C1052 C 0.75493 0.24672 0.26463 0.0
C1053 C 0.77307 0.27576 0.23085 0.0
O1054 O 0.71791 0.29693 0.25256 0.0
O1055 O 0.71145 0.26619 0.24479 0.0
O1056 O 0.74126 0.24771 0.25116 0.0
O1057 O 0.75842 0.26283 0.2749 0.0
O1058 O 0.75545 0.28031 0.2323 0.0
O1059 O 0.78575 0.27558 0.24613 0.0
C1060 C 0.8189 0.28296 0.29039 0.0
O1061 O 0.80471 0.26808 0.2867 0.0
O1062 O 0.81293 0.29899 0.28548 0.0
C1063 C 0.76875 0.31771 0.26987 0.0
Tb1064 Tb 0.98738 0.52617 0.51592 0.0
C1065 C 0.02238 0.50367 0.51604 0.0
Tb1066 Tb 0.02841 0.55056 0.51765 0.0
O1067 O 0.9894 0.51211 0.48775 0.0
O1068 O 0.00511 0.54038 0.49595 0.0
O1069 O 0.00461 0.50311 0.52133 0.0
C1070 C 0.06487 0.56718 0.5128 0.0
O1071 O 0.03319 0.52024 0.51171 0.0
C1072 C 0.0129 0.5504 0.55019 0.0
C1073 C 0.99319 0.57307 0.51653 0.0
O1074 O 0.06006 0.55463 0.52528 0.0
O1075 O 0.04915 0.57038 0.50308 0.0
O1076 O 0.02604 0.56454 0.5458 0.0
O1077 O 0.01076 0.53624 0.53747 0.0
O1078 O 0.01124 0.57361 0.51198 0.0
O1079 O 0.98213 0.55649 0.52049 0.0
C1080 C 0.9512 0.50917 0.52118 0.0
O1081 O 0.9561 0.51881 0.50665 0.0
O1082 O 0.96669 0.50922 0.5329 0.0
C1083 C 0.00258 0.52613 0.4832 0.0
Tb1084 Tb 0.76013 0.78336 0.28976 0.0
C1085 C 0.77246 0.8143 0.26079 0.0
Tb1086 Tb 0.75221 0.77017 0.24719 0.0
O1087 O 0.79167 0.78743 0.28817 0.0
O1088 O 0.77268 0.76621 0.26993 0.0
O1089 O 0.76616 0.8119 0.27779 0.0
C1090 C 0.75691 0.75866 0.21155 0.0
O1091 O 0.77093 0.79927 0.2476 0.0
C1092 C 0.7222 0.7796 0.26282 0.0
C1093 C 0.73979 0.73893 0.27653 0.0
O1094 O 0.7508 0.77487 0.21662 0.0
O1095 O 0.76 0.74901 0.22638 0.0
O1096 O 0.7206 0.76752 0.24761 0.0
O1097 O 0.73982 0.78748 0.26684 0.0
O1098 O 0.74293 0.74187 0.2586 0.0
O1099 O 0.74463 0.75304 0.29073 0.0
C1100 C 0.75685 0.79456 0.3259 0.0
O1101 O 0.77203 0.78869 0.3198 0.0
O1102 O 0.74354 0.79394 0.31171 0.0
C1103 C 0.79021 0.77459 0.27358 0.0
Tb1104 Tb 0.76499 0.30195 0.76806 0.0
C1105 C 0.79527 0.27222 0.76611 0.0
Tb1106 Tb 0.74957 0.25733 0.76092 0.0
O1107 O 0.75526 0.3016 0.79705 0.0
O1108 O 0.76318 0.2769 0.78413 0.0
O1109 O 0.79215 0.29075 0.76507 0.0
C1110 C 0.73653 0.21977 0.76665 0.0
O1111 O 0.78087 0.25677 0.76556 0.0
C1112 C 0.74702 0.27733 0.73033 0.0
C1113 C 0.72008 0.28725 0.76206 0.0
O1114 O 0.74704 0.22549 0.75305 0.0
O1115 O 0.73364 0.23515 0.77691 0.0
O1116 O 0.73589 0.26066 0.73234 0.0
O1117 O 0.76029 0.28072 0.74416 0.0
O1118 O 0.72366 0.26969 0.76684 0.0
O1119 O 0.73429 0.30196 0.75977 0.0
C1120 C 0.78267 0.33919 0.76619 0.0
O1121 O 0.7691 0.32951 0.75366 0.0
O1122 O 0.78609 0.32799 0.77983 0.0
C1123 C 0.75631 0.28302 0.79868 0.0
Tb1124 Tb 0.7377 0.76866 0.76471 0.0
C1125 C 0.77265 0.78478 0.79712 0.0
Tb1126 Tb 0.77594 0.79127 0.75388 0.0
O1127 O 0.74317 0.74151 0.74913 0.0
O1128 O 0.76594 0.76268 0.76187 0.0
O1129 O 0.75365 0.77815 0.79276 0.0
C1130 C 0.81082 0.79844 0.74158 0.0
O1131 O 0.78471 0.78994 0.78413 0.0
C1132 C 0.74793 0.81236 0.75612 0.0
C1133 C 0.74069 0.77802 0.72265 0.0
O1134 O 0.80386 0.81086 0.75263 0.0
O1135 O 0.7983 0.78217 0.73792 0.0
O1136 O 0.76179 0.81609 0.74519 0.0
O1137 O 0.75142 0.79871 0.76637 0.0
O1138 O 0.75975 0.77934 0.72662 0.0
O1139 O 0.72874 0.77607 0.7361 0.0
C1140 C 0.70492 0.75684 0.78007 0.0
O1141 O 0.70751 0.7708 0.76851 0.0
O1142 O 0.72074 0.74939 0.78285 0.0
C1143 C 0.76201 0.74677 0.75152 0.0
Tb1144 Tb 0.5125 0.55276 0.51097 0.0
C1145 C 0.5139 0.51636 0.48238 0.0
Tb1146 Tb 0.50111 0.5107 0.52399 0.0
O1147 O 0.54247 0.54827 0.50847 0.0
O1148 O 0.52617 0.53306 0.52771 0.0
O1149 O 0.51144 0.53512 0.48416 0.0
C1150 C 0.50057 0.47493 0.53711 0.0
O1151 O 0.51206 0.50448 0.49654 0.0
C1152 C 0.47188 0.52946 0.5145 0.0
C1153 C 0.49989 0.54701 0.55263 0.0
O1154 O 0.48817 0.47922 0.52374 0.0
O1155 O 0.51325 0.49067 0.54279 0.0
O1156 O 0.47125 0.51598 0.52666 0.0
O1157 O 0.48766 0.53027 0.50706 0.0
O1158 O 0.50259 0.52833 0.55086 0.0
O1159 O 0.50141 0.55885 0.53841 0.0
C1160 C 0.51253 0.58818 0.49723 0.0
O1161 O 0.52459 0.58447 0.51122 0.0
O1162 O 0.5004 0.57208 0.49137 0.0
C1163 C 0.54195 0.53432 0.52013 0.0
Tb1164 Tb 0.02266 0.52639 0.01418 0.0
C1165 C 0.01365 0.51419 0.05524 0.0
Tb1166 Tb 0.98161 0.52638 0.02498 0.0
O1167 O 0.03399 0.55208 0.03434 0.0
O1168 O 0.00555 0.54811 0.02086 0.0
O1169 O 0.02527 0.51327 0.04148 0.0
C1170 C 0.94994 0.53589 0.03899 0.0
O1171 O 0.99634 0.51982 0.05228 0.0
C1172 C 0.98698 0.49439 0.00554 0.0
C1173 C 0.99085 0.53896 0.98408 0.0
O1174 O 0.95057 0.51974 0.02869 0.0
O1175 O 0.96731 0.54632 0.04181 0.0
O1176 O 0.97054 0.5009 0.00441 0.0
O1177 O 0.99871 0.50475 0.01833 0.0
O1178 O 0.97953 0.54037 0.99804 0.0
O1179 O 0.00781 0.5326 0.98683 0.0
C1180 C 0.05398 0.51662 0.99987 0.0
O1181 O 0.05328 0.53341 0.00904 0.0
O1182 O 0.03693 0.50557 0.99843 0.0
C1183 C 0.01751 0.55851 0.03349 0.0
C1184 C 0.01691 0.22492 0.89124 0.0
C1185 C 0.02679 0.24353 0.89923 0.0
C1186 C 0.01618 0.20829 0.90184 0.0
C1187 C 0.03979 0.18759 0.94298 0.0
H1188 H 0.98843 0.15688 0.94524 0.0
C1189 C 0.02701 0.12432 0.99361 0.0
C1190 C 0.01346 0.1074 0.9866 0.0
C1191 C 0.02871 0.14144 0.9836 0.0
C1192 C 0.00294 0.16506 0.9446 0.0
H1193 H 0.04438 0.25911 0.92428 0.0
H1194 H 0.04343 0.22997 0.94261 0.0
H1195 H 0.99221 0.18487 0.92556 0.0
H1196 H 0.99098 0.0951 0.96377 0.0
H1197 H 0.99427 0.12449 0.9461 0.0
H1198 H 0.05065 0.16755 0.96163 0.0
C1199 C 0.03614 0.22829 0.92822 0.0
C1200 C 0.00508 0.18115 0.93331 0.0
C1201 C 0.03664 0.24498 0.91772 0.0
C1202 C 0.00148 0.10798 0.9696 0.0
C1203 C 0.0033 0.12494 0.95951 0.0
C1204 C 0.03771 0.1713 0.95409 0.0
C1205 C 0.02555 0.20986 0.92055 0.0
C1206 C 0.02351 0.19257 0.93234 0.0
C1207 C 0.01701 0.14191 0.96627 0.0
C1208 C 0.01924 0.15975 0.95502 0.0
H1209 H 0.00914 0.22334 0.87706 0.0
H1210 H 0.00808 0.19421 0.8955 0.0
H1211 H 0.05419 0.19609 0.94243 0.0
H1212 H 0.03641 0.12425 0.00671 0.0
H1213 H 0.03921 0.15429 0.98945 0.0
C1214 C 0.05857 0.78 0.16817 0.0
C1215 C 0.0425 0.78354 0.17756 0.0
C1216 C 0.07741 0.78388 0.17778 0.0
C1217 C 0.11717 0.80126 0.19897 0.0
H1218 H 0.12278 0.78524 0.25068 0.0
C1219 C 0.19253 0.81121 0.24329 0.0
C1220 C 0.19646 0.79477 0.253 0.0
C1221 C 0.17358 0.81209 0.23541 0.0
C1222 C 0.12149 0.78977 0.23624 0.0
H1223 H 0.03373 0.79467 0.20423 0.0
H1224 H 0.06658 0.80167 0.22092 0.0
H1225 H 0.09035 0.78265 0.23369 0.0
H1226 H 0.18331 0.76674 0.26264 0.0
H1227 H 0.15039 0.76829 0.24895 0.0
H1228 H 0.14836 0.80772 0.2013 0.0
C1229 C 0.06461 0.79557 0.20621 0.0
C1230 C 0.10286 0.7885 0.22656 0.0
C1231 C 0.04578 0.79169 0.19659 0.0
C1232 C 0.18085 0.77965 0.25531 0.0
C1233 C 0.16191 0.78057 0.2475 0.0
C1234 C 0.13581 0.80257 0.20867 0.0
C1235 C 0.08064 0.79141 0.19704 0.0
C1236 C 0.10046 0.79401 0.20772 0.0
C1237 C 0.15808 0.79661 0.23712 0.0
C1238 C 0.13821 0.79661 0.22736 0.0
H1239 H 0.05656 0.77367 0.15353 0.0
H1240 H 0.08936 0.78031 0.17031 0.0
H1241 H 0.11587 0.80583 0.18456 0.0
H1242 H 0.20419 0.82309 0.24114 0.0
H1243 H 0.17111 0.82479 0.22773 0.0
C1244 C 0.52656 0.85349 0.40792 0.0
C1245 C 0.51964 0.85226 0.38841 0.0
C1246 C 0.52522 0.87006 0.41997 0.0
C1247 C 0.49434 0.90685 0.42567 0.0
H1248 H 0.53645 0.93602 0.46125 0.0
C1249 C 0.48295 0.97494 0.47227 0.0
C1250 C 0.49292 0.97865 0.49066 0.0
C1251 C 0.4873 0.96032 0.45952 0.0
C1252 C 0.52442 0.92786 0.45163 0.0
H1253 H 0.50669 0.86804 0.36619 0.0
H1254 H 0.50389 0.89665 0.38737 0.0
H1255 H 0.54269 0.9092 0.43956 0.0
H1256 H 0.51492 0.96987 0.51041 0.0
H1257 H 0.52203 0.9437 0.48852 0.0
H1258 H 0.47577 0.9246 0.43808 0.0
C1259 C 0.51038 0.88475 0.39325 0.0
C1260 C 0.52808 0.91259 0.43912 0.0
C1261 C 0.51205 0.86837 0.38113 0.0
C1262 C 0.50716 0.96735 0.49621 0.0
C1263 C 0.51131 0.95246 0.48357 0.0
C1264 C 0.49058 0.92181 0.43838 0.0
C1265 C 0.51665 0.8856 0.41283 0.0
C1266 C 0.51308 0.90203 0.42595 0.0
C1267 C 0.50143 0.94871 0.46501 0.0
C1268 C 0.50557 0.93264 0.45151 0.0
H1269 H 0.53259 0.84142 0.41401 0.0
H1270 H 0.53013 0.87034 0.43503 0.0
H1271 H 0.48243 0.8987 0.41587 0.0
H1272 H 0.47204 0.98363 0.4676 0.0
H1273 H 0.47968 0.95831 0.44527 0.0
C1274 C 0.41512 0.25703 0.65952 0.0
C1275 C 0.43417 0.25766 0.66829 0.0
C1276 C 0.39975 0.25863 0.67053 0.0
C1277 C 0.38432 0.25237 0.71865 0.0
H1278 H 0.3487 0.28787 0.70411 0.0
C1279 C 0.3266 0.2714 0.76724 0.0
C1280 C 0.30833 0.27352 0.75835 0.0
C1281 C 0.34197 0.26926 0.75635 0.0
C1282 C 0.35829 0.27765 0.70826 0.0
H1283 H 0.45179 0.26009 0.69564 0.0
H1284 H 0.42494 0.26272 0.71477 0.0
H1285 H 0.37509 0.28394 0.68483 0.0
H1286 H 0.29249 0.27718 0.73142 0.0
H1287 H 0.31853 0.27204 0.71219 0.0
H1288 H 0.36741 0.24582 0.74191 0.0
C1289 C 0.42193 0.26099 0.69936 0.0
C1290 C 0.37348 0.27545 0.6972 0.0
C1291 C 0.43735 0.25959 0.68836 0.0
C1292 C 0.3059 0.27415 0.73848 0.0
C1293 C 0.32115 0.27185 0.72754 0.0
C1294 C 0.36901 0.25443 0.72963 0.0
C1295 C 0.40298 0.26069 0.69058 0.0
C1296 C 0.38669 0.26281 0.70227 0.0
C1297 C 0.33943 0.26934 0.73631 0.0
C1298 C 0.35578 0.26712 0.72461 0.0
H1299 H 0.41208 0.25554 0.64412 0.0
H1300 H 0.38527 0.25813 0.66333 0.0
H1301 H 0.39413 0.24235 0.72282 0.0
H1302 H 0.32897 0.27129 0.78263 0.0
H1303 H 0.35592 0.26783 0.76369 0.0
C1304 C 0.02751 0.86739 0.60022 0.0
C1305 C 0.01435 0.84977 0.59445 0.0
C1306 C 0.02952 0.88294 0.5883 0.0
C1307 C 0.00184 0.90446 0.55179 0.0
H1308 H 0.05172 0.93167 0.53948 0.0
C1309 C 0.00517 0.96612 0.50083 0.0
C1310 C 0.01936 0.98304 0.50592 0.0
C1311 C 0.00597 0.9489 0.51013 0.0
C1312 C 0.03769 0.92437 0.54296 0.0
H1313 H 0.99321 0.83455 0.57155 0.0
H1314 H 0.99653 0.86187 0.55097 0.0
H1315 H 0.05055 0.90354 0.55925 0.0
H1316 H 0.04645 0.99482 0.5232 0.0
H1317 H 0.04735 0.96516 0.54043 0.0
H1318 H 0.9889 0.92553 0.53632 0.0
C1319 C 0.00531 0.86354 0.56466 0.0
C1320 C 0.03705 0.90826 0.55419 0.0
C1321 C 0.00349 0.84791 0.57642 0.0
C1322 C 0.03497 0.98215 0.51964 0.0
C1323 C 0.03564 0.96503 0.5292 0.0
C1324 C 0.00247 0.92069 0.54082 0.0
C1325 C 0.01821 0.88122 0.57057 0.0
C1326 C 0.0191 0.89816 0.55861 0.0
C1327 C 0.02088 0.94834 0.52484 0.0
C1328 C 0.02039 0.93081 0.53619 0.0
H1329 H 0.03614 0.86924 0.61399 0.0
H1330 H 0.03948 0.89652 0.59318 0.0
H1331 H 0.98784 0.89707 0.55529 0.0
H1332 H 0.99309 0.96636 0.49009 0.0
H1333 H 0.99468 0.93614 0.50601 0.0
C1334 C 0.46709 0.76187 0.87945 0.0
C1335 C 0.47212 0.77491 0.89587 0.0
C1336 C 0.44871 0.75995 0.8694 0.0
C1337 C 0.40669 0.75317 0.85322 0.0
H1338 H 0.38821 0.80267 0.84589 0.0
C1339 C 0.33399 0.75797 0.80919 0.0
C1340 C 0.33379 0.77403 0.79784 0.0
C1341 C 0.35045 0.75684 0.82158 0.0
C1342 C 0.39328 0.78876 0.8477 0.0
H1343 H 0.46171 0.79465 0.91598 0.0
H1344 H 0.42919 0.79137 0.89833 0.0
H1345 H 0.41664 0.80225 0.86848 0.0
H1346 H 0.35069 0.80102 0.78975 0.0
H1347 H 0.37971 0.7989 0.81122 0.0
H1348 H 0.38365 0.7398 0.83198 0.0
C1349 C 0.43964 0.78303 0.89292 0.0
C1350 C 0.40938 0.78845 0.86087 0.0
C1351 C 0.45812 0.78488 0.90304 0.0
C1352 C 0.35053 0.78852 0.79843 0.0
C1353 C 0.36702 0.7874 0.81083 0.0
C1354 C 0.39059 0.75347 0.84005 0.0
C1355 C 0.43493 0.77089 0.87574 0.0
C1356 C 0.41646 0.77072 0.86354 0.0
C1357 C 0.36699 0.77176 0.82281 0.0
C1358 C 0.38388 0.77132 0.83698 0.0
H1359 H 0.47762 0.75362 0.87404 0.0
H1360 H 0.4457 0.75063 0.85616 0.0
H1361 H 0.41164 0.73921 0.85513 0.0
H1362 H 0.32121 0.7466 0.80896 0.0
H1363 H 0.34995 0.74468 0.8307 0.0
C1364 C 0.47132 0.22214 0.10546 0.0
C1365 C 0.48263 0.23886 0.09923 0.0
C1366 C 0.47074 0.20345 0.09604 0.0
C1367 C 0.49956 0.17643 0.06635 0.0
H1368 H 0.45088 0.14106 0.04964 0.0
C1369 C 0.49944 0.10735 0.01763 0.0
C1370 C 0.48918 0.08967 0.02323 0.0
C1371 C 0.49631 0.1256 0.02535 0.0
C1372 C 0.46458 0.15076 0.05432 0.0
H1373 H 0.50307 0.24939 0.07942 0.0
H1374 H 0.50209 0.217 0.06303 0.0
H1375 H 0.45051 0.17253 0.06789 0.0
H1376 H 0.46664 0.07726 0.04035 0.0
H1377 H 0.46142 0.10912 0.05402 0.0
H1378 H 0.51374 0.15483 0.05315 0.0
C1379 C 0.49351 0.21813 0.07492 0.0
C1380 C 0.46436 0.16869 0.0648 0.0
C1381 C 0.49393 0.23667 0.08416 0.0
C1382 C 0.47475 0.09062 0.03568 0.0
C1383 C 0.47173 0.1089 0.04352 0.0
C1384 C 0.49979 0.15859 0.05598 0.0
C1385 C 0.48188 0.20133 0.0807 0.0
C1386 C 0.48186 0.18176 0.07072 0.0
C1387 C 0.483 0.12654 0.03897 0.0
C1388 C 0.48232 0.14563 0.04966 0.0
H1389 H 0.46275 0.22361 0.1173 0.0
H1390 H 0.46181 0.19067 0.10088 0.0
H1391 H 0.5133 0.18605 0.07105 0.0
H1392 H 0.5105 0.1071 0.0079 0.0
H1393 H 0.50487 0.13898 0.0212 0.0
C1394 C 0.08347 0.26256 0.39106 0.0
C1395 C 0.07448 0.27836 0.38501 0.0
C1396 C 0.09776 0.25606 0.38081 0.0
C1397 C 0.11086 0.25388 0.33232 0.0
H1398 H 0.16392 0.25202 0.3527 0.0
C1399 C 0.17431 0.26527 0.28734 0.0
C1400 C 0.18998 0.25515 0.29076 0.0
C1401 C 0.15893 0.2628 0.29862 0.0
C1402 C 0.14902 0.25197 0.34686 0.0
H1403 H 0.07453 0.30057 0.36433 0.0
H1404 H 0.09913 0.28916 0.34664 0.0
H1405 H 0.13998 0.2584 0.37448 0.0
H1406 H 0.20164 0.23392 0.30803 0.0
H1407 H 0.17458 0.22961 0.32793 0.0
H1408 H 0.11985 0.24815 0.30472 0.0
C1409 C 0.09492 0.28162 0.35904 0.0
C1410 C 0.13539 0.25568 0.35932 0.0
C1411 C 0.08089 0.28819 0.36927 0.0
C1412 C 0.18964 0.24184 0.3051 0.0
C1413 C 0.17426 0.23947 0.31655 0.0
C1414 C 0.12438 0.25007 0.31992 0.0
C1415 C 0.10305 0.26517 0.36435 0.0
C1416 C 0.11645 0.25746 0.35202 0.0
C1417 C 0.15894 0.25023 0.31362 0.0
C1418 C 0.1438 0.24991 0.32698 0.0
H1419 H 0.07887 0.25468 0.40312 0.0
H1420 H 0.10401 0.24342 0.38521 0.0
H1421 H 0.0962 0.25487 0.32642 0.0
H1422 H 0.17429 0.27568 0.27641 0.0
H1423 H 0.14749 0.27153 0.29617 0.0
C1424 C 0.91762 0.07166 0.19503 0.0
C1425 C 0.89857 0.06077 0.19254 0.0
C1426 C 0.9289 0.07355 0.17973 0.0
C1427 C 0.95377 0.06203 0.1496 0.0
H1428 H 0.93307 0.06741 0.09761 0.0
C1429 C 0.99196 0.04123 0.08438 0.0
C1430 C 0.99137 0.05269 0.06857 0.0
C1431 C 0.9818 0.04502 0.09993 0.0
C1432 C 0.93915 0.06615 0.11209 0.0
H1433 H 0.87613 0.04398 0.17179 0.0
H1434 H 0.89593 0.04709 0.14501 0.0
H1435 H 0.91234 0.06925 0.12345 0.0
H1436 H 0.98008 0.0776 0.05702 0.0
H1437 H 0.96237 0.08427 0.08428 0.0
H1438 H 0.98052 0.05886 0.13831 0.0
C1439 C 0.90209 0.05435 0.15881 0.0
C1440 C 0.92719 0.06697 0.12687 0.0
C1441 C 0.89075 0.0525 0.17417 0.0
C1442 C 0.98099 0.06858 0.06903 0.0
C1443 C 0.97064 0.07226 0.08455 0.0
C1444 C 0.96568 0.06116 0.13486 0.0
C1445 C 0.92147 0.06452 0.16151 0.0
C1446 C 0.93431 0.06474 0.14579 0.0
C1447 C 0.97066 0.0603 0.10004 0.0
C1448 C 0.95847 0.06297 0.11589 0.0
H1449 H 0.92405 0.07838 0.20896 0.0
H1450 H 0.9436 0.08184 0.18226 0.0
H1451 H 0.95971 0.06001 0.16394 0.0
H1452 H 0.99977 0.02886 0.08451 0.0
H1453 H 0.98201 0.03539 0.11151 0.0
C1454 C 0.29097 0.71333 0.4496 0.0
C1455 C 0.29212 0.69306 0.44735 0.0
C1456 C 0.2881 0.72421 0.43359 0.0
C1457 C 0.2703 0.71691 0.38136 0.0
H1458 H 0.29338 0.7722 0.38132 0.0
C1459 C 0.25105 0.76486 0.31898 0.0
C1460 C 0.26612 0.77911 0.31384 0.0
C1461 C 0.25391 0.75447 0.33532 0.0
C1462 C 0.28691 0.75671 0.38094 0.0
H1463 H 0.29194 0.66868 0.42621 0.0
H1464 H 0.28752 0.68757 0.39864 0.0
H1465 H 0.29986 0.75428 0.40929 0.0
H1466 H 0.29608 0.79335 0.32167 0.0
H1467 H 0.30118 0.77519 0.34972 0.0
H1468 H 0.2578 0.71919 0.35281 0.0
C1469 C 0.28825 0.69505 0.41271 0.0
C1470 C 0.29045 0.74645 0.39719 0.0
C1471 C 0.29101 0.68421 0.42863 0.0
C1472 C 0.28409 0.78261 0.32531 0.0
C1473 C 0.28698 0.77222 0.34153 0.0
C1474 C 0.2668 0.72716 0.3651 0.0
C1475 C 0.28636 0.71514 0.41486 0.0
C1476 C 0.28231 0.72633 0.39764 0.0
C1477 C 0.27192 0.75807 0.34694 0.0
C1478 C 0.27514 0.74721 0.36455 0.0
H1479 H 0.29157 0.72066 0.46372 0.0
H1480 H 0.2866 0.73958 0.43595 0.0
H1481 H 0.26344 0.70156 0.38115 0.0
H1482 H 0.23696 0.76203 0.31059 0.0
H1483 H 0.24184 0.74389 0.33904 0.0
C1484 C 0.59773 0.98713 0.70878 0.0
C1485 C 0.58624 0.98563 0.72408 0.0
C1486 C 0.58935 0.98845 0.6902 0.0
C1487 C 0.54194 0.98228 0.65924 0.0
H1488 H 0.57233 0.01858 0.62905 0.0
C1489 C 0.51085 0.00877 0.5873 0.0
C1490 C 0.52305 0.0098 0.5725 0.0
C1491 C 0.5178 0.00474 0.60572 0.0
C1492 C 0.56371 0.00824 0.63719 0.0
H1493 H 0.55675 0.98369 0.73172 0.0
H1494 H 0.5421 0.98636 0.69934 0.0
H1495 H 0.58567 0.01317 0.66098 0.0
H1496 H 0.55215 0.00707 0.56561 0.0
H1497 H 0.56414 1.00013 0.59753 0.0
H1498 H 0.5198 0.97774 0.63536 0.0
C1499 C 0.5576 0.98623 0.70162 0.0
C1500 C 0.5714 0.00505 0.65554 0.0
C1501 C 0.566 0.98472 0.72023 0.0
C1502 C 0.54228 0.00645 0.57657 0.0
C1503 C 0.54924 0.00258 0.59496 0.0
C1504 C 0.53417 0.98559 0.64087 0.0
C1505 C 0.56923 0.98854 0.68639 0.0
C1506 C 0.56073 0.99189 0.66681 0.0
C1507 C 0.53717 0.00183 0.60982 0.0
C1508 C 0.54504 0.99851 0.62956 0.0
H1509 H 0.61335 0.98773 0.7112 0.0
H1510 H 0.59875 0.98966 0.67885 0.0
H1511 H 0.53332 0.97192 0.66736 0.0
H1512 H 0.49597 0.01127 0.58472 0.0
H1513 H 0.50815 0.00439 0.61686 0.0
C1514 C 0.26235 0.40474 0.96331 0.0
C1515 C 0.2571 0.39671 0.98031 0.0
C1516 C 0.26149 0.39241 0.94666 0.0
C1517 C 0.24694 0.36331 0.91176 0.0
H1518 H 0.2696 0.31553 0.91519 0.0
C1519 C 0.23978 0.30577 0.84805 0.0
C1520 C 0.25741 0.30031 0.84366 0.0
C1521 C 0.23878 0.31599 0.8655 0.0
C1522 C 0.26323 0.32882 0.91406 0.0
H1523 H 0.24662 0.36942 0.99304 0.0
H1524 H 0.24522 0.34808 0.96404 0.0
H1525 H 0.26998 0.33742 0.94391 0.0
H1526 H 0.28751 0.30021 0.85417 0.0
H1527 H 0.28576 0.31805 0.88485 0.0
H1528 H 0.2404 0.35485 0.88188 0.0
C1529 C 0.25009 0.36386 0.96366 0.0
C1530 C 0.26333 0.34125 0.93046 0.0
C1531 C 0.25079 0.37615 0.98023 0.0
C1532 C 0.27376 0.30428 0.8573 0.0
C1533 C 0.27274 0.31442 0.87482 0.0
C1534 C 0.2467 0.35079 0.89539 0.0
C1535 C 0.25554 0.37185 0.94677 0.0
C1536 C 0.25527 0.35864 0.92942 0.0
C1537 C 0.25537 0.3208 0.87885 0.0
C1538 C 0.2549 0.33349 0.89639 0.0
H1539 H 0.26728 0.4205 0.96289 0.0
H1540 H 0.26589 0.39889 0.9338 0.0
H1541 H 0.24051 0.37656 0.91064 0.0
H1542 H 0.22694 0.3028 0.83774 0.0
H1543 H 0.22515 0.32051 0.8684 0.0
C1544 C 0.90744 0.05123 0.29862 0.0
C1545 C 0.88707 0.04918 0.29848 0.0
C1546 C 0.91942 0.05292 0.31585 0.0
C1547 C 0.92152 0.0667 0.36715 0.0
H1548 H 0.95991 0.03206 0.37238 0.0
C1549 C 0.95959 0.05371 0.44028 0.0
C1550 C 0.97876 0.04997 0.44128 0.0
C1551 C 0.94944 0.05568 0.42268 0.0
C1552 C 0.94956 0.04214 0.3711 0.0
H1553 H 0.8634 0.0477 0.31641 0.0
H1554 H 0.88441 0.05087 0.34649 0.0
H1555 H 0.94027 0.03171 0.34194 0.0
H1556 H 0.00274 0.04621 0.42492 0.0
H1557 H 0.98528 0.05028 0.39417 0.0
H1558 H 0.93085 0.07728 0.39623 0.0
C1559 C 0.89103 0.05115 0.33323 0.0
C1560 C 0.93824 0.04185 0.35365 0.0
C1561 C 0.87902 0.04921 0.31599 0.0
C1562 C 0.9879 0.04897 0.42449 0.0
C1563 C 0.97783 0.05114 0.40688 0.0
C1564 C 0.93299 0.06716 0.38456 0.0
C1565 C 0.91133 0.05285 0.33331 0.0
C1566 C 0.92397 0.05396 0.35157 0.0
C1567 C 0.95833 0.05414 0.4057 0.0
C1568 C 0.94701 0.05471 0.38683 0.0
H1569 H 0.91414 0.05123 0.2854 0.0
H1570 H 0.93504 0.05435 0.31553 0.0
H1571 H 0.91078 0.07637 0.36584 0.0
H1572 H 0.95221 0.05449 0.45305 0.0
H1573 H 0.93439 0.05771 0.42235 0.0
C1574 C 0.2971 0.68861 0.57445 0.0
C1575 C 0.30286 0.70033 0.55962 0.0
C1576 C 0.29585 0.69728 0.59271 0.0
C1577 C 0.30207 0.71824 0.63281 0.0
H1578 H 0.28031 0.76657 0.63591 0.0
C1579 C 0.2943 0.75889 0.70576 0.0
C1580 C 0.27708 0.76668 0.70742 0.0
C1581 C 0.29877 0.7517 0.68794 0.0
C1582 C 0.28632 0.75302 0.63535 0.0
H1583 H 0.31234 0.73047 0.55269 0.0
H1584 H 0.31039 0.74561 0.58458 0.0
H1585 H 0.28591 0.7522 0.6049 0.0
H1586 H 0.25116 0.7731 0.69131 0.0
H1587 H 0.25889 0.76059 0.66041 0.0
H1588 H 0.30197 0.71876 0.6632 0.0
C1589 C 0.30658 0.72966 0.58202 0.0
C1590 C 0.28979 0.74488 0.61752 0.0
C1591 C 0.30789 0.72096 0.56374 0.0
C1592 C 0.26461 0.76733 0.69067 0.0
C1593 C 0.26911 0.76021 0.67286 0.0
C1594 C 0.29865 0.72641 0.65065 0.0
C1595 C 0.30026 0.71798 0.59673 0.0
C1596 C 0.29756 0.72726 0.61593 0.0
C1597 C 0.28618 0.75214 0.6712 0.0
C1598 C 0.29057 0.74385 0.6522 0.0
H1599 H 0.29301 0.67269 0.57183 0.0
H1600 H 0.29073 0.68775 0.6035 0.0
H1601 H 0.30826 0.70479 0.63227 0.0
H1602 H 0.30425 0.75801 0.71829 0.0
H1603 H 0.31216 0.74584 0.68729 0.0
C1604 C 0.57766 0.99278 0.83388 0.0
C1605 C 0.59816 0.99753 0.83589 0.0
C1606 C 0.5671 0.99548 0.84954 0.0
C1607 C 0.57033 0.02519 0.89527 0.0
H1608 H 0.52985 0.98413 0.90836 0.0
C1609 C 0.53401 0.03246 0.96554 0.0
C1610 C 0.51454 0.02339 0.96567 0.0
C1611 C 0.544 0.02959 0.94952 0.0
C1612 C 0.54084 0.99597 0.90478 0.0
H1613 H 0.6235 0.00857 0.8563 0.0
H1614 H 0.60512 0.01354 0.88321 0.0
H1615 H 0.54702 0.97841 0.88062 0.0
H1616 H 0.4901 0.00451 0.94901 0.0
H1617 H 0.50697 1.00029 0.92087 0.0
H1618 H 0.56396 0.04302 0.91901 0.0
C1619 C 0.59722 0.00775 0.86954 0.0
C1620 C 0.55075 0.99259 0.88887 0.0
C1621 C 0.60775 0.00476 0.85405 0.0
C1622 C 0.50514 0.01171 0.94934 0.0
C1623 C 0.51494 0.00911 0.93324 0.0
C1624 C 0.56022 0.02872 0.91101 0.0
C1625 C 0.57677 0.00331 0.86747 0.0
C1626 C 0.56571 0.0071 0.884 0.0
C1627 C 0.53465 0.01775 0.93312 0.0
C1628 C 0.54535 0.01413 0.91611 0.0
H1629 H 0.56974 0.9872 0.82017 0.0
H1630 H 0.55134 0.99194 0.84749 0.0
H1631 H 0.58165 0.03677 0.89177 0.0
H1632 H 0.54176 0.04107 0.97805 0.0
H1633 H 0.55923 0.03623 0.95028 0.0
C1634 C 0.24218 0.3906 0.10176 0.0
C1635 C 0.23548 0.38306 0.08294 0.0
C1636 C 0.23949 0.37852 0.11683 0.0
C1637 C 0.24769 0.3453 0.14061 0.0
H1638 H 0.20223 0.30605 0.14611 0.0
C1639 C 0.25425 0.28692 0.19269 0.0
C1640 C 0.24064 0.28593 0.20614 0.0
C1641 C 0.25078 0.29562 0.17566 0.0
C1642 C 0.215 0.31694 0.1447 0.0
H1643 H 0.21935 0.35752 0.06528 0.0
H1644 H 0.21485 0.33643 0.09156 0.0
H1645 H 0.20047 0.32992 0.12178 0.0
H1646 H 0.21186 0.29131 0.21149 0.0
H1647 H 0.20589 0.30674 0.18176 0.0
H1648 H 0.26221 0.33269 0.16351 0.0
C1649 C 0.22212 0.35164 0.09471 0.0
C1650 C 0.21402 0.33055 0.1308 0.0
C1651 C 0.22481 0.36371 0.07964 0.0
C1652 C 0.22261 0.29186 0.20137 0.0
C1653 C 0.21919 0.30073 0.18434 0.0
C1654 C 0.24869 0.33172 0.15436 0.0
C1655 C 0.23005 0.3587 0.11336 0.0
C1656 C 0.23037 0.34489 0.12866 0.0
C1657 C 0.23372 0.30366 0.17185 0.0
C1658 C 0.23243 0.31732 0.15651 0.0
H1659 H 0.25031 0.4055 0.10476 0.0
H1660 H 0.24544 0.38446 0.13114 0.0
H1661 H 0.26064 0.35592 0.13912 0.0
H1662 H 0.26817 0.28221 0.1959 0.0
H1663 H 0.262 0.2972 0.16602 0.0
C1664 C 0.16996 0.93594 0.99916 0.0
C1665 C 0.17572 0.92403 0.01347 0.0
C1666 C 0.15431 0.94597 1.00077 0.0
C1667 C 0.11054 0.95026 0.02561 0.0
H1668 H 0.12121 0.00423 0.01107 0.0
C1669 C 0.05755 0.00793 0.03429 0.0
C1670 C 0.05596 0.02049 0.01942 0.0
C1671 C 0.07131 0.99505 0.03464 0.0
C1672 C 0.1178 0.98914 0.015 0.0
H1673 H 0.16862 0.91262 0.04034 0.0
H1674 H 0.14097 0.9303 0.04319 0.0
H1675 H 0.14603 0.98349 0.00969 0.0
H1676 H 0.0672 0.02897 0.99301 0.0
H1677 H 0.09084 0.00669 0.99349 0.0
H1678 H 0.08213 0.95612 0.03085 0.0
C1679 C 0.14874 0.93176 0.03066 0.0
C1680 C 0.13212 0.97719 0.01422 0.0
C1681 C 0.16455 0.92157 0.02901 0.0
C1682 C 0.0682 0.01969 0.00483 0.0
C1683 C 0.08184 0.00691 0.00514 0.0
C1684 C 0.09609 0.96231 0.02638 0.0
C1685 C 0.14382 0.9446 0.0168 0.0
C1686 C 0.12864 0.95744 0.01913 0.0
C1687 C 0.08386 0.99457 0.02017 0.0
C1688 C 0.09941 0.98183 0.02072 0.0
H1689 H 0.17799 0.93801 0.98683 0.0
H1690 H 0.15066 0.9552 0.98952 0.0
H1691 H 0.10732 0.93515 0.02952 0.0
H1692 H 0.04857 0.00844 0.04591 0.0
H1693 H 0.0725 0.9859 0.04652 0.0
C1694 C 0.71667 0.63511 0.9987 0.0
C1695 C 0.7204 0.65235 0.98909 0.0
C1696 C 0.69765 0.62651 1.00084 0.0
C1697 C 0.65805 0.61665 0.01354 0.0
H1698 H 0.61559 0.61657 0.97406 0.0
C1699 C 0.58038 0.58111 0.02478 0.0
C1700 C 0.56842 0.571 0.00897 0.0
C1701 C 0.59795 0.59314 0.02232 0.0
C1702 C 0.6273 0.61625 0.98516 0.0
H1703 H 0.70754 0.67508 0.97531 0.0
H1704 H 0.67389 0.6603 0.97948 0.0
H1705 H 0.64831 0.6329 0.96954 0.0
H1706 H 0.56509 0.56562 0.9782 0.0
H1707 H 0.59637 0.58559 0.97389 0.0
H1708 H 0.63765 0.59891 0.02859 0.0
C1709 C 0.68567 0.65294 0.98467 0.0
C1710 C 0.64604 0.62593 0.98269 0.0
C1711 C 0.70485 0.66148 0.98238 0.0
C1712 C 0.57414 0.5733 0.99061 0.0
C1713 C 0.59199 0.58491 0.98817 0.0
C1714 C 0.6395 0.60667 0.01582 0.0
C1715 C 0.68187 0.63532 0.99397 0.0
C1716 C 0.66167 0.62608 0.99679 0.0
C1717 C 0.60424 0.59487 0.00402 0.0
C1718 C 0.62384 0.60625 1.00167 0.0
H1719 H 0.72853 0.62818 0.00454 0.0
H1720 H 0.69539 0.61278 0.00773 0.0
H1721 H 0.6696 0.6168 0.02493 0.0
H1722 H 0.57603 0.5799 0.03905 0.0
H1723 H 0.60659 0.60102 0.03484 0.0
C1724 C 0.66554 0.44698 0.27963 0.0
C1725 C 0.67192 0.45937 0.29646 0.0
C1726 C 0.67469 0.43085 0.27513 0.0
C1727 C 0.72192 0.41437 0.28581 0.0
H1728 H 0.69512 0.3628 0.26382 0.0
C1729 C 0.75882 0.34641 0.28694 0.0
C1730 C 0.75692 0.33364 0.27031 0.0
C1731 C 0.74775 0.36144 0.28813 0.0
C1732 C 0.70278 0.37723 0.2697 0.0
H1733 H 0.69212 0.46368 0.32228 0.0
H1734 H 0.70766 0.43552 0.31465 0.0
H1735 H 0.67634 0.38921 0.27039 0.0
H1736 H 0.74228 0.32684 0.24167 0.0
H1737 H 0.72234 0.35316 0.2439 0.0
H1738 H 0.74825 0.40243 0.28553 0.0
C1739 C 0.69599 0.43855 0.30464 0.0
C1740 C 0.69206 0.39233 0.2735 0.0
C1741 C 0.68696 0.45465 0.30909 0.0
C1742 C 0.74375 0.33629 0.25476 0.0
C1743 C 0.73241 0.35132 0.25603 0.0
C1744 C 0.73256 0.39935 0.28211 0.0
C1745 C 0.69036 0.42678 0.28737 0.0
C1746 C 0.7015 0.41094 0.28201 0.0
C1747 C 0.73446 0.36413 0.27272 0.0
C1748 C 0.7231 0.3805 0.27441 0.0
H1749 H 0.65403 0.4502 0.26955 0.0
H1750 H 0.67 0.42209 0.26171 0.0
H1751 H 0.72974 0.42869 0.29182 0.0
H1752 H 0.76878 0.34469 0.29921 0.0
H1753 H 0.74946 0.37087 0.30127 0.0
C1754 C 0.79032 0.40412 0.51634 0.0
C1755 C 0.77681 0.4131 0.52562 0.0
C1756 C 0.80979 0.41349 0.51737 0.0
C1757 C 0.84677 0.45332 0.54432 0.0
H1758 H 0.87025 0.45401 0.49672 0.0
C1759 C 0.91615 0.4988 0.50877 0.0
C1760 C 0.93138 0.49866 0.52319 0.0
C1761 C 0.89759 0.48803 0.51 0.0
C1762 C 0.86388 0.45407 0.51012 0.0
H1763 H 0.7732 0.43754 0.545 0.0
H1764 H 0.80708 0.45415 0.54666 0.0
H1765 H 0.83769 0.43528 0.49766 0.0
H1766 H 0.93914 0.48747 0.5504 0.0
H1767 H 0.90663 0.46854 0.55259 0.0
H1768 H 0.87292 0.47247 0.55666 0.0
C1769 C 0.80276 0.44007 0.53833 0.0
C1770 C 0.84527 0.44312 0.51072 0.0
C1771 C 0.7833 0.43074 0.53718 0.0
C1772 C 0.92763 0.48784 0.53909 0.0
C1773 C 0.90901 0.47708 0.54036 0.0
C1774 C 0.86545 0.46423 0.54374 0.0
C1775 C 0.81616 0.4318 0.52806 0.0
C1776 C 0.8364 0.4427 0.52778 0.0
C1777 C 0.89381 0.47687 0.52572 0.0
C1778 C 0.87417 0.46487 0.52658 0.0
H1779 H 0.78569 0.39019 0.5078 0.0
H1780 H 0.8198 0.40646 0.50966 0.0
H1781 H 0.84048 0.45318 0.55776 0.0
H1782 H 0.91862 0.50707 0.49638 0.0
H1783 H 0.88616 0.48848 0.49864 0.0
C1784 C 0.385 0.13901 0.26659 0.0
C1785 C 0.37879 0.12234 0.25365 0.0
C1786 C 0.37627 0.15592 0.26501 0.0
C1787 C 0.34097 0.17878 0.23328 0.0
H1788 H 0.331 0.2035 0.28137 0.0
C1789 C 0.27879 0.22434 0.24116 0.0
C1790 C 0.28305 0.2418 0.25334 0.0
C1791 C 0.29258 0.21178 0.23981 0.0
C1792 C 0.33385 0.19694 0.2678 0.0
H1793 H 0.35906 0.11027 0.22872 0.0
H1794 H 0.34352 0.13933 0.2261 0.0
H1795 H 0.35179 0.17838 0.28138 0.0
H1796 H 0.30524 0.26003 0.27337 0.0
H1797 H 0.32919 0.23796 0.27124 0.0
H1798 H 0.32217 0.19682 0.21984 0.0
C1799 C 0.35543 0.13985 0.23719 0.0
C1800 C 0.34591 0.18255 0.26777 0.0
C1801 C 0.3643 0.1231 0.23868 0.0
C1802 C 0.30153 0.24668 0.26384 0.0
C1803 C 0.31521 0.23399 0.26271 0.0
C1804 C 0.32869 0.19298 0.23334 0.0
C1805 C 0.36088 0.15635 0.25064 0.0
C1806 C 0.3495 0.17305 0.25052 0.0
C1807 C 0.31083 0.21628 0.25083 0.0
C1808 C 0.32483 0.20209 0.25061 0.0
H1809 H 0.39592 0.1386 0.27845 0.0
H1810 H 0.38118 0.1684 0.27543 0.0
H1811 H 0.34363 0.17217 0.21967 0.0
H1812 H 0.26467 0.22022 0.2329 0.0
H1813 H 0.2887 0.19819 0.23064 0.0
C1814 C 0.31843 0.10809 0.48799 0.0
C1815 C 0.31645 0.12758 0.49367 0.0
C1816 C 0.33278 0.09921 0.49737 0.0
C1817 C 0.38012 0.10892 0.52493 0.0
H1818 H 0.36491 0.05577 0.54035 0.0
C1819 C 0.43847 0.06513 0.55163 0.0
C1820 C 0.43611 0.04612 0.54228 0.0
C1821 C 0.4228 0.07539 0.55136 0.0
C1822 C 0.36941 0.07059 0.53614 0.0
H1823 H 0.32862 0.15331 0.51314 0.0
H1824 H 0.35411 0.13782 0.52918 0.0
H1825 H 0.34002 0.07376 0.52725 0.0
H1826 H 0.41539 0.02218 0.52682 0.0
H1827 H 0.38819 0.04009 0.52595 0.0
H1828 H 0.40954 0.10546 0.53268 0.0
C1829 C 0.34427 0.12943 0.51764 0.0
C1830 C 0.35516 0.08087 0.52866 0.0
C1831 C 0.32972 0.13827 0.50843 0.0
C1832 C 0.41755 0.03684 0.53412 0.0
C1833 C 0.40193 0.04713 0.53372 0.0
C1834 C 0.39441 0.09856 0.5322 0.0
C1835 C 0.34563 0.10969 0.51244 0.0
C1836 C 0.36046 0.09989 0.52251 0.0
C1837 C 0.40458 0.06684 0.54161 0.0
C1838 C 0.38925 0.07904 0.53737 0.0
H1839 H 0.30852 0.0994 0.47669 0.0
H1840 H 0.3338 0.08408 0.49286 0.0
H1841 H 0.38455 0.12356 0.52024 0.0
H1842 H 0.45267 0.07255 0.55813 0.0
H1843 H 0.42521 0.09038 0.55795 0.0
C1844 C 0.67705 0.56538 0.29106 0.0
C1845 C 0.65936 0.56026 0.29886 0.0
C1846 C 0.68568 0.58521 0.29094 0.0
C1847 C 0.67396 0.63473 0.28922 0.0
H1848 H 0.72917 0.65229 0.30469 0.0
C1849 C 0.71855 0.7063 0.26623 0.0
C1850 C 0.73028 0.71899 0.28074 0.0
C1851 C 0.70932 0.68754 0.27008 0.0
C1852 C 0.71371 0.64762 0.30047 0.0
H1853 H 0.63606 0.5717 0.31147 0.0
H1854 H 0.65104 0.60665 0.31104 0.0
H1855 H 0.71423 0.61815 0.30863 0.0
H1856 H 0.74162 0.72191 0.31065 0.0
H1857 H 0.72589 0.68872 0.31721 0.0
H1858 H 0.67364 0.664 0.28032 0.0
C1859 C 0.65849 0.59525 0.3055 0.0
C1860 C 0.70519 0.62809 0.30265 0.0
C1861 C 0.64996 0.57534 0.3058 0.0
C1862 C 0.73265 0.71247 0.29918 0.0
C1863 C 0.72372 0.6935 0.30293 0.0
C1864 C 0.68257 0.65414 0.28669 0.0
C1865 C 0.67647 0.60037 0.2981 0.0
C1866 C 0.68525 0.62141 0.29696 0.0
C1867 C 0.7119 0.68091 0.28842 0.0
C1868 C 0.70255 0.66072 0.29218 0.0
H1869 H 0.68411 0.55401 0.28483 0.0
H1870 H 0.69932 0.58871 0.28478 0.0
H1871 H 0.6586 0.62994 0.28455 0.0
H1872 H 0.71632 0.71094 0.25191 0.0
H1873 H 0.7004 0.67805 0.25861 0.0
C1874 C 0.86437 0.50772 0.74417 0.0
C1875 C 0.88085 0.51418 0.7573 0.0
C1876 C 0.85429 0.48835 0.74368 0.0
C1877 C 0.85821 0.43872 0.7613 0.0
H1878 H 0.80183 0.43064 0.75178 0.0
C1879 C 0.80908 0.36734 0.77832 0.0
C1880 C 0.79347 0.35922 0.76463 0.0
C1881 C 0.81992 0.386 0.77653 0.0
C1882 C 0.81758 0.43262 0.75429 0.0
H1883 H 0.90061 0.50551 0.77937 0.0
H1884 H 0.88249 0.47191 0.77941 0.0
H1885 H 0.82067 0.4633 0.74971 0.0
H1886 H 0.77679 0.36412 0.73842 0.0
H1887 H 0.79569 0.39688 0.7353 0.0
H1888 H 0.85492 0.40788 0.76599 0.0
C1889 C 0.87739 0.48153 0.76918 0.0
C1890 C 0.82845 0.4514 0.75312 0.0
C1891 C 0.88769 0.50082 0.76936 0.0
C1892 C 0.78872 0.37013 0.74921 0.0
C1893 C 0.7995 0.38886 0.74746 0.0
C1894 C 0.84732 0.41994 0.76254 0.0
C1895 C 0.86042 0.47506 0.75644 0.0
C1896 C 0.84892 0.45479 0.75682 0.0
C1897 C 0.81529 0.39694 0.76105 0.0
C1898 C 0.82688 0.41673 0.75918 0.0
H1899 H 0.85926 0.51771 0.73431 0.0
H1900 H 0.84166 0.48385 0.7333 0.0
H1901 H 0.87394 0.44054 0.76374 0.0
H1902 H 0.81304 0.35921 0.79035 0.0
H1903 H 0.83183 0.39195 0.78736 0.0
C1904 C 0.9652 0.81499 0.10369 0.0
C1905 C 0.978 0.81206 0.11949 0.0
C1906 C 0.96744 0.83297 0.09523 0.0
C1907 C 0.00438 0.87629 0.08919 0.0
H1908 H 0.95959 0.89894 0.07055 0.0
C1909 C 0.01175 0.95294 0.05819 0.0
C1910 C 0.99844 0.95535 0.04268 0.0
C1911 C 0.00952 0.93545 0.06751 0.0
C1912 C 0.97224 0.89268 0.07543 0.0
H1913 H 0.00298 0.82612 0.13902 0.0
H1914 H 0.00681 0.85765 0.12426 0.0
H1915 H 0.95486 0.86918 0.0879 0.0
H1916 H 0.97265 0.94123 0.02439 0.0
H1917 H 0.96886 0.91045 0.04047 0.0
H1918 H 0.02176 0.89968 0.07659 0.0
C1919 C 0.99513 0.84585 0.11835 0.0
C1920 C 0.96953 0.87565 0.08546 0.0
C1921 C 0.99283 0.82784 0.12691 0.0
C1922 C 0.9831 0.93975 0.03634 0.0
C1923 C 0.98086 0.92221 0.04566 0.0
C1924 C 0.00709 0.8933 0.07912 0.0
C1925 C 0.98258 0.84854 0.10227 0.0
C1926 C 0.98556 0.8672 0.0924 0.0
C1927 C 0.99391 0.91993 0.06152 0.0
C1928 C 0.99105 0.90168 0.07206 0.0
H1929 H 0.95359 0.80323 0.09755 0.0
H1930 H 0.95764 0.83443 0.08276 0.0
H1931 H 0.01701 0.86998 0.09406 0.0
H1932 H 0.02369 0.96477 0.06341 0.0
H1933 H 0.01972 0.93434 0.07977 0.0
C1934 C 0.96516 0.27366 0.83162 0.0
C1935 C 0.96866 0.28528 0.84905 0.0
C1936 C 0.94649 0.26962 0.82167 0.0
C1937 C 0.8942 0.26888 0.82752 0.0
H1938 H 0.88932 0.27458 0.773 0.0
C1939 C 0.83131 0.28398 0.76783 0.0
C1940 C 0.81564 0.26934 0.77109 0.0
C1941 C 0.85028 0.28325 0.77568 0.0
C1942 C 0.89046 0.27287 0.78821 0.0
H1943 H 0.95529 0.30056 0.87054 0.0
H1944 H 0.92263 0.29381 0.85309 0.0
H1945 H 0.92161 0.27816 0.79064 0.0
H1946 H 0.80775 0.24203 0.7846 0.0
H1947 H 0.84091 0.2409 0.79849 0.0
H1948 H 0.86296 0.26351 0.82502 0.0
C1949 C 0.93429 0.28788 0.84698 0.0
C1950 C 0.90897 0.2749 0.79833 0.0
C1951 C 0.95298 0.29188 0.85692 0.0
C1952 C 0.81951 0.25345 0.78166 0.0
C1953 C 0.83845 0.2529 0.78979 0.0
C1954 C 0.87568 0.26652 0.81734 0.0
C1955 C 0.93084 0.27686 0.82912 0.0
C1956 C 0.9111 0.27332 0.81817 0.0
C1957 C 0.85396 0.26803 0.78723 0.0
C1958 C 0.87362 0.26879 0.79763 0.0
H1959 H 0.97691 0.26774 0.82565 0.0
H1960 H 0.94431 0.26077 0.80816 0.0
H1961 H 0.89528 0.26726 0.84273 0.0
H1962 H 0.82881 0.29644 0.75979 0.0
H1963 H 0.86192 0.29516 0.77353 0.0
C1964 C 0.50341 0.21292 0.61699 0.0
C1965 C 0.49203 0.21194 0.63233 0.0
C1966 C 0.50631 0.19566 0.60705 0.0
C1967 C 0.51949 0.15706 0.59608 0.0
H1968 H 0.47559 0.11526 0.5794 0.0
C1969 C 0.52959 0.0829 0.55901 0.0
C1970 C 0.51654 0.0754 0.54289 0.0
C1971 C 0.52622 0.09889 0.5707 0.0
C1972 C 0.48797 0.12684 0.58393 0.0
H1973 H 0.47564 0.19234 0.65014 0.0
H1974 H 0.48043 0.16179 0.63242 0.0
H1975 H 0.47066 0.14448 0.59885 0.0
H1976 H 0.48995 0.07893 0.52607 0.0
H1977 H 0.4839 0.10682 0.54663 0.0
H1978 H 0.53677 0.13975 0.58101 0.0
C1979 C 0.48687 0.17599 0.62795 0.0
C1980 C 0.48518 0.14344 0.59521 0.0
C1981 C 0.48418 0.19338 0.63811 0.0
C1982 C 0.50007 0.08423 0.53861 0.0
C1983 C 0.49661 0.10016 0.55039 0.0
C1984 C 0.5223 0.14045 0.58497 0.0
C1985 C 0.49795 0.177 0.61228 0.0
C1986 C 0.5009 0.1588 0.60127 0.0
C1987 C 0.50971 0.10774 0.56652 0.0
C1988 C 0.50658 0.12518 0.57866 0.0
H1989 H 0.50996 0.22712 0.61257 0.0
H1990 H 0.51479 0.19696 0.59498 0.0
H1991 H 0.53191 0.16859 0.60063 0.0
H1992 H 0.54238 0.07633 0.56267 0.0
H1993 H 0.53649 0.10423 0.58312 0.0
C1994 C 0.58163 0.79035 0.35413 0.0
C1995 C 0.56901 0.80168 0.34499 0.0
C1996 C 0.59974 0.7891 0.3476 0.0
C1997 C 0.63598 0.81307 0.317 0.0
H1998 H 0.65015 0.76092 0.3117 0.0
C1999 C 0.70742 0.79978 0.28653 0.0
C2000 C 0.70588 0.78295 0.27377 0.0
C2001 C 0.69192 0.80258 0.29701 0.0
C2002 C 0.64639 0.77559 0.31303 0.0
H2003 H 0.566 0.8211 0.32211 0.0
H2004 H 0.5973 0.81882 0.31078 0.0
H2005 H 0.62117 0.76531 0.32698 0.0
H2006 H 0.68689 0.75604 0.26167 0.0
H2007 H 0.65974 0.76103 0.27963 0.0
H2008 H 0.66083 0.82321 0.30245 0.0
C2009 C 0.59333 0.81101 0.32309 0.0
C2010 C 0.62989 0.77815 0.32202 0.0
C2011 C 0.57525 0.8122 0.32955 0.0
C2012 C 0.6885 0.76912 0.27148 0.0
C2013 C 0.67302 0.77189 0.28193 0.0
C2014 C 0.65251 0.81051 0.30804 0.0
C2015 C 0.60572 0.79924 0.33184 0.0
C2016 C 0.62428 0.79687 0.32386 0.0
C2017 C 0.67451 0.78864 0.29487 0.0
C2018 C 0.65776 0.79167 0.30565 0.0
H2019 H 0.57734 0.78205 0.36605 0.0
H2020 H 0.60901 0.78007 0.35481 0.0
H2021 H 0.63224 0.82775 0.31837 0.0
H2022 H 0.72056 0.81084 0.2883 0.0
H2023 H 0.69363 0.8156 0.30689 0.0
C2024 C 0.03847 0.22298 0.45556 0.0
C2025 C 0.02642 0.22496 0.43895 0.0
C2026 C 0.03691 0.20492 0.46383 0.0
C2027 C 0.00214 0.16089 0.46942 0.0
H2028 H 0.04781 0.13846 0.48565 0.0
C2029 C 0.99733 0.08623 0.50444 0.0
C2030 C 0.01237 0.08454 0.51851 0.0
C2031 C 0.99846 0.10298 0.494 0.0
C2032 C 0.03492 0.14466 0.48147 0.0
H2033 H 0.00349 0.20962 0.41781 0.0
H2034 H 1.00053 0.17804 0.43256 0.0
H2035 H 0.05141 0.16817 0.46821 0.0
H2036 H 0.03973 0.09948 0.53376 0.0
H2037 H 0.04132 0.12903 0.5163 0.0
H2038 H 0.98568 0.13786 0.48324 0.0
C2039 C 0.01122 0.19047 0.43905 0.0
C2040 C 0.037 0.16158 0.47136 0.0
C2041 C 0.013 0.20847 0.43058 0.0
C2042 C 0.02798 0.10034 0.52285 0.0
C2043 C 0.02902 0.11715 0.51263 0.0
C2044 C 1.00007 0.14408 0.47977 0.0
C2045 C 0.02308 0.1886 0.45582 0.0
C2046 C 0.02067 0.16994 0.4654 0.0
C2047 C 0.01454 0.11848 0.49774 0.0
C2048 C 0.01647 0.13589 0.4861 0.0
H2049 H 0.04895 0.23544 0.4623 0.0
H2050 H 0.04612 0.20387 0.47684 0.0
H2051 H 0.98934 0.16719 0.46511 0.0
H2052 H 0.98484 0.07452 0.50139 0.0
H2053 H 0.987 0.1035 0.48269 0.0
C2054 C 0.55372 0.31396 0.15857 0.0
C2055 C 0.54794 0.30101 0.14207 0.0
C2056 C 0.57157 0.31394 0.16926 0.0
C2057 C 0.60214 0.27994 0.18355 0.0
H2058 H 0.64398 0.3245 0.19755 0.0
C2059 C 0.67516 0.26958 0.22226 0.0
C2060 C 0.68576 0.28496 0.23491 0.0
C2061 C 0.65825 0.27232 0.2114 0.0
C2062 C 0.63228 0.31199 0.1941 0.0
H2063 H 0.55655 0.27853 0.12333 0.0
H2064 H 0.58756 0.27815 0.14238 0.0
H2065 H 0.6152 0.32887 0.1768 0.0
H2066 H 0.68688 0.31503 0.24674 0.0
H2067 H 0.65669 0.31958 0.22848 0.0
H2068 H 0.61846 0.26315 0.20131 0.0
C2069 C 0.57833 0.2884 0.14685 0.0
C2070 C 0.61594 0.3145 0.18208 0.0
C2071 C 0.56068 0.2887 0.13595 0.0
C2072 C 0.6789 0.30295 0.23702 0.0
C2073 C 0.66173 0.3056 0.2264 0.0
C2074 C 0.61822 0.27752 0.19586 0.0
C2075 C 0.58368 0.30071 0.16377 0.0
C2076 C 0.60092 0.29841 0.17654 0.0
C2077 C 0.65133 0.2904 0.21324 0.0
C2078 C 0.63366 0.29342 0.20109 0.0
H2079 H 0.54416 0.32363 0.16355 0.0
H2080 H 0.57546 0.3235 0.18232 0.0
H2081 H 0.59048 0.26743 0.17969 0.0
H2082 H 0.68031 0.25563 0.22024 0.0
H2083 H 0.65094 0.26041 0.20116 0.0
C2084 C 0.53206 0.83685 0.95108 0.0
C2085 C 0.53757 0.83617 0.93247 0.0
C2086 C 0.53506 0.85477 0.96226 0.0
C2087 C 0.54244 0.90864 0.95656 0.0
H2088 H 0.5473 0.91202 0.01194 0.0
C2089 C 0.54657 0.98218 1.00028 0.0
C2090 C 0.53062 0.98221 0.01101 0.0
C2091 C 0.55129 0.9644 0.99321 0.0
C2092 C 0.54605 0.91122 0.99649 0.0
H2093 H 0.55168 0.85331 0.91136 0.0
H2094 H 0.55792 0.88446 0.93121 0.0
H2095 H 0.54965 0.88087 0.99428 0.0
H2096 H 0.50808 0.96361 0.02398 0.0
H2097 H 0.51667 0.93236 0.0118 0.0
H2098 H 0.53913 0.93907 0.95887 0.0
C2099 C 0.55051 0.87137 0.93695 0.0
C2100 C 0.54725 0.8934 0.98633 0.0
C2101 C 0.54708 0.85351 0.9256 0.0
C2102 C 0.52038 0.96406 0.01569 0.0
C2103 C 0.52533 0.94621 0.00882 0.0
C2104 C 0.54167 0.92649 0.96671 0.0
C2105 C 0.54401 0.87236 0.95521 0.0
C2106 C 0.54505 0.89177 0.9662 0.0
C2107 C 0.54038 0.94631 0.997 0.0
C2108 C 0.54313 0.92782 0.98671 0.0
H2109 H 0.52455 0.82371 0.95669 0.0
H2110 H 0.52953 0.8549 0.97606 0.0
H2111 H 0.5402 0.90797 0.94113 0.0
H2112 H 0.55479 0.99588 0.99639 0.0
H2113 H 0.563 0.96476 0.98417 0.0
C2114 C 0.95234 0.83257 0.65215 0.0
C2115 C 0.95312 0.81509 0.64102 0.0
C2116 C 0.9357 0.8347 0.66091 0.0
C2117 C 0.88411 0.81185 0.66367 0.0
H2118 H 0.89614 0.83014 0.7173 0.0
C2119 C 0.83287 0.78808 0.71909 0.0
C2120 C 0.82841 0.80283 0.73174 0.0
C2121 C 0.84772 0.79248 0.70747 0.0
C2122 C 0.89255 0.82532 0.70229 0.0
H2123 H 0.9367 0.78666 0.6293 0.0
H2124 H 0.90774 0.79011 0.64496 0.0
H2125 H 0.92208 0.83315 0.69636 0.0
H2126 H 0.83639 0.83351 0.74289 0.0
H2127 H 0.86296 0.84119 0.72265 0.0
H2128 H 0.85472 0.80313 0.66995 0.0
C2129 C 0.91987 0.80235 0.64671 0.0
C2130 C 0.90735 0.82709 0.69025 0.0
C2131 C 0.93648 0.80032 0.63776 0.0
C2132 C 0.83964 0.8219 0.73325 0.0
C2133 C 0.85472 0.82629 0.72167 0.0
C2134 C 0.86937 0.80994 0.67575 0.0
C2135 C 0.91956 0.81929 0.6589 0.0
C2136 C 0.90337 0.81994 0.6709 0.0
C2137 C 0.85851 0.8117 0.70836 0.0
C2138 C 0.87358 0.81619 0.69525 0.0
H2139 H 0.96489 0.84435 0.65468 0.0
H2140 H 0.93575 0.84812 0.66983 0.0
H2141 H 0.8805 0.80656 0.64878 0.0
H2142 H 0.82449 0.77321 0.71772 0.0
H2143 H 0.85067 0.78087 0.69763 0.0
C2144 C 0.12695 0.0065 0.86245 0.0
C2145 C 0.12018 0.00115 0.84312 0.0
C2146 C 0.11405 0.00483 0.87648 0.0
C2147 C 0.06169 0.00238 0.88239 0.0
H2148 H 0.07807 0.98999 0.93364 0.0
C2149 C 0.02312 0.02303 0.94733 0.0
C2150 C 0.02238 0.0109 0.96269 0.0
C2151 C 0.03308 0.01878 0.93177 0.0
C2152 C 0.0731 0.99318 0.91934 0.0
H2153 H 0.0945 0.98919 0.82356 0.0
H2154 H 0.07212 0.98593 0.84805 0.0
H2155 H 0.0995 0.9877 0.90865 0.0
H2156 H 0.03095 0.98428 0.9733 0.0
H2157 H 0.04805 0.97664 0.94591 0.0
H2158 H 0.03523 0.00769 0.89304 0.0
C2159 C 0.08736 0.99183 0.85232 0.0
C2160 C 0.08554 0.99215 0.90504 0.0
C2161 C 0.10024 0.9936 0.83827 0.0
C2162 C 0.03112 0.99389 0.96168 0.0
C2163 C 0.04114 0.98963 0.94607 0.0
C2164 C 0.04923 0.00333 0.89666 0.0
C2165 C 0.09404 0.99765 0.8716 0.0
C2166 C 0.08016 0.99709 0.88645 0.0
C2167 C 0.04258 0.00226 0.9311 0.0
C2168 C 0.05491 0.99911 0.91542 0.0
H2169 H 0.14217 0.01246 0.86676 0.0
H2170 H 0.11973 0.00976 0.89111 0.0
H2171 H 0.05707 0.00646 0.86832 0.0
H2172 H 0.01659 0.03627 0.9476 0.0
H2173 H 0.03405 0.029 0.92067 0.0
C2174 C 0.71615 0.34671 0.57544 0.0
C2175 C 0.71901 0.36743 0.57511 0.0
C2176 C 0.71871 0.33782 0.59269 0.0
C2177 C 0.74118 0.34911 0.64365 0.0
H2178 H 0.71211 0.29707 0.64923 0.0
C2179 C 0.75912 0.30343 0.7084 0.0
C2180 C 0.74391 0.28988 0.71426 0.0
C2181 C 0.75597 0.31376 0.69206 0.0
C2182 C 0.72023 0.31174 0.6482 0.0
H2183 H 0.72624 0.39504 0.59286 0.0
H2184 H 0.7298 0.37965 0.62295 0.0
H2185 H 0.70576 0.31328 0.62041 0.0
H2186 H 0.71324 0.2775 0.7084 0.0
H2187 H 0.70746 0.29599 0.68081 0.0
H2188 H 0.75501 0.34787 0.67188 0.0
C2189 C 0.72621 0.37014 0.60986 0.0
C2190 C 0.7168 0.32097 0.63132 0.0
C2191 C 0.72392 0.37903 0.59256 0.0
C2192 C 0.72536 0.28757 0.70403 0.0
C2193 C 0.7221 0.29811 0.68801 0.0
C2194 C 0.74442 0.33997 0.66068 0.0
C2195 C 0.72394 0.34937 0.61023 0.0
C2196 C 0.72728 0.33978 0.62864 0.0
C2197 C 0.73743 0.31104 0.6814 0.0
C2198 C 0.73402 0.32109 0.66326 0.0
H2199 H 0.71262 0.3373 0.56227 0.0
H2200 H 0.71714 0.32185 0.59209 0.0
H2201 H 0.74984 0.36343 0.64221 0.0
H2202 H 0.77359 0.30552 0.71603 0.0
H2203 H 0.76825 0.32342 0.68751 0.0
C2204 C 0.41837 0.08711 0.32931 0.0
C2205 C 0.42276 0.07662 0.31305 0.0
C2206 C 0.42797 0.08547 0.34735 0.0
C2207 C 0.46863 0.06326 0.37247 0.0
H2208 H 0.43811 0.06769 0.415 0.0
C2209 C 0.49904 0.05093 0.4497 0.0
C2210 C 0.48576 0.04361 0.46236 0.0
C2211 C 0.4924 0.05634 0.43169 0.0
C2212 C 0.44682 0.06601 0.40333 0.0
H2213 H 0.44079 0.05632 0.30288 0.0
H2214 H 0.45677 0.05252 0.33423 0.0
H2215 H 0.42507 0.07418 0.38364 0.0
H2216 H 0.45511 0.0355 0.46578 0.0
H2217 H 0.44352 0.04366 0.43426 0.0
H2218 H 0.48972 0.05354 0.39199 0.0
C2219 C 0.44656 0.06274 0.33323 0.0
C2220 C 0.43946 0.07026 0.38519 0.0
C2221 C 0.43735 0.06487 0.31512 0.0
C2222 C 0.46573 0.04141 0.45647 0.0
C2223 C 0.45909 0.0463 0.43833 0.0
C2224 C 0.4758 0.05851 0.39056 0.0
C2225 C 0.44176 0.0727 0.34976 0.0
C2226 C 0.45018 0.06894 0.36937 0.0
C2227 C 0.47227 0.05409 0.42565 0.0
C2228 C 0.46497 0.05969 0.40632 0.0
H2229 H 0.40719 0.0963 0.32813 0.0
H2230 H 0.42421 0.09398 0.35942 0.0
H2231 H 0.47766 0.06237 0.36093 0.0
H2232 H 0.51459 0.05289 0.45387 0.0
H2233 H 0.50314 0.06256 0.42267 0.0
C2234 C 0.78384 0.68028 0.06243 0.0
C2235 C 0.78796 0.69178 0.04708 0.0
C2236 C 0.78496 0.68933 0.08085 0.0
C2237 C 0.77564 0.73408 0.10374 0.0
H2238 H 0.79913 0.7163 0.15009 0.0
C2239 C 0.76376 0.76624 0.17847 0.0
C2240 C 0.76151 0.75266 0.19247 0.0
C2241 C 0.76974 0.76061 0.16091 0.0
C2242 C 0.79232 0.72131 0.13729 0.0
H2243 H 0.79748 0.72156 0.039 0.0
H2244 H 0.79895 0.73737 0.07117 0.0
H2245 H 0.8058 0.70268 0.11912 0.0
H2246 H 0.7632 0.72259 0.19921 0.0
H2247 H 0.77264 0.71245 0.16841 0.0
H2248 H 0.76118 0.75177 0.12164 0.0
C2249 C 0.79499 0.7214 0.06892 0.0
C2250 C 0.79629 0.71362 0.11962 0.0
C2251 C 0.7942 0.71233 0.05058 0.0
C2252 C 0.76491 0.73334 0.18861 0.0
C2253 C 0.77057 0.72763 0.17104 0.0
C2254 C 0.77139 0.74152 0.12139 0.0
C2255 C 0.78993 0.71001 0.08408 0.0
C2256 C 0.78774 0.71974 0.10274 0.0
C2257 C 0.77331 0.74124 0.15704 0.0
C2258 C 0.77936 0.73492 0.13837 0.0
H2259 H 0.77907 0.66441 0.06012 0.0
H2260 H 0.78089 0.68029 0.09236 0.0
H2261 H 0.76871 0.73882 0.09084 0.0
H2262 H 0.7614 0.7813 0.18127 0.0
H2263 H 0.77188 0.77152 0.15052 0.0
C2264 C 0.13004 0.9979 0.71853 0.0
C2265 C 0.11792 0.99514 0.73324 0.0
C2266 C 0.12201 0.99758 0.69957 0.0
C2267 C 0.07508 0.98503 0.66756 0.0
H2268 H 0.10138 0.02415 0.63712 0.0
C2269 C 0.03818 0.01316 0.59999 0.0
C2270 C 0.04886 0.01486 0.58413 0.0
C2271 C 0.04678 0.00841 0.61743 0.0
C2272 C 0.09399 0.01299 0.64537 0.0
H2273 H 0.08789 0.98933 0.73959 0.0
H2274 H 0.07388 0.98942 0.70673 0.0
H2275 H 0.11615 0.01991 0.6689 0.0
H2276 H 0.0767 0.01267 0.57386 0.0
H2277 H 0.09188 0.00474 0.60449 0.0
H2278 H 0.0525 0.97884 0.64415 0.0
C2279 C 0.08958 0.99136 0.70964 0.0
C2280 C 0.10249 0.01046 0.66359 0.0
C2281 C 0.09762 0.9914 0.72855 0.0
C2282 C 0.06818 0.01149 0.5859 0.0
C2283 C 0.07687 0.00702 0.60341 0.0
C2284 C 0.06646 0.98777 0.64943 0.0
C2285 C 0.10166 0.99479 0.6949 0.0
C2286 C 0.0931 0.99654 0.67501 0.0
C2287 C 0.06629 0.00554 0.61937 0.0
C2288 C 0.07578 0.00186 0.63821 0.0
H2289 H 0.14575 1.00067 0.72169 0.0
H2290 H 0.1318 0.99981 0.6886 0.0
H2291 H 0.06756 0.97391 0.67574 0.0
H2292 H 0.02324 0.01565 0.59897 0.0
H2293 H 0.03834 0.00752 0.62954 0.0
C2294 C 0.71986 0.35342 0.46452 0.0
C2295 C 0.72043 0.37403 0.46474 0.0
C2296 C 0.72085 0.34213 0.4474 0.0
C2297 C 0.73627 0.32467 0.41185 0.0
H2298 H 0.71287 0.33876 0.36371 0.0
C2299 C 0.75906 0.29832 0.33872 0.0
C2300 C 0.74505 0.29481 0.32263 0.0
C2301 C 0.75452 0.30598 0.35632 0.0
C2302 C 0.71934 0.33437 0.37698 0.0
H2303 H 0.72191 0.39867 0.44672 0.0
H2304 H 0.72372 0.37925 0.41734 0.0
H2305 H 0.70672 0.35519 0.39346 0.0
H2306 H 0.71499 0.29618 0.31285 0.0
H2307 H 0.70699 0.30909 0.3435 0.0
H2308 H 0.74872 0.30367 0.39532 0.0
C2309 C 0.72231 0.37163 0.43025 0.0
C2310 C 0.716 0.34404 0.39414 0.0
C2311 C 0.72137 0.38286 0.44726 0.0
C2312 C 0.72621 0.29869 0.32484 0.0
C2313 C 0.72165 0.30629 0.34246 0.0
C2314 C 0.7396 0.31496 0.39467 0.0
C2315 C 0.72233 0.35113 0.43003 0.0
C2316 C 0.72463 0.33957 0.41185 0.0
C2317 C 0.73581 0.31035 0.35843 0.0
C2318 C 0.73137 0.31982 0.37692 0.0
H2319 H 0.71923 0.34606 0.47764 0.0
H2320 H 0.72058 0.32635 0.44782 0.0
H2321 H 0.74333 0.32086 0.42511 0.0
H2322 H 0.77377 0.29568 0.33763 0.0
H2323 H 0.76594 0.3091 0.3681 0.0
C2324 C 0.41774 0.05882 0.18743 0.0
C2325 C 0.4278 0.07124 0.20304 0.0
C2326 C 0.42658 0.05594 0.17072 0.0
C2327 C 0.47582 0.06262 0.15261 0.0
H2328 H 0.44533 0.05072 0.10319 0.0
C2329 C 0.50984 0.06496 0.08119 0.0
C2330 C 0.50421 0.04834 0.06797 0.0
C2331 C 0.50019 0.06695 0.09746 0.0
C2332 C 0.45398 0.05385 0.11693 0.0
H2333 H 0.45477 0.09102 0.21303 0.0
H2334 H 0.46984 0.08692 0.18363 0.0
H2335 H 0.4291 0.05705 0.13152 0.0
H2336 H 0.48418 0.02067 0.06172 0.0
H2337 H 0.46662 0.02452 0.08992 0.0
H2338 H 0.50077 0.06021 0.13772 0.0
C2339 C 0.45538 0.07869 0.18444 0.0
C2340 C 0.4447 0.05744 0.13326 0.0
C2341 C 0.44666 0.08126 0.2013 0.0
C2342 C 0.48861 0.03375 0.07142 0.0
C2343 C 0.47864 0.03594 0.08759 0.0
C2344 C 0.48509 0.05941 0.13625 0.0
C2345 C 0.44564 0.06567 0.16898 0.0
C2346 C 0.45548 0.06193 0.1514 0.0
C2347 C 0.48443 0.05254 0.10084 0.0
C2348 C 0.4743 0.05502 0.11824 0.0
H2349 H 0.40324 0.0507 0.18837 0.0
H2350 H 0.41859 0.04556 0.1594 0.0
H2351 H 0.48468 0.06545 0.16623 0.0
H2352 H 0.52178 0.07652 0.07897 0.0
H2353 H 0.5049 0.07997 0.10732 0.0
C2354 C 0.79243 0.70798 0.94455 0.0
C2355 C 0.78238 0.68867 0.93897 0.0
C2356 C 0.79709 0.72138 0.93097 0.0
C2357 C 0.79009 0.74963 0.9008 0.0
H2358 H 0.80546 0.73434 0.85146 0.0
C2359 C 0.76844 0.78268 0.83154 0.0
C2360 C 0.78074 0.78336 0.81692 0.0
C2361 C 0.7741 0.77583 0.84904 0.0
C2362 C 0.8016 0.73902 0.86532 0.0
H2363 H 0.77003 0.66811 0.91465 0.0
H2364 H 0.77802 0.69169 0.89087 0.0
H2365 H 0.80513 0.71139 0.87653 0.0
H2366 H 0.80934 0.77928 0.80968 0.0
H2367 H 0.81922 0.7672 0.84035 0.0
H2368 H 0.78591 0.77698 0.88936 0.0
C2369 C 0.78244 0.69633 0.9058 0.0
C2370 C 0.80114 0.72576 0.87956 0.0
C2371 C 0.77776 0.68285 0.91942 0.0
C2372 C 0.79956 0.77892 0.82072 0.0
C2373 C 0.80516 0.77185 0.83819 0.0
C2374 C 0.79047 0.76285 0.88653 0.0
C2375 C 0.79184 0.71583 0.91149 0.0
C2376 C 0.79485 0.73072 0.89725 0.0
C2377 C 0.79211 0.7694 0.85216 0.0
C2378 C 0.79567 0.75744 0.86847 0.0
H2379 H 0.79647 0.71292 0.95948 0.0
H2380 H 0.80459 0.73621 0.93575 0.0
H2381 H 0.78508 0.75385 0.91426 0.0
H2382 H 0.75389 0.78614 0.82903 0.0
H2383 H 0.76367 0.77404 0.85948 0.0
C2384 C 0.85183 0.14002 0.98715 0.0
C2385 C 0.84413 0.14731 0.00334 0.0
C2386 C 0.86778 0.13007 0.98904 0.0
C2387 C 0.88918 0.09764 0.02046 0.0
H2388 H 0.93358 0.10655 0.99124 0.0
C2389 C 0.94858 0.04809 0.02742 0.0
C2390 C 0.95869 0.04447 0.01166 0.0
C2391 C 0.93616 0.06217 0.02721 0.0
C2392 C 0.92116 0.10354 0.99931 0.0
H2393 H 0.84739 0.15007 0.03423 0.0
H2394 H 0.87509 0.13219 0.03757 0.0
H2395 H 0.90971 0.12878 0.98948 0.0
H2396 H 0.96336 0.05247 0.98312 0.0
H2397 H 0.94099 0.0763 0.98219 0.0
H2398 H 0.89968 0.07187 0.0295 0.0
C2399 C 0.8689 0.13452 0.0234 0.0
C2400 C 0.90755 0.11649 0.99841 0.0
C2401 C 0.85319 0.14494 0.0215 0.0
C2402 C 0.95597 0.05515 0.99558 0.0
C2403 C 0.94315 0.06894 0.99515 0.0
C2404 C 0.90253 0.08446 0.02106 0.0
C2405 C 0.87616 0.12666 0.00717 0.0
C2406 C 0.89138 0.1137 0.00898 0.0
C2407 C 0.93295 0.0727 0.01098 0.0
C2408 C 0.9188 0.08712 0.01049 0.0
H2409 H 0.84503 0.14142 0.97297 0.0
H2410 H 0.8729 0.12411 0.97626 0.0
H2411 H 0.8767 0.09484 0.02851 0.0
H2412 H 0.95052 0.04024 0.04013 0.0
H2413 H 0.92922 0.06482 0.03995 0.0
C2414 C 0.31881 0.41437 0.03203 0.0
C2415 C 0.30827 0.42564 0.04299 0.0
C2416 C 0.33888 0.42018 0.03197 0.0
C2417 C 0.38289 0.45226 0.0566 0.0
H2418 H 0.39596 0.46046 0.00526 0.0
C2419 C 0.45322 0.50415 0.04367 0.0
C2420 C 0.46093 0.50219 0.02621 0.0
C2421 C 0.43565 0.49238 0.04667 0.0
C2422 C 0.39305 0.45787 0.01975 0.0
H2423 H 0.31032 0.45018 0.06422 0.0
H2424 H 0.34559 0.46052 0.06414 0.0
H2425 H 0.36464 0.44206 0.00993 0.0
H2426 H 0.4571 0.48612 0.99844 0.0
H2427 H 0.42769 0.46418 0.00417 0.0
H2428 H 0.41172 0.46687 0.06652 0.0
C2429 C 0.33836 0.4474 0.05536 0.0
C2430 C 0.3748 0.44744 0.0224 0.0
C2431 C 0.31821 0.44172 0.05521 0.0
C2432 C 0.45123 0.48796 0.01197 0.0
C2433 C 0.43417 0.47555 0.01526 0.0
C2434 C 0.40154 0.46198 0.05397 0.0
C2435 C 0.34876 0.43705 0.04326 0.0
C2436 C 0.36925 0.44518 0.04081 0.0
C2437 C 0.42585 0.47777 0.03254 0.0
C2438 C 0.40673 0.46553 0.03548 0.0
H2439 H 0.31138 0.40156 0.02291 0.0
H2440 H 0.3466 0.41181 0.0227 0.0
H2441 H 0.37907 0.4504 0.07098 0.0
H2442 H 0.46053 0.51515 0.05482 0.0
H2443 H 0.42971 0.49512 0.05998 0.0
C2444 C 0.33886 0.60664 0.76779 0.0
C2445 C 0.34596 0.59925 0.75133 0.0
C2446 C 0.33207 0.62465 0.76816 0.0
C2447 C 0.30694 0.65417 0.73779 0.0
H2448 H 0.32168 0.69596 0.77859 0.0
C2449 C 0.26823 0.72194 0.73981 0.0
C2450 C 0.26527 0.73038 0.75767 0.0
C2451 C 0.28033 0.70775 0.73849 0.0
C2452 C 0.31715 0.68434 0.76722 0.0
H2453 H 0.35189 0.60504 0.72245 0.0
H2454 H 0.33926 0.63644 0.72286 0.0
H2455 H 0.33931 0.66811 0.77735 0.0
H2456 H 0.27233 0.73056 0.78817 0.0
H2457 H 0.29267 0.70497 0.78608 0.0
H2458 H 0.28404 0.66937 0.72823 0.0
C2459 C 0.33932 0.62834 0.73555 0.0
C2460 C 0.32743 0.6685 0.76643 0.0
C2461 C 0.3466 0.61048 0.73535 0.0
C2462 C 0.27455 0.72435 0.77423 0.0
C2463 C 0.28633 0.70978 0.77296 0.0
C2464 C 0.29639 0.66975 0.73878 0.0
C2465 C 0.33182 0.63545 0.75192 0.0
C2466 C 0.32233 0.65322 0.75177 0.0
C2467 C 0.28934 0.70118 0.75504 0.0
C2468 C 0.30123 0.68503 0.75359 0.0
H2469 H 0.33826 0.59829 0.78033 0.0
H2470 H 0.32624 0.62973 0.78089 0.0
H2471 H 0.30251 0.64239 0.72653 0.0
H2472 H 0.26142 0.72654 0.72678 0.0
H2473 H 0.28262 0.70201 0.72441 0.0
C2474 C 0.22619 0.66056 0.49017 0.0
C2475 C 0.24169 0.65285 0.49924 0.0
C2476 C 0.20695 0.65098 0.4905 0.0
C2477 C 0.17772 0.603 0.50104 0.0
H2478 H 0.13686 0.63447 0.50502 0.0
C2479 C 0.10096 0.57078 0.52064 0.0
C2480 C 0.08495 0.57652 0.51026 0.0
C2481 C 0.11999 0.57979 0.51841 0.0
C2482 C 0.14807 0.62546 0.50369 0.0
H2483 H 0.24941 0.63022 0.51706 0.0
H2484 H 0.21591 0.61368 0.5181 0.0
H2485 H 0.17017 0.65087 0.50292 0.0
H2486 H 0.07619 0.59604 0.48935 0.0
H2487 H 0.10944 0.61191 0.48553 0.0
H2488 H 0.15559 0.57762 0.50228 0.0
C2489 C 0.21847 0.62653 0.50993 0.0
C2490 C 0.16719 0.63485 0.50243 0.0
C2491 C 0.23767 0.63598 0.50938 0.0
C2492 C 0.08829 0.59137 0.49756 0.0
C2493 C 0.1073 0.60051 0.49544 0.0
C2494 C 0.15862 0.59363 0.50245 0.0
C2495 C 0.20282 0.63381 0.5004 0.0
C2496 C 0.18231 0.62376 0.50116 0.0
C2497 C 0.12338 0.59483 0.50586 0.0
C2498 C 0.14359 0.60475 0.50387 0.0
H2499 H 0.229 0.6738 0.48256 0.0
H2500 H 0.19535 0.65695 0.48286 0.0
H2501 H 0.18885 0.5939 0.49978 0.0
H2502 H 0.09879 0.55936 0.53054 0.0
H2503 H 0.13204 0.57522 0.52678 0.0
C2504 C 0.63568 0.93282 0.76491 0.0
C2505 C 0.6377 0.94198 0.78353 0.0
C2506 C 0.64438 0.91621 0.76103 0.0
C2507 C 0.6644 0.87498 0.78108 0.0
H2508 H 0.70344 0.88465 0.74578 0.0
C2509 C 0.72356 0.82543 0.77505 0.0
C2510 C 0.73228 0.8242 0.75801 0.0
C2511 C 0.70992 0.83803 0.77727 0.0
C2512 C 0.69233 0.88129 0.75532 0.0
H2513 H 0.64935 0.94022 0.81282 0.0
H2514 H 0.66376 0.9107 0.80614 0.0
H2515 H 0.68217 0.90864 0.75089 0.0
H2516 H 0.73274 0.83406 0.72952 0.0
H2517 H 0.70818 0.855 0.7328 0.0
H2518 H 0.67405 0.84743 0.78526 0.0
C2519 C 0.65571 0.91653 0.79455 0.0
C2520 C 0.68018 0.89522 0.75831 0.0
C2521 C 0.64746 0.93341 0.79835 0.0
C2522 C 0.72645 0.83502 0.74293 0.0
C2523 C 0.71246 0.8472 0.74493 0.0
C2524 C 0.67624 0.86077 0.77776 0.0
C2525 C 0.6548 0.90816 0.77576 0.0
C2526 C 0.66628 0.89235 0.7714 0.0
C2527 C 0.70429 0.84933 0.76231 0.0
C2528 C 0.69064 0.86382 0.76502 0.0
H2529 H 0.6285 0.93924 0.75315 0.0
H2530 H 0.64346 0.91001 0.74642 0.0
H2531 H 0.65374 0.87239 0.79123 0.0
H2532 H 0.72783 0.81723 0.78692 0.0
H2533 H 0.70433 0.83931 0.79098 0.0
C2534 C 0.69719 0.93695 0.52488 0.0
C2535 C 0.71522 0.94976 0.52605 0.0
C2536 C 0.67986 0.94395 0.5199 0.0
C2537 C 0.65887 0.98938 0.51945 0.0
H2538 H 0.62063 0.96026 0.47999 0.0
C2539 C 0.59116 0.02112 0.49464 0.0
C2540 C 0.57355 0.00778 0.49357 0.0
C2541 C 0.60884 0.01411 0.49547 0.0
C2542 C 0.63111 0.9685 0.49111 0.0
H2543 H 0.72917 0.98005 0.52351 0.0
H2544 H 0.699 0.9922 0.51508 0.0
H2545 H 0.65038 0.94734 0.48941 0.0
H2546 H 0.5603 0.97675 0.49101 0.0
H2547 H 0.59108 0.96452 0.49288 0.0
H2548 H 0.63959 0.01025 0.52164 0.0
C2549 C 0.69825 0.97678 0.5179 0.0
C2550 C 0.64809 0.96107 0.49652 0.0
C2551 C 0.71553 0.96977 0.52266 0.0
C2552 C 0.57374 0.98734 0.49188 0.0
C2553 C 0.5914 0.98034 0.49288 0.0
C2554 C 0.64188 0.99672 0.51417 0.0
C2555 C 0.68028 0.96392 0.51629 0.0
C2556 C 0.6621 0.97145 0.51075 0.0
C2557 C 0.60917 0.99367 0.49543 0.0
C2558 C 0.62778 0.98638 0.49994 0.0
H2559 H 0.69651 0.92145 0.52735 0.0
H2560 H 0.66614 0.93379 0.51892 0.0
H2561 H 0.66935 0.99756 0.53061 0.0
H2562 H 0.59135 0.03695 0.49583 0.0
H2563 H 0.62227 0.02475 0.49693 0.0
C2564 C 0.33852 0.48767 0.72902 0.0
C2565 C 0.35487 0.49579 0.74179 0.0
C2566 C 0.33053 0.46755 0.72865 0.0
C2567 C 0.33995 0.4196 0.7482 0.0
H2568 H 0.28388 0.40494 0.73687 0.0
C2569 C 0.29383 0.34849 0.77113 0.0
C2570 C 0.28244 0.33611 0.75618 0.0
C2571 C 0.30311 0.36745 0.76787 0.0
C2572 C 0.29956 0.40884 0.73995 0.0
H2573 H 0.37659 0.48931 0.76323 0.0
H2574 H 0.36204 0.45466 0.76378 0.0
H2575 H 0.29948 0.43879 0.73367 0.0
H2576 H 0.27162 0.33401 0.72617 0.0
H2577 H 0.28732 0.3676 0.7207 0.0
H2578 H 0.3396 0.38962 0.75538 0.0
C2579 C 0.35546 0.46338 0.75357 0.0
C2580 C 0.30862 0.42827 0.73803 0.0
C2581 C 0.36373 0.48335 0.7535 0.0
C2582 C 0.28032 0.3432 0.73795 0.0
C2583 C 0.28924 0.36239 0.73482 0.0
C2584 C 0.33081 0.4003 0.75051 0.0
C2585 C 0.33855 0.45515 0.7413 0.0
C2586 C 0.32898 0.43406 0.74228 0.0
C2587 C 0.30084 0.37459 0.74973 0.0
C2588 C 0.31054 0.39479 0.7465 0.0
H2589 H 0.33188 0.49693 0.71937 0.0
H2590 H 0.31797 0.46185 0.71851 0.0
H2591 H 0.35565 0.42307 0.75108 0.0
H2592 H 0.29585 0.34339 0.78529 0.0
H2593 H 0.31192 0.37664 0.7796 0.0
C2594 C 0.12972 0.5683 0.28316 0.0
C2595 C 0.13665 0.55114 0.27733 0.0
C2596 C 0.14052 0.58698 0.28114 0.0
C2597 C 0.1713 0.62392 0.28634 0.0
H2598 H 0.20288 0.6325 0.24442 0.0
C2599 C 0.22453 0.6973 0.28416 0.0
C2600 C 0.22703 0.70455 0.26626 0.0
C2601 C 0.21449 0.67812 0.28549 0.0
C2602 C 0.19398 0.63055 0.25612 0.0
H2603 H 0.15891 0.53973 0.26293 0.0
H2604 H 0.17825 0.57202 0.26016 0.0
H2605 H 0.18189 0.60093 0.2454 0.0
H2606 H 0.22119 0.69765 0.23571 0.0
H2607 H 0.20288 0.66471 0.23787 0.0
H2608 H 0.1824 0.65398 0.29638 0.0
C2609 C 0.1646 0.57142 0.26633 0.0
C2610 C 0.18212 0.6122 0.25687 0.0
C2611 C 0.15372 0.55284 0.26821 0.0
C2612 C 0.21962 0.69229 0.2497 0.0
C2613 C 0.2092 0.67331 0.25099 0.0
C2614 C 0.18283 0.64243 0.28536 0.0
C2615 C 0.15837 0.58879 0.27307 0.0
C2616 C 0.17063 0.60857 0.27201 0.0
C2617 C 0.20632 0.66597 0.26891 0.0
C2618 C 0.19437 0.64604 0.27024 0.0
H2619 H 0.11622 0.56725 0.2897 0.0
H2620 H 0.13488 0.59997 0.28595 0.0
H2621 H 0.16302 0.62165 0.29846 0.0
H2622 H 0.23021 0.7065 0.29715 0.0
H2623 H 0.21308 0.67293 0.29954 0.0
C2624 C 0.53524 0.74431 0.41832 0.0
C2625 C 0.52476 0.74256 0.40012 0.0
C2626 C 0.53547 0.72776 0.4289 0.0
C2627 C 0.52342 0.67249 0.42495 0.0
H2628 H 0.52078 0.67997 0.47951 0.0
C2629 C 0.50174 0.60745 0.47068 0.0
C2630 C 0.51377 0.6068 0.48766 0.0
C2631 C 0.50387 0.6243 0.46045 0.0
C2632 C 0.5217 0.6777 0.46432 0.0
H2633 H 0.50658 0.72202 0.37859 0.0
H2634 H 0.50649 0.69327 0.39717 0.0
H2635 H 0.52343 0.70855 0.46041 0.0
H2636 H 0.53706 0.62343 0.50759 0.0
H2637 H 0.54055 0.65324 0.48981 0.0
H2638 H 0.52104 0.64153 0.42888 0.0
C2639 C 0.51494 0.7073 0.40319 0.0
C2640 C 0.52331 0.69408 0.45334 0.0
C2641 C 0.51491 0.72382 0.39252 0.0
C2642 C 0.52758 0.62358 0.49455 0.0
C2643 C 0.52956 0.6406 0.4844 0.0
C2644 C 0.52157 0.65612 0.43589 0.0
C2645 C 0.52502 0.70908 0.42164 0.0
C2646 C 0.52409 0.6917 0.43347 0.0
C2647 C 0.51793 0.64098 0.46707 0.0
C2648 C 0.52057 0.65853 0.45566 0.0
H2649 H 0.54309 0.75855 0.42452 0.0
H2650 H 0.54376 0.72968 0.44284 0.0
H2651 H 0.52439 0.67006 0.40979 0.0
H2652 H 0.49093 0.59473 0.46505 0.0
H2653 H 0.49451 0.62428 0.4473 0.0
C2654 C 0.54954 0.28809 0.69886 0.0
C2655 C 0.54658 0.28106 0.67949 0.0
C2656 C 0.56821 0.29134 0.7088 0.0
C2657 C 0.60611 0.28299 0.72894 0.0
H2658 H 0.65212 0.30436 0.7054 0.0
C2659 C 0.68413 0.27393 0.75796 0.0
C2660 C 0.69959 0.28953 0.75653 0.0
C2661 C 0.6652 0.27486 0.75008 0.0
C2662 C 0.63942 0.29857 0.7123 0.0
H2663 H 0.56103 0.27254 0.65523 0.0
H2664 H 0.59358 0.27813 0.67256 0.0
H2665 H 0.61989 0.30311 0.68833 0.0
H2666 H 0.70699 0.31874 0.74631 0.0
H2667 H 0.67398 0.32043 0.73284 0.0
H2668 H 0.62564 0.27847 0.75292 0.0
C2669 C 0.5815 0.28128 0.68006 0.0
C2670 C 0.62094 0.29764 0.7024 0.0
C2671 C 0.56281 0.27801 0.67012 0.0
C2672 C 0.69547 0.30644 0.74774 0.0
C2673 C 0.67656 0.30734 0.73982 0.0
C2674 C 0.6246 0.28387 0.73882 0.0
C2675 C 0.58439 0.28767 0.69961 0.0
C2676 C 0.60405 0.28968 0.71052 0.0
C2677 C 0.66125 0.29139 0.74054 0.0
C2678 C 0.6415 0.29152 0.73056 0.0
H2679 H 0.53736 0.29065 0.7065 0.0
H2680 H 0.56995 0.29656 0.72376 0.0
H2681 H 0.59345 0.27657 0.73557 0.0
H2682 H 0.68674 0.26064 0.76455 0.0
H2683 H 0.65382 0.26223 0.75078 0.0
C2684 C 0.01153 0.36893 0.88292 0.0
C2685 C 0.01984 0.35307 0.88982 0.0
C2686 C 0.00948 0.38496 0.89532 0.0
C2687 C 0.0274 0.41285 0.94101 0.0
H2688 H 0.97471 0.42358 0.94097 0.0
C2689 C 0.00645 0.46795 0.99794 0.0
C2690 C 0.9917 0.47869 0.99247 0.0
C2691 C 0.01072 0.453 0.98544 0.0
C2692 C 0.98961 0.42115 0.94099 0.0
H2693 H 0.03349 0.34226 0.91508 0.0
H2694 H 0.03035 0.37061 0.93661 0.0
H2695 H 0.98148 0.39777 0.91874 0.0
H2696 H 0.97014 0.48268 0.9696 0.0
H2697 H 0.978 0.4573 0.9475 0.0
H2698 H 0.03575 0.43661 0.96283 0.0
C2699 C 0.02521 0.3704 0.92161 0.0
C2700 C 0.99343 0.40622 0.92828 0.0
C2701 C 0.02693 0.35415 0.90928 0.0
C2702 C 0.98144 0.47442 0.97424 0.0
C2703 C 0.9859 0.45975 0.96162 0.0
C2704 C 0.02367 0.4281 0.95352 0.0
C2705 C 0.01605 0.38572 0.91482 0.0
C2706 C 0.01233 0.40189 0.92817 0.0
C2707 C 1.00047 0.44864 0.96707 0.0
C2708 C 0.00467 0.43246 0.95372 0.0
H2709 H 0.00597 0.36869 0.86804 0.0
H2710 H 0.00252 0.39668 0.8897 0.0
H2711 H 0.04213 0.40984 0.94114 0.0
H2712 H 0.01449 0.47092 0.012 0.0
H2713 H 0.02183 0.44466 0.99034 0.0
C2714 C 0.9112 0.74855 0.16247 0.0
C2715 C 0.93013 0.75884 0.16849 0.0
C2716 C 0.89595 0.74969 0.17379 0.0
C2717 C 0.87989 0.78172 0.21018 0.0
H2718 H 0.84681 0.73414 0.22254 0.0
C2719 C 0.82392 0.78535 0.26479 0.0
C2720 C 0.80625 0.77196 0.26193 0.0
C2721 C 0.83892 0.78339 0.25341 0.0
C2722 C 0.85564 0.74764 0.219 0.0
H2723 H 0.94777 0.77856 0.19109 0.0
H2724 H 0.92106 0.78086 0.21057 0.0
H2725 H 0.87276 0.73149 0.20226 0.0
H2726 H 0.79084 0.7454 0.24563 0.0
H2727 H 0.81632 0.74262 0.22487 0.0
H2728 H 0.86259 0.798 0.22629 0.0
C2729 C 0.91809 0.7718 0.19716 0.0
C2730 C 0.8706 0.74607 0.20743 0.0
C2731 C 0.9334 0.77038 0.18604 0.0
C2732 C 0.80402 0.75633 0.2477 0.0
C2733 C 0.81887 0.75453 0.23606 0.0
C2734 C 0.86475 0.78333 0.22147 0.0
C2735 C 0.89921 0.76145 0.19118 0.0
C2736 C 0.88298 0.76308 0.20303 0.0
C2737 C 0.83656 0.76808 0.23869 0.0
C2738 C 0.85248 0.76631 0.22623 0.0
H2739 H 0.90816 0.7395 0.14907 0.0
H2740 H 0.88152 0.74164 0.16878 0.0
H2741 H 0.88905 0.79511 0.2068 0.0
H2742 H 0.82614 0.79746 0.27579 0.0
H2743 H 0.85243 0.79385 0.25629 0.0
C2744 C 0.49994 0.35722 0.09419 0.0
C2745 C 0.49637 0.33938 0.08262 0.0
C2746 C 0.50477 0.37529 0.08613 0.0
C2747 C 0.50095 0.39586 0.03868 0.0
H2748 H 0.53197 0.44299 0.06599 0.0
C2749 C 0.50053 0.47119 0.0096 0.0
C2750 C 0.51756 0.48542 0.01215 0.0
C2751 C 0.49949 0.45381 0.01885 0.0
C2752 C 0.52352 0.42988 0.05806 0.0
H2753 H 0.49634 0.32624 0.05391 0.0
H2754 H 0.50602 0.35726 0.04017 0.0
H2755 H 0.52855 0.41166 0.08098 0.0
H2756 H 0.5472 0.4925 0.02562 0.0
H2757 H 0.54577 0.46149 0.04141 0.0
H2758 H 0.49665 0.41355 0.01547 0.0
C2759 C 0.50408 0.35766 0.05522 0.0
C2760 C 0.5213 0.41197 0.06678 0.0
C2761 C 0.49868 0.33978 0.06313 0.0
C2762 C 0.5338 0.4818 0.02376 0.0
C2763 C 0.53292 0.46412 0.03281 0.0
C2764 C 0.50349 0.41353 0.02989 0.0
C2765 C 0.50657 0.37573 0.06643 0.0
C2766 C 0.50982 0.39476 0.05723 0.0
C2767 C 0.51571 0.4499 0.03041 0.0
C2768 C 0.51447 0.43087 0.03956 0.0
H2769 H 0.49824 0.35725 0.10929 0.0
H2770 H 0.5064 0.38888 0.09521 0.0
H2771 H 0.49164 0.38314 0.03094 0.0
H2772 H 0.48778 0.47366 1.00074 0.0
H2773 H 0.48581 0.44354 0.01703 0.0
C2774 C 0.96354 0.2926 0.40619 0.0
C2775 C 0.97642 0.28115 0.39895 0.0
C2776 C 0.94507 0.29197 0.39639 0.0
C2777 C 0.90766 0.26237 0.36173 0.0
H2778 H 0.89845 0.31256 0.34383 0.0
C2779 C 0.84558 0.26553 0.30266 0.0
C2780 C 0.8371 0.28262 0.30238 0.0
C2781 C 0.86215 0.26506 0.31527 0.0
C2782 C 0.90033 0.29841 0.34899 0.0
H2783 H 0.97992 0.25886 0.37711 0.0
H2784 H 0.94753 0.25747 0.36016 0.0
H2785 H 0.9262 0.31167 0.36676 0.0
H2786 H 0.83863 0.31237 0.31518 0.0
H2787 H 0.86635 0.31118 0.33805 0.0
H2788 H 0.8812 0.24907 0.345 0.0
C2789 C 0.95172 0.26715 0.37311 0.0
C2790 C 0.91646 0.29796 0.36205 0.0
C2791 C 0.97025 0.2681 0.38265 0.0
C2792 C 0.84521 0.29914 0.3149 0.0
C2793 C 0.86125 0.29845 0.32797 0.0
C2794 C 0.89105 0.26286 0.34922 0.0
C2795 C 0.93912 0.27935 0.37968 0.0
C2796 C 0.92054 0.27992 0.36813 0.0
C2797 C 0.87007 0.28143 0.32835 0.0
C2798 C 0.88733 0.28086 0.34233 0.0
H2799 H 0.96804 0.30252 0.41894 0.0
H2800 H 0.93553 0.30149 0.40168 0.0
H2801 H 0.91047 0.24827 0.36639 0.0
H2802 H 0.83944 0.2526 0.29309 0.0
H2803 H 0.86868 0.25184 0.31468 0.0
C2804 C 0.97251 0.72255 0.59808 0.0
C2805 C 0.97031 0.73947 0.58844 0.0
C2806 C 0.96909 0.70387 0.58814 0.0
C2807 C 0.95682 0.66446 0.56489 0.0
H2808 H 0.98072 0.66483 0.5175 0.0
C2809 C 0.96704 0.59193 0.525 0.0
C2810 C 0.98583 0.59193 0.51945 0.0
C2811 C 0.96107 0.60968 0.53049 0.0
C2812 C 0.97395 0.66446 0.53068 0.0
H2813 H 0.96117 0.74992 0.56121 0.0
H2814 H 0.95483 0.71725 0.54394 0.0
H2815 H 0.97663 0.69597 0.53364 0.0
H2816 H 0.01272 0.61073 0.51443 0.0
H2817 H 0.00241 0.64159 0.5242 0.0
H2818 H 0.95524 0.63303 0.5625 0.0
C2819 C 0.95967 0.71847 0.55907 0.0
C2820 C 0.97136 0.68231 0.53983 0.0
C2821 C 0.96316 0.73717 0.569 0.0
C2822 C 0.99814 0.61016 0.51859 0.0
C2823 C 0.99218 0.6279 0.52412 0.0
C2824 C 0.95947 0.64661 0.55576 0.0
C2825 C 0.9633 0.70171 0.56837 0.0
C2826 C 0.96321 0.68256 0.5573 0.0
C2827 C 0.97375 0.62784 0.53058 0.0
C2828 C 0.96853 0.64646 0.5388 0.0
H2829 H 0.97799 0.72383 0.61306 0.0
H2830 H 0.97218 0.69133 0.59576 0.0
H2831 H 0.95029 0.66412 0.5782 0.0
H2832 H 0.95711 0.57817 0.52572 0.0
H2833 H 0.94667 0.60915 0.53509 0.0
C2834 C 0.58061 0.76167 0.88939 0.0
C2835 C 0.57053 0.77619 0.88207 0.0
C2836 C 0.59524 0.75524 0.87964 0.0
C2837 C 0.6082 0.75018 0.83123 0.0
H2838 H 0.6618 0.75247 0.8524 0.0
C2839 C 0.67156 0.76138 0.7862 0.0
C2840 C 0.68777 0.75226 0.79049 0.0
C2841 C 0.65621 0.7591 0.79751 0.0
C2842 C 0.64678 0.75126 0.84638 0.0
H2843 H 0.56894 0.79631 0.85956 0.0
H2844 H 0.59419 0.78504 0.84275 0.0
H2845 H 0.63735 0.75908 0.87348 0.0
H2846 H 0.70049 0.73298 0.80938 0.0
H2847 H 0.67349 0.72902 0.82933 0.0
H2848 H 0.61756 0.74307 0.8041 0.0
C2849 C 0.59055 0.7784 0.85577 0.0
C2850 C 0.63286 0.75509 0.85844 0.0
C2851 C 0.57615 0.78491 0.8655 0.0
C2852 C 0.68808 0.74015 0.80581 0.0
C2853 C 0.67273 0.73796 0.81725 0.0
C2854 C 0.62202 0.74626 0.81925 0.0
C2855 C 0.5998 0.76314 0.86242 0.0
C2856 C 0.61367 0.75538 0.85077 0.0
C2857 C 0.65681 0.7477 0.81338 0.0
C2858 C 0.64159 0.74758 0.82657 0.0
H2859 H 0.57664 0.75467 0.90213 0.0
H2860 H 0.60237 0.74355 0.88507 0.0
H2861 H 0.59336 0.74998 0.8251 0.0
H2862 H 0.67104 0.77084 0.77448 0.0
H2863 H 0.64427 0.76703 0.79433 0.0
C2864 C 0.4205 0.57387 0.69781 0.0
C2865 C 0.40166 0.56251 0.6956 0.0
C2866 C 0.43155 0.57588 0.68234 0.0
C2867 C 0.45637 0.5647 0.65202 0.0
H2868 H 0.43458 0.56852 0.60006 0.0
C2869 C 0.49357 0.54288 0.58656 0.0
C2870 C 0.49237 0.55377 0.57038 0.0
C2871 C 0.48376 0.54702 0.60225 0.0
C2872 C 0.44096 0.56772 0.61452 0.0
H2873 H 0.37932 0.54503 0.6752 0.0
H2874 H 0.39873 0.54833 0.64816 0.0
H2875 H 0.41423 0.57046 0.62617 0.0
H2876 H 0.48039 0.57805 0.55832 0.0
H2877 H 0.46328 0.58536 0.58585 0.0
H2878 H 0.48304 0.56187 0.64044 0.0
C2879 C 0.40489 0.55586 0.66185 0.0
C2880 C 0.42922 0.56859 0.62946 0.0
C2881 C 0.39378 0.5539 0.67736 0.0
C2882 C 0.48176 0.56948 0.57061 0.0
C2883 C 0.47177 0.57352 0.58629 0.0
C2884 C 0.46806 0.56379 0.63712 0.0
C2885 C 0.42409 0.56652 0.66426 0.0
C2886 C 0.43673 0.56687 0.64838 0.0
C2887 C 0.47238 0.56209 0.60215 0.0
C2888 C 0.46045 0.56501 0.61815 0.0
H2889 H 0.42695 0.58086 0.71163 0.0
H2890 H 0.4461 0.58454 0.68464 0.0
H2891 H 0.46261 0.56309 0.66636 0.0
H2892 H 0.50159 0.53066 0.58686 0.0
H2893 H 0.48441 0.5378 0.61412 0.0
C2894 C 0.78945 0.21457 0.95517 0.0
C2895 C 0.79229 0.19477 0.95276 0.0
C2896 C 0.7855 0.22523 0.93925 0.0
C2897 C 0.76664 0.2163 0.8876 0.0
H2898 H 0.7854 0.2724 0.8855 0.0
C2899 C 0.76238 0.25421 0.81701 0.0
C2900 C 0.75771 0.27336 0.81697 0.0
C2901 C 0.76553 0.24537 0.83411 0.0
C2902 C 0.77982 0.25678 0.88594 0.0
H2903 H 0.79431 0.17118 0.93153 0.0
H2904 H 0.78804 0.18974 0.90411 0.0
H2905 H 0.79407 0.25603 0.91417 0.0
H2906 H 0.75267 0.29824 0.83504 0.0
H2907 H 0.75822 0.28276 0.86512 0.0
H2908 H 0.75262 0.21691 0.85938 0.0
C2909 C 0.78821 0.19694 0.91822 0.0
C2910 C 0.78482 0.24736 0.90241 0.0
C2911 C 0.79202 0.1863 0.93404 0.0
C2912 C 0.75609 0.28341 0.83456 0.0
C2913 C 0.75944 0.2746 0.8518 0.0
C2914 C 0.76173 0.22566 0.87119 0.0
C2915 C 0.78435 0.21638 0.92052 0.0
C2916 C 0.77853 0.22689 0.90338 0.0
C2917 C 0.76429 0.25546 0.85179 0.0
C2918 C 0.76844 0.24597 0.86998 0.0
H2919 H 0.78939 0.22155 0.96934 0.0
H2920 H 0.78258 0.24013 0.94166 0.0
H2921 H 0.761 0.20067 0.88791 0.0
H2922 H 0.76411 0.24616 0.80378 0.0
H2923 H 0.76953 0.23078 0.83348 0.0
C2924 C 0.09714 0.48716 0.20945 0.0
C2925 C 0.08621 0.48523 0.22516 0.0
C2926 C 0.08794 0.48751 0.19098 0.0
C2927 C 0.04386 0.50063 0.16592 0.0
H2928 H 0.0604 0.47477 0.12148 0.0
C2929 C 0.00813 0.50712 0.08922 0.0
C2930 C 0.02045 0.50868 0.07454 0.0
C2931 C 0.01493 0.50246 0.10747 0.0
C2932 C 0.05572 0.48232 0.13368 0.0
H2933 H 0.05692 0.48155 0.23364 0.0
H2934 H 0.04087 0.48224 0.20138 0.0
H2935 H 0.07447 0.46947 0.15329 0.0
H2936 H 0.04971 0.50663 0.06777 0.0
H2937 H 0.06159 0.49905 0.09941 0.0
H2938 H 0.02558 0.514 0.14639 0.0
C2939 C 0.05659 0.48355 0.20339 0.0
C2940 C 0.06377 0.47918 0.15196 0.0
C2941 C 0.06578 0.48297 0.22186 0.0
C2942 C 0.03969 0.5054 0.0786 0.0
C2943 C 0.04652 0.5009 0.09683 0.0
C2944 C 0.03594 0.50393 0.14762 0.0
C2945 C 0.06758 0.48615 0.18775 0.0
C2946 C 0.05808 0.48843 0.16832 0.0
C2947 C 0.03428 0.49936 0.11159 0.0
C2948 C 0.04189 0.49499 0.13119 0.0
H2949 H 0.1129 0.48901 0.21148 0.0
H2950 H 0.09689 0.48967 0.17932 0.0
H2951 H 0.03933 0.50821 0.17819 0.0
H2952 H 0.99321 0.5095 0.08663 0.0
H2953 H 0.00495 0.50117 0.11832 0.0
C2954 C 0.75134 0.87993 0.48202 0.0
C2955 C 0.76022 0.89996 0.48317 0.0
C2956 C 0.7501 0.868 0.46511 0.0
C2957 C 0.74029 0.84885 0.42484 0.0
H2958 H 0.7857 0.85289 0.39686 0.0
C2959 C 0.73928 0.81109 0.3494 0.0
C2960 C 0.75587 0.80335 0.34517 0.0
C2961 C 0.73917 0.82166 0.36689 0.0
C2962 C 0.77298 0.85144 0.40463 0.0
H2963 H 0.77444 0.92325 0.46725 0.0
H2964 H 0.77205 0.90237 0.43759 0.0
H2965 H 0.78658 0.87445 0.42576 0.0
H2966 H 0.78498 0.79968 0.356 0.0
H2967 H 0.78473 0.81796 0.38677 0.0
H2968 H 0.72681 0.8256 0.40386 0.0
C2969 C 0.76629 0.8959 0.44993 0.0
C2970 C 0.77338 0.86399 0.42101 0.0
C2971 C 0.76754 0.90788 0.46687 0.0
C2972 C 0.77205 0.80558 0.35895 0.0
C2973 C 0.77195 0.81616 0.37646 0.0
C2974 C 0.73988 0.8363 0.40844 0.0
C2975 C 0.75769 0.87581 0.44894 0.0
C2976 C 0.75705 0.86283 0.43128 0.0
C2977 C 0.75566 0.82465 0.38043 0.0
C2978 C 0.75623 0.83746 0.39818 0.0
H2979 H 0.74553 0.8733 0.49426 0.0
H2980 H 0.7436 0.85252 0.46486 0.0
H2981 H 0.72743 0.84772 0.43238 0.0
H2982 H 0.72663 0.80956 0.33894 0.0
H2983 H 0.72647 0.82815 0.36947 0.0
C2984 C 0.41107 0.5542 0.80196 0.0
C2985 C 0.39079 0.55297 0.80192 0.0
C2986 C 0.42314 0.55596 0.81913 0.0
C2987 C 0.42656 0.57143 0.87008 0.0
H2988 H 0.46245 0.53428 0.87604 0.0
C2989 C 0.46432 0.55902 0.94353 0.0
C2990 C 0.48282 0.55355 0.94454 0.0
C2991 C 0.45431 0.56108 0.92587 0.0
C2992 C 0.45284 0.54507 0.87455 0.0
H2993 H 0.36737 0.55313 0.81998 0.0
H2994 H 0.38858 0.5565 0.85002 0.0
H2995 H 0.44263 0.53398 0.84572 0.0
H2996 H 0.50586 0.54688 0.92812 0.0
H2997 H 0.48875 0.55119 0.89725 0.0
H2998 H 0.43687 0.58274 0.89879 0.0
C2999 C 0.39505 0.55603 0.83669 0.0
C3000 C 0.44139 0.5448 0.85718 0.0
C3001 C 0.38292 0.55399 0.81949 0.0
C3002 C 0.49154 0.55099 0.92768 0.0
C3003 C 0.48163 0.55329 0.91001 0.0
C3004 C 0.4382 0.5719 0.88741 0.0
C3005 C 0.41525 0.5568 0.83666 0.0
C3006 C 0.42799 0.55781 0.85484 0.0
C3007 C 0.4627 0.55796 0.90883 0.0
C3008 C 0.45133 0.55854 0.88996 0.0
H3009 H 0.41765 0.55341 0.7887 0.0
H3010 H 0.43868 0.55666 0.81871 0.0
H3011 H 0.41649 0.58179 0.86857 0.0
H3012 H 0.45725 0.56103 0.95634 0.0
H3013 H 0.43969 0.56441 0.9256 0.0
C3014 C 0.809 0.22237 0.06845 0.0
C3015 C 0.80417 0.2017 0.06456 0.0
C3016 C 0.80753 0.23125 0.0866 0.0
C3017 C 0.80317 0.22052 0.13748 0.0
H3018 H 0.78062 0.26842 0.13984 0.0
C3019 C 0.79582 0.26223 0.20981 0.0
C3020 C 0.77841 0.26962 0.21163 0.0
C3021 C 0.80014 0.25494 0.19199 0.0
C3022 C 0.78686 0.255 0.13948 0.0
H3023 H 0.79453 0.17416 0.07704 0.0
H3024 H 0.79202 0.18954 0.10854 0.0
H3025 H 0.78627 0.25364 0.109 0.0
H3026 H 0.75201 0.27528 0.1958 0.0
H3027 H 0.75952 0.26258 0.16483 0.0
H3028 H 0.80331 0.22159 0.1679 0.0
C3029 C 0.79708 0.19897 0.09765 0.0
C3030 C 0.79034 0.24662 0.12175 0.0
C3031 C 0.79848 0.19011 0.0795 0.0
C3032 C 0.76562 0.26983 0.19501 0.0
C3033 C 0.76997 0.26259 0.17717 0.0
C3034 C 0.79976 0.22893 0.15521 0.0
C3035 C 0.80126 0.2197 0.10141 0.0
C3036 C 0.79842 0.22917 0.12045 0.0
C3037 C 0.78721 0.25483 0.17541 0.0
C3038 C 0.79143 0.24624 0.15649 0.0
H3039 H 0.81339 0.23178 0.0573 0.0
H3040 H 0.81118 0.24722 0.08898 0.0
H3041 H 0.80959 0.20721 0.13715 0.0
H3042 H 0.80603 0.26172 0.22224 0.0
H3043 H 0.81367 0.24936 0.19124 0.0
C3044 C 0.07837 0.49665 0.33481 0.0
C3045 C 0.098 0.50594 0.33594 0.0
C3046 C 0.06745 0.49855 0.35033 0.0
C3047 C 0.06357 0.53177 0.39162 0.0
H3048 H 0.03799 0.48556 0.41385 0.0
C3049 C 0.02884 0.53902 0.4627 0.0
C3050 C 0.01287 0.52478 0.46584 0.0
C3051 C 0.03892 0.53678 0.44664 0.0
C3052 C 0.04465 0.49872 0.40768 0.0
H3053 H 0.12142 0.52451 0.35452 0.0
H3054 H 0.10223 0.52826 0.38109 0.0
H3055 H 0.05515 0.4814 0.3858 0.0
H3056 H 0.99446 0.49733 0.45419 0.0
H3057 H 0.01108 0.49395 0.42584 0.0
H3058 H 0.05267 0.54922 0.41287 0.0
C3059 C 0.09536 0.5194 0.36826 0.0
C3060 C 0.0546 0.49625 0.39161 0.0
C3061 C 0.10636 0.51715 0.35299 0.0
C3062 C 0.00685 0.50853 0.4523 0.0
C3063 C 0.01659 0.50648 0.43607 0.0
C3064 C 0.05327 0.53428 0.40743 0.0
C3065 C 0.0758 0.51016 0.36713 0.0
C3066 C 0.06431 0.51274 0.38352 0.0
C3067 C 0.03298 0.52042 0.43304 0.0
C3068 C 0.04375 0.51779 0.41586 0.0
H3069 H 0.07145 0.48788 0.32195 0.0
H3070 H 0.05237 0.49126 0.34909 0.0
H3071 H 0.07083 0.54477 0.38558 0.0
H3072 H 0.03368 0.55177 0.47272 0.0
H3073 H 0.05157 0.54777 0.44515 0.0
C3074 C 0.74291 0.89352 0.60409 0.0
C3075 C 0.73575 0.88666 0.58519 0.0
C3076 C 0.73909 0.88143 0.61898 0.0
C3077 C 0.7443 0.84625 0.64141 0.0
H3078 H 0.69589 0.8117 0.64779 0.0
C3079 C 0.7455 0.78285 0.6887 0.0
C3080 C 0.73363 0.78333 0.70361 0.0
C3081 C 0.74228 0.79329 0.67271 0.0
C3082 C 0.70947 0.82128 0.64612 0.0
H3083 H 0.71766 0.86249 0.56721 0.0
H3084 H 0.71104 0.84141 0.59321 0.0
H3085 H 0.69617 0.83667 0.62425 0.0
H3086 H 0.70788 0.79345 0.71264 0.0
H3087 H 0.70225 0.81171 0.68458 0.0
H3088 H 0.75769 0.83097 0.66303 0.0
C3089 C 0.7196 0.85608 0.59653 0.0
C3090 C 0.70964 0.83552 0.6327 0.0
C3091 C 0.7235 0.86812 0.58164 0.0
C3092 C 0.71723 0.79272 0.70133 0.0
C3093 C 0.71403 0.80325 0.68529 0.0
C3094 C 0.74417 0.83197 0.65459 0.0
C3095 C 0.72797 0.86232 0.61523 0.0
C3096 C 0.72709 0.84812 0.63024 0.0
C3097 C 0.72715 0.80444 0.67136 0.0
C3098 C 0.72682 0.81923 0.65698 0.0
H3099 H 0.7523 0.90778 0.60728 0.0
H3100 H 0.7455 0.8867 0.63333 0.0
H3101 H 0.75802 0.85553 0.63965 0.0
H3102 H 0.75812 0.77556 0.68997 0.0
H3103 H 0.75235 0.79364 0.66194 0.0
C3104 C 0.66974 0.43491 0.5016 0.0
C3105 C 0.67575 0.42361 0.51632 0.0
C3106 C 0.65402 0.44492 0.50296 0.0
C3107 C 0.61069 0.45013 0.52828 0.0
H3108 H 0.62066 0.50328 0.51156 0.0
C3109 C 0.55789 0.50809 0.53618 0.0
C3110 C 0.55586 0.52006 0.52089 0.0
C3111 C 0.57163 0.4952 0.53663 0.0
C3112 C 0.61745 0.48841 0.5161 0.0
H3113 H 0.66908 0.41324 0.5437 0.0
H3114 H 0.64137 0.43088 0.54614 0.0
H3115 H 0.64551 0.48255 0.51047 0.0
H3116 H 0.56628 0.52744 0.49385 0.0
H3117 H 0.58987 0.50512 0.49449 0.0
H3118 H 0.58244 0.45622 0.53387 0.0
C3119 C 0.64895 0.43189 0.53346 0.0
C3120 C 0.63178 0.47646 0.51548 0.0
C3121 C 0.6648 0.42171 0.53205 0.0
C3122 C 0.56762 0.51864 0.50598 0.0
C3123 C 0.58125 0.50583 0.50639 0.0
C3124 C 0.59623 0.46218 0.5289 0.0
C3125 C 0.64376 0.44414 0.51916 0.0
C3126 C 0.62855 0.457 0.5212 0.0
C3127 C 0.58372 0.4941 0.52183 0.0
C3128 C 0.59929 0.48139 0.52247 0.0
H3129 H 0.6776 0.43654 0.48912 0.0
H3130 H 0.65017 0.45368 0.49138 0.0
H3131 H 0.60766 0.43525 0.53281 0.0
H3132 H 0.54927 0.5091 0.54804 0.0
H3133 H 0.57318 0.48653 0.54882 0.0
C3134 C 0.21537 0.12276 0.48165 0.0
C3135 C 0.21965 0.14097 0.47372 0.0
C3136 C 0.19618 0.11377 0.48236 0.0
C3137 C 0.15745 0.10556 0.49677 0.0
H3138 H 0.1132 0.11038 0.46104 0.0
C3139 C 0.08046 0.078 0.51493 0.0
C3140 C 0.06674 0.06842 0.50014 0.0
C3141 C 0.09809 0.08873 0.51083 0.0
C3142 C 0.12542 0.10872 0.47108 0.0
H3143 H 0.20735 0.16464 0.46102 0.0
H3144 H 0.17343 0.14947 0.46327 0.0
H3145 H 0.14609 0.1238 0.45405 0.0
H3146 H 0.06019 0.06291 0.46949 0.0
H3147 H 0.09152 0.08067 0.46225 0.0
H3148 H 0.13725 0.08956 0.51327 0.0
C3149 C 0.18495 0.14155 0.46795 0.0
C3150 C 0.14427 0.11665 0.46717 0.0
C3151 C 0.20432 0.1503 0.46675 0.0
C3152 C 0.07063 0.0702 0.48113 0.0
C3153 C 0.08853 0.08051 0.47701 0.0
C3154 C 0.13877 0.09736 0.50047 0.0
C3155 C 0.1807 0.12336 0.47621 0.0
C3156 C 0.16052 0.11506 0.47996 0.0
C3157 C 0.10264 0.08961 0.49185 0.0
C3158 C 0.12246 0.09887 0.48776 0.0
H3159 H 0.22692 0.11572 0.48797 0.0
H3160 H 0.19356 0.09956 0.48837 0.0
H3161 H 0.16949 0.10447 0.50726 0.0
H3162 H 0.07756 0.07717 0.5297 0.0
H3163 H 0.10826 0.09611 0.52262 0.0
C3164 C 0.16388 0.94448 0.77782 0.0
C3165 C 0.16999 0.95665 0.79481 0.0
C3166 C 0.17193 0.92742 0.7741 0.0
C3167 C 0.19937 0.89192 0.79715 0.0
H3168 H 0.2194 0.88572 0.74816 0.0
C3169 C 0.25707 0.84314 0.78582 0.0
C3170 C 0.256 0.83187 0.76835 0.0
C3171 C 0.24471 0.85689 0.78827 0.0
C3172 C 0.21362 0.887 0.76179 0.0
H3173 H 0.18876 0.95991 0.82153 0.0
H3174 H 0.20254 0.93019 0.81513 0.0
H3175 H 0.20031 0.91177 0.75408 0.0
H3176 H 0.24181 0.82676 0.73948 0.0
H3177 H 0.21971 0.85055 0.7438 0.0
H3178 H 0.21273 0.86731 0.80498 0.0
C3179 C 0.19157 0.93381 0.80467 0.0
C3180 C 0.20267 0.90195 0.76518 0.0
C3181 C 0.18372 0.95093 0.80829 0.0
C3182 C 0.24258 0.83493 0.75321 0.0
C3183 C 0.23013 0.84873 0.75565 0.0
C3184 C 0.21019 0.87693 0.79373 0.0
C3185 C 0.18604 0.92204 0.7874 0.0
C3186 C 0.19577 0.90483 0.78304 0.0
C3187 C 0.23094 0.85977 0.77329 0.0
C3188 C 0.21785 0.87454 0.77617 0.0
H3189 H 0.1534 0.94848 0.76709 0.0
H3190 H 0.16726 0.91856 0.76073 0.0
H3191 H 0.19397 0.89355 0.81094 0.0
H3192 H 0.26729 0.84112 0.79777 0.0
H3193 H 0.24609 0.8654 0.80191 0.0
C3194 C 0.28994 0.90401 0.01219 0.0
C3195 C 0.27662 0.91285 0.02191 0.0
C3196 C 0.30945 0.91325 0.01321 0.0
C3197 C 0.34703 0.95157 0.04112 0.0
H3198 H 0.37008 0.95451 0.99331 0.0
C3199 C 0.41697 0.99825 0.00752 0.0
C3200 C 0.43225 0.99642 0.02133 0.0
C3201 C 0.3982 0.98773 0.00834 0.0
C3202 C 0.36382 0.95391 0.00676 0.0
H3203 H 0.27338 0.93688 0.04196 0.0
H3204 H 0.30739 0.95322 0.04369 0.0
H3205 H 0.33728 0.93604 0.99384 0.0
H3206 H 0.4399 0.98247 0.04704 0.0
H3207 H 0.40703 0.96411 0.04857 0.0
H3208 H 0.37361 0.96961 0.05398 0.0
C3209 C 0.30285 0.93937 0.03501 0.0
C3210 C 0.34508 0.94314 0.00711 0.0
C3211 C 0.28334 0.9302 0.03383 0.0
C3212 C 0.42836 0.98415 0.03621 0.0
C3213 C 0.40954 0.97372 0.03712 0.0
C3214 C 0.36587 0.96221 0.0408 0.0
C3215 C 0.31606 0.93125 0.02436 0.0
C3216 C 0.33638 0.94195 0.02426 0.0
C3217 C 0.39429 0.97523 0.02308 0.0
C3218 C 0.37442 0.96363 0.02358 0.0
H3219 H 0.28513 0.8903 0.00333 0.0
H3220 H 0.31932 0.90637 0.00517 0.0
H3221 H 0.34084 0.9508 0.0546 0.0
H3222 H 0.41956 0.00764 0.99591 0.0
H3223 H 0.38672 0.98943 0.99746 0.0
C3224 C 0.85878 0.61495 0.73806 0.0
C3225 C 0.87445 0.61586 0.75224 0.0
C3226 C 0.84918 0.6311 0.73586 0.0
C3227 C 0.84051 0.6758 0.7639 0.0
H3228 H 0.81254 0.68491 0.71601 0.0
C3229 C 0.79557 0.73896 0.75755 0.0
C3230 C 0.77639 0.73353 0.74868 0.0
C3231 C 0.80895 0.726 0.7565 0.0
C3232 C 0.82021 0.68248 0.72949 0.0
H3233 H 0.89305 0.63461 0.77469 0.0
H3234 H 0.87688 0.66337 0.7704 0.0
H3235 H 0.83474 0.66095 0.71642 0.0
H3236 H 0.75638 0.7105 0.73119 0.0
H3237 H 0.77996 0.68781 0.72907 0.0
H3238 H 0.82608 0.69754 0.77688 0.0
C3239 C 0.87161 0.64998 0.76121 0.0
C3240 C 0.83294 0.6687 0.72978 0.0
C3241 C 0.88112 0.63365 0.7635 0.0
C3242 C 0.77106 0.71507 0.73816 0.0
C3243 C 0.78457 0.70214 0.73691 0.0
C3244 C 0.828 0.68976 0.76356 0.0
C3245 C 0.85507 0.64871 0.74775 0.0
C3246 C 0.84306 0.6649 0.74704 0.0
C3247 C 0.80357 0.70733 0.74636 0.0
C3248 C 0.81751 0.69309 0.74641 0.0
H3249 H 0.85336 0.60137 0.72919 0.0
H3250 H 0.83647 0.6293 0.72548 0.0
H3251 H 0.84762 0.67311 0.77756 0.0
H3252 H 0.80015 0.75309 0.76578 0.0
H3253 H 0.82352 0.73053 0.76375 0.0
C3254 C 0.83016 0.63985 0.00345 0.0
C3255 C 0.81443 0.63046 0.99036 0.0
C3256 C 0.84461 0.62941 0.01024 0.0
C3257 C 0.86473 0.58355 1.00044 0.0
H3258 H 0.88399 0.59159 0.05423 0.0
C3259 C 0.91409 0.53359 0.03256 0.0
C3260 C 0.93207 0.54409 0.04108 0.0
C3261 C 0.89821 0.54331 0.02939 0.0
C3262 C 0.87869 0.58921 0.0392 0.0
H3263 H 0.80198 0.60285 0.97371 0.0
H3264 H 0.82683 0.5847 0.98574 0.0
H3265 H 0.86028 0.61109 0.04118 0.0
H3266 H 0.94713 0.57229 0.05483 0.0
H3267 H 0.91928 0.58925 0.04941 0.0
H3268 H 0.883 0.56163 0.99847 0.0
C3269 C 0.82822 0.60019 0.99059 0.0
C3270 C 0.86527 0.60047 0.03168 0.0
C3271 C 0.8139 0.61063 0.9837 0.0
C3272 C 0.93339 0.56388 0.04819 0.0
C3273 C 0.91746 0.57359 0.04509 0.0
C3274 C 0.87794 0.5722 0.00799 0.0
C3275 C 0.84359 0.60934 0.00415 0.0
C3276 C 0.85816 0.59777 0.01218 0.0
C3277 C 0.90007 0.56363 0.03479 0.0
C3278 C 0.88505 0.5749 0.02742 0.0
H3279 H 0.83109 0.65512 0.00884 0.0
H3280 H 0.85647 0.63701 0.02039 0.0
H3281 H 0.85989 0.58135 0.98531 0.0
H3282 H 0.9127 0.51829 0.02704 0.0
H3283 H 0.88482 0.53523 0.02171 0.0
C3284 C 0.15438 0.0747 0.80139 0.0
C3285 C 0.16251 0.05872 0.7944 0.0
C3286 C 0.16394 0.09418 0.8005 0.0
C3287 C 0.20049 0.12343 0.7739 0.0
H3288 H 0.19964 0.16481 0.81356 0.0
C3289 C 0.22433 0.2053 0.76159 0.0
C3290 C 0.23449 0.21824 0.77678 0.0
C3291 C 0.21598 0.18599 0.76463 0.0
C3292 C 0.20023 0.1534 0.80244 0.0
H3293 H 0.18615 0.05035 0.77988 0.0
H3294 H 0.20326 0.0841 0.77894 0.0
H3295 H 0.18493 0.13075 0.81769 0.0
H3296 H 0.24377 0.22099 0.80717 0.0
H3297 H 0.22964 0.18701 0.81241 0.0
H3298 H 0.21629 0.14577 0.75892 0.0
C3299 C 0.18957 0.08184 0.78516 0.0
C3300 C 0.19154 0.1339 0.8047 0.0
C3301 C 0.17996 0.06246 0.78597 0.0
C3302 C 0.23603 0.21141 0.79515 0.0
C3303 C 0.22781 0.19195 0.79817 0.0
C3304 C 0.2093 0.14282 0.77174 0.0
C3305 C 0.18165 0.098 0.79229 0.0
C3306 C 0.19142 0.11868 0.79037 0.0
C3307 C 0.21773 0.17896 0.78291 0.0
C3308 C 0.2091 0.15814 0.78584 0.0
H3309 H 0.14065 0.07211 0.80752 0.0
H3310 H 0.15719 0.10623 0.80578 0.0
H3311 H 0.20051 0.11223 0.76243 0.0
H3312 H 0.22259 0.21012 0.74729 0.0
H3313 H 0.20794 0.17665 0.7526 0.0
C3314 C 0.38427 0.00421 0.266 0.0
C3315 C 0.37789 0.01897 0.25542 0.0
C3316 C 0.37257 0.98555 0.26554 0.0
C3317 C 0.33938 0.95288 0.2717 0.0
H3318 H 0.31039 0.92725 0.22472 0.0
C3319 C 0.28255 0.88166 0.27146 0.0
C3320 C 0.28313 0.86673 0.25714 0.0
C3321 C 0.29297 0.90076 0.27059 0.0
C3322 C 0.31845 0.93416 0.23795 0.0
H3323 H 0.35556 0.02553 0.23461 0.0
H3324 H 0.3349 0.99311 0.23394 0.0
H3325 H 0.33214 0.95875 0.22407 0.0
H3326 H 0.29445 0.86007 0.23041 0.0
H3327 H 0.31278 0.89326 0.22895 0.0
H3328 H 0.32613 0.92801 0.2855 0.0
C3329 C 0.34873 0.99584 0.2428 0.0
C3330 C 0.33078 0.95233 0.23762 0.0
C3331 C 0.36039 0.01447 0.24336 0.0
C3332 C 0.29372 0.87135 0.24162 0.0
C3333 C 0.30415 0.8904 0.24076 0.0
C3334 C 0.32707 0.9347 0.27204 0.0
C3335 C 0.35449 0.98126 0.25417 0.0
C3336 C 0.34146 0.96187 0.25448 0.0
C3337 C 0.30417 0.90526 0.25539 0.0
C3338 C 0.31652 0.92507 0.25515 0.0
H3339 H 0.39802 0.0073 0.275 0.0
H3340 H 0.37765 0.9745 0.27411 0.0
H3341 H 0.34717 0.95994 0.285 0.0
H3342 H 0.27446 0.87847 0.28357 0.0
H3343 H 0.29241 0.91195 0.28193 0.0
C3344 C 0.46968 0.31541 0.60648 0.0
C3345 C 0.48301 0.31196 0.62162 0.0
C3346 C 0.47163 0.33368 0.59859 0.0
C3347 C 0.50808 0.37715 0.59219 0.0
H3348 H 0.4626 0.39996 0.57608 0.0
C3349 C 0.51349 0.45374 0.56099 0.0
C3350 C 0.49948 0.45591 0.54599 0.0
C3351 C 0.51184 0.43637 0.57052 0.0
C3352 C 0.47543 0.39367 0.58027 0.0
H3353 H 0.50866 0.32533 0.64058 0.0
H3354 H 0.51203 0.35744 0.62676 0.0
H3355 H 0.45881 0.3701 0.59329 0.0
H3356 H 0.47305 0.44152 0.52884 0.0
H3357 H 0.47026 0.41098 0.54528 0.0
H3358 H 0.52468 0.40064 0.579 0.0
C3359 C 0.50013 0.34582 0.62096 0.0
C3360 C 0.47327 0.37659 0.59022 0.0
C3361 C 0.49811 0.32749 0.62898 0.0
C3362 C 0.48403 0.44022 0.54038 0.0
C3363 C 0.48236 0.42282 0.54992 0.0
C3364 C 0.51025 0.39425 0.58221 0.0
C3365 C 0.487 0.34904 0.60554 0.0
C3366 C 0.48954 0.36801 0.59616 0.0
C3367 C 0.49614 0.42077 0.56526 0.0
C3368 C 0.49392 0.40264 0.57599 0.0
H3369 H 0.45783 0.30386 0.60043 0.0
H3370 H 0.46139 0.33554 0.5866 0.0
H3371 H 0.52088 0.37077 0.59632 0.0
H3372 H 0.52555 0.46563 0.56564 0.0
H3373 H 0.5226 0.43541 0.58236 0.0
C3374 C 0.46053 0.77277 0.33463 0.0
C3375 C 0.46563 0.78533 0.35142 0.0
C3376 C 0.44161 0.77008 0.32528 0.0
C3377 C 0.39798 0.7607 0.31204 0.0
H3378 H 0.37446 0.80795 0.31012 0.0
C3379 C 0.3173 0.76073 0.28266 0.0
C3380 C 0.31336 0.77701 0.27271 0.0
C3381 C 0.33616 0.76026 0.29111 0.0
C3382 C 0.38087 0.79464 0.31035 0.0
H3383 H 0.45473 0.80327 0.37277 0.0
H3384 H 0.42162 0.79872 0.35648 0.0
H3385 H 0.40622 0.80956 0.32797 0.0
H3386 H 0.32646 0.80498 0.26288 0.0
H3387 H 0.35925 0.80398 0.27733 0.0
H3388 H 0.37255 0.74586 0.29422 0.0
C3389 C 0.43233 0.79143 0.35013 0.0
C3390 C 0.39901 0.7955 0.32082 0.0
C3391 C 0.45121 0.79399 0.35951 0.0
C3392 C 0.3289 0.79227 0.27055 0.0
C3393 C 0.34771 0.79178 0.27897 0.0
C3394 C 0.37973 0.75981 0.30162 0.0
C3395 C 0.4274 0.7798 0.33266 0.0
C3396 C 0.40783 0.77856 0.32181 0.0
C3397 C 0.35148 0.77605 0.2898 0.0
C3398 C 0.37099 0.7768 0.30059 0.0
H3399 H 0.4713 0.76536 0.32852 0.0
H3400 H 0.43838 0.76102 0.31189 0.0
H3401 H 0.40428 0.74733 0.31261 0.0
H3402 H 0.30567 0.74878 0.28473 0.0
H3403 H 0.33854 0.74796 0.29943 0.0
C3404 C 0.99909 0.71365 0.11736 0.0
C3405 C 0.98796 0.71288 0.13289 0.0
C3406 C 0.00217 0.69628 0.10775 0.0
C3407 C 0.98173 0.64378 0.09711 0.0
H3408 H 0.03327 0.64044 0.08257 0.0
C3409 C 0.02667 0.58335 0.0615 0.0
C3410 C 0.01359 0.57549 0.0455 0.0
C3411 C 0.02316 0.5994 0.07301 0.0
C3412 C 0.01882 0.64105 0.08663 0.0
H3413 H 0.97219 0.69356 0.15135 0.0
H3414 H 0.97727 0.66279 0.13421 0.0
H3415 H 0.02821 0.6695 0.10177 0.0
H3416 H 0.98681 0.57847 0.0287 0.0
H3417 H 0.9805 0.60646 0.04896 0.0
H3418 H 0.97235 0.61529 0.0818 0.0
C3419 C 0.98339 0.67692 0.12935 0.0
C3420 C 0.01589 0.65777 0.0975 0.0
C3421 C 0.98054 0.69443 0.13918 0.0
C3422 C 0.99694 0.58402 0.04117 0.0
C3423 C 0.99333 0.60002 0.05277 0.0
C3424 C 0.98463 0.62706 0.08605 0.0
C3425 C 0.99421 0.67771 0.1135 0.0
C3426 C 0.99732 0.65938 0.1028 0.0
C3427 C 0.00648 0.60797 0.06877 0.0
C3428 C 0.00323 0.62553 0.08068 0.0
H3429 H 0.00532 0.72777 0.11253 0.0
H3430 H 0.01044 0.6974 0.09553 0.0
H3431 H 0.96723 0.6447 0.10084 0.0
H3432 H 0.0396 0.57702 0.0652 0.0
H3433 H 0.03346 0.60504 0.08533 0.0
C3434 C 0.08524 0.29446 0.85525 0.0
C3435 C 0.07228 0.3056 0.8463 0.0
C3436 C 0.10309 0.29308 0.84811 0.0
C3437 C 0.12436 0.29513 0.80271 0.0
H3438 H 0.17438 0.29843 0.83268 0.0
C3439 C 0.20965 0.29932 0.78766 0.0
C3440 C 0.20764 0.28317 0.77398 0.0
C3441 C 0.19402 0.30232 0.79794 0.0
C3442 C 0.1605 0.29754 0.82415 0.0
H3443 H 0.06867 0.32495 0.82344 0.0
H3444 H 0.09947 0.32245 0.81117 0.0
H3445 H 0.14569 0.30382 0.84858 0.0
H3446 H 0.18773 0.25761 0.76019 0.0
H3447 H 0.16043 0.26304 0.77774 0.0
H3448 H 0.13892 0.28875 0.77835 0.0
C3449 C 0.09576 0.31457 0.82352 0.0
C3450 C 0.14409 0.30048 0.83325 0.0
C3451 C 0.07808 0.31605 0.83066 0.0
C3452 C 0.18971 0.27021 0.77063 0.0
C3453 C 0.17407 0.27332 0.78068 0.0
C3454 C 0.14062 0.29196 0.79369 0.0
C3455 C 0.10826 0.30269 0.83182 0.0
C3456 C 0.12585 0.29941 0.82258 0.0
C3457 C 0.17599 0.28945 0.79439 0.0
C3458 C 0.15889 0.29312 0.80427 0.0
H3459 H 0.08131 0.28622 0.86731 0.0
H3460 H 0.11243 0.28378 0.8548 0.0
H3461 H 0.11049 0.29398 0.79409 0.0
H3462 H 0.22317 0.30982 0.79019 0.0
H3463 H 0.19587 0.31502 0.80825 0.0
C3464 C 0.53705 0.72302 0.95527 0.0
C3465 C 0.52484 0.72385 0.9385 0.0
C3466 C 0.53546 0.70578 0.9649 0.0
C3467 C 0.51394 0.65224 0.96019 0.0
H3468 H 0.51961 0.65944 0.01552 0.0
C3469 C 0.49579 0.58823 0.00876 0.0
C3470 C 0.51133 0.58653 0.02229 0.0
C3471 C 0.49639 0.6051 0.99858 0.0
C3472 C 0.51801 0.65726 1.00007 0.0
H3473 H 0.50175 0.70726 0.91828 0.0
H3474 H 0.49849 0.67731 0.93539 0.0
H3475 H 0.52332 0.68833 0.99695 0.0
H3476 H 0.53909 0.60144 0.03678 0.0
H3477 H 0.53985 0.63119 0.01945 0.0
H3478 H 0.50821 0.62105 0.96352 0.0
C3479 C 0.50961 0.68978 0.94094 0.0
C3480 C 0.5203 0.67376 0.98942 0.0
C3481 C 0.51142 0.70696 0.93115 0.0
C3482 C 0.52692 0.6024 0.02638 0.0
C3483 C 0.52738 0.61937 0.01646 0.0
C3484 C 0.51138 0.63572 0.97088 0.0
C3485 C 0.52137 0.68912 0.95812 0.0
C3486 C 0.51854 0.67146 0.96934 0.0
C3487 C 0.51231 0.62069 1.00222 0.0
C3488 C 0.51362 0.63813 0.9909 0.0
H3489 H 0.54766 0.73579 0.96114 0.0
H3490 H 0.54512 0.70562 0.97779 0.0
H3491 H 0.51269 0.6499 0.94478 0.0
H3492 H 0.48329 0.57648 0.00601 0.0
H3493 H 0.48445 0.60598 0.98788 0.0
C3494 C 0.06287 0.79092 0.62772 0.0
C3495 C 0.04462 0.78502 0.63404 0.0
C3496 C 0.07966 0.78745 0.63839 0.0
C3497 C 0.11401 0.77485 0.6601 0.0
H3498 H 0.11244 0.77708 0.71498 0.0
C3499 C 0.16814 0.76835 0.73184 0.0
C3500 C 0.1845 0.7818 0.72815 0.0
C3501 C 0.15053 0.76684 0.72028 0.0
C3502 C 0.11305 0.77623 0.69967 0.0
H3503 H 0.02894 0.76884 0.65477 0.0
H3504 H 0.05795 0.76145 0.67268 0.0
H3505 H 0.08268 0.77617 0.69422 0.0
H3506 H 0.19537 0.8046 0.71003 0.0
H3507 H 0.16459 0.80198 0.68985 0.0
H3508 H 0.1447 0.77534 0.66592 0.0
C3509 C 0.05974 0.76998 0.66039 0.0
C3510 C 0.09594 0.77568 0.68766 0.0
C3511 C 0.04307 0.77406 0.65008 0.0
C3512 C 0.18293 0.79409 0.71313 0.0
C3513 C 0.16541 0.79247 0.70149 0.0
C3514 C 0.13116 0.77554 0.67215 0.0
C3515 C 0.07835 0.77724 0.65512 0.0
C3516 C 0.09623 0.77549 0.6677 0.0
C3517 C 0.14915 0.77864 0.7048 0.0
C3518 C 0.13085 0.7766 0.69204 0.0
H3519 H 0.0642 0.79914 0.61515 0.0
H3520 H 0.09362 0.79357 0.63392 0.0
H3521 H 0.11482 0.77397 0.64485 0.0
H3522 H 0.16907 0.75868 0.74334 0.0
H3523 H 0.13818 0.75606 0.72309 0.0
C3524 C 0.03935 0.33744 0.45714 0.0
C3525 C 0.04251 0.33843 0.43779 0.0
C3526 C 0.04119 0.35473 0.46913 0.0
C3527 C 0.06123 0.40765 0.47585 0.0
H3528 H 0.01282 0.41289 0.49663 0.0
C3529 C 0.04244 0.48337 0.49854 0.0
C3530 C 0.02935 0.48481 0.51226 0.0
C3531 C 0.04705 0.46506 0.4928 0.0
C3532 C 0.02667 0.41162 0.49145 0.0
H3533 H 0.05132 0.35829 0.41624 0.0
H3534 H 0.05492 0.3885 0.4374 0.0
H3535 H 0.01632 0.38154 0.48065 0.0
H3536 H 0.01176 0.46846 0.5316 0.0
H3537 H 0.02052 0.43655 0.5223 0.0
H3538 H 0.07172 0.43765 0.48671 0.0
C3539 C 0.05088 0.37431 0.44315 0.0
C3540 C 0.0286 0.39363 0.48217 0.0
C3541 C 0.04872 0.35702 0.43104 0.0
C3542 C 0.02177 0.46774 0.52088 0.0
C3543 C 0.02669 0.44944 0.51541 0.0
C3544 C 0.05947 0.42557 0.48548 0.0
C3545 C 0.04657 0.37331 0.46213 0.0
C3546 C 0.04571 0.39163 0.47392 0.0
C3547 C 0.03894 0.44775 0.50087 0.0
C3548 C 0.04195 0.42797 0.49297 0.0
H3549 H 0.0345 0.32338 0.46281 0.0
H3550 H 0.03787 0.35363 0.48375 0.0
H3551 H 0.07463 0.40637 0.46971 0.0
H3552 H 0.04835 0.49624 0.49146 0.0
H3553 H 0.05622 0.46444 0.48134 0.0
C3554 C 0.44152 0.29956 0.15273 0.0
C3555 C 0.43885 0.30124 0.13294 0.0
C3556 C 0.42825 0.30522 0.16454 0.0
C3557 C 0.37776 0.31416 0.16427 0.0
H3558 H 0.39674 0.33598 0.21596 0.0
C3559 C 0.32597 0.33101 0.21951 0.0
C3560 C 0.3282 0.32027 0.23565 0.0
C3561 C 0.34032 0.33317 0.20697 0.0
C3562 C 0.39128 0.33003 0.20152 0.0
H3563 H 0.42005 0.31009 0.11001 0.0
H3564 H 0.39688 0.32042 0.13083 0.0
H3565 H 0.41994 0.33132 0.19308 0.0
H3566 H 0.3475 0.30443 0.25207 0.0
H3567 H 0.3729 0.30868 0.2304 0.0
H3568 H 0.34906 0.31284 0.17289 0.0
C3569 C 0.40919 0.31446 0.13712 0.0
C3570 C 0.40451 0.32722 0.18845 0.0
C3571 C 0.42245 0.30857 0.12519 0.0
C3572 C 0.34551 0.31282 0.23974 0.0
C3573 C 0.36001 0.31528 0.22738 0.0
C3574 C 0.36451 0.31726 0.17729 0.0
C3575 C 0.41203 0.31293 0.15696 0.0
C3576 C 0.39793 0.31862 0.16986 0.0
C3577 C 0.35726 0.32495 0.2106 0.0
C3578 C 0.37119 0.32468 0.19617 0.0
H3579 H 0.45384 0.2937 0.15916 0.0
H3580 H 0.43061 0.30323 0.17963 0.0
H3581 H 0.37216 0.30736 0.15015 0.0
H3582 H 0.31268 0.33682 0.21602 0.0
H3583 H 0.33795 0.34075 0.19415 0.0
C3584 C 0.62621 0.50526 0.36535 0.0
C3585 C 0.61967 0.49985 0.34598 0.0
C3586 C 0.61321 0.50315 0.37926 0.0
C3587 C 0.56068 0.49961 0.38457 0.0
H3588 H 0.577 0.48815 0.43615 0.0
C3589 C 0.52197 0.52119 0.44901 0.0
C3590 C 0.52137 0.50943 0.46464 0.0
C3591 C 0.53183 0.5166 0.43349 0.0
C3592 C 0.57204 0.49106 0.42175 0.0
H3593 H 0.59434 0.48719 0.32623 0.0
H3594 H 0.57178 0.48314 0.35053 0.0
H3595 H 0.59866 0.48582 0.41137 0.0
H3596 H 0.53002 0.48306 0.47577 0.0
H3597 H 0.54696 0.47483 0.44845 0.0
H3598 H 0.53402 0.50472 0.39491 0.0
C3599 C 0.58691 0.48944 0.35492 0.0
C3600 C 0.5846 0.49 0.40758 0.0
C3601 C 0.59989 0.49167 0.34098 0.0
C3602 C 0.53009 0.49239 0.46393 0.0
C3603 C 0.54001 0.4878 0.44836 0.0
C3604 C 0.54809 0.50058 0.39871 0.0
C3605 C 0.59333 0.49544 0.37421 0.0
C3606 C 0.57926 0.49466 0.38888 0.0
C3607 C 0.54137 0.50011 0.43314 0.0
C3608 C 0.55376 0.49673 0.41759 0.0
H3609 H 0.6413 0.51169 0.36977 0.0
H3610 H 0.61867 0.5082 0.39391 0.0
H3611 H 0.55608 0.50346 0.3704 0.0
H3612 H 0.51543 0.53444 0.44904 0.0
H3613 H 0.53274 0.52657 0.42217 0.0
C3614 C 0.21835 0.84674 0.07201 0.0
C3615 C 0.21889 0.86728 0.07148 0.0
C3616 C 0.22124 0.83828 0.08946 0.0
C3617 C 0.21771 0.84483 0.14092 0.0
H3618 H 0.25707 0.81124 0.14638 0.0
C3619 C 0.2251 0.79281 0.20236 0.0
C3620 C 0.24383 0.79343 0.21186 0.0
C3621 C 0.22238 0.80315 0.18608 0.0
C3622 C 0.2461 0.82066 0.14511 0.0
H3623 H 0.22228 0.8949 0.08904 0.0
H3624 H 0.22651 0.87999 0.11952 0.0
H3625 H 0.25082 0.82598 0.11609 0.0
H3626 H 0.27441 0.80554 0.2118 0.0
H3627 H 0.26974 0.82317 0.18278 0.0
H3628 H 0.21258 0.83901 0.16976 0.0
C3629 C 0.22412 0.87049 0.10638 0.0
C3630 C 0.24241 0.82897 0.12771 0.0
C3631 C 0.22168 0.87902 0.08891 0.0
C3632 C 0.25981 0.80483 0.2048 0.0
C3633 C 0.25714 0.81482 0.18816 0.0
C3634 C 0.22109 0.83615 0.15817 0.0
C3635 C 0.22432 0.85007 0.10686 0.0
C3636 C 0.22817 0.84117 0.12539 0.0
C3637 C 0.23837 0.81404 0.17857 0.0
C3638 C 0.23535 0.82397 0.1605 0.0
H3639 H 0.21641 0.83727 0.05888 0.0
H3640 H 0.22116 0.82248 0.08935 0.0
H3641 H 0.20662 0.85412 0.1396 0.0
H3642 H 0.21248 0.78425 0.20752 0.0
H3643 H 0.20777 0.80217 0.17903 0.0
C3644 C 0.93822 0.56967 0.81763 0.0
C3645 C 0.91932 0.57436 0.81537 0.0
C3646 C 0.9474 0.56787 0.83588 0.0
C3647 C 0.93443 0.55734 0.88448 0.0
H3648 H 0.98996 0.57188 0.8996 0.0
C3649 C 0.96669 0.55228 0.9619 0.0
C3650 C 0.98423 0.54484 0.96486 0.0
C3651 C 0.95983 0.55697 0.94375 0.0
C3652 C 0.97444 0.56756 0.89554 0.0
H3653 H 0.89591 0.58215 0.83077 0.0
H3654 H 0.912 0.57952 0.86234 0.0
H3655 H 0.97643 0.57887 0.86796 0.0
H3656 H 0.00842 0.53682 0.95085 0.0
H3657 H 0.99636 0.5449 0.91913 0.0
H3658 H 0.93235 0.54593 0.91187 0.0
C3659 C 0.91955 0.57664 0.85005 0.0
C3660 C 0.96667 0.57159 0.87738 0.0
C3661 C 0.91038 0.57834 0.83188 0.0
C3662 C 0.99489 0.54256 0.94917 0.0
C3663 C 0.98801 0.54728 0.93095 0.0
C3664 C 0.94216 0.55335 0.90257 0.0
C3665 C 0.93793 0.57076 0.85232 0.0
C3666 C 0.94651 0.56664 0.87164 0.0
C3667 C 0.97025 0.55434 0.92795 0.0
C3668 C 0.96225 0.55848 0.90844 0.0
H3669 H 0.94552 0.56635 0.80527 0.0
H3670 H 0.96152 0.56327 0.83702 0.0
H3671 H 0.91893 0.5528 0.88046 0.0
H3672 H 0.95809 0.55438 0.9736 0.0
H3673 H 0.9463 0.56271 0.94212 0.0
C3674 C 0.28323 0.20119 0.54844 0.0
C3675 C 0.27278 0.18229 0.54215 0.0
C3676 C 0.28144 0.20971 0.56648 0.0
C3677 C 0.26587 0.19777 0.61341 0.0
H3678 H 0.26215 0.25358 0.61864 0.0
C3679 C 0.24697 0.25801 0.67356 0.0
C3680 C 0.25804 0.25258 0.68937 0.0
C3681 C 0.24855 0.24987 0.65522 0.0
C3682 C 0.26299 0.23795 0.61735 0.0
H3683 H 0.25257 0.15727 0.54987 0.0
H3684 H 0.24928 0.17223 0.58133 0.0
H3685 H 0.26524 0.23794 0.58734 0.0
H3686 H 0.28 0.23527 0.6986 0.0
H3687 H 0.28305 0.22146 0.66676 0.0
H3688 H 0.26319 0.19762 0.64328 0.0
C3689 C 0.25903 0.18039 0.57242 0.0
C3690 C 0.26501 0.22905 0.5995 0.0
C3691 C 0.26089 0.17183 0.5544 0.0
C3692 C 0.2711 0.23948 0.68663 0.0
C3693 C 0.27276 0.23148 0.66841 0.0
C3694 C 0.2638 0.20663 0.63121 0.0
C3695 C 0.2691 0.19952 0.57855 0.0
C3696 C 0.26662 0.2089 0.59739 0.0
C3697 C 0.26129 0.2363 0.65255 0.0
C3698 C 0.26254 0.22685 0.63341 0.0
H3699 H 0.29258 0.20957 0.53932 0.0
H3700 H 0.28968 0.22431 0.57096 0.0
H3701 H 0.26721 0.18226 0.61228 0.0
H3702 H 0.23682 0.26813 0.67541 0.0
H3703 H 0.23948 0.2538 0.64324 0.0
C3704 C 0.62727 0.50519 0.22218 0.0
C3705 C 0.61738 0.49562 0.23635 0.0
C3706 C 0.61832 0.50429 0.20351 0.0
C3707 C 0.59905 0.49476 0.16292 0.0
H3708 H 0.54467 0.50071 0.15843 0.0
C3709 C 0.55623 0.5009 0.08988 0.0
C3710 C 0.5442 0.51536 0.08951 0.0
C3711 C 0.56438 0.49561 0.1073 0.0
C3712 C 0.55988 0.49911 0.15943 0.0
H3713 H 0.5908 0.47665 0.24184 0.0
H3714 H 0.57535 0.47467 0.20917 0.0
H3715 H 0.56105 0.49663 0.18951 0.0
H3716 H 0.53095 0.53544 0.10685 0.0
H3717 H 0.54541 0.52658 0.1372 0.0
H3718 H 0.59809 0.49828 0.13296 0.0
C3719 C 0.58983 0.48331 0.21256 0.0
C3720 C 0.56921 0.49648 0.17723 0.0
C3721 C 0.59873 0.48434 0.23127 0.0
C3722 C 0.54015 0.5242 0.10677 0.0
C3723 C 0.54834 0.51901 0.12416 0.0
C3724 C 0.58972 0.4975 0.14511 0.0
C3725 C 0.59932 0.49367 0.19856 0.0
C3726 C 0.58901 0.49458 0.17927 0.0
C3727 C 0.56066 0.50474 0.12465 0.0
C3728 C 0.57011 0.50005 0.14321 0.0
H3729 H 0.64164 0.51405 0.22566 0.0
H3730 H 0.626 0.51264 0.19318 0.0
H3731 H 0.61422 0.49308 0.16393 0.0
H3732 H 0.55946 0.49378 0.07672 0.0
H3733 H 0.57358 0.48439 0.10717 0.0
C3734 C 0.21873 0.85436 0.95996 0.0
C3735 C 0.21991 0.87508 0.96077 0.0
C3736 C 0.21956 0.84345 0.94257 0.0
C3737 C 0.23446 0.82614 0.90667 0.0
H3738 H 0.21339 0.84324 0.8589 0.0
C3739 C 0.25737 0.7998 0.83365 0.0
C3740 C 0.24381 0.79752 0.81726 0.0
C3741 C 0.25292 0.80766 0.85121 0.0
C3742 C 0.21919 0.83801 0.87205 0.0
H3743 H 0.22236 0.90031 0.94347 0.0
H3744 H 0.22401 0.8816 0.9137 0.0
H3745 H 0.20726 0.85904 0.88895 0.0
H3746 H 0.21469 0.80161 0.80679 0.0
H3747 H 0.20677 0.81484 0.83737 0.0
H3748 H 0.24607 0.80483 0.88972 0.0
C3749 C 0.22217 0.87357 0.92632 0.0
C3750 C 0.21589 0.84732 0.8894 0.0
C3751 C 0.22134 0.8844 0.94359 0.0
C3752 C 0.22553 0.80309 0.81904 0.0
C3753 C 0.22105 0.81088 0.83663 0.0
C3754 C 0.2377 0.81675 0.88929 0.0
C3755 C 0.22155 0.85295 0.9255 0.0
C3756 C 0.22371 0.84177 0.90702 0.0
C3757 C 0.23473 0.81346 0.853 0.0
C3758 C 0.23034 0.8227 0.87166 0.0
H3759 H 0.21771 0.84661 0.97284 0.0
H3760 H 0.21877 0.82757 0.94255 0.0
H3761 H 0.24089 0.82147 0.91982 0.0
H3762 H 0.27166 0.79586 0.83291 0.0
H3763 H 0.26403 0.80967 0.86327 0.0
C3764 C 0.91759 0.56449 0.68795 0.0
C3765 C 0.92915 0.56972 0.70552 0.0
C3766 C 0.9262 0.56256 0.67095 0.0
C3767 C 0.97343 0.57502 0.64997 0.0
H3768 H 0.94867 0.53439 0.61063 0.0
C3769 C 0.00205 0.5705 0.57633 0.0
C3770 C 0.00184 0.55181 0.56697 0.0
C3771 C 0.99253 0.5724 0.59269 0.0
C3772 C 0.95592 0.54569 0.62151 0.0
H3773 H 0.95887 0.57713 0.7189 0.0
H3774 H 0.97389 0.57338 0.68944 0.0
H3775 H 0.9339 0.53827 0.64023 0.0
H3776 H 0.99122 0.52041 0.56723 0.0
H3777 H 0.97489 0.52357 0.59625 0.0
H3778 H 0.99584 0.58193 0.63168 0.0
C3779 C 0.95815 0.57116 0.68863 0.0
C3780 C 0.94727 0.54814 0.63845 0.0
C3781 C 0.94953 0.57327 0.70561 0.0
C3782 C 0.99155 0.53501 0.57413 0.0
C3783 C 0.98215 0.53688 0.59074 0.0
C3784 C 0.98215 0.57246 0.63315 0.0
C3785 C 0.94662 0.56562 0.67103 0.0
C3786 C 0.95585 0.56291 0.65292 0.0
C3787 C 0.98271 0.55563 0.6004 0.0
C3788 C 0.97348 0.55786 0.61857 0.0
H3789 H 0.90184 0.56168 0.68734 0.0
H3790 H 0.91677 0.55869 0.65772 0.0
H3791 H 0.98045 0.58671 0.66057 0.0
H3792 H 0.00962 0.58377 0.57098 0.0
H3793 H 0.99287 0.58714 0.59927 0.0
C3794 C 0.28637 0.1796 0.41732 0.0
C3795 C 0.2888 0.18428 0.43715 0.0
C3796 C 0.29073 0.19441 0.4049 0.0
C3797 C 0.30714 0.22805 0.38166 0.0
H3798 H 0.28316 0.27391 0.39306 0.0
C3799 C 0.30065 0.28484 0.32674 0.0
C3800 C 0.28107 0.28666 0.32201 0.0
C3801 C 0.30628 0.27696 0.34375 0.0
C3802 C 0.29014 0.26132 0.38981 0.0
H3803 H 0.29918 0.2079 0.45951 0.0
H3804 H 0.30677 0.23358 0.43783 0.0
H3805 H 0.28493 0.2494 0.41648 0.0
H3806 H 0.25254 0.28375 0.33227 0.0
H3807 H 0.2624 0.27013 0.36193 0.0
H3808 H 0.31138 0.23943 0.35456 0.0
C3809 C 0.30117 0.21856 0.4319 0.0
C3810 C 0.29127 0.24735 0.40324 0.0
C3811 C 0.29682 0.20381 0.44429 0.0
C3812 C 0.2677 0.28236 0.33544 0.0
C3813 C 0.27338 0.27464 0.3525 0.0
C3814 C 0.30611 0.24208 0.36827 0.0
C3815 C 0.29764 0.21414 0.41209 0.0
C3816 C 0.29925 0.23028 0.39905 0.0
C3817 C 0.29249 0.27101 0.35638 0.0
C3818 C 0.29705 0.25853 0.37199 0.0
H3819 H 0.28025 0.16471 0.41135 0.0
H3820 H 0.28772 0.1906 0.38966 0.0
H3821 H 0.31353 0.21512 0.37815 0.0
H3822 H 0.31134 0.2881 0.31673 0.0
H3823 H 0.32117 0.27454 0.34655 0.0
C3824 C 0.35007 0.63704 0.48339 0.0
C3825 C 0.34249 0.64527 0.49921 0.0
C3826 C 0.36606 0.62719 0.48584 0.0
C3827 C 0.38806 0.59677 0.51902 0.0
H3828 H 0.43241 0.60463 0.48965 0.0
C3829 C 0.44829 0.54836 0.52871 0.0
C3830 C 0.45849 0.54418 0.51318 0.0
C3831 C 0.43563 0.56221 0.52778 0.0
C3832 C 0.42001 0.6019 0.49778 0.0
H3833 H 0.34602 0.64979 0.53005 0.0
H3834 H 0.37376 0.63209 0.5344 0.0
H3835 H 0.40816 0.62635 0.48661 0.0
H3836 H 0.46317 0.551 0.48431 0.0
H3837 H 0.44038 0.57436 0.48213 0.0
H3838 H 0.39897 0.57174 0.52942 0.0
C3839 C 0.36744 0.63359 0.52006 0.0
C3840 C 0.40617 0.61457 0.49614 0.0
C3841 C 0.3517 0.6439 0.51757 0.0
C3842 C 0.45567 0.55409 0.49659 0.0
C3843 C 0.44262 0.56763 0.49545 0.0
C3844 C 0.40164 0.58384 0.52036 0.0
C3845 C 0.37462 0.62484 0.50422 0.0
C3846 C 0.39002 0.61217 0.50674 0.0
C3847 C 0.4323 0.57194 0.51103 0.0
C3848 C 0.4179 0.58611 0.50976 0.0
H3849 H 0.3432 0.63768 0.46908 0.0
H3850 H 0.37113 0.62055 0.47336 0.0
H3851 H 0.37562 0.59429 0.52714 0.0
H3852 H 0.45033 0.54113 0.54179 0.0
H3853 H 0.4286 0.56532 0.54035 0.0
C3854 C 0.82372 0.91784 0.54015 0.0
C3855 C 0.81161 0.92823 0.54995 0.0
C3856 C 0.84381 0.92458 0.54195 0.0
C3857 C 0.8786 0.97145 0.55616 0.0
H3858 H 0.91543 0.93964 0.53894 0.0
C3859 C 0.9446 0.00474 0.51991 0.0
C3860 C 0.96274 0.99997 0.52637 0.0
C3861 C 0.92752 0.99467 0.52592 0.0
C3862 C 0.90531 0.94867 0.54388 0.0
H3863 H 0.81074 0.95185 0.57137 0.0
H3864 H 0.8459 0.96298 0.57562 0.0
H3865 H 0.88368 0.92339 0.54655 0.0
H3866 H 0.97718 0.98037 0.54355 0.0
H3867 H 0.94713 0.96256 0.55381 0.0
H3868 H 0.90021 0.9967 0.55326 0.0
C3869 C 0.84005 0.95051 0.56544 0.0
C3870 C 0.887 0.9394 0.54808 0.0
C3871 C 0.81989 0.94414 0.56312 0.0
C3872 C 0.96341 0.9845 0.53847 0.0
C3873 C 0.94625 0.97424 0.54429 0.0
C3874 C 0.89674 0.98067 0.55179 0.0
C3875 C 0.85226 0.94141 0.55422 0.0
C3876 C 0.87304 0.95072 0.55349 0.0
C3877 C 0.9282 0.97948 0.53831 0.0
C3878 C 0.91 0.96941 0.54502 0.0
H3879 H 0.81751 0.90522 0.53021 0.0
H3880 H 0.85242 0.91717 0.53284 0.0
H3881 H 0.8687 0.98083 0.56074 0.0
H3882 H 0.94361 0.01656 0.51058 0.0
H3883 H 0.91372 0.99877 0.52087 0.0
C3884 C 0.84193 0.10932 0.23525 0.0
C3885 C 0.84472 0.09822 0.251 0.0
C3886 C 0.83508 0.12732 0.23749 0.0
C3887 C 0.80869 0.154 0.27155 0.0
H3888 H 0.8192 0.19668 0.2385 0.0
C3889 C 0.77803 0.22705 0.28075 0.0
C3890 C 0.76781 0.23177 0.26405 0.0
C3891 C 0.78971 0.21234 0.27992 0.0
C3892 C 0.8162 0.18486 0.24785 0.0
H3893 H 0.84392 0.09764 0.28153 0.0
H3894 H 0.83324 0.12942 0.28572 0.0
H3895 H 0.83613 0.16837 0.23577 0.0
H3896 H 0.76219 0.22544 0.23337 0.0
H3897 H 0.78278 0.20003 0.2319 0.0
H3898 H 0.78894 0.17068 0.28374 0.0
C3899 C 0.83532 0.12402 0.27146 0.0
C3900 C 0.82579 0.16856 0.24622 0.0
C3901 C 0.84168 0.10589 0.26913 0.0
C3902 C 0.76981 0.22195 0.24649 0.0
C3903 C 0.78173 0.20755 0.24561 0.0
C3904 C 0.7994 0.17043 0.27339 0.0
C3905 C 0.83125 0.13471 0.2556 0.0
C3906 C 0.822 0.15275 0.25791 0.0
C3907 C 0.7916 0.2024 0.26233 0.0
C3908 C 0.80286 0.1859 0.26141 0.0
H3909 H 0.84403 0.10357 0.2211 0.0
H3910 H 0.83198 0.13495 0.22487 0.0
H3911 H 0.80491 0.14201 0.28052 0.0
H3912 H 0.77669 0.23445 0.29444 0.0
H3913 H 0.79722 0.20867 0.29302 0.0
C3914 C 0.72758 0.16132 0.99517 0.0
C3915 C 0.74306 0.15356 0.0042 0.0
C3916 C 0.70836 0.1515 0.99508 0.0
C3917 C 0.67945 0.10279 0.00392 0.0
H3918 H 0.63791 0.13335 0.00799 0.0
C3919 C 0.60255 0.06841 0.02122 0.0
C3920 C 0.58654 0.07437 0.01108 0.0
C3921 C 0.62154 0.07781 0.01944 0.0
C3922 C 0.64931 0.1246 0.00661 0.0
H3923 H 0.75076 0.13059 0.0216 0.0
H3924 H 0.71729 0.11362 0.02191 0.0
H3925 H 0.67118 0.1504 0.00692 0.0
H3926 H 0.57773 0.09469 0.991 0.0
H3927 H 0.61095 0.11121 0.98791 0.0
H3928 H 0.65757 0.077 0.00401 0.0
C3929 C 0.71986 0.12671 0.01408 0.0
C3930 C 0.66841 0.13437 0.00595 0.0
C3931 C 0.73904 0.13641 0.01395 0.0
C3932 C 0.58984 0.08983 0.99902 0.0
C3933 C 0.60883 0.09934 0.99733 0.0
C3934 C 0.66038 0.09303 0.00468 0.0
C3935 C 0.70424 0.13402 0.00452 0.0
C3936 C 0.68378 0.1236 0.00468 0.0
C3937 C 0.62491 0.09347 0.00756 0.0
C3938 C 0.64509 0.10382 0.00613 0.0
H3939 H 0.73039 0.17476 0.98787 0.0
H3940 H 0.69678 0.1575 0.98743 0.0
H3941 H 0.69079 0.09395 0.00266 0.0
H3942 H 0.6004 0.05653 0.03064 0.0
H3943 H 0.63358 0.07308 0.02768 0.0
C3944 C 0.13538 0.43522 0.27673 0.0
C3945 C 0.14253 0.45043 0.29117 0.0
C3946 C 0.14391 0.41807 0.27541 0.0
C3947 C 0.17855 0.39065 0.30257 0.0
H3948 H 0.18834 0.37155 0.25219 0.0
C3949 C 0.21846 0.32669 0.26513 0.0
C3950 C 0.23679 0.33084 0.27599 0.0
C3951 C 0.20464 0.33908 0.26735 0.0
C3952 C 0.18552 0.37654 0.26635 0.0
H3953 H 0.16374 0.45892 0.31607 0.0
H3954 H 0.17857 0.42968 0.31359 0.0
H3955 H 0.16778 0.3968 0.25541 0.0
H3956 H 0.25482 0.35081 0.29803 0.0
H3957 H 0.23058 0.37221 0.30221 0.0
H3958 H 0.19703 0.371 0.31348 0.0
C3959 C 0.16627 0.43064 0.30336 0.0
C3960 C 0.17363 0.39098 0.26821 0.0
C3961 C 0.15779 0.44763 0.30469 0.0
C3962 C 0.24081 0.34726 0.28948 0.0
C3963 C 0.2269 0.35946 0.29192 0.0
C3964 C 0.1906 0.37642 0.3007 0.0
C3965 C 0.15973 0.41572 0.28854 0.0
C3966 C 0.1703 0.39856 0.28638 0.0
C3967 C 0.20874 0.35567 0.28071 0.0
C3968 C 0.19451 0.36945 0.28259 0.0
H3969 H 0.1237 0.43685 0.26604 0.0
H3970 H 0.13828 0.4068 0.26394 0.0
H3971 H 0.17597 0.39568 0.31679 0.0
H3972 H 0.21498 0.31417 0.25456 0.0
H3973 H 0.19075 0.3357 0.2586 0.0
C3974 C 0.20636 0.45411 0.00595 0.0
C3975 C 0.20954 0.44321 0.02184 0.0
C3976 C 0.1885 0.46012 1.00171 0.0
C3977 C 0.14846 0.47426 0.02441 0.0
H3978 H 0.12184 0.46942 0.97305 0.0
C3979 C 0.09006 0.52042 0.00408 0.0
C3980 C 0.07201 0.50923 0.9966 0.0
C3981 C 0.10677 0.51178 0.00503 0.0
C3982 C 0.12915 0.47081 0.98743 0.0
H3983 H 0.19642 0.42976 0.04557 0.0
H3984 H 0.1651 0.44082 0.03835 0.0
H3985 H 0.15052 0.4536 0.97961 0.0
H3986 H 0.05734 0.48088 0.98287 0.0
H3987 H 0.08679 0.46587 0.98417 0.0
H3988 H 0.1274 0.49176 0.0322 0.0
C3989 C 0.17652 0.4445 0.02917 0.0
C3990 C 0.14548 0.46182 0.99118 0.0
C3991 C 0.19436 0.43817 0.03326 0.0
C3992 C 0.07114 0.4898 0.98869 0.0
C3993 C 0.08793 0.48121 0.98945 0.0
C3994 C 0.13234 0.48347 0.02062 0.0
C3995 C 0.17352 0.4556 0.0134 0.0
C3996 C 0.15531 0.46359 0.00968 0.0
C3997 C 0.1057 0.49191 0.99831 0.0
C3998 C 0.12267 0.48198 1.00208 0.0
H3999 H 0.21772 0.45804 0.99676 0.0
H4000 H 0.18659 0.46883 0.98959 0.0
H4001 H 0.15591 0.47597 0.03875 0.0
H4002 H 0.09108 0.53544 0.01025 0.0
H4003 H 0.12042 0.52038 0.01167 0.0
C4004 C 0.83288 0.98617 0.22656 0.0
C4005 C 0.85045 0.99388 0.23777 0.0
C4006 C 0.82481 0.96609 0.22642 0.0
C4007 C 0.83606 0.91703 0.23911 0.0
H4008 H 0.78088 0.90528 0.24501 0.0
C4009 C 0.79312 0.83707 0.24131 0.0
C4010 C 0.78141 0.83441 0.2564 0.0
C4011 C 0.80172 0.8561 0.23739 0.0
C4012 C 0.7963 0.90833 0.24336 0.0
H4013 H 0.87429 0.98659 0.25627 0.0
H4014 H 0.86007 0.9516 0.25646 0.0
H4015 H 0.79586 0.93898 0.24018 0.0
H4016 H 0.76943 0.84968 0.27909 0.0
H4017 H 0.78417 0.88283 0.27205 0.0
H4018 H 0.8364 0.88621 0.24234 0.0
C4019 C 0.85241 0.96095 0.2478 0.0
C4020 C 0.80488 0.92764 0.24047 0.0
C4021 C 0.86049 0.981 0.24784 0.0
C4022 C 0.77839 0.85119 0.26738 0.0
C4023 C 0.78673 0.8702 0.26329 0.0
C4024 C 0.8274 0.89761 0.24172 0.0
C4025 C 0.83429 0.95329 0.23735 0.0
C4026 C 0.82494 0.93234 0.23867 0.0
C4027 C 0.79852 0.87287 0.24828 0.0
C4028 C 0.8075 0.89314 0.2442 0.0
H4029 H 0.82529 0.99573 0.21808 0.0
H4030 H 0.81103 0.96062 0.21791 0.0
H4031 H 0.85149 0.92006 0.23752 0.0
H4032 H 0.79581 0.82443 0.23264 0.0
H4033 H 0.81068 0.85774 0.22569 0.0
C4034 C 0.65562 0.04748 0.77104 0.0
C4035 C 0.63965 0.04549 0.78178 0.0
C4036 C 0.66674 0.0661 0.76964 0.0
C4037 C 0.66487 0.11983 0.77631 0.0
H4038 H 0.72081 0.12544 0.77484 0.0
C4039 C 0.73098 0.1832 0.75761 0.0
C4040 C 0.72754 0.19928 0.76929 0.0
C4041 C 0.72118 0.16402 0.75954 0.0
C4042 C 0.70518 0.12404 0.77511 0.0
H4043 H 0.62203 0.06116 0.79871 0.0
H4044 H 0.64187 0.09373 0.79705 0.0
H4045 H 0.70172 0.09283 0.77777 0.0
H4046 H 0.71164 0.20798 0.79241 0.0
H4047 H 0.69446 0.17465 0.79562 0.0
H4048 H 0.66847 0.15112 0.77399 0.0
C4049 C 0.64581 0.08103 0.78949 0.0
C4050 C 0.6942 0.10536 0.77675 0.0
C4051 C 0.63452 0.06241 0.79062 0.0
C4052 C 0.71452 0.19585 0.78316 0.0
C4053 C 0.70461 0.17681 0.78495 0.0
C4054 C 0.67587 0.13849 0.77489 0.0
C4055 C 0.66207 0.08313 0.77895 0.0
C4056 C 0.67388 0.10301 0.77739 0.0
C4057 C 0.70764 0.16073 0.77302 0.0
C4058 C 0.69612 0.14079 0.7743 0.0
H4059 H 0.65941 0.03462 0.76358 0.0
H4060 H 0.67882 0.06711 0.76103 0.0
H4061 H 0.64924 0.1186 0.77628 0.0
H4062 H 0.74097 0.18549 0.74681 0.0
H4063 H 0.72373 0.15187 0.75013 0.0
loop_
_geom_bond_atom_site_label_1
_geom_bond_atom_site_label_2
_geom_bond_distance
_geom_bond_site_symmetry_2
_ccdc_geom_bond_type
Mn0 O5 2.095 . S
Mn0 O15 2.162 . S
Mn0 O16 2.297 . S
Mn0 O24 2.385 1_455 S
Mn0 O25 2.201 1_455 S
Mn0 O26 2.094 . S
Mn1 O6 2.121 . S
Mn1 N8 2.257 . S
Mn1 N17 2.282 1_455 S
Mn1 O25 2.209 1_455 S
Mn1 O27 2.117 . S
C2 O24 1.234 . S
C2 O25 1.299 . S
C3 O15 1.281 . S
C3 O16 1.236 . S
C4 O26 1.240 . S
C4 O27 1.264 . S
O5 Mn0 2.095 . S
O5 C14 1.250 . S
O6 Mn1 2.121 . S
O6 C14 1.258 . S
C7 N8 1.326 . S
C7 C11 1.460 . S
C7 H13 0.929 . S
N8 Mn1 2.257 . S
N8 C7 1.326 . S
N8 C12 1.362 1_455 S
C9 C10 1.258 . S
C9 C12 1.431 . S
C9 C29 1.449 . S
C10 C9 1.258 . S
C10 C11 1.477 1_655 S
C10 H30 0.931 . S
C11 C7 1.460 . S
C11 C10 1.477 1_455 S
C11 H31 0.930 . S
C12 N8 1.362 1_655 S
C12 C9 1.431 . S
C12 C22 1.476 . S
H13 C7 0.929 . S
C14 O5 1.250 . S
C14 O6 1.258 . S
O15 Mn0 2.162 . S
O15 C3 1.281 . S
O16 Mn0 2.297 . S
O16 C3 1.236 . S
N17 Mn1 2.282 1_655 S
N17 C18 1.328 . S
N17 C22 1.318 . S
C18 N17 1.328 . S
C18 C19 1.457 . S
C18 H23 0.929 . S
C19 C18 1.457 . S
C19 C20 1.291 . S
C19 H32 0.931 . S
C20 C19 1.291 . S
C20 C21 1.373 . S
C20 H33 0.929 . S
C21 C20 1.373 . S
C21 C22 1.396 . S
C21 C28 1.403 . S
C22 C12 1.476 . S
C22 N17 1.318 . S
C22 C21 1.396 . S
H23 C18 0.929 . S
O24 Mn0 2.385 1_655 S
O24 C2 1.234 . S
O25 Mn0 2.201 1_655 S
O25 Mn1 2.209 1_655 S
O25 C2 1.299 . S
O26 Mn0 2.094 . S
O26 C4 1.240 . S
O27 Mn1 2.117 . S
O27 C4 1.264 . S
C28 C21 1.403 . S
C28 C29 1.399 . S
C28 H34 0.929 . S
C29 C9 1.449 . S
C29 C28 1.399 . S
C29 H35 0.930 . S
H30 C10 0.931 . S
H31 C11 0.930 . S
H32 C19 0.931 . S
H33 C20 0.929 . S
H34 C28 0.929 . S
H35 C29 0.930 . S
Mn36 O41 2.074 1_455 S
Mn36 O51 2.162 1_455 S
Mn36 O52 2.299 1_455 S
Mn36 O60 2.407 . S
Mn36 O61 2.218 . S
Mn36 O62 2.093 . S
Mn37 O42 2.121 1_455 S
Mn37 N44 2.257 . S
Mn37 N53 2.282 . S
Mn37 O61 2.215 . S
Mn37 O63 2.117 . S
C38 O60 1.234 . S
C38 O61 1.283 . S
C39 O51 1.281 . S
C39 O52 1.236 . S
C40 O62 1.240 . S
C40 O63 1.264 . S
O41 Mn36 2.074 1_655 S
O41 C50 1.250 . S
O42 Mn37 2.121 1_655 S
O42 C50 1.258 . S
C43 N44 1.326 . S
C43 C47 1.460 . S
C43 H49 0.929 1_455 S
N44 Mn37 2.257 . S
N44 C43 1.326 . S
N44 C48 1.362 . S
C45 C46 1.258 . S
C45 C48 1.431 . S
C45 C65 1.449 . S
C46 C45 1.258 . S
C46 C47 1.477 . S
C46 H66 0.931 . S
C47 C43 1.460 . S
C47 C46 1.477 . S
C47 H67 0.930 . S
C48 N44 1.362 . S
C48 C45 1.431 . S
C48 C58 1.476 . S
H49 C43 0.929 1_655 S
C50 O41 1.250 . S
C50 O42 1.258 . S
O51 Mn36 2.162 1_655 S
O51 C39 1.281 . S
O52 Mn36 2.299 1_655 S
O52 C39 1.236 . S
N53 Mn37 2.282 . S
N53 C54 1.328 . S
N53 C58 1.318 . S
C54 N53 1.328 . S
C54 C55 1.457 . S
C54 H59 0.929 . S
C55 C54 1.457 . S
C55 C56 1.291 . S
C55 H68 0.931 . S
C56 C55 1.291 . S
C56 C57 1.373 . S
C56 H69 0.929 . S
C57 C56 1.373 . S
C57 C58 1.396 . S
C57 C64 1.403 . S
C58 C48 1.476 . S
C58 N53 1.318 . S
C58 C57 1.396 . S
H59 C54 0.929 . S
O60 Mn36 2.407 . S
O60 C38 1.234 . S
O61 Mn36 2.218 . S
O61 Mn37 2.215 . S
O61 C38 1.283 . S
O62 Mn36 2.093 . S
O62 C40 1.240 . S
O63 Mn37 2.117 . S
O63 C40 1.264 . S
C64 C57 1.403 . S
C64 C65 1.399 . S
C64 H70 0.929 . S
C65 C45 1.449 . S
C65 C64 1.399 . S
C65 H71 0.930 . S
H66 C46 0.931 . S
H67 C47 0.930 . S
H68 C55 0.931 . S
H69 C56 0.929 . S
H70 C64 0.929 . S
H71 C65 0.930 . S
Mn72 O77 2.095 . S
Mn72 O87 2.162 . S
Mn72 O88 2.297 . S
Mn72 O96 2.385 . S
Mn72 O97 2.209 . S
Mn72 O98 2.094 . S
Mn73 O78 2.121 . S
Mn73 N80 2.257 . S
Mn73 N89 2.282 . S
Mn73 O97 2.215 . S
Mn73 O99 2.117 . S
C74 O96 1.234 . S
C74 O97 1.283 . S
C75 O87 1.281 . S
C75 O88 1.236 . S
C76 O98 1.240 . S
C76 O99 1.264 . S
O77 Mn72 2.095 . S
O77 C86 1.250 . S
O78 Mn73 2.121 . S
O78 C86 1.258 . S
C79 N80 1.326 . S
C79 C83 1.460 . S
C79 H85 0.929 . S
N80 Mn73 2.257 . S
N80 C79 1.326 . S
N80 C84 1.362 . S
C81 C82 1.258 . S
C81 C84 1.431 . S
C81 C101 1.449 . S
C82 C81 1.258 . S
C82 C83 1.477 . S
C82 H102 0.931 . S
C83 C79 1.460 . S
C83 C82 1.477 . S
C83 H103 0.930 . S
C84 N80 1.362 . S
C84 C81 1.431 . S
C84 C94 1.476 . S
H85 C79 0.929 . S
C86 O77 1.250 . S
C86 O78 1.258 . S
O87 Mn72 2.162 . S
O87 C75 1.281 . S
O88 Mn72 2.297 . S
O88 C75 1.236 . S
N89 Mn73 2.282 . S
N89 C90 1.328 . S
N89 C94 1.318 . S
C90 N89 1.328 . S
C90 C91 1.457 . S
C90 H95 0.929 . S
C91 C90 1.457 . S
C91 C92 1.291 . S
C91 H104 0.931 . S
C92 C91 1.291 . S
C92 C93 1.373 . S
C92 H105 0.929 . S
C93 C92 1.373 . S
C93 C94 1.396 . S
C93 C100 1.403 . S
C94 C84 1.476 . S
C94 N89 1.318 . S
C94 C93 1.396 . S
H95 C90 0.929 . S
O96 Mn72 2.385 . S
O96 C74 1.234 . S
O97 Mn72 2.209 . S
O97 Mn73 2.215 . S
O97 C74 1.283 . S
O98 Mn72 2.094 . S
O98 C76 1.240 . S
O99 Mn73 2.117 . S
O99 C76 1.264 . S
C100 C93 1.403 . S
C100 C101 1.399 . S
C100 H106 0.929 . S
C101 C81 1.449 . S
C101 C100 1.399 . S
C101 H107 0.930 . S
H102 C82 0.931 . S
H103 C83 0.930 . S
H104 C91 0.931 . S
H105 C92 0.929 . S
H106 C100 0.929 . S
H107 C101 0.930 . S
Mn108 O113 2.095 . S
Mn108 O123 2.162 . S
Mn108 O124 2.297 . S
Mn108 O132 2.385 . S
Mn108 O133 2.209 . S
Mn108 O134 2.094 . S
Mn109 O114 2.121 . S
Mn109 N116 2.257 . S
Mn109 N125 2.282 . S
Mn109 O133 2.215 . S
Mn109 O135 2.117 . S
C110 O132 1.234 . S
C110 O133 1.283 . S
C111 O123 1.281 . S
C111 O124 1.236 . S
C112 O134 1.240 . S
C112 O135 1.264 . S
O113 Mn108 2.095 . S
O113 C122 1.250 . S
O114 Mn109 2.121 . S
O114 C122 1.258 . S
C115 N116 1.326 . S
C115 C119 1.460 . S
C115 H121 0.929 . S
N116 Mn109 2.257 . S
N116 C115 1.326 . S
N116 C120 1.362 . S
C117 C118 1.258 . S
C117 C120 1.431 . S
C117 C137 1.449 . S
C118 C117 1.258 . S
C118 C119 1.477 . S
C118 H138 0.931 . S
C119 C115 1.460 . S
C119 C118 1.477 . S
C119 H139 0.930 . S
C120 N116 1.362 . S
C120 C117 1.431 . S
C120 C130 1.476 . S
H121 C115 0.929 . S
C122 O113 1.250 . S
C122 O114 1.258 . S
O123 Mn108 2.162 . S
O123 C111 1.281 . S
O124 Mn108 2.297 . S
O124 C111 1.236 . S
N125 Mn109 2.282 . S
N125 C126 1.328 . S
N125 C130 1.318 . S
C126 N125 1.328 . S
C126 C127 1.457 . S
C126 H131 0.929 . S
C127 C126 1.457 . S
C127 C128 1.291 . S
C127 H140 0.931 . S
C128 C127 1.291 . S
C128 C129 1.373 . S
C128 H141 0.929 . S
C129 C128 1.373 . S
C129 C130 1.396 . S
C129 C136 1.403 . S
C130 C120 1.476 . S
C130 N125 1.318 . S
C130 C129 1.396 . S
H131 C126 0.929 . S
O132 Mn108 2.385 . S
O132 C110 1.234 . S
O133 Mn108 2.209 . S
O133 Mn109 2.215 . S
O133 C110 1.283 . S
O134 Mn108 2.094 . S
O134 C112 1.240 . S
O135 Mn109 2.117 . S
O135 C112 1.264 . S
C136 C129 1.403 . S
C136 C137 1.399 . S
C136 H142 0.929 . S
C137 C117 1.449 . S
C137 C136 1.399 . S
C137 H143 0.930 . S
H138 C118 0.931 . S
H139 C119 0.930 . S
H140 C127 0.931 . S
H141 C128 0.929 . S
H142 C136 0.929 . S
H143 C137 0.930 . S
Mn144 O149 2.095 . S
Mn144 O159 2.162 . S
Mn144 O160 2.297 . S
Mn144 O168 2.385 . S
Mn144 O169 2.209 . S
Mn144 O170 2.094 1_455 S
Mn145 O150 2.121 . S
Mn145 N152 2.257 . S
Mn145 N161 2.282 . S
Mn145 O169 2.215 1_655 S
Mn145 O171 2.117 . S
C146 O168 1.234 . S
C146 O169 1.283 . S
C147 O159 1.281 . S
C147 O160 1.236 . S
C148 O170 1.240 . S
C148 O171 1.264 . S
O149 Mn144 2.095 . S
O149 C158 1.250 . S
O150 Mn145 2.121 . S
O150 C158 1.258 1_655 S
C151 N152 1.326 . S
C151 C155 1.460 . S
C151 H157 0.929 . S
N152 Mn145 2.257 . S
N152 C151 1.326 . S
N152 C156 1.362 . S
C153 C154 1.258 . S
C153 C156 1.431 . S
C153 C173 1.449 . S
C154 C153 1.258 . S
C154 C155 1.477 . S
C154 H174 0.931 . S
C155 C151 1.460 . S
C155 C154 1.477 . S
C155 H175 0.930 . S
C156 N152 1.362 . S
C156 C153 1.431 . S
C156 C166 1.476 . S
H157 C151 0.929 . S
C158 O149 1.250 . S
C158 O150 1.258 1_455 S
O159 Mn144 2.162 . S
O159 C147 1.281 . S
O160 Mn144 2.297 . S
O160 C147 1.236 . S
N161 Mn145 2.282 . S
N161 C162 1.328 . S
N161 C166 1.318 . S
C162 N161 1.328 . S
C162 C163 1.457 . S
C162 H167 0.929 . S
C163 C162 1.457 . S
C163 C164 1.291 . S
C163 H176 0.931 . S
C164 C163 1.291 . S
C164 C165 1.373 . S
C164 H177 0.929 . S
C165 C164 1.373 . S
C165 C166 1.396 . S
C165 C172 1.403 . S
C166 C156 1.476 . S
C166 N161 1.318 . S
C166 C165 1.396 . S
H167 C162 0.929 . S
O168 Mn144 2.385 . S
O168 C146 1.234 . S
O169 Mn144 2.209 . S
O169 Mn145 2.215 1_455 S
O169 C146 1.283 . S
O170 Mn144 2.094 1_655 S
O170 C148 1.240 . S
O171 Mn145 2.117 . S
O171 C148 1.264 . S
C172 C165 1.403 . S
C172 C173 1.399 . S
C172 H178 0.929 . S
C173 C153 1.449 . S
C173 C172 1.399 . S
C173 H179 0.930 . S
H174 C154 0.931 . S
H175 C155 0.930 . S
H176 C163 0.931 . S
H177 C164 0.929 . S
H178 C172 0.929 . S
H179 C173 0.930 . S
Mn180 O185 2.095 . S
Mn180 O195 2.162 . S
Mn180 O196 2.297 . S
Mn180 O204 2.385 . S
Mn180 O205 2.209 . S
Mn180 O206 2.094 . S
Mn181 O186 2.121 . S
Mn181 N188 2.257 . S
Mn181 N197 2.282 . S
Mn181 O205 2.215 . S
Mn181 O207 2.117 . S
C182 O204 1.234 . S
C182 O205 1.283 . S
C183 O195 1.281 . S
C183 O196 1.236 . S
C184 O206 1.240 . S
C184 O207 1.264 . S
O185 Mn180 2.095 . S
O185 C194 1.250 . S
O186 Mn181 2.121 . S
O186 C194 1.258 . S
C187 N188 1.326 . S
C187 C191 1.460 . S
C187 H193 0.929 . S
N188 Mn181 2.257 . S
N188 C187 1.326 . S
N188 C192 1.362 . S
C189 C190 1.258 . S
C189 C192 1.431 . S
C189 C209 1.449 . S
C190 C189 1.258 . S
C190 C191 1.477 . S
C190 H210 0.931 . S
C191 C187 1.460 . S
C191 C190 1.477 . S
C191 H211 0.930 . S
C192 N188 1.362 . S
C192 C189 1.431 . S
C192 C202 1.476 . S
H193 C187 0.929 . S
C194 O185 1.250 . S
C194 O186 1.258 . S
O195 Mn180 2.162 . S
O195 C183 1.281 . S
O196 Mn180 2.297 . S
O196 C183 1.236 . S
N197 Mn181 2.282 . S
N197 C198 1.328 . S
N197 C202 1.318 . S
C198 N197 1.328 . S
C198 C199 1.457 . S
C198 H203 0.929 . S
C199 C198 1.457 . S
C199 C200 1.291 . S
C199 H212 0.931 . S
C200 C199 1.291 . S
C200 C201 1.373 . S
C200 H213 0.929 . S
C201 C200 1.373 . S
C201 C202 1.396 . S
C201 C208 1.403 . S
C202 C192 1.476 . S
C202 N197 1.318 . S
C202 C201 1.396 . S
H203 C198 0.929 . S
O204 Mn180 2.385 . S
O204 C182 1.234 . S
O205 Mn180 2.209 . S
O205 Mn181 2.215 . S
O205 C182 1.283 . S
O206 Mn180 2.094 . S
O206 C184 1.240 . S
O207 Mn181 2.117 . S
O207 C184 1.264 . S
C208 C201 1.403 . S
C208 C209 1.399 . S
C208 H214 0.929 . S
C209 C189 1.449 . S
C209 C208 1.399 . S
C209 H215 0.930 . S
H210 C190 0.931 . S
H211 C191 0.930 . S
H212 C199 0.931 . S
H213 C200 0.929 . S
H214 C208 0.929 . S
H215 C209 0.930 . S
Mn216 O221 2.095 . S
Mn216 O231 2.162 . S
Mn216 O232 2.297 . S
Mn216 O240 2.385 . S
Mn216 O241 2.209 . S
Mn216 O242 2.094 . S
Mn217 O222 2.121 . S
Mn217 N224 2.257 . S
Mn217 N233 2.282 . S
Mn217 O241 2.215 . S
Mn217 O243 2.117 . S
C218 O240 1.234 . S
C218 O241 1.283 . S
C219 O231 1.281 . S
C219 O232 1.236 . S
C220 O242 1.240 . S
C220 O243 1.264 . S
O221 Mn216 2.095 . S
O221 C230 1.250 . S
O222 Mn217 2.121 . S
O222 C230 1.258 . S
C223 N224 1.326 . S
C223 C227 1.460 . S
C223 H229 0.929 . S
N224 Mn217 2.257 . S
N224 C223 1.326 . S
N224 C228 1.362 . S
C225 C226 1.258 . S
C225 C228 1.431 . S
C225 C245 1.449 . S
C226 C225 1.258 . S
C226 C227 1.477 . S
C226 H246 0.931 . S
C227 C223 1.460 . S
C227 C226 1.477 . S
C227 H247 0.930 . S
C228 N224 1.362 . S
C228 C225 1.431 . S
C228 C238 1.476 . S
H229 C223 0.929 . S
C230 O221 1.250 . S
C230 O222 1.258 . S
O231 Mn216 2.162 . S
O231 C219 1.281 . S
O232 Mn216 2.297 . S
O232 C219 1.236 . S
N233 Mn217 2.282 . S
N233 C234 1.328 . S
N233 C238 1.318 . S
C234 N233 1.328 . S
C234 C235 1.457 . S
C234 H239 0.929 . S
C235 C234 1.457 . S
C235 C236 1.291 . S
C235 H248 0.931 . S
C236 C235 1.291 . S
C236 C237 1.373 . S
C236 H249 0.929 . S
C237 C236 1.373 . S
C237 C238 1.396 . S
C237 C244 1.403 . S
C238 C228 1.476 . S
C238 N233 1.318 . S
C238 C237 1.396 . S
H239 C234 0.929 . S
O240 Mn216 2.385 . S
O240 C218 1.234 . S
O241 Mn216 2.209 . S
O241 Mn217 2.215 . S
O241 C218 1.283 . S
O242 Mn216 2.094 . S
O242 C220 1.240 . S
O243 Mn217 2.117 . S
O243 C220 1.264 . S
C244 C237 1.403 . S
C244 C245 1.399 . S
C244 H250 0.929 . S
C245 C225 1.449 . S
C245 C244 1.399 . S
C245 H251 0.930 . S
H246 C226 0.931 . S
H247 C227 0.930 . S
H248 C235 0.931 . S
H249 C236 0.929 . S
H250 C244 0.929 . S
H251 C245 0.930 . S
Mn252 O257 2.095 . S
Mn252 O267 2.162 . S
Mn252 O268 2.297 . S
Mn252 O276 2.385 1_455 S
Mn252 O277 2.209 1_455 S
Mn252 O278 2.094 . S
Mn253 O258 2.121 . S
Mn253 N260 2.257 1_455 S
Mn253 N269 2.282 1_455 S
Mn253 O277 2.215 1_455 S
Mn253 O279 2.117 . S
C254 O276 1.234 . S
C254 O277 1.283 . S
C255 O267 1.281 . S
C255 O268 1.236 . S
C256 O278 1.240 . S
C256 O279 1.264 . S
O257 Mn252 2.095 . S
O257 C266 1.250 . S
O258 Mn253 2.121 . S
O258 C266 1.258 . S
C259 N260 1.326 1_455 S
C259 C263 1.456 1_455 S
C259 H265 0.929 . S
N260 Mn253 2.257 1_655 S
N260 C259 1.326 1_655 S
N260 C264 1.362 . S
C261 C262 1.258 . S
C261 C264 1.431 . S
C261 C281 1.449 . S
C262 C261 1.258 . S
C262 C263 1.491 . S
C262 H282 0.931 . S
C263 C259 1.456 1_655 S
C263 C262 1.491 . S
C263 H283 0.921 1_655 S
C264 N260 1.362 . S
C264 C261 1.431 . S
C264 C274 1.476 . S
H265 C259 0.929 . S
C266 O257 1.250 . S
C266 O258 1.258 . S
O267 Mn252 2.162 . S
O267 C255 1.281 . S
O268 Mn252 2.297 . S
O268 C255 1.236 . S
N269 Mn253 2.282 1_655 S
N269 C270 1.328 . S
N269 C274 1.318 . S
C270 N269 1.328 . S
C270 C271 1.457 . S
C270 H275 0.929 . S
C271 C270 1.457 . S
C271 C272 1.291 . S
C271 H284 0.931 . S
C272 C271 1.291 . S
C272 C273 1.373 . S
C272 H285 0.929 . S
C273 C272 1.373 . S
C273 C274 1.396 . S
C273 C280 1.403 . S
C274 C264 1.476 . S
C274 N269 1.318 . S
C274 C273 1.396 . S
H275 C270 0.929 . S
O276 Mn252 2.385 1_655 S
O276 C254 1.234 . S
O277 Mn252 2.209 1_655 S
O277 Mn253 2.215 1_655 S
O277 C254 1.283 . S
O278 Mn252 2.094 . S
O278 C256 1.240 . S
O279 Mn253 2.117 . S
O279 C256 1.264 . S
C280 C273 1.403 . S
C280 C281 1.399 . S
C280 H286 0.929 . S
C281 C261 1.449 . S
C281 C280 1.399 . S
C281 H287 0.930 . S
H282 C262 0.931 . S
H283 C263 0.921 1_455 S
H284 C271 0.931 . S
H285 C272 0.929 . S
H286 C280 0.929 . S
H287 C281 0.930 . S
Mn288 O293 2.095 . S
Mn288 O303 2.162 . S
Mn288 O304 2.297 . S
Mn288 O312 2.385 . S
Mn288 O313 2.209 . S
Mn288 O314 2.094 . S
Mn289 O294 2.121 . S
Mn289 N296 2.257 . S
Mn289 N305 2.282 . S
Mn289 O313 2.215 . S
Mn289 O315 2.117 . S
C290 O312 1.234 . S
C290 O313 1.283 . S
C291 O303 1.281 . S
C291 O304 1.236 . S
C292 O314 1.240 . S
C292 O315 1.264 . S
O293 Mn288 2.095 . S
O293 C302 1.250 . S
O294 Mn289 2.121 . S
O294 C302 1.258 . S
C295 N296 1.326 . S
C295 C299 1.460 . S
C295 H301 0.929 . S
N296 Mn289 2.257 . S
N296 C295 1.326 . S
N296 C300 1.362 . S
C297 C298 1.258 . S
C297 C300 1.431 . S
C297 C317 1.449 1_545 S
C298 C297 1.258 . S
C298 C299 1.477 . S
C298 H318 0.931 . S
C299 C295 1.460 . S
C299 C298 1.477 . S
C299 H319 0.930 . S
C300 N296 1.362 . S
C300 C297 1.431 . S
C300 C310 1.476 . S
H301 C295 0.929 . S
C302 O293 1.250 . S
C302 O294 1.258 . S
O303 Mn288 2.162 . S
O303 C291 1.281 . S
O304 Mn288 2.297 . S
O304 C291 1.236 . S
N305 Mn289 2.282 . S
N305 C306 1.328 . S
N305 C310 1.318 . S
C306 N305 1.328 . S
C306 C307 1.457 1_545 S
C306 H311 0.929 . S
C307 C306 1.457 1_565 S
C307 C308 1.291 . S
C307 H320 0.931 . S
C308 C307 1.291 . S
C308 C309 1.373 . S
C308 H321 0.929 . S
C309 C308 1.373 . S
C309 C310 1.396 1_565 S
C309 C316 1.403 . S
C310 C300 1.476 . S
C310 N305 1.318 . S
C310 C309 1.396 1_545 S
H311 C306 0.929 . S
O312 Mn288 2.385 . S
O312 C290 1.234 . S
O313 Mn288 2.209 . S
O313 Mn289 2.215 . S
O313 C290 1.283 . S
O314 Mn288 2.094 . S
O314 C292 1.240 . S
O315 Mn289 2.117 . S
O315 C292 1.264 . S
C316 C309 1.403 . S
C316 C317 1.399 . S
C316 H322 0.929 . S
C317 C297 1.449 1_565 S
C317 C316 1.399 . S
C317 H323 0.930 . S
H318 C298 0.931 . S
H319 C299 0.930 . S
H320 C307 0.931 . S
H321 C308 0.929 . S
H322 C316 0.929 . S
H323 C317 0.930 . S
Mn324 O329 2.095 . S
Mn324 O339 2.162 . S
Mn324 O340 2.297 . S
Mn324 O348 2.385 . S
Mn324 O349 2.209 . S
Mn324 O350 2.094 . S
Mn325 O330 2.121 . S
Mn325 N332 2.257 . S
Mn325 N341 2.282 . S
Mn325 O349 2.215 . S
Mn325 O351 2.117 . S
C326 O348 1.234 . S
C326 O349 1.283 . S
C327 O339 1.281 . S
C327 O340 1.236 . S
C328 O350 1.240 . S
C328 O351 1.264 . S
O329 Mn324 2.095 . S
O329 C338 1.250 . S
O330 Mn325 2.121 . S
O330 C338 1.258 . S
C331 N332 1.326 . S
C331 C335 1.460 . S
C331 H337 0.929 . S
N332 Mn325 2.257 . S
N332 C331 1.326 . S
N332 C336 1.362 . S
C333 C334 1.258 . S
C333 C336 1.431 . S
C333 C353 1.449 . S
C334 C333 1.258 . S
C334 C335 1.477 . S
C334 H354 0.931 . S
C335 C331 1.460 . S
C335 C334 1.477 . S
C335 H355 0.930 . S
C336 N332 1.362 . S
C336 C333 1.431 . S
C336 C346 1.476 . S
H337 C331 0.929 . S
C338 O329 1.250 . S
C338 O330 1.258 . S
O339 Mn324 2.162 . S
O339 C327 1.281 . S
O340 Mn324 2.297 . S
O340 C327 1.236 . S
N341 Mn325 2.282 . S
N341 C342 1.328 . S
N341 C346 1.318 . S
C342 N341 1.328 . S
C342 C343 1.457 . S
C342 H347 0.929 . S
C343 C342 1.457 . S
C343 C344 1.291 . S
C343 H356 0.931 . S
C344 C343 1.291 . S
C344 C345 1.373 . S
C344 H357 0.929 . S
C345 C344 1.373 . S
C345 C346 1.396 . S
C345 C352 1.403 . S
C346 C336 1.476 . S
C346 N341 1.318 . S
C346 C345 1.396 . S
H347 C342 0.929 . S
O348 Mn324 2.385 . S
O348 C326 1.234 . S
O349 Mn324 2.209 . S
O349 Mn325 2.215 . S
O349 C326 1.283 . S
O350 Mn324 2.094 . S
O350 C328 1.240 . S
O351 Mn325 2.117 . S
O351 C328 1.264 . S
C352 C345 1.403 . S
C352 C353 1.399 . S
C352 H358 0.929 . S
C353 C333 1.449 . S
C353 C352 1.399 . S
C353 H359 0.930 . S
H354 C334 0.931 . S
H355 C335 0.930 . S
H356 C343 0.931 . S
H357 C344 0.929 . S
H358 C352 0.929 . S
H359 C353 0.930 . S
Mn360 O365 2.091 1_545 S
Mn360 O375 2.162 1_545 S
Mn360 O376 2.297 . S
Mn360 O384 2.390 . S
Mn360 O385 2.210 . S
Mn360 O386 2.094 1_545 S
Mn361 O366 2.121 1_545 S
Mn361 N368 2.257 . S
Mn361 N377 2.282 . S
Mn361 O385 2.215 . S
Mn361 O387 2.117 . S
C362 O384 1.234 . S
C362 O385 1.283 . S
C363 O375 1.281 . S
C363 O376 1.236 1_565 S
C364 O386 1.240 1_545 S
C364 O387 1.264 . S
O365 Mn360 2.091 1_565 S
O365 C374 1.250 . S
O366 Mn361 2.121 1_565 S
O366 C374 1.258 . S
C367 N368 1.326 . S
C367 C371 1.460 . S
C367 H373 0.929 1_545 S
N368 Mn361 2.257 . S
N368 C367 1.326 . S
N368 C372 1.362 . S
C369 C370 1.258 . S
C369 C372 1.431 . S
C369 C389 1.449 . S
C370 C369 1.258 . S
C370 C371 1.477 . S
C370 H390 0.931 . S
C371 C367 1.460 . S
C371 C370 1.477 . S
C371 H391 0.930 . S
C372 N368 1.362 . S
C372 C369 1.431 . S
C372 C382 1.476 . S
H373 C367 0.929 1_565 S
C374 O365 1.250 . S
C374 O366 1.258 . S
O375 Mn360 2.162 1_565 S
O375 C363 1.281 . S
O376 Mn360 2.297 . S
O376 C363 1.236 1_545 S
N377 Mn361 2.282 . S
N377 C378 1.328 . S
N377 C382 1.318 . S
C378 N377 1.328 . S
C378 C379 1.457 . S
C378 H383 0.929 . S
C379 C378 1.457 . S
C379 C380 1.291 . S
C379 H392 0.931 . S
C380 C379 1.291 . S
C380 C381 1.373 . S
C380 H393 0.929 . S
C381 C380 1.373 . S
C381 C382 1.396 . S
C381 C388 1.403 . S
C382 C372 1.476 . S
C382 N377 1.318 . S
C382 C381 1.396 . S
H383 C378 0.929 . S
O384 Mn360 2.390 . S
O384 C362 1.234 . S
O385 Mn360 2.210 . S
O385 Mn361 2.215 . S
O385 C362 1.283 . S
O386 Mn360 2.094 1_565 S
O386 C364 1.240 1_565 S
O387 Mn361 2.117 . S
O387 C364 1.264 . S
C388 C381 1.403 . S
C388 C389 1.399 . S
C388 H394 0.929 . S
C389 C369 1.449 . S
C389 C388 1.399 . S
C389 H395 0.930 . S
H390 C370 0.931 . S
H391 C371 0.930 . S
H392 C379 0.931 . S
H393 C380 0.929 . S
H394 C388 0.929 . S
H395 C389 0.930 . S
Mn396 O401 2.095 . S
Mn396 O411 2.162 . S
Mn396 O412 2.297 . S
Mn396 O420 2.385 . S
Mn396 O421 2.209 . S
Mn396 O422 2.094 . S
Mn397 O402 2.121 1_556 S
Mn397 N404 2.257 1_556 S
Mn397 N413 2.282 . S
Mn397 O421 2.215 1_556 S
Mn397 O423 2.117 . S
C398 O420 1.234 . S
C398 O421 1.283 . S
C399 O411 1.281 . S
C399 O412 1.236 . S
C400 O422 1.240 1_556 S
C400 O423 1.264 . S
O401 Mn396 2.095 . S
O401 C410 1.250 . S
O402 Mn397 2.121 1_554 S
O402 C410 1.258 . S
C403 N404 1.326 . S
C403 C407 1.460 . S
C403 H409 0.929 . S
N404 Mn397 2.257 1_554 S
N404 C403 1.326 . S
N404 C408 1.362 1_554 S
C405 C406 1.245 1_566 S
C405 C408 1.431 . S
C405 C425 1.463 . S
C406 C405 1.245 1_544 S
C406 C407 1.477 1_545 S
C406 H426 0.931 . S
C407 C403 1.460 . S
C407 C406 1.477 1_565 S
C407 H427 0.930 1_565 S
C408 N404 1.362 1_556 S
C408 C405 1.431 . S
C408 C418 1.476 . S
H409 C403 0.929 . S
C410 O401 1.250 . S
C410 O402 1.258 . S
O411 Mn396 2.162 . S
O411 C399 1.281 . S
O412 Mn396 2.297 . S
O412 C399 1.236 . S
N413 Mn397 2.282 . S
N413 C414 1.328 . S
N413 C418 1.318 . S
C414 N413 1.328 . S
C414 C415 1.457 . S
C414 H419 0.929 . S
C415 C414 1.457 . S
C415 C416 1.291 . S
C415 H428 0.931 . S
C416 C415 1.291 . S
C416 C417 1.373 . S
C416 H429 0.929 . S
C417 C416 1.373 . S
C417 C418 1.396 . S
C417 C424 1.403 . S
C418 C408 1.476 . S
C418 N413 1.318 . S
C418 C417 1.396 . S
H419 C414 0.929 . S
O420 Mn396 2.385 . S
O420 C398 1.234 . S
O421 Mn396 2.209 . S
O421 Mn397 2.215 1_554 S
O421 C398 1.283 . S
O422 Mn396 2.094 . S
O422 C400 1.240 1_554 S
O423 Mn397 2.117 . S
O423 C400 1.264 . S
C424 C417 1.403 . S
C424 C425 1.399 . S
C424 H430 0.929 . S
C425 C405 1.463 . S
C425 C424 1.399 . S
C425 H431 0.930 1_565 S
H426 C406 0.931 . S
H427 C407 0.930 1_545 S
H428 C415 0.931 . S
H429 C416 0.929 . S
H430 C424 0.929 . S
H431 C425 0.930 1_545 S
Mn432 O437 2.095 . S
Mn432 O447 2.162 . S
Mn432 O448 2.297 . S
Mn432 O456 2.385 . S
Mn432 O457 2.209 . S
Mn432 O458 2.094 1_554 S
Mn433 O438 2.121 1_556 S
Mn433 N440 2.259 . S
Mn433 N449 2.282 . S
Mn433 O457 2.215 1_556 S
Mn433 O459 2.117 . S
C434 O456 1.234 . S
C434 O457 1.283 . S
C435 O447 1.281 . S
C435 O448 1.236 . S
C436 O458 1.240 . S
C436 O459 1.264 . S
O437 Mn432 2.095 . S
O437 C446 1.250 . S
O438 Mn433 2.121 1_554 S
O438 C446 1.258 . S
C439 N440 1.316 1_554 S
C439 C443 1.460 . S
C439 H445 0.929 . S
N440 Mn433 2.259 . S
N440 C439 1.316 1_556 S
N440 C444 1.373 . S
C441 C442 1.258 1_556 S
C441 C444 1.431 . S
C441 C461 1.449 . S
C442 C441 1.258 1_554 S
C442 C443 1.477 . S
C442 H462 0.931 . S
C443 C439 1.460 . S
C443 C442 1.477 . S
C443 H463 0.930 . S
C444 N440 1.373 . S
C444 C441 1.431 . S
C444 C454 1.476 . S
H445 C439 0.929 . S
C446 O437 1.250 . S
C446 O438 1.258 . S
O447 Mn432 2.162 . S
O447 C435 1.281 . S
O448 Mn432 2.297 . S
O448 C435 1.236 . S
N449 Mn433 2.282 . S
N449 C450 1.328 . S
N449 C454 1.318 . S
C450 N449 1.328 . S
C450 C451 1.457 . S
C450 H455 0.929 . S
C451 C450 1.457 . S
C451 C452 1.291 . S
C451 H464 0.931 . S
C452 C451 1.291 . S
C452 C453 1.373 . S
C452 H465 0.929 . S
C453 C452 1.373 . S
C453 C454 1.396 . S
C453 C460 1.403 . S
C454 C444 1.476 . S
C454 N449 1.318 . S
C454 C453 1.396 . S
H455 C450 0.929 . S
O456 Mn432 2.385 . S
O456 C434 1.234 . S
O457 Mn432 2.209 . S
O457 Mn433 2.215 1_554 S
O457 C434 1.283 . S
O458 Mn432 2.094 1_556 S
O458 C436 1.240 . S
O459 Mn433 2.117 . S
O459 C436 1.264 . S
C460 C453 1.403 . S
C460 C461 1.399 . S
C460 H466 0.929 . S
C461 C441 1.449 . S
C461 C460 1.399 . S
C461 H467 0.930 . S
H462 C442 0.931 . S
H463 C443 0.930 . S
H464 C451 0.931 . S
H465 C452 0.929 . S
H466 C460 0.929 . S
H467 C461 0.930 . S
Mn468 O473 2.095 1_554 S
Mn468 O483 2.162 . S
Mn468 O484 2.297 . S
Mn468 O492 2.385 . S
Mn468 O493 2.209 1_554 S
Mn468 O494 2.094 1_554 S
Mn469 O474 2.121 . S
Mn469 N476 2.257 . S
Mn469 N485 2.282 . S
Mn469 O493 2.215 . S
Mn469 O495 2.117 . S
C470 O492 1.234 1_556 S
C470 O493 1.283 . S
C471 O483 1.281 . S
C471 O484 1.236 . S
C472 O494 1.240 . S
C472 O495 1.264 . S
O473 Mn468 2.095 1_556 S
O473 C482 1.250 . S
O474 Mn469 2.121 . S
O474 C482 1.258 . S
C475 N476 1.326 . S
C475 C479 1.460 . S
C475 H481 0.929 . S
N476 Mn469 2.257 . S
N476 C475 1.326 . S
N476 C480 1.362 . S
C477 C478 1.258 . S
C477 C480 1.431 . S
C477 C497 1.449 . S
C478 C477 1.258 . S
C478 C479 1.477 . S
C478 H498 0.931 . S
C479 C475 1.460 . S
C479 C478 1.477 . S
C479 H499 0.930 . S
C480 N476 1.362 . S
C480 C477 1.431 . S
C480 C490 1.476 . S
H481 C475 0.929 . S
C482 O473 1.250 . S
C482 O474 1.258 . S
O483 Mn468 2.162 . S
O483 C471 1.281 . S
O484 Mn468 2.297 . S
O484 C471 1.236 . S
N485 Mn469 2.282 . S
N485 C486 1.328 . S
N485 C490 1.318 . S
C486 N485 1.328 . S
C486 C487 1.457 . S
C486 H491 0.929 . S
C487 C486 1.457 . S
C487 C488 1.291 . S
C487 H500 0.931 . S
C488 C487 1.291 . S
C488 C489 1.373 . S
C488 H501 0.929 . S
C489 C488 1.373 . S
C489 C490 1.396 . S
C489 C496 1.403 . S
C490 C480 1.476 . S
C490 N485 1.318 . S
C490 C489 1.396 . S
H491 C486 0.929 . S
O492 Mn468 2.385 . S
O492 C470 1.234 1_554 S
O493 Mn468 2.209 1_556 S
O493 Mn469 2.215 . S
O493 C470 1.283 . S
O494 Mn468 2.094 1_556 S
O494 C472 1.240 . S
O495 Mn469 2.117 . S
O495 C472 1.264 . S
C496 C489 1.403 . S
C496 C497 1.399 . S
C496 H502 0.929 . S
C497 C477 1.449 . S
C497 C496 1.399 . S
C497 H503 0.930 . S
H498 C478 0.931 . S
H499 C479 0.930 . S
H500 C487 0.931 . S
H501 C488 0.929 . S
H502 C496 0.929 . S
H503 C497 0.930 . S
Mn504 O509 2.095 . S
Mn504 O519 2.162 . S
Mn504 O520 2.297 . S
Mn504 O528 2.385 . S
Mn504 O529 2.209 . S
Mn504 O530 2.094 . S
Mn505 O510 2.121 . S
Mn505 N512 2.257 . S
Mn505 N521 2.282 . S
Mn505 O529 2.215 . S
Mn505 O531 2.117 . S
C506 O528 1.234 . S
C506 O529 1.283 . S
C507 O519 1.281 . S
C507 O520 1.236 . S
C508 O530 1.240 . S
C508 O531 1.264 . S
O509 Mn504 2.095 . S
O509 C518 1.250 . S
O510 Mn505 2.121 . S
O510 C518 1.258 . S
C511 N512 1.326 . S
C511 C515 1.460 . S
C511 H517 0.929 . S
N512 Mn505 2.257 . S
N512 C511 1.326 . S
N512 C516 1.362 . S
C513 C514 1.258 . S
C513 C516 1.431 . S
C513 C533 1.449 . S
C514 C513 1.258 . S
C514 C515 1.477 . S
C514 H534 0.931 . S
C515 C511 1.460 . S
C515 C514 1.477 . S
C515 H535 0.930 . S
C516 N512 1.362 . S
C516 C513 1.431 . S
C516 C526 1.476 . S
H517 C511 0.929 . S
C518 O509 1.250 . S
C518 O510 1.258 . S
O519 Mn504 2.162 . S
O519 C507 1.281 . S
O520 Mn504 2.297 . S
O520 C507 1.236 . S
N521 Mn505 2.282 . S
N521 C522 1.328 . S
N521 C526 1.318 . S
C522 N521 1.328 . S
C522 C523 1.457 . S
C522 H527 0.929 . S
C523 C522 1.457 . S
C523 C524 1.291 . S
C523 H536 0.931 . S
C524 C523 1.291 . S
C524 C525 1.373 . S
C524 H537 0.929 . S
C525 C524 1.373 . S
C525 C526 1.396 . S
C525 C532 1.403 . S
C526 C516 1.476 . S
C526 N521 1.318 . S
C526 C525 1.396 . S
H527 C522 0.929 . S
O528 Mn504 2.385 . S
O528 C506 1.234 . S
O529 Mn504 2.209 . S
O529 Mn505 2.215 . S
O529 C506 1.283 . S
O530 Mn504 2.094 . S
O530 C508 1.240 . S
O531 Mn505 2.117 . S
O531 C508 1.264 . S
C532 C525 1.403 . S
C532 C533 1.399 . S
C532 H538 0.929 . S
C533 C513 1.449 . S
C533 C532 1.399 . S
C533 H539 0.930 . S
H534 C514 0.931 . S
H535 C515 0.930 . S
H536 C523 0.931 . S
H537 C524 0.929 . S
H538 C532 0.929 . S
H539 C533 0.930 . S
Mn540 O545 2.095 . S
Mn540 O555 2.162 . S
Mn540 O556 2.297 . S
Mn540 O564 2.385 . S
Mn540 O565 2.209 . S
Mn540 O566 2.094 . S
Mn541 O546 2.121 . S
Mn541 N548 2.257 . S
Mn541 N557 2.282 . S
Mn541 O565 2.215 . S
Mn541 O567 2.117 . S
C542 O564 1.234 . S
C542 O565 1.283 . S
C543 O555 1.281 . S
C543 O556 1.236 . S
C544 O566 1.240 . S
C544 O567 1.264 . S
O545 Mn540 2.095 . S
O545 C554 1.250 . S
O546 Mn541 2.121 . S
O546 C554 1.258 . S
C547 N548 1.326 . S
C547 C551 1.460 . S
C547 H553 0.929 . S
N548 Mn541 2.257 . S
N548 C547 1.326 . S
N548 C552 1.362 . S
C549 C550 1.258 . S
C549 C552 1.431 . S
C549 C569 1.449 . S
C550 C549 1.258 . S
C550 C551 1.477 . S
C550 H570 0.931 1_565 S
C551 C547 1.460 . S
C551 C550 1.477 . S
C551 H571 0.930 . S
C552 N548 1.362 . S
C552 C549 1.431 . S
C552 C562 1.476 . S
H553 C547 0.929 . S
C554 O545 1.250 . S
C554 O546 1.258 . S
O555 Mn540 2.162 . S
O555 C543 1.281 . S
O556 Mn540 2.297 . S
O556 C543 1.236 . S
N557 Mn541 2.282 . S
N557 C558 1.328 . S
N557 C562 1.318 . S
C558 N557 1.328 . S
C558 C559 1.457 . S
C558 H563 0.929 . S
C559 C558 1.457 . S
C559 C560 1.291 . S
C559 H572 0.931 . S
C560 C559 1.291 . S
C560 C561 1.373 . S
C560 H573 0.929 . S
C561 C560 1.373 . S
C561 C562 1.396 . S
C561 C568 1.403 . S
C562 C552 1.476 . S
C562 N557 1.318 . S
C562 C561 1.396 . S
H563 C558 0.929 . S
O564 Mn540 2.385 . S
O564 C542 1.234 . S
O565 Mn540 2.209 . S
O565 Mn541 2.215 . S
O565 C542 1.283 . S
O566 Mn540 2.094 . S
O566 C544 1.240 . S
O567 Mn541 2.117 . S
O567 C544 1.264 . S
C568 C561 1.403 . S
C568 C569 1.399 . S
C568 H574 0.929 . S
C569 C549 1.449 . S
C569 C568 1.399 . S
C569 H575 0.930 . S
H570 C550 0.931 1_545 S
H571 C551 0.930 . S
H572 C559 0.931 . S
H573 C560 0.929 . S
H574 C568 0.929 . S
H575 C569 0.930 . S
Mn576 O581 2.095 . S
Mn576 O591 2.162 . S
Mn576 O592 2.297 . S
Mn576 O600 2.385 . S
Mn576 O601 2.209 . S
Mn576 O602 2.094 . S
Mn577 O582 2.121 . S
Mn577 N584 2.257 . S
Mn577 N593 2.282 . S
Mn577 O601 2.215 . S
Mn577 O603 2.117 . S
C578 O600 1.234 . S
C578 O601 1.283 . S
C579 O591 1.281 . S
C579 O592 1.236 . S
C580 O602 1.240 . S
C580 O603 1.264 . S
O581 Mn576 2.095 . S
O581 C590 1.250 . S
O582 Mn577 2.121 . S
O582 C590 1.258 . S
C583 N584 1.326 . S
C583 C587 1.460 . S
C583 H589 0.929 . S
N584 Mn577 2.257 . S
N584 C583 1.326 . S
N584 C588 1.362 . S
C585 C586 1.258 . S
C585 C588 1.431 . S
C585 C605 1.449 1_545 S
C586 C585 1.258 . S
C586 C587 1.477 . S
C586 H606 0.931 . S
C587 C583 1.460 . S
C587 C586 1.477 . S
C587 H607 0.930 . S
C588 N584 1.362 . S
C588 C585 1.431 . S
C588 C598 1.476 . S
H589 C583 0.929 . S
C590 O581 1.250 . S
C590 O582 1.258 . S
O591 Mn576 2.162 . S
O591 C579 1.281 . S
O592 Mn576 2.297 . S
O592 C579 1.236 . S
N593 Mn577 2.282 . S
N593 C594 1.328 . S
N593 C598 1.318 . S
C594 N593 1.328 . S
C594 C595 1.457 1_545 S
C594 H599 0.929 . S
C595 C594 1.457 1_565 S
C595 C596 1.291 . S
C595 H608 0.931 . S
C596 C595 1.291 . S
C596 C597 1.373 . S
C596 H609 0.929 . S
C597 C596 1.373 . S
C597 C598 1.396 1_565 S
C597 C604 1.403 . S
C598 C588 1.476 . S
C598 N593 1.318 . S
C598 C597 1.396 1_545 S
H599 C594 0.929 . S
O600 Mn576 2.385 . S
O600 C578 1.234 . S
O601 Mn576 2.209 . S
O601 Mn577 2.215 . S
O601 C578 1.283 . S
O602 Mn576 2.094 . S
O602 C580 1.240 . S
O603 Mn577 2.117 . S
O603 C580 1.264 . S
C604 C597 1.403 . S
C604 C605 1.399 . S
C604 H610 0.929 . S
C605 C585 1.449 1_565 S
C605 C604 1.399 . S
C605 H611 0.930 . S
H606 C586 0.931 . S
H607 C587 0.930 . S
H608 C595 0.931 . S
H609 C596 0.929 . S
H610 C604 0.929 . S
H611 C605 0.930 . S
Mn612 O617 2.095 . S
Mn612 O627 2.162 . S
Mn612 O628 2.297 . S
Mn612 O636 2.385 . S
Mn612 O637 2.209 . S
Mn612 O638 2.094 . S
Mn613 O618 2.121 . S
Mn613 N620 2.257 . S
Mn613 N629 2.282 . S
Mn613 O637 2.215 . S
Mn613 O639 2.117 . S
C614 O636 1.234 . S
C614 O637 1.283 . S
C615 O627 1.281 . S
C615 O628 1.236 . S
C616 O638 1.240 . S
C616 O639 1.264 . S
O617 Mn612 2.095 . S
O617 C626 1.250 . S
O618 Mn613 2.121 . S
O618 C626 1.258 . S
C619 N620 1.326 . S
C619 C623 1.460 . S
C619 H625 0.929 . S
N620 Mn613 2.257 . S
N620 C619 1.326 . S
N620 C624 1.362 . S
C621 C622 1.258 . S
C621 C624 1.431 . S
C621 C641 1.449 . S
C622 C621 1.258 . S
C622 C623 1.477 . S
C622 H642 0.931 . S
C623 C619 1.460 . S
C623 C622 1.477 . S
C623 H643 0.930 . S
C624 N620 1.362 . S
C624 C621 1.431 . S
C624 C634 1.476 . S
H625 C619 0.929 . S
C626 O617 1.250 . S
C626 O618 1.258 . S
O627 Mn612 2.162 . S
O627 C615 1.281 . S
O628 Mn612 2.297 . S
O628 C615 1.236 . S
N629 Mn613 2.282 . S
N629 C630 1.328 . S
N629 C634 1.318 . S
C630 N629 1.328 . S
C630 C631 1.457 . S
C630 H635 0.929 . S
C631 C630 1.457 . S
C631 C632 1.291 . S
C631 H644 0.931 . S
C632 C631 1.291 . S
C632 C633 1.373 . S
C632 H645 0.929 . S
C633 C632 1.373 . S
C633 C634 1.396 . S
C633 C640 1.403 . S
C634 C624 1.476 . S
C634 N629 1.318 . S
C634 C633 1.396 . S
H635 C630 0.929 . S
O636 Mn612 2.385 . S
O636 C614 1.234 . S
O637 Mn612 2.209 . S
O637 Mn613 2.215 . S
O637 C614 1.283 . S
O638 Mn612 2.094 . S
O638 C616 1.240 . S
O639 Mn613 2.117 . S
O639 C616 1.264 . S
C640 C633 1.403 . S
C640 C641 1.399 . S
C640 H646 0.929 . S
C641 C621 1.449 . S
C641 C640 1.399 . S
C641 H647 0.930 . S
H642 C622 0.931 . S
H643 C623 0.930 . S
H644 C631 0.931 . S
H645 C632 0.929 . S
H646 C640 0.929 . S
H647 C641 0.930 . S
Mn648 O653 2.095 . S
Mn648 O663 2.162 . S
Mn648 O664 2.297 . S
Mn648 O672 2.385 . S
Mn648 O673 2.209 . S
Mn648 O674 2.094 . S
Mn649 O654 2.121 . S
Mn649 N656 2.257 . S
Mn649 N665 2.282 . S
Mn649 O673 2.215 . S
Mn649 O675 2.117 . S
C650 O672 1.234 . S
C650 O673 1.283 . S
C651 O663 1.281 . S
C651 O664 1.236 . S
C652 O674 1.240 . S
C652 O675 1.264 . S
O653 Mn648 2.095 . S
O653 C662 1.250 . S
O654 Mn649 2.121 . S
O654 C662 1.258 . S
C655 N656 1.326 . S
C655 C659 1.460 . S
C655 H661 0.929 . S
N656 Mn649 2.257 . S
N656 C655 1.326 . S
N656 C660 1.362 . S
C657 C658 1.258 . S
C657 C660 1.431 . S
C657 C677 1.449 . S
C658 C657 1.258 . S
C658 C659 1.477 . S
C658 H678 0.931 . S
C659 C655 1.460 . S
C659 C658 1.477 . S
C659 H679 0.930 . S
C660 N656 1.362 . S
C660 C657 1.431 . S
C660 C670 1.476 . S
H661 C655 0.929 . S
C662 O653 1.250 . S
C662 O654 1.258 . S
O663 Mn648 2.162 . S
O663 C651 1.281 . S
O664 Mn648 2.297 . S
O664 C651 1.236 . S
N665 Mn649 2.282 . S
N665 C666 1.328 . S
N665 C670 1.318 . S
C666 N665 1.328 . S
C666 C667 1.457 . S
C666 H671 0.929 . S
C667 C666 1.457 . S
C667 C668 1.291 . S
C667 H680 0.931 . S
C668 C667 1.291 . S
C668 C669 1.373 . S
C668 H681 0.929 . S
C669 C668 1.373 . S
C669 C670 1.396 . S
C669 C676 1.403 . S
C670 C660 1.476 . S
C670 N665 1.318 . S
C670 C669 1.396 . S
H671 C666 0.929 . S
O672 Mn648 2.385 . S
O672 C650 1.234 . S
O673 Mn648 2.209 . S
O673 Mn649 2.215 . S
O673 C650 1.283 . S
O674 Mn648 2.094 . S
O674 C652 1.240 . S
O675 Mn649 2.117 . S
O675 C652 1.264 . S
C676 C669 1.403 . S
C676 C677 1.399 . S
C676 H682 0.929 . S
C677 C657 1.449 . S
C677 C676 1.399 . S
C677 H683 0.930 . S
H678 C658 0.931 . S
H679 C659 0.930 . S
H680 C667 0.931 . S
H681 C668 0.929 . S
H682 C676 0.929 . S
H683 C677 0.930 . S
Mn684 O689 2.095 1_545 S
Mn684 O699 2.162 . S
Mn684 O700 2.297 . S
Mn684 O708 2.385 . S
Mn684 O709 2.209 . S
Mn684 O710 2.094 . S
Mn685 O690 2.103 1_545 S
Mn685 N692 2.257 . S
Mn685 N701 2.282 . S
Mn685 O709 2.215 . S
Mn685 O711 2.117 . S
C686 O708 1.234 . S
C686 O709 1.283 . S
C687 O699 1.281 . S
C687 O700 1.236 . S
C688 O710 1.240 . S
C688 O711 1.264 . S
O689 Mn684 2.095 1_565 S
O689 C698 1.250 . S
O690 Mn685 2.103 1_565 S
O690 C698 1.267 . S
C691 N692 1.326 . S
C691 C695 1.460 . S
C691 H697 0.929 . S
N692 Mn685 2.257 . S
N692 C691 1.326 . S
N692 C696 1.362 . S
C693 C694 1.258 . S
C693 C696 1.431 . S
C693 C713 1.449 . S
C694 C693 1.258 . S
C694 C695 1.477 . S
C694 H714 0.931 . S
C695 C691 1.460 . S
C695 C694 1.477 . S
C695 H715 0.930 . S
C696 N692 1.362 . S
C696 C693 1.431 . S
C696 C706 1.476 . S
H697 C691 0.929 . S
C698 O689 1.250 . S
C698 O690 1.267 . S
O699 Mn684 2.162 . S
O699 C687 1.281 . S
O700 Mn684 2.297 . S
O700 C687 1.236 . S
N701 Mn685 2.282 . S
N701 C702 1.328 . S
N701 C706 1.318 . S
C702 N701 1.328 . S
C702 C703 1.457 . S
C702 H707 0.929 . S
C703 C702 1.457 . S
C703 C704 1.291 . S
C703 H716 0.931 . S
C704 C703 1.291 . S
C704 C705 1.373 . S
C704 H717 0.929 . S
C705 C704 1.373 . S
C705 C706 1.396 . S
C705 C712 1.403 . S
C706 C696 1.476 . S
C706 N701 1.318 . S
C706 C705 1.396 . S
H707 C702 0.929 . S
O708 Mn684 2.385 . S
O708 C686 1.234 . S
O709 Mn684 2.209 . S
O709 Mn685 2.215 . S
O709 C686 1.283 . S
O710 Mn684 2.094 . S
O710 C688 1.240 . S
O711 Mn685 2.117 . S
O711 C688 1.264 . S
C712 C705 1.403 . S
C712 C713 1.399 . S
C712 H718 0.929 . S
C713 C693 1.449 . S
C713 C712 1.399 . S
C713 H719 0.930 . S
H714 C694 0.931 . S
H715 C695 0.930 . S
H716 C703 0.931 . S
H717 C704 0.929 . S
H718 C712 0.929 . S
H719 C713 0.930 . S
Mn720 O725 2.095 . S
Mn720 O735 2.162 . S
Mn720 O736 2.297 . S
Mn720 O744 2.385 . S
Mn720 O745 2.209 1_554 S
Mn720 O746 2.094 1_554 S
Mn721 O726 2.121 . S
Mn721 N728 2.257 . S
Mn721 N737 2.282 . S
Mn721 O745 2.212 . S
Mn721 O747 2.117 . S
C722 O744 1.234 . S
C722 O745 1.284 1_554 S
C723 O735 1.281 . S
C723 O736 1.236 . S
C724 O746 1.240 . S
C724 O747 1.264 . S
O725 Mn720 2.095 . S
O725 C734 1.253 . S
O726 Mn721 2.121 . S
O726 C734 1.247 1_556 S
C727 N728 1.326 . S
C727 C731 1.460 . S
C727 H733 0.929 . S
N728 Mn721 2.257 . S
N728 C727 1.326 . S
N728 C732 1.362 . S
C729 C730 1.258 . S
C729 C732 1.431 . S
C729 C749 1.449 . S
C730 C729 1.258 . S
C730 C731 1.477 . S
C730 H750 0.931 . S
C731 C727 1.460 . S
C731 C730 1.477 . S
C731 H751 0.930 . S
C732 N728 1.362 . S
C732 C729 1.431 . S
C732 C742 1.476 . S
H733 C727 0.929 . S
C734 O725 1.253 . S
C734 O726 1.247 1_554 S
O735 Mn720 2.162 . S
O735 C723 1.281 . S
O736 Mn720 2.297 . S
O736 C723 1.236 . S
N737 Mn721 2.282 . S
N737 C738 1.328 . S
N737 C742 1.318 . S
C738 N737 1.328 . S
C738 C739 1.457 . S
C738 H743 0.929 . S
C739 C738 1.457 . S
C739 C740 1.291 . S
C739 H752 0.931 . S
C740 C739 1.291 . S
C740 C741 1.373 . S
C740 H753 0.929 . S
C741 C740 1.373 . S
C741 C742 1.396 . S
C741 C748 1.403 . S
C742 C732 1.476 . S
C742 N737 1.318 . S
C742 C741 1.396 . S
H743 C738 0.929 . S
O744 Mn720 2.385 . S
O744 C722 1.234 . S
O745 Mn720 2.209 1_556 S
O745 Mn721 2.212 . S
O745 C722 1.284 1_556 S
O746 Mn720 2.094 1_556 S
O746 C724 1.240 . S
O747 Mn721 2.117 . S
O747 C724 1.264 . S
C748 C741 1.403 . S
C748 C749 1.399 . S
C748 H754 0.929 . S
C749 C729 1.449 . S
C749 C748 1.399 . S
C749 H755 0.930 . S
H750 C730 0.931 . S
H751 C731 0.930 . S
H752 C739 0.931 . S
H753 C740 0.929 . S
H754 C748 0.929 . S
H755 C749 0.930 . S
Mn756 O761 2.095 . S
Mn756 O771 2.162 . S
Mn756 O772 2.297 . S
Mn756 O780 2.385 . S
Mn756 O781 2.209 . S
Mn756 O782 2.094 . S
Mn757 O762 2.121 . S
Mn757 N764 2.257 . S
Mn757 N773 2.282 . S
Mn757 O781 2.215 . S
Mn757 O783 2.117 . S
C758 O780 1.234 . S
C758 O781 1.283 . S
C759 O771 1.281 . S
C759 O772 1.236 . S
C760 O782 1.240 . S
C760 O783 1.264 . S
O761 Mn756 2.095 . S
O761 C770 1.250 . S
O762 Mn757 2.121 . S
O762 C770 1.258 . S
C763 N764 1.326 . S
C763 C767 1.460 . S
C763 H769 0.929 . S
N764 Mn757 2.257 . S
N764 C763 1.326 . S
N764 C768 1.362 . S
C765 C766 1.258 . S
C765 C768 1.431 . S
C765 C785 1.449 . S
C766 C765 1.258 . S
C766 C767 1.477 . S
C766 H786 0.931 . S
C767 C763 1.460 . S
C767 C766 1.477 . S
C767 H787 0.930 . S
C768 N764 1.362 . S
C768 C765 1.431 . S
C768 C778 1.476 . S
H769 C763 0.929 . S
C770 O761 1.250 . S
C770 O762 1.258 . S
O771 Mn756 2.162 . S
O771 C759 1.281 . S
O772 Mn756 2.297 . S
O772 C759 1.236 . S
N773 Mn757 2.282 . S
N773 C774 1.328 . S
N773 C778 1.318 . S
C774 N773 1.328 . S
C774 C775 1.457 . S
C774 H779 0.929 . S
C775 C774 1.457 . S
C775 C776 1.291 . S
C775 H788 0.931 . S
C776 C775 1.291 . S
C776 C777 1.373 . S
C776 H789 0.929 . S
C777 C776 1.373 . S
C777 C778 1.396 . S
C777 C784 1.403 . S
C778 C768 1.476 . S
C778 N773 1.318 . S
C778 C777 1.396 . S
H779 C774 0.929 . S
O780 Mn756 2.385 . S
O780 C758 1.234 . S
O781 Mn756 2.209 . S
O781 Mn757 2.215 . S
O781 C758 1.283 . S
O782 Mn756 2.094 . S
O782 C760 1.240 . S
O783 Mn757 2.117 . S
O783 C760 1.264 . S
C784 C777 1.403 . S
C784 C785 1.399 . S
C784 H790 0.929 . S
C785 C765 1.449 . S
C785 C784 1.399 . S
C785 H791 0.930 . S
H786 C766 0.931 . S
H787 C767 0.930 . S
H788 C775 0.931 . S
H789 C776 0.929 . S
H790 C784 0.929 . S
H791 C785 0.930 . S
Mn792 O797 2.095 . S
Mn792 O807 2.162 . S
Mn792 O808 2.297 . S
Mn792 O816 2.385 . S
Mn792 O817 2.209 . S
Mn792 O818 2.094 . S
Mn793 O798 2.121 . S
Mn793 N800 2.257 . S
Mn793 N809 2.282 . S
Mn793 O817 2.215 . S
Mn793 O819 2.117 . S
C794 O816 1.234 . S
C794 O817 1.283 . S
C795 O807 1.281 . S
C795 O808 1.236 . S
C796 O818 1.240 . S
C796 O819 1.264 . S
O797 Mn792 2.095 . S
O797 C806 1.250 . S
O798 Mn793 2.121 . S
O798 C806 1.258 . S
C799 N800 1.326 . S
C799 C803 1.460 . S
C799 H805 0.929 . S
N800 Mn793 2.257 . S
N800 C799 1.326 . S
N800 C804 1.362 . S
C801 C802 1.258 . S
C801 C804 1.431 . S
C801 C821 1.449 . S
C802 C801 1.258 . S
C802 C803 1.477 . S
C802 H822 0.931 . S
C803 C799 1.460 . S
C803 C802 1.477 . S
C803 H823 0.930 . S
C804 N800 1.362 . S
C804 C801 1.431 . S
C804 C814 1.476 . S
H805 C799 0.929 . S
C806 O797 1.250 . S
C806 O798 1.258 . S
O807 Mn792 2.162 . S
O807 C795 1.281 . S
O808 Mn792 2.297 . S
O808 C795 1.236 . S
N809 Mn793 2.282 . S
N809 C810 1.328 . S
N809 C814 1.318 . S
C810 N809 1.328 . S
C810 C811 1.457 . S
C810 H815 0.929 . S
C811 C810 1.457 . S
C811 C812 1.291 . S
C811 H824 0.931 . S
C812 C811 1.291 . S
C812 C813 1.373 . S
C812 H825 0.929 . S
C813 C812 1.373 . S
C813 C814 1.396 . S
C813 C820 1.403 . S
C814 C804 1.476 . S
C814 N809 1.318 . S
C814 C813 1.396 . S
H815 C810 0.929 . S
O816 Mn792 2.385 . S
O816 C794 1.234 . S
O817 Mn792 2.209 . S
O817 Mn793 2.215 . S
O817 C794 1.283 . S
O818 Mn792 2.094 . S
O818 C796 1.240 . S
O819 Mn793 2.117 . S
O819 C796 1.264 . S
C820 C813 1.403 . S
C820 C821 1.399 . S
C820 H826 0.929 . S
C821 C801 1.449 . S
C821 C820 1.399 . S
C821 H827 0.930 . S
H822 C802 0.931 . S
H823 C803 0.930 . S
H824 C811 0.931 . S
H825 C812 0.929 . S
H826 C820 0.929 . S
H827 C821 0.930 . S
Mn828 O833 2.095 . S
Mn828 O843 2.162 . S
Mn828 O844 2.297 . S
Mn828 O852 2.385 . S
Mn828 O853 2.209 . S
Mn828 O854 2.094 . S
Mn829 O834 2.121 . S
Mn829 N836 2.257 . S
Mn829 N845 2.282 . S
Mn829 O853 2.215 . S
Mn829 O855 2.117 . S
C830 O852 1.234 . S
C830 O853 1.283 . S
C831 O843 1.281 . S
C831 O844 1.236 . S
C832 O854 1.240 . S
C832 O855 1.264 . S
O833 Mn828 2.095 . S
O833 C842 1.250 . S
O834 Mn829 2.121 . S
O834 C842 1.258 . S
C835 N836 1.326 . S
C835 C839 1.460 . S
C835 H841 0.929 . S
N836 Mn829 2.257 . S
N836 C835 1.326 . S
N836 C840 1.362 . S
C837 C838 1.258 . S
C837 C840 1.431 . S
C837 C857 1.449 . S
C838 C837 1.258 . S
C838 C839 1.477 . S
C838 H858 0.931 . S
C839 C835 1.460 . S
C839 C838 1.477 . S
C839 H859 0.930 . S
C840 N836 1.362 . S
C840 C837 1.431 . S
C840 C850 1.476 . S
H841 C835 0.929 . S
C842 O833 1.250 . S
C842 O834 1.258 . S
O843 Mn828 2.162 . S
O843 C831 1.281 . S
O844 Mn828 2.297 . S
O844 C831 1.236 . S
N845 Mn829 2.282 . S
N845 C846 1.328 . S
N845 C850 1.318 . S
C846 N845 1.328 . S
C846 C847 1.457 . S
C846 H851 0.929 . S
C847 C846 1.457 . S
C847 C848 1.291 . S
C847 H860 0.931 . S
C848 C847 1.291 . S
C848 C849 1.373 . S
C848 H861 0.929 . S
C849 C848 1.373 . S
C849 C850 1.396 . S
C849 C856 1.403 . S
C850 C840 1.476 . S
C850 N845 1.318 . S
C850 C849 1.396 . S
H851 C846 0.929 . S
O852 Mn828 2.385 . S
O852 C830 1.234 . S
O853 Mn828 2.209 . S
O853 Mn829 2.215 . S
O853 C830 1.283 . S
O854 Mn828 2.094 . S
O854 C832 1.240 . S
O855 Mn829 2.117 . S
O855 C832 1.264 . S
C856 C849 1.403 . S
C856 C857 1.399 . S
C856 H862 0.929 . S
C857 C837 1.449 . S
C857 C856 1.399 . S
C857 H863 0.930 . S
H858 C838 0.931 . S
H859 C839 0.930 . S
H860 C847 0.931 . S
H861 C848 0.929 . S
H862 C856 0.929 . S
H863 C857 0.930 . S
Tb864 O867 2.453 . S
Tb864 O868 2.596 . S
Tb864 O869 2.374 1_554 S
Tb864 O877 2.343 1_455 S
Tb864 O879 2.353 . S
Tb864 O881 2.427 . S
Tb864 O882 2.513 1_554 S
C865 O869 1.251 . S
C865 O871 1.263 1_455 S
Tb866 O868 2.335 1_665 S
Tb866 O871 2.350 1_564 S
Tb866 O874 2.461 . S
Tb866 O875 2.538 . S
Tb866 O876 2.429 1_564 S
Tb866 O877 2.559 1_565 S
Tb866 O878 2.356 1_565 S
O867 Tb864 2.453 . S
O867 C883 1.245 . S
O868 Tb864 2.596 . S
O868 Tb866 2.335 1_445 S
O868 C883 1.259 . S
O869 Tb864 2.374 1_556 S
O869 C865 1.251 . S
C870 O874 1.275 1_455 S
C870 O875 1.246 1_455 S
O871 C865 1.263 1_655 S
O871 Tb866 2.350 1_546 S
C872 O876 1.242 1_554 S
C872 O877 1.263 . S
C873 O878 1.250 . S
C873 O879 1.263 1_655 S
O874 Tb866 2.461 . S
O874 C870 1.275 1_655 S
O875 Tb866 2.538 . S
O875 C870 1.246 1_655 S
O876 Tb866 2.429 1_546 S
O876 C872 1.242 1_556 S
O877 Tb864 2.343 1_655 S
O877 Tb866 2.559 1_545 S
O877 C872 1.263 . S
O878 Tb866 2.356 1_545 S
O878 C873 1.250 . S
O879 Tb864 2.353 . S
O879 C873 1.263 1_455 S
C880 O881 1.275 1_556 S
C880 O882 1.246 . S
O881 Tb864 2.427 . S
O881 C880 1.275 1_554 S
O882 Tb864 2.513 1_556 S
O882 C880 1.246 . S
C883 O867 1.245 . S
C883 O868 1.259 . S
Tb884 O887 2.453 . S
Tb884 O888 2.596 . S
Tb884 O889 2.374 . S
Tb884 O897 2.343 . S
Tb884 O899 2.353 . S
Tb884 O901 2.427 . S
Tb884 O902 2.513 . S
C885 O889 1.251 . S
C885 O891 1.263 . S
Tb886 O888 2.343 . S
Tb886 O891 2.353 . S
Tb886 O894 2.427 . S
Tb886 O895 2.513 . S
Tb886 O896 2.453 . S
Tb886 O897 2.596 . S
Tb886 O898 2.374 . S
O887 Tb884 2.453 . S
O887 C903 1.245 . S
O888 Tb884 2.596 . S
O888 Tb886 2.343 . S
O888 C903 1.259 . S
O889 Tb884 2.374 . S
O889 C885 1.251 . S
C890 O894 1.275 . S
C890 O895 1.246 . S
O891 C885 1.263 . S
O891 Tb886 2.353 . S
C892 O896 1.245 . S
C892 O897 1.259 . S
C893 O898 1.250 . S
C893 O899 1.263 . S
O894 Tb886 2.427 . S
O894 C890 1.275 . S
O895 Tb886 2.513 . S
O895 C890 1.246 . S
O896 Tb886 2.453 . S
O896 C892 1.245 . S
O897 Tb884 2.343 . S
O897 Tb886 2.596 . S
O897 C892 1.259 . S
O898 Tb886 2.374 . S
O898 C893 1.250 . S
O899 Tb884 2.353 . S
O899 C893 1.263 . S
C900 O901 1.275 . S
C900 O902 1.246 . S
O901 Tb884 2.427 . S
O901 C900 1.275 . S
O902 Tb884 2.513 . S
O902 C900 1.246 . S
C903 O887 1.245 . S
C903 O888 1.259 . S
Tb904 O907 2.453 . S
Tb904 O908 2.596 . S
Tb904 O909 2.374 . S
Tb904 O917 2.343 . S
Tb904 O919 2.353 . S
Tb904 O921 2.427 . S
Tb904 O922 2.513 . S
C905 O909 1.251 . S
C905 O911 1.263 . S
Tb906 O908 2.343 . S
Tb906 O911 2.353 . S
Tb906 O914 2.427 . S
Tb906 O915 2.513 . S
Tb906 O916 2.453 1_545 S
Tb906 O917 2.596 . S
Tb906 O918 2.374 . S
O907 Tb904 2.453 . S
O907 C923 1.245 . S
O908 Tb904 2.596 . S
O908 Tb906 2.343 . S
O908 C923 1.259 . S
O909 Tb904 2.374 . S
O909 C905 1.251 . S
C910 O914 1.275 . S
C910 O915 1.246 . S
O911 C905 1.263 . S
O911 Tb906 2.353 . S
C912 O916 1.243 1_545 S
C912 O917 1.276 . S
C913 O918 1.250 . S
C913 O919 1.263 . S
O914 Tb906 2.427 . S
O914 C910 1.275 . S
O915 Tb906 2.513 . S
O915 C910 1.246 . S
O916 Tb906 2.453 1_565 S
O916 C912 1.243 1_565 S
O917 Tb904 2.343 . S
O917 Tb906 2.596 . S
O917 C912 1.276 . S
O918 Tb906 2.374 . S
O918 C913 1.250 . S
O919 Tb904 2.353 . S
O919 C913 1.263 . S
C920 O921 1.275 . S
C920 O922 1.246 . S
O921 Tb904 2.427 . S
O921 C920 1.275 . S
O922 Tb904 2.513 . S
O922 C920 1.246 . S
C923 O907 1.245 . S
C923 O908 1.259 . S
Tb924 O927 2.453 . S
Tb924 O928 2.596 . S
Tb924 O929 2.374 . S
Tb924 O937 2.343 . S
Tb924 O939 2.353 . S
Tb924 O941 2.427 . S
Tb924 O942 2.513 . S
C925 O929 1.251 . S
C925 O931 1.263 . S
Tb926 O928 2.343 . S
Tb926 O931 2.353 . S
Tb926 O934 2.427 . S
Tb926 O935 2.513 . S
Tb926 O936 2.453 . S
Tb926 O937 2.596 . S
Tb926 O938 2.374 . S
O927 Tb924 2.453 . S
O927 C943 1.245 . S
O928 Tb924 2.596 . S
O928 Tb926 2.343 . S
O928 C943 1.259 . S
O929 Tb924 2.374 . S
O929 C925 1.251 . S
C930 O934 1.275 . S
C930 O935 1.246 . S
O931 C925 1.263 . S
O931 Tb926 2.353 . S
C932 O936 1.245 . S
C932 O937 1.259 . S
C933 O938 1.250 . S
C933 O939 1.263 . S
O934 Tb926 2.427 . S
O934 C930 1.275 . S
O935 Tb926 2.513 . S
O935 C930 1.246 . S
O936 Tb926 2.453 . S
O936 C932 1.245 . S
O937 Tb924 2.343 . S
O937 Tb926 2.596 . S
O937 C932 1.259 . S
O938 Tb926 2.374 . S
O938 C933 1.250 . S
O939 Tb924 2.353 . S
O939 C933 1.263 . S
C940 O941 1.275 . S
C940 O942 1.246 . S
O941 Tb924 2.427 . S
O941 C940 1.275 . S
O942 Tb924 2.513 . S
O942 C940 1.246 . S
C943 O927 1.245 . S
C943 O928 1.259 . S
Tb944 O947 2.453 1_545 S
Tb944 O948 2.596 . S
Tb944 O949 2.374 1_455 S
Tb944 O957 2.343 . S
Tb944 O959 2.353 . S
Tb944 O961 2.427 . S
Tb944 O962 2.513 1_455 S
C945 O949 1.251 . S
C945 O951 1.263 . S
Tb946 O948 2.343 . S
Tb946 O951 2.353 1_455 S
Tb946 O954 2.427 . S
Tb946 O955 2.513 . S
Tb946 O956 2.472 . S
Tb946 O957 2.596 . S
Tb946 O958 2.374 . S
O947 Tb944 2.453 1_565 S
O947 C963 1.245 . S
O948 Tb944 2.596 . S
O948 Tb946 2.343 . S
O948 C963 1.259 1_545 S
O949 Tb944 2.374 1_655 S
O949 C945 1.251 . S
C950 O954 1.275 . S
C950 O955 1.246 . S
O951 C945 1.263 . S
O951 Tb946 2.353 1_655 S
C952 O956 1.261 . S
C952 O957 1.259 . S
C953 O958 1.250 . S
C953 O959 1.263 . S
O954 Tb946 2.427 . S
O954 C950 1.275 . S
O955 Tb946 2.513 . S
O955 C950 1.246 . S
O956 Tb946 2.472 . S
O956 C952 1.261 . S
O957 Tb944 2.343 . S
O957 Tb946 2.596 . S
O957 C952 1.259 . S
O958 Tb946 2.374 . S
O958 C953 1.250 . S
O959 Tb944 2.353 . S
O959 C953 1.263 . S
C960 O961 1.275 1_655 S
C960 O962 1.246 . S
O961 Tb944 2.427 . S
O961 C960 1.275 1_455 S
O962 Tb944 2.513 1_655 S
O962 C960 1.246 . S
C963 O947 1.245 . S
C963 O948 1.259 1_565 S
Tb964 O967 2.453 . S
Tb964 O968 2.596 . S
Tb964 O969 2.374 . S
Tb964 O977 2.343 . S
Tb964 O979 2.353 . S
Tb964 O981 2.427 . S
Tb964 O982 2.513 . S
C965 O969 1.251 . S
C965 O971 1.263 . S
Tb966 O968 2.343 . S
Tb966 O971 2.353 . S
Tb966 O974 2.427 . S
Tb966 O975 2.513 . S
Tb966 O976 2.453 . S
Tb966 O977 2.596 . S
Tb966 O978 2.374 . S
O967 Tb964 2.453 . S
O967 C983 1.245 . S
O968 Tb964 2.596 . S
O968 Tb966 2.343 . S
O968 C983 1.259 . S
O969 Tb964 2.374 . S
O969 C965 1.251 . S
C970 O974 1.275 . S
C970 O975 1.246 . S
O971 C965 1.263 . S
O971 Tb966 2.353 . S
C972 O976 1.245 . S
C972 O977 1.259 . S
C973 O978 1.250 . S
C973 O979 1.263 . S
O974 Tb966 2.427 . S
O974 C970 1.275 . S
O975 Tb966 2.513 . S
O975 C970 1.246 . S
O976 Tb966 2.453 . S
O976 C972 1.245 . S
O977 Tb964 2.343 . S
O977 Tb966 2.596 . S
O977 C972 1.259 . S
O978 Tb966 2.374 . S
O978 C973 1.250 . S
O979 Tb964 2.353 . S
O979 C973 1.263 . S
C980 O981 1.275 . S
C980 O982 1.246 . S
O981 Tb964 2.427 . S
O981 C980 1.275 . S
O982 Tb964 2.513 . S
O982 C980 1.246 . S
C983 O967 1.245 . S
C983 O968 1.259 . S
Tb984 O987 2.453 . S
Tb984 O988 2.596 . S
Tb984 O989 2.374 . S
Tb984 O997 2.343 1_556 S
Tb984 O999 2.353 1_556 S
Tb984 O1001 2.427 1_556 S
Tb984 O1002 2.513 1_556 S
C985 O989 1.251 1_564 S
C985 O991 1.263 1_565 S
Tb986 O988 2.343 1_554 S
Tb986 O991 2.353 . S
Tb986 O994 2.427 . S
Tb986 O995 2.513 . S
Tb986 O996 2.453 . S
Tb986 O997 2.596 . S
Tb986 O998 2.374 . S
O987 Tb984 2.453 . S
O987 C1003 1.245 . S
O988 Tb984 2.596 . S
O988 Tb986 2.343 1_556 S
O988 C1003 1.259 . S
O989 Tb984 2.374 . S
O989 C985 1.251 1_546 S
C990 O994 1.275 . S
C990 O995 1.246 . S
O991 C985 1.263 1_545 S
O991 Tb986 2.353 . S
C992 O996 1.245 . S
C992 O997 1.259 . S
C993 O998 1.250 . S
C993 O999 1.263 . S
O994 Tb986 2.427 . S
O994 C990 1.275 . S
O995 Tb986 2.513 . S
O995 C990 1.246 . S
O996 Tb986 2.453 . S
O996 C992 1.245 . S
O997 Tb984 2.343 1_554 S
O997 Tb986 2.596 . S
O997 C992 1.259 . S
O998 Tb986 2.374 . S
O998 C993 1.250 . S
O999 Tb984 2.353 1_554 S
O999 C993 1.263 . S
C1000 O1001 1.275 . S
C1000 O1002 1.246 . S
O1001 Tb984 2.427 1_554 S
O1001 C1000 1.275 . S
O1002 Tb984 2.513 1_554 S
O1002 C1000 1.246 . S
C1003 O987 1.245 . S
C1003 O988 1.259 . S
Tb1004 O1007 2.453 . S
Tb1004 O1008 2.596 . S
Tb1004 O1009 2.374 . S
Tb1004 O1017 2.343 . S
Tb1004 O1019 2.353 . S
Tb1004 O1021 2.427 . S
Tb1004 O1022 2.513 . S
C1005 O1009 1.251 . S
C1005 O1011 1.263 . S
Tb1006 O1008 2.343 . S
Tb1006 O1011 2.353 . S
Tb1006 O1014 2.427 . S
Tb1006 O1015 2.513 . S
Tb1006 O1016 2.453 . S
Tb1006 O1017 2.596 . S
Tb1006 O1018 2.374 . S
O1007 Tb1004 2.453 . S
O1007 C1023 1.245 . S
O1008 Tb1004 2.596 . S
O1008 Tb1006 2.343 . S
O1008 C1023 1.259 . S
O1009 Tb1004 2.374 . S
O1009 C1005 1.251 . S
C1010 O1014 1.275 . S
C1010 O1015 1.246 . S
O1011 C1005 1.263 . S
O1011 Tb1006 2.353 . S
C1012 O1016 1.245 . S
C1012 O1017 1.259 . S
C1013 O1018 1.250 . S
C1013 O1019 1.263 . S
O1014 Tb1006 2.427 . S
O1014 C1010 1.275 . S
O1015 Tb1006 2.513 . S
O1015 C1010 1.246 . S
O1016 Tb1006 2.453 . S
O1016 C1012 1.245 . S
O1017 Tb1004 2.343 . S
O1017 Tb1006 2.596 . S
O1017 C1012 1.259 . S
O1018 Tb1006 2.374 . S
O1018 C1013 1.250 . S
O1019 Tb1004 2.353 . S
O1019 C1013 1.263 . S
C1020 O1021 1.275 . S
C1020 O1022 1.246 . S
O1021 Tb1004 2.427 . S
O1021 C1020 1.275 . S
O1022 Tb1004 2.513 . S
O1022 C1020 1.246 . S
C1023 O1007 1.245 . S
C1023 O1008 1.259 . S
Tb1024 O1027 2.453 1_556 S
Tb1024 O1028 2.596 1_556 S
Tb1024 O1029 2.374 1_556 S
Tb1024 O1037 2.343 1_556 S
Tb1024 O1039 2.353 . S
Tb1024 O1041 2.427 . S
Tb1024 O1042 2.513 . S
C1025 O1029 1.251 . S
C1025 O1031 1.263 . S
Tb1026 O1028 2.343 . S
Tb1026 O1031 2.353 . S
Tb1026 O1034 2.427 . S
Tb1026 O1035 2.513 . S
Tb1026 O1036 2.453 . S
Tb1026 O1037 2.596 . S
Tb1026 O1038 2.374 . S
O1027 Tb1024 2.453 1_554 S
O1027 C1043 1.245 . S
O1028 Tb1024 2.596 1_554 S
O1028 Tb1026 2.343 . S
O1028 C1043 1.259 . S
O1029 Tb1024 2.374 1_554 S
O1029 C1025 1.251 . S
C1030 O1034 1.275 . S
C1030 O1035 1.246 . S
O1031 C1025 1.263 . S
O1031 Tb1026 2.353 . S
C1032 O1036 1.245 . S
C1032 O1037 1.259 . S
C1033 O1038 1.250 . S
C1033 O1039 1.263 1_554 S
O1034 Tb1026 2.427 . S
O1034 C1030 1.275 . S
O1035 Tb1026 2.513 . S
O1035 C1030 1.246 . S
O1036 Tb1026 2.453 . S
O1036 C1032 1.245 . S
O1037 Tb1024 2.343 1_554 S
O1037 Tb1026 2.596 . S
O1037 C1032 1.259 . S
O1038 Tb1026 2.374 . S
O1038 C1033 1.250 . S
O1039 Tb1024 2.353 . S
O1039 C1033 1.263 1_556 S
C1040 O1041 1.275 . S
C1040 O1042 1.246 . S
O1041 Tb1024 2.427 . S
O1041 C1040 1.275 . S
O1042 Tb1024 2.513 . S
O1042 C1040 1.246 . S
C1043 O1027 1.245 . S
C1043 O1028 1.259 . S
Tb1044 O1047 2.453 . S
Tb1044 O1048 2.596 . S
Tb1044 O1049 2.374 . S
Tb1044 O1057 2.343 . S
Tb1044 O1059 2.353 . S
Tb1044 O1061 2.427 . S
Tb1044 O1062 2.513 . S
C1045 O1049 1.251 . S
C1045 O1051 1.263 . S
Tb1046 O1048 2.343 . S
Tb1046 O1051 2.353 . S
Tb1046 O1054 2.427 . S
Tb1046 O1055 2.513 . S
Tb1046 O1056 2.453 . S
Tb1046 O1057 2.596 . S
Tb1046 O1058 2.374 . S
O1047 Tb1044 2.453 . S
O1047 C1063 1.245 . S
O1048 Tb1044 2.596 . S
O1048 Tb1046 2.343 . S
O1048 C1063 1.259 . S
O1049 Tb1044 2.374 . S
O1049 C1045 1.251 . S
C1050 O1054 1.275 . S
C1050 O1055 1.246 . S
O1051 C1045 1.263 . S
O1051 Tb1046 2.353 . S
C1052 O1056 1.245 . S
C1052 O1057 1.259 . S
C1053 O1058 1.250 . S
C1053 O1059 1.263 . S
O1054 Tb1046 2.427 . S
O1054 C1050 1.275 . S
O1055 Tb1046 2.513 . S
O1055 C1050 1.246 . S
O1056 Tb1046 2.453 . S
O1056 C1052 1.245 . S
O1057 Tb1044 2.343 . S
O1057 Tb1046 2.596 . S
O1057 C1052 1.259 . S
O1058 Tb1046 2.374 . S
O1058 C1053 1.250 . S
O1059 Tb1044 2.353 . S
O1059 C1053 1.263 . S
C1060 O1061 1.275 . S
C1060 O1062 1.246 . S
O1061 Tb1044 2.427 . S
O1061 C1060 1.275 . S
O1062 Tb1044 2.513 . S
O1062 C1060 1.246 . S
C1063 O1047 1.245 . S
C1063 O1048 1.259 . S
Tb1064 O1067 2.453 1_655 S
Tb1064 O1068 2.596 1_655 S
Tb1064 O1069 2.374 . S
Tb1064 O1077 2.343 . S
Tb1064 O1079 2.353 . S
Tb1064 O1081 2.427 . S
Tb1064 O1082 2.513 . S
C1065 O1069 1.251 1_455 S
C1065 O1071 1.263 . S
Tb1066 O1068 2.343 . S
Tb1066 O1071 2.353 . S
Tb1066 O1074 2.427 . S
Tb1066 O1075 2.513 . S
Tb1066 O1076 2.453 . S
Tb1066 O1077 2.596 1_455 S
Tb1066 O1078 2.374 . S
O1067 Tb1064 2.453 1_455 S
O1067 C1083 1.245 . S
O1068 Tb1064 2.596 1_455 S
O1068 Tb1066 2.343 . S
O1068 C1083 1.259 . S
O1069 Tb1064 2.374 . S
O1069 C1065 1.251 1_655 S
C1070 O1074 1.275 . S
C1070 O1075 1.246 . S
O1071 C1065 1.263 . S
O1071 Tb1066 2.353 . S
C1072 O1076 1.247 1_655 S
C1072 O1077 1.259 . S
C1073 O1078 1.250 . S
C1073 O1079 1.263 1_455 S
O1074 Tb1066 2.427 . S
O1074 C1070 1.275 . S
O1075 Tb1066 2.513 . S
O1075 C1070 1.246 . S
O1076 Tb1066 2.453 . S
O1076 C1072 1.247 1_455 S
O1077 Tb1064 2.343 . S
O1077 Tb1066 2.596 1_655 S
O1077 C1072 1.259 . S
O1078 Tb1066 2.374 . S
O1078 C1073 1.250 . S
O1079 Tb1064 2.353 . S
O1079 C1073 1.263 1_655 S
C1080 O1081 1.275 . S
C1080 O1082 1.246 . S
O1081 Tb1064 2.427 . S
O1081 C1080 1.275 . S
O1082 Tb1064 2.513 . S
O1082 C1080 1.246 . S
C1083 O1067 1.245 . S
C1083 O1068 1.259 . S
Tb1084 O1087 2.453 . S
Tb1084 O1088 2.596 . S
Tb1084 O1089 2.374 . S
Tb1084 O1097 2.343 . S
Tb1084 O1099 2.353 . S
Tb1084 O1101 2.427 . S
Tb1084 O1102 2.513 . S
C1085 O1089 1.251 . S
C1085 O1091 1.263 . S
Tb1086 O1088 2.343 . S
Tb1086 O1091 2.353 . S
Tb1086 O1094 2.427 . S
Tb1086 O1095 2.513 . S
Tb1086 O1096 2.453 . S
Tb1086 O1097 2.596 . S
Tb1086 O1098 2.374 . S
O1087 Tb1084 2.453 . S
O1087 C1103 1.245 . S
O1088 Tb1084 2.596 . S
O1088 Tb1086 2.343 . S
O1088 C1103 1.259 . S
O1089 Tb1084 2.374 . S
O1089 C1085 1.251 . S
C1090 O1094 1.275 . S
C1090 O1095 1.246 . S
O1091 C1085 1.263 . S
O1091 Tb1086 2.353 . S
C1092 O1096 1.245 . S
C1092 O1097 1.259 . S
C1093 O1098 1.250 . S
C1093 O1099 1.263 . S
O1094 Tb1086 2.427 . S
O1094 C1090 1.275 . S
O1095 Tb1086 2.513 . S
O1095 C1090 1.246 . S
O1096 Tb1086 2.453 . S
O1096 C1092 1.245 . S
O1097 Tb1084 2.343 . S
O1097 Tb1086 2.596 . S
O1097 C1092 1.259 . S
O1098 Tb1086 2.374 . S
O1098 C1093 1.250 . S
O1099 Tb1084 2.353 . S
O1099 C1093 1.263 . S
C1100 O1101 1.275 . S
C1100 O1102 1.246 . S
O1101 Tb1084 2.427 . S
O1101 C1100 1.275 . S
O1102 Tb1084 2.513 . S
O1102 C1100 1.246 . S
C1103 O1087 1.245 . S
C1103 O1088 1.259 . S
Tb1104 O1107 2.453 . S
Tb1104 O1108 2.596 . S
Tb1104 O1109 2.374 . S
Tb1104 O1117 2.343 . S
Tb1104 O1119 2.353 . S
Tb1104 O1121 2.427 . S
Tb1104 O1122 2.513 . S
C1105 O1109 1.251 . S
C1105 O1111 1.263 . S
Tb1106 O1108 2.343 . S
Tb1106 O1111 2.353 . S
Tb1106 O1114 2.427 . S
Tb1106 O1115 2.513 . S
Tb1106 O1116 2.453 . S
Tb1106 O1117 2.596 . S
Tb1106 O1118 2.374 . S
O1107 Tb1104 2.453 . S
O1107 C1123 1.245 . S
O1108 Tb1104 2.596 . S
O1108 Tb1106 2.343 . S
O1108 C1123 1.259 . S
O1109 Tb1104 2.374 . S
O1109 C1105 1.251 . S
C1110 O1114 1.275 . S
C1110 O1115 1.246 . S
O1111 C1105 1.263 . S
O1111 Tb1106 2.353 . S
C1112 O1116 1.245 . S
C1112 O1117 1.259 . S
C1113 O1118 1.250 . S
C1113 O1119 1.263 . S
O1114 Tb1106 2.427 . S
O1114 C1110 1.275 . S
O1115 Tb1106 2.513 . S
O1115 C1110 1.246 . S
O1116 Tb1106 2.453 . S
O1116 C1112 1.245 . S
O1117 Tb1104 2.343 . S
O1117 Tb1106 2.596 . S
O1117 C1112 1.259 . S
O1118 Tb1106 2.374 . S
O1118 C1113 1.250 . S
O1119 Tb1104 2.353 . S
O1119 C1113 1.263 . S
C1120 O1121 1.275 . S
C1120 O1122 1.246 . S
O1121 Tb1104 2.427 . S
O1121 C1120 1.275 . S
O1122 Tb1104 2.513 . S
O1122 C1120 1.246 . S
C1123 O1107 1.245 . S
C1123 O1108 1.259 . S
Tb1124 O1127 2.453 . S
Tb1124 O1128 2.596 . S
Tb1124 O1129 2.374 . S
Tb1124 O1137 2.343 . S
Tb1124 O1139 2.353 . S
Tb1124 O1141 2.427 . S
Tb1124 O1142 2.513 . S
C1125 O1129 1.251 . S
C1125 O1131 1.263 . S
Tb1126 O1128 2.343 . S
Tb1126 O1131 2.353 . S
Tb1126 O1134 2.427 . S
Tb1126 O1135 2.513 . S
Tb1126 O1136 2.453 . S
Tb1126 O1137 2.596 . S
Tb1126 O1138 2.374 . S
O1127 Tb1124 2.453 . S
O1127 C1143 1.245 . S
O1128 Tb1124 2.596 . S
O1128 Tb1126 2.343 . S
O1128 C1143 1.259 . S
O1129 Tb1124 2.374 . S
O1129 C1125 1.251 . S
C1130 O1134 1.275 . S
C1130 O1135 1.246 . S
O1131 C1125 1.263 . S
O1131 Tb1126 2.353 . S
C1132 O1136 1.245 . S
C1132 O1137 1.259 . S
C1133 O1138 1.250 . S
C1133 O1139 1.263 . S
O1134 Tb1126 2.427 . S
O1134 C1130 1.275 . S
O1135 Tb1126 2.513 . S
O1135 C1130 1.246 . S
O1136 Tb1126 2.453 . S
O1136 C1132 1.245 . S
O1137 Tb1124 2.343 . S
O1137 Tb1126 2.596 . S
O1137 C1132 1.259 . S
O1138 Tb1126 2.374 . S
O1138 C1133 1.250 . S
O1139 Tb1124 2.353 . S
O1139 C1133 1.263 . S
C1140 O1141 1.275 . S
C1140 O1142 1.246 . S
O1141 Tb1124 2.427 . S
O1141 C1140 1.275 . S
O1142 Tb1124 2.513 . S
O1142 C1140 1.246 . S
C1143 O1127 1.245 . S
C1143 O1128 1.259 . S
Tb1144 O1147 2.453 . S
Tb1144 O1148 2.596 . S
Tb1144 O1149 2.374 . S
Tb1144 O1157 2.343 . S
Tb1144 O1159 2.353 . S
Tb1144 O1161 2.427 . S
Tb1144 O1162 2.513 . S
C1145 O1149 1.251 . S
C1145 O1151 1.263 . S
Tb1146 O1148 2.343 . S
Tb1146 O1151 2.353 . S
Tb1146 O1154 2.427 . S
Tb1146 O1155 2.513 . S
Tb1146 O1156 2.453 . S
Tb1146 O1157 2.596 . S
Tb1146 O1158 2.374 . S
O1147 Tb1144 2.453 . S
O1147 C1163 1.245 . S
O1148 Tb1144 2.596 . S
O1148 Tb1146 2.343 . S
O1148 C1163 1.259 . S
O1149 Tb1144 2.374 . S
O1149 C1145 1.251 . S
C1150 O1154 1.275 . S
C1150 O1155 1.246 . S
O1151 C1145 1.263 . S
O1151 Tb1146 2.353 . S
C1152 O1156 1.245 . S
C1152 O1157 1.259 . S
C1153 O1158 1.250 . S
C1153 O1159 1.263 . S
O1154 Tb1146 2.427 . S
O1154 C1150 1.275 . S
O1155 Tb1146 2.513 . S
O1155 C1150 1.246 . S
O1156 Tb1146 2.453 . S
O1156 C1152 1.245 . S
O1157 Tb1144 2.343 . S
O1157 Tb1146 2.596 . S
O1157 C1152 1.259 . S
O1158 Tb1146 2.374 . S
O1158 C1153 1.250 . S
O1159 Tb1144 2.353 . S
O1159 C1153 1.263 . S
C1160 O1161 1.275 . S
C1160 O1162 1.246 . S
O1161 Tb1144 2.427 . S
O1161 C1160 1.275 . S
O1162 Tb1144 2.513 . S
O1162 C1160 1.246 . S
C1163 O1147 1.245 . S
C1163 O1148 1.259 . S
Tb1164 O1167 2.453 . S
Tb1164 O1168 2.596 . S
Tb1164 O1169 2.374 . S
Tb1164 O1177 2.343 . S
Tb1164 O1179 2.353 1_554 S
Tb1164 O1181 2.427 1_554 S
Tb1164 O1182 2.513 . S
C1165 O1169 1.251 . S
C1165 O1171 1.258 . S
Tb1166 O1168 2.343 1_655 S
Tb1166 O1171 2.356 1_655 S
Tb1166 O1174 2.427 . S
Tb1166 O1175 2.513 . S
Tb1166 O1176 2.453 . S
Tb1166 O1177 2.596 1_655 S
Tb1166 O1178 2.374 1_554 S
O1167 Tb1164 2.453 . S
O1167 C1183 1.245 . S
O1168 Tb1164 2.596 . S
O1168 Tb1166 2.343 1_455 S
O1168 C1183 1.259 . S
O1169 Tb1164 2.374 . S
O1169 C1165 1.251 . S
C1170 O1174 1.275 . S
C1170 O1175 1.246 . S
O1171 C1165 1.258 . S
O1171 Tb1166 2.356 1_455 S
C1172 O1176 1.259 1_455 S
C1172 O1177 1.265 . S
C1173 O1178 1.250 1_455 S
C1173 O1179 1.263 . S
O1174 Tb1166 2.427 . S
O1174 C1170 1.275 . S
O1175 Tb1166 2.513 . S
O1175 C1170 1.246 . S
O1176 Tb1166 2.453 . S
O1176 C1172 1.259 1_655 S
O1177 Tb1164 2.343 . S
O1177 Tb1166 2.596 1_455 S
O1177 C1172 1.265 . S
O1178 Tb1166 2.374 1_556 S
O1178 C1173 1.250 1_655 S
O1179 Tb1164 2.353 1_556 S
O1179 C1173 1.263 . S
C1180 O1181 1.250 1_554 S
C1180 O1182 1.281 . S
O1181 Tb1164 2.427 1_556 S
O1181 C1180 1.250 1_556 S
O1182 Tb1164 2.513 . S
O1182 C1180 1.281 . S
C1183 O1167 1.245 . S
C1183 O1168 1.259 . S
C1184 C1185 1.349 1_655 S
C1184 C1186 1.327 . S
C1184 H1209 0.950 . S
C1185 C1184 1.349 1_455 S
C1185 C1201 1.349 . S
C1186 C1184 1.327 . S
C1186 C1205 1.429 1_655 S
C1186 H1210 0.950 . S
C1187 C1204 1.574 . S
C1187 C1206 1.368 . S
C1187 H1211 0.949 . S
H1188 C1192 0.949 . S
C1189 C1190 1.349 1_554 S
C1189 C1191 1.327 1_554 S
C1189 H1212 0.950 . S
C1190 C1189 1.349 1_556 S
C1190 C1202 1.349 1_455 S
C1191 C1189 1.327 1_556 S
C1191 C1207 1.429 . S
C1191 H1213 0.950 . S
C1192 H1188 0.949 . S
C1192 C1200 1.574 . S
C1192 C1208 1.368 1_655 S
H1193 C1201 0.950 . S
H1194 C1199 0.950 . S
H1195 C1200 0.949 . S
H1196 C1202 0.950 . S
H1197 C1203 0.950 . S
H1198 C1204 0.949 . S
C1199 H1194 0.950 . S
C1199 C1201 1.327 . S
C1199 C1205 1.429 . S
C1200 C1192 1.574 . S
C1200 H1195 0.949 . S
C1200 C1206 1.368 1_655 S
C1201 C1185 1.349 . S
C1201 H1193 0.950 . S
C1201 C1199 1.327 . S
C1202 C1190 1.349 1_655 S
C1202 H1196 0.950 . S
C1202 C1203 1.327 . S
C1203 H1197 0.950 . S
C1203 C1202 1.327 . S
C1203 C1207 1.429 1_655 S
C1204 C1187 1.574 . S
C1204 H1198 0.949 . S
C1204 C1208 1.368 . S
C1205 C1186 1.429 1_455 S
C1205 C1199 1.429 . S
C1205 C1206 1.523 . S
C1206 C1187 1.368 . S
C1206 C1200 1.368 1_455 S
C1206 C1205 1.523 . S
C1207 C1191 1.429 . S
C1207 C1203 1.429 1_455 S
C1207 C1208 1.523 . S
C1208 C1192 1.368 1_455 S
C1208 C1204 1.368 . S
C1208 C1207 1.523 . S
H1209 C1184 0.950 . S
H1210 C1186 0.950 . S
H1211 C1187 0.949 . S
H1212 C1189 0.950 . S
H1213 C1191 0.950 . S
C1214 C1215 1.349 . S
C1214 C1216 1.327 . S
C1214 H1239 0.950 . S
C1215 C1214 1.349 . S
C1215 C1231 1.349 . S
C1216 C1214 1.327 . S
C1216 C1235 1.429 . S
C1216 H1240 0.950 . S
C1217 C1234 1.574 . S
C1217 C1236 1.368 . S
C1217 H1241 0.949 . S
H1218 C1222 0.949 . S
C1219 C1220 1.349 . S
C1219 C1221 1.327 . S
C1219 H1242 0.950 . S
C1220 C1219 1.349 . S
C1220 C1232 1.349 . S
C1221 C1219 1.327 . S
C1221 C1237 1.429 . S
C1221 H1243 0.950 . S
C1222 H1218 0.949 . S
C1222 C1230 1.574 . S
C1222 C1238 1.368 . S
H1223 C1231 0.950 . S
H1224 C1229 0.950 . S
H1225 C1230 0.949 . S
H1226 C1232 0.950 . S
H1227 C1233 0.950 . S
H1228 C1234 0.949 . S
C1229 H1224 0.950 . S
C1229 C1231 1.327 . S
C1229 C1235 1.429 . S
C1230 C1222 1.574 . S
C1230 H1225 0.949 . S
C1230 C1236 1.368 . S
C1231 C1215 1.349 . S
C1231 H1223 0.950 . S
C1231 C1229 1.327 . S
C1232 C1220 1.349 . S
C1232 H1226 0.950 . S
C1232 C1233 1.327 . S
C1233 H1227 0.950 . S
C1233 C1232 1.327 . S
C1233 C1237 1.429 . S
C1234 C1217 1.574 . S
C1234 H1228 0.949 . S
C1234 C1238 1.368 . S
C1235 C1216 1.429 . S
C1235 C1229 1.429 . S
C1235 C1236 1.523 . S
C1236 C1217 1.368 . S
C1236 C1230 1.368 . S
C1236 C1235 1.523 . S
C1237 C1221 1.429 . S
C1237 C1233 1.429 . S
C1237 C1238 1.523 . S
C1238 C1222 1.368 . S
C1238 C1234 1.368 . S
C1238 C1237 1.523 . S
H1239 C1214 0.950 . S
H1240 C1216 0.950 . S
H1241 C1217 0.949 . S
H1242 C1219 0.950 . S
H1243 C1221 0.950 . S
C1244 C1245 1.349 . S
C1244 C1246 1.327 . S
C1244 H1269 0.950 . S
C1245 C1244 1.349 . S
C1245 C1261 1.349 . S
C1246 C1244 1.327 . S
C1246 C1265 1.429 . S
C1246 H1270 0.950 . S
C1247 C1264 1.574 . S
C1247 C1266 1.368 . S
C1247 H1271 0.949 . S
H1248 C1252 0.949 . S
C1249 C1250 1.349 . S
C1249 C1251 1.327 . S
C1249 H1272 0.950 . S
C1250 C1249 1.349 . S
C1250 C1262 1.349 . S
C1251 C1249 1.327 . S
C1251 C1267 1.429 . S
C1251 H1273 0.950 . S
C1252 H1248 0.949 . S
C1252 C1260 1.574 . S
C1252 C1268 1.368 . S
H1253 C1261 0.950 . S
H1254 C1259 0.950 . S
H1255 C1260 0.949 . S
H1256 C1262 0.950 . S
H1257 C1263 0.950 . S
H1258 C1264 0.949 . S
C1259 H1254 0.950 . S
C1259 C1261 1.327 . S
C1259 C1265 1.429 . S
C1260 C1252 1.574 . S
C1260 H1255 0.949 . S
C1260 C1266 1.368 . S
C1261 C1245 1.349 . S
C1261 H1253 0.950 . S
C1261 C1259 1.327 . S
C1262 C1250 1.349 . S
C1262 H1256 0.950 . S
C1262 C1263 1.327 . S
C1263 H1257 0.950 . S
C1263 C1262 1.327 . S
C1263 C1267 1.429 . S
C1264 C1247 1.574 . S
C1264 H1258 0.949 . S
C1264 C1268 1.368 . S
C1265 C1246 1.429 . S
C1265 C1259 1.429 . S
C1265 C1266 1.523 . S
C1266 C1247 1.368 . S
C1266 C1260 1.368 . S
C1266 C1265 1.523 . S
C1267 C1251 1.429 . S
C1267 C1263 1.429 . S
C1267 C1268 1.523 . S
C1268 C1252 1.368 . S
C1268 C1264 1.368 . S
C1268 C1267 1.523 . S
H1269 C1244 0.950 . S
H1270 C1246 0.950 . S
H1271 C1247 0.949 . S
H1272 C1249 0.950 . S
H1273 C1251 0.950 . S
C1274 C1275 1.349 . S
C1274 C1276 1.327 . S
C1274 H1299 0.950 . S
C1275 C1274 1.349 . S
C1275 C1291 1.349 . S
C1276 C1274 1.327 . S
C1276 C1295 1.429 . S
C1276 H1300 0.950 . S
C1277 C1294 1.574 . S
C1277 C1296 1.368 . S
C1277 H1301 0.949 . S
H1278 C1282 0.949 . S
C1279 C1280 1.349 . S
C1279 C1281 1.327 . S
C1279 H1302 0.950 . S
C1280 C1279 1.349 . S
C1280 C1292 1.349 . S
C1281 C1279 1.327 . S
C1281 C1297 1.429 . S
C1281 H1303 0.950 . S
C1282 H1278 0.949 . S
C1282 C1290 1.574 . S
C1282 C1298 1.368 . S
H1283 C1291 0.950 . S
H1284 C1289 0.950 . S
H1285 C1290 0.949 . S
H1286 C1292 0.950 . S
H1287 C1293 0.950 . S
H1288 C1294 0.949 . S
C1289 H1284 0.950 . S
C1289 C1291 1.327 . S
C1289 C1295 1.429 . S
C1290 C1282 1.574 . S
C1290 H1285 0.949 . S
C1290 C1296 1.368 . S
C1291 C1275 1.349 . S
C1291 H1283 0.950 . S
C1291 C1289 1.327 . S
C1292 C1280 1.349 . S
C1292 H1286 0.950 . S
C1292 C1293 1.327 . S
C1293 H1287 0.950 . S
C1293 C1292 1.327 . S
C1293 C1297 1.429 . S
C1294 C1277 1.574 . S
C1294 H1288 0.949 . S
C1294 C1298 1.368 . S
C1295 C1276 1.429 . S
C1295 C1289 1.429 . S
C1295 C1296 1.523 . S
C1296 C1277 1.368 . S
C1296 C1290 1.368 . S
C1296 C1295 1.523 . S
C1297 C1281 1.429 . S
C1297 C1293 1.429 . S
C1297 C1298 1.523 . S
C1298 C1282 1.368 . S
C1298 C1294 1.368 . S
C1298 C1297 1.523 . S
H1299 C1274 0.950 . S
H1300 C1276 0.950 . S
H1301 C1277 0.949 . S
H1302 C1279 0.950 . S
H1303 C1281 0.950 . S
C1304 C1305 1.349 . S
C1304 C1306 1.327 . S
C1304 H1329 0.950 . S
C1305 C1304 1.349 . S
C1305 C1321 1.349 1_455 S
C1306 C1304 1.327 . S
C1306 C1325 1.429 . S
C1306 H1330 0.950 . S
C1307 C1324 1.574 . S
C1307 C1326 1.368 1_655 S
C1307 H1331 0.949 . S
H1308 C1312 0.949 . S
C1309 C1310 1.349 1_655 S
C1309 C1311 1.327 . S
C1309 H1332 0.950 . S
C1310 C1309 1.349 1_455 S
C1310 C1322 1.349 . S
C1311 C1309 1.327 . S
C1311 C1327 1.429 1_655 S
C1311 H1333 0.950 . S
C1312 H1308 0.949 . S
C1312 C1320 1.574 . S
C1312 C1328 1.368 . S
H1313 C1321 0.950 . S
H1314 C1319 0.950 . S
H1315 C1320 0.949 . S
H1316 C1322 0.950 . S
H1317 C1323 0.950 . S
H1318 C1324 0.949 . S
C1319 H1314 0.950 . S
C1319 C1321 1.327 . S
C1319 C1325 1.429 1_655 S
C1320 C1312 1.574 . S
C1320 H1315 0.949 . S
C1320 C1326 1.368 . S
C1321 C1305 1.349 1_655 S
C1321 H1313 0.950 . S
C1321 C1319 1.327 . S
C1322 C1310 1.349 . S
C1322 H1316 0.950 . S
C1322 C1323 1.327 . S
C1323 H1317 0.950 . S
C1323 C1322 1.327 . S
C1323 C1327 1.429 . S
C1324 C1307 1.574 . S
C1324 H1318 0.949 . S
C1324 C1328 1.368 1_655 S
C1325 C1306 1.429 . S
C1325 C1319 1.429 1_455 S
C1325 C1326 1.523 . S
C1326 C1307 1.368 1_455 S
C1326 C1320 1.368 . S
C1326 C1325 1.523 . S
C1327 C1311 1.429 1_455 S
C1327 C1323 1.429 . S
C1327 C1328 1.523 . S
C1328 C1312 1.368 . S
C1328 C1324 1.368 1_455 S
C1328 C1327 1.523 . S
H1329 C1304 0.950 . S
H1330 C1306 0.950 . S
H1331 C1307 0.949 . S
H1332 C1309 0.950 . S
H1333 C1311 0.950 . S
C1334 C1335 1.349 . S
C1334 C1336 1.327 . S
C1334 H1359 0.950 . S
C1335 C1334 1.349 . S
C1335 C1351 1.349 . S
C1336 C1334 1.327 . S
C1336 C1355 1.429 . S
C1336 H1360 0.950 . S
C1337 C1354 1.574 . S
C1337 C1356 1.368 . S
C1337 H1361 0.949 . S
H1338 C1342 0.949 . S
C1339 C1340 1.349 . S
C1339 C1341 1.327 . S
C1339 H1362 0.950 . S
C1340 C1339 1.349 . S
C1340 C1352 1.349 . S
C1341 C1339 1.327 . S
C1341 C1357 1.429 . S
C1341 H1363 0.950 . S
C1342 H1338 0.949 . S
C1342 C1350 1.574 . S
C1342 C1358 1.368 . S
H1343 C1351 0.950 . S
H1344 C1349 0.950 . S
H1345 C1350 0.949 . S
H1346 C1352 0.950 . S
H1347 C1353 0.950 . S
H1348 C1354 0.949 . S
C1349 H1344 0.950 . S
C1349 C1351 1.327 . S
C1349 C1355 1.429 . S
C1350 C1342 1.574 . S
C1350 H1345 0.949 . S
C1350 C1356 1.368 . S
C1351 C1335 1.349 . S
C1351 H1343 0.950 . S
C1351 C1349 1.327 . S
C1352 C1340 1.349 . S
C1352 H1346 0.950 . S
C1352 C1353 1.327 . S
C1353 H1347 0.950 . S
C1353 C1352 1.327 . S
C1353 C1357 1.429 . S
C1354 C1337 1.574 . S
C1354 H1348 0.949 . S
C1354 C1358 1.368 . S
C1355 C1336 1.429 . S
C1355 C1349 1.429 . S
C1355 C1356 1.523 . S
C1356 C1337 1.368 . S
C1356 C1350 1.368 . S
C1356 C1355 1.523 . S
C1357 C1341 1.429 . S
C1357 C1353 1.429 . S
C1357 C1358 1.523 . S
C1358 C1342 1.368 . S
C1358 C1354 1.368 . S
C1358 C1357 1.523 . S
H1359 C1334 0.950 . S
H1360 C1336 0.950 . S
H1361 C1337 0.949 . S
H1362 C1339 0.950 . S
H1363 C1341 0.950 . S
C1364 C1365 1.349 . S
C1364 C1366 1.327 . S
C1364 H1389 0.950 . S
C1365 C1364 1.349 . S
C1365 C1381 1.349 . S
C1366 C1364 1.327 . S
C1366 C1385 1.429 . S
C1366 H1390 0.950 . S
C1367 C1384 1.574 . S
C1367 C1386 1.368 . S
C1367 H1391 0.949 . S
H1368 C1372 0.949 . S
C1369 C1370 1.349 . S
C1369 C1371 1.327 . S
C1369 H1392 0.950 . S
C1370 C1369 1.349 . S
C1370 C1382 1.349 . S
C1371 C1369 1.327 . S
C1371 C1387 1.429 . S
C1371 H1393 0.950 . S
C1372 H1368 0.949 . S
C1372 C1380 1.574 . S
C1372 C1388 1.368 . S
H1373 C1381 0.950 . S
H1374 C1379 0.950 . S
H1375 C1380 0.949 . S
H1376 C1382 0.950 . S
H1377 C1383 0.950 . S
H1378 C1384 0.949 . S
C1379 H1374 0.950 . S
C1379 C1381 1.327 . S
C1379 C1385 1.429 . S
C1380 C1372 1.574 . S
C1380 H1375 0.949 . S
C1380 C1386 1.368 . S
C1381 C1365 1.349 . S
C1381 H1373 0.950 . S
C1381 C1379 1.327 . S
C1382 C1370 1.349 . S
C1382 H1376 0.950 . S
C1382 C1383 1.327 . S
C1383 H1377 0.950 . S
C1383 C1382 1.327 . S
C1383 C1387 1.429 . S
C1384 C1367 1.574 . S
C1384 H1378 0.949 . S
C1384 C1388 1.368 . S
C1385 C1366 1.429 . S
C1385 C1379 1.429 . S
C1385 C1386 1.523 . S
C1386 C1367 1.368 . S
C1386 C1380 1.368 . S
C1386 C1385 1.523 . S
C1387 C1371 1.429 . S
C1387 C1383 1.429 . S
C1387 C1388 1.523 . S
C1388 C1372 1.368 . S
C1388 C1384 1.368 . S
C1388 C1387 1.523 . S
H1389 C1364 0.950 . S
H1390 C1366 0.950 . S
H1391 C1367 0.949 . S
H1392 C1369 0.950 . S
H1393 C1371 0.950 . S
C1394 C1395 1.349 . S
C1394 C1396 1.327 . S
C1394 H1419 0.950 . S
C1395 C1394 1.349 . S
C1395 C1411 1.349 . S
C1396 C1394 1.327 . S
C1396 C1415 1.429 . S
C1396 H1420 0.950 . S
C1397 C1414 1.574 . S
C1397 C1416 1.368 . S
C1397 H1421 0.949 . S
H1398 C1402 0.949 . S
C1399 C1400 1.349 . S
C1399 C1401 1.327 . S
C1399 H1422 0.950 . S
C1400 C1399 1.349 . S
C1400 C1412 1.349 . S
C1401 C1399 1.327 . S
C1401 C1417 1.429 . S
C1401 H1423 0.950 . S
C1402 H1398 0.949 . S
C1402 C1410 1.574 . S
C1402 C1418 1.368 . S
H1403 C1411 0.950 . S
H1404 C1409 0.950 . S
H1405 C1410 0.949 . S
H1406 C1412 0.950 . S
H1407 C1413 0.950 . S
H1408 C1414 0.949 . S
C1409 H1404 0.950 . S
C1409 C1411 1.327 . S
C1409 C1415 1.429 . S
C1410 C1402 1.574 . S
C1410 H1405 0.949 . S
C1410 C1416 1.368 . S
C1411 C1395 1.349 . S
C1411 H1403 0.950 . S
C1411 C1409 1.327 . S
C1412 C1400 1.349 . S
C1412 H1406 0.950 . S
C1412 C1413 1.327 . S
C1413 H1407 0.950 . S
C1413 C1412 1.327 . S
C1413 C1417 1.429 . S
C1414 C1397 1.574 . S
C1414 H1408 0.949 . S
C1414 C1418 1.368 . S
C1415 C1396 1.429 . S
C1415 C1409 1.429 . S
C1415 C1416 1.523 . S
C1416 C1397 1.368 . S
C1416 C1410 1.368 . S
C1416 C1415 1.523 . S
C1417 C1401 1.429 . S
C1417 C1413 1.429 . S
C1417 C1418 1.523 . S
C1418 C1402 1.368 . S
C1418 C1414 1.368 . S
C1418 C1417 1.523 . S
H1419 C1394 0.950 . S
H1420 C1396 0.950 . S
H1421 C1397 0.949 . S
H1422 C1399 0.950 . S
H1423 C1401 0.950 . S
C1424 C1425 1.349 . S
C1424 C1426 1.327 . S
C1424 H1449 0.950 . S
C1425 C1424 1.349 . S
C1425 C1441 1.349 . S
C1426 C1424 1.327 . S
C1426 C1445 1.429 . S
C1426 H1450 0.950 . S
C1427 C1444 1.574 . S
C1427 C1446 1.368 . S
C1427 H1451 0.949 . S
H1428 C1432 0.949 . S
C1429 C1430 1.349 . S
C1429 C1431 1.327 . S
C1429 H1452 0.950 . S
C1430 C1429 1.349 . S
C1430 C1442 1.349 . S
C1431 C1429 1.327 . S
C1431 C1447 1.429 . S
C1431 H1453 0.950 . S
C1432 H1428 0.949 . S
C1432 C1440 1.574 . S
C1432 C1448 1.368 . S
H1433 C1441 0.950 . S
H1434 C1439 0.950 . S
H1435 C1440 0.949 . S
H1436 C1442 0.950 1_455 S
H1437 C1443 0.950 . S
H1438 C1444 0.949 . S
C1439 H1434 0.950 . S
C1439 C1441 1.327 . S
C1439 C1445 1.429 . S
C1440 C1432 1.574 . S
C1440 H1435 0.949 . S
C1440 C1446 1.368 . S
C1441 C1425 1.349 . S
C1441 H1433 0.950 . S
C1441 C1439 1.327 . S
C1442 C1430 1.349 . S
C1442 H1436 0.950 1_655 S
C1442 C1443 1.327 . S
C1443 H1437 0.950 . S
C1443 C1442 1.327 . S
C1443 C1447 1.429 . S
C1444 C1427 1.574 . S
C1444 H1438 0.949 . S
C1444 C1448 1.368 . S
C1445 C1426 1.429 . S
C1445 C1439 1.429 . S
C1445 C1446 1.523 . S
C1446 C1427 1.368 . S
C1446 C1440 1.368 . S
C1446 C1445 1.523 . S
C1447 C1431 1.429 . S
C1447 C1443 1.429 . S
C1447 C1448 1.523 . S
C1448 C1432 1.368 . S
C1448 C1444 1.368 . S
C1448 C1447 1.523 . S
H1449 C1424 0.950 . S
H1450 C1426 0.950 . S
H1451 C1427 0.949 . S
H1452 C1429 0.950 . S
H1453 C1431 0.950 . S
C1454 C1455 1.349 . S
C1454 C1456 1.327 . S
C1454 H1479 0.950 . S
C1455 C1454 1.349 . S
C1455 C1471 1.349 . S
C1456 C1454 1.327 . S
C1456 C1475 1.429 . S
C1456 H1480 0.950 . S
C1457 C1474 1.574 . S
C1457 C1476 1.368 . S
C1457 H1481 0.949 . S
H1458 C1462 0.949 . S
C1459 C1460 1.349 . S
C1459 C1461 1.327 . S
C1459 H1482 0.950 . S
C1460 C1459 1.349 . S
C1460 C1472 1.349 . S
C1461 C1459 1.327 . S
C1461 C1477 1.429 . S
C1461 H1483 0.950 . S
C1462 H1458 0.949 . S
C1462 C1470 1.574 . S
C1462 C1478 1.368 . S
H1463 C1471 0.950 . S
H1464 C1469 0.950 . S
H1465 C1470 0.949 . S
H1466 C1472 0.950 . S
H1467 C1473 0.950 . S
H1468 C1474 0.949 . S
C1469 H1464 0.950 . S
C1469 C1471 1.327 . S
C1469 C1475 1.429 . S
C1470 C1462 1.574 . S
C1470 H1465 0.949 . S
C1470 C1476 1.368 . S
C1471 C1455 1.349 . S
C1471 H1463 0.950 . S
C1471 C1469 1.327 . S
C1472 C1460 1.349 . S
C1472 H1466 0.950 . S
C1472 C1473 1.327 . S
C1473 H1467 0.950 . S
C1473 C1472 1.327 . S
C1473 C1477 1.429 . S
C1474 C1457 1.574 . S
C1474 H1468 0.949 . S
C1474 C1478 1.368 . S
C1475 C1456 1.429 . S
C1475 C1469 1.429 . S
C1475 C1476 1.523 . S
C1476 C1457 1.368 . S
C1476 C1470 1.368 . S
C1476 C1475 1.523 . S
C1477 C1461 1.429 . S
C1477 C1473 1.429 . S
C1477 C1478 1.523 . S
C1478 C1462 1.368 . S
C1478 C1474 1.368 . S
C1478 C1477 1.523 . S
H1479 C1454 0.950 . S
H1480 C1456 0.950 . S
H1481 C1457 0.949 . S
H1482 C1459 0.950 . S
H1483 C1461 0.950 . S
C1484 C1485 1.349 . S
C1484 C1486 1.327 . S
C1484 H1509 0.950 . S
C1485 C1484 1.349 . S
C1485 C1501 1.349 . S
C1486 C1484 1.327 . S
C1486 C1505 1.429 . S
C1486 H1510 0.950 . S
C1487 C1504 1.574 . S
C1487 C1506 1.368 . S
C1487 H1511 0.949 . S
H1488 C1492 0.949 . S
C1489 C1490 1.349 . S
C1489 C1491 1.327 . S
C1489 H1512 0.950 . S
C1490 C1489 1.349 . S
C1490 C1502 1.349 . S
C1491 C1489 1.327 . S
C1491 C1507 1.429 . S
C1491 H1513 0.950 . S
C1492 H1488 0.949 . S
C1492 C1500 1.574 . S
C1492 C1508 1.368 . S
H1493 C1501 0.950 1_565 S
H1494 C1499 0.950 1_565 S
H1495 C1500 0.949 . S
H1496 C1502 0.950 . S
H1497 C1503 0.950 . S
H1498 C1504 0.949 . S
C1499 H1494 0.950 1_545 S
C1499 C1501 1.327 . S
C1499 C1505 1.429 . S
C1500 C1492 1.574 . S
C1500 H1495 0.949 . S
C1500 C1506 1.368 . S
C1501 C1485 1.349 . S
C1501 H1493 0.950 1_545 S
C1501 C1499 1.327 . S
C1502 C1490 1.349 . S
C1502 H1496 0.950 . S
C1502 C1503 1.327 . S
C1503 H1497 0.950 . S
C1503 C1502 1.327 . S
C1503 C1507 1.429 . S
C1504 C1487 1.574 . S
C1504 H1498 0.949 . S
C1504 C1508 1.368 . S
C1505 C1486 1.429 . S
C1505 C1499 1.429 . S
C1505 C1506 1.523 . S
C1506 C1487 1.368 . S
C1506 C1500 1.368 . S
C1506 C1505 1.523 . S
C1507 C1491 1.429 . S
C1507 C1503 1.429 . S
C1507 C1508 1.523 . S
C1508 C1492 1.368 . S
C1508 C1504 1.368 . S
C1508 C1507 1.523 . S
H1509 C1484 0.950 . S
H1510 C1486 0.950 . S
H1511 C1487 0.949 . S
H1512 C1489 0.950 . S
H1513 C1491 0.950 . S
C1514 C1515 1.349 . S
C1514 C1516 1.327 . S
C1514 H1539 0.950 . S
C1515 C1514 1.349 . S
C1515 C1531 1.349 . S
C1516 C1514 1.327 . S
C1516 C1535 1.429 . S
C1516 H1540 0.950 . S
C1517 C1534 1.574 . S
C1517 C1536 1.368 . S
C1517 H1541 0.949 . S
H1518 C1522 0.949 . S
C1519 C1520 1.349 . S
C1519 C1521 1.327 . S
C1519 H1542 0.950 . S
C1520 C1519 1.349 . S
C1520 C1532 1.349 . S
C1521 C1519 1.327 . S
C1521 C1537 1.429 . S
C1521 H1543 0.950 . S
C1522 H1518 0.949 . S
C1522 C1530 1.574 . S
C1522 C1538 1.368 . S
H1523 C1531 0.950 . S
H1524 C1529 0.950 . S
H1525 C1530 0.949 . S
H1526 C1532 0.950 . S
H1527 C1533 0.950 . S
H1528 C1534 0.949 . S
C1529 H1524 0.950 . S
C1529 C1531 1.327 . S
C1529 C1535 1.429 . S
C1530 C1522 1.574 . S
C1530 H1525 0.949 . S
C1530 C1536 1.368 . S
C1531 C1515 1.349 . S
C1531 H1523 0.950 . S
C1531 C1529 1.327 . S
C1532 C1520 1.349 . S
C1532 H1526 0.950 . S
C1532 C1533 1.327 . S
C1533 H1527 0.950 . S
C1533 C1532 1.327 . S
C1533 C1537 1.429 . S
C1534 C1517 1.574 . S
C1534 H1528 0.949 . S
C1534 C1538 1.368 . S
C1535 C1516 1.429 . S
C1535 C1529 1.429 . S
C1535 C1536 1.523 . S
C1536 C1517 1.368 . S
C1536 C1530 1.368 . S
C1536 C1535 1.523 . S
C1537 C1521 1.429 . S
C1537 C1533 1.429 . S
C1537 C1538 1.523 . S
C1538 C1522 1.368 . S
C1538 C1534 1.368 . S
C1538 C1537 1.523 . S
H1539 C1514 0.950 . S
H1540 C1516 0.950 . S
H1541 C1517 0.949 . S
H1542 C1519 0.950 . S
H1543 C1521 0.950 . S
C1544 C1545 1.349 . S
C1544 C1546 1.327 . S
C1544 H1569 0.950 . S
C1545 C1544 1.349 . S
C1545 C1561 1.349 . S
C1546 C1544 1.327 . S
C1546 C1565 1.429 . S
C1546 H1570 0.950 . S
C1547 C1564 1.574 . S
C1547 C1566 1.368 . S
C1547 H1571 0.949 . S
H1548 C1552 0.949 . S
C1549 C1550 1.349 . S
C1549 C1551 1.327 . S
C1549 H1572 0.950 . S
C1550 C1549 1.349 . S
C1550 C1562 1.349 . S
C1551 C1549 1.327 . S
C1551 C1567 1.429 . S
C1551 H1573 0.950 . S
C1552 H1548 0.949 . S
C1552 C1560 1.574 . S
C1552 C1568 1.368 . S
H1553 C1561 0.950 . S
H1554 C1559 0.950 . S
H1555 C1560 0.949 . S
H1556 C1562 0.950 . S
H1557 C1563 0.950 . S
H1558 C1564 0.949 . S
C1559 H1554 0.950 . S
C1559 C1561 1.327 . S
C1559 C1565 1.429 . S
C1560 C1552 1.574 . S
C1560 H1555 0.949 . S
C1560 C1566 1.368 . S
C1561 C1545 1.349 . S
C1561 H1553 0.950 . S
C1561 C1559 1.327 . S
C1562 C1550 1.349 . S
C1562 H1556 0.950 . S
C1562 C1563 1.327 . S
C1563 H1557 0.950 . S
C1563 C1562 1.327 . S
C1563 C1567 1.429 . S
C1564 C1547 1.574 . S
C1564 H1558 0.949 . S
C1564 C1568 1.368 . S
C1565 C1546 1.429 . S
C1565 C1559 1.429 . S
C1565 C1566 1.523 . S
C1566 C1547 1.368 . S
C1566 C1560 1.368 . S
C1566 C1565 1.523 . S
C1567 C1551 1.429 . S
C1567 C1563 1.429 . S
C1567 C1568 1.523 . S
C1568 C1552 1.368 . S
C1568 C1564 1.368 . S
C1568 C1567 1.523 . S
H1569 C1544 0.950 . S
H1570 C1546 0.950 . S
H1571 C1547 0.949 . S
H1572 C1549 0.950 . S
H1573 C1551 0.950 . S
C1574 C1575 1.349 . S
C1574 C1576 1.327 . S
C1574 H1599 0.950 . S
C1575 C1574 1.349 . S
C1575 C1591 1.349 . S
C1576 C1574 1.327 . S
C1576 C1595 1.429 . S
C1576 H1600 0.950 . S
C1577 C1594 1.574 . S
C1577 C1596 1.368 . S
C1577 H1601 0.949 . S
H1578 C1582 0.949 . S
C1579 C1580 1.349 . S
C1579 C1581 1.327 . S
C1579 H1602 0.950 . S
C1580 C1579 1.349 . S
C1580 C1592 1.349 . S
C1581 C1579 1.327 . S
C1581 C1597 1.429 . S
C1581 H1603 0.950 . S
C1582 H1578 0.949 . S
C1582 C1590 1.574 . S
C1582 C1598 1.368 . S
H1583 C1591 0.950 . S
H1584 C1589 0.950 . S
H1585 C1590 0.949 . S
H1586 C1592 0.950 . S
H1587 C1593 0.950 . S
H1588 C1594 0.949 . S
C1589 H1584 0.950 . S
C1589 C1591 1.327 . S
C1589 C1595 1.429 . S
C1590 C1582 1.574 . S
C1590 H1585 0.949 . S
C1590 C1596 1.368 . S
C1591 C1575 1.349 . S
C1591 H1583 0.950 . S
C1591 C1589 1.327 . S
C1592 C1580 1.349 . S
C1592 H1586 0.950 . S
C1592 C1593 1.327 . S
C1593 H1587 0.950 . S
C1593 C1592 1.327 . S
C1593 C1597 1.429 . S
C1594 C1577 1.574 . S
C1594 H1588 0.949 . S
C1594 C1598 1.368 . S
C1595 C1576 1.429 . S
C1595 C1589 1.429 . S
C1595 C1596 1.523 . S
C1596 C1577 1.368 . S
C1596 C1590 1.368 . S
C1596 C1595 1.523 . S
C1597 C1581 1.429 . S
C1597 C1593 1.429 . S
C1597 C1598 1.523 . S
C1598 C1582 1.368 . S
C1598 C1594 1.368 . S
C1598 C1597 1.523 . S
H1599 C1574 0.950 . S
H1600 C1576 0.950 . S
H1601 C1577 0.949 . S
H1602 C1579 0.950 . S
H1603 C1581 0.950 . S
C1604 C1605 1.349 . S
C1604 C1606 1.327 . S
C1604 H1629 0.950 . S
C1605 C1604 1.349 . S
C1605 C1621 1.349 . S
C1606 C1604 1.327 . S
C1606 C1625 1.429 . S
C1606 H1630 0.950 . S
C1607 C1624 1.574 . S
C1607 C1626 1.368 . S
C1607 H1631 0.949 . S
H1608 C1612 0.949 . S
C1609 C1610 1.349 . S
C1609 C1611 1.327 . S
C1609 H1632 0.950 . S
C1610 C1609 1.349 . S
C1610 C1622 1.349 . S
C1611 C1609 1.327 . S
C1611 C1627 1.429 . S
C1611 H1633 0.950 . S
C1612 H1608 0.949 . S
C1612 C1620 1.574 . S
C1612 C1628 1.368 . S
H1613 C1621 0.950 . S
H1614 C1619 0.950 . S
H1615 C1620 0.949 . S
H1616 C1622 0.950 . S
H1617 C1623 0.950 . S
H1618 C1624 0.949 . S
C1619 H1614 0.950 . S
C1619 C1621 1.327 . S
C1619 C1625 1.429 . S
C1620 C1612 1.574 . S
C1620 H1615 0.949 . S
C1620 C1626 1.368 . S
C1621 C1605 1.349 . S
C1621 H1613 0.950 . S
C1621 C1619 1.327 . S
C1622 C1610 1.349 . S
C1622 H1616 0.950 . S
C1622 C1623 1.327 . S
C1623 H1617 0.950 . S
C1623 C1622 1.327 . S
C1623 C1627 1.429 . S
C1624 C1607 1.574 . S
C1624 H1618 0.949 . S
C1624 C1628 1.368 . S
C1625 C1606 1.429 . S
C1625 C1619 1.429 . S
C1625 C1626 1.523 . S
C1626 C1607 1.368 . S
C1626 C1620 1.368 . S
C1626 C1625 1.523 . S
C1627 C1611 1.429 . S
C1627 C1623 1.429 . S
C1627 C1628 1.523 . S
C1628 C1612 1.368 . S
C1628 C1624 1.368 . S
C1628 C1627 1.523 . S
H1629 C1604 0.950 . S
H1630 C1606 0.950 . S
H1631 C1607 0.949 . S
H1632 C1609 0.950 . S
H1633 C1611 0.950 . S
C1634 C1635 1.349 . S
C1634 C1636 1.327 . S
C1634 H1659 0.950 . S
C1635 C1634 1.349 . S
C1635 C1651 1.349 . S
C1636 C1634 1.327 . S
C1636 C1655 1.429 . S
C1636 H1660 0.950 . S
C1637 C1654 1.574 . S
C1637 C1656 1.368 . S
C1637 H1661 0.949 . S
H1638 C1642 0.949 . S
C1639 C1640 1.349 . S
C1639 C1641 1.327 . S
C1639 H1662 0.950 . S
C1640 C1639 1.349 . S
C1640 C1652 1.349 . S
C1641 C1639 1.327 . S
C1641 C1657 1.429 . S
C1641 H1663 0.950 . S
C1642 H1638 0.949 . S
C1642 C1650 1.574 . S
C1642 C1658 1.368 . S
H1643 C1651 0.950 . S
H1644 C1649 0.950 . S
H1645 C1650 0.949 . S
H1646 C1652 0.950 . S
H1647 C1653 0.950 . S
H1648 C1654 0.949 . S
C1649 H1644 0.950 . S
C1649 C1651 1.327 . S
C1649 C1655 1.429 . S
C1650 C1642 1.574 . S
C1650 H1645 0.949 . S
C1650 C1656 1.368 . S
C1651 C1635 1.349 . S
C1651 H1643 0.950 . S
C1651 C1649 1.327 . S
C1652 C1640 1.349 . S
C1652 H1646 0.950 . S
C1652 C1653 1.327 . S
C1653 H1647 0.950 . S
C1653 C1652 1.327 . S
C1653 C1657 1.429 . S
C1654 C1637 1.574 . S
C1654 H1648 0.949 . S
C1654 C1658 1.368 . S
C1655 C1636 1.429 . S
C1655 C1649 1.429 . S
C1655 C1656 1.523 . S
C1656 C1637 1.368 . S
C1656 C1650 1.368 . S
C1656 C1655 1.523 . S
C1657 C1641 1.429 . S
C1657 C1653 1.429 . S
C1657 C1658 1.523 . S
C1658 C1642 1.368 . S
C1658 C1654 1.368 . S
C1658 C1657 1.523 . S
H1659 C1634 0.950 . S
H1660 C1636 0.950 . S
H1661 C1637 0.949 . S
H1662 C1639 0.950 . S
H1663 C1641 0.950 . S
C1664 C1665 1.349 . S
C1664 C1666 1.327 . S
C1664 H1689 0.950 . S
C1665 C1664 1.349 . S
C1665 C1681 1.349 . S
C1666 C1664 1.327 . S
C1666 C1685 1.429 . S
C1666 H1690 0.950 . S
C1667 C1684 1.574 . S
C1667 C1686 1.368 . S
C1667 H1691 0.949 1_554 S
H1668 C1672 0.949 . S
C1669 C1670 1.349 1_565 S
C1669 C1671 1.327 . S
C1669 H1692 0.950 1_554 S
C1670 C1669 1.349 1_545 S
C1670 C1682 1.349 . S
C1671 C1669 1.327 . S
C1671 C1687 1.429 . S
C1671 H1693 0.950 1_554 S
C1672 H1668 0.949 . S
C1672 C1680 1.574 . S
C1672 C1688 1.368 . S
H1673 C1681 0.961 . S
H1674 C1679 0.950 1_556 S
H1675 C1680 0.949 . S
H1676 C1682 0.950 . S
H1677 C1683 0.950 1_545 S
H1678 C1684 0.949 1_556 S
C1679 H1674 0.950 1_554 S
C1679 C1681 1.327 . S
C1679 C1685 1.429 . S
C1680 C1672 1.574 . S
C1680 H1675 0.949 . S
C1680 C1686 1.368 . S
C1681 C1665 1.349 . S
C1681 H1673 0.961 . S
C1681 C1679 1.327 . S
C1682 C1670 1.349 . S
C1682 H1676 0.950 . S
C1682 C1683 1.327 1_545 S
C1683 H1677 0.950 1_565 S
C1683 C1682 1.327 1_565 S
C1683 C1687 1.429 . S
C1684 C1667 1.574 . S
C1684 H1678 0.949 1_554 S
C1684 C1688 1.368 . S
C1685 C1666 1.429 . S
C1685 C1679 1.429 . S
C1685 C1686 1.523 . S
C1686 C1667 1.368 . S
C1686 C1680 1.368 . S
C1686 C1685 1.523 . S
C1687 C1671 1.429 . S
C1687 C1683 1.429 . S
C1687 C1688 1.523 . S
C1688 C1672 1.368 . S
C1688 C1684 1.368 . S
C1688 C1687 1.523 . S
H1689 C1664 0.950 . S
H1690 C1666 0.950 . S
H1691 C1667 0.949 1_556 S
H1692 C1669 0.950 1_556 S
H1693 C1671 0.950 1_556 S
C1694 C1695 1.349 1_556 S
C1694 C1696 1.327 . S
C1694 H1719 0.950 . S
C1695 C1694 1.349 1_554 S
C1695 C1711 1.349 . S
C1696 C1694 1.327 . S
C1696 C1715 1.429 1_556 S
C1696 H1720 0.950 . S
C1697 C1714 1.574 . S
C1697 C1716 1.368 . S
C1697 H1721 0.949 . S
H1698 C1702 0.949 . S
C1699 C1700 1.349 . S
C1699 C1701 1.327 . S
C1699 H1722 0.950 . S
C1700 C1699 1.349 . S
C1700 C1712 1.349 1_554 S
C1701 C1699 1.327 . S
C1701 C1717 1.429 . S
C1701 H1723 0.950 . S
C1702 H1698 0.949 . S
C1702 C1710 1.574 . S
C1702 C1718 1.368 1_556 S
H1703 C1711 0.950 . S
H1704 C1709 0.950 . S
H1705 C1710 0.949 . S
H1706 C1712 0.950 . S
H1707 C1713 0.950 . S
H1708 C1714 0.949 . S
C1709 H1704 0.950 . S
C1709 C1711 1.327 . S
C1709 C1715 1.429 . S
C1710 C1702 1.574 . S
C1710 H1705 0.949 . S
C1710 C1716 1.368 1_556 S
C1711 C1695 1.349 . S
C1711 H1703 0.950 . S
C1711 C1709 1.327 . S
C1712 C1700 1.349 1_556 S
C1712 H1706 0.950 . S
C1712 C1713 1.327 . S
C1713 H1707 0.950 . S
C1713 C1712 1.327 . S
C1713 C1717 1.429 1_556 S
C1714 C1697 1.574 . S
C1714 H1708 0.949 . S
C1714 C1718 1.368 . S
C1715 C1696 1.429 1_554 S
C1715 C1709 1.429 . S
C1715 C1716 1.523 . S
C1716 C1697 1.368 . S
C1716 C1710 1.368 1_554 S
C1716 C1715 1.523 . S
C1717 C1701 1.429 . S
C1717 C1713 1.429 1_554 S
C1717 C1718 1.523 . S
C1718 C1702 1.368 1_554 S
C1718 C1714 1.368 . S
C1718 C1717 1.523 . S
H1719 C1694 0.950 . S
H1720 C1696 0.950 . S
H1721 C1697 0.949 . S
H1722 C1699 0.950 . S
H1723 C1701 0.950 . S
C1724 C1725 1.349 . S
C1724 C1726 1.327 . S
C1724 H1749 0.950 . S
C1725 C1724 1.349 . S
C1725 C1741 1.349 . S
C1726 C1724 1.327 . S
C1726 C1745 1.429 . S
C1726 H1750 0.950 . S
C1727 C1744 1.574 . S
C1727 C1746 1.368 . S
C1727 H1751 0.949 . S
H1728 C1732 0.949 . S
C1729 C1730 1.349 . S
C1729 C1731 1.327 . S
C1729 H1752 0.950 . S
C1730 C1729 1.349 . S
C1730 C1742 1.349 . S
C1731 C1729 1.327 . S
C1731 C1747 1.429 . S
C1731 H1753 0.950 . S
C1732 H1728 0.949 . S
C1732 C1740 1.574 . S
C1732 C1748 1.368 . S
H1733 C1741 0.950 . S
H1734 C1739 0.950 . S
H1735 C1740 0.949 . S
H1736 C1742 0.950 . S
H1737 C1743 0.950 . S
H1738 C1744 0.949 . S
C1739 H1734 0.950 . S
C1739 C1741 1.327 . S
C1739 C1745 1.429 . S
C1740 C1732 1.574 . S
C1740 H1735 0.949 . S
C1740 C1746 1.368 . S
C1741 C1725 1.349 . S
C1741 H1733 0.950 . S
C1741 C1739 1.327 . S
C1742 C1730 1.349 . S
C1742 H1736 0.950 . S
C1742 C1743 1.327 . S
C1743 H1737 0.950 . S
C1743 C1742 1.327 . S
C1743 C1747 1.429 . S
C1744 C1727 1.574 . S
C1744 H1738 0.949 . S
C1744 C1748 1.368 . S
C1745 C1726 1.429 . S
C1745 C1739 1.429 . S
C1745 C1746 1.523 . S
C1746 C1727 1.368 . S
C1746 C1740 1.368 . S
C1746 C1745 1.523 . S
C1747 C1731 1.429 . S
C1747 C1743 1.429 . S
C1747 C1748 1.523 . S
C1748 C1732 1.368 . S
C1748 C1744 1.368 . S
C1748 C1747 1.523 . S
H1749 C1724 0.950 . S
H1750 C1726 0.950 . S
H1751 C1727 0.949 . S
H1752 C1729 0.950 . S
H1753 C1731 0.950 . S
C1754 C1755 1.349 . S
C1754 C1756 1.327 . S
C1754 H1779 0.950 . S
C1755 C1754 1.349 . S
C1755 C1771 1.349 . S
C1756 C1754 1.327 . S
C1756 C1775 1.429 . S
C1756 H1780 0.950 . S
C1757 C1774 1.574 . S
C1757 C1776 1.368 . S
C1757 H1781 0.949 . S
H1758 C1762 0.949 . S
C1759 C1760 1.349 . S
C1759 C1761 1.327 . S
C1759 H1782 0.950 . S
C1760 C1759 1.349 . S
C1760 C1772 1.349 . S
C1761 C1759 1.327 . S
C1761 C1777 1.429 . S
C1761 H1783 0.950 . S
C1762 H1758 0.949 . S
C1762 C1770 1.574 . S
C1762 C1778 1.368 . S
H1763 C1771 0.950 . S
H1764 C1769 0.950 . S
H1765 C1770 0.949 . S
H1766 C1772 0.950 . S
H1767 C1773 0.950 . S
H1768 C1774 0.949 . S
C1769 H1764 0.950 . S
C1769 C1771 1.327 . S
C1769 C1775 1.429 . S
C1770 C1762 1.574 . S
C1770 H1765 0.949 . S
C1770 C1776 1.368 . S
C1771 C1755 1.349 . S
C1771 H1763 0.950 . S
C1771 C1769 1.327 . S
C1772 C1760 1.349 . S
C1772 H1766 0.950 . S
C1772 C1773 1.327 . S
C1773 H1767 0.950 . S
C1773 C1772 1.327 . S
C1773 C1777 1.429 . S
C1774 C1757 1.574 . S
C1774 H1768 0.949 . S
C1774 C1778 1.368 . S
C1775 C1756 1.429 . S
C1775 C1769 1.429 . S
C1775 C1776 1.523 . S
C1776 C1757 1.368 . S
C1776 C1770 1.368 . S
C1776 C1775 1.523 . S
C1777 C1761 1.429 . S
C1777 C1773 1.429 . S
C1777 C1778 1.523 . S
C1778 C1762 1.368 . S
C1778 C1774 1.368 . S
C1778 C1777 1.523 . S
H1779 C1754 0.950 . S
H1780 C1756 0.950 . S
H1781 C1757 0.949 . S
H1782 C1759 0.950 . S
H1783 C1761 0.950 . S
C1784 C1785 1.349 . S
C1784 C1786 1.327 . S
C1784 H1809 0.950 . S
C1785 C1784 1.349 . S
C1785 C1801 1.349 . S
C1786 C1784 1.327 . S
C1786 C1805 1.429 . S
C1786 H1810 0.950 . S
C1787 C1804 1.574 . S
C1787 C1806 1.368 . S
C1787 H1811 0.949 . S
H1788 C1792 0.949 . S
C1789 C1790 1.349 . S
C1789 C1791 1.327 . S
C1789 H1812 0.950 . S
C1790 C1789 1.349 . S
C1790 C1802 1.349 . S
C1791 C1789 1.327 . S
C1791 C1807 1.429 . S
C1791 H1813 0.950 . S
C1792 H1788 0.949 . S
C1792 C1800 1.574 . S
C1792 C1808 1.368 . S
H1793 C1801 0.950 . S
H1794 C1799 0.950 . S
H1795 C1800 0.949 . S
H1796 C1802 0.950 . S
H1797 C1803 0.950 . S
H1798 C1804 0.949 . S
C1799 H1794 0.950 . S
C1799 C1801 1.327 . S
C1799 C1805 1.429 . S
C1800 C1792 1.574 . S
C1800 H1795 0.949 . S
C1800 C1806 1.368 . S
C1801 C1785 1.349 . S
C1801 H1793 0.950 . S
C1801 C1799 1.327 . S
C1802 C1790 1.349 . S
C1802 H1796 0.950 . S
C1802 C1803 1.327 . S
C1803 H1797 0.950 . S
C1803 C1802 1.327 . S
C1803 C1807 1.429 . S
C1804 C1787 1.574 . S
C1804 H1798 0.949 . S
C1804 C1808 1.368 . S
C1805 C1786 1.429 . S
C1805 C1799 1.429 . S
C1805 C1806 1.523 . S
C1806 C1787 1.368 . S
C1806 C1800 1.368 . S
C1806 C1805 1.523 . S
C1807 C1791 1.429 . S
C1807 C1803 1.429 . S
C1807 C1808 1.523 . S
C1808 C1792 1.368 . S
C1808 C1804 1.368 . S
C1808 C1807 1.523 . S
H1809 C1784 0.950 . S
H1810 C1786 0.950 . S
H1811 C1787 0.949 . S
H1812 C1789 0.950 . S
H1813 C1791 0.950 . S
C1814 C1815 1.349 . S
C1814 C1816 1.327 . S
C1814 H1839 0.950 . S
C1815 C1814 1.349 . S
C1815 C1831 1.349 . S
C1816 C1814 1.327 . S
C1816 C1835 1.429 . S
C1816 H1840 0.950 . S
C1817 C1834 1.574 . S
C1817 C1836 1.368 . S
C1817 H1841 0.949 . S
H1818 C1822 0.949 . S
C1819 C1820 1.349 . S
C1819 C1821 1.327 . S
C1819 H1842 0.950 . S
C1820 C1819 1.349 . S
C1820 C1832 1.349 . S
C1821 C1819 1.327 . S
C1821 C1837 1.429 . S
C1821 H1843 0.950 . S
C1822 H1818 0.949 . S
C1822 C1830 1.574 . S
C1822 C1838 1.368 . S
H1823 C1831 0.950 . S
H1824 C1829 0.950 . S
H1825 C1830 0.949 . S
H1826 C1832 0.950 . S
H1827 C1833 0.950 . S
H1828 C1834 0.949 . S
C1829 H1824 0.950 . S
C1829 C1831 1.327 . S
C1829 C1835 1.429 . S
C1830 C1822 1.574 . S
C1830 H1825 0.949 . S
C1830 C1836 1.368 . S
C1831 C1815 1.349 . S
C1831 H1823 0.950 . S
C1831 C1829 1.327 . S
C1832 C1820 1.349 . S
C1832 H1826 0.950 . S
C1832 C1833 1.327 . S
C1833 H1827 0.950 . S
C1833 C1832 1.327 . S
C1833 C1837 1.429 . S
C1834 C1817 1.574 . S
C1834 H1828 0.949 . S
C1834 C1838 1.368 . S
C1835 C1816 1.429 . S
C1835 C1829 1.429 . S
C1835 C1836 1.523 . S
C1836 C1817 1.368 . S
C1836 C1830 1.368 . S
C1836 C1835 1.523 . S
C1837 C1821 1.429 . S
C1837 C1833 1.429 . S
C1837 C1838 1.523 . S
C1838 C1822 1.368 . S
C1838 C1834 1.368 . S
C1838 C1837 1.523 . S
H1839 C1814 0.950 . S
H1840 C1816 0.950 . S
H1841 C1817 0.949 . S
H1842 C1819 0.950 . S
H1843 C1821 0.950 . S
C1844 C1845 1.349 . S
C1844 C1846 1.327 . S
C1844 H1869 0.950 . S
C1845 C1844 1.349 . S
C1845 C1861 1.349 . S
C1846 C1844 1.327 . S
C1846 C1865 1.429 . S
C1846 H1870 0.950 . S
C1847 C1864 1.574 . S
C1847 C1866 1.368 . S
C1847 H1871 0.949 . S
H1848 C1852 0.949 . S
C1849 C1850 1.349 . S
C1849 C1851 1.327 . S
C1849 H1872 0.950 . S
C1850 C1849 1.349 . S
C1850 C1862 1.349 . S
C1851 C1849 1.327 . S
C1851 C1867 1.429 . S
C1851 H1873 0.950 . S
C1852 H1848 0.949 . S
C1852 C1860 1.574 . S
C1852 C1868 1.368 . S
H1853 C1861 0.950 . S
H1854 C1859 0.950 . S
H1855 C1860 0.949 . S
H1856 C1862 0.950 . S
H1857 C1863 0.950 . S
H1858 C1864 0.949 . S
C1859 H1854 0.950 . S
C1859 C1861 1.327 . S
C1859 C1865 1.429 . S
C1860 C1852 1.574 . S
C1860 H1855 0.949 . S
C1860 C1866 1.368 . S
C1861 C1845 1.349 . S
C1861 H1853 0.950 . S
C1861 C1859 1.327 . S
C1862 C1850 1.349 . S
C1862 H1856 0.950 . S
C1862 C1863 1.327 . S
C1863 H1857 0.950 . S
C1863 C1862 1.327 . S
C1863 C1867 1.429 . S
C1864 C1847 1.574 . S
C1864 H1858 0.949 . S
C1864 C1868 1.368 . S
C1865 C1846 1.429 . S
C1865 C1859 1.429 . S
C1865 C1866 1.523 . S
C1866 C1847 1.368 . S
C1866 C1860 1.368 . S
C1866 C1865 1.523 . S
C1867 C1851 1.429 . S
C1867 C1863 1.429 . S
C1867 C1868 1.523 . S
C1868 C1852 1.368 . S
C1868 C1864 1.368 . S
C1868 C1867 1.523 . S
H1869 C1844 0.950 . S
H1870 C1846 0.950 . S
H1871 C1847 0.949 . S
H1872 C1849 0.950 . S
H1873 C1851 0.950 . S
C1874 C1875 1.349 . S
C1874 C1876 1.327 . S
C1874 H1899 0.950 . S
C1875 C1874 1.349 . S
C1875 C1891 1.349 . S
C1876 C1874 1.327 . S
C1876 C1895 1.429 . S
C1876 H1900 0.950 . S
C1877 C1894 1.574 . S
C1877 C1896 1.368 . S
C1877 H1901 0.949 . S
H1878 C1882 0.949 . S
C1879 C1880 1.349 . S
C1879 C1881 1.327 . S
C1879 H1902 0.950 . S
C1880 C1879 1.349 . S
C1880 C1892 1.349 . S
C1881 C1879 1.327 . S
C1881 C1897 1.429 . S
C1881 H1903 0.950 . S
C1882 H1878 0.949 . S
C1882 C1890 1.574 . S
C1882 C1898 1.368 . S
H1883 C1891 0.950 . S
H1884 C1889 0.950 . S
H1885 C1890 0.949 . S
H1886 C1892 0.950 . S
H1887 C1893 0.950 . S
H1888 C1894 0.949 . S
C1889 H1884 0.950 . S
C1889 C1891 1.327 . S
C1889 C1895 1.429 . S
C1890 C1882 1.574 . S
C1890 H1885 0.949 . S
C1890 C1896 1.368 . S
C1891 C1875 1.349 . S
C1891 H1883 0.950 . S
C1891 C1889 1.327 . S
C1892 C1880 1.349 . S
C1892 H1886 0.950 . S
C1892 C1893 1.327 . S
C1893 H1887 0.950 . S
C1893 C1892 1.327 . S
C1893 C1897 1.429 . S
C1894 C1877 1.574 . S
C1894 H1888 0.949 . S
C1894 C1898 1.368 . S
C1895 C1876 1.429 . S
C1895 C1889 1.429 . S
C1895 C1896 1.523 . S
C1896 C1877 1.368 . S
C1896 C1890 1.368 . S
C1896 C1895 1.523 . S
C1897 C1881 1.429 . S
C1897 C1893 1.429 . S
C1897 C1898 1.523 . S
C1898 C1882 1.368 . S
C1898 C1894 1.368 . S
C1898 C1897 1.523 . S
H1899 C1874 0.950 . S
H1900 C1876 0.950 . S
H1901 C1877 0.949 . S
H1902 C1879 0.950 . S
H1903 C1881 0.950 . S
C1904 C1905 1.349 1_655 S
C1904 C1906 1.327 . S
C1904 H1929 0.950 . S
C1905 C1904 1.349 1_455 S
C1905 C1921 1.349 . S
C1906 C1904 1.327 . S
C1906 C1925 1.429 1_655 S
C1906 H1930 0.950 . S
C1907 C1924 1.574 . S
C1907 C1926 1.368 . S
C1907 H1931 0.949 . S
H1908 C1912 0.949 . S
C1909 C1910 1.349 . S
C1909 C1911 1.327 . S
C1909 H1932 0.950 . S
C1910 C1909 1.349 . S
C1910 C1922 1.349 1_455 S
C1911 C1909 1.327 . S
C1911 C1927 1.429 . S
C1911 H1933 0.950 . S
C1912 H1908 0.949 . S
C1912 C1920 1.574 . S
C1912 C1928 1.368 1_655 S
H1913 C1921 0.950 . S
H1914 C1919 0.950 . S
H1915 C1920 0.949 . S
H1916 C1922 0.950 . S
H1917 C1923 0.950 . S
H1918 C1924 0.949 . S
C1919 H1914 0.950 . S
C1919 C1921 1.327 . S
C1919 C1925 1.429 . S
C1920 C1912 1.574 . S
C1920 H1915 0.949 . S
C1920 C1926 1.368 1_655 S
C1921 C1905 1.349 . S
C1921 H1913 0.950 . S
C1921 C1919 1.327 . S
C1922 C1910 1.349 1_655 S
C1922 H1916 0.950 . S
C1922 C1923 1.327 . S
C1923 H1917 0.950 . S
C1923 C1922 1.327 . S
C1923 C1927 1.429 1_655 S
C1924 C1907 1.574 . S
C1924 H1918 0.949 . S
C1924 C1928 1.368 . S
C1925 C1906 1.429 1_455 S
C1925 C1919 1.429 . S
C1925 C1926 1.523 . S
C1926 C1907 1.368 . S
C1926 C1920 1.368 1_455 S
C1926 C1925 1.523 . S
C1927 C1911 1.429 . S
C1927 C1923 1.429 1_455 S
C1927 C1928 1.523 . S
C1928 C1912 1.368 1_455 S
C1928 C1924 1.368 . S
C1928 C1927 1.523 . S
H1929 C1904 0.950 . S
H1930 C1906 0.950 . S
H1931 C1907 0.949 . S
H1932 C1909 0.950 . S
H1933 C1911 0.950 . S
C1934 C1935 1.349 . S
C1934 C1936 1.327 . S
C1934 H1959 0.950 . S
C1935 C1934 1.349 . S
C1935 C1951 1.349 . S
C1936 C1934 1.327 . S
C1936 C1955 1.429 . S
C1936 H1960 0.950 . S
C1937 C1954 1.574 . S
C1937 C1956 1.368 . S
C1937 H1961 0.949 . S
H1938 C1942 0.949 . S
C1939 C1940 1.349 . S
C1939 C1941 1.327 . S
C1939 H1962 0.950 . S
C1940 C1939 1.349 . S
C1940 C1952 1.349 . S
C1941 C1939 1.327 . S
C1941 C1957 1.429 . S
C1941 H1963 0.950 . S
C1942 H1938 0.949 . S
C1942 C1950 1.574 . S
C1942 C1958 1.368 . S
H1943 C1951 0.950 . S
H1944 C1949 0.950 . S
H1945 C1950 0.949 . S
H1946 C1952 0.950 . S
H1947 C1953 0.950 . S
H1948 C1954 0.949 . S
C1949 H1944 0.950 . S
C1949 C1951 1.327 . S
C1949 C1955 1.429 . S
C1950 C1942 1.574 . S
C1950 H1945 0.949 . S
C1950 C1956 1.368 . S
C1951 C1935 1.349 . S
C1951 H1943 0.950 . S
C1951 C1949 1.327 . S
C1952 C1940 1.349 . S
C1952 H1946 0.950 . S
C1952 C1953 1.327 . S
C1953 H1947 0.950 . S
C1953 C1952 1.327 . S
C1953 C1957 1.429 . S
C1954 C1937 1.574 . S
C1954 H1948 0.949 . S
C1954 C1958 1.368 . S
C1955 C1936 1.429 . S
C1955 C1949 1.429 . S
C1955 C1956 1.523 . S
C1956 C1937 1.368 . S
C1956 C1950 1.368 . S
C1956 C1955 1.523 . S
C1957 C1941 1.429 . S
C1957 C1953 1.429 . S
C1957 C1958 1.523 . S
C1958 C1942 1.368 . S
C1958 C1954 1.368 . S
C1958 C1957 1.523 . S
H1959 C1934 0.950 . S
H1960 C1936 0.950 . S
H1961 C1937 0.949 . S
H1962 C1939 0.950 . S
H1963 C1941 0.950 . S
C1964 C1965 1.349 . S
C1964 C1966 1.327 . S
C1964 H1989 0.950 . S
C1965 C1964 1.349 . S
C1965 C1981 1.349 . S
C1966 C1964 1.327 . S
C1966 C1985 1.429 . S
C1966 H1990 0.950 . S
C1967 C1984 1.574 . S
C1967 C1986 1.368 . S
C1967 H1991 0.949 . S
H1968 C1972 0.949 . S
C1969 C1970 1.349 . S
C1969 C1971 1.327 . S
C1969 H1992 0.950 . S
C1970 C1969 1.349 . S
C1970 C1982 1.349 . S
C1971 C1969 1.327 . S
C1971 C1987 1.429 . S
C1971 H1993 0.950 . S
C1972 H1968 0.949 . S
C1972 C1980 1.574 . S
C1972 C1988 1.368 . S
H1973 C1981 0.950 . S
H1974 C1979 0.950 . S
H1975 C1980 0.949 . S
H1976 C1982 0.950 . S
H1977 C1983 0.950 . S
H1978 C1984 0.949 . S
C1979 H1974 0.950 . S
C1979 C1981 1.327 . S
C1979 C1985 1.429 . S
C1980 C1972 1.574 . S
C1980 H1975 0.949 . S
C1980 C1986 1.368 . S
C1981 C1965 1.349 . S
C1981 H1973 0.950 . S
C1981 C1979 1.327 . S
C1982 C1970 1.349 . S
C1982 H1976 0.950 . S
C1982 C1983 1.327 . S
C1983 H1977 0.950 . S
C1983 C1982 1.327 . S
C1983 C1987 1.429 . S
C1984 C1967 1.574 . S
C1984 H1978 0.949 . S
C1984 C1988 1.368 . S
C1985 C1966 1.429 . S
C1985 C1979 1.429 . S
C1985 C1986 1.523 . S
C1986 C1967 1.368 . S
C1986 C1980 1.368 . S
C1986 C1985 1.523 . S
C1987 C1971 1.429 . S
C1987 C1983 1.429 . S
C1987 C1988 1.523 . S
C1988 C1972 1.368 . S
C1988 C1984 1.368 . S
C1988 C1987 1.523 . S
H1989 C1964 0.950 . S
H1990 C1966 0.950 . S
H1991 C1967 0.949 . S
H1992 C1969 0.950 . S
H1993 C1971 0.950 . S
C1994 C1995 1.349 . S
C1994 C1996 1.327 . S
C1994 H2019 0.950 . S
C1995 C1994 1.349 . S
C1995 C2011 1.349 . S
C1996 C1994 1.327 . S
C1996 C2015 1.429 . S
C1996 H2020 0.950 . S
C1997 C2014 1.574 . S
C1997 C2016 1.368 . S
C1997 H2021 0.949 . S
H1998 C2002 0.949 . S
C1999 C2000 1.349 . S
C1999 C2001 1.327 . S
C1999 H2022 0.950 . S
C2000 C1999 1.349 . S
C2000 C2012 1.349 . S
C2001 C1999 1.327 . S
C2001 C2017 1.429 . S
C2001 H2023 0.950 . S
C2002 H1998 0.949 . S
C2002 C2010 1.574 . S
C2002 C2018 1.368 . S
H2003 C2011 0.950 . S
H2004 C2009 0.950 . S
H2005 C2010 0.949 . S
H2006 C2012 0.950 . S
H2007 C2013 0.950 . S
H2008 C2014 0.949 . S
C2009 H2004 0.950 . S
C2009 C2011 1.327 . S
C2009 C2015 1.429 . S
C2010 C2002 1.574 . S
C2010 H2005 0.949 . S
C2010 C2016 1.368 . S
C2011 C1995 1.349 . S
C2011 H2003 0.950 . S
C2011 C2009 1.327 . S
C2012 C2000 1.349 . S
C2012 H2006 0.950 . S
C2012 C2013 1.327 . S
C2013 H2007 0.950 . S
C2013 C2012 1.327 . S
C2013 C2017 1.429 . S
C2014 C1997 1.574 . S
C2014 H2008 0.949 . S
C2014 C2018 1.368 . S
C2015 C1996 1.429 . S
C2015 C2009 1.429 . S
C2015 C2016 1.523 . S
C2016 C1997 1.368 . S
C2016 C2010 1.368 . S
C2016 C2015 1.523 . S
C2017 C2001 1.429 . S
C2017 C2013 1.429 . S
C2017 C2018 1.523 . S
C2018 C2002 1.368 . S
C2018 C2014 1.368 . S
C2018 C2017 1.523 . S
H2019 C1994 0.950 . S
H2020 C1996 0.950 . S
H2021 C1997 0.949 . S
H2022 C1999 0.950 . S
H2023 C2001 0.950 . S
C2024 C2025 1.349 . S
C2024 C2026 1.327 . S
C2024 H2049 0.950 . S
C2025 C2024 1.349 . S
C2025 C2041 1.349 . S
C2026 C2024 1.327 . S
C2026 C2045 1.429 . S
C2026 H2050 0.950 . S
C2027 C2044 1.574 . S
C2027 C2046 1.368 . S
C2027 H2051 0.949 . S
H2028 C2032 0.962 . S
C2029 C2030 1.349 . S
C2029 C2031 1.327 . S
C2029 H2052 0.950 . S
C2030 C2029 1.349 . S
C2030 C2042 1.370 . S
C2031 C2029 1.327 . S
C2031 C2047 1.429 . S
C2031 H2053 0.950 . S
C2032 H2028 0.962 . S
C2032 C2040 1.574 . S
C2032 C2048 1.368 . S
H2033 C2041 0.950 . S
H2034 C2039 0.950 . S
H2035 C2040 0.949 . S
H2036 C2042 0.934 1_655 S
H2037 C2043 0.940 1_655 S
H2038 C2044 0.949 . S
C2039 H2034 0.950 . S
C2039 C2041 1.327 . S
C2039 C2045 1.429 . S
C2040 C2032 1.574 . S
C2040 H2035 0.949 . S
C2040 C2046 1.368 . S
C2041 C2025 1.349 . S
C2041 H2033 0.950 . S
C2041 C2039 1.327 . S
C2042 C2030 1.370 . S
C2042 H2036 0.934 1_455 S
C2042 C2043 1.325 . S
C2043 H2037 0.940 1_455 S
C2043 C2042 1.325 . S
C2043 C2047 1.429 . S
C2044 C2027 1.574 . S
C2044 H2038 0.949 . S
C2044 C2048 1.368 . S
C2045 C2026 1.429 . S
C2045 C2039 1.429 . S
C2045 C2046 1.523 . S
C2046 C2027 1.368 . S
C2046 C2040 1.368 . S
C2046 C2045 1.523 . S
C2047 C2031 1.429 . S
C2047 C2043 1.429 . S
C2047 C2048 1.523 . S
C2048 C2032 1.368 . S
C2048 C2044 1.368 . S
C2048 C2047 1.523 . S
H2049 C2024 0.950 . S
H2050 C2026 0.950 . S
H2051 C2027 0.949 . S
H2052 C2029 0.950 . S
H2053 C2031 0.950 . S
C2054 C2055 1.349 . S
C2054 C2056 1.327 . S
C2054 H2079 0.950 . S
C2055 C2054 1.349 . S
C2055 C2071 1.349 . S
C2056 C2054 1.327 . S
C2056 C2075 1.429 . S
C2056 H2080 0.950 . S
C2057 C2074 1.574 . S
C2057 C2076 1.368 . S
C2057 H2081 0.949 . S
H2058 C2062 0.949 . S
C2059 C2060 1.349 . S
C2059 C2061 1.327 . S
C2059 H2082 0.950 . S
C2060 C2059 1.349 . S
C2060 C2072 1.349 . S
C2061 C2059 1.327 . S
C2061 C2077 1.429 . S
C2061 H2083 0.950 . S
C2062 H2058 0.949 . S
C2062 C2070 1.574 . S
C2062 C2078 1.368 . S
H2063 C2071 0.950 . S
H2064 C2069 0.950 . S
H2065 C2070 0.949 . S
H2066 C2072 0.950 . S
H2067 C2073 0.950 . S
H2068 C2074 0.949 . S
C2069 H2064 0.950 . S
C2069 C2071 1.327 . S
C2069 C2075 1.429 . S
C2070 C2062 1.574 . S
C2070 H2065 0.949 . S
C2070 C2076 1.368 . S
C2071 C2055 1.349 . S
C2071 H2063 0.950 . S
C2071 C2069 1.327 . S
C2072 C2060 1.349 . S
C2072 H2066 0.950 . S
C2072 C2073 1.327 . S
C2073 H2067 0.950 . S
C2073 C2072 1.327 . S
C2073 C2077 1.429 . S
C2074 C2057 1.574 . S
C2074 H2068 0.949 . S
C2074 C2078 1.368 . S
C2075 C2056 1.429 . S
C2075 C2069 1.429 . S
C2075 C2076 1.523 . S
C2076 C2057 1.368 . S
C2076 C2070 1.368 . S
C2076 C2075 1.523 . S
C2077 C2061 1.429 . S
C2077 C2073 1.429 . S
C2077 C2078 1.523 . S
C2078 C2062 1.368 . S
C2078 C2074 1.368 . S
C2078 C2077 1.523 . S
H2079 C2054 0.950 . S
H2080 C2056 0.950 . S
H2081 C2057 0.949 . S
H2082 C2059 0.950 . S
H2083 C2061 0.950 . S
C2084 C2085 1.349 . S
C2084 C2086 1.327 . S
C2084 H2109 0.950 . S
C2085 C2084 1.349 . S
C2085 C2101 1.349 . S
C2086 C2084 1.327 . S
C2086 C2105 1.429 . S
C2086 H2110 0.950 . S
C2087 C2104 1.574 . S
C2087 C2106 1.368 . S
C2087 H2111 0.949 . S
H2088 C2092 0.949 . S
C2089 C2090 1.349 . S
C2089 C2091 1.327 . S
C2089 H2112 0.950 . S
C2090 C2089 1.349 . S
C2090 C2102 1.352 . S
C2091 C2089 1.327 . S
C2091 C2107 1.429 . S
C2091 H2113 0.950 . S
C2092 H2088 0.949 . S
C2092 C2100 1.574 . S
C2092 C2108 1.368 . S
H2093 C2101 0.950 . S
H2094 C2099 0.950 . S
H2095 C2100 0.949 . S
H2096 C2102 0.944 1_554 S
H2097 C2103 0.950 . S
H2098 C2104 0.949 . S
C2099 H2094 0.950 . S
C2099 C2101 1.327 . S
C2099 C2105 1.429 . S
C2100 C2092 1.574 . S
C2100 H2095 0.949 . S
C2100 C2106 1.368 . S
C2101 C2085 1.349 . S
C2101 H2093 0.950 . S
C2101 C2099 1.327 . S
C2102 C2090 1.352 . S
C2102 H2096 0.944 1_556 S
C2102 C2103 1.330 . S
C2103 H2097 0.950 . S
C2103 C2102 1.330 . S
C2103 C2107 1.429 . S
C2104 C2087 1.574 . S
C2104 H2098 0.949 . S
C2104 C2108 1.368 . S
C2105 C2086 1.429 . S
C2105 C2099 1.429 . S
C2105 C2106 1.523 . S
C2106 C2087 1.368 . S
C2106 C2100 1.368 . S
C2106 C2105 1.523 . S
C2107 C2091 1.429 . S
C2107 C2103 1.429 . S
C2107 C2108 1.523 . S
C2108 C2092 1.368 . S
C2108 C2104 1.368 . S
C2108 C2107 1.523 . S
H2109 C2084 0.950 . S
H2110 C2086 0.950 . S
H2111 C2087 0.949 . S
H2112 C2089 0.950 . S
H2113 C2091 0.950 . S
C2114 C2115 1.349 . S
C2114 C2116 1.327 . S
C2114 H2139 0.950 . S
C2115 C2114 1.349 . S
C2115 C2131 1.349 . S
C2116 C2114 1.327 . S
C2116 C2135 1.429 . S
C2116 H2140 0.950 . S
C2117 C2134 1.574 . S
C2117 C2136 1.368 . S
C2117 H2141 0.949 . S
H2118 C2122 0.949 . S
C2119 C2120 1.349 . S
C2119 C2121 1.327 . S
C2119 H2142 0.950 . S
C2120 C2119 1.349 . S
C2120 C2132 1.349 . S
C2121 C2119 1.327 . S
C2121 C2137 1.429 . S
C2121 H2143 0.950 . S
C2122 H2118 0.949 . S
C2122 C2130 1.574 . S
C2122 C2138 1.368 . S
H2123 C2131 0.950 . S
H2124 C2129 0.950 . S
H2125 C2130 0.949 . S
H2126 C2132 0.950 . S
H2127 C2133 0.950 . S
H2128 C2134 0.949 . S
C2129 H2124 0.950 . S
C2129 C2131 1.327 . S
C2129 C2135 1.429 . S
C2130 C2122 1.574 . S
C2130 H2125 0.949 . S
C2130 C2136 1.368 . S
C2131 C2115 1.349 . S
C2131 H2123 0.950 . S
C2131 C2129 1.327 . S
C2132 C2120 1.349 . S
C2132 H2126 0.950 . S
C2132 C2133 1.327 . S
C2133 H2127 0.950 . S
C2133 C2132 1.327 . S
C2133 C2137 1.429 . S
C2134 C2117 1.574 . S
C2134 H2128 0.949 . S
C2134 C2138 1.368 . S
C2135 C2116 1.429 . S
C2135 C2129 1.429 . S
C2135 C2136 1.523 . S
C2136 C2117 1.368 . S
C2136 C2130 1.368 . S
C2136 C2135 1.523 . S
C2137 C2121 1.429 . S
C2137 C2133 1.429 . S
C2137 C2138 1.523 . S
C2138 C2122 1.368 . S
C2138 C2134 1.368 . S
C2138 C2137 1.523 . S
H2139 C2114 0.950 . S
H2140 C2116 0.950 . S
H2141 C2117 0.949 . S
H2142 C2119 0.950 . S
H2143 C2121 0.950 . S
C2144 C2145 1.386 . S
C2144 C2146 1.327 . S
C2144 H2169 0.950 . S
C2145 C2144 1.386 . S
C2145 C2161 1.307 1_565 S
C2146 C2144 1.327 . S
C2146 C2165 1.429 1_565 S
C2146 H2170 0.950 . S
C2147 C2164 1.574 . S
C2147 C2166 1.368 . S
C2147 H2171 0.949 . S
H2148 C2152 0.949 . S
C2149 C2150 1.349 . S
C2149 C2151 1.327 . S
C2149 H2172 0.950 . S
C2150 C2149 1.349 . S
C2150 C2162 1.349 1_545 S
C2151 C2149 1.327 . S
C2151 C2167 1.429 . S
C2151 H2173 0.950 . S
C2152 H2148 0.949 . S
C2152 C2160 1.574 . S
C2152 C2168 1.368 1_565 S
H2153 C2161 0.950 . S
H2154 C2159 0.950 . S
H2155 C2160 0.949 . S
H2156 C2162 0.950 . S
H2157 C2163 0.950 . S
H2158 C2164 0.949 . S
C2159 H2154 0.950 . S
C2159 C2161 1.327 . S
C2159 C2165 1.429 . S
C2160 C2152 1.574 . S
C2160 H2155 0.949 . S
C2160 C2166 1.368 1_565 S
C2161 C2145 1.307 1_545 S
C2161 H2153 0.950 . S
C2161 C2159 1.327 . S
C2162 C2150 1.349 1_565 S
C2162 H2156 0.950 . S
C2162 C2163 1.327 . S
C2163 H2157 0.950 . S
C2163 C2162 1.327 . S
C2163 C2167 1.429 1_565 S
C2164 C2147 1.574 . S
C2164 H2158 0.949 . S
C2164 C2168 1.368 . S
C2165 C2146 1.429 1_545 S
C2165 C2159 1.429 . S
C2165 C2166 1.523 . S
C2166 C2147 1.368 . S
C2166 C2160 1.368 1_545 S
C2166 C2165 1.523 . S
C2167 C2151 1.429 . S
C2167 C2163 1.429 1_545 S
C2167 C2168 1.523 . S
C2168 C2152 1.368 1_545 S
C2168 C2164 1.368 . S
C2168 C2167 1.523 . S
H2169 C2144 0.950 . S
H2170 C2146 0.950 . S
H2171 C2147 0.949 . S
H2172 C2149 0.950 . S
H2173 C2151 0.950 . S
C2174 C2175 1.349 . S
C2174 C2176 1.327 . S
C2174 H2199 0.950 . S
C2175 C2174 1.349 . S
C2175 C2191 1.349 . S
C2176 C2174 1.327 . S
C2176 C2195 1.429 . S
C2176 H2200 0.950 . S
C2177 C2194 1.574 . S
C2177 C2196 1.368 . S
C2177 H2201 0.949 . S
H2178 C2182 0.949 . S
C2179 C2180 1.349 . S
C2179 C2181 1.327 . S
C2179 H2202 0.950 . S
C2180 C2179 1.349 . S
C2180 C2192 1.349 . S
C2181 C2179 1.327 . S
C2181 C2197 1.429 . S
C2181 H2203 0.950 . S
C2182 H2178 0.949 . S
C2182 C2190 1.574 . S
C2182 C2198 1.368 . S
H2183 C2191 0.950 . S
H2184 C2189 0.950 . S
H2185 C2190 0.949 . S
H2186 C2192 0.950 . S
H2187 C2193 0.950 . S
H2188 C2194 0.949 . S
C2189 H2184 0.950 . S
C2189 C2191 1.327 . S
C2189 C2195 1.429 . S
C2190 C2182 1.574 . S
C2190 H2185 0.949 . S
C2190 C2196 1.368 . S
C2191 C2175 1.349 . S
C2191 H2183 0.950 . S
C2191 C2189 1.327 . S
C2192 C2180 1.349 . S
C2192 H2186 0.950 . S
C2192 C2193 1.327 . S
C2193 H2187 0.950 . S
C2193 C2192 1.327 . S
C2193 C2197 1.429 . S
C2194 C2177 1.574 . S
C2194 H2188 0.949 . S
C2194 C2198 1.368 . S
C2195 C2176 1.429 . S
C2195 C2189 1.429 . S
C2195 C2196 1.523 . S
C2196 C2177 1.368 . S
C2196 C2190 1.368 . S
C2196 C2195 1.523 . S
C2197 C2181 1.429 . S
C2197 C2193 1.429 . S
C2197 C2198 1.523 . S
C2198 C2182 1.368 . S
C2198 C2194 1.368 . S
C2198 C2197 1.523 . S
H2199 C2174 0.950 . S
H2200 C2176 0.950 . S
H2201 C2177 0.949 . S
H2202 C2179 0.950 . S
H2203 C2181 0.950 . S
C2204 C2205 1.349 . S
C2204 C2206 1.327 . S
C2204 H2229 0.950 . S
C2205 C2204 1.349 . S
C2205 C2221 1.349 . S
C2206 C2204 1.327 . S
C2206 C2225 1.429 . S
C2206 H2230 0.950 . S
C2207 C2224 1.574 . S
C2207 C2226 1.368 . S
C2207 H2231 0.949 . S
H2208 C2212 0.949 . S
C2209 C2210 1.349 . S
C2209 C2211 1.327 . S
C2209 H2232 0.950 . S
C2210 C2209 1.349 . S
C2210 C2222 1.349 . S
C2211 C2209 1.327 . S
C2211 C2227 1.429 . S
C2211 H2233 0.950 . S
C2212 H2208 0.949 . S
C2212 C2220 1.574 . S
C2212 C2228 1.368 . S
H2213 C2221 0.950 . S
H2214 C2219 0.950 . S
H2215 C2220 0.949 . S
H2216 C2222 0.950 . S
H2217 C2223 0.950 . S
H2218 C2224 0.949 . S
C2219 H2214 0.950 . S
C2219 C2221 1.327 . S
C2219 C2225 1.429 . S
C2220 C2212 1.574 . S
C2220 H2215 0.949 . S
C2220 C2226 1.368 . S
C2221 C2205 1.349 . S
C2221 H2213 0.950 . S
C2221 C2219 1.327 . S
C2222 C2210 1.349 . S
C2222 H2216 0.950 . S
C2222 C2223 1.327 . S
C2223 H2217 0.950 . S
C2223 C2222 1.327 . S
C2223 C2227 1.429 . S
C2224 C2207 1.574 . S
C2224 H2218 0.949 . S
C2224 C2228 1.368 . S
C2225 C2206 1.429 . S
C2225 C2219 1.429 . S
C2225 C2226 1.523 . S
C2226 C2207 1.368 . S
C2226 C2220 1.368 . S
C2226 C2225 1.523 . S
C2227 C2211 1.429 . S
C2227 C2223 1.429 . S
C2227 C2228 1.523 . S
C2228 C2212 1.368 . S
C2228 C2224 1.368 . S
C2228 C2227 1.523 . S
H2229 C2204 0.950 . S
H2230 C2206 0.950 . S
H2231 C2207 0.949 . S
H2232 C2209 0.950 . S
H2233 C2211 0.950 . S
C2234 C2235 1.349 . S
C2234 C2236 1.327 . S
C2234 H2259 0.950 . S
C2235 C2234 1.349 . S
C2235 C2251 1.349 . S
C2236 C2234 1.327 . S
C2236 C2255 1.429 . S
C2236 H2260 0.950 . S
C2237 C2254 1.574 . S
C2237 C2256 1.368 . S
C2237 H2261 0.949 . S
H2238 C2242 0.949 . S
C2239 C2240 1.349 . S
C2239 C2241 1.327 . S
C2239 H2262 0.950 . S
C2240 C2239 1.349 . S
C2240 C2252 1.349 . S
C2241 C2239 1.327 . S
C2241 C2257 1.429 . S
C2241 H2263 0.950 . S
C2242 H2238 0.949 . S
C2242 C2250 1.574 . S
C2242 C2258 1.368 . S
H2243 C2251 0.950 . S
H2244 C2249 0.950 . S
H2245 C2250 0.949 . S
H2246 C2252 0.950 . S
H2247 C2253 0.950 . S
H2248 C2254 0.949 . S
C2249 H2244 0.950 . S
C2249 C2251 1.327 . S
C2249 C2255 1.429 . S
C2250 C2242 1.574 . S
C2250 H2245 0.949 . S
C2250 C2256 1.368 . S
C2251 C2235 1.349 . S
C2251 H2243 0.950 . S
C2251 C2249 1.327 . S
C2252 C2240 1.349 . S
C2252 H2246 0.950 . S
C2252 C2253 1.327 . S
C2253 H2247 0.950 . S
C2253 C2252 1.327 . S
C2253 C2257 1.429 . S
C2254 C2237 1.574 . S
C2254 H2248 0.949 . S
C2254 C2258 1.368 . S
C2255 C2236 1.429 . S
C2255 C2249 1.429 . S
C2255 C2256 1.523 . S
C2256 C2237 1.368 . S
C2256 C2250 1.368 . S
C2256 C2255 1.523 . S
C2257 C2241 1.429 . S
C2257 C2253 1.429 . S
C2257 C2258 1.523 . S
C2258 C2242 1.368 . S
C2258 C2254 1.368 . S
C2258 C2257 1.523 . S
H2259 C2234 0.950 . S
H2260 C2236 0.950 . S
H2261 C2237 0.949 . S
H2262 C2239 0.950 . S
H2263 C2241 0.950 . S
C2264 C2265 1.346 1_545 S
C2264 C2266 1.340 . S
C2264 H2289 0.946 . S
C2265 C2264 1.346 1_565 S
C2265 C2281 1.349 . S
C2266 C2264 1.340 . S
C2266 C2285 1.429 . S
C2266 H2290 0.950 . S
C2267 C2284 1.574 . S
C2267 C2286 1.368 . S
C2267 H2291 0.949 . S
H2268 C2272 0.949 . S
C2269 C2270 1.349 . S
C2269 C2271 1.327 . S
C2269 H2292 0.894 1_455 S
C2270 C2269 1.349 . S
C2270 C2282 1.349 . S
C2271 C2269 1.327 . S
C2271 C2287 1.429 . S
C2271 H2293 0.950 . S
C2272 H2268 0.949 . S
C2272 C2280 1.574 . S
C2272 C2288 1.368 . S
H2273 C2281 0.950 . S
H2274 C2279 0.950 . S
H2275 C2280 0.949 . S
H2276 C2282 0.950 . S
H2277 C2283 0.950 . S
H2278 C2284 0.949 . S
C2279 H2274 0.950 . S
C2279 C2281 1.327 1_545 S
C2279 C2285 1.429 . S
C2280 C2272 1.574 . S
C2280 H2275 0.949 . S
C2280 C2286 1.368 . S
C2281 C2265 1.349 . S
C2281 H2273 0.950 . S
C2281 C2279 1.327 1_565 S
C2282 C2270 1.349 . S
C2282 H2276 0.950 . S
C2282 C2283 1.327 . S
C2283 H2277 0.950 . S
C2283 C2282 1.327 . S
C2283 C2287 1.429 . S
C2284 C2267 1.574 . S
C2284 H2278 0.949 . S
C2284 C2288 1.368 . S
C2285 C2266 1.429 . S
C2285 C2279 1.429 . S
C2285 C2286 1.523 . S
C2286 C2267 1.368 . S
C2286 C2280 1.368 . S
C2286 C2285 1.523 . S
C2287 C2271 1.429 . S
C2287 C2283 1.429 . S
C2287 C2288 1.523 . S
C2288 C2272 1.368 . S
C2288 C2284 1.368 . S
C2288 C2287 1.523 . S
H2289 C2264 0.946 . S
H2290 C2266 0.950 . S
H2291 C2267 0.949 . S
H2292 C2269 0.894 1_655 S
H2293 C2271 0.950 . S
C2294 C2295 1.349 . S
C2294 C2296 1.327 . S
C2294 H2319 0.950 . S
C2295 C2294 1.349 . S
C2295 C2311 1.349 . S
C2296 C2294 1.327 . S
C2296 C2315 1.429 . S
C2296 H2320 0.950 . S
C2297 C2314 1.574 . S
C2297 C2316 1.368 . S
C2297 H2321 0.949 . S
H2298 C2302 0.949 . S
C2299 C2300 1.349 . S
C2299 C2301 1.327 . S
C2299 H2322 0.950 . S
C2300 C2299 1.349 . S
C2300 C2312 1.349 . S
C2301 C2299 1.327 . S
C2301 C2317 1.429 . S
C2301 H2323 0.950 . S
C2302 H2298 0.949 . S
C2302 C2310 1.574 . S
C2302 C2318 1.368 . S
H2303 C2311 0.950 . S
H2304 C2309 0.950 . S
H2305 C2310 0.949 . S
H2306 C2312 0.950 . S
H2307 C2313 0.950 . S
H2308 C2314 0.949 . S
C2309 H2304 0.950 . S
C2309 C2311 1.327 . S
C2309 C2315 1.429 . S
C2310 C2302 1.574 . S
C2310 H2305 0.949 . S
C2310 C2316 1.368 . S
C2311 C2295 1.349 . S
C2311 H2303 0.950 . S
C2311 C2309 1.327 . S
C2312 C2300 1.349 . S
C2312 H2306 0.950 . S
C2312 C2313 1.327 . S
C2313 H2307 0.950 . S
C2313 C2312 1.327 . S
C2313 C2317 1.429 . S
C2314 C2297 1.574 . S
C2314 H2308 0.949 . S
C2314 C2318 1.368 . S
C2315 C2296 1.429 . S
C2315 C2309 1.429 . S
C2315 C2316 1.523 . S
C2316 C2297 1.368 . S
C2316 C2310 1.368 . S
C2316 C2315 1.523 . S
C2317 C2301 1.429 . S
C2317 C2313 1.429 . S
C2317 C2318 1.523 . S
C2318 C2302 1.368 . S
C2318 C2314 1.368 . S
C2318 C2317 1.523 . S
H2319 C2294 0.950 . S
H2320 C2296 0.950 . S
H2321 C2297 0.949 . S
H2322 C2299 0.950 . S
H2323 C2301 0.950 . S
C2324 C2325 1.349 . S
C2324 C2326 1.327 . S
C2324 H2349 0.950 . S
C2325 C2324 1.349 . S
C2325 C2341 1.349 . S
C2326 C2324 1.327 . S
C2326 C2345 1.429 . S
C2326 H2350 0.950 . S
C2327 C2344 1.574 . S
C2327 C2346 1.368 . S
C2327 H2351 0.949 . S
H2328 C2332 0.949 . S
C2329 C2330 1.349 . S
C2329 C2331 1.327 . S
C2329 H2352 0.950 . S
C2330 C2329 1.349 . S
C2330 C2342 1.349 . S
C2331 C2329 1.327 . S
C2331 C2347 1.429 . S
C2331 H2353 0.950 . S
C2332 H2328 0.949 . S
C2332 C2340 1.574 . S
C2332 C2348 1.368 . S
H2333 C2341 0.950 . S
H2334 C2339 0.950 . S
H2335 C2340 0.949 . S
H2336 C2342 0.950 . S
H2337 C2343 0.950 . S
H2338 C2344 0.949 . S
C2339 H2334 0.950 . S
C2339 C2341 1.327 . S
C2339 C2345 1.429 . S
C2340 C2332 1.574 . S
C2340 H2335 0.949 . S
C2340 C2346 1.368 . S
C2341 C2325 1.349 . S
C2341 H2333 0.950 . S
C2341 C2339 1.327 . S
C2342 C2330 1.349 . S
C2342 H2336 0.950 . S
C2342 C2343 1.327 . S
C2343 H2337 0.950 . S
C2343 C2342 1.327 . S
C2343 C2347 1.429 . S
C2344 C2327 1.574 . S
C2344 H2338 0.949 . S
C2344 C2348 1.368 . S
C2345 C2326 1.429 . S
C2345 C2339 1.429 . S
C2345 C2346 1.523 . S
C2346 C2327 1.368 . S
C2346 C2340 1.368 . S
C2346 C2345 1.523 . S
C2347 C2331 1.429 . S
C2347 C2343 1.429 . S
C2347 C2348 1.523 . S
C2348 C2332 1.368 . S
C2348 C2344 1.368 . S
C2348 C2347 1.523 . S
H2349 C2324 0.950 . S
H2350 C2326 0.950 . S
H2351 C2327 0.949 . S
H2352 C2329 0.950 . S
H2353 C2331 0.950 . S
C2354 C2355 1.349 . S
C2354 C2356 1.327 . S
C2354 H2379 0.950 . S
C2355 C2354 1.349 . S
C2355 C2371 1.349 . S
C2356 C2354 1.327 . S
C2356 C2375 1.429 . S
C2356 H2380 0.950 . S
C2357 C2374 1.574 . S
C2357 C2376 1.368 . S
C2357 H2381 0.949 . S
H2358 C2362 0.949 . S
C2359 C2360 1.349 . S
C2359 C2361 1.327 . S
C2359 H2382 0.950 . S
C2360 C2359 1.349 . S
C2360 C2372 1.349 . S
C2361 C2359 1.327 . S
C2361 C2377 1.429 . S
C2361 H2383 0.950 . S
C2362 H2358 0.949 . S
C2362 C2370 1.574 . S
C2362 C2378 1.368 . S
H2363 C2371 0.950 . S
H2364 C2369 0.950 . S
H2365 C2370 0.949 . S
H2366 C2372 0.950 . S
H2367 C2373 0.950 . S
H2368 C2374 0.949 . S
C2369 H2364 0.950 . S
C2369 C2371 1.327 . S
C2369 C2375 1.429 . S
C2370 C2362 1.574 . S
C2370 H2365 0.949 . S
C2370 C2376 1.368 . S
C2371 C2355 1.349 . S
C2371 H2363 0.950 . S
C2371 C2369 1.327 . S
C2372 C2360 1.349 . S
C2372 H2366 0.950 . S
C2372 C2373 1.327 . S
C2373 H2367 0.950 . S
C2373 C2372 1.327 . S
C2373 C2377 1.429 . S
C2374 C2357 1.574 . S
C2374 H2368 0.949 . S
C2374 C2378 1.368 . S
C2375 C2356 1.429 . S
C2375 C2369 1.429 . S
C2375 C2376 1.523 . S
C2376 C2357 1.368 . S
C2376 C2370 1.368 . S
C2376 C2375 1.523 . S
C2377 C2361 1.429 . S
C2377 C2373 1.429 . S
C2377 C2378 1.523 . S
C2378 C2362 1.368 . S
C2378 C2374 1.368 . S
C2378 C2377 1.523 . S
H2379 C2354 0.950 . S
H2380 C2356 0.950 . S
H2381 C2357 0.949 . S
H2382 C2359 0.950 . S
H2383 C2361 0.950 . S
C2384 C2385 1.329 1_556 S
C2384 C2386 1.327 . S
C2384 H2409 0.950 . S
C2385 C2384 1.329 1_554 S
C2385 C2401 1.368 . S
C2386 C2384 1.327 . S
C2386 C2405 1.412 1_556 S
C2386 H2410 0.950 . S
C2387 C2404 1.574 . S
C2387 C2406 1.386 . S
C2387 H2411 0.949 . S
H2388 C2392 0.949 . S
C2389 C2390 1.363 . S
C2389 C2391 1.327 . S
C2389 H2412 0.950 . S
C2390 C2389 1.363 . S
C2390 C2402 1.336 1_554 S
C2391 C2389 1.327 . S
C2391 C2407 1.443 . S
C2391 H2413 0.950 . S
C2392 H2388 0.949 . S
C2392 C2400 1.574 . S
C2392 C2408 1.352 1_556 S
H2393 C2401 0.950 . S
H2394 C2399 0.950 . S
H2395 C2400 0.949 . S
H2396 C2402 0.950 . S
H2397 C2403 0.950 . S
H2398 C2404 0.949 . S
C2399 H2394 0.950 . S
C2399 C2401 1.327 . S
C2399 C2405 1.447 . S
C2400 C2392 1.574 . S
C2400 H2395 0.949 . S
C2400 C2406 1.350 1_556 S
C2401 C2385 1.368 . S
C2401 H2393 0.950 . S
C2401 C2399 1.327 . S
C2402 C2390 1.336 1_556 S
C2402 H2396 0.950 . S
C2402 C2403 1.327 . S
C2403 H2397 0.950 . S
C2403 C2402 1.327 . S
C2403 C2407 1.414 1_556 S
C2404 C2387 1.574 . S
C2404 H2398 0.949 . S
C2404 C2408 1.386 . S
C2405 C2386 1.412 1_554 S
C2405 C2399 1.447 . S
C2405 C2406 1.523 . S
C2406 C2387 1.386 . S
C2406 C2400 1.350 1_554 S
C2406 C2405 1.523 . S
C2407 C2391 1.443 . S
C2407 C2403 1.414 1_554 S
C2407 C2408 1.523 . S
C2408 C2392 1.352 1_554 S
C2408 C2404 1.386 . S
C2408 C2407 1.523 . S
H2409 C2384 0.950 . S
H2410 C2386 0.950 . S
H2411 C2387 0.949 . S
H2412 C2389 0.950 . S
H2413 C2391 0.950 . S
C2414 C2415 1.349 . S
C2414 C2416 1.327 . S
C2414 H2439 0.950 1_554 S
C2415 C2414 1.349 . S
C2415 C2431 1.349 . S
C2416 C2414 1.327 . S
C2416 C2435 1.429 . S
C2416 H2440 0.950 1_554 S
C2417 C2434 1.574 . S
C2417 C2436 1.368 . S
C2417 H2441 0.949 . S
H2418 C2422 0.949 1_556 S
C2419 C2420 1.349 . S
C2419 C2421 1.327 . S
C2419 H2442 0.950 . S
C2420 C2419 1.349 . S
C2420 C2432 1.349 . S
C2421 C2419 1.327 . S
C2421 C2437 1.429 . S
C2421 H2443 0.950 . S
C2422 H2418 0.949 1_554 S
C2422 C2430 1.574 . S
C2422 C2438 1.368 . S
H2423 C2431 0.950 . S
H2424 C2429 0.950 . S
H2425 C2430 0.949 1_556 S
H2426 C2432 0.950 1_556 S
H2427 C2433 0.950 1_556 S
H2428 C2434 0.949 . S
C2429 H2424 0.950 . S
C2429 C2431 1.327 . S
C2429 C2435 1.429 . S
C2430 C2422 1.574 . S
C2430 H2425 0.949 1_554 S
C2430 C2436 1.368 . S
C2431 C2415 1.349 . S
C2431 H2423 0.950 . S
C2431 C2429 1.327 . S
C2432 C2420 1.349 . S
C2432 H2426 0.950 1_554 S
C2432 C2433 1.327 . S
C2433 H2427 0.950 1_554 S
C2433 C2432 1.327 . S
C2433 C2437 1.429 . S
C2434 C2417 1.574 . S
C2434 H2428 0.949 . S
C2434 C2438 1.368 . S
C2435 C2416 1.429 . S
C2435 C2429 1.429 . S
C2435 C2436 1.523 . S
C2436 C2417 1.368 . S
C2436 C2430 1.368 . S
C2436 C2435 1.523 . S
C2437 C2421 1.429 . S
C2437 C2433 1.429 . S
C2437 C2438 1.523 . S
C2438 C2422 1.368 . S
C2438 C2434 1.368 . S
C2438 C2437 1.523 . S
H2439 C2414 0.950 1_556 S
H2440 C2416 0.950 1_556 S
H2441 C2417 0.949 . S
H2442 C2419 0.950 . S
H2443 C2421 0.950 . S
C2444 C2445 1.349 . S
C2444 C2446 1.327 . S
C2444 H2469 0.950 . S
C2445 C2444 1.349 . S
C2445 C2461 1.349 . S
C2446 C2444 1.327 . S
C2446 C2465 1.429 . S
C2446 H2470 0.950 . S
C2447 C2464 1.574 . S
C2447 C2466 1.368 . S
C2447 H2471 0.949 . S
H2448 C2452 0.949 . S
C2449 C2450 1.349 . S
C2449 C2451 1.327 . S
C2449 H2472 0.950 . S
C2450 C2449 1.349 . S
C2450 C2462 1.349 . S
C2451 C2449 1.327 . S
C2451 C2467 1.429 . S
C2451 H2473 0.950 . S
C2452 H2448 0.949 . S
C2452 C2460 1.574 . S
C2452 C2468 1.368 . S
H2453 C2461 0.950 . S
H2454 C2459 0.950 . S
H2455 C2460 0.949 . S
H2456 C2462 0.950 . S
H2457 C2463 0.950 . S
H2458 C2464 0.949 . S
C2459 H2454 0.950 . S
C2459 C2461 1.327 . S
C2459 C2465 1.429 . S
C2460 C2452 1.574 . S
C2460 H2455 0.949 . S
C2460 C2466 1.368 . S
C2461 C2445 1.349 . S
C2461 H2453 0.950 . S
C2461 C2459 1.327 . S
C2462 C2450 1.349 . S
C2462 H2456 0.950 . S
C2462 C2463 1.327 . S
C2463 H2457 0.950 . S
C2463 C2462 1.327 . S
C2463 C2467 1.429 . S
C2464 C2447 1.574 . S
C2464 H2458 0.949 . S
C2464 C2468 1.368 . S
C2465 C2446 1.429 . S
C2465 C2459 1.429 . S
C2465 C2466 1.523 . S
C2466 C2447 1.368 . S
C2466 C2460 1.368 . S
C2466 C2465 1.523 . S
C2467 C2451 1.429 . S
C2467 C2463 1.429 . S
C2467 C2468 1.523 . S
C2468 C2452 1.368 . S
C2468 C2464 1.368 . S
C2468 C2467 1.523 . S
H2469 C2444 0.950 . S
H2470 C2446 0.950 . S
H2471 C2447 0.949 . S
H2472 C2449 0.950 . S
H2473 C2451 0.950 . S
C2474 C2475 1.349 . S
C2474 C2476 1.327 . S
C2474 H2499 0.950 . S
C2475 C2474 1.349 . S
C2475 C2491 1.349 . S
C2476 C2474 1.327 . S
C2476 C2495 1.429 . S
C2476 H2500 0.950 . S
C2477 C2494 1.574 . S
C2477 C2496 1.368 . S
C2477 H2501 0.949 . S
H2478 C2482 0.949 . S
C2479 C2480 1.349 . S
C2479 C2481 1.327 . S
C2479 H2502 0.950 . S
C2480 C2479 1.349 . S
C2480 C2492 1.349 . S
C2481 C2479 1.327 . S
C2481 C2497 1.429 . S
C2481 H2503 0.950 . S
C2482 H2478 0.949 . S
C2482 C2490 1.574 . S
C2482 C2498 1.368 . S
H2483 C2491 0.950 . S
H2484 C2489 0.950 . S
H2485 C2490 0.949 . S
H2486 C2492 0.950 . S
H2487 C2493 0.950 . S
H2488 C2494 0.949 . S
C2489 H2484 0.950 . S
C2489 C2491 1.327 . S
C2489 C2495 1.429 . S
C2490 C2482 1.574 . S
C2490 H2485 0.949 . S
C2490 C2496 1.368 . S
C2491 C2475 1.349 . S
C2491 H2483 0.950 . S
C2491 C2489 1.327 . S
C2492 C2480 1.349 . S
C2492 H2486 0.950 . S
C2492 C2493 1.327 . S
C2493 H2487 0.950 . S
C2493 C2492 1.327 . S
C2493 C2497 1.429 . S
C2494 C2477 1.574 . S
C2494 H2488 0.949 . S
C2494 C2498 1.368 . S
C2495 C2476 1.429 . S
C2495 C2489 1.429 . S
C2495 C2496 1.523 . S
C2496 C2477 1.368 . S
C2496 C2490 1.368 . S
C2496 C2495 1.523 . S
C2497 C2481 1.429 . S
C2497 C2493 1.429 . S
C2497 C2498 1.523 . S
C2498 C2482 1.368 . S
C2498 C2494 1.368 . S
C2498 C2497 1.523 . S
H2499 C2474 0.950 . S
H2500 C2476 0.950 . S
H2501 C2477 0.949 . S
H2502 C2479 0.950 . S
H2503 C2481 0.950 . S
C2504 C2505 1.349 . S
C2504 C2506 1.327 . S
C2504 H2529 0.950 . S
C2505 C2504 1.349 . S
C2505 C2521 1.349 . S
C2506 C2504 1.327 . S
C2506 C2525 1.429 . S
C2506 H2530 0.950 . S
C2507 C2524 1.574 . S
C2507 C2526 1.368 . S
C2507 H2531 0.949 . S
H2508 C2512 0.949 . S
C2509 C2510 1.349 . S
C2509 C2511 1.327 . S
C2509 H2532 0.950 . S
C2510 C2509 1.349 . S
C2510 C2522 1.349 . S
C2511 C2509 1.327 . S
C2511 C2527 1.429 . S
C2511 H2533 0.950 . S
C2512 H2508 0.949 . S
C2512 C2520 1.574 . S
C2512 C2528 1.368 . S
H2513 C2521 0.950 . S
H2514 C2519 0.950 . S
H2515 C2520 0.949 . S
H2516 C2522 0.950 . S
H2517 C2523 0.950 . S
H2518 C2524 0.949 . S
C2519 H2514 0.950 . S
C2519 C2521 1.327 . S
C2519 C2525 1.429 . S
C2520 C2512 1.574 . S
C2520 H2515 0.949 . S
C2520 C2526 1.368 . S
C2521 C2505 1.349 . S
C2521 H2513 0.950 . S
C2521 C2519 1.327 . S
C2522 C2510 1.349 . S
C2522 H2516 0.950 . S
C2522 C2523 1.327 . S
C2523 H2517 0.950 . S
C2523 C2522 1.327 . S
C2523 C2527 1.429 . S
C2524 C2507 1.574 . S
C2524 H2518 0.949 . S
C2524 C2528 1.368 . S
C2525 C2506 1.429 . S
C2525 C2519 1.429 . S
C2525 C2526 1.523 . S
C2526 C2507 1.368 . S
C2526 C2520 1.368 . S
C2526 C2525 1.523 . S
C2527 C2511 1.429 . S
C2527 C2523 1.429 . S
C2527 C2528 1.523 . S
C2528 C2512 1.368 . S
C2528 C2524 1.368 . S
C2528 C2527 1.523 . S
H2529 C2504 0.950 . S
H2530 C2506 0.950 . S
H2531 C2507 0.949 . S
H2532 C2509 0.950 . S
H2533 C2511 0.950 . S
C2534 C2535 1.349 . S
C2534 C2536 1.327 . S
C2534 H2559 0.950 . S
C2535 C2534 1.349 . S
C2535 C2551 1.349 . S
C2536 C2534 1.327 . S
C2536 C2555 1.429 . S
C2536 H2560 0.950 . S
C2537 C2554 1.574 . S
C2537 C2556 1.368 . S
C2537 H2561 0.949 . S
H2538 C2542 0.949 . S
C2539 C2540 1.349 . S
C2539 C2541 1.327 1_545 S
C2539 H2562 0.950 . S
C2540 C2539 1.349 . S
C2540 C2552 1.349 1_545 S
C2541 C2539 1.327 1_565 S
C2541 C2557 1.429 . S
C2541 H2563 0.948 1_565 S
C2542 H2538 0.949 . S
C2542 C2550 1.574 . S
C2542 C2558 1.368 . S
H2543 C2551 0.950 . S
H2544 C2549 0.950 . S
H2545 C2550 0.949 . S
H2546 C2552 0.950 . S
H2547 C2553 0.950 . S
H2548 C2554 0.949 . S
C2549 H2544 0.950 . S
C2549 C2551 1.327 . S
C2549 C2555 1.429 . S
C2550 C2542 1.574 . S
C2550 H2545 0.949 . S
C2550 C2556 1.368 . S
C2551 C2535 1.349 . S
C2551 H2543 0.950 . S
C2551 C2549 1.327 . S
C2552 C2540 1.349 1_565 S
C2552 H2546 0.950 . S
C2552 C2553 1.327 . S
C2553 H2547 0.950 . S
C2553 C2552 1.327 . S
C2553 C2557 1.429 . S
C2554 C2537 1.574 . S
C2554 H2548 0.949 . S
C2554 C2558 1.368 . S
C2555 C2536 1.429 . S
C2555 C2549 1.429 . S
C2555 C2556 1.523 . S
C2556 C2537 1.368 . S
C2556 C2550 1.368 . S
C2556 C2555 1.523 . S
C2557 C2541 1.429 . S
C2557 C2553 1.429 . S
C2557 C2558 1.523 . S
C2558 C2542 1.368 . S
C2558 C2554 1.368 . S
C2558 C2557 1.523 . S
H2559 C2534 0.950 . S
H2560 C2536 0.950 . S
H2561 C2537 0.949 . S
H2562 C2539 0.950 . S
H2563 C2541 0.948 1_545 S
C2564 C2565 1.349 . S
C2564 C2566 1.327 . S
C2564 H2589 0.950 . S
C2565 C2564 1.349 . S
C2565 C2581 1.349 . S
C2566 C2564 1.327 . S
C2566 C2585 1.429 . S
C2566 H2590 0.950 . S
C2567 C2584 1.574 . S
C2567 C2586 1.368 . S
C2567 H2591 0.949 . S
H2568 C2572 0.949 . S
C2569 C2570 1.349 . S
C2569 C2571 1.327 . S
C2569 H2592 0.950 . S
C2570 C2569 1.349 . S
C2570 C2582 1.349 . S
C2571 C2569 1.327 . S
C2571 C2587 1.429 . S
C2571 H2593 0.950 . S
C2572 H2568 0.949 . S
C2572 C2580 1.574 . S
C2572 C2588 1.368 . S
H2573 C2581 0.950 . S
H2574 C2579 0.950 . S
H2575 C2580 0.949 . S
H2576 C2582 0.950 . S
H2577 C2583 0.950 . S
H2578 C2584 0.949 . S
C2579 H2574 0.950 . S
C2579 C2581 1.327 . S
C2579 C2585 1.429 . S
C2580 C2572 1.574 . S
C2580 H2575 0.949 . S
C2580 C2586 1.368 . S
C2581 C2565 1.349 . S
C2581 H2573 0.950 . S
C2581 C2579 1.327 . S
C2582 C2570 1.349 . S
C2582 H2576 0.950 . S
C2582 C2583 1.327 . S
C2583 H2577 0.950 . S
C2583 C2582 1.327 . S
C2583 C2587 1.429 . S
C2584 C2567 1.574 . S
C2584 H2578 0.949 . S
C2584 C2588 1.368 . S
C2585 C2566 1.429 . S
C2585 C2579 1.429 . S
C2585 C2586 1.523 . S
C2586 C2567 1.368 . S
C2586 C2580 1.368 . S
C2586 C2585 1.523 . S
C2587 C2571 1.429 . S
C2587 C2583 1.429 . S
C2587 C2588 1.523 . S
C2588 C2572 1.368 . S
C2588 C2584 1.368 . S
C2588 C2587 1.523 . S
H2589 C2564 0.950 . S
H2590 C2566 0.950 . S
H2591 C2567 0.949 . S
H2592 C2569 0.950 . S
H2593 C2571 0.950 . S
C2594 C2595 1.349 . S
C2594 C2596 1.327 . S
C2594 H2619 0.950 . S
C2595 C2594 1.349 . S
C2595 C2611 1.349 . S
C2596 C2594 1.327 . S
C2596 C2615 1.429 . S
C2596 H2620 0.950 . S
C2597 C2614 1.574 . S
C2597 C2616 1.368 . S
C2597 H2621 0.949 . S
H2598 C2602 0.949 . S
C2599 C2600 1.349 . S
C2599 C2601 1.327 . S
C2599 H2622 0.950 . S
C2600 C2599 1.349 . S
C2600 C2612 1.349 . S
C2601 C2599 1.327 . S
C2601 C2617 1.429 . S
C2601 H2623 0.950 . S
C2602 H2598 0.949 . S
C2602 C2610 1.574 . S
C2602 C2618 1.368 . S
H2603 C2611 0.950 . S
H2604 C2609 0.950 . S
H2605 C2610 0.949 . S
H2606 C2612 0.950 . S
H2607 C2613 0.950 . S
H2608 C2614 0.949 . S
C2609 H2604 0.950 . S
C2609 C2611 1.327 . S
C2609 C2615 1.429 . S
C2610 C2602 1.574 . S
C2610 H2605 0.949 . S
C2610 C2616 1.368 . S
C2611 C2595 1.349 . S
C2611 H2603 0.950 . S
C2611 C2609 1.327 . S
C2612 C2600 1.349 . S
C2612 H2606 0.950 . S
C2612 C2613 1.327 . S
C2613 H2607 0.950 . S
C2613 C2612 1.327 . S
C2613 C2617 1.429 . S
C2614 C2597 1.574 . S
C2614 H2608 0.949 . S
C2614 C2618 1.368 . S
C2615 C2596 1.429 . S
C2615 C2609 1.429 . S
C2615 C2616 1.523 . S
C2616 C2597 1.368 . S
C2616 C2610 1.368 . S
C2616 C2615 1.523 . S
C2617 C2601 1.429 . S
C2617 C2613 1.429 . S
C2617 C2618 1.523 . S
C2618 C2602 1.368 . S
C2618 C2614 1.368 . S
C2618 C2617 1.523 . S
H2619 C2594 0.950 . S
H2620 C2596 0.950 . S
H2621 C2597 0.949 . S
H2622 C2599 0.950 . S
H2623 C2601 0.950 . S
C2624 C2625 1.349 . S
C2624 C2626 1.327 . S
C2624 H2649 0.950 . S
C2625 C2624 1.349 . S
C2625 C2641 1.349 . S
C2626 C2624 1.327 . S
C2626 C2645 1.429 . S
C2626 H2650 0.950 . S
C2627 C2644 1.574 . S
C2627 C2646 1.368 . S
C2627 H2651 0.949 . S
H2628 C2632 0.949 . S
C2629 C2630 1.349 . S
C2629 C2631 1.327 . S
C2629 H2652 0.950 . S
C2630 C2629 1.349 . S
C2630 C2642 1.349 . S
C2631 C2629 1.327 . S
C2631 C2647 1.429 . S
C2631 H2653 0.950 . S
C2632 H2628 0.949 . S
C2632 C2640 1.574 . S
C2632 C2648 1.368 . S
H2633 C2641 0.950 . S
H2634 C2639 0.950 . S
H2635 C2640 0.949 . S
H2636 C2642 0.950 . S
H2637 C2643 0.950 . S
H2638 C2644 0.949 . S
C2639 H2634 0.950 . S
C2639 C2641 1.327 . S
C2639 C2645 1.429 . S
C2640 C2632 1.574 . S
C2640 H2635 0.949 . S
C2640 C2646 1.368 . S
C2641 C2625 1.349 . S
C2641 H2633 0.950 . S
C2641 C2639 1.327 . S
C2642 C2630 1.349 . S
C2642 H2636 0.950 . S
C2642 C2643 1.327 . S
C2643 H2637 0.950 . S
C2643 C2642 1.327 . S
C2643 C2647 1.429 . S
C2644 C2627 1.574 . S
C2644 H2638 0.949 . S
C2644 C2648 1.368 . S
C2645 C2626 1.429 . S
C2645 C2639 1.429 . S
C2645 C2646 1.523 . S
C2646 C2627 1.368 . S
C2646 C2640 1.368 . S
C2646 C2645 1.523 . S
C2647 C2631 1.429 . S
C2647 C2643 1.429 . S
C2647 C2648 1.523 . S
C2648 C2632 1.368 . S
C2648 C2644 1.368 . S
C2648 C2647 1.523 . S
H2649 C2624 0.950 . S
H2650 C2626 0.950 . S
H2651 C2627 0.949 . S
H2652 C2629 0.950 . S
H2653 C2631 0.950 . S
C2654 C2655 1.349 . S
C2654 C2656 1.327 . S
C2654 H2679 0.950 . S
C2655 C2654 1.349 . S
C2655 C2671 1.349 . S
C2656 C2654 1.327 . S
C2656 C2675 1.429 . S
C2656 H2680 0.950 . S
C2657 C2674 1.574 . S
C2657 C2676 1.368 . S
C2657 H2681 0.949 . S
H2658 C2662 0.949 . S
C2659 C2660 1.349 . S
C2659 C2661 1.327 . S
C2659 H2682 0.950 . S
C2660 C2659 1.349 . S
C2660 C2672 1.349 . S
C2661 C2659 1.327 . S
C2661 C2677 1.429 . S
C2661 H2683 0.950 . S
C2662 H2658 0.949 . S
C2662 C2670 1.574 . S
C2662 C2678 1.368 . S
H2663 C2671 0.950 . S
H2664 C2669 0.950 . S
H2665 C2670 0.949 . S
H2666 C2672 0.950 . S
H2667 C2673 0.950 . S
H2668 C2674 0.949 . S
C2669 H2664 0.950 . S
C2669 C2671 1.327 . S
C2669 C2675 1.429 . S
C2670 C2662 1.574 . S
C2670 H2665 0.949 . S
C2670 C2676 1.368 . S
C2671 C2655 1.349 . S
C2671 H2663 0.950 . S
C2671 C2669 1.327 . S
C2672 C2660 1.349 . S
C2672 H2666 0.950 . S
C2672 C2673 1.327 . S
C2673 H2667 0.950 . S
C2673 C2672 1.327 . S
C2673 C2677 1.429 . S
C2674 C2657 1.574 . S
C2674 H2668 0.949 . S
C2674 C2678 1.368 . S
C2675 C2656 1.429 . S
C2675 C2669 1.429 . S
C2675 C2676 1.523 . S
C2676 C2657 1.368 . S
C2676 C2670 1.368 . S
C2676 C2675 1.523 . S
C2677 C2661 1.429 . S
C2677 C2673 1.429 . S
C2677 C2678 1.523 . S
C2678 C2662 1.368 . S
C2678 C2674 1.368 . S
C2678 C2677 1.523 . S
H2679 C2654 0.950 . S
H2680 C2656 0.950 . S
H2681 C2657 0.949 . S
H2682 C2659 0.950 . S
H2683 C2661 0.950 . S
C2684 C2685 1.349 . S
C2684 C2686 1.330 . S
C2684 H2709 0.950 1_455 S
C2685 C2684 1.349 . S
C2685 C2701 1.349 . S
C2686 C2684 1.330 . S
C2686 C2705 1.433 . S
C2686 H2710 0.942 1_455 S
C2687 C2704 1.574 . S
C2687 C2706 1.368 . S
C2687 H2711 0.949 . S
H2688 C2692 0.949 . S
C2689 C2690 1.349 . S
C2689 C2691 1.327 . S
C2689 H2712 0.950 1_556 S
C2690 C2689 1.349 . S
C2690 C2702 1.349 1_455 S
C2691 C2689 1.327 . S
C2691 C2707 1.429 . S
C2691 H2713 0.950 . S
C2692 H2688 0.949 . S
C2692 C2700 1.574 . S
C2692 C2708 1.368 1_655 S
H2693 C2701 0.950 . S
H2694 C2699 0.950 . S
H2695 C2700 0.949 . S
H2696 C2702 0.950 . S
H2697 C2703 0.950 . S
H2698 C2704 0.949 . S
C2699 H2694 0.950 . S
C2699 C2701 1.327 . S
C2699 C2705 1.429 . S
C2700 C2692 1.574 . S
C2700 H2695 0.949 . S
C2700 C2706 1.368 1_655 S
C2701 C2685 1.349 . S
C2701 H2693 0.950 . S
C2701 C2699 1.327 . S
C2702 C2690 1.349 1_655 S
C2702 H2696 0.950 . S
C2702 C2703 1.327 . S
C2703 H2697 0.950 . S
C2703 C2702 1.327 . S
C2703 C2707 1.429 1_655 S
C2704 C2687 1.574 . S
C2704 H2698 0.949 . S
C2704 C2708 1.368 . S
C2705 C2686 1.433 . S
C2705 C2699 1.429 . S
C2705 C2706 1.523 . S
C2706 C2687 1.368 . S
C2706 C2700 1.368 1_455 S
C2706 C2705 1.523 . S
C2707 C2691 1.429 . S
C2707 C2703 1.429 1_455 S
C2707 C2708 1.523 . S
C2708 C2692 1.368 1_455 S
C2708 C2704 1.368 . S
C2708 C2707 1.523 . S
H2709 C2684 0.950 1_655 S
H2710 C2686 0.942 1_655 S
H2711 C2687 0.949 . S
H2712 C2689 0.950 1_554 S
H2713 C2691 0.950 . S
C2714 C2715 1.349 . S
C2714 C2716 1.327 . S
C2714 H2739 0.950 . S
C2715 C2714 1.349 . S
C2715 C2731 1.349 . S
C2716 C2714 1.327 . S
C2716 C2735 1.429 . S
C2716 H2740 0.950 . S
C2717 C2734 1.574 . S
C2717 C2736 1.368 . S
C2717 H2741 0.949 . S
H2718 C2722 0.949 . S
C2719 C2720 1.349 . S
C2719 C2721 1.327 . S
C2719 H2742 0.950 . S
C2720 C2719 1.349 . S
C2720 C2732 1.349 . S
C2721 C2719 1.327 . S
C2721 C2737 1.429 . S
C2721 H2743 0.950 . S
C2722 H2718 0.949 . S
C2722 C2730 1.574 . S
C2722 C2738 1.368 . S
H2723 C2731 0.950 . S
H2724 C2729 0.950 . S
H2725 C2730 0.949 . S
H2726 C2732 0.950 . S
H2727 C2733 0.950 . S
H2728 C2734 0.949 . S
C2729 H2724 0.950 . S
C2729 C2731 1.327 . S
C2729 C2735 1.429 . S
C2730 C2722 1.574 . S
C2730 H2725 0.949 . S
C2730 C2736 1.368 . S
C2731 C2715 1.349 . S
C2731 H2723 0.950 . S
C2731 C2729 1.327 . S
C2732 C2720 1.349 . S
C2732 H2726 0.950 . S
C2732 C2733 1.327 . S
C2733 H2727 0.950 . S
C2733 C2732 1.327 . S
C2733 C2737 1.429 . S
C2734 C2717 1.574 . S
C2734 H2728 0.949 . S
C2734 C2738 1.368 . S
C2735 C2716 1.429 . S
C2735 C2729 1.429 . S
C2735 C2736 1.523 . S
C2736 C2717 1.368 . S
C2736 C2730 1.368 . S
C2736 C2735 1.523 . S
C2737 C2721 1.429 . S
C2737 C2733 1.429 . S
C2737 C2738 1.523 . S
C2738 C2722 1.368 . S
C2738 C2734 1.368 . S
C2738 C2737 1.523 . S
H2739 C2714 0.950 . S
H2740 C2716 0.950 . S
H2741 C2717 0.949 . S
H2742 C2719 0.950 . S
H2743 C2721 0.950 . S
C2744 C2745 1.349 . S
C2744 C2746 1.327 . S
C2744 H2769 0.950 . S
C2745 C2744 1.349 . S
C2745 C2761 1.349 . S
C2746 C2744 1.327 . S
C2746 C2765 1.429 . S
C2746 H2770 0.950 . S
C2747 C2764 1.574 . S
C2747 C2766 1.368 . S
C2747 H2771 0.949 . S
H2748 C2752 0.949 . S
C2749 C2750 1.349 . S
C2749 C2751 1.327 . S
C2749 H2772 0.950 . S
C2750 C2749 1.349 . S
C2750 C2762 1.349 . S
C2751 C2749 1.327 . S
C2751 C2767 1.429 . S
C2751 H2773 0.950 . S
C2752 H2748 0.949 . S
C2752 C2760 1.574 . S
C2752 C2768 1.368 . S
H2753 C2761 0.950 . S
H2754 C2759 0.950 . S
H2755 C2760 0.949 . S
H2756 C2762 0.950 . S
H2757 C2763 0.950 . S
H2758 C2764 0.949 . S
C2759 H2754 0.950 . S
C2759 C2761 1.327 . S
C2759 C2765 1.429 . S
C2760 C2752 1.574 . S
C2760 H2755 0.949 . S
C2760 C2766 1.368 . S
C2761 C2745 1.349 . S
C2761 H2753 0.950 . S
C2761 C2759 1.327 . S
C2762 C2750 1.349 . S
C2762 H2756 0.950 . S
C2762 C2763 1.327 . S
C2763 H2757 0.950 . S
C2763 C2762 1.327 . S
C2763 C2767 1.429 . S
C2764 C2747 1.574 . S
C2764 H2758 0.949 . S
C2764 C2768 1.368 . S
C2765 C2746 1.429 . S
C2765 C2759 1.429 . S
C2765 C2766 1.523 . S
C2766 C2747 1.368 . S
C2766 C2760 1.368 . S
C2766 C2765 1.523 . S
C2767 C2751 1.429 . S
C2767 C2763 1.429 . S
C2767 C2768 1.523 . S
C2768 C2752 1.368 . S
C2768 C2764 1.368 . S
C2768 C2767 1.523 . S
H2769 C2744 0.950 . S
H2770 C2746 0.950 . S
H2771 C2747 0.949 . S
H2772 C2749 0.950 . S
H2773 C2751 0.950 . S
C2774 C2775 1.349 . S
C2774 C2776 1.327 . S
C2774 H2799 0.950 . S
C2775 C2774 1.349 . S
C2775 C2791 1.349 . S
C2776 C2774 1.327 . S
C2776 C2795 1.429 . S
C2776 H2800 0.950 . S
C2777 C2794 1.574 . S
C2777 C2796 1.368 . S
C2777 H2801 0.949 . S
H2778 C2782 0.949 . S
C2779 C2780 1.349 . S
C2779 C2781 1.327 . S
C2779 H2802 0.950 . S
C2780 C2779 1.349 . S
C2780 C2792 1.349 . S
C2781 C2779 1.327 . S
C2781 C2797 1.429 . S
C2781 H2803 0.950 . S
C2782 H2778 0.949 . S
C2782 C2790 1.574 . S
C2782 C2798 1.368 . S
H2783 C2791 0.950 . S
H2784 C2789 0.950 . S
H2785 C2790 0.949 . S
H2786 C2792 0.950 . S
H2787 C2793 0.950 . S
H2788 C2794 0.949 . S
C2789 H2784 0.950 . S
C2789 C2791 1.327 . S
C2789 C2795 1.429 . S
C2790 C2782 1.574 . S
C2790 H2785 0.949 . S
C2790 C2796 1.368 . S
C2791 C2775 1.349 . S
C2791 H2783 0.950 . S
C2791 C2789 1.327 . S
C2792 C2780 1.349 . S
C2792 H2786 0.950 . S
C2792 C2793 1.327 . S
C2793 H2787 0.950 . S
C2793 C2792 1.327 . S
C2793 C2797 1.429 . S
C2794 C2777 1.574 . S
C2794 H2788 0.949 . S
C2794 C2798 1.368 . S
C2795 C2776 1.429 . S
C2795 C2789 1.429 . S
C2795 C2796 1.523 . S
C2796 C2777 1.368 . S
C2796 C2790 1.368 . S
C2796 C2795 1.523 . S
C2797 C2781 1.429 . S
C2797 C2793 1.429 . S
C2797 C2798 1.523 . S
C2798 C2782 1.368 . S
C2798 C2794 1.368 . S
C2798 C2797 1.523 . S
H2799 C2774 0.950 . S
H2800 C2776 0.950 . S
H2801 C2777 0.949 . S
H2802 C2779 0.950 . S
H2803 C2781 0.950 . S
C2804 C2805 1.349 1_455 S
C2804 C2806 1.327 . S
C2804 H2829 0.950 . S
C2805 C2804 1.349 1_655 S
C2805 C2821 1.349 . S
C2806 C2804 1.327 . S
C2806 C2825 1.429 1_455 S
C2806 H2830 0.950 . S
C2807 C2824 1.574 . S
C2807 C2826 1.368 . S
C2807 H2831 0.949 . S
H2808 C2812 0.949 . S
C2809 C2810 1.349 1_655 S
C2809 C2811 1.327 . S
C2809 H2832 0.950 . S
C2810 C2809 1.349 1_455 S
C2810 C2822 1.349 . S
C2811 C2809 1.327 . S
C2811 C2827 1.397 1_655 S
C2811 H2833 0.950 . S
C2812 H2808 0.949 . S
C2812 C2820 1.574 . S
C2812 C2828 1.369 1_455 S
H2813 C2821 0.950 . S
H2814 C2819 0.950 . S
H2815 C2820 0.949 . S
H2816 C2822 0.950 . S
H2817 C2823 0.950 . S
H2818 C2824 0.949 . S
C2819 H2814 0.950 . S
C2819 C2821 1.327 . S
C2819 C2825 1.429 . S
C2820 C2812 1.574 . S
C2820 H2815 0.949 . S
C2820 C2826 1.368 1_455 S
C2821 C2805 1.349 . S
C2821 H2813 0.950 . S
C2821 C2819 1.327 . S
C2822 C2810 1.349 . S
C2822 H2816 0.950 . S
C2822 C2823 1.327 . S
C2823 H2817 0.950 . S
C2823 C2822 1.327 . S
C2823 C2827 1.473 . S
C2824 C2807 1.574 . S
C2824 H2818 0.949 . S
C2824 C2828 1.367 . S
C2825 C2806 1.429 1_655 S
C2825 C2819 1.429 . S
C2825 C2826 1.523 . S
C2826 C2807 1.368 . S
C2826 C2820 1.368 1_655 S
C2826 C2825 1.523 . S
C2827 C2811 1.397 1_455 S
C2827 C2823 1.473 . S
C2827 C2828 1.513 1_455 S
C2828 C2812 1.369 1_655 S
C2828 C2824 1.367 . S
C2828 C2827 1.513 1_655 S
H2829 C2804 0.950 . S
H2830 C2806 0.950 . S
H2831 C2807 0.949 . S
H2832 C2809 0.950 . S
H2833 C2811 0.950 . S
C2834 C2835 1.349 . S
C2834 C2836 1.327 . S
C2834 H2859 0.950 . S
C2835 C2834 1.349 . S
C2835 C2851 1.349 . S
C2836 C2834 1.327 . S
C2836 C2855 1.429 . S
C2836 H2860 0.950 . S
C2837 C2854 1.574 . S
C2837 C2856 1.368 . S
C2837 H2861 0.949 . S
H2838 C2842 0.949 . S
C2839 C2840 1.349 . S
C2839 C2841 1.327 . S
C2839 H2862 0.950 . S
C2840 C2839 1.349 . S
C2840 C2852 1.349 . S
C2841 C2839 1.327 . S
C2841 C2857 1.429 . S
C2841 H2863 0.950 . S
C2842 H2838 0.949 . S
C2842 C2850 1.574 . S
C2842 C2858 1.368 . S
H2843 C2851 0.950 . S
H2844 C2849 0.950 . S
H2845 C2850 0.949 . S
H2846 C2852 0.950 . S
H2847 C2853 0.950 . S
H2848 C2854 0.949 . S
C2849 H2844 0.950 . S
C2849 C2851 1.327 . S
C2849 C2855 1.429 . S
C2850 C2842 1.574 . S
C2850 H2845 0.949 . S
C2850 C2856 1.368 . S
C2851 C2835 1.349 . S
C2851 H2843 0.950 . S
C2851 C2849 1.327 . S
C2852 C2840 1.349 . S
C2852 H2846 0.950 . S
C2852 C2853 1.327 . S
C2853 H2847 0.950 . S
C2853 C2852 1.327 . S
C2853 C2857 1.429 . S
C2854 C2837 1.574 . S
C2854 H2848 0.949 . S
C2854 C2858 1.368 . S
C2855 C2836 1.429 . S
C2855 C2849 1.429 . S
C2855 C2856 1.523 . S
C2856 C2837 1.368 . S
C2856 C2850 1.368 . S
C2856 C2855 1.523 . S
C2857 C2841 1.429 . S
C2857 C2853 1.429 . S
C2857 C2858 1.523 . S
C2858 C2842 1.368 . S
C2858 C2854 1.368 . S
C2858 C2857 1.523 . S
H2859 C2834 0.950 . S
H2860 C2836 0.950 . S
H2861 C2837 0.949 . S
H2862 C2839 0.950 . S
H2863 C2841 0.950 . S
C2864 C2865 1.349 . S
C2864 C2866 1.327 . S
C2864 H2889 0.950 . S
C2865 C2864 1.349 . S
C2865 C2881 1.349 . S
C2866 C2864 1.327 . S
C2866 C2885 1.429 . S
C2866 H2890 0.950 . S
C2867 C2884 1.574 . S
C2867 C2886 1.368 . S
C2867 H2891 0.949 . S
H2868 C2872 0.949 . S
C2869 C2870 1.349 . S
C2869 C2871 1.327 . S
C2869 H2892 0.950 . S
C2870 C2869 1.349 . S
C2870 C2882 1.349 . S
C2871 C2869 1.327 . S
C2871 C2887 1.429 . S
C2871 H2893 0.950 . S
C2872 H2868 0.949 . S
C2872 C2880 1.574 . S
C2872 C2888 1.368 . S
H2873 C2881 0.950 . S
H2874 C2879 0.950 . S
H2875 C2880 0.949 . S
H2876 C2882 0.950 . S
H2877 C2883 0.950 . S
H2878 C2884 0.949 . S
C2879 H2874 0.950 . S
C2879 C2881 1.327 . S
C2879 C2885 1.429 . S
C2880 C2872 1.574 . S
C2880 H2875 0.949 . S
C2880 C2886 1.368 . S
C2881 C2865 1.349 . S
C2881 H2873 0.950 . S
C2881 C2879 1.327 . S
C2882 C2870 1.349 . S
C2882 H2876 0.950 . S
C2882 C2883 1.327 . S
C2883 H2877 0.950 . S
C2883 C2882 1.327 . S
C2883 C2887 1.429 . S
C2884 C2867 1.574 . S
C2884 H2878 0.949 . S
C2884 C2888 1.368 . S
C2885 C2866 1.429 . S
C2885 C2879 1.429 . S
C2885 C2886 1.523 . S
C2886 C2867 1.368 . S
C2886 C2880 1.368 . S
C2886 C2885 1.523 . S
C2887 C2871 1.429 . S
C2887 C2883 1.429 . S
C2887 C2888 1.523 . S
C2888 C2872 1.368 . S
C2888 C2884 1.368 . S
C2888 C2887 1.523 . S
H2889 C2864 0.950 . S
H2890 C2866 0.950 . S
H2891 C2867 0.949 . S
H2892 C2869 0.950 . S
H2893 C2871 0.950 . S
C2894 C2895 1.349 . S
C2894 C2896 1.327 . S
C2894 H2919 0.950 . S
C2895 C2894 1.349 . S
C2895 C2911 1.349 . S
C2896 C2894 1.327 . S
C2896 C2915 1.429 . S
C2896 H2920 0.950 . S
C2897 C2914 1.574 . S
C2897 C2916 1.368 . S
C2897 H2921 0.949 . S
H2898 C2902 0.949 . S
C2899 C2900 1.349 . S
C2899 C2901 1.327 . S
C2899 H2922 0.950 . S
C2900 C2899 1.349 . S
C2900 C2912 1.349 . S
C2901 C2899 1.327 . S
C2901 C2917 1.429 . S
C2901 H2923 0.950 . S
C2902 H2898 0.949 . S
C2902 C2910 1.574 . S
C2902 C2918 1.368 . S
H2903 C2911 0.950 . S
H2904 C2909 0.950 . S
H2905 C2910 0.949 . S
H2906 C2912 0.950 . S
H2907 C2913 0.950 . S
H2908 C2914 0.949 . S
C2909 H2904 0.950 . S
C2909 C2911 1.327 . S
C2909 C2915 1.429 . S
C2910 C2902 1.574 . S
C2910 H2905 0.949 . S
C2910 C2916 1.368 . S
C2911 C2895 1.349 . S
C2911 H2903 0.950 . S
C2911 C2909 1.327 . S
C2912 C2900 1.349 . S
C2912 H2906 0.950 . S
C2912 C2913 1.327 . S
C2913 H2907 0.950 . S
C2913 C2912 1.327 . S
C2913 C2917 1.429 . S
C2914 C2897 1.574 . S
C2914 H2908 0.949 . S
C2914 C2918 1.368 . S
C2915 C2896 1.429 . S
C2915 C2909 1.429 . S
C2915 C2916 1.523 . S
C2916 C2897 1.368 . S
C2916 C2910 1.368 . S
C2916 C2915 1.523 . S
C2917 C2901 1.429 . S
C2917 C2913 1.429 . S
C2917 C2918 1.523 . S
C2918 C2902 1.368 . S
C2918 C2914 1.368 . S
C2918 C2917 1.523 . S
H2919 C2894 0.950 . S
H2920 C2896 0.950 . S
H2921 C2897 0.949 . S
H2922 C2899 0.950 . S
H2923 C2901 0.950 . S
C2924 C2925 1.349 . S
C2924 C2926 1.327 . S
C2924 H2949 0.950 . S
C2925 C2924 1.349 . S
C2925 C2941 1.349 . S
C2926 C2924 1.327 . S
C2926 C2945 1.429 . S
C2926 H2950 0.950 . S
C2927 C2944 1.574 . S
C2927 C2946 1.368 . S
C2927 H2951 0.949 . S
H2928 C2932 0.949 . S
C2929 C2930 1.349 . S
C2929 C2931 1.327 . S
C2929 H2952 0.926 1_455 S
C2930 C2929 1.349 . S
C2930 C2942 1.349 . S
C2931 C2929 1.327 . S
C2931 C2947 1.429 . S
C2931 H2953 0.950 . S
C2932 H2928 0.949 . S
C2932 C2940 1.574 . S
C2932 C2948 1.368 . S
H2933 C2941 0.950 . S
H2934 C2939 0.950 . S
H2935 C2940 0.949 . S
H2936 C2942 0.950 . S
H2937 C2943 0.950 . S
H2938 C2944 0.949 . S
C2939 H2934 0.950 . S
C2939 C2941 1.327 . S
C2939 C2945 1.429 . S
C2940 C2932 1.574 . S
C2940 H2935 0.949 . S
C2940 C2946 1.368 . S
C2941 C2925 1.349 . S
C2941 H2933 0.950 . S
C2941 C2939 1.327 . S
C2942 C2930 1.349 . S
C2942 H2936 0.950 . S
C2942 C2943 1.327 . S
C2943 H2937 0.950 . S
C2943 C2942 1.327 . S
C2943 C2947 1.429 . S
C2944 C2927 1.574 . S
C2944 H2938 0.949 . S
C2944 C2948 1.368 . S
C2945 C2926 1.429 . S
C2945 C2939 1.429 . S
C2945 C2946 1.523 . S
C2946 C2927 1.368 . S
C2946 C2940 1.368 . S
C2946 C2945 1.523 . S
C2947 C2931 1.429 . S
C2947 C2943 1.429 . S
C2947 C2948 1.523 . S
C2948 C2932 1.368 . S
C2948 C2944 1.368 . S
C2948 C2947 1.523 . S
H2949 C2924 0.950 . S
H2950 C2926 0.950 . S
H2951 C2927 0.949 . S
H2952 C2929 0.926 1_655 S
H2953 C2931 0.950 . S
C2954 C2955 1.349 . S
C2954 C2956 1.327 . S
C2954 H2979 0.950 . S
C2955 C2954 1.349 . S
C2955 C2971 1.349 . S
C2956 C2954 1.327 . S
C2956 C2975 1.429 . S
C2956 H2980 0.950 . S
C2957 C2974 1.574 . S
C2957 C2976 1.368 . S
C2957 H2981 0.949 . S
H2958 C2962 0.949 . S
C2959 C2960 1.349 . S
C2959 C2961 1.327 . S
C2959 H2982 0.950 . S
C2960 C2959 1.349 . S
C2960 C2972 1.349 . S
C2961 C2959 1.327 . S
C2961 C2977 1.429 . S
C2961 H2983 0.950 . S
C2962 H2958 0.949 . S
C2962 C2970 1.574 . S
C2962 C2978 1.368 . S
H2963 C2971 0.950 . S
H2964 C2969 0.950 . S
H2965 C2970 0.949 . S
H2966 C2972 0.950 . S
H2967 C2973 0.950 . S
H2968 C2974 0.949 . S
C2969 H2964 0.950 . S
C2969 C2971 1.327 . S
C2969 C2975 1.429 . S
C2970 C2962 1.574 . S
C2970 H2965 0.949 . S
C2970 C2976 1.368 . S
C2971 C2955 1.349 . S
C2971 H2963 0.950 . S
C2971 C2969 1.327 . S
C2972 C2960 1.349 . S
C2972 H2966 0.950 . S
C2972 C2973 1.327 . S
C2973 H2967 0.950 . S
C2973 C2972 1.327 . S
C2973 C2977 1.429 . S
C2974 C2957 1.574 . S
C2974 H2968 0.949 . S
C2974 C2978 1.368 . S
C2975 C2956 1.429 . S
C2975 C2969 1.429 . S
C2975 C2976 1.523 . S
C2976 C2957 1.368 . S
C2976 C2970 1.368 . S
C2976 C2975 1.523 . S
C2977 C2961 1.429 . S
C2977 C2973 1.429 . S
C2977 C2978 1.523 . S
C2978 C2962 1.368 . S
C2978 C2974 1.368 . S
C2978 C2977 1.523 . S
H2979 C2954 0.950 . S
H2980 C2956 0.950 . S
H2981 C2957 0.949 . S
H2982 C2959 0.950 . S
H2983 C2961 0.950 . S
C2984 C2985 1.349 . S
C2984 C2986 1.327 . S
C2984 H3009 0.950 . S
C2985 C2984 1.349 . S
C2985 C3001 1.349 . S
C2986 C2984 1.327 . S
C2986 C3005 1.429 . S
C2986 H3010 0.950 . S
C2987 C3004 1.574 . S
C2987 C3006 1.368 . S
C2987 H3011 0.949 . S
H2988 C2992 0.949 . S
C2989 C2990 1.349 . S
C2989 C2991 1.327 . S
C2989 H3012 0.950 . S
C2990 C2989 1.349 . S
C2990 C3002 1.349 . S
C2991 C2989 1.327 . S
C2991 C3007 1.429 . S
C2991 H3013 0.950 . S
C2992 H2988 0.949 . S
C2992 C3000 1.574 . S
C2992 C3008 1.368 . S
H2993 C3001 0.950 . S
H2994 C2999 0.950 . S
H2995 C3000 0.949 . S
H2996 C3002 0.950 . S
H2997 C3003 0.950 . S
H2998 C3004 0.949 . S
C2999 H2994 0.950 . S
C2999 C3001 1.327 . S
C2999 C3005 1.429 . S
C3000 C2992 1.574 . S
C3000 H2995 0.949 . S
C3000 C3006 1.368 . S
C3001 C2985 1.349 . S
C3001 H2993 0.950 . S
C3001 C2999 1.327 . S
C3002 C2990 1.349 . S
C3002 H2996 0.950 . S
C3002 C3003 1.327 . S
C3003 H2997 0.950 . S
C3003 C3002 1.327 . S
C3003 C3007 1.429 . S
C3004 C2987 1.574 . S
C3004 H2998 0.949 . S
C3004 C3008 1.368 . S
C3005 C2986 1.429 . S
C3005 C2999 1.429 . S
C3005 C3006 1.523 . S
C3006 C2987 1.368 . S
C3006 C3000 1.368 . S
C3006 C3005 1.523 . S
C3007 C2991 1.429 . S
C3007 C3003 1.429 . S
C3007 C3008 1.523 . S
C3008 C2992 1.368 . S
C3008 C3004 1.368 . S
C3008 C3007 1.523 . S
H3009 C2984 0.950 . S
H3010 C2986 0.950 . S
H3011 C2987 0.949 . S
H3012 C2989 0.950 . S
H3013 C2991 0.950 . S
C3014 C3015 1.349 . S
C3014 C3016 1.327 . S
C3014 H3039 0.950 . S
C3015 C3014 1.349 . S
C3015 C3031 1.349 . S
C3016 C3014 1.327 . S
C3016 C3035 1.429 . S
C3016 H3040 0.950 . S
C3017 C3034 1.574 . S
C3017 C3036 1.368 . S
C3017 H3041 0.949 . S
H3018 C3022 0.949 . S
C3019 C3020 1.349 . S
C3019 C3021 1.327 . S
C3019 H3042 0.950 . S
C3020 C3019 1.349 . S
C3020 C3032 1.349 . S
C3021 C3019 1.327 . S
C3021 C3037 1.429 . S
C3021 H3043 0.950 . S
C3022 H3018 0.949 . S
C3022 C3030 1.574 . S
C3022 C3038 1.368 . S
H3023 C3031 0.950 . S
H3024 C3029 0.950 . S
H3025 C3030 0.949 . S
H3026 C3032 0.950 . S
H3027 C3033 0.950 . S
H3028 C3034 0.949 . S
C3029 H3024 0.950 . S
C3029 C3031 1.327 . S
C3029 C3035 1.429 . S
C3030 C3022 1.574 . S
C3030 H3025 0.949 . S
C3030 C3036 1.368 . S
C3031 C3015 1.349 . S
C3031 H3023 0.950 . S
C3031 C3029 1.327 . S
C3032 C3020 1.349 . S
C3032 H3026 0.950 . S
C3032 C3033 1.327 . S
C3033 H3027 0.950 . S
C3033 C3032 1.327 . S
C3033 C3037 1.429 . S
C3034 C3017 1.574 . S
C3034 H3028 0.949 . S
C3034 C3038 1.368 . S
C3035 C3016 1.429 . S
C3035 C3029 1.429 . S
C3035 C3036 1.523 . S
C3036 C3017 1.368 . S
C3036 C3030 1.368 . S
C3036 C3035 1.523 . S
C3037 C3021 1.429 . S
C3037 C3033 1.429 . S
C3037 C3038 1.523 . S
C3038 C3022 1.368 . S
C3038 C3034 1.368 . S
C3038 C3037 1.523 . S
H3039 C3014 0.950 . S
H3040 C3016 0.950 . S
H3041 C3017 0.949 . S
H3042 C3019 0.950 . S
H3043 C3021 0.950 . S
C3044 C3045 1.349 . S
C3044 C3046 1.327 . S
C3044 H3069 0.950 . S
C3045 C3044 1.349 . S
C3045 C3061 1.349 . S
C3046 C3044 1.327 . S
C3046 C3065 1.429 . S
C3046 H3070 0.950 . S
C3047 C3064 1.574 . S
C3047 C3066 1.368 . S
C3047 H3071 0.949 . S
H3048 C3052 0.949 . S
C3049 C3050 1.349 . S
C3049 C3051 1.327 . S
C3049 H3072 0.950 . S
C3050 C3049 1.349 . S
C3050 C3062 1.349 . S
C3051 C3049 1.327 . S
C3051 C3067 1.429 . S
C3051 H3073 0.950 . S
C3052 H3048 0.949 . S
C3052 C3060 1.574 . S
C3052 C3068 1.368 . S
H3053 C3061 0.950 . S
H3054 C3059 0.950 . S
H3055 C3060 0.949 . S
H3056 C3062 0.950 . S
H3057 C3063 0.950 . S
H3058 C3064 0.949 . S
C3059 H3054 0.950 . S
C3059 C3061 1.327 . S
C3059 C3065 1.429 . S
C3060 C3052 1.574 . S
C3060 H3055 0.949 . S
C3060 C3066 1.368 . S
C3061 C3045 1.349 . S
C3061 H3053 0.950 . S
C3061 C3059 1.327 . S
C3062 C3050 1.349 . S
C3062 H3056 0.950 . S
C3062 C3063 1.327 . S
C3063 H3057 0.950 . S
C3063 C3062 1.327 . S
C3063 C3067 1.429 . S
C3064 C3047 1.574 . S
C3064 H3058 0.949 . S
C3064 C3068 1.368 . S
C3065 C3046 1.429 . S
C3065 C3059 1.429 . S
C3065 C3066 1.523 . S
C3066 C3047 1.368 . S
C3066 C3060 1.368 . S
C3066 C3065 1.523 . S
C3067 C3051 1.429 . S
C3067 C3063 1.429 . S
C3067 C3068 1.523 . S
C3068 C3052 1.368 . S
C3068 C3064 1.368 . S
C3068 C3067 1.523 . S
H3069 C3044 0.950 . S
H3070 C3046 0.950 . S
H3071 C3047 0.949 . S
H3072 C3049 0.950 . S
H3073 C3051 0.950 . S
C3074 C3075 1.349 . S
C3074 C3076 1.327 . S
C3074 H3099 0.950 . S
C3075 C3074 1.349 . S
C3075 C3091 1.349 . S
C3076 C3074 1.327 . S
C3076 C3095 1.429 . S
C3076 H3100 0.950 . S
C3077 C3094 1.574 . S
C3077 C3096 1.368 . S
C3077 H3101 0.949 . S
H3078 C3082 0.949 . S
C3079 C3080 1.349 . S
C3079 C3081 1.327 . S
C3079 H3102 0.950 . S
C3080 C3079 1.349 . S
C3080 C3092 1.349 . S
C3081 C3079 1.327 . S
C3081 C3097 1.429 . S
C3081 H3103 0.950 . S
C3082 H3078 0.949 . S
C3082 C3090 1.574 . S
C3082 C3098 1.368 . S
H3083 C3091 0.950 . S
H3084 C3089 0.950 . S
H3085 C3090 0.949 . S
H3086 C3092 0.950 . S
H3087 C3093 0.950 . S
H3088 C3094 0.949 . S
C3089 H3084 0.950 . S
C3089 C3091 1.327 . S
C3089 C3095 1.429 . S
C3090 C3082 1.574 . S
C3090 H3085 0.949 . S
C3090 C3096 1.368 . S
C3091 C3075 1.349 . S
C3091 H3083 0.950 . S
C3091 C3089 1.327 . S
C3092 C3080 1.349 . S
C3092 H3086 0.950 . S
C3092 C3093 1.327 . S
C3093 H3087 0.950 . S
C3093 C3092 1.327 . S
C3093 C3097 1.429 . S
C3094 C3077 1.574 . S
C3094 H3088 0.949 . S
C3094 C3098 1.368 . S
C3095 C3076 1.429 . S
C3095 C3089 1.429 . S
C3095 C3096 1.523 . S
C3096 C3077 1.368 . S
C3096 C3090 1.368 . S
C3096 C3095 1.523 . S
C3097 C3081 1.429 . S
C3097 C3093 1.429 . S
C3097 C3098 1.523 . S
C3098 C3082 1.368 . S
C3098 C3094 1.368 . S
C3098 C3097 1.523 . S
H3099 C3074 0.950 . S
H3100 C3076 0.950 . S
H3101 C3077 0.949 . S
H3102 C3079 0.950 . S
H3103 C3081 0.950 . S
C3104 C3105 1.349 . S
C3104 C3106 1.327 . S
C3104 H3129 0.950 . S
C3105 C3104 1.349 . S
C3105 C3121 1.349 . S
C3106 C3104 1.327 . S
C3106 C3125 1.429 . S
C3106 H3130 0.950 . S
C3107 C3124 1.574 . S
C3107 C3126 1.368 . S
C3107 H3131 0.949 . S
H3108 C3112 0.949 . S
C3109 C3110 1.349 . S
C3109 C3111 1.327 . S
C3109 H3132 0.950 . S
C3110 C3109 1.349 . S
C3110 C3122 1.349 . S
C3111 C3109 1.327 . S
C3111 C3127 1.429 . S
C3111 H3133 0.950 . S
C3112 H3108 0.949 . S
C3112 C3120 1.574 . S
C3112 C3128 1.368 . S
H3113 C3121 0.950 . S
H3114 C3119 0.950 . S
H3115 C3120 0.949 . S
H3116 C3122 0.950 . S
H3117 C3123 0.950 . S
H3118 C3124 0.949 . S
C3119 H3114 0.950 . S
C3119 C3121 1.327 . S
C3119 C3125 1.429 . S
C3120 C3112 1.574 . S
C3120 H3115 0.949 . S
C3120 C3126 1.368 . S
C3121 C3105 1.349 . S
C3121 H3113 0.950 . S
C3121 C3119 1.327 . S
C3122 C3110 1.349 . S
C3122 H3116 0.950 . S
C3122 C3123 1.327 . S
C3123 H3117 0.950 . S
C3123 C3122 1.327 . S
C3123 C3127 1.429 . S
C3124 C3107 1.574 . S
C3124 H3118 0.949 . S
C3124 C3128 1.368 . S
C3125 C3106 1.429 . S
C3125 C3119 1.429 . S
C3125 C3126 1.523 . S
C3126 C3107 1.368 . S
C3126 C3120 1.368 . S
C3126 C3125 1.523 . S
C3127 C3111 1.429 . S
C3127 C3123 1.429 . S
C3127 C3128 1.523 . S
C3128 C3112 1.368 . S
C3128 C3124 1.368 . S
C3128 C3127 1.523 . S
H3129 C3104 0.950 . S
H3130 C3106 0.950 . S
H3131 C3107 0.949 . S
H3132 C3109 0.950 . S
H3133 C3111 0.950 . S
C3134 C3135 1.349 . S
C3134 C3136 1.327 . S
C3134 H3159 0.950 . S
C3135 C3134 1.349 . S
C3135 C3151 1.349 . S
C3136 C3134 1.327 . S
C3136 C3155 1.429 . S
C3136 H3160 0.950 . S
C3137 C3154 1.574 . S
C3137 C3156 1.368 . S
C3137 H3161 0.949 . S
H3138 C3142 0.949 . S
C3139 C3140 1.349 . S
C3139 C3141 1.327 . S
C3139 H3162 0.950 . S
C3140 C3139 1.349 . S
C3140 C3152 1.349 . S
C3141 C3139 1.327 . S
C3141 C3157 1.429 . S
C3141 H3163 0.950 . S
C3142 H3138 0.949 . S
C3142 C3150 1.574 . S
C3142 C3158 1.368 . S
H3143 C3151 0.950 . S
H3144 C3149 0.950 . S
H3145 C3150 0.949 . S
H3146 C3152 0.950 . S
H3147 C3153 0.950 . S
H3148 C3154 0.949 . S
C3149 H3144 0.950 . S
C3149 C3151 1.327 . S
C3149 C3155 1.429 . S
C3150 C3142 1.574 . S
C3150 H3145 0.949 . S
C3150 C3156 1.368 . S
C3151 C3135 1.349 . S
C3151 H3143 0.950 . S
C3151 C3149 1.327 . S
C3152 C3140 1.349 . S
C3152 H3146 0.950 . S
C3152 C3153 1.327 . S
C3153 H3147 0.950 . S
C3153 C3152 1.327 . S
C3153 C3157 1.429 . S
C3154 C3137 1.574 . S
C3154 H3148 0.949 . S
C3154 C3158 1.368 . S
C3155 C3136 1.429 . S
C3155 C3149 1.429 . S
C3155 C3156 1.523 . S
C3156 C3137 1.368 . S
C3156 C3150 1.368 . S
C3156 C3155 1.523 . S
C3157 C3141 1.429 . S
C3157 C3153 1.429 . S
C3157 C3158 1.523 . S
C3158 C3142 1.368 . S
C3158 C3154 1.368 . S
C3158 C3157 1.523 . S
H3159 C3134 0.950 . S
H3160 C3136 0.950 . S
H3161 C3137 0.949 . S
H3162 C3139 0.950 . S
H3163 C3141 0.950 . S
C3164 C3165 1.349 . S
C3164 C3166 1.327 . S
C3164 H3189 0.950 . S
C3165 C3164 1.349 . S
C3165 C3181 1.349 . S
C3166 C3164 1.327 . S
C3166 C3185 1.429 . S
C3166 H3190 0.950 . S
C3167 C3184 1.574 . S
C3167 C3186 1.368 . S
C3167 H3191 0.949 . S
H3168 C3172 0.949 . S
C3169 C3170 1.349 . S
C3169 C3171 1.327 . S
C3169 H3192 0.950 . S
C3170 C3169 1.349 . S
C3170 C3182 1.349 . S
C3171 C3169 1.327 . S
C3171 C3187 1.429 . S
C3171 H3193 0.950 . S
C3172 H3168 0.949 . S
C3172 C3180 1.574 . S
C3172 C3188 1.368 . S
H3173 C3181 0.950 . S
H3174 C3179 0.950 . S
H3175 C3180 0.949 . S
H3176 C3182 0.950 . S
H3177 C3183 0.950 . S
H3178 C3184 0.949 . S
C3179 H3174 0.950 . S
C3179 C3181 1.327 . S
C3179 C3185 1.429 . S
C3180 C3172 1.574 . S
C3180 H3175 0.949 . S
C3180 C3186 1.368 . S
C3181 C3165 1.349 . S
C3181 H3173 0.950 . S
C3181 C3179 1.327 . S
C3182 C3170 1.349 . S
C3182 H3176 0.950 . S
C3182 C3183 1.327 . S
C3183 H3177 0.950 . S
C3183 C3182 1.327 . S
C3183 C3187 1.429 . S
C3184 C3167 1.574 . S
C3184 H3178 0.949 . S
C3184 C3188 1.368 . S
C3185 C3166 1.429 . S
C3185 C3179 1.429 . S
C3185 C3186 1.523 . S
C3186 C3167 1.368 . S
C3186 C3180 1.368 . S
C3186 C3185 1.523 . S
C3187 C3171 1.429 . S
C3187 C3183 1.429 . S
C3187 C3188 1.523 . S
C3188 C3172 1.368 . S
C3188 C3184 1.368 . S
C3188 C3187 1.523 . S
H3189 C3164 0.950 . S
H3190 C3166 0.950 . S
H3191 C3167 0.949 . S
H3192 C3169 0.950 . S
H3193 C3171 0.950 . S
C3194 C3195 1.349 . S
C3194 C3196 1.327 . S
C3194 H3219 0.950 . S
C3195 C3194 1.349 . S
C3195 C3211 1.349 . S
C3196 C3194 1.327 . S
C3196 C3215 1.429 . S
C3196 H3220 0.950 . S
C3197 C3214 1.574 . S
C3197 C3216 1.368 . S
C3197 H3221 0.949 . S
H3198 C3202 0.949 . S
C3199 C3200 1.349 . S
C3199 C3201 1.327 . S
C3199 H3222 0.950 . S
C3200 C3199 1.349 . S
C3200 C3212 1.349 1_545 S
C3201 C3199 1.327 . S
C3201 C3217 1.429 1_545 S
C3201 H3223 0.950 . S
C3202 H3198 0.949 . S
C3202 C3210 1.574 . S
C3202 C3218 1.368 . S
H3203 C3211 0.950 . S
H3204 C3209 0.950 . S
H3205 C3210 0.949 . S
H3206 C3212 0.950 . S
H3207 C3213 0.950 . S
H3208 C3214 0.949 1_545 S
C3209 H3204 0.950 . S
C3209 C3211 1.327 . S
C3209 C3215 1.429 . S
C3210 C3202 1.574 . S
C3210 H3205 0.949 . S
C3210 C3216 1.368 . S
C3211 C3195 1.349 . S
C3211 H3203 0.950 . S
C3211 C3209 1.327 . S
C3212 C3200 1.349 1_565 S
C3212 H3206 0.950 . S
C3212 C3213 1.327 . S
C3213 H3207 0.950 . S
C3213 C3212 1.327 . S
C3213 C3217 1.429 . S
C3214 C3197 1.574 . S
C3214 H3208 0.949 1_565 S
C3214 C3218 1.368 . S
C3215 C3196 1.429 . S
C3215 C3209 1.429 . S
C3215 C3216 1.523 . S
C3216 C3197 1.368 . S
C3216 C3210 1.368 . S
C3216 C3215 1.523 . S
C3217 C3201 1.429 1_565 S
C3217 C3213 1.429 . S
C3217 C3218 1.523 . S
C3218 C3202 1.368 . S
C3218 C3214 1.368 . S
C3218 C3217 1.523 . S
H3219 C3194 0.950 . S
H3220 C3196 0.950 . S
H3221 C3197 0.949 . S
H3222 C3199 0.950 . S
H3223 C3201 0.950 . S
C3224 C3225 1.349 . S
C3224 C3226 1.327 . S
C3224 H3249 0.950 . S
C3225 C3224 1.349 . S
C3225 C3241 1.349 . S
C3226 C3224 1.327 . S
C3226 C3245 1.429 . S
C3226 H3250 0.950 . S
C3227 C3244 1.574 . S
C3227 C3246 1.368 . S
C3227 H3251 0.949 . S
H3228 C3232 0.949 . S
C3229 C3230 1.349 . S
C3229 C3231 1.327 . S
C3229 H3252 0.950 . S
C3230 C3229 1.349 . S
C3230 C3242 1.349 . S
C3231 C3229 1.327 . S
C3231 C3247 1.429 . S
C3231 H3253 0.950 . S
C3232 H3228 0.949 . S
C3232 C3240 1.574 . S
C3232 C3248 1.368 . S
H3233 C3241 0.950 . S
H3234 C3239 0.950 . S
H3235 C3240 0.949 . S
H3236 C3242 0.950 . S
H3237 C3243 0.950 . S
H3238 C3244 0.949 . S
C3239 H3234 0.950 . S
C3239 C3241 1.327 . S
C3239 C3245 1.429 . S
C3240 C3232 1.574 . S
C3240 H3235 0.949 . S
C3240 C3246 1.368 . S
C3241 C3225 1.349 . S
C3241 H3233 0.950 . S
C3241 C3239 1.327 . S
C3242 C3230 1.349 . S
C3242 H3236 0.950 . S
C3242 C3243 1.327 . S
C3243 H3237 0.950 . S
C3243 C3242 1.327 . S
C3243 C3247 1.429 . S
C3244 C3227 1.574 . S
C3244 H3238 0.949 . S
C3244 C3248 1.368 . S
C3245 C3226 1.429 . S
C3245 C3239 1.429 . S
C3245 C3246 1.523 . S
C3246 C3227 1.368 . S
C3246 C3240 1.368 . S
C3246 C3245 1.523 . S
C3247 C3231 1.429 . S
C3247 C3243 1.429 . S
C3247 C3248 1.523 . S
C3248 C3232 1.368 . S
C3248 C3244 1.368 . S
C3248 C3247 1.523 . S
H3249 C3224 0.950 . S
H3250 C3226 0.950 . S
H3251 C3227 0.949 . S
H3252 C3229 0.950 . S
H3253 C3231 0.950 . S
C3254 C3255 1.349 . S
C3254 C3256 1.327 . S
C3254 H3279 0.950 . S
C3255 C3254 1.349 . S
C3255 C3271 1.349 . S
C3256 C3254 1.327 . S
C3256 C3275 1.429 . S
C3256 H3280 0.950 . S
C3257 C3274 1.574 . S
C3257 C3276 1.368 . S
C3257 H3281 0.949 . S
H3258 C3262 0.949 . S
C3259 C3260 1.349 . S
C3259 C3261 1.327 . S
C3259 H3282 0.950 . S
C3260 C3259 1.349 . S
C3260 C3272 1.349 . S
C3261 C3259 1.327 . S
C3261 C3277 1.429 . S
C3261 H3283 0.950 . S
C3262 H3258 0.949 . S
C3262 C3270 1.574 . S
C3262 C3278 1.368 . S
H3263 C3271 0.950 . S
H3264 C3269 0.950 . S
H3265 C3270 0.949 . S
H3266 C3272 0.950 . S
H3267 C3273 0.950 . S
H3268 C3274 0.949 . S
C3269 H3264 0.950 . S
C3269 C3271 1.327 . S
C3269 C3275 1.429 . S
C3270 C3262 1.574 . S
C3270 H3265 0.949 . S
C3270 C3276 1.368 . S
C3271 C3255 1.349 . S
C3271 H3263 0.950 . S
C3271 C3269 1.327 . S
C3272 C3260 1.349 . S
C3272 H3266 0.950 . S
C3272 C3273 1.327 . S
C3273 H3267 0.950 . S
C3273 C3272 1.327 . S
C3273 C3277 1.429 . S
C3274 C3257 1.574 . S
C3274 H3268 0.949 . S
C3274 C3278 1.368 . S
C3275 C3256 1.429 . S
C3275 C3269 1.429 . S
C3275 C3276 1.523 . S
C3276 C3257 1.368 . S
C3276 C3270 1.368 . S
C3276 C3275 1.523 . S
C3277 C3261 1.429 . S
C3277 C3273 1.429 . S
C3277 C3278 1.523 . S
C3278 C3262 1.368 . S
C3278 C3274 1.368 . S
C3278 C3277 1.523 . S
H3279 C3254 0.950 . S
H3280 C3256 0.950 . S
H3281 C3257 0.949 . S
H3282 C3259 0.950 . S
H3283 C3261 0.950 . S
C3284 C3285 1.349 . S
C3284 C3286 1.327 . S
C3284 H3309 0.950 . S
C3285 C3284 1.349 . S
C3285 C3301 1.349 . S
C3286 C3284 1.327 . S
C3286 C3305 1.429 . S
C3286 H3310 0.950 . S
C3287 C3304 1.574 . S
C3287 C3306 1.368 . S
C3287 H3311 0.949 . S
H3288 C3292 0.949 . S
C3289 C3290 1.349 . S
C3289 C3291 1.327 . S
C3289 H3312 0.950 . S
C3290 C3289 1.349 . S
C3290 C3302 1.349 . S
C3291 C3289 1.327 . S
C3291 C3307 1.429 . S
C3291 H3313 0.950 . S
C3292 H3288 0.949 . S
C3292 C3300 1.574 . S
C3292 C3308 1.368 . S
H3293 C3301 0.950 . S
H3294 C3299 0.950 . S
H3295 C3300 0.949 . S
H3296 C3302 0.950 . S
H3297 C3303 0.950 . S
H3298 C3304 0.949 . S
C3299 H3294 0.950 . S
C3299 C3301 1.327 . S
C3299 C3305 1.429 . S
C3300 C3292 1.574 . S
C3300 H3295 0.949 . S
C3300 C3306 1.368 . S
C3301 C3285 1.349 . S
C3301 H3293 0.950 . S
C3301 C3299 1.327 . S
C3302 C3290 1.349 . S
C3302 H3296 0.950 . S
C3302 C3303 1.327 . S
C3303 H3297 0.950 . S
C3303 C3302 1.327 . S
C3303 C3307 1.429 . S
C3304 C3287 1.574 . S
C3304 H3298 0.949 . S
C3304 C3308 1.368 . S
C3305 C3286 1.429 . S
C3305 C3299 1.429 . S
C3305 C3306 1.523 . S
C3306 C3287 1.368 . S
C3306 C3300 1.368 . S
C3306 C3305 1.523 . S
C3307 C3291 1.429 . S
C3307 C3303 1.429 . S
C3307 C3308 1.523 . S
C3308 C3292 1.368 . S
C3308 C3304 1.368 . S
C3308 C3307 1.523 . S
H3309 C3284 0.950 . S
H3310 C3286 0.950 . S
H3311 C3287 0.949 . S
H3312 C3289 0.950 . S
H3313 C3291 0.950 . S
C3314 C3315 1.349 1_565 S
C3314 C3316 1.327 . S
C3314 H3339 0.950 . S
C3315 C3314 1.349 1_545 S
C3315 C3331 1.349 1_545 S
C3316 C3314 1.327 . S
C3316 C3335 1.429 . S
C3316 H3340 0.950 . S
C3317 C3334 1.574 . S
C3317 C3336 1.368 . S
C3317 H3341 0.949 . S
H3318 C3322 0.949 . S
C3319 C3320 1.349 . S
C3319 C3321 1.327 . S
C3319 H3342 0.950 . S
C3320 C3319 1.349 . S
C3320 C3332 1.349 . S
C3321 C3319 1.327 . S
C3321 C3337 1.429 . S
C3321 H3343 0.950 . S
C3322 H3318 0.949 . S
C3322 C3330 1.574 . S
C3322 C3338 1.368 . S
H3323 C3331 0.950 1_545 S
H3324 C3329 0.950 . S
H3325 C3330 0.949 . S
H3326 C3332 0.950 . S
H3327 C3333 0.950 . S
H3328 C3334 0.949 . S
C3329 H3324 0.950 . S
C3329 C3331 1.327 . S
C3329 C3335 1.429 . S
C3330 C3322 1.574 . S
C3330 H3325 0.949 . S
C3330 C3336 1.368 . S
C3331 C3315 1.349 1_565 S
C3331 H3323 0.950 1_565 S
C3331 C3329 1.327 . S
C3332 C3320 1.349 . S
C3332 H3326 0.950 . S
C3332 C3333 1.327 . S
C3333 H3327 0.950 . S
C3333 C3332 1.327 . S
C3333 C3337 1.429 . S
C3334 C3317 1.574 . S
C3334 H3328 0.949 . S
C3334 C3338 1.368 . S
C3335 C3316 1.429 . S
C3335 C3329 1.429 . S
C3335 C3336 1.523 . S
C3336 C3317 1.368 . S
C3336 C3330 1.368 . S
C3336 C3335 1.523 . S
C3337 C3321 1.429 . S
C3337 C3333 1.429 . S
C3337 C3338 1.523 . S
C3338 C3322 1.368 . S
C3338 C3334 1.368 . S
C3338 C3337 1.523 . S
H3339 C3314 0.950 . S
H3340 C3316 0.950 . S
H3341 C3317 0.949 . S
H3342 C3319 0.950 . S
H3343 C3321 0.950 . S
C3344 C3345 1.349 . S
C3344 C3346 1.327 . S
C3344 H3369 0.950 . S
C3345 C3344 1.349 . S
C3345 C3361 1.349 . S
C3346 C3344 1.327 . S
C3346 C3365 1.429 . S
C3346 H3370 0.950 . S
C3347 C3364 1.574 . S
C3347 C3366 1.368 . S
C3347 H3371 0.949 . S
H3348 C3352 0.949 . S
C3349 C3350 1.349 . S
C3349 C3351 1.327 . S
C3349 H3372 0.950 . S
C3350 C3349 1.349 . S
C3350 C3362 1.349 . S
C3351 C3349 1.327 . S
C3351 C3367 1.429 . S
C3351 H3373 0.950 . S
C3352 H3348 0.949 . S
C3352 C3360 1.574 . S
C3352 C3368 1.368 . S
H3353 C3361 0.950 . S
H3354 C3359 0.950 . S
H3355 C3360 0.949 . S
H3356 C3362 0.950 . S
H3357 C3363 0.950 . S
H3358 C3364 0.949 . S
C3359 H3354 0.950 . S
C3359 C3361 1.327 . S
C3359 C3365 1.429 . S
C3360 C3352 1.574 . S
C3360 H3355 0.949 . S
C3360 C3366 1.368 . S
C3361 C3345 1.349 . S
C3361 H3353 0.950 . S
C3361 C3359 1.327 . S
C3362 C3350 1.349 . S
C3362 H3356 0.950 . S
C3362 C3363 1.327 . S
C3363 H3357 0.950 . S
C3363 C3362 1.327 . S
C3363 C3367 1.429 . S
C3364 C3347 1.574 . S
C3364 H3358 0.949 . S
C3364 C3368 1.368 . S
C3365 C3346 1.429 . S
C3365 C3359 1.429 . S
C3365 C3366 1.523 . S
C3366 C3347 1.368 . S
C3366 C3360 1.368 . S
C3366 C3365 1.523 . S
C3367 C3351 1.429 . S
C3367 C3363 1.429 . S
C3367 C3368 1.523 . S
C3368 C3352 1.368 . S
C3368 C3364 1.368 . S
C3368 C3367 1.523 . S
H3369 C3344 0.950 . S
H3370 C3346 0.950 . S
H3371 C3347 0.949 . S
H3372 C3349 0.950 . S
H3373 C3351 0.950 . S
C3374 C3375 1.349 . S
C3374 C3376 1.327 . S
C3374 H3399 0.950 . S
C3375 C3374 1.349 . S
C3375 C3391 1.349 . S
C3376 C3374 1.327 . S
C3376 C3395 1.429 . S
C3376 H3400 0.950 . S
C3377 C3394 1.574 . S
C3377 C3396 1.368 . S
C3377 H3401 0.949 . S
H3378 C3382 0.949 . S
C3379 C3380 1.349 . S
C3379 C3381 1.327 . S
C3379 H3402 0.950 . S
C3380 C3379 1.349 . S
C3380 C3392 1.349 . S
C3381 C3379 1.327 . S
C3381 C3397 1.429 . S
C3381 H3403 0.950 . S
C3382 H3378 0.949 . S
C3382 C3390 1.574 . S
C3382 C3398 1.368 . S
H3383 C3391 0.950 . S
H3384 C3389 0.950 . S
H3385 C3390 0.949 . S
H3386 C3392 0.950 . S
H3387 C3393 0.950 . S
H3388 C3394 0.949 . S
C3389 H3384 0.950 . S
C3389 C3391 1.327 . S
C3389 C3395 1.429 . S
C3390 C3382 1.574 . S
C3390 H3385 0.949 . S
C3390 C3396 1.368 . S
C3391 C3375 1.349 . S
C3391 H3383 0.950 . S
C3391 C3389 1.327 . S
C3392 C3380 1.349 . S
C3392 H3386 0.950 . S
C3392 C3393 1.327 . S
C3393 H3387 0.950 . S
C3393 C3392 1.327 . S
C3393 C3397 1.429 . S
C3394 C3377 1.574 . S
C3394 H3388 0.949 . S
C3394 C3398 1.368 . S
C3395 C3376 1.429 . S
C3395 C3389 1.429 . S
C3395 C3396 1.523 . S
C3396 C3377 1.368 . S
C3396 C3390 1.368 . S
C3396 C3395 1.523 . S
C3397 C3381 1.429 . S
C3397 C3393 1.429 . S
C3397 C3398 1.523 . S
C3398 C3382 1.368 . S
C3398 C3394 1.368 . S
C3398 C3397 1.523 . S
H3399 C3374 0.950 . S
H3400 C3376 0.950 . S
H3401 C3377 0.949 . S
H3402 C3379 0.950 . S
H3403 C3381 0.950 . S
C3404 C3405 1.349 . S
C3404 C3406 1.327 . S
C3404 H3429 0.950 . S
C3405 C3404 1.349 . S
C3405 C3421 1.349 1_455 S
C3406 C3404 1.327 . S
C3406 C3425 1.429 . S
C3406 H3430 0.950 . S
C3407 C3424 1.574 . S
C3407 C3426 1.368 1_655 S
C3407 H3431 0.949 . S
H3408 C3412 0.949 . S
C3409 C3410 1.349 . S
C3409 C3411 1.327 1_455 S
C3409 H3432 0.950 1_455 S
C3410 C3409 1.349 . S
C3410 C3422 1.349 . S
C3411 C3409 1.327 1_655 S
C3411 C3427 1.429 1_655 S
C3411 H3433 0.950 . S
C3412 H3408 0.949 . S
C3412 C3420 1.574 . S
C3412 C3428 1.368 . S
H3413 C3421 0.950 . S
H3414 C3419 0.950 . S
H3415 C3420 0.949 . S
H3416 C3422 0.950 . S
H3417 C3423 0.950 . S
H3418 C3424 0.949 . S
C3419 H3414 0.950 . S
C3419 C3421 1.327 . S
C3419 C3425 1.429 1_655 S
C3420 C3412 1.574 . S
C3420 H3415 0.949 . S
C3420 C3426 1.368 . S
C3421 C3405 1.349 1_655 S
C3421 H3413 0.950 . S
C3421 C3419 1.327 . S
C3422 C3410 1.349 . S
C3422 H3416 0.950 . S
C3422 C3423 1.327 . S
C3423 H3417 0.950 . S
C3423 C3422 1.327 . S
C3423 C3427 1.429 . S
C3424 C3407 1.574 . S
C3424 H3418 0.949 . S
C3424 C3428 1.368 1_655 S
C3425 C3406 1.429 . S
C3425 C3419 1.429 1_455 S
C3425 C3426 1.523 . S
C3426 C3407 1.368 1_455 S
C3426 C3420 1.368 . S
C3426 C3425 1.523 . S
C3427 C3411 1.429 1_455 S
C3427 C3423 1.429 . S
C3427 C3428 1.523 . S
C3428 C3412 1.368 . S
C3428 C3424 1.368 1_455 S
C3428 C3427 1.523 . S
H3429 C3404 0.950 . S
H3430 C3406 0.950 . S
H3431 C3407 0.949 . S
H3432 C3409 0.950 1_655 S
H3433 C3411 0.950 . S
C3434 C3435 1.349 . S
C3434 C3436 1.327 . S
C3434 H3459 0.950 . S
C3435 C3434 1.349 . S
C3435 C3451 1.349 . S
C3436 C3434 1.327 . S
C3436 C3455 1.429 . S
C3436 H3460 0.950 . S
C3437 C3454 1.574 . S
C3437 C3456 1.368 . S
C3437 H3461 0.949 . S
H3438 C3442 0.949 . S
C3439 C3440 1.349 . S
C3439 C3441 1.327 . S
C3439 H3462 0.950 . S
C3440 C3439 1.349 . S
C3440 C3452 1.349 . S
C3441 C3439 1.327 . S
C3441 C3457 1.429 . S
C3441 H3463 0.950 . S
C3442 H3438 0.949 . S
C3442 C3450 1.574 . S
C3442 C3458 1.368 . S
H3443 C3451 0.950 . S
H3444 C3449 0.950 . S
H3445 C3450 0.949 . S
H3446 C3452 0.950 . S
H3447 C3453 0.950 . S
H3448 C3454 0.949 . S
C3449 H3444 0.950 . S
C3449 C3451 1.327 . S
C3449 C3455 1.429 . S
C3450 C3442 1.574 . S
C3450 H3445 0.949 . S
C3450 C3456 1.368 . S
C3451 C3435 1.349 . S
C3451 H3443 0.950 . S
C3451 C3449 1.327 . S
C3452 C3440 1.349 . S
C3452 H3446 0.950 . S
C3452 C3453 1.327 . S
C3453 H3447 0.950 . S
C3453 C3452 1.327 . S
C3453 C3457 1.429 . S
C3454 C3437 1.574 . S
C3454 H3448 0.949 . S
C3454 C3458 1.368 . S
C3455 C3436 1.429 . S
C3455 C3449 1.429 . S
C3455 C3456 1.523 . S
C3456 C3437 1.368 . S
C3456 C3450 1.368 . S
C3456 C3455 1.523 . S
C3457 C3441 1.429 . S
C3457 C3453 1.429 . S
C3457 C3458 1.523 . S
C3458 C3442 1.368 . S
C3458 C3454 1.368 . S
C3458 C3457 1.523 . S
H3459 C3434 0.950 . S
H3460 C3436 0.950 . S
H3461 C3437 0.949 . S
H3462 C3439 0.950 . S
H3463 C3441 0.950 . S
C3464 C3465 1.349 . S
C3464 C3466 1.327 . S
C3464 H3489 0.950 . S
C3465 C3464 1.349 . S
C3465 C3481 1.349 . S
C3466 C3464 1.327 . S
C3466 C3485 1.429 . S
C3466 H3490 0.950 . S
C3467 C3484 1.574 . S
C3467 C3486 1.368 . S
C3467 H3491 0.949 . S
H3468 C3472 0.949 . S
C3469 C3470 1.349 . S
C3469 C3471 1.327 . S
C3469 H3492 0.950 . S
C3470 C3469 1.349 . S
C3470 C3482 1.349 . S
C3471 C3469 1.327 . S
C3471 C3487 1.429 . S
C3471 H3493 0.950 . S
C3472 H3468 0.949 . S
C3472 C3480 1.574 . S
C3472 C3488 1.368 . S
H3473 C3481 0.950 . S
H3474 C3479 0.950 . S
H3475 C3480 0.949 . S
H3476 C3482 0.950 1_554 S
H3477 C3483 0.950 . S
H3478 C3484 0.949 . S
C3479 H3474 0.950 . S
C3479 C3481 1.327 . S
C3479 C3485 1.429 . S
C3480 C3472 1.574 . S
C3480 H3475 0.949 . S
C3480 C3486 1.368 . S
C3481 C3465 1.349 . S
C3481 H3473 0.950 . S
C3481 C3479 1.327 . S
C3482 C3470 1.349 . S
C3482 H3476 0.950 1_556 S
C3482 C3483 1.327 . S
C3483 H3477 0.950 . S
C3483 C3482 1.327 . S
C3483 C3487 1.429 . S
C3484 C3467 1.574 . S
C3484 H3478 0.949 . S
C3484 C3488 1.368 . S
C3485 C3466 1.429 . S
C3485 C3479 1.429 . S
C3485 C3486 1.523 . S
C3486 C3467 1.368 . S
C3486 C3480 1.368 . S
C3486 C3485 1.523 . S
C3487 C3471 1.429 . S
C3487 C3483 1.429 . S
C3487 C3488 1.523 . S
C3488 C3472 1.368 . S
C3488 C3484 1.368 . S
C3488 C3487 1.523 . S
H3489 C3464 0.950 . S
H3490 C3466 0.950 . S
H3491 C3467 0.949 . S
H3492 C3469 0.950 . S
H3493 C3471 0.950 . S
C3494 C3495 1.349 . S
C3494 C3496 1.327 . S
C3494 H3519 0.950 . S
C3495 C3494 1.349 . S
C3495 C3511 1.349 . S
C3496 C3494 1.327 . S
C3496 C3515 1.429 . S
C3496 H3520 0.950 . S
C3497 C3514 1.574 . S
C3497 C3516 1.368 . S
C3497 H3521 0.949 . S
H3498 C3502 0.949 . S
C3499 C3500 1.349 . S
C3499 C3501 1.327 . S
C3499 H3522 0.950 . S
C3500 C3499 1.349 . S
C3500 C3512 1.349 . S
C3501 C3499 1.327 . S
C3501 C3517 1.429 . S
C3501 H3523 0.950 . S
C3502 H3498 0.949 . S
C3502 C3510 1.574 . S
C3502 C3518 1.368 . S
H3503 C3511 0.950 . S
H3504 C3509 0.950 . S
H3505 C3510 0.949 . S
H3506 C3512 0.950 . S
H3507 C3513 0.950 . S
H3508 C3514 0.949 . S
C3509 H3504 0.950 . S
C3509 C3511 1.327 . S
C3509 C3515 1.429 . S
C3510 C3502 1.574 . S
C3510 H3505 0.949 . S
C3510 C3516 1.368 . S
C3511 C3495 1.349 . S
C3511 H3503 0.950 . S
C3511 C3509 1.327 . S
C3512 C3500 1.349 . S
C3512 H3506 0.950 . S
C3512 C3513 1.327 . S
C3513 H3507 0.950 . S
C3513 C3512 1.327 . S
C3513 C3517 1.429 . S
C3514 C3497 1.574 . S
C3514 H3508 0.949 . S
C3514 C3518 1.368 . S
C3515 C3496 1.429 . S
C3515 C3509 1.429 . S
C3515 C3516 1.523 . S
C3516 C3497 1.368 . S
C3516 C3510 1.368 . S
C3516 C3515 1.523 . S
C3517 C3501 1.429 . S
C3517 C3513 1.429 . S
C3517 C3518 1.523 . S
C3518 C3502 1.368 . S
C3518 C3514 1.368 . S
C3518 C3517 1.523 . S
H3519 C3494 0.950 . S
H3520 C3496 0.950 . S
H3521 C3497 0.949 . S
H3522 C3499 0.950 . S
H3523 C3501 0.950 . S
C3524 C3525 1.349 . S
C3524 C3526 1.327 . S
C3524 H3549 0.950 1_455 S
C3525 C3524 1.349 . S
C3525 C3541 1.349 . S
C3526 C3524 1.327 . S
C3526 C3545 1.429 . S
C3526 H3550 0.950 1_455 S
C3527 C3544 1.574 . S
C3527 C3546 1.368 . S
C3527 H3551 0.949 . S
H3528 C3532 0.949 1_655 S
C3529 C3530 1.349 . S
C3529 C3531 1.327 . S
C3529 H3552 0.950 . S
C3530 C3529 1.349 . S
C3530 C3542 1.349 . S
C3531 C3529 1.327 . S
C3531 C3547 1.429 . S
C3531 H3553 0.950 . S
C3532 H3528 0.949 1_455 S
C3532 C3540 1.574 . S
C3532 C3548 1.368 . S
H3533 C3541 0.950 . S
H3534 C3539 0.950 . S
H3535 C3540 0.949 1_655 S
H3536 C3542 0.950 1_655 S
H3537 C3543 0.950 1_655 S
H3538 C3544 0.949 . S
C3539 H3534 0.950 . S
C3539 C3541 1.327 . S
C3539 C3545 1.429 . S
C3540 C3532 1.574 . S
C3540 H3535 0.949 1_455 S
C3540 C3546 1.368 . S
C3541 C3525 1.349 . S
C3541 H3533 0.950 . S
C3541 C3539 1.327 . S
C3542 C3530 1.349 . S
C3542 H3536 0.950 1_455 S
C3542 C3543 1.327 . S
C3543 H3537 0.950 1_455 S
C3543 C3542 1.327 . S
C3543 C3547 1.429 . S
C3544 C3527 1.574 . S
C3544 H3538 0.949 . S
C3544 C3548 1.368 . S
C3545 C3526 1.429 . S
C3545 C3539 1.429 . S
C3545 C3546 1.523 . S
C3546 C3527 1.368 . S
C3546 C3540 1.368 . S
C3546 C3545 1.523 . S
C3547 C3531 1.429 . S
C3547 C3543 1.429 . S
C3547 C3548 1.523 . S
C3548 C3532 1.368 . S
C3548 C3544 1.368 . S
C3548 C3547 1.523 . S
H3549 C3524 0.950 1_655 S
H3550 C3526 0.950 1_655 S
H3551 C3527 0.949 . S
H3552 C3529 0.950 . S
H3553 C3531 0.950 . S
C3554 C3555 1.349 . S
C3554 C3556 1.327 . S
C3554 H3579 0.950 . S
C3555 C3554 1.349 . S
C3555 C3571 1.349 . S
C3556 C3554 1.327 . S
C3556 C3575 1.429 . S
C3556 H3580 0.950 . S
C3557 C3574 1.574 . S
C3557 C3576 1.368 . S
C3557 H3581 0.949 . S
H3558 C3562 0.949 . S
C3559 C3560 1.349 . S
C3559 C3561 1.327 . S
C3559 H3582 0.950 . S
C3560 C3559 1.349 . S
C3560 C3572 1.349 . S
C3561 C3559 1.327 . S
C3561 C3577 1.429 . S
C3561 H3583 0.950 . S
C3562 H3558 0.949 . S
C3562 C3570 1.574 . S
C3562 C3578 1.368 . S
H3563 C3571 0.950 . S
H3564 C3569 0.950 . S
H3565 C3570 0.949 . S
H3566 C3572 0.950 . S
H3567 C3573 0.950 . S
H3568 C3574 0.949 . S
C3569 H3564 0.950 . S
C3569 C3571 1.327 . S
C3569 C3575 1.429 . S
C3570 C3562 1.574 . S
C3570 H3565 0.949 . S
C3570 C3576 1.368 . S
C3571 C3555 1.349 . S
C3571 H3563 0.950 . S
C3571 C3569 1.327 . S
C3572 C3560 1.349 . S
C3572 H3566 0.950 . S
C3572 C3573 1.327 . S
C3573 H3567 0.950 . S
C3573 C3572 1.327 . S
C3573 C3577 1.429 . S
C3574 C3557 1.574 . S
C3574 H3568 0.949 . S
C3574 C3578 1.368 . S
C3575 C3556 1.429 . S
C3575 C3569 1.429 . S
C3575 C3576 1.523 . S
C3576 C3557 1.368 . S
C3576 C3570 1.368 . S
C3576 C3575 1.523 . S
C3577 C3561 1.429 . S
C3577 C3573 1.429 . S
C3577 C3578 1.523 . S
C3578 C3562 1.368 . S
C3578 C3574 1.368 . S
C3578 C3577 1.523 . S
H3579 C3554 0.950 . S
H3580 C3556 0.950 . S
H3581 C3557 0.949 . S
H3582 C3559 0.950 . S
H3583 C3561 0.950 . S
C3584 C3585 1.349 . S
C3584 C3586 1.327 . S
C3584 H3609 0.950 . S
C3585 C3584 1.349 . S
C3585 C3601 1.349 . S
C3586 C3584 1.327 . S
C3586 C3605 1.429 . S
C3586 H3610 0.950 . S
C3587 C3604 1.574 . S
C3587 C3606 1.368 . S
C3587 H3611 0.949 . S
H3588 C3592 0.949 . S
C3589 C3590 1.349 . S
C3589 C3591 1.327 . S
C3589 H3612 0.950 . S
C3590 C3589 1.349 . S
C3590 C3602 1.349 . S
C3591 C3589 1.327 . S
C3591 C3607 1.429 . S
C3591 H3613 0.950 . S
C3592 H3588 0.949 . S
C3592 C3600 1.574 . S
C3592 C3608 1.368 . S
H3593 C3601 0.950 . S
H3594 C3599 0.950 . S
H3595 C3600 0.949 . S
H3596 C3602 0.950 . S
H3597 C3603 0.950 . S
H3598 C3604 0.949 . S
C3599 H3594 0.950 . S
C3599 C3601 1.327 . S
C3599 C3605 1.429 . S
C3600 C3592 1.574 . S
C3600 H3595 0.949 . S
C3600 C3606 1.368 . S
C3601 C3585 1.349 . S
C3601 H3593 0.950 . S
C3601 C3599 1.327 . S
C3602 C3590 1.349 . S
C3602 H3596 0.950 . S
C3602 C3603 1.327 . S
C3603 H3597 0.950 . S
C3603 C3602 1.327 . S
C3603 C3607 1.429 . S
C3604 C3587 1.574 . S
C3604 H3598 0.949 . S
C3604 C3608 1.368 . S
C3605 C3586 1.429 . S
C3605 C3599 1.429 . S
C3605 C3606 1.523 . S
C3606 C3587 1.368 . S
C3606 C3600 1.368 . S
C3606 C3605 1.523 . S
C3607 C3591 1.429 . S
C3607 C3603 1.429 . S
C3607 C3608 1.523 . S
C3608 C3592 1.368 . S
C3608 C3604 1.368 . S
C3608 C3607 1.523 . S
H3609 C3584 0.950 . S
H3610 C3586 0.950 . S
H3611 C3587 0.949 . S
H3612 C3589 0.950 . S
H3613 C3591 0.950 . S
C3614 C3615 1.349 . S
C3614 C3616 1.327 . S
C3614 H3639 0.950 . S
C3615 C3614 1.349 . S
C3615 C3631 1.349 . S
C3616 C3614 1.327 . S
C3616 C3635 1.429 . S
C3616 H3640 0.950 . S
C3617 C3634 1.574 . S
C3617 C3636 1.368 . S
C3617 H3641 0.949 . S
H3618 C3622 0.949 . S
C3619 C3620 1.349 . S
C3619 C3621 1.327 . S
C3619 H3642 0.950 . S
C3620 C3619 1.349 . S
C3620 C3632 1.349 . S
C3621 C3619 1.327 . S
C3621 C3637 1.429 . S
C3621 H3643 0.950 . S
C3622 H3618 0.949 . S
C3622 C3630 1.574 . S
C3622 C3638 1.368 . S
H3623 C3631 0.950 . S
H3624 C3629 0.950 . S
H3625 C3630 0.949 . S
H3626 C3632 0.950 . S
H3627 C3633 0.950 . S
H3628 C3634 0.949 . S
C3629 H3624 0.950 . S
C3629 C3631 1.327 . S
C3629 C3635 1.429 . S
C3630 C3622 1.574 . S
C3630 H3625 0.949 . S
C3630 C3636 1.368 . S
C3631 C3615 1.349 . S
C3631 H3623 0.950 . S
C3631 C3629 1.327 . S
C3632 C3620 1.349 . S
C3632 H3626 0.950 . S
C3632 C3633 1.327 . S
C3633 H3627 0.950 . S
C3633 C3632 1.327 . S
C3633 C3637 1.429 . S
C3634 C3617 1.574 . S
C3634 H3628 0.949 . S
C3634 C3638 1.368 . S
C3635 C3616 1.429 . S
C3635 C3629 1.429 . S
C3635 C3636 1.523 . S
C3636 C3617 1.368 . S
C3636 C3630 1.368 . S
C3636 C3635 1.523 . S
C3637 C3621 1.429 . S
C3637 C3633 1.429 . S
C3637 C3638 1.523 . S
C3638 C3622 1.368 . S
C3638 C3634 1.368 . S
C3638 C3637 1.523 . S
H3639 C3614 0.950 . S
H3640 C3616 0.950 . S
H3641 C3617 0.949 . S
H3642 C3619 0.950 . S
H3643 C3621 0.950 . S
C3644 C3645 1.349 . S
C3644 C3646 1.327 . S
C3644 H3669 0.950 . S
C3645 C3644 1.349 . S
C3645 C3661 1.349 . S
C3646 C3644 1.327 . S
C3646 C3665 1.429 . S
C3646 H3670 0.950 . S
C3647 C3664 1.574 . S
C3647 C3666 1.368 . S
C3647 H3671 0.949 . S
H3648 C3652 0.949 . S
C3649 C3650 1.349 . S
C3649 C3651 1.327 . S
C3649 H3672 0.950 . S
C3650 C3649 1.349 . S
C3650 C3662 1.349 . S
C3651 C3649 1.327 . S
C3651 C3667 1.429 . S
C3651 H3673 0.950 . S
C3652 H3648 0.949 . S
C3652 C3660 1.574 . S
C3652 C3668 1.368 . S
H3653 C3661 0.950 . S
H3654 C3659 0.950 . S
H3655 C3660 0.949 . S
H3656 C3662 0.950 1_455 S
H3657 C3663 0.950 . S
H3658 C3664 0.949 . S
C3659 H3654 0.950 . S
C3659 C3661 1.327 . S
C3659 C3665 1.429 . S
C3660 C3652 1.574 . S
C3660 H3655 0.949 . S
C3660 C3666 1.368 . S
C3661 C3645 1.349 . S
C3661 H3653 0.950 . S
C3661 C3659 1.327 . S
C3662 C3650 1.349 . S
C3662 H3656 0.950 1_655 S
C3662 C3663 1.327 . S
C3663 H3657 0.950 . S
C3663 C3662 1.327 . S
C3663 C3667 1.429 . S
C3664 C3647 1.574 . S
C3664 H3658 0.949 . S
C3664 C3668 1.368 . S
C3665 C3646 1.429 . S
C3665 C3659 1.429 . S
C3665 C3666 1.523 . S
C3666 C3647 1.368 . S
C3666 C3660 1.368 . S
C3666 C3665 1.523 . S
C3667 C3651 1.429 . S
C3667 C3663 1.429 . S
C3667 C3668 1.523 . S
C3668 C3652 1.368 . S
C3668 C3664 1.368 . S
C3668 C3667 1.523 . S
H3669 C3644 0.950 . S
H3670 C3646 0.950 . S
H3671 C3647 0.949 . S
H3672 C3649 0.950 . S
H3673 C3651 0.950 . S
C3674 C3675 1.349 . S
C3674 C3676 1.327 . S
C3674 H3699 0.950 . S
C3675 C3674 1.349 . S
C3675 C3691 1.349 . S
C3676 C3674 1.327 . S
C3676 C3695 1.429 . S
C3676 H3700 0.950 . S
C3677 C3694 1.574 . S
C3677 C3696 1.368 . S
C3677 H3701 0.949 . S
H3678 C3682 0.949 . S
C3679 C3680 1.349 . S
C3679 C3681 1.327 . S
C3679 H3702 0.950 . S
C3680 C3679 1.349 . S
C3680 C3692 1.349 . S
C3681 C3679 1.327 . S
C3681 C3697 1.429 . S
C3681 H3703 0.950 . S
C3682 H3678 0.949 . S
C3682 C3690 1.574 . S
C3682 C3698 1.368 . S
H3683 C3691 0.950 . S
H3684 C3689 0.950 . S
H3685 C3690 0.949 . S
H3686 C3692 0.950 . S
H3687 C3693 0.950 . S
H3688 C3694 0.949 . S
C3689 H3684 0.950 . S
C3689 C3691 1.327 . S
C3689 C3695 1.429 . S
C3690 C3682 1.574 . S
C3690 H3685 0.949 . S
C3690 C3696 1.368 . S
C3691 C3675 1.349 . S
C3691 H3683 0.950 . S
C3691 C3689 1.327 . S
C3692 C3680 1.349 . S
C3692 H3686 0.950 . S
C3692 C3693 1.327 . S
C3693 H3687 0.950 . S
C3693 C3692 1.327 . S
C3693 C3697 1.429 . S
C3694 C3677 1.574 . S
C3694 H3688 0.949 . S
C3694 C3698 1.368 . S
C3695 C3676 1.429 . S
C3695 C3689 1.429 . S
C3695 C3696 1.523 . S
C3696 C3677 1.368 . S
C3696 C3690 1.368 . S
C3696 C3695 1.523 . S
C3697 C3681 1.429 . S
C3697 C3693 1.429 . S
C3697 C3698 1.523 . S
C3698 C3682 1.368 . S
C3698 C3694 1.368 . S
C3698 C3697 1.523 . S
H3699 C3674 0.950 . S
H3700 C3676 0.950 . S
H3701 C3677 0.949 . S
H3702 C3679 0.950 . S
H3703 C3681 0.950 . S
C3704 C3705 1.349 . S
C3704 C3706 1.327 . S
C3704 H3729 0.950 . S
C3705 C3704 1.349 . S
C3705 C3721 1.349 . S
C3706 C3704 1.327 . S
C3706 C3725 1.429 . S
C3706 H3730 0.950 . S
C3707 C3724 1.574 . S
C3707 C3726 1.368 . S
C3707 H3731 0.949 . S
H3708 C3712 0.949 . S
C3709 C3710 1.349 . S
C3709 C3711 1.327 . S
C3709 H3732 0.950 . S
C3710 C3709 1.349 . S
C3710 C3722 1.349 . S
C3711 C3709 1.327 . S
C3711 C3727 1.429 . S
C3711 H3733 0.950 . S
C3712 H3708 0.949 . S
C3712 C3720 1.574 . S
C3712 C3728 1.368 . S
H3713 C3721 0.950 . S
H3714 C3719 0.950 . S
H3715 C3720 0.949 . S
H3716 C3722 0.950 . S
H3717 C3723 0.950 . S
H3718 C3724 0.949 . S
C3719 H3714 0.950 . S
C3719 C3721 1.327 . S
C3719 C3725 1.429 . S
C3720 C3712 1.574 . S
C3720 H3715 0.949 . S
C3720 C3726 1.368 . S
C3721 C3705 1.349 . S
C3721 H3713 0.950 . S
C3721 C3719 1.327 . S
C3722 C3710 1.349 . S
C3722 H3716 0.950 . S
C3722 C3723 1.327 . S
C3723 H3717 0.950 . S
C3723 C3722 1.327 . S
C3723 C3727 1.429 . S
C3724 C3707 1.574 . S
C3724 H3718 0.949 . S
C3724 C3728 1.368 . S
C3725 C3706 1.429 . S
C3725 C3719 1.429 . S
C3725 C3726 1.523 . S
C3726 C3707 1.368 . S
C3726 C3720 1.368 . S
C3726 C3725 1.523 . S
C3727 C3711 1.429 . S
C3727 C3723 1.429 . S
C3727 C3728 1.523 . S
C3728 C3712 1.368 . S
C3728 C3724 1.368 . S
C3728 C3727 1.523 . S
H3729 C3704 0.950 . S
H3730 C3706 0.950 . S
H3731 C3707 0.949 . S
H3732 C3709 0.950 . S
H3733 C3711 0.950 . S
C3734 C3735 1.349 . S
C3734 C3736 1.327 . S
C3734 H3759 0.950 . S
C3735 C3734 1.349 . S
C3735 C3751 1.349 . S
C3736 C3734 1.327 . S
C3736 C3755 1.429 . S
C3736 H3760 0.950 . S
C3737 C3754 1.574 . S
C3737 C3756 1.368 . S
C3737 H3761 0.949 . S
H3738 C3742 0.949 . S
C3739 C3740 1.349 . S
C3739 C3741 1.327 . S
C3739 H3762 0.950 . S
C3740 C3739 1.349 . S
C3740 C3752 1.349 . S
C3741 C3739 1.327 . S
C3741 C3757 1.429 . S
C3741 H3763 0.950 . S
C3742 H3738 0.949 . S
C3742 C3750 1.574 . S
C3742 C3758 1.368 . S
H3743 C3751 0.950 . S
H3744 C3749 0.950 . S
H3745 C3750 0.949 . S
H3746 C3752 0.950 . S
H3747 C3753 0.950 . S
H3748 C3754 0.949 . S
C3749 H3744 0.950 . S
C3749 C3751 1.327 . S
C3749 C3755 1.429 . S
C3750 C3742 1.574 . S
C3750 H3745 0.949 . S
C3750 C3756 1.368 . S
C3751 C3735 1.349 . S
C3751 H3743 0.950 . S
C3751 C3749 1.327 . S
C3752 C3740 1.349 . S
C3752 H3746 0.950 . S
C3752 C3753 1.327 . S
C3753 H3747 0.950 . S
C3753 C3752 1.327 . S
C3753 C3757 1.429 . S
C3754 C3737 1.574 . S
C3754 H3748 0.949 . S
C3754 C3758 1.368 . S
C3755 C3736 1.429 . S
C3755 C3749 1.429 . S
C3755 C3756 1.523 . S
C3756 C3737 1.368 . S
C3756 C3750 1.368 . S
C3756 C3755 1.523 . S
C3757 C3741 1.429 . S
C3757 C3753 1.429 . S
C3757 C3758 1.523 . S
C3758 C3742 1.368 . S
C3758 C3754 1.368 . S
C3758 C3757 1.523 . S
H3759 C3734 0.950 . S
H3760 C3736 0.950 . S
H3761 C3737 0.949 . S
H3762 C3739 0.950 . S
H3763 C3741 0.950 . S
C3764 C3765 1.349 . S
C3764 C3766 1.327 . S
C3764 H3789 0.950 . S
C3765 C3764 1.349 . S
C3765 C3781 1.349 . S
C3766 C3764 1.327 . S
C3766 C3785 1.429 . S
C3766 H3790 0.950 . S
C3767 C3784 1.574 . S
C3767 C3786 1.368 . S
C3767 H3791 0.949 . S
H3768 C3772 0.949 . S
C3769 C3770 1.349 . S
C3769 C3771 1.327 . S
C3769 H3792 0.950 1_655 S
C3770 C3769 1.349 . S
C3770 C3782 1.349 . S
C3771 C3769 1.327 . S
C3771 C3787 1.429 . S
C3771 H3793 0.950 . S
C3772 H3768 0.949 . S
C3772 C3780 1.574 . S
C3772 C3788 1.368 . S
H3773 C3781 0.950 . S
H3774 C3779 0.950 . S
H3775 C3780 0.949 . S
H3776 C3782 0.950 . S
H3777 C3783 0.950 . S
H3778 C3784 0.949 . S
C3779 H3774 0.950 . S
C3779 C3781 1.327 . S
C3779 C3785 1.429 . S
C3780 C3772 1.574 . S
C3780 H3775 0.949 . S
C3780 C3786 1.368 . S
C3781 C3765 1.349 . S
C3781 H3773 0.950 . S
C3781 C3779 1.327 . S
C3782 C3770 1.349 . S
C3782 H3776 0.950 . S
C3782 C3783 1.327 . S
C3783 H3777 0.950 . S
C3783 C3782 1.327 . S
C3783 C3787 1.429 . S
C3784 C3767 1.574 . S
C3784 H3778 0.949 . S
C3784 C3788 1.368 . S
C3785 C3766 1.429 . S
C3785 C3779 1.429 . S
C3785 C3786 1.523 . S
C3786 C3767 1.368 . S
C3786 C3780 1.368 . S
C3786 C3785 1.523 . S
C3787 C3771 1.429 . S
C3787 C3783 1.429 . S
C3787 C3788 1.523 . S
C3788 C3772 1.368 . S
C3788 C3784 1.368 . S
C3788 C3787 1.523 . S
H3789 C3764 0.950 . S
H3790 C3766 0.950 . S
H3791 C3767 0.949 . S
H3792 C3769 0.950 1_455 S
H3793 C3771 0.950 . S
C3794 C3795 1.349 . S
C3794 C3796 1.327 . S
C3794 H3819 0.950 . S
C3795 C3794 1.349 . S
C3795 C3811 1.349 . S
C3796 C3794 1.327 . S
C3796 C3815 1.429 . S
C3796 H3820 0.950 . S
C3797 C3814 1.574 . S
C3797 C3816 1.368 . S
C3797 H3821 0.949 . S
H3798 C3802 0.949 . S
C3799 C3800 1.349 . S
C3799 C3801 1.327 . S
C3799 H3822 0.950 . S
C3800 C3799 1.349 . S
C3800 C3812 1.349 . S
C3801 C3799 1.327 . S
C3801 C3817 1.429 . S
C3801 H3823 0.950 . S
C3802 H3798 0.949 . S
C3802 C3810 1.574 . S
C3802 C3818 1.368 . S
H3803 C3811 0.950 . S
H3804 C3809 0.950 . S
H3805 C3810 0.949 . S
H3806 C3812 0.950 . S
H3807 C3813 0.950 . S
H3808 C3814 0.949 . S
C3809 H3804 0.950 . S
C3809 C3811 1.327 . S
C3809 C3815 1.429 . S
C3810 C3802 1.574 . S
C3810 H3805 0.949 . S
C3810 C3816 1.368 . S
C3811 C3795 1.349 . S
C3811 H3803 0.950 . S
C3811 C3809 1.327 . S
C3812 C3800 1.349 . S
C3812 H3806 0.950 . S
C3812 C3813 1.327 . S
C3813 H3807 0.950 . S
C3813 C3812 1.327 . S
C3813 C3817 1.429 . S
C3814 C3797 1.574 . S
C3814 H3808 0.949 . S
C3814 C3818 1.368 . S
C3815 C3796 1.429 . S
C3815 C3809 1.429 . S
C3815 C3816 1.523 . S
C3816 C3797 1.368 . S
C3816 C3810 1.368 . S
C3816 C3815 1.523 . S
C3817 C3801 1.429 . S
C3817 C3813 1.429 . S
C3817 C3818 1.523 . S
C3818 C3802 1.368 . S
C3818 C3814 1.368 . S
C3818 C3817 1.523 . S
H3819 C3794 0.950 . S
H3820 C3796 0.950 . S
H3821 C3797 0.949 . S
H3822 C3799 0.950 . S
H3823 C3801 0.950 . S
C3824 C3825 1.349 . S
C3824 C3826 1.327 . S
C3824 H3849 0.950 . S
C3825 C3824 1.349 . S
C3825 C3841 1.349 . S
C3826 C3824 1.327 . S
C3826 C3845 1.429 . S
C3826 H3850 0.950 . S
C3827 C3844 1.574 . S
C3827 C3846 1.368 . S
C3827 H3851 0.949 . S
H3828 C3832 0.949 . S
C3829 C3830 1.349 . S
C3829 C3831 1.327 . S
C3829 H3852 0.950 . S
C3830 C3829 1.349 . S
C3830 C3842 1.349 . S
C3831 C3829 1.327 . S
C3831 C3847 1.429 . S
C3831 H3853 0.950 . S
C3832 H3828 0.949 . S
C3832 C3840 1.574 . S
C3832 C3848 1.368 . S
H3833 C3841 0.950 . S
H3834 C3839 0.950 . S
H3835 C3840 0.949 . S
H3836 C3842 0.950 . S
H3837 C3843 0.950 . S
H3838 C3844 0.949 . S
C3839 H3834 0.950 . S
C3839 C3841 1.327 . S
C3839 C3845 1.429 . S
C3840 C3832 1.574 . S
C3840 H3835 0.949 . S
C3840 C3846 1.368 . S
C3841 C3825 1.349 . S
C3841 H3833 0.950 . S
C3841 C3839 1.327 . S
C3842 C3830 1.349 . S
C3842 H3836 0.950 . S
C3842 C3843 1.327 . S
C3843 H3837 0.950 . S
C3843 C3842 1.327 . S
C3843 C3847 1.429 . S
C3844 C3827 1.574 . S
C3844 H3838 0.949 . S
C3844 C3848 1.368 . S
C3845 C3826 1.429 . S
C3845 C3839 1.429 . S
C3845 C3846 1.523 . S
C3846 C3827 1.368 . S
C3846 C3840 1.368 . S
C3846 C3845 1.523 . S
C3847 C3831 1.429 . S
C3847 C3843 1.429 . S
C3847 C3848 1.523 . S
C3848 C3832 1.368 . S
C3848 C3844 1.368 . S
C3848 C3847 1.523 . S
H3849 C3824 0.950 . S
H3850 C3826 0.950 . S
H3851 C3827 0.949 . S
H3852 C3829 0.950 . S
H3853 C3831 0.950 . S
C3854 C3855 1.349 . S
C3854 C3856 1.327 . S
C3854 H3879 0.950 . S
C3855 C3854 1.349 . S
C3855 C3871 1.349 . S
C3856 C3854 1.327 . S
C3856 C3875 1.429 . S
C3856 H3880 0.950 . S
C3857 C3874 1.574 . S
C3857 C3876 1.368 . S
C3857 H3881 0.949 . S
H3858 C3862 0.949 . S
C3859 C3860 1.349 . S
C3859 C3861 1.327 1_545 S
C3859 H3882 0.950 . S
C3860 C3859 1.349 . S
C3860 C3872 1.349 1_545 S
C3861 C3859 1.327 1_565 S
C3861 C3877 1.429 . S
C3861 H3883 0.950 . S
C3862 H3858 0.949 . S
C3862 C3870 1.574 . S
C3862 C3878 1.368 . S
H3863 C3871 0.950 . S
H3864 C3869 0.950 . S
H3865 C3870 0.949 . S
H3866 C3872 0.950 . S
H3867 C3873 0.950 . S
H3868 C3874 0.949 . S
C3869 H3864 0.950 . S
C3869 C3871 1.327 . S
C3869 C3875 1.429 . S
C3870 C3862 1.574 . S
C3870 H3865 0.949 . S
C3870 C3876 1.368 . S
C3871 C3855 1.349 . S
C3871 H3863 0.950 . S
C3871 C3869 1.327 . S
C3872 C3860 1.349 1_565 S
C3872 H3866 0.950 . S
C3872 C3873 1.327 . S
C3873 H3867 0.950 . S
C3873 C3872 1.327 . S
C3873 C3877 1.429 . S
C3874 C3857 1.574 . S
C3874 H3868 0.949 . S
C3874 C3878 1.368 . S
C3875 C3856 1.429 . S
C3875 C3869 1.429 . S
C3875 C3876 1.523 . S
C3876 C3857 1.368 . S
C3876 C3870 1.368 . S
C3876 C3875 1.523 . S
C3877 C3861 1.429 . S
C3877 C3873 1.429 . S
C3877 C3878 1.523 . S
C3878 C3862 1.368 . S
C3878 C3874 1.368 . S
C3878 C3877 1.523 . S
H3879 C3854 0.950 . S
H3880 C3856 0.950 . S
H3881 C3857 0.949 . S
H3882 C3859 0.950 . S
H3883 C3861 0.950 . S
C3884 C3885 1.349 . S
C3884 C3886 1.327 . S
C3884 H3909 0.950 . S
C3885 C3884 1.349 . S
C3885 C3901 1.349 . S
C3886 C3884 1.327 . S
C3886 C3905 1.429 . S
C3886 H3910 0.950 . S
C3887 C3904 1.574 . S
C3887 C3906 1.368 . S
C3887 H3911 0.949 . S
H3888 C3892 0.949 . S
C3889 C3890 1.349 . S
C3889 C3891 1.327 . S
C3889 H3912 0.950 . S
C3890 C3889 1.349 . S
C3890 C3902 1.349 . S
C3891 C3889 1.327 . S
C3891 C3907 1.429 . S
C3891 H3913 0.950 . S
C3892 H3888 0.949 . S
C3892 C3900 1.574 . S
C3892 C3908 1.368 . S
H3893 C3901 0.950 . S
H3894 C3899 0.950 . S
H3895 C3900 0.949 . S
H3896 C3902 0.950 . S
H3897 C3903 0.950 . S
H3898 C3904 0.949 . S
C3899 H3894 0.950 . S
C3899 C3901 1.327 . S
C3899 C3905 1.429 . S
C3900 C3892 1.574 . S
C3900 H3895 0.949 . S
C3900 C3906 1.368 . S
C3901 C3885 1.349 . S
C3901 H3893 0.950 . S
C3901 C3899 1.327 . S
C3902 C3890 1.349 . S
C3902 H3896 0.950 . S
C3902 C3903 1.327 . S
C3903 H3897 0.950 . S
C3903 C3902 1.327 . S
C3903 C3907 1.429 . S
C3904 C3887 1.574 . S
C3904 H3898 0.949 . S
C3904 C3908 1.368 . S
C3905 C3886 1.429 . S
C3905 C3899 1.429 . S
C3905 C3906 1.523 . S
C3906 C3887 1.368 . S
C3906 C3900 1.368 . S
C3906 C3905 1.523 . S
C3907 C3891 1.429 . S
C3907 C3903 1.429 . S
C3907 C3908 1.523 . S
C3908 C3892 1.368 . S
C3908 C3904 1.368 . S
C3908 C3907 1.523 . S
H3909 C3884 0.950 . S
H3910 C3886 0.950 . S
H3911 C3887 0.949 . S
H3912 C3889 0.950 . S
H3913 C3891 0.950 . S
C3914 C3915 1.349 1_554 S
C3914 C3916 1.327 . S
C3914 H3939 0.950 . S
C3915 C3914 1.349 1_556 S
C3915 C3931 1.349 . S
C3916 C3914 1.327 . S
C3916 C3935 1.428 . S
C3916 H3940 0.950 . S
C3917 C3934 1.574 . S
C3917 C3936 1.368 1_556 S
C3917 H3941 0.949 . S
H3918 C3922 0.949 . S
C3919 C3920 1.349 1_556 S
C3919 C3921 1.327 . S
C3919 H3942 0.950 . S
C3920 C3919 1.349 1_554 S
C3920 C3932 1.349 . S
C3921 C3919 1.327 . S
C3921 C3937 1.429 1_556 S
C3921 H3943 0.950 . S
C3922 H3918 0.949 . S
C3922 C3930 1.574 . S
C3922 C3938 1.368 . S
H3923 C3931 0.950 . S
H3924 C3929 0.950 . S
H3925 C3930 0.949 . S
H3926 C3932 0.950 . S
H3927 C3933 0.950 . S
H3928 C3934 0.949 . S
C3929 H3924 0.950 . S
C3929 C3931 1.327 . S
C3929 C3935 1.430 1_556 S
C3930 C3922 1.574 . S
C3930 H3925 0.949 . S
C3930 C3936 1.368 . S
C3931 C3915 1.349 . S
C3931 H3923 0.950 . S
C3931 C3929 1.327 . S
C3932 C3920 1.349 . S
C3932 H3926 0.950 . S
C3932 C3933 1.327 . S
C3933 H3927 0.950 . S
C3933 C3932 1.327 . S
C3933 C3937 1.429 . S
C3934 C3917 1.574 . S
C3934 H3928 0.949 . S
C3934 C3938 1.368 1_556 S
C3935 C3916 1.428 . S
C3935 C3929 1.430 1_554 S
C3935 C3936 1.523 . S
C3936 C3917 1.368 1_554 S
C3936 C3930 1.368 . S
C3936 C3935 1.523 . S
C3937 C3921 1.429 1_554 S
C3937 C3933 1.429 . S
C3937 C3938 1.523 . S
C3938 C3922 1.368 . S
C3938 C3934 1.368 1_554 S
C3938 C3937 1.523 . S
H3939 C3914 0.950 . S
H3940 C3916 0.950 . S
H3941 C3917 0.949 . S
H3942 C3919 0.950 . S
H3943 C3921 0.950 . S
C3944 C3945 1.349 . S
C3944 C3946 1.327 . S
C3944 H3969 0.950 . S
C3945 C3944 1.349 . S
C3945 C3961 1.349 . S
C3946 C3944 1.327 . S
C3946 C3965 1.429 . S
C3946 H3970 0.950 . S
C3947 C3964 1.574 . S
C3947 C3966 1.368 . S
C3947 H3971 0.949 . S
H3948 C3952 0.949 . S
C3949 C3950 1.349 . S
C3949 C3951 1.327 . S
C3949 H3972 0.950 . S
C3950 C3949 1.349 . S
C3950 C3962 1.349 . S
C3951 C3949 1.327 . S
C3951 C3967 1.429 . S
C3951 H3973 0.950 . S
C3952 H3948 0.949 . S
C3952 C3960 1.574 . S
C3952 C3968 1.368 . S
H3953 C3961 0.950 . S
H3954 C3959 0.950 . S
H3955 C3960 0.949 . S
H3956 C3962 0.950 . S
H3957 C3963 0.950 . S
H3958 C3964 0.949 . S
C3959 H3954 0.950 . S
C3959 C3961 1.327 . S
C3959 C3965 1.429 . S
C3960 C3952 1.574 . S
C3960 H3955 0.949 . S
C3960 C3966 1.368 . S
C3961 C3945 1.349 . S
C3961 H3953 0.950 . S
C3961 C3959 1.327 . S
C3962 C3950 1.349 . S
C3962 H3956 0.950 . S
C3962 C3963 1.327 . S
C3963 H3957 0.950 . S
C3963 C3962 1.327 . S
C3963 C3967 1.429 . S
C3964 C3947 1.574 . S
C3964 H3958 0.949 . S
C3964 C3968 1.368 . S
C3965 C3946 1.429 . S
C3965 C3959 1.429 . S
C3965 C3966 1.523 . S
C3966 C3947 1.368 . S
C3966 C3960 1.368 . S
C3966 C3965 1.523 . S
C3967 C3951 1.429 . S
C3967 C3963 1.429 . S
C3967 C3968 1.523 . S
C3968 C3952 1.368 . S
C3968 C3964 1.368 . S
C3968 C3967 1.523 . S
H3969 C3944 0.950 . S
H3970 C3946 0.950 . S
H3971 C3947 0.949 . S
H3972 C3949 0.950 . S
H3973 C3951 0.950 . S
C3974 C3975 1.349 . S
C3974 C3976 1.327 . S
C3974 H3999 0.950 1_554 S
C3975 C3974 1.349 . S
C3975 C3991 1.349 . S
C3976 C3974 1.327 . S
C3976 C3995 1.429 . S
C3976 H4000 0.950 1_554 S
C3977 C3994 1.574 . S
C3977 C3996 1.368 . S
C3977 H4001 0.949 . S
H3978 C3982 0.949 . S
C3979 C3980 1.349 1_554 S
C3979 C3981 1.327 . S
C3979 H4002 0.950 . S
C3980 C3979 1.349 1_556 S
C3980 C3992 1.349 . S
C3981 C3979 1.327 . S
C3981 C3997 1.429 . S
C3981 H4003 0.950 . S
C3982 H3978 0.949 . S
C3982 C3990 1.574 . S
C3982 C3998 1.368 1_556 S
H3983 C3991 0.950 . S
H3984 C3989 0.950 . S
H3985 C3990 0.949 . S
H3986 C3992 0.950 . S
H3987 C3993 0.950 . S
H3988 C3994 0.949 . S
C3989 H3984 0.950 . S
C3989 C3991 1.327 . S
C3989 C3995 1.429 . S
C3990 C3982 1.574 . S
C3990 H3985 0.949 . S
C3990 C3996 1.368 1_556 S
C3991 C3975 1.349 . S
C3991 H3983 0.950 . S
C3991 C3989 1.327 . S
C3992 C3980 1.349 . S
C3992 H3986 0.950 . S
C3992 C3993 1.327 . S
C3993 H3987 0.950 . S
C3993 C3992 1.327 . S
C3993 C3997 1.429 1_556 S
C3994 C3977 1.574 . S
C3994 H3988 0.949 . S
C3994 C3998 1.368 . S
C3995 C3976 1.429 . S
C3995 C3989 1.429 . S
C3995 C3996 1.523 . S
C3996 C3977 1.368 . S
C3996 C3990 1.368 1_554 S
C3996 C3995 1.523 . S
C3997 C3981 1.429 . S
C3997 C3993 1.429 1_554 S
C3997 C3998 1.523 . S
C3998 C3982 1.368 1_554 S
C3998 C3994 1.368 . S
C3998 C3997 1.523 . S
H3999 C3974 0.950 1_556 S
H4000 C3976 0.950 1_556 S
H4001 C3977 0.949 . S
H4002 C3979 0.950 . S
H4003 C3981 0.950 . S
C4004 C4005 1.352 . S
C4004 C4006 1.327 . S
C4004 H4029 0.950 1_565 S
C4005 C4004 1.352 . S
C4005 C4021 1.370 . S
C4006 C4004 1.327 . S
C4006 C4025 1.429 . S
C4006 H4030 0.950 . S
C4007 C4024 1.574 . S
C4007 C4026 1.368 . S
C4007 H4031 0.949 . S
H4008 C4012 0.949 . S
C4009 C4010 1.349 . S
C4009 C4011 1.327 . S
C4009 H4032 0.950 . S
C4010 C4009 1.349 . S
C4010 C4022 1.349 . S
C4011 C4009 1.327 . S
C4011 C4027 1.429 . S
C4011 H4033 0.950 . S
C4012 H4008 0.949 . S
C4012 C4020 1.574 . S
C4012 C4028 1.368 . S
H4013 C4021 0.950 . S
H4014 C4019 0.950 . S
H4015 C4020 0.949 . S
H4016 C4022 0.950 . S
H4017 C4023 0.950 . S
H4018 C4024 0.949 . S
C4019 H4014 0.950 . S
C4019 C4021 1.327 . S
C4019 C4025 1.429 . S
C4020 C4012 1.574 . S
C4020 H4015 0.949 . S
C4020 C4026 1.368 . S
C4021 C4005 1.370 . S
C4021 H4013 0.950 . S
C4021 C4019 1.327 . S
C4022 C4010 1.349 . S
C4022 H4016 0.950 . S
C4022 C4023 1.327 . S
C4023 H4017 0.950 . S
C4023 C4022 1.327 . S
C4023 C4027 1.429 . S
C4024 C4007 1.574 . S
C4024 H4018 0.949 . S
C4024 C4028 1.368 . S
C4025 C4006 1.429 . S
C4025 C4019 1.429 . S
C4025 C4026 1.523 . S
C4026 C4007 1.368 . S
C4026 C4020 1.368 . S
C4026 C4025 1.523 . S
C4027 C4011 1.429 . S
C4027 C4023 1.429 . S
C4027 C4028 1.523 . S
C4028 C4012 1.368 . S
C4028 C4024 1.368 . S
C4028 C4027 1.523 . S
H4029 C4004 0.950 1_545 S
H4030 C4006 0.950 . S
H4031 C4007 0.949 . S
H4032 C4009 0.950 . S
H4033 C4011 0.950 . S
C4034 C4035 1.349 . S
C4034 C4036 1.327 . S
C4034 H4059 0.950 . S
C4035 C4034 1.349 . S
C4035 C4051 1.349 . S
C4036 C4034 1.327 . S
C4036 C4055 1.429 . S
C4036 H4060 0.950 . S
C4037 C4054 1.574 . S
C4037 C4056 1.368 . S
C4037 H4061 0.949 . S
H4038 C4042 0.949 . S
C4039 C4040 1.349 . S
C4039 C4041 1.327 . S
C4039 H4062 0.950 . S
C4040 C4039 1.349 . S
C4040 C4052 1.349 . S
C4041 C4039 1.327 . S
C4041 C4057 1.429 . S
C4041 H4063 0.950 . S
C4042 H4038 0.949 . S
C4042 C4050 1.574 . S
C4042 C4058 1.368 . S
H4043 C4051 0.950 . S
H4044 C4049 0.950 . S
H4045 C4050 0.949 . S
H4046 C4052 0.950 . S
H4047 C4053 0.950 . S
H4048 C4054 0.949 . S
C4049 H4044 0.950 . S
C4049 C4051 1.327 . S
C4049 C4055 1.429 . S
C4050 C4042 1.574 . S
C4050 H4045 0.949 . S
C4050 C4056 1.368 . S
C4051 C4035 1.349 . S
C4051 H4043 0.950 . S
C4051 C4049 1.327 . S
C4052 C4040 1.349 . S
C4052 H4046 0.950 . S
C4052 C4053 1.327 . S
C4053 H4047 0.950 . S
C4053 C4052 1.327 . S
C4053 C4057 1.429 . S
C4054 C4037 1.574 . S
C4054 H4048 0.949 . S
C4054 C4058 1.368 . S
C4055 C4036 1.429 . S
C4055 C4049 1.429 . S
C4055 C4056 1.523 . S
C4056 C4037 1.368 . S
C4056 C4050 1.368 . S
C4056 C4055 1.523 . S
C4057 C4041 1.429 . S
C4057 C4053 1.429 . S
C4057 C4058 1.523 . S
C4058 C4042 1.368 . S
C4058 C4054 1.368 . S
C4058 C4057 1.523 . S
H4059 C4034 0.950 . S
H4060 C4036 0.950 . S
H4061 C4037 0.949 . S
H4062 C4039 0.950 . S
H4063 C4041 0.950 . S
C1185 C255 1.147 . S
C1190 C880 1.120 . S
C1215 C147 1.174 . S
C1220 C893 1.161 . S
C1245 C184 1.205 . S
C1250 C912 1.175 1_565 S
C1280 C943 1.952 . S
C1275 C220 1.996 . S
C1305 C40 1.737 . S
C1310 C963 1.706 . S
C1340 C980 0.760 . S
C1335 C74 0.761 . S
C1370 C993 1.495 . S
C1365 C110 1.497 . S
C1395 C14 0.825 . S
C1400 C1020 0.825 . S
C1430 C873 1.155 . S
C1425 C579 1.169 . S
C1455 C616 1.416 . S
C1460 C903 1.390 . S
C1490 C905 1.716 . S
C1485 C687 1.761 . S
C1520 C940 0.795 . S
C1515 C436 0.795 . S
C1545 C580 1.051 . S
C1550 C960 1.052 . S
C1580 C973 1.802 . S
C1575 C615 1.812 . S
C1610 C1003 1.193 . S
C1605 C688 1.216 . S
C1640 C1013 1.146 . S
C1635 C435 1.169 . S
C1670 C883 1.579 . S
C1665 C410 1.568 . S
C1695 C722 1.902 . S
C1700 C1033 1.898 . S
C1730 C1063 1.659 . S
C1725 C842 1.646 . S
C1760 C1080 1.116 . S
C1755 C794 1.126 . S
C1785 C302 1.963 . S
C1790 C1023 2.002 . S
C1815 C338 1.176 . S
C1820 C910 1.169 . S
C1845 C830 1.988 . S
C1850 C1093 1.986 . S
C1880 C1120 0.855 . S
C1875 C758 0.862 . S
C1910 C870 1.070 . S
C1905 C158 1.058 . S
C1940 C1105 1.157 . S
C1935 C254 1.165 . S
C1965 C218 1.185 . S
C1970 C923 1.173 . S
C1995 C194 1.918 . S
C2000 C1092 1.921 . S
C2030 C952 1.684 . S
C2025 C3 1.708 . S
C2055 C111 0.613 . S
C2060 C1050 0.623 . S
C2090 C985 1.436 1_556 S
C2085 C76 1.438 . S
C2120 C1130 0.879 . S
C2115 C50 0.878 . S
C2150 C865 1.087 . S
C2145 C364 1.099 1_565 S
C2180 C1112 1.342 . S
C2175 C795 1.371 . S
C2205 C292 1.683 . S
C2210 C913 1.657 . S
C2235 C723 0.722 . S
C2240 C1090 0.723 . S
C2265 C363 1.021 . S
C2270 C950 1.009 . S
C2300 C1045 1.784 . S
C2295 C796 1.775 . S
C2325 C291 1.198 . S
C2330 C992 1.169 . S
C2355 C724 1.157 . S
C2360 C1125 1.140 . S
C2385 C482 1.497 1_554 S
C2390 C872 1.527 . S
C2415 C434 1.888 . S
C2420 C1025 1.884 . S
C2445 C662 1.541 . S
C2450 C972 1.603 . S
C2475 C614 1.110 . S
C2480 C1070 1.098 . S
C2510 C1132 1.995 . S
C2505 C698 1.980 . S
C2535 C554 1.148 . S
C2540 C920 1.178 . S
C2570 C925 1.920 . S
C2565 C650 1.920 . S
C2600 C890 0.814 . S
C2595 C506 0.821 . S
C2625 C183 1.145 . S
C2630 C1160 1.118 . S
C2660 C1113 1.162 . S
C2655 C219 1.175 . S
C2685 C256 1.199 . S
C2690 C1172 1.168 1_556 S
C2715 C148 1.991 . S
C2720 C1103 1.948 . S
C2745 C122 1.741 . S
C2750 C1043 1.765 . S
C2780 C1060 0.689 . S
C2775 C2 0.687 . S
C2810 C1073 1.373 . S
C2805 C39 1.376 . S
C2840 C1140 0.898 . S
C2835 C86 0.899 . S
C2870 C1153 1.171 . S
C2865 C651 1.185 . S
C2895 C472 1.413 . S
C2900 C1123 1.389 . S
C2930 C1165 1.702 . S
C2925 C507 1.747 . S
C2960 C1100 0.803 . S
C2955 C544 0.802 . S
C2990 C1040 1.055 . S
C2985 C652 1.052 . S
C3015 C471 1.790 . S
C3020 C1053 1.777 . S
C3050 C1083 1.185 . S
C3045 C508 1.209 . S
C3075 C543 1.194 . S
C3080 C1133 1.171 . S
C3110 C1163 1.599 . S
C3105 C806 1.588 . S
C3135 C326 1.885 . S
C3140 C953 1.882 . S
C3170 C983 1.626 . S
C3165 C374 1.623 . S
C3200 C1000 1.138 . S
C3195 C398 1.150 . S
C3230 C1143 2.007 . S
C3225 C770 1.968 . S
C3255 C734 1.172 . S
C3260 C1170 1.158 . S
C3290 C933 1.978 . S
C3285 C362 1.973 . S
C3320 C900 0.867 . S
C3315 C290 0.876 . S
C3345 C230 1.057 . S
C3350 C1150 1.068 . S
C3380 C885 1.164 . S
C3375 C182 1.172 . S
C3405 C146 1.185 . S
C3410 C1183 1.173 . S
C3435 C266 1.915 . S
C3440 C932 1.919 . S
C3465 C75 1.779 . S
C3470 C1032 1.752 1_556 S
C3500 C970 0.732 . S
C3495 C38 0.728 . S
C3525 C4 1.368 . S
C3530 C1065 1.366 . S
C3555 C112 0.834 . S
C3560 C1010 0.825 . S
C3590 C1145 1.094 . S
C3585 C832 1.105 . S
C3615 C399 1.384 . S
C3620 C892 1.355 . S
C3650 C1173 1.650 1_655 S
C3645 C760 1.676 . S
C3675 C327 0.717 . S
C3680 C930 0.719 . S
C3705 C831 1.044 . S
C3710 C1030 1.034 . S
C3740 C965 1.780 . S
C3735 C400 1.774 . S
C3765 C759 1.200 . S
C3770 C1072 1.170 . S
C3800 C1005 1.153 . S
C3795 C328 1.169 . S
C3830 C1152 1.541 . S
C3825 C626 1.514 . S
C3860 C945 1.883 . S
C3855 C542 1.889 . S
C3885 C590 1.512 . S
C3890 C1052 1.572 . S
C3920 C990 1.107 . S
C3915 C470 1.118 . S
C3945 C518 1.969 . S
C3950 C1012 1.979 . S
C3975 C446 1.137 . S
C3980 C1180 1.160 1_556 S
C4010 C1085 1.933 . S
C4005 C578 1.911 1_565 S
C4040 C1110 0.793 . S
C4035 C686 0.797 . S
