# Generated by pormake.
# Topology gar, (4,6)-cn, num edge types: 1
# Building blocks:
#     Node 0, Type 0, BuildingBlock: AZAVOO_clean_sbu_0, # of connection points: 4
#     Node 1, Type 0, BuildingBlock: AZAVOO_clean_sbu_0, # of connection points: 4
#     Node 2, Type 0, BuildingBlock: AZAVOO_clean_sbu_0, # of connection points: 4
#     Node 3, Type 0, BuildingBlock: AZAVOO_clean_sbu_0, # of connection points: 4
#     Node 4, Type 0, BuildingBlock: AZAVOO_clean_sbu_0, # of connection points: 4
#     Node 5, Type 0, BuildingBlock: AZAVOO_clean_sbu_0, # of connection points: 4
#     Node 6, Type 0, BuildingBlock: AZAVOO_clean_sbu_0, # of connection points: 4
#     Node 7, Type 0, BuildingBlock: AZAVOO_clean_sbu_0, # of connection points: 4
#     Node 8, Type 0, BuildingBlock: AZAVOO_clean_sbu_0, # of connection points: 4
#     Node 9, Type 0, BuildingBlock: AZAVOO_clean_sbu_0, # of connection points: 4
#     Node 10, Type 0, BuildingBlock: AZAVOO_clean_sbu_0, # of connection points: 4
#     Node 11, Type 0, BuildingBlock: AZAVOO_clean_sbu_0, # of connection points: 4
#     Node 12, Type 0, BuildingBlock: AZAVOO_clean_sbu_0, # of connection points: 4
#     Node 13, Type 0, BuildingBlock: AZAVOO_clean_sbu_0, # of connection points: 4
#     Node 14, Type 0, BuildingBlock: AZAVOO_clean_sbu_0, # of connection points: 4
#     Node 15, Type 0, BuildingBlock: AZAVOO_clean_sbu_0, # of connection points: 4
#     Node 16, Type 0, BuildingBlock: AZAVOO_clean_sbu_0, # of connection points: 4
#     Node 17, Type 0, BuildingBlock: AZAVOO_clean_sbu_0, # of connection points: 4
#     Node 18, Type 0, BuildingBlock: AZAVOO_clean_sbu_0, # of connection points: 4
#     Node 19, Type 0, BuildingBlock: AZAVOO_clean_sbu_0, # of connection points: 4
#     Node 20, Type 0, BuildingBlock: AZAVOO_clean_sbu_0, # of connection points: 4
#     Node 21, Type 0, BuildingBlock: AZAVOO_clean_sbu_0, # of connection points: 4
#     Node 22, Type 0, BuildingBlock: AZAVOO_clean_sbu_0, # of connection points: 4
#     Node 23, Type 0, BuildingBlock: AZAVOO_clean_sbu_0, # of connection points: 4
#     Node 24, Type 1, BuildingBlock: KUMJIN_clean_sbu_1, # of connection points: 6
#     Node 25, Type 1, BuildingBlock: KUMJIN_clean_sbu_1, # of connection points: 6
#     Node 26, Type 1, BuildingBlock: KUMJIN_clean_sbu_1, # of connection points: 6
#     Node 27, Type 1, BuildingBlock: KUMJIN_clean_sbu_1, # of connection points: 6
#     Node 28, Type 1, BuildingBlock: KUMJIN_clean_sbu_1, # of connection points: 6
#     Node 29, Type 1, BuildingBlock: KUMJIN_clean_sbu_1, # of connection points: 6
#     Node 30, Type 1, BuildingBlock: KUMJIN_clean_sbu_1, # of connection points: 6
#     Node 31, Type 1, BuildingBlock: KUMJIN_clean_sbu_1, # of connection points: 6
#     Node 32, Type 1, BuildingBlock: KUMJIN_clean_sbu_1, # of connection points: 6
#     Node 33, Type 1, BuildingBlock: KUMJIN_clean_sbu_1, # of connection points: 6
#     Node 34, Type 1, BuildingBlock: KUMJIN_clean_sbu_1, # of connection points: 6
#     Node 35, Type 1, BuildingBlock: KUMJIN_clean_sbu_1, # of connection points: 6
#     Node 36, Type 1, BuildingBlock: KUMJIN_clean_sbu_1, # of connection points: 6
#     Node 37, Type 1, BuildingBlock: KUMJIN_clean_sbu_1, # of connection points: 6
#     Node 38, Type 1, BuildingBlock: KUMJIN_clean_sbu_1, # of connection points: 6
#     Node 39, Type 1, BuildingBlock: KUMJIN_clean_sbu_1, # of connection points: 6
#     Edge 40, Type (0, 1), BuildingBlock: ZUJKAS_clean_linker_0, # of connection points: 2
#     Edge 41, Type (0, 1), BuildingBlock: ZUJKAS_clean_linker_0, # of connection points: 2
#     Edge 42, Type (0, 1), BuildingBlock: ZUJKAS_clean_linker_0, # of connection points: 2
#     Edge 43, Type (0, 1), BuildingBlock: ZUJKAS_clean_linker_0, # of connection points: 2
#     Edge 44, Type (0, 1), BuildingBlock: ZUJKAS_clean_linker_0, # of connection points: 2
#     Edge 45, Type (0, 1), BuildingBlock: ZUJKAS_clean_linker_0, # of connection points: 2
#     Edge 46, Type (0, 1), BuildingBlock: ZUJKAS_clean_linker_0, # of connection points: 2
#     Edge 47, Type (0, 1), BuildingBlock: ZUJKAS_clean_linker_0, # of connection points: 2
#     Edge 48, Type (0, 1), BuildingBlock: ZUJKAS_clean_linker_0, # of connection points: 2
#     Edge 49, Type (0, 1), BuildingBlock: ZUJKAS_clean_linker_0, # of connection points: 2
#     Edge 50, Type (0, 1), BuildingBlock: ZUJKAS_clean_linker_0, # of connection points: 2
#     Edge 51, Type (0, 1), BuildingBlock: ZUJKAS_clean_linker_0, # of connection points: 2
#     Edge 52, Type (0, 1), BuildingBlock: ZUJKAS_clean_linker_0, # of connection points: 2
#     Edge 53, Type (0, 1), BuildingBlock: ZUJKAS_clean_linker_0, # of connection points: 2
#     Edge 54, Type (0, 1), BuildingBlock: ZUJKAS_clean_linker_0, # of connection points: 2
#     Edge 55, Type (0, 1), BuildingBlock: ZUJKAS_clean_linker_0, # of connection points: 2
#     Edge 56, Type (0, 1), BuildingBlock: ZUJKAS_clean_linker_0, # of connection points: 2
#     Edge 57, Type (0, 1), BuildingBlock: ZUJKAS_clean_linker_0, # of connection points: 2
#     Edge 58, Type (0, 1), BuildingBlock: ZUJKAS_clean_linker_0, # of connection points: 2
#     Edge 59, Type (0, 1), BuildingBlock: ZUJKAS_clean_linker_0, # of connection points: 2
#     Edge 60, Type (0, 1), BuildingBlock: ZUJKAS_clean_linker_0, # of connection points: 2
#     Edge 61, Type (0, 1), BuildingBlock: ZUJKAS_clean_linker_0, # of connection points: 2
#     Edge 62, Type (0, 1), BuildingBlock: ZUJKAS_clean_linker_0, # of connection points: 2
#     Edge 63, Type (0, 1), BuildingBlock: ZUJKAS_clean_linker_0, # of connection points: 2
#     Edge 64, Type (0, 1), BuildingBlock: ZUJKAS_clean_linker_0, # of connection points: 2
#     Edge 65, Type (0, 1), BuildingBlock: ZUJKAS_clean_linker_0, # of connection points: 2
#     Edge 66, Type (0, 1), BuildingBlock: ZUJKAS_clean_linker_0, # of connection points: 2
#     Edge 67, Type (0, 1), BuildingBlock: ZUJKAS_clean_linker_0, # of connection points: 2
#     Edge 68, Type (0, 1), BuildingBlock: ZUJKAS_clean_linker_0, # of connection points: 2
#     Edge 69, Type (0, 1), BuildingBlock: ZUJKAS_clean_linker_0, # of connection points: 2
#     Edge 70, Type (0, 1), BuildingBlock: ZUJKAS_clean_linker_0, # of connection points: 2
#     Edge 71, Type (0, 1), BuildingBlock: ZUJKAS_clean_linker_0, # of connection points: 2
#     Edge 72, Type (0, 1), BuildingBlock: ZUJKAS_clean_linker_0, # of connection points: 2
#     Edge 73, Type (0, 1), BuildingBlock: ZUJKAS_clean_linker_0, # of connection points: 2
#     Edge 74, Type (0, 1), BuildingBlock: ZUJKAS_clean_linker_0, # of connection points: 2
#     Edge 75, Type (0, 1), BuildingBlock: ZUJKAS_clean_linker_0, # of connection points: 2
#     Edge 76, Type (0, 1), BuildingBlock: ZUJKAS_clean_linker_0, # of connection points: 2
#     Edge 77, Type (0, 1), BuildingBlock: ZUJKAS_clean_linker_0, # of connection points: 2
#     Edge 78, Type (0, 1), BuildingBlock: ZUJKAS_clean_linker_0, # of connection points: 2
#     Edge 79, Type (0, 1), BuildingBlock: ZUJKAS_clean_linker_0, # of connection points: 2
#     Edge 80, Type (0, 1), BuildingBlock: ZUJKAS_clean_linker_0, # of connection points: 2
#     Edge 81, Type (0, 1), BuildingBlock: ZUJKAS_clean_linker_0, # of connection points: 2
#     Edge 82, Type (0, 1), BuildingBlock: ZUJKAS_clean_linker_0, # of connection points: 2
#     Edge 83, Type (0, 1), BuildingBlock: ZUJKAS_clean_linker_0, # of connection points: 2
#     Edge 84, Type (0, 1), BuildingBlock: ZUJKAS_clean_linker_0, # of connection points: 2
#     Edge 85, Type (0, 1), BuildingBlock: ZUJKAS_clean_linker_0, # of connection points: 2
#     Edge 86, Type (0, 1), BuildingBlock: ZUJKAS_clean_linker_0, # of connection points: 2
#     Edge 87, Type (0, 1), BuildingBlock: ZUJKAS_clean_linker_0, # of connection points: 2
#     Edge 88, Type (0, 1), BuildingBlock: ZUJKAS_clean_linker_0, # of connection points: 2
#     Edge 89, Type (0, 1), BuildingBlock: ZUJKAS_clean_linker_0, # of connection points: 2
#     Edge 90, Type (0, 1), BuildingBlock: ZUJKAS_clean_linker_0, # of connection points: 2
#     Edge 91, Type (0, 1), BuildingBlock: ZUJKAS_clean_linker_0, # of connection points: 2
#     Edge 92, Type (0, 1), BuildingBlock: ZUJKAS_clean_linker_0, # of connection points: 2
#     Edge 93, Type (0, 1), BuildingBlock: ZUJKAS_clean_linker_0, # of connection points: 2
#     Edge 94, Type (0, 1), BuildingBlock: ZUJKAS_clean_linker_0, # of connection points: 2
#     Edge 95, Type (0, 1), BuildingBlock: ZUJKAS_clean_linker_0, # of connection points: 2
#     Edge 96, Type (0, 1), BuildingBlock: ZUJKAS_clean_linker_0, # of connection points: 2
#     Edge 97, Type (0, 1), BuildingBlock: ZUJKAS_clean_linker_0, # of connection points: 2
#     Edge 98, Type (0, 1), BuildingBlock: ZUJKAS_clean_linker_0, # of connection points: 2
#     Edge 99, Type (0, 1), BuildingBlock: ZUJKAS_clean_linker_0, # of connection points: 2
#     Edge 100, Type (0, 1), BuildingBlock: ZUJKAS_clean_linker_0, # of connection points: 2
#     Edge 101, Type (0, 1), BuildingBlock: ZUJKAS_clean_linker_0, # of connection points: 2
#     Edge 102, Type (0, 1), BuildingBlock: ZUJKAS_clean_linker_0, # of connection points: 2
#     Edge 103, Type (0, 1), BuildingBlock: ZUJKAS_clean_linker_0, # of connection points: 2
#     Edge 104, Type (0, 1), BuildingBlock: ZUJKAS_clean_linker_0, # of connection points: 2
#     Edge 105, Type (0, 1), BuildingBlock: ZUJKAS_clean_linker_0, # of connection points: 2
#     Edge 106, Type (0, 1), BuildingBlock: ZUJKAS_clean_linker_0, # of connection points: 2
#     Edge 107, Type (0, 1), BuildingBlock: ZUJKAS_clean_linker_0, # of connection points: 2
#     Edge 108, Type (0, 1), BuildingBlock: ZUJKAS_clean_linker_0, # of connection points: 2
#     Edge 109, Type (0, 1), BuildingBlock: ZUJKAS_clean_linker_0, # of connection points: 2
#     Edge 110, Type (0, 1), BuildingBlock: ZUJKAS_clean_linker_0, # of connection points: 2
#     Edge 111, Type (0, 1), BuildingBlock: ZUJKAS_clean_linker_0, # of connection points: 2
#     Edge 112, Type (0, 1), BuildingBlock: ZUJKAS_clean_linker_0, # of connection points: 2
#     Edge 113, Type (0, 1), BuildingBlock: ZUJKAS_clean_linker_0, # of connection points: 2
#     Edge 114, Type (0, 1), BuildingBlock: ZUJKAS_clean_linker_0, # of connection points: 2
#     Edge 115, Type (0, 1), BuildingBlock: ZUJKAS_clean_linker_0, # of connection points: 2
#     Edge 116, Type (0, 1), BuildingBlock: ZUJKAS_clean_linker_0, # of connection points: 2
#     Edge 117, Type (0, 1), BuildingBlock: ZUJKAS_clean_linker_0, # of connection points: 2
#     Edge 118, Type (0, 1), BuildingBlock: ZUJKAS_clean_linker_0, # of connection points: 2
#     Edge 119, Type (0, 1), BuildingBlock: ZUJKAS_clean_linker_0, # of connection points: 2
#     Edge 120, Type (0, 1), BuildingBlock: ZUJKAS_clean_linker_0, # of connection points: 2
#     Edge 121, Type (0, 1), BuildingBlock: ZUJKAS_clean_linker_0, # of connection points: 2
#     Edge 122, Type (0, 1), BuildingBlock: ZUJKAS_clean_linker_0, # of connection points: 2
#     Edge 123, Type (0, 1), BuildingBlock: ZUJKAS_clean_linker_0, # of connection points: 2
#     Edge 124, Type (0, 1), BuildingBlock: ZUJKAS_clean_linker_0, # of connection points: 2
#     Edge 125, Type (0, 1), BuildingBlock: ZUJKAS_clean_linker_0, # of connection points: 2
#     Edge 126, Type (0, 1), BuildingBlock: ZUJKAS_clean_linker_0, # of connection points: 2
#     Edge 127, Type (0, 1), BuildingBlock: ZUJKAS_clean_linker_0, # of connection points: 2
#     Edge 128, Type (0, 1), BuildingBlock: ZUJKAS_clean_linker_0, # of connection points: 2
#     Edge 129, Type (0, 1), BuildingBlock: ZUJKAS_clean_linker_0, # of connection points: 2
#     Edge 130, Type (0, 1), BuildingBlock: ZUJKAS_clean_linker_0, # of connection points: 2
#     Edge 131, Type (0, 1), BuildingBlock: ZUJKAS_clean_linker_0, # of connection points: 2
#     Edge 132, Type (0, 1), BuildingBlock: ZUJKAS_clean_linker_0, # of connection points: 2
#     Edge 133, Type (0, 1), BuildingBlock: ZUJKAS_clean_linker_0, # of connection points: 2
#     Edge 134, Type (0, 1), BuildingBlock: ZUJKAS_clean_linker_0, # of connection points: 2
#     Edge 135, Type (0, 1), BuildingBlock: ZUJKAS_clean_linker_0, # of connection points: 2
# Relax obj value: 0.086
# Max RMSD: 0.201
# Mean RMSD: 0.149
data_MOF--net-gar--node1-AZAVOO_clean_sbu_0--node2-KUMJIN_clean_sbu_1--edge1-ZUJKAS_clean_linker_0
_symmetry_space_group_name_H-M    P1
_symmetry_Int_Tables_number       1
_symmetry_cell_setting            triclinic
loop_
_symmetry_equiv_pos_as_xyz
'x, y, z'
_cell_length_a     77.683801
_cell_length_b     75.06786
_cell_length_c     72.033999
_cell_angle_alpha  97.988254
_cell_angle_beta   95.253096
_cell_angle_gamma 101.4942
loop_
_atom_site_label
_atom_site_type_symbol
_atom_site_fract_x
_atom_site_fract_y
_atom_site_fract_z
_atom_type_partial_charge
Mg0 Mg 0.03039 0.28728 0.33821 0.0
O1 O 0.03385 0.31516 0.35945 0.0
O2 O 0.00979 0.31203 0.37478 0.0
Mg3 Mg 0.99103 0.28405 0.36501 0.0
C4 C 0.02456 0.32139 0.37168 0.0
C5 C 0.06609 0.28306 0.31896 0.0
O6 O 0.05419 0.26944 0.30881 0.0
O7 O 0.03657 0.27095 0.3627 0.0
O8 O 0.0116 0.26908 0.37618 0.0
O9 O 0.01205 0.29663 0.31539 0.0
O10 O 0.00214 0.2832 0.33829 0.0
C11 C 0.02674 0.26516 0.37497 0.0
C12 C 0.99863 0.29055 0.32383 0.0
O13 O 0.06086 0.29347 0.33199 0.0
Mg14 Mg 0.0128 0.75492 0.68898 0.0
O15 O 0.00922 0.7267 0.66857 0.0
O16 O 0.9834 0.72143 0.65025 0.0
Mg17 Mg 0.9688 0.74472 0.65878 0.0
C18 C 0.99789 0.71681 0.65517 0.0
C19 C 0.05326 0.76338 0.71205 0.0
O20 O 0.04623 0.77375 0.72411 0.0
O21 O 0.01714 0.77231 0.66417 0.0
O22 O 0.98957 0.76627 0.64908 0.0
O23 O 0.99448 0.74483 0.71191 0.0
O24 O 0.98454 0.75354 0.68658 0.0
C25 C 0.00568 0.77509 0.6514 0.0
C26 C 0.98123 0.7486 0.70228 0.0
O27 O 0.04346 0.75454 0.69697 0.0
Mg28 Mg 0.53239 0.78775 0.83751 0.0
O29 O 0.53538 0.81492 0.85954 0.0
O30 O 0.5109 0.81119 0.87413 0.0
Mg31 Mg 0.49275 0.78296 0.8638 0.0
C32 C 0.52573 0.8208 0.87155 0.0
C33 C 0.56885 0.79171 0.81652 0.0
O34 O 0.55713 0.78776 0.80139 0.0
O35 O 0.53802 0.77064 0.86108 0.0
O36 O 0.51352 0.76842 0.87562 0.0
O37 O 0.51372 0.79833 0.81583 0.0
O38 O 0.50419 0.78238 0.83716 0.0
C39 C 0.52872 0.76488 0.87373 0.0
C40 C 0.50039 0.79055 0.82348 0.0
O41 O 0.56323 0.79373 0.83274 0.0
Mg42 Mg 0.51288 0.25402 0.18819 0.0
O43 O 0.50901 0.22607 0.16737 0.0
O44 O 0.48392 0.22232 0.14817 0.0
Mg45 Mg 0.46994 0.24612 0.1572 0.0
C46 C 0.49791 0.21691 0.1534 0.0
C47 C 0.55353 0.26316 0.21024 0.0
O48 O 0.54732 0.27558 0.22076 0.0
O49 O 0.51868 0.2717 0.16424 0.0
O50 O 0.49155 0.26795 0.14848 0.0
O51 O 0.49494 0.24351 0.21061 0.0
O52 O 0.48464 0.25315 0.1858 0.0
C53 C 0.508 0.27561 0.15148 0.0
C54 C 0.48154 0.24731 0.20123 0.0
O55 O 0.54312 0.25275 0.1964 0.0
Mg56 Mg 0.05068 0.79296 0.11695 0.0
O57 O 0.04707 0.76425 0.09749 0.0
O58 O 0.02203 0.75951 0.07798 0.0
Mg59 Mg 0.00755 0.7829 0.08703 0.0
C60 C 0.03595 0.75434 0.08392 0.0
C61 C 0.08915 0.80173 0.14169 0.0
O62 O 0.08183 0.8139 0.15115 0.0
O63 O 0.05483 0.81235 0.09337 0.0
O64 O 0.02738 0.8064 0.07796 0.0
O65 O 0.0359 0.78007 0.13921 0.0
O66 O 0.02265 0.78984 0.11566 0.0
C67 C 0.04331 0.81577 0.08102 0.0
C68 C 0.02139 0.78254 0.1307 0.0
O69 O 0.08052 0.79208 0.12638 0.0
Mg70 Mg 0.49749 0.75471 0.41552 0.0
O71 O 0.50113 0.78299 0.43571 0.0
O72 O 0.47715 0.78035 0.4507 0.0
Mg73 Mg 0.45922 0.75119 0.44107 0.0
C74 C 0.49166 0.78996 0.44717 0.0
C75 C 0.52942 0.75291 0.39411 0.0
O76 O 0.51626 0.74054 0.38413 0.0
O77 O 0.50372 0.73681 0.4385 0.0
O78 O 0.47836 0.73294 0.45114 0.0
O79 O 0.48268 0.76616 0.39335 0.0
O80 O 0.46933 0.75001 0.41325 0.0
C81 C 0.49346 0.72891 0.44932 0.0
C82 C 0.46814 0.75929 0.39959 0.0
O83 O 0.52649 0.76194 0.40939 0.0
Mg84 Mg 0.55011 0.2933 0.61511 0.0
O85 O 0.54658 0.26477 0.59545 0.0
O86 O 0.52067 0.25987 0.57755 0.0
Mg87 Mg 0.50686 0.28401 0.58608 0.0
C88 C 0.53477 0.2546 0.5827 0.0
C89 C 0.58506 0.29646 0.64205 0.0
O90 O 0.57368 0.30094 0.65332 0.0
O91 O 0.55445 0.31281 0.59177 0.0
O92 O 0.52669 0.30773 0.5774 0.0
O93 O 0.5349 0.27926 0.63673 0.0
O94 O 0.52235 0.2912 0.61439 0.0
C95 C 0.54274 0.31673 0.58002 0.0
C96 C 0.52076 0.28311 0.62887 0.0
O97 O 0.57999 0.29294 0.62427 0.0
Mg98 Mg 0.99755 0.25565 0.91433 0.0
O99 O 0.0015 0.28319 0.93566 0.0
O100 O 0.97712 0.28041 0.94999 0.0
Mg101 Mg 0.95984 0.25096 0.9405 0.0
C102 C 0.99182 0.28999 0.94693 0.0
C103 C 0.0302 0.25444 0.89357 0.0
O104 O 0.01783 0.24103 0.88379 0.0
O105 O 0.00418 0.23675 0.9362 0.0
O106 O 0.97966 0.23316 0.95036 0.0
O107 O 0.98242 0.26843 0.89365 0.0
O108 O 0.96926 0.25048 0.91224 0.0
C109 C 0.9946 0.22907 0.94771 0.0
C110 C 0.96789 0.26069 0.89939 0.0
O111 O 0.02645 0.26384 0.90817 0.0
Mg112 Mg 0.38874 0.02761 0.28555 0.0
O113 O 0.37542 0.99808 0.28507 0.0
O114 O 0.36845 0.99498 0.31401 0.0
Mg115 Mg 0.37956 0.02197 0.33388 0.0
C116 C 0.36833 0.98846 0.29666 0.0
C117 C 0.38328 0.01574 0.23967 0.0
O118 O 0.37365 0.01511 0.22352 0.0
O119 O 0.36327 0.03543 0.28936 0.0
O120 O 0.35901 0.03483 0.3196 0.0
O121 O 0.41559 0.02091 0.29436 0.0
O122 O 0.39761 0.03047 0.31337 0.0
C123 C 0.35445 0.03797 0.30312 0.0
C124 C 0.41187 0.02498 0.31138 0.0
O125 O 0.37904 0.02392 0.25452 0.0
Mg126 Mg 0.26313 0.16038 0.4955 0.0
O127 O 0.26598 0.17782 0.52508 0.0
O128 O 0.29294 0.1962 0.53017 0.0
Mg129 Mg 0.30801 0.18889 0.50513 0.0
C130 C 0.27782 0.19047 0.53535 0.0
C131 C 0.22748 0.13431 0.49041 0.0
O132 O 0.23839 0.12429 0.48398 0.0
O133 O 0.26135 0.18461 0.47944 0.0
O134 O 0.28987 0.19915 0.48416 0.0
O135 O 0.27413 0.13867 0.50795 0.0
O136 O 0.2901 0.16175 0.49692 0.0
C137 C 0.27407 0.19706 0.47614 0.0
C138 C 0.28938 0.14706 0.5043 0.0
O139 O 0.23343 0.15144 0.49612 0.0
Mg140 Mg 0.12384 0.02954 0.77754 0.0
O141 O 0.14363 0.05729 0.78165 0.0
O142 O 0.16052 0.0604 0.80918 0.0
Mg143 Mg 0.1509 0.03536 0.82346 0.0
C144 C 0.1563 0.06634 0.794 0.0
C145 C 0.1031 0.02057 0.73783 0.0
O146 O 0.09497 0.00745 0.74626 0.0
O147 O 0.14554 0.01376 0.77097 0.0
O148 O 0.15899 0.01574 0.80037 0.0
O149 O 0.104 0.04131 0.79391 0.0
O150 O 0.12519 0.02939 0.80623 0.0
C151 C 0.15681 0.00949 0.78271 0.0
C152 C 0.11174 0.03652 0.80854 0.0
O153 O 0.11642 0.03216 0.74689 0.0
Mg154 Mg 0.29193 0.93111 0.0121 0.0
O155 O 0.28818 0.91503 0.98212 0.0
O156 O 0.31218 0.90305 0.97934 0.0
Mg157 Mg 0.32959 0.90903 0.00725 0.0
C158 C 0.29756 0.90611 0.97244 0.0
C159 C 0.25941 0.94123 0.99391 0.0
O160 O 0.26971 0.94331 0.98055 0.0
O161 O 0.28358 0.90486 0.0233 0.0
O162 O 0.30797 0.89338 0.02173 0.0
O163 O 0.30708 0.95511 0.00212 0.0
O164 O 0.31846 0.93335 0.01357 0.0
C165 C 0.29243 0.89278 0.02639 0.0
C166 C 0.32048 0.94762 0.00533 0.0
O167 O 0.26457 0.93542 0.00867 0.0
Mg168 Mg 0.28259 0.38647 0.03514 0.0
O169 O 0.27923 0.36766 0.00593 0.0
O170 O 0.30147 0.35279 0.00688 0.0
Mg171 Mg 0.32025 0.36385 0.03439 0.0
C172 C 0.28756 0.35603 -0.00168 0.0
C173 C 0.25404 0.40826 0.03199 0.0
O174 O 0.26911 0.42039 0.03614 0.0
O175 O 0.27495 0.36257 0.05182 0.0
O176 O 0.30002 0.35223 0.05334 0.0
O177 O 0.29863 0.4096 0.02362 0.0
O178 O 0.31003 0.38922 0.03708 0.0
C179 C 0.28467 0.35239 0.05834 0.0
C180 C 0.31243 0.40348 0.02882 0.0
O181 O 0.2543 0.39122 0.03057 0.0
Mg182 Mg 0.76573 0.11584 0.02416 0.0
O183 O 0.76664 0.13243 0.05326 0.0
O184 O 0.7932 0.15163 0.05946 0.0
Mg185 Mg 0.80839 0.14775 0.03442 0.0
C186 C 0.77804 0.14505 0.06407 0.0
C187 C 0.73107 0.0964 0.03502 0.0
O188 O 0.74161 0.09243 0.04843 0.0
O189 O 0.76125 0.13988 0.01142 0.0
O190 O 0.78792 0.15884 0.01687 0.0
O191 O 0.7768 0.0951 0.03652 0.0
O192 O 0.79225 0.11973 0.02693 0.0
C193 C 0.77161 0.15487 0.00998 0.0
C194 C 0.79194 0.10537 0.03493 0.0
O195 O 0.7374 0.1061 0.02326 0.0
Mg196 Mg 0.16142 0.52199 0.23853 0.0
O197 O 0.17686 0.55127 0.24729 0.0
O198 O 0.18698 0.55761 0.27808 0.0
Mg199 Mg 0.18746 0.52881 0.2837 0.0
C200 C 0.18434 0.56258 0.262 0.0
C201 C 0.14285 0.53289 0.20567 0.0
O202 O 0.13201 0.53412 0.21847 0.0
O203 O 0.18545 0.51241 0.23158 0.0
O204 O 0.20138 0.52944 0.257 0.0
O205 O 0.13994 0.52998 0.25315 0.0
O206 O 0.16135 0.51843 0.2665 0.0
C207 C 0.19974 0.51697 0.24272 0.0
C208 C 0.14758 0.52541 0.26791 0.0
O209 O 0.15695 0.52749 0.20936 0.0
Mg210 Mg 0.78491 0.88674 0.53425 0.0
O211 O 0.78144 0.86697 0.50568 0.0
O212 O 0.8034 0.85183 0.50717 0.0
Mg213 Mg 0.82179 0.86332 0.53498 0.0
C214 C 0.78959 0.85504 0.49837 0.0
C215 C 0.75303 0.90378 0.54046 0.0
O216 O 0.76441 0.91138 0.55545 0.0
O217 O 0.77648 0.86372 0.55186 0.0
O218 O 0.80097 0.85237 0.55371 0.0
O219 O 0.8015 0.90878 0.52179 0.0
O220 O 0.8122 0.8891 0.53715 0.0
C221 C 0.78568 0.85317 0.55857 0.0
C222 C 0.81506 0.90275 0.52803 0.0
O223 O 0.75706 0.89163 0.5285 0.0
Mg224 Mg 0.92662 0.01912 0.25758 0.0
O225 O 0.90609 0.99143 0.2553 0.0
O226 O 0.8931 0.99416 0.28176 0.0
Mg227 Mg 0.90506 0.02133 0.301 0.0
C228 C 0.89473 0.98509 0.26588 0.0
C229 C 0.94386 0.00943 0.22084 0.0
O230 O 0.95511 0.00521 0.23337 0.0
O231 O 0.90441 0.03412 0.25146 0.0
O232 O 0.89346 0.03622 0.27912 0.0
O233 O 0.94791 0.00817 0.2731 0.0
O234 O 0.92873 0.02182 0.28683 0.0
C235 C 0.89376 0.03966 0.26228 0.0
C236 C 0.94158 0.01352 0.28841 0.0
O237 O 0.93021 0.01458 0.22617 0.0
Mg238 Mg 0.26695 0.61423 0.52622 0.0
O239 O 0.26874 0.63349 0.55366 0.0
O240 O 0.29642 0.65028 0.55948 0.0
Mg241 Mg 0.31169 0.64183 0.53542 0.0
C242 C 0.2808 0.64578 0.56395 0.0
C243 C 0.23082 0.59432 0.53049 0.0
O244 O 0.24002 0.58241 0.53522 0.0
O245 O 0.26563 0.63713 0.51028 0.0
O246 O 0.29381 0.6526 0.51433 0.0
O247 O 0.27496 0.59362 0.54193 0.0
O248 O 0.29325 0.61499 0.5305 0.0
C249 C 0.27767 0.65008 0.50725 0.0
C250 C 0.29091 0.60187 0.5404 0.0
O251 O 0.23834 0.60889 0.52517 0.0
Mg252 Mg 0.42648 0.51826 0.75691 0.0
O253 O 0.40665 0.4908 0.75664 0.0
O254 O 0.39544 0.49375 0.78415 0.0
Mg255 Mg 0.40657 0.52231 0.8012 0.0
C256 C 0.3966 0.48433 0.76831 0.0
C257 C 0.44266 0.52242 0.72177 0.0
O258 O 0.45113 0.53586 0.73514 0.0
O259 O 0.40389 0.53289 0.7502 0.0
O260 O 0.3939 0.53556 0.7784 0.0
O261 O 0.44802 0.50831 0.77334 0.0
O262 O 0.4296 0.52381 0.78605 0.0
C263 C 0.39351 0.53857 0.76136 0.0
C264 C 0.44244 0.51566 0.78835 0.0
O265 O 0.42987 0.51079 0.72587 0.0
Mg266 Mg 0.65588 0.01654 0.73796 0.0
O267 O 0.67016 0.04675 0.74482 0.0
O268 O 0.68184 0.05391 0.77524 0.0
Mg269 Mg 0.68589 0.02618 0.78083 0.0
C270 C 0.67763 0.05849 0.75929 0.0
C271 C 0.63521 0.02934 0.70704 0.0
O272 O 0.62821 0.03537 0.72193 0.0
O273 O 0.68005 0.00825 0.7289 0.0
O274 O 0.69719 0.02709 0.75253 0.0
O275 O 0.6354 0.02373 0.75424 0.0
O276 O 0.659 0.01465 0.7664 0.0
C277 C 0.69515 0.01432 0.73844 0.0
C278 C 0.64527 0.02151 0.76883 0.0
O279 O 0.64739 0.02053 0.70889 0.0
Mg280 Mg 0.76247 0.65861 0.99568 0.0
O281 O 0.76613 0.67752 0.02462 0.0
O282 O 0.79407 0.69341 0.02916 0.0
Mg283 Mg 0.80857 0.68473 0.00419 0.0
C284 C 0.77883 0.68938 0.0347 0.0
C285 C 0.72637 0.63372 0.99155 0.0
O286 O 0.73717 0.62319 0.98597 0.0
O287 O 0.76169 0.68235 0.9785 0.0
O288 O 0.79081 0.69439 0.98252 0.0
O289 O 0.77292 0.63669 0.00904 0.0
O290 O 0.78929 0.65866 -0.00293 0.0
C291 C 0.77521 0.69328 0.97442 0.0
C292 C 0.78826 0.6443 0.00493 0.0
O293 O 0.73259 0.65092 0.99648 0.0
Mg294 Mg 0.88919 0.52913 0.78238 0.0
O295 O 0.87526 0.50054 0.78394 0.0
O296 O 0.8707 0.49766 0.81361 0.0
Mg297 Mg 0.88451 0.52509 0.83196 0.0
C298 C 0.86901 0.49114 0.79606 0.0
C299 C 0.88112 0.51408 0.73758 0.0
O300 O 0.87068 0.51134 0.72157 0.0
O301 O 0.86499 0.53861 0.78875 0.0
O302 O 0.8631 0.53836 0.81957 0.0
O303 O 0.91506 0.52021 0.78732 0.0
O304 O 0.90086 0.53239 0.80943 0.0
C305 C 0.85738 0.54148 0.80342 0.0
C306 C 0.9137 0.52507 0.80501 0.0
O307 O 0.87714 0.52345 0.75189 0.0
Mg308 Mg 0.78787 0.43163 0.50649 0.0
O309 O 0.77515 0.41722 0.47717 0.0
O310 O 0.80039 0.41023 0.48297 0.0
Mg311 Mg 0.82673 0.40815 0.49646 0.0
C312 C 0.78633 0.40813 0.47188 0.0
C313 C 0.75917 0.45118 0.50683 0.0
O314 O 0.77259 0.4634 0.50342 0.0
O315 O 0.78381 0.405 0.51812 0.0
O316 O 0.80921 0.39483 0.51676 0.0
O317 O 0.80191 0.45617 0.49535 0.0
O318 O 0.81245 0.43135 0.49888 0.0
C319 C 0.79387 0.39417 0.52223 0.0
C320 C 0.81487 0.4478 0.49517 0.0
O321 O 0.76175 0.43642 0.51198 0.0
Mg322 Mg 0.62375 0.5283 0.27733 0.0
O323 O 0.64302 0.55642 0.2813 0.0
O324 O 0.65862 0.56144 0.30986 0.0
Mg325 Mg 0.64994 0.53612 0.32405 0.0
C326 C 0.65477 0.56645 0.29406 0.0
C327 C 0.60311 0.5194 0.23716 0.0
O328 O 0.59462 0.50641 0.24551 0.0
O329 O 0.64626 0.51319 0.27197 0.0
O330 O 0.65995 0.51751 0.30154 0.0
O331 O 0.6033 0.53973 0.29313 0.0
O332 O 0.62451 0.52823 0.30614 0.0
C333 C 0.65813 0.51033 0.28411 0.0
C334 C 0.6108 0.53502 0.30795 0.0
O335 O 0.61662 0.53068 0.24633 0.0
Eu336 Eu 0.04397 0.03243 0.0235 0.0
C337 C 0.98483 0.96696 0.9788 0.0
N338 N 0.99385 0.98289 0.97412 0.0
C339 C 0.99397 0.96771 0.94258 0.0
C340 C 0.98003 0.95072 0.96534 0.0
C341 C 0.99831 0.98353 0.95628 0.0
C342 C 0.98477 0.95125 0.9471 0.0
C343 C 0.97045 0.95064 0.00204 0.0
C344 C 0.98004 0.96695 -0.00297 0.0
C345 C 0.96566 0.9345 0.98861 0.0
C346 C 0.97039 0.93455 0.97032 0.0
Eu347 Eu 0.99672 0.00925 -0.0029 0.0
N348 N 0.98441 0.98289 0.00971 0.0
C349 C 0.96554 0.95111 0.02028 0.0
C350 C 0.97883 0.98358 0.02714 0.0
C351 C 0.9697 0.96768 0.03286 0.0
H352 H 0.00436 0.99639 0.95224 0.0
H353 H 0.96541 0.96834 0.04677 0.0
H354 H 0.03815 0.0447 0.06898 0.0
H355 H 0.0745 0.07377 0.97372 0.0
H356 H 0.98055 0.99643 0.03636 0.0
H357 H 0.95813 0.93888 0.02463 0.0
H358 H 0.05939 0.04564 0.98407 0.0
H359 H 0.99735 0.96834 0.9284 0.0
H360 H 0.95811 0.92193 0.99217 0.0
H361 H 0.96643 0.92202 0.96009 0.0
H362 H 0.0463 0.07241 0.09334 0.0
H363 H 0.98118 0.93909 0.93634 0.0
H364 H 0.08271 0.10296 0.99624 0.0
N365 N 0.04847 0.05846 0.04717 0.0
C366 C 0.05735 0.07444 0.04251 0.0
C367 C 0.04934 0.0732 0.07907 0.0
C368 C 0.06273 0.09047 0.05619 0.0
C369 C 0.04445 0.05759 0.06513 0.0
C370 C 0.05857 0.08969 0.07461 0.0
N371 N 0.05645 0.05894 0.01118 0.0
C372 C 0.06152 0.0584 0.99352 0.0
C373 C 0.07101 0.09101 0.01906 0.0
C374 C 0.06143 0.0747 0.02407 0.0
C375 C 0.07533 0.09073 0.0006 0.0
C376 C 0.07063 0.07431 0.98781 0.0
H377 H 0.06258 0.1017 0.08554 0.0
H378 H 0.0767 0.11905 0.0616 0.0
H379 H 0.08393 0.11953 0.02914 0.0
O380 O 0.06913 0.02599 0.01708 0.0
O381 O 0.02609 0.05269 0.01841 0.0
O382 O 0.00727 0.03867 0.99145 0.0
O383 O 0.0655 0.03555 0.04599 0.0
O384 O 0.04171 0.01654 0.99356 0.0
O385 O 0.01614 0.02182 0.97916 0.0
O386 O 0.97031 0.01313 0.0015 0.0
O387 O 0.01497 0.98932 0.00332 0.0
O388 O 0.0328 0.00406 0.03056 0.0
O389 O 0.97642 0.00559 0.97316 0.0
O390 O 0.99818 0.0253 0.02681 0.0
O391 O 0.02404 0.0209 0.04176 0.0
C392 C 0.01579 0.0536 0.00317 0.0
C393 C 0.08561 0.01606 0.04129 0.0
C394 C 0.10998 0.00079 0.03768 0.0
C395 C 0.1073 0.99369 0.05444 0.0
C396 C 0.08267 0.00869 0.05794 0.0
C397 C 0.09352 0.99749 0.06443 0.0
C398 C 0.0991 0.01183 0.03113 0.0
C399 C 0.03187 0.01835 0.97838 0.0
C400 C 0.07588 0.02928 0.0348 0.0
C401 C 0.0723 0.10667 0.05121 0.0
C402 C 0.07641 0.10695 0.03271 0.0
C403 C 0.02504 0.98883 0.01898 0.0
C404 C 0.95426 0.02276 0.97647 0.0
C405 C 0.93328 0.04219 0.9825 0.0
C406 C 0.93088 0.04351 0.96322 0.0
C407 C 0.95162 0.02387 0.95712 0.0
C408 C 0.9453 0.03223 0.98904 0.0
C409 C 0.94013 0.03442 0.9506 0.0
C410 C 0.00814 0.02419 0.04223 0.0
C411 C 0.96469 0.01024 0.98346 0.0
H412 H 0.11579 0.98518 0.05968 0.0
H413 H 0.07226 0.01177 0.06605 0.0
H414 H 0.09139 0.99195 0.07733 0.0
H415 H 0.10153 0.01762 0.01837 0.0
H416 H 0.9214 0.05091 0.95783 0.0
H417 H 0.95812 0.01633 0.94701 0.0
H418 H 0.94709 0.03127 0.00395 0.0
H419 H 0.93798 0.03509 0.93568 0.0
Eu420 Eu 0.26394 0.7726 0.29098 0.0
C421 C 0.30205 0.73656 0.21569 0.0
N422 N 0.30926 0.74988 0.23074 0.0
C423 C 0.33536 0.73746 0.23356 0.0
C424 C 0.31101 0.72266 0.20951 0.0
C425 C 0.32588 0.75081 0.23936 0.0
C426 C 0.32782 0.72321 0.21872 0.0
C427 C 0.27731 0.72254 0.19151 0.0
C428 C 0.2855 0.73664 0.20659 0.0
C429 C 0.28609 0.70851 0.18556 0.0
C430 C 0.30292 0.70861 0.19448 0.0
Eu431 Eu 0.29172 0.77108 0.24035 0.0
N432 N 0.27697 0.74996 0.21323 0.0
C433 C 0.26042 0.72278 0.18307 0.0
C434 C 0.26082 0.75069 0.20449 0.0
C435 C 0.25222 0.73701 0.18948 0.0
H436 H 0.332 0.76193 0.25065 0.0
H437 H 0.23925 0.73745 0.18288 0.0
H438 H 0.22527 0.78301 0.27784 0.0
H439 H 0.31085 0.80208 0.35467 0.0
H440 H 0.25438 0.76167 0.20902 0.0
H441 H 0.25364 0.71211 0.17155 0.0
H442 H 0.29582 0.77774 0.32847 0.0
H443 H 0.34847 0.73817 0.24057 0.0
H444 H 0.27996 0.6975 0.17409 0.0
H445 H 0.30954 0.69772 0.18968 0.0
H446 H 0.20948 0.80808 0.28546 0.0
H447 H 0.33514 0.71279 0.21437 0.0
H448 H 0.29952 0.83054 0.36156 0.0
N449 N 0.24709 0.7948 0.29888 0.0
C450 C 0.25428 0.80862 0.31338 0.0
C451 C 0.22213 0.80847 0.29335 0.0
C452 C 0.24591 0.82338 0.31804 0.0
C453 C 0.23111 0.7943 0.28905 0.0
C454 C 0.22966 0.82319 0.30777 0.0
N455 N 0.27723 0.793 0.31916 0.0
C456 C 0.29113 0.79037 0.33073 0.0
C457 C 0.27779 0.82186 0.33895 0.0
C458 C 0.26998 0.80784 0.32366 0.0
C459 C 0.29304 0.82002 0.34978 0.0
C460 C 0.2995 0.804 0.3459 0.0
H461 H 0.22275 0.83421 0.31097 0.0
H462 H 0.24786 0.84931 0.33644 0.0
H463 H 0.27585 0.84804 0.35471 0.0
O464 O 0.26333 0.75054 0.30737 0.0
O465 O 0.27179 0.80018 0.28186 0.0
O466 O 0.29331 0.79017 0.26782 0.0
O467 O 0.23864 0.75552 0.2951 0.0
O468 O 0.29284 0.76886 0.29536 0.0
O469 O 0.30808 0.76851 0.26811 0.0
O470 O 0.29161 0.79107 0.22139 0.0
O471 O 0.27637 0.74274 0.24122 0.0
O472 O 0.27384 0.75943 0.26684 0.0
O473 O 0.31659 0.78649 0.23348 0.0
O474 O 0.26451 0.77984 0.23956 0.0
O475 O 0.24705 0.76761 0.26205 0.0
C476 C 0.28406 0.80277 0.27071 0.0
C477 C 0.23896 0.74429 0.32435 0.0
C478 C 0.24331 0.73921 0.35688 0.0
C479 C 0.22529 0.73865 0.35824 0.0
C480 C 0.22092 0.74347 0.32578 0.0
C481 C 0.21417 0.74075 0.34272 0.0
C482 C 0.25005 0.74207 0.33997 0.0
C483 C 0.30697 0.76752 0.28637 0.0
C484 C 0.24615 0.74647 0.30644 0.0
C485 C 0.25397 0.83772 0.3328 0.0
C486 C 0.26992 0.83701 0.34318 0.0
C487 C 0.26961 0.74326 0.25673 0.0
C488 C 0.31526 0.79553 0.20323 0.0
C489 C 0.31309 0.80669 0.1733 0.0
C490 C 0.32754 0.79924 0.16829 0.0
C491 C 0.32957 0.78783 0.19811 0.0
C492 C 0.30716 0.80491 0.19077 0.0
C493 C 0.33568 0.78975 0.18067 0.0
C494 C 0.24912 0.7749 0.24636 0.0
C495 C 0.30875 0.79473 0.22159 0.0
H496 H 0.21972 0.736 0.37108 0.0
H497 H 0.21203 0.74478 0.31379 0.0
H498 H 0.20024 0.73998 0.34374 0.0
H499 H 0.26394 0.7423 0.33901 0.0
H500 H 0.33231 0.80053 0.15477 0.0
H501 H 0.33608 0.78049 0.20754 0.0
H502 H 0.29626 0.81109 0.19478 0.0
H503 H 0.34674 0.7839 0.17675 0.0
Eu504 Eu 0.49261 0.01888 0.52326 0.0
C505 C 0.56377 0.05982 0.48572 0.0
N506 N 0.55247 0.04316 0.47975 0.0
C507 C 0.55121 0.04903 0.44776 0.0
C508 C 0.56837 0.07211 0.47288 0.0
C509 C 0.54715 0.03722 0.46087 0.0
C510 C 0.56154 0.06668 0.45384 0.0
C511 C 0.58436 0.08096 0.5105 0.0
C512 C 0.57183 0.06424 0.50441 0.0
C513 C 0.58814 0.09351 0.49795 0.0
C514 C 0.58018 0.0891 0.47922 0.0
Eu515 Eu 0.54609 0.02538 0.50407 0.0
N516 N 0.56805 0.05193 0.51643 0.0
C517 C 0.59309 0.08442 0.52894 0.0
C518 C 0.57716 0.05484 0.53407 0.0
C519 C 0.58966 0.07117 0.54067 0.0
H520 H 0.53992 0.0233 0.45566 0.0
H521 H 0.59667 0.07351 0.55477 0.0
H522 H 0.49763 0.01559 0.5712 0.0
H523 H 0.44531 0.97341 0.46794 0.0
H524 H 0.57498 0.04455 0.54299 0.0
H525 H 0.60281 0.09707 0.53409 0.0
H526 H 0.4661 0.00224 0.4829 0.0
H527 H 0.54658 0.0444 0.43291 0.0
H528 H 0.59758 0.10647 0.50247 0.0
H529 H 0.58367 0.09873 0.46957 0.0
H530 H 0.49157 0.99162 0.59071 0.0
H531 H 0.5648 0.07572 0.44359 0.0
H532 H 0.43945 0.94722 0.48552 0.0
N533 N 0.48748 0.99762 0.54493 0.0
C534 C 0.47696 0.98092 0.53707 0.0
C535 C 0.48778 0.98829 0.57559 0.0
C536 C 0.47231 0.96702 0.54823 0.0
C537 C 0.49171 0.00178 0.56418 0.0
C538 C 0.47838 0.97072 0.56753 0.0
N539 N 0.47326 0.99179 0.50766 0.0
C540 C 0.46422 0.99061 0.49024 0.0
C541 C 0.45726 0.96152 0.51038 0.0
C542 C 0.46941 0.9781 0.51819 0.0
C543 C 0.44887 0.95971 0.49194 0.0
C544 C 0.45219 0.97443 0.48193 0.0
H545 H 0.47504 0.96042 0.57652 0.0
H546 H 0.45744 0.93941 0.5485 0.0
H547 H 0.4443 0.93461 0.51544 0.0
O548 O 0.47221 0.03226 0.51166 0.0
O549 O 0.49985 0.99417 0.50429 0.0
O550 O 0.53012 0.99871 0.51198 0.0
O551 O 0.47152 0.02432 0.53932 0.0
O552 O 0.50665 0.03136 0.50045 0.0
O553 O 0.52354 0.01871 0.48091 0.0
O554 O 0.56966 0.0163 0.51515 0.0
O555 O 0.53992 0.0522 0.52014 0.0
O556 O 0.51024 0.04854 0.52793 0.0
O557 O 0.55613 0.00472 0.48694 0.0
O558 O 0.52739 0.01999 0.52474 0.0
O559 O 0.51351 0.0262 0.54844 0.0
C560 C 0.51489 0.9883 0.50328 0.0
C561 C 0.46025 0.05022 0.53494 0.0
C562 C 0.43903 0.06998 0.53603 0.0
C563 C 0.44844 0.08021 0.55303 0.0
C564 C 0.46983 0.06085 0.5517 0.0
C565 C 0.46387 0.07575 0.56069 0.0
C566 C 0.44508 0.05507 0.52694 0.0
C567 C 0.50821 0.02234 0.48407 0.0
C568 C 0.46461 0.03283 0.52705 0.0
C569 C 0.46099 0.95019 0.54011 0.0
C570 C 0.45346 0.94747 0.52129 0.0
C571 C 0.52634 0.05867 0.52676 0.0
C572 C 0.58656 0.0053 0.49173 0.0
C573 C 0.61286 0.9923 0.48993 0.0
C574 C 0.61642 0.00076 0.47404 0.0
C575 C 0.59049 0.01389 0.47603 0.0
C576 C 0.59789 0.99473 0.49877 0.0
C577 C 0.60535 0.01156 0.46724 0.0
C578 C 0.52842 0.02439 0.54286 0.0
C579 C 0.56966 0.00533 0.49937 0.0
H580 H 0.44386 0.09168 0.56031 0.0
H581 H 0.48158 0.05729 0.55813 0.0
H582 H 0.47107 0.08367 0.57379 0.0
H583 H 0.43753 0.04676 0.51415 0.0
H584 H 0.62789 0.99917 0.46699 0.0
H585 H 0.58184 0.02198 0.47028 0.0
H586 H 0.59467 0.98784 0.51067 0.0
H587 H 0.60819 0.01799 0.455 0.0
Eu588 Eu 0.30048 0.264 0.76771 0.0
C589 C 0.23533 0.29135 0.72803 0.0
N590 N 0.24683 0.30001 0.74351 0.0
C591 C 0.24921 0.32881 0.73216 0.0
C592 C 0.23048 0.30118 0.7138 0.0
C593 C 0.25366 0.31848 0.74589 0.0
C594 C 0.23761 0.32012 0.71602 0.0
C595 C 0.21682 0.26309 0.7103 0.0
C596 C 0.22865 0.27251 0.72627 0.0
C597 C 0.21198 0.27282 0.69608 0.0
C598 C 0.2188 0.29181 0.69781 0.0
Eu599 Eu 0.25414 0.28139 0.76548 0.0
N600 N 0.23401 0.26335 0.74 0.0
C601 C 0.21022 0.24415 0.70913 0.0
C602 C 0.22705 0.24509 0.73931 0.0
C603 C 0.21522 0.23516 0.7238 0.0
H604 H 0.26247 0.32531 0.75845 0.0
H605 H 0.20987 0.22061 0.72324 0.0
H606 H 0.29109 0.22047 0.77641 0.0
H607 H 0.34237 0.32607 0.8103 0.0
H608 H 0.23031 0.23818 0.75081 0.0
H609 H 0.20108 0.23641 0.69712 0.0
H610 H 0.32252 0.30789 0.78254 0.0
H611 H 0.25472 0.34346 0.73405 0.0
H612 H 0.20296 0.2658 0.68367 0.0
H613 H 0.21496 0.29912 0.6867 0.0
H614 H 0.2985 0.20311 0.80163 0.0
H615 H 0.23423 0.32815 0.70538 0.0
H616 H 0.35118 0.31078 0.83683 0.0
N617 N 0.30654 0.2461 0.79088 0.0
C618 C 0.31789 0.25515 0.80634 0.0
C619 C 0.30397 0.21775 0.80316 0.0
C620 C 0.3226 0.24573 0.82099 0.0
C621 C 0.29966 0.22765 0.78899 0.0
C622 C 0.31548 0.22681 0.81923 0.0
N623 N 0.31912 0.28293 0.79372 0.0
C624 C 0.32576 0.30123 0.79425 0.0
C625 C 0.33596 0.28382 0.8238 0.0
C626 C 0.32443 0.27405 0.80777 0.0
C627 C 0.34227 0.30279 0.82476 0.0
C628 C 0.33725 0.31149 0.80986 0.0
H629 H 0.31879 0.21909 0.83018 0.0
H630 H 0.33792 0.24842 0.84832 0.0
H631 H 0.34964 0.28172 0.85075 0.0
O632 O 0.32399 0.27206 0.75265 0.0
O633 O 0.28915 0.27074 0.79572 0.0
O634 O 0.27616 0.29398 0.78899 0.0
O635 O 0.31606 0.24416 0.75885 0.0
O636 O 0.29952 0.28981 0.75448 0.0
O637 O 0.27958 0.303 0.77037 0.0
O638 O 0.2317 0.27321 0.78142 0.0
O639 O 0.26422 0.27383 0.73699 0.0
O640 O 0.27992 0.25173 0.7425 0.0
O641 O 0.24102 0.30179 0.77897 0.0
O642 O 0.25564 0.25502 0.77741 0.0
O643 O 0.2754 0.24167 0.76116 0.0
C644 C 0.28205 0.28475 0.80133 0.0
C645 C 0.34251 0.24967 0.7432 0.0
C646 C 0.36738 0.25348 0.72424 0.0
C647 C 0.37057 0.2365 0.72803 0.0
C648 C 0.34626 0.23277 0.74669 0.0
C649 C 0.36015 0.22631 0.73921 0.0
C650 C 0.35335 0.26024 0.73203 0.0
C651 C 0.29238 0.30394 0.75958 0.0
C652 C 0.32737 0.25564 0.75164 0.0
C653 C 0.33412 0.25545 0.83694 0.0
C654 C 0.34079 0.27442 0.83833 0.0
C655 C 0.27204 0.26046 0.73087 0.0
C656 C 0.21114 0.29314 0.78467 0.0
C657 C 0.18401 0.29311 0.79963 0.0
C658 C 0.17864 0.30389 0.78666 0.0
C659 C 0.20523 0.30361 0.77166 0.0
C660 C 0.20028 0.2876 0.79846 0.0
C661 C 0.1891 0.30894 0.77271 0.0
C662 C 0.2616 0.24051 0.77062 0.0
C663 C 0.22938 0.28999 0.78546 0.0
H664 H 0.38132 0.23115 0.72239 0.0
H665 H 0.33845 0.22446 0.75535 0.0
H666 H 0.36287 0.21331 0.74209 0.0
H667 H 0.35078 0.27334 0.72923 0.0
H668 H 0.16622 0.30831 0.78724 0.0
H669 H 0.2133 0.3081 0.76099 0.0
H670 H 0.20479 0.27969 0.80869 0.0
H671 H 0.18479 0.31724 0.76282 0.0
Eu672 Eu 0.02705 0.99827 0.51368 0.0
C673 C 0.99872 0.06645 0.55606 0.0
N674 N 0.99161 0.05435 0.54008 0.0
C675 C 0.96301 0.0502 0.55089 0.0
C676 C 0.98819 0.07064 0.57032 0.0
C677 C 0.97393 0.04665 0.53707 0.0
C678 C 0.97019 0.06213 0.56767 0.0
C679 C 0.02427 0.08775 0.5743 0.0
C680 C 0.01659 0.07478 0.55812 0.0
C681 C 0.01385 0.09184 0.58859 0.0
C682 C 0.99589 0.08323 0.58665 0.0
Eu683 Eu 0.01136 0.04859 0.51801 0.0
N684 N 0.02654 0.06989 0.54446 0.0
C685 C 0.04222 0.0962 0.57562 0.0
C686 C 0.04398 0.07813 0.54561 0.0
C687 C 0.05208 0.09146 0.56114 0.0
H688 H 0.96813 0.03805 0.52385 0.0
H689 H 0.06595 0.09791 0.56203 0.0
H690 H 0.06884 0.99652 0.50763 0.0
H691 H 0.96549 0.95891 0.47147 0.0
H692 H 0.05168 0.07436 0.53465 0.0
H693 H 0.04859 0.10633 0.58776 0.0
H694 H 0.98394 0.97773 0.49968 0.0
H695 H 0.94903 0.04389 0.54851 0.0
H696 H 0.01956 0.10165 0.6012 0.0
H697 H 0.98802 0.08655 0.59779 0.0
H698 H 0.08542 0.98476 0.4826 0.0
H699 H 0.96168 0.06493 0.57832 0.0
H700 H 0.97961 0.94765 0.44405 0.0
N701 N 0.04371 0.98551 0.49167 0.0
C702 C 0.03452 0.97508 0.47555 0.0
C703 C 0.07111 0.982 0.48039 0.0
C704 C 0.04338 0.96801 0.46092 0.0
C705 C 0.06172 0.98874 0.49447 0.0
C706 C 0.06191 0.97174 0.46346 0.0
N707 N 0.00809 0.97841 0.48816 0.0
C708 C 0.99019 0.97352 0.48772 0.0
C709 C 0.00621 0.96026 0.45735 0.0
C710 C 0.01618 0.97131 0.47377 0.0
C711 C 0.98775 0.95612 0.45639 0.0
C712 C 0.97973 0.96253 0.47179 0.0
H713 H 0.06921 0.96658 0.45255 0.0
H714 H 0.04008 0.95201 0.43287 0.0
H715 H 0.00753 0.94518 0.42977 0.0
O716 O 0.01728 0.97507 0.52841 0.0
O717 O 0.02156 0.00918 0.48615 0.0
O718 O 0.00051 0.02517 0.49398 0.0
O719 O 0.04539 0.98562 0.52929 0.0
O720 O 0.00309 0.0027 0.52846 0.0
O721 O 0.99068 0.02196 0.51193 0.0
O722 O 0.01936 0.07001 0.49996 0.0
O723 O 0.02046 0.03959 0.5456 0.0
O724 O 0.04001 0.0223 0.53599 0.0
O725 O 0.99316 0.06514 0.50947 0.0
O726 O 0.03822 0.04848 0.5077 0.0
O727 O 0.04973 0.02253 0.51271 0.0
C728 C 0.00967 0.01851 0.4814 0.0
C729 C 0.03664 0.95487 0.53522 0.0
C730 C 0.03421 0.92753 0.55075 0.0
C731 C 0.04657 0.92156 0.53971 0.0
C732 C 0.04883 0.94841 0.52423 0.0
C733 C 0.05377 0.9319 0.52653 0.0
C734 C 0.02924 0.94427 0.54849 0.0
C735 C 0.98929 0.00894 0.52251 0.0
C736 C 0.03314 0.97346 0.53451 0.0
C737 C 0.03351 0.95742 0.44433 0.0
C738 C 0.01497 0.95355 0.44255 0.0
C739 C 0.0321 0.02967 0.54928 0.0
C740 C 0.99824 0.08864 0.4896 0.0
C741 C 0.0039 0.1161 0.47423 0.0
C742 C 0.98561 0.11533 0.47171 0.0
C743 C 0.98001 0.08829 0.48666 0.0
C744 C 0.01027 0.10254 0.48305 0.0
C745 C 0.97379 0.10149 0.47777 0.0
C746 C 0.05099 0.03914 0.50778 0.0
C747 C 0.00399 0.07456 0.49989 0.0
H748 H 0.05071 0.90885 0.54137 0.0
H749 H 0.05486 0.95631 0.51413 0.0
H750 H 0.06339 0.92719 0.5182 0.0
H751 H 0.02 0.9492 0.55727 0.0
H752 H 0.98043 0.12547 0.46486 0.0
H753 H 0.97042 0.07777 0.49129 0.0
H754 H 0.02436 0.10305 0.48516 0.0
H755 H 0.95973 0.10103 0.47564 0.0
Eu756 Eu 0.27847 0.79709 0.75997 0.0
C757 C 0.23734 0.73181 0.79347 0.0
N758 N 0.25256 0.74473 0.79966 0.0
C759 C 0.2443 0.74812 0.83107 0.0
C760 C 0.22467 0.72724 0.80586 0.0
C761 C 0.25658 0.75199 0.81841 0.0
C762 C 0.22816 0.7359 0.82472 0.0
C763 C 0.21942 0.70841 0.76852 0.0
C764 C 0.23481 0.72218 0.77499 0.0
C765 C 0.20661 0.70434 0.78072 0.0
C766 C 0.20925 0.71367 0.79932 0.0
Eu767 Eu 0.27318 0.74752 0.77754 0.0
N768 N 0.24747 0.72616 0.76338 0.0
C769 C 0.21748 0.69888 0.75003 0.0
C770 C 0.246 0.71648 0.74561 0.0
C771 C 0.23085 0.70289 0.73856 0.0
H772 H 0.26959 0.76005 0.82394 0.0
H773 H 0.22959 0.69536 0.72439 0.0
H774 H 0.28234 0.78283 0.71366 0.0
H775 H 0.32176 0.85054 0.81195 0.0
H776 H 0.2566 0.71919 0.73702 0.0
H777 H 0.20583 0.6882 0.74457 0.0
H778 H 0.29533 0.8256 0.8002 0.0
H779 H 0.24753 0.75412 0.84585 0.0
H780 H 0.19473 0.69374 0.776 0.0
H781 H 0.19942 0.71002 0.80868 0.0
H782 H 0.30428 0.7884 0.6917 0.0
H783 H 0.21881 0.73265 0.83467 0.0
H784 H 0.34469 0.85844 0.791 0.0
N785 N 0.29894 0.79952 0.73759 0.0
C786 C 0.31383 0.81302 0.74333 0.0
C787 C 0.30734 0.79507 0.70629 0.0
C788 C 0.32637 0.81745 0.73076 0.0
C789 C 0.29514 0.79139 0.71907 0.0
C790 C 0.32314 0.80798 0.71221 0.0
N791 N 0.30398 0.81895 0.77352 0.0
C792 C 0.3056 0.82869 0.79126 0.0
C793 C 0.33128 0.83755 0.76752 0.0
C794 C 0.31623 0.82319 0.76154 0.0
C795 C 0.33328 0.84735 0.7859 0.0
C796 C 0.3204 0.84289 0.79781 0.0
H797 H 0.33241 0.81107 0.70214 0.0
H798 H 0.35115 0.83516 0.7273 0.0
H799 H 0.35552 0.85259 0.75946 0.0
O800 O 0.27186 0.82432 0.7655 0.0
O801 O 0.30373 0.79123 0.77551 0.0
O802 O 0.30104 0.75957 0.77148 0.0
O803 O 0.26887 0.80979 0.73694 0.0
O804 O 0.26819 0.795 0.78781 0.0
O805 O 0.28286 0.77383 0.79844 0.0
O806 O 0.27987 0.72024 0.77191 0.0
O807 O 0.24819 0.7535 0.76165 0.0
O808 O 0.25079 0.78508 0.76682 0.0
O809 O 0.28262 0.73474 0.80053 0.0
O810 O 0.28366 0.75048 0.74992 0.0
O811 O 0.26831 0.77096 0.73902 0.0
C812 C 0.31075 0.7765 0.77528 0.0
C813 C 0.25194 0.83273 0.74251 0.0
C814 C 0.23601 0.85748 0.7479 0.0
C815 C 0.22606 0.85117 0.73013 0.0
C816 C 0.24178 0.82662 0.72471 0.0
C817 C 0.22893 0.8358 0.71862 0.0
C818 C 0.24897 0.84829 0.7541 0.0
C819 C 0.27445 0.78726 0.80135 0.0
C820 C 0.26713 0.82457 0.74775 0.0
C821 C 0.34143 0.83162 0.7368 0.0
C822 C 0.34388 0.84162 0.7551 0.0
C823 C 0.24108 0.76816 0.76272 0.0
C824 C 0.29772 0.71005 0.79594 0.0
C825 C 0.31204 0.68395 0.79081 0.0
C826 C 0.31875 0.68735 0.81003 0.0
C827 C 0.30477 0.71329 0.81512 0.0
C828 C 0.30162 0.6954 0.78374 0.0
C829 C 0.31525 0.70204 0.82205 0.0
C830 C 0.27571 0.75671 0.73621 0.0
C831 C 0.284 0.71981 0.78976 0.0
H832 H 0.21617 0.85831 0.72509 0.0
H833 H 0.24404 0.81501 0.71524 0.0
H834 H 0.22135 0.83116 0.70482 0.0
H835 H 0.25697 0.85353 0.76764 0.0
H836 H 0.32678 0.67864 0.81572 0.0
H837 H 0.3017 0.72415 0.82498 0.0
H838 H 0.29599 0.6924 0.76902 0.0
H839 H 0.3204 0.70451 0.83687 0.0
Eu840 Eu 0.52465 0.03506 0.99127 0.0
C841 C 0.55608 0.99439 0.06361 0.0
N842 N 0.54264 0.987 0.04947 0.0
C843 C 0.55305 0.9589 0.04503 0.0
C844 C 0.56906 0.98452 0.06839 0.0
C845 C 0.5407 0.96935 0.0405 0.0
C846 C 0.56741 0.96658 0.05886 0.0
C847 C 0.57151 0.02059 0.08693 0.0
C848 C 0.55717 0.01215 0.07295 0.0
C849 C 0.58463 0.01092 0.09145 0.0
C850 C 0.58336 0.9929 0.08227 0.0
Eu851 Eu 0.52367 0.0064 0.04111 0.0
N852 N 0.54475 0.02153 0.06754 0.0
C853 C 0.57243 0.03865 0.09569 0.0
C854 C 0.54514 0.03881 0.07678 0.0
C855 C 0.55905 0.04769 0.09077 0.0
H856 H 0.52963 0.96327 0.0298 0.0
H857 H 0.55948 0.06154 0.09772 0.0
H858 H 0.51701 0.07637 0.00684 0.0
H859 H 0.49426 0.98722 0.92676 0.0
H860 H 0.53484 0.04597 0.07356 0.0
H861 H 0.58331 0.04567 0.10637 0.0
H862 H 0.5181 0.00187 0.95255 0.0
H863 H 0.55156 0.94497 0.03772 0.0
H864 H 0.59583 0.01726 0.102 0.0
H865 H 0.59358 0.98561 0.08593 0.0
H866 H 0.49382 0.09411 0.00193 0.0
H867 H 0.57709 0.95854 0.06213 0.0
H868 H 0.46769 1.00042 0.92223 0.0
N869 N 0.50446 0.0539 0.98551 0.0
C870 C 0.49082 0.04694 0.97161 0.0
C871 C 0.49276 0.08081 0.99337 0.0
C872 C 0.47717 0.05642 0.96842 0.0
C873 C 0.50587 0.07075 0.99613 0.0
C874 C 0.47823 0.07352 0.9796 0.0
N875 N 0.50443 0.02204 0.96372 0.0
C876 C 0.5063 0.00735 0.95121 0.0
C877 C 0.47695 0.0228 0.94563 0.0
C878 C 0.49068 0.03035 0.9605 0.0
C879 C 0.478 0.00672 0.93378 0.0
C880 C 0.49295 0.99921 0.93632 0.0
H881 H 0.46804 0.08128 0.97757 0.0
H882 H 0.45229 0.05553 0.95164 0.0
H883 H 0.4521 0.02606 0.93163 0.0
O884 O 0.54435 0.03445 0.97202 0.0
O885 O 0.4989 0.0309 0.00307 0.0
O886 O 0.50571 0.00672 0.01474 0.0
O887 O 0.54362 0.0603 0.98911 0.0
O888 O 0.52591 0.00409 0.9859 0.0
O889 O 0.52428 0.98819 0.01244 0.0
O890 O 0.50456 0.00846 0.06126 0.0
O891 O 0.5517 0.01859 0.03764 0.0
O892 O 0.53577 0.02328 0.0139 0.0
O893 O 0.50693 0.98169 0.04738 0.0
O894 O 0.51835 0.03594 0.04353 0.0
O895 O 0.53115 0.05279 0.02088 0.0
C896 C 0.4952 0.01816 0.01356 0.0
C897 C 0.55398 0.06134 0.95909 0.0
C898 C 0.56144 0.05951 0.9269 0.0
C899 C 0.56394 0.07878 0.92862 0.0
C900 C 0.55662 0.08056 0.96065 0.0
C901 C 0.5614 0.08919 0.94537 0.0
C902 C 0.5562 0.05091 0.9421 0.0
C903 C 0.52557 0.9891 0.99416 0.0
C904 C 0.55065 0.05215 0.97553 0.0
C905 C 0.46303 0.04858 0.95417 0.0
C906 C 0.46291 0.03178 0.94281 0.0
C907 C 0.55149 0.02544 0.02238 0.0
C908 C 0.49717 0.98323 0.07765 0.0
C909 C 0.48466 0.98461 0.10727 0.0
C910 C 0.48842 0.96745 0.10946 0.0
C911 C 0.50107 0.9661 0.08003 0.0
C912 C 0.48913 0.99253 0.09148 0.0
C913 C 0.49674 0.95832 0.09594 0.0
C914 C 0.52377 0.05156 0.03679 0.0
C915 C 0.49956 0.99065 0.06005 0.0
H916 H 0.56845 0.08591 0.91731 0.0
H917 H 0.55529 0.08893 0.97373 0.0
H918 H 0.56362 0.10403 0.94667 0.0
H919 H 0.5543 0.03607 0.94083 0.0
H920 H 0.48491 0.96116 0.12164 0.0
H921 H 0.50713 0.95855 0.06948 0.0
H922 H 0.48577 0.00558 0.08967 0.0
H923 H 0.49959 0.94506 0.09766 0.0
Eu924 Eu 0.26974 0.25149 0.25398 0.0
C925 C 0.32685 0.31971 0.30133 0.0
N926 N 0.31207 0.30862 0.30549 0.0
C927 C 0.32569 0.31028 0.3371 0.0
C928 C 0.34173 0.32647 0.31507 0.0
C929 C 0.31123 0.30394 0.32309 0.0
C930 C 0.341 0.32161 0.33309 0.0
C931 C 0.34231 0.3359 0.27867 0.0
C932 C 0.32708 0.32446 0.28329 0.0
C933 C 0.3571 0.34264 0.29236 0.0
C934 C 0.35679 0.33799 0.3105 0.0
Eu935 Eu 0.28761 0.30154 0.28181 0.0
N936 N 0.31253 0.31787 0.27027 0.0
C937 C 0.34219 0.34035 0.26044 0.0
C938 C 0.31212 0.32288 0.25278 0.0
C939 C 0.32701 0.33385 0.24747 0.0
H940 H 0.29917 0.29602 0.32666 0.0
H941 H 0.32662 0.33763 0.23349 0.0
H942 H 0.25833 0.25809 0.20942 0.0
H943 H 0.23129 0.21295 0.3006 0.0
H944 H 0.30023 0.31906 0.24305 0.0
H945 H 0.35364 0.34905 0.25635 0.0
H946 H 0.25798 0.23105 0.29072 0.0
H947 H 0.32491 0.3067 0.35109 0.0
H948 H 0.36884 0.35153 0.28907 0.0
H949 H 0.36829 0.3434 0.32092 0.0
H950 H 0.23205 0.24968 0.18563 0.0
H951 H 0.35212 0.32665 0.34405 0.0
H952 H 0.20333 0.20454 0.2789 0.0
N953 N 0.2451 0.24608 0.2307 0.0
C954 C 0.23002 0.23555 0.23492 0.0
C955 C 0.23122 0.24584 0.19951 0.0
C956 C 0.2148 0.22994 0.22148 0.0
C957 C 0.24602 0.25097 0.2132 0.0
C958 C 0.21553 0.23533 0.20368 0.0
N959 N 0.2447 0.23555 0.26538 0.0
C960 C 0.24556 0.22886 0.28199 0.0
C961 C 0.21443 0.21892 0.25722 0.0
C962 C 0.22983 0.23012 0.25268 0.0
C963 C 0.21486 0.21319 0.27491 0.0
C964 C 0.23057 0.21802 0.28726 0.0
H965 H 0.20415 0.23119 0.19295 0.0
H966 H 0.18767 0.21444 0.2159 0.0
H967 H 0.18735 0.2048 0.24713 0.0
O968 O 0.27554 0.22508 0.25803 0.0
O969 O 0.24828 0.26814 0.26 0.0
O970 O 0.26016 0.28758 0.2876 0.0
O971 O 0.26969 0.23071 0.22968 0.0
O972 O 0.28389 0.25418 0.28395 0.0
O973 O 0.27706 0.28025 0.29923 0.0
O974 O 0.27819 0.32623 0.27719 0.0
O975 O 0.30986 0.28612 0.27494 0.0
O976 O 0.2979 0.26379 0.24905 0.0
O977 O 0.2871 0.32241 0.30597 0.0
O978 O 0.2735 0.2984 0.25187 0.0
O979 O 0.28105 0.27269 0.23674 0.0
C980 C 0.24638 0.27907 0.27533 0.0
C981 C 0.28889 0.21049 0.23406 0.0
C982 C 0.30588 0.18748 0.2386 0.0
C983 C 0.31402 0.19066 0.22246 0.0
C984 C 0.29707 0.21383 0.21787 0.0
C985 C 0.30974 0.20401 0.21223 0.0
C986 C 0.29353 0.19745 0.24443 0.0
C987 C 0.28171 0.26452 0.29949 0.0
C988 C 0.27471 0.21932 0.23997 0.0
C989 C 0.19944 0.21893 0.22609 0.0
C990 C 0.19926 0.21346 0.24389 0.0
C991 C 0.31166 0.27397 0.26044 0.0
C992 C 0.2767 0.3502 0.30289 0.0
C993 C 0.26023 0.37386 0.29905 0.0
C994 C 0.26693 0.38271 0.31754 0.0
C995 C 0.28342 0.35903 0.32136 0.0
C996 C 0.26512 0.3576 0.29191 0.0
C997 C 0.27851 0.37527 0.32863 0.0
C998 C 0.27632 0.28842 0.2364 0.0
C999 C 0.28063 0.33264 0.29527 0.0
H1000 H 0.32345 0.18271 0.21771 0.0
H1001 H 0.29364 0.22385 0.20956 0.0
H1002 H 0.31599 0.2065 0.19974 0.0
H1003 H 0.28696 0.19447 0.25668 0.0
H1004 H 0.2635 0.39549 0.32325 0.0
H1005 H 0.29233 0.35336 0.33014 0.0
H1006 H 0.25961 0.35051 0.27781 0.0
H1007 H 0.28371 0.38213 0.34285 0.0
Eu1008 Eu 0.52578 0.49631 0.01259 0.0
C1009 C 0.50292 0.56586 0.05797 0.0
N1010 N 0.49442 0.55443 0.04206 0.0
C1011 C 0.46654 0.55398 0.0541 0.0
C1012 C 0.49355 0.57105 0.07301 0.0
C1013 C 0.47637 0.54935 0.03957 0.0
C1014 C 0.4752 0.56458 0.07107 0.0
C1015 C 0.5297 0.58666 0.07429 0.0
C1016 C 0.52072 0.57376 0.05855 0.0
C1017 C 0.52066 0.591 0.08974 0.0
C1018 C 0.50261 0.58325 0.08908 0.0
Eu1019 Eu 0.51214 0.5479 0.01785 0.0
N1020 N 0.52906 0.56953 0.04328 0.0
C1021 C 0.54732 0.59532 0.07375 0.0
C1022 C 0.54584 0.57882 0.04217 0.0
C1023 C 0.55535 0.59156 0.0575 0.0
H1024 H 0.46944 0.54246 0.02607 0.0
H1025 H 0.56882 0.59852 0.05674 0.0
H1026 H 0.56799 0.49852 0.00621 0.0
H1027 H 0.46545 0.45637 0.96807 0.0
H1028 H 0.55194 0.57607 0.02958 0.0
H1029 H 0.55467 0.60529 0.08556 0.0
H1030 H 0.48252 0.47584 0.99655 0.0
H1031 H 0.45224 0.54976 0.05203 0.0
H1032 H 0.52736 0.60078 0.10201 0.0
H1033 H 0.49565 0.58726 0.10081 0.0
H1034 H 0.58551 0.48872 0.98124 0.0
H1035 H 0.46752 0.56841 0.0822 0.0
H1036 H 0.48077 0.44548 0.94154 0.0
N1037 N 0.54329 0.48702 0.98974 0.0
C1038 C 0.53458 0.47587 0.97379 0.0
C1039 C 0.5712 0.48525 0.97882 0.0
C1040 C 0.54398 0.46958 0.95926 0.0
C1041 C 0.56129 0.49114 0.99279 0.0
C1042 C 0.5625 0.47461 0.96186 0.0
N1043 N 0.50748 0.47685 0.98634 0.0
C1044 C 0.4895 0.47161 0.98514 0.0
C1045 C 0.50687 0.45919 0.95548 0.0
C1046 C 0.5162 0.4706 0.97204 0.0
C1047 C 0.48841 0.45419 0.95404 0.0
C1048 C 0.47972 0.46035 0.96897 0.0
H1049 H 0.57019 0.47002 0.95106 0.0
H1050 H 0.54167 0.45346 0.93141 0.0
H1051 H 0.5092 0.44447 0.92803 0.0
O1052 O 0.52061 0.46815 0.01978 0.0
O1053 O 0.52176 0.50916 0.98615 0.0
O1054 O 0.50015 0.52416 0.9945 0.0
O1055 O 0.54581 0.48756 0.03023 0.0
O1056 O 0.49954 0.49719 0.02364 0.0
O1057 O 0.48909 0.52282 0.01594 0.0
O1058 O 0.51913 0.56734 -0.00275 0.0
O1059 O 0.53128 0.54253 0.0412 0.0
O1060 O 0.51953 0.51221 0.03912 0.0
O1061 O 0.49575 0.56684 0.01179 0.0
O1062 O 0.53678 0.54426 0.00423 0.0
O1063 O 0.54865 0.52162 0.01687 0.0
C1064 C 0.5092 0.51778 0.98163 0.0
C1065 C 0.54276 0.45712 0.03934 0.0
C1066 C 0.53848 0.42885 0.05352 0.0
C1067 C 0.55694 0.43104 0.05673 0.0
C1068 C 0.56115 0.45889 0.04295 0.0
C1069 C 0.56814 0.44595 0.05154 0.0
C1070 C 0.53132 0.442 0.04478 0.0
C1071 C 0.4869 0.50647 0.02156 0.0
C1072 C 0.53611 0.47109 0.02967 0.0
C1073 C 0.53467 0.45834 0.94275 0.0
C1074 C 0.51618 0.45319 0.94085 0.0
C1075 C 0.53006 0.52722 0.04821 0.0
C1076 C 0.49907 0.58825 0.98986 0.0
C1077 C 0.50386 0.61477 0.97313 0.0
C1078 C 0.48589 0.61523 0.97298 0.0
C1079 C 0.48107 0.58907 0.9893 0.0
C1080 C 0.51054 0.60119 0.98158 0.0
C1081 C 0.4746 0.60245 0.98097 0.0
C1082 C 0.55032 0.53721 0.00979 0.0
C1083 C 0.50527 0.57426 -0.00011 0.0
H1084 H 0.56273 0.4212 0.06346 0.0
H1085 H 0.57021 0.47024 0.03891 0.0
H1086 H 0.58234 0.44746 0.05416 0.0
H1087 H 0.51709 0.44044 0.0422 0.0
H1088 H 0.48059 0.62561 0.96667 0.0
H1089 H 0.47191 0.57937 0.99545 0.0
H1090 H 0.52445 0.60088 0.98194 0.0
H1091 H 0.46076 0.60297 0.98079 0.0
Eu1092 Eu 0.77756 0.29572 0.25762 0.0
C1093 C 0.73702 0.23242 0.29581 0.0
N1094 N 0.75255 0.245 0.30142 0.0
C1095 C 0.74482 0.24983 0.33299 0.0
C1096 C 0.72463 0.22844 0.30864 0.0
C1097 C 0.75691 0.25297 0.31996 0.0
C1098 C 0.72854 0.23767 0.32727 0.0
C1099 C 0.71869 0.20833 0.27185 0.0
C1100 C 0.734 0.22241 0.27756 0.0
C1101 C 0.70615 0.20479 0.28445 0.0
C1102 C 0.7091 0.21483 0.30277 0.0
Eu1103 Eu 0.77233 0.24765 0.27823 0.0
N1104 N 0.7464 0.22588 0.26562 0.0
C1105 C 0.71672 0.19778 0.25383 0.0
C1106 C 0.7451 0.21495 0.24854 0.0
C1107 C 0.73008 0.20099 0.2422 0.0
H1108 H 0.76992 0.26124 0.32509 0.0
H1109 H 0.72894 0.19254 0.2285 0.0
H1110 H 0.7827 0.2826 0.21196 0.0
H1111 H 0.82162 0.34472 0.31356 0.0
H1112 H 0.75578 0.21698 0.23994 0.0
H1113 H 0.70517 0.1868 0.24898 0.0
H1114 H 0.79439 0.32199 0.29975 0.0
H1115 H 0.74829 0.2564 0.34758 0.0
H1116 H 0.69432 0.19403 0.28031 0.0
H1117 H 0.69949 0.2116 0.31247 0.0
H1118 H 0.80501 0.28998 0.19045 0.0
H1119 H 0.71938 0.23495 0.33753 0.0
H1120 H 0.84536 0.35328 0.29374 0.0
N1121 N 0.7983 0.30005 0.23599 0.0
C1122 C 0.81337 0.31297 0.24267 0.0
C1123 C 0.80759 0.29639 0.20514 0.0
C1124 C 0.82631 0.31784 0.23069 0.0
C1125 C 0.79508 0.29203 0.21747 0.0
C1126 C 0.82328 0.30931 0.21177 0.0
N1127 N 0.80325 0.31654 0.27299 0.0
C1128 C 0.80498 0.32494 0.29128 0.0
C1129 C 0.83149 0.33471 0.26877 0.0
C1130 C 0.81592 0.32138 0.26161 0.0
C1131 C 0.8336 0.34296 0.28774 0.0
C1132 C 0.82026 0.3381 0.29901 0.0
H1133 H 0.83289 0.31275 0.20212 0.0
H1134 H 0.8518 0.33511 0.22881 0.0
H1135 H 0.85634 0.34981 0.26207 0.0
O1136 O 0.7726 0.32362 0.26281 0.0
O1137 O 0.80269 0.28399 0.26323 0.0
O1138 O 0.79877 0.26793 0.28823 0.0
O1139 O 0.76461 0.30659 0.23474 0.0
O1140 O 0.76726 0.29382 0.28541 0.0
O1141 O 0.78128 0.27382 0.29924 0.0
O1142 O 0.78701 0.22637 0.26921 0.0
O1143 O 0.74771 0.25229 0.26067 0.0
O1144 O 0.75053 0.28366 0.26618 0.0
O1145 O 0.77612 0.22734 0.2959 0.0
O1146 O 0.78246 0.25134 0.25035 0.0
O1147 O 0.7669 0.27007 0.23663 0.0
C1148 C 0.80916 0.27712 0.27765 0.0
C1149 C 0.75819 0.33725 0.2387 0.0
C1150 C 0.74191 0.36181 0.24307 0.0
C1151 C 0.74367 0.36459 0.2244 0.0
C1152 C 0.75976 0.34022 0.22007 0.0
C1153 C 0.75265 0.35394 0.21303 0.0
C1154 C 0.74946 0.3483 0.25036 0.0
C1155 C 0.77416 0.28828 0.30018 0.0
C1156 C 0.76519 0.32224 0.24555 0.0
C1157 C 0.84177 0.33115 0.23785 0.0
C1158 C 0.84435 0.33953 0.25681 0.0
C1159 C 0.74068 0.26692 0.26114 0.0
C1160 C 0.79892 0.21089 0.29264 0.0
C1161 C 0.81421 0.18558 0.2901 0.0
C1162 C 0.82068 0.19041 0.30937 0.0
C1163 C 0.80572 0.21584 0.31186 0.0
C1164 C 0.80349 0.19596 0.28177 0.0
C1165 C 0.8166 0.20562 0.32014 0.0
C1166 C 0.7731 0.25503 0.23589 0.0
C1167 C 0.78488 0.21889 0.28435 0.0
H1168 H 0.73803 0.37504 0.21862 0.0
H1169 H 0.76653 0.33192 0.21096 0.0
H1170 H 0.75396 0.3562 0.19867 0.0
H1171 H 0.74804 0.34603 0.26473 0.0
H1172 H 0.82896 0.18247 0.31603 0.0
H1173 H 0.8022 0.2272 0.3206 0.0
H1174 H 0.79802 0.19186 0.26703 0.0
H1175 H 0.82161 0.20929 0.33499 0.0
Eu1176 Eu 0.02473 0.53576 0.49207 0.0
C1177 C 0.05661 0.49631 0.56326 0.0
N1178 N 0.0428 0.48835 0.54978 0.0
C1179 C 0.05317 0.46021 0.54605 0.0
C1180 C 0.06954 0.4865 0.56841 0.0
C1181 C 0.04084 0.47056 0.54121 0.0
C1182 C 0.06762 0.46823 0.55968 0.0
C1183 C 0.07296 0.52345 0.58463 0.0
C1184 C 0.0583 0.51463 0.57113 0.0
C1185 C 0.08584 0.51372 0.58981 0.0
C1186 C 0.08413 0.4953 0.58174 0.0
Eu1187 Eu 0.02333 0.50688 0.54078 0.0
N1188 N 0.04595 0.52394 0.56525 0.0
C1189 C 0.07437 0.54187 0.59241 0.0
C1190 C 0.04681 0.5416 0.57381 0.0
C1191 C 0.06111 0.55088 0.58716 0.0
H1192 H 0.02981 0.46437 0.53048 0.0
H1193 H 0.0618 0.56498 0.59354 0.0
H1194 H 0.01693 0.57706 0.50737 0.0
H1195 H 0.99184 0.48548 0.42984 0.0
H1196 H 0.03648 0.54872 0.57097 0.0
H1197 H 0.08546 0.54915 0.60271 0.0
H1198 H 0.01616 0.5004 0.45478 0.0
H1199 H 0.05162 0.44613 0.53915 0.0
H1200 H 0.09722 0.52035 0.60003 0.0
H1201 H 0.09424 0.48801 0.58579 0.0
H1202 H 0.99417 0.59517 0.50175 0.0
H1203 H 0.07728 0.46025 0.56323 0.0
H1204 H 0.96599 0.49959 0.42467 0.0
N1205 N 0.00431 0.55444 0.48629 0.0
C1206 C 0.99073 0.54749 0.47224 0.0
C1207 C 0.993 0.58173 0.49342 0.0
C1208 C 0.97735 0.55722 0.46864 0.0
C1209 C 0.00583 0.57144 0.49662 0.0
C1210 C 0.97861 0.57453 0.47947 0.0
N1211 N 0.00331 0.52148 0.46562 0.0
C1212 C 0.00456 0.50617 0.45358 0.0
C1213 C 0.97612 0.52269 0.44714 0.0
C1214 C 0.99007 0.53037 0.46179 0.0
C1215 C 0.97647 0.50598 0.43602 0.0
C1216 C 0.99098 0.49792 0.43898 0.0
H1217 H 0.96862 0.58246 0.47713 0.0
H1218 H 0.95264 0.55654 0.45162 0.0
H1219 H 0.9516 0.52632 0.43273 0.0
O1220 O 0.04284 0.53524 0.47105 0.0
O1221 O 0.99839 0.53107 0.50234 0.0
O1222 O 0.00751 0.50873 0.51401 0.0
O1223 O 0.04132 0.56138 0.48701 0.0
O1224 O 0.02774 0.50522 0.48667 0.0
O1225 O 0.02064 0.48831 0.51167 0.0
O1226 O 0.0044 0.50821 0.56125 0.0
O1227 O 0.04969 0.50943 0.53044 0.0
O1228 O 0.0396 0.53014 0.51757 0.0
O1229 O 0.00742 0.48174 0.54748 0.0
O1230 O 0.01717 0.53618 0.54368 0.0
O1231 O 0.03097 0.55307 0.52187 0.0
C1232 C 0.99508 0.51775 0.51197 0.0
C1233 C 0.04775 0.56057 0.45532 0.0
C1234 C 0.05742 0.55968 0.42431 0.0
C1235 C 0.04896 0.57396 0.42096 0.0
C1236 C 0.039 0.57471 0.45191 0.0
C1237 C 0.03966 0.58138 0.43473 0.0
C1238 C 0.0568 0.55306 0.44139 0.0
C1239 C 0.02499 0.48973 0.49427 0.0
C1240 C 0.04772 0.55307 0.47302 0.0
C1241 C 0.96314 0.54935 0.45449 0.0
C1242 C 0.96251 0.53211 0.44378 0.0
C1243 C 0.05194 0.52082 0.51864 0.0
C1244 C 0.99791 0.48312 0.57799 0.0
C1245 C 0.98542 0.48446 0.60767 0.0
C1246 C 0.98906 0.46722 0.60972 0.0
C1247 C 0.00171 0.46593 0.58027 0.0
C1248 C 0.98999 0.49245 0.59193 0.0
C1249 C 0.99734 0.45809 0.59615 0.0
C1250 C 0.02228 0.55188 0.53694 0.0
C1251 C 0.99998 0.49042 0.56027 0.0
H1252 H 0.04958 0.57932 0.40777 0.0
H1253 H 0.03174 0.5806 0.46244 0.0
H1254 H 0.03306 0.59235 0.43213 0.0
H1255 H 0.06361 0.54215 0.44393 0.0
H1256 H 0.98546 0.46084 0.62183 0.0
H1257 H 0.00765 0.45835 0.56962 0.0
H1258 H 0.98667 0.50554 0.59019 0.0
H1259 H 1.00008 0.44477 0.59776 0.0
Eu1260 Eu 0.79974 0.76391 0.2675 0.0
C1261 C 0.73395 0.79162 0.22717 0.0
N1262 N 0.74623 0.80007 0.24208 0.0
C1263 C 0.74959 0.8285 0.22982 0.0
C1264 C 0.72918 0.80133 0.21278 0.0
C1265 C 0.75376 0.81835 0.24382 0.0
C1266 C 0.73732 0.81994 0.21417 0.0
C1267 C 0.71338 0.76394 0.21097 0.0
C1268 C 0.72625 0.77311 0.2262 0.0
C1269 C 0.7086 0.77357 0.19662 0.0
C1270 C 0.71653 0.79219 0.19748 0.0
Eu1271 Eu 0.7532 0.78155 0.26442 0.0
N1272 N 0.73179 0.76392 0.23982 0.0
C1273 C 0.70605 0.74523 0.21037 0.0
C1274 C 0.72435 0.74583 0.23957 0.0
C1275 C 0.71152 0.73617 0.22478 0.0
H1276 H 0.76283 0.8252 0.25612 0.0
H1277 H 0.70578 0.72175 0.22455 0.0
H1278 H 0.79066 0.72061 0.27679 0.0
H1279 H 0.84079 0.82673 0.30981 0.0
H1280 H 0.72807 0.73886 0.25085 0.0
H1281 H 0.69621 0.73766 0.19887 0.0
H1282 H 0.82115 0.80822 0.28214 0.0
H1283 H 0.75577 0.84296 0.23117 0.0
H1284 H 0.69887 0.7667 0.18472 0.0
H1285 H 0.71276 0.79941 0.18626 0.0
H1286 H 0.79815 0.70367 0.30235 0.0
H1287 H 0.7341 0.82785 0.20336 0.0
H1288 H 0.84971 0.81183 0.33659 0.0
N1289 N 0.80577 0.74645 0.29107 0.0
C1290 C 0.81695 0.75578 0.30655 0.0
C1291 C 0.80346 0.71833 0.30374 0.0
C1292 C 0.82174 0.7466 0.32137 0.0
C1293 C 0.79909 0.72799 0.28938 0.0
C1294 C 0.81483 0.72766 0.3198 0.0
N1295 N 0.81796 0.78335 0.29353 0.0
C1296 C 0.8244 0.80167 0.29393 0.0
C1297 C 0.8347 0.78471 0.32379 0.0
C1298 C 0.82328 0.7747 0.30778 0.0
C1299 C 0.84087 0.80367 0.32456 0.0
C1300 C 0.83578 0.81215 0.30951 0.0
H1301 H 0.81821 0.72012 0.3309 0.0
H1302 H 0.83701 0.74972 0.3488 0.0
H1303 H 0.84841 0.78303 0.35088 0.0
O1304 O 0.82385 0.77206 0.25342 0.0
O1305 O 0.78765 0.77017 0.29504 0.0
O1306 O 0.7754 0.79369 0.28794 0.0
O1307 O 0.81536 0.74396 0.25891 0.0
O1308 O 0.79866 0.78929 0.25366 0.0
O1309 O 0.77875 0.80311 0.26892 0.0
O1310 O 0.73133 0.77407 0.2815 0.0
O1311 O 0.76218 0.77182 0.23583 0.0
O1312 O 0.78038 0.75156 0.24139 0.0
O1313 O 0.74049 0.80234 0.27762 0.0
O1314 O 0.75441 0.75505 0.27605 0.0
O1315 O 0.77472 0.74139 0.26096 0.0
C1316 C 0.78048 0.78417 0.30043 0.0
C1317 C 0.84225 0.7496 0.24391 0.0
C1318 C 0.86781 0.75385 0.22593 0.0
C1319 C 0.87031 0.73638 0.22877 0.0
C1320 C 0.8453 0.73219 0.24644 0.0
C1321 C 0.85919 0.7257 0.23896 0.0
C1322 C 0.85374 0.7606 0.23364 0.0
C1323 C 0.79197 0.80377 0.25868 0.0
C1324 C 0.82698 0.75552 0.25214 0.0
C1325 C 0.83314 0.75656 0.3373 0.0
C1326 C 0.83962 0.77554 0.33849 0.0
C1327 C 0.77133 0.75948 0.22991 0.0
C1328 C 0.71179 0.7952 0.28759 0.0
C1329 C 0.68613 0.79349 0.30529 0.0
C1330 C 0.68184 0.80836 0.29742 0.0
C1331 C 0.70684 0.80978 0.27959 0.0
C1332 C 0.70111 0.78681 0.30025 0.0
C1333 C 0.69201 0.8163 0.28453 0.0
C1334 C 0.76029 0.74042 0.26945 0.0
C1335 C 0.72946 0.79103 0.28537 0.0
H1336 H 0.88099 0.73096 0.22302 0.0
H1337 H 0.83691 0.72346 0.25428 0.0
H1338 H 0.86131 0.71226 0.24104 0.0
H1339 H 0.85165 0.77405 0.23148 0.0
H1340 H 0.67048 0.81378 0.30118 0.0
H1341 H 0.71477 0.81665 0.27 0.0
H1342 H 0.70485 0.77573 0.30676 0.0
H1343 H 0.68856 0.82778 0.2786 0.0
Eu1344 Eu 0.76475 0.27299 0.7887 0.0
C1345 C 0.80296 0.23656 0.71843 0.0
N1346 N 0.80945 0.24988 0.73362 0.0
C1347 C 0.83625 0.23883 0.7372 0.0
C1348 C 0.81303 0.22379 0.71198 0.0
C1349 C 0.8258 0.25118 0.7431 0.0
C1350 C 0.82989 0.22513 0.72152 0.0
C1351 C 0.77835 0.2206 0.69488 0.0
C1352 C 0.78577 0.23501 0.71 0.0
C1353 C 0.7886 0.20831 0.68798 0.0
C1354 C 0.80588 0.20987 0.69653 0.0
Eu1355 Eu 0.79164 0.27114 0.74124 0.0
N1356 N 0.77582 0.24652 0.71764 0.0
C1357 C 0.76058 0.21842 0.6877 0.0
C1358 C 0.75829 0.24389 0.71111 0.0
C1359 C 0.75047 0.22998 0.69602 0.0
H1360 H 0.83099 0.26204 0.75492 0.0
H1361 H 0.73656 0.22806 0.69095 0.0
H1362 H 0.72354 0.28023 0.78476 0.0
H1363 H 0.82157 0.30931 0.841 0.0
H1364 H 0.75002 0.25206 0.7176 0.0
H1365 H 0.75439 0.20749 0.67618 0.0
H1366 H 0.8043 0.2836 0.81802 0.0
H1367 H 0.84926 0.23996 0.74468 0.0
H1368 H 0.78312 0.19722 0.67637 0.0
H1369 H 0.81347 0.20001 0.69132 0.0
H1370 H 0.70742 0.30391 0.79632 0.0
H1371 H 0.83801 0.21555 0.71701 0.0
H1372 H 0.80847 0.33574 0.85182 0.0
N1373 N 0.74803 0.29411 0.80069 0.0
C1374 C 0.7567 0.30868 0.81378 0.0
C1375 C 0.72131 0.30551 0.80126 0.0
C1376 C 0.748 0.32252 0.82086 0.0
C1377 C 0.73052 0.29222 0.79458 0.0
C1378 C 0.73012 0.32082 0.81435 0.0
N1379 N 0.78221 0.29591 0.81332 0.0
C1380 C 0.79867 0.29534 0.82136 0.0
C1381 C 0.78354 0.32449 0.83412 0.0
C1382 C 0.7743 0.30966 0.82023 0.0
C1383 C 0.80093 0.32462 0.84116 0.0
C1384 C 0.8084 0.30979 0.83499 0.0
H1385 H 0.72297 0.33113 0.81948 0.0
H1386 H 0.75088 0.34833 0.83976 0.0
H1387 H 0.782 0.35005 0.85142 0.0
O1388 O 0.76553 0.25335 0.80784 0.0
O1389 O 0.77248 0.30065 0.77984 0.0
O1390 O 0.79513 0.29182 0.76749 0.0
O1391 O 0.74026 0.25873 0.79778 0.0
O1392 O 0.79102 0.2625 0.79047 0.0
O1393 O 0.80827 0.27707 0.77005 0.0
O1394 O 0.79119 0.2883 0.71927 0.0
O1395 O 0.78321 0.24368 0.75007 0.0
O1396 O 0.76027 0.25284 0.76182 0.0
O1397 O 0.8164 0.28305 0.73112 0.0
O1398 O 0.76497 0.28023 0.73722 0.0
O1399 O 0.74722 0.27337 0.76126 0.0
C1400 C 0.78577 0.30422 0.77028 0.0
C1401 C 0.7435 0.24961 0.82802 0.0
C1402 C 0.74872 0.23941 0.85797 0.0
C1403 C 0.73423 0.24605 0.86415 0.0
C1404 C 0.72885 0.25614 0.83404 0.0
C1405 C 0.72426 0.25431 0.85212 0.0
C1406 C 0.75318 0.24105 0.83998 0.0
C1407 C 0.80648 0.26737 0.78402 0.0
C1408 C 0.7486 0.25039 0.80909 0.0
C1409 C 0.75732 0.33752 0.83426 0.0
C1410 C 0.77505 0.33852 0.84086 0.0
C1411 C 0.76935 0.24011 0.75883 0.0
C1412 C 0.81754 0.30176 0.70628 0.0
C1413 C 0.81618 0.31697 0.67891 0.0
C1414 C 0.83472 0.32069 0.68005 0.0
C1415 C 0.83611 0.30565 0.70757 0.0
C1416 C 0.80768 0.3077 0.69211 0.0
C1417 C 0.84465 0.31517 0.6945 0.0
C1418 C 0.74978 0.27889 0.7447 0.0
C1419 C 0.80825 0.2907 0.71893 0.0
H1420 H 0.73046 0.24448 0.87804 0.0
H1421 H 0.72094 0.26247 0.82483 0.0
H1422 H 0.7129 0.25917 0.85675 0.0
H1423 H 0.76422 0.23551 0.83529 0.0
H1424 H 0.84144 0.32791 0.66986 0.0
H1425 H 0.84398 0.30117 0.71849 0.0
H1426 H 0.79333 0.30463 0.69088 0.0
H1427 H 0.85894 0.31811 0.69544 0.0
Eu1428 Eu 0.77066 0.75141 0.75421 0.0
C1429 C 0.82745 0.81752 0.80064 0.0
N1430 N 0.81241 0.80669 0.80464 0.0
C1431 C 0.82627 0.80702 0.83593 0.0
C1432 C 0.84262 0.82323 0.81417 0.0
C1433 C 0.81151 0.80183 0.82219 0.0
C1434 C 0.84192 0.81767 0.83188 0.0
C1435 C 0.84268 0.83548 0.77904 0.0
C1436 C 0.82745 0.82382 0.78334 0.0
C1437 C 0.85786 0.84081 0.79235 0.0
C1438 C 0.85781 0.83478 0.80989 0.0
Eu1439 Eu 0.78752 0.80178 0.78148 0.0
N1440 N 0.81242 0.81895 0.77089 0.0
C1441 C 0.84206 0.84182 0.76165 0.0
C1442 C 0.81147 0.82579 0.75432 0.0
C1443 C 0.82636 0.83699 0.74927 0.0
H1444 H 0.79924 0.79478 0.82612 0.0
H1445 H 0.82562 0.84218 0.736 0.0
H1446 H 0.75728 0.75753 0.71068 0.0
H1447 H 0.73384 0.7147 0.80414 0.0
H1448 H 0.79919 0.82283 0.7451 0.0
H1449 H 0.8535 0.85075 0.75783 0.0
H1450 H 0.76031 0.73051 0.79238 0.0
H1451 H 0.82541 0.80319 0.84981 0.0
H1452 H 0.86963 0.84987 0.78935 0.0
H1453 H 0.86951 0.83936 0.82016 0.0
H1454 H 0.7301 0.74904 0.68801 0.0
H1455 H 0.85322 0.82194 0.8427 0.0
H1456 H 0.70492 0.70764 0.78426 0.0
N1457 N 0.74485 0.74645 0.73288 0.0
C1458 C 0.73002 0.73636 0.73803 0.0
C1459 C 0.72981 0.74566 0.70213 0.0
C1460 C 0.71421 0.73104 0.72544 0.0
C1461 C 0.74512 0.75075 0.71511 0.0
C1462 C 0.71426 0.73586 0.70734 0.0
N1463 N 0.74645 0.73533 0.76733 0.0
C1464 C 0.74774 0.72898 0.78415 0.0
C1465 C 0.71537 0.72079 0.76153 0.0
C1466 C 0.73072 0.73103 0.75584 0.0
C1467 C 0.71645 0.7154 0.77934 0.0
C1468 C 0.73273 0.71942 0.79064 0.0
H1469 H 0.70244 0.7318 0.69718 0.0
H1470 H 0.68676 0.71656 0.72159 0.0
H1471 H 0.68767 0.70788 0.75326 0.0
O1472 O 0.76813 0.72181 0.7478 0.0
O1473 O 0.75002 0.76942 0.75877 0.0
O1474 O 0.76108 0.78581 0.7878 0.0
O1475 O 0.77967 0.73921 0.7286 0.0
O1476 O 0.78401 0.75261 0.78407 0.0
O1477 O 0.77863 0.77976 0.799 0.0
O1478 O 0.77484 0.82484 0.77782 0.0
O1479 O 0.80734 0.78956 0.76453 0.0
O1480 O 0.79981 0.75902 0.76692 0.0
O1481 O 0.78935 0.82373 0.80513 0.0
O1482 O 0.77303 0.79896 0.75193 0.0
O1483 O 0.7814 0.77346 0.73735 0.0
C1484 C 0.74744 0.77806 0.77514 0.0
C1485 C 0.79004 0.71197 0.73066 0.0
C1486 C 0.80458 0.68832 0.73993 0.0
C1487 C 0.81501 0.69006 0.72515 0.0
C1488 C 0.80047 0.71361 0.71578 0.0
C1489 C 0.81298 0.70276 0.71314 0.0
C1490 C 0.79224 0.69929 0.74277 0.0
C1491 C 0.78274 0.76371 0.79949 0.0
C1492 C 0.7762 0.72263 0.73276 0.0
C1493 C 0.699 0.72081 0.73111 0.0
C1494 C 0.69953 0.71585 0.74915 0.0
C1495 C 0.81155 0.77337 0.76413 0.0
C1496 C 0.77588 0.84979 0.80374 0.0
C1497 C 0.76218 0.87557 0.80005 0.0
C1498 C 0.76779 0.883 0.81916 0.0
C1499 C 0.78151 0.85728 0.82283 0.0
C1500 C 0.76604 0.85883 0.79257 0.0
C1501 C 0.77737 0.8738 0.8305 0.0
C1502 C 0.77617 0.78895 0.73663 0.0
C1503 C 0.77994 0.83247 0.79541 0.0
H1504 H 0.82441 0.68135 0.72272 0.0
H1505 H 0.7988 0.72309 0.70605 0.0
H1506 H 0.82088 0.70395 0.70158 0.0
H1507 H 0.78407 0.69747 0.75409 0.0
H1508 H 0.76513 0.89606 0.82521 0.0
H1509 H 0.78906 0.85039 0.8318 0.0
H1510 H 0.76138 0.85283 0.77795 0.0
H1511 H 0.78174 0.87958 0.84519 0.0
Eu1512 Eu 0.54223 0.53109 0.523 0.0
C1513 C 0.48285 0.46589 0.47584 0.0
N1514 N 0.4928 0.48188 0.47229 0.0
C1515 C 0.49645 0.46697 0.44168 0.0
C1516 C 0.47974 0.44963 0.46242 0.0
C1517 C 0.49916 0.48274 0.45531 0.0
C1518 C 0.48682 0.45031 0.44529 0.0
C1519 C 0.46424 0.4495 0.49613 0.0
C1520 C 0.47504 0.46588 0.49255 0.0
C1521 C 0.46162 0.43325 0.48301 0.0
C1522 C 0.46926 0.43334 0.46618 0.0
Eu1523 Eu 0.49443 0.50811 0.4951 0.0
N1524 N 0.47713 0.48196 0.50474 0.0
C1525 C 0.45577 0.45004 0.51245 0.0
C1526 C 0.46767 0.48273 0.51987 0.0
C1527 C 0.45735 0.46677 0.52426 0.0
H1528 H 0.50568 0.49567 0.45182 0.0
H1529 H 0.45023 0.46749 0.53648 0.0
H1530 H 0.53917 0.54401 0.56934 0.0
H1531 H 0.5826 0.56778 0.47637 0.0
H1532 H 0.46753 0.4957 0.52841 0.0
H1533 H 0.44742 0.43775 0.51568 0.0
H1534 H 0.56442 0.5409 0.48663 0.0
H1535 H 0.50149 0.46776 0.42823 0.0
H1536 H 0.4533 0.42062 0.48554 0.0
H1537 H 0.46672 0.42077 0.456 0.0
H1538 H 0.54833 0.57187 0.59347 0.0
H1539 H 0.48454 0.43817 0.43456 0.0
H1540 H 0.5903 0.59779 0.49766 0.0
N1541 N 0.54953 0.55722 0.54716 0.0
C1542 C 0.55947 0.57267 0.54255 0.0
C1543 C 0.55133 0.57237 0.57915 0.0
C1544 C 0.56528 0.58882 0.55605 0.0
C1545 C 0.54596 0.55669 0.56535 0.0
C1546 C 0.56087 0.58857 0.57444 0.0
N1547 N 0.56015 0.55594 0.51234 0.0
C1548 C 0.56693 0.5541 0.49553 0.0
C1549 C 0.57587 0.5876 0.51973 0.0
C1550 C 0.56487 0.57203 0.52464 0.0
C1551 C 0.58186 0.58614 0.50195 0.0
C1552 C 0.57753 0.56924 0.48988 0.0
H1553 H 0.5652 0.60065 0.58523 0.0
H1554 H 0.58034 0.617 0.56122 0.0
H1555 H 0.58946 0.61599 0.52937 0.0
O1556 O 0.56748 0.52331 0.51945 0.0
O1557 O 0.5312 0.54966 0.50484 0.0
O1558 O 0.501 0.53985 0.50472 0.0
O1559 O 0.55844 0.52649 0.54752 0.0
O1560 O 0.53962 0.51405 0.49372 0.0
O1561 O 0.51526 0.52118 0.47859 0.0
O1562 O 0.46714 0.51077 0.49563 0.0
O1563 O 0.51299 0.4884 0.4997 0.0
O1564 O 0.52782 0.50292 0.52848 0.0
O1565 O 0.47832 0.50973 0.46917 0.0
O1566 O 0.49638 0.51164 0.52684 0.0
O1567 O 0.51933 0.53624 0.53884 0.0
C1568 C 0.51503 0.55264 0.50293 0.0
C1569 C 0.58701 0.5187 0.54578 0.0
C1570 C 0.61273 0.5058 0.5415 0.0
C1571 C 0.61769 0.5092 0.56111 0.0
C1572 C 0.59199 0.52224 0.56541 0.0
C1573 C 0.60736 0.51754 0.57302 0.0
C1574 C 0.59753 0.51068 0.53391 0.0
C1575 C 0.53103 0.51754 0.47854 0.0
C1576 C 0.57085 0.52315 0.5375 0.0
C1577 C 0.57582 0.60448 0.55103 0.0
C1578 C 0.58103 0.6039 0.5329 0.0
C1579 C 0.52207 0.48787 0.51593 0.0
C1580 C 0.45394 0.52428 0.47173 0.0
C1581 C 0.43079 0.541 0.47746 0.0
C1582 C 0.43028 0.54503 0.45904 0.0
C1583 C 0.45337 0.52833 0.45322 0.0
C1584 C 0.4426 0.53076 0.4838 0.0
C1585 C 0.44163 0.53876 0.44698 0.0
C1586 C 0.50495 0.52443 0.54064 0.0
C1587 C 0.46449 0.51138 0.47763 0.0
H1588 H 0.62957 0.50558 0.56713 0.0
H1589 H 0.58405 0.52862 0.57483 0.0
H1590 H 0.61123 0.5203 0.58813 0.0
H1591 H 0.59373 0.50782 0.51874 0.0
H1592 H 0.4209 0.55271 0.45395 0.0
H1593 H 0.46164 0.52306 0.44344 0.0
H1594 H 0.44242 0.52732 0.49793 0.0
H1595 H 0.44107 0.54163 0.43265 0.0
Eu1596 Eu 0.99692 0.52123 0.0193 0.0
C1597 C 0.06332 0.56487 0.98903 0.0
N1598 N 0.05093 0.54944 0.98135 0.0
C1599 C 0.04969 0.55962 0.95127 0.0
C1600 C 0.06906 0.57854 0.97802 0.0
C1601 C 0.04436 0.54645 0.96268 0.0
C1602 C 0.06205 0.57576 0.95896 0.0
C1603 C 0.0827 0.58323 0.01637 0.0
C1604 C 0.07023 0.56711 0.00806 0.0
C1605 C 0.08842 0.59681 0.00537 0.0
C1606 C 0.08168 0.59445 0.98626 0.0
Eu1607 Eu 0.0456 0.52709 0.00112 0.0
N1608 N 0.06456 0.5537 0.01847 0.0
C1609 C 0.08911 0.58521 0.03551 0.0
C1610 C 0.07095 0.5554 0.03703 0.0
C1611 C 0.08319 0.57126 0.04588 0.0
H1612 H 0.03547 0.53367 0.95632 0.0
H1613 H 0.08824 0.57262 0.06063 0.0
H1614 H 0.00424 0.522 0.06657 0.0
H1615 H 0.94844 0.47258 0.96779 0.0
H1616 H 0.06691 0.54445 0.04496 0.0
H1617 H 0.09871 0.59741 0.0424 0.0
H1618 H 0.96984 0.50197 0.98032 0.0
H1619 H 0.04447 0.55719 0.93646 0.0
H1620 H 0.09809 0.60923 0.0115 0.0
H1621 H 0.08629 0.60504 0.97798 0.0
H1622 H 0.999 0.50033 0.08921 0.0
H1623 H 0.06623 0.58588 0.95002 0.0
H1624 H 0.94325 0.44808 0.98765 0.0
N1625 N 0.99248 0.50197 0.04255 0.0
C1626 C 0.98199 0.48496 0.03636 0.0
C1627 C 0.99441 0.49572 0.07435 0.0
C1628 C 0.97781 0.47242 0.04901 0.0
C1629 C 0.99777 0.50784 0.06139 0.0
C1630 C 0.98462 0.47783 0.06809 0.0
N1631 N 0.97759 0.49328 0.00597 0.0
C1632 C 0.968 0.491 0.98865 0.0
C1633 C 0.96179 0.46384 0.01134 0.0
C1634 C 0.97408 0.48062 0.01767 0.0
C1635 C 0.95285 0.46077 0.99299 0.0
C1636 C 0.95576 0.47454 0.98171 0.0
H1637 H 0.9817 0.46859 0.07824 0.0
H1638 H 0.96301 0.44547 0.05197 0.0
H1639 H 0.94896 0.438 0.01905 0.0
O1640 O 0.97779 0.53701 0.00956 0.0
O1641 O 0.00351 0.49608 0.00127 0.0
O1642 O 0.03359 0.49897 0.00826 0.0
O1643 O 0.975 0.52489 0.03491 0.0
O1644 O 0.0033 0.53309 0.99328 0.0
O1645 O 0.02168 0.51636 0.97943 0.0
O1646 O 0.07278 0.52249 0.00452 0.0
O1647 O 0.0339 0.55295 0.00771 0.0
O1648 O 0.01654 0.5482 0.03178 0.0
O1649 O 0.05687 0.51504 0.97719 0.0
O1650 O 0.04307 0.517 0.02902 0.0
O1651 O 0.0209 0.53 0.04077 0.0
C1652 C 0.01756 0.48874 0.00308 0.0
C1653 C 0.9627 0.55074 0.03312 0.0
C1654 C 0.93899 0.56742 0.03588 0.0
C1655 C 0.94763 0.57701 0.05348 0.0
C1656 C 0.97138 0.56068 0.05056 0.0
C1657 C 0.96383 0.57377 0.06066 0.0
C1658 C 0.94668 0.5544 0.02567 0.0
C1659 C 0.00777 0.52377 0.97855 0.0
C1660 C 0.96878 0.53491 0.02378 0.0
C1661 C 0.9663 0.45528 0.04246 0.0
C1662 C 0.95828 0.45102 0.0237 0.0
C1663 C 0.02653 0.55931 0.02237 0.0
C1664 C 0.08125 0.50041 0.98124 0.0
C1665 C 0.10427 0.48311 0.987 0.0
C1666 C 0.10098 0.47472 0.96801 0.0
C1667 C 0.07832 0.49176 0.96225 0.0
C1668 C 0.09446 0.49608 0.99367 0.0
C1669 C 0.08809 0.47903 0.95574 0.0
C1670 C 0.03367 0.52114 0.04265 0.0
C1671 C 0.07208 0.51552 0.98677 0.0
H1672 H 0.94188 0.58711 0.0616 0.0
H1673 H 0.9837 0.55793 0.05659 0.0
H1674 H 0.97041 0.58122 0.07423 0.0
H1675 H 0.93982 0.54655 0.01233 0.0
H1676 H 0.10859 0.46494 0.96262 0.0
H1677 H 0.06874 0.49519 0.95221 0.0
H1678 H 0.09732 0.50292 0.00822 0.0
H1679 H 0.08584 0.47268 0.94105 0.0
H1680 H 0.01892 0.20822 0.93744 0.0
H1681 H 0.02325 0.17952 0.94789 0.0
H1682 H 0.98583 0.18474 0.98785 0.0
H1683 H 0.98094 0.21296 0.97695 0.0
H1684 H 0.03476 0.16839 0.9787 0.0
H1685 H 0.96397 0.13409 0.96256 0.0
H1686 H 0.97253 0.15609 0.95585 0.0
H1687 H 0.96731 0.15466 0.97955 0.0
C1688 C 0.01171 0.2034 0.94859 0.0
C1689 C 0.99946 0.21309 0.95618 0.0
C1690 C 0.01416 0.18682 0.95456 0.0
C1691 C 0.0045 0.17931 0.96835 0.0
C1692 C 0.99302 0.18956 0.97669 0.0
H1693 H 0.00646 0.08227 0.02509 0.0
H1694 H 0.00413 0.11264 0.01705 0.0
C1695 C 0.99039 0.20598 0.97057 0.0
C1696 C 0.00628 0.16083 0.97381 0.0
H1697 H 0.98242 0.1185 0.97945 0.0
C1698 C 0.02325 0.15753 0.97875 0.0
C1699 C 0.99141 0.14626 0.97388 0.0
C1700 C 0.97281 0.14785 0.96749 0.0
C1701 C 0.02566 0.14055 0.98394 0.0
C1702 C 0.01078 0.12623 0.98427 0.0
C1703 C 0.99386 0.12944 0.97938 0.0
C1704 C 0.01253 0.10774 0.98933 0.0
C1705 C 0.04414 0.138 0.98924 0.0
C1706 C 0.01789 0.0946 0.97647 0.0
C1707 C 0.01876 0.07702 0.98087 0.0
C1708 C 0.01465 0.07222 -0.00158 0.0
C1709 C 0.00968 0.08549 0.01145 0.0
C1710 C 0.00836 0.10289 0.00685 0.0
H1711 H 0.05416 0.15111 0.99086 0.0
H1712 H 0.04491 0.13232 0.00266 0.0
H1713 H 0.04748 0.12793 0.97809 0.0
H1714 H 0.02122 0.09786 0.96288 0.0
H1715 H 0.0229 0.06725 0.97063 0.0
H1716 H 0.11478 0.82573 0.16665 0.0
H1717 H 0.14172 0.82009 0.18283 0.0
H1718 H 0.12914 0.76414 0.1534 0.0
H1719 H 0.10252 0.7701 0.13644 0.0
H1720 H 0.1466 0.79917 0.20713 0.0
H1721 H 0.17956 0.7755 0.14622 0.0
H1722 H 0.16038 0.78544 0.14334 0.0
H1723 H 0.15792 0.76161 0.14614 0.0
C1724 C 0.11789 0.8123 0.16332 0.0
C1725 C 0.10647 0.79846 0.15002 0.0
C1726 C 0.13334 0.80903 0.17272 0.0
C1727 C 0.13788 0.79172 0.16936 0.0
C1728 C 0.12648 0.77782 0.156 0.0
H1729 H 0.22019 0.74815 0.23037 0.0
H1730 H 0.19328 0.75172 0.21175 0.0
C1731 C 0.11112 0.78121 0.1463 0.0
C1732 C 0.15407 0.78827 0.18048 0.0
H1733 H 0.19227 0.77226 0.17653 0.0
C1734 C 0.15657 0.79337 0.2003 0.0
C1735 C 0.16729 0.78061 0.17187 0.0
C1736 C 0.16628 0.77564 0.15072 0.0
C1737 C 0.17163 0.7911 0.21154 0.0
C1738 C 0.18476 0.7835 0.20291 0.0
C1739 C 0.18223 0.7781 0.1832 0.0
C1740 C 0.20129 0.78132 0.21413 0.0
C1741 C 0.17342 0.79675 0.23267 0.0
C1742 C 0.21494 0.7967 0.22161 0.0
C1743 C 0.23057 0.7946 0.23183 0.0
C1744 C 0.23274 0.77712 0.23518 0.0
C1745 C 0.21896 0.76178 0.22798 0.0
C1746 C 0.20355 0.76382 0.21733 0.0
H1747 H 0.16093 0.79959 0.23753 0.0
H1748 H 0.17737 0.78582 0.23996 0.0
H1749 H 0.18397 0.80941 0.23693 0.0
H1750 H 0.21356 0.81036 0.21942 0.0
H1751 H 0.24085 0.80669 0.2374 0.0
H1752 H 0.52352 0.81515 0.44888 0.0
H1753 H 0.5297 0.84866 0.4593 0.0
H1754 H 0.47578 0.84464 0.47109 0.0
H1755 H 0.46985 0.81139 0.46171 0.0
H1756 H 0.5182 0.87563 0.44697 0.0
H1757 H 0.49885 0.87581 0.5187 0.0
H1758 H 0.50121 0.85502 0.5043 0.0
H1759 H 0.48086 0.86307 0.50165 0.0
C1760 C 0.51307 0.82136 0.45406 0.0
C1761 C 0.49625 0.81031 0.45474 0.0
C1762 C 0.5166 0.84063 0.45994 0.0
C1763 C 0.50337 0.84945 0.46653 0.0
C1764 C 0.48653 0.8384 0.46688 0.0
H1765 H 0.48567 0.96077 0.48872 0.0
H1766 H 0.48404 0.92774 0.48024 0.0
C1767 C 0.4831 0.8192 0.46136 0.0
C1768 C 0.5068 0.87014 0.47231 0.0
H1769 H 0.49985 0.90404 0.50622 0.0
C1770 C 0.51437 0.88176 0.46006 0.0
C1771 C 0.50206 0.87853 0.4895 0.0
C1772 C 0.49549 0.86744 0.50436 0.0
C1773 C 0.51659 0.90115 0.46412 0.0
C1774 C 0.51103 0.90932 0.48082 0.0
C1775 C 0.50388 0.89783 0.49327 0.0
C1776 C 0.51225 0.92971 0.48554 0.0
C1777 C 0.5245 0.91282 0.45032 0.0
C1778 C 0.52862 0.94205 0.49143 0.0
C1779 C 0.5295 0.96101 0.49689 0.0
C1780 C 0.51404 0.96821 0.49645 0.0
C1781 C 0.49777 0.95585 0.48987 0.0
C1782 C 0.49684 0.93687 0.4848 0.0
H1783 H 0.52597 0.90437 0.43686 0.0
H1784 H 0.51615 0.9227 0.4472 0.0
H1785 H 0.53777 0.92095 0.45672 0.0
H1786 H 0.54073 0.93696 0.49218 0.0
H1787 H 0.54235 0.96998 0.50167 0.0
H1788 H 0.50078 0.30858 0.63412 0.0
H1789 H 0.47449 0.30727 0.65051 0.0
H1790 H 0.47606 0.25177 0.65893 0.0
H1791 H 0.50333 0.25373 0.64381 0.0
H1792 H 0.44303 0.28892 0.64423 0.0
H1793 H 0.47086 0.27119 0.71097 0.0
H1794 H 0.48448 0.27742 0.69295 0.0
H1795 H 0.47177 0.25422 0.69122 0.0
C1796 C 0.49552 0.2961 0.63953 0.0
C1797 C 0.50413 0.28126 0.63776 0.0
C1798 C 0.48045 0.29536 0.64892 0.0
C1799 C 0.47331 0.27958 0.65646 0.0
C1800 C 0.48157 0.26442 0.65401 0.0
H1801 H 0.36951 0.2433 0.68706 0.0
H1802 H 0.39475 0.25309 0.6701 0.0
C1803 C 0.49706 0.26542 0.64514 0.0
C1804 C 0.45712 0.27901 0.66648 0.0
H1805 H 0.43949 0.26796 0.70633 0.0
C1806 C 0.44239 0.28445 0.65788 0.0
C1807 C 0.45618 0.27361 0.68456 0.0
C1808 C 0.47174 0.26898 0.69554 0.0
C1809 C 0.42672 0.284 0.66645 0.0
C1810 C 0.42551 0.27761 0.68394 0.0
C1811 C 0.44035 0.27275 0.69285 0.0
C1812 C 0.40867 0.27459 0.6927 0.0
C1813 C 0.4116 0.2905 0.65682 0.0
C1814 C 0.40774 0.28378 0.71087 0.0
C1815 C 0.39312 0.27833 0.72052 0.0
C1816 C 0.3793 0.26344 0.71224 0.0
C1817 C 0.37977 0.25507 0.69362 0.0
C1818 C 0.39426 0.26062 0.68394 0.0
H1819 H 0.41587 0.29863 0.64565 0.0
H1820 H 0.40111 0.27841 0.65018 0.0
H1821 H 0.40575 0.2991 0.66728 0.0
H1822 H 0.41873 0.29454 0.71797 0.0
H1823 H 0.3933 0.28475 0.73499 0.0
H1824 H 0.98346 0.78472 0.62479 0.0
H1825 H 0.98783 0.8123 0.61024 0.0
H1826 H 0.04123 0.82916 0.63824 0.0
H1827 H 0.03689 0.80144 0.65352 0.0
H1828 H 0.99941 0.85148 0.63204 0.0
H1829 H 0.04203 0.83074 0.57845 0.0
H1830 H 0.02744 0.81408 0.58885 0.0
H1831 H 0.04752 0.82738 0.6024 0.0
C1832 C 0.99628 0.79409 0.62786 0.0
C1833 C 0.00984 0.79068 0.64047 0.0
C1834 C 0.99867 0.80998 0.61952 0.0
C1835 C 0.01477 0.82287 0.62322 0.0
C1836 C 0.02864 0.81937 0.63522 0.0
H1837 H 0.04772 0.92924 0.58737 0.0
H1838 H 0.04104 0.90506 0.60707 0.0
C1839 C 0.02619 0.80345 0.64385 0.0
C1840 C 0.01675 0.83993 0.61448 0.0
H1841 H 0.03524 0.85998 0.57912 0.0
C1842 C 0.00737 0.85344 0.62058 0.0
C1843 C 0.02683 0.8423 0.59928 0.0
C1844 C 0.0365 0.82787 0.59167 0.0
C1845 C 0.00804 0.86933 0.61202 0.0
C1846 C 0.01825 0.8717 0.59694 0.0
C1847 C 0.02751 0.85816 0.59078 0.0
C1848 C 0.01958 0.88804 0.58714 0.0
C1849 C 0.99773 0.88341 0.6189 0.0
C1850 C 0.00935 0.8868 0.56971 0.0
C1851 C 0.01307 0.90065 0.55853 0.0
C1852 C 0.02709 0.91597 0.5646 0.0
C1853 C 0.03663 0.91774 0.58255 0.0
C1854 C 0.03287 0.9039 0.59375 0.0
H1855 H 0.99009 0.87939 0.63052 0.0
H1856 H 0.00695 0.89691 0.62398 0.0
H1857 H 0.98843 0.88527 0.60702 0.0
H1858 H 0.99913 0.87462 0.56428 0.0
H1859 H 0.00574 0.89883 0.54461 0.0
H1860 H 0.48551 0.81668 0.8074 0.0
H1861 H 0.45373 0.81586 0.79944 0.0
H1862 H 0.44072 0.76228 0.81613 0.0
H1863 H 0.47196 0.76362 0.8251 0.0
H1864 H 0.42743 0.79589 0.7757 0.0
H1865 H 0.40882 0.78485 0.84596 0.0
H1866 H 0.43162 0.79031 0.84171 0.0
H1867 H 0.41902 0.76687 0.83634 0.0
C1868 C 0.47582 0.8048 0.80945 0.0
C1869 C 0.48136 0.79035 0.81719 0.0
C1870 C 0.45759 0.80431 0.80489 0.0
C1871 C 0.44447 0.78925 0.80774 0.0
C1872 C 0.45022 0.77449 0.81457 0.0
H1873 H 0.33018 0.74959 0.77704 0.0
H1874 H 0.36222 0.75332 0.7846 0.0
C1875 C 0.46825 0.77519 0.81953 0.0
C1876 C 0.42488 0.78863 0.80338 0.0
H1877 H 0.38494 0.77808 0.82073 0.0
C1878 C 0.41824 0.7922 0.7857 0.0
C1879 C 0.41255 0.78394 0.81631 0.0
C1880 C 0.41841 0.78149 0.83619 0.0
C1881 C 0.3999 0.79063 0.78049 0.0
C1882 C 0.38766 0.78525 0.79315 0.0
C1883 C 0.39423 0.78196 0.81088 0.0
C1884 C 0.36802 0.78306 0.78831 0.0
C1885 C 0.3936 0.79441 0.7613 0.0
C1886 C 0.36035 0.7985 0.78822 0.0
C1887 C 0.34189 0.79641 0.78433 0.0
C1888 C 0.33052 0.77885 0.77986 0.0
C1889 C 0.33832 0.7634 0.78008 0.0
C1890 C 0.35674 0.76549 0.78441 0.0
H1891 H 0.40436 0.79608 0.75212 0.0
H1892 H 0.38258 0.78304 0.75414 0.0
H1893 H 0.38845 0.80724 0.76299 0.0
H1894 H 0.36863 0.81224 0.79151 0.0
H1895 H 0.33657 0.80863 0.78516 0.0
H1896 H 0.47387 0.1862 0.13521 0.0
H1897 H 0.4794 0.15869 0.11629 0.0
H1898 H 0.53549 0.18207 0.12601 0.0
H1899 H 0.53 0.209 0.14607 0.0
H1900 H 0.4909 0.15235 0.08522 0.0
H1901 H 0.53898 0.1333 0.13627 0.0
H1902 H 0.52716 0.15105 0.14301 0.0
H1903 H 0.54677 0.15606 0.13137 0.0
C1904 C 0.48742 0.18535 0.13357 0.0
C1905 C 0.50149 0.19978 0.14243 0.0
C1906 C 0.4906 0.16957 0.12262 0.0
C1907 C 0.50795 0.16781 0.1198 0.0
C1908 C 0.52201 0.18245 0.12838 0.0
H1909 H 0.54409 0.08666 0.03962 0.0
H1910 H 0.54062 0.11504 0.0592 0.0
C1911 C 0.51885 0.19802 0.13981 0.0
C1912 C 0.51106 0.15103 0.10736 0.0
H1913 H 0.53569 0.11766 0.10464 0.0
C1914 C 0.50066 0.14481 0.08965 0.0
C1915 C 0.52377 0.14084 0.11282 0.0
C1916 C 0.53466 0.14554 0.13198 0.0
C1917 C 0.50262 0.12905 0.0775 0.0
C1918 C 0.51544 0.11916 0.08289 0.0
C1919 C 0.52596 0.12534 0.1004 0.0
C1920 C 0.51758 0.10195 0.07084 0.0
C1921 C 0.49092 0.12293 0.05889 0.0
C1922 C 0.50585 0.08509 0.07084 0.0
C1923 C 0.50793 0.06883 0.05986 0.0
C1924 C 0.52169 0.06902 0.04837 0.0
C1925 C 0.53332 0.08598 0.04821 0.0
C1926 C 0.53137 0.10223 0.05945 0.0
H1927 H 0.48288 0.13309 0.05575 0.0
H1928 H 0.49907 0.1207 0.04724 0.0
H1929 H 0.48181 0.10959 0.05924 0.0
H1930 H 0.49508 0.08448 0.07945 0.0
H1931 H 0.49862 0.05608 0.06023 0.0
H1932 H 0.08 0.26098 0.2936 0.0
H1933 H 0.11051 0.26314 0.28732 0.0
H1934 H 0.12674 0.31259 0.32852 0.0
H1935 H 0.09593 0.31017 0.33535 0.0
H1936 H 0.13311 0.28698 0.27345 0.0
H1937 H 0.16286 0.28573 0.34612 0.0
H1938 H 0.13923 0.28122 0.33969 0.0
H1939 H 0.15206 0.30449 0.34405 0.0
C1940 C 0.08997 0.27235 0.3015 0.0
C1941 C 0.08523 0.2853 0.31519 0.0
C1942 C 0.1076 0.27358 0.2978 0.0
C1943 C 0.12136 0.28781 0.3076 0.0
C1944 C 0.11669 0.30109 0.32104 0.0
H1945 H 0.23729 0.30445 0.30217 0.0
H1946 H 0.20777 0.30781 0.30935 0.0
C1947 C 0.09892 0.2998 0.32486 0.0
C1948 C 0.14027 0.28852 0.30329 0.0
H1949 H 0.18232 0.28867 0.32297 0.0
C1950 C 0.14382 0.28735 0.28436 0.0
C1951 C 0.15461 0.28923 0.31734 0.0
C1952 C 0.15204 0.29008 0.33792 0.0
C1953 C 0.16087 0.2868 0.27913 0.0
C1954 C 0.17508 0.28683 0.29309 0.0
C1955 C 0.17165 0.28848 0.31209 0.0
C1956 C 0.19339 0.28494 0.28834 0.0
C1957 C 0.16344 0.28664 0.25859 0.0
C1958 C 0.19568 0.27094 0.27415 0.0
C1959 C 0.21265 0.26934 0.26963 0.0
C1960 C 0.2281 0.28113 0.27966 0.0
C1961 C 0.22585 0.29494 0.29412 0.0
C1962 C 0.20883 0.29686 0.29832 0.0
H1963 H 0.15374 0.29319 0.25128 0.0
H1964 H 0.17697 0.29396 0.25694 0.0
H1965 H 0.16126 0.27217 0.2514 0.0
H1966 H 0.18431 0.26103 0.26653 0.0
H1967 H 0.21355 0.25871 0.25829 0.0
H1968 H 0.96692 0.99234 0.20267 0.0
H1969 H 0.97573 0.99536 0.17124 0.0
H1970 H 0.93979 0.03142 0.16359 0.0
H1971 H 0.93066 0.02828 0.19491 0.0
H1972 H 0.94941 0.98988 0.1329 0.0
H1973 H 0.9947 0.05833 0.15785 0.0
H1974 H 0.98904 0.04183 0.17352 0.0
H1975 H 0.97303 0.05418 0.16559 0.0
C1976 C 0.96075 0.00077 0.19423 0.0
C1977 C 0.94807 0.01004 0.20126 0.0
C1978 C 0.96579 0.00246 0.1763 0.0
C1979 C 0.95844 0.01366 0.16521 0.0
C1980 C 0.94558 0.02271 0.172 0.0
H1981 H 0.98179 0.04085 0.05412 0.0
H1982 H 0.9686 0.03892 0.0838 0.0
C1983 C 0.94034 0.02083 0.18984 0.0
C1984 C 0.96466 0.01629 0.14678 0.0
H1985 H 0.99252 0.04615 0.12555 0.0
C1986 C 0.95872 0.00221 0.13122 0.0
C1987 C 0.97688 0.03238 0.14475 0.0
C1988 C 0.98393 0.04759 0.16127 0.0
C1989 C 0.9648 0.00382 0.11362 0.0
C1990 C 0.97714 0.01983 0.11166 0.0
C1991 C 0.98292 0.03399 0.12714 0.0
C1992 C 0.98515 0.02144 0.09398 0.0
C1993 C 0.95825 0.98835 0.09723 0.0
C1994 C 0.9989 0.01247 0.09017 0.0
C1995 C 0.00658 0.01378 0.07352 0.0
C1996 C 0.00049 0.02392 0.06026 0.0
C1997 C 0.9867 0.03295 0.06411 0.0
C1998 C 0.97918 0.03185 0.08098 0.0
H1999 H 0.94692 0.97802 0.10027 0.0
H2000 H 0.95413 0.99389 0.08441 0.0
H2001 H 0.96917 0.98131 0.09403 0.0
H2002 H 0.00364 0.00438 0.10007 0.0
H2003 H 0.01702 0.00646 0.07083 0.0
H2004 H 0.26072 0.67861 0.50787 0.0
H2005 H 0.25525 0.69493 0.48116 0.0
H2006 H 0.27906 0.65792 0.44558 0.0
H2007 H 0.28471 0.64197 0.47211 0.0
H2008 H 0.2864 0.71071 0.46317 0.0
H2009 H 0.23357 0.66241 0.41254 0.0
H2010 H 0.23594 0.66163 0.4376 0.0
H2011 H 0.25045 0.65224 0.42284 0.0
C2012 C 0.26465 0.67407 0.49426 0.0
C2013 C 0.27355 0.65959 0.49183 0.0
C2014 C 0.2614 0.68317 0.47911 0.0
C2015 C 0.26672 0.67744 0.46155 0.0
C2016 C 0.27473 0.66231 0.45902 0.0
H2017 H 0.26487 0.71474 0.35481 0.0
H2018 H 0.27742 0.70233 0.38127 0.0
C2019 C 0.27817 0.65344 0.47413 0.0
C2020 C 0.2665 0.68869 0.44659 0.0
H2021 H 0.25038 0.68741 0.40088 0.0
C2022 C 0.27842 0.70579 0.44957 0.0
C2023 C 0.25639 0.68181 0.42888 0.0
C2024 C 0.24325 0.66357 0.42523 0.0
C2025 C 0.28057 0.7163 0.43506 0.0
C2026 C 0.27027 0.70958 0.41741 0.0
C2027 C 0.25847 0.69235 0.41442 0.0
C2028 C 0.26927 0.72107 0.40265 0.0
C2029 C 0.29389 0.73438 0.43869 0.0
C2030 C 0.26153 0.73636 0.40613 0.0
C2031 C 0.25422 0.74334 0.39109 0.0
C2032 C 0.25467 0.73511 0.3725 0.0
C2033 C 0.26429 0.72125 0.36908 0.0
C2034 C 0.27153 0.7142 0.38413 0.0
H2035 H 0.30457 0.73451 0.45012 0.0
H2036 H 0.29993 0.73723 0.42574 0.0
H2037 H 0.28713 0.74565 0.44327 0.0
H2038 H 0.25953 0.74168 0.42035 0.0
H2039 H 0.24715 0.75428 0.39397 0.0
H2040 H 0.61331 0.05192 0.69879 0.0
H2041 H 0.60061 0.05503 0.66738 0.0
H2042 H 0.62944 0.01652 0.6419 0.0
H2043 H 0.64233 0.01331 0.67319 0.0
H2044 H 0.62327 0.05789 0.62722 0.0
H2045 H 0.56815 0.99995 0.63502 0.0
H2046 H 0.57919 0.01654 0.65525 0.0
H2047 H 0.59063 1.00024 0.64424 0.0
C2048 C 0.61715 0.04434 0.68649 0.0
C2049 C 0.62868 0.03231 0.68832 0.0
C2050 C 0.61006 0.04628 0.66867 0.0
C2051 C 0.61438 0.03615 0.65265 0.0
C2052 C 0.62632 0.02462 0.65432 0.0
H2053 H 0.55262 0.00374 0.54486 0.0
H2054 H 0.57802 0.00888 0.5692 0.0
C2055 C 0.63351 0.02273 0.67212 0.0
C2056 C 0.60442 0.0355 0.63443 0.0
H2057 H 0.56624 0.0128 0.60733 0.0
C2058 C 0.61085 0.04803 0.6227 0.0
C2059 C 0.58832 0.02255 0.62895 0.0
C2060 C 0.58104 0.009 0.64144 0.0
C2061 C 0.60122 0.04799 0.6053 0.0
C2062 C 0.58507 0.03511 0.59993 0.0
C2063 C 0.57882 0.02249 0.61163 0.0
C2064 C 0.5736 0.0349 0.58277 0.0
C2065 C 0.60818 0.06154 0.59275 0.0
C2066 C 0.56308 0.04802 0.58252 0.0
C2067 C 0.54854 0.04501 0.56886 0.0
C2068 C 0.54476 0.02903 0.55534 0.0
C2069 C 0.55573 0.01633 0.55505 0.0
C2070 C 0.57018 0.01928 0.56877 0.0
H2071 H 0.62191 0.06922 0.59802 0.0
H2072 H 0.60791 0.05421 0.57819 0.0
H2073 H 0.59951 0.07158 0.59199 0.0
H2074 H 0.56538 0.05985 0.59363 0.0
H2075 H 0.53995 0.05476 0.5692 0.0
H2076 H 0.2763 0.37199 0.96888 0.0
H2077 H 0.27314 0.35961 0.93499 0.0
H2078 H 0.28455 0.30865 0.94837 0.0
H2079 H 0.28825 0.32113 0.98218 0.0
H2080 H 0.30384 0.34422 0.91792 0.0
H2081 H 0.23794 0.29616 0.9063 0.0
H2082 H 0.24352 0.31621 0.92455 0.0
H2083 H 0.25216 0.29623 0.92756 0.0
C2084 C 0.2777 0.35799 0.96459 0.0
C2085 C 0.28243 0.34748 0.97819 0.0
C2086 C 0.27601 0.35098 0.94523 0.0
C2087 C 0.27856 0.33318 0.93916 0.0
C2088 C 0.28244 0.32237 0.95274 0.0
H2089 H 0.28787 0.26732 0.83188 0.0
H2090 H 0.28703 0.27903 0.86539 0.0
C2091 C 0.28453 0.32951 0.97204 0.0
C2092 C 0.27865 0.32636 0.91874 0.0
H2093 H 0.25576 0.29476 0.88135 0.0
C2094 C 0.29329 0.33348 0.90989 0.0
C2095 C 0.26489 0.31234 0.9083 0.0
C2096 C 0.24863 0.30478 0.91702 0.0
C2097 C 0.29469 0.32669 0.89098 0.0
C2098 C 0.28105 0.31249 0.8806 0.0
C2099 C 0.26631 0.30549 0.88939 0.0
C2100 C 0.28166 0.30527 0.86039 0.0
C2101 C 0.31087 0.33452 0.88224 0.0
C2102 C 0.27895 0.31612 0.8465 0.0
C2103 C 0.27928 0.30944 0.82744 0.0
C2104 C 0.28246 0.29177 0.82177 0.0
C2105 C 0.28543 0.28098 0.83574 0.0
C2106 C 0.28488 0.28763 0.85488 0.0
H2107 H 0.32151 0.34323 0.89296 0.0
H2108 H 0.31614 0.32325 0.87463 0.0
H2109 H 0.30719 0.34309 0.87179 0.0
H2110 H 0.27642 0.32974 0.8504 0.0
H2111 H 0.27701 0.3182 0.81713 0.0
H2112 H 0.92375 0.00672 0.31841 0.0
H2113 H 0.93631 0.00705 0.35076 0.0
H2114 H 0.98857 0.01392 0.33329 0.0
H2115 H 0.97598 0.01412 0.30078 0.0
H2116 H 0.95574 0.98523 0.36643 0.0
H2117 H 0.99398 0.05738 0.37614 0.0
H2118 H 0.97717 0.04757 0.35641 0.0
H2119 H 0.99892 0.04276 0.35631 0.0
C2120 C 0.93791 0.00843 0.32144 0.0
C2121 C 0.94893 0.01078 0.30717 0.0
C2122 C 0.94507 0.00846 0.33993 0.0
C2123 C 0.96341 0.01093 0.34453 0.0
C2124 C 0.9744 0.0124 0.33012 0.0
H2125 H 0.02611 0.00881 0.45061 0.0
H2126 H 0.01508 0.00691 0.41716 0.0
C2127 C 0.9672 0.01228 0.31153 0.0
C2128 C 0.97089 0.01211 0.36447 0.0
H2129 H 0.99869 0.04049 0.40099 0.0
C2130 C 0.96518 0.99728 0.37395 0.0
C2131 C 0.98292 0.02803 0.37439 0.0
C2132 C 0.9885 0.04493 0.36539 0.0
C2133 C 0.97143 0.99781 0.39298 0.0
C2134 C 0.98378 0.01348 0.40267 0.0
C2135 C 0.98943 0.02838 0.39332 0.0
C2136 C 0.99053 0.0148 0.42278 0.0
C2137 C 0.96476 0.98172 0.40273 0.0
C2138 C 0.98036 0.01993 0.43685 0.0
C2139 C 0.98664 0.02118 0.45587 0.0
C2140 C 0.00318 0.01717 0.46117 0.0
C2141 C 0.01332 0.01194 0.44698 0.0
C2142 C 0.00707 0.01088 0.42792 0.0
H2143 H 0.95647 0.96984 0.39277 0.0
H2144 H 0.97608 0.97721 0.40984 0.0
H2145 H 0.95672 0.98607 0.4138 0.0
H2146 H 0.96754 0.02296 0.43309 0.0
H2147 H 0.97843 0.02516 0.46641 0.0
H2148 H 0.30374 0.66121 0.59526 0.0
H2149 H 0.29752 0.67872 0.62407 0.0
H2150 H 0.24241 0.66889 0.60173 0.0
H2151 H 0.24846 0.65092 0.57281 0.0
H2152 H 0.28223 0.71084 0.62044 0.0
H2153 H 0.24367 0.6597 0.65869 0.0
H2154 H 0.25839 0.65322 0.6422 0.0
H2155 H 0.23775 0.65818 0.63364 0.0
C2156 C 0.29027 0.66263 0.59653 0.0
C2157 C 0.27664 0.65503 0.58176 0.0
C2158 C 0.28673 0.67249 0.613 0.0
C2159 C 0.26956 0.675 0.61485 0.0
C2160 C 0.25571 0.66684 0.6005 0.0
H2161 H 0.2475 0.75073 0.70932 0.0
H2162 H 0.24377 0.7318 0.67794 0.0
C2163 C 0.25921 0.65673 0.58403 0.0
C2164 C 0.26689 0.68798 0.63092 0.0
H2165 H 0.2517 0.69054 0.67386 0.0
C2166 C 0.27531 0.7065 0.63201 0.0
C2167 C 0.25782 0.68209 0.64582 0.0
C2168 C 0.2489 0.66221 0.64522 0.0
C2169 C 0.27563 0.71925 0.64815 0.0
C2170 C 0.26723 0.71321 0.66334 0.0
C2171 C 0.25801 0.69493 0.66195 0.0
C2172 C 0.26958 0.72518 0.68156 0.0
C2173 C 0.28559 0.73888 0.64927 0.0
C2174 C 0.28535 0.72753 0.69359 0.0
C2175 C 0.28742 0.73803 0.71143 0.0
C2176 C 0.2738 0.7464 0.71721 0.0
C2177 C 0.25818 0.74441 0.70496 0.0
C2178 C 0.25601 0.73365 0.6872 0.0
H2179 H 0.28874 0.74208 0.6352 0.0
H2180 H 0.27779 0.74864 0.65537 0.0
H2181 H 0.2982 0.74111 0.65873 0.0
H2182 H 0.29591 0.721 0.68926 0.0
H2183 H 0.29962 0.73961 0.72069 0.0
H2184 H 0.65391 0.00815 0.80069 0.0
H2185 H 0.64059 0.01244 0.83005 0.0
H2186 H 0.61501 0.05298 0.80911 0.0
H2187 H 0.62776 0.04829 0.77949 0.0
H2188 H 0.63685 0.04132 0.85805 0.0
H2189 H 0.57422 0.00924 0.81138 0.0
H2190 H 0.59569 0.01033 0.80337 0.0
H2191 H 0.58598 0.03025 0.80516 0.0
C2192 C 0.64574 0.01824 0.80257 0.0
C2193 C 0.64114 0.02732 0.78774 0.0
C2194 C 0.63823 0.02071 0.81929 0.0
C2195 C 0.62636 0.03246 0.82123 0.0
C2196 C 0.62373 0.04341 0.80744 0.0
H2197 H 0.55487 0.06371 0.89007 0.0
H2198 H 0.56896 0.05144 0.86381 0.0
C2199 C 0.63094 0.04069 0.7906 0.0
C2200 C 0.6149 0.03131 0.83623 0.0
H2201 H 0.57163 0.02008 0.8434 0.0
C2202 C 0.6226 0.03657 0.85499 0.0
C2203 C 0.59641 0.02469 0.83191 0.0
C2204 C 0.58757 0.01813 0.81187 0.0
C2205 C 0.61209 0.0366 0.86973 0.0
C2206 C 0.59345 0.03072 0.86539 0.0
C2207 C 0.5859 0.02449 0.84662 0.0
C2208 C 0.58156 0.03398 0.87963 0.0
C2209 C 0.621 0.04395 0.88962 0.0
C2210 C 0.58294 0.02716 0.89671 0.0
C2211 C 0.57544 0.03467 0.91195 0.0
C2212 C 0.566 0.04866 0.91002 0.0
C2213 C 0.56265 0.05351 0.89214 0.0
C2214 C 0.57048 0.04631 0.87707 0.0
H2215 H 0.63502 0.05109 0.8899 0.0
H2216 H 0.61394 0.05375 0.89702 0.0
H2217 H 0.62087 0.03233 0.89762 0.0
H2218 H 0.59094 0.01713 0.89867 0.0
H2219 H 0.57818 0.03047 0.9255 0.0
H2220 H 0.25666 0.35453 0.07888 0.0
H2221 H 0.25255 0.34393 0.10924 0.0
H2222 H 0.29768 0.31889 0.10528 0.0
H2223 H 0.30187 0.32923 0.07509 0.0
H2224 H 0.24891 0.30727 0.12086 0.0
H2225 H 0.31002 0.35691 0.15534 0.0
H2226 H 0.29895 0.35878 0.13276 0.0
H2227 H 0.31291 0.34248 0.13428 0.0
C2228 C 0.26547 0.34641 0.08424 0.0
C2229 C 0.27968 0.34289 0.07452 0.0
C2230 C 0.26316 0.34045 0.10166 0.0
C2231 C 0.27506 0.33098 0.1097 0.0
C2232 C 0.28855 0.32648 0.0995 0.0
H2233 H 0.29365 0.28016 0.2063 0.0
H2234 H 0.29194 0.29131 0.17601 0.0
C2235 C 0.29083 0.33233 0.08213 0.0
C2236 C 0.27396 0.32636 0.12902 0.0
H2237 H 0.29752 0.33399 0.17292 0.0
C2238 C 0.2594 0.31327 0.13232 0.0
C2239 C 0.28765 0.33428 0.14398 0.0
C2240 C 0.30321 0.34902 0.14154 0.0
C2241 C 0.25856 0.30737 0.15 0.0
C2242 C 0.27253 0.31485 0.16471 0.0
C2243 C 0.28683 0.32829 0.16157 0.0
C2244 C 0.27312 0.30807 0.18307 0.0
C2245 C 0.2431 0.2927 0.15276 0.0
C2246 C 0.2632 0.31397 0.19715 0.0
C2247 C 0.2643 0.30777 0.21463 0.0
C2248 C 0.27517 0.29541 0.21816 0.0
C2249 C 0.28504 0.28955 0.20396 0.0
C2250 C 0.28411 0.29592 0.18666 0.0
H2251 H 0.23373 0.28754 0.13963 0.0
H2252 H 0.24795 0.28093 0.15755 0.0
H2253 H 0.23586 0.29835 0.16398 0.0
H2254 H 0.25471 0.32344 0.19464 0.0
H2255 H 0.25652 0.31246 0.22529 0.0
H2256 H 0.24818 0.9611 0.02251 0.0
H2257 H 0.22083 0.97259 0.02173 0.0
H2258 H 0.20672 0.94785 0.96315 0.0
H2259 H 0.23446 0.93663 0.96371 0.0
H2260 H 0.2077 0.99431 0.98756 0.0
H2261 H 0.1666 0.92901 0.00235 0.0
H2262 H 0.18973 0.93605 0.01154 0.0
H2263 H 0.18346 0.92846 0.98671 0.0
C2264 C 0.23921 0.95813 0.00949 0.0
C2265 C 0.24314 0.94798 0.99316 0.0
C2266 C 0.22376 0.96475 0.00904 0.0
C2267 C 0.21203 0.961 0.99237 0.0
C2268 C 0.21587 0.95088 0.97602 0.0
H2269 H 0.10704 0.98205 0.00227 0.0
H2270 H 0.13129 0.97475 0.98505 0.0
C2271 C 0.23155 0.94453 0.97636 0.0
C2272 C 0.19547 0.96729 0.99251 0.0
H2273 H 0.15386 0.95492 0.0041 0.0
C2274 C 0.19572 0.98567 0.9907 0.0
C2275 C 0.18015 0.95584 0.99676 0.0
C2276 C 0.1798 0.93621 -0.00051 0.0
C2277 C 0.181 0.99322 0.99397 0.0
C2278 C 0.16597 0.982 -0.00083 0.0
C2279 C 0.16542 0.96333 -0.00016 0.0
C2280 C 0.1519 0.98973 0.00715 0.0
C2281 C 0.18191 0.01325 0.99271 0.0
C2282 C 0.15569 1.00055 0.02513 0.0
C2283 C 0.14196 0.00424 0.0351 0.0
C2284 C 0.1244 0.99725 0.02707 0.0
C2285 C 0.12061 0.98731 0.00867 0.0
C2286 C 0.13434 0.98337 -0.0012 0.0
H2287 H 0.19178 0.01834 0.98337 0.0
H2288 H 0.16879 0.01553 0.98734 0.0
H2289 H 0.18601 0.02153 0.00701 0.0
H2290 H 0.16922 0.00523 0.03186 0.0
H2291 H 0.14501 0.01225 0.04917 0.0
H2292 H 0.71063 0.59725 0.98427 0.0
H2293 H 0.68032 0.58285 0.98783 0.0
H2294 H 0.66937 0.63623 0.00575 0.0
H2295 H 0.6999 0.65094 0.00233 0.0
H2296 H 0.66356 0.58996 0.0247 0.0
H2297 H 0.62927 0.60719 0.96033 0.0
H2298 H 0.6525 0.60655 0.9623 0.0
H2299 H 0.64528 0.62496 0.97585 0.0
C2300 C 0.70181 0.60602 0.98888 0.0
C2301 C 0.7077 0.62528 0.993 0.0
C2302 C 0.68449 0.59772 0.99093 0.0
C2303 C 0.67266 0.60849 -0.00304 0.0
C2304 C 0.67834 0.62773 0.00094 0.0
H2305 H 0.5594 0.57094 -0.00142 0.0
H2306 H 0.5888 0.58894 -0.00242 0.0
C2307 C 0.69576 0.63608 -0.00101 0.0
C2308 C 0.65451 0.59934 -0.00054 0.0
H2309 H 0.612 0.58841 0.97809 0.0
C2310 C 0.65217 0.5897 0.01466 0.0
C2311 C 0.63979 0.59933 0.98647 0.0
C2312 C 0.64168 0.60999 0.97023 0.0
C2313 C 0.63539 0.58 0.01732 0.0
C2314 C 0.62065 0.57899 0.00367 0.0
C2315 C 0.62312 0.58894 0.98855 0.0
C2316 C 0.6026 0.56792 0.00477 0.0
C2317 C 0.63381 0.57155 0.03509 0.0
C2318 C 0.60017 0.54993 0.00903 0.0
C2319 C 0.58335 0.54015 0.01116 0.0
C2320 C 0.5683 0.54743 0.00752 0.0
C2321 C 0.57062 0.5649 0.00189 0.0
C2322 C 0.58754 0.5752 0.00105 0.0
H2323 H 0.64411 0.57928 0.04671 0.0
H2324 H 0.62066 0.57126 0.04003 0.0
H2325 H 0.63596 0.55728 0.03236 0.0
H2326 H 0.61127 0.5434 0.01094 0.0
H2327 H 0.5823 0.52696 0.01575 0.0
H2328 H 0.65167 0.48332 0.25281 0.0
H2329 H 0.6649 0.45616 0.24841 0.0
H2330 H 0.70008 0.47733 0.30001 0.0
H2331 H 0.68721 0.50446 0.30446 0.0
H2332 H 0.70263 0.45432 0.24796 0.0
H2333 H 0.67218 0.42482 0.30696 0.0
H2334 H 0.66374 0.44173 0.29536 0.0
H2335 H 0.68329 0.4487 0.31218 0.0
C2336 C 0.6625 0.48241 0.26297 0.0
C2337 C 0.6683 0.49602 0.27904 0.0
C2338 C 0.6699 0.4668 0.26055 0.0
C2339 C 0.6831 0.46459 0.27418 0.0
C2340 C 0.6896 0.47862 0.28959 0.0
H2341 H 0.75478 0.39047 0.27172 0.0
H2342 H 0.73911 0.41459 0.28285 0.0
C2343 C 0.68231 0.49419 0.29199 0.0
C2344 C 0.69026 0.4477 0.27235 0.0
H2345 H 0.69342 0.41003 0.29321 0.0
C2346 C 0.70057 0.4446 0.25778 0.0
C2347 C 0.68747 0.43508 0.28524 0.0
C2348 C 0.67596 0.43758 0.30076 0.0
C2349 C 0.70849 0.42934 0.25594 0.0
C2350 C 0.70599 0.41689 0.26898 0.0
C2351 C 0.69544 0.41978 0.28341 0.0
C2352 C 0.71392 0.40052 0.26702 0.0
C2353 C 0.71958 0.42655 0.24007 0.0
C2354 C 0.70465 0.38437 0.25525 0.0
C2355 C 0.71356 0.37073 0.24885 0.0
C2356 C 0.73178 0.37304 0.25429 0.0
C2357 C 0.74067 0.38838 0.26753 0.0
C2358 C 0.73177 0.40211 0.27384 0.0
H2359 H 0.71979 0.43721 0.23078 0.0
H2360 H 0.73338 0.42698 0.24601 0.0
H2361 H 0.71435 0.41279 0.23135 0.0
H2362 H 0.6909 0.38301 0.24978 0.0
H2363 H 0.70652 0.35904 0.23854 0.0
H2364 H 0.83707 0.45316 0.52579 0.0
H2365 H 0.86896 0.46367 0.52855 0.0
H2366 H 0.86477 0.47455 0.47114 0.0
H2367 H 0.83225 0.46348 0.46814 0.0
H2368 H 0.88895 0.44754 0.48718 0.0
H2369 H 0.89688 0.51876 0.52684 0.0
H2370 H 0.87976 0.50069 0.53185 0.0
H2371 H 0.87806 0.50831 0.50938 0.0
C2372 C 0.84297 0.45823 0.51392 0.0
C2373 C 0.83271 0.45778 0.49682 0.0
C2374 C 0.86099 0.46406 0.51549 0.0
C2375 C 0.86874 0.46966 0.50002 0.0
C2376 C 0.85855 0.47011 0.48307 0.0
H2377 H 0.96675 0.52429 0.49128 0.0
H2378 H 0.93675 0.50653 0.48738 0.0
C2379 C 0.84026 0.46409 0.48144 0.0
C2380 C 0.88768 0.47426 0.50184 0.0
H2381 H 0.92255 0.50731 0.52356 0.0
C2382 C 0.89648 0.46067 0.49483 0.0
C2383 C 0.89687 0.491 0.51273 0.0
C2384 C 0.8875 0.50562 0.52065 0.0
C2385 C 0.91488 0.46404 0.49762 0.0
C2386 C 0.92403 0.48125 0.50758 0.0
C2387 C 0.91511 0.49418 0.51578 0.0
C2388 C 0.94248 0.48802 0.50651 0.0
C2389 C 0.92442 0.44971 0.48946 0.0
C2390 C 0.95537 0.48273 0.51793 0.0
C2391 C 0.9727 0.4924 0.5195 0.0
C2392 C 0.9769 0.50791 0.51066 0.0
C2393 C 0.96388 0.51273 0.49877 0.0
C2394 C 0.94683 0.50248 0.49632 0.0
H2395 H 0.91513 0.43666 0.48279 0.0
H2396 H 0.93251 0.45511 0.47872 0.0
H2397 H 0.93358 0.44666 0.50077 0.0
H2398 H 0.95197 0.47158 0.52592 0.0
H2399 H 0.98272 0.48777 0.52754 0.0
H2400 H 0.33158 0.03683 0.27207 0.0
H2401 H 0.32039 0.06349 0.26411 0.0
H2402 H 0.3401 0.09296 0.32023 0.0
H2403 H 0.351 0.06641 0.3284 0.0
H2404 H 0.29811 0.08752 0.28933 0.0
H2405 H 0.36592 0.1201 0.27571 0.0
H2406 H 0.35824 0.09542 0.27279 0.0
H2407 H 0.36376 0.10865 0.29604 0.0
C2408 C 0.3327 0.0487 0.28293 0.0
C2409 C 0.34193 0.04968 0.30086 0.0
C2410 C 0.32661 0.06389 0.27831 0.0
C2411 C 0.32981 0.07999 0.2916 0.0
C2412 C 0.33767 0.08048 0.30994 0.0
H2413 H 0.32296 0.19029 0.27374 0.0
H2414 H 0.32658 0.16463 0.29057 0.0
C2415 C 0.34355 0.06524 0.31466 0.0
C2416 C 0.32558 0.09664 0.28619 0.0
H2417 H 0.3439 0.13724 0.27302 0.0
C2418 C 0.30804 0.09851 0.28584 0.0
C2419 C 0.33881 0.11067 0.28177 0.0
C2420 C 0.35776 0.10871 0.28147 0.0
C2421 C 0.30322 0.11432 0.28099 0.0
C2422 C 0.31635 0.12827 0.27625 0.0
C2423 C 0.33401 0.12651 0.27699 0.0
C2424 C 0.31186 0.1436 0.26791 0.0
C2425 C 0.28417 0.11588 0.28074 0.0
C2426 C 0.3025 0.13995 0.24977 0.0
C2427 C 0.3009 0.15438 0.24007 0.0
C2428 C 0.30862 0.17248 0.2485 0.0
C2429 C 0.31736 0.17624 0.26697 0.0
C2430 C 0.31917 0.16176 0.2766 0.0
H2431 H 0.27715 0.10699 0.29003 0.0
H2432 H 0.28315 0.13033 0.28535 0.0
H2433 H 0.27735 0.1113 0.26613 0.0
H2434 H 0.29705 0.12593 0.24285 0.0
H2435 H 0.29366 0.15145 0.22602 0.0
H2436 H 0.31524 0.14958 0.48165 0.0
H2437 H 0.3396 0.13352 0.48148 0.0
H2438 H 0.32358 0.11068 0.53059 0.0
H2439 H 0.29838 0.12586 0.53002 0.0
H2440 H 0.3671 0.13589 0.5052 0.0
H2441 H 0.32731 0.06499 0.49744 0.0
H2442 H 0.31742 0.08439 0.49457 0.0
H2443 H 0.3227 0.07905 0.51779 0.0
C2444 C 0.31696 0.14117 0.49247 0.0
C2445 C 0.30498 0.13887 0.50586 0.0
C2446 C 0.33083 0.13194 0.49229 0.0
C2447 C 0.33314 0.12051 0.50571 0.0
C2448 C 0.32162 0.11886 0.51964 0.0
H2449 H 0.41029 0.07272 0.55393 0.0
H2450 H 0.38395 0.08299 0.54223 0.0
C2451 C 0.30741 0.1277 0.5195 0.0
C2452 C 0.34797 0.11084 0.50549 0.0
H2453 H 0.35832 0.06925 0.5089 0.0
C2454 C 0.36516 0.12125 0.50568 0.0
C2455 C 0.34537 0.09166 0.50564 0.0
C2456 C 0.32717 0.07936 0.50362 0.0
C2457 C 0.37993 0.11326 0.50744 0.0
C2458 C 0.37737 0.09441 0.5091 0.0
C2459 C 0.36017 0.08376 0.5078 0.0
C2460 C 0.39234 0.08622 0.51483 0.0
C2461 C 0.3982 0.12523 0.50849 0.0
C2462 C 0.40545 0.08417 0.50302 0.0
C2463 C 0.42048 0.07827 0.50969 0.0
C2464 C 0.42255 0.07454 0.52825 0.0
C2465 C 0.40905 0.07584 0.53969 0.0
C2466 C 0.39401 0.08156 0.53299 0.0
H2467 H 0.39793 0.14008 0.50949 0.0
H2468 H 0.40688 0.12338 0.52089 0.0
H2469 H 0.40419 0.12111 0.49561 0.0
H2470 H 0.40424 0.08754 0.48889 0.0
H2471 H 0.43076 0.07725 0.50064 0.0
H2472 H 0.66176 0.59961 0.31708 0.0
H2473 H 0.67884 0.62897 0.31116 0.0
H2474 H 0.68851 0.60213 0.25729 0.0
H2475 H 0.67027 0.57314 0.26264 0.0
H2476 H 0.71146 0.63883 0.30813 0.0
H2477 H 0.67605 0.6457 0.24005 0.0
H2478 H 0.6673 0.62836 0.2537 0.0
H2479 H 0.6839 0.62475 0.23849 0.0
C2480 C 0.66733 0.60012 0.30387 0.0
C2481 C 0.66463 0.58423 0.29025 0.0
C2482 C 0.67711 0.61687 0.30048 0.0
C2483 C 0.68479 0.61798 0.2836 0.0
C2484 C 0.68224 0.60194 0.27009 0.0
H2485 H 0.76202 0.70647 0.25082 0.0
H2486 H 0.74419 0.67641 0.25405 0.0
C2487 C 0.67196 0.58532 0.27323 0.0
C2488 C 0.69627 0.63563 0.28081 0.0
H2489 H 0.70399 0.66629 0.24993 0.0
C2490 C 0.70967 0.64484 0.29542 0.0
C2491 C 0.69412 0.64356 0.26419 0.0
C2492 C 0.67945 0.63517 0.24832 0.0
C2493 C 0.72087 0.6616 0.29393 0.0
C2494 C 0.71876 0.66938 0.27734 0.0
C2495 C 0.70561 0.66017 0.26258 0.0
C2496 C 0.72964 0.68748 0.27543 0.0
C2497 C 0.73494 0.6709 0.31011 0.0
C2498 C 0.72726 0.7036 0.28631 0.0
C2499 C 0.73735 0.72074 0.28449 0.0
C2500 C 0.75009 0.7221 0.27176 0.0
C2501 C 0.75246 0.70589 0.26088 0.0
C2502 C 0.74224 0.68872 0.26263 0.0
H2503 H 0.73717 0.66147 0.32025 0.0
H2504 H 0.74766 0.67614 0.30479 0.0
H2505 H 0.73076 0.68286 0.31785 0.0
H2506 H 0.71748 0.70292 0.29613 0.0
H2507 H 0.73514 0.73293 0.29305 0.0
H2508 H 0.87296 0.46905 0.76423 0.0
H2509 H 0.85758 0.43703 0.75318 0.0
H2510 H 0.82773 0.43879 0.80079 0.0
H2511 H 0.8432 0.47074 0.81215 0.0
H2512 H 0.85917 0.40971 0.77951 0.0
H2513 H 0.79132 0.41396 0.75164 0.0
H2514 H 0.8103 0.43272 0.7531 0.0
H2515 H 0.79999 0.42851 0.77387 0.0
C2516 C 0.863 0.46265 0.77225 0.0
C2517 C 0.85938 0.47218 0.7892 0.0
C2518 C 0.85421 0.44449 0.76585 0.0
C2519 C 0.8415 0.43587 0.77612 0.0
C2520 C 0.83742 0.44549 0.79265 0.0
H2521 H 0.77918 0.33517 0.79042 0.0
H2522 H 0.79452 0.36687 0.79038 0.0
C2523 C 0.84638 0.46357 0.79923 0.0
C2524 C 0.83409 0.41615 0.77114 0.0
H2525 H 0.79491 0.38514 0.76005 0.0
C2526 C 0.84519 0.40417 0.7749 0.0
C2527 C 0.8159 0.40931 0.76519 0.0
C2528 C 0.80367 0.42177 0.76055 0.0
C2529 C 0.83826 0.3854 0.77416 0.0
C2530 C 0.81987 0.37867 0.76901 0.0
C2531 C 0.80898 0.39053 0.76416 0.0
C2532 C 0.81137 0.35956 0.7695 0.0
C2533 C 0.85044 0.37325 0.78 0.0
C2534 C 0.81594 0.34518 0.75784 0.0
C2535 C 0.80751 0.32713 0.75817 0.0
C2536 C 0.79402 0.32331 0.76964 0.0
C2537 C 0.78933 0.33777 0.78118 0.0
C2538 C 0.79809 0.35582 0.78122 0.0
H2539 H 0.86333 0.38142 0.78751 0.0
H2540 H 0.84422 0.36389 0.78932 0.0
H2541 H 0.85317 0.36466 0.76724 0.0
H2542 H 0.82595 0.3479 0.74846 0.0
H2543 H 0.81158 0.31619 0.7495 0.0
H2544 H 0.05908 0.85103 0.09836 0.0
H2545 H 0.05686 0.87984 0.08674 0.0
H2546 H 0.0325 0.84884 0.0326 0.0
H2547 H 0.03374 0.8201 0.04459 0.0
H2548 H 0.06786 0.8988 0.06103 0.0
H2549 H 0.99543 0.87655 0.04147 0.0
H2550 H 0.00794 0.86318 0.05398 0.0
H2551 H 0.00715 0.86163 0.02869 0.0
C2552 C 0.05365 0.85036 0.08382 0.0
C2553 C 0.04674 0.83311 0.07241 0.0
C2554 C 0.05219 0.86693 0.07719 0.0
C2555 C 0.04387 0.86681 0.05888 0.0
C2556 C 0.03825 0.8496 0.04702 0.0
H2557 H 0.01618 0.95386 -0.00256 0.0
H2558 H 0.021 0.92474 0.00666 0.0
C2559 C 0.03933 0.83306 0.05378 0.0
C2560 C 0.04082 0.8845 0.0524 0.0
H2561 H 0.00916 0.90448 0.0322 0.0
C2562 C 0.05497 0.89996 0.05481 0.0
C2563 C 0.02402 0.88642 0.04419 0.0
C2564 C 0.00774 0.87113 0.0421 0.0
C2565 C 0.05297 0.91683 0.04907 0.0
C2566 C 0.03619 0.91872 0.04087 0.0
C2567 C 0.02206 0.90325 0.03835 0.0
C2568 C 0.03295 0.93661 0.0352 0.0
C2569 C 0.0691 0.93233 0.05149 0.0
C2570 C 0.03752 0.9532 0.04811 0.0
C2571 C 0.03492 0.96991 0.04279 0.0
C2572 C 0.02731 0.97066 0.02444 0.0
C2573 C 0.02214 0.95397 0.01166 0.0
C2574 C 0.02492 0.93722 0.01696 0.0
H2575 H 0.0815 0.92708 0.052 0.0
H2576 H 0.0688 0.94058 0.03986 0.0
H2577 H 0.06953 0.94155 0.06506 0.0
H2578 H 0.04306 0.95328 0.06247 0.0
H2579 H 0.03883 0.98229 0.05323 0.0
H2580 H 0.95945 0.28956 0.88386 0.0
H2581 H 0.93157 0.29061 0.86558 0.0
H2582 H 0.90968 0.23503 0.87337 0.0
H2583 H 0.93711 0.23449 0.89269 0.0
H2584 H 0.91617 0.27252 0.83362 0.0
H2585 H 0.86867 0.25575 0.88459 0.0
H2586 H 0.89226 0.26092 0.89139 0.0
H2587 H 0.88096 0.23819 0.87979 0.0
C2588 C 0.94852 0.27774 0.88204 0.0
C2589 C 0.95041 0.26206 0.88999 0.0
C2590 C 0.93257 0.27829 0.87146 0.0
C2591 C 0.91817 0.26303 0.86822 0.0
C2592 C 0.92015 0.2473 0.87613 0.0
H2593 H 0.81334 0.23848 0.80095 0.0
H2594 H 0.84067 0.23703 0.82031 0.0
C2595 C 0.93594 0.24694 0.88715 0.0
C2596 C 0.90157 0.2633 0.85578 0.0
H2597 H 0.85632 0.25477 0.85295 0.0
C2598 C 0.90311 0.26875 0.83797 0.0
C2599 C 0.88436 0.25827 0.86118 0.0
C2600 C 0.88145 0.25314 0.88035 0.0
C2601 C 0.88815 0.26906 0.82543 0.0
C2602 C 0.87094 0.26407 0.83086 0.0
C2603 C 0.86939 0.25854 0.84862 0.0
C2604 C 0.85441 0.26474 0.81855 0.0
C2605 C 0.89106 0.27431 0.8063 0.0
C2606 C 0.85274 0.28078 0.81114 0.0
C2607 C 0.83736 0.28138 0.79963 0.0
C2608 C 0.82292 0.2662 0.79577 0.0
C2609 C 0.82427 0.25035 0.80362 0.0
C2610 C 0.8399 0.24956 0.81473 0.0
H2611 H 0.90381 0.27166 0.802 0.0
H2612 H 0.88022 0.26664 0.79524 0.0
H2613 H 0.89164 0.28928 0.80697 0.0
H2614 H 0.86326 0.29301 0.81442 0.0
H2615 H 0.83657 0.29398 0.79418 0.0
H2616 H 0.56127 0.23639 0.59203 0.0
H2617 H 0.56218 0.20407 0.58172 0.0
H2618 H 0.51247 0.19628 0.54657 0.0
H2619 H 0.51162 0.22849 0.55647 0.0
H2620 H 0.5402 0.17287 0.58649 0.0
H2621 H 0.53997 0.17243 0.50968 0.0
H2622 H 0.54419 0.19352 0.52639 0.0
H2623 H 0.52183 0.18106 0.5184 0.0
C2624 C 0.55066 0.22792 0.58184 0.0
C2625 C 0.53643 0.23533 0.57505 0.0
C2626 C 0.55116 0.20931 0.576 0.0
C2627 C 0.53753 0.19754 0.56307 0.0
C2628 C 0.52343 0.20497 0.55614 0.0
H2629 H 0.50103 0.07946 0.52727 0.0
H2630 H 0.5049 0.11285 0.53605 0.0
C2631 C 0.52292 0.22353 0.56195 0.0
C2632 C 0.53753 0.17737 0.55758 0.0
H2633 H 0.53278 0.1429 0.51955 0.0
C2634 C 0.53879 0.16643 0.57184 0.0
C2635 C 0.53576 0.16869 0.53846 0.0
C2636 C 0.53555 0.17956 0.52236 0.0
C2637 C 0.53774 0.14724 0.56753 0.0
C2638 C 0.53539 0.13855 0.54846 0.0
C2639 C 0.53446 0.14946 0.53419 0.0
C2640 C 0.53328 0.11808 0.54311 0.0
C2641 C 0.53867 0.13617 0.58338 0.0
C2642 C 0.54794 0.1097 0.54407 0.0
C2643 C 0.54579 0.09049 0.53887 0.0
C2644 C 0.5289 0.07913 0.53276 0.0
C2645 C 0.51425 0.08762 0.53202 0.0
C2646 C 0.51643 0.1068 0.53696 0.0
H2647 H 0.53922 0.14464 0.59744 0.0
H2648 H 0.52697 0.12455 0.58133 0.0
H2649 H 0.55064 0.1302 0.58318 0.0
H2650 H 0.5611 0.11803 0.54878 0.0
H2651 H 0.55732 0.08453 0.53986 0.0
H2652 H 0.558 0.78196 0.40604 0.0
H2653 H 0.58642 0.78753 0.39302 0.0
H2654 H 0.56913 0.73675 0.35381 0.0
H2655 H 0.54078 0.73134 0.36632 0.0
H2656 H 0.61249 0.76687 0.39031 0.0
H2657 H 0.58392 0.77308 0.31873 0.0
H2658 H 0.57152 0.77383 0.3387 0.0
H2659 H 0.57396 0.7521 0.32636 0.0
C2660 C 0.56029 0.77198 0.39467 0.0
C2661 C 0.54705 0.75625 0.38716 0.0
C2662 C 0.57654 0.77518 0.38723 0.0
C2663 C 0.57983 0.76272 0.37218 0.0
C2664 C 0.56678 0.74681 0.36506 0.0
H2665 H 0.66361 0.75984 0.30004 0.0
H2666 H 0.63914 0.75042 0.31836 0.0
C2667 C 0.55057 0.74369 0.37234 0.0
C2668 C 0.59684 0.76615 0.36385 0.0
H2669 H 0.61389 0.77046 0.32222 0.0
C2670 C 0.61283 0.76775 0.37544 0.0
C2671 C 0.59731 0.76727 0.34443 0.0
C2672 C 0.58079 0.76666 0.33136 0.0
C2673 C 0.62918 0.77002 0.36805 0.0
C2674 C 0.62961 0.77099 0.34859 0.0
C2675 C 0.61361 0.76946 0.33707 0.0
C2676 C 0.64641 0.77472 0.33986 0.0
C2677 C 0.64576 0.77101 0.38113 0.0
C2678 C 0.65903 0.79119 0.34614 0.0
C2679 C 0.67298 0.79654 0.33568 0.0
C2680 C 0.67465 0.7855 0.31877 0.0
C2681 C 0.66278 0.76844 0.31317 0.0
C2682 C 0.64873 0.76314 0.32357 0.0
H2683 H 0.64277 0.76409 0.39349 0.0
H2684 H 0.65545 0.76458 0.3737 0.0
H2685 H 0.652 0.78567 0.38653 0.0
H2686 H 0.65744 0.80055 0.35841 0.0
H2687 H 0.68185 0.80985 0.34017 0.0
H2688 H 0.05039 0.24215 0.36997 0.0
H2689 H 0.05303 0.21624 0.3869 0.0
H2690 H 0.01596 0.23176 0.42371 0.0
H2691 H 0.01335 0.25745 0.40723 0.0
H2692 H 0.0601 0.21452 0.43016 0.0
H2693 H 0.99366 0.17745 0.39442 0.0
H2694 H 0.00699 0.1962 0.38546 0.0
H2695 H 0.99504 0.20087 0.40514 0.0
C2696 C 0.04318 0.24032 0.38198 0.0
C2697 C 0.03155 0.25186 0.38709 0.0
C2698 C 0.04462 0.22545 0.39158 0.0
C2699 C 0.03448 0.22191 0.4064 0.0
C2700 C 0.02376 0.23408 0.41221 0.0
H2701 H 0.00919 0.15265 0.48733 0.0
H2702 H 0.02059 0.17793 0.47057 0.0
C2703 C 0.02233 0.24883 0.40273 0.0
C2704 C 0.03387 0.20496 0.41516 0.0
H2705 H 0.00525 0.16562 0.42072 0.0
C2706 C 0.04824 0.20366 0.42787 0.0
C2707 C 0.01838 0.19078 0.41219 0.0
C2708 C 0.00266 0.19123 0.39845 0.0
C2709 C 0.04716 0.18894 0.43828 0.0
C2710 C 0.03141 0.17521 0.43581 0.0
C2711 C 0.01735 0.17615 0.42256 0.0
C2712 C 0.0285 0.16054 0.44785 0.0
C2713 C 0.0626 0.18831 0.45224 0.0
C2714 C 0.02972 0.14242 0.44098 0.0
C2715 C 0.02341 0.12793 0.45072 0.0
C2716 C 0.01559 0.13136 0.46733 0.0
C2717 C 0.01543 0.14967 0.47474 0.0
C2718 C 0.02186 0.16412 0.46513 0.0
H2719 H 0.07447 0.19908 0.4514 0.0
H2720 H 0.05884 0.19031 0.46677 0.0
H2721 H 0.06601 0.17456 0.44967 0.0
H2722 H 0.03464 0.13935 0.42757 0.0
H2723 H 0.02337 0.11393 0.44451 0.0
H2724 H 0.57166 0.23807 0.19329 0.0
H2725 H 0.60259 0.236 0.20156 0.0
H2726 H 0.60946 0.283 0.24543 0.0
H2727 H 0.57878 0.28491 0.23757 0.0
H2728 H 0.63409 0.25925 0.20138 0.0
H2729 H 0.6286 0.24834 0.27504 0.0
H2730 H 0.60941 0.24669 0.25826 0.0
H2731 H 0.62152 0.26882 0.27058 0.0
C2732 C 0.57972 0.24791 0.20477 0.0
C2733 C 0.57248 0.26159 0.21479 0.0
C2734 C 0.59749 0.24673 0.2095 0.0
C2735 C 0.60851 0.25909 0.22447 0.0
C2736 C 0.60132 0.27289 0.23423 0.0
H2737 H 0.72036 0.29288 0.26659 0.0
H2738 H 0.68858 0.2895 0.25733 0.0
C2739 C 0.58365 0.27406 0.22956 0.0
C2740 C 0.62757 0.25804 0.22966 0.0
H2741 H 0.65809 0.25772 0.26723 0.0
C2742 C 0.63921 0.25867 0.21575 0.0
C2743 C 0.63454 0.25715 0.24839 0.0
C2744 C 0.62283 0.25501 0.26387 0.0
C2745 C 0.65748 0.2592 0.22017 0.0
C2746 C 0.6645 0.25911 0.23901 0.0
C2747 C 0.65284 0.25799 0.25282 0.0
C2748 C 0.68398 0.26086 0.24473 0.0
C2749 C 0.66937 0.26041 0.20479 0.0
C2750 C 0.69218 0.24585 0.24092 0.0
C2751 C 0.71045 0.2477 0.24634 0.0
C2752 C 0.72107 0.26464 0.25569 0.0
C2753 C 0.71275 0.2796 0.25946 0.0
C2754 C 0.69449 0.2777 0.25417 0.0
H2755 H 0.66219 0.26151 0.19107 0.0
H2756 H 0.68052 0.27256 0.20892 0.0
H2757 H 0.67511 0.24797 0.20289 0.0
H2758 H 0.68443 0.23267 0.23371 0.0
H2759 H 0.71628 0.23591 0.24293 0.0
H2760 H 0.51137 0.84942 0.86456 0.0
H2761 H 0.51413 0.87883 0.88541 0.0
H2762 H 0.55251 0.86392 0.9241 0.0
H2763 H 0.54989 0.83447 0.90301 0.0
H2764 H 0.50551 0.88029 0.92256 0.0
H2765 H 0.57456 0.91842 0.92206 0.0
H2766 H 0.5636 0.89971 0.90358 0.0
H2767 H 0.57192 0.89495 0.92603 0.0
C2768 C 0.52084 0.85272 0.87721 0.0
C2769 C 0.53069 0.83987 0.882 0.0
C2770 C 0.52232 0.86946 0.88919 0.0
C2771 C 0.53361 0.87373 0.90631 0.0
C2772 C 0.54398 0.86117 0.91081 0.0
H2773 H 0.54781 0.96598 7e-05 0.0
H2774 H 0.5497 0.93753 0.97962 0.0
C2775 C 0.54253 0.84436 0.89874 0.0
C2776 C 0.53303 0.89035 0.92013 0.0
H2777 H 0.55756 0.93176 0.94341 0.0
C2778 C 0.5169 0.89155 0.92708 0.0
C2779 C 0.54792 0.90497 0.92626 0.0
C2780 C 0.56548 0.90463 0.91904 0.0
C2781 C 0.51523 0.90687 0.93991 0.0
C2782 C 0.52998 0.92177 0.94567 0.0
C2783 C 0.54622 0.92044 0.93898 0.0
C2784 C 0.52871 0.93895 0.95828 0.0
C2785 C 0.49771 0.90673 0.94744 0.0
C2786 C 0.51635 0.94935 0.95318 0.0
C2787 C 0.51519 0.96548 0.96494 0.0
C2788 C 0.52653 0.97179 0.98192 0.0
C2789 C 0.53886 0.96141 0.98709 0.0
C2790 C 0.54002 0.94522 0.97534 0.0
H2791 H 0.48994 0.89245 0.94664 0.0
H2792 H 0.49957 0.91372 0.96234 0.0
H2793 H 0.4898 0.91406 0.93877 0.0
H2794 H 0.50762 0.94503 0.94003 0.0
H2795 H 0.50516 0.9728 0.9609 0.0
H2796 H 0.96746 0.73685 0.7342 0.0
H2797 H 0.93906 0.74028 0.74547 0.0
H2798 H 0.92737 0.76726 0.69828 0.0
H2799 H 0.95493 0.76315 0.68668 0.0
H2800 H 0.925 0.76854 0.75754 0.0
H2801 H 0.88176 0.73198 0.69275 0.0
H2802 H 0.90493 0.73155 0.69622 0.0
H2803 H 0.89785 0.75075 0.6877 0.0
C2804 C 0.95866 0.74316 0.72602 0.0
C2805 C 0.96351 0.74927 0.7092 0.0
C2806 C 0.94238 0.74527 0.73256 0.0
C2807 C 0.93049 0.75363 0.72255 0.0
C2808 C 0.93564 0.76008 0.70603 0.0
H2809 H 0.83541 0.79578 0.74666 0.0
H2810 H 0.86416 0.79125 0.73761 0.0
C2811 C 0.95165 0.75776 0.69939 0.0
C2812 C 0.913 0.75605 0.72937 0.0
H2813 H 0.86853 0.75037 0.71467 0.0
C2814 C 0.91269 0.76436 0.74813 0.0
C2815 C 0.8966 0.7507 0.71734 0.0
C2816 C 0.89525 0.74059 0.69746 0.0
C2817 C 0.89683 0.76777 0.75487 0.0
C2818 C 0.88066 0.76279 0.74268 0.0
C2819 C 0.88087 0.75436 0.72406 0.0
C2820 C 0.86335 0.76599 0.74904 0.0
C2821 C 0.89741 0.7769 0.77497 0.0
C2822 C 0.85304 0.75333 0.75848 0.0
C2823 C 0.83639 0.75574 0.76346 0.0
C2824 C 0.8296 0.77105 0.75937 0.0
C2825 C 0.84012 0.78389 0.75021 0.0
C2826 C 0.85664 0.78131 0.74497 0.0
H2827 H 0.9111 0.78105 0.78244 0.0
H2828 H 0.89158 0.78928 0.77523 0.0
H2829 H 0.88927 0.76727 0.78277 0.0
H2830 H 0.85779 0.74138 0.76179 0.0
H2831 H 0.82882 0.74558 0.77053 0.0
H2832 H 0.08624 0.05438 0.82118 0.0
H2833 H 0.07264 0.05163 0.85048 0.0
H2834 H 0.10622 0.01505 0.86508 0.0
H2835 H 0.12026 0.01836 0.83672 0.0
H2836 H 0.0542 0.02081 0.861 0.0
H2837 H 0.11322 0.0494 0.91374 0.0
H2838 H 0.11322 0.05194 0.88921 0.0
H2839 H 0.11649 0.03087 0.89686 0.0
C2840 C 0.09096 0.04614 0.83091 0.0
C2841 C 0.1045 0.03686 0.8268 0.0
C2842 C 0.08314 0.04449 0.84755 0.0
C2843 C 0.0887 0.03344 0.86017 0.0
C2844 C 0.10215 0.02416 0.85596 0.0
H2845 H 0.05743 0.00092 0.96578 0.0
H2846 H 0.07002 0.00252 0.93582 0.0
C2847 C 0.11013 0.02606 0.83963 0.0
C2848 C 0.07988 0.03066 0.87725 0.0
H2849 H 0.08799 0.0326 0.92493 0.0
C2850 C 0.06154 0.02355 0.87501 0.0
C2851 C 0.08954 0.03396 0.89548 0.0
C2852 C 0.10917 0.04212 0.899 0.0
C2853 C 0.05263 0.01942 0.89048 0.0
C2854 C 0.0623 0.02284 0.90872 0.0
C2855 C 0.08063 0.02986 0.91092 0.0
C2856 C 0.05363 0.02034 0.92593 0.0
C2857 C 0.03303 0.01109 0.88703 0.0
C2858 C 0.0403 0.0298 0.93027 0.0
C2859 C 0.03297 0.02864 0.9471 0.0
C2860 C 0.03914 0.01839 0.96018 0.0
C2861 C 0.0525 0.00893 0.95592 0.0
C2862 C 0.05963 0.00982 0.93885 0.0
H2863 H 0.02903 0.00367 0.87233 0.0
H2864 H 0.02909 0.00136 0.89694 0.0
H2865 H 0.02561 0.02226 0.88906 0.0
H2866 H 0.03588 0.03851 0.92088 0.0
H2867 H 0.02284 0.0363 0.95013 0.0
H2868 H 0.81172 0.37001 0.53598 0.0
H2869 H 0.80619 0.35563 0.56379 0.0
H2870 H 0.75918 0.37753 0.56824 0.0
H2871 H 0.76435 0.39182 0.54031 0.0
H2872 H 0.80373 0.38056 0.59904 0.0
H2873 H 0.74564 0.32192 0.57642 0.0
H2874 H 0.75975 0.33083 0.55973 0.0
H2875 H 0.74504 0.34406 0.56966 0.0
C2876 C 0.79994 0.37138 0.54253 0.0
C2877 C 0.78858 0.38223 0.5361 0.0
C2878 C 0.79684 0.3632 0.5584 0.0
C2879 C 0.78233 0.36568 0.56789 0.0
C2880 C 0.77034 0.37544 0.56088 0.0
H2881 H 0.79278 0.3393 0.68239 0.0
H2882 H 0.77766 0.35101 0.65667 0.0
C2883 C 0.77337 0.38358 0.54495 0.0
C2884 C 0.78098 0.35964 0.5862 0.0
H2885 H 0.7606 0.32458 0.60709 0.0
C2886 C 0.79405 0.36861 0.60105 0.0
C2887 C 0.76817 0.34422 0.58854 0.0
C2888 C 0.75382 0.33457 0.57279 0.0
C2889 C 0.79548 0.36164 0.61793 0.0
C2890 C 0.78348 0.34538 0.61981 0.0
C2891 C 0.76961 0.33714 0.60547 0.0
C2892 C 0.78782 0.33498 0.63459 0.0
C2893 C 0.81072 0.37072 0.63303 0.0
C2894 C 0.79803 0.32186 0.63037 0.0
C2895 C 0.80698 0.31564 0.64489 0.0
C2896 C 0.80555 0.3223 0.66368 0.0
C2897 C 0.79413 0.33424 0.66787 0.0
C2898 C 0.78537 0.34071 0.65331 0.0
H2899 H 0.81885 0.38335 0.62928 0.0
H2900 H 0.80558 0.37448 0.64658 0.0
H2901 H 0.81942 0.36094 0.63532 0.0
H2902 H 0.80011 0.3175 0.61591 0.0
H2903 H 0.81547 0.30612 0.64149 0.0
H2904 H 0.41033 0.04119 0.34652 0.0
H2905 H 0.42317 0.03467 0.37596 0.0
H2906 H 0.44973 0.99677 0.34551 0.0
H2907 H 0.43589 0.00254 0.31522 0.0
H2908 H 0.42234 0.99691 0.38875 0.0
H2909 H 0.48676 0.04269 0.38195 0.0
H2910 H 0.46623 0.04396 0.36884 0.0
H2911 H 0.47655 0.02509 0.36219 0.0
C2912 C 0.4187 0.03123 0.3459 0.0
C2913 C 0.42198 0.02217 0.32854 0.0
C2914 C 0.42591 0.02749 0.36279 0.0
C2915 C 0.43701 0.01504 0.36274 0.0
C2916 C 0.44086 0.00622 0.34557 0.0
H2917 H 0.50124 0.99393 0.45537 0.0
H2918 H 0.48011 0.98992 0.42697 0.0
C2919 C 0.43325 0.00972 0.32841 0.0
C2920 C 0.44591 0.01322 0.38093 0.0
H2921 H 0.48417 0.03085 0.41027 0.0
C2922 C 0.43596 0.00398 0.39342 0.0
C2923 C 0.46334 0.02326 0.38704 0.0
C2924 C 0.47391 0.03445 0.37443 0.0
C2925 C 0.44333 0.00427 0.41198 0.0
C2926 C 0.46088 0.01396 0.4178 0.0
C2927 C 0.4707 0.02334 0.40543 0.0
C2928 C 0.4699 0.01396 0.43641 0.0
C2929 C 0.4325 0.99459 0.42541 0.0
C2930 C 0.4707 0.02866 0.45096 0.0
C2931 C 0.48276 0.03102 0.46709 0.0
C2932 C 0.49407 0.01872 0.46855 0.0
C2933 C 0.49263 0.00356 0.45434 0.0
C2934 C 0.48051 0.00115 0.43833 0.0
H2935 H 0.41879 0.98803 0.41883 0.0
H2936 H 0.439 0.98387 0.43027 0.0
H2937 H 0.4319 0.0046 0.43811 0.0
H2938 H 0.46272 0.03879 0.44937 0.0
H2939 H 0.48385 0.04288 0.47793 0.0
H2940 H 0.74773 0.68864 0.05055 0.0
H2941 H 0.74425 0.70155 0.08287 0.0
H2942 H 0.80079 0.72117 0.09502 0.0
H2943 H 0.80434 0.70891 0.06283 0.0
H2944 H 0.75664 0.69371 0.11654 0.0
H2945 H 0.7844 0.76696 0.1139 0.0
H2946 H 0.77841 0.74978 0.09291 0.0
H2947 H 0.79942 0.75266 0.10709 0.0
C2948 C 0.75941 0.69591 0.06004 0.0
C2949 C 0.77631 0.69787 0.05395 0.0
C2950 C 0.75739 0.70324 0.07855 0.0
C2951 C 0.77223 0.71267 0.09136 0.0
C2952 C 0.78908 0.71448 0.08532 0.0
H2953 H 0.79782 0.74983 0.21132 0.0
H2954 H 0.79688 0.73828 0.17757 0.0
C2955 C 0.79109 0.70734 0.06685 0.0
C2956 C 0.77034 0.72008 0.11123 0.0
H2957 H 0.7826 0.75875 0.14483 0.0
C2958 C 0.76211 0.70799 0.12263 0.0
C2959 C 0.77737 0.73876 0.11926 0.0
C2960 C 0.78522 0.75282 0.10759 0.0
C2961 C 0.76138 0.71391 0.14193 0.0
C2962 C 0.76907 0.73236 0.15004 0.0
C2963 C 0.77688 0.74456 0.1386 0.0
C2964 C 0.76945 0.73919 0.17049 0.0
C2965 C 0.75282 0.70036 0.15373 0.0
C2966 C 0.7544 0.74372 0.17766 0.0
C2967 C 0.75502 0.75063 0.19688 0.0
C2968 C 0.77057 0.75289 0.20935 0.0
C2969 C 0.78559 0.7482 0.2021 0.0
C2970 C 0.78509 0.7416 0.18283 0.0
H2971 H 0.74871 0.68614 0.14571 0.0
H2972 H 0.76212 0.70031 0.16638 0.0
H2973 H 0.74096 0.70467 0.15877 0.0
H2974 H 0.7422 0.74196 0.16837 0.0
H2975 H 0.74324 0.75377 0.20201 0.0
H2976 H 0.11271 0.0493 0.71857 0.0
H2977 H 0.10039 0.05237 0.68692 0.0
H2978 H 0.06604 0.99868 0.68153 0.0
H2979 H 0.07794 0.99568 0.71323 0.0
H2980 H 0.10011 0.03117 0.65267 0.0
H2981 H 0.03136 0.03002 0.66816 0.0
H2982 H 0.04965 0.03326 0.68653 0.0
H2983 H 0.03933 0.01051 0.67433 0.0
C2984 C 0.10253 0.03815 0.71064 0.0
C2985 C 0.09624 0.02227 0.71844 0.0
C2986 C 0.09549 0.03994 0.69258 0.0
C2987 C 0.08207 0.0259 0.68201 0.0
C2988 C 0.07606 0.00989 0.68962 0.0
H2989 H 0.03455 1.0 0.56597 0.0
H2990 H 0.04721 0.99975 0.59843 0.0
C2991 C 0.08297 0.00814 0.7077 0.0
C2992 C 0.07461 0.02774 0.66285 0.0
H2993 H 0.03576 0.02604 0.63557 0.0
C2994 C 0.08607 0.0302 0.64898 0.0
C2995 C 0.05629 0.02663 0.65809 0.0
C2996 C 0.04346 0.02515 0.67261 0.0
C2997 C 0.07958 0.03099 0.63033 0.0
C2998 C 0.06124 0.02925 0.62553 0.0
C2999 C 0.04981 0.02718 0.63939 0.0
C3000 C 0.05364 0.02942 0.60605 0.0
C3001 C 0.09223 0.03342 0.61575 0.0
C3002 C 0.05291 0.04616 0.59983 0.0
C3003 C 0.0455 0.04625 0.58144 0.0
C3004 C 0.03895 0.02968 0.56899 0.0
C3005 C 0.03969 0.01294 0.57527 0.0
C3006 C 0.04686 0.0128 0.59375 0.0
H3007 H 0.10608 0.03383 0.62158 0.0
H3008 H 0.0881 0.02197 0.60364 0.0
H3009 H 0.0918 0.04644 0.61023 0.0
H3010 H 0.05813 0.05911 0.60917 0.0
H3011 H 0.04528 0.05925 0.57684 0.0
H3012 H 0.75684 0.39966 0.44606 0.0
H3013 H 0.75168 0.37746 0.41669 0.0
H3014 H 0.80326 0.3656 0.42901 0.0
H3015 H 0.80852 0.3875 0.45825 0.0
H3016 H 0.77528 0.37952 0.38725 0.0
H3017 H 0.76804 0.31463 0.41756 0.0
H3018 H 0.76506 0.33597 0.43056 0.0
H3019 H 0.78695 0.33224 0.42814 0.0
C3020 C 0.76702 0.39226 0.44248 0.0
C3021 C 0.78306 0.3952 0.45429 0.0
C3022 C 0.76403 0.37964 0.42585 0.0
C3023 C 0.77702 0.3699 0.42112 0.0
C3024 C 0.79303 0.37286 0.43281 0.0
H3025 H 0.79864 0.29466 0.331 0.0
H3026 H 0.79893 0.31552 0.3605 0.0
C3027 C 0.79603 0.38542 0.44937 0.0
C3028 C 0.77448 0.35731 0.40337 0.0
H3029 H 0.77322 0.31274 0.38533 0.0
C3030 C 0.77456 0.36486 0.38667 0.0
C3031 C 0.77376 0.33837 0.40305 0.0
C3032 C 0.77329 0.32976 0.42078 0.0
C3033 C 0.77462 0.35387 0.36942 0.0
C3034 C 0.77419 0.33494 0.36916 0.0
C3035 C 0.77367 0.32735 0.38582 0.0
C3036 C 0.77408 0.32263 0.35167 0.0
C3037 C 0.77579 0.36266 0.35182 0.0
C3038 C 0.75985 0.3197 0.33747 0.0
C3039 C 0.75971 0.308 0.32081 0.0
C3040 C 0.77366 0.29893 0.31841 0.0
C3041 C 0.78767 0.30141 0.33284 0.0
C3042 C 0.78791 0.31334 0.34947 0.0
H3043 H 0.78053 0.37785 0.35524 0.0
H3044 H 0.7848 0.35694 0.34269 0.0
H3045 H 0.76245 0.35978 0.34363 0.0
H3046 H 0.74891 0.32651 0.33927 0.0
H3047 H 0.74875 0.30612 0.30977 0.0
H3048 H 0.41621 0.03492 0.25426 0.0
H3049 H 0.44179 0.03154 0.23776 0.0
H3050 H 0.41288 0.97889 0.20756 0.0
H3051 H 0.3872 0.98247 0.22356 0.0
H3052 H 0.46137 0.99992 0.21643 0.0
H3053 H 0.40892 0.02603 0.17715 0.0
H3054 H 0.41083 0.02709 0.20244 0.0
H3055 H 0.40169 0.0056 0.18717 0.0
C3056 C 0.41578 0.02207 0.24509 0.0
C3057 C 0.39974 0.00921 0.23952 0.0
C3058 C 0.43041 0.02015 0.23568 0.0
C3059 C 0.42884 0.00529 0.22107 0.0
C3060 C 0.41416 0.99054 0.2187 0.0
H3061 H 0.45109 0.97344 0.1143 0.0
H3062 H 0.43811 0.98463 0.14212 0.0
C3063 C 0.39948 0.9926 0.22781 0.0
C3064 C 0.43833 0.00816 0.20468 0.0
H3065 H 0.43168 0.0182 0.16019 0.0
C3066 C 0.45513 0.00424 0.20422 0.0
C3067 C 0.43001 0.01397 0.18895 0.0
C3068 C 0.41192 0.01855 0.1889 0.0
C3069 C 0.46348 0.00488 0.1878 0.0
C3070 C 0.45475 0.00981 0.17174 0.0
C3071 C 0.43835 0.01467 0.17263 0.0
C3072 C 0.46087 0.00662 0.15311 0.0
C3073 C 0.48101 0.99917 0.18732 0.0
C3074 C 0.47738 0.01615 0.14957 0.0
C3075 C 0.48476 0.00976 0.13366 0.0
C3076 C 0.4756 0.99387 0.12136 0.0
C3077 C 0.45838 0.98554 0.12391 0.0
C3078 C 0.45099 0.99197 0.13968 0.0
H3079 H 0.48475 0.99334 0.20007 0.0
H3080 H 0.4806 0.98875 0.17463 0.0
H3081 H 0.49151 0.01136 0.18652 0.0
H3082 H 0.48498 0.02771 0.15968 0.0
H3083 H 0.49802 0.01641 0.13167 0.0
H3084 H 0.80133 0.70217 0.9529 0.0
H3085 H 0.79981 0.71381 0.92321 0.0
H3086 H 0.74504 0.71563 0.92632 0.0
H3087 H 0.74626 0.70334 0.95643 0.0
H3088 H 0.77053 0.69548 0.88866 0.0
H3089 H 0.77744 0.76957 0.91829 0.0
H3090 H 0.78535 0.75385 0.9321 0.0
H3091 H 0.76204 0.75218 0.92691 0.0
C3092 C 0.78894 0.70526 0.94758 0.0
C3093 C 0.77393 0.70206 0.95726 0.0
C3094 C 0.78811 0.71177 0.93045 0.0
C3095 C 0.77237 0.71555 0.92264 0.0
C3096 C 0.75732 0.71272 0.93223 0.0
H3097 H 0.76017 0.76929 0.82495 0.0
H3098 H 0.75743 0.75707 0.85439 0.0
C3099 C 0.75804 0.70581 0.9494 0.0
C3100 C 0.77217 0.72243 0.90438 0.0
H3101 H 0.77859 0.7622 0.8857 0.0
C3102 C 0.77203 0.71003 0.88787 0.0
C3103 C 0.77438 0.7414 0.90359 0.0
C3104 C 0.77488 0.75516 0.92111 0.0
C3105 C 0.77399 0.71613 0.87045 0.0
C3106 C 0.7767 0.73523 0.86969 0.0
C3107 C 0.77663 0.74758 0.88626 0.0
C3108 C 0.77884 0.74268 0.85176 0.0
C3109 C 0.77289 0.70199 0.85305 0.0
C3110 C 0.79196 0.73886 0.84047 0.0
C3111 C 0.79326 0.74552 0.82329 0.0
C3112 C 0.78186 0.75656 0.81752 0.0
C3113 C 0.76919 0.76086 0.82912 0.0
C3114 C 0.76761 0.75388 0.84597 0.0
H3115 H 0.7658 0.68812 0.85502 0.0
H3116 H 0.76602 0.70589 0.84052 0.0
H3117 H 0.78647 0.70097 0.85014 0.0
H3118 H 0.80118 0.73077 0.84493 0.0
H3119 H 0.8033 0.74228 0.81468 0.0
H3120 H 0.82496 0.12274 0.03049 0.0
H3121 H 0.85125 0.11011 0.03242 0.0
H3122 H 0.82273 0.06303 0.05331 0.0
H3123 H 0.79595 0.07555 0.05122 0.0
H3124 H 0.87143 0.0969 0.06016 0.0
H3125 H 0.83494 0.04307 0.00047 0.0
H3126 H 0.82717 0.06365 0.00805 0.0
H3127 H 0.82492 0.04544 0.02196 0.0
C3128 C 0.82434 0.11002 0.0361 0.0
C3129 C 0.8084 0.09997 0.04048 0.0
C3130 C 0.8394 0.10285 0.03723 0.0
C3131 C 0.8387 0.08564 0.04282 0.0
C3132 C 0.82329 0.07631 0.04884 0.0
H3133 H 0.91623 0.02428 0.00793 0.0
H3134 H 0.89558 0.03485 0.0281 0.0
C3135 C 0.8081 0.08347 0.04766 0.0
C3136 C 0.85335 0.07665 0.03947 0.0
H3137 H 0.86532 0.04551 0.00697 0.0
C3138 C 0.87014 0.08532 0.0489 0.0
C3139 C 0.85139 0.06188 0.02442 0.0
C3140 C 0.83369 0.05298 0.013 0.0
C3141 C 0.88529 0.08011 0.04302 0.0
C3142 C 0.88334 0.0658 0.02763 0.0
C3143 C 0.86652 0.0564 0.01892 0.0
C3144 C 0.89846 0.06136 0.0189 0.0
C3145 C 0.90326 0.09042 0.05261 0.0
C3146 C 0.90685 0.07302 0.0073 0.0
C3147 C 0.91863 0.06704 0.99568 0.0
C3148 C 0.92202 0.04938 0.99566 0.0
C3149 C 0.91403 0.03808 0.00789 0.0
C3150 C 0.9023 0.04405 0.01944 0.0
H3151 H 0.90241 0.0987 0.06641 0.0
H3152 H 0.91202 0.0807 0.05489 0.0
H3153 H 0.90944 0.09991 0.0434 0.0
H3154 H 0.90361 0.08631 0.00655 0.0
H3155 H 0.92475 0.07598 0.98645 0.0
H3156 H 0.32294 0.43989 0.02749 0.0
H3157 H 0.35317 0.45729 0.02743 0.0
H3158 H 0.37254 0.40722 0.026 0.0
H3159 H 0.34235 0.38971 0.02638 0.0
H3160 H 0.38575 0.45373 0.05693 0.0
H3161 H 0.38922 0.43718 0.97962 0.0
H3162 H 0.3684 0.43707 0.98898 0.0
H3163 H 0.37987 0.41901 0.99205 0.0
C3164 C 0.33361 0.43255 0.02691 0.0
C3165 C 0.33033 0.41345 0.02685 0.0
C3166 C 0.35083 0.44252 0.02703 0.0
C3167 C 0.36494 0.43347 0.02676 0.0
C3168 C 0.36172 0.41436 0.02628 0.0
H3169 H 0.47813 0.47558 0.0377 0.0
H3170 H 0.44861 0.45824 0.04028 0.0
C3171 C 0.34452 0.40441 0.02646 0.0
C3172 C 0.38306 0.44411 0.02701 0.0
H3173 H 0.41446 0.45613 -0.00173 0.0
C3174 C 0.39211 0.45424 0.04417 0.0
C3175 C 0.39113 0.44468 0.01028 0.0
C3176 C 0.38173 0.43399 0.9916 0.0
C3177 C 0.40922 0.46504 0.04498 0.0
C3178 C 0.41719 0.46575 0.02818 0.0
C3179 C 0.40815 0.45556 0.01107 0.0
C3180 C 0.43497 0.47704 0.02799 0.0
C3181 C 0.41858 0.47588 0.06361 0.0
C3182 C 0.43695 0.49318 0.01997 0.0
C3183 C 0.4538 0.50299 0.01808 0.0
C3184 C 0.46896 0.49695 0.02449 0.0
C3185 C 0.46681 0.48083 0.0328 0.0
C3186 C 0.44996 0.47091 0.0344 0.0
H3187 H 0.41017 0.47455 0.07522 0.0
H3188 H 0.43081 0.47099 0.06741 0.0
H3189 H 0.42259 0.49067 0.06233 0.0
H3190 H 0.42542 0.49792 0.01473 0.0
H3191 H 0.45483 0.51481 0.01092 0.0
H3192 H 0.39484 0.55748 0.73111 0.0
H3193 H 0.37974 0.58266 0.72631 0.0
H3194 H 0.35199 0.57329 0.77438 0.0
H3195 H 0.36666 0.54827 0.77921 0.0
H3196 H 0.33548 0.58256 0.72922 0.0
H3197 H 0.38905 0.62938 0.78037 0.0
H3198 H 0.39275 0.6093 0.7656 0.0
H3199 H 0.381 0.60669 0.78571 0.0
C3200 C 0.38515 0.56046 0.74032 0.0
C3201 C 0.38208 0.55097 0.75565 0.0
C3202 C 0.37661 0.57486 0.73759 0.0
C3203 C 0.3649 0.57979 0.75009 0.0
C3204 C 0.361 0.56961 0.7646 0.0
H3205 H 0.30349 0.64787 0.79435 0.0
H3206 H 0.31538 0.62278 0.77839 0.0
C3207 C 0.36945 0.55533 0.76733 0.0
C3208 C 0.35781 0.59654 0.74952 0.0
H3209 H 0.36228 0.63955 0.77457 0.0
C3210 C 0.34153 0.59525 0.7387 0.0
C3211 C 0.36575 0.61294 0.76202 0.0
C3212 C 0.38317 0.61482 0.77406 0.0
C3213 C 0.33246 0.6097 0.74094 0.0
C3214 C 0.33992 0.62561 0.75429 0.0
C3215 C 0.3567 0.62732 0.76423 0.0
C3216 C 0.32969 0.63951 0.76028 0.0
C3217 C 0.31461 0.60762 0.72979 0.0
C3218 C 0.33347 0.65701 0.75494 0.0
C3219 C 0.32649 0.67129 0.76388 0.0
C3220 C 0.31604 0.66825 0.7785 0.0
C3221 C 0.31151 0.65046 0.78307 0.0
C3222 C 0.31823 0.63616 0.77395 0.0
H3223 H 0.3119 0.59587 0.71793 0.0
H3224 H 0.30418 0.60526 0.73927 0.0
H3225 H 0.31377 0.62045 0.72405 0.0
H3226 H 0.34249 0.65982 0.74458 0.0
H3227 H 0.33024 0.68496 0.76028 0.0
H3228 H 0.20763 0.611 0.51318 0.0
H3229 H 0.17559 0.60381 0.51243 0.0
H3230 H 0.17957 0.56373 0.54927 0.0
H3231 H 0.2118 0.57074 0.55009 0.0
H3232 H 0.16221 0.55227 0.50889 0.0
H3233 H 0.13766 0.60775 0.55169 0.0
H3234 H 0.15642 0.61409 0.53911 0.0
H3235 H 0.15854 0.60188 0.55857 0.0
C3236 C 0.20172 0.60096 0.52149 0.0
C3237 C 0.21195 0.59112 0.53145 0.0
C3238 C 0.18354 0.59711 0.52122 0.0
C3239 C 0.17562 0.58352 0.53098 0.0
C3240 C 0.18581 0.57445 0.54189 0.0
H3241 H 0.0774 0.53329 0.54724 0.0
H3242 H 0.10718 0.54999 0.54622 0.0
C3243 C 0.20403 0.57822 0.54209 0.0
C3244 C 0.15693 0.57592 0.52621 0.0
H3245 H 0.11632 0.58353 0.53313 0.0
C3246 C 0.15206 0.55903 0.51405 0.0
C3247 C 0.1442 0.58525 0.53288 0.0
C3248 C 0.14934 0.60324 0.54636 0.0
C3249 C 0.13435 0.55053 0.50907 0.0
C3250 C 0.12152 0.55957 0.51617 0.0
C3251 C 0.12643 0.57699 0.5275 0.0
C3252 C 0.10359 0.54944 0.51592 0.0
C3253 C 0.12957 0.5315 0.4974 0.0
C3254 C 0.09226 0.54293 0.49905 0.0
C3255 C 0.07545 0.53246 0.49959 0.0
C3256 C 0.06988 0.52944 0.51699 0.0
C3257 C 0.08145 0.53565 0.53369 0.0
C3258 C 0.0983 0.54542 0.53315 0.0
H3259 H 0.14143 0.52587 0.49459 0.0
H3260 H 0.12089 0.52186 0.50472 0.0
H3261 H 0.12218 0.53203 0.48363 0.0
H3262 H 0.09647 0.54574 0.48563 0.0
H3263 H 0.0671 0.52647 0.48658 0.0
H3264 H 0.70724 0.99551 0.70928 0.0
H3265 H 0.71776 0.96673 0.7103 0.0
H3266 H 0.71504 0.97275 0.77035 0.0
H3267 H 0.70519 0.00146 0.76957 0.0
H3268 H 0.74924 0.96305 0.74369 0.0
H3269 H 0.68136 0.9197 0.73747 0.0
H3270 H 0.6862 0.94064 0.72735 0.0
H3271 H 0.68539 0.94184 0.7523 0.0
C3272 C 0.70954 0.99089 0.72271 0.0
C3273 C 0.70582 1.00065 0.73938 0.0
C3274 C 0.71521 0.97448 0.72322 0.0
C3275 C 0.71669 0.96776 0.74031 0.0
C3276 C 0.71376 0.9779 0.75707 0.0
H3277 H 0.73598 0.89386 0.80773 0.0
H3278 H 0.72316 0.9129 0.78777 0.0
C3279 C 0.70848 0.99439 0.75665 0.0
C3280 C 0.72167 0.95025 0.74128 0.0
H3281 H 0.70498 0.90785 0.7516 0.0
C3282 C 0.7397 0.95065 0.74478 0.0
C3283 C 0.70891 0.93455 0.74303 0.0
C3284 C 0.68934 0.93403 0.73973 0.0
C3285 C 0.74547 0.93614 0.75168 0.0
C3286 C 0.7327 0.92063 0.75424 0.0
C3287 C 0.71463 0.91972 0.74938 0.0
C3288 C 0.73787 0.90663 0.76445 0.0
C3289 C 0.76501 0.93834 0.75781 0.0
C3290 C 0.74987 0.89654 0.75757 0.0
C3291 C 0.75761 0.88623 0.76911 0.0
C3292 C 0.75303 0.8855 0.78749 0.0
C3293 C 0.74002 0.89458 0.79381 0.0
C3294 C 0.73251 0.90516 0.78234 0.0
H3295 H 0.77245 0.95272 0.75843 0.0
H3296 H 0.76725 0.93434 0.77196 0.0
H3297 H 0.77058 0.92928 0.74757 0.0
H3298 H 0.75394 0.89744 0.74368 0.0
H3299 H 0.76769 0.87945 0.7639 0.0
H3300 H 0.73794 0.92467 0.56557 0.0
H3301 H 0.71183 0.93752 0.55933 0.0
H3302 H 0.70543 0.91192 0.50096 0.0
H3303 H 0.73124 0.8986 0.50722 0.0
H3304 H 0.70735 0.96144 0.53556 0.0
H3305 H 0.65568 0.89748 0.51405 0.0
H3306 H 0.67733 0.89759 0.52563 0.0
H3307 H 0.6741 0.89813 0.50066 0.0
C3308 C 0.73082 0.92156 0.55146 0.0
C3309 C 0.73656 0.91049 0.53692 0.0
C3310 C 0.71592 0.92893 0.54792 0.0
C3311 C 0.70648 0.92542 0.52976 0.0
C3312 C 0.71218 0.91437 0.51521 0.0
H3313 H 0.62628 0.96598 0.4695 0.0
H3314 H 0.64805 0.94928 0.48091 0.0
C3315 C 0.72699 0.90683 0.51879 0.0
C3316 C 0.69136 0.93424 0.5258 0.0
H3317 H 0.64796 0.92531 0.50696 0.0
C3318 C 0.6943 0.95354 0.52952 0.0
C3319 C 0.67434 0.9239 0.51794 0.0
C3320 C 0.67009 0.90312 0.51451 0.0
C3321 C 0.68091 0.96282 0.5249 0.0
C3322 C 0.66401 0.95249 0.51662 0.0
C3323 C 0.66093 0.93318 0.51329 0.0
C3324 C 0.64972 0.96153 0.51022 0.0
C3325 C 0.6852 0.98362 0.52826 0.0
C3326 C 0.64302 0.97351 0.52301 0.0
C3327 C 0.63065 0.98315 0.5165 0.0
C3328 C 0.62476 0.98092 0.4971 0.0
C3329 C 0.63087 0.96826 0.48447 0.0
C3330 C 0.6432 0.95862 0.49098 0.0
H3331 H 0.6997 0.98934 0.53049 0.0
H3332 H 0.67931 0.98905 0.51618 0.0
H3333 H 0.6796 0.98868 0.54111 0.0
H3334 H 0.64761 0.97566 0.53797 0.0
H3335 H 0.62613 0.99279 0.52656 0.0
H3336 H 0.38375 0.46249 0.79311 0.0
H3337 H 0.36529 0.43153 0.78621 0.0
H3338 H 0.36669 0.43175 0.72653 0.0
H3339 H 0.38566 0.46288 0.73337 0.0
H3340 H 0.33177 0.42196 0.76449 0.0
H3341 H 0.3786 0.38187 0.73411 0.0
H3342 H 0.38616 0.40468 0.74772 0.0
H3343 H 0.37547 0.40177 0.72401 0.0
C3344 C 0.38022 0.45598 0.77849 0.0
C3345 C 0.38608 0.46519 0.76377 0.0
C3346 C 0.36969 0.43825 0.77458 0.0
C3347 C 0.36468 0.42933 0.75589 0.0
C3348 C 0.37065 0.43831 0.74108 0.0
H3349 H 0.30415 0.31467 0.7275 0.0
H3350 H 0.31986 0.34562 0.72382 0.0
C3351 C 0.38141 0.45609 0.745 0.0
C3352 C 0.35252 0.41099 0.75229 0.0
H3353 H 0.35077 0.36523 0.73862 0.0
C3354 C 0.33583 0.40955 0.75863 0.0
C3355 C 0.35774 0.39489 0.74436 0.0
C3356 C 0.37549 0.39572 0.73721 0.0
C3357 C 0.32446 0.39239 0.75794 0.0
C3358 C 0.33016 0.37615 0.75125 0.0
C3359 C 0.34647 0.37765 0.74393 0.0
C3360 C 0.32006 0.3576 0.75302 0.0
C3361 C 0.3065 0.39196 0.76455 0.0
C3362 C 0.31511 0.35399 0.77063 0.0
C3363 C 0.30571 0.33663 0.77254 0.0
C3364 C 0.30178 0.32229 0.75709 0.0
C3365 C 0.30711 0.3256 0.73958 0.0
C3366 C 0.31606 0.34322 0.73751 0.0
H3367 H 0.30168 0.40454 0.7622 0.0
H3368 H 0.29653 0.37971 0.75718 0.0
H3369 H 0.30757 0.39164 0.77996 0.0
H3370 H 0.31869 0.36455 0.78302 0.0
H3371 H 0.302 0.33424 0.78628 0.0
H3372 H 0.18051 0.57793 0.23015 0.0
H3373 H 0.19457 0.60879 0.22545 0.0
H3374 H 0.21926 0.62069 0.28319 0.0
H3375 H 0.20537 0.58986 0.28817 0.0
H3376 H 0.18925 0.64158 0.24912 0.0
H3377 H 0.2597 0.63694 0.24984 0.0
H3378 H 0.24158 0.61705 0.24375 0.0
H3379 H 0.24894 0.62681 0.26809 0.0
C3380 C 0.18891 0.5871 0.24189 0.0
C3381 C 0.19176 0.58154 0.25961 0.0
C3382 C 0.19701 0.60459 0.23908 0.0
C3383 C 0.20809 0.61661 0.25389 0.0
C3384 C 0.21096 0.61124 0.27155 0.0
H3385 H 0.26992 0.72363 0.28529 0.0
H3386 H 0.25122 0.6932 0.28491 0.0
C3387 C 0.20284 0.59379 0.27443 0.0
C3388 C 0.21525 0.63556 0.25174 0.0
H3389 H 0.25396 0.66711 0.25688 0.0
C3390 C 0.20338 0.64727 0.25058 0.0
C3391 C 0.23363 0.64255 0.2534 0.0
C3392 C 0.24672 0.63017 0.25366 0.0
C3393 C 0.20953 0.66629 0.25264 0.0
C3394 C 0.22798 0.67343 0.25552 0.0
C3395 C 0.23981 0.66152 0.2553 0.0
C3396 C 0.23554 0.69319 0.25841 0.0
C3397 C 0.19627 0.6785 0.25256 0.0
C3398 C 0.23218 0.70339 0.24417 0.0
C3399 C 0.24228 0.72094 0.24489 0.0
C3400 C 0.25592 0.72827 0.25967 0.0
C3401 C 0.25876 0.71852 0.2744 0.0
C3402 C 0.24835 0.70109 0.27395 0.0
H3403 H 0.18324 0.67138 0.25591 0.0
H3404 H 0.20103 0.69141 0.26285 0.0
H3405 H 0.1942 0.6822 0.23826 0.0
H3406 H 0.22279 0.69728 0.23178 0.0
H3407 H 0.24051 0.72813 0.23305 0.0
H3408 H 0.47359 0.70726 0.47096 0.0
H3409 H 0.47817 0.67861 0.481 0.0
H3410 H 0.52708 0.68407 0.45644 0.0
H3411 H 0.52261 0.71288 0.4463 0.0
H3412 H 0.48038 0.64631 0.45831 0.0
H3413 H 0.5421 0.67143 0.50802 0.0
H3414 H 0.52878 0.68676 0.50019 0.0
H3415 H 0.54334 0.67797 0.48504 0.0
C3416 C 0.48553 0.70265 0.46792 0.0
C3417 C 0.49776 0.71273 0.45782 0.0
C3418 C 0.48809 0.68607 0.47364 0.0
C3419 C 0.50305 0.67898 0.4697 0.0
C3420 C 0.51554 0.68921 0.46004 0.0
H3421 H 0.53909 0.57863 0.48989 0.0
H3422 H 0.53583 0.60844 0.48195 0.0
C3423 C 0.51295 0.70581 0.4542 0.0
C3424 C 0.50497 0.66052 0.47484 0.0
H3425 H 0.53185 0.63911 0.50038 0.0
C3426 C 0.49163 0.6448 0.46759 0.0
C3427 C 0.51965 0.65826 0.48683 0.0
C3428 C 0.53424 0.67449 0.49564 0.0
C3429 C 0.49266 0.62707 0.47161 0.0
C3430 C 0.50723 0.62479 0.48384 0.0
C3431 C 0.5206 0.64057 0.49108 0.0
C3432 C 0.50906 0.60625 0.48897 0.0
C3433 C 0.47835 0.61087 0.46204 0.0
C3434 C 0.49527 0.59471 0.49591 0.0
C3435 C 0.49702 0.57732 0.50024 0.0
C3436 C 0.5128 0.57108 0.49824 0.0
C3437 C 0.52672 0.58282 0.49173 0.0
C3438 C 0.52487 0.60004 0.48715 0.0
H3439 H 0.47162 0.61388 0.4489 0.0
H3440 H 0.48378 0.5984 0.45838 0.0
H3441 H 0.46819 0.60782 0.47168 0.0
H3442 H 0.48311 0.59917 0.49816 0.0
H3443 H 0.48607 0.56888 0.5054 0.0
H3444 H 0.61191 0.28403 0.6245 0.0
H3445 H 0.64044 0.28023 0.63967 0.0
H3446 H 0.6272 0.30143 0.69398 0.0
H3447 H 0.59898 0.30517 0.67916 0.0
H3448 H 0.6689 0.30711 0.66362 0.0
H3449 H 0.63953 0.25208 0.70242 0.0
H3450 H 0.6273 0.25833 0.68267 0.0
H3451 H 0.63024 0.27219 0.70566 0.0
C3452 C 0.61511 0.28794 0.63965 0.0
C3453 C 0.60297 0.29482 0.65053 0.0
C3454 C 0.63144 0.28573 0.64834 0.0
C3455 C 0.63593 0.29022 0.66808 0.0
C3456 C 0.62399 0.29746 0.67882 0.0
H3457 H 0.71827 0.28546 0.75571 0.0
H3458 H 0.69196 0.28831 0.73643 0.0
C3459 C 0.6078 0.29969 0.67022 0.0
C3460 C 0.65304 0.28759 0.67769 0.0
H3461 H 0.66986 0.26595 0.71173 0.0
C3462 C 0.66916 0.29798 0.67401 0.0
C3463 C 0.65346 0.27577 0.69138 0.0
C3464 C 0.63673 0.26382 0.6957 0.0
C3465 C 0.68551 0.2975 0.68414 0.0
C3466 C 0.68595 0.28579 0.69803 0.0
C3467 C 0.66978 0.27504 0.70128 0.0
C3468 C 0.70275 0.28482 0.70982 0.0
C3469 C 0.70197 0.31029 0.6804 0.0
C3470 C 0.71804 0.28208 0.70168 0.0
C3471 C 0.73347 0.28097 0.71297 0.0
C3472 C 0.73389 0.28171 0.7327 0.0
C3473 C 0.71858 0.28446 0.74072 0.0
C3474 C 0.70336 0.28609 0.72955 0.0
H3475 H 0.69875 0.32216 0.67421 0.0
H3476 H 0.71125 0.31571 0.69354 0.0
H3477 H 0.70876 0.30269 0.67008 0.0
H3478 H 0.71802 0.28045 0.68652 0.0
H3479 H 0.74492 0.27901 0.70607 0.0
H3480 H 0.02333 0.31289 0.96476 0.0
H3481 H 0.02895 0.34641 0.97575 0.0
H3482 H 0.97554 0.34659 0.95349 0.0
H3483 H 0.96966 0.31329 0.94384 0.0
H3484 H 0.02947 0.37578 0.95974 0.0
H3485 H 0.97505 0.37357 0.00406 0.0
H3486 H 0.98168 0.35297 0.99414 0.0
H3487 H 0.96673 0.36298 0.98027 0.0
C3488 C 0.01275 0.32011 0.96252 0.0
C3489 C 0.99589 0.3103 0.95389 0.0
C3490 C 0.01597 0.33933 0.96873 0.0
C3491 C 0.00251 0.34924 0.96611 0.0
C3492 C 0.98597 0.33943 0.95664 0.0
H3493 H 0.98951 0.46299 0.98251 0.0
H3494 H 0.98677 0.42971 0.97424 0.0
C3495 C 0.98263 0.32028 0.95098 0.0
C3496 C 0.0056 0.36975 0.97284 0.0
H3497 H 0.98715 0.40297 0.99608 0.0
C3498 C 0.02029 0.38165 0.96786 0.0
C3499 C 0.9938 0.37774 0.98361 0.0
C3500 C 0.97856 0.36612 0.991 0.0
C3501 C 0.02303 0.40105 0.9726 0.0
C3502 C 0.01085 0.40897 0.9828 0.0
C3503 C 0.99641 0.39708 0.98808 0.0
C3504 C 0.01266 0.42947 0.98801 0.0
C3505 C 0.03868 0.41287 0.96609 0.0
C3506 C 0.02797 0.44068 -0.00112 0.0
C3507 C 0.02948 0.45978 0.00377 0.0
C3508 C 0.01566 0.46828 -0.00188 0.0
C3509 C 0.00028 0.45701 0.98744 0.0
C3510 C 0.99877 0.4379 0.98255 0.0
H3511 H 0.04382 0.40519 0.95427 0.0
H3512 H 0.03518 0.42534 0.96146 0.0
H3513 H 0.04953 0.41739 0.97798 0.0
H3514 H 0.03873 0.43464 0.00379 0.0
H3515 H 0.0415 0.46789 0.01211 0.0
H3516 H 0.98773 0.76506 0.11451 0.0
H3517 H 0.96018 0.76296 0.12946 0.0
H3518 H 0.99 0.7938 0.18134 0.0
H3519 H 0.0175 0.79526 0.16676 0.0
H3520 H 0.95646 0.7499 0.17129 0.0
H3521 H 0.9452 0.81906 0.16111 0.0
H3522 H 0.95683 0.80625 0.14529 0.0
H3523 H 0.96743 0.81685 0.16843 0.0
C3524 C 0.98836 0.77121 0.12915 0.0
C3525 C 0.00475 0.78008 0.13958 0.0
C3526 C 0.97265 0.77009 0.13764 0.0
C3527 C 0.97303 0.77834 0.15649 0.0
C3528 C 0.98939 0.78732 0.16682 0.0
H3529 H 0.89761 0.78051 0.23873 0.0
H3530 H 0.92289 0.78881 0.22103 0.0
C3531 C 0.00509 0.78801 0.15852 0.0
C3532 C 0.95647 0.77727 0.16564 0.0
H3533 H 0.92584 0.80207 0.1791 0.0
C3534 C 0.94971 0.76125 0.17289 0.0
C3535 C 0.94777 0.79217 0.16789 0.0
C3536 C 0.95453 0.8096 0.16024 0.0
C3537 C 0.93457 0.75978 0.18242 0.0
C3538 C 0.92579 0.77462 0.18462 0.0
C3539 C 0.93254 0.79069 0.17739 0.0
C3540 C 0.90949 0.77326 0.19431 0.0
C3541 C 0.92812 0.74243 0.19036 0.0
C3542 C 0.89332 0.76248 0.18501 0.0
C3543 C 0.87886 0.75791 0.19505 0.0
C3544 C 0.88023 0.76408 0.21459 0.0
C3545 C 0.89601 0.77598 0.22361 0.0
C3546 C 0.91051 0.78058 0.21353 0.0
H3547 H 0.93749 0.73302 0.18935 0.0
H3548 H 0.92615 0.7459 0.2054 0.0
H3549 H 0.91514 0.73502 0.18249 0.0
H3550 H 0.89225 0.7566 0.17023 0.0
H3551 H 0.86704 0.74836 0.18785 0.0
H3552 H 0.52235 0.27849 0.1182 0.0
H3553 H 0.52522 0.30512 0.10128 0.0
H3554 H 0.50616 0.33588 0.1472 0.0
H3555 H 0.50385 0.30963 0.16418 0.0
H3556 H 0.49829 0.32109 0.08891 0.0
H3557 H 0.54775 0.3738 0.13871 0.0
H3558 H 0.54404 0.34963 0.14048 0.0
H3559 H 0.52914 0.36335 0.14938 0.0
C3560 C 0.5194 0.29119 0.12489 0.0
C3561 C 0.51337 0.29223 0.14271 0.0
C3562 C 0.52083 0.30633 0.11515 0.0
C3563 C 0.51613 0.3227 0.12302 0.0
C3564 C 0.51036 0.32372 0.14098 0.0
H3565 H 0.51917 0.4286 0.08342 0.0
H3566 H 0.50978 0.40216 0.09958 0.0
C3567 C 0.50906 0.3087 0.15071 0.0
C3568 C 0.51619 0.33826 0.11206 0.0
H3569 H 0.53292 0.38426 0.11359 0.0
C3570 C 0.50594 0.33489 0.09429 0.0
C3571 C 0.52584 0.35641 0.11915 0.0
C3572 C 0.53744 0.36103 0.1379 0.0
C3573 C 0.50515 0.34904 0.08345 0.0
C3574 C 0.51521 0.36708 0.09031 0.0
C3575 C 0.52513 0.37051 0.10826 0.0
C3576 C 0.51698 0.38223 0.07863 0.0
C3577 C 0.49329 0.34453 0.0649 0.0
C3578 C 0.52343 0.37983 0.06105 0.0
C3579 C 0.52861 0.39488 0.05177 0.0
C3580 C 0.5275 0.41272 0.05983 0.0
C3581 C 0.51985 0.41497 0.0767 0.0
C3582 C 0.51467 0.39987 0.08604 0.0
H3583 H 0.48199 0.33286 0.06501 0.0
H3584 H 0.48799 0.35657 0.06159 0.0
H3585 H 0.50097 0.34032 0.05343 0.0
H3586 H 0.52574 0.36657 0.05512 0.0
H3587 H 0.53478 0.39282 0.03897 0.0
H3588 H 0.98044 0.28279 0.28792 0.0
H3589 H 0.94866 0.28102 0.27884 0.0
H3590 H 0.94273 0.299 0.33689 0.0
H3591 H 0.97423 0.30071 0.34593 0.0
H3592 H 0.91839 0.25888 0.2935 0.0
H3593 H 0.91934 0.33366 0.30716 0.0
H3594 H 0.93904 0.32487 0.30377 0.0
H3595 H 0.9303 0.3251 0.32602 0.0
C3596 C 0.97241 0.28667 0.29868 0.0
C3597 C 0.97998 0.29189 0.31768 0.0
C3598 C 0.95416 0.28549 0.2935 0.0
C3599 C 0.9431 0.28991 0.30713 0.0
C3600 C 0.95082 0.29559 0.32601 0.0
H3601 H 0.829 0.27877 0.3118 0.0
H3602 H 0.86117 0.28169 0.31839 0.0
C3603 C 0.96891 0.29647 0.33121 0.0
C3604 C 0.92351 0.28829 0.30187 0.0
H3605 H 0.89104 0.31337 0.30185 0.0
C3606 C 0.91247 0.27083 0.2952 0.0
C3607 C 0.91557 0.30379 0.30408 0.0
C3608 C 0.92663 0.32296 0.3105 0.0
C3609 C 0.89388 0.26851 0.29112 0.0
C3610 C 0.88596 0.284 0.29355 0.0
C3611 C 0.89699 0.30144 0.30001 0.0
C3612 C 0.86627 0.28229 0.28947 0.0
C3613 C 0.88266 0.24945 0.28451 0.0
C3614 C 0.85826 0.28189 0.27103 0.0
C3615 C 0.83986 0.28057 0.26727 0.0
C3616 C 0.82888 0.27925 0.28178 0.0
C3617 C 0.83695 0.2796 0.30022 0.0
C3618 C 0.85539 0.28129 0.30403 0.0
H3619 H 0.89057 0.23863 0.28443 0.0
H3620 H 0.87214 0.24657 0.29381 0.0
H3621 H 0.87603 0.24866 0.27001 0.0
H3622 H 0.86627 0.28262 0.25951 0.0
H3623 H 0.83418 0.28022 0.25288 0.0
H3624 H 0.97478 0.68408 0.6415 0.0
H3625 H 0.98035 0.65677 0.62226 0.0
H3626 H 0.03479 0.68445 0.62316 0.0
H3627 H 0.02948 0.71123 0.64365 0.0
H3628 H 0.98767 0.65028 0.58927 0.0
H3629 H 0.0449 0.63782 0.63337 0.0
H3630 H 0.03248 0.65447 0.64185 0.0
H3631 H 0.04942 0.66028 0.62683 0.0
C3632 C 0.98804 0.6842 0.63789 0.0
C3633 C 0.00173 0.69979 0.64438 0.0
C3634 C 0.99123 0.66855 0.62675 0.0
C3635 C 0.00813 0.6681 0.62131 0.0
C3636 C 0.02179 0.68386 0.62759 0.0
H3637 H 0.04086 0.58745 0.53765 0.0
H3638 H 0.03768 0.61576 0.5574 0.0
C3639 C 0.01871 0.69933 0.63926 0.0
C3640 C 0.01102 0.65147 0.60847 0.0
H3641 H 0.03812 0.62064 0.60231 0.0
C3642 C 0.99868 0.64383 0.59233 0.0
C3643 C 0.0254 0.64278 0.6121 0.0
C3644 C 0.03869 0.64915 0.62957 0.0
C3645 C 0.00025 0.62803 0.58 0.0
C3646 C 0.01463 0.61953 0.58361 0.0
C3647 C 0.02714 0.6272 0.59947 0.0
C3648 C 0.01649 0.6023 0.5714 0.0
C3649 C 0.98652 0.62045 0.56308 0.0
C3650 C 0.00568 0.58521 0.57264 0.0
C3651 C 0.00754 0.56896 0.56145 0.0
C3652 C 0.02018 0.56935 0.54858 0.0
C3653 C 0.03091 0.58654 0.54727 0.0
C3654 C 0.02916 0.60278 0.55863 0.0
H3655 H 0.9775 0.62991 0.56075 0.0
H3656 H 0.99303 0.61785 0.55017 0.0
H3657 H 0.97848 0.60708 0.56522 0.0
H3658 H 0.99584 0.58442 0.58239 0.0
H3659 H 0.99901 0.55605 0.56287 0.0
H3660 H 0.59657 0.78874 0.84262 0.0
H3661 H 0.62713 0.78718 0.83702 0.0
H3662 H 0.61533 0.79423 0.77925 0.0
H3663 H 0.58503 0.79568 0.78467 0.0
H3664 H 0.63923 0.76173 0.81055 0.0
H3665 H 0.66158 0.83273 0.79624 0.0
H3666 H 0.64221 0.82596 0.80782 0.0
H3667 H 0.64104 0.82069 0.78255 0.0
C3668 C 0.60054 0.79021 0.82879 0.0
C3669 C 0.58814 0.79243 0.81416 0.0
C3670 C 0.61807 0.78921 0.82555 0.0
C3671 C 0.62385 0.79076 0.80769 0.0
C3672 C 0.61154 0.79327 0.79323 0.0
H3673 H 0.71636 0.77283 0.75091 0.0
H3674 H 0.68678 0.77573 0.75897 0.0
C3675 C 0.59405 0.79403 0.79638 0.0
C3676 C 0.64239 0.78915 0.8038 0.0
H3677 H 0.67977 0.81157 0.78765 0.0
C3678 C 0.64809 0.77272 0.80569 0.0
C3679 C 0.65423 0.80339 0.79743 0.0
C3680 C 0.64958 0.82176 0.79604 0.0
C3681 C 0.66483 0.77004 0.80096 0.0
C3682 C 0.67644 0.78411 0.7942 0.0
C3683 C 0.6709 0.80063 0.79258 0.0
C3684 C 0.69449 0.78203 0.78917 0.0
C3685 C 0.67 0.75202 0.8029 0.0
C3686 C 0.70887 0.78457 0.80334 0.0
C3687 C 0.72586 0.78317 0.79874 0.0
C3688 C 0.72903 0.77894 0.77981 0.0
C3689 C 0.71453 0.77606 0.76562 0.0
C3690 C 0.69755 0.77776 0.77024 0.0
H3691 H 0.65898 0.74175 0.8066 0.0
H3692 H 0.6743 0.7462 0.7895 0.0
H3693 H 0.68141 0.75444 0.8141 0.0
H3694 H 0.70699 0.78783 0.81804 0.0
H3695 H 0.73656 0.78539 0.81012 0.0
H3696 H 0.43247 0.49379 0.69187 0.0
H3697 H 0.4431 0.49212 0.66066 0.0
H3698 H 0.47557 0.54679 0.6773 0.0
H3699 H 0.46542 0.54844 0.7083 0.0
H3700 H 0.44127 0.5149 0.63307 0.0
H3701 H 0.51107 0.51714 0.65927 0.0
H3702 H 0.49324 0.51209 0.67342 0.0
H3703 H 0.50277 0.53555 0.67145 0.0
C3704 C 0.44188 0.50542 0.68883 0.0
C3705 C 0.44823 0.52118 0.70261 0.0
C3706 C 0.44794 0.50445 0.67104 0.0
C3707 C 0.46042 0.51919 0.66684 0.0
C3708 C 0.46633 0.53507 0.68041 0.0
H3709 H 0.50663 0.5533 0.56914 0.0
H3710 H 0.49584 0.55159 0.60009 0.0
C3711 C 0.46041 0.53601 0.69812 0.0
C3712 C 0.46723 0.51839 0.64827 0.0
H3713 H 0.50566 0.52398 0.62802 0.0
C3714 C 0.45531 0.51667 0.63192 0.0
C3715 C 0.48557 0.5206 0.6468 0.0
C3716 C 0.49888 0.52126 0.66365 0.0
C3717 C 0.46136 0.51781 0.61425 0.0
C3718 C 0.47972 0.52079 0.613 0.0
C3719 C 0.4916 0.52204 0.62919 0.0
C3720 C 0.48674 0.52195 0.59476 0.0
C3721 C 0.44821 0.51619 0.59702 0.0
C3722 C 0.4855 0.50583 0.58191 0.0
C3723 C 0.49169 0.50677 0.56445 0.0
C3724 C 0.49913 0.52386 0.55949 0.0
C3725 C 0.50085 0.53999 0.57261 0.0
C3726 C 0.49468 0.53903 0.59019 0.0
H3727 H 0.43455 0.51576 0.60065 0.0
H3728 H 0.45212 0.52799 0.58943 0.0
H3729 H 0.44819 0.50341 0.5872 0.0
H3730 H 0.47969 0.49253 0.58538 0.0
H3731 H 0.49078 0.49405 0.55488 0.0
H3732 H 0.78439 0.19119 0.00884 0.0
H3733 H 0.78131 0.20585 0.98081 0.0
H3734 H 0.74357 0.15727 0.95241 0.0
H3735 H 0.74576 0.14311 0.98049 0.0
H3736 H 0.79265 0.19033 0.94992 0.0
H3737 H 0.72316 0.19602 0.93232 0.0
H3738 H 0.73139 0.1921 0.9553 0.0
H3739 H 0.72467 0.17323 0.93594 0.0
C3740 C 0.77487 0.18405 -0.00312 0.0
C3741 C 0.76562 0.16595 0.99659 0.0
C3742 C 0.77318 0.19235 0.98091 0.0
C3743 C 0.7624 0.1825 0.96455 0.0
C3744 C 0.75176 0.1652 0.96498 0.0
H3745 H 0.74988 0.20341 0.85144 0.0
H3746 H 0.76069 0.18591 0.87461 0.0
C3747 C 0.7531 0.1571 0.98107 0.0
C3748 C 0.76443 0.18886 0.94639 0.0
H3749 H 0.74153 0.19819 0.90778 0.0
C3750 C 0.7815 0.1922 0.94073 0.0
C3751 C 0.74978 0.19076 0.93433 0.0
C3752 C 0.73127 0.188 0.93987 0.0
C3753 C 0.78435 0.19804 0.92346 0.0
C3754 C 0.76974 0.20023 0.91167 0.0
C3755 C 0.75263 0.19612 0.91692 0.0
C3756 C 0.77171 0.21001 0.89561 0.0
C3757 C 0.80283 0.20219 0.91801 0.0
C3758 C 0.77532 0.22929 0.89957 0.0
C3759 C 0.76857 0.23915 0.88676 0.0
C3760 C 0.75867 0.22974 0.8698 0.0
C3761 C 0.75728 0.21074 0.86471 0.0
C3762 C 0.76372 0.20083 0.8777 0.0
H3763 H 0.81219 0.19659 0.92698 0.0
H3764 H 0.80284 0.19636 0.90297 0.0
H3765 H 0.80762 0.21733 0.91961 0.0
H3766 H 0.78134 0.23648 0.91346 0.0
H3767 H 0.77005 0.2539 0.89058 0.0
H3768 H 0.14667 0.51198 0.17321 0.0
H3769 H 0.12996 0.51103 0.1424 0.0
H3770 H 0.11018 0.55826 0.16505 0.0
H3771 H 0.12637 0.55896 0.19594 0.0
H3772 H 0.08908 0.51114 0.15142 0.0
H3773 H 0.12053 0.55783 0.10432 0.0
H3774 H 0.13335 0.54631 0.11908 0.0
H3775 H 0.12446 0.56501 0.12961 0.0
C3776 C 0.13936 0.52261 0.1713 0.0
C3777 C 0.13742 0.53542 0.18668 0.0
C3778 C 0.12997 0.52209 0.15381 0.0
C3779 C 0.11909 0.53463 0.15178 0.0
C3780 C 0.11878 0.54868 0.16658 0.0
H3781 H 0.03567 0.546 0.07404 0.0
H3782 H 0.05313 0.54682 0.10423 0.0
C3783 C 0.12784 0.54897 0.18412 0.0
C3784 C 0.10471 0.53029 0.13654 0.0
H3785 H 0.09043 0.54313 0.09562 0.0
C3786 C 0.08932 0.51791 0.13905 0.0
C3787 C 0.10534 0.53956 0.12092 0.0
C3788 C 0.12179 0.55293 0.11815 0.0
C3789 C 0.07417 0.51467 0.12609 0.0
C3790 C 0.0748 0.52398 0.11049 0.0
C3791 C 0.09023 0.53624 0.10791 0.0
C3792 C 0.05998 0.52056 0.09584 0.0
C3793 C 0.05756 0.5017 0.12918 0.0
C3794 C 0.05771 0.50511 0.08183 0.0
C3795 C 0.04804 0.50473 0.06459 0.0
C3796 C 0.04061 0.51974 0.06155 0.0
C3797 C 0.0414 0.53432 0.07627 0.0
C3798 C 0.05119 0.53475 0.09344 0.0
H3799 H 0.05863 0.49743 0.14333 0.0
H3800 H 0.04604 0.50832 0.12767 0.0
H3801 H 0.05493 0.4892 0.11824 0.0
H3802 H 0.06469 0.4942 0.08365 0.0
H3803 H 0.04724 0.4933 0.05332 0.0
H3804 H 0.79266 0.82081 0.48219 0.0
H3805 H 0.78806 0.80786 0.44846 0.0
H3806 H 0.77087 0.8563 0.43531 0.0
H3807 H 0.77505 0.86916 0.4691 0.0
H3808 H 0.75441 0.80445 0.41737 0.0
H3809 H 0.81855 0.84937 0.4088 0.0
H3810 H 0.8136 0.84314 0.43136 0.0
H3811 H 0.80321 0.85966 0.42169 0.0
C3812 C 0.78757 0.82855 0.47215 0.0
C3813 C 0.78422 0.84601 0.47835 0.0
C3814 C 0.78493 0.82112 0.45287 0.0
C3815 C 0.77922 0.83114 0.43935 0.0
C3816 C 0.77525 0.8483 0.44551 0.0
H3817 H 0.77338 0.81669 0.31661 0.0
H3818 H 0.77236 0.82754 0.35004 0.0
C3819 C 0.77757 0.85559 0.46483 0.0
C3820 C 0.77883 0.82432 0.41882 0.0
H3821 H 0.8025 0.83016 0.38149 0.0
C3822 C 0.76491 0.81004 0.40951 0.0
C3823 C 0.79253 0.83164 0.40858 0.0
C3824 C 0.80792 0.84675 0.41802 0.0
C3825 C 0.76433 0.80299 0.39019 0.0
C3826 C 0.77814 0.8102 0.38002 0.0
C3827 C 0.79197 0.82457 0.38932 0.0
C3828 C 0.7784 0.8032 0.35963 0.0
C3829 C 0.74883 0.7881 0.38063 0.0
C3830 C 0.78234 0.78593 0.35385 0.0
C3831 C 0.78318 0.77974 0.33468 0.0
C3832 C 0.77992 0.79063 0.32088 0.0
C3833 C 0.77592 0.80789 0.32678 0.0
C3834 C 0.77531 0.81414 0.34592 0.0
H3835 H 0.73808 0.78568 0.38974 0.0
H3836 H 0.74341 0.79182 0.36723 0.0
H3837 H 0.75334 0.77505 0.37704 0.0
H3838 H 0.78493 0.77732 0.3642 0.0
H3839 H 0.78627 0.76639 0.33067 0.0
H3840 H 0.46279 0.4922 0.80021 0.0
H3841 H 0.47457 0.49153 0.833 0.0
H3842 H 0.45157 0.53746 0.85241 0.0
H3843 H 0.43958 0.53794 0.82017 0.0
H3844 H 0.49754 0.51971 0.85901 0.0
H3845 H 0.43274 0.50058 0.88568 0.0
H3846 H 0.43495 0.49835 0.86078 0.0
H3847 H 0.43478 0.52042 0.87411 0.0
C3848 C 0.46023 0.50205 0.81153 0.0
C3849 C 0.45006 0.51492 0.80769 0.0
C3850 C 0.46692 0.50166 0.8302 0.0
C3851 C 0.46355 0.51417 0.84516 0.0
C3852 C 0.45384 0.52731 0.84119 0.0
H3853 H 0.4874 0.53822 0.96713 0.0
H3854 H 0.47741 0.538 0.93388 0.0
C3855 C 0.44705 0.52759 0.8227 0.0
C3856 C 0.47054 0.51405 0.86497 0.0
H3857 H 0.45795 0.51119 0.90882 0.0
C3858 C 0.48892 0.51765 0.8699 0.0
C3859 C 0.45922 0.51165 0.87916 0.0
C3860 C 0.43932 0.50738 0.87467 0.0
C3861 C 0.49636 0.51939 0.88876 0.0
C3862 C 0.48505 0.51688 0.90298 0.0
C3863 C 0.46664 0.51315 0.89797 0.0
C3864 C 0.49194 0.51778 0.92311 0.0
C3865 C 0.51625 0.52456 0.89325 0.0
C3866 C 0.5035 0.5066 0.92818 0.0
C3867 C 0.5096 0.5071 0.94713 0.0
C3868 C 0.50368 0.51819 0.96149 0.0
C3869 C 0.49207 0.52936 0.95642 0.0
C3870 C 0.48633 0.52923 0.93742 0.0
H3871 H 0.52247 0.53189 0.88236 0.0
H3872 H 0.52037 0.53349 0.90723 0.0
H3873 H 0.52145 0.51185 0.89348 0.0
H3874 H 0.50765 0.49726 0.91751 0.0
H3875 H 0.51873 0.49855 0.95045 0.0
H3876 H 0.74501 0.14622 0.07386 0.0
H3877 H 0.73813 0.16319 0.103 0.0
H3878 H 0.79373 0.17863 0.12393 0.0
H3879 H 0.80075 0.162 0.09506 0.0
H3880 H 0.75213 0.161 0.14552 0.0
H3881 H 0.77317 0.22745 0.11944 0.0
H3882 H 0.76531 0.20577 0.1037 0.0
H3883 H 0.78734 0.21133 0.116 0.0
C3884 C 0.7557 0.15299 0.08485 0.0
C3885 C 0.77343 0.15303 0.08221 0.0
C3886 C 0.75175 0.16263 0.10137 0.0
C3887 C 0.76549 0.17218 0.11529 0.0
C3888 C 0.78304 0.17141 0.11311 0.0
H3889 H 0.7955 0.23474 0.22203 0.0
H3890 H 0.7903 0.21335 0.19211 0.0
C3891 C 0.78701 0.16197 0.09665 0.0
C3892 C 0.762 0.18401 0.13178 0.0
H3893 H 0.7714 0.22902 0.15244 0.0
C3894 C 0.75589 0.17588 0.14698 0.0
C3895 C 0.76704 0.20336 0.13341 0.0
C3896 C 0.77348 0.21257 0.11724 0.0
C3897 C 0.7557 0.18677 0.16435 0.0
C3898 C 0.76164 0.206 0.16618 0.0
C3899 C 0.76683 0.21418 0.15073 0.0
C3900 C 0.76407 0.2178 0.18447 0.0
C3901 C 0.74999 0.17781 0.18091 0.0
C3902 C 0.75102 0.22727 0.18961 0.0
C3903 C 0.75403 0.23961 0.20645 0.0
C3904 C 0.77007 0.24237 0.21818 0.0
C3905 C 0.78302 0.23266 0.21311 0.0
C3906 C 0.78007 0.22049 0.19619 0.0
H3907 H 0.74457 0.16277 0.17683 0.0
H3908 H 0.76149 0.18003 0.19196 0.0
H3909 H 0.73979 0.18433 0.18725 0.0
H3910 H 0.73864 0.22522 0.18053 0.0
H3911 H 0.74381 0.24681 0.2104 0.0
H3912 H 0.13642 0.55519 0.28412 0.0
H3913 H 0.12273 0.55789 0.31349 0.0
H3914 H 0.12787 0.50273 0.31985 0.0
H3915 H 0.14248 0.50051 0.29124 0.0
H3916 H 0.0923 0.53669 0.31937 0.0
H3917 H 0.14657 0.52994 0.37201 0.0
H3918 H 0.15021 0.53476 0.34865 0.0
H3919 H 0.14119 0.51165 0.35217 0.0
C3920 C 0.13485 0.54385 0.29208 0.0
C3921 C 0.14051 0.52772 0.28581 0.0
C3922 C 0.12708 0.54536 0.30873 0.0
C3923 C 0.12462 0.5306 0.31892 0.0
C3924 C 0.13023 0.51447 0.31251 0.0
H3925 H 0.0482 0.52693 0.40074 0.0
H3926 H 0.06525 0.51539 0.37629 0.0
C3927 C 0.13843 0.51317 0.29619 0.0
C3928 C 0.11504 0.53158 0.33553 0.0
H3929 H 0.11842 0.52928 0.3826 0.0
C3930 C 0.09797 0.53503 0.33319 0.0
C3931 C 0.12258 0.52934 0.35344 0.0
C3932 C 0.1412 0.52638 0.35681 0.0
C3933 C 0.0883 0.53676 0.34848 0.0
C3934 C 0.0958 0.53449 0.36638 0.0
C3935 C 0.1127 0.53063 0.36869 0.0
C3936 C 0.08725 0.53893 0.38318 0.0
C3937 C 0.07049 0.54183 0.34556 0.0
C3938 C 0.09441 0.55555 0.39532 0.0
C3939 C 0.08466 0.56221 0.40889 0.0
C3940 C 0.06778 0.5522 0.41049 0.0
C3941 C 0.0611 0.53493 0.39928 0.0
C3942 C 0.07083 0.52831 0.38557 0.0
H3943 H 0.06793 0.54592 0.33149 0.0
H3944 H 0.05991 0.52983 0.34667 0.0
H3945 H 0.06956 0.55338 0.3566 0.0
H3946 H 0.10711 0.56384 0.3936 0.0
H3947 H 0.09008 0.57534 0.41786 0.0
H3948 H 0.75926 0.85837 0.58059 0.0
H3949 H 0.75481 0.8476 0.61083 0.0
H3950 H 0.79555 0.81667 0.6037 0.0
H3951 H 0.80008 0.82722 0.57366 0.0
H3952 H 0.74762 0.81066 0.62199 0.0
H3953 H 0.81312 0.85343 0.65397 0.0
H3954 H 0.80193 0.85686 0.63207 0.0
H3955 H 0.81367 0.83852 0.63234 0.0
C3956 C 0.76698 0.84892 0.58522 0.0
C3957 C 0.78014 0.84381 0.57468 0.0
C3958 C 0.76449 0.84286 0.60258 0.0
C3959 C 0.77513 0.83166 0.60971 0.0
C3960 C 0.78743 0.8256 0.59866 0.0
H3961 H 0.79234 0.7792 0.70592 0.0
H3962 H 0.79073 0.79022 0.67556 0.0
C3963 C 0.78991 0.83158 0.58138 0.0
C3964 C 0.77415 0.82692 0.62904 0.0
H3965 H 0.79917 0.83146 0.67174 0.0
C3966 C 0.75878 0.81538 0.63296 0.0
C3967 C 0.78872 0.83316 0.64338 0.0
C3968 C 0.80525 0.84632 0.64036 0.0
C3969 C 0.7579 0.80934 0.65059 0.0
C3970 C 0.77269 0.81512 0.66464 0.0
C3971 C 0.78786 0.82702 0.6609 0.0
C3972 C 0.77307 0.80824 0.68301 0.0
C3973 C 0.74146 0.7963 0.65393 0.0
C3974 C 0.76377 0.81486 0.69735 0.0
C3975 C 0.76482 0.80873 0.71488 0.0
C3976 C 0.77505 0.79575 0.71826 0.0
C3977 C 0.78426 0.78913 0.70378 0.0
C3978 C 0.78337 0.79541 0.6864 0.0
H3979 H 0.7317 0.7918 0.64103 0.0
H3980 H 0.745 0.78394 0.65881 0.0
H3981 H 0.73511 0.80317 0.66525 0.0
H3982 H 0.75585 0.82488 0.69504 0.0
H3983 H 0.75753 0.81403 0.72572 0.0
H3984 H 0.72886 0.43211 0.51667 0.0
H3985 H 0.69896 0.43629 0.50802 0.0
H3986 H 0.71939 0.47686 0.47411 0.0
H3987 H 0.74931 0.47282 0.48261 0.0
H3988 H 0.70549 0.48398 0.5157 0.0
H3989 H 0.6611 0.43848 0.45498 0.0
H3990 H 0.67649 0.42905 0.46902 0.0
H3991 H 0.68472 0.44568 0.45463 0.0
C3992 C 0.72689 0.4416 0.50703 0.0
C3993 C 0.74126 0.45265 0.50081 0.0
C3994 C 0.70985 0.44362 0.50176 0.0
C3995 C 0.7072 0.45662 0.49022 0.0
C3996 C 0.72136 0.46653 0.48273 0.0
H3997 H 0.627 0.51893 0.51186 0.0
H3998 H 0.64741 0.50577 0.49281 0.0
C3999 C 0.7384 0.46458 0.48803 0.0
C4000 C 0.69162 0.46429 0.49176 0.0
H4001 H 0.64781 0.45749 0.47625 0.0
C4002 C 0.69293 0.47855 0.50684 0.0
C4003 C 0.67554 0.45685 0.48013 0.0
C4004 C 0.67423 0.44168 0.46368 0.0
C4005 C 0.67812 0.48511 0.51132 0.0
C4006 C 0.66175 0.4772 0.50021 0.0
C4007 C 0.66053 0.46346 0.48454 0.0
C4008 C 0.64574 0.48178 0.5066 0.0
C4009 C 0.67981 0.49959 0.5286 0.0
C4010 C 0.63804 0.47227 0.52021 0.0
C4011 C 0.6269 0.47995 0.53138 0.0
C4012 C 0.62326 0.49702 0.52877 0.0
C4013 C 0.62984 0.50577 0.51408 0.0
C4014 C 0.64118 0.49819 0.50305 0.0
H4015 H 0.69373 0.50459 0.53531 0.0
H4016 H 0.67469 0.51153 0.52475 0.0
H4017 H 0.67178 0.49382 0.53921 0.0
H4018 H 0.64179 0.45971 0.52319 0.0
H4019 H 0.62161 0.47291 0.54245 0.0
H4020 H 0.21145 0.09812 0.47941 0.0
H4021 H 0.18128 0.08299 0.48275 0.0
H4022 H 0.17146 0.13481 0.50847 0.0
H4023 H 0.20173 0.15019 0.50513 0.0
H4024 H 0.165 0.08289 0.51798 0.0
H4025 H 0.13061 0.11434 0.464 0.0
H4026 H 0.15388 0.11408 0.46493 0.0
H4027 H 0.1464 0.12976 0.48189 0.0
C4028 C 0.20289 0.10637 0.4857 0.0
C4029 C 0.20897 0.12541 0.49191 0.0
C4030 C 0.18567 0.09766 0.48764 0.0
C4031 C 0.17415 0.10782 0.49571 0.0
C4032 C 0.18013 0.1268 0.50198 0.0
H4033 H 0.06221 0.07603 0.50636 0.0
H4034 H 0.09218 0.09263 0.50497 0.0
C4035 C 0.1974 0.13555 0.50007 0.0
C4036 C 0.15592 0.09839 0.49757 0.0
H4037 H 0.11276 0.09415 0.48014 0.0
C4038 C 0.15352 0.08535 0.50979 0.0
C4039 C 0.14106 0.10179 0.48696 0.0
C4040 C 0.143 0.11566 0.47359 0.0
C4041 C 0.13655 0.07566 0.51183 0.0
C4042 C 0.12163 0.07859 0.50071 0.0
C4043 C 0.12413 0.0918 0.4886 0.0
C4044 C 0.10331 0.06828 0.50148 0.0
C4045 C 0.1349 0.06282 0.52627 0.0
C4046 C 0.09931 0.04898 0.49944 0.0
C4047 C 0.08229 0.0395 0.50117 0.0
C4048 C 0.06869 0.049 0.5043 0.0
C4049 C 0.07241 0.06821 0.50477 0.0
C4050 C 0.08959 0.07776 0.50375 0.0
H4051 H 0.14627 0.06691 0.53764 0.0
H4052 H 0.1225 0.06254 0.53286 0.0
H4053 H 0.13491 0.04869 0.51928 0.0
H4054 H 0.10937 0.04119 0.49663 0.0
H4055 H 0.07987 0.02474 0.50002 0.0
H4056 H 0.18539 0.0078 0.76332 0.0
H4057 H 0.20052 0.98178 0.75948 0.0
H4058 H 0.16102 0.95026 0.78743 0.0
H4059 H 0.14594 0.97591 0.79095 0.0
H4060 H 0.21422 0.96614 0.79009 0.0
H4061 H 0.16368 0.91397 0.74072 0.0
H4062 H 0.16345 0.93821 0.74397 0.0
H4063 H 0.15528 0.92428 0.76099 0.0
C4064 C 0.17978 0.99508 0.76808 0.0
C4065 C 0.16446 0.99356 0.77712 0.0
C4066 C 0.18844 0.98035 0.76607 0.0
C4067 C 0.18175 0.96407 0.77302 0.0
C4068 C 0.16619 0.96253 0.78164 0.0
H4069 H 0.21161 0.85916 0.77218 0.0
H4070 H 0.20026 0.8865 0.78322 0.0
C4071 C 0.15761 0.97715 0.78363 0.0
C4072 C 0.19144 0.94898 0.77236 0.0
H4073 H 0.18718 0.90336 0.75579 0.0
C4074 C 0.20841 0.95242 0.78248 0.0
C4075 C 0.18363 0.93106 0.76274 0.0
C4076 C 0.16557 0.92665 0.75136 0.0
C4077 C 0.21779 0.93832 0.78327 0.0
C4078 C 0.21008 0.92046 0.77341 0.0
C4079 C 0.19303 0.91703 0.76348 0.0
C4080 C 0.21977 0.90534 0.7717 0.0
C4081 C 0.23572 0.94258 0.79486 0.0
C4082 C 0.23498 0.90706 0.76239 0.0
C4083 C 0.2415 0.89149 0.75622 0.0
C4084 C 0.23286 0.87407 0.75929 0.0
C4085 C 0.21855 0.87256 0.76992 0.0
C4086 C 0.21206 0.88812 0.77613 0.0
H4087 H 0.23713 0.95463 0.80618 0.0
H4088 H 0.23806 0.9306 0.80142 0.0
H4089 H 0.24611 0.94596 0.78554 0.0
H4090 H 0.24092 0.92012 0.75849 0.0
H4091 H 0.25237 0.89282 0.74775 0.0
H4092 H 0.32872 0.97467 0.98376 0.0
H4093 H 0.35861 0.98843 0.97746 0.0
H4094 H 0.37952 0.94852 0.00519 0.0
H4095 H 0.35074 0.93603 0.0129 0.0
H4096 H 0.38105 0.99976 0.01453 0.0
H4097 H 0.41133 0.95761 0.96259 0.0
H4098 H 0.38792 0.95767 0.96016 0.0
H4099 H 0.39683 0.94453 0.97621 0.0
C4100 C 0.33969 0.96864 0.98808 0.0
C4101 C 0.33742 0.95426 -0.00122 0.0
C4102 C 0.35657 0.97624 0.98414 0.0
C4103 C 0.37097 0.96911 0.99049 0.0
C4104 C 0.36839 0.95372 -0.00039 0.0
H4105 H 0.47877 0.98672 0.02473 0.0
H4106 H 0.44693 0.97691 0.02411 0.0
C4107 C 0.35182 0.94661 0.00408 0.0
C4108 C 0.38875 0.98042 0.99353 0.0
H4109 H 0.43089 0.97624 0.98917 0.0
C4110 C 0.39206 0.99511 0.00863 0.0
C4111 C 0.40277 0.97364 0.98619 0.0
C4112 C 0.39956 0.95755 0.97028 0.0
C4113 C 0.40916 0.00234 0.01764 0.0
C4114 C 0.42317 0.99527 0.01059 0.0
C4115 C 0.41995 0.98135 0.99471 0.0
C4116 C 0.44153 0.00297 0.01841 0.0
C4117 C 0.41194 0.01663 0.03521 0.0
C4118 C 0.4488 0.0213 0.01711 0.0
C4119 C 0.46697 0.02709 0.01807 0.0
C4120 C 0.47779 0.01438 0.01977 0.0
C4121 C 0.47067 0.99677 0.02353 0.0
C4122 C 0.4525 0.99111 0.023 0.0
H4123 H 0.39975 0.0158 0.04229 0.0
H4124 H 0.42289 0.01504 0.04547 0.0
H4125 H 0.41537 0.03056 0.03125 0.0
H4126 H 0.44047 0.03053 0.01333 0.0
H4127 H 0.47231 0.04085 0.01542 0.0
H4128 H 0.83209 0.53837 0.77409 0.0
H4129 H 0.81834 0.5636 0.76662 0.0
H4130 H 0.84045 0.59517 0.82127 0.0
H4131 H 0.85407 0.57 0.82892 0.0
H4132 H 0.79732 0.58955 0.79433 0.0
H4133 H 0.86236 0.6186 0.77136 0.0
H4134 H 0.85428 0.59412 0.77004 0.0
H4135 H 0.86221 0.60828 0.79252 0.0
C4136 C 0.83326 0.55036 0.78481 0.0
C4137 C 0.84402 0.55242 0.80205 0.0
C4138 C 0.82558 0.56471 0.78048 0.0
C4139 C 0.82869 0.58106 0.7934 0.0
C4140 C 0.838 0.58247 0.81129 0.0
H4141 H 0.82552 0.69068 0.7728 0.0
H4142 H 0.82917 0.66498 0.7895 0.0
C4143 C 0.84553 0.56806 0.8157 0.0
C4144 C 0.82387 0.59736 0.78756 0.0
H4145 H 0.84069 0.6363 0.77047 0.0
C4146 C 0.80672 0.59989 0.78918 0.0
C4147 C 0.83636 0.6105 0.78083 0.0
C4148 C 0.85485 0.60784 0.77846 0.0
C4149 C 0.80164 0.61564 0.78434 0.0
C4150 C 0.81409 0.62886 0.77757 0.0
C4151 C 0.83131 0.62623 0.77599 0.0
C4152 C 0.8093 0.64474 0.7703 0.0
C4153 C 0.78308 0.61797 0.78659 0.0
C4154 C 0.7967 0.64175 0.75436 0.0
C4155 C 0.79468 0.65628 0.74493 0.0
C4156 C 0.80536 0.67381 0.75127 0.0
C4157 C 0.81731 0.6771 0.76776 0.0
C4158 C 0.81929 0.66255 0.77727 0.0
H4159 H 0.7774 0.61011 0.7974 0.0
H4160 H 0.7827 0.63269 0.79065 0.0
H4161 H 0.77455 0.61255 0.77296 0.0
H4162 H 0.78919 0.62802 0.74856 0.0
H4163 H 0.78535 0.6537 0.73222 0.0
H4164 H 0.79613 0.62226 0.03049 0.0
H4165 H 0.82173 0.60762 0.03228 0.0
H4166 H 0.83975 0.6317 0.98458 0.0
H4167 H 0.81507 0.64716 0.98356 0.0
H4168 H 0.83054 0.58276 0.00725 0.0
H4169 H 0.88457 0.64542 0.01879 0.0
H4170 H 0.8618 0.64667 0.0203 0.0
H4171 H 0.86981 0.64341 -0.00236 0.0
C4172 C 0.80577 0.62463 0.02066 0.0
C4173 C 0.80382 0.63602 0.0071 0.0
C4174 C 0.82032 0.61624 0.0216 0.0
C4175 C 0.83287 0.61887 0.00879 0.0
C4176 C 0.83066 0.63 0.99505 0.0
H4177 H 0.93036 0.57752 0.00193 0.0
H4178 H 0.90314 0.58725 0.99151 0.0
C4179 C 0.81647 0.63875 0.99444 0.0
C4180 C 0.84789 0.60942 0.00934 0.0
H4181 H 0.89297 0.61678 0.01328 0.0
C4182 C 0.84419 0.59022 0.00862 0.0
C4183 C 0.86571 0.61911 0.01071 0.0
C4184 C 0.87073 0.6398 0.01207 0.0
C4185 C 0.85782 0.58052 0.00975 0.0
C4186 C 0.87558 0.59031 0.01179 0.0
C4187 C 0.87929 0.60934 0.01167 0.0
C4188 C 0.89057 0.58161 0.01629 0.0
C4189 C 0.8531 0.55992 0.00891 0.0
C4190 C 0.89234 0.57506 0.03352 0.0
C4191 C 0.90789 0.5698 0.03958 0.0
C4192 C 0.92184 0.57092 0.02843 0.0
C4193 C 0.91972 0.57654 0.01072 0.0
C4194 C 0.90423 0.58206 0.00477 0.0
H4195 H 0.83965 0.55394 0.00126 0.0
H4196 H 0.8628 0.55316 0.00188 0.0
H4197 H 0.85315 0.55675 0.02351 0.0
H4198 H 0.88206 0.57488 0.04274 0.0
H4199 H 0.90921 0.56534 0.05321 0.0
H4200 H 0.17616 0.09453 0.82011 0.0
H4201 H 0.19334 0.12387 0.81452 0.0
H4202 H 0.17764 0.10759 0.75455 0.0
H4203 H 0.15978 0.07853 0.76014 0.0
H4204 H 0.22099 0.13066 0.7962 0.0
H4205 H 0.16741 0.15785 0.76107 0.0
H4206 H 0.16289 0.13791 0.77266 0.0
H4207 H 0.16938 0.13584 0.74922 0.0
C4208 C 0.17625 0.09725 0.80574 0.0
C4209 C 0.16653 0.08423 0.79058 0.0
C4210 C 0.18609 0.11404 0.80255 0.0
C4211 C 0.1866 0.11813 0.78413 0.0
C4212 C 0.17706 0.10505 0.76893 0.0
H4213 H 0.25617 0.20879 0.74531 0.0
H4214 H 0.23799 0.17859 0.74775 0.0
C4215 C 0.16695 0.08836 0.77214 0.0
C4216 C 0.19773 0.13577 0.78096 0.0
H4217 H 0.19684 0.17465 0.76141 0.0
C4218 C 0.21565 0.14025 0.78861 0.0
C4219 C 0.19081 0.14835 0.77103 0.0
C4220 C 0.17153 0.14485 0.76318 0.0
C4221 C 0.22677 0.15692 0.78669 0.0
C4222 C 0.21984 0.16939 0.77682 0.0
C4223 C 0.20206 0.16492 0.76891 0.0
C4224 C 0.23079 0.1875 0.77528 0.0
C4225 C 0.24585 0.1613 0.79539 0.0
C4226 C 0.23267 0.20239 0.78996 0.0
C4227 C 0.24284 0.21962 0.78852 0.0
C4228 C 0.25152 0.22213 0.77251 0.0
C4229 C 0.24982 0.20712 0.75792 0.0
C4230 C 0.23938 0.18995 0.75923 0.0
H4231 H 0.24967 0.14945 0.80111 0.0
H4232 H 0.25469 0.16539 0.78472 0.0
H4233 H 0.248 0.17316 0.80705 0.0
H4234 H 0.22616 0.20067 0.80247 0.0
H4235 H 0.244 0.23097 0.79996 0.0
H4236 H 0.36736 0.96876 0.26143 0.0
H4237 H 0.35196 0.93677 0.25001 0.0
H4238 H 0.33354 0.93305 0.30432 0.0
H4239 H 0.34869 0.96481 0.31589 0.0
H4240 H 0.35796 0.90555 0.26812 0.0
H4241 H 0.28852 0.9141 0.2652 0.0
H4242 H 0.30695 0.93301 0.26489 0.0
H4243 H 0.30197 0.92547 0.28682 0.0
C4244 C 0.35996 0.96115 0.27092 0.0
C4245 C 0.35925 0.96927 0.28961 0.0
C4246 C 0.35118 0.94296 0.26434 0.0
C4247 C 0.34148 0.93287 0.2763 0.0
C4248 C 0.34074 0.94089 0.29486 0.0
H4249 H 0.30117 0.82862 0.29953 0.0
H4250 H 0.31672 0.86004 0.29752 0.0
C4251 C 0.34953 0.95896 0.30147 0.0
C4252 C 0.33293 0.9135 0.27011 0.0
H4253 H 0.29327 0.88382 0.26803 0.0
C4254 C 0.34377 0.90071 0.26757 0.0
C4255 C 0.31445 0.90746 0.26948 0.0
C4256 C 0.30227 0.92075 0.27157 0.0
C4257 C 0.33662 0.88184 0.26576 0.0
C4258 C 0.31832 0.87597 0.26634 0.0
C4259 C 0.30735 0.88863 0.26766 0.0
C4260 C 0.31039 0.85687 0.26717 0.0
C4261 C 0.34861 0.86833 0.2642 0.0
C4262 C 0.30153 0.84522 0.2508 0.0
C4263 C 0.29245 0.82756 0.25199 0.0
C4264 C 0.2924 0.82152 0.2695 0.0
C4265 C 0.30119 0.83322 0.28591 0.0
C4266 C 0.31016 0.85092 0.28475 0.0
H4267 H 0.36235 0.87503 0.2625 0.0
H4268 H 0.34894 0.86181 0.27711 0.0
H4269 H 0.34333 0.8572 0.25198 0.0
H4270 H 0.30139 0.84993 0.23724 0.0
H4271 H 0.28519 0.81884 0.23938 0.0
H4272 H 0.55516 0.32708 0.54714 0.0
H4273 H 0.55403 0.35619 0.53516 0.0
H4274 H 0.53286 0.37585 0.58545 0.0
H4275 H 0.53468 0.34741 0.59754 0.0
H4276 H 0.52634 0.3712 0.52597 0.0
H4277 H 0.56916 0.42072 0.58378 0.0
H4278 H 0.56827 0.3963 0.58137 0.0
H4279 H 0.55168 0.40608 0.59254 0.0
C4280 C 0.55092 0.33794 0.55589 0.0
C4281 C 0.54567 0.33517 0.57366 0.0
C4282 C 0.55004 0.35453 0.54894 0.0
C4283 C 0.54372 0.36869 0.55949 0.0
C4284 C 0.53844 0.36573 0.57719 0.0
H4285 H 0.51814 0.47543 0.54955 0.0
H4286 H 0.52295 0.44633 0.55849 0.0
C4287 C 0.5395 0.34935 0.58416 0.0
C4288 C 0.54166 0.38609 0.55185 0.0
H4289 H 0.55015 0.43316 0.56363 0.0
C4290 C 0.53172 0.38475 0.53414 0.0
C4291 C 0.54855 0.40397 0.56235 0.0
C4292 C 0.56015 0.40689 0.58097 0.0
C4293 C 0.52788 0.40047 0.52713 0.0
C4294 C 0.5345 0.41836 0.53783 0.0
C4295 C 0.54481 0.41965 0.55532 0.0
C4296 C 0.53067 0.43588 0.53163 0.0
C4297 C 0.51606 0.3975 0.50865 0.0
C4298 C 0.53319 0.44014 0.51343 0.0
C4299 C 0.52982 0.45664 0.5081 0.0
C4300 C 0.52453 0.46976 0.52102 0.0
C4301 C 0.52227 0.4657 0.53925 0.0
C4302 C 0.52509 0.44898 0.54439 0.0
H4303 H 0.50777 0.3833 0.50537 0.0
H4304 H 0.50719 0.4074 0.5088 0.0
H4305 H 0.5244 0.39938 0.49706 0.0
H4306 H 0.53812 0.43089 0.50338 0.0
H4307 H 0.53196 0.45945 0.49404 0.0
H4308 H 0.44949 0.73398 0.3707 0.0
H4309 H 0.42206 0.73514 0.3515 0.0
H4310 H 0.42042 0.78642 0.38601 0.0
H4311 H 0.44813 0.78537 0.40501 0.0
H4312 H 0.3886 0.73584 0.36022 0.0
H4313 H 0.41651 0.79977 0.33323 0.0
H4314 H 0.43021 0.78703 0.34519 0.0
H4315 H 0.41899 0.80226 0.35854 0.0
C4316 C 0.44316 0.74542 0.37423 0.0
C4317 C 0.45083 0.75956 0.38932 0.0
C4318 C 0.42751 0.7461 0.36324 0.0
C4319 C 0.41924 0.76101 0.36704 0.0
C4320 C 0.42671 0.77496 0.38248 0.0
H4321 H 0.32436 0.79072 0.31795 0.0
H4322 H 0.35127 0.78843 0.33726 0.0
C4323 C 0.44243 0.7743 0.39345 0.0
C4324 C 0.40287 0.7619 0.35479 0.0
H4325 H 0.38545 0.78847 0.32629 0.0
C4326 C 0.38796 0.74733 0.35276 0.0
C4327 C 0.40198 0.77678 0.34485 0.0
C4328 C 0.41781 0.79227 0.34536 0.0
C4329 C 0.37214 0.74748 0.34154 0.0
C4330 C 0.37117 0.76251 0.33187 0.0
C4331 C 0.38612 0.77699 0.33376 0.0
C4332 C 0.35468 0.76365 0.32005 0.0
C4333 C 0.35642 0.73175 0.3405 0.0
C4334 C 0.34768 0.75066 0.30373 0.0
C4335 C 0.3322 0.75193 0.29273 0.0
C4336 C 0.32333 0.7661 0.29793 0.0
C4337 C 0.33051 0.77926 0.31403 0.0
C4338 C 0.34604 0.77808 0.32493 0.0
H4339 H 0.35796 0.72345 0.35194 0.0
H4340 H 0.34404 0.73692 0.34143 0.0
H4341 H 0.35501 0.72253 0.32675 0.0
H4342 H 0.35426 0.73961 0.29941 0.0
H4343 H 0.32705 0.74173 0.28027 0.0
H4344 H 0.02484 0.73474 0.04815 0.0
H4345 H 0.02517 0.70239 0.03671 0.0
H4346 H 0.05104 0.69811 0.09088 0.0
H4347 H 0.05117 0.73055 0.10227 0.0
H4348 H 0.06014 0.68188 0.0426 0.0
H4349 H 0.9981 0.65778 0.0733 0.0
H4350 H 0.00308 0.68009 0.0659 0.0
H4351 H 0.01502 0.67616 0.08689 0.0
C4352 C 0.03086 0.72701 0.05756 0.0
C4353 C 0.03807 0.73537 0.07615 0.0
C4354 C 0.03103 0.70848 0.05098 0.0
C4355 C 0.03808 0.69772 0.06292 0.0
C4356 C 0.04561 0.7061 0.08134 0.0
H4357 H 0.02505 0.57855 0.05731 0.0
H4358 H 0.029 0.61189 0.06661 0.0
C4359 C 0.04574 0.72472 0.08782 0.0
C4360 C 0.03673 0.67753 0.05655 0.0
H4361 H 0.01142 0.6351 0.05852 0.0
C4362 C 0.0495 0.67161 0.04605 0.0
C4363 C 0.02292 0.66409 0.0611 0.0
C4364 C 0.00889 0.66968 0.07237 0.0
C4365 C 0.04902 0.65268 0.0403 0.0
C4366 C 0.03501 0.63911 0.04465 0.0
C4367 C 0.0222 0.64521 0.05509 0.0
C4368 C 0.03341 0.61863 0.03889 0.0
C4369 C 0.06396 0.64754 0.03021 0.0
C4370 C 0.0345 0.61087 0.02016 0.0
C4371 C 0.03271 0.59176 0.01495 0.0
C4372 C 0.02913 0.57971 0.02812 0.0
C4373 C 0.02773 0.58737 0.04675 0.0
C4374 C 0.02997 0.60652 0.05207 0.0
H4375 H 0.07612 0.65864 0.03359 0.0
H4376 H 0.0672 0.63465 0.03398 0.0
H4377 H 0.06005 0.64553 0.01473 0.0
H4378 H 0.03641 0.61952 0.00938 0.0
H4379 H 0.03365 0.58636 0.00041 0.0
H4380 H 0.05275 0.28775 0.89375 0.0
H4381 H 0.08126 0.29296 0.88078 0.0
H4382 H 0.07663 0.23424 0.86753 0.0
H4383 H 0.04793 0.22906 0.87959 0.0
H4384 H 0.11321 0.28206 0.88957 0.0
H4385 H 0.08317 0.24961 0.81669 0.0
H4386 H 0.07006 0.25627 0.83481 0.0
H4387 H 0.07822 0.23544 0.83442 0.0
C4388 C 0.05794 0.276 0.88819 0.0
C4389 C 0.04813 0.25799 0.88756 0.0
C4390 C 0.07419 0.27897 0.88076 0.0
C4391 C 0.08096 0.26398 0.87281 0.0
C4392 C 0.07148 0.24603 0.87304 0.0
H4393 H 0.16989 0.2586 0.80671 0.0
H4394 H 0.14667 0.25032 0.82696 0.0
C4395 C 0.05514 0.24308 0.88005 0.0
C4396 C 0.09765 0.267 0.86386 0.0
H4397 H 0.11424 0.25848 0.82194 0.0
C4398 C 0.11343 0.27692 0.87478 0.0
C4399 C 0.09803 0.26012 0.84459 0.0
C4400 C 0.08146 0.2499 0.83186 0.0
C4401 C 0.12954 0.28014 0.86697 0.0
C4402 C 0.12982 0.27364 0.84759 0.0
C4403 C 0.11409 0.2634 0.8368 0.0
C4404 C 0.14578 0.27849 0.83772 0.0
C4405 C 0.14612 0.2903 0.87964 0.0
C4406 C 0.15326 0.29704 0.83722 0.0
C4407 C 0.1664 0.30174 0.82562 0.0
C4408 C 0.17242 0.28801 0.81427 0.0
C4409 C 0.16561 0.26945 0.81545 0.0
C4410 C 0.1523 0.26473 0.82695 0.0
H4411 H 0.1451 0.28851 0.89459 0.0
H4412 H 0.15797 0.28552 0.8752 0.0
H4413 H 0.14802 0.30524 0.87899 0.0
H4414 H 0.1483 0.30793 0.84506 0.0
H4415 H 0.17141 0.31615 0.82498 0.0
H4416 H 0.5329 0.76749 0.91197 0.0
H4417 H 0.53486 0.74249 0.93009 0.0
H4418 H 0.53508 0.70586 0.87836 0.0
H4419 H 0.53438 0.73121 0.86052 0.0
H4420 H 0.51128 0.71314 0.92893 0.0
H4421 H 0.57133 0.68967 0.90961 0.0
H4422 H 0.56654 0.71101 0.90408 0.0
H4423 H 0.55628 0.68947 0.88917 0.0
C4424 C 0.53417 0.75429 0.90464 0.0
C4425 C 0.53404 0.75139 0.88494 0.0
C4426 C 0.53508 0.73992 0.91495 0.0
C4427 C 0.53541 0.7222 0.90573 0.0
C4428 C 0.53555 0.71945 0.88602 0.0
H4429 H 0.50886 0.61341 0.93622 0.0
H4430 H 0.5188 0.63993 0.92043 0.0
C4431 C 0.53515 0.73397 0.87577 0.0
C4432 C 0.53384 0.70638 0.91649 0.0
H4433 H 0.55093 0.6689 0.92389 0.0
C4434 C 0.52016 0.70367 0.928 0.0
C4435 C 0.54525 0.69378 0.91525 0.0
C4436 C 0.56077 0.69623 0.904 0.0
C4437 C 0.51739 0.6887 0.93794 0.0
C4438 C 0.52868 0.67603 0.93651 0.0
C4439 C 0.54235 0.67865 0.92505 0.0
C4440 C 0.52589 0.65963 0.94628 0.0
C4441 C 0.50205 0.68624 0.94947 0.0
C4442 C 0.52741 0.66172 0.9661 0.0
C4443 C 0.52191 0.64653 0.97511 0.0
C4444 C 0.51498 0.62899 0.96447 0.0
C4445 C 0.51459 0.6267 0.94474 0.0
C4446 C 0.52011 0.64188 0.93572 0.0
H4447 H 0.49248 0.69482 0.94593 0.0
H4448 H 0.49491 0.6716 0.94723 0.0
H4449 H 0.50714 0.69038 0.96468 0.0
H4450 H 0.53198 0.67525 0.97454 0.0
H4451 H 0.52193 0.64871 0.9903 0.0
H4452 H 0.07743 0.7828 0.74173 0.0
H4453 H 0.10833 0.78144 0.74941 0.0
H4454 H 0.10379 0.73955 0.70075 0.0
H4455 H 0.07278 0.74122 0.69266 0.0
H4456 H 0.12441 0.75576 0.75911 0.0
H4457 H 0.14791 0.77338 0.69224 0.0
H4458 H 0.12626 0.77541 0.69816 0.0
H4459 H 0.1303 0.7533 0.68883 0.0
C4460 C 0.08293 0.77332 0.7325 0.0
C4461 C 0.07239 0.76223 0.7164 0.0
C4462 C 0.10075 0.77252 0.737 0.0
C4463 C 0.10883 0.76062 0.72559 0.0
C4464 C 0.09827 0.74927 0.70963 0.0
H4465 H 0.21696 0.73838 0.74178 0.0
H4466 H 0.18503 0.73536 0.73314 0.0
C4467 C 0.08038 0.75014 0.70504 0.0
C4468 C 0.12811 0.76015 0.73068 0.0
H4469 H 0.16855 0.765 0.71387 0.0
C4470 C 0.13398 0.75779 0.74913 0.0
C4471 C 0.14094 0.76284 0.71788 0.0
C4472 C 0.13612 0.76656 0.69823 0.0
C4473 C 0.15195 0.75801 0.75499 0.0
C4474 C 0.16467 0.76071 0.74219 0.0
C4475 C 0.15887 0.76282 0.72371 0.0
C4476 C 0.18412 0.76218 0.74801 0.0
C4477 C 0.15731 0.75531 0.77488 0.0
C4478 C 0.19446 0.77821 0.75931 0.0
C4479 C 0.21278 0.78003 0.76417 0.0
C4480 C 0.22136 0.76576 0.75807 0.0
C4481 C 0.21091 0.74958 0.74698 0.0
C4482 C 0.19259 0.74787 0.74191 0.0
H4483 H 0.14568 0.75082 0.78231 0.0
H4484 H 0.16568 0.74491 0.77477 0.0
H4485 H 0.16532 0.76847 0.78297 0.0
H4486 H 0.18837 0.7895 0.76419 0.0
H4487 H 0.22026 0.79269 0.77274 0.0
H4488 H 0.01004 0.35001 0.3651 0.0
H4489 H 0.01311 0.3794 0.38607 0.0
H4490 H 0.05261 0.36471 0.42357 0.0
H4491 H 0.04965 0.33526 0.40235 0.0
H4492 H 0.00552 0.38018 0.4239 0.0
H4493 H 0.07369 0.41966 0.42135 0.0
H4494 H 0.06249 0.40109 0.40283 0.0
H4495 H 0.07146 0.3961 0.42491 0.0
C4496 C 0.01984 0.35336 0.37747 0.0
C4497 C 0.02987 0.34055 0.3819 0.0
C4498 C 0.02149 0.3701 0.38953 0.0
C4499 C 0.03316 0.3744 0.4064 0.0
C4500 C 0.04377 0.36192 0.41049 0.0
H4501 H 0.04901 0.46836 0.4989 0.0
H4502 H 0.05098 0.43979 0.47866 0.0
C4503 C 0.04213 0.34512 0.39834 0.0
C4504 C 0.03265 0.3909 0.42043 0.0
H4505 H 0.0568 0.43282 0.44287 0.0
C4506 C 0.01674 0.3917 0.42803 0.0
C4507 C 0.04735 0.40582 0.4261 0.0
C4508 C 0.06472 0.40581 0.41834 0.0
C4509 C 0.01508 0.40692 0.44101 0.0
C4510 C 0.02956 0.42221 0.44618 0.0
C4511 C 0.04562 0.42124 0.43888 0.0
C4512 C 0.02819 0.43941 0.45877 0.0
C4513 C 0.99785 0.40618 0.44933 0.0
C4514 C 0.01476 0.44885 0.45448 0.0
C4515 C 0.01351 0.46498 0.4662 0.0
C4516 C 0.02596 0.47239 0.48215 0.0
C4517 C 0.03933 0.463 0.48656 0.0
C4518 C 0.0405 0.44672 0.47495 0.0
H4519 H 0.99085 0.39173 0.44927 0.0
H4520 H 0.99999 0.41362 0.46406 0.0
H4521 H 0.98905 0.41262 0.44064 0.0
H4522 H 0.00525 0.4438 0.44199 0.0
H4523 H 0.00264 0.47148 0.46289 0.0
H4524 H 0.47629 0.27439 0.22799 0.0
H4525 H 0.44836 0.2794 0.2391 0.0
H4526 H 0.42032 0.22924 0.20338 0.0
H4527 H 0.44829 0.22448 0.19191 0.0
H4528 H 0.41663 0.28327 0.21749 0.0
H4529 H 0.40324 0.22393 0.25597 0.0
H4530 H 0.42485 0.23282 0.24953 0.0
H4531 H 0.40798 0.21826 0.23215 0.0
C4532 C 0.46421 0.26425 0.22275 0.0
C4533 C 0.46464 0.24879 0.20937 0.0
C4534 C 0.44816 0.26721 0.22901 0.0
C4535 C 0.43203 0.25464 0.22235 0.0
C4536 C 0.43248 0.23908 0.20906 0.0
H4537 H 0.32029 0.24631 0.23644 0.0
H4538 H 0.34926 0.24255 0.22808 0.0
C4539 C 0.44852 0.2363 0.2025 0.0
C4540 C 0.4148 0.25805 0.22892 0.0
H4541 H 0.38007 0.23986 0.25171 0.0
C4542 C 0.40872 0.27381 0.22508 0.0
C4543 C 0.40432 0.24589 0.23896 0.0
C4544 C 0.41043 0.22935 0.2446 0.0
C4545 C 0.39243 0.27735 0.23041 0.0
C4546 C 0.38181 0.265 0.24018 0.0
C4547 C 0.38801 0.24939 0.24421 0.0
C4548 C 0.36399 0.26762 0.24567 0.0
C4549 C 0.3864 0.29402 0.225 0.0
C4550 C 0.36225 0.28285 0.25871 0.0
C4551 C 0.3455 0.28488 0.26383 0.0
C4552 C 0.32989 0.27193 0.25583 0.0
C4553 C 0.33179 0.25671 0.24287 0.0
C4554 C 0.34849 0.2545 0.23804 0.0
H4555 H 0.39415 0.30009 0.21432 0.0
H4556 H 0.37216 0.29041 0.21927 0.0
H4557 H 0.38807 0.30467 0.23775 0.0
H4558 H 0.3739 0.2931 0.26514 0.0
H4559 H 0.34484 0.29664 0.27401 0.0
H4560 H 0.60954 0.50826 0.32913 0.0
H4561 H 0.59561 0.50529 0.35775 0.0
H4562 H 0.58071 0.55753 0.35607 0.0
H4563 H 0.59385 0.55996 0.32641 0.0
H4564 H 0.60259 0.52479 0.39124 0.0
H4565 H 0.53434 0.52662 0.36256 0.0
H4566 H 0.55149 0.52467 0.34761 0.0
H4567 H 0.55039 0.54674 0.36036 0.0
C4568 C 0.60327 0.51914 0.33484 0.0
C4569 C 0.60272 0.53435 0.32561 0.0
C4570 C 0.59531 0.51741 0.35121 0.0
C4571 C 0.58687 0.53103 0.35898 0.0
C4572 C 0.58668 0.54655 0.35004 0.0
H4573 H 0.53276 0.5447 0.45752 0.0
H4574 H 0.547 0.54734 0.42884 0.0
C4575 C 0.59428 0.54804 0.33323 0.0
C4576 C 0.57857 0.52881 0.37654 0.0
H4577 H 0.53972 0.52704 0.39551 0.0
C4578 C 0.58883 0.52527 0.39218 0.0
C4579 C 0.56057 0.5292 0.37769 0.0
C4580 C 0.5485 0.53182 0.3611 0.0
C4581 C 0.58174 0.52259 0.40907 0.0
C4582 C 0.5638 0.52329 0.41031 0.0
C4583 C 0.5535 0.52662 0.3946 0.0
C4584 C 0.55557 0.52151 0.42798 0.0
C4585 C 0.59371 0.51948 0.4255 0.0
C4586 C 0.5556 0.5061 0.43708 0.0
C4587 C 0.54795 0.5049 0.45385 0.0
C4588 C 0.5396 0.51874 0.46128 0.0
C4589 C 0.53911 0.53384 0.45193 0.0
C4590 C 0.54721 0.53533 0.43557 0.0
H4591 H 0.60791 0.52433 0.42398 0.0
H4592 H 0.59095 0.52664 0.4391 0.0
H4593 H 0.59146 0.50451 0.42606 0.0
H4594 H 0.56139 0.49494 0.43117 0.0
H4595 H 0.54815 0.49298 0.46073 0.0
H4596 H 0.25844 0.8778 0.03169 0.0
H4597 H 0.24958 0.86335 0.05908 0.0
H4598 H 0.30456 0.86819 0.0794 0.0
H4599 H 0.31343 0.88186 0.05223 0.0
H4600 H 0.26697 0.82994 0.0724 0.0
H4601 H 0.27612 0.89515 0.12247 0.0
H4602 H 0.26959 0.8933 0.09737 0.0
H4603 H 0.29236 0.89499 0.10622 0.0
C4604 C 0.26852 0.87535 0.04186 0.0
C4605 C 0.28656 0.88076 0.03988 0.0
C4606 C 0.26348 0.86738 0.05748 0.0
C4607 C 0.27651 0.8653 0.07127 0.0
C4608 C 0.29442 0.87002 0.0689 0.0
H4609 H 0.3277 0.83537 0.15664 0.0
H4610 H 0.31235 0.85083 0.1346 0.0
C4611 C 0.29942 0.87753 0.05323 0.0
C4612 C 0.27206 0.85734 0.08802 0.0
H4613 H 0.28268 0.86879 0.13565 0.0
C4614 C 0.26952 0.83822 0.08636 0.0
C4615 C 0.27569 0.86846 0.10598 0.0
C4616 C 0.27847 0.88915 0.10818 0.0
C4617 C 0.27284 0.82999 0.10217 0.0
C4618 C 0.27806 0.84129 0.12002 0.0
C4619 C 0.27858 0.86023 0.12192 0.0
C4620 C 0.28635 0.83421 0.13574 0.0
C4621 C 0.27283 0.80967 0.09929 0.0
C4622 C 0.27667 0.82013 0.14383 0.0
C4623 C 0.28543 0.8112 0.15614 0.0
C4624 C 0.30393 0.81632 0.16049 0.0
C4625 C 0.31349 0.83098 0.15306 0.0
C4626 C 0.30471 0.83995 0.14079 0.0
H4627 H 0.27074 0.80348 0.0841 0.0
H4628 H 0.28559 0.80733 0.10568 0.0
H4629 H 0.26209 0.80233 0.10634 0.0
H4630 H 0.26248 0.81563 0.14006 0.0
H4631 H 0.27783 0.79997 0.1619 0.0
H4632 H 0.93581 0.54955 0.83114 0.0
H4633 H 0.94648 0.54421 0.86246 0.0
H4634 H 0.92431 0.48604 0.84621 0.0
H4635 H 0.9135 0.49144 0.81466 0.0
H4636 H 0.92395 0.52416 0.88938 0.0
H4637 H 0.97992 0.49484 0.86426 0.0
H4638 H 0.96891 0.50872 0.85072 0.0
H4639 H 0.95797 0.4856 0.85205 0.0
C4640 C 0.93387 0.53555 0.83406 0.0
C4641 C 0.92469 0.52076 0.82041 0.0
C4642 C 0.93949 0.5326 0.85201 0.0
C4643 C 0.93594 0.51481 0.8565 0.0
C4644 C 0.92707 0.49986 0.84281 0.0
H4645 H 0.99529 0.49192 0.95468 0.0
H4646 H 0.97332 0.487 0.92678 0.0
C4647 C 0.92139 0.50285 0.82476 0.0
C4648 C 0.94307 0.512 0.87511 0.0
H4649 H 0.97937 0.50115 0.8967 0.0
C4650 C 0.93584 0.51875 0.89112 0.0
C4651 C 0.95857 0.50508 0.87709 0.0
C4652 C 0.96694 0.49819 0.86018 0.0
C4653 C 0.94423 0.51922 0.9093 0.0
C4654 C 0.96028 0.5131 0.91118 0.0
C4655 C 0.96697 0.50566 0.89514 0.0
C4656 C 0.9714 0.51563 0.9293 0.0
C4657 C 0.93608 0.52659 0.92621 0.0
C4658 C 0.97758 0.53336 0.93972 0.0
C4659 C 0.98978 0.53605 0.95572 0.0
C4660 C 0.99633 0.52117 0.96099 0.0
C4661 C 0.99053 0.50355 0.95043 0.0
C4662 C 0.97786 0.50073 0.93481 0.0
H4663 H 0.9215 0.52455 0.92294 0.0
H4664 H 0.93903 0.51988 0.93858 0.0
H4665 H 0.94154 0.54162 0.93013 0.0
H4666 H 0.97333 0.54515 0.93525 0.0
H4667 H 0.99428 0.54976 0.96385 0.0
H4668 H 0.27738 0.17291 0.56575 0.0
H4669 H 0.27477 0.18555 0.5985 0.0
H4670 H 0.26866 0.23681 0.58098 0.0
H4671 H 0.27172 0.22428 0.54825 0.0
H4672 H 0.29861 0.22099 0.61951 0.0
H4673 H 0.22662 0.22068 0.61393 0.0
H4674 H 0.2358 0.2056 0.59768 0.0
H4675 H 0.23881 0.22958 0.59589 0.0
C4676 C 0.27526 0.18679 0.56891 0.0
C4677 C 0.27463 0.19764 0.55458 0.0
C4678 C 0.27382 0.19401 0.58758 0.0
C4679 C 0.27139 0.21207 0.59216 0.0
C4680 C 0.27037 0.22279 0.57773 0.0
H4681 H 0.26087 0.27638 0.70086 0.0
H4682 H 0.26078 0.26548 0.66704 0.0
C4683 C 0.27213 0.21567 0.5591 0.0
C4684 C 0.27094 0.22002 0.61218 0.0
H4685 H 0.2436 0.23371 0.64331 0.0
C4686 C 0.28659 0.22379 0.62473 0.0
C4687 C 0.2553 0.2238 0.6189 0.0
C4688 C 0.23809 0.21965 0.60601 0.0
C4689 C 0.28706 0.23129 0.64383 0.0
C4690 C 0.2713 0.23468 0.65075 0.0
C4691 C 0.25568 0.23114 0.63808 0.0
C4692 C 0.27068 0.24115 0.6712 0.0
C4693 C 0.30456 0.2358 0.65632 0.0
C4694 C 0.27577 0.23089 0.68479 0.0
C4695 C 0.27593 0.23711 0.70402 0.0
C4696 C 0.27074 0.25365 0.71025 0.0
C4697 C 0.26499 0.26362 0.6966 0.0
C4698 C 0.26495 0.25741 0.67725 0.0
H4699 H 0.31588 0.23804 0.64792 0.0
H4700 H 0.30568 0.2483 0.66698 0.0
H4701 H 0.30568 0.22408 0.66385 0.0
H4702 H 0.27971 0.21803 0.68054 0.0
H4703 H 0.28022 0.22888 0.71403 0.0
H4704 H 0.61197 0.54893 0.21869 0.0
H4705 H 0.59963 0.55236 0.18713 0.0
H4706 H 0.56709 0.49757 0.18015 0.0
H4707 H 0.57891 0.49428 0.21177 0.0
H4708 H 0.60055 0.53329 0.15286 0.0
H4709 H 0.53071 0.5262 0.16617 0.0
H4710 H 0.54862 0.52972 0.18501 0.0
H4711 H 0.53952 0.50703 0.17188 0.0
C4712 C 0.60217 0.53762 0.21042 0.0
C4713 C 0.59637 0.52135 0.21777 0.0
C4714 C 0.5951 0.53962 0.1924 0.0
C4715 C 0.58214 0.52538 0.18139 0.0
C4716 C 0.57666 0.50898 0.18857 0.0
H4717 H 0.52841 0.49843 0.06793 0.0
H4718 H 0.54173 0.49907 0.10019 0.0
C4719 C 0.58357 0.50705 0.20661 0.0
C4720 C 0.57475 0.52731 0.16216 0.0
H4721 H 0.53587 0.52265 0.13371 0.0
C4722 C 0.58642 0.53117 0.14874 0.0
C4723 C 0.5563 0.52469 0.15678 0.0
C4724 C 0.54308 0.52188 0.17078 0.0
C4725 C 0.58012 0.53171 0.12994 0.0
C4726 C 0.56167 0.52838 0.12445 0.0
C4727 C 0.55001 0.52498 0.13793 0.0
C4728 C 0.55415 0.52805 0.10469 0.0
C4729 C 0.5932 0.53528 0.11593 0.0
C4730 C 0.55678 0.54412 0.0965 0.0
C4731 C 0.54924 0.54379 0.07803 0.0
C4732 C 0.53874 0.52744 0.06747 0.0
C4733 C 0.53631 0.5113 0.07568 0.0
C4734 C 0.54389 0.51164 0.09413 0.0
H4735 H 0.6067 0.53423 0.12154 0.0
H4736 H 0.58886 0.52539 0.10257 0.0
H4737 H 0.59391 0.54937 0.11256 0.0
H4738 H 0.56449 0.55699 0.10447 0.0
H4739 H 0.55154 0.55639 0.07211 0.0
H4740 H 0.31714 0.90462 0.94348 0.0
H4741 H 0.30846 0.88466 0.91288 0.0
H4742 H 0.25525 0.86905 0.92678 0.0
H4743 H 0.26381 0.88942 0.95739 0.0
H4744 H 0.29475 0.84583 0.91754 0.0
H4745 H 0.25056 0.87302 0.86826 0.0
H4746 H 0.26678 0.88821 0.88614 0.0
H4747 H 0.24726 0.87476 0.89284 0.0
C4748 C 0.30346 0.89738 0.93972 0.0
C4749 C 0.29117 0.89816 0.95274 0.0
C4750 C 0.29852 0.8861 0.92228 0.0
C4751 C 0.2813 0.87541 0.9178 0.0
C4752 C 0.26856 0.87742 0.93005 0.0
H4753 H 0.24597 0.79151 0.81867 0.0
H4754 H 0.24603 0.80956 0.84978 0.0
C4755 C 0.27345 0.88896 0.94747 0.0
C4756 C 0.27788 0.85986 0.90228 0.0
H4757 H 0.25768 0.84475 0.85744 0.0
C4758 C 0.28653 0.84544 0.90441 0.0
C4759 C 0.2669 0.85942 0.88549 0.0
C4760 C 0.25732 0.87466 0.88287 0.0
C4761 C 0.28492 0.83066 0.88982 0.0
C4762 C 0.27473 0.83068 0.87255 0.0
C4763 C 0.26549 0.84479 0.87073 0.0
C4764 C 0.27463 0.81721 0.85563 0.0
C4765 C 0.29424 0.81533 0.8931 0.0
C4766 C 0.29068 0.81518 0.84895 0.0
C4767 C 0.29061 0.8044 0.83161 0.0
C4768 C 0.27452 0.79623 0.82051 0.0
C4769 C 0.25848 0.79789 0.82721 0.0
C4770 C 0.25852 0.80812 0.84486 0.0
H4771 H 0.29542 0.81376 0.90824 0.0
H4772 H 0.2872 0.80196 0.88456 0.0
H4773 H 0.30786 0.81877 0.88919 0.0
H4774 H 0.30325 0.82261 0.85669 0.0
H4775 H 0.30307 0.80335 0.82636 0.0
H4776 H 0.91344 0.53503 0.75213 0.0
H4777 H 0.93988 0.53254 0.73688 0.0
H4778 H 0.91355 0.47875 0.7072 0.0
H4779 H 0.88703 0.48133 0.72207 0.0
H4780 H 0.96127 0.50123 0.71666 0.0
H4781 H 0.90843 0.52552 0.67585 0.0
H4782 H 0.91014 0.52712 0.70118 0.0
H4783 H 0.90152 0.50529 0.68632 0.0
C4784 C 0.91374 0.52217 0.74335 0.0
C4785 C 0.89817 0.50862 0.73761 0.0
C4786 C 0.92888 0.52076 0.73468 0.0
C4787 C 0.92829 0.50576 0.72051 0.0
C4788 C 0.91408 0.49051 0.718 0.0
H4789 H 0.95208 0.47266 0.61514 0.0
H4790 H 0.93884 0.48418 0.64263 0.0
C4791 C 0.8989 0.49203 0.72641 0.0
C4792 C 0.93808 0.50882 0.70434 0.0
H4793 H 0.9317 0.5181 0.65951 0.0
C4794 C 0.95506 0.50527 0.70427 0.0
C4795 C 0.92981 0.51427 0.68835 0.0
C4796 C 0.91152 0.5184 0.68787 0.0
C4797 C 0.96362 0.5059 0.68797 0.0
C4798 C 0.95491 0.51036 0.67163 0.0
C4799 C 0.93835 0.51492 0.67216 0.0
C4800 C 0.96117 0.5068 0.65311 0.0
C4801 C 0.98138 0.50064 0.6879 0.0
C4802 C 0.97753 0.51651 0.64937 0.0
C4803 C 0.98506 0.50994 0.63363 0.0
C4804 C 0.97623 0.49365 0.62172 0.0
C4805 C 0.95915 0.48505 0.62448 0.0
C4806 C 0.9516 0.49167 0.64005 0.0
H4807 H 0.98528 0.49536 0.70097 0.0
H4808 H 0.98121 0.48993 0.67555 0.0
H4809 H 0.99164 0.51291 0.68674 0.0
H4810 H 0.98489 0.52843 0.65918 0.0
H4811 H 0.99819 0.51683 0.63147 0.0
H4812 H 0.29643 0.22726 0.46841 0.0
H4813 H 0.29674 0.23897 0.43847 0.0
H4814 H 0.24735 0.2011 0.41682 0.0
H4815 H 0.24698 0.18897 0.44679 0.0
H4816 H 0.29259 0.21019 0.40008 0.0
H4817 H 0.24564 0.25732 0.40634 0.0
H4818 H 0.25777 0.25239 0.42698 0.0
H4819 H 0.24009 0.23504 0.41359 0.0
C4820 C 0.28539 0.22164 0.45748 0.0
C4821 C 0.27169 0.20711 0.46004 0.0
C4822 C 0.28568 0.2283 0.44033 0.0
C4823 C 0.27219 0.22076 0.42544 0.0
C4824 C 0.2579 0.20706 0.42821 0.0
H4825 H 0.25285 0.25431 0.31676 0.0
H4826 H 0.25115 0.24211 0.34629 0.0
C4827 C 0.25763 0.20028 0.44541 0.0
C4828 C 0.27365 0.22668 0.40677 0.0
H4829 H 0.25956 0.25526 0.37884 0.0
C4830 C 0.2853 0.21994 0.39525 0.0
C4831 C 0.26408 0.23929 0.40062 0.0
C4832 C 0.25118 0.24656 0.41245 0.0
C4833 C 0.28738 0.22521 0.37744 0.0
C4834 C 0.27816 0.23834 0.37138 0.0
C4835 C 0.26665 0.24518 0.38321 0.0
C4836 C 0.27949 0.24469 0.35262 0.0
C4837 C 0.29898 0.21605 0.36525 0.0
C4838 C 0.29591 0.25018 0.3459 0.0
C4839 C 0.29668 0.25581 0.32815 0.0
C4840 C 0.28114 0.25701 0.31731 0.0
C4841 C 0.26493 0.25272 0.32452 0.0
C4842 C 0.26403 0.24605 0.34161 0.0
H4843 H 0.29998 0.20241 0.36904 0.0
H4844 H 0.29388 0.21403 0.35004 0.0
H4845 H 0.31257 0.22475 0.36755 0.0
H4846 H 0.30818 0.2504 0.35441 0.0
H4847 H 0.30943 0.2599 0.32322 0.0
H4848 H 0.29171 0.56616 0.53931 0.0
H4849 H 0.31848 0.55397 0.53752 0.0
H4850 H 0.35052 0.60897 0.55323 0.0
H4851 H 0.32374 0.62128 0.55494 0.0
H4852 H 0.34069 0.57717 0.50935 0.0
H4853 H 0.37582 0.56645 0.5766 0.0
H4854 H 0.35197 0.56316 0.57285 0.0
H4855 H 0.36545 0.58593 0.57613 0.0
C4856 C 0.30448 0.57551 0.54343 0.0
C4857 C 0.3059 0.5946 0.54689 0.0
C4858 C 0.31969 0.56854 0.54237 0.0
C4859 C 0.33625 0.58067 0.54524 0.0
C4860 C 0.33773 0.59952 0.55115 0.0
H4861 H 0.4345 0.5729 0.5016 0.0
H4862 H 0.41219 0.58217 0.52087 0.0
C4863 C 0.32251 0.60651 0.55199 0.0
C4864 C 0.35105 0.57449 0.53737 0.0
H4865 H 0.38927 0.56069 0.54861 0.0
C4866 C 0.35132 0.57349 0.51785 0.0
C4867 C 0.36478 0.57009 0.54875 0.0
C4868 C 0.36465 0.57138 0.56979 0.0
C4869 C 0.36514 0.56794 0.50925 0.0
C4870 C 0.37874 0.56307 0.52054 0.0
C4871 C 0.37863 0.56434 0.54013 0.0
C4872 C 0.39304 0.55651 0.5118 0.0
C4873 C 0.36518 0.56736 0.4882 0.0
C4874 C 0.38949 0.53899 0.50078 0.0
C4875 C 0.40201 0.53384 0.48976 0.0
C4876 C 0.41809 0.5462 0.48972 0.0
C4877 C 0.42198 0.56339 0.5014 0.0
C4878 C 0.40944 0.56855 0.51246 0.0
H4879 H 0.35535 0.57456 0.48216 0.0
H4880 H 0.3785 0.57376 0.48496 0.0
H4881 H 0.36193 0.5528 0.48108 0.0
H4882 H 0.37679 0.52965 0.50017 0.0
H4883 H 0.39902 0.52042 0.48092 0.0
H4884 H 0.84567 0.89909 0.54726 0.0
H4885 H 0.87549 0.91712 0.54699 0.0
H4886 H 0.85557 0.94527 0.50417 0.0
H4887 H 0.82554 0.92771 0.50484 0.0
H4888 H 0.89689 0.92047 0.51965 0.0
H4889 H 0.88085 0.98798 0.54395 0.0
H4890 H 0.86586 0.9664 0.54447 0.0
H4891 H 0.86725 0.9757 0.52279 0.0
C4892 C 0.84765 0.909 0.53765 0.0
C4893 C 0.83327 0.91206 0.52611 0.0
C4894 C 0.86469 0.91934 0.53757 0.0
C4895 C 0.86768 0.93282 0.52587 0.0
C4896 C 0.85347 0.93531 0.51371 0.0
H4897 H 0.95817 0.00825 0.5013 0.0
H4898 H 0.92907 0.98936 0.5029 0.0
C4899 C 0.83636 0.92514 0.51396 0.0
C4900 C 0.88567 0.94425 0.52644 0.0
H4901 H 0.90908 0.98872 0.53346 0.0
C4902 C 0.8996 0.93539 0.52277 0.0
C4903 C 0.88917 0.96371 0.53069 0.0
C4904 C 0.87503 0.97401 0.53589 0.0
C4905 C 0.91684 0.9455 0.52266 0.0
C4906 C 0.92023 0.96495 0.52654 0.0
C4907 C 0.90638 0.9738 0.53043 0.0
C4908 C 0.93792 0.97648 0.526 0.0
C4909 C 0.93118 0.93532 0.5179 0.0
C4910 C 0.95247 0.97568 0.53869 0.0
C4911 C 0.96916 0.98656 0.53788 0.0
C4912 C 0.97146 0.99853 0.52451 0.0
C4913 C 0.95677 0.99946 0.51203 0.0
C4914 C 0.94016 0.98857 0.51282 0.0
H4915 H 0.92562 0.92081 0.51121 0.0
H4916 H 0.9396 0.94226 0.50823 0.0
H4917 H 0.93975 0.93521 0.53106 0.0
H4918 H 0.95093 0.96665 0.54919 0.0
H4919 H 0.98025 0.98551 0.54763 0.0
H4920 H 0.89636 0.05895 0.23248 0.0
H4921 H 0.88104 0.08373 0.22683 0.0
H4922 H 0.85077 0.07303 0.27284 0.0
H4923 H 0.86577 0.04846 0.27861 0.0
H4924 H 0.83592 0.08337 0.22816 0.0
H4925 H 0.88914 0.12904 0.28073 0.0
H4926 H 0.89295 0.10921 0.26565 0.0
H4927 H 0.88075 0.10615 0.28537 0.0
C4928 C 0.88609 0.06155 0.24104 0.0
C4929 C 0.88243 0.05191 0.25614 0.0
C4930 C 0.87739 0.07567 0.23778 0.0
C4931 C 0.86489 0.08008 0.24948 0.0
C4932 C 0.86036 0.06967 0.26366 0.0
H4933 H 0.80725 0.15017 0.29629 0.0
H4934 H 0.81797 0.12437 0.27997 0.0
C4935 C 0.86903 0.0557 0.26697 0.0
C4936 C 0.85807 0.09691 0.2489 0.0
H4937 H 0.86275 0.13962 0.27455 0.0
C4938 C 0.84197 0.09592 0.23785 0.0
C4939 C 0.86605 0.11309 0.26169 0.0
C4940 C 0.88324 0.1146 0.27401 0.0
C4941 C 0.83309 0.11049 0.24019 0.0
C4942 C 0.84057 0.12612 0.25387 0.0
C4943 C 0.85718 0.12755 0.26399 0.0
C4944 C 0.83057 0.14007 0.26002 0.0
C4945 C 0.8154 0.10881 0.22885 0.0
C4946 C 0.83385 0.15716 0.2538 0.0
C4947 C 0.82765 0.17182 0.263 0.0
C4948 C 0.81851 0.16957 0.27875 0.0
C4949 C 0.81446 0.15218 0.2843 0.0
C4950 C 0.82039 0.13748 0.2749 0.0
H4951 H 0.81253 0.09703 0.21703 0.0
H4952 H 0.80484 0.10681 0.23823 0.0
H4953 H 0.81499 0.1217 0.22305 0.0
H4954 H 0.84195 0.15938 0.24251 0.0
H4955 H 0.83085 0.18517 0.25854 0.0
H4956 H 0.70782 0.09816 0.00555 0.0
H4957 H 0.67591 0.0884 0.00216 0.0
H4958 H 0.67891 0.06969 0.05611 0.0
H4959 H 0.71138 0.07964 0.0599 0.0
H4960 H 0.65782 0.04458 0.01831 0.0
H4961 H 0.64265 0.11351 0.03897 0.0
H4962 H 0.66082 0.11248 0.02527 0.0
H4963 H 0.66237 0.1071 0.04878 0.0
C4964 C 0.7018 0.09207 0.01681 0.0
C4965 C 0.71199 0.08977 0.03311 0.0
C4966 C 0.68362 0.08656 0.01481 0.0
C4967 C 0.67543 0.07871 0.02902 0.0
C4968 C 0.68536 0.07597 0.04518 0.0
H4969 H 0.57013 0.05488 0.04538 0.0
H4970 H 0.60023 0.07015 0.04291 0.0
C4971 C 0.70373 0.08155 0.04726 0.0
C4972 C 0.65637 0.07285 0.02621 0.0
H4973 H 0.61905 0.08976 0.02342 0.0
C4974 C 0.64915 0.05426 0.01964 0.0
C4975 C 0.64561 0.08585 0.02778 0.0
C4976 C 0.65316 0.10588 0.03569 0.0
C4977 C 0.63095 0.04804 0.0149 0.0
C4978 C 0.62004 0.06114 0.01609 0.0
C4979 C 0.62753 0.07988 0.02219 0.0
C4980 C 0.60083 0.05538 0.01489 0.0
C4981 C 0.62373 0.02753 0.0095 0.0
C4982 C 0.59098 0.04278 -0.00044 0.0
C4983 C 0.57413 0.0333 0.0015 0.0
C4984 C 0.56677 0.03759 0.0181 0.0
C4985 C 0.57578 0.05168 0.03242 0.0
C4986 C 0.59284 0.06047 0.03091 0.0
H4987 H 0.63375 0.01945 0.01306 0.0
H4988 H 0.61202 0.02298 0.01678 0.0
H4989 H 0.61972 0.02413 0.99402 0.0
H4990 H 0.59685 0.03914 0.98689 0.0
H4991 H 0.5674 0.02191 0.99069 0.0
H4992 H 0.2035 0.50162 0.27381 0.0
H4993 H 0.21007 0.47135 0.27492 0.0
H4994 H 0.22018 0.46712 0.21672 0.0
H4995 H 0.21311 0.49749 0.21533 0.0
H4996 H 0.19172 0.43561 0.24268 0.0
H4997 H 0.26503 0.46119 0.25755 0.0
H4998 H 0.25 0.4757 0.26436 0.0
H4999 H 0.25243 0.46992 0.23991 0.0
C5000 C 0.2077 0.49451 0.26146 0.0
C5001 C 0.20833 0.50185 0.2446 0.0
C5002 C 0.21101 0.47715 0.26199 0.0
C5003 C 0.21524 0.46723 0.24579 0.0
C5004 C 0.21664 0.47476 0.22917 0.0
H5005 H 0.26303 0.37717 0.26237 0.0
H5006 H 0.24702 0.39409 0.24299 0.0
C5007 C 0.21301 0.49207 0.22851 0.0
C5008 C 0.21926 0.44937 0.24695 0.0
H5009 H 0.25358 0.43052 0.26031 0.0
C5010 C 0.20523 0.43417 0.24604 0.0
C5011 C 0.23686 0.44805 0.25158 0.0
C5012 C 0.25204 0.46453 0.25349 0.0
C5013 C 0.20848 0.4175 0.25043 0.0
C5014 C 0.22609 0.4164 0.25581 0.0
C5015 C 0.2401 0.43142 0.2558 0.0
C5016 C 0.23053 0.40108 0.26428 0.0
C5017 C 0.19316 0.40152 0.25003 0.0
C5018 C 0.22597 0.39899 0.28236 0.0
C5019 C 0.2351 0.38935 0.29352 0.0
C5020 C 0.24888 0.38186 0.28665 0.0
C5021 C 0.25239 0.38276 0.26797 0.0
C5022 C 0.24319 0.39225 0.25681 0.0
H5023 H 0.18149 0.40262 0.24046 0.0
H5024 H 0.1969 0.38821 0.24543 0.0
H5025 H 0.18924 0.40149 0.26446 0.0
H5026 H 0.21644 0.40609 0.28842 0.0
H5027 H 0.23198 0.38848 0.30776 0.0
H5028 H 0.25069 0.44124 0.02268 0.0
H5029 H 0.22378 0.45298 0.01809 0.0
H5030 H 0.19278 0.40215 0.0294 0.0
H5031 H 0.21988 0.39007 0.03384 0.0
H5032 H 0.1915 0.43451 0.99096 0.0
H5033 H 0.18052 0.44669 0.06662 0.0
H5034 H 0.20194 0.4451 0.0595 0.0
H5035 H 0.18483 0.42472 0.05708 0.0
C5036 C 0.23817 0.43251 0.02423 0.0
C5037 C 0.23741 0.41475 0.02871 0.0
C5038 C 0.22281 0.43926 0.02157 0.0
C5039 C 0.20636 0.42853 0.02361 0.0
C5040 C 0.20542 0.4107 0.02794 0.0
H5041 H 0.10196 0.45329 0.0047 0.0
H5042 H 0.12682 0.4403 0.01614 0.0
C5043 C 0.22085 0.40379 0.03037 0.0
C5044 C 0.1903 0.43615 0.02084 0.0
H5045 H 0.16046 0.45516 0.04454 0.0
C5046 C 0.18463 0.43893 0.00264 0.0
C5047 C 0.18147 0.44194 0.03615 0.0
C5048 C 0.18746 0.43961 0.05601 0.0
C5049 C 0.17038 0.44744 -0.00068 0.0
C5050 C 0.16177 0.45364 0.01467 0.0
C5051 C 0.16719 0.45053 0.03285 0.0
C5052 C 0.14699 0.46318 0.01175 0.0
C5053 C 0.16456 0.44973 0.97937 0.0
C5054 C 0.15015 0.48072 0.00639 0.0
C5055 C 0.13598 0.48821 6e-05 0.0
C5056 C 0.1185 0.47828 -0.00091 0.0
C5057 C 0.11534 0.46133 0.00571 0.0
C5058 C 0.12951 0.45387 0.01212 0.0
H5059 H 0.17028 0.44115 0.96877 0.0
H5060 H 0.1499 0.44598 0.97628 0.0
H5061 H 0.16895 0.46436 0.97774 0.0
H5062 H 0.16357 0.48811 0.00604 0.0
H5063 H 0.13872 0.50112 0.99465 0.0
H5064 H 0.86561 0.97048 0.28148 0.0
H5065 H 0.84814 0.93915 0.27482 0.0
H5066 H 0.87961 0.92577 0.23071 0.0
H5067 H 0.89761 0.95734 0.23756 0.0
H5068 H 0.82785 0.91847 0.24296 0.0
H5069 H 0.88423 0.8873 0.2648 0.0
H5070 H 0.88548 0.9118 0.26929 0.0
H5071 H 0.88724 0.90065 0.24602 0.0
C5072 C 0.86889 0.96096 0.27031 0.0
C5073 C 0.88323 0.96641 0.26024 0.0
C5074 C 0.85879 0.94303 0.26647 0.0
C5075 C 0.86274 0.93002 0.25251 0.0
C5076 C 0.87655 0.93551 0.24182 0.0
H5077 H 0.8155 0.81144 0.23329 0.0
H5078 H 0.83233 0.84177 0.2295 0.0
C5079 C 0.88674 0.95358 0.24565 0.0
C5080 C 0.85259 0.91069 0.24988 0.0
H5081 H 0.85636 0.86732 0.2563 0.0
C5082 C 0.8341 0.90724 0.24566 0.0
C5083 C 0.86077 0.89606 0.2535 0.0
C5084 C 0.8805 0.89906 0.25881 0.0
C5085 C 0.82354 0.88967 0.24534 0.0
C5086 C 0.83167 0.8752 0.24954 0.0
C5087 C 0.85019 0.87845 0.25308 0.0
C5088 C 0.82115 0.85689 0.25141 0.0
C5089 C 0.80374 0.88681 0.24068 0.0
C5090 C 0.80949 0.85534 0.26515 0.0
C5091 C 0.79987 0.83812 0.26731 0.0
C5092 C 0.80178 0.82204 0.25584 0.0
C5093 C 0.81364 0.82358 0.24224 0.0
C5094 C 0.82326 0.84087 0.24006 0.0
H5095 H 0.80015 0.8973 0.23247 0.0
H5096 H 0.79799 0.8729 0.23248 0.0
H5097 H 0.79763 0.88811 0.254 0.0
H5098 H 0.80804 0.86746 0.27444 0.0
H5099 H 0.79118 0.8374 0.27824 0.0
H5100 H 0.68306 0.0712 0.72626 0.0
H5101 H 0.69863 0.10199 0.72276 0.0
H5102 H 0.70237 0.11944 0.7829 0.0
H5103 H 0.68702 0.08867 0.78666 0.0
H5104 H 0.69093 0.13811 0.73535 0.0
H5105 H 0.75443 0.12748 0.7694 0.0
H5106 H 0.73606 0.10866 0.7596 0.0
H5107 H 0.736 0.1218 0.78244 0.0
C5108 C 0.68686 0.0817 0.73869 0.0
C5109 C 0.68398 0.07759 0.75678 0.0
C5110 C 0.6958 0.09917 0.73664 0.0
C5111 C 0.7018 0.1126 0.75263 0.0
C5112 C 0.69802 0.10893 0.77052 0.0
H5113 H 0.75341 0.22351 0.78567 0.0
H5114 H 0.73623 0.19204 0.7822 0.0
C5115 C 0.68921 0.09147 0.77261 0.0
C5116 C 0.71258 0.13039 0.7509 0.0
H5117 H 0.75291 0.15836 0.76644 0.0
C5118 C 0.70455 0.14254 0.74188 0.0
C5119 C 0.73037 0.13576 0.75926 0.0
C5120 C 0.73981 0.12269 0.76807 0.0
C5121 C 0.71371 0.16056 0.742 0.0
C5122 C 0.73111 0.16614 0.75131 0.0
C5123 C 0.73941 0.1538 0.75956 0.0
C5124 C 0.74086 0.18501 0.75319 0.0
C5125 C 0.70468 0.17373 0.73287 0.0
C5126 C 0.74931 0.19094 0.7382 0.0
C5127 C 0.75917 0.2088 0.74033 0.0
C5128 C 0.76033 0.22092 0.75728 0.0
C5129 C 0.75213 0.21472 0.77235 0.0
C5130 C 0.74246 0.19676 0.77039 0.0
H5131 H 0.6907 0.16741 0.7271 0.0
H5132 H 0.70499 0.18618 0.74333 0.0
H5133 H 0.71194 0.17829 0.72119 0.0
H5134 H 0.74833 0.18176 0.72495 0.0
H5135 H 0.76557 0.21309 0.72863 0.0
loop_
_geom_bond_atom_site_label_1
_geom_bond_atom_site_label_2
_geom_bond_distance
_geom_bond_site_symmetry_2
_ccdc_geom_bond_type
Mg0 O1 2.028 . S
Mg0 O7 1.986 . S
Mg0 O9 2.114 . S
Mg0 O10 2.251 . S
Mg0 O13 2.010 . S
O1 Mg0 2.028 . S
O1 C4 1.250 . S
O2 Mg3 2.028 . S
O2 C4 1.248 . S
Mg3 O2 2.028 . S
Mg3 O8 2.032 . S
Mg3 O10 2.079 . S
C4 O1 1.250 . S
C4 O2 1.248 . S
C5 O6 1.264 . S
C5 O13 1.249 . S
O6 C5 1.264 . S
O7 Mg0 1.986 . S
O7 C11 1.246 . S
O8 Mg3 2.032 . S
O8 C11 1.259 . S
O9 Mg0 2.114 . S
O9 C12 1.252 . S
O10 Mg0 2.251 . S
O10 Mg3 2.079 . S
O10 C12 1.273 . S
C11 O7 1.246 . S
C11 O8 1.259 . S
C12 O9 1.252 . S
C12 O10 1.273 . S
O13 Mg0 2.010 . S
O13 C5 1.249 . S
Mg14 O15 2.028 . S
Mg14 O21 1.986 . S
Mg14 O23 2.139 . S
Mg14 O24 2.251 1_455 S
Mg14 O27 2.010 . S
O15 Mg14 2.028 . S
O15 C18 1.250 . S
O16 Mg17 2.028 . S
O16 C18 1.248 1_655 S
Mg17 O16 2.028 . S
Mg17 O22 2.032 . S
Mg17 O24 2.079 . S
C18 O15 1.250 . S
C18 O16 1.248 1_455 S
C19 O20 1.264 . S
C19 O27 1.249 . S
O20 C19 1.264 . S
O21 Mg14 1.986 . S
O21 C25 1.246 . S
O22 Mg17 2.032 . S
O22 C25 1.259 1_655 S
O23 Mg14 2.139 . S
O23 C26 1.212 1_455 S
O24 Mg14 2.251 1_655 S
O24 Mg17 2.079 . S
O24 C26 1.273 . S
C25 O21 1.246 . S
C25 O22 1.259 1_455 S
C26 O23 1.212 1_655 S
C26 O24 1.273 . S
O27 Mg14 2.010 . S
O27 C19 1.249 . S
Mg28 O29 2.028 . S
Mg28 O35 1.986 . S
Mg28 O37 2.114 . S
Mg28 O38 2.251 . S
Mg28 O41 2.010 . S
O29 Mg28 2.028 . S
O29 C32 1.250 . S
O30 Mg31 2.028 . S
O30 C32 1.248 . S
Mg31 O30 2.028 . S
Mg31 O36 2.032 . S
Mg31 O38 2.079 . S
C32 O29 1.250 . S
C32 O30 1.248 . S
C33 O34 1.264 . S
C33 O41 1.249 . S
O34 C33 1.264 . S
O35 Mg28 1.986 . S
O35 C39 1.246 . S
O36 Mg31 2.032 . S
O36 C39 1.259 . S
O37 Mg28 2.114 . S
O37 C40 1.252 . S
O38 Mg28 2.251 . S
O38 Mg31 2.079 . S
O38 C40 1.273 . S
C39 O35 1.246 . S
C39 O36 1.259 . S
C40 O37 1.252 . S
C40 O38 1.273 . S
O41 Mg28 2.010 . S
O41 C33 1.249 . S
Mg42 O43 2.028 . S
Mg42 O49 1.986 . S
Mg42 O51 2.114 . S
Mg42 O52 2.251 . S
Mg42 O55 2.010 . S
O43 Mg42 2.028 . S
O43 C46 1.250 . S
O44 Mg45 2.028 . S
O44 C46 1.248 . S
Mg45 O44 2.028 . S
Mg45 O50 2.032 . S
Mg45 O52 2.079 . S
C46 O43 1.250 . S
C46 O44 1.248 . S
C47 O48 1.264 . S
C47 O55 1.249 . S
O48 C47 1.264 . S
O49 Mg42 1.986 . S
O49 C53 1.246 . S
O50 Mg45 2.032 . S
O50 C53 1.259 . S
O51 Mg42 2.114 . S
O51 C54 1.252 . S
O52 Mg42 2.251 . S
O52 Mg45 2.079 . S
O52 C54 1.273 . S
C53 O49 1.246 . S
C53 O50 1.259 . S
C54 O51 1.252 . S
C54 O52 1.273 . S
O55 Mg42 2.010 . S
O55 C47 1.249 . S
Mg56 O57 2.028 . S
Mg56 O63 1.986 . S
Mg56 O65 2.114 . S
Mg56 O66 2.251 . S
Mg56 O69 2.010 . S
O57 Mg56 2.028 . S
O57 C60 1.250 . S
O58 Mg59 2.028 . S
O58 C60 1.248 . S
Mg59 O58 2.028 . S
Mg59 O64 2.032 . S
Mg59 O66 2.079 . S
C60 O57 1.250 . S
C60 O58 1.248 . S
C61 O62 1.264 . S
C61 O69 1.249 . S
O62 C61 1.264 . S
O63 Mg56 1.986 . S
O63 C67 1.246 . S
O64 Mg59 2.032 . S
O64 C67 1.259 . S
O65 Mg56 2.114 . S
O65 C68 1.252 . S
O66 Mg56 2.251 . S
O66 Mg59 2.079 . S
O66 C68 1.273 . S
C67 O63 1.246 . S
C67 O64 1.259 . S
C68 O65 1.252 . S
C68 O66 1.273 . S
O69 Mg56 2.010 . S
O69 C61 1.249 . S
Mg70 O71 2.028 . S
Mg70 O77 1.986 . S
Mg70 O79 2.114 . S
Mg70 O80 2.251 . S
Mg70 O83 2.010 . S
O71 Mg70 2.028 . S
O71 C74 1.250 . S
O72 Mg73 2.028 . S
O72 C74 1.248 . S
Mg73 O72 2.028 . S
Mg73 O78 2.032 . S
Mg73 O80 2.079 . S
C74 O71 1.250 . S
C74 O72 1.248 . S
C75 O76 1.264 . S
C75 O83 1.249 . S
O76 C75 1.264 . S
O77 Mg70 1.986 . S
O77 C81 1.246 . S
O78 Mg73 2.032 . S
O78 C81 1.259 . S
O79 Mg70 2.114 . S
O79 C82 1.252 . S
O80 Mg70 2.251 . S
O80 Mg73 2.079 . S
O80 C82 1.273 . S
C81 O77 1.246 . S
C81 O78 1.259 . S
C82 O79 1.252 . S
C82 O80 1.273 . S
O83 Mg70 2.010 . S
O83 C75 1.249 . S
Mg84 O85 2.028 . S
Mg84 O91 1.986 . S
Mg84 O93 2.114 . S
Mg84 O94 2.251 . S
Mg84 O97 2.010 . S
O85 Mg84 2.028 . S
O85 C88 1.250 . S
O86 Mg87 2.028 . S
O86 C88 1.248 . S
Mg87 O86 2.028 . S
Mg87 O92 2.032 . S
Mg87 O94 2.079 . S
C88 O85 1.250 . S
C88 O86 1.248 . S
C89 O90 1.264 . S
C89 O97 1.249 . S
O90 C89 1.264 . S
O91 Mg84 1.986 . S
O91 C95 1.246 . S
O92 Mg87 2.032 . S
O92 C95 1.259 . S
O93 Mg84 2.114 . S
O93 C96 1.252 . S
O94 Mg84 2.251 . S
O94 Mg87 2.079 . S
O94 C96 1.273 . S
C95 O91 1.246 . S
C95 O92 1.259 . S
C96 O93 1.252 . S
C96 O94 1.273 . S
O97 Mg84 2.010 . S
O97 C89 1.249 . S
Mg98 O99 2.028 1_655 S
Mg98 O105 1.986 1_655 S
Mg98 O107 2.114 . S
Mg98 O108 2.251 . S
Mg98 O111 2.010 1_655 S
O99 Mg98 2.028 1_455 S
O99 C102 1.235 1_455 S
O100 Mg101 2.028 . S
O100 C102 1.269 . S
Mg101 O100 2.028 . S
Mg101 O106 2.032 . S
Mg101 O108 2.079 . S
C102 O99 1.235 1_655 S
C102 O100 1.269 . S
C103 O104 1.264 . S
C103 O111 1.249 . S
O104 C103 1.264 . S
O105 Mg98 1.986 1_455 S
O105 C109 1.246 1_455 S
O106 Mg101 2.032 . S
O106 C109 1.259 . S
O107 Mg98 2.114 . S
O107 C110 1.252 . S
O108 Mg98 2.251 . S
O108 Mg101 2.079 . S
O108 C110 1.273 . S
C109 O105 1.246 1_655 S
C109 O106 1.259 . S
C110 O107 1.252 . S
C110 O108 1.273 . S
O111 Mg98 2.010 1_455 S
O111 C103 1.249 . S
Mg112 O113 2.028 1_545 S
Mg112 O119 1.986 . S
Mg112 O121 2.114 . S
Mg112 O122 2.251 . S
Mg112 O125 2.010 . S
O113 Mg112 2.028 1_565 S
O113 C116 1.250 . S
O114 Mg115 2.028 1_565 S
O114 C116 1.248 . S
Mg115 O114 2.028 1_545 S
Mg115 O120 2.032 . S
Mg115 O122 2.079 . S
C116 O113 1.250 . S
C116 O114 1.248 . S
C117 O118 1.264 . S
C117 O125 1.249 . S
O118 C117 1.264 . S
O119 Mg112 1.986 . S
O119 C123 1.246 . S
O120 Mg115 2.032 . S
O120 C123 1.259 . S
O121 Mg112 2.114 . S
O121 C124 1.252 . S
O122 Mg112 2.251 . S
O122 Mg115 2.079 . S
O122 C124 1.273 . S
C123 O119 1.246 . S
C123 O120 1.259 . S
C124 O121 1.252 . S
C124 O122 1.273 . S
O125 Mg112 2.010 . S
O125 C117 1.249 . S
Mg126 O127 2.028 . S
Mg126 O133 1.986 . S
Mg126 O135 2.114 . S
Mg126 O136 2.251 . S
Mg126 O139 2.010 . S
O127 Mg126 2.028 . S
O127 C130 1.250 . S
O128 Mg129 2.028 . S
O128 C130 1.248 . S
Mg129 O128 2.028 . S
Mg129 O134 2.032 . S
Mg129 O136 2.079 . S
C130 O127 1.250 . S
C130 O128 1.248 . S
C131 O132 1.264 . S
C131 O139 1.249 . S
O132 C131 1.264 . S
O133 Mg126 1.986 . S
O133 C137 1.246 . S
O134 Mg129 2.032 . S
O134 C137 1.259 . S
O135 Mg126 2.114 . S
O135 C138 1.252 . S
O136 Mg126 2.251 . S
O136 Mg129 2.079 . S
O136 C138 1.273 . S
C137 O133 1.246 . S
C137 O134 1.259 . S
C138 O135 1.252 . S
C138 O136 1.273 . S
O139 Mg126 2.010 . S
O139 C131 1.249 . S
Mg140 O141 2.028 . S
Mg140 O147 1.986 . S
Mg140 O149 2.114 . S
Mg140 O150 2.251 . S
Mg140 O153 2.010 . S
O141 Mg140 2.028 . S
O141 C144 1.250 . S
O142 Mg143 2.028 . S
O142 C144 1.248 . S
Mg143 O142 2.028 . S
Mg143 O148 2.032 . S
Mg143 O150 2.079 . S
C144 O141 1.250 . S
C144 O142 1.248 . S
C145 O146 1.264 . S
C145 O153 1.249 . S
O146 C145 1.264 . S
O147 Mg140 1.986 . S
O147 C151 1.246 . S
O148 Mg143 2.032 . S
O148 C151 1.259 . S
O149 Mg140 2.114 . S
O149 C152 1.252 . S
O150 Mg140 2.251 . S
O150 Mg143 2.079 . S
O150 C152 1.273 . S
C151 O147 1.246 . S
C151 O148 1.259 . S
C152 O149 1.252 . S
C152 O150 1.273 . S
O153 Mg140 2.010 . S
O153 C145 1.249 . S
Mg154 O155 2.028 1_554 S
Mg154 O161 1.986 . S
Mg154 O163 2.114 1_554 S
Mg154 O164 2.251 . S
Mg154 O167 2.010 . S
O155 Mg154 2.028 1_556 S
O155 C158 1.250 . S
O156 Mg157 2.028 1_556 S
O156 C158 1.248 . S
Mg157 O156 2.028 1_554 S
Mg157 O162 2.032 . S
Mg157 O164 2.079 . S
C158 O155 1.250 . S
C158 O156 1.248 . S
C159 O160 1.264 . S
C159 O167 1.249 . S
O160 C159 1.264 . S
O161 Mg154 1.986 . S
O161 C165 1.246 . S
O162 Mg157 2.032 . S
O162 C165 1.259 . S
O163 Mg154 2.114 1_556 S
O163 C166 1.252 1_556 S
O164 Mg154 2.251 . S
O164 Mg157 2.079 . S
O164 C166 1.273 . S
C165 O161 1.246 . S
C165 O162 1.259 . S
C166 O163 1.252 1_554 S
C166 O164 1.273 . S
O167 Mg154 2.010 . S
O167 C159 1.249 . S
Mg168 O169 2.028 . S
Mg168 O175 1.986 . S
Mg168 O177 2.114 . S
Mg168 O178 2.251 . S
Mg168 O181 2.010 . S
O169 Mg168 2.028 . S
O169 C172 1.250 . S
O170 Mg171 2.028 . S
O170 C172 1.248 . S
Mg171 O170 2.028 . S
Mg171 O176 2.032 . S
Mg171 O178 2.079 . S
C172 O169 1.250 . S
C172 O170 1.248 . S
C173 O174 1.264 . S
C173 O181 1.249 . S
O174 C173 1.264 . S
O175 Mg168 1.986 . S
O175 C179 1.246 . S
O176 Mg171 2.032 . S
O176 C179 1.259 . S
O177 Mg168 2.114 . S
O177 C180 1.252 . S
O178 Mg168 2.251 . S
O178 Mg171 2.079 . S
O178 C180 1.273 . S
C179 O175 1.246 . S
C179 O176 1.259 . S
C180 O177 1.252 . S
C180 O178 1.273 . S
O181 Mg168 2.010 . S
O181 C173 1.249 . S
Mg182 O183 2.028 . S
Mg182 O189 1.986 . S
Mg182 O191 2.114 . S
Mg182 O192 2.251 . S
Mg182 O195 2.010 . S
O183 Mg182 2.028 . S
O183 C186 1.250 . S
O184 Mg185 2.028 . S
O184 C186 1.248 . S
Mg185 O184 2.028 . S
Mg185 O190 2.032 . S
Mg185 O192 2.079 . S
C186 O183 1.250 . S
C186 O184 1.248 . S
C187 O188 1.264 . S
C187 O195 1.249 . S
O188 C187 1.264 . S
O189 Mg182 1.986 . S
O189 C193 1.246 . S
O190 Mg185 2.032 . S
O190 C193 1.259 . S
O191 Mg182 2.114 . S
O191 C194 1.252 . S
O192 Mg182 2.251 . S
O192 Mg185 2.079 . S
O192 C194 1.273 . S
C193 O189 1.246 . S
C193 O190 1.259 . S
C194 O191 1.252 . S
C194 O192 1.273 . S
O195 Mg182 2.010 . S
O195 C187 1.249 . S
Mg196 O197 2.028 . S
Mg196 O203 1.986 . S
Mg196 O205 2.114 . S
Mg196 O206 2.251 . S
Mg196 O209 2.010 . S
O197 Mg196 2.028 . S
O197 C200 1.250 . S
O198 Mg199 2.028 . S
O198 C200 1.248 . S
Mg199 O198 2.028 . S
Mg199 O204 2.032 . S
Mg199 O206 2.079 . S
C200 O197 1.250 . S
C200 O198 1.248 . S
C201 O202 1.264 . S
C201 O209 1.249 . S
O202 C201 1.264 . S
O203 Mg196 1.986 . S
O203 C207 1.246 . S
O204 Mg199 2.032 . S
O204 C207 1.259 . S
O205 Mg196 2.114 . S
O205 C208 1.252 . S
O206 Mg196 2.251 . S
O206 Mg199 2.079 . S
O206 C208 1.273 . S
C207 O203 1.246 . S
C207 O204 1.259 . S
C208 O205 1.252 . S
C208 O206 1.273 . S
O209 Mg196 2.010 . S
O209 C201 1.249 . S
Mg210 O211 2.028 . S
Mg210 O217 1.986 . S
Mg210 O219 2.114 . S
Mg210 O220 2.251 . S
Mg210 O223 2.010 . S
O211 Mg210 2.028 . S
O211 C214 1.250 . S
O212 Mg213 2.028 . S
O212 C214 1.248 . S
Mg213 O212 2.028 . S
Mg213 O218 2.032 . S
Mg213 O220 2.079 . S
C214 O211 1.250 . S
C214 O212 1.248 . S
C215 O216 1.264 . S
C215 O223 1.249 . S
O216 C215 1.264 . S
O217 Mg210 1.986 . S
O217 C221 1.246 . S
O218 Mg213 2.032 . S
O218 C221 1.259 . S
O219 Mg210 2.114 . S
O219 C222 1.252 . S
O220 Mg210 2.251 . S
O220 Mg213 2.079 . S
O220 C222 1.273 . S
C221 O217 1.246 . S
C221 O218 1.259 . S
C222 O219 1.252 . S
C222 O220 1.273 . S
O223 Mg210 2.010 . S
O223 C215 1.249 . S
Mg224 O225 2.028 1_545 S
Mg224 O231 1.986 . S
Mg224 O233 2.114 . S
Mg224 O234 2.251 . S
Mg224 O237 2.010 . S
O225 Mg224 2.028 1_565 S
O225 C228 1.250 . S
O226 Mg227 2.028 1_565 S
O226 C228 1.248 . S
Mg227 O226 2.028 1_545 S
Mg227 O232 2.032 . S
Mg227 O234 2.079 . S
C228 O225 1.250 . S
C228 O226 1.248 . S
C229 O230 1.264 . S
C229 O237 1.249 . S
O230 C229 1.264 . S
O231 Mg224 1.986 . S
O231 C235 1.246 . S
O232 Mg227 2.032 . S
O232 C235 1.259 . S
O233 Mg224 2.114 . S
O233 C236 1.252 . S
O234 Mg224 2.251 . S
O234 Mg227 2.079 . S
O234 C236 1.273 . S
C235 O231 1.246 . S
C235 O232 1.259 . S
C236 O233 1.252 . S
C236 O234 1.273 . S
O237 Mg224 2.010 . S
O237 C229 1.249 . S
Mg238 O239 2.028 . S
Mg238 O245 1.986 . S
Mg238 O247 2.114 . S
Mg238 O248 2.251 . S
Mg238 O251 2.010 . S
O239 Mg238 2.028 . S
O239 C242 1.250 . S
O240 Mg241 2.028 . S
O240 C242 1.248 . S
Mg241 O240 2.028 . S
Mg241 O246 2.032 . S
Mg241 O248 2.079 . S
C242 O239 1.250 . S
C242 O240 1.248 . S
C243 O244 1.264 . S
C243 O251 1.249 . S
O244 C243 1.264 . S
O245 Mg238 1.986 . S
O245 C249 1.246 . S
O246 Mg241 2.032 . S
O246 C249 1.259 . S
O247 Mg238 2.114 . S
O247 C250 1.252 . S
O248 Mg238 2.251 . S
O248 Mg241 2.079 . S
O248 C250 1.273 . S
C249 O245 1.246 . S
C249 O246 1.259 . S
C250 O247 1.252 . S
C250 O248 1.273 . S
O251 Mg238 2.010 . S
O251 C243 1.249 . S
Mg252 O253 2.028 . S
Mg252 O259 1.986 . S
Mg252 O261 2.114 . S
Mg252 O262 2.251 . S
Mg252 O265 2.010 . S
O253 Mg252 2.028 . S
O253 C256 1.250 . S
O254 Mg255 2.028 . S
O254 C256 1.248 . S
Mg255 O254 2.028 . S
Mg255 O260 2.032 . S
Mg255 O262 2.079 . S
C256 O253 1.250 . S
C256 O254 1.248 . S
C257 O258 1.264 . S
C257 O265 1.249 . S
O258 C257 1.264 . S
O259 Mg252 1.986 . S
O259 C263 1.246 . S
O260 Mg255 2.032 . S
O260 C263 1.259 . S
O261 Mg252 2.114 . S
O261 C264 1.252 . S
O262 Mg252 2.251 . S
O262 Mg255 2.079 . S
O262 C264 1.273 . S
C263 O259 1.246 . S
C263 O260 1.259 . S
C264 O261 1.252 . S
C264 O262 1.273 . S
O265 Mg252 2.010 . S
O265 C257 1.249 . S
Mg266 O267 2.028 . S
Mg266 O273 1.986 . S
Mg266 O275 2.114 . S
Mg266 O276 2.251 . S
Mg266 O279 2.010 . S
O267 Mg266 2.028 . S
O267 C270 1.250 . S
O268 Mg269 2.028 . S
O268 C270 1.248 . S
Mg269 O268 2.028 . S
Mg269 O274 2.032 . S
Mg269 O276 2.079 . S
C270 O267 1.250 . S
C270 O268 1.248 . S
C271 O272 1.264 . S
C271 O279 1.249 . S
O272 C271 1.264 . S
O273 Mg266 1.986 . S
O273 C277 1.246 . S
O274 Mg269 2.032 . S
O274 C277 1.259 . S
O275 Mg266 2.114 . S
O275 C278 1.252 . S
O276 Mg266 2.251 . S
O276 Mg269 2.079 . S
O276 C278 1.273 . S
C277 O273 1.246 . S
C277 O274 1.259 . S
C278 O275 1.252 . S
C278 O276 1.273 . S
O279 Mg266 2.010 . S
O279 C271 1.249 . S
Mg280 O281 2.028 1_556 S
Mg280 O287 1.986 . S
Mg280 O289 2.114 1_556 S
Mg280 O290 2.251 . S
Mg280 O293 2.010 . S
O281 Mg280 2.028 1_554 S
O281 C284 1.250 . S
O282 Mg283 2.028 . S
O282 C284 1.248 . S
Mg283 O282 2.028 . S
Mg283 O288 2.032 1_554 S
Mg283 O290 2.079 1_554 S
C284 O281 1.250 . S
C284 O282 1.248 . S
C285 O286 1.264 . S
C285 O293 1.249 . S
O286 C285 1.264 . S
O287 Mg280 1.986 . S
O287 C291 1.246 . S
O288 Mg283 2.032 1_556 S
O288 C291 1.259 . S
O289 Mg280 2.114 1_554 S
O289 C292 1.252 . S
O290 Mg280 2.251 . S
O290 Mg283 2.079 1_556 S
O290 C292 1.273 1_556 S
C291 O287 1.246 . S
C291 O288 1.259 . S
C292 O289 1.252 . S
C292 O290 1.273 1_554 S
O293 Mg280 2.010 . S
O293 C285 1.249 . S
Mg294 O295 2.028 . S
Mg294 O301 1.986 . S
Mg294 O303 2.114 . S
Mg294 O304 2.251 . S
Mg294 O307 2.010 . S
O295 Mg294 2.028 . S
O295 C298 1.250 . S
O296 Mg297 2.028 . S
O296 C298 1.248 . S
Mg297 O296 2.028 . S
Mg297 O302 2.032 . S
Mg297 O304 2.079 . S
C298 O295 1.250 . S
C298 O296 1.248 . S
C299 O300 1.264 . S
C299 O307 1.249 . S
O300 C299 1.264 . S
O301 Mg294 1.986 . S
O301 C305 1.246 . S
O302 Mg297 2.032 . S
O302 C305 1.259 . S
O303 Mg294 2.114 . S
O303 C306 1.252 . S
O304 Mg294 2.251 . S
O304 Mg297 2.079 . S
O304 C306 1.273 . S
C305 O301 1.246 . S
C305 O302 1.259 . S
C306 O303 1.252 . S
C306 O304 1.273 . S
O307 Mg294 2.010 . S
O307 C299 1.249 . S
Mg308 O309 2.028 . S
Mg308 O315 1.986 . S
Mg308 O317 2.114 . S
Mg308 O318 2.251 . S
Mg308 O321 2.010 . S
O309 Mg308 2.028 . S
O309 C312 1.250 . S
O310 Mg311 2.028 . S
O310 C312 1.248 . S
Mg311 O310 2.028 . S
Mg311 O316 2.032 . S
Mg311 O318 2.079 . S
C312 O309 1.250 . S
C312 O310 1.248 . S
C313 O314 1.264 . S
C313 O321 1.249 . S
O314 C313 1.264 . S
O315 Mg308 1.986 . S
O315 C319 1.246 . S
O316 Mg311 2.032 . S
O316 C319 1.259 . S
O317 Mg308 2.114 . S
O317 C320 1.252 . S
O318 Mg308 2.251 . S
O318 Mg311 2.079 . S
O318 C320 1.273 . S
C319 O315 1.246 . S
C319 O316 1.259 . S
C320 O317 1.252 . S
C320 O318 1.273 . S
O321 Mg308 2.010 . S
O321 C313 1.249 . S
Mg322 O323 2.028 . S
Mg322 O329 1.986 . S
Mg322 O331 2.114 . S
Mg322 O332 2.251 . S
Mg322 O335 2.010 . S
O323 Mg322 2.028 . S
O323 C326 1.250 . S
O324 Mg325 2.028 . S
O324 C326 1.248 . S
Mg325 O324 2.028 . S
Mg325 O330 2.032 . S
Mg325 O332 2.079 . S
C326 O323 1.250 . S
C326 O324 1.248 . S
C327 O328 1.264 . S
C327 O335 1.249 . S
O328 C327 1.264 . S
O329 Mg322 1.986 . S
O329 C333 1.246 . S
O330 Mg325 2.032 . S
O330 C333 1.259 . S
O331 Mg322 2.114 . S
O331 C334 1.252 . S
O332 Mg322 2.251 . S
O332 Mg325 2.079 . S
O332 C334 1.273 . S
C333 O329 1.246 . S
C333 O330 1.259 . S
C334 O331 1.252 . S
C334 O332 1.273 . S
O335 Mg322 2.010 . S
O335 C327 1.249 . S
Eu336 N365 2.600 . S
Eu336 N371 2.562 . S
Eu336 O380 2.462 . S
Eu336 O381 2.373 . S
Eu336 O383 2.432 . S
Eu336 O384 2.291 1_554 S
Eu336 O388 2.335 1_545 S
Eu336 O391 2.372 . S
Eu336 C400 2.787 . S
C337 N338 1.365 . S
C337 C340 1.405 . S
C337 C344 1.448 . S
N338 C337 1.365 . S
N338 C341 1.319 . S
N338 Eu347 2.616 1_565 S
C339 C341 1.397 . S
C339 C342 1.367 . S
C339 H359 0.931 . S
C340 C337 1.405 . S
C340 C342 1.403 . S
C340 C346 1.439 . S
C341 N338 1.319 . S
C341 C339 1.397 . S
C341 H352 0.930 . S
C342 C339 1.367 . S
C342 C340 1.403 . S
C342 H363 0.929 . S
C343 C344 1.430 1_554 S
C343 C345 1.387 1_554 S
C343 C349 1.404 . S
C344 C337 1.448 . S
C344 C343 1.430 1_556 S
C344 N348 1.351 1_556 S
C345 C343 1.387 1_556 S
C345 C346 1.374 . S
C345 H360 0.931 . S
C346 C340 1.439 . S
C346 C345 1.374 . S
C346 H361 0.931 . S
Eu347 N338 2.616 1_545 S
Eu347 N348 2.551 1_546 S
Eu347 O382 2.337 1_656 S
Eu347 O385 2.393 1_655 S
Eu347 O386 2.453 1_556 S
Eu347 O387 2.367 1_646 S
Eu347 O389 2.447 . S
Eu347 O390 2.266 1_656 S
Eu347 C411 2.790 . S
N348 C344 1.351 1_554 S
N348 Eu347 2.551 1_564 S
N348 C350 1.325 . S
C349 C343 1.404 . S
C349 C351 1.366 . S
C349 H357 0.930 . S
C350 N348 1.325 . S
C350 C351 1.416 . S
C350 H356 0.929 . S
C351 C349 1.366 . S
C351 C350 1.416 . S
C351 H353 0.930 . S
H352 C341 0.930 . S
H353 C351 0.930 . S
H354 C369 0.930 . S
H355 C376 0.930 . S
H356 C350 0.929 . S
H357 C349 0.930 . S
H358 C372 0.929 1_556 S
H359 C339 0.931 . S
H360 C345 0.931 . S
H361 C346 0.931 . S
H362 C367 0.931 . S
H363 C342 0.929 . S
H364 C375 0.930 . S
N365 Eu336 2.600 . S
N365 C366 1.365 . S
N365 C369 1.319 . S
C366 N365 1.365 . S
C366 C368 1.405 . S
C366 C374 1.448 . S
C367 H362 0.931 . S
C367 C369 1.397 . S
C367 C370 1.367 . S
C368 C366 1.405 . S
C368 C370 1.403 . S
C368 C401 1.439 . S
C369 H354 0.930 . S
C369 N365 1.319 . S
C369 C367 1.397 . S
C370 C367 1.367 . S
C370 C368 1.403 . S
C370 H377 0.929 . S
N371 Eu336 2.562 . S
N371 C372 1.325 . S
N371 C374 1.351 . S
C372 H358 0.929 1_554 S
C372 N371 1.325 . S
C372 C376 1.416 1_554 S
C373 C374 1.430 . S
C373 C375 1.404 . S
C373 C402 1.387 . S
C374 C366 1.448 . S
C374 N371 1.351 . S
C374 C373 1.430 . S
C375 H364 0.930 . S
C375 C373 1.404 . S
C375 C376 1.366 1_554 S
C376 H355 0.930 . S
C376 C372 1.416 1_556 S
C376 C375 1.366 1_556 S
H377 C370 0.929 . S
H378 C401 0.931 . S
H379 C402 0.931 . S
O380 Eu336 2.462 . S
O380 C400 1.252 . S
O381 Eu336 2.373 . S
O381 C392 1.249 . S
O382 Eu347 2.337 1_454 S
O382 C392 1.264 . S
O383 Eu336 2.432 . S
O383 C400 1.268 . S
O384 Eu336 2.291 1_556 S
O384 C399 1.255 . S
O385 Eu347 2.393 1_455 S
O385 C399 1.257 . S
O386 Eu347 2.453 1_554 S
O386 C411 1.252 1_554 S
O387 Eu347 2.367 1_464 S
O387 C403 1.249 . S
O388 Eu336 2.335 1_565 S
O388 C403 1.264 . S
O389 Eu347 2.447 . S
O389 C411 1.268 . S
O390 Eu347 2.266 1_454 S
O390 C410 1.255 . S
O391 Eu336 2.372 . S
O391 C410 1.257 . S
C392 O381 1.249 . S
C392 O382 1.264 . S
C393 C396 1.382 . S
C393 C398 1.390 . S
C393 C400 1.506 . S
C394 C395 1.412 1_565 S
C394 C398 1.377 1_565 S
C395 C394 1.412 1_545 S
C395 C397 1.387 . S
C395 H412 0.910 1_545 S
C396 C393 1.382 . S
C396 C397 1.390 . S
C396 H413 0.931 . S
C397 C395 1.387 . S
C397 C396 1.390 . S
C397 H414 0.929 . S
C398 C393 1.390 . S
C398 C394 1.377 1_545 S
C398 H415 0.930 . S
C399 O384 1.255 . S
C399 O385 1.257 . S
C400 Eu336 2.787 . S
C400 O380 1.252 . S
C400 O383 1.268 . S
C400 C393 1.506 . S
C401 C368 1.439 . S
C401 H378 0.931 . S
C401 C402 1.374 . S
C402 C373 1.387 . S
C402 H379 0.931 . S
C402 C401 1.374 . S
C403 O387 1.249 . S
C403 O388 1.264 . S
C404 C407 1.382 . S
C404 C408 1.390 1_556 S
C404 C411 1.506 . S
C405 C406 1.340 1_554 S
C405 C408 1.402 . S
C406 C405 1.340 1_556 S
C406 C409 1.372 . S
C406 H416 0.931 . S
C407 C404 1.382 . S
C407 C409 1.390 . S
C407 H417 0.931 . S
C408 C404 1.390 1_554 S
C408 C405 1.402 . S
C408 H418 0.930 . S
C409 C406 1.372 . S
C409 C407 1.390 . S
C409 H419 0.929 . S
C410 O390 1.255 . S
C410 O391 1.257 . S
C411 Eu347 2.790 . S
C411 O386 1.252 1_556 S
C411 O389 1.268 . S
C411 C404 1.506 . S
H412 C395 0.910 1_565 S
H413 C396 0.931 . S
H414 C397 0.929 . S
H415 C398 0.930 . S
H416 C406 0.931 . S
H417 C407 0.931 . S
H418 C408 0.930 . S
H419 C409 0.929 . S
Eu420 N449 2.600 . S
Eu420 N455 2.562 . S
Eu420 O464 2.462 . S
Eu420 O465 2.373 . S
Eu420 O467 2.432 . S
Eu420 O468 2.291 . S
Eu420 O472 2.335 . S
Eu420 O475 2.372 . S
Eu420 C484 2.787 . S
C421 N422 1.365 . S
C421 C424 1.405 . S
C421 C428 1.448 . S
N422 C421 1.365 . S
N422 C425 1.319 . S
N422 Eu431 2.600 . S
C423 C425 1.397 . S
C423 C426 1.367 . S
C423 H443 0.931 . S
C424 C421 1.405 . S
C424 C426 1.403 . S
C424 C430 1.439 . S
C425 N422 1.319 . S
C425 C423 1.397 . S
C425 H436 0.930 . S
C426 C423 1.367 . S
C426 C424 1.403 . S
C426 H447 0.929 . S
C427 C428 1.430 . S
C427 C429 1.387 . S
C427 C433 1.404 . S
C428 C421 1.448 . S
C428 C427 1.430 . S
C428 N432 1.351 . S
C429 C427 1.387 . S
C429 C430 1.374 . S
C429 H444 0.931 . S
C430 C424 1.439 . S
C430 C429 1.374 . S
C430 H445 0.931 . S
Eu431 N422 2.600 . S
Eu431 N432 2.562 . S
Eu431 O466 2.335 . S
Eu431 O469 2.372 . S
Eu431 O470 2.462 . S
Eu431 O471 2.373 . S
Eu431 O473 2.432 . S
Eu431 O474 2.291 . S
Eu431 C495 2.787 . S
N432 C428 1.351 . S
N432 Eu431 2.562 . S
N432 C434 1.325 . S
C433 C427 1.404 . S
C433 C435 1.366 . S
C433 H441 0.930 . S
C434 N432 1.325 . S
C434 C435 1.416 . S
C434 H440 0.929 . S
C435 C433 1.366 . S
C435 C434 1.416 . S
C435 H437 0.930 . S
H436 C425 0.930 . S
H437 C435 0.930 . S
H438 C453 0.930 . S
H439 C460 0.930 . S
H440 C434 0.929 . S
H441 C433 0.930 . S
H442 C456 0.929 . S
H443 C423 0.931 . S
H444 C429 0.931 . S
H445 C430 0.931 . S
H446 C451 0.931 . S
H447 C426 0.929 . S
H448 C459 0.930 . S
N449 Eu420 2.600 . S
N449 C450 1.365 . S
N449 C453 1.319 . S
C450 N449 1.365 . S
C450 C452 1.405 . S
C450 C458 1.448 . S
C451 H446 0.931 . S
C451 C453 1.397 . S
C451 C454 1.367 . S
C452 C450 1.405 . S
C452 C454 1.403 . S
C452 C485 1.439 . S
C453 H438 0.930 . S
C453 N449 1.319 . S
C453 C451 1.397 . S
C454 C451 1.367 . S
C454 C452 1.403 . S
C454 H461 0.929 . S
N455 Eu420 2.562 . S
N455 C456 1.325 . S
N455 C458 1.351 . S
C456 H442 0.929 . S
C456 N455 1.325 . S
C456 C460 1.416 . S
C457 C458 1.430 . S
C457 C459 1.404 . S
C457 C486 1.387 . S
C458 C450 1.448 . S
C458 N455 1.351 . S
C458 C457 1.430 . S
C459 H448 0.930 . S
C459 C457 1.404 . S
C459 C460 1.366 . S
C460 H439 0.930 . S
C460 C456 1.416 . S
C460 C459 1.366 . S
H461 C454 0.929 . S
H462 C485 0.931 . S
H463 C486 0.931 . S
O464 Eu420 2.462 . S
O464 C484 1.252 . S
O465 Eu420 2.373 . S
O465 C476 1.249 . S
O466 Eu431 2.335 . S
O466 C476 1.264 . S
O467 Eu420 2.432 . S
O467 C484 1.268 . S
O468 Eu420 2.291 . S
O468 C483 1.255 . S
O469 Eu431 2.372 . S
O469 C483 1.257 . S
O470 Eu431 2.462 . S
O470 C495 1.252 . S
O471 Eu431 2.373 . S
O471 C487 1.249 . S
O472 Eu420 2.335 . S
O472 C487 1.264 . S
O473 Eu431 2.432 . S
O473 C495 1.268 . S
O474 Eu431 2.291 . S
O474 C494 1.255 . S
O475 Eu420 2.372 . S
O475 C494 1.257 . S
C476 O465 1.249 . S
C476 O466 1.264 . S
C477 C480 1.382 . S
C477 C482 1.390 . S
C477 C484 1.506 . S
C478 C479 1.398 . S
C478 C482 1.392 . S
C479 C478 1.398 . S
C479 C481 1.372 . S
C479 H496 0.931 . S
C480 C477 1.382 . S
C480 C481 1.390 . S
C480 H497 0.931 . S
C481 C479 1.372 . S
C481 C480 1.390 . S
C481 H498 0.929 . S
C482 C477 1.390 . S
C482 C478 1.392 . S
C482 H499 0.930 . S
C483 O468 1.255 . S
C483 O469 1.257 . S
C484 Eu420 2.787 . S
C484 O464 1.252 . S
C484 O467 1.268 . S
C484 C477 1.506 . S
C485 C452 1.439 . S
C485 H462 0.931 . S
C485 C486 1.374 . S
C486 C457 1.387 . S
C486 H463 0.931 . S
C486 C485 1.374 . S
C487 O471 1.249 . S
C487 O472 1.264 . S
C488 C491 1.382 . S
C488 C492 1.390 . S
C488 C495 1.506 . S
C489 C490 1.398 . S
C489 C492 1.392 . S
C490 C489 1.398 . S
C490 C493 1.372 . S
C490 H500 0.931 . S
C491 C488 1.382 . S
C491 C493 1.390 . S
C491 H501 0.931 . S
C492 C488 1.390 . S
C492 C489 1.392 . S
C492 H502 0.930 . S
C493 C490 1.372 . S
C493 C491 1.390 . S
C493 H503 0.929 . S
C494 O474 1.255 . S
C494 O475 1.257 . S
C495 Eu431 2.787 . S
C495 O470 1.252 . S
C495 O473 1.268 . S
C495 C488 1.506 . S
H496 C479 0.931 . S
H497 C480 0.931 . S
H498 C481 0.929 . S
H499 C482 0.930 . S
H500 C490 0.931 . S
H501 C491 0.931 . S
H502 C492 0.930 . S
H503 C493 0.929 . S
Eu504 N533 2.600 1_545 S
Eu504 N539 2.562 1_545 S
Eu504 O548 2.462 . S
Eu504 O549 2.373 1_545 S
Eu504 O551 2.432 . S
Eu504 O552 2.291 . S
Eu504 O556 2.335 . S
Eu504 O559 2.372 . S
Eu504 C568 2.787 . S
C505 N506 1.365 . S
C505 C508 1.405 . S
C505 C512 1.448 . S
N506 C505 1.365 . S
N506 C509 1.319 . S
N506 Eu515 2.600 . S
C507 C509 1.397 . S
C507 C510 1.367 . S
C507 H527 0.931 . S
C508 C505 1.405 . S
C508 C510 1.403 . S
C508 C514 1.439 . S
C509 N506 1.319 . S
C509 C507 1.397 . S
C509 H520 0.930 . S
C510 C507 1.367 . S
C510 C508 1.403 . S
C510 H531 0.929 . S
C511 C512 1.430 . S
C511 C513 1.387 . S
C511 C517 1.404 . S
C512 C505 1.448 . S
C512 C511 1.430 . S
C512 N516 1.351 . S
C513 C511 1.387 . S
C513 C514 1.374 . S
C513 H528 0.931 . S
C514 C508 1.439 . S
C514 C513 1.374 . S
C514 H529 0.931 . S
Eu515 N506 2.600 . S
Eu515 N516 2.562 . S
Eu515 O550 2.335 1_545 S
Eu515 O553 2.372 . S
Eu515 O554 2.462 . S
Eu515 O555 2.373 . S
Eu515 O557 2.432 . S
Eu515 O558 2.291 . S
Eu515 C579 2.787 . S
N516 C512 1.351 . S
N516 Eu515 2.562 . S
N516 C518 1.325 . S
C517 C511 1.404 . S
C517 C519 1.366 . S
C517 H525 0.930 . S
C518 N516 1.325 . S
C518 C519 1.416 . S
C518 H524 0.929 . S
C519 C517 1.366 . S
C519 C518 1.416 . S
C519 H521 0.930 . S
H520 C509 0.930 . S
H521 C519 0.930 . S
H522 C537 0.930 . S
H523 C544 0.930 . S
H524 C518 0.929 . S
H525 C517 0.930 . S
H526 C540 0.968 . S
H527 C507 0.931 . S
H528 C513 0.931 . S
H529 C514 0.931 . S
H530 C535 0.931 . S
H531 C510 0.929 . S
H532 C543 0.930 . S
N533 Eu504 2.600 1_565 S
N533 C534 1.365 . S
N533 C537 1.319 1_565 S
C534 N533 1.365 . S
C534 C536 1.405 . S
C534 C542 1.448 . S
C535 H530 0.931 . S
C535 C537 1.397 1_565 S
C535 C538 1.367 . S
C536 C534 1.405 . S
C536 C538 1.403 . S
C536 C569 1.439 . S
C537 H522 0.930 . S
C537 N533 1.319 1_545 S
C537 C535 1.397 1_545 S
C538 C535 1.367 . S
C538 C536 1.403 . S
C538 H545 0.929 . S
N539 Eu504 2.562 1_565 S
N539 C540 1.325 . S
N539 C542 1.351 . S
C540 H526 0.968 . S
C540 N539 1.325 . S
C540 C544 1.416 . S
C541 C542 1.430 . S
C541 C543 1.404 . S
C541 C570 1.387 . S
C542 C534 1.448 . S
C542 N539 1.351 . S
C542 C541 1.430 . S
C543 H532 0.930 . S
C543 C541 1.404 . S
C543 C544 1.366 . S
C544 H523 0.930 . S
C544 C540 1.416 . S
C544 C543 1.366 . S
H545 C538 0.929 . S
H546 C569 0.931 . S
H547 C570 0.931 . S
O548 Eu504 2.462 . S
O548 C568 1.252 . S
O549 Eu504 2.373 1_565 S
O549 C560 1.249 . S
O550 Eu515 2.335 1_565 S
O550 C560 1.264 . S
O551 Eu504 2.432 . S
O551 C568 1.268 . S
O552 Eu504 2.291 . S
O552 C567 1.255 . S
O553 Eu515 2.372 . S
O553 C567 1.257 . S
O554 Eu515 2.462 . S
O554 C579 1.252 . S
O555 Eu515 2.373 . S
O555 C571 1.249 . S
O556 Eu504 2.335 . S
O556 C571 1.264 . S
O557 Eu515 2.432 . S
O557 C579 1.268 . S
O558 Eu515 2.291 . S
O558 C578 1.255 . S
O559 Eu504 2.372 . S
O559 C578 1.257 . S
C560 O549 1.249 . S
C560 O550 1.264 . S
C561 C564 1.382 . S
C561 C566 1.390 . S
C561 C568 1.506 . S
C562 C563 1.398 . S
C562 C566 1.392 . S
C563 C562 1.398 . S
C563 C565 1.372 . S
C563 H580 0.931 . S
C564 C561 1.382 . S
C564 C565 1.390 . S
C564 H581 0.931 . S
C565 C563 1.372 . S
C565 C564 1.390 . S
C565 H582 0.929 . S
C566 C561 1.390 . S
C566 C562 1.392 . S
C566 H583 0.930 . S
C567 O552 1.255 . S
C567 O553 1.257 . S
C568 Eu504 2.787 . S
C568 O548 1.252 . S
C568 O551 1.268 . S
C568 C561 1.506 . S
C569 C536 1.439 . S
C569 H546 0.931 . S
C569 C570 1.374 . S
C570 C541 1.387 . S
C570 H547 0.931 . S
C570 C569 1.374 . S
C571 O555 1.249 . S
C571 O556 1.264 . S
C572 C575 1.382 . S
C572 C576 1.390 . S
C572 C579 1.506 1_565 S
C573 C574 1.398 . S
C573 C576 1.392 . S
C574 C573 1.398 . S
C574 C577 1.372 . S
C574 H584 0.931 . S
C575 C572 1.382 . S
C575 C577 1.390 . S
C575 H585 0.931 . S
C576 C572 1.390 . S
C576 C573 1.392 . S
C576 H586 0.930 . S
C577 C574 1.372 . S
C577 C575 1.390 . S
C577 H587 0.929 . S
C578 O558 1.255 . S
C578 O559 1.257 . S
C579 Eu515 2.787 . S
C579 O554 1.252 . S
C579 O557 1.268 . S
C579 C572 1.506 1_545 S
H580 C563 0.931 . S
H581 C564 0.931 . S
H582 C565 0.929 . S
H583 C566 0.930 . S
H584 C574 0.931 . S
H585 C575 0.931 . S
H586 C576 0.930 . S
H587 C577 0.929 . S
Eu588 N617 2.600 . S
Eu588 N623 2.562 . S
Eu588 O632 2.462 . S
Eu588 O633 2.373 . S
Eu588 O635 2.432 . S
Eu588 O636 2.291 . S
Eu588 O640 2.335 . S
Eu588 O643 2.372 . S
Eu588 C652 2.787 . S
C589 N590 1.365 . S
C589 C592 1.405 . S
C589 C596 1.448 . S
N590 C589 1.365 . S
N590 C593 1.319 . S
N590 Eu599 2.600 . S
C591 C593 1.397 . S
C591 C594 1.367 . S
C591 H611 0.931 . S
C592 C589 1.405 . S
C592 C594 1.403 . S
C592 C598 1.439 . S
C593 N590 1.319 . S
C593 C591 1.397 . S
C593 H604 0.930 . S
C594 C591 1.367 . S
C594 C592 1.403 . S
C594 H615 0.929 . S
C595 C596 1.430 . S
C595 C597 1.387 . S
C595 C601 1.404 . S
C596 C589 1.448 . S
C596 C595 1.430 . S
C596 N600 1.351 . S
C597 C595 1.387 . S
C597 C598 1.374 . S
C597 H612 0.931 . S
C598 C592 1.439 . S
C598 C597 1.374 . S
C598 H613 0.931 . S
Eu599 N590 2.600 . S
Eu599 N600 2.562 . S
Eu599 O634 2.335 . S
Eu599 O637 2.372 . S
Eu599 O638 2.462 . S
Eu599 O639 2.373 . S
Eu599 O641 2.432 . S
Eu599 O642 2.291 . S
Eu599 C663 2.787 . S
N600 C596 1.351 . S
N600 Eu599 2.562 . S
N600 C602 1.325 . S
C601 C595 1.404 . S
C601 C603 1.366 . S
C601 H609 0.930 . S
C602 N600 1.325 . S
C602 C603 1.416 . S
C602 H608 0.929 . S
C603 C601 1.366 . S
C603 C602 1.416 . S
C603 H605 0.930 . S
H604 C593 0.930 . S
H605 C603 0.930 . S
H606 C621 0.930 . S
H607 C628 0.930 . S
H608 C602 0.929 . S
H609 C601 0.930 . S
H610 C624 0.929 . S
H611 C591 0.931 . S
H612 C597 0.931 . S
H613 C598 0.931 . S
H614 C619 0.931 . S
H615 C594 0.929 . S
H616 C627 0.930 . S
N617 Eu588 2.600 . S
N617 C618 1.365 . S
N617 C621 1.319 . S
C618 N617 1.365 . S
C618 C620 1.405 . S
C618 C626 1.448 . S
C619 H614 0.931 . S
C619 C621 1.397 . S
C619 C622 1.367 . S
C620 C618 1.405 . S
C620 C622 1.403 . S
C620 C653 1.439 . S
C621 H606 0.930 . S
C621 N617 1.319 . S
C621 C619 1.397 . S
C622 C619 1.367 . S
C622 C620 1.403 . S
C622 H629 0.929 . S
N623 Eu588 2.562 . S
N623 C624 1.325 . S
N623 C626 1.351 . S
C624 H610 0.929 . S
C624 N623 1.325 . S
C624 C628 1.416 . S
C625 C626 1.430 . S
C625 C627 1.404 . S
C625 C654 1.387 . S
C626 C618 1.448 . S
C626 N623 1.351 . S
C626 C625 1.430 . S
C627 H616 0.930 . S
C627 C625 1.404 . S
C627 C628 1.366 . S
C628 H607 0.930 . S
C628 C624 1.416 . S
C628 C627 1.366 . S
H629 C622 0.929 . S
H630 C653 0.931 . S
H631 C654 0.931 . S
O632 Eu588 2.462 . S
O632 C652 1.252 . S
O633 Eu588 2.373 . S
O633 C644 1.249 . S
O634 Eu599 2.335 . S
O634 C644 1.264 . S
O635 Eu588 2.432 . S
O635 C652 1.268 . S
O636 Eu588 2.291 . S
O636 C651 1.255 . S
O637 Eu599 2.372 . S
O637 C651 1.257 . S
O638 Eu599 2.462 . S
O638 C663 1.252 . S
O639 Eu599 2.373 . S
O639 C655 1.249 . S
O640 Eu588 2.335 . S
O640 C655 1.264 . S
O641 Eu599 2.432 . S
O641 C663 1.268 . S
O642 Eu599 2.291 . S
O642 C662 1.255 . S
O643 Eu588 2.372 . S
O643 C662 1.257 . S
C644 O633 1.249 . S
C644 O634 1.264 . S
C645 C648 1.382 . S
C645 C650 1.390 . S
C645 C652 1.506 . S
C646 C647 1.398 . S
C646 C650 1.392 . S
C647 C646 1.398 . S
C647 C649 1.372 . S
C647 H664 0.931 . S
C648 C645 1.382 . S
C648 C649 1.390 . S
C648 H665 0.931 . S
C649 C647 1.372 . S
C649 C648 1.390 . S
C649 H666 0.929 . S
C650 C645 1.390 . S
C650 C646 1.392 . S
C650 H667 0.930 . S
C651 O636 1.255 . S
C651 O637 1.257 . S
C652 Eu588 2.787 . S
C652 O632 1.252 . S
C652 O635 1.268 . S
C652 C645 1.506 . S
C653 C620 1.439 . S
C653 H630 0.931 . S
C653 C654 1.374 . S
C654 C625 1.387 . S
C654 H631 0.931 . S
C654 C653 1.374 . S
C655 O639 1.249 . S
C655 O640 1.264 . S
C656 C659 1.382 . S
C656 C660 1.390 . S
C656 C663 1.506 . S
C657 C658 1.398 . S
C657 C660 1.392 . S
C658 C657 1.398 . S
C658 C661 1.372 . S
C658 H668 0.931 . S
C659 C656 1.382 . S
C659 C661 1.390 . S
C659 H669 0.931 . S
C660 C656 1.390 . S
C660 C657 1.392 . S
C660 H670 0.930 . S
C661 C658 1.372 . S
C661 C659 1.390 . S
C661 H671 0.929 . S
C662 O642 1.255 . S
C662 O643 1.257 . S
C663 Eu599 2.787 . S
C663 O638 1.252 . S
C663 O641 1.268 . S
C663 C656 1.506 . S
H664 C647 0.931 . S
H665 C648 0.931 . S
H666 C649 0.929 . S
H667 C650 0.930 . S
H668 C658 0.931 . S
H669 C659 0.931 . S
H670 C660 0.930 . S
H671 C661 0.929 . S
Eu672 N701 2.600 . S
Eu672 N707 2.562 . S
Eu672 O716 2.462 . S
Eu672 O717 2.373 1_565 S
Eu672 O719 2.432 . S
Eu672 O720 2.226 1_465 S
Eu672 O724 2.335 1_565 S
Eu672 O727 2.372 1_565 S
Eu672 C736 2.787 . S
C673 N674 1.365 . S
C673 C676 1.404 . S
C673 C680 1.449 1_655 S
N674 C673 1.365 . S
N674 C677 1.319 . S
N674 Eu683 2.600 1_655 S
C675 C677 1.397 . S
C675 C678 1.367 . S
C675 H695 0.931 . S
C676 C673 1.404 . S
C676 C678 1.403 . S
C676 C682 1.439 1_655 S
C677 N674 1.319 . S
C677 C675 1.397 . S
C677 H688 0.930 . S
C678 C675 1.367 . S
C678 C676 1.403 . S
C678 H699 0.929 . S
C679 C680 1.430 . S
C679 C681 1.387 . S
C679 C685 1.404 . S
C680 C673 1.449 1_455 S
C680 C679 1.430 . S
C680 N684 1.351 . S
C681 C679 1.387 . S
C681 C682 1.374 . S
C681 H696 0.931 . S
C682 C676 1.439 1_455 S
C682 C681 1.374 . S
C682 H697 0.931 1_455 S
Eu683 N674 2.600 1_455 S
Eu683 N684 2.562 . S
Eu683 O718 2.335 . S
Eu683 O721 2.372 1_455 S
Eu683 O722 2.462 . S
Eu683 O723 2.373 . S
Eu683 O725 2.432 1_455 S
Eu683 O726 2.291 . S
Eu683 C747 2.787 . S
N684 C680 1.351 . S
N684 Eu683 2.562 . S
N684 C686 1.325 . S
C685 C679 1.404 . S
C685 C687 1.366 . S
C685 H693 0.930 . S
C686 N684 1.325 . S
C686 C687 1.416 . S
C686 H692 0.929 . S
C687 C685 1.366 . S
C687 C686 1.416 . S
C687 H689 0.930 . S
H688 C677 0.930 . S
H689 C687 0.930 . S
H690 C705 0.908 1_545 S
H691 C712 0.930 . S
H692 C686 0.929 . S
H693 C685 0.930 . S
H694 C708 0.929 . S
H695 C675 0.931 . S
H696 C681 0.931 . S
H697 C682 0.931 1_655 S
H698 C703 0.931 . S
H699 C678 0.929 . S
H700 C711 0.930 . S
N701 Eu672 2.600 . S
N701 C702 1.365 . S
N701 C705 1.319 . S
C702 N701 1.365 . S
C702 C704 1.405 . S
C702 C710 1.448 . S
C703 H698 0.931 . S
C703 C705 1.397 . S
C703 C706 1.367 . S
C704 C702 1.405 . S
C704 C706 1.403 . S
C704 C737 1.439 . S
C705 H690 0.908 1_565 S
C705 N701 1.319 . S
C705 C703 1.397 . S
C706 C703 1.367 . S
C706 C704 1.403 . S
C706 H713 0.929 . S
N707 Eu672 2.562 . S
N707 C708 1.325 1_455 S
N707 C710 1.351 . S
C708 H694 0.929 . S
C708 N707 1.325 1_655 S
C708 C712 1.416 . S
C709 C710 1.430 . S
C709 C711 1.404 1_455 S
C709 C738 1.387 . S
C710 C702 1.448 . S
C710 N707 1.351 . S
C710 C709 1.430 . S
C711 H700 0.930 . S
C711 C709 1.404 1_655 S
C711 C712 1.366 . S
C712 H691 0.930 . S
C712 C708 1.416 . S
C712 C711 1.366 . S
H713 C706 0.929 . S
H714 C737 0.931 . S
H715 C738 0.931 . S
O716 Eu672 2.462 . S
O716 C736 1.252 . S
O717 Eu672 2.373 1_545 S
O717 C728 1.249 . S
O718 Eu683 2.335 . S
O718 C728 1.264 . S
O719 Eu672 2.432 . S
O719 C736 1.268 . S
O720 Eu672 2.226 1_645 S
O720 C735 1.326 . S
O721 Eu683 2.372 1_655 S
O721 C735 1.257 . S
O722 Eu683 2.462 . S
O722 C747 1.252 . S
O723 Eu683 2.373 . S
O723 C739 1.249 . S
O724 Eu672 2.335 1_545 S
O724 C739 1.264 . S
O725 Eu683 2.432 1_655 S
O725 C747 1.268 1_655 S
O726 Eu683 2.291 . S
O726 C746 1.255 . S
O727 Eu672 2.372 1_545 S
O727 C746 1.257 . S
C728 O717 1.249 . S
C728 O718 1.264 . S
C729 C732 1.382 . S
C729 C734 1.390 . S
C729 C736 1.506 . S
C730 C731 1.398 . S
C730 C734 1.392 . S
C731 C730 1.398 . S
C731 C733 1.372 . S
C731 H748 0.931 . S
C732 C729 1.382 . S
C732 C733 1.390 . S
C732 H749 0.931 . S
C733 C731 1.372 . S
C733 C732 1.390 . S
C733 H750 0.929 . S
C734 C729 1.390 . S
C734 C730 1.392 . S
C734 H751 0.930 . S
C735 O720 1.326 . S
C735 O721 1.257 . S
C736 Eu672 2.787 . S
C736 O716 1.252 . S
C736 O719 1.268 . S
C736 C729 1.506 . S
C737 C704 1.439 . S
C737 H714 0.931 . S
C737 C738 1.374 . S
C738 C709 1.387 . S
C738 H715 0.931 . S
C738 C737 1.374 . S
C739 O723 1.249 . S
C739 O724 1.264 . S
C740 C743 1.382 1_455 S
C740 C744 1.390 . S
C740 C747 1.506 . S
C741 C742 1.398 1_455 S
C741 C744 1.392 . S
C742 C741 1.398 1_655 S
C742 C745 1.372 . S
C742 H752 0.931 . S
C743 C740 1.382 1_655 S
C743 C745 1.390 . S
C743 H753 0.931 . S
C744 C740 1.390 . S
C744 C741 1.392 . S
C744 H754 0.930 . S
C745 C742 1.372 . S
C745 C743 1.390 . S
C745 H755 0.929 . S
C746 O726 1.255 . S
C746 O727 1.257 . S
C747 Eu683 2.787 . S
C747 O722 1.252 . S
C747 O725 1.268 1_455 S
C747 C740 1.506 . S
H748 C731 0.931 . S
H749 C732 0.931 . S
H750 C733 0.929 . S
H751 C734 0.930 . S
H752 C742 0.931 . S
H753 C743 0.931 . S
H754 C744 0.930 . S
H755 C745 0.929 . S
Eu756 N785 2.600 . S
Eu756 N791 2.562 . S
Eu756 O800 2.462 . S
Eu756 O801 2.373 . S
Eu756 O803 2.432 . S
Eu756 O804 2.291 . S
Eu756 O808 2.335 . S
Eu756 O811 2.372 . S
Eu756 C820 2.787 . S
C757 N758 1.365 . S
C757 C760 1.405 . S
C757 C764 1.448 . S
N758 C757 1.365 . S
N758 C761 1.319 . S
N758 Eu767 2.600 . S
C759 C761 1.397 . S
C759 C762 1.367 . S
C759 H779 0.931 . S
C760 C757 1.405 . S
C760 C762 1.403 . S
C760 C766 1.439 . S
C761 N758 1.319 . S
C761 C759 1.397 . S
C761 H772 0.930 . S
C762 C759 1.367 . S
C762 C760 1.403 . S
C762 H783 0.929 . S
C763 C764 1.430 . S
C763 C765 1.387 . S
C763 C769 1.404 . S
C764 C757 1.448 . S
C764 C763 1.430 . S
C764 N768 1.351 . S
C765 C763 1.387 . S
C765 C766 1.374 . S
C765 H780 0.931 . S
C766 C760 1.439 . S
C766 C765 1.374 . S
C766 H781 0.931 . S
Eu767 N758 2.600 . S
Eu767 N768 2.562 . S
Eu767 O802 2.335 . S
Eu767 O805 2.372 . S
Eu767 O806 2.462 . S
Eu767 O807 2.373 . S
Eu767 O809 2.432 . S
Eu767 O810 2.291 . S
Eu767 C831 2.787 . S
N768 C764 1.351 . S
N768 Eu767 2.562 . S
N768 C770 1.325 . S
C769 C763 1.404 . S
C769 C771 1.366 . S
C769 H777 0.930 . S
C770 N768 1.325 . S
C770 C771 1.416 . S
C770 H776 0.929 . S
C771 C769 1.366 . S
C771 C770 1.416 . S
C771 H773 0.930 . S
H772 C761 0.930 . S
H773 C771 0.930 . S
H774 C789 0.930 . S
H775 C796 0.930 . S
H776 C770 0.929 . S
H777 C769 0.930 . S
H778 C792 0.929 . S
H779 C759 0.931 . S
H780 C765 0.931 . S
H781 C766 0.931 . S
H782 C787 0.931 . S
H783 C762 0.929 . S
H784 C795 0.930 . S
N785 Eu756 2.600 . S
N785 C786 1.365 . S
N785 C789 1.319 . S
C786 N785 1.365 . S
C786 C788 1.405 . S
C786 C794 1.448 . S
C787 H782 0.931 . S
C787 C789 1.397 . S
C787 C790 1.367 . S
C788 C786 1.405 . S
C788 C790 1.403 . S
C788 C821 1.439 . S
C789 H774 0.930 . S
C789 N785 1.319 . S
C789 C787 1.397 . S
C790 C787 1.367 . S
C790 C788 1.403 . S
C790 H797 0.929 . S
N791 Eu756 2.562 . S
N791 C792 1.325 . S
N791 C794 1.351 . S
C792 H778 0.929 . S
C792 N791 1.325 . S
C792 C796 1.416 . S
C793 C794 1.430 . S
C793 C795 1.404 . S
C793 C822 1.387 . S
C794 C786 1.448 . S
C794 N791 1.351 . S
C794 C793 1.430 . S
C795 H784 0.930 . S
C795 C793 1.404 . S
C795 C796 1.366 . S
C796 H775 0.930 . S
C796 C792 1.416 . S
C796 C795 1.366 . S
H797 C790 0.929 . S
H798 C821 0.931 . S
H799 C822 0.931 . S
O800 Eu756 2.462 . S
O800 C820 1.252 . S
O801 Eu756 2.373 . S
O801 C812 1.249 . S
O802 Eu767 2.335 . S
O802 C812 1.264 . S
O803 Eu756 2.432 . S
O803 C820 1.268 . S
O804 Eu756 2.291 . S
O804 C819 1.255 . S
O805 Eu767 2.372 . S
O805 C819 1.257 . S
O806 Eu767 2.462 . S
O806 C831 1.252 . S
O807 Eu767 2.373 . S
O807 C823 1.249 . S
O808 Eu756 2.335 . S
O808 C823 1.264 . S
O809 Eu767 2.432 . S
O809 C831 1.268 . S
O810 Eu767 2.291 . S
O810 C830 1.255 . S
O811 Eu756 2.372 . S
O811 C830 1.257 . S
C812 O801 1.249 . S
C812 O802 1.264 . S
C813 C816 1.382 . S
C813 C818 1.390 . S
C813 C820 1.506 . S
C814 C815 1.398 . S
C814 C818 1.392 . S
C815 C814 1.398 . S
C815 C817 1.372 . S
C815 H832 0.931 . S
C816 C813 1.382 . S
C816 C817 1.390 . S
C816 H833 0.931 . S
C817 C815 1.372 . S
C817 C816 1.390 . S
C817 H834 0.929 . S
C818 C813 1.390 . S
C818 C814 1.392 . S
C818 H835 0.930 . S
C819 O804 1.255 . S
C819 O805 1.257 . S
C820 Eu756 2.787 . S
C820 O800 1.252 . S
C820 O803 1.268 . S
C820 C813 1.506 . S
C821 C788 1.439 . S
C821 H798 0.931 . S
C821 C822 1.374 . S
C822 C793 1.387 . S
C822 H799 0.931 . S
C822 C821 1.374 . S
C823 O807 1.249 . S
C823 O808 1.264 . S
C824 C827 1.382 . S
C824 C828 1.390 . S
C824 C831 1.506 . S
C825 C826 1.398 . S
C825 C828 1.392 . S
C826 C825 1.398 . S
C826 C829 1.372 . S
C826 H836 0.931 . S
C827 C824 1.382 . S
C827 C829 1.390 . S
C827 H837 0.931 . S
C828 C824 1.390 . S
C828 C825 1.392 . S
C828 H838 0.930 . S
C829 C826 1.372 . S
C829 C827 1.390 . S
C829 H839 0.929 . S
C830 O810 1.255 . S
C830 O811 1.257 . S
C831 Eu767 2.787 . S
C831 O806 1.252 . S
C831 O809 1.268 . S
C831 C824 1.506 . S
H832 C815 0.931 . S
H833 C816 0.931 . S
H834 C817 0.929 . S
H835 C818 0.930 . S
H836 C826 0.931 . S
H837 C827 0.931 . S
H838 C828 0.930 . S
H839 C829 0.929 . S
Eu840 N869 2.600 . S
Eu840 N875 2.562 . S
Eu840 O884 2.462 . S
Eu840 O885 2.373 1_556 S
Eu840 O887 2.432 . S
Eu840 O888 2.291 . S
Eu840 O892 2.335 1_556 S
Eu840 O895 2.372 1_556 S
Eu840 C904 2.787 . S
C841 N842 1.365 . S
C841 C844 1.405 . S
C841 C848 1.448 1_565 S
N842 C841 1.365 . S
N842 C845 1.319 . S
N842 Eu851 2.600 1_565 S
C843 C845 1.397 . S
C843 C846 1.367 . S
C843 H863 0.931 . S
C844 C841 1.405 . S
C844 C846 1.403 . S
C844 C850 1.439 . S
C845 N842 1.319 . S
C845 C843 1.397 . S
C845 H856 0.930 . S
C846 C843 1.367 . S
C846 C844 1.403 . S
C846 H867 0.929 . S
C847 C848 1.430 . S
C847 C849 1.387 . S
C847 C853 1.404 . S
C848 C841 1.448 1_545 S
C848 C847 1.430 . S
C848 N852 1.351 . S
C849 C847 1.387 . S
C849 C850 1.374 1_545 S
C849 H864 0.931 . S
C850 C844 1.439 . S
C850 C849 1.374 1_565 S
C850 H865 0.931 . S
Eu851 N842 2.600 1_545 S
Eu851 N852 2.562 . S
Eu851 O886 2.335 . S
Eu851 O889 2.372 1_545 S
Eu851 O890 2.462 . S
Eu851 O891 2.373 . S
Eu851 O893 2.432 1_545 S
Eu851 O894 2.291 . S
Eu851 C915 2.787 1_545 S
N852 C848 1.351 . S
N852 Eu851 2.562 . S
N852 C854 1.325 . S
C853 C847 1.404 . S
C853 C855 1.366 . S
C853 H861 0.930 . S
C854 N852 1.325 . S
C854 C855 1.416 . S
C854 H860 0.929 . S
C855 C853 1.366 . S
C855 C854 1.416 . S
C855 H857 0.930 . S
H856 C845 0.930 . S
H857 C855 0.930 . S
H858 C873 0.943 . S
H859 C880 0.930 . S
H860 C854 0.929 . S
H861 C853 0.930 . S
H862 C876 0.923 1_565 S
H863 C843 0.931 . S
H864 C849 0.931 . S
H865 C850 0.931 . S
H866 C871 0.931 . S
H867 C846 0.929 . S
H868 C879 0.937 . S
N869 Eu840 2.600 . S
N869 C870 1.365 . S
N869 C873 1.319 . S
C870 N869 1.365 . S
C870 C872 1.405 . S
C870 C878 1.448 . S
C871 H866 0.931 . S
C871 C873 1.397 . S
C871 C874 1.367 . S
C872 C870 1.405 . S
C872 C874 1.403 . S
C872 C905 1.439 . S
C873 H858 0.943 . S
C873 N869 1.319 . S
C873 C871 1.397 . S
C874 C871 1.367 . S
C874 C872 1.403 . S
C874 H881 0.929 . S
N875 Eu840 2.562 . S
N875 C876 1.333 . S
N875 C878 1.351 . S
C876 H862 0.923 1_545 S
C876 N875 1.333 . S
C876 C880 1.413 1_545 S
C877 C878 1.430 . S
C877 C879 1.381 1_545 S
C877 C906 1.387 . S
C878 C870 1.448 . S
C878 N875 1.351 . S
C878 C877 1.430 . S
C879 H868 0.937 . S
C879 C877 1.381 1_565 S
C879 C880 1.384 . S
C880 H859 0.930 . S
C880 C876 1.413 1_565 S
C880 C879 1.384 . S
H881 C874 0.929 . S
H882 C905 0.931 . S
H883 C906 0.931 . S
O884 Eu840 2.462 . S
O884 C904 1.252 . S
O885 Eu840 2.373 1_554 S
O885 C896 1.249 . S
O886 Eu851 2.335 . S
O886 C896 1.264 . S
O887 Eu840 2.432 . S
O887 C904 1.268 . S
O888 Eu840 2.291 . S
O888 C903 1.259 1_545 S
O889 Eu851 2.372 1_565 S
O889 C903 1.247 1_554 S
O890 Eu851 2.462 . S
O890 C915 1.252 1_545 S
O891 Eu851 2.373 . S
O891 C907 1.249 . S
O892 Eu840 2.335 1_554 S
O892 C907 1.264 . S
O893 Eu851 2.432 1_565 S
O893 C915 1.268 . S
O894 Eu851 2.291 . S
O894 C914 1.255 . S
O895 Eu840 2.372 1_554 S
O895 C914 1.257 . S
C896 O885 1.249 . S
C896 O886 1.264 . S
C897 C900 1.382 . S
C897 C902 1.390 . S
C897 C904 1.506 . S
C898 C899 1.398 . S
C898 C902 1.392 . S
C899 C898 1.398 . S
C899 C901 1.372 . S
C899 H916 0.931 . S
C900 C897 1.382 . S
C900 C901 1.390 . S
C900 H917 0.931 . S
C901 C899 1.372 . S
C901 C900 1.390 . S
C901 H918 0.929 . S
C902 C897 1.390 . S
C902 C898 1.392 . S
C902 H919 0.930 . S
C903 O888 1.259 1_565 S
C903 O889 1.247 1_556 S
C904 Eu840 2.787 . S
C904 O884 1.252 . S
C904 O887 1.268 . S
C904 C897 1.506 . S
C905 C872 1.439 . S
C905 H882 0.931 . S
C905 C906 1.374 . S
C906 C877 1.387 . S
C906 H883 0.931 . S
C906 C905 1.374 . S
C907 O891 1.249 . S
C907 O892 1.264 . S
C908 C911 1.382 . S
C908 C912 1.390 1_565 S
C908 C915 1.506 . S
C909 C910 1.341 1_545 S
C909 C912 1.409 . S
C910 C909 1.341 1_565 S
C910 C913 1.372 . S
C910 H920 0.931 . S
C911 C908 1.382 . S
C911 C913 1.390 . S
C911 H921 0.931 . S
C912 C908 1.390 1_545 S
C912 C909 1.409 . S
C912 H922 0.930 . S
C913 C910 1.372 . S
C913 C911 1.390 . S
C913 H923 0.929 . S
C914 O894 1.255 . S
C914 O895 1.257 . S
C915 Eu851 2.787 1_565 S
C915 O890 1.252 1_565 S
C915 O893 1.268 . S
C915 C908 1.506 . S
H916 C899 0.931 . S
H917 C900 0.931 . S
H918 C901 0.929 . S
H919 C902 0.930 . S
H920 C910 0.931 . S
H921 C911 0.931 . S
H922 C912 0.930 . S
H923 C913 0.929 . S
Eu924 N953 2.600 . S
Eu924 N959 2.562 . S
Eu924 O968 2.462 . S
Eu924 O969 2.373 . S
Eu924 O971 2.432 . S
Eu924 O972 2.291 . S
Eu924 O976 2.335 . S
Eu924 O979 2.372 . S
Eu924 C988 2.787 . S
C925 N926 1.365 . S
C925 C928 1.405 . S
C925 C932 1.448 . S
N926 C925 1.365 . S
N926 C929 1.319 . S
N926 Eu935 2.600 . S
C927 C929 1.397 . S
C927 C930 1.367 . S
C927 H947 0.931 . S
C928 C925 1.405 . S
C928 C930 1.403 . S
C928 C934 1.439 . S
C929 N926 1.319 . S
C929 C927 1.397 . S
C929 H940 0.930 . S
C930 C927 1.367 . S
C930 C928 1.403 . S
C930 H951 0.929 . S
C931 C932 1.430 . S
C931 C933 1.387 . S
C931 C937 1.404 . S
C932 C925 1.448 . S
C932 C931 1.430 . S
C932 N936 1.351 . S
C933 C931 1.387 . S
C933 C934 1.374 . S
C933 H948 0.931 . S
C934 C928 1.439 . S
C934 C933 1.374 . S
C934 H949 0.931 . S
Eu935 N926 2.600 . S
Eu935 N936 2.562 . S
Eu935 O970 2.335 . S
Eu935 O973 2.372 . S
Eu935 O974 2.462 . S
Eu935 O975 2.373 . S
Eu935 O977 2.432 . S
Eu935 O978 2.291 . S
Eu935 C999 2.787 . S
N936 C932 1.351 . S
N936 Eu935 2.562 . S
N936 C938 1.325 . S
C937 C931 1.404 . S
C937 C939 1.366 . S
C937 H945 0.930 . S
C938 N936 1.325 . S
C938 C939 1.416 . S
C938 H944 0.929 . S
C939 C937 1.366 . S
C939 C938 1.416 . S
C939 H941 0.930 . S
H940 C929 0.930 . S
H941 C939 0.930 . S
H942 C957 0.930 . S
H943 C964 0.930 . S
H944 C938 0.929 . S
H945 C937 0.930 . S
H946 C960 0.929 . S
H947 C927 0.931 . S
H948 C933 0.931 . S
H949 C934 0.931 . S
H950 C955 0.931 . S
H951 C930 0.929 . S
H952 C963 0.930 . S
N953 Eu924 2.600 . S
N953 C954 1.365 . S
N953 C957 1.319 . S
C954 N953 1.365 . S
C954 C956 1.405 . S
C954 C962 1.448 . S
C955 H950 0.931 . S
C955 C957 1.397 . S
C955 C958 1.367 . S
C956 C954 1.405 . S
C956 C958 1.403 . S
C956 C989 1.439 . S
C957 H942 0.930 . S
C957 N953 1.319 . S
C957 C955 1.397 . S
C958 C955 1.367 . S
C958 C956 1.403 . S
C958 H965 0.929 . S
N959 Eu924 2.562 . S
N959 C960 1.325 . S
N959 C962 1.351 . S
C960 H946 0.929 . S
C960 N959 1.325 . S
C960 C964 1.416 . S
C961 C962 1.430 . S
C961 C963 1.404 . S
C961 C990 1.387 . S
C962 C954 1.448 . S
C962 N959 1.351 . S
C962 C961 1.430 . S
C963 H952 0.930 . S
C963 C961 1.404 . S
C963 C964 1.366 . S
C964 H943 0.930 . S
C964 C960 1.416 . S
C964 C963 1.366 . S
H965 C958 0.929 . S
H966 C989 0.931 . S
H967 C990 0.931 . S
O968 Eu924 2.462 . S
O968 C988 1.252 . S
O969 Eu924 2.373 . S
O969 C980 1.249 . S
O970 Eu935 2.335 . S
O970 C980 1.264 . S
O971 Eu924 2.432 . S
O971 C988 1.268 . S
O972 Eu924 2.291 . S
O972 C987 1.255 . S
O973 Eu935 2.372 . S
O973 C987 1.257 . S
O974 Eu935 2.462 . S
O974 C999 1.252 . S
O975 Eu935 2.373 . S
O975 C991 1.249 . S
O976 Eu924 2.335 . S
O976 C991 1.264 . S
O977 Eu935 2.432 . S
O977 C999 1.268 . S
O978 Eu935 2.291 . S
O978 C998 1.255 . S
O979 Eu924 2.372 . S
O979 C998 1.257 . S
C980 O969 1.249 . S
C980 O970 1.264 . S
C981 C984 1.382 . S
C981 C986 1.390 . S
C981 C988 1.506 . S
C982 C983 1.398 . S
C982 C986 1.392 . S
C983 C982 1.398 . S
C983 C985 1.372 . S
C983 H1000 0.931 . S
C984 C981 1.382 . S
C984 C985 1.390 . S
C984 H1001 0.931 . S
C985 C983 1.372 . S
C985 C984 1.390 . S
C985 H1002 0.929 . S
C986 C981 1.390 . S
C986 C982 1.392 . S
C986 H1003 0.930 . S
C987 O972 1.255 . S
C987 O973 1.257 . S
C988 Eu924 2.787 . S
C988 O968 1.252 . S
C988 O971 1.268 . S
C988 C981 1.506 . S
C989 C956 1.439 . S
C989 H966 0.931 . S
C989 C990 1.374 . S
C990 C961 1.387 . S
C990 H967 0.931 . S
C990 C989 1.374 . S
C991 O975 1.249 . S
C991 O976 1.264 . S
C992 C995 1.382 . S
C992 C996 1.390 . S
C992 C999 1.506 . S
C993 C994 1.398 . S
C993 C996 1.392 . S
C994 C993 1.398 . S
C994 C997 1.372 . S
C994 H1004 0.931 . S
C995 C992 1.382 . S
C995 C997 1.390 . S
C995 H1005 0.931 . S
C996 C992 1.390 . S
C996 C993 1.392 . S
C996 H1006 0.930 . S
C997 C994 1.372 . S
C997 C995 1.390 . S
C997 H1007 0.929 . S
C998 O978 1.255 . S
C998 O979 1.257 . S
C999 Eu935 2.787 . S
C999 O974 1.252 . S
C999 O977 1.268 . S
C999 C992 1.506 . S
H1000 C983 0.931 . S
H1001 C984 0.931 . S
H1002 C985 0.929 . S
H1003 C986 0.930 . S
H1004 C994 0.931 . S
H1005 C995 0.931 . S
H1006 C996 0.930 . S
H1007 C997 0.929 . S
Eu1008 N1037 2.600 1_554 S
Eu1008 N1043 2.562 1_554 S
Eu1008 O1052 2.462 . S
Eu1008 O1053 2.373 1_554 S
Eu1008 O1055 2.432 . S
Eu1008 O1056 2.291 . S
Eu1008 O1060 2.335 . S
Eu1008 O1063 2.372 . S
Eu1008 C1072 2.787 . S
C1009 N1010 1.365 . S
C1009 C1012 1.405 . S
C1009 C1016 1.448 . S
N1010 C1009 1.365 . S
N1010 C1013 1.319 . S
N1010 Eu1019 2.600 . S
C1011 C1013 1.397 . S
C1011 C1014 1.367 . S
C1011 H1031 0.931 . S
C1012 C1009 1.405 . S
C1012 C1014 1.403 . S
C1012 C1018 1.439 . S
C1013 N1010 1.319 . S
C1013 C1011 1.397 . S
C1013 H1024 0.930 . S
C1014 C1011 1.367 . S
C1014 C1012 1.403 . S
C1014 H1035 0.929 . S
C1015 C1016 1.430 . S
C1015 C1017 1.387 . S
C1015 C1021 1.404 . S
C1016 C1009 1.448 . S
C1016 C1015 1.430 . S
C1016 N1020 1.351 . S
C1017 C1015 1.387 . S
C1017 C1018 1.374 . S
C1017 H1032 0.931 . S
C1018 C1012 1.439 . S
C1018 C1017 1.374 . S
C1018 H1033 0.931 . S
Eu1019 N1010 2.600 . S
Eu1019 N1020 2.562 . S
Eu1019 O1054 2.335 1_554 S
Eu1019 O1057 2.372 . S
Eu1019 O1058 2.462 . S
Eu1019 O1059 2.373 . S
Eu1019 O1061 2.432 . S
Eu1019 O1062 2.291 . S
Eu1019 C1083 2.787 . S
N1020 C1016 1.351 . S
N1020 Eu1019 2.562 . S
N1020 C1022 1.325 . S
C1021 C1015 1.404 . S
C1021 C1023 1.366 . S
C1021 H1029 0.930 . S
C1022 N1020 1.325 . S
C1022 C1023 1.416 . S
C1022 H1028 0.929 . S
C1023 C1021 1.366 . S
C1023 C1022 1.416 . S
C1023 H1025 0.930 . S
H1024 C1013 0.930 . S
H1025 C1023 0.930 . S
H1026 C1041 0.930 . S
H1027 C1048 0.930 . S
H1028 C1022 0.929 . S
H1029 C1021 0.930 . S
H1030 C1044 0.929 . S
H1031 C1011 0.931 . S
H1032 C1017 0.931 . S
H1033 C1018 0.931 . S
H1034 C1039 0.931 . S
H1035 C1014 0.929 . S
H1036 C1047 0.930 . S
N1037 Eu1008 2.600 1_556 S
N1037 C1038 1.365 . S
N1037 C1041 1.319 . S
C1038 N1037 1.365 . S
C1038 C1040 1.405 . S
C1038 C1046 1.448 . S
C1039 H1034 0.931 . S
C1039 C1041 1.397 . S
C1039 C1042 1.367 . S
C1040 C1038 1.405 . S
C1040 C1042 1.403 . S
C1040 C1073 1.439 . S
C1041 H1026 0.930 . S
C1041 N1037 1.319 . S
C1041 C1039 1.397 . S
C1042 C1039 1.367 . S
C1042 C1040 1.403 . S
C1042 H1049 0.929 . S
N1043 Eu1008 2.562 1_556 S
N1043 C1044 1.325 . S
N1043 C1046 1.351 . S
C1044 H1030 0.929 . S
C1044 N1043 1.325 . S
C1044 C1048 1.416 . S
C1045 C1046 1.430 . S
C1045 C1047 1.404 . S
C1045 C1074 1.387 . S
C1046 C1038 1.448 . S
C1046 N1043 1.351 . S
C1046 C1045 1.430 . S
C1047 H1036 0.930 . S
C1047 C1045 1.404 . S
C1047 C1048 1.366 . S
C1048 H1027 0.930 . S
C1048 C1044 1.416 . S
C1048 C1047 1.366 . S
H1049 C1042 0.929 . S
H1050 C1073 0.931 . S
H1051 C1074 0.931 . S
O1052 Eu1008 2.462 . S
O1052 C1072 1.252 . S
O1053 Eu1008 2.373 1_556 S
O1053 C1064 1.249 . S
O1054 Eu1019 2.335 1_556 S
O1054 C1064 1.264 . S
O1055 Eu1008 2.432 . S
O1055 C1072 1.268 . S
O1056 Eu1008 2.291 . S
O1056 C1071 1.255 . S
O1057 Eu1019 2.372 . S
O1057 C1071 1.257 . S
O1058 Eu1019 2.462 . S
O1058 C1083 1.252 . S
O1059 Eu1019 2.373 . S
O1059 C1075 1.249 . S
O1060 Eu1008 2.335 . S
O1060 C1075 1.264 . S
O1061 Eu1019 2.432 . S
O1061 C1083 1.268 . S
O1062 Eu1019 2.291 . S
O1062 C1082 1.255 . S
O1063 Eu1008 2.372 . S
O1063 C1082 1.257 . S
C1064 O1053 1.249 . S
C1064 O1054 1.264 . S
C1065 C1068 1.382 . S
C1065 C1070 1.390 . S
C1065 C1072 1.506 . S
C1066 C1067 1.398 . S
C1066 C1070 1.392 . S
C1067 C1066 1.398 . S
C1067 C1069 1.372 . S
C1067 H1084 0.931 . S
C1068 C1065 1.382 . S
C1068 C1069 1.390 . S
C1068 H1085 0.931 . S
C1069 C1067 1.372 . S
C1069 C1068 1.390 . S
C1069 H1086 0.929 . S
C1070 C1065 1.390 . S
C1070 C1066 1.392 . S
C1070 H1087 0.930 . S
C1071 O1056 1.255 . S
C1071 O1057 1.257 . S
C1072 Eu1008 2.787 . S
C1072 O1052 1.252 . S
C1072 O1055 1.268 . S
C1072 C1065 1.506 . S
C1073 C1040 1.439 . S
C1073 H1050 0.931 . S
C1073 C1074 1.374 . S
C1074 C1045 1.387 . S
C1074 H1051 0.931 . S
C1074 C1073 1.374 . S
C1075 O1059 1.249 . S
C1075 O1060 1.264 . S
C1076 C1079 1.382 . S
C1076 C1080 1.390 . S
C1076 C1083 1.506 1_556 S
C1077 C1078 1.398 . S
C1077 C1080 1.392 . S
C1078 C1077 1.398 . S
C1078 C1081 1.372 . S
C1078 H1088 0.931 . S
C1079 C1076 1.382 . S
C1079 C1081 1.390 . S
C1079 H1089 0.931 . S
C1080 C1076 1.390 . S
C1080 C1077 1.392 . S
C1080 H1090 0.930 . S
C1081 C1078 1.372 . S
C1081 C1079 1.390 . S
C1081 H1091 0.929 . S
C1082 O1062 1.255 . S
C1082 O1063 1.257 . S
C1083 Eu1019 2.787 . S
C1083 O1058 1.252 . S
C1083 O1061 1.268 . S
C1083 C1076 1.506 1_554 S
H1084 C1067 0.931 . S
H1085 C1068 0.931 . S
H1086 C1069 0.929 . S
H1087 C1070 0.930 . S
H1088 C1078 0.931 . S
H1089 C1079 0.931 . S
H1090 C1080 0.930 . S
H1091 C1081 0.929 . S
Eu1092 N1121 2.600 . S
Eu1092 N1127 2.562 . S
Eu1092 O1136 2.462 . S
Eu1092 O1137 2.373 . S
Eu1092 O1139 2.432 . S
Eu1092 O1140 2.291 . S
Eu1092 O1144 2.335 . S
Eu1092 O1147 2.372 . S
Eu1092 C1156 2.787 . S
C1093 N1094 1.365 . S
C1093 C1096 1.405 . S
C1093 C1100 1.448 . S
N1094 C1093 1.365 . S
N1094 C1097 1.319 . S
N1094 Eu1103 2.600 . S
C1095 C1097 1.397 . S
C1095 C1098 1.367 . S
C1095 H1115 0.931 . S
C1096 C1093 1.405 . S
C1096 C1098 1.403 . S
C1096 C1102 1.439 . S
C1097 N1094 1.319 . S
C1097 C1095 1.397 . S
C1097 H1108 0.930 . S
C1098 C1095 1.367 . S
C1098 C1096 1.403 . S
C1098 H1119 0.929 . S
C1099 C1100 1.430 . S
C1099 C1101 1.387 . S
C1099 C1105 1.404 . S
C1100 C1093 1.448 . S
C1100 C1099 1.430 . S
C1100 N1104 1.351 . S
C1101 C1099 1.387 . S
C1101 C1102 1.374 . S
C1101 H1116 0.931 . S
C1102 C1096 1.439 . S
C1102 C1101 1.374 . S
C1102 H1117 0.931 . S
Eu1103 N1094 2.600 . S
Eu1103 N1104 2.562 . S
Eu1103 O1138 2.335 . S
Eu1103 O1141 2.372 . S
Eu1103 O1142 2.462 . S
Eu1103 O1143 2.373 . S
Eu1103 O1145 2.432 . S
Eu1103 O1146 2.291 . S
Eu1103 C1167 2.787 . S
N1104 C1100 1.351 . S
N1104 Eu1103 2.562 . S
N1104 C1106 1.325 . S
C1105 C1099 1.404 . S
C1105 C1107 1.366 . S
C1105 H1113 0.930 . S
C1106 N1104 1.325 . S
C1106 C1107 1.416 . S
C1106 H1112 0.929 . S
C1107 C1105 1.366 . S
C1107 C1106 1.416 . S
C1107 H1109 0.930 . S
H1108 C1097 0.930 . S
H1109 C1107 0.930 . S
H1110 C1125 0.930 . S
H1111 C1132 0.930 . S
H1112 C1106 0.929 . S
H1113 C1105 0.930 . S
H1114 C1128 0.929 . S
H1115 C1095 0.931 . S
H1116 C1101 0.931 . S
H1117 C1102 0.931 . S
H1118 C1123 0.931 . S
H1119 C1098 0.929 . S
H1120 C1131 0.930 . S
N1121 Eu1092 2.600 . S
N1121 C1122 1.365 . S
N1121 C1125 1.319 . S
C1122 N1121 1.365 . S
C1122 C1124 1.405 . S
C1122 C1130 1.448 . S
C1123 H1118 0.931 . S
C1123 C1125 1.397 . S
C1123 C1126 1.367 . S
C1124 C1122 1.405 . S
C1124 C1126 1.403 . S
C1124 C1157 1.439 . S
C1125 H1110 0.930 . S
C1125 N1121 1.319 . S
C1125 C1123 1.397 . S
C1126 C1123 1.367 . S
C1126 C1124 1.403 . S
C1126 H1133 0.929 . S
N1127 Eu1092 2.562 . S
N1127 C1128 1.325 . S
N1127 C1130 1.351 . S
C1128 H1114 0.929 . S
C1128 N1127 1.325 . S
C1128 C1132 1.416 . S
C1129 C1130 1.430 . S
C1129 C1131 1.404 . S
C1129 C1158 1.387 . S
C1130 C1122 1.448 . S
C1130 N1127 1.351 . S
C1130 C1129 1.430 . S
C1131 H1120 0.930 . S
C1131 C1129 1.404 . S
C1131 C1132 1.366 . S
C1132 H1111 0.930 . S
C1132 C1128 1.416 . S
C1132 C1131 1.366 . S
H1133 C1126 0.929 . S
H1134 C1157 0.931 . S
H1135 C1158 0.931 . S
O1136 Eu1092 2.462 . S
O1136 C1156 1.252 . S
O1137 Eu1092 2.373 . S
O1137 C1148 1.249 . S
O1138 Eu1103 2.335 . S
O1138 C1148 1.264 . S
O1139 Eu1092 2.432 . S
O1139 C1156 1.268 . S
O1140 Eu1092 2.291 . S
O1140 C1155 1.255 . S
O1141 Eu1103 2.372 . S
O1141 C1155 1.257 . S
O1142 Eu1103 2.462 . S
O1142 C1167 1.252 . S
O1143 Eu1103 2.373 . S
O1143 C1159 1.249 . S
O1144 Eu1092 2.335 . S
O1144 C1159 1.264 . S
O1145 Eu1103 2.432 . S
O1145 C1167 1.268 . S
O1146 Eu1103 2.291 . S
O1146 C1166 1.255 . S
O1147 Eu1092 2.372 . S
O1147 C1166 1.257 . S
C1148 O1137 1.249 . S
C1148 O1138 1.264 . S
C1149 C1152 1.382 . S
C1149 C1154 1.390 . S
C1149 C1156 1.506 . S
C1150 C1151 1.398 . S
C1150 C1154 1.392 . S
C1151 C1150 1.398 . S
C1151 C1153 1.372 . S
C1151 H1168 0.931 . S
C1152 C1149 1.382 . S
C1152 C1153 1.390 . S
C1152 H1169 0.931 . S
C1153 C1151 1.372 . S
C1153 C1152 1.390 . S
C1153 H1170 0.929 . S
C1154 C1149 1.390 . S
C1154 C1150 1.392 . S
C1154 H1171 0.930 . S
C1155 O1140 1.255 . S
C1155 O1141 1.257 . S
C1156 Eu1092 2.787 . S
C1156 O1136 1.252 . S
C1156 O1139 1.268 . S
C1156 C1149 1.506 . S
C1157 C1124 1.439 . S
C1157 H1134 0.931 . S
C1157 C1158 1.374 . S
C1158 C1129 1.387 . S
C1158 H1135 0.931 . S
C1158 C1157 1.374 . S
C1159 O1143 1.249 . S
C1159 O1144 1.264 . S
C1160 C1163 1.382 . S
C1160 C1164 1.390 . S
C1160 C1167 1.506 . S
C1161 C1162 1.398 . S
C1161 C1164 1.392 . S
C1162 C1161 1.398 . S
C1162 C1165 1.372 . S
C1162 H1172 0.931 . S
C1163 C1160 1.382 . S
C1163 C1165 1.390 . S
C1163 H1173 0.931 . S
C1164 C1160 1.390 . S
C1164 C1161 1.392 . S
C1164 H1174 0.930 . S
C1165 C1162 1.372 . S
C1165 C1163 1.390 . S
C1165 H1175 0.929 . S
C1166 O1146 1.255 . S
C1166 O1147 1.257 . S
C1167 Eu1103 2.787 . S
C1167 O1142 1.252 . S
C1167 O1145 1.268 . S
C1167 C1160 1.506 . S
H1168 C1151 0.931 . S
H1169 C1152 0.931 . S
H1170 C1153 0.929 . S
H1171 C1154 0.930 . S
H1172 C1162 0.931 . S
H1173 C1163 0.931 . S
H1174 C1164 0.930 . S
H1175 C1165 0.929 . S
Eu1176 N1205 2.600 1_455 S
Eu1176 N1211 2.562 1_455 S
Eu1176 O1220 2.462 . S
Eu1176 O1221 2.373 1_455 S
Eu1176 O1223 2.432 . S
Eu1176 O1224 2.291 . S
Eu1176 O1228 2.335 . S
Eu1176 O1231 2.372 . S
Eu1176 C1240 2.787 . S
C1177 N1178 1.365 . S
C1177 C1180 1.405 . S
C1177 C1184 1.448 . S
N1178 C1177 1.365 . S
N1178 C1181 1.319 . S
N1178 Eu1187 2.600 . S
C1179 C1181 1.397 . S
C1179 C1182 1.367 . S
C1179 H1199 0.931 . S
C1180 C1177 1.405 . S
C1180 C1182 1.403 . S
C1180 C1186 1.439 . S
C1181 N1178 1.319 . S
C1181 C1179 1.397 . S
C1181 H1192 0.930 . S
C1182 C1179 1.367 . S
C1182 C1180 1.403 . S
C1182 H1203 0.929 . S
C1183 C1184 1.430 . S
C1183 C1185 1.387 . S
C1183 C1189 1.404 . S
C1184 C1177 1.448 . S
C1184 C1183 1.430 . S
C1184 N1188 1.351 . S
C1185 C1183 1.387 . S
C1185 C1186 1.374 . S
C1185 H1200 0.931 . S
C1186 C1180 1.439 . S
C1186 C1185 1.374 . S
C1186 H1201 0.931 . S
Eu1187 N1178 2.600 . S
Eu1187 N1188 2.562 . S
Eu1187 O1222 2.335 1_455 S
Eu1187 O1225 2.372 . S
Eu1187 O1226 2.462 . S
Eu1187 O1227 2.373 . S
Eu1187 O1229 2.432 . S
Eu1187 O1230 2.291 . S
Eu1187 C1251 2.787 . S
N1188 C1184 1.351 . S
N1188 Eu1187 2.562 . S
N1188 C1190 1.325 . S
C1189 C1183 1.404 . S
C1189 C1191 1.366 . S
C1189 H1197 0.930 . S
C1190 N1188 1.325 . S
C1190 C1191 1.416 . S
C1190 H1196 0.929 . S
C1191 C1189 1.366 . S
C1191 C1190 1.416 . S
C1191 H1193 0.930 . S
H1192 C1181 0.930 . S
H1193 C1191 0.930 . S
H1194 C1209 0.941 . S
H1195 C1216 0.930 . S
H1196 C1190 0.929 . S
H1197 C1189 0.930 . S
H1198 C1212 0.929 1_455 S
H1199 C1179 0.931 . S
H1200 C1185 0.931 . S
H1201 C1186 0.931 . S
H1202 C1207 0.931 . S
H1203 C1182 0.929 . S
H1204 C1215 0.930 . S
N1205 Eu1176 2.600 1_655 S
N1205 C1206 1.365 . S
N1205 C1209 1.322 1_655 S
C1206 N1205 1.365 . S
C1206 C1208 1.405 . S
C1206 C1214 1.448 . S
C1207 H1202 0.931 . S
C1207 C1209 1.383 1_655 S
C1207 C1210 1.367 . S
C1208 C1206 1.405 . S
C1208 C1210 1.403 . S
C1208 C1241 1.439 . S
C1209 H1194 0.941 . S
C1209 N1205 1.322 1_455 S
C1209 C1207 1.383 1_455 S
C1210 C1207 1.367 . S
C1210 C1208 1.403 . S
C1210 H1217 0.929 . S
N1211 Eu1176 2.562 1_655 S
N1211 C1212 1.325 . S
N1211 C1214 1.351 . S
C1212 H1198 0.929 1_655 S
C1212 N1211 1.325 . S
C1212 C1216 1.416 . S
C1213 C1214 1.430 . S
C1213 C1215 1.404 . S
C1213 C1242 1.387 . S
C1214 C1206 1.448 . S
C1214 N1211 1.351 . S
C1214 C1213 1.430 . S
C1215 H1204 0.930 . S
C1215 C1213 1.404 . S
C1215 C1216 1.366 . S
C1216 H1195 0.930 . S
C1216 C1212 1.416 . S
C1216 C1215 1.366 . S
H1217 C1210 0.929 . S
H1218 C1241 0.931 . S
H1219 C1242 0.931 . S
O1220 Eu1176 2.462 . S
O1220 C1240 1.252 . S
O1221 Eu1176 2.373 1_655 S
O1221 C1232 1.249 . S
O1222 Eu1187 2.335 1_655 S
O1222 C1232 1.264 . S
O1223 Eu1176 2.432 . S
O1223 C1240 1.268 . S
O1224 Eu1176 2.291 . S
O1224 C1239 1.255 . S
O1225 Eu1187 2.372 . S
O1225 C1239 1.257 . S
O1226 Eu1187 2.462 . S
O1226 C1251 1.252 . S
O1227 Eu1187 2.373 . S
O1227 C1243 1.249 . S
O1228 Eu1176 2.335 . S
O1228 C1243 1.264 . S
O1229 Eu1187 2.432 . S
O1229 C1251 1.268 . S
O1230 Eu1187 2.291 . S
O1230 C1250 1.255 . S
O1231 Eu1176 2.372 . S
O1231 C1250 1.257 . S
C1232 O1221 1.249 . S
C1232 O1222 1.264 . S
C1233 C1236 1.382 . S
C1233 C1238 1.390 . S
C1233 C1240 1.506 . S
C1234 C1235 1.398 . S
C1234 C1238 1.392 . S
C1235 C1234 1.398 . S
C1235 C1237 1.372 . S
C1235 H1252 0.931 . S
C1236 C1233 1.382 . S
C1236 C1237 1.390 . S
C1236 H1253 0.931 . S
C1237 C1235 1.372 . S
C1237 C1236 1.390 . S
C1237 H1254 0.929 . S
C1238 C1233 1.390 . S
C1238 C1234 1.392 . S
C1238 H1255 0.930 . S
C1239 O1224 1.255 . S
C1239 O1225 1.257 . S
C1240 Eu1176 2.787 . S
C1240 O1220 1.252 . S
C1240 O1223 1.268 . S
C1240 C1233 1.506 . S
C1241 C1208 1.439 . S
C1241 H1218 0.931 . S
C1241 C1242 1.374 . S
C1242 C1213 1.387 . S
C1242 H1219 0.931 . S
C1242 C1241 1.374 . S
C1243 O1227 1.249 . S
C1243 O1228 1.264 . S
C1244 C1247 1.382 . S
C1244 C1248 1.390 . S
C1244 C1251 1.506 1_655 S
C1245 C1246 1.398 . S
C1245 C1248 1.392 . S
C1246 C1245 1.398 . S
C1246 C1249 1.372 . S
C1246 H1256 0.931 . S
C1247 C1244 1.382 . S
C1247 C1249 1.390 . S
C1247 H1257 0.931 . S
C1248 C1244 1.390 . S
C1248 C1245 1.392 . S
C1248 H1258 0.930 . S
C1249 C1246 1.372 . S
C1249 C1247 1.390 . S
C1249 H1259 0.929 . S
C1250 O1230 1.255 . S
C1250 O1231 1.257 . S
C1251 Eu1187 2.787 . S
C1251 O1226 1.252 . S
C1251 O1229 1.268 . S
C1251 C1244 1.506 1_455 S
H1252 C1235 0.931 . S
H1253 C1236 0.931 . S
H1254 C1237 0.929 . S
H1255 C1238 0.930 . S
H1256 C1246 0.931 . S
H1257 C1247 0.931 . S
H1258 C1248 0.930 . S
H1259 C1249 0.929 . S
Eu1260 N1289 2.600 . S
Eu1260 N1295 2.562 . S
Eu1260 O1304 2.462 . S
Eu1260 O1305 2.373 . S
Eu1260 O1307 2.432 . S
Eu1260 O1308 2.291 . S
Eu1260 O1312 2.335 . S
Eu1260 O1315 2.372 . S
Eu1260 C1324 2.787 . S
C1261 N1262 1.365 . S
C1261 C1264 1.405 . S
C1261 C1268 1.448 . S
N1262 C1261 1.365 . S
N1262 C1265 1.319 . S
N1262 Eu1271 2.600 . S
C1263 C1265 1.397 . S
C1263 C1266 1.367 . S
C1263 H1283 0.931 . S
C1264 C1261 1.405 . S
C1264 C1266 1.403 . S
C1264 C1270 1.439 . S
C1265 N1262 1.319 . S
C1265 C1263 1.397 . S
C1265 H1276 0.930 . S
C1266 C1263 1.367 . S
C1266 C1264 1.403 . S
C1266 H1287 0.929 . S
C1267 C1268 1.430 . S
C1267 C1269 1.387 . S
C1267 C1273 1.404 . S
C1268 C1261 1.448 . S
C1268 C1267 1.430 . S
C1268 N1272 1.351 . S
C1269 C1267 1.387 . S
C1269 C1270 1.374 . S
C1269 H1284 0.931 . S
C1270 C1264 1.439 . S
C1270 C1269 1.374 . S
C1270 H1285 0.931 . S
Eu1271 N1262 2.600 . S
Eu1271 N1272 2.562 . S
Eu1271 O1306 2.335 . S
Eu1271 O1309 2.372 . S
Eu1271 O1310 2.462 . S
Eu1271 O1311 2.373 . S
Eu1271 O1313 2.432 . S
Eu1271 O1314 2.291 . S
Eu1271 C1335 2.787 . S
N1272 C1268 1.351 . S
N1272 Eu1271 2.562 . S
N1272 C1274 1.325 . S
C1273 C1267 1.404 . S
C1273 C1275 1.366 . S
C1273 H1281 0.930 . S
C1274 N1272 1.325 . S
C1274 C1275 1.416 . S
C1274 H1280 0.929 . S
C1275 C1273 1.366 . S
C1275 C1274 1.416 . S
C1275 H1277 0.930 . S
H1276 C1265 0.930 . S
H1277 C1275 0.930 . S
H1278 C1293 0.930 . S
H1279 C1300 0.930 . S
H1280 C1274 0.929 . S
H1281 C1273 0.930 . S
H1282 C1296 0.929 . S
H1283 C1263 0.931 . S
H1284 C1269 0.931 . S
H1285 C1270 0.931 . S
H1286 C1291 0.931 . S
H1287 C1266 0.929 . S
H1288 C1299 0.930 . S
N1289 Eu1260 2.600 . S
N1289 C1290 1.365 . S
N1289 C1293 1.319 . S
C1290 N1289 1.365 . S
C1290 C1292 1.405 . S
C1290 C1298 1.448 . S
C1291 H1286 0.931 . S
C1291 C1293 1.397 . S
C1291 C1294 1.367 . S
C1292 C1290 1.405 . S
C1292 C1294 1.403 . S
C1292 C1325 1.439 . S
C1293 H1278 0.930 . S
C1293 N1289 1.319 . S
C1293 C1291 1.397 . S
C1294 C1291 1.367 . S
C1294 C1292 1.403 . S
C1294 H1301 0.929 . S
N1295 Eu1260 2.562 . S
N1295 C1296 1.325 . S
N1295 C1298 1.351 . S
C1296 H1282 0.929 . S
C1296 N1295 1.325 . S
C1296 C1300 1.416 . S
C1297 C1298 1.430 . S
C1297 C1299 1.404 . S
C1297 C1326 1.387 . S
C1298 C1290 1.448 . S
C1298 N1295 1.351 . S
C1298 C1297 1.430 . S
C1299 H1288 0.930 . S
C1299 C1297 1.404 . S
C1299 C1300 1.366 . S
C1300 H1279 0.930 . S
C1300 C1296 1.416 . S
C1300 C1299 1.366 . S
H1301 C1294 0.929 . S
H1302 C1325 0.931 . S
H1303 C1326 0.931 . S
O1304 Eu1260 2.462 . S
O1304 C1324 1.252 . S
O1305 Eu1260 2.373 . S
O1305 C1316 1.249 . S
O1306 Eu1271 2.335 . S
O1306 C1316 1.264 . S
O1307 Eu1260 2.432 . S
O1307 C1324 1.268 . S
O1308 Eu1260 2.291 . S
O1308 C1323 1.255 . S
O1309 Eu1271 2.372 . S
O1309 C1323 1.257 . S
O1310 Eu1271 2.462 . S
O1310 C1335 1.252 . S
O1311 Eu1271 2.373 . S
O1311 C1327 1.249 . S
O1312 Eu1260 2.335 . S
O1312 C1327 1.264 . S
O1313 Eu1271 2.432 . S
O1313 C1335 1.268 . S
O1314 Eu1271 2.291 . S
O1314 C1334 1.255 . S
O1315 Eu1260 2.372 . S
O1315 C1334 1.257 . S
C1316 O1305 1.249 . S
C1316 O1306 1.264 . S
C1317 C1320 1.382 . S
C1317 C1322 1.390 . S
C1317 C1324 1.506 . S
C1318 C1319 1.398 . S
C1318 C1322 1.392 . S
C1319 C1318 1.398 . S
C1319 C1321 1.372 . S
C1319 H1336 0.931 . S
C1320 C1317 1.382 . S
C1320 C1321 1.390 . S
C1320 H1337 0.931 . S
C1321 C1319 1.372 . S
C1321 C1320 1.390 . S
C1321 H1338 0.929 . S
C1322 C1317 1.390 . S
C1322 C1318 1.392 . S
C1322 H1339 0.930 . S
C1323 O1308 1.255 . S
C1323 O1309 1.257 . S
C1324 Eu1260 2.787 . S
C1324 O1304 1.252 . S
C1324 O1307 1.268 . S
C1324 C1317 1.506 . S
C1325 C1292 1.439 . S
C1325 H1302 0.931 . S
C1325 C1326 1.374 . S
C1326 C1297 1.387 . S
C1326 H1303 0.931 . S
C1326 C1325 1.374 . S
C1327 O1311 1.249 . S
C1327 O1312 1.264 . S
C1328 C1331 1.382 . S
C1328 C1332 1.390 . S
C1328 C1335 1.506 . S
C1329 C1330 1.398 . S
C1329 C1332 1.392 . S
C1330 C1329 1.398 . S
C1330 C1333 1.372 . S
C1330 H1340 0.931 . S
C1331 C1328 1.382 . S
C1331 C1333 1.390 . S
C1331 H1341 0.931 . S
C1332 C1328 1.390 . S
C1332 C1329 1.392 . S
C1332 H1342 0.930 . S
C1333 C1330 1.372 . S
C1333 C1331 1.390 . S
C1333 H1343 0.929 . S
C1334 O1314 1.255 . S
C1334 O1315 1.257 . S
C1335 Eu1271 2.787 . S
C1335 O1310 1.252 . S
C1335 O1313 1.268 . S
C1335 C1328 1.506 . S
H1336 C1319 0.931 . S
H1337 C1320 0.931 . S
H1338 C1321 0.929 . S
H1339 C1322 0.930 . S
H1340 C1330 0.931 . S
H1341 C1331 0.931 . S
H1342 C1332 0.930 . S
H1343 C1333 0.929 . S
Eu1344 N1373 2.600 . S
Eu1344 N1379 2.562 . S
Eu1344 O1388 2.462 . S
Eu1344 O1389 2.373 . S
Eu1344 O1391 2.432 . S
Eu1344 O1392 2.291 . S
Eu1344 O1396 2.335 . S
Eu1344 O1399 2.372 . S
Eu1344 C1408 2.787 . S
C1345 N1346 1.365 . S
C1345 C1348 1.405 . S
C1345 C1352 1.448 . S
N1346 C1345 1.365 . S
N1346 C1349 1.319 . S
N1346 Eu1355 2.600 . S
C1347 C1349 1.397 . S
C1347 C1350 1.367 . S
C1347 H1367 0.931 . S
C1348 C1345 1.405 . S
C1348 C1350 1.403 . S
C1348 C1354 1.439 . S
C1349 N1346 1.319 . S
C1349 C1347 1.397 . S
C1349 H1360 0.930 . S
C1350 C1347 1.367 . S
C1350 C1348 1.403 . S
C1350 H1371 0.929 . S
C1351 C1352 1.430 . S
C1351 C1353 1.387 . S
C1351 C1357 1.404 . S
C1352 C1345 1.448 . S
C1352 C1351 1.430 . S
C1352 N1356 1.351 . S
C1353 C1351 1.387 . S
C1353 C1354 1.374 . S
C1353 H1368 0.931 . S
C1354 C1348 1.439 . S
C1354 C1353 1.374 . S
C1354 H1369 0.931 . S
Eu1355 N1346 2.600 . S
Eu1355 N1356 2.562 . S
Eu1355 O1390 2.335 . S
Eu1355 O1393 2.372 . S
Eu1355 O1394 2.462 . S
Eu1355 O1395 2.373 . S
Eu1355 O1397 2.432 . S
Eu1355 O1398 2.291 . S
Eu1355 C1419 2.787 . S
N1356 C1352 1.351 . S
N1356 Eu1355 2.562 . S
N1356 C1358 1.325 . S
C1357 C1351 1.404 . S
C1357 C1359 1.366 . S
C1357 H1365 0.930 . S
C1358 N1356 1.325 . S
C1358 C1359 1.416 . S
C1358 H1364 0.929 . S
C1359 C1357 1.366 . S
C1359 C1358 1.416 . S
C1359 H1361 0.930 . S
H1360 C1349 0.930 . S
H1361 C1359 0.930 . S
H1362 C1377 0.930 . S
H1363 C1384 0.930 . S
H1364 C1358 0.929 . S
H1365 C1357 0.930 . S
H1366 C1380 0.929 . S
H1367 C1347 0.931 . S
H1368 C1353 0.931 . S
H1369 C1354 0.931 . S
H1370 C1375 0.931 . S
H1371 C1350 0.929 . S
H1372 C1383 0.930 . S
N1373 Eu1344 2.600 . S
N1373 C1374 1.365 . S
N1373 C1377 1.319 . S
C1374 N1373 1.365 . S
C1374 C1376 1.405 . S
C1374 C1382 1.448 . S
C1375 H1370 0.931 . S
C1375 C1377 1.397 . S
C1375 C1378 1.367 . S
C1376 C1374 1.405 . S
C1376 C1378 1.403 . S
C1376 C1409 1.439 . S
C1377 H1362 0.930 . S
C1377 N1373 1.319 . S
C1377 C1375 1.397 . S
C1378 C1375 1.367 . S
C1378 C1376 1.403 . S
C1378 H1385 0.929 . S
N1379 Eu1344 2.562 . S
N1379 C1380 1.325 . S
N1379 C1382 1.351 . S
C1380 H1366 0.929 . S
C1380 N1379 1.325 . S
C1380 C1384 1.416 . S
C1381 C1382 1.430 . S
C1381 C1383 1.404 . S
C1381 C1410 1.387 . S
C1382 C1374 1.448 . S
C1382 N1379 1.351 . S
C1382 C1381 1.430 . S
C1383 H1372 0.930 . S
C1383 C1381 1.404 . S
C1383 C1384 1.366 . S
C1384 H1363 0.930 . S
C1384 C1380 1.416 . S
C1384 C1383 1.366 . S
H1385 C1378 0.929 . S
H1386 C1409 0.931 . S
H1387 C1410 0.931 . S
O1388 Eu1344 2.462 . S
O1388 C1408 1.252 . S
O1389 Eu1344 2.373 . S
O1389 C1400 1.249 . S
O1390 Eu1355 2.335 . S
O1390 C1400 1.264 . S
O1391 Eu1344 2.432 . S
O1391 C1408 1.268 . S
O1392 Eu1344 2.291 . S
O1392 C1407 1.255 . S
O1393 Eu1355 2.372 . S
O1393 C1407 1.257 . S
O1394 Eu1355 2.462 . S
O1394 C1419 1.252 . S
O1395 Eu1355 2.373 . S
O1395 C1411 1.249 . S
O1396 Eu1344 2.335 . S
O1396 C1411 1.264 . S
O1397 Eu1355 2.432 . S
O1397 C1419 1.268 . S
O1398 Eu1355 2.291 . S
O1398 C1418 1.255 . S
O1399 Eu1344 2.372 . S
O1399 C1418 1.257 . S
C1400 O1389 1.249 . S
C1400 O1390 1.264 . S
C1401 C1404 1.382 . S
C1401 C1406 1.390 . S
C1401 C1408 1.506 . S
C1402 C1403 1.398 . S
C1402 C1406 1.392 . S
C1403 C1402 1.398 . S
C1403 C1405 1.372 . S
C1403 H1420 0.931 . S
C1404 C1401 1.382 . S
C1404 C1405 1.390 . S
C1404 H1421 0.931 . S
C1405 C1403 1.372 . S
C1405 C1404 1.390 . S
C1405 H1422 0.929 . S
C1406 C1401 1.390 . S
C1406 C1402 1.392 . S
C1406 H1423 0.930 . S
C1407 O1392 1.255 . S
C1407 O1393 1.257 . S
C1408 Eu1344 2.787 . S
C1408 O1388 1.252 . S
C1408 O1391 1.268 . S
C1408 C1401 1.506 . S
C1409 C1376 1.439 . S
C1409 H1386 0.931 . S
C1409 C1410 1.374 . S
C1410 C1381 1.387 . S
C1410 H1387 0.931 . S
C1410 C1409 1.374 . S
C1411 O1395 1.249 . S
C1411 O1396 1.264 . S
C1412 C1415 1.382 . S
C1412 C1416 1.390 . S
C1412 C1419 1.506 . S
C1413 C1414 1.398 . S
C1413 C1416 1.392 . S
C1414 C1413 1.398 . S
C1414 C1417 1.372 . S
C1414 H1424 0.931 . S
C1415 C1412 1.382 . S
C1415 C1417 1.390 . S
C1415 H1425 0.931 . S
C1416 C1412 1.390 . S
C1416 C1413 1.392 . S
C1416 H1426 0.930 . S
C1417 C1414 1.372 . S
C1417 C1415 1.390 . S
C1417 H1427 0.929 . S
C1418 O1398 1.255 . S
C1418 O1399 1.257 . S
C1419 Eu1355 2.787 . S
C1419 O1394 1.252 . S
C1419 O1397 1.268 . S
C1419 C1412 1.506 . S
H1420 C1403 0.931 . S
H1421 C1404 0.931 . S
H1422 C1405 0.929 . S
H1423 C1406 0.930 . S
H1424 C1414 0.931 . S
H1425 C1415 0.931 . S
H1426 C1416 0.930 . S
H1427 C1417 0.929 . S
Eu1428 N1457 2.600 . S
Eu1428 N1463 2.562 . S
Eu1428 O1472 2.462 . S
Eu1428 O1473 2.373 . S
Eu1428 O1475 2.432 . S
Eu1428 O1476 2.291 . S
Eu1428 O1480 2.335 . S
Eu1428 O1483 2.372 . S
Eu1428 C1492 2.787 . S
C1429 N1430 1.365 . S
C1429 C1432 1.405 . S
C1429 C1436 1.448 . S
N1430 C1429 1.365 . S
N1430 C1433 1.319 . S
N1430 Eu1439 2.600 . S
C1431 C1433 1.397 . S
C1431 C1434 1.367 . S
C1431 H1451 0.931 . S
C1432 C1429 1.405 . S
C1432 C1434 1.403 . S
C1432 C1438 1.439 . S
C1433 N1430 1.319 . S
C1433 C1431 1.397 . S
C1433 H1444 0.930 . S
C1434 C1431 1.367 . S
C1434 C1432 1.403 . S
C1434 H1455 0.929 . S
C1435 C1436 1.430 . S
C1435 C1437 1.387 . S
C1435 C1441 1.404 . S
C1436 C1429 1.448 . S
C1436 C1435 1.430 . S
C1436 N1440 1.351 . S
C1437 C1435 1.387 . S
C1437 C1438 1.374 . S
C1437 H1452 0.931 . S
C1438 C1432 1.439 . S
C1438 C1437 1.374 . S
C1438 H1453 0.931 . S
Eu1439 N1430 2.600 . S
Eu1439 N1440 2.562 . S
Eu1439 O1474 2.335 . S
Eu1439 O1477 2.372 . S
Eu1439 O1478 2.462 . S
Eu1439 O1479 2.373 . S
Eu1439 O1481 2.432 . S
Eu1439 O1482 2.291 . S
Eu1439 C1503 2.787 . S
N1440 C1436 1.351 . S
N1440 Eu1439 2.562 . S
N1440 C1442 1.325 . S
C1441 C1435 1.404 . S
C1441 C1443 1.366 . S
C1441 H1449 0.930 . S
C1442 N1440 1.325 . S
C1442 C1443 1.416 . S
C1442 H1448 0.929 . S
C1443 C1441 1.366 . S
C1443 C1442 1.416 . S
C1443 H1445 0.930 . S
H1444 C1433 0.930 . S
H1445 C1443 0.930 . S
H1446 C1461 0.930 . S
H1447 C1468 0.930 . S
H1448 C1442 0.929 . S
H1449 C1441 0.930 . S
H1450 C1464 0.929 . S
H1451 C1431 0.931 . S
H1452 C1437 0.931 . S
H1453 C1438 0.931 . S
H1454 C1459 0.931 . S
H1455 C1434 0.929 . S
H1456 C1467 0.930 . S
N1457 Eu1428 2.600 . S
N1457 C1458 1.365 . S
N1457 C1461 1.319 . S
C1458 N1457 1.365 . S
C1458 C1460 1.405 . S
C1458 C1466 1.448 . S
C1459 H1454 0.931 . S
C1459 C1461 1.397 . S
C1459 C1462 1.367 . S
C1460 C1458 1.405 . S
C1460 C1462 1.403 . S
C1460 C1493 1.439 . S
C1461 H1446 0.930 . S
C1461 N1457 1.319 . S
C1461 C1459 1.397 . S
C1462 C1459 1.367 . S
C1462 C1460 1.403 . S
C1462 H1469 0.929 . S
N1463 Eu1428 2.562 . S
N1463 C1464 1.325 . S
N1463 C1466 1.351 . S
C1464 H1450 0.929 . S
C1464 N1463 1.325 . S
C1464 C1468 1.416 . S
C1465 C1466 1.430 . S
C1465 C1467 1.404 . S
C1465 C1494 1.387 . S
C1466 C1458 1.448 . S
C1466 N1463 1.351 . S
C1466 C1465 1.430 . S
C1467 H1456 0.930 . S
C1467 C1465 1.404 . S
C1467 C1468 1.366 . S
C1468 H1447 0.930 . S
C1468 C1464 1.416 . S
C1468 C1467 1.366 . S
H1469 C1462 0.929 . S
H1470 C1493 0.931 . S
H1471 C1494 0.931 . S
O1472 Eu1428 2.462 . S
O1472 C1492 1.252 . S
O1473 Eu1428 2.373 . S
O1473 C1484 1.249 . S
O1474 Eu1439 2.335 . S
O1474 C1484 1.264 . S
O1475 Eu1428 2.432 . S
O1475 C1492 1.268 . S
O1476 Eu1428 2.291 . S
O1476 C1491 1.255 . S
O1477 Eu1439 2.372 . S
O1477 C1491 1.257 . S
O1478 Eu1439 2.462 . S
O1478 C1503 1.252 . S
O1479 Eu1439 2.373 . S
O1479 C1495 1.249 . S
O1480 Eu1428 2.335 . S
O1480 C1495 1.264 . S
O1481 Eu1439 2.432 . S
O1481 C1503 1.268 . S
O1482 Eu1439 2.291 . S
O1482 C1502 1.255 . S
O1483 Eu1428 2.372 . S
O1483 C1502 1.257 . S
C1484 O1473 1.249 . S
C1484 O1474 1.264 . S
C1485 C1488 1.382 . S
C1485 C1490 1.390 . S
C1485 C1492 1.506 . S
C1486 C1487 1.398 . S
C1486 C1490 1.392 . S
C1487 C1486 1.398 . S
C1487 C1489 1.372 . S
C1487 H1504 0.931 . S
C1488 C1485 1.382 . S
C1488 C1489 1.390 . S
C1488 H1505 0.931 . S
C1489 C1487 1.372 . S
C1489 C1488 1.390 . S
C1489 H1506 0.929 . S
C1490 C1485 1.390 . S
C1490 C1486 1.392 . S
C1490 H1507 0.930 . S
C1491 O1476 1.255 . S
C1491 O1477 1.257 . S
C1492 Eu1428 2.787 . S
C1492 O1472 1.252 . S
C1492 O1475 1.268 . S
C1492 C1485 1.506 . S
C1493 C1460 1.439 . S
C1493 H1470 0.931 . S
C1493 C1494 1.374 . S
C1494 C1465 1.387 . S
C1494 H1471 0.931 . S
C1494 C1493 1.374 . S
C1495 O1479 1.249 . S
C1495 O1480 1.264 . S
C1496 C1499 1.382 . S
C1496 C1500 1.390 . S
C1496 C1503 1.506 . S
C1497 C1498 1.398 . S
C1497 C1500 1.392 . S
C1498 C1497 1.398 . S
C1498 C1501 1.372 . S
C1498 H1508 0.931 . S
C1499 C1496 1.382 . S
C1499 C1501 1.390 . S
C1499 H1509 0.931 . S
C1500 C1496 1.390 . S
C1500 C1497 1.392 . S
C1500 H1510 0.930 . S
C1501 C1498 1.372 . S
C1501 C1499 1.390 . S
C1501 H1511 0.929 . S
C1502 O1482 1.255 . S
C1502 O1483 1.257 . S
C1503 Eu1439 2.787 . S
C1503 O1478 1.252 . S
C1503 O1481 1.268 . S
C1503 C1496 1.506 . S
H1504 C1487 0.931 . S
H1505 C1488 0.931 . S
H1506 C1489 0.929 . S
H1507 C1490 0.930 . S
H1508 C1498 0.931 . S
H1509 C1499 0.931 . S
H1510 C1500 0.930 . S
H1511 C1501 0.929 . S
Eu1512 N1541 2.600 . S
Eu1512 N1547 2.562 . S
Eu1512 O1556 2.462 . S
Eu1512 O1557 2.373 . S
Eu1512 O1559 2.432 . S
Eu1512 O1560 2.291 . S
Eu1512 O1564 2.335 . S
Eu1512 O1567 2.372 . S
Eu1512 C1576 2.787 . S
C1513 N1514 1.365 . S
C1513 C1516 1.405 . S
C1513 C1520 1.448 . S
N1514 C1513 1.365 . S
N1514 C1517 1.319 . S
N1514 Eu1523 2.600 . S
C1515 C1517 1.397 . S
C1515 C1518 1.367 . S
C1515 H1535 0.931 . S
C1516 C1513 1.405 . S
C1516 C1518 1.403 . S
C1516 C1522 1.439 . S
C1517 N1514 1.319 . S
C1517 C1515 1.397 . S
C1517 H1528 0.930 . S
C1518 C1515 1.367 . S
C1518 C1516 1.403 . S
C1518 H1539 0.929 . S
C1519 C1520 1.430 . S
C1519 C1521 1.387 . S
C1519 C1525 1.404 . S
C1520 C1513 1.448 . S
C1520 C1519 1.430 . S
C1520 N1524 1.351 . S
C1521 C1519 1.387 . S
C1521 C1522 1.374 . S
C1521 H1536 0.931 . S
C1522 C1516 1.439 . S
C1522 C1521 1.374 . S
C1522 H1537 0.931 . S
Eu1523 N1514 2.600 . S
Eu1523 N1524 2.562 . S
Eu1523 O1558 2.335 . S
Eu1523 O1561 2.372 . S
Eu1523 O1562 2.462 . S
Eu1523 O1563 2.373 . S
Eu1523 O1565 2.432 . S
Eu1523 O1566 2.291 . S
Eu1523 C1587 2.787 . S
N1524 C1520 1.351 . S
N1524 Eu1523 2.562 . S
N1524 C1526 1.325 . S
C1525 C1519 1.404 . S
C1525 C1527 1.366 . S
C1525 H1533 0.930 . S
C1526 N1524 1.325 . S
C1526 C1527 1.416 . S
C1526 H1532 0.929 . S
C1527 C1525 1.366 . S
C1527 C1526 1.416 . S
C1527 H1529 0.930 . S
H1528 C1517 0.930 . S
H1529 C1527 0.930 . S
H1530 C1545 0.930 . S
H1531 C1552 0.930 . S
H1532 C1526 0.929 . S
H1533 C1525 0.930 . S
H1534 C1548 0.929 . S
H1535 C1515 0.931 . S
H1536 C1521 0.931 . S
H1537 C1522 0.931 . S
H1538 C1543 0.931 . S
H1539 C1518 0.929 . S
H1540 C1551 0.930 . S
N1541 Eu1512 2.600 . S
N1541 C1542 1.365 . S
N1541 C1545 1.319 . S
C1542 N1541 1.365 . S
C1542 C1544 1.405 . S
C1542 C1550 1.448 . S
C1543 H1538 0.931 . S
C1543 C1545 1.397 . S
C1543 C1546 1.367 . S
C1544 C1542 1.405 . S
C1544 C1546 1.403 . S
C1544 C1577 1.439 . S
C1545 H1530 0.930 . S
C1545 N1541 1.319 . S
C1545 C1543 1.397 . S
C1546 C1543 1.367 . S
C1546 C1544 1.403 . S
C1546 H1553 0.929 . S
N1547 Eu1512 2.562 . S
N1547 C1548 1.325 . S
N1547 C1550 1.351 . S
C1548 H1534 0.929 . S
C1548 N1547 1.325 . S
C1548 C1552 1.416 . S
C1549 C1550 1.430 . S
C1549 C1551 1.404 . S
C1549 C1578 1.387 . S
C1550 C1542 1.448 . S
C1550 N1547 1.351 . S
C1550 C1549 1.430 . S
C1551 H1540 0.930 . S
C1551 C1549 1.404 . S
C1551 C1552 1.366 . S
C1552 H1531 0.930 . S
C1552 C1548 1.416 . S
C1552 C1551 1.366 . S
H1553 C1546 0.929 . S
H1554 C1577 0.931 . S
H1555 C1578 0.931 . S
O1556 Eu1512 2.462 . S
O1556 C1576 1.252 . S
O1557 Eu1512 2.373 . S
O1557 C1568 1.249 . S
O1558 Eu1523 2.335 . S
O1558 C1568 1.264 . S
O1559 Eu1512 2.432 . S
O1559 C1576 1.268 . S
O1560 Eu1512 2.291 . S
O1560 C1575 1.255 . S
O1561 Eu1523 2.372 . S
O1561 C1575 1.257 . S
O1562 Eu1523 2.462 . S
O1562 C1587 1.252 . S
O1563 Eu1523 2.373 . S
O1563 C1579 1.249 . S
O1564 Eu1512 2.335 . S
O1564 C1579 1.264 . S
O1565 Eu1523 2.432 . S
O1565 C1587 1.268 . S
O1566 Eu1523 2.291 . S
O1566 C1586 1.255 . S
O1567 Eu1512 2.372 . S
O1567 C1586 1.257 . S
C1568 O1557 1.249 . S
C1568 O1558 1.264 . S
C1569 C1572 1.382 . S
C1569 C1574 1.390 . S
C1569 C1576 1.506 . S
C1570 C1571 1.398 . S
C1570 C1574 1.392 . S
C1571 C1570 1.398 . S
C1571 C1573 1.372 . S
C1571 H1588 0.931 . S
C1572 C1569 1.382 . S
C1572 C1573 1.390 . S
C1572 H1589 0.931 . S
C1573 C1571 1.372 . S
C1573 C1572 1.390 . S
C1573 H1590 0.929 . S
C1574 C1569 1.390 . S
C1574 C1570 1.392 . S
C1574 H1591 0.930 . S
C1575 O1560 1.255 . S
C1575 O1561 1.257 . S
C1576 Eu1512 2.787 . S
C1576 O1556 1.252 . S
C1576 O1559 1.268 . S
C1576 C1569 1.506 . S
C1577 C1544 1.439 . S
C1577 H1554 0.931 . S
C1577 C1578 1.374 . S
C1578 C1549 1.387 . S
C1578 H1555 0.931 . S
C1578 C1577 1.374 . S
C1579 O1563 1.249 . S
C1579 O1564 1.264 . S
C1580 C1583 1.382 . S
C1580 C1584 1.390 . S
C1580 C1587 1.506 . S
C1581 C1582 1.398 . S
C1581 C1584 1.392 . S
C1582 C1581 1.398 . S
C1582 C1585 1.372 . S
C1582 H1592 0.931 . S
C1583 C1580 1.382 . S
C1583 C1585 1.390 . S
C1583 H1593 0.931 . S
C1584 C1580 1.390 . S
C1584 C1581 1.392 . S
C1584 H1594 0.930 . S
C1585 C1582 1.372 . S
C1585 C1583 1.390 . S
C1585 H1595 0.929 . S
C1586 O1566 1.255 . S
C1586 O1567 1.257 . S
C1587 Eu1523 2.787 . S
C1587 O1562 1.252 . S
C1587 O1565 1.268 . S
C1587 C1580 1.506 . S
H1588 C1571 0.931 . S
H1589 C1572 0.931 . S
H1590 C1573 0.929 . S
H1591 C1574 0.930 . S
H1592 C1582 0.931 . S
H1593 C1583 0.931 . S
H1594 C1584 0.930 . S
H1595 C1585 0.929 . S
Eu1596 N1625 2.600 . S
Eu1596 N1631 2.562 . S
Eu1596 O1640 2.462 . S
Eu1596 O1641 2.373 1_655 S
Eu1596 O1643 2.432 . S
Eu1596 O1644 2.290 1_654 S
Eu1596 O1648 2.335 1_655 S
Eu1596 O1651 2.372 1_655 S
Eu1596 C1660 2.787 . S
C1597 N1598 1.365 . S
C1597 C1600 1.405 . S
C1597 C1604 1.448 1_556 S
N1598 C1597 1.365 . S
N1598 C1601 1.319 . S
N1598 Eu1607 2.600 1_556 S
C1599 C1601 1.397 . S
C1599 C1602 1.367 . S
C1599 H1619 0.931 . S
C1600 C1597 1.405 . S
C1600 C1602 1.403 . S
C1600 C1606 1.439 . S
C1601 N1598 1.319 . S
C1601 C1599 1.397 . S
C1601 H1612 0.930 . S
C1602 C1599 1.367 . S
C1602 C1600 1.403 . S
C1602 H1623 0.929 . S
C1603 C1604 1.430 . S
C1603 C1605 1.375 1_554 S
C1603 C1609 1.404 . S
C1604 C1597 1.448 1_554 S
C1604 C1603 1.430 . S
C1604 N1608 1.351 . S
C1605 C1603 1.375 1_556 S
C1605 C1606 1.389 . S
C1605 H1620 0.928 1_556 S
C1606 C1600 1.439 . S
C1606 C1605 1.389 . S
C1606 H1621 0.931 . S
Eu1607 N1598 2.600 1_554 S
Eu1607 N1608 2.562 . S
Eu1607 O1642 2.335 . S
Eu1607 O1645 2.372 1_554 S
Eu1607 O1646 2.462 . S
Eu1607 O1647 2.373 . S
Eu1607 O1649 2.432 1_554 S
Eu1607 O1650 2.291 . S
Eu1607 C1671 2.787 1_554 S
N1608 C1604 1.351 . S
N1608 Eu1607 2.562 . S
N1608 C1610 1.325 . S
C1609 C1603 1.404 . S
C1609 C1611 1.366 . S
C1609 H1617 0.930 . S
C1610 N1608 1.325 . S
C1610 C1611 1.416 . S
C1610 H1616 0.929 . S
C1611 C1609 1.366 . S
C1611 C1610 1.416 . S
C1611 H1613 0.930 . S
H1612 C1601 0.930 . S
H1613 C1611 0.930 . S
H1614 C1629 0.930 1_455 S
H1615 C1636 0.930 . S
H1616 C1610 0.929 . S
H1617 C1609 0.930 . S
H1618 C1632 0.929 . S
H1619 C1599 0.931 . S
H1620 C1605 0.928 1_554 S
H1621 C1606 0.931 . S
H1622 C1627 0.931 . S
H1623 C1602 0.929 . S
H1624 C1635 0.923 1_556 S
N1625 Eu1596 2.600 . S
N1625 C1626 1.365 . S
N1625 C1629 1.319 . S
C1626 N1625 1.365 . S
C1626 C1628 1.405 . S
C1626 C1634 1.448 . S
C1627 H1622 0.931 . S
C1627 C1629 1.397 . S
C1627 C1630 1.367 . S
C1628 C1626 1.405 . S
C1628 C1630 1.403 . S
C1628 C1661 1.439 . S
C1629 H1614 0.930 1_655 S
C1629 N1625 1.319 . S
C1629 C1627 1.397 . S
C1630 C1627 1.367 . S
C1630 C1628 1.403 . S
C1630 H1637 0.929 . S
N1631 Eu1596 2.562 . S
N1631 C1632 1.325 1_554 S
N1631 C1634 1.351 . S
C1632 H1618 0.929 . S
C1632 N1631 1.325 1_556 S
C1632 C1636 1.416 . S
C1633 C1634 1.430 . S
C1633 C1635 1.437 . S
C1633 C1662 1.387 . S
C1634 C1626 1.448 . S
C1634 N1631 1.351 . S
C1634 C1633 1.430 . S
C1635 H1624 0.923 1_554 S
C1635 C1633 1.437 . S
C1635 C1636 1.341 1_554 S
C1636 H1615 0.930 . S
C1636 C1632 1.416 . S
C1636 C1635 1.341 1_556 S
H1637 C1630 0.929 . S
H1638 C1661 0.931 . S
H1639 C1662 0.931 . S
O1640 Eu1596 2.462 . S
O1640 C1660 1.252 . S
O1641 Eu1596 2.373 1_455 S
O1641 C1652 1.249 . S
O1642 Eu1607 2.335 . S
O1642 C1652 1.264 . S
O1643 Eu1596 2.432 . S
O1643 C1660 1.268 . S
O1644 Eu1596 2.290 1_456 S
O1644 C1659 1.257 . S
O1645 Eu1607 2.372 1_556 S
O1645 C1659 1.257 . S
O1646 Eu1607 2.462 . S
O1646 C1671 1.252 1_554 S
O1647 Eu1607 2.373 . S
O1647 C1663 1.249 . S
O1648 Eu1596 2.335 1_455 S
O1648 C1663 1.264 . S
O1649 Eu1607 2.432 1_556 S
O1649 C1671 1.268 . S
O1650 Eu1607 2.291 . S
O1650 C1670 1.255 . S
O1651 Eu1596 2.372 1_455 S
O1651 C1670 1.257 . S
C1652 O1641 1.249 . S
C1652 O1642 1.264 . S
C1653 C1656 1.382 . S
C1653 C1658 1.390 . S
C1653 C1660 1.506 . S
C1654 C1655 1.398 . S
C1654 C1658 1.392 . S
C1655 C1654 1.398 . S
C1655 C1657 1.372 . S
C1655 H1672 0.931 . S
C1656 C1653 1.382 . S
C1656 C1657 1.390 . S
C1656 H1673 0.931 . S
C1657 C1655 1.372 . S
C1657 C1656 1.390 . S
C1657 H1674 0.929 . S
C1658 C1653 1.390 . S
C1658 C1654 1.392 . S
C1658 H1675 0.930 . S
C1659 O1644 1.257 . S
C1659 O1645 1.257 . S
C1660 Eu1596 2.787 . S
C1660 O1640 1.252 . S
C1660 O1643 1.268 . S
C1660 C1653 1.506 . S
C1661 C1628 1.439 . S
C1661 H1638 0.931 . S
C1661 C1662 1.374 . S
C1662 C1633 1.387 . S
C1662 H1639 0.931 . S
C1662 C1661 1.374 . S
C1663 O1647 1.249 . S
C1663 O1648 1.264 . S
C1664 C1667 1.382 . S
C1664 C1668 1.390 1_556 S
C1664 C1671 1.506 . S
C1665 C1666 1.398 1_554 S
C1665 C1668 1.392 . S
C1666 C1665 1.398 1_556 S
C1666 C1669 1.372 . S
C1666 H1676 0.931 . S
C1667 C1664 1.382 . S
C1667 C1669 1.390 . S
C1667 H1677 0.931 . S
C1668 C1664 1.390 1_554 S
C1668 C1665 1.392 . S
C1668 H1678 0.930 . S
C1669 C1666 1.372 . S
C1669 C1667 1.390 . S
C1669 H1679 0.929 . S
C1670 O1650 1.255 . S
C1670 O1651 1.257 . S
C1671 Eu1607 2.787 1_556 S
C1671 O1646 1.252 1_556 S
C1671 O1649 1.268 . S
C1671 C1664 1.506 . S
H1672 C1655 0.931 . S
H1673 C1656 0.931 . S
H1674 C1657 0.929 . S
H1675 C1658 0.930 . S
H1676 C1666 0.931 . S
H1677 C1667 0.931 . S
H1678 C1668 0.930 . S
H1679 C1669 0.929 . S
H1680 C1688 0.929 . S
H1681 C1690 0.930 . S
H1682 C1692 0.930 . S
H1683 C1695 0.929 . S
H1684 C1698 0.930 . S
H1685 C1700 0.960 . S
H1686 C1700 0.960 . S
H1687 C1700 0.960 . S
C1688 H1680 0.929 . S
C1688 C1689 1.377 1_455 S
C1688 C1690 1.384 . S
C1689 C1688 1.377 1_655 S
C1689 C1695 1.390 . S
C1690 H1681 0.930 . S
C1690 C1688 1.384 . S
C1690 C1691 1.372 . S
C1691 C1690 1.372 . S
C1691 C1692 1.400 1_455 S
C1691 C1696 1.490 . S
C1692 H1682 0.930 . S
C1692 C1691 1.400 1_655 S
C1692 C1695 1.386 . S
H1693 C1709 0.930 . S
H1694 C1710 0.931 . S
C1695 H1683 0.929 . S
C1695 C1689 1.390 . S
C1695 C1692 1.386 . S
C1696 C1691 1.490 . S
C1696 C1698 1.395 . S
C1696 C1699 1.403 1_455 S
H1697 C1703 0.930 . S
C1698 H1684 0.930 . S
C1698 C1696 1.395 . S
C1698 C1701 1.403 . S
C1699 C1696 1.403 1_655 S
C1699 C1700 1.524 . S
C1699 C1703 1.400 . S
C1700 H1685 0.960 . S
C1700 H1686 0.960 . S
C1700 H1687 0.960 . S
C1700 C1699 1.524 . S
C1701 C1698 1.403 . S
C1701 C1702 1.392 . S
C1701 C1705 1.495 . S
C1702 C1701 1.392 . S
C1702 C1703 1.385 1_455 S
C1702 C1704 1.478 . S
C1703 H1697 0.930 . S
C1703 C1699 1.400 . S
C1703 C1702 1.385 1_655 S
C1704 C1702 1.478 . S
C1704 C1706 1.381 . S
C1704 C1710 1.383 1_556 S
C1705 C1701 1.495 . S
C1705 H1711 0.959 . S
C1705 H1712 0.961 1_556 S
C1705 H1713 0.960 . S
C1706 C1704 1.381 . S
C1706 C1707 1.394 . S
C1706 H1714 0.930 . S
C1707 C1706 1.394 . S
C1707 C1708 1.383 1_556 S
C1707 H1715 0.929 . S
C1708 C1707 1.383 1_554 S
C1708 C1709 1.377 . S
C1709 H1693 0.930 . S
C1709 C1708 1.377 . S
C1709 C1710 1.379 . S
C1710 H1694 0.931 . S
C1710 C1704 1.383 1_554 S
C1710 C1709 1.379 . S
H1711 C1705 0.959 . S
H1712 C1705 0.961 1_554 S
H1713 C1705 0.960 . S
H1714 C1706 0.930 . S
H1715 C1707 0.929 . S
H1716 C1724 0.929 . S
H1717 C1726 0.930 . S
H1718 C1728 0.930 . S
H1719 C1731 0.929 . S
H1720 C1734 0.930 . S
H1721 C1736 0.960 . S
H1722 C1736 0.960 . S
H1723 C1736 0.960 . S
C1724 H1716 0.929 . S
C1724 C1725 1.377 . S
C1724 C1726 1.384 . S
C1725 C1724 1.377 . S
C1725 C1731 1.390 . S
C1726 H1717 0.930 . S
C1726 C1724 1.384 . S
C1726 C1727 1.372 . S
C1727 C1726 1.372 . S
C1727 C1728 1.400 . S
C1727 C1732 1.490 . S
C1728 H1718 0.930 . S
C1728 C1727 1.400 . S
C1728 C1731 1.386 . S
H1729 C1745 0.930 . S
H1730 C1746 0.931 . S
C1731 H1719 0.929 . S
C1731 C1725 1.390 . S
C1731 C1728 1.386 . S
C1732 C1727 1.490 . S
C1732 C1734 1.395 . S
C1732 C1735 1.403 . S
H1733 C1739 0.930 . S
C1734 H1720 0.930 . S
C1734 C1732 1.395 . S
C1734 C1737 1.403 . S
C1735 C1732 1.403 . S
C1735 C1736 1.524 . S
C1735 C1739 1.400 . S
C1736 H1721 0.960 . S
C1736 H1722 0.960 . S
C1736 H1723 0.960 . S
C1736 C1735 1.524 . S
C1737 C1734 1.403 . S
C1737 C1738 1.392 . S
C1737 C1741 1.495 . S
C1738 C1737 1.392 . S
C1738 C1739 1.385 . S
C1738 C1740 1.478 . S
C1739 H1733 0.930 . S
C1739 C1735 1.400 . S
C1739 C1738 1.385 . S
C1740 C1738 1.478 . S
C1740 C1742 1.381 . S
C1740 C1746 1.383 . S
C1741 C1737 1.495 . S
C1741 H1747 0.959 . S
C1741 H1748 0.961 . S
C1741 H1749 0.960 . S
C1742 C1740 1.381 . S
C1742 C1743 1.394 . S
C1742 H1750 0.930 . S
C1743 C1742 1.394 . S
C1743 C1744 1.383 . S
C1743 H1751 0.929 . S
C1744 C1743 1.383 . S
C1744 C1745 1.377 . S
C1745 H1729 0.930 . S
C1745 C1744 1.377 . S
C1745 C1746 1.379 . S
C1746 H1730 0.931 . S
C1746 C1740 1.383 . S
C1746 C1745 1.379 . S
H1747 C1741 0.959 . S
H1748 C1741 0.961 . S
H1749 C1741 0.960 . S
H1750 C1742 0.930 . S
H1751 C1743 0.929 . S
H1752 C1760 0.929 . S
H1753 C1762 0.930 . S
H1754 C1764 0.930 . S
H1755 C1767 0.929 . S
H1756 C1770 0.930 . S
H1757 C1772 0.960 . S
H1758 C1772 0.960 . S
H1759 C1772 0.960 . S
C1760 H1752 0.929 . S
C1760 C1761 1.377 . S
C1760 C1762 1.384 . S
C1761 C1760 1.377 . S
C1761 C1767 1.390 . S
C1762 H1753 0.930 . S
C1762 C1760 1.384 . S
C1762 C1763 1.372 . S
C1763 C1762 1.372 . S
C1763 C1764 1.400 . S
C1763 C1768 1.490 . S
C1764 H1754 0.930 . S
C1764 C1763 1.400 . S
C1764 C1767 1.386 . S
H1765 C1781 0.930 . S
H1766 C1782 0.931 . S
C1767 H1755 0.929 . S
C1767 C1761 1.390 . S
C1767 C1764 1.386 . S
C1768 C1763 1.490 . S
C1768 C1770 1.395 . S
C1768 C1771 1.403 . S
H1769 C1775 0.930 . S
C1770 H1756 0.930 . S
C1770 C1768 1.395 . S
C1770 C1773 1.403 . S
C1771 C1768 1.403 . S
C1771 C1772 1.524 . S
C1771 C1775 1.400 . S
C1772 H1757 0.960 . S
C1772 H1758 0.960 . S
C1772 H1759 0.960 . S
C1772 C1771 1.524 . S
C1773 C1770 1.403 . S
C1773 C1774 1.392 . S
C1773 C1777 1.495 . S
C1774 C1773 1.392 . S
C1774 C1775 1.385 . S
C1774 C1776 1.478 . S
C1775 H1769 0.930 . S
C1775 C1771 1.400 . S
C1775 C1774 1.385 . S
C1776 C1774 1.478 . S
C1776 C1778 1.381 . S
C1776 C1782 1.383 . S
C1777 C1773 1.495 . S
C1777 H1783 0.959 . S
C1777 H1784 0.961 . S
C1777 H1785 0.960 . S
C1778 C1776 1.381 . S
C1778 C1779 1.394 . S
C1778 H1786 0.930 . S
C1779 C1778 1.394 . S
C1779 C1780 1.383 . S
C1779 H1787 0.929 . S
C1780 C1779 1.383 . S
C1780 C1781 1.377 . S
C1781 H1765 0.930 . S
C1781 C1780 1.377 . S
C1781 C1782 1.379 . S
C1782 H1766 0.931 . S
C1782 C1776 1.383 . S
C1782 C1781 1.379 . S
H1783 C1777 0.959 . S
H1784 C1777 0.961 . S
H1785 C1777 0.960 . S
H1786 C1778 0.930 . S
H1787 C1779 0.929 . S
H1788 C1796 0.929 . S
H1789 C1798 0.930 . S
H1790 C1800 0.930 . S
H1791 C1803 0.929 . S
H1792 C1806 0.930 . S
H1793 C1808 0.960 . S
H1794 C1808 0.960 . S
H1795 C1808 0.960 . S
C1796 H1788 0.929 . S
C1796 C1797 1.377 . S
C1796 C1798 1.384 . S
C1797 C1796 1.377 . S
C1797 C1803 1.390 . S
C1798 H1789 0.930 . S
C1798 C1796 1.384 . S
C1798 C1799 1.372 . S
C1799 C1798 1.372 . S
C1799 C1800 1.400 . S
C1799 C1804 1.490 . S
C1800 H1790 0.930 . S
C1800 C1799 1.400 . S
C1800 C1803 1.386 . S
H1801 C1817 0.930 . S
H1802 C1818 0.931 . S
C1803 H1791 0.929 . S
C1803 C1797 1.390 . S
C1803 C1800 1.386 . S
C1804 C1799 1.490 . S
C1804 C1806 1.395 . S
C1804 C1807 1.403 . S
H1805 C1811 0.930 . S
C1806 H1792 0.930 . S
C1806 C1804 1.395 . S
C1806 C1809 1.403 . S
C1807 C1804 1.403 . S
C1807 C1808 1.524 . S
C1807 C1811 1.400 . S
C1808 H1793 0.960 . S
C1808 H1794 0.960 . S
C1808 H1795 0.960 . S
C1808 C1807 1.524 . S
C1809 C1806 1.403 . S
C1809 C1810 1.392 . S
C1809 C1813 1.495 . S
C1810 C1809 1.392 . S
C1810 C1811 1.385 . S
C1810 C1812 1.478 . S
C1811 H1805 0.930 . S
C1811 C1807 1.400 . S
C1811 C1810 1.385 . S
C1812 C1810 1.478 . S
C1812 C1814 1.381 . S
C1812 C1818 1.383 . S
C1813 C1809 1.495 . S
C1813 H1819 0.959 . S
C1813 H1820 0.961 . S
C1813 H1821 0.960 . S
C1814 C1812 1.381 . S
C1814 C1815 1.394 . S
C1814 H1822 0.930 . S
C1815 C1814 1.394 . S
C1815 C1816 1.383 . S
C1815 H1823 0.929 . S
C1816 C1815 1.383 . S
C1816 C1817 1.377 . S
C1817 H1801 0.930 . S
C1817 C1816 1.377 . S
C1817 C1818 1.379 . S
C1818 H1802 0.931 . S
C1818 C1812 1.383 . S
C1818 C1817 1.379 . S
H1819 C1813 0.959 . S
H1820 C1813 0.961 . S
H1821 C1813 0.960 . S
H1822 C1814 0.930 . S
H1823 C1815 0.929 . S
H1824 C1832 0.970 . S
H1825 C1834 0.989 . S
H1826 C1836 0.930 . S
H1827 C1839 0.929 . S
H1828 C1842 0.930 1_655 S
H1829 C1844 0.960 . S
H1830 C1844 0.960 . S
H1831 C1844 0.960 . S
C1832 H1824 0.970 . S
C1832 C1833 1.332 1_655 S
C1832 C1834 1.382 . S
C1833 C1832 1.332 1_455 S
C1833 C1839 1.390 . S
C1834 H1825 0.989 . S
C1834 C1832 1.382 . S
C1834 C1835 1.323 1_655 S
C1835 C1834 1.323 1_455 S
C1835 C1836 1.400 . S
C1835 C1840 1.490 . S
C1836 H1826 0.930 . S
C1836 C1835 1.400 . S
C1836 C1839 1.386 . S
H1837 C1853 0.930 . S
H1838 C1854 0.931 . S
C1839 H1827 0.929 . S
C1839 C1833 1.390 . S
C1839 C1836 1.386 . S
C1840 C1835 1.490 . S
C1840 C1842 1.395 . S
C1840 C1843 1.403 . S
H1841 C1847 0.930 . S
C1842 H1828 0.930 1_455 S
C1842 C1840 1.395 . S
C1842 C1845 1.403 . S
C1843 C1840 1.403 . S
C1843 C1844 1.524 . S
C1843 C1847 1.400 . S
C1844 H1829 0.960 . S
C1844 H1830 0.960 . S
C1844 H1831 0.960 . S
C1844 C1843 1.524 . S
C1845 C1842 1.403 . S
C1845 C1846 1.392 . S
C1845 C1849 1.495 1_455 S
C1846 C1845 1.392 . S
C1846 C1847 1.385 . S
C1846 C1848 1.478 . S
C1847 H1841 0.930 . S
C1847 C1843 1.400 . S
C1847 C1846 1.385 . S
C1848 C1846 1.478 . S
C1848 C1850 1.343 1_455 S
C1848 C1854 1.383 . S
C1849 C1845 1.495 1_655 S
C1849 H1855 0.959 . S
C1849 H1856 0.961 1_655 S
C1849 H1857 0.960 . S
C1850 C1848 1.343 1_655 S
C1850 C1851 1.398 1_655 S
C1850 H1858 0.967 . S
C1851 C1850 1.398 1_455 S
C1851 C1852 1.388 . S
C1851 H1859 0.924 1_455 S
C1852 C1851 1.388 . S
C1852 C1853 1.377 . S
C1853 H1837 0.930 . S
C1853 C1852 1.377 . S
C1853 C1854 1.379 . S
C1854 H1838 0.931 . S
C1854 C1848 1.383 . S
C1854 C1853 1.379 . S
H1855 C1849 0.959 . S
H1856 C1849 0.961 1_455 S
H1857 C1849 0.960 . S
H1858 C1850 0.967 . S
H1859 C1851 0.924 1_655 S
H1860 C1868 0.929 . S
H1861 C1870 0.930 . S
H1862 C1872 0.930 . S
H1863 C1875 0.929 . S
H1864 C1878 0.930 . S
H1865 C1880 0.960 . S
H1866 C1880 0.960 . S
H1867 C1880 0.960 . S
C1868 H1860 0.929 . S
C1868 C1869 1.377 . S
C1868 C1870 1.384 . S
C1869 C1868 1.377 . S
C1869 C1875 1.390 . S
C1870 H1861 0.930 . S
C1870 C1868 1.384 . S
C1870 C1871 1.372 . S
C1871 C1870 1.372 . S
C1871 C1872 1.400 . S
C1871 C1876 1.490 . S
C1872 H1862 0.930 . S
C1872 C1871 1.400 . S
C1872 C1875 1.386 . S
H1873 C1889 0.930 . S
H1874 C1890 0.931 . S
C1875 H1863 0.929 . S
C1875 C1869 1.390 . S
C1875 C1872 1.386 . S
C1876 C1871 1.490 . S
C1876 C1878 1.395 . S
C1876 C1879 1.403 . S
H1877 C1883 0.930 . S
C1878 H1864 0.930 . S
C1878 C1876 1.395 . S
C1878 C1881 1.403 . S
C1879 C1876 1.403 . S
C1879 C1880 1.524 . S
C1879 C1883 1.400 . S
C1880 H1865 0.960 . S
C1880 H1866 0.960 . S
C1880 H1867 0.960 . S
C1880 C1879 1.524 . S
C1881 C1878 1.403 . S
C1881 C1882 1.392 . S
C1881 C1885 1.495 . S
C1882 C1881 1.392 . S
C1882 C1883 1.385 . S
C1882 C1884 1.478 . S
C1883 H1877 0.930 . S
C1883 C1879 1.400 . S
C1883 C1882 1.385 . S
C1884 C1882 1.478 . S
C1884 C1886 1.381 . S
C1884 C1890 1.383 . S
C1885 C1881 1.495 . S
C1885 H1891 0.959 . S
C1885 H1892 0.961 . S
C1885 H1893 0.960 . S
C1886 C1884 1.381 . S
C1886 C1887 1.394 . S
C1886 H1894 0.930 . S
C1887 C1886 1.394 . S
C1887 C1888 1.383 . S
C1887 H1895 0.929 . S
C1888 C1887 1.383 . S
C1888 C1889 1.377 . S
C1889 H1873 0.930 . S
C1889 C1888 1.377 . S
C1889 C1890 1.379 . S
C1890 H1874 0.931 . S
C1890 C1884 1.383 . S
C1890 C1889 1.379 . S
H1891 C1885 0.959 . S
H1892 C1885 0.961 . S
H1893 C1885 0.960 . S
H1894 C1886 0.930 . S
H1895 C1887 0.929 . S
H1896 C1904 0.929 . S
H1897 C1906 0.930 . S
H1898 C1908 0.930 . S
H1899 C1911 0.929 . S
H1900 C1914 0.930 . S
H1901 C1916 0.960 . S
H1902 C1916 0.960 . S
H1903 C1916 0.960 . S
C1904 H1896 0.929 . S
C1904 C1905 1.377 . S
C1904 C1906 1.384 . S
C1905 C1904 1.377 . S
C1905 C1911 1.390 . S
C1906 H1897 0.930 . S
C1906 C1904 1.384 . S
C1906 C1907 1.372 . S
C1907 C1906 1.372 . S
C1907 C1908 1.400 . S
C1907 C1912 1.490 . S
C1908 H1898 0.930 . S
C1908 C1907 1.400 . S
C1908 C1911 1.386 . S
H1909 C1925 0.930 . S
H1910 C1926 0.931 . S
C1911 H1899 0.929 . S
C1911 C1905 1.390 . S
C1911 C1908 1.386 . S
C1912 C1907 1.490 . S
C1912 C1914 1.395 . S
C1912 C1915 1.403 . S
H1913 C1919 0.930 . S
C1914 H1900 0.930 . S
C1914 C1912 1.395 . S
C1914 C1917 1.403 . S
C1915 C1912 1.403 . S
C1915 C1916 1.524 . S
C1915 C1919 1.400 . S
C1916 H1901 0.960 . S
C1916 H1902 0.960 . S
C1916 H1903 0.960 . S
C1916 C1915 1.524 . S
C1917 C1914 1.403 . S
C1917 C1918 1.392 . S
C1917 C1921 1.495 . S
C1918 C1917 1.392 . S
C1918 C1919 1.385 . S
C1918 C1920 1.478 . S
C1919 H1913 0.930 . S
C1919 C1915 1.400 . S
C1919 C1918 1.385 . S
C1920 C1918 1.478 . S
C1920 C1922 1.381 . S
C1920 C1926 1.383 . S
C1921 C1917 1.495 . S
C1921 H1927 0.959 . S
C1921 H1928 0.961 . S
C1921 H1929 0.960 . S
C1922 C1920 1.381 . S
C1922 C1923 1.394 . S
C1922 H1930 0.930 . S
C1923 C1922 1.394 . S
C1923 C1924 1.383 . S
C1923 H1931 0.929 . S
C1924 C1923 1.383 . S
C1924 C1925 1.377 . S
C1925 H1909 0.930 . S
C1925 C1924 1.377 . S
C1925 C1926 1.379 . S
C1926 H1910 0.931 . S
C1926 C1920 1.383 . S
C1926 C1925 1.379 . S
H1927 C1921 0.959 . S
H1928 C1921 0.961 . S
H1929 C1921 0.960 . S
H1930 C1922 0.930 . S
H1931 C1923 0.929 . S
H1932 C1940 0.929 . S
H1933 C1942 0.930 . S
H1934 C1944 0.930 . S
H1935 C1947 0.929 . S
H1936 C1950 0.930 . S
H1937 C1952 0.960 . S
H1938 C1952 0.960 . S
H1939 C1952 0.960 . S
C1940 H1932 0.929 . S
C1940 C1941 1.377 . S
C1940 C1942 1.384 . S
C1941 C1940 1.377 . S
C1941 C1947 1.390 . S
C1942 H1933 0.930 . S
C1942 C1940 1.384 . S
C1942 C1943 1.372 . S
C1943 C1942 1.372 . S
C1943 C1944 1.400 . S
C1943 C1948 1.490 . S
C1944 H1934 0.930 . S
C1944 C1943 1.400 . S
C1944 C1947 1.386 . S
H1945 C1961 0.930 . S
H1946 C1962 0.931 . S
C1947 H1935 0.929 . S
C1947 C1941 1.390 . S
C1947 C1944 1.386 . S
C1948 C1943 1.490 . S
C1948 C1950 1.395 . S
C1948 C1951 1.403 . S
H1949 C1955 0.930 . S
C1950 H1936 0.930 . S
C1950 C1948 1.395 . S
C1950 C1953 1.403 . S
C1951 C1948 1.403 . S
C1951 C1952 1.524 . S
C1951 C1955 1.400 . S
C1952 H1937 0.960 . S
C1952 H1938 0.960 . S
C1952 H1939 0.960 . S
C1952 C1951 1.524 . S
C1953 C1950 1.403 . S
C1953 C1954 1.392 . S
C1953 C1957 1.495 . S
C1954 C1953 1.392 . S
C1954 C1955 1.385 . S
C1954 C1956 1.478 . S
C1955 H1949 0.930 . S
C1955 C1951 1.400 . S
C1955 C1954 1.385 . S
C1956 C1954 1.478 . S
C1956 C1958 1.381 . S
C1956 C1962 1.383 . S
C1957 C1953 1.495 . S
C1957 H1963 0.959 . S
C1957 H1964 0.961 . S
C1957 H1965 0.960 . S
C1958 C1956 1.381 . S
C1958 C1959 1.394 . S
C1958 H1966 0.930 . S
C1959 C1958 1.394 . S
C1959 C1960 1.383 . S
C1959 H1967 0.929 . S
C1960 C1959 1.383 . S
C1960 C1961 1.377 . S
C1961 H1945 0.930 . S
C1961 C1960 1.377 . S
C1961 C1962 1.379 . S
C1962 H1946 0.931 . S
C1962 C1956 1.383 . S
C1962 C1961 1.379 . S
H1963 C1957 0.959 . S
H1964 C1957 0.961 . S
H1965 C1957 0.960 . S
H1966 C1958 0.930 . S
H1967 C1959 0.929 . S
H1968 C1976 0.929 . S
H1969 C1978 0.930 . S
H1970 C1980 0.930 . S
H1971 C1983 0.929 . S
H1972 C1986 0.898 1_565 S
H1973 C1988 0.960 . S
H1974 C1988 0.960 . S
H1975 C1988 0.960 . S
C1976 H1968 0.929 . S
C1976 C1977 1.377 1_565 S
C1976 C1978 1.384 . S
C1977 C1976 1.377 1_545 S
C1977 C1983 1.390 . S
C1978 H1969 0.930 . S
C1978 C1976 1.384 . S
C1978 C1979 1.372 1_565 S
C1979 C1978 1.372 1_545 S
C1979 C1980 1.400 . S
C1979 C1984 1.490 . S
C1980 H1970 0.930 . S
C1980 C1979 1.400 . S
C1980 C1983 1.386 . S
H1981 C1997 0.930 . S
H1982 C1998 0.931 . S
C1983 H1971 0.929 . S
C1983 C1977 1.390 . S
C1983 C1980 1.386 . S
C1984 C1979 1.490 . S
C1984 C1986 1.422 . S
C1984 C1987 1.403 . S
H1985 C1991 0.930 . S
C1986 H1972 0.898 1_545 S
C1986 C1984 1.422 . S
C1986 C1989 1.408 . S
C1987 C1984 1.403 . S
C1987 C1988 1.524 . S
C1987 C1991 1.400 . S
C1988 H1973 0.960 . S
C1988 H1974 0.960 . S
C1988 H1975 0.960 . S
C1988 C1987 1.524 . S
C1989 C1986 1.408 . S
C1989 C1990 1.392 . S
C1989 C1993 1.495 1_545 S
C1990 C1989 1.392 . S
C1990 C1991 1.385 . S
C1990 C1992 1.478 . S
C1991 H1985 0.930 . S
C1991 C1987 1.400 . S
C1991 C1990 1.385 . S
C1992 C1990 1.478 . S
C1992 C1994 1.381 . S
C1992 C1998 1.383 . S
C1993 C1989 1.495 1_565 S
C1993 H1999 0.959 . S
C1993 H2000 0.961 . S
C1993 H2001 0.960 . S
C1994 C1992 1.381 . S
C1994 C1995 1.394 1_655 S
C1994 H2002 0.930 1_545 S
C1995 C1994 1.394 1_455 S
C1995 C1996 1.403 . S
C1995 H2003 0.929 . S
C1996 C1995 1.403 . S
C1996 C1997 1.329 1_455 S
C1997 H1981 0.930 . S
C1997 C1996 1.329 1_655 S
C1997 C1998 1.379 . S
C1998 H1982 0.931 . S
C1998 C1992 1.383 . S
C1998 C1997 1.379 . S
H1999 C1993 0.959 . S
H2000 C1993 0.961 . S
H2001 C1993 0.960 . S
H2002 C1994 0.930 1_565 S
H2003 C1995 0.929 . S
H2004 C2012 0.929 . S
H2005 C2014 0.930 . S
H2006 C2016 0.930 . S
H2007 C2019 0.929 . S
H2008 C2022 0.930 . S
H2009 C2024 0.960 . S
H2010 C2024 0.960 . S
H2011 C2024 0.960 . S
C2012 H2004 0.929 . S
C2012 C2013 1.377 . S
C2012 C2014 1.384 . S
C2013 C2012 1.377 . S
C2013 C2019 1.390 . S
C2014 H2005 0.930 . S
C2014 C2012 1.384 . S
C2014 C2015 1.372 . S
C2015 C2014 1.372 . S
C2015 C2016 1.400 . S
C2015 C2020 1.490 . S
C2016 H2006 0.930 . S
C2016 C2015 1.400 . S
C2016 C2019 1.386 . S
H2017 C2033 0.930 . S
H2018 C2034 0.931 . S
C2019 H2007 0.929 . S
C2019 C2013 1.390 . S
C2019 C2016 1.386 . S
C2020 C2015 1.490 . S
C2020 C2022 1.395 . S
C2020 C2023 1.403 . S
H2021 C2027 0.930 . S
C2022 H2008 0.930 . S
C2022 C2020 1.395 . S
C2022 C2025 1.403 . S
C2023 C2020 1.403 . S
C2023 C2024 1.524 . S
C2023 C2027 1.400 . S
C2024 H2009 0.960 . S
C2024 H2010 0.960 . S
C2024 H2011 0.960 . S
C2024 C2023 1.524 . S
C2025 C2022 1.403 . S
C2025 C2026 1.392 . S
C2025 C2029 1.495 . S
C2026 C2025 1.392 . S
C2026 C2027 1.385 . S
C2026 C2028 1.478 . S
C2027 H2021 0.930 . S
C2027 C2023 1.400 . S
C2027 C2026 1.385 . S
C2028 C2026 1.478 . S
C2028 C2030 1.381 . S
C2028 C2034 1.383 . S
C2029 C2025 1.495 . S
C2029 H2035 0.959 . S
C2029 H2036 0.961 . S
C2029 H2037 0.960 . S
C2030 C2028 1.381 . S
C2030 C2031 1.394 . S
C2030 H2038 0.930 . S
C2031 C2030 1.394 . S
C2031 C2032 1.383 . S
C2031 H2039 0.929 . S
C2032 C2031 1.383 . S
C2032 C2033 1.377 . S
C2033 H2017 0.930 . S
C2033 C2032 1.377 . S
C2033 C2034 1.379 . S
C2034 H2018 0.931 . S
C2034 C2028 1.383 . S
C2034 C2033 1.379 . S
H2035 C2029 0.959 . S
H2036 C2029 0.961 . S
H2037 C2029 0.960 . S
H2038 C2030 0.930 . S
H2039 C2031 0.929 . S
H2040 C2048 0.929 . S
H2041 C2050 0.930 . S
H2042 C2052 0.930 . S
H2043 C2055 0.929 . S
H2044 C2058 0.930 . S
H2045 C2060 0.960 1_565 S
H2046 C2060 0.960 . S
H2047 C2060 0.960 1_565 S
C2048 H2040 0.929 . S
C2048 C2049 1.377 . S
C2048 C2050 1.384 . S
C2049 C2048 1.377 . S
C2049 C2055 1.390 . S
C2050 H2041 0.930 . S
C2050 C2048 1.384 . S
C2050 C2051 1.372 . S
C2051 C2050 1.372 . S
C2051 C2052 1.400 . S
C2051 C2056 1.490 . S
C2052 H2042 0.930 . S
C2052 C2051 1.400 . S
C2052 C2055 1.386 . S
H2053 C2069 0.903 1_565 S
H2054 C2070 0.931 . S
C2055 H2043 0.929 . S
C2055 C2049 1.390 . S
C2055 C2052 1.386 . S
C2056 C2051 1.490 . S
C2056 C2058 1.395 . S
C2056 C2059 1.403 . S
H2057 C2063 0.930 . S
C2058 H2044 0.930 . S
C2058 C2056 1.395 . S
C2058 C2061 1.403 . S
C2059 C2056 1.403 . S
C2059 C2060 1.524 . S
C2059 C2063 1.400 . S
C2060 H2045 0.960 1_545 S
C2060 H2046 0.960 . S
C2060 H2047 0.960 1_545 S
C2060 C2059 1.524 . S
C2061 C2058 1.403 . S
C2061 C2062 1.392 . S
C2061 C2065 1.495 . S
C2062 C2061 1.392 . S
C2062 C2063 1.385 . S
C2062 C2064 1.478 . S
C2063 H2057 0.930 . S
C2063 C2059 1.400 . S
C2063 C2062 1.385 . S
C2064 C2062 1.478 . S
C2064 C2066 1.381 . S
C2064 C2070 1.383 . S
C2065 C2061 1.495 . S
C2065 H2071 0.959 . S
C2065 H2072 0.961 . S
C2065 H2073 0.960 . S
C2066 C2064 1.381 . S
C2066 C2067 1.394 . S
C2066 H2074 0.930 . S
C2067 C2066 1.394 . S
C2067 C2068 1.383 . S
C2067 H2075 0.929 . S
C2068 C2067 1.383 . S
C2068 C2069 1.377 . S
C2069 H2053 0.903 1_545 S
C2069 C2068 1.377 . S
C2069 C2070 1.379 . S
C2070 H2054 0.931 . S
C2070 C2064 1.383 . S
C2070 C2069 1.379 . S
H2071 C2065 0.959 . S
H2072 C2065 0.961 . S
H2073 C2065 0.960 . S
H2074 C2066 0.930 . S
H2075 C2067 0.929 . S
H2076 C2084 0.929 . S
H2077 C2086 0.930 . S
H2078 C2088 0.930 . S
H2079 C2091 0.929 . S
H2080 C2094 0.930 . S
H2081 C2096 0.960 . S
H2082 C2096 0.960 . S
H2083 C2096 0.960 . S
C2084 H2076 0.929 . S
C2084 C2085 1.377 . S
C2084 C2086 1.384 . S
C2085 C2084 1.377 . S
C2085 C2091 1.390 . S
C2086 H2077 0.930 . S
C2086 C2084 1.384 . S
C2086 C2087 1.372 . S
C2087 C2086 1.372 . S
C2087 C2088 1.400 . S
C2087 C2092 1.490 . S
C2088 H2078 0.930 . S
C2088 C2087 1.400 . S
C2088 C2091 1.386 . S
H2089 C2105 0.930 . S
H2090 C2106 0.931 . S
C2091 H2079 0.929 . S
C2091 C2085 1.390 . S
C2091 C2088 1.386 . S
C2092 C2087 1.490 . S
C2092 C2094 1.395 . S
C2092 C2095 1.403 . S
H2093 C2099 0.930 . S
C2094 H2080 0.930 . S
C2094 C2092 1.395 . S
C2094 C2097 1.403 . S
C2095 C2092 1.403 . S
C2095 C2096 1.524 . S
C2095 C2099 1.400 . S
C2096 H2081 0.960 . S
C2096 H2082 0.960 . S
C2096 H2083 0.960 . S
C2096 C2095 1.524 . S
C2097 C2094 1.403 . S
C2097 C2098 1.392 . S
C2097 C2101 1.495 . S
C2098 C2097 1.392 . S
C2098 C2099 1.385 . S
C2098 C2100 1.478 . S
C2099 H2093 0.930 . S
C2099 C2095 1.400 . S
C2099 C2098 1.385 . S
C2100 C2098 1.478 . S
C2100 C2102 1.381 . S
C2100 C2106 1.383 . S
C2101 C2097 1.495 . S
C2101 H2107 0.959 . S
C2101 H2108 0.961 . S
C2101 H2109 0.960 . S
C2102 C2100 1.381 . S
C2102 C2103 1.394 . S
C2102 H2110 0.930 . S
C2103 C2102 1.394 . S
C2103 C2104 1.383 . S
C2103 H2111 0.929 . S
C2104 C2103 1.383 . S
C2104 C2105 1.377 . S
C2105 H2089 0.930 . S
C2105 C2104 1.377 . S
C2105 C2106 1.379 . S
C2106 H2090 0.931 . S
C2106 C2100 1.383 . S
C2106 C2105 1.379 . S
H2107 C2101 0.959 . S
H2108 C2101 0.961 . S
H2109 C2101 0.960 . S
H2110 C2102 0.930 . S
H2111 C2103 0.929 . S
H2112 C2120 0.929 . S
H2113 C2122 0.930 . S
H2114 C2124 0.930 . S
H2115 C2127 0.929 . S
H2116 C2130 0.930 1_565 S
H2117 C2132 0.960 . S
H2118 C2132 0.960 . S
H2119 C2132 0.960 . S
C2120 H2112 0.929 . S
C2120 C2121 1.377 . S
C2120 C2122 1.384 . S
C2121 C2120 1.377 . S
C2121 C2127 1.390 . S
C2122 H2113 0.930 . S
C2122 C2120 1.384 . S
C2122 C2123 1.372 . S
C2123 C2122 1.372 . S
C2123 C2124 1.400 . S
C2123 C2128 1.490 . S
C2124 H2114 0.930 . S
C2124 C2123 1.400 . S
C2124 C2127 1.386 . S
H2125 C2141 0.930 . S
H2126 C2142 0.931 . S
C2127 H2115 0.929 . S
C2127 C2121 1.390 . S
C2127 C2124 1.386 . S
C2128 C2123 1.490 . S
C2128 C2130 1.395 . S
C2128 C2131 1.403 . S
H2129 C2135 0.930 . S
C2130 H2116 0.930 1_545 S
C2130 C2128 1.395 . S
C2130 C2133 1.398 1_545 S
C2131 C2128 1.403 . S
C2131 C2132 1.524 . S
C2131 C2135 1.400 . S
C2132 H2117 0.960 . S
C2132 H2118 0.960 . S
C2132 H2119 0.960 . S
C2132 C2131 1.524 . S
C2133 C2130 1.398 1_565 S
C2133 C2134 1.381 1_565 S
C2133 C2137 1.511 . S
C2134 C2133 1.381 1_545 S
C2134 C2135 1.385 . S
C2134 C2136 1.478 . S
C2135 H2129 0.930 . S
C2135 C2131 1.400 . S
C2135 C2134 1.385 . S
C2136 C2134 1.478 . S
C2136 C2138 1.381 . S
C2136 C2142 1.383 1_655 S
C2137 C2133 1.511 . S
C2137 H2143 0.959 . S
C2137 H2144 0.961 . S
C2137 H2145 0.960 . S
C2138 C2136 1.381 . S
C2138 C2139 1.394 . S
C2138 H2146 0.930 . S
C2139 C2138 1.394 . S
C2139 C2140 1.383 1_655 S
C2139 H2147 0.929 . S
C2140 C2139 1.383 1_455 S
C2140 C2141 1.377 . S
C2141 H2125 0.930 . S
C2141 C2140 1.377 . S
C2141 C2142 1.379 . S
C2142 H2126 0.931 . S
C2142 C2136 1.383 1_455 S
C2142 C2141 1.379 . S
H2143 C2137 0.959 . S
H2144 C2137 0.961 . S
H2145 C2137 0.960 . S
H2146 C2138 0.930 . S
H2147 C2139 0.929 . S
H2148 C2156 0.929 . S
H2149 C2158 0.930 . S
H2150 C2160 0.930 . S
H2151 C2163 0.929 . S
H2152 C2166 0.930 . S
H2153 C2168 0.960 . S
H2154 C2168 0.960 . S
H2155 C2168 0.960 . S
C2156 H2148 0.929 . S
C2156 C2157 1.377 . S
C2156 C2158 1.384 . S
C2157 C2156 1.377 . S
C2157 C2163 1.390 . S
C2158 H2149 0.930 . S
C2158 C2156 1.384 . S
C2158 C2159 1.372 . S
C2159 C2158 1.372 . S
C2159 C2160 1.400 . S
C2159 C2164 1.490 . S
C2160 H2150 0.930 . S
C2160 C2159 1.400 . S
C2160 C2163 1.386 . S
H2161 C2177 0.930 . S
H2162 C2178 0.931 . S
C2163 H2151 0.929 . S
C2163 C2157 1.390 . S
C2163 C2160 1.386 . S
C2164 C2159 1.490 . S
C2164 C2166 1.395 . S
C2164 C2167 1.403 . S
H2165 C2171 0.930 . S
C2166 H2152 0.930 . S
C2166 C2164 1.395 . S
C2166 C2169 1.403 . S
C2167 C2164 1.403 . S
C2167 C2168 1.524 . S
C2167 C2171 1.400 . S
C2168 H2153 0.960 . S
C2168 H2154 0.960 . S
C2168 H2155 0.960 . S
C2168 C2167 1.524 . S
C2169 C2166 1.403 . S
C2169 C2170 1.392 . S
C2169 C2173 1.495 . S
C2170 C2169 1.392 . S
C2170 C2171 1.385 . S
C2170 C2172 1.478 . S
C2171 H2165 0.930 . S
C2171 C2167 1.400 . S
C2171 C2170 1.385 . S
C2172 C2170 1.478 . S
C2172 C2174 1.381 . S
C2172 C2178 1.383 . S
C2173 C2169 1.495 . S
C2173 H2179 0.959 . S
C2173 H2180 0.961 . S
C2173 H2181 0.960 . S
C2174 C2172 1.381 . S
C2174 C2175 1.394 . S
C2174 H2182 0.930 . S
C2175 C2174 1.394 . S
C2175 C2176 1.383 . S
C2175 H2183 0.929 . S
C2176 C2175 1.383 . S
C2176 C2177 1.377 . S
C2177 H2161 0.930 . S
C2177 C2176 1.377 . S
C2177 C2178 1.379 . S
C2178 H2162 0.931 . S
C2178 C2172 1.383 . S
C2178 C2177 1.379 . S
H2179 C2173 0.959 . S
H2180 C2173 0.961 . S
H2181 C2173 0.960 . S
H2182 C2174 0.930 . S
H2183 C2175 0.929 . S
H2184 C2192 0.929 . S
H2185 C2194 0.930 . S
H2186 C2196 0.930 . S
H2187 C2199 0.929 . S
H2188 C2202 0.930 . S
H2189 C2204 0.960 . S
H2190 C2204 0.960 . S
H2191 C2204 0.960 . S
C2192 H2184 0.929 . S
C2192 C2193 1.377 . S
C2192 C2194 1.384 . S
C2193 C2192 1.377 . S
C2193 C2199 1.390 . S
C2194 H2185 0.930 . S
C2194 C2192 1.384 . S
C2194 C2195 1.372 . S
C2195 C2194 1.372 . S
C2195 C2196 1.400 . S
C2195 C2200 1.490 . S
C2196 H2186 0.930 . S
C2196 C2195 1.400 . S
C2196 C2199 1.386 . S
H2197 C2213 0.930 . S
H2198 C2214 0.931 . S
C2199 H2187 0.929 . S
C2199 C2193 1.390 . S
C2199 C2196 1.386 . S
C2200 C2195 1.490 . S
C2200 C2202 1.395 . S
C2200 C2203 1.403 . S
H2201 C2207 0.930 . S
C2202 H2188 0.930 . S
C2202 C2200 1.395 . S
C2202 C2205 1.403 . S
C2203 C2200 1.403 . S
C2203 C2204 1.524 . S
C2203 C2207 1.400 . S
C2204 H2189 0.960 . S
C2204 H2190 0.960 . S
C2204 H2191 0.960 . S
C2204 C2203 1.524 . S
C2205 C2202 1.403 . S
C2205 C2206 1.392 . S
C2205 C2209 1.495 . S
C2206 C2205 1.392 . S
C2206 C2207 1.385 . S
C2206 C2208 1.478 . S
C2207 H2201 0.930 . S
C2207 C2203 1.400 . S
C2207 C2206 1.385 . S
C2208 C2206 1.478 . S
C2208 C2210 1.381 . S
C2208 C2214 1.383 . S
C2209 C2205 1.495 . S
C2209 H2215 0.959 . S
C2209 H2216 0.961 . S
C2209 H2217 0.960 . S
C2210 C2208 1.381 . S
C2210 C2211 1.394 . S
C2210 H2218 0.930 . S
C2211 C2210 1.394 . S
C2211 C2212 1.383 . S
C2211 H2219 0.929 . S
C2212 C2211 1.383 . S
C2212 C2213 1.377 . S
C2213 H2197 0.930 . S
C2213 C2212 1.377 . S
C2213 C2214 1.379 . S
C2214 H2198 0.931 . S
C2214 C2208 1.383 . S
C2214 C2213 1.379 . S
H2215 C2209 0.959 . S
H2216 C2209 0.961 . S
H2217 C2209 0.960 . S
H2218 C2210 0.930 . S
H2219 C2211 0.929 . S
H2220 C2228 0.929 . S
H2221 C2230 0.930 . S
H2222 C2232 0.930 . S
H2223 C2235 0.929 . S
H2224 C2238 0.930 . S
H2225 C2240 0.960 . S
H2226 C2240 0.960 . S
H2227 C2240 0.960 . S
C2228 H2220 0.929 . S
C2228 C2229 1.377 . S
C2228 C2230 1.384 . S
C2229 C2228 1.377 . S
C2229 C2235 1.390 . S
C2230 H2221 0.930 . S
C2230 C2228 1.384 . S
C2230 C2231 1.372 . S
C2231 C2230 1.372 . S
C2231 C2232 1.400 . S
C2231 C2236 1.490 . S
C2232 H2222 0.930 . S
C2232 C2231 1.400 . S
C2232 C2235 1.386 . S
H2233 C2249 0.930 . S
H2234 C2250 0.931 . S
C2235 H2223 0.929 . S
C2235 C2229 1.390 . S
C2235 C2232 1.386 . S
C2236 C2231 1.490 . S
C2236 C2238 1.395 . S
C2236 C2239 1.403 . S
H2237 C2243 0.930 . S
C2238 H2224 0.930 . S
C2238 C2236 1.395 . S
C2238 C2241 1.403 . S
C2239 C2236 1.403 . S
C2239 C2240 1.524 . S
C2239 C2243 1.400 . S
C2240 H2225 0.960 . S
C2240 H2226 0.960 . S
C2240 H2227 0.960 . S
C2240 C2239 1.524 . S
C2241 C2238 1.403 . S
C2241 C2242 1.392 . S
C2241 C2245 1.495 . S
C2242 C2241 1.392 . S
C2242 C2243 1.385 . S
C2242 C2244 1.478 . S
C2243 H2237 0.930 . S
C2243 C2239 1.400 . S
C2243 C2242 1.385 . S
C2244 C2242 1.478 . S
C2244 C2246 1.381 . S
C2244 C2250 1.383 . S
C2245 C2241 1.495 . S
C2245 H2251 0.959 . S
C2245 H2252 0.961 . S
C2245 H2253 0.960 . S
C2246 C2244 1.381 . S
C2246 C2247 1.394 . S
C2246 H2254 0.930 . S
C2247 C2246 1.394 . S
C2247 C2248 1.383 . S
C2247 H2255 0.929 . S
C2248 C2247 1.383 . S
C2248 C2249 1.377 . S
C2249 H2233 0.930 . S
C2249 C2248 1.377 . S
C2249 C2250 1.379 . S
C2250 H2234 0.931 . S
C2250 C2244 1.383 . S
C2250 C2249 1.379 . S
H2251 C2245 0.959 . S
H2252 C2245 0.961 . S
H2253 C2245 0.960 . S
H2254 C2246 0.930 . S
H2255 C2247 0.929 . S
H2256 C2264 0.929 . S
H2257 C2266 0.930 . S
H2258 C2268 0.930 . S
H2259 C2271 0.929 . S
H2260 C2274 0.930 . S
H2261 C2276 0.960 . S
H2262 C2276 0.960 . S
H2263 C2276 0.938 1_556 S
C2264 H2256 0.929 . S
C2264 C2265 1.377 1_554 S
C2264 C2266 1.384 . S
C2265 C2264 1.377 1_556 S
C2265 C2271 1.390 . S
C2266 H2257 0.930 . S
C2266 C2264 1.384 . S
C2266 C2267 1.372 . S
C2267 C2266 1.372 . S
C2267 C2268 1.400 1_554 S
C2267 C2272 1.490 . S
C2268 H2258 0.930 . S
C2268 C2267 1.400 1_556 S
C2268 C2271 1.386 . S
H2269 C2285 0.930 1_556 S
H2270 C2286 0.955 . S
C2271 H2259 0.929 . S
C2271 C2265 1.390 . S
C2271 C2268 1.386 . S
C2272 C2267 1.490 . S
C2272 C2274 1.395 . S
C2272 C2275 1.403 . S
H2273 C2279 0.930 . S
C2274 H2260 0.930 . S
C2274 C2272 1.395 . S
C2274 C2277 1.403 . S
C2275 C2272 1.403 . S
C2275 C2276 1.524 . S
C2275 C2279 1.400 . S
C2276 H2261 0.960 . S
C2276 H2262 0.960 . S
C2276 H2263 0.938 1_554 S
C2276 C2275 1.524 . S
C2277 C2274 1.403 . S
C2277 C2278 1.392 . S
C2277 C2281 1.495 1_565 S
C2278 C2277 1.392 . S
C2278 C2279 1.385 . S
C2278 C2280 1.478 . S
C2279 H2273 0.930 . S
C2279 C2275 1.400 . S
C2279 C2278 1.385 . S
C2280 C2278 1.478 . S
C2280 C2282 1.381 . S
C2280 C2286 1.365 1_554 S
C2281 C2277 1.495 1_545 S
C2281 H2287 0.959 . S
C2281 H2288 0.961 1_554 S
C2281 H2289 0.960 . S
C2282 C2280 1.381 . S
C2282 C2283 1.394 1_565 S
C2282 H2290 0.930 1_565 S
C2283 C2282 1.394 1_545 S
C2283 C2284 1.383 1_545 S
C2283 H2291 0.929 . S
C2284 C2283 1.383 1_565 S
C2284 C2285 1.377 . S
C2285 H2269 0.930 1_554 S
C2285 C2284 1.377 . S
C2285 C2286 1.374 1_554 S
C2286 H2270 0.955 . S
C2286 C2280 1.365 1_556 S
C2286 C2285 1.374 1_556 S
H2287 C2281 0.959 . S
H2288 C2281 0.961 1_556 S
H2289 C2281 0.960 . S
H2290 C2282 0.930 1_545 S
H2291 C2283 0.929 . S
H2292 C2300 0.929 . S
H2293 C2302 0.930 . S
H2294 C2304 0.930 . S
H2295 C2307 0.929 . S
H2296 C2310 0.930 . S
H2297 C2312 0.960 . S
H2298 C2312 0.960 . S
H2299 C2312 0.960 . S
C2300 H2292 0.929 . S
C2300 C2301 1.376 1_556 S
C2300 C2302 1.384 . S
C2301 C2300 1.376 1_554 S
C2301 C2307 1.407 . S
C2302 H2293 0.930 . S
C2302 C2300 1.384 . S
C2302 C2303 1.372 1_556 S
C2303 C2302 1.372 1_554 S
C2303 C2304 1.400 . S
C2303 C2308 1.490 . S
C2304 H2294 0.930 . S
C2304 C2303 1.400 . S
C2304 C2307 1.386 . S
H2305 C2321 0.930 . S
H2306 C2322 0.931 . S
C2307 H2295 0.929 . S
C2307 C2301 1.407 . S
C2307 C2304 1.386 . S
C2308 C2303 1.490 . S
C2308 C2310 1.395 . S
C2308 C2311 1.403 1_554 S
H2309 C2315 0.930 . S
C2310 H2296 0.930 . S
C2310 C2308 1.395 . S
C2310 C2313 1.403 . S
C2311 C2308 1.403 1_556 S
C2311 C2312 1.524 . S
C2311 C2315 1.400 . S
C2312 H2297 0.960 . S
C2312 H2298 0.960 . S
C2312 H2299 0.960 . S
C2312 C2311 1.524 . S
C2313 C2310 1.403 . S
C2313 C2314 1.392 . S
C2313 C2317 1.495 . S
C2314 C2313 1.392 . S
C2314 C2315 1.385 1_554 S
C2314 C2316 1.478 . S
C2315 H2309 0.930 . S
C2315 C2311 1.400 . S
C2315 C2314 1.385 1_556 S
C2316 C2314 1.478 . S
C2316 C2318 1.381 . S
C2316 C2322 1.383 . S
C2317 C2313 1.495 . S
C2317 H2323 0.959 . S
C2317 H2324 0.961 . S
C2317 H2325 0.960 . S
C2318 C2316 1.381 . S
C2318 C2319 1.394 . S
C2318 H2326 0.930 . S
C2319 C2318 1.394 . S
C2319 C2320 1.383 . S
C2319 H2327 0.929 1_554 S
C2320 C2319 1.383 . S
C2320 C2321 1.377 . S
C2321 H2305 0.930 . S
C2321 C2320 1.377 . S
C2321 C2322 1.379 . S
C2322 H2306 0.931 . S
C2322 C2316 1.383 . S
C2322 C2321 1.379 . S
H2323 C2317 0.959 . S
H2324 C2317 0.961 . S
H2325 C2317 0.960 . S
H2326 C2318 0.930 . S
H2327 C2319 0.929 1_556 S
H2328 C2336 0.929 . S
H2329 C2338 0.930 . S
H2330 C2340 0.930 . S
H2331 C2343 0.929 . S
H2332 C2346 0.930 . S
H2333 C2348 0.960 . S
H2334 C2348 0.960 . S
H2335 C2348 0.960 . S
C2336 H2328 0.929 . S
C2336 C2337 1.377 . S
C2336 C2338 1.384 . S
C2337 C2336 1.377 . S
C2337 C2343 1.390 . S
C2338 H2329 0.930 . S
C2338 C2336 1.384 . S
C2338 C2339 1.372 . S
C2339 C2338 1.372 . S
C2339 C2340 1.400 . S
C2339 C2344 1.490 . S
C2340 H2330 0.930 . S
C2340 C2339 1.400 . S
C2340 C2343 1.386 . S
H2341 C2357 0.930 . S
H2342 C2358 0.931 . S
C2343 H2331 0.929 . S
C2343 C2337 1.390 . S
C2343 C2340 1.386 . S
C2344 C2339 1.490 . S
C2344 C2346 1.395 . S
C2344 C2347 1.403 . S
H2345 C2351 0.930 . S
C2346 H2332 0.930 . S
C2346 C2344 1.395 . S
C2346 C2349 1.403 . S
C2347 C2344 1.403 . S
C2347 C2348 1.524 . S
C2347 C2351 1.400 . S
C2348 H2333 0.960 . S
C2348 H2334 0.960 . S
C2348 H2335 0.960 . S
C2348 C2347 1.524 . S
C2349 C2346 1.403 . S
C2349 C2350 1.392 . S
C2349 C2353 1.495 . S
C2350 C2349 1.392 . S
C2350 C2351 1.385 . S
C2350 C2352 1.478 . S
C2351 H2345 0.930 . S
C2351 C2347 1.400 . S
C2351 C2350 1.385 . S
C2352 C2350 1.478 . S
C2352 C2354 1.381 . S
C2352 C2358 1.383 . S
C2353 C2349 1.495 . S
C2353 H2359 0.959 . S
C2353 H2360 0.961 . S
C2353 H2361 0.960 . S
C2354 C2352 1.381 . S
C2354 C2355 1.394 . S
C2354 H2362 0.930 . S
C2355 C2354 1.394 . S
C2355 C2356 1.383 . S
C2355 H2363 0.929 . S
C2356 C2355 1.383 . S
C2356 C2357 1.377 . S
C2357 H2341 0.930 . S
C2357 C2356 1.377 . S
C2357 C2358 1.379 . S
C2358 H2342 0.931 . S
C2358 C2352 1.383 . S
C2358 C2357 1.379 . S
H2359 C2353 0.959 . S
H2360 C2353 0.961 . S
H2361 C2353 0.960 . S
H2362 C2354 0.930 . S
H2363 C2355 0.929 . S
H2364 C2372 0.929 . S
H2365 C2374 0.930 . S
H2366 C2376 0.930 . S
H2367 C2379 0.929 . S
H2368 C2382 0.930 . S
H2369 C2384 0.960 . S
H2370 C2384 0.960 . S
H2371 C2384 0.960 . S
C2372 H2364 0.929 . S
C2372 C2373 1.377 . S
C2372 C2374 1.384 . S
C2373 C2372 1.377 . S
C2373 C2379 1.390 . S
C2374 H2365 0.930 . S
C2374 C2372 1.384 . S
C2374 C2375 1.372 . S
C2375 C2374 1.372 . S
C2375 C2376 1.400 . S
C2375 C2380 1.490 . S
C2376 H2366 0.930 . S
C2376 C2375 1.400 . S
C2376 C2379 1.386 . S
H2377 C2393 0.930 . S
H2378 C2394 0.931 . S
C2379 H2367 0.929 . S
C2379 C2373 1.390 . S
C2379 C2376 1.386 . S
C2380 C2375 1.490 . S
C2380 C2382 1.395 . S
C2380 C2383 1.403 . S
H2381 C2387 0.930 . S
C2382 H2368 0.930 . S
C2382 C2380 1.395 . S
C2382 C2385 1.403 . S
C2383 C2380 1.403 . S
C2383 C2384 1.524 . S
C2383 C2387 1.400 . S
C2384 H2369 0.960 . S
C2384 H2370 0.960 . S
C2384 H2371 0.960 . S
C2384 C2383 1.524 . S
C2385 C2382 1.403 . S
C2385 C2386 1.392 . S
C2385 C2389 1.495 . S
C2386 C2385 1.392 . S
C2386 C2387 1.385 . S
C2386 C2388 1.478 . S
C2387 H2381 0.930 . S
C2387 C2383 1.400 . S
C2387 C2386 1.385 . S
C2388 C2386 1.478 . S
C2388 C2390 1.381 . S
C2388 C2394 1.383 . S
C2389 C2385 1.495 . S
C2389 H2395 0.959 . S
C2389 H2396 0.961 . S
C2389 H2397 0.960 . S
C2390 C2388 1.381 . S
C2390 C2391 1.394 . S
C2390 H2398 0.930 . S
C2391 C2390 1.394 . S
C2391 C2392 1.383 . S
C2391 H2399 0.929 . S
C2392 C2391 1.383 . S
C2392 C2393 1.377 . S
C2393 H2377 0.930 . S
C2393 C2392 1.377 . S
C2393 C2394 1.379 . S
C2394 H2378 0.931 . S
C2394 C2388 1.383 . S
C2394 C2393 1.379 . S
H2395 C2389 0.959 . S
H2396 C2389 0.961 . S
H2397 C2389 0.960 . S
H2398 C2390 0.930 . S
H2399 C2391 0.929 . S
H2400 C2408 0.929 . S
H2401 C2410 0.930 . S
H2402 C2412 0.930 . S
H2403 C2415 0.929 . S
H2404 C2418 0.930 . S
H2405 C2420 0.960 . S
H2406 C2420 0.960 . S
H2407 C2420 0.960 . S
C2408 H2400 0.929 . S
C2408 C2409 1.377 . S
C2408 C2410 1.384 . S
C2409 C2408 1.377 . S
C2409 C2415 1.390 . S
C2410 H2401 0.930 . S
C2410 C2408 1.384 . S
C2410 C2411 1.372 . S
C2411 C2410 1.372 . S
C2411 C2412 1.400 . S
C2411 C2416 1.490 . S
C2412 H2402 0.930 . S
C2412 C2411 1.400 . S
C2412 C2415 1.386 . S
H2413 C2429 0.930 . S
H2414 C2430 0.931 . S
C2415 H2403 0.929 . S
C2415 C2409 1.390 . S
C2415 C2412 1.386 . S
C2416 C2411 1.490 . S
C2416 C2418 1.395 . S
C2416 C2419 1.403 . S
H2417 C2423 0.930 . S
C2418 H2404 0.930 . S
C2418 C2416 1.395 . S
C2418 C2421 1.403 . S
C2419 C2416 1.403 . S
C2419 C2420 1.524 . S
C2419 C2423 1.400 . S
C2420 H2405 0.960 . S
C2420 H2406 0.960 . S
C2420 H2407 0.960 . S
C2420 C2419 1.524 . S
C2421 C2418 1.403 . S
C2421 C2422 1.392 . S
C2421 C2425 1.495 . S
C2422 C2421 1.392 . S
C2422 C2423 1.385 . S
C2422 C2424 1.478 . S
C2423 H2417 0.930 . S
C2423 C2419 1.400 . S
C2423 C2422 1.385 . S
C2424 C2422 1.478 . S
C2424 C2426 1.381 . S
C2424 C2430 1.383 . S
C2425 C2421 1.495 . S
C2425 H2431 0.959 . S
C2425 H2432 0.961 . S
C2425 H2433 0.960 . S
C2426 C2424 1.381 . S
C2426 C2427 1.394 . S
C2426 H2434 0.930 . S
C2427 C2426 1.394 . S
C2427 C2428 1.383 . S
C2427 H2435 0.929 . S
C2428 C2427 1.383 . S
C2428 C2429 1.377 . S
C2429 H2413 0.930 . S
C2429 C2428 1.377 . S
C2429 C2430 1.379 . S
C2430 H2414 0.931 . S
C2430 C2424 1.383 . S
C2430 C2429 1.379 . S
H2431 C2425 0.959 . S
H2432 C2425 0.961 . S
H2433 C2425 0.960 . S
H2434 C2426 0.930 . S
H2435 C2427 0.929 . S
H2436 C2444 0.929 . S
H2437 C2446 0.930 . S
H2438 C2448 0.930 . S
H2439 C2451 0.929 . S
H2440 C2454 0.930 . S
H2441 C2456 0.960 . S
H2442 C2456 0.960 . S
H2443 C2456 0.960 . S
C2444 H2436 0.929 . S
C2444 C2445 1.377 . S
C2444 C2446 1.384 . S
C2445 C2444 1.377 . S
C2445 C2451 1.390 . S
C2446 H2437 0.930 . S
C2446 C2444 1.384 . S
C2446 C2447 1.372 . S
C2447 C2446 1.372 . S
C2447 C2448 1.400 . S
C2447 C2452 1.490 . S
C2448 H2438 0.930 . S
C2448 C2447 1.400 . S
C2448 C2451 1.386 . S
H2449 C2465 0.930 . S
H2450 C2466 0.931 . S
C2451 H2439 0.929 . S
C2451 C2445 1.390 . S
C2451 C2448 1.386 . S
C2452 C2447 1.490 . S
C2452 C2454 1.395 . S
C2452 C2455 1.403 . S
H2453 C2459 0.930 . S
C2454 H2440 0.930 . S
C2454 C2452 1.395 . S
C2454 C2457 1.403 . S
C2455 C2452 1.403 . S
C2455 C2456 1.524 . S
C2455 C2459 1.400 . S
C2456 H2441 0.960 . S
C2456 H2442 0.960 . S
C2456 H2443 0.960 . S
C2456 C2455 1.524 . S
C2457 C2454 1.403 . S
C2457 C2458 1.392 . S
C2457 C2461 1.495 . S
C2458 C2457 1.392 . S
C2458 C2459 1.385 . S
C2458 C2460 1.478 . S
C2459 H2453 0.930 . S
C2459 C2455 1.400 . S
C2459 C2458 1.385 . S
C2460 C2458 1.478 . S
C2460 C2462 1.381 . S
C2460 C2466 1.383 . S
C2461 C2457 1.495 . S
C2461 H2467 0.959 . S
C2461 H2468 0.961 . S
C2461 H2469 0.960 . S
C2462 C2460 1.381 . S
C2462 C2463 1.394 . S
C2462 H2470 0.930 . S
C2463 C2462 1.394 . S
C2463 C2464 1.383 . S
C2463 H2471 0.929 . S
C2464 C2463 1.383 . S
C2464 C2465 1.377 . S
C2465 H2449 0.930 . S
C2465 C2464 1.377 . S
C2465 C2466 1.379 . S
C2466 H2450 0.931 . S
C2466 C2460 1.383 . S
C2466 C2465 1.379 . S
H2467 C2461 0.959 . S
H2468 C2461 0.961 . S
H2469 C2461 0.960 . S
H2470 C2462 0.930 . S
H2471 C2463 0.929 . S
H2472 C2480 0.929 . S
H2473 C2482 0.930 . S
H2474 C2484 0.930 . S
H2475 C2487 0.929 . S
H2476 C2490 0.930 . S
H2477 C2492 0.960 . S
H2478 C2492 0.960 . S
H2479 C2492 0.960 . S
C2480 H2472 0.929 . S
C2480 C2481 1.377 . S
C2480 C2482 1.384 . S
C2481 C2480 1.377 . S
C2481 C2487 1.390 . S
C2482 H2473 0.930 . S
C2482 C2480 1.384 . S
C2482 C2483 1.372 . S
C2483 C2482 1.372 . S
C2483 C2484 1.400 . S
C2483 C2488 1.490 . S
C2484 H2474 0.930 . S
C2484 C2483 1.400 . S
C2484 C2487 1.386 . S
H2485 C2501 0.930 . S
H2486 C2502 0.931 . S
C2487 H2475 0.929 . S
C2487 C2481 1.390 . S
C2487 C2484 1.386 . S
C2488 C2483 1.490 . S
C2488 C2490 1.395 . S
C2488 C2491 1.403 . S
H2489 C2495 0.930 . S
C2490 H2476 0.930 . S
C2490 C2488 1.395 . S
C2490 C2493 1.403 . S
C2491 C2488 1.403 . S
C2491 C2492 1.524 . S
C2491 C2495 1.400 . S
C2492 H2477 0.960 . S
C2492 H2478 0.960 . S
C2492 H2479 0.960 . S
C2492 C2491 1.524 . S
C2493 C2490 1.403 . S
C2493 C2494 1.392 . S
C2493 C2497 1.495 . S
C2494 C2493 1.392 . S
C2494 C2495 1.385 . S
C2494 C2496 1.478 . S
C2495 H2489 0.930 . S
C2495 C2491 1.400 . S
C2495 C2494 1.385 . S
C2496 C2494 1.478 . S
C2496 C2498 1.381 . S
C2496 C2502 1.383 . S
C2497 C2493 1.495 . S
C2497 H2503 0.959 . S
C2497 H2504 0.961 . S
C2497 H2505 0.960 . S
C2498 C2496 1.381 . S
C2498 C2499 1.394 . S
C2498 H2506 0.930 . S
C2499 C2498 1.394 . S
C2499 C2500 1.383 . S
C2499 H2507 0.929 . S
C2500 C2499 1.383 . S
C2500 C2501 1.377 . S
C2501 H2485 0.930 . S
C2501 C2500 1.377 . S
C2501 C2502 1.379 . S
C2502 H2486 0.931 . S
C2502 C2496 1.383 . S
C2502 C2501 1.379 . S
H2503 C2497 0.959 . S
H2504 C2497 0.961 . S
H2505 C2497 0.960 . S
H2506 C2498 0.930 . S
H2507 C2499 0.929 . S
H2508 C2516 0.929 . S
H2509 C2518 0.930 . S
H2510 C2520 0.930 . S
H2511 C2523 0.929 . S
H2512 C2526 0.930 . S
H2513 C2528 0.960 . S
H2514 C2528 0.960 . S
H2515 C2528 0.960 . S
C2516 H2508 0.929 . S
C2516 C2517 1.377 . S
C2516 C2518 1.384 . S
C2517 C2516 1.377 . S
C2517 C2523 1.390 . S
C2518 H2509 0.930 . S
C2518 C2516 1.384 . S
C2518 C2519 1.372 . S
C2519 C2518 1.372 . S
C2519 C2520 1.400 . S
C2519 C2524 1.490 . S
C2520 H2510 0.930 . S
C2520 C2519 1.400 . S
C2520 C2523 1.386 . S
H2521 C2537 0.930 . S
H2522 C2538 0.931 . S
C2523 H2511 0.929 . S
C2523 C2517 1.390 . S
C2523 C2520 1.386 . S
C2524 C2519 1.490 . S
C2524 C2526 1.395 . S
C2524 C2527 1.403 . S
H2525 C2531 0.930 . S
C2526 H2512 0.930 . S
C2526 C2524 1.395 . S
C2526 C2529 1.403 . S
C2527 C2524 1.403 . S
C2527 C2528 1.524 . S
C2527 C2531 1.400 . S
C2528 H2513 0.960 . S
C2528 H2514 0.960 . S
C2528 H2515 0.960 . S
C2528 C2527 1.524 . S
C2529 C2526 1.403 . S
C2529 C2530 1.392 . S
C2529 C2533 1.495 . S
C2530 C2529 1.392 . S
C2530 C2531 1.385 . S
C2530 C2532 1.478 . S
C2531 H2525 0.930 . S
C2531 C2527 1.400 . S
C2531 C2530 1.385 . S
C2532 C2530 1.478 . S
C2532 C2534 1.381 . S
C2532 C2538 1.383 . S
C2533 C2529 1.495 . S
C2533 H2539 0.959 . S
C2533 H2540 0.961 . S
C2533 H2541 0.960 . S
C2534 C2532 1.381 . S
C2534 C2535 1.394 . S
C2534 H2542 0.930 . S
C2535 C2534 1.394 . S
C2535 C2536 1.383 . S
C2535 H2543 0.929 . S
C2536 C2535 1.383 . S
C2536 C2537 1.377 . S
C2537 H2521 0.930 . S
C2537 C2536 1.377 . S
C2537 C2538 1.379 . S
C2538 H2522 0.931 . S
C2538 C2532 1.383 . S
C2538 C2537 1.379 . S
H2539 C2533 0.959 . S
H2540 C2533 0.961 . S
H2541 C2533 0.960 . S
H2542 C2534 0.930 . S
H2543 C2535 0.929 . S
H2544 C2552 0.929 . S
H2545 C2554 0.930 . S
H2546 C2556 0.930 . S
H2547 C2559 0.929 . S
H2548 C2562 0.930 . S
H2549 C2564 0.960 1_655 S
H2550 C2564 0.960 . S
H2551 C2564 0.960 . S
C2552 H2544 0.929 . S
C2552 C2553 1.377 . S
C2552 C2554 1.384 . S
C2553 C2552 1.377 . S
C2553 C2559 1.390 . S
C2554 H2545 0.930 . S
C2554 C2552 1.384 . S
C2554 C2555 1.372 . S
C2555 C2554 1.372 . S
C2555 C2556 1.400 . S
C2555 C2560 1.490 . S
C2556 H2546 0.930 . S
C2556 C2555 1.400 . S
C2556 C2559 1.386 . S
H2557 C2573 0.905 1_556 S
H2558 C2574 0.931 . S
C2559 H2547 0.929 . S
C2559 C2553 1.390 . S
C2559 C2556 1.386 . S
C2560 C2555 1.490 . S
C2560 C2562 1.395 . S
C2560 C2563 1.403 . S
H2561 C2567 0.930 . S
C2562 H2548 0.930 . S
C2562 C2560 1.395 . S
C2562 C2565 1.403 . S
C2563 C2560 1.403 . S
C2563 C2564 1.524 . S
C2563 C2567 1.400 . S
C2564 H2549 0.960 1_455 S
C2564 H2550 0.960 . S
C2564 H2551 0.960 . S
C2564 C2563 1.524 . S
C2565 C2562 1.403 . S
C2565 C2566 1.392 . S
C2565 C2569 1.495 . S
C2566 C2565 1.392 . S
C2566 C2567 1.385 . S
C2566 C2568 1.478 . S
C2567 H2561 0.930 . S
C2567 C2563 1.400 . S
C2567 C2566 1.385 . S
C2568 C2566 1.478 . S
C2568 C2570 1.381 . S
C2568 C2574 1.383 . S
C2569 C2565 1.495 . S
C2569 H2575 0.959 . S
C2569 H2576 0.961 . S
C2569 H2577 0.960 . S
C2570 C2568 1.381 . S
C2570 C2571 1.394 . S
C2570 H2578 0.930 . S
C2571 C2570 1.394 . S
C2571 C2572 1.383 . S
C2571 H2579 0.929 . S
C2572 C2571 1.383 . S
C2572 C2573 1.377 . S
C2573 H2557 0.905 1_554 S
C2573 C2572 1.377 . S
C2573 C2574 1.379 . S
C2574 H2558 0.931 . S
C2574 C2568 1.383 . S
C2574 C2573 1.379 . S
H2575 C2569 0.959 . S
H2576 C2569 0.961 . S
H2577 C2569 0.960 . S
H2578 C2570 0.930 . S
H2579 C2571 0.929 . S
H2580 C2588 0.929 . S
H2581 C2590 0.930 . S
H2582 C2592 0.930 . S
H2583 C2595 0.929 . S
H2584 C2598 0.930 . S
H2585 C2600 0.960 . S
H2586 C2600 0.960 . S
H2587 C2600 0.960 . S
C2588 H2580 0.929 . S
C2588 C2589 1.377 . S
C2588 C2590 1.384 . S
C2589 C2588 1.377 . S
C2589 C2595 1.390 . S
C2590 H2581 0.930 . S
C2590 C2588 1.384 . S
C2590 C2591 1.372 . S
C2591 C2590 1.372 . S
C2591 C2592 1.400 . S
C2591 C2596 1.490 . S
C2592 H2582 0.930 . S
C2592 C2591 1.400 . S
C2592 C2595 1.386 . S
H2593 C2609 0.930 . S
H2594 C2610 0.931 . S
C2595 H2583 0.929 . S
C2595 C2589 1.390 . S
C2595 C2592 1.386 . S
C2596 C2591 1.490 . S
C2596 C2598 1.395 . S
C2596 C2599 1.403 . S
H2597 C2603 0.930 . S
C2598 H2584 0.930 . S
C2598 C2596 1.395 . S
C2598 C2601 1.403 . S
C2599 C2596 1.403 . S
C2599 C2600 1.524 . S
C2599 C2603 1.400 . S
C2600 H2585 0.960 . S
C2600 H2586 0.960 . S
C2600 H2587 0.960 . S
C2600 C2599 1.524 . S
C2601 C2598 1.403 . S
C2601 C2602 1.392 . S
C2601 C2605 1.495 . S
C2602 C2601 1.392 . S
C2602 C2603 1.385 . S
C2602 C2604 1.478 . S
C2603 H2597 0.930 . S
C2603 C2599 1.400 . S
C2603 C2602 1.385 . S
C2604 C2602 1.478 . S
C2604 C2606 1.381 . S
C2604 C2610 1.383 . S
C2605 C2601 1.495 . S
C2605 H2611 0.959 . S
C2605 H2612 0.961 . S
C2605 H2613 0.960 . S
C2606 C2604 1.381 . S
C2606 C2607 1.394 . S
C2606 H2614 0.930 . S
C2607 C2606 1.394 . S
C2607 C2608 1.383 . S
C2607 H2615 0.929 . S
C2608 C2607 1.383 . S
C2608 C2609 1.377 . S
C2609 H2593 0.930 . S
C2609 C2608 1.377 . S
C2609 C2610 1.379 . S
C2610 H2594 0.931 . S
C2610 C2604 1.383 . S
C2610 C2609 1.379 . S
H2611 C2605 0.959 . S
H2612 C2605 0.961 . S
H2613 C2605 0.960 . S
H2614 C2606 0.930 . S
H2615 C2607 0.929 . S
H2616 C2624 0.929 . S
H2617 C2626 0.930 . S
H2618 C2628 0.930 . S
H2619 C2631 0.929 . S
H2620 C2634 0.930 . S
H2621 C2636 0.960 . S
H2622 C2636 0.960 . S
H2623 C2636 0.960 . S
C2624 H2616 0.929 . S
C2624 C2625 1.377 . S
C2624 C2626 1.384 . S
C2625 C2624 1.377 . S
C2625 C2631 1.390 . S
C2626 H2617 0.930 . S
C2626 C2624 1.384 . S
C2626 C2627 1.372 . S
C2627 C2626 1.372 . S
C2627 C2628 1.400 . S
C2627 C2632 1.490 . S
C2628 H2618 0.930 . S
C2628 C2627 1.400 . S
C2628 C2631 1.386 . S
H2629 C2645 0.930 . S
H2630 C2646 0.931 . S
C2631 H2619 0.929 . S
C2631 C2625 1.390 . S
C2631 C2628 1.386 . S
C2632 C2627 1.490 . S
C2632 C2634 1.395 . S
C2632 C2635 1.403 . S
H2633 C2639 0.930 . S
C2634 H2620 0.930 . S
C2634 C2632 1.395 . S
C2634 C2637 1.403 . S
C2635 C2632 1.403 . S
C2635 C2636 1.524 . S
C2635 C2639 1.400 . S
C2636 H2621 0.960 . S
C2636 H2622 0.960 . S
C2636 H2623 0.960 . S
C2636 C2635 1.524 . S
C2637 C2634 1.403 . S
C2637 C2638 1.392 . S
C2637 C2641 1.495 . S
C2638 C2637 1.392 . S
C2638 C2639 1.385 . S
C2638 C2640 1.478 . S
C2639 H2633 0.930 . S
C2639 C2635 1.400 . S
C2639 C2638 1.385 . S
C2640 C2638 1.478 . S
C2640 C2642 1.381 . S
C2640 C2646 1.383 . S
C2641 C2637 1.495 . S
C2641 H2647 0.959 . S
C2641 H2648 0.961 . S
C2641 H2649 0.960 . S
C2642 C2640 1.381 . S
C2642 C2643 1.394 . S
C2642 H2650 0.930 . S
C2643 C2642 1.394 . S
C2643 C2644 1.383 . S
C2643 H2651 0.929 . S
C2644 C2643 1.383 . S
C2644 C2645 1.377 . S
C2645 H2629 0.930 . S
C2645 C2644 1.377 . S
C2645 C2646 1.379 . S
C2646 H2630 0.931 . S
C2646 C2640 1.383 . S
C2646 C2645 1.379 . S
H2647 C2641 0.959 . S
H2648 C2641 0.961 . S
H2649 C2641 0.960 . S
H2650 C2642 0.930 . S
H2651 C2643 0.929 . S
H2652 C2660 0.929 . S
H2653 C2662 0.930 . S
H2654 C2664 0.930 . S
H2655 C2667 0.929 . S
H2656 C2670 0.930 . S
H2657 C2672 0.960 . S
H2658 C2672 0.960 . S
H2659 C2672 0.960 . S
C2660 H2652 0.929 . S
C2660 C2661 1.377 . S
C2660 C2662 1.384 . S
C2661 C2660 1.377 . S
C2661 C2667 1.390 . S
C2662 H2653 0.930 . S
C2662 C2660 1.384 . S
C2662 C2663 1.372 . S
C2663 C2662 1.372 . S
C2663 C2664 1.400 . S
C2663 C2668 1.490 . S
C2664 H2654 0.930 . S
C2664 C2663 1.400 . S
C2664 C2667 1.386 . S
H2665 C2681 0.930 . S
H2666 C2682 0.931 . S
C2667 H2655 0.929 . S
C2667 C2661 1.390 . S
C2667 C2664 1.386 . S
C2668 C2663 1.490 . S
C2668 C2670 1.395 . S
C2668 C2671 1.403 . S
H2669 C2675 0.930 . S
C2670 H2656 0.930 . S
C2670 C2668 1.395 . S
C2670 C2673 1.403 . S
C2671 C2668 1.403 . S
C2671 C2672 1.524 . S
C2671 C2675 1.400 . S
C2672 H2657 0.960 . S
C2672 H2658 0.960 . S
C2672 H2659 0.960 . S
C2672 C2671 1.524 . S
C2673 C2670 1.403 . S
C2673 C2674 1.392 . S
C2673 C2677 1.495 . S
C2674 C2673 1.392 . S
C2674 C2675 1.385 . S
C2674 C2676 1.478 . S
C2675 H2669 0.930 . S
C2675 C2671 1.400 . S
C2675 C2674 1.385 . S
C2676 C2674 1.478 . S
C2676 C2678 1.381 . S
C2676 C2682 1.383 . S
C2677 C2673 1.495 . S
C2677 H2683 0.959 . S
C2677 H2684 0.961 . S
C2677 H2685 0.960 . S
C2678 C2676 1.381 . S
C2678 C2679 1.394 . S
C2678 H2686 0.930 . S
C2679 C2678 1.394 . S
C2679 C2680 1.383 . S
C2679 H2687 0.929 . S
C2680 C2679 1.383 . S
C2680 C2681 1.377 . S
C2681 H2665 0.930 . S
C2681 C2680 1.377 . S
C2681 C2682 1.379 . S
C2682 H2666 0.931 . S
C2682 C2676 1.383 . S
C2682 C2681 1.379 . S
H2683 C2677 0.959 . S
H2684 C2677 0.961 . S
H2685 C2677 0.960 . S
H2686 C2678 0.930 . S
H2687 C2679 0.929 . S
H2688 C2696 0.929 . S
H2689 C2698 0.930 . S
H2690 C2700 0.930 . S
H2691 C2703 0.929 . S
H2692 C2706 0.930 . S
H2693 C2708 0.960 . S
H2694 C2708 0.960 . S
H2695 C2708 0.960 . S
C2696 H2688 0.929 . S
C2696 C2697 1.377 . S
C2696 C2698 1.384 . S
C2697 C2696 1.377 . S
C2697 C2703 1.390 . S
C2698 H2689 0.930 . S
C2698 C2696 1.384 . S
C2698 C2699 1.372 . S
C2699 C2698 1.372 . S
C2699 C2700 1.400 . S
C2699 C2704 1.490 . S
C2700 H2690 0.930 . S
C2700 C2699 1.400 . S
C2700 C2703 1.386 . S
H2701 C2717 0.930 . S
H2702 C2718 0.931 . S
C2703 H2691 0.929 . S
C2703 C2697 1.390 . S
C2703 C2700 1.386 . S
C2704 C2699 1.490 . S
C2704 C2706 1.395 . S
C2704 C2707 1.403 . S
H2705 C2711 0.930 . S
C2706 H2692 0.930 . S
C2706 C2704 1.395 . S
C2706 C2709 1.403 . S
C2707 C2704 1.403 . S
C2707 C2708 1.524 1_455 S
C2707 C2711 1.400 . S
C2708 H2693 0.960 . S
C2708 H2694 0.960 . S
C2708 H2695 0.960 . S
C2708 C2707 1.524 1_655 S
C2709 C2706 1.403 . S
C2709 C2710 1.392 . S
C2709 C2713 1.495 . S
C2710 C2709 1.392 . S
C2710 C2711 1.385 . S
C2710 C2712 1.478 . S
C2711 H2705 0.930 . S
C2711 C2707 1.400 . S
C2711 C2710 1.385 . S
C2712 C2710 1.478 . S
C2712 C2714 1.381 . S
C2712 C2718 1.383 . S
C2713 C2709 1.495 . S
C2713 H2719 0.959 . S
C2713 H2720 0.961 . S
C2713 H2721 0.960 . S
C2714 C2712 1.381 . S
C2714 C2715 1.394 . S
C2714 H2722 0.930 . S
C2715 C2714 1.394 . S
C2715 C2716 1.383 . S
C2715 H2723 0.929 . S
C2716 C2715 1.383 . S
C2716 C2717 1.377 . S
C2717 H2701 0.930 . S
C2717 C2716 1.377 . S
C2717 C2718 1.379 . S
C2718 H2702 0.931 . S
C2718 C2712 1.383 . S
C2718 C2717 1.379 . S
H2719 C2713 0.959 . S
H2720 C2713 0.961 . S
H2721 C2713 0.960 . S
H2722 C2714 0.930 . S
H2723 C2715 0.929 . S
H2724 C2732 0.929 . S
H2725 C2734 0.930 . S
H2726 C2736 0.930 . S
H2727 C2739 0.929 . S
H2728 C2742 0.930 . S
H2729 C2744 0.960 . S
H2730 C2744 0.960 . S
H2731 C2744 0.960 . S
C2732 H2724 0.929 . S
C2732 C2733 1.377 . S
C2732 C2734 1.384 . S
C2733 C2732 1.377 . S
C2733 C2739 1.390 . S
C2734 H2725 0.930 . S
C2734 C2732 1.384 . S
C2734 C2735 1.372 . S
C2735 C2734 1.372 . S
C2735 C2736 1.400 . S
C2735 C2740 1.490 . S
C2736 H2726 0.930 . S
C2736 C2735 1.400 . S
C2736 C2739 1.386 . S
H2737 C2753 0.930 . S
H2738 C2754 0.931 . S
C2739 H2727 0.929 . S
C2739 C2733 1.390 . S
C2739 C2736 1.386 . S
C2740 C2735 1.490 . S
C2740 C2742 1.395 . S
C2740 C2743 1.403 . S
H2741 C2747 0.930 . S
C2742 H2728 0.930 . S
C2742 C2740 1.395 . S
C2742 C2745 1.403 . S
C2743 C2740 1.403 . S
C2743 C2744 1.524 . S
C2743 C2747 1.400 . S
C2744 H2729 0.960 . S
C2744 H2730 0.960 . S
C2744 H2731 0.960 . S
C2744 C2743 1.524 . S
C2745 C2742 1.403 . S
C2745 C2746 1.392 . S
C2745 C2749 1.495 . S
C2746 C2745 1.392 . S
C2746 C2747 1.385 . S
C2746 C2748 1.478 . S
C2747 H2741 0.930 . S
C2747 C2743 1.400 . S
C2747 C2746 1.385 . S
C2748 C2746 1.478 . S
C2748 C2750 1.381 . S
C2748 C2754 1.383 . S
C2749 C2745 1.495 . S
C2749 H2755 0.959 . S
C2749 H2756 0.961 . S
C2749 H2757 0.960 . S
C2750 C2748 1.381 . S
C2750 C2751 1.394 . S
C2750 H2758 0.930 . S
C2751 C2750 1.394 . S
C2751 C2752 1.383 . S
C2751 H2759 0.929 . S
C2752 C2751 1.383 . S
C2752 C2753 1.377 . S
C2753 H2737 0.930 . S
C2753 C2752 1.377 . S
C2753 C2754 1.379 . S
C2754 H2738 0.931 . S
C2754 C2748 1.383 . S
C2754 C2753 1.379 . S
H2755 C2749 0.959 . S
H2756 C2749 0.961 . S
H2757 C2749 0.960 . S
H2758 C2750 0.930 . S
H2759 C2751 0.929 . S
H2760 C2768 0.929 . S
H2761 C2770 0.930 . S
H2762 C2772 0.930 . S
H2763 C2775 0.929 . S
H2764 C2778 0.930 . S
H2765 C2780 0.960 . S
H2766 C2780 0.960 . S
H2767 C2780 0.960 . S
C2768 H2760 0.929 . S
C2768 C2769 1.377 . S
C2768 C2770 1.384 . S
C2769 C2768 1.377 . S
C2769 C2775 1.390 . S
C2770 H2761 0.930 . S
C2770 C2768 1.384 . S
C2770 C2771 1.372 . S
C2771 C2770 1.372 . S
C2771 C2772 1.400 . S
C2771 C2776 1.490 . S
C2772 H2762 0.930 . S
C2772 C2771 1.400 . S
C2772 C2775 1.386 . S
H2773 C2789 0.930 1_554 S
H2774 C2790 0.931 . S
C2775 H2763 0.929 . S
C2775 C2769 1.390 . S
C2775 C2772 1.386 . S
C2776 C2771 1.490 . S
C2776 C2778 1.395 . S
C2776 C2779 1.403 . S
H2777 C2783 0.930 . S
C2778 H2764 0.930 . S
C2778 C2776 1.395 . S
C2778 C2781 1.403 . S
C2779 C2776 1.403 . S
C2779 C2780 1.524 . S
C2779 C2783 1.400 . S
C2780 H2765 0.960 . S
C2780 H2766 0.960 . S
C2780 H2767 0.960 . S
C2780 C2779 1.524 . S
C2781 C2778 1.403 . S
C2781 C2782 1.392 . S
C2781 C2785 1.495 . S
C2782 C2781 1.392 . S
C2782 C2783 1.385 . S
C2782 C2784 1.478 . S
C2783 H2777 0.930 . S
C2783 C2779 1.400 . S
C2783 C2782 1.385 . S
C2784 C2782 1.478 . S
C2784 C2786 1.381 . S
C2784 C2790 1.383 . S
C2785 C2781 1.495 . S
C2785 H2791 0.959 . S
C2785 H2792 0.961 . S
C2785 H2793 0.960 . S
C2786 C2784 1.381 . S
C2786 C2787 1.394 . S
C2786 H2794 0.930 . S
C2787 C2786 1.394 . S
C2787 C2788 1.383 . S
C2787 H2795 0.929 . S
C2788 C2787 1.383 . S
C2788 C2789 1.377 . S
C2789 H2773 0.930 1_556 S
C2789 C2788 1.377 . S
C2789 C2790 1.379 . S
C2790 H2774 0.931 . S
C2790 C2784 1.383 . S
C2790 C2789 1.379 . S
H2791 C2785 0.959 . S
H2792 C2785 0.961 . S
H2793 C2785 0.960 . S
H2794 C2786 0.930 . S
H2795 C2787 0.929 . S
H2796 C2804 0.929 . S
H2797 C2806 0.930 . S
H2798 C2808 0.930 . S
H2799 C2811 0.929 . S
H2800 C2814 0.930 . S
H2801 C2816 0.960 . S
H2802 C2816 0.960 . S
H2803 C2816 0.960 . S
C2804 H2796 0.929 . S
C2804 C2805 1.377 . S
C2804 C2806 1.384 . S
C2805 C2804 1.377 . S
C2805 C2811 1.390 . S
C2806 H2797 0.930 . S
C2806 C2804 1.384 . S
C2806 C2807 1.372 . S
C2807 C2806 1.372 . S
C2807 C2808 1.400 . S
C2807 C2812 1.490 . S
C2808 H2798 0.930 . S
C2808 C2807 1.400 . S
C2808 C2811 1.386 . S
H2809 C2825 0.930 . S
H2810 C2826 0.931 . S
C2811 H2799 0.929 . S
C2811 C2805 1.390 . S
C2811 C2808 1.386 . S
C2812 C2807 1.490 . S
C2812 C2814 1.395 . S
C2812 C2815 1.403 . S
H2813 C2819 0.930 . S
C2814 H2800 0.930 . S
C2814 C2812 1.395 . S
C2814 C2817 1.403 . S
C2815 C2812 1.403 . S
C2815 C2816 1.524 . S
C2815 C2819 1.400 . S
C2816 H2801 0.960 . S
C2816 H2802 0.960 . S
C2816 H2803 0.960 . S
C2816 C2815 1.524 . S
C2817 C2814 1.403 . S
C2817 C2818 1.392 . S
C2817 C2821 1.495 . S
C2818 C2817 1.392 . S
C2818 C2819 1.385 . S
C2818 C2820 1.478 . S
C2819 H2813 0.930 . S
C2819 C2815 1.400 . S
C2819 C2818 1.385 . S
C2820 C2818 1.478 . S
C2820 C2822 1.381 . S
C2820 C2826 1.383 . S
C2821 C2817 1.495 . S
C2821 H2827 0.959 . S
C2821 H2828 0.961 . S
C2821 H2829 0.960 . S
C2822 C2820 1.381 . S
C2822 C2823 1.394 . S
C2822 H2830 0.930 . S
C2823 C2822 1.394 . S
C2823 C2824 1.383 . S
C2823 H2831 0.929 . S
C2824 C2823 1.383 . S
C2824 C2825 1.377 . S
C2825 H2809 0.930 . S
C2825 C2824 1.377 . S
C2825 C2826 1.379 . S
C2826 H2810 0.931 . S
C2826 C2820 1.383 . S
C2826 C2825 1.379 . S
H2827 C2821 0.959 . S
H2828 C2821 0.961 . S
H2829 C2821 0.960 . S
H2830 C2822 0.930 . S
H2831 C2823 0.929 . S
H2832 C2840 0.929 . S
H2833 C2842 0.930 . S
H2834 C2844 0.930 . S
H2835 C2847 0.929 . S
H2836 C2850 0.930 . S
H2837 C2852 0.960 . S
H2838 C2852 0.960 . S
H2839 C2852 0.960 . S
C2840 H2832 0.929 . S
C2840 C2841 1.377 . S
C2840 C2842 1.384 . S
C2841 C2840 1.377 . S
C2841 C2847 1.390 . S
C2842 H2833 0.930 . S
C2842 C2840 1.384 . S
C2842 C2843 1.372 . S
C2843 C2842 1.372 . S
C2843 C2844 1.400 . S
C2843 C2848 1.490 . S
C2844 H2834 0.930 . S
C2844 C2843 1.400 . S
C2844 C2847 1.386 . S
H2845 C2861 0.930 1_565 S
H2846 C2862 0.931 1_565 S
C2847 H2835 0.929 . S
C2847 C2841 1.390 . S
C2847 C2844 1.386 . S
C2848 C2843 1.490 . S
C2848 C2850 1.395 . S
C2848 C2851 1.403 . S
H2849 C2855 0.930 . S
C2850 H2836 0.930 . S
C2850 C2848 1.395 . S
C2850 C2853 1.403 . S
C2851 C2848 1.403 . S
C2851 C2852 1.524 . S
C2851 C2855 1.400 . S
C2852 H2837 0.960 . S
C2852 H2838 0.960 . S
C2852 H2839 0.960 . S
C2852 C2851 1.524 . S
C2853 C2850 1.403 . S
C2853 C2854 1.392 . S
C2853 C2857 1.495 . S
C2854 C2853 1.392 . S
C2854 C2855 1.385 . S
C2854 C2856 1.478 . S
C2855 H2849 0.930 . S
C2855 C2851 1.400 . S
C2855 C2854 1.385 . S
C2856 C2854 1.478 . S
C2856 C2858 1.381 . S
C2856 C2862 1.383 . S
C2857 C2853 1.495 . S
C2857 H2863 0.959 . S
C2857 H2864 0.975 . S
C2857 H2865 0.960 . S
C2858 C2856 1.381 . S
C2858 C2859 1.394 . S
C2858 H2866 0.930 . S
C2859 C2858 1.394 . S
C2859 C2860 1.383 . S
C2859 H2867 0.929 . S
C2860 C2859 1.383 . S
C2860 C2861 1.377 . S
C2861 H2845 0.930 1_545 S
C2861 C2860 1.377 . S
C2861 C2862 1.379 . S
C2862 H2846 0.931 1_545 S
C2862 C2856 1.383 . S
C2862 C2861 1.379 . S
H2863 C2857 0.959 . S
H2864 C2857 0.975 . S
H2865 C2857 0.960 . S
H2866 C2858 0.930 . S
H2867 C2859 0.929 . S
H2868 C2876 0.929 . S
H2869 C2878 0.930 . S
H2870 C2880 0.930 . S
H2871 C2883 0.929 . S
H2872 C2886 0.930 . S
H2873 C2888 0.960 . S
H2874 C2888 0.960 . S
H2875 C2888 0.960 . S
C2876 H2868 0.929 . S
C2876 C2877 1.377 . S
C2876 C2878 1.384 . S
C2877 C2876 1.377 . S
C2877 C2883 1.390 . S
C2878 H2869 0.930 . S
C2878 C2876 1.384 . S
C2878 C2879 1.372 . S
C2879 C2878 1.372 . S
C2879 C2880 1.400 . S
C2879 C2884 1.490 . S
C2880 H2870 0.930 . S
C2880 C2879 1.400 . S
C2880 C2883 1.386 . S
H2881 C2897 0.930 . S
H2882 C2898 0.931 . S
C2883 H2871 0.929 . S
C2883 C2877 1.390 . S
C2883 C2880 1.386 . S
C2884 C2879 1.490 . S
C2884 C2886 1.395 . S
C2884 C2887 1.403 . S
H2885 C2891 0.930 . S
C2886 H2872 0.930 . S
C2886 C2884 1.395 . S
C2886 C2889 1.403 . S
C2887 C2884 1.403 . S
C2887 C2888 1.524 . S
C2887 C2891 1.400 . S
C2888 H2873 0.960 . S
C2888 H2874 0.960 . S
C2888 H2875 0.960 . S
C2888 C2887 1.524 . S
C2889 C2886 1.403 . S
C2889 C2890 1.392 . S
C2889 C2893 1.495 . S
C2890 C2889 1.392 . S
C2890 C2891 1.385 . S
C2890 C2892 1.478 . S
C2891 H2885 0.930 . S
C2891 C2887 1.400 . S
C2891 C2890 1.385 . S
C2892 C2890 1.478 . S
C2892 C2894 1.381 . S
C2892 C2898 1.383 . S
C2893 C2889 1.495 . S
C2893 H2899 0.959 . S
C2893 H2900 0.961 . S
C2893 H2901 0.960 . S
C2894 C2892 1.381 . S
C2894 C2895 1.394 . S
C2894 H2902 0.930 . S
C2895 C2894 1.394 . S
C2895 C2896 1.383 . S
C2895 H2903 0.929 . S
C2896 C2895 1.383 . S
C2896 C2897 1.377 . S
C2897 H2881 0.930 . S
C2897 C2896 1.377 . S
C2897 C2898 1.379 . S
C2898 H2882 0.931 . S
C2898 C2892 1.383 . S
C2898 C2897 1.379 . S
H2899 C2893 0.959 . S
H2900 C2893 0.961 . S
H2901 C2893 0.960 . S
H2902 C2894 0.930 . S
H2903 C2895 0.929 . S
H2904 C2912 0.929 . S
H2905 C2914 0.930 . S
H2906 C2916 0.930 . S
H2907 C2919 0.929 1_565 S
H2908 C2922 0.930 . S
H2909 C2924 0.960 . S
H2910 C2924 0.960 . S
H2911 C2924 0.960 . S
C2912 H2904 0.929 . S
C2912 C2913 1.377 . S
C2912 C2914 1.384 . S
C2913 C2912 1.377 . S
C2913 C2919 1.390 . S
C2914 H2905 0.930 . S
C2914 C2912 1.384 . S
C2914 C2915 1.372 . S
C2915 C2914 1.372 . S
C2915 C2916 1.400 . S
C2915 C2920 1.490 . S
C2916 H2906 0.930 . S
C2916 C2915 1.400 . S
C2916 C2919 1.386 . S
H2917 C2933 0.930 . S
H2918 C2934 0.931 . S
C2919 H2907 0.929 1_545 S
C2919 C2913 1.390 . S
C2919 C2916 1.386 . S
C2920 C2915 1.490 . S
C2920 C2922 1.395 . S
C2920 C2923 1.403 . S
H2921 C2927 0.930 . S
C2922 H2908 0.930 . S
C2922 C2920 1.395 . S
C2922 C2925 1.403 . S
C2923 C2920 1.403 . S
C2923 C2924 1.524 . S
C2923 C2927 1.400 . S
C2924 H2909 0.960 . S
C2924 H2910 0.960 . S
C2924 H2911 0.960 . S
C2924 C2923 1.524 . S
C2925 C2922 1.403 . S
C2925 C2926 1.392 . S
C2925 C2929 1.495 . S
C2926 C2925 1.392 . S
C2926 C2927 1.385 . S
C2926 C2928 1.478 . S
C2927 H2921 0.930 . S
C2927 C2923 1.400 . S
C2927 C2926 1.385 . S
C2928 C2926 1.478 . S
C2928 C2930 1.381 . S
C2928 C2934 1.383 . S
C2929 C2925 1.495 . S
C2929 H2935 0.959 1_545 S
C2929 H2936 0.961 1_545 S
C2929 H2937 0.960 . S
C2930 C2928 1.381 . S
C2930 C2931 1.394 . S
C2930 H2938 0.930 . S
C2931 C2930 1.394 . S
C2931 C2932 1.383 . S
C2931 H2939 0.929 . S
C2932 C2931 1.383 . S
C2932 C2933 1.377 . S
C2933 H2917 0.930 . S
C2933 C2932 1.377 . S
C2933 C2934 1.379 . S
C2934 H2918 0.931 . S
C2934 C2928 1.383 . S
C2934 C2933 1.379 . S
H2935 C2929 0.959 1_565 S
H2936 C2929 0.961 1_565 S
H2937 C2929 0.960 . S
H2938 C2930 0.930 . S
H2939 C2931 0.929 . S
H2940 C2948 0.929 . S
H2941 C2950 0.930 . S
H2942 C2952 0.930 . S
H2943 C2955 0.929 . S
H2944 C2958 0.930 . S
H2945 C2960 0.960 . S
H2946 C2960 0.960 . S
H2947 C2960 0.960 . S
C2948 H2940 0.929 . S
C2948 C2949 1.377 . S
C2948 C2950 1.384 . S
C2949 C2948 1.377 . S
C2949 C2955 1.390 . S
C2950 H2941 0.930 . S
C2950 C2948 1.384 . S
C2950 C2951 1.372 . S
C2951 C2950 1.372 . S
C2951 C2952 1.400 . S
C2951 C2956 1.490 . S
C2952 H2942 0.930 . S
C2952 C2951 1.400 . S
C2952 C2955 1.386 . S
H2953 C2969 0.930 . S
H2954 C2970 0.931 . S
C2955 H2943 0.929 . S
C2955 C2949 1.390 . S
C2955 C2952 1.386 . S
C2956 C2951 1.490 . S
C2956 C2958 1.395 . S
C2956 C2959 1.403 . S
H2957 C2963 0.930 . S
C2958 H2944 0.930 . S
C2958 C2956 1.395 . S
C2958 C2961 1.403 . S
C2959 C2956 1.403 . S
C2959 C2960 1.524 . S
C2959 C2963 1.400 . S
C2960 H2945 0.960 . S
C2960 H2946 0.960 . S
C2960 H2947 0.960 . S
C2960 C2959 1.524 . S
C2961 C2958 1.403 . S
C2961 C2962 1.392 . S
C2961 C2965 1.495 . S
C2962 C2961 1.392 . S
C2962 C2963 1.385 . S
C2962 C2964 1.478 . S
C2963 H2957 0.930 . S
C2963 C2959 1.400 . S
C2963 C2962 1.385 . S
C2964 C2962 1.478 . S
C2964 C2966 1.381 . S
C2964 C2970 1.383 . S
C2965 C2961 1.495 . S
C2965 H2971 0.959 . S
C2965 H2972 0.961 . S
C2965 H2973 0.960 . S
C2966 C2964 1.381 . S
C2966 C2967 1.394 . S
C2966 H2974 0.930 . S
C2967 C2966 1.394 . S
C2967 C2968 1.383 . S
C2967 H2975 0.929 . S
C2968 C2967 1.383 . S
C2968 C2969 1.377 . S
C2969 H2953 0.930 . S
C2969 C2968 1.377 . S
C2969 C2970 1.379 . S
C2970 H2954 0.931 . S
C2970 C2964 1.383 . S
C2970 C2969 1.379 . S
H2971 C2965 0.959 . S
H2972 C2965 0.961 . S
H2973 C2965 0.960 . S
H2974 C2966 0.930 . S
H2975 C2967 0.929 . S
H2976 C2984 0.929 . S
H2977 C2986 0.930 . S
H2978 C2988 0.930 . S
H2979 C2991 0.929 . S
H2980 C2994 0.930 . S
H2981 C2996 0.960 . S
H2982 C2996 0.960 . S
H2983 C2996 0.960 . S
C2984 H2976 0.929 . S
C2984 C2985 1.377 . S
C2984 C2986 1.384 . S
C2985 C2984 1.377 . S
C2985 C2991 1.390 . S
C2986 H2977 0.930 . S
C2986 C2984 1.384 . S
C2986 C2987 1.372 . S
C2987 C2986 1.372 . S
C2987 C2988 1.400 . S
C2987 C2992 1.490 . S
C2988 H2978 0.930 . S
C2988 C2987 1.400 . S
C2988 C2991 1.386 . S
H2989 C3005 0.929 . S
H2990 C3006 0.975 . S
C2991 H2979 0.929 . S
C2991 C2985 1.390 . S
C2991 C2988 1.386 . S
C2992 C2987 1.490 . S
C2992 C2994 1.395 . S
C2992 C2995 1.403 . S
H2993 C2999 0.930 . S
C2994 H2980 0.930 . S
C2994 C2992 1.395 . S
C2994 C2997 1.403 . S
C2995 C2992 1.403 . S
C2995 C2996 1.524 . S
C2995 C2999 1.400 . S
C2996 H2981 0.960 . S
C2996 H2982 0.960 . S
C2996 H2983 0.960 . S
C2996 C2995 1.524 . S
C2997 C2994 1.403 . S
C2997 C2998 1.392 . S
C2997 C3001 1.495 . S
C2998 C2997 1.392 . S
C2998 C2999 1.385 . S
C2998 C3000 1.478 . S
C2999 H2993 0.930 . S
C2999 C2995 1.400 . S
C2999 C2998 1.385 . S
C3000 C2998 1.478 . S
C3000 C3002 1.381 . S
C3000 C3006 1.383 . S
C3001 C2997 1.495 . S
C3001 H3007 0.959 . S
C3001 H3008 0.961 . S
C3001 H3009 0.960 . S
C3002 C3000 1.381 . S
C3002 C3003 1.394 . S
C3002 H3010 0.930 . S
C3003 C3002 1.394 . S
C3003 C3004 1.383 . S
C3003 H3011 0.929 . S
C3004 C3003 1.383 . S
C3004 C3005 1.377 . S
C3005 H2989 0.929 . S
C3005 C3004 1.377 . S
C3005 C3006 1.379 . S
C3006 H2990 0.975 . S
C3006 C3000 1.383 . S
C3006 C3005 1.379 . S
H3007 C3001 0.959 . S
H3008 C3001 0.961 . S
H3009 C3001 0.960 . S
H3010 C3002 0.930 . S
H3011 C3003 0.929 . S
H3012 C3020 0.929 . S
H3013 C3022 0.930 . S
H3014 C3024 0.930 . S
H3015 C3027 0.929 . S
H3016 C3030 0.930 . S
H3017 C3032 0.960 . S
H3018 C3032 0.960 . S
H3019 C3032 0.960 . S
C3020 H3012 0.929 . S
C3020 C3021 1.377 . S
C3020 C3022 1.384 . S
C3021 C3020 1.377 . S
C3021 C3027 1.390 . S
C3022 H3013 0.930 . S
C3022 C3020 1.384 . S
C3022 C3023 1.372 . S
C3023 C3022 1.372 . S
C3023 C3024 1.400 . S
C3023 C3028 1.490 . S
C3024 H3014 0.930 . S
C3024 C3023 1.400 . S
C3024 C3027 1.386 . S
H3025 C3041 0.930 . S
H3026 C3042 0.931 . S
C3027 H3015 0.929 . S
C3027 C3021 1.390 . S
C3027 C3024 1.386 . S
C3028 C3023 1.490 . S
C3028 C3030 1.395 . S
C3028 C3031 1.403 . S
H3029 C3035 0.930 . S
C3030 H3016 0.930 . S
C3030 C3028 1.395 . S
C3030 C3033 1.403 . S
C3031 C3028 1.403 . S
C3031 C3032 1.524 . S
C3031 C3035 1.400 . S
C3032 H3017 0.960 . S
C3032 H3018 0.960 . S
C3032 H3019 0.960 . S
C3032 C3031 1.524 . S
C3033 C3030 1.403 . S
C3033 C3034 1.392 . S
C3033 C3037 1.495 . S
C3034 C3033 1.392 . S
C3034 C3035 1.385 . S
C3034 C3036 1.478 . S
C3035 H3029 0.930 . S
C3035 C3031 1.400 . S
C3035 C3034 1.385 . S
C3036 C3034 1.478 . S
C3036 C3038 1.381 . S
C3036 C3042 1.383 . S
C3037 C3033 1.495 . S
C3037 H3043 0.959 . S
C3037 H3044 0.961 . S
C3037 H3045 0.960 . S
C3038 C3036 1.381 . S
C3038 C3039 1.394 . S
C3038 H3046 0.930 . S
C3039 C3038 1.394 . S
C3039 C3040 1.383 . S
C3039 H3047 0.929 . S
C3040 C3039 1.383 . S
C3040 C3041 1.377 . S
C3041 H3025 0.930 . S
C3041 C3040 1.377 . S
C3041 C3042 1.379 . S
C3042 H3026 0.931 . S
C3042 C3036 1.383 . S
C3042 C3041 1.379 . S
H3043 C3037 0.959 . S
H3044 C3037 0.961 . S
H3045 C3037 0.960 . S
H3046 C3038 0.930 . S
H3047 C3039 0.929 . S
H3048 C3056 0.929 . S
H3049 C3058 0.930 . S
H3050 C3060 0.930 . S
H3051 C3063 0.929 . S
H3052 C3066 0.930 . S
H3053 C3068 0.960 . S
H3054 C3068 0.960 . S
H3055 C3068 0.997 . S
C3056 H3048 0.929 . S
C3056 C3057 1.377 . S
C3056 C3058 1.384 . S
C3057 C3056 1.377 . S
C3057 C3063 1.390 1_545 S
C3058 H3049 0.930 . S
C3058 C3056 1.384 . S
C3058 C3059 1.372 . S
C3059 C3058 1.372 . S
C3059 C3060 1.400 1_545 S
C3059 C3064 1.490 . S
C3060 H3050 0.930 . S
C3060 C3059 1.400 1_565 S
C3060 C3063 1.386 . S
H3061 C3077 0.930 . S
H3062 C3078 0.931 . S
C3063 H3051 0.929 . S
C3063 C3057 1.390 1_565 S
C3063 C3060 1.386 . S
C3064 C3059 1.490 . S
C3064 C3066 1.395 . S
C3064 C3067 1.403 . S
H3065 C3071 0.930 . S
C3066 H3052 0.930 . S
C3066 C3064 1.395 . S
C3066 C3069 1.403 . S
C3067 C3064 1.403 . S
C3067 C3068 1.524 . S
C3067 C3071 1.400 . S
C3068 H3053 0.960 . S
C3068 H3054 0.960 . S
C3068 H3055 0.997 . S
C3068 C3067 1.524 . S
C3069 C3066 1.403 . S
C3069 C3070 1.392 . S
C3069 C3073 1.495 . S
C3070 C3069 1.392 . S
C3070 C3071 1.385 . S
C3070 C3072 1.478 . S
C3071 H3065 0.930 . S
C3071 C3067 1.400 . S
C3071 C3070 1.385 . S
C3072 C3070 1.478 . S
C3072 C3074 1.381 . S
C3072 C3078 1.383 1_545 S
C3073 C3069 1.495 . S
C3073 H3079 0.959 . S
C3073 H3080 0.961 1_545 S
C3073 H3081 0.960 . S
C3074 C3072 1.381 . S
C3074 C3075 1.394 . S
C3074 H3082 0.930 . S
C3075 C3074 1.394 . S
C3075 C3076 1.383 . S
C3075 H3083 0.929 . S
C3076 C3075 1.383 . S
C3076 C3077 1.377 1_545 S
C3077 H3061 0.930 . S
C3077 C3076 1.377 1_565 S
C3077 C3078 1.379 . S
C3078 H3062 0.931 . S
C3078 C3072 1.383 1_565 S
C3078 C3077 1.379 . S
H3079 C3073 0.959 . S
H3080 C3073 0.961 1_565 S
H3081 C3073 0.960 . S
H3082 C3074 0.930 . S
H3083 C3075 0.929 . S
H3084 C3092 0.929 . S
H3085 C3094 0.930 . S
H3086 C3096 0.930 . S
H3087 C3099 0.929 . S
H3088 C3102 0.930 . S
H3089 C3104 0.960 . S
H3090 C3104 0.960 . S
H3091 C3104 0.960 . S
C3092 H3084 0.929 . S
C3092 C3093 1.377 . S
C3092 C3094 1.384 . S
C3093 C3092 1.377 . S
C3093 C3099 1.390 . S
C3094 H3085 0.930 . S
C3094 C3092 1.384 . S
C3094 C3095 1.372 . S
C3095 C3094 1.372 . S
C3095 C3096 1.400 . S
C3095 C3100 1.490 . S
C3096 H3086 0.930 . S
C3096 C3095 1.400 . S
C3096 C3099 1.386 . S
H3097 C3113 0.930 . S
H3098 C3114 0.931 . S
C3099 H3087 0.929 . S
C3099 C3093 1.390 . S
C3099 C3096 1.386 . S
C3100 C3095 1.490 . S
C3100 C3102 1.395 . S
C3100 C3103 1.403 . S
H3101 C3107 0.930 . S
C3102 H3088 0.930 . S
C3102 C3100 1.395 . S
C3102 C3105 1.403 . S
C3103 C3100 1.403 . S
C3103 C3104 1.524 . S
C3103 C3107 1.400 . S
C3104 H3089 0.960 . S
C3104 H3090 0.960 . S
C3104 H3091 0.960 . S
C3104 C3103 1.524 . S
C3105 C3102 1.403 . S
C3105 C3106 1.392 . S
C3105 C3109 1.495 . S
C3106 C3105 1.392 . S
C3106 C3107 1.385 . S
C3106 C3108 1.478 . S
C3107 H3101 0.930 . S
C3107 C3103 1.400 . S
C3107 C3106 1.385 . S
C3108 C3106 1.478 . S
C3108 C3110 1.381 . S
C3108 C3114 1.383 . S
C3109 C3105 1.495 . S
C3109 H3115 0.959 . S
C3109 H3116 0.961 . S
C3109 H3117 0.960 . S
C3110 C3108 1.381 . S
C3110 C3111 1.394 . S
C3110 H3118 0.930 . S
C3111 C3110 1.394 . S
C3111 C3112 1.383 . S
C3111 H3119 0.929 . S
C3112 C3111 1.383 . S
C3112 C3113 1.377 . S
C3113 H3097 0.930 . S
C3113 C3112 1.377 . S
C3113 C3114 1.379 . S
C3114 H3098 0.931 . S
C3114 C3108 1.383 . S
C3114 C3113 1.379 . S
H3115 C3109 0.959 . S
H3116 C3109 0.961 . S
H3117 C3109 0.960 . S
H3118 C3110 0.930 . S
H3119 C3111 0.929 . S
H3120 C3128 0.929 . S
H3121 C3130 0.930 . S
H3122 C3132 0.930 . S
H3123 C3135 0.929 . S
H3124 C3138 0.930 . S
H3125 C3140 0.960 1_556 S
H3126 C3140 0.960 1_556 S
H3127 C3140 0.960 . S
C3128 H3120 0.929 . S
C3128 C3129 1.377 . S
C3128 C3130 1.384 . S
C3129 C3128 1.377 . S
C3129 C3135 1.390 . S
C3130 H3121 0.930 . S
C3130 C3128 1.384 . S
C3130 C3131 1.372 . S
C3131 C3130 1.372 . S
C3131 C3132 1.400 . S
C3131 C3136 1.490 . S
C3132 H3122 0.930 . S
C3132 C3131 1.400 . S
C3132 C3135 1.386 . S
H3133 C3149 0.930 . S
H3134 C3150 0.931 . S
C3135 H3123 0.929 . S
C3135 C3129 1.390 . S
C3135 C3132 1.386 . S
C3136 C3131 1.490 . S
C3136 C3138 1.395 . S
C3136 C3139 1.403 . S
H3137 C3143 0.930 . S
C3138 H3124 0.930 . S
C3138 C3136 1.395 . S
C3138 C3141 1.403 . S
C3139 C3136 1.403 . S
C3139 C3140 1.524 . S
C3139 C3143 1.400 . S
C3140 H3125 0.960 1_554 S
C3140 H3126 0.960 1_554 S
C3140 H3127 0.960 . S
C3140 C3139 1.524 . S
C3141 C3138 1.403 . S
C3141 C3142 1.392 . S
C3141 C3145 1.495 . S
C3142 C3141 1.392 . S
C3142 C3143 1.385 . S
C3142 C3144 1.478 . S
C3143 H3137 0.930 . S
C3143 C3139 1.400 . S
C3143 C3142 1.385 . S
C3144 C3142 1.478 . S
C3144 C3146 1.381 . S
C3144 C3150 1.383 . S
C3145 C3141 1.495 . S
C3145 H3151 0.959 . S
C3145 H3152 0.961 . S
C3145 H3153 0.960 . S
C3146 C3144 1.381 . S
C3146 C3147 1.394 . S
C3146 H3154 0.930 . S
C3147 C3146 1.394 . S
C3147 C3148 1.383 . S
C3147 H3155 0.929 1_554 S
C3148 C3147 1.383 . S
C3148 C3149 1.377 . S
C3149 H3133 0.930 . S
C3149 C3148 1.377 . S
C3149 C3150 1.379 . S
C3150 H3134 0.931 . S
C3150 C3144 1.383 . S
C3150 C3149 1.379 . S
H3151 C3145 0.959 . S
H3152 C3145 0.961 . S
H3153 C3145 0.960 . S
H3154 C3146 0.930 . S
H3155 C3147 0.929 1_556 S
H3156 C3164 0.929 . S
H3157 C3166 0.930 . S
H3158 C3168 0.930 . S
H3159 C3171 0.929 . S
H3160 C3174 0.930 . S
H3161 C3176 0.960 . S
H3162 C3176 0.960 . S
H3163 C3176 0.960 . S
C3164 H3156 0.929 . S
C3164 C3165 1.377 . S
C3164 C3166 1.384 . S
C3165 C3164 1.377 . S
C3165 C3171 1.390 . S
C3166 H3157 0.930 . S
C3166 C3164 1.384 . S
C3166 C3167 1.372 . S
C3167 C3166 1.372 . S
C3167 C3168 1.400 . S
C3167 C3172 1.490 . S
C3168 H3158 0.930 . S
C3168 C3167 1.400 . S
C3168 C3171 1.386 . S
H3169 C3185 0.930 . S
H3170 C3186 0.931 . S
C3171 H3159 0.929 . S
C3171 C3165 1.390 . S
C3171 C3168 1.386 . S
C3172 C3167 1.490 . S
C3172 C3174 1.395 . S
C3172 C3175 1.403 . S
H3173 C3179 0.930 . S
C3174 H3160 0.930 . S
C3174 C3172 1.395 . S
C3174 C3177 1.403 . S
C3175 C3172 1.403 . S
C3175 C3176 1.524 1_554 S
C3175 C3179 1.400 . S
C3176 H3161 0.960 . S
C3176 H3162 0.960 . S
C3176 H3163 0.960 . S
C3176 C3175 1.524 1_556 S
C3177 C3174 1.403 . S
C3177 C3178 1.392 . S
C3177 C3181 1.495 . S
C3178 C3177 1.392 . S
C3178 C3179 1.385 . S
C3178 C3180 1.478 . S
C3179 H3173 0.930 . S
C3179 C3175 1.400 . S
C3179 C3178 1.385 . S
C3180 C3178 1.478 . S
C3180 C3182 1.381 . S
C3180 C3186 1.383 . S
C3181 C3177 1.495 . S
C3181 H3187 0.959 . S
C3181 H3188 0.961 . S
C3181 H3189 0.960 . S
C3182 C3180 1.381 . S
C3182 C3183 1.394 . S
C3182 H3190 0.930 . S
C3183 C3182 1.394 . S
C3183 C3184 1.383 . S
C3183 H3191 0.929 . S
C3184 C3183 1.383 . S
C3184 C3185 1.377 . S
C3185 H3169 0.930 . S
C3185 C3184 1.377 . S
C3185 C3186 1.379 . S
C3186 H3170 0.931 . S
C3186 C3180 1.383 . S
C3186 C3185 1.379 . S
H3187 C3181 0.959 . S
H3188 C3181 0.961 . S
H3189 C3181 0.960 . S
H3190 C3182 0.930 . S
H3191 C3183 0.929 . S
H3192 C3200 0.929 . S
H3193 C3202 0.930 . S
H3194 C3204 0.930 . S
H3195 C3207 0.929 . S
H3196 C3210 0.930 . S
H3197 C3212 0.960 . S
H3198 C3212 0.960 . S
H3199 C3212 0.960 . S
C3200 H3192 0.929 . S
C3200 C3201 1.377 . S
C3200 C3202 1.384 . S
C3201 C3200 1.377 . S
C3201 C3207 1.390 . S
C3202 H3193 0.930 . S
C3202 C3200 1.384 . S
C3202 C3203 1.372 . S
C3203 C3202 1.372 . S
C3203 C3204 1.400 . S
C3203 C3208 1.490 . S
C3204 H3194 0.930 . S
C3204 C3203 1.400 . S
C3204 C3207 1.386 . S
H3205 C3221 0.930 . S
H3206 C3222 0.931 . S
C3207 H3195 0.929 . S
C3207 C3201 1.390 . S
C3207 C3204 1.386 . S
C3208 C3203 1.490 . S
C3208 C3210 1.395 . S
C3208 C3211 1.403 . S
H3209 C3215 0.930 . S
C3210 H3196 0.930 . S
C3210 C3208 1.395 . S
C3210 C3213 1.403 . S
C3211 C3208 1.403 . S
C3211 C3212 1.524 . S
C3211 C3215 1.400 . S
C3212 H3197 0.960 . S
C3212 H3198 0.960 . S
C3212 H3199 0.960 . S
C3212 C3211 1.524 . S
C3213 C3210 1.403 . S
C3213 C3214 1.392 . S
C3213 C3217 1.495 . S
C3214 C3213 1.392 . S
C3214 C3215 1.385 . S
C3214 C3216 1.478 . S
C3215 H3209 0.930 . S
C3215 C3211 1.400 . S
C3215 C3214 1.385 . S
C3216 C3214 1.478 . S
C3216 C3218 1.381 . S
C3216 C3222 1.383 . S
C3217 C3213 1.495 . S
C3217 H3223 0.959 . S
C3217 H3224 0.961 . S
C3217 H3225 0.960 . S
C3218 C3216 1.381 . S
C3218 C3219 1.394 . S
C3218 H3226 0.930 . S
C3219 C3218 1.394 . S
C3219 C3220 1.383 . S
C3219 H3227 0.929 . S
C3220 C3219 1.383 . S
C3220 C3221 1.377 . S
C3221 H3205 0.930 . S
C3221 C3220 1.377 . S
C3221 C3222 1.379 . S
C3222 H3206 0.931 . S
C3222 C3216 1.383 . S
C3222 C3221 1.379 . S
H3223 C3217 0.959 . S
H3224 C3217 0.961 . S
H3225 C3217 0.960 . S
H3226 C3218 0.930 . S
H3227 C3219 0.929 . S
H3228 C3236 0.929 . S
H3229 C3238 0.930 . S
H3230 C3240 0.930 . S
H3231 C3243 0.929 . S
H3232 C3246 0.930 . S
H3233 C3248 0.960 . S
H3234 C3248 0.960 . S
H3235 C3248 0.960 . S
C3236 H3228 0.929 . S
C3236 C3237 1.377 . S
C3236 C3238 1.384 . S
C3237 C3236 1.377 . S
C3237 C3243 1.390 . S
C3238 H3229 0.930 . S
C3238 C3236 1.384 . S
C3238 C3239 1.372 . S
C3239 C3238 1.372 . S
C3239 C3240 1.400 . S
C3239 C3244 1.490 . S
C3240 H3230 0.930 . S
C3240 C3239 1.400 . S
C3240 C3243 1.386 . S
H3241 C3257 0.930 . S
H3242 C3258 0.931 . S
C3243 H3231 0.929 . S
C3243 C3237 1.390 . S
C3243 C3240 1.386 . S
C3244 C3239 1.490 . S
C3244 C3246 1.395 . S
C3244 C3247 1.403 . S
H3245 C3251 0.930 . S
C3246 H3232 0.930 . S
C3246 C3244 1.395 . S
C3246 C3249 1.403 . S
C3247 C3244 1.403 . S
C3247 C3248 1.524 . S
C3247 C3251 1.400 . S
C3248 H3233 0.960 . S
C3248 H3234 0.960 . S
C3248 H3235 0.960 . S
C3248 C3247 1.524 . S
C3249 C3246 1.403 . S
C3249 C3250 1.392 . S
C3249 C3253 1.495 . S
C3250 C3249 1.392 . S
C3250 C3251 1.385 . S
C3250 C3252 1.478 . S
C3251 H3245 0.930 . S
C3251 C3247 1.400 . S
C3251 C3250 1.385 . S
C3252 C3250 1.478 . S
C3252 C3254 1.381 . S
C3252 C3258 1.383 . S
C3253 C3249 1.495 . S
C3253 H3259 0.959 . S
C3253 H3260 0.961 . S
C3253 H3261 0.960 . S
C3254 C3252 1.381 . S
C3254 C3255 1.394 . S
C3254 H3262 0.930 . S
C3255 C3254 1.394 . S
C3255 C3256 1.383 . S
C3255 H3263 0.929 . S
C3256 C3255 1.383 . S
C3256 C3257 1.377 . S
C3257 H3241 0.930 . S
C3257 C3256 1.377 . S
C3257 C3258 1.379 . S
C3258 H3242 0.931 . S
C3258 C3252 1.383 . S
C3258 C3257 1.379 . S
H3259 C3253 0.959 . S
H3260 C3253 0.961 . S
H3261 C3253 0.960 . S
H3262 C3254 0.930 . S
H3263 C3255 0.929 . S
H3264 C3272 0.948 . S
H3265 C3274 0.930 . S
H3266 C3276 0.930 . S
H3267 C3279 0.934 . S
H3268 C3282 0.930 . S
H3269 C3284 0.960 . S
H3270 C3284 0.960 . S
H3271 C3284 0.960 . S
C3272 H3264 0.948 . S
C3272 C3273 1.377 1_565 S
C3272 C3274 1.384 . S
C3273 C3272 1.377 1_545 S
C3273 C3279 1.390 1_545 S
C3274 H3265 0.930 . S
C3274 C3272 1.384 . S
C3274 C3275 1.372 . S
C3275 C3274 1.372 . S
C3275 C3276 1.400 . S
C3275 C3280 1.490 . S
C3276 H3266 0.930 . S
C3276 C3275 1.400 . S
C3276 C3279 1.386 . S
H3277 C3293 0.930 . S
H3278 C3294 0.931 . S
C3279 H3267 0.934 . S
C3279 C3273 1.390 1_565 S
C3279 C3276 1.386 . S
C3280 C3275 1.490 . S
C3280 C3282 1.395 . S
C3280 C3283 1.403 . S
H3281 C3287 0.930 . S
C3282 H3268 0.930 . S
C3282 C3280 1.395 . S
C3282 C3285 1.403 . S
C3283 C3280 1.403 . S
C3283 C3284 1.524 . S
C3283 C3287 1.400 . S
C3284 H3269 0.960 . S
C3284 H3270 0.960 . S
C3284 H3271 0.960 . S
C3284 C3283 1.524 . S
C3285 C3282 1.403 . S
C3285 C3286 1.392 . S
C3285 C3289 1.495 . S
C3286 C3285 1.392 . S
C3286 C3287 1.385 . S
C3286 C3288 1.478 . S
C3287 H3281 0.930 . S
C3287 C3283 1.400 . S
C3287 C3286 1.385 . S
C3288 C3286 1.478 . S
C3288 C3290 1.381 . S
C3288 C3294 1.383 . S
C3289 C3285 1.495 . S
C3289 H3295 0.959 . S
C3289 H3296 0.961 . S
C3289 H3297 0.960 . S
C3290 C3288 1.381 . S
C3290 C3291 1.394 . S
C3290 H3298 0.930 . S
C3291 C3290 1.394 . S
C3291 C3292 1.383 . S
C3291 H3299 0.929 . S
C3292 C3291 1.383 . S
C3292 C3293 1.377 . S
C3293 H3277 0.930 . S
C3293 C3292 1.377 . S
C3293 C3294 1.379 . S
C3294 H3278 0.931 . S
C3294 C3288 1.383 . S
C3294 C3293 1.379 . S
H3295 C3289 0.959 . S
H3296 C3289 0.961 . S
H3297 C3289 0.960 . S
H3298 C3290 0.930 . S
H3299 C3291 0.929 . S
H3300 C3308 0.929 . S
H3301 C3310 0.930 . S
H3302 C3312 0.930 . S
H3303 C3315 0.929 . S
H3304 C3318 0.930 . S
H3305 C3320 0.960 . S
H3306 C3320 0.960 . S
H3307 C3320 0.960 . S
C3308 H3300 0.929 . S
C3308 C3309 1.377 . S
C3308 C3310 1.384 . S
C3309 C3308 1.377 . S
C3309 C3315 1.390 . S
C3310 H3301 0.930 . S
C3310 C3308 1.384 . S
C3310 C3311 1.372 . S
C3311 C3310 1.372 . S
C3311 C3312 1.400 . S
C3311 C3316 1.490 . S
C3312 H3302 0.930 . S
C3312 C3311 1.400 . S
C3312 C3315 1.386 . S
H3313 C3329 0.930 . S
H3314 C3330 0.931 . S
C3315 H3303 0.929 . S
C3315 C3309 1.390 . S
C3315 C3312 1.386 . S
C3316 C3311 1.490 . S
C3316 C3318 1.395 . S
C3316 C3319 1.403 . S
H3317 C3323 0.930 . S
C3318 H3304 0.930 . S
C3318 C3316 1.395 . S
C3318 C3321 1.403 . S
C3319 C3316 1.403 . S
C3319 C3320 1.524 . S
C3319 C3323 1.400 . S
C3320 H3305 0.960 . S
C3320 H3306 0.960 . S
C3320 H3307 0.960 . S
C3320 C3319 1.524 . S
C3321 C3318 1.403 . S
C3321 C3322 1.392 . S
C3321 C3325 1.495 . S
C3322 C3321 1.392 . S
C3322 C3323 1.385 . S
C3322 C3324 1.478 . S
C3323 H3317 0.930 . S
C3323 C3319 1.400 . S
C3323 C3322 1.385 . S
C3324 C3322 1.478 . S
C3324 C3326 1.381 . S
C3324 C3330 1.383 . S
C3325 C3321 1.495 . S
C3325 H3331 0.959 . S
C3325 H3332 0.961 . S
C3325 H3333 0.960 . S
C3326 C3324 1.381 . S
C3326 C3327 1.394 . S
C3326 H3334 0.930 . S
C3327 C3326 1.394 . S
C3327 C3328 1.383 . S
C3327 H3335 0.929 . S
C3328 C3327 1.383 . S
C3328 C3329 1.377 . S
C3329 H3313 0.930 . S
C3329 C3328 1.377 . S
C3329 C3330 1.379 . S
C3330 H3314 0.931 . S
C3330 C3324 1.383 . S
C3330 C3329 1.379 . S
H3331 C3325 0.959 . S
H3332 C3325 0.961 . S
H3333 C3325 0.960 . S
H3334 C3326 0.930 . S
H3335 C3327 0.929 . S
H3336 C3344 0.929 . S
H3337 C3346 0.930 . S
H3338 C3348 0.930 . S
H3339 C3351 0.929 . S
H3340 C3354 0.930 . S
H3341 C3356 0.960 . S
H3342 C3356 0.960 . S
H3343 C3356 0.960 . S
C3344 H3336 0.929 . S
C3344 C3345 1.377 . S
C3344 C3346 1.384 . S
C3345 C3344 1.377 . S
C3345 C3351 1.390 . S
C3346 H3337 0.930 . S
C3346 C3344 1.384 . S
C3346 C3347 1.372 . S
C3347 C3346 1.372 . S
C3347 C3348 1.400 . S
C3347 C3352 1.490 . S
C3348 H3338 0.930 . S
C3348 C3347 1.400 . S
C3348 C3351 1.386 . S
H3349 C3365 0.930 . S
H3350 C3366 0.931 . S
C3351 H3339 0.929 . S
C3351 C3345 1.390 . S
C3351 C3348 1.386 . S
C3352 C3347 1.490 . S
C3352 C3354 1.395 . S
C3352 C3355 1.403 . S
H3353 C3359 0.930 . S
C3354 H3340 0.930 . S
C3354 C3352 1.395 . S
C3354 C3357 1.403 . S
C3355 C3352 1.403 . S
C3355 C3356 1.524 . S
C3355 C3359 1.400 . S
C3356 H3341 0.960 . S
C3356 H3342 0.960 . S
C3356 H3343 0.960 . S
C3356 C3355 1.524 . S
C3357 C3354 1.403 . S
C3357 C3358 1.392 . S
C3357 C3361 1.495 . S
C3358 C3357 1.392 . S
C3358 C3359 1.385 . S
C3358 C3360 1.478 . S
C3359 H3353 0.930 . S
C3359 C3355 1.400 . S
C3359 C3358 1.385 . S
C3360 C3358 1.478 . S
C3360 C3362 1.381 . S
C3360 C3366 1.383 . S
C3361 C3357 1.495 . S
C3361 H3367 0.959 . S
C3361 H3368 0.961 . S
C3361 H3369 0.960 . S
C3362 C3360 1.381 . S
C3362 C3363 1.394 . S
C3362 H3370 0.930 . S
C3363 C3362 1.394 . S
C3363 C3364 1.383 . S
C3363 H3371 0.929 . S
C3364 C3363 1.383 . S
C3364 C3365 1.377 . S
C3365 H3349 0.930 . S
C3365 C3364 1.377 . S
C3365 C3366 1.379 . S
C3366 H3350 0.931 . S
C3366 C3360 1.383 . S
C3366 C3365 1.379 . S
H3367 C3361 0.959 . S
H3368 C3361 0.961 . S
H3369 C3361 0.960 . S
H3370 C3362 0.930 . S
H3371 C3363 0.929 . S
H3372 C3380 0.929 . S
H3373 C3382 0.930 . S
H3374 C3384 0.930 . S
H3375 C3387 0.929 . S
H3376 C3390 0.930 . S
H3377 C3392 0.960 . S
H3378 C3392 0.960 . S
H3379 C3392 0.960 . S
C3380 H3372 0.929 . S
C3380 C3381 1.377 . S
C3380 C3382 1.384 . S
C3381 C3380 1.377 . S
C3381 C3387 1.390 . S
C3382 H3373 0.930 . S
C3382 C3380 1.384 . S
C3382 C3383 1.372 . S
C3383 C3382 1.372 . S
C3383 C3384 1.400 . S
C3383 C3388 1.490 . S
C3384 H3374 0.930 . S
C3384 C3383 1.400 . S
C3384 C3387 1.386 . S
H3385 C3401 0.930 . S
H3386 C3402 0.931 . S
C3387 H3375 0.929 . S
C3387 C3381 1.390 . S
C3387 C3384 1.386 . S
C3388 C3383 1.490 . S
C3388 C3390 1.395 . S
C3388 C3391 1.403 . S
H3389 C3395 0.930 . S
C3390 H3376 0.930 . S
C3390 C3388 1.395 . S
C3390 C3393 1.403 . S
C3391 C3388 1.403 . S
C3391 C3392 1.524 . S
C3391 C3395 1.400 . S
C3392 H3377 0.960 . S
C3392 H3378 0.960 . S
C3392 H3379 0.960 . S
C3392 C3391 1.524 . S
C3393 C3390 1.403 . S
C3393 C3394 1.392 . S
C3393 C3397 1.495 . S
C3394 C3393 1.392 . S
C3394 C3395 1.385 . S
C3394 C3396 1.478 . S
C3395 H3389 0.930 . S
C3395 C3391 1.400 . S
C3395 C3394 1.385 . S
C3396 C3394 1.478 . S
C3396 C3398 1.381 . S
C3396 C3402 1.383 . S
C3397 C3393 1.495 . S
C3397 H3403 0.959 . S
C3397 H3404 0.961 . S
C3397 H3405 0.960 . S
C3398 C3396 1.381 . S
C3398 C3399 1.394 . S
C3398 H3406 0.930 . S
C3399 C3398 1.394 . S
C3399 C3400 1.383 . S
C3399 H3407 0.929 . S
C3400 C3399 1.383 . S
C3400 C3401 1.377 . S
C3401 H3385 0.930 . S
C3401 C3400 1.377 . S
C3401 C3402 1.379 . S
C3402 H3386 0.931 . S
C3402 C3396 1.383 . S
C3402 C3401 1.379 . S
H3403 C3397 0.959 . S
H3404 C3397 0.961 . S
H3405 C3397 0.960 . S
H3406 C3398 0.930 . S
H3407 C3399 0.929 . S
H3408 C3416 0.929 . S
H3409 C3418 0.930 . S
H3410 C3420 0.930 . S
H3411 C3423 0.929 . S
H3412 C3426 0.930 . S
H3413 C3428 0.960 . S
H3414 C3428 0.960 . S
H3415 C3428 0.960 . S
C3416 H3408 0.929 . S
C3416 C3417 1.377 . S
C3416 C3418 1.384 . S
C3417 C3416 1.377 . S
C3417 C3423 1.390 . S
C3418 H3409 0.930 . S
C3418 C3416 1.384 . S
C3418 C3419 1.372 . S
C3419 C3418 1.372 . S
C3419 C3420 1.400 . S
C3419 C3424 1.490 . S
C3420 H3410 0.930 . S
C3420 C3419 1.400 . S
C3420 C3423 1.386 . S
H3421 C3437 0.930 . S
H3422 C3438 0.931 . S
C3423 H3411 0.929 . S
C3423 C3417 1.390 . S
C3423 C3420 1.386 . S
C3424 C3419 1.490 . S
C3424 C3426 1.395 . S
C3424 C3427 1.403 . S
H3425 C3431 0.930 . S
C3426 H3412 0.930 . S
C3426 C3424 1.395 . S
C3426 C3429 1.403 . S
C3427 C3424 1.403 . S
C3427 C3428 1.524 . S
C3427 C3431 1.400 . S
C3428 H3413 0.960 . S
C3428 H3414 0.960 . S
C3428 H3415 0.960 . S
C3428 C3427 1.524 . S
C3429 C3426 1.403 . S
C3429 C3430 1.392 . S
C3429 C3433 1.495 . S
C3430 C3429 1.392 . S
C3430 C3431 1.385 . S
C3430 C3432 1.478 . S
C3431 H3425 0.930 . S
C3431 C3427 1.400 . S
C3431 C3430 1.385 . S
C3432 C3430 1.478 . S
C3432 C3434 1.381 . S
C3432 C3438 1.383 . S
C3433 C3429 1.495 . S
C3433 H3439 0.959 . S
C3433 H3440 0.961 . S
C3433 H3441 0.960 . S
C3434 C3432 1.381 . S
C3434 C3435 1.394 . S
C3434 H3442 0.930 . S
C3435 C3434 1.394 . S
C3435 C3436 1.383 . S
C3435 H3443 0.929 . S
C3436 C3435 1.383 . S
C3436 C3437 1.377 . S
C3437 H3421 0.930 . S
C3437 C3436 1.377 . S
C3437 C3438 1.379 . S
C3438 H3422 0.931 . S
C3438 C3432 1.383 . S
C3438 C3437 1.379 . S
H3439 C3433 0.959 . S
H3440 C3433 0.961 . S
H3441 C3433 0.960 . S
H3442 C3434 0.930 . S
H3443 C3435 0.929 . S
H3444 C3452 0.929 . S
H3445 C3454 0.930 . S
H3446 C3456 0.930 . S
H3447 C3459 0.929 . S
H3448 C3462 0.930 . S
H3449 C3464 0.960 . S
H3450 C3464 0.960 . S
H3451 C3464 0.960 . S
C3452 H3444 0.929 . S
C3452 C3453 1.377 . S
C3452 C3454 1.384 . S
C3453 C3452 1.377 . S
C3453 C3459 1.390 . S
C3454 H3445 0.930 . S
C3454 C3452 1.384 . S
C3454 C3455 1.372 . S
C3455 C3454 1.372 . S
C3455 C3456 1.400 . S
C3455 C3460 1.490 . S
C3456 H3446 0.930 . S
C3456 C3455 1.400 . S
C3456 C3459 1.386 . S
H3457 C3473 0.930 . S
H3458 C3474 0.931 . S
C3459 H3447 0.929 . S
C3459 C3453 1.390 . S
C3459 C3456 1.386 . S
C3460 C3455 1.490 . S
C3460 C3462 1.395 . S
C3460 C3463 1.403 . S
H3461 C3467 0.930 . S
C3462 H3448 0.930 . S
C3462 C3460 1.395 . S
C3462 C3465 1.403 . S
C3463 C3460 1.403 . S
C3463 C3464 1.524 . S
C3463 C3467 1.400 . S
C3464 H3449 0.960 . S
C3464 H3450 0.960 . S
C3464 H3451 0.960 . S
C3464 C3463 1.524 . S
C3465 C3462 1.403 . S
C3465 C3466 1.392 . S
C3465 C3469 1.495 . S
C3466 C3465 1.392 . S
C3466 C3467 1.385 . S
C3466 C3468 1.478 . S
C3467 H3461 0.930 . S
C3467 C3463 1.400 . S
C3467 C3466 1.385 . S
C3468 C3466 1.478 . S
C3468 C3470 1.381 . S
C3468 C3474 1.383 . S
C3469 C3465 1.495 . S
C3469 H3475 0.959 . S
C3469 H3476 0.961 . S
C3469 H3477 0.960 . S
C3470 C3468 1.381 . S
C3470 C3471 1.394 . S
C3470 H3478 0.930 . S
C3471 C3470 1.394 . S
C3471 C3472 1.383 . S
C3471 H3479 0.929 . S
C3472 C3471 1.383 . S
C3472 C3473 1.377 . S
C3473 H3457 0.930 . S
C3473 C3472 1.377 . S
C3473 C3474 1.379 . S
C3474 H3458 0.931 . S
C3474 C3468 1.383 . S
C3474 C3473 1.379 . S
H3475 C3469 0.959 . S
H3476 C3469 0.961 . S
H3477 C3469 0.960 . S
H3478 C3470 0.930 . S
H3479 C3471 0.929 . S
H3480 C3488 0.929 . S
H3481 C3490 0.930 . S
H3482 C3492 0.930 . S
H3483 C3495 0.929 . S
H3484 C3498 0.930 . S
H3485 C3500 0.960 . S
H3486 C3500 0.960 . S
H3487 C3500 0.960 . S
C3488 H3480 0.929 . S
C3488 C3489 1.377 . S
C3488 C3490 1.384 . S
C3489 C3488 1.377 . S
C3489 C3495 1.390 1_455 S
C3490 H3481 0.930 . S
C3490 C3488 1.384 . S
C3490 C3491 1.372 . S
C3491 C3490 1.372 . S
C3491 C3492 1.400 1_455 S
C3491 C3496 1.490 . S
C3492 H3482 0.930 . S
C3492 C3491 1.400 1_655 S
C3492 C3495 1.386 . S
H3493 C3509 0.930 1_655 S
H3494 C3510 0.931 1_655 S
C3495 H3483 0.929 . S
C3495 C3489 1.390 1_655 S
C3495 C3492 1.386 . S
C3496 C3491 1.490 . S
C3496 C3498 1.395 . S
C3496 C3499 1.403 1_455 S
H3497 C3503 0.935 1_655 S
C3498 H3484 0.930 . S
C3498 C3496 1.395 . S
C3498 C3501 1.403 . S
C3499 C3496 1.403 1_655 S
C3499 C3500 1.524 . S
C3499 C3503 1.399 1_655 S
C3500 H3485 0.960 . S
C3500 H3486 0.960 . S
C3500 H3487 0.960 . S
C3500 C3499 1.524 . S
C3501 C3498 1.403 . S
C3501 C3502 1.392 . S
C3501 C3505 1.495 . S
C3502 C3501 1.392 . S
C3502 C3503 1.381 . S
C3502 C3504 1.478 . S
C3503 H3497 0.935 1_455 S
C3503 C3499 1.399 1_455 S
C3503 C3502 1.381 . S
C3504 C3502 1.478 . S
C3504 C3506 1.381 1_556 S
C3504 C3510 1.383 . S
C3505 C3501 1.495 . S
C3505 H3511 0.959 . S
C3505 H3512 0.961 . S
C3505 H3513 0.960 . S
C3506 C3504 1.381 1_554 S
C3506 C3507 1.394 . S
C3506 H3514 0.930 . S
C3507 C3506 1.394 . S
C3507 C3508 1.393 . S
C3507 H3515 0.929 . S
C3508 C3507 1.393 . S
C3508 C3509 1.364 1_554 S
C3509 H3493 0.930 1_455 S
C3509 C3508 1.364 1_556 S
C3509 C3510 1.379 . S
C3510 H3494 0.931 1_455 S
C3510 C3504 1.383 . S
C3510 C3509 1.379 . S
H3511 C3505 0.959 . S
H3512 C3505 0.961 . S
H3513 C3505 0.960 . S
H3514 C3506 0.930 . S
H3515 C3507 0.929 . S
H3516 C3524 0.929 . S
H3517 C3526 0.930 . S
H3518 C3528 0.930 . S
H3519 C3531 0.929 . S
H3520 C3534 0.930 . S
H3521 C3536 0.960 . S
H3522 C3536 0.960 . S
H3523 C3536 0.960 . S
C3524 H3516 0.929 . S
C3524 C3525 1.377 1_655 S
C3524 C3526 1.384 . S
C3525 C3524 1.377 1_455 S
C3525 C3531 1.390 . S
C3526 H3517 0.930 . S
C3526 C3524 1.384 . S
C3526 C3527 1.372 . S
C3527 C3526 1.372 . S
C3527 C3528 1.400 . S
C3527 C3532 1.490 . S
C3528 H3518 0.930 . S
C3528 C3527 1.400 . S
C3528 C3531 1.386 1_655 S
H3529 C3545 0.930 . S
H3530 C3546 0.931 . S
C3531 H3519 0.929 . S
C3531 C3525 1.390 . S
C3531 C3528 1.386 1_455 S
C3532 C3527 1.490 . S
C3532 C3534 1.395 . S
C3532 C3535 1.403 . S
H3533 C3539 0.930 . S
C3534 H3520 0.930 . S
C3534 C3532 1.395 . S
C3534 C3537 1.403 . S
C3535 C3532 1.403 . S
C3535 C3536 1.524 . S
C3535 C3539 1.400 . S
C3536 H3521 0.960 . S
C3536 H3522 0.960 . S
C3536 H3523 0.960 . S
C3536 C3535 1.524 . S
C3537 C3534 1.403 . S
C3537 C3538 1.392 . S
C3537 C3541 1.495 . S
C3538 C3537 1.392 . S
C3538 C3539 1.385 . S
C3538 C3540 1.478 . S
C3539 H3533 0.930 . S
C3539 C3535 1.400 . S
C3539 C3538 1.385 . S
C3540 C3538 1.478 . S
C3540 C3542 1.381 . S
C3540 C3546 1.383 . S
C3541 C3537 1.495 . S
C3541 H3547 0.959 . S
C3541 H3548 0.961 . S
C3541 H3549 0.960 . S
C3542 C3540 1.381 . S
C3542 C3543 1.394 . S
C3542 H3550 0.930 . S
C3543 C3542 1.394 . S
C3543 C3544 1.383 . S
C3543 H3551 0.929 . S
C3544 C3543 1.383 . S
C3544 C3545 1.377 . S
C3545 H3529 0.930 . S
C3545 C3544 1.377 . S
C3545 C3546 1.379 . S
C3546 H3530 0.931 . S
C3546 C3540 1.383 . S
C3546 C3545 1.379 . S
H3547 C3541 0.959 . S
H3548 C3541 0.961 . S
H3549 C3541 0.960 . S
H3550 C3542 0.930 . S
H3551 C3543 0.929 . S
H3552 C3560 0.929 . S
H3553 C3562 0.930 . S
H3554 C3564 0.930 . S
H3555 C3567 0.929 . S
H3556 C3570 0.930 . S
H3557 C3572 0.960 . S
H3558 C3572 0.960 . S
H3559 C3572 0.960 . S
C3560 H3552 0.929 . S
C3560 C3561 1.377 . S
C3560 C3562 1.384 . S
C3561 C3560 1.377 . S
C3561 C3567 1.390 . S
C3562 H3553 0.930 . S
C3562 C3560 1.384 . S
C3562 C3563 1.372 . S
C3563 C3562 1.372 . S
C3563 C3564 1.400 . S
C3563 C3568 1.490 . S
C3564 H3554 0.930 . S
C3564 C3563 1.400 . S
C3564 C3567 1.386 . S
H3565 C3581 0.930 . S
H3566 C3582 0.931 . S
C3567 H3555 0.929 . S
C3567 C3561 1.390 . S
C3567 C3564 1.386 . S
C3568 C3563 1.490 . S
C3568 C3570 1.395 . S
C3568 C3571 1.403 . S
H3569 C3575 0.930 . S
C3570 H3556 0.930 . S
C3570 C3568 1.395 . S
C3570 C3573 1.403 . S
C3571 C3568 1.403 . S
C3571 C3572 1.524 . S
C3571 C3575 1.400 . S
C3572 H3557 0.960 . S
C3572 H3558 0.960 . S
C3572 H3559 0.960 . S
C3572 C3571 1.524 . S
C3573 C3570 1.403 . S
C3573 C3574 1.392 . S
C3573 C3577 1.495 . S
C3574 C3573 1.392 . S
C3574 C3575 1.385 . S
C3574 C3576 1.478 . S
C3575 H3569 0.930 . S
C3575 C3571 1.400 . S
C3575 C3574 1.385 . S
C3576 C3574 1.478 . S
C3576 C3578 1.381 . S
C3576 C3582 1.383 . S
C3577 C3573 1.495 . S
C3577 H3583 0.959 . S
C3577 H3584 0.961 . S
C3577 H3585 0.960 . S
C3578 C3576 1.381 . S
C3578 C3579 1.394 . S
C3578 H3586 0.930 . S
C3579 C3578 1.394 . S
C3579 C3580 1.383 . S
C3579 H3587 0.929 . S
C3580 C3579 1.383 . S
C3580 C3581 1.377 . S
C3581 H3565 0.930 . S
C3581 C3580 1.377 . S
C3581 C3582 1.379 . S
C3582 H3566 0.931 . S
C3582 C3576 1.383 . S
C3582 C3581 1.379 . S
H3583 C3577 0.959 . S
H3584 C3577 0.961 . S
H3585 C3577 0.960 . S
H3586 C3578 0.930 . S
H3587 C3579 0.929 . S
H3588 C3596 0.929 . S
H3589 C3598 0.930 . S
H3590 C3600 0.930 . S
H3591 C3603 0.929 . S
H3592 C3606 0.930 . S
H3593 C3608 0.960 . S
H3594 C3608 0.960 . S
H3595 C3608 0.960 . S
C3596 H3588 0.929 . S
C3596 C3597 1.377 . S
C3596 C3598 1.384 . S
C3597 C3596 1.377 . S
C3597 C3603 1.390 . S
C3598 H3589 0.930 . S
C3598 C3596 1.384 . S
C3598 C3599 1.372 . S
C3599 C3598 1.372 . S
C3599 C3600 1.400 . S
C3599 C3604 1.490 . S
C3600 H3590 0.930 . S
C3600 C3599 1.400 . S
C3600 C3603 1.386 . S
H3601 C3617 0.930 . S
H3602 C3618 0.931 . S
C3603 H3591 0.929 . S
C3603 C3597 1.390 . S
C3603 C3600 1.386 . S
C3604 C3599 1.490 . S
C3604 C3606 1.395 . S
C3604 C3607 1.403 . S
H3605 C3611 0.930 . S
C3606 H3592 0.930 . S
C3606 C3604 1.395 . S
C3606 C3609 1.403 . S
C3607 C3604 1.403 . S
C3607 C3608 1.524 . S
C3607 C3611 1.400 . S
C3608 H3593 0.960 . S
C3608 H3594 0.960 . S
C3608 H3595 0.960 . S
C3608 C3607 1.524 . S
C3609 C3606 1.403 . S
C3609 C3610 1.392 . S
C3609 C3613 1.495 . S
C3610 C3609 1.392 . S
C3610 C3611 1.385 . S
C3610 C3612 1.478 . S
C3611 H3605 0.930 . S
C3611 C3607 1.400 . S
C3611 C3610 1.385 . S
C3612 C3610 1.478 . S
C3612 C3614 1.381 . S
C3612 C3618 1.383 . S
C3613 C3609 1.495 . S
C3613 H3619 0.959 . S
C3613 H3620 0.961 . S
C3613 H3621 0.960 . S
C3614 C3612 1.381 . S
C3614 C3615 1.394 . S
C3614 H3622 0.930 . S
C3615 C3614 1.394 . S
C3615 C3616 1.383 . S
C3615 H3623 0.929 . S
C3616 C3615 1.383 . S
C3616 C3617 1.377 . S
C3617 H3601 0.930 . S
C3617 C3616 1.377 . S
C3617 C3618 1.379 . S
C3618 H3602 0.931 . S
C3618 C3612 1.383 . S
C3618 C3617 1.379 . S
H3619 C3613 0.959 . S
H3620 C3613 0.961 . S
H3621 C3613 0.960 . S
H3622 C3614 0.930 . S
H3623 C3615 0.929 . S
H3624 C3632 0.929 . S
H3625 C3634 0.930 . S
H3626 C3636 0.930 . S
H3627 C3639 0.929 . S
H3628 C3642 0.930 . S
H3629 C3644 0.960 . S
H3630 C3644 0.960 . S
H3631 C3644 0.960 . S
C3632 H3624 0.929 . S
C3632 C3633 1.377 1_655 S
C3632 C3634 1.384 . S
C3633 C3632 1.377 1_455 S
C3633 C3639 1.390 . S
C3634 H3625 0.930 . S
C3634 C3632 1.384 . S
C3634 C3635 1.372 1_655 S
C3635 C3634 1.372 1_455 S
C3635 C3636 1.400 . S
C3635 C3640 1.490 . S
C3636 H3626 0.930 . S
C3636 C3635 1.400 . S
C3636 C3639 1.386 . S
H3637 C3653 0.930 . S
H3638 C3654 0.931 . S
C3639 H3627 0.929 . S
C3639 C3633 1.390 . S
C3639 C3636 1.386 . S
C3640 C3635 1.490 . S
C3640 C3642 1.395 1_455 S
C3640 C3643 1.403 . S
H3641 C3647 0.930 . S
C3642 H3628 0.930 . S
C3642 C3640 1.395 1_655 S
C3642 C3645 1.403 . S
C3643 C3640 1.403 . S
C3643 C3644 1.524 . S
C3643 C3647 1.400 . S
C3644 H3629 0.960 . S
C3644 H3630 0.960 . S
C3644 H3631 0.960 . S
C3644 C3643 1.524 . S
C3645 C3642 1.403 . S
C3645 C3646 1.392 1_655 S
C3645 C3649 1.495 . S
C3646 C3645 1.392 1_455 S
C3646 C3647 1.385 . S
C3646 C3648 1.478 . S
C3647 H3641 0.930 . S
C3647 C3643 1.400 . S
C3647 C3646 1.385 . S
C3648 C3646 1.478 . S
C3648 C3650 1.406 . S
C3648 C3654 1.383 . S
C3649 C3645 1.495 . S
C3649 H3655 0.959 . S
C3649 H3656 0.961 . S
C3649 H3657 0.960 . S
C3650 C3648 1.406 . S
C3650 C3651 1.411 . S
C3650 H3658 0.890 1_455 S
C3651 C3650 1.411 . S
C3651 C3652 1.383 . S
C3651 H3659 0.929 1_455 S
C3652 C3651 1.383 . S
C3652 C3653 1.377 . S
C3653 H3637 0.930 . S
C3653 C3652 1.377 . S
C3653 C3654 1.379 . S
C3654 H3638 0.931 . S
C3654 C3648 1.383 . S
C3654 C3653 1.379 . S
H3655 C3649 0.959 . S
H3656 C3649 0.961 . S
H3657 C3649 0.960 . S
H3658 C3650 0.890 1_655 S
H3659 C3651 0.929 1_655 S
H3660 C3668 0.929 . S
H3661 C3670 0.930 . S
H3662 C3672 0.930 . S
H3663 C3675 0.929 . S
H3664 C3678 0.930 . S
H3665 C3680 0.960 . S
H3666 C3680 0.960 . S
H3667 C3680 0.960 . S
C3668 H3660 0.929 . S
C3668 C3669 1.377 . S
C3668 C3670 1.384 . S
C3669 C3668 1.377 . S
C3669 C3675 1.390 . S
C3670 H3661 0.930 . S
C3670 C3668 1.384 . S
C3670 C3671 1.372 . S
C3671 C3670 1.372 . S
C3671 C3672 1.400 . S
C3671 C3676 1.490 . S
C3672 H3662 0.930 . S
C3672 C3671 1.400 . S
C3672 C3675 1.386 . S
H3673 C3689 0.930 . S
H3674 C3690 0.931 . S
C3675 H3663 0.929 . S
C3675 C3669 1.390 . S
C3675 C3672 1.386 . S
C3676 C3671 1.490 . S
C3676 C3678 1.395 . S
C3676 C3679 1.403 . S
H3677 C3683 0.930 . S
C3678 H3664 0.930 . S
C3678 C3676 1.395 . S
C3678 C3681 1.403 . S
C3679 C3676 1.403 . S
C3679 C3680 1.524 . S
C3679 C3683 1.400 . S
C3680 H3665 0.960 . S
C3680 H3666 0.960 . S
C3680 H3667 0.960 . S
C3680 C3679 1.524 . S
C3681 C3678 1.403 . S
C3681 C3682 1.392 . S
C3681 C3685 1.495 . S
C3682 C3681 1.392 . S
C3682 C3683 1.385 . S
C3682 C3684 1.478 . S
C3683 H3677 0.930 . S
C3683 C3679 1.400 . S
C3683 C3682 1.385 . S
C3684 C3682 1.478 . S
C3684 C3686 1.381 . S
C3684 C3690 1.383 . S
C3685 C3681 1.495 . S
C3685 H3691 0.959 . S
C3685 H3692 0.961 . S
C3685 H3693 0.960 . S
C3686 C3684 1.381 . S
C3686 C3687 1.394 . S
C3686 H3694 0.930 . S
C3687 C3686 1.394 . S
C3687 C3688 1.383 . S
C3687 H3695 0.929 . S
C3688 C3687 1.383 . S
C3688 C3689 1.377 . S
C3689 H3673 0.930 . S
C3689 C3688 1.377 . S
C3689 C3690 1.379 . S
C3690 H3674 0.931 . S
C3690 C3684 1.383 . S
C3690 C3689 1.379 . S
H3691 C3685 0.959 . S
H3692 C3685 0.961 . S
H3693 C3685 0.960 . S
H3694 C3686 0.930 . S
H3695 C3687 0.929 . S
H3696 C3704 0.929 . S
H3697 C3706 0.930 . S
H3698 C3708 0.930 . S
H3699 C3711 0.929 . S
H3700 C3714 0.930 . S
H3701 C3716 0.960 . S
H3702 C3716 0.960 . S
H3703 C3716 0.960 . S
C3704 H3696 0.929 . S
C3704 C3705 1.377 . S
C3704 C3706 1.384 . S
C3705 C3704 1.377 . S
C3705 C3711 1.390 . S
C3706 H3697 0.930 . S
C3706 C3704 1.384 . S
C3706 C3707 1.372 . S
C3707 C3706 1.372 . S
C3707 C3708 1.400 . S
C3707 C3712 1.490 . S
C3708 H3698 0.930 . S
C3708 C3707 1.400 . S
C3708 C3711 1.386 . S
H3709 C3725 0.930 . S
H3710 C3726 0.931 . S
C3711 H3699 0.929 . S
C3711 C3705 1.390 . S
C3711 C3708 1.386 . S
C3712 C3707 1.490 . S
C3712 C3714 1.395 . S
C3712 C3715 1.403 . S
H3713 C3719 0.930 . S
C3714 H3700 0.930 . S
C3714 C3712 1.395 . S
C3714 C3717 1.403 . S
C3715 C3712 1.403 . S
C3715 C3716 1.524 . S
C3715 C3719 1.400 . S
C3716 H3701 0.960 . S
C3716 H3702 0.960 . S
C3716 H3703 0.960 . S
C3716 C3715 1.524 . S
C3717 C3714 1.403 . S
C3717 C3718 1.392 . S
C3717 C3721 1.495 . S
C3718 C3717 1.392 . S
C3718 C3719 1.385 . S
C3718 C3720 1.478 . S
C3719 H3713 0.930 . S
C3719 C3715 1.400 . S
C3719 C3718 1.385 . S
C3720 C3718 1.478 . S
C3720 C3722 1.381 . S
C3720 C3726 1.383 . S
C3721 C3717 1.495 . S
C3721 H3727 0.959 . S
C3721 H3728 0.961 . S
C3721 H3729 0.960 . S
C3722 C3720 1.381 . S
C3722 C3723 1.394 . S
C3722 H3730 0.930 . S
C3723 C3722 1.394 . S
C3723 C3724 1.383 . S
C3723 H3731 0.929 . S
C3724 C3723 1.383 . S
C3724 C3725 1.377 . S
C3725 H3709 0.930 . S
C3725 C3724 1.377 . S
C3725 C3726 1.379 . S
C3726 H3710 0.931 . S
C3726 C3720 1.383 . S
C3726 C3725 1.379 . S
H3727 C3721 0.959 . S
H3728 C3721 0.961 . S
H3729 C3721 0.960 . S
H3730 C3722 0.930 . S
H3731 C3723 0.929 . S
H3732 C3740 0.929 . S
H3733 C3742 0.930 . S
H3734 C3744 0.930 . S
H3735 C3747 0.929 . S
H3736 C3750 0.930 . S
H3737 C3752 0.960 . S
H3738 C3752 0.960 . S
H3739 C3752 0.960 . S
C3740 H3732 0.929 . S
C3740 C3741 1.377 . S
C3740 C3742 1.384 1_554 S
C3741 C3740 1.377 . S
C3741 C3747 1.390 1_554 S
C3742 H3733 0.930 . S
C3742 C3740 1.384 1_556 S
C3742 C3743 1.372 . S
C3743 C3742 1.372 . S
C3743 C3744 1.400 . S
C3743 C3748 1.490 . S
C3744 H3734 0.930 . S
C3744 C3743 1.400 . S
C3744 C3747 1.386 . S
H3745 C3761 0.930 . S
H3746 C3762 0.931 . S
C3747 H3735 0.929 . S
C3747 C3741 1.390 1_556 S
C3747 C3744 1.386 . S
C3748 C3743 1.490 . S
C3748 C3750 1.395 . S
C3748 C3751 1.403 . S
H3749 C3755 0.930 . S
C3750 H3736 0.930 . S
C3750 C3748 1.395 . S
C3750 C3753 1.403 . S
C3751 C3748 1.403 . S
C3751 C3752 1.524 . S
C3751 C3755 1.400 . S
C3752 H3737 0.960 . S
C3752 H3738 0.960 . S
C3752 H3739 0.960 . S
C3752 C3751 1.524 . S
C3753 C3750 1.403 . S
C3753 C3754 1.392 . S
C3753 C3757 1.495 . S
C3754 C3753 1.392 . S
C3754 C3755 1.385 . S
C3754 C3756 1.478 . S
C3755 H3749 0.930 . S
C3755 C3751 1.400 . S
C3755 C3754 1.385 . S
C3756 C3754 1.478 . S
C3756 C3758 1.381 . S
C3756 C3762 1.383 . S
C3757 C3753 1.495 . S
C3757 H3763 0.959 . S
C3757 H3764 0.961 . S
C3757 H3765 0.960 . S
C3758 C3756 1.381 . S
C3758 C3759 1.394 . S
C3758 H3766 0.930 . S
C3759 C3758 1.394 . S
C3759 C3760 1.383 . S
C3759 H3767 0.929 . S
C3760 C3759 1.383 . S
C3760 C3761 1.377 . S
C3761 H3745 0.930 . S
C3761 C3760 1.377 . S
C3761 C3762 1.379 . S
C3762 H3746 0.931 . S
C3762 C3756 1.383 . S
C3762 C3761 1.379 . S
H3763 C3757 0.959 . S
H3764 C3757 0.961 . S
H3765 C3757 0.960 . S
H3766 C3758 0.930 . S
H3767 C3759 0.929 . S
H3768 C3776 0.929 . S
H3769 C3778 0.930 . S
H3770 C3780 0.930 . S
H3771 C3783 0.929 . S
H3772 C3786 0.930 . S
H3773 C3788 0.960 . S
H3774 C3788 0.960 . S
H3775 C3788 0.960 . S
C3776 H3768 0.929 . S
C3776 C3777 1.377 . S
C3776 C3778 1.384 . S
C3777 C3776 1.377 . S
C3777 C3783 1.390 . S
C3778 H3769 0.930 . S
C3778 C3776 1.384 . S
C3778 C3779 1.372 . S
C3779 C3778 1.372 . S
C3779 C3780 1.400 . S
C3779 C3784 1.490 . S
C3780 H3770 0.930 . S
C3780 C3779 1.400 . S
C3780 C3783 1.386 . S
H3781 C3797 0.930 . S
H3782 C3798 0.931 . S
C3783 H3771 0.929 . S
C3783 C3777 1.390 . S
C3783 C3780 1.386 . S
C3784 C3779 1.490 . S
C3784 C3786 1.395 . S
C3784 C3787 1.403 . S
H3785 C3791 0.930 . S
C3786 H3772 0.930 . S
C3786 C3784 1.395 . S
C3786 C3789 1.403 . S
C3787 C3784 1.403 . S
C3787 C3788 1.524 . S
C3787 C3791 1.400 . S
C3788 H3773 0.960 . S
C3788 H3774 0.960 . S
C3788 H3775 0.960 . S
C3788 C3787 1.524 . S
C3789 C3786 1.403 . S
C3789 C3790 1.392 . S
C3789 C3793 1.495 . S
C3790 C3789 1.392 . S
C3790 C3791 1.385 . S
C3790 C3792 1.478 . S
C3791 H3785 0.930 . S
C3791 C3787 1.400 . S
C3791 C3790 1.385 . S
C3792 C3790 1.478 . S
C3792 C3794 1.381 . S
C3792 C3798 1.383 . S
C3793 C3789 1.495 . S
C3793 H3799 0.959 . S
C3793 H3800 0.961 . S
C3793 H3801 0.960 . S
C3794 C3792 1.381 . S
C3794 C3795 1.394 . S
C3794 H3802 0.930 . S
C3795 C3794 1.394 . S
C3795 C3796 1.383 . S
C3795 H3803 0.929 . S
C3796 C3795 1.383 . S
C3796 C3797 1.377 . S
C3797 H3781 0.930 . S
C3797 C3796 1.377 . S
C3797 C3798 1.379 . S
C3798 H3782 0.931 . S
C3798 C3792 1.383 . S
C3798 C3797 1.379 . S
H3799 C3793 0.959 . S
H3800 C3793 0.961 . S
H3801 C3793 0.960 . S
H3802 C3794 0.930 . S
H3803 C3795 0.929 . S
H3804 C3812 0.929 . S
H3805 C3814 0.930 . S
H3806 C3816 0.930 . S
H3807 C3819 0.929 . S
H3808 C3822 0.930 . S
H3809 C3824 0.960 . S
H3810 C3824 0.960 . S
H3811 C3824 0.960 . S
C3812 H3804 0.929 . S
C3812 C3813 1.377 . S
C3812 C3814 1.384 . S
C3813 C3812 1.377 . S
C3813 C3819 1.390 . S
C3814 H3805 0.930 . S
C3814 C3812 1.384 . S
C3814 C3815 1.372 . S
C3815 C3814 1.372 . S
C3815 C3816 1.400 . S
C3815 C3820 1.490 . S
C3816 H3806 0.930 . S
C3816 C3815 1.400 . S
C3816 C3819 1.386 . S
H3817 C3833 0.930 . S
H3818 C3834 0.931 . S
C3819 H3807 0.929 . S
C3819 C3813 1.390 . S
C3819 C3816 1.386 . S
C3820 C3815 1.490 . S
C3820 C3822 1.395 . S
C3820 C3823 1.403 . S
H3821 C3827 0.930 . S
C3822 H3808 0.930 . S
C3822 C3820 1.395 . S
C3822 C3825 1.403 . S
C3823 C3820 1.403 . S
C3823 C3824 1.524 . S
C3823 C3827 1.400 . S
C3824 H3809 0.960 . S
C3824 H3810 0.960 . S
C3824 H3811 0.960 . S
C3824 C3823 1.524 . S
C3825 C3822 1.403 . S
C3825 C3826 1.392 . S
C3825 C3829 1.495 . S
C3826 C3825 1.392 . S
C3826 C3827 1.385 . S
C3826 C3828 1.478 . S
C3827 H3821 0.930 . S
C3827 C3823 1.400 . S
C3827 C3826 1.385 . S
C3828 C3826 1.478 . S
C3828 C3830 1.381 . S
C3828 C3834 1.383 . S
C3829 C3825 1.495 . S
C3829 H3835 0.959 . S
C3829 H3836 0.961 . S
C3829 H3837 0.960 . S
C3830 C3828 1.381 . S
C3830 C3831 1.394 . S
C3830 H3838 0.930 . S
C3831 C3830 1.394 . S
C3831 C3832 1.383 . S
C3831 H3839 0.929 . S
C3832 C3831 1.383 . S
C3832 C3833 1.377 . S
C3833 H3817 0.930 . S
C3833 C3832 1.377 . S
C3833 C3834 1.379 . S
C3834 H3818 0.931 . S
C3834 C3828 1.383 . S
C3834 C3833 1.379 . S
H3835 C3829 0.959 . S
H3836 C3829 0.961 . S
H3837 C3829 0.960 . S
H3838 C3830 0.930 . S
H3839 C3831 0.929 . S
H3840 C3848 0.929 . S
H3841 C3850 0.930 . S
H3842 C3852 0.930 . S
H3843 C3855 0.929 . S
H3844 C3858 0.930 . S
H3845 C3860 0.960 . S
H3846 C3860 0.960 . S
H3847 C3860 0.960 . S
C3848 H3840 0.929 . S
C3848 C3849 1.377 . S
C3848 C3850 1.384 . S
C3849 C3848 1.377 . S
C3849 C3855 1.390 . S
C3850 H3841 0.930 . S
C3850 C3848 1.384 . S
C3850 C3851 1.372 . S
C3851 C3850 1.372 . S
C3851 C3852 1.400 . S
C3851 C3856 1.490 . S
C3852 H3842 0.930 . S
C3852 C3851 1.400 . S
C3852 C3855 1.386 . S
H3853 C3869 0.930 . S
H3854 C3870 0.931 . S
C3855 H3843 0.929 . S
C3855 C3849 1.390 . S
C3855 C3852 1.386 . S
C3856 C3851 1.490 . S
C3856 C3858 1.395 . S
C3856 C3859 1.403 . S
H3857 C3863 0.930 . S
C3858 H3844 0.930 . S
C3858 C3856 1.395 . S
C3858 C3861 1.403 . S
C3859 C3856 1.403 . S
C3859 C3860 1.524 . S
C3859 C3863 1.400 . S
C3860 H3845 0.960 . S
C3860 H3846 0.960 . S
C3860 H3847 0.960 . S
C3860 C3859 1.524 . S
C3861 C3858 1.403 . S
C3861 C3862 1.392 . S
C3861 C3865 1.495 . S
C3862 C3861 1.392 . S
C3862 C3863 1.385 . S
C3862 C3864 1.478 . S
C3863 H3857 0.930 . S
C3863 C3859 1.400 . S
C3863 C3862 1.385 . S
C3864 C3862 1.478 . S
C3864 C3866 1.381 . S
C3864 C3870 1.383 . S
C3865 C3861 1.495 . S
C3865 H3871 0.959 . S
C3865 H3872 0.961 . S
C3865 H3873 0.960 . S
C3866 C3864 1.381 . S
C3866 C3867 1.394 . S
C3866 H3874 0.930 . S
C3867 C3866 1.394 . S
C3867 C3868 1.383 . S
C3867 H3875 0.929 . S
C3868 C3867 1.383 . S
C3868 C3869 1.377 . S
C3869 H3853 0.930 . S
C3869 C3868 1.377 . S
C3869 C3870 1.379 . S
C3870 H3854 0.931 . S
C3870 C3864 1.383 . S
C3870 C3869 1.379 . S
H3871 C3865 0.959 . S
H3872 C3865 0.961 . S
H3873 C3865 0.960 . S
H3874 C3866 0.930 . S
H3875 C3867 0.929 . S
H3876 C3884 0.929 . S
H3877 C3886 0.930 . S
H3878 C3888 0.930 . S
H3879 C3891 0.929 . S
H3880 C3894 0.930 . S
H3881 C3896 0.960 . S
H3882 C3896 0.960 . S
H3883 C3896 0.960 . S
C3884 H3876 0.929 . S
C3884 C3885 1.377 . S
C3884 C3886 1.384 . S
C3885 C3884 1.377 . S
C3885 C3891 1.390 . S
C3886 H3877 0.930 . S
C3886 C3884 1.384 . S
C3886 C3887 1.372 . S
C3887 C3886 1.372 . S
C3887 C3888 1.400 . S
C3887 C3892 1.490 . S
C3888 H3878 0.930 . S
C3888 C3887 1.400 . S
C3888 C3891 1.386 . S
H3889 C3905 0.930 . S
H3890 C3906 0.931 . S
C3891 H3879 0.929 . S
C3891 C3885 1.390 . S
C3891 C3888 1.386 . S
C3892 C3887 1.490 . S
C3892 C3894 1.395 . S
C3892 C3895 1.403 . S
H3893 C3899 0.930 . S
C3894 H3880 0.930 . S
C3894 C3892 1.395 . S
C3894 C3897 1.403 . S
C3895 C3892 1.403 . S
C3895 C3896 1.524 . S
C3895 C3899 1.400 . S
C3896 H3881 0.960 . S
C3896 H3882 0.960 . S
C3896 H3883 0.960 . S
C3896 C3895 1.524 . S
C3897 C3894 1.403 . S
C3897 C3898 1.392 . S
C3897 C3901 1.495 . S
C3898 C3897 1.392 . S
C3898 C3899 1.385 . S
C3898 C3900 1.478 . S
C3899 H3893 0.930 . S
C3899 C3895 1.400 . S
C3899 C3898 1.385 . S
C3900 C3898 1.478 . S
C3900 C3902 1.381 . S
C3900 C3906 1.383 . S
C3901 C3897 1.495 . S
C3901 H3907 0.959 . S
C3901 H3908 0.961 . S
C3901 H3909 0.960 . S
C3902 C3900 1.381 . S
C3902 C3903 1.394 . S
C3902 H3910 0.930 . S
C3903 C3902 1.394 . S
C3903 C3904 1.383 . S
C3903 H3911 0.929 . S
C3904 C3903 1.383 . S
C3904 C3905 1.377 . S
C3905 H3889 0.930 . S
C3905 C3904 1.377 . S
C3905 C3906 1.379 . S
C3906 H3890 0.931 . S
C3906 C3900 1.383 . S
C3906 C3905 1.379 . S
H3907 C3901 0.959 . S
H3908 C3901 0.961 . S
H3909 C3901 0.960 . S
H3910 C3902 0.930 . S
H3911 C3903 0.929 . S
H3912 C3920 0.929 . S
H3913 C3922 0.930 . S
H3914 C3924 0.930 . S
H3915 C3927 0.929 . S
H3916 C3930 0.930 . S
H3917 C3932 0.960 . S
H3918 C3932 0.960 . S
H3919 C3932 0.960 . S
C3920 H3912 0.929 . S
C3920 C3921 1.377 . S
C3920 C3922 1.384 . S
C3921 C3920 1.377 . S
C3921 C3927 1.390 . S
C3922 H3913 0.930 . S
C3922 C3920 1.384 . S
C3922 C3923 1.372 . S
C3923 C3922 1.372 . S
C3923 C3924 1.400 . S
C3923 C3928 1.490 . S
C3924 H3914 0.930 . S
C3924 C3923 1.400 . S
C3924 C3927 1.386 . S
H3925 C3941 0.930 . S
H3926 C3942 0.931 . S
C3927 H3915 0.929 . S
C3927 C3921 1.390 . S
C3927 C3924 1.386 . S
C3928 C3923 1.490 . S
C3928 C3930 1.395 . S
C3928 C3931 1.403 . S
H3929 C3935 0.930 . S
C3930 H3916 0.930 . S
C3930 C3928 1.395 . S
C3930 C3933 1.403 . S
C3931 C3928 1.403 . S
C3931 C3932 1.524 . S
C3931 C3935 1.400 . S
C3932 H3917 0.960 . S
C3932 H3918 0.960 . S
C3932 H3919 0.960 . S
C3932 C3931 1.524 . S
C3933 C3930 1.403 . S
C3933 C3934 1.392 . S
C3933 C3937 1.495 . S
C3934 C3933 1.392 . S
C3934 C3935 1.385 . S
C3934 C3936 1.478 . S
C3935 H3929 0.930 . S
C3935 C3931 1.400 . S
C3935 C3934 1.385 . S
C3936 C3934 1.478 . S
C3936 C3938 1.381 . S
C3936 C3942 1.383 . S
C3937 C3933 1.495 . S
C3937 H3943 0.959 . S
C3937 H3944 0.961 . S
C3937 H3945 0.960 . S
C3938 C3936 1.381 . S
C3938 C3939 1.394 . S
C3938 H3946 0.930 . S
C3939 C3938 1.394 . S
C3939 C3940 1.383 . S
C3939 H3947 0.929 . S
C3940 C3939 1.383 . S
C3940 C3941 1.377 . S
C3941 H3925 0.930 . S
C3941 C3940 1.377 . S
C3941 C3942 1.379 . S
C3942 H3926 0.931 . S
C3942 C3936 1.383 . S
C3942 C3941 1.379 . S
H3943 C3937 0.959 . S
H3944 C3937 0.961 . S
H3945 C3937 0.960 . S
H3946 C3938 0.930 . S
H3947 C3939 0.929 . S
H3948 C3956 0.929 . S
H3949 C3958 0.930 . S
H3950 C3960 0.930 . S
H3951 C3963 0.929 . S
H3952 C3966 0.930 . S
H3953 C3968 0.960 . S
H3954 C3968 0.960 . S
H3955 C3968 0.960 . S
C3956 H3948 0.929 . S
C3956 C3957 1.377 . S
C3956 C3958 1.384 . S
C3957 C3956 1.377 . S
C3957 C3963 1.390 . S
C3958 H3949 0.930 . S
C3958 C3956 1.384 . S
C3958 C3959 1.372 . S
C3959 C3958 1.372 . S
C3959 C3960 1.400 . S
C3959 C3964 1.490 . S
C3960 H3950 0.930 . S
C3960 C3959 1.400 . S
C3960 C3963 1.386 . S
H3961 C3977 0.930 . S
H3962 C3978 0.931 . S
C3963 H3951 0.929 . S
C3963 C3957 1.390 . S
C3963 C3960 1.386 . S
C3964 C3959 1.490 . S
C3964 C3966 1.395 . S
C3964 C3967 1.403 . S
H3965 C3971 0.930 . S
C3966 H3952 0.930 . S
C3966 C3964 1.395 . S
C3966 C3969 1.403 . S
C3967 C3964 1.403 . S
C3967 C3968 1.524 . S
C3967 C3971 1.400 . S
C3968 H3953 0.960 . S
C3968 H3954 0.960 . S
C3968 H3955 0.960 . S
C3968 C3967 1.524 . S
C3969 C3966 1.403 . S
C3969 C3970 1.392 . S
C3969 C3973 1.495 . S
C3970 C3969 1.392 . S
C3970 C3971 1.385 . S
C3970 C3972 1.478 . S
C3971 H3965 0.930 . S
C3971 C3967 1.400 . S
C3971 C3970 1.385 . S
C3972 C3970 1.478 . S
C3972 C3974 1.381 . S
C3972 C3978 1.383 . S
C3973 C3969 1.495 . S
C3973 H3979 0.959 . S
C3973 H3980 0.961 . S
C3973 H3981 0.960 . S
C3974 C3972 1.381 . S
C3974 C3975 1.394 . S
C3974 H3982 0.930 . S
C3975 C3974 1.394 . S
C3975 C3976 1.383 . S
C3975 H3983 0.929 . S
C3976 C3975 1.383 . S
C3976 C3977 1.377 . S
C3977 H3961 0.930 . S
C3977 C3976 1.377 . S
C3977 C3978 1.379 . S
C3978 H3962 0.931 . S
C3978 C3972 1.383 . S
C3978 C3977 1.379 . S
H3979 C3973 0.959 . S
H3980 C3973 0.961 . S
H3981 C3973 0.960 . S
H3982 C3974 0.930 . S
H3983 C3975 0.929 . S
H3984 C3992 0.929 . S
H3985 C3994 0.930 . S
H3986 C3996 0.930 . S
H3987 C3999 0.929 . S
H3988 C4002 0.930 . S
H3989 C4004 0.960 . S
H3990 C4004 0.960 . S
H3991 C4004 0.960 . S
C3992 H3984 0.929 . S
C3992 C3993 1.377 . S
C3992 C3994 1.384 . S
C3993 C3992 1.377 . S
C3993 C3999 1.390 . S
C3994 H3985 0.930 . S
C3994 C3992 1.384 . S
C3994 C3995 1.372 . S
C3995 C3994 1.372 . S
C3995 C3996 1.400 . S
C3995 C4000 1.490 . S
C3996 H3986 0.930 . S
C3996 C3995 1.400 . S
C3996 C3999 1.386 . S
H3997 C4013 0.930 . S
H3998 C4014 0.931 . S
C3999 H3987 0.929 . S
C3999 C3993 1.390 . S
C3999 C3996 1.386 . S
C4000 C3995 1.490 . S
C4000 C4002 1.395 . S
C4000 C4003 1.403 . S
H4001 C4007 0.930 . S
C4002 H3988 0.930 . S
C4002 C4000 1.395 . S
C4002 C4005 1.403 . S
C4003 C4000 1.403 . S
C4003 C4004 1.524 . S
C4003 C4007 1.400 . S
C4004 H3989 0.960 . S
C4004 H3990 0.960 . S
C4004 H3991 0.960 . S
C4004 C4003 1.524 . S
C4005 C4002 1.403 . S
C4005 C4006 1.392 . S
C4005 C4009 1.495 . S
C4006 C4005 1.392 . S
C4006 C4007 1.385 . S
C4006 C4008 1.478 . S
C4007 H4001 0.930 . S
C4007 C4003 1.400 . S
C4007 C4006 1.385 . S
C4008 C4006 1.478 . S
C4008 C4010 1.381 . S
C4008 C4014 1.383 . S
C4009 C4005 1.495 . S
C4009 H4015 0.959 . S
C4009 H4016 0.961 . S
C4009 H4017 0.960 . S
C4010 C4008 1.381 . S
C4010 C4011 1.394 . S
C4010 H4018 0.930 . S
C4011 C4010 1.394 . S
C4011 C4012 1.383 . S
C4011 H4019 0.929 . S
C4012 C4011 1.383 . S
C4012 C4013 1.377 . S
C4013 H3997 0.930 . S
C4013 C4012 1.377 . S
C4013 C4014 1.379 . S
C4014 H3998 0.931 . S
C4014 C4008 1.383 . S
C4014 C4013 1.379 . S
H4015 C4009 0.959 . S
H4016 C4009 0.961 . S
H4017 C4009 0.960 . S
H4018 C4010 0.930 . S
H4019 C4011 0.929 . S
H4020 C4028 0.929 . S
H4021 C4030 0.930 . S
H4022 C4032 0.930 . S
H4023 C4035 0.929 . S
H4024 C4038 0.930 . S
H4025 C4040 0.960 . S
H4026 C4040 0.960 . S
H4027 C4040 0.960 . S
C4028 H4020 0.929 . S
C4028 C4029 1.377 . S
C4028 C4030 1.384 . S
C4029 C4028 1.377 . S
C4029 C4035 1.390 . S
C4030 H4021 0.930 . S
C4030 C4028 1.384 . S
C4030 C4031 1.372 . S
C4031 C4030 1.372 . S
C4031 C4032 1.400 . S
C4031 C4036 1.490 . S
C4032 H4022 0.930 . S
C4032 C4031 1.400 . S
C4032 C4035 1.386 . S
H4033 C4049 0.930 . S
H4034 C4050 0.931 . S
C4035 H4023 0.929 . S
C4035 C4029 1.390 . S
C4035 C4032 1.386 . S
C4036 C4031 1.490 . S
C4036 C4038 1.395 . S
C4036 C4039 1.403 . S
H4037 C4043 0.930 . S
C4038 H4024 0.930 . S
C4038 C4036 1.395 . S
C4038 C4041 1.403 . S
C4039 C4036 1.403 . S
C4039 C4040 1.524 . S
C4039 C4043 1.400 . S
C4040 H4025 0.960 . S
C4040 H4026 0.960 . S
C4040 H4027 0.960 . S
C4040 C4039 1.524 . S
C4041 C4038 1.403 . S
C4041 C4042 1.392 . S
C4041 C4045 1.495 . S
C4042 C4041 1.392 . S
C4042 C4043 1.385 . S
C4042 C4044 1.478 . S
C4043 H4037 0.930 . S
C4043 C4039 1.400 . S
C4043 C4042 1.385 . S
C4044 C4042 1.478 . S
C4044 C4046 1.381 . S
C4044 C4050 1.383 . S
C4045 C4041 1.495 . S
C4045 H4051 0.959 . S
C4045 H4052 0.961 . S
C4045 H4053 0.960 . S
C4046 C4044 1.381 . S
C4046 C4047 1.394 . S
C4046 H4054 0.930 . S
C4047 C4046 1.394 . S
C4047 C4048 1.383 . S
C4047 H4055 0.929 . S
C4048 C4047 1.383 . S
C4048 C4049 1.377 . S
C4049 H4033 0.930 . S
C4049 C4048 1.377 . S
C4049 C4050 1.379 . S
C4050 H4034 0.931 . S
C4050 C4044 1.383 . S
C4050 C4049 1.379 . S
H4051 C4045 0.959 . S
H4052 C4045 0.961 . S
H4053 C4045 0.960 . S
H4054 C4046 0.930 . S
H4055 C4047 0.929 . S
H4056 C4064 0.929 1_545 S
H4057 C4066 0.930 . S
H4058 C4068 0.930 . S
H4059 C4071 0.929 . S
H4060 C4074 0.930 . S
H4061 C4076 0.960 . S
H4062 C4076 0.960 . S
H4063 C4076 0.960 . S
C4064 H4056 0.929 1_565 S
C4064 C4065 1.377 . S
C4064 C4066 1.384 . S
C4065 C4064 1.377 . S
C4065 C4071 1.390 . S
C4066 H4057 0.930 . S
C4066 C4064 1.384 . S
C4066 C4067 1.372 . S
C4067 C4066 1.372 . S
C4067 C4068 1.400 . S
C4067 C4072 1.490 . S
C4068 H4058 0.930 . S
C4068 C4067 1.400 . S
C4068 C4071 1.386 . S
H4069 C4085 0.930 . S
H4070 C4086 0.931 . S
C4071 H4059 0.929 . S
C4071 C4065 1.390 . S
C4071 C4068 1.386 . S
C4072 C4067 1.490 . S
C4072 C4074 1.395 . S
C4072 C4075 1.403 . S
H4073 C4079 0.930 . S
C4074 H4060 0.930 . S
C4074 C4072 1.395 . S
C4074 C4077 1.403 . S
C4075 C4072 1.403 . S
C4075 C4076 1.524 . S
C4075 C4079 1.400 . S
C4076 H4061 0.960 . S
C4076 H4062 0.960 . S
C4076 H4063 0.960 . S
C4076 C4075 1.524 . S
C4077 C4074 1.403 . S
C4077 C4078 1.392 . S
C4077 C4081 1.495 . S
C4078 C4077 1.392 . S
C4078 C4079 1.385 . S
C4078 C4080 1.478 . S
C4079 H4073 0.930 . S
C4079 C4075 1.400 . S
C4079 C4078 1.385 . S
C4080 C4078 1.478 . S
C4080 C4082 1.381 . S
C4080 C4086 1.383 . S
C4081 C4077 1.495 . S
C4081 H4087 0.959 . S
C4081 H4088 0.961 . S
C4081 H4089 0.960 . S
C4082 C4080 1.381 . S
C4082 C4083 1.394 . S
C4082 H4090 0.930 . S
C4083 C4082 1.394 . S
C4083 C4084 1.383 . S
C4083 H4091 0.929 . S
C4084 C4083 1.383 . S
C4084 C4085 1.377 . S
C4085 H4069 0.930 . S
C4085 C4084 1.377 . S
C4085 C4086 1.379 . S
C4086 H4070 0.931 . S
C4086 C4080 1.383 . S
C4086 C4085 1.379 . S
H4087 C4081 0.959 . S
H4088 C4081 0.961 . S
H4089 C4081 0.960 . S
H4090 C4082 0.930 . S
H4091 C4083 0.929 . S
H4092 C4100 0.929 . S
H4093 C4102 0.944 . S
H4094 C4104 0.930 . S
H4095 C4107 0.929 . S
H4096 C4110 0.930 . S
H4097 C4112 0.960 . S
H4098 C4112 0.960 . S
H4099 C4112 0.960 . S
C4100 H4092 0.929 . S
C4100 C4101 1.377 1_556 S
C4100 C4102 1.381 . S
C4101 C4100 1.377 1_554 S
C4101 C4107 1.390 . S
C4102 H4093 0.944 . S
C4102 C4100 1.381 . S
C4102 C4103 1.362 1_556 S
C4103 C4102 1.362 1_554 S
C4103 C4104 1.400 . S
C4103 C4108 1.490 . S
C4104 H4094 0.930 . S
C4104 C4103 1.400 . S
C4104 C4107 1.386 . S
H4105 C4121 0.930 . S
H4106 C4122 0.931 . S
C4107 H4095 0.929 . S
C4107 C4101 1.390 . S
C4107 C4104 1.386 . S
C4108 C4103 1.490 . S
C4108 C4110 1.395 . S
C4108 C4111 1.403 1_554 S
H4109 C4115 0.930 . S
C4110 H4096 0.930 . S
C4110 C4108 1.395 . S
C4110 C4113 1.403 . S
C4111 C4108 1.403 1_556 S
C4111 C4112 1.524 . S
C4111 C4115 1.400 . S
C4112 H4097 0.960 . S
C4112 H4098 0.960 . S
C4112 H4099 0.960 . S
C4112 C4111 1.524 . S
C4113 C4110 1.403 . S
C4113 C4114 1.392 . S
C4113 C4117 1.495 1_565 S
C4114 C4113 1.392 . S
C4114 C4115 1.385 1_554 S
C4114 C4116 1.478 . S
C4115 H4109 0.930 . S
C4115 C4111 1.400 . S
C4115 C4114 1.385 1_556 S
C4116 C4114 1.478 . S
C4116 C4118 1.381 1_565 S
C4116 C4122 1.383 . S
C4117 C4113 1.495 1_545 S
C4117 H4123 0.959 . S
C4117 H4124 0.961 . S
C4117 H4125 0.960 . S
C4118 C4116 1.381 1_545 S
C4118 C4119 1.394 . S
C4118 H4126 0.930 . S
C4119 C4118 1.394 . S
C4119 C4120 1.383 . S
C4119 H4127 0.929 . S
C4120 C4119 1.383 . S
C4120 C4121 1.377 1_545 S
C4121 H4105 0.930 . S
C4121 C4120 1.377 1_565 S
C4121 C4122 1.379 . S
C4122 H4106 0.931 . S
C4122 C4116 1.383 . S
C4122 C4121 1.379 . S
H4123 C4117 0.959 . S
H4124 C4117 0.961 . S
H4125 C4117 0.960 . S
H4126 C4118 0.930 . S
H4127 C4119 0.929 . S
H4128 C4136 0.929 . S
H4129 C4138 0.930 . S
H4130 C4140 0.930 . S
H4131 C4143 0.929 . S
H4132 C4146 0.930 . S
H4133 C4148 0.960 . S
H4134 C4148 0.960 . S
H4135 C4148 0.960 . S
C4136 H4128 0.929 . S
C4136 C4137 1.377 . S
C4136 C4138 1.384 . S
C4137 C4136 1.377 . S
C4137 C4143 1.390 . S
C4138 H4129 0.930 . S
C4138 C4136 1.384 . S
C4138 C4139 1.372 . S
C4139 C4138 1.372 . S
C4139 C4140 1.400 . S
C4139 C4144 1.490 . S
C4140 H4130 0.930 . S
C4140 C4139 1.400 . S
C4140 C4143 1.386 . S
H4141 C4157 0.930 . S
H4142 C4158 0.931 . S
C4143 H4131 0.929 . S
C4143 C4137 1.390 . S
C4143 C4140 1.386 . S
C4144 C4139 1.490 . S
C4144 C4146 1.395 . S
C4144 C4147 1.403 . S
H4145 C4151 0.930 . S
C4146 H4132 0.930 . S
C4146 C4144 1.395 . S
C4146 C4149 1.403 . S
C4147 C4144 1.403 . S
C4147 C4148 1.524 . S
C4147 C4151 1.400 . S
C4148 H4133 0.960 . S
C4148 H4134 0.960 . S
C4148 H4135 0.960 . S
C4148 C4147 1.524 . S
C4149 C4146 1.403 . S
C4149 C4150 1.392 . S
C4149 C4153 1.495 . S
C4150 C4149 1.392 . S
C4150 C4151 1.385 . S
C4150 C4152 1.478 . S
C4151 H4145 0.930 . S
C4151 C4147 1.400 . S
C4151 C4150 1.385 . S
C4152 C4150 1.478 . S
C4152 C4154 1.381 . S
C4152 C4158 1.383 . S
C4153 C4149 1.495 . S
C4153 H4159 0.959 . S
C4153 H4160 0.961 . S
C4153 H4161 0.960 . S
C4154 C4152 1.381 . S
C4154 C4155 1.394 . S
C4154 H4162 0.930 . S
C4155 C4154 1.394 . S
C4155 C4156 1.383 . S
C4155 H4163 0.929 . S
C4156 C4155 1.383 . S
C4156 C4157 1.377 . S
C4157 H4141 0.930 . S
C4157 C4156 1.377 . S
C4157 C4158 1.379 . S
C4158 H4142 0.931 . S
C4158 C4152 1.383 . S
C4158 C4157 1.379 . S
H4159 C4153 0.959 . S
H4160 C4153 0.961 . S
H4161 C4153 0.960 . S
H4162 C4154 0.930 . S
H4163 C4155 0.929 . S
H4164 C4172 0.929 . S
H4165 C4174 0.930 . S
H4166 C4176 0.930 . S
H4167 C4179 0.929 . S
H4168 C4182 0.930 . S
H4169 C4184 0.960 . S
H4170 C4184 0.960 . S
H4171 C4184 0.920 1_556 S
C4172 H4164 0.929 . S
C4172 C4173 1.377 . S
C4172 C4174 1.384 . S
C4173 C4172 1.377 . S
C4173 C4179 1.390 1_554 S
C4174 H4165 0.930 . S
C4174 C4172 1.384 . S
C4174 C4175 1.372 . S
C4175 C4174 1.372 . S
C4175 C4176 1.400 1_554 S
C4175 C4180 1.490 . S
C4176 H4166 0.930 . S
C4176 C4175 1.400 1_556 S
C4176 C4179 1.386 . S
H4177 C4193 0.930 1_556 S
H4178 C4194 0.931 1_556 S
C4179 H4167 0.929 . S
C4179 C4173 1.390 1_556 S
C4179 C4176 1.386 . S
C4180 C4175 1.490 . S
C4180 C4182 1.395 . S
C4180 C4183 1.403 . S
H4181 C4187 0.930 . S
C4182 H4168 0.930 . S
C4182 C4180 1.395 . S
C4182 C4185 1.403 . S
C4183 C4180 1.403 . S
C4183 C4184 1.524 . S
C4183 C4187 1.400 . S
C4184 H4169 0.960 . S
C4184 H4170 0.960 . S
C4184 H4171 0.920 1_554 S
C4184 C4183 1.524 . S
C4185 C4182 1.403 . S
C4185 C4186 1.392 . S
C4185 C4189 1.495 . S
C4186 C4185 1.392 . S
C4186 C4187 1.385 . S
C4186 C4188 1.478 . S
C4187 H4181 0.930 . S
C4187 C4183 1.400 . S
C4187 C4186 1.385 . S
C4188 C4186 1.478 . S
C4188 C4190 1.381 . S
C4188 C4194 1.383 . S
C4189 C4185 1.495 . S
C4189 H4195 0.959 . S
C4189 H4196 0.961 . S
C4189 H4197 0.960 . S
C4190 C4188 1.381 . S
C4190 C4191 1.394 . S
C4190 H4198 0.930 . S
C4191 C4190 1.394 . S
C4191 C4192 1.383 . S
C4191 H4199 0.929 . S
C4192 C4191 1.383 . S
C4192 C4193 1.377 . S
C4193 H4177 0.930 1_554 S
C4193 C4192 1.377 . S
C4193 C4194 1.379 . S
C4194 H4178 0.931 1_554 S
C4194 C4188 1.383 . S
C4194 C4193 1.379 . S
H4195 C4189 0.959 . S
H4196 C4189 0.961 . S
H4197 C4189 0.960 . S
H4198 C4190 0.930 . S
H4199 C4191 0.929 . S
H4200 C4208 0.929 . S
H4201 C4210 0.930 . S
H4202 C4212 0.930 . S
H4203 C4215 0.929 . S
H4204 C4218 0.930 . S
H4205 C4220 0.960 . S
H4206 C4220 0.960 . S
H4207 C4220 0.960 . S
C4208 H4200 0.929 . S
C4208 C4209 1.377 . S
C4208 C4210 1.384 . S
C4209 C4208 1.377 . S
C4209 C4215 1.390 . S
C4210 H4201 0.930 . S
C4210 C4208 1.384 . S
C4210 C4211 1.372 . S
C4211 C4210 1.372 . S
C4211 C4212 1.400 . S
C4211 C4216 1.490 . S
C4212 H4202 0.930 . S
C4212 C4211 1.400 . S
C4212 C4215 1.386 . S
H4213 C4229 0.930 . S
H4214 C4230 0.931 . S
C4215 H4203 0.929 . S
C4215 C4209 1.390 . S
C4215 C4212 1.386 . S
C4216 C4211 1.490 . S
C4216 C4218 1.395 . S
C4216 C4219 1.403 . S
H4217 C4223 0.930 . S
C4218 H4204 0.930 . S
C4218 C4216 1.395 . S
C4218 C4221 1.403 . S
C4219 C4216 1.403 . S
C4219 C4220 1.524 . S
C4219 C4223 1.400 . S
C4220 H4205 0.960 . S
C4220 H4206 0.960 . S
C4220 H4207 0.960 . S
C4220 C4219 1.524 . S
C4221 C4218 1.403 . S
C4221 C4222 1.392 . S
C4221 C4225 1.495 . S
C4222 C4221 1.392 . S
C4222 C4223 1.385 . S
C4222 C4224 1.478 . S
C4223 H4217 0.930 . S
C4223 C4219 1.400 . S
C4223 C4222 1.385 . S
C4224 C4222 1.478 . S
C4224 C4226 1.381 . S
C4224 C4230 1.383 . S
C4225 C4221 1.495 . S
C4225 H4231 0.959 . S
C4225 H4232 0.961 . S
C4225 H4233 0.960 . S
C4226 C4224 1.381 . S
C4226 C4227 1.394 . S
C4226 H4234 0.930 . S
C4227 C4226 1.394 . S
C4227 C4228 1.383 . S
C4227 H4235 0.929 . S
C4228 C4227 1.383 . S
C4228 C4229 1.377 . S
C4229 H4213 0.930 . S
C4229 C4228 1.377 . S
C4229 C4230 1.379 . S
C4230 H4214 0.931 . S
C4230 C4224 1.383 . S
C4230 C4229 1.379 . S
H4231 C4225 0.959 . S
H4232 C4225 0.961 . S
H4233 C4225 0.960 . S
H4234 C4226 0.930 . S
H4235 C4227 0.929 . S
H4236 C4244 0.929 . S
H4237 C4246 0.930 . S
H4238 C4248 0.930 . S
H4239 C4251 0.929 . S
H4240 C4254 0.930 . S
H4241 C4256 0.960 . S
H4242 C4256 0.960 . S
H4243 C4256 0.960 . S
C4244 H4236 0.929 . S
C4244 C4245 1.377 . S
C4244 C4246 1.384 . S
C4245 C4244 1.377 . S
C4245 C4251 1.390 . S
C4246 H4237 0.930 . S
C4246 C4244 1.384 . S
C4246 C4247 1.372 . S
C4247 C4246 1.372 . S
C4247 C4248 1.400 . S
C4247 C4252 1.490 . S
C4248 H4238 0.930 . S
C4248 C4247 1.400 . S
C4248 C4251 1.386 . S
H4249 C4265 0.930 . S
H4250 C4266 0.931 . S
C4251 H4239 0.929 . S
C4251 C4245 1.390 . S
C4251 C4248 1.386 . S
C4252 C4247 1.490 . S
C4252 C4254 1.395 . S
C4252 C4255 1.403 . S
H4253 C4259 0.930 . S
C4254 H4240 0.930 . S
C4254 C4252 1.395 . S
C4254 C4257 1.403 . S
C4255 C4252 1.403 . S
C4255 C4256 1.524 . S
C4255 C4259 1.400 . S
C4256 H4241 0.960 . S
C4256 H4242 0.960 . S
C4256 H4243 0.960 . S
C4256 C4255 1.524 . S
C4257 C4254 1.403 . S
C4257 C4258 1.392 . S
C4257 C4261 1.495 . S
C4258 C4257 1.392 . S
C4258 C4259 1.385 . S
C4258 C4260 1.478 . S
C4259 H4253 0.930 . S
C4259 C4255 1.400 . S
C4259 C4258 1.385 . S
C4260 C4258 1.478 . S
C4260 C4262 1.381 . S
C4260 C4266 1.383 . S
C4261 C4257 1.495 . S
C4261 H4267 0.959 . S
C4261 H4268 0.961 . S
C4261 H4269 0.960 . S
C4262 C4260 1.381 . S
C4262 C4263 1.394 . S
C4262 H4270 0.930 . S
C4263 C4262 1.394 . S
C4263 C4264 1.383 . S
C4263 H4271 0.929 . S
C4264 C4263 1.383 . S
C4264 C4265 1.377 . S
C4265 H4249 0.930 . S
C4265 C4264 1.377 . S
C4265 C4266 1.379 . S
C4266 H4250 0.931 . S
C4266 C4260 1.383 . S
C4266 C4265 1.379 . S
H4267 C4261 0.959 . S
H4268 C4261 0.961 . S
H4269 C4261 0.960 . S
H4270 C4262 0.930 . S
H4271 C4263 0.929 . S
H4272 C4280 0.929 . S
H4273 C4282 0.930 . S
H4274 C4284 0.930 . S
H4275 C4287 0.929 . S
H4276 C4290 0.930 . S
H4277 C4292 0.960 . S
H4278 C4292 0.960 . S
H4279 C4292 0.960 . S
C4280 H4272 0.929 . S
C4280 C4281 1.377 . S
C4280 C4282 1.384 . S
C4281 C4280 1.377 . S
C4281 C4287 1.390 . S
C4282 H4273 0.930 . S
C4282 C4280 1.384 . S
C4282 C4283 1.372 . S
C4283 C4282 1.372 . S
C4283 C4284 1.400 . S
C4283 C4288 1.490 . S
C4284 H4274 0.930 . S
C4284 C4283 1.400 . S
C4284 C4287 1.386 . S
H4285 C4301 0.930 . S
H4286 C4302 0.931 . S
C4287 H4275 0.929 . S
C4287 C4281 1.390 . S
C4287 C4284 1.386 . S
C4288 C4283 1.490 . S
C4288 C4290 1.395 . S
C4288 C4291 1.403 . S
H4289 C4295 0.930 . S
C4290 H4276 0.930 . S
C4290 C4288 1.395 . S
C4290 C4293 1.403 . S
C4291 C4288 1.403 . S
C4291 C4292 1.524 . S
C4291 C4295 1.400 . S
C4292 H4277 0.960 . S
C4292 H4278 0.960 . S
C4292 H4279 0.960 . S
C4292 C4291 1.524 . S
C4293 C4290 1.403 . S
C4293 C4294 1.392 . S
C4293 C4297 1.495 . S
C4294 C4293 1.392 . S
C4294 C4295 1.385 . S
C4294 C4296 1.478 . S
C4295 H4289 0.930 . S
C4295 C4291 1.400 . S
C4295 C4294 1.385 . S
C4296 C4294 1.478 . S
C4296 C4298 1.381 . S
C4296 C4302 1.383 . S
C4297 C4293 1.495 . S
C4297 H4303 0.959 . S
C4297 H4304 0.961 . S
C4297 H4305 0.960 . S
C4298 C4296 1.381 . S
C4298 C4299 1.394 . S
C4298 H4306 0.930 . S
C4299 C4298 1.394 . S
C4299 C4300 1.383 . S
C4299 H4307 0.929 . S
C4300 C4299 1.383 . S
C4300 C4301 1.377 . S
C4301 H4285 0.930 . S
C4301 C4300 1.377 . S
C4301 C4302 1.379 . S
C4302 H4286 0.931 . S
C4302 C4296 1.383 . S
C4302 C4301 1.379 . S
H4303 C4297 0.959 . S
H4304 C4297 0.961 . S
H4305 C4297 0.960 . S
H4306 C4298 0.930 . S
H4307 C4299 0.929 . S
H4308 C4316 0.929 . S
H4309 C4318 0.930 . S
H4310 C4320 0.930 . S
H4311 C4323 0.929 . S
H4312 C4326 0.930 . S
H4313 C4328 0.960 . S
H4314 C4328 0.960 . S
H4315 C4328 0.960 . S
C4316 H4308 0.929 . S
C4316 C4317 1.377 . S
C4316 C4318 1.384 . S
C4317 C4316 1.377 . S
C4317 C4323 1.390 . S
C4318 H4309 0.930 . S
C4318 C4316 1.384 . S
C4318 C4319 1.372 . S
C4319 C4318 1.372 . S
C4319 C4320 1.400 . S
C4319 C4324 1.490 . S
C4320 H4310 0.930 . S
C4320 C4319 1.400 . S
C4320 C4323 1.386 . S
H4321 C4337 0.930 . S
H4322 C4338 0.931 . S
C4323 H4311 0.929 . S
C4323 C4317 1.390 . S
C4323 C4320 1.386 . S
C4324 C4319 1.490 . S
C4324 C4326 1.395 . S
C4324 C4327 1.403 . S
H4325 C4331 0.930 . S
C4326 H4312 0.930 . S
C4326 C4324 1.395 . S
C4326 C4329 1.403 . S
C4327 C4324 1.403 . S
C4327 C4328 1.524 . S
C4327 C4331 1.400 . S
C4328 H4313 0.960 . S
C4328 H4314 0.960 . S
C4328 H4315 0.960 . S
C4328 C4327 1.524 . S
C4329 C4326 1.403 . S
C4329 C4330 1.392 . S
C4329 C4333 1.495 . S
C4330 C4329 1.392 . S
C4330 C4331 1.385 . S
C4330 C4332 1.478 . S
C4331 H4325 0.930 . S
C4331 C4327 1.400 . S
C4331 C4330 1.385 . S
C4332 C4330 1.478 . S
C4332 C4334 1.381 . S
C4332 C4338 1.383 . S
C4333 C4329 1.495 . S
C4333 H4339 0.959 . S
C4333 H4340 0.961 . S
C4333 H4341 0.960 . S
C4334 C4332 1.381 . S
C4334 C4335 1.394 . S
C4334 H4342 0.930 . S
C4335 C4334 1.394 . S
C4335 C4336 1.383 . S
C4335 H4343 0.929 . S
C4336 C4335 1.383 . S
C4336 C4337 1.377 . S
C4337 H4321 0.930 . S
C4337 C4336 1.377 . S
C4337 C4338 1.379 . S
C4338 H4322 0.931 . S
C4338 C4332 1.383 . S
C4338 C4337 1.379 . S
H4339 C4333 0.959 . S
H4340 C4333 0.961 . S
H4341 C4333 0.960 . S
H4342 C4334 0.930 . S
H4343 C4335 0.929 . S
H4344 C4352 0.929 . S
H4345 C4354 0.930 . S
H4346 C4356 0.930 . S
H4347 C4359 0.929 . S
H4348 C4362 0.930 . S
H4349 C4364 0.978 . S
H4350 C4364 0.960 . S
H4351 C4364 0.960 . S
C4352 H4344 0.929 . S
C4352 C4353 1.377 . S
C4352 C4354 1.384 . S
C4353 C4352 1.377 . S
C4353 C4359 1.390 . S
C4354 H4345 0.930 . S
C4354 C4352 1.384 . S
C4354 C4355 1.372 . S
C4355 C4354 1.372 . S
C4355 C4356 1.400 . S
C4355 C4360 1.490 . S
C4356 H4346 0.930 . S
C4356 C4355 1.400 . S
C4356 C4359 1.386 . S
H4357 C4373 0.930 . S
H4358 C4374 0.931 . S
C4359 H4347 0.929 . S
C4359 C4353 1.390 . S
C4359 C4356 1.386 . S
C4360 C4355 1.490 . S
C4360 C4362 1.395 . S
C4360 C4363 1.403 . S
H4361 C4367 0.930 . S
C4362 H4348 0.930 . S
C4362 C4360 1.395 . S
C4362 C4365 1.403 . S
C4363 C4360 1.403 . S
C4363 C4364 1.524 . S
C4363 C4367 1.400 . S
C4364 H4349 0.978 . S
C4364 H4350 0.960 . S
C4364 H4351 0.960 . S
C4364 C4363 1.524 . S
C4365 C4362 1.403 . S
C4365 C4366 1.392 . S
C4365 C4369 1.495 . S
C4366 C4365 1.392 . S
C4366 C4367 1.385 . S
C4366 C4368 1.478 . S
C4367 H4361 0.930 . S
C4367 C4363 1.400 . S
C4367 C4366 1.385 . S
C4368 C4366 1.478 . S
C4368 C4370 1.381 . S
C4368 C4374 1.383 . S
C4369 C4365 1.495 . S
C4369 H4375 0.959 . S
C4369 H4376 0.961 . S
C4369 H4377 0.960 . S
C4370 C4368 1.381 . S
C4370 C4371 1.394 . S
C4370 H4378 0.930 . S
C4371 C4370 1.394 . S
C4371 C4372 1.383 . S
C4371 H4379 0.929 . S
C4372 C4371 1.383 . S
C4372 C4373 1.377 . S
C4373 H4357 0.930 . S
C4373 C4372 1.377 . S
C4373 C4374 1.379 . S
C4374 H4358 0.931 . S
C4374 C4368 1.383 . S
C4374 C4373 1.379 . S
H4375 C4369 0.959 . S
H4376 C4369 0.961 . S
H4377 C4369 0.960 . S
H4378 C4370 0.930 . S
H4379 C4371 0.929 . S
H4380 C4388 0.929 . S
H4381 C4390 0.930 . S
H4382 C4392 0.930 . S
H4383 C4395 0.929 . S
H4384 C4398 0.930 . S
H4385 C4400 0.960 . S
H4386 C4400 0.960 . S
H4387 C4400 0.960 . S
C4388 H4380 0.929 . S
C4388 C4389 1.377 . S
C4388 C4390 1.384 . S
C4389 C4388 1.377 . S
C4389 C4395 1.390 . S
C4390 H4381 0.930 . S
C4390 C4388 1.384 . S
C4390 C4391 1.372 . S
C4391 C4390 1.372 . S
C4391 C4392 1.400 . S
C4391 C4396 1.490 . S
C4392 H4382 0.930 . S
C4392 C4391 1.400 . S
C4392 C4395 1.386 . S
H4393 C4409 0.930 . S
H4394 C4410 0.931 . S
C4395 H4383 0.929 . S
C4395 C4389 1.390 . S
C4395 C4392 1.386 . S
C4396 C4391 1.490 . S
C4396 C4398 1.395 . S
C4396 C4399 1.403 . S
H4397 C4403 0.930 . S
C4398 H4384 0.930 . S
C4398 C4396 1.395 . S
C4398 C4401 1.403 . S
C4399 C4396 1.403 . S
C4399 C4400 1.524 . S
C4399 C4403 1.400 . S
C4400 H4385 0.960 . S
C4400 H4386 0.960 . S
C4400 H4387 0.960 . S
C4400 C4399 1.524 . S
C4401 C4398 1.403 . S
C4401 C4402 1.392 . S
C4401 C4405 1.495 . S
C4402 C4401 1.392 . S
C4402 C4403 1.385 . S
C4402 C4404 1.478 . S
C4403 H4397 0.930 . S
C4403 C4399 1.400 . S
C4403 C4402 1.385 . S
C4404 C4402 1.478 . S
C4404 C4406 1.381 . S
C4404 C4410 1.383 . S
C4405 C4401 1.495 . S
C4405 H4411 0.959 . S
C4405 H4412 0.961 . S
C4405 H4413 0.960 . S
C4406 C4404 1.381 . S
C4406 C4407 1.394 . S
C4406 H4414 0.930 . S
C4407 C4406 1.394 . S
C4407 C4408 1.383 . S
C4407 H4415 0.929 . S
C4408 C4407 1.383 . S
C4408 C4409 1.377 . S
C4409 H4393 0.930 . S
C4409 C4408 1.377 . S
C4409 C4410 1.379 . S
C4410 H4394 0.931 . S
C4410 C4404 1.383 . S
C4410 C4409 1.379 . S
H4411 C4405 0.959 . S
H4412 C4405 0.961 . S
H4413 C4405 0.960 . S
H4414 C4406 0.930 . S
H4415 C4407 0.929 . S
H4416 C4424 0.929 . S
H4417 C4426 0.930 . S
H4418 C4428 0.930 . S
H4419 C4431 0.929 . S
H4420 C4434 0.930 . S
H4421 C4436 0.960 . S
H4422 C4436 0.960 . S
H4423 C4436 0.960 . S
C4424 H4416 0.929 . S
C4424 C4425 1.377 . S
C4424 C4426 1.384 . S
C4425 C4424 1.377 . S
C4425 C4431 1.390 . S
C4426 H4417 0.930 . S
C4426 C4424 1.384 . S
C4426 C4427 1.372 . S
C4427 C4426 1.372 . S
C4427 C4428 1.400 . S
C4427 C4432 1.490 . S
C4428 H4418 0.930 . S
C4428 C4427 1.400 . S
C4428 C4431 1.386 . S
H4429 C4445 0.930 . S
H4430 C4446 0.931 . S
C4431 H4419 0.929 . S
C4431 C4425 1.390 . S
C4431 C4428 1.386 . S
C4432 C4427 1.490 . S
C4432 C4434 1.395 . S
C4432 C4435 1.403 . S
H4433 C4439 0.930 . S
C4434 H4420 0.930 . S
C4434 C4432 1.395 . S
C4434 C4437 1.403 . S
C4435 C4432 1.403 . S
C4435 C4436 1.524 . S
C4435 C4439 1.400 . S
C4436 H4421 0.960 . S
C4436 H4422 0.960 . S
C4436 H4423 0.960 . S
C4436 C4435 1.524 . S
C4437 C4434 1.403 . S
C4437 C4438 1.392 . S
C4437 C4441 1.495 . S
C4438 C4437 1.392 . S
C4438 C4439 1.385 . S
C4438 C4440 1.478 . S
C4439 H4433 0.930 . S
C4439 C4435 1.400 . S
C4439 C4438 1.385 . S
C4440 C4438 1.478 . S
C4440 C4442 1.381 . S
C4440 C4446 1.383 . S
C4441 C4437 1.495 . S
C4441 H4447 0.959 . S
C4441 H4448 0.961 . S
C4441 H4449 0.960 . S
C4442 C4440 1.381 . S
C4442 C4443 1.394 . S
C4442 H4450 0.930 . S
C4443 C4442 1.394 . S
C4443 C4444 1.383 . S
C4443 H4451 0.929 . S
C4444 C4443 1.383 . S
C4444 C4445 1.377 . S
C4445 H4429 0.930 . S
C4445 C4444 1.377 . S
C4445 C4446 1.379 . S
C4446 H4430 0.931 . S
C4446 C4440 1.383 . S
C4446 C4445 1.379 . S
H4447 C4441 0.959 . S
H4448 C4441 0.961 . S
H4449 C4441 0.960 . S
H4450 C4442 0.930 . S
H4451 C4443 0.929 . S
H4452 C4460 0.929 . S
H4453 C4462 0.930 . S
H4454 C4464 0.930 . S
H4455 C4467 0.929 . S
H4456 C4470 0.930 . S
H4457 C4472 0.960 . S
H4458 C4472 0.960 . S
H4459 C4472 0.960 . S
C4460 H4452 0.929 . S
C4460 C4461 1.377 . S
C4460 C4462 1.384 . S
C4461 C4460 1.377 . S
C4461 C4467 1.390 . S
C4462 H4453 0.930 . S
C4462 C4460 1.384 . S
C4462 C4463 1.372 . S
C4463 C4462 1.372 . S
C4463 C4464 1.400 . S
C4463 C4468 1.490 . S
C4464 H4454 0.930 . S
C4464 C4463 1.400 . S
C4464 C4467 1.386 . S
H4465 C4481 0.930 . S
H4466 C4482 0.931 . S
C4467 H4455 0.929 . S
C4467 C4461 1.390 . S
C4467 C4464 1.386 . S
C4468 C4463 1.490 . S
C4468 C4470 1.395 . S
C4468 C4471 1.403 . S
H4469 C4475 0.930 . S
C4470 H4456 0.930 . S
C4470 C4468 1.395 . S
C4470 C4473 1.403 . S
C4471 C4468 1.403 . S
C4471 C4472 1.524 . S
C4471 C4475 1.400 . S
C4472 H4457 0.960 . S
C4472 H4458 0.960 . S
C4472 H4459 0.960 . S
C4472 C4471 1.524 . S
C4473 C4470 1.403 . S
C4473 C4474 1.392 . S
C4473 C4477 1.495 . S
C4474 C4473 1.392 . S
C4474 C4475 1.385 . S
C4474 C4476 1.478 . S
C4475 H4469 0.930 . S
C4475 C4471 1.400 . S
C4475 C4474 1.385 . S
C4476 C4474 1.478 . S
C4476 C4478 1.381 . S
C4476 C4482 1.383 . S
C4477 C4473 1.495 . S
C4477 H4483 0.959 . S
C4477 H4484 0.961 . S
C4477 H4485 0.960 . S
C4478 C4476 1.381 . S
C4478 C4479 1.394 . S
C4478 H4486 0.930 . S
C4479 C4478 1.394 . S
C4479 C4480 1.383 . S
C4479 H4487 0.929 . S
C4480 C4479 1.383 . S
C4480 C4481 1.377 . S
C4481 H4465 0.930 . S
C4481 C4480 1.377 . S
C4481 C4482 1.379 . S
C4482 H4466 0.931 . S
C4482 C4476 1.383 . S
C4482 C4481 1.379 . S
H4483 C4477 0.959 . S
H4484 C4477 0.961 . S
H4485 C4477 0.960 . S
H4486 C4478 0.930 . S
H4487 C4479 0.929 . S
H4488 C4496 0.929 . S
H4489 C4498 0.930 . S
H4490 C4500 0.930 . S
H4491 C4503 0.929 . S
H4492 C4506 0.930 . S
H4493 C4508 0.960 . S
H4494 C4508 0.960 . S
H4495 C4508 0.960 . S
C4496 H4488 0.929 . S
C4496 C4497 1.377 . S
C4496 C4498 1.384 . S
C4497 C4496 1.377 . S
C4497 C4503 1.390 . S
C4498 H4489 0.930 . S
C4498 C4496 1.384 . S
C4498 C4499 1.372 . S
C4499 C4498 1.372 . S
C4499 C4500 1.400 . S
C4499 C4504 1.490 . S
C4500 H4490 0.930 . S
C4500 C4499 1.400 . S
C4500 C4503 1.386 . S
H4501 C4517 0.930 . S
H4502 C4518 0.931 . S
C4503 H4491 0.929 . S
C4503 C4497 1.390 . S
C4503 C4500 1.386 . S
C4504 C4499 1.490 . S
C4504 C4506 1.395 . S
C4504 C4507 1.403 . S
H4505 C4511 0.930 . S
C4506 H4492 0.930 . S
C4506 C4504 1.395 . S
C4506 C4509 1.403 . S
C4507 C4504 1.403 . S
C4507 C4508 1.524 . S
C4507 C4511 1.400 . S
C4508 H4493 0.960 . S
C4508 H4494 0.960 . S
C4508 H4495 0.960 . S
C4508 C4507 1.524 . S
C4509 C4506 1.403 . S
C4509 C4510 1.392 . S
C4509 C4513 1.495 1_455 S
C4510 C4509 1.392 . S
C4510 C4511 1.385 . S
C4510 C4512 1.478 . S
C4511 H4505 0.930 . S
C4511 C4507 1.400 . S
C4511 C4510 1.385 . S
C4512 C4510 1.478 . S
C4512 C4514 1.381 . S
C4512 C4518 1.383 . S
C4513 C4509 1.495 1_655 S
C4513 H4519 0.959 . S
C4513 H4520 0.961 . S
C4513 H4521 0.960 . S
C4514 C4512 1.381 . S
C4514 C4515 1.394 . S
C4514 H4522 0.930 . S
C4515 C4514 1.394 . S
C4515 C4516 1.383 . S
C4515 H4523 0.929 . S
C4516 C4515 1.383 . S
C4516 C4517 1.377 . S
C4517 H4501 0.930 . S
C4517 C4516 1.377 . S
C4517 C4518 1.379 . S
C4518 H4502 0.931 . S
C4518 C4512 1.383 . S
C4518 C4517 1.379 . S
H4519 C4513 0.959 . S
H4520 C4513 0.961 . S
H4521 C4513 0.960 . S
H4522 C4514 0.930 . S
H4523 C4515 0.929 . S
H4524 C4532 0.929 . S
H4525 C4534 0.930 . S
H4526 C4536 0.930 . S
H4527 C4539 0.929 . S
H4528 C4542 0.930 . S
H4529 C4544 0.960 . S
H4530 C4544 0.960 . S
H4531 C4544 0.960 . S
C4532 H4524 0.929 . S
C4532 C4533 1.377 . S
C4532 C4534 1.384 . S
C4533 C4532 1.377 . S
C4533 C4539 1.390 . S
C4534 H4525 0.930 . S
C4534 C4532 1.384 . S
C4534 C4535 1.372 . S
C4535 C4534 1.372 . S
C4535 C4536 1.400 . S
C4535 C4540 1.490 . S
C4536 H4526 0.930 . S
C4536 C4535 1.400 . S
C4536 C4539 1.386 . S
H4537 C4553 0.930 . S
H4538 C4554 0.931 . S
C4539 H4527 0.929 . S
C4539 C4533 1.390 . S
C4539 C4536 1.386 . S
C4540 C4535 1.490 . S
C4540 C4542 1.395 . S
C4540 C4543 1.403 . S
H4541 C4547 0.930 . S
C4542 H4528 0.930 . S
C4542 C4540 1.395 . S
C4542 C4545 1.403 . S
C4543 C4540 1.403 . S
C4543 C4544 1.524 . S
C4543 C4547 1.400 . S
C4544 H4529 0.960 . S
C4544 H4530 0.960 . S
C4544 H4531 0.960 . S
C4544 C4543 1.524 . S
C4545 C4542 1.403 . S
C4545 C4546 1.392 . S
C4545 C4549 1.495 . S
C4546 C4545 1.392 . S
C4546 C4547 1.385 . S
C4546 C4548 1.478 . S
C4547 H4541 0.930 . S
C4547 C4543 1.400 . S
C4547 C4546 1.385 . S
C4548 C4546 1.478 . S
C4548 C4550 1.381 . S
C4548 C4554 1.383 . S
C4549 C4545 1.495 . S
C4549 H4555 0.959 . S
C4549 H4556 0.961 . S
C4549 H4557 0.960 . S
C4550 C4548 1.381 . S
C4550 C4551 1.394 . S
C4550 H4558 0.930 . S
C4551 C4550 1.394 . S
C4551 C4552 1.383 . S
C4551 H4559 0.929 . S
C4552 C4551 1.383 . S
C4552 C4553 1.377 . S
C4553 H4537 0.930 . S
C4553 C4552 1.377 . S
C4553 C4554 1.379 . S
C4554 H4538 0.931 . S
C4554 C4548 1.383 . S
C4554 C4553 1.379 . S
H4555 C4549 0.959 . S
H4556 C4549 0.961 . S
H4557 C4549 0.960 . S
H4558 C4550 0.930 . S
H4559 C4551 0.929 . S
H4560 C4568 0.929 . S
H4561 C4570 0.930 . S
H4562 C4572 0.930 . S
H4563 C4575 0.929 . S
H4564 C4578 0.930 . S
H4565 C4580 0.960 . S
H4566 C4580 0.960 . S
H4567 C4580 0.960 . S
C4568 H4560 0.929 . S
C4568 C4569 1.377 . S
C4568 C4570 1.384 . S
C4569 C4568 1.377 . S
C4569 C4575 1.390 . S
C4570 H4561 0.930 . S
C4570 C4568 1.384 . S
C4570 C4571 1.372 . S
C4571 C4570 1.372 . S
C4571 C4572 1.400 . S
C4571 C4576 1.490 . S
C4572 H4562 0.930 . S
C4572 C4571 1.400 . S
C4572 C4575 1.386 . S
H4573 C4589 0.930 . S
H4574 C4590 0.931 . S
C4575 H4563 0.929 . S
C4575 C4569 1.390 . S
C4575 C4572 1.386 . S
C4576 C4571 1.490 . S
C4576 C4578 1.395 . S
C4576 C4579 1.403 . S
H4577 C4583 0.930 . S
C4578 H4564 0.930 . S
C4578 C4576 1.395 . S
C4578 C4581 1.403 . S
C4579 C4576 1.403 . S
C4579 C4580 1.524 . S
C4579 C4583 1.400 . S
C4580 H4565 0.960 . S
C4580 H4566 0.960 . S
C4580 H4567 0.960 . S
C4580 C4579 1.524 . S
C4581 C4578 1.403 . S
C4581 C4582 1.392 . S
C4581 C4585 1.495 . S
C4582 C4581 1.392 . S
C4582 C4583 1.385 . S
C4582 C4584 1.478 . S
C4583 H4577 0.930 . S
C4583 C4579 1.400 . S
C4583 C4582 1.385 . S
C4584 C4582 1.478 . S
C4584 C4586 1.381 . S
C4584 C4590 1.383 . S
C4585 C4581 1.495 . S
C4585 H4591 0.959 . S
C4585 H4592 0.961 . S
C4585 H4593 0.960 . S
C4586 C4584 1.381 . S
C4586 C4587 1.394 . S
C4586 H4594 0.930 . S
C4587 C4586 1.394 . S
C4587 C4588 1.383 . S
C4587 H4595 0.929 . S
C4588 C4587 1.383 . S
C4588 C4589 1.377 . S
C4589 H4573 0.930 . S
C4589 C4588 1.377 . S
C4589 C4590 1.379 . S
C4590 H4574 0.931 . S
C4590 C4584 1.383 . S
C4590 C4589 1.379 . S
H4591 C4585 0.959 . S
H4592 C4585 0.961 . S
H4593 C4585 0.960 . S
H4594 C4586 0.930 . S
H4595 C4587 0.929 . S
H4596 C4604 0.929 . S
H4597 C4606 0.930 . S
H4598 C4608 0.930 . S
H4599 C4611 0.929 . S
H4600 C4614 0.930 . S
H4601 C4616 0.960 . S
H4602 C4616 0.960 . S
H4603 C4616 0.960 . S
C4604 H4596 0.929 . S
C4604 C4605 1.377 . S
C4604 C4606 1.384 . S
C4605 C4604 1.377 . S
C4605 C4611 1.390 . S
C4606 H4597 0.930 . S
C4606 C4604 1.384 . S
C4606 C4607 1.372 . S
C4607 C4606 1.372 . S
C4607 C4608 1.400 . S
C4607 C4612 1.490 . S
C4608 H4598 0.930 . S
C4608 C4607 1.400 . S
C4608 C4611 1.386 . S
H4609 C4625 0.930 . S
H4610 C4626 0.931 . S
C4611 H4599 0.929 . S
C4611 C4605 1.390 . S
C4611 C4608 1.386 . S
C4612 C4607 1.490 . S
C4612 C4614 1.395 . S
C4612 C4615 1.403 . S
H4613 C4619 0.930 . S
C4614 H4600 0.930 . S
C4614 C4612 1.395 . S
C4614 C4617 1.403 . S
C4615 C4612 1.403 . S
C4615 C4616 1.524 . S
C4615 C4619 1.400 . S
C4616 H4601 0.960 . S
C4616 H4602 0.960 . S
C4616 H4603 0.960 . S
C4616 C4615 1.524 . S
C4617 C4614 1.403 . S
C4617 C4618 1.392 . S
C4617 C4621 1.495 . S
C4618 C4617 1.392 . S
C4618 C4619 1.385 . S
C4618 C4620 1.478 . S
C4619 H4613 0.930 . S
C4619 C4615 1.400 . S
C4619 C4618 1.385 . S
C4620 C4618 1.478 . S
C4620 C4622 1.381 . S
C4620 C4626 1.383 . S
C4621 C4617 1.495 . S
C4621 H4627 0.959 . S
C4621 H4628 0.961 . S
C4621 H4629 0.960 . S
C4622 C4620 1.381 . S
C4622 C4623 1.394 . S
C4622 H4630 0.930 . S
C4623 C4622 1.394 . S
C4623 C4624 1.383 . S
C4623 H4631 0.929 . S
C4624 C4623 1.383 . S
C4624 C4625 1.377 . S
C4625 H4609 0.930 . S
C4625 C4624 1.377 . S
C4625 C4626 1.379 . S
C4626 H4610 0.931 . S
C4626 C4620 1.383 . S
C4626 C4625 1.379 . S
H4627 C4621 0.959 . S
H4628 C4621 0.961 . S
H4629 C4621 0.960 . S
H4630 C4622 0.930 . S
H4631 C4623 0.929 . S
H4632 C4640 0.929 . S
H4633 C4642 0.930 . S
H4634 C4644 0.930 . S
H4635 C4647 0.929 . S
H4636 C4650 0.930 . S
H4637 C4652 0.960 . S
H4638 C4652 0.960 . S
H4639 C4652 0.960 . S
C4640 H4632 0.929 . S
C4640 C4641 1.377 . S
C4640 C4642 1.384 . S
C4641 C4640 1.377 . S
C4641 C4647 1.390 . S
C4642 H4633 0.930 . S
C4642 C4640 1.384 . S
C4642 C4643 1.372 . S
C4643 C4642 1.372 . S
C4643 C4644 1.400 . S
C4643 C4648 1.490 . S
C4644 H4634 0.930 . S
C4644 C4643 1.400 . S
C4644 C4647 1.386 . S
H4645 C4661 0.930 . S
H4646 C4662 0.931 . S
C4647 H4635 0.929 . S
C4647 C4641 1.390 . S
C4647 C4644 1.386 . S
C4648 C4643 1.490 . S
C4648 C4650 1.395 . S
C4648 C4651 1.403 . S
H4649 C4655 0.930 . S
C4650 H4636 0.930 . S
C4650 C4648 1.395 . S
C4650 C4653 1.403 . S
C4651 C4648 1.403 . S
C4651 C4652 1.524 . S
C4651 C4655 1.400 . S
C4652 H4637 0.960 . S
C4652 H4638 0.960 . S
C4652 H4639 0.960 . S
C4652 C4651 1.524 . S
C4653 C4650 1.403 . S
C4653 C4654 1.392 . S
C4653 C4657 1.495 . S
C4654 C4653 1.392 . S
C4654 C4655 1.385 . S
C4654 C4656 1.478 . S
C4655 H4649 0.930 . S
C4655 C4651 1.400 . S
C4655 C4654 1.385 . S
C4656 C4654 1.478 . S
C4656 C4658 1.381 . S
C4656 C4662 1.383 . S
C4657 C4653 1.495 . S
C4657 H4663 0.959 . S
C4657 H4664 0.961 . S
C4657 H4665 0.960 . S
C4658 C4656 1.381 . S
C4658 C4659 1.394 . S
C4658 H4666 0.930 . S
C4659 C4658 1.394 . S
C4659 C4660 1.383 . S
C4659 H4667 0.929 1_655 S
C4660 C4659 1.383 . S
C4660 C4661 1.377 . S
C4661 H4645 0.930 . S
C4661 C4660 1.377 . S
C4661 C4662 1.379 . S
C4662 H4646 0.931 . S
C4662 C4656 1.383 . S
C4662 C4661 1.379 . S
H4663 C4657 0.959 . S
H4664 C4657 0.961 . S
H4665 C4657 0.960 . S
H4666 C4658 0.930 . S
H4667 C4659 0.929 1_455 S
H4668 C4676 0.929 . S
H4669 C4678 0.930 . S
H4670 C4680 0.930 . S
H4671 C4683 0.929 . S
H4672 C4686 0.930 . S
H4673 C4688 0.960 . S
H4674 C4688 0.960 . S
H4675 C4688 0.960 . S
C4676 H4668 0.929 . S
C4676 C4677 1.377 . S
C4676 C4678 1.384 . S
C4677 C4676 1.377 . S
C4677 C4683 1.390 . S
C4678 H4669 0.930 . S
C4678 C4676 1.384 . S
C4678 C4679 1.372 . S
C4679 C4678 1.372 . S
C4679 C4680 1.400 . S
C4679 C4684 1.490 . S
C4680 H4670 0.930 . S
C4680 C4679 1.400 . S
C4680 C4683 1.386 . S
H4681 C4697 0.930 . S
H4682 C4698 0.931 . S
C4683 H4671 0.929 . S
C4683 C4677 1.390 . S
C4683 C4680 1.386 . S
C4684 C4679 1.490 . S
C4684 C4686 1.395 . S
C4684 C4687 1.403 . S
H4685 C4691 0.930 . S
C4686 H4672 0.930 . S
C4686 C4684 1.395 . S
C4686 C4689 1.403 . S
C4687 C4684 1.403 . S
C4687 C4688 1.524 . S
C4687 C4691 1.400 . S
C4688 H4673 0.960 . S
C4688 H4674 0.960 . S
C4688 H4675 0.960 . S
C4688 C4687 1.524 . S
C4689 C4686 1.403 . S
C4689 C4690 1.392 . S
C4689 C4693 1.495 . S
C4690 C4689 1.392 . S
C4690 C4691 1.385 . S
C4690 C4692 1.478 . S
C4691 H4685 0.930 . S
C4691 C4687 1.400 . S
C4691 C4690 1.385 . S
C4692 C4690 1.478 . S
C4692 C4694 1.381 . S
C4692 C4698 1.383 . S
C4693 C4689 1.495 . S
C4693 H4699 0.959 . S
C4693 H4700 0.961 . S
C4693 H4701 0.960 . S
C4694 C4692 1.381 . S
C4694 C4695 1.394 . S
C4694 H4702 0.930 . S
C4695 C4694 1.394 . S
C4695 C4696 1.383 . S
C4695 H4703 0.929 . S
C4696 C4695 1.383 . S
C4696 C4697 1.377 . S
C4697 H4681 0.930 . S
C4697 C4696 1.377 . S
C4697 C4698 1.379 . S
C4698 H4682 0.931 . S
C4698 C4692 1.383 . S
C4698 C4697 1.379 . S
H4699 C4693 0.959 . S
H4700 C4693 0.961 . S
H4701 C4693 0.960 . S
H4702 C4694 0.930 . S
H4703 C4695 0.929 . S
H4704 C4712 0.929 . S
H4705 C4714 0.930 . S
H4706 C4716 0.930 . S
H4707 C4719 0.929 . S
H4708 C4722 0.930 . S
H4709 C4724 0.960 . S
H4710 C4724 0.960 . S
H4711 C4724 0.960 . S
C4712 H4704 0.929 . S
C4712 C4713 1.377 . S
C4712 C4714 1.384 . S
C4713 C4712 1.377 . S
C4713 C4719 1.390 . S
C4714 H4705 0.930 . S
C4714 C4712 1.384 . S
C4714 C4715 1.372 . S
C4715 C4714 1.372 . S
C4715 C4716 1.400 . S
C4715 C4720 1.490 . S
C4716 H4706 0.930 . S
C4716 C4715 1.400 . S
C4716 C4719 1.386 . S
H4717 C4733 0.930 . S
H4718 C4734 0.931 . S
C4719 H4707 0.929 . S
C4719 C4713 1.390 . S
C4719 C4716 1.386 . S
C4720 C4715 1.490 . S
C4720 C4722 1.395 . S
C4720 C4723 1.403 . S
H4721 C4727 0.930 . S
C4722 H4708 0.930 . S
C4722 C4720 1.395 . S
C4722 C4725 1.403 . S
C4723 C4720 1.403 . S
C4723 C4724 1.524 . S
C4723 C4727 1.400 . S
C4724 H4709 0.960 . S
C4724 H4710 0.960 . S
C4724 H4711 0.960 . S
C4724 C4723 1.524 . S
C4725 C4722 1.403 . S
C4725 C4726 1.392 . S
C4725 C4729 1.495 . S
C4726 C4725 1.392 . S
C4726 C4727 1.385 . S
C4726 C4728 1.478 . S
C4727 H4721 0.930 . S
C4727 C4723 1.400 . S
C4727 C4726 1.385 . S
C4728 C4726 1.478 . S
C4728 C4730 1.381 . S
C4728 C4734 1.383 . S
C4729 C4725 1.495 . S
C4729 H4735 0.959 . S
C4729 H4736 0.961 . S
C4729 H4737 0.960 . S
C4730 C4728 1.381 . S
C4730 C4731 1.394 . S
C4730 H4738 0.930 . S
C4731 C4730 1.394 . S
C4731 C4732 1.383 . S
C4731 H4739 0.929 . S
C4732 C4731 1.383 . S
C4732 C4733 1.377 . S
C4733 H4717 0.930 . S
C4733 C4732 1.377 . S
C4733 C4734 1.379 . S
C4734 H4718 0.931 . S
C4734 C4728 1.383 . S
C4734 C4733 1.379 . S
H4735 C4729 0.959 . S
H4736 C4729 0.961 . S
H4737 C4729 0.960 . S
H4738 C4730 0.930 . S
H4739 C4731 0.929 . S
H4740 C4748 0.929 . S
H4741 C4750 0.930 . S
H4742 C4752 0.930 . S
H4743 C4755 0.929 . S
H4744 C4758 0.930 . S
H4745 C4760 0.960 . S
H4746 C4760 0.960 . S
H4747 C4760 0.960 . S
C4748 H4740 0.929 . S
C4748 C4749 1.377 . S
C4748 C4750 1.384 . S
C4749 C4748 1.377 . S
C4749 C4755 1.390 . S
C4750 H4741 0.930 . S
C4750 C4748 1.384 . S
C4750 C4751 1.372 . S
C4751 C4750 1.372 . S
C4751 C4752 1.400 . S
C4751 C4756 1.490 . S
C4752 H4742 0.930 . S
C4752 C4751 1.400 . S
C4752 C4755 1.386 . S
H4753 C4769 0.930 . S
H4754 C4770 0.931 . S
C4755 H4743 0.929 . S
C4755 C4749 1.390 . S
C4755 C4752 1.386 . S
C4756 C4751 1.490 . S
C4756 C4758 1.395 . S
C4756 C4759 1.403 . S
H4757 C4763 0.930 . S
C4758 H4744 0.930 . S
C4758 C4756 1.395 . S
C4758 C4761 1.403 . S
C4759 C4756 1.403 . S
C4759 C4760 1.524 . S
C4759 C4763 1.400 . S
C4760 H4745 0.960 . S
C4760 H4746 0.960 . S
C4760 H4747 0.960 . S
C4760 C4759 1.524 . S
C4761 C4758 1.403 . S
C4761 C4762 1.392 . S
C4761 C4765 1.495 . S
C4762 C4761 1.392 . S
C4762 C4763 1.385 . S
C4762 C4764 1.478 . S
C4763 H4757 0.930 . S
C4763 C4759 1.400 . S
C4763 C4762 1.385 . S
C4764 C4762 1.478 . S
C4764 C4766 1.381 . S
C4764 C4770 1.383 . S
C4765 C4761 1.495 . S
C4765 H4771 0.959 . S
C4765 H4772 0.961 . S
C4765 H4773 0.960 . S
C4766 C4764 1.381 . S
C4766 C4767 1.394 . S
C4766 H4774 0.930 . S
C4767 C4766 1.394 . S
C4767 C4768 1.383 . S
C4767 H4775 0.929 . S
C4768 C4767 1.383 . S
C4768 C4769 1.377 . S
C4769 H4753 0.930 . S
C4769 C4768 1.377 . S
C4769 C4770 1.379 . S
C4770 H4754 0.931 . S
C4770 C4764 1.383 . S
C4770 C4769 1.379 . S
H4771 C4765 0.959 . S
H4772 C4765 0.961 . S
H4773 C4765 0.960 . S
H4774 C4766 0.930 . S
H4775 C4767 0.929 . S
H4776 C4784 0.929 . S
H4777 C4786 0.930 . S
H4778 C4788 0.930 . S
H4779 C4791 0.929 . S
H4780 C4794 0.930 . S
H4781 C4796 0.960 . S
H4782 C4796 0.960 . S
H4783 C4796 0.960 . S
C4784 H4776 0.929 . S
C4784 C4785 1.377 . S
C4784 C4786 1.384 . S
C4785 C4784 1.377 . S
C4785 C4791 1.390 . S
C4786 H4777 0.930 . S
C4786 C4784 1.384 . S
C4786 C4787 1.372 . S
C4787 C4786 1.372 . S
C4787 C4788 1.400 . S
C4787 C4792 1.490 . S
C4788 H4778 0.930 . S
C4788 C4787 1.400 . S
C4788 C4791 1.386 . S
H4789 C4805 0.930 . S
H4790 C4806 0.931 . S
C4791 H4779 0.929 . S
C4791 C4785 1.390 . S
C4791 C4788 1.386 . S
C4792 C4787 1.490 . S
C4792 C4794 1.395 . S
C4792 C4795 1.403 . S
H4793 C4799 0.930 . S
C4794 H4780 0.930 . S
C4794 C4792 1.395 . S
C4794 C4797 1.403 . S
C4795 C4792 1.403 . S
C4795 C4796 1.524 . S
C4795 C4799 1.400 . S
C4796 H4781 0.960 . S
C4796 H4782 0.960 . S
C4796 H4783 0.960 . S
C4796 C4795 1.524 . S
C4797 C4794 1.403 . S
C4797 C4798 1.392 . S
C4797 C4801 1.495 . S
C4798 C4797 1.392 . S
C4798 C4799 1.385 . S
C4798 C4800 1.478 . S
C4799 H4793 0.930 . S
C4799 C4795 1.400 . S
C4799 C4798 1.385 . S
C4800 C4798 1.478 . S
C4800 C4802 1.381 . S
C4800 C4806 1.383 . S
C4801 C4797 1.495 . S
C4801 H4807 0.959 . S
C4801 H4808 0.961 . S
C4801 H4809 0.960 . S
C4802 C4800 1.381 . S
C4802 C4803 1.394 . S
C4802 H4810 0.930 . S
C4803 C4802 1.394 . S
C4803 C4804 1.383 . S
C4803 H4811 0.929 . S
C4804 C4803 1.383 . S
C4804 C4805 1.377 . S
C4805 H4789 0.930 . S
C4805 C4804 1.377 . S
C4805 C4806 1.379 . S
C4806 H4790 0.931 . S
C4806 C4800 1.383 . S
C4806 C4805 1.379 . S
H4807 C4801 0.959 . S
H4808 C4801 0.961 . S
H4809 C4801 0.960 . S
H4810 C4802 0.930 . S
H4811 C4803 0.929 . S
H4812 C4820 0.929 . S
H4813 C4822 0.930 . S
H4814 C4824 0.930 . S
H4815 C4827 0.929 . S
H4816 C4830 0.930 . S
H4817 C4832 0.960 . S
H4818 C4832 0.960 . S
H4819 C4832 0.960 . S
C4820 H4812 0.929 . S
C4820 C4821 1.377 . S
C4820 C4822 1.384 . S
C4821 C4820 1.377 . S
C4821 C4827 1.390 . S
C4822 H4813 0.930 . S
C4822 C4820 1.384 . S
C4822 C4823 1.372 . S
C4823 C4822 1.372 . S
C4823 C4824 1.400 . S
C4823 C4828 1.490 . S
C4824 H4814 0.930 . S
C4824 C4823 1.400 . S
C4824 C4827 1.386 . S
H4825 C4841 0.930 . S
H4826 C4842 0.931 . S
C4827 H4815 0.929 . S
C4827 C4821 1.390 . S
C4827 C4824 1.386 . S
C4828 C4823 1.490 . S
C4828 C4830 1.395 . S
C4828 C4831 1.403 . S
H4829 C4835 0.930 . S
C4830 H4816 0.930 . S
C4830 C4828 1.395 . S
C4830 C4833 1.403 . S
C4831 C4828 1.403 . S
C4831 C4832 1.524 . S
C4831 C4835 1.400 . S
C4832 H4817 0.960 . S
C4832 H4818 0.960 . S
C4832 H4819 0.960 . S
C4832 C4831 1.524 . S
C4833 C4830 1.403 . S
C4833 C4834 1.392 . S
C4833 C4837 1.495 . S
C4834 C4833 1.392 . S
C4834 C4835 1.385 . S
C4834 C4836 1.478 . S
C4835 H4829 0.930 . S
C4835 C4831 1.400 . S
C4835 C4834 1.385 . S
C4836 C4834 1.478 . S
C4836 C4838 1.381 . S
C4836 C4842 1.383 . S
C4837 C4833 1.495 . S
C4837 H4843 0.959 . S
C4837 H4844 0.961 . S
C4837 H4845 0.960 . S
C4838 C4836 1.381 . S
C4838 C4839 1.394 . S
C4838 H4846 0.930 . S
C4839 C4838 1.394 . S
C4839 C4840 1.383 . S
C4839 H4847 0.929 . S
C4840 C4839 1.383 . S
C4840 C4841 1.377 . S
C4841 H4825 0.930 . S
C4841 C4840 1.377 . S
C4841 C4842 1.379 . S
C4842 H4826 0.931 . S
C4842 C4836 1.383 . S
C4842 C4841 1.379 . S
H4843 C4837 0.959 . S
H4844 C4837 0.961 . S
H4845 C4837 0.960 . S
H4846 C4838 0.930 . S
H4847 C4839 0.929 . S
H4848 C4856 0.929 . S
H4849 C4858 0.930 . S
H4850 C4860 0.930 . S
H4851 C4863 0.929 . S
H4852 C4866 0.930 . S
H4853 C4868 0.960 . S
H4854 C4868 0.960 . S
H4855 C4868 0.960 . S
C4856 H4848 0.929 . S
C4856 C4857 1.377 . S
C4856 C4858 1.384 . S
C4857 C4856 1.377 . S
C4857 C4863 1.390 . S
C4858 H4849 0.930 . S
C4858 C4856 1.384 . S
C4858 C4859 1.372 . S
C4859 C4858 1.372 . S
C4859 C4860 1.400 . S
C4859 C4864 1.490 . S
C4860 H4850 0.930 . S
C4860 C4859 1.400 . S
C4860 C4863 1.386 . S
H4861 C4877 0.930 . S
H4862 C4878 0.931 . S
C4863 H4851 0.929 . S
C4863 C4857 1.390 . S
C4863 C4860 1.386 . S
C4864 C4859 1.490 . S
C4864 C4866 1.395 . S
C4864 C4867 1.403 . S
H4865 C4871 0.930 . S
C4866 H4852 0.930 . S
C4866 C4864 1.395 . S
C4866 C4869 1.403 . S
C4867 C4864 1.403 . S
C4867 C4868 1.524 . S
C4867 C4871 1.400 . S
C4868 H4853 0.960 . S
C4868 H4854 0.960 . S
C4868 H4855 0.960 . S
C4868 C4867 1.524 . S
C4869 C4866 1.403 . S
C4869 C4870 1.392 . S
C4869 C4873 1.495 . S
C4870 C4869 1.392 . S
C4870 C4871 1.385 . S
C4870 C4872 1.478 . S
C4871 H4865 0.930 . S
C4871 C4867 1.400 . S
C4871 C4870 1.385 . S
C4872 C4870 1.478 . S
C4872 C4874 1.381 . S
C4872 C4878 1.383 . S
C4873 C4869 1.495 . S
C4873 H4879 0.959 . S
C4873 H4880 0.961 . S
C4873 H4881 0.960 . S
C4874 C4872 1.381 . S
C4874 C4875 1.394 . S
C4874 H4882 0.930 . S
C4875 C4874 1.394 . S
C4875 C4876 1.383 . S
C4875 H4883 0.929 . S
C4876 C4875 1.383 . S
C4876 C4877 1.377 . S
C4877 H4861 0.930 . S
C4877 C4876 1.377 . S
C4877 C4878 1.379 . S
C4878 H4862 0.931 . S
C4878 C4872 1.383 . S
C4878 C4877 1.379 . S
H4879 C4873 0.959 . S
H4880 C4873 0.961 . S
H4881 C4873 0.960 . S
H4882 C4874 0.930 . S
H4883 C4875 0.929 . S
H4884 C4892 0.929 . S
H4885 C4894 0.930 . S
H4886 C4896 0.930 . S
H4887 C4899 0.929 . S
H4888 C4902 0.930 . S
H4889 C4904 0.960 . S
H4890 C4904 0.960 . S
H4891 C4904 0.960 . S
C4892 H4884 0.929 . S
C4892 C4893 1.377 . S
C4892 C4894 1.384 . S
C4893 C4892 1.377 . S
C4893 C4899 1.390 . S
C4894 H4885 0.930 . S
C4894 C4892 1.384 . S
C4894 C4895 1.372 . S
C4895 C4894 1.372 . S
C4895 C4896 1.400 . S
C4895 C4900 1.490 . S
C4896 H4886 0.930 . S
C4896 C4895 1.400 . S
C4896 C4899 1.386 . S
H4897 C4913 0.962 . S
H4898 C4914 0.931 . S
C4899 H4887 0.929 . S
C4899 C4893 1.390 . S
C4899 C4896 1.386 . S
C4900 C4895 1.490 . S
C4900 C4902 1.395 . S
C4900 C4903 1.403 . S
H4901 C4907 0.930 . S
C4902 H4888 0.930 . S
C4902 C4900 1.395 . S
C4902 C4905 1.403 . S
C4903 C4900 1.403 . S
C4903 C4904 1.524 . S
C4903 C4907 1.400 . S
C4904 H4889 0.960 . S
C4904 H4890 0.960 . S
C4904 H4891 0.960 . S
C4904 C4903 1.524 . S
C4905 C4902 1.403 . S
C4905 C4906 1.392 . S
C4905 C4909 1.495 . S
C4906 C4905 1.392 . S
C4906 C4907 1.385 . S
C4906 C4908 1.478 . S
C4907 H4901 0.930 . S
C4907 C4903 1.400 . S
C4907 C4906 1.385 . S
C4908 C4906 1.478 . S
C4908 C4910 1.381 . S
C4908 C4914 1.383 . S
C4909 C4905 1.495 . S
C4909 H4915 0.959 . S
C4909 H4916 0.961 . S
C4909 H4917 0.960 . S
C4910 C4908 1.381 . S
C4910 C4911 1.394 . S
C4910 H4918 0.930 . S
C4911 C4910 1.394 . S
C4911 C4912 1.383 . S
C4911 H4919 0.929 . S
C4912 C4911 1.383 . S
C4912 C4913 1.377 . S
C4913 H4897 0.962 . S
C4913 C4912 1.377 . S
C4913 C4914 1.379 . S
C4914 H4898 0.931 . S
C4914 C4908 1.383 . S
C4914 C4913 1.379 . S
H4915 C4909 0.959 . S
H4916 C4909 0.961 . S
H4917 C4909 0.960 . S
H4918 C4910 0.930 . S
H4919 C4911 0.929 . S
H4920 C4928 0.929 . S
H4921 C4930 0.930 . S
H4922 C4932 0.930 . S
H4923 C4935 0.929 . S
H4924 C4938 0.930 . S
H4925 C4940 0.960 . S
H4926 C4940 0.960 . S
H4927 C4940 0.960 . S
C4928 H4920 0.929 . S
C4928 C4929 1.377 . S
C4928 C4930 1.384 . S
C4929 C4928 1.377 . S
C4929 C4935 1.390 . S
C4930 H4921 0.930 . S
C4930 C4928 1.384 . S
C4930 C4931 1.372 . S
C4931 C4930 1.372 . S
C4931 C4932 1.400 . S
C4931 C4936 1.490 . S
C4932 H4922 0.930 . S
C4932 C4931 1.400 . S
C4932 C4935 1.386 . S
H4933 C4949 0.930 . S
H4934 C4950 0.931 . S
C4935 H4923 0.929 . S
C4935 C4929 1.390 . S
C4935 C4932 1.386 . S
C4936 C4931 1.490 . S
C4936 C4938 1.395 . S
C4936 C4939 1.403 . S
H4937 C4943 0.930 . S
C4938 H4924 0.930 . S
C4938 C4936 1.395 . S
C4938 C4941 1.403 . S
C4939 C4936 1.403 . S
C4939 C4940 1.524 . S
C4939 C4943 1.400 . S
C4940 H4925 0.960 . S
C4940 H4926 0.960 . S
C4940 H4927 0.960 . S
C4940 C4939 1.524 . S
C4941 C4938 1.403 . S
C4941 C4942 1.392 . S
C4941 C4945 1.495 . S
C4942 C4941 1.392 . S
C4942 C4943 1.385 . S
C4942 C4944 1.478 . S
C4943 H4937 0.930 . S
C4943 C4939 1.400 . S
C4943 C4942 1.385 . S
C4944 C4942 1.478 . S
C4944 C4946 1.381 . S
C4944 C4950 1.383 . S
C4945 C4941 1.495 . S
C4945 H4951 0.959 . S
C4945 H4952 0.961 . S
C4945 H4953 0.960 . S
C4946 C4944 1.381 . S
C4946 C4947 1.394 . S
C4946 H4954 0.930 . S
C4947 C4946 1.394 . S
C4947 C4948 1.383 . S
C4947 H4955 0.929 . S
C4948 C4947 1.383 . S
C4948 C4949 1.377 . S
C4949 H4933 0.930 . S
C4949 C4948 1.377 . S
C4949 C4950 1.379 . S
C4950 H4934 0.931 . S
C4950 C4944 1.383 . S
C4950 C4949 1.379 . S
H4951 C4945 0.959 . S
H4952 C4945 0.961 . S
H4953 C4945 0.960 . S
H4954 C4946 0.930 . S
H4955 C4947 0.929 . S
H4956 C4964 0.929 . S
H4957 C4966 0.930 . S
H4958 C4968 0.930 . S
H4959 C4971 0.929 . S
H4960 C4974 0.930 . S
H4961 C4976 0.960 . S
H4962 C4976 0.960 . S
H4963 C4976 0.960 . S
C4964 H4956 0.929 . S
C4964 C4965 1.377 . S
C4964 C4966 1.384 . S
C4965 C4964 1.377 . S
C4965 C4971 1.390 . S
C4966 H4957 0.930 . S
C4966 C4964 1.384 . S
C4966 C4967 1.372 . S
C4967 C4966 1.372 . S
C4967 C4968 1.400 . S
C4967 C4972 1.490 . S
C4968 H4958 0.930 . S
C4968 C4967 1.400 . S
C4968 C4971 1.386 . S
H4969 C4985 0.930 . S
H4970 C4986 0.931 . S
C4971 H4959 0.929 . S
C4971 C4965 1.390 . S
C4971 C4968 1.386 . S
C4972 C4967 1.490 . S
C4972 C4974 1.395 . S
C4972 C4975 1.403 . S
H4973 C4979 0.930 . S
C4974 H4960 0.930 . S
C4974 C4972 1.395 . S
C4974 C4977 1.403 . S
C4975 C4972 1.403 . S
C4975 C4976 1.524 . S
C4975 C4979 1.400 . S
C4976 H4961 0.960 . S
C4976 H4962 0.960 . S
C4976 H4963 0.960 . S
C4976 C4975 1.524 . S
C4977 C4974 1.403 . S
C4977 C4978 1.392 . S
C4977 C4981 1.495 . S
C4978 C4977 1.392 . S
C4978 C4979 1.385 . S
C4978 C4980 1.478 . S
C4979 H4973 0.930 . S
C4979 C4975 1.400 . S
C4979 C4978 1.385 . S
C4980 C4978 1.478 . S
C4980 C4982 1.381 . S
C4980 C4986 1.383 . S
C4981 C4977 1.495 . S
C4981 H4987 0.959 . S
C4981 H4988 0.961 . S
C4981 H4989 0.960 1_554 S
C4982 C4980 1.381 . S
C4982 C4983 1.394 . S
C4982 H4990 0.930 1_554 S
C4983 C4982 1.394 . S
C4983 C4984 1.383 . S
C4983 H4991 0.929 1_554 S
C4984 C4983 1.383 . S
C4984 C4985 1.377 . S
C4985 H4969 0.930 . S
C4985 C4984 1.377 . S
C4985 C4986 1.379 . S
C4986 H4970 0.931 . S
C4986 C4980 1.383 . S
C4986 C4985 1.379 . S
H4987 C4981 0.959 . S
H4988 C4981 0.961 . S
H4989 C4981 0.960 1_556 S
H4990 C4982 0.930 1_556 S
H4991 C4983 0.929 1_556 S
H4992 C5000 0.929 . S
H4993 C5002 0.930 . S
H4994 C5004 0.930 . S
H4995 C5007 0.929 . S
H4996 C5010 0.930 . S
H4997 C5012 0.960 . S
H4998 C5012 0.960 . S
H4999 C5012 0.960 . S
C5000 H4992 0.929 . S
C5000 C5001 1.377 . S
C5000 C5002 1.384 . S
C5001 C5000 1.377 . S
C5001 C5007 1.390 . S
C5002 H4993 0.930 . S
C5002 C5000 1.384 . S
C5002 C5003 1.372 . S
C5003 C5002 1.372 . S
C5003 C5004 1.400 . S
C5003 C5008 1.490 . S
C5004 H4994 0.930 . S
C5004 C5003 1.400 . S
C5004 C5007 1.386 . S
H5005 C5021 0.930 . S
H5006 C5022 0.931 . S
C5007 H4995 0.929 . S
C5007 C5001 1.390 . S
C5007 C5004 1.386 . S
C5008 C5003 1.490 . S
C5008 C5010 1.395 . S
C5008 C5011 1.403 . S
H5009 C5015 0.930 . S
C5010 H4996 0.930 . S
C5010 C5008 1.395 . S
C5010 C5013 1.403 . S
C5011 C5008 1.403 . S
C5011 C5012 1.524 . S
C5011 C5015 1.400 . S
C5012 H4997 0.960 . S
C5012 H4998 0.960 . S
C5012 H4999 0.960 . S
C5012 C5011 1.524 . S
C5013 C5010 1.403 . S
C5013 C5014 1.392 . S
C5013 C5017 1.495 . S
C5014 C5013 1.392 . S
C5014 C5015 1.385 . S
C5014 C5016 1.478 . S
C5015 H5009 0.930 . S
C5015 C5011 1.400 . S
C5015 C5014 1.385 . S
C5016 C5014 1.478 . S
C5016 C5018 1.381 . S
C5016 C5022 1.383 . S
C5017 C5013 1.495 . S
C5017 H5023 0.959 . S
C5017 H5024 0.961 . S
C5017 H5025 0.960 . S
C5018 C5016 1.381 . S
C5018 C5019 1.394 . S
C5018 H5026 0.930 . S
C5019 C5018 1.394 . S
C5019 C5020 1.383 . S
C5019 H5027 0.929 . S
C5020 C5019 1.383 . S
C5020 C5021 1.377 . S
C5021 H5005 0.930 . S
C5021 C5020 1.377 . S
C5021 C5022 1.379 . S
C5022 H5006 0.931 . S
C5022 C5016 1.383 . S
C5022 C5021 1.379 . S
H5023 C5017 0.959 . S
H5024 C5017 0.961 . S
H5025 C5017 0.960 . S
H5026 C5018 0.930 . S
H5027 C5019 0.929 . S
H5028 C5036 0.929 . S
H5029 C5038 0.930 . S
H5030 C5040 0.930 . S
H5031 C5043 0.929 . S
H5032 C5046 0.930 1_556 S
H5033 C5048 0.960 . S
H5034 C5048 0.960 . S
H5035 C5048 0.960 . S
C5036 H5028 0.929 . S
C5036 C5037 1.377 . S
C5036 C5038 1.384 . S
C5037 C5036 1.377 . S
C5037 C5043 1.390 . S
C5038 H5029 0.930 . S
C5038 C5036 1.384 . S
C5038 C5039 1.372 . S
C5039 C5038 1.372 . S
C5039 C5040 1.400 . S
C5039 C5044 1.490 . S
C5040 H5030 0.930 . S
C5040 C5039 1.400 . S
C5040 C5043 1.386 . S
H5041 C5057 0.930 . S
H5042 C5058 0.931 . S
C5043 H5031 0.929 . S
C5043 C5037 1.390 . S
C5043 C5040 1.386 . S
C5044 C5039 1.490 . S
C5044 C5046 1.395 . S
C5044 C5047 1.403 . S
H5045 C5051 0.930 . S
C5046 H5032 0.930 1_554 S
C5046 C5044 1.395 . S
C5046 C5049 1.403 1_554 S
C5047 C5044 1.403 . S
C5047 C5048 1.524 . S
C5047 C5051 1.400 . S
C5048 H5033 0.960 . S
C5048 H5034 0.960 . S
C5048 H5035 0.960 . S
C5048 C5047 1.524 . S
C5049 C5046 1.403 1_556 S
C5049 C5050 1.392 1_556 S
C5049 C5053 1.495 . S
C5050 C5049 1.392 1_554 S
C5050 C5051 1.385 . S
C5050 C5052 1.478 . S
C5051 H5045 0.930 . S
C5051 C5047 1.400 . S
C5051 C5050 1.385 . S
C5052 C5050 1.478 . S
C5052 C5054 1.381 . S
C5052 C5058 1.383 . S
C5053 C5049 1.495 . S
C5053 H5059 0.959 . S
C5053 H5060 0.961 . S
C5053 H5061 0.960 . S
C5054 C5052 1.381 . S
C5054 C5055 1.394 . S
C5054 H5062 0.930 . S
C5055 C5054 1.394 . S
C5055 C5056 1.383 . S
C5055 H5063 0.929 . S
C5056 C5055 1.383 . S
C5056 C5057 1.377 . S
C5057 H5041 0.930 . S
C5057 C5056 1.377 . S
C5057 C5058 1.379 . S
C5058 H5042 0.931 . S
C5058 C5052 1.383 . S
C5058 C5057 1.379 . S
H5059 C5053 0.959 . S
H5060 C5053 0.961 . S
H5061 C5053 0.960 . S
H5062 C5054 0.930 . S
H5063 C5055 0.929 . S
H5064 C5072 0.929 . S
H5065 C5074 0.930 . S
H5066 C5076 0.930 . S
H5067 C5079 0.929 . S
H5068 C5082 0.930 . S
H5069 C5084 0.960 . S
H5070 C5084 0.960 . S
H5071 C5084 0.960 . S
C5072 H5064 0.929 . S
C5072 C5073 1.377 . S
C5072 C5074 1.384 . S
C5073 C5072 1.377 . S
C5073 C5079 1.390 . S
C5074 H5065 0.930 . S
C5074 C5072 1.384 . S
C5074 C5075 1.372 . S
C5075 C5074 1.372 . S
C5075 C5076 1.400 . S
C5075 C5080 1.490 . S
C5076 H5066 0.930 . S
C5076 C5075 1.400 . S
C5076 C5079 1.386 . S
H5077 C5093 0.930 . S
H5078 C5094 0.931 . S
C5079 H5067 0.929 . S
C5079 C5073 1.390 . S
C5079 C5076 1.386 . S
C5080 C5075 1.490 . S
C5080 C5082 1.395 . S
C5080 C5083 1.403 . S
H5081 C5087 0.930 . S
C5082 H5068 0.930 . S
C5082 C5080 1.395 . S
C5082 C5085 1.403 . S
C5083 C5080 1.403 . S
C5083 C5084 1.524 . S
C5083 C5087 1.400 . S
C5084 H5069 0.960 . S
C5084 H5070 0.960 . S
C5084 H5071 0.960 . S
C5084 C5083 1.524 . S
C5085 C5082 1.403 . S
C5085 C5086 1.392 . S
C5085 C5089 1.495 . S
C5086 C5085 1.392 . S
C5086 C5087 1.385 . S
C5086 C5088 1.478 . S
C5087 H5081 0.930 . S
C5087 C5083 1.400 . S
C5087 C5086 1.385 . S
C5088 C5086 1.478 . S
C5088 C5090 1.381 . S
C5088 C5094 1.383 . S
C5089 C5085 1.495 . S
C5089 H5095 0.959 . S
C5089 H5096 0.961 . S
C5089 H5097 0.960 . S
C5090 C5088 1.381 . S
C5090 C5091 1.394 . S
C5090 H5098 0.930 . S
C5091 C5090 1.394 . S
C5091 C5092 1.383 . S
C5091 H5099 0.929 . S
C5092 C5091 1.383 . S
C5092 C5093 1.377 . S
C5093 H5077 0.930 . S
C5093 C5092 1.377 . S
C5093 C5094 1.379 . S
C5094 H5078 0.931 . S
C5094 C5088 1.383 . S
C5094 C5093 1.379 . S
H5095 C5089 0.959 . S
H5096 C5089 0.961 . S
H5097 C5089 0.960 . S
H5098 C5090 0.930 . S
H5099 C5091 0.929 . S
H5100 C5108 0.929 . S
H5101 C5110 0.930 . S
H5102 C5112 0.930 . S
H5103 C5115 0.929 . S
H5104 C5118 0.930 . S
H5105 C5120 0.960 . S
H5106 C5120 0.960 . S
H5107 C5120 0.960 . S
C5108 H5100 0.929 . S
C5108 C5109 1.377 . S
C5108 C5110 1.384 . S
C5109 C5108 1.377 . S
C5109 C5115 1.390 . S
C5110 H5101 0.930 . S
C5110 C5108 1.384 . S
C5110 C5111 1.372 . S
C5111 C5110 1.372 . S
C5111 C5112 1.400 . S
C5111 C5116 1.490 . S
C5112 H5102 0.930 . S
C5112 C5111 1.400 . S
C5112 C5115 1.386 . S
H5113 C5129 0.930 . S
H5114 C5130 0.931 . S
C5115 H5103 0.929 . S
C5115 C5109 1.390 . S
C5115 C5112 1.386 . S
C5116 C5111 1.490 . S
C5116 C5118 1.395 . S
C5116 C5119 1.403 . S
H5117 C5123 0.930 . S
C5118 H5104 0.930 . S
C5118 C5116 1.395 . S
C5118 C5121 1.403 . S
C5119 C5116 1.403 . S
C5119 C5120 1.524 . S
C5119 C5123 1.400 . S
C5120 H5105 0.960 . S
C5120 H5106 0.960 . S
C5120 H5107 0.960 . S
C5120 C5119 1.524 . S
C5121 C5118 1.403 . S
C5121 C5122 1.392 . S
C5121 C5125 1.495 . S
C5122 C5121 1.392 . S
C5122 C5123 1.385 . S
C5122 C5124 1.478 . S
C5123 H5117 0.930 . S
C5123 C5119 1.400 . S
C5123 C5122 1.385 . S
C5124 C5122 1.478 . S
C5124 C5126 1.381 . S
C5124 C5130 1.383 . S
C5125 C5121 1.495 . S
C5125 H5131 0.959 . S
C5125 H5132 0.961 . S
C5125 H5133 0.960 . S
C5126 C5124 1.381 . S
C5126 C5127 1.394 . S
C5126 H5134 0.930 . S
C5127 C5126 1.394 . S
C5127 C5128 1.383 . S
C5127 H5135 0.929 . S
C5128 C5127 1.383 . S
C5128 C5129 1.377 . S
C5129 H5113 0.930 . S
C5129 C5128 1.377 . S
C5129 C5130 1.379 . S
C5130 H5114 0.931 . S
C5130 C5124 1.383 . S
C5130 C5129 1.379 . S
H5131 C5125 0.959 . S
H5132 C5125 0.961 . S
H5133 C5125 0.960 . S
H5134 C5126 0.930 . S
H5135 C5127 0.929 . S
C1689 C109 1.849 . S
C1708 C392 1.852 . S
C1725 C61 1.558 . S
C1744 C494 1.757 . S
C1761 C74 1.748 . S
C1780 C560 1.784 . S
C1816 C646 1.488 . S
C1797 C96 1.593 . S
C1833 C25 1.502 . S
C1852 C730 1.417 . S
C1888 C812 1.782 . S
C1869 C40 1.766 . S
C1924 C914 1.863 . S
C1905 C46 1.869 . S
C1941 C5 1.611 . S
C1960 C980 1.946 . S
C1996 C410 1.446 . S
C1977 C229 1.195 . S
C2013 C249 0.811 . S
C2032 C478 0.826 . S
C2068 C578 0.874 . S
C2049 C271 0.813 . S
C2104 C644 1.698 . S
C2085 C172 1.651 1_556 S
C2121 C236 1.518 . S
C2140 C728 1.526 . S
C2176 C830 1.237 . S
C2157 C242 1.237 . S
C2212 C898 0.796 . S
C2193 C278 0.812 . S
C2248 C998 1.524 . S
C2229 C179 1.548 . S
C2284 C394 0.855 . S
C2265 C159 0.779 1_556 S
C2301 C285 1.363 1_554 S
C2320 C1082 1.556 . S
C2356 C1150 1.127 . S
C2337 C333 1.244 . S
C2392 C1232 0.748 . S
C2373 C320 0.734 . S
C2409 C123 0.806 . S
C2428 C982 0.800 . S
C2445 C138 1.390 . S
C2464 C562 1.303 . S
C2481 C326 1.721 . S
C2500 C1334 1.713 . S
C2536 C1400 0.816 . S
C2517 C298 0.809 . S
C2572 C403 1.822 . S
C2553 C67 1.778 . S
C2608 C1407 1.668 . S
C2589 C110 1.706 . S
C2625 C88 1.738 . S
C2644 C571 1.761 . S
C2661 C75 1.246 . S
C2680 C1329 1.378 . S
C2716 C741 1.377 . S
C2697 C11 1.445 . S
C2733 C47 1.543 . S
C2752 C1159 1.732 . S
C2788 C903 1.719 . S
C2769 C32 1.670 . S
C2824 C1495 1.944 . S
C2805 C26 1.927 . S
C2860 C399 1.488 . S
C2841 C152 1.537 . S
C2896 C1413 0.746 . S
C2877 C319 0.794 . S
C2913 C124 0.860 . S
C2932 C567 0.847 . S
C2949 C284 1.690 . S
C2968 C1327 1.706 . S
C2985 C145 1.283 . S
C3004 C739 1.452 . S
C3040 C1155 1.096 . S
C3021 C312 1.079 . S
C3057 C117 0.699 . S
C3076 C909 0.685 . S
C3093 C291 1.405 . S
C3112 C1491 1.401 . S
C3129 C194 0.879 . S
C3148 C405 0.947 . S
C3165 C180 1.556 . S
C3184 C1071 1.541 . S
C3201 C263 1.126 . S
C3220 C825 1.103 . S
C3237 C243 0.707 . S
C3256 C1243 0.637 . S
C3292 C1497 0.809 . S
C3273 C277 0.820 . S
C3309 C215 1.148 . S
C3328 C573 1.274 . S
C3364 C651 1.581 . S
C3345 C256 1.556 . S
C3400 C487 0.869 . S
C3381 C200 0.865 . S
C3417 C81 1.851 . S
C3436 C1568 1.845 . S
C3472 C1418 1.774 . S
C3453 C89 1.568 . S
C3489 C102 1.746 1_455 S
C3508 C1652 1.786 . S
C3525 C68 1.594 . S
C3544 C1318 1.433 . S
C3561 C53 1.507 . S
C3580 C1066 1.410 . S
C3616 C1148 1.779 . S
C3597 C12 1.771 1_655 S
C3652 C1250 1.865 . S
C3633 C18 1.869 . S
C3688 C1484 1.953 . S
C3669 C33 1.626 . S
C3724 C1586 1.429 . S
C3705 C257 1.205 . S
C3741 C193 0.807 . S
C3760 C1402 0.858 . S
C3796 C1670 0.892 . S
C3777 C201 0.819 . S
C3832 C1316 1.684 . S
C3813 C214 1.645 . S
C3868 C1064 1.513 . S
C3849 C264 1.517 . S
C3885 C186 1.239 . S
C3904 C1166 1.242 . S
C3940 C1234 0.770 . S
C3921 C208 0.816 . S
C3957 C221 1.548 . S
C3976 C1502 1.526 . S
C4012 C1570 0.786 . S
C3993 C313 0.794 . S
C4029 C131 1.398 . S
C4048 C746 1.556 . S
C4084 C814 1.190 . S
C4065 C151 1.245 1_565 S
C4120 C896 0.718 . S
C4101 C166 0.738 . S
C4156 C1486 0.807 . S
C4137 C305 0.806 . S
C4173 C292 1.389 . S
C4192 C1654 1.297 . S
C4228 C662 1.703 . S
C4209 C144 1.719 . S
C4264 C476 0.813 . S
C4245 C116 0.808 . S
C4281 C95 1.786 . S
C4300 C1579 1.833 . S
C4336 C483 1.693 . S
C4317 C82 1.699 . S
C4353 C60 1.733 . S
C4372 C1663 1.762 . S
C4389 C103 1.240 . S
C4408 C657 1.351 . S
C4425 C39 1.445 . S
C4444 C1077 1.308 . S
C4480 C823 1.730 . S
C4461 C19 1.530 . S
C4497 C4 1.670 . S
C4516 C1239 1.713 . S
C4533 C54 1.926 . S
C4552 C991 1.944 . S
C4588 C1575 1.508 . S
C4569 C334 1.534 . S
C4605 C165 0.802 . S
C4624 C489 0.777 . S
C4660 C1659 0.874 1_655 S
C4641 C306 0.859 . S
C4677 C130 1.689 . S
C4696 C655 1.696 . S
C4713 C327 1.282 . S
C4732 C1075 1.453 . S
C4768 C819 1.067 . S
C4749 C158 1.083 . S
C4785 C299 0.700 . S
C4804 C1245 0.644 . S
C4840 C987 1.415 . S
C4821 C137 1.408 . S
C4876 C1581 0.811 . S
C4857 C250 0.887 . S
C4912 C735 1.533 1_565 S
C4893 C222 1.557 . S
C4929 C235 1.126 . S
C4948 C1161 1.104 . S
C4984 C907 0.637 . S
C4965 C187 0.702 . S
C5001 C207 0.803 . S
C5020 C993 0.811 . S
C5037 C173 1.141 . S
C5056 C1665 1.225 . S
C5092 C1323 1.589 . S
C5073 C228 1.554 . S
C5128 C1411 0.872 . S
C5109 C270 0.863 . S
