# Generated by pormake.
# Topology wbl, (4,4)-cn, num edge types: 1
# Building blocks:
#     Node 0, Type 0, BuildingBlock: MUDLON_clean_sbu_0, # of connection points: 4
#     Node 1, Type 0, BuildingBlock: MUDLON_clean_sbu_0, # of connection points: 4
#     Node 2, Type 0, BuildingBlock: MUDLON_clean_sbu_0, # of connection points: 4
#     Node 3, Type 0, BuildingBlock: MUDLON_clean_sbu_0, # of connection points: 4
#     Node 4, Type 0, BuildingBlock: MUDLON_clean_sbu_0, # of connection points: 4
#     Node 5, Type 0, BuildingBlock: MUDLON_clean_sbu_0, # of connection points: 4
#     Node 6, Type 0, BuildingBlock: MUDLON_clean_sbu_0, # of connection points: 4
#     Node 7, Type 0, BuildingBlock: MUDLON_clean_sbu_0, # of connection points: 4
#     Node 8, Type 1, BuildingBlock: KUFVIS_clean_sbu_0, # of connection points: 4
#     Node 9, Type 1, BuildingBlock: KUFVIS_clean_sbu_0, # of connection points: 4
#     Node 10, Type 1, BuildingBlock: KUFVIS_clean_sbu_0, # of connection points: 4
#     Node 11, Type 1, BuildingBlock: KUFVIS_clean_sbu_0, # of connection points: 4
#     Node 12, Type 1, BuildingBlock: KUFVIS_clean_sbu_0, # of connection points: 4
#     Node 13, Type 1, BuildingBlock: KUFVIS_clean_sbu_0, # of connection points: 4
#     Node 14, Type 1, BuildingBlock: KUFVIS_clean_sbu_0, # of connection points: 4
#     Node 15, Type 1, BuildingBlock: KUFVIS_clean_sbu_0, # of connection points: 4
#     Edge 16, Type (0, 1), BuildingBlock: KIFKEQ_clean_linker_1, # of connection points: 2
#     Edge 17, Type (0, 1), BuildingBlock: KIFKEQ_clean_linker_1, # of connection points: 2
#     Edge 18, Type (0, 1), BuildingBlock: KIFKEQ_clean_linker_1, # of connection points: 2
#     Edge 19, Type (0, 1), BuildingBlock: KIFKEQ_clean_linker_1, # of connection points: 2
#     Edge 20, Type (0, 1), BuildingBlock: KIFKEQ_clean_linker_1, # of connection points: 2
#     Edge 21, Type (0, 1), BuildingBlock: KIFKEQ_clean_linker_1, # of connection points: 2
#     Edge 22, Type (0, 1), BuildingBlock: KIFKEQ_clean_linker_1, # of connection points: 2
#     Edge 23, Type (0, 1), BuildingBlock: KIFKEQ_clean_linker_1, # of connection points: 2
#     Edge 24, Type (0, 1), BuildingBlock: KIFKEQ_clean_linker_1, # of connection points: 2
#     Edge 25, Type (0, 1), BuildingBlock: KIFKEQ_clean_linker_1, # of connection points: 2
#     Edge 26, Type (0, 1), BuildingBlock: KIFKEQ_clean_linker_1, # of connection points: 2
#     Edge 27, Type (0, 1), BuildingBlock: KIFKEQ_clean_linker_1, # of connection points: 2
#     Edge 28, Type (0, 1), BuildingBlock: KIFKEQ_clean_linker_1, # of connection points: 2
#     Edge 29, Type (0, 1), BuildingBlock: KIFKEQ_clean_linker_1, # of connection points: 2
#     Edge 30, Type (0, 1), BuildingBlock: KIFKEQ_clean_linker_1, # of connection points: 2
#     Edge 31, Type (0, 1), BuildingBlock: KIFKEQ_clean_linker_1, # of connection points: 2
#     Edge 32, Type (0, 1), BuildingBlock: KIFKEQ_clean_linker_1, # of connection points: 2
#     Edge 33, Type (0, 1), BuildingBlock: KIFKEQ_clean_linker_1, # of connection points: 2
#     Edge 34, Type (0, 1), BuildingBlock: KIFKEQ_clean_linker_1, # of connection points: 2
#     Edge 35, Type (0, 1), BuildingBlock: KIFKEQ_clean_linker_1, # of connection points: 2
#     Edge 36, Type (0, 1), BuildingBlock: KIFKEQ_clean_linker_1, # of connection points: 2
#     Edge 37, Type (0, 1), BuildingBlock: KIFKEQ_clean_linker_1, # of connection points: 2
#     Edge 38, Type (0, 1), BuildingBlock: KIFKEQ_clean_linker_1, # of connection points: 2
#     Edge 39, Type (0, 1), BuildingBlock: KIFKEQ_clean_linker_1, # of connection points: 2
#     Edge 40, Type (0, 1), BuildingBlock: KIFKEQ_clean_linker_1, # of connection points: 2
#     Edge 41, Type (0, 1), BuildingBlock: KIFKEQ_clean_linker_1, # of connection points: 2
#     Edge 42, Type (0, 1), BuildingBlock: KIFKEQ_clean_linker_1, # of connection points: 2
#     Edge 43, Type (0, 1), BuildingBlock: KIFKEQ_clean_linker_1, # of connection points: 2
#     Edge 44, Type (0, 1), BuildingBlock: KIFKEQ_clean_linker_1, # of connection points: 2
#     Edge 45, Type (0, 1), BuildingBlock: KIFKEQ_clean_linker_1, # of connection points: 2
#     Edge 46, Type (0, 1), BuildingBlock: KIFKEQ_clean_linker_1, # of connection points: 2
#     Edge 47, Type (0, 1), BuildingBlock: KIFKEQ_clean_linker_1, # of connection points: 2
# Relax obj value: 0.226
# Max RMSD: 0.215
# Mean RMSD: 0.171
data_MOF--net-wbl--node1-MUDLON_clean_sbu_0--node2-KUFVIS_clean_sbu_0--edge1-KIFKEQ_clean_linker_1
_symmetry_space_group_name_H-M    P1
_symmetry_Int_Tables_number       1
_symmetry_cell_setting            triclinic
loop_
_symmetry_equiv_pos_as_xyz
'x, y, z'
_cell_length_a     35.418306
_cell_length_b     35.418444
_cell_length_c     76.097005
_cell_angle_alpha  89.995776
_cell_angle_beta   90.495853
_cell_angle_gamma 90.034683
loop_
_atom_site_label
_atom_site_type_symbol
_atom_site_fract_x
_atom_site_fract_y
_atom_site_fract_z
_atom_type_partial_charge
Mg0 Mg 0.02739 0.02128 0.34582 0.0
C1 C 0.00458 0.93625 0.35524 0.0
O2 O 0.98623 0.90556 0.35054 0.0
C3 C 0.96589 0.04299 0.31985 0.0
O4 O 0.96935 0.00715 0.31572 0.0
C5 C 0.08898 0.03701 0.31913 0.0
O6 O 0.06209 0.05769 0.31205 0.0
O7 O 0.08276 0.02005 0.33356 0.0
O8 O 0.00443 0.96412 0.34465 0.0
O9 O 0.02677 0.04393 0.37236 0.0
C10 C 0.99684 0.03687 0.38083 0.0
O11 O 0.97069 0.0158 0.37337 0.0
O12 O 0.98789 0.05698 0.33142 0.0
Mg13 Mg 0.11145 0.53494 0.58804 0.0
C14 C 0.16568 0.51495 0.61621 0.0
O15 O 0.13967 0.48878 0.61803 0.0
C16 C 0.08181 0.47913 0.56089 0.0
O17 O 0.06949 0.51035 0.55349 0.0
C18 C 0.13869 0.60335 0.56879 0.0
O19 O 0.16991 0.59222 0.57665 0.0
O20 O 0.10871 0.5841 0.57087 0.0
O21 O 0.16421 0.536 0.60271 0.0
O22 O 0.07124 0.53787 0.60941 0.0
C23 C 0.07988 0.55916 0.6223 0.0
O24 O 0.10793 0.58311 0.62049 0.0
O25 O 0.1016 0.48136 0.57487 0.0
Mg26 Mg 0.64826 0.62542 0.84188 0.0
C27 C 0.61991 0.69194 0.862 0.0
O28 O 0.58934 0.68261 0.85312 0.0
C29 C 0.69566 0.58642 0.81511 0.0
O30 O 0.66498 0.56554 0.81471 0.0
C31 C 0.58994 0.62672 0.81188 0.0
O32 O 0.61982 0.63059 0.80195 0.0
O33 O 0.59404 0.62312 0.82841 0.0
O34 O 0.65088 0.67587 0.85816 0.0
O35 O 0.6527 0.58293 0.8622 0.0
C36 C 0.68512 0.58365 0.86948 0.0
O37 O 0.71088 0.60627 0.86296 0.0
O38 O 0.69641 0.61563 0.82484 0.0
Mg39 Mg 0.54324 0.14269 0.09147 0.0
C40 C 0.60873 0.12816 0.12012 0.0
O41 O 0.61885 0.09617 0.11283 0.0
C42 C 0.55136 0.05893 0.08352 0.0
O43 O 0.55369 0.05725 0.10074 0.0
C44 C 0.59171 0.19728 0.07385 0.0
O45 O 0.61494 0.17157 0.08012 0.0
O46 O 0.55639 0.19238 0.07582 0.0
O47 O 0.58212 0.14764 0.11346 0.0
O48 O 0.4907 0.14464 0.10607 0.0
C49 C 0.47048 0.11525 0.10797 0.0
O50 O 0.47549 0.08668 0.09724 0.0
O51 O 0.54766 0.09094 0.07615 0.0
Mg52 Mg 0.14475 0.5549 0.93509 0.0
C53 C 0.11943 0.59228 0.90213 0.0
O54 O 0.09586 0.56369 0.903 0.0
C55 C 0.09176 0.55687 0.96743 0.0
O56 O 0.11981 0.5742 0.97545 0.0
C57 C 0.20205 0.59749 0.95629 0.0
O58 O 0.17494 0.62269 0.95507 0.0
O59 O 0.19683 0.56496 0.94961 0.0
O60 O 0.14053 0.59911 0.91536 0.0
O61 O 0.14834 0.50597 0.91803 0.0
C62 C 0.12128 0.48243 0.91703 0.0
O63 O 0.09483 0.48336 0.92902 0.0
O64 O 0.09487 0.54782 0.95133 0.0
Mg65 Mg 0.62239 0.63698 0.19036 0.0
C66 C 0.58224 0.60718 0.15923 0.0
O67 O 0.61044 0.58331 0.16085 0.0
C68 C 0.64991 0.58209 0.21896 0.0
O69 O 0.67253 0.61013 0.22319 0.0
C70 C 0.581 0.69186 0.21308 0.0
O71 O 0.55878 0.66222 0.21409 0.0
O72 O 0.61163 0.68908 0.20458 0.0
O73 O 0.57699 0.63119 0.17138 0.0
O74 O 0.66919 0.64108 0.17219 0.0
C75 C 0.69177 0.61379 0.1696 0.0
O76 O 0.6922 0.58539 0.1807 0.0
O77 O 0.62633 0.58635 0.20641 0.0
Mg78 Mg 0.52578 0.12916 0.43894 0.0
C79 C 0.55488 0.19598 0.41829 0.0
O80 O 0.58499 0.19095 0.4282 0.0
C81 C 0.47544 0.09698 0.46663 0.0
O82 O 0.50747 0.08048 0.47087 0.0
C83 C 0.58437 0.14961 0.46636 0.0
O84 O 0.56006 0.17683 0.46934 0.0
O85 O 0.57708 0.12547 0.45445 0.0
O86 O 0.52481 0.17811 0.42189 0.0
O87 O 0.52338 0.08608 0.41887 0.0
C88 C 0.49239 0.08843 0.41039 0.0
O89 O 0.46674 0.11227 0.416 0.0
O90 O 0.47517 0.12129 0.45434 0.0
Mg91 Mg 0.04979 0.02532 0.68589 0.0
C92 C 0.10853 0.01413 0.65615 0.0
O93 O 0.12712 0.99282 0.66738 0.0
C94 C 0.04707 0.10831 0.69388 0.0
O95 O 0.04046 0.10897 0.67686 0.0
C96 C 0.10252 0.97672 0.70735 0.0
O97 O 0.12312 0.00746 0.7061 0.0
O98 O 0.06982 0.97622 0.70032 0.0
O99 O 0.07903 0.03142 0.66107 0.0
O100 O 0.9932 0.01778 0.67543 0.0
C101 C 0.96832 0.04353 0.67637 0.0
O102 O 0.97163 0.06934 0.68867 0.0
O103 O 0.05311 0.07676 0.70136 0.0
Mn104 Mn 0.50625 0.74551 0.01723 0.0
Mn105 Mn 0.5365 0.65583 0.01269 0.0
C106 C 0.50833 0.70568 0.04133 0.0
C107 C 0.5203 0.80882 0.02278 0.0
C108 C 0.45777 0.68134 0.00206 0.0
O109 O 0.53183 0.74674 0.99336 0.0
O110 O 0.55285 0.68684 0.99234 0.0
C111 C 0.61693 0.67517 0.01779 0.0
N112 N 0.58673 0.65314 0.02185 0.0
C113 C 0.62216 0.62071 0.04433 0.0
C114 C 0.65374 0.64281 0.04027 0.0
C115 C 0.65092 0.67053 0.02713 0.0
C116 C 0.5887 0.62734 0.03491 0.0
H117 H 0.61478 0.69672 0.0078 0.0
C118 C 0.54974 0.72008 0.98585 0.0
O119 O 0.48926 0.79917 0.01469 0.0
O120 O 0.54336 0.78189 0.02699 0.0
N121 N 0.52359 0.62206 0.03134 0.0
C122 C 0.48914 0.60774 0.03558 0.0
C123 C 0.48639 0.58116 0.0492 0.0
C124 C 0.51908 0.56939 0.05824 0.0
C125 C 0.55426 0.58433 0.05357 0.0
C126 C 0.55531 0.61039 0.03974 0.0
H127 H 0.46393 0.61674 0.0287 0.0
O128 O 0.48724 0.73555 0.04148 0.0
O129 O 0.52799 0.70039 0.02721 0.0
O130 O 0.46178 0.71595 0.00652 0.0
O131 O 0.48397 0.65663 0.00361 0.0
C132 C 0.58817 0.57523 0.06241 0.0
C133 C 0.62203 0.59377 0.05795 0.0
H134 H 0.67996 0.63955 0.04748 0.0
H135 H 0.67489 0.68838 0.02425 0.0
H136 H 0.45912 0.56987 0.05278 0.0
H137 H 0.51678 0.54926 0.06889 0.0
H138 H 0.58829 0.5549 0.07305 0.0
H139 H 0.6476 0.58772 0.06534 0.0
Mn140 Mn 0.40901 0.99127 0.26222 0.0
Mn141 Mn 0.49771 0.02589 0.26175 0.0
C142 C 0.44316 0.99736 0.28806 0.0
C143 C 0.34416 0.00175 0.26462 0.0
C144 C 0.47838 0.9453 0.25137 0.0
O145 O 0.4118 0.01553 0.23798 0.0
O146 O 0.47075 0.03943 0.23956 0.0
C147 C 0.47658 0.10662 0.26337 0.0
N148 N 0.49642 0.07685 0.26999 0.0
C149 C 0.52064 0.11471 0.29383 0.0
C150 C 0.50088 0.14589 0.28711 0.0
C151 C 0.4784 0.14168 0.27194 0.0
C152 C 0.5175 0.08036 0.2848 0.0
H153 H 0.45914 0.10353 0.25175 0.0
C154 C 0.43916 0.03435 0.23152 0.0
O155 O 0.35708 0.97089 0.25764 0.0
O156 O 0.36877 0.02686 0.26938 0.0
N157 N 0.52681 0.01551 0.28252 0.0
C158 C 0.54122 0.98194 0.28818 0.0
C159 C 0.56289 0.9808 0.30371 0.0
C160 C 0.56961 0.01416 0.31323 0.0
C161 C 0.5548 0.04843 0.30705 0.0
C162 C 0.53384 0.04791 0.29136 0.0
H163 H 0.53595 0.95617 0.28099 0.0
O164 O 0.41473 0.97439 0.28715 0.0
O165 O 0.45042 0.01632 0.27389 0.0
O166 O 0.44284 0.94781 0.25397 0.0
O167 O 0.50131 0.97285 0.25368 0.0
C168 C 0.5593 0.08292 0.31606 0.0
C169 C 0.54217 0.11603 0.30947 0.0
H170 H 0.50225 0.17301 0.29366 0.0
H171 H 0.46257 0.16545 0.26683 0.0
H172 H 0.57416 0.95423 0.30841 0.0
H173 H 0.5859 0.01307 0.32533 0.0
H174 H 0.57527 0.08416 0.32825 0.0
H175 H 0.54513 0.1422 0.31672 0.0
Mn176 Mn 0.17942 0.92619 0.49642 0.0
Mn177 Mn 0.08494 0.92472 0.49998 0.0
C178 C 0.14267 0.92279 0.47121 0.0
C179 C 0.23478 0.96171 0.49548 0.0
C180 C 0.13575 0.85808 0.50906 0.0
O181 O 0.16965 0.94225 0.52166 0.0
O182 O 0.10663 0.95193 0.5207 0.0
C183 C 0.06665 0.00586 0.4964 0.0
N184 N 0.06271 0.96965 0.49068 0.0
C185 C 0.01895 0.98865 0.46802 0.0
C186 C 0.02212 0.02604 0.47383 0.0
C187 C 0.04617 0.03476 0.48803 0.0
C188 C 0.0398 0.96105 0.47695 0.0
H189 H 0.08523 0.01256 0.50729 0.0
C190 C 0.13894 0.95392 0.52842 0.0
O191 O 0.23506 0.9267 0.50059 0.0
O192 O 0.20236 0.97603 0.49107 0.0
N193 N 0.06078 0.89935 0.48071 0.0
C194 C 0.06157 0.86198 0.47645 0.0
C195 C 0.03975 0.84883 0.46222 0.0
C196 C 0.01712 0.87414 0.45261 0.0
C197 C 0.01649 0.91239 0.45733 0.0
C198 C 0.03867 0.92382 0.4717 0.0
H199 H 0.07873 0.8423 0.48382 0.0
O200 O 0.17809 0.91352 0.47078 0.0
O201 O 0.1303 0.93464 0.48626 0.0
O202 O 0.16627 0.87174 0.50294 0.0
O203 O 0.10482 0.87663 0.50958 0.0
C204 C 0.995 0.93968 0.44825 0.0
C205 C 0.99622 0.97777 0.45361 0.0
H206 H 0.00634 0.0482 0.46739 0.0
H207 H 0.04884 0.06364 0.49253 0.0
H208 H 0.04038 0.81926 0.45867 0.0
H209 H 1.00043 0.86391 0.44161 0.0
H210 H 0.97767 0.93174 0.43704 0.0
H211 H 0.97975 0.99849 0.44649 0.0
Mn212 Mn 0.25544 0.67756 0.75128 0.0
Mn213 Mn 0.25784 0.58267 0.75454 0.0
C214 C 0.25911 0.64027 0.72622 0.0
C215 C 0.22173 0.73384 0.74853 0.0
C216 C 0.32515 0.63245 0.76282 0.0
O217 O 0.23621 0.66846 0.77618 0.0
O218 O 0.2366 0.60484 0.77629 0.0
C219 C 0.1751 0.57243 0.75336 0.0
N220 N 0.20997 0.5631 0.74738 0.0
C221 C 0.18351 0.52084 0.72584 0.0
C222 C 0.14735 0.52966 0.73191 0.0
C223 C 0.14308 0.55605 0.74549 0.0
C224 C 0.21431 0.53896 0.7338 0.0
H225 H 0.17176 0.59288 0.76376 0.0
C226 C 0.22995 0.63672 0.78362 0.0
O227 O 0.25585 0.73331 0.75492 0.0
O228 O 0.20692 0.7016 0.74423 0.0
N229 N 0.27736 0.55727 0.73438 0.0
C230 C 0.31332 0.55692 0.72816 0.0
C231 C 0.3221 0.53403 0.71369 0.0
C232 C 0.2939 0.51162 0.70584 0.0
C233 C 0.25712 0.51243 0.7125 0.0
C234 C 0.25012 0.53555 0.72703 0.0
H235 H 0.33506 0.57414 0.73412 0.0
O236 O 0.27014 0.6752 0.72579 0.0
O237 O 0.24681 0.62848 0.74123 0.0
O238 O 0.30911 0.66381 0.75924 0.0
O239 O 0.30855 0.60051 0.76163 0.0
C240 C 0.22693 0.49189 0.70504 0.0
C241 C 0.19007 0.49629 0.71163 0.0
H242 H 0.12257 0.51748 0.72585 0.0
H243 H 0.11512 0.56404 0.74969 0.0
H244 H 0.35051 0.53373 0.70858 0.0
H245 H 0.30069 0.49428 0.69458 0.0
H246 H 0.23151 0.47359 0.69385 0.0
H247 H 0.16685 0.48147 0.70535 0.0
Mn248 Mn 0.91591 0.17888 0.53231 0.0
Mn249 Mn 0.90514 0.08394 0.53211 0.0
C250 C 0.90923 0.14639 0.55844 0.0
C251 C 0.95329 0.23318 0.53261 0.0
C252 C 0.84155 0.13775 0.52358 0.0
O253 O 0.93308 0.16483 0.50772 0.0
O254 O 0.9239 0.10185 0.50902 0.0
C255 C 0.98614 0.06427 0.52969 0.0
N256 N 0.95242 0.06115 0.53802 0.0
C257 C 0.97858 0.01772 0.55916 0.0
C258 C 0.0135 0.02019 0.55072 0.0
C259 C 0.01737 0.04382 0.53601 0.0
C260 C 0.94853 0.03895 0.55234 0.0
H261 H 0.98917 0.08226 0.51832 0.0
C262 C 0.93362 0.13196 0.50093 0.0
O263 O 0.91885 0.23362 0.52666 0.0
O264 O 0.96634 0.20095 0.53805 0.0
N265 N 0.88709 0.06197 0.55341 0.0
C266 C 0.85192 0.064 0.56046 0.0
C267 C 0.84371 0.04295 0.5756 0.0
C268 C 0.87148 0.01955 0.58313 0.0
C269 C 0.90723 0.01737 0.57543 0.0
C270 C 0.9138 0.03905 0.56037 0.0
H271 H 0.83039 0.08172 0.55464 0.0
O272 O 0.90161 0.18216 0.55756 0.0
O273 O 0.92112 0.13059 0.54407 0.0
O274 O 0.86093 0.16798 0.5252 0.0
O275 O 0.85512 0.10483 0.52621 0.0
C276 C 0.93678 0.99493 0.58222 0.0
C277 C 0.97251 0.99532 0.57417 0.0
H278 H 0.03751 0.00425 0.55551 0.0
H279 H 0.04434 0.04629 0.52956 0.0
H280 H 0.81601 0.04472 0.58144 0.0
H281 H 0.8651 0.00351 0.59485 0.0
H282 H 0.93245 0.9776 0.59376 0.0
H283 H 0.99519 0.97845 0.5797 0.0
Mn284 Mn 0.98738 0.42282 0.77237 0.0
Mn285 Mn 0.0825 0.41898 0.77185 0.0
C286 C 0.02123 0.41471 0.79832 0.0
C287 C 0.93205 0.45839 0.77412 0.0
C288 C 0.03247 0.35399 0.76021 0.0
O289 O 0.99994 0.44426 0.74824 0.0
O290 O 0.06353 0.44392 0.75007 0.0
C291 C 0.09492 0.50108 0.77579 0.0
N292 N 0.10222 0.4651 0.7811 0.0
C293 C 0.14158 0.48705 0.80492 0.0
C294 C 0.13493 0.5243 0.79954 0.0
C295 C 0.11112 0.53137 0.78508 0.0
C296 C 0.12412 0.45803 0.79536 0.0
H297 H 0.07635 0.50654 0.76475 0.0
C298 C 0.03252 0.4511 0.7419 0.0
O299 O 0.93199 0.42478 0.76727 0.0
O300 O 0.96426 0.47151 0.77954 0.0
N301 N 0.10487 0.39562 0.79208 0.0
C302 C 0.10387 0.35867 0.79704 0.0
C303 C 0.12433 0.34703 0.81197 0.0
C304 C 0.14574 0.37343 0.82158 0.0
C305 C 0.14648 0.41126 0.81616 0.0
C306 C 0.12585 0.42112 0.80107 0.0
H307 H 0.08741 0.33828 0.78972 0.0
O308 O 0.98596 0.405 0.79741 0.0
O309 O 0.03534 0.42883 0.78408 0.0
O310 O 1.0009 0.36968 0.76364 0.0
O311 O 0.0644 0.37009 0.76262 0.0
C312 C 0.16607 0.43973 0.8254 0.0
C313 C 0.16336 0.47767 0.81987 0.0
H314 H 0.14694 0.54775 0.80673 0.0
H315 H 0.10505 0.56015 0.78124 0.0
H316 H 0.12349 0.31781 0.8161 0.0
H317 H 0.16113 0.36443 0.8332 0.0
H318 H 0.18237 0.43292 0.83708 0.0
H319 H 0.1774 0.49949 0.82747 0.0
Mn320 Mn 0.77415 0.48461 0.01759 0.0
Mn321 Mn 0.68649 0.52087 0.01615 0.0
C322 C 0.74312 0.4908 0.99091 0.0
C323 C 0.83895 0.49667 0.01748 0.0
C324 C 0.7041 0.44071 0.02821 0.0
O325 O 0.7677 0.50772 0.04192 0.0
O326 O 0.71264 0.53883 0.03788 0.0
C327 C 0.70949 0.60015 0.01052 0.0
N328 N 0.68834 0.56978 0.00559 0.0
C329 C 0.66537 0.6023 0.97987 0.0
C330 C 0.68598 0.63433 0.98497 0.0
C331 C 0.70864 0.633 1.00019 0.0
C332 C 0.66754 0.57025 0.99061 0.0
H333 H 0.72723 0.59909 0.02212 0.0
C334 C 0.74202 0.5304 0.04703 0.0
O335 O 0.82582 0.46503 0.02362 0.0
O336 O 0.81453 0.52124 0.01202 0.0
N337 N 0.65816 0.50616 0.99572 0.0
C338 C 0.64387 0.47156 0.99151 0.0
C339 C 0.62253 0.4672 0.976 0.0
C340 C 0.61607 0.49842 0.965 0.0
C341 C 0.63082 0.5338 0.96967 0.0
C342 C 0.65126 0.5366 0.98546 0.0
H343 H 0.64882 0.44741 0.99986 0.0
O344 O 0.77199 0.46852 0.99235 0.0
O345 O 0.73423 0.50924 0.005 0.0
O346 O 0.73927 0.44107 0.02451 0.0
O347 O 0.68253 0.46958 0.02656 0.0
C348 C 0.62697 0.56612 0.95903 0.0
C349 C 0.6444 0.60029 0.96408 0.0
H350 H 0.68544 0.65973 0.97703 0.0
H351 H 0.72539 0.65729 0.00398 0.0
H352 H 0.6113 0.43979 0.97247 0.0
H353 H 0.60013 0.49482 0.95291 0.0
H354 H 0.61154 0.56475 0.94669 0.0
H355 H 0.64241 0.62452 0.95547 0.0
Mn356 Mn 0.6914 0.25214 0.266 0.0
Mn357 Mn 0.65113 0.1659 0.26622 0.0
C358 C 0.6855 0.21858 0.24008 0.0
C359 C 0.68275 0.31738 0.26432 0.0
C360 C 0.73167 0.18119 0.27879 0.0
O361 O 0.66648 0.2494 0.28998 0.0
O362 O 0.634 0.19489 0.28711 0.0
C363 C 0.57247 0.19069 0.25981 0.0
N364 N 0.60237 0.16865 0.25535 0.0
C365 C 0.5686 0.14339 0.23041 0.0
C366 C 0.53719 0.16528 0.23494 0.0
C367 C 0.53936 0.18943 0.24956 0.0
C368 C 0.60098 0.14609 0.24103 0.0
H369 H 0.5741 0.20947 0.27097 0.0
C370 C 0.64277 0.22508 0.29548 0.0
O371 O 0.71325 0.30318 0.27129 0.0
O372 O 0.65741 0.29378 0.25876 0.0
N373 N 0.66465 0.13475 0.24669 0.0
C374 C 0.69849 0.11821 0.24318 0.0
C375 C 0.70179 0.0946 0.22845 0.0
C376 C 0.67026 0.08807 0.21754 0.0
C377 C 0.63563 0.10502 0.22154 0.0
C378 C 0.63389 0.12784 0.23654 0.0
H379 H 0.72285 0.12312 0.25149 0.0
O380 O 0.70897 0.24659 0.2412 0.0
O381 O 0.66546 0.212 0.25396 0.0
O382 O 0.73288 0.21614 0.27461 0.0
O383 O 0.70203 0.16071 0.27702 0.0
C384 C 0.603 0.10089 0.21098 0.0
C385 C 0.56956 0.12021 0.21537 0.0
H386 H 0.51156 0.16437 0.22707 0.0
H387 H 0.51554 0.20706 0.25291 0.0
H388 H 0.72862 0.08162 0.22545 0.0
H389 H 0.67306 0.07026 0.20605 0.0
H390 H 0.60357 0.08363 0.19924 0.0
H391 H 0.54502 0.11768 0.20687 0.0
H392 H 0.14391 0.98452 0.32586 0.0
H393 H 0.11604 0.07743 0.29131 0.0
H394 H 0.20312 0.97523 0.31022 0.0
H395 H 0.17544 0.06818 0.27577 0.0
H396 H 0.30811 0.06764 0.27184 0.0
H397 H 0.24478 0.07565 0.28362 0.0
H398 H 0.22611 0.95547 0.27979 0.0
H399 H 0.28963 0.94741 0.26783 0.0
C400 C 0.15042 0.00301 0.31496 0.0
C401 C 0.12531 0.03184 0.30989 0.0
C402 C 0.18417 0.99743 0.3059 0.0
C403 C 0.1938 0.02085 0.29171 0.0
C404 C 0.16879 0.04976 0.28668 0.0
C405 C 0.13479 0.05503 0.29558 0.0
C406 C 0.29025 0.04299 0.2732 0.0
C407 C 0.30384 0.00688 0.26894 0.0
C408 C 0.25395 0.04761 0.27992 0.0
C409 C 0.23063 0.01616 0.28277 0.0
C410 C 0.24366 0.98016 0.27789 0.0
C411 C 0.27984 0.9756 0.2709 0.0
H412 H 0.08066 0.63309 0.5491 0.0
H413 H 0.19613 0.65395 0.56512 0.0
H414 H 0.08006 0.69274 0.53302 0.0
H415 H 0.19519 0.71386 0.54958 0.0
H416 H 0.19334 0.80614 0.50857 0.0
H417 H 0.19376 0.74295 0.52126 0.0
H418 H 0.0793 0.75899 0.53899 0.0
H419 H 0.07841 0.82146 0.52588 0.0
C420 C 0.1059 0.65038 0.54919 0.0
C421 C 0.13839 0.63878 0.55843 0.0
C422 C 0.10552 0.68469 0.54005 0.0
C423 C 0.13755 0.70826 0.54003 0.0
C424 C 0.17019 0.69626 0.54906 0.0
C425 C 0.17063 0.66194 0.5581 0.0
C426 C 0.16819 0.79612 0.51509 0.0
C427 C 0.13593 0.81908 0.51624 0.0
C428 C 0.16848 0.75992 0.52245 0.0
C429 C 0.1366 0.74584 0.53123 0.0
C430 C 0.10418 0.76859 0.53212 0.0
C431 C 0.1038 0.80465 0.52469 0.0
H432 H 0.56908 0.6119 0.77792 0.0
H433 H 0.52438 0.64503 0.82827 0.0
H434 H 0.50528 0.61425 0.76519 0.0
H435 H 0.46097 0.64815 0.81541 0.0
H436 H 0.3635 0.6905 0.77858 0.0
H437 H 0.42838 0.68988 0.78995 0.0
H438 H 0.44168 0.57515 0.77202 0.0
H439 H 0.37667 0.57521 0.76102 0.0
C440 C 0.5457 0.61983 0.78622 0.0
C441 C 0.55163 0.62813 0.80409 0.0
C442 C 0.5093 0.62108 0.77895 0.0
C443 C 0.47843 0.63152 0.78934 0.0
C444 C 0.48442 0.6403 0.80713 0.0
C445 C 0.52063 0.63825 0.81448 0.0
C446 C 0.38033 0.66523 0.77696 0.0
C447 C 0.36493 0.6329 0.76892 0.0
C448 C 0.41732 0.66486 0.78353 0.0
C449 C 0.43984 0.63248 0.78181 0.0
C450 C 0.42487 0.60051 0.77338 0.0
C451 C 0.38765 0.60056 0.76717 0.0
H452 H 0.56713 0.98744 0.09459 0.0
H453 H 0.53192 0.05076 0.04876 0.0
H454 H 0.56166 0.92898 0.07792 0.0
H455 H 0.52652 0.99195 0.03203 0.0
H456 H 0.47502 0.87136 0.01905 0.0
H457 H 0.48496 0.93365 0.03232 0.0
H458 H 0.59274 0.89669 0.05291 0.0
H459 H 0.58289 0.83478 0.03983 0.0
C460 C 0.55847 0.98892 0.08092 0.0
C461 C 0.54998 0.02376 0.07301 0.0
C462 C 0.55552 0.95542 0.07133 0.0
C463 C 0.54374 0.95589 0.05364 0.0
C464 C 0.53545 0.99072 0.04567 0.0
C465 C 0.53878 0.02437 0.05522 0.0
C466 C 0.50107 0.87678 0.02618 0.0
C467 C 0.52798 0.84803 0.02853 0.0
C468 C 0.5068 0.91245 0.03373 0.0
C469 C 0.53942 0.91986 0.04384 0.0
C470 C 0.56703 0.89162 0.04546 0.0
C471 C 0.56142 0.85618 0.03787 0.0
H472 H 0.2184 0.65858 0.97682 0.0
H473 H 0.26947 0.56065 0.95302 0.0
H474 H 0.27978 0.67811 0.98824 0.0
H475 H 0.33119 0.58096 0.96373 0.0
H476 H 0.43185 0.6089 0.99863 0.0
H477 H 0.36999 0.58801 0.98864 0.0
H478 H 0.33765 0.70402 0.97928 0.0
H479 H 0.39905 0.72501 0.99008 0.0
C480 C 0.2428 0.64125 0.974 0.0
C481 C 0.23906 0.60806 0.96403 0.0
C482 C 0.27811 0.65263 0.98041 0.0
C483 C 0.3107 0.63136 0.97682 0.0
C484 C 0.30678 0.59785 0.96701 0.0
C485 C 0.27135 0.58622 0.96079 0.0
C486 C 0.41158 0.63001 0.99444 0.0
C487 C 0.42047 0.6687 0.99523 0.0
C488 C 0.37605 0.61797 0.98859 0.0
C489 C 0.34859 0.64424 0.98313 0.0
C490 C 0.3577 0.68294 0.98371 0.0
C491 C 0.39309 0.69502 0.98978 0.0
H492 H 0.52034 0.70587 0.23402 0.0
H493 H 0.61271 0.76151 0.20784 0.0
H494 H 0.49659 0.7668 0.24374 0.0
H495 H 0.5883 0.82262 0.21708 0.0
H496 H 0.55281 0.92455 0.24961 0.0
H497 H 0.57868 0.86344 0.24153 0.0
H498 H 0.46582 0.8212 0.23208 0.0
H499 H 0.43984 0.88197 0.24071 0.0
C500 C 0.53565 0.73112 0.23036 0.0
C501 C 0.5684 0.72878 0.22012 0.0
C502 C 0.52182 0.76614 0.23581 0.0
C503 C 0.54025 0.79979 0.23107 0.0
C504 C 0.57354 0.79736 0.22116 0.0
C505 C 0.58751 0.76227 0.2158 0.0
C506 C 0.53344 0.90229 0.24579 0.0
C507 C 0.49416 0.90831 0.24585 0.0
C508 C 0.54835 0.86719 0.24107 0.0
C509 C 0.52441 0.83722 0.23617 0.0
C510 C 0.48514 0.84335 0.23609 0.0
C511 C 0.47021 0.87837 0.24092 0.0
H512 H 0.40376 0.11206 0.45507 0.0
H513 H 0.46583 0.04918 0.49445 0.0
H514 H 0.34567 0.08145 0.4641 0.0
H515 H 0.40736 0.01945 0.50397 0.0
H516 H 0.24127 0.03749 0.48991 0.0
H517 H 0.29886 0.07394 0.4858 0.0
H518 H 0.36515 0.97259 0.49311 0.0
H519 H 0.30756 0.93654 0.49789 0.0
C520 C 0.40488 0.09233 0.46594 0.0
C521 C 0.43949 0.08283 0.47395 0.0
C522 C 0.37146 0.07482 0.47119 0.0
C523 C 0.37175 0.04764 0.48469 0.0
C524 C 0.40615 0.03961 0.49328 0.0
C525 C 0.43965 0.0569 0.48792 0.0
C526 C 0.26819 0.02309 0.4908 0.0
C527 C 0.26989 0.9841 0.49412 0.0
C528 C 0.30123 0.04395 0.48835 0.0
C529 C 0.33676 0.02625 0.48898 0.0
C530 C 0.3384 0.98736 0.49277 0.0
C531 C 0.30534 0.96657 0.49539 0.0
H532 H 0.17599 0.9628 0.71624 0.0
H533 H 0.06478 0.91281 0.71722 0.0
H534 H 0.20289 0.90472 0.72785 0.0
H535 H 0.09139 0.85512 0.72961 0.0
H536 H 0.15742 0.74385 0.72922 0.0
H537 H 0.12759 0.80302 0.72091 0.0
H538 H 0.20984 0.86419 0.75214 0.0
H539 H 0.2407 0.80479 0.75979 0.0
C540 C 0.15718 0.93958 0.71921 0.0
C541 C 0.11828 0.94234 0.71569 0.0
C542 C 0.17259 0.90626 0.72601 0.0
C543 C 0.14942 0.87498 0.72967 0.0
C544 C 0.11027 0.87826 0.72664 0.0
C545 C 0.09493 0.91145 0.71963 0.0
C546 C 0.16894 0.76991 0.73445 0.0
C547 C 0.20154 0.76966 0.74508 0.0
C548 C 0.15166 0.80394 0.72976 0.0
C549 C 0.16629 0.83862 0.73577 0.0
C550 C 0.19817 0.83818 0.74696 0.0
C551 C 0.21574 0.8041 0.75147 0.0
H552 H 0.76903 0.60445 0.82269 0.0
H553 H 0.70001 0.5377 0.78747 0.0
H554 H 0.82558 0.57563 0.81073 0.0
H555 H 0.75657 0.5102 0.77477 0.0
H556 H 0.92503 0.5337 0.78072 0.0
H557 H 0.8678 0.56843 0.78776 0.0
H558 H 0.80263 0.46582 0.78177 0.0
H559 H 0.85966 0.43183 0.77381 0.0
C560 C 0.76602 0.58429 0.81206 0.0
C561 C 0.73008 0.57315 0.80611 0.0
C562 C 0.79852 0.56778 0.80511 0.0
C563 C 0.7959 0.54017 0.79181 0.0
C564 C 0.75984 0.53057 0.78527 0.0
C565 C 0.72735 0.54659 0.79245 0.0
C566 C 0.89833 0.51875 0.78068 0.0
C567 C 0.89683 0.48002 0.77677 0.0
C568 C 0.86549 0.53859 0.78487 0.0
C569 C 0.83037 0.52003 0.78557 0.0
C570 C 0.82888 0.4814 0.78114 0.0
C571 C 0.86167 0.46173 0.77665 0.0
H572 H 0.55339 0.25467 0.05707 0.0
H573 H 0.66519 0.21937 0.07316 0.0
H574 H 0.57986 0.31298 0.04512 0.0
H575 H 0.69128 0.27773 0.06195 0.0
H576 H 0.73402 0.36959 0.02649 0.0
H577 H 0.70568 0.31065 0.03606 0.0
H578 H 0.60742 0.37152 0.05386 0.0
H579 H 0.6352 0.43038 0.04364 0.0
C580 C 0.58355 0.25935 0.05807 0.0
C581 C 0.60715 0.23229 0.06601 0.0
C582 C 0.59874 0.29289 0.05134 0.0
C583 C 0.6378 0.30018 0.05252 0.0
C584 C 0.66123 0.27292 0.06044 0.0
C585 C 0.64616 0.23941 0.06699 0.0
C586 C 0.70639 0.37047 0.03247 0.0
C587 C 0.68704 0.40483 0.03437 0.0
C588 C 0.69013 0.3366 0.03803 0.0
C589 C 0.65425 0.33618 0.04585 0.0
C590 C 0.63481 0.37057 0.04768 0.0
C591 C 0.65093 0.40443 0.04194 0.0
H592 H 0.9464 0.11589 0.32783 0.0
H593 H 0.91321 0.02098 0.29551 0.0
H594 H 0.89051 0.15045 0.31795 0.0
H595 H 0.85785 0.05575 0.28543 0.0
H596 H 0.74088 0.10752 0.28878 0.0
H597 H 0.79856 0.07605 0.29806 0.0
H598 H 0.86025 0.18053 0.29247 0.0
H599 H 0.80219 0.21248 0.28343 0.0
C600 C 0.92747 0.10257 0.31845 0.0
C601 C 0.93417 0.06554 0.31256 0.0
C602 C 0.89549 0.12245 0.31275 0.0
C603 C 0.86948 0.10572 0.30104 0.0
C604 C 0.8769 0.06919 0.29472 0.0
C605 C 0.90883 0.04934 0.30041 0.0
C606 C 0.76661 0.12399 0.28958 0.0
C607 C 0.76674 0.16264 0.2853 0.0
C608 C 0.79983 0.10578 0.29478 0.0
C609 C 0.83413 0.12566 0.29583 0.0
C610 C 0.83425 0.16445 0.29188 0.0
C611 C 0.80095 0.18273 0.28665 0.0
H612 H 0.09156 0.41015 0.57644 0.0
H613 H 0.04219 0.46368 0.53069 0.0
H614 H 0.06353 0.35027 0.5677 0.0
H615 H 0.01513 0.40339 0.5216 0.0
H616 H 0.93022 0.30521 0.52578 0.0
H617 H 0.965 0.36347 0.53082 0.0
H618 H 0.06256 0.299 0.54745 0.0
H619 H 0.02714 0.24063 0.54293 0.0
C620 C 0.07531 0.409 0.56432 0.0
C621 C 0.06883 0.44183 0.55435 0.0
C622 C 0.05937 0.37453 0.55924 0.0
C623 C 0.03676 0.37192 0.54399 0.0
C624 C 0.03173 0.40445 0.53361 0.0
C625 C 0.04747 0.43901 0.53876 0.0
C626 C 0.9592 0.30343 0.53036 0.0
C627 C 0.97582 0.2683 0.53407 0.0
C628 C 0.97931 0.33691 0.53314 0.0
C629 C 0.01665 0.33608 0.53961 0.0
C630 C 0.03368 0.30079 0.54274 0.0
C631 C 0.01345 0.26728 0.54005 0.0
H632 H 0.61136 0.1993 0.49104 0.0
H633 H 0.63927 0.0959 0.46393 0.0
H634 H 0.6719 0.19688 0.50664 0.0
H635 H 0.69974 0.09386 0.47927 0.0
H636 H 0.78958 0.08086 0.52094 0.0
H637 H 0.72608 0.08407 0.50867 0.0
H638 H 0.7396 0.20379 0.49994 0.0
H639 H 0.80315 0.20085 0.51247 0.0
C640 C 0.63033 0.17603 0.48843 0.0
C641 C 0.6205 0.14779 0.47623 0.0
C642 C 0.66507 0.17477 0.4973 0.0
C643 C 0.69056 0.14515 0.49422 0.0
C644 C 0.6805 0.11676 0.48215 0.0
C645 C 0.64591 0.11807 0.47326 0.0
C646 C 0.77904 0.10799 0.51653 0.0
C647 C 0.80172 0.14055 0.51755 0.0
C648 C 0.74264 0.10975 0.50942 0.0
C649 C 0.72797 0.14409 0.50316 0.0
C650 C 0.75002 0.17694 0.50476 0.0
C651 C 0.78652 0.17521 0.51188 0.0
H652 H 0.0698 0.11974 0.72794 0.0
H653 H 0.0179 0.17611 0.68354 0.0
H654 H 0.0643 0.17764 0.74526 0.0
H655 H 0.0123 0.23376 0.70089 0.0
H656 H 0.97445 0.31772 0.74312 0.0
H657 H 0.97689 0.25702 0.72784 0.0
H658 H 0.09317 0.24331 0.74406 0.0
H659 H 0.09096 0.30384 0.75924 0.0
C660 C 0.05723 0.14445 0.72189 0.0
C661 C 0.04445 0.14341 0.70435 0.0
C662 C 0.05414 0.17756 0.73179 0.0
C663 C 0.03772 0.2101 0.72443 0.0
C664 C 0.02467 0.20896 0.70695 0.0
C665 C 0.02821 0.17604 0.69699 0.0
C666 C 1.00039 0.30156 0.7436 0.0
C667 C 0.03254 0.31572 0.75234 0.0
C668 C 0.00184 0.26696 0.73476 0.0
C669 C 0.03528 0.24558 0.73471 0.0
C670 C 0.06697 0.25908 0.74397 0.0
C671 C 0.0657 0.29385 0.75259 0.0
H672 H 0.06687 0.58504 0.99881 0.0
H673 H 0.0386 0.50477 0.95802 0.0
H674 H 0.00876 0.56843 0.01429 0.0
H675 H 0.98107 0.48796 0.97358 0.0
H676 H 0.89526 0.44483 0.01282 0.0
H677 H 0.95973 0.45772 0.00288 0.0
H678 H 0.93832 0.57746 0.0062 0.0
H679 H 0.87403 0.56466 0.01582 0.0
C680 C 0.04845 0.5637 0.99322 0.0
C681 C 0.05719 0.54644 0.97713 0.0
C682 C 0.01525 0.5542 0.00208 0.0
C683 C 0.99058 0.52672 0.99518 0.0
C684 C 0.99981 0.50885 0.97932 0.0
C685 C 0.03258 0.51879 0.97033 0.0
C686 C 0.90471 0.47384 0.01183 0.0
C687 C 0.87967 0.50374 0.01501 0.0
C688 C 0.94143 0.48122 0.00603 0.0
C689 C 0.95389 0.5186 0.00367 0.0
C690 C 0.92958 0.54841 0.00799 0.0
C691 C 0.89275 0.54105 0.01345 0.0
H692 H 0.61267 0.51691 0.21082 0.0
H693 H 0.69553 0.56289 0.24693 0.0
H694 H 0.62061 0.45505 0.22399 0.0
H695 H 0.70271 0.50076 0.26057 0.0
H696 H 0.73666 0.37308 0.26388 0.0
H697 H 0.72802 0.43873 0.25465 0.0
H698 H 0.60786 0.41961 0.24965 0.0
H699 H 0.61677 0.35409 0.25819 0.0
C700 C 0.63226 0.51395 0.22175 0.0
C701 C 0.65345 0.54493 0.22781 0.0
C702 C 0.63665 0.4784 0.22941 0.0
C703 C 0.66215 0.47283 0.24346 0.0
C704 C 0.68309 0.50393 0.24968 0.0
C705 C 0.67881 0.53959 0.24192 0.0
C706 C 0.7084 0.38318 0.26105 0.0
C707 C 0.67747 0.35838 0.26154 0.0
C708 C 0.70339 0.42082 0.2558 0.0
C709 C 0.66729 0.43437 0.25109 0.0
C710 C 0.63619 0.40996 0.25268 0.0
C711 C 0.64125 0.37241 0.25771 0.0
H712 H 0.98915 0.89282 0.38362 0.0
H713 H 0.06467 0.9804 0.36591 0.0
H714 H 0.02235 0.89076 0.41179 0.0
H715 H 0.09666 0.97967 0.39463 0.0
H716 H 0.11084 0.98578 0.45721 0.0
H717 H 0.07718 0.99143 0.42893 0.0
H718 H 0.09385 0.87239 0.41967 0.0
H719 H 0.12812 0.86706 0.44773 0.0
C720 C 0.01254 0.91202 0.3858 0.0
C721 C 0.02384 0.93732 0.3726 0.0
C722 C 0.03146 0.91081 0.40195 0.0
C723 C 0.06188 0.93514 0.40537 0.0
C724 C 0.07293 0.96094 0.39236 0.0
C725 C 0.05442 0.96161 0.376 0.0
C726 C 0.10699 0.96089 0.44912 0.0
C727 C 0.1209 0.92575 0.45474 0.0
C728 C 0.08814 0.96418 0.43294 0.0
C729 C 0.08281 0.93229 0.42224 0.0
C730 C 0.0973 0.89729 0.4278 0.0
C731 C 0.11679 0.8942 0.44378 0.0
H732 H 0.15887 0.49023 0.64989 0.0
H733 H 0.22149 0.56878 0.61787 0.0
H734 H 0.18445 0.51937 0.67613 0.0
H735 H 0.24789 0.59771 0.64446 0.0
H736 H 0.30512 0.62502 0.69829 0.0
H737 H 0.28778 0.59082 0.67123 0.0
H738 H 0.17357 0.57948 0.69011 0.0
H739 H 0.19117 0.61284 0.7169 0.0
C740 C 0.17901 0.51301 0.64841 0.0
C741 C 0.18798 0.52725 0.63174 0.0
C742 C 0.19361 0.52991 0.66355 0.0
C743 C 0.21814 0.56101 0.66246 0.0
C744 C 0.22923 0.57366 0.64576 0.0
C745 C 0.2141 0.55708 0.63054 0.0
C746 C 0.27645 0.61493 0.69654 0.0
C747 C 0.24973 0.62024 0.70981 0.0
C748 C 0.26647 0.59553 0.68111 0.0
C749 C 0.22947 0.58177 0.67866 0.0
C750 C 0.20258 0.58864 0.69175 0.0
C751 C 0.21258 0.60778 0.70709 0.0
H752 H 0.55707 0.72621 0.87505 0.0
H753 H 0.67355 0.70149 0.88788 0.0
H754 H 0.54557 0.74276 0.90553 0.0
H755 H 0.66218 0.71896 0.91838 0.0
H756 H 0.60535 0.67932 0.97029 0.0
H757 H 0.62761 0.68417 0.9403 0.0
H758 H 0.55585 0.78112 0.93173 0.0
H759 H 0.53296 0.7759 0.9619 0.0
C760 C 0.58056 0.72542 0.88426 0.0
C761 C 0.61603 0.71175 0.87907 0.0
C762 C 0.57398 0.73515 0.90177 0.0
C763 C 0.60276 0.73149 0.9145 0.0
C764 C 0.63919 0.72131 0.90897 0.0
C765 C 0.64577 0.71157 0.89144 0.0
C766 C 0.59456 0.70196 0.9621 0.0
C767 C 0.56688 0.72682 0.96841 0.0
C768 C 0.6077 0.70502 0.94493 0.0
C769 C 0.59341 0.73291 0.93354 0.0
C770 C 0.56715 0.75906 0.94011 0.0
C771 C 0.55416 0.75618 0.95741 0.0
H772 H 0.46228 0.16505 0.13525 0.0
H773 H 0.43618 0.05067 0.11951 0.0
H774 H 0.44601 0.14956 0.16545 0.0
H775 H 0.42072 0.03507 0.14973 0.0
H776 H 0.38549 0.01847 0.20618 0.0
H777 H 0.38248 0.04281 0.1761 0.0
H778 H 0.48083 0.11172 0.18657 0.0
H779 H 0.48338 0.08818 0.21648 0.0
C780 C 0.45223 0.13684 0.13812 0.0
C781 C 0.45123 0.10893 0.12497 0.0
C782 C 0.44319 0.12788 0.15548 0.0
C783 C 0.4329 0.09084 0.1601 0.0
C784 C 0.4285 0.06388 0.14667 0.0
C785 C 0.4375 0.07285 0.12929 0.0
C786 C 0.40613 0.03919 0.2021 0.0
C787 C 0.43496 0.051 0.2137 0.0
C788 C 0.40449 0.05303 0.18485 0.0
C789 C 0.43141 0.07922 0.17889 0.0
C790 C 0.45929 0.09202 0.19073 0.0
C791 C 0.46104 0.07811 0.20788 0.0
H792 H 0.09214 0.57054 0.87011 0.0
H793 H 0.16856 0.65023 0.8947 0.0
H794 H 0.11747 0.58677 0.84147 0.0
H795 H 0.19355 0.66677 0.86574 0.0
H796 H 0.2184 0.57485 0.80414 0.0
H797 H 0.1881 0.57145 0.83252 0.0
H798 H 0.17321 0.69224 0.83262 0.0
H799 H 0.20391 0.69616 0.80379 0.0
C800 C 0.11357 0.59231 0.86941 0.0
C801 C 0.12862 0.60876 0.88476 0.0
C802 C 0.12815 0.60148 0.85297 0.0
C803 C 0.1577 0.62769 0.85147 0.0
C804 C 0.17071 0.64652 0.86659 0.0
C805 C 0.15642 0.63698 0.88314 0.0
C806 C 0.2088 0.60091 0.81006 0.0
C807 C 0.21328 0.63579 0.80148 0.0
C808 C 0.19126 0.59882 0.82634 0.0
C809 C 0.17767 0.63144 0.83454 0.0
C810 C 0.18322 0.66664 0.82643 0.0
C811 C 0.20076 0.6688 0.80996 0.0
H812 H 0.5197 0.6496 0.15126 0.0
H813 H 0.60477 0.57861 0.12782 0.0
H814 H 0.49823 0.66872 0.12194 0.0
H815 H 0.58366 0.59815 0.09874 0.0
H816 H 0.45705 0.67614 0.06398 0.0
H817 H 0.47022 0.64605 0.09251 0.0
H818 H 0.58969 0.66266 0.08455 0.0
H819 H 0.57632 0.69312 0.0564 0.0
C820 C 0.5332 0.63741 0.13987 0.0
C821 C 0.56405 0.61276 0.14187 0.0
C822 C 0.52086 0.64829 0.12311 0.0
C823 C 0.53951 0.63511 0.10808 0.0
C824 C 0.5689 0.60886 0.11008 0.0
C825 C 0.58084 0.59753 0.12678 0.0
C826 C 0.48605 0.67284 0.06835 0.0
C827 C 0.51585 0.68538 0.05781 0.0
C828 C 0.49357 0.65579 0.08461 0.0
C829 C 0.53099 0.65145 0.09058 0.0
C830 C 0.56064 0.66474 0.08009 0.0
C831 C 0.55307 0.68198 0.06397 0.0
H832 H 0.54209 0.04312 0.39238 0.0
H833 H 0.43034 0.09198 0.38936 0.0
H834 H 0.53435 0.01917 0.36223 0.0
H835 H 0.42308 0.06851 0.35957 0.0
H836 H 0.44324 0.0678 0.30117 0.0
H837 H 0.45877 0.0873 0.33115 0.0
H838 H 0.48726 0.97219 0.34441 0.0
H839 H 0.47171 0.9527 0.31414 0.0
C840 C 0.51581 0.04833 0.38541 0.0
C841 C 0.48693 0.06967 0.39321 0.0
C842 C 0.51146 0.03468 0.36822 0.0
C843 C 0.47838 0.04258 0.35859 0.0
C844 C 0.44912 0.06264 0.36664 0.0
C845 C 0.45326 0.07589 0.38375 0.0
C846 C 0.45377 0.0469 0.31039 0.0
C847 C 0.45731 0.00903 0.30538 0.0
C848 C 0.46229 0.05793 0.32753 0.0
C849 C 0.47409 0.03117 0.34002 0.0
C850 C 0.47854 0.99333 0.33493 0.0
C851 C 0.46959 0.98221 0.31774 0.0
H852 H 0.0619 0.03089 0.62861 0.0
H853 H 0.17521 0.99373 0.64083 0.0
H854 H 0.07297 0.02046 0.59766 0.0
H855 H 0.18745 0.98552 0.60956 0.0
H856 H 0.17756 0.92505 0.55628 0.0
H857 H 0.17363 0.94438 0.58689 0.0
H858 H 0.10087 0.03719 0.57167 0.0
H859 H 0.10325 0.01594 0.54121 0.0
C860 C 0.08963 0.02143 0.62462 0.0
C861 C 0.11764 0.0129 0.6372 0.0
C862 C 0.09613 0.01564 0.60676 0.0
C863 C 0.13115 0.00191 0.60091 0.0
C864 C 0.15983 0.99524 0.6135 0.0
C865 C 0.153 1.00027 0.63145 0.0
C866 C 0.16107 0.9498 0.55954 0.0
C867 C 0.14025 0.96876 0.5465 0.0
C868 C 0.15895 0.96114 0.5771 0.0
C869 C 0.1366 0.99228 0.58197 0.0
C870 C 0.11752 0.01246 0.56862 0.0
C871 C 0.11897 1.00051 0.55113 0.0
H872 H 0.63646 0.54054 0.8892 0.0
H873 H 0.75089 0.5831 0.88803 0.0
H874 H 0.64813 0.51544 0.91886 0.0
H875 H 0.76208 0.55841 0.91738 0.0
H876 H 0.74792 0.56012 0.97692 0.0
H877 H 0.73194 0.57934 0.94694 0.0
H878 H 0.69513 0.46581 0.93516 0.0
H879 H 0.71159 0.44652 0.96538 0.0
C880 C 0.66415 0.54406 0.89512 0.0
C881 C 0.69265 0.56408 0.88632 0.0
C882 C 0.67077 0.52971 0.91204 0.0
C883 C 0.70582 0.53548 0.92038 0.0
C884 C 0.73464 0.5541 0.9113 0.0
C885 C 0.7282 0.56809 0.89445 0.0
C886 C 0.73582 0.5395 0.96798 0.0
C887 C 0.72995 0.50221 0.97341 0.0
C888 C 0.72701 0.55035 0.95085 0.0
C889 C 0.71236 0.52399 0.93881 0.0
C890 C 0.70609 0.48664 0.94429 0.0
C891 C 0.7155 0.47565 0.96145 0.0
H892 H 0.60073 0.19703 0.13519 0.0
H893 H 0.65432 0.08865 0.14323 0.0
H894 H 0.62156 0.21719 0.16413 0.0
H895 H 0.6752 0.10922 0.17259 0.0
H896 H 0.73314 0.18337 0.21746 0.0
H897 H 0.71773 0.15988 0.18781 0.0
H898 H 0.60244 0.19679 0.19431 0.0
H899 H 0.61801 0.22012 0.22368 0.0
C900 C 0.61717 0.1775 0.1431 0.0
C901 C 0.62552 0.14103 0.13696 0.0
C902 C 0.62896 0.18908 0.15972 0.0
C903 C 0.64949 0.16458 0.17067 0.0
C904 C 0.65942 0.12865 0.16435 0.0
C905 C 0.64747 0.11691 0.14759 0.0
C906 C 0.70452 0.18598 0.21248 0.0
C907 C 0.67639 0.2024 0.22285 0.0
C908 C 0.69569 0.17251 0.19564 0.0
C909 C 0.65892 0.1765 0.18881 0.0
C910 C 0.63107 0.19354 0.1992 0.0
C911 C 0.63981 0.20653 0.21603 0.0
H912 H 0.0335 0.09639 0.39668 0.0
H913 H 0.94472 0.01469 0.40456 0.0
H914 H 0.01783 0.12638 0.42464 0.0
H915 H 0.92998 0.0433 0.43249 0.0
H916 H 0.88596 0.11231 0.47497 0.0
H917 H 0.90161 0.09482 0.44501 0.0
H918 H 0.0189 0.12171 0.45549 0.0
H919 H 0.00224 0.14105 0.48535 0.0
C920 C 0.01093 0.08461 0.40449 0.0
C921 C 0.99008 0.05342 0.39836 0.0
C922 C 0.00194 0.10177 0.42052 0.0
C923 C 0.97211 0.08784 0.4308 0.0
C924 C 0.9522 0.05588 0.42476 0.0
C925 C 0.96095 0.03904 0.40877 0.0
C926 C 0.91491 0.1152 0.47065 0.0
C927 C 0.94297 0.12781 0.4823 0.0
C928 C 0.92408 0.10475 0.45357 0.0
C929 C 0.96181 0.10558 0.4479 0.0
C930 C 0.98955 0.12072 0.4593 0.0
C931 C 0.98016 0.13168 0.47642 0.0
H932 H 0.11201 0.57873 0.65363 0.0
H933 H 0.01766 0.51733 0.63125 0.0
H934 H 0.09689 0.554 0.68257 0.0
H935 H 0.00218 0.49308 0.66052 0.0
H936 H 0.0943 0.45288 0.72092 0.0
H937 H 0.101 0.48311 0.69244 0.0
H938 H 0.98384 0.51609 0.69326 0.0
H939 H 0.97698 0.48634 0.72224 0.0
C940 C 0.08739 0.56081 0.65493 0.0
C941 C 0.06606 0.54992 0.6401 0.0
C942 C 0.07892 0.54647 0.67151 0.0
C943 C 0.04853 0.52148 0.67371 0.0
C944 C 0.02566 0.51243 0.65914 0.0
C945 C 0.03456 0.52626 0.64243 0.0
C946 C 0.0699 0.46679 0.71519 0.0
C947 C 0.03529 0.46788 0.72408 0.0
C948 C 0.07384 0.48411 0.69886 0.0
C949 C 0.04314 0.50246 0.69084 0.0
C950 C 0.008 0.50231 0.69928 0.0
C951 C 0.00413 0.48529 0.71582 0.0
H952 H 0.52067 0.17134 0.38843 0.0
H953 H 0.60105 0.25338 0.40765 0.0
H954 H 0.53872 0.18478 0.3586 0.0
H955 H 0.61707 0.26988 0.37751 0.0
H956 H 0.67761 0.24811 0.32554 0.0
H957 H 0.65187 0.24828 0.355 0.0
H958 H 0.54219 0.21775 0.33364 0.0
H959 H 0.56944 0.21414 0.30449 0.0
C960 C 0.54117 0.19352 0.3862 0.0
C961 C 0.55957 0.21125 0.40038 0.0
C962 C 0.55156 0.20148 0.36894 0.0
C963 C 0.57992 0.22827 0.36533 0.0
C964 C 0.59608 0.24818 0.3796 0.0
C965 C 0.58653 0.23923 0.39693 0.0
C966 C 0.64792 0.24183 0.32724 0.0
C967 C 0.62558 0.23078 0.31284 0.0
C968 C 0.63287 0.24221 0.34416 0.0
C969 C 0.59472 0.23263 0.34704 0.0
C970 C 0.5719 0.22406 0.33228 0.0
C971 C 0.58735 0.22239 0.31545 0.0
H972 H 0.92359 0.10526 0.6698 0.0
H973 H 0.96301 0.00149 0.64632 0.0
H974 H 0.90299 0.12749 0.64091 0.0
H975 H 0.94266 0.02398 0.61761 0.0
H976 H 0.85673 0.14717 0.58439 0.0
H977 H 0.86187 0.11777 0.61359 0.0
H978 H 0.9731 0.07697 0.60058 0.0
H979 H 0.96795 0.10664 0.5717 0.0
C980 C 0.92679 0.08666 0.65861 0.0
C981 C 0.94569 0.0519 0.66035 0.0
C982 C 0.91499 0.09946 0.64205 0.0
C983 C 0.92201 0.07776 0.62697 0.0
C984 C 0.93751 0.04154 0.62896 0.0
C985 C 0.94899 0.0286 0.64548 0.0
C986 C 0.88204 0.13159 0.58783 0.0
C987 C 0.91138 0.12774 0.57568 0.0
C988 C 0.885 0.11486 0.60447 0.0
C989 C 0.91753 0.09441 0.6092 0.0
C990 C 0.94724 0.09161 0.59713 0.0
C991 C 0.94433 0.10849 0.58061 0.0
H992 H 0.06705 0.42933 0.90987 0.0
H993 H 0.15783 0.49197 0.88589 0.0
H994 H 0.04594 0.40823 0.88085 0.0
H995 H 0.13657 0.4712 0.85708 0.0
H996 H 0.03018 0.36231 0.82441 0.0
H997 H 0.05962 0.3722 0.85345 0.0
H998 H 0.08006 0.48899 0.84009 0.0
H999 H 0.05095 0.47885 0.81135 0.0
C1000 C 0.08309 0.43779 0.89847 0.0
C1001 C 0.11393 0.46259 0.90021 0.0
C1002 C 0.07102 0.42563 0.88184 0.0
C1003 C 0.08935 0.43836 0.86664 0.0
C1004 C 0.12166 0.46111 0.8685 0.0
C1005 C 0.134 0.47286 0.88508 0.0
C1006 C 0.04136 0.38988 0.82776 0.0
C1007 C 0.0397 0.41951 0.81555 0.0
C1008 C 0.05807 0.3956 0.84432 0.0
C1009 C 0.0728 0.4312 0.84894 0.0
C1010 C 0.07001 0.46096 0.83678 0.0
C1011 C 0.05336 0.45522 0.82034 0.0
H1012 H 0.7521 0.56994 0.16048 0.0
H1013 H 0.66789 0.64514 0.13882 0.0
H1014 H 0.77257 0.55403 0.13084 0.0
H1015 H 0.68631 0.6277 0.10939 0.0
H1016 H 0.7318 0.60338 0.05661 0.0
H1017 H 0.72779 0.62876 0.08633 0.0
H1018 H 0.75235 0.51772 0.10729 0.0
H1019 H 0.75816 0.49342 0.07747 0.0
C1020 C 0.73832 0.58341 0.14938 0.0
C1021 C 0.70857 0.60891 0.152 0.0
C1022 C 0.74969 0.57398 0.13235 0.0
C1023 C 0.73095 0.58917 0.11754 0.0
C1024 C 0.70212 0.61585 0.1203 0.0
C1025 C 0.69138 0.62587 0.13728 0.0
C1026 C 0.7367 0.58473 0.06765 0.0
C1027 C 0.74483 0.54651 0.06485 0.0
C1028 C 0.73426 0.5991 0.08471 0.0
C1029 C 0.7391 0.57529 0.0994 0.0
C1030 C 0.74891 0.53724 0.09645 0.0
C1031 C 0.75211 0.52312 0.07934 0.0
loop_
_geom_bond_atom_site_label_1
_geom_bond_atom_site_label_2
_geom_bond_distance
_geom_bond_site_symmetry_2
_ccdc_geom_bond_type
Mg0 O7 2.141 . S
Mg0 O8 2.048 1_545 S
Mg0 O9 2.048 1_455 S
Mg0 O12 2.141 1_455 S
C1 O2 1.313 . S
C1 O8 1.195 . S
O2 C1 1.313 . S
C3 O4 1.245 . S
C3 O12 1.289 . S
O4 C3 1.245 . S
C5 O6 1.245 . S
C5 O7 1.289 1_565 S
O6 C5 1.245 . S
O7 Mg0 2.141 . S
O7 C5 1.289 1_545 S
O8 Mg0 2.048 1_565 S
O8 C1 1.195 . S
O9 Mg0 2.048 1_655 S
O9 C10 1.195 . S
C10 O9 1.195 . S
C10 O11 1.311 . S
O11 C10 1.311 . S
O12 Mg0 2.141 1_655 S
O12 C3 1.289 . S
Mg13 O20 2.141 . S
Mg13 O21 2.048 . S
Mg13 O22 2.048 . S
Mg13 O25 2.141 . S
C14 O15 1.313 . S
C14 O21 1.195 . S
O15 C14 1.313 . S
C16 O17 1.245 . S
C16 O25 1.289 . S
O17 C16 1.245 . S
C18 O19 1.245 . S
C18 O20 1.289 . S
O19 C18 1.245 . S
O20 Mg13 2.141 . S
O20 C18 1.289 . S
O21 Mg13 2.048 . S
O21 C14 1.195 . S
O22 Mg13 2.048 . S
O22 C23 1.195 . S
C23 O22 1.195 . S
C23 O24 1.313 . S
O24 C23 1.313 . S
O25 Mg13 2.141 . S
O25 C16 1.289 . S
Mg26 O33 2.141 . S
Mg26 O34 2.048 . S
Mg26 O35 2.048 . S
Mg26 O38 2.141 . S
C27 O28 1.313 . S
C27 O34 1.195 . S
O28 C27 1.313 . S
C29 O30 1.245 . S
C29 O38 1.289 . S
O30 C29 1.245 . S
C31 O32 1.245 . S
C31 O33 1.289 . S
O32 C31 1.245 . S
O33 Mg26 2.141 . S
O33 C31 1.289 . S
O34 Mg26 2.048 . S
O34 C27 1.195 . S
O35 Mg26 2.048 . S
O35 C36 1.195 . S
C36 O35 1.195 . S
C36 O37 1.313 . S
O37 C36 1.313 . S
O38 Mg26 2.141 . S
O38 C29 1.289 . S
Mg39 O46 2.141 . S
Mg39 O47 2.048 . S
Mg39 O48 2.048 . S
Mg39 O51 2.141 . S
C40 O41 1.313 . S
C40 O47 1.195 . S
O41 C40 1.313 . S
C42 O43 1.245 . S
C42 O51 1.289 . S
O43 C42 1.245 . S
C44 O45 1.245 . S
C44 O46 1.289 . S
O45 C44 1.245 . S
O46 Mg39 2.141 . S
O46 C44 1.289 . S
O47 Mg39 2.048 . S
O47 C40 1.195 . S
O48 Mg39 2.048 . S
O48 C49 1.195 . S
C49 O48 1.195 . S
C49 O50 1.313 . S
O50 C49 1.313 . S
O51 Mg39 2.141 . S
O51 C42 1.289 . S
Mg52 O59 2.141 . S
Mg52 O60 2.048 . S
Mg52 O61 2.048 . S
Mg52 O64 2.141 . S
C53 O54 1.313 . S
C53 O60 1.195 . S
O54 C53 1.313 . S
C55 O56 1.245 . S
C55 O64 1.289 . S
O56 C55 1.245 . S
C57 O58 1.245 . S
C57 O59 1.289 . S
O58 C57 1.245 . S
O59 Mg52 2.141 . S
O59 C57 1.289 . S
O60 Mg52 2.048 . S
O60 C53 1.195 . S
O61 Mg52 2.048 . S
O61 C62 1.195 . S
C62 O61 1.195 . S
C62 O63 1.313 . S
O63 C62 1.313 . S
O64 Mg52 2.141 . S
O64 C55 1.289 . S
Mg65 O72 2.141 . S
Mg65 O73 2.048 . S
Mg65 O74 2.048 . S
Mg65 O77 2.141 . S
C66 O67 1.313 . S
C66 O73 1.195 . S
O67 C66 1.313 . S
C68 O69 1.245 . S
C68 O77 1.289 . S
O69 C68 1.245 . S
C70 O71 1.245 . S
C70 O72 1.289 . S
O71 C70 1.245 . S
O72 Mg65 2.141 . S
O72 C70 1.289 . S
O73 Mg65 2.048 . S
O73 C66 1.195 . S
O74 Mg65 2.048 . S
O74 C75 1.195 . S
C75 O74 1.195 . S
C75 O76 1.313 . S
O76 C75 1.313 . S
O77 Mg65 2.141 . S
O77 C68 1.289 . S
Mg78 O85 2.141 . S
Mg78 O86 2.048 . S
Mg78 O87 2.048 . S
Mg78 O90 2.141 . S
C79 O80 1.313 . S
C79 O86 1.195 . S
O80 C79 1.313 . S
C81 O82 1.245 . S
C81 O90 1.289 . S
O82 C81 1.245 . S
C83 O84 1.245 . S
C83 O85 1.289 . S
O84 C83 1.245 . S
O85 Mg78 2.141 . S
O85 C83 1.289 . S
O86 Mg78 2.048 . S
O86 C79 1.195 . S
O87 Mg78 2.048 . S
O87 C88 1.195 . S
C88 O87 1.195 . S
C88 O89 1.313 . S
O89 C88 1.313 . S
O90 Mg78 2.141 . S
O90 C81 1.289 . S
Mg91 O98 2.149 . S
Mg91 O99 2.053 . S
Mg91 O100 2.040 1_465 S
Mg91 O103 2.136 1_465 S
C92 O93 1.313 . S
C92 O99 1.195 . S
O93 C92 1.313 . S
C94 O95 1.245 1_655 S
C94 O103 1.289 . S
O95 C94 1.245 1_455 S
C96 O97 1.245 . S
C96 O98 1.289 . S
O97 C96 1.245 . S
O98 Mg91 2.149 . S
O98 C96 1.289 . S
O99 Mg91 2.053 . S
O99 C92 1.195 . S
O100 Mg91 2.040 1_645 S
O100 C101 1.195 . S
C101 O100 1.195 . S
C101 O102 1.313 1_655 S
O102 C101 1.313 1_455 S
O103 Mg91 2.136 1_645 S
O103 C94 1.289 . S
Mn104 O109 2.095 1_554 S
Mn104 O119 2.162 . S
Mn104 O120 2.297 . S
Mn104 O128 2.385 . S
Mn104 O129 2.209 . S
Mn104 O130 2.103 . S
Mn105 O110 2.121 1_554 S
Mn105 N112 2.257 . S
Mn105 N121 2.282 . S
Mn105 O129 2.215 . S
Mn105 O131 2.117 1_554 S
C106 O128 1.234 . S
C106 O129 1.283 . S
C107 O119 1.281 . S
C107 O120 1.236 . S
C108 O130 1.231 1_556 S
C108 O131 1.264 . S
O109 Mn104 2.095 1_556 S
O109 C118 1.250 . S
O110 Mn105 2.121 1_556 S
O110 C118 1.258 . S
C111 N112 1.326 . S
C111 C115 1.460 . S
C111 H117 0.929 1_554 S
N112 Mn105 2.257 . S
N112 C111 1.326 . S
N112 C116 1.362 . S
C113 C114 1.258 . S
C113 C116 1.431 . S
C113 C133 1.449 . S
C114 C113 1.258 . S
C114 C115 1.477 . S
C114 H134 0.931 . S
C115 C111 1.460 . S
C115 C114 1.477 . S
C115 H135 0.930 . S
C116 N112 1.362 . S
C116 C113 1.431 . S
C116 C126 1.476 . S
H117 C111 0.929 1_556 S
C118 O109 1.250 . S
C118 O110 1.258 . S
O119 Mn104 2.162 . S
O119 C107 1.281 . S
O120 Mn104 2.297 . S
O120 C107 1.236 . S
N121 Mn105 2.282 . S
N121 C122 1.328 . S
N121 C126 1.318 . S
C122 N121 1.328 . S
C122 C123 1.457 . S
C122 H127 0.929 . S
C123 C122 1.457 . S
C123 C124 1.291 . S
C123 H136 0.931 . S
C124 C123 1.291 . S
C124 C125 1.373 . S
C124 H137 0.929 . S
C125 C124 1.373 . S
C125 C126 1.396 . S
C125 C132 1.403 . S
C126 C116 1.476 . S
C126 N121 1.318 . S
C126 C125 1.396 . S
H127 C122 0.929 . S
O128 Mn104 2.385 . S
O128 C106 1.234 . S
O129 Mn104 2.209 . S
O129 Mn105 2.215 . S
O129 C106 1.283 . S
O130 Mn104 2.103 . S
O130 C108 1.231 1_554 S
O131 Mn105 2.117 1_556 S
O131 C108 1.264 . S
C132 C125 1.403 . S
C132 C133 1.399 . S
C132 H138 0.929 . S
C133 C113 1.449 . S
C133 C132 1.399 . S
C133 H139 0.930 . S
H134 C114 0.931 . S
H135 C115 0.930 . S
H136 C123 0.931 . S
H137 C124 0.929 . S
H138 C132 0.929 . S
H139 C133 0.930 . S
Mn140 O145 2.095 . S
Mn140 O155 2.162 . S
Mn140 O156 2.297 . S
Mn140 O164 2.385 . S
Mn140 O165 2.209 . S
Mn140 O166 2.094 . S
Mn141 O146 2.121 . S
Mn141 N148 2.257 1_565 S
Mn141 N157 2.282 . S
Mn141 O165 2.215 . S
Mn141 O167 2.117 . S
C142 O164 1.234 . S
C142 O165 1.283 . S
C143 O155 1.281 . S
C143 O156 1.236 . S
C144 O166 1.240 . S
C144 O167 1.264 . S
O145 Mn140 2.095 . S
O145 C154 1.250 . S
O146 Mn141 2.121 . S
O146 C154 1.258 . S
C147 N148 1.326 . S
C147 C151 1.460 . S
C147 H153 0.929 . S
N148 Mn141 2.257 1_545 S
N148 C147 1.326 . S
N148 C152 1.362 . S
C149 C150 1.258 . S
C149 C152 1.431 . S
C149 C169 1.449 . S
C150 C149 1.258 . S
C150 C151 1.477 . S
C150 H170 0.931 . S
C151 C147 1.460 . S
C151 C150 1.477 . S
C151 H171 0.930 . S
C152 N148 1.362 . S
C152 C149 1.431 . S
C152 C162 1.476 1_545 S
H153 C147 0.929 . S
C154 O145 1.250 . S
C154 O146 1.258 . S
O155 Mn140 2.162 . S
O155 C143 1.281 . S
O156 Mn140 2.297 . S
O156 C143 1.236 . S
N157 Mn141 2.282 . S
N157 C158 1.328 . S
N157 C162 1.318 . S
C158 N157 1.328 . S
C158 C159 1.457 . S
C158 H163 0.929 . S
C159 C158 1.457 . S
C159 C160 1.291 . S
C159 H172 0.931 . S
C160 C159 1.291 . S
C160 C161 1.373 . S
C160 H173 0.929 . S
C161 C160 1.373 . S
C161 C162 1.396 . S
C161 C168 1.403 1_565 S
C162 C152 1.476 1_565 S
C162 N157 1.318 . S
C162 C161 1.396 . S
H163 C158 0.929 . S
O164 Mn140 2.385 . S
O164 C142 1.234 . S
O165 Mn140 2.209 . S
O165 Mn141 2.215 . S
O165 C142 1.283 . S
O166 Mn140 2.094 . S
O166 C144 1.240 . S
O167 Mn141 2.117 . S
O167 C144 1.264 . S
C168 C161 1.403 1_545 S
C168 C169 1.399 . S
C168 H174 0.929 . S
C169 C149 1.449 . S
C169 C168 1.399 . S
C169 H175 0.930 . S
H170 C150 0.931 . S
H171 C151 0.930 . S
H172 C159 0.931 . S
H173 C160 0.929 . S
H174 C168 0.929 . S
H175 C169 0.930 . S
Mn176 O181 2.095 . S
Mn176 O191 2.162 . S
Mn176 O192 2.297 . S
Mn176 O200 2.385 . S
Mn176 O201 2.209 . S
Mn176 O202 2.094 . S
Mn177 O182 2.121 . S
Mn177 N184 2.257 . S
Mn177 N193 2.282 . S
Mn177 O201 2.215 . S
Mn177 O203 2.117 . S
C178 O200 1.234 . S
C178 O201 1.283 . S
C179 O191 1.281 . S
C179 O192 1.236 . S
C180 O202 1.240 . S
C180 O203 1.264 . S
O181 Mn176 2.095 . S
O181 C190 1.250 . S
O182 Mn177 2.121 . S
O182 C190 1.258 . S
C183 N184 1.326 . S
C183 C187 1.460 . S
C183 H189 0.929 . S
N184 Mn177 2.257 . S
N184 C183 1.326 . S
N184 C188 1.362 . S
C185 C186 1.258 . S
C185 C188 1.431 . S
C185 C205 1.449 . S
C186 C185 1.258 . S
C186 C187 1.477 . S
C186 H206 0.931 . S
C187 C183 1.460 . S
C187 C186 1.477 . S
C187 H207 0.930 . S
C188 N184 1.362 . S
C188 C185 1.431 . S
C188 C198 1.476 . S
H189 C183 0.929 . S
C190 O181 1.250 . S
C190 O182 1.258 . S
O191 Mn176 2.162 . S
O191 C179 1.281 . S
O192 Mn176 2.297 . S
O192 C179 1.236 . S
N193 Mn177 2.282 . S
N193 C194 1.328 . S
N193 C198 1.318 . S
C194 N193 1.328 . S
C194 C195 1.457 . S
C194 H199 0.929 . S
C195 C194 1.457 . S
C195 C196 1.291 . S
C195 H208 0.931 . S
C196 C195 1.291 . S
C196 C197 1.373 . S
C196 H209 0.929 . S
C197 C196 1.373 . S
C197 C198 1.396 . S
C197 C204 1.403 . S
C198 C188 1.476 . S
C198 N193 1.318 . S
C198 C197 1.396 . S
H199 C194 0.929 . S
O200 Mn176 2.385 . S
O200 C178 1.234 . S
O201 Mn176 2.209 . S
O201 Mn177 2.215 . S
O201 C178 1.283 . S
O202 Mn176 2.094 . S
O202 C180 1.240 . S
O203 Mn177 2.117 . S
O203 C180 1.264 . S
C204 C197 1.403 . S
C204 C205 1.399 . S
C204 H210 0.929 . S
C205 C185 1.449 . S
C205 C204 1.399 . S
C205 H211 0.930 1_455 S
H206 C186 0.931 . S
H207 C187 0.930 . S
H208 C195 0.931 . S
H209 C196 0.929 . S
H210 C204 0.929 . S
H211 C205 0.930 1_655 S
Mn212 O217 2.095 . S
Mn212 O227 2.162 . S
Mn212 O228 2.297 . S
Mn212 O236 2.385 . S
Mn212 O237 2.209 . S
Mn212 O238 2.094 . S
Mn213 O218 2.121 . S
Mn213 N220 2.257 . S
Mn213 N229 2.282 . S
Mn213 O237 2.215 . S
Mn213 O239 2.117 . S
C214 O236 1.234 . S
C214 O237 1.283 . S
C215 O227 1.281 . S
C215 O228 1.236 . S
C216 O238 1.240 . S
C216 O239 1.264 . S
O217 Mn212 2.095 . S
O217 C226 1.250 . S
O218 Mn213 2.121 . S
O218 C226 1.258 . S
C219 N220 1.326 . S
C219 C223 1.460 . S
C219 H225 0.929 . S
N220 Mn213 2.257 . S
N220 C219 1.326 . S
N220 C224 1.362 . S
C221 C222 1.258 . S
C221 C224 1.431 . S
C221 C241 1.449 . S
C222 C221 1.258 . S
C222 C223 1.477 . S
C222 H242 0.931 . S
C223 C219 1.460 . S
C223 C222 1.477 . S
C223 H243 0.930 . S
C224 N220 1.362 . S
C224 C221 1.431 . S
C224 C234 1.476 . S
H225 C219 0.929 . S
C226 O217 1.250 . S
C226 O218 1.258 . S
O227 Mn212 2.162 . S
O227 C215 1.281 . S
O228 Mn212 2.297 . S
O228 C215 1.236 . S
N229 Mn213 2.282 . S
N229 C230 1.328 . S
N229 C234 1.318 . S
C230 N229 1.328 . S
C230 C231 1.457 . S
C230 H235 0.929 . S
C231 C230 1.457 . S
C231 C232 1.291 . S
C231 H244 0.931 . S
C232 C231 1.291 . S
C232 C233 1.373 . S
C232 H245 0.929 . S
C233 C232 1.373 . S
C233 C234 1.396 . S
C233 C240 1.403 . S
C234 C224 1.476 . S
C234 N229 1.318 . S
C234 C233 1.396 . S
H235 C230 0.929 . S
O236 Mn212 2.385 . S
O236 C214 1.234 . S
O237 Mn212 2.209 . S
O237 Mn213 2.215 . S
O237 C214 1.283 . S
O238 Mn212 2.094 . S
O238 C216 1.240 . S
O239 Mn213 2.117 . S
O239 C216 1.264 . S
C240 C233 1.403 . S
C240 C241 1.399 . S
C240 H246 0.929 . S
C241 C221 1.449 . S
C241 C240 1.399 . S
C241 H247 0.930 . S
H242 C222 0.931 . S
H243 C223 0.930 . S
H244 C231 0.931 . S
H245 C232 0.929 . S
H246 C240 0.929 . S
H247 C241 0.930 . S
Mn248 O253 2.095 . S
Mn248 O263 2.162 . S
Mn248 O264 2.297 . S
Mn248 O272 2.385 . S
Mn248 O273 2.209 . S
Mn248 O274 2.094 . S
Mn249 O254 2.121 . S
Mn249 N256 2.257 . S
Mn249 N265 2.282 . S
Mn249 O273 2.215 . S
Mn249 O275 2.117 . S
C250 O272 1.234 . S
C250 O273 1.283 . S
C251 O263 1.281 . S
C251 O264 1.236 . S
C252 O274 1.240 . S
C252 O275 1.264 . S
O253 Mn248 2.095 . S
O253 C262 1.250 . S
O254 Mn249 2.121 . S
O254 C262 1.258 . S
C255 N256 1.326 . S
C255 C259 1.460 . S
C255 H261 0.929 . S
N256 Mn249 2.257 . S
N256 C255 1.326 . S
N256 C260 1.362 . S
C257 C258 1.258 . S
C257 C260 1.431 . S
C257 C277 1.449 . S
C258 C257 1.258 . S
C258 C259 1.477 . S
C258 H278 0.949 . S
C259 C255 1.460 . S
C259 C258 1.477 . S
C259 H279 0.930 . S
C260 N256 1.362 . S
C260 C257 1.431 . S
C260 C270 1.476 . S
H261 C255 0.929 . S
C262 O253 1.250 . S
C262 O254 1.258 . S
O263 Mn248 2.162 . S
O263 C251 1.281 . S
O264 Mn248 2.297 . S
O264 C251 1.236 . S
N265 Mn249 2.282 . S
N265 C266 1.328 . S
N265 C270 1.318 . S
C266 N265 1.328 . S
C266 C267 1.457 . S
C266 H271 0.929 . S
C267 C266 1.457 . S
C267 C268 1.291 . S
C267 H280 0.931 . S
C268 C267 1.291 . S
C268 C269 1.373 . S
C268 H281 0.929 . S
C269 C268 1.373 . S
C269 C270 1.396 . S
C269 C276 1.403 . S
C270 C260 1.476 . S
C270 N265 1.318 . S
C270 C269 1.396 . S
H271 C266 0.929 . S
O272 Mn248 2.385 . S
O272 C250 1.234 . S
O273 Mn248 2.209 . S
O273 Mn249 2.215 . S
O273 C250 1.283 . S
O274 Mn248 2.094 . S
O274 C252 1.240 . S
O275 Mn249 2.117 . S
O275 C252 1.264 . S
C276 C269 1.403 . S
C276 C277 1.399 . S
C276 H282 0.929 . S
C277 C257 1.449 . S
C277 C276 1.399 . S
C277 H283 0.930 1_545 S
H278 C258 0.949 . S
H279 C259 0.930 . S
H280 C267 0.931 . S
H281 C268 0.929 . S
H282 C276 0.929 . S
H283 C277 0.930 1_565 S
Mn284 O289 2.095 . S
Mn284 O299 2.162 . S
Mn284 O300 2.297 . S
Mn284 O308 2.385 . S
Mn284 O309 2.209 . S
Mn284 O310 2.094 . S
Mn285 O290 2.121 . S
Mn285 N292 2.257 . S
Mn285 N301 2.282 . S
Mn285 O309 2.215 1_455 S
Mn285 O311 2.117 1_455 S
C286 O308 1.234 . S
C286 O309 1.283 . S
C287 O299 1.281 . S
C287 O300 1.236 . S
C288 O310 1.240 . S
C288 O311 1.264 . S
O289 Mn284 2.095 . S
O289 C298 1.250 . S
O290 Mn285 2.121 . S
O290 C298 1.258 1_455 S
C291 N292 1.326 . S
C291 C295 1.460 . S
C291 H297 0.929 . S
N292 Mn285 2.257 . S
N292 C291 1.326 . S
N292 C296 1.362 . S
C293 C294 1.258 . S
C293 C296 1.431 . S
C293 C313 1.449 . S
C294 C293 1.258 . S
C294 C295 1.477 . S
C294 H314 0.931 . S
C295 C291 1.460 . S
C295 C294 1.477 . S
C295 H315 0.930 . S
C296 N292 1.362 . S
C296 C293 1.431 . S
C296 C306 1.476 . S
H297 C291 0.929 . S
C298 O289 1.250 . S
C298 O290 1.258 1_655 S
O299 Mn284 2.162 . S
O299 C287 1.281 . S
O300 Mn284 2.297 . S
O300 C287 1.236 . S
N301 Mn285 2.282 . S
N301 C302 1.328 . S
N301 C306 1.318 . S
C302 N301 1.328 . S
C302 C303 1.457 . S
C302 H307 0.929 . S
C303 C302 1.457 . S
C303 C304 1.291 . S
C303 H316 0.931 . S
C304 C303 1.291 . S
C304 C305 1.373 . S
C304 H317 0.929 . S
C305 C304 1.373 . S
C305 C306 1.396 . S
C305 C312 1.403 . S
C306 C296 1.476 . S
C306 N301 1.318 . S
C306 C305 1.396 . S
H307 C302 0.929 . S
O308 Mn284 2.385 . S
O308 C286 1.234 . S
O309 Mn284 2.209 . S
O309 Mn285 2.215 1_655 S
O309 C286 1.283 . S
O310 Mn284 2.094 . S
O310 C288 1.240 . S
O311 Mn285 2.117 1_655 S
O311 C288 1.264 . S
C312 C305 1.403 . S
C312 C313 1.399 . S
C312 H318 0.929 . S
C313 C293 1.449 . S
C313 C312 1.399 . S
C313 H319 0.930 . S
H314 C294 0.931 . S
H315 C295 0.930 . S
H316 C303 0.931 . S
H317 C304 0.929 . S
H318 C312 0.929 . S
H319 C313 0.930 . S
Mn320 O325 2.095 . S
Mn320 O335 2.162 . S
Mn320 O336 2.297 . S
Mn320 O344 2.385 1_554 S
Mn320 O345 2.209 . S
Mn320 O346 2.094 . S
Mn321 O326 2.121 . S
Mn321 N328 2.257 . S
Mn321 N337 2.282 . S
Mn321 O345 2.215 . S
Mn321 O347 2.117 . S
C322 O344 1.234 . S
C322 O345 1.283 1_556 S
C323 O335 1.281 . S
C323 O336 1.236 . S
C324 O346 1.240 . S
C324 O347 1.264 . S
O325 Mn320 2.095 . S
O325 C334 1.250 . S
O326 Mn321 2.121 . S
O326 C334 1.258 . S
C327 N328 1.326 . S
C327 C331 1.460 . S
C327 H333 0.929 . S
N328 Mn321 2.257 . S
N328 C327 1.326 . S
N328 C332 1.362 . S
C329 C330 1.232 1_556 S
C329 C332 1.412 1_556 S
C329 C349 1.498 . S
C330 C329 1.232 1_554 S
C330 C331 1.477 . S
C330 H350 0.931 . S
C331 C327 1.460 . S
C331 C330 1.477 . S
C331 H351 0.930 . S
C332 N328 1.362 . S
C332 C329 1.412 1_554 S
C332 C342 1.476 1_554 S
H333 C327 0.929 . S
C334 O325 1.250 . S
C334 O326 1.258 . S
O335 Mn320 2.162 . S
O335 C323 1.281 . S
O336 Mn320 2.297 . S
O336 C323 1.236 . S
N337 Mn321 2.282 . S
N337 C338 1.328 1_554 S
N337 C342 1.318 1_554 S
C338 N337 1.328 1_556 S
C338 C339 1.457 . S
C338 H343 0.929 1_556 S
C339 C338 1.457 . S
C339 C340 1.291 . S
C339 H352 0.931 . S
C340 C339 1.291 . S
C340 C341 1.373 . S
C340 H353 0.929 . S
C341 C340 1.373 . S
C341 C342 1.396 . S
C341 C348 1.403 . S
C342 C332 1.476 1_556 S
C342 N337 1.318 1_556 S
C342 C341 1.396 . S
H343 C338 0.929 1_554 S
O344 Mn320 2.385 1_556 S
O344 C322 1.234 . S
O345 Mn320 2.209 . S
O345 Mn321 2.215 . S
O345 C322 1.283 1_554 S
O346 Mn320 2.094 . S
O346 C324 1.240 . S
O347 Mn321 2.117 . S
O347 C324 1.264 . S
C348 C341 1.403 . S
C348 C349 1.399 . S
C348 H354 0.929 . S
C349 C329 1.498 . S
C349 C348 1.399 . S
C349 H355 0.930 . S
H350 C330 0.931 . S
H351 C331 0.930 . S
H352 C339 0.931 . S
H353 C340 0.929 . S
H354 C348 0.929 . S
H355 C349 0.930 . S
Mn356 O361 2.095 . S
Mn356 O371 2.162 . S
Mn356 O372 2.297 . S
Mn356 O380 2.385 . S
Mn356 O381 2.209 . S
Mn356 O382 2.094 . S
Mn357 O362 2.121 . S
Mn357 N364 2.257 . S
Mn357 N373 2.282 . S
Mn357 O381 2.215 . S
Mn357 O383 2.117 . S
C358 O380 1.234 . S
C358 O381 1.283 . S
C359 O371 1.281 . S
C359 O372 1.236 . S
C360 O382 1.240 . S
C360 O383 1.264 . S
O361 Mn356 2.095 . S
O361 C370 1.250 . S
O362 Mn357 2.121 . S
O362 C370 1.258 . S
C363 N364 1.326 . S
C363 C367 1.460 . S
C363 H369 0.929 . S
N364 Mn357 2.257 . S
N364 C363 1.326 . S
N364 C368 1.362 . S
C365 C366 1.258 . S
C365 C368 1.431 . S
C365 C385 1.449 . S
C366 C365 1.258 . S
C366 C367 1.477 . S
C366 H386 0.931 . S
C367 C363 1.460 . S
C367 C366 1.477 . S
C367 H387 0.930 . S
C368 N364 1.362 . S
C368 C365 1.431 . S
C368 C378 1.476 . S
H369 C363 0.929 . S
C370 O361 1.250 . S
C370 O362 1.258 . S
O371 Mn356 2.162 . S
O371 C359 1.281 . S
O372 Mn356 2.297 . S
O372 C359 1.236 . S
N373 Mn357 2.282 . S
N373 C374 1.328 . S
N373 C378 1.318 . S
C374 N373 1.328 . S
C374 C375 1.457 . S
C374 H379 0.929 . S
C375 C374 1.457 . S
C375 C376 1.291 . S
C375 H388 0.931 . S
C376 C375 1.291 . S
C376 C377 1.373 . S
C376 H389 0.929 . S
C377 C376 1.373 . S
C377 C378 1.396 . S
C377 C384 1.403 . S
C378 C368 1.476 . S
C378 N373 1.318 . S
C378 C377 1.396 . S
H379 C374 0.929 . S
O380 Mn356 2.385 . S
O380 C358 1.234 . S
O381 Mn356 2.209 . S
O381 Mn357 2.215 . S
O381 C358 1.283 . S
O382 Mn356 2.094 . S
O382 C360 1.240 . S
O383 Mn357 2.117 . S
O383 C360 1.264 . S
C384 C377 1.403 . S
C384 C385 1.399 . S
C384 H390 0.929 . S
C385 C365 1.449 . S
C385 C384 1.399 . S
C385 H391 0.930 . S
H386 C366 0.931 . S
H387 C367 0.930 . S
H388 C375 0.931 . S
H389 C376 0.929 . S
H390 C384 0.929 . S
H391 C385 0.930 . S
H392 C400 0.950 . S
H393 C405 0.950 . S
H394 C402 0.950 . S
H395 C404 0.950 . S
H396 C406 0.950 . S
H397 C408 0.950 . S
H398 C410 0.950 . S
H399 C411 0.950 . S
C400 H392 0.950 . S
C400 C401 1.386 . S
C400 C402 1.391 . S
C401 C400 1.386 . S
C401 C405 1.393 . S
C402 H394 0.950 . S
C402 C400 1.391 . S
C402 C403 1.400 . S
C403 C402 1.400 . S
C403 C404 1.398 . S
C403 C409 1.491 . S
C404 H395 0.950 . S
C404 C403 1.398 . S
C404 C405 1.391 . S
C405 H393 0.950 . S
C405 C401 1.393 . S
C405 C404 1.391 . S
C406 H396 0.950 . S
C406 C407 1.386 . S
C406 C408 1.391 . S
C407 C406 1.386 . S
C407 C411 1.393 . S
C408 H397 0.950 . S
C408 C406 1.391 . S
C408 C409 1.400 . S
C409 C403 1.491 . S
C409 C408 1.400 . S
C409 C410 1.398 . S
C410 H398 0.950 . S
C410 C409 1.398 . S
C410 C411 1.391 . S
C411 H399 0.950 . S
C411 C407 1.393 . S
C411 C410 1.391 . S
H412 C420 0.950 . S
H413 C425 0.950 . S
H414 C422 0.950 . S
H415 C424 0.950 . S
H416 C426 0.950 . S
H417 C428 0.950 . S
H418 C430 0.950 . S
H419 C431 0.950 . S
C420 H412 0.950 . S
C420 C421 1.386 . S
C420 C422 1.391 . S
C421 C420 1.386 . S
C421 C425 1.393 . S
C422 H414 0.950 . S
C422 C420 1.391 . S
C422 C423 1.400 . S
C423 C422 1.400 . S
C423 C424 1.398 . S
C423 C429 1.491 . S
C424 H415 0.950 . S
C424 C423 1.398 . S
C424 C425 1.391 . S
C425 H413 0.950 . S
C425 C421 1.393 . S
C425 C424 1.391 . S
C426 H416 0.950 . S
C426 C427 1.386 . S
C426 C428 1.391 . S
C427 C426 1.386 . S
C427 C431 1.393 . S
C428 H417 0.950 . S
C428 C426 1.391 . S
C428 C429 1.400 . S
C429 C423 1.491 . S
C429 C428 1.400 . S
C429 C430 1.398 . S
C430 H418 0.950 . S
C430 C429 1.398 . S
C430 C431 1.391 . S
C431 H419 0.950 . S
C431 C427 1.393 . S
C431 C430 1.391 . S
H432 C440 0.950 . S
H433 C445 0.950 . S
H434 C442 0.950 . S
H435 C444 0.950 . S
H436 C446 0.950 . S
H437 C448 0.950 . S
H438 C450 0.950 . S
H439 C451 0.950 . S
C440 H432 0.950 . S
C440 C441 1.386 . S
C440 C442 1.391 . S
C441 C440 1.386 . S
C441 C445 1.393 . S
C442 H434 0.950 . S
C442 C440 1.391 . S
C442 C443 1.400 . S
C443 C442 1.400 . S
C443 C444 1.398 . S
C443 C449 1.491 . S
C444 H435 0.950 . S
C444 C443 1.398 . S
C444 C445 1.391 . S
C445 H433 0.950 . S
C445 C441 1.393 . S
C445 C444 1.391 . S
C446 H436 0.950 . S
C446 C447 1.386 . S
C446 C448 1.391 . S
C447 C446 1.386 . S
C447 C451 1.393 . S
C448 H437 0.950 . S
C448 C446 1.391 . S
C448 C449 1.400 . S
C449 C443 1.491 . S
C449 C448 1.400 . S
C449 C450 1.398 . S
C450 H438 0.950 . S
C450 C449 1.398 . S
C450 C451 1.391 . S
C451 H439 0.950 . S
C451 C447 1.393 . S
C451 C450 1.391 . S
H452 C460 0.950 . S
H453 C465 0.950 . S
H454 C462 0.950 . S
H455 C464 0.950 . S
H456 C466 0.950 . S
H457 C468 0.950 1_545 S
H458 C470 0.950 . S
H459 C471 0.950 . S
C460 H452 0.950 . S
C460 C461 1.386 . S
C460 C462 1.391 . S
C461 C460 1.386 . S
C461 C465 1.393 . S
C462 H454 0.950 . S
C462 C460 1.391 . S
C462 C463 1.400 . S
C463 C462 1.400 . S
C463 C464 1.398 . S
C463 C469 1.491 1_545 S
C464 H455 0.950 . S
C464 C463 1.398 . S
C464 C465 1.391 . S
C465 H453 0.950 . S
C465 C461 1.393 . S
C465 C464 1.391 . S
C466 H456 0.950 . S
C466 C467 1.386 . S
C466 C468 1.391 . S
C467 C466 1.386 . S
C467 C471 1.393 . S
C468 H457 0.950 1_565 S
C468 C466 1.391 . S
C468 C469 1.400 . S
C469 C463 1.491 1_565 S
C469 C468 1.400 . S
C469 C470 1.398 . S
C470 H458 0.950 . S
C470 C469 1.398 . S
C470 C471 1.391 . S
C471 H459 0.950 . S
C471 C467 1.393 . S
C471 C470 1.391 . S
H472 C480 0.950 . S
H473 C485 0.950 . S
H474 C482 0.950 . S
H475 C484 0.950 . S
H476 C486 0.950 . S
H477 C488 0.950 . S
H478 C490 0.950 . S
H479 C491 0.950 . S
C480 H472 0.950 . S
C480 C481 1.386 . S
C480 C482 1.391 . S
C481 C480 1.386 . S
C481 C485 1.393 . S
C482 H474 0.950 . S
C482 C480 1.391 . S
C482 C483 1.400 . S
C483 C482 1.400 . S
C483 C484 1.398 . S
C483 C489 1.491 . S
C484 H475 0.950 . S
C484 C483 1.398 . S
C484 C485 1.391 . S
C485 H473 0.950 . S
C485 C481 1.393 . S
C485 C484 1.391 . S
C486 H476 0.950 . S
C486 C487 1.386 . S
C486 C488 1.391 . S
C487 C486 1.386 . S
C487 C491 1.393 . S
C488 H477 0.950 . S
C488 C486 1.391 . S
C488 C489 1.400 . S
C489 C483 1.491 . S
C489 C488 1.400 . S
C489 C490 1.398 . S
C490 H478 0.950 . S
C490 C489 1.398 . S
C490 C491 1.391 . S
C491 H479 0.950 . S
C491 C487 1.393 . S
C491 C490 1.391 . S
H492 C500 0.950 . S
H493 C505 0.950 . S
H494 C502 0.950 . S
H495 C504 0.950 . S
H496 C506 0.950 . S
H497 C508 0.950 . S
H498 C510 0.950 . S
H499 C511 0.950 . S
C500 H492 0.950 . S
C500 C501 1.386 . S
C500 C502 1.391 . S
C501 C500 1.386 . S
C501 C505 1.393 . S
C502 H494 0.950 . S
C502 C500 1.391 . S
C502 C503 1.400 . S
C503 C502 1.400 . S
C503 C504 1.398 . S
C503 C509 1.491 . S
C504 H495 0.950 . S
C504 C503 1.398 . S
C504 C505 1.391 . S
C505 H493 0.950 . S
C505 C501 1.393 . S
C505 C504 1.391 . S
C506 H496 0.950 . S
C506 C507 1.386 . S
C506 C508 1.391 . S
C507 C506 1.386 . S
C507 C511 1.393 . S
C508 H497 0.950 . S
C508 C506 1.391 . S
C508 C509 1.400 . S
C509 C503 1.491 . S
C509 C508 1.400 . S
C509 C510 1.398 . S
C510 H498 0.950 . S
C510 C509 1.398 . S
C510 C511 1.391 . S
C511 H499 0.950 . S
C511 C507 1.393 . S
C511 C510 1.391 . S
H512 C520 0.950 . S
H513 C525 0.950 . S
H514 C522 0.950 1_565 S
H515 C524 0.950 . S
H516 C526 0.950 . S
H517 C528 0.950 1_545 S
H518 C530 0.950 . S
H519 C531 0.950 . S
C520 H512 0.950 . S
C520 C521 1.386 . S
C520 C522 1.391 . S
C521 C520 1.386 . S
C521 C525 1.393 . S
C522 H514 0.950 1_545 S
C522 C520 1.391 . S
C522 C523 1.400 . S
C523 C522 1.400 . S
C523 C524 1.398 . S
C523 C529 1.491 1_545 S
C524 H515 0.950 . S
C524 C523 1.398 . S
C524 C525 1.391 . S
C525 H513 0.950 . S
C525 C521 1.393 . S
C525 C524 1.391 . S
C526 H516 0.950 . S
C526 C527 1.386 . S
C526 C528 1.391 . S
C527 C526 1.386 . S
C527 C531 1.393 . S
C528 H517 0.950 1_565 S
C528 C526 1.391 . S
C528 C529 1.400 . S
C529 C523 1.491 1_565 S
C529 C528 1.400 . S
C529 C530 1.398 . S
C530 H518 0.950 . S
C530 C529 1.398 . S
C530 C531 1.391 . S
C531 H519 0.950 . S
C531 C527 1.393 . S
C531 C530 1.391 . S
H532 C540 0.950 . S
H533 C545 0.950 . S
H534 C542 0.950 . S
H535 C544 0.950 . S
H536 C546 0.950 . S
H537 C548 0.950 . S
H538 C550 0.950 . S
H539 C551 0.950 . S
C540 H532 0.950 . S
C540 C541 1.386 . S
C540 C542 1.391 . S
C541 C540 1.386 . S
C541 C545 1.393 . S
C542 H534 0.950 . S
C542 C540 1.391 . S
C542 C543 1.400 . S
C543 C542 1.400 . S
C543 C544 1.398 . S
C543 C549 1.491 . S
C544 H535 0.950 . S
C544 C543 1.398 . S
C544 C545 1.391 . S
C545 H533 0.950 . S
C545 C541 1.393 . S
C545 C544 1.391 . S
C546 H536 0.950 . S
C546 C547 1.386 . S
C546 C548 1.391 . S
C547 C546 1.386 . S
C547 C551 1.393 . S
C548 H537 0.950 . S
C548 C546 1.391 . S
C548 C549 1.400 . S
C549 C543 1.491 . S
C549 C548 1.400 . S
C549 C550 1.398 . S
C550 H538 0.950 . S
C550 C549 1.398 . S
C550 C551 1.391 . S
C551 H539 0.950 . S
C551 C547 1.393 . S
C551 C550 1.391 . S
H552 C560 0.950 . S
H553 C565 0.950 . S
H554 C562 0.950 . S
H555 C564 0.950 . S
H556 C566 0.950 . S
H557 C568 0.950 . S
H558 C570 0.950 . S
H559 C571 0.950 . S
C560 H552 0.950 . S
C560 C561 1.386 . S
C560 C562 1.391 . S
C561 C560 1.386 . S
C561 C565 1.393 . S
C562 H554 0.950 . S
C562 C560 1.391 . S
C562 C563 1.400 . S
C563 C562 1.400 . S
C563 C564 1.398 . S
C563 C569 1.491 . S
C564 H555 0.950 . S
C564 C563 1.398 . S
C564 C565 1.391 . S
C565 H553 0.950 . S
C565 C561 1.393 . S
C565 C564 1.391 . S
C566 H556 0.950 . S
C566 C567 1.386 . S
C566 C568 1.391 . S
C567 C566 1.386 . S
C567 C571 1.393 . S
C568 H557 0.950 . S
C568 C566 1.391 . S
C568 C569 1.400 . S
C569 C563 1.491 . S
C569 C568 1.400 . S
C569 C570 1.398 . S
C570 H558 0.950 . S
C570 C569 1.398 . S
C570 C571 1.391 . S
C571 H559 0.950 . S
C571 C567 1.393 . S
C571 C570 1.391 . S
H572 C580 0.950 . S
H573 C585 0.950 . S
H574 C582 0.950 . S
H575 C584 0.950 . S
H576 C586 0.950 . S
H577 C588 0.950 . S
H578 C590 0.950 . S
H579 C591 0.950 . S
C580 H572 0.950 . S
C580 C581 1.386 . S
C580 C582 1.391 . S
C581 C580 1.386 . S
C581 C585 1.393 . S
C582 H574 0.950 . S
C582 C580 1.391 . S
C582 C583 1.400 . S
C583 C582 1.400 . S
C583 C584 1.398 . S
C583 C589 1.491 . S
C584 H575 0.950 . S
C584 C583 1.398 . S
C584 C585 1.391 . S
C585 H573 0.950 . S
C585 C581 1.393 . S
C585 C584 1.391 . S
C586 H576 0.950 . S
C586 C587 1.386 . S
C586 C588 1.391 . S
C587 C586 1.386 . S
C587 C591 1.393 . S
C588 H577 0.950 . S
C588 C586 1.391 . S
C588 C589 1.400 . S
C589 C583 1.491 . S
C589 C588 1.400 . S
C589 C590 1.398 . S
C590 H578 0.950 . S
C590 C589 1.398 . S
C590 C591 1.391 . S
C591 H579 0.950 . S
C591 C587 1.393 . S
C591 C590 1.391 . S
H592 C600 0.950 . S
H593 C605 0.950 . S
H594 C602 0.950 . S
H595 C604 0.950 . S
H596 C606 0.950 . S
H597 C608 0.950 . S
H598 C610 0.950 . S
H599 C611 0.950 . S
C600 H592 0.950 . S
C600 C601 1.386 . S
C600 C602 1.391 . S
C601 C600 1.386 . S
C601 C605 1.393 . S
C602 H594 0.950 . S
C602 C600 1.391 . S
C602 C603 1.400 . S
C603 C602 1.400 . S
C603 C604 1.398 . S
C603 C609 1.491 . S
C604 H595 0.950 . S
C604 C603 1.398 . S
C604 C605 1.391 . S
C605 H593 0.950 . S
C605 C601 1.393 . S
C605 C604 1.391 . S
C606 H596 0.950 . S
C606 C607 1.386 . S
C606 C608 1.391 . S
C607 C606 1.386 . S
C607 C611 1.393 . S
C608 H597 0.950 . S
C608 C606 1.391 . S
C608 C609 1.400 . S
C609 C603 1.491 . S
C609 C608 1.400 . S
C609 C610 1.398 . S
C610 H598 0.950 . S
C610 C609 1.398 . S
C610 C611 1.391 . S
C611 H599 0.950 . S
C611 C607 1.393 . S
C611 C610 1.391 . S
H612 C620 0.950 . S
H613 C625 0.950 . S
H614 C622 0.950 . S
H615 C624 0.950 . S
H616 C626 0.950 . S
H617 C628 0.950 1_455 S
H618 C630 0.950 . S
H619 C631 0.950 . S
C620 H612 0.950 . S
C620 C621 1.386 . S
C620 C622 1.391 . S
C621 C620 1.386 . S
C621 C625 1.393 . S
C622 H614 0.950 . S
C622 C620 1.391 . S
C622 C623 1.400 . S
C623 C622 1.400 . S
C623 C624 1.398 . S
C623 C629 1.491 1_455 S
C624 H615 0.950 . S
C624 C623 1.398 . S
C624 C625 1.391 . S
C625 H613 0.950 . S
C625 C621 1.393 . S
C625 C624 1.391 . S
C626 H616 0.950 . S
C626 C627 1.386 . S
C626 C628 1.391 . S
C627 C626 1.386 . S
C627 C631 1.393 . S
C628 H617 0.950 1_655 S
C628 C626 1.391 . S
C628 C629 1.400 . S
C629 C623 1.491 1_655 S
C629 C628 1.400 . S
C629 C630 1.398 . S
C630 H618 0.950 . S
C630 C629 1.398 . S
C630 C631 1.391 . S
C631 H619 0.950 . S
C631 C627 1.393 . S
C631 C630 1.391 . S
H632 C640 0.950 . S
H633 C645 0.950 . S
H634 C642 0.950 . S
H635 C644 0.950 . S
H636 C646 0.950 . S
H637 C648 0.950 . S
H638 C650 0.950 . S
H639 C651 0.950 . S
C640 H632 0.950 . S
C640 C641 1.386 . S
C640 C642 1.391 . S
C641 C640 1.386 . S
C641 C645 1.393 . S
C642 H634 0.950 . S
C642 C640 1.391 . S
C642 C643 1.400 . S
C643 C642 1.400 . S
C643 C644 1.398 . S
C643 C649 1.491 . S
C644 H635 0.950 . S
C644 C643 1.398 . S
C644 C645 1.391 . S
C645 H633 0.950 . S
C645 C641 1.393 . S
C645 C644 1.391 . S
C646 H636 0.950 . S
C646 C647 1.386 . S
C646 C648 1.391 . S
C647 C646 1.386 . S
C647 C651 1.393 . S
C648 H637 0.950 . S
C648 C646 1.391 . S
C648 C649 1.400 . S
C649 C643 1.491 . S
C649 C648 1.400 . S
C649 C650 1.398 . S
C650 H638 0.950 . S
C650 C649 1.398 . S
C650 C651 1.391 . S
C651 H639 0.950 . S
C651 C647 1.393 . S
C651 C650 1.391 . S
H652 C660 0.950 . S
H653 C665 0.950 . S
H654 C662 0.950 . S
H655 C664 0.950 . S
H656 C666 0.950 . S
H657 C668 0.950 . S
H658 C670 0.950 . S
H659 C671 0.950 . S
C660 H652 0.950 . S
C660 C661 1.386 . S
C660 C662 1.391 . S
C661 C660 1.386 . S
C661 C665 1.393 . S
C662 H654 0.950 . S
C662 C660 1.391 . S
C662 C663 1.400 . S
C663 C662 1.400 . S
C663 C664 1.398 . S
C663 C669 1.491 . S
C664 H655 0.950 . S
C664 C663 1.398 . S
C664 C665 1.391 . S
C665 H653 0.950 . S
C665 C661 1.393 . S
C665 C664 1.391 . S
C666 H656 0.950 . S
C666 C667 1.386 . S
C666 C668 1.391 . S
C667 C666 1.386 . S
C667 C671 1.393 . S
C668 H657 0.950 . S
C668 C666 1.391 . S
C668 C669 1.400 . S
C669 C663 1.491 . S
C669 C668 1.400 . S
C669 C670 1.398 . S
C670 H658 0.950 . S
C670 C669 1.398 . S
C670 C671 1.391 . S
C671 H659 0.950 . S
C671 C667 1.393 . S
C671 C670 1.391 . S
H672 C680 0.950 . S
H673 C685 0.950 . S
H674 C682 0.950 . S
H675 C684 0.950 . S
H676 C686 0.950 . S
H677 C688 0.950 . S
H678 C690 0.950 1_455 S
H679 C691 0.950 . S
C680 H672 0.950 . S
C680 C681 1.386 . S
C680 C682 1.391 . S
C681 C680 1.386 . S
C681 C685 1.393 . S
C682 H674 0.950 . S
C682 C680 1.391 . S
C682 C683 1.400 . S
C683 C682 1.400 . S
C683 C684 1.398 . S
C683 C689 1.491 1_455 S
C684 H675 0.950 . S
C684 C683 1.398 . S
C684 C685 1.391 . S
C685 H673 0.950 . S
C685 C681 1.393 . S
C685 C684 1.391 . S
C686 H676 0.950 . S
C686 C687 1.386 1_556 S
C686 C688 1.391 . S
C687 C686 1.386 1_554 S
C687 C691 1.393 . S
C688 H677 0.950 . S
C688 C686 1.391 . S
C688 C689 1.400 . S
C689 C683 1.491 1_655 S
C689 C688 1.400 . S
C689 C690 1.398 1_556 S
C690 H678 0.950 1_655 S
C690 C689 1.398 1_554 S
C690 C691 1.391 . S
C691 H679 0.950 . S
C691 C687 1.393 . S
C691 C690 1.391 . S
H692 C700 0.950 . S
H693 C705 0.950 . S
H694 C702 0.950 . S
H695 C704 0.950 . S
H696 C706 0.950 . S
H697 C708 0.950 . S
H698 C710 0.950 . S
H699 C711 0.950 . S
C700 H692 0.950 . S
C700 C701 1.386 . S
C700 C702 1.391 . S
C701 C700 1.386 . S
C701 C705 1.393 . S
C702 H694 0.950 . S
C702 C700 1.391 . S
C702 C703 1.400 . S
C703 C702 1.400 . S
C703 C704 1.398 . S
C703 C709 1.491 . S
C704 H695 0.950 . S
C704 C703 1.398 . S
C704 C705 1.391 . S
C705 H693 0.950 . S
C705 C701 1.393 . S
C705 C704 1.391 . S
C706 H696 0.950 . S
C706 C707 1.386 . S
C706 C708 1.391 . S
C707 C706 1.386 . S
C707 C711 1.393 . S
C708 H697 0.950 . S
C708 C706 1.391 . S
C708 C709 1.400 . S
C709 C703 1.491 . S
C709 C708 1.400 . S
C709 C710 1.398 . S
C710 H698 0.950 . S
C710 C709 1.398 . S
C710 C711 1.391 . S
C711 H699 0.950 . S
C711 C707 1.393 . S
C711 C710 1.391 . S
H712 C720 0.950 . S
H713 C725 0.950 1_545 S
H714 C722 0.950 . S
H715 C724 0.950 . S
H716 C726 0.950 . S
H717 C728 0.950 . S
H718 C730 0.950 . S
H719 C731 0.950 . S
C720 H712 0.950 . S
C720 C721 1.386 . S
C720 C722 1.391 . S
C721 C720 1.386 . S
C721 C725 1.393 . S
C722 H714 0.950 . S
C722 C720 1.391 . S
C722 C723 1.400 . S
C723 C722 1.400 . S
C723 C724 1.398 . S
C723 C729 1.491 . S
C724 H715 0.950 . S
C724 C723 1.398 . S
C724 C725 1.391 . S
C725 H713 0.950 1_565 S
C725 C721 1.393 . S
C725 C724 1.391 . S
C726 H716 0.950 . S
C726 C727 1.386 . S
C726 C728 1.391 . S
C727 C726 1.386 . S
C727 C731 1.393 . S
C728 H717 0.950 . S
C728 C726 1.391 . S
C728 C729 1.400 . S
C729 C723 1.491 . S
C729 C728 1.400 . S
C729 C730 1.398 . S
C730 H718 0.950 . S
C730 C729 1.398 . S
C730 C731 1.391 . S
C731 H719 0.950 . S
C731 C727 1.393 . S
C731 C730 1.391 . S
H732 C740 0.950 . S
H733 C745 0.950 . S
H734 C742 0.950 . S
H735 C744 0.950 . S
H736 C746 0.950 . S
H737 C748 0.950 . S
H738 C750 0.950 . S
H739 C751 0.950 . S
C740 H732 0.950 . S
C740 C741 1.386 . S
C740 C742 1.391 . S
C741 C740 1.386 . S
C741 C745 1.393 . S
C742 H734 0.950 . S
C742 C740 1.391 . S
C742 C743 1.400 . S
C743 C742 1.400 . S
C743 C744 1.398 . S
C743 C749 1.491 . S
C744 H735 0.950 . S
C744 C743 1.398 . S
C744 C745 1.391 . S
C745 H733 0.950 . S
C745 C741 1.393 . S
C745 C744 1.391 . S
C746 H736 0.950 . S
C746 C747 1.386 . S
C746 C748 1.391 . S
C747 C746 1.386 . S
C747 C751 1.393 . S
C748 H737 0.950 . S
C748 C746 1.391 . S
C748 C749 1.400 . S
C749 C743 1.491 . S
C749 C748 1.400 . S
C749 C750 1.398 . S
C750 H738 0.950 . S
C750 C749 1.398 . S
C750 C751 1.391 . S
C751 H739 0.950 . S
C751 C747 1.393 . S
C751 C750 1.391 . S
H752 C760 0.950 . S
H753 C765 0.950 . S
H754 C762 0.950 . S
H755 C764 0.950 . S
H756 C766 0.950 . S
H757 C768 0.950 . S
H758 C770 0.950 . S
H759 C771 0.950 . S
C760 H752 0.950 . S
C760 C761 1.386 . S
C760 C762 1.391 . S
C761 C760 1.386 . S
C761 C765 1.393 . S
C762 H754 0.950 . S
C762 C760 1.391 . S
C762 C763 1.400 . S
C763 C762 1.400 . S
C763 C764 1.398 . S
C763 C769 1.491 . S
C764 H755 0.950 . S
C764 C763 1.398 . S
C764 C765 1.391 . S
C765 H753 0.950 . S
C765 C761 1.393 . S
C765 C764 1.391 . S
C766 H756 0.950 . S
C766 C767 1.386 . S
C766 C768 1.391 . S
C767 C766 1.386 . S
C767 C771 1.393 . S
C768 H757 0.950 . S
C768 C766 1.391 . S
C768 C769 1.400 . S
C769 C763 1.491 . S
C769 C768 1.400 . S
C769 C770 1.398 . S
C770 H758 0.950 . S
C770 C769 1.398 . S
C770 C771 1.391 . S
C771 H759 0.950 . S
C771 C767 1.393 . S
C771 C770 1.391 . S
H772 C780 0.950 . S
H773 C785 0.950 . S
H774 C782 0.950 . S
H775 C784 0.950 . S
H776 C786 0.950 . S
H777 C788 0.950 . S
H778 C790 0.950 . S
H779 C791 0.950 1_565 S
C780 H772 0.950 . S
C780 C781 1.386 . S
C780 C782 1.391 . S
C781 C780 1.386 . S
C781 C785 1.393 . S
C782 H774 0.950 . S
C782 C780 1.391 . S
C782 C783 1.400 . S
C783 C782 1.400 . S
C783 C784 1.398 . S
C783 C789 1.491 . S
C784 H775 0.950 . S
C784 C783 1.398 . S
C784 C785 1.391 . S
C785 H773 0.950 . S
C785 C781 1.393 . S
C785 C784 1.391 . S
C786 H776 0.950 . S
C786 C787 1.394 . S
C786 C788 1.391 . S
C787 C786 1.394 . S
C787 C791 1.396 . S
C788 H777 0.950 . S
C788 C786 1.391 . S
C788 C789 1.400 . S
C789 C783 1.491 . S
C789 C788 1.400 . S
C789 C790 1.398 . S
C790 H778 0.950 . S
C790 C789 1.398 . S
C790 C791 1.391 . S
C791 H779 0.950 1_545 S
C791 C787 1.396 . S
C791 C790 1.391 . S
H792 C800 0.950 . S
H793 C805 0.950 . S
H794 C802 0.950 . S
H795 C804 0.950 . S
H796 C806 0.950 . S
H797 C808 0.950 . S
H798 C810 0.950 . S
H799 C811 0.950 . S
C800 H792 0.950 . S
C800 C801 1.386 . S
C800 C802 1.391 . S
C801 C800 1.386 . S
C801 C805 1.393 . S
C802 H794 0.950 . S
C802 C800 1.391 . S
C802 C803 1.400 . S
C803 C802 1.400 . S
C803 C804 1.398 . S
C803 C809 1.491 . S
C804 H795 0.950 . S
C804 C803 1.398 . S
C804 C805 1.391 . S
C805 H793 0.950 . S
C805 C801 1.393 . S
C805 C804 1.391 . S
C806 H796 0.950 . S
C806 C807 1.386 . S
C806 C808 1.391 . S
C807 C806 1.386 . S
C807 C811 1.393 . S
C808 H797 0.950 . S
C808 C806 1.391 . S
C808 C809 1.400 . S
C809 C803 1.491 . S
C809 C808 1.400 . S
C809 C810 1.398 . S
C810 H798 0.950 . S
C810 C809 1.398 . S
C810 C811 1.391 . S
C811 H799 0.950 . S
C811 C807 1.393 . S
C811 C810 1.391 . S
H812 C820 0.950 . S
H813 C825 0.950 . S
H814 C822 0.950 . S
H815 C824 0.950 . S
H816 C826 0.950 . S
H817 C828 0.950 . S
H818 C830 0.950 . S
H819 C831 0.950 . S
C820 H812 0.950 . S
C820 C821 1.386 . S
C820 C822 1.391 . S
C821 C820 1.386 . S
C821 C825 1.393 . S
C822 H814 0.950 . S
C822 C820 1.391 . S
C822 C823 1.400 . S
C823 C822 1.400 . S
C823 C824 1.398 . S
C823 C829 1.491 . S
C824 H815 0.950 . S
C824 C823 1.398 . S
C824 C825 1.391 . S
C825 H813 0.950 . S
C825 C821 1.393 . S
C825 C824 1.391 . S
C826 H816 0.950 . S
C826 C827 1.386 . S
C826 C828 1.391 . S
C827 C826 1.386 . S
C827 C831 1.393 . S
C828 H817 0.950 . S
C828 C826 1.391 . S
C828 C829 1.400 . S
C829 C823 1.491 . S
C829 C828 1.400 . S
C829 C830 1.398 . S
C830 H818 0.950 . S
C830 C829 1.398 . S
C830 C831 1.391 . S
C831 H819 0.950 . S
C831 C827 1.393 . S
C831 C830 1.391 . S
H832 C840 0.950 . S
H833 C845 0.950 . S
H834 C842 0.950 . S
H835 C844 0.950 . S
H836 C846 0.950 . S
H837 C848 0.950 . S
H838 C850 0.950 . S
H839 C851 0.950 . S
C840 H832 0.950 . S
C840 C841 1.386 . S
C840 C842 1.391 . S
C841 C840 1.386 . S
C841 C845 1.393 . S
C842 H834 0.950 . S
C842 C840 1.391 . S
C842 C843 1.400 . S
C843 C842 1.400 . S
C843 C844 1.398 . S
C843 C849 1.491 . S
C844 H835 0.950 . S
C844 C843 1.398 . S
C844 C845 1.391 . S
C845 H833 0.950 . S
C845 C841 1.393 . S
C845 C844 1.391 . S
C846 H836 0.950 . S
C846 C847 1.386 1_545 S
C846 C848 1.391 . S
C847 C846 1.386 1_565 S
C847 C851 1.393 . S
C848 H837 0.950 . S
C848 C846 1.391 . S
C848 C849 1.400 . S
C849 C843 1.491 . S
C849 C848 1.400 . S
C849 C850 1.398 . S
C850 H838 0.950 . S
C850 C849 1.398 . S
C850 C851 1.391 1_545 S
C851 H839 0.950 . S
C851 C847 1.393 . S
C851 C850 1.391 1_565 S
H852 C860 0.950 . S
H853 C865 0.950 . S
H854 C862 0.950 . S
H855 C864 0.950 . S
H856 C866 0.950 . S
H857 C868 0.950 . S
H858 C870 0.950 . S
H859 C871 0.950 . S
C860 H852 0.950 . S
C860 C861 1.386 . S
C860 C862 1.391 . S
C861 C860 1.386 . S
C861 C865 1.393 . S
C862 H854 0.950 . S
C862 C860 1.391 . S
C862 C863 1.400 . S
C863 C862 1.400 . S
C863 C864 1.398 . S
C863 C869 1.491 . S
C864 H855 0.950 . S
C864 C863 1.398 . S
C864 C865 1.391 . S
C865 H853 0.950 . S
C865 C861 1.393 . S
C865 C864 1.391 . S
C866 H856 0.950 . S
C866 C867 1.386 . S
C866 C868 1.391 . S
C867 C866 1.386 . S
C867 C871 1.393 . S
C868 H857 0.950 . S
C868 C866 1.391 . S
C868 C869 1.400 . S
C869 C863 1.491 . S
C869 C868 1.400 . S
C869 C870 1.398 . S
C870 H858 0.950 . S
C870 C869 1.398 . S
C870 C871 1.391 . S
C871 H859 0.950 . S
C871 C867 1.393 . S
C871 C870 1.391 . S
H872 C880 0.950 . S
H873 C885 0.950 . S
H874 C882 0.950 . S
H875 C884 0.950 . S
H876 C886 0.950 . S
H877 C888 0.950 . S
H878 C890 0.950 . S
H879 C891 0.950 . S
C880 H872 0.950 . S
C880 C881 1.386 . S
C880 C882 1.391 . S
C881 C880 1.386 . S
C881 C885 1.393 . S
C882 H874 0.950 . S
C882 C880 1.391 . S
C882 C883 1.400 . S
C883 C882 1.400 . S
C883 C884 1.398 . S
C883 C889 1.491 . S
C884 H875 0.950 . S
C884 C883 1.398 . S
C884 C885 1.391 . S
C885 H873 0.950 . S
C885 C881 1.393 . S
C885 C884 1.391 . S
C886 H876 0.950 . S
C886 C887 1.386 . S
C886 C888 1.391 . S
C887 C886 1.386 . S
C887 C891 1.393 . S
C888 H877 0.950 . S
C888 C886 1.391 . S
C888 C889 1.400 . S
C889 C883 1.491 . S
C889 C888 1.400 . S
C889 C890 1.398 . S
C890 H878 0.950 . S
C890 C889 1.398 . S
C890 C891 1.391 . S
C891 H879 0.950 . S
C891 C887 1.393 . S
C891 C890 1.391 . S
H892 C900 0.950 . S
H893 C905 0.950 . S
H894 C902 0.950 . S
H895 C904 0.950 . S
H896 C906 0.950 . S
H897 C908 0.950 . S
H898 C910 0.950 . S
H899 C911 0.950 . S
C900 H892 0.950 . S
C900 C901 1.386 . S
C900 C902 1.391 . S
C901 C900 1.386 . S
C901 C905 1.393 . S
C902 H894 0.950 . S
C902 C900 1.391 . S
C902 C903 1.400 . S
C903 C902 1.400 . S
C903 C904 1.398 . S
C903 C909 1.491 . S
C904 H895 0.950 . S
C904 C903 1.398 . S
C904 C905 1.391 . S
C905 H893 0.950 . S
C905 C901 1.393 . S
C905 C904 1.391 . S
C906 H896 0.950 . S
C906 C907 1.386 . S
C906 C908 1.391 . S
C907 C906 1.386 . S
C907 C911 1.393 . S
C908 H897 0.950 . S
C908 C906 1.391 . S
C908 C909 1.400 . S
C909 C903 1.491 . S
C909 C908 1.400 . S
C909 C910 1.398 . S
C910 H898 0.950 . S
C910 C909 1.398 . S
C910 C911 1.391 . S
C911 H899 0.950 . S
C911 C907 1.393 . S
C911 C910 1.391 . S
H912 C920 0.950 . S
H913 C925 0.950 . S
H914 C922 0.950 . S
H915 C924 0.950 . S
H916 C926 0.950 . S
H917 C928 0.950 . S
H918 C930 0.950 . S
H919 C931 0.950 . S
C920 H912 0.950 . S
C920 C921 1.386 . S
C920 C922 1.391 . S
C921 C920 1.386 . S
C921 C925 1.393 . S
C922 H914 0.950 . S
C922 C920 1.391 . S
C922 C923 1.400 . S
C923 C922 1.400 . S
C923 C924 1.398 . S
C923 C929 1.491 . S
C924 H915 0.950 . S
C924 C923 1.398 . S
C924 C925 1.391 . S
C925 H913 0.950 . S
C925 C921 1.393 . S
C925 C924 1.391 . S
C926 H916 0.950 . S
C926 C927 1.386 . S
C926 C928 1.391 . S
C927 C926 1.386 . S
C927 C931 1.393 . S
C928 H917 0.950 . S
C928 C926 1.391 . S
C928 C929 1.400 . S
C929 C923 1.491 . S
C929 C928 1.400 . S
C929 C930 1.398 . S
C930 H918 0.950 . S
C930 C929 1.398 . S
C930 C931 1.391 . S
C931 H919 0.950 . S
C931 C927 1.393 . S
C931 C930 1.391 . S
H932 C940 0.950 . S
H933 C945 0.950 . S
H934 C942 0.950 . S
H935 C944 0.950 . S
H936 C946 0.950 . S
H937 C948 0.950 . S
H938 C950 0.950 . S
H939 C951 0.950 . S
C940 H932 0.950 . S
C940 C941 1.386 . S
C940 C942 1.391 . S
C941 C940 1.386 . S
C941 C945 1.393 . S
C942 H934 0.950 . S
C942 C940 1.391 . S
C942 C943 1.400 . S
C943 C942 1.400 . S
C943 C944 1.398 . S
C943 C949 1.491 . S
C944 H935 0.950 . S
C944 C943 1.398 . S
C944 C945 1.391 . S
C945 H933 0.950 . S
C945 C941 1.393 . S
C945 C944 1.391 . S
C946 H936 0.950 . S
C946 C947 1.386 . S
C946 C948 1.391 1_655 S
C947 C946 1.386 . S
C947 C951 1.393 1_655 S
C948 H937 0.950 . S
C948 C946 1.391 1_455 S
C948 C949 1.400 . S
C949 C943 1.491 . S
C949 C948 1.400 . S
C949 C950 1.398 . S
C950 H938 0.950 . S
C950 C949 1.398 . S
C950 C951 1.391 . S
C951 H939 0.950 . S
C951 C947 1.393 1_455 S
C951 C950 1.391 . S
H952 C960 0.950 . S
H953 C965 0.950 . S
H954 C962 0.950 . S
H955 C964 0.950 . S
H956 C966 0.950 . S
H957 C968 0.950 . S
H958 C970 0.950 . S
H959 C971 0.950 . S
C960 H952 0.950 . S
C960 C961 1.386 . S
C960 C962 1.391 . S
C961 C960 1.386 . S
C961 C965 1.393 . S
C962 H954 0.950 . S
C962 C960 1.391 . S
C962 C963 1.400 . S
C963 C962 1.400 . S
C963 C964 1.398 . S
C963 C969 1.491 . S
C964 H955 0.950 . S
C964 C963 1.398 . S
C964 C965 1.391 . S
C965 H953 0.950 . S
C965 C961 1.393 . S
C965 C964 1.391 . S
C966 H956 0.950 . S
C966 C967 1.386 . S
C966 C968 1.391 . S
C967 C966 1.386 . S
C967 C971 1.393 . S
C968 H957 0.950 . S
C968 C966 1.391 . S
C968 C969 1.400 . S
C969 C963 1.491 . S
C969 C968 1.400 . S
C969 C970 1.398 . S
C970 H958 0.950 . S
C970 C969 1.398 . S
C970 C971 1.391 . S
C971 H959 0.950 . S
C971 C967 1.393 . S
C971 C970 1.391 . S
H972 C980 0.950 . S
H973 C985 0.950 . S
H974 C982 0.950 . S
H975 C984 0.950 . S
H976 C986 0.950 . S
H977 C988 0.950 . S
H978 C990 0.950 . S
H979 C991 0.950 . S
C980 H972 0.950 . S
C980 C981 1.386 . S
C980 C982 1.391 . S
C981 C980 1.386 . S
C981 C985 1.393 . S
C982 H974 0.950 . S
C982 C980 1.391 . S
C982 C983 1.400 . S
C983 C982 1.400 . S
C983 C984 1.398 . S
C983 C989 1.491 . S
C984 H975 0.950 . S
C984 C983 1.398 . S
C984 C985 1.391 . S
C985 H973 0.950 . S
C985 C981 1.393 . S
C985 C984 1.391 . S
C986 H976 0.950 . S
C986 C987 1.386 . S
C986 C988 1.391 . S
C987 C986 1.386 . S
C987 C991 1.393 . S
C988 H977 0.950 . S
C988 C986 1.391 . S
C988 C989 1.400 . S
C989 C983 1.491 . S
C989 C988 1.400 . S
C989 C990 1.398 . S
C990 H978 0.950 . S
C990 C989 1.398 . S
C990 C991 1.391 . S
C991 H979 0.950 . S
C991 C987 1.393 . S
C991 C990 1.391 . S
H992 C1000 0.950 . S
H993 C1005 0.950 . S
H994 C1002 0.950 . S
H995 C1004 0.950 . S
H996 C1006 0.950 . S
H997 C1008 0.950 . S
H998 C1010 0.950 1_655 S
H999 C1011 0.950 . S
C1000 H992 0.950 . S
C1000 C1001 1.386 . S
C1000 C1002 1.391 . S
C1001 C1000 1.386 . S
C1001 C1005 1.393 . S
C1002 H994 0.950 . S
C1002 C1000 1.391 . S
C1002 C1003 1.400 . S
C1003 C1002 1.400 . S
C1003 C1004 1.398 . S
C1003 C1009 1.491 . S
C1004 H995 0.950 . S
C1004 C1003 1.398 . S
C1004 C1005 1.391 . S
C1005 H993 0.950 . S
C1005 C1001 1.393 . S
C1005 C1004 1.391 . S
C1006 H996 0.950 . S
C1006 C1007 1.376 1_455 S
C1006 C1008 1.391 . S
C1007 C1006 1.376 1_655 S
C1007 C1011 1.398 . S
C1008 H997 0.950 . S
C1008 C1006 1.391 . S
C1008 C1009 1.400 . S
C1009 C1003 1.491 . S
C1009 C1008 1.400 . S
C1009 C1010 1.398 . S
C1010 H998 0.950 1_455 S
C1010 C1009 1.398 . S
C1010 C1011 1.391 1_455 S
C1011 H999 0.950 . S
C1011 C1007 1.398 . S
C1011 C1010 1.391 1_655 S
H1012 C1020 0.950 . S
H1013 C1025 0.950 . S
H1014 C1022 0.950 . S
H1015 C1024 0.950 . S
H1016 C1026 0.950 . S
H1017 C1028 0.950 . S
H1018 C1030 0.950 . S
H1019 C1031 0.950 . S
C1020 H1012 0.950 . S
C1020 C1021 1.386 . S
C1020 C1022 1.391 . S
C1021 C1020 1.386 . S
C1021 C1025 1.393 . S
C1022 H1014 0.950 . S
C1022 C1020 1.391 . S
C1022 C1023 1.400 . S
C1023 C1022 1.400 . S
C1023 C1024 1.398 . S
C1023 C1029 1.491 . S
C1024 H1015 0.950 . S
C1024 C1023 1.398 . S
C1024 C1025 1.391 . S
C1025 H1013 0.950 . S
C1025 C1021 1.393 . S
C1025 C1024 1.391 . S
C1026 H1016 0.950 . S
C1026 C1027 1.386 . S
C1026 C1028 1.391 . S
C1027 C1026 1.386 . S
C1027 C1031 1.393 . S
C1028 H1017 0.950 . S
C1028 C1026 1.391 . S
C1028 C1029 1.400 . S
C1029 C1023 1.491 . S
C1029 C1028 1.400 . S
C1029 C1030 1.398 . S
C1030 H1018 0.950 . S
C1030 C1029 1.398 . S
C1030 C1031 1.391 . S
C1031 H1019 0.950 . S
C1031 C1027 1.393 . S
C1031 C1030 1.391 . S
C407 C143 1.260 . S
C401 C5 1.268 . S
C427 C180 1.253 . S
C421 C18 1.266 . S
C447 C216 1.266 . S
C441 C31 1.275 . S
C461 C42 1.218 . S
C467 C107 1.274 . S
C481 C57 1.466 . S
C487 C108 1.460 . S
C501 C70 1.458 . S
C507 C144 1.450 . S
C527 C179 1.468 . S
C521 C81 1.481 . S
C547 C215 1.485 . S
C541 C96 1.456 . S
C561 C29 1.482 . S
C567 C287 1.469 . S
C587 C324 1.451 . S
C581 C44 1.442 . S
C601 C3 1.497 . S
C607 C360 1.469 . S
C627 C251 1.474 . S
C621 C16 1.483 . S
C641 C83 1.281 . S
C647 C252 1.250 . S
C661 C94 1.204 . S
C667 C288 1.261 . S
C687 C323 1.269 . S
C681 C55 1.197 . S
C701 C68 1.232 . S
C707 C359 1.269 . S
C727 C178 1.341 . S
C721 C1 1.346 . S
C747 C214 1.312 . S
C741 C14 1.320 . S
C761 C27 1.302 . S
C767 C118 1.178 . S
C781 C49 1.307 . S
C787 C154 1.183 1_545 S
C801 C53 1.564 . S
C807 C226 1.493 . S
C827 C106 1.688 . S
C821 C66 1.614 . S
C847 C142 1.705 . S
C841 C88 1.699 . S
C867 C190 1.507 . S
C861 C92 1.577 . S
C887 C322 1.701 . S
C881 C36 1.695 . S
C907 C358 1.683 . S
C901 C40 1.600 . S
C921 C10 1.647 . S
C927 C262 1.503 . S
C947 C298 1.506 . S
C941 C23 1.656 . S
C967 C370 1.166 . S
C961 C79 1.292 . S
C981 C101 1.304 . S
C987 C250 1.321 . S
C1007 C286 1.344 . S
C1001 C62 1.323 . S
C1027 C334 1.218 . S
C1021 C75 1.303 . S
