# Generated by pormake.
# Topology gar, (4,6)-cn, num edge types: 1
# Building blocks:
#     Node 0, Type 0, BuildingBlock: QUQFOY_clean_sbu_1, # of connection points: 4
#     Node 1, Type 0, BuildingBlock: QUQFOY_clean_sbu_1, # of connection points: 4
#     Node 2, Type 0, BuildingBlock: QUQFOY_clean_sbu_1, # of connection points: 4
#     Node 3, Type 0, BuildingBlock: QUQFOY_clean_sbu_1, # of connection points: 4
#     Node 4, Type 0, BuildingBlock: QUQFOY_clean_sbu_1, # of connection points: 4
#     Node 5, Type 0, BuildingBlock: QUQFOY_clean_sbu_1, # of connection points: 4
#     Node 6, Type 0, BuildingBlock: QUQFOY_clean_sbu_1, # of connection points: 4
#     Node 7, Type 0, BuildingBlock: QUQFOY_clean_sbu_1, # of connection points: 4
#     Node 8, Type 0, BuildingBlock: QUQFOY_clean_sbu_1, # of connection points: 4
#     Node 9, Type 0, BuildingBlock: QUQFOY_clean_sbu_1, # of connection points: 4
#     Node 10, Type 0, BuildingBlock: QUQFOY_clean_sbu_1, # of connection points: 4
#     Node 11, Type 0, BuildingBlock: QUQFOY_clean_sbu_1, # of connection points: 4
#     Node 12, Type 0, BuildingBlock: QUQFOY_clean_sbu_1, # of connection points: 4
#     Node 13, Type 0, BuildingBlock: QUQFOY_clean_sbu_1, # of connection points: 4
#     Node 14, Type 0, BuildingBlock: QUQFOY_clean_sbu_1, # of connection points: 4
#     Node 15, Type 0, BuildingBlock: QUQFOY_clean_sbu_1, # of connection points: 4
#     Node 16, Type 0, BuildingBlock: QUQFOY_clean_sbu_1, # of connection points: 4
#     Node 17, Type 0, BuildingBlock: QUQFOY_clean_sbu_1, # of connection points: 4
#     Node 18, Type 0, BuildingBlock: QUQFOY_clean_sbu_1, # of connection points: 4
#     Node 19, Type 0, BuildingBlock: QUQFOY_clean_sbu_1, # of connection points: 4
#     Node 20, Type 0, BuildingBlock: QUQFOY_clean_sbu_1, # of connection points: 4
#     Node 21, Type 0, BuildingBlock: QUQFOY_clean_sbu_1, # of connection points: 4
#     Node 22, Type 0, BuildingBlock: QUQFOY_clean_sbu_1, # of connection points: 4
#     Node 23, Type 0, BuildingBlock: QUQFOY_clean_sbu_1, # of connection points: 4
#     Node 24, Type 1, BuildingBlock: PAMTUU_clean_sbu_0, # of connection points: 6
#     Node 25, Type 1, BuildingBlock: PAMTUU_clean_sbu_0, # of connection points: 6
#     Node 26, Type 1, BuildingBlock: PAMTUU_clean_sbu_0, # of connection points: 6
#     Node 27, Type 1, BuildingBlock: PAMTUU_clean_sbu_0, # of connection points: 6
#     Node 28, Type 1, BuildingBlock: PAMTUU_clean_sbu_0, # of connection points: 6
#     Node 29, Type 1, BuildingBlock: PAMTUU_clean_sbu_0, # of connection points: 6
#     Node 30, Type 1, BuildingBlock: PAMTUU_clean_sbu_0, # of connection points: 6
#     Node 31, Type 1, BuildingBlock: PAMTUU_clean_sbu_0, # of connection points: 6
#     Node 32, Type 1, BuildingBlock: PAMTUU_clean_sbu_0, # of connection points: 6
#     Node 33, Type 1, BuildingBlock: PAMTUU_clean_sbu_0, # of connection points: 6
#     Node 34, Type 1, BuildingBlock: PAMTUU_clean_sbu_0, # of connection points: 6
#     Node 35, Type 1, BuildingBlock: PAMTUU_clean_sbu_0, # of connection points: 6
#     Node 36, Type 1, BuildingBlock: PAMTUU_clean_sbu_0, # of connection points: 6
#     Node 37, Type 1, BuildingBlock: PAMTUU_clean_sbu_0, # of connection points: 6
#     Node 38, Type 1, BuildingBlock: PAMTUU_clean_sbu_0, # of connection points: 6
#     Node 39, Type 1, BuildingBlock: PAMTUU_clean_sbu_0, # of connection points: 6
#     Edge 40, Type (0, 1), BuildingBlock: TEMPAE_clean_linker_10, # of connection points: 2
#     Edge 41, Type (0, 1), BuildingBlock: TEMPAE_clean_linker_10, # of connection points: 2
#     Edge 42, Type (0, 1), BuildingBlock: TEMPAE_clean_linker_10, # of connection points: 2
#     Edge 43, Type (0, 1), BuildingBlock: TEMPAE_clean_linker_10, # of connection points: 2
#     Edge 44, Type (0, 1), BuildingBlock: TEMPAE_clean_linker_10, # of connection points: 2
#     Edge 45, Type (0, 1), BuildingBlock: TEMPAE_clean_linker_10, # of connection points: 2
#     Edge 46, Type (0, 1), BuildingBlock: TEMPAE_clean_linker_10, # of connection points: 2
#     Edge 47, Type (0, 1), BuildingBlock: TEMPAE_clean_linker_10, # of connection points: 2
#     Edge 48, Type (0, 1), BuildingBlock: TEMPAE_clean_linker_10, # of connection points: 2
#     Edge 49, Type (0, 1), BuildingBlock: TEMPAE_clean_linker_10, # of connection points: 2
#     Edge 50, Type (0, 1), BuildingBlock: TEMPAE_clean_linker_10, # of connection points: 2
#     Edge 51, Type (0, 1), BuildingBlock: TEMPAE_clean_linker_10, # of connection points: 2
#     Edge 52, Type (0, 1), BuildingBlock: TEMPAE_clean_linker_10, # of connection points: 2
#     Edge 53, Type (0, 1), BuildingBlock: TEMPAE_clean_linker_10, # of connection points: 2
#     Edge 54, Type (0, 1), BuildingBlock: TEMPAE_clean_linker_10, # of connection points: 2
#     Edge 55, Type (0, 1), BuildingBlock: TEMPAE_clean_linker_10, # of connection points: 2
#     Edge 56, Type (0, 1), BuildingBlock: TEMPAE_clean_linker_10, # of connection points: 2
#     Edge 57, Type (0, 1), BuildingBlock: TEMPAE_clean_linker_10, # of connection points: 2
#     Edge 58, Type (0, 1), BuildingBlock: TEMPAE_clean_linker_10, # of connection points: 2
#     Edge 59, Type (0, 1), BuildingBlock: TEMPAE_clean_linker_10, # of connection points: 2
#     Edge 60, Type (0, 1), BuildingBlock: TEMPAE_clean_linker_10, # of connection points: 2
#     Edge 61, Type (0, 1), BuildingBlock: TEMPAE_clean_linker_10, # of connection points: 2
#     Edge 62, Type (0, 1), BuildingBlock: TEMPAE_clean_linker_10, # of connection points: 2
#     Edge 63, Type (0, 1), BuildingBlock: TEMPAE_clean_linker_10, # of connection points: 2
#     Edge 64, Type (0, 1), BuildingBlock: TEMPAE_clean_linker_10, # of connection points: 2
#     Edge 65, Type (0, 1), BuildingBlock: TEMPAE_clean_linker_10, # of connection points: 2
#     Edge 66, Type (0, 1), BuildingBlock: TEMPAE_clean_linker_10, # of connection points: 2
#     Edge 67, Type (0, 1), BuildingBlock: TEMPAE_clean_linker_10, # of connection points: 2
#     Edge 68, Type (0, 1), BuildingBlock: TEMPAE_clean_linker_10, # of connection points: 2
#     Edge 69, Type (0, 1), BuildingBlock: TEMPAE_clean_linker_10, # of connection points: 2
#     Edge 70, Type (0, 1), BuildingBlock: TEMPAE_clean_linker_10, # of connection points: 2
#     Edge 71, Type (0, 1), BuildingBlock: TEMPAE_clean_linker_10, # of connection points: 2
#     Edge 72, Type (0, 1), BuildingBlock: TEMPAE_clean_linker_10, # of connection points: 2
#     Edge 73, Type (0, 1), BuildingBlock: TEMPAE_clean_linker_10, # of connection points: 2
#     Edge 74, Type (0, 1), BuildingBlock: TEMPAE_clean_linker_10, # of connection points: 2
#     Edge 75, Type (0, 1), BuildingBlock: TEMPAE_clean_linker_10, # of connection points: 2
#     Edge 76, Type (0, 1), BuildingBlock: TEMPAE_clean_linker_10, # of connection points: 2
#     Edge 77, Type (0, 1), BuildingBlock: TEMPAE_clean_linker_10, # of connection points: 2
#     Edge 78, Type (0, 1), BuildingBlock: TEMPAE_clean_linker_10, # of connection points: 2
#     Edge 79, Type (0, 1), BuildingBlock: TEMPAE_clean_linker_10, # of connection points: 2
#     Edge 80, Type (0, 1), BuildingBlock: TEMPAE_clean_linker_10, # of connection points: 2
#     Edge 81, Type (0, 1), BuildingBlock: TEMPAE_clean_linker_10, # of connection points: 2
#     Edge 82, Type (0, 1), BuildingBlock: TEMPAE_clean_linker_10, # of connection points: 2
#     Edge 83, Type (0, 1), BuildingBlock: TEMPAE_clean_linker_10, # of connection points: 2
#     Edge 84, Type (0, 1), BuildingBlock: TEMPAE_clean_linker_10, # of connection points: 2
#     Edge 85, Type (0, 1), BuildingBlock: TEMPAE_clean_linker_10, # of connection points: 2
#     Edge 86, Type (0, 1), BuildingBlock: TEMPAE_clean_linker_10, # of connection points: 2
#     Edge 87, Type (0, 1), BuildingBlock: TEMPAE_clean_linker_10, # of connection points: 2
#     Edge 88, Type (0, 1), BuildingBlock: TEMPAE_clean_linker_10, # of connection points: 2
#     Edge 89, Type (0, 1), BuildingBlock: TEMPAE_clean_linker_10, # of connection points: 2
#     Edge 90, Type (0, 1), BuildingBlock: TEMPAE_clean_linker_10, # of connection points: 2
#     Edge 91, Type (0, 1), BuildingBlock: TEMPAE_clean_linker_10, # of connection points: 2
#     Edge 92, Type (0, 1), BuildingBlock: TEMPAE_clean_linker_10, # of connection points: 2
#     Edge 93, Type (0, 1), BuildingBlock: TEMPAE_clean_linker_10, # of connection points: 2
#     Edge 94, Type (0, 1), BuildingBlock: TEMPAE_clean_linker_10, # of connection points: 2
#     Edge 95, Type (0, 1), BuildingBlock: TEMPAE_clean_linker_10, # of connection points: 2
#     Edge 96, Type (0, 1), BuildingBlock: TEMPAE_clean_linker_10, # of connection points: 2
#     Edge 97, Type (0, 1), BuildingBlock: TEMPAE_clean_linker_10, # of connection points: 2
#     Edge 98, Type (0, 1), BuildingBlock: TEMPAE_clean_linker_10, # of connection points: 2
#     Edge 99, Type (0, 1), BuildingBlock: TEMPAE_clean_linker_10, # of connection points: 2
#     Edge 100, Type (0, 1), BuildingBlock: TEMPAE_clean_linker_10, # of connection points: 2
#     Edge 101, Type (0, 1), BuildingBlock: TEMPAE_clean_linker_10, # of connection points: 2
#     Edge 102, Type (0, 1), BuildingBlock: TEMPAE_clean_linker_10, # of connection points: 2
#     Edge 103, Type (0, 1), BuildingBlock: TEMPAE_clean_linker_10, # of connection points: 2
#     Edge 104, Type (0, 1), BuildingBlock: TEMPAE_clean_linker_10, # of connection points: 2
#     Edge 105, Type (0, 1), BuildingBlock: TEMPAE_clean_linker_10, # of connection points: 2
#     Edge 106, Type (0, 1), BuildingBlock: TEMPAE_clean_linker_10, # of connection points: 2
#     Edge 107, Type (0, 1), BuildingBlock: TEMPAE_clean_linker_10, # of connection points: 2
#     Edge 108, Type (0, 1), BuildingBlock: TEMPAE_clean_linker_10, # of connection points: 2
#     Edge 109, Type (0, 1), BuildingBlock: TEMPAE_clean_linker_10, # of connection points: 2
#     Edge 110, Type (0, 1), BuildingBlock: TEMPAE_clean_linker_10, # of connection points: 2
#     Edge 111, Type (0, 1), BuildingBlock: TEMPAE_clean_linker_10, # of connection points: 2
#     Edge 112, Type (0, 1), BuildingBlock: TEMPAE_clean_linker_10, # of connection points: 2
#     Edge 113, Type (0, 1), BuildingBlock: TEMPAE_clean_linker_10, # of connection points: 2
#     Edge 114, Type (0, 1), BuildingBlock: TEMPAE_clean_linker_10, # of connection points: 2
#     Edge 115, Type (0, 1), BuildingBlock: TEMPAE_clean_linker_10, # of connection points: 2
#     Edge 116, Type (0, 1), BuildingBlock: TEMPAE_clean_linker_10, # of connection points: 2
#     Edge 117, Type (0, 1), BuildingBlock: TEMPAE_clean_linker_10, # of connection points: 2
#     Edge 118, Type (0, 1), BuildingBlock: TEMPAE_clean_linker_10, # of connection points: 2
#     Edge 119, Type (0, 1), BuildingBlock: TEMPAE_clean_linker_10, # of connection points: 2
#     Edge 120, Type (0, 1), BuildingBlock: TEMPAE_clean_linker_10, # of connection points: 2
#     Edge 121, Type (0, 1), BuildingBlock: TEMPAE_clean_linker_10, # of connection points: 2
#     Edge 122, Type (0, 1), BuildingBlock: TEMPAE_clean_linker_10, # of connection points: 2
#     Edge 123, Type (0, 1), BuildingBlock: TEMPAE_clean_linker_10, # of connection points: 2
#     Edge 124, Type (0, 1), BuildingBlock: TEMPAE_clean_linker_10, # of connection points: 2
#     Edge 125, Type (0, 1), BuildingBlock: TEMPAE_clean_linker_10, # of connection points: 2
#     Edge 126, Type (0, 1), BuildingBlock: TEMPAE_clean_linker_10, # of connection points: 2
#     Edge 127, Type (0, 1), BuildingBlock: TEMPAE_clean_linker_10, # of connection points: 2
#     Edge 128, Type (0, 1), BuildingBlock: TEMPAE_clean_linker_10, # of connection points: 2
#     Edge 129, Type (0, 1), BuildingBlock: TEMPAE_clean_linker_10, # of connection points: 2
#     Edge 130, Type (0, 1), BuildingBlock: TEMPAE_clean_linker_10, # of connection points: 2
#     Edge 131, Type (0, 1), BuildingBlock: TEMPAE_clean_linker_10, # of connection points: 2
#     Edge 132, Type (0, 1), BuildingBlock: TEMPAE_clean_linker_10, # of connection points: 2
#     Edge 133, Type (0, 1), BuildingBlock: TEMPAE_clean_linker_10, # of connection points: 2
#     Edge 134, Type (0, 1), BuildingBlock: TEMPAE_clean_linker_10, # of connection points: 2
#     Edge 135, Type (0, 1), BuildingBlock: TEMPAE_clean_linker_10, # of connection points: 2
# Relax obj value: 0.191
# Max RMSD: 0.341
# Mean RMSD: 0.184
data_MOF--net-gar--node1-QUQFOY_clean_sbu_1--node2-PAMTUU_clean_sbu_0--edge1-TEMPAE_clean_linker_10
_symmetry_space_group_name_H-M    P1
_symmetry_Int_Tables_number       1
_symmetry_cell_setting            triclinic
loop_
_symmetry_equiv_pos_as_xyz
'x, y, z'
_cell_length_a     61.031882
_cell_length_b     57.520169
_cell_length_c     60.961208
_cell_angle_alpha  94.13069
_cell_angle_beta   94.188794
_cell_angle_gamma 109.29911
loop_
_atom_site_label
_atom_site_type_symbol
_atom_site_fract_x
_atom_site_fract_y
_atom_site_fract_z
_atom_type_partial_charge
O0 O 0.06875 0.26312 0.41655 0.0
Cd1 Cd 0.07421 0.28602 0.38897 0.0
Cd2 Cd 0.05332 0.31578 0.43442 0.0
O3 O 0.05913 0.28233 0.44599 0.0
O4 O 0.09258 0.2724 0.36495 0.0
O5 O 0.11036 0.30639 0.38582 0.0
C6 C 0.11212 0.29023 0.37075 0.0
C7 C 0.05721 0.35517 0.45757 0.0
C8 C 0.06378 0.26359 0.43683 0.0
C9 C 1.02586 0.30099 0.38463 0.0
O10 O 0.02953 0.30921 0.40523 0.0
O11 O 0.04103 0.29273 0.37559 0.0
O12 O 0.0397 0.33499 0.45752 0.0
O13 O 0.07329 0.35305 0.4457 0.0
O14 O 0.04411 0.77826 0.67674 0.0
Cd15 Cd 0.04743 0.80624 0.70394 0.0
Cd16 Cd 0.07663 0.83762 0.66611 0.0
O17 O 0.06375 0.79964 0.65084 0.0
O18 O 1.02162 0.79277 0.72655 0.0
O19 O 1.02065 0.82263 0.70737 0.0
C20 C 1.01076 0.8079 0.72159 0.0
C21 C 0.07457 0.87464 0.64688 0.0
C22 C 0.05246 0.77872 0.65782 0.0
C23 C 0.10445 0.8302 0.71038 0.0
O24 O 0.10392 0.83946 0.69173 0.0
O25 O 0.08491 0.81892 0.71836 0.0
O26 O 0.08964 0.8638 0.64321 0.0
O27 O 0.06057 0.86483 0.66122 0.0
O28 O 0.60952 0.79956 0.90607 0.0
Cd29 Cd 0.58698 0.7941 0.93299 0.0
Cd30 Cd 0.56157 0.81944 0.88891 0.0
O31 O 0.59352 0.81227 0.87689 0.0
O32 O 0.60028 0.77564 0.95691 0.0
O33 O 0.56649 0.75732 0.93837 0.0
C34 C 0.58226 0.75569 0.95297 0.0
C35 C 0.52169 0.81505 0.86942 0.0
C36 C 0.61051 0.80599 0.88614 0.0
C37 C 0.5754 0.84591 0.93918 0.0
O38 O 0.56938 0.84474 0.91833 0.0
O39 O 0.58086 0.82803 0.94734 0.0
O40 O 0.54087 0.83169 0.86553 0.0
O41 O 0.52488 0.79971 0.8828 0.0
O42 O 0.55111 0.25708 0.17626 0.0
Cd43 Cd 0.55403 0.2852 0.20348 0.0
Cd44 Cd 0.58398 0.31668 0.16633 0.0
O45 O 0.57161 0.2787 0.15093 0.0
O46 O 0.52798 0.27236 0.22605 0.0
O47 O 0.52735 0.30189 0.20633 0.0
C48 C 0.51732 0.28756 0.22076 0.0
C49 C 0.58233 0.35401 0.14745 0.0
C50 C 0.56006 0.25768 0.15761 0.0
C51 C 0.61101 0.30944 0.21095 0.0
O52 O 0.61083 0.31871 0.1923 0.0
O53 O 0.59129 0.29801 0.21856 0.0
O54 O 0.59745 0.34321 0.14387 0.0
O55 O 0.56798 0.3439 0.16142 0.0
O56 O 0.09936 0.77027 0.13942 0.0
Cd57 Cd 0.1081 0.80205 0.16065 0.0
Cd58 Cd 0.13115 0.82202 0.1268 0.0
O59 O 0.11698 0.78607 0.11089 0.0
O60 O 0.08797 0.79086 0.1849 0.0
O61 O 0.08568 0.82083 0.16526 0.0
C62 C 0.07822 0.80698 0.18076 0.0
C63 C 0.12143 0.85536 0.11412 0.0
C64 C 0.10496 0.7674 0.12 0.0
C65 C 0.16071 0.82251 0.16836 0.0
O66 O 0.16095 0.82847 0.14863 0.0
O67 O 0.14144 0.81284 0.17631 0.0
O68 O 0.13629 0.8473 0.10485 0.0
O69 O 0.11192 0.84428 0.1305 0.0
O70 O 0.57772 0.78109 0.45365 0.0
Cd71 Cd 0.55443 0.7766 0.47721 0.0
Cd72 Cd 0.52529 0.78354 0.43897 0.0
O73 O 0.55385 0.78041 0.42442 0.0
O74 O 0.56764 0.76079 0.5005 0.0
O75 O 0.53376 0.74167 0.4807 0.0
C76 C 0.54989 0.74087 0.4953 0.0
C77 C 0.49164 0.77428 0.41377 0.0
C78 C 0.57368 0.78093 0.43289 0.0
C79 C 0.53882 0.82084 0.48126 0.0
O80 O 0.52931 0.81364 0.46156 0.0
O81 O 0.54936 0.80828 0.49132 0.0
O82 O 0.50965 0.79365 0.41336 0.0
O83 O 0.49257 0.7596 0.42858 0.0
O84 O 0.60303 0.2714 0.64261 0.0
Cd85 Cd 0.61161 0.30186 0.66544 0.0
Cd86 Cd 0.63592 0.32448 0.63324 0.0
O87 O 0.6224 0.28919 0.6157 0.0
O88 O 0.59131 0.2894 0.68933 0.0
O89 O 0.58877 0.31995 0.67059 0.0
C90 C 0.58136 0.30548 0.68566 0.0
C91 C 0.6243 0.35788 0.62295 0.0
C92 C 0.60959 0.26982 0.62341 0.0
C93 C 0.66434 0.32189 0.67462 0.0
O94 O 0.66537 0.32967 0.65552 0.0
O95 O 0.64465 0.31156 0.68159 0.0
O96 O 0.63999 0.35179 0.61315 0.0
O97 O 0.61527 0.34503 0.6386 0.0
O98 O 0.03502 0.2301 0.95594 0.0
Cd99 Cd 0.03147 0.25551 0.9352 0.0
Cd100 Cd 1.01446 0.27144 0.97244 0.0
O101 O 1.02253 0.24246 0.98622 0.0
O102 O 0.04752 0.24826 0.90967 0.0
O103 O 0.0601 0.28407 0.93045 0.0
C104 C 0.06286 0.27002 0.91415 0.0
C105 C 0.03008 0.31299 0.98719 0.0
C106 C 0.03082 0.2277 0.9759 0.0
C107 C 0.98223 0.25672 0.93023 0.0
O108 O 0.98461 0.26384 0.95077 0.0
O109 O 0.99879 0.25255 0.92105 0.0
O110 O 1.01362 0.29719 0.99598 0.0
O111 O 0.03867 0.30482 0.97074 0.0
O112 O 0.49966 0.07619 0.26009 0.0
Cd113 Cd 0.47012 0.05999 0.27493 0.0
Cd114 Cd 0.49985 0.0568 0.30916 0.0
O115 O 0.52365 0.076 0.28889 0.0
O116 O 0.45896 0.08007 0.29672 0.0
O117 O 0.44464 0.06989 0.26144 0.0
C118 C 0.44406 0.0805 0.28067 0.0
C119 C 0.51224 0.06694 0.34667 0.0
C120 C 0.52019 0.08172 0.26955 0.0
C121 C 0.46348 1.00936 0.28656 0.0
O122 O 0.48009 0.01963 0.30165 0.0
O123 O 0.4569 0.02231 0.27333 0.0
O124 O 0.52121 0.05438 0.33408 0.0
O125 O 0.49612 0.07429 0.33782 0.0
O126 O 0.32639 0.23001 0.58419 0.0
Cd127 Cd 0.32489 0.20721 0.55602 0.0
Cd128 Cd 0.30954 0.24327 0.53781 0.0
O129 O 0.31926 0.26176 0.5707 0.0
O130 O 0.33815 0.18294 0.56847 0.0
O131 O 0.3532 0.20474 0.54164 0.0
C132 C 0.35367 0.18824 0.55476 0.0
C133 C 0.31961 0.25735 0.50272 0.0
C134 C 0.32378 0.251 0.5873 0.0
C135 C 0.2749 0.19134 0.53756 0.0
O136 O 0.27822 0.21391 0.53477 0.0
O137 O 0.29179 0.18459 0.54436 0.0
O138 O 0.30513 0.26437 0.51364 0.0
O139 O 0.3301 0.24417 0.51257 0.0
O140 O 0.13901 1.0079 0.7732 0.0
Cd141 Cd 0.16939 0.02295 0.79377 0.0
Cd142 Cd 0.14429 0.03962 0.81944 0.0
O143 O 0.11816 0.0232 0.79418 0.0
O144 O 0.18982 1.00399 0.78574 0.0
O145 O 0.17873 1.00715 0.81939 0.0
C146 C 0.19081 0.99921 0.80607 0.0
C147 C 0.13552 0.03179 0.85509 0.0
C148 C 0.11982 1.01091 0.77661 0.0
C149 C 0.18544 0.07746 0.80355 0.0
O150 O 0.16902 0.07344 0.81597 0.0
O151 O 0.18833 0.05953 0.79217 0.0
O152 O 0.12765 0.04641 0.84442 0.0
O153 O 0.14845 0.02136 0.84535 0.0
O154 O 0.29109 0.8847 0.07385 0.0
Cd155 Cd 0.30622 0.91792 0.06164 0.0
Cd156 Cd 0.31228 0.88996 0.02746 0.0
O157 O 0.29444 0.86133 0.04493 0.0
O158 O 0.29328 0.94177 0.07583 0.0
O159 O 0.2892 0.9315 0.03954 0.0
C160 C 0.28549 0.94438 0.05623 0.0
C161 C 0.30454 0.8842 0.98903 0.0
C162 C 0.2879 0.86343 0.06405 0.0
C163 C 0.35523 0.92675 0.05425 0.0
O164 O 0.34677 0.90999 0.0382 0.0
O165 O 0.34181 0.93317 0.06642 0.0
O166 O 0.31562 0.8722 0.99958 0.0
O167 O 0.29712 0.89933 1.00045 0.0
O168 O 0.31392 0.36258 0.09087 0.0
Cd169 Cd 0.3186 0.3845 0.0648 0.0
Cd170 Cd 0.33525 0.34744 0.04757 0.0
O171 O 0.32359 0.33118 0.07704 0.0
O172 O 0.30531 0.41033 0.07499 0.0
O173 O 0.29097 0.38521 0.04447 0.0
C174 C 0.2902 0.40329 0.05787 0.0
C175 C 0.3236 0.33197 0.00961 0.0
C176 C 0.31646 0.34172 0.09292 0.0
C177 C 0.36944 0.3993 0.05503 0.0
O178 O 0.36693 0.37644 0.05137 0.0
O179 O 0.35214 0.40581 0.05949 0.0
O180 O 0.33668 0.32341 0.02196 0.0
O181 O 0.31538 0.34764 0.01925 0.0
O182 O 0.83305 0.15693 0.12176 0.0
Cd183 Cd 0.82676 0.13708 0.09115 0.0
Cd184 Cd 0.83132 0.1805 0.07583 0.0
O185 O 0.84321 0.19326 0.10854 0.0
O186 O 0.83854 0.10884 0.09218 0.0
O187 O 0.85238 0.14009 0.07193 0.0
C188 C 0.85277 0.11924 0.07825 0.0
C189 C 0.84892 0.2041 0.04837 0.0
C190 C 0.84073 0.18042 0.12486 0.0
C191 C 0.78397 0.13991 0.06774 0.0
O192 O 0.7959 0.1626 0.06715 0.0
O193 O 0.79328 0.12545 0.0762 0.0
O194 O 0.83711 0.21189 0.06196 0.0
O195 O 0.8518 0.18318 0.05094 0.0
O196 O 0.16127 0.49546 0.22442 0.0
Cd197 Cd 0.18569 0.51236 0.25097 0.0
Cd198 Cd 0.15137 0.52261 0.26882 0.0
O199 O 0.13261 0.50258 0.24039 0.0
O200 O 0.20997 0.49655 0.25345 0.0
O201 O 0.18571 0.4964 0.27888 0.0
C202 C 0.20312 0.49062 0.27248 0.0
C203 C 0.13396 0.51578 0.30138 0.0
C204 C 0.1399 0.49356 0.22399 0.0
C205 C 0.19303 0.5658 0.26088 0.0
O206 O 0.17282 0.55859 0.26747 0.0
O207 O 0.20183 0.55009 0.25335 0.0
O208 O 0.12639 0.52644 0.28618 0.0
O209 O 0.15129 0.50837 0.29794 0.0
O210 O 0.80878 0.873 0.59054 0.0
Cd211 Cd 0.81192 0.89278 0.56307 0.0
Cd212 Cd 0.83067 0.85659 0.54807 0.0
O213 O 0.8199 0.8419 0.57861 0.0
O214 O 0.797 0.91769 0.57176 0.0
O215 O 0.78384 0.8909 0.54209 0.0
C216 C 0.78208 0.90916 0.55461 0.0
C217 C 0.82008 0.8399 0.51016 0.0
C218 C 0.81247 0.85297 0.59393 0.0
C219 C 0.86264 0.90931 0.55307 0.0
O220 O 0.86136 0.88671 0.55101 0.0
O221 O 0.84472 0.91501 0.55675 0.0
O222 O 0.83349 0.83239 0.52316 0.0
O223 O 0.81072 0.8549 0.51919 0.0
O224 O 0.93509 0.06926 0.18778 0.0
Cd225 Cd 0.9115 0.05659 0.21019 0.0
Cd226 Cd 0.95014 0.06266 0.23988 0.0
O227 O 0.96542 0.07649 0.21253 0.0
O228 O 0.88616 0.07118 0.21056 0.0
O229 O 0.91508 0.07883 0.23735 0.0
C230 C 0.89609 0.08205 0.2298 0.0
C231 C 0.97118 0.0787 0.27423 0.0
C232 C 0.95702 0.0771 0.19297 0.0
C233 C 0.91199 1.01152 0.2292 0.0
O234 O 0.93114 0.02563 0.23956 0.0
O235 O 0.90068 0.01987 0.21536 0.0
O236 O 0.97802 0.06549 0.26017 0.0
O237 O 0.95269 0.08385 0.26848 0.0
O238 O 0.33449 0.6732 0.62377 0.0
Cd239 Cd 0.32723 0.65087 0.59411 0.0
Cd240 Cd 0.32635 0.69191 0.57803 0.0
O241 O 0.34305 0.70827 0.60853 0.0
O242 O 0.34027 0.62368 0.59714 0.0
O243 O 0.35188 0.65218 0.57385 0.0
C244 C 0.35346 0.63257 0.58198 0.0
C245 C 0.33756 0.71202 0.54677 0.0
C246 C 0.34194 0.69674 0.62562 0.0
C247 C 0.28088 0.64989 0.57658 0.0
O248 O 0.2909 0.67301 0.57613 0.0
O249 O 0.29273 0.63622 0.58158 0.0
O250 O 0.3279 0.72097 0.56172 0.0
O251 O 0.34181 0.69189 0.54991 0.0
O252 O 0.42782 0.57186 0.71048 0.0
Cd253 Cd 0.41069 0.5617 0.73766 0.0
Cd254 Cd 0.45303 0.56877 0.7578 0.0
O255 O 0.46282 0.58397 0.72889 0.0
O256 O 0.38314 0.57249 0.7378 0.0
O257 O 0.41402 0.58675 0.76294 0.0
C258 C 0.39363 0.58675 0.7555 0.0
C259 C 0.47626 0.58538 0.79103 0.0
C260 C 0.4498 0.58163 0.71104 0.0
C261 C 0.41736 0.51677 0.75163 0.0
O262 O 0.4383 0.53075 0.75723 0.0
O263 O 0.40234 0.52556 0.74366 0.0
O264 O 0.48355 0.57483 0.7752 0.0
O265 O 0.45617 0.58808 0.78751 0.0
O266 O 0.66021 0.98577 0.72125 0.0
Cd267 Cd 0.68021 1.00129 0.75084 0.0
Cd268 Cd 0.64656 0.01971 0.75735 0.0
O269 O 0.63042 0.99724 0.72927 0.0
O270 O 0.69959 0.98097 0.75912 0.0
O271 O 0.67358 0.98792 0.77993 0.0
C272 C 0.68974 0.97841 0.77726 0.0
C273 C 0.62513 0.01945 0.78721 0.0
C274 C 0.63969 0.98593 0.71625 0.0
C275 C 0.69419 0.05588 0.75341 0.0
O276 O 0.67267 0.05257 0.75438 0.0
O277 O 0.70152 0.03763 0.7526 0.0
O278 O 0.62158 0.02984 0.7699 0.0
O279 O 0.64071 1.00881 0.78738 0.0
O280 O 0.83195 0.7294 0.08457 0.0
Cd281 Cd 0.83131 0.70705 0.05622 0.0
Cd282 Cd 0.81079 0.74095 0.03857 0.0
O283 O 0.81976 0.7586 0.07185 0.0
O284 O 0.84734 0.68466 0.06818 0.0
O285 O 0.85961 0.7066 0.04063 0.0
C286 C 0.86194 0.69068 0.05367 0.0
C287 C 0.81795 0.75787 1.00386 0.0
C288 C 0.82668 0.74889 0.08813 0.0
C289 C 0.7807 0.68675 0.03837 0.0
O290 O 0.78182 0.70878 0.03539 0.0
O291 O 0.79885 0.68218 0.04527 0.0
O292 O 0.80253 0.7617 0.01571 0.0
O293 O 0.8308 0.74628 0.01252 0.0
O294 O 0.92801 0.57567 0.80234 0.0
Cd295 Cd 0.91166 0.55903 0.82847 0.0
Cd296 Cd 0.95616 0.56041 0.84271 0.0
O297 O 0.96361 0.58321 0.81808 0.0
O298 O 0.87968 0.5602 0.82376 0.0
O299 O 0.90433 0.58005 0.85288 0.0
C300 C 0.884 0.5744 0.84199 0.0
C301 C 0.98387 0.57113 0.87319 0.0
C302 C 0.94994 0.5856 0.80241 0.0
C303 C 0.91957 0.51056 0.83059 0.0
O304 O 0.94121 0.5227 0.83463 0.0
O305 O 0.90489 0.52179 0.82901 0.0
O306 O 0.98825 0.56337 0.85426 0.0
O307 O 0.96362 0.57324 0.87487 0.0
O308 O 0.78615 0.39545 0.56968 0.0
Cd309 Cd 0.79558 0.4281 0.5553 0.0
Cd310 Cd 0.80594 0.3979 0.52227 0.0
O311 O 0.79207 0.37124 0.54278 0.0
O312 O 0.77165 0.44245 0.54363 0.0
O313 O 0.78873 0.45033 0.57788 0.0
C314 C 0.77464 0.45425 0.56306 0.0
C315 C 0.79808 0.38588 0.48445 0.0
C316 C 0.78565 0.37423 0.5618 0.0
C317 C 0.84519 0.44194 0.54391 0.0
O318 O 0.83925 0.42215 0.53097 0.0
O319 O 0.8302 0.4477 0.55432 0.0
O320 O 0.81114 0.37769 0.49699 0.0
O321 O 0.78874 0.40079 0.49352 0.0
O322 O 0.6543 0.51504 0.30369 0.0
Cd323 Cd 0.68496 0.52717 0.32416 0.0
Cd324 Cd 0.66086 0.54775 0.3489 0.0
O325 O 0.63419 0.53221 0.32388 0.0
O326 O 0.70264 0.50752 0.31083 0.0
O327 O 0.69537 0.50711 0.34589 0.0
C328 C 0.70495 0.49974 0.32984 0.0
C329 C 0.65256 0.54288 0.38517 0.0
C330 C 0.63565 0.5196 0.30643 0.0
C331 C 0.70346 0.58226 0.33242 0.0
O332 O 0.68653 0.58016 0.34395 0.0
O333 O 0.70599 0.56313 0.3228 0.0
O334 O 0.64547 0.55743 0.37366 0.0
O335 O 0.66433 0.53062 0.37589 0.0
Tb336 Tb 0.10136 0.06054 0.05661 0.0
Tb337 Tb 0.05005 0.02305 0.03343 0.0
C338 C 0.05583 0.05319 0.07988 0.0
C339 C 0.16425 0.08366 0.06457 0.0
C340 C 0.19954 0.06473 0.05408 0.0
C341 C 0.19912 0.07434 0.07586 0.0
C342 C 0.18148 0.08367 0.08109 0.0
C343 C 0.16596 0.07608 0.04251 0.0
C344 C 0.18345 0.06669 0.03731 0.0
C345 C 0.14249 0.08688 0.07071 0.0
O346 O 0.10197 0.02298 0.05822 0.0
O347 O 0.06268 1.00094 0.05538 0.0
O348 O 0.07577 0.01451 0.01495 0.0
O349 O 0.10355 0.05288 0.02157 0.0
O350 O 1.0169 0.99742 0.03623 0.0
O351 O 0.02724 1.00866 1.00444 0.0
O352 O 0.05587 0.05943 0.02138 0.0
O353 O 0.08159 0.08473 0.04954 0.0
O354 O 0.07841 0.05755 0.08258 0.0
O355 O 0.04288 0.04388 0.06117 0.0
C356 C 0.08453 1.00284 0.06068 0.0
O357 O 0.13007 0.09269 0.05509 0.0
O358 O 0.12962 0.06919 0.08121 0.0
C359 C 0.09445 0.03137 0.00971 0.0
C360 C 0.98959 1.00691 0.01295 0.0
C361 C 0.95598 0.02979 0.01906 0.0
C362 C 0.95198 1.00553 0.02458 0.0
C363 C 0.96878 0.9942 0.02164 0.0
C364 C 0.99252 0.03029 1.00566 0.0
C365 C 0.97595 0.0417 0.00882 0.0
C366 C 1.00979 0.99836 0.01571 0.0
C367 C 0.06605 0.0814 0.03251 0.0
H368 H 0.21127 0.07282 0.08909 0.0
H369 H 0.18035 0.08923 0.09821 0.0
H370 H 0.15289 0.07582 0.02944 0.0
H371 H 0.18353 0.05952 0.02039 0.0
H372 H 0.93669 0.99605 0.03257 0.0
H373 H 0.96623 0.97626 0.02754 0.0
H374 H 1.00831 0.04045 0.99878 0.0
H375 H 0.97926 0.06032 1.00424 0.0
Tb376 Tb 0.31522 0.7973 0.30702 0.0
Tb377 Tb 0.33697 0.77998 0.26369 0.0
C378 C 0.29706 0.80444 0.25879 0.0
C379 C 0.30389 0.79625 0.36386 0.0
C380 C 0.31465 0.77925 0.40396 0.0
C381 C 0.30253 0.79624 0.40352 0.0
C382 C 0.29736 0.80488 0.38355 0.0
C383 C 0.31534 0.77873 0.36425 0.0
C384 C 0.32087 0.77048 0.38414 0.0
C385 C 0.30048 0.80635 0.34298 0.0
O386 O 0.30291 0.75705 0.30101 0.0
O387 O 0.3015 0.75565 0.26375 0.0
O388 O 0.35062 0.76507 0.29145 0.0
O389 O 0.34748 0.79251 0.31911 0.0
O390 O 0.34126 0.75071 0.2438 0.0
O391 O 0.35689 0.78874 0.23696 0.0
O392 O 0.36199 0.81466 0.27914 0.0
O393 O 0.33613 0.83078 0.29405 0.0
O394 O 0.29313 0.80264 0.27967 0.0
O395 O 0.31423 0.799 0.25025 0.0
C396 C 0.29412 0.7454 0.28143 0.0
O397 O 0.31968 0.82064 0.33627 0.0
O398 O 0.28757 0.79022 0.32702 0.0
C399 C 0.35596 0.77559 0.31188 0.0
C400 C 0.34069 0.7594 0.20637 0.0
C401 C 0.31747 0.75645 0.16394 0.0
C402 C 0.3409 0.7719 0.16929 0.0
C403 C 0.35239 0.77314 0.19016 0.0
C404 C 0.31783 0.74275 0.20082 0.0
C405 C 0.30642 0.74111 0.17972 0.0
C406 C 0.35133 0.76547 0.22945 0.0
C407 C 0.35651 0.83372 0.28676 0.0
H408 H 0.29759 0.80325 0.41866 0.0
H409 H 0.28861 0.81848 0.38352 0.0
H410 H 0.32033 0.77168 0.34917 0.0
H411 H 0.32996 0.75716 0.38402 0.0
H412 H 0.35006 0.78448 0.158 0.0
H413 H 0.36997 0.78618 0.1941 0.0
H414 H 0.30833 0.73187 0.21304 0.0
H415 H 0.28861 0.72862 0.17615 0.0
Tb416 Tb 0.54031 0.04119 0.55149 0.0
Tb417 Tb 0.59333 0.05101 0.53643 0.0
C418 C 0.57849 0.02844 0.58009 0.0
C419 C 0.48586 0.05369 0.55895 0.0
C420 C 0.45858 0.08452 0.55389 0.0
C421 C 0.44888 0.0607 0.56072 0.0
C422 C 0.46245 0.04545 0.56329 0.0
C423 C 0.49548 0.07724 0.55171 0.0
C424 C 0.48202 0.09257 0.54931 0.0
C425 C 0.50038 0.03804 0.56241 0.0
O426 O 0.55655 0.08082 0.55092 0.0
O427 O 0.59479 0.08386 0.55781 0.0
O428 O 0.57661 0.06844 0.51337 0.0
O429 O 0.5389 0.04389 0.51613 0.0
O430 O 0.62949 0.06359 0.54524 0.0
O431 O 0.6151 0.04843 0.51178 0.0
O432 O 0.57122 0.01427 0.52147 0.0
O433 O 0.54213 1.00419 0.5447 0.0
O434 O 0.56238 0.0389 0.58046 0.0
O435 O 0.58957 0.02729 0.56273 0.0
C436 C 0.57831 0.09394 0.55771 0.0
O437 O 0.50377 0.02613 0.54468 0.0
O438 O 0.5197 0.04846 0.57533 0.0
C439 C 0.55451 0.0594 0.50562 0.0
C440 C 0.6472 0.03831 0.52652 0.0
C441 C 0.67337 1.00587 0.52741 0.0
C442 C 0.67601 0.02274 0.51132 0.0
C443 C 0.66308 0.03883 0.51093 0.0
C444 C 0.64416 0.02121 0.54234 0.0
C445 C 0.65718 1.00528 0.54286 0.0
C446 C 0.63362 0.05528 0.52604 0.0
C447 C 0.55438 0.99769 0.53001 0.0
H448 H 0.43095 0.05408 0.56458 0.0
H449 H 0.45474 0.02734 0.5689 0.0
H450 H 0.51348 0.08386 0.5481 0.0
H451 H 0.48992 0.11068 0.5438 0.0
H452 H 0.688 0.02346 0.49893 0.0
H453 H 0.66549 0.05168 0.49844 0.0
H454 H 0.63186 0.02029 0.55446 0.0
H455 H 0.65487 0.99287 0.5557 0.0
Tb456 Tb 0.34475 0.29058 0.80054 0.0
Tb457 Tb 0.29839 0.3072 0.79413 0.0
C458 C 0.29443 0.25201 0.7987 0.0
C459 C 0.40189 0.28434 0.79176 0.0
C460 C 0.44041 0.29222 0.76683 0.0
C461 C 0.42996 0.26913 0.7747 0.0
C462 C 0.41093 0.26527 0.78713 0.0
C463 C 0.41212 0.30736 0.78368 0.0
C464 C 0.43132 0.31131 0.77147 0.0
C465 C 0.38154 0.27978 0.80457 0.0
O466 O 0.33344 0.28316 0.76495 0.0
O467 O 0.30984 0.30704 0.76083 0.0
O468 O 0.329 0.34032 0.801 0.0
O469 O 0.35593 0.32566 0.78675 0.0
O470 O 0.26465 0.30238 0.77961 0.0
O471 O 0.28291 0.3335 0.80349 0.0
O472 O 0.30065 0.29818 0.82832 0.0
O473 O 0.34013 0.30665 0.83304 0.0
O474 O 0.31588 0.25929 0.80834 0.0
O475 O 0.28603 0.26716 0.78871 0.0
C476 C 0.32182 0.29383 0.75235 0.0
O477 O 0.37905 0.29919 0.81508 0.0
O478 O 0.36178 0.26469 0.79462 0.0
C479 C 0.34873 0.34404 0.79234 0.0
C480 C 0.24244 0.31671 0.80391 0.0
C481 C 0.20397 0.31002 0.82872 0.0
C482 C 0.21139 0.3304 0.81628 0.0
C483 C 0.23044 0.33368 0.80398 0.0
C484 C 0.23519 0.29634 0.81625 0.0
C485 C 0.21606 0.29296 0.82847 0.0
C486 C 0.26319 0.32121 0.79187 0.0
C487 C 0.32017 0.30372 0.8414 0.0
H488 H 0.43674 0.25416 0.7715 0.0
H489 H 0.40323 0.24736 0.79311 0.0
H490 H 0.40528 0.32231 0.78674 0.0
H491 H 0.4389 0.32919 0.76541 0.0
H492 H 0.20273 0.34407 0.81635 0.0
H493 H 0.23601 0.34966 0.79474 0.0
H494 H 0.2444 0.28315 0.81652 0.0
H495 H 0.21064 0.27688 0.83759 0.0
Tb496 Tb 0.06221 0.08239 0.56545 0.0
Tb497 Tb 0.0615 0.05224 0.5192 0.0
C498 C 1.01704 0.04337 0.54251 0.0
C499 C 0.05371 0.09311 0.62311 0.0
C500 C 0.04645 0.06691 0.66074 0.0
C501 C 0.0302 0.05899 0.64185 0.0
C502 C 0.0339 0.07186 0.62312 0.0
C503 C 0.06901 0.10203 0.6424 0.0
C504 C 0.06554 0.08901 0.66097 0.0
C505 C 0.0607 0.10364 0.60242 0.0
O506 O 0.0704 0.04928 0.57571 0.0
O507 O 0.06141 0.02428 0.54277 0.0
O508 O 0.09732 0.0644 0.53403 0.0
O509 O 0.09608 0.09897 0.55386 0.0
O510 O 0.04369 0.02267 0.49511 0.0
O511 O 0.07711 0.04878 0.49016 0.0
O512 O 0.06638 0.09057 0.51063 0.0
O513 O 0.05288 0.10533 0.54068 0.0
O514 O 0.03048 0.05081 0.56105 0.0
O515 O 1.0257 0.04954 0.52391 0.0
C516 C 0.06675 0.02734 0.56456 0.0
O517 O 0.07962 0.10061 0.59601 0.0
O518 O 0.04425 0.09888 0.5861 0.0
C519 C 0.10788 0.08667 0.54406 0.0
C520 C 0.04843 0.03725 0.46034 0.0
C521 C 0.03179 0.05193 0.42139 0.0
C522 C 0.04251 0.03369 0.42035 0.0
C523 C 0.0509 0.02648 0.43976 0.0
C524 C 0.03734 0.05509 0.46139 0.0
C525 C 0.02918 0.06246 0.44209 0.0
C526 C 0.05847 0.03132 0.48085 0.0
C527 C 0.05943 0.10779 0.52046 0.0
H528 H 1.01516 0.0423 0.64118 0.0
H529 H 1.02187 0.06447 0.60835 0.0
H530 H 0.08452 0.11819 0.64263 0.0
H531 H 0.07877 0.09551 0.67494 0.0
H532 H 0.04483 0.02542 0.40455 0.0
H533 H 0.05956 1.01282 0.43871 0.0
H534 H 0.03523 0.06354 0.47719 0.0
H535 H 1.02073 0.0763 0.44334 0.0
Tb536 Tb 0.32511 0.84806 0.78371 0.0
Tb537 Tb 0.29892 0.79549 0.80043 0.0
C538 C 0.32297 0.79935 0.7567 0.0
C539 C 0.34273 0.91413 0.78597 0.0
C540 C 0.32499 0.94712 0.80863 0.0
C541 C 0.32529 0.94629 0.78552 0.0
C542 C 0.33406 0.92984 0.77426 0.0
C543 C 0.3449 0.91706 0.80926 0.0
C544 C 0.33603 0.93338 0.82049 0.0
C545 C 0.34428 0.89153 0.77425 0.0
O546 O 0.28705 0.84402 0.77963 0.0
O547 O 0.2712 0.80189 0.77794 0.0
O548 O 0.2894 0.8222 0.82092 0.0
O549 O 0.32168 0.85541 0.81845 0.0
O550 O 0.27849 0.75792 0.79365 0.0
O551 O 0.28953 0.77482 0.82731 0.0
O552 O 0.33596 0.8048 0.81537 0.0
O553 O 0.35487 0.83592 0.79492 0.0
O554 O 0.3214 0.82139 0.7553 0.0
O555 O 0.31895 0.78815 0.77464 0.0
C556 C 0.26864 0.8235 0.77472 0.0
O557 O 0.35519 0.87959 0.7855 0.0
O558 O 0.32468 0.87654 0.76399 0.0
C559 C 0.30343 0.84433 0.82847 0.0
C560 C 0.29157 0.73513 0.81859 0.0
C561 C 0.31515 0.70066 0.81764 0.0
C562 C 0.32673 0.72512 0.82689 0.0
C563 C 0.31506 0.74222 0.82734 0.0
C564 C 0.27951 0.71031 0.81078 0.0
C565 C 0.29121 0.69312 0.81036 0.0
C566 C 0.28096 0.7541 0.81441 0.0
C567 C 0.35574 0.81982 0.80917 0.0
H568 H 0.3167 0.95655 0.77593 0.0
H569 H 0.33213 0.92782 0.75634 0.0
H570 H 0.35164 0.90529 0.81881 0.0
H571 H 0.33619 0.93385 0.83831 0.0
H572 H 0.34512 0.73132 0.83279 0.0
H573 H 0.32483 0.76127 0.83345 0.0
H574 H 0.26146 0.70455 0.80381 0.0
H575 H 0.28195 0.6744 0.80297 0.0
Tb576 Tb 0.57799 0.04254 0.07373 0.0
Tb577 Tb 0.55855 0.05768 0.02888 0.0
C578 C 0.61058 0.07679 0.04548 0.0
C579 C 0.60866 0.04761 0.12881 0.0
C580 C 0.62348 0.07835 0.16891 0.0
C581 C 0.62821 0.0883 0.14864 0.0
C582 C 0.62062 0.07307 0.12871 0.0
C583 C 0.60598 0.03726 0.14887 0.0
C584 C 0.61325 0.05242 0.16872 0.0
C585 C 0.59596 0.03241 0.10858 0.0
O586 O 0.56909 0.07564 0.08581 0.0
O587 O 0.56207 0.09023 0.0527 0.0
O588 O 0.52985 0.04635 0.04899 0.0
O589 O 0.54191 0.01863 0.06664 0.0
O590 O 0.56327 0.08231 1.00442 0.0
O591 O 0.53201 0.05022 1.0029 0.0
O592 O 0.55681 0.01879 0.02001 0.0
O593 O 0.58326 0.01634 0.04749 0.0
O594 O 0.60338 0.07562 0.06506 0.0
O595 O 0.59596 0.06499 0.02834 0.0
C596 C 0.5648 0.093 0.07466 0.0
O597 O 0.57408 0.03075 0.10538 0.0
O598 O 0.60643 0.03635 0.09061 0.0
C599 C 0.52517 0.02654 0.0595 0.0
C600 C 0.54743 0.06131 0.96954 0.0
C601 C 0.55729 0.04989 0.92665 0.0
C602 C 0.55362 0.07234 0.93232 0.0
C603 C 0.54867 0.07799 0.95366 0.0
C604 C 0.5507 0.03869 0.9638 0.0
C605 C 0.55547 0.03297 0.94248 0.0
C606 C 0.54433 0.06824 0.99239 0.0
C607 C 0.57049 1.00721 0.02834 0.0
H608 H 0.63638 0.10804 0.14808 0.0
H609 H 0.62285 0.0814 0.11327 0.0
H610 H 0.5967 0.01766 0.14919 0.0
H611 H 0.60882 0.04386 0.18378 0.0
H612 H 0.55487 0.08563 0.92034 0.0
H613 H 0.54631 0.09557 0.9579 0.0
H614 H 0.5501 0.02567 0.97592 0.0
H615 H 0.55858 0.01572 0.93862 0.0
Tb616 Tb 0.30429 0.26336 0.28944 0.0
Tb617 Tb 0.32719 0.32125 0.30253 0.0
C618 C 0.30967 0.29977 0.25314 0.0
C619 C 0.29898 0.19793 0.28136 0.0
C620 C 0.32687 0.16779 0.28493 0.0
C621 C 0.31873 0.17225 0.26406 0.0
C622 C 0.30477 0.18707 0.26228 0.0
C623 C 0.30601 0.19225 0.30224 0.0
C624 C 0.31978 0.17721 0.30398 0.0
C625 C 0.28806 0.21714 0.27933 0.0
O626 O 0.34064 0.27103 0.2798 0.0
O627 O 0.3587 0.31102 0.29538 0.0
O628 O 0.32307 0.30557 0.33406 0.0
O629 O 0.32238 0.26671 0.32267 0.0
O630 O 0.32968 0.35675 0.29467 0.0
O631 O 0.34965 0.35169 0.32362 0.0
O632 O 0.28886 0.31433 0.30543 0.0
O633 O 0.27538 0.27212 0.30466 0.0
O634 O 0.29471 0.28074 0.2609 0.0
O635 O 0.32649 0.31554 0.26671 0.0
C636 C 0.35989 0.29074 0.28425 0.0
O637 O 0.28495 0.2281 0.29768 0.0
O638 O 0.29649 0.23303 0.26532 0.0
C639 C 0.32424 0.2841 0.33867 0.0
C640 C 0.33334 0.38361 0.32599 0.0
C641 C 0.30585 0.41144 0.34005 0.0
C642 C 0.30176 0.38743 0.34634 0.0
C643 C 0.31532 0.37354 0.33922 0.0
C644 C 0.33899 0.40831 0.32162 0.0
C645 C 0.32539 0.42217 0.32861 0.0
C646 C 0.34267 0.36731 0.31299 0.0
C647 C 0.27198 0.29355 0.30863 0.0
H648 H 0.32374 0.16484 0.24913 0.0
H649 H 0.29942 0.19098 0.24602 0.0
H650 H 0.30178 0.20026 0.31729 0.0
H651 H 0.32589 0.174 0.32025 0.0
H652 H 0.28706 0.37875 0.35537 0.0
H653 H 0.31062 0.35436 0.34263 0.0
H654 H 0.35268 0.41625 0.31123 0.0
H655 H 0.32895 0.44047 0.32321 0.0
Tb656 Tb 0.5746 0.56625 0.07329 0.0
Tb657 Tb 0.5718 0.53728 0.02557 0.0
C658 C 0.52811 0.52929 0.05012 0.0
C659 C 0.57124 0.57908 0.13302 0.0
C660 C 0.56634 0.56021 0.17451 0.0
C661 C 0.54932 0.54915 0.15653 0.0
C662 C 0.55184 0.5584 0.13589 0.0
C663 C 0.58769 0.59067 0.15107 0.0
C664 C 0.58541 0.58127 0.17151 0.0
C665 C 0.57601 0.58753 0.11114 0.0
O666 O 0.58231 0.53228 0.08159 0.0
O667 O 0.57143 0.50826 0.04809 0.0
O668 O 0.60823 0.54916 0.03877 0.0
O669 O 0.60778 0.58286 0.06054 0.0
O670 O 0.55262 0.50896 1.00087 0.0
O671 O 0.58648 0.53414 0.99589 0.0
O672 O 0.57623 0.57577 0.01802 0.0
O673 O 0.56653 0.59144 0.05003 0.0
O674 O 0.54176 0.53587 0.06862 0.0
O675 O 0.53666 0.53589 0.03157 0.0
C676 C 0.57755 0.51053 0.06973 0.0
O677 O 0.59396 0.5836 0.10331 0.0
O678 O 0.55822 0.58227 0.0961 0.0
C679 C 0.61913 0.57105 0.04945 0.0
C680 C 0.5572 0.52558 0.96684 0.0
C681 C 0.54172 0.54482 0.92997 0.0
C682 C 0.55261 0.52685 0.92716 0.0
C683 C 0.56045 0.5174 0.94553 0.0
C684 C 0.54592 0.54312 0.96962 0.0
C685 C 0.53834 0.55273 0.95137 0.0
C686 C 0.56716 0.51782 0.98645 0.0
C687 C 0.57133 0.59369 0.02922 0.0
H688 H 0.53433 0.53307 0.15824 0.0
H689 H 0.53897 0.54899 0.12209 0.0
H690 H 0.60291 0.60645 0.14911 0.0
H691 H 0.59927 0.58997 0.18466 0.0
H692 H 0.55552 0.52055 0.9108 0.0
H693 H 0.56935 0.50408 0.94314 0.0
H694 H 0.54327 0.54967 0.98597 0.0
H695 H 0.52974 0.56629 0.954 0.0
Tb696 Tb 0.83127 0.32956 0.28714 0.0
Tb697 Tb 0.80521 0.27824 0.30562 0.0
C698 C 0.82761 0.27973 0.26109 0.0
C699 C 0.84701 0.39504 0.28768 0.0
C700 C 0.82731 0.42726 0.30882 0.0
C701 C 0.82736 0.42535 0.2857 0.0
C702 C 0.83709 0.40925 0.27518 0.0
C703 C 0.84907 0.39898 0.31094 0.0
C704 C 0.83917 0.41484 0.3214 0.0
C705 C 0.8501 0.37269 0.27693 0.0
O706 O 0.79329 0.32562 0.28233 0.0
O707 O 0.77736 0.28372 0.28262 0.0
O708 O 0.79459 0.30542 0.32418 0.0
O709 O 0.82717 0.33809 0.3215 0.0
O710 O 0.78331 0.24119 0.29995 0.0
O711 O 0.79719 0.25819 0.33314 0.0
O712 O 0.84227 0.28889 0.32117 0.0
O713 O 0.86079 0.31667 0.29779 0.0
O714 O 0.82664 0.30196 0.25934 0.0
O715 O 0.82414 0.26929 0.27948 0.0
C716 C 0.77486 0.30503 0.27821 0.0
O717 O 0.86095 0.36156 0.2893 0.0
O718 O 0.83133 0.35692 0.26594 0.0
C719 C 0.80823 0.32793 0.3309 0.0
C720 C 0.79664 0.21751 0.32347 0.0
C721 C 0.81953 0.1831 0.31611 0.0
C722 C 0.79544 0.17641 0.30993 0.0
C723 C 0.78406 0.19355 0.3136 0.0
C724 C 0.82013 0.22327 0.33174 0.0
C725 C 0.83146 0.20615 0.32815 0.0
C726 C 0.78697 0.23744 0.32055 0.0
C727 C 0.86199 0.30235 0.31363 0.0
H728 H 0.81818 0.43468 0.27564 0.0
H729 H 0.83516 0.40642 0.25728 0.0
H730 H 0.85671 0.38841 0.32111 0.0
H731 H 0.83952 0.41624 0.33925 0.0
H732 H 0.78585 0.15878 0.30054 0.0
H733 H 0.76598 0.18882 0.30701 0.0
H734 H 0.83027 0.24162 0.33945 0.0
H735 H 0.84996 0.21158 0.33338 0.0
Tb736 Tb 0.06144 0.55925 0.58219 0.0
Tb737 Tb 0.0571 0.57879 0.53445 0.0
C738 C 0.10563 0.58146 0.55847 0.0
C739 C 0.05198 0.55581 0.63941 0.0
C740 C 0.03158 0.57279 0.67421 0.0
C741 C 0.04709 0.55971 0.67838 0.0
C742 C 0.05719 0.55123 0.66104 0.0
C743 C 0.03695 0.56928 0.63526 0.0
C744 C 0.02675 0.57758 0.65247 0.0
C745 C 0.06249 0.54742 0.62099 0.0
O746 O 0.06716 0.59954 0.58879 0.0
O747 O 0.04811 0.60544 0.55719 0.0
O748 O 1.0228 0.55351 0.53832 0.0
O749 O 1.02572 0.558 0.57589 0.0
O750 O 0.07076 0.60606 0.51323 0.0
O751 O 0.03931 0.57535 0.50295 0.0
O752 O 0.06384 0.54362 0.52638 0.0
O753 O 0.05682 0.52583 0.55894 0.0
O754 O 0.09518 0.56451 0.57095 0.0
O755 O 0.09409 0.59216 0.54614 0.0
C756 C 0.05703 0.61302 0.57793 0.0
O757 O 0.04761 0.53377 0.60478 0.0
O758 O 0.07939 0.56481 0.61387 0.0
C759 C 1.01315 0.5508 0.55681 0.0
C760 C 0.06638 0.58653 0.47746 0.0
C761 C 0.08239 0.56758 0.4407 0.0
C762 C 0.06802 0.58209 0.43791 0.0
C763 C 0.05987 0.59137 0.45625 0.0
C764 C 0.08144 0.57284 0.48028 0.0
C765 C 0.08924 0.56325 0.46202 0.0
C766 C 0.05599 0.5935 0.4966 0.0
C767 C 0.06036 0.52411 0.53772 0.0
H768 H 0.05143 0.55607 0.69503 0.0
H769 H 0.06901 0.54115 0.66451 0.0
H770 H 0.03298 0.57326 0.61865 0.0
H771 H 1.01469 0.58728 0.64863 0.0
H772 H 0.06253 0.58555 0.42152 0.0
H773 H 0.04813 0.60177 0.45385 0.0
H774 H 0.08675 0.56908 0.4966 0.0
H775 H 0.10052 0.55234 0.46452 0.0
Tb776 Tb 0.84694 0.79788 0.30229 0.0
Tb777 Tb 0.79583 0.8048 0.29383 0.0
C778 C 0.80056 0.75401 0.30382 0.0
C779 C 0.90637 0.79817 0.29426 0.0
C780 C 0.94384 0.80594 0.26802 0.0
C781 C 0.9464 0.80104 0.29017 0.0
C782 C 0.92779 0.79714 0.30316 0.0
C783 C 0.90376 0.80337 0.27226 0.0
C784 C 0.92231 0.80711 0.25921 0.0
C785 C 0.88685 0.79387 0.30796 0.0
O786 O 0.83558 0.78574 0.26692 0.0
O787 O 0.8062 0.80221 0.2603 0.0
O788 O 0.82238 0.84122 0.29521 0.0
O789 O 0.85271 0.8299 0.28426 0.0
O790 O 0.7607 0.79244 0.2804 0.0
O791 O 0.77577 0.82741 0.30038 0.0
O792 O 0.8008 0.80073 0.32912 0.0
O793 O 0.84067 0.81536 0.33352 0.0
O794 O 0.82188 0.76538 0.31314 0.0
O795 O 0.78945 0.76534 0.29171 0.0
C796 C 0.82104 0.79183 0.25315 0.0
O797 O 0.88219 0.81356 0.31488 0.0
O798 O 0.86794 0.77549 0.3005 0.0
C799 C 0.8421 0.84616 0.28629 0.0
C800 C 0.73682 0.80494 0.30398 0.0
C801 C 0.70068 0.79691 0.33178 0.0
C802 C 0.70172 0.81191 0.31437 0.0
C803 C 0.71965 0.81589 0.3006 0.0
C804 C 0.7357 0.78961 0.32106 0.0
C805 C 0.71771 0.78555 0.33482 0.0
C806 C 0.75665 0.81104 0.29064 0.0
C807 C 0.82053 0.81002 0.34203 0.0
H808 H 0.96266 0.79972 0.29735 0.0
H809 H 0.93008 0.79318 0.32012 0.0
H810 H 0.88737 0.80448 0.26522 0.0
H811 H 0.91986 0.81107 0.24227 0.0
H812 H 0.6887 0.82067 0.31147 0.0
H813 H 0.72035 0.82786 0.28754 0.0
H814 H 0.74899 0.78121 0.32403 0.0
H815 H 0.7175 0.77411 0.34821 0.0
Tb816 Tb 0.81027 0.2817 0.8137 0.0
Tb817 Tb 0.83974 0.27602 0.77231 0.0
C818 C 0.79581 0.2939 0.76639 0.0
C819 C 0.79855 0.28257 0.87112 0.0
C820 C 0.8169 0.27248 0.9118 0.0
C821 C 0.83008 0.29229 0.90079 0.0
C822 C 0.82108 0.29716 0.88056 0.0
C823 C 0.78499 0.26355 0.88254 0.0
C824 C 0.7941 0.25842 0.90254 0.0
C825 C 0.79047 0.28414 0.84808 0.0
O826 O 0.78956 0.24902 0.79215 0.0
O827 O 0.82064 0.2396 0.78109 0.0
O828 O 0.8625 0.2763 0.80156 0.0
O829 O 0.83437 0.26351 0.82533 0.0
O830 O 0.84131 0.25353 0.74433 0.0
O831 O 0.86874 0.28842 0.7542 0.0
O832 O 0.84693 0.31524 0.78081 0.0
O833 O 0.84279 0.31262 0.81748 0.0
O834 O 0.79674 0.29909 0.78791 0.0
O835 O 0.80818 0.28135 0.75767 0.0
C836 C 0.79852 0.2329 0.78409 0.0
O837 O 0.80205 0.30362 0.83877 0.0
O838 O 0.78618 0.26382 0.83508 0.0
C839 C 0.85581 0.26772 0.82027 0.0
C840 C 0.85537 0.27783 0.71606 0.0
C841 C 0.83741 0.29018 0.67652 0.0
C842 C 0.85028 0.30885 0.6932 0.0
C843 C 0.85912 0.30275 0.71284 0.0
C844 C 0.84398 0.25933 0.69872 0.0
C845 C 0.83488 0.26544 0.67915 0.0
C846 C 0.85923 0.27061 0.73832 0.0
C847 C 0.85113 0.32553 0.80126 0.0
H848 H 0.84753 0.30378 0.90757 0.0
H849 H 0.8321 0.31179 0.87199 0.0
H850 H 0.76775 0.2518 0.8754 0.0
H851 H 0.78353 0.2427 0.91022 0.0
H852 H 0.85235 0.32808 0.69158 0.0
H853 H 0.86769 0.31745 0.72591 0.0
H854 H 0.84086 0.24 0.70084 0.0
H855 H 0.82525 0.25079 0.66637 0.0
Tb856 Tb 0.79716 0.77838 0.79148 0.0
Tb857 Tb 0.82071 0.83578 0.80744 0.0
C858 C 0.8043 0.81699 0.75653 0.0
C859 C 0.77639 0.71055 0.79108 0.0
C860 C 0.78533 0.67217 0.81181 0.0
C861 C 0.77721 0.66872 0.78918 0.0
C862 C 0.77297 0.6879 0.77885 0.0
C863 C 0.78193 0.7131 0.81406 0.0
C864 C 0.78643 0.69403 0.82441 0.0
C865 C 0.77867 0.73248 0.77945 0.0
O866 O 0.83293 0.78788 0.77973 0.0
O867 O 0.85187 0.82563 0.79932 0.0
O868 O 0.81676 0.818 0.83812 0.0
O869 O 0.8125 0.77831 0.82523 0.0
O870 O 0.82375 0.87244 0.80303 0.0
O871 O 0.84386 0.86414 0.83009 0.0
O872 O 0.78256 0.82885 0.81086 0.0
O873 O 0.76942 0.78672 0.80954 0.0
O874 O 0.7898 0.79667 0.76287 0.0
O875 O 0.81975 0.83321 0.77117 0.0
C876 C 0.8526 0.80667 0.78593 0.0
O877 O 0.76705 0.74652 0.78601 0.0
O878 O 0.80007 0.74549 0.77707 0.0
C879 C 0.8161 0.79559 0.84179 0.0
C880 C 0.82735 0.89523 0.83696 0.0
C881 C 0.80137 0.92321 0.85443 0.0
C882 C 0.82467 0.93488 0.84996 0.0
C883 C 0.83733 0.92099 0.84071 0.0
C884 C 0.80593 0.88335 0.84488 0.0
C885 C 0.79291 0.89712 0.85327 0.0
C886 C 0.83683 0.88101 0.82171 0.0
C887 C 0.76588 0.80801 0.81413 0.0
H888 H 0.7758 0.65184 0.77917 0.0
H889 H 0.76866 0.68564 0.76108 0.0
H890 H 0.78446 0.73049 0.82368 0.0
H891 H 0.79266 0.69725 0.84183 0.0
H892 H 0.83257 0.95483 0.85188 0.0
H893 H 0.85418 0.93045 0.83519 0.0
H894 H 0.79829 0.86337 0.84277 0.0
H895 H 0.77538 0.88697 0.85671 0.0
Tb896 Tb 0.59161 0.56205 0.58036 0.0
Tb897 Tb 0.5456 0.52561 0.54911 0.0
C898 C 0.54218 0.55128 0.59469 0.0
C899 C 0.65221 0.58901 0.60275 0.0
C900 C 0.69044 0.57259 0.59988 0.0
C901 C 0.68188 0.57509 0.62038 0.0
C902 C 0.66292 0.58335 0.62181 0.0
C903 C 0.66236 0.58899 0.58277 0.0
C904 C 0.68139 0.5809 0.58138 0.0
C905 C 0.62836 0.58975 0.60282 0.0
O906 O 0.59476 0.52551 0.58034 0.0
O907 O 0.55641 0.50131 0.57048 0.0
O908 O 0.57424 0.51948 0.53392 0.0
O909 O 0.60242 0.55642 0.54756 0.0
O910 O 0.51168 0.49988 0.54777 0.0
O911 O 0.52628 0.51329 0.51797 0.0
O912 O 0.55565 0.56213 0.53672 0.0
O913 O 0.57248 0.58558 0.56925 0.0
O914 O 0.56328 0.55193 0.60125 0.0
O915 O 0.53409 0.54648 0.57385 0.0
C916 C 0.57783 0.50402 0.57878 0.0
O917 O 0.61956 0.59569 0.58479 0.0
O918 O 0.61355 0.57057 0.6101 0.0
C919 C 0.59468 0.53646 0.53328 0.0
C920 C 0.4884 0.51368 0.52341 0.0
C921 C 0.45668 0.53942 0.52863 0.0
C922 C 0.45032 0.51424 0.53216 0.0
C923 C 0.46611 0.50149 0.52963 0.0
C924 C 0.49402 0.53831 0.51828 0.0
C925 C 0.47833 0.55101 0.52085 0.0
C926 C 0.50717 0.50306 0.52716 0.0
C927 C 0.56216 0.58333 0.54922 0.0
H928 H 0.68882 0.56903 0.63492 0.0
H929 H 0.65542 0.58332 0.63739 0.0
H930 H 0.65453 0.59326 0.56774 0.0
H931 H 0.6876 0.57905 0.56536 0.0
H932 H 0.43378 0.50485 0.53827 0.0
H933 H 0.46151 0.48267 0.534 0.0
H934 H 0.51112 0.54839 0.51362 0.0
H935 H 0.48356 0.57029 0.51767 0.0
Tb936 Tb 0.04545 0.5381 0.04726 0.0
Tb937 Tb 0.10224 0.54878 0.04778 0.0
C938 C 0.07457 0.52889 0.08666 0.0
C939 C 0.99049 0.55223 0.04527 0.0
C940 C 0.966 0.58633 0.04298 0.0
C941 C 0.98345 0.58923 0.06041 0.0
C942 C 0.99561 0.57247 0.06149 0.0
C943 C 0.97329 0.54943 0.02774 0.0
C944 C 0.96125 0.56631 0.02654 0.0
C945 C 1.00302 0.53413 0.04629 0.0
O946 O 0.06284 0.57442 0.06543 0.0
O947 O 0.0995 0.58557 0.05314 0.0
O948 O 0.08736 0.54654 0.01383 0.0
O949 O 0.05912 0.5624 0.02247 0.0
O950 O 0.13327 0.55013 0.06592 0.0
O951 O 0.13305 0.55773 0.03189 0.0
O952 O 0.08587 0.5088 0.04315 0.0
O953 O 0.04877 0.50541 0.02894 0.0
O954 O 0.05541 0.51876 0.07333 0.0
O955 O 0.0918 0.54732 0.08104 0.0
C956 C 0.08282 0.59126 0.06241 0.0
O957 O 1.01292 0.5304 0.02872 0.0
O958 O 1.01639 0.53569 0.06447 0.0
C959 C 0.07306 0.55837 0.00857 0.0
C960 C 0.15839 0.53708 0.04478 0.0
C961 C 0.18399 0.50436 0.04059 0.0
C962 C 0.19545 0.52982 0.04686 0.0
C963 C 0.18275 0.54599 0.04896 0.0
C964 C 0.14684 0.51181 0.03807 0.0
C965 C 0.15952 0.49558 0.03602 0.0
C966 C 0.14517 0.55394 0.0489 0.0
C967 C 0.0654 0.49578 0.0326 0.0
H968 H 0.98745 0.60416 0.07354 0.0
H969 H 1.00889 0.57534 0.07517 0.0
H970 H 0.96915 0.53414 0.01491 0.0
H971 H 0.94827 0.56368 0.01265 0.0
H972 H 0.2142 0.53717 0.05084 0.0
H973 H 0.19192 0.5654 0.05434 0.0
H974 H 0.12802 0.50459 0.03477 0.0
H975 H 0.15017 0.47614 0.03097 0.0
C976 C 0.05182 0.19722 0.97802 0.0
C977 C 0.03584 0.20733 0.98665 0.0
C978 C 0.05619 0.1771 0.98675 0.0
C979 C 0.04407 0.1664 1.00446 0.0
C980 C 0.02805 0.17661 0.01348 0.0
C981 C 1.02428 0.19713 1.00459 0.0
C982 C 0.07367 0.16712 0.97682 0.0
C983 C 1.01455 0.16551 0.03216 0.0
C984 C 0.04153 0.09992 0.0093 0.0
C985 C 0.05967 0.10299 0.02596 0.0
C986 C 0.03548 0.12022 1.00292 0.0
C987 C 0.04816 0.14435 0.01313 0.0
C988 C 0.06622 0.14754 0.03023 0.0
C989 C 0.07165 0.12687 0.03652 0.0
C990 C 1.01588 0.11588 0.98484 0.0
C991 C 0.08035 0.17294 0.04141 0.0
H992 H 0.06101 0.20508 0.96428 0.0
H993 H 1.01181 0.20473 0.01127 0.0
H994 H 0.08737 0.16716 0.98985 0.0
H995 H 0.06486 0.14765 0.96966 0.0
H996 H 0.08224 0.17808 0.96362 0.0
H997 H 1.00323 0.17596 0.03774 0.0
H998 H 1.00344 0.14606 0.02678 0.0
H999 H 0.02673 0.16511 0.04644 0.0
H1000 H 0.03212 0.08168 1.00104 0.0
H1001 H 0.08563 0.12955 0.04949 0.0
H1002 H 1.02297 0.12463 0.97006 0.0
H1003 H 1.00321 0.12461 0.99032 0.0
H1004 H 1.00642 0.09586 0.97993 0.0
H1005 H 0.09046 0.18433 0.02922 0.0
H1006 H 0.09273 0.17216 0.0554 0.0
H1007 H 0.06865 0.18252 0.04768 0.0
C1008 C 0.1817 0.80702 0.19727 0.0
C1009 C 0.18264 0.82375 0.18141 0.0
C1010 C 0.20206 0.80596 0.20869 0.0
C1011 C 0.22403 0.8226 0.20476 0.0
C1012 C 0.22516 0.83996 0.18913 0.0
C1013 C 0.20444 0.84006 0.17734 0.0
C1014 C 0.20004 0.78656 0.22461 0.0
C1015 C 0.24824 0.8582 0.18472 0.0
C1016 C 0.26971 0.82795 0.25227 0.0
C1017 C 0.2807 0.81178 0.24401 0.0
C1018 C 0.25252 0.83327 0.23898 0.0
C1019 C 0.24559 0.82144 0.21716 0.0
C1020 C 0.25742 0.80596 0.20844 0.0
C1021 C 0.27502 0.80153 0.22192 0.0
C1022 C 0.24107 0.85071 0.24862 0.0
C1023 C 0.25048 0.7925 0.18549 0.0
H1024 H 0.16498 0.79405 0.20026 0.0
H1025 H 0.20528 0.85294 0.16504 0.0
H1026 H 0.21059 0.77491 0.21983 0.0
H1027 H 0.20706 0.7956 0.24154 0.0
H1028 H 0.18172 0.77432 0.22507 0.0
H1029 H 0.24605 0.87165 0.17329 0.0
H1030 H 0.258 0.86856 0.20049 0.0
H1031 H 0.25908 0.84816 0.17737 0.0
H1032 H 0.27434 0.83623 0.26925 0.0
H1033 H 0.28343 0.78894 0.21548 0.0
H1034 H 0.22305 0.84003 0.25192 0.0
H1035 H 0.23981 0.86403 0.2367 0.0
H1036 H 0.25078 0.86124 0.26436 0.0
H1037 H 0.24485 0.80369 0.17368 0.0
H1038 H 0.2356 0.77516 0.18608 0.0
H1039 H 0.26508 0.7875 0.1791 0.0
C1040 C 0.55391 0.85748 0.51035 0.0
C1041 C 0.53864 0.84504 0.49162 0.0
C1042 C 0.55565 0.88171 0.51838 0.0
C1043 C 0.54173 0.89371 0.50747 0.0
C1044 C 0.52554 0.88078 0.48922 0.0
C1045 C 0.52422 0.85671 0.48154 0.0
C1046 C 0.57311 0.89484 0.53792 0.0
C1047 C 0.51026 0.89276 0.47716 0.0
C1048 C 0.53463 0.95251 0.53433 0.0
C1049 C 0.55058 0.97099 0.52402 0.0
C1050 C 0.53183 0.92732 0.52945 0.0
C1051 C 0.54527 0.92038 0.51389 0.0
C1052 C 0.56147 0.93895 0.50354 0.0
C1053 C 0.5639 0.96393 0.50871 0.0
C1054 C 0.51443 0.90811 0.54088 0.0
C1055 C 0.57617 0.93243 0.48685 0.0
H1056 H 0.56514 0.84868 0.51826 0.0
H1057 H 0.51218 0.84725 0.46718 0.0
H1058 H 0.58737 0.91025 0.53241 0.0
H1059 H 0.56473 0.90308 0.55042 0.0
H1060 H 0.58089 0.88224 0.54593 0.0
H1061 H 0.49736 0.87961 0.46434 0.0
H1062 H 0.50073 0.9003 0.48899 0.0
H1063 H 0.5213 0.90853 0.46902 0.0
H1064 H 0.52441 0.95771 0.54636 0.0
H1065 H 0.57641 0.97796 0.50072 0.0
H1066 H 0.52325 0.89685 0.54961 0.0
H1067 H 0.50081 0.89528 0.52845 0.0
H1068 H 0.50579 0.91653 0.55302 0.0
H1069 H 0.58638 0.92168 0.49428 0.0
H1070 H 0.58846 0.94909 0.48078 0.0
H1071 H 0.56471 0.92056 0.47247 0.0
C1072 C 0.54661 0.31879 0.69028 0.0
C1073 C 0.56162 0.30653 0.69797 0.0
C1074 C 0.52683 0.31816 0.70103 0.0
C1075 C 0.5222 0.30528 0.72005 0.0
C1076 C 0.53774 0.2936 0.72827 0.0
C1077 C 0.55715 0.29422 0.71705 0.0
C1078 C 0.51053 0.33063 0.69165 0.0
C1079 C 0.53363 0.27999 0.7487 0.0
C1080 C 0.48087 0.31736 0.75958 0.0
C1081 C 0.46089 0.29639 0.75401 0.0
C1082 C 0.50082 0.32083 0.74834 0.0
C1083 C 0.50064 0.30304 0.73095 0.0
C1084 C 0.48022 0.28223 0.72481 0.0
C1085 C 0.46065 0.27907 0.73652 0.0
C1086 C 0.52234 0.34308 0.75556 0.0
C1087 C 0.47922 0.26302 0.70617 0.0
H1088 H 0.54995 0.32827 0.6755 0.0
H1089 H 0.56878 0.28486 0.72318 0.0
H1090 H 0.49318 0.31655 0.68619 0.0
H1091 H 0.50793 0.3438 0.70457 0.0
H1092 H 0.51715 0.34082 0.67736 0.0
H1093 H 0.54808 0.27312 0.75366 0.0
H1094 H 0.53167 0.29233 0.76271 0.0
H1095 H 0.51717 0.26395 0.74565 0.0
H1096 H 0.48114 0.33068 0.77321 0.0
H1097 H 0.4451 0.26301 0.73201 0.0
H1098 H 0.52837 0.35343 0.74123 0.0
H1099 H 0.53669 0.33688 0.76215 0.0
H1100 H 0.51923 0.35588 0.76853 0.0
H1101 H 0.4843 0.27203 0.69094 0.0
H1102 H 0.46156 0.24885 0.7025 0.0
H1103 H 0.49184 0.25354 0.71052 0.0
C1104 C 0.09118 0.91018 0.62235 0.0
C1105 C 0.07347 0.89734 0.63516 0.0
C1106 C 0.09051 0.93128 0.61149 0.0
C1107 C 0.07141 0.94031 0.6127 0.0
C1108 C 0.05344 0.92738 0.62556 0.0
C1109 C 0.05474 0.90657 0.63656 0.0
C1110 C 0.11055 0.94412 0.59873 0.0
C1111 C 0.03244 0.9354 0.62753 0.0
C1112 C 0.07749 1.00807 0.59933 0.0
C1113 C 0.06815 1.00516 0.57696 0.0
C1114 C 0.07873 0.9876 0.61091 0.0
C1115 C 0.07015 0.96282 0.60041 0.0
C1116 C 0.06042 0.95977 0.57794 0.0
C1117 C 0.05975 0.98058 0.56665 0.0
C1118 C 0.0897 0.9927 0.63451 0.0
C1119 C 0.05038 0.93422 0.56569 0.0
H1120 H 0.10592 0.90384 0.62092 0.0
H1121 H 0.04076 0.89727 0.64617 0.0
H1122 H 0.10418 0.94319 0.58106 0.0
H1123 H 0.1181 0.964 0.60508 0.0
H1124 H 0.12456 0.93578 0.59984 0.0
H1125 H 1.02004 0.92402 0.63824 0.0
H1126 H 0.03803 0.95508 0.63442 0.0
H1127 H 1.02316 0.93397 0.61087 0.0
H1128 H 0.08413 0.02657 0.6079 0.0
H1129 H 0.05224 0.97743 0.54958 0.0
H1130 H 0.106 0.98809 0.63549 0.0
H1131 H 0.07787 0.98076 0.64527 0.0
H1132 H 0.09395 1.01236 0.6411 0.0
H1133 H 0.06418 0.92569 0.56472 0.0
H1134 H 0.04271 0.93446 0.54864 0.0
H1135 H 0.03663 0.9222 0.57483 0.0
C1136 C 0.49289 0.82268 0.83929 0.0
C1137 C 0.49707 0.8145 0.86001 0.0
C1138 C 0.47024 0.82247 0.83061 0.0
C1139 C 0.45051 0.81526 0.84318 0.0
C1140 C 0.45488 0.80749 0.86441 0.0
C1141 C 0.47741 0.80658 0.87207 0.0
C1142 C 0.46791 0.82997 0.80761 0.0
C1143 C 0.43591 0.80028 0.87967 0.0
C1144 C 0.3996 0.83998 0.82371 0.0
C1145 C 0.37976 0.81849 0.8182 0.0
C1146 C 0.42191 0.83925 0.83228 0.0
C1147 C 0.42589 0.81627 0.8345 0.0
C1148 C 0.40589 0.7944 0.82831 0.0
C1149 C 0.38344 0.79582 0.82102 0.0
C1150 C 0.44109 0.86367 0.8391 0.0
C1151 C 0.4077 0.76893 0.82891 0.0
H1152 H 0.50739 0.82889 0.82939 0.0
H1153 H 0.47979 0.80035 0.88815 0.0
H1154 H 0.44963 0.82298 0.79981 0.0
H1155 H 0.47453 0.85047 0.80835 0.0
H1156 H 0.4788 0.82305 0.79681 0.0
H1157 H 0.44335 0.80503 0.89725 0.0
H1158 H 0.42271 0.80942 0.87669 0.0
H1159 H 0.42702 0.77993 0.87712 0.0
H1160 H 0.3976 0.85779 0.82188 0.0
H1161 H 0.36879 0.77881 0.81678 0.0
H1162 H 0.44957 0.87074 0.8243 0.0
H1163 H 0.45454 0.86211 0.8516 0.0
H1164 H 0.43382 0.87765 0.84599 0.0
H1165 H 0.4259 0.76904 0.82891 0.0
H1166 H 0.39699 0.75635 0.81449 0.0
H1167 H 0.40048 0.76104 0.84398 0.0
C1168 C 0.57584 0.23286 0.12963 0.0
C1169 C 0.55919 0.2333 0.14448 0.0
C1170 C 0.57679 0.21036 0.11875 0.0
C1171 C 0.56032 0.18693 0.12192 0.0
C1172 C 0.54314 0.18726 0.13652 0.0
C1173 C 0.54302 0.21001 0.14772 0.0
C1174 C 0.596 0.2117 0.10416 0.0
C1175 C 0.52468 0.16341 0.14039 0.0
C1176 C 0.55156 0.1313 0.07703 0.0
C1177 C 0.5633 0.11671 0.08707 0.0
C1178 C 0.55003 0.15341 0.08815 0.0
C1179 C 0.5611 0.16239 0.11 0.0
C1180 C 0.57319 0.14786 0.12015 0.0
C1181 C 0.57382 0.12537 0.10889 0.0
C1182 C 0.53627 0.16714 0.07642 0.0
C1183 C 0.58585 0.15625 0.14301 0.0
H1184 H 0.58881 0.25026 0.12694 0.0
H1185 H 0.53004 0.2095 0.15906 0.0
H1186 H 0.6063 0.2003 0.11013 0.0
H1187 H 0.58839 0.20395 0.08703 0.0
H1188 H 0.60798 0.23097 0.10376 0.0
H1189 H 0.51139 0.16659 0.1506 0.0
H1190 H 0.51577 0.15304 0.12435 0.0
H1191 H 0.53292 0.15152 0.1489 0.0
H1192 H 0.54313 0.12521 0.06035 0.0
H1193 H 0.58311 0.1148 0.11713 0.0
H1194 H 0.54799 0.18586 0.07378 0.0
H1195 H 0.52286 0.16965 0.08681 0.0
H1196 H 0.52747 0.15731 0.06014 0.0
H1197 H 0.5978 0.17569 0.14379 0.0
H1198 H 0.59614 0.14444 0.14799 0.0
H1199 H 0.5731 0.15573 0.15518 0.0
C1200 C 0.15776 0.30528 0.37258 0.0
C1201 C 0.13562 0.29163 0.3611 0.0
C1202 C 0.17953 0.30587 0.36442 0.0
C1203 C 0.18028 0.29322 0.34352 0.0
C1204 C 0.15797 0.27986 0.33164 0.0
C1205 C 0.13644 0.27887 0.34055 0.0
C1206 C 0.20198 0.31983 0.37862 0.0
C1207 C 0.15674 0.26654 0.30914 0.0
C1208 C 0.23928 0.31318 0.31465 0.0
C1209 C 0.24855 0.29387 0.3174 0.0
C1210 C 0.21745 0.31301 0.32249 0.0
C1211 C 0.20399 0.29355 0.33445 0.0
C1212 C 0.2136 0.27433 0.33767 0.0
C1213 C 0.23498 0.2745 0.32898 0.0
C1214 C 0.20845 0.33365 0.31741 0.0
C1215 C 0.20137 0.25342 0.35075 0.0
H1216 H 0.15815 0.31521 0.38847 0.0
H1217 H 0.12002 0.26819 0.33106 0.0
H1218 H 0.21211 0.3073 0.38165 0.0
H1219 H 0.21289 0.3351 0.3699 0.0
H1220 H 0.19893 0.32777 0.3948 0.0
H1221 H 0.13864 0.25902 0.30085 0.0
H1222 H 0.16792 0.2793 0.29845 0.0
H1223 H 0.16351 0.251 0.3107 0.0
H1224 H 0.2489 0.32841 0.30585 0.0
H1225 H 0.24138 0.25938 0.33174 0.0
H1226 H 0.20522 0.34275 0.33289 0.0
H1227 H 0.19149 0.32589 0.30698 0.0
H1228 H 0.22076 0.34781 0.30861 0.0
H1229 H 0.19827 0.26096 0.36707 0.0
H1230 H 0.21153 0.24085 0.35347 0.0
H1231 H 0.18408 0.24242 0.34194 0.0
C1232 C 0.96472 0.07995 0.15331 0.0
C1233 C 0.9732 0.08362 0.17575 0.0
C1234 C 0.97969 0.08009 0.13688 0.0
C1235 C 1.00346 0.08369 0.14321 0.0
C1236 C 1.01253 0.09006 0.16565 0.0
C1237 C 0.99729 0.09015 0.18167 0.0
C1238 C 0.96957 0.07406 0.11298 0.0
C1239 C 0.03781 0.09413 0.17304 0.0
C1240 C 0.02997 0.04413 0.10953 0.0
C1241 C 0.04462 0.06154 0.09758 0.0
C1242 C 1.01659 0.05126 0.12458 0.0
C1243 C 1.01767 0.07633 0.12724 0.0
C1244 C 0.03252 0.094 0.11508 0.0
C1245 C 0.04598 0.08634 0.10035 0.0
C1246 C 1.00109 0.03191 0.13741 0.0
C1247 C 0.03366 0.12069 0.11716 0.0
H1248 H 0.9462 0.07534 0.14858 0.0
H1249 H 1.0041 0.09356 0.19896 0.0
H1250 H 0.98175 0.08532 0.10207 0.0
H1251 H 0.96661 0.05428 0.10778 0.0
H1252 H 0.95262 0.07724 0.11045 0.0
H1253 H 0.04284 0.10265 0.19041 0.0
H1254 H 0.04073 0.07605 0.17181 0.0
H1255 H 0.0495 0.10614 0.16223 0.0
H1256 H 0.02875 0.02487 0.10682 0.0
H1257 H 0.05697 0.09951 0.09045 0.0
H1258 H 0.98258 0.03026 0.13336 0.0
H1259 H 1.00553 0.03753 0.15542 0.0
H1260 H 1.00276 0.0134 0.13374 0.0
H1261 H 1.01639 0.12179 0.11141 0.0
H1262 H 0.04696 0.1323 0.10732 0.0
H1263 H 0.03778 0.12859 0.13472 0.0
C1264 C 0.33836 0.70838 0.5059 0.0
C1265 C 0.34117 0.7233 0.52581 0.0
C1266 C 0.33661 0.71792 0.48553 0.0
C1267 C 0.33827 0.74305 0.48522 0.0
C1268 C 0.34307 0.75863 0.50529 0.0
C1269 C 0.34415 0.74847 0.52538 0.0
C1270 C 0.33119 0.70064 0.46449 0.0
C1271 C 0.34563 0.78568 0.50562 0.0
C1272 C 0.34383 0.77145 0.43067 0.0
C1273 C 0.32086 0.77053 0.42497 0.0
C1274 C 0.34988 0.76267 0.45029 0.0
C1275 C 0.3324 0.75236 0.46426 0.0
C1276 C 0.30913 0.75124 0.45846 0.0
C1277 C 0.30369 0.76059 0.43896 0.0
C1278 C 0.37494 0.76464 0.45615 0.0
C1279 C 0.28992 0.74 0.47276 0.0
H1280 H 0.33589 0.68886 0.50623 0.0
H1281 H 0.3465 0.76005 0.54081 0.0
H1282 H 0.313 0.69738 0.45748 0.0
H1283 H 0.34283 0.70903 0.45193 0.0
H1284 H 0.33303 0.68248 0.46733 0.0
H1285 H 0.35252 0.79593 0.5222 0.0
H1286 H 0.35747 0.79459 0.49337 0.0
H1287 H 0.32837 0.78743 0.50096 0.0
H1288 H 0.35711 0.77929 0.41985 0.0
H1289 H 0.28589 0.75965 0.43437 0.0
H1290 H 0.37606 0.74604 0.45815 0.0
H1291 H 0.38174 0.77608 0.47222 0.0
H1292 H 0.38637 0.77303 0.4434 0.0
H1293 H 0.28887 0.72074 0.4752 0.0
H1294 H 0.27261 0.73972 0.46545 0.0
H1295 H 0.29386 0.75066 0.48931 0.0
C1296 C 0.60422 0.97054 0.68944 0.0
C1297 C 0.62859 0.97855 0.69346 0.0
C1298 C 0.59348 0.97231 0.66882 0.0
C1299 C 0.60758 0.98322 0.65236 0.0
C1300 C 0.63203 0.98857 0.65552 0.0
C1301 C 0.64225 0.98575 0.67604 0.0
C1302 C 0.56725 0.96495 0.66549 0.0
C1303 C 0.64769 1.00027 0.63838 0.0
C1304 C 0.58445 0.99202 0.59534 0.0
C1305 C 0.58339 0.01594 0.59895 0.0
C1306 C 0.59094 0.98035 0.61283 0.0
C1307 C 0.59755 0.9935 0.63411 0.0
C1308 C 0.59601 0.01754 0.63785 0.0
C1309 C 0.58847 0.0283 0.62021 0.0
C1310 C 0.5914 0.95437 0.60827 0.0
C1311 C 0.60332 0.03239 0.66025 0.0
H1312 H 0.59365 0.96471 0.70291 0.0
H1313 H 0.66112 0.99199 0.67918 0.0
H1314 H 0.56216 0.98171 0.66789 0.0
H1315 H 0.56048 0.95612 0.64844 0.0
H1316 H 0.55879 0.95198 0.67746 0.0
H1317 H 0.66587 1.00058 0.64227 0.0
H1318 H 0.64092 0.99021 0.62177 0.0
H1319 H 0.64806 0.01962 0.63762 0.0
H1320 H 0.58024 0.98246 0.57876 0.0
H1321 H 0.58769 0.04685 0.62279 0.0
H1322 H 0.58588 0.94337 0.62236 0.0
H1323 H 0.60943 0.95515 0.60576 0.0
H1324 H 0.57989 0.94458 0.59309 0.0
H1325 H 0.59267 0.02229 0.67277 0.0
H1326 H 0.6014 0.05093 0.66023 0.0
H1327 H 0.62184 0.03493 0.6655 0.0
C1328 C 0.32496 0.30546 0.97501 0.0
C1329 C 0.32011 0.32583 0.98491 0.0
C1330 C 0.32383 0.30084 0.95176 0.0
C1331 C 0.31832 0.31729 0.9378 0.0
C1332 C 0.31314 0.33772 0.94771 0.0
C1333 C 0.31383 0.34155 0.97098 0.0
C1334 C 0.32892 0.27847 0.94214 0.0
C1335 C 0.30763 0.35609 0.93374 0.0
C1336 C 0.34012 0.31999 0.88005 0.0
C1337 C 0.3197 0.30698 0.86606 0.0
C1338 C 0.33984 0.32366 0.90321 0.0
C1339 C 0.31874 0.31361 0.91299 0.0
C1340 C 0.29812 0.30016 0.89897 0.0
C1341 C 0.29879 0.29728 0.8758 0.0
C1342 C 0.36219 0.33859 0.91723 0.0
C1343 C 0.27531 0.28861 0.90846 0.0
H1344 H 0.32984 0.29315 0.98549 0.0
H1345 H 0.3103 0.35751 0.97831 0.0
H1346 H 0.3145 0.26732 0.92955 0.0
H1347 H 0.34505 0.2845 0.93368 0.0
H1348 H 0.33122 0.26647 0.95498 0.0
H1349 H 0.30356 0.37074 0.9438 0.0
H1350 H 0.32273 0.36503 0.92455 0.0
H1351 H 0.29254 0.34646 0.92131 0.0
H1352 H 0.35636 0.32775 0.87284 0.0
H1353 H 0.28289 0.28708 0.86529 0.0
H1354 H 0.36689 0.32704 0.92929 0.0
H1355 H 0.3597 0.3545 0.92684 0.0
H1356 H 0.377 0.34575 0.90717 0.0
H1357 H 0.27735 0.27577 0.92057 0.0
H1358 H 0.26095 0.2782 0.89551 0.0
H1359 H 0.27021 0.30315 0.91748 0.0
C1360 C 0.96972 0.08651 0.31472 0.0
C1361 C 0.98265 0.08469 0.29701 0.0
C1362 C 0.97844 0.08547 0.33644 0.0
C1363 C 1.00065 0.08291 0.34036 0.0
C1364 C 1.0147 0.08375 0.32277 0.0
C1365 C 1.00543 0.08443 0.30123 0.0
C1366 C 0.96296 0.08466 0.35478 0.0
C1367 C 0.03868 0.08162 0.32633 0.0
C1368 C 0.02864 0.08534 0.39855 0.0
C1369 C 1.02334 0.06005 0.40095 0.0
C1370 C 1.02102 0.09322 0.37907 0.0
C1371 C 1.00767 0.07533 0.36176 0.0
C1372 C 1.00186 0.04977 0.36433 0.0
C1373 C 1.00989 0.04245 0.38387 0.0
C1374 C 0.02769 0.1206 0.37681 0.0
C1375 C 0.98742 0.0301 0.34631 0.0
H1376 H 0.95208 0.08671 0.31147 0.0
H1377 H 1.01555 0.08333 0.28754 0.0
H1378 H 0.95558 0.06531 0.35894 0.0
H1379 H 0.97308 0.09611 0.36995 0.0
H1380 H 0.94827 0.09122 0.34993 0.0
H1381 H 0.04868 0.08653 0.31183 0.0
H1382 H 0.04882 0.0938 0.34115 0.0
H1383 H 0.03696 0.06229 0.32921 0.0
H1384 H 0.03918 0.09897 0.41175 0.0
H1385 H 1.00551 0.02291 0.38587 0.0
H1386 H 1.01191 0.12543 0.37231 0.0
H1387 H 0.0391 0.12544 0.36329 0.0
H1388 H 0.03706 0.13209 0.39228 0.0
H1389 H 0.9707 0.03308 0.34165 0.0
H1390 H 0.98349 1.0111 0.35139 0.0
H1391 H 0.99688 0.03138 0.33133 0.0
C1392 C 0.36049 0.73526 0.65132 0.0
C1393 C 0.34506 0.71082 0.64748 0.0
C1394 C 0.3602 0.75046 0.6703 0.0
C1395 C 0.34344 0.74123 0.68524 0.0
C1396 C 0.32855 0.7162 0.68193 0.0
C1397 C 0.32984 0.70116 0.66326 0.0
C1398 C 0.37705 0.77671 0.6738 0.0
C1399 C 0.31008 0.70578 0.69719 0.0
C1400 C 0.34515 0.77341 0.74219 0.0
C1401 C 0.32997 0.78668 0.73806 0.0
C1402 C 0.35069 0.75952 0.72496 0.0
C1403 C 0.34005 0.75815 0.70327 0.0
C1404 C 0.32497 0.77189 0.699 0.0
C1405 C 0.32045 0.78639 0.71645 0.0
C1406 C 0.36748 0.7459 0.73006 0.0
C1407 C 0.31279 0.77037 0.6762 0.0
H1408 H 0.37231 0.74271 0.63913 0.0
H1409 H 0.31768 0.68235 0.66017 0.0
H1410 H 0.36755 0.78975 0.67058 0.0
H1411 H 0.38509 0.78126 0.69119 0.0
H1412 H 0.39115 0.7798 0.66266 0.0
H1413 H 0.30064 0.68565 0.69288 0.0
H1414 H 0.31799 0.70875 0.71457 0.0
H1415 H 0.29721 0.71562 0.6963 0.0
H1416 H 0.35266 0.77387 0.75897 0.0
H1417 H 0.30858 0.79654 0.71338 0.0
H1418 H 0.38088 0.7495 0.71818 0.0
H1419 H 0.35796 0.72566 0.72829 0.0
H1420 H 0.37642 0.75136 0.74713 0.0
H1421 H 0.32579 0.77606 0.6641 0.0
H1422 H 0.30169 0.78226 0.67564 0.0
H1423 H 0.30163 0.75094 0.67082 0.0
C1424 C 0.59373 0.02982 0.80523 0.0
C1425 C 0.61246 0.02083 0.80665 0.0
C1426 C 0.58277 0.03324 0.82399 0.0
C1427 C 0.59094 0.02775 0.84462 0.0
C1428 C 0.60936 0.01792 0.84603 0.0
C1429 C 0.61985 0.01445 0.82695 0.0
C1430 C 0.56299 0.04349 0.82188 0.0
C1431 C 0.6186 1.01201 0.86783 0.0
C1432 C 0.58284 0.06273 0.89657 0.0
C1433 C 0.56458 0.04472 0.9048 0.0
C1434 C 0.59139 0.05751 0.87681 0.0
C1435 C 0.58126 0.03376 0.86497 0.0
C1436 C 0.56239 0.0157 0.87289 0.0
C1437 C 0.55432 0.02138 0.89283 0.0
C1438 C 0.61168 0.07716 0.86892 0.0
C1439 C 0.55104 0.99029 0.86052 0.0
H1440 H 0.58786 0.03461 0.78952 0.0
H1441 H 0.63434 1.00751 0.82811 0.0
H1442 H 0.54769 0.03161 0.82935 0.0
H1443 H 0.56845 0.06221 0.83105 0.0
H1444 H 0.5575 0.0449 0.80439 0.0
H1445 H 0.63217 1.00326 0.86588 0.0
H1446 H 0.62628 0.02927 0.8792 0.0
H1447 H 0.60417 0.99939 0.87581 0.0
H1448 H 0.59099 0.08067 0.90601 0.0
H1449 H 0.54008 1.00752 0.89916 0.0
H1450 H 0.60697 0.08081 0.8519 0.0
H1451 H 0.6268 0.07055 0.86832 0.0
H1452 H 0.61719 0.09486 0.87981 0.0
H1453 H 0.54516 0.99193 0.84322 0.0
H1454 H 0.53583 0.97879 0.86837 0.0
H1455 H 0.56393 0.98051 0.85982 0.0
C1456 C 0.3 0.34043 0.12982 0.0
C1457 C 0.31223 0.33103 0.11477 0.0
C1458 C 0.29792 0.33319 0.15143 0.0
C1459 C 0.30845 0.31612 0.15869 0.0
C1460 C 0.32012 0.30583 0.14338 0.0
C1461 C 0.32178 0.31328 0.12167 0.0
C1462 C 0.28514 0.34464 0.16681 0.0
C1463 C 0.33171 0.28767 0.15022 0.0
C1464 C 0.32667 0.32261 0.2211 0.0
C1465 C 0.30885 0.30336 0.22883 0.0
C1466 C 0.32694 0.32648 0.1985 0.0
C1467 C 0.30887 0.31088 0.18275 0.0
C1468 C 0.29083 0.29129 0.19033 0.0
C1469 C 0.29107 0.28772 0.21315 0.0
C1470 C 0.34661 0.34756 0.19151 0.0
C1471 C 0.27111 0.27423 0.17432 0.0
H1472 H 0.29236 0.35402 0.12484 0.0
H1473 H 0.33136 0.3059 0.11041 0.0
H1474 H 0.27194 0.33001 0.17437 0.0
H1475 H 0.29765 0.35669 0.18047 0.0
H1476 H 0.27623 0.35595 0.15823 0.0
H1477 H 0.33824 0.27963 0.13605 0.0
H1478 H 0.34664 0.29715 0.16287 0.0
H1479 H 0.31932 0.27241 0.15785 0.0
H1480 H 0.34067 0.33482 0.2328 0.0
H1481 H 0.27724 0.27271 0.2187 0.0
H1482 H 0.33955 0.36108 0.18423 0.0
H1483 H 0.35537 0.34051 0.17857 0.0
H1484 H 0.35988 0.35743 0.20554 0.0
H1485 H 0.26125 0.28501 0.16635 0.0
H1486 H 0.25884 0.25938 0.18252 0.0
H1487 H 0.27817 0.26554 0.16099 0.0
C1488 C 0.26155 0.96841 0.07053 0.0
C1489 C 0.27303 0.96206 0.05322 0.0
C1490 C 0.25023 0.98581 0.06846 0.0
C1491 C 0.25095 0.99759 0.04879 0.0
C1492 C 0.2626 0.99133 0.03125 0.0
C1493 C 0.27329 0.97333 0.03357 0.0
C1494 C 0.23744 0.99151 0.08732 0.0
C1495 C 0.26402 1.00388 0.01023 0.0
C1496 C 0.20302 0.02483 0.03965 0.0
C1497 C 0.21392 0.04909 0.04961 0.0
C1498 C 0.21524 1.00813 0.03822 0.0
C1499 C 0.23901 0.01607 0.0467 0.0
C1500 C 0.2505 0.04101 0.05553 0.0
C1501 C 0.23769 0.05721 0.05715 0.0
C1502 C 0.20222 0.98158 0.02913 0.0
C1503 C 0.27598 0.05022 0.0643 0.0
H1504 H 0.26122 0.95957 0.08568 0.0
H1505 H 0.28238 0.96856 0.02026 0.0
H1506 H 0.24517 1.01137 0.09366 0.0
H1507 H 0.21888 0.98799 0.08139 0.0
H1508 H 0.23806 0.98022 0.10123 0.0
H1509 H 0.27398 0.9971 0.99826 0.0
H1510 H 0.24623 1.00069 1.0022 0.0
H1511 H 0.27254 0.02418 0.01414 0.0
H1512 H 0.18451 0.01846 0.03411 0.0
H1513 H 0.24608 0.07602 0.06478 0.0
H1514 H 0.20031 0.96953 0.04279 0.0
H1515 H 0.21211 0.97514 0.01692 0.0
H1516 H 0.18455 0.97908 0.02109 0.0
H1517 H 0.27825 0.04202 0.07987 0.0
H1518 H 0.28302 0.07071 0.06774 0.0
H1519 H 0.28645 0.04434 0.05232 0.0
C1520 C 0.73759 0.67057 0.02697 0.0
C1521 C 0.75773 0.66659 0.03592 0.0
C1522 C 0.7154 0.65275 0.02725 0.0
C1523 C 0.71329 0.63055 0.03695 0.0
C1524 C 0.73361 0.62588 0.04499 0.0
C1525 C 0.75558 0.64388 0.04427 0.0
C1526 C 0.69414 0.65824 0.01818 0.0
C1527 C 0.7321 0.60254 0.05559 0.0
C1528 C 0.65712 0.60348 0.06316 0.0
C1529 C 0.64406 0.58406 0.04728 0.0
C1530 C 0.67993 0.61817 0.06028 0.0
C1531 C 0.68984 0.6136 0.04083 0.0
C1532 C 0.67701 0.59355 0.025 0.0
C1533 C 0.65428 0.57885 0.0285 0.0
C1534 C 0.69316 0.63908 0.07777 0.0
C1535 C 0.68692 0.58826 1.00399 0.0
H1536 H 0.73907 0.68793 0.0203 0.0
H1537 H 0.77102 0.64056 0.0512 0.0
H1538 H 0.68237 0.64223 1.00698 0.0
H1539 H 0.68423 0.66137 0.03198 0.0
H1540 H 0.69882 0.6749 0.00898 0.0
H1541 H 0.74947 0.60046 0.05882 0.0
H1542 H 0.72449 0.60293 0.07154 0.0
H1543 H 0.72043 0.586 0.04493 0.0
H1544 H 0.64934 0.60747 0.07777 0.0
H1545 H 0.64415 0.564 0.01607 0.0
H1546 H 0.6965 0.65708 0.0708 0.0
H1547 H 0.71035 0.63758 0.08317 0.0
H1548 H 0.68349 0.63922 0.0925 0.0
H1549 H 0.68921 0.60388 0.9937 0.0
H1550 H 0.67544 0.57096 0.99413 0.0
H1551 H 0.70439 0.58669 0.00784 0.0
C1552 C 0.72054 0.46776 0.31546 0.0
C1553 C 0.71978 0.48444 0.33301 0.0
C1554 C 0.73791 0.45687 0.31591 0.0
C1555 C 0.75529 0.46339 0.33415 0.0
C1556 C 0.75362 0.47885 0.35265 0.0
C1557 C 0.73564 0.48908 0.35194 0.0
C1558 C 0.73865 0.43986 0.29611 0.0
C1559 C 0.77185 0.48631 0.37232 0.0
C1560 C 0.79508 0.42516 0.33218 0.0
C1561 C 0.81191 0.4389 0.31927 0.0
C1562 C 0.77722 0.43365 0.33858 0.0
C1563 C 0.77652 0.45656 0.33218 0.0
C1564 C 0.79463 0.47141 0.32076 0.0
C1565 C 0.81199 0.46224 0.31421 0.0
C1566 C 0.75819 0.41726 0.35065 0.0
C1567 C 0.79473 0.49619 0.31401 0.0
H1568 H 0.70809 0.46406 0.30091 0.0
H1569 H 0.73509 0.50215 0.36545 0.0
H1570 H 0.75348 0.4494 0.28684 0.0
H1571 H 0.74144 0.42293 0.30146 0.0
H1572 H 0.72234 0.43424 0.28468 0.0
H1573 H 0.76569 0.49412 0.38688 0.0
H1574 H 0.7769 0.47035 0.37697 0.0
H1575 H 0.78776 0.50062 0.36797 0.0
H1576 H 0.79495 0.40698 0.336 0.0
H1577 H 0.82515 0.47289 0.30439 0.0
H1578 H 0.74143 0.41097 0.33988 0.0
H1579 H 0.75572 0.42778 0.36568 0.0
H1580 H 0.76208 0.40068 0.35553 0.0
H1581 H 0.7805 0.49332 0.3006 0.0
H1582 H 0.81153 0.5068 0.30795 0.0
H1583 H 0.79148 0.50747 0.32813 0.0
C1584 C 0.88757 0.45012 0.54082 0.0
C1585 C 0.86962 0.45875 0.54663 0.0
C1586 C 0.91081 0.46601 0.54325 0.0
C1587 C 0.91609 0.49116 0.55129 0.0
C1588 C 0.89804 0.50001 0.55709 0.0
C1589 C 0.875 0.48361 0.55488 0.0
C1590 C 0.92973 0.45589 0.53723 0.0
C1591 C 0.90302 0.52683 0.56535 0.0
C1592 C 0.97848 0.52654 0.57459 0.0
C1593 C 0.98787 0.53772 0.55612 0.0
C1594 C 0.95496 0.51163 0.57338 0.0
C1595 C 0.94052 0.50825 0.55335 0.0
C1596 C 0.94966 0.52039 0.53496 0.0
C1597 C 0.97333 0.53483 0.53651 0.0
C1598 C 0.94583 0.49872 0.59323 0.0
C1599 C 0.9346 0.51758 0.51348 0.0
H1600 H 0.88347 0.43088 0.53457 0.0
H1601 H 0.86114 0.4904 0.55925 0.0
H1602 H 0.93873 0.46559 0.52364 0.0
H1603 H 0.94303 0.45929 0.55161 0.0
H1604 H 0.92277 0.4357 0.53189 0.0
H1605 H 0.88697 0.53072 0.56913 0.0
H1606 H 0.9155 0.53199 0.58051 0.0
H1607 H 0.91133 0.53889 0.55274 0.0
H1608 H 0.98971 0.52862 0.58975 0.0
H1609 H 0.98052 0.54361 0.52225 0.0
H1610 H 0.94043 0.47837 0.58914 0.0
H1611 H 0.93018 0.50296 0.59772 0.0
H1612 H 0.95908 0.50418 0.60786 0.0
H1613 H 0.92882 0.49808 0.50602 0.0
H1614 H 0.94398 0.5297 0.50133 0.0
H1615 H 0.91869 0.52208 0.51655 0.0
C1616 C 0.40633 0.08584 0.26905 0.0
C1617 C 0.42644 0.09243 0.28403 0.0
C1618 C 0.38964 0.09742 0.27127 0.0
C1619 C 0.39339 0.11637 0.28868 0.0
C1620 C 0.41338 0.12273 0.30421 0.0
C1621 C 0.42964 0.11048 0.3018 0.0
C1622 C 0.36833 0.08985 0.2546 0.0
C1623 C 0.41801 0.14307 0.32282 0.0
C1624 C 0.36415 0.16296 0.27559 0.0
C1625 C 0.34418 0.15503 0.28681 0.0
C1626 C 0.3808 0.15112 0.27685 0.0
C1627 C 0.3772 0.13068 0.28942 0.0
C1628 C 0.35731 0.12293 0.30122 0.0
C1629 C 0.34104 0.13536 0.29988 0.0
C1630 C 0.40196 0.16015 0.26428 0.0
C1631 C 0.35284 0.10105 0.31461 0.0
H1632 H 0.40364 0.07161 0.25547 0.0
H1633 H 0.44518 0.11555 0.31342 0.0
H1634 H 0.35224 0.0855 0.26318 0.0
H1635 H 0.36884 0.10542 0.24468 0.0
H1636 H 0.36712 0.07346 0.24315 0.0
H1637 H 0.43342 0.1445 0.33442 0.0
H1638 H 0.42113 0.16108 0.3159 0.0
H1639 H 0.40258 0.13985 0.33224 0.0
H1640 H 0.36676 0.17853 0.26585 0.0
H1641 H 0.32558 0.12933 0.30858 0.0
H1642 H 0.40135 0.1457 0.25093 0.0
H1643 H 0.41814 0.16358 0.27543 0.0
H1644 H 0.40303 0.17744 0.25671 0.0
H1645 H 0.34976 0.08393 0.30343 0.0
H1646 H 0.33746 0.09852 0.32406 0.0
H1647 H 0.36833 0.10333 0.32636 0.0
C1648 C 0.38456 0.17641 0.53631 0.0
C1649 C 0.37091 0.17517 0.55403 0.0
C1650 C 0.39982 0.1627 0.53507 0.0
C1651 C 0.40161 0.14763 0.55204 0.0
C1652 C 0.38829 0.14683 0.5702 0.0
C1653 C 0.37306 0.16048 0.57091 0.0
C1654 C 0.41364 0.16391 0.51538 0.0
C1655 C 0.38986 0.13124 0.58878 0.0
C1656 C 0.42144 0.09202 0.54207 0.0
C1657 C 0.44447 0.10114 0.5521 0.0
C1658 C 0.40759 0.10725 0.54118 0.0
C1659 C 0.41692 0.13214 0.55074 0.0
C1660 C 0.44033 0.14161 0.56045 0.0
C1661 C 0.45385 0.12603 0.56095 0.0
C1662 C 0.38277 0.09649 0.53048 0.0
C1663 C 0.45086 0.16796 0.57103 0.0
H1664 H 0.38293 0.18766 0.52318 0.0
H1665 H 0.3627 0.15951 0.58474 0.0
H1666 H 0.43254 0.16963 0.52097 0.0
H1667 H 0.40858 0.14527 0.50614 0.0
H1668 H 0.41083 0.17706 0.50392 0.0
H1669 H 0.37901 0.13337 0.60212 0.0
H1670 H 0.38403 0.11141 0.58225 0.0
H1671 H 0.40823 0.13638 0.59605 0.0
H1672 H 0.41421 0.07291 0.53493 0.0
H1673 H 0.47157 0.13313 0.56891 0.0
H1674 H 0.37959 0.10833 0.5179 0.0
H1675 H 0.3705 0.09606 0.54313 0.0
H1676 H 0.37869 0.07739 0.52243 0.0
H1677 H 0.44858 0.18103 0.55928 0.0
H1678 H 0.46976 0.17298 0.57651 0.0
H1679 H 0.44168 0.17046 0.5856 0.0
C1680 C 0.73675 0.60986 0.31467 0.0
C1681 C 0.71982 0.60711 0.32958 0.0
C1682 C 0.7514 0.6334 0.3108 0.0
C1683 C 0.74913 0.65465 0.32221 0.0
C1684 C 0.73261 0.65201 0.33779 0.0
C1685 C 0.7181 0.62825 0.34126 0.0
C1686 C 0.76879 0.63555 0.29399 0.0
C1687 C 0.72981 0.67429 0.35037 0.0
C1688 C 0.79737 0.71682 0.32401 0.0
C1689 C 0.78813 0.72814 0.30784 0.0
C1690 C 0.785 0.69274 0.32873 0.0
C1691 C 0.763 0.6797 0.31688 0.0
C1692 C 0.75383 0.69082 0.30022 0.0
C1693 C 0.76647 0.71492 0.29594 0.0
C1694 C 0.79523 0.68145 0.34668 0.0
C1695 C 0.73047 0.67739 0.28712 0.0
H1696 H 0.73823 0.59362 0.3056 0.0
H1697 H 0.70518 0.6263 0.35292 0.0
H1698 H 0.76415 0.64479 0.27989 0.0
H1699 H 0.78652 0.64721 0.30141 0.0
H1700 H 0.76935 0.61722 0.28753 0.0
H1701 H 0.7172 0.66903 0.36291 0.0
H1702 H 0.74688 0.68653 0.35882 0.0
H1703 H 0.72361 0.68524 0.33867 0.0
H1704 H 0.81407 0.72694 0.33332 0.0
H1705 H 0.75925 0.72346 0.28333 0.0
H1706 H 0.79639 0.66347 0.34004 0.0
H1707 H 0.78363 0.67766 0.36015 0.0
H1708 H 0.8129 0.69371 0.35384 0.0
H1709 H 0.73033 0.65943 0.27903 0.0
H1710 H 0.7262 0.68834 0.27421 0.0
H1711 H 0.71649 0.67327 0.29839 0.0
C1712 C 0.88732 0.46995 0.82287 0.0
C1713 C 0.91128 0.48321 0.8272 0.0
C1714 C 0.87905 0.44409 0.81903 0.0
C1715 C 0.89513 0.43115 0.81954 0.0
C1716 C 0.91933 0.44432 0.8241 0.0
C1717 C 0.92714 0.47025 0.82789 0.0
C1718 C 0.85309 0.43064 0.81427 0.0
C1719 C 0.93692 0.43103 0.8248 0.0
C1720 C 0.8688 0.36337 0.82796 0.0
C1721 C 0.86446 0.35222 0.80611 0.0
C1722 C 0.87972 0.38901 0.83268 0.0
C1723 C 0.8864 0.40379 0.81512 0.0
C1724 C 0.88294 0.39256 0.79313 0.0
C1725 C 0.872 0.36686 0.78888 0.0
C1726 C 0.8832 0.40037 0.85635 0.0
C1727 C 0.8899 0.40778 0.774 0.0
H1728 H 0.87492 0.47978 0.82234 0.0
H1729 H 0.94568 0.48035 0.83124 0.0
H1730 H 0.8492 0.41992 0.79774 0.0
H1731 H 0.847 0.41724 0.82658 0.0
H1732 H 0.84291 0.44348 0.81467 0.0
H1733 H 0.95509 0.44397 0.82894 0.0
H1734 H 0.93298 0.41745 0.83724 0.0
H1735 H 0.93577 0.42048 0.80854 0.0
H1736 H 0.86318 0.35217 0.8414 0.0
H1737 H 0.86882 0.35837 0.77197 0.0
H1738 H 0.87192 0.4119 0.85836 0.0
H1739 H 0.90153 0.41271 0.86068 0.0
H1740 H 0.8789 0.38613 0.86822 0.0
H1741 H 0.87901 0.41974 0.77212 0.0
H1742 H 0.88777 0.39606 0.75816 0.0
H1743 H 0.90835 0.42015 0.77725 0.0
C1744 C 0.1216 0.88492 0.08567 0.0
C1745 C 0.1157 0.87683 0.10632 0.0
C1746 C 0.11639 0.90524 0.07809 0.0
C1747 C 0.10541 0.91818 0.09166 0.0
C1748 C 0.09959 0.91022 0.11261 0.0
C1749 C 0.10458 0.88953 0.11958 0.0
C1750 C 0.12252 0.91277 0.05549 0.0
C1751 C 0.08829 0.92374 0.12778 0.0
C1752 C 0.11163 0.98432 0.08003 0.0
C1753 C 0.08975 0.98124 0.06884 0.0
C1754 C 0.11685 0.96407 0.08777 0.0
C1755 C 0.09997 0.93999 0.08389 0.0
C1756 C 0.07792 0.93674 0.07246 0.0
C1757 C 0.07301 0.95739 0.06528 0.0
C1758 C 0.14042 0.96849 0.10019 0.0
C1759 C 0.05959 0.91138 0.06754 0.0
H1760 H 0.1301 0.87517 0.07526 0.0
H1761 H 0.10009 0.88353 0.13561 0.0
H1762 H 0.10665 0.91252 0.04523 0.0
H1763 H 0.13504 0.93198 0.05701 0.0
H1764 H 0.13039 0.90038 0.04671 0.0
H1765 H 0.08528 0.91554 0.14372 0.0
H1766 H 0.09949 0.94346 0.13129 0.0
H1767 H 0.07131 0.92334 0.11962 0.0
H1768 H 0.12466 1.00266 0.08297 0.0
H1769 H 0.05613 0.95475 0.05652 0.0
H1770 H 0.14995 0.95808 0.09114 0.0
H1771 H 0.1382 0.96153 0.11668 0.0
H1772 H 0.15134 0.9884 0.10247 0.0
H1773 H 0.06663 0.89892 0.05778 0.0
H1774 H 0.04347 0.91188 0.05819 0.0
H1775 H 0.05492 0.90315 0.08318 0.0
C1776 C 0.94992 0.27283 0.92031 0.0
C1777 C 0.96084 0.25522 0.91633 0.0
C1778 C 0.93173 0.27392 0.90535 0.0
C1779 C 0.92381 0.25645 0.8864 0.0
C1780 C 0.93389 0.23772 0.88306 0.0
C1781 C 0.95259 0.23762 0.89786 0.0
C1782 C 0.92198 0.29466 0.90912 0.0
C1783 C 0.92545 0.21831 0.86345 0.0
C1784 C 0.86577 0.25041 0.85474 0.0
C1785 C 0.87309 0.26386 0.8367 0.0
C1786 C 0.88203 0.24764 0.87097 0.0
C1787 C 0.9062 0.25884 0.86928 0.0
C1788 C 0.91368 0.27253 0.85118 0.0
C1789 C 0.89705 0.27468 0.83502 0.0
C1790 C 0.87337 0.2326 0.88983 0.0
C1791 C 0.93928 0.28529 0.84906 0.0
H1792 H 0.95647 0.28664 0.93446 0.0
H1793 H 0.96096 0.22391 0.89484 0.0
H1794 H 0.92722 0.30763 0.89631 0.0
H1795 H 0.90263 0.28734 0.90752 0.0
H1796 H 0.92834 0.30525 0.92565 0.0
H1797 H 0.93343 0.20359 0.86447 0.0
H1798 H 0.90618 0.20961 0.86224 0.0
H1799 H 0.92983 0.22709 0.848 0.0
H1800 H 0.84728 0.24198 0.85617 0.0
H1801 H 0.90287 0.28535 0.82131 0.0
H1802 H 0.88163 0.24328 0.9059 0.0
H1803 H 0.87838 0.21572 0.88859 0.0
H1804 H 0.85411 0.22692 0.88983 0.0
H1805 H 0.94756 0.29827 0.86404 0.0
H1806 H 0.94219 0.29581 0.83433 0.0
H1807 H 0.94829 0.27144 0.84782 0.0
C1808 C 0.59214 0.22364 0.62143 0.0
C1809 C 0.60394 0.24478 0.61126 0.0
C1810 C 0.58856 0.1997 0.61158 0.0
C1811 C 0.5967 0.19655 0.5908 0.0
C1812 C 0.60807 0.2177 0.58008 0.0
C1813 C 0.61166 0.24157 0.59047 0.0
C1814 C 0.57642 0.17773 0.62366 0.0
C1815 C 0.61668 0.21511 0.55776 0.0
C1816 C 0.60531 0.13453 0.57719 0.0
C1817 C 0.58404 0.12073 0.5649 0.0
C1818 C 0.61 0.15949 0.58514 0.0
C1819 C 0.59315 0.17102 0.58049 0.0
C1820 C 0.57203 0.1574 0.56741 0.0
C1821 C 0.5677 0.13248 0.5599 0.0
C1822 C 0.63264 0.17325 0.59923 0.0
C1823 C 0.55365 0.16894 0.56187 0.0
H1824 H 0.5861 0.22575 0.6375 0.0
H1825 H 0.62083 0.2577 0.58246 0.0
H1826 H 0.56059 0.16531 0.61334 0.0
H1827 H 0.58813 0.16684 0.62678 0.0
H1828 H 0.57118 0.18332 0.63974 0.0
H1829 H 0.6244 0.23327 0.55122 0.0
H1830 H 0.63007 0.20596 0.55898 0.0
H1831 H 0.6021 0.20314 0.54572 0.0
H1832 H 0.61803 0.12565 0.58114 0.0
H1833 H 0.55132 0.12213 0.55018 0.0
H1834 H 0.62894 0.17794 0.61623 0.0
H1835 H 0.64176 0.19093 0.59252 0.0
H1836 H 0.64452 0.16224 0.60021 0.0
H1837 H 0.5465 0.17345 0.5772 0.0
H1838 H 0.53898 0.15648 0.55015 0.0
H1839 H 0.56148 0.18655 0.55453 0.0
C1840 C 0.58743 0.77937 0.39527 0.0
C1841 C 0.59233 0.78178 0.41835 0.0
C1842 C 0.60498 0.78086 0.38126 0.0
C1843 C 0.62807 0.785 0.39051 0.0
C1844 C 0.63311 0.78712 0.41376 0.0
C1845 C 0.61518 0.78541 0.4274 0.0
C1846 C 0.59889 0.77837 0.35654 0.0
C1847 C 0.65756 0.79165 0.42423 0.0
C1848 C 0.67023 0.77033 0.35339 0.0
C1849 C 0.68227 0.79375 0.34705 0.0
C1850 C 0.65262 0.76719 0.36765 0.0
C1851 C 0.64706 0.788 0.37585 0.0
C1852 C 0.65935 0.81173 0.3697 0.0
C1853 C 0.67676 0.8143 0.35535 0.0
C1854 C 0.63978 0.74158 0.37373 0.0
C1855 C 0.65406 0.83441 0.37823 0.0
H1856 H 0.56983 0.77644 0.38808 0.0
H1857 H 0.61916 0.78729 0.44519 0.0
H1858 H 0.60863 0.7958 0.34976 0.0
H1859 H 0.60417 0.76341 0.34849 0.0
H1860 H 0.57993 0.7742 0.35195 0.0
H1861 H 0.65846 0.7921 0.44253 0.0
H1862 H 0.66412 0.77697 0.4177 0.0
H1863 H 0.66947 0.80956 0.4199 0.0
H1864 H 0.67431 0.75437 0.34689 0.0
H1865 H 0.68628 0.83251 0.35078 0.0
H1866 H 0.62092 0.73627 0.36808 0.0
H1867 H 0.64136 0.74141 0.39196 0.0
H1868 H 0.6465 0.7274 0.36629 0.0
H1869 H 0.63564 0.83218 0.37294 0.0
H1870 H 0.66553 0.85159 0.3722 0.0
H1871 H 0.65625 0.83663 0.39657 0.0
C1872 C 0.05574 0.21676 0.43878 0.0
C1873 C 0.0628 0.24102 0.44969 0.0
C1874 C 0.05431 0.19542 0.45013 0.0
C1875 C 0.06131 0.19763 0.47333 0.0
C1876 C 0.06896 0.22225 0.48435 0.0
C1877 C 0.06899 0.24312 0.47272 0.0
C1878 C 0.04503 0.17042 0.43677 0.0
C1879 C 0.07752 0.22714 0.50863 0.0
C1880 C 0.04405 0.14371 0.51223 0.0
C1881 C 0.05973 0.13078 0.50855 0.0
C1882 C 0.04397 0.16464 0.50077 0.0
C1883 C 0.06084 0.17456 0.48571 0.0
C1884 C 0.07714 0.16186 0.48249 0.0
C1885 C 0.07597 0.14021 0.49326 0.0
C1886 C 1.02533 0.17579 0.50498 0.0
C1887 C 0.09634 0.17095 0.46771 0.0
H1888 H 0.05067 0.21423 0.42112 0.0
H1889 H 0.07462 0.26138 0.48175 0.0
H1890 H 0.05952 0.16673 0.42888 0.0
H1891 H 0.03719 0.15521 0.44703 0.0
H1892 H 0.03165 0.17013 0.42329 0.0
H1893 H 0.09152 0.24547 0.51229 0.0
H1894 H 0.06289 0.22763 0.51822 0.0
H1895 H 0.08433 0.21277 0.51447 0.0
H1896 H 0.03123 0.13705 0.52376 0.0
H1897 H 0.08844 0.13096 0.49005 0.0
H1898 H 1.02132 0.18543 0.4909 0.0
H1899 H 0.03129 0.18929 0.51994 0.0
H1900 H 1.00896 0.16132 0.50826 0.0
H1901 H 0.09079 0.16021 0.45122 0.0
H1902 H 0.11242 0.16778 0.47442 0.0
H1903 H 0.10071 0.19093 0.46565 0.0
C1904 C 0.65515 0.31586 0.21078 0.0
C1905 C 0.63501 0.31005 0.22241 0.0
C1906 C 0.67722 0.31503 0.21987 0.0
C1907 C 0.6805 0.30871 0.24179 0.0
C1908 C 0.6604 0.30323 0.25385 0.0
C1909 C 0.63825 0.3036 0.24412 0.0
C1910 C 0.69712 0.32051 0.20558 0.0
C1911 C 0.66226 0.29691 0.27731 0.0
C1912 C 0.7324 0.28463 0.25896 0.0
C1913 C 0.75065 0.30595 0.26901 0.0
C1914 C 0.71008 0.28527 0.25022 0.0
C1915 C 0.70464 0.30766 0.25172 0.0
C1916 C 0.72286 0.32915 0.26221 0.0
C1917 C 0.74525 0.32812 0.27028 0.0
C1918 C 0.69227 0.26173 0.23894 0.0
C1919 C 0.71867 0.35354 0.26512 0.0
H1920 H 0.65359 0.32061 0.194 0.0
H1921 H 0.6234 0.29888 0.25369 0.0
H1922 H 0.71197 0.33664 0.21346 0.0
H1923 H 0.70339 0.30448 0.20399 0.0
H1924 H 0.69205 0.32453 0.18878 0.0
H1925 H 0.64599 0.2948 0.28524 0.0
H1926 H 0.66608 0.27937 0.2776 0.0
H1927 H 0.67696 0.31158 0.28728 0.0
H1928 H 0.73569 0.26722 0.25754 0.0
H1929 H 0.75856 0.34492 0.27799 0.0
H1930 H 0.68712 0.26455 0.22176 0.0
H1931 H 0.6763 0.25683 0.24769 0.0
H1932 H 0.69891 0.24592 0.23843 0.0
H1933 H 0.71574 0.35979 0.24872 0.0
H1934 H 0.73356 0.36821 0.27489 0.0
H1935 H 0.70268 0.35127 0.27356 0.0
C1936 C 0.58176 0.8925 0.94501 0.0
C1937 C 0.576 0.86932 0.95371 0.0
C1938 C 0.58156 0.91451 0.95734 0.0
C1939 C 0.57451 0.91401 0.97913 0.0
C1940 C 0.56847 0.89061 0.98802 0.0
C1941 C 0.56967 0.86897 0.97555 0.0
C1942 C 0.58905 0.93853 0.94689 0.0
C1943 C 0.56006 0.88823 0.01066 0.0
C1944 C 0.591 0.97539 0.01907 0.0
C1945 C 0.57148 0.98327 0.01588 0.0
C1946 C 0.59228 0.95344 1.00734 0.0
C1947 C 0.57328 0.93773 0.99225 0.0
C1948 C 0.55334 0.94538 0.98932 0.0
C1949 C 0.55286 0.96788 1.00066 0.0
C1950 C 0.6144 0.94733 0.01083 0.0
C1951 C 0.53218 0.92957 0.97421 0.0
H1952 H 0.58677 0.89356 0.92831 0.0
H1953 H 0.56484 0.8515 0.98272 0.0
H1954 H 0.57405 0.94519 0.94428 0.0
H1955 H 0.60278 0.95296 0.95809 0.0
H1956 H 0.5959 0.93658 0.93072 0.0
H1957 H 0.55526 0.86894 0.01518 0.0
H1958 H 0.57382 0.9005 0.02326 0.0
H1959 H 0.54462 0.8943 0.01125 0.0
H1960 H 0.60571 0.98677 0.03049 0.0
H1961 H 0.53752 0.9732 0.99786 0.0
H1962 H 0.62149 0.94573 0.99475 0.0
H1963 H 0.61061 0.92917 0.01756 0.0
H1964 H 0.62799 0.96155 0.02234 0.0
H1965 H 0.53658 0.9291 0.95689 0.0
H1966 H 0.5173 0.93657 0.97501 0.0
H1967 H 0.52658 0.91023 0.97864 0.0
C1968 C 0.97426 0.8221 0.72341 0.0
C1969 C 0.98776 0.80802 0.73143 0.0
C1970 C 0.9528 0.82195 0.73195 0.0
C1971 C 0.94373 0.80762 0.74956 0.0
C1972 C 0.95739 0.79354 0.75784 0.0
C1973 C 0.97863 0.79375 0.74878 0.0
C1974 C 0.93958 0.83716 0.72182 0.0
C1975 C 0.94955 0.77807 0.77658 0.0
C1976 C 0.898 0.8246 0.78499 0.0
C1977 C 0.87605 0.80674 0.77692 0.0
C1978 C 0.9196 0.82496 0.77661 0.0
C1979 C 0.92027 0.8073 0.7591 0.0
C1980 C 0.89815 0.78933 0.7508 0.0
C1981 C 0.87686 0.78917 0.7597 0.0
C1982 C 0.94199 0.84447 0.78672 0.0
C1983 C 0.89686 0.77013 0.73212 0.0
H1984 H 0.98038 0.83325 0.71007 0.0
H1985 H 0.98825 0.78264 0.75553 0.0
H1986 H 0.92164 0.82503 0.71538 0.0
H1987 H 0.9379 0.85102 0.73462 0.0
H1988 H 0.94824 0.84701 0.7081 0.0
H1989 H 0.96201 0.76868 0.78186 0.0
H1990 H 0.94757 0.7899 0.79098 0.0
H1991 H 0.93221 0.76381 0.7715 0.0
H1992 H 0.89842 0.83848 0.79815 0.0
H1993 H 0.86057 0.77519 0.75281 0.0
H1994 H 0.95029 0.85625 0.77393 0.0
H1995 H 0.95443 0.83554 0.79302 0.0
H1996 H 0.93915 0.8565 0.80052 0.0
H1997 H 0.9042 0.77937 0.71763 0.0
H1998 H 0.87869 0.75764 0.72699 0.0
H1999 H 0.90757 0.75878 0.73717 0.0
C2000 C 0.11369 0.03684 0.88686 0.0
C2001 C 0.13016 0.02776 0.87799 0.0
C2002 C 0.10915 0.03462 0.90888 0.0
C2003 C 0.12148 0.02312 0.92243 0.0
C2004 C 0.13775 0.01335 0.91349 0.0
C2005 C 0.14188 0.01574 0.89126 0.0
C2006 C 0.09153 0.04514 0.91779 0.0
C2007 C 0.15121 1.00104 0.92754 0.0
C2008 C 0.12334 0.04542 0.98236 0.0
C2009 C 0.10393 0.02713 0.98876 0.0
C2010 C 0.13053 0.04332 0.96125 0.0
C2011 C 0.11783 0.02255 0.94615 0.0
C2012 C 0.09931 1.00316 0.95303 0.0
C2013 C 0.09259 1.00566 0.97433 0.0
C2014 C 0.15057 0.06427 0.9546 0.0
C2015 C 0.08543 0.98068 0.93739 0.0
H2016 H 0.10444 0.04597 0.87663 0.0
H2017 H 0.15465 1.00871 0.88445 0.0
H2018 H 0.07797 0.03064 0.92512 0.0
H2019 H 0.1003 0.06028 0.93111 0.0
H2020 H 0.08278 0.0526 0.90481 0.0
H2021 H 0.16191 0.99279 0.91769 0.0
H2022 H 0.16295 0.01484 0.94065 0.0
H2023 H 0.13908 0.9863 0.93592 0.0
H2024 H 0.13233 0.06198 0.99344 0.0
H2025 H 0.07773 0.99128 0.97922 0.0
H2026 H 0.14365 0.07503 0.94325 0.0
H2027 H 0.16248 0.05699 0.94561 0.0
H2028 H 0.16079 0.07706 0.9691 0.0
H2029 H 0.07407 0.98596 0.92509 0.0
H2030 H 0.07421 0.96564 0.94619 0.0
H2031 H 0.09719 0.97341 0.92814 0.0
C2032 C 0.77823 0.35842 0.59854 0.0
C2033 C 0.7817 0.35405 0.57634 0.0
C2034 C 0.78181 0.34299 0.61415 0.0
C2035 C 0.78894 0.32282 0.60727 0.0
C2036 C 0.78908 0.3163 0.58449 0.0
C2037 C 0.78545 0.33205 0.56921 0.0
C2038 C 0.78077 0.35011 0.63828 0.0
C2039 C 0.79584 0.29441 0.57648 0.0
C2040 C 0.83736 0.31646 0.64594 0.0
C2041 C 0.82534 0.2966 0.65726 0.0
C2042 C 0.82567 0.32465 0.62923 0.0
C2043 C 0.80134 0.31264 0.62376 0.0
C2044 C 0.78922 0.29201 0.63463 0.0
C2045 C 0.80142 0.28422 0.65135 0.0
C2046 C 0.8393 0.3467 0.61794 0.0
C2047 C 0.76331 0.27879 0.6293 0.0
H2048 H 0.7747 0.37504 0.60411 0.0
H2049 H 0.78755 0.32816 0.55197 0.0
H2050 H 0.77247 0.3335 0.64679 0.0
H2051 H 0.79878 0.35921 0.64645 0.0
H2052 H 0.77097 0.36316 0.64052 0.0
H2053 H 0.79029 0.28873 0.55857 0.0
H2054 H 0.81509 0.29946 0.57914 0.0
H2055 H 0.78804 0.27837 0.58586 0.0
H2056 H 0.85588 0.32588 0.65046 0.0
H2057 H 0.79207 0.26904 0.66036 0.0
H2058 H 0.83241 0.36209 0.62106 0.0
H2059 H 0.83728 0.34176 0.5998 0.0
H2060 H 0.85821 0.35347 0.62381 0.0
H2061 H 0.7537 0.29025 0.63665 0.0
H2062 H 0.75751 0.26053 0.63604 0.0
H2063 H 0.75837 0.27598 0.61118 0.0
C2064 C 0.51068 0.08551 0.38481 0.0
C2065 C 0.51961 0.07138 0.37063 0.0
C2066 C 0.51642 0.08785 0.4078 0.0
C2067 C 0.53104 0.07542 0.41661 0.0
C2068 C 0.54072 0.06189 0.40228 0.0
C2069 C 0.53502 0.0602 0.37949 0.0
C2070 C 0.50623 0.10287 0.42266 0.0
C2071 C 0.55626 0.04817 0.41104 0.0
C2072 C 0.56146 0.08609 0.4745 0.0
C2073 C 0.54709 0.06574 0.48397 0.0
C2074 C 0.55544 0.09083 0.45305 0.0
C2075 C 0.53487 0.0745 0.44075 0.0
C2076 C 0.51967 0.05477 0.45071 0.0
C2077 C 0.52589 0.05076 0.47229 0.0
C2078 C 0.57175 0.11241 0.44312 0.0
C2079 C 0.4977 0.03676 0.43804 0.0
H2080 H 0.49891 0.09435 0.37801 0.0
H2081 H 0.5421 0.04933 0.36864 0.0
H2082 H 0.49281 0.09028 0.4317 0.0
H2083 H 0.51995 0.11537 0.43519 0.0
H2084 H 0.49797 0.11413 0.4132 0.0
H2085 H 0.56299 0.03922 0.39759 0.0
H2086 H 0.57135 0.06104 0.42198 0.0
H2087 H 0.54636 0.03364 0.42107 0.0
H2088 H 0.57766 0.09802 0.48365 0.0
H2089 H 0.51463 0.03509 0.47959 0.0
H2090 H 0.5618 0.12237 0.43401 0.0
H2091 H 0.58153 0.10549 0.43109 0.0
H2092 H 0.58456 0.12572 0.45591 0.0
H2093 H 0.48724 0.04682 0.4299 0.0
H2094 H 0.48664 0.02401 0.44884 0.0
H2095 H 0.50244 0.02551 0.42485 0.0
C2096 C 0.82958 0.78256 0.11929 0.0
C2097 C 0.82613 0.75778 0.1119 0.0
C2098 C 0.82934 0.79004 0.142 0.0
C2099 C 0.82479 0.77225 0.15768 0.0
C2100 C 0.82075 0.74719 0.15009 0.0
C2101 C 0.82178 0.74042 0.12761 0.0
C2102 C 0.83434 0.81706 0.1493 0.0
C2103 C 0.81516 0.72729 0.16574 0.0
C2104 C 0.84296 0.7876 0.22023 0.0
C2105 C 0.82215 0.78773 0.22865 0.0
C2106 C 0.84437 0.78392 0.19725 0.0
C2107 C 0.8243 0.77944 0.18203 0.0
C2108 C 0.80326 0.77968 0.19045 0.0
C2109 C 0.80254 0.78417 0.21349 0.0
C2110 C 0.86736 0.78449 0.18929 0.0
C2111 C 0.7812 0.7743 0.17516 0.0
H2112 H 0.83297 0.79618 0.10744 0.0
H2113 H 0.81871 0.72112 0.12223 0.0
H2114 H 0.81925 0.81955 0.157 0.0
H2115 H 0.84958 0.82376 0.16205 0.0
H2116 H 0.83802 0.82871 0.13534 0.0
H2117 H 0.81135 0.70849 0.15712 0.0
H2118 H 0.83005 0.73092 0.17858 0.0
H2119 H 0.79982 0.72754 0.17436 0.0
H2120 H 0.85833 0.79066 0.23164 0.0
H2121 H 0.78635 0.78419 0.21969 0.0
H2122 H 0.8718 0.79704 0.17606 0.0
H2123 H 0.86597 0.76573 0.18209 0.0
H2124 H 0.88186 0.79073 0.20284 0.0
H2125 H 0.78424 0.78706 0.16204 0.0
H2126 H 0.7665 0.77612 0.18406 0.0
H2127 H 0.776 0.75518 0.16686 0.0
C2128 C 0.07799 1.00116 0.76247 0.0
C2129 C 0.10115 1.00506 0.75829 0.0
C2130 C 0.06165 1.00305 0.74587 0.0
C2131 C 0.06919 1.01045 0.72528 0.0
C2132 C 0.09183 1.01158 0.72029 0.0
C2133 C 0.10738 1.00828 0.73679 0.0
C2134 C 0.03703 0.99927 0.75113 0.0
C2135 C 0.1007 0.01933 0.69851 0.0
C2136 C 0.03921 0.02515 0.67465 0.0
C2137 C 0.04551 0.05099 0.67907 0.0
C2138 C 0.04396 1.01079 0.6908 0.0
C2139 C 0.05631 0.02275 0.7113 0.0
C2140 C 0.06042 0.04834 0.7166 0.0
C2141 C 0.0543 0.06195 0.70061 0.0
C2142 C 0.03735 0.9832 0.68516 0.0
C2143 C 0.07349 0.06201 0.73832 0.0
H2144 H 0.07297 0.99804 0.779 0.0
H2145 H 0.12523 1.01104 0.73347 0.0
H2146 H 0.03622 0.01657 0.75975 0.0
H2147 H 1.02456 0.99417 0.73595 0.0
H2148 H 0.03142 0.98452 0.7624 0.0
H2149 H 0.11854 0.01867 0.69711 0.0
H2150 H 0.08889 1.0071 0.68459 0.0
H2151 H 0.10106 0.03852 0.69667 0.0
H2152 H 0.03205 0.01624 0.6582 0.0
H2153 H 0.05812 0.08166 0.70448 0.0
H2154 H 0.03538 0.9732 0.7002 0.0
H2155 H 0.05101 0.97918 0.67613 0.0
H2156 H 1.02075 0.97587 0.67412 0.0
H2157 H 0.06414 0.05379 0.7523 0.0
H2158 H 0.07555 0.082 0.7396 0.0
H2159 H 0.09112 0.06034 0.74021 0.0
C2160 C 0.7857 0.39162 0.44557 0.0
C2161 C 0.79509 0.37895 0.46037 0.0
C2162 C 0.78508 0.38631 0.4226 0.0
C2163 C 0.79395 0.36787 0.41448 0.0
C2164 C 0.80279 0.3546 0.42941 0.0
C2165 C 0.80321 0.3603 0.45211 0.0
C2166 C 0.7753 0.40056 0.40706 0.0
C2167 C 0.81235 0.3347 0.42145 0.0
C2168 C 0.78114 0.33162 0.35859 0.0
C2169 C 0.80269 0.34134 0.35009 0.0
C2170 C 0.7769 0.34197 0.37866 0.0
C2171 C 0.79474 0.36235 0.39049 0.0
C2172 C 0.81557 0.37377 0.38087 0.0
C2173 C 0.81932 0.36308 0.36073 0.0
C2174 C 0.75426 0.32956 0.38814 0.0
C2175 C 0.8349 0.39574 0.39285 0.0
H2176 H 0.77939 0.40607 0.45193 0.0
H2177 H 0.81033 0.35029 0.46344 0.0
H2178 H 0.78839 0.40953 0.39584 0.0
H2179 H 0.75987 0.38767 0.39654 0.0
H2180 H 0.76999 0.41503 0.41603 0.0
H2181 H 0.81836 0.326 0.43529 0.0
H2182 H 0.79877 0.31999 0.41038 0.0
H2183 H 0.82728 0.34271 0.41177 0.0
H2184 H 0.76792 0.3152 0.35012 0.0
H2185 H 0.83587 0.37094 0.35406 0.0
H2186 H 0.74772 0.34346 0.39633 0.0
H2187 H 0.75724 0.31773 0.40083 0.0
H2188 H 0.74057 0.31768 0.37522 0.0
H2189 H 0.82778 0.40941 0.40054 0.0
H2190 H 0.84785 0.40511 0.38161 0.0
H2191 H 0.84411 0.38939 0.40629 0.0
C2192 C 0.56119 0.1093 0.26768 0.0
C2193 C 0.54032 0.09217 0.25715 0.0
C2194 C 0.58132 0.1168 0.25653 0.0
C2195 C 0.58072 0.10581 0.23486 0.0
C2196 C 0.55932 0.08908 0.22399 0.0
C2197 C 0.53929 0.08298 0.23514 0.0
C2198 C 0.60311 0.1358 0.26846 0.0
C2199 C 0.55771 0.07634 0.20102 0.0
C2200 C 0.61639 0.11489 0.18792 0.0
C2201 C 0.62406 0.09446 0.18935 0.0
C2202 C 0.606 0.12277 0.20542 0.0
C2203 C 0.60234 0.1091 0.22394 0.0
C2204 C 0.61453 0.09238 0.22736 0.0
C2205 C 0.62592 0.08575 0.21009 0.0
C2206 C 0.59576 0.14301 0.20256 0.0
C2207 C 0.61244 0.07858 0.24766 0.0
H2208 H 0.56184 0.11664 0.2847 0.0
H2209 H 0.52311 0.06967 0.22711 0.0
H2210 H 0.6104 0.12724 0.28161 0.0
H2211 H 0.61671 0.14353 0.25731 0.0
H2212 H 0.59871 0.15127 0.27679 0.0
H2213 H 0.54018 0.0624 0.19582 0.0
H2214 H 0.56138 0.09019 0.18883 0.0
H2215 H 0.57083 0.06684 0.20029 0.0
H2216 H 0.61576 0.12281 0.17241 0.0
H2217 H 0.63345 0.07127 0.21187 0.0
H2218 H 0.59456 0.15233 0.2188 0.0
H2219 H 0.57794 0.13497 0.19376 0.0
H2220 H 0.60647 0.15701 0.19249 0.0
H2221 H 0.61641 0.09175 0.26278 0.0
H2222 H 0.62441 0.06765 0.24855 0.0
H2223 H 0.59426 0.06572 0.24752 0.0
C2224 C 0.80084 0.76986 0.96915 0.0
C2225 C 0.81939 0.76471 0.98045 0.0
C2226 C 0.80086 0.77442 0.94665 0.0
C2227 C 0.82013 0.77444 0.93492 0.0
C2228 C 0.83914 0.76974 0.94636 0.0
C2229 C 0.83841 0.76466 0.96876 0.0
C2230 C 0.77996 0.77881 0.9353 0.0
C2231 C 0.86032 0.77011 0.9349 0.0
C2232 C 0.81122 0.76535 0.87113 0.0
C2233 C 0.81853 0.78982 0.86544 0.0
C2234 C 0.81178 0.76006 0.89348 0.0
C2235 C 0.82038 0.77964 0.91085 0.0
C2236 C 0.8285 0.80433 0.90516 0.0
C2237 C 0.82724 0.80909 0.88274 0.0
C2238 C 0.80253 0.73346 0.89851 0.0
C2239 C 0.83833 0.82588 0.92282 0.0
H2240 H 0.78589 0.7697 0.97777 0.0
H2241 H 0.85284 0.76068 0.97716 0.0
H2242 H 0.78535 0.79738 0.9292 0.0
H2243 H 0.77251 0.76498 0.92069 0.0
H2244 H 0.76609 0.77759 0.94643 0.0
H2245 H 0.874 0.76697 0.94615 0.0
H2246 H 0.85522 0.7556 0.92068 0.0
H2247 H 0.86789 0.7882 0.92823 0.0
H2248 H 0.80444 0.75024 0.85813 0.0
H2249 H 0.83311 0.8281 0.87877 0.0
H2250 H 0.7876 0.73079 0.90854 0.0
H2251 H 0.81619 0.72881 0.90844 0.0
H2252 H 0.79667 0.7203 0.88327 0.0
H2253 H 0.82452 0.8269 0.93334 0.0
H2254 H 0.84537 0.84383 0.91575 0.0
H2255 H 0.85249 0.82319 0.93373 0.0
C2256 C 0.87829 0.11355 0.04959 0.0
C2257 C 0.86867 0.1072 0.06942 0.0
C2258 C 0.89252 0.10137 0.0405 0.0
C2259 C 0.89759 0.08279 0.05178 0.0
C2260 C 0.88834 0.0767 0.07206 0.0
C2261 C 0.87376 0.08879 0.08051 0.0
C2262 C 0.90183 0.10809 0.01869 0.0
C2263 C 0.89375 0.05734 0.08479 0.0
C2264 C 0.91671 0.03412 0.02112 0.0
C2265 C 0.94093 0.04374 0.02632 0.0
C2266 C 0.90239 0.047 0.02882 0.0
C2267 C 0.9126 0.06967 0.04244 0.0
C2268 C 0.93709 0.07941 0.04773 0.0
C2269 C 0.95098 0.06641 0.03943 0.0
C2270 C 0.87637 0.03627 0.02257 0.0
C2271 C 0.94858 0.10325 0.06255 0.0
H2272 H 0.87426 0.12767 0.0409 0.0
H2273 H 0.86646 0.08393 0.09592 0.0
H2274 H 0.92119 0.11458 0.02069 0.0
H2275 H 0.89586 0.09147 1.00643 0.0
H2276 H 0.89609 0.1228 0.01192 0.0
H2277 H 0.88656 0.05606 0.10106 0.0
H2278 H 0.88633 0.03896 0.07503 0.0
H2279 H 0.9129 0.0616 0.08759 0.0
H2280 H 0.90902 0.01659 0.01096 0.0
H2281 H 0.96973 0.07363 0.0437 0.0
H2282 H 0.87007 0.05009 0.01484 0.0
H2283 H 0.86727 0.03177 0.03761 0.0
H2284 H 0.87135 0.01919 0.01089 0.0
H2285 H 0.94496 0.11875 0.055 0.0
H2286 H 0.9678 0.1079 0.06556 0.0
H2287 H 0.94121 0.10184 0.07871 0.0
C2288 C 0.41239 0.41227 0.05048 0.0
C2289 C 0.39247 0.41868 0.05365 0.0
C2290 C 0.43415 0.43056 0.04915 0.0
C2291 C 0.43608 0.45588 0.0509 0.0
C2292 C 0.41601 0.46244 0.05385 0.0
C2293 C 0.39453 0.44383 0.05526 0.0
C2294 C 0.45517 0.42279 0.04616 0.0
C2295 C 0.41727 0.48919 0.05572 0.0
C2296 C 0.49568 0.50371 0.07017 0.0
C2297 C 0.50384 0.51198 0.05018 0.0
C2298 C 0.47368 0.48564 0.0706 0.0
C2299 C 0.45927 0.47557 0.05058 0.0
C2300 C 0.46712 0.48422 0.03037 0.0
C2301 C 0.48933 0.50228 0.0304 0.0
C2302 C 0.46604 0.47698 0.09251 0.0
C2303 C 0.45221 0.47408 0.00869 0.0
H2304 H 0.41103 0.39295 0.04918 0.0
H2305 H 0.37928 0.44905 0.05758 0.0
H2306 H 0.46322 0.43004 0.0312 0.0
H2307 H 0.46852 0.43081 0.0605 0.0
H2308 H 0.45068 0.40234 0.04453 0.0
H2309 H 0.39992 0.49118 0.05715 0.0
H2310 H 0.42921 0.49948 0.07045 0.0
H2311 H 0.42451 0.49805 0.04104 0.0
H2312 H 0.5067 0.51101 0.08557 0.0
H2313 H 0.49547 0.50846 0.01488 0.0
H2314 H 0.46306 0.45686 0.09234 0.0
H2315 H 0.44927 0.47974 0.09527 0.0
H2316 H 0.47914 0.48693 0.10664 0.0
H2317 H 0.44898 0.45392 1.00562 0.0
H2318 H 0.46048 0.48328 0.99451 0.0
H2319 H 0.43497 0.47651 0.00941 0.0
C2320 C 0.39122 0.6141 0.78831 0.0
C2321 C 0.38258 0.60281 0.76682 0.0
C2322 C 0.38093 0.62962 0.79906 0.0
C2323 C 0.36185 0.63417 0.78787 0.0
C2324 C 0.353 0.62271 0.76622 0.0
C2325 C 0.36338 0.60701 0.75602 0.0
C2326 C 0.39059 0.64134 0.82226 0.0
C2327 C 0.33288 0.62744 0.75364 0.0
C2328 C 0.32036 0.65925 0.81694 0.0
C2329 C 0.32863 0.68413 0.81279 0.0
C2330 C 0.33178 0.64293 0.80995 0.0
C2331 C 0.35163 0.65174 0.79826 0.0
C2332 C 0.36053 0.67706 0.79476 0.0
C2333 C 0.34896 0.69298 0.80216 0.0
C2334 C 0.32205 0.61609 0.81424 0.0
C2335 C 0.38147 0.68709 0.7821 0.0
H2336 H 0.40597 0.61075 0.79677 0.0
H2337 H 0.3567 0.59838 0.73938 0.0
H2338 H 0.39766 0.66177 0.82239 0.0
H2339 H 0.37646 0.63705 0.83336 0.0
H2340 H 0.40469 0.63486 0.82908 0.0
H2341 H 0.3279 0.61679 0.73704 0.0
H2342 H 0.31742 0.6224 0.76311 0.0
H2343 H 0.33763 0.64745 0.75153 0.0
H2344 H 0.30472 0.65248 0.82529 0.0
H2345 H 0.35518 0.71215 0.79863 0.0
H2346 H 0.33615 0.60988 0.82145 0.0
H2347 H 0.31461 0.60443 0.79839 0.0
H2348 H 0.30815 0.61282 0.8256 0.0
H2349 H 0.39625 0.68177 0.78899 0.0
H2350 H 0.3873 0.70759 0.78244 0.0
H2351 H 0.37704 0.67896 0.76461 0.0
C2352 C 0.24447 0.61401 0.5644 0.0
C2353 C 0.25526 0.63914 0.57194 0.0
C2354 C 0.22008 0.60363 0.56037 0.0
C2355 C 0.20624 0.61862 0.56458 0.0
C2356 C 0.21707 0.64403 0.57208 0.0
C2357 C 0.24148 0.65405 0.5754 0.0
C2358 C 0.20911 0.5766 0.55186 0.0
C2359 C 0.20289 0.66049 0.57724 0.0
C2360 C 0.14269 0.5998 0.54138 0.0
C2361 C 0.13128 0.58973 0.55939 0.0
C2362 C 0.16716 0.60844 0.5425 0.0
C2363 C 0.18039 0.60758 0.56231 0.0
C2364 C 0.1689 0.59723 0.58046 0.0
C2365 C 0.14447 0.58813 0.57867 0.0
C2366 C 0.17883 0.61878 0.52262 0.0
C2367 C 0.18239 0.59648 0.60203 0.0
H2368 H 0.25511 0.6025 0.56151 0.0
H2369 H 0.24976 0.67346 0.58135 0.0
H2370 H 0.19872 0.5663 0.56445 0.0
H2371 H 0.19695 0.57446 0.53681 0.0
H2372 H 0.22234 0.56798 0.54785 0.0
H2373 H 0.21404 0.67993 0.58269 0.0
H2374 H 0.19112 0.66039 0.56247 0.0
H2375 H 0.19173 0.65327 0.5905 0.0
H2376 H 0.13248 0.60081 0.52638 0.0
H2377 H 0.13567 0.58051 0.59268 0.0
H2378 H 0.19159 0.60964 0.51835 0.0
H2379 H 0.18867 0.63884 0.52653 0.0
H2380 H 0.16607 0.61628 0.50794 0.0
H2381 H 0.19468 0.5863 0.5992 0.0
H2382 H 0.17079 0.58749 0.61444 0.0
H2383 H 0.19297 0.61561 0.60904 0.0
C2384 C 0.70732 0.94812 0.79031 0.0
C2385 C 0.69882 0.96743 0.7953 0.0
C2386 C 0.72087 0.94118 0.80637 0.0
C2387 C 0.72673 0.95457 0.82767 0.0
C2388 C 0.71647 0.97266 0.83332 0.0
C2389 C 0.70234 0.97871 0.81703 0.0
C2390 C 0.73072 0.92108 0.79986 0.0
C2391 C 0.72219 0.98747 0.8557 0.0
C2392 C 0.76274 0.92699 0.86336 0.0
C2393 C 0.78454 0.93717 0.85515 0.0
C2394 C 0.74367 0.93413 0.85633 0.0
C2395 C 0.74686 0.95271 0.84174 0.0
C2396 C 0.76961 0.96613 0.83686 0.0
C2397 C 0.78808 0.958 0.8433 0.0
C2398 C 0.71975 0.92 0.86253 0.0
C2399 C 0.774 0.98707 0.82232 0.0
H2400 H 0.70432 0.93924 0.77353 0.0
H2401 H 0.69576 0.99373 0.82086 0.0
H2402 H 0.74956 0.92957 0.79792 0.0
H2403 H 0.72908 0.90829 0.81291 0.0
H2404 H 0.7218 0.91013 0.78402 0.0
H2405 H 0.70744 0.99351 0.86017 0.0
H2406 H 0.72649 0.97689 0.86887 0.0
H2407 H 0.73757 1.00435 0.85512 0.0
H2408 H 0.75994 0.91202 0.87378 0.0
H2409 H 0.80463 0.96666 0.83698 0.0
H2410 H 0.70939 0.9073 0.84806 0.0
H2411 H 0.71029 0.93282 0.86709 0.0
H2412 H 0.72062 0.90882 0.87648 0.0
H2413 H 0.76805 0.97933 0.80485 0.0
H2414 H 0.79282 0.99835 0.8234 0.0
H2415 H 0.76407 0.99939 0.82697 0.0
C2416 C 0.75187 0.9165 0.52834 0.0
C2417 C 0.76407 0.92062 0.54946 0.0
C2418 C 0.73602 0.92884 0.52311 0.0
C2419 C 0.7321 0.94541 0.53947 0.0
C2420 C 0.74386 0.949 0.56099 0.0
C2421 C 0.75977 0.93671 0.56566 0.0
C2422 C 0.72397 0.92469 0.49993 0.0
C2423 C 0.73996 0.96622 0.57902 0.0
C2424 C 0.71151 0.99843 0.5248 0.0
C2425 C 0.68789 0.98949 0.5286 0.0
C2426 C 0.72581 0.98384 0.52733 0.0
C2427 C 0.71641 0.95979 0.5341 0.0
C2428 C 0.69246 0.95035 0.53735 0.0
C2429 C 0.67848 0.96524 0.53444 0.0
C2430 C 0.75123 0.99455 0.52354 0.0
C2431 C 0.68178 0.92486 0.54468 0.0
H2432 H 0.75517 0.90415 0.51572 0.0
H2433 H 0.769 0.93987 0.58207 0.0
H2434 H 0.70479 0.91892 0.50034 0.0
H2435 H 0.72943 0.94229 0.49212 0.0
H2436 H 0.72807 0.9104 0.4894 0.0
H2437 H 0.7496 0.96604 0.59516 0.0
H2438 H 0.74572 0.98543 0.57433 0.0
H2439 H 0.72109 0.96092 0.58114 0.0
H2440 H 0.7191 0.0172 0.52055 0.0
H2441 H 0.66017 0.95792 0.53699 0.0
H2442 H 0.75607 0.98147 0.51222 0.0
H2443 H 0.76228 0.99738 0.53945 0.0
H2444 H 0.75535 1.01257 0.51642 0.0
H2445 H 0.68544 0.91083 0.53348 0.0
H2446 H 0.66259 0.9196 0.54506 0.0
H2447 H 0.68976 0.92426 0.56148 0.0
C2448 C 0.38912 0.47361 0.74539 0.0
C2449 C 0.41014 0.4905 0.75582 0.0
C2450 C 0.38103 0.44913 0.75073 0.0
C2451 C 0.39411 0.44158 0.76715 0.0
C2452 C 0.41572 0.45831 0.77721 0.0
C2453 C 0.42359 0.48256 0.77128 0.0
C2454 C 0.35807 0.43163 0.73938 0.0
C2455 C 0.42998 0.45095 0.79498 0.0
C2456 C 0.35799 0.38969 0.7977 0.0
C2457 C 0.36211 0.36919 0.7874 0.0
C2458 C 0.36902 0.41352 0.79179 0.0
C2459 C 0.38422 0.4168 0.77494 0.0
C2460 C 0.38896 0.39626 0.7649 0.0
C2461 C 0.37795 0.37265 0.77139 0.0
C2462 C 0.36387 0.43509 0.80314 0.0
C2463 C 0.40488 0.39907 0.7467 0.0
H2464 H 0.37879 0.47962 0.73327 0.0
H2465 H 0.43983 0.49559 0.77945 0.0
H2466 H 0.36012 0.41409 0.7327 0.0
H2467 H 0.34499 0.42691 0.75153 0.0
H2468 H 0.35111 0.43972 0.72563 0.0
H2469 H 0.44721 0.46553 0.79996 0.0
H2470 H 0.42029 0.44736 0.80979 0.0
H2471 H 0.43287 0.43356 0.78922 0.0
H2472 H 0.3459 0.38709 0.81023 0.0
H2473 H 0.38109 0.3568 0.7633 0.0
H2474 H 0.35457 0.44299 0.79102 0.0
H2475 H 0.38038 0.44998 0.80974 0.0
H2476 H 0.35294 0.42964 0.81695 0.0
H2477 H 0.39702 0.40493 0.73202 0.0
H2478 H 0.40799 0.38157 0.74167 0.0
H2479 H 0.42193 0.41371 0.75206 0.0
C2480 C 0.23063 0.6005 0.26022 0.0
C2481 C 0.20678 0.59254 0.26306 0.0
C2482 C 0.24419 0.62569 0.26352 0.0
C2483 C 0.23358 0.64335 0.26958 0.0
C2484 C 0.20945 0.63551 0.27212 0.0
C2485 C 0.19634 0.61018 0.26892 0.0
C2486 C 0.26993 0.63338 0.26076 0.0
C2487 C 0.19751 0.65388 0.27829 0.0
C2488 C 0.2736 0.70581 0.29703 0.0
C2489 C 0.27731 0.71989 0.27896 0.0
C2490 C 0.25904 0.68092 0.2943 0.0
C2491 C 0.2478 0.67005 0.27307 0.0
C2492 C 0.25088 0.68443 0.25495 0.0
C2493 C 0.26568 0.70915 0.2581 0.0
C2494 C 0.25625 0.66605 0.31398 0.0
C2495 C 0.23896 0.67357 0.23213 0.0
H2496 H 0.23886 0.587 0.25581 0.0
H2497 H 0.1779 0.60419 0.27109 0.0
H2498 H 0.27417 0.64629 0.2478 0.0
H2499 H 0.28028 0.6434 0.27639 0.0
H2500 H 0.27552 0.61732 0.25614 0.0
H2501 H 0.17852 0.64479 0.27928 0.0
H2502 H 0.20557 0.66434 0.29452 0.0
H2503 H 0.19988 0.66754 0.26594 0.0
H2504 H 0.28258 0.71402 0.31317 0.0
H2505 H 0.26833 0.72 0.24409 0.0
H2506 H 0.26328 0.65073 0.31106 0.0
H2507 H 0.23749 0.65754 0.3162 0.0
H2508 H 0.26543 0.67751 0.32952 0.0
H2509 H 0.24535 0.6586 0.22598 0.0
H2510 H 0.24217 0.68764 0.22008 0.0
H2511 H 0.21986 0.66517 0.23274 0.0
C2512 C 0.52849 0.69705 0.50296 0.0
C2513 C 0.54923 0.71742 0.50449 0.0
C2514 C 0.52834 0.67438 0.51048 0.0
C2515 C 0.54953 0.67183 0.51916 0.0
C2516 C 0.57046 0.6924 0.52081 0.0
C2517 C 0.56999 0.71494 0.51373 0.0
C2518 C 0.50556 0.65312 0.50904 0.0
C2519 C 0.59351 0.69047 0.52963 0.0
C2520 C 0.55282 0.6222 0.55602 0.0
C2521 C 0.55709 0.60486 0.54108 0.0
C2522 C 0.54897 0.64335 0.54889 0.0
C2523 C 0.55016 0.64773 0.52636 0.0
C2524 C 0.5539 0.62994 0.5111 0.0
C2525 C 0.55697 0.60852 0.5186 0.0
C2526 C 0.54425 0.66133 0.56561 0.0
C2527 C 0.55571 0.63404 0.48703 0.0
H2528 H 0.51237 0.69882 0.49589 0.0
H2529 H 0.58615 0.73048 0.5148 0.0
H2530 H 0.50626 0.63745 0.49773 0.0
H2531 H 0.5026 0.64633 0.52553 0.0
H2532 H 0.49044 0.65843 0.50297 0.0
H2533 H 0.60827 0.70805 0.5295 0.0
H2534 H 0.59269 0.68538 0.54684 0.0
H2535 H 0.59719 0.6756 0.51954 0.0
H2536 H 0.55248 0.61922 0.57337 0.0
H2537 H 0.56022 0.59512 0.50701 0.0
H2538 H 0.52888 0.66608 0.55938 0.0
H2539 H 0.55943 0.67877 0.56825 0.0
H2540 H 0.54104 0.65378 0.5818 0.0
H2541 H 0.54007 0.63769 0.47989 0.0
H2542 H 0.55751 0.61793 0.4771 0.0
H2543 H 0.57109 0.65061 0.48551 0.0
C2544 C 0.68346 0.30485 0.70396 0.0
C2545 C 0.68572 0.32166 0.68795 0.0
C2546 C 0.70303 0.30224 0.71561 0.0
C2547 C 0.72569 0.31725 0.71171 0.0
C2548 C 0.72823 0.33472 0.69595 0.0
C2549 C 0.70821 0.33651 0.68403 0.0
C2550 C 0.6994 0.28295 0.73183 0.0
C2551 C 0.75205 0.35163 0.69184 0.0
C2552 C 0.77051 0.31982 0.75935 0.0
C2553 C 0.77975 0.30183 0.75152 0.0
C2554 C 0.75416 0.32637 0.74596 0.0
C2555 C 0.74641 0.31428 0.72431 0.0
C2556 C 0.75645 0.29691 0.71595 0.0
C2557 C 0.77311 0.29105 0.72958 0.0
C2558 C 0.74444 0.34549 0.75534 0.0
C2559 C 0.74868 0.28348 0.69302 0.0
H2560 H 0.66623 0.29302 0.70697 0.0
H2561 H 0.71015 0.34953 0.67171 0.0
H2562 H 0.70857 0.26984 0.72723 0.0
H2563 H 0.70694 0.29195 0.74867 0.0
H2564 H 0.68065 0.27221 0.73245 0.0
H2565 H 0.75118 0.36338 0.67835 0.0
H2566 H 0.76058 0.36385 0.70717 0.0
H2567 H 0.76335 0.34067 0.68756 0.0
H2568 H 0.77583 0.32863 0.77612 0.0
H2569 H 0.78027 0.27728 0.72327 0.0
H2570 H 0.72613 0.33627 0.75872 0.0
H2571 H 0.74431 0.35897 0.74324 0.0
H2572 H 0.75464 0.35575 0.77098 0.0
H2573 H 0.73027 0.27105 0.6923 0.0
H2574 H 0.75958 0.27219 0.68827 0.0
H2575 H 0.74937 0.29683 0.68063 0.0
C2576 C 0.02948 0.34811 0.01379 0.0
C2577 C 0.0375 0.3399 0.99472 0.0
C2578 C 0.03458 0.3735 0.02009 0.0
C2579 C 0.04783 0.39122 1.00691 0.0
C2580 C 0.05635 0.38307 0.98786 0.0
C2581 C 0.05119 0.35755 0.98206 0.0
C2582 C 1.02545 0.38136 0.04071 0.0
C2583 C 0.07047 0.40132 0.97331 0.0
C2584 C 0.04089 0.45493 0.01165 0.0
C2585 C 0.06093 0.46913 0.02552 0.0
C2586 C 0.03657 0.42966 1.00521 0.0
C2587 C 0.05257 0.41822 0.01298 0.0
C2588 C 0.07286 0.4325 0.02691 0.0
C2589 C 0.07681 0.4577 0.03296 0.0
C2590 C 1.01482 0.41517 0.99017 0.0
C2591 C 0.0903 0.42108 0.03573 0.0
H2592 H 1.01892 0.33465 0.02371 0.0
H2593 H 0.05736 0.35142 0.96723 0.0
H2594 H 0.04007 0.39431 0.05212 0.0
H2595 H 1.0133 0.39138 0.03631 0.0
H2596 H 1.01613 0.36536 0.04959 0.0
H2597 H 0.07622 0.39208 0.95932 0.0
H2598 H 0.05994 0.4121 0.96651 0.0
H2599 H 0.08613 0.41472 0.98317 0.0
H2600 H 0.02855 0.46354 1.00574 0.0
H2601 H 0.09229 0.46835 0.04382 0.0
H2602 H 1.00364 0.39985 0.99868 0.0
H2603 H 1.01958 0.40667 0.97513 0.0
H2604 H 1.00448 0.42689 0.98505 0.0
H2605 H 0.08175 0.40626 0.04611 0.0
H2606 H 0.10559 0.43488 0.0458 0.0
H2607 H 0.09663 0.41235 0.02187 0.0
C2608 C 0.04883 0.82731 0.18975 0.0
C2609 C 0.05879 0.80892 0.19318 0.0
C2610 C 0.03011 0.82877 0.2013 0.0
C2611 C 1.02107 0.81134 0.21647 0.0
C2612 C 0.03111 0.79281 0.22 0.0
C2613 C 0.04985 0.79188 0.20838 0.0
C2614 C 1.01995 0.84889 0.19723 0.0
C2615 C 1.02194 0.77379 0.23595 0.0
C2616 C 0.98628 0.82351 0.26246 0.0
C2617 C 0.9634 0.80912 0.25405 0.0
C2618 C 1.00514 0.82527 0.25002 0.0
C2619 C 1.00104 0.81218 0.2287 0.0
C2620 C 0.9779 0.79826 0.21984 0.0
C2621 C 0.95936 0.79695 0.2326 0.0
C2622 C 0.02952 0.8405 0.25997 0.0
C2623 C 0.97281 0.7839 0.19725 0.0
H2624 H 0.05565 0.84055 0.17805 0.0
H2625 H 0.05737 0.77757 0.21111 0.0
H2626 H 1.00125 0.8405 0.19084 0.0
H2627 H 1.02085 0.86024 0.213 0.0
H2628 H 0.0292 0.86126 0.1852 0.0
H2629 H 0.03165 0.76054 0.23675 0.0
H2630 H 1.02318 0.78315 0.25278 0.0
H2631 H 1.00323 0.76318 0.23093 0.0
H2632 H 0.98946 0.83325 0.2789 0.0
H2633 H 0.94174 0.78565 0.22607 0.0
H2634 H 0.03849 0.8536 0.24834 0.0
H2635 H 0.03983 0.82815 0.26291 0.0
H2636 H 0.02956 0.8512 0.2759 0.0
H2637 H 0.98107 0.79611 0.18472 0.0
H2638 H 0.95379 0.77555 0.19207 0.0
H2639 H 0.98041 0.76884 0.19736 0.0
C2640 C 0.56294 0.38635 0.13745 0.0
C2641 C 0.58162 0.37706 0.13611 0.0
C2642 C 0.56205 0.40758 0.1269 0.0
C2643 C 0.58044 0.4209 0.11464 0.0
C2644 C 0.59944 0.41172 0.11343 0.0
C2645 C 0.5997 0.39021 0.12382 0.0
C2646 C 0.5411 0.41569 0.12878 0.0
C2647 C 0.61981 0.42484 0.10116 0.0
C2648 C 0.57002 0.46343 0.07012 0.0
C2649 C 0.57861 0.48766 0.08121 0.0
C2650 C 0.57032 0.44201 0.08063 0.0
C2651 C 0.57976 0.44405 0.1031 0.0
C2652 C 0.58858 0.46847 0.11436 0.0
C2653 C 0.58775 0.48955 0.10354 0.0
C2654 C 0.56021 0.41692 0.06757 0.0
C2655 C 0.5991 0.47245 0.13807 0.0
H2656 H 0.54869 0.37681 0.14666 0.0
H2657 H 0.6144 0.3838 0.12244 0.0
H2658 H 0.54666 0.43481 0.13711 0.0
H2659 H 0.53279 0.41599 0.11204 0.0
H2660 H 0.52789 0.40333 0.13821 0.0
H2661 H 0.6336 0.41618 0.10205 0.0
H2662 H 0.61374 0.42468 0.08353 0.0
H2663 H 0.62756 0.44452 0.10811 0.0
H2664 H 0.56268 0.46105 0.05305 0.0
H2665 H 0.59448 0.50774 0.11272 0.0
H2666 H 0.54609 0.40463 0.07614 0.0
H2667 H 0.57385 0.40817 0.0665 0.0
H2668 H 0.55301 0.41797 0.05054 0.0
H2669 H 0.58583 0.46231 0.14864 0.0
H2670 H 0.60586 0.49234 0.14455 0.0
H2671 H 0.61361 0.46487 0.13952 0.0
C2672 C 0.98929 0.31447 0.3818 0.0
C2673 C 1.00257 0.3011 0.37201 0.0
C2674 C 0.96717 0.31436 0.37198 0.0
C2675 C 0.95667 0.30028 0.35141 0.0
C2676 C 0.96989 0.28674 0.34125 0.0
C2677 C 0.99229 0.28738 0.3514 0.0
C2678 C 0.95486 0.32951 0.38394 0.0
C2679 C 0.96015 0.27113 0.31957 0.0
C2680 C 0.88843 0.28394 0.33756 0.0
C2681 C 0.88617 0.30136 0.32303 0.0
C2682 C 0.91068 0.28297 0.34624 0.0
C2683 C 0.93222 0.29998 0.34088 0.0
C2684 C 0.93002 0.31754 0.32616 0.0
C2685 C 0.90756 0.31791 0.31751 0.0
C2686 C 0.91108 0.26354 0.36142 0.0
C2687 C 0.95164 0.33644 0.31966 0.0
H2688 H 0.99626 0.32533 0.39757 0.0
H2689 H 1.00154 0.27663 0.34328 0.0
H2690 H 0.95136 0.3428 0.37304 0.0
H2691 H 0.93775 0.3172 0.38806 0.0
H2692 H 0.96517 0.34001 0.39944 0.0
H2693 H 0.97205 0.26166 0.31349 0.0
H2694 H 0.9431 0.25694 0.32148 0.0
H2695 H 0.95692 0.28285 0.3069 0.0
H2696 H 0.87263 0.27077 0.34222 0.0
H2697 H 0.90683 0.33161 0.30644 0.0
H2698 H 0.9193 0.27259 0.37808 0.0
H2699 H 0.92182 0.25274 0.35517 0.0
H2700 H 0.89331 0.25057 0.36303 0.0
H2701 H 0.962 0.34819 0.33461 0.0
H2702 H 0.94751 0.34859 0.30783 0.0
H2703 H 0.9628 0.32699 0.31202 0.0
C2704 C 0.03692 0.73091 0.65011 0.0
C2705 C 0.05121 0.75424 0.64475 0.0
C2706 C 0.03706 0.70807 0.63922 0.0
C2707 C 0.05223 0.70779 0.62255 0.0
C2708 C 0.06666 0.73126 0.61705 0.0
C2709 C 0.06583 0.75381 0.62788 0.0
C2710 C 1.02091 0.68406 0.64575 0.0
C2711 C 0.08356 0.73264 0.59993 0.0
C2712 C 0.06905 0.64848 0.60964 0.0
C2713 C 0.05572 0.63724 0.58937 0.0
C2714 C 0.06821 0.67108 0.62034 0.0
C2715 C 0.05327 0.68322 0.61115 0.0
C2716 C 0.03951 0.67175 0.59085 0.0
C2717 C 0.04106 0.64942 0.58026 0.0
C2718 C 0.08365 0.68217 0.64155 0.0
C2719 C 1.02284 0.68305 0.58028 0.0
H2720 H 1.02555 0.73042 0.66304 0.0
H2721 H 0.07731 0.77128 0.62347 0.0
H2722 H 1.01016 0.67248 0.63089 0.0
H2723 H 0.03126 0.67344 0.65317 0.0
H2724 H 1.0091 0.68706 0.65784 0.0
H2725 H 0.09373 0.75202 0.59739 0.0
H2726 H 0.09591 0.72309 0.60509 0.0
H2727 H 0.07401 0.72292 0.5839 0.0
H2728 H 0.08053 0.63971 0.61715 0.0
H2729 H 0.03043 0.64128 0.56481 0.0
H2730 H 0.0728 0.6833 0.65514 0.0
H2731 H 0.09501 0.70134 0.63973 0.0
H2732 H 0.09485 0.67121 0.64639 0.0
H2733 H 1.0105 0.68511 0.59216 0.0
H2734 H 1.01267 0.67172 0.56505 0.0
H2735 H 0.03263 0.70185 0.57601 0.0
C2736 C 0.65293 0.80463 0.88624 0.0
C2737 C 0.63286 0.80673 0.87432 0.0
C2738 C 0.67394 0.80549 0.87643 0.0
C2739 C 0.67602 0.80812 0.85346 0.0
C2740 C 0.65584 0.81016 0.84122 0.0
C2741 C 0.63507 0.80968 0.85156 0.0
C2742 C 0.69426 0.80372 0.891 0.0
C2743 C 0.65609 0.81274 0.81682 0.0
C2744 C 0.73884 0.83042 0.83133 0.0
C2745 C 0.7426 0.80831 0.82354 0.0
C2746 C 0.7178 0.8307 0.84066 0.0
C2747 C 0.69888 0.80835 0.84253 0.0
C2748 C 0.70247 0.78603 0.83439 0.0
C2749 C 0.72377 0.78627 0.82538 0.0
C2750 C 0.71616 0.85529 0.84905 0.0
C2751 C 0.68357 0.76147 0.83518 0.0
H2752 H 0.65242 0.80252 0.90372 0.0
H2753 H 0.62036 0.8114 0.84159 0.0
H2754 H 0.69845 0.78714 0.88509 0.0
H2755 H 0.70996 0.82015 0.89002 0.0
H2756 H 0.69069 0.80254 0.90857 0.0
H2757 H 0.63935 0.81369 0.80919 0.0
H2758 H 0.67042 0.82974 0.81402 0.0
H2759 H 0.65955 0.7968 0.8083 0.0
H2760 H 0.75261 0.84783 0.8304 0.0
H2761 H 0.72561 0.7688 0.81968 0.0
H2762 H 0.71724 0.85685 0.86738 0.0
H2763 H 0.69913 0.85672 0.84292 0.0
H2764 H 0.73037 0.87112 0.84399 0.0
H2765 H 0.68064 0.75823 0.85262 0.0
H2766 H 0.68796 0.74578 0.82728 0.0
H2767 H 0.6669 0.76166 0.82672 0.0
C2768 C 0.48347 0.60197 0.69029 0.0
C2769 C 0.46065 0.58555 0.69025 0.0
C2770 C 0.49629 0.60085 0.67233 0.0
C2771 C 0.48628 0.58222 0.65454 0.0
C2772 C 0.46249 0.56733 0.65344 0.0
C2773 C 0.4498 0.56947 0.67124 0.0
C2774 C 0.52111 0.61823 0.6732 0.0
C2775 C 0.45115 0.5474 0.63461 0.0
C2776 C 0.51677 0.57568 0.60369 0.0
C2777 C 0.5286 0.55978 0.61024 0.0
C2778 C 0.50367 0.58413 0.61823 0.0
C2779 C 0.50153 0.57543 0.63935 0.0
C2780 C 0.51342 0.55921 0.64593 0.0
C2781 C 0.52728 0.55202 0.6314 0.0
C2782 C 0.49194 0.60194 0.61065 0.0
C2783 C 0.511 0.5489 0.66808 0.0
H2784 H 0.49172 0.61474 0.70484 0.0
H2785 H 0.43209 0.55684 0.67113 0.0
H2786 H 0.53331 0.60827 0.67761 0.0
H2787 H 0.52478 0.62493 0.65677 0.0
H2788 H 0.52469 0.63444 0.68568 0.0
H2789 H 0.43216 0.53837 0.63565 0.0
H2790 H 0.45355 0.55528 0.61854 0.0
H2791 H 0.45959 0.53302 0.63481 0.0
H2792 H 0.51805 0.58184 0.58728 0.0
H2793 H 0.53645 0.53965 0.63627 0.0
H2794 H 0.49026 0.61449 0.62463 0.0
H2795 H 0.4742 0.5913 0.60258 0.0
H2796 H 0.50173 0.61335 0.59827 0.0
H2797 H 0.51791 0.56418 0.68161 0.0
H2798 H 0.52047 0.53557 0.67014 0.0
H2799 H 0.49229 0.53936 0.66999 0.0
C2800 C 0.85281 0.20334 0.00811 0.0
C2801 C 0.85549 0.21706 0.02865 0.0
C2802 C 0.8515 0.2143 0.98844 0.0
C2803 C 0.85349 0.23961 0.98956 0.0
C2804 C 0.85938 0.25419 0.01021 0.0
C2805 C 0.85988 0.24262 0.02961 0.0
C2806 C 0.8455 0.19823 0.96668 0.0
C2807 C 0.86305 0.28154 0.01193 0.0
C2808 C 0.85061 0.26756 0.93517 0.0
C2809 C 0.827 0.26576 0.93238 0.0
C2810 C 0.85985 0.25992 0.95402 0.0
C2811 C 0.84493 0.24944 0.97007 0.0
C2812 C 0.82121 0.24784 0.96748 0.0
C2813 C 0.81269 0.25643 0.94893 0.0
C2814 C 0.88537 0.26253 0.9563 0.0
C2815 C 0.80459 0.2366 0.98412 0.0
H2816 H 0.84945 0.18355 1.00737 0.0
H2817 H 0.86231 0.25331 0.04555 0.0
H2818 H 0.82727 0.19559 0.9602 0.0
H2819 H 0.85703 0.20735 0.95431 0.0
H2820 H 0.8471 0.17974 0.96836 0.0
H2821 H 0.87176 0.29097 0.02837 0.0
H2822 H 0.87375 0.29046 0.99891 0.0
H2823 H 0.84593 0.28431 0.0094 0.0
H2824 H 0.86183 0.27443 0.92241 0.0
H2825 H 0.79464 0.25557 0.94731 0.0
H2826 H 0.88745 0.24545 0.94853 0.0
H2827 H 0.89274 0.26536 0.97386 0.0
H2828 H 0.89573 0.27829 0.94774 0.0
H2829 H 0.80442 0.21752 0.98617 0.0
H2830 H 0.78645 0.23578 0.97914 0.0
H2831 H 0.8105 0.2476 1.00047 0.0
C2832 C 0.10115 0.48485 0.20272 0.0
C2833 C 0.1243 0.48523 0.20314 0.0
C2834 C 0.08849 0.48549 0.18281 0.0
C2835 C 0.09925 0.48632 0.163 0.0
C2836 C 0.12112 0.48277 0.16294 0.0
C2837 C 0.1335 0.48232 0.18312 0.0
C2838 C 0.06493 0.48858 0.18348 0.0
C2839 C 0.13273 0.48258 0.14194 0.0
C2840 C 0.06851 0.49251 0.10834 0.0
C2841 C 0.07819 0.51809 0.10714 0.0
C2842 C 0.07474 0.48168 0.12664 0.0
C2843 C 0.09074 0.49695 0.14409 0.0
C2844 C 0.09963 0.52294 0.14332 0.0
C2845 C 0.09339 0.53314 0.12475 0.0
C2846 C 0.06515 0.45391 0.12669 0.0
C2847 C 0.11637 0.54 0.1618 0.0
H2848 H 0.09362 0.48634 0.2181 0.0
H2849 H 0.15117 0.482 0.18324 0.0
H2850 H 0.067 0.50844 0.18301 0.0
H2851 H 0.05279 0.47809 0.16894 0.0
H2852 H 0.05697 0.48235 0.19879 0.0
H2853 H 0.14708 0.47477 0.14384 0.0
H2854 H 0.11988 0.47168 0.12801 0.0
H2855 H 0.14019 0.50183 0.13757 0.0
H2856 H 0.05699 0.48083 0.09451 0.0
H2857 H 0.10077 0.55293 0.1238 0.0
H2858 H 0.06095 0.44857 0.14341 0.0
H2859 H 0.07853 0.44595 0.12173 0.0
H2860 H 0.04923 0.4455 0.11486 0.0
H2861 H 0.1088 0.53708 0.1778 0.0
H2862 H 0.12062 0.55984 0.1591 0.0
H2863 H 0.13286 0.53579 0.16322 0.0
C2864 C 0.80994 0.84801 0.471 0.0
C2865 C 0.81753 0.83356 0.48544 0.0
C2866 C 0.81 0.84416 0.44779 0.0
C2867 C 0.81739 0.82501 0.4384 0.0
C2868 C 0.82436 0.80986 0.45286 0.0
C2869 C 0.82461 0.81447 0.47605 0.0
C2870 C 0.80277 0.86113 0.43332 0.0
C2871 C 0.83186 0.78886 0.44384 0.0
C2872 C 0.79928 0.8026 0.37649 0.0
C2873 C 0.81985 0.81396 0.36669 0.0
C2874 C 0.7983 0.80578 0.3996 0.0
C2875 C 0.81823 0.82116 0.41359 0.0
C2876 C 0.83898 0.83288 0.40377 0.0
C2877 C 0.83961 0.82896 0.38064 0.0
C2878 C 0.7759 0.79245 0.40908 0.0
C2879 C 0.86056 0.8498 0.41773 0.0
H2880 H 0.80468 0.86301 0.4779 0.0
H2881 H 0.83056 0.80315 0.48688 0.0
H2882 H 0.81753 0.87111 0.42415 0.0
H2883 H 0.78815 0.85018 0.42087 0.0
H2884 H 0.79725 0.87497 0.443 0.0
H2885 H 0.83544 0.77783 0.457 0.0
H2886 H 0.8181 0.77637 0.43133 0.0
H2887 H 0.84787 0.7963 0.43542 0.0
H2888 H 0.78388 0.79083 0.36608 0.0
H2889 H 0.85559 0.83797 0.37343 0.0
H2890 H 0.76936 0.80604 0.4178 0.0
H2891 H 0.77919 0.78043 0.42145 0.0
H2892 H 0.76206 0.78084 0.39616 0.0
H2893 H 0.8565 0.86498 0.42693 0.0
H2894 H 0.87513 0.85806 0.40767 0.0
H2895 H 0.86649 0.8394 0.43015 0.0
C2896 C 0.47669 0.58916 0.83203 0.0
C2897 C 0.48893 0.59022 0.81335 0.0
C2898 C 0.4866 0.5862 0.8527 0.0
C2899 C 0.50934 0.58465 0.85463 0.0
C2900 C 0.52266 0.58857 0.83635 0.0
C2901 C 0.51222 0.59114 0.81585 0.0
C2902 C 0.47185 0.58218 0.87183 0.0
C2903 C 0.54715 0.58763 0.83784 0.0
C2904 C 0.5385 0.58085 0.91088 0.0
C2905 C 0.5337 0.55522 0.91069 0.0
C2906 C 0.53064 0.59085 0.89281 0.0
C2907 C 0.51757 0.57477 0.87425 0.0
C2908 C 0.51257 0.54887 0.87407 0.0
C2909 C 0.52081 0.53944 0.89226 0.0
C2910 C 0.53653 0.61855 0.89348 0.0
C2911 C 0.49848 0.53106 0.85466 0.0
H2912 H 0.45867 0.58846 0.83018 0.0
H2913 H 0.52183 0.59226 0.80146 0.0
H2914 H 0.46557 0.56219 0.87422 0.0
H2915 H 0.48221 0.59236 0.88738 0.0
H2916 H 0.45642 0.58815 0.86887 0.0
H2917 H 0.55647 0.59527 0.82358 0.0
H2918 H 0.55741 0.5981 0.85335 0.0
H2919 H 0.54642 0.56811 0.83807 0.0
H2920 H 0.54867 0.59311 0.92509 0.0
H2921 H 0.51682 0.51961 0.89223 0.0
H2922 H 0.52039 0.62319 0.89045 0.0
H2923 H 0.5476 0.62561 0.88012 0.0
H2924 H 0.54594 0.62838 0.90957 0.0
H2925 H 0.48122 0.53339 0.85148 0.0
H2926 H 0.49562 0.51143 0.85741 0.0
H2927 H 0.50756 0.53511 0.83955 0.0
C2928 C 0.86024 0.21667 0.15281 0.0
C2929 C 0.84366 0.19301 0.14735 0.0
C2930 C 0.86056 0.23051 0.17282 0.0
C2931 C 0.84327 0.22082 0.18717 0.0
C2932 C 0.82718 0.19646 0.18217 0.0
C2933 C 0.82785 0.18267 0.16245 0.0
C2934 C 0.87875 0.2559 0.17818 0.0
C2935 C 0.80822 0.18561 0.19683 0.0
C2936 C 0.84609 0.25045 0.24549 0.0
C2937 C 0.83284 0.26591 0.24208 0.0
C2938 C 0.85047 0.23634 0.22768 0.0
C2939 C 0.84048 0.23697 0.20613 0.0
C2940 C 0.82705 0.25259 0.20266 0.0
C2941 C 0.82378 0.26726 0.22067 0.0
C2942 C 0.86544 0.22053 0.23208 0.0
C2943 C 0.81549 0.25321 0.18004 0.0
H2944 H 0.8726 0.22458 0.14119 0.0
H2945 H 0.81491 0.16443 0.15814 0.0
H2946 H 0.87044 0.27026 0.17658 0.0
H2947 H 0.88667 0.25819 0.19552 0.0
H2948 H 0.89282 0.25925 0.167 0.0
H2949 H 0.79758 0.16611 0.19096 0.0
H2950 H 0.81591 0.18625 0.21399 0.0
H2951 H 0.7965 0.1968 0.19732 0.0
H2952 H 0.85321 0.24954 0.26212 0.0
H2953 H 0.81334 0.27905 0.21813 0.0
H2954 H 0.87734 0.22129 0.21902 0.0
H2955 H 0.85413 0.20096 0.23208 0.0
H2956 H 0.87605 0.22643 0.24838 0.0
H2957 H 0.82886 0.25935 0.16835 0.0
H2958 H 0.80509 0.26582 0.18028 0.0
H2959 H 0.80379 0.23431 0.17353 0.0
C2960 C 0.10163 0.5146 0.32403 0.0
C2961 C 0.12445 0.51464 0.32284 0.0
C2962 C 0.0938 0.519 0.34439 0.0
C2963 C 0.10943 0.52414 0.36384 0.0
C2964 C 0.13189 0.52225 0.3629 0.0
C2965 C 0.13908 0.51722 0.3423 0.0
C2966 C 0.06947 0.52018 0.34484 0.0
C2967 C 0.14909 0.52782 0.38329 0.0
C2968 C 0.10103 0.57139 0.40566 0.0
C2969 C 0.08988 0.55647 0.42142 0.0
C2970 C 0.10815 0.56108 0.38718 0.0
C2971 C 0.10352 0.53517 0.38428 0.0
C2972 C 0.09237 0.52002 0.40026 0.0
C2973 C 0.08582 0.53093 0.41882 0.0
C2974 C 0.12036 0.57789 0.37062 0.0
C2975 C 0.08681 0.49231 0.39748 0.0
H2976 H 0.09023 0.51228 0.30893 0.0
H2977 H 0.15677 0.51728 0.34133 0.0
H2978 H 0.06086 0.51044 0.35859 0.0
H2979 H 0.07049 0.5398 0.34766 0.0
H2980 H 0.05841 0.51187 0.32907 0.0
H2981 H 0.16421 0.52172 0.3804 0.0
H2982 H 0.15573 0.54808 0.38818 0.0
H2983 H 0.14057 0.51872 0.39736 0.0
H2984 H 0.10433 0.59118 0.40793 0.0
H2985 H 0.07703 0.51945 0.43106 0.0
H2986 H 0.10945 0.57318 0.35449 0.0
H2987 H 0.13717 0.57518 0.3679 0.0
H2988 H 0.12389 0.59776 0.37607 0.0
H2989 H 0.07394 0.48414 0.3828 0.0
H2990 H 0.0795 0.48342 0.41216 0.0
H2991 H 0.10271 0.48776 0.39449 0.0
C2992 C 0.81992 0.82786 0.62495 0.0
C2993 C 0.80911 0.844 0.61661 0.0
C2994 C 0.81877 0.82207 0.64723 0.0
C2995 C 0.80634 0.8324 0.66171 0.0
C2996 C 0.79477 0.848 0.65309 0.0
C2997 C 0.79637 0.85362 0.63094 0.0
C2998 C 0.83149 0.80545 0.65549 0.0
C2999 C 0.78107 0.85935 0.66748 0.0
C3000 C 0.7877 0.80461 0.7161 0.0
C3001 C 0.80441 0.82103 0.73226 0.0
C3002 C 0.78826 0.80784 0.69326 0.0
C3003 C 0.80606 0.82788 0.686 0.0
C3004 C 0.82305 0.84438 0.70223 0.0
C3005 C 0.82199 0.84083 0.72493 0.0
C3006 C 0.76961 0.78982 0.67685 0.0
C3007 C 0.84245 0.86596 0.69559 0.0
H3008 H 0.82997 0.82039 0.6143 0.0
H3009 H 0.78779 0.86603 0.62492 0.0
H3010 H 0.84557 0.816 0.66861 0.0
H3011 H 0.81938 0.78985 0.66299 0.0
H3012 H 0.83935 0.79781 0.6421 0.0
H3013 H 0.77202 0.86999 0.65811 0.0
H3014 H 0.76788 0.84469 0.675 0.0
H3015 H 0.79297 0.87199 0.68121 0.0
H3016 H 0.77406 0.78915 0.7213 0.0
H3017 H 0.83519 0.8536 0.737 0.0
H3018 H 0.77774 0.78125 0.66437 0.0
H3019 H 0.7596 0.79979 0.66785 0.0
H3020 H 0.75725 0.77489 0.6849 0.0
H3021 H 0.8523 0.85926 0.68349 0.0
H3022 H 0.85483 0.87662 0.70996 0.0
H3023 H 0.83499 0.87865 0.68736 0.0
C3024 C 0.77102 0.48878 0.58768 0.0
C3025 C 0.76309 0.47243 0.56831 0.0
C3026 C 0.76057 0.50637 0.59318 0.0
C3027 C 0.74156 0.50741 0.57911 0.0
C3028 C 0.73351 0.49109 0.55945 0.0
C3029 C 0.74452 0.47382 0.55419 0.0
C3030 C 0.76966 0.5236 0.61422 0.0
C3031 C 0.71305 0.4916 0.54422 0.0
C3032 C 0.69911 0.53393 0.60434 0.0
C3033 C 0.70552 0.55746 0.59677 0.0
C3034 C 0.71086 0.51753 0.59885 0.0
C3035 C 0.72949 0.52492 0.58552 0.0
C3036 C 0.73653 0.54893 0.57836 0.0
C3037 C 0.72434 0.56493 0.584 0.0
C3038 C 0.70274 0.49198 0.60664 0.0
C3039 C 0.75656 0.55746 0.56436 0.0
H3040 H 0.78555 0.48794 0.59856 0.0
H3041 H 0.73839 0.46121 0.53921 0.0
H3042 H 0.7742 0.54314 0.61052 0.0
H3043 H 0.75587 0.52023 0.62568 0.0
H3044 H 0.78531 0.52113 0.6228 0.0
H3045 H 0.7094 0.47815 0.52927 0.0
H3046 H 0.6972 0.48721 0.55315 0.0
H3047 H 0.71644 0.51041 0.53892 0.0
H3048 H 0.68417 0.52789 0.61374 0.0
H3049 H 0.7292 0.58312 0.57811 0.0
H3050 H 0.7177 0.4876 0.61445 0.0
H3051 H 0.69478 0.47799 0.59225 0.0
H3052 H 0.68964 0.49011 0.61872 0.0
H3053 H 0.77253 0.55557 0.57279 0.0
H3054 H 0.76038 0.57703 0.56088 0.0
H3055 H 0.75241 0.54559 0.5484 0.0
C3056 C 0.24618 0.15085 0.54471 0.0
C3057 C 0.25088 0.17319 0.53502 0.0
C3058 C 0.22321 0.13489 0.54512 0.0
C3059 C 0.2045 0.1412 0.53529 0.0
C3060 C 0.20917 0.163 0.52439 0.0
C3061 C 0.23231 0.17886 0.52456 0.0
C3062 C 0.21893 0.11197 0.55712 0.0
C3063 C 0.18967 0.1701 0.51335 0.0
C3064 C 0.14403 0.09232 0.52514 0.0
C3065 C 0.13305 0.09914 0.5427 0.0
C3066 C 0.16735 0.10577 0.5225 0.0
C3067 C 0.18003 0.12616 0.53803 0.0
C3068 C 0.16922 0.13257 0.55619 0.0
C3069 C 0.14579 0.11913 0.55817 0.0
C3070 C 0.1782 0.09863 0.50276 0.0
C3071 C 0.18228 0.15389 0.57336 0.0
H3072 H 0.2604 0.14632 0.55289 0.0
H3073 H 0.23581 0.19598 0.51689 0.0
H3074 H 0.21006 0.11393 0.57205 0.0
H3075 H 0.20724 0.09543 0.54647 0.0
H3076 H 0.23538 0.10865 0.56235 0.0
H3077 H 0.1963 0.18617 0.50365 0.0
H3078 H 0.17763 0.15424 0.50216 0.0
H3079 H 0.17936 0.17493 0.52606 0.0
H3080 H 0.13415 0.07703 0.513 0.0
H3081 H 0.13739 0.12438 0.57183 0.0
H3082 H 0.19449 0.0952 0.50824 0.0
H3083 H 0.18301 0.11412 0.49221 0.0
H3084 H 0.16623 0.08182 0.49258 0.0
H3085 H 0.19851 0.15137 0.58048 0.0
H3086 H 0.17168 0.1557 0.58703 0.0
H3087 H 0.18749 0.17147 0.56554 0.0
C3088 C 0.21327 0.97112 0.7993 0.0
C3089 C 0.20736 0.98732 0.81403 0.0
C3090 C 0.23259 0.96392 0.80459 0.0
C3091 C 0.2466 0.97368 0.82491 0.0
C3092 C 0.23957 0.98839 0.84063 0.0
C3093 C 0.2198 0.99495 0.83503 0.0
C3094 C 0.23903 0.94745 0.78763 0.0
C3095 C 0.25388 0.9989 0.86253 0.0
C3096 C 0.29215 0.94329 0.83155 0.0
C3097 C 0.30913 0.95798 0.81929 0.0
C3098 C 0.27251 0.94963 0.83593 0.0
C3099 C 0.26998 0.97112 0.82783 0.0
C3100 C 0.28854 0.9876 0.81804 0.0
C3101 C 0.30791 0.98074 0.81377 0.0
C3102 C 0.25337 0.93179 0.84682 0.0
C3103 C 0.28679 1.0111 0.80976 0.0
H3104 H 0.20341 0.965 0.78317 0.0
H3105 H 0.21521 1.00754 0.84642 0.0
H3106 H 0.25495 0.95845 0.78044 0.0
H3107 H 0.24299 0.93229 0.79548 0.0
H3108 H 0.22487 0.93911 0.77395 0.0
H3109 H 0.24345 1.00459 0.8747 0.0
H3110 H 0.26106 0.98534 0.86956 0.0
H3111 H 0.26884 0.01548 0.86004 0.0
H3112 H 0.29301 0.92563 0.83589 0.0
H3113 H 0.32125 0.99228 0.80463 0.0
H3114 H 0.24027 0.91921 0.83384 0.0
H3115 H 0.24431 0.94167 0.85711 0.0
H3116 H 0.26032 0.92027 0.85732 0.0
H3117 H 0.27457 1.00637 0.79442 0.0
H3118 H 0.30397 0.02369 0.80599 0.0
H3119 H 0.27979 0.0211 0.82214 0.0
C3120 C 0.39052 0.95766 0.076 0.0
C3121 C 0.38075 0.93964 0.05798 0.0
C3122 C 0.41446 0.97137 0.07865 0.0
C3123 C 0.42886 0.96704 0.0628 0.0
C3124 C 0.41927 0.9483 0.04502 0.0
C3125 C 0.39534 0.93477 0.04286 0.0
C3126 C 0.42417 0.99109 0.09792 0.0
C3127 C 0.43409 0.94323 0.02773 0.0
C3128 C 0.4826 0.01923 0.05195 0.0
C3129 C 0.50059 1.0123 0.06201 0.0
C3130 C 0.45916 1.00496 0.0526 0.0
C3131 C 0.45356 0.98332 0.06373 0.0
C3132 C 0.47156 0.97665 0.07459 0.0
C3133 C 0.49493 0.9912 0.07354 0.0
C3134 C 0.44042 1.01262 0.04074 0.0
C3135 C 0.46616 0.95379 0.08678 0.0
H3136 H 0.3794 0.96143 0.08784 0.0
H3137 H 0.38797 0.92083 0.02892 0.0
H3138 H 0.43978 0.98884 0.10677 0.0
H3139 H 0.42981 1.00963 0.09177 0.0
H3140 H 0.41116 0.99057 0.10986 0.0
H3141 H 0.42425 0.92702 0.01571 0.0
H3142 H 0.44065 0.95968 0.0185 0.0
H3143 H 0.44952 0.93983 0.03571 0.0
H3144 H 0.4868 0.03553 0.04303 0.0
H3145 H 0.50874 0.98579 0.08145 0.0
H3146 H 0.42763 0.0143 0.05223 0.0
H3147 H 0.43076 0.9982 0.02711 0.0
H3148 H 0.44768 0.03053 0.03366 0.0
H3149 H 0.4534 0.95396 0.0988 0.0
H3150 H 0.48203 0.95223 0.09578 0.0
H3151 H 0.45806 0.93704 0.07489 0.0
C3152 C 0.84304 0.57319 0.8416 0.0
C3153 C 0.86671 0.58563 0.84852 0.0
C3154 C 0.82701 0.58585 0.84155 0.0
C3155 C 0.83509 0.61161 0.84807 0.0
C3156 C 0.85834 0.62345 0.85778 0.0
C3157 C 0.87397 0.61019 0.85801 0.0
C3158 C 0.80219 0.57234 0.83177 0.0
C3159 C 0.86755 0.65083 0.86521 0.0
C3160 C 0.8122 0.64812 0.80893 0.0
C3161 C 0.79648 0.65525 0.82111 0.0
C3162 C 0.8248 0.63403 0.81769 0.0
C3163 C 0.8216 0.62673 0.83925 0.0
C3164 C 0.80556 0.63358 0.85166 0.0
C3165 C 0.79329 0.64802 0.84248 0.0
C3166 C 0.84181 0.62725 0.80384 0.0
C3167 C 0.80166 0.62606 0.87465 0.0
H3168 H 0.83735 0.55398 0.8347 0.0
H3169 H 0.89226 0.61975 0.86355 0.0
H3170 H 0.78976 0.57878 0.84075 0.0
H3171 H 0.80023 0.57617 0.81428 0.0
H3172 H 0.79741 0.55199 0.83215 0.0
H3173 H 0.88397 0.65603 0.87643 0.0
H3174 H 0.8712 0.66128 0.85051 0.0
H3175 H 0.85448 0.65659 0.87378 0.0
H3176 H 0.81526 0.65425 0.79267 0.0
H3177 H 0.78126 0.65369 0.852 0.0
H3178 H 0.83682 0.60682 0.80095 0.0
H3179 H 0.85963 0.63445 0.81272 0.0
H3180 H 0.84244 0.63478 0.78753 0.0
H3181 H 0.79954 0.60621 0.87521 0.0
H3182 H 0.78605 0.62938 0.88059 0.0
H3183 H 0.81711 0.63693 0.88625 0.0
C3184 C 0.89111 0.6788 0.0324 0.0
C3185 C 0.87994 0.67869 0.05173 0.0
C3186 C 0.90644 0.66532 0.0298 0.0
C3187 C 0.91092 0.6517 0.04704 0.0
C3188 C 0.90038 0.65238 0.0669 0.0
C3189 C 0.88494 0.66569 0.06893 0.0
C3190 C 0.91716 0.6649 0.0083 0.0
C3191 C 0.9049 0.63846 0.08583 0.0
C3192 C 0.92826 0.59462 0.03553 0.0
C3193 C 0.9523 0.60361 0.04243 0.0
C3194 C 0.91484 0.6103 0.0361 0.0
C3195 C 0.92555 0.63562 0.04406 0.0
C3196 C 0.94987 0.64499 0.05058 0.0
C3197 C 0.96295 0.62895 0.04956 0.0
C3198 C 0.88898 0.59955 0.02885 0.0
C3199 C 0.96196 0.67182 0.05927 0.0
H3200 H 0.88726 0.68872 0.01901 0.0
H3201 H 0.87652 0.66565 0.08399 0.0
H3202 H 0.93638 0.67002 0.0115 0.0
H3203 H 0.91044 0.64586 0.9997 0.0
H3204 H 0.91319 0.67771 0.9971 0.0
H3205 H 0.89655 0.64217 0.10067 0.0
H3206 H 0.89805 0.61826 0.08065 0.0
H3207 H 0.92394 0.64362 0.09048 0.0
H3208 H 0.9197 0.57508 0.03028 0.0
H3209 H 0.98156 0.63627 0.05454 0.0
H3210 H 0.88396 0.61073 0.01661 0.0
H3211 H 0.87904 0.60016 0.04328 0.0
H3212 H 0.88367 0.58005 0.02139 0.0
H3213 H 0.95826 0.68406 0.04733 0.0
H3214 H 0.98117 0.67656 0.06245 0.0
H3215 H 0.9551 0.67586 0.07492 0.0
C3216 C 0.21843 0.10793 0.78762 0.0
C3217 C 0.20159 0.103 0.80274 0.0
C3218 C 0.23404 0.13198 0.78689 0.0
C3219 C 0.23288 0.15152 0.80173 0.0
C3220 C 0.21603 0.14667 0.81711 0.0
C3221 C 0.20053 0.12248 0.81738 0.0
C3222 C 0.25167 0.13651 0.77015 0.0
C3223 C 0.21436 0.16706 0.83325 0.0
C3224 C 0.28569 0.21031 0.8127 0.0
C3225 C 0.27897 0.22616 0.79934 0.0
C3226 C 0.27086 0.18592 0.81365 0.0
C3227 C 0.24891 0.17718 0.80081 0.0
C3228 C 0.24213 0.193 0.78715 0.0
C3229 C 0.2572 0.21731 0.78664 0.0
C3230 C 0.27857 0.16957 0.82851 0.0
C3231 C 0.21892 0.18426 0.7731 0.0
H3232 H 0.21937 0.09299 0.77625 0.0
H3233 H 0.18766 0.11883 0.82919 0.0
H3234 H 0.249 0.14998 0.75901 0.0
H3235 H 0.2696 0.14473 0.77867 0.0
H3236 H 0.25044 0.11925 0.75993 0.0
H3237 H 0.20063 0.16011 0.8445 0.0
H3238 H 0.23134 0.17616 0.84338 0.0
H3239 H 0.21041 0.18145 0.82412 0.0
H3240 H 0.30244 0.21702 0.82261 0.0
H3241 H 0.25188 0.22936 0.77619 0.0
H3242 H 0.2788 0.15269 0.81864 0.0
H3243 H 0.26596 0.16343 0.8409 0.0
H3244 H 0.29621 0.17915 0.83737 0.0
H3245 H 0.21751 0.16775 0.76174 0.0
H3246 H 0.21645 0.19878 0.7631 0.0
H3247 H 0.20449 0.17864 0.78378 0.0
C3248 C 0.43309 0.97084 0.268 0.0
C3249 C 0.45047 0.98248 0.28545 0.0
C3250 C 0.41889 0.94606 0.26787 0.0
C3251 C 0.42208 0.93262 0.28567 0.0
C3252 C 0.44011 0.94395 0.30295 0.0
C3253 C 0.45416 0.96875 0.3026 0.0
C3254 C 0.39997 0.93451 0.24904 0.0
C3255 C 0.44398 0.93017 0.32221 0.0
C3256 C 0.36904 0.87946 0.29685 0.0
C3257 C 0.37362 0.85895 0.28707 0.0
C3258 C 0.38489 0.90351 0.29683 0.0
C3259 C 0.40575 0.90713 0.28669 0.0
C3260 C 0.41062 0.88652 0.27701 0.0
C3261 C 0.39451 0.86265 0.27735 0.0
C3262 C 0.37918 0.92508 0.30743 0.0
C3263 C 0.43265 0.88971 0.26598 0.0
H3264 H 0.4302 0.98126 0.25462 0.0
H3265 H 0.46753 0.9776 0.31617 0.0
H3266 H 0.40144 0.91692 0.24172 0.0
H3267 H 0.3826 0.92996 0.25535 0.0
H3268 H 0.40074 0.94696 0.23579 0.0
H3269 H 0.45966 0.9411 0.33359 0.0
H3270 H 0.42854 0.92565 0.33171 0.0
H3271 H 0.44599 0.9124 0.31618 0.0
H3272 H 0.35301 0.87677 0.30448 0.0
H3273 H 0.39819 0.84691 0.26974 0.0
H3274 H 0.37771 0.93761 0.29482 0.0
H3275 H 0.39346 0.936 0.32023 0.0
H3276 H 0.36259 0.91904 0.31524 0.0
H3277 H 0.43301 0.90092 0.25186 0.0
H3278 H 0.43416 0.87171 0.2598 0.0
H3279 H 0.44818 0.89991 0.27777 0.0
C3280 C 0.60328 0.38838 0.62974 0.0
C3281 C 0.61689 0.37896 0.61645 0.0
C3282 C 0.59643 0.40847 0.62398 0.0
C3283 C 0.60297 0.41927 0.60421 0.0
C3284 C 0.61648 0.40964 0.59059 0.0
C3285 C 0.62341 0.3898 0.59694 0.0
C3286 C 0.58244 0.41837 0.63923 0.0
C3287 C 0.62367 0.42032 0.56927 0.0
C3288 C 0.56851 0.45786 0.57959 0.0
C3289 C 0.58364 0.48218 0.58583 0.0
C3290 C 0.57456 0.43727 0.58538 0.0
C3291 C 0.59613 0.44096 0.59802 0.0
C3292 C 0.61131 0.46547 0.60461 0.0
C3293 C 0.60497 0.48567 0.59836 0.0
C3294 C 0.55802 0.41151 0.57766 0.0
C3295 C 0.63433 0.47042 0.61828 0.0
H3296 H 0.5982 0.38026 0.64489 0.0
H3297 H 0.63383 0.38265 0.58648 0.0
H3298 H 0.5921 0.43814 0.6449 0.0
H3299 H 0.56564 0.4174 0.63024 0.0
H3300 H 0.5787 0.40796 0.65396 0.0
H3301 H 0.6332 0.41004 0.56 0.0
H3302 H 0.60805 0.41997 0.55854 0.0
H3303 H 0.63508 0.43996 0.57281 0.0
H3304 H 0.55209 0.45487 0.56979 0.0
H3305 H 0.61683 0.50431 0.60339 0.0
H3306 H 0.5529 0.40095 0.59207 0.0
H3307 H 0.56687 0.40144 0.56728 0.0
H3308 H 0.54197 0.41169 0.56792 0.0
H3309 H 0.63133 0.46171 0.63395 0.0
H3310 H 0.64407 0.49053 0.6223 0.0
H3311 H 0.64542 0.46198 0.60926 0.0
C3312 C 0.47098 0.78672 0.3824 0.0
C3313 C 0.47064 0.76989 0.39804 0.0
C3314 C 0.45111 0.7842 0.36814 0.0
C3315 C 0.43027 0.76424 0.36937 0.0
C3316 C 0.42993 0.74667 0.38461 0.0
C3317 C 0.45014 0.74975 0.39885 0.0
C3318 C 0.45223 0.80348 0.35226 0.0
C3319 C 0.40807 0.72507 0.3863 0.0
C3320 C 0.37692 0.77939 0.34941 0.0
C3321 C 0.37295 0.76957 0.32713 0.0
C3322 C 0.39457 0.77636 0.36374 0.0
C3323 C 0.40866 0.76314 0.35566 0.0
C3324 C 0.40383 0.75183 0.3336 0.0
C3325 C 0.38602 0.7552 0.31955 0.0
C3326 C 0.39897 0.78858 0.38718 0.0
C3327 C 0.4183 0.73732 0.32448 0.0
H3328 H 0.48674 0.8023 0.38155 0.0
H3329 H 0.44976 0.73663 0.41085 0.0
H3330 H 0.44667 0.79448 0.33511 0.0
H3331 H 0.44005 0.81343 0.35639 0.0
H3332 H 0.47004 0.81729 0.35275 0.0
H3333 H 0.41146 0.71139 0.39681 0.0
H3334 H 0.39489 0.73187 0.39354 0.0
H3335 H 0.40036 0.71557 0.36964 0.0
H3336 H 0.36672 0.79022 0.35558 0.0
H3337 H 0.38294 0.74733 0.30244 0.0
H3338 H 0.41637 0.80331 0.38964 0.0
H3339 H 0.3991 0.77489 0.39906 0.0
H3340 H 0.38562 0.79703 0.39121 0.0
H3341 H 0.43594 0.7502 0.32238 0.0
H3342 H 0.41033 0.7268 0.30822 0.0
H3343 H 0.42055 0.72417 0.33619 0.0
C3344 C 0.09382 0.72188 0.12243 0.0
C3345 C 0.09963 0.74178 0.10936 0.0
C3346 C 0.09097 0.69774 0.11363 0.0
C3347 C 0.09342 0.69307 0.091 0.0
C3348 C 0.09851 0.71286 0.07747 0.0
C3349 C 0.10185 0.73707 0.08687 0.0
C3350 C 0.08596 0.67733 0.12877 0.0
C3351 C 0.10064 0.70849 0.05314 0.0
C3352 C 0.1081 0.63502 0.07519 0.0
C3353 C 0.0859 0.61757 0.06882 0.0
C3354 C 0.11088 0.65982 0.082 0.0
C3355 C 0.09103 0.66747 0.08184 0.0
C3356 C 0.06866 0.65008 0.07457 0.0
C3357 C 0.06635 0.62531 0.06843 0.0
C3358 C 0.13495 0.67761 0.09014 0.0
C3359 C 0.0471 0.6575 0.07363 0.0
H3360 H 0.09226 0.72527 0.13987 0.0
H3361 H 0.1063 0.75229 0.07665 0.0
H3362 H 0.0693 0.66243 0.12264 0.0
H3363 H 0.09994 0.66896 0.12889 0.0
H3364 H 0.08476 0.68407 0.14604 0.0
H3365 H 0.10321 0.72548 0.0446 0.0
H3366 H 0.11563 0.70203 0.05088 0.0
H3367 H 0.08474 0.69372 0.04506 0.0
H3368 H 0.12324 0.62912 0.07549 0.0
H3369 H 0.04916 0.61198 0.06315 0.0
H3370 H 0.13546 0.68414 0.10781 0.0
H3371 H 0.13915 0.69414 0.08083 0.0
H3372 H 0.14868 0.66903 0.08846 0.0
H3373 H 0.04368 0.6626 0.09062 0.0
H3374 H 0.03138 0.64237 0.06559 0.0
H3375 H 0.0498 0.67402 0.06444 0.0
C3376 C 0.09974 0.30192 0.90532 0.0
C3377 C 0.08334 0.27794 0.90137 0.0
C3378 C 0.11966 0.30899 0.89377 0.0
C3379 C 0.12329 0.29158 0.87808 0.0
C3380 C 0.10667 0.26745 0.87389 0.0
C3381 C 0.08689 0.26097 0.8855 0.0
C3382 C 0.13692 0.33496 0.8985 0.0
C3383 C 0.10996 0.24829 0.85738 0.0
C3384 C 0.16382 0.31132 0.83334 0.0
C3385 C 0.18372 0.30654 0.84188 0.0
C3386 C 0.14432 0.30739 0.8453 0.0
C3387 C 0.14463 0.29824 0.86622 0.0
C3388 C 0.16481 0.29384 0.87513 0.0
C3389 C 0.18413 0.29814 0.86291 0.0
C3390 C 0.12315 0.31237 0.83527 0.0
C3391 C 0.16578 0.28399 0.89735 0.0
H3392 H 0.09709 0.31514 0.91753 0.0
H3393 H 0.07436 0.24237 0.88236 0.0
H3394 H 0.15413 0.33435 0.90509 0.0
H3395 H 0.13946 0.34404 0.88298 0.0
H3396 H 0.13117 0.34653 0.91064 0.0
H3397 H 0.09526 0.23042 0.85587 0.0
H3398 H 0.11161 0.25523 0.84086 0.0
H3399 H 0.12636 0.24481 0.86242 0.0
H3400 H 0.16322 0.31755 0.81702 0.0
H3401 H 0.19959 0.29486 0.86983 0.0
H3402 H 0.11778 0.3245 0.84714 0.0
H3403 H 0.10832 0.29471 0.83166 0.0
H3404 H 0.12637 0.32129 0.8197 0.0
H3405 H 0.16169 0.29611 0.91023 0.0
H3406 H 0.18315 0.28263 0.9024 0.0
H3407 H 0.15242 0.26531 0.89677 0.0
C3408 C 0.59891 0.72941 0.97786 0.0
C3409 C 0.58007 0.73187 0.96438 0.0
C3410 C 0.59739 0.70734 0.98814 0.0
C3411 C 0.57635 0.68645 0.98554 0.0
C3412 C 0.55721 0.68887 0.97207 0.0
C3413 C 0.55932 0.71106 0.96173 0.0
C3414 C 0.61863 0.70631 1.00174 0.0
C3415 C 0.53424 0.66785 0.96854 0.0
C3416 C 0.57809 0.62033 0.99616 0.0
C3417 C 0.57192 0.61725 0.01799 0.0
C3418 C 0.57948 0.64219 0.98561 0.0
C3419 C 0.5745 0.66232 0.99668 0.0
C3420 C 0.56796 0.65921 0.01861 0.0
C3421 C 0.56687 0.63719 0.02884 0.0
C3422 C 0.58658 0.64378 0.96244 0.0
C3423 C 0.56201 0.67933 0.03143 0.0
H3424 H 0.6152 0.74484 0.98026 0.0
H3425 H 0.54444 0.7121 0.95152 0.0
H3426 H 0.61461 0.70309 0.01895 0.0
H3427 H 0.62356 0.69054 0.99491 0.0
H3428 H 0.63382 0.72362 1.00213 0.0
H3429 H 0.52059 0.67267 0.95869 0.0
H3430 H 0.53657 0.65136 0.95982 0.0
H3431 H 0.528 0.66259 0.98472 0.0
H3432 H 0.58209 0.60554 0.98716 0.0
H3433 H 0.56203 0.63566 0.04556 0.0
H3434 H 0.60256 0.66009 0.96216 0.0
H3435 H 0.57266 0.64644 0.9512 0.0
H3436 H 0.59 0.62692 0.95588 0.0
H3437 H 0.57737 0.6966 0.03383 0.0
H3438 H 0.55649 0.67419 0.04789 0.0
H3439 H 0.54774 0.68345 0.02193 0.0
C3440 C 0.14858 0.8366 0.70955 0.0
C3441 C 0.12859 0.8306 0.7214 0.0
C3442 C 0.17071 0.8355 0.71822 0.0
C3443 C 0.17422 0.82867 0.73992 0.0
C3444 C 0.15427 0.82301 0.7522 0.0
C3445 C 0.13208 0.82369 0.74289 0.0
C3446 C 0.19043 0.84126 0.70372 0.0
C3447 C 0.15635 0.81613 0.77545 0.0
C3448 C 0.22602 0.80379 0.75557 0.0
C3449 C 0.24441 0.8248 0.76592 0.0
C3450 C 0.20369 0.80479 0.74721 0.0
C3451 C 0.1984 0.82724 0.74938 0.0
C3452 C 0.21679 0.84844 0.76014 0.0
C3453 C 0.23916 0.84705 0.76786 0.0
C3454 C 0.18569 0.78154 0.73565 0.0
C3455 C 0.21282 0.87288 0.76371 0.0
H3456 H 0.14685 0.8417 0.69292 0.0
H3457 H 0.11736 0.8188 0.75263 0.0
H3458 H 0.20543 0.85715 0.71175 0.0
H3459 H 0.19654 0.82516 0.70156 0.0
H3460 H 0.18524 0.84578 0.68716 0.0
H3461 H 0.14018 0.81383 0.7836 0.0
H3462 H 0.16015 0.79855 0.77525 0.0
H3463 H 0.17114 0.8306 0.7855 0.0
H3464 H 0.22916 0.78632 0.75364 0.0
H3465 H 0.25258 0.86363 0.77579 0.0
H3466 H 0.18047 0.78483 0.71865 0.0
H3467 H 0.1698 0.77651 0.74451 0.0
H3468 H 0.1922 0.76564 0.73465 0.0
H3469 H 0.20956 0.87946 0.74754 0.0
H3470 H 0.22794 0.88734 0.77338 0.0
H3471 H 0.19708 0.87055 0.77255 0.0
C3472 C 0.03791 0.38371 0.47676 0.0
C3473 C 0.05821 0.37991 0.46992 0.0
C3474 C 0.03823 0.40684 0.48737 0.0
C3475 C 0.05947 0.42726 0.49216 0.0
C3476 C 0.08009 0.4234 0.48561 0.0
C3477 C 0.07917 0.40027 0.47445 0.0
C3478 C 1.01553 0.40952 0.49318 0.0
C3479 C 0.10339 0.44381 0.49053 0.0
C3480 C 0.05881 0.49508 0.50283 0.0
C3481 C 0.06044 0.49941 0.52612 0.0
C3482 C 0.05834 0.4721 0.49176 0.0
C3483 C 0.06006 0.45237 0.50391 0.0
C3484 C 0.06212 0.45679 0.52744 0.0
C3485 C 0.062 0.47976 0.53807 0.0
C3486 C 0.05566 0.46886 0.46682 0.0
C3487 C 0.06465 0.43718 0.54156 0.0
H3488 H 1.02145 0.3686 0.47338 0.0
H3489 H 0.09511 0.39806 0.46946 0.0
H3490 H 1.01626 0.41383 0.5113 0.0
H3491 H 1.0127 0.42521 0.48525 0.0
H3492 H 1.00034 0.39249 0.48785 0.0
H3493 H 0.11801 0.43784 0.48556 0.0
H3494 H 0.1033 0.45997 0.48169 0.0
H3495 H 0.10662 0.45011 0.50848 0.0
H3496 H 0.05751 0.50967 0.49305 0.0
H3497 H 0.06342 0.48239 0.55596 0.0
H3498 H 0.04012 0.4525 0.46073 0.0
H3499 H 0.07106 0.46534 0.4607 0.0
H3500 H 0.05378 0.48536 0.45958 0.0
H3501 H 0.04887 0.42038 0.53833 0.0
H3502 H 0.06721 0.44355 0.5595 0.0
H3503 H 0.07973 0.43172 0.53719 0.0
C3504 C 0.48045 0.30129 0.22141 0.0
C3505 C 0.49443 0.28826 0.23053 0.0
C3506 C 0.45909 0.30163 0.22988 0.0
C3507 C 0.4507 0.28908 0.24864 0.0
C3508 C 0.46488 0.27612 0.25806 0.0
C3509 C 0.48593 0.27565 0.24897 0.0
C3510 C 0.44519 0.31537 0.21839 0.0
C3511 C 0.45786 0.26264 0.27811 0.0
C3512 C 0.40521 0.30892 0.28231 0.0
C3513 C 0.38336 0.29015 0.27569 0.0
C3514 C 0.42672 0.30863 0.2741 0.0
C3515 C 0.42738 0.28939 0.25814 0.0
C3516 C 0.40535 0.27048 0.25132 0.0
C3517 C 0.38419 0.27097 0.26011 0.0
C3518 C 0.44904 0.32916 0.28274 0.0
C3519 C 0.40399 0.24956 0.23431 0.0
H3520 H 0.48607 0.31114 0.2072 0.0
H3521 H 0.49595 0.26541 0.25661 0.0
H3522 H 0.4272 0.3026 0.213 0.0
H3523 H 0.44373 0.33038 0.23005 0.0
H3524 H 0.4532 0.32362 0.20373 0.0
H3525 H 0.47098 0.25458 0.2845 0.0
H3526 H 0.45548 0.2755 0.29146 0.0
H3527 H 0.44088 0.2475 0.27393 0.0
H3528 H 0.40561 0.32404 0.29418 0.0
H3529 H 0.36798 0.25621 0.25435 0.0
H3530 H 0.45663 0.33971 0.26899 0.0
H3531 H 0.46202 0.32123 0.28968 0.0
H3532 H 0.4463 0.34219 0.29574 0.0
H3533 H 0.41117 0.25712 0.2191 0.0
H3534 H 0.38583 0.23672 0.22988 0.0
H3535 H 0.4148 0.23887 0.24069 0.0
C3536 C 0.63165 0.55152 0.41653 0.0
C3537 C 0.64721 0.54061 0.40832 0.0
C3538 C 0.62604 0.54969 0.43831 0.0
C3539 C 0.63638 0.5368 0.45235 0.0
C3540 C 0.65243 0.52608 0.44434 0.0
C3541 C 0.65757 0.52798 0.4223 0.0
C3542 C 0.60866 0.56123 0.44615 0.0
C3543 C 0.66394 0.51245 0.45898 0.0
C3544 C 0.62922 0.55272 0.51198 0.0
C3545 C 0.60813 0.53413 0.51452 0.0
C3546 C 0.63994 0.55269 0.49238 0.0
C3547 C 0.62918 0.53373 0.47498 0.0
C3548 C 0.60901 0.51384 0.47821 0.0
C3549 C 0.59879 0.51424 0.49799 0.0
C3550 C 0.66173 0.57396 0.4897 0.0
C3551 C 0.597 0.49325 0.46007 0.0
H3552 H 0.62357 0.5613 0.40584 0.0
H3553 H 0.66975 0.51967 0.41605 0.0
H3554 H 0.59329 0.54671 0.45115 0.0
H3555 H 0.61663 0.57472 0.46087 0.0
H3556 H 0.60249 0.57094 0.43321 0.0
H3557 H 0.67708 0.50648 0.45066 0.0
H3558 H 0.67263 0.52442 0.4744 0.0
H3559 H 0.65056 0.49584 0.46387 0.0
H3560 H 0.63681 0.56795 0.52483 0.0
H3561 H 0.5827 0.49954 0.49991 0.0
H3562 H 0.65711 0.58693 0.47915 0.0
H3563 H 0.67441 0.56727 0.48138 0.0
H3564 H 0.6703 0.58438 0.50585 0.0
H3565 H 0.58828 0.5005 0.44692 0.0
H3566 H 0.58362 0.4775 0.46624 0.0
H3567 H 0.60984 0.48626 0.45239 0.0
C3568 C 0.2858 0.84467 0.09949 0.0
C3569 C 0.28064 0.84152 0.07649 0.0
C3570 C 0.28532 0.82454 0.11125 0.0
C3571 C 0.27852 0.80049 0.09978 0.0
C3572 C 0.27029 0.79683 0.07705 0.0
C3573 C 0.27198 0.81752 0.0655 0.0
C3574 C 0.2944 0.82953 0.13551 0.0
C3575 C 0.26114 0.77143 0.06442 0.0
C3576 C 0.31588 0.76714 0.12487 0.0
C3577 C 0.30415 0.75936 0.14341 0.0
C3578 C 0.30661 0.7786 0.10893 0.0
C3579 C 0.28442 0.78088 0.11088 0.0
C3580 C 0.27065 0.76871 0.12702 0.0
C3581 C 0.28086 0.75855 0.1435 0.0
C3582 C 0.32171 0.79065 0.09152 0.0
C3583 C 0.24586 0.76823 0.12781 0.0
H3584 H 0.29231 0.86318 0.10809 0.0
H3585 H 0.26745 0.81495 0.04775 0.0
H3586 H 0.2811 0.81844 0.14555 0.0
H3587 H 0.31012 0.82402 0.13821 0.0
H3588 H 0.29912 0.84935 0.14181 0.0
H3589 H 0.24573 0.76984 0.05275 0.0
H3590 H 0.2747 0.76874 0.05435 0.0
H3591 H 0.25609 0.75642 0.07545 0.0
H3592 H 0.33325 0.76629 0.12381 0.0
H3593 H 0.27111 0.75184 0.15722 0.0
H3594 H 0.32566 0.81101 0.09377 0.0
H3595 H 0.3123 0.78379 0.07483 0.0
H3596 H 0.33847 0.78693 0.09219 0.0
H3597 H 0.24567 0.78701 0.1331 0.0
H3598 H 0.2365 0.75531 0.13943 0.0
H3599 H 0.23623 0.76262 0.11105 0.0
C3600 C 1.0248 0.58119 0.88966 0.0
C3601 C 1.00107 0.57546 0.89252 0.0
C3602 C 0.04105 0.58196 0.9074 0.0
C3603 C 0.03316 0.57612 0.92819 0.0
C3604 C 1.00933 0.57127 0.93136 0.0
C3605 C 0.99359 0.57135 0.91348 0.0
C3606 C 0.06645 0.58812 0.90368 0.0
C3607 C 1.00022 0.56474 0.95331 0.0
C3608 C 0.06212 0.546 0.96866 0.0
C3609 C 0.06984 0.56478 0.98613 0.0
C3610 C 0.05152 0.54998 0.94878 0.0
C3611 C 0.04926 0.57346 0.94643 0.0
C3612 C 0.05948 0.59321 0.96323 0.0
C3613 C 0.0693 0.58848 0.98315 0.0
C3614 C 0.04056 0.52837 0.93133 0.0
C3615 C 0.05821 0.61871 0.961 0.0
H3616 H 0.03059 0.5846 0.87343 0.0
H3617 H 0.97521 0.5668 0.91563 0.0
H3618 H 0.07773 0.60182 0.91711 0.0
H3619 H 0.07131 0.57118 0.90397 0.0
H3620 H 0.0702 0.59565 0.88756 0.0
H3621 H 0.98126 0.56174 0.95305 0.0
H3622 H 1.00328 0.5476 0.95776 0.0
H3623 H 1.00972 0.5797 0.96655 0.0
H3624 H 0.06232 0.52762 0.97128 0.0
H3625 H 0.07529 0.60291 0.99687 0.0
H3626 H 0.04509 0.53379 0.91472 0.0
H3627 H 1.02127 0.52245 0.93099 0.0
H3628 H 0.04613 0.51229 0.93457 0.0
H3629 H 0.06149 0.62409 0.94411 0.0
H3630 H 0.07098 0.6329 0.9732 0.0
H3631 H 0.04046 0.6187 0.96385 0.0
C3632 C 0.31478 0.24326 0.62605 0.0
C3633 C 0.32328 0.26054 0.61082 0.0
C3634 C 0.31433 0.25058 0.6485 0.0
C3635 C 0.32317 0.276 0.65653 0.0
C3636 C 0.33168 0.29371 0.64127 0.0
C3637 C 0.33132 0.28582 0.61856 0.0
C3638 C 0.3045 0.23091 0.6637 0.0
C3639 C 0.34172 0.32095 0.64907 0.0
C3640 C 0.30466 0.2926 0.71293 0.0
C3641 C 0.32279 0.29112 0.72776 0.0
C3642 C 0.30486 0.28854 0.68977 0.0
C3643 C 0.32395 0.28352 0.68098 0.0
C3644 C 0.34277 0.28312 0.69591 0.0
C3645 C 0.34182 0.28657 0.71897 0.0
C3646 C 0.28411 0.28856 0.67473 0.0
C3647 C 0.36375 0.2784 0.68756 0.0
H3648 H 0.30817 0.22368 0.62032 0.0
H3649 H 0.33797 0.29935 0.60705 0.0
H3650 H 0.31844 0.23084 0.67641 0.0
H3651 H 0.29071 0.23502 0.67251 0.0
H3652 H 0.29694 0.21209 0.65468 0.0
H3653 H 0.34714 0.33247 0.63525 0.0
H3654 H 0.32873 0.32697 0.65754 0.0
H3655 H 0.35712 0.32444 0.66131 0.0
H3656 H 0.28984 0.29604 0.71945 0.0
H3657 H 0.3561 0.2857 0.73016 0.0
H3658 H 0.27504 0.26964 0.66634 0.0
H3659 H 0.28987 0.30103 0.66166 0.0
H3660 H 0.27143 0.29447 0.68386 0.0
H3661 H 0.35862 0.25899 0.67999 0.0
H3662 H 0.37805 0.28151 0.70098 0.0
H3663 H 0.3705 0.29063 0.67453 0.0
C3664 C 0.59498 0.5141 0.29051 0.0
C3665 C 0.61771 0.5147 0.28747 0.0
C3666 C 0.57975 0.51539 0.27257 0.0
C3667 C 0.58799 0.51868 0.2515 0.0
C3668 C 0.61022 0.5172 0.24807 0.0
C3669 C 0.62458 0.51466 0.26604 0.0
C3670 C 0.55552 0.51491 0.2766 0.0
C3671 C 0.61992 0.52088 0.22596 0.0
C3672 C 0.5587 0.52306 0.19608 0.0
C3673 C 0.56578 0.5489 0.19578 0.0
C3674 C 0.56313 0.51255 0.21528 0.0
C3675 C 0.57585 0.52826 0.23417 0.0
C3676 C 0.5809 0.55417 0.23463 0.0
C3677 C 0.57522 0.56407 0.2156 0.0
C3678 C 0.55578 0.48474 0.21465 0.0
C3679 C 0.59442 0.57173 0.25442 0.0
H3680 H 0.58943 0.51365 0.30702 0.0
H3681 H 0.64209 0.515 0.26356 0.0
H3682 H 0.55602 0.53391 0.28204 0.0
H3683 H 0.54313 0.50792 0.26143 0.0
H3684 H 0.54886 0.5031 0.28994 0.0
H3685 H 0.63739 0.51881 0.22605 0.0
H3686 H 0.60798 0.50731 0.21287 0.0
H3687 H 0.62146 0.53968 0.22146 0.0
H3688 H 0.55107 0.51099 0.18102 0.0
H3689 H 0.57968 0.58396 0.21586 0.0
H3690 H 0.55262 0.47852 0.23132 0.0
H3691 H 0.56973 0.47839 0.20852 0.0
H3692 H 0.53968 0.47568 0.20319 0.0
H3693 H 0.58541 0.56688 0.26943 0.0
H3694 H 0.59661 0.59134 0.25217 0.0
H3695 H 0.612 0.57011 0.25739 0.0
C3696 C 0.31009 0.86439 0.95329 0.0
C3697 C 0.30139 0.88102 0.96459 0.0
C3698 C 0.30845 0.86154 0.93021 0.0
C3699 C 0.29773 0.8756 0.91799 0.0
C3700 C 0.28867 0.8923 0.92918 0.0
C3701 C 0.29064 0.89485 0.95245 0.0
C3702 C 0.31834 0.84349 0.91894 0.0
C3703 C 0.27706 0.90747 0.91659 0.0
C3704 C 0.31673 0.8771 0.86053 0.0
C3705 C 0.2996 0.85582 0.84967 0.0
C3706 C 0.3152 0.88546 0.88236 0.0
C3707 C 0.29607 0.8722 0.89348 0.0
C3708 C 0.27758 0.85231 0.88182 0.0
C3709 C 0.27959 0.84431 0.86004 0.0
C3710 C 0.33516 0.90698 0.89411 0.0
C3711 C 0.25669 0.83793 0.89294 0.0
H3712 H 0.31843 0.85362 0.96251 0.0
H3713 H 0.28394 0.90778 0.9611 0.0
H3714 H 0.30436 0.82908 0.90797 0.0
H3715 H 0.33187 0.8533 0.90843 0.0
H3716 H 0.32629 0.83415 0.93092 0.0
H3717 H 0.27063 0.91936 0.92774 0.0
H3718 H 0.28954 0.91944 0.90632 0.0
H3719 H 0.26214 0.89509 0.90513 0.0
H3720 H 0.33208 0.88637 0.85252 0.0
H3721 H 0.26598 0.82819 0.85158 0.0
H3722 H 0.34641 0.89981 0.90488 0.0
H3723 H 0.32866 0.91915 0.90483 0.0
H3724 H 0.34606 0.91822 0.88228 0.0
H3725 H 0.26176 0.82556 0.90389 0.0
H3726 H 0.24204 0.82634 0.88074 0.0
H3727 H 0.25047 0.85057 0.90339 0.0
C3728 C 0.9843 0.60856 0.78377 0.0
C3729 C 0.96019 0.59595 0.78255 0.0
C3730 C 0.99596 0.61088 0.76469 0.0
C3731 C 0.98308 0.60046 0.74403 0.0
C3732 C 0.95839 0.59119 0.74241 0.0
C3733 C 0.94714 0.589 0.7618 0.0
C3734 C 1.02228 0.62138 0.76711 0.0
C3735 C 0.94402 0.58069 0.72052 0.0
C3736 C 1.01599 0.60336 0.69319 0.0
C3737 C 1.01963 0.58045 0.69226 0.0
C3738 C 1.00372 0.61015 0.70969 0.0
C3739 C 0.99533 0.59378 0.72578 0.0
C3740 C 0.99907 0.5707 0.72496 0.0
C3741 C 1.01103 0.56429 0.70814 0.0
C3742 C 1.00002 0.63485 0.71 0.0
C3743 C 0.99043 0.55268 0.74187 0.0
H3744 H 0.99441 0.6146 0.79978 0.0
H3745 H 0.92843 0.57965 0.76072 0.0
H3746 H 0.02938 0.60591 0.7665 0.0
H3747 H 0.02874 0.63261 0.75341 0.0
H3748 H 0.02923 0.63304 0.78308 0.0
H3749 H 0.92553 0.57943 0.72124 0.0
H3750 H 0.95126 0.59213 0.70715 0.0
H3751 H 0.94442 0.56178 0.71614 0.0
H3752 H 1.02283 0.61607 0.68108 0.0
H3753 H 1.01333 0.54636 0.70724 0.0
H3754 H 1.01149 0.64767 0.72384 0.0
H3755 H 0.98174 0.63284 0.71275 0.0
H3756 H 1.00409 0.64343 0.69437 0.0
H3757 H 0.99812 0.56158 0.75871 0.0
H3758 H 0.99494 0.5356 0.7389 0.0
H3759 H 0.97119 0.5473 0.74154 0.0
C3760 C 0.34102 0.25931 0.46827 0.0
C3761 C 0.32237 0.26238 0.47899 0.0
C3762 C 0.34284 0.26266 0.44558 0.0
C3763 C 0.32528 0.26857 0.4329 0.0
C3764 C 0.30637 0.27155 0.44365 0.0
C3765 C 0.30531 0.26874 0.46644 0.0
C3766 C 0.36364 0.25991 0.43517 0.0
C3767 C 0.28694 0.27734 0.43097 0.0
C3768 C 0.33632 0.29948 0.37903 0.0
C3769 C 0.32649 0.27949 0.36257 0.0
C3770 C 0.33685 0.29605 0.40176 0.0
C3771 C 0.32672 0.27207 0.40857 0.0
C3772 C 0.31705 0.25172 0.39201 0.0
C3773 C 0.31731 0.25562 0.36932 0.0
C3774 C 0.34793 0.31829 0.41854 0.0
C3775 C 0.30558 0.2259 0.39826 0.0
H3776 H 0.3543 0.25435 0.47766 0.0
H3777 H 0.29064 0.27087 0.47433 0.0
H3778 H 0.35778 0.24461 0.42161 0.0
H3779 H 0.37287 0.27709 0.42775 0.0
H3780 H 0.37618 0.25606 0.44729 0.0
H3781 H 0.27305 0.27827 0.44145 0.0
H3782 H 0.29403 0.29532 0.42403 0.0
H3783 H 0.27897 0.26297 0.41684 0.0
H3784 H 0.34356 0.31802 0.37413 0.0
H3785 H 0.30943 0.24004 0.35685 0.0
H3786 H 0.36087 0.31474 0.43039 0.0
H3787 H 0.3344 0.32172 0.42821 0.0
H3788 H 0.35679 0.3353 0.41069 0.0
H3789 H 0.31788 0.22066 0.40952 0.0
H3790 H 0.29957 0.21192 0.3836 0.0
H3791 H 0.29032 0.22533 0.40734 0.0
C3792 C 0.37921 0.62555 0.55392 0.0
C3793 C 0.36956 0.62024 0.57392 0.0
C3794 C 0.39365 0.61309 0.54567 0.0
C3795 C 0.39882 0.59519 0.55789 0.0
C3796 C 0.38954 0.59016 0.57833 0.0
C3797 C 0.37487 0.6026 0.58601 0.0
C3798 C 0.40316 0.61885 0.52376 0.0
C3799 C 0.39503 0.57156 0.59206 0.0
C3800 C 0.41765 0.54498 0.52936 0.0
C3801 C 0.44185 0.55418 0.53498 0.0
C3802 C 0.40348 0.55843 0.53628 0.0
C3803 C 0.41377 0.5815 0.54928 0.0
C3804 C 0.43824 0.59102 0.55475 0.0
C3805 C 0.45197 0.57723 0.54756 0.0
C3806 C 0.37746 0.5478 0.52994 0.0
C3807 C 0.44989 0.61542 0.56873 0.0
H3808 H 0.3751 0.6391 0.54447 0.0
H3809 H 0.3676 0.59853 0.60156 0.0
H3810 H 0.42251 0.62518 0.52591 0.0
H3811 H 0.39714 0.60184 0.51197 0.0
H3812 H 0.39761 0.63336 0.51635 0.0
H3813 H 0.38687 0.57021 0.60783 0.0
H3814 H 0.38876 0.55299 0.58256 0.0
H3815 H 0.4142 0.57673 0.59593 0.0
H3816 H 0.4098 0.52725 0.51954 0.0
H3817 H 0.47064 0.58422 0.55232 0.0
H3818 H 0.37139 0.56133 0.52144 0.0
H3819 H 0.36825 0.54422 0.54504 0.0
H3820 H 0.37233 0.53022 0.51892 0.0
H3821 H 0.44416 0.63014 0.56204 0.0
H3822 H 0.46923 0.62137 0.56962 0.0
H3823 H 0.44468 0.61372 0.58576 0.0
C3824 C 0.90552 0.92391 0.5483 0.0
C3825 C 0.88491 0.92926 0.55053 0.0
C3826 C 0.92658 0.94274 0.54584 0.0
C3827 C 0.92705 0.9675 0.54543 0.0
C3828 C 0.90625 0.97296 0.54732 0.0
C3829 C 0.8855 0.95384 0.54992 0.0
C3830 C 0.94844 0.9362 0.54407 0.0
C3831 C 0.90598 0.99908 0.5469 0.0
C3832 C 0.98491 0.01865 0.56318 0.0
C3833 C 0.9931 0.02549 0.54284 0.0
C3834 C 0.96342 1.00002 0.56419 0.0
C3835 C 0.94955 0.9879 0.54438 0.0
C3836 C 0.95736 0.99512 0.52376 0.0
C3837 C 0.97909 0.01382 0.52322 0.0
C3838 C 0.95582 0.99293 0.58653 0.0
C3839 C 0.94296 0.98276 0.50228 0.0
H3840 H 0.90527 0.90502 0.54869 0.0
H3841 H 0.86967 0.95821 0.55144 0.0
H3842 H 0.95634 0.94258 0.52881 0.0
H3843 H 0.9615 0.94583 0.55828 0.0
H3844 H 0.945 0.91596 0.54382 0.0
H3845 H 0.88814 1.00006 0.5474 0.0
H3846 H 0.91734 1.01103 0.56127 0.0
H3847 H 0.91309 1.00686 0.53175 0.0
H3848 H 0.99554 0.02751 0.57847 0.0
H3849 H 0.98529 0.0189 0.50744 0.0
H3850 H 0.95387 0.97323 0.58789 0.0
H3851 H 0.93854 0.99487 0.58841 0.0
H3852 H 0.96844 1.00447 0.6004 0.0
H3853 H 0.9409 0.9628 0.5006 0.0
H3854 H 0.951 0.99116 0.48768 0.0
H3855 H 0.92521 0.98404 0.5022 0.0
C3856 C 0.86696 0.10349 0.23423 0.0
C3857 C 0.8857 0.09713 0.24331 0.0
C3858 C 0.85669 0.11737 0.24716 0.0
C3859 C 0.86526 0.12475 0.26969 0.0
C3860 C 0.88414 0.11834 0.27894 0.0
C3861 C 0.89423 0.10469 0.26559 0.0
C3862 C 0.83676 0.12424 0.2367 0.0
C3863 C 0.8937 0.12594 0.30292 0.0
C3864 C 0.85246 0.17968 0.29602 0.0
C3865 C 0.83274 0.16808 0.30673 0.0
C3866 C 0.8636 0.16579 0.28437 0.0
C3867 C 0.85476 0.13967 0.28342 0.0
C3868 C 0.83534 0.12785 0.29481 0.0
C3869 C 0.82446 0.14225 0.30631 0.0
C3870 C 0.88418 0.17903 0.27229 0.0
C3871 C 0.82562 0.10001 0.29425 0.0
H3872 H 0.86037 0.09773 0.217 0.0
H3873 H 0.90865 0.0997 0.27272 0.0
H3874 H 0.82114 0.11702 0.24571 0.0
H3875 H 0.84152 0.14469 0.23791 0.0
H3876 H 0.83205 0.11685 0.21901 0.0
H3877 H 0.9082 0.11905 0.30765 0.0
H3878 H 0.90017 0.14642 0.30618 0.0
H3879 H 0.87962 0.11873 0.31374 0.0
H3880 H 0.85858 0.19964 0.29588 0.0
H3881 H 0.80922 0.13331 0.31461 0.0
H3882 H 0.8793 0.17479 0.25419 0.0
H3883 H 0.89903 0.17251 0.27643 0.0
H3884 H 0.89014 0.19944 0.27635 0.0
H3885 H 0.81873 0.09173 0.27708 0.0
H3886 H 0.81136 0.09381 0.30508 0.0
H3887 H 0.83965 0.09269 0.29953 0.0
C3888 C 0.74878 0.14588 0.04856 0.0
C3889 C 0.75895 0.13054 0.05923 0.0
C3890 C 0.72468 0.13794 0.04218 0.0
C3891 C 0.71045 0.11422 0.04677 0.0
C3892 C 0.72078 0.09818 0.05643 0.0
C3893 C 0.74491 0.1065 0.06248 0.0
C3894 C 0.71433 0.15544 0.03166 0.0
C3895 C 0.70616 0.07276 0.06167 0.0
C3896 C 0.64955 0.10441 0.06225 0.0
C3897 C 0.63569 0.08927 0.04384 0.0
C3898 C 0.67385 0.11351 0.06292 0.0
C3899 C 0.68466 0.1075 0.04463 0.0
C3900 C 0.67076 0.09352 0.0254 0.0
C3901 C 0.64632 0.08448 0.02523 0.0
C3902 C 0.68798 0.1284 0.08376 0.0
C3903 C 0.68173 0.08706 1.00549 0.0
H3904 H 0.75954 0.16437 0.04569 0.0
H3905 H 0.75263 0.09444 0.07052 0.0
H3906 H 0.70154 0.14565 0.01731 0.0
H3907 H 0.70483 0.1626 0.04382 0.0
H3908 H 0.72791 0.17146 0.02608 0.0
H3909 H 0.71702 0.06165 0.06706 0.0
H3910 H 0.69532 0.07462 0.07509 0.0
H3911 H 0.69411 0.06245 0.04701 0.0
H3912 H 0.64143 0.10848 0.0766 0.0
H3913 H 0.63567 0.07282 0.01095 0.0
H3914 H 0.70052 0.14611 0.07977 0.0
H3915 H 0.69826 0.11794 0.09161 0.0
H3916 H 0.67683 0.13263 0.09599 0.0
H3917 H 0.69565 0.10363 1.00122 0.0
H3918 H 0.66868 0.07932 0.99084 0.0
H3919 H 0.68998 0.07311 0.00937 0.0
C3920 C 0.23224 0.4694 0.27838 0.0
C3921 C 0.21556 0.47842 0.28684 0.0
C3922 C 0.24509 0.45881 0.29186 0.0
C3923 C 0.24133 0.45741 0.31446 0.0
C3924 C 0.22436 0.46626 0.32312 0.0
C3925 C 0.21156 0.47661 0.30914 0.0
C3926 C 0.26272 0.4491 0.28186 0.0
C3927 C 0.21973 0.46471 0.34704 0.0
C3928 C 0.26419 0.40901 0.33481 0.0
C3929 C 0.28766 0.42331 0.34114 0.0
C3930 C 0.24781 0.4202 0.32862 0.0
C3931 C 0.25519 0.44623 0.32855 0.0
C3932 C 0.27798 0.46085 0.33779 0.0
C3933 C 0.29398 0.44918 0.34408 0.0
C3934 C 0.22349 0.40373 0.31965 0.0
C3935 C 0.28633 0.48872 0.33863 0.0
H3936 H 0.23532 0.47064 0.26114 0.0
H3937 H 0.19869 0.48362 0.31577 0.0
H3938 H 0.28036 0.45881 0.29061 0.0
H3939 H 0.25827 0.42908 0.28383 0.0
H3940 H 0.26346 0.45157 0.26399 0.0
H3941 H 0.20623 0.47284 0.35131 0.0
H3942 H 0.21387 0.44507 0.35062 0.0
H3943 H 0.23606 0.47453 0.35795 0.0
H3944 H 0.25893 0.38898 0.33254 0.0
H3945 H 0.31192 0.46035 0.34962 0.0
H3946 H 0.22379 0.39631 0.30239 0.0
H3947 H 0.21065 0.41357 0.3197 0.0
H3948 H 0.21746 0.38777 0.32954 0.0
H3949 H 0.29033 0.49422 0.3219 0.0
H3950 H 0.30238 0.49742 0.35024 0.0
H3951 H 0.27262 0.49613 0.34368 0.0
C3952 C 0.27224 0.43482 0.06955 0.0
C3953 C 0.27293 0.41603 0.05387 0.0
C3954 C 0.25665 0.44776 0.06604 0.0
C3955 C 0.2413 0.44188 0.04633 0.0
C3956 C 0.24168 0.42275 0.0305 0.0
C3957 C 0.25749 0.41002 0.03447 0.0
C3958 C 0.2568 0.46796 0.08339 0.0
C3959 C 0.22558 0.41596 0.00929 0.0
C3960 C 0.18941 0.46433 0.0489 0.0
C3961 C 0.19753 0.48703 0.03986 0.0
C3962 C 0.20303 0.44887 0.05021 0.0
C3963 C 0.22531 0.45627 0.04231 0.0
C3964 C 0.23317 0.47866 0.03232 0.0
C3965 C 0.2192 0.49374 0.03123 0.0
C3966 C 0.194 0.42517 0.061 0.0
C3967 C 0.25676 0.48718 0.02358 0.0
H3968 H 0.28403 0.43958 0.08462 0.0
H3969 H 0.25791 0.39554 0.02227 0.0
H3970 H 0.26133 0.48594 0.07622 0.0
H3971 H 0.23916 0.46402 0.089 0.0
H3972 H 0.26947 0.46991 0.09803 0.0
H3973 H 0.22759 0.40023 0.99894 0.0
H3974 H 0.20717 0.41092 0.01303 0.0
H3975 H 0.22917 0.43215 0.99956 0.0
H3976 H 0.1728 0.45907 0.0558 0.0
H3977 H 0.22543 0.51104 0.02387 0.0
H3978 H 0.20468 0.42683 0.07694 0.0
H3979 H 0.1956 0.40942 0.05041 0.0
H3980 H 0.17547 0.42082 0.06427 0.0
H3981 H 0.2707 0.49151 0.03751 0.0
H3982 H 0.25948 0.50393 0.01466 0.0
H3983 H 0.25875 0.47223 0.01221 0.0
C3984 C 0.88142 0.96924 0.22375 0.0
C3985 C 0.90211 0.98588 0.23509 0.0
C3986 C 0.87103 0.94569 0.23072 0.0
C3987 C 0.88147 0.93886 0.24957 0.0
C3988 C 0.90259 0.95536 0.26077 0.0
C3989 C 0.91272 0.97857 0.2533 0.0
C3990 C 0.84868 0.9283 0.2182 0.0
C3991 C 0.91417 0.94879 0.28103 0.0
C3992 C 0.84494 0.89011 0.28308 0.0
C3993 C 0.85184 0.86986 0.27683 0.0
C3994 C 0.85412 0.91261 0.27398 0.0
C3995 C 0.87024 0.91468 0.25803 0.0
C3996 C 0.87678 0.89409 0.25125 0.0
C3997 C 0.86764 0.87198 0.26087 0.0
C3998 C 0.84701 0.93434 0.28181 0.0
C3999 C 0.89368 0.89552 0.23406 0.0
H4000 H 0.87315 0.97474 0.20965 0.0
H4001 H 0.92869 0.99129 0.26223 0.0
H4002 H 0.85066 0.91022 0.2132 0.0
H4003 H 0.83435 0.9247 0.22905 0.0
H4004 H 0.8435 0.93587 0.20318 0.0
H4005 H 0.93071 0.96366 0.28769 0.0
H4006 H 0.90218 0.94531 0.29419 0.0
H4007 H 0.91802 0.93151 0.27704 0.0
H4008 H 0.83268 0.8885 0.29536 0.0
H4009 H 0.87273 0.85623 0.25569 0.0
H4010 H 0.83992 0.94151 0.26752 0.0
H4011 H 0.86253 0.9496 0.28991 0.0
H4012 H 0.83367 0.92941 0.29372 0.0
H4013 H 0.88771 0.90225 0.21891 0.0
H4014 H 0.89567 0.87733 0.2295 0.0
H4015 H 0.91107 0.90899 0.24043 0.0
C4016 C 0.73289 0.08727 0.76668 0.0
C4017 C 0.71085 0.08129 0.7549 0.0
C4018 C 0.74784 0.11193 0.77062 0.0
C4019 C 0.74079 0.13082 0.76195 0.0
C4020 C 0.71905 0.12467 0.74903 0.0
C4021 C 0.70413 0.09997 0.74598 0.0
C4022 C 0.77065 0.11787 0.78494 0.0
C4023 C 0.71131 0.14424 0.7389 0.0
C4024 C 0.76546 0.19597 0.79094 0.0
C4025 C 0.78367 0.20695 0.77832 0.0
C4026 C 0.75157 0.17103 0.78595 0.0
C4027 C 0.75556 0.15715 0.76746 0.0
C4028 C 0.77364 0.16838 0.75438 0.0
C4029 C 0.78777 0.19311 0.76022 0.0
C4030 C 0.73285 0.15947 0.80063 0.0
C4031 C 0.77789 0.15437 0.73414 0.0
H4032 H 0.73796 0.07281 0.77375 0.0
H4033 H 0.68712 0.09526 0.73673 0.0
H4034 H 0.7854 0.12858 0.77616 0.0
H4035 H 0.77051 0.1296 0.80018 0.0
H4036 H 0.77388 0.10094 0.7898 0.0
H4037 H 0.69504 0.13608 0.72748 0.0
H4038 H 0.70815 0.15666 0.75215 0.0
H4039 H 0.72521 0.15584 0.72967 0.0
H4040 H 0.76246 0.20672 0.80504 0.0
H4041 H 0.80176 0.20178 0.75035 0.0
H4042 H 0.73565 0.14303 0.80713 0.0
H4043 H 0.71546 0.15301 0.79093 0.0
H4044 H 0.7326 0.1726 0.81483 0.0
H4045 H 0.78254 0.13822 0.7389 0.0
H4046 H 0.79212 0.16612 0.72529 0.0
H4047 H 0.7617 0.14711 0.72256 0.0
loop_
_geom_bond_atom_site_label_1
_geom_bond_atom_site_label_2
_geom_bond_distance
_geom_bond_site_symmetry_2
_ccdc_geom_bond_type
O0 Cd1 2.223 . S
O0 C8 1.315 . S
Cd1 O0 2.223 . S
Cd1 O4 2.297 . S
Cd1 O5 2.439 . S
Cd1 O11 2.240 . S
Cd2 O3 2.240 . S
Cd2 O10 2.223 1_455 S
Cd2 O12 2.297 . S
Cd2 O13 2.439 . S
O3 Cd2 2.240 . S
O3 C8 1.279 . S
O4 Cd1 2.297 . S
O4 C6 1.247 . S
O5 Cd1 2.439 . S
O5 C6 1.208 . S
C6 O4 1.247 . S
C6 O5 1.208 . S
C7 O12 1.247 . S
C7 O13 1.208 . S
C8 O0 1.315 . S
C8 O3 1.279 . S
C9 O10 1.315 . S
C9 O11 1.279 1_655 S
O10 Cd2 2.223 1_655 S
O10 C9 1.315 . S
O11 Cd1 2.240 . S
O11 C9 1.279 1_455 S
O12 Cd2 2.297 . S
O12 C7 1.247 . S
O13 Cd2 2.439 . S
O13 C7 1.208 . S
O14 Cd15 2.223 . S
O14 C22 1.315 . S
Cd15 O14 2.223 . S
Cd15 O18 2.297 1_455 S
Cd15 O19 2.439 . S
Cd15 O25 2.240 . S
Cd16 O17 2.240 . S
Cd16 O24 2.223 . S
Cd16 O26 2.297 . S
Cd16 O27 2.439 . S
O17 Cd16 2.240 . S
O17 C22 1.279 . S
O18 Cd15 2.297 1_655 S
O18 C20 1.247 . S
O19 Cd15 2.439 . S
O19 C20 1.208 1_455 S
C20 O18 1.247 . S
C20 O19 1.208 1_655 S
C21 O26 1.247 . S
C21 O27 1.208 . S
C22 O14 1.315 . S
C22 O17 1.279 . S
C23 O24 1.315 . S
C23 O25 1.279 . S
O24 Cd16 2.223 . S
O24 C23 1.315 . S
O25 Cd15 2.240 . S
O25 C23 1.279 . S
O26 Cd16 2.297 . S
O26 C21 1.247 . S
O27 Cd16 2.439 . S
O27 C21 1.208 . S
O28 Cd29 2.223 . S
O28 C36 1.315 . S
Cd29 O28 2.223 . S
Cd29 O32 2.297 . S
Cd29 O33 2.439 . S
Cd29 O39 2.240 . S
Cd30 O31 2.240 . S
Cd30 O38 2.223 . S
Cd30 O40 2.297 . S
Cd30 O41 2.439 . S
O31 Cd30 2.240 . S
O31 C36 1.279 . S
O32 Cd29 2.297 . S
O32 C34 1.247 . S
O33 Cd29 2.439 . S
O33 C34 1.208 . S
C34 O32 1.247 . S
C34 O33 1.208 . S
C35 O40 1.247 . S
C35 O41 1.208 . S
C36 O28 1.315 . S
C36 O31 1.279 . S
C37 O38 1.315 . S
C37 O39 1.279 . S
O38 Cd30 2.223 . S
O38 C37 1.315 . S
O39 Cd29 2.240 . S
O39 C37 1.279 . S
O40 Cd30 2.297 . S
O40 C35 1.247 . S
O41 Cd30 2.439 . S
O41 C35 1.208 . S
O42 Cd43 2.223 . S
O42 C50 1.315 . S
Cd43 O42 2.223 . S
Cd43 O46 2.297 . S
Cd43 O47 2.439 . S
Cd43 O53 2.240 . S
Cd44 O45 2.240 . S
Cd44 O52 2.223 . S
Cd44 O54 2.297 . S
Cd44 O55 2.439 . S
O45 Cd44 2.240 . S
O45 C50 1.279 . S
O46 Cd43 2.297 . S
O46 C48 1.247 . S
O47 Cd43 2.439 . S
O47 C48 1.208 . S
C48 O46 1.247 . S
C48 O47 1.208 . S
C49 O54 1.247 . S
C49 O55 1.208 . S
C50 O42 1.315 . S
C50 O45 1.279 . S
C51 O52 1.315 . S
C51 O53 1.279 . S
O52 Cd44 2.223 . S
O52 C51 1.315 . S
O53 Cd43 2.240 . S
O53 C51 1.279 . S
O54 Cd44 2.297 . S
O54 C49 1.247 . S
O55 Cd44 2.439 . S
O55 C49 1.208 . S
O56 Cd57 2.223 . S
O56 C64 1.315 . S
Cd57 O56 2.223 . S
Cd57 O60 2.297 . S
Cd57 O61 2.439 . S
Cd57 O67 2.240 . S
Cd58 O59 2.240 . S
Cd58 O66 2.223 . S
Cd58 O68 2.297 . S
Cd58 O69 2.439 . S
O59 Cd58 2.240 . S
O59 C64 1.279 . S
O60 Cd57 2.297 . S
O60 C62 1.247 . S
O61 Cd57 2.439 . S
O61 C62 1.208 . S
C62 O60 1.247 . S
C62 O61 1.208 . S
C63 O68 1.247 . S
C63 O69 1.208 . S
C64 O56 1.315 . S
C64 O59 1.279 . S
C65 O66 1.315 . S
C65 O67 1.279 . S
O66 Cd58 2.223 . S
O66 C65 1.315 . S
O67 Cd57 2.240 . S
O67 C65 1.279 . S
O68 Cd58 2.297 . S
O68 C63 1.247 . S
O69 Cd58 2.439 . S
O69 C63 1.208 . S
O70 Cd71 2.223 . S
O70 C78 1.315 . S
Cd71 O70 2.223 . S
Cd71 O74 2.297 . S
Cd71 O75 2.439 . S
Cd71 O81 2.240 . S
Cd72 O73 2.240 . S
Cd72 O80 2.223 . S
Cd72 O82 2.297 . S
Cd72 O83 2.439 . S
O73 Cd72 2.240 . S
O73 C78 1.279 . S
O74 Cd71 2.297 . S
O74 C76 1.247 . S
O75 Cd71 2.439 . S
O75 C76 1.208 . S
C76 O74 1.247 . S
C76 O75 1.208 . S
C77 O82 1.247 . S
C77 O83 1.208 . S
C78 O70 1.315 . S
C78 O73 1.279 . S
C79 O80 1.315 . S
C79 O81 1.279 . S
O80 Cd72 2.223 . S
O80 C79 1.315 . S
O81 Cd71 2.240 . S
O81 C79 1.279 . S
O82 Cd72 2.297 . S
O82 C77 1.247 . S
O83 Cd72 2.439 . S
O83 C77 1.208 . S
O84 Cd85 2.223 . S
O84 C92 1.315 . S
Cd85 O84 2.223 . S
Cd85 O88 2.297 . S
Cd85 O89 2.439 . S
Cd85 O95 2.240 . S
Cd86 O87 2.240 . S
Cd86 O94 2.223 . S
Cd86 O96 2.297 . S
Cd86 O97 2.439 . S
O87 Cd86 2.240 . S
O87 C92 1.279 . S
O88 Cd85 2.297 . S
O88 C90 1.247 . S
O89 Cd85 2.439 . S
O89 C90 1.208 . S
C90 O88 1.247 . S
C90 O89 1.208 . S
C91 O96 1.247 . S
C91 O97 1.208 . S
C92 O84 1.315 . S
C92 O87 1.279 . S
C93 O94 1.315 . S
C93 O95 1.279 . S
O94 Cd86 2.223 . S
O94 C93 1.315 . S
O95 Cd85 2.240 . S
O95 C93 1.279 . S
O96 Cd86 2.297 . S
O96 C91 1.247 . S
O97 Cd86 2.439 . S
O97 C91 1.208 . S
O98 Cd99 2.223 1_655 S
O98 C106 1.315 . S
Cd99 O98 2.223 1_455 S
Cd99 O102 2.297 . S
Cd99 O103 2.439 . S
Cd99 O109 2.240 1_455 S
Cd100 O101 2.240 1_655 S
Cd100 O108 2.223 . S
Cd100 O110 2.297 . S
Cd100 O111 2.439 1_655 S
O101 Cd100 2.240 1_455 S
O101 C106 1.279 1_455 S
O102 Cd99 2.297 . S
O102 C104 1.247 . S
O103 Cd99 2.439 . S
O103 C104 1.208 . S
C104 O102 1.247 . S
C104 O103 1.208 . S
C105 O110 1.247 1_455 S
C105 O111 1.208 . S
C106 O98 1.315 . S
C106 O101 1.279 1_655 S
C107 O108 1.315 . S
C107 O109 1.279 . S
O108 Cd100 2.223 . S
O108 C107 1.315 . S
O109 Cd99 2.240 1_655 S
O109 C107 1.279 . S
O110 Cd100 2.297 . S
O110 C105 1.247 1_655 S
O111 Cd100 2.439 1_455 S
O111 C105 1.208 . S
O112 Cd113 2.223 . S
O112 C120 1.315 . S
Cd113 O112 2.223 . S
Cd113 O116 2.297 . S
Cd113 O117 2.439 . S
Cd113 O123 2.240 . S
Cd114 O115 2.240 . S
Cd114 O122 2.223 1_545 S
Cd114 O124 2.297 . S
Cd114 O125 2.439 . S
O115 Cd114 2.240 . S
O115 C120 1.279 . S
O116 Cd113 2.297 . S
O116 C118 1.247 . S
O117 Cd113 2.439 . S
O117 C118 1.208 . S
C118 O116 1.247 . S
C118 O117 1.208 . S
C119 O124 1.247 . S
C119 O125 1.208 . S
C120 O112 1.315 . S
C120 O115 1.279 . S
C121 O122 1.315 . S
C121 O123 1.279 1_565 S
O122 Cd114 2.223 1_565 S
O122 C121 1.315 . S
O123 Cd113 2.240 . S
O123 C121 1.279 1_545 S
O124 Cd114 2.297 . S
O124 C119 1.247 . S
O125 Cd114 2.439 . S
O125 C119 1.208 . S
O126 Cd127 2.223 . S
O126 C134 1.315 . S
Cd127 O126 2.223 . S
Cd127 O130 2.297 . S
Cd127 O131 2.439 . S
Cd127 O137 2.240 . S
Cd128 O129 2.240 . S
Cd128 O136 2.223 . S
Cd128 O138 2.297 . S
Cd128 O139 2.439 . S
O129 Cd128 2.240 . S
O129 C134 1.279 . S
O130 Cd127 2.297 . S
O130 C132 1.247 . S
O131 Cd127 2.439 . S
O131 C132 1.208 . S
C132 O130 1.247 . S
C132 O131 1.208 . S
C133 O138 1.247 . S
C133 O139 1.208 . S
C134 O126 1.315 . S
C134 O129 1.279 . S
C135 O136 1.315 . S
C135 O137 1.279 . S
O136 Cd128 2.223 . S
O136 C135 1.315 . S
O137 Cd127 2.240 . S
O137 C135 1.279 . S
O138 Cd128 2.297 . S
O138 C133 1.247 . S
O139 Cd128 2.439 . S
O139 C133 1.208 . S
O140 Cd141 2.223 . S
O140 C148 1.315 . S
Cd141 O140 2.223 . S
Cd141 O144 2.297 . S
Cd141 O145 2.439 . S
Cd141 O151 2.240 . S
Cd142 O143 2.240 . S
Cd142 O150 2.223 . S
Cd142 O152 2.297 . S
Cd142 O153 2.439 . S
O143 Cd142 2.240 . S
O143 C148 1.279 . S
O144 Cd141 2.297 . S
O144 C146 1.247 . S
O145 Cd141 2.439 . S
O145 C146 1.208 . S
C146 O144 1.247 . S
C146 O145 1.208 . S
C147 O152 1.247 . S
C147 O153 1.208 . S
C148 O140 1.315 . S
C148 O143 1.279 . S
C149 O150 1.315 . S
C149 O151 1.279 . S
O150 Cd142 2.223 . S
O150 C149 1.315 . S
O151 Cd141 2.240 . S
O151 C149 1.279 . S
O152 Cd142 2.297 . S
O152 C147 1.247 . S
O153 Cd142 2.439 . S
O153 C147 1.208 . S
O154 Cd155 2.223 . S
O154 C162 1.315 . S
Cd155 O154 2.223 . S
Cd155 O158 2.297 . S
Cd155 O159 2.439 1_554 S
Cd155 O165 2.240 1_554 S
Cd156 O157 2.240 1_556 S
Cd156 O164 2.223 1_556 S
Cd156 O166 2.297 . S
Cd156 O167 2.439 . S
O157 Cd156 2.240 1_554 S
O157 C162 1.279 . S
O158 Cd155 2.297 . S
O158 C160 1.247 . S
O159 Cd155 2.439 1_556 S
O159 C160 1.208 1_556 S
C160 O158 1.247 . S
C160 O159 1.208 1_554 S
C161 O166 1.247 . S
C161 O167 1.208 . S
C162 O154 1.315 . S
C162 O157 1.279 . S
C163 O164 1.315 . S
C163 O165 1.279 1_554 S
O164 Cd156 2.223 1_554 S
O164 C163 1.315 . S
O165 Cd155 2.240 1_556 S
O165 C163 1.279 1_556 S
O166 Cd156 2.297 . S
O166 C161 1.247 . S
O167 Cd156 2.439 . S
O167 C161 1.208 . S
O168 Cd169 2.223 . S
O168 C176 1.315 . S
Cd169 O168 2.223 . S
Cd169 O172 2.297 . S
Cd169 O173 2.439 . S
Cd169 O179 2.240 . S
Cd170 O171 2.240 . S
Cd170 O178 2.223 . S
Cd170 O180 2.297 1_554 S
Cd170 O181 2.439 1_554 S
O171 Cd170 2.240 . S
O171 C176 1.279 . S
O172 Cd169 2.297 . S
O172 C174 1.247 . S
O173 Cd169 2.439 . S
O173 C174 1.208 . S
C174 O172 1.247 . S
C174 O173 1.208 . S
C175 O180 1.247 . S
C175 O181 1.208 . S
C176 O168 1.315 . S
C176 O171 1.279 . S
C177 O178 1.315 . S
C177 O179 1.279 . S
O178 Cd170 2.223 . S
O178 C177 1.315 . S
O179 Cd169 2.240 . S
O179 C177 1.279 . S
O180 Cd170 2.297 1_556 S
O180 C175 1.247 . S
O181 Cd170 2.439 1_556 S
O181 C175 1.208 . S
O182 Cd183 2.223 . S
O182 C190 1.315 . S
Cd183 O182 2.223 . S
Cd183 O186 2.297 . S
Cd183 O187 2.439 . S
Cd183 O193 2.240 . S
Cd184 O185 2.240 . S
Cd184 O192 2.223 . S
Cd184 O194 2.297 . S
Cd184 O195 2.439 . S
O185 Cd184 2.240 . S
O185 C190 1.279 . S
O186 Cd183 2.297 . S
O186 C188 1.247 . S
O187 Cd183 2.439 . S
O187 C188 1.208 . S
C188 O186 1.247 . S
C188 O187 1.208 . S
C189 O194 1.247 . S
C189 O195 1.208 . S
C190 O182 1.315 . S
C190 O185 1.279 . S
C191 O192 1.315 . S
C191 O193 1.279 . S
O192 Cd184 2.223 . S
O192 C191 1.315 . S
O193 Cd183 2.240 . S
O193 C191 1.279 . S
O194 Cd184 2.297 . S
O194 C189 1.247 . S
O195 Cd184 2.439 . S
O195 C189 1.208 . S
O196 Cd197 2.223 . S
O196 C204 1.315 . S
Cd197 O196 2.223 . S
Cd197 O200 2.297 . S
Cd197 O201 2.439 . S
Cd197 O207 2.240 . S
Cd198 O199 2.240 . S
Cd198 O206 2.223 . S
Cd198 O208 2.297 . S
Cd198 O209 2.439 . S
O199 Cd198 2.240 . S
O199 C204 1.279 . S
O200 Cd197 2.297 . S
O200 C202 1.247 . S
O201 Cd197 2.439 . S
O201 C202 1.208 . S
C202 O200 1.247 . S
C202 O201 1.208 . S
C203 O208 1.247 . S
C203 O209 1.208 . S
C204 O196 1.315 . S
C204 O199 1.279 . S
C205 O206 1.315 . S
C205 O207 1.279 . S
O206 Cd198 2.223 . S
O206 C205 1.315 . S
O207 Cd197 2.240 . S
O207 C205 1.279 . S
O208 Cd198 2.297 . S
O208 C203 1.247 . S
O209 Cd198 2.439 . S
O209 C203 1.208 . S
O210 Cd211 2.223 . S
O210 C218 1.315 . S
Cd211 O210 2.223 . S
Cd211 O214 2.297 . S
Cd211 O215 2.439 . S
Cd211 O221 2.240 . S
Cd212 O213 2.240 . S
Cd212 O220 2.223 . S
Cd212 O222 2.297 . S
Cd212 O223 2.439 . S
O213 Cd212 2.240 . S
O213 C218 1.279 . S
O214 Cd211 2.297 . S
O214 C216 1.247 . S
O215 Cd211 2.439 . S
O215 C216 1.208 . S
C216 O214 1.247 . S
C216 O215 1.208 . S
C217 O222 1.247 . S
C217 O223 1.208 . S
C218 O210 1.315 . S
C218 O213 1.279 . S
C219 O220 1.315 . S
C219 O221 1.279 . S
O220 Cd212 2.223 . S
O220 C219 1.315 . S
O221 Cd211 2.240 . S
O221 C219 1.279 . S
O222 Cd212 2.297 . S
O222 C217 1.247 . S
O223 Cd212 2.439 . S
O223 C217 1.208 . S
O224 Cd225 2.223 1_565 S
O224 C232 1.315 1_565 S
Cd225 O224 2.223 1_545 S
Cd225 O228 2.297 . S
Cd225 O229 2.439 . S
Cd225 O235 2.240 1_545 S
Cd226 O227 2.225 1_565 S
Cd226 O234 2.243 . S
Cd226 O236 2.307 . S
Cd226 O237 2.428 1_565 S
O227 Cd226 2.225 1_545 S
O227 C232 1.279 . S
O228 Cd225 2.297 . S
O228 C230 1.247 . S
O229 Cd225 2.439 . S
O229 C230 1.208 . S
C230 O228 1.247 . S
C230 O229 1.208 . S
C231 O236 1.247 1_545 S
C231 O237 1.208 . S
C232 O224 1.315 1_545 S
C232 O227 1.279 . S
C233 O234 1.315 . S
C233 O235 1.279 . S
O234 Cd226 2.243 . S
O234 C233 1.315 . S
O235 Cd225 2.240 1_565 S
O235 C233 1.279 . S
O236 Cd226 2.307 . S
O236 C231 1.247 1_565 S
O237 Cd226 2.428 1_545 S
O237 C231 1.208 . S
O238 Cd239 2.223 . S
O238 C246 1.315 . S
Cd239 O238 2.223 . S
Cd239 O242 2.297 . S
Cd239 O243 2.439 . S
Cd239 O249 2.240 . S
Cd240 O241 2.240 . S
Cd240 O248 2.223 . S
Cd240 O250 2.297 . S
Cd240 O251 2.439 . S
O241 Cd240 2.240 . S
O241 C246 1.279 . S
O242 Cd239 2.297 . S
O242 C244 1.247 . S
O243 Cd239 2.439 . S
O243 C244 1.208 . S
C244 O242 1.247 . S
C244 O243 1.208 . S
C245 O250 1.247 . S
C245 O251 1.208 . S
C246 O238 1.315 . S
C246 O241 1.279 . S
C247 O248 1.315 . S
C247 O249 1.279 . S
O248 Cd240 2.223 . S
O248 C247 1.315 . S
O249 Cd239 2.240 . S
O249 C247 1.279 . S
O250 Cd240 2.297 . S
O250 C245 1.247 . S
O251 Cd240 2.439 . S
O251 C245 1.208 . S
O252 Cd253 2.223 . S
O252 C260 1.315 . S
Cd253 O252 2.223 . S
Cd253 O256 2.297 . S
Cd253 O257 2.439 . S
Cd253 O263 2.240 . S
Cd254 O255 2.240 . S
Cd254 O262 2.223 . S
Cd254 O264 2.297 . S
Cd254 O265 2.439 . S
O255 Cd254 2.240 . S
O255 C260 1.279 . S
O256 Cd253 2.297 . S
O256 C258 1.247 . S
O257 Cd253 2.439 . S
O257 C258 1.208 . S
C258 O256 1.247 . S
C258 O257 1.208 . S
C259 O264 1.247 . S
C259 O265 1.208 . S
C260 O252 1.315 . S
C260 O255 1.279 . S
C261 O262 1.315 . S
C261 O263 1.279 . S
O262 Cd254 2.223 . S
O262 C261 1.315 . S
O263 Cd253 2.240 . S
O263 C261 1.279 . S
O264 Cd254 2.297 . S
O264 C259 1.247 . S
O265 Cd254 2.439 . S
O265 C259 1.208 . S
O266 Cd267 2.223 . S
O266 C274 1.315 . S
Cd267 O266 2.223 . S
Cd267 O270 2.297 . S
Cd267 O271 2.439 . S
Cd267 O277 2.240 . S
Cd268 O269 2.240 . S
Cd268 O276 2.223 . S
Cd268 O278 2.297 . S
Cd268 O279 2.439 . S
O269 Cd268 2.240 . S
O269 C274 1.279 . S
O270 Cd267 2.297 . S
O270 C272 1.247 1_545 S
O271 Cd267 2.439 . S
O271 C272 1.208 1_545 S
C272 O270 1.247 1_565 S
C272 O271 1.208 1_565 S
C273 O278 1.247 . S
C273 O279 1.208 . S
C274 O266 1.315 . S
C274 O269 1.279 . S
C275 O276 1.315 . S
C275 O277 1.279 . S
O276 Cd268 2.223 . S
O276 C275 1.315 . S
O277 Cd267 2.240 . S
O277 C275 1.279 . S
O278 Cd268 2.297 . S
O278 C273 1.247 . S
O279 Cd268 2.439 . S
O279 C273 1.208 . S
O280 Cd281 2.223 . S
O280 C288 1.315 . S
Cd281 O280 2.223 . S
Cd281 O284 2.297 . S
Cd281 O285 2.439 . S
Cd281 O291 2.240 . S
Cd282 O283 2.240 . S
Cd282 O290 2.223 . S
Cd282 O292 2.294 1_554 S
Cd282 O293 2.439 . S
O283 Cd282 2.240 . S
O283 C288 1.279 . S
O284 Cd281 2.297 . S
O284 C286 1.247 . S
O285 Cd281 2.439 . S
O285 C286 1.208 . S
C286 O284 1.247 . S
C286 O285 1.208 . S
C287 O292 1.249 . S
C287 O293 1.208 1_556 S
C288 O280 1.315 . S
C288 O283 1.279 . S
C289 O290 1.315 . S
C289 O291 1.279 . S
O290 Cd282 2.223 . S
O290 C289 1.315 . S
O291 Cd281 2.240 . S
O291 C289 1.279 . S
O292 Cd282 2.294 1_556 S
O292 C287 1.249 . S
O293 Cd282 2.439 . S
O293 C287 1.208 1_554 S
O294 Cd295 2.223 . S
O294 C302 1.315 . S
Cd295 O294 2.223 . S
Cd295 O298 2.297 . S
Cd295 O299 2.439 . S
Cd295 O305 2.240 . S
Cd296 O297 2.240 . S
Cd296 O304 2.223 . S
Cd296 O306 2.297 . S
Cd296 O307 2.439 . S
O297 Cd296 2.240 . S
O297 C302 1.279 . S
O298 Cd295 2.297 . S
O298 C300 1.247 . S
O299 Cd295 2.439 . S
O299 C300 1.208 . S
C300 O298 1.247 . S
C300 O299 1.208 . S
C301 O306 1.247 . S
C301 O307 1.208 . S
C302 O294 1.315 . S
C302 O297 1.279 . S
C303 O304 1.315 . S
C303 O305 1.279 . S
O304 Cd296 2.223 . S
O304 C303 1.315 . S
O305 Cd295 2.240 . S
O305 C303 1.279 . S
O306 Cd296 2.297 . S
O306 C301 1.247 . S
O307 Cd296 2.439 . S
O307 C301 1.208 . S
O308 Cd309 2.223 . S
O308 C316 1.315 . S
Cd309 O308 2.223 . S
Cd309 O312 2.297 . S
Cd309 O313 2.439 . S
Cd309 O319 2.240 . S
Cd310 O311 2.240 . S
Cd310 O318 2.223 . S
Cd310 O320 2.297 . S
Cd310 O321 2.439 . S
O311 Cd310 2.240 . S
O311 C316 1.279 . S
O312 Cd309 2.297 . S
O312 C314 1.247 . S
O313 Cd309 2.439 . S
O313 C314 1.208 . S
C314 O312 1.247 . S
C314 O313 1.208 . S
C315 O320 1.247 . S
C315 O321 1.208 . S
C316 O308 1.315 . S
C316 O311 1.279 . S
C317 O318 1.315 . S
C317 O319 1.279 . S
O318 Cd310 2.223 . S
O318 C317 1.315 . S
O319 Cd309 2.240 . S
O319 C317 1.279 . S
O320 Cd310 2.297 . S
O320 C315 1.247 . S
O321 Cd310 2.439 . S
O321 C315 1.208 . S
O322 Cd323 2.223 . S
O322 C330 1.315 . S
Cd323 O322 2.223 . S
Cd323 O326 2.297 . S
Cd323 O327 2.439 . S
Cd323 O333 2.240 . S
Cd324 O325 2.240 . S
Cd324 O332 2.223 . S
Cd324 O334 2.297 . S
Cd324 O335 2.439 . S
O325 Cd324 2.240 . S
O325 C330 1.279 . S
O326 Cd323 2.297 . S
O326 C328 1.247 . S
O327 Cd323 2.439 . S
O327 C328 1.208 . S
C328 O326 1.247 . S
C328 O327 1.208 . S
C329 O334 1.247 . S
C329 O335 1.208 . S
C330 O322 1.315 . S
C330 O325 1.279 . S
C331 O332 1.315 . S
C331 O333 1.279 . S
O332 Cd324 2.223 . S
O332 C331 1.315 . S
O333 Cd323 2.240 . S
O333 C331 1.279 . S
O334 Cd324 2.297 . S
O334 C329 1.247 . S
O335 Cd324 2.439 . S
O335 C329 1.208 . S
Tb336 C345 2.764 . S
Tb336 O346 2.325 . S
Tb336 O349 2.303 . S
Tb336 O353 2.322 . S
Tb336 O354 2.349 . S
Tb336 O357 2.415 . S
Tb336 O358 2.399 . S
Tb337 O347 2.322 . S
Tb337 O348 2.349 . S
Tb337 O350 2.415 1_455 S
Tb337 O351 2.399 1_455 S
Tb337 O352 2.325 . S
Tb337 O355 2.303 . S
Tb337 C366 2.764 1_455 S
C338 O354 1.261 . S
C338 O355 1.257 . S
C339 C342 1.358 . S
C339 C343 1.332 . S
C339 C345 1.504 . S
C340 C341 1.373 . S
C340 C344 1.308 . S
C341 C340 1.373 . S
C341 C342 1.429 . S
C341 H368 0.932 . S
C342 C339 1.358 . S
C342 C341 1.429 . S
C342 H369 0.930 . S
C343 C339 1.332 . S
C343 C344 1.394 . S
C343 H370 0.932 . S
C344 C340 1.308 . S
C344 C343 1.394 . S
C344 H371 0.929 . S
C345 Tb336 2.764 . S
C345 C339 1.504 . S
C345 O357 1.239 . S
C345 O358 1.263 . S
O346 Tb336 2.325 . S
O346 C356 1.236 . S
O347 Tb337 2.322 . S
O347 C356 1.257 . S
O348 Tb337 2.349 . S
O348 C359 1.261 . S
O349 Tb336 2.303 . S
O349 C359 1.257 . S
O350 Tb337 2.415 1_655 S
O350 C366 1.239 . S
O351 Tb337 2.399 1_655 S
O351 C366 1.263 . S
O352 Tb337 2.325 . S
O352 C367 1.236 . S
O353 Tb336 2.322 . S
O353 C367 1.257 . S
O354 Tb336 2.349 . S
O354 C338 1.261 . S
O355 Tb337 2.303 . S
O355 C338 1.257 . S
C356 O346 1.236 . S
C356 O347 1.257 . S
O357 Tb336 2.415 . S
O357 C345 1.239 . S
O358 Tb336 2.399 . S
O358 C345 1.263 . S
C359 O348 1.261 . S
C359 O349 1.257 . S
C360 C363 1.358 . S
C360 C364 1.332 . S
C360 C366 1.504 . S
C361 C362 1.373 . S
C361 C365 1.308 . S
C362 C361 1.373 . S
C362 C363 1.429 . S
C362 H372 0.932 1_554 S
C363 C360 1.358 . S
C363 C362 1.429 . S
C363 H373 0.930 1_554 S
C364 C360 1.332 . S
C364 C365 1.394 . S
C364 H374 0.932 . S
C365 C361 1.308 . S
C365 C364 1.394 . S
C365 H375 0.929 . S
C366 Tb337 2.764 1_655 S
C366 O350 1.239 . S
C366 O351 1.263 . S
C366 C360 1.504 . S
C367 O352 1.236 . S
C367 O353 1.257 . S
H368 C341 0.932 . S
H369 C342 0.930 . S
H370 C343 0.932 . S
H371 C344 0.929 . S
H372 C362 0.932 1_556 S
H373 C363 0.930 1_556 S
H374 C364 0.932 . S
H375 C365 0.929 . S
Tb376 C385 2.764 . S
Tb376 O386 2.325 . S
Tb376 O389 2.303 . S
Tb376 O393 2.322 . S
Tb376 O394 2.349 . S
Tb376 O397 2.415 . S
Tb376 O398 2.399 . S
Tb377 O387 2.322 . S
Tb377 O388 2.349 . S
Tb377 O390 2.415 . S
Tb377 O391 2.399 . S
Tb377 O392 2.325 . S
Tb377 O395 2.303 . S
Tb377 C406 2.764 . S
C378 O394 1.261 . S
C378 O395 1.257 . S
C379 C382 1.358 . S
C379 C383 1.332 . S
C379 C385 1.504 . S
C380 C381 1.373 . S
C380 C384 1.308 . S
C381 C380 1.373 . S
C381 C382 1.429 . S
C381 H408 0.932 . S
C382 C379 1.358 . S
C382 C381 1.429 . S
C382 H409 0.930 . S
C383 C379 1.332 . S
C383 C384 1.394 . S
C383 H410 0.932 . S
C384 C380 1.308 . S
C384 C383 1.394 . S
C384 H411 0.929 . S
C385 Tb376 2.764 . S
C385 C379 1.504 . S
C385 O397 1.239 . S
C385 O398 1.263 . S
O386 Tb376 2.325 . S
O386 C396 1.236 . S
O387 Tb377 2.322 . S
O387 C396 1.257 . S
O388 Tb377 2.349 . S
O388 C399 1.261 . S
O389 Tb376 2.303 . S
O389 C399 1.257 . S
O390 Tb377 2.415 . S
O390 C406 1.239 . S
O391 Tb377 2.399 . S
O391 C406 1.263 . S
O392 Tb377 2.325 . S
O392 C407 1.236 . S
O393 Tb376 2.322 . S
O393 C407 1.257 . S
O394 Tb376 2.349 . S
O394 C378 1.261 . S
O395 Tb377 2.303 . S
O395 C378 1.257 . S
C396 O386 1.236 . S
C396 O387 1.257 . S
O397 Tb376 2.415 . S
O397 C385 1.239 . S
O398 Tb376 2.399 . S
O398 C385 1.263 . S
C399 O388 1.261 . S
C399 O389 1.257 . S
C400 C403 1.358 . S
C400 C404 1.332 . S
C400 C406 1.504 . S
C401 C402 1.373 . S
C401 C405 1.308 . S
C402 C401 1.373 . S
C402 C403 1.429 . S
C402 H412 0.932 . S
C403 C400 1.358 . S
C403 C402 1.429 . S
C403 H413 0.930 . S
C404 C400 1.332 . S
C404 C405 1.394 . S
C404 H414 0.932 . S
C405 C401 1.308 . S
C405 C404 1.394 . S
C405 H415 0.929 . S
C406 Tb377 2.764 . S
C406 O390 1.239 . S
C406 O391 1.263 . S
C406 C400 1.504 . S
C407 O392 1.236 . S
C407 O393 1.257 . S
H408 C381 0.932 . S
H409 C382 0.930 . S
H410 C383 0.932 . S
H411 C384 0.929 . S
H412 C402 0.932 . S
H413 C403 0.930 . S
H414 C404 0.932 . S
H415 C405 0.929 . S
Tb416 C425 2.764 . S
Tb416 O426 2.325 . S
Tb416 O429 2.303 . S
Tb416 O433 2.322 1_545 S
Tb416 O434 2.349 . S
Tb416 O437 2.415 . S
Tb416 O438 2.399 . S
Tb417 O427 2.322 . S
Tb417 O428 2.349 . S
Tb417 O430 2.415 . S
Tb417 O431 2.399 . S
Tb417 O432 2.325 . S
Tb417 O435 2.303 . S
Tb417 C446 2.764 . S
C418 O434 1.261 . S
C418 O435 1.257 . S
C419 C422 1.358 . S
C419 C423 1.332 . S
C419 C425 1.504 . S
C420 C421 1.373 . S
C420 C424 1.308 . S
C421 C420 1.373 . S
C421 C422 1.429 . S
C421 H448 0.932 . S
C422 C419 1.358 . S
C422 C421 1.429 . S
C422 H449 0.930 . S
C423 C419 1.332 . S
C423 C424 1.394 . S
C423 H450 0.932 . S
C424 C420 1.308 . S
C424 C423 1.394 . S
C424 H451 0.929 . S
C425 Tb416 2.764 . S
C425 C419 1.504 . S
C425 O437 1.239 . S
C425 O438 1.263 . S
O426 Tb416 2.325 . S
O426 C436 1.236 . S
O427 Tb417 2.322 . S
O427 C436 1.257 . S
O428 Tb417 2.349 . S
O428 C439 1.261 . S
O429 Tb416 2.303 . S
O429 C439 1.257 . S
O430 Tb417 2.415 . S
O430 C446 1.239 . S
O431 Tb417 2.399 . S
O431 C446 1.263 . S
O432 Tb417 2.325 . S
O432 C447 1.236 1_545 S
O433 Tb416 2.322 1_565 S
O433 C447 1.257 . S
O434 Tb416 2.349 . S
O434 C418 1.261 . S
O435 Tb417 2.303 . S
O435 C418 1.257 . S
C436 O426 1.236 . S
C436 O427 1.257 . S
O437 Tb416 2.415 . S
O437 C425 1.239 . S
O438 Tb416 2.399 . S
O438 C425 1.263 . S
C439 O428 1.261 . S
C439 O429 1.257 . S
C440 C443 1.358 . S
C440 C444 1.332 1_545 S
C440 C446 1.504 . S
C441 C442 1.373 . S
C441 C445 1.308 . S
C442 C441 1.373 . S
C442 C443 1.429 1_565 S
C442 H452 0.931 1_565 S
C443 C440 1.358 . S
C443 C442 1.429 1_545 S
C443 H453 0.930 . S
C444 C440 1.332 1_565 S
C444 C445 1.394 . S
C444 H454 0.932 . S
C445 C441 1.308 . S
C445 C444 1.394 . S
C445 H455 0.929 . S
C446 Tb417 2.764 . S
C446 O430 1.239 . S
C446 O431 1.263 . S
C446 C440 1.504 . S
C447 O432 1.236 1_565 S
C447 O433 1.257 . S
H448 C421 0.932 . S
H449 C422 0.930 . S
H450 C423 0.932 . S
H451 C424 0.929 . S
H452 C442 0.931 1_545 S
H453 C443 0.930 . S
H454 C444 0.932 . S
H455 C445 0.929 . S
Tb456 C465 2.764 . S
Tb456 O466 2.325 . S
Tb456 O469 2.303 . S
Tb456 O473 2.322 . S
Tb456 O474 2.349 . S
Tb456 O477 2.415 . S
Tb456 O478 2.399 . S
Tb457 O467 2.322 . S
Tb457 O468 2.349 . S
Tb457 O470 2.415 . S
Tb457 O471 2.399 . S
Tb457 O472 2.325 . S
Tb457 O475 2.303 . S
Tb457 C486 2.764 . S
C458 O474 1.261 . S
C458 O475 1.257 . S
C459 C462 1.358 . S
C459 C463 1.332 . S
C459 C465 1.504 . S
C460 C461 1.373 . S
C460 C464 1.308 . S
C461 C460 1.373 . S
C461 C462 1.429 . S
C461 H488 0.932 . S
C462 C459 1.358 . S
C462 C461 1.429 . S
C462 H489 0.930 . S
C463 C459 1.332 . S
C463 C464 1.394 . S
C463 H490 0.932 . S
C464 C460 1.308 . S
C464 C463 1.394 . S
C464 H491 0.929 . S
C465 Tb456 2.764 . S
C465 C459 1.504 . S
C465 O477 1.239 . S
C465 O478 1.263 . S
O466 Tb456 2.325 . S
O466 C476 1.236 . S
O467 Tb457 2.322 . S
O467 C476 1.257 . S
O468 Tb457 2.349 . S
O468 C479 1.261 . S
O469 Tb456 2.303 . S
O469 C479 1.257 . S
O470 Tb457 2.415 . S
O470 C486 1.239 . S
O471 Tb457 2.399 . S
O471 C486 1.263 . S
O472 Tb457 2.325 . S
O472 C487 1.236 . S
O473 Tb456 2.322 . S
O473 C487 1.257 . S
O474 Tb456 2.349 . S
O474 C458 1.261 . S
O475 Tb457 2.303 . S
O475 C458 1.257 . S
C476 O466 1.236 . S
C476 O467 1.257 . S
O477 Tb456 2.415 . S
O477 C465 1.239 . S
O478 Tb456 2.399 . S
O478 C465 1.263 . S
C479 O468 1.261 . S
C479 O469 1.257 . S
C480 C483 1.358 . S
C480 C484 1.332 . S
C480 C486 1.504 . S
C481 C482 1.373 . S
C481 C485 1.308 . S
C482 C481 1.373 . S
C482 C483 1.429 . S
C482 H492 0.932 . S
C483 C480 1.358 . S
C483 C482 1.429 . S
C483 H493 0.930 . S
C484 C480 1.332 . S
C484 C485 1.394 . S
C484 H494 0.932 . S
C485 C481 1.308 . S
C485 C484 1.394 . S
C485 H495 0.929 . S
C486 Tb457 2.764 . S
C486 O470 1.239 . S
C486 O471 1.263 . S
C486 C480 1.504 . S
C487 O472 1.236 . S
C487 O473 1.257 . S
H488 C461 0.932 . S
H489 C462 0.930 . S
H490 C463 0.932 . S
H491 C464 0.929 . S
H492 C482 0.932 . S
H493 C483 0.930 . S
H494 C484 0.932 . S
H495 C485 0.929 . S
Tb496 C505 2.764 . S
Tb496 O506 2.325 . S
Tb496 O509 2.303 . S
Tb496 O513 2.322 . S
Tb496 O514 2.349 . S
Tb496 O517 2.415 . S
Tb496 O518 2.399 . S
Tb497 O507 2.322 1_545 S
Tb497 O508 2.349 . S
Tb497 O510 2.415 . S
Tb497 O511 2.399 . S
Tb497 O512 2.325 . S
Tb497 O515 2.303 . S
Tb497 C526 2.764 . S
C498 O514 1.261 . S
C498 O515 1.257 . S
C499 C502 1.358 . S
C499 C503 1.332 . S
C499 C505 1.504 . S
C500 C501 1.373 . S
C500 C504 1.308 . S
C501 C500 1.373 . S
C501 C502 1.429 . S
C501 H528 0.932 . S
C502 C499 1.358 . S
C502 C501 1.429 . S
C502 H529 0.930 . S
C503 C499 1.332 . S
C503 C504 1.394 . S
C503 H530 0.932 . S
C504 C500 1.308 . S
C504 C503 1.394 . S
C504 H531 0.929 . S
C505 Tb496 2.764 . S
C505 C499 1.504 . S
C505 O517 1.239 . S
C505 O518 1.263 . S
O506 Tb496 2.325 . S
O506 C516 1.236 1_545 S
O507 Tb497 2.322 1_565 S
O507 C516 1.257 . S
O508 Tb497 2.349 . S
O508 C519 1.261 . S
O509 Tb496 2.303 . S
O509 C519 1.257 . S
O510 Tb497 2.415 . S
O510 C526 1.239 . S
O511 Tb497 2.399 . S
O511 C526 1.263 . S
O512 Tb497 2.325 . S
O512 C527 1.236 . S
O513 Tb496 2.322 . S
O513 C527 1.257 . S
O514 Tb496 2.349 . S
O514 C498 1.261 . S
O515 Tb497 2.303 . S
O515 C498 1.257 . S
C516 O506 1.236 1_565 S
C516 O507 1.257 . S
O517 Tb496 2.415 . S
O517 C505 1.239 . S
O518 Tb496 2.399 . S
O518 C505 1.263 . S
C519 O508 1.261 . S
C519 O509 1.257 . S
C520 C523 1.358 . S
C520 C524 1.338 . S
C520 C526 1.504 . S
C521 C522 1.373 . S
C521 C525 1.308 1_455 S
C522 C521 1.373 . S
C522 C523 1.429 . S
C522 H532 0.932 . S
C523 C520 1.358 . S
C523 C522 1.429 . S
C523 H533 0.930 . S
C524 C520 1.338 . S
C524 C525 1.393 1_455 S
C524 H534 0.928 1_455 S
C525 C521 1.308 1_655 S
C525 C524 1.393 1_655 S
C525 H535 0.929 . S
C526 Tb497 2.764 . S
C526 O510 1.239 . S
C526 O511 1.263 . S
C526 C520 1.504 . S
C527 O512 1.236 . S
C527 O513 1.257 . S
H528 C501 0.932 . S
H529 C502 0.930 . S
H530 C503 0.932 . S
H531 C504 0.929 . S
H532 C522 0.932 . S
H533 C523 0.930 . S
H534 C524 0.928 1_655 S
H535 C525 0.929 . S
Tb536 C545 2.764 . S
Tb536 O546 2.325 . S
Tb536 O549 2.303 . S
Tb536 O553 2.322 . S
Tb536 O554 2.349 . S
Tb536 O557 2.415 . S
Tb536 O558 2.399 . S
Tb537 O547 2.322 . S
Tb537 O548 2.349 . S
Tb537 O550 2.415 . S
Tb537 O551 2.399 . S
Tb537 O552 2.325 . S
Tb537 O555 2.303 . S
Tb537 C566 2.764 . S
C538 O554 1.261 . S
C538 O555 1.257 . S
C539 C542 1.358 . S
C539 C543 1.332 . S
C539 C545 1.504 . S
C540 C541 1.373 . S
C540 C544 1.308 . S
C541 C540 1.373 . S
C541 C542 1.429 . S
C541 H568 0.932 . S
C542 C539 1.358 . S
C542 C541 1.429 . S
C542 H569 0.930 . S
C543 C539 1.332 . S
C543 C544 1.394 . S
C543 H570 0.932 . S
C544 C540 1.308 . S
C544 C543 1.394 . S
C544 H571 0.929 . S
C545 Tb536 2.764 . S
C545 C539 1.504 . S
C545 O557 1.239 . S
C545 O558 1.263 . S
O546 Tb536 2.325 . S
O546 C556 1.236 . S
O547 Tb537 2.322 . S
O547 C556 1.257 . S
O548 Tb537 2.349 . S
O548 C559 1.261 . S
O549 Tb536 2.303 . S
O549 C559 1.257 . S
O550 Tb537 2.415 . S
O550 C566 1.239 . S
O551 Tb537 2.399 . S
O551 C566 1.263 . S
O552 Tb537 2.325 . S
O552 C567 1.236 . S
O553 Tb536 2.322 . S
O553 C567 1.257 . S
O554 Tb536 2.349 . S
O554 C538 1.261 . S
O555 Tb537 2.303 . S
O555 C538 1.257 . S
C556 O546 1.236 . S
C556 O547 1.257 . S
O557 Tb536 2.415 . S
O557 C545 1.239 . S
O558 Tb536 2.399 . S
O558 C545 1.263 . S
C559 O548 1.261 . S
C559 O549 1.257 . S
C560 C563 1.358 . S
C560 C564 1.332 . S
C560 C566 1.504 . S
C561 C562 1.373 . S
C561 C565 1.308 . S
C562 C561 1.373 . S
C562 C563 1.429 . S
C562 H572 0.932 . S
C563 C560 1.358 . S
C563 C562 1.429 . S
C563 H573 0.930 . S
C564 C560 1.332 . S
C564 C565 1.394 . S
C564 H574 0.932 . S
C565 C561 1.308 . S
C565 C564 1.394 . S
C565 H575 0.929 . S
C566 Tb537 2.764 . S
C566 O550 1.239 . S
C566 O551 1.263 . S
C566 C560 1.504 . S
C567 O552 1.236 . S
C567 O553 1.257 . S
H568 C541 0.932 . S
H569 C542 0.930 . S
H570 C543 0.932 . S
H571 C544 0.929 . S
H572 C562 0.932 . S
H573 C563 0.930 . S
H574 C564 0.932 . S
H575 C565 0.929 . S
Tb576 C585 2.764 . S
Tb576 O586 2.325 . S
Tb576 O589 2.303 . S
Tb576 O593 2.322 1_545 S
Tb576 O594 2.349 . S
Tb576 O597 2.415 . S
Tb576 O598 2.399 . S
Tb577 O587 2.322 . S
Tb577 O588 2.349 . S
Tb577 O590 2.415 1_554 S
Tb577 O591 2.399 1_554 S
Tb577 O592 2.325 . S
Tb577 O595 2.303 . S
Tb577 C606 2.764 1_554 S
C578 O594 1.261 . S
C578 O595 1.257 . S
C579 C582 1.358 . S
C579 C583 1.332 . S
C579 C585 1.504 . S
C580 C581 1.373 . S
C580 C584 1.308 . S
C581 C580 1.373 . S
C581 C582 1.429 . S
C581 H608 0.932 . S
C582 C579 1.358 . S
C582 C581 1.429 . S
C582 H609 0.930 . S
C583 C579 1.332 . S
C583 C584 1.394 . S
C583 H610 0.932 . S
C584 C580 1.308 . S
C584 C583 1.394 . S
C584 H611 0.929 . S
C585 Tb576 2.764 . S
C585 C579 1.504 . S
C585 O597 1.239 . S
C585 O598 1.263 . S
O586 Tb576 2.325 . S
O586 C596 1.236 . S
O587 Tb577 2.322 . S
O587 C596 1.257 . S
O588 Tb577 2.349 . S
O588 C599 1.261 . S
O589 Tb576 2.303 . S
O589 C599 1.257 . S
O590 Tb577 2.415 1_556 S
O590 C606 1.239 . S
O591 Tb577 2.399 1_556 S
O591 C606 1.263 . S
O592 Tb577 2.325 . S
O592 C607 1.236 1_545 S
O593 Tb576 2.322 1_565 S
O593 C607 1.257 . S
O594 Tb576 2.349 . S
O594 C578 1.261 . S
O595 Tb577 2.303 . S
O595 C578 1.257 . S
C596 O586 1.236 . S
C596 O587 1.257 . S
O597 Tb576 2.415 . S
O597 C585 1.239 . S
O598 Tb576 2.399 . S
O598 C585 1.263 . S
C599 O588 1.261 . S
C599 O589 1.257 . S
C600 C603 1.358 . S
C600 C604 1.332 . S
C600 C606 1.504 . S
C601 C602 1.373 . S
C601 C605 1.308 . S
C602 C601 1.373 . S
C602 C603 1.429 . S
C602 H612 0.932 . S
C603 C600 1.358 . S
C603 C602 1.429 . S
C603 H613 0.930 . S
C604 C600 1.332 . S
C604 C605 1.394 . S
C604 H614 0.932 . S
C605 C601 1.308 . S
C605 C604 1.394 . S
C605 H615 0.929 . S
C606 Tb577 2.764 1_556 S
C606 O590 1.239 . S
C606 O591 1.263 . S
C606 C600 1.504 . S
C607 O592 1.236 1_565 S
C607 O593 1.257 . S
H608 C581 0.932 . S
H609 C582 0.930 . S
H610 C583 0.932 . S
H611 C584 0.929 . S
H612 C602 0.932 . S
H613 C603 0.930 . S
H614 C604 0.932 . S
H615 C605 0.929 . S
Tb616 C625 2.764 . S
Tb616 O626 2.325 . S
Tb616 O629 2.303 . S
Tb616 O633 2.322 . S
Tb616 O634 2.349 . S
Tb616 O637 2.415 . S
Tb616 O638 2.399 . S
Tb617 O627 2.322 . S
Tb617 O628 2.349 . S
Tb617 O630 2.415 . S
Tb617 O631 2.399 . S
Tb617 O632 2.325 . S
Tb617 O635 2.303 . S
Tb617 C646 2.764 . S
C618 O634 1.261 . S
C618 O635 1.257 . S
C619 C622 1.358 . S
C619 C623 1.332 . S
C619 C625 1.504 . S
C620 C621 1.373 . S
C620 C624 1.308 . S
C621 C620 1.373 . S
C621 C622 1.429 . S
C621 H648 0.932 . S
C622 C619 1.358 . S
C622 C621 1.429 . S
C622 H649 0.930 . S
C623 C619 1.332 . S
C623 C624 1.394 . S
C623 H650 0.932 . S
C624 C620 1.308 . S
C624 C623 1.394 . S
C624 H651 0.929 . S
C625 Tb616 2.764 . S
C625 C619 1.504 . S
C625 O637 1.239 . S
C625 O638 1.263 . S
O626 Tb616 2.325 . S
O626 C636 1.236 . S
O627 Tb617 2.322 . S
O627 C636 1.257 . S
O628 Tb617 2.349 . S
O628 C639 1.261 . S
O629 Tb616 2.303 . S
O629 C639 1.257 . S
O630 Tb617 2.415 . S
O630 C646 1.239 . S
O631 Tb617 2.399 . S
O631 C646 1.263 . S
O632 Tb617 2.325 . S
O632 C647 1.236 . S
O633 Tb616 2.322 . S
O633 C647 1.257 . S
O634 Tb616 2.349 . S
O634 C618 1.261 . S
O635 Tb617 2.303 . S
O635 C618 1.257 . S
C636 O626 1.236 . S
C636 O627 1.257 . S
O637 Tb616 2.415 . S
O637 C625 1.239 . S
O638 Tb616 2.399 . S
O638 C625 1.263 . S
C639 O628 1.261 . S
C639 O629 1.257 . S
C640 C643 1.358 . S
C640 C644 1.332 . S
C640 C646 1.504 . S
C641 C642 1.373 . S
C641 C645 1.308 . S
C642 C641 1.373 . S
C642 C643 1.429 . S
C642 H652 0.932 . S
C643 C640 1.358 . S
C643 C642 1.429 . S
C643 H653 0.930 . S
C644 C640 1.332 . S
C644 C645 1.394 . S
C644 H654 0.932 . S
C645 C641 1.308 . S
C645 C644 1.394 . S
C645 H655 0.929 . S
C646 Tb617 2.764 . S
C646 O630 1.239 . S
C646 O631 1.263 . S
C646 C640 1.504 . S
C647 O632 1.236 . S
C647 O633 1.257 . S
H648 C621 0.932 . S
H649 C622 0.930 . S
H650 C623 0.932 . S
H651 C624 0.929 . S
H652 C642 0.932 . S
H653 C643 0.930 . S
H654 C644 0.932 . S
H655 C645 0.929 . S
Tb656 C665 2.764 . S
Tb656 O666 2.325 . S
Tb656 O669 2.303 . S
Tb656 O673 2.322 . S
Tb656 O674 2.349 . S
Tb656 O677 2.415 . S
Tb656 O678 2.399 . S
Tb657 O667 2.322 . S
Tb657 O668 2.349 . S
Tb657 O670 2.415 1_554 S
Tb657 O671 2.399 1_554 S
Tb657 O672 2.325 . S
Tb657 O675 2.303 . S
Tb657 C686 2.764 1_554 S
C658 O674 1.261 . S
C658 O675 1.257 . S
C659 C662 1.358 . S
C659 C663 1.332 . S
C659 C665 1.504 . S
C660 C661 1.373 . S
C660 C664 1.308 . S
C661 C660 1.373 . S
C661 C662 1.429 . S
C661 H688 0.932 . S
C662 C659 1.358 . S
C662 C661 1.429 . S
C662 H689 0.930 . S
C663 C659 1.332 . S
C663 C664 1.394 . S
C663 H690 0.932 . S
C664 C660 1.308 . S
C664 C663 1.394 . S
C664 H691 0.929 . S
C665 Tb656 2.764 . S
C665 C659 1.504 . S
C665 O677 1.239 . S
C665 O678 1.263 . S
O666 Tb656 2.325 . S
O666 C676 1.236 . S
O667 Tb657 2.322 . S
O667 C676 1.257 . S
O668 Tb657 2.349 . S
O668 C679 1.261 . S
O669 Tb656 2.303 . S
O669 C679 1.257 . S
O670 Tb657 2.415 1_556 S
O670 C686 1.239 . S
O671 Tb657 2.399 1_556 S
O671 C686 1.263 . S
O672 Tb657 2.325 . S
O672 C687 1.236 . S
O673 Tb656 2.322 . S
O673 C687 1.257 . S
O674 Tb656 2.349 . S
O674 C658 1.261 . S
O675 Tb657 2.303 . S
O675 C658 1.257 . S
C676 O666 1.236 . S
C676 O667 1.257 . S
O677 Tb656 2.415 . S
O677 C665 1.239 . S
O678 Tb656 2.399 . S
O678 C665 1.263 . S
C679 O668 1.261 . S
C679 O669 1.257 . S
C680 C683 1.358 . S
C680 C684 1.332 . S
C680 C686 1.504 . S
C681 C682 1.373 . S
C681 C685 1.308 . S
C682 C681 1.373 . S
C682 C683 1.429 . S
C682 H692 0.932 . S
C683 C680 1.358 . S
C683 C682 1.429 . S
C683 H693 0.930 . S
C684 C680 1.332 . S
C684 C685 1.394 . S
C684 H694 0.932 . S
C685 C681 1.308 . S
C685 C684 1.394 . S
C685 H695 0.929 . S
C686 Tb657 2.764 1_556 S
C686 O670 1.239 . S
C686 O671 1.263 . S
C686 C680 1.504 . S
C687 O672 1.236 . S
C687 O673 1.257 . S
H688 C661 0.932 . S
H689 C662 0.930 . S
H690 C663 0.932 . S
H691 C664 0.929 . S
H692 C682 0.932 . S
H693 C683 0.930 . S
H694 C684 0.932 . S
H695 C685 0.929 . S
Tb696 C705 2.764 . S
Tb696 O706 2.325 . S
Tb696 O709 2.303 . S
Tb696 O713 2.322 . S
Tb696 O714 2.349 . S
Tb696 O717 2.415 . S
Tb696 O718 2.399 . S
Tb697 O707 2.322 . S
Tb697 O708 2.349 . S
Tb697 O710 2.415 . S
Tb697 O711 2.399 . S
Tb697 O712 2.325 . S
Tb697 O715 2.303 . S
Tb697 C726 2.764 . S
C698 O714 1.261 . S
C698 O715 1.257 . S
C699 C702 1.358 . S
C699 C703 1.332 . S
C699 C705 1.504 . S
C700 C701 1.373 . S
C700 C704 1.308 . S
C701 C700 1.373 . S
C701 C702 1.429 . S
C701 H728 0.932 . S
C702 C699 1.358 . S
C702 C701 1.429 . S
C702 H729 0.930 . S
C703 C699 1.332 . S
C703 C704 1.394 . S
C703 H730 0.932 . S
C704 C700 1.308 . S
C704 C703 1.394 . S
C704 H731 0.929 . S
C705 Tb696 2.764 . S
C705 C699 1.504 . S
C705 O717 1.239 . S
C705 O718 1.263 . S
O706 Tb696 2.325 . S
O706 C716 1.236 . S
O707 Tb697 2.322 . S
O707 C716 1.257 . S
O708 Tb697 2.349 . S
O708 C719 1.261 . S
O709 Tb696 2.303 . S
O709 C719 1.257 . S
O710 Tb697 2.415 . S
O710 C726 1.239 . S
O711 Tb697 2.399 . S
O711 C726 1.263 . S
O712 Tb697 2.325 . S
O712 C727 1.236 . S
O713 Tb696 2.322 . S
O713 C727 1.257 . S
O714 Tb696 2.349 . S
O714 C698 1.261 . S
O715 Tb697 2.303 . S
O715 C698 1.257 . S
C716 O706 1.236 . S
C716 O707 1.257 . S
O717 Tb696 2.415 . S
O717 C705 1.239 . S
O718 Tb696 2.399 . S
O718 C705 1.263 . S
C719 O708 1.261 . S
C719 O709 1.257 . S
C720 C723 1.358 . S
C720 C724 1.332 . S
C720 C726 1.504 . S
C721 C722 1.373 . S
C721 C725 1.308 . S
C722 C721 1.373 . S
C722 C723 1.429 . S
C722 H732 0.932 . S
C723 C720 1.358 . S
C723 C722 1.429 . S
C723 H733 0.930 . S
C724 C720 1.332 . S
C724 C725 1.394 . S
C724 H734 0.932 . S
C725 C721 1.308 . S
C725 C724 1.394 . S
C725 H735 0.929 . S
C726 Tb697 2.764 . S
C726 O710 1.239 . S
C726 O711 1.263 . S
C726 C720 1.504 . S
C727 O712 1.236 . S
C727 O713 1.257 . S
H728 C701 0.932 . S
H729 C702 0.930 . S
H730 C703 0.932 . S
H731 C704 0.929 . S
H732 C722 0.932 . S
H733 C723 0.930 . S
H734 C724 0.932 . S
H735 C725 0.929 . S
Tb736 C745 2.764 . S
Tb736 O746 2.325 . S
Tb736 O749 2.303 . S
Tb736 O753 2.322 . S
Tb736 O754 2.349 . S
Tb736 O757 2.415 . S
Tb736 O758 2.399 . S
Tb737 O747 2.322 . S
Tb737 O748 2.349 1_455 S
Tb737 O750 2.415 . S
Tb737 O751 2.399 . S
Tb737 O752 2.325 . S
Tb737 O755 2.303 . S
Tb737 C766 2.764 . S
C738 O754 1.261 . S
C738 O755 1.257 . S
C739 C742 1.358 . S
C739 C743 1.332 1_455 S
C739 C745 1.504 . S
C740 C741 1.373 . S
C740 C744 1.308 1_455 S
C741 C740 1.373 . S
C741 C742 1.429 . S
C741 H768 0.932 . S
C742 C739 1.358 . S
C742 C741 1.429 . S
C742 H769 0.930 . S
C743 C739 1.332 1_655 S
C743 C744 1.394 . S
C743 H770 0.932 . S
C744 C740 1.308 1_655 S
C744 C743 1.394 . S
C744 H771 0.929 . S
C745 Tb736 2.764 . S
C745 C739 1.504 . S
C745 O757 1.239 . S
C745 O758 1.263 . S
O746 Tb736 2.325 . S
O746 C756 1.236 . S
O747 Tb737 2.322 . S
O747 C756 1.257 . S
O748 Tb737 2.349 1_655 S
O748 C759 1.261 . S
O749 Tb736 2.303 . S
O749 C759 1.257 1_455 S
O750 Tb737 2.415 . S
O750 C766 1.239 . S
O751 Tb737 2.399 . S
O751 C766 1.263 . S
O752 Tb737 2.325 . S
O752 C767 1.236 . S
O753 Tb736 2.322 . S
O753 C767 1.257 . S
O754 Tb736 2.349 . S
O754 C738 1.261 . S
O755 Tb737 2.303 . S
O755 C738 1.257 . S
C756 O746 1.236 . S
C756 O747 1.257 . S
O757 Tb736 2.415 . S
O757 C745 1.239 . S
O758 Tb736 2.399 . S
O758 C745 1.263 . S
C759 O748 1.261 . S
C759 O749 1.257 1_655 S
C760 C763 1.358 . S
C760 C764 1.332 . S
C760 C766 1.504 . S
C761 C762 1.373 . S
C761 C765 1.308 . S
C762 C761 1.373 . S
C762 C763 1.429 . S
C762 H772 0.932 . S
C763 C760 1.358 . S
C763 C762 1.429 . S
C763 H773 0.930 . S
C764 C760 1.332 . S
C764 C765 1.394 . S
C764 H774 0.932 . S
C765 C761 1.308 . S
C765 C764 1.394 . S
C765 H775 0.929 . S
C766 Tb737 2.764 . S
C766 O750 1.239 . S
C766 O751 1.263 . S
C766 C760 1.504 . S
C767 O752 1.236 . S
C767 O753 1.257 . S
H768 C741 0.932 . S
H769 C742 0.930 . S
H770 C743 0.932 . S
H771 C744 0.929 . S
H772 C762 0.932 . S
H773 C763 0.930 . S
H774 C764 0.932 . S
H775 C765 0.929 . S
Tb776 C785 2.764 . S
Tb776 O786 2.325 . S
Tb776 O789 2.303 . S
Tb776 O793 2.322 . S
Tb776 O794 2.349 . S
Tb776 O797 2.415 . S
Tb776 O798 2.399 . S
Tb777 O787 2.322 . S
Tb777 O788 2.349 . S
Tb777 O790 2.415 . S
Tb777 O791 2.399 . S
Tb777 O792 2.325 . S
Tb777 O795 2.303 . S
Tb777 C806 2.764 . S
C778 O794 1.261 . S
C778 O795 1.257 . S
C779 C782 1.358 . S
C779 C783 1.332 . S
C779 C785 1.504 . S
C780 C781 1.373 . S
C780 C784 1.308 . S
C781 C780 1.373 . S
C781 C782 1.429 . S
C781 H808 0.932 . S
C782 C779 1.358 . S
C782 C781 1.429 . S
C782 H809 0.930 . S
C783 C779 1.332 . S
C783 C784 1.394 . S
C783 H810 0.932 . S
C784 C780 1.308 . S
C784 C783 1.394 . S
C784 H811 0.929 . S
C785 Tb776 2.764 . S
C785 C779 1.504 . S
C785 O797 1.239 . S
C785 O798 1.263 . S
O786 Tb776 2.325 . S
O786 C796 1.236 . S
O787 Tb777 2.322 . S
O787 C796 1.257 . S
O788 Tb777 2.349 . S
O788 C799 1.261 . S
O789 Tb776 2.303 . S
O789 C799 1.257 . S
O790 Tb777 2.415 . S
O790 C806 1.239 . S
O791 Tb777 2.399 . S
O791 C806 1.263 . S
O792 Tb777 2.325 . S
O792 C807 1.236 . S
O793 Tb776 2.322 . S
O793 C807 1.257 . S
O794 Tb776 2.349 . S
O794 C778 1.261 . S
O795 Tb777 2.303 . S
O795 C778 1.257 . S
C796 O786 1.236 . S
C796 O787 1.257 . S
O797 Tb776 2.415 . S
O797 C785 1.239 . S
O798 Tb776 2.399 . S
O798 C785 1.263 . S
C799 O788 1.261 . S
C799 O789 1.257 . S
C800 C803 1.358 . S
C800 C804 1.332 . S
C800 C806 1.504 . S
C801 C802 1.373 . S
C801 C805 1.308 . S
C802 C801 1.373 . S
C802 C803 1.429 . S
C802 H812 0.932 . S
C803 C800 1.358 . S
C803 C802 1.429 . S
C803 H813 0.930 . S
C804 C800 1.332 . S
C804 C805 1.394 . S
C804 H814 0.932 . S
C805 C801 1.308 . S
C805 C804 1.394 . S
C805 H815 0.929 . S
C806 Tb777 2.764 . S
C806 O790 1.239 . S
C806 O791 1.263 . S
C806 C800 1.504 . S
C807 O792 1.236 . S
C807 O793 1.257 . S
H808 C781 0.932 . S
H809 C782 0.930 . S
H810 C783 0.932 . S
H811 C784 0.929 . S
H812 C802 0.932 . S
H813 C803 0.930 . S
H814 C804 0.932 . S
H815 C805 0.929 . S
Tb816 C825 2.764 . S
Tb816 O826 2.325 . S
Tb816 O829 2.303 . S
Tb816 O833 2.322 . S
Tb816 O834 2.349 . S
Tb816 O837 2.415 . S
Tb816 O838 2.399 . S
Tb817 O827 2.322 . S
Tb817 O828 2.349 . S
Tb817 O830 2.415 . S
Tb817 O831 2.399 . S
Tb817 O832 2.325 . S
Tb817 O835 2.303 . S
Tb817 C846 2.764 . S
C818 O834 1.261 . S
C818 O835 1.257 . S
C819 C822 1.358 . S
C819 C823 1.332 . S
C819 C825 1.504 . S
C820 C821 1.373 . S
C820 C824 1.308 . S
C821 C820 1.373 . S
C821 C822 1.429 . S
C821 H848 0.932 . S
C822 C819 1.358 . S
C822 C821 1.429 . S
C822 H849 0.930 . S
C823 C819 1.332 . S
C823 C824 1.394 . S
C823 H850 0.932 . S
C824 C820 1.308 . S
C824 C823 1.394 . S
C824 H851 0.929 . S
C825 Tb816 2.764 . S
C825 C819 1.504 . S
C825 O837 1.239 . S
C825 O838 1.263 . S
O826 Tb816 2.325 . S
O826 C836 1.236 . S
O827 Tb817 2.322 . S
O827 C836 1.257 . S
O828 Tb817 2.349 . S
O828 C839 1.261 . S
O829 Tb816 2.303 . S
O829 C839 1.257 . S
O830 Tb817 2.415 . S
O830 C846 1.239 . S
O831 Tb817 2.399 . S
O831 C846 1.263 . S
O832 Tb817 2.325 . S
O832 C847 1.236 . S
O833 Tb816 2.322 . S
O833 C847 1.257 . S
O834 Tb816 2.349 . S
O834 C818 1.261 . S
O835 Tb817 2.303 . S
O835 C818 1.257 . S
C836 O826 1.236 . S
C836 O827 1.257 . S
O837 Tb816 2.415 . S
O837 C825 1.239 . S
O838 Tb816 2.399 . S
O838 C825 1.263 . S
C839 O828 1.261 . S
C839 O829 1.257 . S
C840 C843 1.358 . S
C840 C844 1.332 . S
C840 C846 1.504 . S
C841 C842 1.373 . S
C841 C845 1.308 . S
C842 C841 1.373 . S
C842 C843 1.429 . S
C842 H852 0.932 . S
C843 C840 1.358 . S
C843 C842 1.429 . S
C843 H853 0.930 . S
C844 C840 1.332 . S
C844 C845 1.394 . S
C844 H854 0.932 . S
C845 C841 1.308 . S
C845 C844 1.394 . S
C845 H855 0.929 . S
C846 Tb817 2.764 . S
C846 O830 1.239 . S
C846 O831 1.263 . S
C846 C840 1.504 . S
C847 O832 1.236 . S
C847 O833 1.257 . S
H848 C821 0.932 . S
H849 C822 0.930 . S
H850 C823 0.932 . S
H851 C824 0.929 . S
H852 C842 0.932 . S
H853 C843 0.930 . S
H854 C844 0.932 . S
H855 C845 0.929 . S
Tb856 C865 2.764 . S
Tb856 O866 2.325 . S
Tb856 O869 2.303 . S
Tb856 O873 2.322 . S
Tb856 O874 2.349 . S
Tb856 O877 2.415 . S
Tb856 O878 2.399 . S
Tb857 O867 2.322 . S
Tb857 O868 2.349 . S
Tb857 O870 2.415 . S
Tb857 O871 2.399 . S
Tb857 O872 2.325 . S
Tb857 O875 2.303 . S
Tb857 C886 2.764 . S
C858 O874 1.261 . S
C858 O875 1.257 . S
C859 C862 1.358 . S
C859 C863 1.332 . S
C859 C865 1.504 . S
C860 C861 1.373 . S
C860 C864 1.308 . S
C861 C860 1.373 . S
C861 C862 1.429 . S
C861 H888 0.932 . S
C862 C859 1.358 . S
C862 C861 1.429 . S
C862 H889 0.930 . S
C863 C859 1.332 . S
C863 C864 1.394 . S
C863 H890 0.932 . S
C864 C860 1.308 . S
C864 C863 1.394 . S
C864 H891 0.929 . S
C865 Tb856 2.764 . S
C865 C859 1.504 . S
C865 O877 1.239 . S
C865 O878 1.263 . S
O866 Tb856 2.325 . S
O866 C876 1.236 . S
O867 Tb857 2.322 . S
O867 C876 1.257 . S
O868 Tb857 2.349 . S
O868 C879 1.261 . S
O869 Tb856 2.303 . S
O869 C879 1.257 . S
O870 Tb857 2.415 . S
O870 C886 1.239 . S
O871 Tb857 2.399 . S
O871 C886 1.263 . S
O872 Tb857 2.325 . S
O872 C887 1.236 . S
O873 Tb856 2.322 . S
O873 C887 1.257 . S
O874 Tb856 2.349 . S
O874 C858 1.261 . S
O875 Tb857 2.303 . S
O875 C858 1.257 . S
C876 O866 1.236 . S
C876 O867 1.257 . S
O877 Tb856 2.415 . S
O877 C865 1.239 . S
O878 Tb856 2.399 . S
O878 C865 1.263 . S
C879 O868 1.261 . S
C879 O869 1.257 . S
C880 C883 1.358 . S
C880 C884 1.332 . S
C880 C886 1.504 . S
C881 C882 1.373 . S
C881 C885 1.308 . S
C882 C881 1.373 . S
C882 C883 1.429 . S
C882 H892 0.932 . S
C883 C880 1.358 . S
C883 C882 1.429 . S
C883 H893 0.930 . S
C884 C880 1.332 . S
C884 C885 1.394 . S
C884 H894 0.932 . S
C885 C881 1.308 . S
C885 C884 1.394 . S
C885 H895 0.929 . S
C886 Tb857 2.764 . S
C886 O870 1.239 . S
C886 O871 1.263 . S
C886 C880 1.504 . S
C887 O872 1.236 . S
C887 O873 1.257 . S
H888 C861 0.932 . S
H889 C862 0.930 . S
H890 C863 0.932 . S
H891 C864 0.929 . S
H892 C882 0.932 . S
H893 C883 0.930 . S
H894 C884 0.932 . S
H895 C885 0.929 . S
Tb896 C905 2.764 . S
Tb896 O906 2.325 . S
Tb896 O909 2.303 . S
Tb896 O913 2.322 . S
Tb896 O914 2.349 . S
Tb896 O917 2.415 . S
Tb896 O918 2.399 . S
Tb897 O907 2.322 . S
Tb897 O908 2.349 . S
Tb897 O910 2.415 . S
Tb897 O911 2.399 . S
Tb897 O912 2.325 . S
Tb897 O915 2.303 . S
Tb897 C926 2.764 . S
C898 O914 1.261 . S
C898 O915 1.257 . S
C899 C902 1.358 . S
C899 C903 1.332 . S
C899 C905 1.504 . S
C900 C901 1.373 . S
C900 C904 1.308 . S
C901 C900 1.373 . S
C901 C902 1.429 . S
C901 H928 0.932 . S
C902 C899 1.358 . S
C902 C901 1.429 . S
C902 H929 0.930 . S
C903 C899 1.332 . S
C903 C904 1.394 . S
C903 H930 0.932 . S
C904 C900 1.308 . S
C904 C903 1.394 . S
C904 H931 0.929 . S
C905 Tb896 2.764 . S
C905 C899 1.504 . S
C905 O917 1.239 . S
C905 O918 1.263 . S
O906 Tb896 2.325 . S
O906 C916 1.236 . S
O907 Tb897 2.322 . S
O907 C916 1.257 . S
O908 Tb897 2.349 . S
O908 C919 1.261 . S
O909 Tb896 2.303 . S
O909 C919 1.257 . S
O910 Tb897 2.415 . S
O910 C926 1.239 . S
O911 Tb897 2.399 . S
O911 C926 1.263 . S
O912 Tb897 2.325 . S
O912 C927 1.236 . S
O913 Tb896 2.322 . S
O913 C927 1.257 . S
O914 Tb896 2.349 . S
O914 C898 1.261 . S
O915 Tb897 2.303 . S
O915 C898 1.257 . S
C916 O906 1.236 . S
C916 O907 1.257 . S
O917 Tb896 2.415 . S
O917 C905 1.239 . S
O918 Tb896 2.399 . S
O918 C905 1.263 . S
C919 O908 1.261 . S
C919 O909 1.257 . S
C920 C923 1.358 . S
C920 C924 1.332 . S
C920 C926 1.504 . S
C921 C922 1.373 . S
C921 C925 1.308 . S
C922 C921 1.373 . S
C922 C923 1.429 . S
C922 H932 0.932 . S
C923 C920 1.358 . S
C923 C922 1.429 . S
C923 H933 0.930 . S
C924 C920 1.332 . S
C924 C925 1.394 . S
C924 H934 0.932 . S
C925 C921 1.308 . S
C925 C924 1.394 . S
C925 H935 0.929 . S
C926 Tb897 2.764 . S
C926 O910 1.239 . S
C926 O911 1.263 . S
C926 C920 1.504 . S
C927 O912 1.236 . S
C927 O913 1.257 . S
H928 C901 0.932 . S
H929 C902 0.930 . S
H930 C903 0.932 . S
H931 C904 0.929 . S
H932 C922 0.932 . S
H933 C923 0.930 . S
H934 C924 0.932 . S
H935 C925 0.929 . S
Tb936 C945 2.764 1_455 S
Tb936 O946 2.325 . S
Tb936 O949 2.303 . S
Tb936 O953 2.322 . S
Tb936 O954 2.349 . S
Tb936 O957 2.415 1_455 S
Tb936 O958 2.399 1_455 S
Tb937 O947 2.322 . S
Tb937 O948 2.349 . S
Tb937 O950 2.415 . S
Tb937 O951 2.399 . S
Tb937 O952 2.325 . S
Tb937 O955 2.303 . S
Tb937 C966 2.764 . S
C938 O954 1.261 . S
C938 O955 1.257 . S
C939 C942 1.358 . S
C939 C943 1.332 . S
C939 C945 1.504 . S
C940 C941 1.373 . S
C940 C944 1.308 . S
C941 C940 1.373 . S
C941 C942 1.429 . S
C941 H968 0.932 . S
C942 C939 1.358 . S
C942 C941 1.429 . S
C942 H969 0.930 . S
C943 C939 1.332 . S
C943 C944 1.394 . S
C943 H970 0.932 . S
C944 C940 1.308 . S
C944 C943 1.394 . S
C944 H971 0.929 . S
C945 Tb936 2.764 1_655 S
C945 C939 1.504 . S
C945 O957 1.239 . S
C945 O958 1.263 . S
O946 Tb936 2.325 . S
O946 C956 1.236 . S
O947 Tb937 2.322 . S
O947 C956 1.257 . S
O948 Tb937 2.349 . S
O948 C959 1.261 . S
O949 Tb936 2.303 . S
O949 C959 1.257 . S
O950 Tb937 2.415 . S
O950 C966 1.239 . S
O951 Tb937 2.399 . S
O951 C966 1.263 . S
O952 Tb937 2.325 . S
O952 C967 1.236 . S
O953 Tb936 2.322 . S
O953 C967 1.257 . S
O954 Tb936 2.349 . S
O954 C938 1.261 . S
O955 Tb937 2.303 . S
O955 C938 1.257 . S
C956 O946 1.236 . S
C956 O947 1.257 . S
O957 Tb936 2.415 1_655 S
O957 C945 1.239 . S
O958 Tb936 2.399 1_655 S
O958 C945 1.263 . S
C959 O948 1.261 . S
C959 O949 1.257 . S
C960 C963 1.358 . S
C960 C964 1.332 . S
C960 C966 1.504 . S
C961 C962 1.373 . S
C961 C965 1.308 . S
C962 C961 1.373 . S
C962 C963 1.429 . S
C962 H972 0.932 . S
C963 C960 1.358 . S
C963 C962 1.429 . S
C963 H973 0.930 . S
C964 C960 1.332 . S
C964 C965 1.394 . S
C964 H974 0.932 . S
C965 C961 1.308 . S
C965 C964 1.394 . S
C965 H975 0.929 . S
C966 Tb937 2.764 . S
C966 O950 1.239 . S
C966 O951 1.263 . S
C966 C960 1.504 . S
C967 O952 1.236 . S
C967 O953 1.257 . S
H968 C941 0.932 . S
H969 C942 0.930 . S
H970 C943 0.932 . S
H971 C944 0.929 . S
H972 C962 0.932 . S
H973 C963 0.930 . S
H974 C964 0.932 . S
H975 C965 0.929 . S
C976 C977 1.391 1_455 S
C976 C978 1.394 . S
C976 H992 0.931 . S
C977 C976 1.391 1_655 S
C977 C981 1.376 . S
C978 C976 1.394 . S
C978 C979 1.369 . S
C978 C982 1.531 1_556 S
C979 C978 1.369 . S
C979 C980 1.410 1_455 S
C979 C987 1.503 1_556 S
C980 C979 1.410 1_655 S
C980 C981 1.392 . S
C980 C983 1.511 . S
C981 C977 1.376 . S
C981 C980 1.392 . S
C981 H993 0.929 . S
C982 C978 1.531 1_554 S
C982 H994 0.960 . S
C982 H995 0.962 1_554 S
C982 H996 0.960 . S
C983 C980 1.511 . S
C983 H997 0.961 . S
C983 H998 0.961 . S
C983 H999 0.961 . S
C984 C985 1.370 . S
C984 C986 1.363 1_554 S
C984 H1000 0.931 . S
C985 C984 1.370 . S
C985 C989 1.408 . S
C986 C984 1.363 1_556 S
C986 C987 1.370 1_556 S
C986 C990 1.524 . S
C987 C979 1.503 1_554 S
C987 C986 1.370 1_554 S
C987 C988 1.403 . S
C988 C987 1.403 . S
C988 C989 1.404 . S
C988 C991 1.539 . S
C989 C985 1.408 . S
C989 C988 1.404 . S
C989 H1001 0.930 . S
C990 C986 1.524 . S
C990 H1002 0.956 . S
C990 H1003 0.961 . S
C990 H1004 0.961 . S
C991 C988 1.539 . S
C991 H1005 0.958 . S
C991 H1006 0.961 1_455 S
C991 H1007 0.960 1_455 S
H992 C976 0.931 . S
H993 C981 0.929 . S
H994 C982 0.960 . S
H995 C982 0.962 1_556 S
H996 C982 0.960 . S
H997 C983 0.961 . S
H998 C983 0.961 . S
H999 C983 0.961 . S
H1000 C984 0.931 . S
H1001 C989 0.930 . S
H1002 C990 0.956 . S
H1003 C990 0.961 . S
H1004 C990 0.961 . S
H1005 C991 0.958 . S
H1006 C991 0.961 1_655 S
H1007 C991 0.960 1_655 S
C1008 C1009 1.391 . S
C1008 C1010 1.394 . S
C1008 H1024 0.931 . S
C1009 C1008 1.391 . S
C1009 C1013 1.376 . S
C1010 C1008 1.394 . S
C1010 C1011 1.369 . S
C1010 C1014 1.531 . S
C1011 C1010 1.369 . S
C1011 C1012 1.410 . S
C1011 C1019 1.503 . S
C1012 C1011 1.410 . S
C1012 C1013 1.392 . S
C1012 C1015 1.511 . S
C1013 C1009 1.376 . S
C1013 C1012 1.392 . S
C1013 H1025 0.929 . S
C1014 C1010 1.531 . S
C1014 H1026 0.960 . S
C1014 H1027 0.962 . S
C1014 H1028 0.960 . S
C1015 C1012 1.511 . S
C1015 H1029 0.961 . S
C1015 H1030 0.961 . S
C1015 H1031 0.961 . S
C1016 C1017 1.370 . S
C1016 C1018 1.363 . S
C1016 H1032 0.931 . S
C1017 C1016 1.370 . S
C1017 C1021 1.408 . S
C1018 C1016 1.363 . S
C1018 C1019 1.370 . S
C1018 C1022 1.524 . S
C1019 C1011 1.503 . S
C1019 C1018 1.370 . S
C1019 C1020 1.403 . S
C1020 C1019 1.403 . S
C1020 C1021 1.404 . S
C1020 C1023 1.539 . S
C1021 C1017 1.408 . S
C1021 C1020 1.404 . S
C1021 H1033 0.930 . S
C1022 C1018 1.524 . S
C1022 H1034 0.956 . S
C1022 H1035 0.961 . S
C1022 H1036 0.961 . S
C1023 C1020 1.539 . S
C1023 H1037 0.958 . S
C1023 H1038 0.961 . S
C1023 H1039 0.960 . S
H1024 C1008 0.931 . S
H1025 C1013 0.929 . S
H1026 C1014 0.960 . S
H1027 C1014 0.962 . S
H1028 C1014 0.960 . S
H1029 C1015 0.961 . S
H1030 C1015 0.961 . S
H1031 C1015 0.961 . S
H1032 C1016 0.931 . S
H1033 C1021 0.930 . S
H1034 C1022 0.956 . S
H1035 C1022 0.961 . S
H1036 C1022 0.961 . S
H1037 C1023 0.958 . S
H1038 C1023 0.961 . S
H1039 C1023 0.960 . S
C1040 C1041 1.391 . S
C1040 C1042 1.394 . S
C1040 H1056 0.931 . S
C1041 C1040 1.391 . S
C1041 C1045 1.376 . S
C1042 C1040 1.394 . S
C1042 C1043 1.369 . S
C1042 C1046 1.531 . S
C1043 C1042 1.369 . S
C1043 C1044 1.410 . S
C1043 C1051 1.503 . S
C1044 C1043 1.410 . S
C1044 C1045 1.392 . S
C1044 C1047 1.511 . S
C1045 C1041 1.376 . S
C1045 C1044 1.392 . S
C1045 H1057 0.929 . S
C1046 C1042 1.531 . S
C1046 H1058 0.960 . S
C1046 H1059 0.962 . S
C1046 H1060 0.960 . S
C1047 C1044 1.511 . S
C1047 H1061 0.961 . S
C1047 H1062 0.961 . S
C1047 H1063 0.961 . S
C1048 C1049 1.370 . S
C1048 C1050 1.363 . S
C1048 H1064 0.931 . S
C1049 C1048 1.370 . S
C1049 C1053 1.408 . S
C1050 C1048 1.363 . S
C1050 C1051 1.370 . S
C1050 C1054 1.524 . S
C1051 C1043 1.503 . S
C1051 C1050 1.370 . S
C1051 C1052 1.403 . S
C1052 C1051 1.403 . S
C1052 C1053 1.404 . S
C1052 C1055 1.539 . S
C1053 C1049 1.408 . S
C1053 C1052 1.404 . S
C1053 H1065 0.930 . S
C1054 C1050 1.524 . S
C1054 H1066 0.956 . S
C1054 H1067 0.961 . S
C1054 H1068 0.961 . S
C1055 C1052 1.539 . S
C1055 H1069 0.958 . S
C1055 H1070 0.961 . S
C1055 H1071 0.960 . S
H1056 C1040 0.931 . S
H1057 C1045 0.929 . S
H1058 C1046 0.960 . S
H1059 C1046 0.962 . S
H1060 C1046 0.960 . S
H1061 C1047 0.961 . S
H1062 C1047 0.961 . S
H1063 C1047 0.961 . S
H1064 C1048 0.931 . S
H1065 C1053 0.930 . S
H1066 C1054 0.956 . S
H1067 C1054 0.961 . S
H1068 C1054 0.961 . S
H1069 C1055 0.958 . S
H1070 C1055 0.961 . S
H1071 C1055 0.960 . S
C1072 C1073 1.391 . S
C1072 C1074 1.394 . S
C1072 H1088 0.931 . S
C1073 C1072 1.391 . S
C1073 C1077 1.376 . S
C1074 C1072 1.394 . S
C1074 C1075 1.369 . S
C1074 C1078 1.531 . S
C1075 C1074 1.369 . S
C1075 C1076 1.410 . S
C1075 C1083 1.503 . S
C1076 C1075 1.410 . S
C1076 C1077 1.392 . S
C1076 C1079 1.511 . S
C1077 C1073 1.376 . S
C1077 C1076 1.392 . S
C1077 H1089 0.929 . S
C1078 C1074 1.531 . S
C1078 H1090 0.960 . S
C1078 H1091 0.962 . S
C1078 H1092 0.960 . S
C1079 C1076 1.511 . S
C1079 H1093 0.961 . S
C1079 H1094 0.961 . S
C1079 H1095 0.961 . S
C1080 C1081 1.370 . S
C1080 C1082 1.363 . S
C1080 H1096 0.931 . S
C1081 C1080 1.370 . S
C1081 C1085 1.408 . S
C1082 C1080 1.363 . S
C1082 C1083 1.370 . S
C1082 C1086 1.524 . S
C1083 C1075 1.503 . S
C1083 C1082 1.370 . S
C1083 C1084 1.403 . S
C1084 C1083 1.403 . S
C1084 C1085 1.404 . S
C1084 C1087 1.539 . S
C1085 C1081 1.408 . S
C1085 C1084 1.404 . S
C1085 H1097 0.930 . S
C1086 C1082 1.524 . S
C1086 H1098 0.956 . S
C1086 H1099 0.961 . S
C1086 H1100 0.961 . S
C1087 C1084 1.539 . S
C1087 H1101 0.958 . S
C1087 H1102 0.961 . S
C1087 H1103 0.960 . S
H1088 C1072 0.931 . S
H1089 C1077 0.929 . S
H1090 C1078 0.960 . S
H1091 C1078 0.962 . S
H1092 C1078 0.960 . S
H1093 C1079 0.961 . S
H1094 C1079 0.961 . S
H1095 C1079 0.961 . S
H1096 C1080 0.931 . S
H1097 C1085 0.930 . S
H1098 C1086 0.956 . S
H1099 C1086 0.961 . S
H1100 C1086 0.961 . S
H1101 C1087 0.958 . S
H1102 C1087 0.961 . S
H1103 C1087 0.960 . S
C1104 C1105 1.391 . S
C1104 C1106 1.394 . S
C1104 H1120 0.931 . S
C1105 C1104 1.391 . S
C1105 C1109 1.376 . S
C1106 C1104 1.394 . S
C1106 C1107 1.369 . S
C1106 C1110 1.531 . S
C1107 C1106 1.369 . S
C1107 C1108 1.410 . S
C1107 C1115 1.503 . S
C1108 C1107 1.410 . S
C1108 C1109 1.392 . S
C1108 C1111 1.511 . S
C1109 C1105 1.376 . S
C1109 C1108 1.392 . S
C1109 H1121 0.929 . S
C1110 C1106 1.531 . S
C1110 H1122 0.960 . S
C1110 H1123 0.962 . S
C1110 H1124 0.960 . S
C1111 C1108 1.511 . S
C1111 H1125 0.961 . S
C1111 H1126 0.961 . S
C1111 H1127 0.961 . S
C1112 C1113 1.370 . S
C1112 C1114 1.363 . S
C1112 H1128 0.931 . S
C1113 C1112 1.370 . S
C1113 C1117 1.408 . S
C1114 C1112 1.363 . S
C1114 C1115 1.370 . S
C1114 C1118 1.524 . S
C1115 C1107 1.503 . S
C1115 C1114 1.370 . S
C1115 C1116 1.403 . S
C1116 C1115 1.403 . S
C1116 C1117 1.404 . S
C1116 C1119 1.539 . S
C1117 C1113 1.408 . S
C1117 C1116 1.404 . S
C1117 H1129 0.930 . S
C1118 C1114 1.524 . S
C1118 H1130 0.956 . S
C1118 H1131 0.961 . S
C1118 H1132 0.961 . S
C1119 C1116 1.539 . S
C1119 H1133 0.958 . S
C1119 H1134 0.961 . S
C1119 H1135 0.960 . S
H1120 C1104 0.931 . S
H1121 C1109 0.929 . S
H1122 C1110 0.960 . S
H1123 C1110 0.962 . S
H1124 C1110 0.960 . S
H1125 C1111 0.961 . S
H1126 C1111 0.961 . S
H1127 C1111 0.961 . S
H1128 C1112 0.931 . S
H1129 C1117 0.930 . S
H1130 C1118 0.956 . S
H1131 C1118 0.961 . S
H1132 C1118 0.961 . S
H1133 C1119 0.958 . S
H1134 C1119 0.961 . S
H1135 C1119 0.960 . S
C1136 C1137 1.391 . S
C1136 C1138 1.394 . S
C1136 H1152 0.931 . S
C1137 C1136 1.391 . S
C1137 C1141 1.376 . S
C1138 C1136 1.394 . S
C1138 C1139 1.369 . S
C1138 C1142 1.531 . S
C1139 C1138 1.369 . S
C1139 C1140 1.410 . S
C1139 C1147 1.503 . S
C1140 C1139 1.410 . S
C1140 C1141 1.392 . S
C1140 C1143 1.511 . S
C1141 C1137 1.376 . S
C1141 C1140 1.392 . S
C1141 H1153 0.929 . S
C1142 C1138 1.531 . S
C1142 H1154 0.960 . S
C1142 H1155 0.962 . S
C1142 H1156 0.960 . S
C1143 C1140 1.511 . S
C1143 H1157 0.961 . S
C1143 H1158 0.961 . S
C1143 H1159 0.961 . S
C1144 C1145 1.370 . S
C1144 C1146 1.363 . S
C1144 H1160 0.931 . S
C1145 C1144 1.370 . S
C1145 C1149 1.408 . S
C1146 C1144 1.363 . S
C1146 C1147 1.370 . S
C1146 C1150 1.524 . S
C1147 C1139 1.503 . S
C1147 C1146 1.370 . S
C1147 C1148 1.403 . S
C1148 C1147 1.403 . S
C1148 C1149 1.404 . S
C1148 C1151 1.539 . S
C1149 C1145 1.408 . S
C1149 C1148 1.404 . S
C1149 H1161 0.930 . S
C1150 C1146 1.524 . S
C1150 H1162 0.956 . S
C1150 H1163 0.961 . S
C1150 H1164 0.961 . S
C1151 C1148 1.539 . S
C1151 H1165 0.958 . S
C1151 H1166 0.961 . S
C1151 H1167 0.960 . S
H1152 C1136 0.931 . S
H1153 C1141 0.929 . S
H1154 C1142 0.960 . S
H1155 C1142 0.962 . S
H1156 C1142 0.960 . S
H1157 C1143 0.961 . S
H1158 C1143 0.961 . S
H1159 C1143 0.961 . S
H1160 C1144 0.931 . S
H1161 C1149 0.930 . S
H1162 C1150 0.956 . S
H1163 C1150 0.961 . S
H1164 C1150 0.961 . S
H1165 C1151 0.958 . S
H1166 C1151 0.961 . S
H1167 C1151 0.960 . S
C1168 C1169 1.391 . S
C1168 C1170 1.394 . S
C1168 H1184 0.931 . S
C1169 C1168 1.391 . S
C1169 C1173 1.376 . S
C1170 C1168 1.394 . S
C1170 C1171 1.369 . S
C1170 C1174 1.531 . S
C1171 C1170 1.369 . S
C1171 C1172 1.410 . S
C1171 C1179 1.503 . S
C1172 C1171 1.410 . S
C1172 C1173 1.392 . S
C1172 C1175 1.511 . S
C1173 C1169 1.376 . S
C1173 C1172 1.392 . S
C1173 H1185 0.929 . S
C1174 C1170 1.531 . S
C1174 H1186 0.960 . S
C1174 H1187 0.962 . S
C1174 H1188 0.960 . S
C1175 C1172 1.511 . S
C1175 H1189 0.961 . S
C1175 H1190 0.961 . S
C1175 H1191 0.961 . S
C1176 C1177 1.370 . S
C1176 C1178 1.363 . S
C1176 H1192 0.931 . S
C1177 C1176 1.370 . S
C1177 C1181 1.408 . S
C1178 C1176 1.363 . S
C1178 C1179 1.370 . S
C1178 C1182 1.524 . S
C1179 C1171 1.503 . S
C1179 C1178 1.370 . S
C1179 C1180 1.403 . S
C1180 C1179 1.403 . S
C1180 C1181 1.404 . S
C1180 C1183 1.539 . S
C1181 C1177 1.408 . S
C1181 C1180 1.404 . S
C1181 H1193 0.930 . S
C1182 C1178 1.524 . S
C1182 H1194 0.956 . S
C1182 H1195 0.961 . S
C1182 H1196 0.961 . S
C1183 C1180 1.539 . S
C1183 H1197 0.958 . S
C1183 H1198 0.961 . S
C1183 H1199 0.960 . S
H1184 C1168 0.931 . S
H1185 C1173 0.929 . S
H1186 C1174 0.960 . S
H1187 C1174 0.962 . S
H1188 C1174 0.960 . S
H1189 C1175 0.961 . S
H1190 C1175 0.961 . S
H1191 C1175 0.961 . S
H1192 C1176 0.931 . S
H1193 C1181 0.930 . S
H1194 C1182 0.956 . S
H1195 C1182 0.961 . S
H1196 C1182 0.961 . S
H1197 C1183 0.958 . S
H1198 C1183 0.961 . S
H1199 C1183 0.960 . S
C1200 C1201 1.391 . S
C1200 C1202 1.394 . S
C1200 H1216 0.931 . S
C1201 C1200 1.391 . S
C1201 C1205 1.376 . S
C1202 C1200 1.394 . S
C1202 C1203 1.369 . S
C1202 C1206 1.531 . S
C1203 C1202 1.369 . S
C1203 C1204 1.410 . S
C1203 C1211 1.503 . S
C1204 C1203 1.410 . S
C1204 C1205 1.392 . S
C1204 C1207 1.511 . S
C1205 C1201 1.376 . S
C1205 C1204 1.392 . S
C1205 H1217 0.929 . S
C1206 C1202 1.531 . S
C1206 H1218 0.960 . S
C1206 H1219 0.962 . S
C1206 H1220 0.960 . S
C1207 C1204 1.511 . S
C1207 H1221 0.961 . S
C1207 H1222 0.961 . S
C1207 H1223 0.961 . S
C1208 C1209 1.370 . S
C1208 C1210 1.363 . S
C1208 H1224 0.931 . S
C1209 C1208 1.370 . S
C1209 C1213 1.408 . S
C1210 C1208 1.363 . S
C1210 C1211 1.370 . S
C1210 C1214 1.524 . S
C1211 C1203 1.503 . S
C1211 C1210 1.370 . S
C1211 C1212 1.403 . S
C1212 C1211 1.403 . S
C1212 C1213 1.404 . S
C1212 C1215 1.539 . S
C1213 C1209 1.408 . S
C1213 C1212 1.404 . S
C1213 H1225 0.930 . S
C1214 C1210 1.524 . S
C1214 H1226 0.956 . S
C1214 H1227 0.961 . S
C1214 H1228 0.961 . S
C1215 C1212 1.539 . S
C1215 H1229 0.958 . S
C1215 H1230 0.961 . S
C1215 H1231 0.960 . S
H1216 C1200 0.931 . S
H1217 C1205 0.929 . S
H1218 C1206 0.960 . S
H1219 C1206 0.962 . S
H1220 C1206 0.960 . S
H1221 C1207 0.961 . S
H1222 C1207 0.961 . S
H1223 C1207 0.961 . S
H1224 C1208 0.931 . S
H1225 C1213 0.930 . S
H1226 C1214 0.956 . S
H1227 C1214 0.961 . S
H1228 C1214 0.961 . S
H1229 C1215 0.958 . S
H1230 C1215 0.961 . S
H1231 C1215 0.960 . S
C1232 C1233 1.391 . S
C1232 C1234 1.394 . S
C1232 H1248 0.931 . S
C1233 C1232 1.391 . S
C1233 C1237 1.376 1_545 S
C1234 C1232 1.394 . S
C1234 C1235 1.369 . S
C1234 C1238 1.531 . S
C1235 C1234 1.369 . S
C1235 C1236 1.410 . S
C1235 C1243 1.503 . S
C1236 C1235 1.410 . S
C1236 C1237 1.392 1_545 S
C1236 C1239 1.511 1_545 S
C1237 C1233 1.376 1_565 S
C1237 C1236 1.392 1_565 S
C1237 H1249 0.929 . S
C1238 C1234 1.531 . S
C1238 H1250 0.960 . S
C1238 H1251 0.962 . S
C1238 H1252 0.960 . S
C1239 C1236 1.511 1_565 S
C1239 H1253 0.961 . S
C1239 H1254 0.961 . S
C1239 H1255 0.961 1_665 S
C1240 C1241 1.370 . S
C1240 C1242 1.363 1_455 S
C1240 H1256 0.931 1_455 S
C1241 C1240 1.370 . S
C1241 C1245 1.408 . S
C1242 C1240 1.363 1_655 S
C1242 C1243 1.370 . S
C1242 C1246 1.524 . S
C1243 C1235 1.503 . S
C1243 C1242 1.370 . S
C1243 C1244 1.403 1_655 S
C1244 C1243 1.403 1_455 S
C1244 C1245 1.404 . S
C1244 C1247 1.539 . S
C1245 C1241 1.408 . S
C1245 C1244 1.404 . S
C1245 H1257 0.930 . S
C1246 C1242 1.524 . S
C1246 H1258 0.956 . S
C1246 H1259 0.961 1_545 S
C1246 H1260 0.961 . S
C1247 C1244 1.539 . S
C1247 H1261 0.958 . S
C1247 H1262 0.961 . S
C1247 H1263 0.960 . S
H1248 C1232 0.931 . S
H1249 C1237 0.929 . S
H1250 C1238 0.960 . S
H1251 C1238 0.962 . S
H1252 C1238 0.960 . S
H1253 C1239 0.961 . S
H1254 C1239 0.961 . S
H1255 C1239 0.961 1_445 S
H1256 C1240 0.931 1_655 S
H1257 C1245 0.930 . S
H1258 C1246 0.956 . S
H1259 C1246 0.961 1_565 S
H1260 C1246 0.961 . S
H1261 C1247 0.958 . S
H1262 C1247 0.961 . S
H1263 C1247 0.960 . S
C1264 C1265 1.391 . S
C1264 C1266 1.394 . S
C1264 H1280 0.931 . S
C1265 C1264 1.391 . S
C1265 C1269 1.376 . S
C1266 C1264 1.394 . S
C1266 C1267 1.369 . S
C1266 C1270 1.531 . S
C1267 C1266 1.369 . S
C1267 C1268 1.410 . S
C1267 C1275 1.503 . S
C1268 C1267 1.410 . S
C1268 C1269 1.392 . S
C1268 C1271 1.511 . S
C1269 C1265 1.376 . S
C1269 C1268 1.392 . S
C1269 H1281 0.929 . S
C1270 C1266 1.531 . S
C1270 H1282 0.960 . S
C1270 H1283 0.962 . S
C1270 H1284 0.960 . S
C1271 C1268 1.511 . S
C1271 H1285 0.961 . S
C1271 H1286 0.961 . S
C1271 H1287 0.961 . S
C1272 C1273 1.370 . S
C1272 C1274 1.363 . S
C1272 H1288 0.931 . S
C1273 C1272 1.370 . S
C1273 C1277 1.408 . S
C1274 C1272 1.363 . S
C1274 C1275 1.370 . S
C1274 C1278 1.524 . S
C1275 C1267 1.503 . S
C1275 C1274 1.370 . S
C1275 C1276 1.403 . S
C1276 C1275 1.403 . S
C1276 C1277 1.404 . S
C1276 C1279 1.539 . S
C1277 C1273 1.408 . S
C1277 C1276 1.404 . S
C1277 H1289 0.930 . S
C1278 C1274 1.524 . S
C1278 H1290 0.956 . S
C1278 H1291 0.961 . S
C1278 H1292 0.961 . S
C1279 C1276 1.539 . S
C1279 H1293 0.958 . S
C1279 H1294 0.961 . S
C1279 H1295 0.960 . S
H1280 C1264 0.931 . S
H1281 C1269 0.929 . S
H1282 C1270 0.960 . S
H1283 C1270 0.962 . S
H1284 C1270 0.960 . S
H1285 C1271 0.961 . S
H1286 C1271 0.961 . S
H1287 C1271 0.961 . S
H1288 C1272 0.931 . S
H1289 C1277 0.930 . S
H1290 C1278 0.956 . S
H1291 C1278 0.961 . S
H1292 C1278 0.961 . S
H1293 C1279 0.958 . S
H1294 C1279 0.961 . S
H1295 C1279 0.960 . S
C1296 C1297 1.391 . S
C1296 C1298 1.394 . S
C1296 H1312 0.931 . S
C1297 C1296 1.391 . S
C1297 C1301 1.376 . S
C1298 C1296 1.394 . S
C1298 C1299 1.369 . S
C1298 C1302 1.531 . S
C1299 C1298 1.369 . S
C1299 C1300 1.410 . S
C1299 C1307 1.503 . S
C1300 C1299 1.410 . S
C1300 C1301 1.392 . S
C1300 C1303 1.511 . S
C1301 C1297 1.376 . S
C1301 C1300 1.392 . S
C1301 H1313 0.929 . S
C1302 C1298 1.531 . S
C1302 H1314 0.960 . S
C1302 H1315 0.939 1_545 S
C1302 H1316 0.960 . S
C1303 C1300 1.511 . S
C1303 H1317 0.961 . S
C1303 H1318 0.961 . S
C1303 H1319 0.961 . S
C1304 C1305 1.370 . S
C1304 C1306 1.363 . S
C1304 H1320 0.931 1_545 S
C1305 C1304 1.370 . S
C1305 C1309 1.408 . S
C1306 C1304 1.363 . S
C1306 C1307 1.370 . S
C1306 C1310 1.524 1_545 S
C1307 C1299 1.503 . S
C1307 C1306 1.370 . S
C1307 C1308 1.403 . S
C1308 C1307 1.403 . S
C1308 C1309 1.404 . S
C1308 C1311 1.539 . S
C1309 C1305 1.408 . S
C1309 C1308 1.404 . S
C1309 H1321 0.930 . S
C1310 C1306 1.524 1_565 S
C1310 H1322 0.956 . S
C1310 H1323 0.961 1_565 S
C1310 H1324 0.961 . S
C1311 C1308 1.539 . S
C1311 H1325 0.958 . S
C1311 H1326 0.961 . S
C1311 H1327 0.960 . S
H1312 C1296 0.931 . S
H1313 C1301 0.929 . S
H1314 C1302 0.960 . S
H1315 C1302 0.939 1_565 S
H1316 C1302 0.960 . S
H1317 C1303 0.961 . S
H1318 C1303 0.961 . S
H1319 C1303 0.961 . S
H1320 C1304 0.931 1_565 S
H1321 C1309 0.930 . S
H1322 C1310 0.956 . S
H1323 C1310 0.961 1_545 S
H1324 C1310 0.961 . S
H1325 C1311 0.958 . S
H1326 C1311 0.961 . S
H1327 C1311 0.960 . S
C1328 C1329 1.391 . S
C1328 C1330 1.394 . S
C1328 H1344 0.931 . S
C1329 C1328 1.391 . S
C1329 C1333 1.376 . S
C1330 C1328 1.394 . S
C1330 C1331 1.369 . S
C1330 C1334 1.531 . S
C1331 C1330 1.369 . S
C1331 C1332 1.410 . S
C1331 C1339 1.503 . S
C1332 C1331 1.410 . S
C1332 C1333 1.392 . S
C1332 C1335 1.511 . S
C1333 C1329 1.376 . S
C1333 C1332 1.392 . S
C1333 H1345 0.929 . S
C1334 C1330 1.531 . S
C1334 H1346 0.960 . S
C1334 H1347 0.962 . S
C1334 H1348 0.960 . S
C1335 C1332 1.511 . S
C1335 H1349 0.961 . S
C1335 H1350 0.961 . S
C1335 H1351 0.961 . S
C1336 C1337 1.370 . S
C1336 C1338 1.363 . S
C1336 H1352 0.931 . S
C1337 C1336 1.370 . S
C1337 C1341 1.408 . S
C1338 C1336 1.363 . S
C1338 C1339 1.370 . S
C1338 C1342 1.524 . S
C1339 C1331 1.503 . S
C1339 C1338 1.370 . S
C1339 C1340 1.403 . S
C1340 C1339 1.403 . S
C1340 C1341 1.404 . S
C1340 C1343 1.539 . S
C1341 C1337 1.408 . S
C1341 C1340 1.404 . S
C1341 H1353 0.930 . S
C1342 C1338 1.524 . S
C1342 H1354 0.956 . S
C1342 H1355 0.961 . S
C1342 H1356 0.961 . S
C1343 C1340 1.539 . S
C1343 H1357 0.958 . S
C1343 H1358 0.961 . S
C1343 H1359 0.960 . S
H1344 C1328 0.931 . S
H1345 C1333 0.929 . S
H1346 C1334 0.960 . S
H1347 C1334 0.962 . S
H1348 C1334 0.960 . S
H1349 C1335 0.961 . S
H1350 C1335 0.961 . S
H1351 C1335 0.961 . S
H1352 C1336 0.931 . S
H1353 C1341 0.930 . S
H1354 C1342 0.956 . S
H1355 C1342 0.961 . S
H1356 C1342 0.961 . S
H1357 C1343 0.958 . S
H1358 C1343 0.961 . S
H1359 C1343 0.960 . S
C1360 C1361 1.391 . S
C1360 C1362 1.394 . S
C1360 H1376 0.931 . S
C1361 C1360 1.391 . S
C1361 C1365 1.376 . S
C1362 C1360 1.394 . S
C1362 C1363 1.369 . S
C1362 C1366 1.530 . S
C1363 C1362 1.369 . S
C1363 C1364 1.410 . S
C1363 C1371 1.503 . S
C1364 C1363 1.410 . S
C1364 C1365 1.392 . S
C1364 C1367 1.511 . S
C1365 C1361 1.376 . S
C1365 C1364 1.392 . S
C1365 H1377 0.929 . S
C1366 C1362 1.530 . S
C1366 H1378 0.947 1_545 S
C1366 H1379 0.978 . S
C1366 H1380 0.958 1_545 S
C1367 C1364 1.511 . S
C1367 H1381 0.961 1_655 S
C1367 H1382 0.961 1_655 S
C1367 H1383 0.961 1_545 S
C1368 C1369 1.370 . S
C1368 C1370 1.363 1_455 S
C1368 H1384 0.931 . S
C1369 C1368 1.370 . S
C1369 C1373 1.408 1_445 S
C1370 C1368 1.363 1_655 S
C1370 C1371 1.370 . S
C1370 C1374 1.524 . S
C1371 C1363 1.503 . S
C1371 C1370 1.370 . S
C1371 C1372 1.403 1_545 S
C1372 C1371 1.403 1_565 S
C1372 C1373 1.404 . S
C1372 C1375 1.539 . S
C1373 C1369 1.408 1_665 S
C1373 C1372 1.404 . S
C1373 H1385 0.930 . S
C1374 C1370 1.524 . S
C1374 H1386 0.956 . S
C1374 H1387 0.961 . S
C1374 H1388 0.961 . S
C1375 C1372 1.539 . S
C1375 H1389 0.958 . S
C1375 H1390 0.961 . S
C1375 H1391 0.960 . S
H1376 C1360 0.931 . S
H1377 C1365 0.929 . S
H1378 C1366 0.947 1_565 S
H1379 C1366 0.978 . S
H1380 C1366 0.958 1_565 S
H1381 C1367 0.961 1_455 S
H1382 C1367 0.961 1_455 S
H1383 C1367 0.961 1_565 S
H1384 C1368 0.931 . S
H1385 C1373 0.930 . S
H1386 C1374 0.956 . S
H1387 C1374 0.961 . S
H1388 C1374 0.961 . S
H1389 C1375 0.958 . S
H1390 C1375 0.961 . S
H1391 C1375 0.960 . S
C1392 C1393 1.391 . S
C1392 C1394 1.394 . S
C1392 H1408 0.931 . S
C1393 C1392 1.391 . S
C1393 C1397 1.376 . S
C1394 C1392 1.394 . S
C1394 C1395 1.369 . S
C1394 C1398 1.531 . S
C1395 C1394 1.369 . S
C1395 C1396 1.410 . S
C1395 C1403 1.503 . S
C1396 C1395 1.410 . S
C1396 C1397 1.392 . S
C1396 C1399 1.511 . S
C1397 C1393 1.376 . S
C1397 C1396 1.392 . S
C1397 H1409 0.929 . S
C1398 C1394 1.531 . S
C1398 H1410 0.960 . S
C1398 H1411 0.962 . S
C1398 H1412 0.960 . S
C1399 C1396 1.511 . S
C1399 H1413 0.961 . S
C1399 H1414 0.961 . S
C1399 H1415 0.961 . S
C1400 C1401 1.370 . S
C1400 C1402 1.363 . S
C1400 H1416 0.931 . S
C1401 C1400 1.370 . S
C1401 C1405 1.408 . S
C1402 C1400 1.363 . S
C1402 C1403 1.370 . S
C1402 C1406 1.524 . S
C1403 C1395 1.503 . S
C1403 C1402 1.370 . S
C1403 C1404 1.403 . S
C1404 C1403 1.403 . S
C1404 C1405 1.404 . S
C1404 C1407 1.539 . S
C1405 C1401 1.408 . S
C1405 C1404 1.404 . S
C1405 H1417 0.930 . S
C1406 C1402 1.524 . S
C1406 H1418 0.956 . S
C1406 H1419 0.961 . S
C1406 H1420 0.961 . S
C1407 C1404 1.539 . S
C1407 H1421 0.958 . S
C1407 H1422 0.961 . S
C1407 H1423 0.960 . S
H1408 C1392 0.931 . S
H1409 C1397 0.929 . S
H1410 C1398 0.960 . S
H1411 C1398 0.962 . S
H1412 C1398 0.960 . S
H1413 C1399 0.961 . S
H1414 C1399 0.961 . S
H1415 C1399 0.961 . S
H1416 C1400 0.931 . S
H1417 C1405 0.930 . S
H1418 C1406 0.956 . S
H1419 C1406 0.961 . S
H1420 C1406 0.961 . S
H1421 C1407 0.958 . S
H1422 C1407 0.961 . S
H1423 C1407 0.960 . S
C1424 C1425 1.391 . S
C1424 C1426 1.394 . S
C1424 H1440 0.931 . S
C1425 C1424 1.391 . S
C1425 C1429 1.376 . S
C1426 C1424 1.394 . S
C1426 C1427 1.369 . S
C1426 C1430 1.531 . S
C1427 C1426 1.369 . S
C1427 C1428 1.410 . S
C1427 C1435 1.503 . S
C1428 C1427 1.410 . S
C1428 C1429 1.392 . S
C1428 C1431 1.511 . S
C1429 C1425 1.376 . S
C1429 C1428 1.392 . S
C1429 H1441 0.929 . S
C1430 C1426 1.531 . S
C1430 H1442 0.960 . S
C1430 H1443 0.962 . S
C1430 H1444 0.960 1_545 S
C1431 C1428 1.511 . S
C1431 H1445 0.961 . S
C1431 H1446 0.961 . S
C1431 H1447 0.961 . S
C1432 C1433 1.370 . S
C1432 C1434 1.363 . S
C1432 H1448 0.931 . S
C1433 C1432 1.370 . S
C1433 C1437 1.408 . S
C1434 C1432 1.363 . S
C1434 C1435 1.370 . S
C1434 C1438 1.524 . S
C1435 C1427 1.503 . S
C1435 C1434 1.370 . S
C1435 C1436 1.403 . S
C1436 C1435 1.403 . S
C1436 C1437 1.404 . S
C1436 C1439 1.537 1_545 S
C1437 C1433 1.408 . S
C1437 C1436 1.404 . S
C1437 H1449 0.930 . S
C1438 C1434 1.524 . S
C1438 H1450 0.956 . S
C1438 H1451 0.961 . S
C1438 H1452 0.961 . S
C1439 C1436 1.537 1_565 S
C1439 H1453 0.960 . S
C1439 H1454 0.963 . S
C1439 H1455 0.959 1_565 S
H1440 C1424 0.931 . S
H1441 C1429 0.929 . S
H1442 C1430 0.960 . S
H1443 C1430 0.962 . S
H1444 C1430 0.960 1_565 S
H1445 C1431 0.961 . S
H1446 C1431 0.961 . S
H1447 C1431 0.961 . S
H1448 C1432 0.931 . S
H1449 C1437 0.930 . S
H1450 C1438 0.956 . S
H1451 C1438 0.961 . S
H1452 C1438 0.961 . S
H1453 C1439 0.960 . S
H1454 C1439 0.963 . S
H1455 C1439 0.959 1_545 S
C1456 C1457 1.391 . S
C1456 C1458 1.394 . S
C1456 H1472 0.931 . S
C1457 C1456 1.391 . S
C1457 C1461 1.376 . S
C1458 C1456 1.394 . S
C1458 C1459 1.369 . S
C1458 C1462 1.531 . S
C1459 C1458 1.369 . S
C1459 C1460 1.410 . S
C1459 C1467 1.503 . S
C1460 C1459 1.410 . S
C1460 C1461 1.392 . S
C1460 C1463 1.511 . S
C1461 C1457 1.376 . S
C1461 C1460 1.392 . S
C1461 H1473 0.929 . S
C1462 C1458 1.531 . S
C1462 H1474 0.960 . S
C1462 H1475 0.962 . S
C1462 H1476 0.960 . S
C1463 C1460 1.511 . S
C1463 H1477 0.961 . S
C1463 H1478 0.961 . S
C1463 H1479 0.961 . S
C1464 C1465 1.370 . S
C1464 C1466 1.363 . S
C1464 H1480 0.931 . S
C1465 C1464 1.370 . S
C1465 C1469 1.408 . S
C1466 C1464 1.363 . S
C1466 C1467 1.370 . S
C1466 C1470 1.524 . S
C1467 C1459 1.503 . S
C1467 C1466 1.370 . S
C1467 C1468 1.403 . S
C1468 C1467 1.403 . S
C1468 C1469 1.404 . S
C1468 C1471 1.539 . S
C1469 C1465 1.408 . S
C1469 C1468 1.404 . S
C1469 H1481 0.930 . S
C1470 C1466 1.524 . S
C1470 H1482 0.956 . S
C1470 H1483 0.961 . S
C1470 H1484 0.961 . S
C1471 C1468 1.539 . S
C1471 H1485 0.958 . S
C1471 H1486 0.961 . S
C1471 H1487 0.960 . S
H1472 C1456 0.931 . S
H1473 C1461 0.929 . S
H1474 C1462 0.960 . S
H1475 C1462 0.962 . S
H1476 C1462 0.960 . S
H1477 C1463 0.961 . S
H1478 C1463 0.961 . S
H1479 C1463 0.961 . S
H1480 C1464 0.931 . S
H1481 C1469 0.930 . S
H1482 C1470 0.956 . S
H1483 C1470 0.961 . S
H1484 C1470 0.961 . S
H1485 C1471 0.958 . S
H1486 C1471 0.961 . S
H1487 C1471 0.960 . S
C1488 C1489 1.391 . S
C1488 C1490 1.394 . S
C1488 H1504 0.931 . S
C1489 C1488 1.391 . S
C1489 C1493 1.376 . S
C1490 C1488 1.394 . S
C1490 C1491 1.369 . S
C1490 C1494 1.531 . S
C1491 C1490 1.369 . S
C1491 C1492 1.415 . S
C1491 C1499 1.503 1_565 S
C1492 C1491 1.415 . S
C1492 C1493 1.406 . S
C1492 C1495 1.492 1_565 S
C1493 C1489 1.376 . S
C1493 C1492 1.406 . S
C1493 H1505 0.958 . S
C1494 C1490 1.531 . S
C1494 H1506 0.960 . S
C1494 H1507 0.962 . S
C1494 H1508 0.960 . S
C1495 C1492 1.492 1_545 S
C1495 H1509 0.961 . S
C1495 H1510 0.961 . S
C1495 H1511 0.961 . S
C1496 C1497 1.370 . S
C1496 C1498 1.363 1_545 S
C1496 H1512 0.931 . S
C1497 C1496 1.370 . S
C1497 C1501 1.408 . S
C1498 C1496 1.363 1_565 S
C1498 C1499 1.370 1_565 S
C1498 C1502 1.524 . S
C1499 C1491 1.503 1_545 S
C1499 C1498 1.370 1_545 S
C1499 C1500 1.403 . S
C1500 C1499 1.403 . S
C1500 C1501 1.404 . S
C1500 C1503 1.539 . S
C1501 C1497 1.408 . S
C1501 C1500 1.404 . S
C1501 H1513 0.930 . S
C1502 C1498 1.524 . S
C1502 H1514 0.956 . S
C1502 H1515 0.961 . S
C1502 H1516 0.961 . S
C1503 C1500 1.539 . S
C1503 H1517 0.958 . S
C1503 H1518 0.961 . S
C1503 H1519 0.960 . S
H1504 C1488 0.931 . S
H1505 C1493 0.958 . S
H1506 C1494 0.960 . S
H1507 C1494 0.962 . S
H1508 C1494 0.960 . S
H1509 C1495 0.961 . S
H1510 C1495 0.961 . S
H1511 C1495 0.961 . S
H1512 C1496 0.931 . S
H1513 C1501 0.930 . S
H1514 C1502 0.956 . S
H1515 C1502 0.961 . S
H1516 C1502 0.961 . S
H1517 C1503 0.958 . S
H1518 C1503 0.961 . S
H1519 C1503 0.960 . S
C1520 C1521 1.391 . S
C1520 C1522 1.394 . S
C1520 H1536 0.931 . S
C1521 C1520 1.391 . S
C1521 C1525 1.376 . S
C1522 C1520 1.394 . S
C1522 C1523 1.369 . S
C1522 C1526 1.531 . S
C1523 C1522 1.369 . S
C1523 C1524 1.410 . S
C1523 C1531 1.503 . S
C1524 C1523 1.410 . S
C1524 C1525 1.392 . S
C1524 C1527 1.511 . S
C1525 C1521 1.376 . S
C1525 C1524 1.392 . S
C1525 H1537 0.929 . S
C1526 C1522 1.531 . S
C1526 H1538 0.960 . S
C1526 H1539 0.962 . S
C1526 H1540 0.960 . S
C1527 C1524 1.511 . S
C1527 H1541 0.961 . S
C1527 H1542 0.961 . S
C1527 H1543 0.961 . S
C1528 C1529 1.370 . S
C1528 C1530 1.363 . S
C1528 H1544 0.931 . S
C1529 C1528 1.370 . S
C1529 C1533 1.408 . S
C1530 C1528 1.363 . S
C1530 C1531 1.370 . S
C1530 C1534 1.524 . S
C1531 C1523 1.503 . S
C1531 C1530 1.370 . S
C1531 C1532 1.403 . S
C1532 C1531 1.403 . S
C1532 C1533 1.404 . S
C1532 C1535 1.539 . S
C1533 C1529 1.408 . S
C1533 C1532 1.404 . S
C1533 H1545 0.930 . S
C1534 C1530 1.524 . S
C1534 H1546 0.956 . S
C1534 H1547 0.961 . S
C1534 H1548 0.961 . S
C1535 C1532 1.539 . S
C1535 H1549 0.958 1_554 S
C1535 H1550 0.961 1_554 S
C1535 H1551 0.960 . S
H1536 C1520 0.931 . S
H1537 C1525 0.929 . S
H1538 C1526 0.960 . S
H1539 C1526 0.962 . S
H1540 C1526 0.960 . S
H1541 C1527 0.961 . S
H1542 C1527 0.961 . S
H1543 C1527 0.961 . S
H1544 C1528 0.931 . S
H1545 C1533 0.930 . S
H1546 C1534 0.956 . S
H1547 C1534 0.961 . S
H1548 C1534 0.961 . S
H1549 C1535 0.958 1_556 S
H1550 C1535 0.961 1_556 S
H1551 C1535 0.960 . S
C1552 C1553 1.391 . S
C1552 C1554 1.394 . S
C1552 H1568 0.931 . S
C1553 C1552 1.391 . S
C1553 C1557 1.376 . S
C1554 C1552 1.394 . S
C1554 C1555 1.369 . S
C1554 C1558 1.531 . S
C1555 C1554 1.369 . S
C1555 C1556 1.410 . S
C1555 C1563 1.503 . S
C1556 C1555 1.410 . S
C1556 C1557 1.392 . S
C1556 C1559 1.511 . S
C1557 C1553 1.376 . S
C1557 C1556 1.392 . S
C1557 H1569 0.929 . S
C1558 C1554 1.531 . S
C1558 H1570 0.960 . S
C1558 H1571 0.962 . S
C1558 H1572 0.960 . S
C1559 C1556 1.511 . S
C1559 H1573 0.961 . S
C1559 H1574 0.961 . S
C1559 H1575 0.961 . S
C1560 C1561 1.370 . S
C1560 C1562 1.363 . S
C1560 H1576 0.931 . S
C1561 C1560 1.370 . S
C1561 C1565 1.408 . S
C1562 C1560 1.363 . S
C1562 C1563 1.370 . S
C1562 C1566 1.524 . S
C1563 C1555 1.503 . S
C1563 C1562 1.370 . S
C1563 C1564 1.403 . S
C1564 C1563 1.403 . S
C1564 C1565 1.404 . S
C1564 C1567 1.539 . S
C1565 C1561 1.408 . S
C1565 C1564 1.404 . S
C1565 H1577 0.930 . S
C1566 C1562 1.524 . S
C1566 H1578 0.956 . S
C1566 H1579 0.961 . S
C1566 H1580 0.961 . S
C1567 C1564 1.539 . S
C1567 H1581 0.958 . S
C1567 H1582 0.961 . S
C1567 H1583 0.960 . S
H1568 C1552 0.931 . S
H1569 C1557 0.929 . S
H1570 C1558 0.960 . S
H1571 C1558 0.962 . S
H1572 C1558 0.960 . S
H1573 C1559 0.961 . S
H1574 C1559 0.961 . S
H1575 C1559 0.961 . S
H1576 C1560 0.931 . S
H1577 C1565 0.930 . S
H1578 C1566 0.956 . S
H1579 C1566 0.961 . S
H1580 C1566 0.961 . S
H1581 C1567 0.958 . S
H1582 C1567 0.961 . S
H1583 C1567 0.960 . S
C1584 C1585 1.391 . S
C1584 C1586 1.394 . S
C1584 H1600 0.931 . S
C1585 C1584 1.391 . S
C1585 C1589 1.376 . S
C1586 C1584 1.394 . S
C1586 C1587 1.369 . S
C1586 C1590 1.531 . S
C1587 C1586 1.369 . S
C1587 C1588 1.410 . S
C1587 C1595 1.503 . S
C1588 C1587 1.410 . S
C1588 C1589 1.392 . S
C1588 C1591 1.511 . S
C1589 C1585 1.376 . S
C1589 C1588 1.392 . S
C1589 H1601 0.929 . S
C1590 C1586 1.531 . S
C1590 H1602 0.960 . S
C1590 H1603 0.962 . S
C1590 H1604 0.960 . S
C1591 C1588 1.511 . S
C1591 H1605 0.961 . S
C1591 H1606 0.961 . S
C1591 H1607 0.961 . S
C1592 C1593 1.370 . S
C1592 C1594 1.363 . S
C1592 H1608 0.931 . S
C1593 C1592 1.370 . S
C1593 C1597 1.408 . S
C1594 C1592 1.363 . S
C1594 C1595 1.370 . S
C1594 C1598 1.524 . S
C1595 C1587 1.503 . S
C1595 C1594 1.370 . S
C1595 C1596 1.403 . S
C1596 C1595 1.403 . S
C1596 C1597 1.404 . S
C1596 C1599 1.539 . S
C1597 C1593 1.408 . S
C1597 C1596 1.404 . S
C1597 H1609 0.930 . S
C1598 C1594 1.524 . S
C1598 H1610 0.956 . S
C1598 H1611 0.961 . S
C1598 H1612 0.961 . S
C1599 C1596 1.539 . S
C1599 H1613 0.958 . S
C1599 H1614 0.961 . S
C1599 H1615 0.960 . S
H1600 C1584 0.931 . S
H1601 C1589 0.929 . S
H1602 C1590 0.960 . S
H1603 C1590 0.962 . S
H1604 C1590 0.960 . S
H1605 C1591 0.961 . S
H1606 C1591 0.961 . S
H1607 C1591 0.961 . S
H1608 C1592 0.931 . S
H1609 C1597 0.930 . S
H1610 C1598 0.956 . S
H1611 C1598 0.961 . S
H1612 C1598 0.961 . S
H1613 C1599 0.958 . S
H1614 C1599 0.961 . S
H1615 C1599 0.960 . S
C1616 C1617 1.391 . S
C1616 C1618 1.394 . S
C1616 H1632 0.931 . S
C1617 C1616 1.391 . S
C1617 C1621 1.376 . S
C1618 C1616 1.394 . S
C1618 C1619 1.369 . S
C1618 C1622 1.531 . S
C1619 C1618 1.369 . S
C1619 C1620 1.410 . S
C1619 C1627 1.503 . S
C1620 C1619 1.410 . S
C1620 C1621 1.392 . S
C1620 C1623 1.511 . S
C1621 C1617 1.376 . S
C1621 C1620 1.392 . S
C1621 H1633 0.929 . S
C1622 C1618 1.531 . S
C1622 H1634 0.960 . S
C1622 H1635 0.962 . S
C1622 H1636 0.960 . S
C1623 C1620 1.511 . S
C1623 H1637 0.961 . S
C1623 H1638 0.961 . S
C1623 H1639 0.961 . S
C1624 C1625 1.370 . S
C1624 C1626 1.363 . S
C1624 H1640 0.931 . S
C1625 C1624 1.370 . S
C1625 C1629 1.408 . S
C1626 C1624 1.363 . S
C1626 C1627 1.370 . S
C1626 C1630 1.524 . S
C1627 C1619 1.503 . S
C1627 C1626 1.370 . S
C1627 C1628 1.403 . S
C1628 C1627 1.403 . S
C1628 C1629 1.404 . S
C1628 C1631 1.539 . S
C1629 C1625 1.408 . S
C1629 C1628 1.404 . S
C1629 H1641 0.930 . S
C1630 C1626 1.524 . S
C1630 H1642 0.956 . S
C1630 H1643 0.961 . S
C1630 H1644 0.961 . S
C1631 C1628 1.539 . S
C1631 H1645 0.958 . S
C1631 H1646 0.961 . S
C1631 H1647 0.960 . S
H1632 C1616 0.931 . S
H1633 C1621 0.929 . S
H1634 C1622 0.960 . S
H1635 C1622 0.962 . S
H1636 C1622 0.960 . S
H1637 C1623 0.961 . S
H1638 C1623 0.961 . S
H1639 C1623 0.961 . S
H1640 C1624 0.931 . S
H1641 C1629 0.930 . S
H1642 C1630 0.956 . S
H1643 C1630 0.961 . S
H1644 C1630 0.961 . S
H1645 C1631 0.958 . S
H1646 C1631 0.961 . S
H1647 C1631 0.960 . S
C1648 C1649 1.391 . S
C1648 C1650 1.394 . S
C1648 H1664 0.931 . S
C1649 C1648 1.391 . S
C1649 C1653 1.376 . S
C1650 C1648 1.394 . S
C1650 C1651 1.369 . S
C1650 C1654 1.531 . S
C1651 C1650 1.369 . S
C1651 C1652 1.410 . S
C1651 C1659 1.503 . S
C1652 C1651 1.410 . S
C1652 C1653 1.392 . S
C1652 C1655 1.511 . S
C1653 C1649 1.376 . S
C1653 C1652 1.392 . S
C1653 H1665 0.929 . S
C1654 C1650 1.531 . S
C1654 H1666 0.960 . S
C1654 H1667 0.962 . S
C1654 H1668 0.960 . S
C1655 C1652 1.511 . S
C1655 H1669 0.961 . S
C1655 H1670 0.961 . S
C1655 H1671 0.961 . S
C1656 C1657 1.370 . S
C1656 C1658 1.363 . S
C1656 H1672 0.931 . S
C1657 C1656 1.370 . S
C1657 C1661 1.408 . S
C1658 C1656 1.363 . S
C1658 C1659 1.370 . S
C1658 C1662 1.524 . S
C1659 C1651 1.503 . S
C1659 C1658 1.370 . S
C1659 C1660 1.403 . S
C1660 C1659 1.403 . S
C1660 C1661 1.404 . S
C1660 C1663 1.539 . S
C1661 C1657 1.408 . S
C1661 C1660 1.404 . S
C1661 H1673 0.930 . S
C1662 C1658 1.524 . S
C1662 H1674 0.956 . S
C1662 H1675 0.961 . S
C1662 H1676 0.961 . S
C1663 C1660 1.539 . S
C1663 H1677 0.958 . S
C1663 H1678 0.961 . S
C1663 H1679 0.960 . S
H1664 C1648 0.931 . S
H1665 C1653 0.929 . S
H1666 C1654 0.960 . S
H1667 C1654 0.962 . S
H1668 C1654 0.960 . S
H1669 C1655 0.961 . S
H1670 C1655 0.961 . S
H1671 C1655 0.961 . S
H1672 C1656 0.931 . S
H1673 C1661 0.930 . S
H1674 C1662 0.956 . S
H1675 C1662 0.961 . S
H1676 C1662 0.961 . S
H1677 C1663 0.958 . S
H1678 C1663 0.961 . S
H1679 C1663 0.960 . S
C1680 C1681 1.391 . S
C1680 C1682 1.394 . S
C1680 H1696 0.931 . S
C1681 C1680 1.391 . S
C1681 C1685 1.376 . S
C1682 C1680 1.394 . S
C1682 C1683 1.369 . S
C1682 C1686 1.531 . S
C1683 C1682 1.369 . S
C1683 C1684 1.410 . S
C1683 C1691 1.503 . S
C1684 C1683 1.410 . S
C1684 C1685 1.392 . S
C1684 C1687 1.511 . S
C1685 C1681 1.376 . S
C1685 C1684 1.392 . S
C1685 H1697 0.929 . S
C1686 C1682 1.531 . S
C1686 H1698 0.960 . S
C1686 H1699 0.962 . S
C1686 H1700 0.960 . S
C1687 C1684 1.511 . S
C1687 H1701 0.961 . S
C1687 H1702 0.961 . S
C1687 H1703 0.961 . S
C1688 C1689 1.370 . S
C1688 C1690 1.363 . S
C1688 H1704 0.931 . S
C1689 C1688 1.370 . S
C1689 C1693 1.408 . S
C1690 C1688 1.363 . S
C1690 C1691 1.370 . S
C1690 C1694 1.524 . S
C1691 C1683 1.503 . S
C1691 C1690 1.370 . S
C1691 C1692 1.403 . S
C1692 C1691 1.403 . S
C1692 C1693 1.404 . S
C1692 C1695 1.539 . S
C1693 C1689 1.408 . S
C1693 C1692 1.404 . S
C1693 H1705 0.930 . S
C1694 C1690 1.524 . S
C1694 H1706 0.956 . S
C1694 H1707 0.961 . S
C1694 H1708 0.961 . S
C1695 C1692 1.539 . S
C1695 H1709 0.958 . S
C1695 H1710 0.961 . S
C1695 H1711 0.960 . S
H1696 C1680 0.931 . S
H1697 C1685 0.929 . S
H1698 C1686 0.960 . S
H1699 C1686 0.962 . S
H1700 C1686 0.960 . S
H1701 C1687 0.961 . S
H1702 C1687 0.961 . S
H1703 C1687 0.961 . S
H1704 C1688 0.931 . S
H1705 C1693 0.930 . S
H1706 C1694 0.956 . S
H1707 C1694 0.961 . S
H1708 C1694 0.961 . S
H1709 C1695 0.958 . S
H1710 C1695 0.961 . S
H1711 C1695 0.960 . S
C1712 C1713 1.391 . S
C1712 C1714 1.394 . S
C1712 H1728 0.931 . S
C1713 C1712 1.391 . S
C1713 C1717 1.376 . S
C1714 C1712 1.394 . S
C1714 C1715 1.369 . S
C1714 C1718 1.531 . S
C1715 C1714 1.369 . S
C1715 C1716 1.410 . S
C1715 C1723 1.503 . S
C1716 C1715 1.410 . S
C1716 C1717 1.392 . S
C1716 C1719 1.511 . S
C1717 C1713 1.376 . S
C1717 C1716 1.392 . S
C1717 H1729 0.929 . S
C1718 C1714 1.531 . S
C1718 H1730 0.960 . S
C1718 H1731 0.962 . S
C1718 H1732 0.960 . S
C1719 C1716 1.511 . S
C1719 H1733 0.961 . S
C1719 H1734 0.961 . S
C1719 H1735 0.961 . S
C1720 C1721 1.370 . S
C1720 C1722 1.363 . S
C1720 H1736 0.931 . S
C1721 C1720 1.370 . S
C1721 C1725 1.408 . S
C1722 C1720 1.363 . S
C1722 C1723 1.370 . S
C1722 C1726 1.524 . S
C1723 C1715 1.503 . S
C1723 C1722 1.370 . S
C1723 C1724 1.403 . S
C1724 C1723 1.403 . S
C1724 C1725 1.404 . S
C1724 C1727 1.539 . S
C1725 C1721 1.408 . S
C1725 C1724 1.404 . S
C1725 H1737 0.930 . S
C1726 C1722 1.524 . S
C1726 H1738 0.956 . S
C1726 H1739 0.961 . S
C1726 H1740 0.961 . S
C1727 C1724 1.539 . S
C1727 H1741 0.958 . S
C1727 H1742 0.961 . S
C1727 H1743 0.960 . S
H1728 C1712 0.931 . S
H1729 C1717 0.929 . S
H1730 C1718 0.960 . S
H1731 C1718 0.962 . S
H1732 C1718 0.960 . S
H1733 C1719 0.961 . S
H1734 C1719 0.961 . S
H1735 C1719 0.961 . S
H1736 C1720 0.931 . S
H1737 C1725 0.930 . S
H1738 C1726 0.956 . S
H1739 C1726 0.961 . S
H1740 C1726 0.961 . S
H1741 C1727 0.958 . S
H1742 C1727 0.961 . S
H1743 C1727 0.960 . S
C1744 C1745 1.391 . S
C1744 C1746 1.394 . S
C1744 H1760 0.931 . S
C1745 C1744 1.391 . S
C1745 C1749 1.376 . S
C1746 C1744 1.394 . S
C1746 C1747 1.369 . S
C1746 C1750 1.531 . S
C1747 C1746 1.369 . S
C1747 C1748 1.410 . S
C1747 C1755 1.503 . S
C1748 C1747 1.410 . S
C1748 C1749 1.392 . S
C1748 C1751 1.511 . S
C1749 C1745 1.376 . S
C1749 C1748 1.392 . S
C1749 H1761 0.929 . S
C1750 C1746 1.531 . S
C1750 H1762 0.960 . S
C1750 H1763 0.962 . S
C1750 H1764 0.960 . S
C1751 C1748 1.511 . S
C1751 H1765 0.961 . S
C1751 H1766 0.961 . S
C1751 H1767 0.961 . S
C1752 C1753 1.370 . S
C1752 C1754 1.363 . S
C1752 H1768 0.931 . S
C1753 C1752 1.370 . S
C1753 C1757 1.408 . S
C1754 C1752 1.363 . S
C1754 C1755 1.370 . S
C1754 C1758 1.524 . S
C1755 C1747 1.503 . S
C1755 C1754 1.370 . S
C1755 C1756 1.403 . S
C1756 C1755 1.403 . S
C1756 C1757 1.404 . S
C1756 C1759 1.539 . S
C1757 C1753 1.408 . S
C1757 C1756 1.404 . S
C1757 H1769 0.930 . S
C1758 C1754 1.524 . S
C1758 H1770 0.956 . S
C1758 H1771 0.961 . S
C1758 H1772 0.961 . S
C1759 C1756 1.539 . S
C1759 H1773 0.958 . S
C1759 H1774 0.961 . S
C1759 H1775 0.960 . S
H1760 C1744 0.931 . S
H1761 C1749 0.929 . S
H1762 C1750 0.960 . S
H1763 C1750 0.962 . S
H1764 C1750 0.960 . S
H1765 C1751 0.961 . S
H1766 C1751 0.961 . S
H1767 C1751 0.961 . S
H1768 C1752 0.931 . S
H1769 C1757 0.930 . S
H1770 C1758 0.956 . S
H1771 C1758 0.961 . S
H1772 C1758 0.961 . S
H1773 C1759 0.958 . S
H1774 C1759 0.961 . S
H1775 C1759 0.960 . S
C1776 C1777 1.391 . S
C1776 C1778 1.394 . S
C1776 H1792 0.931 . S
C1777 C1776 1.391 . S
C1777 C1781 1.376 . S
C1778 C1776 1.394 . S
C1778 C1779 1.369 . S
C1778 C1782 1.531 . S
C1779 C1778 1.369 . S
C1779 C1780 1.410 . S
C1779 C1787 1.503 . S
C1780 C1779 1.410 . S
C1780 C1781 1.392 . S
C1780 C1783 1.511 . S
C1781 C1777 1.376 . S
C1781 C1780 1.392 . S
C1781 H1793 0.929 . S
C1782 C1778 1.531 . S
C1782 H1794 0.960 . S
C1782 H1795 0.962 . S
C1782 H1796 0.960 . S
C1783 C1780 1.511 . S
C1783 H1797 0.961 . S
C1783 H1798 0.961 . S
C1783 H1799 0.961 . S
C1784 C1785 1.370 . S
C1784 C1786 1.363 . S
C1784 H1800 0.931 . S
C1785 C1784 1.370 . S
C1785 C1789 1.408 . S
C1786 C1784 1.363 . S
C1786 C1787 1.370 . S
C1786 C1790 1.524 . S
C1787 C1779 1.503 . S
C1787 C1786 1.370 . S
C1787 C1788 1.403 . S
C1788 C1787 1.403 . S
C1788 C1789 1.404 . S
C1788 C1791 1.539 . S
C1789 C1785 1.408 . S
C1789 C1788 1.404 . S
C1789 H1801 0.930 . S
C1790 C1786 1.524 . S
C1790 H1802 0.956 . S
C1790 H1803 0.961 . S
C1790 H1804 0.961 . S
C1791 C1788 1.539 . S
C1791 H1805 0.958 . S
C1791 H1806 0.961 . S
C1791 H1807 0.960 . S
H1792 C1776 0.931 . S
H1793 C1781 0.929 . S
H1794 C1782 0.960 . S
H1795 C1782 0.962 . S
H1796 C1782 0.960 . S
H1797 C1783 0.961 . S
H1798 C1783 0.961 . S
H1799 C1783 0.961 . S
H1800 C1784 0.931 . S
H1801 C1789 0.930 . S
H1802 C1790 0.956 . S
H1803 C1790 0.961 . S
H1804 C1790 0.961 . S
H1805 C1791 0.958 . S
H1806 C1791 0.961 . S
H1807 C1791 0.960 . S
C1808 C1809 1.391 . S
C1808 C1810 1.394 . S
C1808 H1824 0.931 . S
C1809 C1808 1.391 . S
C1809 C1813 1.376 . S
C1810 C1808 1.394 . S
C1810 C1811 1.369 . S
C1810 C1814 1.531 . S
C1811 C1810 1.369 . S
C1811 C1812 1.410 . S
C1811 C1819 1.503 . S
C1812 C1811 1.410 . S
C1812 C1813 1.392 . S
C1812 C1815 1.511 . S
C1813 C1809 1.376 . S
C1813 C1812 1.392 . S
C1813 H1825 0.929 . S
C1814 C1810 1.531 . S
C1814 H1826 0.960 . S
C1814 H1827 0.962 . S
C1814 H1828 0.960 . S
C1815 C1812 1.511 . S
C1815 H1829 0.961 . S
C1815 H1830 0.961 . S
C1815 H1831 0.961 . S
C1816 C1817 1.370 . S
C1816 C1818 1.363 . S
C1816 H1832 0.931 . S
C1817 C1816 1.370 . S
C1817 C1821 1.408 . S
C1818 C1816 1.363 . S
C1818 C1819 1.370 . S
C1818 C1822 1.524 . S
C1819 C1811 1.503 . S
C1819 C1818 1.370 . S
C1819 C1820 1.403 . S
C1820 C1819 1.403 . S
C1820 C1821 1.404 . S
C1820 C1823 1.539 . S
C1821 C1817 1.408 . S
C1821 C1820 1.404 . S
C1821 H1833 0.930 . S
C1822 C1818 1.524 . S
C1822 H1834 0.956 . S
C1822 H1835 0.961 . S
C1822 H1836 0.961 . S
C1823 C1820 1.539 . S
C1823 H1837 0.958 . S
C1823 H1838 0.961 . S
C1823 H1839 0.960 . S
H1824 C1808 0.931 . S
H1825 C1813 0.929 . S
H1826 C1814 0.960 . S
H1827 C1814 0.962 . S
H1828 C1814 0.960 . S
H1829 C1815 0.961 . S
H1830 C1815 0.961 . S
H1831 C1815 0.961 . S
H1832 C1816 0.931 . S
H1833 C1821 0.930 . S
H1834 C1822 0.956 . S
H1835 C1822 0.961 . S
H1836 C1822 0.961 . S
H1837 C1823 0.958 . S
H1838 C1823 0.961 . S
H1839 C1823 0.960 . S
C1840 C1841 1.391 . S
C1840 C1842 1.394 . S
C1840 H1856 0.931 . S
C1841 C1840 1.391 . S
C1841 C1845 1.376 . S
C1842 C1840 1.394 . S
C1842 C1843 1.369 . S
C1842 C1846 1.531 . S
C1843 C1842 1.369 . S
C1843 C1844 1.410 . S
C1843 C1851 1.503 . S
C1844 C1843 1.410 . S
C1844 C1845 1.392 . S
C1844 C1847 1.511 . S
C1845 C1841 1.376 . S
C1845 C1844 1.392 . S
C1845 H1857 0.929 . S
C1846 C1842 1.531 . S
C1846 H1858 0.960 . S
C1846 H1859 0.962 . S
C1846 H1860 0.960 . S
C1847 C1844 1.511 . S
C1847 H1861 0.961 . S
C1847 H1862 0.961 . S
C1847 H1863 0.961 . S
C1848 C1849 1.370 . S
C1848 C1850 1.363 . S
C1848 H1864 0.931 . S
C1849 C1848 1.370 . S
C1849 C1853 1.408 . S
C1850 C1848 1.363 . S
C1850 C1851 1.370 . S
C1850 C1854 1.524 . S
C1851 C1843 1.503 . S
C1851 C1850 1.370 . S
C1851 C1852 1.403 . S
C1852 C1851 1.403 . S
C1852 C1853 1.404 . S
C1852 C1855 1.539 . S
C1853 C1849 1.408 . S
C1853 C1852 1.404 . S
C1853 H1865 0.930 . S
C1854 C1850 1.524 . S
C1854 H1866 0.956 . S
C1854 H1867 0.961 . S
C1854 H1868 0.961 . S
C1855 C1852 1.539 . S
C1855 H1869 0.958 . S
C1855 H1870 0.961 . S
C1855 H1871 0.960 . S
H1856 C1840 0.931 . S
H1857 C1845 0.929 . S
H1858 C1846 0.960 . S
H1859 C1846 0.962 . S
H1860 C1846 0.960 . S
H1861 C1847 0.961 . S
H1862 C1847 0.961 . S
H1863 C1847 0.961 . S
H1864 C1848 0.931 . S
H1865 C1853 0.930 . S
H1866 C1854 0.956 . S
H1867 C1854 0.961 . S
H1868 C1854 0.961 . S
H1869 C1855 0.958 . S
H1870 C1855 0.961 . S
H1871 C1855 0.960 . S
C1872 C1873 1.391 . S
C1872 C1874 1.394 . S
C1872 H1888 0.941 . S
C1873 C1872 1.391 . S
C1873 C1877 1.376 . S
C1874 C1872 1.394 . S
C1874 C1875 1.369 . S
C1874 C1878 1.531 1_455 S
C1875 C1874 1.369 . S
C1875 C1876 1.410 . S
C1875 C1883 1.503 . S
C1876 C1875 1.410 . S
C1876 C1877 1.392 . S
C1876 C1879 1.511 . S
C1877 C1873 1.376 . S
C1877 C1876 1.392 . S
C1877 H1889 0.929 . S
C1878 C1874 1.531 1_655 S
C1878 H1890 0.960 1_655 S
C1878 H1891 0.962 . S
C1878 H1892 0.960 . S
C1879 C1876 1.511 . S
C1879 H1893 0.961 . S
C1879 H1894 0.961 . S
C1879 H1895 0.961 . S
C1880 C1881 1.370 . S
C1880 C1882 1.363 . S
C1880 H1896 0.931 . S
C1881 C1880 1.370 . S
C1881 C1885 1.408 . S
C1882 C1880 1.363 . S
C1882 C1883 1.370 . S
C1882 C1886 1.524 . S
C1883 C1875 1.503 . S
C1883 C1882 1.370 . S
C1883 C1884 1.403 . S
C1884 C1883 1.403 . S
C1884 C1885 1.404 . S
C1884 C1887 1.539 . S
C1885 C1881 1.408 . S
C1885 C1884 1.404 . S
C1885 H1897 0.930 . S
C1886 C1882 1.524 . S
C1886 H1898 0.956 1_455 S
C1886 H1899 0.961 . S
C1886 H1900 0.961 . S
C1887 C1884 1.539 . S
C1887 H1901 0.958 . S
C1887 H1902 0.961 . S
C1887 H1903 0.960 . S
H1888 C1872 0.941 . S
H1889 C1877 0.929 . S
H1890 C1878 0.960 1_455 S
H1891 C1878 0.962 . S
H1892 C1878 0.960 . S
H1893 C1879 0.961 . S
H1894 C1879 0.961 . S
H1895 C1879 0.961 . S
H1896 C1880 0.931 . S
H1897 C1885 0.930 . S
H1898 C1886 0.956 1_655 S
H1899 C1886 0.961 . S
H1900 C1886 0.961 . S
H1901 C1887 0.958 . S
H1902 C1887 0.961 . S
H1903 C1887 0.960 . S
C1904 C1905 1.391 . S
C1904 C1906 1.394 . S
C1904 H1920 0.931 . S
C1905 C1904 1.391 . S
C1905 C1909 1.376 . S
C1906 C1904 1.394 . S
C1906 C1907 1.369 . S
C1906 C1910 1.531 . S
C1907 C1906 1.369 . S
C1907 C1908 1.410 . S
C1907 C1915 1.503 . S
C1908 C1907 1.410 . S
C1908 C1909 1.392 . S
C1908 C1911 1.511 . S
C1909 C1905 1.376 . S
C1909 C1908 1.392 . S
C1909 H1921 0.929 . S
C1910 C1906 1.531 . S
C1910 H1922 0.960 . S
C1910 H1923 0.962 . S
C1910 H1924 0.960 . S
C1911 C1908 1.511 . S
C1911 H1925 0.961 . S
C1911 H1926 0.961 . S
C1911 H1927 0.961 . S
C1912 C1913 1.370 . S
C1912 C1914 1.363 . S
C1912 H1928 0.931 . S
C1913 C1912 1.370 . S
C1913 C1917 1.408 . S
C1914 C1912 1.363 . S
C1914 C1915 1.370 . S
C1914 C1918 1.524 . S
C1915 C1907 1.503 . S
C1915 C1914 1.370 . S
C1915 C1916 1.403 . S
C1916 C1915 1.403 . S
C1916 C1917 1.404 . S
C1916 C1919 1.539 . S
C1917 C1913 1.408 . S
C1917 C1916 1.404 . S
C1917 H1929 0.930 . S
C1918 C1914 1.524 . S
C1918 H1930 0.956 . S
C1918 H1931 0.961 . S
C1918 H1932 0.961 . S
C1919 C1916 1.539 . S
C1919 H1933 0.958 . S
C1919 H1934 0.961 . S
C1919 H1935 0.960 . S
H1920 C1904 0.931 . S
H1921 C1909 0.929 . S
H1922 C1910 0.960 . S
H1923 C1910 0.962 . S
H1924 C1910 0.960 . S
H1925 C1911 0.961 . S
H1926 C1911 0.961 . S
H1927 C1911 0.961 . S
H1928 C1912 0.931 . S
H1929 C1917 0.930 . S
H1930 C1918 0.956 . S
H1931 C1918 0.961 . S
H1932 C1918 0.961 . S
H1933 C1919 0.958 . S
H1934 C1919 0.961 . S
H1935 C1919 0.960 . S
C1936 C1937 1.391 . S
C1936 C1938 1.394 . S
C1936 H1952 0.931 . S
C1937 C1936 1.391 . S
C1937 C1941 1.376 . S
C1938 C1936 1.394 . S
C1938 C1939 1.369 . S
C1938 C1942 1.531 . S
C1939 C1938 1.369 . S
C1939 C1940 1.410 . S
C1939 C1947 1.503 . S
C1940 C1939 1.410 . S
C1940 C1941 1.392 . S
C1940 C1943 1.511 . S
C1941 C1937 1.376 . S
C1941 C1940 1.392 . S
C1941 H1953 0.929 . S
C1942 C1938 1.531 . S
C1942 H1954 0.960 . S
C1942 H1955 0.962 . S
C1942 H1956 0.960 . S
C1943 C1940 1.511 . S
C1943 H1957 0.961 . S
C1943 H1958 0.961 . S
C1943 H1959 0.961 . S
C1944 C1945 1.376 . S
C1944 C1946 1.363 . S
C1944 H1960 0.931 1_556 S
C1945 C1944 1.376 . S
C1945 C1949 1.416 . S
C1946 C1944 1.363 . S
C1946 C1947 1.370 . S
C1946 C1950 1.524 . S
C1947 C1939 1.503 . S
C1947 C1946 1.370 . S
C1947 C1948 1.403 . S
C1948 C1947 1.403 . S
C1948 C1949 1.404 . S
C1948 C1951 1.539 . S
C1949 C1945 1.416 . S
C1949 C1948 1.404 . S
C1949 H1961 0.930 . S
C1950 C1946 1.524 . S
C1950 H1962 0.956 . S
C1950 H1963 0.961 . S
C1950 H1964 0.961 . S
C1951 C1948 1.539 . S
C1951 H1965 0.958 . S
C1951 H1966 0.961 . S
C1951 H1967 0.960 . S
H1952 C1936 0.931 . S
H1953 C1941 0.929 . S
H1954 C1942 0.960 . S
H1955 C1942 0.962 . S
H1956 C1942 0.960 . S
H1957 C1943 0.961 . S
H1958 C1943 0.961 . S
H1959 C1943 0.961 . S
H1960 C1944 0.931 1_554 S
H1961 C1949 0.930 . S
H1962 C1950 0.956 . S
H1963 C1950 0.961 . S
H1964 C1950 0.961 . S
H1965 C1951 0.958 . S
H1966 C1951 0.961 . S
H1967 C1951 0.960 . S
C1968 C1969 1.391 . S
C1968 C1970 1.394 . S
C1968 H1984 0.931 . S
C1969 C1968 1.391 . S
C1969 C1973 1.376 . S
C1970 C1968 1.394 . S
C1970 C1971 1.369 . S
C1970 C1974 1.531 . S
C1971 C1970 1.369 . S
C1971 C1972 1.410 . S
C1971 C1979 1.503 . S
C1972 C1971 1.410 . S
C1972 C1973 1.392 . S
C1972 C1975 1.511 . S
C1973 C1969 1.376 . S
C1973 C1972 1.392 . S
C1973 H1985 0.929 . S
C1974 C1970 1.531 . S
C1974 H1986 0.960 . S
C1974 H1987 0.962 . S
C1974 H1988 0.960 . S
C1975 C1972 1.511 . S
C1975 H1989 0.961 . S
C1975 H1990 0.961 . S
C1975 H1991 0.961 . S
C1976 C1977 1.370 . S
C1976 C1978 1.363 . S
C1976 H1992 0.931 . S
C1977 C1976 1.370 . S
C1977 C1981 1.408 . S
C1978 C1976 1.363 . S
C1978 C1979 1.370 . S
C1978 C1982 1.524 . S
C1979 C1971 1.503 . S
C1979 C1978 1.370 . S
C1979 C1980 1.403 . S
C1980 C1979 1.403 . S
C1980 C1981 1.404 . S
C1980 C1983 1.539 . S
C1981 C1977 1.408 . S
C1981 C1980 1.404 . S
C1981 H1993 0.930 . S
C1982 C1978 1.524 . S
C1982 H1994 0.956 . S
C1982 H1995 0.961 . S
C1982 H1996 0.961 . S
C1983 C1980 1.539 . S
C1983 H1997 0.958 . S
C1983 H1998 0.961 . S
C1983 H1999 0.960 . S
H1984 C1968 0.931 . S
H1985 C1973 0.929 . S
H1986 C1974 0.960 . S
H1987 C1974 0.962 . S
H1988 C1974 0.960 . S
H1989 C1975 0.961 . S
H1990 C1975 0.961 . S
H1991 C1975 0.961 . S
H1992 C1976 0.931 . S
H1993 C1981 0.930 . S
H1994 C1982 0.956 . S
H1995 C1982 0.961 . S
H1996 C1982 0.961 . S
H1997 C1983 0.958 . S
H1998 C1983 0.961 . S
H1999 C1983 0.960 . S
C2000 C2001 1.391 . S
C2000 C2002 1.394 . S
C2000 H2016 0.931 . S
C2001 C2000 1.391 . S
C2001 C2005 1.376 . S
C2002 C2000 1.394 . S
C2002 C2003 1.369 . S
C2002 C2006 1.531 . S
C2003 C2002 1.369 . S
C2003 C2004 1.410 . S
C2003 C2011 1.503 . S
C2004 C2003 1.410 . S
C2004 C2005 1.392 . S
C2004 C2007 1.511 . S
C2005 C2001 1.376 . S
C2005 C2004 1.392 . S
C2005 H2017 0.929 . S
C2006 C2002 1.531 . S
C2006 H2018 0.960 . S
C2006 H2019 0.962 . S
C2006 H2020 0.960 . S
C2007 C2004 1.511 . S
C2007 H2021 0.961 . S
C2007 H2022 0.961 . S
C2007 H2023 0.961 . S
C2008 C2009 1.370 . S
C2008 C2010 1.363 . S
C2008 H2024 0.931 . S
C2009 C2008 1.370 . S
C2009 C2013 1.408 . S
C2010 C2008 1.363 . S
C2010 C2011 1.370 . S
C2010 C2014 1.524 . S
C2011 C2003 1.503 . S
C2011 C2010 1.370 . S
C2011 C2012 1.403 . S
C2012 C2011 1.403 . S
C2012 C2013 1.404 . S
C2012 C2015 1.539 . S
C2013 C2009 1.408 . S
C2013 C2012 1.404 . S
C2013 H2025 0.930 . S
C2014 C2010 1.524 . S
C2014 H2026 0.956 . S
C2014 H2027 0.961 . S
C2014 H2028 0.961 . S
C2015 C2012 1.539 . S
C2015 H2029 0.958 1_545 S
C2015 H2030 0.961 1_545 S
C2015 H2031 0.960 . S
H2016 C2000 0.931 . S
H2017 C2005 0.929 . S
H2018 C2006 0.960 . S
H2019 C2006 0.962 . S
H2020 C2006 0.960 . S
H2021 C2007 0.961 . S
H2022 C2007 0.961 . S
H2023 C2007 0.961 . S
H2024 C2008 0.931 . S
H2025 C2013 0.930 . S
H2026 C2014 0.956 . S
H2027 C2014 0.961 . S
H2028 C2014 0.961 . S
H2029 C2015 0.958 1_565 S
H2030 C2015 0.961 1_565 S
H2031 C2015 0.960 . S
C2032 C2033 1.391 . S
C2032 C2034 1.394 . S
C2032 H2048 0.931 . S
C2033 C2032 1.391 . S
C2033 C2037 1.376 . S
C2034 C2032 1.394 . S
C2034 C2035 1.369 . S
C2034 C2038 1.531 . S
C2035 C2034 1.369 . S
C2035 C2036 1.410 . S
C2035 C2043 1.503 . S
C2036 C2035 1.410 . S
C2036 C2037 1.392 . S
C2036 C2039 1.511 . S
C2037 C2033 1.376 . S
C2037 C2036 1.392 . S
C2037 H2049 0.929 . S
C2038 C2034 1.531 . S
C2038 H2050 0.960 . S
C2038 H2051 0.962 . S
C2038 H2052 0.960 . S
C2039 C2036 1.511 . S
C2039 H2053 0.961 . S
C2039 H2054 0.961 . S
C2039 H2055 0.961 . S
C2040 C2041 1.370 . S
C2040 C2042 1.363 . S
C2040 H2056 0.931 . S
C2041 C2040 1.370 . S
C2041 C2045 1.408 . S
C2042 C2040 1.363 . S
C2042 C2043 1.370 . S
C2042 C2046 1.524 . S
C2043 C2035 1.503 . S
C2043 C2042 1.370 . S
C2043 C2044 1.403 . S
C2044 C2043 1.403 . S
C2044 C2045 1.404 . S
C2044 C2047 1.539 . S
C2045 C2041 1.408 . S
C2045 C2044 1.404 . S
C2045 H2057 0.930 . S
C2046 C2042 1.524 . S
C2046 H2058 0.956 . S
C2046 H2059 0.961 . S
C2046 H2060 0.961 . S
C2047 C2044 1.539 . S
C2047 H2061 0.958 . S
C2047 H2062 0.961 . S
C2047 H2063 0.960 . S
H2048 C2032 0.931 . S
H2049 C2037 0.929 . S
H2050 C2038 0.960 . S
H2051 C2038 0.962 . S
H2052 C2038 0.960 . S
H2053 C2039 0.961 . S
H2054 C2039 0.961 . S
H2055 C2039 0.961 . S
H2056 C2040 0.931 . S
H2057 C2045 0.930 . S
H2058 C2046 0.956 . S
H2059 C2046 0.961 . S
H2060 C2046 0.961 . S
H2061 C2047 0.958 . S
H2062 C2047 0.961 . S
H2063 C2047 0.960 . S
C2064 C2065 1.391 . S
C2064 C2066 1.394 . S
C2064 H2080 0.931 . S
C2065 C2064 1.391 . S
C2065 C2069 1.376 . S
C2066 C2064 1.394 . S
C2066 C2067 1.369 . S
C2066 C2070 1.531 1_545 S
C2067 C2066 1.369 . S
C2067 C2068 1.410 . S
C2067 C2075 1.503 . S
C2068 C2067 1.410 . S
C2068 C2069 1.392 . S
C2068 C2071 1.511 . S
C2069 C2065 1.376 . S
C2069 C2068 1.392 . S
C2069 H2081 0.929 . S
C2070 C2066 1.531 1_565 S
C2070 H2082 0.960 . S
C2070 H2083 0.962 . S
C2070 H2084 0.960 . S
C2071 C2068 1.511 . S
C2071 H2085 0.961 . S
C2071 H2086 0.961 . S
C2071 H2087 0.961 . S
C2072 C2073 1.370 . S
C2072 C2074 1.363 . S
C2072 H2088 0.931 . S
C2073 C2072 1.370 . S
C2073 C2077 1.408 . S
C2074 C2072 1.363 . S
C2074 C2075 1.370 . S
C2074 C2078 1.524 . S
C2075 C2067 1.503 . S
C2075 C2074 1.370 . S
C2075 C2076 1.403 . S
C2076 C2075 1.403 . S
C2076 C2077 1.404 . S
C2076 C2079 1.539 . S
C2077 C2073 1.408 . S
C2077 C2076 1.404 . S
C2077 H2089 0.930 . S
C2078 C2074 1.524 . S
C2078 H2090 0.956 . S
C2078 H2091 0.961 . S
C2078 H2092 0.961 . S
C2079 C2076 1.539 . S
C2079 H2093 0.958 . S
C2079 H2094 0.961 . S
C2079 H2095 0.960 . S
H2080 C2064 0.931 . S
H2081 C2069 0.929 . S
H2082 C2070 0.960 . S
H2083 C2070 0.962 . S
H2084 C2070 0.960 . S
H2085 C2071 0.961 . S
H2086 C2071 0.961 . S
H2087 C2071 0.961 . S
H2088 C2072 0.931 . S
H2089 C2077 0.930 . S
H2090 C2078 0.956 . S
H2091 C2078 0.961 . S
H2092 C2078 0.961 . S
H2093 C2079 0.958 . S
H2094 C2079 0.961 . S
H2095 C2079 0.960 . S
C2096 C2097 1.391 . S
C2096 C2098 1.394 . S
C2096 H2112 0.931 . S
C2097 C2096 1.391 . S
C2097 C2101 1.376 . S
C2098 C2096 1.394 . S
C2098 C2099 1.369 . S
C2098 C2102 1.531 . S
C2099 C2098 1.369 . S
C2099 C2100 1.410 . S
C2099 C2107 1.503 . S
C2100 C2099 1.410 . S
C2100 C2101 1.392 . S
C2100 C2103 1.511 . S
C2101 C2097 1.376 . S
C2101 C2100 1.392 . S
C2101 H2113 0.929 . S
C2102 C2098 1.531 . S
C2102 H2114 0.960 . S
C2102 H2115 0.962 . S
C2102 H2116 0.960 . S
C2103 C2100 1.511 . S
C2103 H2117 0.961 . S
C2103 H2118 0.961 . S
C2103 H2119 0.961 . S
C2104 C2105 1.370 . S
C2104 C2106 1.363 . S
C2104 H2120 0.931 . S
C2105 C2104 1.370 . S
C2105 C2109 1.408 . S
C2106 C2104 1.363 . S
C2106 C2107 1.370 . S
C2106 C2110 1.524 . S
C2107 C2099 1.503 . S
C2107 C2106 1.370 . S
C2107 C2108 1.403 . S
C2108 C2107 1.403 . S
C2108 C2109 1.404 . S
C2108 C2111 1.539 . S
C2109 C2105 1.408 . S
C2109 C2108 1.404 . S
C2109 H2121 0.930 . S
C2110 C2106 1.524 . S
C2110 H2122 0.956 . S
C2110 H2123 0.961 . S
C2110 H2124 0.961 . S
C2111 C2108 1.539 . S
C2111 H2125 0.958 . S
C2111 H2126 0.961 . S
C2111 H2127 0.960 . S
H2112 C2096 0.931 . S
H2113 C2101 0.929 . S
H2114 C2102 0.960 . S
H2115 C2102 0.962 . S
H2116 C2102 0.960 . S
H2117 C2103 0.961 . S
H2118 C2103 0.961 . S
H2119 C2103 0.961 . S
H2120 C2104 0.931 . S
H2121 C2109 0.930 . S
H2122 C2110 0.956 . S
H2123 C2110 0.961 . S
H2124 C2110 0.961 . S
H2125 C2111 0.958 . S
H2126 C2111 0.961 . S
H2127 C2111 0.960 . S
C2128 C2129 1.391 . S
C2128 C2130 1.394 . S
C2128 H2144 0.931 . S
C2129 C2128 1.391 . S
C2129 C2133 1.376 . S
C2130 C2128 1.394 . S
C2130 C2131 1.369 . S
C2130 C2134 1.531 . S
C2131 C2130 1.369 . S
C2131 C2132 1.410 . S
C2131 C2139 1.503 . S
C2132 C2131 1.410 . S
C2132 C2133 1.392 . S
C2132 C2135 1.511 . S
C2133 C2129 1.376 . S
C2133 C2132 1.392 . S
C2133 H2145 0.929 . S
C2134 C2130 1.531 . S
C2134 H2146 0.960 . S
C2134 H2147 0.962 . S
C2134 H2148 0.960 . S
C2135 C2132 1.511 . S
C2135 H2149 0.961 . S
C2135 H2150 0.961 . S
C2135 H2151 0.961 . S
C2136 C2137 1.370 . S
C2136 C2138 1.363 . S
C2136 H2152 0.931 . S
C2137 C2136 1.370 . S
C2137 C2141 1.408 . S
C2138 C2136 1.363 . S
C2138 C2139 1.370 . S
C2138 C2142 1.524 . S
C2139 C2131 1.503 . S
C2139 C2138 1.370 . S
C2139 C2140 1.403 . S
C2140 C2139 1.403 . S
C2140 C2141 1.404 . S
C2140 C2143 1.539 . S
C2141 C2137 1.408 . S
C2141 C2140 1.404 . S
C2141 H2153 0.930 . S
C2142 C2138 1.524 . S
C2142 H2154 0.956 . S
C2142 H2155 0.961 . S
C2142 H2156 0.961 . S
C2143 C2140 1.539 . S
C2143 H2157 0.958 . S
C2143 H2158 0.961 . S
C2143 H2159 0.960 . S
H2144 C2128 0.931 . S
H2145 C2133 0.929 . S
H2146 C2134 0.960 . S
H2147 C2134 0.962 . S
H2148 C2134 0.960 . S
H2149 C2135 0.961 . S
H2150 C2135 0.961 . S
H2151 C2135 0.961 . S
H2152 C2136 0.931 . S
H2153 C2141 0.930 . S
H2154 C2142 0.956 . S
H2155 C2142 0.961 . S
H2156 C2142 0.961 . S
H2157 C2143 0.958 . S
H2158 C2143 0.961 . S
H2159 C2143 0.960 . S
C2160 C2161 1.391 . S
C2160 C2162 1.394 . S
C2160 H2176 0.931 . S
C2161 C2160 1.391 . S
C2161 C2165 1.376 . S
C2162 C2160 1.394 . S
C2162 C2163 1.369 . S
C2162 C2166 1.531 . S
C2163 C2162 1.369 . S
C2163 C2164 1.410 . S
C2163 C2171 1.503 . S
C2164 C2163 1.410 . S
C2164 C2165 1.392 . S
C2164 C2167 1.511 . S
C2165 C2161 1.376 . S
C2165 C2164 1.392 . S
C2165 H2177 0.929 . S
C2166 C2162 1.531 . S
C2166 H2178 0.960 . S
C2166 H2179 0.962 . S
C2166 H2180 0.960 . S
C2167 C2164 1.511 . S
C2167 H2181 0.961 . S
C2167 H2182 0.961 . S
C2167 H2183 0.961 . S
C2168 C2169 1.370 . S
C2168 C2170 1.363 . S
C2168 H2184 0.931 . S
C2169 C2168 1.370 . S
C2169 C2173 1.408 . S
C2170 C2168 1.363 . S
C2170 C2171 1.370 . S
C2170 C2174 1.524 . S
C2171 C2163 1.503 . S
C2171 C2170 1.370 . S
C2171 C2172 1.403 . S
C2172 C2171 1.403 . S
C2172 C2173 1.404 . S
C2172 C2175 1.539 . S
C2173 C2169 1.408 . S
C2173 C2172 1.404 . S
C2173 H2185 0.930 . S
C2174 C2170 1.524 . S
C2174 H2186 0.956 . S
C2174 H2187 0.961 . S
C2174 H2188 0.961 . S
C2175 C2172 1.539 . S
C2175 H2189 0.958 . S
C2175 H2190 0.961 . S
C2175 H2191 0.960 . S
H2176 C2160 0.931 . S
H2177 C2165 0.929 . S
H2178 C2166 0.960 . S
H2179 C2166 0.962 . S
H2180 C2166 0.960 . S
H2181 C2167 0.961 . S
H2182 C2167 0.961 . S
H2183 C2167 0.961 . S
H2184 C2168 0.931 . S
H2185 C2173 0.930 . S
H2186 C2174 0.956 . S
H2187 C2174 0.961 . S
H2188 C2174 0.961 . S
H2189 C2175 0.958 . S
H2190 C2175 0.961 . S
H2191 C2175 0.960 . S
C2192 C2193 1.391 . S
C2192 C2194 1.394 . S
C2192 H2208 0.931 . S
C2193 C2192 1.391 . S
C2193 C2197 1.376 . S
C2194 C2192 1.394 . S
C2194 C2195 1.369 . S
C2194 C2198 1.531 1_545 S
C2195 C2194 1.369 . S
C2195 C2196 1.410 . S
C2195 C2203 1.503 . S
C2196 C2195 1.410 . S
C2196 C2197 1.392 . S
C2196 C2199 1.511 . S
C2197 C2193 1.376 . S
C2197 C2196 1.392 . S
C2197 H2209 0.929 . S
C2198 C2194 1.531 1_565 S
C2198 H2210 0.960 . S
C2198 H2211 0.962 1_565 S
C2198 H2212 0.960 . S
C2199 C2196 1.511 . S
C2199 H2213 0.961 . S
C2199 H2214 0.961 . S
C2199 H2215 0.961 . S
C2200 C2201 1.370 . S
C2200 C2202 1.363 . S
C2200 H2216 0.931 . S
C2201 C2200 1.370 . S
C2201 C2205 1.408 . S
C2202 C2200 1.363 . S
C2202 C2203 1.370 . S
C2202 C2206 1.524 . S
C2203 C2195 1.503 . S
C2203 C2202 1.370 . S
C2203 C2204 1.403 . S
C2204 C2203 1.403 . S
C2204 C2205 1.404 . S
C2204 C2207 1.539 1_545 S
C2205 C2201 1.408 . S
C2205 C2204 1.404 . S
C2205 H2217 0.930 . S
C2206 C2202 1.524 . S
C2206 H2218 0.956 . S
C2206 H2219 0.961 . S
C2206 H2220 0.961 . S
C2207 C2204 1.539 1_565 S
C2207 H2221 0.958 . S
C2207 H2222 0.961 . S
C2207 H2223 0.935 1_565 S
H2208 C2192 0.931 . S
H2209 C2197 0.929 . S
H2210 C2198 0.960 . S
H2211 C2198 0.962 1_545 S
H2212 C2198 0.960 . S
H2213 C2199 0.961 . S
H2214 C2199 0.961 . S
H2215 C2199 0.961 . S
H2216 C2200 0.931 . S
H2217 C2205 0.930 . S
H2218 C2206 0.956 . S
H2219 C2206 0.961 . S
H2220 C2206 0.961 . S
H2221 C2207 0.958 . S
H2222 C2207 0.961 . S
H2223 C2207 0.935 1_545 S
C2224 C2225 1.391 . S
C2224 C2226 1.394 . S
C2224 H2240 0.931 . S
C2225 C2224 1.391 . S
C2225 C2229 1.376 . S
C2226 C2224 1.394 . S
C2226 C2227 1.369 . S
C2226 C2230 1.531 . S
C2227 C2226 1.369 . S
C2227 C2228 1.410 . S
C2227 C2235 1.503 . S
C2228 C2227 1.410 . S
C2228 C2229 1.392 . S
C2228 C2231 1.511 . S
C2229 C2225 1.376 . S
C2229 C2228 1.392 . S
C2229 H2241 0.929 . S
C2230 C2226 1.531 . S
C2230 H2242 0.960 . S
C2230 H2243 0.962 . S
C2230 H2244 0.960 . S
C2231 C2228 1.511 . S
C2231 H2245 0.961 . S
C2231 H2246 0.961 . S
C2231 H2247 0.961 . S
C2232 C2233 1.370 . S
C2232 C2234 1.363 . S
C2232 H2248 0.931 . S
C2233 C2232 1.370 . S
C2233 C2237 1.408 . S
C2234 C2232 1.363 . S
C2234 C2235 1.370 . S
C2234 C2238 1.524 . S
C2235 C2227 1.503 . S
C2235 C2234 1.370 . S
C2235 C2236 1.403 . S
C2236 C2235 1.403 . S
C2236 C2237 1.404 . S
C2236 C2239 1.539 . S
C2237 C2233 1.408 . S
C2237 C2236 1.404 . S
C2237 H2249 0.930 . S
C2238 C2234 1.524 . S
C2238 H2250 0.956 . S
C2238 H2251 0.961 . S
C2238 H2252 0.961 . S
C2239 C2236 1.539 . S
C2239 H2253 0.958 . S
C2239 H2254 0.961 . S
C2239 H2255 0.960 . S
H2240 C2224 0.931 . S
H2241 C2229 0.929 . S
H2242 C2230 0.960 . S
H2243 C2230 0.962 . S
H2244 C2230 0.960 . S
H2245 C2231 0.961 . S
H2246 C2231 0.961 . S
H2247 C2231 0.961 . S
H2248 C2232 0.931 . S
H2249 C2237 0.930 . S
H2250 C2238 0.956 . S
H2251 C2238 0.961 . S
H2252 C2238 0.961 . S
H2253 C2239 0.958 . S
H2254 C2239 0.961 . S
H2255 C2239 0.960 . S
C2256 C2257 1.391 . S
C2256 C2258 1.394 . S
C2256 H2272 0.931 . S
C2257 C2256 1.391 . S
C2257 C2261 1.376 . S
C2258 C2256 1.394 . S
C2258 C2259 1.369 . S
C2258 C2262 1.531 . S
C2259 C2258 1.369 . S
C2259 C2260 1.410 . S
C2259 C2267 1.503 . S
C2260 C2259 1.410 . S
C2260 C2261 1.392 . S
C2260 C2263 1.511 . S
C2261 C2257 1.376 . S
C2261 C2260 1.392 . S
C2261 H2273 0.929 . S
C2262 C2258 1.531 . S
C2262 H2274 0.960 . S
C2262 H2275 0.962 . S
C2262 H2276 0.960 . S
C2263 C2260 1.511 . S
C2263 H2277 0.961 . S
C2263 H2278 0.961 . S
C2263 H2279 0.961 . S
C2264 C2265 1.370 . S
C2264 C2266 1.363 . S
C2264 H2280 0.931 1_554 S
C2265 C2264 1.370 . S
C2265 C2269 1.408 . S
C2266 C2264 1.363 . S
C2266 C2267 1.370 . S
C2266 C2270 1.524 . S
C2267 C2259 1.503 . S
C2267 C2266 1.370 . S
C2267 C2268 1.403 . S
C2268 C2267 1.403 . S
C2268 C2269 1.404 . S
C2268 C2271 1.539 . S
C2269 C2265 1.408 . S
C2269 C2268 1.404 . S
C2269 H2281 0.930 . S
C2270 C2266 1.524 . S
C2270 H2282 0.956 . S
C2270 H2283 0.961 . S
C2270 H2284 0.961 1_554 S
C2271 C2268 1.539 . S
C2271 H2285 0.958 . S
C2271 H2286 0.961 . S
C2271 H2287 0.960 . S
H2272 C2256 0.931 . S
H2273 C2261 0.929 . S
H2274 C2262 0.960 . S
H2275 C2262 0.962 . S
H2276 C2262 0.960 . S
H2277 C2263 0.961 . S
H2278 C2263 0.961 . S
H2279 C2263 0.961 . S
H2280 C2264 0.931 1_556 S
H2281 C2269 0.930 . S
H2282 C2270 0.956 . S
H2283 C2270 0.961 . S
H2284 C2270 0.961 1_556 S
H2285 C2271 0.958 . S
H2286 C2271 0.961 . S
H2287 C2271 0.960 . S
C2288 C2289 1.391 . S
C2288 C2290 1.394 . S
C2288 H2304 0.931 . S
C2289 C2288 1.391 . S
C2289 C2293 1.376 . S
C2290 C2288 1.394 . S
C2290 C2291 1.369 . S
C2290 C2294 1.531 . S
C2291 C2290 1.369 . S
C2291 C2292 1.410 . S
C2291 C2299 1.503 . S
C2292 C2291 1.410 . S
C2292 C2293 1.392 . S
C2292 C2295 1.511 . S
C2293 C2289 1.376 . S
C2293 C2292 1.392 . S
C2293 H2305 0.929 . S
C2294 C2290 1.531 . S
C2294 H2306 0.960 . S
C2294 H2307 0.962 . S
C2294 H2308 0.960 . S
C2295 C2292 1.511 . S
C2295 H2309 0.961 . S
C2295 H2310 0.961 . S
C2295 H2311 0.961 . S
C2296 C2297 1.370 . S
C2296 C2298 1.363 . S
C2296 H2312 0.931 . S
C2297 C2296 1.370 . S
C2297 C2301 1.408 . S
C2298 C2296 1.363 . S
C2298 C2299 1.370 . S
C2298 C2302 1.524 . S
C2299 C2291 1.503 . S
C2299 C2298 1.370 . S
C2299 C2300 1.403 . S
C2300 C2299 1.403 . S
C2300 C2301 1.404 . S
C2300 C2303 1.539 . S
C2301 C2297 1.408 . S
C2301 C2300 1.404 . S
C2301 H2313 0.930 . S
C2302 C2298 1.524 . S
C2302 H2314 0.956 . S
C2302 H2315 0.961 . S
C2302 H2316 0.961 . S
C2303 C2300 1.539 . S
C2303 H2317 0.958 . S
C2303 H2318 0.961 1_554 S
C2303 H2319 0.959 . S
H2304 C2288 0.931 . S
H2305 C2293 0.929 . S
H2306 C2294 0.960 . S
H2307 C2294 0.962 . S
H2308 C2294 0.960 . S
H2309 C2295 0.961 . S
H2310 C2295 0.961 . S
H2311 C2295 0.961 . S
H2312 C2296 0.931 . S
H2313 C2301 0.930 . S
H2314 C2302 0.956 . S
H2315 C2302 0.961 . S
H2316 C2302 0.961 . S
H2317 C2303 0.958 . S
H2318 C2303 0.961 1_556 S
H2319 C2303 0.959 . S
C2320 C2321 1.391 . S
C2320 C2322 1.394 . S
C2320 H2336 0.931 . S
C2321 C2320 1.391 . S
C2321 C2325 1.376 . S
C2322 C2320 1.394 . S
C2322 C2323 1.369 . S
C2322 C2326 1.531 . S
C2323 C2322 1.369 . S
C2323 C2324 1.410 . S
C2323 C2331 1.503 . S
C2324 C2323 1.410 . S
C2324 C2325 1.392 . S
C2324 C2327 1.511 . S
C2325 C2321 1.376 . S
C2325 C2324 1.392 . S
C2325 H2337 0.929 . S
C2326 C2322 1.531 . S
C2326 H2338 0.960 . S
C2326 H2339 0.962 . S
C2326 H2340 0.960 . S
C2327 C2324 1.511 . S
C2327 H2341 0.961 . S
C2327 H2342 0.961 . S
C2327 H2343 0.961 . S
C2328 C2329 1.370 . S
C2328 C2330 1.363 . S
C2328 H2344 0.931 . S
C2329 C2328 1.370 . S
C2329 C2333 1.408 . S
C2330 C2328 1.363 . S
C2330 C2331 1.370 . S
C2330 C2334 1.524 . S
C2331 C2323 1.503 . S
C2331 C2330 1.370 . S
C2331 C2332 1.403 . S
C2332 C2331 1.403 . S
C2332 C2333 1.404 . S
C2332 C2335 1.539 . S
C2333 C2329 1.408 . S
C2333 C2332 1.404 . S
C2333 H2345 0.930 . S
C2334 C2330 1.524 . S
C2334 H2346 0.956 . S
C2334 H2347 0.961 . S
C2334 H2348 0.961 . S
C2335 C2332 1.539 . S
C2335 H2349 0.958 . S
C2335 H2350 0.961 . S
C2335 H2351 0.960 . S
H2336 C2320 0.931 . S
H2337 C2325 0.929 . S
H2338 C2326 0.960 . S
H2339 C2326 0.962 . S
H2340 C2326 0.960 . S
H2341 C2327 0.961 . S
H2342 C2327 0.961 . S
H2343 C2327 0.961 . S
H2344 C2328 0.931 . S
H2345 C2333 0.930 . S
H2346 C2334 0.956 . S
H2347 C2334 0.961 . S
H2348 C2334 0.961 . S
H2349 C2335 0.958 . S
H2350 C2335 0.961 . S
H2351 C2335 0.960 . S
C2352 C2353 1.391 . S
C2352 C2354 1.394 . S
C2352 H2368 0.931 . S
C2353 C2352 1.391 . S
C2353 C2357 1.376 . S
C2354 C2352 1.394 . S
C2354 C2355 1.369 . S
C2354 C2358 1.531 . S
C2355 C2354 1.369 . S
C2355 C2356 1.410 . S
C2355 C2363 1.503 . S
C2356 C2355 1.410 . S
C2356 C2357 1.392 . S
C2356 C2359 1.511 . S
C2357 C2353 1.376 . S
C2357 C2356 1.392 . S
C2357 H2369 0.929 . S
C2358 C2354 1.531 . S
C2358 H2370 0.960 . S
C2358 H2371 0.962 . S
C2358 H2372 0.960 . S
C2359 C2356 1.511 . S
C2359 H2373 0.961 . S
C2359 H2374 0.961 . S
C2359 H2375 0.961 . S
C2360 C2361 1.370 . S
C2360 C2362 1.363 . S
C2360 H2376 0.931 . S
C2361 C2360 1.370 . S
C2361 C2365 1.408 . S
C2362 C2360 1.363 . S
C2362 C2363 1.370 . S
C2362 C2366 1.524 . S
C2363 C2355 1.503 . S
C2363 C2362 1.370 . S
C2363 C2364 1.403 . S
C2364 C2363 1.403 . S
C2364 C2365 1.404 . S
C2364 C2367 1.539 . S
C2365 C2361 1.408 . S
C2365 C2364 1.404 . S
C2365 H2377 0.930 . S
C2366 C2362 1.524 . S
C2366 H2378 0.956 . S
C2366 H2379 0.961 . S
C2366 H2380 0.961 . S
C2367 C2364 1.539 . S
C2367 H2381 0.958 . S
C2367 H2382 0.961 . S
C2367 H2383 0.960 . S
H2368 C2352 0.931 . S
H2369 C2357 0.929 . S
H2370 C2358 0.960 . S
H2371 C2358 0.962 . S
H2372 C2358 0.960 . S
H2373 C2359 0.961 . S
H2374 C2359 0.961 . S
H2375 C2359 0.961 . S
H2376 C2360 0.931 . S
H2377 C2365 0.930 . S
H2378 C2366 0.956 . S
H2379 C2366 0.961 . S
H2380 C2366 0.961 . S
H2381 C2367 0.958 . S
H2382 C2367 0.961 . S
H2383 C2367 0.960 . S
C2384 C2385 1.391 . S
C2384 C2386 1.394 . S
C2384 H2400 0.931 . S
C2385 C2384 1.391 . S
C2385 C2389 1.376 . S
C2386 C2384 1.394 . S
C2386 C2387 1.369 . S
C2386 C2390 1.531 . S
C2387 C2386 1.369 . S
C2387 C2388 1.410 . S
C2387 C2395 1.503 . S
C2388 C2387 1.410 . S
C2388 C2389 1.392 . S
C2388 C2391 1.511 . S
C2389 C2385 1.376 . S
C2389 C2388 1.392 . S
C2389 H2401 0.929 . S
C2390 C2386 1.531 . S
C2390 H2402 0.960 . S
C2390 H2403 0.962 . S
C2390 H2404 0.960 . S
C2391 C2388 1.511 . S
C2391 H2405 0.961 . S
C2391 H2406 0.961 . S
C2391 H2407 0.961 . S
C2392 C2393 1.370 . S
C2392 C2394 1.363 . S
C2392 H2408 0.931 . S
C2393 C2392 1.370 . S
C2393 C2397 1.408 . S
C2394 C2392 1.363 . S
C2394 C2395 1.370 . S
C2394 C2398 1.524 . S
C2395 C2387 1.503 . S
C2395 C2394 1.370 . S
C2395 C2396 1.403 . S
C2396 C2395 1.403 . S
C2396 C2397 1.404 . S
C2396 C2399 1.539 . S
C2397 C2393 1.408 . S
C2397 C2396 1.404 . S
C2397 H2409 0.930 . S
C2398 C2394 1.524 . S
C2398 H2410 0.956 . S
C2398 H2411 0.961 . S
C2398 H2412 0.961 . S
C2399 C2396 1.539 . S
C2399 H2413 0.958 . S
C2399 H2414 0.961 . S
C2399 H2415 0.960 . S
H2400 C2384 0.931 . S
H2401 C2389 0.929 . S
H2402 C2390 0.960 . S
H2403 C2390 0.962 . S
H2404 C2390 0.960 . S
H2405 C2391 0.961 . S
H2406 C2391 0.961 . S
H2407 C2391 0.961 . S
H2408 C2392 0.931 . S
H2409 C2397 0.930 . S
H2410 C2398 0.956 . S
H2411 C2398 0.961 . S
H2412 C2398 0.961 . S
H2413 C2399 0.958 . S
H2414 C2399 0.961 . S
H2415 C2399 0.960 . S
C2416 C2417 1.391 . S
C2416 C2418 1.394 . S
C2416 H2432 0.931 . S
C2417 C2416 1.391 . S
C2417 C2421 1.376 . S
C2418 C2416 1.394 . S
C2418 C2419 1.369 . S
C2418 C2422 1.531 . S
C2419 C2418 1.369 . S
C2419 C2420 1.410 . S
C2419 C2427 1.503 . S
C2420 C2419 1.410 . S
C2420 C2421 1.392 . S
C2420 C2423 1.511 . S
C2421 C2417 1.376 . S
C2421 C2420 1.392 . S
C2421 H2433 0.929 . S
C2422 C2418 1.531 . S
C2422 H2434 0.960 . S
C2422 H2435 0.962 . S
C2422 H2436 0.960 . S
C2423 C2420 1.511 . S
C2423 H2437 0.961 . S
C2423 H2438 0.961 . S
C2423 H2439 0.961 . S
C2424 C2425 1.370 . S
C2424 C2426 1.363 . S
C2424 H2440 0.931 . S
C2425 C2424 1.370 . S
C2425 C2429 1.408 . S
C2426 C2424 1.363 . S
C2426 C2427 1.370 . S
C2426 C2430 1.524 . S
C2427 C2419 1.503 . S
C2427 C2426 1.370 . S
C2427 C2428 1.403 . S
C2428 C2427 1.403 . S
C2428 C2429 1.404 . S
C2428 C2431 1.539 . S
C2429 C2425 1.408 . S
C2429 C2428 1.404 . S
C2429 H2441 0.930 . S
C2430 C2426 1.524 . S
C2430 H2442 0.956 . S
C2430 H2443 0.961 . S
C2430 H2444 0.961 . S
C2431 C2428 1.539 . S
C2431 H2445 0.958 . S
C2431 H2446 0.961 . S
C2431 H2447 0.960 . S
H2432 C2416 0.931 . S
H2433 C2421 0.929 . S
H2434 C2422 0.960 . S
H2435 C2422 0.962 . S
H2436 C2422 0.960 . S
H2437 C2423 0.961 . S
H2438 C2423 0.961 . S
H2439 C2423 0.961 . S
H2440 C2424 0.931 . S
H2441 C2429 0.930 . S
H2442 C2430 0.956 . S
H2443 C2430 0.961 . S
H2444 C2430 0.961 . S
H2445 C2431 0.958 . S
H2446 C2431 0.961 . S
H2447 C2431 0.960 . S
C2448 C2449 1.391 . S
C2448 C2450 1.394 . S
C2448 H2464 0.931 . S
C2449 C2448 1.391 . S
C2449 C2453 1.376 . S
C2450 C2448 1.394 . S
C2450 C2451 1.369 . S
C2450 C2454 1.531 . S
C2451 C2450 1.369 . S
C2451 C2452 1.410 . S
C2451 C2459 1.503 . S
C2452 C2451 1.410 . S
C2452 C2453 1.392 . S
C2452 C2455 1.511 . S
C2453 C2449 1.376 . S
C2453 C2452 1.392 . S
C2453 H2465 0.929 . S
C2454 C2450 1.531 . S
C2454 H2466 0.960 . S
C2454 H2467 0.962 . S
C2454 H2468 0.960 . S
C2455 C2452 1.511 . S
C2455 H2469 0.961 . S
C2455 H2470 0.961 . S
C2455 H2471 0.961 . S
C2456 C2457 1.370 . S
C2456 C2458 1.363 . S
C2456 H2472 0.931 . S
C2457 C2456 1.370 . S
C2457 C2461 1.408 . S
C2458 C2456 1.363 . S
C2458 C2459 1.370 . S
C2458 C2462 1.524 . S
C2459 C2451 1.503 . S
C2459 C2458 1.370 . S
C2459 C2460 1.403 . S
C2460 C2459 1.403 . S
C2460 C2461 1.404 . S
C2460 C2463 1.539 . S
C2461 C2457 1.408 . S
C2461 C2460 1.404 . S
C2461 H2473 0.930 . S
C2462 C2458 1.524 . S
C2462 H2474 0.956 . S
C2462 H2475 0.961 . S
C2462 H2476 0.961 . S
C2463 C2460 1.539 . S
C2463 H2477 0.958 . S
C2463 H2478 0.961 . S
C2463 H2479 0.960 . S
H2464 C2448 0.931 . S
H2465 C2453 0.929 . S
H2466 C2454 0.960 . S
H2467 C2454 0.962 . S
H2468 C2454 0.960 . S
H2469 C2455 0.961 . S
H2470 C2455 0.961 . S
H2471 C2455 0.961 . S
H2472 C2456 0.931 . S
H2473 C2461 0.930 . S
H2474 C2462 0.956 . S
H2475 C2462 0.961 . S
H2476 C2462 0.961 . S
H2477 C2463 0.958 . S
H2478 C2463 0.961 . S
H2479 C2463 0.960 . S
C2480 C2481 1.391 . S
C2480 C2482 1.394 . S
C2480 H2496 0.931 . S
C2481 C2480 1.391 . S
C2481 C2485 1.376 . S
C2482 C2480 1.394 . S
C2482 C2483 1.369 . S
C2482 C2486 1.531 . S
C2483 C2482 1.369 . S
C2483 C2484 1.410 . S
C2483 C2491 1.503 . S
C2484 C2483 1.410 . S
C2484 C2485 1.392 . S
C2484 C2487 1.511 . S
C2485 C2481 1.376 . S
C2485 C2484 1.392 . S
C2485 H2497 0.929 . S
C2486 C2482 1.531 . S
C2486 H2498 0.960 . S
C2486 H2499 0.962 . S
C2486 H2500 0.960 . S
C2487 C2484 1.511 . S
C2487 H2501 0.961 . S
C2487 H2502 0.961 . S
C2487 H2503 0.961 . S
C2488 C2489 1.370 . S
C2488 C2490 1.363 . S
C2488 H2504 0.931 . S
C2489 C2488 1.370 . S
C2489 C2493 1.408 . S
C2490 C2488 1.363 . S
C2490 C2491 1.370 . S
C2490 C2494 1.524 . S
C2491 C2483 1.503 . S
C2491 C2490 1.370 . S
C2491 C2492 1.403 . S
C2492 C2491 1.403 . S
C2492 C2493 1.404 . S
C2492 C2495 1.539 . S
C2493 C2489 1.408 . S
C2493 C2492 1.404 . S
C2493 H2505 0.930 . S
C2494 C2490 1.524 . S
C2494 H2506 0.956 . S
C2494 H2507 0.961 . S
C2494 H2508 0.961 . S
C2495 C2492 1.539 . S
C2495 H2509 0.958 . S
C2495 H2510 0.961 . S
C2495 H2511 0.960 . S
H2496 C2480 0.931 . S
H2497 C2485 0.929 . S
H2498 C2486 0.960 . S
H2499 C2486 0.962 . S
H2500 C2486 0.960 . S
H2501 C2487 0.961 . S
H2502 C2487 0.961 . S
H2503 C2487 0.961 . S
H2504 C2488 0.931 . S
H2505 C2493 0.930 . S
H2506 C2494 0.956 . S
H2507 C2494 0.961 . S
H2508 C2494 0.961 . S
H2509 C2495 0.958 . S
H2510 C2495 0.961 . S
H2511 C2495 0.960 . S
C2512 C2513 1.391 . S
C2512 C2514 1.394 . S
C2512 H2528 0.931 . S
C2513 C2512 1.391 . S
C2513 C2517 1.376 . S
C2514 C2512 1.394 . S
C2514 C2515 1.369 . S
C2514 C2518 1.531 . S
C2515 C2514 1.369 . S
C2515 C2516 1.410 . S
C2515 C2523 1.503 . S
C2516 C2515 1.410 . S
C2516 C2517 1.392 . S
C2516 C2519 1.511 . S
C2517 C2513 1.376 . S
C2517 C2516 1.392 . S
C2517 H2529 0.929 . S
C2518 C2514 1.531 . S
C2518 H2530 0.960 . S
C2518 H2531 0.962 . S
C2518 H2532 0.960 . S
C2519 C2516 1.511 . S
C2519 H2533 0.961 . S
C2519 H2534 0.961 . S
C2519 H2535 0.961 . S
C2520 C2521 1.370 . S
C2520 C2522 1.363 . S
C2520 H2536 0.931 . S
C2521 C2520 1.370 . S
C2521 C2525 1.408 . S
C2522 C2520 1.363 . S
C2522 C2523 1.370 . S
C2522 C2526 1.524 . S
C2523 C2515 1.503 . S
C2523 C2522 1.370 . S
C2523 C2524 1.403 . S
C2524 C2523 1.403 . S
C2524 C2525 1.404 . S
C2524 C2527 1.539 . S
C2525 C2521 1.408 . S
C2525 C2524 1.404 . S
C2525 H2537 0.930 . S
C2526 C2522 1.524 . S
C2526 H2538 0.956 . S
C2526 H2539 0.961 . S
C2526 H2540 0.961 . S
C2527 C2524 1.539 . S
C2527 H2541 0.958 . S
C2527 H2542 0.961 . S
C2527 H2543 0.960 . S
H2528 C2512 0.931 . S
H2529 C2517 0.929 . S
H2530 C2518 0.960 . S
H2531 C2518 0.962 . S
H2532 C2518 0.960 . S
H2533 C2519 0.961 . S
H2534 C2519 0.961 . S
H2535 C2519 0.961 . S
H2536 C2520 0.931 . S
H2537 C2525 0.930 . S
H2538 C2526 0.956 . S
H2539 C2526 0.961 . S
H2540 C2526 0.961 . S
H2541 C2527 0.958 . S
H2542 C2527 0.961 . S
H2543 C2527 0.960 . S
C2544 C2545 1.391 . S
C2544 C2546 1.394 . S
C2544 H2560 0.931 . S
C2545 C2544 1.391 . S
C2545 C2549 1.376 . S
C2546 C2544 1.394 . S
C2546 C2547 1.369 . S
C2546 C2550 1.531 . S
C2547 C2546 1.369 . S
C2547 C2548 1.410 . S
C2547 C2555 1.503 . S
C2548 C2547 1.410 . S
C2548 C2549 1.392 . S
C2548 C2551 1.511 . S
C2549 C2545 1.376 . S
C2549 C2548 1.392 . S
C2549 H2561 0.929 . S
C2550 C2546 1.531 . S
C2550 H2562 0.960 . S
C2550 H2563 0.962 . S
C2550 H2564 0.960 . S
C2551 C2548 1.511 . S
C2551 H2565 0.961 . S
C2551 H2566 0.961 . S
C2551 H2567 0.961 . S
C2552 C2553 1.370 . S
C2552 C2554 1.363 . S
C2552 H2568 0.931 . S
C2553 C2552 1.370 . S
C2553 C2557 1.408 . S
C2554 C2552 1.363 . S
C2554 C2555 1.370 . S
C2554 C2558 1.524 . S
C2555 C2547 1.503 . S
C2555 C2554 1.370 . S
C2555 C2556 1.403 . S
C2556 C2555 1.403 . S
C2556 C2557 1.404 . S
C2556 C2559 1.539 . S
C2557 C2553 1.408 . S
C2557 C2556 1.404 . S
C2557 H2569 0.930 . S
C2558 C2554 1.524 . S
C2558 H2570 0.956 . S
C2558 H2571 0.961 . S
C2558 H2572 0.961 . S
C2559 C2556 1.539 . S
C2559 H2573 0.958 . S
C2559 H2574 0.961 . S
C2559 H2575 0.960 . S
H2560 C2544 0.931 . S
H2561 C2549 0.929 . S
H2562 C2550 0.960 . S
H2563 C2550 0.962 . S
H2564 C2550 0.960 . S
H2565 C2551 0.961 . S
H2566 C2551 0.961 . S
H2567 C2551 0.961 . S
H2568 C2552 0.931 . S
H2569 C2557 0.930 . S
H2570 C2558 0.956 . S
H2571 C2558 0.961 . S
H2572 C2558 0.961 . S
H2573 C2559 0.958 . S
H2574 C2559 0.961 . S
H2575 C2559 0.960 . S
C2576 C2577 1.391 1_655 S
C2576 C2578 1.390 1_556 S
C2576 H2592 0.931 . S
C2577 C2576 1.391 1_455 S
C2577 C2581 1.376 . S
C2578 C2576 1.390 1_554 S
C2578 C2579 1.369 1_655 S
C2578 C2582 1.535 . S
C2579 C2578 1.369 1_455 S
C2579 C2580 1.410 1_554 S
C2579 C2587 1.503 . S
C2580 C2579 1.410 1_556 S
C2580 C2581 1.392 . S
C2580 C2583 1.511 . S
C2581 C2577 1.376 . S
C2581 C2580 1.392 . S
C2581 H2593 0.929 . S
C2582 C2578 1.535 . S
C2582 H2594 0.960 . S
C2582 H2595 0.962 . S
C2582 H2596 0.960 . S
C2583 C2580 1.511 . S
C2583 H2597 0.961 . S
C2583 H2598 0.961 . S
C2583 H2599 0.961 1_556 S
C2584 C2585 1.370 . S
C2584 C2586 1.363 . S
C2584 H2600 0.931 . S
C2585 C2584 1.370 . S
C2585 C2589 1.408 . S
C2586 C2584 1.363 . S
C2586 C2587 1.370 . S
C2586 C2590 1.524 1_554 S
C2587 C2579 1.503 . S
C2587 C2586 1.370 . S
C2587 C2588 1.403 . S
C2588 C2587 1.403 . S
C2588 C2589 1.404 . S
C2588 C2591 1.539 . S
C2589 C2585 1.408 . S
C2589 C2588 1.404 . S
C2589 H2601 0.930 . S
C2590 C2586 1.524 1_556 S
C2590 H2602 0.956 1_455 S
C2590 H2603 0.961 . S
C2590 H2604 0.961 . S
C2591 C2588 1.539 . S
C2591 H2605 0.958 . S
C2591 H2606 0.961 . S
C2591 H2607 0.960 . S
H2592 C2576 0.931 . S
H2593 C2581 0.929 . S
H2594 C2582 0.960 . S
H2595 C2582 0.962 . S
H2596 C2582 0.960 . S
H2597 C2583 0.961 . S
H2598 C2583 0.961 . S
H2599 C2583 0.961 1_554 S
H2600 C2584 0.931 . S
H2601 C2589 0.930 . S
H2602 C2590 0.956 1_655 S
H2603 C2590 0.961 . S
H2604 C2590 0.961 . S
H2605 C2591 0.958 . S
H2606 C2591 0.961 . S
H2607 C2591 0.960 . S
C2608 C2609 1.391 . S
C2608 C2610 1.394 1_455 S
C2608 H2624 0.931 . S
C2609 C2608 1.391 . S
C2609 C2613 1.376 1_455 S
C2610 C2608 1.394 1_655 S
C2610 C2611 1.369 . S
C2610 C2614 1.531 . S
C2611 C2610 1.369 . S
C2611 C2612 1.410 . S
C2611 C2619 1.503 . S
C2612 C2611 1.410 . S
C2612 C2613 1.392 . S
C2612 C2615 1.511 . S
C2613 C2609 1.376 1_655 S
C2613 C2612 1.392 . S
C2613 H2625 0.929 . S
C2614 C2610 1.531 . S
C2614 H2626 0.960 . S
C2614 H2627 0.962 . S
C2614 H2628 0.960 1_655 S
C2615 C2612 1.511 . S
C2615 H2629 0.961 . S
C2615 H2630 0.961 . S
C2615 H2631 0.961 . S
C2616 C2617 1.370 . S
C2616 C2618 1.363 . S
C2616 H2632 0.931 . S
C2617 C2616 1.370 . S
C2617 C2621 1.408 . S
C2618 C2616 1.363 . S
C2618 C2619 1.370 . S
C2618 C2622 1.524 . S
C2619 C2611 1.503 . S
C2619 C2618 1.370 . S
C2619 C2620 1.403 . S
C2620 C2619 1.403 . S
C2620 C2621 1.404 . S
C2620 C2623 1.539 . S
C2621 C2617 1.408 . S
C2621 C2620 1.404 . S
C2621 H2633 0.930 . S
C2622 C2618 1.524 . S
C2622 H2634 0.956 . S
C2622 H2635 0.961 . S
C2622 H2636 0.961 . S
C2623 C2620 1.539 . S
C2623 H2637 0.958 . S
C2623 H2638 0.961 . S
C2623 H2639 0.960 . S
H2624 C2608 0.931 . S
H2625 C2613 0.929 . S
H2626 C2614 0.960 . S
H2627 C2614 0.962 . S
H2628 C2614 0.960 1_455 S
H2629 C2615 0.961 . S
H2630 C2615 0.961 . S
H2631 C2615 0.961 . S
H2632 C2616 0.931 . S
H2633 C2621 0.930 . S
H2634 C2622 0.956 . S
H2635 C2622 0.961 . S
H2636 C2622 0.961 . S
H2637 C2623 0.958 . S
H2638 C2623 0.961 . S
H2639 C2623 0.960 . S
C2640 C2641 1.391 . S
C2640 C2642 1.394 . S
C2640 H2656 0.931 . S
C2641 C2640 1.391 . S
C2641 C2645 1.376 . S
C2642 C2640 1.394 . S
C2642 C2643 1.369 . S
C2642 C2646 1.531 . S
C2643 C2642 1.369 . S
C2643 C2644 1.410 . S
C2643 C2651 1.503 . S
C2644 C2643 1.410 . S
C2644 C2645 1.392 . S
C2644 C2647 1.511 . S
C2645 C2641 1.376 . S
C2645 C2644 1.392 . S
C2645 H2657 0.929 . S
C2646 C2642 1.531 . S
C2646 H2658 0.960 . S
C2646 H2659 0.962 . S
C2646 H2660 0.960 . S
C2647 C2644 1.511 . S
C2647 H2661 0.961 . S
C2647 H2662 0.961 . S
C2647 H2663 0.961 . S
C2648 C2649 1.370 . S
C2648 C2650 1.363 . S
C2648 H2664 0.931 . S
C2649 C2648 1.370 . S
C2649 C2653 1.408 . S
C2650 C2648 1.363 . S
C2650 C2651 1.370 . S
C2650 C2654 1.524 . S
C2651 C2643 1.503 . S
C2651 C2650 1.370 . S
C2651 C2652 1.403 . S
C2652 C2651 1.403 . S
C2652 C2653 1.404 . S
C2652 C2655 1.539 . S
C2653 C2649 1.408 . S
C2653 C2652 1.404 . S
C2653 H2665 0.930 . S
C2654 C2650 1.524 . S
C2654 H2666 0.956 . S
C2654 H2667 0.961 . S
C2654 H2668 0.961 . S
C2655 C2652 1.539 . S
C2655 H2669 0.958 . S
C2655 H2670 0.961 . S
C2655 H2671 0.960 . S
H2656 C2640 0.931 . S
H2657 C2645 0.929 . S
H2658 C2646 0.960 . S
H2659 C2646 0.962 . S
H2660 C2646 0.960 . S
H2661 C2647 0.961 . S
H2662 C2647 0.961 . S
H2663 C2647 0.961 . S
H2664 C2648 0.931 . S
H2665 C2653 0.930 . S
H2666 C2654 0.956 . S
H2667 C2654 0.961 . S
H2668 C2654 0.961 . S
H2669 C2655 0.958 . S
H2670 C2655 0.961 . S
H2671 C2655 0.960 . S
C2672 C2673 1.391 . S
C2672 C2674 1.394 . S
C2672 H2688 0.931 . S
C2673 C2672 1.391 . S
C2673 C2677 1.376 . S
C2674 C2672 1.394 . S
C2674 C2675 1.369 . S
C2674 C2678 1.531 . S
C2675 C2674 1.369 . S
C2675 C2676 1.410 . S
C2675 C2683 1.503 . S
C2676 C2675 1.410 . S
C2676 C2677 1.392 . S
C2676 C2679 1.511 . S
C2677 C2673 1.376 . S
C2677 C2676 1.392 . S
C2677 H2689 0.929 . S
C2678 C2674 1.531 . S
C2678 H2690 0.960 . S
C2678 H2691 0.962 . S
C2678 H2692 0.960 . S
C2679 C2676 1.511 . S
C2679 H2693 0.961 . S
C2679 H2694 0.961 . S
C2679 H2695 0.961 . S
C2680 C2681 1.370 . S
C2680 C2682 1.363 . S
C2680 H2696 0.931 . S
C2681 C2680 1.370 . S
C2681 C2685 1.408 . S
C2682 C2680 1.363 . S
C2682 C2683 1.370 . S
C2682 C2686 1.524 . S
C2683 C2675 1.503 . S
C2683 C2682 1.370 . S
C2683 C2684 1.403 . S
C2684 C2683 1.403 . S
C2684 C2685 1.404 . S
C2684 C2687 1.539 . S
C2685 C2681 1.408 . S
C2685 C2684 1.404 . S
C2685 H2697 0.930 . S
C2686 C2682 1.524 . S
C2686 H2698 0.956 . S
C2686 H2699 0.961 . S
C2686 H2700 0.961 . S
C2687 C2684 1.539 . S
C2687 H2701 0.958 . S
C2687 H2702 0.961 . S
C2687 H2703 0.960 . S
H2688 C2672 0.931 . S
H2689 C2677 0.929 . S
H2690 C2678 0.960 . S
H2691 C2678 0.962 . S
H2692 C2678 0.960 . S
H2693 C2679 0.961 . S
H2694 C2679 0.961 . S
H2695 C2679 0.961 . S
H2696 C2680 0.931 . S
H2697 C2685 0.930 . S
H2698 C2686 0.956 . S
H2699 C2686 0.961 . S
H2700 C2686 0.961 . S
H2701 C2687 0.958 . S
H2702 C2687 0.961 . S
H2703 C2687 0.960 . S
C2704 C2705 1.391 . S
C2704 C2706 1.394 . S
C2704 H2720 0.931 . S
C2705 C2704 1.391 . S
C2705 C2709 1.376 . S
C2706 C2704 1.394 . S
C2706 C2707 1.369 . S
C2706 C2710 1.531 1_455 S
C2707 C2706 1.369 . S
C2707 C2708 1.410 . S
C2707 C2715 1.503 . S
C2708 C2707 1.410 . S
C2708 C2709 1.392 . S
C2708 C2711 1.511 . S
C2709 C2705 1.376 . S
C2709 C2708 1.392 . S
C2709 H2721 0.929 . S
C2710 C2706 1.531 1_655 S
C2710 H2722 0.960 1_655 S
C2710 H2723 0.962 . S
C2710 H2724 0.960 . S
C2711 C2708 1.511 . S
C2711 H2725 0.961 . S
C2711 H2726 0.961 . S
C2711 H2727 0.961 . S
C2712 C2713 1.370 . S
C2712 C2714 1.363 . S
C2712 H2728 0.931 . S
C2713 C2712 1.370 . S
C2713 C2717 1.408 . S
C2714 C2712 1.363 . S
C2714 C2715 1.370 . S
C2714 C2718 1.524 . S
C2715 C2707 1.503 . S
C2715 C2714 1.370 . S
C2715 C2716 1.403 . S
C2716 C2715 1.403 . S
C2716 C2717 1.404 . S
C2716 C2719 1.539 . S
C2717 C2713 1.408 . S
C2717 C2716 1.404 . S
C2717 H2729 0.930 . S
C2718 C2714 1.524 . S
C2718 H2730 0.924 1_455 S
C2718 H2731 0.961 . S
C2718 H2732 0.961 . S
C2719 C2716 1.539 . S
C2719 H2733 0.958 . S
C2719 H2734 0.961 . S
C2719 H2735 0.960 . S
H2720 C2704 0.931 . S
H2721 C2709 0.929 . S
H2722 C2710 0.960 1_455 S
H2723 C2710 0.962 . S
H2724 C2710 0.960 . S
H2725 C2711 0.961 . S
H2726 C2711 0.961 . S
H2727 C2711 0.961 . S
H2728 C2712 0.931 . S
H2729 C2717 0.930 . S
H2730 C2718 0.924 1_655 S
H2731 C2718 0.961 . S
H2732 C2718 0.961 . S
H2733 C2719 0.958 . S
H2734 C2719 0.961 . S
H2735 C2719 0.960 . S
C2736 C2737 1.391 . S
C2736 C2738 1.394 . S
C2736 H2752 0.931 . S
C2737 C2736 1.391 . S
C2737 C2741 1.376 . S
C2738 C2736 1.394 . S
C2738 C2739 1.369 . S
C2738 C2742 1.531 . S
C2739 C2738 1.369 . S
C2739 C2740 1.410 . S
C2739 C2747 1.503 . S
C2740 C2739 1.410 . S
C2740 C2741 1.392 . S
C2740 C2743 1.511 . S
C2741 C2737 1.376 . S
C2741 C2740 1.392 . S
C2741 H2753 0.929 . S
C2742 C2738 1.531 . S
C2742 H2754 0.960 . S
C2742 H2755 0.962 . S
C2742 H2756 0.960 . S
C2743 C2740 1.511 . S
C2743 H2757 0.961 . S
C2743 H2758 0.961 . S
C2743 H2759 0.961 . S
C2744 C2745 1.370 . S
C2744 C2746 1.363 . S
C2744 H2760 0.931 . S
C2745 C2744 1.370 . S
C2745 C2749 1.408 . S
C2746 C2744 1.363 . S
C2746 C2747 1.370 . S
C2746 C2750 1.524 . S
C2747 C2739 1.503 . S
C2747 C2746 1.370 . S
C2747 C2748 1.403 . S
C2748 C2747 1.403 . S
C2748 C2749 1.404 . S
C2748 C2751 1.539 . S
C2749 C2745 1.408 . S
C2749 C2748 1.404 . S
C2749 H2761 0.930 . S
C2750 C2746 1.524 . S
C2750 H2762 0.956 . S
C2750 H2763 0.961 . S
C2750 H2764 0.961 . S
C2751 C2748 1.539 . S
C2751 H2765 0.958 . S
C2751 H2766 0.961 . S
C2751 H2767 0.960 . S
H2752 C2736 0.931 . S
H2753 C2741 0.929 . S
H2754 C2742 0.960 . S
H2755 C2742 0.962 . S
H2756 C2742 0.960 . S
H2757 C2743 0.961 . S
H2758 C2743 0.961 . S
H2759 C2743 0.961 . S
H2760 C2744 0.931 . S
H2761 C2749 0.930 . S
H2762 C2750 0.956 . S
H2763 C2750 0.961 . S
H2764 C2750 0.961 . S
H2765 C2751 0.958 . S
H2766 C2751 0.961 . S
H2767 C2751 0.960 . S
C2768 C2769 1.391 . S
C2768 C2770 1.394 . S
C2768 H2784 0.931 . S
C2769 C2768 1.391 . S
C2769 C2773 1.376 . S
C2770 C2768 1.394 . S
C2770 C2771 1.369 . S
C2770 C2774 1.531 . S
C2771 C2770 1.369 . S
C2771 C2772 1.410 . S
C2771 C2779 1.503 . S
C2772 C2771 1.410 . S
C2772 C2773 1.392 . S
C2772 C2775 1.511 . S
C2773 C2769 1.376 . S
C2773 C2772 1.392 . S
C2773 H2785 0.929 . S
C2774 C2770 1.531 . S
C2774 H2786 0.960 . S
C2774 H2787 0.962 . S
C2774 H2788 0.960 . S
C2775 C2772 1.511 . S
C2775 H2789 0.961 . S
C2775 H2790 0.961 . S
C2775 H2791 0.961 . S
C2776 C2777 1.370 . S
C2776 C2778 1.363 . S
C2776 H2792 0.931 . S
C2777 C2776 1.370 . S
C2777 C2781 1.408 . S
C2778 C2776 1.363 . S
C2778 C2779 1.370 . S
C2778 C2782 1.524 . S
C2779 C2771 1.503 . S
C2779 C2778 1.370 . S
C2779 C2780 1.403 . S
C2780 C2779 1.403 . S
C2780 C2781 1.404 . S
C2780 C2783 1.539 . S
C2781 C2777 1.408 . S
C2781 C2780 1.404 . S
C2781 H2793 0.930 . S
C2782 C2778 1.524 . S
C2782 H2794 0.956 . S
C2782 H2795 0.961 . S
C2782 H2796 0.961 . S
C2783 C2780 1.539 . S
C2783 H2797 0.958 . S
C2783 H2798 0.961 . S
C2783 H2799 0.960 . S
H2784 C2768 0.931 . S
H2785 C2773 0.929 . S
H2786 C2774 0.960 . S
H2787 C2774 0.962 . S
H2788 C2774 0.960 . S
H2789 C2775 0.961 . S
H2790 C2775 0.961 . S
H2791 C2775 0.961 . S
H2792 C2776 0.931 . S
H2793 C2781 0.930 . S
H2794 C2782 0.956 . S
H2795 C2782 0.961 . S
H2796 C2782 0.961 . S
H2797 C2783 0.958 . S
H2798 C2783 0.961 . S
H2799 C2783 0.960 . S
C2800 C2801 1.391 1_556 S
C2800 C2802 1.394 . S
C2800 H2816 0.931 . S
C2801 C2800 1.391 1_554 S
C2801 C2805 1.376 . S
C2802 C2800 1.394 . S
C2802 C2803 1.369 . S
C2802 C2806 1.531 . S
C2803 C2802 1.369 . S
C2803 C2804 1.410 . S
C2803 C2811 1.503 . S
C2804 C2803 1.410 . S
C2804 C2805 1.392 1_556 S
C2804 C2807 1.511 . S
C2805 C2801 1.376 . S
C2805 C2804 1.392 1_554 S
C2805 H2817 0.929 . S
C2806 C2802 1.531 . S
C2806 H2818 0.960 . S
C2806 H2819 0.962 . S
C2806 H2820 0.960 . S
C2807 C2804 1.511 . S
C2807 H2821 0.961 . S
C2807 H2822 0.961 . S
C2807 H2823 0.961 . S
C2808 C2809 1.370 . S
C2808 C2810 1.363 . S
C2808 H2824 0.931 . S
C2809 C2808 1.370 . S
C2809 C2813 1.408 . S
C2810 C2808 1.363 . S
C2810 C2811 1.370 . S
C2810 C2814 1.524 . S
C2811 C2803 1.503 . S
C2811 C2810 1.370 . S
C2811 C2812 1.403 . S
C2812 C2811 1.403 . S
C2812 C2813 1.404 . S
C2812 C2815 1.539 . S
C2813 C2809 1.408 . S
C2813 C2812 1.404 . S
C2813 H2825 0.930 . S
C2814 C2810 1.524 . S
C2814 H2826 0.956 . S
C2814 H2827 0.961 . S
C2814 H2828 0.961 . S
C2815 C2812 1.539 . S
C2815 H2829 0.958 . S
C2815 H2830 0.961 . S
C2815 H2831 0.960 . S
H2816 C2800 0.931 . S
H2817 C2805 0.929 . S
H2818 C2806 0.960 . S
H2819 C2806 0.962 . S
H2820 C2806 0.960 . S
H2821 C2807 0.961 . S
H2822 C2807 0.961 . S
H2823 C2807 0.961 . S
H2824 C2808 0.931 . S
H2825 C2813 0.930 . S
H2826 C2814 0.956 . S
H2827 C2814 0.961 . S
H2828 C2814 0.961 . S
H2829 C2815 0.958 . S
H2830 C2815 0.961 . S
H2831 C2815 0.960 . S
C2832 C2833 1.391 . S
C2832 C2834 1.394 . S
C2832 H2848 0.931 . S
C2833 C2832 1.391 . S
C2833 C2837 1.376 . S
C2834 C2832 1.394 . S
C2834 C2835 1.369 . S
C2834 C2838 1.531 . S
C2835 C2834 1.369 . S
C2835 C2836 1.410 . S
C2835 C2843 1.503 . S
C2836 C2835 1.410 . S
C2836 C2837 1.392 . S
C2836 C2839 1.511 . S
C2837 C2833 1.376 . S
C2837 C2836 1.392 . S
C2837 H2849 0.929 . S
C2838 C2834 1.531 . S
C2838 H2850 0.960 . S
C2838 H2851 0.962 . S
C2838 H2852 0.960 . S
C2839 C2836 1.511 . S
C2839 H2853 0.961 . S
C2839 H2854 0.961 . S
C2839 H2855 0.961 . S
C2840 C2841 1.370 . S
C2840 C2842 1.363 . S
C2840 H2856 0.931 . S
C2841 C2840 1.370 . S
C2841 C2845 1.408 . S
C2842 C2840 1.363 . S
C2842 C2843 1.370 . S
C2842 C2846 1.524 . S
C2843 C2835 1.503 . S
C2843 C2842 1.370 . S
C2843 C2844 1.403 . S
C2844 C2843 1.403 . S
C2844 C2845 1.404 . S
C2844 C2847 1.539 . S
C2845 C2841 1.408 . S
C2845 C2844 1.404 . S
C2845 H2857 0.930 . S
C2846 C2842 1.524 . S
C2846 H2858 0.956 . S
C2846 H2859 0.961 . S
C2846 H2860 0.961 . S
C2847 C2844 1.539 . S
C2847 H2861 0.958 . S
C2847 H2862 0.961 . S
C2847 H2863 0.960 . S
H2848 C2832 0.931 . S
H2849 C2837 0.929 . S
H2850 C2838 0.960 . S
H2851 C2838 0.962 . S
H2852 C2838 0.960 . S
H2853 C2839 0.961 . S
H2854 C2839 0.961 . S
H2855 C2839 0.961 . S
H2856 C2840 0.931 . S
H2857 C2845 0.930 . S
H2858 C2846 0.956 . S
H2859 C2846 0.961 . S
H2860 C2846 0.961 . S
H2861 C2847 0.958 . S
H2862 C2847 0.961 . S
H2863 C2847 0.960 . S
C2864 C2865 1.391 . S
C2864 C2866 1.394 . S
C2864 H2880 0.931 . S
C2865 C2864 1.391 . S
C2865 C2869 1.376 . S
C2866 C2864 1.394 . S
C2866 C2867 1.369 . S
C2866 C2870 1.531 . S
C2867 C2866 1.369 . S
C2867 C2868 1.410 . S
C2867 C2875 1.503 . S
C2868 C2867 1.410 . S
C2868 C2869 1.392 . S
C2868 C2871 1.511 . S
C2869 C2865 1.376 . S
C2869 C2868 1.392 . S
C2869 H2881 0.929 . S
C2870 C2866 1.531 . S
C2870 H2882 0.960 . S
C2870 H2883 0.962 . S
C2870 H2884 0.960 . S
C2871 C2868 1.511 . S
C2871 H2885 0.961 . S
C2871 H2886 0.961 . S
C2871 H2887 0.961 . S
C2872 C2873 1.370 . S
C2872 C2874 1.363 . S
C2872 H2888 0.931 . S
C2873 C2872 1.370 . S
C2873 C2877 1.408 . S
C2874 C2872 1.363 . S
C2874 C2875 1.370 . S
C2874 C2878 1.524 . S
C2875 C2867 1.503 . S
C2875 C2874 1.370 . S
C2875 C2876 1.403 . S
C2876 C2875 1.403 . S
C2876 C2877 1.404 . S
C2876 C2879 1.539 . S
C2877 C2873 1.408 . S
C2877 C2876 1.404 . S
C2877 H2889 0.930 . S
C2878 C2874 1.524 . S
C2878 H2890 0.956 . S
C2878 H2891 0.961 . S
C2878 H2892 0.961 . S
C2879 C2876 1.539 . S
C2879 H2893 0.958 . S
C2879 H2894 0.961 . S
C2879 H2895 0.960 . S
H2880 C2864 0.931 . S
H2881 C2869 0.929 . S
H2882 C2870 0.960 . S
H2883 C2870 0.962 . S
H2884 C2870 0.960 . S
H2885 C2871 0.961 . S
H2886 C2871 0.961 . S
H2887 C2871 0.961 . S
H2888 C2872 0.931 . S
H2889 C2877 0.930 . S
H2890 C2878 0.956 . S
H2891 C2878 0.961 . S
H2892 C2878 0.961 . S
H2893 C2879 0.958 . S
H2894 C2879 0.961 . S
H2895 C2879 0.960 . S
C2896 C2897 1.391 . S
C2896 C2898 1.394 . S
C2896 H2912 0.931 . S
C2897 C2896 1.391 . S
C2897 C2901 1.376 . S
C2898 C2896 1.394 . S
C2898 C2899 1.369 . S
C2898 C2902 1.531 . S
C2899 C2898 1.369 . S
C2899 C2900 1.410 . S
C2899 C2907 1.503 . S
C2900 C2899 1.410 . S
C2900 C2901 1.392 . S
C2900 C2903 1.511 . S
C2901 C2897 1.376 . S
C2901 C2900 1.392 . S
C2901 H2913 0.929 . S
C2902 C2898 1.531 . S
C2902 H2914 0.960 . S
C2902 H2915 0.962 . S
C2902 H2916 0.960 . S
C2903 C2900 1.511 . S
C2903 H2917 0.961 . S
C2903 H2918 0.961 . S
C2903 H2919 0.961 . S
C2904 C2905 1.370 . S
C2904 C2906 1.363 . S
C2904 H2920 0.931 . S
C2905 C2904 1.370 . S
C2905 C2909 1.408 . S
C2906 C2904 1.363 . S
C2906 C2907 1.370 . S
C2906 C2910 1.524 . S
C2907 C2899 1.503 . S
C2907 C2906 1.370 . S
C2907 C2908 1.403 . S
C2908 C2907 1.403 . S
C2908 C2909 1.404 . S
C2908 C2911 1.539 . S
C2909 C2905 1.408 . S
C2909 C2908 1.404 . S
C2909 H2921 0.930 . S
C2910 C2906 1.524 . S
C2910 H2922 0.956 . S
C2910 H2923 0.961 . S
C2910 H2924 0.961 . S
C2911 C2908 1.539 . S
C2911 H2925 0.958 . S
C2911 H2926 0.961 . S
C2911 H2927 0.960 . S
H2912 C2896 0.931 . S
H2913 C2901 0.929 . S
H2914 C2902 0.960 . S
H2915 C2902 0.962 . S
H2916 C2902 0.960 . S
H2917 C2903 0.961 . S
H2918 C2903 0.961 . S
H2919 C2903 0.961 . S
H2920 C2904 0.931 . S
H2921 C2909 0.930 . S
H2922 C2910 0.956 . S
H2923 C2910 0.961 . S
H2924 C2910 0.961 . S
H2925 C2911 0.958 . S
H2926 C2911 0.961 . S
H2927 C2911 0.960 . S
C2928 C2929 1.391 . S
C2928 C2930 1.394 . S
C2928 H2944 0.931 . S
C2929 C2928 1.391 . S
C2929 C2933 1.376 . S
C2930 C2928 1.394 . S
C2930 C2931 1.369 . S
C2930 C2934 1.531 . S
C2931 C2930 1.369 . S
C2931 C2932 1.410 . S
C2931 C2939 1.503 . S
C2932 C2931 1.410 . S
C2932 C2933 1.392 . S
C2932 C2935 1.511 . S
C2933 C2929 1.376 . S
C2933 C2932 1.392 . S
C2933 H2945 0.929 . S
C2934 C2930 1.531 . S
C2934 H2946 0.960 . S
C2934 H2947 0.962 . S
C2934 H2948 0.960 . S
C2935 C2932 1.511 . S
C2935 H2949 0.961 . S
C2935 H2950 0.961 . S
C2935 H2951 0.961 . S
C2936 C2937 1.370 . S
C2936 C2938 1.363 . S
C2936 H2952 0.931 . S
C2937 C2936 1.370 . S
C2937 C2941 1.408 . S
C2938 C2936 1.363 . S
C2938 C2939 1.370 . S
C2938 C2942 1.524 . S
C2939 C2931 1.503 . S
C2939 C2938 1.370 . S
C2939 C2940 1.403 . S
C2940 C2939 1.403 . S
C2940 C2941 1.404 . S
C2940 C2943 1.539 . S
C2941 C2937 1.408 . S
C2941 C2940 1.404 . S
C2941 H2953 0.930 . S
C2942 C2938 1.524 . S
C2942 H2954 0.956 . S
C2942 H2955 0.961 . S
C2942 H2956 0.961 . S
C2943 C2940 1.539 . S
C2943 H2957 0.958 . S
C2943 H2958 0.961 . S
C2943 H2959 0.960 . S
H2944 C2928 0.931 . S
H2945 C2933 0.929 . S
H2946 C2934 0.960 . S
H2947 C2934 0.962 . S
H2948 C2934 0.960 . S
H2949 C2935 0.961 . S
H2950 C2935 0.961 . S
H2951 C2935 0.961 . S
H2952 C2936 0.931 . S
H2953 C2941 0.930 . S
H2954 C2942 0.956 . S
H2955 C2942 0.961 . S
H2956 C2942 0.961 . S
H2957 C2943 0.958 . S
H2958 C2943 0.961 . S
H2959 C2943 0.960 . S
C2960 C2961 1.391 . S
C2960 C2962 1.394 . S
C2960 H2976 0.931 . S
C2961 C2960 1.391 . S
C2961 C2965 1.376 . S
C2962 C2960 1.394 . S
C2962 C2963 1.369 . S
C2962 C2966 1.531 . S
C2963 C2962 1.369 . S
C2963 C2964 1.410 . S
C2963 C2971 1.503 . S
C2964 C2963 1.410 . S
C2964 C2965 1.392 . S
C2964 C2967 1.511 . S
C2965 C2961 1.376 . S
C2965 C2964 1.392 . S
C2965 H2977 0.929 . S
C2966 C2962 1.531 . S
C2966 H2978 0.960 . S
C2966 H2979 0.962 . S
C2966 H2980 0.960 . S
C2967 C2964 1.511 . S
C2967 H2981 0.961 . S
C2967 H2982 0.961 . S
C2967 H2983 0.961 . S
C2968 C2969 1.370 . S
C2968 C2970 1.363 . S
C2968 H2984 0.931 . S
C2969 C2968 1.370 . S
C2969 C2973 1.408 . S
C2970 C2968 1.363 . S
C2970 C2971 1.370 . S
C2970 C2974 1.524 . S
C2971 C2963 1.503 . S
C2971 C2970 1.370 . S
C2971 C2972 1.403 . S
C2972 C2971 1.403 . S
C2972 C2973 1.404 . S
C2972 C2975 1.539 . S
C2973 C2969 1.408 . S
C2973 C2972 1.404 . S
C2973 H2985 0.930 . S
C2974 C2970 1.524 . S
C2974 H2986 0.956 . S
C2974 H2987 0.961 . S
C2974 H2988 0.961 . S
C2975 C2972 1.539 . S
C2975 H2989 0.958 . S
C2975 H2990 0.961 . S
C2975 H2991 0.960 . S
H2976 C2960 0.931 . S
H2977 C2965 0.929 . S
H2978 C2966 0.960 . S
H2979 C2966 0.962 . S
H2980 C2966 0.960 . S
H2981 C2967 0.961 . S
H2982 C2967 0.961 . S
H2983 C2967 0.961 . S
H2984 C2968 0.931 . S
H2985 C2973 0.930 . S
H2986 C2974 0.956 . S
H2987 C2974 0.961 . S
H2988 C2974 0.961 . S
H2989 C2975 0.958 . S
H2990 C2975 0.961 . S
H2991 C2975 0.960 . S
C2992 C2993 1.391 . S
C2992 C2994 1.394 . S
C2992 H3008 0.931 . S
C2993 C2992 1.391 . S
C2993 C2997 1.376 . S
C2994 C2992 1.394 . S
C2994 C2995 1.369 . S
C2994 C2998 1.531 . S
C2995 C2994 1.369 . S
C2995 C2996 1.410 . S
C2995 C3003 1.503 . S
C2996 C2995 1.410 . S
C2996 C2997 1.392 . S
C2996 C2999 1.511 . S
C2997 C2993 1.376 . S
C2997 C2996 1.392 . S
C2997 H3009 0.929 . S
C2998 C2994 1.531 . S
C2998 H3010 0.960 . S
C2998 H3011 0.962 . S
C2998 H3012 0.960 . S
C2999 C2996 1.511 . S
C2999 H3013 0.961 . S
C2999 H3014 0.961 . S
C2999 H3015 0.961 . S
C3000 C3001 1.370 . S
C3000 C3002 1.363 . S
C3000 H3016 0.931 . S
C3001 C3000 1.370 . S
C3001 C3005 1.408 . S
C3002 C3000 1.363 . S
C3002 C3003 1.370 . S
C3002 C3006 1.524 . S
C3003 C2995 1.503 . S
C3003 C3002 1.370 . S
C3003 C3004 1.403 . S
C3004 C3003 1.403 . S
C3004 C3005 1.404 . S
C3004 C3007 1.539 . S
C3005 C3001 1.408 . S
C3005 C3004 1.404 . S
C3005 H3017 0.930 . S
C3006 C3002 1.524 . S
C3006 H3018 0.956 . S
C3006 H3019 0.961 . S
C3006 H3020 0.961 . S
C3007 C3004 1.539 . S
C3007 H3021 0.958 . S
C3007 H3022 0.961 . S
C3007 H3023 0.960 . S
H3008 C2992 0.931 . S
H3009 C2997 0.929 . S
H3010 C2998 0.960 . S
H3011 C2998 0.962 . S
H3012 C2998 0.960 . S
H3013 C2999 0.961 . S
H3014 C2999 0.961 . S
H3015 C2999 0.961 . S
H3016 C3000 0.931 . S
H3017 C3005 0.930 . S
H3018 C3006 0.956 . S
H3019 C3006 0.961 . S
H3020 C3006 0.961 . S
H3021 C3007 0.958 . S
H3022 C3007 0.961 . S
H3023 C3007 0.960 . S
C3024 C3025 1.391 . S
C3024 C3026 1.394 . S
C3024 H3040 0.931 . S
C3025 C3024 1.391 . S
C3025 C3029 1.376 . S
C3026 C3024 1.394 . S
C3026 C3027 1.369 . S
C3026 C3030 1.531 . S
C3027 C3026 1.369 . S
C3027 C3028 1.410 . S
C3027 C3035 1.503 . S
C3028 C3027 1.410 . S
C3028 C3029 1.392 . S
C3028 C3031 1.511 . S
C3029 C3025 1.376 . S
C3029 C3028 1.392 . S
C3029 H3041 0.929 . S
C3030 C3026 1.531 . S
C3030 H3042 0.960 . S
C3030 H3043 0.962 . S
C3030 H3044 0.960 . S
C3031 C3028 1.511 . S
C3031 H3045 0.961 . S
C3031 H3046 0.961 . S
C3031 H3047 0.961 . S
C3032 C3033 1.370 . S
C3032 C3034 1.363 . S
C3032 H3048 0.931 . S
C3033 C3032 1.370 . S
C3033 C3037 1.408 . S
C3034 C3032 1.363 . S
C3034 C3035 1.370 . S
C3034 C3038 1.524 . S
C3035 C3027 1.503 . S
C3035 C3034 1.370 . S
C3035 C3036 1.403 . S
C3036 C3035 1.403 . S
C3036 C3037 1.404 . S
C3036 C3039 1.539 . S
C3037 C3033 1.408 . S
C3037 C3036 1.404 . S
C3037 H3049 0.930 . S
C3038 C3034 1.524 . S
C3038 H3050 0.956 . S
C3038 H3051 0.961 . S
C3038 H3052 0.961 . S
C3039 C3036 1.539 . S
C3039 H3053 0.958 . S
C3039 H3054 0.961 . S
C3039 H3055 0.960 . S
H3040 C3024 0.931 . S
H3041 C3029 0.929 . S
H3042 C3030 0.960 . S
H3043 C3030 0.962 . S
H3044 C3030 0.960 . S
H3045 C3031 0.961 . S
H3046 C3031 0.961 . S
H3047 C3031 0.961 . S
H3048 C3032 0.931 . S
H3049 C3037 0.930 . S
H3050 C3038 0.956 . S
H3051 C3038 0.961 . S
H3052 C3038 0.961 . S
H3053 C3039 0.958 . S
H3054 C3039 0.961 . S
H3055 C3039 0.960 . S
C3056 C3057 1.391 . S
C3056 C3058 1.394 . S
C3056 H3072 0.931 . S
C3057 C3056 1.391 . S
C3057 C3061 1.376 . S
C3058 C3056 1.394 . S
C3058 C3059 1.369 . S
C3058 C3062 1.531 . S
C3059 C3058 1.369 . S
C3059 C3060 1.410 . S
C3059 C3067 1.503 . S
C3060 C3059 1.410 . S
C3060 C3061 1.392 . S
C3060 C3063 1.511 . S
C3061 C3057 1.376 . S
C3061 C3060 1.392 . S
C3061 H3073 0.929 . S
C3062 C3058 1.531 . S
C3062 H3074 0.960 . S
C3062 H3075 0.962 . S
C3062 H3076 0.960 . S
C3063 C3060 1.511 . S
C3063 H3077 0.961 . S
C3063 H3078 0.961 . S
C3063 H3079 0.961 . S
C3064 C3065 1.370 . S
C3064 C3066 1.363 . S
C3064 H3080 0.931 . S
C3065 C3064 1.370 . S
C3065 C3069 1.408 . S
C3066 C3064 1.363 . S
C3066 C3067 1.370 . S
C3066 C3070 1.524 . S
C3067 C3059 1.503 . S
C3067 C3066 1.370 . S
C3067 C3068 1.403 . S
C3068 C3067 1.403 . S
C3068 C3069 1.404 . S
C3068 C3071 1.539 . S
C3069 C3065 1.408 . S
C3069 C3068 1.404 . S
C3069 H3081 0.930 . S
C3070 C3066 1.524 . S
C3070 H3082 0.956 . S
C3070 H3083 0.961 . S
C3070 H3084 0.961 . S
C3071 C3068 1.539 . S
C3071 H3085 0.958 . S
C3071 H3086 0.961 . S
C3071 H3087 0.960 . S
H3072 C3056 0.931 . S
H3073 C3061 0.929 . S
H3074 C3062 0.960 . S
H3075 C3062 0.962 . S
H3076 C3062 0.960 . S
H3077 C3063 0.961 . S
H3078 C3063 0.961 . S
H3079 C3063 0.961 . S
H3080 C3064 0.931 . S
H3081 C3069 0.930 . S
H3082 C3070 0.956 . S
H3083 C3070 0.961 . S
H3084 C3070 0.961 . S
H3085 C3071 0.958 . S
H3086 C3071 0.961 . S
H3087 C3071 0.960 . S
C3088 C3089 1.391 . S
C3088 C3090 1.394 . S
C3088 H3104 0.931 . S
C3089 C3088 1.391 . S
C3089 C3093 1.376 . S
C3090 C3088 1.394 . S
C3090 C3091 1.369 . S
C3090 C3094 1.531 . S
C3091 C3090 1.369 . S
C3091 C3092 1.410 . S
C3091 C3099 1.503 . S
C3092 C3091 1.410 . S
C3092 C3093 1.392 . S
C3092 C3095 1.511 . S
C3093 C3089 1.376 . S
C3093 C3092 1.392 . S
C3093 H3105 0.929 1_565 S
C3094 C3090 1.531 . S
C3094 H3106 0.960 . S
C3094 H3107 0.962 . S
C3094 H3108 0.960 . S
C3095 C3092 1.511 . S
C3095 H3109 0.961 . S
C3095 H3110 0.961 . S
C3095 H3111 0.961 1_565 S
C3096 C3097 1.370 . S
C3096 C3098 1.363 . S
C3096 H3112 0.931 . S
C3097 C3096 1.370 . S
C3097 C3101 1.408 . S
C3098 C3096 1.363 . S
C3098 C3099 1.370 . S
C3098 C3102 1.524 . S
C3099 C3091 1.503 . S
C3099 C3098 1.370 . S
C3099 C3100 1.403 . S
C3100 C3099 1.403 . S
C3100 C3101 1.404 . S
C3100 C3103 1.539 . S
C3101 C3097 1.408 . S
C3101 C3100 1.404 . S
C3101 H3113 0.930 . S
C3102 C3098 1.524 . S
C3102 H3114 0.956 . S
C3102 H3115 0.961 . S
C3102 H3116 0.961 . S
C3103 C3100 1.539 . S
C3103 H3117 0.958 . S
C3103 H3118 0.961 1_565 S
C3103 H3119 0.960 1_565 S
H3104 C3088 0.931 . S
H3105 C3093 0.929 1_545 S
H3106 C3094 0.960 . S
H3107 C3094 0.962 . S
H3108 C3094 0.960 . S
H3109 C3095 0.961 . S
H3110 C3095 0.961 . S
H3111 C3095 0.961 1_545 S
H3112 C3096 0.931 . S
H3113 C3101 0.930 . S
H3114 C3102 0.956 . S
H3115 C3102 0.961 . S
H3116 C3102 0.961 . S
H3117 C3103 0.958 . S
H3118 C3103 0.961 1_545 S
H3119 C3103 0.960 1_545 S
C3120 C3121 1.391 . S
C3120 C3122 1.394 . S
C3120 H3136 0.931 . S
C3121 C3120 1.391 . S
C3121 C3125 1.376 1_554 S
C3122 C3120 1.394 . S
C3122 C3123 1.369 . S
C3122 C3126 1.531 . S
C3123 C3122 1.369 . S
C3123 C3124 1.410 1_554 S
C3123 C3131 1.503 . S
C3124 C3123 1.410 1_556 S
C3124 C3125 1.392 . S
C3124 C3127 1.511 . S
C3125 C3121 1.376 1_556 S
C3125 C3124 1.392 . S
C3125 H3137 0.929 . S
C3126 C3122 1.531 . S
C3126 H3138 0.960 . S
C3126 H3139 0.962 . S
C3126 H3140 0.960 . S
C3127 C3124 1.511 . S
C3127 H3141 0.961 . S
C3127 H3142 0.961 . S
C3127 H3143 0.961 . S
C3128 C3129 1.370 . S
C3128 C3130 1.363 . S
C3128 H3144 0.931 . S
C3129 C3128 1.370 . S
C3129 C3133 1.408 1_545 S
C3130 C3128 1.363 . S
C3130 C3131 1.370 1_545 S
C3130 C3134 1.524 . S
C3131 C3123 1.503 . S
C3131 C3130 1.370 1_565 S
C3131 C3132 1.403 . S
C3132 C3131 1.403 . S
C3132 C3133 1.404 . S
C3132 C3135 1.539 . S
C3133 C3129 1.408 1_565 S
C3133 C3132 1.404 . S
C3133 H3145 0.930 . S
C3134 C3130 1.524 . S
C3134 H3146 0.956 . S
C3134 H3147 0.961 . S
C3134 H3148 0.961 . S
C3135 C3132 1.539 . S
C3135 H3149 0.958 . S
C3135 H3150 0.961 . S
C3135 H3151 0.960 . S
H3136 C3120 0.931 . S
H3137 C3125 0.929 . S
H3138 C3126 0.960 . S
H3139 C3126 0.962 . S
H3140 C3126 0.960 . S
H3141 C3127 0.961 . S
H3142 C3127 0.961 . S
H3143 C3127 0.961 . S
H3144 C3128 0.931 . S
H3145 C3133 0.930 . S
H3146 C3134 0.956 . S
H3147 C3134 0.961 . S
H3148 C3134 0.961 . S
H3149 C3135 0.958 . S
H3150 C3135 0.961 . S
H3151 C3135 0.960 . S
C3152 C3153 1.391 . S
C3152 C3154 1.394 . S
C3152 H3168 0.931 . S
C3153 C3152 1.391 . S
C3153 C3157 1.376 . S
C3154 C3152 1.394 . S
C3154 C3155 1.369 . S
C3154 C3158 1.531 . S
C3155 C3154 1.369 . S
C3155 C3156 1.410 . S
C3155 C3163 1.503 . S
C3156 C3155 1.410 . S
C3156 C3157 1.392 . S
C3156 C3159 1.511 . S
C3157 C3153 1.376 . S
C3157 C3156 1.392 . S
C3157 H3169 0.929 . S
C3158 C3154 1.531 . S
C3158 H3170 0.960 . S
C3158 H3171 0.962 . S
C3158 H3172 0.960 . S
C3159 C3156 1.511 . S
C3159 H3173 0.961 . S
C3159 H3174 0.961 . S
C3159 H3175 0.961 . S
C3160 C3161 1.370 . S
C3160 C3162 1.363 . S
C3160 H3176 0.931 . S
C3161 C3160 1.370 . S
C3161 C3165 1.408 . S
C3162 C3160 1.363 . S
C3162 C3163 1.370 . S
C3162 C3166 1.524 . S
C3163 C3155 1.503 . S
C3163 C3162 1.370 . S
C3163 C3164 1.403 . S
C3164 C3163 1.403 . S
C3164 C3165 1.404 . S
C3164 C3167 1.539 . S
C3165 C3161 1.408 . S
C3165 C3164 1.404 . S
C3165 H3177 0.930 . S
C3166 C3162 1.524 . S
C3166 H3178 0.956 . S
C3166 H3179 0.961 . S
C3166 H3180 0.961 . S
C3167 C3164 1.539 . S
C3167 H3181 0.958 . S
C3167 H3182 0.961 . S
C3167 H3183 0.960 . S
H3168 C3152 0.931 . S
H3169 C3157 0.929 . S
H3170 C3158 0.960 . S
H3171 C3158 0.962 . S
H3172 C3158 0.960 . S
H3173 C3159 0.961 . S
H3174 C3159 0.961 . S
H3175 C3159 0.961 . S
H3176 C3160 0.931 . S
H3177 C3165 0.930 . S
H3178 C3166 0.956 . S
H3179 C3166 0.961 . S
H3180 C3166 0.961 . S
H3181 C3167 0.958 . S
H3182 C3167 0.961 . S
H3183 C3167 0.960 . S
C3184 C3185 1.391 . S
C3184 C3186 1.394 . S
C3184 H3200 0.931 . S
C3185 C3184 1.391 . S
C3185 C3189 1.376 . S
C3186 C3184 1.394 . S
C3186 C3187 1.369 . S
C3186 C3190 1.531 . S
C3187 C3186 1.369 . S
C3187 C3188 1.410 . S
C3187 C3195 1.503 . S
C3188 C3187 1.410 . S
C3188 C3189 1.392 . S
C3188 C3191 1.511 . S
C3189 C3185 1.376 . S
C3189 C3188 1.392 . S
C3189 H3201 0.929 . S
C3190 C3186 1.531 . S
C3190 H3202 0.960 . S
C3190 H3203 0.962 . S
C3190 H3204 0.960 . S
C3191 C3188 1.511 . S
C3191 H3205 0.961 . S
C3191 H3206 0.961 . S
C3191 H3207 0.961 . S
C3192 C3193 1.370 . S
C3192 C3194 1.363 . S
C3192 H3208 0.931 . S
C3193 C3192 1.370 . S
C3193 C3197 1.408 . S
C3194 C3192 1.363 . S
C3194 C3195 1.370 . S
C3194 C3198 1.524 . S
C3195 C3187 1.503 . S
C3195 C3194 1.370 . S
C3195 C3196 1.403 . S
C3196 C3195 1.403 . S
C3196 C3197 1.404 . S
C3196 C3199 1.539 . S
C3197 C3193 1.408 . S
C3197 C3196 1.404 . S
C3197 H3209 0.930 . S
C3198 C3194 1.524 . S
C3198 H3210 0.956 . S
C3198 H3211 0.961 . S
C3198 H3212 0.961 . S
C3199 C3196 1.539 . S
C3199 H3213 0.958 . S
C3199 H3214 0.961 . S
C3199 H3215 0.960 . S
H3200 C3184 0.931 . S
H3201 C3189 0.929 . S
H3202 C3190 0.960 . S
H3203 C3190 0.962 . S
H3204 C3190 0.960 . S
H3205 C3191 0.961 . S
H3206 C3191 0.961 . S
H3207 C3191 0.961 . S
H3208 C3192 0.931 . S
H3209 C3197 0.930 . S
H3210 C3198 0.956 . S
H3211 C3198 0.961 . S
H3212 C3198 0.961 . S
H3213 C3199 0.958 . S
H3214 C3199 0.961 . S
H3215 C3199 0.960 . S
C3216 C3217 1.391 . S
C3216 C3218 1.394 . S
C3216 H3232 0.931 . S
C3217 C3216 1.391 . S
C3217 C3221 1.376 . S
C3218 C3216 1.394 . S
C3218 C3219 1.369 . S
C3218 C3222 1.531 . S
C3219 C3218 1.369 . S
C3219 C3220 1.410 . S
C3219 C3227 1.503 . S
C3220 C3219 1.410 . S
C3220 C3221 1.392 . S
C3220 C3223 1.511 . S
C3221 C3217 1.376 . S
C3221 C3220 1.392 . S
C3221 H3233 0.929 . S
C3222 C3218 1.531 . S
C3222 H3234 0.960 . S
C3222 H3235 0.962 . S
C3222 H3236 0.960 . S
C3223 C3220 1.511 . S
C3223 H3237 0.961 . S
C3223 H3238 0.961 . S
C3223 H3239 0.961 . S
C3224 C3225 1.370 . S
C3224 C3226 1.363 . S
C3224 H3240 0.931 . S
C3225 C3224 1.370 . S
C3225 C3229 1.408 . S
C3226 C3224 1.363 . S
C3226 C3227 1.370 . S
C3226 C3230 1.524 . S
C3227 C3219 1.503 . S
C3227 C3226 1.370 . S
C3227 C3228 1.403 . S
C3228 C3227 1.403 . S
C3228 C3229 1.404 . S
C3228 C3231 1.539 . S
C3229 C3225 1.408 . S
C3229 C3228 1.404 . S
C3229 H3241 0.930 . S
C3230 C3226 1.524 . S
C3230 H3242 0.956 . S
C3230 H3243 0.961 . S
C3230 H3244 0.961 . S
C3231 C3228 1.539 . S
C3231 H3245 0.958 . S
C3231 H3246 0.961 . S
C3231 H3247 0.960 . S
H3232 C3216 0.931 . S
H3233 C3221 0.929 . S
H3234 C3222 0.960 . S
H3235 C3222 0.962 . S
H3236 C3222 0.960 . S
H3237 C3223 0.961 . S
H3238 C3223 0.961 . S
H3239 C3223 0.961 . S
H3240 C3224 0.931 . S
H3241 C3229 0.930 . S
H3242 C3230 0.956 . S
H3243 C3230 0.961 . S
H3244 C3230 0.961 . S
H3245 C3231 0.958 . S
H3246 C3231 0.961 . S
H3247 C3231 0.960 . S
C3248 C3249 1.391 . S
C3248 C3250 1.394 . S
C3248 H3264 0.931 . S
C3249 C3248 1.391 . S
C3249 C3253 1.376 . S
C3250 C3248 1.394 . S
C3250 C3251 1.369 . S
C3250 C3254 1.531 . S
C3251 C3250 1.369 . S
C3251 C3252 1.410 . S
C3251 C3259 1.503 . S
C3252 C3251 1.410 . S
C3252 C3253 1.392 . S
C3252 C3255 1.511 . S
C3253 C3249 1.376 . S
C3253 C3252 1.392 . S
C3253 H3265 0.929 . S
C3254 C3250 1.531 . S
C3254 H3266 0.960 . S
C3254 H3267 0.962 . S
C3254 H3268 0.960 . S
C3255 C3252 1.511 . S
C3255 H3269 0.961 . S
C3255 H3270 0.961 . S
C3255 H3271 0.961 . S
C3256 C3257 1.370 . S
C3256 C3258 1.363 . S
C3256 H3272 0.931 . S
C3257 C3256 1.370 . S
C3257 C3261 1.408 . S
C3258 C3256 1.363 . S
C3258 C3259 1.370 . S
C3258 C3262 1.524 . S
C3259 C3251 1.503 . S
C3259 C3258 1.370 . S
C3259 C3260 1.403 . S
C3260 C3259 1.403 . S
C3260 C3261 1.404 . S
C3260 C3263 1.539 . S
C3261 C3257 1.408 . S
C3261 C3260 1.404 . S
C3261 H3273 0.930 . S
C3262 C3258 1.524 . S
C3262 H3274 0.956 . S
C3262 H3275 0.961 . S
C3262 H3276 0.961 . S
C3263 C3260 1.539 . S
C3263 H3277 0.958 . S
C3263 H3278 0.961 . S
C3263 H3279 0.960 . S
H3264 C3248 0.931 . S
H3265 C3253 0.929 . S
H3266 C3254 0.960 . S
H3267 C3254 0.962 . S
H3268 C3254 0.960 . S
H3269 C3255 0.961 . S
H3270 C3255 0.961 . S
H3271 C3255 0.961 . S
H3272 C3256 0.931 . S
H3273 C3261 0.930 . S
H3274 C3262 0.956 . S
H3275 C3262 0.961 . S
H3276 C3262 0.961 . S
H3277 C3263 0.958 . S
H3278 C3263 0.961 . S
H3279 C3263 0.960 . S
C3280 C3281 1.391 . S
C3280 C3282 1.394 . S
C3280 H3296 0.931 . S
C3281 C3280 1.391 . S
C3281 C3285 1.376 . S
C3282 C3280 1.394 . S
C3282 C3283 1.369 . S
C3282 C3286 1.531 . S
C3283 C3282 1.369 . S
C3283 C3284 1.410 . S
C3283 C3291 1.503 . S
C3284 C3283 1.410 . S
C3284 C3285 1.392 . S
C3284 C3287 1.511 . S
C3285 C3281 1.376 . S
C3285 C3284 1.392 . S
C3285 H3297 0.929 . S
C3286 C3282 1.531 . S
C3286 H3298 0.960 . S
C3286 H3299 0.962 . S
C3286 H3300 0.960 . S
C3287 C3284 1.511 . S
C3287 H3301 0.961 . S
C3287 H3302 0.961 . S
C3287 H3303 0.961 . S
C3288 C3289 1.370 . S
C3288 C3290 1.363 . S
C3288 H3304 0.931 . S
C3289 C3288 1.370 . S
C3289 C3293 1.408 . S
C3290 C3288 1.363 . S
C3290 C3291 1.370 . S
C3290 C3294 1.524 . S
C3291 C3283 1.503 . S
C3291 C3290 1.370 . S
C3291 C3292 1.403 . S
C3292 C3291 1.403 . S
C3292 C3293 1.404 . S
C3292 C3295 1.539 . S
C3293 C3289 1.408 . S
C3293 C3292 1.404 . S
C3293 H3305 0.930 . S
C3294 C3290 1.524 . S
C3294 H3306 0.956 . S
C3294 H3307 0.961 . S
C3294 H3308 0.961 . S
C3295 C3292 1.539 . S
C3295 H3309 0.958 . S
C3295 H3310 0.961 . S
C3295 H3311 0.960 . S
H3296 C3280 0.931 . S
H3297 C3285 0.929 . S
H3298 C3286 0.960 . S
H3299 C3286 0.962 . S
H3300 C3286 0.960 . S
H3301 C3287 0.961 . S
H3302 C3287 0.961 . S
H3303 C3287 0.961 . S
H3304 C3288 0.931 . S
H3305 C3293 0.930 . S
H3306 C3294 0.956 . S
H3307 C3294 0.961 . S
H3308 C3294 0.961 . S
H3309 C3295 0.958 . S
H3310 C3295 0.961 . S
H3311 C3295 0.960 . S
C3312 C3313 1.391 . S
C3312 C3314 1.394 . S
C3312 H3328 0.931 . S
C3313 C3312 1.391 . S
C3313 C3317 1.376 . S
C3314 C3312 1.394 . S
C3314 C3315 1.369 . S
C3314 C3318 1.531 . S
C3315 C3314 1.369 . S
C3315 C3316 1.410 . S
C3315 C3323 1.503 . S
C3316 C3315 1.410 . S
C3316 C3317 1.392 . S
C3316 C3319 1.511 . S
C3317 C3313 1.376 . S
C3317 C3316 1.392 . S
C3317 H3329 0.929 . S
C3318 C3314 1.531 . S
C3318 H3330 0.960 . S
C3318 H3331 0.962 . S
C3318 H3332 0.960 . S
C3319 C3316 1.511 . S
C3319 H3333 0.961 . S
C3319 H3334 0.961 . S
C3319 H3335 0.961 . S
C3320 C3321 1.370 . S
C3320 C3322 1.363 . S
C3320 H3336 0.931 . S
C3321 C3320 1.370 . S
C3321 C3325 1.408 . S
C3322 C3320 1.363 . S
C3322 C3323 1.370 . S
C3322 C3326 1.524 . S
C3323 C3315 1.503 . S
C3323 C3322 1.370 . S
C3323 C3324 1.403 . S
C3324 C3323 1.403 . S
C3324 C3325 1.404 . S
C3324 C3327 1.539 . S
C3325 C3321 1.408 . S
C3325 C3324 1.404 . S
C3325 H3337 0.930 . S
C3326 C3322 1.524 . S
C3326 H3338 0.956 . S
C3326 H3339 0.961 . S
C3326 H3340 0.961 . S
C3327 C3324 1.539 . S
C3327 H3341 0.958 . S
C3327 H3342 0.961 . S
C3327 H3343 0.960 . S
H3328 C3312 0.931 . S
H3329 C3317 0.929 . S
H3330 C3318 0.960 . S
H3331 C3318 0.962 . S
H3332 C3318 0.960 . S
H3333 C3319 0.961 . S
H3334 C3319 0.961 . S
H3335 C3319 0.961 . S
H3336 C3320 0.931 . S
H3337 C3325 0.930 . S
H3338 C3326 0.956 . S
H3339 C3326 0.961 . S
H3340 C3326 0.961 . S
H3341 C3327 0.958 . S
H3342 C3327 0.961 . S
H3343 C3327 0.960 . S
C3344 C3345 1.391 . S
C3344 C3346 1.394 . S
C3344 H3360 0.931 . S
C3345 C3344 1.391 . S
C3345 C3349 1.376 . S
C3346 C3344 1.394 . S
C3346 C3347 1.369 . S
C3346 C3350 1.531 . S
C3347 C3346 1.369 . S
C3347 C3348 1.410 . S
C3347 C3355 1.503 . S
C3348 C3347 1.410 . S
C3348 C3349 1.392 . S
C3348 C3351 1.511 . S
C3349 C3345 1.376 . S
C3349 C3348 1.392 . S
C3349 H3361 0.929 . S
C3350 C3346 1.531 . S
C3350 H3362 0.960 . S
C3350 H3363 0.962 . S
C3350 H3364 0.960 . S
C3351 C3348 1.511 . S
C3351 H3365 0.961 . S
C3351 H3366 0.961 . S
C3351 H3367 0.961 . S
C3352 C3353 1.370 . S
C3352 C3354 1.363 . S
C3352 H3368 0.931 . S
C3353 C3352 1.370 . S
C3353 C3357 1.408 . S
C3354 C3352 1.363 . S
C3354 C3355 1.370 . S
C3354 C3358 1.524 . S
C3355 C3347 1.503 . S
C3355 C3354 1.370 . S
C3355 C3356 1.403 . S
C3356 C3355 1.403 . S
C3356 C3357 1.404 . S
C3356 C3359 1.539 . S
C3357 C3353 1.408 . S
C3357 C3356 1.404 . S
C3357 H3369 0.930 . S
C3358 C3354 1.524 . S
C3358 H3370 0.956 . S
C3358 H3371 0.961 . S
C3358 H3372 0.961 . S
C3359 C3356 1.539 . S
C3359 H3373 0.958 . S
C3359 H3374 0.961 . S
C3359 H3375 0.960 . S
H3360 C3344 0.931 . S
H3361 C3349 0.929 . S
H3362 C3350 0.960 . S
H3363 C3350 0.962 . S
H3364 C3350 0.960 . S
H3365 C3351 0.961 . S
H3366 C3351 0.961 . S
H3367 C3351 0.961 . S
H3368 C3352 0.931 . S
H3369 C3357 0.930 . S
H3370 C3358 0.956 . S
H3371 C3358 0.961 . S
H3372 C3358 0.961 . S
H3373 C3359 0.958 . S
H3374 C3359 0.961 . S
H3375 C3359 0.960 . S
C3376 C3377 1.391 . S
C3376 C3378 1.394 . S
C3376 H3392 0.931 . S
C3377 C3376 1.391 . S
C3377 C3381 1.376 . S
C3378 C3376 1.394 . S
C3378 C3379 1.369 . S
C3378 C3382 1.531 . S
C3379 C3378 1.369 . S
C3379 C3380 1.410 . S
C3379 C3387 1.503 . S
C3380 C3379 1.410 . S
C3380 C3381 1.392 . S
C3380 C3383 1.511 . S
C3381 C3377 1.376 . S
C3381 C3380 1.392 . S
C3381 H3393 0.929 . S
C3382 C3378 1.531 . S
C3382 H3394 0.960 . S
C3382 H3395 0.962 . S
C3382 H3396 0.960 . S
C3383 C3380 1.511 . S
C3383 H3397 0.961 . S
C3383 H3398 0.961 . S
C3383 H3399 0.961 . S
C3384 C3385 1.370 . S
C3384 C3386 1.363 . S
C3384 H3400 0.931 . S
C3385 C3384 1.370 . S
C3385 C3389 1.408 . S
C3386 C3384 1.363 . S
C3386 C3387 1.370 . S
C3386 C3390 1.524 . S
C3387 C3379 1.503 . S
C3387 C3386 1.370 . S
C3387 C3388 1.403 . S
C3388 C3387 1.403 . S
C3388 C3389 1.404 . S
C3388 C3391 1.539 . S
C3389 C3385 1.408 . S
C3389 C3388 1.404 . S
C3389 H3401 0.930 . S
C3390 C3386 1.524 . S
C3390 H3402 0.956 . S
C3390 H3403 0.961 . S
C3390 H3404 0.961 . S
C3391 C3388 1.539 . S
C3391 H3405 0.958 . S
C3391 H3406 0.961 . S
C3391 H3407 0.960 . S
H3392 C3376 0.931 . S
H3393 C3381 0.929 . S
H3394 C3382 0.960 . S
H3395 C3382 0.962 . S
H3396 C3382 0.960 . S
H3397 C3383 0.961 . S
H3398 C3383 0.961 . S
H3399 C3383 0.961 . S
H3400 C3384 0.931 . S
H3401 C3389 0.930 . S
H3402 C3390 0.956 . S
H3403 C3390 0.961 . S
H3404 C3390 0.961 . S
H3405 C3391 0.958 . S
H3406 C3391 0.961 . S
H3407 C3391 0.960 . S
C3408 C3409 1.391 . S
C3408 C3410 1.394 . S
C3408 H3424 0.931 . S
C3409 C3408 1.391 . S
C3409 C3413 1.376 . S
C3410 C3408 1.394 . S
C3410 C3411 1.369 . S
C3410 C3414 1.531 . S
C3411 C3410 1.369 . S
C3411 C3412 1.410 . S
C3411 C3419 1.503 . S
C3412 C3411 1.410 . S
C3412 C3413 1.392 . S
C3412 C3415 1.511 . S
C3413 C3409 1.376 . S
C3413 C3412 1.392 . S
C3413 H3425 0.929 . S
C3414 C3410 1.531 . S
C3414 H3426 0.960 . S
C3414 H3427 0.962 . S
C3414 H3428 0.960 . S
C3415 C3412 1.511 . S
C3415 H3429 0.961 . S
C3415 H3430 0.961 . S
C3415 H3431 0.961 . S
C3416 C3417 1.370 1_556 S
C3416 C3418 1.363 . S
C3416 H3432 0.931 . S
C3417 C3416 1.370 1_554 S
C3417 C3421 1.408 . S
C3418 C3416 1.363 . S
C3418 C3419 1.370 . S
C3418 C3422 1.524 . S
C3419 C3411 1.503 . S
C3419 C3418 1.370 . S
C3419 C3420 1.403 . S
C3420 C3419 1.403 . S
C3420 C3421 1.404 1_556 S
C3420 C3423 1.539 1_556 S
C3421 C3417 1.408 . S
C3421 C3420 1.404 1_554 S
C3421 H3433 0.930 . S
C3422 C3418 1.524 . S
C3422 H3434 0.956 . S
C3422 H3435 0.961 . S
C3422 H3436 0.961 . S
C3423 C3420 1.539 1_554 S
C3423 H3437 0.958 . S
C3423 H3438 0.961 . S
C3423 H3439 0.960 1_554 S
H3424 C3408 0.931 . S
H3425 C3413 0.929 . S
H3426 C3414 0.960 . S
H3427 C3414 0.962 . S
H3428 C3414 0.960 . S
H3429 C3415 0.961 . S
H3430 C3415 0.961 . S
H3431 C3415 0.961 . S
H3432 C3416 0.931 . S
H3433 C3421 0.930 . S
H3434 C3422 0.956 . S
H3435 C3422 0.961 . S
H3436 C3422 0.961 . S
H3437 C3423 0.958 . S
H3438 C3423 0.961 . S
H3439 C3423 0.960 1_556 S
C3440 C3441 1.391 . S
C3440 C3442 1.394 . S
C3440 H3456 0.931 . S
C3441 C3440 1.391 . S
C3441 C3445 1.376 . S
C3442 C3440 1.394 . S
C3442 C3443 1.369 . S
C3442 C3446 1.531 . S
C3443 C3442 1.369 . S
C3443 C3444 1.410 . S
C3443 C3451 1.503 . S
C3444 C3443 1.410 . S
C3444 C3445 1.392 . S
C3444 C3447 1.511 . S
C3445 C3441 1.376 . S
C3445 C3444 1.392 . S
C3445 H3457 0.929 . S
C3446 C3442 1.531 . S
C3446 H3458 0.960 . S
C3446 H3459 0.962 . S
C3446 H3460 0.960 . S
C3447 C3444 1.511 . S
C3447 H3461 0.961 . S
C3447 H3462 0.961 . S
C3447 H3463 0.961 . S
C3448 C3449 1.370 . S
C3448 C3450 1.363 . S
C3448 H3464 0.931 . S
C3449 C3448 1.370 . S
C3449 C3453 1.408 . S
C3450 C3448 1.363 . S
C3450 C3451 1.370 . S
C3450 C3454 1.524 . S
C3451 C3443 1.503 . S
C3451 C3450 1.370 . S
C3451 C3452 1.403 . S
C3452 C3451 1.403 . S
C3452 C3453 1.404 . S
C3452 C3455 1.539 . S
C3453 C3449 1.408 . S
C3453 C3452 1.404 . S
C3453 H3465 0.930 . S
C3454 C3450 1.524 . S
C3454 H3466 0.956 . S
C3454 H3467 0.961 . S
C3454 H3468 0.961 . S
C3455 C3452 1.539 . S
C3455 H3469 0.958 . S
C3455 H3470 0.961 . S
C3455 H3471 0.960 . S
H3456 C3440 0.931 . S
H3457 C3445 0.929 . S
H3458 C3446 0.960 . S
H3459 C3446 0.962 . S
H3460 C3446 0.960 . S
H3461 C3447 0.961 . S
H3462 C3447 0.961 . S
H3463 C3447 0.961 . S
H3464 C3448 0.931 . S
H3465 C3453 0.930 . S
H3466 C3454 0.956 . S
H3467 C3454 0.961 . S
H3468 C3454 0.961 . S
H3469 C3455 0.958 . S
H3470 C3455 0.961 . S
H3471 C3455 0.960 . S
C3472 C3473 1.391 . S
C3472 C3474 1.394 . S
C3472 H3488 0.931 . S
C3473 C3472 1.391 . S
C3473 C3477 1.376 . S
C3474 C3472 1.394 . S
C3474 C3475 1.369 . S
C3474 C3478 1.477 1_455 S
C3475 C3474 1.369 . S
C3475 C3476 1.410 . S
C3475 C3483 1.503 . S
C3476 C3475 1.410 . S
C3476 C3477 1.392 . S
C3476 C3479 1.511 . S
C3477 C3473 1.376 . S
C3477 C3476 1.392 . S
C3477 H3489 0.929 . S
C3478 C3474 1.477 1_655 S
C3478 H3490 0.974 . S
C3478 H3491 0.978 . S
C3478 H3492 0.988 . S
C3479 C3476 1.511 . S
C3479 H3493 0.961 . S
C3479 H3494 0.961 . S
C3479 H3495 0.961 . S
C3480 C3481 1.370 . S
C3480 C3482 1.363 . S
C3480 H3496 0.931 . S
C3481 C3480 1.370 . S
C3481 C3485 1.408 . S
C3482 C3480 1.363 . S
C3482 C3483 1.370 . S
C3482 C3486 1.524 . S
C3483 C3475 1.503 . S
C3483 C3482 1.370 . S
C3483 C3484 1.403 . S
C3484 C3483 1.403 . S
C3484 C3485 1.404 . S
C3484 C3487 1.539 . S
C3485 C3481 1.408 . S
C3485 C3484 1.404 . S
C3485 H3497 0.930 . S
C3486 C3482 1.524 . S
C3486 H3498 0.956 . S
C3486 H3499 0.961 . S
C3486 H3500 0.961 . S
C3487 C3484 1.539 . S
C3487 H3501 0.958 . S
C3487 H3502 0.961 . S
C3487 H3503 0.960 . S
H3488 C3472 0.931 . S
H3489 C3477 0.929 . S
H3490 C3478 0.974 . S
H3491 C3478 0.978 . S
H3492 C3478 0.988 . S
H3493 C3479 0.961 . S
H3494 C3479 0.961 . S
H3495 C3479 0.961 . S
H3496 C3480 0.931 . S
H3497 C3485 0.930 . S
H3498 C3486 0.956 . S
H3499 C3486 0.961 . S
H3500 C3486 0.961 . S
H3501 C3487 0.958 . S
H3502 C3487 0.961 . S
H3503 C3487 0.960 . S
C3504 C3505 1.391 . S
C3504 C3506 1.394 . S
C3504 H3520 0.931 . S
C3505 C3504 1.391 . S
C3505 C3509 1.376 . S
C3506 C3504 1.394 . S
C3506 C3507 1.369 . S
C3506 C3510 1.531 . S
C3507 C3506 1.369 . S
C3507 C3508 1.410 . S
C3507 C3515 1.503 . S
C3508 C3507 1.410 . S
C3508 C3509 1.392 . S
C3508 C3511 1.511 . S
C3509 C3505 1.376 . S
C3509 C3508 1.392 . S
C3509 H3521 0.929 . S
C3510 C3506 1.531 . S
C3510 H3522 0.960 . S
C3510 H3523 0.962 . S
C3510 H3524 0.960 . S
C3511 C3508 1.511 . S
C3511 H3525 0.961 . S
C3511 H3526 0.961 . S
C3511 H3527 0.961 . S
C3512 C3513 1.370 . S
C3512 C3514 1.363 . S
C3512 H3528 0.931 . S
C3513 C3512 1.370 . S
C3513 C3517 1.408 . S
C3514 C3512 1.363 . S
C3514 C3515 1.370 . S
C3514 C3518 1.524 . S
C3515 C3507 1.503 . S
C3515 C3514 1.370 . S
C3515 C3516 1.403 . S
C3516 C3515 1.403 . S
C3516 C3517 1.404 . S
C3516 C3519 1.539 . S
C3517 C3513 1.408 . S
C3517 C3516 1.404 . S
C3517 H3529 0.930 . S
C3518 C3514 1.524 . S
C3518 H3530 0.956 . S
C3518 H3531 0.961 . S
C3518 H3532 0.961 . S
C3519 C3516 1.539 . S
C3519 H3533 0.958 . S
C3519 H3534 0.961 . S
C3519 H3535 0.960 . S
H3520 C3504 0.931 . S
H3521 C3509 0.929 . S
H3522 C3510 0.960 . S
H3523 C3510 0.962 . S
H3524 C3510 0.960 . S
H3525 C3511 0.961 . S
H3526 C3511 0.961 . S
H3527 C3511 0.961 . S
H3528 C3512 0.931 . S
H3529 C3517 0.930 . S
H3530 C3518 0.956 . S
H3531 C3518 0.961 . S
H3532 C3518 0.961 . S
H3533 C3519 0.958 . S
H3534 C3519 0.961 . S
H3535 C3519 0.960 . S
C3536 C3537 1.391 . S
C3536 C3538 1.394 . S
C3536 H3552 0.931 . S
C3537 C3536 1.391 . S
C3537 C3541 1.376 . S
C3538 C3536 1.394 . S
C3538 C3539 1.369 . S
C3538 C3542 1.531 . S
C3539 C3538 1.369 . S
C3539 C3540 1.410 . S
C3539 C3547 1.503 . S
C3540 C3539 1.410 . S
C3540 C3541 1.392 . S
C3540 C3543 1.511 . S
C3541 C3537 1.376 . S
C3541 C3540 1.392 . S
C3541 H3553 0.929 . S
C3542 C3538 1.531 . S
C3542 H3554 0.960 . S
C3542 H3555 0.962 . S
C3542 H3556 0.960 . S
C3543 C3540 1.511 . S
C3543 H3557 0.961 . S
C3543 H3558 0.961 . S
C3543 H3559 0.961 . S
C3544 C3545 1.370 . S
C3544 C3546 1.363 . S
C3544 H3560 0.931 . S
C3545 C3544 1.370 . S
C3545 C3549 1.408 . S
C3546 C3544 1.363 . S
C3546 C3547 1.370 . S
C3546 C3550 1.524 . S
C3547 C3539 1.503 . S
C3547 C3546 1.370 . S
C3547 C3548 1.403 . S
C3548 C3547 1.403 . S
C3548 C3549 1.404 . S
C3548 C3551 1.539 . S
C3549 C3545 1.408 . S
C3549 C3548 1.404 . S
C3549 H3561 0.930 . S
C3550 C3546 1.524 . S
C3550 H3562 0.956 . S
C3550 H3563 0.961 . S
C3550 H3564 0.961 . S
C3551 C3548 1.539 . S
C3551 H3565 0.958 . S
C3551 H3566 0.961 . S
C3551 H3567 0.960 . S
H3552 C3536 0.931 . S
H3553 C3541 0.929 . S
H3554 C3542 0.960 . S
H3555 C3542 0.962 . S
H3556 C3542 0.960 . S
H3557 C3543 0.961 . S
H3558 C3543 0.961 . S
H3559 C3543 0.961 . S
H3560 C3544 0.931 . S
H3561 C3549 0.930 . S
H3562 C3550 0.956 . S
H3563 C3550 0.961 . S
H3564 C3550 0.961 . S
H3565 C3551 0.958 . S
H3566 C3551 0.961 . S
H3567 C3551 0.960 . S
C3568 C3569 1.391 . S
C3568 C3570 1.394 . S
C3568 H3584 0.931 . S
C3569 C3568 1.391 . S
C3569 C3573 1.376 . S
C3570 C3568 1.394 . S
C3570 C3571 1.369 . S
C3570 C3574 1.531 . S
C3571 C3570 1.369 . S
C3571 C3572 1.410 . S
C3571 C3579 1.503 . S
C3572 C3571 1.410 . S
C3572 C3573 1.392 . S
C3572 C3575 1.511 . S
C3573 C3569 1.376 . S
C3573 C3572 1.392 . S
C3573 H3585 0.929 . S
C3574 C3570 1.531 . S
C3574 H3586 0.960 . S
C3574 H3587 0.962 . S
C3574 H3588 0.960 . S
C3575 C3572 1.511 . S
C3575 H3589 0.961 . S
C3575 H3590 0.961 . S
C3575 H3591 0.961 . S
C3576 C3577 1.370 . S
C3576 C3578 1.363 . S
C3576 H3592 0.931 . S
C3577 C3576 1.370 . S
C3577 C3581 1.408 . S
C3578 C3576 1.363 . S
C3578 C3579 1.370 . S
C3578 C3582 1.524 . S
C3579 C3571 1.503 . S
C3579 C3578 1.370 . S
C3579 C3580 1.403 . S
C3580 C3579 1.403 . S
C3580 C3581 1.404 . S
C3580 C3583 1.539 . S
C3581 C3577 1.408 . S
C3581 C3580 1.404 . S
C3581 H3593 0.930 . S
C3582 C3578 1.524 . S
C3582 H3594 0.956 . S
C3582 H3595 0.961 . S
C3582 H3596 0.961 . S
C3583 C3580 1.539 . S
C3583 H3597 0.958 . S
C3583 H3598 0.961 . S
C3583 H3599 0.960 . S
H3584 C3568 0.931 . S
H3585 C3573 0.929 . S
H3586 C3574 0.960 . S
H3587 C3574 0.962 . S
H3588 C3574 0.960 . S
H3589 C3575 0.961 . S
H3590 C3575 0.961 . S
H3591 C3575 0.961 . S
H3592 C3576 0.931 . S
H3593 C3581 0.930 . S
H3594 C3582 0.956 . S
H3595 C3582 0.961 . S
H3596 C3582 0.961 . S
H3597 C3583 0.958 . S
H3598 C3583 0.961 . S
H3599 C3583 0.960 . S
C3600 C3601 1.391 . S
C3600 C3602 1.393 1_655 S
C3600 H3616 0.931 . S
C3601 C3600 1.391 . S
C3601 C3605 1.376 . S
C3602 C3600 1.393 1_455 S
C3602 C3603 1.368 1_455 S
C3602 C3606 1.532 . S
C3603 C3602 1.368 1_655 S
C3603 C3604 1.410 . S
C3603 C3611 1.493 1_655 S
C3604 C3603 1.410 . S
C3604 C3605 1.392 . S
C3604 C3607 1.511 . S
C3605 C3601 1.376 . S
C3605 C3604 1.392 . S
C3605 H3617 0.929 . S
C3606 C3602 1.532 . S
C3606 H3618 0.960 . S
C3606 H3619 0.962 . S
C3606 H3620 0.960 . S
C3607 C3604 1.511 . S
C3607 H3621 0.961 . S
C3607 H3622 0.961 . S
C3607 H3623 0.961 . S
C3608 C3609 1.370 1_556 S
C3608 C3610 1.363 . S
C3608 H3624 0.931 . S
C3609 C3608 1.370 1_554 S
C3609 C3613 1.408 . S
C3610 C3608 1.363 . S
C3610 C3611 1.383 . S
C3610 C3614 1.524 1_455 S
C3611 C3603 1.493 1_455 S
C3611 C3610 1.383 . S
C3611 C3612 1.401 . S
C3612 C3611 1.401 . S
C3612 C3613 1.404 1_556 S
C3612 C3615 1.566 . S
C3613 C3609 1.408 . S
C3613 C3612 1.404 1_554 S
C3613 H3625 0.930 . S
C3614 C3610 1.524 1_655 S
C3614 H3626 0.956 1_655 S
C3614 H3627 0.961 . S
C3614 H3628 0.961 1_655 S
C3615 C3612 1.566 . S
C3615 H3629 0.985 . S
C3615 H3630 0.944 1_455 S
C3615 H3631 0.925 1_455 S
H3616 C3600 0.931 . S
H3617 C3605 0.929 . S
H3618 C3606 0.960 . S
H3619 C3606 0.962 . S
H3620 C3606 0.960 . S
H3621 C3607 0.961 . S
H3622 C3607 0.961 . S
H3623 C3607 0.961 . S
H3624 C3608 0.931 . S
H3625 C3613 0.930 . S
H3626 C3614 0.956 1_455 S
H3627 C3614 0.961 . S
H3628 C3614 0.961 1_455 S
H3629 C3615 0.985 . S
H3630 C3615 0.944 1_655 S
H3631 C3615 0.925 1_655 S
C3632 C3633 1.391 . S
C3632 C3634 1.394 . S
C3632 H3648 0.931 . S
C3633 C3632 1.391 . S
C3633 C3637 1.376 . S
C3634 C3632 1.394 . S
C3634 C3635 1.369 . S
C3634 C3638 1.531 . S
C3635 C3634 1.369 . S
C3635 C3636 1.410 . S
C3635 C3643 1.503 . S
C3636 C3635 1.410 . S
C3636 C3637 1.392 . S
C3636 C3639 1.511 . S
C3637 C3633 1.376 . S
C3637 C3636 1.392 . S
C3637 H3649 0.929 . S
C3638 C3634 1.531 . S
C3638 H3650 0.960 . S
C3638 H3651 0.962 . S
C3638 H3652 0.960 . S
C3639 C3636 1.511 . S
C3639 H3653 0.961 . S
C3639 H3654 0.961 . S
C3639 H3655 0.961 . S
C3640 C3641 1.370 . S
C3640 C3642 1.363 . S
C3640 H3656 0.931 . S
C3641 C3640 1.370 . S
C3641 C3645 1.408 . S
C3642 C3640 1.363 . S
C3642 C3643 1.370 . S
C3642 C3646 1.524 . S
C3643 C3635 1.503 . S
C3643 C3642 1.370 . S
C3643 C3644 1.403 . S
C3644 C3643 1.403 . S
C3644 C3645 1.404 . S
C3644 C3647 1.539 . S
C3645 C3641 1.408 . S
C3645 C3644 1.404 . S
C3645 H3657 0.930 . S
C3646 C3642 1.524 . S
C3646 H3658 0.956 . S
C3646 H3659 0.961 . S
C3646 H3660 0.961 . S
C3647 C3644 1.539 . S
C3647 H3661 0.958 . S
C3647 H3662 0.961 . S
C3647 H3663 0.960 . S
H3648 C3632 0.931 . S
H3649 C3637 0.929 . S
H3650 C3638 0.960 . S
H3651 C3638 0.962 . S
H3652 C3638 0.960 . S
H3653 C3639 0.961 . S
H3654 C3639 0.961 . S
H3655 C3639 0.961 . S
H3656 C3640 0.931 . S
H3657 C3645 0.930 . S
H3658 C3646 0.956 . S
H3659 C3646 0.961 . S
H3660 C3646 0.961 . S
H3661 C3647 0.958 . S
H3662 C3647 0.961 . S
H3663 C3647 0.960 . S
C3664 C3665 1.391 . S
C3664 C3666 1.394 . S
C3664 H3680 0.931 . S
C3665 C3664 1.391 . S
C3665 C3669 1.376 . S
C3666 C3664 1.394 . S
C3666 C3667 1.369 . S
C3666 C3670 1.531 . S
C3667 C3666 1.369 . S
C3667 C3668 1.410 . S
C3667 C3675 1.503 . S
C3668 C3667 1.410 . S
C3668 C3669 1.392 . S
C3668 C3671 1.511 . S
C3669 C3665 1.376 . S
C3669 C3668 1.392 . S
C3669 H3681 0.929 . S
C3670 C3666 1.531 . S
C3670 H3682 0.960 . S
C3670 H3683 0.962 . S
C3670 H3684 0.960 . S
C3671 C3668 1.511 . S
C3671 H3685 0.961 . S
C3671 H3686 0.961 . S
C3671 H3687 0.961 . S
C3672 C3673 1.370 . S
C3672 C3674 1.363 . S
C3672 H3688 0.931 . S
C3673 C3672 1.370 . S
C3673 C3677 1.408 . S
C3674 C3672 1.363 . S
C3674 C3675 1.370 . S
C3674 C3678 1.524 . S
C3675 C3667 1.503 . S
C3675 C3674 1.370 . S
C3675 C3676 1.403 . S
C3676 C3675 1.403 . S
C3676 C3677 1.404 . S
C3676 C3679 1.539 . S
C3677 C3673 1.408 . S
C3677 C3676 1.404 . S
C3677 H3689 0.930 . S
C3678 C3674 1.524 . S
C3678 H3690 0.956 . S
C3678 H3691 0.961 . S
C3678 H3692 0.961 . S
C3679 C3676 1.539 . S
C3679 H3693 0.958 . S
C3679 H3694 0.961 . S
C3679 H3695 0.960 . S
H3680 C3664 0.931 . S
H3681 C3669 0.929 . S
H3682 C3670 0.960 . S
H3683 C3670 0.962 . S
H3684 C3670 0.960 . S
H3685 C3671 0.961 . S
H3686 C3671 0.961 . S
H3687 C3671 0.961 . S
H3688 C3672 0.931 . S
H3689 C3677 0.930 . S
H3690 C3678 0.956 . S
H3691 C3678 0.961 . S
H3692 C3678 0.961 . S
H3693 C3679 0.958 . S
H3694 C3679 0.961 . S
H3695 C3679 0.960 . S
C3696 C3697 1.391 . S
C3696 C3698 1.394 . S
C3696 H3712 0.931 . S
C3697 C3696 1.391 . S
C3697 C3701 1.376 . S
C3698 C3696 1.394 . S
C3698 C3699 1.369 . S
C3698 C3702 1.531 . S
C3699 C3698 1.369 . S
C3699 C3700 1.410 . S
C3699 C3707 1.503 . S
C3700 C3699 1.410 . S
C3700 C3701 1.392 . S
C3700 C3703 1.511 . S
C3701 C3697 1.376 . S
C3701 C3700 1.392 . S
C3701 H3713 0.929 . S
C3702 C3698 1.531 . S
C3702 H3714 0.960 . S
C3702 H3715 0.962 . S
C3702 H3716 0.960 . S
C3703 C3700 1.511 . S
C3703 H3717 0.961 . S
C3703 H3718 0.961 . S
C3703 H3719 0.961 . S
C3704 C3705 1.370 . S
C3704 C3706 1.363 . S
C3704 H3720 0.931 . S
C3705 C3704 1.370 . S
C3705 C3709 1.408 . S
C3706 C3704 1.363 . S
C3706 C3707 1.370 . S
C3706 C3710 1.524 . S
C3707 C3699 1.503 . S
C3707 C3706 1.370 . S
C3707 C3708 1.403 . S
C3708 C3707 1.403 . S
C3708 C3709 1.404 . S
C3708 C3711 1.539 . S
C3709 C3705 1.408 . S
C3709 C3708 1.404 . S
C3709 H3721 0.930 . S
C3710 C3706 1.524 . S
C3710 H3722 0.956 . S
C3710 H3723 0.961 . S
C3710 H3724 0.961 . S
C3711 C3708 1.539 . S
C3711 H3725 0.958 . S
C3711 H3726 0.961 . S
C3711 H3727 0.960 . S
H3712 C3696 0.931 . S
H3713 C3701 0.929 . S
H3714 C3702 0.960 . S
H3715 C3702 0.962 . S
H3716 C3702 0.960 . S
H3717 C3703 0.961 . S
H3718 C3703 0.961 . S
H3719 C3703 0.961 . S
H3720 C3704 0.931 . S
H3721 C3709 0.930 . S
H3722 C3710 0.956 . S
H3723 C3710 0.961 . S
H3724 C3710 0.961 . S
H3725 C3711 0.958 . S
H3726 C3711 0.961 . S
H3727 C3711 0.960 . S
C3728 C3729 1.391 . S
C3728 C3730 1.394 . S
C3728 H3744 0.931 . S
C3729 C3728 1.391 . S
C3729 C3733 1.376 . S
C3730 C3728 1.394 . S
C3730 C3731 1.369 . S
C3730 C3734 1.531 . S
C3731 C3730 1.369 . S
C3731 C3732 1.410 . S
C3731 C3739 1.503 . S
C3732 C3731 1.410 . S
C3732 C3733 1.392 . S
C3732 C3735 1.511 . S
C3733 C3729 1.376 . S
C3733 C3732 1.392 . S
C3733 H3745 0.929 . S
C3734 C3730 1.531 . S
C3734 H3746 0.960 1_655 S
C3734 H3747 0.962 . S
C3734 H3748 0.961 . S
C3735 C3732 1.511 . S
C3735 H3749 0.961 . S
C3735 H3750 0.961 . S
C3735 H3751 0.961 . S
C3736 C3737 1.333 1_655 S
C3736 C3738 1.363 . S
C3736 H3752 0.931 . S
C3737 C3736 1.333 1_455 S
C3737 C3741 1.429 . S
C3738 C3736 1.363 . S
C3738 C3739 1.370 . S
C3738 C3742 1.524 . S
C3739 C3731 1.503 . S
C3739 C3738 1.370 . S
C3739 C3740 1.403 1_655 S
C3740 C3739 1.403 1_455 S
C3740 C3741 1.404 . S
C3740 C3743 1.539 . S
C3741 C3737 1.429 . S
C3741 C3740 1.404 . S
C3741 H3753 0.930 . S
C3742 C3738 1.524 . S
C3742 H3754 0.956 . S
C3742 H3755 0.961 . S
C3742 H3756 0.961 . S
C3743 C3740 1.539 . S
C3743 H3757 0.958 . S
C3743 H3758 0.961 . S
C3743 H3759 0.960 . S
H3744 C3728 0.931 . S
H3745 C3733 0.929 . S
H3746 C3734 0.960 1_455 S
H3747 C3734 0.962 . S
H3748 C3734 0.961 . S
H3749 C3735 0.961 . S
H3750 C3735 0.961 . S
H3751 C3735 0.961 . S
H3752 C3736 0.931 . S
H3753 C3741 0.930 . S
H3754 C3742 0.956 . S
H3755 C3742 0.961 . S
H3756 C3742 0.961 . S
H3757 C3743 0.958 . S
H3758 C3743 0.961 . S
H3759 C3743 0.960 . S
C3760 C3761 1.391 . S
C3760 C3762 1.394 . S
C3760 H3776 0.931 . S
C3761 C3760 1.391 . S
C3761 C3765 1.376 . S
C3762 C3760 1.394 . S
C3762 C3763 1.369 . S
C3762 C3766 1.531 . S
C3763 C3762 1.369 . S
C3763 C3764 1.410 . S
C3763 C3771 1.503 . S
C3764 C3763 1.410 . S
C3764 C3765 1.392 . S
C3764 C3767 1.511 . S
C3765 C3761 1.376 . S
C3765 C3764 1.392 . S
C3765 H3777 0.929 . S
C3766 C3762 1.531 . S
C3766 H3778 0.960 . S
C3766 H3779 0.962 . S
C3766 H3780 0.960 . S
C3767 C3764 1.511 . S
C3767 H3781 0.961 . S
C3767 H3782 0.961 . S
C3767 H3783 0.961 . S
C3768 C3769 1.370 . S
C3768 C3770 1.363 . S
C3768 H3784 0.931 . S
C3769 C3768 1.370 . S
C3769 C3773 1.408 . S
C3770 C3768 1.363 . S
C3770 C3771 1.370 . S
C3770 C3774 1.524 . S
C3771 C3763 1.503 . S
C3771 C3770 1.370 . S
C3771 C3772 1.403 . S
C3772 C3771 1.403 . S
C3772 C3773 1.404 . S
C3772 C3775 1.539 . S
C3773 C3769 1.408 . S
C3773 C3772 1.404 . S
C3773 H3785 0.930 . S
C3774 C3770 1.524 . S
C3774 H3786 0.956 . S
C3774 H3787 0.961 . S
C3774 H3788 0.961 . S
C3775 C3772 1.539 . S
C3775 H3789 0.958 . S
C3775 H3790 0.961 . S
C3775 H3791 0.960 . S
H3776 C3760 0.931 . S
H3777 C3765 0.929 . S
H3778 C3766 0.960 . S
H3779 C3766 0.962 . S
H3780 C3766 0.960 . S
H3781 C3767 0.961 . S
H3782 C3767 0.961 . S
H3783 C3767 0.961 . S
H3784 C3768 0.931 . S
H3785 C3773 0.930 . S
H3786 C3774 0.956 . S
H3787 C3774 0.961 . S
H3788 C3774 0.961 . S
H3789 C3775 0.958 . S
H3790 C3775 0.961 . S
H3791 C3775 0.960 . S
C3792 C3793 1.391 . S
C3792 C3794 1.394 . S
C3792 H3808 0.931 . S
C3793 C3792 1.391 . S
C3793 C3797 1.376 . S
C3794 C3792 1.394 . S
C3794 C3795 1.369 . S
C3794 C3798 1.531 . S
C3795 C3794 1.369 . S
C3795 C3796 1.410 . S
C3795 C3803 1.503 . S
C3796 C3795 1.410 . S
C3796 C3797 1.392 . S
C3796 C3799 1.511 . S
C3797 C3793 1.376 . S
C3797 C3796 1.392 . S
C3797 H3809 0.929 . S
C3798 C3794 1.531 . S
C3798 H3810 0.960 . S
C3798 H3811 0.962 . S
C3798 H3812 0.960 . S
C3799 C3796 1.511 . S
C3799 H3813 0.961 . S
C3799 H3814 0.961 . S
C3799 H3815 0.961 . S
C3800 C3801 1.370 . S
C3800 C3802 1.363 . S
C3800 H3816 0.931 . S
C3801 C3800 1.370 . S
C3801 C3805 1.408 . S
C3802 C3800 1.363 . S
C3802 C3803 1.370 . S
C3802 C3806 1.524 . S
C3803 C3795 1.503 . S
C3803 C3802 1.370 . S
C3803 C3804 1.403 . S
C3804 C3803 1.403 . S
C3804 C3805 1.404 . S
C3804 C3807 1.539 . S
C3805 C3801 1.408 . S
C3805 C3804 1.404 . S
C3805 H3817 0.930 . S
C3806 C3802 1.524 . S
C3806 H3818 0.956 . S
C3806 H3819 0.961 . S
C3806 H3820 0.961 . S
C3807 C3804 1.539 . S
C3807 H3821 0.958 . S
C3807 H3822 0.961 . S
C3807 H3823 0.960 . S
H3808 C3792 0.931 . S
H3809 C3797 0.929 . S
H3810 C3798 0.960 . S
H3811 C3798 0.962 . S
H3812 C3798 0.960 . S
H3813 C3799 0.961 . S
H3814 C3799 0.961 . S
H3815 C3799 0.961 . S
H3816 C3800 0.931 . S
H3817 C3805 0.930 . S
H3818 C3806 0.956 . S
H3819 C3806 0.961 . S
H3820 C3806 0.961 . S
H3821 C3807 0.958 . S
H3822 C3807 0.961 . S
H3823 C3807 0.960 . S
C3824 C3825 1.391 . S
C3824 C3826 1.394 . S
C3824 H3840 0.931 . S
C3825 C3824 1.391 . S
C3825 C3829 1.376 . S
C3826 C3824 1.394 . S
C3826 C3827 1.369 . S
C3826 C3830 1.531 . S
C3827 C3826 1.369 . S
C3827 C3828 1.410 . S
C3827 C3835 1.503 . S
C3828 C3827 1.410 . S
C3828 C3829 1.392 . S
C3828 C3831 1.511 . S
C3829 C3825 1.376 . S
C3829 C3828 1.392 . S
C3829 H3841 0.929 . S
C3830 C3826 1.531 . S
C3830 H3842 0.960 . S
C3830 H3843 0.962 . S
C3830 H3844 0.960 . S
C3831 C3828 1.511 . S
C3831 H3845 0.961 . S
C3831 H3846 0.961 . S
C3831 H3847 0.961 . S
C3832 C3833 1.370 . S
C3832 C3834 1.363 . S
C3832 H3848 0.931 1_565 S
C3833 C3832 1.370 . S
C3833 C3837 1.408 . S
C3834 C3832 1.363 . S
C3834 C3835 1.370 . S
C3834 C3838 1.524 . S
C3835 C3827 1.503 . S
C3835 C3834 1.370 . S
C3835 C3836 1.403 . S
C3836 C3835 1.403 . S
C3836 C3837 1.404 . S
C3836 C3839 1.539 . S
C3837 C3833 1.408 . S
C3837 C3836 1.404 . S
C3837 H3849 0.930 . S
C3838 C3834 1.524 . S
C3838 H3850 0.956 . S
C3838 H3851 0.961 . S
C3838 H3852 0.961 . S
C3839 C3836 1.539 . S
C3839 H3853 0.958 . S
C3839 H3854 0.961 . S
C3839 H3855 0.960 . S
H3840 C3824 0.931 . S
H3841 C3829 0.929 . S
H3842 C3830 0.960 . S
H3843 C3830 0.962 . S
H3844 C3830 0.960 . S
H3845 C3831 0.961 . S
H3846 C3831 0.961 . S
H3847 C3831 0.961 . S
H3848 C3832 0.931 1_545 S
H3849 C3837 0.930 . S
H3850 C3838 0.956 . S
H3851 C3838 0.961 . S
H3852 C3838 0.961 . S
H3853 C3839 0.958 . S
H3854 C3839 0.961 . S
H3855 C3839 0.960 . S
C3856 C3857 1.391 . S
C3856 C3858 1.394 . S
C3856 H3872 0.931 . S
C3857 C3856 1.391 . S
C3857 C3861 1.376 . S
C3858 C3856 1.394 . S
C3858 C3859 1.369 . S
C3858 C3862 1.531 . S
C3859 C3858 1.369 . S
C3859 C3860 1.410 . S
C3859 C3867 1.503 . S
C3860 C3859 1.410 . S
C3860 C3861 1.392 . S
C3860 C3863 1.511 . S
C3861 C3857 1.376 . S
C3861 C3860 1.392 . S
C3861 H3873 0.929 . S
C3862 C3858 1.531 . S
C3862 H3874 0.960 . S
C3862 H3875 0.962 . S
C3862 H3876 0.960 . S
C3863 C3860 1.511 . S
C3863 H3877 0.961 . S
C3863 H3878 0.961 . S
C3863 H3879 0.961 . S
C3864 C3865 1.370 . S
C3864 C3866 1.363 . S
C3864 H3880 0.931 . S
C3865 C3864 1.370 . S
C3865 C3869 1.408 . S
C3866 C3864 1.363 . S
C3866 C3867 1.370 . S
C3866 C3870 1.524 . S
C3867 C3859 1.503 . S
C3867 C3866 1.370 . S
C3867 C3868 1.403 . S
C3868 C3867 1.403 . S
C3868 C3869 1.404 . S
C3868 C3871 1.539 . S
C3869 C3865 1.408 . S
C3869 C3868 1.404 . S
C3869 H3881 0.930 . S
C3870 C3866 1.524 . S
C3870 H3882 0.956 . S
C3870 H3883 0.961 . S
C3870 H3884 0.961 . S
C3871 C3868 1.539 . S
C3871 H3885 0.958 . S
C3871 H3886 0.961 . S
C3871 H3887 0.960 . S
H3872 C3856 0.931 . S
H3873 C3861 0.929 . S
H3874 C3862 0.960 . S
H3875 C3862 0.962 . S
H3876 C3862 0.960 . S
H3877 C3863 0.961 . S
H3878 C3863 0.961 . S
H3879 C3863 0.961 . S
H3880 C3864 0.931 . S
H3881 C3869 0.930 . S
H3882 C3870 0.956 . S
H3883 C3870 0.961 . S
H3884 C3870 0.961 . S
H3885 C3871 0.958 . S
H3886 C3871 0.961 . S
H3887 C3871 0.960 . S
C3888 C3889 1.391 . S
C3888 C3890 1.394 . S
C3888 H3904 0.931 . S
C3889 C3888 1.391 . S
C3889 C3893 1.376 . S
C3890 C3888 1.394 . S
C3890 C3891 1.369 . S
C3890 C3894 1.531 . S
C3891 C3890 1.369 . S
C3891 C3892 1.410 . S
C3891 C3899 1.503 . S
C3892 C3891 1.410 . S
C3892 C3893 1.392 . S
C3892 C3895 1.511 . S
C3893 C3889 1.376 . S
C3893 C3892 1.392 . S
C3893 H3905 0.929 . S
C3894 C3890 1.531 . S
C3894 H3906 0.960 . S
C3894 H3907 0.962 . S
C3894 H3908 0.960 . S
C3895 C3892 1.511 . S
C3895 H3909 0.961 . S
C3895 H3910 0.961 . S
C3895 H3911 0.961 . S
C3896 C3897 1.370 . S
C3896 C3898 1.363 . S
C3896 H3912 0.931 . S
C3897 C3896 1.370 . S
C3897 C3901 1.408 . S
C3898 C3896 1.363 . S
C3898 C3899 1.370 . S
C3898 C3902 1.524 . S
C3899 C3891 1.503 . S
C3899 C3898 1.370 . S
C3899 C3900 1.403 . S
C3900 C3899 1.403 . S
C3900 C3901 1.404 . S
C3900 C3903 1.539 . S
C3901 C3897 1.408 . S
C3901 C3900 1.404 . S
C3901 H3913 0.930 . S
C3902 C3898 1.524 . S
C3902 H3914 0.956 . S
C3902 H3915 0.961 . S
C3902 H3916 0.961 . S
C3903 C3900 1.539 . S
C3903 H3917 0.958 . S
C3903 H3918 0.961 . S
C3903 H3919 0.960 . S
H3904 C3888 0.931 . S
H3905 C3893 0.929 . S
H3906 C3894 0.960 . S
H3907 C3894 0.962 . S
H3908 C3894 0.960 . S
H3909 C3895 0.961 . S
H3910 C3895 0.961 . S
H3911 C3895 0.961 . S
H3912 C3896 0.931 . S
H3913 C3901 0.930 . S
H3914 C3902 0.956 . S
H3915 C3902 0.961 . S
H3916 C3902 0.961 . S
H3917 C3903 0.958 . S
H3918 C3903 0.961 . S
H3919 C3903 0.960 . S
C3920 C3921 1.391 . S
C3920 C3922 1.394 . S
C3920 H3936 0.931 . S
C3921 C3920 1.391 . S
C3921 C3925 1.376 . S
C3922 C3920 1.394 . S
C3922 C3923 1.369 . S
C3922 C3926 1.531 . S
C3923 C3922 1.369 . S
C3923 C3924 1.410 . S
C3923 C3931 1.503 . S
C3924 C3923 1.410 . S
C3924 C3925 1.392 . S
C3924 C3927 1.511 . S
C3925 C3921 1.376 . S
C3925 C3924 1.392 . S
C3925 H3937 0.929 . S
C3926 C3922 1.531 . S
C3926 H3938 0.960 . S
C3926 H3939 0.962 . S
C3926 H3940 0.960 . S
C3927 C3924 1.511 . S
C3927 H3941 0.961 . S
C3927 H3942 0.961 . S
C3927 H3943 0.961 . S
C3928 C3929 1.370 . S
C3928 C3930 1.363 . S
C3928 H3944 0.931 . S
C3929 C3928 1.370 . S
C3929 C3933 1.408 . S
C3930 C3928 1.363 . S
C3930 C3931 1.370 . S
C3930 C3934 1.524 . S
C3931 C3923 1.503 . S
C3931 C3930 1.370 . S
C3931 C3932 1.403 . S
C3932 C3931 1.403 . S
C3932 C3933 1.404 . S
C3932 C3935 1.539 . S
C3933 C3929 1.408 . S
C3933 C3932 1.404 . S
C3933 H3945 0.930 . S
C3934 C3930 1.524 . S
C3934 H3946 0.956 . S
C3934 H3947 0.961 . S
C3934 H3948 0.961 . S
C3935 C3932 1.539 . S
C3935 H3949 0.958 . S
C3935 H3950 0.961 . S
C3935 H3951 0.960 . S
H3936 C3920 0.931 . S
H3937 C3925 0.929 . S
H3938 C3926 0.960 . S
H3939 C3926 0.962 . S
H3940 C3926 0.960 . S
H3941 C3927 0.961 . S
H3942 C3927 0.961 . S
H3943 C3927 0.961 . S
H3944 C3928 0.931 . S
H3945 C3933 0.930 . S
H3946 C3934 0.956 . S
H3947 C3934 0.961 . S
H3948 C3934 0.961 . S
H3949 C3935 0.958 . S
H3950 C3935 0.961 . S
H3951 C3935 0.960 . S
C3952 C3953 1.391 . S
C3952 C3954 1.394 . S
C3952 H3968 0.931 . S
C3953 C3952 1.391 . S
C3953 C3957 1.376 . S
C3954 C3952 1.394 . S
C3954 C3955 1.369 . S
C3954 C3958 1.531 . S
C3955 C3954 1.369 . S
C3955 C3956 1.410 . S
C3955 C3963 1.503 . S
C3956 C3955 1.410 . S
C3956 C3957 1.392 . S
C3956 C3959 1.511 . S
C3957 C3953 1.376 . S
C3957 C3956 1.392 . S
C3957 H3969 0.929 . S
C3958 C3954 1.531 . S
C3958 H3970 0.960 . S
C3958 H3971 0.962 . S
C3958 H3972 0.960 . S
C3959 C3956 1.511 . S
C3959 H3973 0.961 . S
C3959 H3974 0.961 . S
C3959 H3975 0.961 . S
C3960 C3961 1.370 . S
C3960 C3962 1.363 . S
C3960 H3976 0.931 . S
C3961 C3960 1.370 . S
C3961 C3965 1.408 . S
C3962 C3960 1.363 . S
C3962 C3963 1.370 . S
C3962 C3966 1.524 . S
C3963 C3955 1.503 . S
C3963 C3962 1.370 . S
C3963 C3964 1.403 . S
C3964 C3963 1.403 . S
C3964 C3965 1.404 . S
C3964 C3967 1.539 1_554 S
C3965 C3961 1.408 . S
C3965 C3964 1.404 . S
C3965 H3977 0.956 . S
C3966 C3962 1.524 . S
C3966 H3978 0.956 . S
C3966 H3979 0.961 . S
C3966 H3980 0.961 . S
C3967 C3964 1.539 1_556 S
C3967 H3981 0.958 . S
C3967 H3982 0.961 . S
C3967 H3983 0.960 . S
H3968 C3952 0.931 . S
H3969 C3957 0.929 . S
H3970 C3958 0.960 . S
H3971 C3958 0.962 . S
H3972 C3958 0.960 . S
H3973 C3959 0.961 . S
H3974 C3959 0.961 . S
H3975 C3959 0.961 . S
H3976 C3960 0.931 . S
H3977 C3965 0.956 . S
H3978 C3966 0.956 . S
H3979 C3966 0.961 . S
H3980 C3966 0.961 . S
H3981 C3967 0.958 . S
H3982 C3967 0.961 . S
H3983 C3967 0.960 . S
C3984 C3985 1.391 . S
C3984 C3986 1.394 . S
C3984 H4000 0.931 . S
C3985 C3984 1.391 . S
C3985 C3989 1.376 . S
C3986 C3984 1.394 . S
C3986 C3987 1.369 . S
C3986 C3990 1.531 . S
C3987 C3986 1.369 . S
C3987 C3988 1.410 . S
C3987 C3995 1.503 . S
C3988 C3987 1.410 . S
C3988 C3989 1.392 . S
C3988 C3991 1.511 . S
C3989 C3985 1.376 . S
C3989 C3988 1.392 . S
C3989 H4001 0.929 . S
C3990 C3986 1.531 . S
C3990 H4002 0.960 . S
C3990 H4003 0.962 . S
C3990 H4004 0.960 . S
C3991 C3988 1.511 . S
C3991 H4005 0.961 . S
C3991 H4006 0.961 . S
C3991 H4007 0.961 . S
C3992 C3993 1.370 . S
C3992 C3994 1.363 . S
C3992 H4008 0.931 . S
C3993 C3992 1.370 . S
C3993 C3997 1.408 . S
C3994 C3992 1.363 . S
C3994 C3995 1.370 . S
C3994 C3998 1.524 . S
C3995 C3987 1.503 . S
C3995 C3994 1.370 . S
C3995 C3996 1.403 . S
C3996 C3995 1.403 . S
C3996 C3997 1.404 . S
C3996 C3999 1.539 . S
C3997 C3993 1.408 . S
C3997 C3996 1.404 . S
C3997 H4009 0.930 . S
C3998 C3994 1.524 . S
C3998 H4010 0.956 . S
C3998 H4011 0.961 . S
C3998 H4012 0.961 . S
C3999 C3996 1.539 . S
C3999 H4013 0.958 . S
C3999 H4014 0.961 . S
C3999 H4015 0.960 . S
H4000 C3984 0.931 . S
H4001 C3989 0.929 . S
H4002 C3990 0.960 . S
H4003 C3990 0.962 . S
H4004 C3990 0.960 . S
H4005 C3991 0.961 . S
H4006 C3991 0.961 . S
H4007 C3991 0.961 . S
H4008 C3992 0.931 . S
H4009 C3997 0.930 . S
H4010 C3998 0.956 . S
H4011 C3998 0.961 . S
H4012 C3998 0.961 . S
H4013 C3999 0.958 . S
H4014 C3999 0.961 . S
H4015 C3999 0.960 . S
C4016 C4017 1.391 . S
C4016 C4018 1.394 . S
C4016 H4032 0.931 . S
C4017 C4016 1.391 . S
C4017 C4021 1.376 . S
C4018 C4016 1.394 . S
C4018 C4019 1.369 . S
C4018 C4022 1.531 . S
C4019 C4018 1.369 . S
C4019 C4020 1.410 . S
C4019 C4027 1.503 . S
C4020 C4019 1.410 . S
C4020 C4021 1.392 . S
C4020 C4023 1.511 . S
C4021 C4017 1.376 . S
C4021 C4020 1.392 . S
C4021 H4033 0.929 . S
C4022 C4018 1.531 . S
C4022 H4034 0.960 . S
C4022 H4035 0.962 . S
C4022 H4036 0.960 . S
C4023 C4020 1.511 . S
C4023 H4037 0.961 . S
C4023 H4038 0.961 . S
C4023 H4039 0.961 . S
C4024 C4025 1.370 . S
C4024 C4026 1.363 . S
C4024 H4040 0.931 . S
C4025 C4024 1.370 . S
C4025 C4029 1.408 . S
C4026 C4024 1.363 . S
C4026 C4027 1.370 . S
C4026 C4030 1.524 . S
C4027 C4019 1.503 . S
C4027 C4026 1.370 . S
C4027 C4028 1.403 . S
C4028 C4027 1.403 . S
C4028 C4029 1.404 . S
C4028 C4031 1.539 . S
C4029 C4025 1.408 . S
C4029 C4028 1.404 . S
C4029 H4041 0.930 . S
C4030 C4026 1.524 . S
C4030 H4042 0.956 . S
C4030 H4043 0.961 . S
C4030 H4044 0.961 . S
C4031 C4028 1.539 . S
C4031 H4045 0.958 . S
C4031 H4046 0.961 . S
C4031 H4047 0.960 . S
H4032 C4016 0.931 . S
H4033 C4021 0.929 . S
H4034 C4022 0.960 . S
H4035 C4022 0.962 . S
H4036 C4022 0.960 . S
H4037 C4023 0.961 . S
H4038 C4023 0.961 . S
H4039 C4023 0.961 . S
H4040 C4024 0.931 . S
H4041 C4029 0.930 . S
H4042 C4030 0.956 . S
H4043 C4030 0.961 . S
H4044 C4030 0.961 . S
H4045 C4031 0.958 . S
H4046 C4031 0.961 . S
H4047 C4031 0.960 . S
C977 C106 2.559 . S
C985 C367 2.554 . S
C1009 C65 1.798 . S
C1017 C378 1.796 . S
C1041 C79 2.057 . S
C1049 C447 2.008 . S
C1081 C460 1.030 . S
C1073 C90 0.992 . S
C1105 C21 2.238 . S
C1113 C516 2.308 . S
C1145 C567 2.116 . S
C1137 C35 2.106 . S
C1177 C596 2.427 . S
C1169 C50 2.447 . S
C1201 C6 2.410 . S
C1209 C647 2.413 . S
C1241 C338 1.612 . S
C1233 C232 1.584 . S
C1265 C245 0.917 . S
C1273 C380 0.909 . S
C1305 C418 1.053 . S
C1297 C274 1.082 . S
C1337 C487 1.691 . S
C1329 C175 1.693 . S
C1361 C231 0.528 . S
C1369 C521 0.535 . S
C1401 C538 1.386 . S
C1393 C246 1.394 . S
C1433 C601 0.319 . S
C1425 C273 0.460 . S
C1465 C618 2.223 . S
C1457 C176 2.218 . S
C1497 C340 1.789 . S
C1489 C160 1.776 . S
C1521 C289 1.622 . S
C1529 C679 1.571 . S
C1561 C700 1.573 . S
C1553 C328 1.491 . S
C1593 C759 0.551 . S
C1585 C317 0.521 . S
C1617 C118 1.179 . S
C1625 C620 1.170 . S
C1649 C132 1.433 . S
C1657 C420 1.420 . S
C1681 C331 0.985 . S
C1689 C778 1.014 . S
C1721 C847 1.205 . S
C1713 C303 1.243 . S
C1753 C356 2.136 1_565 S
C1745 C63 2.097 . S
C1785 C839 2.285 . S
C1777 C107 2.201 . S
C1809 C92 1.847 . S
C1817 C436 1.841 . S
C1841 C78 1.468 . S
C1849 C801 1.456 . S
C1881 C527 2.941 . S
C1873 C8 2.930 . S
C1905 C51 2.273 . S
C1913 C716 2.244 . S
C1945 C607 2.763 1_556 S
C1937 C37 2.728 . S
C1977 C876 2.371 . S
C1969 C20 2.394 . S
C2009 C359 1.288 1_556 S
C2001 C147 1.250 . S
C2041 C841 1.092 . S
C2033 C316 1.126 . S
C2065 C119 1.026 . S
C2073 C439 1.081 . S
C2097 C288 1.828 . S
C2105 C796 1.848 . S
C2129 C148 0.755 . S
C2137 C500 0.765 . S
C2169 C719 1.447 . S
C2161 C315 1.398 . S
C2193 C120 0.536 . S
C2201 C580 0.537 . S
C2225 C287 2.142 . S
C2233 C879 2.131 . S
C2257 C188 1.575 . S
C2265 C361 1.481 . S
C2289 C177 1.853 . S
C2297 C658 1.849 . S
C2321 C258 1.485 . S
C2329 C561 1.458 . S
C2353 C247 0.674 . S
C2361 C738 0.618 . S
C2393 C881 0.995 . S
C2385 C272 0.905 . S
C2417 C216 1.297 . S
C2425 C441 1.266 . S
C2457 C479 1.314 . S
C2449 C261 1.286 . S
C2489 C396 1.139 . S
C2481 C205 1.168 . S
C2513 C76 2.129 . S
C2521 C927 2.149 . S
C2553 C818 1.865 . S
C2545 C93 1.867 . S
C2577 C105 1.595 . S
C2585 C967 1.631 . S
C2609 C62 1.067 . S
C2617 C780 1.031 . S
C2641 C49 2.216 . S
C2649 C676 2.266 . S
C2681 C727 2.523 . S
C2673 C9 2.512 . S
C2713 C756 2.362 . S
C2705 C22 2.384 . S
C2745 C887 2.777 . S
C2737 C36 2.817 . S
C2777 C898 1.519 . S
C2769 C260 1.516 . S
C2801 C189 0.819 . S
C2809 C820 0.785 . S
C2841 C938 0.999 . S
C2833 C204 1.003 . S
C2873 C807 1.512 . S
C2865 C217 1.508 . S
C2905 C681 0.649 . S
C2897 C259 0.573 . S
C2929 C190 1.478 . S
C2937 C698 1.463 . S
C2969 C761 0.417 . S
C2961 C203 0.546 . S
C2993 C218 2.254 . S
C3001 C858 2.270 . S
C3033 C900 1.760 . S
C3025 C314 1.814 . S
C3057 C135 1.678 . S
C3065 C519 1.631 . S
C3097 C540 1.574 . S
C3089 C146 1.489 1_565 S
C3129 C599 0.611 . S
C3121 C163 0.574 . S
C3161 C860 1.148 . S
C3153 C300 1.172 . S
C3185 C286 1.357 . S
C3193 C940 1.444 . S
C3225 C458 0.913 . S
C3217 C149 0.892 . S
C3257 C407 1.179 . S
C3249 C121 1.216 . S
C3281 C91 2.127 . S
C3289 C916 2.119 . S
C3321 C399 1.876 . S
C3313 C77 1.705 . S
C3345 C64 1.798 . S
C3353 C956 1.815 . S
C3377 C104 1.177 . S
C3385 C481 1.150 . S
C3409 C34 2.466 . S
C3417 C687 2.553 . S
C3449 C556 2.221 . S
C3441 C23 2.240 . S
C3473 C7 2.291 . S
C3481 C767 2.390 . S
C3505 C48 2.372 . S
C3513 C636 2.342 . S
C3545 C919 1.239 . S
C3537 C329 1.176 . S
C3569 C162 1.107 . S
C3577 C401 1.082 . S
C3609 C959 1.103 . S
C3601 C301 1.099 . S
C3633 C134 1.784 . S
C3641 C476 1.843 . S
C3665 C330 0.765 . S
C3673 C660 0.775 . S
C3705 C559 1.418 . S
C3697 C161 1.330 . S
C3729 C302 0.610 . S
C3737 C740 0.600 . S
C3769 C639 2.106 . S
C3761 C133 2.129 . S
C3801 C921 1.600 . S
C3793 C244 1.668 . S
C3833 C498 1.833 1_665 S
C3825 C219 1.845 . S
C3857 C230 1.342 . S
C3865 C721 1.366 . S
C3897 C578 0.602 . S
C3889 C191 0.562 . S
C3921 C202 1.046 . S
C3929 C641 1.085 . S
C3953 C174 1.431 . S
C3961 C961 1.454 . S
C3993 C799 1.264 . S
C3985 C233 1.242 . S
C4025 C836 1.154 . S
C4017 C275 1.204 . S
