# Generated by pormake.
# Topology wbl, (4,4)-cn, num edge types: 1
# Building blocks:
#     Node 0, Type 0, BuildingBlock: MUDLON_clean_sbu_0, # of connection points: 4
#     Node 1, Type 0, BuildingBlock: MUDLON_clean_sbu_0, # of connection points: 4
#     Node 2, Type 0, BuildingBlock: MUDLON_clean_sbu_0, # of connection points: 4
#     Node 3, Type 0, BuildingBlock: MUDLON_clean_sbu_0, # of connection points: 4
#     Node 4, Type 0, BuildingBlock: MUDLON_clean_sbu_0, # of connection points: 4
#     Node 5, Type 0, BuildingBlock: MUDLON_clean_sbu_0, # of connection points: 4
#     Node 6, Type 0, BuildingBlock: MUDLON_clean_sbu_0, # of connection points: 4
#     Node 7, Type 0, BuildingBlock: MUDLON_clean_sbu_0, # of connection points: 4
#     Node 8, Type 1, BuildingBlock: GALJAG_clean_sbu_0, # of connection points: 4
#     Node 9, Type 1, BuildingBlock: GALJAG_clean_sbu_0, # of connection points: 4
#     Node 10, Type 1, BuildingBlock: GALJAG_clean_sbu_0, # of connection points: 4
#     Node 11, Type 1, BuildingBlock: GALJAG_clean_sbu_0, # of connection points: 4
#     Node 12, Type 1, BuildingBlock: GALJAG_clean_sbu_0, # of connection points: 4
#     Node 13, Type 1, BuildingBlock: GALJAG_clean_sbu_0, # of connection points: 4
#     Node 14, Type 1, BuildingBlock: GALJAG_clean_sbu_0, # of connection points: 4
#     Node 15, Type 1, BuildingBlock: GALJAG_clean_sbu_0, # of connection points: 4
#     Edge 16, Type (0, 1), BuildingBlock: OJICUG_clean_linker_0, # of connection points: 2
#     Edge 17, Type (0, 1), BuildingBlock: OJICUG_clean_linker_0, # of connection points: 2
#     Edge 18, Type (0, 1), BuildingBlock: OJICUG_clean_linker_0, # of connection points: 2
#     Edge 19, Type (0, 1), BuildingBlock: OJICUG_clean_linker_0, # of connection points: 2
#     Edge 20, Type (0, 1), BuildingBlock: OJICUG_clean_linker_0, # of connection points: 2
#     Edge 21, Type (0, 1), BuildingBlock: OJICUG_clean_linker_0, # of connection points: 2
#     Edge 22, Type (0, 1), BuildingBlock: OJICUG_clean_linker_0, # of connection points: 2
#     Edge 23, Type (0, 1), BuildingBlock: OJICUG_clean_linker_0, # of connection points: 2
#     Edge 24, Type (0, 1), BuildingBlock: OJICUG_clean_linker_0, # of connection points: 2
#     Edge 25, Type (0, 1), BuildingBlock: OJICUG_clean_linker_0, # of connection points: 2
#     Edge 26, Type (0, 1), BuildingBlock: OJICUG_clean_linker_0, # of connection points: 2
#     Edge 27, Type (0, 1), BuildingBlock: OJICUG_clean_linker_0, # of connection points: 2
#     Edge 28, Type (0, 1), BuildingBlock: OJICUG_clean_linker_0, # of connection points: 2
#     Edge 29, Type (0, 1), BuildingBlock: OJICUG_clean_linker_0, # of connection points: 2
#     Edge 30, Type (0, 1), BuildingBlock: OJICUG_clean_linker_0, # of connection points: 2
#     Edge 31, Type (0, 1), BuildingBlock: OJICUG_clean_linker_0, # of connection points: 2
#     Edge 32, Type (0, 1), BuildingBlock: OJICUG_clean_linker_0, # of connection points: 2
#     Edge 33, Type (0, 1), BuildingBlock: OJICUG_clean_linker_0, # of connection points: 2
#     Edge 34, Type (0, 1), BuildingBlock: OJICUG_clean_linker_0, # of connection points: 2
#     Edge 35, Type (0, 1), BuildingBlock: OJICUG_clean_linker_0, # of connection points: 2
#     Edge 36, Type (0, 1), BuildingBlock: OJICUG_clean_linker_0, # of connection points: 2
#     Edge 37, Type (0, 1), BuildingBlock: OJICUG_clean_linker_0, # of connection points: 2
#     Edge 38, Type (0, 1), BuildingBlock: OJICUG_clean_linker_0, # of connection points: 2
#     Edge 39, Type (0, 1), BuildingBlock: OJICUG_clean_linker_0, # of connection points: 2
#     Edge 40, Type (0, 1), BuildingBlock: OJICUG_clean_linker_0, # of connection points: 2
#     Edge 41, Type (0, 1), BuildingBlock: OJICUG_clean_linker_0, # of connection points: 2
#     Edge 42, Type (0, 1), BuildingBlock: OJICUG_clean_linker_0, # of connection points: 2
#     Edge 43, Type (0, 1), BuildingBlock: OJICUG_clean_linker_0, # of connection points: 2
#     Edge 44, Type (0, 1), BuildingBlock: OJICUG_clean_linker_0, # of connection points: 2
#     Edge 45, Type (0, 1), BuildingBlock: OJICUG_clean_linker_0, # of connection points: 2
#     Edge 46, Type (0, 1), BuildingBlock: OJICUG_clean_linker_0, # of connection points: 2
#     Edge 47, Type (0, 1), BuildingBlock: OJICUG_clean_linker_0, # of connection points: 2
# Relax obj value: 0.157
# Max RMSD: 0.185
# Mean RMSD: 0.148
data_MOF--net-wbl--node1-MUDLON_clean_sbu_0--node2-GALJAG_clean_sbu_0--edge1-OJICUG_clean_linker_0
_symmetry_space_group_name_H-M    P1
_symmetry_Int_Tables_number       1
_symmetry_cell_setting            triclinic
loop_
_symmetry_equiv_pos_as_xyz
'x, y, z'
_cell_length_a     25.324885
_cell_length_b     25.366018
_cell_length_c     60.094857
_cell_angle_alpha  90.006596
_cell_angle_beta   90.211256
_cell_angle_gamma 90.050517
loop_
_atom_site_label
_atom_site_type_symbol
_atom_site_fract_x
_atom_site_fract_y
_atom_site_fract_z
_atom_type_partial_charge
Mg0 Mg 0.00415 0.00669 0.35541 0.0
C1 C 0.98743 0.92317 0.39267 0.0
O2 O 0.93984 0.94294 0.39476 0.0
C3 C 0.93661 0.0348 0.31569 0.0
O4 O 0.98271 0.0325 0.30583 0.0
C5 C 0.06468 0.95008 0.32371 0.0
O6 O 0.02565 0.91917 0.32979 0.0
O7 O 0.06771 0.99616 0.33206 0.0
O8 O 0.01599 0.93777 0.37649 0.0
O9 O 0.00508 0.06901 0.38028 0.0
C10 C 0.95905 0.07342 0.3885 0.0
O11 O 0.92034 0.04594 0.3797 0.0
O12 O 0.93269 0.02097 0.33599 0.0
Mg13 Mg 0.99627 0.50714 0.60561 0.0
C14 C 0.09531 0.53462 0.63058 0.0
O15 O 0.09481 0.57341 0.61614 0.0
C16 C 0.98303 0.40114 0.5802 0.0
O17 O 0.00926 0.37996 0.59684 0.0
C18 C 0.04389 0.57114 0.57119 0.0
O19 O 0.06485 0.52412 0.56876 0.0
O20 O 0.00996 0.5781 0.58652 0.0
O21 O 0.06381 0.49602 0.6277 0.0
O22 O 0.93387 0.50578 0.6307 0.0
C23 C 0.91173 0.46114 0.63339 0.0
O24 O 0.92116 0.4237 0.61895 0.0
O25 O 0.97563 0.45052 0.57981 0.0
Mg26 Mg 0.47769 0.47561 0.85629 0.0
C27 C 0.48243 0.5861 0.88691 0.0
O28 O 0.50649 0.61923 0.87355 0.0
C29 C 0.57279 0.48049 0.82239 0.0
O30 O 0.56785 0.53201 0.82162 0.0
C31 C 0.41644 0.53603 0.82579 0.0
O32 O 0.45703 0.56527 0.83163 0.0
O33 O 0.41182 0.49024 0.83429 0.0
O34 O 0.47372 0.53896 0.88075 0.0
O35 O 0.48475 0.41434 0.88125 0.0
C36 C 0.52941 0.42584 0.88988 0.0
O37 O 0.55791 0.46309 0.88058 0.0
O38 O 0.54319 0.45375 0.83505 0.0
Mg39 Mg 0.48552 0.00958 0.10687 0.0
C40 C 0.5856 0.0285 0.1342 0.0
O41 O 0.59656 0.06217 0.11831 0.0
C42 C 0.47482 0.90221 0.08195 0.0
O43 O 0.50474 0.88235 0.09776 0.0
C44 C 0.54645 0.06579 0.07425 0.0
O45 O 0.56832 0.01893 0.0755 0.0
O46 O 0.50724 0.07647 0.08666 0.0
O47 O 0.54727 0.99651 0.13165 0.0
O48 O 0.41868 0.0129 0.12967 0.0
C49 C 0.40594 0.96609 0.13516 0.0
O50 O 0.42956 0.92676 0.12519 0.0
O51 O 0.46442 0.95107 0.0819 0.0
Mg52 Mg 4e-05 0.49796 0.90904 0.0
C53 C 0.04032 0.5836 0.88068 0.0
O54 O 0.08251 0.56814 0.89162 0.0
C55 C 0.93319 0.47229 0.94949 0.0
O56 O 0.97378 0.49179 0.96036 0.0
C57 C 0.06276 0.5596 0.94073 0.0
O58 O 0.02247 0.59038 0.93609 0.0
O59 O 0.06506 0.51428 0.93161 0.0
O60 O 0.99568 0.56414 0.88592 0.0
O61 O 0.00351 0.43523 0.88456 0.0
C62 C 0.95996 0.43871 0.874 0.0
O63 O 0.92504 0.47364 0.88055 0.0
O64 O 0.93176 0.47489 0.92838 0.0
Mg65 Mg 0.51838 0.51844 0.15795 0.0
C66 C 0.40344 0.49988 0.12805 0.0
O67 O 0.36779 0.46752 0.13609 0.0
C68 C 0.52339 0.41422 0.18499 0.0
O69 O 0.48215 0.40079 0.17291 0.0
C70 C 0.46721 0.57935 0.19143 0.0
O71 O 0.44842 0.53126 0.19339 0.0
O72 O 0.50256 0.58829 0.17688 0.0
O73 O 0.44587 0.50677 0.13907 0.0
O74 O 0.57751 0.51424 0.13223 0.0
C75 C 0.57967 0.46587 0.12668 0.0
O76 O 0.54941 0.432 0.13711 0.0
O77 O 0.54327 0.4598 0.18259 0.0
Mg78 Mg 0.49664 -0.00177 0.40756 0.0
C79 C 0.52718 0.09074 0.37864 0.0
O80 O 0.56435 0.09553 0.39374 0.0
C81 C 0.43385 0.97203 0.4492 0.0
O82 O 0.47967 0.97906 0.45902 0.0
C83 C 0.55487 0.06358 0.43969 0.0
O84 O 0.51153 0.09081 0.43615 0.0
O85 O 0.56123 0.01992 0.42956 0.0
O86 O 0.48972 0.05812 0.38178 0.0
O87 O 0.5039 0.93104 0.38517 0.0
C88 C 0.45959 0.90961 0.38073 0.0
O89 O 0.41827 0.92316 0.39252 0.0
O90 O 0.42881 0.98119 0.42849 0.0
Mg91 Mg -0.00184 0.00137 0.65848 0.0
C92 C 0.08686 0.9603 0.63171 0.0
O93 O 0.07336 0.91924 0.6437 0.0
C94 C 0.96944 0.06879 0.69877 0.0
O95 O 0.98636 0.02746 0.70981 0.0
C96 C 0.05202 0.93672 0.6924 0.0
O97 O 0.08279 0.97834 0.69101 0.0
O98 O 0.01025 0.93498 0.68055 0.0
O99 O 0.06543 0.00464 0.63588 0.0
O100 O 0.93632 0.99532 0.63373 0.0
C101 C 0.93499 0.03921 0.62352 0.0
O102 O 0.96696 0.07715 0.62989 0.0
O103 O 0.97413 0.07022 0.6777 0.0
In104 In 0.33492 0.66673 0.00838 0.0
O105 O 0.31804 0.73274 0.03317 0.0
O106 O 0.37849 0.74542 0.00939 0.0
C107 C 0.24053 0.63666 0.99151 0.0
C108 C 0.35945 0.61134 0.04559 0.0
C109 C 0.39233 0.64702 0.97153 0.0
O110 O 0.25116 0.68485 0.99476 0.0
O111 O 0.27645 0.60529 0.99727 0.0
O112 O 0.38953 0.61532 0.98772 0.0
O113 O 0.36761 0.68975 0.97418 0.0
C114 C 0.35491 0.76207 0.02641 0.0
O115 O 0.3945 0.63022 0.03294 0.0
O116 O 0.3127 0.61934 0.03915 0.0
In117 In 0.33067 0.83791 0.25709 0.0
O118 O 0.32617 0.7505 0.24724 0.0
O119 O 0.3983 0.79298 0.24274 0.0
C120 C 0.23612 0.87035 0.27142 0.0
C121 C 0.33297 0.8914 0.21868 0.0
C122 C 0.38553 0.84538 0.2954 0.0
O123 O 0.2457 0.82187 0.26826 0.0
O124 O 0.27354 0.90125 0.26685 0.0
O125 O 0.39648 0.87314 0.27855 0.0
O126 O 0.34733 0.81398 0.29277 0.0
C127 C 0.37351 0.75021 0.2404 0.0
O128 O 0.35701 0.90743 0.23592 0.0
O129 O 0.30702 0.84918 0.22108 0.0
In130 In 0.16268 0.8413 0.50697 0.0
O131 O 0.13364 0.90873 0.52875 0.0
O132 O 0.18368 0.85076 0.54354 0.0
C133 C 0.10349 0.85693 0.47007 0.0
C134 C 0.12479 0.74878 0.52201 0.0
C135 C 0.25816 0.87467 0.49324 0.0
O136 O 0.09305 0.87805 0.48856 0.0
O137 O 0.14424 0.82838 0.47005 0.0
O138 O 0.24449 0.82677 0.49171 0.0
O139 O 0.22442 0.90457 0.502 0.0
C140 C 0.15662 0.89217 0.54614 0.0
O141 O 0.17285 0.75381 0.5166 0.0
O142 O 0.09686 0.78915 0.51894 0.0
In143 In 0.1585 0.66077 0.75619 0.0
O144 O 0.09293 0.62618 0.77784 0.0
O145 O 0.14344 0.6843 0.79206 0.0
C146 C 0.15208 0.6076 0.71758 0.0
C147 C 0.25063 0.62239 0.77129 0.0
C148 C 0.12358 0.75349 0.74046 0.0
O149 O 0.12338 0.5966 0.73415 0.0
O150 O 0.18442 0.6449 0.72067 0.0
O151 O 0.17078 0.74781 0.74709 0.0
O152 O 0.09473 0.71323 0.7424 0.0
C153 C 0.10532 0.65296 0.79483 0.0
O154 O 0.24427 0.67125 0.76778 0.0
O155 O 0.21146 0.59386 0.76644 0.0
In156 In 0.82399 0.17579 0.50693 0.0
O157 O 0.81475 0.24198 0.53237 0.0
O158 O 0.87328 0.25132 0.50757 0.0
C159 C 0.72821 0.14735 0.49087 0.0
C160 C 0.85037 0.11782 0.54266 0.0
C161 C 0.88305 0.15081 0.47148 0.0
O162 O 0.7436 0.19476 0.49022 0.0
O163 O 0.75981 0.11637 0.50026 0.0
O164 O 0.87843 0.12136 0.48828 0.0
O165 O 0.85835 0.19403 0.47259 0.0
C166 C 0.8529 0.26887 0.52514 0.0
O167 O 0.88023 0.12287 0.52601 0.0
O168 O 0.80699 0.14213 0.5413 0.0
In169 In 0.82531 0.33162 0.75646 0.0
O170 O 0.86735 0.39243 0.73504 0.0
O171 O 0.80938 0.34365 0.71956 0.0
C172 C 0.88539 0.3537 0.79195 0.0
C173 C 0.85752 0.23475 0.74376 0.0
C174 C 0.73368 0.37221 0.77196 0.0
O175 O 0.88942 0.37784 0.77363 0.0
O176 O 0.85154 0.31701 0.79233 0.0
O177 O 0.74325 0.32329 0.77324 0.0
O178 O 0.76848 0.39846 0.76207 0.0
C179 C 0.84261 0.38044 0.71747 0.0
O180 O 0.81174 0.25162 0.73918 0.0
O181 O 0.88499 0.2652 0.75561 0.0
In182 In 0.67426 0.32521 0.00806 0.0
O183 O 0.68748 0.24147 0.02132 0.0
O184 O 0.60882 0.26771 0.01516 0.0
C185 C 0.77157 0.35476 0.99459 0.0
C186 C 0.65663 0.3763 0.04621 0.0
C187 C 0.61626 0.35115 0.97232 0.0
O188 O 0.74902 0.31433 0.98677 0.0
O189 O 0.74679 0.37707 0.00998 0.0
O190 O 0.62383 0.382 0.9885 0.0
O191 O 0.63752 0.3064 0.97415 0.0
C192 C 0.63849 0.23152 0.02225 0.0
O193 O 0.63875 0.39275 0.02782 0.0
O194 O 0.683 0.33414 0.04529 0.0
In195 In 0.66645 0.16614 0.25628 0.0
O196 O 0.61477 0.11388 0.27802 0.0
O197 O 0.63624 0.18945 0.29049 0.0
C198 C 0.6491 0.109 0.21941 0.0
C199 C 0.7636 0.13819 0.27112 0.0
C200 C 0.62737 0.25569 0.23847 0.0
O201 O 0.62164 0.10379 0.23684 0.0
O202 O 0.68638 0.14214 0.22083 0.0
O203 O 0.67641 0.25118 0.24228 0.0
O204 O 0.59986 0.21714 0.2446 0.0
C205 C 0.61163 0.14687 0.29371 0.0
O206 O 0.74154 0.18039 0.27727 0.0
O207 O 0.7383 0.11242 0.25673 0.0
C208 C 0.11189 0.87509 0.30581 0.0
C209 C 0.10523 0.92981 0.30844 0.0
H210 H 0.15871 0.81306 0.29187 0.0
C211 C 0.1384 0.96441 0.29688 0.0
H212 H 0.08671 0.84747 0.31452 0.0
C213 C 0.17911 0.94466 0.28372 0.0
C214 C 0.18769 0.89001 0.28209 0.0
H215 H 0.13346 0.0067 0.2983 0.0
H216 H 0.20502 0.97232 0.27542 0.0
C217 C 0.15291 0.85532 0.29278 0.0
C218 C 0.10904 0.61021 0.54458 0.0
C219 C 0.06312 0.61558 0.55755 0.0
H220 H 0.16513 0.6484 0.52321 0.0
C221 C 0.03683 0.66416 0.55785 0.0
H222 H 0.13019 0.57313 0.54399 0.0
C223 C 0.05636 0.70671 0.54569 0.0
C224 C 0.10308 0.70188 0.53326 0.0
H225 H 0.00136 0.6695 0.56761 0.0
H226 H 0.03554 0.74394 0.54654 0.0
C227 C 0.12917 0.65318 0.5327 0.0
C228 C 0.33991 0.52428 0.79983 0.0
C229 C 0.37673 0.55749 0.81023 0.0
H230 H 0.27197 0.5189 0.77875 0.0
C231 C 0.375 0.61201 0.80589 0.0
H232 H 0.3409 0.48208 0.80254 0.0
C233 C 0.33548 0.63321 0.7923 0.0
C234 C 0.29723 0.60018 0.78271 0.0
H235 H 0.40313 0.63862 0.81358 0.0
H236 H 0.33375 0.67553 0.78999 0.0
C237 C 0.30069 0.54541 0.78611 0.0
C238 C 0.43353 0.88071 0.04515 0.0
C239 C 0.44332 0.86741 0.0675 0.0
H240 H 0.39766 0.85695 0.01422 0.0
C241 C 0.41941 0.82243 0.07653 0.0
H242 H 0.45093 0.91583 0.03798 0.0
C243 C 0.38694 0.79065 0.06336 0.0
C244 C 0.37919 0.80234 0.04076 0.0
H245 H 0.42543 0.81208 0.09384 0.0
H246 H 0.3701 0.75533 0.0706 0.0
C247 C 0.40263 0.84764 0.0317 0.0
C248 C 0.10981 0.633 0.96052 0.0
C249 C 0.10597 0.57907 0.95513 0.0
H250 H 0.15559 0.6939 0.97627 0.0
C251 C 0.14469 0.54433 0.96305 0.0
H252 H 0.08042 0.66078 0.95467 0.0
C253 C 0.18717 0.56321 0.97556 0.0
C254 C 0.19225 0.61735 0.98025 0.0
H255 H 0.14258 0.50257 0.95937 0.0
H256 H 0.21684 0.53535 0.98108 0.0
C257 C 0.15276 0.65204 0.97289 0.0
C258 C 0.40431 0.61222 0.22039 0.0
C259 C 0.44455 0.62243 0.20483 0.0
H260 H 0.34962 0.64499 0.24391 0.0
C261 C 0.46139 0.67447 0.20153 0.0
H262 H 0.39059 0.57238 0.22335 0.0
C263 C 0.43837 0.71552 0.21341 0.0
C264 C 0.39769 0.70554 0.22867 0.0
H265 H 0.49193 0.68368 0.18957 0.0
H266 H 0.45175 0.75541 0.21026 0.0
C267 C 0.38073 0.65359 0.23212 0.0
C268 C 0.37085 0.89759 0.45348 0.0
C269 C 0.39099 0.94579 0.46128 0.0
H270 H 0.31398 0.83587 0.45815 0.0
C271 C 0.37051 0.96796 0.48076 0.0
H272 H 0.38696 0.87946 0.43866 0.0
C273 C 0.32822 0.94372 0.49161 0.0
C274 C 0.30709 0.89607 0.48355 0.0
H275 H 0.38602 0.00484 0.48712 0.0
H276 H 0.31145 0.96266 0.50612 0.0
C277 C 0.32967 0.87246 0.46474 0.0
C278 C 0.11252 0.89444 0.72023 0.0
C279 C 0.06831 0.89107 0.70603 0.0
H280 H 0.16487 0.85333 0.74242 0.0
C281 C 0.04144 0.84289 0.70412 0.0
H282 H 0.13384 0.9312 0.72216 0.0
C283 C 0.05898 0.79872 0.71579 0.0
C284 C 0.10394 0.80166 0.72951 0.0
H285 H 0.00755 0.83888 0.6932 0.0
H286 H 0.0381 0.76179 0.71355 0.0
C287 C 0.13035 0.84999 0.73181 0.0
C288 C 0.64904 0.4809 0.79594 0.0
C289 C 0.61205 0.45259 0.80846 0.0
H290 H 0.71586 0.47756 0.77444 0.0
C291 C 0.61306 0.39699 0.8077 0.0
H292 H 0.64931 0.52359 0.79608 0.0
C293 C 0.65131 0.37039 0.79522 0.0
C294 C 0.68918 0.39886 0.78322 0.0
H295 H 0.58468 0.37388 0.81698 0.0
H296 H 0.65187 0.32769 0.79535 0.0
C297 C 0.68709 0.45436 0.78346 0.0
C298 C 0.6252 0.11406 0.06044 0.0
C299 C 0.57032 0.10614 0.06002 0.0
H300 H 0.69018 0.16053 0.04874 0.0
C301 C 0.5388 0.13643 0.04578 0.0
H302 H 0.6501 0.09093 0.07141 0.0
C303 C 0.56173 0.17521 0.03247 0.0
C304 C 0.6164 0.18489 0.03352 0.0
H305 H 0.49653 0.13008 0.04494 0.0
H306 H 0.5364 0.19862 0.02179 0.0
C307 C 0.6481 0.15347 0.04738 0.0
C308 C 0.8853 0.05543 0.28123 0.0
C309 C 0.89221 0.06109 0.30429 0.0
H310 H 0.83855 0.07542 0.25261 0.0
C311 C 0.85877 0.09521 0.31608 0.0
H312 H 0.91099 0.0298 0.27175 0.0
C313 C 0.81885 0.123 0.305 0.0
C314 C 0.81078 0.11591 0.28206 0.0
H315 H 0.86399 0.101 0.33382 0.0
H316 H 0.79304 0.14844 0.31451 0.0
C317 C 0.8443 0.08186 0.27028 0.0
C318 C 0.91908 0.32791 0.57527 0.0
C319 C 0.94962 0.3681 0.56577 0.0
H320 H 0.86222 0.26684 0.56984 0.0
C321 C 0.94414 0.3792 0.54297 0.0
H322 H 0.9216 0.31961 0.59293 0.0
C323 C 0.91081 0.34831 0.52962 0.0
C324 C 0.88079 0.3076 0.53914 0.0
H325 H 0.96659 0.41085 0.53543 0.0
H326 H 0.90899 0.35568 0.51188 0.0
C327 C 0.88435 0.2985 0.56214 0.0
C328 C 0.60474 0.14039 0.45517 0.0
C329 C 0.59688 0.08556 0.45391 0.0
H330 H 0.65305 0.20338 0.46777 0.0
C331 C 0.62999 0.05196 0.46605 0.0
H332 H 0.57966 0.16709 0.44585 0.0
C333 C 0.67098 0.07268 0.47891 0.0
C334 C 0.68043 0.12737 0.4795 0.0
H335 H 0.62426 0.00963 0.46556 0.0
H336 H 0.69628 0.04555 0.48788 0.0
C337 C 0.64656 0.16117 0.46771 0.0
C338 C 0.95138 0.12238 0.73278 0.0
C339 C 0.93956 0.11018 0.71053 0.0
H340 H 0.93433 0.17176 0.7608 0.0
C341 C 0.89724 0.13601 0.69997 0.0
H342 H 0.9835 0.10269 0.74135 0.0
C343 C 0.86782 0.17404 0.71137 0.0
C344 C 0.8812 0.18785 0.7333 0.0
H345 H 0.88674 0.12664 0.68292 0.0
H346 H 0.83625 0.19433 0.70269 0.0
C347 C 0.923 0.16146 0.74394 0.0
C348 C 0.87897 0.45422 0.98322 0.0
C349 C 0.89336 0.44096 0.96143 0.0
H350 H 0.82904 0.43686 0.0109 0.0
C351 C 0.87112 0.39601 0.95141 0.0
H352 H 0.89592 0.48846 0.99133 0.0
C353 C 0.83397 0.36555 0.9628 0.0
C354 C 0.81773 0.38019 0.98422 0.0
H355 H 0.88256 0.38431 0.93477 0.0
H356 H 0.81648 0.33186 0.9545 0.0
C357 C 0.84109 0.42441 0.99444 0.0
C358 C 0.53753 0.32119 0.19698 0.0
C359 C 0.55044 0.3747 0.19918 0.0
H360 H 0.55265 0.24226 0.20749 0.0
C361 C 0.59079 0.38932 0.21425 0.0
H362 H 0.50759 0.30834 0.18526 0.0
C363 C 0.6173 0.35095 0.22694 0.0
C364 C 0.60334 0.29765 0.22483 0.0
H365 H 0.60169 0.43034 0.21629 0.0
H366 H 0.64765 0.36295 0.23864 0.0
C367 C 0.56353 0.28328 0.20968 0.0
C368 C 0.0647 0.87592 0.40975 0.0
C369 C 0.01329 0.89651 0.41178 0.0
H370 H 0.1335 0.84681 0.42668 0.0
C371 C 0.99019 0.89863 0.43299 0.0
H372 H 0.0837 0.87372 0.39365 0.0
C373 C 0.01914 0.88427 0.45188 0.0
C374 C 0.07139 0.86652 0.44993 0.0
H375 H 0.95076 0.91422 0.4352 0.0
H376 H 0.00106 0.88838 0.4681 0.0
C377 C 0.09333 0.86066 0.42865 0.0
C378 C 0.09768 0.52036 0.67183 0.0
C379 C 0.11898 0.5444 0.65277 0.0
H380 H 0.0912 0.52194 0.70738 0.0
C381 C 0.15637 0.58491 0.65548 0.0
H382 H 0.06844 0.48936 0.67035 0.0
C383 C 0.16948 0.60344 0.67669 0.0
C384 C 0.14503 0.58217 0.69563 0.0
H385 H 0.17345 0.60423 0.64112 0.0
H386 H 0.19658 0.63634 0.67815 0.0
C387 C 0.11036 0.53932 0.69306 0.0
C388 C 0.46264 0.65599 0.91581 0.0
C389 C 0.46181 0.60294 0.90894 0.0
H390 H 0.4407 0.7119 0.94112 0.0
C391 C 0.43901 0.56513 0.92315 0.0
H392 H 0.47975 0.6861 0.90529 0.0
C393 C 0.4177 0.57973 0.94359 0.0
C394 C 0.41785 0.63258 0.95033 0.0
H395 H 0.43717 0.52394 0.91844 0.0
H396 H 0.39978 0.54965 0.95392 0.0
C397 C 0.44027 0.67078 0.93626 0.0
C398 C 0.35181 0.90356 0.15696 0.0
C399 C 0.3746 0.95391 0.15514 0.0
H400 H 0.32025 0.84462 0.17854 0.0
C401 C 0.37619 0.98678 0.17393 0.0
H402 H 0.3503 0.87728 0.14275 0.0
C403 C 0.35972 0.96758 0.19465 0.0
C404 C 0.34064 0.91575 0.19667 0.0
H405 H 0.39398 0.02556 0.173 0.0
H406 H 0.36428 0.99228 0.20923 0.0
C407 C 0.33464 0.88479 0.17748 0.0
C408 C 0.01931 0.59694 0.84045 0.0
C409 C 0.04796 0.61183 0.85949 0.0
H410 H 0.01567 0.59753 0.80477 0.0
C411 C 0.09104 0.64622 0.8572 0.0
H412 H 0.98614 0.5703 0.84179 0.0
C413 C 0.10733 0.66267 0.83613 0.0
C414 C 0.0816 0.64395 0.81693 0.0
H415 H 0.11384 0.65818 0.87163 0.0
H416 H 0.14217 0.68729 0.83487 0.0
C417 C 0.0364 0.61231 0.81929 0.0
C418 C 0.34385 0.52336 0.09609 0.0
C419 C 0.39295 0.52885 0.1069 0.0
H420 H 0.29489 0.54513 0.06844 0.0
C421 C 0.43119 0.56205 0.09727 0.0
H422 H 0.31335 0.49833 0.10298 0.0
C423 C 0.42067 0.58851 0.0772 0.0
C424 C 0.37155 0.58277 0.0665 0.0
H425 H 0.46929 0.56751 0.10519 0.0
H426 H 0.4507 0.61397 0.07022 0.0
C427 C 0.33318 0.55024 0.07625 0.0
C428 C 0.40528 0.8495 0.35748 0.0
C429 C 0.45004 0.88192 0.35949 0.0
H430 H 0.35017 0.81208 0.33558 0.0
C431 C 0.47795 0.89603 0.34021 0.0
H432 H 0.38292 0.83823 0.37207 0.0
C433 C 0.45849 0.88189 0.31918 0.0
C434 C 0.41145 0.85279 0.31721 0.0
H435 H 0.51228 0.92143 0.34126 0.0
H436 H 0.47884 0.89579 0.30448 0.0
C437 C 0.3864 0.83473 0.33657 0.0
C438 C 0.10312 0.98051 0.59153 0.0
C439 C 0.1152 0.95087 0.61063 0.0
H440 H 0.10656 0.9848 0.55592 0.0
C441 C 0.14709 0.90584 0.6085 0.0
H442 H 0.07817 0.01507 0.59262 0.0
C443 C 0.16355 0.88871 0.58756 0.0
C444 C 0.14782 0.91588 0.56829 0.0
H445 H 0.15696 0.88221 0.62295 0.0
H446 H 0.18592 0.85243 0.58642 0.0
C447 C 0.11901 0.96293 0.5705 0.0
C448 C 0.57753 0.43896 0.92509 0.0
C449 C 0.54718 0.40539 0.91154 0.0
H450 H 0.62231 0.44789 0.95496 0.0
C451 C 0.5375 0.35345 0.9185 0.0
H452 H 0.58551 0.4793 0.9202 0.0
C453 C 0.55988 0.33502 0.93846 0.0
C454 C 0.59043 0.36903 0.9518 0.0
H455 H 0.51435 0.32691 0.90825 0.0
H456 H 0.55335 0.29453 0.94347 0.0
C457 C 0.59841 0.42116 0.94507 0.0
C458 C 0.57128 0.03706 0.17505 0.0
C459 C 0.60574 0.03967 0.15679 0.0
H460 H 0.55785 0.05772 0.2091 0.0
C461 C 0.65626 0.06146 0.1598 0.0
H462 H 0.53153 0.02187 0.17308 0.0
C463 C 0.67136 0.08203 0.18047 0.0
C464 C 0.63599 0.08155 0.19843 0.0
H465 H 0.68336 0.06427 0.14594 0.0
H466 H 0.71008 0.09979 0.1822 0.0
C467 C 0.58622 0.05793 0.19565 0.0
C468 C 0.9381 0.06015 0.42797 0.0
C469 C 0.95079 0.09522 0.41078 0.0
H470 H 0.90729 0.05049 0.4607 0.0
C471 C 0.94569 0.14963 0.41425 0.0
H472 H 0.94098 0.01799 0.42549 0.0
C473 C 0.92537 0.16849 0.43443 0.0
C474 C 0.9106 0.13299 0.45129 0.0
H475 H 0.95456 0.17716 0.401 0.0
H476 H 0.91967 0.21049 0.43658 0.0
C477 C 0.91867 0.07882 0.4481 0.0
C478 C 0.89577 0.47476 0.6742 0.0
C479 C 0.88565 0.44665 0.65448 0.0
H480 H 0.89034 0.47529 0.70983 0.0
C481 C 0.85688 0.39927 0.65562 0.0
H482 H 0.9182 0.51113 0.67387 0.0
C483 C 0.84085 0.37901 0.67608 0.0
C484 C 0.85387 0.40536 0.69586 0.0
H485 H 0.84863 0.37658 0.64073 0.0
H486 H 0.82053 0.34141 0.67646 0.0
C487 C 0.88033 0.45402 0.69476 0.0
C488 C 0.53406 0.0749 0.33794 0.0
C489 C 0.53868 0.10967 0.35604 0.0
H490 H 0.55459 0.05906 0.30406 0.0
C491 C 0.56365 0.1585 0.353 0.0
H492 H 0.51616 0.03639 0.34003 0.0
C493 C 0.58534 0.17166 0.33238 0.0
C494 C 0.5834 0.13564 0.31462 0.0
H495 H 0.56813 0.18562 0.36681 0.0
H496 H 0.60552 0.20909 0.33065 0.0
C497 C 0.55658 0.08762 0.31744 0.0
C498 C 0.93407 0.03927 0.58261 0.0
C499 C 0.90645 0.04607 0.60256 0.0
H500 H 0.93767 0.0567 0.54783 0.0
C501 C 0.85751 0.07178 0.60238 0.0
H502 H 0.9726 0.02069 0.5826 0.0
C503 C 0.8375 0.09266 0.58253 0.0
C504 C 0.86678 0.08878 0.56276 0.0
H505 H 0.83644 0.07858 0.61778 0.0
H506 H 0.80072 0.11441 0.58294 0.0
C507 C 0.91436 0.0604 0.56283 0.0
C508 C 0.94144 0.44707 0.83408 0.0
C509 C 0.95165 0.41395 0.85224 0.0
H510 H 0.91361 0.4535 0.80066 0.0
C511 C 0.94427 0.35937 0.85001 0.0
H512 H 0.9455 0.48935 0.83566 0.0
C513 C 0.92413 0.33871 0.83002 0.0
C514 C 0.91261 0.37249 0.81208 0.0
H515 H 0.95094 0.33337 0.86403 0.0
H516 H 0.91626 0.29683 0.82878 0.0
C517 C 0.92294 0.42652 0.8141 0.0
C518 C 0.61488 0.47863 0.08827 0.0
C519 C 0.60928 0.44717 0.1073 0.0
H520 H 0.63377 0.48013 0.05347 0.0
C521 C 0.62455 0.39399 0.10659 0.0
H522 H 0.60292 0.51962 0.08843 0.0
C523 C 0.6425 0.37176 0.08688 0.0
C524 C 0.64455 0.4021 0.06743 0.0
H525 H 0.62044 0.36891 0.12109 0.0
H526 H 0.65198 0.3301 0.08659 0.0
C527 C 0.63189 0.45598 0.06831 0.0
loop_
_geom_bond_atom_site_label_1
_geom_bond_atom_site_label_2
_geom_bond_distance
_geom_bond_site_symmetry_2
_ccdc_geom_bond_type
Mg0 O7 2.141 1_545 S
Mg0 O8 2.048 1_545 S
Mg0 O9 2.048 1_455 S
Mg0 O12 2.141 1_455 S
C1 O2 1.313 . S
C1 O8 1.195 . S
O2 C1 1.313 . S
C3 O4 1.245 . S
C3 O12 1.289 . S
O4 C3 1.245 . S
C5 O6 1.245 . S
C5 O7 1.289 . S
O6 C5 1.245 . S
O7 Mg0 2.141 1_565 S
O7 C5 1.289 . S
O8 Mg0 2.048 1_565 S
O8 C1 1.195 . S
O9 Mg0 2.048 1_655 S
O9 C10 1.195 . S
C10 O9 1.195 . S
C10 O11 1.313 1_545 S
O11 C10 1.313 1_565 S
O12 Mg0 2.141 1_655 S
O12 C3 1.289 . S
Mg13 O20 2.141 1_655 S
Mg13 O21 2.048 1_655 S
Mg13 O22 2.048 . S
Mg13 O25 2.141 . S
C14 O15 1.313 . S
C14 O21 1.195 . S
O15 C14 1.313 . S
C16 O17 1.245 . S
C16 O25 1.289 . S
O17 C16 1.245 . S
C18 O19 1.245 . S
C18 O20 1.289 . S
O19 C18 1.245 . S
O20 Mg13 2.141 1_455 S
O20 C18 1.289 . S
O21 Mg13 2.048 1_455 S
O21 C14 1.195 . S
O22 Mg13 2.048 . S
O22 C23 1.195 . S
C23 O22 1.195 . S
C23 O24 1.313 1_655 S
O24 C23 1.313 1_455 S
O25 Mg13 2.141 . S
O25 C16 1.289 . S
Mg26 O33 2.141 . S
Mg26 O34 2.048 . S
Mg26 O35 2.048 . S
Mg26 O38 2.141 . S
C27 O28 1.313 . S
C27 O34 1.195 . S
O28 C27 1.313 . S
C29 O30 1.245 . S
C29 O38 1.289 . S
O30 C29 1.245 . S
C31 O32 1.245 . S
C31 O33 1.289 . S
O32 C31 1.245 . S
O33 Mg26 2.141 . S
O33 C31 1.289 . S
O34 Mg26 2.048 . S
O34 C27 1.195 . S
O35 Mg26 2.048 . S
O35 C36 1.195 . S
C36 O35 1.195 . S
C36 O37 1.313 . S
O37 C36 1.313 . S
O38 Mg26 2.141 . S
O38 C29 1.289 . S
Mg39 O46 2.141 . S
Mg39 O47 2.048 . S
Mg39 O48 2.048 1_545 S
Mg39 O51 2.141 1_545 S
C40 O41 1.313 . S
C40 O47 1.195 . S
O41 C40 1.313 . S
C42 O43 1.245 . S
C42 O51 1.289 . S
O43 C42 1.245 . S
C44 O45 1.245 . S
C44 O46 1.289 . S
O45 C44 1.245 . S
O46 Mg39 2.141 . S
O46 C44 1.289 . S
O47 Mg39 2.048 . S
O47 C40 1.195 . S
O48 Mg39 2.048 1_565 S
O48 C49 1.195 . S
C49 O48 1.195 . S
C49 O50 1.313 . S
O50 C49 1.313 . S
O51 Mg39 2.141 1_565 S
O51 C42 1.289 . S
Mg52 O59 2.141 . S
Mg52 O60 2.048 . S
Mg52 O61 2.048 1_455 S
Mg52 O64 2.141 1_455 S
C53 O54 1.313 . S
C53 O60 1.195 . S
O54 C53 1.313 . S
C55 O56 1.245 . S
C55 O64 1.289 . S
O56 C55 1.245 . S
C57 O58 1.245 . S
C57 O59 1.289 . S
O58 C57 1.245 . S
O59 Mg52 2.141 . S
O59 C57 1.289 . S
O60 Mg52 2.048 . S
O60 C53 1.195 . S
O61 Mg52 2.048 1_655 S
O61 C62 1.195 . S
C62 O61 1.195 . S
C62 O63 1.313 . S
O63 C62 1.313 . S
O64 Mg52 2.141 1_655 S
O64 C55 1.289 . S
Mg65 O72 2.141 . S
Mg65 O73 2.048 . S
Mg65 O74 2.048 . S
Mg65 O77 2.141 . S
C66 O67 1.313 . S
C66 O73 1.195 . S
O67 C66 1.313 . S
C68 O69 1.245 . S
C68 O77 1.289 . S
O69 C68 1.245 . S
C70 O71 1.245 . S
C70 O72 1.289 . S
O71 C70 1.245 . S
O72 Mg65 2.141 . S
O72 C70 1.289 . S
O73 Mg65 2.048 . S
O73 C66 1.195 . S
O74 Mg65 2.048 . S
O74 C75 1.195 . S
C75 O74 1.195 . S
C75 O76 1.313 . S
O76 C75 1.313 . S
O77 Mg65 2.141 . S
O77 C68 1.289 . S
Mg78 O85 2.141 1_565 S
Mg78 O86 2.048 1_565 S
Mg78 O87 2.048 . S
Mg78 O90 2.141 . S
C79 O80 1.313 . S
C79 O86 1.195 . S
O80 C79 1.313 . S
C81 O82 1.245 . S
C81 O90 1.289 . S
O82 C81 1.245 . S
C83 O84 1.245 . S
C83 O85 1.289 . S
O84 C83 1.245 . S
O85 Mg78 2.141 1_545 S
O85 C83 1.289 . S
O86 Mg78 2.048 1_545 S
O86 C79 1.195 . S
O87 Mg78 2.048 . S
O87 C88 1.195 . S
C88 O87 1.195 . S
C88 O89 1.313 1_565 S
O89 C88 1.313 1_545 S
O90 Mg78 2.141 . S
O90 C81 1.289 . S
Mg91 O98 2.141 1_655 S
Mg91 O99 2.048 1_655 S
Mg91 O100 2.048 1_565 S
Mg91 O103 2.141 1_565 S
C92 O93 1.313 . S
C92 O99 1.195 . S
O93 C92 1.313 . S
C94 O95 1.245 . S
C94 O103 1.289 . S
O95 C94 1.245 . S
C96 O97 1.245 . S
C96 O98 1.289 . S
O97 C96 1.245 . S
O98 Mg91 2.141 1_455 S
O98 C96 1.289 . S
O99 Mg91 2.048 1_455 S
O99 C92 1.195 . S
O100 Mg91 2.048 1_545 S
O100 C101 1.195 . S
C101 O100 1.195 . S
C101 O102 1.313 1_655 S
O102 C101 1.313 1_455 S
O103 Mg91 2.141 1_545 S
O103 C94 1.289 . S
In104 O105 2.294 . S
In104 O106 2.326 . S
In104 O110 2.266 1_554 S
In104 O111 2.326 1_554 S
In104 O112 2.266 1_554 S
In104 O113 2.326 1_554 S
In104 O115 2.294 . S
In104 O116 2.326 . S
O105 In104 2.294 . S
O105 C114 1.240 . S
O106 In104 2.326 . S
O106 C114 1.252 . S
C107 O110 1.252 . S
C107 O111 1.260 . S
C108 O115 1.240 . S
C108 O116 1.252 . S
C109 O112 1.252 . S
C109 O113 1.260 . S
O110 In104 2.266 1_556 S
O110 C107 1.252 . S
O111 In104 2.326 1_556 S
O111 C107 1.260 . S
O112 In104 2.266 1_556 S
O112 C109 1.252 . S
O113 In104 2.326 1_556 S
O113 C109 1.260 . S
C114 O105 1.240 . S
C114 O106 1.252 . S
O115 In104 2.294 . S
O115 C108 1.240 . S
O116 In104 2.326 . S
O116 C108 1.252 . S
In117 O118 2.294 . S
In117 O119 2.326 . S
In117 O123 2.266 . S
In117 O124 2.326 . S
In117 O125 2.266 . S
In117 O126 2.326 . S
In117 O128 2.294 . S
In117 O129 2.326 . S
O118 In117 2.294 . S
O118 C127 1.240 . S
O119 In117 2.326 . S
O119 C127 1.252 . S
C120 O123 1.252 . S
C120 O124 1.260 . S
C121 O128 1.240 . S
C121 O129 1.252 . S
C122 O125 1.252 . S
C122 O126 1.260 . S
O123 In117 2.266 . S
O123 C120 1.252 . S
O124 In117 2.326 . S
O124 C120 1.260 . S
O125 In117 2.266 . S
O125 C122 1.252 . S
O126 In117 2.326 . S
O126 C122 1.260 . S
C127 O118 1.240 . S
C127 O119 1.252 . S
O128 In117 2.294 . S
O128 C121 1.240 . S
O129 In117 2.326 . S
O129 C121 1.252 . S
In130 O131 2.294 . S
In130 O132 2.326 . S
In130 O136 2.266 . S
In130 O137 2.326 . S
In130 O138 2.266 . S
In130 O139 2.326 . S
In130 O141 2.294 . S
In130 O142 2.326 . S
O131 In130 2.294 . S
O131 C140 1.240 . S
O132 In130 2.326 . S
O132 C140 1.252 . S
C133 O136 1.252 . S
C133 O137 1.260 . S
C134 O141 1.240 . S
C134 O142 1.252 . S
C135 O138 1.252 . S
C135 O139 1.260 . S
O136 In130 2.266 . S
O136 C133 1.252 . S
O137 In130 2.326 . S
O137 C133 1.260 . S
O138 In130 2.266 . S
O138 C135 1.252 . S
O139 In130 2.326 . S
O139 C135 1.260 . S
C140 O131 1.240 . S
C140 O132 1.252 . S
O141 In130 2.294 . S
O141 C134 1.240 . S
O142 In130 2.326 . S
O142 C134 1.252 . S
In143 O144 2.294 . S
In143 O145 2.326 . S
In143 O149 2.266 . S
In143 O150 2.326 . S
In143 O151 2.266 . S
In143 O152 2.326 . S
In143 O154 2.294 . S
In143 O155 2.326 . S
O144 In143 2.294 . S
O144 C153 1.240 . S
O145 In143 2.326 . S
O145 C153 1.252 . S
C146 O149 1.252 . S
C146 O150 1.260 . S
C147 O154 1.240 . S
C147 O155 1.252 . S
C148 O151 1.252 . S
C148 O152 1.260 . S
O149 In143 2.266 . S
O149 C146 1.252 . S
O150 In143 2.326 . S
O150 C146 1.260 . S
O151 In143 2.266 . S
O151 C148 1.252 . S
O152 In143 2.326 . S
O152 C148 1.260 . S
C153 O144 1.240 . S
C153 O145 1.252 . S
O154 In143 2.294 . S
O154 C147 1.240 . S
O155 In143 2.326 . S
O155 C147 1.252 . S
In156 O157 2.294 . S
In156 O158 2.326 . S
In156 O162 2.266 . S
In156 O163 2.326 . S
In156 O164 2.266 . S
In156 O165 2.326 . S
In156 O167 2.294 . S
In156 O168 2.326 . S
O157 In156 2.294 . S
O157 C166 1.240 . S
O158 In156 2.326 . S
O158 C166 1.252 . S
C159 O162 1.252 . S
C159 O163 1.260 . S
C160 O167 1.240 . S
C160 O168 1.252 . S
C161 O164 1.252 . S
C161 O165 1.260 . S
O162 In156 2.266 . S
O162 C159 1.252 . S
O163 In156 2.326 . S
O163 C159 1.260 . S
O164 In156 2.266 . S
O164 C161 1.252 . S
O165 In156 2.326 . S
O165 C161 1.260 . S
C166 O157 1.240 . S
C166 O158 1.252 . S
O167 In156 2.294 . S
O167 C160 1.240 . S
O168 In156 2.326 . S
O168 C160 1.252 . S
In169 O170 2.294 . S
In169 O171 2.326 . S
In169 O175 2.266 . S
In169 O176 2.326 . S
In169 O177 2.266 . S
In169 O178 2.326 . S
In169 O180 2.294 . S
In169 O181 2.326 . S
O170 In169 2.294 . S
O170 C179 1.240 . S
O171 In169 2.326 . S
O171 C179 1.252 . S
C172 O175 1.252 . S
C172 O176 1.260 . S
C173 O180 1.240 . S
C173 O181 1.252 . S
C174 O177 1.252 . S
C174 O178 1.260 . S
O175 In169 2.266 . S
O175 C172 1.252 . S
O176 In169 2.326 . S
O176 C172 1.260 . S
O177 In169 2.266 . S
O177 C174 1.252 . S
O178 In169 2.326 . S
O178 C174 1.260 . S
C179 O170 1.240 . S
C179 O171 1.252 . S
O180 In169 2.294 . S
O180 C173 1.240 . S
O181 In169 2.326 . S
O181 C173 1.252 . S
In182 O183 2.294 . S
In182 O184 2.326 . S
In182 O188 2.266 1_554 S
In182 O189 2.326 1_554 S
In182 O190 2.266 1_554 S
In182 O191 2.326 1_554 S
In182 O193 2.294 . S
In182 O194 2.326 . S
O183 In182 2.294 . S
O183 C192 1.240 . S
O184 In182 2.326 . S
O184 C192 1.252 . S
C185 O188 1.252 . S
C185 O189 1.260 . S
C186 O193 1.240 . S
C186 O194 1.252 . S
C187 O190 1.252 . S
C187 O191 1.260 . S
O188 In182 2.266 1_556 S
O188 C185 1.252 . S
O189 In182 2.326 1_556 S
O189 C185 1.260 . S
O190 In182 2.266 1_556 S
O190 C187 1.252 . S
O191 In182 2.326 1_556 S
O191 C187 1.260 . S
C192 O183 1.240 . S
C192 O184 1.252 . S
O193 In182 2.294 . S
O193 C186 1.240 . S
O194 In182 2.326 . S
O194 C186 1.252 . S
In195 O196 2.294 . S
In195 O197 2.326 . S
In195 O201 2.266 . S
In195 O202 2.326 . S
In195 O203 2.266 . S
In195 O204 2.326 . S
In195 O206 2.294 . S
In195 O207 2.326 . S
O196 In195 2.294 . S
O196 C205 1.240 . S
O197 In195 2.326 . S
O197 C205 1.252 . S
C198 O201 1.252 . S
C198 O202 1.260 . S
C199 O206 1.240 . S
C199 O207 1.252 . S
C200 O203 1.252 . S
C200 O204 1.260 . S
O201 In195 2.266 . S
O201 C198 1.252 . S
O202 In195 2.326 . S
O202 C198 1.260 . S
O203 In195 2.266 . S
O203 C200 1.252 . S
O204 In195 2.326 . S
O204 C200 1.260 . S
C205 O196 1.240 . S
C205 O197 1.252 . S
O206 In195 2.294 . S
O206 C199 1.240 . S
O207 In195 2.326 . S
O207 C199 1.252 . S
C208 C209 1.387 . S
C208 H212 0.950 . S
C208 C217 1.390 . S
C209 C208 1.387 . S
C209 C211 1.387 . S
H210 C217 0.950 . S
C211 C209 1.387 . S
C211 C213 1.390 . S
C211 H215 0.950 . S
H212 C208 0.950 . S
C213 C211 1.390 . S
C213 C214 1.387 . S
C213 H216 0.950 . S
C214 C213 1.387 . S
C214 C217 1.387 . S
H215 C211 0.950 . S
H216 C213 0.950 . S
C217 C208 1.390 . S
C217 H210 0.950 . S
C217 C214 1.387 . S
C218 C219 1.387 . S
C218 H222 0.950 . S
C218 C227 1.390 . S
C219 C218 1.387 . S
C219 C221 1.387 . S
H220 C227 0.950 . S
C221 C219 1.387 . S
C221 C223 1.390 . S
C221 H225 0.950 . S
H222 C218 0.950 . S
C223 C221 1.390 . S
C223 C224 1.387 . S
C223 H226 0.950 . S
C224 C223 1.387 . S
C224 C227 1.387 . S
H225 C221 0.950 . S
H226 C223 0.950 . S
C227 C218 1.390 . S
C227 H220 0.950 . S
C227 C224 1.387 . S
C228 C229 1.387 . S
C228 H232 0.950 . S
C228 C237 1.390 . S
C229 C228 1.387 . S
C229 C231 1.387 . S
H230 C237 0.950 . S
C231 C229 1.387 . S
C231 C233 1.390 . S
C231 H235 0.950 . S
H232 C228 0.950 . S
C233 C231 1.390 . S
C233 C234 1.387 . S
C233 H236 0.950 . S
C234 C233 1.387 . S
C234 C237 1.387 . S
H235 C231 0.950 . S
H236 C233 0.950 . S
C237 C228 1.390 . S
C237 H230 0.950 . S
C237 C234 1.387 . S
C238 C239 1.387 . S
C238 H242 0.950 . S
C238 C247 1.390 . S
C239 C238 1.387 . S
C239 C241 1.387 . S
H240 C247 0.950 . S
C241 C239 1.387 . S
C241 C243 1.390 . S
C241 H245 0.950 . S
H242 C238 0.950 . S
C243 C241 1.390 . S
C243 C244 1.387 . S
C243 H246 0.950 . S
C244 C243 1.387 . S
C244 C247 1.387 . S
H245 C241 0.950 . S
H246 C243 0.950 . S
C247 C238 1.390 . S
C247 H240 0.950 . S
C247 C244 1.387 . S
C248 C249 1.387 . S
C248 H252 0.950 . S
C248 C257 1.390 . S
C249 C248 1.387 . S
C249 C251 1.387 . S
H250 C257 0.950 . S
C251 C249 1.387 . S
C251 C253 1.390 . S
C251 H255 0.950 . S
H252 C248 0.950 . S
C253 C251 1.390 . S
C253 C254 1.387 . S
C253 H256 0.950 . S
C254 C253 1.387 . S
C254 C257 1.387 . S
H255 C251 0.950 . S
H256 C253 0.950 . S
C257 C248 1.390 . S
C257 H250 0.950 . S
C257 C254 1.387 . S
C258 C259 1.387 . S
C258 H262 0.950 . S
C258 C267 1.390 . S
C259 C258 1.387 . S
C259 C261 1.387 . S
H260 C267 0.950 . S
C261 C259 1.387 . S
C261 C263 1.390 . S
C261 H265 0.950 . S
H262 C258 0.950 . S
C263 C261 1.390 . S
C263 C264 1.387 . S
C263 H266 0.950 . S
C264 C263 1.387 . S
C264 C267 1.387 . S
H265 C261 0.950 . S
H266 C263 0.950 . S
C267 C258 1.390 . S
C267 H260 0.950 . S
C267 C264 1.387 . S
C268 C269 1.387 . S
C268 H272 0.950 . S
C268 C277 1.390 . S
C269 C268 1.387 . S
C269 C271 1.387 . S
H270 C277 0.950 . S
C271 C269 1.387 . S
C271 C273 1.390 . S
C271 H275 0.950 . S
H272 C268 0.950 . S
C273 C271 1.390 . S
C273 C274 1.387 . S
C273 H276 0.950 . S
C274 C273 1.387 . S
C274 C277 1.387 . S
H275 C271 0.950 . S
H276 C273 0.950 . S
C277 C268 1.390 . S
C277 H270 0.950 . S
C277 C274 1.387 . S
C278 C279 1.387 . S
C278 H282 0.950 . S
C278 C287 1.390 . S
C279 C278 1.387 . S
C279 C281 1.387 . S
H280 C287 0.950 . S
C281 C279 1.387 . S
C281 C283 1.390 . S
C281 H285 0.950 . S
H282 C278 0.950 . S
C283 C281 1.390 . S
C283 C284 1.387 . S
C283 H286 0.950 . S
C284 C283 1.387 . S
C284 C287 1.387 . S
H285 C281 0.950 . S
H286 C283 0.950 . S
C287 C278 1.390 . S
C287 H280 0.950 . S
C287 C284 1.387 . S
C288 C289 1.387 . S
C288 H292 0.950 . S
C288 C297 1.390 . S
C289 C288 1.387 . S
C289 C291 1.387 . S
H290 C297 0.950 . S
C291 C289 1.387 . S
C291 C293 1.390 . S
C291 H295 0.950 . S
H292 C288 0.950 . S
C293 C291 1.390 . S
C293 C294 1.387 . S
C293 H296 0.950 . S
C294 C293 1.387 . S
C294 C297 1.387 . S
H295 C291 0.950 . S
H296 C293 0.950 . S
C297 C288 1.390 . S
C297 H290 0.950 . S
C297 C294 1.387 . S
C298 C299 1.387 . S
C298 H302 0.950 . S
C298 C307 1.390 . S
C299 C298 1.387 . S
C299 C301 1.387 . S
H300 C307 0.950 . S
C301 C299 1.387 . S
C301 C303 1.390 . S
C301 H305 0.950 . S
H302 C298 0.950 . S
C303 C301 1.390 . S
C303 C304 1.387 . S
C303 H306 0.950 . S
C304 C303 1.387 . S
C304 C307 1.387 . S
H305 C301 0.950 . S
H306 C303 0.950 . S
C307 C298 1.390 . S
C307 H300 0.950 . S
C307 C304 1.387 . S
C308 C309 1.387 . S
C308 H312 0.950 . S
C308 C317 1.390 . S
C309 C308 1.387 . S
C309 C311 1.387 . S
H310 C317 0.950 . S
C311 C309 1.387 . S
C311 C313 1.390 . S
C311 H315 0.950 . S
H312 C308 0.950 . S
C313 C311 1.390 . S
C313 C314 1.387 . S
C313 H316 0.950 . S
C314 C313 1.387 . S
C314 C317 1.387 . S
H315 C311 0.950 . S
H316 C313 0.950 . S
C317 C308 1.390 . S
C317 H310 0.950 . S
C317 C314 1.387 . S
C318 C319 1.387 . S
C318 H322 0.950 . S
C318 C327 1.390 . S
C319 C318 1.387 . S
C319 C321 1.387 . S
H320 C327 0.950 . S
C321 C319 1.387 . S
C321 C323 1.390 . S
C321 H325 0.950 . S
H322 C318 0.950 . S
C323 C321 1.390 . S
C323 C324 1.387 . S
C323 H326 0.950 . S
C324 C323 1.387 . S
C324 C327 1.387 . S
H325 C321 0.950 . S
H326 C323 0.950 . S
C327 C318 1.390 . S
C327 H320 0.950 . S
C327 C324 1.387 . S
C328 C329 1.387 . S
C328 H332 0.950 . S
C328 C337 1.390 . S
C329 C328 1.387 . S
C329 C331 1.387 . S
H330 C337 0.950 . S
C331 C329 1.387 . S
C331 C333 1.390 . S
C331 H335 0.950 . S
H332 C328 0.950 . S
C333 C331 1.390 . S
C333 C334 1.387 . S
C333 H336 0.950 . S
C334 C333 1.387 . S
C334 C337 1.387 . S
H335 C331 0.950 . S
H336 C333 0.950 . S
C337 C328 1.390 . S
C337 H330 0.950 . S
C337 C334 1.387 . S
C338 C339 1.387 . S
C338 H342 0.950 . S
C338 C347 1.390 . S
C339 C338 1.387 . S
C339 C341 1.387 . S
H340 C347 0.950 . S
C341 C339 1.387 . S
C341 C343 1.390 . S
C341 H345 0.950 . S
H342 C338 0.950 . S
C343 C341 1.390 . S
C343 C344 1.387 . S
C343 H346 0.950 . S
C344 C343 1.387 . S
C344 C347 1.387 . S
H345 C341 0.950 . S
H346 C343 0.950 . S
C347 C338 1.390 . S
C347 H340 0.950 . S
C347 C344 1.387 . S
C348 C349 1.387 . S
C348 H352 0.950 . S
C348 C357 1.390 . S
C349 C348 1.387 . S
C349 C351 1.387 . S
H350 C357 0.950 1_554 S
C351 C349 1.387 . S
C351 C353 1.390 . S
C351 H355 0.950 . S
H352 C348 0.950 . S
C353 C351 1.390 . S
C353 C354 1.387 . S
C353 H356 0.950 . S
C354 C353 1.387 . S
C354 C357 1.387 . S
H355 C351 0.950 . S
H356 C353 0.950 . S
C357 C348 1.390 . S
C357 H350 0.950 1_556 S
C357 C354 1.387 . S
C358 C359 1.387 . S
C358 H362 0.950 . S
C358 C367 1.390 . S
C359 C358 1.387 . S
C359 C361 1.387 . S
H360 C367 0.950 . S
C361 C359 1.387 . S
C361 C363 1.390 . S
C361 H365 0.950 . S
H362 C358 0.950 . S
C363 C361 1.390 . S
C363 C364 1.387 . S
C363 H366 0.950 . S
C364 C363 1.387 . S
C364 C367 1.387 . S
H365 C361 0.950 . S
H366 C363 0.950 . S
C367 C358 1.390 . S
C367 H360 0.950 . S
C367 C364 1.387 . S
C368 C369 1.387 . S
C368 H372 0.950 . S
C368 C377 1.390 . S
C369 C368 1.387 . S
C369 C371 1.387 . S
H370 C377 0.950 . S
C371 C369 1.387 . S
C371 C373 1.390 . S
C371 H375 0.950 . S
H372 C368 0.950 . S
C373 C371 1.390 . S
C373 C374 1.387 . S
C373 H376 0.950 . S
C374 C373 1.387 . S
C374 C377 1.387 . S
H375 C371 0.950 . S
H376 C373 0.950 . S
C377 C368 1.390 . S
C377 H370 0.950 . S
C377 C374 1.387 . S
C378 C379 1.387 . S
C378 H382 0.950 . S
C378 C387 1.390 . S
C379 C378 1.387 . S
C379 C381 1.387 . S
H380 C387 0.950 . S
C381 C379 1.387 . S
C381 C383 1.390 . S
C381 H385 0.950 . S
H382 C378 0.950 . S
C383 C381 1.390 . S
C383 C384 1.387 . S
C383 H386 0.950 . S
C384 C383 1.387 . S
C384 C387 1.387 . S
H385 C381 0.950 . S
H386 C383 0.950 . S
C387 C378 1.390 . S
C387 H380 0.950 . S
C387 C384 1.387 . S
C388 C389 1.387 . S
C388 H392 0.950 . S
C388 C397 1.390 . S
C389 C388 1.387 . S
C389 C391 1.387 . S
H390 C397 0.950 . S
C391 C389 1.387 . S
C391 C393 1.390 . S
C391 H395 0.950 . S
H392 C388 0.950 . S
C393 C391 1.390 . S
C393 C394 1.387 . S
C393 H396 0.950 . S
C394 C393 1.387 . S
C394 C397 1.387 . S
H395 C391 0.950 . S
H396 C393 0.950 . S
C397 C388 1.390 . S
C397 H390 0.950 . S
C397 C394 1.387 . S
C398 C399 1.387 . S
C398 H402 0.950 . S
C398 C407 1.390 . S
C399 C398 1.387 . S
C399 C401 1.387 . S
H400 C407 0.950 . S
C401 C399 1.387 . S
C401 C403 1.390 . S
C401 H405 0.950 . S
H402 C398 0.950 . S
C403 C401 1.390 . S
C403 C404 1.387 . S
C403 H406 0.950 . S
C404 C403 1.387 . S
C404 C407 1.387 . S
H405 C401 0.950 . S
H406 C403 0.950 . S
C407 C398 1.390 . S
C407 H400 0.950 . S
C407 C404 1.387 . S
C408 C409 1.387 . S
C408 H412 0.950 . S
C408 C417 1.390 . S
C409 C408 1.387 . S
C409 C411 1.387 . S
H410 C417 0.950 . S
C411 C409 1.387 . S
C411 C413 1.390 . S
C411 H415 0.950 . S
H412 C408 0.950 . S
C413 C411 1.390 . S
C413 C414 1.387 . S
C413 H416 0.950 . S
C414 C413 1.387 . S
C414 C417 1.387 . S
H415 C411 0.950 . S
H416 C413 0.950 . S
C417 C408 1.390 . S
C417 H410 0.950 . S
C417 C414 1.387 . S
C418 C419 1.387 . S
C418 H422 0.950 . S
C418 C427 1.390 . S
C419 C418 1.387 . S
C419 C421 1.387 . S
H420 C427 0.950 . S
C421 C419 1.387 . S
C421 C423 1.390 . S
C421 H425 0.950 . S
H422 C418 0.950 . S
C423 C421 1.390 . S
C423 C424 1.387 . S
C423 H426 0.950 . S
C424 C423 1.387 . S
C424 C427 1.387 . S
H425 C421 0.950 . S
H426 C423 0.950 . S
C427 C418 1.390 . S
C427 H420 0.950 . S
C427 C424 1.387 . S
C428 C429 1.387 . S
C428 H432 0.950 . S
C428 C437 1.390 . S
C429 C428 1.387 . S
C429 C431 1.387 . S
H430 C437 0.950 . S
C431 C429 1.387 . S
C431 C433 1.390 . S
C431 H435 0.950 . S
H432 C428 0.950 . S
C433 C431 1.390 . S
C433 C434 1.387 . S
C433 H436 0.950 . S
C434 C433 1.387 . S
C434 C437 1.387 . S
H435 C431 0.950 . S
H436 C433 0.950 . S
C437 C428 1.390 . S
C437 H430 0.950 . S
C437 C434 1.387 . S
C438 C439 1.387 . S
C438 H442 0.950 . S
C438 C447 1.390 . S
C439 C438 1.387 . S
C439 C441 1.387 . S
H440 C447 0.950 . S
C441 C439 1.387 . S
C441 C443 1.390 . S
C441 H445 0.950 . S
H442 C438 0.950 . S
C443 C441 1.390 . S
C443 C444 1.387 . S
C443 H446 0.950 . S
C444 C443 1.387 . S
C444 C447 1.387 . S
H445 C441 0.950 . S
H446 C443 0.950 . S
C447 C438 1.390 . S
C447 H440 0.950 . S
C447 C444 1.387 . S
C448 C449 1.387 . S
C448 H452 0.950 . S
C448 C457 1.390 . S
C449 C448 1.387 . S
C449 C451 1.387 . S
H450 C457 0.950 . S
C451 C449 1.387 . S
C451 C453 1.390 . S
C451 H455 0.950 . S
H452 C448 0.950 . S
C453 C451 1.390 . S
C453 C454 1.387 . S
C453 H456 0.950 . S
C454 C453 1.387 . S
C454 C457 1.387 . S
H455 C451 0.950 . S
H456 C453 0.950 . S
C457 C448 1.390 . S
C457 H450 0.950 . S
C457 C454 1.387 . S
C458 C459 1.387 . S
C458 H462 0.950 . S
C458 C467 1.390 . S
C459 C458 1.387 . S
C459 C461 1.387 . S
H460 C467 0.950 . S
C461 C459 1.387 . S
C461 C463 1.390 . S
C461 H465 0.950 . S
H462 C458 0.950 . S
C463 C461 1.390 . S
C463 C464 1.387 . S
C463 H466 0.950 . S
C464 C463 1.387 . S
C464 C467 1.387 . S
H465 C461 0.950 . S
H466 C463 0.950 . S
C467 C458 1.390 . S
C467 H460 0.950 . S
C467 C464 1.387 . S
C468 C469 1.387 . S
C468 H472 0.950 . S
C468 C477 1.390 . S
C469 C468 1.387 . S
C469 C471 1.387 . S
H470 C477 0.950 . S
C471 C469 1.387 . S
C471 C473 1.390 . S
C471 H475 0.950 . S
H472 C468 0.950 . S
C473 C471 1.390 . S
C473 C474 1.387 . S
C473 H476 0.950 . S
C474 C473 1.387 . S
C474 C477 1.387 . S
H475 C471 0.950 . S
H476 C473 0.950 . S
C477 C468 1.390 . S
C477 H470 0.950 . S
C477 C474 1.387 . S
C478 C479 1.387 . S
C478 H482 0.950 . S
C478 C487 1.390 . S
C479 C478 1.387 . S
C479 C481 1.387 . S
H480 C487 0.950 . S
C481 C479 1.387 . S
C481 C483 1.390 . S
C481 H485 0.950 . S
H482 C478 0.950 . S
C483 C481 1.390 . S
C483 C484 1.387 . S
C483 H486 0.950 . S
C484 C483 1.387 . S
C484 C487 1.387 . S
H485 C481 0.950 . S
H486 C483 0.950 . S
C487 C478 1.390 . S
C487 H480 0.950 . S
C487 C484 1.387 . S
C488 C489 1.387 . S
C488 H492 0.950 . S
C488 C497 1.390 . S
C489 C488 1.387 . S
C489 C491 1.387 . S
H490 C497 0.950 . S
C491 C489 1.387 . S
C491 C493 1.390 . S
C491 H495 0.950 . S
H492 C488 0.950 . S
C493 C491 1.390 . S
C493 C494 1.387 . S
C493 H496 0.950 . S
C494 C493 1.387 . S
C494 C497 1.387 . S
H495 C491 0.950 . S
H496 C493 0.950 . S
C497 C488 1.390 . S
C497 H490 0.950 . S
C497 C494 1.387 . S
C498 C499 1.387 . S
C498 H502 0.950 . S
C498 C507 1.390 . S
C499 C498 1.387 . S
C499 C501 1.387 . S
H500 C507 0.950 . S
C501 C499 1.387 . S
C501 C503 1.390 . S
C501 H505 0.950 . S
H502 C498 0.950 . S
C503 C501 1.390 . S
C503 C504 1.387 . S
C503 H506 0.950 . S
C504 C503 1.387 . S
C504 C507 1.387 . S
H505 C501 0.950 . S
H506 C503 0.950 . S
C507 C498 1.390 . S
C507 H500 0.950 . S
C507 C504 1.387 . S
C508 C509 1.387 . S
C508 H512 0.950 . S
C508 C517 1.390 . S
C509 C508 1.387 . S
C509 C511 1.387 . S
H510 C517 0.950 . S
C511 C509 1.387 . S
C511 C513 1.390 . S
C511 H515 0.950 . S
H512 C508 0.950 . S
C513 C511 1.390 . S
C513 C514 1.387 . S
C513 H516 0.950 . S
C514 C513 1.387 . S
C514 C517 1.387 . S
H515 C511 0.950 . S
H516 C513 0.950 . S
C517 C508 1.390 . S
C517 H510 0.950 . S
C517 C514 1.387 . S
C518 C519 1.387 . S
C518 H522 0.950 . S
C518 C527 1.390 . S
C519 C518 1.387 . S
C519 C521 1.387 . S
H520 C527 0.950 . S
C521 C519 1.387 . S
C521 C523 1.390 . S
C521 H525 0.950 . S
H522 C518 0.950 . S
C523 C521 1.390 . S
C523 C524 1.387 . S
C523 H526 0.950 . S
C524 C523 1.387 . S
C524 C527 1.387 . S
H525 C521 0.950 . S
H526 C523 0.950 . S
C527 C518 1.390 . S
C527 H520 0.950 . S
C527 C524 1.387 . S
C214 C120 1.352 . S
C209 C5 1.358 . S
C224 C134 1.347 . S
C219 C18 1.356 . S
C234 C147 1.350 . S
C229 C31 1.361 . S
C239 C42 1.354 . S
C244 C114 1.352 . S
C249 C57 1.364 . S
C254 C107 1.358 . S
C259 C70 1.362 . S
C264 C127 1.354 . S
C274 C135 1.353 . S
C269 C81 1.352 . S
C284 C148 1.353 . S
C279 C96 1.359 . S
C289 C29 1.351 . S
C294 C174 1.350 . S
C304 C192 1.348 . S
C299 C44 1.357 . S
C309 C3 1.354 . S
C314 C199 1.350 . S
C324 C166 1.353 . S
C319 C16 1.352 . S
C329 C83 1.365 . S
C334 C159 1.359 . S
C339 C94 1.356 . S
C344 C173 1.353 . S
C354 C185 1.351 . S
C349 C55 1.354 . S
C359 C68 1.353 . S
C364 C200 1.354 . S
C374 C133 1.561 . S
C369 C1 1.557 . S
C384 C146 1.564 . S
C379 C14 1.560 . S
C389 C27 1.555 . S
C394 C109 1.560 . S
C399 C49 1.596 . S
C404 C121 1.547 . S
C409 C53 1.552 . S
C414 C153 1.546 . S
C424 C108 1.546 . S
C419 C66 1.550 . S
C434 C122 1.559 . S
C429 C88 1.599 . S
C444 C140 1.551 . S
C439 C92 1.555 . S
C454 C187 1.562 . S
C449 C36 1.602 . S
C464 C198 1.563 . S
C459 C40 1.559 . S
C469 C10 1.598 . S
C474 C161 1.559 . S
C484 C179 1.550 . S
C479 C23 1.596 . S
C494 C205 1.546 . S
C489 C79 1.552 . S
C499 C101 1.594 . S
C504 C160 1.547 . S
C514 C172 1.560 . S
C509 C62 1.600 . S
C524 C186 1.551 . S
C519 C75 1.598 . S
