# Generated by pormake.
# Topology cml, (3,6)-cn, num edge types: 1
# Building blocks:
#     Node 0, Type 0, BuildingBlock: OLANEW_clean_sbu_2, # of connection points: 3
#     Node 1, Type 0, BuildingBlock: OLANEW_clean_sbu_2, # of connection points: 3
#     Node 2, Type 0, BuildingBlock: OLANEW_clean_sbu_2, # of connection points: 3
#     Node 3, Type 0, BuildingBlock: OLANEW_clean_sbu_2, # of connection points: 3
#     Node 4, Type 0, BuildingBlock: OLANEW_clean_sbu_2, # of connection points: 3
#     Node 5, Type 0, BuildingBlock: OLANEW_clean_sbu_2, # of connection points: 3
#     Node 6, Type 0, BuildingBlock: OLANEW_clean_sbu_2, # of connection points: 3
#     Node 7, Type 0, BuildingBlock: OLANEW_clean_sbu_2, # of connection points: 3
#     Node 8, Type 1, BuildingBlock: OJICUG_clean_sbu_0, # of connection points: 6
#     Node 9, Type 1, BuildingBlock: OJICUG_clean_sbu_0, # of connection points: 6
#     Node 10, Type 1, BuildingBlock: OJICUG_clean_sbu_0, # of connection points: 6
#     Node 11, Type 1, BuildingBlock: OJICUG_clean_sbu_0, # of connection points: 6
#     Edge 12, Type (0, 1), BuildingBlock: UVAHIK_clean_linker_0, # of connection points: 2
#     Edge 13, Type (0, 1), BuildingBlock: UVAHIK_clean_linker_0, # of connection points: 2
#     Edge 14, Type (0, 1), BuildingBlock: UVAHIK_clean_linker_0, # of connection points: 2
#     Edge 15, Type (0, 1), BuildingBlock: UVAHIK_clean_linker_0, # of connection points: 2
#     Edge 16, Type (0, 1), BuildingBlock: UVAHIK_clean_linker_0, # of connection points: 2
#     Edge 17, Type (0, 1), BuildingBlock: UVAHIK_clean_linker_0, # of connection points: 2
#     Edge 18, Type (0, 1), BuildingBlock: UVAHIK_clean_linker_0, # of connection points: 2
#     Edge 19, Type (0, 1), BuildingBlock: UVAHIK_clean_linker_0, # of connection points: 2
#     Edge 20, Type (0, 1), BuildingBlock: UVAHIK_clean_linker_0, # of connection points: 2
#     Edge 21, Type (0, 1), BuildingBlock: UVAHIK_clean_linker_0, # of connection points: 2
#     Edge 22, Type (0, 1), BuildingBlock: UVAHIK_clean_linker_0, # of connection points: 2
#     Edge 23, Type (0, 1), BuildingBlock: UVAHIK_clean_linker_0, # of connection points: 2
#     Edge 24, Type (0, 1), BuildingBlock: UVAHIK_clean_linker_0, # of connection points: 2
#     Edge 25, Type (0, 1), BuildingBlock: UVAHIK_clean_linker_0, # of connection points: 2
#     Edge 26, Type (0, 1), BuildingBlock: UVAHIK_clean_linker_0, # of connection points: 2
#     Edge 27, Type (0, 1), BuildingBlock: UVAHIK_clean_linker_0, # of connection points: 2
#     Edge 28, Type (0, 1), BuildingBlock: UVAHIK_clean_linker_0, # of connection points: 2
#     Edge 29, Type (0, 1), BuildingBlock: UVAHIK_clean_linker_0, # of connection points: 2
#     Edge 30, Type (0, 1), BuildingBlock: UVAHIK_clean_linker_0, # of connection points: 2
#     Edge 31, Type (0, 1), BuildingBlock: UVAHIK_clean_linker_0, # of connection points: 2
#     Edge 32, Type (0, 1), BuildingBlock: UVAHIK_clean_linker_0, # of connection points: 2
#     Edge 33, Type (0, 1), BuildingBlock: UVAHIK_clean_linker_0, # of connection points: 2
#     Edge 34, Type (0, 1), BuildingBlock: UVAHIK_clean_linker_0, # of connection points: 2
#     Edge 35, Type (0, 1), BuildingBlock: UVAHIK_clean_linker_0, # of connection points: 2
# Relax obj value: 0.020
# Max RMSD: 0.073
# Mean RMSD: 0.062
data_MOF--net-cml--node1-OLANEW_clean_sbu_2--node2-OJICUG_clean_sbu_0--edge1-UVAHIK_clean_linker_0
_symmetry_space_group_name_H-M    P1
_symmetry_Int_Tables_number       1
_symmetry_cell_setting            triclinic
loop_
_symmetry_equiv_pos_as_xyz
'x, y, z'
_cell_length_a     55.172176
_cell_length_b     53.393003
_cell_length_c     50.639059
_cell_angle_alpha  88.177262
_cell_angle_beta   87.907549
_cell_angle_gamma 88.912042
loop_
_atom_site_label
_atom_site_type_symbol
_atom_site_fract_x
_atom_site_fract_y
_atom_site_fract_z
_atom_type_partial_charge
O0 O 0.26587 0.41727 0.92142 0.0
Cd1 Cd 0.23398 0.39351 0.94545 0.0
O2 O 0.28447 0.40845 0.95791 0.0
Cd3 Cd 0.31362 0.40619 -0.01401 0.0
O4 O 0.33533 0.39637 0.02008 0.0
C5 C 0.33669 0.41153 0.03877 0.0
O6 O 0.32562 0.43349 0.03676 0.0
C7 C 0.28441 0.41949 0.93527 0.0
C8 C 0.20757 0.35936 0.91806 0.0
O9 O 0.2001 0.3821 0.92042 0.0
O10 O 0.22803 0.35304 0.92775 0.0
O11 O 0.72441 0.62137 0.52277 0.0
Cd12 Cd 0.74565 0.60791 0.48214 0.0
O13 O 0.73271 0.58526 0.54289 0.0
Cd14 Cd 0.74488 0.56635 0.50713 0.0
O15 O 0.73321 0.53807 0.4804 0.0
C16 C 0.72147 0.54459 0.46011 0.0
O17 O 0.71854 0.56858 0.45421 0.0
C18 C 0.72372 0.60736 0.54358 0.0
C19 C 0.77956 0.64203 0.46131 0.0
O20 O 0.78488 0.62649 0.48012 0.0
O21 O 0.75809 0.64167 0.4525 0.0
O22 O 0.72155 0.39003 0.93991 0.0
Cd23 Cd 0.73725 0.35468 0.96671 0.0
O24 O 0.7209 0.41496 0.9737 0.0
Cd25 Cd 0.73054 0.38621 0.00324 0.0
O26 O 0.72011 0.36877 0.04144 0.0
C27 C 0.71762 0.38351 0.06061 0.0
O28 O 0.7232 0.40718 0.05657 0.0
C29 C 0.71741 0.41154 0.94941 0.0
C30 C 0.77477 0.32704 0.94226 0.0
O31 O 0.75251 0.32148 0.93954 0.0
O32 O 0.77926 0.34593 0.95618 0.0
O33 O 0.28478 0.58053 0.45702 0.0
Cd34 Cd 0.2622 0.61114 0.48381 0.0
O35 O 0.28407 0.55334 0.4906 0.0
Cd36 Cd 0.27171 0.58006 0.5201 0.0
O37 O 0.28332 0.59774 0.55567 0.0
C38 C 0.28948 0.58267 0.57426 0.0
O39 O 0.28655 0.55854 0.57145 0.0
C40 C 0.28949 0.55867 0.46647 0.0
C41 C 0.22824 0.6403 0.4565 0.0
O42 O 0.22321 0.61814 0.46522 0.0
O43 O 0.24947 0.64855 0.46028 0.0
O44 O 0.76233 0.92064 0.92329 0.0
Cd45 Cd 0.73085 0.89668 0.94776 0.0
O46 O 0.78486 0.90522 0.95456 0.0
Cd47 Cd 0.81557 0.90024 -0.01958 0.0
O48 O 0.83773 0.8899 0.01403 0.0
C49 C 0.8377 0.90425 0.03357 0.0
O50 O 0.82508 0.92536 0.03247 0.0
C51 C 0.7828 0.91935 0.93403 0.0
C52 C 0.70498 0.86192 0.92056 0.0
O53 O 0.6972 0.88458 0.92274 0.0
O54 O 0.72545 0.85595 0.93041 0.0
O55 O 0.22165 0.12273 0.52139 0.0
Cd56 Cd 0.24169 0.11054 0.47959 0.0
O57 O 0.23144 0.08664 0.54071 0.0
Cd58 Cd 0.243 0.0693 0.50386 0.0
O59 O 0.22896 0.04636 0.47322 0.0
C60 C 0.20821 0.05321 0.46525 0.0
O61 O 0.19819 0.07384 0.47445 0.0
C62 C 0.22189 0.10846 0.54201 0.0
C63 C 0.27616 0.14436 0.45936 0.0
O64 O 0.2545 0.14493 0.45098 0.0
O65 O 0.28139 0.12806 0.47749 0.0
O66 O 0.22536 0.89348 0.9435 0.0
Cd67 Cd 0.24626 0.86194 0.97112 0.0
O68 O 0.223 0.91897 0.97684 0.0
Cd69 Cd 0.23454 0.89155 0.0069 0.0
O70 O 0.22477 0.87253 0.04446 0.0
C71 C 0.22188 0.88639 0.06431 0.0
O72 O 0.22678 0.91033 0.06135 0.0
C73 C 0.21948 0.91475 0.95271 0.0
C74 C 0.28028 0.8316 0.94454 0.0
O75 O 0.28563 0.85369 0.95135 0.0
O76 O 0.25869 0.824 0.94981 0.0
O77 O 0.79512 0.08994 0.44331 0.0
Cd78 Cd 0.78142 0.12727 0.46684 0.0
O79 O 0.79005 0.06431 0.47784 0.0
Cd80 Cd 0.78089 0.09381 0.50549 0.0
O81 O 0.79267 0.10929 0.54215 0.0
C82 C 0.79756 0.09301 0.56013 0.0
O83 O 0.79354 0.06932 0.55585 0.0
C84 C 0.79613 0.06791 0.45358 0.0
C85 C 0.74038 0.15063 0.44593 0.0
O86 O 0.76159 0.15458 0.43565 0.0
O87 O 0.7385 0.13541 0.46597 0.0
Sc88 Sc 0.0049 0.81345 0.30255 0.0
Sc89 Sc 0.0073 0.8794 0.30176 0.0
Sc90 Sc 0.00374 0.84573 0.36246 0.0
O91 O 0.00527 0.84616 0.32224 0.0
C92 C 0.96682 0.80225 0.34978 0.0
C93 C 0.97243 0.84934 0.26579 0.0
C94 C 0.96816 0.89153 0.34807 0.0
C95 C 0.04485 0.84466 0.26919 0.0
C96 C 0.03926 0.79957 0.35094 0.0
C97 C 0.04106 0.89 0.3496 0.0
O98 O 0.97409 0.79977 0.32585 0.0
O99 O 0.98023 0.86945 0.27485 0.0
O100 O 0.97479 0.87358 0.36351 0.0
O101 O 0.03574 0.82395 0.2773 0.0
O102 O 0.03253 0.81805 0.36483 0.0
O103 O 0.03477 0.89357 0.32591 0.0
O104 O 0.02999 0.79494 0.32899 0.0
O105 O 0.03617 0.86585 0.27597 0.0
O106 O 0.031 0.87395 0.36527 0.0
O107 O 0.97995 0.82774 0.27345 0.0
O108 O 0.97653 0.81717 0.36521 0.0
O109 O 0.97865 0.89616 0.32569 0.0
Sc110 Sc 0.00685 0.16196 0.78804 0.0
Sc111 Sc 0.01076 0.09601 0.78942 0.0
Sc112 Sc 0.00916 0.1283 0.84917 0.0
O113 O 0.00892 0.12877 0.80891 0.0
C114 C 0.04294 0.17495 0.83338 0.0
C115 C 0.04502 0.1309 0.75244 0.0
C116 C 0.04794 0.08486 0.83545 0.0
C117 C 0.97203 0.12787 0.75611 0.0
C118 C 0.97032 0.17205 0.83731 0.0
C119 C 0.97522 0.08184 0.83865 0.0
O120 O 0.03449 0.1784 0.8105 0.0
O121 O 0.0383 0.10958 0.76156 0.0
O122 O 0.039 0.10146 0.85065 0.0
O123 O 0.97897 0.1491 0.76328 0.0
O124 O 0.97943 0.15506 0.85231 0.0
O125 O 0.98362 0.07875 0.81524 0.0
O126 O 0.97843 0.17663 0.81385 0.0
O127 O 0.98199 0.10734 0.76371 0.0
O128 O 0.98271 0.09882 0.85329 0.0
O129 O 0.03509 0.15132 0.75977 0.0
O130 O 0.03545 0.15784 0.8496 0.0
O131 O 0.03953 0.08083 0.81297 0.0
Sc132 Sc 0.50449 0.31569 0.30481 0.0
Sc133 Sc 0.50777 0.38145 0.30694 0.0
Sc134 Sc 0.50365 0.34536 0.36631 0.0
O135 O 0.50526 0.34746 0.32602 0.0
C136 C 0.46603 0.30344 0.35202 0.0
C137 C 0.47203 0.35314 0.27004 0.0
C138 C 0.46924 0.39293 0.35374 0.0
C139 C 0.54443 0.34789 0.27222 0.0
C140 C 0.53859 0.29897 0.35239 0.0
C141 C 0.54217 0.38874 0.35531 0.0
O142 O 0.47448 0.30055 0.32857 0.0
O143 O 0.48108 0.37271 0.27898 0.0
O144 O 0.47632 0.37489 0.3688 0.0
O145 O 0.53437 0.32724 0.27875 0.0
O146 O 0.53049 0.31556 0.36806 0.0
O147 O 0.53483 0.39449 0.3324 0.0
O148 O 0.53089 0.29675 0.32921 0.0
O149 O 0.53692 0.36882 0.28097 0.0
O150 O 0.53275 0.3714 0.36985 0.0
O151 O 0.47844 0.33112 0.27759 0.0
O152 O 0.47481 0.31873 0.36771 0.0
O153 O 0.47891 0.39754 0.33097 0.0
Sc154 Sc 0.50759 0.6628 0.78799 0.0
Sc155 Sc 0.51145 0.5969 0.78909 0.0
Sc156 Sc 0.50969 0.6288 0.84896 0.0
O157 O 0.50958 0.62952 0.80872 0.0
C158 C 0.54355 0.67564 0.83321 0.0
C159 C 0.54547 0.63168 0.75198 0.0
C160 C 0.54878 0.58584 0.83512 0.0
C161 C 0.47233 0.62901 0.75646 0.0
C162 C 0.47116 0.67264 0.8375 0.0
C163 C 0.47601 0.5822 0.83807 0.0
O164 O 0.53594 0.6786 0.80989 0.0
O165 O 0.53931 0.61039 0.76164 0.0
O166 O 0.54016 0.60271 0.85021 0.0
O167 O 0.47886 0.65026 0.76407 0.0
O168 O 0.47922 0.65467 0.85198 0.0
O169 O 0.48389 0.57977 0.81438 0.0
O170 O 0.48012 0.67808 0.81458 0.0
O171 O 0.48294 0.60859 0.76327 0.0
O172 O 0.48401 0.59859 0.8531 0.0
O173 O 0.53507 0.65201 0.7589 0.0
O174 O 0.53525 0.65908 0.84963 0.0
O175 O 0.53992 0.58148 0.81293 0.0
C176 C 0.16791 0.34628 0.90086 0.0
C177 C 0.19228 0.34057 0.90609 0.0
C178 C 0.15274 0.32787 0.89203 0.0
C179 C 0.15197 0.26732 0.85975 0.0
H180 H 0.08929 0.26033 0.89627 0.0
C181 C 0.07463 0.20713 0.82262 0.0
C182 C 0.06194 0.19208 0.84158 0.0
C183 C 0.09175 0.22415 0.83033 0.0
C184 C 0.10679 0.26196 0.88601 0.0
H185 H 0.22006 0.31127 0.90522 0.0
H186 H 0.19357 0.2792 0.8894 0.0
H187 H 0.11678 0.29275 0.90916 0.0
H188 H 0.05762 0.18292 0.88352 0.0
H189 H 0.08736 0.21293 0.89697 0.0
H190 H 0.14183 0.2366 0.83647 0.0
C191 C 0.18624 0.29792 0.89227 0.0
C192 C 0.12241 0.28067 0.89319 0.0
C193 C 0.20136 0.31627 0.90139 0.0
C194 C 0.06706 0.1942 0.86841 0.0
C195 C 0.08398 0.21148 0.87613 0.0
C196 C 0.13619 0.24879 0.85233 0.0
C197 C 0.16166 0.30343 0.88796 0.0
C198 C 0.14515 0.28357 0.88013 0.0
C199 C 0.09637 0.22674 0.85718 0.0
C200 C 0.11344 0.24592 0.8654 0.0
H201 H 0.16033 0.36481 0.90427 0.0
H202 H 0.13394 0.33272 0.88856 0.0
H203 H 0.16935 0.26919 0.8493 0.0
H204 H 0.07124 0.2059 0.80177 0.0
H205 H 0.1009 0.23579 0.81531 0.0
C206 C 0.81862 0.66476 0.46373 0.0
C207 C 0.79787 0.65951 0.44981 0.0
C208 C 0.83625 0.68077 0.45264 0.0
C209 C 0.84725 0.72841 0.39795 0.0
H210 H 0.91452 0.71474 0.41391 0.0
C211 C 0.93003 0.77624 0.34372 0.0
C212 C 0.94665 0.7866 0.36054 0.0
C213 C 0.91125 0.76118 0.35411 0.0
C214 C 0.89579 0.7188 0.40938 0.0
H215 H 0.77932 0.66682 0.4133 0.0
H216 H 0.81048 0.69389 0.39343 0.0
H217 H 0.88312 0.68737 0.43266 0.0
H218 H 0.95665 0.78915 0.40141 0.0
H219 H 0.92426 0.7624 0.41936 0.0
H220 H 0.86038 0.75945 0.37388 0.0
C221 C 0.81291 0.68633 0.41327 0.0
C222 C 0.87771 0.70325 0.42027 0.0
C223 C 0.79506 0.67066 0.42458 0.0
C224 C 0.94411 0.78155 0.38792 0.0
C225 C 0.92566 0.76614 0.39821 0.0
C226 C 0.86543 0.74371 0.38668 0.0
C227 C 0.83382 0.69157 0.42711 0.0
C228 C 0.85313 0.70795 0.41495 0.0
C229 C 0.90908 0.75581 0.38142 0.0
C230 C 0.88983 0.73917 0.39251 0.0
H231 H 0.82119 0.65663 0.48332 0.0
H232 H 0.85173 0.68477 0.46425 0.0
H233 H 0.82857 0.73295 0.39367 0.0
H234 H 0.93146 0.77986 0.32255 0.0
H235 H 0.89871 0.75334 0.34077 0.0
C236 C 0.81905 0.31733 0.93429 0.0
C237 C 0.7947 0.31169 0.93027 0.0
C238 C 0.83784 0.30229 0.92382 0.0
C239 C 0.85189 0.25558 0.87283 0.0
H240 H 0.9067 0.23875 0.91625 0.0
C241 C 0.93875 0.20616 0.83159 0.0
C242 C 0.94959 0.18745 0.84769 0.0
C243 C 0.91958 0.22103 0.84147 0.0
C244 C 0.89144 0.24311 0.90394 0.0
H245 H 0.77101 0.28595 0.91183 0.0
H246 H 0.80378 0.25967 0.89369 0.0
H247 H 0.87377 0.26522 0.93373 0.0
H248 H 0.94841 0.16964 0.88685 0.0
H249 H 0.91488 0.19547 0.90396 0.0
H250 H 0.86939 0.23314 0.84319 0.0
C251 C 0.80837 0.27585 0.90474 0.0
C252 C 0.8727 0.25854 0.91384 0.0
C253 C 0.78957 0.29086 0.91525 0.0
C254 C 0.9406 0.18389 0.87388 0.0
C255 C 0.92145 0.19881 0.88376 0.0
C256 C 0.87067 0.2402 0.8629 0.0
C257 C 0.83272 0.28129 0.90903 0.0
C258 C 0.8527 0.26497 0.89841 0.0
C259 C 0.91076 0.21761 0.8677 0.0
C260 C 0.89067 0.23378 0.87833 0.0
H261 H 0.82364 0.33327 0.9457 0.0
H262 H 0.8564 0.30722 0.92718 0.0
H263 H 0.83685 0.26033 0.86034 0.0
H264 H 0.94516 0.2095 0.81134 0.0
H265 H 0.91195 0.23553 0.82866 0.0
C266 C 0.18945 0.64541 0.43258 0.0
C267 C 0.20979 0.65618 0.44324 0.0
C268 C 0.17155 0.66052 0.42093 0.0
C269 C 0.15903 0.72608 0.39582 0.0
H270 H 0.09209 0.70539 0.40394 0.0
C271 C 0.07602 0.79176 0.37781 0.0
C272 C 0.05892 0.78284 0.36064 0.0
C273 C 0.09481 0.7761 0.3867 0.0
C274 C 0.11074 0.71128 0.4014 0.0
H275 H 0.22735 0.69121 0.45017 0.0
H276 H 0.19575 0.71763 0.43103 0.0
H277 H 0.12416 0.67861 0.42187 0.0
H278 H 0.04793 0.75042 0.33958 0.0
H279 H 0.08044 0.72281 0.35583 0.0
H280 H 0.14517 0.75934 0.37635 0.0
C281 C 0.19385 0.6975 0.43073 0.0
C282 C 0.1292 0.69588 0.41151 0.0
C283 C 0.21196 0.68235 0.4419 0.0
C284 C 0.06088 0.75785 0.35273 0.0
C285 C 0.07938 0.74204 0.36208 0.0
C286 C 0.1405 0.74168 0.38619 0.0
C287 C 0.17331 0.68682 0.42014 0.0
C288 C 0.15364 0.70305 0.40887 0.0
C289 C 0.09657 0.75107 0.37902 0.0
C290 C 0.11621 0.7344 0.38889 0.0
H291 H 0.18738 0.62527 0.43313 0.0
H292 H 0.15637 0.65149 0.41249 0.0
H293 H 0.17758 0.73208 0.39284 0.0
H294 H 0.07507 0.81096 0.38414 0.0
H295 H 0.1078 0.78343 0.39987 0.0
C296 C 0.66573 0.84829 0.90279 0.0
C297 C 0.69004 0.84285 0.90854 0.0
C298 C 0.65091 0.82967 0.89376 0.0
C299 C 0.6514 0.76883 0.86183 0.0
H300 H 0.58795 0.76172 0.89658 0.0
C301 C 0.57558 0.70762 0.82301 0.0
C302 C 0.56237 0.69282 0.84176 0.0
C303 C 0.59241 0.7248 0.83104 0.0
C304 C 0.60567 0.76337 0.88682 0.0
H305 H 0.71808 0.81382 0.90842 0.0
H306 H 0.69221 0.78137 0.89228 0.0
H307 H 0.61486 0.79443 0.91 0.0
H308 H 0.55688 0.68425 0.88371 0.0
H309 H 0.58613 0.71449 0.8977 0.0
H310 H 0.64209 0.73781 0.83853 0.0
C311 C 0.68465 0.80004 0.89488 0.0
C312 C 0.62096 0.78225 0.8943 0.0
C313 C 0.69943 0.8186 0.90419 0.0
C314 C 0.56672 0.69533 0.86873 0.0
C315 C 0.58337 0.71274 0.87678 0.0
C316 C 0.63597 0.75011 0.85412 0.0
C317 C 0.66013 0.80528 0.89001 0.0
C318 C 0.64397 0.78521 0.88188 0.0
C319 C 0.59624 0.72779 0.85802 0.0
C320 C 0.61295 0.74719 0.86655 0.0
H321 H 0.65793 0.86677 0.90591 0.0
H322 H 0.63216 0.83432 0.88984 0.0
H323 H 0.669 0.77074 0.85186 0.0
H324 H 0.57278 0.70611 0.80206 0.0
H325 H 0.60194 0.73626 0.81616 0.0
C326 C 0.29205 0.17325 0.42308 0.0
C327 C 0.29475 0.16162 0.44809 0.0
C328 C 0.31019 0.18867 0.41194 0.0
C329 C 0.37538 0.20414 0.41913 0.0
H330 H 0.35904 0.26129 0.37357 0.0
C331 C 0.44231 0.28267 0.38932 0.0
C332 C 0.44562 0.28775 0.36202 0.0
C333 C 0.42365 0.26722 0.39897 0.0
C334 C 0.36381 0.24528 0.38613 0.0
H335 H 0.31817 0.15763 0.48144 0.0
H336 H 0.3492 0.1854 0.46275 0.0
H337 H 0.32676 0.23505 0.39281 0.0
H338 H 0.4316 0.28102 0.32348 0.0
H339 H 0.39837 0.25447 0.34058 0.0
H340 H 0.41238 0.21519 0.4132 0.0
C341 C 0.3336 0.18194 0.45112 0.0
C342 C 0.34536 0.23012 0.39709 0.0
C343 C 0.31569 0.16615 0.462 0.0
C344 C 0.42955 0.27737 0.3446 0.0
C345 C 0.41052 0.2623 0.35434 0.0
C346 C 0.39372 0.21957 0.4086 0.0
C347 C 0.33128 0.1932 0.42577 0.0
C348 C 0.35088 0.20934 0.41382 0.0
C349 C 0.4076 0.2569 0.38159 0.0
C350 C 0.3881 0.24028 0.39205 0.0
H351 H 0.27617 0.16995 0.4118 0.0
H352 H 0.30782 0.19659 0.39224 0.0
H353 H 0.38053 0.18801 0.43129 0.0
H354 H 0.45444 0.29027 0.40327 0.0
H355 H 0.42166 0.26344 0.42008 0.0
C356 C 0.29625 0.78897 0.93303 0.0
C357 C 0.29877 0.8151 0.9318 0.0
C358 C 0.31445 0.77329 0.92241 0.0
C359 C 0.37966 0.77376 0.89958 0.0
H360 H 0.36398 0.70996 0.8705 0.0
C361 C 0.44787 0.71328 0.83861 0.0
C362 C 0.4508 0.68834 0.84789 0.0
C363 C 0.42908 0.72844 0.84879 0.0
C364 C 0.36856 0.72769 0.8787 0.0
H365 H 0.32189 0.84539 0.91765 0.0
H366 H 0.35303 0.81826 0.89793 0.0
H367 H 0.3314 0.73739 0.88718 0.0
H368 H 0.43601 0.6596 0.87474 0.0
H369 H 0.40262 0.68605 0.89201 0.0
H370 H 0.41681 0.76425 0.89001 0.0
C371 C 0.33753 0.80965 0.90801 0.0
C372 C 0.34994 0.7434 0.88841 0.0
C373 C 0.31955 0.82528 0.91911 0.0
C374 C 0.43427 0.67877 0.86729 0.0
C375 C 0.41514 0.69381 0.87707 0.0
C376 C 0.39819 0.75827 0.88937 0.0
C377 C 0.33544 0.78338 0.90983 0.0
C378 C 0.35521 0.76666 0.89908 0.0
C379 C 0.41253 0.71883 0.86806 0.0
C380 C 0.39281 0.73509 0.87893 0.0
H381 H 0.2805 0.78058 0.94289 0.0
H382 H 0.31226 0.75322 0.92468 0.0
H383 H 0.38463 0.79115 0.90817 0.0
H384 H 0.46036 0.72124 0.82376 0.0
H385 H 0.42735 0.74765 0.84147 0.0
C386 C 0.69756 0.16654 0.45113 0.0
C387 C 0.71881 0.16374 0.43532 0.0
C388 C 0.67759 0.18004 0.44155 0.0
C389 C 0.66083 0.2264 0.38818 0.0
H390 H 0.59535 0.20934 0.41171 0.0
C391 C 0.57456 0.2709 0.3429 0.0
C392 C 0.55824 0.28183 0.36135 0.0
C393 C 0.59377 0.25561 0.35141 0.0
C394 C 0.61357 0.21429 0.40505 0.0
H395 H 0.73558 0.1721 0.39678 0.0
H396 H 0.70046 0.19455 0.37955 0.0
H397 H 0.62948 0.18365 0.42683 0.0
H398 H 0.54889 0.28477 0.40313 0.0
H399 H 0.58215 0.25741 0.41792 0.0
H400 H 0.64458 0.25661 0.36575 0.0
C401 C 0.69938 0.18723 0.39973 0.0
C402 C 0.63319 0.19971 0.41383 0.0
C403 C 0.7195 0.17417 0.40951 0.0
C404 C 0.56123 0.2767 0.38845 0.0
C405 C 0.58015 0.26097 0.39693 0.0
C406 C 0.64117 0.24065 0.37902 0.0
C407 C 0.67821 0.19067 0.41571 0.0
C408 C 0.65715 0.20567 0.4057 0.0
C409 C 0.59672 0.25052 0.37849 0.0
C410 C 0.61741 0.23484 0.38754 0.0
H411 H 0.69657 0.15886 0.47119 0.0
H412 H 0.66189 0.18259 0.4547 0.0
H413 H 0.67893 0.23202 0.38187 0.0
H414 H 0.5728 0.27461 0.32189 0.0
H415 H 0.60631 0.24767 0.33684 0.0
C416 C 0.31896 0.44779 0.94305 0.0
C417 C 0.30506 0.43486 0.9254 0.0
C418 C 0.33778 0.46323 0.93367 0.0
C419 C 0.36009 0.49794 0.8732 0.0
H420 H 0.41929 0.50176 0.91177 0.0
C421 C 0.4446 0.54987 0.83115 0.0
C422 C 0.45659 0.56523 0.8484 0.0
C423 C 0.42625 0.53394 0.84067 0.0
C424 C 0.40277 0.50106 0.90092 0.0
H425 H 0.29987 0.42804 0.88408 0.0
H426 H 0.33308 0.45452 0.86763 0.0
H427 H 0.38745 0.47343 0.92779 0.0
H428 H 0.45861 0.57569 0.88932 0.0
H429 H 0.42659 0.54772 0.90591 0.0
H430 H 0.37561 0.52537 0.84617 0.0
C431 C 0.32927 0.45305 0.88874 0.0
C432 C 0.38448 0.48485 0.91011 0.0
C433 C 0.31033 0.43774 0.89815 0.0
C434 C 0.44978 0.56416 0.87546 0.0
C435 C 0.43153 0.54803 0.88501 0.0
C436 C 0.37845 0.51401 0.86393 0.0
C437 C 0.34318 0.46612 0.90638 0.0
C438 C 0.36286 0.48309 0.89639 0.0
C439 C 0.41951 0.5328 0.8677 0.0
C440 C 0.39998 0.51578 0.87769 0.0
H441 H 0.31477 0.44673 0.96408 0.0
H442 H 0.34767 0.47342 0.94782 0.0
H443 H 0.34354 0.49749 0.86238 0.0
H444 H 0.44929 0.5502 0.81019 0.0
H445 H 0.41752 0.52226 0.82687 0.0
C446 C 0.69509 0.53275 0.4234 0.0
C447 C 0.70812 0.5257 0.44588 0.0
C448 C 0.67996 0.51572 0.41201 0.0
C449 C 0.6433 0.46139 0.43051 0.0
H450 H 0.6374 0.4552 0.35496 0.0
C451 C 0.57494 0.39421 0.38774 0.0
C452 C 0.56267 0.40285 0.36527 0.0
C453 C 0.59443 0.40749 0.39682 0.0
C454 C 0.63864 0.4569 0.37612 0.0
H455 H 0.71635 0.49484 0.47325 0.0
H456 H 0.68983 0.46522 0.45339 0.0
H457 H 0.66899 0.48133 0.37148 0.0
H458 H 0.56123 0.43238 0.33486 0.0
H459 H 0.59463 0.45579 0.35107 0.0
H460 H 0.61254 0.43773 0.43529 0.0
C461 C 0.69121 0.48398 0.44474 0.0
C462 C 0.65681 0.47178 0.38555 0.0
C463 C 0.70651 0.50092 0.456 0.0
C464 C 0.57033 0.42507 0.35214 0.0
C465 C 0.58966 0.43844 0.36134 0.0
C466 C 0.62501 0.44669 0.4211 0.0
C467 C 0.6774 0.49136 0.42298 0.0
C468 C 0.65921 0.47432 0.41284 0.0
C469 C 0.602 0.42982 0.38377 0.0
C470 C 0.62228 0.44443 0.39378 0.0
H471 H 0.69598 0.55167 0.41509 0.0
H472 H 0.66943 0.52198 0.39532 0.0
H473 H 0.64448 0.4633 0.45165 0.0
H474 H 0.56965 0.37705 0.3982 0.0
H475 H 0.60372 0.40009 0.41393 0.0
C476 C 0.69942 0.42795 0.9072 0.0
C477 C 0.70624 0.43198 0.93318 0.0
C478 C 0.68589 0.44616 0.89338 0.0
C479 C 0.66444 0.51288 0.89441 0.0
H480 H 0.60961 0.48748 0.8584 0.0
C481 C 0.58026 0.57386 0.86825 0.0
C482 C 0.56967 0.5701 0.84386 0.0
C483 C 0.59927 0.55825 0.8768 0.0
C484 C 0.62502 0.49492 0.86803 0.0
H485 H 0.70523 0.45892 0.96446 0.0
H486 H 0.68148 0.49032 0.94062 0.0
H487 H 0.63939 0.45824 0.87668 0.0
H488 H 0.57137 0.54726 0.80906 0.0
H489 H 0.60442 0.52022 0.82398 0.0
H490 H 0.64955 0.54958 0.88633 0.0
C491 C 0.68673 0.47326 0.93073 0.0
C492 C 0.64217 0.47813 0.87845 0.0
C493 C 0.70027 0.45512 0.9445 0.0
C494 C 0.57892 0.55067 0.82803 0.0
C495 C 0.59783 0.53505 0.83662 0.0
C496 C 0.64721 0.52967 0.88407 0.0
C497 C 0.67886 0.46879 0.90524 0.0
C498 C 0.66196 0.48686 0.89205 0.0
C499 C 0.60807 0.53848 0.86121 0.0
C500 C 0.62716 0.52086 0.871 0.0
H501 H 0.70382 0.41041 0.89783 0.0
H502 H 0.6805 0.44229 0.87359 0.0
H503 H 0.67964 0.52027 0.90443 0.0
H504 H 0.57367 0.58864 0.88095 0.0
H505 H 0.60662 0.56123 0.89597 0.0
C506 C 0.3126 0.54639 0.425 0.0
C507 C 0.30316 0.54002 0.45043 0.0
C508 C 0.328 0.52966 0.41141 0.0
C509 C 0.34998 0.46322 0.41143 0.0
H510 H 0.40829 0.49175 0.37884 0.0
C511 C 0.43609 0.40395 0.38702 0.0
C512 C 0.44874 0.40926 0.36293 0.0
C513 C 0.41677 0.41938 0.39552 0.0
C514 C 0.39197 0.4835 0.38753 0.0
H515 H 0.3016 0.51055 0.48098 0.0
H516 H 0.32851 0.4817 0.45755 0.0
H517 H 0.37648 0.51937 0.39657 0.0
H518 H 0.45074 0.435 0.32884 0.0
H519 H 0.41712 0.46179 0.34374 0.0
H520 H 0.36583 0.4273 0.40293 0.0
C521 C 0.32392 0.49947 0.4479 0.0
C522 C 0.37367 0.49934 0.39762 0.0
C523 C 0.30857 0.51614 0.46144 0.0
C524 C 0.44151 0.43033 0.34754 0.0
C525 C 0.42228 0.44579 0.35612 0.0
C526 C 0.36833 0.44737 0.40142 0.0
C527 C 0.33423 0.50619 0.42296 0.0
C528 C 0.35259 0.48939 0.41001 0.0
C529 C 0.40971 0.44053 0.38021 0.0
C530 C 0.38965 0.45733 0.38964 0.0
H531 H 0.30873 0.56459 0.4159 0.0
H532 H 0.33534 0.53527 0.39204 0.0
H533 H 0.33381 0.45494 0.42046 0.0
H534 H 0.4411 0.38789 0.39937 0.0
H535 H 0.40763 0.41498 0.41435 0.0
C536 C 0.79808 0.95803 0.91033 0.0
C537 C 0.80302 0.93519 0.92379 0.0
C538 C 0.81697 0.97364 0.90151 0.0
C539 C 0.88256 0.97366 0.88437 0.0
H540 H 0.87576 0.04529 0.89385 0.0
C541 C 0.94847 0.04478 0.83417 0.0
C542 C 0.95586 0.06485 0.84915 0.0
C543 C 0.93022 0.02879 0.84384 0.0
C544 C 0.87803 0.02531 0.89124 0.0
H545 H 0.83173 0.91013 0.9371 0.0
H546 H 0.86471 0.93755 0.92219 0.0
H547 H 0.84329 0.01758 0.90963 0.0
H548 H 0.94967 0.08372 0.8862 0.0
H549 H 0.91783 0.05573 0.90307 0.0
H550 H 0.91737 0.98136 0.86617 0.0
C551 C 0.8462 0.9435 0.91864 0.0
C552 C 0.8593 0.00946 0.90001 0.0
C553 C 0.82729 0.92795 0.92757 0.0
C554 C 0.94448 0.06849 0.87409 0.0
C555 C 0.92612 0.05252 0.88372 0.0
C556 C 0.90123 0.98952 0.87548 0.0
C557 C 0.84126 0.96665 0.90571 0.0
C558 C 0.86131 0.98345 0.89662 0.0
C559 C 0.91879 0.03247 0.8687 0.0
C560 C 0.89916 0.01555 0.87873 0.0
H561 H 0.77956 0.96408 0.90699 0.0
H562 H 0.81255 -0.00886 0.89123 0.0
H563 H 0.88461 0.95374 0.88127 0.0
H564 H 0.95674 0.04137 0.81486 0.0
H565 H 0.92479 0.01373 0.83161 0.0
C566 C 0.17087 0.04433 0.44092 0.0
C567 C 0.19426 0.03692 0.44846 0.0
C568 C 0.15656 0.0281 0.42739 0.0
C569 C 0.14855 0.96093 0.4173 0.0
H570 H 0.10456 0.9854 0.36394 0.0
C571 C 0.0668 0.9042 0.38606 0.0
C572 C 0.06078 0.90544 0.3593 0.0
C573 C 0.08488 0.91938 0.39522 0.0
C574 C 0.11691 0.97815 0.37858 0.0
H575 H 0.22135 0.00697 0.44675 0.0
H576 H 0.19639 0.97867 0.4228 0.0
H577 H 0.1336 0.01376 0.38144 0.0
H578 H 0.06964 0.92318 0.32105 0.0
H579 H 0.10128 0.94932 0.33698 0.0
H580 H 0.13195 0.92526 0.4143 0.0
C581 C 0.18901 -0.00306 0.42776 0.0
C582 C 0.13339 -0.0055 0.38882 0.0
C583 C 0.20336 0.01322 0.44132 0.0
C584 C 0.0736 0.92187 0.34184 0.0
C585 C 0.09171 0.93696 0.35099 0.0
C586 C 0.13207 0.94456 0.40703 0.0
C587 C 0.16529 0.00406 0.42101 0.0
C588 C 0.14919 0.98618 0.40855 0.0
C589 C 0.09743 0.93607 0.37782 0.0
C590 C 0.11586 0.95305 0.38777 0.0
H591 H 0.16329 0.06246 0.4461 0.0
H592 H 0.13829 0.03409 0.42278 0.0
H593 H 0.16029 0.95395 0.43266 0.0
H594 H 0.0573 0.8918 0.40007 0.0
H595 H 0.08862 0.91844 0.41607 0.0
C596 C 0.19982 0.92908 0.91062 0.0
C597 C 0.20688 0.93409 0.93629 0.0
C598 C 0.18565 0.94652 0.89648 0.0
C599 C 0.16368 0.01304 0.89556 0.0
H600 H 0.10879 0.98647 0.86061 0.0
C601 C 0.07935 0.07316 0.86871 0.0
C602 C 0.06871 0.06906 0.84443 0.0
C603 C 0.09832 0.05763 0.87748 0.0
C604 C 0.12421 -0.0058 0.86994 0.0
H605 H 0.20537 0.96185 0.96676 0.0
H606 H 0.18057 -0.00812 0.9424 0.0
H607 H 0.1388 0.95778 0.87953 0.0
H608 H 0.07017 0.0456 0.81011 0.0
H609 H 0.10318 0.01864 0.82544 0.0
H610 H 0.14865 0.04947 0.88655 0.0
C611 C 0.18613 0.97468 0.93297 0.0
C612 C 0.14148 0.97775 0.88074 0.0
C613 C 0.20026 0.95731 0.94705 0.0
C614 C 0.0778 0.0493 0.82897 0.0
C615 C 0.09668 0.03373 0.83779 0.0
C616 C 0.14635 0.02949 0.88486 0.0
C617 C 0.17827 0.96935 0.9077 0.0
C618 C 0.16125 0.98694 0.89401 0.0
C619 C 0.10703 0.03759 0.86223 0.0
C620 C 0.12626 0.02025 0.87222 0.0
H621 H 0.20468 0.91142 0.9017 0.0
H622 H 0.1802 0.94198 0.87689 0.0
H623 H 0.1789 0.02078 0.90525 0.0
H624 H 0.07288 0.0882 0.88113 0.0
H625 H 0.10575 0.06094 0.89653 0.0
C626 C 0.81152 0.02359 0.45092 0.0
C627 C 0.80716 0.04704 0.43839 0.0
C628 C 0.8255 0.0052 0.43816 0.0
C629 C 0.87406 0.0004 0.38686 0.0
H630 H 0.86499 0.92891 0.39763 0.0
C631 C 0.93984 0.92807 0.3399 0.0
C632 C 0.94739 0.90791 0.3564 0.0
C633 C 0.92067 0.94389 0.34783 0.0
C634 C 0.86781 0.94883 0.39458 0.0
H635 H 0.81262 0.06885 0.40185 0.0
H636 H 0.83662 0.03657 0.3794 0.0
H637 H 0.83394 0.95829 0.41413 0.0
H638 H 0.94023 0.88839 0.39406 0.0
H639 H 0.9069 0.91621 0.40797 0.0
H640 H 0.90804 -0.00898 0.36769 0.0
C641 C 0.82972 0.03264 0.39937 0.0
C642 C 0.85002 0.96566 0.404 0.0
C643 C 0.8158 0.05108 0.41217 0.0
C644 C 0.93497 0.90374 0.38086 0.0
C645 C 0.91573 0.91958 0.38876 0.0
C646 C 0.89177 0.9836 0.37741 0.0
C647 C 0.83537 0.00978 0.41251 0.0
C648 C 0.85306 -0.00833 0.40051 0.0
C649 C 0.90852 0.93996 0.37243 0.0
C650 C 0.889 0.95763 0.3814 0.0
H651 H 0.80512 0.01979 0.4711 0.0
H652 H 0.8296 0.9879 0.44897 0.0
H653 H 0.87727 0.02029 0.38428 0.0
H654 H 0.94882 0.9318 0.32084 0.0
H655 H 0.91535 0.95922 0.33464 0.0
C656 C 0.3522 0.42126 0.08311 0.0
C657 C 0.34959 0.40409 0.063 0.0
C658 C 0.3638 0.41405 0.10629 0.0
C659 C 0.40615 0.36627 0.13382 0.0
H660 H 0.38177 0.3914 0.20092 0.0
C661 C 0.44888 0.33644 0.23275 0.0
C662 C 0.45425 0.3564 0.24891 0.0
C663 C 0.43403 0.34039 0.21113 0.0
C664 C 0.38881 0.38429 0.18232 0.0
H665 H 0.35711 0.36584 0.05147 0.0
H666 H 0.37702 0.35318 0.09205 0.0
H667 H 0.36031 0.40209 0.16072 0.0
H668 H 0.44727 0.39588 0.25571 0.0
H669 H 0.42142 0.40265 0.21818 0.0
H670 H 0.43472 0.34858 0.15549 0.0
C671 C 0.37044 0.37233 0.08976 0.0
C672 C 0.3766 0.39049 0.15926 0.0
C673 C 0.35893 0.37958 0.06653 0.0
C674 C 0.44364 0.3801 0.24361 0.0
C675 C 0.42867 0.38397 0.22218 0.0
C676 C 0.41829 0.35997 0.15691 0.0
C677 C 0.37297 0.38946 0.10996 0.0
C678 C 0.3853 0.38184 0.13467 0.0
C679 C 0.42405 0.36429 0.20543 0.0
C680 C 0.40994 0.36918 0.18135 0.0
H681 H 0.34531 0.44031 0.08098 0.0
H682 H 0.36582 0.42786 0.12123 0.0
H683 H 0.41354 0.35954 0.1152 0.0
H684 H 0.45675 0.31795 0.23627 0.0
H685 H 0.43057 0.32481 0.19869 0.0
C686 C 0.69786 0.63864 0.5685 0.0
C687 C 0.71043 0.6155 0.56789 0.0
C688 C 0.68271 0.64461 0.59027 0.0
C689 C 0.66605 0.62428 0.65979 0.0
H690 H 0.6028 0.65198 0.6429 0.0
C691 C 0.58137 0.61197 0.72839 0.0
C692 C 0.56583 0.63285 0.73206 0.0
C693 C 0.60066 0.61303 0.70977 0.0
C694 C 0.62049 0.64456 0.64799 0.0
H695 H 0.71783 0.58104 0.59032 0.0
H696 H 0.69127 0.59116 0.62776 0.0
H697 H 0.63439 0.64888 0.60816 0.0
H698 H 0.55845 0.67125 0.71893 0.0
H699 H 0.59202 0.6729 0.6861 0.0
H700 H 0.6517 0.61902 0.69941 0.0
C701 C 0.69325 0.60493 0.61169 0.0
C702 C 0.63866 0.64288 0.6281 0.0
C703 C 0.70842 0.59903 0.59005 0.0
C704 C 0.57006 0.65483 0.71663 0.0
C705 C 0.58922 0.65577 0.69776 0.0
C706 C 0.64782 0.62576 0.67958 0.0
C707 C 0.67978 0.62755 0.61187 0.0
C708 C 0.66153 0.63224 0.63364 0.0
C709 C 0.60474 0.63489 0.69419 0.0
C710 C 0.62472 0.63548 0.67378 0.0
H711 H 0.6991 0.65181 0.55181 0.0
H712 H 0.67291 0.66238 0.58994 0.0
H713 H 0.68359 0.61648 0.6649 0.0
H714 H 0.57873 0.59478 0.73999 0.0
H715 H 0.61215 0.59654 0.70723 0.0
C716 C 0.70121 0.39228 0.10611 0.0
C717 C 0.70566 0.37514 0.08594 0.0
C718 C 0.68731 0.38552 0.12871 0.0
C719 C 0.63925 0.342 0.15034 0.0
H720 H 0.6498 0.36921 0.219 0.0
C721 C 0.57241 0.32594 0.23977 0.0
C722 C 0.56566 0.3477 0.25339 0.0
C723 C 0.5919 0.3262 0.2213 0.0
C724 C 0.64661 0.36151 0.19993 0.0
H725 H 0.70011 0.33696 0.07435 0.0
H726 H 0.67608 0.32503 0.11406 0.0
H727 H 0.68052 0.37457 0.18346 0.0
H728 H 0.57463 0.38661 0.2587 0.0
H729 H 0.60845 0.387 0.22654 0.0
H730 H 0.60514 0.32936 0.1667 0.0
C731 C 0.68298 0.34387 0.11214 0.0
C732 C 0.66418 0.36458 0.17957 0.0
C733 C 0.69688 0.35067 0.08946 0.0
C734 C 0.57921 0.36952 0.24853 0.0
C735 C 0.59876 0.36971 0.23024 0.0
C736 C 0.62173 0.33883 0.17075 0.0
C737 C 0.67758 0.36141 0.13176 0.0
C738 C 0.66047 0.35537 0.15434 0.0
C739 C 0.60519 0.34813 0.21624 0.0
C740 C 0.62497 0.34904 0.19558 0.0
H741 H 0.70771 0.41128 0.10407 0.0
H742 H 0.68331 0.39961 0.14324 0.0
H743 H 0.63561 0.33496 0.13109 0.0
H744 H 0.56243 0.30878 0.24305 0.0
H745 H 0.59655 0.30923 0.21094 0.0
C746 C 0.31075 0.57431 0.61643 0.0
C747 C 0.30269 0.59157 0.59701 0.0
C748 C 0.32573 0.58188 0.63619 0.0
C749 C 0.37019 0.63011 0.64866 0.0
H750 H 0.36846 0.59879 0.71884 0.0
C751 C 0.44112 0.64942 0.72734 0.0
C752 C 0.45103 0.62771 0.73957 0.0
C753 C 0.42089 0.6479 0.71159 0.0
C754 C 0.36916 0.60769 0.6993 0.0
H755 H 0.30305 0.63064 0.58389 0.0
H756 H 0.32902 0.64396 0.61871 0.0
H757 H 0.33571 0.59157 0.68907 0.0
H758 H 0.44717 0.58745 0.74504 0.0
H759 H 0.41204 0.58491 0.71773 0.0
H760 H 0.40389 0.64592 0.65888 0.0
C761 C 0.32406 0.62445 0.61834 0.0
C762 C 0.35044 0.60353 0.68224 0.0
C763 C 0.30905 0.61685 0.5985 0.0
C764 C 0.44013 0.60455 0.73586 0.0
C765 C 0.41983 0.6031 0.72039 0.0
C766 C 0.38886 0.6344 0.66582 0.0
C767 C 0.33297 0.60694 0.6371 0.0
C768 C 0.35104 0.61415 0.65646 0.0
C769 C 0.40999 0.62472 0.70808 0.0
C770 C 0.38884 0.6227 0.69106 0.0
H771 H 0.30619 0.55469 0.6159 0.0
H772 H 0.33247 0.5678 0.65007 0.0
H773 H 0.3714 0.63837 0.62886 0.0
H774 H 0.44906 0.66756 0.72979 0.0
H775 H 0.41362 0.66488 0.70238 0.0
C776 C 0.86166 0.87288 0.06036 0.0
C777 C 0.85069 0.89677 0.05774 0.0
C778 C 0.87316 0.86556 0.0836 0.0
C779 C 0.87645 0.88144 0.15417 0.0
H780 H 0.93751 0.84433 0.15027 0.0
C781 C 0.94252 0.87445 0.23949 0.0
C782 C 0.95481 0.85155 0.24441 0.0
C783 C 0.92767 0.87754 0.21788 0.0
C784 C 0.92028 0.85434 0.15171 0.0
H785 H 0.84352 0.93183 0.07731 0.0
H786 H 0.86399 0.9193 0.11752 0.0
H787 H 0.9164 0.85487 0.10981 0.0
H788 H 0.96047 0.81366 0.23089 0.0
H789 H 0.9345 0.81918 0.19291 0.0
H790 H 0.88073 0.88147 0.19603 0.0
C791 C 0.86326 0.90598 0.10189 0.0
C792 C 0.90817 0.8604 0.12853 0.0
C793 C 0.85168 0.91325 0.07873 0.0
C794 C 0.95126 0.83154 0.22766 0.0
C795 C 0.93654 0.83473 0.20583 0.0
C796 C 0.88862 0.87549 0.17732 0.0
C797 C 0.87402 0.88199 0.10469 0.0
C798 C 0.88627 0.87433 0.12944 0.0
C799 C 0.92485 0.85788 0.20053 0.0
C800 C 0.91082 0.86216 0.1763 0.0
H801 H 0.86111 0.85968 0.0446 0.0
H802 H 0.88103 0.84686 0.08518 0.0
H803 H 0.85936 0.8917 0.15567 0.0
H804 H 0.94474 0.89023 0.25206 0.0
H805 H 0.91909 0.89567 0.2142 0.0
C806 C 0.19663 0.13919 0.56829 0.0
C807 C 0.20892 0.11595 0.56677 0.0
C808 C 0.1817 0.14465 0.5904 0.0
C809 C 0.16507 0.12231 0.6593 0.0
H810 H 0.10236 0.15217 0.64377 0.0
C811 C 0.08041 0.11075 0.72832 0.0
C812 C 0.06544 0.13196 0.73257 0.0
C813 C 0.09966 0.11167 0.70963 0.0
C814 C 0.11991 0.14413 0.64849 0.0
H815 H 0.21604 0.08071 0.58789 0.0
H816 H 0.18982 0.08995 0.62591 0.0
H817 H 0.13364 0.14929 0.60871 0.0
H818 H 0.05908 0.17082 0.72046 0.0
H819 H 0.09255 0.17225 0.68753 0.0
H820 H 0.15084 0.11624 0.69887 0.0
C821 C 0.19188 0.1042 0.61033 0.0
C822 C 0.13791 0.14256 0.62842 0.0
C823 C 0.20686 0.09881 0.58836 0.0
C824 C 0.07024 0.15414 0.7177 0.0
C825 C 0.08934 0.15496 0.69877 0.0
C826 C 0.14699 0.12367 0.67928 0.0
C827 C 0.17867 0.12695 0.61141 0.0
C828 C 0.16059 0.13122 0.63345 0.0
C829 C 0.10425 0.13374 0.69456 0.0
C830 C 0.12409 0.13422 0.67397 0.0
H831 H 0.19792 0.15288 0.55208 0.0
H832 H 0.17215 0.16255 0.59077 0.0
H833 H 0.18246 0.11391 0.66404 0.0
H834 H 0.07733 0.09339 0.73948 0.0
H835 H 0.11068 0.09493 0.7066 0.0
C836 C 0.20495 0.89291 0.11008 0.0
C837 C 0.20998 0.87672 0.08916 0.0
C838 C 0.19095 0.88496 0.13217 0.0
C839 C 0.14338 0.83991 0.15086 0.0
H840 H 0.15182 0.8654 0.22072 0.0
C841 C 0.0739 0.82252 0.23793 0.0
C842 C 0.0666 0.84435 0.25112 0.0
C843 C 0.094 0.82277 0.22022 0.0
C844 C 0.14926 0.85812 0.20132 0.0
H845 H 0.20538 0.83897 0.07573 0.0
H846 H 0.18115 0.82497 0.11456 0.0
H847 H 0.1834 0.87186 0.18631 0.0
H848 H 0.07519 0.88334 0.2566 0.0
H849 H 0.11007 0.88368 0.22589 0.0
H850 H 0.10898 0.82664 0.16579 0.0
C851 C 0.1877 0.84399 0.11361 0.0
C852 C 0.16731 0.86184 0.1816 0.0
C853 C 0.20171 0.85197 0.09144 0.0
C854 C 0.08018 0.86621 0.24669 0.0
C855 C 0.10034 0.86637 0.22926 0.0
C856 C 0.12538 0.83606 0.17064 0.0
C857 C 0.18168 0.86059 0.13395 0.0
C858 C 0.16429 0.85341 0.15592 0.0
C859 C 0.10737 0.84473 0.21566 0.0
C860 C 0.12785 0.84573 0.19586 0.0
H861 H 0.21106 0.91208 0.109 0.0
H862 H 0.18646 0.89837 0.14727 0.0
H863 H 0.14029 0.83341 0.13124 0.0
H864 H 0.06386 0.80537 0.24091 0.0
H865 H 0.09908 0.80579 0.21008 0.0
C866 C 0.81716 0.08133 0.60259 0.0
C867 C 0.81025 0.09998 0.58401 0.0
C868 C 0.83148 0.08715 0.62362 0.0
C869 C 0.87609 0.13326 0.64192 0.0
H870 H 0.87044 0.09833 0.71013 0.0
C871 C 0.94212 0.14893 0.72598 0.0
C872 C 0.95138 0.12693 0.73824 0.0
C873 C 0.92283 0.14787 0.70889 0.0
C874 C 0.87226 0.10818 0.69115 0.0
H875 H 0.81199 0.13966 0.57369 0.0
H876 H 0.83676 0.14992 0.61074 0.0
H877 H 0.83938 0.09312 0.67776 0.0
H878 H 0.94726 0.08661 0.74242 0.0
H879 H 0.91372 0.08485 0.71267 0.0
H880 H 0.90914 0.14806 0.65527 0.0
C881 C 0.83144 0.13068 0.60871 0.0
C882 C 0.8545 0.10519 0.67259 0.0
C883 C 0.81712 0.12483 0.58759 0.0
C884 C 0.94068 0.10392 0.73328 0.0
C885 C 0.9213 0.10292 0.71638 0.0
C886 C 0.89378 0.13636 0.66055 0.0
C887 C 0.83918 0.1118 0.62669 0.0
C888 C 0.85646 0.11728 0.64754 0.0
C889 C 0.91224 0.12485 0.70391 0.0
C890 C 0.89231 0.12344 0.68515 0.0
H891 H 0.81218 0.06199 0.60046 0.0
H892 H 0.83732 0.07207 0.63685 0.0
H893 H 0.87837 0.14259 0.62271 0.0
H894 H 0.94988 0.16697 0.72937 0.0
H895 H 0.91611 0.1651 0.69969 0.0
loop_
_geom_bond_atom_site_label_1
_geom_bond_atom_site_label_2
_geom_bond_distance
_geom_bond_site_symmetry_2
_ccdc_geom_bond_type
O0 Cd1 2.300 . S
O0 C7 1.275 . S
Cd1 O0 2.300 . S
Cd1 O9 2.381 . S
Cd1 O10 2.378 . S
O2 Cd3 2.385 1_556 S
O2 C7 1.255 . S
Cd3 O2 2.385 1_554 S
Cd3 O4 2.317 . S
O4 Cd3 2.317 . S
O4 C5 1.232 . S
C5 O4 1.232 . S
C5 O6 1.218 . S
O6 C5 1.218 . S
C7 O0 1.275 . S
C7 O2 1.255 . S
C8 O9 1.258 . S
C8 O10 1.256 . S
O9 Cd1 2.381 . S
O9 C8 1.258 . S
O10 Cd1 2.378 . S
O10 C8 1.256 . S
O11 Cd12 2.300 . S
O11 C18 1.275 . S
Cd12 O11 2.300 . S
Cd12 O20 2.381 . S
Cd12 O21 2.378 . S
O13 Cd14 2.385 . S
O13 C18 1.255 . S
Cd14 O13 2.385 . S
Cd14 O15 2.317 . S
O15 Cd14 2.317 . S
O15 C16 1.232 . S
C16 O15 1.232 . S
C16 O17 1.218 . S
O17 C16 1.218 . S
C18 O11 1.275 . S
C18 O13 1.255 . S
C19 O20 1.258 . S
C19 O21 1.256 . S
O20 Cd12 2.381 . S
O20 C19 1.258 . S
O21 Cd12 2.378 . S
O21 C19 1.256 . S
O22 Cd23 2.300 . S
O22 C29 1.275 . S
Cd23 O22 2.300 . S
Cd23 O31 2.381 . S
Cd23 O32 2.378 . S
O24 Cd25 2.385 . S
O24 C29 1.255 1_554 S
Cd25 O24 2.385 . S
Cd25 O26 2.317 . S
O26 Cd25 2.317 . S
O26 C27 1.232 . S
C27 O26 1.232 . S
C27 O28 1.218 . S
O28 C27 1.218 . S
C29 O22 1.275 . S
C29 O24 1.255 1_556 S
C30 O31 1.258 . S
C30 O32 1.256 . S
O31 Cd23 2.381 . S
O31 C30 1.258 . S
O32 Cd23 2.378 . S
O32 C30 1.256 . S
O33 Cd34 2.300 . S
O33 C40 1.275 . S
Cd34 O33 2.300 . S
Cd34 O42 2.381 . S
Cd34 O43 2.378 . S
O35 Cd36 2.385 . S
O35 C40 1.255 . S
Cd36 O35 2.385 . S
Cd36 O37 2.317 . S
O37 Cd36 2.317 . S
O37 C38 1.232 . S
C38 O37 1.232 . S
C38 O39 1.218 . S
O39 C38 1.218 . S
C40 O33 1.275 . S
C40 O35 1.255 . S
C41 O42 1.258 . S
C41 O43 1.256 . S
O42 Cd34 2.381 . S
O42 C41 1.258 . S
O43 Cd34 2.378 . S
O43 C41 1.256 . S
O44 Cd45 2.300 . S
O44 C51 1.275 . S
Cd45 O44 2.300 . S
Cd45 O53 2.381 . S
Cd45 O54 2.378 . S
O46 Cd47 2.385 1_556 S
O46 C51 1.255 . S
Cd47 O46 2.385 1_554 S
Cd47 O48 2.317 . S
O48 Cd47 2.317 . S
O48 C49 1.232 . S
C49 O48 1.232 . S
C49 O50 1.218 . S
O50 C49 1.218 . S
C51 O44 1.275 . S
C51 O46 1.255 . S
C52 O53 1.258 . S
C52 O54 1.256 . S
O53 Cd45 2.381 . S
O53 C52 1.258 . S
O54 Cd45 2.378 . S
O54 C52 1.256 . S
O55 Cd56 2.300 . S
O55 C62 1.275 . S
Cd56 O55 2.300 . S
Cd56 O64 2.381 . S
Cd56 O65 2.378 . S
O57 Cd58 2.385 . S
O57 C62 1.255 . S
Cd58 O57 2.385 . S
Cd58 O59 2.317 . S
O59 Cd58 2.317 . S
O59 C60 1.232 . S
C60 O59 1.232 . S
C60 O61 1.218 . S
O61 C60 1.218 . S
C62 O55 1.275 . S
C62 O57 1.255 . S
C63 O64 1.258 . S
C63 O65 1.256 . S
O64 Cd56 2.381 . S
O64 C63 1.258 . S
O65 Cd56 2.378 . S
O65 C63 1.256 . S
O66 Cd67 2.300 . S
O66 C73 1.275 . S
Cd67 O66 2.300 . S
Cd67 O75 2.381 . S
Cd67 O76 2.378 . S
O68 Cd69 2.385 . S
O68 C73 1.255 1_554 S
Cd69 O68 2.385 . S
Cd69 O70 2.317 . S
O70 Cd69 2.317 . S
O70 C71 1.232 . S
C71 O70 1.232 . S
C71 O72 1.218 . S
O72 C71 1.218 . S
C73 O66 1.275 . S
C73 O68 1.255 1_556 S
C74 O75 1.258 . S
C74 O76 1.256 . S
O75 Cd67 2.381 . S
O75 C74 1.258 . S
O76 Cd67 2.378 . S
O76 C74 1.256 . S
O77 Cd78 2.300 . S
O77 C84 1.275 . S
Cd78 O77 2.300 . S
Cd78 O86 2.381 . S
Cd78 O87 2.378 . S
O79 Cd80 2.385 . S
O79 C84 1.255 . S
Cd80 O79 2.385 . S
Cd80 O81 2.317 . S
O81 Cd80 2.317 . S
O81 C82 1.232 . S
C82 O81 1.232 . S
C82 O83 1.218 . S
O83 C82 1.218 . S
C84 O77 1.275 . S
C84 O79 1.255 . S
C85 O86 1.258 . S
C85 O87 1.256 . S
O86 Cd78 2.381 . S
O86 C85 1.258 . S
O87 Cd78 2.378 . S
O87 C85 1.256 . S
Sc88 O91 2.025 . S
Sc88 O98 2.105 1_455 S
Sc88 O101 2.105 . S
Sc88 O104 2.105 . S
Sc88 O107 2.105 1_455 S
Sc89 O91 2.025 . S
Sc89 O99 2.105 1_455 S
Sc89 O103 2.105 . S
Sc89 O105 2.105 . S
Sc89 O109 2.105 1_455 S
Sc90 O91 2.025 . S
Sc90 O100 2.105 1_455 S
Sc90 O102 2.105 . S
Sc90 O106 2.105 . S
Sc90 O108 2.105 1_455 S
O91 Sc88 2.025 . S
O91 Sc89 2.025 . S
O91 Sc90 2.025 . S
C92 O98 1.268 . S
C92 O108 1.268 . S
C93 O99 1.268 . S
C93 O107 1.268 . S
C94 O100 1.268 . S
C94 O109 1.268 . S
C95 O101 1.268 . S
C95 O105 1.268 . S
C96 O102 1.268 . S
C96 O104 1.268 . S
C97 O103 1.268 . S
C97 O106 1.268 . S
O98 Sc88 2.105 1_655 S
O98 C92 1.268 . S
O99 Sc89 2.105 1_655 S
O99 C93 1.268 . S
O100 Sc90 2.105 1_655 S
O100 C94 1.268 . S
O101 Sc88 2.105 . S
O101 C95 1.268 . S
O102 Sc90 2.105 . S
O102 C96 1.268 . S
O103 Sc89 2.105 . S
O103 C97 1.268 . S
O104 Sc88 2.105 . S
O104 C96 1.268 . S
O105 Sc89 2.105 . S
O105 C95 1.268 . S
O106 Sc90 2.105 . S
O106 C97 1.268 . S
O107 Sc88 2.105 1_655 S
O107 C93 1.268 . S
O108 Sc90 2.105 1_655 S
O108 C92 1.268 . S
O109 Sc89 2.105 1_655 S
O109 C94 1.268 . S
Sc110 O113 2.025 . S
Sc110 O120 2.105 . S
Sc110 O123 2.105 1_455 S
Sc110 O126 2.105 1_455 S
Sc110 O129 2.105 . S
Sc111 O113 2.025 . S
Sc111 O121 2.105 . S
Sc111 O125 2.105 1_455 S
Sc111 O127 2.105 1_455 S
Sc111 O131 2.105 . S
Sc112 O113 2.025 . S
Sc112 O122 2.105 . S
Sc112 O124 2.105 1_455 S
Sc112 O128 2.105 1_455 S
Sc112 O130 2.105 . S
O113 Sc110 2.025 . S
O113 Sc111 2.025 . S
O113 Sc112 2.025 . S
C114 O120 1.268 . S
C114 O130 1.268 . S
C115 O121 1.268 . S
C115 O129 1.268 . S
C116 O122 1.268 . S
C116 O131 1.268 . S
C117 O123 1.268 . S
C117 O127 1.268 . S
C118 O124 1.268 . S
C118 O126 1.268 . S
C119 O125 1.268 . S
C119 O128 1.268 . S
O120 Sc110 2.105 . S
O120 C114 1.268 . S
O121 Sc111 2.105 . S
O121 C115 1.268 . S
O122 Sc112 2.105 . S
O122 C116 1.268 . S
O123 Sc110 2.105 1_655 S
O123 C117 1.268 . S
O124 Sc112 2.105 1_655 S
O124 C118 1.268 . S
O125 Sc111 2.105 1_655 S
O125 C119 1.268 . S
O126 Sc110 2.105 1_655 S
O126 C118 1.268 . S
O127 Sc111 2.105 1_655 S
O127 C117 1.268 . S
O128 Sc112 2.105 1_655 S
O128 C119 1.268 . S
O129 Sc110 2.105 . S
O129 C115 1.268 . S
O130 Sc112 2.105 . S
O130 C114 1.268 . S
O131 Sc111 2.105 . S
O131 C116 1.268 . S
Sc132 O135 2.025 . S
Sc132 O142 2.105 . S
Sc132 O145 2.105 . S
Sc132 O148 2.105 . S
Sc132 O151 2.105 . S
Sc133 O135 2.025 . S
Sc133 O143 2.105 . S
Sc133 O147 2.105 . S
Sc133 O149 2.105 . S
Sc133 O153 2.105 . S
Sc134 O135 2.025 . S
Sc134 O144 2.105 . S
Sc134 O146 2.105 . S
Sc134 O150 2.105 . S
Sc134 O152 2.105 . S
O135 Sc132 2.025 . S
O135 Sc133 2.025 . S
O135 Sc134 2.025 . S
C136 O142 1.268 . S
C136 O152 1.268 . S
C137 O143 1.268 . S
C137 O151 1.268 . S
C138 O144 1.268 . S
C138 O153 1.268 . S
C139 O145 1.268 . S
C139 O149 1.268 . S
C140 O146 1.268 . S
C140 O148 1.268 . S
C141 O147 1.268 . S
C141 O150 1.268 . S
O142 Sc132 2.105 . S
O142 C136 1.268 . S
O143 Sc133 2.105 . S
O143 C137 1.268 . S
O144 Sc134 2.105 . S
O144 C138 1.268 . S
O145 Sc132 2.105 . S
O145 C139 1.268 . S
O146 Sc134 2.105 . S
O146 C140 1.268 . S
O147 Sc133 2.105 . S
O147 C141 1.268 . S
O148 Sc132 2.105 . S
O148 C140 1.268 . S
O149 Sc133 2.105 . S
O149 C139 1.268 . S
O150 Sc134 2.105 . S
O150 C141 1.268 . S
O151 Sc132 2.105 . S
O151 C137 1.268 . S
O152 Sc134 2.105 . S
O152 C136 1.268 . S
O153 Sc133 2.105 . S
O153 C138 1.268 . S
Sc154 O157 2.025 . S
Sc154 O164 2.105 . S
Sc154 O167 2.105 . S
Sc154 O170 2.105 . S
Sc154 O173 2.105 . S
Sc155 O157 2.025 . S
Sc155 O165 2.105 . S
Sc155 O169 2.105 . S
Sc155 O171 2.105 . S
Sc155 O175 2.105 . S
Sc156 O157 2.025 . S
Sc156 O166 2.105 . S
Sc156 O168 2.105 . S
Sc156 O172 2.105 . S
Sc156 O174 2.105 . S
O157 Sc154 2.025 . S
O157 Sc155 2.025 . S
O157 Sc156 2.025 . S
C158 O164 1.268 . S
C158 O174 1.268 . S
C159 O165 1.268 . S
C159 O173 1.268 . S
C160 O166 1.268 . S
C160 O175 1.268 . S
C161 O167 1.268 . S
C161 O171 1.268 . S
C162 O168 1.268 . S
C162 O170 1.268 . S
C163 O169 1.268 . S
C163 O172 1.268 . S
O164 Sc154 2.105 . S
O164 C158 1.268 . S
O165 Sc155 2.105 . S
O165 C159 1.268 . S
O166 Sc156 2.105 . S
O166 C160 1.268 . S
O167 Sc154 2.105 . S
O167 C161 1.268 . S
O168 Sc156 2.105 . S
O168 C162 1.268 . S
O169 Sc155 2.105 . S
O169 C163 1.268 . S
O170 Sc154 2.105 . S
O170 C162 1.268 . S
O171 Sc155 2.105 . S
O171 C161 1.268 . S
O172 Sc156 2.105 . S
O172 C163 1.268 . S
O173 Sc154 2.105 . S
O173 C159 1.268 . S
O174 Sc156 2.105 . S
O174 C158 1.268 . S
O175 Sc155 2.105 . S
O175 C160 1.268 . S
C176 C177 1.349 . S
C176 C178 1.327 . S
C176 H201 0.950 . S
C177 C176 1.349 . S
C177 C193 1.349 . S
C178 C176 1.327 . S
C178 C197 1.429 . S
C178 H202 0.950 . S
C179 C196 1.574 . S
C179 C198 1.368 . S
C179 H203 0.949 . S
H180 C184 0.949 . S
C181 C182 1.349 . S
C181 C183 1.327 . S
C181 H204 0.950 . S
C182 C181 1.349 . S
C182 C194 1.349 . S
C183 C181 1.327 . S
C183 C199 1.429 . S
C183 H205 0.950 . S
C184 H180 0.949 . S
C184 C192 1.574 . S
C184 C200 1.368 . S
H185 C193 0.950 . S
H186 C191 0.950 . S
H187 C192 0.949 . S
H188 C194 0.950 . S
H189 C195 0.950 . S
H190 C196 0.949 . S
C191 H186 0.950 . S
C191 C193 1.327 . S
C191 C197 1.429 . S
C192 C184 1.574 . S
C192 H187 0.949 . S
C192 C198 1.368 . S
C193 C177 1.349 . S
C193 H185 0.950 . S
C193 C191 1.327 . S
C194 C182 1.349 . S
C194 H188 0.950 . S
C194 C195 1.327 . S
C195 H189 0.950 . S
C195 C194 1.327 . S
C195 C199 1.429 . S
C196 C179 1.574 . S
C196 H190 0.949 . S
C196 C200 1.368 . S
C197 C178 1.429 . S
C197 C191 1.429 . S
C197 C198 1.523 . S
C198 C179 1.368 . S
C198 C192 1.368 . S
C198 C197 1.523 . S
C199 C183 1.429 . S
C199 C195 1.429 . S
C199 C200 1.523 . S
C200 C184 1.368 . S
C200 C196 1.368 . S
C200 C199 1.523 . S
H201 C176 0.950 . S
H202 C178 0.950 . S
H203 C179 0.949 . S
H204 C181 0.950 . S
H205 C183 0.950 . S
C206 C207 1.349 . S
C206 C208 1.327 . S
C206 H231 0.950 . S
C207 C206 1.349 . S
C207 C223 1.349 . S
C208 C206 1.327 . S
C208 C227 1.429 . S
C208 H232 0.950 . S
C209 C226 1.574 . S
C209 C228 1.368 . S
C209 H233 0.949 . S
H210 C214 0.949 . S
C211 C212 1.349 . S
C211 C213 1.327 . S
C211 H234 0.950 . S
C212 C211 1.349 . S
C212 C224 1.349 . S
C213 C211 1.327 . S
C213 C229 1.429 . S
C213 H235 0.950 . S
C214 H210 0.949 . S
C214 C222 1.574 . S
C214 C230 1.368 . S
H215 C223 0.950 . S
H216 C221 0.950 . S
H217 C222 0.949 . S
H218 C224 0.950 . S
H219 C225 0.950 . S
H220 C226 0.949 . S
C221 H216 0.950 . S
C221 C223 1.327 . S
C221 C227 1.429 . S
C222 C214 1.574 . S
C222 H217 0.949 . S
C222 C228 1.368 . S
C223 C207 1.349 . S
C223 H215 0.950 . S
C223 C221 1.327 . S
C224 C212 1.349 . S
C224 H218 0.950 . S
C224 C225 1.327 . S
C225 H219 0.950 . S
C225 C224 1.327 . S
C225 C229 1.429 . S
C226 C209 1.574 . S
C226 H220 0.949 . S
C226 C230 1.368 . S
C227 C208 1.429 . S
C227 C221 1.429 . S
C227 C228 1.523 . S
C228 C209 1.368 . S
C228 C222 1.368 . S
C228 C227 1.523 . S
C229 C213 1.429 . S
C229 C225 1.429 . S
C229 C230 1.523 . S
C230 C214 1.368 . S
C230 C226 1.368 . S
C230 C229 1.523 . S
H231 C206 0.950 . S
H232 C208 0.950 . S
H233 C209 0.949 . S
H234 C211 0.950 . S
H235 C213 0.950 . S
C236 C237 1.349 . S
C236 C238 1.327 . S
C236 H261 0.950 . S
C237 C236 1.349 . S
C237 C253 1.349 . S
C238 C236 1.327 . S
C238 C257 1.429 . S
C238 H262 0.950 . S
C239 C256 1.574 . S
C239 C258 1.368 . S
C239 H263 0.949 . S
H240 C244 0.949 . S
C241 C242 1.349 . S
C241 C243 1.327 . S
C241 H264 0.950 . S
C242 C241 1.349 . S
C242 C254 1.349 . S
C243 C241 1.327 . S
C243 C259 1.429 . S
C243 H265 0.950 . S
C244 H240 0.949 . S
C244 C252 1.574 . S
C244 C260 1.368 . S
H245 C253 0.950 . S
H246 C251 0.950 . S
H247 C252 0.949 . S
H248 C254 0.950 . S
H249 C255 0.950 . S
H250 C256 0.949 . S
C251 H246 0.950 . S
C251 C253 1.327 . S
C251 C257 1.429 . S
C252 C244 1.574 . S
C252 H247 0.949 . S
C252 C258 1.368 . S
C253 C237 1.349 . S
C253 H245 0.950 . S
C253 C251 1.327 . S
C254 C242 1.349 . S
C254 H248 0.950 . S
C254 C255 1.327 . S
C255 H249 0.950 . S
C255 C254 1.327 . S
C255 C259 1.429 . S
C256 C239 1.574 . S
C256 H250 0.949 . S
C256 C260 1.368 . S
C257 C238 1.429 . S
C257 C251 1.429 . S
C257 C258 1.523 . S
C258 C239 1.368 . S
C258 C252 1.368 . S
C258 C257 1.523 . S
C259 C243 1.429 . S
C259 C255 1.429 . S
C259 C260 1.523 . S
C260 C244 1.368 . S
C260 C256 1.368 . S
C260 C259 1.523 . S
H261 C236 0.950 . S
H262 C238 0.950 . S
H263 C239 0.949 . S
H264 C241 0.950 . S
H265 C243 0.950 . S
C266 C267 1.349 . S
C266 C268 1.327 . S
C266 H291 0.950 . S
C267 C266 1.349 . S
C267 C283 1.349 . S
C268 C266 1.327 . S
C268 C287 1.429 . S
C268 H292 0.950 . S
C269 C286 1.574 . S
C269 C288 1.368 . S
C269 H293 0.949 . S
H270 C274 0.949 . S
C271 C272 1.349 . S
C271 C273 1.327 . S
C271 H294 0.950 . S
C272 C271 1.349 . S
C272 C284 1.349 . S
C273 C271 1.327 . S
C273 C289 1.429 . S
C273 H295 0.950 . S
C274 H270 0.949 . S
C274 C282 1.574 . S
C274 C290 1.368 . S
H275 C283 0.950 . S
H276 C281 0.950 . S
H277 C282 0.949 . S
H278 C284 0.950 . S
H279 C285 0.950 . S
H280 C286 0.949 . S
C281 H276 0.950 . S
C281 C283 1.327 . S
C281 C287 1.429 . S
C282 C274 1.574 . S
C282 H277 0.949 . S
C282 C288 1.368 . S
C283 C267 1.349 . S
C283 H275 0.950 . S
C283 C281 1.327 . S
C284 C272 1.349 . S
C284 H278 0.950 . S
C284 C285 1.327 . S
C285 H279 0.950 . S
C285 C284 1.327 . S
C285 C289 1.429 . S
C286 C269 1.574 . S
C286 H280 0.949 . S
C286 C290 1.368 . S
C287 C268 1.429 . S
C287 C281 1.429 . S
C287 C288 1.523 . S
C288 C269 1.368 . S
C288 C282 1.368 . S
C288 C287 1.523 . S
C289 C273 1.429 . S
C289 C285 1.429 . S
C289 C290 1.523 . S
C290 C274 1.368 . S
C290 C286 1.368 . S
C290 C289 1.523 . S
H291 C266 0.950 . S
H292 C268 0.950 . S
H293 C269 0.949 . S
H294 C271 0.950 . S
H295 C273 0.950 . S
C296 C297 1.349 . S
C296 C298 1.327 . S
C296 H321 0.950 . S
C297 C296 1.349 . S
C297 C313 1.349 . S
C298 C296 1.327 . S
C298 C317 1.429 . S
C298 H322 0.950 . S
C299 C316 1.574 . S
C299 C318 1.368 . S
C299 H323 0.949 . S
H300 C304 0.949 . S
C301 C302 1.349 . S
C301 C303 1.327 . S
C301 H324 0.950 . S
C302 C301 1.349 . S
C302 C314 1.349 . S
C303 C301 1.327 . S
C303 C319 1.429 . S
C303 H325 0.950 . S
C304 H300 0.949 . S
C304 C312 1.574 . S
C304 C320 1.368 . S
H305 C313 0.950 . S
H306 C311 0.950 . S
H307 C312 0.949 . S
H308 C314 0.950 . S
H309 C315 0.950 . S
H310 C316 0.949 . S
C311 H306 0.950 . S
C311 C313 1.327 . S
C311 C317 1.429 . S
C312 C304 1.574 . S
C312 H307 0.949 . S
C312 C318 1.368 . S
C313 C297 1.349 . S
C313 H305 0.950 . S
C313 C311 1.327 . S
C314 C302 1.349 . S
C314 H308 0.950 . S
C314 C315 1.327 . S
C315 H309 0.950 . S
C315 C314 1.327 . S
C315 C319 1.429 . S
C316 C299 1.574 . S
C316 H310 0.949 . S
C316 C320 1.368 . S
C317 C298 1.429 . S
C317 C311 1.429 . S
C317 C318 1.523 . S
C318 C299 1.368 . S
C318 C312 1.368 . S
C318 C317 1.523 . S
C319 C303 1.429 . S
C319 C315 1.429 . S
C319 C320 1.523 . S
C320 C304 1.368 . S
C320 C316 1.368 . S
C320 C319 1.523 . S
H321 C296 0.950 . S
H322 C298 0.950 . S
H323 C299 0.949 . S
H324 C301 0.950 . S
H325 C303 0.950 . S
C326 C327 1.349 . S
C326 C328 1.327 . S
C326 H351 0.950 . S
C327 C326 1.349 . S
C327 C343 1.349 . S
C328 C326 1.327 . S
C328 C347 1.429 . S
C328 H352 0.950 . S
C329 C346 1.574 . S
C329 C348 1.368 . S
C329 H353 0.949 . S
H330 C334 0.949 . S
C331 C332 1.349 . S
C331 C333 1.327 . S
C331 H354 0.950 . S
C332 C331 1.349 . S
C332 C344 1.349 . S
C333 C331 1.327 . S
C333 C349 1.429 . S
C333 H355 0.950 . S
C334 H330 0.949 . S
C334 C342 1.574 . S
C334 C350 1.368 . S
H335 C343 0.950 . S
H336 C341 0.950 . S
H337 C342 0.949 . S
H338 C344 0.950 . S
H339 C345 0.950 . S
H340 C346 0.949 . S
C341 H336 0.950 . S
C341 C343 1.327 . S
C341 C347 1.429 . S
C342 C334 1.574 . S
C342 H337 0.949 . S
C342 C348 1.368 . S
C343 C327 1.349 . S
C343 H335 0.950 . S
C343 C341 1.327 . S
C344 C332 1.349 . S
C344 H338 0.950 . S
C344 C345 1.327 . S
C345 H339 0.950 . S
C345 C344 1.327 . S
C345 C349 1.429 . S
C346 C329 1.574 . S
C346 H340 0.949 . S
C346 C350 1.368 . S
C347 C328 1.429 . S
C347 C341 1.429 . S
C347 C348 1.523 . S
C348 C329 1.368 . S
C348 C342 1.368 . S
C348 C347 1.523 . S
C349 C333 1.429 . S
C349 C345 1.429 . S
C349 C350 1.523 . S
C350 C334 1.368 . S
C350 C346 1.368 . S
C350 C349 1.523 . S
H351 C326 0.950 . S
H352 C328 0.950 . S
H353 C329 0.949 . S
H354 C331 0.950 . S
H355 C333 0.950 . S
C356 C357 1.349 . S
C356 C358 1.327 . S
C356 H381 0.950 . S
C357 C356 1.349 . S
C357 C373 1.349 . S
C358 C356 1.327 . S
C358 C377 1.429 . S
C358 H382 0.950 . S
C359 C376 1.574 . S
C359 C378 1.368 . S
C359 H383 0.949 . S
H360 C364 0.949 . S
C361 C362 1.349 . S
C361 C363 1.327 . S
C361 H384 0.950 . S
C362 C361 1.349 . S
C362 C374 1.349 . S
C363 C361 1.327 . S
C363 C379 1.429 . S
C363 H385 0.950 . S
C364 H360 0.949 . S
C364 C372 1.574 . S
C364 C380 1.368 . S
H365 C373 0.950 . S
H366 C371 0.950 . S
H367 C372 0.949 . S
H368 C374 0.950 . S
H369 C375 0.950 . S
H370 C376 0.949 . S
C371 H366 0.950 . S
C371 C373 1.327 . S
C371 C377 1.429 . S
C372 C364 1.574 . S
C372 H367 0.949 . S
C372 C378 1.368 . S
C373 C357 1.349 . S
C373 H365 0.950 . S
C373 C371 1.327 . S
C374 C362 1.349 . S
C374 H368 0.950 . S
C374 C375 1.327 . S
C375 H369 0.950 . S
C375 C374 1.327 . S
C375 C379 1.429 . S
C376 C359 1.574 . S
C376 H370 0.949 . S
C376 C380 1.368 . S
C377 C358 1.429 . S
C377 C371 1.429 . S
C377 C378 1.523 . S
C378 C359 1.368 . S
C378 C372 1.368 . S
C378 C377 1.523 . S
C379 C363 1.429 . S
C379 C375 1.429 . S
C379 C380 1.523 . S
C380 C364 1.368 . S
C380 C376 1.368 . S
C380 C379 1.523 . S
H381 C356 0.950 . S
H382 C358 0.950 . S
H383 C359 0.949 . S
H384 C361 0.950 . S
H385 C363 0.950 . S
C386 C387 1.349 . S
C386 C388 1.327 . S
C386 H411 0.950 . S
C387 C386 1.349 . S
C387 C403 1.349 . S
C388 C386 1.327 . S
C388 C407 1.429 . S
C388 H412 0.950 . S
C389 C406 1.574 . S
C389 C408 1.368 . S
C389 H413 0.949 . S
H390 C394 0.949 . S
C391 C392 1.349 . S
C391 C393 1.327 . S
C391 H414 0.950 . S
C392 C391 1.349 . S
C392 C404 1.349 . S
C393 C391 1.327 . S
C393 C409 1.429 . S
C393 H415 0.950 . S
C394 H390 0.949 . S
C394 C402 1.574 . S
C394 C410 1.368 . S
H395 C403 0.950 . S
H396 C401 0.950 . S
H397 C402 0.949 . S
H398 C404 0.950 . S
H399 C405 0.950 . S
H400 C406 0.949 . S
C401 H396 0.950 . S
C401 C403 1.327 . S
C401 C407 1.429 . S
C402 C394 1.574 . S
C402 H397 0.949 . S
C402 C408 1.368 . S
C403 C387 1.349 . S
C403 H395 0.950 . S
C403 C401 1.327 . S
C404 C392 1.349 . S
C404 H398 0.950 . S
C404 C405 1.327 . S
C405 H399 0.950 . S
C405 C404 1.327 . S
C405 C409 1.429 . S
C406 C389 1.574 . S
C406 H400 0.949 . S
C406 C410 1.368 . S
C407 C388 1.429 . S
C407 C401 1.429 . S
C407 C408 1.523 . S
C408 C389 1.368 . S
C408 C402 1.368 . S
C408 C407 1.523 . S
C409 C393 1.429 . S
C409 C405 1.429 . S
C409 C410 1.523 . S
C410 C394 1.368 . S
C410 C406 1.368 . S
C410 C409 1.523 . S
H411 C386 0.950 . S
H412 C388 0.950 . S
H413 C389 0.949 . S
H414 C391 0.950 . S
H415 C393 0.950 . S
C416 C417 1.349 . S
C416 C418 1.327 . S
C416 H441 0.950 . S
C417 C416 1.349 . S
C417 C433 1.349 . S
C418 C416 1.327 . S
C418 C437 1.429 . S
C418 H442 0.950 . S
C419 C436 1.574 . S
C419 C438 1.368 . S
C419 H443 0.949 . S
H420 C424 0.949 . S
C421 C422 1.349 . S
C421 C423 1.327 . S
C421 H444 0.950 . S
C422 C421 1.349 . S
C422 C434 1.349 . S
C423 C421 1.327 . S
C423 C439 1.429 . S
C423 H445 0.950 . S
C424 H420 0.949 . S
C424 C432 1.574 . S
C424 C440 1.368 . S
H425 C433 0.950 . S
H426 C431 0.950 . S
H427 C432 0.949 . S
H428 C434 0.950 . S
H429 C435 0.950 . S
H430 C436 0.949 . S
C431 H426 0.950 . S
C431 C433 1.327 . S
C431 C437 1.429 . S
C432 C424 1.574 . S
C432 H427 0.949 . S
C432 C438 1.368 . S
C433 C417 1.349 . S
C433 H425 0.950 . S
C433 C431 1.327 . S
C434 C422 1.349 . S
C434 H428 0.950 . S
C434 C435 1.327 . S
C435 H429 0.950 . S
C435 C434 1.327 . S
C435 C439 1.429 . S
C436 C419 1.574 . S
C436 H430 0.949 . S
C436 C440 1.368 . S
C437 C418 1.429 . S
C437 C431 1.429 . S
C437 C438 1.523 . S
C438 C419 1.368 . S
C438 C432 1.368 . S
C438 C437 1.523 . S
C439 C423 1.429 . S
C439 C435 1.429 . S
C439 C440 1.523 . S
C440 C424 1.368 . S
C440 C436 1.368 . S
C440 C439 1.523 . S
H441 C416 0.950 . S
H442 C418 0.950 . S
H443 C419 0.949 . S
H444 C421 0.950 . S
H445 C423 0.950 . S
C446 C447 1.349 . S
C446 C448 1.327 . S
C446 H471 0.950 . S
C447 C446 1.349 . S
C447 C463 1.349 . S
C448 C446 1.327 . S
C448 C467 1.429 . S
C448 H472 0.950 . S
C449 C466 1.574 . S
C449 C468 1.368 . S
C449 H473 0.949 . S
H450 C454 0.949 . S
C451 C452 1.349 . S
C451 C453 1.327 . S
C451 H474 0.950 . S
C452 C451 1.349 . S
C452 C464 1.349 . S
C453 C451 1.327 . S
C453 C469 1.429 . S
C453 H475 0.950 . S
C454 H450 0.949 . S
C454 C462 1.574 . S
C454 C470 1.368 . S
H455 C463 0.950 . S
H456 C461 0.950 . S
H457 C462 0.949 . S
H458 C464 0.950 . S
H459 C465 0.950 . S
H460 C466 0.949 . S
C461 H456 0.950 . S
C461 C463 1.327 . S
C461 C467 1.429 . S
C462 C454 1.574 . S
C462 H457 0.949 . S
C462 C468 1.368 . S
C463 C447 1.349 . S
C463 H455 0.950 . S
C463 C461 1.327 . S
C464 C452 1.349 . S
C464 H458 0.950 . S
C464 C465 1.327 . S
C465 H459 0.950 . S
C465 C464 1.327 . S
C465 C469 1.429 . S
C466 C449 1.574 . S
C466 H460 0.949 . S
C466 C470 1.368 . S
C467 C448 1.429 . S
C467 C461 1.429 . S
C467 C468 1.523 . S
C468 C449 1.368 . S
C468 C462 1.368 . S
C468 C467 1.523 . S
C469 C453 1.429 . S
C469 C465 1.429 . S
C469 C470 1.523 . S
C470 C454 1.368 . S
C470 C466 1.368 . S
C470 C469 1.523 . S
H471 C446 0.950 . S
H472 C448 0.950 . S
H473 C449 0.949 . S
H474 C451 0.950 . S
H475 C453 0.950 . S
C476 C477 1.349 . S
C476 C478 1.327 . S
C476 H501 0.950 . S
C477 C476 1.349 . S
C477 C493 1.349 . S
C478 C476 1.327 . S
C478 C497 1.429 . S
C478 H502 0.950 . S
C479 C496 1.574 . S
C479 C498 1.368 . S
C479 H503 0.949 . S
H480 C484 0.949 . S
C481 C482 1.349 . S
C481 C483 1.327 . S
C481 H504 0.950 . S
C482 C481 1.349 . S
C482 C494 1.349 . S
C483 C481 1.327 . S
C483 C499 1.429 . S
C483 H505 0.950 . S
C484 H480 0.949 . S
C484 C492 1.574 . S
C484 C500 1.368 . S
H485 C493 0.950 . S
H486 C491 0.950 . S
H487 C492 0.949 . S
H488 C494 0.950 . S
H489 C495 0.950 . S
H490 C496 0.949 . S
C491 H486 0.950 . S
C491 C493 1.327 . S
C491 C497 1.429 . S
C492 C484 1.574 . S
C492 H487 0.949 . S
C492 C498 1.368 . S
C493 C477 1.349 . S
C493 H485 0.950 . S
C493 C491 1.327 . S
C494 C482 1.349 . S
C494 H488 0.950 . S
C494 C495 1.327 . S
C495 H489 0.950 . S
C495 C494 1.327 . S
C495 C499 1.429 . S
C496 C479 1.574 . S
C496 H490 0.949 . S
C496 C500 1.368 . S
C497 C478 1.429 . S
C497 C491 1.429 . S
C497 C498 1.523 . S
C498 C479 1.368 . S
C498 C492 1.368 . S
C498 C497 1.523 . S
C499 C483 1.429 . S
C499 C495 1.429 . S
C499 C500 1.523 . S
C500 C484 1.368 . S
C500 C496 1.368 . S
C500 C499 1.523 . S
H501 C476 0.950 . S
H502 C478 0.950 . S
H503 C479 0.949 . S
H504 C481 0.950 . S
H505 C483 0.950 . S
C506 C507 1.349 . S
C506 C508 1.327 . S
C506 H531 0.950 . S
C507 C506 1.349 . S
C507 C523 1.349 . S
C508 C506 1.327 . S
C508 C527 1.429 . S
C508 H532 0.950 . S
C509 C526 1.574 . S
C509 C528 1.368 . S
C509 H533 0.949 . S
H510 C514 0.949 . S
C511 C512 1.349 . S
C511 C513 1.327 . S
C511 H534 0.950 . S
C512 C511 1.349 . S
C512 C524 1.349 . S
C513 C511 1.327 . S
C513 C529 1.429 . S
C513 H535 0.950 . S
C514 H510 0.949 . S
C514 C522 1.574 . S
C514 C530 1.368 . S
H515 C523 0.950 . S
H516 C521 0.950 . S
H517 C522 0.949 . S
H518 C524 0.950 . S
H519 C525 0.950 . S
H520 C526 0.949 . S
C521 H516 0.950 . S
C521 C523 1.327 . S
C521 C527 1.429 . S
C522 C514 1.574 . S
C522 H517 0.949 . S
C522 C528 1.368 . S
C523 C507 1.349 . S
C523 H515 0.950 . S
C523 C521 1.327 . S
C524 C512 1.349 . S
C524 H518 0.950 . S
C524 C525 1.327 . S
C525 H519 0.950 . S
C525 C524 1.327 . S
C525 C529 1.429 . S
C526 C509 1.574 . S
C526 H520 0.949 . S
C526 C530 1.368 . S
C527 C508 1.429 . S
C527 C521 1.429 . S
C527 C528 1.523 . S
C528 C509 1.368 . S
C528 C522 1.368 . S
C528 C527 1.523 . S
C529 C513 1.429 . S
C529 C525 1.429 . S
C529 C530 1.523 . S
C530 C514 1.368 . S
C530 C526 1.368 . S
C530 C529 1.523 . S
H531 C506 0.950 . S
H532 C508 0.950 . S
H533 C509 0.949 . S
H534 C511 0.950 . S
H535 C513 0.950 . S
C536 C537 1.349 . S
C536 C538 1.327 . S
C536 H561 0.950 . S
C537 C536 1.349 . S
C537 C553 1.349 . S
C538 C536 1.327 . S
C538 C557 1.429 . S
C538 H562 0.950 1_565 S
C539 C556 1.574 . S
C539 C558 1.368 . S
C539 H563 0.949 . S
H540 C544 0.949 . S
C541 C542 1.349 . S
C541 C543 1.327 . S
C541 H564 0.950 . S
C542 C541 1.349 . S
C542 C554 1.349 . S
C543 C541 1.327 . S
C543 C559 1.429 . S
C543 H565 0.950 . S
C544 H540 0.949 . S
C544 C552 1.574 . S
C544 C560 1.368 . S
H545 C553 0.950 . S
H546 C551 0.950 . S
H547 C552 0.949 . S
H548 C554 0.950 . S
H549 C555 0.950 . S
H550 C556 0.949 . S
C551 H546 0.950 . S
C551 C553 1.327 . S
C551 C557 1.429 . S
C552 C544 1.574 . S
C552 H547 0.949 . S
C552 C558 1.368 1_545 S
C553 C537 1.349 . S
C553 H545 0.950 . S
C553 C551 1.327 . S
C554 C542 1.349 . S
C554 H548 0.950 . S
C554 C555 1.327 . S
C555 H549 0.950 . S
C555 C554 1.327 . S
C555 C559 1.429 . S
C556 C539 1.574 . S
C556 H550 0.949 . S
C556 C560 1.368 1_565 S
C557 C538 1.429 . S
C557 C551 1.429 . S
C557 C558 1.523 . S
C558 C539 1.368 . S
C558 C552 1.368 1_565 S
C558 C557 1.523 . S
C559 C543 1.429 . S
C559 C555 1.429 . S
C559 C560 1.523 . S
C560 C544 1.368 . S
C560 C556 1.368 1_545 S
C560 C559 1.523 . S
H561 C536 0.950 . S
H562 C538 0.950 1_545 S
H563 C539 0.949 . S
H564 C541 0.950 . S
H565 C543 0.950 . S
C566 C567 1.349 . S
C566 C568 1.327 . S
C566 H591 0.950 . S
C567 C566 1.349 . S
C567 C583 1.349 . S
C568 C566 1.327 . S
C568 C587 1.429 . S
C568 H592 0.950 . S
C569 C586 1.574 . S
C569 C588 1.368 . S
C569 H593 0.949 . S
H570 C574 0.951 . S
C571 C572 1.349 . S
C571 C573 1.327 . S
C571 H594 0.950 . S
C572 C571 1.349 . S
C572 C584 1.349 . S
C573 C571 1.327 . S
C573 C589 1.429 . S
C573 H595 0.950 . S
C574 H570 0.951 . S
C574 C582 1.574 1_565 S
C574 C590 1.368 . S
H575 C583 0.950 . S
H576 C581 0.950 1_565 S
H577 C582 0.949 . S
H578 C584 0.950 . S
H579 C585 0.950 . S
H580 C586 0.949 . S
C581 H576 0.950 1_545 S
C581 C583 1.327 . S
C581 C587 1.429 . S
C582 C574 1.574 1_545 S
C582 H577 0.949 . S
C582 C588 1.368 1_545 S
C583 C567 1.349 . S
C583 H575 0.950 . S
C583 C581 1.327 . S
C584 C572 1.349 . S
C584 H578 0.950 . S
C584 C585 1.327 . S
C585 H579 0.950 . S
C585 C584 1.327 . S
C585 C589 1.429 . S
C586 C569 1.574 . S
C586 H580 0.949 . S
C586 C590 1.368 . S
C587 C568 1.429 . S
C587 C581 1.429 . S
C587 C588 1.523 1_545 S
C588 C569 1.368 . S
C588 C582 1.368 1_565 S
C588 C587 1.523 1_565 S
C589 C573 1.429 . S
C589 C585 1.429 . S
C589 C590 1.523 . S
C590 C574 1.368 . S
C590 C586 1.368 . S
C590 C589 1.523 . S
H591 C566 0.950 . S
H592 C568 0.950 . S
H593 C569 0.949 . S
H594 C571 0.950 . S
H595 C573 0.950 . S
C596 C597 1.349 . S
C596 C598 1.327 . S
C596 H621 0.950 . S
C597 C596 1.349 . S
C597 C613 1.349 . S
C598 C596 1.327 . S
C598 C617 1.429 . S
C598 H622 0.950 . S
C599 C616 1.574 . S
C599 C618 1.368 1_545 S
C599 H623 0.949 . S
H600 C604 0.949 . S
C601 C602 1.349 . S
C601 C603 1.327 . S
C601 H624 0.950 . S
C602 C601 1.349 . S
C602 C614 1.349 . S
C603 C601 1.327 . S
C603 C619 1.429 . S
C603 H625 0.950 . S
C604 H600 0.949 . S
C604 C612 1.574 . S
C604 C620 1.368 1_565 S
H605 C613 0.950 . S
H606 C611 0.950 1_545 S
H607 C612 0.949 . S
H608 C614 0.950 . S
H609 C615 0.950 . S
H610 C616 0.949 . S
C611 H606 0.950 1_565 S
C611 C613 1.327 . S
C611 C617 1.429 . S
C612 C604 1.574 . S
C612 H607 0.949 . S
C612 C618 1.368 . S
C613 C597 1.349 . S
C613 H605 0.950 . S
C613 C611 1.327 . S
C614 C602 1.349 . S
C614 H608 0.950 . S
C614 C615 1.327 . S
C615 H609 0.950 . S
C615 C614 1.327 . S
C615 C619 1.429 . S
C616 C599 1.574 . S
C616 H610 0.949 . S
C616 C620 1.368 . S
C617 C598 1.429 . S
C617 C611 1.429 . S
C617 C618 1.523 . S
C618 C599 1.368 1_565 S
C618 C612 1.368 . S
C618 C617 1.523 . S
C619 C603 1.429 . S
C619 C615 1.429 . S
C619 C620 1.523 . S
C620 C604 1.368 1_545 S
C620 C616 1.368 . S
C620 C619 1.523 . S
H621 C596 0.950 . S
H622 C598 0.950 . S
H623 C599 0.949 . S
H624 C601 0.950 . S
H625 C603 0.950 . S
C626 C627 1.349 . S
C626 C628 1.327 . S
C626 H651 0.950 . S
C627 C626 1.349 . S
C627 C643 1.349 . S
C628 C626 1.327 . S
C628 C647 1.429 . S
C628 H652 0.950 . S
C629 C646 1.574 . S
C629 C648 1.368 . S
C629 H653 0.949 . S
H630 C634 0.949 . S
C631 C632 1.349 . S
C631 C633 1.327 . S
C631 H654 0.950 . S
C632 C631 1.349 . S
C632 C644 1.349 . S
C633 C631 1.327 . S
C633 C649 1.429 . S
C633 H655 0.950 . S
C634 H630 0.949 . S
C634 C642 1.574 . S
C634 C650 1.368 . S
H635 C643 0.950 . S
H636 C641 0.950 . S
H637 C642 0.949 . S
H638 C644 0.950 . S
H639 C645 0.950 . S
H640 C646 0.949 . S
C641 H636 0.950 . S
C641 C643 1.327 . S
C641 C647 1.429 . S
C642 C634 1.574 . S
C642 H637 0.949 . S
C642 C648 1.368 1_565 S
C643 C627 1.349 . S
C643 H635 0.950 . S
C643 C641 1.327 . S
C644 C632 1.349 . S
C644 H638 0.950 . S
C644 C645 1.327 . S
C645 H639 0.950 . S
C645 C644 1.327 . S
C645 C649 1.429 . S
C646 C629 1.574 . S
C646 H640 0.949 . S
C646 C650 1.368 1_545 S
C647 C628 1.429 . S
C647 C641 1.429 . S
C647 C648 1.523 . S
C648 C629 1.368 . S
C648 C642 1.368 1_545 S
C648 C647 1.523 . S
C649 C633 1.429 . S
C649 C645 1.429 . S
C649 C650 1.523 . S
C650 C634 1.368 . S
C650 C646 1.368 1_565 S
C650 C649 1.523 . S
H651 C626 0.950 . S
H652 C628 0.950 . S
H653 C629 0.949 . S
H654 C631 0.950 . S
H655 C633 0.950 . S
C656 C657 1.349 . S
C656 C658 1.327 . S
C656 H681 0.950 . S
C657 C656 1.349 . S
C657 C673 1.349 . S
C658 C656 1.327 . S
C658 C677 1.429 . S
C658 H682 0.950 . S
C659 C676 1.574 . S
C659 C678 1.368 . S
C659 H683 0.949 . S
H660 C664 0.949 . S
C661 C662 1.349 . S
C661 C663 1.327 . S
C661 H684 0.950 . S
C662 C661 1.349 . S
C662 C674 1.349 . S
C663 C661 1.327 . S
C663 C679 1.429 . S
C663 H685 0.950 . S
C664 H660 0.949 . S
C664 C672 1.574 . S
C664 C680 1.368 . S
H665 C673 0.950 . S
H666 C671 0.950 . S
H667 C672 0.949 . S
H668 C674 0.950 . S
H669 C675 0.950 . S
H670 C676 0.949 . S
C671 H666 0.950 . S
C671 C673 1.327 . S
C671 C677 1.429 . S
C672 C664 1.574 . S
C672 H667 0.949 . S
C672 C678 1.368 . S
C673 C657 1.349 . S
C673 H665 0.950 . S
C673 C671 1.327 . S
C674 C662 1.349 . S
C674 H668 0.950 . S
C674 C675 1.327 . S
C675 H669 0.950 . S
C675 C674 1.327 . S
C675 C679 1.429 . S
C676 C659 1.574 . S
C676 H670 0.949 . S
C676 C680 1.368 . S
C677 C658 1.429 . S
C677 C671 1.429 . S
C677 C678 1.523 . S
C678 C659 1.368 . S
C678 C672 1.368 . S
C678 C677 1.523 . S
C679 C663 1.429 . S
C679 C675 1.429 . S
C679 C680 1.523 . S
C680 C664 1.368 . S
C680 C676 1.368 . S
C680 C679 1.523 . S
H681 C656 0.950 . S
H682 C658 0.950 . S
H683 C659 0.949 . S
H684 C661 0.950 . S
H685 C663 0.950 . S
C686 C687 1.349 . S
C686 C688 1.327 . S
C686 H711 0.950 . S
C687 C686 1.349 . S
C687 C703 1.349 . S
C688 C686 1.327 . S
C688 C707 1.429 . S
C688 H712 0.950 . S
C689 C706 1.574 . S
C689 C708 1.368 . S
C689 H713 0.949 . S
H690 C694 0.949 . S
C691 C692 1.349 . S
C691 C693 1.327 . S
C691 H714 0.950 . S
C692 C691 1.349 . S
C692 C704 1.349 . S
C693 C691 1.327 . S
C693 C709 1.429 . S
C693 H715 0.950 . S
C694 H690 0.949 . S
C694 C702 1.574 . S
C694 C710 1.368 . S
H695 C703 0.950 . S
H696 C701 0.950 . S
H697 C702 0.949 . S
H698 C704 0.950 . S
H699 C705 0.950 . S
H700 C706 0.949 . S
C701 H696 0.950 . S
C701 C703 1.327 . S
C701 C707 1.429 . S
C702 C694 1.574 . S
C702 H697 0.949 . S
C702 C708 1.368 . S
C703 C687 1.349 . S
C703 H695 0.950 . S
C703 C701 1.327 . S
C704 C692 1.349 . S
C704 H698 0.950 . S
C704 C705 1.327 . S
C705 H699 0.950 . S
C705 C704 1.327 . S
C705 C709 1.429 . S
C706 C689 1.574 . S
C706 H700 0.949 . S
C706 C710 1.368 . S
C707 C688 1.429 . S
C707 C701 1.429 . S
C707 C708 1.523 . S
C708 C689 1.368 . S
C708 C702 1.368 . S
C708 C707 1.523 . S
C709 C693 1.429 . S
C709 C705 1.429 . S
C709 C710 1.523 . S
C710 C694 1.368 . S
C710 C706 1.368 . S
C710 C709 1.523 . S
H711 C686 0.950 . S
H712 C688 0.950 . S
H713 C689 0.949 . S
H714 C691 0.950 . S
H715 C693 0.950 . S
C716 C717 1.349 . S
C716 C718 1.327 . S
C716 H741 0.950 . S
C717 C716 1.349 . S
C717 C733 1.349 . S
C718 C716 1.327 . S
C718 C737 1.429 . S
C718 H742 0.950 . S
C719 C736 1.574 . S
C719 C738 1.368 . S
C719 H743 0.949 . S
H720 C724 0.949 . S
C721 C722 1.349 . S
C721 C723 1.327 . S
C721 H744 0.950 . S
C722 C721 1.349 . S
C722 C734 1.349 . S
C723 C721 1.327 . S
C723 C739 1.429 . S
C723 H745 0.950 . S
C724 H720 0.949 . S
C724 C732 1.574 . S
C724 C740 1.368 . S
H725 C733 0.950 . S
H726 C731 0.950 . S
H727 C732 0.949 . S
H728 C734 0.950 . S
H729 C735 0.950 . S
H730 C736 0.949 . S
C731 H726 0.950 . S
C731 C733 1.327 . S
C731 C737 1.429 . S
C732 C724 1.574 . S
C732 H727 0.949 . S
C732 C738 1.368 . S
C733 C717 1.349 . S
C733 H725 0.950 . S
C733 C731 1.327 . S
C734 C722 1.349 . S
C734 H728 0.950 . S
C734 C735 1.327 . S
C735 H729 0.950 . S
C735 C734 1.327 . S
C735 C739 1.429 . S
C736 C719 1.574 . S
C736 H730 0.949 . S
C736 C740 1.368 . S
C737 C718 1.429 . S
C737 C731 1.429 . S
C737 C738 1.523 . S
C738 C719 1.368 . S
C738 C732 1.368 . S
C738 C737 1.523 . S
C739 C723 1.429 . S
C739 C735 1.429 . S
C739 C740 1.523 . S
C740 C724 1.368 . S
C740 C736 1.368 . S
C740 C739 1.523 . S
H741 C716 0.950 . S
H742 C718 0.950 . S
H743 C719 0.949 . S
H744 C721 0.950 . S
H745 C723 0.950 . S
C746 C747 1.349 . S
C746 C748 1.327 . S
C746 H771 0.950 . S
C747 C746 1.349 . S
C747 C763 1.349 . S
C748 C746 1.327 . S
C748 C767 1.429 . S
C748 H772 0.950 . S
C749 C766 1.574 . S
C749 C768 1.368 . S
C749 H773 0.949 . S
H750 C754 0.949 . S
C751 C752 1.349 . S
C751 C753 1.327 . S
C751 H774 0.950 . S
C752 C751 1.349 . S
C752 C764 1.349 . S
C753 C751 1.327 . S
C753 C769 1.429 . S
C753 H775 0.950 . S
C754 H750 0.949 . S
C754 C762 1.574 . S
C754 C770 1.368 . S
H755 C763 0.950 . S
H756 C761 0.950 . S
H757 C762 0.949 . S
H758 C764 0.950 . S
H759 C765 0.950 . S
H760 C766 0.949 . S
C761 H756 0.950 . S
C761 C763 1.327 . S
C761 C767 1.429 . S
C762 C754 1.574 . S
C762 H757 0.949 . S
C762 C768 1.368 . S
C763 C747 1.349 . S
C763 H755 0.950 . S
C763 C761 1.327 . S
C764 C752 1.349 . S
C764 H758 0.950 . S
C764 C765 1.327 . S
C765 H759 0.950 . S
C765 C764 1.327 . S
C765 C769 1.429 . S
C766 C749 1.574 . S
C766 H760 0.949 . S
C766 C770 1.368 . S
C767 C748 1.429 . S
C767 C761 1.429 . S
C767 C768 1.523 . S
C768 C749 1.368 . S
C768 C762 1.368 . S
C768 C767 1.523 . S
C769 C753 1.429 . S
C769 C765 1.429 . S
C769 C770 1.523 . S
C770 C754 1.368 . S
C770 C766 1.368 . S
C770 C769 1.523 . S
H771 C746 0.950 . S
H772 C748 0.950 . S
H773 C749 0.949 . S
H774 C751 0.950 . S
H775 C753 0.950 . S
C776 C777 1.349 . S
C776 C778 1.327 . S
C776 H801 0.950 . S
C777 C776 1.349 . S
C777 C793 1.349 . S
C778 C776 1.327 . S
C778 C797 1.429 . S
C778 H802 0.950 . S
C779 C796 1.574 . S
C779 C798 1.368 . S
C779 H803 0.949 . S
H780 C784 0.949 . S
C781 C782 1.349 . S
C781 C783 1.327 . S
C781 H804 0.950 . S
C782 C781 1.349 . S
C782 C794 1.349 . S
C783 C781 1.327 . S
C783 C799 1.429 . S
C783 H805 0.950 . S
C784 H780 0.949 . S
C784 C792 1.574 . S
C784 C800 1.368 . S
H785 C793 0.950 . S
H786 C791 0.950 . S
H787 C792 0.949 . S
H788 C794 0.950 . S
H789 C795 0.950 . S
H790 C796 0.949 . S
C791 H786 0.950 . S
C791 C793 1.327 . S
C791 C797 1.429 . S
C792 C784 1.574 . S
C792 H787 0.949 . S
C792 C798 1.368 . S
C793 C777 1.349 . S
C793 H785 0.950 . S
C793 C791 1.327 . S
C794 C782 1.349 . S
C794 H788 0.950 . S
C794 C795 1.327 . S
C795 H789 0.950 . S
C795 C794 1.327 . S
C795 C799 1.429 . S
C796 C779 1.574 . S
C796 H790 0.949 . S
C796 C800 1.368 . S
C797 C778 1.429 . S
C797 C791 1.429 . S
C797 C798 1.523 . S
C798 C779 1.368 . S
C798 C792 1.368 . S
C798 C797 1.523 . S
C799 C783 1.429 . S
C799 C795 1.429 . S
C799 C800 1.523 . S
C800 C784 1.368 . S
C800 C796 1.368 . S
C800 C799 1.523 . S
H801 C776 0.950 . S
H802 C778 0.950 . S
H803 C779 0.949 . S
H804 C781 0.950 . S
H805 C783 0.950 . S
C806 C807 1.349 . S
C806 C808 1.327 . S
C806 H831 0.950 . S
C807 C806 1.349 . S
C807 C823 1.349 . S
C808 C806 1.327 . S
C808 C827 1.429 . S
C808 H832 0.950 . S
C809 C826 1.574 . S
C809 C828 1.368 . S
C809 H833 0.949 . S
H810 C814 0.949 . S
C811 C812 1.349 . S
C811 C813 1.327 . S
C811 H834 0.950 . S
C812 C811 1.349 . S
C812 C824 1.349 . S
C813 C811 1.327 . S
C813 C829 1.429 . S
C813 H835 0.950 . S
C814 H810 0.949 . S
C814 C822 1.574 . S
C814 C830 1.368 . S
H815 C823 0.950 . S
H816 C821 0.950 . S
H817 C822 0.949 . S
H818 C824 0.950 . S
H819 C825 0.950 . S
H820 C826 0.949 . S
C821 H816 0.950 . S
C821 C823 1.327 . S
C821 C827 1.429 . S
C822 C814 1.574 . S
C822 H817 0.949 . S
C822 C828 1.368 . S
C823 C807 1.349 . S
C823 H815 0.950 . S
C823 C821 1.327 . S
C824 C812 1.349 . S
C824 H818 0.950 . S
C824 C825 1.327 . S
C825 H819 0.950 . S
C825 C824 1.327 . S
C825 C829 1.429 . S
C826 C809 1.574 . S
C826 H820 0.949 . S
C826 C830 1.368 . S
C827 C808 1.429 . S
C827 C821 1.429 . S
C827 C828 1.523 . S
C828 C809 1.368 . S
C828 C822 1.368 . S
C828 C827 1.523 . S
C829 C813 1.429 . S
C829 C825 1.429 . S
C829 C830 1.523 . S
C830 C814 1.368 . S
C830 C826 1.368 . S
C830 C829 1.523 . S
H831 C806 0.950 . S
H832 C808 0.950 . S
H833 C809 0.949 . S
H834 C811 0.950 . S
H835 C813 0.950 . S
C836 C837 1.349 . S
C836 C838 1.327 . S
C836 H861 0.950 . S
C837 C836 1.349 . S
C837 C853 1.349 . S
C838 C836 1.327 . S
C838 C857 1.429 . S
C838 H862 0.950 . S
C839 C856 1.574 . S
C839 C858 1.368 . S
C839 H863 0.949 . S
H840 C844 0.949 . S
C841 C842 1.349 . S
C841 C843 1.327 . S
C841 H864 0.950 . S
C842 C841 1.349 . S
C842 C854 1.349 . S
C843 C841 1.327 . S
C843 C859 1.429 . S
C843 H865 0.950 . S
C844 H840 0.949 . S
C844 C852 1.574 . S
C844 C860 1.368 . S
H845 C853 0.950 . S
H846 C851 0.950 . S
H847 C852 0.949 . S
H848 C854 0.950 . S
H849 C855 0.950 . S
H850 C856 0.949 . S
C851 H846 0.950 . S
C851 C853 1.327 . S
C851 C857 1.429 . S
C852 C844 1.574 . S
C852 H847 0.949 . S
C852 C858 1.368 . S
C853 C837 1.349 . S
C853 H845 0.950 . S
C853 C851 1.327 . S
C854 C842 1.349 . S
C854 H848 0.950 . S
C854 C855 1.327 . S
C855 H849 0.950 . S
C855 C854 1.327 . S
C855 C859 1.429 . S
C856 C839 1.574 . S
C856 H850 0.949 . S
C856 C860 1.368 . S
C857 C838 1.429 . S
C857 C851 1.429 . S
C857 C858 1.523 . S
C858 C839 1.368 . S
C858 C852 1.368 . S
C858 C857 1.523 . S
C859 C843 1.429 . S
C859 C855 1.429 . S
C859 C860 1.523 . S
C860 C844 1.368 . S
C860 C856 1.368 . S
C860 C859 1.523 . S
H861 C836 0.950 . S
H862 C838 0.950 . S
H863 C839 0.949 . S
H864 C841 0.950 . S
H865 C843 0.950 . S
C866 C867 1.349 . S
C866 C868 1.327 . S
C866 H891 0.950 . S
C867 C866 1.349 . S
C867 C883 1.349 . S
C868 C866 1.327 . S
C868 C887 1.429 . S
C868 H892 0.950 . S
C869 C886 1.574 . S
C869 C888 1.368 . S
C869 H893 0.949 . S
H870 C874 0.949 . S
C871 C872 1.349 . S
C871 C873 1.327 . S
C871 H894 0.950 . S
C872 C871 1.349 . S
C872 C884 1.349 . S
C873 C871 1.327 . S
C873 C889 1.429 . S
C873 H895 0.950 . S
C874 H870 0.949 . S
C874 C882 1.574 . S
C874 C890 1.368 . S
H875 C883 0.950 . S
H876 C881 0.950 . S
H877 C882 0.949 . S
H878 C884 0.950 . S
H879 C885 0.950 . S
H880 C886 0.949 . S
C881 H876 0.950 . S
C881 C883 1.327 . S
C881 C887 1.429 . S
C882 C874 1.574 . S
C882 H877 0.949 . S
C882 C888 1.368 . S
C883 C867 1.349 . S
C883 H875 0.950 . S
C883 C881 1.327 . S
C884 C872 1.349 . S
C884 H878 0.950 . S
C884 C885 1.327 . S
C885 H879 0.950 . S
C885 C884 1.327 . S
C885 C889 1.429 . S
C886 C869 1.574 . S
C886 H880 0.949 . S
C886 C890 1.368 . S
C887 C868 1.429 . S
C887 C881 1.429 . S
C887 C888 1.523 . S
C888 C869 1.368 . S
C888 C882 1.368 . S
C888 C887 1.523 . S
C889 C873 1.429 . S
C889 C885 1.429 . S
C889 C890 1.523 . S
C890 C874 1.368 . S
C890 C886 1.368 . S
C890 C889 1.523 . S
H891 C866 0.950 . S
H892 C868 0.950 . S
H893 C869 0.949 . S
H894 C871 0.950 . S
H895 C873 0.950 . S
C177 C8 1.718 . S
C182 C114 1.719 . S
C212 C92 1.381 . S
C207 C19 1.407 . S
C242 C118 1.517 . S
C237 C30 1.544 . S
C272 C96 1.525 . S
C267 C41 1.549 . S
C302 C158 1.719 . S
C297 C52 1.718 . S
C332 C136 1.381 . S
C327 C63 1.407 . S
C357 C74 1.544 . S
C362 C162 1.517 . S
C392 C140 1.525 . S
C387 C85 1.549 . S
C417 C7 1.670 . S
C422 C163 1.715 . S
C452 C141 1.294 . S
C447 C16 1.190 . S
C477 C29 1.571 . S
C482 C160 1.561 . S
C507 C40 1.504 . S
C512 C138 1.491 . S
C542 C119 1.715 . S
C537 C51 1.670 . S
C567 C60 1.189 . S
C572 C97 1.294 . S
C602 C116 1.561 . S
C597 C73 1.571 . S
C632 C94 1.492 . S
C627 C84 1.504 . S
C662 C137 1.459 . S
C657 C5 1.214 . S
C692 C159 1.439 . S
C687 C18 1.451 . S
C717 C27 1.344 . S
C722 C139 1.462 . S
C752 C161 1.435 . S
C747 C38 1.315 . S
C782 C93 1.458 . S
C777 C49 1.214 . S
C807 C62 1.451 . S
C812 C115 1.438 . S
C837 C71 1.345 . S
C842 C95 1.462 . S
C867 C82 1.316 . S
C872 C117 1.435 . S
