# Generated by pormake.
# Topology gar, (4,6)-cn, num edge types: 1
# Building blocks:
#     Node 0, Type 0, BuildingBlock: AZAVOO_clean_sbu_0, # of connection points: 4
#     Node 1, Type 0, BuildingBlock: AZAVOO_clean_sbu_0, # of connection points: 4
#     Node 2, Type 0, BuildingBlock: AZAVOO_clean_sbu_0, # of connection points: 4
#     Node 3, Type 0, BuildingBlock: AZAVOO_clean_sbu_0, # of connection points: 4
#     Node 4, Type 0, BuildingBlock: AZAVOO_clean_sbu_0, # of connection points: 4
#     Node 5, Type 0, BuildingBlock: AZAVOO_clean_sbu_0, # of connection points: 4
#     Node 6, Type 0, BuildingBlock: AZAVOO_clean_sbu_0, # of connection points: 4
#     Node 7, Type 0, BuildingBlock: AZAVOO_clean_sbu_0, # of connection points: 4
#     Node 8, Type 0, BuildingBlock: AZAVOO_clean_sbu_0, # of connection points: 4
#     Node 9, Type 0, BuildingBlock: AZAVOO_clean_sbu_0, # of connection points: 4
#     Node 10, Type 0, BuildingBlock: AZAVOO_clean_sbu_0, # of connection points: 4
#     Node 11, Type 0, BuildingBlock: AZAVOO_clean_sbu_0, # of connection points: 4
#     Node 12, Type 0, BuildingBlock: AZAVOO_clean_sbu_0, # of connection points: 4
#     Node 13, Type 0, BuildingBlock: AZAVOO_clean_sbu_0, # of connection points: 4
#     Node 14, Type 0, BuildingBlock: AZAVOO_clean_sbu_0, # of connection points: 4
#     Node 15, Type 0, BuildingBlock: AZAVOO_clean_sbu_0, # of connection points: 4
#     Node 16, Type 0, BuildingBlock: AZAVOO_clean_sbu_0, # of connection points: 4
#     Node 17, Type 0, BuildingBlock: AZAVOO_clean_sbu_0, # of connection points: 4
#     Node 18, Type 0, BuildingBlock: AZAVOO_clean_sbu_0, # of connection points: 4
#     Node 19, Type 0, BuildingBlock: AZAVOO_clean_sbu_0, # of connection points: 4
#     Node 20, Type 0, BuildingBlock: AZAVOO_clean_sbu_0, # of connection points: 4
#     Node 21, Type 0, BuildingBlock: AZAVOO_clean_sbu_0, # of connection points: 4
#     Node 22, Type 0, BuildingBlock: AZAVOO_clean_sbu_0, # of connection points: 4
#     Node 23, Type 0, BuildingBlock: AZAVOO_clean_sbu_0, # of connection points: 4
#     Node 24, Type 1, BuildingBlock: PAMTUU_clean_sbu_0, # of connection points: 6
#     Node 25, Type 1, BuildingBlock: PAMTUU_clean_sbu_0, # of connection points: 6
#     Node 26, Type 1, BuildingBlock: PAMTUU_clean_sbu_0, # of connection points: 6
#     Node 27, Type 1, BuildingBlock: PAMTUU_clean_sbu_0, # of connection points: 6
#     Node 28, Type 1, BuildingBlock: PAMTUU_clean_sbu_0, # of connection points: 6
#     Node 29, Type 1, BuildingBlock: PAMTUU_clean_sbu_0, # of connection points: 6
#     Node 30, Type 1, BuildingBlock: PAMTUU_clean_sbu_0, # of connection points: 6
#     Node 31, Type 1, BuildingBlock: PAMTUU_clean_sbu_0, # of connection points: 6
#     Node 32, Type 1, BuildingBlock: PAMTUU_clean_sbu_0, # of connection points: 6
#     Node 33, Type 1, BuildingBlock: PAMTUU_clean_sbu_0, # of connection points: 6
#     Node 34, Type 1, BuildingBlock: PAMTUU_clean_sbu_0, # of connection points: 6
#     Node 35, Type 1, BuildingBlock: PAMTUU_clean_sbu_0, # of connection points: 6
#     Node 36, Type 1, BuildingBlock: PAMTUU_clean_sbu_0, # of connection points: 6
#     Node 37, Type 1, BuildingBlock: PAMTUU_clean_sbu_0, # of connection points: 6
#     Node 38, Type 1, BuildingBlock: PAMTUU_clean_sbu_0, # of connection points: 6
#     Node 39, Type 1, BuildingBlock: PAMTUU_clean_sbu_0, # of connection points: 6
#     Edge 40, Type (0, 1), BuildingBlock: MIFKUJ_clean_linker_0, # of connection points: 2
#     Edge 41, Type (0, 1), BuildingBlock: MIFKUJ_clean_linker_0, # of connection points: 2
#     Edge 42, Type (0, 1), BuildingBlock: MIFKUJ_clean_linker_0, # of connection points: 2
#     Edge 43, Type (0, 1), BuildingBlock: MIFKUJ_clean_linker_0, # of connection points: 2
#     Edge 44, Type (0, 1), BuildingBlock: MIFKUJ_clean_linker_0, # of connection points: 2
#     Edge 45, Type (0, 1), BuildingBlock: MIFKUJ_clean_linker_0, # of connection points: 2
#     Edge 46, Type (0, 1), BuildingBlock: MIFKUJ_clean_linker_0, # of connection points: 2
#     Edge 47, Type (0, 1), BuildingBlock: MIFKUJ_clean_linker_0, # of connection points: 2
#     Edge 48, Type (0, 1), BuildingBlock: MIFKUJ_clean_linker_0, # of connection points: 2
#     Edge 49, Type (0, 1), BuildingBlock: MIFKUJ_clean_linker_0, # of connection points: 2
#     Edge 50, Type (0, 1), BuildingBlock: MIFKUJ_clean_linker_0, # of connection points: 2
#     Edge 51, Type (0, 1), BuildingBlock: MIFKUJ_clean_linker_0, # of connection points: 2
#     Edge 52, Type (0, 1), BuildingBlock: MIFKUJ_clean_linker_0, # of connection points: 2
#     Edge 53, Type (0, 1), BuildingBlock: MIFKUJ_clean_linker_0, # of connection points: 2
#     Edge 54, Type (0, 1), BuildingBlock: MIFKUJ_clean_linker_0, # of connection points: 2
#     Edge 55, Type (0, 1), BuildingBlock: MIFKUJ_clean_linker_0, # of connection points: 2
#     Edge 56, Type (0, 1), BuildingBlock: MIFKUJ_clean_linker_0, # of connection points: 2
#     Edge 57, Type (0, 1), BuildingBlock: MIFKUJ_clean_linker_0, # of connection points: 2
#     Edge 58, Type (0, 1), BuildingBlock: MIFKUJ_clean_linker_0, # of connection points: 2
#     Edge 59, Type (0, 1), BuildingBlock: MIFKUJ_clean_linker_0, # of connection points: 2
#     Edge 60, Type (0, 1), BuildingBlock: MIFKUJ_clean_linker_0, # of connection points: 2
#     Edge 61, Type (0, 1), BuildingBlock: MIFKUJ_clean_linker_0, # of connection points: 2
#     Edge 62, Type (0, 1), BuildingBlock: MIFKUJ_clean_linker_0, # of connection points: 2
#     Edge 63, Type (0, 1), BuildingBlock: MIFKUJ_clean_linker_0, # of connection points: 2
#     Edge 64, Type (0, 1), BuildingBlock: MIFKUJ_clean_linker_0, # of connection points: 2
#     Edge 65, Type (0, 1), BuildingBlock: MIFKUJ_clean_linker_0, # of connection points: 2
#     Edge 66, Type (0, 1), BuildingBlock: MIFKUJ_clean_linker_0, # of connection points: 2
#     Edge 67, Type (0, 1), BuildingBlock: MIFKUJ_clean_linker_0, # of connection points: 2
#     Edge 68, Type (0, 1), BuildingBlock: MIFKUJ_clean_linker_0, # of connection points: 2
#     Edge 69, Type (0, 1), BuildingBlock: MIFKUJ_clean_linker_0, # of connection points: 2
#     Edge 70, Type (0, 1), BuildingBlock: MIFKUJ_clean_linker_0, # of connection points: 2
#     Edge 71, Type (0, 1), BuildingBlock: MIFKUJ_clean_linker_0, # of connection points: 2
#     Edge 72, Type (0, 1), BuildingBlock: MIFKUJ_clean_linker_0, # of connection points: 2
#     Edge 73, Type (0, 1), BuildingBlock: MIFKUJ_clean_linker_0, # of connection points: 2
#     Edge 74, Type (0, 1), BuildingBlock: MIFKUJ_clean_linker_0, # of connection points: 2
#     Edge 75, Type (0, 1), BuildingBlock: MIFKUJ_clean_linker_0, # of connection points: 2
#     Edge 76, Type (0, 1), BuildingBlock: MIFKUJ_clean_linker_0, # of connection points: 2
#     Edge 77, Type (0, 1), BuildingBlock: MIFKUJ_clean_linker_0, # of connection points: 2
#     Edge 78, Type (0, 1), BuildingBlock: MIFKUJ_clean_linker_0, # of connection points: 2
#     Edge 79, Type (0, 1), BuildingBlock: MIFKUJ_clean_linker_0, # of connection points: 2
#     Edge 80, Type (0, 1), BuildingBlock: MIFKUJ_clean_linker_0, # of connection points: 2
#     Edge 81, Type (0, 1), BuildingBlock: MIFKUJ_clean_linker_0, # of connection points: 2
#     Edge 82, Type (0, 1), BuildingBlock: MIFKUJ_clean_linker_0, # of connection points: 2
#     Edge 83, Type (0, 1), BuildingBlock: MIFKUJ_clean_linker_0, # of connection points: 2
#     Edge 84, Type (0, 1), BuildingBlock: MIFKUJ_clean_linker_0, # of connection points: 2
#     Edge 85, Type (0, 1), BuildingBlock: MIFKUJ_clean_linker_0, # of connection points: 2
#     Edge 86, Type (0, 1), BuildingBlock: MIFKUJ_clean_linker_0, # of connection points: 2
#     Edge 87, Type (0, 1), BuildingBlock: MIFKUJ_clean_linker_0, # of connection points: 2
#     Edge 88, Type (0, 1), BuildingBlock: MIFKUJ_clean_linker_0, # of connection points: 2
#     Edge 89, Type (0, 1), BuildingBlock: MIFKUJ_clean_linker_0, # of connection points: 2
#     Edge 90, Type (0, 1), BuildingBlock: MIFKUJ_clean_linker_0, # of connection points: 2
#     Edge 91, Type (0, 1), BuildingBlock: MIFKUJ_clean_linker_0, # of connection points: 2
#     Edge 92, Type (0, 1), BuildingBlock: MIFKUJ_clean_linker_0, # of connection points: 2
#     Edge 93, Type (0, 1), BuildingBlock: MIFKUJ_clean_linker_0, # of connection points: 2
#     Edge 94, Type (0, 1), BuildingBlock: MIFKUJ_clean_linker_0, # of connection points: 2
#     Edge 95, Type (0, 1), BuildingBlock: MIFKUJ_clean_linker_0, # of connection points: 2
#     Edge 96, Type (0, 1), BuildingBlock: MIFKUJ_clean_linker_0, # of connection points: 2
#     Edge 97, Type (0, 1), BuildingBlock: MIFKUJ_clean_linker_0, # of connection points: 2
#     Edge 98, Type (0, 1), BuildingBlock: MIFKUJ_clean_linker_0, # of connection points: 2
#     Edge 99, Type (0, 1), BuildingBlock: MIFKUJ_clean_linker_0, # of connection points: 2
#     Edge 100, Type (0, 1), BuildingBlock: MIFKUJ_clean_linker_0, # of connection points: 2
#     Edge 101, Type (0, 1), BuildingBlock: MIFKUJ_clean_linker_0, # of connection points: 2
#     Edge 102, Type (0, 1), BuildingBlock: MIFKUJ_clean_linker_0, # of connection points: 2
#     Edge 103, Type (0, 1), BuildingBlock: MIFKUJ_clean_linker_0, # of connection points: 2
#     Edge 104, Type (0, 1), BuildingBlock: MIFKUJ_clean_linker_0, # of connection points: 2
#     Edge 105, Type (0, 1), BuildingBlock: MIFKUJ_clean_linker_0, # of connection points: 2
#     Edge 106, Type (0, 1), BuildingBlock: MIFKUJ_clean_linker_0, # of connection points: 2
#     Edge 107, Type (0, 1), BuildingBlock: MIFKUJ_clean_linker_0, # of connection points: 2
#     Edge 108, Type (0, 1), BuildingBlock: MIFKUJ_clean_linker_0, # of connection points: 2
#     Edge 109, Type (0, 1), BuildingBlock: MIFKUJ_clean_linker_0, # of connection points: 2
#     Edge 110, Type (0, 1), BuildingBlock: MIFKUJ_clean_linker_0, # of connection points: 2
#     Edge 111, Type (0, 1), BuildingBlock: MIFKUJ_clean_linker_0, # of connection points: 2
#     Edge 112, Type (0, 1), BuildingBlock: MIFKUJ_clean_linker_0, # of connection points: 2
#     Edge 113, Type (0, 1), BuildingBlock: MIFKUJ_clean_linker_0, # of connection points: 2
#     Edge 114, Type (0, 1), BuildingBlock: MIFKUJ_clean_linker_0, # of connection points: 2
#     Edge 115, Type (0, 1), BuildingBlock: MIFKUJ_clean_linker_0, # of connection points: 2
#     Edge 116, Type (0, 1), BuildingBlock: MIFKUJ_clean_linker_0, # of connection points: 2
#     Edge 117, Type (0, 1), BuildingBlock: MIFKUJ_clean_linker_0, # of connection points: 2
#     Edge 118, Type (0, 1), BuildingBlock: MIFKUJ_clean_linker_0, # of connection points: 2
#     Edge 119, Type (0, 1), BuildingBlock: MIFKUJ_clean_linker_0, # of connection points: 2
#     Edge 120, Type (0, 1), BuildingBlock: MIFKUJ_clean_linker_0, # of connection points: 2
#     Edge 121, Type (0, 1), BuildingBlock: MIFKUJ_clean_linker_0, # of connection points: 2
#     Edge 122, Type (0, 1), BuildingBlock: MIFKUJ_clean_linker_0, # of connection points: 2
#     Edge 123, Type (0, 1), BuildingBlock: MIFKUJ_clean_linker_0, # of connection points: 2
#     Edge 124, Type (0, 1), BuildingBlock: MIFKUJ_clean_linker_0, # of connection points: 2
#     Edge 125, Type (0, 1), BuildingBlock: MIFKUJ_clean_linker_0, # of connection points: 2
#     Edge 126, Type (0, 1), BuildingBlock: MIFKUJ_clean_linker_0, # of connection points: 2
#     Edge 127, Type (0, 1), BuildingBlock: MIFKUJ_clean_linker_0, # of connection points: 2
#     Edge 128, Type (0, 1), BuildingBlock: MIFKUJ_clean_linker_0, # of connection points: 2
#     Edge 129, Type (0, 1), BuildingBlock: MIFKUJ_clean_linker_0, # of connection points: 2
#     Edge 130, Type (0, 1), BuildingBlock: MIFKUJ_clean_linker_0, # of connection points: 2
#     Edge 131, Type (0, 1), BuildingBlock: MIFKUJ_clean_linker_0, # of connection points: 2
#     Edge 132, Type (0, 1), BuildingBlock: MIFKUJ_clean_linker_0, # of connection points: 2
#     Edge 133, Type (0, 1), BuildingBlock: MIFKUJ_clean_linker_0, # of connection points: 2
#     Edge 134, Type (0, 1), BuildingBlock: MIFKUJ_clean_linker_0, # of connection points: 2
#     Edge 135, Type (0, 1), BuildingBlock: MIFKUJ_clean_linker_0, # of connection points: 2
# Relax obj value: 0.179
# Max RMSD: 0.315
# Mean RMSD: 0.197
data_MOF--net-gar--node1-AZAVOO_clean_sbu_0--node2-PAMTUU_clean_sbu_0--edge1-MIFKUJ_clean_linker_0
_symmetry_space_group_name_H-M    P1
_symmetry_Int_Tables_number       1
_symmetry_cell_setting            triclinic
loop_
_symmetry_equiv_pos_as_xyz
'x, y, z'
_cell_length_a     77.860498
_cell_length_b     70.840688
_cell_length_c     75.516868
_cell_angle_alpha  95.676206
_cell_angle_beta   92.939148
_cell_angle_gamma 107.44055
loop_
_atom_site_label
_atom_site_type_symbol
_atom_site_fract_x
_atom_site_fract_y
_atom_site_fract_z
_atom_type_partial_charge
Mg0 Mg 0.03544 0.25989 0.36867 0.0
O1 O 0.03905 0.29001 0.39009 0.0
O2 O 0.01382 0.28217 0.40429 0.0
Mg3 Mg 0.99435 0.25061 0.3944 0.0
C4 C 0.02882 0.29483 0.40164 0.0
C5 C 0.07331 0.26105 0.34578 0.0
O6 O 0.06026 0.25013 0.33396 0.0
O7 O 0.03803 0.23661 0.39045 0.0
O8 O 0.01272 0.23202 0.40435 0.0
O9 O 0.01784 0.27148 0.34781 0.0
O10 O 0.00513 0.25377 0.36777 0.0
C11 C 0.02742 0.22789 0.40192 0.0
C12 C 0.00291 0.2633 0.35461 0.0
O13 O 0.06837 0.26765 0.36081 0.0
Mg14 Mg 0.03361 0.78576 0.66864 0.0
O15 O 0.03544 0.76011 0.64596 0.0
O16 O 0.00948 0.75226 0.62892 0.0
Mg17 Mg 0.99206 0.77326 0.63731 0.0
C18 C 0.02443 0.749 0.63305 0.0
C19 C 0.07158 0.78099 0.68924 0.0
O20 O 0.05878 0.76585 0.69376 0.0
O21 O 0.03657 0.81321 0.64951 0.0
O22 O 0.01192 0.80311 0.63014 0.0
O23 O 0.01674 0.79826 0.68991 0.0
O24 O 0.00342 0.77983 0.66592 0.0
C25 C 0.02693 0.81619 0.63608 0.0
C26 C 1.00151 0.78928 0.68079 0.0
O27 O 0.06646 0.79262 0.6793 0.0
Mg28 Mg 0.53618 0.76094 0.8674 0.0
O29 O 0.53945 0.79052 0.88895 0.0
O30 O 0.51419 0.78217 0.90309 0.0
Mg31 Mg 0.49452 0.75075 0.89209 0.0
C32 C 0.5292 0.79498 0.90063 0.0
C33 C 0.5749 0.76785 0.84434 0.0
O34 O 0.56259 0.76358 0.83076 0.0
O35 O 0.53893 0.73779 0.88932 0.0
O36 O 0.51212 0.73084 0.90064 0.0
O37 O 0.51883 0.77319 0.8467 0.0
O38 O 0.50585 0.75446 0.86588 0.0
C39 C 0.52732 0.72756 0.89924 0.0
C40 C 0.50379 0.76447 0.85306 0.0
O41 O 0.56922 0.76879 0.86024 0.0
Mg42 Mg 0.53409 0.28648 0.16796 0.0
O43 O 0.5358 0.26059 0.14536 0.0
O44 O 0.50928 0.252 0.12919 0.0
Mg45 Mg 0.49149 0.27242 0.13797 0.0
C46 C 0.5245 0.24912 0.13283 0.0
C47 C 0.57252 0.28519 0.19071 0.0
O48 O 0.55983 0.27348 0.19896 0.0
O49 O 0.53631 0.31356 0.14823 0.0
O50 O 0.51052 0.30255 0.13064 0.0
O51 O 0.51724 0.29932 0.1893 0.0
O52 O 0.50376 0.27954 0.16611 0.0
C53 C 0.52565 0.31604 0.1354 0.0
C54 C 0.50192 0.2895 0.18068 0.0
O55 O 0.56719 0.2937 0.17793 0.0
Mg56 Mg 0.07176 0.80442 0.13219 0.0
O57 O 0.06773 0.77521 0.11368 0.0
O58 O 0.0401 0.76688 0.09948 0.0
Mg59 Mg 0.02711 0.79108 0.10697 0.0
C60 C 0.05497 0.76335 0.10293 0.0
C61 C 0.10493 0.80509 0.15555 0.0
O62 O 0.09207 0.80428 0.1663 0.0
O63 O 0.07719 0.82352 0.10875 0.0
O64 O 0.04913 0.81468 0.09536 0.0
O65 O 0.05742 0.7871 0.15333 0.0
O66 O 0.04355 0.79836 0.1326 0.0
C67 C 0.06578 0.82501 0.09653 0.0
C68 C 0.04253 0.78851 0.14612 0.0
O69 O 0.10162 0.80655 0.13912 0.0
Mg70 Mg 0.50074 0.74926 0.40037 0.0
O71 O 0.50245 0.77782 0.41909 0.0
O72 O 0.47619 0.77132 0.4316 0.0
Mg73 Mg 0.45838 0.73958 0.4215 0.0
C74 C 0.49173 0.78313 0.42937 0.0
C75 C 0.53901 0.77597 0.39188 0.0
O76 O 0.53015 0.78879 0.38957 0.0
O77 O 0.50479 0.73262 0.42355 0.0
O78 O 0.47796 0.72492 0.43484 0.0
O79 O 0.4889 0.76052 0.37801 0.0
O80 O 0.47265 0.74223 0.39693 0.0
C81 C 0.49404 0.72381 0.43445 0.0
C82 C 0.47322 0.75228 0.3835 0.0
O83 O 0.53088 0.75941 0.39721 0.0
Mg84 Mg 0.57174 0.30385 0.63509 0.0
O85 O 0.5656 0.27472 0.61625 0.0
O86 O 0.5381 0.26782 0.60237 0.0
Mg87 Mg 0.52655 0.29285 0.61193 0.0
C88 C 0.55272 0.26355 0.60531 0.0
C89 C 0.61211 0.31567 0.65137 0.0
O90 O 0.60784 0.33111 0.65861 0.0
O91 O 0.57707 0.32302 0.61159 0.0
O92 O 0.54857 0.31555 0.59954 0.0
O93 O 0.55731 0.28694 0.65654 0.0
O94 O 0.54431 0.30041 0.63678 0.0
C95 C 0.56538 0.32511 0.59996 0.0
C96 C 0.54294 0.29039 0.65018 0.0
O97 O 0.60074 0.30287 0.64011 0.0
Mg98 Mg 1.00005 0.25134 0.901 0.0
O99 O 1.0008 0.27894 0.92036 0.0
O100 O 0.97369 0.27205 0.93124 0.0
Mg101 Mg 0.95642 0.24025 0.92046 0.0
C102 C 0.98946 0.28392 0.92999 0.0
C103 C 0.03531 0.27165 0.88456 0.0
O104 O 0.02282 0.27479 0.87394 0.0
O105 O 0.00377 0.23399 0.9241 0.0
O106 O 0.97598 0.22575 0.93349 0.0
O107 O 0.9876 0.26356 0.87929 0.0
O108 O 0.97178 0.24317 0.89691 0.0
C109 C 0.99211 0.2247 0.93407 0.0
C110 C 0.97204 0.25419 0.88433 0.0
O111 O 0.03059 0.26293 0.89828 0.0
Mg112 Mg 0.44576 0.05907 0.29694 0.0
O113 O 0.42899 0.03045 0.27757 0.0
O114 O 0.42074 0.0303 0.30412 0.0
Mg115 Mg 0.41525 0.03455 0.33259 0.0
C116 C 0.41879 0.02121 0.28856 0.0
C117 C 0.45745 0.07863 0.2593 0.0
O118 O 0.46167 0.09515 0.25172 0.0
O119 O 0.42186 0.07017 0.29893 0.0
O120 O 0.40536 0.05945 0.32159 0.0
O121 O 0.46648 0.04486 0.30477 0.0
O122 O 0.44151 0.04195 0.31846 0.0
C123 C 0.40898 0.07011 0.30868 0.0
C124 C 0.45667 0.03817 0.31751 0.0
O125 O 0.4549 0.07973 0.27575 0.0
Mg126 Mg 0.29092 0.18167 0.50856 0.0
O127 O 0.29297 0.20212 0.53506 0.0
O128 O 0.32036 0.22439 0.53847 0.0
Mg129 Mg 0.33603 0.21696 0.51481 0.0
C130 C 0.30485 0.21693 0.54409 0.0
C131 C 0.25198 0.15322 0.50124 0.0
O132 O 0.2611 0.14397 0.49136 0.0
O133 O 0.28976 0.20495 0.48942 0.0
O134 O 0.3185 0.22433 0.49207 0.0
O135 O 0.3007 0.16107 0.52377 0.0
O136 O 0.31887 0.18521 0.511 0.0
C137 C 0.30246 0.21905 0.48437 0.0
C138 C 0.31696 0.17056 0.52041 0.0
O139 O 0.26029 0.17026 0.50966 0.0
Mg140 Mg 0.13823 1.00123 0.80165 0.0
O141 O 0.15761 0.03263 0.80034 0.0
O142 O 0.1718 0.04298 0.82786 0.0
Mg143 Mg 0.16067 0.01963 0.84643 0.0
C144 C 0.1691 0.0456 0.81157 0.0
C145 C 0.13549 0.99189 0.75527 0.0
O146 O 0.13766 0.97681 0.745 0.0
O147 O 0.16169 0.99005 0.80407 0.0
O148 O 0.17556 0.99975 0.83144 0.0
O149 O 0.11601 0.01381 0.80745 0.0
O150 O 0.13611 0.00992 0.82762 0.0
C151 C 0.17416 0.99052 0.81583 0.0
C152 C 0.12297 0.01675 0.82384 0.0
O153 O 0.13709 0.9917 0.77203 0.0
Mg154 Mg 0.28705 0.91385 0.00867 0.0
O155 O 0.28812 0.89852 0.98041 0.0
O156 O 0.31591 0.89523 0.97849 0.0
Mg157 Mg 0.32524 0.8943 0.00713 0.0
C158 C 0.30052 0.89487 0.97141 0.0
C159 C 0.26204 0.93503 0.01003 0.0
O160 O 0.27699 0.94406 0.02029 0.0
O161 O 0.27549 0.88459 0.02069 0.0
O162 O 0.29603 0.8762 0.00684 0.0
O163 O 0.30474 0.94181 0.00073 0.0
O164 O 0.31529 0.92006 0.01339 0.0
C165 C 0.28685 0.87496 0.02026 0.0
C166 C 0.3183 0.93623 0.00593 0.0
O167 O 0.25995 0.91769 0.00215 0.0
Mg168 Mg 0.28284 0.36944 0.02865 0.0
O169 O 0.28088 0.34836 0.00203 0.0
O170 O 0.30559 0.33864 0.00423 0.0
Mg171 Mg 0.32192 0.35105 0.03143 0.0
C172 C 0.29138 0.33919 0.9953 0.0
C173 C 0.25515 0.38994 0.02439 0.0
O174 O 0.27071 0.40315 0.03034 0.0
O175 O 0.27465 0.345 0.04779 0.0
O176 O 0.30028 0.33707 0.05046 0.0
O177 O 0.29948 0.39485 0.01553 0.0
O178 O 0.31116 0.37633 0.03121 0.0
C179 C 0.28452 0.33595 0.0553 0.0
C180 C 0.31359 0.39072 0.02154 0.0
O181 O 0.25422 0.37157 0.02263 0.0
Mg182 Mg 0.77062 0.1131 0.0316 0.0
O183 O 0.77334 0.13401 0.05744 0.0
O184 O 0.79939 0.15834 0.0568 0.0
Mg185 Mg 0.81459 0.15101 0.0333 0.0
C186 C 0.78482 0.15057 0.06396 0.0
C187 C 0.75361 0.08277 -0.00188 0.0
O188 O 0.75239 0.07299 0.98216 0.0
O189 O 0.76565 0.1362 0.01529 0.0
O190 O 0.79332 0.15748 0.01448 0.0
O191 O 0.78428 0.09406 0.04543 0.0
O192 O 0.79876 0.11934 0.03215 0.0
C193 C 0.77638 0.15143 0.00974 0.0
C194 C 0.79939 0.10495 0.04086 0.0
O195 O 0.76893 0.09323 0.0055 0.0
Mg196 Mg 0.12998 0.49818 0.23368 0.0
O197 O 0.15045 0.52841 0.2431 0.0
O198 O 0.1555 0.53148 0.27276 0.0
Mg199 Mg 0.13751 0.50271 0.28203 0.0
C200 C 0.15842 0.53831 0.25777 0.0
C201 C 0.12365 0.49168 0.19514 0.0
O202 O 0.11167 0.47674 0.201 0.0
O203 O 0.15158 0.48368 0.23759 0.0
O204 O 0.15375 0.48476 0.26743 0.0
O205 O 0.10766 0.51134 0.23696 0.0
O206 O 0.11933 0.49752 0.25778 0.0
C207 C 0.15795 0.47943 0.25199 0.0
C208 C 0.10861 0.50725 0.25323 0.0
O209 O 0.13632 0.50289 0.20601 0.0
Mg210 Mg 0.78277 0.86985 0.52814 0.0
O211 O 0.77961 0.84941 0.50119 0.0
O212 O 0.80239 0.83633 0.50205 0.0
Mg213 Mg 0.821 0.84983 0.52792 0.0
C214 C 0.78837 0.83842 0.49396 0.0
C215 C 0.75538 0.89127 0.52467 0.0
O216 O 0.77113 0.90439 0.53005 0.0
O217 O 0.77478 0.84469 0.54693 0.0
O218 O 0.80062 0.83712 0.54817 0.0
O219 O 0.79928 0.89533 0.51494 0.0
O220 O 0.81103 0.87582 0.52917 0.0
C221 C 0.78521 0.83591 0.55394 0.0
C222 C 0.81338 0.8906 0.51997 0.0
O223 O 0.75422 0.87283 0.52326 0.0
Mg224 Mg 0.92398 0.0394 0.22941 0.0
O225 O 0.90489 0.00754 0.22626 0.0
O226 O 0.891 0.00313 0.2514 0.0
Mg227 Mg 0.90093 0.03192 0.27017 0.0
C228 C 0.89375 0.99675 0.23573 0.0
C229 C 0.94432 0.03763 0.19887 0.0
O230 O 0.95603 0.04624 0.2126 0.0
O231 O 0.90077 0.05143 0.22435 0.0
O232 O 0.88771 0.04624 0.24989 0.0
O233 O 0.94513 0.02858 0.2411 0.0
O234 O 0.9263 0.03964 0.25708 0.0
C235 C 0.88836 0.05218 0.23445 0.0
C236 C 0.93901 0.03142 0.25636 0.0
O237 O 0.92767 0.03491 0.20041 0.0
Mg238 Mg 0.27189 0.61419 0.53065 0.0
O239 O 0.27524 0.63665 0.55557 0.0
O240 O 0.30142 0.66018 0.55343 0.0
Mg241 Mg 0.315 0.65241 0.529 0.0
C242 C 0.28723 0.65316 0.56142 0.0
C243 C 0.2547 0.58396 0.49787 0.0
O244 O 0.2528 0.57366 0.48206 0.0
O245 O 0.26506 0.63555 0.51361 0.0
O246 O 0.29206 0.6575 0.51133 0.0
O247 O 0.2866 0.59678 0.54527 0.0
O248 O 0.29987 0.62105 0.53026 0.0
C249 C 0.27498 0.65078 0.5074 0.0
C250 C 0.3013 0.6077 0.53994 0.0
O251 O 0.27029 0.59341 0.50516 0.0
Mg252 Mg 0.42851 0.54491 0.72891 0.0
O253 O 0.41177 0.51203 0.72543 0.0
O254 O 0.40025 0.50458 0.75134 0.0
Mg255 Mg 0.40759 0.53322 0.77043 0.0
C256 C 0.40272 0.49966 0.7352 0.0
C257 C 0.44673 0.54243 0.69643 0.0
O258 O 0.45967 0.55064 0.70921 0.0
O259 O 0.4031 0.55366 0.72547 0.0
O260 O 0.39134 0.54559 0.75114 0.0
O261 O 0.45201 0.5367 0.73989 0.0
O262 O 0.43184 0.54447 0.75638 0.0
C263 C 0.39064 0.5521 0.73603 0.0
C264 C 0.44554 0.53793 0.75519 0.0
O265 O 0.4306 0.54103 0.69941 0.0
Mg266 Mg 0.63425 0.99035 0.73095 0.0
O267 O 0.64999 0.02293 0.73936 0.0
O268 O 0.65459 0.02919 0.76908 0.0
Mg269 Mg 0.64555 0.99865 0.77897 0.0
C270 C 0.65586 0.03491 0.75358 0.0
C271 C 0.62177 0.98701 0.69506 0.0
O272 O 0.61152 0.97203 0.70245 0.0
O273 O 0.66008 0.98315 0.73301 0.0
O274 O 0.66679 0.99011 0.76262 0.0
O275 O 0.60891 0.99699 0.73633 0.0
O276 O 0.62545 0.98693 0.75602 0.0
C277 C 0.67062 0.98506 0.74694 0.0
C278 C 0.61192 0.99318 0.7524 0.0
O279 O 0.63713 0.99651 0.70281 0.0
Mg280 Mg 0.7909 0.68208 0.00747 0.0
O281 O 0.79239 0.70259 0.03371 0.0
O282 O 0.81942 0.72555 0.03719 0.0
Mg283 Mg 0.83536 0.71836 0.0136 0.0
C284 C 0.80398 0.71761 0.04275 0.0
C285 C 0.75381 0.65121 0.005 0.0
O286 O 0.76474 0.64083 0.00073 0.0
O287 O 0.78918 0.70458 0.98775 0.0
O288 O 0.81766 0.72459 0.99034 0.0
O289 O 0.80108 0.66255 0.02359 0.0
O290 O 0.81893 0.68631 0.01008 0.0
C291 C 0.80167 0.7187 0.98249 0.0
C292 C 0.81724 0.67222 0.0201 0.0
O293 O 0.76033 0.67006 0.00826 0.0
Mg294 Mg 0.9514 0.55136 0.78752 0.0
O295 O 0.93012 0.52042 0.78535 0.0
O296 O 0.91728 0.51876 0.81141 0.0
Mg297 Mg 0.92997 0.54747 0.83 0.0
C298 C 0.9188 0.51129 0.7957 0.0
C299 C 0.97944 0.59018 0.77786 0.0
O300 O 0.98912 0.60906 0.7795 0.0
O301 O 0.92923 0.56481 0.78426 0.0
O302 O 0.91726 0.56358 0.81061 0.0
O303 O 0.97218 0.53918 0.80009 0.0
O304 O 0.95384 0.55138 0.8151 0.0
C305 C 0.91804 0.56844 0.79474 0.0
C306 C 0.96579 0.54242 0.81496 0.0
O307 O 0.97144 0.58292 0.791 0.0
Mg308 Mg 0.79914 0.42912 0.50237 0.0
O309 O 0.79248 0.40279 0.48044 0.0
O310 O 0.8169 0.3922 0.4795 0.0
Mg311 Mg 0.83898 0.41198 0.4999 0.0
C312 C 0.80077 0.39095 0.47403 0.0
C313 C 0.76941 0.44628 0.50231 0.0
O314 O 0.78442 0.46065 0.50113 0.0
O315 O 0.79643 0.40859 0.52404 0.0
O316 O 0.82149 0.39949 0.52187 0.0
O317 O 0.80971 0.44975 0.48223 0.0
O318 O 0.8257 0.43497 0.49787 0.0
C319 C 0.80693 0.39901 0.5291 0.0
C320 C 0.82471 0.44595 0.48549 0.0
O321 O 0.77018 0.42871 0.50287 0.0
Mg322 Mg 0.64874 0.51274 0.30843 0.0
O323 O 0.66886 0.54366 0.3114 0.0
O324 O 0.68272 0.55154 0.33897 0.0
Mg325 Mg 0.67148 0.52416 0.3534 0.0
C326 C 0.68006 0.55585 0.32325 0.0
C327 C 0.62955 0.5059 0.27278 0.0
O328 O 0.61773 0.49622 0.28311 0.0
O329 O 0.67093 0.49946 0.30681 0.0
O330 O 0.68479 0.50584 0.33445 0.0
O331 O 0.62803 0.5253 0.31688 0.0
O332 O 0.64645 0.51586 0.33532 0.0
C333 C 0.68301 0.49813 0.31815 0.0
C334 C 0.63412 0.52439 0.33294 0.0
O335 O 0.64586 0.51359 0.27902 0.0
Tb336 Tb 0.05032 0.03471 0.01892 0.0
Tb337 Tb 0.0093 0.00791 0.00125 0.0
C338 C 0.01714 0.0329 0.03935 0.0
C339 C 0.09754 0.04363 0.0317 0.0
C340 C 0.1241 0.02436 0.03418 0.0
C341 C 0.1239 0.03964 0.04749 0.0
C342 C 0.11063 0.04919 0.04626 0.0
C343 C 0.09789 0.02856 0.01832 0.0
C344 C 0.11108 0.01909 0.01951 0.0
C345 C 0.08241 0.05186 0.03125 0.0
O346 O 0.04261 0.00676 0.03046 0.0
O347 O 0.0228 0.98624 0.00797 0.0
O348 O 0.02701 0.0127 0.97999 0.0
O349 O 0.05282 0.01454 0.99664 0.0
O350 O 0.98396 0.98737 0.0038 0.0
O351 O 0.98968 1.00061 0.97945 0.0
O352 O 0.01054 0.0391 0.00192 0.0
O353 O 0.04121 0.05332 0.00189 0.0
O354 O 0.03243 0.0448 0.03536 0.0
O355 O 0.00818 0.01629 0.02936 0.0
C356 C 0.03406 0.98887 0.02231 0.0
O357 O 0.07605 0.0536 0.01538 0.0
O358 O 0.06955 0.04378 0.04109 0.0
C359 C 0.04382 0.01274 0.98119 0.0
C360 C 0.96206 0.99935 0.9905 0.0
C361 C 0.93493 0.01811 0.99229 0.0
C362 C 0.93242 1.00072 0.98036 0.0
C363 C 0.94598 0.99146 0.97941 0.0
C364 C 0.96446 0.01653 0.00253 0.0
C365 C 0.95107 0.02582 0.0034 0.0
C366 C 0.97711 0.99101 0.98887 0.0
C367 C 0.02462 0.05397 -0.00081 0.0
H368 H 0.13375 0.04394 0.05897 0.0
H369 H 0.11035 0.06059 0.05682 0.0
H370 H 0.08783 0.02387 0.00703 0.0
H371 H 0.11113 0.00771 0.00883 0.0
H372 H 0.9201 0.99448 0.97163 0.0
H373 H 0.94402 0.97834 0.96991 0.0
H374 H 0.9768 0.02289 0.0112 0.0
H375 H 0.95327 0.03892 0.013 0.0
Tb376 Tb 0.28079 0.78111 0.28488 0.0
Tb377 Tb 0.3004 0.77506 0.24815 0.0
C378 C 0.26418 0.78528 0.24715 0.0
C379 C 0.26353 0.77149 0.32848 0.0
C380 C 0.25902 0.74822 0.35701 0.0
C381 C 0.2507 0.76327 0.35634 0.0
C382 C 0.25292 0.77479 0.34214 0.0
C383 C 0.27192 0.75655 0.32909 0.0
C384 C 0.26966 0.74498 0.34324 0.0
C385 C 0.26535 0.78311 0.31328 0.0
O386 O 0.27822 0.74961 0.27984 0.0
O387 O 0.27951 0.74714 0.2495 0.0
O388 O 0.3138 0.76343 0.26838 0.0
O389 O 0.30796 0.78127 0.29316 0.0
O390 O 0.29866 0.76552 0.22073 0.0
O391 O 0.32453 0.77818 0.23592 0.0
O392 O 0.3135 0.80533 0.26035 0.0
O393 O 0.29152 0.81106 0.27736 0.0
O394 O 0.26113 0.77827 0.26252 0.0
O395 O 0.28024 0.78932 0.24113 0.0
C396 C 0.27479 0.739 0.26407 0.0
O397 O 0.28166 0.79421 0.31126 0.0
O398 O 0.25717 0.77314 0.29823 0.0
C399 C 0.31745 0.77094 0.28523 0.0
C400 C 0.32136 0.78812 0.20782 0.0
C401 C 0.32922 0.81658 0.18369 0.0
C402 C 0.33402 0.79896 0.1806 0.0
C403 C 0.33009 0.78478 0.19264 0.0
C404 C 0.31718 0.80599 0.21127 0.0
C405 C 0.32115 0.82015 0.19935 0.0
C406 C 0.31605 0.77305 0.22004 0.0
C407 C 0.30636 0.81753 0.26927 0.0
H408 H 0.24227 0.76596 0.36667 0.0
H409 H 0.24626 0.78618 0.34176 0.0
H410 H 0.28015 0.75381 0.31858 0.0
H411 H 0.27642 0.73367 0.3435 0.0
H412 H 0.34005 0.79574 0.16851 0.0
H413 H 0.33341 0.77104 0.18987 0.0
H414 H 0.31044 0.80875 0.22298 0.0
H415 H 0.31746 0.83366 0.20214 0.0
Tb416 Tb 0.51082 0.0244 0.51501 0.0
Tb417 Tb 0.55572 0.02843 0.51835 0.0
C418 C 0.53093 0.01833 0.54864 0.0
C419 C 0.46744 0.03699 0.51455 0.0
C420 C 0.44616 0.06284 0.52089 0.0
C421 C 0.44655 0.04854 0.53245 0.0
C422 C 0.457 0.03574 0.52927 0.0
C423 C 0.46719 0.05139 0.50305 0.0
C424 C 0.4567 0.06416 0.50619 0.0
C425 C 0.47797 0.02284 0.51102 0.0
O426 O 0.52349 0.0546 0.52724 0.0
O427 O 0.55423 0.05785 0.52883 0.0
O428 O 0.54788 0.02899 0.49065 0.0
O429 O 0.52499 0.04228 0.49569 0.0
O430 O 0.57667 0.02415 0.53447 0.0
O431 O 0.58189 0.03624 0.50949 0.0
O432 O 0.54355 0.99921 0.50419 0.0
O433 O 0.51284 0.99486 0.50542 0.0
O434 O 0.51871 0.0259 0.54291 0.0
O435 O 0.54049 0.0113 0.5376 0.0
C436 C 0.54057 0.06498 0.53147 0.0
O437 O 0.48897 0.02606 0.4984 0.0
O438 O 0.48517 0.01749 0.52491 0.0
C439 C 0.5359 0.03708 0.48502 0.0
C440 C 0.59858 0.01467 0.51788 0.0
C441 C 0.61975 0.98897 0.50997 0.0
C442 C 0.61859 0.00324 0.49861 0.0
C443 C 0.60819 0.01595 0.50254 0.0
C444 C 0.59958 1.00027 0.52913 0.0
C445 C 0.60997 0.98758 0.5252 0.0
C446 C 0.58828 0.02884 0.52256 0.0
C447 C 0.52652 0.98832 0.50123 0.0
H448 H 0.43879 0.04722 0.54401 0.0
H449 H 0.45682 0.02475 0.53833 0.0
H450 H 0.47493 0.0527 0.49146 0.0
H451 H 0.45653 0.07475 0.49684 0.0
H452 H 0.6258 0.00465 0.48668 0.0
H453 H 0.60783 0.02695 0.49365 0.0
H454 H 0.59256 0.99897 0.54119 0.0
H455 H 0.61079 0.97708 0.53446 0.0
Tb456 Tb 0.3097 0.27056 0.77218 0.0
Tb457 Tb 0.26974 0.27733 0.76614 0.0
C458 C 0.27416 0.23622 0.76988 0.0
C459 C 0.3548 0.26559 0.76399 0.0
C460 C 0.38279 0.26665 0.74141 0.0
C461 C 0.3783 0.25233 0.75343 0.0
C462 C 0.36446 0.25184 0.76462 0.0
C463 C 0.35911 0.27986 0.75192 0.0
C464 C 0.37307 0.28046 0.7408 0.0
C465 C 0.33987 0.26429 0.77551 0.0
O466 O 0.30181 0.26251 0.74342 0.0
O467 O 0.27782 0.27508 0.73891 0.0
O468 O 0.28969 0.30661 0.76834 0.0
O469 O 0.31451 0.29776 0.76014 0.0
O470 O 0.24162 0.26443 0.76228 0.0
O471 O 0.2535 0.2963 0.76496 0.0
O472 O 0.2741 0.27534 0.79468 0.0
O473 O 0.30508 0.28495 0.79784 0.0
O474 O 0.28924 0.24514 0.77982 0.0
O475 O 0.26706 0.24616 0.75957 0.0
C476 C 0.29003 0.26717 0.73285 0.0
O477 O 0.33718 0.28103 0.78145 0.0
O478 O 0.32476 0.25043 0.76996 0.0
C479 C 0.3058 0.31089 0.76242 0.0
C480 C 0.2256 0.28385 0.77742 0.0
C481 C 0.19924 0.28766 0.80075 0.0
C482 C 0.20581 0.30201 0.78909 0.0
C483 C 0.21878 0.30006 0.7775 0.0
C484 C 0.21952 0.26982 0.78945 0.0
C485 C 0.20644 0.27168 0.80094 0.0
C486 C 0.23861 0.28158 0.76441 0.0
C487 C 0.28945 0.28222 0.80479 0.0
H488 H 0.38568 0.24166 0.75439 0.0
H489 H 0.36127 0.24066 0.77377 0.0
H490 H 0.35165 0.29046 0.75103 0.0
H491 H 0.37611 0.29156 0.73157 0.0
H492 H 0.20082 0.31471 0.78878 0.0
H493 H 0.22335 0.31113 0.76844 0.0
H494 H 0.22461 0.25719 0.78979 0.0
H495 H 0.20158 0.26022 0.80957 0.0
Tb496 Tb 0.03243 0.03839 0.53979 0.0
Tb497 Tb 0.03404 0.01143 0.50335 0.0
C498 C 0.9982 0.00948 0.51954 0.0
C499 C 0.04022 0.05946 0.58714 0.0
C500 C 0.05697 0.06022 0.62129 0.0
C501 C 0.03899 0.06053 0.61929 0.0
C502 C 0.0307 0.06016 0.60232 0.0
C503 C 0.05821 0.05938 0.58911 0.0
C504 C 0.06654 0.05991 0.60602 0.0
C505 C 0.03108 0.05781 0.56928 0.0
O506 O 0.03178 0.00876 0.54825 0.0
O507 O 0.04157 0.9942 0.52383 0.0
O508 O 0.06068 0.03259 0.50855 0.0
O509 O 0.0609 0.04073 0.5387 0.0
O510 O 0.01858 0.98949 0.48339 0.0
O511 O 0.04735 1.00146 0.48244 0.0
O512 O 0.02781 0.03788 0.49396 0.0
O513 O 0.03486 0.05973 0.5197 0.0
O514 O 0.00525 0.0281 0.52633 0.0
O515 O 0.0088 0.99913 0.51466 0.0
C516 C 0.03717 0.99404 0.54057 0.0
O517 O 0.04135 0.06517 0.55696 0.0
O518 O 0.01967 0.0404 0.56349 0.0
C519 C 0.06933 0.04054 0.5241 0.0
C520 C 0.02886 0.99485 0.4555 0.0
C521 C 0.01799 1.00022 0.42089 0.0
C522 C 0.02628 0.98548 0.4235 0.0
C523 C 0.03165 0.98276 0.44079 0.0
C524 C 0.02134 0.0101 0.45276 0.0
C525 C 0.01601 0.01282 0.43564 0.0
C526 C 0.03214 0.99066 0.47373 0.0
C527 C 0.03118 0.05626 0.50215 0.0
H528 H 0.03118 0.06053 0.63075 0.0
H529 H 0.01674 0.06006 0.60102 0.0
H530 H 0.06583 0.05871 0.57758 0.0
H531 H 0.08049 0.06002 0.60709 0.0
H532 H 0.02787 0.97555 0.41228 0.0
H533 H 0.03737 0.97085 0.44271 0.0
H534 H 0.01886 0.01941 0.46389 0.0
H535 H 0.0099 0.02449 0.43397 0.0
Tb536 Tb 0.29925 0.79571 0.75896 0.0
Tb537 Tb 0.27991 0.75353 0.7732 0.0
C538 C 0.28899 0.75696 0.73393 0.0
C539 C 0.30606 0.84717 0.75201 0.0
C540 C 0.28895 0.87675 0.75835 0.0
C541 C 0.29079 0.86945 0.74078 0.0
C542 C 0.29931 0.85477 0.73764 0.0
C543 C 0.3048 0.85507 0.76955 0.0
C544 C 0.2963 0.86963 0.77267 0.0
C545 C 0.31225 0.82946 0.74884 0.0
O546 O 0.26998 0.78933 0.75047 0.0
O547 O 0.25655 0.76476 0.76764 0.0
O548 O 0.28815 0.7752 0.79662 0.0
O549 O 0.28779 0.80263 0.78327 0.0
O550 O 0.27019 0.72259 0.7668 0.0
O551 O 0.26824 0.73608 0.79312 0.0
O552 O 0.30933 0.75604 0.77545 0.0
O553 O 0.32198 0.78944 0.77376 0.0
O554 O 0.30255 0.77282 0.73953 0.0
O555 O 0.27625 0.75013 0.74434 0.0
C556 C 0.25522 0.7778 0.75655 0.0
O557 O 0.31878 0.82382 0.76292 0.0
O558 O 0.30118 0.81435 0.7386 0.0
C559 C 0.28761 0.79352 0.79751 0.0
C560 C 0.27466 0.70543 0.79029 0.0
C561 C 0.29062 0.67518 0.79402 0.0
C562 C 0.27183 0.67124 0.79466 0.0
C563 C 0.26388 0.68626 0.7926 0.0
C564 C 0.29349 0.70991 0.79171 0.0
C565 C 0.30143 0.69493 0.79343 0.0
C566 C 0.26646 0.71946 0.78306 0.0
C567 C 0.32367 0.77224 0.77767 0.0
H568 H 0.28536 0.87481 0.72949 0.0
H569 H 0.30006 0.84885 0.72401 0.0
H570 H 0.30977 0.84953 0.78095 0.0
H571 H 0.29486 0.87471 0.78636 0.0
H572 H 0.26315 0.65628 0.7955 0.0
H573 H 0.24929 0.68257 0.79159 0.0
H574 H 0.30196 0.72465 0.79007 0.0
H575 H 0.3159 0.69861 0.79274 0.0
Tb576 Tb 0.53715 0.01388 0.0358 0.0
Tb577 Tb 0.54264 0.03825 0.00164 0.0
C578 C 0.57535 0.03686 0.02613 0.0
C579 C 0.525 0.99729 0.08032 0.0
C580 C 0.51614 0.00297 0.11563 0.0
C581 C 0.5341 0.00501 0.11215 0.0
C582 C 0.53853 1.00224 0.09457 0.0
C583 C 0.507 0.99484 0.08398 0.0
C584 C 0.50264 0.99779 0.10142 0.0
C585 C 0.52921 0.99389 0.0617 0.0
O586 O 0.53327 0.0429 0.04601 0.0
O587 O 0.54553 0.06178 0.02397 0.0
O588 O 0.51599 0.03491 0.00995 0.0
O589 O 0.51356 0.00435 0.01699 0.0
O590 O 0.55756 0.06127 0.98798 0.0
O591 O 0.5309 0.04231 0.97738 0.0
O592 O 0.5389 0.00678 0.99027 0.0
O593 O 0.54454 0.9935 0.01575 0.0
O594 O 0.56495 0.03258 0.03918 0.0
O595 O 0.56864 0.03532 0.0096 0.0
C596 C 0.5391 0.06045 0.03982 0.0
O597 O 0.5175 0.9958 0.04963 0.0
O598 O 0.54577 1.00175 0.05777 0.0
C599 C 0.50593 0.01736 0.01253 0.0
C600 C 0.55178 0.05369 0.95698 0.0
C601 C 0.56119 0.04626 0.92234 0.0
C602 C 0.55342 0.06148 0.92657 0.0
C603 C 0.5487 0.06514 0.94383 0.0
C604 C 0.55986 0.03875 0.95297 0.0
C605 C 0.56456 0.03506 0.93571 0.0
C606 C 0.54531 0.05641 0.97447 0.0
C607 C 0.54192 0.99197 -0.00185 0.0
H608 H 0.54467 0.00893 0.12299 0.0
H609 H 0.55247 0.00391 0.09215 0.0
H610 H 0.49618 0.99058 0.07336 0.0
H611 H 0.48863 0.99574 0.10383 0.0
H612 H 0.55051 0.07015 0.91643 0.0
H613 H 0.54229 0.07658 0.9468 0.0
H614 H 0.56219 0.02974 0.96308 0.0
H615 H 0.57071 0.02339 0.93279 0.0
Tb616 Tb 0.28295 0.25407 0.26233 0.0
Tb617 Tb 0.29909 0.29994 0.2776 0.0
C618 C 0.2853 0.28719 0.2373 0.0
C619 C 0.28059 0.20411 0.24162 0.0
C620 C 0.29985 0.17664 0.23556 0.0
C621 C 0.2808 0.17015 0.23421 0.0
C622 C 0.27124 0.18381 0.23752 0.0
C623 C 0.29929 0.21083 0.24045 0.0
C624 C 0.3089 0.19725 0.23761 0.0
C625 C 0.27179 0.21745 0.25075 0.0
O626 O 0.31261 0.26047 0.25936 0.0
O627 O 0.32246 0.29459 0.26464 0.0
O628 O 0.30822 0.28379 0.29737 0.0
O629 O 0.28445 0.25567 0.29143 0.0
O630 O 0.3119 0.32964 0.2737 0.0
O631 O 0.30497 0.32173 0.29981 0.0
O632 O 0.27121 0.29116 0.28667 0.0
O633 O 0.25804 0.26247 0.26776 0.0
O634 O 0.28812 0.27016 0.23914 0.0
O635 O 0.28463 0.29918 0.25154 0.0
C636 C 0.32546 0.27769 0.25898 0.0
O637 O 0.27893 0.22456 0.26693 0.0
O638 O 0.26876 0.23125 0.24198 0.0
C639 C 0.29752 0.26759 0.30257 0.0
C640 C 0.30138 0.35136 0.29198 0.0
C641 C 0.28356 0.38025 0.29202 0.0
C642 C 0.30246 0.38602 0.29529 0.0
C643 C 0.31134 0.37158 0.29532 0.0
C644 C 0.28251 0.34559 0.2892 0.0
C645 C 0.27365 0.35993 0.28928 0.0
C646 C 0.31055 0.33622 0.29012 0.0
C647 C 0.25652 0.27658 0.27999 0.0
H648 H 0.27332 0.15442 0.23198 0.0
H649 H 0.25675 0.17837 0.23821 0.0
H650 H 0.30669 0.22645 0.24342 0.0
H651 H 0.3235 0.20301 0.23878 0.0
H652 H 0.31032 0.40164 0.29743 0.0
H653 H 0.32595 0.37617 0.29743 0.0
H654 H 0.27467 0.33001 0.2864 0.0
H655 H 0.25911 0.3551 0.28638 0.0
Tb656 Tb 0.53098 0.53811 0.03642 0.0
Tb657 Tb 0.53553 0.51165 0.0006 0.0
C658 C 0.49755 0.50911 0.01342 0.0
C659 C 0.53556 0.55899 0.08308 0.0
C660 C 0.55171 0.55711 0.11668 0.0
C661 C 0.5333 0.55567 0.11458 0.0
C662 C 0.52529 0.55665 0.09786 0.0
C663 C 0.55409 0.5611 0.08531 0.0
C664 C 0.56211 0.56028 0.102 0.0
C665 C 0.52657 0.55676 0.06512 0.0
O666 O 0.53307 0.50985 0.04607 0.0
O667 O 0.53962 0.49277 0.02104 0.0
O668 O 0.56309 0.52801 0.01055 0.0
O669 O 0.56003 0.54483 0.03735 0.0
O670 O 0.52722 0.485 0.98319 0.0
O671 O 0.54873 0.51014 0.9772 0.0
O672 O 0.52785 0.53713 0.9908 0.0
O673 O 0.53494 0.55934 0.01622 0.0
O674 O 0.5044 0.52711 0.02181 0.0
O675 O 0.50797 0.49933 0.00677 0.0
C676 C 0.53674 0.49404 0.03817 0.0
O677 O 0.53668 0.56512 0.05309 0.0
O678 O 0.51659 0.53871 0.05916 0.0
C679 C 0.56992 0.54021 0.02512 0.0
C680 C 0.52827 0.49201 0.95361 0.0
C681 C 0.51271 0.49525 0.92025 0.0
C682 C 0.52868 0.48989 0.9215 0.0
C683 C 0.53641 0.48826 0.93812 0.0
C684 C 0.51213 0.49697 0.95239 0.0
C685 C 0.50434 0.49846 0.93579 0.0
C686 C 0.53751 0.49278 0.97109 0.0
C687 C 0.53126 0.55561 -0.00128 0.0
H688 H 0.52504 0.55331 0.12576 0.0
H689 H 0.51094 0.55482 0.09632 0.0
H690 H 0.56227 0.5626 0.07404 0.0
H691 H 0.57626 0.56115 0.1032 0.0
H692 H 0.53528 0.48721 0.90965 0.0
H693 H 0.54897 0.48463 0.93893 0.0
H694 H 0.50585 0.50024 0.9643 0.0
H695 H 0.49215 0.50284 0.93516 0.0
Tb696 Tb 0.79919 0.29663 0.26079 0.0
Tb697 Tb 0.77941 0.25519 0.27584 0.0
C698 C 0.79286 0.25545 0.23721 0.0
C699 C 0.80374 0.34647 0.2527 0.0
C700 C 0.78428 0.37397 0.25403 0.0
C701 C 0.79909 0.37656 0.24359 0.0
C702 C 0.8087 0.3627 0.2428 0.0
C703 C 0.78926 0.34426 0.26344 0.0
C704 C 0.7796 0.35783 0.26406 0.0
C705 C 0.81209 0.33055 0.25088 0.0
O706 O 0.7698 0.29365 0.25658 0.0
O707 O 0.75634 0.26106 0.26124 0.0
O708 O 0.77164 0.27762 0.29174 0.0
O709 O 0.79685 0.30315 0.28912 0.0
O710 O 0.76358 0.22514 0.27278 0.0
O711 O 0.77495 0.24062 0.2988 0.0
O712 O 0.80834 0.26428 0.28692 0.0
O713 O 0.82214 0.28514 0.26711 0.0
O714 O 0.79545 0.27464 0.23795 0.0
O715 O 0.78927 0.24579 0.25118 0.0
C716 C 0.75516 0.27791 0.25581 0.0
O717 O 0.81742 0.32561 0.26588 0.0
O718 O 0.80269 0.31494 0.24018 0.0
C719 C 0.78302 0.29489 0.29784 0.0
C720 C 0.77617 0.20832 0.2921 0.0
C721 C 0.79304 0.17856 0.29244 0.0
C722 C 0.77493 0.17455 0.29641 0.0
C723 C 0.76652 0.18944 0.29629 0.0
C724 C 0.79443 0.21252 0.2889 0.0
C725 C 0.80283 0.19783 0.28917 0.0
C726 C 0.76724 0.22336 0.28947 0.0
C727 C 0.8233 0.27408 0.28001 0.0
H728 H 0.80294 0.38902 0.23584 0.0
H729 H 0.81974 0.36444 0.23431 0.0
H730 H 0.78523 0.33179 0.27117 0.0
H731 H 0.7685 0.35577 0.27251 0.0
H732 H 0.76713 0.15974 0.29888 0.0
H733 H 0.75239 0.18602 0.29872 0.0
H734 H 0.802 0.2269 0.28535 0.0
H735 H 0.81665 0.20123 0.28563 0.0
Tb736 Tb 0.03993 0.51372 0.53969 0.0
Tb737 Tb 0.03995 0.53578 0.50423 0.0
C738 C 0.07589 0.5363 0.52448 0.0
C739 C 0.02816 0.49628 0.58264 0.0
C740 C 0.0104 0.501 0.61332 0.0
C741 C 0.0247 0.49271 0.61388 0.0
C742 C 0.03354 0.49037 0.59859 0.0
C743 C 0.01354 0.50395 0.58185 0.0
C744 C 0.00465 0.50619 0.59706 0.0
C745 C 0.03873 0.4962 0.56729 0.0
O746 O 0.03464 0.5421 0.54952 0.0
O747 O 0.04406 0.56007 0.5261 0.0
O748 O 0.0143 0.53324 0.51483 0.0
O749 O 0.01221 0.50572 0.52882 0.0
O750 O 0.05169 0.55894 0.48924 0.0
O751 O 0.02621 0.53657 0.47987 0.0
O752 O 0.03528 0.50401 0.49405 0.0
O753 O 0.04643 0.49351 0.51862 0.0
O754 O 0.06737 0.53171 0.53863 0.0
O755 O 0.06735 0.53498 0.5088 0.0
C756 C 0.03904 0.55926 0.54253 0.0
O757 O 0.02949 0.48799 0.55217 0.0
O758 O 0.05048 0.51326 0.5657 0.0
C759 C 0.00483 0.51803 0.52218 0.0
C760 C 0.04648 0.54724 0.45871 0.0
C761 C 0.05759 0.53589 0.42582 0.0
C762 C 0.04194 0.54179 0.42651 0.0
C763 C 0.03644 0.54751 0.44289 0.0
C764 C 0.06216 0.54135 0.45805 0.0
C765 C 0.06778 0.53589 0.44165 0.0
C766 C 0.03956 0.55121 0.4758 0.0
C767 C 0.04094 0.49052 0.50142 0.0
H768 H 0.02957 0.48885 0.62629 0.0
H769 H 0.04494 0.48461 0.59937 0.0
H770 H 0.00933 0.5087 0.56959 0.0
H771 H 0.99353 0.51237 0.59619 0.0
H772 H 0.03403 0.54209 0.41436 0.0
H773 H 0.0242 0.55178 0.44325 0.0
H774 H 0.06989 0.54067 0.47018 0.0
H775 H 0.07987 0.53131 0.44133 0.0
Tb776 Tb 0.81256 0.77763 0.27066 0.0
Tb777 Tb 0.76699 0.78019 0.26338 0.0
C778 C 0.77896 0.74325 0.27187 0.0
C779 C 0.86075 0.78428 0.2626 0.0
C780 C 0.88798 0.77903 0.24107 0.0
C781 C 0.88672 0.77261 0.25813 0.0
C782 C 0.87332 0.77529 0.26877 0.0
C783 C 0.86184 0.79068 0.24555 0.0
C784 C 0.87538 0.78813 0.23491 0.0
C785 C 0.84629 0.78582 0.27397 0.0
O786 O 0.80448 0.76806 0.24209 0.0
O787 O 0.77723 0.7759 0.23691 0.0
O788 O 0.77973 0.81166 0.25962 0.0
O789 O 0.79775 0.79711 0.26767 0.0
O790 O 0.74138 0.75996 0.26469 0.0
O791 O 0.74417 0.78893 0.25636 0.0
O792 O 0.77537 0.78701 0.2924 0.0
O793 O 0.80483 0.78462 0.29743 0.0
O794 O 0.79603 0.74998 0.27793 0.0
O795 O 0.77254 0.75166 0.25942 0.0
C796 C 0.79118 0.77024 0.23145 0.0
O797 O 0.83802 0.79902 0.27101 0.0
O798 O 0.83515 0.76871 0.27698 0.0
C799 C 0.79659 0.81329 0.26222 0.0
C800 C 0.71997 0.77566 0.27381 0.0
C801 C 0.69408 0.78038 0.29722 0.0
C802 C 0.69448 0.78746 0.28045 0.0
C803 C 0.70727 0.78503 0.26882 0.0
C804 C 0.71977 0.76886 0.29072 0.0
C805 C 0.70688 0.77111 0.30225 0.0
C806 C 0.73312 0.77284 0.26123 0.0
C807 C 0.7898 0.78761 0.30298 0.0
H808 H 0.89593 0.76521 0.2632 0.0
H809 H 0.8726 0.77007 0.28181 0.0
H810 H 0.85222 0.79753 0.24041 0.0
H811 H 0.87607 0.79348 0.22194 0.0
H812 H 0.68464 0.79449 0.27617 0.0
H813 H 0.70716 0.79035 0.25586 0.0
H814 H 0.72949 0.76169 0.29502 0.0
H815 H 0.707 0.7657 0.31517 0.0
Tb816 Tb 0.77651 0.27555 0.78386 0.0
Tb817 Tb 0.79891 0.27029 0.74909 0.0
C818 C 0.76196 0.27865 0.74527 0.0
C819 C 0.75811 0.26696 0.82704 0.0
C820 C 0.75491 0.24585 0.85698 0.0
C821 C 0.75046 0.26373 0.85754 0.0
C822 C 0.75203 0.27419 0.84264 0.0
C823 C 0.76262 0.24916 0.82643 0.0
C824 C 0.76095 0.23864 0.84125 0.0
C825 C 0.7601 0.27808 0.81151 0.0
O826 O 0.77393 0.24415 0.77919 0.0
O827 O 0.7785 0.24177 0.74932 0.0
O828 O 0.81 0.25739 0.76995 0.0
O829 O 0.80383 0.27677 0.79331 0.0
O830 O 0.79982 0.26085 0.72204 0.0
O831 O 0.82432 0.27568 0.73895 0.0
O832 O 0.81125 0.29966 0.76362 0.0
O833 O 0.78633 0.30496 0.77524 0.0
O834 O 0.75792 0.27122 0.76028 0.0
O835 O 0.7786 0.28385 0.7406 0.0
C836 C 0.7721 0.2337 0.76348 0.0
O837 O 0.77641 0.28935 0.80979 0.0
O838 O 0.7524 0.26772 0.79643 0.0
C839 C 0.81332 0.26573 0.78654 0.0
C840 C 0.82284 0.28402 0.70993 0.0
C841 C 0.83086 0.31027 0.68383 0.0
C842 C 0.83858 0.29466 0.68409 0.0
C843 C 0.83451 0.28155 0.69704 0.0
C844 C 0.81599 0.30021 0.71038 0.0
C845 C 0.81987 0.31315 0.6974 0.0
C846 C 0.8172 0.26952 0.72263 0.0
C847 C 0.80271 0.31173 0.77027 0.0
H848 H 0.74566 0.26955 0.86946 0.0
H849 H 0.74855 0.28794 0.84332 0.0
H850 H 0.76751 0.24345 0.81453 0.0
H851 H 0.76472 0.22507 0.84052 0.0
H852 H 0.84731 0.29223 0.67398 0.0
H853 H 0.84008 0.26923 0.69671 0.0
H854 H 0.80709 0.30242 0.72042 0.0
H855 H 0.81347 0.32479 0.69751 0.0
Tb856 Tb 0.78223 0.75677 0.76062 0.0
Tb857 Tb 0.79956 0.80198 0.77576 0.0
C858 C 0.78254 0.78902 0.73631 0.0
C859 C 0.78174 0.70685 0.74645 0.0
C860 C 0.80277 0.68102 0.74681 0.0
C861 C 0.78405 0.67343 0.74208 0.0
C862 C 0.77355 0.68635 0.74183 0.0
C863 C 0.80042 0.71436 0.75099 0.0
C864 C 0.81087 0.70159 0.75105 0.0
C865 C 0.7711 0.72066 0.74774 0.0
O866 O 0.80978 0.7658 0.75051 0.0
O867 O 0.82397 0.79295 0.77057 0.0
O868 O 0.79744 0.7864 0.79928 0.0
O869 O 0.79634 0.75562 0.78622 0.0
O870 O 0.81063 0.83156 0.77064 0.0
O871 O 0.80886 0.82434 0.79759 0.0
O872 O 0.76972 0.79691 0.7771 0.0
O873 O 0.76044 0.76292 0.77581 0.0
O874 O 0.77169 0.77334 0.74217 0.0
O875 O 0.79667 0.80018 0.74664 0.0
C876 C 0.8249 0.77953 0.75748 0.0
O877 O 0.76902 0.72698 0.76402 0.0
O878 O 0.77611 0.73529 0.7381 0.0
C879 C 0.79822 0.76841 0.80058 0.0
C880 C 0.80036 0.85173 0.79096 0.0
C881 C 0.77778 0.87513 0.79861 0.0
C882 C 0.79409 0.87863 0.80916 0.0
C883 C 0.80533 0.86688 0.80537 0.0
C884 C 0.78396 0.84809 0.78066 0.0
C885 C 0.77286 0.85973 0.78436 0.0
C886 C 0.81118 0.83843 0.78735 0.0
C887 C 0.75719 0.78009 0.77958 0.0
H888 H 0.77756 0.65755 0.73882 0.0
H889 H 0.75911 0.68037 0.73844 0.0
H890 H 0.8069 0.7301 0.75497 0.0
H891 H 0.82519 0.70776 0.75512 0.0
H892 H 0.79819 0.8905 0.82016 0.0
H893 H 0.81781 0.86957 0.81364 0.0
H894 H 0.77971 0.83626 0.76961 0.0
H895 H 0.76068 0.85702 0.77562 0.0
Tb896 Tb 0.55008 0.53297 0.51734 0.0
Tb897 Tb 0.50752 0.50633 0.50495 0.0
C898 C 0.52016 0.53174 0.54265 0.0
C899 C 0.59837 0.5423 0.52668 0.0
C900 C 0.62631 0.52558 0.53256 0.0
C901 C 0.62882 0.54577 0.53845 0.0
C902 C 0.6149 0.55407 0.53552 0.0
C903 C 0.59582 0.5222 0.52071 0.0
C904 C 0.6097 0.51392 0.52355 0.0
C905 C 0.58331 0.55045 0.52474 0.0
O906 O 0.54466 0.50605 0.53031 0.0
O907 O 0.52142 0.48478 0.51111 0.0
O908 O 0.52251 0.51152 0.48183 0.0
O909 O 0.54841 0.51023 0.49555 0.0
O910 O 0.4825 0.48736 0.51064 0.0
O911 O 0.48656 0.49637 0.48438 0.0
O912 O 0.50837 0.53758 0.50616 0.0
O913 O 0.53845 0.55122 0.50206 0.0
O914 O 0.53511 0.54306 0.53735 0.0
O915 O 0.50957 0.51558 0.53315 0.0
C916 C 0.53451 0.48796 0.52395 0.0
O917 O 0.57529 0.54764 0.50867 0.0
O918 O 0.57175 0.54617 0.53673 0.0
C919 C 0.53844 0.5093 0.48092 0.0
C920 C 0.45963 0.4968 0.49608 0.0
C921 C 0.43267 0.51567 0.4952 0.0
C922 C 0.4302 0.49746 0.48455 0.0
C923 C 0.4437 0.48813 0.48491 0.0
C924 C 0.46192 0.51473 0.50699 0.0
C925 C 0.44857 0.52408 0.50656 0.0
C926 C 0.47473 0.48853 0.49526 0.0
C927 C 0.52184 0.55215 0.50171 0.0
H928 H 0.64144 0.55507 0.54551 0.0
H929 H 0.61695 0.56957 0.54037 0.0
H930 H 0.58302 0.51286 0.51398 0.0
H931 H 0.60746 0.49845 0.51851 0.0
H932 H 0.41801 0.49067 0.47573 0.0
H933 H 0.44185 0.4744 0.47626 0.0
H934 H 0.47417 0.52169 0.51568 0.0
H935 H 0.45065 0.53785 0.51522 0.0
Tb936 Tb 0.00901 0.52457 0.01436 0.0
Tb937 Tb 0.0581 0.53071 0.0145 0.0
C938 C 0.03169 0.52056 0.04461 0.0
C939 C 0.96703 0.5396 0.00905 0.0
C940 C 0.94405 0.5632 0.0163 0.0
C941 C 0.94802 0.55163 0.0291 0.0
C942 C 0.95938 0.53992 0.02551 0.0
C943 C 0.96322 0.55131 0.99637 0.0
C944 C 0.95194 0.56303 -4e-05 0.0
C945 C 0.97851 0.5268 0.00451 0.0
O946 O 0.02314 0.55464 0.02724 0.0
O947 O 0.05455 0.55877 0.02653 0.0
O948 O 0.05519 0.53914 0.98744 0.0
O949 O 0.03209 0.53356 0.00122 0.0
O950 O 0.07755 0.5259 0.03249 0.0
O951 O 0.08464 0.5368 0.00731 0.0
O952 O 0.0432 0.50113 0.00061 0.0
O953 O 0.01185 0.49558 0.00381 0.0
O954 O 0.01601 0.5235 0.04189 0.0
O955 O 0.03871 0.51319 0.03117 0.0
C956 C 0.04056 0.56514 0.03039 0.0
O957 O 0.99326 0.53519 0.99697 0.0
O958 O 0.98104 0.5152 0.0163 0.0
C959 C 0.03832 0.53771 0.98626 0.0
C960 C 0.09983 0.51496 0.01741 0.0
C961 C 0.12032 0.4884 0.0108 0.0
C962 C 0.11946 0.50211 -0.0012 0.0
C963 C 0.10942 0.51526 0.0021 0.0
C964 C 0.10046 0.50109 0.02932 0.0
C965 C 0.11056 0.48792 0.02603 0.0
C966 C 0.0899 0.52965 0.02113 0.0
C967 C 0.02593 0.48984 -0.00121 0.0
H968 H 0.94202 0.55125 0.04174 0.0
H969 H 0.96198 0.531 0.03557 0.0
H970 H 0.96889 0.55132 0.98356 0.0
H971 H 0.94941 0.57199 0.98991 0.0
H972 H 0.12665 0.50277 0.98686 0.0
H973 H 0.10934 0.52584 0.99269 0.0
H974 H 0.09341 0.50059 0.04134 0.0
H975 H 0.11116 0.47779 0.03571 0.0
H976 H 0.02529 0.22511 0.94877 0.0
H977 H 0.03229 0.19867 0.96353 0.0
H978 H 0.97583 0.16411 0.95664 0.0
H979 H 0.96872 0.19093 0.9432 0.0
H980 H 0.98797 0.15742 0.98569 0.0
H981 H 0.01078 0.15857 0.92691 0.0
H982 H 0.02952 0.17397 0.90366 0.0
H983 H 0.07751 0.18437 0.93865 0.0
H984 H 0.05903 0.16921 0.96217 0.0
H985 H 0.99312 0.05934 0.98622 0.0
H986 H 0.98882 0.08997 0.97729 0.0
H987 H 0.04541 0.12099 0.99132 0.0
H988 H 0.04995 0.09031 -0.00038 0.0
H989 H 0.03521 0.13104 0.9611 0.0
H990 H 0.01109 0.12577 0.01874 0.0
H991 H 0.99138 0.10808 0.04031 0.0
H992 H 0.94448 0.1035 0.00564 0.0
H993 H 0.96391 0.12087 0.98375 0.0
C994 C 0.01438 0.212 0.95073 0.0
C995 C 0.99648 0.21008 0.94478 0.0
C996 C 0.0184 0.19678 0.959 0.0
C997 C 0.00467 0.17903 0.96078 0.0
C998 C 0.98672 0.17755 0.95545 0.0
C999 C 0.98265 0.19295 0.94772 0.0
C1000 C 0.00881 0.16157 0.96737 0.0
C1001 C 0.99823 0.15162 0.98018 0.0
C1002 C 0.02242 0.15406 0.96054 0.0
C1003 C 0.03352 0.16296 0.94634 0.0
C1004 C 0.02532 0.16423 0.92966 0.0
C1005 C 0.0359 0.17291 0.91644 0.0
C1006 C 0.05469 0.1802 0.9197 0.0
C1007 C 0.06295 0.17876 0.93616 0.0
C1008 C 0.05244 0.17011 0.94943 0.0
C1009 C 0.00465 0.07269 0.9874 0.0
C1010 C 0.02187 0.0724 0.99369 0.0
C1011 C 1.00216 0.09023 0.98238 0.0
C1012 C 0.01673 0.10792 0.98395 0.0
C1013 C 0.03395 0.10757 0.99004 0.0
C1014 C 0.03651 0.09 0.99481 0.0
C1015 C 0.01414 0.12677 0.97908 0.0
C1016 C 0.02505 0.13698 0.96668 0.0
C1017 C 1.00068 0.13434 0.98609 0.0
C1018 C 0.98897 0.12453 -0.00044 0.0
C1019 C 0.99658 0.12094 0.0157 0.0
C1020 C 0.98545 0.11094 0.02798 0.0
C1021 C 0.96668 0.1046 0.02432 0.0
C1022 C 0.959 0.10836 0.00844 0.0
C1023 C 0.97007 0.11831 0.99611 0.0
H1024 H 0.95809 0.09682 0.03381 0.0
H1025 H 0.06285 0.18693 0.90945 0.0
H1026 H 0.11073 0.78876 0.1853 0.0
H1027 H 0.139 0.78634 0.19847 0.0
H1028 H 0.16709 0.8148 0.15578 0.0
H1029 H 0.13833 0.81657 0.14198 0.0
H1030 H 0.1798 0.78503 0.16469 0.0
H1031 H 0.16828 0.8412 0.19772 0.0
H1032 H 0.14986 0.85825 0.21472 0.0
H1033 H 0.1448 0.81756 0.25409 0.0
H1034 H 0.16301 0.80012 0.23722 0.0
H1035 H 0.26485 0.8017 0.21553 0.0
H1036 H 0.23932 0.80637 0.19808 0.0
H1037 H 0.20349 0.77991 0.23675 0.0
H1038 H 0.22881 0.77556 0.25434 0.0
H1039 H 0.19677 0.81217 0.22845 0.0
H1040 H 0.20501 0.75428 0.19568 0.0
H1041 H 0.22219 0.73514 0.17931 0.0
H1042 H 0.23224 0.77659 0.14039 0.0
H1043 H 0.21529 0.79613 0.15667 0.0
C1044 C 0.12289 0.79453 0.17864 0.0
C1045 C 0.12233 0.80316 0.16272 0.0
C1046 C 0.1391 0.79317 0.18625 0.0
C1047 C 0.15532 0.8009 0.17843 0.0
C1048 C 0.15478 0.80891 0.16216 0.0
C1049 C 0.13837 0.80997 0.15431 0.0
C1050 C 0.17269 0.80081 0.18762 0.0
C1051 C 0.1837 0.79131 0.17853 0.0
C1052 C 0.17763 0.80858 0.20583 0.0
C1053 C 0.16695 0.81931 0.21615 0.0
C1054 C 0.16319 0.83585 0.20997 0.0
C1055 C 0.15278 0.84558 0.21958 0.0
C1056 C 0.14614 0.83897 0.23546 0.0
C1057 C 0.14995 0.82266 0.24179 0.0
C1058 C 0.16034 0.81287 0.23223 0.0
C1059 C 0.25153 0.79688 0.22031 0.0
C1060 C 0.24892 0.78828 0.23638 0.0
C1061 C 0.23693 0.79948 0.21027 0.0
C1062 C 0.21942 0.79335 0.21602 0.0
C1063 C 0.21685 0.78481 0.23205 0.0
C1064 C 0.23139 0.7823 0.2421 0.0
C1065 C 0.20371 0.79606 0.20565 0.0
C1066 C 0.19302 0.8061 0.21454 0.0
C1067 C 0.19899 0.78857 0.18737 0.0
C1068 C 0.20907 0.77679 0.1775 0.0
C1069 C 0.211 0.7594 0.18371 0.0
C1070 C 0.22068 0.74846 0.17443 0.0
C1071 C 0.22835 0.75468 0.15885 0.0
C1072 C 0.22631 0.77181 0.15248 0.0
C1073 C 0.21666 0.78282 0.16172 0.0
H1074 H 0.23584 0.7462 0.1517 0.0
H1075 H 0.13807 0.84652 0.24287 0.0
H1076 H 0.46885 0.80294 0.44173 0.0
H1077 H 0.47609 0.83805 0.45339 0.0
H1078 H 0.5326 0.84625 0.44788 0.0
H1079 H 0.52542 0.81101 0.43563 0.0
H1080 H 0.52235 0.86352 0.4827 0.0
H1081 H 0.51673 0.8638 0.41963 0.0
H1082 H 0.50372 0.85539 0.38836 0.0
H1083 H 0.45745 0.87267 0.40271 0.0
H1084 H 0.47003 0.88084 0.43416 0.0
H1085 H 0.55127 0.96873 0.49459 0.0
H1086 H 0.54581 0.93424 0.48233 0.0
H1087 H 0.48846 0.9255 0.47723 0.0
H1088 H 0.49377 0.96039 0.48942 0.0
H1089 H 0.50024 0.90858 0.44766 0.0
H1090 H 0.50694 0.9089 0.51132 0.0
H1091 H 0.52258 0.92145 0.54134 0.0
H1092 H 0.56867 0.90491 0.52514 0.0
H1093 H 0.55341 0.89255 0.49491 0.0
C1094 C 0.48287 0.8121 0.4431 0.0
C1095 C 0.49657 0.80412 0.43775 0.0
C1096 C 0.48695 0.83221 0.44971 0.0
C1097 C 0.50484 0.84473 0.45141 0.0
C1098 C 0.51869 0.83678 0.44664 0.0
C1099 C 0.51457 0.81668 0.43963 0.0
C1100 C 0.50881 0.86617 0.45791 0.0
C1101 C 0.51774 0.87346 0.47496 0.0
C1102 C 0.50248 0.87899 0.44793 0.0
C1103 C 0.49423 0.87269 0.42931 0.0
C1104 C 0.50361 0.86542 0.4162 0.0
C1105 C 0.49636 0.8608 0.39842 0.0
C1106 C 0.4798 0.86354 0.39356 0.0
C1107 C 0.4703 0.87058 0.4065 0.0
C1108 C 0.47747 0.87519 0.42431 0.0
C1109 C 0.53744 0.9596 0.49086 0.0
C1110 C 0.52292 0.96737 0.4932 0.0
C1111 C 0.53437 0.93979 0.4839 0.0
C1112 C 0.51673 0.92719 0.47918 0.0
C1113 C 0.50219 0.93496 0.48095 0.0
C1114 C 0.50524 0.95486 0.48798 0.0
C1115 C 0.51358 0.9059 0.47251 0.0
C1116 C 0.50478 0.89862 0.45544 0.0
C1117 C 0.52012 0.89315 0.48245 0.0
C1118 C 0.52908 0.89992 0.5008 0.0
C1119 C 0.52044 0.90801 0.51413 0.0
C1120 C 0.52923 0.9151 0.53119 0.0
C1121 C 0.54662 0.91402 0.53514 0.0
C1122 C 0.5552 0.90575 0.52206 0.0
C1123 C 0.54648 0.89867 0.50497 0.0
H1124 H 0.55342 0.91956 0.54834 0.0
H1125 H 0.47441 0.8604 0.37973 0.0
H1126 H 0.51737 0.30901 0.65043 0.0
H1127 H 0.48948 0.30078 0.66541 0.0
H1128 H 0.50091 0.2493 0.68275 0.0
H1129 H 0.52955 0.25806 0.66843 0.0
H1130 H 0.45957 0.25634 0.66117 0.0
H1131 H 0.50232 0.26127 0.71413 0.0
H1132 H 0.53131 0.27772 0.73205 0.0
H1133 H 0.51991 0.33358 0.73525 0.0
H1134 H 0.49106 0.31749 0.7169 0.0
H1135 H 0.3901 0.23542 0.72236 0.0
H1136 H 0.41629 0.23642 0.70543 0.0
H1137 H 0.43561 0.30044 0.71738 0.0
H1138 H 0.40962 0.29951 0.73457 0.0
H1139 H 0.46184 0.2838 0.72459 0.0
H1140 H 0.41779 0.27862 0.67572 0.0
H1141 H 0.38907 0.2638 0.65694 0.0
H1142 H 0.40238 0.20952 0.64537 0.0
H1143 H 0.43107 0.22393 0.66427 0.0
C1144 C 0.51395 0.29588 0.65738 0.0
C1145 C 0.52563 0.2842 0.65836 0.0
C1146 C 0.49803 0.29124 0.66593 0.0
C1147 C 0.4933 0.27462 0.67533 0.0
C1148 C 0.50455 0.26241 0.67581 0.0
C1149 C 0.52081 0.26737 0.66761 0.0
C1150 C 0.47676 0.27072 0.68494 0.0
C1151 C 0.45997 0.26184 0.67516 0.0
C1152 C 0.47741 0.27856 0.70297 0.0
C1153 C 0.49477 0.28828 0.71383 0.0
C1154 C 0.50617 0.27713 0.71837 0.0
C1155 C 0.52254 0.28636 0.72866 0.0
C1156 C 0.52751 0.30671 0.7347 0.0
C1157 C 0.51609 0.31784 0.73049 0.0
C1158 C 0.49975 0.30868 0.72011 0.0
C1159 C 0.39992 0.24971 0.72133 0.0
C1160 C 0.39786 0.26738 0.7299 0.0
C1161 C 0.41479 0.25027 0.71153 0.0
C1162 C 0.42789 0.26851 0.71011 0.0
C1163 C 0.42566 0.2862 0.71831 0.0
C1164 C 0.41075 0.28566 0.72803 0.0
C1165 C 0.44442 0.2691 0.70094 0.0
C1166 C 0.46127 0.27774 0.71073 0.0
C1167 C 0.44375 0.26094 0.68292 0.0
C1168 C 0.42646 0.25226 0.67161 0.0
C1169 C 0.41451 0.26346 0.66931 0.0
C1170 C 0.39826 0.25515 0.6586 0.0
C1171 C 0.39387 0.2357 0.65004 0.0
C1172 C 0.40578 0.22457 0.65206 0.0
C1173 C 0.42203 0.2328 0.66276 0.0
H1174 H 0.38125 0.22922 0.64186 0.0
H1175 H 0.54016 0.31382 0.74272 0.0
H1176 H 0.03069 0.85504 0.65095 0.0
H1177 H 0.03311 0.88481 0.63562 0.0
H1178 H 0.03596 0.85154 0.58562 0.0
H1179 H 0.03278 0.82163 0.6008 0.0
H1180 H 0.06111 0.89165 0.58943 0.0
H1181 H 0.99799 0.8603 0.59344 0.0
H1182 H 0.97058 0.84616 0.60867 0.0
H1183 H 0.97908 0.90269 0.63996 0.0
H1184 H 0.00673 0.91709 0.62511 0.0
H1185 H 0.0465 0.95976 0.52956 0.0
H1186 H 0.046 0.93113 0.54551 0.0
H1187 H 0.02807 0.95861 0.59139 0.0
H1188 H 0.02823 0.98711 0.57529 0.0
H1189 H 0.01115 0.92155 0.59033 0.0
H1190 H 0.07391 0.95334 0.58749 0.0
H1191 H 0.10214 0.96815 0.57372 0.0
H1192 H 0.09562 0.91222 0.54217 0.0
H1193 H 0.0672 0.89713 0.55558 0.0
C1194 C 0.03225 0.85409 0.63676 0.0
C1195 C 0.032 0.83566 0.62739 0.0
C1196 C 0.03345 0.87126 0.62784 0.0
C1197 C 0.03477 0.87097 0.60916 0.0
C1198 C 0.03509 0.85271 0.59993 0.0
C1199 C 0.03337 0.83543 0.60874 0.0
C1200 C 0.0352 0.88921 0.59923 0.0
C1201 C 0.05002 0.89795 0.58952 0.0
C1202 C 0.02115 0.8983 0.59936 0.0
C1203 C 0.00456 0.88971 0.60833 0.0
C1204 C 0.99412 0.86967 0.6037 0.0
C1205 C 0.97852 0.86161 0.61224 0.0
C1206 C 0.97312 0.8735 0.62532 0.0
C1207 C 0.9833 0.89348 0.62985 0.0
C1208 C 0.99894 0.9016 0.62138 0.0
C1209 C 0.04254 0.95992 0.54309 0.0
C1210 C 0.03755 0.97634 0.55089 0.0
C1211 C 0.04235 0.94332 0.55242 0.0
C1212 C 0.03727 0.94218 0.57016 0.0
C1213 C 0.03212 0.95852 0.57789 0.0
C1214 C 0.03231 0.97514 0.56856 0.0
C1215 C 0.03712 0.92415 0.58045 0.0
C1216 C 0.02231 0.91538 0.59023 0.0
C1217 C 0.05131 0.91517 0.58056 0.0
C1218 C 0.06832 0.92417 0.57239 0.0
C1219 C 0.07842 0.94424 0.5775 0.0
C1220 C 0.09447 0.95268 0.56978 0.0
C1221 C 0.10064 0.94115 0.55704 0.0
C1222 C 0.0908 0.92114 0.55202 0.0
C1223 C 0.07472 0.91263 0.55968 0.0
H1224 H 0.11307 0.94771 0.55109 0.0
H1225 H 0.96104 0.86724 0.63191 0.0
H1226 H 0.46896 0.73974 0.85666 0.0
H1227 H 0.43958 0.74082 0.84386 0.0
H1228 H 0.46642 0.79346 0.8202 0.0
H1229 H 0.49586 0.79201 0.83247 0.0
H1230 H 0.43495 0.79743 0.83507 0.0
H1231 H 0.44891 0.7491 0.7945 0.0
H1232 H 0.45665 0.71866 0.78466 0.0
H1233 H 0.40822 0.68285 0.8043 0.0
H1234 H 0.40032 0.71313 0.81452 0.0
H1235 H 0.35738 0.80148 0.78101 0.0
H1236 H 0.38687 0.80043 0.79286 0.0
H1237 H 0.36268 0.7401 0.80386 0.0
H1238 H 0.33331 0.74086 0.79119 0.0
H1239 H 0.39328 0.74024 0.79566 0.0
H1240 H 0.37949 0.78777 0.83747 0.0
H1241 H 0.3713 0.81784 0.84775 0.0
H1242 H 0.4187 0.85458 0.82716 0.0
H1243 H 0.42706 0.82469 0.81656 0.0
C1244 C 0.46874 0.75163 0.84878 0.0
C1245 C 0.48527 0.7658 0.84584 0.0
C1246 C 0.4517 0.7522 0.84128 0.0
C1247 C 0.45019 0.76722 0.83075 0.0
C1248 C 0.46667 0.78162 0.82814 0.0
C1249 C 0.48375 0.78076 0.83525 0.0
C1250 C 0.43168 0.76786 0.82253 0.0
C1251 C 0.42602 0.78492 0.82629 0.0
C1252 C 0.41926 0.75161 0.81127 0.0
C1253 C 0.42415 0.73341 0.8055 0.0
C1254 C 0.44002 0.73476 0.79693 0.0
C1255 C 0.44441 0.71752 0.79123 0.0
C1256 C 0.43297 0.69883 0.7939 0.0
C1257 C 0.4171 0.69734 0.80227 0.0
C1258 C 0.41266 0.71453 0.80803 0.0
C1259 C 0.35817 0.78788 0.78592 0.0
C1260 C 0.34234 0.7713 0.785 0.0
C1261 C 0.37534 0.78735 0.79302 0.0
C1262 C 0.3777 0.77033 0.80004 0.0
C1263 C 0.36191 0.75364 0.79884 0.0
C1264 C 0.34476 0.7541 0.79153 0.0
C1265 C 0.39634 0.76981 0.80829 0.0
C1266 C 0.40209 0.75276 0.80451 0.0
C1267 C 0.40876 0.786 0.81973 0.0
C1268 C 0.40379 0.80398 0.82606 0.0
C1269 C 0.3881 0.80225 0.83503 0.0
C1270 C 0.38344 0.81926 0.84093 0.0
C1271 C 0.39444 0.8381 0.83807 0.0
C1272 C 0.41017 0.83997 0.82934 0.0
C1273 C 0.41488 0.82301 0.8234 0.0
H1274 H 0.39081 0.85125 0.84264 0.0
H1275 H 0.43637 0.6855 0.78945 0.0
H1276 H 0.54904 0.22919 0.14226 0.0
H1277 H 0.55196 0.19775 0.12808 0.0
H1278 H 0.51084 0.19548 0.08677 0.0
H1279 H 0.50734 0.22628 0.10139 0.0
H1280 H 0.50447 0.16043 0.09191 0.0
H1281 H 0.56141 0.20664 0.08277 0.0
H1282 H 0.59056 0.23282 0.09109 0.0
H1283 H 0.60746 0.19489 0.12451 0.0
H1284 H 0.57831 0.16857 0.11655 0.0
H1285 H 0.53551 0.09437 0.02706 0.0
H1286 H 0.53349 0.12521 0.04349 0.0
H1287 H 0.53845 0.10164 0.09319 0.0
H1288 H 0.53975 0.07026 0.07673 0.0
H1289 H 0.5634 0.14862 0.08432 0.0
H1290 H 0.50439 0.10217 0.09198 0.0
H1291 H 0.47568 0.07665 0.0806 0.0
H1292 H 0.46332 0.11677 0.04657 0.0
H1293 H 0.49219 0.14238 0.05748 0.0
C1294 C 0.54076 0.22219 0.13002 0.0
C1295 C 0.52803 0.23079 0.12308 0.0
C1296 C 0.54248 0.20399 0.12174 0.0
C1297 C 0.53185 0.19372 0.10588 0.0
C1298 C 0.51931 0.20252 0.09889 0.0
C1299 C 0.51739 0.2205 0.1073 0.0
C1300 C 0.53333 0.17382 0.0968 0.0
C1301 C 0.51748 0.15817 0.09025 0.0
C1302 C 0.5501 0.16995 0.0944 0.0
C1303 C 0.56761 0.18573 0.09922 0.0
C1304 C 0.5713 0.20394 0.09199 0.0
C1305 C 0.58782 0.21879 0.09663 0.0
C1306 C 0.60083 0.21554 0.10837 0.0
C1307 C 0.59736 0.1974 0.11545 0.0
C1308 C 0.58084 0.18251 0.11087 0.0
C1309 C 0.53614 0.0956 0.04151 0.0
C1310 C 0.53781 0.07947 0.05039 0.0
C1311 C 0.53497 0.11342 0.05096 0.0
C1312 C 0.53582 0.11616 0.06976 0.0
C1313 C 0.53772 0.1002 0.07874 0.0
C1314 C 0.53842 0.0821 0.06925 0.0
C1315 C 0.53462 0.13554 0.07978 0.0
C1316 C 0.55048 0.15104 0.08624 0.0
C1317 C 0.51792 0.13941 0.08188 0.0
C1318 C 0.50059 0.12406 0.07533 0.0
C1319 C 0.49568 0.10544 0.08188 0.0
C1320 C 0.47935 0.09098 0.07555 0.0
C1321 C 0.46772 0.09505 0.06281 0.0
C1322 C 0.47237 0.11361 0.0564 0.0
C1323 C 0.48872 0.1281 0.06264 0.0
H1324 H 0.45507 0.08384 0.05794 0.0
H1325 H 0.61361 0.22706 0.11194 0.0
H1326 H 0.08453 0.2512 0.31312 0.0
H1327 H 0.11441 0.25481 0.30332 0.0
H1328 H 0.13833 0.28242 0.35574 0.0
H1329 H 0.10784 0.27913 0.36574 0.0
H1330 H 0.16047 0.30062 0.33185 0.0
H1331 H 0.13414 0.23034 0.33648 0.0
H1332 H 0.1108 0.19754 0.33022 0.0
H1333 H 0.11615 0.19855 0.27398 0.0
H1334 H 0.13936 0.23145 0.27989 0.0
H1335 H 0.24879 0.29539 0.3115 0.0
H1336 H 0.2198 0.29339 0.32343 0.0
H1337 H 0.19205 0.25475 0.27631 0.0
H1338 H 0.22127 0.25569 0.26499 0.0
H1339 H 0.17184 0.2423 0.29857 0.0
H1340 H 0.19585 0.31128 0.29158 0.0
H1341 H 0.21809 0.34489 0.29535 0.0
H1342 H 0.21594 0.34788 0.35223 0.0
H1343 H 0.19387 0.31419 0.34881 0.0
C1344 C 0.09597 0.25808 0.32285 0.0
C1345 C 0.09304 0.26466 0.34052 0.0
C1346 C 0.11345 0.26001 0.31708 0.0
C1347 C 0.1294 0.26847 0.32861 0.0
C1348 C 0.12669 0.27562 0.34624 0.0
C1349 C 0.10899 0.27372 0.35208 0.0
C1350 C 0.14841 0.26963 0.32209 0.0
C1351 C 0.16289 0.28767 0.32483 0.0
C1352 C 0.15221 0.25328 0.31215 0.0
C1353 C 0.13839 0.23342 0.30863 0.0
C1354 C 0.13027 0.22361 0.32277 0.0
C1355 C 0.11707 0.205 0.31928 0.0
C1356 C 0.11197 0.19599 0.30171 0.0
C1357 C 0.1201 0.20555 0.28758 0.0
C1358 C 0.13329 0.22416 0.291 0.0
C1359 C 0.23657 0.28649 0.30351 0.0
C1360 C 0.23794 0.27585 0.28698 0.0
C1361 C 0.2196 0.2855 0.31037 0.0
C1362 C 0.2028 0.27434 0.30089 0.0
C1363 C 0.20423 0.26363 0.28435 0.0
C1364 C 0.22125 0.26425 0.27768 0.0
C1365 C 0.18407 0.27337 0.30819 0.0
C1366 C 0.16956 0.25533 0.30558 0.0
C1367 C 0.18015 0.28987 0.31785 0.0
C1368 C 0.19335 0.31013 0.31995 0.0
C1369 C 0.2002 0.31907 0.30489 0.0
C1370 C 0.21277 0.33813 0.30697 0.0
C1371 C 0.21845 0.34849 0.32402 0.0
C1372 C 0.21154 0.33982 0.33903 0.0
C1373 C 0.199 0.32075 0.33704 0.0
H1374 H 0.22816 0.36324 0.3256 0.0
H1375 H 0.10174 0.18159 0.29904 0.0
H1376 H 0.92977 0.03162 0.16449 0.0
H1377 H 0.94245 0.01964 0.13831 0.0
H1378 H 0.9837 0.00867 0.17261 0.0
H1379 H 0.97153 0.02145 0.19867 0.0
H1380 H 0.99775 0.03531 0.15217 0.0
H1381 H 0.95577 0.97076 0.14212 0.0
H1382 H 0.92636 0.94444 0.13903 0.0
H1383 H 0.90904 0.9692 0.09429 0.0
H1384 H 0.93819 0.99586 0.09727 0.0
H1385 H 0.03751 0.03253 0.0688 0.0
H1386 H 0.02641 0.02561 0.09789 0.0
H1387 H 0.97463 0.0305 0.07928 0.0
H1388 H 0.98543 0.03595 0.04976 0.0
H1389 H 0.97015 0.99771 0.0936 0.0
H1390 H 0.00716 0.06707 0.11029 0.0
H1391 H 0.03562 0.09493 0.11381 0.0
H1392 H 0.06049 0.06239 0.14644 0.0
H1393 H 0.03221 0.03426 0.14295 0.0
C1394 C 0.94134 0.0263 0.16635 0.0
C1395 C 0.95017 0.0281 0.18333 0.0
C1396 C 0.94837 0.0191 0.15148 0.0
C1397 C 0.96401 0.01326 0.1536 0.0
C1398 C 0.97165 0.01315 0.17076 0.0
C1399 C 0.96489 0.02075 0.18555 0.0
C1400 C 0.97472 0.01244 0.13828 0.0
C1401 C 0.99191 0.02661 0.13946 0.0
C1402 C 0.96695 1.00132 0.12172 0.0
C1403 C 0.94924 0.98538 0.11997 0.0
C1404 C 0.94566 0.97071 0.13171 0.0
C1405 C 0.92902 0.95569 0.12995 0.0
C1406 C 0.91584 0.95515 0.11647 0.0
C1407 C 0.91927 0.96962 0.10471 0.0
C1408 C 0.93587 0.98467 0.10641 0.0
C1409 C 0.02397 0.03279 0.07124 0.0
C1410 C 0.01228 0.03505 0.05746 0.0
C1411 C 0.01762 0.0287 0.08774 0.0
C1412 C 0.99972 0.02754 0.09066 0.0
C1413 C 0.98844 0.03116 0.07715 0.0
C1414 C 0.99463 0.03459 0.06049 0.0
C1415 C 0.99229 0.02163 0.10744 0.0
C1416 C 0.97603 0.00598 0.10647 0.0
C1417 C 1.00068 0.03162 0.12419 0.0
C1418 C 0.01768 0.04848 0.12617 0.0
C1419 C 0.01875 0.06581 0.11809 0.0
C1420 C 0.03483 0.08165 0.12011 0.0
C1421 C 0.04987 0.0804 0.13029 0.0
C1422 C 0.04884 0.06332 0.13852 0.0
C1423 C 0.0328 0.04743 0.13653 0.0
H1424 H 0.0623 0.09269 0.13184 0.0
H1425 H 0.90298 0.94351 0.11513 0.0
H1426 H 0.28538 0.6895 0.50078 0.0
H1427 H 0.27476 0.70296 0.47517 0.0
H1428 H 0.23641 0.64537 0.45724 0.0
H1429 H 0.24638 0.63199 0.48322 0.0
H1430 H 0.27213 0.67114 0.43627 0.0
H1431 H 0.21373 0.66468 0.45778 0.0
H1432 H 0.19332 0.66897 0.48067 0.0
H1433 H 0.21697 0.7325 0.48485 0.0
H1434 H 0.23783 0.72854 0.46224 0.0
H1435 H 0.25236 0.70788 0.35571 0.0
H1436 H 0.24928 0.6881 0.38083 0.0
H1437 H 0.25769 0.74142 0.41752 0.0
H1438 H 0.2606 0.76117 0.39248 0.0
H1439 H 0.23172 0.71248 0.42766 0.0
H1440 H 0.29195 0.71944 0.40965 0.0
H1441 H 0.31607 0.716 0.39086 0.0
H1442 H 0.29124 0.65255 0.38218 0.0
H1443 H 0.26693 0.65565 0.40088 0.0
C1444 C 0.27432 0.67989 0.49165 0.0
C1445 C 0.26675 0.65973 0.49387 0.0
C1446 C 0.26821 0.6876 0.47715 0.0
C1447 C 0.2547 0.67517 0.46454 0.0
C1448 C 0.24659 0.65524 0.46708 0.0
C1449 C 0.25235 0.64764 0.48186 0.0
C1450 C 0.25167 0.68223 0.44734 0.0
C1451 C 0.26295 0.67975 0.43408 0.0
C1452 C 0.24002 0.6938 0.44495 0.0
C1453 C 0.22752 0.69629 0.45851 0.0
C1454 C 0.21477 0.67955 0.46376 0.0
C1455 C 0.20306 0.68192 0.47664 0.0
C1456 C 0.20389 0.701 0.48426 0.0
C1457 C 0.21638 0.71773 0.47897 0.0
C1458 C 0.22814 0.71543 0.46612 0.0
C1459 C 0.25361 0.71537 0.36915 0.0
C1460 C 0.25677 0.73609 0.37215 0.0
C1461 C 0.25183 0.70406 0.38348 0.0
C1462 C 0.25341 0.7133 0.40108 0.0
C1463 C 0.25632 0.73394 0.40406 0.0
C1464 C 0.25797 0.74522 0.38974 0.0
C1465 C 0.25249 0.7017 0.41649 0.0
C1466 C 0.24057 0.70343 0.42951 0.0
C1467 C 0.26369 0.68948 0.41877 0.0
C1468 C 0.27749 0.68781 0.40641 0.0
C1469 C 0.29148 0.7048 0.40348 0.0
C1470 C 0.30523 0.70289 0.39292 0.0
C1471 C 0.30515 0.68406 0.38528 0.0
C1472 C 0.29126 0.66712 0.38807 0.0
C1473 C 0.2775 0.66895 0.39864 0.0
H1474 H 0.31591 0.68251 0.3773 0.0
H1475 H 0.19481 0.70281 0.49422 0.0
H1476 H 0.63646 0.00955 0.66907 0.0
H1477 H 0.6207 0.02592 0.64936 0.0
H1478 H 0.57269 0.00587 0.67719 0.0
H1479 H 0.58798 0.98918 0.69634 0.0
H1480 H 0.57252 0.98946 0.6402 0.0
H1481 H 0.59001 0.05288 0.67894 0.0
H1482 H 0.61184 0.08346 0.69477 0.0
H1483 H 0.63332 0.09954 0.64522 0.0
H1484 H 0.61178 0.06895 0.62912 0.0
H1485 H 0.51316 0.00652 0.5777 0.0
H1486 H 0.52728 0.01052 0.60832 0.0
H1487 H 0.57809 0.04509 0.59115 0.0
H1488 H 0.56395 0.0415 0.56099 0.0
H1489 H 0.57606 0.05694 0.62491 0.0
H1490 H 0.56867 0.99663 0.58737 0.0
H1491 H 0.55338 0.96553 0.56767 0.0
H1492 H 0.52131 0.94256 0.60986 0.0
H1493 H 0.53623 0.97369 0.62973 0.0
C1494 C 0.62258 0.00884 0.67095 0.0
C1495 C 0.61309 0.99746 0.68355 0.0
C1496 C 0.61379 0.01849 0.66004 0.0
C1497 C 0.59567 0.01713 0.66206 0.0
C1498 C 0.58674 0.00714 0.67562 0.0
C1499 C 0.59534 0.99723 0.68621 0.0
C1500 C 0.58463 0.02106 0.64752 0.0
C1501 C 0.57294 0.00424 0.63711 0.0
C1502 C 0.58619 0.04033 0.64303 0.0
C1503 C 0.59937 0.0585 0.65285 0.0
C1504 C 0.59952 0.06281 0.67144 0.0
C1505 C 0.61181 0.0802 0.68045 0.0
C1506 C 0.62398 0.09342 0.67101 0.0
C1507 C 0.62389 0.08929 0.65253 0.0
C1508 C 0.61163 0.07194 0.64346 0.0
C1509 C 0.52719 0.01535 0.58075 0.0
C1510 C 0.53781 0.02311 0.56723 0.0
C1511 C 0.53519 0.01773 0.5981 0.0
C1512 C 0.55376 0.02778 0.60176 0.0
C1513 C 0.56378 0.03724 0.58853 0.0
C1514 C 0.55582 0.03487 0.57131 0.0
C1515 C 0.56354 0.02531 0.61801 0.0
C1516 C 0.57523 0.04223 0.62843 0.0
C1517 C 0.56285 0.00606 0.62204 0.0
C1518 C 0.5533 0.98764 0.60992 0.0
C1519 C 0.55816 0.98507 0.59236 0.0
C1520 C 0.54962 0.96741 0.58118 0.0
C1521 C 0.53632 0.95211 0.58749 0.0
C1522 C 0.53155 0.95445 0.60498 0.0
C1523 C 0.54003 0.97211 0.61619 0.0
H1524 H 0.52977 0.93842 0.57884 0.0
H1525 H 0.63346 0.10687 0.67802 0.0
H1526 H 0.31753 0.33629 0.97353 0.0
H1527 H 0.31473 0.32674 0.9413 0.0
H1528 H 0.25714 0.31545 0.93999 0.0
H1529 H 0.25991 0.32587 0.97246 0.0
H1530 H 0.27865 0.28353 0.9215 0.0
H1531 H 0.26617 0.34673 0.9223 0.0
H1532 H 0.27208 0.38257 0.93175 0.0
H1533 H 0.3244 0.39526 0.91156 0.0
H1534 H 0.31893 0.3594 0.90233 0.0
H1535 H 0.26115 0.26881 0.82539 0.0
H1536 H 0.26007 0.27711 0.85753 0.0
H1537 H 0.31526 0.315 0.86124 0.0
H1538 H 0.31658 0.30641 0.82915 0.0
H1539 H 0.29295 0.33364 0.87863 0.0
H1540 H 0.30681 0.27271 0.87793 0.0
H1541 H 0.30476 0.23726 0.87168 0.0
H1542 H 0.25296 0.22033 0.89294 0.0
H1543 H 0.25454 0.2557 0.89905 0.0
C1544 C 0.30419 0.33165 0.96651 0.0
C1545 C 0.28891 0.33169 0.97576 0.0
C1546 C 0.30265 0.32632 0.94798 0.0
C1547 C 0.28577 0.3205 0.93813 0.0
C1548 C 0.27036 0.32003 0.94728 0.0
C1549 C 0.27194 0.32591 0.96586 0.0
C1550 C 0.28454 0.31456 0.91839 0.0
C1551 C 0.28128 0.2944 0.91203 0.0
C1552 C 0.28881 0.32883 0.90612 0.0
C1553 C 0.29226 0.35034 0.91191 0.0
C1554 C 0.27906 0.35712 0.92016 0.0
C1555 C 0.28229 0.37745 0.9254 0.0
C1556 C 0.29864 0.39118 0.92233 0.0
C1557 C 0.31176 0.38461 0.91398 0.0
C1558 C 0.30861 0.36428 0.90875 0.0
C1559 C 0.27312 0.27885 0.83302 0.0
C1560 C 0.28897 0.28693 0.82455 0.0
C1561 C 0.27249 0.28353 0.85148 0.0
C1562 C 0.28758 0.2967 0.86197 0.0
C1563 C 0.3034 0.30483 0.85354 0.0
C1564 C 0.30416 0.29984 0.83514 0.0
C1565 C 0.2867 0.30242 0.88155 0.0
C1566 C 0.28985 0.32261 0.88795 0.0
C1567 C 0.28245 0.28816 0.89389 0.0
C1568 C 0.28069 0.26687 0.88874 0.0
C1569 C 0.29481 0.26144 0.88095 0.0
C1570 C 0.2938 0.24136 0.87756 0.0
C1571 C 0.2788 0.22657 0.88201 0.0
C1572 C 0.26462 0.23181 0.88958 0.0
C1573 C 0.26554 0.25187 0.89297 0.0
H1574 H 0.27813 0.21105 0.87954 0.0
H1575 H 0.3011 0.40692 0.92636 0.0
H1576 H 0.92418 0.02579 0.28824 0.0
H1577 H 0.93766 0.01733 0.31495 0.0
H1578 H 0.98415 0.01478 0.2872 0.0
H1579 H 0.9704 0.02244 0.26014 0.0
H1580 H 0.97507 0.98611 0.30952 0.0
H1581 H 0.9855 0.05698 0.31261 0.0
H1582 H 0.97552 0.08662 0.31024 0.0
H1583 H 0.9413 0.07126 0.3528 0.0
H1584 H 0.95091 0.04136 0.35524 0.0
H1585 H 0.03376 1.0008 0.38933 0.0
H1586 H 0.02078 0.00464 0.36007 0.0
H1587 H 0.97189 0.00695 0.38342 0.0
H1588 H 0.98471 0.00315 0.4125 0.0
H1589 H 0.98395 0.03647 0.36256 0.0
H1590 H 0.9725 0.96525 0.35885 0.0
H1591 H 0.98143 0.93488 0.36075 0.0
H1592 H 0.01721 0.95071 0.31948 0.0
H1593 H 0.00862 0.98132 0.31748 0.0
C1594 C 0.93714 0.02321 0.28772 0.0
C1595 C 0.94633 0.02504 0.2722 0.0
C1596 C 0.94482 0.01836 0.30299 0.0
C1597 C 0.96202 0.01585 0.30306 0.0
C1598 C 0.97087 0.01673 0.28736 0.0
C1599 C 0.96304 0.02122 0.27198 0.0
C1600 C 0.97136 0.01394 0.31991 0.0
C1601 C 0.97725 0.99721 0.32107 0.0
C1602 C 0.97401 0.02843 0.33492 0.0
C1603 C 0.96887 0.04689 0.33405 0.0
C1604 C 0.97584 0.05992 0.32145 0.0
C1605 C 0.97022 0.07674 0.32007 0.0
C1606 C 0.95776 0.0808 0.33134 0.0
C1607 C 0.95095 0.06809 0.34407 0.0
C1608 C 0.9565 0.05122 0.34548 0.0
C1609 C 0.02021 1.00198 0.38811 0.0
C1610 C 0.01026 1.00182 0.4031 0.0
C1611 C 0.01285 0.0042 0.37148 0.0
C1612 C 0.99541 0.00605 0.36969 0.0
C1613 C 0.98543 0.0057 0.38462 0.0
C1614 C 0.99277 0.00355 0.40118 0.0
C1615 C 0.98742 0.00846 0.3523 0.0
C1616 C 0.98188 0.0254 0.351 0.0
C1617 C 0.98512 0.99419 0.3372 0.0
C1618 C 0.99005 0.97564 0.33813 0.0
C1619 C 0.98235 0.9623 0.35025 0.0
C1620 C 0.98734 0.94504 0.35134 0.0
C1621 C 0.99992 0.9409 0.34028 0.0
C1622 C 0.00749 0.95396 0.32806 0.0
C1623 C 0.00254 0.97125 0.32692 0.0
H1624 H 0.00379 0.92754 0.34115 0.0
H1625 H 0.95339 0.0938 0.33023 0.0
H1626 H 0.26024 0.64279 0.5841 0.0
H1627 H 0.25808 0.66132 0.61267 0.0
H1628 H 0.30654 0.7078 0.60473 0.0
H1629 H 0.30896 0.68951 0.57652 0.0
H1630 H 0.30826 0.69477 0.63691 0.0
H1631 H 0.26558 0.71444 0.60023 0.0
H1632 H 0.23843 0.70855 0.57958 0.0
H1633 H 0.20504 0.67929 0.61845 0.0
H1634 H 0.23203 0.68466 0.63922 0.0
H1635 H 0.31137 0.76825 0.70752 0.0
H1636 H 0.3085 0.75151 0.6771 0.0
H1637 H 0.25985 0.70721 0.68819 0.0
H1638 H 0.26243 0.72394 0.71847 0.0
H1639 H 0.25688 0.71809 0.65474 0.0
H1640 H 0.29879 0.6976 0.69104 0.0
H1641 H 0.32556 0.70303 0.71208 0.0
H1642 H 0.35991 0.73244 0.67396 0.0
H1643 H 0.3333 0.7277 0.65285 0.0
C1644 C 0.27039 0.65706 0.58841 0.0
C1645 C 0.28492 0.66457 0.57812 0.0
C1646 C 0.26904 0.66761 0.60466 0.0
C1647 C 0.28215 0.68589 0.61076 0.0
C1648 C 0.29633 0.69365 0.60028 0.0
C1649 C 0.29772 0.68316 0.58412 0.0
C1650 C 0.28194 0.69648 0.62855 0.0
C1651 C 0.29712 0.70009 0.64072 0.0
C1652 C 0.26713 0.70282 0.63365 0.0
C1653 C 0.25087 0.69974 0.62121 0.0
C1654 C 0.25247 0.70658 0.60432 0.0
C1655 C 0.2371 0.70336 0.59259 0.0
C1656 C 0.22003 0.69349 0.59767 0.0
C1657 C 0.21828 0.68689 0.61452 0.0
C1658 C 0.23361 0.69002 0.62627 0.0
C1659 C 0.30003 0.75499 0.70346 0.0
C1660 C 0.28726 0.74727 0.71545 0.0
C1661 C 0.29838 0.74549 0.68609 0.0
C1662 C 0.28406 0.72804 0.68052 0.0
C1663 C 0.27098 0.72068 0.69226 0.0
C1664 C 0.27258 0.73019 0.7096 0.0
C1665 C 0.28337 0.7167 0.66287 0.0
C1666 C 0.26802 0.71281 0.65085 0.0
C1667 C 0.29796 0.70992 0.65787 0.0
C1668 C 0.31402 0.71246 0.67042 0.0
C1669 C 0.31204 0.70535 0.68719 0.0
C1670 C 0.32718 0.7083 0.69913 0.0
C1671 C 0.34442 0.71806 0.69436 0.0
C1672 C 0.34655 0.72489 0.67764 0.0
C1673 C 0.33144 0.72211 0.66568 0.0
H1674 H 0.35613 0.7203 0.70363 0.0
H1675 H 0.20815 0.691 0.58857 0.0
H1676 H 0.60029 0.97205 0.77947 0.0
H1677 H 0.58829 0.98337 0.80648 0.0
H1678 H 0.59127 0.03879 0.78581 0.0
H1679 H 0.60266 0.02716 0.75833 0.0
H1680 H 0.61213 0.03369 0.82433 0.0
H1681 H 0.55548 0.02422 0.78852 0.0
H1682 H 0.53074 0.00439 0.76629 0.0
H1683 H 0.51799 0.95682 0.79924 0.0
H1684 H 0.54283 0.97631 0.82158 0.0
H1685 H 0.57785 0.07253 0.89993 0.0
H1686 H 0.58406 0.06484 0.86907 0.0
H1687 H 0.55998 1.00207 0.87244 0.0
H1688 H 0.55341 0.00968 0.9032 0.0
H1689 H 0.54892 0.01343 0.8411 0.0
H1690 H 0.60358 0.01916 0.87567 0.0
H1691 H 0.6293 0.03474 0.8982 0.0
H1692 H 0.6472 0.08469 0.86846 0.0
H1693 H 0.62141 0.06949 0.84585 0.0
C1694 C 0.5979 0.98641 0.78053 0.0
C1695 C 0.60216 0.99874 0.76696 0.0
C1696 C 0.59112 0.99284 0.79587 0.0
C1697 C 0.58895 0.01181 0.79792 0.0
C1698 C 0.59278 0.02402 0.78422 0.0
C1699 C 0.59913 0.01736 0.76861 0.0
C1700 C 0.58417 0.01925 0.81514 0.0
C1701 C 0.5983 0.02983 0.82795 0.0
C1702 C 0.56622 0.01323 0.81982 0.0
C1703 C 0.55108 1.00164 0.80662 0.0
C1704 C 0.54748 0.00947 0.79095 0.0
C1705 C 0.53342 0.99831 0.77835 0.0
C1706 C 0.52282 0.97933 0.78133 0.0
C1707 C 0.52622 0.97151 0.79695 0.0
C1708 C 0.54026 0.98262 0.8096 0.0
C1709 C 0.57379 0.05712 0.89402 0.0
C1710 C 0.56524 0.04167 0.90389 0.0
C1711 C 0.5774 0.05276 0.87649 0.0
C1712 C 0.57251 0.03291 0.86863 0.0
C1713 C 0.5638 0.01747 0.87836 0.0
C1714 C 0.56024 0.02182 0.89592 0.0
C1715 C 0.57687 0.02824 0.85034 0.0
C1716 C 0.56273 0.01787 0.83743 0.0
C1717 C 0.5949 0.0341 0.84566 0.0
C1718 C 0.61044 0.04331 0.85919 0.0
C1719 C 0.6129 0.03355 0.87402 0.0
C1720 C 0.62752 0.04229 0.88678 0.0
C1721 C 0.63984 0.06073 0.8848 0.0
C1722 C 0.63761 0.07043 0.87 0.0
C1723 C 0.62301 0.06175 0.8572 0.0
H1724 H 0.65115 0.06748 0.89469 0.0
H1725 H 0.51196 0.97071 0.77155 0.0
H1726 H 0.26201 0.34506 0.07948 0.0
H1727 H 0.25929 0.33639 0.1101 0.0
H1728 H 0.29362 0.2993 0.10098 0.0
H1729 H 0.29661 0.30812 0.0705 0.0
H1730 H 0.26473 0.28202 0.12083 0.0
H1731 H 0.3112 0.34505 0.12178 0.0
H1732 H 0.32347 0.38005 0.11605 0.0
H1733 H 0.28503 0.39603 0.14839 0.0
H1734 H 0.27234 0.36104 0.15409 0.0
H1735 H 0.29554 0.27098 0.20694 0.0
H1736 H 0.29273 0.27882 0.17654 0.0
H1737 H 0.26786 0.32333 0.19443 0.0
H1738 H 0.27142 0.31602 0.22538 0.0
H1739 H 0.28884 0.33709 0.17012 0.0
H1740 H 0.24322 0.27492 0.17089 0.0
H1741 H 0.23038 0.24 0.17664 0.0
H1742 H 0.26557 0.22226 0.14111 0.0
H1743 H 0.2788 0.25712 0.13532 0.0
C1744 C 0.26861 0.33465 0.0838 0.0
C1745 C 0.27949 0.32725 0.07235 0.0
C1746 C 0.2672 0.32986 0.10144 0.0
C1747 C 0.27644 0.31737 0.10807 0.0
C1748 C 0.28639 0.30902 0.09632 0.0
C1749 C 0.28804 0.31404 0.0788 0.0
C1750 C 0.27651 0.31369 0.12736 0.0
C1751 C 0.27012 0.29406 0.13159 0.0
C1752 C 0.28306 0.32937 0.14158 0.0
C1753 C 0.29067 0.35039 0.13816 0.0
C1754 C 0.30525 0.35599 0.12752 0.0
C1755 C 0.3123 0.37583 0.12431 0.0
C1756 C 0.305 0.39024 0.1318 0.0
C1757 C 0.29065 0.38484 0.14256 0.0
C1758 C 0.28352 0.36501 0.14579 0.0
C1759 C 0.2894 0.28243 0.20451 0.0
C1760 C 0.28352 0.29268 0.21874 0.0
C1761 C 0.28767 0.28683 0.18695 0.0
C1762 C 0.27956 0.3013 0.18281 0.0
C1763 C 0.27402 0.31195 0.19705 0.0
C1764 C 0.27602 0.30774 0.21481 0.0
C1765 C 0.2772 0.30531 0.16369 0.0
C1766 C 0.28322 0.32501 0.15944 0.0
C1767 C 0.27011 0.28969 0.14944 0.0
C1768 C 0.26209 0.26867 0.15277 0.0
C1769 C 0.24829 0.26359 0.16438 0.0
C1770 C 0.24094 0.24381 0.16764 0.0
C1771 C 0.24718 0.22893 0.15928 0.0
C1772 C 0.26076 0.2338 0.14759 0.0
C1773 C 0.26817 0.25357 0.14429 0.0
H1774 H 0.24148 0.21363 0.16183 0.0
H1775 H 0.31048 0.4056 0.12931 0.0
H1776 H 0.22657 0.91898 0.99681 0.0
H1777 H 0.20316 0.9357 -0.00142 0.0
H1778 H 0.24341 0.99056 0.02084 0.0
H1779 H 0.26669 0.97416 0.01914 0.0
H1780 H 0.21639 0.97669 0.04277 0.0
H1781 H 0.22338 0.99107 0.98314 0.0
H1782 H 0.2254 0.98509 0.95072 0.0
H1783 H 0.17105 0.94541 0.94443 0.0
H1784 H 0.16877 0.95096 0.97688 0.0
H1785 H 0.16019 0.04118 0.04393 0.0
H1786 H 0.18383 0.02517 0.04056 0.0
H1787 H 0.14341 0.96901 0.02224 0.0
H1788 H 0.11963 0.98468 0.02619 0.0
H1789 H 0.17059 0.98388 -0.00197 0.0
H1790 H 0.1651 0.97087 0.05947 0.0
H1791 H 0.16486 0.97877 0.09199 0.0
H1792 H 0.21873 0.01917 0.09445 0.0
H1793 H 0.21923 0.01165 0.06191 0.0
C1794 C 0.23041 0.93469 0.00171 0.0
C1795 C 0.24828 0.94517 0.00828 0.0
C1796 C 0.21711 0.94422 0.00262 0.0
C1797 C 0.22167 0.96425 0.00999 0.0
C1798 C 0.23971 0.97505 0.01524 0.0
C1799 C 0.25293 0.9656 0.01436 0.0
C1800 C 0.20749 0.97308 0.01478 0.0
C1801 C 0.20651 0.97856 0.03297 0.0
C1802 C 0.19455 0.97508 0.00195 0.0
C1803 C 0.19599 0.97122 0.9825 0.0
C1804 C 0.21194 0.98086 0.97489 0.0
C1805 C 0.21311 0.97761 0.95649 0.0
C1806 C 0.19839 0.96483 0.94553 0.0
C1807 C 0.18246 0.95528 0.95294 0.0
C1808 C 0.18122 0.95848 0.97134 0.0
C1809 C 0.1563 0.0253 0.03973 0.0
C1810 C 0.13811 0.01423 0.03503 0.0
C1811 C 0.1698 0.01622 0.03776 0.0
C1812 C 0.16524 0.99603 0.03102 0.0
C1813 C 0.14708 0.98467 0.02733 0.0
C1814 C 0.13358 0.99367 0.02949 0.0
C1815 C 0.17946 0.98734 0.02602 0.0
C1816 C 0.18047 0.98195 0.00779 0.0
C1817 C 0.19266 0.98575 0.03878 0.0
C1818 C 0.1921 0.99088 0.05822 0.0
C1819 C 0.1768 0.98164 0.0669 0.0
C1820 C 0.17665 0.98598 0.08536 0.0
C1821 C 0.19175 0.9995 0.09527 0.0
C1822 C 0.20703 0.00872 0.08675 0.0
C1823 C 0.20726 0.00441 0.06831 0.0
H1824 H 0.19162 0.00281 0.10955 0.0
H1825 H 0.1993 0.96236 0.93128 0.0
H1826 H 0.72799 0.66742 0.01704 0.0
H1827 H 0.69653 0.64963 0.02144 0.0
H1828 H 0.70478 0.59392 0.00206 0.0
H1829 H 0.73605 0.61148 -0.00248 0.0
H1830 H 0.67304 0.59755 0.98761 0.0
H1831 H 0.70489 0.60723 0.04668 0.0
H1832 H 0.724 0.62793 0.07284 0.0
H1833 H 0.68583 0.66038 0.08021 0.0
H1834 H 0.66655 0.63996 0.05398 0.0
H1835 H 0.5967 0.52706 0.0117 0.0
H1836 H 0.62806 0.54677 0.00967 0.0
H1837 H 0.61821 0.59786 0.03827 0.0
H1838 H 0.58712 0.57784 0.04118 0.0
H1839 H 0.65029 0.59893 0.04776 0.0
H1840 H 0.6179 0.59061 0.99067 0.0
H1841 H 0.59843 0.57255 0.96373 0.0
H1842 H 0.63655 0.54124 0.95124 0.0
H1843 H 0.65615 0.55892 0.97825 0.0
C1844 C 0.72307 0.65139 0.01363 0.0
C1845 C 0.73454 0.64087 0.00696 0.0
C1846 C 0.70513 0.64125 0.01624 0.0
C1847 C 0.69838 0.62043 0.01224 0.0
C1848 C 0.70971 0.60998 0.00525 0.0
C1849 C 0.72761 0.62006 0.0027 0.0
C1850 C 0.67956 0.60935 0.01533 0.0
C1851 C 0.66809 0.59766 0.00079 0.0
C1852 C 0.67292 0.61013 0.03239 0.0
C1853 C 0.68438 0.62219 0.04829 0.0
C1854 C 0.70063 0.61885 0.05383 0.0
C1855 C 0.71147 0.63051 0.06868 0.0
C1856 C 0.70615 0.64549 0.07815 0.0
C1857 C 0.68993 0.64878 0.07285 0.0
C1858 C 0.67903 0.63715 0.05801 0.0
C1859 C 0.60136 0.54238 0.01787 0.0
C1860 C 0.58948 0.55093 0.02657 0.0
C1861 C 0.61922 0.55373 0.01652 0.0
C1862 C 0.62539 0.57403 0.0233 0.0
C1863 C 0.61378 0.58229 0.03281 0.0
C1864 C 0.59602 0.5708 0.03453 0.0
C1865 C 0.64374 0.58672 0.02005 0.0
C1866 C 0.65512 0.5988 0.03454 0.0
C1867 C 0.65019 0.58666 0.00282 0.0
C1868 C 0.63841 0.57596 0.98658 0.0
C1869 C 0.62207 0.57977 0.98225 0.0
C1870 C 0.61103 0.56963 0.96695 0.0
C1871 C 0.61623 0.55574 0.95579 0.0
C1872 C 0.63252 0.55199 0.9599 0.0
C1873 C 0.64361 0.56208 0.9752 0.0
H1874 H 0.60766 0.5479 0.94396 0.0
H1875 H 0.71458 0.6545 0.08963 0.0
H1876 H 0.6729 0.4656 0.29382 0.0
H1877 H 0.69152 0.44584 0.28221 0.0
H1878 H 0.73738 0.48368 0.31656 0.0
H1879 H 0.71855 0.50351 0.3287 0.0
H1880 H 0.73774 0.47259 0.27293 0.0
H1881 H 0.72714 0.44719 0.33102 0.0
H1882 H 0.70663 0.43424 0.35387 0.0
H1883 H 0.67479 0.38617 0.31535 0.0
H1884 H 0.69499 0.39902 0.29222 0.0
H1885 H 0.7974 0.41431 0.2614 0.0
H1886 H 0.78001 0.4369 0.26988 0.0
H1887 H 0.73045 0.38816 0.25835 0.0
H1888 H 0.74782 0.36554 0.25003 0.0
H1889 H 0.732 0.40557 0.29083 0.0
H1890 H 0.7391 0.42639 0.2337 0.0
H1891 H 0.75425 0.4378 0.2071 0.0
H1892 H 0.78657 0.49197 0.23835 0.0
H1893 H 0.77178 0.48075 0.26523 0.0
C1894 C 0.68695 0.46972 0.29895 0.0
C1895 C 0.69439 0.48608 0.31208 0.0
C1896 C 0.6975 0.45843 0.29232 0.0
C1897 C 0.71569 0.46348 0.29854 0.0
C1898 C 0.72328 0.47975 0.31168 0.0
C1899 C 0.71257 0.49091 0.31863 0.0
C1900 C 0.72653 0.45144 0.29108 0.0
C1901 C 0.73696 0.45814 0.27707 0.0
C1902 C 0.72435 0.43218 0.29585 0.0
C1903 C 0.7125 0.42415 0.30988 0.0
C1904 C 0.7157 0.43394 0.3274 0.0
C1905 C 0.70414 0.4266 0.34041 0.0
C1906 C 0.68939 0.40942 0.33605 0.0
C1907 C 0.68621 0.39949 0.3187 0.0
C1908 C 0.69773 0.40677 0.30565 0.0
C1909 C 0.78278 0.40861 0.26017 0.0
C1910 C 0.7739 0.38825 0.25527 0.0
C1911 C 0.77286 0.42147 0.26503 0.0
C1912 C 0.75397 0.41412 0.26485 0.0
C1913 C 0.74504 0.39404 0.25873 0.0
C1914 C 0.75493 0.38119 0.25396 0.0
C1915 C 0.74379 0.42685 0.27282 0.0
C1916 C 0.73319 0.42016 0.28679 0.0
C1917 C 0.74534 0.44586 0.26758 0.0
C1918 C 0.75449 0.45261 0.25154 0.0
C1919 C 0.74958 0.44064 0.23496 0.0
C1920 C 0.75807 0.44709 0.21981 0.0
C1921 C 0.77141 0.46557 0.22105 0.0
C1922 C 0.77626 0.47764 0.23742 0.0
C1923 C 0.76782 0.47125 0.25262 0.0
H1924 H 0.77795 0.47055 0.2093 0.0
H1925 H 0.68045 0.40378 0.34613 0.0
H1926 H 0.83702 0.48496 0.48118 0.0
H1927 H 0.86926 0.50332 0.4834 0.0
H1928 H 0.88157 0.44784 0.47484 0.0
H1929 H 0.84943 0.42949 0.47276 0.0
H1930 H 0.88751 0.46863 0.51115 0.0
H1931 H 0.90012 0.47964 0.45015 0.0
H1932 H 0.89648 0.49218 0.42131 0.0
H1933 H 0.90907 0.55172 0.44796 0.0
H1934 H 0.91263 0.53948 0.47699 0.0
H1935 H 0.97937 0.48221 0.52138 0.0
H1936 H 0.94695 0.47519 0.5155 0.0
H1937 H 0.95391 0.53824 0.51734 0.0
H1938 H 0.98663 0.54525 0.5224 0.0
H1939 H 0.93653 0.51983 0.48765 0.0
H1940 H 0.92931 0.50907 0.54825 0.0
H1941 H 0.93404 0.49633 0.57673 0.0
H1942 H 0.91124 0.43619 0.55155 0.0
H1943 H 0.90661 0.44853 0.52286 0.0
C1944 C 0.84657 0.4768 0.47862 0.0
C1945 C 0.84107 0.45594 0.47743 0.0
C1946 C 0.86496 0.48729 0.47993 0.0
C1947 C 0.8776 0.47679 0.47976 0.0
C1948 C 0.87187 0.45607 0.47519 0.0
C1949 C 0.85357 0.44563 0.47406 0.0
C1950 C 0.89542 0.48608 0.48942 0.0
C1951 C 0.89838 0.4797 0.506 0.0
C1952 C 0.90895 0.50133 0.4831 0.0
C1953 C 0.90639 0.50861 0.46575 0.0
C1954 C 0.90189 0.49537 0.44988 0.0
C1955 C 0.89992 0.50243 0.4335 0.0
C1956 C 0.90249 0.52272 0.43281 0.0
C1957 C 0.90706 0.536 0.44851 0.0
C1958 C 0.90906 0.52901 0.46493 0.0
C1959 C 0.97393 0.49457 0.52095 0.0
C1960 C 0.98535 0.51419 0.52198 0.0
C1961 C 0.95539 0.49059 0.51777 0.0
C1962 C 0.94804 0.50624 0.51611 0.0
C1963 C 0.95938 0.52599 0.51854 0.0
C1964 C 0.97798 0.52995 0.52134 0.0
C1965 C 0.9291 0.50158 0.50903 0.0
C1966 C 0.92568 0.50902 0.49307 0.0
C1967 C 0.91508 0.48729 0.51598 0.0
C1968 C 0.91764 0.47977 0.53334 0.0
C1969 C 0.92538 0.49313 0.54874 0.0
C1970 C 0.92804 0.48597 0.56494 0.0
C1971 C 0.92296 0.46547 0.56595 0.0
C1972 C 0.91516 0.45208 0.55077 0.0
C1973 C 0.91247 0.45915 0.53454 0.0
H1974 H 0.92505 0.45996 0.57849 0.0
H1975 H 0.90098 0.52816 0.42011 0.0
H1976 H 0.41929 0.1028 0.29144 0.0
H1977 H 0.40027 0.1206 0.27902 0.0
H1978 H 0.35448 0.08407 0.30264 0.0
H1979 H 0.37358 0.0656 0.31495 0.0
H1980 H 0.34799 0.08567 0.26642 0.0
H1981 H 0.37319 0.13261 0.31878 0.0
H1982 H 0.39843 0.15357 0.33994 0.0
H1983 H 0.42173 0.18682 0.29789 0.0
H1984 H 0.39675 0.16588 0.2764 0.0
H1985 H 0.28965 0.14323 0.25262 0.0
H1986 H 0.3086 0.12435 0.26306 0.0
H1987 H 0.35321 0.15978 0.2373 0.0
H1988 H 0.33398 0.1783 0.22578 0.0
H1989 H 0.36086 0.15913 0.2742 0.0
H1990 H 0.33804 0.11378 0.222 0.0
H1991 H 0.31511 0.09233 0.19888 0.0
H1992 H 0.28974 0.05611 0.23833 0.0
H1993 H 0.31239 0.07753 0.26176 0.0
C1994 C 0.40522 0.09866 0.29424 0.0
C1995 C 0.39785 0.0827 0.30406 0.0
C1996 C 0.3944 0.10896 0.2872 0.0
C1997 C 0.37603 0.1037 0.29 0.0
C1998 C 0.36869 0.08831 0.3004 0.0
C1999 C 0.37959 0.07791 0.30752 0.0
C2000 C 0.36445 0.1135 0.28091 0.0
C2001 C 0.35051 0.10168 0.26839 0.0
C2002 C 0.36846 0.13448 0.2829 0.0
C2003 C 0.38312 0.14761 0.29596 0.0
C2004 C 0.38372 0.14436 0.31403 0.0
C2005 C 0.39799 0.15622 0.32608 0.0
C2006 C 0.41169 0.17149 0.32026 0.0
C2007 C 0.4111 0.17499 0.30238 0.0
C2008 C 0.39687 0.16315 0.29027 0.0
C2009 C 0.30321 0.14659 0.24842 0.0
C2010 C 0.31023 0.16248 0.23837 0.0
C2011 C 0.31412 0.13585 0.25462 0.0
C2012 C 0.33229 0.14083 0.25107 0.0
C2013 C 0.3392 0.15589 0.24029 0.0
C2014 C 0.32819 0.16646 0.23377 0.0
C2015 C 0.34422 0.13124 0.25992 0.0
C2016 C 0.35826 0.1431 0.27233 0.0
C2017 C 0.34051 0.11034 0.25766 0.0
C2018 C 0.32681 0.09739 0.24367 0.0
C2019 C 0.32747 0.10135 0.22578 0.0
C2020 C 0.31455 0.08917 0.21261 0.0
C2021 C 0.30095 0.0729 0.21714 0.0
C2022 C 0.30027 0.06874 0.23485 0.0
C2023 C 0.31317 0.08088 0.24808 0.0
H2024 H 0.29095 0.06348 0.20693 0.0
H2025 H 0.42275 0.18063 0.3296 0.0
H2026 H 0.31561 0.13694 0.53578 0.0
H2027 H 0.33944 0.12148 0.53901 0.0
H2028 H 0.37688 0.17132 0.51889 0.0
H2029 H 0.35279 0.18661 0.51503 0.0
H2030 H 0.37882 0.13814 0.50218 0.0
H2031 H 0.37937 0.16151 0.56413 0.0
H2032 H 0.366 0.16599 0.59254 0.0
H2033 H 0.34739 0.10259 0.59331 0.0
H2034 H 0.36044 0.0977 0.56478 0.0
H2035 H 0.4537 0.10247 0.51641 0.0
H2036 H 0.43367 0.12318 0.5195 0.0
H2037 H 0.39206 0.07377 0.53527 0.0
H2038 H 0.41188 0.05287 0.53199 0.0
H2039 H 0.39391 0.10859 0.55546 0.0
H2040 H 0.39052 0.08482 0.49325 0.0
H2041 H 0.4028 0.07909 0.46446 0.0
H2042 H 0.42552 0.14223 0.46394 0.0
H2043 H 0.4136 0.14833 0.4929 0.0
C2044 C 0.32899 0.14484 0.53235 0.0
C2045 C 0.33226 0.16304 0.52513 0.0
C2046 C 0.34268 0.13598 0.53428 0.0
C2047 C 0.36009 0.14526 0.52936 0.0
C2048 C 0.36358 0.16383 0.52279 0.0
C2049 C 0.34981 0.17263 0.52068 0.0
C2050 C 0.37416 0.13486 0.52976 0.0
C2051 C 0.38238 0.13209 0.51398 0.0
C2052 C 0.37845 0.12631 0.54495 0.0
C2053 C 0.37079 0.12924 0.56224 0.0
C2054 C 0.37234 0.14851 0.5703 0.0
C2055 C 0.36482 0.15113 0.58643 0.0
C2056 C 0.35582 0.13459 0.59471 0.0
C2057 C 0.35436 0.11539 0.58689 0.0
C2058 C 0.36184 0.11269 0.57075 0.0
C2059 C 0.44027 0.09596 0.52047 0.0
C2060 C 0.4344 0.07591 0.52381 0.0
C2061 C 0.42885 0.10786 0.52232 0.0
C2062 C 0.41127 0.09999 0.52745 0.0
C2063 C 0.40557 0.0802 0.53135 0.0
C2064 C 0.41697 0.06828 0.5295 0.0
C2065 C 0.39853 0.11204 0.52794 0.0
C2066 C 0.3905 0.11496 0.54379 0.0
C2067 C 0.3943 0.12064 0.51281 0.0
C2068 C 0.40134 0.11703 0.49533 0.0
C2069 C 0.39826 0.09748 0.48707 0.0
C2070 C 0.40514 0.09416 0.47071 0.0
C2071 C 0.41499 0.11029 0.4624 0.0
C2072 C 0.41792 0.12976 0.47041 0.0
C2073 C 0.4111 0.13316 0.48679 0.0
H2074 H 0.4203 0.10769 0.44974 0.0
H2075 H 0.35 0.13664 0.60719 0.0
H2076 H 0.68122 0.56817 0.29022 0.0
H2077 H 0.69696 0.60097 0.28218 0.0
H2078 H 0.71683 0.62144 0.33727 0.0
H2079 H 0.70097 0.58848 0.34559 0.0
H2080 H 0.70314 0.64846 0.31979 0.0
H2081 H 0.74494 0.61099 0.31097 0.0
H2082 H 0.75498 0.58257 0.2995 0.0
H2083 H 0.74184 0.59143 0.24566 0.0
H2084 H 0.7315 0.61976 0.25682 0.0
H2085 H 0.78092 0.72934 0.30367 0.0
H2086 H 0.7614 0.69832 0.31273 0.0
H2087 H 0.73236 0.68382 0.26052 0.0
H2088 H 0.75145 0.71515 0.25152 0.0
H2089 H 0.74987 0.65448 0.27654 0.0
H2090 H 0.70898 0.69264 0.28513 0.0
H2091 H 0.69983 0.72172 0.2964 0.0
H2092 H 0.71153 0.71215 0.35036 0.0
H2093 H 0.72114 0.68323 0.3394 0.0
C2094 C 0.6889 0.57959 0.30067 0.0
C2095 C 0.68992 0.57569 0.31854 0.0
C2096 C 0.69789 0.59831 0.29604 0.0
C2097 C 0.70807 0.61347 0.30914 0.0
C2098 C 0.70898 0.60983 0.32703 0.0
C2099 C 0.70003 0.591 0.33169 0.0
C2100 C 0.7181 0.63295 0.30392 0.0
C2101 C 0.71353 0.64988 0.31052 0.0
C2102 C 0.73128 0.63454 0.29149 0.0
C2103 C 0.73727 0.61735 0.28474 0.0
C2104 C 0.74402 0.60675 0.29669 0.0
C2105 C 0.74981 0.59069 0.29025 0.0
C2106 C 0.749 0.58517 0.27187 0.0
C2107 C 0.74243 0.59571 0.25989 0.0
C2108 C 0.73662 0.61177 0.26627 0.0
C2109 C 0.77039 0.71948 0.29414 0.0
C2110 C 0.76774 0.72435 0.27687 0.0
C2111 C 0.75919 0.70199 0.29938 0.0
C2112 C 0.74548 0.6891 0.28728 0.0
C2113 C 0.74285 0.69383 0.26999 0.0
C2114 C 0.75376 0.71158 0.26488 0.0
C2115 C 0.73489 0.66989 0.29235 0.0
C2116 C 0.73943 0.65303 0.28576 0.0
C2117 C 0.72172 0.66844 0.30474 0.0
C2118 C 0.71605 0.68591 0.31142 0.0
C2119 C 0.70986 0.69689 0.2994 0.0
C2120 C 0.70453 0.71331 0.30573 0.0
C2121 C 0.70515 0.71882 0.32409 0.0
C2122 C 0.71109 0.70789 0.33614 0.0
C2123 C 0.71649 0.69147 0.32987 0.0
H2124 H 0.70097 0.73151 0.32897 0.0
H2125 H 0.7535 0.57274 0.2669 0.0
H2126 H 0.88786 0.50146 0.77407 0.0
H2127 H 0.86563 0.4681 0.76707 0.0
H2128 H 0.9005 0.4433 0.79712 0.0
H2129 H 0.92246 0.47664 0.80442 0.0
H2130 H 0.88474 0.42181 0.76166 0.0
H2131 H 0.86876 0.45134 0.81727 0.0
H2132 H 0.85994 0.47719 0.83556 0.0
H2133 H 0.81313 0.46751 0.79909 0.0
H2134 H 0.82181 0.44176 0.78045 0.0
H2135 H 0.83774 0.32874 0.78178 0.0
H2136 H 0.85522 0.36384 0.78386 0.0
H2137 H 0.80746 0.37801 0.76597 0.0
H2138 H 0.78961 0.34266 0.76479 0.0
H2139 H 0.82701 0.40631 0.79046 0.0
H2140 H 0.8398 0.37436 0.73673 0.0
H2141 H 0.84763 0.34841 0.71758 0.0
H2142 H 0.8991 0.36298 0.74772 0.0
H2143 H 0.89152 0.38889 0.7672 0.0
C2144 C 0.8908 0.48875 0.77886 0.0
C2145 C 0.9068 0.49129 0.78951 0.0
C2146 C 0.87814 0.46984 0.77498 0.0
C2147 C 0.8815 0.45337 0.78163 0.0
C2148 C 0.89777 0.45588 0.79184 0.0
C2149 C 0.91027 0.4748 0.79594 0.0
C2150 C 0.86792 0.43349 0.77847 0.0
C2151 C 0.87213 0.41834 0.76796 0.0
C2152 C 0.85121 0.42931 0.78617 0.0
C2153 C 0.84606 0.44483 0.79735 0.0
C2154 C 0.85669 0.45488 0.81305 0.0
C2155 C 0.85169 0.46947 0.82351 0.0
C2156 C 0.83602 0.47404 0.81846 0.0
C2157 C 0.82529 0.46398 0.80296 0.0
C2158 C 0.83023 0.44939 0.79245 0.0
C2159 C 0.83095 0.33939 0.77844 0.0
C2160 C 0.81244 0.33313 0.77296 0.0
C2161 C 0.84095 0.3594 0.77951 0.0
C2162 C 0.83277 0.37345 0.77449 0.0
C2163 C 0.81406 0.36736 0.76972 0.0
C2164 C 0.8039 0.34726 0.76907 0.0
C2165 C 0.84405 0.39434 0.77406 0.0
C2166 C 0.83943 0.40974 0.78383 0.0
C2167 C 0.86026 0.39885 0.76538 0.0
C2168 C 0.86505 0.38353 0.75348 0.0
C2169 C 0.85276 0.37199 0.73932 0.0
C2170 C 0.85715 0.35728 0.72841 0.0
C2171 C 0.87383 0.35402 0.73145 0.0
C2172 C 0.88618 0.36552 0.74538 0.0
C2173 C 0.88187 0.38026 0.75634 0.0
H2174 H 0.87718 0.3426 0.723 0.0
H2175 H 0.83217 0.48533 0.82657 0.0
H2176 H 0.08769 0.86312 0.10627 0.0
H2177 H 0.08642 0.89228 0.09188 0.0
H2178 H 0.05224 0.85366 0.04778 0.0
H2179 H 0.05329 0.82455 0.06217 0.0
H2180 H 0.07591 0.88973 0.03758 0.0
H2181 H 0.03218 0.86703 0.08034 0.0
H2182 H 0.02326 0.85742 0.10984 0.0
H2183 H 0.05433 0.91573 0.13468 0.0
H2184 H 0.06365 0.92557 0.10532 0.0
H2185 H 0.0239 0.94956 0.00742 0.0
H2186 H 0.03243 0.92211 0.01895 0.0
H2187 H 0.06173 0.96192 0.06489 0.0
H2188 H 0.05327 0.98922 0.05365 0.0
H2189 H 0.04226 0.92623 0.07439 0.0
H2190 H 0.08479 0.94988 0.03177 0.0
H2191 H 0.09378 0.95977 0.00238 0.0
H2192 H 0.06551 0.90056 0.97754 0.0
H2193 H 0.05616 0.89037 0.00678 0.0
C2194 C 0.0806 0.86084 0.09314 0.0
C2195 C 0.07052 0.84157 0.08538 0.0
C2196 C 0.07974 0.87752 0.085 0.0
C2197 C 0.06897 0.87512 0.06891 0.0
C2198 C 0.06058 0.85586 0.0602 0.0
C2199 C 0.06123 0.83923 0.06843 0.0
C2200 C 0.06416 0.89224 0.06255 0.0
C2201 C 0.06849 0.89766 0.04557 0.0
C2202 C 0.05461 0.90272 0.07305 0.0
C2203 C 0.04877 0.89697 0.09067 0.0
C2204 C 0.03721 0.87775 0.09211 0.0
C2205 C 0.03207 0.87227 0.1088 0.0
C2206 C 0.03827 0.88594 0.12413 0.0
C2207 C 0.04957 0.90514 0.12279 0.0
C2208 C 0.05478 0.91069 0.10613 0.0
C2209 C 0.03204 0.95243 0.02004 0.0
C2210 C 0.03797 0.97166 0.02951 0.0
C2211 C 0.03698 0.93675 0.02657 0.0
C2212 C 0.04791 0.94001 0.0427 0.0
C2213 C 0.05334 0.95903 0.05242 0.0
C2214 C 0.04851 0.97466 0.04589 0.0
C2215 C 0.054 0.92378 0.04937 0.0
C2216 C 0.04983 0.91846 0.06642 0.0
C2217 C 0.06375 0.91348 0.03896 0.0
C2218 C 0.06966 0.91941 0.02143 0.0
C2219 C 0.08041 0.93899 0.02002 0.0
C2220 C 0.08558 0.94466 0.0034 0.0
C2221 C 0.08018 0.93082 0.9881 0.0
C2222 C 0.06967 0.91127 0.9894 0.0
C2223 C 0.06445 0.90553 0.006 0.0
H2224 H 0.08418 0.93523 0.97523 0.0
H2225 H 0.03428 0.88166 0.13704 0.0
H2226 H 0.96823 0.28397 0.86569 0.0
H2227 H 0.94043 0.28603 0.85034 0.0
H2228 H 0.91044 0.2305 0.8681 0.0
H2229 H 0.938 0.22867 0.884 0.0
H2230 H 0.91669 0.25113 0.82309 0.0
H2231 H 0.88728 0.24071 0.88289 0.0
H2232 H 0.88992 0.25127 0.91533 0.0
H2233 H 0.90366 0.31255 0.90564 0.0
H2234 H 0.90149 0.30228 0.87316 0.0
H2235 H 0.82803 0.23522 0.78389 0.0
H2236 H 0.85459 0.23303 0.80132 0.0
H2237 H 0.8612 0.29097 0.82997 0.0
H2238 H 0.83408 0.29262 0.8133 0.0
H2239 H 0.86739 0.26955 0.85232 0.0
H2240 H 0.88824 0.28145 0.79451 0.0
H2241 H 0.88888 0.2758 0.76182 0.0
H2242 H 0.89516 0.21819 0.76611 0.0
H2243 H 0.89434 0.22341 0.79881 0.0
C2244 C 0.95565 0.27236 0.86652 0.0
C2245 C 0.95522 0.2562 0.87607 0.0
C2246 C 0.93983 0.27356 0.85778 0.0
C2247 C 0.92342 0.25857 0.85835 0.0
C2248 C 0.92292 0.24246 0.86791 0.0
C2249 C 0.93867 0.24141 0.87691 0.0
C2250 C 0.90703 0.25916 0.84801 0.0
C2251 C 0.90574 0.2549 0.8294 0.0
C2252 C 0.89317 0.2647 0.85629 0.0
C2253 C 0.89454 0.27077 0.87572 0.0
C2254 C 0.89112 0.25643 0.88773 0.0
C2255 C 0.89248 0.26236 0.9061 0.0
C2256 C 0.89704 0.28257 0.91255 0.0
C2257 C 0.90021 0.2969 0.90064 0.0
C2258 C 0.89896 0.29104 0.88226 0.0
C2259 C 0.83514 0.24741 0.79399 0.0
C2260 C 0.829 0.26404 0.79732 0.0
C2261 C 0.85041 0.24624 0.80384 0.0
C2262 C 0.86016 0.262 0.81678 0.0
C2263 C 0.85393 0.27858 0.82012 0.0
C2264 C 0.83842 0.27952 0.8106 0.0
C2265 C 0.87664 0.26114 0.82711 0.0
C2266 C 0.87811 0.26552 0.8458 0.0
C2267 C 0.89084 0.25603 0.81878 0.0
C2268 C 0.89102 0.25274 0.79909 0.0
C2269 C 0.88959 0.26751 0.78846 0.0
C2270 C 0.89003 0.2644 0.76994 0.0
C2271 C 0.89201 0.24663 0.76189 0.0
C2272 C 0.89359 0.23193 0.77236 0.0
C2273 C 0.89315 0.23497 0.79088 0.0
H2274 H 0.89236 0.24426 0.74755 0.0
H2275 H 0.89804 0.28713 0.92677 0.0
H2276 H 0.5273 0.23471 0.58289 0.0
H2277 H 0.52896 0.20216 0.57066 0.0
H2278 H 0.58322 0.21647 0.59524 0.0
H2279 H 0.58177 0.2492 0.60756 0.0
H2280 H 0.57756 0.19517 0.55959 0.0
H2281 H 0.5519 0.19005 0.61624 0.0
H2282 H 0.5309 0.19571 0.63803 0.0
H2283 H 0.48568 0.16133 0.6016 0.0
H2284 H 0.50642 0.15573 0.57947 0.0
H2285 H 0.5729 0.09143 0.54674 0.0
H2286 H 0.57829 0.12588 0.56027 0.0
H2287 H 0.52213 0.12025 0.54788 0.0
H2288 H 0.51657 0.08607 0.53479 0.0
H2289 H 0.53227 0.1378 0.58029 0.0
H2290 H 0.55647 0.14482 0.52291 0.0
H2291 H 0.57639 0.13992 0.49969 0.0
H2292 H 0.62307 0.17088 0.53568 0.0
H2293 H 0.60341 0.17568 0.55923 0.0
C2294 C 0.53974 0.2311 0.58559 0.0
C2295 C 0.55435 0.24455 0.59644 0.0
C2296 C 0.5406 0.21245 0.57854 0.0
C2297 C 0.55612 0.20683 0.58221 0.0
C2298 C 0.5711 0.22053 0.59227 0.0
C2299 C 0.57024 0.23922 0.5994 0.0
C2300 C 0.55598 0.1861 0.57664 0.0
C2301 C 0.56789 0.18259 0.5643 0.0
C2302 C 0.54321 0.16973 0.58266 0.0
C2303 C 0.53072 0.17257 0.59616 0.0
C2304 C 0.53748 0.18377 0.61285 0.0
C2305 C 0.52562 0.18698 0.62526 0.0
C2306 C 0.50697 0.17892 0.62119 0.0
C2307 C 0.50013 0.16757 0.60473 0.0
C2308 C 0.51193 0.16436 0.59225 0.0
C2309 C 0.56172 0.09757 0.54688 0.0
C2310 C 0.54432 0.08594 0.53959 0.0
C2311 C 0.56483 0.11727 0.55459 0.0
C2312 C 0.55063 0.12574 0.55499 0.0
C2313 C 0.53329 0.11408 0.54782 0.0
C2314 C 0.53016 0.09447 0.54025 0.0
C2315 C 0.55351 0.1467 0.56277 0.0
C2316 C 0.54214 0.1503 0.57567 0.0
C2317 C 0.56665 0.16308 0.55708 0.0
C2318 C 0.57848 0.16039 0.5429 0.0
C2319 C 0.57099 0.15044 0.52592 0.0
C2320 C 0.58223 0.14769 0.5127 0.0
C2321 C 0.60099 0.15502 0.51623 0.0
C2322 C 0.60854 0.16517 0.53298 0.0
C2323 C 0.59736 0.16791 0.54627 0.0
H2324 H 0.60967 0.15289 0.50597 0.0
H2325 H 0.49781 0.18144 0.63081 0.0
H2326 H 0.55771 0.74909 0.38774 0.0
H2327 H 0.58619 0.75324 0.37443 0.0
H2328 H 0.59066 0.8146 0.36914 0.0
H2329 H 0.56164 0.81031 0.38192 0.0
H2330 H 0.59709 0.79708 0.33916 0.0
H2331 H 0.61872 0.80081 0.40045 0.0
H2332 H 0.61851 0.78972 0.4304 0.0
H2333 H 0.62584 0.73474 0.40826 0.0
H2334 H 0.6259 0.7454 0.37814 0.0
H2335 H 0.68345 0.81322 0.30633 0.0
H2336 H 0.65952 0.81577 0.32536 0.0
H2337 H 0.64897 0.7541 0.33388 0.0
H2338 H 0.67316 0.75165 0.31523 0.0
H2339 H 0.64738 0.77542 0.36396 0.0
H2340 H 0.62261 0.76953 0.30302 0.0
H2341 H 0.62181 0.77918 0.27256 0.0
H2342 H 0.61945 0.83682 0.29367 0.0
H2343 H 0.62046 0.82758 0.32429 0.0
C2344 C 0.56485 0.76358 0.38401 0.0
C2345 C 0.55739 0.77939 0.3859 0.0
C2346 C 0.58123 0.76596 0.37646 0.0
C2347 C 0.59075 0.78431 0.37099 0.0
C2348 C 0.58358 0.8003 0.37329 0.0
C2349 C 0.56703 0.79786 0.38066 0.0
C2350 C 0.6075 0.78629 0.36178 0.0
C2351 C 0.60826 0.79276 0.34477 0.0
C2352 C 0.62188 0.78015 0.36886 0.0
C2353 C 0.62222 0.77388 0.38702 0.0
C2354 C 0.62022 0.78632 0.40196 0.0
C2355 C 0.62013 0.78011 0.41897 0.0
C2356 C 0.62213 0.76152 0.42123 0.0
C2357 C 0.6243 0.74913 0.40649 0.0
C2358 C 0.6244 0.75527 0.38945 0.0
C2359 C 0.67601 0.80023 0.31229 0.0
C2360 C 0.68006 0.7822 0.30923 0.0
C2361 C 0.66235 0.80169 0.32314 0.0
C2362 C 0.65225 0.78504 0.33083 0.0
C2363 C 0.65658 0.76716 0.32811 0.0
C2364 C 0.67038 0.76576 0.31745 0.0
C2365 C 0.63684 0.78598 0.3413 0.0
C2366 C 0.63632 0.78003 0.3585 0.0
C2367 C 0.62261 0.79246 0.33435 0.0
C2368 C 0.6218 0.79794 0.31594 0.0
C2369 C 0.62204 0.78431 0.30117 0.0
C2370 C 0.62153 0.78969 0.28388 0.0
C2371 C 0.62063 0.80862 0.28119 0.0
C2372 C 0.62018 0.82218 0.29578 0.0
C2373 C 0.6207 0.81687 0.3131 0.0
H2374 H 0.62025 0.81277 0.26779 0.0
H2375 H 0.62203 0.75673 0.4344 0.0
H2376 H 0.03565 0.19333 0.38915 0.0
H2377 H 0.03622 0.1646 0.405 0.0
H2378 H 0.02692 0.19533 0.45383 0.0
H2379 H 0.02548 0.22353 0.43788 0.0
H2380 H 0.05442 0.17553 0.45903 0.0
H2381 H 0.99361 0.15963 0.43392 0.0
H2382 H 0.96882 0.15345 0.41036 0.0
H2383 H 0.98469 0.10549 0.38411 0.0
H2384 H 0.00982 0.11162 0.40738 0.0
H2385 H 0.03574 0.09609 0.5144 0.0
H2386 H 0.03573 0.12399 0.49778 0.0
H2387 H 0.02665 0.0852 0.44832 0.0
H2388 H 0.02611 0.05702 0.46507 0.0
H2389 H 0.00905 0.1092 0.44256 0.0
H2390 H 0.0708 0.12585 0.46637 0.0
H2391 H 0.09653 0.13284 0.48916 0.0
H2392 H 0.07958 0.17907 0.51701 0.0
H2393 H 0.05383 0.1725 0.49438 0.0
C2394 C 0.03404 0.19421 0.40334 0.0
C2395 C 0.0309 0.21136 0.4121 0.0
C2396 C 0.03418 0.17749 0.41247 0.0
C2397 C 0.03162 0.17727 0.43093 0.0
C2398 C 0.02902 0.19465 0.43975 0.0
C2399 C 0.0283 0.21103 0.43052 0.0
C2400 C 0.03141 0.15913 0.44097 0.0
C2401 C 0.04433 0.16112 0.45544 0.0
C2402 C 0.01865 0.13979 0.43647 0.0
C2403 C 0.00379 0.1363 0.42226 0.0
C2404 C 0.99199 0.14795 0.423 0.0
C2405 C 0.97783 0.14441 0.40972 0.0
C2406 C 0.97522 0.12914 0.39571 0.0
C2407 C 0.98676 0.11736 0.39495 0.0
C2408 C 1.00098 0.12086 0.40818 0.0
C2409 C 0.03373 0.09329 0.49997 0.0
C2410 C 0.03096 0.07376 0.49141 0.0
C2411 C 0.03393 0.10962 0.49027 0.0
C2412 C 0.03163 0.10754 0.47134 0.0
C2413 C 0.02857 0.08792 0.46276 0.0
C2414 C 0.02829 0.07152 0.47249 0.0
C2415 C 0.03217 0.12548 0.46071 0.0
C2416 C 0.01927 0.12352 0.44613 0.0
C2417 C 0.04507 0.14485 0.465 0.0
C2418 C 0.06029 0.14854 0.4788 0.0
C2419 C 0.07248 0.1374 0.47744 0.0
C2420 C 0.08708 0.1413 0.49029 0.0
C2421 C 0.0896 0.15626 0.50456 0.0
C2422 C 0.07758 0.16745 0.50597 0.0
C2423 C 0.06302 0.16369 0.49311 0.0
H2424 H 0.10091 0.15924 0.51449 0.0
H2425 H 0.96423 0.12639 0.38546 0.0
H2426 H 0.58548 0.2755 0.22193 0.0
H2427 H 0.61563 0.27556 0.23209 0.0
H2428 H 0.63596 0.29907 0.18427 0.0
H2429 H 0.60523 0.29889 0.17381 0.0
H2430 H 0.6522 0.27165 0.1916 0.0
H2431 H 0.64529 0.32738 0.22859 0.0
H2432 H 0.63087 0.34553 0.24963 0.0
H2433 H 0.63305 0.30574 0.28845 0.0
H2434 H 0.64727 0.28719 0.26755 0.0
H2435 H 0.74692 0.30118 0.23086 0.0
H2436 H 0.71726 0.30298 0.21952 0.0
H2437 H 0.69108 0.26064 0.25429 0.0
H2438 H 0.72063 0.25803 0.26501 0.0
H2439 H 0.67866 0.29879 0.25339 0.0
H2440 H 0.68264 0.24173 0.21693 0.0
H2441 H 0.69602 0.22187 0.19648 0.0
H2442 H 0.69887 0.26293 0.15772 0.0
H2443 H 0.6855 0.28311 0.17804 0.0
C2444 C 0.59625 0.28093 0.21344 0.0
C2445 C 0.59235 0.28734 0.19689 0.0
C2446 C 0.61385 0.28104 0.21946 0.0
C2447 C 0.62881 0.28757 0.20934 0.0
C2448 C 0.62506 0.29397 0.19269 0.0
C2449 C 0.6073 0.29402 0.18667 0.0
C2450 C 0.6479 0.28722 0.2161 0.0
C2451 C 0.65797 0.27801 0.20503 0.0
C2452 C 0.65589 0.29477 0.23388 0.0
C2453 C 0.6472 0.30578 0.24643 0.0
C2454 C 0.64256 0.3224 0.24155 0.0
C2455 C 0.63445 0.33278 0.25347 0.0
C2456 C 0.63101 0.32676 0.27035 0.0
C2457 C 0.6357 0.31037 0.27536 0.0
C2458 C 0.6438 0.29993 0.26349 0.0
C2459 C 0.7349 0.29213 0.23613 0.0
C2460 C 0.73661 0.27937 0.24898 0.0
C2461 C 0.71774 0.29318 0.22954 0.0
C2462 C 0.70142 0.282 0.23587 0.0
C2463 C 0.70312 0.26954 0.24897 0.0
C2464 C 0.72023 0.26801 0.25513 0.0
C2465 C 0.68282 0.28331 0.22887 0.0
C2466 C 0.67289 0.29265 0.23992 0.0
C2467 C 0.67488 0.27575 0.21118 0.0
C2468 C 0.68336 0.26409 0.19911 0.0
C2469 C 0.68635 0.24668 0.20415 0.0
C2470 C 0.69385 0.23531 0.19255 0.0
C2471 C 0.69841 0.2412 0.17585 0.0
C2472 C 0.69539 0.25843 0.17069 0.0
C2473 C 0.68782 0.26982 0.18223 0.0
H2474 H 0.70421 0.23236 0.16688 0.0
H2475 H 0.62474 0.33483 0.27956 0.0
H2476 H 0.51212 0.80695 0.92867 0.0
H2477 H 0.51555 0.84013 0.94339 0.0
H2478 H 0.55841 0.86512 0.91069 0.0
H2479 H 0.55513 0.8314 0.89585 0.0
H2480 H 0.56692 0.88641 0.94252 0.0
H2481 H 0.51374 0.86879 0.90373 0.0
H2482 H 0.48397 0.84847 0.88921 0.0
H2483 H 0.46082 0.85001 0.93952 0.0
H2484 H 0.49053 0.87012 0.95442 0.0
H2485 H 0.55041 0.98514 0.96298 0.0
H2486 H 0.55006 0.9534 0.94591 0.0
H2487 H 0.53151 0.92235 0.99082 0.0
H2488 H 0.53257 0.95396 0.00812 0.0
H2489 H 0.51148 0.90599 0.95042 0.0
H2490 H 0.56787 0.92354 0.98844 0.0
H2491 H 0.59795 0.94604 0.00014 0.0
H2492 H 0.61507 0.94704 0.94699 0.0
H2493 H 0.58494 0.92482 0.93495 0.0
C2494 C 0.52244 0.81935 0.92452 0.0
C2495 C 0.53329 0.81595 0.91079 0.0
C2496 C 0.52429 0.83865 0.93299 0.0
C2497 C 0.53698 0.8558 0.92815 0.0
C2498 C 0.54835 0.85251 0.91487 0.0
C2499 C 0.54651 0.83301 0.90632 0.0
C2500 C 0.538 0.87677 0.93689 0.0
C2501 C 0.55472 0.89059 0.94398 0.0
C2502 C 0.52232 0.883 0.93905 0.0
C2503 C 0.50442 0.8708 0.93023 0.0
C2504 C 0.50234 0.86466 0.91174 0.0
C2505 C 0.48546 0.8532 0.90343 0.0
C2506 C 0.47052 0.84791 0.91344 0.0
C2507 C 0.47241 0.8541 0.93179 0.0
C2508 C 0.48927 0.86554 0.94017 0.0
C2509 C 0.54631 0.9716 0.9693 0.0
C2510 C 0.54161 0.97248 0.98716 0.0
C2511 C 0.54613 0.9533 0.95946 0.0
C2512 C 0.54077 0.93507 0.96689 0.0
C2513 C 0.53575 0.93592 0.98456 0.0
C2514 C 0.53643 0.95421 0.99455 0.0
C2515 C 0.54025 0.9152 0.95639 0.0
C2516 C 0.52362 0.90168 0.94893 0.0
C2517 C 0.55601 0.90945 0.95356 0.0
C2518 C 0.57407 0.92278 0.96078 0.0
C2519 C 0.57796 0.92878 0.97923 0.0
C2520 C 0.59504 0.94143 0.98593 0.0
C2521 C 0.60839 0.94804 0.97431 0.0
C2522 C 0.6047 0.94196 0.95597 0.0
C2523 C 0.58763 0.92934 0.9492 0.0
H2524 H 0.62161 0.95781 0.97953 0.0
H2525 H 0.45746 0.83904 0.90699 0.0
H2526 H 0.96607 0.77205 0.66464 0.0
H2527 H 0.93712 0.77055 0.67698 0.0
H2528 H 0.96567 0.8044 0.72586 0.0
H2529 H 0.99452 0.80578 0.71358 0.0
H2530 H 0.93814 0.77882 0.73597 0.0
H2531 H 0.94115 0.82322 0.6926 0.0
H2532 H 0.94457 0.83557 0.66318 0.0
H2533 H 0.89794 0.78758 0.64076 0.0
H2534 H 0.89439 0.77477 0.67003 0.0
H2535 H 0.86022 0.80184 0.77079 0.0
H2536 H 0.88905 0.80373 0.75806 0.0
H2537 H 0.86058 0.76172 0.71325 0.0
H2538 H 0.83175 0.75956 0.72609 0.0
H2539 H 0.88793 0.79166 0.70122 0.0
H2540 H 0.88476 0.74968 0.74766 0.0
H2541 H 0.88114 0.74195 0.77855 0.0
H2542 H 0.92962 0.78959 0.79675 0.0
H2543 H 0.93303 0.79829 0.76601 0.0
C2544 C 0.96631 0.77939 0.67796 0.0
C2545 C 0.98315 0.78923 0.68782 0.0
C2546 C 0.94949 0.77857 0.68514 0.0
C2547 C 0.94852 0.78752 0.70262 0.0
C2548 C 0.96538 0.79724 0.71245 0.0
C2549 C 0.98216 0.79816 0.70525 0.0
C2550 C 0.93026 0.78665 0.71064 0.0
C2551 C 0.92736 0.7819 0.72827 0.0
C2552 C 0.91551 0.79041 0.70111 0.0
C2553 C 0.91764 0.79789 0.68345 0.0
C2554 C 0.93172 0.81519 0.68136 0.0
C2555 C 0.93367 0.8223 0.66472 0.0
C2556 C 0.92151 0.81233 0.6501 0.0
C2557 C 0.90737 0.79525 0.6521 0.0
C2558 C 0.90538 0.78806 0.66871 0.0
C2559 C 0.85995 0.79286 0.75826 0.0
C2560 C 0.84315 0.78042 0.74976 0.0
C2561 C 0.8767 0.79395 0.75087 0.0
C2562 C 0.87762 0.78285 0.73444 0.0
C2563 C 0.86081 0.77061 0.72583 0.0
C2564 C 0.84408 0.76928 0.73335 0.0
C2565 C 0.89584 0.78374 0.72644 0.0
C2566 C 0.89872 0.78851 0.70884 0.0
C2567 C 0.91069 0.78041 0.73615 0.0
C2568 C 0.90904 0.77479 0.75453 0.0
C2569 C 0.89458 0.75864 0.75825 0.0
C2570 C 0.89254 0.7541 0.77576 0.0
C2571 C 0.90518 0.76523 0.78962 0.0
C2572 C 0.91984 0.78099 0.786 0.0
C2573 C 0.92178 0.7858 0.76854 0.0
H2574 H 0.90361 0.76163 0.80317 0.0
H2575 H 0.92303 0.81786 0.63723 0.0
H2576 H 0.14106 0.04805 0.84842 0.0
H2577 H 0.12918 0.05987 0.87537 0.0
H2578 H 0.07691 0.01682 0.85868 0.0
H2579 H 0.08833 0.00682 0.83114 0.0
H2580 H 0.07054 0.04376 0.8765 0.0
H2581 H 0.11642 0.00985 0.88674 0.0
H2582 H 0.14694 0.00605 0.88848 0.0
H2583 H 0.16711 0.06131 0.92294 0.0
H2584 H 0.13675 0.06554 0.92118 0.0
H2585 H 0.03696 0.99228 0.94798 0.0
H2586 H 0.05221 0.00315 0.92139 0.0
H2587 H 0.08737 0.0558 0.95335 0.0
H2588 H 0.07269 0.04455 0.97992 0.0
H2589 H 0.10518 0.03678 0.93111 0.0
H2590 H 0.05321 0.06051 0.92632 0.0
H2591 H 0.02052 0.05575 0.92675 0.0
H2592 H 0.00952 0.00964 0.8825 0.0
H2593 H 0.04211 0.014 0.8819 0.0
C2594 C 0.1269 0.04173 0.8504 0.0
C2595 C 0.11552 0.0265 0.83802 0.0
C2596 C 0.12016 0.0483 0.86582 0.0
C2597 C 0.10231 0.03877 0.86945 0.0
C2598 C 0.09073 0.02449 0.85632 0.0
C2599 C 0.09724 0.01865 0.84059 0.0
C2600 C 0.09597 0.04153 0.8874 0.0
C2601 C 0.07819 0.04229 0.88842 0.0
C2602 C 0.10606 0.04029 0.90322 0.0
C2603 C 0.12445 0.03822 0.9035 0.0
C2604 C 0.12743 0.0213 0.89448 0.0
C2605 C 0.14468 0.01905 0.89552 0.0
C2606 C 0.15897 0.03348 0.90574 0.0
C2607 C 0.15606 0.0502 0.91495 0.0
C2608 C 0.13885 0.05257 0.91389 0.0
C2609 C 0.04815 0.00595 0.94924 0.0
C2610 C 0.05401 0.01745 0.96581 0.0
C2611 C 0.05665 0.01228 0.93414 0.0
C2612 C 0.0706 0.03047 0.93549 0.0
C2613 C 0.07656 0.0418 0.95213 0.0
C2614 C 0.06834 0.03527 0.96724 0.0
C2615 C 0.07949 0.03717 0.91958 0.0
C2616 C 0.09779 0.03875 0.91921 0.0
C2617 C 0.06964 0.03954 0.90422 0.0
C2618 C 0.05011 0.03765 0.90403 0.0
C2619 C 0.04382 0.04939 0.91666 0.0
C2620 C 0.0253 0.04674 0.91695 0.0
C2621 C 0.01295 0.03241 0.90466 0.0
C2622 C 0.0191 0.02077 0.89199 0.0
C2623 C 0.03759 0.02338 0.89162 0.0
H2624 H 0.99863 0.03034 0.90495 0.0
H2625 H 0.1723 0.03167 0.90659 0.0
H2626 H 0.81056 0.36291 0.53309 0.0
H2627 H 0.81147 0.34854 0.56113 0.0
H2628 H 0.7978 0.39758 0.58891 0.0
H2629 H 0.79633 0.41177 0.56064 0.0
H2630 H 0.83222 0.39093 0.60088 0.0
H2631 H 0.76878 0.35669 0.58962 0.0
H2632 H 0.74106 0.33588 0.5716 0.0
H2633 H 0.7633 0.28723 0.56536 0.0
H2634 H 0.79126 0.30783 0.58317 0.0
H2635 H 0.8341 0.35 0.68399 0.0
H2636 H 0.8291 0.3666 0.65825 0.0
H2637 H 0.82626 0.31373 0.62302 0.0
H2638 H 0.83014 0.29668 0.64862 0.0
H2639 H 0.79766 0.32459 0.61657 0.0
H2640 H 0.86134 0.35768 0.62437 0.0
H2641 H 0.89066 0.37774 0.64003 0.0
H2642 H 0.87031 0.42743 0.65037 0.0
H2643 H 0.84075 0.40756 0.63497 0.0
C2644 C 0.80717 0.37024 0.54509 0.0
C2645 C 0.80336 0.38835 0.54483 0.0
C2646 C 0.8077 0.36207 0.56104 0.0
C2647 C 0.80476 0.37209 0.57698 0.0
C2648 C 0.80004 0.38968 0.57665 0.0
C2649 C 0.79908 0.39765 0.56055 0.0
C2650 C 0.80878 0.36525 0.59404 0.0
C2651 C 0.82447 0.37665 0.60465 0.0
C2652 C 0.79897 0.34632 0.59836 0.0
C2653 C 0.78217 0.33387 0.58764 0.0
C2654 C 0.76782 0.34161 0.58429 0.0
C2655 C 0.75205 0.32983 0.57414 0.0
C2656 C 0.75043 0.31025 0.56731 0.0
C2657 C 0.76457 0.3024 0.57066 0.0
C2658 C 0.78037 0.31411 0.5808 0.0
C2659 C 0.8326 0.34198 0.67075 0.0
C2660 C 0.83224 0.3219 0.6684 0.0
C2661 C 0.82992 0.35157 0.65604 0.0
C2662 C 0.82716 0.34133 0.63874 0.0
C2663 C 0.8282 0.32183 0.63629 0.0
C2664 C 0.83067 0.31218 0.65096 0.0
C2665 C 0.8214 0.35007 0.62337 0.0
C2666 C 0.80535 0.33902 0.61306 0.0
C2667 C 0.8311 0.36917 0.61914 0.0
C2668 C 0.84874 0.38103 0.62872 0.0
C2669 C 0.86304 0.3728 0.63017 0.0
C2670 C 0.87972 0.38416 0.63895 0.0
C2671 C 0.88233 0.40383 0.64624 0.0
C2672 C 0.86826 0.41218 0.64475 0.0
C2673 C 0.85154 0.40088 0.63599 0.0
H2674 H 0.89527 0.4126 0.65301 0.0
H2675 H 0.73821 0.30116 0.55946 0.0
H2676 H 0.44067 0.02624 0.34746 0.0
H2677 H 0.4554 0.01847 0.37376 0.0
H2678 H 0.50202 0.01931 0.34509 0.0
H2679 H 0.48753 0.02747 0.31866 0.0
H2680 H 0.47997 0.99007 0.38215 0.0
H2681 H 0.52017 0.05541 0.35852 0.0
H2682 H 0.52065 0.08626 0.3456 0.0
H2683 H 0.48351 0.09705 0.38253 0.0
H2684 H 0.48263 0.06609 0.39542 0.0
H2685 H 0.54503 0.01494 0.45759 0.0
H2686 H 0.53244 0.00967 0.42645 0.0
H2687 H 0.50456 0.05303 0.43875 0.0
H2688 H 0.51733 0.0587 0.46955 0.0
H2689 H 0.51834 0.05754 0.40845 0.0
H2690 H 0.48314 0.00481 0.43759 0.0
H2691 H 0.47663 0.97627 0.45508 0.0
H2692 H 0.49461 0.94224 0.41389 0.0
H2693 H 0.50161 0.97078 0.39629 0.0
C2694 C 0.45378 0.0241 0.34649 0.0
C2695 C 0.46317 0.02799 0.33119 0.0
C2696 C 0.4621 0.0195 0.3615 0.0
C2697 C 0.47977 0.01855 0.36125 0.0
C2698 C 0.48833 0.02003 0.34537 0.0
C2699 C 0.48009 0.0248 0.33037 0.0
C2700 C 0.49052 0.021 0.37827 0.0
C2701 C 0.48875 0.00464 0.38783 0.0
C2702 C 0.50101 0.04025 0.38592 0.0
C2703 C 0.50112 0.05837 0.37768 0.0
C2704 C 0.51195 0.06426 0.3637 0.0
C2705 C 0.51233 0.08177 0.35643 0.0
C2706 C 0.50207 0.09357 0.3632 0.0
C2707 C 0.49139 0.08787 0.37724 0.0
C2708 C 0.49091 0.07033 0.38449 0.0
C2709 C 0.53666 0.02376 0.45348 0.0
C2710 C 0.53208 0.03719 0.4659 0.0
C2711 C 0.52929 0.02051 0.43582 0.0
C2712 C 0.51736 0.03069 0.43052 0.0
C2713 C 0.5137 0.04497 0.44268 0.0
C2714 C 0.52104 0.04824 0.46023 0.0
C2715 C 0.5084 0.02652 0.41237 0.0
C2716 C 0.51019 0.04271 0.40266 0.0
C2717 C 0.49727 0.00725 0.40513 0.0
C2718 C 0.4932 0.99008 0.41573 0.0
C2719 C 0.48594 0.99135 0.43235 0.0
C2720 C 0.48211 0.97514 0.44227 0.0
C2721 C 0.48528 0.95748 0.43564 0.0
C2722 C 0.49223 0.95597 0.41904 0.0
C2723 C 0.49614 0.97216 0.40909 0.0
H2724 H 0.48232 0.94495 0.44334 0.0
H2725 H 0.50244 0.10716 0.3576 0.0
H2726 H 0.7822 0.69539 0.06531 0.0
H2727 H 0.77934 0.70439 0.09676 0.0
H2728 H 0.81456 0.76385 0.09391 0.0
H2729 H 0.81845 0.75435 0.06263 0.0
H2730 H 0.8238 0.75401 0.1228 0.0
H2731 H 0.76428 0.74806 0.09652 0.0
H2732 H 0.73525 0.73119 0.07878 0.0
H2733 H 0.72351 0.68503 0.11323 0.0
H2734 H 0.75263 0.70137 0.13095 0.0
H2735 H 0.8059 0.79546 0.20738 0.0
H2736 H 0.80691 0.78722 0.17513 0.0
H2737 H 0.77848 0.7256 0.17941 0.0
H2738 H 0.77734 0.73398 0.21164 0.0
H2739 H 0.76536 0.73681 0.1501 0.0
H2740 H 0.82438 0.74236 0.17608 0.0
H2741 H 0.85299 0.75912 0.19445 0.0
H2742 H 0.86533 0.80599 0.16072 0.0
H2743 H 0.83654 0.78974 0.1424 0.0
C2744 C 0.78912 0.7105 0.07127 0.0
C2745 C 0.80041 0.7242 0.06128 0.0
C2746 C 0.78741 0.71571 0.08938 0.0
C2747 C 0.79639 0.73504 0.09795 0.0
C2748 C 0.80741 0.74885 0.08783 0.0
C2749 C 0.80954 0.74346 0.06983 0.0
C2750 C 0.79498 0.74059 0.11753 0.0
C2751 C 0.81092 0.75053 0.12859 0.0
C2752 C 0.77832 0.73561 0.12557 0.0
C2753 C 0.76073 0.72586 0.11496 0.0
C2754 C 0.75557 0.73423 0.10023 0.0
C2755 C 0.7391 0.72475 0.09017 0.0
C2756 C 0.72758 0.70699 0.09482 0.0
C2757 C 0.73248 0.69873 0.10959 0.0
C2758 C 0.74896 0.7081 0.11964 0.0
C2759 C 0.79986 0.78018 0.20138 0.0
C2760 C 0.79159 0.76533 0.21195 0.0
C2761 C 0.80048 0.77544 0.18295 0.0
C2762 C 0.79294 0.75569 0.1747 0.0
C2763 C 0.78441 0.74093 0.18533 0.0
C2764 C 0.78382 0.74568 0.20375 0.0
C2765 C 0.79409 0.75037 0.15512 0.0
C2766 C 0.77816 0.74041 0.14415 0.0
C2767 C 0.81072 0.75533 0.14715 0.0
C2768 C 0.8282 0.76493 0.15797 0.0
C2769 C 0.83313 0.75632 0.17265 0.0
C2770 C 0.84939 0.76573 0.18306 0.0
C2771 C 0.86098 0.78363 0.17877 0.0
C2772 C 0.85633 0.79213 0.16404 0.0
C2773 C 0.84003 0.78284 0.15365 0.0
H2774 H 0.87357 0.79092 0.18682 0.0
H2775 H 0.71484 0.69967 0.08701 0.0
H2776 H 0.12199 0.02093 0.77057 0.0
H2777 H 0.11138 0.04469 0.75475 0.0
H2778 H 0.12912 0.02285 0.70579 0.0
H2779 H 0.13979 0.99973 0.72131 0.0
H2780 H 0.13501 0.06146 0.70719 0.0
H2781 H 0.08546 0.00305 0.71925 0.0
H2782 H 0.06613 0.98239 0.73945 0.0
H2783 H 0.05111 0.03295 0.76124 0.0
H2784 H 0.07057 0.05395 0.7413 0.0
H2785 H 0.07903 0.03824 0.62936 0.0
H2786 H 0.09436 0.03795 0.65819 0.0
H2787 H 0.06947 0.07955 0.68273 0.0
H2788 H 0.05433 0.08043 0.65361 0.0
H2789 H 0.06823 0.04503 0.70143 0.0
H2790 H 0.11133 0.0979 0.67772 0.0
H2791 H 0.12924 0.11355 0.65408 0.0
H2792 H 0.15581 0.06839 0.65108 0.0
H2793 H 0.13784 0.05225 0.67443 0.0
C2794 C 0.12389 0.02157 0.75651 0.0
C2795 C 0.13137 0.00823 0.74706 0.0
C2796 C 0.11783 0.0351 0.74751 0.0
C2797 C 0.11927 0.03538 0.72904 0.0
C2798 C 0.12787 0.02297 0.72003 0.0
C2799 C 0.13383 0.00957 0.72891 0.0
C2800 C 0.11027 0.04658 0.7182 0.0
C2801 C 0.12043 0.05816 0.70609 0.0
C2802 C 0.09128 0.04271 0.71707 0.0
C2803 C 0.07965 0.03011 0.72903 0.0
C2804 C 0.07814 0.00977 0.72846 0.0
C2805 C 0.06716 0.99801 0.73984 0.0
C2806 C 0.05746 0.00637 0.75168 0.0
C2807 C 0.05869 0.02651 0.75212 0.0
C2808 C 0.0697 0.03835 0.7408 0.0
C2809 C 0.07698 0.04759 0.64079 0.0
C2810 C 0.06566 0.0596 0.6391 0.0
C2811 C 0.08569 0.04732 0.65727 0.0
C2812 C 0.08327 0.059 0.67247 0.0
C2813 C 0.07158 0.07057 0.67107 0.0
C2814 C 0.0629 0.07096 0.65447 0.0
C2815 C 0.09292 0.05855 0.68971 0.0
C2816 C 0.08287 0.04917 0.70302 0.0
C2817 C 0.11199 0.06387 0.69162 0.0
C2818 C 0.12321 0.07387 0.67788 0.0
C2819 C 0.12094 0.09126 0.67198 0.0
C2820 C 0.1311 0.10021 0.65861 0.0
C2821 C 0.14365 0.09197 0.65109 0.0
C2822 C 0.1461 0.07478 0.65694 0.0
C2823 C 0.13595 0.06575 0.67027 0.0
H2824 H 0.15149 0.09891 0.64073 0.0
H2825 H 0.04895 0.99724 0.76047 0.0
H2826 H 0.79847 0.35184 0.46671 0.0
H2827 H 0.79077 0.33194 0.43732 0.0
H2828 H 0.78036 0.38172 0.41496 0.0
H2829 H 0.7864 0.4007 0.4445 0.0
H2830 H 0.7596 0.35185 0.39782 0.0
H2831 H 0.82329 0.37022 0.41521 0.0
H2832 H 0.85087 0.37211 0.43383 0.0
H2833 H 0.83685 0.30826 0.42702 0.0
H2834 H 0.80907 0.30599 0.40852 0.0
H2835 H 0.79623 0.33403 0.31173 0.0
H2836 H 0.7954 0.34804 0.34267 0.0
H2837 H 0.76649 0.28958 0.35551 0.0
H2838 H 0.76676 0.27556 0.32467 0.0
H2839 H 0.8056 0.32108 0.37703 0.0
H2840 H 0.74043 0.30681 0.35745 0.0
H2841 H 0.71676 0.31011 0.33606 0.0
H2842 H 0.73937 0.37385 0.34463 0.0
H2843 H 0.76333 0.37087 0.36587 0.0
C2844 C 0.79394 0.35814 0.45554 0.0
C2845 C 0.7929 0.37763 0.4577 0.0
C2846 C 0.78981 0.34695 0.43874 0.0
C2847 C 0.78556 0.35555 0.42377 0.0
C2848 C 0.78361 0.3747 0.42623 0.0
C2849 C 0.78703 0.38555 0.44311 0.0
C2850 C 0.78415 0.34529 0.40543 0.0
C2851 C 0.76973 0.34519 0.39339 0.0
C2852 C 0.79738 0.33662 0.39943 0.0
C2853 C 0.81399 0.33794 0.41068 0.0
C2854 C 0.82602 0.35659 0.4178 0.0
C2855 C 0.8417 0.35772 0.42831 0.0
C2856 C 0.84558 0.34031 0.43165 0.0
C2857 C 0.83381 0.32173 0.42446 0.0
C2858 C 0.8181 0.32051 0.41396 0.0
C2859 C 0.78952 0.32426 0.32113 0.0
C2860 C 0.78148 0.30378 0.31586 0.0
C2861 C 0.78907 0.33223 0.3387 0.0
C2862 C 0.78084 0.31975 0.35115 0.0
C2863 C 0.77277 0.29936 0.34594 0.0
C2864 C 0.77288 0.29144 0.32833 0.0
C2865 C 0.78123 0.32788 0.36984 0.0
C2866 C 0.79546 0.32758 0.38178 0.0
C2867 C 0.76831 0.33687 0.37559 0.0
C2868 C 0.75375 0.3386 0.36307 0.0
C2869 C 0.74044 0.3215 0.35463 0.0
C2870 C 0.72696 0.32332 0.34257 0.0
C2871 C 0.72659 0.34218 0.33895 0.0
C2872 C 0.73968 0.35925 0.34743 0.0
C2873 C 0.7532 0.35751 0.35948 0.0
H2874 H 0.71614 0.34355 0.3296 0.0
H2875 H 0.85773 0.34123 0.43978 0.0
H2876 H 0.46659 0.0469 0.27016 0.0
H2877 H 0.47193 0.01987 0.25047 0.0
H2878 H 0.45232 0.0421 0.20484 0.0
H2879 H 0.44653 0.0684 0.22439 0.0
H2880 H 0.44587 0.00351 0.1979 0.0
H2881 H 0.49738 0.06153 0.22389 0.0
H2882 H 0.51766 0.08227 0.24937 0.0
H2883 H 0.531 0.03101 0.26412 0.0
H2884 H 0.5106 0.00995 0.23881 0.0
H2885 H 0.49655 0.02651 0.12767 0.0
H2886 H 0.48415 0.02785 0.15662 0.0
H2887 H 0.51144 0.98716 0.17374 0.0
H2888 H 0.52412 0.98591 0.1446 0.0
H2889 H 0.51259 0.01966 0.19983 0.0
H2890 H 0.46839 0.96836 0.16115 0.0
H2891 H 0.45027 0.95475 0.13244 0.0
H2892 H 0.42397 1.0 0.1388 0.0
H2893 H 0.44218 0.01416 0.16734 0.0
C2894 C 0.46271 0.04538 0.25601 0.0
C2895 C 0.4564 0.05977 0.24869 0.0
C2896 C 0.46583 0.03003 0.24478 0.0
C2897 C 0.46287 0.02923 0.22617 0.0
C2898 C 0.45475 0.0424 0.21914 0.0
C2899 C 0.4516 0.05757 0.2303 0.0
C2900 C 0.47112 0.01777 0.21366 0.0
C2901 C 0.46042 0.00663 0.19844 0.0
C2902 C 0.49011 0.02156 0.21452 0.0
C2903 C 0.50232 0.03416 0.22968 0.0
C2904 C 0.50458 0.0547 0.23265 0.0
C2905 C 0.51608 0.0665 0.24704 0.0
C2906 C 0.52556 0.05795 0.2584 0.0
C2907 C 0.52359 0.03759 0.25535 0.0
C2908 C 0.51206 0.02571 0.241 0.0
C2909 C 0.50003 0.018 0.13768 0.0
C2910 C 0.51105 0.00592 0.13394 0.0
C2911 C 0.4929 0.01869 0.15412 0.0
C2912 C 0.49647 0.0071 0.16702 0.0
C2913 C 0.50837 0.99594 0.16379 0.0
C2914 C 0.51564 0.99534 0.14727 0.0
C2915 C 0.4874 0.00676 0.18368 0.0
C2916 C 0.49797 0.01549 0.19963 0.0
C2917 C 0.46834 1.00142 0.18322 0.0
C2918 C 0.45664 0.99228 0.16648 0.0
C2919 C 0.45874 0.97541 0.15644 0.0
C2920 C 0.44848 0.96763 0.14016 0.0
C2921 C 0.43596 0.97649 0.13381 0.0
C2922 C 0.43363 0.99311 0.14376 0.0
C2923 C 0.4439 1.001 0.16002 0.0
H2924 H 0.42807 0.97048 0.12117 0.0
H2925 H 0.53447 0.06711 0.26953 0.0
H2926 H 0.77613 0.69999 0.95473 0.0
H2927 H 0.77499 0.70862 0.92416 0.0
H2928 H 0.8195 0.76212 0.9394 0.0
H2929 H 0.82104 0.75336 0.96995 0.0
H2930 H 0.79011 0.7667 0.9157 0.0
H2931 H 0.82948 0.72577 0.91993 0.0
H2932 H 0.83711 0.69585 0.92704 0.0
H2933 H 0.79373 0.65904 0.88973 0.0
H2934 H 0.78566 0.68873 0.8826 0.0
H2935 H 0.81519 0.79235 0.83089 0.0
H2936 H 0.81541 0.78417 0.86151 0.0
H2937 H 0.78426 0.72333 0.84292 0.0
H2938 H 0.78494 0.73134 0.81199 0.0
H2939 H 0.80569 0.72197 0.86873 0.0
H2940 H 0.76591 0.76139 0.86364 0.0
H2941 H 0.75641 0.79028 0.85679 0.0
H2942 H 0.79749 0.8286 0.89557 0.0
H2943 H 0.8074 0.79998 0.90249 0.0
C2944 C 0.78544 0.71384 0.95175 0.0
C2945 C 0.79866 0.72598 0.96495 0.0
C2946 C 0.78485 0.71867 0.93415 0.0
C2947 C 0.79726 0.73595 0.92934 0.0
C2948 C 0.80979 0.7487 0.94271 0.0
C2949 C 0.81063 0.74367 0.96023 0.0
C2950 C 0.79779 0.74014 0.91024 0.0
C2951 C 0.79371 0.75706 0.90545 0.0
C2952 C 0.80195 0.72728 0.89669 0.0
C2953 C 0.80685 0.70944 0.90088 0.0
C2954 C 0.82147 0.71127 0.91336 0.0
C2955 C 0.82589 0.69436 0.91737 0.0
C2956 C 0.81588 0.67555 0.90888 0.0
C2957 C 0.80145 0.67362 0.89632 0.0
C2958 C 0.79696 0.69048 0.89228 0.0
C2959 C 0.80857 0.77714 0.83327 0.0
C2960 C 0.80002 0.76252 0.81891 0.0
C2961 C 0.8085 0.7725 0.85091 0.0
C2962 C 0.79933 0.75323 0.85488 0.0
C2963 C 0.79134 0.73838 0.84044 0.0
C2964 C 0.79177 0.74294 0.82268 0.0
C2965 C 0.79804 0.74869 0.87398 0.0
C2966 C 0.80199 0.73166 0.87885 0.0
C2967 C 0.79345 0.76131 0.88757 0.0
C2968 C 0.78751 0.77856 0.88346 0.0
C2969 C 0.773 0.776 0.87063 0.0
C2970 C 0.76753 0.79233 0.86674 0.0
C2971 C 0.77637 0.81127 0.87571 0.0
C2972 C 0.79067 0.81392 0.88862 0.0
C2973 C 0.79621 0.79765 0.89254 0.0
H2974 H 0.77212 0.8239 0.87268 0.0
H2975 H 0.81933 0.66247 0.912 0.0
H2976 H 0.80025 0.06746 0.04338 0.0
H2977 H 0.82468 0.05423 0.03608 0.0
H2978 H 0.8596 0.11376 0.03264 0.0
H2979 H 0.83452 0.12696 0.03871 0.0
H2980 H 0.86118 0.09175 0.00467 0.0
H2981 H 0.86545 0.08244 0.06673 0.0
H2982 H 0.85395 0.07129 0.09499 0.0
H2983 H 0.83478 0.01071 0.07018 0.0
H2984 H 0.84596 0.02151 0.04172 0.0
H2985 H 0.93882 0.05801 0.99521 0.0
H2986 H 0.91611 0.07412 0.00317 0.0
H2987 H 0.876 0.01652 0.00097 0.0
H2988 H 0.89875 1.00026 0.99345 0.0
H2989 H 0.87849 0.03886 0.03249 0.0
H2990 H 0.87349 0.04823 0.97054 0.0
H2991 H 0.88364 0.05928 0.94183 0.0
H2992 H 0.90398 0.11986 0.9665 0.0
H2993 H 0.89416 0.10914 0.99543 0.0
C2994 C 0.81328 0.07783 0.04162 0.0
C2995 C 0.81551 0.09824 0.04157 0.0
C2996 C 0.82733 0.07023 0.03749 0.0
C2997 C 0.84411 0.08298 0.03394 0.0
C2998 C 0.84675 0.10361 0.03524 0.0
C2999 C 0.83249 0.11117 0.03886 0.0
C3000 C 0.85808 0.07454 0.02698 0.0
C3001 C 0.86528 0.08052 0.01101 0.0
C3002 C 0.86297 0.05936 0.03486 0.0
C3003 C 0.85647 0.05282 0.05206 0.0
C3004 C 0.85871 0.06676 0.06728 0.0
C3005 C 0.85225 0.06049 0.08334 0.0
C3006 C 0.84362 0.04031 0.08437 0.0
C3007 C 0.84147 0.02634 0.06936 0.0
C3008 C 0.8479 0.03252 0.05328 0.0
C3009 C 0.9251 0.04878 0.9962 0.0
C3010 C 0.92059 0.02785 0.99394 0.0
C3011 C 0.91212 0.05802 0.00058 0.0
C3012 C 0.89441 0.04651 0.00269 0.0
C3013 C 0.88963 0.02565 -0.00057 0.0
C3014 C 0.9026 0.01639 0.99502 0.0
C3015 C 0.88148 0.05606 0.01023 0.0
C3016 C 0.87451 0.05027 0.02631 0.0
C3017 C 0.87689 0.07146 0.0025 0.0
C3018 C 0.88328 0.07784 0.98522 0.0
C3019 C 0.88033 0.06388 0.96991 0.0
C3020 C 0.88596 0.07009 0.95357 0.0
C3021 C 0.89449 0.09025 0.95235 0.0
C3022 C 0.8974 0.10424 0.96747 0.0
C3023 C 0.89179 0.09811 0.98383 0.0
H3024 H 0.89881 0.09503 0.93969 0.0
H3025 H 0.83862 0.0355 0.09681 0.0
H3026 H 0.34296 0.3787 0.01435 0.0
H3027 H 0.37363 0.40002 0.0114 0.0
H3028 H 0.35598 0.45218 0.02082 0.0
H3029 H 0.3251 0.43075 0.02227 0.0
H3030 H 0.37877 0.45985 -0.00124 0.0
H3031 H 0.37972 0.43338 0.05444 0.0
H3032 H 0.37469 0.40727 0.07463 0.0
H3033 H 0.41077 0.38165 0.04704 0.0
H3034 H 0.41585 0.40747 0.02654 0.0
H3035 H 0.47061 0.52385 0.02512 0.0
H3036 H 0.43853 0.50516 0.02571 0.0
H3037 H 0.44823 0.45226 0.00086 0.0
H3038 H 0.47999 0.47063 1e-05 0.0
H3039 H 0.42973 0.44702 0.03238 0.0
H3040 H 0.42769 0.47596 0.97662 0.0
H3041 H 0.43279 0.5043 0.95891 0.0
H3042 H 0.39872 0.52853 0.99105 0.0
H3043 H 0.39361 0.50045 0.0091 0.0
C3044 C 0.34568 0.39471 0.0156 0.0
C3045 C 0.33181 0.40316 0.01862 0.0
C3046 C 0.36322 0.40693 0.01409 0.0
C3047 C 0.36734 0.42783 0.01644 0.0
C3048 C 0.35327 0.43616 0.019 0.0
C3049 C 0.33563 0.42392 0.01986 0.0
C3050 C 0.38628 0.44101 0.01652 0.0
C3051 C 0.38982 0.45715 0.00635 0.0
C3052 C 0.40086 0.43765 0.0264 0.0
C3053 C 0.39805 0.42227 0.03887 0.0
C3054 C 0.38652 0.42213 0.05263 0.0
C3055 C 0.38366 0.40738 0.06413 0.0
C3056 C 0.39237 0.39279 0.06209 0.0
C3057 C 0.40402 0.39296 0.04859 0.0
C3058 C 0.40691 0.40766 0.03704 0.0
C3059 C 0.46585 0.5083 0.01961 0.0
C3060 C 0.47789 0.49875 0.01256 0.0
C3061 C 0.44755 0.49767 0.01997 0.0
C3062 C 0.44109 0.47734 0.01338 0.0
C3063 C 0.45299 0.46792 0.00607 0.0
C3064 C 0.47115 0.47851 0.00555 0.0
C3065 C 0.42205 0.46549 0.01449 0.0
C3066 C 0.41855 0.44968 0.02494 0.0
C3067 C 0.40751 0.4695 0.00531 0.0
C3068 C 0.41042 0.48622 0.99431 0.0
C3069 C 0.4214 0.48741 0.97999 0.0
C3070 C 0.42427 0.50341 0.96988 0.0
C3071 C 0.41613 0.51824 0.97389 0.0
C3072 C 0.40504 0.51705 0.98798 0.0
C3073 C 0.40214 0.50109 -0.00186 0.0
H3074 H 0.41837 0.53062 0.96605 0.0
H3075 H 0.39013 0.38137 0.071 0.0
H3076 H 0.39373 0.58738 0.72335 0.0
H3077 H 0.37315 0.60708 0.72907 0.0
H3078 H 0.33467 0.55615 0.74656 0.0
H3079 H 0.3554 0.53664 0.74142 0.0
H3080 H 0.33575 0.60676 0.72454 0.0
H3081 H 0.33209 0.56729 0.78698 0.0
H3082 H 0.3501 0.54976 0.80284 0.0
H3083 H 0.39889 0.58871 0.78646 0.0
H3084 H 0.38114 0.60641 0.77054 0.0
H3085 H 0.27546 0.63968 0.77319 0.0
H3086 H 0.29078 0.61643 0.76165 0.0
H3087 H 0.33949 0.65049 0.79408 0.0
H3088 H 0.32398 0.67353 0.80644 0.0
H3089 H 0.33553 0.6106 0.79065 0.0
H3090 H 0.3353 0.66047 0.75355 0.0
H3091 H 0.32242 0.6818 0.73673 0.0
H3092 H 0.28977 0.63038 0.70212 0.0
H3093 H 0.30215 0.60865 0.71907 0.0
C3094 C 0.38049 0.58015 0.72754 0.0
C3095 C 0.37616 0.56072 0.73231 0.0
C3096 C 0.36877 0.5914 0.73079 0.0
C3097 C 0.35268 0.58311 0.7386 0.0
C3098 C 0.34718 0.56278 0.74072 0.0
C3099 C 0.35899 0.55168 0.73779 0.0
C3100 C 0.34398 0.59628 0.74833 0.0
C3101 C 0.33549 0.6075 0.73894 0.0
C3102 C 0.34459 0.59797 0.7672 0.0
C3103 C 0.35532 0.58815 0.77766 0.0
C3104 C 0.34667 0.57221 0.78695 0.0
C3105 C 0.35682 0.56219 0.79585 0.0
C3106 C 0.37563 0.56812 0.79566 0.0
C3107 C 0.38433 0.58413 0.78661 0.0
C3108 C 0.37424 0.59414 0.77764 0.0
C3109 C 0.28919 0.64188 0.7785 0.0
C3110 C 0.29855 0.65868 0.79061 0.0
C3111 C 0.29799 0.62866 0.77168 0.0
C3112 C 0.31634 0.63209 0.77668 0.0
C3113 C 0.32534 0.64775 0.78993 0.0
C3114 C 0.31649 0.66096 0.79688 0.0
C3115 C 0.32643 0.62048 0.7668 0.0
C3116 C 0.33548 0.60971 0.77622 0.0
C3117 C 0.32699 0.61995 0.74801 0.0
C3118 C 0.3195 0.63291 0.73771 0.0
C3119 C 0.32525 0.65368 0.74246 0.0
C3120 C 0.31806 0.66585 0.73287 0.0
C3121 C 0.30527 0.65746 0.71835 0.0
C3122 C 0.29966 0.63686 0.71339 0.0
C3123 C 0.30675 0.6246 0.72299 0.0
H3124 H 0.29972 0.66691 0.71093 0.0
H3125 H 0.38345 0.56031 0.80252 0.0
H3126 H 0.22507 0.59213 0.48453 0.0
H3127 H 0.19799 0.59167 0.49992 0.0
H3128 H 0.22195 0.57693 0.54736 0.0
H3129 H 0.24922 0.57785 0.53211 0.0
H3130 H 0.18906 0.54866 0.53117 0.0
H3131 H 0.21122 0.61516 0.55554 0.0
H3132 H 0.22627 0.6514 0.5584 0.0
H3133 H 0.18694 0.65761 0.51927 0.0
H3134 H 0.17172 0.62137 0.51603 0.0
H3135 H 0.09778 0.53296 0.5524 0.0
H3136 H 0.13064 0.54651 0.5568 0.0
H3137 H 0.1315 0.57055 0.50643 0.0
H3138 H 0.09854 0.55702 0.50183 0.0
H3139 H 0.15454 0.59729 0.53587 0.0
H3140 H 0.13941 0.52874 0.50639 0.0
H3141 H 0.12463 0.49245 0.50431 0.0
H3142 H 0.15199 0.49087 0.55472 0.0
H3143 H 0.16677 0.52723 0.55718 0.0
C3144 C 0.22459 0.58913 0.49832 0.0
C3145 C 0.23896 0.58487 0.50719 0.0
C3146 C 0.20934 0.58918 0.50717 0.0
C3147 C 0.20821 0.58456 0.52482 0.0
C3148 C 0.2228 0.58087 0.53386 0.0
C3149 C 0.23821 0.58124 0.52512 0.0
C3150 C 0.19051 0.57962 0.53209 0.0
C3151 C 0.18163 0.55938 0.53285 0.0
C3152 C 0.18097 0.59368 0.53413 0.0
C3153 C 0.19036 0.61546 0.53547 0.0
C3154 C 0.20587 0.6242 0.54739 0.0
C3155 C 0.2144 0.64477 0.54914 0.0
C3156 C 0.20756 0.6568 0.53903 0.0
C3157 C 0.19219 0.64828 0.52713 0.0
C3158 C 0.18359 0.62771 0.52536 0.0
C3159 C 0.10495 0.54119 0.54226 0.0
C3160 C 0.09567 0.54389 0.52671 0.0
C3161 C 0.12366 0.54896 0.54487 0.0
C3162 C 0.13331 0.55957 0.532 0.0
C3163 C 0.12412 0.56252 0.51656 0.0
C3164 C 0.10539 0.5546 0.51386 0.0
C3165 C 0.15311 0.56632 0.53385 0.0
C3166 C 0.1622 0.58677 0.53486 0.0
C3167 C 0.16294 0.5525 0.5335 0.0
C3168 C 0.15398 0.5307 0.53209 0.0
C3169 C 0.14212 0.52067 0.51711 0.0
C3170 C 0.13379 0.5001 0.51584 0.0
C3171 C 0.13732 0.48937 0.52941 0.0
C3172 C 0.14923 0.4992 0.54425 0.0
C3173 C 0.15759 0.51979 0.54559 0.0
H3174 H 0.13087 0.47344 0.52839 0.0
H3175 H 0.21416 0.67273 0.54041 0.0
H3176 H 0.6728 0.95213 0.72712 0.0
H3177 H 0.69511 0.9351 0.73334 0.0
H3178 H 0.7264 0.98612 0.76967 0.0
H3179 H 0.70377 0.00292 0.76405 0.0
H3180 H 0.74341 0.95312 0.74523 0.0
H3181 H 0.70175 0.96617 0.79264 0.0
H3182 H 0.67064 0.96554 0.79831 0.0
H3183 H 0.65034 0.90522 0.77294 0.0
H3184 H 0.68133 0.90571 0.76681 0.0
H3185 H 0.78981 0.91567 0.80416 0.0
H3186 H 0.77239 0.93736 0.79597 0.0
H3187 H 0.72396 0.88687 0.78736 0.0
H3188 H 0.74104 0.86539 0.79684 0.0
H3189 H 0.71482 0.91813 0.79519 0.0
H3190 H 0.75117 0.89864 0.75345 0.0
H3191 H 0.7785 0.89341 0.74154 0.0
H3192 H 0.80464 0.95664 0.74815 0.0
H3193 H 0.7775 0.96223 0.76031 0.0
C3194 C 0.6849 0.96006 0.73574 0.0
C3195 C 0.68657 0.97854 0.74545 0.0
C3196 C 0.69762 0.95037 0.7392 0.0
C3197 C 0.71213 0.95942 0.75204 0.0
C3198 C 0.71522 0.97909 0.75967 0.0
C3199 C 0.70229 0.98857 0.75657 0.0
C3200 C 0.72071 0.94694 0.76113 0.0
C3201 C 0.73739 0.94563 0.75629 0.0
C3202 C 0.7122 0.93648 0.77488 0.0
C3203 C 0.69376 0.93604 0.77917 0.0
C3204 C 0.69062 0.95283 0.78821 0.0
C3205 C 0.67302 0.9525 0.79149 0.0
C3206 C 0.65851 0.93536 0.78596 0.0
C3207 C 0.66158 0.9185 0.77719 0.0
C3208 C 0.67914 0.9188 0.7738 0.0
C3209 C 0.7753 0.90938 0.80147 0.0
C3210 C 0.76682 0.88878 0.80052 0.0
C3211 C 0.76541 0.92173 0.79653 0.0
C3212 C 0.74714 0.91346 0.79025 0.0
C3213 C 0.73815 0.89344 0.79181 0.0
C3214 C 0.74794 0.88119 0.79715 0.0
C3215 C 0.73812 0.92484 0.77989 0.0
C3216 C 0.72113 0.92575 0.78432 0.0
C3217 C 0.74597 0.93407 0.76515 0.0
C3218 C 0.76239 0.93084 0.75798 0.0
C3219 C 0.7628 0.91142 0.7525 0.0
C3220 C 0.77824 0.90839 0.74568 0.0
C3221 C 0.79332 0.92469 0.74414 0.0
C3222 C 0.79296 0.94404 0.74939 0.0
C3223 C 0.77755 0.94715 0.75623 0.0
H3224 H 0.80527 0.92232 0.73885 0.0
H3225 H 0.6449 0.93514 0.78851 0.0
H3226 H 0.71865 0.87152 0.52237 0.0
H3227 H 0.69402 0.88562 0.51592 0.0
H3228 H 0.73325 0.94118 0.50798 0.0
H3229 H 0.75757 0.92756 0.51497 0.0
H3230 H 0.71117 0.94904 0.52866 0.0
H3231 H 0.70482 0.90835 0.47319 0.0
H3232 H 0.70081 0.87757 0.45291 0.0
H3233 H 0.64911 0.8511 0.47212 0.0
H3234 H 0.65293 0.88163 0.49273 0.0
H3235 H 0.65349 0.99988 0.49771 0.0
H3236 H 0.67465 0.98054 0.49546 0.0
H3237 H 0.63519 0.93048 0.51297 0.0
H3238 H 0.61362 0.94952 0.51468 0.0
H3239 H 0.65639 0.91901 0.4867 0.0
H3240 H 0.66537 0.96212 0.5431 0.0
H3241 H 0.67053 0.99474 0.56092 0.0
H3242 H 0.71967 0.01858 0.53626 0.0
H3243 H 0.71466 0.98616 0.5181 0.0
C3244 C 0.72193 0.88667 0.51912 0.0
C3245 C 0.74005 0.8985 0.51944 0.0
C3246 C 0.70786 0.89471 0.51533 0.0
C3247 C 0.71172 0.91455 0.51147 0.0
C3248 C 0.72984 0.92596 0.5111 0.0
C3249 C 0.74377 0.91811 0.51513 0.0
C3250 C 0.69724 0.92414 0.50904 0.0
C3251 C 0.69935 0.9425 0.51927 0.0
C3252 C 0.6816 0.91562 0.497 0.0
C3253 C 0.67926 0.8972 0.48468 0.0
C3254 C 0.69267 0.8959 0.47322 0.0
C3255 C 0.69042 0.87851 0.46164 0.0
C3256 C 0.67474 0.86237 0.46127 0.0
C3257 C 0.66126 0.8636 0.47245 0.0
C3258 C 0.66346 0.88095 0.48408 0.0
C3259 C 0.64908 0.9846 0.50064 0.0
C3260 C 0.63187 0.97639 0.5066 0.0
C3261 C 0.66126 0.97357 0.49943 0.0
C3262 C 0.65661 0.95415 0.5043 0.0
C3263 C 0.6391 0.94546 0.50921 0.0
C3264 C 0.62687 0.95647 0.51039 0.0
C3265 C 0.67059 0.94385 0.50616 0.0
C3266 C 0.6683 0.92542 0.49598 0.0
C3267 C 0.68635 0.95245 0.51793 0.0
C3268 C 0.68957 0.97177 0.52917 0.0
C3269 C 0.67723 0.97434 0.54143 0.0
C3270 C 0.68013 0.99279 0.55158 0.0
C3271 C 0.6954 0.00873 0.5497 0.0
C3272 C 0.70784 0.00623 0.53769 0.0
C3273 C 0.70499 0.98782 0.52749 0.0
H3274 H 0.69761 0.02301 0.55756 0.0
H3275 H 0.67301 0.84892 0.45228 0.0
H3276 H 0.41238 0.46814 0.744 0.0
H3277 H 0.3942 0.43311 0.73753 0.0
H3278 H 0.35561 0.44972 0.70433 0.0
H3279 H 0.37418 0.48485 0.71045 0.0
H3280 H 0.34314 0.43365 0.73572 0.0
H3281 H 0.37164 0.41614 0.68532 0.0
H3282 H 0.3965 0.41387 0.66712 0.0
H3283 H 0.41466 0.38163 0.70548 0.0
H3284 H 0.39008 0.38393 0.72405 0.0
H3285 H 0.28881 0.3349 0.74781 0.0
H3286 H 0.30312 0.36568 0.73496 0.0
H3287 H 0.35571 0.36202 0.7521 0.0
H3288 H 0.34147 0.3309 0.76409 0.0
H3289 H 0.356 0.36999 0.71973 0.0
H3290 H 0.33522 0.3957 0.77355 0.0
H3291 H 0.31314 0.39997 0.79466 0.0
H3292 H 0.28407 0.41893 0.75366 0.0
H3293 H 0.30589 0.41456 0.73225 0.0
C3294 C 0.40042 0.46413 0.73472 0.0
C3295 C 0.39449 0.4789 0.72773 0.0
C3296 C 0.39012 0.44417 0.73091 0.0
C3297 C 0.37361 0.43889 0.72041 0.0
C3298 C 0.36842 0.45355 0.71229 0.0
C3299 C 0.37894 0.47352 0.71582 0.0
C3300 C 0.36027 0.41943 0.72178 0.0
C3301 C 0.34558 0.41959 0.73173 0.0
C3302 C 0.36392 0.40133 0.71706 0.0
C3303 C 0.37901 0.40029 0.70613 0.0
C3304 C 0.38102 0.40873 0.68997 0.0
C3305 C 0.39505 0.40739 0.67956 0.0
C3306 C 0.40715 0.39762 0.68514 0.0
C3307 C 0.40527 0.38918 0.70116 0.0
C3308 C 0.39127 0.39047 0.71162 0.0
C3309 C 0.30341 0.34089 0.74901 0.0
C3310 C 0.31409 0.33065 0.75692 0.0
C3311 C 0.31157 0.35841 0.74165 0.0
C3312 C 0.33049 0.36615 0.74255 0.0
C3313 C 0.34109 0.35621 0.75104 0.0
C3314 C 0.33297 0.33853 0.75801 0.0
C3315 C 0.33952 0.38442 0.73453 0.0
C3316 C 0.35326 0.38396 0.72329 0.0
C3317 C 0.33541 0.40243 0.73855 0.0
C3318 C 0.322 0.40448 0.75124 0.0
C3319 C 0.32399 0.40055 0.76899 0.0
C3320 C 0.31156 0.40305 0.78102 0.0
C3321 C 0.29717 0.40964 0.77548 0.0
C3322 C 0.29519 0.41376 0.75791 0.0
C3323 C 0.30758 0.41127 0.74582 0.0
H3324 H 0.28758 0.4116 0.78482 0.0
H3325 H 0.41798 0.39658 0.67704 0.0
H3326 H 0.17367 0.56681 0.28612 0.0
H3327 H 0.1941 0.6004 0.28506 0.0
H3328 H 0.19254 0.58912 0.22773 0.0
H3329 H 0.17213 0.55553 0.2286 0.0
H3330 H 0.22709 0.608 0.24326 0.0
H3331 H 0.16931 0.61695 0.24367 0.0
H3332 H 0.13893 0.61391 0.25331 0.0
H3333 H 0.16233 0.64507 0.30473 0.0
H3334 H 0.19287 0.64805 0.29548 0.0
H3335 H 0.26497 0.71227 0.23379 0.0
H3336 H 0.24648 0.67736 0.23122 0.0
H3337 H 0.24372 0.68202 0.28833 0.0
H3338 H 0.26203 0.71697 0.29104 0.0
H3339 H 0.21058 0.66632 0.27002 0.0
H3340 H 0.26948 0.65623 0.26766 0.0
H3341 H 0.29891 0.65974 0.25546 0.0
H3342 H 0.272 0.63152 0.20432 0.0
H3343 H 0.2424 0.62804 0.21616 0.0
C3344 C 0.17773 0.57143 0.2732 0.0
C3345 C 0.17121 0.55848 0.25739 0.0
C3346 C 0.18933 0.59066 0.27271 0.0
C3347 C 0.19469 0.59727 0.25633 0.0
C3348 C 0.18853 0.58428 0.24052 0.0
C3349 C 0.1768 0.56508 0.24098 0.0
C3350 C 0.20657 0.61786 0.25586 0.0
C3351 C 0.22342 0.62079 0.2489 0.0
C3352 C 0.20172 0.6345 0.26318 0.0
C3353 C 0.18338 0.63252 0.26894 0.0
C3354 C 0.16798 0.62296 0.2571 0.0
C3355 C 0.15073 0.6213 0.26248 0.0
C3356 C 0.1487 0.62925 0.27964 0.0
C3357 C 0.16392 0.6389 0.29145 0.0
C3358 C 0.18121 0.64059 0.28614 0.0
C3359 C 0.26059 0.70583 0.24584 0.0
C3360 C 0.2649 0.71746 0.26262 0.0
C3361 C 0.25009 0.68584 0.24433 0.0
C3362 C 0.24379 0.6771 0.25959 0.0
C3363 C 0.24844 0.68852 0.27639 0.0
C3364 C 0.25893 0.70849 0.27792 0.0
C3365 C 0.23139 0.65647 0.25802 0.0
C3366 C 0.2143 0.65354 0.26443 0.0
C3367 C 0.23592 0.63993 0.24987 0.0
C3368 C 0.25373 0.64206 0.24276 0.0
C3369 C 0.26984 0.65092 0.25378 0.0
C3370 C 0.28655 0.65287 0.24693 0.0
C3371 C 0.28733 0.6459 0.22911 0.0
C3372 C 0.27139 0.63693 0.21811 0.0
C3373 C 0.25464 0.63495 0.22489 0.0
H3374 H 0.30028 0.64742 0.22384 0.0
H3375 H 0.13533 0.62796 0.28378 0.0
H3376 H 0.47834 0.70668 0.46313 0.0
H3377 H 0.48463 0.6794 0.47719 0.0
H3378 H 0.52764 0.68082 0.44315 0.0
H3379 H 0.52183 0.7083 0.42935 0.0
H3380 H 0.49988 0.64271 0.44194 0.0
H3381 H 0.54058 0.69395 0.48254 0.0
H3382 H 0.55049 0.72443 0.50404 0.0
H3383 H 0.51227 0.69631 0.53977 0.0
H3384 H 0.50189 0.66574 0.51831 0.0
H3385 H 0.54178 0.5775 0.48036 0.0
H3386 H 0.53697 0.60772 0.47102 0.0
H3387 H 0.49006 0.59852 0.50092 0.0
H3388 H 0.49448 0.56775 0.51002 0.0
H3389 H 0.51939 0.64069 0.50514 0.0
H3390 H 0.47896 0.58888 0.46293 0.0
H3391 H 0.4701 0.55923 0.44046 0.0
H3392 H 0.50973 0.58953 0.40696 0.0
H3393 H 0.51912 0.61924 0.42944 0.0
C3394 C 0.48939 0.70148 0.45891 0.0
C3395 C 0.49952 0.70965 0.44505 0.0
C3396 C 0.49297 0.6859 0.46696 0.0
C3397 C 0.50653 0.67805 0.46112 0.0
C3398 C 0.5171 0.68667 0.44781 0.0
C3399 C 0.51378 0.70245 0.44001 0.0
C3400 C 0.50867 0.65979 0.46775 0.0
C3401 C 0.50432 0.64232 0.45572 0.0
C3402 C 0.51418 0.65926 0.48579 0.0
C3403 C 0.52026 0.67764 0.4987 0.0
C3404 C 0.53411 0.69434 0.49488 0.0
C3405 C 0.53986 0.71162 0.50708 0.0
C3406 C 0.53197 0.71233 0.52323 0.0
C3407 C 0.51834 0.69575 0.52723 0.0
C3408 C 0.51252 0.67843 0.51505 0.0
C3409 C 0.53042 0.58187 0.48498 0.0
C3410 C 0.51851 0.57025 0.49596 0.0
C3411 C 0.52771 0.59914 0.47962 0.0
C3412 C 0.51323 0.60537 0.48535 0.0
C3413 C 0.50137 0.59397 0.49644 0.0
C3414 C 0.50384 0.57637 0.50152 0.0
C3415 C 0.51045 0.62362 0.47932 0.0
C3416 C 0.5148 0.64109 0.49141 0.0
C3417 C 0.5051 0.62425 0.46126 0.0
C3418 C 0.4999 0.60619 0.44798 0.0
C3419 C 0.48598 0.58912 0.4509 0.0
C3420 C 0.48081 0.57233 0.43813 0.0
C3421 C 0.48934 0.5725 0.42229 0.0
C3422 C 0.50312 0.58944 0.41922 0.0
C3423 C 0.5084 0.60623 0.432 0.0
H3424 H 0.48527 0.55951 0.41238 0.0
H3425 H 0.53645 0.72572 0.53267 0.0
H3426 H 0.64245 0.34227 0.6694 0.0
H3427 H 0.66852 0.335 0.68343 0.0
H3428 H 0.6449 0.27274 0.66403 0.0
H3429 H 0.61904 0.2799 0.64953 0.0
H3430 H 0.65722 0.28559 0.70441 0.0
H3431 H 0.67655 0.29038 0.6445 0.0
H3432 H 0.68327 0.30704 0.61737 0.0
H3433 H 0.72218 0.35715 0.64837 0.0
H3434 H 0.71549 0.34089 0.67573 0.0
H3435 H 0.72884 0.25228 0.73536 0.0
H3436 H 0.70394 0.25743 0.71744 0.0
H3437 H 0.73682 0.31759 0.71289 0.0
H3438 H 0.76222 0.31171 0.72955 0.0
H3439 H 0.71892 0.30519 0.68389 0.0
H3440 H 0.7006 0.3029 0.74361 0.0
H3441 H 0.69394 0.28882 0.77199 0.0
H3442 H 0.65335 0.23788 0.74404 0.0
H3443 H 0.65991 0.25156 0.71546 0.0
C3444 C 0.64293 0.32707 0.6679 0.0
C3445 C 0.6287 0.31168 0.6583 0.0
C3446 C 0.6578 0.32295 0.67594 0.0
C3447 C 0.65857 0.30334 0.67479 0.0
C3448 C 0.64452 0.28797 0.66506 0.0
C3449 C 0.62983 0.29212 0.65669 0.0
C3450 C 0.67377 0.29884 0.68425 0.0
C3451 C 0.67069 0.2896 0.69987 0.0
C3452 C 0.69139 0.30472 0.67859 0.0
C3453 C 0.69537 0.31452 0.66217 0.0
C3454 C 0.68639 0.30504 0.64556 0.0
C3455 C 0.69024 0.31439 0.63013 0.0
C3456 C 0.70311 0.33317 0.63115 0.0
C3457 C 0.71219 0.34262 0.6476 0.0
C3458 C 0.7084 0.33334 0.66306 0.0
C3459 C 0.73072 0.26653 0.73036 0.0
C3460 C 0.74735 0.28163 0.7338 0.0
C3461 C 0.71642 0.26957 0.72029 0.0
C3462 C 0.71817 0.28815 0.71419 0.0
C3463 C 0.73499 0.30314 0.71743 0.0
C3464 C 0.74951 0.29982 0.72696 0.0
C3465 C 0.70259 0.29193 0.70435 0.0
C3466 C 0.70553 0.3011 0.68861 0.0
C3467 C 0.68489 0.28639 0.71018 0.0
C3468 C 0.68087 0.27817 0.72737 0.0
C3469 C 0.69033 0.28865 0.7435 0.0
C3470 C 0.68656 0.28074 0.75963 0.0
C3471 C 0.67326 0.26245 0.75981 0.0
C3472 C 0.66366 0.25204 0.74388 0.0
C3473 C 0.66738 0.25987 0.72771 0.0
H3474 H 0.67037 0.25635 0.77231 0.0
H3475 H 0.70607 0.34037 0.61919 0.0
H3476 H 0.02271 0.30955 0.94308 0.0
H3477 H 0.02975 0.34465 0.95583 0.0
H3478 H 0.97351 0.34059 0.94762 0.0
H3479 H 0.96627 0.30548 0.93559 0.0
H3480 H 0.00889 0.37584 0.9335 0.0
H3481 H 0.97635 0.34328 0.98246 0.0
H3482 H 0.97185 0.31919 0.00455 0.0
H3483 H 0.02681 0.34597 0.0265 0.0
H3484 H 0.03171 0.36997 0.00426 0.0
H3485 H 0.99653 0.4648 0.97783 0.0
H3486 H 0.99159 0.42965 0.96643 0.0
H3487 H 0.04256 0.43202 0.99327 0.0
H3488 H 0.0478 0.46711 0.00424 0.0
H3489 H 0.01175 0.39769 -0.00159 0.0
H3490 H 0.04445 0.43171 0.9535 0.0
H3491 H 0.05166 0.4562 0.93185 0.0
H3492 H 1.00009 0.42762 0.90259 0.0
H3493 H 0.99251 0.403 0.9242 0.0
C3494 C 0.01185 0.31612 0.9442 0.0
C3495 C 0.99393 0.30474 0.93851 0.0
C3496 C 0.01588 0.33612 0.95143 0.0
C3497 C 1.00211 0.34509 0.95269 0.0
C3498 C 0.98428 0.33383 0.94687 0.0
C3499 C 0.98017 0.31377 0.9401 0.0
C3500 C 0.00628 0.36636 0.95973 0.0
C3501 C 0.00933 0.38062 0.94766 0.0
C3502 C 0.00739 0.37259 0.97823 0.0
C3503 C 0.00448 0.35815 0.99151 0.0
C3504 C 0.98755 0.34382 0.99181 0.0
C3505 C 0.9849 0.33023 0.0044 0.0
C3506 C 0.99906 0.33098 0.01687 0.0
C3507 C 0.01587 0.34536 0.0168 0.0
C3508 C 0.01859 0.35894 0.0042 0.0
C3509 C 0.00665 0.45778 0.98126 0.0
C3510 C 0.02257 0.46869 0.99182 0.0
C3511 C 0.00384 0.43777 0.97475 0.0
C3512 C 0.01673 0.42829 0.97904 0.0
C3513 C 0.03246 0.43907 0.98983 0.0
C3514 C 0.03547 0.45914 0.99598 0.0
C3515 C 0.01387 0.40716 0.97214 0.0
C3516 C 0.01123 0.39293 0.98424 0.0
C3517 C 0.01337 0.40101 0.95368 0.0
C3518 C 0.01782 0.41568 0.94059 0.0
C3519 C 0.03457 0.43077 0.94255 0.0
C3520 C 0.03875 0.44464 0.93026 0.0
C3521 C 0.0263 0.44355 0.9159 0.0
C3522 C 0.0097 0.42848 0.91375 0.0
C3523 C 0.00546 0.41453 0.926 0.0
H3524 H 0.02954 0.45432 0.90641 0.0
H3525 H 0.99698 0.32047 0.02662 0.0
H3526 H 0.00836 0.77724 0.12934 0.0
H3527 H 0.97997 0.76955 0.14337 0.0
H3528 H 0.00908 0.77501 0.19477 0.0
H3529 H 0.03751 0.78195 0.18062 0.0
H3530 H 0.9778 0.74714 0.1935 0.0
H3531 H 0.9974 0.8148 0.17908 0.0
H3532 H 0.00697 0.84074 0.15896 0.0
H3533 H 0.95628 0.81638 0.12719 0.0
H3534 H 0.9465 0.79013 0.147 0.0
H3535 H 0.92315 0.7831 0.25204 0.0
H3536 H 0.94688 0.77853 0.23381 0.0
H3537 H 0.90983 0.76492 0.18654 0.0
H3538 H 0.88573 0.76869 0.2048 0.0
H3539 H 0.94264 0.79365 0.18334 0.0
H3540 H 0.92203 0.72829 0.20128 0.0
H3541 H 0.91338 0.70319 0.22227 0.0
H3542 H 0.96684 0.72466 0.24894 0.0
H3543 H 0.97575 0.75008 0.22825 0.0
C3544 C 0.00872 0.77653 0.14357 0.0
C3545 C 0.0252 0.78056 0.15392 0.0
C3546 C 0.99246 0.77215 0.1516 0.0
C3547 C 0.99243 0.77229 0.1702 0.0
C3548 C 0.00876 0.77496 0.1804 0.0
C3549 C 0.02501 0.77894 0.17231 0.0
C3550 C 0.97573 0.77131 0.17919 0.0
C3551 C 0.97018 0.75739 0.19137 0.0
C3552 C 0.96556 0.78444 0.17616 0.0
C3553 C 0.9713 0.80039 0.1644 0.0
C3554 C 0.98833 0.81492 0.16775 0.0
C3555 C 0.99379 0.82968 0.15641 0.0
C3556 C 0.98226 0.83017 0.14178 0.0
C3557 C 0.96521 0.81596 0.13851 0.0
C3558 C 0.9597 0.80114 0.14979 0.0
C3559 C 0.91989 0.77877 0.23782 0.0
C3560 C 0.90246 0.77628 0.2299 0.0
C3561 C 0.93351 0.7762 0.22741 0.0
C3562 C 0.93006 0.7712 0.20887 0.0
C3563 C 0.91275 0.76875 0.20086 0.0
C3564 C 0.89904 0.77111 0.2113 0.0
C3565 C 0.94487 0.76968 0.19782 0.0
C3566 C 0.9501 0.78321 0.18529 0.0
C3567 C 0.95486 0.75639 0.20073 0.0
C3568 C 0.94951 0.74121 0.21329 0.0
C3569 C 0.93189 0.72779 0.21172 0.0
C3570 C 0.92696 0.71347 0.22354 0.0
C3571 C 0.93954 0.71235 0.23695 0.0
C3572 C 0.9571 0.72554 0.23855 0.0
C3573 C 0.96211 0.7399 0.22676 0.0
H3574 H 0.93569 0.70125 0.24609 0.0
H3575 H 0.98652 0.8416 0.13301 0.0
H3576 H 0.55298 0.35376 0.1428 0.0
H3577 H 0.55679 0.38389 0.12759 0.0
H3578 H 0.51043 0.35238 0.09113 0.0
H3579 H 0.50685 0.32261 0.10585 0.0
H3580 H 0.53279 0.37365 0.07212 0.0
H3581 H 0.51436 0.39202 0.13077 0.0
H3582 H 0.51824 0.39962 0.16362 0.0
H3583 H 0.56877 0.44449 0.15996 0.0
H3584 H 0.56543 0.43682 0.12731 0.0
H3585 H 0.5185 0.45396 0.02918 0.0
H3586 H 0.51718 0.42571 0.04567 0.0
H3587 H 0.55489 0.46495 0.08715 0.0
H3588 H 0.55447 0.49355 0.07136 0.0
H3589 H 0.53927 0.44012 0.10415 0.0
H3590 H 0.56151 0.42339 0.04898 0.0
H3591 H 0.56227 0.41714 0.01634 0.0
H3592 H 0.51141 0.37088 0.01303 0.0
H3593 H 0.51026 0.37699 0.04562 0.0
C3594 C 0.54363 0.35312 0.13148 0.0
C3595 C 0.52956 0.33514 0.12586 0.0
C3596 C 0.5457 0.37068 0.12274 0.0
C3597 C 0.53376 0.37119 0.10798 0.0
C3598 C 0.52001 0.3531 0.10229 0.0
C3599 C 0.51794 0.33574 0.11094 0.0
C3600 C 0.53529 0.38991 0.09818 0.0
C3601 C 0.534 0.38809 0.07929 0.0
C3602 C 0.53772 0.40948 0.1069 0.0
C3603 C 0.53974 0.41368 0.12661 0.0
C3604 C 0.52639 0.40334 0.13702 0.0
C3605 C 0.5285 0.40767 0.15564 0.0
C3606 C 0.5438 0.42245 0.16394 0.0
C3607 C 0.557 0.43294 0.15364 0.0
C3608 C 0.55501 0.42859 0.13508 0.0
C3609 C 0.52658 0.45666 0.04182 0.0
C3610 C 0.53672 0.47641 0.04861 0.0
C3611 C 0.52609 0.44014 0.05133 0.0
C3612 C 0.53653 0.44216 0.06781 0.0
C3613 C 0.54662 0.46209 0.07463 0.0
C3614 C 0.5465 0.47876 0.06543 0.0
C3615 C 0.53662 0.42393 0.07793 0.0
C3616 C 0.53814 0.42578 0.09687 0.0
C3617 C 0.53509 0.40449 0.06927 0.0
C3618 C 0.53572 0.40079 0.0497 0.0
C3619 C 0.55045 0.41196 0.04126 0.0
C3620 C 0.55095 0.40843 0.02278 0.0
C3621 C 0.53687 0.39366 0.01261 0.0
C3622 C 0.52229 0.38234 0.02091 0.0
C3623 C 0.52171 0.38581 0.03939 0.0
H3624 H 0.53729 0.39096 -0.0017 0.0
H3625 H 0.54539 0.42584 0.17833 0.0
H3626 H 0.9681 0.24584 0.36498 0.0
H3627 H 0.93881 0.2475 0.35271 0.0
H3628 H 0.96569 0.28557 0.31496 0.0
H3629 H 0.99496 0.2841 0.32738 0.0
H3630 H 0.93991 0.29896 0.32334 0.0
H3631 H 0.93809 0.23243 0.30457 0.0
H3632 H 0.93952 0.19845 0.30692 0.0
H3633 H 0.89566 0.18798 0.34063 0.0
H3634 H 0.89413 0.22202 0.33868 0.0
H3635 H 0.85795 0.29178 0.26949 0.0
H3636 H 0.8873 0.28989 0.28113 0.0
H3637 H 0.86107 0.25202 0.31932 0.0
H3638 H 0.83164 0.25344 0.30731 0.0
H3639 H 0.88673 0.23861 0.31028 0.0
H3640 H 0.88957 0.30699 0.32828 0.0
H3641 H 0.88825 0.34046 0.32335 0.0
H3642 H 0.93072 0.34674 0.28818 0.0
H3643 H 0.93215 0.31321 0.29276 0.0
C3644 C 0.96791 0.25465 0.3541 0.0
C3645 C 0.98442 0.26483 0.34742 0.0
C3646 C 0.95086 0.25548 0.34683 0.0
C3647 C 0.94929 0.26646 0.3324 0.0
C3648 C 0.96586 0.27688 0.32595 0.0
C3649 C 0.98288 0.276 0.33316 0.0
C3650 C 0.93073 0.26726 0.3242 0.0
C3651 C 0.92845 0.28558 0.32037 0.0
C3652 C 0.91508 0.25019 0.32016 0.0
C3653 C 0.91616 0.22987 0.32167 0.0
C3654 C 0.92888 0.22295 0.31264 0.0
C3655 C 0.92968 0.20367 0.31386 0.0
C3656 C 0.91773 0.19109 0.32397 0.0
C3657 C 0.90494 0.19776 0.33285 0.0
C3658 C 0.9041 0.21705 0.33168 0.0
C3659 C 0.85828 0.28303 0.2804 0.0
C3660 C 0.84189 0.27291 0.28732 0.0
C3661 C 0.87539 0.28208 0.28731 0.0
C3662 C 0.87719 0.27114 0.30171 0.0
C3663 C 0.86074 0.26074 0.30839 0.0
C3664 C 0.84362 0.26163 0.30144 0.0
C3665 C 0.89584 0.27033 0.30964 0.0
C3666 C 0.89817 0.25199 0.31337 0.0
C3667 C 0.91159 0.28735 0.31336 0.0
C3668 C 0.91085 0.30754 0.31074 0.0
C3669 C 0.89856 0.31548 0.31943 0.0
C3670 C 0.8978 0.33446 0.31671 0.0
C3671 C 0.90936 0.3457 0.30543 0.0
C3672 C 0.92175 0.33801 0.29689 0.0
C3673 C 0.92256 0.31903 0.29956 0.0
H3674 H 0.90874 0.36038 0.30332 0.0
H3675 H 0.91835 0.17615 0.32488 0.0
H3676 H 0.04613 0.72686 0.64457 0.0
H3677 H 0.04865 0.69518 0.63066 0.0
H3678 H 0.0133 0.69723 0.58553 0.0
H3679 H 0.00991 0.72819 0.59999 0.0
H3680 H 0.00444 0.66195 0.58868 0.0
H3681 H 0.06448 0.70512 0.58761 0.0
H3682 H 0.09375 0.72943 0.59936 0.0
H3683 H 0.10299 0.68847 0.63422 0.0
H3684 H 0.07367 0.664 0.62283 0.0
H3685 H 0.03305 0.59168 0.52897 0.0
H3686 H 0.03071 0.62267 0.54473 0.0
H3687 H 0.03968 0.60219 0.59514 0.0
H3688 H 0.04136 0.57063 0.57937 0.0
H3689 H 0.06206 0.64566 0.58964 0.0
H3690 H 1.00088 0.60165 0.587 0.0
H3691 H 0.97273 0.57823 0.57166 0.0
H3692 H 0.96717 0.62292 0.53928 0.0
H3693 H 0.9955 0.6465 0.5542 0.0
C3694 C 0.03906 0.72076 0.63156 0.0
C3695 C 0.02794 0.73059 0.6235 0.0
C3696 C 0.04058 0.70242 0.62342 0.0
C3697 C 0.03147 0.69329 0.60656 0.0
C3698 C 0.02056 0.70335 0.59845 0.0
C3699 C 0.01873 0.72142 0.60675 0.0
C3700 C 0.03281 0.67327 0.5976 0.0
C3701 C 0.01721 0.65875 0.58883 0.0
C3702 C 0.04922 0.66814 0.59756 0.0
C3703 C 0.06679 0.68283 0.60452 0.0
C3704 C 0.0727 0.70136 0.59788 0.0
C3705 C 0.08931 0.71516 0.60446 0.0
C3706 C 0.1002 0.71052 0.61757 0.0
C3707 C 0.09452 0.69205 0.6241 0.0
C3708 C 0.07792 0.67821 0.61758 0.0
C3709 C 0.03451 0.59361 0.54344 0.0
C3710 C 0.03747 0.57832 0.55274 0.0
C3711 C 0.03314 0.61152 0.5525 0.0
C3712 C 0.03508 0.6152 0.5713 0.0
C3713 C 0.03818 0.60005 0.58068 0.0
C3714 C 0.03907 0.58183 0.5716 0.0
C3715 C 0.03379 0.63473 0.58092 0.0
C3716 C 0.04937 0.64906 0.58967 0.0
C3717 C 0.0175 0.63991 0.58051 0.0
C3718 C 1.00044 0.62577 0.57158 0.0
C3719 C 0.99377 0.60642 0.57648 0.0
C3720 C 0.97775 0.59313 0.56788 0.0
C3721 C 0.96819 0.59907 0.55447 0.0
C3722 C 0.97461 0.61833 0.54965 0.0
C3723 C 0.99064 0.63167 0.55818 0.0
H3724 H 0.9558 0.58875 0.54784 0.0
H3725 H 0.11305 0.72122 0.62264 0.0
H3726 H 0.6059 0.76589 0.86523 0.0
H3727 H 0.63617 0.76799 0.85569 0.0
H3728 H 0.6198 0.77923 0.80343 0.0
H3729 H 0.58975 0.77631 0.81264 0.0
H3730 H 0.63945 0.75942 0.79593 0.0
H3731 H 0.65328 0.81573 0.84063 0.0
H3732 H 0.65413 0.83397 0.87039 0.0
H3733 H 0.68318 0.7983 0.8935 0.0
H3734 H 0.68232 0.77969 0.86389 0.0
H3735 H 0.73543 0.80492 0.77448 0.0
H3736 H 0.70581 0.80324 0.78578 0.0
H3737 H 0.70794 0.75404 0.81395 0.0
H3738 H 0.73695 0.755 0.802 0.0
H3739 H 0.69642 0.79309 0.83371 0.0
H3740 H 0.68191 0.73726 0.78657 0.0
H3741 H 0.68174 0.72206 0.75573 0.0
H3742 H 0.65411 0.76094 0.73611 0.0
H3743 H 0.6545 0.77669 0.76684 0.0
C3744 C 0.60874 0.76904 0.85176 0.0
C3745 C 0.59479 0.77101 0.83995 0.0
C3746 C 0.62639 0.77035 0.84617 0.0
C3747 C 0.63121 0.77408 0.82856 0.0
C3748 C 0.61722 0.77622 0.81698 0.0
C3749 C 0.59968 0.77466 0.82245 0.0
C3750 C 0.65023 0.77543 0.8219 0.0
C3751 C 0.65174 0.76705 0.80437 0.0
C3752 C 0.66704 0.78511 0.8323 0.0
C3753 C 0.66755 0.79618 0.8501 0.0
C3754 C 0.65974 0.81169 0.85208 0.0
C3755 C 0.66024 0.82211 0.86892 0.0
C3756 C 0.66865 0.81725 0.88384 0.0
C3757 C 0.67663 0.80201 0.88194 0.0
C3758 C 0.67616 0.79153 0.86514 0.0
C3759 C 0.72967 0.79369 0.78306 0.0
C3760 C 0.73902 0.78005 0.78707 0.0
C3761 C 0.71251 0.79271 0.78961 0.0
C3762 C 0.70407 0.77847 0.80095 0.0
C3763 C 0.71367 0.76524 0.80532 0.0
C3764 C 0.73048 0.76578 0.79834 0.0
C3765 C 0.68537 0.77711 0.80796 0.0
C3766 C 0.684 0.78551 0.82543 0.0
C3767 C 0.6687 0.76777 0.79743 0.0
C3768 C 0.66853 0.75839 0.77897 0.0
C3769 C 0.67607 0.7428 0.77566 0.0
C3770 C 0.67586 0.73402 0.7582 0.0
C3771 C 0.66799 0.74059 0.74395 0.0
C3772 C 0.66026 0.75591 0.74715 0.0
C3773 C 0.66048 0.76477 0.76458 0.0
H3774 H 0.66781 0.73376 0.73045 0.0
H3775 H 0.66903 0.82533 0.89686 0.0
H3776 H 0.46721 0.51799 0.69741 0.0
H3777 H 0.47758 0.50179 0.67192 0.0
H3778 H 0.44451 0.52301 0.63607 0.0
H3779 H 0.4335 0.53862 0.66172 0.0
H3780 H 0.45348 0.48792 0.62095 0.0
H3781 H 0.48151 0.55639 0.65064 0.0
H3782 H 0.49343 0.58049 0.6776 0.0
H3783 H 0.53063 0.549 0.69126 0.0
H3784 H 0.5187 0.52455 0.66444 0.0
H3785 H 0.49117 0.5397 0.55492 0.0
H3786 H 0.47926 0.53065 0.58326 0.0
H3787 H 0.528 0.5172 0.59904 0.0
H3788 H 0.54016 0.5269 0.57078 0.0
H3789 H 0.51499 0.53692 0.62596 0.0
H3790 H 0.49259 0.47838 0.58503 0.0
H3791 H 0.47996 0.45952 0.55565 0.0
H3792 H 0.43142 0.47583 0.56065 0.0
H3793 H 0.44382 0.49498 0.58998 0.0
C3794 C 0.4618 0.5187 0.68407 0.0
C3795 C 0.45027 0.5302 0.68125 0.0
C3796 C 0.46741 0.5091 0.66961 0.0
C3797 C 0.46205 0.51161 0.65225 0.0
C3798 C 0.44875 0.52096 0.64945 0.0
C3799 C 0.44276 0.53019 0.664 0.0
C3800 C 0.47401 0.5105 0.6381 0.0
C3801 C 0.46704 0.49831 0.62202 0.0
C3802 C 0.49178 0.52393 0.63975 0.0
C3803 C 0.49911 0.53858 0.65575 0.0
C3804 C 0.49217 0.55458 0.65948 0.0
C3805 C 0.49891 0.56828 0.6747 0.0
C3806 C 0.51275 0.56624 0.68616 0.0
C3807 C 0.51989 0.55052 0.68239 0.0
C3808 C 0.51313 0.53673 0.66719 0.0
C3809 C 0.4996 0.53571 0.56485 0.0
C3810 C 0.51657 0.53428 0.56111 0.0
C3811 C 0.49268 0.53007 0.58073 0.0
C3812 C 0.50254 0.52252 0.59271 0.0
C3813 C 0.52017 0.52267 0.58967 0.0
C3814 C 0.5272 0.52858 0.57382 0.0
C3815 C 0.49425 0.51495 0.60856 0.0
C3816 C 0.5019 0.52558 0.62505 0.0
C3817 C 0.47708 0.50034 0.60708 0.0
C3818 C 0.46915 0.48809 0.58977 0.0
C3819 C 0.47922 0.47794 0.57989 0.0
C3820 C 0.4721 0.46721 0.56322 0.0
C3821 C 0.45489 0.46647 0.55629 0.0
C3822 C 0.44473 0.47637 0.56606 0.0
C3823 C 0.45177 0.48711 0.58274 0.0
H3824 H 0.44943 0.45823 0.54336 0.0
H3825 H 0.51797 0.57687 0.69795 0.0
H3826 H 0.74754 0.13474 0.98524 0.0
H3827 H 0.73876 0.14956 0.95965 0.0
H3828 H 0.78022 0.20495 0.97782 0.0
H3829 H 0.78946 0.1901 0.00319 0.0
H3830 H 0.74225 0.20567 0.9628 0.0
H3831 H 0.79372 0.18063 0.95104 0.0
H3832 H 0.80785 0.15373 0.95014 0.0
H3833 H 0.76397 0.11607 0.91381 0.0
H3834 H 0.74944 0.14269 0.91475 0.0
H3835 H 0.76657 0.26134 0.8915 0.0
H3836 H 0.76527 0.2434 0.91762 0.0
H3837 H 0.73916 0.18781 0.88449 0.0
H3838 H 0.74067 0.20575 0.8582 0.0
H3839 H 0.7644 0.18341 0.90639 0.0
H3840 H 0.71531 0.20881 0.91302 0.0
H3841 H 0.69889 0.23366 0.91387 0.0
H3842 H 0.73399 0.26769 0.95915 0.0
H3843 H 0.75083 0.2432 0.9584 0.0
C3844 C 0.75454 0.15021 0.98399 0.0
C3845 C 0.76928 0.16128 0.99609 0.0
C3846 C 0.7495 0.15861 0.96939 0.0
C3847 C 0.75889 0.17826 0.96694 0.0
C3848 C 0.77281 0.18976 0.97962 0.0
C3849 C 0.77812 0.18125 0.994 0.0
C3850 C 0.75568 0.18615 0.95018 0.0
C3851 C 0.74712 0.20095 0.95045 0.0
C3852 C 0.76147 0.17932 0.93403 0.0
C3853 C 0.77041 0.16354 0.93312 0.0
C3854 C 0.78702 0.16656 0.94297 0.0
C3855 C 0.79511 0.15138 0.94244 0.0
C3856 C 0.78678 0.13318 0.93197 0.0
C3857 C 0.77039 0.13016 0.92194 0.0
C3858 C 0.76223 0.14529 0.92246 0.0
C3859 C 0.76036 0.24533 0.88982 0.0
C3860 C 0.75363 0.23495 0.87285 0.0
C3861 C 0.75959 0.23508 0.90475 0.0
C3862 C 0.75183 0.21429 0.90306 0.0
C3863 C 0.74515 0.20386 0.88611 0.0
C3864 C 0.74605 0.2141 0.87112 0.0
C3865 C 0.75136 0.20351 0.91897 0.0
C3866 C 0.75922 0.18806 0.91859 0.0
C3867 C 0.74457 0.20949 0.93492 0.0
C3868 C 0.73442 0.22422 0.93557 0.0
C3869 C 0.71962 0.22166 0.92308 0.0
C3870 C 0.71022 0.23568 0.92356 0.0
C3871 C 0.71542 0.25227 0.93654 0.0
C3872 C 0.72999 0.25484 0.9491 0.0
C3873 C 0.73945 0.24088 0.94867 0.0
H3874 H 0.70813 0.26311 0.93688 0.0
H3875 H 0.79306 0.12144 0.93158 0.0
H3876 H 0.09781 0.47186 0.16866 0.0
H3877 H 0.08667 0.48615 0.14407 0.0
H3878 H 0.12735 0.54267 0.16031 0.0
H3879 H 0.13885 0.52851 0.18489 0.0
H3880 H 0.08431 0.53819 0.15293 0.0
H3881 H 0.13804 0.529 0.12782 0.0
H3882 H 0.15897 0.50915 0.12326 0.0
H3883 H 0.11564 0.4603 0.09614 0.0
H3884 H 0.09442 0.47977 0.10076 0.0
H3885 H 0.04459 0.55373 0.06812 0.0
H3886 H 0.06528 0.5575 0.09482 0.0
H3887 H 0.05793 0.49419 0.08722 0.0
H3888 H 0.03825 0.49076 0.06011 0.0
H3889 H 0.09228 0.51431 0.09078 0.0
H3890 H 0.03847 0.51714 0.12073 0.0
H3891 H 0.01425 0.53222 0.12658 0.0
H3892 H 0.05395 0.5884 0.1452 0.0
H3893 H 0.0784 0.57366 0.13928 0.0
C3894 C 0.10458 0.48722 0.16684 0.0
C3895 C 0.11918 0.49905 0.17862 0.0
C3896 C 0.09811 0.49539 0.15297 0.0
C3897 C 0.10612 0.51544 0.15077 0.0
C3898 C 0.12098 0.52722 0.16212 0.0
C3899 C 0.12763 0.519 0.17591 0.0
C3900 C 0.09904 0.52347 0.13596 0.0
C3901 C 0.08638 0.53362 0.13927 0.0
C3902 C 0.10174 0.51715 0.11835 0.0
C3903 C 0.11467 0.50586 0.11461 0.0
C3904 C 0.13299 0.51403 0.12088 0.0
C3905 C 0.1449 0.50283 0.11831 0.0
C3906 C 0.13864 0.48348 0.10942 0.0
C3907 C 0.12048 0.47531 0.103 0.0
C3908 C 0.10852 0.48644 0.10554 0.0
C3909 C 0.04713 0.54065 0.07255 0.0
C3910 C 0.03994 0.52195 0.06246 0.0
C3911 C 0.05895 0.54281 0.08764 0.0
C3912 C 0.06318 0.52614 0.09282 0.0
C3913 C 0.05498 0.50726 0.08324 0.0
C3914 C 0.04362 0.50523 0.06798 0.0
C3915 C 0.0767 0.52802 0.10769 0.0
C3916 C 0.09069 0.5198 0.10434 0.0
C3917 C 0.0749 0.53574 0.12524 0.0
C3918 C 0.06023 0.54437 0.12943 0.0
C3919 C 0.04201 0.53272 0.12604 0.0
C3920 C 0.02826 0.5412 0.12935 0.0
C3921 C 0.03256 0.56127 0.13621 0.0
C3922 C 0.05064 0.57287 0.13987 0.0
C3923 C 0.06445 0.56445 0.13656 0.0
H3924 H 0.02189 0.56783 0.13873 0.0
H3925 H 0.14786 0.47481 0.10749 0.0
H3926 H 0.77682 0.85602 0.46708 0.0
H3927 H 0.77594 0.84689 0.43496 0.0
H3928 H 0.78981 0.79398 0.4446 0.0
H3929 H 0.79203 0.804 0.47683 0.0
H3930 H 0.80864 0.80862 0.42088 0.0
H3931 H 0.74439 0.79681 0.42599 0.0
H3932 H 0.71759 0.80618 0.43449 0.0
H3933 H 0.73101 0.85409 0.40194 0.0
H3934 H 0.75797 0.84513 0.39339 0.0
H3935 H 0.79743 0.76726 0.32968 0.0
H3936 H 0.79498 0.77391 0.36173 0.0
H3937 H 0.77908 0.82578 0.35259 0.0
H3938 H 0.78001 0.81796 0.32038 0.0
H3939 H 0.76084 0.8112 0.37614 0.0
H3940 H 0.82502 0.8247 0.37167 0.0
H3941 H 0.85264 0.817 0.36336 0.0
H3942 H 0.84045 0.76808 0.3948 0.0
H3943 H 0.81267 0.77536 0.40315 0.0
C3944 C 0.77926 0.84218 0.46236 0.0
C3945 C 0.78427 0.83062 0.47459 0.0
C3946 C 0.77871 0.83689 0.44385 0.0
C3947 C 0.78248 0.81944 0.43699 0.0
C3948 C 0.78684 0.80751 0.4493 0.0
C3949 C 0.78794 0.81314 0.4678 0.0
C3950 C 0.78306 0.81424 0.41719 0.0
C3951 C 0.79798 0.80888 0.41117 0.0
C3952 C 0.76961 0.8152 0.40417 0.0
C3953 C 0.75326 0.82038 0.40916 0.0
C3954 C 0.74165 0.80939 0.4207 0.0
C3955 C 0.72643 0.81463 0.42553 0.0
C3956 C 0.72262 0.83075 0.41879 0.0
C3957 C 0.73398 0.84162 0.40716 0.0
C3958 C 0.74921 0.83645 0.4023 0.0
C3959 C 0.79347 0.7801 0.33458 0.0
C3960 C 0.78905 0.79218 0.32254 0.0
C3961 C 0.79221 0.78406 0.353 0.0
C3962 C 0.78732 0.80077 0.36 0.0
C3963 C 0.78291 0.81281 0.34782 0.0
C3964 C 0.78353 0.80841 0.32935 0.0
C3965 C 0.78641 0.80554 0.37982 0.0
C3966 C 0.77147 0.81086 0.38584 0.0
C3967 C 0.79994 0.80475 0.39285 0.0
C3968 C 0.81669 0.80047 0.3879 0.0
C3969 C 0.82819 0.81224 0.37674 0.0
C3970 C 0.84388 0.80796 0.37203 0.0
C3971 C 0.84827 0.79203 0.37851 0.0
C3972 C 0.83702 0.78039 0.38977 0.0
C3973 C 0.82132 0.7846 0.39451 0.0
H3974 H 0.86041 0.78874 0.37484 0.0
H3975 H 0.71085 0.83479 0.42256 0.0
H3976 H 0.48057 0.54505 0.76711 0.0
H3977 H 0.49188 0.53447 0.79415 0.0
H3978 H 0.43723 0.50168 0.80322 0.0
H3979 H 0.42603 0.5127 0.77672 0.0
H3980 H 0.45301 0.52515 0.83169 0.0
H3981 H 0.46896 0.47806 0.79097 0.0
H3982 H 0.48307 0.46643 0.76533 0.0
H3983 H 0.53546 0.50289 0.78856 0.0
H3984 H 0.52164 0.51493 0.81424 0.0
H3985 H 0.47767 0.48135 0.90612 0.0
H3986 H 0.46555 0.48682 0.87715 0.0
H3987 H 0.51889 0.52222 0.86673 0.0
H3988 H 0.53106 0.5166 0.89551 0.0
H3989 H 0.50292 0.49576 0.83875 0.0
H3990 H 0.4863 0.54385 0.87878 0.0
H3991 H 0.47176 0.55568 0.90401 0.0
H3992 H 0.41999 0.51674 0.88159 0.0
H3993 H 0.43424 0.50452 0.85633 0.0
C3994 C 0.47108 0.53545 0.77488 0.0
C3995 C 0.45244 0.53013 0.77027 0.0
C3996 C 0.47752 0.52929 0.79017 0.0
C3997 C 0.46536 0.51731 0.80067 0.0
C3998 C 0.4468 0.5111 0.7954 0.0
C3999 C 0.4404 0.51756 0.78037 0.0
C4000 C 0.47166 0.5129 0.81806 0.0
C4001 C 0.46371 0.51836 0.8332 0.0
C4002 C 0.48592 0.50457 0.82001 0.0
C4003 C 0.49423 0.49754 0.80445 0.0
C4004 C 0.48347 0.48374 0.79054 0.0
C4005 C 0.49142 0.47704 0.77601 0.0
C4006 C 0.51014 0.48395 0.7753 0.0
C4007 C 0.52096 0.49756 0.78912 0.0
C4008 C 0.51307 0.50432 0.80367 0.0
C4009 C 0.48674 0.49036 0.89763 0.0
C4010 C 0.50529 0.49844 0.90288 0.0
C4011 C 0.47982 0.49352 0.88118 0.0
C4012 C 0.49134 0.50503 0.86992 0.0
C4013 C 0.50983 0.51322 0.87523 0.0
C4014 C 0.51676 0.50995 0.89159 0.0
C4015 C 0.4843 0.50807 0.85232 0.0
C4016 C 0.49213 0.50238 0.83717 0.0
C4017 C 0.46986 0.51612 0.85033 0.0
C4018 C 0.46138 0.52309 0.86578 0.0
C4019 C 0.47185 0.53764 0.87934 0.0
C4020 C 0.46364 0.54447 0.89361 0.0
C4021 C 0.44497 0.53693 0.89443 0.0
C4022 C 0.43445 0.52255 0.88096 0.0
C4023 C 0.44258 0.51567 0.86667 0.0
H4024 H 0.43865 0.54225 0.90547 0.0
H4025 H 0.51628 0.47873 0.76405 0.0
H4026 H 0.7919 0.19044 0.0719 0.0
H4027 H 0.78985 0.20856 0.10058 0.0
H4028 H 0.76903 0.15281 0.12231 0.0
H4029 H 0.77007 0.13459 0.0932 0.0
H4030 H 0.75428 0.18 0.13668 0.0
H4031 H 0.81555 0.17936 0.12597 0.0
H4032 H 0.842 0.18579 0.10819 0.0
H4033 H 0.84591 0.24785 0.11197 0.0
H4034 H 0.81937 0.24174 0.1296 0.0
H4035 H 0.78269 0.2149 0.22814 0.0
H4036 H 0.7796 0.19698 0.19812 0.0
H4037 H 0.79931 0.2529 0.17648 0.0
H4038 H 0.80267 0.27086 0.20626 0.0
H4039 H 0.81391 0.22619 0.16192 0.0
H4040 H 0.75549 0.22926 0.17363 0.0
H4041 H 0.72893 0.2251 0.19089 0.0
H4042 H 0.71839 0.16163 0.18413 0.0
H4043 H 0.74534 0.16547 0.1673 0.0
C4044 C 0.78661 0.18208 0.08274 0.0
C4045 C 0.78146 0.16118 0.08053 0.0
C4046 C 0.78546 0.19242 0.0991 0.0
C4047 C 0.77985 0.18204 0.11374 0.0
C4048 C 0.77356 0.16111 0.11123 0.0
C4049 C 0.77422 0.15073 0.09466 0.0
C4050 C 0.7822 0.19293 0.13195 0.0
C4051 C 0.76735 0.18991 0.1423 0.0
C4052 C 0.79915 0.20633 0.13909 0.0
C4053 C 0.81544 0.21007 0.129 0.0
C4054 C 0.82205 0.19437 0.12298 0.0
C4055 C 0.83704 0.19795 0.11292 0.0
C4056 C 0.84561 0.21721 0.10893 0.0
C4057 C 0.83926 0.23294 0.11506 0.0
C4058 C 0.82427 0.22944 0.12511 0.0
C4059 C 0.78658 0.22336 0.21702 0.0
C4060 C 0.79282 0.24432 0.21959 0.0
C4061 C 0.78467 0.21312 0.19987 0.0
C4062 C 0.78895 0.22366 0.18508 0.0
C4063 C 0.79586 0.2445 0.18771 0.0
C4064 C 0.79774 0.25473 0.20478 0.0
C4065 C 0.78607 0.21311 0.16675 0.0
C4066 C 0.80083 0.21624 0.15636 0.0
C4067 C 0.76899 0.20012 0.15953 0.0
C4068 C 0.75258 0.19767 0.16938 0.0
C4069 C 0.74762 0.21442 0.17596 0.0
C4070 C 0.73247 0.21212 0.18565 0.0
C4071 C 0.72194 0.19311 0.1886 0.0
C4072 C 0.72657 0.17636 0.18185 0.0
C4073 C 0.74181 0.17859 0.17226 0.0
H4074 H 0.71019 0.19135 0.19609 0.0
H4075 H 0.85718 0.21995 0.10111 0.0
H4076 H 0.07475 0.49153 0.26237 0.0
H4077 H 0.06434 0.49894 0.29158 0.0
H4078 H 0.1134 0.54801 0.30492 0.0
H4079 H 0.12368 0.54064 0.27568 0.0
H4080 H 0.10853 0.51776 0.3269 0.0
H4081 H 0.07495 0.55817 0.30377 0.0
H4082 H 0.05314 0.56575 0.28297 0.0
H4083 H 0.01065 0.51644 0.29703 0.0
H4084 H 0.03226 0.50842 0.31777 0.0
H4085 H 0.09049 0.55096 0.41365 0.0
H4086 H 0.09869 0.54542 0.3832 0.0
H4087 H 0.04605 0.50243 0.36876 0.0
H4088 H 0.03767 0.50844 0.39912 0.0
H4089 H 0.05258 0.52952 0.34698 0.0
H4090 H 0.08522 0.48863 0.36992 0.0
H4091 H 0.10663 0.47941 0.38994 0.0
H4092 H 0.15038 0.52727 0.37568 0.0
H4093 H 0.1292 0.53695 0.35574 0.0
C4094 C 0.0828 0.50448 0.27125 0.0
C4095 C 0.09986 0.51566 0.26702 0.0
C4096 C 0.07694 0.50865 0.28789 0.0
C4097 C 0.08821 0.52392 0.30032 0.0
C4098 C 0.10458 0.53617 0.29542 0.0
C4099 C 0.11038 0.53205 0.27878 0.0
C4100 C 0.08438 0.52487 0.31915 0.0
C4101 C 0.09648 0.5207 0.33144 0.0
C4102 C 0.06827 0.52781 0.32468 0.0
C4103 C 0.05525 0.5326 0.31221 0.0
C4104 C 0.06099 0.54884 0.30232 0.0
C4105 C 0.04865 0.55324 0.29057 0.0
C4106 C 0.03053 0.54156 0.28865 0.0
C4107 C 0.02469 0.52547 0.29852 0.0
C4108 C 0.03697 0.52101 0.31029 0.0
C4109 C 0.08087 0.54002 0.40403 0.0
C4110 C 0.06343 0.53026 0.40848 0.0
C4111 C 0.08556 0.53679 0.38671 0.0
C4112 C 0.07296 0.52349 0.37378 0.0
C4113 C 0.0559 0.51283 0.37856 0.0
C4114 C 0.05113 0.51626 0.39581 0.0
C4115 C 0.07679 0.5225 0.35489 0.0
C4116 C 0.06467 0.5266 0.34253 0.0
C4117 C 0.09281 0.51926 0.34927 0.0
C4118 C 0.10557 0.51364 0.36146 0.0
C4119 C 0.09938 0.49731 0.37118 0.0
C4120 C 0.11148 0.49197 0.38248 0.0
C4121 C 0.12984 0.50278 0.38411 0.0
C4122 C 0.13615 0.51893 0.37442 0.0
C4123 C 0.1241 0.52434 0.3631 0.0
H4124 H 0.13919 0.49861 0.39286 0.0
H4125 H 0.021 0.54499 0.27954 0.0
H4126 H 0.80786 0.82336 0.57538 0.0
H4127 H 0.80423 0.81395 0.60518 0.0
H4128 H 0.75017 0.81846 0.60225 0.0
H4129 H 0.7542 0.8293 0.57235 0.0
H4130 H 0.76458 0.83343 0.63368 0.0
H4131 H 0.76136 0.77136 0.60048 0.0
H4132 H 0.77063 0.74836 0.57913 0.0
H4133 H 0.82096 0.76047 0.61082 0.0
H4134 H 0.81209 0.78373 0.63225 0.0
H4135 H 0.75144 0.77834 0.71338 0.0
H4136 H 0.74862 0.78455 0.68195 0.0
H4137 H 0.80598 0.81371 0.6847 0.0
H4138 H 0.80881 0.80828 0.71608 0.0
H4139 H 0.78582 0.7788 0.65324 0.0
H4140 H 0.78949 0.84393 0.68409 0.0
H4141 H 0.77932 0.86585 0.70576 0.0
H4142 H 0.72622 0.84561 0.67825 0.0
H4143 H 0.73603 0.8233 0.65658 0.0
C4144 C 0.79499 0.82209 0.58079 0.0
C4145 C 0.78124 0.82698 0.57112 0.0
C4146 C 0.7929 0.81652 0.59802 0.0
C4147 C 0.77675 0.81491 0.60613 0.0
C4148 C 0.76278 0.81942 0.59643 0.0
C4149 C 0.76502 0.82545 0.57918 0.0
C4150 C 0.77502 0.80939 0.62492 0.0
C4151 C 0.76891 0.8212 0.63775 0.0
C4152 C 0.78079 0.79356 0.63068 0.0
C4153 C 0.78608 0.77938 0.61792 0.0
C4154 C 0.77443 0.76919 0.60286 0.0
C4155 C 0.77962 0.7561 0.59074 0.0
C4156 C 0.79639 0.75298 0.5936 0.0
C4157 C 0.80798 0.7629 0.60862 0.0
C4158 C 0.80287 0.77601 0.62077 0.0
C4159 C 0.76341 0.7862 0.70731 0.0
C4160 C 0.78032 0.79292 0.71734 0.0
C4161 C 0.76179 0.78975 0.68935 0.0
C4162 C 0.77709 0.79964 0.68094 0.0
C4163 C 0.79398 0.80612 0.69087 0.0
C4164 C 0.79554 0.80305 0.70888 0.0
C4165 C 0.77573 0.803 0.66171 0.0
C4166 C 0.78126 0.79079 0.64893 0.0
C4167 C 0.76929 0.81826 0.65599 0.0
C4168 C 0.76342 0.83174 0.66889 0.0
C4169 C 0.77559 0.84397 0.68279 0.0
C4170 C 0.76991 0.85651 0.69504 0.0
C4171 C 0.75211 0.85706 0.69342 0.0
C4172 C 0.73999 0.84512 0.67951 0.0
C4173 C 0.7456 0.83254 0.66724 0.0
H4174 H 0.74774 0.86678 0.70291 0.0
H4175 H 0.80038 0.74286 0.58419 0.0
H4176 H 0.76364 0.4817 0.49909 0.0
H4177 H 0.7376 0.49168 0.50751 0.0
H4178 H 0.71117 0.43238 0.52016 0.0
H4179 H 0.73734 0.4221 0.51164 0.0
H4180 H 0.6883 0.4507 0.50178 0.0
H4181 H 0.73092 0.46486 0.55319 0.0
H4182 H 0.76146 0.47814 0.56878 0.0
H4183 H 0.76398 0.53714 0.55764 0.0
H4184 H 0.73358 0.52416 0.54168 0.0
H4185 H 0.62393 0.48868 0.54214 0.0
H4186 H 0.64748 0.47231 0.54148 0.0
H4187 H 0.68559 0.52614 0.5283 0.0
H4188 H 0.66211 0.54248 0.52857 0.0
H4189 H 0.70118 0.50624 0.55104 0.0
H4190 H 0.66302 0.49289 0.49596 0.0
H4191 H 0.63387 0.48138 0.47765 0.0
H4192 H 0.62424 0.4227 0.49335 0.0
H4193 H 0.65324 0.434 0.51205 0.0
C4194 C 0.75224 0.47067 0.50348 0.0
C4195 C 0.75262 0.4512 0.505 0.0
C4196 C 0.73741 0.47643 0.5083 0.0
C4197 C 0.72276 0.46285 0.51481 0.0
C4198 C 0.72252 0.44305 0.5153 0.0
C4199 C 0.73742 0.43723 0.51044 0.0
C4200 C 0.7082 0.46989 0.52183 0.0
C4201 C 0.69093 0.46247 0.51284 0.0
C4202 C 0.71192 0.48553 0.53603 0.0
C4203 C 0.72997 0.4935 0.54617 0.0
C4204 C 0.73801 0.48065 0.55399 0.0
C4205 C 0.7553 0.48812 0.56289 0.0
C4206 C 0.76466 0.50846 0.56418 0.0
C4207 C 0.75671 0.52138 0.55663 0.0
C4208 C 0.73943 0.51398 0.54768 0.0
C4209 C 0.63738 0.49708 0.53926 0.0
C4210 C 0.64111 0.51674 0.53507 0.0
C4211 C 0.65081 0.48776 0.53904 0.0
C4212 C 0.66814 0.49798 0.53462 0.0
C4213 C 0.67227 0.51806 0.53177 0.0
C4214 C 0.65884 0.52736 0.53193 0.0
C4215 C 0.68133 0.48726 0.5308 0.0
C4216 C 0.69838 0.49405 0.54034 0.0
C4217 C 0.6775 0.47122 0.51694 0.0
C4218 C 0.66015 0.46435 0.50561 0.0
C4219 C 0.65461 0.47758 0.49565 0.0
C4220 C 0.63813 0.47109 0.48518 0.0
C4221 C 0.62718 0.45133 0.48438 0.0
C4222 C 0.63272 0.43801 0.49402 0.0
C4223 C 0.64917 0.44445 0.50456 0.0
H4224 H 0.61442 0.44633 0.47626 0.0
H4225 H 0.77806 0.51422 0.57105 0.0
H4226 H 0.23127 0.16354 0.52652 0.0
H4227 H 0.20029 0.14505 0.53187 0.0
H4228 H 0.19843 0.1014 0.48718 0.0
H4229 H 0.22936 0.11966 0.4818 0.0
H4230 H 0.16741 0.11285 0.48768 0.0
H4231 H 0.20529 0.09079 0.52785 0.0
H4232 H 0.22904 0.0945 0.55198 0.0
H4233 H 0.20034 0.12146 0.5886 0.0
H4234 H 0.17653 0.11819 0.56459 0.0
H4235 H 0.09237 0.03344 0.50037 0.0
H4236 H 0.1236 0.05317 0.49823 0.0
H4237 H 0.12185 0.091 0.54609 0.0
H4238 H 0.09055 0.07083 0.54861 0.0
H4239 H 0.15426 0.08476 0.54492 0.0
H4240 H 0.1144 0.10327 0.5045 0.0
H4241 H 0.09019 0.09695 0.48026 0.0
H4242 H 0.12269 0.07625 0.44347 0.0
H4243 H 0.14679 0.08156 0.46761 0.0
C4244 C 0.22421 0.1501 0.51774 0.0
C4245 C 0.23279 0.14305 0.50374 0.0
C4246 C 0.20655 0.1395 0.52088 0.0
C4247 C 0.19712 0.12177 0.51001 0.0
C4248 C 0.20547 0.11503 0.49573 0.0
C4249 C 0.22316 0.12548 0.4927 0.0
C4250 C 0.17862 0.11003 0.51356 0.0
C4251 C 0.16453 0.10656 0.50013 0.0
C4252 C 0.17483 0.10225 0.52998 0.0
C4253 C 0.18926 0.1045 0.54436 0.0
C4254 C 0.20415 0.09773 0.54099 0.0
C4255 C 0.2176 0.0997 0.55466 0.0
C4256 C 0.21623 0.10827 0.57179 0.0
C4257 C 0.2014 0.11487 0.5753 0.0
C4258 C 0.18793 0.11296 0.56167 0.0
C4259 C 0.09869 0.0458 0.5106 0.0
C4260 C 0.08895 0.05074 0.52455 0.0
C4261 C 0.11652 0.05713 0.5093 0.0
C4262 C 0.1249 0.07391 0.52171 0.0
C4263 C 0.11558 0.07821 0.53627 0.0
C4264 C 0.09773 0.06667 0.53772 0.0
C4265 C 0.14304 0.08734 0.51894 0.0
C4266 C 0.15706 0.09118 0.53252 0.0
C4267 C 0.14676 0.09545 0.50261 0.0
C4268 C 0.13239 0.09267 0.48795 0.0
C4269 C 0.11635 0.09721 0.49128 0.0
C4270 C 0.10264 0.09381 0.47756 0.0
C4271 C 0.10494 0.08629 0.46034 0.0
C4272 C 0.12093 0.08208 0.45681 0.0
C4273 C 0.1346 0.08522 0.47053 0.0
H4274 H 0.09432 0.08372 0.44973 0.0
H4275 H 0.22665 0.10976 0.58237 0.0
H4276 H 0.17192 0.96685 0.78457 0.0
H4277 H 0.19317 0.94967 0.77506 0.0
H4278 H 0.22687 0.97272 0.82426 0.0
H4279 H 0.20558 0.99029 0.83408 0.0
H4280 H 0.24484 0.97454 0.78951 0.0
H4281 H 0.20274 0.92808 0.82248 0.0
H4282 H 0.17173 0.91064 0.82925 0.0
H4283 H 0.15879 0.88359 0.77483 0.0
H4284 H 0.18969 0.90109 0.76769 0.0
H4285 H 0.29753 0.90921 0.78355 0.0
H4286 H 0.27856 0.92982 0.79222 0.0
H4287 H 0.23788 0.897 0.75015 0.0
H4288 H 0.25659 0.87579 0.74177 0.0
H4289 H 0.22318 0.90055 0.78095 0.0
H4290 H 0.26187 0.94396 0.74638 0.0
H4291 H 0.29056 0.96265 0.73536 0.0
H4292 H 0.30762 0.99639 0.78705 0.0
H4293 H 0.2791 0.97768 0.79847 0.0
C4294 C 0.18402 0.96844 0.79364 0.0
C4295 C 0.1871 0.97996 0.81036 0.0
C4296 C 0.19595 0.95851 0.78789 0.0
C4297 C 0.21138 0.95986 0.79894 0.0
C4298 C 0.21488 0.97157 0.81555 0.0
C4299 C 0.2028 0.98158 0.82143 0.0
C4300 C 0.22326 0.94823 0.79295 0.0
C4301 C 0.24037 0.95838 0.788 0.0
C4302 C 0.21682 0.9272 0.79008 0.0
C4303 C 0.19851 0.91594 0.79455 0.0
C4304 C 0.19327 0.91844 0.81196 0.0
C4305 C 0.17571 0.90856 0.81585 0.0
C4306 C 0.16329 0.89604 0.80247 0.0
C4307 C 0.16843 0.89329 0.78518 0.0
C4308 C 0.18598 0.90315 0.78122 0.0
C4309 C 0.28458 0.90644 0.77608 0.0
C4310 C 0.27852 0.89086 0.762 0.0
C4311 C 0.27383 0.91832 0.78097 0.0
C4312 C 0.25688 0.91499 0.77176 0.0
C4313 C 0.25095 0.8998 0.7574 0.0
C4314 C 0.26171 0.88785 0.7525 0.0
C4315 C 0.24509 0.92682 0.77783 0.0
C4316 C 0.22787 0.91671 0.78264 0.0
C4317 C 0.25124 0.94791 0.78008 0.0
C4318 C 0.26842 0.95926 0.77333 0.0
C4319 C 0.2718 0.95524 0.75545 0.0
C4320 C 0.28802 0.96586 0.74912 0.0
C4321 C 0.30093 0.98066 0.76051 0.0
C4322 C 0.29762 0.9849 0.77825 0.0
C4323 C 0.28142 0.97431 0.78465 0.0
H4324 H 0.31349 0.98887 0.75559 0.0
H4325 H 0.14967 0.88843 0.8055 0.0
H4326 H 0.33135 0.97651 0.00858 0.0
H4327 H 0.36324 0.99653 0.00988 0.0
H4328 H 0.37797 0.94274 -0.00146 0.0
H4329 H 0.34645 0.92285 -0.00222 0.0
H4330 H 0.39421 0.96405 0.02952 0.0
H4331 H 0.38208 0.97698 0.96854 0.0
H4332 H 0.36774 0.99001 0.94468 0.0
H4333 H 0.38605 0.0486 0.97388 0.0
H4334 H 0.40035 0.03586 -0.002 0.0
H4335 H 0.48123 0.98089 0.00666 0.0
H4336 H 0.44865 0.97289 0.00766 0.0
H4337 H 0.45418 0.03542 0.01986 0.0
H4338 H 0.48692 0.0436 0.01818 0.0
H4339 H 0.42727 0.01748 0.99493 0.0
H4340 H 0.4448 0.00429 0.05286 0.0
H4341 H 0.46074 0.99053 0.07486 0.0
H4342 H 0.4329 0.93115 0.05019 0.0
H4343 H 0.41695 0.94453 0.02792 0.0
C4344 C 0.34145 0.96909 0.00604 0.0
C4345 C 0.33668 0.94819 0.00356 0.0
C4346 C 0.35955 0.9805 0.00671 0.0
C4347 C 0.37284 0.97101 0.00453 0.0
C4348 C 0.36783 0.95024 0.00052 0.0
C4349 C 0.34987 0.93888 0.0002 0.0
C4350 C 0.39206 0.98207 0.00862 0.0
C4351 C 0.4015 0.9757 0.02192 0.0
C4352 C 0.40122 0.99798 -0.00063 0.0
C4353 C 0.39202 0.00541 0.98519 0.0
C4354 C 0.38283 0.99258 0.96998 0.0
C4355 C 0.37478 0.99994 0.95638 0.0
C4356 C 0.37592 0.0201 0.95779 0.0
C4357 C 0.38513 0.03297 0.97282 0.0
C4358 C 0.3932 0.02569 0.98646 0.0
C4359 C 0.47547 0.99291 0.00952 0.0
C4360 C 0.4864 0.0128 0.01233 0.0
C4361 C 0.45695 0.98834 0.01027 0.0
C4362 C 0.44919 0.00357 0.01433 0.0
C4363 C 0.46005 0.02352 0.0169 0.0
C4364 C 0.47862 0.02813 0.01584 0.0
C4365 C 0.42955 0.9984 0.01488 0.0
C4366 C 0.41996 0.00614 0.0028 0.0
C4367 C 0.4202 0.98357 0.02514 0.0
C4368 C 0.42967 0.97545 0.03869 0.0
C4369 C 0.44212 0.98831 0.05208 0.0
C4370 C 0.45116 0.98057 0.06461 0.0
C4371 C 0.44784 0.95999 0.06392 0.0
C4372 C 0.43544 0.94709 0.05073 0.0
C4373 C 0.42636 0.95475 0.03818 0.0
H4374 H 0.45487 0.95404 0.07362 0.0
H4375 H 0.36972 0.02577 0.94722 0.0
H4376 H 0.88647 0.57006 0.80797 0.0
H4377 H 0.86642 0.58805 0.79713 0.0
H4378 H 0.90206 0.60859 0.75642 0.0
H4379 H 0.92207 0.59056 0.76696 0.0
H4380 H 0.89164 0.63862 0.77895 0.0
H4381 H 0.86635 0.57534 0.7424 0.0
H4382 H 0.85385 0.53869 0.73761 0.0
H4383 H 0.81065 0.54123 0.76999 0.0
H4384 H 0.82306 0.57789 0.7752 0.0
H4385 H 0.8354 0.68392 0.73399 0.0
H4386 H 0.85534 0.66414 0.7406 0.0
H4387 H 0.81527 0.6291 0.77165 0.0
H4388 H 0.79522 0.64861 0.7648 0.0
H4389 H 0.82877 0.60588 0.7525 0.0
H4390 H 0.85322 0.6668 0.7914 0.0
H4391 H 0.86732 0.70235 0.80253 0.0
H4392 H 0.912 0.70431 0.77096 0.0
H4393 H 0.89807 0.66883 0.75947 0.0
C4394 C 0.89 0.57838 0.79669 0.0
C4395 C 0.90579 0.57895 0.78829 0.0
C4396 C 0.87853 0.58851 0.7905 0.0
C4397 C 0.88284 0.59942 0.77598 0.0
C4398 C 0.89859 0.60011 0.76761 0.0
C4399 C 0.90993 0.58979 0.77362 0.0
C4400 C 0.87123 0.61081 0.76995 0.0
C4401 C 0.87799 0.6316 0.77282 0.0
C4402 C 0.85333 0.60135 0.76263 0.0
C4403 C 0.84572 0.57934 0.7593 0.0
C4404 C 0.85427 0.56807 0.74861 0.0
C4405 C 0.84718 0.5473 0.7458 0.0
C4406 C 0.83149 0.53764 0.75353 0.0
C4407 C 0.82281 0.54873 0.76403 0.0
C4408 C 0.82986 0.56951 0.76689 0.0
C4409 C 0.83084 0.67185 0.74208 0.0
C4410 C 0.81381 0.66766 0.74887 0.0
C4411 C 0.84226 0.6607 0.74595 0.0
C4412 C 0.83688 0.64541 0.75686 0.0
C4413 C 0.81966 0.64086 0.76321 0.0
C4414 C 0.80818 0.65189 0.75921 0.0
C4415 C 0.84908 0.63397 0.76156 0.0
C4416 C 0.84246 0.61308 0.75842 0.0
C4417 C 0.86705 0.64339 0.76901 0.0
C4418 C 0.87448 0.66519 0.77442 0.0
C4419 C 0.86586 0.6749 0.78655 0.0
C4420 C 0.87389 0.69501 0.79301 0.0
C4421 C 0.89057 0.70553 0.78751 0.0
C4422 C 0.89909 0.69611 0.77524 0.0
C4423 C 0.89113 0.67602 0.76873 0.0
H4424 H 0.89699 0.72091 0.7929 0.0
H4425 H 0.82603 0.52155 0.75134 0.0
H4426 H 0.81928 0.6478 0.04541 0.0
H4427 H 0.84232 0.63117 0.04976 0.0
H4428 H 0.87233 0.66273 0.0096 0.0
H4429 H 0.84968 0.67982 0.00556 0.0
H4430 H 0.85003 0.60619 0.02305 0.0
H4431 H 0.90726 0.67171 0.01587 0.0
H4432 H 0.92006 0.70762 0.02662 0.0
H4433 H 0.90465 0.6962 0.07928 0.0
H4434 H 0.89139 0.66031 0.06866 0.0
H4435 H 0.91785 0.56744 0.99293 0.0
H4436 H 0.89748 0.58733 -0.00195 0.0
H4437 H 0.92063 0.60525 0.05249 0.0
H4438 H 0.94155 0.58577 0.0473 0.0
H4439 H 0.91619 0.6368 0.03696 0.0
H4440 H 0.87957 0.57114 0.04427 0.0
H4441 H 0.86611 0.53487 0.03626 0.0
H4442 H 0.83967 0.54469 0.9883 0.0
H4443 H 0.85315 0.58104 0.99592 0.0
C4444 C 0.83106 0.65161 0.03786 0.0
C4445 C 0.83269 0.66516 0.02516 0.0
C4446 C 0.84418 0.64205 0.04033 0.0
C4447 C 0.85915 0.64583 0.03015 0.0
C4448 C 0.86117 0.65995 0.01797 0.0
C4449 C 0.84815 0.66967 0.01562 0.0
C4450 C 0.87159 0.63354 0.0308 0.0
C4451 C 0.86449 0.61285 0.02613 0.0
C4452 C 0.89036 0.6421 0.03516 0.0
C4453 C 0.89831 0.66351 0.04149 0.0
C4454 C 0.9066 0.67694 0.02972 0.0
C4455 C 0.91385 0.69725 0.03576 0.0
C4456 C 0.91315 0.70419 0.05362 0.0
C4457 C 0.90513 0.69082 0.06545 0.0
C4458 C 0.89765 0.67053 0.05941 0.0
C4459 C 0.91876 0.57574 0.00596 0.0
C4460 C 0.9314 0.57505 0.01968 0.0
C4461 C 0.90696 0.58696 0.00892 0.0
C4462 C 0.9074 0.59763 0.0257 0.0
C4463 C 0.92003 0.59708 0.03945 0.0
C4464 C 0.93187 0.58582 0.0365 0.0
C4465 C 0.8947 0.60943 0.02869 0.0
C4466 C 0.90173 0.63003 0.03402 0.0
C4467 C 0.87578 0.60066 0.02517 0.0
C4468 C 0.86747 0.57881 0.02062 0.0
C4469 C 0.87097 0.56556 0.03196 0.0
C4470 C 0.86332 0.54499 0.0275 0.0
C4471 C 0.85206 0.53748 0.01176 0.0
C4472 C 0.84839 0.55053 0.00048 0.0
C4473 C 0.85601 0.57112 0.00488 0.0
H4474 H 0.84617 0.52154 0.00833 0.0
H4475 H 0.91884 0.71991 0.05829 0.0
H4476 H 0.1581 0.06653 0.78731 0.0
H4477 H 0.17518 0.09904 0.77904 0.0
H4478 H 0.22087 0.09944 0.81417 0.0
H4479 H 0.20346 0.06759 0.82324 0.0
H4480 H 0.21634 0.13461 0.81761 0.0
H4481 H 0.21647 0.08648 0.76595 0.0
H4482 H 0.2003 0.05968 0.74209 0.0
H4483 H 0.17287 0.09811 0.72125 0.0
H4484 H 0.18875 0.12507 0.74508 0.0
H4485 H 0.28508 0.21011 0.78856 0.0
H4486 H 0.26718 0.17639 0.793 0.0
H4487 H 0.22296 0.18133 0.75885 0.0
H4488 H 0.24085 0.2148 0.75399 0.0
H4489 H 0.2254 0.14415 0.75411 0.0
H4490 H 0.22229 0.19091 0.80235 0.0
H4491 H 0.23548 0.21959 0.82539 0.0
H4492 H 0.26412 0.18594 0.85223 0.0
H4493 H 0.25129 0.15712 0.82915 0.0
C4494 C 0.17182 0.07357 0.79316 0.0
C4495 C 0.17956 0.06458 0.80578 0.0
C4496 C 0.18158 0.09209 0.78842 0.0
C4497 C 0.19945 0.1015 0.79572 0.0
C4498 C 0.20713 0.09246 0.80835 0.0
C4499 C 0.19722 0.07425 0.81345 0.0
C4500 C 0.21028 0.12074 0.79032 0.0
C4501 C 0.21852 0.13656 0.80375 0.0
C4502 C 0.2125 0.12362 0.77216 0.0
C4503 C 0.20372 0.10773 0.75734 0.0
C4504 C 0.20701 0.08921 0.75626 0.0
C4505 C 0.19787 0.07398 0.74276 0.0
C4506 C 0.18554 0.07718 0.73019 0.0
C4507 C 0.18242 0.09565 0.731 0.0
C4508 C 0.19151 0.11092 0.74447 0.0
C4509 C 0.27164 0.20392 0.78181 0.0
C4510 C 0.26426 0.21521 0.77116 0.0
C4511 C 0.26145 0.18467 0.78435 0.0
C4512 C 0.24366 0.17656 0.77648 0.0
C4513 C 0.23665 0.18736 0.76505 0.0
C4514 C 0.24687 0.20653 0.76239 0.0
C4515 C 0.23185 0.15763 0.78144 0.0
C4516 C 0.22333 0.14204 0.76797 0.0
C4517 C 0.22894 0.1551 0.79949 0.0
C4518 C 0.23594 0.17192 0.81397 0.0
C4519 C 0.23142 0.18964 0.81316 0.0
C4520 C 0.23884 0.20592 0.8262 0.0
C4521 C 0.25066 0.20461 0.84022 0.0
C4522 C 0.25497 0.18694 0.84134 0.0
C4523 C 0.2476 0.1706 0.82829 0.0
H4524 H 0.25643 0.21731 0.85019 0.0
H4525 H 0.17841 0.06534 0.71981 0.0
H4526 H 0.39505 1.00111 0.31024 0.0
H4527 H 0.37554 0.96683 0.30518 0.0
H4528 H 0.39405 0.96022 0.25274 0.0
H4529 H 0.41383 0.99503 0.25773 0.0
H4530 H 0.35702 0.94277 0.25293 0.0
H4531 H 0.41021 0.94046 0.28506 0.0
H4532 H 0.43531 0.94995 0.30871 0.0
H4533 H 0.39751 0.93455 0.34834 0.0
H4534 H 0.37215 0.92525 0.32495 0.0
H4535 H 0.32855 0.83628 0.24553 0.0
H4536 H 0.34592 0.87143 0.24751 0.0
H4537 H 0.32361 0.88296 0.29704 0.0
H4538 H 0.30571 0.84757 0.29495 0.0
H4539 H 0.36305 0.89739 0.29729 0.0
H4540 H 0.30975 0.90117 0.26386 0.0
H4541 H 0.28558 0.88999 0.23922 0.0
H4542 H 0.32532 0.90035 0.20096 0.0
H4543 H 0.34971 0.91168 0.22537 0.0
C4544 C 0.39498 0.99248 0.29756 0.0
C4545 C 0.40609 1.00078 0.2844 0.0
C4546 C 0.38383 0.97281 0.29473 0.0
C4547 C 0.38354 0.96085 0.27872 0.0
C4548 C 0.39414 0.96919 0.26524 0.0
C4549 C 0.40541 0.98904 0.26809 0.0
C4550 C 0.37227 0.93961 0.27648 0.0
C4551 C 0.35852 0.93278 0.26248 0.0
C4552 C 0.37405 0.92661 0.28908 0.0
C4553 C 0.38926 0.93234 0.30325 0.0
C4554 C 0.40723 0.93928 0.29884 0.0
C4555 C 0.42151 0.94458 0.31219 0.0
C4556 C 0.41801 0.9429 0.33002 0.0
C4557 C 0.40021 0.93587 0.33453 0.0
C4558 C 0.38587 0.93056 0.32122 0.0
C4559 C 0.32713 0.84628 0.25676 0.0
C4560 C 0.31575 0.83915 0.2701 0.0
C4561 C 0.33706 0.86639 0.25783 0.0
C4562 C 0.33601 0.87976 0.27238 0.0
C4563 C 0.32454 0.87281 0.28568 0.0
C4564 C 0.31429 0.85267 0.28444 0.0
C4565 C 0.34766 0.90076 0.274 0.0
C4566 C 0.36155 0.90747 0.28781 0.0
C4567 C 0.34616 0.91351 0.26112 0.0
C4568 C 0.33154 0.90717 0.24642 0.0
C4569 C 0.31332 0.90103 0.25018 0.0
C4570 C 0.29958 0.89473 0.23625 0.0
C4571 C 0.30391 0.89451 0.21852 0.0
C4572 C 0.32198 0.90066 0.21468 0.0
C4573 C 0.33577 0.90708 0.22856 0.0
H4574 H 0.29327 0.88956 0.20775 0.0
H4575 H 0.42908 0.94701 0.34034 0.0
H4576 H 0.55111 0.32447 0.56635 0.0
H4577 H 0.55055 0.35342 0.55169 0.0
H4578 H 0.58868 0.39183 0.59332 0.0
H4579 H 0.58914 0.36267 0.6082 0.0
H4580 H 0.55858 0.4025 0.59014 0.0
H4581 H 0.59931 0.38878 0.54942 0.0
H4582 H 0.61151 0.36874 0.52786 0.0
H4583 H 0.56327 0.35548 0.49263 0.0
H4584 H 0.55067 0.37523 0.51407 0.0
H4585 H 0.55973 0.48987 0.55107 0.0
H4586 H 0.56798 0.4626 0.56253 0.0
H4587 H 0.52777 0.42028 0.52504 0.0
H4588 H 0.51935 0.4477 0.51328 0.0
H4589 H 0.5611 0.41307 0.52624 0.0
H4590 H 0.51989 0.4254 0.56753 0.0
H4591 H 0.50775 0.44585 0.58876 0.0
H4592 H 0.55694 0.46161 0.62296 0.0
H4593 H 0.56952 0.44156 0.60175 0.0
C4594 C 0.55995 0.33901 0.57201 0.0
C4595 C 0.57016 0.34131 0.58843 0.0
C4596 C 0.55961 0.3556 0.5636 0.0
C4597 C 0.5695 0.37487 0.57142 0.0
C4598 C 0.5809 0.3771 0.58706 0.0
C4599 C 0.58134 0.36041 0.59544 0.0
C4600 C 0.56591 0.39246 0.56456 0.0
C4601 C 0.55954 0.40507 0.57624 0.0
C4602 C 0.56653 0.39544 0.5463 0.0
C4603 C 0.57398 0.38337 0.53344 0.0
C4604 C 0.59123 0.38144 0.53716 0.0
C4605 C 0.59824 0.37017 0.52493 0.0
C4606 C 0.58816 0.36081 0.5089 0.0
C4607 C 0.57106 0.36273 0.50505 0.0
C4608 C 0.56399 0.37398 0.51723 0.0
C4609 C 0.55251 0.47479 0.54523 0.0
C4610 C 0.53882 0.47102 0.5312 0.0
C4611 C 0.55726 0.45919 0.55187 0.0
C4612 C 0.54843 0.4394 0.54473 0.0
C4613 C 0.53476 0.43548 0.53074 0.0
C4614 C 0.52992 0.45115 0.52408 0.0
C4615 C 0.55374 0.42292 0.5518 0.0
C4616 C 0.56034 0.41056 0.54016 0.0
C4617 C 0.55331 0.42013 0.5701 0.0
C4618 C 0.54574 0.43214 0.58293 0.0
C4619 C 0.52819 0.43338 0.57949 0.0
C4620 C 0.52121 0.44487 0.59154 0.0
C4621 C 0.53158 0.45506 0.60718 0.0
C4622 C 0.54893 0.45374 0.61082 0.0
C4623 C 0.556 0.4423 0.59879 0.0
H4624 H 0.52616 0.46396 0.61648 0.0
H4625 H 0.59361 0.3521 0.49946 0.0
H4626 H 0.46915 0.76062 0.34961 0.0
H4627 H 0.44207 0.76305 0.33364 0.0
H4628 H 0.413 0.75119 0.38052 0.0
H4629 H 0.44 0.74776 0.39635 0.0
H4630 H 0.39183 0.73217 0.35252 0.0
H4631 H 0.42956 0.79865 0.36779 0.0
H4632 H 0.45785 0.82637 0.37036 0.0
H4633 H 0.45687 0.82314 0.31321 0.0
H4634 H 0.42881 0.79479 0.31028 0.0
H4635 H 0.32293 0.77285 0.32142 0.0
H4636 H 0.34914 0.76939 0.3386 0.0
H4637 H 0.37322 0.75964 0.28975 0.0
H4638 H 0.34692 0.76275 0.27239 0.0
H4639 H 0.39607 0.79065 0.31981 0.0
H4640 H 0.36018 0.71971 0.30659 0.0
H4641 H 0.33073 0.69353 0.30532 0.0
H4642 H 0.32682 0.71011 0.36083 0.0
H4643 H 0.35637 0.73602 0.36252 0.0
C4644 C 0.45701 0.75859 0.35657 0.0
C4645 C 0.45673 0.75418 0.3743 0.0
C4646 C 0.44153 0.76003 0.34742 0.0
C4647 C 0.42556 0.75773 0.35597 0.0
C4648 C 0.42517 0.7531 0.37365 0.0
C4649 C 0.44062 0.75122 0.38272 0.0
C4650 C 0.4094 0.76027 0.34636 0.0
C4651 C 0.3928 0.7451 0.34558 0.0
C4652 C 0.41052 0.77709 0.33719 0.0
C4653 C 0.42715 0.79446 0.33882 0.0
C4654 C 0.43542 0.80375 0.35575 0.0
C4655 C 0.45144 0.8196 0.35727 0.0
C4656 C 0.45916 0.82661 0.34196 0.0
C4657 C 0.45087 0.81772 0.32507 0.0
C4658 C 0.43492 0.80171 0.32347 0.0
C4659 C 0.33378 0.76992 0.31433 0.0
C4660 C 0.3329 0.76807 0.29557 0.0
C4661 C 0.34871 0.76794 0.32415 0.0
C4662 C 0.36306 0.76435 0.31539 0.0
C4663 C 0.36225 0.76248 0.29669 0.0
C4664 C 0.34719 0.76413 0.28683 0.0
C4665 C 0.37891 0.76246 0.32581 0.0
C4666 C 0.39531 0.77778 0.32678 0.0
C4667 C 0.37759 0.74605 0.33539 0.0
C4668 C 0.36044 0.72968 0.33469 0.0
C4669 C 0.35307 0.71759 0.31856 0.0
C4670 C 0.33639 0.70278 0.31778 0.0
C4671 C 0.32694 0.70002 0.33304 0.0
C4672 C 0.33423 0.71202 0.34911 0.0
C4673 C 0.35098 0.7267 0.35002 0.0
H4674 H 0.31396 0.68867 0.33241 0.0
H4675 H 0.47157 0.83891 0.34318 0.0
H4676 H 0.02828 0.72819 0.09564 0.0
H4677 H 0.03084 0.69587 0.08374 0.0
H4678 H 0.08793 0.72256 0.08031 0.0
H4679 H 0.08563 0.75504 0.09301 0.0
H4680 H 0.05544 0.69224 0.04695 0.0
H4681 H 0.09201 0.70028 0.10312 0.0
H4682 H 0.09872 0.7091 0.13568 0.0
H4683 H 0.04881 0.66585 0.14434 0.0
H4684 H 0.04162 0.65711 0.11177 0.0
H4685 H 0.06949 0.59677 0.0256 0.0
H4686 H 0.07563 0.6317 0.03797 0.0
H4687 H 0.0275 0.61553 0.0661 0.0
H4688 H 0.02104 0.58064 0.05348 0.0
H4689 H 0.06023 0.64216 0.08694 0.0
H4690 H 0.02343 0.63443 0.03172 0.0
H4691 H 0.01544 0.62537 -0.00067 0.0
H4692 H 0.06513 0.66775 0.98879 0.0
H4693 H 0.07355 0.67683 0.02117 0.0
C4694 C 0.0414 0.72722 0.09235 0.0
C4695 C 0.05677 0.74411 0.09521 0.0
C4696 C 0.04283 0.70875 0.08562 0.0
C4697 C 0.05957 0.70688 0.08132 0.0
C4698 C 0.07493 0.72374 0.08377 0.0
C4699 C 0.0736 0.74222 0.09098 0.0
C4700 C 0.06055 0.68712 0.07406 0.0
C4701 C 0.05699 0.68141 0.0556 0.0
C4702 C 0.06203 0.67293 0.08547 0.0
C4703 C 0.06613 0.67833 0.10502 0.0
C4704 C 0.08232 0.69291 0.11196 0.0
C4705 C 0.08625 0.69783 0.13041 0.0
C4706 C 0.07416 0.68811 0.14207 0.0
C4707 C 0.05813 0.67342 0.13529 0.0
C4708 C 0.05412 0.66849 0.11684 0.0
C4709 C 0.06029 0.60064 0.03453 0.0
C4710 C 0.04475 0.58601 0.03856 0.0
C4711 C 0.06379 0.62057 0.04152 0.0
C4712 C 0.052 0.62612 0.0529 0.0
C4713 C 0.03676 0.61148 0.05734 0.0
C4714 C 0.03304 0.59162 0.05007 0.0
C4715 C 0.05524 0.64729 0.05979 0.0
C4716 C 0.05925 0.65313 0.0782 0.0
C4717 C 0.05423 0.66161 0.04831 0.0
C4718 C 0.04925 0.65609 0.02886 0.0
C4719 C 0.03276 0.64164 0.0225 0.0
C4720 C 0.02813 0.63654 0.00414 0.0
C4721 C 0.0398 0.64592 0.992 0.0
C4722 C 0.05612 0.66046 -0.00179 0.0
C4723 C 0.06083 0.66558 0.01656 0.0
H4724 H 0.03619 0.64197 0.97779 0.0
H4725 H 0.07724 0.6919 0.15636 0.0
H4726 H 0.04878 0.29056 0.85632 0.0
H4727 H 0.0782 0.2945 0.84499 0.0
H4728 H 0.09372 0.26663 0.88876 0.0
H4729 H 0.06409 0.26264 0.90037 0.0
H4730 H 0.12173 0.29947 0.88031 0.0
H4731 H 0.08001 0.23917 0.85014 0.0
H4732 H 0.0517 0.21829 0.8331 0.0
H4733 H 0.06315 0.25435 0.7901 0.0
H4734 H 0.09142 0.27563 0.80699 0.0
H4735 H 0.19446 0.27839 0.8351 0.0
H4736 H 0.16826 0.27733 0.85201 0.0
H4737 H 0.14407 0.29874 0.8087 0.0
H4738 H 0.16968 0.29898 0.79146 0.0
H4739 H 0.1208 0.26727 0.81871 0.0
H4740 H 0.16209 0.32814 0.84884 0.0
H4741 H 0.19007 0.34972 0.86596 0.0
H4742 H 0.17953 0.31344 0.90887 0.0
H4743 H 0.15162 0.29143 0.89188 0.0
C4744 C 0.05847 0.28543 0.86371 0.0
C4745 C 0.054 0.2761 0.87917 0.0
C4746 C 0.07528 0.28766 0.85716 0.0
C4747 C 0.08801 0.28055 0.86586 0.0
C4748 C 0.08403 0.27213 0.88181 0.0
C4749 C 0.0671 0.26986 0.88841 0.0
C4750 C 0.10502 0.28111 0.85765 0.0
C4751 C 0.12161 0.29219 0.86695 0.0
C4752 C 0.10477 0.27187 0.8401 0.0
C4753 C 0.08776 0.2591 0.82991 0.0
C4754 C 0.07642 0.24275 0.83711 0.0
C4755 C 0.06039 0.23082 0.82747 0.0
C4756 C 0.05561 0.23501 0.81055 0.0
C4757 C 0.06687 0.25113 0.80322 0.0
C4758 C 0.0829 0.26312 0.81282 0.0
C4759 C 0.18356 0.28287 0.82917 0.0
C4760 C 0.1842 0.28872 0.81186 0.0
C4761 C 0.16868 0.28247 0.83895 0.0
C4762 C 0.15422 0.28806 0.83168 0.0
C4763 C 0.15506 0.29438 0.81461 0.0
C4764 C 0.16984 0.29469 0.80482 0.0
C4765 C 0.13762 0.28606 0.84116 0.0
C4766 C 0.12103 0.27455 0.8321 0.0
C4767 C 0.13794 0.29495 0.85888 0.0
C4768 C 0.15488 0.30798 0.86897 0.0
C4769 C 0.16585 0.32462 0.86183 0.0
C4770 C 0.18167 0.33696 0.87154 0.0
C4771 C 0.18661 0.33291 0.88847 0.0
C4772 C 0.17572 0.31653 0.89574 0.0
C4773 C 0.15989 0.30411 0.88607 0.0
H4774 H 0.19885 0.34251 0.89597 0.0
H4775 H 0.0432 0.22576 0.8031 0.0
H4776 H 0.50566 0.68871 0.89424 0.0
H4777 H 0.50703 0.66021 0.90927 0.0
H4778 H 0.55501 0.69709 0.94118 0.0
H4779 H 0.5543 0.72544 0.9249 0.0
H4780 H 0.55943 0.66394 0.93949 0.0
H4781 H 0.5053 0.67763 0.95497 0.0
H4782 H 0.47572 0.68324 0.95022 0.0
H4783 H 0.45388 0.62483 0.92113 0.0
H4784 H 0.4834 0.61896 0.92553 0.0
H4785 H 0.54703 0.59641 0.00798 0.0
H4786 H 0.54718 0.62424 0.99095 0.0
H4787 H 0.51468 0.58292 0.94761 0.0
H4788 H 0.51501 0.55486 0.96442 0.0
H4789 H 0.50238 0.61784 0.95575 0.0
H4790 H 0.55767 0.60475 0.94253 0.0
H4791 H 0.58697 0.59968 0.95036 0.0
H4792 H 0.60624 0.65851 0.97902 0.0
H4793 H 0.57694 0.66384 0.97154 0.0
C4794 C 0.5167 0.69082 0.90431 0.0
C4795 C 0.52991 0.70974 0.90801 0.0
C4796 C 0.51732 0.67433 0.91333 0.0
C4797 C 0.53072 0.6759 0.92731 0.0
C4798 C 0.54426 0.69479 0.93076 0.0
C4799 C 0.54392 0.71127 0.9213 0.0
C4800 C 0.53054 0.65809 0.93804 0.0
C4801 C 0.54683 0.6542 0.94315 0.0
C4802 C 0.51437 0.64448 0.94311 0.0
C4803 C 0.49661 0.64795 0.94042 0.0
C4804 C 0.49422 0.66603 0.94747 0.0
C4805 C 0.47746 0.66925 0.94485 0.0
C4806 C 0.46294 0.65442 0.93534 0.0
C4807 C 0.46514 0.63631 0.92847 0.0
C4808 C 0.48188 0.63303 0.93103 0.0
C4809 C 0.53988 0.59305 0.99481 0.0
C4810 C 0.53101 0.57292 0.98785 0.0
C4811 C 0.54001 0.60921 0.98493 0.0
C4812 C 0.53095 0.60622 0.96768 0.0
C4813 C 0.52183 0.58613 0.96077 0.0
C4814 C 0.52207 0.56988 0.97049 0.0
C4815 C 0.53114 0.62388 0.95702 0.0
C4816 C 0.51489 0.62769 0.952 0.0
C4817 C 0.54732 0.63761 0.95239 0.0
C4818 C 0.56505 0.63462 0.95662 0.0
C4819 C 0.56811 0.61656 0.95061 0.0
C4820 C 0.58472 0.61364 0.95497 0.0
C4821 C 0.59844 0.62873 0.96524 0.0
C4822 C 0.59559 0.64682 0.97109 0.0
C4823 C 0.57899 0.64981 0.96677 0.0
H4824 H 0.61128 0.62643 0.96864 0.0
H4825 H 0.44998 0.65694 0.93332 0.0
H4826 H 0.08316 0.75981 0.71329 0.0
H4827 H 0.11332 0.76084 0.7242 0.0
H4828 H 0.13625 0.80794 0.69246 0.0
H4829 H 0.10549 0.80675 0.68108 0.0
H4830 H 0.15705 0.784 0.69114 0.0
H4831 H 0.13614 0.81452 0.74127 0.0
H4832 H 0.11544 0.81793 0.76417 0.0
H4833 H 0.11911 0.76435 0.7839 0.0
H4834 H 0.13968 0.76048 0.76099 0.0
H4835 H 0.24672 0.8027 0.73345 0.0
H4836 H 0.21725 0.8049 0.72274 0.0
H4837 H 0.19092 0.75857 0.75397 0.0
H4838 H 0.22054 0.75654 0.76495 0.0
H4839 H 0.17228 0.7837 0.75563 0.0
H4840 H 0.19212 0.75243 0.70505 0.0
H4841 H 0.21316 0.74898 0.68251 0.0
H4842 H 0.21155 0.80383 0.66388 0.0
H4843 H 0.19067 0.80772 0.68648 0.0
C4844 C 0.09445 0.77061 0.70852 0.0
C4845 C 0.09126 0.78327 0.69613 0.0
C4846 C 0.11205 0.77126 0.71503 0.0
C4847 C 0.12775 0.78471 0.70969 0.0
C4848 C 0.12475 0.79736 0.69715 0.0
C4849 C 0.10693 0.79676 0.69061 0.0
C4850 C 0.14688 0.78507 0.71704 0.0
C4851 C 0.16032 0.7843 0.70531 0.0
C4852 C 0.15174 0.7849 0.73554 0.0
C4853 C 0.13932 0.78712 0.74929 0.0
C4854 C 0.13243 0.80338 0.75041 0.0
C4855 C 0.12074 0.80541 0.76341 0.0
C4856 C 0.11592 0.79133 0.77545 0.0
C4857 C 0.12283 0.77522 0.77455 0.0
C4858 C 0.13452 0.77312 0.76157 0.0
C4859 C 0.23474 0.79288 0.73814 0.0
C4860 C 0.23653 0.77933 0.7502 0.0
C4861 C 0.21759 0.79406 0.73179 0.0
C4862 C 0.20117 0.78167 0.73703 0.0
C4863 C 0.20295 0.76841 0.74938 0.0
C4864 C 0.22014 0.7672 0.75573 0.0
C4865 C 0.18242 0.78255 0.72972 0.0
C4866 C 0.16903 0.78348 0.74146 0.0
C4867 C 0.1776 0.78284 0.71125 0.0
C4868 C 0.18998 0.78046 0.69756 0.0
C4869 C 0.19634 0.76381 0.69621 0.0
C4870 C 0.20823 0.76177 0.68342 0.0
C4871 C 0.21373 0.77621 0.6718 0.0
C4872 C 0.2073 0.79267 0.67291 0.0
C4873 C 0.19543 0.7948 0.68569 0.0
H4874 H 0.22294 0.77461 0.66192 0.0
H4875 H 0.10688 0.79293 0.78551 0.0
H4876 H 0.05758 0.3303 0.39991 0.0
H4877 H 0.06143 0.36411 0.4149 0.0
H4878 H 0.01249 0.34151 0.4405 0.0
H4879 H 0.00865 0.30825 0.42588 0.0
H4880 H 0.01174 0.37518 0.42973 0.0
H4881 H 0.05778 0.35598 0.46269 0.0
H4882 H 0.08512 0.3454 0.46575 0.0
H4883 H 0.11581 0.39761 0.44385 0.0
H4884 H 0.08859 0.40839 0.44049 0.0
H4885 H 0.039 0.45354 0.51205 0.0
H4886 H 0.03845 0.42255 0.49382 0.0
H4887 H 0.04353 0.45278 0.44678 0.0
H4888 H 0.04321 0.48353 0.4648 0.0
H4889 H 0.06714 0.4169 0.46651 0.0
H4890 H 0.01939 0.43164 0.42716 0.0
H4891 H 0.99198 0.44206 0.42389 0.0
H4892 H 0.96488 0.39792 0.45662 0.0
H4893 H 0.99241 0.38774 0.46053 0.0
C4894 C 0.04773 0.33243 0.40888 0.0
C4895 C 0.03282 0.31596 0.41151 0.0
C4896 C 0.04993 0.35198 0.41755 0.0
C4897 C 0.03728 0.35592 0.42915 0.0
C4898 C 0.02253 0.33945 0.43173 0.0
C4899 C 0.02041 0.32008 0.42327 0.0
C4900 C 0.03896 0.37679 0.43858 0.0
C4901 C 0.02399 0.38418 0.43766 0.0
C4902 C 0.05479 0.38927 0.44903 0.0
C4903 C 0.07114 0.38288 0.45118 0.0
C4904 C 0.07034 0.36513 0.45843 0.0
C4905 C 0.08581 0.35911 0.46023 0.0
C4906 C 0.10218 0.3708 0.45495 0.0
C4907 C 0.10312 0.38856 0.44791 0.0
C4908 C 0.08768 0.39464 0.44607 0.0
C4909 C 0.0399 0.45366 0.4978 0.0
C4910 C 0.041 0.47136 0.4901 0.0
C4911 C 0.03957 0.43575 0.48728 0.0
C4912 C 0.04055 0.43473 0.4686 0.0
C4913 C 0.04214 0.45254 0.46094 0.0
C4914 C 0.0421 0.47037 0.4714 0.0
C4915 C 0.04003 0.41522 0.45739 0.0
C4916 C 0.05507 0.40799 0.45826 0.0
C4917 C 0.02443 0.40303 0.44656 0.0
C4918 C 0.00807 0.40936 0.44455 0.0
C4919 C 0.00772 0.4245 0.43399 0.0
C4920 C 0.99214 0.43029 0.43195 0.0
C4921 C 0.97673 0.42076 0.44016 0.0
C4922 C 0.97687 0.40539 0.45038 0.0
C4923 C 0.99247 0.39967 0.45258 0.0
H4924 H 0.96465 0.4252 0.4385 0.0
H4925 H 0.11414 0.3661 0.45636 0.0
H4926 H 0.46696 0.26501 0.16856 0.0
H4927 H 0.4382 0.26252 0.18143 0.0
H4928 H 0.46557 0.31051 0.22235 0.0
H4929 H 0.49444 0.31229 0.20992 0.0
H4930 H 0.4419 0.28937 0.23851 0.0
H4931 H 0.433 0.31138 0.18228 0.0
H4932 H 0.43187 0.31139 0.14958 0.0
H4933 H 0.3918 0.25378 0.14271 0.0
H4934 H 0.39284 0.25333 0.17537 0.0
H4935 H 0.35866 0.30781 0.26455 0.0
H4936 H 0.38751 0.30957 0.25193 0.0
H4937 H 0.36335 0.25145 0.22271 0.0
H4938 H 0.33458 0.24941 0.23569 0.0
H4939 H 0.3849 0.27781 0.20081 0.0
H4940 H 0.39382 0.25842 0.25892 0.0
H4941 H 0.39494 0.26146 0.29179 0.0
H4942 H 0.43533 0.31863 0.29509 0.0
H4943 H 0.43425 0.31606 0.2622 0.0
C4944 C 0.46695 0.27524 0.1802 0.0
C4945 C 0.48351 0.28905 0.18784 0.0
C4946 C 0.45018 0.27391 0.18766 0.0
C4947 C 0.44884 0.28657 0.20302 0.0
C4948 C 0.46547 0.30036 0.21062 0.0
C4949 C 0.48227 0.30152 0.2033 0.0
C4950 C 0.43054 0.28528 0.21125 0.0
C4951 C 0.42962 0.28714 0.23004 0.0
C4952 C 0.41379 0.28209 0.20087 0.0
C4953 C 0.41316 0.28223 0.18125 0.0
C4954 C 0.42404 0.29865 0.17378 0.0
C4955 C 0.4234 0.29875 0.15526 0.0
C4956 C 0.41181 0.28257 0.14407 0.0
C4957 C 0.4008 0.26629 0.15139 0.0
C4958 C 0.4014 0.26611 0.16991 0.0
C4959 C 0.35937 0.29522 0.25557 0.0
C4960 C 0.3438 0.27834 0.25151 0.0
C4961 C 0.37614 0.29626 0.24825 0.0
C4962 C 0.37823 0.28066 0.23612 0.0
C4963 C 0.36263 0.26387 0.2319 0.0
C4964 C 0.34596 0.26264 0.23954 0.0
C4965 C 0.3964 0.28189 0.2279 0.0
C4966 C 0.39726 0.28005 0.20917 0.0
C4967 C 0.41314 0.28555 0.23833 0.0
C4968 C 0.41381 0.28714 0.25809 0.0
C4969 C 0.40282 0.27172 0.26664 0.0
C4970 C 0.40347 0.27334 0.28529 0.0
C4971 C 0.41516 0.29025 0.29553 0.0
C4972 C 0.42626 0.30556 0.28714 0.0
C4973 C 0.42564 0.30402 0.2685 0.0
H4974 H 0.41565 0.29148 0.30996 0.0
H4975 H 0.41133 0.28267 0.12973 0.0
H4976 H 0.65051 0.55092 0.36197 0.0
H4977 H 0.63552 0.56006 0.3879 0.0
H4978 H 0.58438 0.52027 0.3632 0.0
H4979 H 0.59901 0.51298 0.33698 0.0
H4980 H 0.57716 0.54728 0.38045 0.0
H4981 H 0.61742 0.50772 0.39373 0.0
H4982 H 0.6467 0.50134 0.39836 0.0
H4983 H 0.66523 0.55245 0.43802 0.0
H4984 H 0.63613 0.55928 0.43341 0.0
H4985 H 0.54018 0.48626 0.4505 0.0
H4986 H 0.55742 0.49802 0.42506 0.0
H4987 H 0.57465 0.55805 0.45206 0.0
H4988 H 0.55745 0.54653 0.47706 0.0
H4989 H 0.60139 0.5316 0.43732 0.0
H4990 H 0.55356 0.56255 0.42525 0.0
H4991 H 0.52112 0.559 0.42146 0.0
H4992 H 0.51379 0.51251 0.37809 0.0
H4993 H 0.54619 0.5154 0.38202 0.0
C4994 C 0.63602 0.54459 0.36217 0.0
C4995 C 0.62574 0.53115 0.3479 0.0
C4996 C 0.6275 0.54973 0.37686 0.0
C4997 C 0.60889 0.54053 0.37766 0.0
C4998 C 0.5987 0.52773 0.36291 0.0
C4999 C 0.60704 0.52335 0.34802 0.0
C5000 C 0.60004 0.54203 0.39426 0.0
C5001 C 0.58261 0.54406 0.39291 0.0
C5002 C 0.60713 0.53801 0.41065 0.0
C5003 C 0.62478 0.53424 0.41297 0.0
C5004 C 0.62783 0.51771 0.40328 0.0
C5005 C 0.64437 0.514 0.40593 0.0
C5006 C 0.65785 0.52654 0.41841 0.0
C5007 C 0.65481 0.54281 0.42829 0.0
C5008 C 0.63832 0.54664 0.42564 0.0
C5009 C 0.54755 0.50193 0.45076 0.0
C5010 C 0.54781 0.51558 0.46551 0.0
C5011 C 0.55723 0.50859 0.43639 0.0
C5012 C 0.56702 0.52884 0.43693 0.0
C5013 C 0.56699 0.54244 0.45157 0.0
C5014 C 0.55729 0.53584 0.46577 0.0
C5015 C 0.57849 0.53557 0.42282 0.0
C5016 C 0.59635 0.53541 0.42492 0.0
C5017 C 0.5715 0.54021 0.40688 0.0
C5018 C 0.55225 0.53915 0.40399 0.0
C5019 C 0.54502 0.55151 0.41497 0.0
C5020 C 0.52663 0.54963 0.41277 0.0
C5021 C 0.51537 0.53559 0.39949 0.0
C5022 C 0.52252 0.5234 0.38836 0.0
C5023 C 0.54089 0.52516 0.39057 0.0
H5024 H 0.50113 0.53414 0.39783 0.0
H5025 H 0.67062 0.52361 0.42047 0.0
H5026 H 0.31999 0.87 0.02766 0.0
H5027 H 0.33393 0.86808 0.05666 0.0
H5028 H 0.28495 0.86871 0.08072 0.0
H5029 H 0.27151 0.87258 0.05192 0.0
H5030 H 0.31218 0.89037 0.10195 0.0
H5031 H 0.29779 0.82433 0.06797 0.0
H5032 H 0.29978 0.8009 0.04228 0.0
H5033 H 0.35746 0.81854 0.05289 0.0
H5034 H 0.35581 0.84222 0.07854 0.0
H5035 H 0.3037 0.83239 0.17191 0.0
H5036 H 0.30382 0.85024 0.14609 0.0
H5037 H 0.35787 0.84883 0.13766 0.0
H5038 H 0.35771 0.83053 0.16362 0.0
H5039 H 0.33626 0.83392 0.10887 0.0
H5040 H 0.34863 0.89418 0.14778 0.0
H5041 H 0.34552 0.91635 0.17389 0.0
H5042 H 0.29061 0.90854 0.15494 0.0
H5043 H 0.29331 0.88616 0.1288 0.0
C5044 C 0.31226 0.8701 0.03912 0.0
C5045 C 0.29474 0.87185 0.03751 0.0
C5046 C 0.32021 0.86876 0.05572 0.0
C5047 C 0.31045 0.86804 0.07087 0.0
C5048 C 0.29282 0.8694 0.06924 0.0
C5049 C 0.28508 0.87143 0.05275 0.0
C5050 C 0.31823 0.86521 0.08835 0.0
C5051 C 0.31738 0.87798 0.10351 0.0
C5052 C 0.32577 0.84958 0.09029 0.0
C5053 C 0.3267 0.83517 0.07502 0.0
C5054 C 0.3109 0.82326 0.06476 0.0
C5055 C 0.31196 0.80994 0.05022 0.0
C5056 C 0.32874 0.80828 0.04592 0.0
C5057 C 0.34448 0.81987 0.05621 0.0
C5058 C 0.34349 0.83323 0.07075 0.0
C5059 C 0.31585 0.83642 0.16493 0.0
C5060 C 0.33069 0.83005 0.16973 0.0
C5061 C 0.31594 0.84674 0.15018 0.0
C5062 C 0.33096 0.85113 0.14007 0.0
C5063 C 0.34619 0.84567 0.14536 0.0
C5064 C 0.34605 0.83516 0.16009 0.0
C5065 C 0.32939 0.85849 0.1226 0.0
C5066 C 0.33149 0.84663 0.10737 0.0
C5067 C 0.32284 0.87482 0.12066 0.0
C5068 C 0.32119 0.88845 0.13631 0.0
C5069 C 0.33587 0.89712 0.1492 0.0
C5070 C 0.33418 0.90975 0.164 0.0
C5071 C 0.31788 0.91387 0.16606 0.0
C5072 C 0.30324 0.90538 0.1533 0.0
C5073 C 0.30486 0.89276 0.13846 0.0
H5074 H 0.3166 0.92362 0.17755 0.0
H5075 H 0.32954 0.79797 0.03465 0.0
H5076 H 0.94443 0.51693 0.83494 0.0
H5077 H 0.9533 0.50866 0.86409 0.0
H5078 H 0.00814 0.54539 0.86025 0.0
H5079 H 0.99945 0.55238 0.83065 0.0
H5080 H 0.00897 0.51565 0.87636 0.0
H5081 H 0.97373 0.56258 0.88043 0.0
H5082 H 0.94619 0.5722 0.87464 0.0
H5083 H 0.9157 0.52402 0.9016 0.0
H5084 H 0.94302 0.51396 0.90731 0.0
H5085 H 0.04765 0.56086 0.95993 0.0
H5086 H 0.03055 0.55731 0.93095 0.0
H5087 H 0.98812 0.50858 0.94673 0.0
H5088 H 0.00522 0.51199 0.97556 0.0
H5089 H 0.97674 0.53711 0.92582 0.0
H5090 H 0.01513 0.49436 0.92527 0.0
H5091 H 0.04444 0.48936 0.93315 0.0
H5092 H 0.07051 0.53376 0.90022 0.0
H5093 H 0.04141 0.53944 0.89254 0.0
C5094 C 0.95841 0.52281 0.8403 0.0
C5095 C 0.97133 0.5354 0.83099 0.0
C5096 C 0.96344 0.51816 0.85686 0.0
C5097 C 0.98125 0.52685 0.86447 0.0
C5098 C 0.99432 0.53856 0.8546 0.0
C5099 C 0.98939 0.54263 0.83781 0.0
C5100 C 0.98617 0.52543 0.88322 0.0
C5101 C 1.00185 0.52025 0.88713 0.0
C5102 C 0.97666 0.53109 0.89729 0.0
C5103 C 0.96034 0.53738 0.8941 0.0
C5104 C 0.96112 0.55399 0.88504 0.0
C5105 C 0.94556 0.55952 0.88177 0.0
C5106 C 0.92919 0.54869 0.8877 0.0
C5107 C 0.92837 0.53236 0.89697 0.0
C5108 C 0.94389 0.52674 0.90022 0.0
C5109 C 0.03454 0.54966 0.95723 0.0
C5110 C 0.02753 0.53682 0.9698 0.0
C5111 C 0.02479 0.54773 0.94087 0.0
C5112 C 0.00818 0.53269 0.93694 0.0
C5113 C 1.00083 0.52039 0.94977 0.0
C5114 C 0.01057 0.52235 0.96614 0.0
C5115 C 0.99982 0.52822 0.91864 0.0
C5116 C 0.98351 0.53207 0.91494 0.0
C5117 C 0.00885 0.52168 0.90473 0.0
C5118 C 0.0261 0.51731 0.90833 0.0
C5119 C 0.02711 0.50304 0.9197 0.0
C5120 C 0.04369 0.50012 0.92416 0.0
C5121 C 0.05932 0.51117 0.91714 0.0
C5122 C 0.05839 0.52517 0.90561 0.0
C5123 C 0.04185 0.52824 0.90119 0.0
H5124 H 0.07215 0.5089 0.92064 0.0
H5125 H 0.91716 0.55298 0.88515 0.0
H5126 H 0.32342 0.25177 0.56527 0.0
H5127 H 0.31973 0.26165 0.59645 0.0
H5128 H 0.27546 0.20768 0.59641 0.0
H5129 H 0.27857 0.19816 0.565 0.0
H5130 H 0.26781 0.23575 0.61561 0.0
H5131 H 0.32128 0.21468 0.61455 0.0
H5132 H 0.35129 0.21547 0.60497 0.0
H5133 H 0.37292 0.27687 0.62714 0.0
H5134 H 0.34298 0.27651 0.63666 0.0
H5135 H 0.26742 0.23644 0.71017 0.0
H5136 H 0.26907 0.22855 0.67806 0.0
H5137 H 0.31511 0.28114 0.67914 0.0
H5138 H 0.314 0.28824 0.71149 0.0
H5139 H 0.3217 0.25412 0.65917 0.0
H5140 H 0.26827 0.27519 0.66061 0.0
H5141 H 0.23809 0.27459 0.66956 0.0
H5142 H 0.21631 0.21347 0.64662 0.0
H5143 H 0.2464 0.21364 0.6377 0.0
C5144 C 0.31275 0.24211 0.5718 0.0
C5145 C 0.30137 0.22411 0.56251 0.0
C5146 C 0.31074 0.24768 0.58978 0.0
C5147 C 0.29761 0.2352 0.59916 0.0
C5148 C 0.28577 0.2176 0.58968 0.0
C5149 C 0.28759 0.21218 0.57162 0.0
C5150 C 0.29643 0.24016 0.61885 0.0
C5151 C 0.27959 0.23955 0.62513 0.0
C5152 C 0.31177 0.24556 0.63146 0.0
C5153 C 0.32986 0.24562 0.62615 0.0
C5154 C 0.33243 0.22837 0.6173 0.0
C5155 C 0.34941 0.22875 0.61187 0.0
C5156 C 0.36396 0.24625 0.61532 0.0
C5157 C 0.3616 0.26336 0.62438 0.0
C5158 C 0.34465 0.26307 0.62983 0.0
C5159 C 0.27781 0.24632 0.70347 0.0
C5160 C 0.29049 0.26302 0.71324 0.0
C5161 C 0.27869 0.24192 0.68503 0.0
C5162 C 0.29199 0.25444 0.67579 0.0
C5163 C 0.30467 0.27118 0.68572 0.0
C5164 C 0.304 0.27533 0.70422 0.0
C5165 C 0.29307 0.24985 0.656 0.0
C5166 C 0.3099 0.25043 0.64968 0.0
C5167 C 0.27772 0.24445 0.64337 0.0
C5168 C 0.25961 0.24439 0.64862 0.0
C5169 C 0.25706 0.26159 0.65756 0.0
C5170 C 0.23997 0.26134 0.66261 0.0
C5171 C 0.22531 0.24399 0.6587 0.0
C5172 C 0.22769 0.22689 0.64966 0.0
C5173 C 0.24474 0.22706 0.64458 0.0
H5174 H 0.21209 0.24382 0.66263 0.0
H5175 H 0.3771 0.24652 0.6111 0.0
H5176 H 0.59648 0.48982 0.25467 0.0
H5177 H 0.58496 0.50082 0.22818 0.0
H5178 H 0.6366 0.54508 0.22633 0.0
H5179 H 0.64834 0.53419 0.25292 0.0
H5180 H 0.60364 0.55844 0.22263 0.0
H5181 H 0.63073 0.51082 0.1943 0.0
H5182 H 0.63743 0.47893 0.19465 0.0
H5183 H 0.58069 0.44744 0.19117 0.0
H5184 H 0.57364 0.47913 0.19028 0.0
H5185 H 0.58414 0.5788 0.13435 0.0
H5186 H 0.59876 0.57108 0.16099 0.0
H5187 H 0.55235 0.51987 0.16365 0.0
H5188 H 0.53778 0.52733 0.13689 0.0
H5189 H 0.58487 0.51133 0.16684 0.0
H5190 H 0.55804 0.55977 0.19203 0.0
H5191 H 0.55173 0.59197 0.19469 0.0
H5192 H 0.60826 0.62285 0.20714 0.0
H5193 H 0.61494 0.59081 0.20429 0.0
C5194 C 0.60545 0.50177 0.24855 0.0
C5195 C 0.62332 0.51106 0.25576 0.0
C5196 C 0.59883 0.50809 0.23352 0.0
C5197 C 0.60997 0.52377 0.22549 0.0
C5198 C 0.62785 0.53303 0.23251 0.0
C5199 C 0.63455 0.52662 0.24753 0.0
C5200 C 0.60288 0.52985 0.20934 0.0
C5201 C 0.59983 0.5484 0.21029 0.0
C5202 C 0.59769 0.51648 0.19352 0.0
C5203 C 0.60168 0.49725 0.19205 0.0
C5204 C 0.61969 0.49703 0.1933 0.0
C5205 C 0.62354 0.47902 0.1936 0.0
C5206 C 0.60948 0.46115 0.19277 0.0
C5207 C 0.59154 0.46127 0.19154 0.0
C5208 C 0.5876 0.47922 0.19097 0.0
C5209 C 0.57705 0.56597 0.1407 0.0
C5210 C 0.55982 0.55371 0.13367 0.0
C5211 C 0.58537 0.56162 0.15588 0.0
C5212 C 0.57657 0.54494 0.16421 0.0
C5213 C 0.55931 0.53279 0.15734 0.0
C5214 C 0.55094 0.53719 0.14222 0.0
C5215 C 0.58547 0.54004 0.18003 0.0
C5216 C 0.58885 0.5216 0.17904 0.0
C5217 C 0.591 0.55363 0.1958 0.0
C5218 C 0.58701 0.5729 0.19776 0.0
C5219 C 0.56915 0.57343 0.19519 0.0
C5220 C 0.5655 0.59166 0.19676 0.0
C5221 C 0.5796 0.60945 0.20103 0.0
C5222 C 0.59736 0.60905 0.20381 0.0
C5223 C 0.60108 0.59086 0.20223 0.0
H5224 H 0.57675 0.62355 0.20223 0.0
H5225 H 0.61247 0.44723 0.19319 0.0
H5226 H 0.26972 0.86836 0.95509 0.0
H5227 H 0.26539 0.85212 0.92422 0.0
H5228 H 0.31786 0.88985 0.91409 0.0
H5229 H 0.32261 0.90551 0.94515 0.0
H5230 H 0.27572 0.87541 0.88678 0.0
H5231 H 0.33034 0.86096 0.91441 0.0
H5232 H 0.34526 0.85107 0.93996 0.0
H5233 H 0.29936 0.79913 0.94018 0.0
H5234 H 0.28403 0.80902 0.91484 0.0
H5235 H 0.29919 0.83354 0.80688 0.0
H5236 H 0.29934 0.85151 0.83614 0.0
H5237 H 0.27464 0.79581 0.85671 0.0
H5238 H 0.27524 0.77767 0.82755 0.0
H5239 H 0.30066 0.81853 0.87943 0.0
H5240 H 0.24999 0.82813 0.84678 0.0
H5241 H 0.23468 0.83704 0.82093 0.0
H5242 H 0.27109 0.89675 0.8298 0.0
H5243 H 0.28673 0.88815 0.85562 0.0
C5244 C 0.28012 0.87344 0.94612 0.0
C5245 C 0.29651 0.88803 0.95233 0.0
C5246 C 0.27766 0.86417 0.92861 0.0
C5247 C 0.29141 0.86977 0.91715 0.0
C5248 C 0.30723 0.88533 0.92294 0.0
C5249 C 0.3099 0.89423 0.94056 0.0
C5250 C 0.28998 0.85811 0.89971 0.0
C5251 C 0.28124 0.86306 0.88503 0.0
C5252 C 0.29682 0.84178 0.89776 0.0
C5253 C 0.30594 0.83591 0.91301 0.0
C5254 C 0.32334 0.84759 0.92009 0.0
C5255 C 0.33189 0.84196 0.93449 0.0
C5256 C 0.32323 0.82453 0.94175 0.0
C5257 C 0.30602 0.81267 0.93459 0.0
C5258 C 0.29739 0.8183 0.92024 0.0
C5259 C 0.2937 0.82515 0.81761 0.0
C5260 C 0.28712 0.80427 0.81499 0.0
C5261 C 0.29372 0.83542 0.83429 0.0
C5262 C 0.28666 0.825 0.84848 0.0
C5263 C 0.28008 0.80411 0.8459 0.0
C5264 C 0.28041 0.7938 0.82927 0.0
C5265 C 0.28663 0.83595 0.86613 0.0
C5266 C 0.29501 0.8308 0.881 0.0
C5267 C 0.27936 0.85205 0.8682 0.0
C5268 C 0.26957 0.85747 0.85309 0.0
C5269 C 0.25474 0.84316 0.8432 0.0
C5270 C 0.24602 0.84815 0.82856 0.0
C5271 C 0.25193 0.86744 0.82371 0.0
C5272 C 0.26652 0.88182 0.83358 0.0
C5273 C 0.27529 0.87691 0.84825 0.0
H5274 H 0.2452 0.87126 0.81233 0.0
H5275 H 0.32988 0.82016 0.95286 0.0
H5276 H 0.97418 0.59889 0.74398 0.0
H5277 H 0.97327 0.5775 0.71605 0.0
H5278 H 0.98062 0.53151 0.74637 0.0
H5279 H 0.98281 0.55338 0.77387 0.0
H5280 H 0.00359 0.53813 0.72301 0.0
H5281 H 0.94046 0.5247 0.72157 0.0
H5282 H 0.91105 0.53096 0.72289 0.0
H5283 H 0.92092 0.56278 0.67704 0.0
H5284 H 0.95053 0.55697 0.67559 0.0
H5285 H 1.00137 0.47811 0.64063 0.0
H5286 H 0.99073 0.48762 0.66916 0.0
H5287 H 0.99095 0.54389 0.65177 0.0
H5288 H 1.00193 0.53479 0.62355 0.0
H5289 H 0.96004 0.52529 0.66962 0.0
H5290 H 0.0264 0.54288 0.67665 0.0
H5291 H 0.05518 0.53498 0.67615 0.0
H5292 H 0.0369 0.49185 0.7127 0.0
H5293 H 0.00796 0.49943 0.71331 0.0
C5294 C 0.97543 0.58413 0.74456 0.0
C5295 C 0.978 0.57739 0.76103 0.0
C5296 C 0.97467 0.57185 0.72868 0.0
C5297 C 0.97649 0.55274 0.72918 0.0
C5298 C 0.97887 0.54604 0.74568 0.0
C5299 C 0.97981 0.55837 0.76142 0.0
C5300 C 0.97816 0.54076 0.71261 0.0
C5301 C 0.9938 0.53491 0.71149 0.0
C5302 C 0.96546 0.53663 0.69758 0.0
C5303 C 0.94781 0.54054 0.69856 0.0
C5304 C 0.93645 0.53322 0.71187 0.0
C5305 C 0.91972 0.53664 0.71262 0.0
C5306 C 0.91413 0.54729 0.70007 0.0
C5307 C 0.92527 0.55453 0.68675 0.0
C5308 C 0.94203 0.55117 0.68595 0.0
C5309 C 0.99907 0.49246 0.6429 0.0
C5310 C 1.00246 0.50571 0.62989 0.0
C5311 C 0.99291 0.49779 0.65909 0.0
C5312 C 0.99008 0.51641 0.66243 0.0
C5313 C 0.99289 0.52936 0.64928 0.0
C5314 C 0.99912 0.52411 0.63317 0.0
C5315 C 0.98559 0.52328 0.68009 0.0
C5316 C 0.96949 0.52816 0.68136 0.0
C5317 C 0.99769 0.52623 0.69541 0.0
C5318 C 0.01497 0.52154 0.69485 0.0
C5319 C 0.02848 0.5316 0.68446 0.0
C5320 C 0.04482 0.52722 0.68419 0.0
C5321 C 0.04784 0.51288 0.69435 0.0
C5322 C 0.03453 0.50292 0.70482 0.0
C5323 C 0.01817 0.50726 0.70514 0.0
H5324 H 0.06051 0.50952 0.69413 0.0
H5325 H 0.90116 0.5499 0.70066 0.0
H5326 H 0.27801 0.20068 0.45578 0.0
H5327 H 0.27729 0.2107 0.42567 0.0
H5328 H 0.3198 0.26526 0.44343 0.0
H5329 H 0.32108 0.25501 0.4735 0.0
H5330 H 0.28613 0.26604 0.41783 0.0
H5331 H 0.33564 0.23855 0.42457 0.0
H5332 H 0.34968 0.21332 0.43262 0.0
H5333 H 0.31204 0.1691 0.39476 0.0
H5334 H 0.29756 0.19403 0.38673 0.0
H5335 H 0.31446 0.29366 0.33227 0.0
H5336 H 0.31474 0.28709 0.3636 0.0
H5337 H 0.28419 0.22561 0.3473 0.0
H5338 H 0.28362 0.23212 0.31606 0.0
H5339 H 0.31221 0.22926 0.37273 0.0
H5340 H 0.26346 0.25614 0.36475 0.0
H5341 H 0.24844 0.28047 0.35648 0.0
H5342 H 0.28315 0.32494 0.39625 0.0
H5343 H 0.29863 0.30096 0.40452 0.0
C5344 C 0.28694 0.21504 0.45345 0.0
C5345 C 0.29956 0.22706 0.4672 0.0
C5346 C 0.28658 0.2207 0.43615 0.0
C5347 C 0.29853 0.23872 0.43221 0.0
C5348 C 0.31042 0.25131 0.44611 0.0
C5349 C 0.31111 0.24543 0.46333 0.0
C5350 C 0.29942 0.24361 0.41335 0.0
C5351 C 0.29208 0.25823 0.40803 0.0
C5352 C 0.30677 0.23313 0.40039 0.0
C5353 C 0.31534 0.21808 0.40526 0.0
C5354 C 0.3302 0.22339 0.41814 0.0
C5355 C 0.33828 0.20916 0.42266 0.0
C5356 C 0.33171 0.1896 0.41425 0.0
C5357 C 0.31708 0.18424 0.40129 0.0
C5358 C 0.30893 0.19842 0.39676 0.0
C5359 C 0.30793 0.27869 0.33532 0.0
C5360 C 0.29904 0.26342 0.32155 0.0
C5361 C 0.308 0.27498 0.3533 0.0
C5362 C 0.29937 0.25585 0.35794 0.0
C5363 C 0.29093 0.24049 0.34416 0.0
C5364 C 0.2906 0.24426 0.32625 0.0
C5365 C 0.299 0.25182 0.37711 0.0
C5366 C 0.30636 0.23724 0.3825 0.0
C5367 C 0.29158 0.26231 0.39008 0.0
C5368 C 0.28238 0.27682 0.38509 0.0
C5369 C 0.26804 0.27117 0.3716 0.0
C5370 C 0.25941 0.28488 0.36693 0.0
C5371 C 0.26487 0.30426 0.3758 0.0
C5372 C 0.27896 0.30994 0.38936 0.0
C5373 C 0.28767 0.29629 0.39404 0.0
H5374 H 0.25816 0.31485 0.37219 0.0
H5375 H 0.338 0.1786 0.41774 0.0
H5376 H 0.33518 0.62943 0.53303 0.0
H5377 H 0.35998 0.61601 0.52665 0.0
H5378 H 0.3292 0.55943 0.54215 0.0
H5379 H 0.30484 0.573 0.54934 0.0
H5380 H 0.36311 0.56435 0.54929 0.0
H5381 H 0.32632 0.56996 0.49837 0.0
H5382 H 0.3116 0.58778 0.4791 0.0
H5383 H 0.36352 0.62621 0.46912 0.0
H5384 H 0.37854 0.60877 0.48856 0.0
H5385 H 0.39653 0.49894 0.49719 0.0
H5386 H 0.37446 0.51662 0.5033 0.0
H5387 H 0.41507 0.57269 0.4999 0.0
H5388 H 0.43716 0.55511 0.49354 0.0
H5389 H 0.37726 0.56901 0.48614 0.0
H5390 H 0.4129 0.56046 0.53867 0.0
H5391 H 0.42499 0.53895 0.55618 0.0
H5392 H 0.37106 0.50153 0.56084 0.0
H5393 H 0.35868 0.52271 0.54315 0.0
C5394 C 0.33399 0.61437 0.53567 0.0
C5395 C 0.31797 0.60212 0.54132 0.0
C5396 C 0.34809 0.60666 0.53188 0.0
C5397 C 0.34609 0.58652 0.53328 0.0
C5398 C 0.33092 0.57495 0.54077 0.0
C5399 C 0.317 0.58276 0.5449 0.0
C5400 C 0.35865 0.57682 0.52519 0.0
C5401 C 0.36613 0.56536 0.53548 0.0
C5402 C 0.36249 0.57798 0.50709 0.0
C5403 C 0.35354 0.58819 0.49504 0.0
C5404 C 0.33459 0.58226 0.49212 0.0
C5405 C 0.32619 0.5923 0.48118 0.0
C5406 C 0.33662 0.60815 0.47293 0.0
C5407 C 0.35546 0.61395 0.47555 0.0
C5408 C 0.36393 0.60398 0.48651 0.0
C5409 C 0.40058 0.51496 0.49715 0.0
C5410 C 0.41858 0.52573 0.49522 0.0
C5411 C 0.38799 0.52502 0.50066 0.0
C5412 C 0.39329 0.54591 0.50224 0.0
C5413 C 0.41081 0.55656 0.49873 0.0
C5414 C 0.42341 0.54653 0.49529 0.0
C5415 C 0.38158 0.55668 0.51029 0.0
C5416 C 0.3743 0.56825 0.49998 0.0
C5417 C 0.3775 0.55524 0.52822 0.0
C5418 C 0.38489 0.5431 0.53956 0.0
C5419 C 0.40364 0.54763 0.54343 0.0
C5420 C 0.41054 0.5355 0.55336 0.0
C5421 C 0.3988 0.51887 0.5596 0.0
C5422 C 0.38014 0.51441 0.556 0.0
C5423 C 0.37317 0.5265 0.54605 0.0
H5424 H 0.40418 0.50946 0.56725 0.0
H5425 H 0.3301 0.61592 0.46447 0.0
H5426 H 0.8431 0.87882 0.51359 0.0
H5427 H 0.87389 0.90038 0.51153 0.0
H5428 H 0.85552 0.95219 0.51918 0.0
H5429 H 0.82461 0.93056 0.51979 0.0
H5430 H 0.8798 0.96003 0.49834 0.0
H5431 H 0.8771 0.93313 0.55441 0.0
H5432 H 0.87102 0.90672 0.57433 0.0
H5433 H 0.90932 0.88231 0.54945 0.0
H5434 H 0.91547 0.90843 0.52923 0.0
H5435 H 0.97079 0.02485 0.52893 0.0
H5436 H 0.93837 0.00642 0.52787 0.0
H5437 H 0.94907 0.95267 0.50662 0.0
H5438 H 0.98102 0.97067 0.50751 0.0
H5439 H 0.92867 0.94808 0.53602 0.0
H5440 H 0.93053 0.9764 0.47976 0.0
H5441 H 0.93654 0.00416 0.46132 0.0
H5442 H 0.89974 0.02813 0.48949 0.0
H5443 H 0.8937 1.00063 0.50826 0.0
C5444 C 0.84567 0.89479 0.51458 0.0
C5445 C 0.83159 0.90308 0.51696 0.0
C5446 C 0.86328 0.90714 0.51358 0.0
C5447 C 0.86722 0.92802 0.51581 0.0
C5448 C 0.85294 0.93619 0.51751 0.0
C5449 C 0.83527 0.92382 0.51787 0.0
C5450 C 0.8862 0.94137 0.51695 0.0
C5451 C 0.8904 0.95753 0.5068 0.0
C5452 C 0.90017 0.93824 0.52794 0.0
C5453 C 0.89663 0.92264 0.54022 0.0
C5454 C 0.88416 0.92207 0.55314 0.0
C5455 C 0.8807 0.90716 0.56448 0.0
C5456 C 0.88975 0.89282 0.56313 0.0
C5457 C 0.90231 0.89341 0.55047 0.0
C5458 C 0.9058 0.90828 0.53908 0.0
C5459 C 0.96617 0.00914 0.52395 0.0
C5460 C 0.97851 0.99923 0.51843 0.0
C5461 C 0.94769 0.99867 0.52331 0.0
C5462 C 0.94139 0.97819 0.51719 0.0
C5463 C 0.95367 0.96844 0.51146 0.0
C5464 C 0.97197 0.97882 0.51198 0.0
C5465 C 0.92217 0.9664 0.51727 0.0
C5466 C 0.91796 0.95058 0.52771 0.0
C5467 C 0.9082 0.97011 0.50685 0.0
C5468 C 0.91183 0.9866 0.49554 0.0
C5469 C 0.92385 0.98769 0.48213 0.0
C5470 C 0.92723 0.00336 0.4716 0.0
C5471 C 0.91857 0.01794 0.47427 0.0
C5472 C 0.90647 0.01685 0.48745 0.0
C5473 C 0.90306 1.00122 0.49803 0.0
H5474 H 0.9212 0.03005 0.4661 0.0
H5475 H 0.88704 0.88128 0.57192 0.0
H5476 H 0.8962 0.08901 0.22398 0.0
H5477 H 0.87735 0.11091 0.22878 0.0
H5478 H 0.83323 0.06083 0.23956 0.0
H5479 H 0.8522 0.03911 0.23545 0.0
H5480 H 0.83894 0.11289 0.22119 0.0
H5481 H 0.83114 0.06756 0.27807 0.0
H5482 H 0.84737 0.04831 0.29405 0.0
H5483 H 0.89811 0.09149 0.28758 0.0
H5484 H 0.88213 0.1108 0.2714 0.0
H5485 H 0.77762 0.14332 0.27186 0.0
H5486 H 0.7933 0.12084 0.25895 0.0
H5487 H 0.84246 0.15541 0.29049 0.0
H5488 H 0.82677 0.17796 0.30363 0.0
H5489 H 0.83686 0.11399 0.28701 0.0
H5490 H 0.83944 0.16621 0.25152 0.0
H5491 H 0.82786 0.18888 0.23509 0.0
H5492 H 0.79442 0.1391 0.19922 0.0
H5493 H 0.8056 0.11607 0.21563 0.0
C5494 C 0.88216 0.08254 0.2264 0.0
C5495 C 0.87558 0.06259 0.22962 0.0
C5496 C 0.87143 0.09503 0.22912 0.0
C5497 C 0.85411 0.08741 0.23479 0.0
C5498 C 0.84665 0.06687 0.23525 0.0
C5499 C 0.85745 0.05451 0.23292 0.0
C5500 C 0.84593 0.10093 0.24465 0.0
C5501 C 0.8383 0.11309 0.23552 0.0
C5502 C 0.84596 0.10175 0.26343 0.0
C5503 C 0.85549 0.09058 0.27366 0.0
C5504 C 0.84575 0.07296 0.28019 0.0
C5505 C 0.8549 0.06201 0.28918 0.0
C5506 C 0.87376 0.06869 0.29185 0.0
C5507 C 0.88351 0.08633 0.28552 0.0
C5508 C 0.87442 0.09724 0.2764 0.0
C5509 C 0.79157 0.1457 0.27655 0.0
C5510 C 0.80105 0.16238 0.28866 0.0
C5511 C 0.80055 0.13302 0.26901 0.0
C5512 C 0.81904 0.13683 0.27355 0.0
C5513 C 0.82818 0.15242 0.28678 0.0
C5514 C 0.81923 0.16521 0.29426 0.0
C5515 C 0.82904 0.1254 0.26349 0.0
C5516 C 0.83727 0.11376 0.27265 0.0
C5517 C 0.83006 0.12566 0.24483 0.0
C5518 C 0.8232 0.13939 0.23493 0.0
C5519 C 0.82947 0.16007 0.24024 0.0
C5520 C 0.82302 0.17299 0.23091 0.0
C5521 C 0.81037 0.16543 0.21615 0.0
C5522 C 0.80419 0.14493 0.21068 0.0
C5523 C 0.81059 0.13193 0.21998 0.0
H5524 H 0.80539 0.17546 0.20893 0.0
H5525 H 0.88081 0.06019 0.29881 0.0
H5526 H 0.74876 0.07877 0.03302 0.0
H5527 H 0.72131 0.07698 0.04815 0.0
H5528 H 0.69437 0.08315 -0.00133 0.0
H5529 H 0.72187 0.08513 0.98356 0.0
H5530 H 0.68694 0.10556 0.0298 0.0
H5531 H 0.68964 0.03837 0.00851 0.0
H5532 H 0.70442 0.01202 0.008 0.0
H5533 H 0.70347 0.01329 0.06491 0.0
H5534 H 0.68885 0.03984 0.06574 0.0
H5535 H 0.60026 0.0528 0.00355 0.0
H5536 H 0.63282 0.06559 0.00983 0.0
H5537 H 0.628 0.05046 0.06369 0.0
H5538 H 0.59499 0.03752 0.05755 0.0
H5539 H 0.65451 0.03774 0.04411 0.0
H5540 H 0.64096 0.09655 0.0621 0.0
H5541 H 0.62436 0.1211 0.06086 0.0
H5542 H 0.64483 0.13554 0.01055 0.0
H5543 H 0.66133 0.11084 0.01131 0.0
C5544 C 0.73708 0.08019 0.02552 0.0
C5545 C 0.73733 0.08222 0.00722 0.0
C5546 C 0.72147 0.07913 0.03415 0.0
C5547 C 0.70595 0.08009 0.02452 0.0
C5548 C 0.70634 0.08263 0.00633 0.0
C5549 C 0.7219 0.08351 -0.00232 0.0
C5550 C 0.68864 0.07621 0.03264 0.0
C5551 C 0.67987 0.09086 0.0332 0.0
C5552 C 0.67982 0.05727 0.03775 0.0
C5553 C 0.6884 0.04121 0.03722 0.0
C5554 C 0.69271 0.03311 0.02092 0.0
C5555 C 0.70103 0.01813 0.02057 0.0
C5556 C 0.70494 0.01103 0.03642 0.0
C5557 C 0.70047 0.01884 0.05265 0.0
C5558 C 0.69217 0.03384 0.05307 0.0
C5559 C 0.60602 0.05215 0.01676 0.0
C5560 C 0.59507 0.04417 0.03007 0.0
C5561 C 0.62463 0.05961 0.02035 0.0
C5562 C 0.63266 0.05924 0.0373 0.0
C5563 C 0.6219 0.05102 0.05061 0.0
C5564 C 0.60314 0.04366 0.04706 0.0
C5565 C 0.65246 0.06674 0.04027 0.0
C5566 C 0.6618 0.0528 0.04173 0.0
C5567 C 0.66181 0.08638 0.03713 0.0
C5568 C 0.65244 0.10183 0.0368 0.0
C5569 C 0.64191 0.10493 0.05074 0.0
C5570 C 0.63249 0.11886 0.05012 0.0
C5571 C 0.63355 0.12988 0.03564 0.0
C5572 C 0.64407 0.12702 0.02178 0.0
C5573 C 0.6535 0.11309 0.02233 0.0
H5574 H 0.62621 0.14063 0.03516 0.0
H5575 H 0.71139 0.99944 0.03613 0.0
H5576 H 0.15649 0.44708 0.26836 0.0
H5577 H 0.1802 0.43123 0.2712 0.0
H5578 H 0.21217 0.47101 0.23715 0.0
H5579 H 0.18792 0.48638 0.23362 0.0
H5580 H 0.21549 0.43036 0.23428 0.0
H5581 H 0.22048 0.48674 0.27866 0.0
H5582 H 0.20675 0.50556 0.29984 0.0
H5583 H 0.19048 0.45533 0.32948 0.0
H5584 H 0.20398 0.43616 0.30835 0.0
H5585 H 0.29302 0.41107 0.27202 0.0
H5586 H 0.2743 0.43147 0.26334 0.0
H5587 H 0.23381 0.40236 0.29706 0.0
H5588 H 0.2526 0.38223 0.30602 0.0
H5589 H 0.23843 0.44236 0.29835 0.0
H5590 H 0.22971 0.38511 0.25454 0.0
H5591 H 0.23951 0.363 0.23274 0.0
H5592 H 0.25992 0.41149 0.20189 0.0
H5593 H 0.25043 0.43397 0.22367 0.0
C5594 C 0.16838 0.45204 0.26113 0.0
C5595 C 0.1707 0.46803 0.25104 0.0
C5596 C 0.18182 0.44298 0.26267 0.0
C5597 C 0.19797 0.45032 0.25466 0.0
C5598 C 0.19975 0.46526 0.24341 0.0
C5599 C 0.18603 0.47404 0.2415 0.0
C5600 C 0.2137 0.44441 0.26043 0.0
C5601 C 0.22087 0.43334 0.24817 0.0
C5602 C 0.22037 0.44814 0.27862 0.0
C5603 C 0.21325 0.46005 0.29195 0.0
C5604 C 0.21402 0.47975 0.28973 0.0
C5605 C 0.20625 0.49046 0.3017 0.0
C5606 C 0.19775 0.48165 0.316 0.0
C5607 C 0.1971 0.46214 0.31841 0.0
C5608 C 0.20486 0.45138 0.30649 0.0
C5609 C 0.28038 0.4095 0.27799 0.0
C5610 C 0.27413 0.39507 0.2896 0.0
C5611 C 0.26967 0.42098 0.2729 0.0
C5612 C 0.25265 0.41812 0.27938 0.0
C5613 C 0.24693 0.40468 0.2919 0.0
C5614 C 0.2576 0.39319 0.29695 0.0
C5615 C 0.24012 0.42798 0.27228 0.0
C5616 C 0.2335 0.43983 0.28434 0.0
C5617 C 0.23387 0.42474 0.25395 0.0
C5618 C 0.23959 0.41127 0.24085 0.0
C5619 C 0.23644 0.3911 0.24319 0.0
C5620 C 0.2419 0.37849 0.23082 0.0
C5621 C 0.25039 0.38585 0.21597 0.0
C5622 C 0.25338 0.40582 0.21343 0.0
C5623 C 0.24796 0.4185 0.22578 0.0
H5624 H 0.25461 0.37607 0.2064 0.0
H5625 H 0.19168 0.48993 0.32521 0.0
H5626 H 0.21857 0.36954 0.02122 0.0
H5627 H 0.19369 0.38345 0.01526 0.0
H5628 H 0.23249 0.44004 0.00935 0.0
H5629 H 0.25704 0.42656 0.01578 0.0
H5630 H 0.21002 0.4462 0.03075 0.0
H5631 H 0.20497 0.40889 0.97365 0.0
H5632 H 0.2014 0.37945 0.95177 0.0
H5633 H 0.14934 0.35102 0.96935 0.0
H5634 H 0.15272 0.38018 0.99153 0.0
H5635 H 0.15422 0.4986 -0.00085 0.0
H5636 H 0.17486 0.47864 0.99721 0.0
H5637 H 0.13449 0.42934 0.01469 0.0
H5638 H 0.11344 0.44909 0.01623 0.0
H5639 H 0.15618 0.41815 0.98726 0.0
H5640 H 0.16359 0.45837 0.04504 0.0
H5641 H 0.16815 0.49028 0.06384 0.0
H5642 H 0.21812 0.51566 0.04104 0.0
H5643 H 0.21372 0.48396 0.02192 0.0
C5644 C 0.22169 0.38488 0.01848 0.0
C5645 C 0.23974 0.39703 0.01923 0.0
C5646 C 0.2075 0.3928 0.01499 0.0
C5647 C 0.21119 0.41286 0.0119 0.0
C5648 C 0.22924 0.42462 0.01189 0.0
C5649 C 0.2433 0.41686 0.01559 0.0
C5650 C 0.19659 0.42232 0.01 0.0
C5651 C 0.19838 0.44007 0.02107 0.0
C5652 C 0.18119 0.41431 -0.00242 0.0
C5653 C 0.17921 0.39662 0.98443 0.0
C5654 C 0.19285 0.39627 0.973 0.0
C5655 C 0.19084 0.37965 0.96051 0.0
C5656 C 0.17518 0.36334 0.95922 0.0
C5657 C 0.16148 0.36364 0.9704 0.0
C5658 C 0.16344 0.38021 0.98293 0.0
C5659 C 0.1495 0.48336 0.00216 0.0
C5660 C 0.13219 0.47552 0.00801 0.0
C5661 C 0.16137 0.47198 0.0011 0.0
C5662 C 0.15625 0.45258 0.00596 0.0
C5663 C 0.13869 0.44429 0.01088 0.0
C5664 C 0.12677 0.45568 0.01197 0.0
C5665 C 0.16991 0.44195 0.00783 0.0
C5666 C 0.16786 0.42406 0.9969 0.0
C5667 C 0.18536 0.45001 0.02008 0.0
C5668 C 0.18827 0.46885 0.03198 0.0
C5669 C 0.17551 0.47078 0.04399 0.0
C5670 C 0.17806 0.48883 0.0547 0.0
C5671 C 0.1934 0.505 0.05361 0.0
C5672 C 0.20624 0.50313 0.04186 0.0
C5673 C 0.20374 0.48512 0.03111 0.0
H5674 H 0.19534 0.51897 0.0619 0.0
H5675 H 0.17364 0.3505 0.94952 0.0
H5676 H 0.9058 0.97216 0.21266 0.0
H5677 H 0.89366 0.9356 0.20746 0.0
H5678 H 0.84939 0.93761 0.23885 0.0
H5679 H 0.86138 0.97382 0.24423 0.0
H5680 H 0.88212 0.91862 0.24935 0.0
H5681 H 0.83176 0.92202 0.2074 0.0
H5682 H 0.81979 0.92905 0.17875 0.0
H5683 H 0.84585 0.89136 0.15023 0.0
H5684 H 0.85819 0.88436 0.17878 0.0
H5685 H 0.8017 0.85255 0.26733 0.0
H5686 H 0.82468 0.87877 0.25529 0.0
H5687 H 0.846 0.83465 0.22924 0.0
H5688 H 0.82309 0.80828 0.24167 0.0
H5689 H 0.8346 0.86842 0.20858 0.0
H5690 H 0.87367 0.85658 0.25475 0.0
H5691 H 0.88121 0.84965 0.28505 0.0
H5692 H 0.87368 0.90447 0.30738 0.0
H5693 H 0.86571 0.91153 0.27727 0.0
C5694 C 0.89314 0.96479 0.21792 0.0
C5695 C 0.88464 0.97569 0.2291 0.0
C5696 C 0.88624 0.94399 0.21488 0.0
C5697 C 0.87063 0.93411 0.2227 0.0
C5698 C 0.86135 0.94512 0.23256 0.0
C5699 C 0.8683 0.96575 0.23575 0.0
C5700 C 0.86594 0.91271 0.22427 0.0
C5701 C 0.87206 0.90743 0.24026 0.0
C5702 C 0.85308 0.89825 0.21222 0.0
C5703 C 0.84622 0.90305 0.19517 0.0
C5704 C 0.83521 0.91554 0.19502 0.0
C5705 C 0.82827 0.91942 0.17881 0.0
C5706 C 0.83214 0.91075 0.16267 0.0
C5707 C 0.84294 0.89815 0.16273 0.0
C5708 C 0.84992 0.89424 0.17892 0.0
C5709 C 0.81144 0.84853 0.25921 0.0
C5710 C 0.811 0.82865 0.25562 0.0
C5711 C 0.82447 0.86341 0.25235 0.0
C5712 C 0.83697 0.85851 0.24152 0.0
C5713 C 0.83649 0.83859 0.23771 0.0
C5714 C 0.82359 0.82367 0.24491 0.0
C5715 C 0.85008 0.8747 0.23413 0.0
C5716 C 0.8455 0.87914 0.21717 0.0
C5717 C 0.86406 0.88862 0.24553 0.0
C5718 C 0.86907 0.88456 0.2637 0.0
C5719 C 0.8735 0.86709 0.26612 0.0
C5720 C 0.87786 0.86315 0.28327 0.0
C5721 C 0.87794 0.87661 0.29813 0.0
C5722 C 0.87365 0.89406 0.29586 0.0
C5723 C 0.86923 0.89805 0.27874 0.0
H5724 H 0.88132 0.87353 0.31139 0.0
H5725 H 0.82672 0.91373 0.15014 0.0
H5726 H 0.68005 0.04774 0.72957 0.0
H5727 H 0.70007 0.08173 0.72896 0.0
H5728 H 0.67455 0.1027 0.77281 0.0
H5729 H 0.65502 0.06848 0.77407 0.0
H5730 H 0.68598 0.12474 0.73349 0.0
H5731 H 0.7032 0.10502 0.79195 0.0
H5732 H 0.71032 0.08035 0.80951 0.0
H5733 H 0.75184 0.07639 0.77533 0.0
H5734 H 0.74461 0.10071 0.75731 0.0
H5735 H 0.74568 0.21532 0.78365 0.0
H5736 H 0.72655 0.18056 0.77881 0.0
H5737 H 0.75629 0.16922 0.73449 0.0
H5738 H 0.77515 0.20427 0.7388 0.0
H5739 H 0.74392 0.1416 0.77126 0.0
H5740 H 0.72846 0.16315 0.71395 0.0
H5741 H 0.72187 0.18843 0.69682 0.0
H5742 H 0.67778 0.18926 0.72848 0.0
H5743 H 0.68438 0.16424 0.74603 0.0
C5744 C 0.67856 0.05967 0.73891 0.0
C5745 C 0.66613 0.05563 0.75194 0.0
C5746 C 0.68996 0.07899 0.73853 0.0
C5747 C 0.68874 0.09452 0.75089 0.0
C5748 C 0.67565 0.09075 0.76325 0.0
C5749 C 0.66458 0.07131 0.76398 0.0
C5750 C 0.70219 0.11431 0.75184 0.0
C5751 C 0.69863 0.12846 0.74173 0.0
C5752 C 0.71878 0.1189 0.76233 0.0
C5753 C 0.72314 0.10434 0.77311 0.0
C5754 C 0.71365 0.09864 0.78802 0.0
C5755 C 0.71774 0.08478 0.79809 0.0
C5756 C 0.73146 0.07672 0.79348 0.0
C5757 C 0.74116 0.08257 0.77883 0.0
C5758 C 0.73705 0.09637 0.76867 0.0
C5759 C 0.74824 0.20539 0.77295 0.0
C5760 C 0.7618 0.21243 0.76152 0.0
C5761 C 0.73729 0.18563 0.77019 0.0
C5762 C 0.73996 0.17259 0.75619 0.0
C5763 C 0.75396 0.17927 0.74521 0.0
C5764 C 0.76469 0.1992 0.7477 0.0
C5765 C 0.72768 0.15209 0.75302 0.0
C5766 C 0.7314 0.13779 0.76279 0.0
C5767 C 0.71131 0.14736 0.74214 0.0
C5768 C 0.70708 0.16208 0.73145 0.0
C5769 C 0.7175 0.1689 0.71739 0.0
C5770 C 0.71374 0.18315 0.70758 0.0
C5771 C 0.69946 0.19052 0.71161 0.0
C5772 C 0.68886 0.18358 0.72541 0.0
C5773 C 0.69261 0.16937 0.73529 0.0
H5774 H 0.69657 0.20155 0.70401 0.0
H5775 H 0.73464 0.06602 0.80131 0.0
loop_
_geom_bond_atom_site_label_1
_geom_bond_atom_site_label_2
_geom_bond_distance
_geom_bond_site_symmetry_2
_ccdc_geom_bond_type
Mg0 O1 2.028 . S
Mg0 O7 1.986 . S
Mg0 O9 2.114 . S
Mg0 O10 2.251 1_455 S
Mg0 O13 2.010 . S
O1 Mg0 2.028 . S
O1 C4 1.250 . S
O2 Mg3 2.028 1_455 S
O2 C4 1.248 . S
Mg3 O2 2.028 1_655 S
Mg3 O8 2.032 1_655 S
Mg3 O10 2.079 . S
C4 O1 1.250 . S
C4 O2 1.248 . S
C5 O6 1.264 . S
C5 O13 1.249 . S
O6 C5 1.264 . S
O7 Mg0 1.986 . S
O7 C11 1.246 . S
O8 Mg3 2.032 1_455 S
O8 C11 1.259 . S
O9 Mg0 2.114 . S
O9 C12 1.252 1_455 S
O10 Mg0 2.251 1_655 S
O10 Mg3 2.079 . S
O10 C12 1.273 . S
C11 O7 1.246 . S
C11 O8 1.259 . S
C12 O9 1.252 1_655 S
C12 O10 1.273 . S
O13 Mg0 2.010 . S
O13 C5 1.249 . S
Mg14 O15 2.028 . S
Mg14 O21 1.986 . S
Mg14 O23 2.114 . S
Mg14 O24 2.251 . S
Mg14 O27 2.010 . S
O15 Mg14 2.028 . S
O15 C18 1.250 . S
O16 Mg17 2.028 . S
O16 C18 1.248 . S
Mg17 O16 2.028 . S
Mg17 O22 2.032 . S
Mg17 O24 2.079 . S
C18 O15 1.250 . S
C18 O16 1.248 . S
C19 O20 1.264 . S
C19 O27 1.249 . S
O20 C19 1.264 . S
O21 Mg14 1.986 . S
O21 C25 1.246 . S
O22 Mg17 2.032 . S
O22 C25 1.259 . S
O23 Mg14 2.114 . S
O23 C26 1.252 . S
O24 Mg14 2.251 . S
O24 Mg17 2.079 . S
O24 C26 1.273 . S
C25 O21 1.246 . S
C25 O22 1.259 . S
C26 O23 1.252 . S
C26 O24 1.273 . S
O27 Mg14 2.010 . S
O27 C19 1.249 . S
Mg28 O29 2.028 . S
Mg28 O35 1.986 . S
Mg28 O37 2.114 . S
Mg28 O38 2.251 . S
Mg28 O41 2.010 . S
O29 Mg28 2.028 . S
O29 C32 1.250 . S
O30 Mg31 2.028 . S
O30 C32 1.248 . S
Mg31 O30 2.028 . S
Mg31 O36 2.032 . S
Mg31 O38 2.079 . S
C32 O29 1.250 . S
C32 O30 1.248 . S
C33 O34 1.264 . S
C33 O41 1.249 . S
O34 C33 1.264 . S
O35 Mg28 1.986 . S
O35 C39 1.246 . S
O36 Mg31 2.032 . S
O36 C39 1.259 . S
O37 Mg28 2.114 . S
O37 C40 1.252 . S
O38 Mg28 2.251 . S
O38 Mg31 2.079 . S
O38 C40 1.273 . S
C39 O35 1.246 . S
C39 O36 1.259 . S
C40 O37 1.252 . S
C40 O38 1.273 . S
O41 Mg28 2.010 . S
O41 C33 1.249 . S
Mg42 O43 2.028 . S
Mg42 O49 1.986 . S
Mg42 O51 2.114 . S
Mg42 O52 2.251 . S
Mg42 O55 2.010 . S
O43 Mg42 2.028 . S
O43 C46 1.250 . S
O44 Mg45 2.028 . S
O44 C46 1.248 . S
Mg45 O44 2.028 . S
Mg45 O50 2.032 . S
Mg45 O52 2.079 . S
C46 O43 1.250 . S
C46 O44 1.248 . S
C47 O48 1.264 . S
C47 O55 1.249 . S
O48 C47 1.264 . S
O49 Mg42 1.986 . S
O49 C53 1.246 . S
O50 Mg45 2.032 . S
O50 C53 1.259 . S
O51 Mg42 2.114 . S
O51 C54 1.252 . S
O52 Mg42 2.251 . S
O52 Mg45 2.079 . S
O52 C54 1.273 . S
C53 O49 1.246 . S
C53 O50 1.259 . S
C54 O51 1.252 . S
C54 O52 1.273 . S
O55 Mg42 2.010 . S
O55 C47 1.249 . S
Mg56 O57 2.028 . S
Mg56 O63 1.986 . S
Mg56 O65 2.114 . S
Mg56 O66 2.251 . S
Mg56 O69 2.010 . S
O57 Mg56 2.028 . S
O57 C60 1.250 . S
O58 Mg59 2.028 . S
O58 C60 1.248 . S
Mg59 O58 2.028 . S
Mg59 O64 2.032 . S
Mg59 O66 2.079 . S
C60 O57 1.250 . S
C60 O58 1.248 . S
C61 O62 1.264 . S
C61 O69 1.249 . S
O62 C61 1.264 . S
O63 Mg56 1.986 . S
O63 C67 1.246 . S
O64 Mg59 2.032 . S
O64 C67 1.259 . S
O65 Mg56 2.114 . S
O65 C68 1.252 . S
O66 Mg56 2.251 . S
O66 Mg59 2.079 . S
O66 C68 1.273 . S
C67 O63 1.246 . S
C67 O64 1.259 . S
C68 O65 1.252 . S
C68 O66 1.273 . S
O69 Mg56 2.010 . S
O69 C61 1.249 . S
Mg70 O71 2.028 . S
Mg70 O77 1.986 . S
Mg70 O79 2.114 . S
Mg70 O80 2.251 . S
Mg70 O83 2.010 . S
O71 Mg70 2.028 . S
O71 C74 1.250 . S
O72 Mg73 2.028 . S
O72 C74 1.248 . S
Mg73 O72 2.028 . S
Mg73 O78 2.032 . S
Mg73 O80 2.079 . S
C74 O71 1.250 . S
C74 O72 1.248 . S
C75 O76 1.264 . S
C75 O83 1.249 . S
O76 C75 1.264 . S
O77 Mg70 1.986 . S
O77 C81 1.246 . S
O78 Mg73 2.032 . S
O78 C81 1.259 . S
O79 Mg70 2.114 . S
O79 C82 1.252 . S
O80 Mg70 2.251 . S
O80 Mg73 2.079 . S
O80 C82 1.273 . S
C81 O77 1.246 . S
C81 O78 1.259 . S
C82 O79 1.252 . S
C82 O80 1.273 . S
O83 Mg70 2.010 . S
O83 C75 1.249 . S
Mg84 O85 2.028 . S
Mg84 O91 1.986 . S
Mg84 O93 2.114 . S
Mg84 O94 2.251 . S
Mg84 O97 2.010 . S
O85 Mg84 2.028 . S
O85 C88 1.250 . S
O86 Mg87 2.028 . S
O86 C88 1.248 . S
Mg87 O86 2.028 . S
Mg87 O92 2.032 . S
Mg87 O94 2.079 . S
C88 O85 1.250 . S
C88 O86 1.248 . S
C89 O90 1.264 . S
C89 O97 1.249 . S
O90 C89 1.264 . S
O91 Mg84 1.986 . S
O91 C95 1.246 . S
O92 Mg87 2.032 . S
O92 C95 1.259 . S
O93 Mg84 2.114 . S
O93 C96 1.252 . S
O94 Mg84 2.251 . S
O94 Mg87 2.079 . S
O94 C96 1.273 . S
C95 O91 1.246 . S
C95 O92 1.259 . S
C96 O93 1.252 . S
C96 O94 1.273 . S
O97 Mg84 2.010 . S
O97 C89 1.249 . S
Mg98 O99 2.028 1_655 S
Mg98 O105 1.986 1_655 S
Mg98 O107 2.114 . S
Mg98 O108 2.251 . S
Mg98 O111 2.010 1_655 S
O99 Mg98 2.028 1_455 S
O99 C102 1.262 . S
O100 Mg101 2.028 . S
O100 C102 1.231 1_655 S
Mg101 O100 2.028 . S
Mg101 O106 2.032 . S
Mg101 O108 2.079 . S
C102 O99 1.262 . S
C102 O100 1.231 1_455 S
C103 O104 1.264 . S
C103 O111 1.249 . S
O104 C103 1.264 . S
O105 Mg98 1.986 1_455 S
O105 C109 1.246 1_455 S
O106 Mg101 2.032 . S
O106 C109 1.259 . S
O107 Mg98 2.114 . S
O107 C110 1.252 . S
O108 Mg98 2.251 . S
O108 Mg101 2.079 . S
O108 C110 1.273 . S
C109 O105 1.246 1_655 S
C109 O106 1.259 . S
C110 O107 1.252 . S
C110 O108 1.273 . S
O111 Mg98 2.010 1_455 S
O111 C103 1.249 . S
Mg112 O113 2.028 . S
Mg112 O119 1.986 . S
Mg112 O121 2.114 . S
Mg112 O122 2.251 . S
Mg112 O125 2.010 . S
O113 Mg112 2.028 . S
O113 C116 1.250 . S
O114 Mg115 2.028 . S
O114 C116 1.248 . S
Mg115 O114 2.028 . S
Mg115 O120 2.032 . S
Mg115 O122 2.079 . S
C116 O113 1.250 . S
C116 O114 1.248 . S
C117 O118 1.264 . S
C117 O125 1.249 . S
O118 C117 1.264 . S
O119 Mg112 1.986 . S
O119 C123 1.246 . S
O120 Mg115 2.032 . S
O120 C123 1.259 . S
O121 Mg112 2.114 . S
O121 C124 1.252 . S
O122 Mg112 2.251 . S
O122 Mg115 2.079 . S
O122 C124 1.273 . S
C123 O119 1.246 . S
C123 O120 1.259 . S
C124 O121 1.252 . S
C124 O122 1.273 . S
O125 Mg112 2.010 . S
O125 C117 1.249 . S
Mg126 O127 2.028 . S
Mg126 O133 1.986 . S
Mg126 O135 2.114 . S
Mg126 O136 2.251 . S
Mg126 O139 2.010 . S
O127 Mg126 2.028 . S
O127 C130 1.250 . S
O128 Mg129 2.028 . S
O128 C130 1.248 . S
Mg129 O128 2.028 . S
Mg129 O134 2.032 . S
Mg129 O136 2.079 . S
C130 O127 1.250 . S
C130 O128 1.248 . S
C131 O132 1.264 . S
C131 O139 1.249 . S
O132 C131 1.264 . S
O133 Mg126 1.986 . S
O133 C137 1.246 . S
O134 Mg129 2.032 . S
O134 C137 1.259 . S
O135 Mg126 2.114 . S
O135 C138 1.252 . S
O136 Mg126 2.251 . S
O136 Mg129 2.079 . S
O136 C138 1.273 . S
C137 O133 1.246 . S
C137 O134 1.259 . S
C138 O135 1.252 . S
C138 O136 1.273 . S
O139 Mg126 2.010 . S
O139 C131 1.249 . S
Mg140 O141 2.028 . S
Mg140 O147 1.986 . S
Mg140 O149 2.114 . S
Mg140 O150 2.251 . S
Mg140 O153 2.010 . S
O141 Mg140 2.028 . S
O141 C144 1.250 . S
O142 Mg143 2.028 . S
O142 C144 1.248 . S
Mg143 O142 2.028 . S
Mg143 O148 2.032 . S
Mg143 O150 2.079 . S
C144 O141 1.250 . S
C144 O142 1.248 . S
C145 O146 1.264 . S
C145 O153 1.249 . S
O146 C145 1.264 . S
O147 Mg140 1.986 . S
O147 C151 1.246 . S
O148 Mg143 2.032 . S
O148 C151 1.259 . S
O149 Mg140 2.114 . S
O149 C152 1.252 . S
O150 Mg140 2.251 . S
O150 Mg143 2.079 . S
O150 C152 1.273 . S
C151 O147 1.246 . S
C151 O148 1.259 . S
C152 O149 1.252 . S
C152 O150 1.273 . S
O153 Mg140 2.010 . S
O153 C145 1.249 . S
Mg154 O155 2.028 1_554 S
Mg154 O161 1.986 . S
Mg154 O163 2.114 1_554 S
Mg154 O164 2.251 . S
Mg154 O167 2.010 . S
O155 Mg154 2.028 1_556 S
O155 C158 1.250 . S
O156 Mg157 2.028 1_556 S
O156 C158 1.248 . S
Mg157 O156 2.028 1_554 S
Mg157 O162 2.032 . S
Mg157 O164 2.079 . S
C158 O155 1.250 . S
C158 O156 1.248 . S
C159 O160 1.264 . S
C159 O167 1.249 . S
O160 C159 1.264 . S
O161 Mg154 1.986 . S
O161 C165 1.246 . S
O162 Mg157 2.032 . S
O162 C165 1.259 . S
O163 Mg154 2.114 1_556 S
O163 C166 1.252 1_556 S
O164 Mg154 2.251 . S
O164 Mg157 2.079 . S
O164 C166 1.273 . S
C165 O161 1.246 . S
C165 O162 1.259 . S
C166 O163 1.252 1_554 S
C166 O164 1.273 . S
O167 Mg154 2.010 . S
O167 C159 1.249 . S
Mg168 O169 2.028 . S
Mg168 O175 1.986 . S
Mg168 O177 2.114 . S
Mg168 O178 2.251 . S
Mg168 O181 2.010 . S
O169 Mg168 2.028 . S
O169 C172 1.250 1_554 S
O170 Mg171 2.045 . S
O170 C172 1.242 1_554 S
Mg171 O170 2.045 . S
Mg171 O176 2.032 . S
Mg171 O178 2.079 . S
C172 O169 1.250 1_556 S
C172 O170 1.242 1_556 S
C173 O174 1.264 . S
C173 O181 1.249 . S
O174 C173 1.264 . S
O175 Mg168 1.986 . S
O175 C179 1.246 . S
O176 Mg171 2.032 . S
O176 C179 1.259 . S
O177 Mg168 2.114 . S
O177 C180 1.252 . S
O178 Mg168 2.251 . S
O178 Mg171 2.079 . S
O178 C180 1.273 . S
C179 O175 1.246 . S
C179 O176 1.259 . S
C180 O177 1.252 . S
C180 O178 1.273 . S
O181 Mg168 2.010 . S
O181 C173 1.249 . S
Mg182 O183 2.028 . S
Mg182 O189 1.986 . S
Mg182 O191 2.114 . S
Mg182 O192 2.251 . S
Mg182 O195 2.010 . S
O183 Mg182 2.028 . S
O183 C186 1.250 . S
O184 Mg185 2.028 . S
O184 C186 1.248 . S
Mg185 O184 2.028 . S
Mg185 O190 2.032 . S
Mg185 O192 2.079 . S
C186 O183 1.250 . S
C186 O184 1.248 . S
C187 O188 1.264 . S
C187 O195 1.249 . S
O188 C187 1.264 . S
O189 Mg182 1.986 . S
O189 C193 1.246 . S
O190 Mg185 2.032 . S
O190 C193 1.259 . S
O191 Mg182 2.114 . S
O191 C194 1.252 . S
O192 Mg182 2.251 . S
O192 Mg185 2.079 . S
O192 C194 1.273 . S
C193 O189 1.246 . S
C193 O190 1.259 . S
C194 O191 1.252 . S
C194 O192 1.273 . S
O195 Mg182 2.010 . S
O195 C187 1.249 . S
Mg196 O197 2.028 . S
Mg196 O203 1.986 . S
Mg196 O205 2.114 . S
Mg196 O206 2.251 . S
Mg196 O209 2.010 . S
O197 Mg196 2.028 . S
O197 C200 1.250 . S
O198 Mg199 2.028 . S
O198 C200 1.248 . S
Mg199 O198 2.028 . S
Mg199 O204 2.032 . S
Mg199 O206 2.079 . S
C200 O197 1.250 . S
C200 O198 1.248 . S
C201 O202 1.264 . S
C201 O209 1.249 . S
O202 C201 1.264 . S
O203 Mg196 1.986 . S
O203 C207 1.246 . S
O204 Mg199 2.032 . S
O204 C207 1.259 . S
O205 Mg196 2.114 . S
O205 C208 1.252 . S
O206 Mg196 2.251 . S
O206 Mg199 2.079 . S
O206 C208 1.273 . S
C207 O203 1.246 . S
C207 O204 1.259 . S
C208 O205 1.252 . S
C208 O206 1.273 . S
O209 Mg196 2.010 . S
O209 C201 1.249 . S
Mg210 O211 2.028 . S
Mg210 O217 1.986 . S
Mg210 O219 2.114 . S
Mg210 O220 2.251 . S
Mg210 O223 2.010 . S
O211 Mg210 2.028 . S
O211 C214 1.250 . S
O212 Mg213 2.028 . S
O212 C214 1.248 . S
Mg213 O212 2.028 . S
Mg213 O218 2.032 . S
Mg213 O220 2.079 . S
C214 O211 1.250 . S
C214 O212 1.248 . S
C215 O216 1.264 . S
C215 O223 1.249 . S
O216 C215 1.264 . S
O217 Mg210 1.986 . S
O217 C221 1.246 . S
O218 Mg213 2.032 . S
O218 C221 1.259 . S
O219 Mg210 2.114 . S
O219 C222 1.252 . S
O220 Mg210 2.251 . S
O220 Mg213 2.079 . S
O220 C222 1.273 . S
C221 O217 1.246 . S
C221 O218 1.259 . S
C222 O219 1.252 . S
C222 O220 1.273 . S
O223 Mg210 2.010 . S
O223 C215 1.249 . S
Mg224 O225 2.028 1_545 S
Mg224 O231 1.986 . S
Mg224 O233 2.114 . S
Mg224 O234 2.251 . S
Mg224 O237 2.010 . S
O225 Mg224 2.028 1_565 S
O225 C228 1.250 . S
O226 Mg227 2.028 1_565 S
O226 C228 1.248 . S
Mg227 O226 2.028 1_545 S
Mg227 O232 2.032 . S
Mg227 O234 2.079 . S
C228 O225 1.250 . S
C228 O226 1.248 . S
C229 O230 1.264 . S
C229 O237 1.249 . S
O230 C229 1.264 . S
O231 Mg224 1.986 . S
O231 C235 1.246 . S
O232 Mg227 2.032 . S
O232 C235 1.259 . S
O233 Mg224 2.114 . S
O233 C236 1.252 . S
O234 Mg224 2.251 . S
O234 Mg227 2.079 . S
O234 C236 1.273 . S
C235 O231 1.246 . S
C235 O232 1.259 . S
C236 O233 1.252 . S
C236 O234 1.273 . S
O237 Mg224 2.010 . S
O237 C229 1.249 . S
Mg238 O239 2.028 . S
Mg238 O245 1.986 . S
Mg238 O247 2.114 . S
Mg238 O248 2.251 . S
Mg238 O251 2.010 . S
O239 Mg238 2.028 . S
O239 C242 1.250 . S
O240 Mg241 2.028 . S
O240 C242 1.248 . S
Mg241 O240 2.028 . S
Mg241 O246 2.032 . S
Mg241 O248 2.079 . S
C242 O239 1.250 . S
C242 O240 1.248 . S
C243 O244 1.264 . S
C243 O251 1.249 . S
O244 C243 1.264 . S
O245 Mg238 1.986 . S
O245 C249 1.246 . S
O246 Mg241 2.032 . S
O246 C249 1.259 . S
O247 Mg238 2.114 . S
O247 C250 1.252 . S
O248 Mg238 2.251 . S
O248 Mg241 2.079 . S
O248 C250 1.273 . S
C249 O245 1.246 . S
C249 O246 1.259 . S
C250 O247 1.252 . S
C250 O248 1.273 . S
O251 Mg238 2.010 . S
O251 C243 1.249 . S
Mg252 O253 2.028 . S
Mg252 O259 1.986 . S
Mg252 O261 2.114 . S
Mg252 O262 2.251 . S
Mg252 O265 2.010 . S
O253 Mg252 2.028 . S
O253 C256 1.250 . S
O254 Mg255 2.028 . S
O254 C256 1.248 . S
Mg255 O254 2.028 . S
Mg255 O260 2.032 . S
Mg255 O262 2.079 . S
C256 O253 1.250 . S
C256 O254 1.248 . S
C257 O258 1.264 . S
C257 O265 1.249 . S
O258 C257 1.264 . S
O259 Mg252 1.986 . S
O259 C263 1.246 . S
O260 Mg255 2.032 . S
O260 C263 1.259 . S
O261 Mg252 2.114 . S
O261 C264 1.252 . S
O262 Mg252 2.251 . S
O262 Mg255 2.079 . S
O262 C264 1.273 . S
C263 O259 1.246 . S
C263 O260 1.259 . S
C264 O261 1.252 . S
C264 O262 1.273 . S
O265 Mg252 2.010 . S
O265 C257 1.249 . S
Mg266 O267 2.028 . S
Mg266 O273 1.986 1_545 S
Mg266 O275 2.114 . S
Mg266 O276 2.251 . S
Mg266 O279 2.010 . S
O267 Mg266 2.028 . S
O267 C270 1.250 . S
O268 Mg269 2.028 . S
O268 C270 1.248 . S
Mg269 O268 2.028 . S
Mg269 O274 2.032 . S
Mg269 O276 2.079 . S
C270 O267 1.250 . S
C270 O268 1.248 . S
C271 O272 1.264 1_545 S
C271 O279 1.249 . S
O272 C271 1.264 1_565 S
O273 Mg266 1.986 1_565 S
O273 C277 1.246 . S
O274 Mg269 2.032 . S
O274 C277 1.259 1_545 S
O275 Mg266 2.114 . S
O275 C278 1.252 . S
O276 Mg266 2.251 . S
O276 Mg269 2.079 . S
O276 C278 1.273 . S
C277 O273 1.246 . S
C277 O274 1.259 1_565 S
C278 O275 1.252 . S
C278 O276 1.273 . S
O279 Mg266 2.010 . S
O279 C271 1.249 . S
Mg280 O281 2.028 . S
Mg280 O287 1.986 1_554 S
Mg280 O289 2.114 . S
Mg280 O290 2.251 . S
Mg280 O293 2.010 . S
O281 Mg280 2.028 . S
O281 C284 1.250 . S
O282 Mg283 2.028 . S
O282 C284 1.248 . S
Mg283 O282 2.028 . S
Mg283 O288 2.032 . S
Mg283 O290 2.079 . S
C284 O281 1.250 . S
C284 O282 1.248 . S
C285 O286 1.296 . S
C285 O293 1.249 . S
O286 C285 1.296 . S
O287 Mg280 1.986 1_556 S
O287 C291 1.246 . S
O288 Mg283 2.032 . S
O288 C291 1.259 1_554 S
O289 Mg280 2.114 . S
O289 C292 1.252 . S
O290 Mg280 2.251 . S
O290 Mg283 2.079 . S
O290 C292 1.273 . S
C291 O287 1.246 . S
C291 O288 1.259 1_556 S
C292 O289 1.252 . S
C292 O290 1.273 . S
O293 Mg280 2.010 . S
O293 C285 1.249 . S
Mg294 O295 2.028 . S
Mg294 O301 1.986 . S
Mg294 O303 2.114 . S
Mg294 O304 2.251 . S
Mg294 O307 2.010 . S
O295 Mg294 2.028 . S
O295 C298 1.250 . S
O296 Mg297 2.028 . S
O296 C298 1.248 . S
Mg297 O296 2.028 . S
Mg297 O302 2.032 . S
Mg297 O304 2.079 . S
C298 O295 1.250 . S
C298 O296 1.248 . S
C299 O300 1.264 . S
C299 O307 1.249 . S
O300 C299 1.264 . S
O301 Mg294 1.986 . S
O301 C305 1.246 . S
O302 Mg297 2.032 . S
O302 C305 1.259 . S
O303 Mg294 2.114 . S
O303 C306 1.252 . S
O304 Mg294 2.251 . S
O304 Mg297 2.079 . S
O304 C306 1.273 . S
C305 O301 1.246 . S
C305 O302 1.259 . S
C306 O303 1.252 . S
C306 O304 1.273 . S
O307 Mg294 2.010 . S
O307 C299 1.249 . S
Mg308 O309 2.028 . S
Mg308 O315 1.986 . S
Mg308 O317 2.114 . S
Mg308 O318 2.251 . S
Mg308 O321 2.010 . S
O309 Mg308 2.028 . S
O309 C312 1.250 . S
O310 Mg311 2.028 . S
O310 C312 1.248 . S
Mg311 O310 2.028 . S
Mg311 O316 2.032 . S
Mg311 O318 2.079 . S
C312 O309 1.250 . S
C312 O310 1.248 . S
C313 O314 1.264 . S
C313 O321 1.249 . S
O314 C313 1.264 . S
O315 Mg308 1.986 . S
O315 C319 1.246 . S
O316 Mg311 2.032 . S
O316 C319 1.259 . S
O317 Mg308 2.114 . S
O317 C320 1.252 . S
O318 Mg308 2.251 . S
O318 Mg311 2.079 . S
O318 C320 1.273 . S
C319 O315 1.246 . S
C319 O316 1.259 . S
C320 O317 1.252 . S
C320 O318 1.273 . S
O321 Mg308 2.010 . S
O321 C313 1.249 . S
Mg322 O323 2.028 . S
Mg322 O329 1.986 . S
Mg322 O331 2.114 . S
Mg322 O332 2.251 . S
Mg322 O335 2.010 . S
O323 Mg322 2.028 . S
O323 C326 1.250 . S
O324 Mg325 2.028 . S
O324 C326 1.248 . S
Mg325 O324 2.028 . S
Mg325 O330 2.032 . S
Mg325 O332 2.079 . S
C326 O323 1.250 . S
C326 O324 1.248 . S
C327 O328 1.264 . S
C327 O335 1.249 . S
O328 C327 1.264 . S
O329 Mg322 1.986 . S
O329 C333 1.246 . S
O330 Mg325 2.032 . S
O330 C333 1.259 . S
O331 Mg322 2.114 . S
O331 C334 1.252 . S
O332 Mg322 2.251 . S
O332 Mg325 2.079 . S
O332 C334 1.273 . S
C333 O329 1.246 . S
C333 O330 1.259 . S
C334 O331 1.252 . S
C334 O332 1.273 . S
O335 Mg322 2.010 . S
O335 C327 1.249 . S
Tb336 C345 2.764 . S
Tb336 O346 2.325 1_545 S
Tb336 O349 2.303 1_554 S
Tb336 O353 2.322 . S
Tb336 O354 2.349 . S
Tb336 O357 2.415 . S
Tb336 O358 2.399 . S
Tb337 O347 2.322 1_545 S
Tb337 O348 2.349 1_554 S
Tb337 O350 2.415 1_455 S
Tb337 O351 2.399 1_454 S
Tb337 O352 2.325 . S
Tb337 O355 2.303 . S
Tb337 C366 2.764 1_454 S
C338 O354 1.261 . S
C338 O355 1.257 . S
C339 C342 1.358 . S
C339 C343 1.332 . S
C339 C345 1.504 . S
C340 C341 1.373 . S
C340 C344 1.311 . S
C341 C340 1.373 . S
C341 C342 1.429 . S
C341 H368 0.932 . S
C342 C339 1.358 . S
C342 C341 1.429 . S
C342 H369 0.930 . S
C343 C339 1.332 . S
C343 C344 1.411 . S
C343 H370 0.931 . S
C344 C340 1.311 . S
C344 C343 1.411 . S
C344 H371 0.909 1_545 S
C345 Tb336 2.764 . S
C345 C339 1.504 . S
C345 O357 1.239 . S
C345 O358 1.263 . S
O346 Tb336 2.325 1_565 S
O346 C356 1.236 . S
O347 Tb337 2.322 1_565 S
O347 C356 1.257 . S
O348 Tb337 2.349 1_556 S
O348 C359 1.261 . S
O349 Tb336 2.303 1_556 S
O349 C359 1.257 . S
O350 Tb337 2.415 1_655 S
O350 C366 1.239 1_554 S
O351 Tb337 2.399 1_656 S
O351 C366 1.263 . S
O352 Tb337 2.325 . S
O352 C367 1.236 . S
O353 Tb336 2.322 . S
O353 C367 1.257 . S
O354 Tb336 2.349 . S
O354 C338 1.261 . S
O355 Tb337 2.303 . S
O355 C338 1.257 . S
C356 O346 1.236 . S
C356 O347 1.257 . S
O357 Tb336 2.415 . S
O357 C345 1.239 . S
O358 Tb336 2.399 . S
O358 C345 1.263 . S
C359 O348 1.261 . S
C359 O349 1.257 . S
C360 C363 1.358 . S
C360 C364 1.332 1_556 S
C360 C366 1.504 . S
C361 C362 1.373 . S
C361 C365 1.308 1_556 S
C362 C361 1.373 . S
C362 C363 1.429 . S
C362 H372 0.932 . S
C363 C360 1.358 . S
C363 C362 1.429 . S
C363 H373 0.930 . S
C364 C360 1.332 1_554 S
C364 C365 1.394 . S
C364 H374 0.932 . S
C365 C361 1.308 1_554 S
C365 C364 1.394 . S
C365 H375 0.929 . S
C366 Tb337 2.764 1_656 S
C366 O350 1.239 1_556 S
C366 O351 1.263 . S
C366 C360 1.504 . S
C367 O352 1.236 . S
C367 O353 1.257 . S
H368 C341 0.932 . S
H369 C342 0.930 . S
H370 C343 0.931 . S
H371 C344 0.909 1_565 S
H372 C362 0.932 . S
H373 C363 0.930 . S
H374 C364 0.932 . S
H375 C365 0.929 . S
Tb376 C385 2.764 . S
Tb376 O386 2.325 . S
Tb376 O389 2.303 . S
Tb376 O393 2.322 . S
Tb376 O394 2.349 . S
Tb376 O397 2.415 . S
Tb376 O398 2.399 . S
Tb377 O387 2.322 . S
Tb377 O388 2.349 . S
Tb377 O390 2.415 . S
Tb377 O391 2.399 . S
Tb377 O392 2.325 . S
Tb377 O395 2.303 . S
Tb377 C406 2.764 . S
C378 O394 1.261 . S
C378 O395 1.257 . S
C379 C382 1.358 . S
C379 C383 1.332 . S
C379 C385 1.504 . S
C380 C381 1.373 . S
C380 C384 1.308 . S
C381 C380 1.373 . S
C381 C382 1.429 . S
C381 H408 0.932 . S
C382 C379 1.358 . S
C382 C381 1.429 . S
C382 H409 0.930 . S
C383 C379 1.332 . S
C383 C384 1.394 . S
C383 H410 0.932 . S
C384 C380 1.308 . S
C384 C383 1.394 . S
C384 H411 0.929 . S
C385 Tb376 2.764 . S
C385 C379 1.504 . S
C385 O397 1.239 . S
C385 O398 1.263 . S
O386 Tb376 2.325 . S
O386 C396 1.236 . S
O387 Tb377 2.322 . S
O387 C396 1.257 . S
O388 Tb377 2.349 . S
O388 C399 1.261 . S
O389 Tb376 2.303 . S
O389 C399 1.257 . S
O390 Tb377 2.415 . S
O390 C406 1.239 . S
O391 Tb377 2.399 . S
O391 C406 1.263 . S
O392 Tb377 2.325 . S
O392 C407 1.236 . S
O393 Tb376 2.322 . S
O393 C407 1.257 . S
O394 Tb376 2.349 . S
O394 C378 1.261 . S
O395 Tb377 2.303 . S
O395 C378 1.257 . S
C396 O386 1.236 . S
C396 O387 1.257 . S
O397 Tb376 2.415 . S
O397 C385 1.239 . S
O398 Tb376 2.399 . S
O398 C385 1.263 . S
C399 O388 1.261 . S
C399 O389 1.257 . S
C400 C403 1.358 . S
C400 C404 1.332 . S
C400 C406 1.504 . S
C401 C402 1.373 . S
C401 C405 1.308 . S
C402 C401 1.373 . S
C402 C403 1.429 . S
C402 H412 0.932 . S
C403 C400 1.358 . S
C403 C402 1.429 . S
C403 H413 0.930 . S
C404 C400 1.332 . S
C404 C405 1.394 . S
C404 H414 0.932 . S
C405 C401 1.308 . S
C405 C404 1.394 . S
C405 H415 0.929 . S
C406 Tb377 2.764 . S
C406 O390 1.239 . S
C406 O391 1.263 . S
C406 C400 1.504 . S
C407 O392 1.236 . S
C407 O393 1.257 . S
H408 C381 0.932 . S
H409 C382 0.930 . S
H410 C383 0.932 . S
H411 C384 0.929 . S
H412 C402 0.932 . S
H413 C403 0.930 . S
H414 C404 0.932 . S
H415 C405 0.929 . S
Tb416 C425 2.764 . S
Tb416 O426 2.325 . S
Tb416 O429 2.303 . S
Tb416 O433 2.322 1_545 S
Tb416 O434 2.349 . S
Tb416 O437 2.415 . S
Tb416 O438 2.399 . S
Tb417 O427 2.322 . S
Tb417 O428 2.349 . S
Tb417 O430 2.415 . S
Tb417 O431 2.399 . S
Tb417 O432 2.325 1_545 S
Tb417 O435 2.303 . S
Tb417 C446 2.764 . S
C418 O434 1.261 . S
C418 O435 1.257 . S
C419 C422 1.358 . S
C419 C423 1.332 . S
C419 C425 1.504 . S
C420 C421 1.373 . S
C420 C424 1.308 . S
C421 C420 1.373 . S
C421 C422 1.429 . S
C421 H448 0.932 . S
C422 C419 1.358 . S
C422 C421 1.429 . S
C422 H449 0.930 . S
C423 C419 1.332 . S
C423 C424 1.394 . S
C423 H450 0.932 . S
C424 C420 1.308 . S
C424 C423 1.394 . S
C424 H451 0.929 . S
C425 Tb416 2.764 . S
C425 C419 1.504 . S
C425 O437 1.239 . S
C425 O438 1.263 . S
O426 Tb416 2.325 . S
O426 C436 1.236 . S
O427 Tb417 2.322 . S
O427 C436 1.257 . S
O428 Tb417 2.349 . S
O428 C439 1.261 . S
O429 Tb416 2.303 . S
O429 C439 1.257 . S
O430 Tb417 2.415 . S
O430 C446 1.239 . S
O431 Tb417 2.399 . S
O431 C446 1.263 . S
O432 Tb417 2.325 1_565 S
O432 C447 1.236 . S
O433 Tb416 2.322 1_565 S
O433 C447 1.257 . S
O434 Tb416 2.349 . S
O434 C418 1.261 . S
O435 Tb417 2.303 . S
O435 C418 1.257 . S
C436 O426 1.236 . S
C436 O427 1.257 . S
O437 Tb416 2.415 . S
O437 C425 1.239 . S
O438 Tb416 2.399 . S
O438 C425 1.263 . S
C439 O428 1.261 . S
C439 O429 1.257 . S
C440 C443 1.357 1_565 S
C440 C444 1.332 . S
C440 C446 1.504 1_565 S
C441 C442 1.373 . S
C441 C445 1.308 . S
C442 C441 1.373 . S
C442 C443 1.394 1_565 S
C442 H452 0.932 . S
C443 C440 1.357 1_545 S
C443 C442 1.394 1_545 S
C443 H453 0.968 . S
C444 C440 1.332 . S
C444 C445 1.394 . S
C444 H454 0.932 . S
C445 C441 1.308 . S
C445 C444 1.394 . S
C445 H455 0.929 . S
C446 Tb417 2.764 . S
C446 O430 1.239 . S
C446 O431 1.263 . S
C446 C440 1.504 1_545 S
C447 O432 1.236 . S
C447 O433 1.257 . S
H448 C421 0.932 . S
H449 C422 0.930 . S
H450 C423 0.932 . S
H451 C424 0.929 . S
H452 C442 0.932 . S
H453 C443 0.968 . S
H454 C444 0.932 . S
H455 C445 0.929 . S
Tb456 C465 2.764 . S
Tb456 O466 2.325 . S
Tb456 O469 2.303 . S
Tb456 O473 2.322 . S
Tb456 O474 2.349 . S
Tb456 O477 2.415 . S
Tb456 O478 2.399 . S
Tb457 O467 2.322 . S
Tb457 O468 2.349 . S
Tb457 O470 2.415 . S
Tb457 O471 2.399 . S
Tb457 O472 2.325 . S
Tb457 O475 2.303 . S
Tb457 C486 2.764 . S
C458 O474 1.261 . S
C458 O475 1.257 . S
C459 C462 1.358 . S
C459 C463 1.332 . S
C459 C465 1.504 . S
C460 C461 1.373 . S
C460 C464 1.308 . S
C461 C460 1.373 . S
C461 C462 1.429 . S
C461 H488 0.932 . S
C462 C459 1.358 . S
C462 C461 1.429 . S
C462 H489 0.930 . S
C463 C459 1.332 . S
C463 C464 1.394 . S
C463 H490 0.932 . S
C464 C460 1.308 . S
C464 C463 1.394 . S
C464 H491 0.929 . S
C465 Tb456 2.764 . S
C465 C459 1.504 . S
C465 O477 1.239 . S
C465 O478 1.263 . S
O466 Tb456 2.325 . S
O466 C476 1.236 . S
O467 Tb457 2.322 . S
O467 C476 1.257 . S
O468 Tb457 2.349 . S
O468 C479 1.261 . S
O469 Tb456 2.303 . S
O469 C479 1.257 . S
O470 Tb457 2.415 . S
O470 C486 1.239 . S
O471 Tb457 2.399 . S
O471 C486 1.263 . S
O472 Tb457 2.325 . S
O472 C487 1.236 . S
O473 Tb456 2.322 . S
O473 C487 1.257 . S
O474 Tb456 2.349 . S
O474 C458 1.261 . S
O475 Tb457 2.303 . S
O475 C458 1.257 . S
C476 O466 1.236 . S
C476 O467 1.257 . S
O477 Tb456 2.415 . S
O477 C465 1.239 . S
O478 Tb456 2.399 . S
O478 C465 1.263 . S
C479 O468 1.261 . S
C479 O469 1.257 . S
C480 C483 1.358 . S
C480 C484 1.332 . S
C480 C486 1.504 . S
C481 C482 1.373 . S
C481 C485 1.308 . S
C482 C481 1.373 . S
C482 C483 1.429 . S
C482 H492 0.932 . S
C483 C480 1.358 . S
C483 C482 1.429 . S
C483 H493 0.930 . S
C484 C480 1.332 . S
C484 C485 1.394 . S
C484 H494 0.932 . S
C485 C481 1.308 . S
C485 C484 1.394 . S
C485 H495 0.929 . S
C486 Tb457 2.764 . S
C486 O470 1.239 . S
C486 O471 1.263 . S
C486 C480 1.504 . S
C487 O472 1.236 . S
C487 O473 1.257 . S
H488 C461 0.932 . S
H489 C462 0.930 . S
H490 C463 0.932 . S
H491 C464 0.929 . S
H492 C482 0.932 . S
H493 C483 0.930 . S
H494 C484 0.932 . S
H495 C485 0.929 . S
Tb496 C505 2.764 . S
Tb496 O506 2.325 . S
Tb496 O509 2.303 . S
Tb496 O513 2.322 . S
Tb496 O514 2.349 1_455 S
Tb496 O517 2.415 . S
Tb496 O518 2.399 . S
Tb497 O507 2.322 1_545 S
Tb497 O508 2.349 . S
Tb497 O510 2.415 . S
Tb497 O511 2.399 . S
Tb497 O512 2.325 . S
Tb497 O515 2.303 . S
Tb497 C526 2.764 . S
C498 O514 1.261 . S
C498 O515 1.257 1_655 S
C499 C502 1.358 . S
C499 C503 1.332 . S
C499 C505 1.504 . S
C500 C501 1.373 . S
C500 C504 1.308 . S
C501 C500 1.373 . S
C501 C502 1.429 . S
C501 H528 0.932 . S
C502 C499 1.358 . S
C502 C501 1.429 . S
C502 H529 0.930 . S
C503 C499 1.332 . S
C503 C504 1.394 . S
C503 H530 0.932 . S
C504 C500 1.308 . S
C504 C503 1.394 . S
C504 H531 0.929 . S
C505 Tb496 2.764 . S
C505 C499 1.504 . S
C505 O517 1.239 . S
C505 O518 1.263 . S
O506 Tb496 2.325 . S
O506 C516 1.236 1_545 S
O507 Tb497 2.322 1_565 S
O507 C516 1.257 . S
O508 Tb497 2.349 . S
O508 C519 1.261 . S
O509 Tb496 2.303 . S
O509 C519 1.257 . S
O510 Tb497 2.415 . S
O510 C526 1.239 . S
O511 Tb497 2.399 . S
O511 C526 1.263 . S
O512 Tb497 2.325 . S
O512 C527 1.236 . S
O513 Tb496 2.322 . S
O513 C527 1.257 . S
O514 Tb496 2.349 1_655 S
O514 C498 1.261 . S
O515 Tb497 2.303 . S
O515 C498 1.257 1_455 S
C516 O506 1.236 1_565 S
C516 O507 1.257 . S
O517 Tb496 2.415 . S
O517 C505 1.239 . S
O518 Tb496 2.399 . S
O518 C505 1.263 . S
C519 O508 1.261 . S
C519 O509 1.257 . S
C520 C523 1.358 . S
C520 C524 1.332 1_455 S
C520 C526 1.504 . S
C521 C522 1.373 1_655 S
C521 C525 1.308 . S
C522 C521 1.373 1_455 S
C522 C523 1.429 . S
C522 H532 0.932 . S
C523 C520 1.358 . S
C523 C522 1.429 . S
C523 H533 0.930 . S
C524 C520 1.332 1_655 S
C524 C525 1.394 . S
C524 H534 0.932 . S
C525 C521 1.308 . S
C525 C524 1.394 . S
C525 H535 0.929 . S
C526 Tb497 2.764 . S
C526 O510 1.239 . S
C526 O511 1.263 . S
C526 C520 1.504 . S
C527 O512 1.236 . S
C527 O513 1.257 . S
H528 C501 0.932 . S
H529 C502 0.930 . S
H530 C503 0.932 . S
H531 C504 0.929 . S
H532 C522 0.932 . S
H533 C523 0.930 . S
H534 C524 0.932 . S
H535 C525 0.929 . S
Tb536 C545 2.764 . S
Tb536 O546 2.325 . S
Tb536 O549 2.303 . S
Tb536 O553 2.322 . S
Tb536 O554 2.349 . S
Tb536 O557 2.415 . S
Tb536 O558 2.399 . S
Tb537 O547 2.322 . S
Tb537 O548 2.349 . S
Tb537 O550 2.415 . S
Tb537 O551 2.399 . S
Tb537 O552 2.325 . S
Tb537 O555 2.303 . S
Tb537 C566 2.764 . S
C538 O554 1.261 . S
C538 O555 1.257 . S
C539 C542 1.358 . S
C539 C543 1.332 . S
C539 C545 1.504 . S
C540 C541 1.373 . S
C540 C544 1.308 . S
C541 C540 1.373 . S
C541 C542 1.429 . S
C541 H568 0.932 . S
C542 C539 1.358 . S
C542 C541 1.429 . S
C542 H569 0.930 . S
C543 C539 1.332 . S
C543 C544 1.394 . S
C543 H570 0.932 . S
C544 C540 1.308 . S
C544 C543 1.394 . S
C544 H571 0.929 . S
C545 Tb536 2.764 . S
C545 C539 1.504 . S
C545 O557 1.239 . S
C545 O558 1.263 . S
O546 Tb536 2.325 . S
O546 C556 1.236 . S
O547 Tb537 2.322 . S
O547 C556 1.257 . S
O548 Tb537 2.349 . S
O548 C559 1.261 . S
O549 Tb536 2.303 . S
O549 C559 1.257 . S
O550 Tb537 2.415 . S
O550 C566 1.239 . S
O551 Tb537 2.399 . S
O551 C566 1.263 . S
O552 Tb537 2.325 . S
O552 C567 1.236 . S
O553 Tb536 2.322 . S
O553 C567 1.257 . S
O554 Tb536 2.349 . S
O554 C538 1.261 . S
O555 Tb537 2.303 . S
O555 C538 1.257 . S
C556 O546 1.236 . S
C556 O547 1.257 . S
O557 Tb536 2.415 . S
O557 C545 1.239 . S
O558 Tb536 2.399 . S
O558 C545 1.263 . S
C559 O548 1.261 . S
C559 O549 1.257 . S
C560 C563 1.358 . S
C560 C564 1.332 . S
C560 C566 1.504 . S
C561 C562 1.373 . S
C561 C565 1.308 . S
C562 C561 1.373 . S
C562 C563 1.429 . S
C562 H572 0.932 . S
C563 C560 1.358 . S
C563 C562 1.429 . S
C563 H573 0.930 . S
C564 C560 1.332 . S
C564 C565 1.394 . S
C564 H574 0.932 . S
C565 C561 1.308 . S
C565 C564 1.394 . S
C565 H575 0.929 . S
C566 Tb537 2.764 . S
C566 O550 1.239 . S
C566 O551 1.263 . S
C566 C560 1.504 . S
C567 O552 1.236 . S
C567 O553 1.257 . S
H568 C541 0.932 . S
H569 C542 0.930 . S
H570 C543 0.932 . S
H571 C544 0.929 . S
H572 C562 0.932 . S
H573 C563 0.930 . S
H574 C564 0.932 . S
H575 C565 0.929 . S
Tb576 C585 2.764 . S
Tb576 O586 2.325 . S
Tb576 O589 2.303 . S
Tb576 O593 2.322 1_545 S
Tb576 O594 2.349 . S
Tb576 O597 2.415 . S
Tb576 O598 2.399 . S
Tb577 O587 2.322 1_556 S
Tb577 O588 2.349 . S
Tb577 O590 2.415 . S
Tb577 O591 2.399 . S
Tb577 O592 2.325 1_545 S
Tb577 O595 2.303 1_556 S
Tb577 C606 2.764 . S
C578 O594 1.261 . S
C578 O595 1.257 . S
C579 C582 1.358 . S
C579 C583 1.332 . S
C579 C585 1.504 . S
C580 C581 1.373 . S
C580 C584 1.308 . S
C581 C580 1.373 . S
C581 C582 1.429 . S
C581 H608 0.932 . S
C582 C579 1.358 . S
C582 C581 1.429 . S
C582 H609 0.930 . S
C583 C579 1.332 . S
C583 C584 1.394 . S
C583 H610 0.932 . S
C584 C580 1.308 . S
C584 C583 1.394 . S
C584 H611 0.929 . S
C585 Tb576 2.764 . S
C585 C579 1.504 . S
C585 O597 1.239 . S
C585 O598 1.263 . S
O586 Tb576 2.325 . S
O586 C596 1.236 . S
O587 Tb577 2.322 1_554 S
O587 C596 1.257 . S
O588 Tb577 2.349 . S
O588 C599 1.261 1_556 S
O589 Tb576 2.303 . S
O589 C599 1.257 . S
O590 Tb577 2.415 . S
O590 C606 1.239 . S
O591 Tb577 2.399 . S
O591 C606 1.263 . S
O592 Tb577 2.325 1_565 S
O592 C607 1.236 1_556 S
O593 Tb576 2.322 1_565 S
O593 C607 1.257 . S
O594 Tb576 2.349 . S
O594 C578 1.261 . S
O595 Tb577 2.303 1_554 S
O595 C578 1.257 . S
C596 O586 1.236 . S
C596 O587 1.257 . S
O597 Tb576 2.415 . S
O597 C585 1.239 . S
O598 Tb576 2.399 . S
O598 C585 1.263 . S
C599 O588 1.261 1_554 S
C599 O589 1.257 . S
C600 C603 1.358 . S
C600 C604 1.332 . S
C600 C606 1.504 . S
C601 C602 1.373 . S
C601 C605 1.308 . S
C602 C601 1.373 . S
C602 C603 1.429 . S
C602 H612 0.932 . S
C603 C600 1.358 . S
C603 C602 1.429 . S
C603 H613 0.930 . S
C604 C600 1.332 . S
C604 C605 1.394 . S
C604 H614 0.932 . S
C605 C601 1.308 . S
C605 C604 1.394 . S
C605 H615 0.929 . S
C606 Tb577 2.764 . S
C606 O590 1.239 . S
C606 O591 1.263 . S
C606 C600 1.504 . S
C607 O592 1.236 1_554 S
C607 O593 1.257 . S
H608 C581 0.932 . S
H609 C582 0.930 . S
H610 C583 0.932 . S
H611 C584 0.929 . S
H612 C602 0.932 . S
H613 C603 0.930 . S
H614 C604 0.932 . S
H615 C605 0.929 . S
Tb616 C625 2.764 . S
Tb616 O626 2.325 . S
Tb616 O629 2.303 . S
Tb616 O633 2.322 . S
Tb616 O634 2.349 . S
Tb616 O637 2.415 . S
Tb616 O638 2.399 . S
Tb617 O627 2.322 . S
Tb617 O628 2.349 . S
Tb617 O630 2.415 . S
Tb617 O631 2.399 . S
Tb617 O632 2.325 . S
Tb617 O635 2.303 . S
Tb617 C646 2.764 . S
C618 O634 1.261 . S
C618 O635 1.257 . S
C619 C622 1.358 . S
C619 C623 1.332 . S
C619 C625 1.504 . S
C620 C621 1.373 . S
C620 C624 1.308 . S
C621 C620 1.373 . S
C621 C622 1.429 . S
C621 H648 0.932 . S
C622 C619 1.358 . S
C622 C621 1.429 . S
C622 H649 0.930 . S
C623 C619 1.332 . S
C623 C624 1.394 . S
C623 H650 0.932 . S
C624 C620 1.308 . S
C624 C623 1.394 . S
C624 H651 0.929 . S
C625 Tb616 2.764 . S
C625 C619 1.504 . S
C625 O637 1.239 . S
C625 O638 1.263 . S
O626 Tb616 2.325 . S
O626 C636 1.236 . S
O627 Tb617 2.322 . S
O627 C636 1.257 . S
O628 Tb617 2.349 . S
O628 C639 1.261 . S
O629 Tb616 2.303 . S
O629 C639 1.257 . S
O630 Tb617 2.415 . S
O630 C646 1.239 . S
O631 Tb617 2.399 . S
O631 C646 1.263 . S
O632 Tb617 2.325 . S
O632 C647 1.236 . S
O633 Tb616 2.322 . S
O633 C647 1.257 . S
O634 Tb616 2.349 . S
O634 C618 1.261 . S
O635 Tb617 2.303 . S
O635 C618 1.257 . S
C636 O626 1.236 . S
C636 O627 1.257 . S
O637 Tb616 2.415 . S
O637 C625 1.239 . S
O638 Tb616 2.399 . S
O638 C625 1.263 . S
C639 O628 1.261 . S
C639 O629 1.257 . S
C640 C643 1.358 . S
C640 C644 1.332 . S
C640 C646 1.504 . S
C641 C642 1.373 . S
C641 C645 1.308 . S
C642 C641 1.373 . S
C642 C643 1.429 . S
C642 H652 0.932 . S
C643 C640 1.358 . S
C643 C642 1.429 . S
C643 H653 0.930 . S
C644 C640 1.332 . S
C644 C645 1.394 . S
C644 H654 0.932 . S
C645 C641 1.308 . S
C645 C644 1.394 . S
C645 H655 0.929 . S
C646 Tb617 2.764 . S
C646 O630 1.239 . S
C646 O631 1.263 . S
C646 C640 1.504 . S
C647 O632 1.236 . S
C647 O633 1.257 . S
H648 C621 0.932 . S
H649 C622 0.930 . S
H650 C623 0.932 . S
H651 C624 0.929 . S
H652 C642 0.932 . S
H653 C643 0.930 . S
H654 C644 0.932 . S
H655 C645 0.929 . S
Tb656 C665 2.764 . S
Tb656 O666 2.325 . S
Tb656 O669 2.303 . S
Tb656 O673 2.322 . S
Tb656 O674 2.349 . S
Tb656 O677 2.415 . S
Tb656 O678 2.399 . S
Tb657 O667 2.322 1_556 S
Tb657 O668 2.350 . S
Tb657 O670 2.415 . S
Tb657 O671 2.399 . S
Tb657 O672 2.325 . S
Tb657 O675 2.303 1_556 S
Tb657 C686 2.764 . S
C658 O674 1.261 . S
C658 O675 1.257 . S
C659 C662 1.358 . S
C659 C663 1.332 . S
C659 C665 1.504 . S
C660 C661 1.373 . S
C660 C664 1.308 . S
C661 C660 1.373 . S
C661 C662 1.429 . S
C661 H688 0.932 . S
C662 C659 1.358 . S
C662 C661 1.429 . S
C662 H689 0.930 . S
C663 C659 1.332 . S
C663 C664 1.394 . S
C663 H690 0.932 . S
C664 C660 1.308 . S
C664 C663 1.394 . S
C664 H691 0.929 . S
C665 Tb656 2.764 . S
C665 C659 1.504 . S
C665 O677 1.239 . S
C665 O678 1.263 . S
O666 Tb656 2.325 . S
O666 C676 1.236 . S
O667 Tb657 2.322 1_554 S
O667 C676 1.257 . S
O668 Tb657 2.350 . S
O668 C679 1.248 1_556 S
O669 Tb656 2.303 . S
O669 C679 1.257 . S
O670 Tb657 2.415 . S
O670 C686 1.239 . S
O671 Tb657 2.399 . S
O671 C686 1.263 . S
O672 Tb657 2.325 . S
O672 C687 1.236 1_556 S
O673 Tb656 2.322 . S
O673 C687 1.257 . S
O674 Tb656 2.349 . S
O674 C658 1.261 . S
O675 Tb657 2.303 1_554 S
O675 C658 1.257 . S
C676 O666 1.236 . S
C676 O667 1.257 . S
O677 Tb656 2.415 . S
O677 C665 1.239 . S
O678 Tb656 2.399 . S
O678 C665 1.263 . S
C679 O668 1.248 1_554 S
C679 O669 1.257 . S
C680 C683 1.358 . S
C680 C684 1.332 . S
C680 C686 1.504 . S
C681 C682 1.373 . S
C681 C685 1.308 . S
C682 C681 1.373 . S
C682 C683 1.429 . S
C682 H692 0.932 . S
C683 C680 1.358 . S
C683 C682 1.429 . S
C683 H693 0.930 . S
C684 C680 1.332 . S
C684 C685 1.394 . S
C684 H694 0.932 . S
C685 C681 1.308 . S
C685 C684 1.394 . S
C685 H695 0.929 . S
C686 Tb657 2.764 . S
C686 O670 1.239 . S
C686 O671 1.263 . S
C686 C680 1.504 . S
C687 O672 1.236 1_554 S
C687 O673 1.257 . S
H688 C661 0.932 . S
H689 C662 0.930 . S
H690 C663 0.932 . S
H691 C664 0.929 . S
H692 C682 0.932 . S
H693 C683 0.930 . S
H694 C684 0.932 . S
H695 C685 0.929 . S
Tb696 C705 2.764 . S
Tb696 O706 2.325 . S
Tb696 O709 2.303 . S
Tb696 O713 2.322 . S
Tb696 O714 2.349 . S
Tb696 O717 2.415 . S
Tb696 O718 2.399 . S
Tb697 O707 2.322 . S
Tb697 O708 2.349 . S
Tb697 O710 2.415 . S
Tb697 O711 2.399 . S
Tb697 O712 2.325 . S
Tb697 O715 2.303 . S
Tb697 C726 2.764 . S
C698 O714 1.261 . S
C698 O715 1.257 . S
C699 C702 1.358 . S
C699 C703 1.332 . S
C699 C705 1.504 . S
C700 C701 1.373 . S
C700 C704 1.308 . S
C701 C700 1.373 . S
C701 C702 1.429 . S
C701 H728 0.932 . S
C702 C699 1.358 . S
C702 C701 1.429 . S
C702 H729 0.930 . S
C703 C699 1.332 . S
C703 C704 1.394 . S
C703 H730 0.932 . S
C704 C700 1.308 . S
C704 C703 1.394 . S
C704 H731 0.929 . S
C705 Tb696 2.764 . S
C705 C699 1.504 . S
C705 O717 1.239 . S
C705 O718 1.263 . S
O706 Tb696 2.325 . S
O706 C716 1.236 . S
O707 Tb697 2.322 . S
O707 C716 1.257 . S
O708 Tb697 2.349 . S
O708 C719 1.261 . S
O709 Tb696 2.303 . S
O709 C719 1.257 . S
O710 Tb697 2.415 . S
O710 C726 1.239 . S
O711 Tb697 2.399 . S
O711 C726 1.263 . S
O712 Tb697 2.325 . S
O712 C727 1.236 . S
O713 Tb696 2.322 . S
O713 C727 1.257 . S
O714 Tb696 2.349 . S
O714 C698 1.261 . S
O715 Tb697 2.303 . S
O715 C698 1.257 . S
C716 O706 1.236 . S
C716 O707 1.257 . S
O717 Tb696 2.415 . S
O717 C705 1.239 . S
O718 Tb696 2.399 . S
O718 C705 1.263 . S
C719 O708 1.261 . S
C719 O709 1.257 . S
C720 C723 1.358 . S
C720 C724 1.332 . S
C720 C726 1.504 . S
C721 C722 1.373 . S
C721 C725 1.308 . S
C722 C721 1.373 . S
C722 C723 1.429 . S
C722 H732 0.932 . S
C723 C720 1.358 . S
C723 C722 1.429 . S
C723 H733 0.930 . S
C724 C720 1.332 . S
C724 C725 1.394 . S
C724 H734 0.932 . S
C725 C721 1.308 . S
C725 C724 1.394 . S
C725 H735 0.929 . S
C726 Tb697 2.764 . S
C726 O710 1.239 . S
C726 O711 1.263 . S
C726 C720 1.504 . S
C727 O712 1.236 . S
C727 O713 1.257 . S
H728 C701 0.932 . S
H729 C702 0.930 . S
H730 C703 0.932 . S
H731 C704 0.929 . S
H732 C722 0.932 . S
H733 C723 0.930 . S
H734 C724 0.932 . S
H735 C725 0.929 . S
Tb736 C745 2.764 . S
Tb736 O746 2.325 . S
Tb736 O749 2.303 . S
Tb736 O753 2.322 . S
Tb736 O754 2.349 . S
Tb736 O757 2.415 . S
Tb736 O758 2.399 . S
Tb737 O747 2.322 . S
Tb737 O748 2.349 . S
Tb737 O750 2.415 . S
Tb737 O751 2.399 . S
Tb737 O752 2.325 . S
Tb737 O755 2.303 . S
Tb737 C766 2.764 . S
C738 O754 1.261 . S
C738 O755 1.257 . S
C739 C742 1.358 . S
C739 C743 1.332 . S
C739 C745 1.504 . S
C740 C741 1.373 . S
C740 C744 1.308 1_455 S
C741 C740 1.373 . S
C741 C742 1.429 . S
C741 H768 0.932 . S
C742 C739 1.358 . S
C742 C741 1.429 . S
C742 H769 0.930 . S
C743 C739 1.332 . S
C743 C744 1.394 1_455 S
C743 H770 0.932 1_455 S
C744 C740 1.308 1_655 S
C744 C743 1.394 1_655 S
C744 H771 0.929 . S
C745 Tb736 2.764 . S
C745 C739 1.504 . S
C745 O757 1.239 . S
C745 O758 1.263 . S
O746 Tb736 2.325 . S
O746 C756 1.236 . S
O747 Tb737 2.322 . S
O747 C756 1.257 . S
O748 Tb737 2.349 . S
O748 C759 1.261 1_455 S
O749 Tb736 2.303 . S
O749 C759 1.257 1_455 S
O750 Tb737 2.415 . S
O750 C766 1.239 . S
O751 Tb737 2.399 . S
O751 C766 1.263 . S
O752 Tb737 2.325 . S
O752 C767 1.236 . S
O753 Tb736 2.322 . S
O753 C767 1.257 . S
O754 Tb736 2.349 . S
O754 C738 1.261 . S
O755 Tb737 2.303 . S
O755 C738 1.257 . S
C756 O746 1.236 . S
C756 O747 1.257 . S
O757 Tb736 2.415 . S
O757 C745 1.239 . S
O758 Tb736 2.399 . S
O758 C745 1.263 . S
C759 O748 1.261 1_655 S
C759 O749 1.257 1_655 S
C760 C763 1.358 . S
C760 C764 1.332 . S
C760 C766 1.504 . S
C761 C762 1.373 . S
C761 C765 1.308 . S
C762 C761 1.373 . S
C762 C763 1.429 . S
C762 H772 0.932 . S
C763 C760 1.358 . S
C763 C762 1.429 . S
C763 H773 0.930 . S
C764 C760 1.332 . S
C764 C765 1.394 . S
C764 H774 0.932 . S
C765 C761 1.308 . S
C765 C764 1.394 . S
C765 H775 0.929 . S
C766 Tb737 2.764 . S
C766 O750 1.239 . S
C766 O751 1.263 . S
C766 C760 1.504 . S
C767 O752 1.236 . S
C767 O753 1.257 . S
H768 C741 0.932 . S
H769 C742 0.930 . S
H770 C743 0.932 1_655 S
H771 C744 0.929 . S
H772 C762 0.932 . S
H773 C763 0.930 . S
H774 C764 0.932 . S
H775 C765 0.929 . S
Tb776 C785 2.764 . S
Tb776 O786 2.325 . S
Tb776 O789 2.303 . S
Tb776 O793 2.322 . S
Tb776 O794 2.349 . S
Tb776 O797 2.415 . S
Tb776 O798 2.399 . S
Tb777 O787 2.322 . S
Tb777 O788 2.349 . S
Tb777 O790 2.415 . S
Tb777 O791 2.399 . S
Tb777 O792 2.325 . S
Tb777 O795 2.303 . S
Tb777 C806 2.764 . S
C778 O794 1.261 . S
C778 O795 1.257 . S
C779 C782 1.358 . S
C779 C783 1.332 . S
C779 C785 1.504 . S
C780 C781 1.373 . S
C780 C784 1.308 . S
C781 C780 1.373 . S
C781 C782 1.429 . S
C781 H808 0.932 . S
C782 C779 1.358 . S
C782 C781 1.429 . S
C782 H809 0.930 . S
C783 C779 1.332 . S
C783 C784 1.394 . S
C783 H810 0.932 . S
C784 C780 1.308 . S
C784 C783 1.394 . S
C784 H811 0.929 . S
C785 Tb776 2.764 . S
C785 C779 1.504 . S
C785 O797 1.239 . S
C785 O798 1.263 . S
O786 Tb776 2.325 . S
O786 C796 1.236 . S
O787 Tb777 2.322 . S
O787 C796 1.257 . S
O788 Tb777 2.349 . S
O788 C799 1.261 . S
O789 Tb776 2.303 . S
O789 C799 1.257 . S
O790 Tb777 2.415 . S
O790 C806 1.239 . S
O791 Tb777 2.399 . S
O791 C806 1.263 . S
O792 Tb777 2.325 . S
O792 C807 1.236 . S
O793 Tb776 2.322 . S
O793 C807 1.257 . S
O794 Tb776 2.349 . S
O794 C778 1.261 . S
O795 Tb777 2.303 . S
O795 C778 1.257 . S
C796 O786 1.236 . S
C796 O787 1.257 . S
O797 Tb776 2.415 . S
O797 C785 1.239 . S
O798 Tb776 2.399 . S
O798 C785 1.263 . S
C799 O788 1.261 . S
C799 O789 1.257 . S
C800 C803 1.358 . S
C800 C804 1.332 . S
C800 C806 1.504 . S
C801 C802 1.373 . S
C801 C805 1.308 . S
C802 C801 1.373 . S
C802 C803 1.429 . S
C802 H812 0.932 . S
C803 C800 1.358 . S
C803 C802 1.429 . S
C803 H813 0.930 . S
C804 C800 1.332 . S
C804 C805 1.394 . S
C804 H814 0.932 . S
C805 C801 1.308 . S
C805 C804 1.394 . S
C805 H815 0.929 . S
C806 Tb777 2.764 . S
C806 O790 1.239 . S
C806 O791 1.263 . S
C806 C800 1.504 . S
C807 O792 1.236 . S
C807 O793 1.257 . S
H808 C781 0.932 . S
H809 C782 0.930 . S
H810 C783 0.932 . S
H811 C784 0.929 . S
H812 C802 0.932 . S
H813 C803 0.930 . S
H814 C804 0.932 . S
H815 C805 0.929 . S
Tb816 C825 2.764 . S
Tb816 O826 2.325 . S
Tb816 O829 2.303 . S
Tb816 O833 2.322 . S
Tb816 O834 2.349 . S
Tb816 O837 2.415 . S
Tb816 O838 2.399 . S
Tb817 O827 2.322 . S
Tb817 O828 2.349 . S
Tb817 O830 2.415 . S
Tb817 O831 2.399 . S
Tb817 O832 2.325 . S
Tb817 O835 2.303 . S
Tb817 C846 2.764 . S
C818 O834 1.261 . S
C818 O835 1.257 . S
C819 C822 1.358 . S
C819 C823 1.332 . S
C819 C825 1.504 . S
C820 C821 1.373 . S
C820 C824 1.308 . S
C821 C820 1.373 . S
C821 C822 1.429 . S
C821 H848 0.932 . S
C822 C819 1.358 . S
C822 C821 1.429 . S
C822 H849 0.930 . S
C823 C819 1.332 . S
C823 C824 1.394 . S
C823 H850 0.932 . S
C824 C820 1.308 . S
C824 C823 1.394 . S
C824 H851 0.929 . S
C825 Tb816 2.764 . S
C825 C819 1.504 . S
C825 O837 1.239 . S
C825 O838 1.263 . S
O826 Tb816 2.325 . S
O826 C836 1.236 . S
O827 Tb817 2.322 . S
O827 C836 1.257 . S
O828 Tb817 2.349 . S
O828 C839 1.261 . S
O829 Tb816 2.303 . S
O829 C839 1.257 . S
O830 Tb817 2.415 . S
O830 C846 1.239 . S
O831 Tb817 2.399 . S
O831 C846 1.263 . S
O832 Tb817 2.325 . S
O832 C847 1.236 . S
O833 Tb816 2.322 . S
O833 C847 1.257 . S
O834 Tb816 2.349 . S
O834 C818 1.261 . S
O835 Tb817 2.303 . S
O835 C818 1.257 . S
C836 O826 1.236 . S
C836 O827 1.257 . S
O837 Tb816 2.415 . S
O837 C825 1.239 . S
O838 Tb816 2.399 . S
O838 C825 1.263 . S
C839 O828 1.261 . S
C839 O829 1.257 . S
C840 C843 1.358 . S
C840 C844 1.332 . S
C840 C846 1.504 . S
C841 C842 1.373 . S
C841 C845 1.308 . S
C842 C841 1.373 . S
C842 C843 1.429 . S
C842 H852 0.932 . S
C843 C840 1.358 . S
C843 C842 1.429 . S
C843 H853 0.930 . S
C844 C840 1.332 . S
C844 C845 1.394 . S
C844 H854 0.932 . S
C845 C841 1.308 . S
C845 C844 1.394 . S
C845 H855 0.929 . S
C846 Tb817 2.764 . S
C846 O830 1.239 . S
C846 O831 1.263 . S
C846 C840 1.504 . S
C847 O832 1.236 . S
C847 O833 1.257 . S
H848 C821 0.932 . S
H849 C822 0.930 . S
H850 C823 0.932 . S
H851 C824 0.929 . S
H852 C842 0.932 . S
H853 C843 0.930 . S
H854 C844 0.932 . S
H855 C845 0.929 . S
Tb856 C865 2.764 . S
Tb856 O866 2.325 . S
Tb856 O869 2.303 . S
Tb856 O873 2.322 . S
Tb856 O874 2.349 . S
Tb856 O877 2.415 . S
Tb856 O878 2.399 . S
Tb857 O867 2.322 . S
Tb857 O868 2.349 . S
Tb857 O870 2.415 . S
Tb857 O871 2.399 . S
Tb857 O872 2.325 . S
Tb857 O875 2.303 . S
Tb857 C886 2.764 . S
C858 O874 1.261 . S
C858 O875 1.257 . S
C859 C862 1.358 . S
C859 C863 1.332 . S
C859 C865 1.504 . S
C860 C861 1.373 . S
C860 C864 1.308 . S
C861 C860 1.373 . S
C861 C862 1.429 . S
C861 H888 0.932 . S
C862 C859 1.358 . S
C862 C861 1.429 . S
C862 H889 0.930 . S
C863 C859 1.332 . S
C863 C864 1.394 . S
C863 H890 0.932 . S
C864 C860 1.308 . S
C864 C863 1.394 . S
C864 H891 0.929 . S
C865 Tb856 2.764 . S
C865 C859 1.504 . S
C865 O877 1.239 . S
C865 O878 1.263 . S
O866 Tb856 2.325 . S
O866 C876 1.236 . S
O867 Tb857 2.322 . S
O867 C876 1.257 . S
O868 Tb857 2.349 . S
O868 C879 1.261 . S
O869 Tb856 2.303 . S
O869 C879 1.257 . S
O870 Tb857 2.415 . S
O870 C886 1.239 . S
O871 Tb857 2.399 . S
O871 C886 1.263 . S
O872 Tb857 2.325 . S
O872 C887 1.236 . S
O873 Tb856 2.322 . S
O873 C887 1.257 . S
O874 Tb856 2.349 . S
O874 C858 1.261 . S
O875 Tb857 2.303 . S
O875 C858 1.257 . S
C876 O866 1.236 . S
C876 O867 1.257 . S
O877 Tb856 2.415 . S
O877 C865 1.239 . S
O878 Tb856 2.399 . S
O878 C865 1.263 . S
C879 O868 1.261 . S
C879 O869 1.257 . S
C880 C883 1.358 . S
C880 C884 1.332 . S
C880 C886 1.504 . S
C881 C882 1.373 . S
C881 C885 1.308 . S
C882 C881 1.373 . S
C882 C883 1.429 . S
C882 H892 0.932 . S
C883 C880 1.358 . S
C883 C882 1.429 . S
C883 H893 0.930 . S
C884 C880 1.332 . S
C884 C885 1.394 . S
C884 H894 0.932 . S
C885 C881 1.308 . S
C885 C884 1.394 . S
C885 H895 0.929 . S
C886 Tb857 2.764 . S
C886 O870 1.239 . S
C886 O871 1.263 . S
C886 C880 1.504 . S
C887 O872 1.236 . S
C887 O873 1.257 . S
H888 C861 0.932 . S
H889 C862 0.930 . S
H890 C863 0.932 . S
H891 C864 0.929 . S
H892 C882 0.932 . S
H893 C883 0.930 . S
H894 C884 0.932 . S
H895 C885 0.929 . S
Tb896 C905 2.764 . S
Tb896 O906 2.325 . S
Tb896 O909 2.303 . S
Tb896 O913 2.322 . S
Tb896 O914 2.349 . S
Tb896 O917 2.415 . S
Tb896 O918 2.399 . S
Tb897 O907 2.322 . S
Tb897 O908 2.349 . S
Tb897 O910 2.415 . S
Tb897 O911 2.399 . S
Tb897 O912 2.325 . S
Tb897 O915 2.303 . S
Tb897 C926 2.764 . S
C898 O914 1.261 . S
C898 O915 1.257 . S
C899 C902 1.358 . S
C899 C903 1.332 . S
C899 C905 1.504 . S
C900 C901 1.373 . S
C900 C904 1.308 . S
C901 C900 1.373 . S
C901 C902 1.429 . S
C901 H928 0.932 . S
C902 C899 1.358 . S
C902 C901 1.429 . S
C902 H929 0.930 . S
C903 C899 1.332 . S
C903 C904 1.394 . S
C903 H930 0.932 . S
C904 C900 1.308 . S
C904 C903 1.394 . S
C904 H931 0.929 . S
C905 Tb896 2.764 . S
C905 C899 1.504 . S
C905 O917 1.239 . S
C905 O918 1.263 . S
O906 Tb896 2.325 . S
O906 C916 1.236 . S
O907 Tb897 2.322 . S
O907 C916 1.257 . S
O908 Tb897 2.349 . S
O908 C919 1.261 . S
O909 Tb896 2.303 . S
O909 C919 1.257 . S
O910 Tb897 2.415 . S
O910 C926 1.239 . S
O911 Tb897 2.399 . S
O911 C926 1.263 . S
O912 Tb897 2.325 . S
O912 C927 1.236 . S
O913 Tb896 2.322 . S
O913 C927 1.257 . S
O914 Tb896 2.349 . S
O914 C898 1.261 . S
O915 Tb897 2.303 . S
O915 C898 1.257 . S
C916 O906 1.236 . S
C916 O907 1.257 . S
O917 Tb896 2.415 . S
O917 C905 1.239 . S
O918 Tb896 2.399 . S
O918 C905 1.263 . S
C919 O908 1.261 . S
C919 O909 1.257 . S
C920 C923 1.358 . S
C920 C924 1.332 . S
C920 C926 1.504 . S
C921 C922 1.373 . S
C921 C925 1.308 . S
C922 C921 1.373 . S
C922 C923 1.429 . S
C922 H932 0.932 . S
C923 C920 1.358 . S
C923 C922 1.429 . S
C923 H933 0.930 . S
C924 C920 1.332 . S
C924 C925 1.394 . S
C924 H934 0.932 . S
C925 C921 1.308 . S
C925 C924 1.394 . S
C925 H935 0.929 . S
C926 Tb897 2.764 . S
C926 O910 1.239 . S
C926 O911 1.263 . S
C926 C920 1.504 . S
C927 O912 1.236 . S
C927 O913 1.257 . S
H928 C901 0.932 . S
H929 C902 0.930 . S
H930 C903 0.932 . S
H931 C904 0.929 . S
H932 C922 0.932 . S
H933 C923 0.930 . S
H934 C924 0.932 . S
H935 C925 0.929 . S
Tb936 C945 2.764 1_455 S
Tb936 O946 2.325 . S
Tb936 O949 2.261 1_554 S
Tb936 O953 2.322 . S
Tb936 O954 2.349 . S
Tb936 O957 2.415 1_455 S
Tb936 O958 2.399 1_455 S
Tb937 O947 2.322 . S
Tb937 O948 2.349 1_554 S
Tb937 O950 2.415 . S
Tb937 O951 2.399 1_554 S
Tb937 O952 2.325 . S
Tb937 O955 2.303 . S
Tb937 C966 2.764 . S
C938 O954 1.261 . S
C938 O955 1.257 . S
C939 C942 1.358 . S
C939 C943 1.332 . S
C939 C945 1.504 . S
C940 C941 1.373 . S
C940 C944 1.308 . S
C941 C940 1.373 . S
C941 C942 1.429 . S
C941 H968 0.932 . S
C942 C939 1.358 . S
C942 C941 1.429 . S
C942 H969 0.930 . S
C943 C939 1.332 . S
C943 C944 1.394 . S
C943 H970 0.932 . S
C944 C940 1.308 . S
C944 C943 1.394 . S
C944 H971 0.929 . S
C945 Tb936 2.764 1_655 S
C945 C939 1.504 . S
C945 O957 1.239 . S
C945 O958 1.263 . S
O946 Tb936 2.325 . S
O946 C956 1.236 . S
O947 Tb937 2.322 . S
O947 C956 1.257 . S
O948 Tb937 2.349 1_556 S
O948 C959 1.261 . S
O949 Tb936 2.261 1_556 S
O949 C959 1.300 . S
O950 Tb937 2.415 . S
O950 C966 1.239 . S
O951 Tb937 2.399 1_556 S
O951 C966 1.263 1_556 S
O952 Tb937 2.325 . S
O952 C967 1.236 . S
O953 Tb936 2.322 . S
O953 C967 1.257 . S
O954 Tb936 2.349 . S
O954 C938 1.261 . S
O955 Tb937 2.303 . S
O955 C938 1.257 . S
C956 O946 1.236 . S
C956 O947 1.257 . S
O957 Tb936 2.415 1_655 S
O957 C945 1.239 . S
O958 Tb936 2.399 1_655 S
O958 C945 1.263 . S
C959 O948 1.261 . S
C959 O949 1.300 . S
C960 C963 1.358 1_554 S
C960 C964 1.332 . S
C960 C966 1.504 . S
C961 C962 1.373 . S
C961 C965 1.308 1_556 S
C962 C961 1.373 . S
C962 C963 1.429 . S
C962 H972 0.932 . S
C963 C960 1.358 1_556 S
C963 C962 1.429 . S
C963 H973 0.930 . S
C964 C960 1.332 . S
C964 C965 1.394 . S
C964 H974 0.932 . S
C965 C961 1.308 1_554 S
C965 C964 1.394 . S
C965 H975 0.929 . S
C966 Tb937 2.764 . S
C966 O950 1.239 . S
C966 O951 1.263 1_554 S
C966 C960 1.504 . S
C967 O952 1.236 . S
C967 O953 1.257 . S
H968 C941 0.932 . S
H969 C942 0.930 . S
H970 C943 0.932 . S
H971 C944 0.929 . S
H972 C962 0.932 . S
H973 C963 0.930 . S
H974 C964 0.932 . S
H975 C965 0.929 . S
H976 C994 0.951 . S
H977 C996 0.951 . S
H978 C998 0.950 . S
H979 C999 0.950 . S
H980 C1001 0.950 . S
H981 C1004 0.950 . S
H982 C1005 0.950 . S
H983 C1007 0.950 . S
H984 C1008 0.950 . S
H985 C1009 0.951 1_655 S
H986 C1011 0.951 1_655 S
H987 C1013 0.950 . S
H988 C1014 0.950 . S
H989 C1016 0.950 . S
H990 C1019 0.950 1_455 S
H991 C1020 0.950 . S
H992 C1022 0.950 . S
H993 C1023 0.950 . S
C994 H976 0.951 . S
C994 C995 1.366 1_455 S
C994 C996 1.388 . S
C995 C994 1.366 1_655 S
C995 C999 1.385 . S
C996 H977 0.951 . S
C996 C994 1.388 . S
C996 C997 1.366 . S
C997 C996 1.366 . S
C997 C998 1.414 1_455 S
C997 C1000 1.499 . S
C998 H978 0.950 . S
C998 C997 1.414 1_655 S
C998 C999 1.374 . S
C999 H979 0.950 . S
C999 C995 1.385 . S
C999 C998 1.374 . S
C1000 C997 1.499 . S
C1000 C1001 1.373 1_455 S
C1000 C1002 1.389 . S
C1001 H980 0.950 . S
C1001 C1000 1.373 1_655 S
C1001 C1017 1.377 . S
C1002 C1000 1.389 . S
C1002 C1003 1.524 . S
C1002 C1016 1.377 . S
C1003 C1002 1.524 . S
C1003 C1004 1.397 . S
C1003 C1008 1.363 . S
C1004 H981 0.950 . S
C1004 C1003 1.397 . S
C1004 C1005 1.334 . S
C1005 H982 0.950 . S
C1005 C1004 1.334 . S
C1005 C1006 1.287 . S
C1006 C1005 1.287 . S
C1006 C1007 1.524 . S
C1006 H1025 0.913 . S
C1007 H983 0.950 . S
C1007 C1006 1.524 . S
C1007 C1008 1.415 . S
C1008 H984 0.950 . S
C1008 C1003 1.363 . S
C1008 C1007 1.415 . S
C1009 H985 0.951 1_455 S
C1009 C1010 1.366 1_556 S
C1009 C1011 1.388 . S
C1010 C1009 1.366 1_554 S
C1010 C1014 1.385 . S
C1011 H986 0.951 1_455 S
C1011 C1009 1.388 . S
C1011 C1012 1.366 . S
C1012 C1011 1.366 . S
C1012 C1013 1.412 1_556 S
C1012 C1015 1.499 . S
C1013 H987 0.950 . S
C1013 C1012 1.412 1_554 S
C1013 C1014 1.376 . S
C1014 H988 0.950 . S
C1014 C1010 1.385 . S
C1014 C1013 1.376 . S
C1015 C1012 1.499 . S
C1015 C1016 1.373 . S
C1015 C1017 1.389 1_455 S
C1016 H989 0.950 . S
C1016 C1002 1.377 . S
C1016 C1015 1.373 . S
C1017 C1001 1.377 . S
C1017 C1015 1.389 1_655 S
C1017 C1018 1.532 . S
C1018 C1017 1.532 . S
C1018 C1019 1.387 1_556 S
C1018 C1023 1.365 . S
C1019 H990 0.950 1_655 S
C1019 C1018 1.387 1_554 S
C1019 C1020 1.334 . S
C1020 H991 0.950 . S
C1020 C1019 1.334 . S
C1020 C1021 1.287 . S
C1021 C1020 1.287 . S
C1021 C1022 1.524 . S
C1021 H1024 0.999 . S
C1022 H992 0.950 . S
C1022 C1021 1.524 . S
C1022 C1023 1.415 1_554 S
C1023 H993 0.950 . S
C1023 C1018 1.365 . S
C1023 C1022 1.415 1_556 S
H1024 C1021 0.999 . S
H1025 C1006 0.913 . S
H1026 C1044 0.951 . S
H1027 C1046 0.951 . S
H1028 C1048 0.950 . S
H1029 C1049 0.950 . S
H1030 C1051 0.950 . S
H1031 C1054 0.950 . S
H1032 C1055 0.950 . S
H1033 C1057 0.950 . S
H1034 C1058 0.950 . S
H1035 C1059 0.951 . S
H1036 C1061 0.951 . S
H1037 C1063 0.950 . S
H1038 C1064 0.950 . S
H1039 C1066 0.950 . S
H1040 C1069 0.950 . S
H1041 C1070 0.950 . S
H1042 C1072 0.950 . S
H1043 C1073 0.950 . S
C1044 H1026 0.951 . S
C1044 C1045 1.366 . S
C1044 C1046 1.388 . S
C1045 C1044 1.366 . S
C1045 C1049 1.385 . S
C1046 H1027 0.951 . S
C1046 C1044 1.388 . S
C1046 C1047 1.366 . S
C1047 C1046 1.366 . S
C1047 C1048 1.414 . S
C1047 C1050 1.499 . S
C1048 H1028 0.950 . S
C1048 C1047 1.414 . S
C1048 C1049 1.374 . S
C1049 H1029 0.950 . S
C1049 C1045 1.385 . S
C1049 C1048 1.374 . S
C1050 C1047 1.499 . S
C1050 C1051 1.373 . S
C1050 C1052 1.389 . S
C1051 H1030 0.950 . S
C1051 C1050 1.373 . S
C1051 C1067 1.377 . S
C1052 C1050 1.389 . S
C1052 C1053 1.524 . S
C1052 C1066 1.377 . S
C1053 C1052 1.524 . S
C1053 C1054 1.397 . S
C1053 C1058 1.363 . S
C1054 H1031 0.950 . S
C1054 C1053 1.397 . S
C1054 C1055 1.334 . S
C1055 H1032 0.950 . S
C1055 C1054 1.334 . S
C1055 C1056 1.287 . S
C1056 C1055 1.287 . S
C1056 C1057 1.524 . S
C1056 H1075 0.913 . S
C1057 H1033 0.950 . S
C1057 C1056 1.524 . S
C1057 C1058 1.415 . S
C1058 H1034 0.950 . S
C1058 C1053 1.363 . S
C1058 C1057 1.415 . S
C1059 H1035 0.951 . S
C1059 C1060 1.366 . S
C1059 C1061 1.388 . S
C1060 C1059 1.366 . S
C1060 C1064 1.385 . S
C1061 H1036 0.951 . S
C1061 C1059 1.388 . S
C1061 C1062 1.366 . S
C1062 C1061 1.366 . S
C1062 C1063 1.414 . S
C1062 C1065 1.499 . S
C1063 H1037 0.950 . S
C1063 C1062 1.414 . S
C1063 C1064 1.374 . S
C1064 H1038 0.950 . S
C1064 C1060 1.385 . S
C1064 C1063 1.374 . S
C1065 C1062 1.499 . S
C1065 C1066 1.373 . S
C1065 C1067 1.389 . S
C1066 H1039 0.950 . S
C1066 C1052 1.377 . S
C1066 C1065 1.373 . S
C1067 C1051 1.377 . S
C1067 C1065 1.389 . S
C1067 C1068 1.524 . S
C1068 C1067 1.524 . S
C1068 C1069 1.397 . S
C1068 C1073 1.363 . S
C1069 H1040 0.950 . S
C1069 C1068 1.397 . S
C1069 C1070 1.334 . S
C1070 H1041 0.950 . S
C1070 C1069 1.334 . S
C1070 C1071 1.287 . S
C1071 C1070 1.287 . S
C1071 C1072 1.524 . S
C1071 H1074 0.999 . S
C1072 H1042 0.950 . S
C1072 C1071 1.524 . S
C1072 C1073 1.415 . S
C1073 H1043 0.950 . S
C1073 C1068 1.363 . S
C1073 C1072 1.415 . S
H1074 C1071 0.999 . S
H1075 C1056 0.913 . S
H1076 C1094 0.951 . S
H1077 C1096 0.951 . S
H1078 C1098 0.950 . S
H1079 C1099 0.950 . S
H1080 C1101 0.950 . S
H1081 C1104 0.950 . S
H1082 C1105 0.950 . S
H1083 C1107 0.950 . S
H1084 C1108 0.950 . S
H1085 C1109 0.951 . S
H1086 C1111 0.951 . S
H1087 C1113 0.950 . S
H1088 C1114 0.950 . S
H1089 C1116 0.950 . S
H1090 C1119 0.950 . S
H1091 C1120 0.950 . S
H1092 C1122 0.950 . S
H1093 C1123 0.950 . S
C1094 H1076 0.951 . S
C1094 C1095 1.366 . S
C1094 C1096 1.388 . S
C1095 C1094 1.366 . S
C1095 C1099 1.385 . S
C1096 H1077 0.951 . S
C1096 C1094 1.388 . S
C1096 C1097 1.366 . S
C1097 C1096 1.366 . S
C1097 C1098 1.414 . S
C1097 C1100 1.499 . S
C1098 H1078 0.950 . S
C1098 C1097 1.414 . S
C1098 C1099 1.374 . S
C1099 H1079 0.950 . S
C1099 C1095 1.385 . S
C1099 C1098 1.374 . S
C1100 C1097 1.499 . S
C1100 C1101 1.373 . S
C1100 C1102 1.389 . S
C1101 H1080 0.950 . S
C1101 C1100 1.373 . S
C1101 C1117 1.377 . S
C1102 C1100 1.389 . S
C1102 C1103 1.524 . S
C1102 C1116 1.377 . S
C1103 C1102 1.524 . S
C1103 C1104 1.397 . S
C1103 C1108 1.363 . S
C1104 H1081 0.950 . S
C1104 C1103 1.397 . S
C1104 C1105 1.334 . S
C1105 H1082 0.950 . S
C1105 C1104 1.334 . S
C1105 C1106 1.287 . S
C1106 C1105 1.287 . S
C1106 C1107 1.524 . S
C1106 H1125 0.913 . S
C1107 H1083 0.950 . S
C1107 C1106 1.524 . S
C1107 C1108 1.415 . S
C1108 H1084 0.950 . S
C1108 C1103 1.363 . S
C1108 C1107 1.415 . S
C1109 H1085 0.951 . S
C1109 C1110 1.366 . S
C1109 C1111 1.388 . S
C1110 C1109 1.366 . S
C1110 C1114 1.385 . S
C1111 H1086 0.951 . S
C1111 C1109 1.388 . S
C1111 C1112 1.366 . S
C1112 C1111 1.366 . S
C1112 C1113 1.414 . S
C1112 C1115 1.499 . S
C1113 H1087 0.950 . S
C1113 C1112 1.414 . S
C1113 C1114 1.374 . S
C1114 H1088 0.950 . S
C1114 C1110 1.385 . S
C1114 C1113 1.374 . S
C1115 C1112 1.499 . S
C1115 C1116 1.373 . S
C1115 C1117 1.389 . S
C1116 H1089 0.950 . S
C1116 C1102 1.377 . S
C1116 C1115 1.373 . S
C1117 C1101 1.377 . S
C1117 C1115 1.389 . S
C1117 C1118 1.524 . S
C1118 C1117 1.524 . S
C1118 C1119 1.397 . S
C1118 C1123 1.363 . S
C1119 H1090 0.950 . S
C1119 C1118 1.397 . S
C1119 C1120 1.334 . S
C1120 H1091 0.950 . S
C1120 C1119 1.334 . S
C1120 C1121 1.287 . S
C1121 C1120 1.287 . S
C1121 C1122 1.524 . S
C1121 H1124 0.999 . S
C1122 H1092 0.950 . S
C1122 C1121 1.524 . S
C1122 C1123 1.415 . S
C1123 H1093 0.950 . S
C1123 C1118 1.363 . S
C1123 C1122 1.415 . S
H1124 C1121 0.999 . S
H1125 C1106 0.913 . S
H1126 C1144 0.951 . S
H1127 C1146 0.951 . S
H1128 C1148 0.950 . S
H1129 C1149 0.950 . S
H1130 C1151 0.950 . S
H1131 C1154 0.950 . S
H1132 C1155 0.950 . S
H1133 C1157 0.950 . S
H1134 C1158 0.950 . S
H1135 C1159 0.951 . S
H1136 C1161 0.951 . S
H1137 C1163 0.950 . S
H1138 C1164 0.950 . S
H1139 C1166 0.950 . S
H1140 C1169 0.950 . S
H1141 C1170 0.950 . S
H1142 C1172 0.950 . S
H1143 C1173 0.950 . S
C1144 H1126 0.951 . S
C1144 C1145 1.366 . S
C1144 C1146 1.388 . S
C1145 C1144 1.366 . S
C1145 C1149 1.385 . S
C1146 H1127 0.951 . S
C1146 C1144 1.388 . S
C1146 C1147 1.366 . S
C1147 C1146 1.366 . S
C1147 C1148 1.414 . S
C1147 C1150 1.499 . S
C1148 H1128 0.950 . S
C1148 C1147 1.414 . S
C1148 C1149 1.374 . S
C1149 H1129 0.950 . S
C1149 C1145 1.385 . S
C1149 C1148 1.374 . S
C1150 C1147 1.499 . S
C1150 C1151 1.373 . S
C1150 C1152 1.389 . S
C1151 H1130 0.950 . S
C1151 C1150 1.373 . S
C1151 C1167 1.377 . S
C1152 C1150 1.389 . S
C1152 C1153 1.524 . S
C1152 C1166 1.377 . S
C1153 C1152 1.524 . S
C1153 C1154 1.397 . S
C1153 C1158 1.363 . S
C1154 H1131 0.950 . S
C1154 C1153 1.397 . S
C1154 C1155 1.334 . S
C1155 H1132 0.950 . S
C1155 C1154 1.334 . S
C1155 C1156 1.287 . S
C1156 C1155 1.287 . S
C1156 C1157 1.524 . S
C1156 H1175 0.913 . S
C1157 H1133 0.950 . S
C1157 C1156 1.524 . S
C1157 C1158 1.415 . S
C1158 H1134 0.950 . S
C1158 C1153 1.363 . S
C1158 C1157 1.415 . S
C1159 H1135 0.951 . S
C1159 C1160 1.366 . S
C1159 C1161 1.388 . S
C1160 C1159 1.366 . S
C1160 C1164 1.385 . S
C1161 H1136 0.951 . S
C1161 C1159 1.388 . S
C1161 C1162 1.366 . S
C1162 C1161 1.366 . S
C1162 C1163 1.414 . S
C1162 C1165 1.499 . S
C1163 H1137 0.950 . S
C1163 C1162 1.414 . S
C1163 C1164 1.374 . S
C1164 H1138 0.950 . S
C1164 C1160 1.385 . S
C1164 C1163 1.374 . S
C1165 C1162 1.499 . S
C1165 C1166 1.373 . S
C1165 C1167 1.389 . S
C1166 H1139 0.950 . S
C1166 C1152 1.377 . S
C1166 C1165 1.373 . S
C1167 C1151 1.377 . S
C1167 C1165 1.389 . S
C1167 C1168 1.524 . S
C1168 C1167 1.524 . S
C1168 C1169 1.397 . S
C1168 C1173 1.363 . S
C1169 H1140 0.950 . S
C1169 C1168 1.397 . S
C1169 C1170 1.334 . S
C1170 H1141 0.950 . S
C1170 C1169 1.334 . S
C1170 C1171 1.287 . S
C1171 C1170 1.287 . S
C1171 C1172 1.524 . S
C1171 H1174 0.999 . S
C1172 H1142 0.950 . S
C1172 C1171 1.524 . S
C1172 C1173 1.415 . S
C1173 H1143 0.950 . S
C1173 C1168 1.363 . S
C1173 C1172 1.415 . S
H1174 C1171 0.999 . S
H1175 C1156 0.913 . S
H1176 C1194 0.951 . S
H1177 C1196 0.951 . S
H1178 C1198 0.950 . S
H1179 C1199 0.950 . S
H1180 C1201 0.950 . S
H1181 C1204 0.943 1_455 S
H1182 C1205 0.950 . S
H1183 C1207 0.950 . S
H1184 C1208 0.960 . S
H1185 C1209 0.951 . S
H1186 C1211 0.951 . S
H1187 C1213 0.950 . S
H1188 C1214 0.950 . S
H1189 C1216 0.950 . S
H1190 C1219 0.950 . S
H1191 C1220 0.950 . S
H1192 C1222 0.950 . S
H1193 C1223 0.950 . S
C1194 H1176 0.951 . S
C1194 C1195 1.366 . S
C1194 C1196 1.388 . S
C1195 C1194 1.366 . S
C1195 C1199 1.385 . S
C1196 H1177 0.951 . S
C1196 C1194 1.388 . S
C1196 C1197 1.366 . S
C1197 C1196 1.366 . S
C1197 C1198 1.414 . S
C1197 C1200 1.499 . S
C1198 H1178 0.950 . S
C1198 C1197 1.414 . S
C1198 C1199 1.374 . S
C1199 H1179 0.950 . S
C1199 C1195 1.385 . S
C1199 C1198 1.374 . S
C1200 C1197 1.499 . S
C1200 C1201 1.373 . S
C1200 C1202 1.389 . S
C1201 H1180 0.950 . S
C1201 C1200 1.373 . S
C1201 C1217 1.377 . S
C1202 C1200 1.389 . S
C1202 C1203 1.524 . S
C1202 C1216 1.377 . S
C1203 C1202 1.524 . S
C1203 C1204 1.395 1_455 S
C1203 C1208 1.395 . S
C1204 H1181 0.943 1_655 S
C1204 C1203 1.395 1_655 S
C1204 C1205 1.342 . S
C1205 H1182 0.950 . S
C1205 C1204 1.342 . S
C1205 C1206 1.287 . S
C1206 C1205 1.287 . S
C1206 C1207 1.524 . S
C1206 H1225 0.913 . S
C1207 H1183 0.950 . S
C1207 C1206 1.524 . S
C1207 C1208 1.375 1_655 S
C1208 H1184 0.960 . S
C1208 C1203 1.395 . S
C1208 C1207 1.375 1_455 S
C1209 H1185 0.951 . S
C1209 C1210 1.366 . S
C1209 C1211 1.388 . S
C1210 C1209 1.366 . S
C1210 C1214 1.385 . S
C1211 H1186 0.951 . S
C1211 C1209 1.388 . S
C1211 C1212 1.366 . S
C1212 C1211 1.366 . S
C1212 C1213 1.414 . S
C1212 C1215 1.499 . S
C1213 H1187 0.950 . S
C1213 C1212 1.414 . S
C1213 C1214 1.374 . S
C1214 H1188 0.950 . S
C1214 C1210 1.385 . S
C1214 C1213 1.374 . S
C1215 C1212 1.499 . S
C1215 C1216 1.373 . S
C1215 C1217 1.389 . S
C1216 H1189 0.950 . S
C1216 C1202 1.377 . S
C1216 C1215 1.373 . S
C1217 C1201 1.377 . S
C1217 C1215 1.389 . S
C1217 C1218 1.524 . S
C1218 C1217 1.524 . S
C1218 C1219 1.397 . S
C1218 C1223 1.363 . S
C1219 H1190 0.950 . S
C1219 C1218 1.397 . S
C1219 C1220 1.334 . S
C1220 H1191 0.950 . S
C1220 C1219 1.334 . S
C1220 C1221 1.287 . S
C1221 C1220 1.287 . S
C1221 C1222 1.524 . S
C1221 H1224 0.999 . S
C1222 H1192 0.950 . S
C1222 C1221 1.524 . S
C1222 C1223 1.415 . S
C1223 H1193 0.950 . S
C1223 C1218 1.363 . S
C1223 C1222 1.415 . S
H1224 C1221 0.999 . S
H1225 C1206 0.913 . S
H1226 C1244 0.951 . S
H1227 C1246 0.951 . S
H1228 C1248 0.950 . S
H1229 C1249 0.950 . S
H1230 C1251 0.950 . S
H1231 C1254 0.950 . S
H1232 C1255 0.950 . S
H1233 C1257 0.950 . S
H1234 C1258 0.950 . S
H1235 C1259 0.951 . S
H1236 C1261 0.951 . S
H1237 C1263 0.950 . S
H1238 C1264 0.950 . S
H1239 C1266 0.950 . S
H1240 C1269 0.950 . S
H1241 C1270 0.950 . S
H1242 C1272 0.950 . S
H1243 C1273 0.950 . S
C1244 H1226 0.951 . S
C1244 C1245 1.366 . S
C1244 C1246 1.388 . S
C1245 C1244 1.366 . S
C1245 C1249 1.385 . S
C1246 H1227 0.951 . S
C1246 C1244 1.388 . S
C1246 C1247 1.366 . S
C1247 C1246 1.366 . S
C1247 C1248 1.414 . S
C1247 C1250 1.499 . S
C1248 H1228 0.950 . S
C1248 C1247 1.414 . S
C1248 C1249 1.374 . S
C1249 H1229 0.950 . S
C1249 C1245 1.385 . S
C1249 C1248 1.374 . S
C1250 C1247 1.499 . S
C1250 C1251 1.373 . S
C1250 C1252 1.389 . S
C1251 H1230 0.950 . S
C1251 C1250 1.373 . S
C1251 C1267 1.377 . S
C1252 C1250 1.389 . S
C1252 C1253 1.524 . S
C1252 C1266 1.377 . S
C1253 C1252 1.524 . S
C1253 C1254 1.397 . S
C1253 C1258 1.363 . S
C1254 H1231 0.950 . S
C1254 C1253 1.397 . S
C1254 C1255 1.334 . S
C1255 H1232 0.950 . S
C1255 C1254 1.334 . S
C1255 C1256 1.287 . S
C1256 C1255 1.287 . S
C1256 C1257 1.524 . S
C1256 H1275 0.913 . S
C1257 H1233 0.950 . S
C1257 C1256 1.524 . S
C1257 C1258 1.415 . S
C1258 H1234 0.950 . S
C1258 C1253 1.363 . S
C1258 C1257 1.415 . S
C1259 H1235 0.951 . S
C1259 C1260 1.366 . S
C1259 C1261 1.388 . S
C1260 C1259 1.366 . S
C1260 C1264 1.385 . S
C1261 H1236 0.951 . S
C1261 C1259 1.388 . S
C1261 C1262 1.366 . S
C1262 C1261 1.366 . S
C1262 C1263 1.414 . S
C1262 C1265 1.499 . S
C1263 H1237 0.950 . S
C1263 C1262 1.414 . S
C1263 C1264 1.374 . S
C1264 H1238 0.950 . S
C1264 C1260 1.385 . S
C1264 C1263 1.374 . S
C1265 C1262 1.499 . S
C1265 C1266 1.373 . S
C1265 C1267 1.389 . S
C1266 H1239 0.950 . S
C1266 C1252 1.377 . S
C1266 C1265 1.373 . S
C1267 C1251 1.377 . S
C1267 C1265 1.389 . S
C1267 C1268 1.524 . S
C1268 C1267 1.524 . S
C1268 C1269 1.397 . S
C1268 C1273 1.363 . S
C1269 H1240 0.950 . S
C1269 C1268 1.397 . S
C1269 C1270 1.334 . S
C1270 H1241 0.950 . S
C1270 C1269 1.334 . S
C1270 C1271 1.287 . S
C1271 C1270 1.287 . S
C1271 C1272 1.524 . S
C1271 H1274 0.999 . S
C1272 H1242 0.950 . S
C1272 C1271 1.524 . S
C1272 C1273 1.415 . S
C1273 H1243 0.950 . S
C1273 C1268 1.363 . S
C1273 C1272 1.415 . S
H1274 C1271 0.999 . S
H1275 C1256 0.913 . S
H1276 C1294 0.951 . S
H1277 C1296 0.951 . S
H1278 C1298 0.950 . S
H1279 C1299 0.950 . S
H1280 C1301 0.950 . S
H1281 C1304 0.950 . S
H1282 C1305 0.950 . S
H1283 C1307 0.950 . S
H1284 C1308 0.950 . S
H1285 C1309 0.951 . S
H1286 C1311 0.951 . S
H1287 C1313 0.950 . S
H1288 C1314 0.950 . S
H1289 C1316 0.950 . S
H1290 C1319 0.950 . S
H1291 C1320 0.950 . S
H1292 C1322 0.950 . S
H1293 C1323 0.950 . S
C1294 H1276 0.951 . S
C1294 C1295 1.366 . S
C1294 C1296 1.388 . S
C1295 C1294 1.366 . S
C1295 C1299 1.385 . S
C1296 H1277 0.951 . S
C1296 C1294 1.388 . S
C1296 C1297 1.366 . S
C1297 C1296 1.366 . S
C1297 C1298 1.414 . S
C1297 C1300 1.499 . S
C1298 H1278 0.950 . S
C1298 C1297 1.414 . S
C1298 C1299 1.374 . S
C1299 H1279 0.950 . S
C1299 C1295 1.385 . S
C1299 C1298 1.374 . S
C1300 C1297 1.499 . S
C1300 C1301 1.373 . S
C1300 C1302 1.389 . S
C1301 H1280 0.950 . S
C1301 C1300 1.373 . S
C1301 C1317 1.377 . S
C1302 C1300 1.389 . S
C1302 C1303 1.524 . S
C1302 C1316 1.377 . S
C1303 C1302 1.524 . S
C1303 C1304 1.397 . S
C1303 C1308 1.363 . S
C1304 H1281 0.950 . S
C1304 C1303 1.397 . S
C1304 C1305 1.334 . S
C1305 H1282 0.950 . S
C1305 C1304 1.334 . S
C1305 C1306 1.287 . S
C1306 C1305 1.287 . S
C1306 C1307 1.524 . S
C1306 H1325 0.913 . S
C1307 H1283 0.950 . S
C1307 C1306 1.524 . S
C1307 C1308 1.415 . S
C1308 H1284 0.950 . S
C1308 C1303 1.363 . S
C1308 C1307 1.415 . S
C1309 H1285 0.951 . S
C1309 C1310 1.366 . S
C1309 C1311 1.388 . S
C1310 C1309 1.366 . S
C1310 C1314 1.385 . S
C1311 H1286 0.951 . S
C1311 C1309 1.388 . S
C1311 C1312 1.366 . S
C1312 C1311 1.366 . S
C1312 C1313 1.414 . S
C1312 C1315 1.499 . S
C1313 H1287 0.950 . S
C1313 C1312 1.414 . S
C1313 C1314 1.374 . S
C1314 H1288 0.950 . S
C1314 C1310 1.385 . S
C1314 C1313 1.374 . S
C1315 C1312 1.499 . S
C1315 C1316 1.373 . S
C1315 C1317 1.389 . S
C1316 H1289 0.950 . S
C1316 C1302 1.377 . S
C1316 C1315 1.373 . S
C1317 C1301 1.377 . S
C1317 C1315 1.389 . S
C1317 C1318 1.524 . S
C1318 C1317 1.524 . S
C1318 C1319 1.397 . S
C1318 C1323 1.363 . S
C1319 H1290 0.950 . S
C1319 C1318 1.397 . S
C1319 C1320 1.334 . S
C1320 H1291 0.950 . S
C1320 C1319 1.334 . S
C1320 C1321 1.287 . S
C1321 C1320 1.287 . S
C1321 C1322 1.524 . S
C1321 H1324 0.999 . S
C1322 H1292 0.950 . S
C1322 C1321 1.524 . S
C1322 C1323 1.415 . S
C1323 H1293 0.950 . S
C1323 C1318 1.363 . S
C1323 C1322 1.415 . S
H1324 C1321 0.999 . S
H1325 C1306 0.913 . S
H1326 C1344 0.951 . S
H1327 C1346 0.951 . S
H1328 C1348 0.950 . S
H1329 C1349 0.950 . S
H1330 C1351 0.950 . S
H1331 C1354 0.950 . S
H1332 C1355 0.950 . S
H1333 C1357 0.950 . S
H1334 C1358 0.950 . S
H1335 C1359 0.951 . S
H1336 C1361 0.951 . S
H1337 C1363 0.950 . S
H1338 C1364 0.950 . S
H1339 C1366 0.950 . S
H1340 C1369 0.950 . S
H1341 C1370 0.950 . S
H1342 C1372 0.950 . S
H1343 C1373 0.950 . S
C1344 H1326 0.951 . S
C1344 C1345 1.366 . S
C1344 C1346 1.388 . S
C1345 C1344 1.366 . S
C1345 C1349 1.385 . S
C1346 H1327 0.951 . S
C1346 C1344 1.388 . S
C1346 C1347 1.366 . S
C1347 C1346 1.366 . S
C1347 C1348 1.414 . S
C1347 C1350 1.499 . S
C1348 H1328 0.950 . S
C1348 C1347 1.414 . S
C1348 C1349 1.374 . S
C1349 H1329 0.950 . S
C1349 C1345 1.385 . S
C1349 C1348 1.374 . S
C1350 C1347 1.499 . S
C1350 C1351 1.373 . S
C1350 C1352 1.389 . S
C1351 H1330 0.950 . S
C1351 C1350 1.373 . S
C1351 C1367 1.377 . S
C1352 C1350 1.389 . S
C1352 C1353 1.524 . S
C1352 C1366 1.377 . S
C1353 C1352 1.524 . S
C1353 C1354 1.397 . S
C1353 C1358 1.363 . S
C1354 H1331 0.950 . S
C1354 C1353 1.397 . S
C1354 C1355 1.334 . S
C1355 H1332 0.950 . S
C1355 C1354 1.334 . S
C1355 C1356 1.287 . S
C1356 C1355 1.287 . S
C1356 C1357 1.524 . S
C1356 H1375 0.913 . S
C1357 H1333 0.950 . S
C1357 C1356 1.524 . S
C1357 C1358 1.415 . S
C1358 H1334 0.950 . S
C1358 C1353 1.363 . S
C1358 C1357 1.415 . S
C1359 H1335 0.951 . S
C1359 C1360 1.366 . S
C1359 C1361 1.388 . S
C1360 C1359 1.366 . S
C1360 C1364 1.385 . S
C1361 H1336 0.951 . S
C1361 C1359 1.388 . S
C1361 C1362 1.366 . S
C1362 C1361 1.366 . S
C1362 C1363 1.414 . S
C1362 C1365 1.499 . S
C1363 H1337 0.950 . S
C1363 C1362 1.414 . S
C1363 C1364 1.374 . S
C1364 H1338 0.950 . S
C1364 C1360 1.385 . S
C1364 C1363 1.374 . S
C1365 C1362 1.499 . S
C1365 C1366 1.373 . S
C1365 C1367 1.389 . S
C1366 H1339 0.950 . S
C1366 C1352 1.377 . S
C1366 C1365 1.373 . S
C1367 C1351 1.377 . S
C1367 C1365 1.389 . S
C1367 C1368 1.524 . S
C1368 C1367 1.524 . S
C1368 C1369 1.397 . S
C1368 C1373 1.363 . S
C1369 H1340 0.950 . S
C1369 C1368 1.397 . S
C1369 C1370 1.334 . S
C1370 H1341 0.950 . S
C1370 C1369 1.334 . S
C1370 C1371 1.287 . S
C1371 C1370 1.287 . S
C1371 C1372 1.524 . S
C1371 H1374 0.999 . S
C1372 H1342 0.950 . S
C1372 C1371 1.524 . S
C1372 C1373 1.415 . S
C1373 H1343 0.950 . S
C1373 C1368 1.363 . S
C1373 C1372 1.415 . S
H1374 C1371 0.999 . S
H1375 C1356 0.913 . S
H1376 C1394 0.951 . S
H1377 C1396 0.951 . S
H1378 C1398 0.950 . S
H1379 C1399 0.950 . S
H1380 C1401 0.950 . S
H1381 C1404 0.950 . S
H1382 C1405 0.950 . S
H1383 C1407 0.950 . S
H1384 C1408 0.950 . S
H1385 C1409 0.951 . S
H1386 C1411 0.951 . S
H1387 C1413 0.950 . S
H1388 C1414 0.940 1_655 S
H1389 C1416 0.950 . S
H1390 C1419 0.950 . S
H1391 C1420 0.950 . S
H1392 C1422 0.950 . S
H1393 C1423 0.950 . S
C1394 H1376 0.951 . S
C1394 C1395 1.366 . S
C1394 C1396 1.388 . S
C1395 C1394 1.366 . S
C1395 C1399 1.385 . S
C1396 H1377 0.951 . S
C1396 C1394 1.388 . S
C1396 C1397 1.366 . S
C1397 C1396 1.366 . S
C1397 C1398 1.414 . S
C1397 C1400 1.499 . S
C1398 H1378 0.950 . S
C1398 C1397 1.414 . S
C1398 C1399 1.374 . S
C1399 H1379 0.950 . S
C1399 C1395 1.385 . S
C1399 C1398 1.374 . S
C1400 C1397 1.499 . S
C1400 C1401 1.373 . S
C1400 C1402 1.389 . S
C1401 H1380 0.950 . S
C1401 C1400 1.373 . S
C1401 C1417 1.377 . S
C1402 C1400 1.389 . S
C1402 C1403 1.524 1_545 S
C1402 C1416 1.377 . S
C1403 C1402 1.524 1_565 S
C1403 C1404 1.397 . S
C1403 C1408 1.363 . S
C1404 H1381 0.950 . S
C1404 C1403 1.397 . S
C1404 C1405 1.334 . S
C1405 H1382 0.950 . S
C1405 C1404 1.334 . S
C1405 C1406 1.287 . S
C1406 C1405 1.287 . S
C1406 C1407 1.524 . S
C1406 H1425 0.913 . S
C1407 H1383 0.950 . S
C1407 C1406 1.524 . S
C1407 C1408 1.415 . S
C1408 H1384 0.950 . S
C1408 C1403 1.363 . S
C1408 C1407 1.415 . S
C1409 H1385 0.951 . S
C1409 C1410 1.366 . S
C1409 C1411 1.388 . S
C1410 C1409 1.366 . S
C1410 C1414 1.406 . S
C1411 H1386 0.951 . S
C1411 C1409 1.388 . S
C1411 C1412 1.307 1_455 S
C1412 C1411 1.307 1_655 S
C1412 C1413 1.441 . S
C1412 C1415 1.532 . S
C1413 H1387 0.950 . S
C1413 C1412 1.441 . S
C1413 C1414 1.362 1_655 S
C1414 H1388 0.940 1_455 S
C1414 C1410 1.406 . S
C1414 C1413 1.362 1_455 S
C1415 C1412 1.532 . S
C1415 C1416 1.373 . S
C1415 C1417 1.389 . S
C1416 H1389 0.950 . S
C1416 C1402 1.377 . S
C1416 C1415 1.373 . S
C1417 C1401 1.377 . S
C1417 C1415 1.389 . S
C1417 C1418 1.524 1_655 S
C1418 C1417 1.524 1_455 S
C1418 C1419 1.397 . S
C1418 C1423 1.363 . S
C1419 H1390 0.950 . S
C1419 C1418 1.397 . S
C1419 C1420 1.334 . S
C1420 H1391 0.950 . S
C1420 C1419 1.334 . S
C1420 C1421 1.287 . S
C1421 C1420 1.287 . S
C1421 C1422 1.524 . S
C1421 H1424 0.999 . S
C1422 H1392 0.950 . S
C1422 C1421 1.524 . S
C1422 C1423 1.415 . S
C1423 H1393 0.950 . S
C1423 C1418 1.363 . S
C1423 C1422 1.415 . S
H1424 C1421 0.999 . S
H1425 C1406 0.913 . S
H1426 C1444 0.951 . S
H1427 C1446 0.951 . S
H1428 C1448 0.950 . S
H1429 C1449 0.950 . S
H1430 C1451 0.950 . S
H1431 C1454 0.950 . S
H1432 C1455 0.950 . S
H1433 C1457 0.950 . S
H1434 C1458 0.950 . S
H1435 C1459 0.951 . S
H1436 C1461 0.951 . S
H1437 C1463 0.950 . S
H1438 C1464 0.950 . S
H1439 C1466 0.950 . S
H1440 C1469 0.950 . S
H1441 C1470 0.950 . S
H1442 C1472 0.950 . S
H1443 C1473 0.950 . S
C1444 H1426 0.951 . S
C1444 C1445 1.366 . S
C1444 C1446 1.388 . S
C1445 C1444 1.366 . S
C1445 C1449 1.385 . S
C1446 H1427 0.951 . S
C1446 C1444 1.388 . S
C1446 C1447 1.366 . S
C1447 C1446 1.366 . S
C1447 C1448 1.414 . S
C1447 C1450 1.499 . S
C1448 H1428 0.950 . S
C1448 C1447 1.414 . S
C1448 C1449 1.374 . S
C1449 H1429 0.950 . S
C1449 C1445 1.385 . S
C1449 C1448 1.374 . S
C1450 C1447 1.499 . S
C1450 C1451 1.373 . S
C1450 C1452 1.389 . S
C1451 H1430 0.950 . S
C1451 C1450 1.373 . S
C1451 C1467 1.377 . S
C1452 C1450 1.389 . S
C1452 C1453 1.524 . S
C1452 C1466 1.377 . S
C1453 C1452 1.524 . S
C1453 C1454 1.397 . S
C1453 C1458 1.363 . S
C1454 H1431 0.950 . S
C1454 C1453 1.397 . S
C1454 C1455 1.334 . S
C1455 H1432 0.950 . S
C1455 C1454 1.334 . S
C1455 C1456 1.287 . S
C1456 C1455 1.287 . S
C1456 C1457 1.524 . S
C1456 H1475 0.913 . S
C1457 H1433 0.950 . S
C1457 C1456 1.524 . S
C1457 C1458 1.415 . S
C1458 H1434 0.950 . S
C1458 C1453 1.363 . S
C1458 C1457 1.415 . S
C1459 H1435 0.951 . S
C1459 C1460 1.366 . S
C1459 C1461 1.388 . S
C1460 C1459 1.366 . S
C1460 C1464 1.385 . S
C1461 H1436 0.951 . S
C1461 C1459 1.388 . S
C1461 C1462 1.366 . S
C1462 C1461 1.366 . S
C1462 C1463 1.414 . S
C1462 C1465 1.499 . S
C1463 H1437 0.950 . S
C1463 C1462 1.414 . S
C1463 C1464 1.374 . S
C1464 H1438 0.950 . S
C1464 C1460 1.385 . S
C1464 C1463 1.374 . S
C1465 C1462 1.499 . S
C1465 C1466 1.373 . S
C1465 C1467 1.389 . S
C1466 H1439 0.950 . S
C1466 C1452 1.377 . S
C1466 C1465 1.373 . S
C1467 C1451 1.377 . S
C1467 C1465 1.389 . S
C1467 C1468 1.524 . S
C1468 C1467 1.524 . S
C1468 C1469 1.397 . S
C1468 C1473 1.363 . S
C1469 H1440 0.950 . S
C1469 C1468 1.397 . S
C1469 C1470 1.334 . S
C1470 H1441 0.950 . S
C1470 C1469 1.334 . S
C1470 C1471 1.287 . S
C1471 C1470 1.287 . S
C1471 C1472 1.524 . S
C1471 H1474 0.999 . S
C1472 H1442 0.950 . S
C1472 C1471 1.524 . S
C1472 C1473 1.415 . S
C1473 H1443 0.950 . S
C1473 C1468 1.363 . S
C1473 C1472 1.415 . S
H1474 C1471 0.999 . S
H1475 C1456 0.913 . S
H1476 C1494 0.951 . S
H1477 C1496 0.951 . S
H1478 C1498 0.950 . S
H1479 C1499 0.950 . S
H1480 C1501 0.950 . S
H1481 C1504 0.950 . S
H1482 C1505 0.950 . S
H1483 C1507 0.950 . S
H1484 C1508 0.950 . S
H1485 C1509 0.951 . S
H1486 C1511 0.951 . S
H1487 C1513 0.950 . S
H1488 C1514 0.950 . S
H1489 C1516 0.950 . S
H1490 C1519 0.950 . S
H1491 C1520 0.950 . S
H1492 C1522 0.950 . S
H1493 C1523 0.950 . S
C1494 H1476 0.951 . S
C1494 C1495 1.366 . S
C1494 C1496 1.388 . S
C1495 C1494 1.366 . S
C1495 C1499 1.385 . S
C1496 H1477 0.951 . S
C1496 C1494 1.388 . S
C1496 C1497 1.366 . S
C1497 C1496 1.366 . S
C1497 C1498 1.414 . S
C1497 C1500 1.499 . S
C1498 H1478 0.950 . S
C1498 C1497 1.414 . S
C1498 C1499 1.374 . S
C1499 H1479 0.950 . S
C1499 C1495 1.385 . S
C1499 C1498 1.374 . S
C1500 C1497 1.499 . S
C1500 C1501 1.373 1_545 S
C1500 C1502 1.389 . S
C1501 H1480 0.950 . S
C1501 C1500 1.373 1_565 S
C1501 C1517 1.377 . S
C1502 C1500 1.389 . S
C1502 C1503 1.524 . S
C1502 C1516 1.377 . S
C1503 C1502 1.524 . S
C1503 C1504 1.397 . S
C1503 C1508 1.363 . S
C1504 H1481 0.950 . S
C1504 C1503 1.397 . S
C1504 C1505 1.334 . S
C1505 H1482 0.950 . S
C1505 C1504 1.334 . S
C1505 C1506 1.287 . S
C1506 C1505 1.287 . S
C1506 C1507 1.524 . S
C1506 H1525 0.913 . S
C1507 H1483 0.950 . S
C1507 C1506 1.524 . S
C1507 C1508 1.415 . S
C1508 H1484 0.950 . S
C1508 C1503 1.363 . S
C1508 C1507 1.415 . S
C1509 H1485 0.951 . S
C1509 C1510 1.366 . S
C1509 C1511 1.388 . S
C1510 C1509 1.366 . S
C1510 C1514 1.385 . S
C1511 H1486 0.951 . S
C1511 C1509 1.388 . S
C1511 C1512 1.366 . S
C1512 C1511 1.366 . S
C1512 C1513 1.414 . S
C1512 C1515 1.499 . S
C1513 H1487 0.950 . S
C1513 C1512 1.414 . S
C1513 C1514 1.374 . S
C1514 H1488 0.950 . S
C1514 C1510 1.385 . S
C1514 C1513 1.374 . S
C1515 C1512 1.499 . S
C1515 C1516 1.373 . S
C1515 C1517 1.389 1_545 S
C1516 H1489 0.950 . S
C1516 C1502 1.377 . S
C1516 C1515 1.373 . S
C1517 C1501 1.377 . S
C1517 C1515 1.389 1_565 S
C1517 C1518 1.524 . S
C1518 C1517 1.524 . S
C1518 C1519 1.397 . S
C1518 C1523 1.363 . S
C1519 H1490 0.950 . S
C1519 C1518 1.397 . S
C1519 C1520 1.334 . S
C1520 H1491 0.950 . S
C1520 C1519 1.334 . S
C1520 C1521 1.287 . S
C1521 C1520 1.287 . S
C1521 C1522 1.524 . S
C1521 H1524 0.999 . S
C1522 H1492 0.950 . S
C1522 C1521 1.524 . S
C1522 C1523 1.415 . S
C1523 H1493 0.950 . S
C1523 C1518 1.363 . S
C1523 C1522 1.415 . S
H1524 C1521 0.999 . S
H1525 C1506 0.913 . S
H1526 C1544 0.951 . S
H1527 C1546 0.951 . S
H1528 C1548 0.950 . S
H1529 C1549 0.950 . S
H1530 C1551 0.950 . S
H1531 C1554 0.950 . S
H1532 C1555 0.950 . S
H1533 C1557 0.950 . S
H1534 C1558 0.950 . S
H1535 C1559 0.951 . S
H1536 C1561 0.951 . S
H1537 C1563 0.950 . S
H1538 C1564 0.950 . S
H1539 C1566 0.950 . S
H1540 C1569 0.950 . S
H1541 C1570 0.950 . S
H1542 C1572 0.950 . S
H1543 C1573 0.950 . S
C1544 H1526 0.951 . S
C1544 C1545 1.366 . S
C1544 C1546 1.388 . S
C1545 C1544 1.366 . S
C1545 C1549 1.385 . S
C1546 H1527 0.951 . S
C1546 C1544 1.388 . S
C1546 C1547 1.366 . S
C1547 C1546 1.366 . S
C1547 C1548 1.414 . S
C1547 C1550 1.499 . S
C1548 H1528 0.950 . S
C1548 C1547 1.414 . S
C1548 C1549 1.374 . S
C1549 H1529 0.950 . S
C1549 C1545 1.385 . S
C1549 C1548 1.374 . S
C1550 C1547 1.499 . S
C1550 C1551 1.373 . S
C1550 C1552 1.389 . S
C1551 H1530 0.950 . S
C1551 C1550 1.373 . S
C1551 C1567 1.377 . S
C1552 C1550 1.389 . S
C1552 C1553 1.524 . S
C1552 C1566 1.377 . S
C1553 C1552 1.524 . S
C1553 C1554 1.397 . S
C1553 C1558 1.363 . S
C1554 H1531 0.950 . S
C1554 C1553 1.397 . S
C1554 C1555 1.334 . S
C1555 H1532 0.950 . S
C1555 C1554 1.334 . S
C1555 C1556 1.287 . S
C1556 C1555 1.287 . S
C1556 C1557 1.524 . S
C1556 H1575 0.913 . S
C1557 H1533 0.950 . S
C1557 C1556 1.524 . S
C1557 C1558 1.415 . S
C1558 H1534 0.950 . S
C1558 C1553 1.363 . S
C1558 C1557 1.415 . S
C1559 H1535 0.951 . S
C1559 C1560 1.366 . S
C1559 C1561 1.388 . S
C1560 C1559 1.366 . S
C1560 C1564 1.385 . S
C1561 H1536 0.951 . S
C1561 C1559 1.388 . S
C1561 C1562 1.366 . S
C1562 C1561 1.366 . S
C1562 C1563 1.414 . S
C1562 C1565 1.499 . S
C1563 H1537 0.950 . S
C1563 C1562 1.414 . S
C1563 C1564 1.374 . S
C1564 H1538 0.950 . S
C1564 C1560 1.385 . S
C1564 C1563 1.374 . S
C1565 C1562 1.499 . S
C1565 C1566 1.373 . S
C1565 C1567 1.389 . S
C1566 H1539 0.950 . S
C1566 C1552 1.377 . S
C1566 C1565 1.373 . S
C1567 C1551 1.377 . S
C1567 C1565 1.389 . S
C1567 C1568 1.524 . S
C1568 C1567 1.524 . S
C1568 C1569 1.397 . S
C1568 C1573 1.363 . S
C1569 H1540 0.950 . S
C1569 C1568 1.397 . S
C1569 C1570 1.334 . S
C1570 H1541 0.950 . S
C1570 C1569 1.334 . S
C1570 C1571 1.287 . S
C1571 C1570 1.287 . S
C1571 C1572 1.524 . S
C1571 H1574 0.999 . S
C1572 H1542 0.950 . S
C1572 C1571 1.524 . S
C1572 C1573 1.415 . S
C1573 H1543 0.950 . S
C1573 C1568 1.363 . S
C1573 C1572 1.415 . S
H1574 C1571 0.999 . S
H1575 C1556 0.913 . S
H1576 C1594 0.951 . S
H1577 C1596 0.951 . S
H1578 C1598 0.950 . S
H1579 C1599 0.950 . S
H1580 C1601 0.950 . S
H1581 C1604 0.950 . S
H1582 C1605 0.950 . S
H1583 C1607 0.950 . S
H1584 C1608 0.950 . S
H1585 C1609 0.951 . S
H1586 C1611 0.951 1_455 S
H1587 C1613 0.950 . S
H1588 C1614 0.950 . S
H1589 C1616 0.950 . S
H1590 C1619 0.950 . S
H1591 C1620 0.950 . S
H1592 C1622 0.950 1_455 S
H1593 C1623 0.950 . S
C1594 H1576 0.951 . S
C1594 C1595 1.366 . S
C1594 C1596 1.388 . S
C1595 C1594 1.366 . S
C1595 C1599 1.385 . S
C1596 H1577 0.951 . S
C1596 C1594 1.388 . S
C1596 C1597 1.366 . S
C1597 C1596 1.366 . S
C1597 C1598 1.414 . S
C1597 C1600 1.499 . S
C1598 H1578 0.950 . S
C1598 C1597 1.414 . S
C1598 C1599 1.374 . S
C1599 H1579 0.950 . S
C1599 C1595 1.385 . S
C1599 C1598 1.374 . S
C1600 C1597 1.499 . S
C1600 C1601 1.373 1_545 S
C1600 C1602 1.389 . S
C1601 H1580 0.950 . S
C1601 C1600 1.373 1_565 S
C1601 C1617 1.377 . S
C1602 C1600 1.389 . S
C1602 C1603 1.524 . S
C1602 C1616 1.377 . S
C1603 C1602 1.524 . S
C1603 C1604 1.397 . S
C1603 C1608 1.363 . S
C1604 H1581 0.950 . S
C1604 C1603 1.397 . S
C1604 C1605 1.334 . S
C1605 H1582 0.950 . S
C1605 C1604 1.334 . S
C1605 C1606 1.287 . S
C1606 C1605 1.287 . S
C1606 C1607 1.524 . S
C1606 H1625 0.913 . S
C1607 H1583 0.950 . S
C1607 C1606 1.524 . S
C1607 C1608 1.415 . S
C1608 H1584 0.950 . S
C1608 C1603 1.363 . S
C1608 C1607 1.415 . S
C1609 H1585 0.951 . S
C1609 C1610 1.366 1_455 S
C1609 C1611 1.388 1_455 S
C1610 C1609 1.366 1_655 S
C1610 C1614 1.385 . S
C1611 H1586 0.951 1_655 S
C1611 C1609 1.388 1_655 S
C1611 C1612 1.366 . S
C1612 C1611 1.366 . S
C1612 C1613 1.414 . S
C1612 C1615 1.499 . S
C1613 H1587 0.950 . S
C1613 C1612 1.414 . S
C1613 C1614 1.374 . S
C1614 H1588 0.950 . S
C1614 C1610 1.385 . S
C1614 C1613 1.374 . S
C1615 C1612 1.499 . S
C1615 C1616 1.373 . S
C1615 C1617 1.389 1_545 S
C1616 H1589 0.950 . S
C1616 C1602 1.377 . S
C1616 C1615 1.373 . S
C1617 C1601 1.377 . S
C1617 C1615 1.389 1_565 S
C1617 C1618 1.524 . S
C1618 C1617 1.524 . S
C1618 C1619 1.397 . S
C1618 C1623 1.363 . S
C1619 H1590 0.950 . S
C1619 C1618 1.397 . S
C1619 C1620 1.334 . S
C1620 H1591 0.950 . S
C1620 C1619 1.334 . S
C1620 C1621 1.287 . S
C1621 C1620 1.287 . S
C1621 C1622 1.524 . S
C1621 H1624 0.999 . S
C1622 H1592 0.950 1_655 S
C1622 C1621 1.524 . S
C1622 C1623 1.415 . S
C1623 H1593 0.950 . S
C1623 C1618 1.363 . S
C1623 C1622 1.415 . S
H1624 C1621 0.999 . S
H1625 C1606 0.913 . S
H1626 C1644 0.951 . S
H1627 C1646 0.951 . S
H1628 C1648 0.950 . S
H1629 C1649 0.950 . S
H1630 C1651 0.950 . S
H1631 C1654 0.950 . S
H1632 C1655 0.950 . S
H1633 C1657 0.950 . S
H1634 C1658 0.950 . S
H1635 C1659 0.951 . S
H1636 C1661 0.951 . S
H1637 C1663 0.950 . S
H1638 C1664 0.950 . S
H1639 C1666 0.950 . S
H1640 C1669 0.950 . S
H1641 C1670 0.950 . S
H1642 C1672 0.950 . S
H1643 C1673 0.950 . S
C1644 H1626 0.951 . S
C1644 C1645 1.366 . S
C1644 C1646 1.388 . S
C1645 C1644 1.366 . S
C1645 C1649 1.385 . S
C1646 H1627 0.951 . S
C1646 C1644 1.388 . S
C1646 C1647 1.366 . S
C1647 C1646 1.366 . S
C1647 C1648 1.414 . S
C1647 C1650 1.499 . S
C1648 H1628 0.950 . S
C1648 C1647 1.414 . S
C1648 C1649 1.374 . S
C1649 H1629 0.950 . S
C1649 C1645 1.385 . S
C1649 C1648 1.374 . S
C1650 C1647 1.499 . S
C1650 C1651 1.373 . S
C1650 C1652 1.389 . S
C1651 H1630 0.950 . S
C1651 C1650 1.373 . S
C1651 C1667 1.377 . S
C1652 C1650 1.389 . S
C1652 C1653 1.524 . S
C1652 C1666 1.377 . S
C1653 C1652 1.524 . S
C1653 C1654 1.397 . S
C1653 C1658 1.363 . S
C1654 H1631 0.950 . S
C1654 C1653 1.397 . S
C1654 C1655 1.334 . S
C1655 H1632 0.950 . S
C1655 C1654 1.334 . S
C1655 C1656 1.287 . S
C1656 C1655 1.287 . S
C1656 C1657 1.524 . S
C1656 H1675 0.913 . S
C1657 H1633 0.950 . S
C1657 C1656 1.524 . S
C1657 C1658 1.415 . S
C1658 H1634 0.950 . S
C1658 C1653 1.363 . S
C1658 C1657 1.415 . S
C1659 H1635 0.951 . S
C1659 C1660 1.366 . S
C1659 C1661 1.388 . S
C1660 C1659 1.366 . S
C1660 C1664 1.385 . S
C1661 H1636 0.951 . S
C1661 C1659 1.388 . S
C1661 C1662 1.366 . S
C1662 C1661 1.366 . S
C1662 C1663 1.414 . S
C1662 C1665 1.499 . S
C1663 H1637 0.950 . S
C1663 C1662 1.414 . S
C1663 C1664 1.374 . S
C1664 H1638 0.950 . S
C1664 C1660 1.385 . S
C1664 C1663 1.374 . S
C1665 C1662 1.499 . S
C1665 C1666 1.373 . S
C1665 C1667 1.389 . S
C1666 H1639 0.950 . S
C1666 C1652 1.377 . S
C1666 C1665 1.373 . S
C1667 C1651 1.377 . S
C1667 C1665 1.389 . S
C1667 C1668 1.524 . S
C1668 C1667 1.524 . S
C1668 C1669 1.397 . S
C1668 C1673 1.363 . S
C1669 H1640 0.950 . S
C1669 C1668 1.397 . S
C1669 C1670 1.334 . S
C1670 H1641 0.950 . S
C1670 C1669 1.334 . S
C1670 C1671 1.287 . S
C1671 C1670 1.287 . S
C1671 C1672 1.524 . S
C1671 H1674 0.999 . S
C1672 H1642 0.950 . S
C1672 C1671 1.524 . S
C1672 C1673 1.415 . S
C1673 H1643 0.950 . S
C1673 C1668 1.363 . S
C1673 C1672 1.415 . S
H1674 C1671 0.999 . S
H1675 C1656 0.913 . S
H1676 C1694 0.957 . S
H1677 C1696 0.946 1_565 S
H1678 C1698 0.950 . S
H1679 C1699 0.950 . S
H1680 C1701 0.950 . S
H1681 C1704 0.950 . S
H1682 C1705 0.966 . S
H1683 C1707 0.950 . S
H1684 C1708 0.950 . S
H1685 C1709 0.951 . S
H1686 C1711 0.951 . S
H1687 C1713 0.950 1_565 S
H1688 C1714 0.950 1_565 S
H1689 C1716 0.948 1_565 S
H1690 C1719 0.950 . S
H1691 C1720 0.950 . S
H1692 C1722 0.950 . S
H1693 C1723 0.950 . S
C1694 H1676 0.957 . S
C1694 C1695 1.360 1_565 S
C1694 C1696 1.387 1_565 S
C1695 C1694 1.360 1_545 S
C1695 C1699 1.385 . S
C1696 H1677 0.946 1_545 S
C1696 C1694 1.387 1_545 S
C1696 C1697 1.371 . S
C1697 C1696 1.371 . S
C1697 C1698 1.414 . S
C1697 C1700 1.499 . S
C1698 H1678 0.950 . S
C1698 C1697 1.414 . S
C1698 C1699 1.374 . S
C1699 H1679 0.950 . S
C1699 C1695 1.385 . S
C1699 C1698 1.374 . S
C1700 C1697 1.499 . S
C1700 C1701 1.373 . S
C1700 C1702 1.389 . S
C1701 H1680 0.950 . S
C1701 C1700 1.373 . S
C1701 C1717 1.377 . S
C1702 C1700 1.389 . S
C1702 C1703 1.524 1_545 S
C1702 C1716 1.377 . S
C1703 C1702 1.524 1_565 S
C1703 C1704 1.397 1_565 S
C1703 C1708 1.363 . S
C1704 H1681 0.950 . S
C1704 C1703 1.397 1_545 S
C1704 C1705 1.337 . S
C1705 H1682 0.966 . S
C1705 C1704 1.337 . S
C1705 C1706 1.268 1_545 S
C1706 C1705 1.268 1_565 S
C1706 C1707 1.524 . S
C1706 H1725 0.913 . S
C1707 H1683 0.950 . S
C1707 C1706 1.524 . S
C1707 C1708 1.415 . S
C1708 H1684 0.950 . S
C1708 C1703 1.363 . S
C1708 C1707 1.415 . S
C1709 H1685 0.951 . S
C1709 C1710 1.366 . S
C1709 C1711 1.388 . S
C1710 C1709 1.366 . S
C1710 C1714 1.385 . S
C1711 H1686 0.951 . S
C1711 C1709 1.388 . S
C1711 C1712 1.366 . S
C1712 C1711 1.366 . S
C1712 C1713 1.414 . S
C1712 C1715 1.499 . S
C1713 H1687 0.950 1_545 S
C1713 C1712 1.414 . S
C1713 C1714 1.374 . S
C1714 H1688 0.950 1_545 S
C1714 C1710 1.385 . S
C1714 C1713 1.374 . S
C1715 C1712 1.499 . S
C1715 C1716 1.373 . S
C1715 C1717 1.389 . S
C1716 H1689 0.948 1_545 S
C1716 C1702 1.377 . S
C1716 C1715 1.373 . S
C1717 C1701 1.377 . S
C1717 C1715 1.389 . S
C1717 C1718 1.524 . S
C1718 C1717 1.524 . S
C1718 C1719 1.397 . S
C1718 C1723 1.363 . S
C1719 H1690 0.950 . S
C1719 C1718 1.397 . S
C1719 C1720 1.334 . S
C1720 H1691 0.950 . S
C1720 C1719 1.334 . S
C1720 C1721 1.287 . S
C1721 C1720 1.287 . S
C1721 C1722 1.524 . S
C1721 H1724 0.999 . S
C1722 H1692 0.950 . S
C1722 C1721 1.524 . S
C1722 C1723 1.415 . S
C1723 H1693 0.950 . S
C1723 C1718 1.363 . S
C1723 C1722 1.415 . S
H1724 C1721 0.999 . S
H1725 C1706 0.913 . S
H1726 C1744 0.951 . S
H1727 C1746 0.951 . S
H1728 C1748 0.950 . S
H1729 C1749 0.950 . S
H1730 C1751 0.950 . S
H1731 C1754 0.950 . S
H1732 C1755 0.950 . S
H1733 C1757 0.950 . S
H1734 C1758 0.950 . S
H1735 C1759 0.951 . S
H1736 C1761 0.951 . S
H1737 C1763 0.950 . S
H1738 C1764 0.950 . S
H1739 C1766 0.950 . S
H1740 C1769 0.950 . S
H1741 C1770 0.950 . S
H1742 C1772 0.950 . S
H1743 C1773 0.950 . S
C1744 H1726 0.951 . S
C1744 C1745 1.366 . S
C1744 C1746 1.388 . S
C1745 C1744 1.366 . S
C1745 C1749 1.385 . S
C1746 H1727 0.951 . S
C1746 C1744 1.388 . S
C1746 C1747 1.366 . S
C1747 C1746 1.366 . S
C1747 C1748 1.414 . S
C1747 C1750 1.499 . S
C1748 H1728 0.950 . S
C1748 C1747 1.414 . S
C1748 C1749 1.374 . S
C1749 H1729 0.950 . S
C1749 C1745 1.385 . S
C1749 C1748 1.374 . S
C1750 C1747 1.499 . S
C1750 C1751 1.373 . S
C1750 C1752 1.389 . S
C1751 H1730 0.950 . S
C1751 C1750 1.373 . S
C1751 C1767 1.377 . S
C1752 C1750 1.389 . S
C1752 C1753 1.524 . S
C1752 C1766 1.377 . S
C1753 C1752 1.524 . S
C1753 C1754 1.397 . S
C1753 C1758 1.363 . S
C1754 H1731 0.950 . S
C1754 C1753 1.397 . S
C1754 C1755 1.334 . S
C1755 H1732 0.950 . S
C1755 C1754 1.334 . S
C1755 C1756 1.287 . S
C1756 C1755 1.287 . S
C1756 C1757 1.524 . S
C1756 H1775 0.913 . S
C1757 H1733 0.950 . S
C1757 C1756 1.524 . S
C1757 C1758 1.415 . S
C1758 H1734 0.950 . S
C1758 C1753 1.363 . S
C1758 C1757 1.415 . S
C1759 H1735 0.951 . S
C1759 C1760 1.366 . S
C1759 C1761 1.388 . S
C1760 C1759 1.366 . S
C1760 C1764 1.385 . S
C1761 H1736 0.951 . S
C1761 C1759 1.388 . S
C1761 C1762 1.366 . S
C1762 C1761 1.366 . S
C1762 C1763 1.414 . S
C1762 C1765 1.499 . S
C1763 H1737 0.950 . S
C1763 C1762 1.414 . S
C1763 C1764 1.374 . S
C1764 H1738 0.950 . S
C1764 C1760 1.385 . S
C1764 C1763 1.374 . S
C1765 C1762 1.499 . S
C1765 C1766 1.373 . S
C1765 C1767 1.389 . S
C1766 H1739 0.950 . S
C1766 C1752 1.377 . S
C1766 C1765 1.373 . S
C1767 C1751 1.377 . S
C1767 C1765 1.389 . S
C1767 C1768 1.524 . S
C1768 C1767 1.524 . S
C1768 C1769 1.397 . S
C1768 C1773 1.363 . S
C1769 H1740 0.950 . S
C1769 C1768 1.397 . S
C1769 C1770 1.334 . S
C1770 H1741 0.950 . S
C1770 C1769 1.334 . S
C1770 C1771 1.287 . S
C1771 C1770 1.287 . S
C1771 C1772 1.524 . S
C1771 H1774 0.999 . S
C1772 H1742 0.950 . S
C1772 C1771 1.524 . S
C1772 C1773 1.415 . S
C1773 H1743 0.950 . S
C1773 C1768 1.363 . S
C1773 C1772 1.415 . S
H1774 C1771 0.999 . S
H1775 C1756 0.913 . S
H1776 C1794 0.951 . S
H1777 C1796 0.951 . S
H1778 C1798 0.950 . S
H1779 C1799 0.950 . S
H1780 C1801 0.950 . S
H1781 C1804 0.950 . S
H1782 C1805 0.950 . S
H1783 C1807 0.950 . S
H1784 C1808 0.950 . S
H1785 C1809 0.951 . S
H1786 C1811 0.951 . S
H1787 C1813 0.950 . S
H1788 C1814 0.950 . S
H1789 C1816 0.974 . S
H1790 C1819 0.950 . S
H1791 C1820 0.950 . S
H1792 C1822 0.947 1_545 S
H1793 C1823 0.950 1_545 S
C1794 H1776 0.951 . S
C1794 C1795 1.373 . S
C1794 C1796 1.388 . S
C1795 C1794 1.373 . S
C1795 C1799 1.369 1_556 S
C1796 H1777 0.951 . S
C1796 C1794 1.388 . S
C1796 C1797 1.366 1_556 S
C1797 C1796 1.366 1_554 S
C1797 C1798 1.414 . S
C1797 C1800 1.499 . S
C1798 H1778 0.950 . S
C1798 C1797 1.414 . S
C1798 C1799 1.374 . S
C1799 H1779 0.950 . S
C1799 C1795 1.369 1_554 S
C1799 C1798 1.374 . S
C1800 C1797 1.499 . S
C1800 C1801 1.373 . S
C1800 C1802 1.389 . S
C1801 H1780 0.950 . S
C1801 C1800 1.373 . S
C1801 C1817 1.377 . S
C1802 C1800 1.389 . S
C1802 C1803 1.524 1_554 S
C1802 C1816 1.377 . S
C1803 C1802 1.524 1_556 S
C1803 C1804 1.397 . S
C1803 C1808 1.363 . S
C1804 H1781 0.950 . S
C1804 C1803 1.397 . S
C1804 C1805 1.334 . S
C1805 H1782 0.950 . S
C1805 C1804 1.334 . S
C1805 C1806 1.287 . S
C1806 C1805 1.287 . S
C1806 C1807 1.524 . S
C1806 H1825 0.913 . S
C1807 H1783 0.950 . S
C1807 C1806 1.524 . S
C1807 C1808 1.415 . S
C1808 H1784 0.950 . S
C1808 C1803 1.363 . S
C1808 C1807 1.415 . S
C1809 H1785 0.951 . S
C1809 C1810 1.366 . S
C1809 C1811 1.388 . S
C1810 C1809 1.366 . S
C1810 C1814 1.385 1_545 S
C1811 H1786 0.951 . S
C1811 C1809 1.388 . S
C1811 C1812 1.366 1_545 S
C1812 C1811 1.366 1_565 S
C1812 C1813 1.414 . S
C1812 C1815 1.499 . S
C1813 H1787 0.950 . S
C1813 C1812 1.414 . S
C1813 C1814 1.374 . S
C1814 H1788 0.950 . S
C1814 C1810 1.385 1_565 S
C1814 C1813 1.374 . S
C1815 C1812 1.499 . S
C1815 C1816 1.373 . S
C1815 C1817 1.389 . S
C1816 H1789 0.974 . S
C1816 C1802 1.377 . S
C1816 C1815 1.373 . S
C1817 C1801 1.377 . S
C1817 C1815 1.389 . S
C1817 C1818 1.524 . S
C1818 C1817 1.524 . S
C1818 C1819 1.397 . S
C1818 C1823 1.363 . S
C1819 H1790 0.950 . S
C1819 C1818 1.397 . S
C1819 C1820 1.334 . S
C1820 H1791 0.950 . S
C1820 C1819 1.334 . S
C1820 C1821 1.287 . S
C1821 C1820 1.287 . S
C1821 C1822 1.527 . S
C1821 H1824 0.999 . S
C1822 H1792 0.947 1_565 S
C1822 C1821 1.527 . S
C1822 C1823 1.415 . S
C1823 H1793 0.950 1_565 S
C1823 C1818 1.363 . S
C1823 C1822 1.415 . S
H1824 C1821 0.999 . S
H1825 C1806 0.913 . S
H1826 C1844 0.951 . S
H1827 C1846 0.951 . S
H1828 C1848 0.950 . S
H1829 C1849 0.950 . S
H1830 C1851 0.950 1_556 S
H1831 C1854 0.950 . S
H1832 C1855 0.950 . S
H1833 C1857 0.950 . S
H1834 C1858 0.950 . S
H1835 C1859 0.951 . S
H1836 C1861 0.951 . S
H1837 C1863 0.950 . S
H1838 C1864 0.950 . S
H1839 C1866 0.950 . S
H1840 C1869 0.950 . S
H1841 C1870 0.950 . S
H1842 C1872 0.950 . S
H1843 C1873 0.950 . S
C1844 H1826 0.951 . S
C1844 C1845 1.366 . S
C1844 C1846 1.388 . S
C1845 C1844 1.366 . S
C1845 C1849 1.385 . S
C1846 H1827 0.951 . S
C1846 C1844 1.388 . S
C1846 C1847 1.366 . S
C1847 C1846 1.366 . S
C1847 C1848 1.414 . S
C1847 C1850 1.499 . S
C1848 H1828 0.950 . S
C1848 C1847 1.414 . S
C1848 C1849 1.374 . S
C1849 H1829 0.950 . S
C1849 C1845 1.385 . S
C1849 C1848 1.374 . S
C1850 C1847 1.499 . S
C1850 C1851 1.373 . S
C1850 C1852 1.389 . S
C1851 H1830 0.950 1_554 S
C1851 C1850 1.373 . S
C1851 C1867 1.377 . S
C1852 C1850 1.389 . S
C1852 C1853 1.524 . S
C1852 C1866 1.377 . S
C1853 C1852 1.524 . S
C1853 C1854 1.397 . S
C1853 C1858 1.363 . S
C1854 H1831 0.950 . S
C1854 C1853 1.397 . S
C1854 C1855 1.334 . S
C1855 H1832 0.950 . S
C1855 C1854 1.334 . S
C1855 C1856 1.287 . S
C1856 C1855 1.287 . S
C1856 C1857 1.524 . S
C1856 H1875 0.913 . S
C1857 H1833 0.950 . S
C1857 C1856 1.524 . S
C1857 C1858 1.415 . S
C1858 H1834 0.950 . S
C1858 C1853 1.363 . S
C1858 C1857 1.415 . S
C1859 H1835 0.951 . S
C1859 C1860 1.366 . S
C1859 C1861 1.388 . S
C1860 C1859 1.366 . S
C1860 C1864 1.385 . S
C1861 H1836 0.951 . S
C1861 C1859 1.388 . S
C1861 C1862 1.366 . S
C1862 C1861 1.366 . S
C1862 C1863 1.414 . S
C1862 C1865 1.499 . S
C1863 H1837 0.950 . S
C1863 C1862 1.414 . S
C1863 C1864 1.374 . S
C1864 H1838 0.950 . S
C1864 C1860 1.385 . S
C1864 C1863 1.374 . S
C1865 C1862 1.499 . S
C1865 C1866 1.373 . S
C1865 C1867 1.389 . S
C1866 H1839 0.950 . S
C1866 C1852 1.377 . S
C1866 C1865 1.373 . S
C1867 C1851 1.377 . S
C1867 C1865 1.389 . S
C1867 C1868 1.524 1_554 S
C1868 C1867 1.524 1_556 S
C1868 C1869 1.397 . S
C1868 C1873 1.363 . S
C1869 H1840 0.950 . S
C1869 C1868 1.397 . S
C1869 C1870 1.334 . S
C1870 H1841 0.950 . S
C1870 C1869 1.334 . S
C1870 C1871 1.287 . S
C1871 C1870 1.287 . S
C1871 C1872 1.524 . S
C1871 H1874 0.999 . S
C1872 H1842 0.950 . S
C1872 C1871 1.524 . S
C1872 C1873 1.415 . S
C1873 H1843 0.950 . S
C1873 C1868 1.363 . S
C1873 C1872 1.415 . S
H1874 C1871 0.999 . S
H1875 C1856 0.913 . S
H1876 C1894 0.951 . S
H1877 C1896 0.951 . S
H1878 C1898 0.950 . S
H1879 C1899 0.950 . S
H1880 C1901 0.950 . S
H1881 C1904 0.950 . S
H1882 C1905 0.950 . S
H1883 C1907 0.950 . S
H1884 C1908 0.950 . S
H1885 C1909 0.951 . S
H1886 C1911 0.951 . S
H1887 C1913 0.950 . S
H1888 C1914 0.950 . S
H1889 C1916 0.950 . S
H1890 C1919 0.950 . S
H1891 C1920 0.950 . S
H1892 C1922 0.950 . S
H1893 C1923 0.950 . S
C1894 H1876 0.951 . S
C1894 C1895 1.366 . S
C1894 C1896 1.388 . S
C1895 C1894 1.366 . S
C1895 C1899 1.385 . S
C1896 H1877 0.951 . S
C1896 C1894 1.388 . S
C1896 C1897 1.366 . S
C1897 C1896 1.366 . S
C1897 C1898 1.414 . S
C1897 C1900 1.499 . S
C1898 H1878 0.950 . S
C1898 C1897 1.414 . S
C1898 C1899 1.374 . S
C1899 H1879 0.950 . S
C1899 C1895 1.385 . S
C1899 C1898 1.374 . S
C1900 C1897 1.499 . S
C1900 C1901 1.373 . S
C1900 C1902 1.389 . S
C1901 H1880 0.950 . S
C1901 C1900 1.373 . S
C1901 C1917 1.377 . S
C1902 C1900 1.389 . S
C1902 C1903 1.524 . S
C1902 C1916 1.377 . S
C1903 C1902 1.524 . S
C1903 C1904 1.397 . S
C1903 C1908 1.363 . S
C1904 H1881 0.950 . S
C1904 C1903 1.397 . S
C1904 C1905 1.334 . S
C1905 H1882 0.950 . S
C1905 C1904 1.334 . S
C1905 C1906 1.287 . S
C1906 C1905 1.287 . S
C1906 C1907 1.524 . S
C1906 H1925 0.913 . S
C1907 H1883 0.950 . S
C1907 C1906 1.524 . S
C1907 C1908 1.415 . S
C1908 H1884 0.950 . S
C1908 C1903 1.363 . S
C1908 C1907 1.415 . S
C1909 H1885 0.951 . S
C1909 C1910 1.366 . S
C1909 C1911 1.388 . S
C1910 C1909 1.366 . S
C1910 C1914 1.385 . S
C1911 H1886 0.951 . S
C1911 C1909 1.388 . S
C1911 C1912 1.366 . S
C1912 C1911 1.366 . S
C1912 C1913 1.414 . S
C1912 C1915 1.499 . S
C1913 H1887 0.950 . S
C1913 C1912 1.414 . S
C1913 C1914 1.374 . S
C1914 H1888 0.950 . S
C1914 C1910 1.385 . S
C1914 C1913 1.374 . S
C1915 C1912 1.499 . S
C1915 C1916 1.373 . S
C1915 C1917 1.389 . S
C1916 H1889 0.950 . S
C1916 C1902 1.377 . S
C1916 C1915 1.373 . S
C1917 C1901 1.377 . S
C1917 C1915 1.389 . S
C1917 C1918 1.524 . S
C1918 C1917 1.524 . S
C1918 C1919 1.397 . S
C1918 C1923 1.363 . S
C1919 H1890 0.950 . S
C1919 C1918 1.397 . S
C1919 C1920 1.334 . S
C1920 H1891 0.950 . S
C1920 C1919 1.334 . S
C1920 C1921 1.287 . S
C1921 C1920 1.287 . S
C1921 C1922 1.524 . S
C1921 H1924 0.999 . S
C1922 H1892 0.950 . S
C1922 C1921 1.524 . S
C1922 C1923 1.415 . S
C1923 H1893 0.950 . S
C1923 C1918 1.363 . S
C1923 C1922 1.415 . S
H1924 C1921 0.999 . S
H1925 C1906 0.913 . S
H1926 C1944 0.951 . S
H1927 C1946 0.951 . S
H1928 C1948 0.950 . S
H1929 C1949 0.950 . S
H1930 C1951 0.950 . S
H1931 C1954 0.950 . S
H1932 C1955 0.950 . S
H1933 C1957 0.950 . S
H1934 C1958 0.950 . S
H1935 C1959 0.951 . S
H1936 C1961 0.951 . S
H1937 C1963 0.950 . S
H1938 C1964 0.950 . S
H1939 C1966 0.950 . S
H1940 C1969 0.950 . S
H1941 C1970 0.950 . S
H1942 C1972 0.950 . S
H1943 C1973 0.950 . S
C1944 H1926 0.951 . S
C1944 C1945 1.366 . S
C1944 C1946 1.388 . S
C1945 C1944 1.366 . S
C1945 C1949 1.385 . S
C1946 H1927 0.951 . S
C1946 C1944 1.388 . S
C1946 C1947 1.366 . S
C1947 C1946 1.366 . S
C1947 C1948 1.414 . S
C1947 C1950 1.499 . S
C1948 H1928 0.950 . S
C1948 C1947 1.414 . S
C1948 C1949 1.374 . S
C1949 H1929 0.950 . S
C1949 C1945 1.385 . S
C1949 C1948 1.374 . S
C1950 C1947 1.499 . S
C1950 C1951 1.373 . S
C1950 C1952 1.389 . S
C1951 H1930 0.950 . S
C1951 C1950 1.373 . S
C1951 C1967 1.377 . S
C1952 C1950 1.389 . S
C1952 C1953 1.524 . S
C1952 C1966 1.377 . S
C1953 C1952 1.524 . S
C1953 C1954 1.397 . S
C1953 C1958 1.363 . S
C1954 H1931 0.950 . S
C1954 C1953 1.397 . S
C1954 C1955 1.334 . S
C1955 H1932 0.950 . S
C1955 C1954 1.334 . S
C1955 C1956 1.287 . S
C1956 C1955 1.287 . S
C1956 C1957 1.524 . S
C1956 H1975 0.913 . S
C1957 H1933 0.950 . S
C1957 C1956 1.524 . S
C1957 C1958 1.415 . S
C1958 H1934 0.950 . S
C1958 C1953 1.363 . S
C1958 C1957 1.415 . S
C1959 H1935 0.951 . S
C1959 C1960 1.366 . S
C1959 C1961 1.388 . S
C1960 C1959 1.366 . S
C1960 C1964 1.385 . S
C1961 H1936 0.951 . S
C1961 C1959 1.388 . S
C1961 C1962 1.366 . S
C1962 C1961 1.366 . S
C1962 C1963 1.414 . S
C1962 C1965 1.499 . S
C1963 H1937 0.950 . S
C1963 C1962 1.414 . S
C1963 C1964 1.374 . S
C1964 H1938 0.950 . S
C1964 C1960 1.385 . S
C1964 C1963 1.374 . S
C1965 C1962 1.499 . S
C1965 C1966 1.373 . S
C1965 C1967 1.389 . S
C1966 H1939 0.950 . S
C1966 C1952 1.377 . S
C1966 C1965 1.373 . S
C1967 C1951 1.377 . S
C1967 C1965 1.389 . S
C1967 C1968 1.524 . S
C1968 C1967 1.524 . S
C1968 C1969 1.397 . S
C1968 C1973 1.363 . S
C1969 H1940 0.950 . S
C1969 C1968 1.397 . S
C1969 C1970 1.334 . S
C1970 H1941 0.950 . S
C1970 C1969 1.334 . S
C1970 C1971 1.287 . S
C1971 C1970 1.287 . S
C1971 C1972 1.524 . S
C1971 H1974 0.999 . S
C1972 H1942 0.950 . S
C1972 C1971 1.524 . S
C1972 C1973 1.415 . S
C1973 H1943 0.950 . S
C1973 C1968 1.363 . S
C1973 C1972 1.415 . S
H1974 C1971 0.999 . S
H1975 C1956 0.913 . S
H1976 C1994 0.951 . S
H1977 C1996 0.951 . S
H1978 C1998 0.950 . S
H1979 C1999 0.950 . S
H1980 C2001 0.950 . S
H1981 C2004 0.950 . S
H1982 C2005 0.950 . S
H1983 C2007 0.950 . S
H1984 C2008 0.950 . S
H1985 C2009 0.951 . S
H1986 C2011 0.951 . S
H1987 C2013 0.950 . S
H1988 C2014 0.950 . S
H1989 C2016 0.950 . S
H1990 C2019 0.950 . S
H1991 C2020 0.950 . S
H1992 C2022 0.950 . S
H1993 C2023 0.950 . S
C1994 H1976 0.951 . S
C1994 C1995 1.366 . S
C1994 C1996 1.388 . S
C1995 C1994 1.366 . S
C1995 C1999 1.385 . S
C1996 H1977 0.951 . S
C1996 C1994 1.388 . S
C1996 C1997 1.366 . S
C1997 C1996 1.366 . S
C1997 C1998 1.414 . S
C1997 C2000 1.499 . S
C1998 H1978 0.950 . S
C1998 C1997 1.414 . S
C1998 C1999 1.374 . S
C1999 H1979 0.950 . S
C1999 C1995 1.385 . S
C1999 C1998 1.374 . S
C2000 C1997 1.499 . S
C2000 C2001 1.373 . S
C2000 C2002 1.389 . S
C2001 H1980 0.950 . S
C2001 C2000 1.373 . S
C2001 C2017 1.377 . S
C2002 C2000 1.389 . S
C2002 C2003 1.524 . S
C2002 C2016 1.377 . S
C2003 C2002 1.524 . S
C2003 C2004 1.397 . S
C2003 C2008 1.363 . S
C2004 H1981 0.950 . S
C2004 C2003 1.397 . S
C2004 C2005 1.334 . S
C2005 H1982 0.950 . S
C2005 C2004 1.334 . S
C2005 C2006 1.287 . S
C2006 C2005 1.287 . S
C2006 C2007 1.524 . S
C2006 H2025 0.913 . S
C2007 H1983 0.950 . S
C2007 C2006 1.524 . S
C2007 C2008 1.415 . S
C2008 H1984 0.950 . S
C2008 C2003 1.363 . S
C2008 C2007 1.415 . S
C2009 H1985 0.951 . S
C2009 C2010 1.366 . S
C2009 C2011 1.388 . S
C2010 C2009 1.366 . S
C2010 C2014 1.385 . S
C2011 H1986 0.951 . S
C2011 C2009 1.388 . S
C2011 C2012 1.366 . S
C2012 C2011 1.366 . S
C2012 C2013 1.414 . S
C2012 C2015 1.499 . S
C2013 H1987 0.950 . S
C2013 C2012 1.414 . S
C2013 C2014 1.374 . S
C2014 H1988 0.950 . S
C2014 C2010 1.385 . S
C2014 C2013 1.374 . S
C2015 C2012 1.499 . S
C2015 C2016 1.373 . S
C2015 C2017 1.389 . S
C2016 H1989 0.950 . S
C2016 C2002 1.377 . S
C2016 C2015 1.373 . S
C2017 C2001 1.377 . S
C2017 C2015 1.389 . S
C2017 C2018 1.524 . S
C2018 C2017 1.524 . S
C2018 C2019 1.397 . S
C2018 C2023 1.363 . S
C2019 H1990 0.950 . S
C2019 C2018 1.397 . S
C2019 C2020 1.334 . S
C2020 H1991 0.950 . S
C2020 C2019 1.334 . S
C2020 C2021 1.287 . S
C2021 C2020 1.287 . S
C2021 C2022 1.524 . S
C2021 H2024 0.999 . S
C2022 H1992 0.950 . S
C2022 C2021 1.524 . S
C2022 C2023 1.415 . S
C2023 H1993 0.950 . S
C2023 C2018 1.363 . S
C2023 C2022 1.415 . S
H2024 C2021 0.999 . S
H2025 C2006 0.913 . S
H2026 C2044 0.951 . S
H2027 C2046 0.951 . S
H2028 C2048 0.950 . S
H2029 C2049 0.950 . S
H2030 C2051 0.950 . S
H2031 C2054 0.950 . S
H2032 C2055 0.950 . S
H2033 C2057 0.950 . S
H2034 C2058 0.950 . S
H2035 C2059 0.951 . S
H2036 C2061 0.951 . S
H2037 C2063 0.950 . S
H2038 C2064 0.950 . S
H2039 C2066 0.950 . S
H2040 C2069 0.950 . S
H2041 C2070 0.950 . S
H2042 C2072 0.950 . S
H2043 C2073 0.950 . S
C2044 H2026 0.951 . S
C2044 C2045 1.366 . S
C2044 C2046 1.388 . S
C2045 C2044 1.366 . S
C2045 C2049 1.385 . S
C2046 H2027 0.951 . S
C2046 C2044 1.388 . S
C2046 C2047 1.366 . S
C2047 C2046 1.366 . S
C2047 C2048 1.414 . S
C2047 C2050 1.499 . S
C2048 H2028 0.950 . S
C2048 C2047 1.414 . S
C2048 C2049 1.374 . S
C2049 H2029 0.950 . S
C2049 C2045 1.385 . S
C2049 C2048 1.374 . S
C2050 C2047 1.499 . S
C2050 C2051 1.373 . S
C2050 C2052 1.389 . S
C2051 H2030 0.950 . S
C2051 C2050 1.373 . S
C2051 C2067 1.377 . S
C2052 C2050 1.389 . S
C2052 C2053 1.524 . S
C2052 C2066 1.377 . S
C2053 C2052 1.524 . S
C2053 C2054 1.397 . S
C2053 C2058 1.363 . S
C2054 H2031 0.950 . S
C2054 C2053 1.397 . S
C2054 C2055 1.334 . S
C2055 H2032 0.950 . S
C2055 C2054 1.334 . S
C2055 C2056 1.287 . S
C2056 C2055 1.287 . S
C2056 C2057 1.524 . S
C2056 H2075 0.913 . S
C2057 H2033 0.950 . S
C2057 C2056 1.524 . S
C2057 C2058 1.415 . S
C2058 H2034 0.950 . S
C2058 C2053 1.363 . S
C2058 C2057 1.415 . S
C2059 H2035 0.951 . S
C2059 C2060 1.366 . S
C2059 C2061 1.388 . S
C2060 C2059 1.366 . S
C2060 C2064 1.385 . S
C2061 H2036 0.951 . S
C2061 C2059 1.388 . S
C2061 C2062 1.366 . S
C2062 C2061 1.366 . S
C2062 C2063 1.414 . S
C2062 C2065 1.499 . S
C2063 H2037 0.950 . S
C2063 C2062 1.414 . S
C2063 C2064 1.374 . S
C2064 H2038 0.950 . S
C2064 C2060 1.385 . S
C2064 C2063 1.374 . S
C2065 C2062 1.499 . S
C2065 C2066 1.373 . S
C2065 C2067 1.389 . S
C2066 H2039 0.950 . S
C2066 C2052 1.377 . S
C2066 C2065 1.373 . S
C2067 C2051 1.377 . S
C2067 C2065 1.389 . S
C2067 C2068 1.524 . S
C2068 C2067 1.524 . S
C2068 C2069 1.397 . S
C2068 C2073 1.363 . S
C2069 H2040 0.950 . S
C2069 C2068 1.397 . S
C2069 C2070 1.334 . S
C2070 H2041 0.950 . S
C2070 C2069 1.334 . S
C2070 C2071 1.287 . S
C2071 C2070 1.287 . S
C2071 C2072 1.524 . S
C2071 H2074 0.999 . S
C2072 H2042 0.950 . S
C2072 C2071 1.524 . S
C2072 C2073 1.415 . S
C2073 H2043 0.950 . S
C2073 C2068 1.363 . S
C2073 C2072 1.415 . S
H2074 C2071 0.999 . S
H2075 C2056 0.913 . S
H2076 C2094 0.951 . S
H2077 C2096 0.951 . S
H2078 C2098 0.950 . S
H2079 C2099 0.950 . S
H2080 C2101 0.950 . S
H2081 C2104 0.950 . S
H2082 C2105 0.950 . S
H2083 C2107 0.950 . S
H2084 C2108 0.950 . S
H2085 C2109 0.951 . S
H2086 C2111 0.951 . S
H2087 C2113 0.950 . S
H2088 C2114 0.950 . S
H2089 C2116 0.950 . S
H2090 C2119 0.950 . S
H2091 C2120 0.950 . S
H2092 C2122 0.950 . S
H2093 C2123 0.950 . S
C2094 H2076 0.951 . S
C2094 C2095 1.366 . S
C2094 C2096 1.388 . S
C2095 C2094 1.366 . S
C2095 C2099 1.385 . S
C2096 H2077 0.951 . S
C2096 C2094 1.388 . S
C2096 C2097 1.366 . S
C2097 C2096 1.366 . S
C2097 C2098 1.414 . S
C2097 C2100 1.499 . S
C2098 H2078 0.950 . S
C2098 C2097 1.414 . S
C2098 C2099 1.374 . S
C2099 H2079 0.950 . S
C2099 C2095 1.385 . S
C2099 C2098 1.374 . S
C2100 C2097 1.499 . S
C2100 C2101 1.373 . S
C2100 C2102 1.389 . S
C2101 H2080 0.950 . S
C2101 C2100 1.373 . S
C2101 C2117 1.377 . S
C2102 C2100 1.389 . S
C2102 C2103 1.524 . S
C2102 C2116 1.377 . S
C2103 C2102 1.524 . S
C2103 C2104 1.397 . S
C2103 C2108 1.363 . S
C2104 H2081 0.950 . S
C2104 C2103 1.397 . S
C2104 C2105 1.334 . S
C2105 H2082 0.950 . S
C2105 C2104 1.334 . S
C2105 C2106 1.287 . S
C2106 C2105 1.287 . S
C2106 C2107 1.524 . S
C2106 H2125 0.913 . S
C2107 H2083 0.950 . S
C2107 C2106 1.524 . S
C2107 C2108 1.415 . S
C2108 H2084 0.950 . S
C2108 C2103 1.363 . S
C2108 C2107 1.415 . S
C2109 H2085 0.951 . S
C2109 C2110 1.366 . S
C2109 C2111 1.388 . S
C2110 C2109 1.366 . S
C2110 C2114 1.385 . S
C2111 H2086 0.951 . S
C2111 C2109 1.388 . S
C2111 C2112 1.366 . S
C2112 C2111 1.366 . S
C2112 C2113 1.414 . S
C2112 C2115 1.499 . S
C2113 H2087 0.950 . S
C2113 C2112 1.414 . S
C2113 C2114 1.374 . S
C2114 H2088 0.950 . S
C2114 C2110 1.385 . S
C2114 C2113 1.374 . S
C2115 C2112 1.499 . S
C2115 C2116 1.373 . S
C2115 C2117 1.389 . S
C2116 H2089 0.950 . S
C2116 C2102 1.377 . S
C2116 C2115 1.373 . S
C2117 C2101 1.377 . S
C2117 C2115 1.389 . S
C2117 C2118 1.524 . S
C2118 C2117 1.524 . S
C2118 C2119 1.397 . S
C2118 C2123 1.363 . S
C2119 H2090 0.950 . S
C2119 C2118 1.397 . S
C2119 C2120 1.334 . S
C2120 H2091 0.950 . S
C2120 C2119 1.334 . S
C2120 C2121 1.287 . S
C2121 C2120 1.287 . S
C2121 C2122 1.524 . S
C2121 H2124 0.999 . S
C2122 H2092 0.950 . S
C2122 C2121 1.524 . S
C2122 C2123 1.415 . S
C2123 H2093 0.950 . S
C2123 C2118 1.363 . S
C2123 C2122 1.415 . S
H2124 C2121 0.999 . S
H2125 C2106 0.913 . S
H2126 C2144 0.951 . S
H2127 C2146 0.951 . S
H2128 C2148 0.950 . S
H2129 C2149 0.950 . S
H2130 C2151 0.950 . S
H2131 C2154 0.950 . S
H2132 C2155 0.950 . S
H2133 C2157 0.950 . S
H2134 C2158 0.950 . S
H2135 C2159 0.951 . S
H2136 C2161 0.951 . S
H2137 C2163 0.950 . S
H2138 C2164 0.950 . S
H2139 C2166 0.950 . S
H2140 C2169 0.950 . S
H2141 C2170 0.950 . S
H2142 C2172 0.950 . S
H2143 C2173 0.950 . S
C2144 H2126 0.951 . S
C2144 C2145 1.366 . S
C2144 C2146 1.388 . S
C2145 C2144 1.366 . S
C2145 C2149 1.385 . S
C2146 H2127 0.951 . S
C2146 C2144 1.388 . S
C2146 C2147 1.366 . S
C2147 C2146 1.366 . S
C2147 C2148 1.414 . S
C2147 C2150 1.499 . S
C2148 H2128 0.950 . S
C2148 C2147 1.414 . S
C2148 C2149 1.374 . S
C2149 H2129 0.950 . S
C2149 C2145 1.385 . S
C2149 C2148 1.374 . S
C2150 C2147 1.499 . S
C2150 C2151 1.373 . S
C2150 C2152 1.389 . S
C2151 H2130 0.950 . S
C2151 C2150 1.373 . S
C2151 C2167 1.377 . S
C2152 C2150 1.389 . S
C2152 C2153 1.524 . S
C2152 C2166 1.377 . S
C2153 C2152 1.524 . S
C2153 C2154 1.397 . S
C2153 C2158 1.363 . S
C2154 H2131 0.950 . S
C2154 C2153 1.397 . S
C2154 C2155 1.334 . S
C2155 H2132 0.950 . S
C2155 C2154 1.334 . S
C2155 C2156 1.287 . S
C2156 C2155 1.287 . S
C2156 C2157 1.524 . S
C2156 H2175 0.913 . S
C2157 H2133 0.950 . S
C2157 C2156 1.524 . S
C2157 C2158 1.415 . S
C2158 H2134 0.950 . S
C2158 C2153 1.363 . S
C2158 C2157 1.415 . S
C2159 H2135 0.951 . S
C2159 C2160 1.366 . S
C2159 C2161 1.388 . S
C2160 C2159 1.366 . S
C2160 C2164 1.385 . S
C2161 H2136 0.951 . S
C2161 C2159 1.388 . S
C2161 C2162 1.366 . S
C2162 C2161 1.366 . S
C2162 C2163 1.414 . S
C2162 C2165 1.499 . S
C2163 H2137 0.950 . S
C2163 C2162 1.414 . S
C2163 C2164 1.374 . S
C2164 H2138 0.950 . S
C2164 C2160 1.385 . S
C2164 C2163 1.374 . S
C2165 C2162 1.499 . S
C2165 C2166 1.373 . S
C2165 C2167 1.389 . S
C2166 H2139 0.950 . S
C2166 C2152 1.377 . S
C2166 C2165 1.373 . S
C2167 C2151 1.377 . S
C2167 C2165 1.389 . S
C2167 C2168 1.524 . S
C2168 C2167 1.524 . S
C2168 C2169 1.397 . S
C2168 C2173 1.363 . S
C2169 H2140 0.950 . S
C2169 C2168 1.397 . S
C2169 C2170 1.334 . S
C2170 H2141 0.950 . S
C2170 C2169 1.334 . S
C2170 C2171 1.287 . S
C2171 C2170 1.287 . S
C2171 C2172 1.524 . S
C2171 H2174 0.999 . S
C2172 H2142 0.950 . S
C2172 C2171 1.524 . S
C2172 C2173 1.415 . S
C2173 H2143 0.950 . S
C2173 C2168 1.363 . S
C2173 C2172 1.415 . S
H2174 C2171 0.999 . S
H2175 C2156 0.913 . S
H2176 C2194 0.951 . S
H2177 C2196 0.951 . S
H2178 C2198 0.950 . S
H2179 C2199 0.950 . S
H2180 C2201 0.950 . S
H2181 C2204 0.950 . S
H2182 C2205 0.950 . S
H2183 C2207 0.950 . S
H2184 C2208 0.950 . S
H2185 C2209 0.951 . S
H2186 C2211 0.951 . S
H2187 C2213 0.950 . S
H2188 C2214 0.950 . S
H2189 C2216 0.950 . S
H2190 C2219 0.950 . S
H2191 C2220 0.950 . S
H2192 C2222 0.950 . S
H2193 C2223 0.950 . S
C2194 H2176 0.951 . S
C2194 C2195 1.366 . S
C2194 C2196 1.388 . S
C2195 C2194 1.366 . S
C2195 C2199 1.385 . S
C2196 H2177 0.951 . S
C2196 C2194 1.388 . S
C2196 C2197 1.366 . S
C2197 C2196 1.366 . S
C2197 C2198 1.414 . S
C2197 C2200 1.499 . S
C2198 H2178 0.950 . S
C2198 C2197 1.414 . S
C2198 C2199 1.374 . S
C2199 H2179 0.950 . S
C2199 C2195 1.385 . S
C2199 C2198 1.374 . S
C2200 C2197 1.499 . S
C2200 C2201 1.373 . S
C2200 C2202 1.389 . S
C2201 H2180 0.950 . S
C2201 C2200 1.373 . S
C2201 C2217 1.377 . S
C2202 C2200 1.389 . S
C2202 C2203 1.524 . S
C2202 C2216 1.377 . S
C2203 C2202 1.524 . S
C2203 C2204 1.397 . S
C2203 C2208 1.363 . S
C2204 H2181 0.950 . S
C2204 C2203 1.397 . S
C2204 C2205 1.334 . S
C2205 H2182 0.950 . S
C2205 C2204 1.334 . S
C2205 C2206 1.287 . S
C2206 C2205 1.287 . S
C2206 C2207 1.524 . S
C2206 H2225 0.913 . S
C2207 H2183 0.950 . S
C2207 C2206 1.524 . S
C2207 C2208 1.415 . S
C2208 H2184 0.950 . S
C2208 C2203 1.363 . S
C2208 C2207 1.415 . S
C2209 H2185 0.951 . S
C2209 C2210 1.366 . S
C2209 C2211 1.388 . S
C2210 C2209 1.366 . S
C2210 C2214 1.385 . S
C2211 H2186 0.951 . S
C2211 C2209 1.388 . S
C2211 C2212 1.366 . S
C2212 C2211 1.366 . S
C2212 C2213 1.414 . S
C2212 C2215 1.499 . S
C2213 H2187 0.950 . S
C2213 C2212 1.414 . S
C2213 C2214 1.374 . S
C2214 H2188 0.950 . S
C2214 C2210 1.385 . S
C2214 C2213 1.374 . S
C2215 C2212 1.499 . S
C2215 C2216 1.373 . S
C2215 C2217 1.389 . S
C2216 H2189 0.950 . S
C2216 C2202 1.377 . S
C2216 C2215 1.373 . S
C2217 C2201 1.377 . S
C2217 C2215 1.389 . S
C2217 C2218 1.524 . S
C2218 C2217 1.524 . S
C2218 C2219 1.397 . S
C2218 C2223 1.363 . S
C2219 H2190 0.950 . S
C2219 C2218 1.397 . S
C2219 C2220 1.334 . S
C2220 H2191 0.950 . S
C2220 C2219 1.334 . S
C2220 C2221 1.287 1_554 S
C2221 C2220 1.287 1_556 S
C2221 C2222 1.524 . S
C2221 H2224 0.999 . S
C2222 H2192 0.950 . S
C2222 C2221 1.524 . S
C2222 C2223 1.415 1_556 S
C2223 H2193 0.950 . S
C2223 C2218 1.363 . S
C2223 C2222 1.415 1_554 S
H2224 C2221 0.999 . S
H2225 C2206 0.913 . S
H2226 C2244 0.951 . S
H2227 C2246 0.951 . S
H2228 C2248 0.950 . S
H2229 C2249 0.950 . S
H2230 C2251 0.950 . S
H2231 C2254 0.950 . S
H2232 C2255 0.950 . S
H2233 C2257 0.950 . S
H2234 C2258 0.950 . S
H2235 C2259 0.951 . S
H2236 C2261 0.951 . S
H2237 C2263 0.950 . S
H2238 C2264 0.950 . S
H2239 C2266 0.950 . S
H2240 C2269 0.950 . S
H2241 C2270 0.950 . S
H2242 C2272 0.950 . S
H2243 C2273 0.950 . S
C2244 H2226 0.951 . S
C2244 C2245 1.366 . S
C2244 C2246 1.388 . S
C2245 C2244 1.366 . S
C2245 C2249 1.385 . S
C2246 H2227 0.951 . S
C2246 C2244 1.388 . S
C2246 C2247 1.366 . S
C2247 C2246 1.366 . S
C2247 C2248 1.414 . S
C2247 C2250 1.499 . S
C2248 H2228 0.950 . S
C2248 C2247 1.414 . S
C2248 C2249 1.374 . S
C2249 H2229 0.950 . S
C2249 C2245 1.385 . S
C2249 C2248 1.374 . S
C2250 C2247 1.499 . S
C2250 C2251 1.373 . S
C2250 C2252 1.389 . S
C2251 H2230 0.950 . S
C2251 C2250 1.373 . S
C2251 C2267 1.377 . S
C2252 C2250 1.389 . S
C2252 C2253 1.524 . S
C2252 C2266 1.377 . S
C2253 C2252 1.524 . S
C2253 C2254 1.397 . S
C2253 C2258 1.363 . S
C2254 H2231 0.950 . S
C2254 C2253 1.397 . S
C2254 C2255 1.334 . S
C2255 H2232 0.950 . S
C2255 C2254 1.334 . S
C2255 C2256 1.287 . S
C2256 C2255 1.287 . S
C2256 C2257 1.524 . S
C2256 H2275 0.913 . S
C2257 H2233 0.950 . S
C2257 C2256 1.524 . S
C2257 C2258 1.415 . S
C2258 H2234 0.950 . S
C2258 C2253 1.363 . S
C2258 C2257 1.415 . S
C2259 H2235 0.951 . S
C2259 C2260 1.366 . S
C2259 C2261 1.388 . S
C2260 C2259 1.366 . S
C2260 C2264 1.385 . S
C2261 H2236 0.951 . S
C2261 C2259 1.388 . S
C2261 C2262 1.366 . S
C2262 C2261 1.366 . S
C2262 C2263 1.414 . S
C2262 C2265 1.499 . S
C2263 H2237 0.950 . S
C2263 C2262 1.414 . S
C2263 C2264 1.374 . S
C2264 H2238 0.950 . S
C2264 C2260 1.385 . S
C2264 C2263 1.374 . S
C2265 C2262 1.499 . S
C2265 C2266 1.373 . S
C2265 C2267 1.389 . S
C2266 H2239 0.950 . S
C2266 C2252 1.377 . S
C2266 C2265 1.373 . S
C2267 C2251 1.377 . S
C2267 C2265 1.389 . S
C2267 C2268 1.524 . S
C2268 C2267 1.524 . S
C2268 C2269 1.397 . S
C2268 C2273 1.363 . S
C2269 H2240 0.950 . S
C2269 C2268 1.397 . S
C2269 C2270 1.334 . S
C2270 H2241 0.950 . S
C2270 C2269 1.334 . S
C2270 C2271 1.287 . S
C2271 C2270 1.287 . S
C2271 C2272 1.524 . S
C2271 H2274 0.999 . S
C2272 H2242 0.950 . S
C2272 C2271 1.524 . S
C2272 C2273 1.415 . S
C2273 H2243 0.950 . S
C2273 C2268 1.363 . S
C2273 C2272 1.415 . S
H2274 C2271 0.999 . S
H2275 C2256 0.913 . S
H2276 C2294 0.951 . S
H2277 C2296 0.951 . S
H2278 C2298 0.950 . S
H2279 C2299 0.950 . S
H2280 C2301 0.950 . S
H2281 C2304 0.950 . S
H2282 C2305 0.950 . S
H2283 C2307 0.950 . S
H2284 C2308 0.950 . S
H2285 C2309 0.951 . S
H2286 C2311 0.951 . S
H2287 C2313 0.950 . S
H2288 C2314 0.950 . S
H2289 C2316 0.950 . S
H2290 C2319 0.950 . S
H2291 C2320 0.950 . S
H2292 C2322 0.950 . S
H2293 C2323 0.950 . S
C2294 H2276 0.951 . S
C2294 C2295 1.366 . S
C2294 C2296 1.388 . S
C2295 C2294 1.366 . S
C2295 C2299 1.385 . S
C2296 H2277 0.951 . S
C2296 C2294 1.388 . S
C2296 C2297 1.366 . S
C2297 C2296 1.366 . S
C2297 C2298 1.414 . S
C2297 C2300 1.499 . S
C2298 H2278 0.950 . S
C2298 C2297 1.414 . S
C2298 C2299 1.374 . S
C2299 H2279 0.950 . S
C2299 C2295 1.385 . S
C2299 C2298 1.374 . S
C2300 C2297 1.499 . S
C2300 C2301 1.373 . S
C2300 C2302 1.389 . S
C2301 H2280 0.950 . S
C2301 C2300 1.373 . S
C2301 C2317 1.377 . S
C2302 C2300 1.389 . S
C2302 C2303 1.524 . S
C2302 C2316 1.377 . S
C2303 C2302 1.524 . S
C2303 C2304 1.397 . S
C2303 C2308 1.363 . S
C2304 H2281 0.950 . S
C2304 C2303 1.397 . S
C2304 C2305 1.334 . S
C2305 H2282 0.950 . S
C2305 C2304 1.334 . S
C2305 C2306 1.287 . S
C2306 C2305 1.287 . S
C2306 C2307 1.524 . S
C2306 H2325 0.913 . S
C2307 H2283 0.950 . S
C2307 C2306 1.524 . S
C2307 C2308 1.415 . S
C2308 H2284 0.950 . S
C2308 C2303 1.363 . S
C2308 C2307 1.415 . S
C2309 H2285 0.951 . S
C2309 C2310 1.366 . S
C2309 C2311 1.388 . S
C2310 C2309 1.366 . S
C2310 C2314 1.385 . S
C2311 H2286 0.951 . S
C2311 C2309 1.388 . S
C2311 C2312 1.366 . S
C2312 C2311 1.366 . S
C2312 C2313 1.414 . S
C2312 C2315 1.499 . S
C2313 H2287 0.950 . S
C2313 C2312 1.414 . S
C2313 C2314 1.374 . S
C2314 H2288 0.950 . S
C2314 C2310 1.385 . S
C2314 C2313 1.374 . S
C2315 C2312 1.499 . S
C2315 C2316 1.373 . S
C2315 C2317 1.389 . S
C2316 H2289 0.950 . S
C2316 C2302 1.377 . S
C2316 C2315 1.373 . S
C2317 C2301 1.377 . S
C2317 C2315 1.389 . S
C2317 C2318 1.524 . S
C2318 C2317 1.524 . S
C2318 C2319 1.397 . S
C2318 C2323 1.363 . S
C2319 H2290 0.950 . S
C2319 C2318 1.397 . S
C2319 C2320 1.334 . S
C2320 H2291 0.950 . S
C2320 C2319 1.334 . S
C2320 C2321 1.287 . S
C2321 C2320 1.287 . S
C2321 C2322 1.524 . S
C2321 H2324 0.999 . S
C2322 H2292 0.950 . S
C2322 C2321 1.524 . S
C2322 C2323 1.415 . S
C2323 H2293 0.950 . S
C2323 C2318 1.363 . S
C2323 C2322 1.415 . S
H2324 C2321 0.999 . S
H2325 C2306 0.913 . S
H2326 C2344 0.951 . S
H2327 C2346 0.951 . S
H2328 C2348 0.950 . S
H2329 C2349 0.950 . S
H2330 C2351 0.950 . S
H2331 C2354 0.950 . S
H2332 C2355 0.950 . S
H2333 C2357 0.950 . S
H2334 C2358 0.950 . S
H2335 C2359 0.951 . S
H2336 C2361 0.951 . S
H2337 C2363 0.950 . S
H2338 C2364 0.950 . S
H2339 C2366 0.950 . S
H2340 C2369 0.950 . S
H2341 C2370 0.950 . S
H2342 C2372 0.950 . S
H2343 C2373 0.950 . S
C2344 H2326 0.951 . S
C2344 C2345 1.366 . S
C2344 C2346 1.388 . S
C2345 C2344 1.366 . S
C2345 C2349 1.385 . S
C2346 H2327 0.951 . S
C2346 C2344 1.388 . S
C2346 C2347 1.366 . S
C2347 C2346 1.366 . S
C2347 C2348 1.414 . S
C2347 C2350 1.499 . S
C2348 H2328 0.950 . S
C2348 C2347 1.414 . S
C2348 C2349 1.374 . S
C2349 H2329 0.950 . S
C2349 C2345 1.385 . S
C2349 C2348 1.374 . S
C2350 C2347 1.499 . S
C2350 C2351 1.373 . S
C2350 C2352 1.389 . S
C2351 H2330 0.950 . S
C2351 C2350 1.373 . S
C2351 C2367 1.377 . S
C2352 C2350 1.389 . S
C2352 C2353 1.524 . S
C2352 C2366 1.377 . S
C2353 C2352 1.524 . S
C2353 C2354 1.397 . S
C2353 C2358 1.363 . S
C2354 H2331 0.950 . S
C2354 C2353 1.397 . S
C2354 C2355 1.334 . S
C2355 H2332 0.950 . S
C2355 C2354 1.334 . S
C2355 C2356 1.287 . S
C2356 C2355 1.287 . S
C2356 C2357 1.524 . S
C2356 H2375 0.913 . S
C2357 H2333 0.950 . S
C2357 C2356 1.524 . S
C2357 C2358 1.415 . S
C2358 H2334 0.950 . S
C2358 C2353 1.363 . S
C2358 C2357 1.415 . S
C2359 H2335 0.951 . S
C2359 C2360 1.366 . S
C2359 C2361 1.388 . S
C2360 C2359 1.366 . S
C2360 C2364 1.385 . S
C2361 H2336 0.951 . S
C2361 C2359 1.388 . S
C2361 C2362 1.366 . S
C2362 C2361 1.366 . S
C2362 C2363 1.414 . S
C2362 C2365 1.499 . S
C2363 H2337 0.950 . S
C2363 C2362 1.414 . S
C2363 C2364 1.374 . S
C2364 H2338 0.950 . S
C2364 C2360 1.385 . S
C2364 C2363 1.374 . S
C2365 C2362 1.499 . S
C2365 C2366 1.373 . S
C2365 C2367 1.389 . S
C2366 H2339 0.950 . S
C2366 C2352 1.377 . S
C2366 C2365 1.373 . S
C2367 C2351 1.377 . S
C2367 C2365 1.389 . S
C2367 C2368 1.524 . S
C2368 C2367 1.524 . S
C2368 C2369 1.397 . S
C2368 C2373 1.363 . S
C2369 H2340 0.950 . S
C2369 C2368 1.397 . S
C2369 C2370 1.334 . S
C2370 H2341 0.950 . S
C2370 C2369 1.334 . S
C2370 C2371 1.287 . S
C2371 C2370 1.287 . S
C2371 C2372 1.524 . S
C2371 H2374 0.999 . S
C2372 H2342 0.950 . S
C2372 C2371 1.524 . S
C2372 C2373 1.415 . S
C2373 H2343 0.950 . S
C2373 C2368 1.363 . S
C2373 C2372 1.415 . S
H2374 C2371 0.999 . S
H2375 C2356 0.913 . S
H2376 C2394 0.951 . S
H2377 C2396 0.951 . S
H2378 C2398 0.950 . S
H2379 C2399 0.950 . S
H2380 C2401 0.950 . S
H2381 C2404 0.950 . S
H2382 C2405 0.950 . S
H2383 C2407 0.950 . S
H2384 C2408 0.950 . S
H2385 C2409 0.951 . S
H2386 C2411 0.951 . S
H2387 C2413 0.950 . S
H2388 C2414 0.950 . S
H2389 C2416 0.950 1_655 S
H2390 C2419 0.950 . S
H2391 C2420 0.950 . S
H2392 C2422 0.950 . S
H2393 C2423 0.950 . S
C2394 H2376 0.951 . S
C2394 C2395 1.366 . S
C2394 C2396 1.388 . S
C2395 C2394 1.366 . S
C2395 C2399 1.385 . S
C2396 H2377 0.951 . S
C2396 C2394 1.388 . S
C2396 C2397 1.366 . S
C2397 C2396 1.366 . S
C2397 C2398 1.414 . S
C2397 C2400 1.499 . S
C2398 H2378 0.950 . S
C2398 C2397 1.414 . S
C2398 C2399 1.374 . S
C2399 H2379 0.950 . S
C2399 C2395 1.385 . S
C2399 C2398 1.374 . S
C2400 C2397 1.499 . S
C2400 C2401 1.373 . S
C2400 C2402 1.389 . S
C2401 H2380 0.950 . S
C2401 C2400 1.373 . S
C2401 C2417 1.377 . S
C2402 C2400 1.389 . S
C2402 C2403 1.524 1_455 S
C2402 C2416 1.377 . S
C2403 C2402 1.524 1_655 S
C2403 C2404 1.397 . S
C2403 C2408 1.363 . S
C2404 H2381 0.950 . S
C2404 C2403 1.397 . S
C2404 C2405 1.334 . S
C2405 H2382 0.950 . S
C2405 C2404 1.334 . S
C2405 C2406 1.287 . S
C2406 C2405 1.287 . S
C2406 C2407 1.524 . S
C2406 H2425 0.913 . S
C2407 H2383 0.950 . S
C2407 C2406 1.524 . S
C2407 C2408 1.415 . S
C2408 H2384 0.950 . S
C2408 C2403 1.363 . S
C2408 C2407 1.415 . S
C2409 H2385 0.951 . S
C2409 C2410 1.366 . S
C2409 C2411 1.388 . S
C2410 C2409 1.366 . S
C2410 C2414 1.385 . S
C2411 H2386 0.951 . S
C2411 C2409 1.388 . S
C2411 C2412 1.366 . S
C2412 C2411 1.366 . S
C2412 C2413 1.414 . S
C2412 C2415 1.499 . S
C2413 H2387 0.950 . S
C2413 C2412 1.414 . S
C2413 C2414 1.374 . S
C2414 H2388 0.950 . S
C2414 C2410 1.385 . S
C2414 C2413 1.374 . S
C2415 C2412 1.499 . S
C2415 C2416 1.373 . S
C2415 C2417 1.389 . S
C2416 H2389 0.950 1_455 S
C2416 C2402 1.377 . S
C2416 C2415 1.373 . S
C2417 C2401 1.377 . S
C2417 C2415 1.389 . S
C2417 C2418 1.524 . S
C2418 C2417 1.524 . S
C2418 C2419 1.397 . S
C2418 C2423 1.363 . S
C2419 H2390 0.950 . S
C2419 C2418 1.397 . S
C2419 C2420 1.334 . S
C2420 H2391 0.950 . S
C2420 C2419 1.334 . S
C2420 C2421 1.287 . S
C2421 C2420 1.287 . S
C2421 C2422 1.524 . S
C2421 H2424 0.999 . S
C2422 H2392 0.950 . S
C2422 C2421 1.524 . S
C2422 C2423 1.415 . S
C2423 H2393 0.950 . S
C2423 C2418 1.363 . S
C2423 C2422 1.415 . S
H2424 C2421 0.999 . S
H2425 C2406 0.913 . S
H2426 C2444 0.951 . S
H2427 C2446 0.951 . S
H2428 C2448 0.950 . S
H2429 C2449 0.950 . S
H2430 C2451 0.950 . S
H2431 C2454 0.950 . S
H2432 C2455 0.950 . S
H2433 C2457 0.950 . S
H2434 C2458 0.950 . S
H2435 C2459 0.951 . S
H2436 C2461 0.951 . S
H2437 C2463 0.950 . S
H2438 C2464 0.950 . S
H2439 C2466 0.950 . S
H2440 C2469 0.950 . S
H2441 C2470 0.950 . S
H2442 C2472 0.950 . S
H2443 C2473 0.950 . S
C2444 H2426 0.951 . S
C2444 C2445 1.366 . S
C2444 C2446 1.388 . S
C2445 C2444 1.366 . S
C2445 C2449 1.385 . S
C2446 H2427 0.951 . S
C2446 C2444 1.388 . S
C2446 C2447 1.366 . S
C2447 C2446 1.366 . S
C2447 C2448 1.414 . S
C2447 C2450 1.499 . S
C2448 H2428 0.950 . S
C2448 C2447 1.414 . S
C2448 C2449 1.374 . S
C2449 H2429 0.950 . S
C2449 C2445 1.385 . S
C2449 C2448 1.374 . S
C2450 C2447 1.499 . S
C2450 C2451 1.373 . S
C2450 C2452 1.389 . S
C2451 H2430 0.950 . S
C2451 C2450 1.373 . S
C2451 C2467 1.377 . S
C2452 C2450 1.389 . S
C2452 C2453 1.524 . S
C2452 C2466 1.377 . S
C2453 C2452 1.524 . S
C2453 C2454 1.397 . S
C2453 C2458 1.363 . S
C2454 H2431 0.950 . S
C2454 C2453 1.397 . S
C2454 C2455 1.334 . S
C2455 H2432 0.950 . S
C2455 C2454 1.334 . S
C2455 C2456 1.287 . S
C2456 C2455 1.287 . S
C2456 C2457 1.524 . S
C2456 H2475 0.913 . S
C2457 H2433 0.950 . S
C2457 C2456 1.524 . S
C2457 C2458 1.415 . S
C2458 H2434 0.950 . S
C2458 C2453 1.363 . S
C2458 C2457 1.415 . S
C2459 H2435 0.951 . S
C2459 C2460 1.366 . S
C2459 C2461 1.388 . S
C2460 C2459 1.366 . S
C2460 C2464 1.385 . S
C2461 H2436 0.951 . S
C2461 C2459 1.388 . S
C2461 C2462 1.366 . S
C2462 C2461 1.366 . S
C2462 C2463 1.414 . S
C2462 C2465 1.499 . S
C2463 H2437 0.950 . S
C2463 C2462 1.414 . S
C2463 C2464 1.374 . S
C2464 H2438 0.950 . S
C2464 C2460 1.385 . S
C2464 C2463 1.374 . S
C2465 C2462 1.499 . S
C2465 C2466 1.373 . S
C2465 C2467 1.389 . S
C2466 H2439 0.950 . S
C2466 C2452 1.377 . S
C2466 C2465 1.373 . S
C2467 C2451 1.377 . S
C2467 C2465 1.389 . S
C2467 C2468 1.524 . S
C2468 C2467 1.524 . S
C2468 C2469 1.397 . S
C2468 C2473 1.363 . S
C2469 H2440 0.950 . S
C2469 C2468 1.397 . S
C2469 C2470 1.334 . S
C2470 H2441 0.950 . S
C2470 C2469 1.334 . S
C2470 C2471 1.287 . S
C2471 C2470 1.287 . S
C2471 C2472 1.524 . S
C2471 H2474 0.999 . S
C2472 H2442 0.950 . S
C2472 C2471 1.524 . S
C2472 C2473 1.415 . S
C2473 H2443 0.950 . S
C2473 C2468 1.363 . S
C2473 C2472 1.415 . S
H2474 C2471 0.999 . S
H2475 C2456 0.913 . S
H2476 C2494 0.951 . S
H2477 C2496 0.951 . S
H2478 C2498 0.950 . S
H2479 C2499 0.950 . S
H2480 C2501 0.950 . S
H2481 C2504 0.950 . S
H2482 C2505 0.950 . S
H2483 C2507 0.950 . S
H2484 C2508 0.950 . S
H2485 C2509 0.951 . S
H2486 C2511 0.951 . S
H2487 C2513 0.950 . S
H2488 C2514 0.950 . S
H2489 C2516 0.950 . S
H2490 C2519 0.950 . S
H2491 C2520 0.898 1_554 S
H2492 C2522 0.950 . S
H2493 C2523 0.950 . S
C2494 H2476 0.951 . S
C2494 C2495 1.366 . S
C2494 C2496 1.388 . S
C2495 C2494 1.366 . S
C2495 C2499 1.385 . S
C2496 H2477 0.951 . S
C2496 C2494 1.388 . S
C2496 C2497 1.366 . S
C2497 C2496 1.366 . S
C2497 C2498 1.414 . S
C2497 C2500 1.499 . S
C2498 H2478 0.950 . S
C2498 C2497 1.414 . S
C2498 C2499 1.374 . S
C2499 H2479 0.950 . S
C2499 C2495 1.385 . S
C2499 C2498 1.374 . S
C2500 C2497 1.499 . S
C2500 C2501 1.373 . S
C2500 C2502 1.389 . S
C2501 H2480 0.950 . S
C2501 C2500 1.373 . S
C2501 C2517 1.377 . S
C2502 C2500 1.389 . S
C2502 C2503 1.524 . S
C2502 C2516 1.377 . S
C2503 C2502 1.524 . S
C2503 C2504 1.397 . S
C2503 C2508 1.363 . S
C2504 H2481 0.950 . S
C2504 C2503 1.397 . S
C2504 C2505 1.334 . S
C2505 H2482 0.950 . S
C2505 C2504 1.334 . S
C2505 C2506 1.287 . S
C2506 C2505 1.287 . S
C2506 C2507 1.524 . S
C2506 H2525 0.913 . S
C2507 H2483 0.950 . S
C2507 C2506 1.524 . S
C2507 C2508 1.415 . S
C2508 H2484 0.950 . S
C2508 C2503 1.363 . S
C2508 C2507 1.415 . S
C2509 H2485 0.951 . S
C2509 C2510 1.366 . S
C2509 C2511 1.388 . S
C2510 C2509 1.366 . S
C2510 C2514 1.385 . S
C2511 H2486 0.951 . S
C2511 C2509 1.388 . S
C2511 C2512 1.366 . S
C2512 C2511 1.366 . S
C2512 C2513 1.414 . S
C2512 C2515 1.499 . S
C2513 H2487 0.950 . S
C2513 C2512 1.414 . S
C2513 C2514 1.374 . S
C2514 H2488 0.950 . S
C2514 C2510 1.385 . S
C2514 C2513 1.374 . S
C2515 C2512 1.499 . S
C2515 C2516 1.373 . S
C2515 C2517 1.389 . S
C2516 H2489 0.950 . S
C2516 C2502 1.377 . S
C2516 C2515 1.373 . S
C2517 C2501 1.377 . S
C2517 C2515 1.389 . S
C2517 C2518 1.524 . S
C2518 C2517 1.524 . S
C2518 C2519 1.397 . S
C2518 C2523 1.363 . S
C2519 H2490 0.950 . S
C2519 C2518 1.397 . S
C2519 C2520 1.334 . S
C2520 H2491 0.898 1_556 S
C2520 C2519 1.334 . S
C2520 C2521 1.287 . S
C2521 C2520 1.287 . S
C2521 C2522 1.524 . S
C2521 H2524 0.999 . S
C2522 H2492 0.950 . S
C2522 C2521 1.524 . S
C2522 C2523 1.415 . S
C2523 H2493 0.950 . S
C2523 C2518 1.363 . S
C2523 C2522 1.415 . S
H2524 C2521 0.999 . S
H2525 C2506 0.913 . S
H2526 C2544 0.951 . S
H2527 C2546 0.951 . S
H2528 C2548 0.950 . S
H2529 C2549 0.950 . S
H2530 C2551 0.950 . S
H2531 C2554 0.950 . S
H2532 C2555 0.950 . S
H2533 C2557 0.950 . S
H2534 C2558 0.950 . S
H2535 C2559 0.951 . S
H2536 C2561 0.951 . S
H2537 C2563 0.950 . S
H2538 C2564 0.950 . S
H2539 C2566 0.950 . S
H2540 C2569 0.950 . S
H2541 C2570 0.950 . S
H2542 C2572 0.950 . S
H2543 C2573 0.950 . S
C2544 H2526 0.951 . S
C2544 C2545 1.366 . S
C2544 C2546 1.388 . S
C2545 C2544 1.366 . S
C2545 C2549 1.385 . S
C2546 H2527 0.951 . S
C2546 C2544 1.388 . S
C2546 C2547 1.366 . S
C2547 C2546 1.366 . S
C2547 C2548 1.414 . S
C2547 C2550 1.499 . S
C2548 H2528 0.950 . S
C2548 C2547 1.414 . S
C2548 C2549 1.374 . S
C2549 H2529 0.950 . S
C2549 C2545 1.385 . S
C2549 C2548 1.374 . S
C2550 C2547 1.499 . S
C2550 C2551 1.373 . S
C2550 C2552 1.389 . S
C2551 H2530 0.950 . S
C2551 C2550 1.373 . S
C2551 C2567 1.377 . S
C2552 C2550 1.389 . S
C2552 C2553 1.524 . S
C2552 C2566 1.377 . S
C2553 C2552 1.524 . S
C2553 C2554 1.397 . S
C2553 C2558 1.363 . S
C2554 H2531 0.950 . S
C2554 C2553 1.397 . S
C2554 C2555 1.334 . S
C2555 H2532 0.950 . S
C2555 C2554 1.334 . S
C2555 C2556 1.287 . S
C2556 C2555 1.287 . S
C2556 C2557 1.524 . S
C2556 H2575 0.913 . S
C2557 H2533 0.950 . S
C2557 C2556 1.524 . S
C2557 C2558 1.415 . S
C2558 H2534 0.950 . S
C2558 C2553 1.363 . S
C2558 C2557 1.415 . S
C2559 H2535 0.951 . S
C2559 C2560 1.366 . S
C2559 C2561 1.388 . S
C2560 C2559 1.366 . S
C2560 C2564 1.385 . S
C2561 H2536 0.951 . S
C2561 C2559 1.388 . S
C2561 C2562 1.366 . S
C2562 C2561 1.366 . S
C2562 C2563 1.414 . S
C2562 C2565 1.499 . S
C2563 H2537 0.950 . S
C2563 C2562 1.414 . S
C2563 C2564 1.374 . S
C2564 H2538 0.950 . S
C2564 C2560 1.385 . S
C2564 C2563 1.374 . S
C2565 C2562 1.499 . S
C2565 C2566 1.373 . S
C2565 C2567 1.389 . S
C2566 H2539 0.950 . S
C2566 C2552 1.377 . S
C2566 C2565 1.373 . S
C2567 C2551 1.377 . S
C2567 C2565 1.389 . S
C2567 C2568 1.524 . S
C2568 C2567 1.524 . S
C2568 C2569 1.397 . S
C2568 C2573 1.363 . S
C2569 H2540 0.950 . S
C2569 C2568 1.397 . S
C2569 C2570 1.334 . S
C2570 H2541 0.950 . S
C2570 C2569 1.334 . S
C2570 C2571 1.287 . S
C2571 C2570 1.287 . S
C2571 C2572 1.524 . S
C2571 H2574 0.999 . S
C2572 H2542 0.950 . S
C2572 C2571 1.524 . S
C2572 C2573 1.415 . S
C2573 H2543 0.950 . S
C2573 C2568 1.363 . S
C2573 C2572 1.415 . S
H2574 C2571 0.999 . S
H2575 C2556 0.913 . S
H2576 C2594 0.951 . S
H2577 C2596 0.951 . S
H2578 C2598 0.950 . S
H2579 C2599 0.950 . S
H2580 C2601 0.950 . S
H2581 C2604 0.950 . S
H2582 C2605 0.950 . S
H2583 C2607 0.950 . S
H2584 C2608 0.950 . S
H2585 C2609 0.951 . S
H2586 C2611 0.951 1_565 S
H2587 C2613 0.950 . S
H2588 C2614 0.950 . S
H2589 C2616 0.950 . S
H2590 C2619 0.950 . S
H2591 C2620 0.950 . S
H2592 C2622 0.952 1_565 S
H2593 C2623 0.950 1_565 S
C2594 H2576 0.951 . S
C2594 C2595 1.366 . S
C2594 C2596 1.388 . S
C2595 C2594 1.366 . S
C2595 C2599 1.385 . S
C2596 H2577 0.951 . S
C2596 C2594 1.388 . S
C2596 C2597 1.366 . S
C2597 C2596 1.366 . S
C2597 C2598 1.414 . S
C2597 C2600 1.499 . S
C2598 H2578 0.950 . S
C2598 C2597 1.414 . S
C2598 C2599 1.374 . S
C2599 H2579 0.950 . S
C2599 C2595 1.385 . S
C2599 C2598 1.374 . S
C2600 C2597 1.499 . S
C2600 C2601 1.373 . S
C2600 C2602 1.389 . S
C2601 H2580 0.950 . S
C2601 C2600 1.373 . S
C2601 C2617 1.377 . S
C2602 C2600 1.389 . S
C2602 C2603 1.524 . S
C2602 C2616 1.377 . S
C2603 C2602 1.524 . S
C2603 C2604 1.397 . S
C2603 C2608 1.363 . S
C2604 H2581 0.950 . S
C2604 C2603 1.397 . S
C2604 C2605 1.334 . S
C2605 H2582 0.950 . S
C2605 C2604 1.334 . S
C2605 C2606 1.287 . S
C2606 C2605 1.287 . S
C2606 C2607 1.524 . S
C2606 H2625 0.913 . S
C2607 H2583 0.950 . S
C2607 C2606 1.524 . S
C2607 C2608 1.415 . S
C2608 H2584 0.950 . S
C2608 C2603 1.363 . S
C2608 C2607 1.415 . S
C2609 H2585 0.951 . S
C2609 C2610 1.366 1_565 S
C2609 C2611 1.388 1_565 S
C2610 C2609 1.366 1_545 S
C2610 C2614 1.385 . S
C2611 H2586 0.951 1_545 S
C2611 C2609 1.388 1_545 S
C2611 C2612 1.366 . S
C2612 C2611 1.366 . S
C2612 C2613 1.414 . S
C2612 C2615 1.499 . S
C2613 H2587 0.950 . S
C2613 C2612 1.414 . S
C2613 C2614 1.374 . S
C2614 H2588 0.950 . S
C2614 C2610 1.385 . S
C2614 C2613 1.374 . S
C2615 C2612 1.499 . S
C2615 C2616 1.373 . S
C2615 C2617 1.389 . S
C2616 H2589 0.950 . S
C2616 C2602 1.377 . S
C2616 C2615 1.373 . S
C2617 C2601 1.377 . S
C2617 C2615 1.389 . S
C2617 C2618 1.524 . S
C2618 C2617 1.524 . S
C2618 C2619 1.397 . S
C2618 C2623 1.363 . S
C2619 H2590 0.950 . S
C2619 C2618 1.397 . S
C2619 C2620 1.334 . S
C2620 H2591 0.950 . S
C2620 C2619 1.334 . S
C2620 C2621 1.287 . S
C2621 C2620 1.287 . S
C2621 C2622 1.521 . S
C2621 H2624 0.999 . S
C2622 H2592 0.952 1_545 S
C2622 C2621 1.521 . S
C2622 C2623 1.416 . S
C2623 H2593 0.950 1_545 S
C2623 C2618 1.363 . S
C2623 C2622 1.416 . S
H2624 C2621 0.999 . S
H2625 C2606 0.913 . S
H2626 C2644 0.951 . S
H2627 C2646 0.951 . S
H2628 C2648 0.950 . S
H2629 C2649 0.950 . S
H2630 C2651 0.950 . S
H2631 C2654 0.950 . S
H2632 C2655 0.950 . S
H2633 C2657 0.950 . S
H2634 C2658 0.950 . S
H2635 C2659 0.951 . S
H2636 C2661 0.951 . S
H2637 C2663 0.950 . S
H2638 C2664 0.950 . S
H2639 C2666 0.950 . S
H2640 C2669 0.950 . S
H2641 C2670 0.950 . S
H2642 C2672 0.950 . S
H2643 C2673 0.950 . S
C2644 H2626 0.951 . S
C2644 C2645 1.366 . S
C2644 C2646 1.388 . S
C2645 C2644 1.366 . S
C2645 C2649 1.385 . S
C2646 H2627 0.951 . S
C2646 C2644 1.388 . S
C2646 C2647 1.366 . S
C2647 C2646 1.366 . S
C2647 C2648 1.414 . S
C2647 C2650 1.499 . S
C2648 H2628 0.950 . S
C2648 C2647 1.414 . S
C2648 C2649 1.374 . S
C2649 H2629 0.950 . S
C2649 C2645 1.385 . S
C2649 C2648 1.374 . S
C2650 C2647 1.499 . S
C2650 C2651 1.373 . S
C2650 C2652 1.389 . S
C2651 H2630 0.950 . S
C2651 C2650 1.373 . S
C2651 C2667 1.377 . S
C2652 C2650 1.389 . S
C2652 C2653 1.524 . S
C2652 C2666 1.377 . S
C2653 C2652 1.524 . S
C2653 C2654 1.397 . S
C2653 C2658 1.363 . S
C2654 H2631 0.950 . S
C2654 C2653 1.397 . S
C2654 C2655 1.334 . S
C2655 H2632 0.950 . S
C2655 C2654 1.334 . S
C2655 C2656 1.287 . S
C2656 C2655 1.287 . S
C2656 C2657 1.524 . S
C2656 H2675 0.913 . S
C2657 H2633 0.950 . S
C2657 C2656 1.524 . S
C2657 C2658 1.415 . S
C2658 H2634 0.950 . S
C2658 C2653 1.363 . S
C2658 C2657 1.415 . S
C2659 H2635 0.951 . S
C2659 C2660 1.366 . S
C2659 C2661 1.388 . S
C2660 C2659 1.366 . S
C2660 C2664 1.385 . S
C2661 H2636 0.951 . S
C2661 C2659 1.388 . S
C2661 C2662 1.366 . S
C2662 C2661 1.366 . S
C2662 C2663 1.414 . S
C2662 C2665 1.499 . S
C2663 H2637 0.950 . S
C2663 C2662 1.414 . S
C2663 C2664 1.374 . S
C2664 H2638 0.950 . S
C2664 C2660 1.385 . S
C2664 C2663 1.374 . S
C2665 C2662 1.499 . S
C2665 C2666 1.373 . S
C2665 C2667 1.389 . S
C2666 H2639 0.950 . S
C2666 C2652 1.377 . S
C2666 C2665 1.373 . S
C2667 C2651 1.377 . S
C2667 C2665 1.389 . S
C2667 C2668 1.524 . S
C2668 C2667 1.524 . S
C2668 C2669 1.397 . S
C2668 C2673 1.363 . S
C2669 H2640 0.950 . S
C2669 C2668 1.397 . S
C2669 C2670 1.334 . S
C2670 H2641 0.950 . S
C2670 C2669 1.334 . S
C2670 C2671 1.287 . S
C2671 C2670 1.287 . S
C2671 C2672 1.524 . S
C2671 H2674 0.999 . S
C2672 H2642 0.950 . S
C2672 C2671 1.524 . S
C2672 C2673 1.415 . S
C2673 H2643 0.950 . S
C2673 C2668 1.363 . S
C2673 C2672 1.415 . S
H2674 C2671 0.999 . S
H2675 C2656 0.913 . S
H2676 C2694 0.951 . S
H2677 C2696 0.951 . S
H2678 C2698 0.950 . S
H2679 C2699 0.950 . S
H2680 C2701 0.950 . S
H2681 C2704 0.950 . S
H2682 C2705 0.950 . S
H2683 C2707 0.950 . S
H2684 C2708 0.950 . S
H2685 C2709 0.951 . S
H2686 C2711 0.951 . S
H2687 C2713 0.950 . S
H2688 C2714 0.950 . S
H2689 C2716 0.950 . S
H2690 C2719 0.950 1_545 S
H2691 C2720 0.950 . S
H2692 C2722 0.950 . S
H2693 C2723 0.950 . S
C2694 H2676 0.951 . S
C2694 C2695 1.366 . S
C2694 C2696 1.388 . S
C2695 C2694 1.366 . S
C2695 C2699 1.385 . S
C2696 H2677 0.951 . S
C2696 C2694 1.388 . S
C2696 C2697 1.366 . S
C2697 C2696 1.366 . S
C2697 C2698 1.414 . S
C2697 C2700 1.499 . S
C2698 H2678 0.950 . S
C2698 C2697 1.414 . S
C2698 C2699 1.374 . S
C2699 H2679 0.950 . S
C2699 C2695 1.385 . S
C2699 C2698 1.374 . S
C2700 C2697 1.499 . S
C2700 C2701 1.373 . S
C2700 C2702 1.389 . S
C2701 H2680 0.950 . S
C2701 C2700 1.373 . S
C2701 C2717 1.377 . S
C2702 C2700 1.389 . S
C2702 C2703 1.524 . S
C2702 C2716 1.377 . S
C2703 C2702 1.524 . S
C2703 C2704 1.397 . S
C2703 C2708 1.363 . S
C2704 H2681 0.950 . S
C2704 C2703 1.397 . S
C2704 C2705 1.334 . S
C2705 H2682 0.950 . S
C2705 C2704 1.334 . S
C2705 C2706 1.287 . S
C2706 C2705 1.287 . S
C2706 C2707 1.524 . S
C2706 H2725 0.913 . S
C2707 H2683 0.950 . S
C2707 C2706 1.524 . S
C2707 C2708 1.415 . S
C2708 H2684 0.950 . S
C2708 C2703 1.363 . S
C2708 C2707 1.415 . S
C2709 H2685 0.951 . S
C2709 C2710 1.366 . S
C2709 C2711 1.388 . S
C2710 C2709 1.366 . S
C2710 C2714 1.385 . S
C2711 H2686 0.951 . S
C2711 C2709 1.388 . S
C2711 C2712 1.366 . S
C2712 C2711 1.366 . S
C2712 C2713 1.414 . S
C2712 C2715 1.499 . S
C2713 H2687 0.950 . S
C2713 C2712 1.414 . S
C2713 C2714 1.374 . S
C2714 H2688 0.950 . S
C2714 C2710 1.385 . S
C2714 C2713 1.374 . S
C2715 C2712 1.499 . S
C2715 C2716 1.373 . S
C2715 C2717 1.389 . S
C2716 H2689 0.950 . S
C2716 C2702 1.377 . S
C2716 C2715 1.373 . S
C2717 C2701 1.377 . S
C2717 C2715 1.389 . S
C2717 C2718 1.524 1_545 S
C2718 C2717 1.524 1_565 S
C2718 C2719 1.397 . S
C2718 C2723 1.363 . S
C2719 H2690 0.950 1_565 S
C2719 C2718 1.397 . S
C2719 C2720 1.334 . S
C2720 H2691 0.950 . S
C2720 C2719 1.334 . S
C2720 C2721 1.287 . S
C2721 C2720 1.287 . S
C2721 C2722 1.524 . S
C2721 H2724 0.999 . S
C2722 H2692 0.950 . S
C2722 C2721 1.524 . S
C2722 C2723 1.415 . S
C2723 H2693 0.950 . S
C2723 C2718 1.363 . S
C2723 C2722 1.415 . S
H2724 C2721 0.999 . S
H2725 C2706 0.913 . S
H2726 C2744 0.951 . S
H2727 C2746 0.951 . S
H2728 C2748 0.950 . S
H2729 C2749 0.950 . S
H2730 C2751 0.950 . S
H2731 C2754 0.950 . S
H2732 C2755 0.950 . S
H2733 C2757 0.950 . S
H2734 C2758 0.950 . S
H2735 C2759 0.951 . S
H2736 C2761 0.951 . S
H2737 C2763 0.950 . S
H2738 C2764 0.950 . S
H2739 C2766 0.950 . S
H2740 C2769 0.950 . S
H2741 C2770 0.950 . S
H2742 C2772 0.950 . S
H2743 C2773 0.950 . S
C2744 H2726 0.951 . S
C2744 C2745 1.366 . S
C2744 C2746 1.388 . S
C2745 C2744 1.366 . S
C2745 C2749 1.385 . S
C2746 H2727 0.951 . S
C2746 C2744 1.388 . S
C2746 C2747 1.366 . S
C2747 C2746 1.366 . S
C2747 C2748 1.414 . S
C2747 C2750 1.499 . S
C2748 H2728 0.950 . S
C2748 C2747 1.414 . S
C2748 C2749 1.374 . S
C2749 H2729 0.950 . S
C2749 C2745 1.385 . S
C2749 C2748 1.374 . S
C2750 C2747 1.499 . S
C2750 C2751 1.373 . S
C2750 C2752 1.389 . S
C2751 H2730 0.950 . S
C2751 C2750 1.373 . S
C2751 C2767 1.377 . S
C2752 C2750 1.389 . S
C2752 C2753 1.524 . S
C2752 C2766 1.377 . S
C2753 C2752 1.524 . S
C2753 C2754 1.397 . S
C2753 C2758 1.363 . S
C2754 H2731 0.950 . S
C2754 C2753 1.397 . S
C2754 C2755 1.334 . S
C2755 H2732 0.950 . S
C2755 C2754 1.334 . S
C2755 C2756 1.287 . S
C2756 C2755 1.287 . S
C2756 C2757 1.524 . S
C2756 H2775 0.913 . S
C2757 H2733 0.950 . S
C2757 C2756 1.524 . S
C2757 C2758 1.415 . S
C2758 H2734 0.950 . S
C2758 C2753 1.363 . S
C2758 C2757 1.415 . S
C2759 H2735 0.951 . S
C2759 C2760 1.366 . S
C2759 C2761 1.388 . S
C2760 C2759 1.366 . S
C2760 C2764 1.385 . S
C2761 H2736 0.951 . S
C2761 C2759 1.388 . S
C2761 C2762 1.366 . S
C2762 C2761 1.366 . S
C2762 C2763 1.414 . S
C2762 C2765 1.499 . S
C2763 H2737 0.950 . S
C2763 C2762 1.414 . S
C2763 C2764 1.374 . S
C2764 H2738 0.950 . S
C2764 C2760 1.385 . S
C2764 C2763 1.374 . S
C2765 C2762 1.499 . S
C2765 C2766 1.373 . S
C2765 C2767 1.389 . S
C2766 H2739 0.950 . S
C2766 C2752 1.377 . S
C2766 C2765 1.373 . S
C2767 C2751 1.377 . S
C2767 C2765 1.389 . S
C2767 C2768 1.524 . S
C2768 C2767 1.524 . S
C2768 C2769 1.397 . S
C2768 C2773 1.363 . S
C2769 H2740 0.950 . S
C2769 C2768 1.397 . S
C2769 C2770 1.334 . S
C2770 H2741 0.950 . S
C2770 C2769 1.334 . S
C2770 C2771 1.287 . S
C2771 C2770 1.287 . S
C2771 C2772 1.524 . S
C2771 H2774 0.999 . S
C2772 H2742 0.950 . S
C2772 C2771 1.524 . S
C2772 C2773 1.415 . S
C2773 H2743 0.950 . S
C2773 C2768 1.363 . S
C2773 C2772 1.415 . S
H2774 C2771 0.999 . S
H2775 C2756 0.913 . S
H2776 C2794 0.951 . S
H2777 C2796 0.951 . S
H2778 C2798 0.950 . S
H2779 C2799 0.950 . S
H2780 C2801 0.950 . S
H2781 C2804 0.950 1_565 S
H2782 C2805 0.950 . S
H2783 C2807 0.950 . S
H2784 C2808 0.950 . S
H2785 C2809 0.951 . S
H2786 C2811 0.951 . S
H2787 C2813 0.950 . S
H2788 C2814 0.950 . S
H2789 C2816 0.950 . S
H2790 C2819 0.950 . S
H2791 C2820 0.950 . S
H2792 C2822 0.950 . S
H2793 C2823 0.950 . S
C2794 H2776 0.951 . S
C2794 C2795 1.366 . S
C2794 C2796 1.388 . S
C2795 C2794 1.366 . S
C2795 C2799 1.385 . S
C2796 H2777 0.951 . S
C2796 C2794 1.388 . S
C2796 C2797 1.366 . S
C2797 C2796 1.366 . S
C2797 C2798 1.414 . S
C2797 C2800 1.499 . S
C2798 H2778 0.950 . S
C2798 C2797 1.414 . S
C2798 C2799 1.374 . S
C2799 H2779 0.950 . S
C2799 C2795 1.385 . S
C2799 C2798 1.374 . S
C2800 C2797 1.499 . S
C2800 C2801 1.373 . S
C2800 C2802 1.389 . S
C2801 H2780 0.950 . S
C2801 C2800 1.373 . S
C2801 C2817 1.377 . S
C2802 C2800 1.389 . S
C2802 C2803 1.524 . S
C2802 C2816 1.377 . S
C2803 C2802 1.524 . S
C2803 C2804 1.397 . S
C2803 C2808 1.363 . S
C2804 H2781 0.950 1_545 S
C2804 C2803 1.397 . S
C2804 C2805 1.334 1_545 S
C2805 H2782 0.950 . S
C2805 C2804 1.334 1_565 S
C2805 C2806 1.286 . S
C2806 C2805 1.286 . S
C2806 C2807 1.525 1_565 S
C2806 H2825 0.913 . S
C2807 H2783 0.950 . S
C2807 C2806 1.525 1_545 S
C2807 C2808 1.415 . S
C2808 H2784 0.950 . S
C2808 C2803 1.363 . S
C2808 C2807 1.415 . S
C2809 H2785 0.951 . S
C2809 C2810 1.366 . S
C2809 C2811 1.388 . S
C2810 C2809 1.366 . S
C2810 C2814 1.385 . S
C2811 H2786 0.951 . S
C2811 C2809 1.388 . S
C2811 C2812 1.366 . S
C2812 C2811 1.366 . S
C2812 C2813 1.414 . S
C2812 C2815 1.499 . S
C2813 H2787 0.950 . S
C2813 C2812 1.414 . S
C2813 C2814 1.374 . S
C2814 H2788 0.950 . S
C2814 C2810 1.385 . S
C2814 C2813 1.374 . S
C2815 C2812 1.499 . S
C2815 C2816 1.373 . S
C2815 C2817 1.389 . S
C2816 H2789 0.950 . S
C2816 C2802 1.377 . S
C2816 C2815 1.373 . S
C2817 C2801 1.377 . S
C2817 C2815 1.389 . S
C2817 C2818 1.524 . S
C2818 C2817 1.524 . S
C2818 C2819 1.397 . S
C2818 C2823 1.363 . S
C2819 H2790 0.950 . S
C2819 C2818 1.397 . S
C2819 C2820 1.334 . S
C2820 H2791 0.950 . S
C2820 C2819 1.334 . S
C2820 C2821 1.287 . S
C2821 C2820 1.287 . S
C2821 C2822 1.524 . S
C2821 H2824 0.999 . S
C2822 H2792 0.950 . S
C2822 C2821 1.524 . S
C2822 C2823 1.415 . S
C2823 H2793 0.950 . S
C2823 C2818 1.363 . S
C2823 C2822 1.415 . S
H2824 C2821 0.999 . S
H2825 C2806 0.913 . S
H2826 C2844 0.951 . S
H2827 C2846 0.951 . S
H2828 C2848 0.950 . S
H2829 C2849 0.950 . S
H2830 C2851 0.950 . S
H2831 C2854 0.950 . S
H2832 C2855 0.950 . S
H2833 C2857 0.950 . S
H2834 C2858 0.950 . S
H2835 C2859 0.951 . S
H2836 C2861 0.951 . S
H2837 C2863 0.950 . S
H2838 C2864 0.950 . S
H2839 C2866 0.950 . S
H2840 C2869 0.950 . S
H2841 C2870 0.950 . S
H2842 C2872 0.950 . S
H2843 C2873 0.950 . S
C2844 H2826 0.951 . S
C2844 C2845 1.366 . S
C2844 C2846 1.388 . S
C2845 C2844 1.366 . S
C2845 C2849 1.385 . S
C2846 H2827 0.951 . S
C2846 C2844 1.388 . S
C2846 C2847 1.366 . S
C2847 C2846 1.366 . S
C2847 C2848 1.414 . S
C2847 C2850 1.499 . S
C2848 H2828 0.950 . S
C2848 C2847 1.414 . S
C2848 C2849 1.374 . S
C2849 H2829 0.950 . S
C2849 C2845 1.385 . S
C2849 C2848 1.374 . S
C2850 C2847 1.499 . S
C2850 C2851 1.373 . S
C2850 C2852 1.389 . S
C2851 H2830 0.950 . S
C2851 C2850 1.373 . S
C2851 C2867 1.377 . S
C2852 C2850 1.389 . S
C2852 C2853 1.524 . S
C2852 C2866 1.377 . S
C2853 C2852 1.524 . S
C2853 C2854 1.397 . S
C2853 C2858 1.363 . S
C2854 H2831 0.950 . S
C2854 C2853 1.397 . S
C2854 C2855 1.334 . S
C2855 H2832 0.950 . S
C2855 C2854 1.334 . S
C2855 C2856 1.287 . S
C2856 C2855 1.287 . S
C2856 C2857 1.524 . S
C2856 H2875 0.913 . S
C2857 H2833 0.950 . S
C2857 C2856 1.524 . S
C2857 C2858 1.415 . S
C2858 H2834 0.950 . S
C2858 C2853 1.363 . S
C2858 C2857 1.415 . S
C2859 H2835 0.951 . S
C2859 C2860 1.366 . S
C2859 C2861 1.388 . S
C2860 C2859 1.366 . S
C2860 C2864 1.385 . S
C2861 H2836 0.951 . S
C2861 C2859 1.388 . S
C2861 C2862 1.366 . S
C2862 C2861 1.366 . S
C2862 C2863 1.414 . S
C2862 C2865 1.499 . S
C2863 H2837 0.950 . S
C2863 C2862 1.414 . S
C2863 C2864 1.374 . S
C2864 H2838 0.950 . S
C2864 C2860 1.385 . S
C2864 C2863 1.374 . S
C2865 C2862 1.499 . S
C2865 C2866 1.373 . S
C2865 C2867 1.389 . S
C2866 H2839 0.950 . S
C2866 C2852 1.377 . S
C2866 C2865 1.373 . S
C2867 C2851 1.377 . S
C2867 C2865 1.389 . S
C2867 C2868 1.524 . S
C2868 C2867 1.524 . S
C2868 C2869 1.397 . S
C2868 C2873 1.363 . S
C2869 H2840 0.950 . S
C2869 C2868 1.397 . S
C2869 C2870 1.334 . S
C2870 H2841 0.950 . S
C2870 C2869 1.334 . S
C2870 C2871 1.287 . S
C2871 C2870 1.287 . S
C2871 C2872 1.524 . S
C2871 H2874 0.999 . S
C2872 H2842 0.950 . S
C2872 C2871 1.524 . S
C2872 C2873 1.415 . S
C2873 H2843 0.950 . S
C2873 C2868 1.363 . S
C2873 C2872 1.415 . S
H2874 C2871 0.999 . S
H2875 C2856 0.913 . S
H2876 C2894 0.951 . S
H2877 C2896 0.951 . S
H2878 C2898 0.950 . S
H2879 C2899 0.950 . S
H2880 C2901 0.950 . S
H2881 C2904 0.950 . S
H2882 C2905 0.950 . S
H2883 C2907 0.950 . S
H2884 C2908 0.950 . S
H2885 C2909 0.951 . S
H2886 C2911 0.951 . S
H2887 C2913 0.950 . S
H2888 C2914 0.950 . S
H2889 C2916 0.950 . S
H2890 C2919 0.950 . S
H2891 C2920 0.950 . S
H2892 C2922 0.950 . S
H2893 C2923 0.950 . S
C2894 H2876 0.951 . S
C2894 C2895 1.366 . S
C2894 C2896 1.388 . S
C2895 C2894 1.366 . S
C2895 C2899 1.385 . S
C2896 H2877 0.951 . S
C2896 C2894 1.388 . S
C2896 C2897 1.366 . S
C2897 C2896 1.366 . S
C2897 C2898 1.414 . S
C2897 C2900 1.499 . S
C2898 H2878 0.950 . S
C2898 C2897 1.414 . S
C2898 C2899 1.374 . S
C2899 H2879 0.950 . S
C2899 C2895 1.385 . S
C2899 C2898 1.374 . S
C2900 C2897 1.499 . S
C2900 C2901 1.373 . S
C2900 C2902 1.389 . S
C2901 H2880 0.950 . S
C2901 C2900 1.373 . S
C2901 C2917 1.377 . S
C2902 C2900 1.389 . S
C2902 C2903 1.524 . S
C2902 C2916 1.377 . S
C2903 C2902 1.524 . S
C2903 C2904 1.397 . S
C2903 C2908 1.363 . S
C2904 H2881 0.950 . S
C2904 C2903 1.397 . S
C2904 C2905 1.334 . S
C2905 H2882 0.950 . S
C2905 C2904 1.334 . S
C2905 C2906 1.287 . S
C2906 C2905 1.287 . S
C2906 C2907 1.524 . S
C2906 H2925 0.913 . S
C2907 H2883 0.950 . S
C2907 C2906 1.524 . S
C2907 C2908 1.415 . S
C2908 H2884 0.950 . S
C2908 C2903 1.363 . S
C2908 C2907 1.415 . S
C2909 H2885 0.951 . S
C2909 C2910 1.366 . S
C2909 C2911 1.388 . S
C2910 C2909 1.366 . S
C2910 C2914 1.385 . S
C2911 H2886 0.951 . S
C2911 C2909 1.388 . S
C2911 C2912 1.366 . S
C2912 C2911 1.366 . S
C2912 C2913 1.414 . S
C2912 C2915 1.499 . S
C2913 H2887 0.950 . S
C2913 C2912 1.414 . S
C2913 C2914 1.374 . S
C2914 H2888 0.950 . S
C2914 C2910 1.385 . S
C2914 C2913 1.374 . S
C2915 C2912 1.499 . S
C2915 C2916 1.373 . S
C2915 C2917 1.389 . S
C2916 H2889 0.950 . S
C2916 C2902 1.377 . S
C2916 C2915 1.373 . S
C2917 C2901 1.377 . S
C2917 C2915 1.389 . S
C2917 C2918 1.524 . S
C2918 C2917 1.524 . S
C2918 C2919 1.397 1_545 S
C2918 C2923 1.363 . S
C2919 H2890 0.950 . S
C2919 C2918 1.397 1_565 S
C2919 C2920 1.334 . S
C2920 H2891 0.950 . S
C2920 C2919 1.334 . S
C2920 C2921 1.287 . S
C2921 C2920 1.287 . S
C2921 C2922 1.524 1_565 S
C2921 H2924 0.999 . S
C2922 H2892 0.950 . S
C2922 C2921 1.524 1_545 S
C2922 C2923 1.415 . S
C2923 H2893 0.950 . S
C2923 C2918 1.363 . S
C2923 C2922 1.415 . S
H2924 C2921 0.999 . S
H2925 C2906 0.913 . S
H2926 C2944 0.951 . S
H2927 C2946 0.951 . S
H2928 C2948 0.950 . S
H2929 C2949 0.950 . S
H2930 C2951 0.950 . S
H2931 C2954 0.950 . S
H2932 C2955 0.950 . S
H2933 C2957 0.950 . S
H2934 C2958 0.950 . S
H2935 C2959 0.951 . S
H2936 C2961 0.951 . S
H2937 C2963 0.950 . S
H2938 C2964 0.950 . S
H2939 C2966 0.950 . S
H2940 C2969 0.950 . S
H2941 C2970 0.950 . S
H2942 C2972 0.950 . S
H2943 C2973 0.950 . S
C2944 H2926 0.951 . S
C2944 C2945 1.366 . S
C2944 C2946 1.388 . S
C2945 C2944 1.366 . S
C2945 C2949 1.385 . S
C2946 H2927 0.951 . S
C2946 C2944 1.388 . S
C2946 C2947 1.366 . S
C2947 C2946 1.366 . S
C2947 C2948 1.414 . S
C2947 C2950 1.499 . S
C2948 H2928 0.950 . S
C2948 C2947 1.414 . S
C2948 C2949 1.374 . S
C2949 H2929 0.950 . S
C2949 C2945 1.385 . S
C2949 C2948 1.374 . S
C2950 C2947 1.499 . S
C2950 C2951 1.373 . S
C2950 C2952 1.389 . S
C2951 H2930 0.950 . S
C2951 C2950 1.373 . S
C2951 C2967 1.377 . S
C2952 C2950 1.389 . S
C2952 C2953 1.524 . S
C2952 C2966 1.377 . S
C2953 C2952 1.524 . S
C2953 C2954 1.397 . S
C2953 C2958 1.363 . S
C2954 H2931 0.950 . S
C2954 C2953 1.397 . S
C2954 C2955 1.334 . S
C2955 H2932 0.950 . S
C2955 C2954 1.334 . S
C2955 C2956 1.287 . S
C2956 C2955 1.287 . S
C2956 C2957 1.524 . S
C2956 H2975 0.913 . S
C2957 H2933 0.950 . S
C2957 C2956 1.524 . S
C2957 C2958 1.415 . S
C2958 H2934 0.950 . S
C2958 C2953 1.363 . S
C2958 C2957 1.415 . S
C2959 H2935 0.951 . S
C2959 C2960 1.366 . S
C2959 C2961 1.388 . S
C2960 C2959 1.366 . S
C2960 C2964 1.385 . S
C2961 H2936 0.951 . S
C2961 C2959 1.388 . S
C2961 C2962 1.366 . S
C2962 C2961 1.366 . S
C2962 C2963 1.414 . S
C2962 C2965 1.499 . S
C2963 H2937 0.950 . S
C2963 C2962 1.414 . S
C2963 C2964 1.374 . S
C2964 H2938 0.950 . S
C2964 C2960 1.385 . S
C2964 C2963 1.374 . S
C2965 C2962 1.499 . S
C2965 C2966 1.373 . S
C2965 C2967 1.389 . S
C2966 H2939 0.950 . S
C2966 C2952 1.377 . S
C2966 C2965 1.373 . S
C2967 C2951 1.377 . S
C2967 C2965 1.389 . S
C2967 C2968 1.524 . S
C2968 C2967 1.524 . S
C2968 C2969 1.397 . S
C2968 C2973 1.363 . S
C2969 H2940 0.950 . S
C2969 C2968 1.397 . S
C2969 C2970 1.334 . S
C2970 H2941 0.950 . S
C2970 C2969 1.334 . S
C2970 C2971 1.287 . S
C2971 C2970 1.287 . S
C2971 C2972 1.524 . S
C2971 H2974 0.999 . S
C2972 H2942 0.950 . S
C2972 C2971 1.524 . S
C2972 C2973 1.415 . S
C2973 H2943 0.950 . S
C2973 C2968 1.363 . S
C2973 C2972 1.415 . S
H2974 C2971 0.999 . S
H2975 C2956 0.913 . S
H2976 C2994 0.951 . S
H2977 C2996 0.951 . S
H2978 C2998 0.950 . S
H2979 C2999 0.950 . S
H2980 C3001 0.950 . S
H2981 C3004 0.950 . S
H2982 C3005 0.950 . S
H2983 C3007 0.950 . S
H2984 C3008 0.950 . S
H2985 C3009 0.951 . S
H2986 C3011 0.951 1_554 S
H2987 C3013 0.955 . S
H2988 C3014 0.950 . S
H2989 C3016 0.950 . S
H2990 C3019 0.950 . S
H2991 C3020 0.950 . S
H2992 C3022 0.950 . S
H2993 C3023 0.950 . S
C2994 H2976 0.951 . S
C2994 C2995 1.366 . S
C2994 C2996 1.388 . S
C2995 C2994 1.366 . S
C2995 C2999 1.385 . S
C2996 H2977 0.951 . S
C2996 C2994 1.388 . S
C2996 C2997 1.366 . S
C2997 C2996 1.366 . S
C2997 C2998 1.414 . S
C2997 C3000 1.499 . S
C2998 H2978 0.950 . S
C2998 C2997 1.414 . S
C2998 C2999 1.374 . S
C2999 H2979 0.950 . S
C2999 C2995 1.385 . S
C2999 C2998 1.374 . S
C3000 C2997 1.499 . S
C3000 C3001 1.373 . S
C3000 C3002 1.389 . S
C3001 H2980 0.950 . S
C3001 C3000 1.373 . S
C3001 C3017 1.367 1_554 S
C3002 C3000 1.389 . S
C3002 C3003 1.524 . S
C3002 C3016 1.377 . S
C3003 C3002 1.524 . S
C3003 C3004 1.397 . S
C3003 C3008 1.363 . S
C3004 H2981 0.950 . S
C3004 C3003 1.397 . S
C3004 C3005 1.334 . S
C3005 H2982 0.950 . S
C3005 C3004 1.334 . S
C3005 C3006 1.287 . S
C3006 C3005 1.287 . S
C3006 C3007 1.524 . S
C3006 H3025 0.913 . S
C3007 H2983 0.950 . S
C3007 C3006 1.524 . S
C3007 C3008 1.415 . S
C3008 H2984 0.950 . S
C3008 C3003 1.363 . S
C3008 C3007 1.415 . S
C3009 H2985 0.951 . S
C3009 C3010 1.366 . S
C3009 C3011 1.388 . S
C3010 C3009 1.366 . S
C3010 C3014 1.385 . S
C3011 H2986 0.951 1_556 S
C3011 C3009 1.388 . S
C3011 C3012 1.359 1_556 S
C3012 C3011 1.359 1_554 S
C3012 C3013 1.413 1_554 S
C3012 C3015 1.507 . S
C3013 H2987 0.955 . S
C3013 C3012 1.413 1_556 S
C3013 C3014 1.374 . S
C3014 H2988 0.950 . S
C3014 C3010 1.385 . S
C3014 C3013 1.374 . S
C3015 C3012 1.507 . S
C3015 C3016 1.373 . S
C3015 C3017 1.377 1_554 S
C3016 H2989 0.950 . S
C3016 C3002 1.377 . S
C3016 C3015 1.373 . S
C3017 C3001 1.367 1_556 S
C3017 C3015 1.377 1_556 S
C3017 C3018 1.548 . S
C3018 C3017 1.548 . S
C3018 C3019 1.397 . S
C3018 C3023 1.363 . S
C3019 H2990 0.950 . S
C3019 C3018 1.397 . S
C3019 C3020 1.334 . S
C3020 H2991 0.950 . S
C3020 C3019 1.334 . S
C3020 C3021 1.287 . S
C3021 C3020 1.287 . S
C3021 C3022 1.524 . S
C3021 H3024 0.999 . S
C3022 H2992 0.950 . S
C3022 C3021 1.524 . S
C3022 C3023 1.415 . S
C3023 H2993 0.950 . S
C3023 C3018 1.363 . S
C3023 C3022 1.415 . S
H3024 C3021 0.999 . S
H3025 C3006 0.913 . S
H3026 C3044 0.951 . S
H3027 C3046 0.951 . S
H3028 C3048 0.950 . S
H3029 C3049 0.950 . S
H3030 C3051 0.950 . S
H3031 C3054 0.950 . S
H3032 C3055 0.950 . S
H3033 C3057 0.950 . S
H3034 C3058 0.950 . S
H3035 C3059 0.951 . S
H3036 C3061 0.951 . S
H3037 C3063 0.950 . S
H3038 C3064 0.950 . S
H3039 C3066 0.950 . S
H3040 C3069 0.950 . S
H3041 C3070 0.950 . S
H3042 C3072 0.950 . S
H3043 C3073 0.950 . S
C3044 H3026 0.951 . S
C3044 C3045 1.366 . S
C3044 C3046 1.388 . S
C3045 C3044 1.366 . S
C3045 C3049 1.385 . S
C3046 H3027 0.951 . S
C3046 C3044 1.388 . S
C3046 C3047 1.366 . S
C3047 C3046 1.366 . S
C3047 C3048 1.414 . S
C3047 C3050 1.499 . S
C3048 H3028 0.950 . S
C3048 C3047 1.414 . S
C3048 C3049 1.374 . S
C3049 H3029 0.950 . S
C3049 C3045 1.385 . S
C3049 C3048 1.374 . S
C3050 C3047 1.499 . S
C3050 C3051 1.373 . S
C3050 C3052 1.389 . S
C3051 H3030 0.950 . S
C3051 C3050 1.373 . S
C3051 C3067 1.377 . S
C3052 C3050 1.389 . S
C3052 C3053 1.524 . S
C3052 C3066 1.377 . S
C3053 C3052 1.524 . S
C3053 C3054 1.397 . S
C3053 C3058 1.363 . S
C3054 H3031 0.950 . S
C3054 C3053 1.397 . S
C3054 C3055 1.334 . S
C3055 H3032 0.950 . S
C3055 C3054 1.334 . S
C3055 C3056 1.287 . S
C3056 C3055 1.287 . S
C3056 C3057 1.524 . S
C3056 H3075 0.913 . S
C3057 H3033 0.950 . S
C3057 C3056 1.524 . S
C3057 C3058 1.415 . S
C3058 H3034 0.950 . S
C3058 C3053 1.363 . S
C3058 C3057 1.415 . S
C3059 H3035 0.951 . S
C3059 C3060 1.366 . S
C3059 C3061 1.388 . S
C3060 C3059 1.366 . S
C3060 C3064 1.385 . S
C3061 H3036 0.951 . S
C3061 C3059 1.388 . S
C3061 C3062 1.366 . S
C3062 C3061 1.366 . S
C3062 C3063 1.414 . S
C3062 C3065 1.499 . S
C3063 H3037 0.950 . S
C3063 C3062 1.414 . S
C3063 C3064 1.374 . S
C3064 H3038 0.950 . S
C3064 C3060 1.385 . S
C3064 C3063 1.374 . S
C3065 C3062 1.499 . S
C3065 C3066 1.373 . S
C3065 C3067 1.389 . S
C3066 H3039 0.950 . S
C3066 C3052 1.377 . S
C3066 C3065 1.373 . S
C3067 C3051 1.377 . S
C3067 C3065 1.389 . S
C3067 C3068 1.524 . S
C3068 C3067 1.524 . S
C3068 C3069 1.397 1_554 S
C3068 C3073 1.363 . S
C3069 H3040 0.950 . S
C3069 C3068 1.397 1_556 S
C3069 C3070 1.334 . S
C3070 H3041 0.950 . S
C3070 C3069 1.334 . S
C3070 C3071 1.287 . S
C3071 C3070 1.287 . S
C3071 C3072 1.524 . S
C3071 H3074 0.999 . S
C3072 H3042 0.950 . S
C3072 C3071 1.524 . S
C3072 C3073 1.415 1_556 S
C3073 H3043 0.950 . S
C3073 C3068 1.363 . S
C3073 C3072 1.415 1_554 S
H3074 C3071 0.999 . S
H3075 C3056 0.913 . S
H3076 C3094 0.951 . S
H3077 C3096 0.951 . S
H3078 C3098 0.950 . S
H3079 C3099 0.950 . S
H3080 C3101 0.950 . S
H3081 C3104 0.950 . S
H3082 C3105 0.950 . S
H3083 C3107 0.950 . S
H3084 C3108 0.950 . S
H3085 C3109 0.951 . S
H3086 C3111 0.951 . S
H3087 C3113 0.950 . S
H3088 C3114 0.950 . S
H3089 C3116 0.950 . S
H3090 C3119 0.950 . S
H3091 C3120 0.950 . S
H3092 C3122 0.950 . S
H3093 C3123 0.950 . S
C3094 H3076 0.951 . S
C3094 C3095 1.366 . S
C3094 C3096 1.388 . S
C3095 C3094 1.366 . S
C3095 C3099 1.385 . S
C3096 H3077 0.951 . S
C3096 C3094 1.388 . S
C3096 C3097 1.366 . S
C3097 C3096 1.366 . S
C3097 C3098 1.414 . S
C3097 C3100 1.499 . S
C3098 H3078 0.950 . S
C3098 C3097 1.414 . S
C3098 C3099 1.374 . S
C3099 H3079 0.950 . S
C3099 C3095 1.385 . S
C3099 C3098 1.374 . S
C3100 C3097 1.499 . S
C3100 C3101 1.373 . S
C3100 C3102 1.389 . S
C3101 H3080 0.950 . S
C3101 C3100 1.373 . S
C3101 C3117 1.377 . S
C3102 C3100 1.389 . S
C3102 C3103 1.524 . S
C3102 C3116 1.377 . S
C3103 C3102 1.524 . S
C3103 C3104 1.397 . S
C3103 C3108 1.363 . S
C3104 H3081 0.950 . S
C3104 C3103 1.397 . S
C3104 C3105 1.334 . S
C3105 H3082 0.950 . S
C3105 C3104 1.334 . S
C3105 C3106 1.287 . S
C3106 C3105 1.287 . S
C3106 C3107 1.524 . S
C3106 H3125 0.913 . S
C3107 H3083 0.950 . S
C3107 C3106 1.524 . S
C3107 C3108 1.415 . S
C3108 H3084 0.950 . S
C3108 C3103 1.363 . S
C3108 C3107 1.415 . S
C3109 H3085 0.951 . S
C3109 C3110 1.366 . S
C3109 C3111 1.388 . S
C3110 C3109 1.366 . S
C3110 C3114 1.385 . S
C3111 H3086 0.951 . S
C3111 C3109 1.388 . S
C3111 C3112 1.366 . S
C3112 C3111 1.366 . S
C3112 C3113 1.414 . S
C3112 C3115 1.499 . S
C3113 H3087 0.950 . S
C3113 C3112 1.414 . S
C3113 C3114 1.374 . S
C3114 H3088 0.950 . S
C3114 C3110 1.385 . S
C3114 C3113 1.374 . S
C3115 C3112 1.499 . S
C3115 C3116 1.373 . S
C3115 C3117 1.389 . S
C3116 H3089 0.950 . S
C3116 C3102 1.377 . S
C3116 C3115 1.373 . S
C3117 C3101 1.377 . S
C3117 C3115 1.389 . S
C3117 C3118 1.524 . S
C3118 C3117 1.524 . S
C3118 C3119 1.397 . S
C3118 C3123 1.363 . S
C3119 H3090 0.950 . S
C3119 C3118 1.397 . S
C3119 C3120 1.334 . S
C3120 H3091 0.950 . S
C3120 C3119 1.334 . S
C3120 C3121 1.287 . S
C3121 C3120 1.287 . S
C3121 C3122 1.524 . S
C3121 H3124 0.999 . S
C3122 H3092 0.950 . S
C3122 C3121 1.524 . S
C3122 C3123 1.415 . S
C3123 H3093 0.950 . S
C3123 C3118 1.363 . S
C3123 C3122 1.415 . S
H3124 C3121 0.999 . S
H3125 C3106 0.913 . S
H3126 C3144 0.951 . S
H3127 C3146 0.951 . S
H3128 C3148 0.950 . S
H3129 C3149 0.950 . S
H3130 C3151 0.950 . S
H3131 C3154 0.950 . S
H3132 C3155 0.950 . S
H3133 C3157 0.950 . S
H3134 C3158 0.950 . S
H3135 C3159 0.951 . S
H3136 C3161 0.951 . S
H3137 C3163 0.950 . S
H3138 C3164 0.950 . S
H3139 C3166 0.950 . S
H3140 C3169 0.950 . S
H3141 C3170 0.950 . S
H3142 C3172 0.950 . S
H3143 C3173 0.950 . S
C3144 H3126 0.951 . S
C3144 C3145 1.366 . S
C3144 C3146 1.388 . S
C3145 C3144 1.366 . S
C3145 C3149 1.385 . S
C3146 H3127 0.951 . S
C3146 C3144 1.388 . S
C3146 C3147 1.366 . S
C3147 C3146 1.366 . S
C3147 C3148 1.414 . S
C3147 C3150 1.499 . S
C3148 H3128 0.950 . S
C3148 C3147 1.414 . S
C3148 C3149 1.374 . S
C3149 H3129 0.950 . S
C3149 C3145 1.385 . S
C3149 C3148 1.374 . S
C3150 C3147 1.499 . S
C3150 C3151 1.373 . S
C3150 C3152 1.389 . S
C3151 H3130 0.950 . S
C3151 C3150 1.373 . S
C3151 C3167 1.377 . S
C3152 C3150 1.389 . S
C3152 C3153 1.524 . S
C3152 C3166 1.377 . S
C3153 C3152 1.524 . S
C3153 C3154 1.397 . S
C3153 C3158 1.363 . S
C3154 H3131 0.950 . S
C3154 C3153 1.397 . S
C3154 C3155 1.334 . S
C3155 H3132 0.950 . S
C3155 C3154 1.334 . S
C3155 C3156 1.287 . S
C3156 C3155 1.287 . S
C3156 C3157 1.524 . S
C3156 H3175 0.913 . S
C3157 H3133 0.950 . S
C3157 C3156 1.524 . S
C3157 C3158 1.415 . S
C3158 H3134 0.950 . S
C3158 C3153 1.363 . S
C3158 C3157 1.415 . S
C3159 H3135 0.951 . S
C3159 C3160 1.366 . S
C3159 C3161 1.388 . S
C3160 C3159 1.366 . S
C3160 C3164 1.385 . S
C3161 H3136 0.951 . S
C3161 C3159 1.388 . S
C3161 C3162 1.366 . S
C3162 C3161 1.366 . S
C3162 C3163 1.414 . S
C3162 C3165 1.499 . S
C3163 H3137 0.950 . S
C3163 C3162 1.414 . S
C3163 C3164 1.374 . S
C3164 H3138 0.950 . S
C3164 C3160 1.385 . S
C3164 C3163 1.374 . S
C3165 C3162 1.499 . S
C3165 C3166 1.373 . S
C3165 C3167 1.389 . S
C3166 H3139 0.950 . S
C3166 C3152 1.377 . S
C3166 C3165 1.373 . S
C3167 C3151 1.377 . S
C3167 C3165 1.389 . S
C3167 C3168 1.524 . S
C3168 C3167 1.524 . S
C3168 C3169 1.397 . S
C3168 C3173 1.363 . S
C3169 H3140 0.950 . S
C3169 C3168 1.397 . S
C3169 C3170 1.334 . S
C3170 H3141 0.950 . S
C3170 C3169 1.334 . S
C3170 C3171 1.287 . S
C3171 C3170 1.287 . S
C3171 C3172 1.524 . S
C3171 H3174 0.999 . S
C3172 H3142 0.950 . S
C3172 C3171 1.524 . S
C3172 C3173 1.415 . S
C3173 H3143 0.950 . S
C3173 C3168 1.363 . S
C3173 C3172 1.415 . S
H3174 C3171 0.999 . S
H3175 C3156 0.913 . S
H3176 C3194 0.951 . S
H3177 C3196 0.951 . S
H3178 C3198 0.950 . S
H3179 C3199 0.950 1_545 S
H3180 C3201 0.950 . S
H3181 C3204 0.950 . S
H3182 C3205 0.950 . S
H3183 C3207 0.950 . S
H3184 C3208 0.950 . S
H3185 C3209 0.951 . S
H3186 C3211 0.951 . S
H3187 C3213 0.950 . S
H3188 C3214 0.950 . S
H3189 C3216 0.950 . S
H3190 C3219 0.950 . S
H3191 C3220 0.950 . S
H3192 C3222 0.950 . S
H3193 C3223 0.950 . S
C3194 H3176 0.951 . S
C3194 C3195 1.366 . S
C3194 C3196 1.388 . S
C3195 C3194 1.366 . S
C3195 C3199 1.385 . S
C3196 H3177 0.951 . S
C3196 C3194 1.388 . S
C3196 C3197 1.366 . S
C3197 C3196 1.366 . S
C3197 C3198 1.414 . S
C3197 C3200 1.499 . S
C3198 H3178 0.950 . S
C3198 C3197 1.414 . S
C3198 C3199 1.374 . S
C3199 H3179 0.950 1_565 S
C3199 C3195 1.385 . S
C3199 C3198 1.374 . S
C3200 C3197 1.499 . S
C3200 C3201 1.373 . S
C3200 C3202 1.389 . S
C3201 H3180 0.950 . S
C3201 C3200 1.373 . S
C3201 C3217 1.377 . S
C3202 C3200 1.389 . S
C3202 C3203 1.524 . S
C3202 C3216 1.377 . S
C3203 C3202 1.524 . S
C3203 C3204 1.397 . S
C3203 C3208 1.363 . S
C3204 H3181 0.950 . S
C3204 C3203 1.397 . S
C3204 C3205 1.334 . S
C3205 H3182 0.950 . S
C3205 C3204 1.334 . S
C3205 C3206 1.287 . S
C3206 C3205 1.287 . S
C3206 C3207 1.524 . S
C3206 H3225 0.913 . S
C3207 H3183 0.950 . S
C3207 C3206 1.524 . S
C3207 C3208 1.415 . S
C3208 H3184 0.950 . S
C3208 C3203 1.363 . S
C3208 C3207 1.415 . S
C3209 H3185 0.951 . S
C3209 C3210 1.366 . S
C3209 C3211 1.388 . S
C3210 C3209 1.366 . S
C3210 C3214 1.385 . S
C3211 H3186 0.951 . S
C3211 C3209 1.388 . S
C3211 C3212 1.366 . S
C3212 C3211 1.366 . S
C3212 C3213 1.414 . S
C3212 C3215 1.499 . S
C3213 H3187 0.950 . S
C3213 C3212 1.414 . S
C3213 C3214 1.374 . S
C3214 H3188 0.950 . S
C3214 C3210 1.385 . S
C3214 C3213 1.374 . S
C3215 C3212 1.499 . S
C3215 C3216 1.373 . S
C3215 C3217 1.389 . S
C3216 H3189 0.950 . S
C3216 C3202 1.377 . S
C3216 C3215 1.373 . S
C3217 C3201 1.377 . S
C3217 C3215 1.389 . S
C3217 C3218 1.524 . S
C3218 C3217 1.524 . S
C3218 C3219 1.397 . S
C3218 C3223 1.363 . S
C3219 H3190 0.950 . S
C3219 C3218 1.397 . S
C3219 C3220 1.334 . S
C3220 H3191 0.950 . S
C3220 C3219 1.334 . S
C3220 C3221 1.287 . S
C3221 C3220 1.287 . S
C3221 C3222 1.524 . S
C3221 H3224 0.999 . S
C3222 H3192 0.950 . S
C3222 C3221 1.524 . S
C3222 C3223 1.415 . S
C3223 H3193 0.950 . S
C3223 C3218 1.363 . S
C3223 C3222 1.415 . S
H3224 C3221 0.999 . S
H3225 C3206 0.913 . S
H3226 C3244 0.951 . S
H3227 C3246 0.951 . S
H3228 C3248 0.950 . S
H3229 C3249 0.950 . S
H3230 C3251 0.950 . S
H3231 C3254 0.950 . S
H3232 C3255 0.950 . S
H3233 C3257 0.950 . S
H3234 C3258 0.950 . S
H3235 C3259 0.951 . S
H3236 C3261 0.951 . S
H3237 C3263 0.950 . S
H3238 C3264 0.950 . S
H3239 C3266 0.950 . S
H3240 C3269 0.950 . S
H3241 C3270 0.950 . S
H3242 C3272 0.950 . S
H3243 C3273 0.950 . S
C3244 H3226 0.951 . S
C3244 C3245 1.366 . S
C3244 C3246 1.388 . S
C3245 C3244 1.366 . S
C3245 C3249 1.385 . S
C3246 H3227 0.951 . S
C3246 C3244 1.388 . S
C3246 C3247 1.366 . S
C3247 C3246 1.366 . S
C3247 C3248 1.414 . S
C3247 C3250 1.499 . S
C3248 H3228 0.950 . S
C3248 C3247 1.414 . S
C3248 C3249 1.374 . S
C3249 H3229 0.950 . S
C3249 C3245 1.385 . S
C3249 C3248 1.374 . S
C3250 C3247 1.499 . S
C3250 C3251 1.373 . S
C3250 C3252 1.389 . S
C3251 H3230 0.950 . S
C3251 C3250 1.373 . S
C3251 C3267 1.377 . S
C3252 C3250 1.389 . S
C3252 C3253 1.524 . S
C3252 C3266 1.377 . S
C3253 C3252 1.524 . S
C3253 C3254 1.397 . S
C3253 C3258 1.363 . S
C3254 H3231 0.950 . S
C3254 C3253 1.397 . S
C3254 C3255 1.334 . S
C3255 H3232 0.950 . S
C3255 C3254 1.334 . S
C3255 C3256 1.287 . S
C3256 C3255 1.287 . S
C3256 C3257 1.524 . S
C3256 H3275 0.913 . S
C3257 H3233 0.950 . S
C3257 C3256 1.524 . S
C3257 C3258 1.415 . S
C3258 H3234 0.950 . S
C3258 C3253 1.363 . S
C3258 C3257 1.415 . S
C3259 H3235 0.951 . S
C3259 C3260 1.366 . S
C3259 C3261 1.388 . S
C3260 C3259 1.366 . S
C3260 C3264 1.385 . S
C3261 H3236 0.951 . S
C3261 C3259 1.388 . S
C3261 C3262 1.366 . S
C3262 C3261 1.366 . S
C3262 C3263 1.414 . S
C3262 C3265 1.499 . S
C3263 H3237 0.950 . S
C3263 C3262 1.414 . S
C3263 C3264 1.374 . S
C3264 H3238 0.950 . S
C3264 C3260 1.385 . S
C3264 C3263 1.374 . S
C3265 C3262 1.499 . S
C3265 C3266 1.373 . S
C3265 C3267 1.389 . S
C3266 H3239 0.950 . S
C3266 C3252 1.377 . S
C3266 C3265 1.373 . S
C3267 C3251 1.377 . S
C3267 C3265 1.389 . S
C3267 C3268 1.524 . S
C3268 C3267 1.524 . S
C3268 C3269 1.397 . S
C3268 C3273 1.363 . S
C3269 H3240 0.950 . S
C3269 C3268 1.397 . S
C3269 C3270 1.334 . S
C3270 H3241 0.950 . S
C3270 C3269 1.334 . S
C3270 C3271 1.287 1_565 S
C3271 C3270 1.287 1_545 S
C3271 C3272 1.524 . S
C3271 H3274 0.999 . S
C3272 H3242 0.950 . S
C3272 C3271 1.524 . S
C3272 C3273 1.415 1_545 S
C3273 H3243 0.950 . S
C3273 C3268 1.363 . S
C3273 C3272 1.415 1_565 S
H3274 C3271 0.999 . S
H3275 C3256 0.913 . S
H3276 C3294 0.951 . S
H3277 C3296 0.951 . S
H3278 C3298 0.950 . S
H3279 C3299 0.950 . S
H3280 C3301 0.950 . S
H3281 C3304 0.950 . S
H3282 C3305 0.950 . S
H3283 C3307 0.950 . S
H3284 C3308 0.950 . S
H3285 C3309 0.951 . S
H3286 C3311 0.951 . S
H3287 C3313 0.950 . S
H3288 C3314 0.950 . S
H3289 C3316 0.950 . S
H3290 C3319 0.950 . S
H3291 C3320 0.950 . S
H3292 C3322 0.950 . S
H3293 C3323 0.950 . S
C3294 H3276 0.951 . S
C3294 C3295 1.366 . S
C3294 C3296 1.388 . S
C3295 C3294 1.366 . S
C3295 C3299 1.385 . S
C3296 H3277 0.951 . S
C3296 C3294 1.388 . S
C3296 C3297 1.366 . S
C3297 C3296 1.366 . S
C3297 C3298 1.414 . S
C3297 C3300 1.499 . S
C3298 H3278 0.950 . S
C3298 C3297 1.414 . S
C3298 C3299 1.374 . S
C3299 H3279 0.950 . S
C3299 C3295 1.385 . S
C3299 C3298 1.374 . S
C3300 C3297 1.499 . S
C3300 C3301 1.373 . S
C3300 C3302 1.389 . S
C3301 H3280 0.950 . S
C3301 C3300 1.373 . S
C3301 C3317 1.377 . S
C3302 C3300 1.389 . S
C3302 C3303 1.524 . S
C3302 C3316 1.377 . S
C3303 C3302 1.524 . S
C3303 C3304 1.397 . S
C3303 C3308 1.363 . S
C3304 H3281 0.950 . S
C3304 C3303 1.397 . S
C3304 C3305 1.334 . S
C3305 H3282 0.950 . S
C3305 C3304 1.334 . S
C3305 C3306 1.287 . S
C3306 C3305 1.287 . S
C3306 C3307 1.524 . S
C3306 H3325 0.913 . S
C3307 H3283 0.950 . S
C3307 C3306 1.524 . S
C3307 C3308 1.415 . S
C3308 H3284 0.950 . S
C3308 C3303 1.363 . S
C3308 C3307 1.415 . S
C3309 H3285 0.951 . S
C3309 C3310 1.366 . S
C3309 C3311 1.388 . S
C3310 C3309 1.366 . S
C3310 C3314 1.385 . S
C3311 H3286 0.951 . S
C3311 C3309 1.388 . S
C3311 C3312 1.366 . S
C3312 C3311 1.366 . S
C3312 C3313 1.414 . S
C3312 C3315 1.499 . S
C3313 H3287 0.950 . S
C3313 C3312 1.414 . S
C3313 C3314 1.374 . S
C3314 H3288 0.950 . S
C3314 C3310 1.385 . S
C3314 C3313 1.374 . S
C3315 C3312 1.499 . S
C3315 C3316 1.373 . S
C3315 C3317 1.389 . S
C3316 H3289 0.950 . S
C3316 C3302 1.377 . S
C3316 C3315 1.373 . S
C3317 C3301 1.377 . S
C3317 C3315 1.389 . S
C3317 C3318 1.524 . S
C3318 C3317 1.524 . S
C3318 C3319 1.397 . S
C3318 C3323 1.363 . S
C3319 H3290 0.950 . S
C3319 C3318 1.397 . S
C3319 C3320 1.334 . S
C3320 H3291 0.950 . S
C3320 C3319 1.334 . S
C3320 C3321 1.287 . S
C3321 C3320 1.287 . S
C3321 C3322 1.524 . S
C3321 H3324 0.999 . S
C3322 H3292 0.950 . S
C3322 C3321 1.524 . S
C3322 C3323 1.415 . S
C3323 H3293 0.950 . S
C3323 C3318 1.363 . S
C3323 C3322 1.415 . S
H3324 C3321 0.999 . S
H3325 C3306 0.913 . S
H3326 C3344 0.951 . S
H3327 C3346 0.951 . S
H3328 C3348 0.950 . S
H3329 C3349 0.950 . S
H3330 C3351 0.950 . S
H3331 C3354 0.950 . S
H3332 C3355 0.950 . S
H3333 C3357 0.950 . S
H3334 C3358 0.950 . S
H3335 C3359 0.951 . S
H3336 C3361 0.951 . S
H3337 C3363 0.950 . S
H3338 C3364 0.950 . S
H3339 C3366 0.950 . S
H3340 C3369 0.950 . S
H3341 C3370 0.950 . S
H3342 C3372 0.950 . S
H3343 C3373 0.950 . S
C3344 H3326 0.951 . S
C3344 C3345 1.366 . S
C3344 C3346 1.388 . S
C3345 C3344 1.366 . S
C3345 C3349 1.385 . S
C3346 H3327 0.951 . S
C3346 C3344 1.388 . S
C3346 C3347 1.366 . S
C3347 C3346 1.366 . S
C3347 C3348 1.414 . S
C3347 C3350 1.499 . S
C3348 H3328 0.950 . S
C3348 C3347 1.414 . S
C3348 C3349 1.374 . S
C3349 H3329 0.950 . S
C3349 C3345 1.385 . S
C3349 C3348 1.374 . S
C3350 C3347 1.499 . S
C3350 C3351 1.373 . S
C3350 C3352 1.389 . S
C3351 H3330 0.950 . S
C3351 C3350 1.373 . S
C3351 C3367 1.377 . S
C3352 C3350 1.389 . S
C3352 C3353 1.524 . S
C3352 C3366 1.377 . S
C3353 C3352 1.524 . S
C3353 C3354 1.397 . S
C3353 C3358 1.363 . S
C3354 H3331 0.950 . S
C3354 C3353 1.397 . S
C3354 C3355 1.334 . S
C3355 H3332 0.950 . S
C3355 C3354 1.334 . S
C3355 C3356 1.287 . S
C3356 C3355 1.287 . S
C3356 C3357 1.524 . S
C3356 H3375 0.913 . S
C3357 H3333 0.950 . S
C3357 C3356 1.524 . S
C3357 C3358 1.415 . S
C3358 H3334 0.950 . S
C3358 C3353 1.363 . S
C3358 C3357 1.415 . S
C3359 H3335 0.951 . S
C3359 C3360 1.366 . S
C3359 C3361 1.388 . S
C3360 C3359 1.366 . S
C3360 C3364 1.385 . S
C3361 H3336 0.951 . S
C3361 C3359 1.388 . S
C3361 C3362 1.366 . S
C3362 C3361 1.366 . S
C3362 C3363 1.414 . S
C3362 C3365 1.499 . S
C3363 H3337 0.950 . S
C3363 C3362 1.414 . S
C3363 C3364 1.374 . S
C3364 H3338 0.950 . S
C3364 C3360 1.385 . S
C3364 C3363 1.374 . S
C3365 C3362 1.499 . S
C3365 C3366 1.373 . S
C3365 C3367 1.389 . S
C3366 H3339 0.950 . S
C3366 C3352 1.377 . S
C3366 C3365 1.373 . S
C3367 C3351 1.377 . S
C3367 C3365 1.389 . S
C3367 C3368 1.524 . S
C3368 C3367 1.524 . S
C3368 C3369 1.397 . S
C3368 C3373 1.363 . S
C3369 H3340 0.950 . S
C3369 C3368 1.397 . S
C3369 C3370 1.334 . S
C3370 H3341 0.950 . S
C3370 C3369 1.334 . S
C3370 C3371 1.287 . S
C3371 C3370 1.287 . S
C3371 C3372 1.524 . S
C3371 H3374 0.999 . S
C3372 H3342 0.950 . S
C3372 C3371 1.524 . S
C3372 C3373 1.415 . S
C3373 H3343 0.950 . S
C3373 C3368 1.363 . S
C3373 C3372 1.415 . S
H3374 C3371 0.999 . S
H3375 C3356 0.913 . S
H3376 C3394 0.951 . S
H3377 C3396 0.951 . S
H3378 C3398 0.950 . S
H3379 C3399 0.950 . S
H3380 C3401 0.950 . S
H3381 C3404 0.950 . S
H3382 C3405 0.950 . S
H3383 C3407 0.950 . S
H3384 C3408 0.950 . S
H3385 C3409 0.951 . S
H3386 C3411 0.951 . S
H3387 C3413 0.950 . S
H3388 C3414 0.950 . S
H3389 C3416 0.950 . S
H3390 C3419 0.950 . S
H3391 C3420 0.950 . S
H3392 C3422 0.950 . S
H3393 C3423 0.950 . S
C3394 H3376 0.951 . S
C3394 C3395 1.366 . S
C3394 C3396 1.388 . S
C3395 C3394 1.366 . S
C3395 C3399 1.385 . S
C3396 H3377 0.951 . S
C3396 C3394 1.388 . S
C3396 C3397 1.366 . S
C3397 C3396 1.366 . S
C3397 C3398 1.414 . S
C3397 C3400 1.499 . S
C3398 H3378 0.950 . S
C3398 C3397 1.414 . S
C3398 C3399 1.374 . S
C3399 H3379 0.950 . S
C3399 C3395 1.385 . S
C3399 C3398 1.374 . S
C3400 C3397 1.499 . S
C3400 C3401 1.373 . S
C3400 C3402 1.389 . S
C3401 H3380 0.950 . S
C3401 C3400 1.373 . S
C3401 C3417 1.377 . S
C3402 C3400 1.389 . S
C3402 C3403 1.524 . S
C3402 C3416 1.377 . S
C3403 C3402 1.524 . S
C3403 C3404 1.397 . S
C3403 C3408 1.363 . S
C3404 H3381 0.950 . S
C3404 C3403 1.397 . S
C3404 C3405 1.334 . S
C3405 H3382 0.950 . S
C3405 C3404 1.334 . S
C3405 C3406 1.287 . S
C3406 C3405 1.287 . S
C3406 C3407 1.524 . S
C3406 H3425 0.913 . S
C3407 H3383 0.950 . S
C3407 C3406 1.524 . S
C3407 C3408 1.415 . S
C3408 H3384 0.950 . S
C3408 C3403 1.363 . S
C3408 C3407 1.415 . S
C3409 H3385 0.951 . S
C3409 C3410 1.366 . S
C3409 C3411 1.388 . S
C3410 C3409 1.366 . S
C3410 C3414 1.385 . S
C3411 H3386 0.951 . S
C3411 C3409 1.388 . S
C3411 C3412 1.366 . S
C3412 C3411 1.366 . S
C3412 C3413 1.414 . S
C3412 C3415 1.499 . S
C3413 H3387 0.950 . S
C3413 C3412 1.414 . S
C3413 C3414 1.374 . S
C3414 H3388 0.950 . S
C3414 C3410 1.385 . S
C3414 C3413 1.374 . S
C3415 C3412 1.499 . S
C3415 C3416 1.373 . S
C3415 C3417 1.389 . S
C3416 H3389 0.950 . S
C3416 C3402 1.377 . S
C3416 C3415 1.373 . S
C3417 C3401 1.377 . S
C3417 C3415 1.389 . S
C3417 C3418 1.524 . S
C3418 C3417 1.524 . S
C3418 C3419 1.397 . S
C3418 C3423 1.363 . S
C3419 H3390 0.950 . S
C3419 C3418 1.397 . S
C3419 C3420 1.334 . S
C3420 H3391 0.950 . S
C3420 C3419 1.334 . S
C3420 C3421 1.287 . S
C3421 C3420 1.287 . S
C3421 C3422 1.524 . S
C3421 H3424 0.999 . S
C3422 H3392 0.950 . S
C3422 C3421 1.524 . S
C3422 C3423 1.415 . S
C3423 H3393 0.950 . S
C3423 C3418 1.363 . S
C3423 C3422 1.415 . S
H3424 C3421 0.999 . S
H3425 C3406 0.913 . S
H3426 C3444 0.951 . S
H3427 C3446 0.951 . S
H3428 C3448 0.950 . S
H3429 C3449 0.950 . S
H3430 C3451 0.950 . S
H3431 C3454 0.950 . S
H3432 C3455 0.950 . S
H3433 C3457 0.950 . S
H3434 C3458 0.950 . S
H3435 C3459 0.951 . S
H3436 C3461 0.951 . S
H3437 C3463 0.950 . S
H3438 C3464 0.950 . S
H3439 C3466 0.950 . S
H3440 C3469 0.950 . S
H3441 C3470 0.950 . S
H3442 C3472 0.950 . S
H3443 C3473 0.950 . S
C3444 H3426 0.951 . S
C3444 C3445 1.366 . S
C3444 C3446 1.388 . S
C3445 C3444 1.366 . S
C3445 C3449 1.385 . S
C3446 H3427 0.951 . S
C3446 C3444 1.388 . S
C3446 C3447 1.366 . S
C3447 C3446 1.366 . S
C3447 C3448 1.414 . S
C3447 C3450 1.499 . S
C3448 H3428 0.950 . S
C3448 C3447 1.414 . S
C3448 C3449 1.374 . S
C3449 H3429 0.950 . S
C3449 C3445 1.385 . S
C3449 C3448 1.374 . S
C3450 C3447 1.499 . S
C3450 C3451 1.373 . S
C3450 C3452 1.389 . S
C3451 H3430 0.950 . S
C3451 C3450 1.373 . S
C3451 C3467 1.377 . S
C3452 C3450 1.389 . S
C3452 C3453 1.524 . S
C3452 C3466 1.377 . S
C3453 C3452 1.524 . S
C3453 C3454 1.397 . S
C3453 C3458 1.363 . S
C3454 H3431 0.950 . S
C3454 C3453 1.397 . S
C3454 C3455 1.334 . S
C3455 H3432 0.950 . S
C3455 C3454 1.334 . S
C3455 C3456 1.287 . S
C3456 C3455 1.287 . S
C3456 C3457 1.524 . S
C3456 H3475 0.913 . S
C3457 H3433 0.950 . S
C3457 C3456 1.524 . S
C3457 C3458 1.415 . S
C3458 H3434 0.950 . S
C3458 C3453 1.363 . S
C3458 C3457 1.415 . S
C3459 H3435 0.951 . S
C3459 C3460 1.366 . S
C3459 C3461 1.388 . S
C3460 C3459 1.366 . S
C3460 C3464 1.385 . S
C3461 H3436 0.951 . S
C3461 C3459 1.388 . S
C3461 C3462 1.366 . S
C3462 C3461 1.366 . S
C3462 C3463 1.414 . S
C3462 C3465 1.499 . S
C3463 H3437 0.950 . S
C3463 C3462 1.414 . S
C3463 C3464 1.374 . S
C3464 H3438 0.950 . S
C3464 C3460 1.385 . S
C3464 C3463 1.374 . S
C3465 C3462 1.499 . S
C3465 C3466 1.373 . S
C3465 C3467 1.389 . S
C3466 H3439 0.950 . S
C3466 C3452 1.377 . S
C3466 C3465 1.373 . S
C3467 C3451 1.377 . S
C3467 C3465 1.389 . S
C3467 C3468 1.524 . S
C3468 C3467 1.524 . S
C3468 C3469 1.397 . S
C3468 C3473 1.363 . S
C3469 H3440 0.950 . S
C3469 C3468 1.397 . S
C3469 C3470 1.334 . S
C3470 H3441 0.950 . S
C3470 C3469 1.334 . S
C3470 C3471 1.287 . S
C3471 C3470 1.287 . S
C3471 C3472 1.524 . S
C3471 H3474 0.999 . S
C3472 H3442 0.950 . S
C3472 C3471 1.524 . S
C3472 C3473 1.415 . S
C3473 H3443 0.950 . S
C3473 C3468 1.363 . S
C3473 C3472 1.415 . S
H3474 C3471 0.999 . S
H3475 C3456 0.913 . S
H3476 C3494 0.951 . S
H3477 C3496 0.951 . S
H3478 C3498 0.950 . S
H3479 C3499 0.950 . S
H3480 C3501 0.950 . S
H3481 C3504 0.950 . S
H3482 C3505 0.949 1_556 S
H3483 C3507 0.950 . S
H3484 C3508 0.950 . S
H3485 C3509 0.951 . S
H3486 C3511 0.951 . S
H3487 C3513 0.950 . S
H3488 C3514 0.950 . S
H3489 C3516 0.950 1_554 S
H3490 C3519 0.950 . S
H3491 C3520 0.950 . S
H3492 C3522 0.950 . S
H3493 C3523 0.950 . S
C3494 H3476 0.951 . S
C3494 C3495 1.366 . S
C3494 C3496 1.388 . S
C3495 C3494 1.366 . S
C3495 C3499 1.385 1_455 S
C3496 H3477 0.951 . S
C3496 C3494 1.388 . S
C3496 C3497 1.366 . S
C3497 C3496 1.366 . S
C3497 C3498 1.414 1_455 S
C3497 C3500 1.499 . S
C3498 H3478 0.950 . S
C3498 C3497 1.414 1_655 S
C3498 C3499 1.374 . S
C3499 H3479 0.950 . S
C3499 C3495 1.385 1_655 S
C3499 C3498 1.374 . S
C3500 C3497 1.499 . S
C3500 C3501 1.373 . S
C3500 C3502 1.389 . S
C3501 H3480 0.950 . S
C3501 C3500 1.373 . S
C3501 C3517 1.377 . S
C3502 C3500 1.389 . S
C3502 C3503 1.524 . S
C3502 C3516 1.377 . S
C3503 C3502 1.524 . S
C3503 C3504 1.397 1_455 S
C3503 C3508 1.363 1_556 S
C3504 H3481 0.950 . S
C3504 C3503 1.397 1_655 S
C3504 C3505 1.334 1_556 S
C3505 H3482 0.949 1_554 S
C3505 C3504 1.334 1_554 S
C3505 C3506 1.287 . S
C3506 C3505 1.287 . S
C3506 C3507 1.524 1_655 S
C3506 H3525 0.913 . S
C3507 H3483 0.950 . S
C3507 C3506 1.524 1_455 S
C3507 C3508 1.415 . S
C3508 H3484 0.950 . S
C3508 C3503 1.363 1_554 S
C3508 C3507 1.415 . S
C3509 H3485 0.951 . S
C3509 C3510 1.366 1_556 S
C3509 C3511 1.388 . S
C3510 C3509 1.366 1_554 S
C3510 C3514 1.385 . S
C3511 H3486 0.951 . S
C3511 C3509 1.388 . S
C3511 C3512 1.366 . S
C3512 C3511 1.366 . S
C3512 C3513 1.414 1_556 S
C3512 C3515 1.499 . S
C3513 H3487 0.950 . S
C3513 C3512 1.414 1_554 S
C3513 C3514 1.374 . S
C3514 H3488 0.950 . S
C3514 C3510 1.385 . S
C3514 C3513 1.374 . S
C3515 C3512 1.499 . S
C3515 C3516 1.373 . S
C3515 C3517 1.389 . S
C3516 H3489 0.950 1_556 S
C3516 C3502 1.377 . S
C3516 C3515 1.373 . S
C3517 C3501 1.377 . S
C3517 C3515 1.389 . S
C3517 C3518 1.524 . S
C3518 C3517 1.524 . S
C3518 C3519 1.397 . S
C3518 C3523 1.363 . S
C3519 H3490 0.950 . S
C3519 C3518 1.397 . S
C3519 C3520 1.334 . S
C3520 H3491 0.950 . S
C3520 C3519 1.334 . S
C3520 C3521 1.287 . S
C3521 C3520 1.287 . S
C3521 C3522 1.524 . S
C3521 H3524 0.999 . S
C3522 H3492 0.950 . S
C3522 C3521 1.524 . S
C3522 C3523 1.415 . S
C3523 H3493 0.950 . S
C3523 C3518 1.363 . S
C3523 C3522 1.415 . S
H3524 C3521 0.999 . S
H3525 C3506 0.913 . S
H3526 C3544 0.951 . S
H3527 C3546 0.951 . S
H3528 C3548 0.950 . S
H3529 C3549 0.950 . S
H3530 C3551 0.950 . S
H3531 C3554 0.950 . S
H3532 C3555 0.950 1_455 S
H3533 C3557 0.950 . S
H3534 C3558 0.950 . S
H3535 C3559 0.951 . S
H3536 C3561 0.951 . S
H3537 C3563 0.950 . S
H3538 C3564 0.950 . S
H3539 C3566 0.950 . S
H3540 C3569 0.950 . S
H3541 C3570 0.950 . S
H3542 C3572 0.950 . S
H3543 C3573 0.950 . S
C3544 H3526 0.951 . S
C3544 C3545 1.366 . S
C3544 C3546 1.388 1_455 S
C3545 C3544 1.366 . S
C3545 C3549 1.385 . S
C3546 H3527 0.951 . S
C3546 C3544 1.388 1_655 S
C3546 C3547 1.366 . S
C3547 C3546 1.366 . S
C3547 C3548 1.414 1_655 S
C3547 C3550 1.499 . S
C3548 H3528 0.950 . S
C3548 C3547 1.414 1_455 S
C3548 C3549 1.374 . S
C3549 H3529 0.950 . S
C3549 C3545 1.385 . S
C3549 C3548 1.374 . S
C3550 C3547 1.499 . S
C3550 C3551 1.373 . S
C3550 C3552 1.389 . S
C3551 H3530 0.950 . S
C3551 C3550 1.373 . S
C3551 C3567 1.377 . S
C3552 C3550 1.389 . S
C3552 C3553 1.524 . S
C3552 C3566 1.377 . S
C3553 C3552 1.524 . S
C3553 C3554 1.397 . S
C3553 C3558 1.363 . S
C3554 H3531 0.950 . S
C3554 C3553 1.397 . S
C3554 C3555 1.334 . S
C3555 H3532 0.950 1_655 S
C3555 C3554 1.334 . S
C3555 C3556 1.287 . S
C3556 C3555 1.287 . S
C3556 C3557 1.524 . S
C3556 H3575 0.913 . S
C3557 H3533 0.950 . S
C3557 C3556 1.524 . S
C3557 C3558 1.415 . S
C3558 H3534 0.950 . S
C3558 C3553 1.363 . S
C3558 C3557 1.415 . S
C3559 H3535 0.951 . S
C3559 C3560 1.366 . S
C3559 C3561 1.388 . S
C3560 C3559 1.366 . S
C3560 C3564 1.385 . S
C3561 H3536 0.951 . S
C3561 C3559 1.388 . S
C3561 C3562 1.366 . S
C3562 C3561 1.366 . S
C3562 C3563 1.414 . S
C3562 C3565 1.499 . S
C3563 H3537 0.950 . S
C3563 C3562 1.414 . S
C3563 C3564 1.374 . S
C3564 H3538 0.950 . S
C3564 C3560 1.385 . S
C3564 C3563 1.374 . S
C3565 C3562 1.499 . S
C3565 C3566 1.373 . S
C3565 C3567 1.389 . S
C3566 H3539 0.950 . S
C3566 C3552 1.377 . S
C3566 C3565 1.373 . S
C3567 C3551 1.377 . S
C3567 C3565 1.389 . S
C3567 C3568 1.524 . S
C3568 C3567 1.524 . S
C3568 C3569 1.397 . S
C3568 C3573 1.363 . S
C3569 H3540 0.950 . S
C3569 C3568 1.397 . S
C3569 C3570 1.334 . S
C3570 H3541 0.950 . S
C3570 C3569 1.334 . S
C3570 C3571 1.287 . S
C3571 C3570 1.287 . S
C3571 C3572 1.524 . S
C3571 H3574 0.999 . S
C3572 H3542 0.950 . S
C3572 C3571 1.524 . S
C3572 C3573 1.415 . S
C3573 H3543 0.950 . S
C3573 C3568 1.363 . S
C3573 C3572 1.415 . S
H3574 C3571 0.999 . S
H3575 C3556 0.913 . S
H3576 C3594 0.951 . S
H3577 C3596 0.951 . S
H3578 C3598 0.950 . S
H3579 C3599 0.950 . S
H3580 C3601 0.950 . S
H3581 C3604 0.950 . S
H3582 C3605 0.950 . S
H3583 C3607 0.950 . S
H3584 C3608 0.950 . S
H3585 C3609 0.951 . S
H3586 C3611 0.951 . S
H3587 C3613 0.950 . S
H3588 C3614 0.950 . S
H3589 C3616 0.950 . S
H3590 C3619 0.950 . S
H3591 C3620 0.950 . S
H3592 C3622 0.950 . S
H3593 C3623 0.950 . S
C3594 H3576 0.951 . S
C3594 C3595 1.366 . S
C3594 C3596 1.388 . S
C3595 C3594 1.366 . S
C3595 C3599 1.385 . S
C3596 H3577 0.951 . S
C3596 C3594 1.388 . S
C3596 C3597 1.366 . S
C3597 C3596 1.366 . S
C3597 C3598 1.414 . S
C3597 C3600 1.499 . S
C3598 H3578 0.950 . S
C3598 C3597 1.414 . S
C3598 C3599 1.374 . S
C3599 H3579 0.950 . S
C3599 C3595 1.385 . S
C3599 C3598 1.374 . S
C3600 C3597 1.499 . S
C3600 C3601 1.373 . S
C3600 C3602 1.389 . S
C3601 H3580 0.950 . S
C3601 C3600 1.373 . S
C3601 C3617 1.377 . S
C3602 C3600 1.389 . S
C3602 C3603 1.524 . S
C3602 C3616 1.377 . S
C3603 C3602 1.524 . S
C3603 C3604 1.397 . S
C3603 C3608 1.363 . S
C3604 H3581 0.950 . S
C3604 C3603 1.397 . S
C3604 C3605 1.334 . S
C3605 H3582 0.950 . S
C3605 C3604 1.334 . S
C3605 C3606 1.287 . S
C3606 C3605 1.287 . S
C3606 C3607 1.524 . S
C3606 H3625 0.913 . S
C3607 H3583 0.950 . S
C3607 C3606 1.524 . S
C3607 C3608 1.415 . S
C3608 H3584 0.950 . S
C3608 C3603 1.363 . S
C3608 C3607 1.415 . S
C3609 H3585 0.951 . S
C3609 C3610 1.366 . S
C3609 C3611 1.388 . S
C3610 C3609 1.366 . S
C3610 C3614 1.385 . S
C3611 H3586 0.951 . S
C3611 C3609 1.388 . S
C3611 C3612 1.366 . S
C3612 C3611 1.366 . S
C3612 C3613 1.414 . S
C3612 C3615 1.499 . S
C3613 H3587 0.950 . S
C3613 C3612 1.414 . S
C3613 C3614 1.374 . S
C3614 H3588 0.950 . S
C3614 C3610 1.385 . S
C3614 C3613 1.374 . S
C3615 C3612 1.499 . S
C3615 C3616 1.373 . S
C3615 C3617 1.389 . S
C3616 H3589 0.950 . S
C3616 C3602 1.377 . S
C3616 C3615 1.373 . S
C3617 C3601 1.377 . S
C3617 C3615 1.389 . S
C3617 C3618 1.524 . S
C3618 C3617 1.524 . S
C3618 C3619 1.397 . S
C3618 C3623 1.363 . S
C3619 H3590 0.950 . S
C3619 C3618 1.397 . S
C3619 C3620 1.334 . S
C3620 H3591 0.950 . S
C3620 C3619 1.334 . S
C3620 C3621 1.287 . S
C3621 C3620 1.287 . S
C3621 C3622 1.524 . S
C3621 H3624 0.999 . S
C3622 H3592 0.950 . S
C3622 C3621 1.524 . S
C3622 C3623 1.415 . S
C3623 H3593 0.950 . S
C3623 C3618 1.363 . S
C3623 C3622 1.415 . S
H3624 C3621 0.999 . S
H3625 C3606 0.913 . S
H3626 C3644 0.951 . S
H3627 C3646 0.951 . S
H3628 C3648 0.950 . S
H3629 C3649 0.950 . S
H3630 C3651 0.950 . S
H3631 C3654 0.950 . S
H3632 C3655 0.950 . S
H3633 C3657 0.950 . S
H3634 C3658 0.950 . S
H3635 C3659 0.951 . S
H3636 C3661 0.951 . S
H3637 C3663 0.950 . S
H3638 C3664 0.950 . S
H3639 C3666 0.950 . S
H3640 C3669 0.950 . S
H3641 C3670 0.950 . S
H3642 C3672 0.950 . S
H3643 C3673 0.950 . S
C3644 H3626 0.951 . S
C3644 C3645 1.366 . S
C3644 C3646 1.388 . S
C3645 C3644 1.366 . S
C3645 C3649 1.385 . S
C3646 H3627 0.951 . S
C3646 C3644 1.388 . S
C3646 C3647 1.366 . S
C3647 C3646 1.366 . S
C3647 C3648 1.414 . S
C3647 C3650 1.499 . S
C3648 H3628 0.950 . S
C3648 C3647 1.414 . S
C3648 C3649 1.374 . S
C3649 H3629 0.950 . S
C3649 C3645 1.385 . S
C3649 C3648 1.374 . S
C3650 C3647 1.499 . S
C3650 C3651 1.373 . S
C3650 C3652 1.389 . S
C3651 H3630 0.950 . S
C3651 C3650 1.373 . S
C3651 C3667 1.377 . S
C3652 C3650 1.389 . S
C3652 C3653 1.524 . S
C3652 C3666 1.377 . S
C3653 C3652 1.524 . S
C3653 C3654 1.397 . S
C3653 C3658 1.363 . S
C3654 H3631 0.950 . S
C3654 C3653 1.397 . S
C3654 C3655 1.334 . S
C3655 H3632 0.950 . S
C3655 C3654 1.334 . S
C3655 C3656 1.287 . S
C3656 C3655 1.287 . S
C3656 C3657 1.524 . S
C3656 H3675 0.913 . S
C3657 H3633 0.950 . S
C3657 C3656 1.524 . S
C3657 C3658 1.415 . S
C3658 H3634 0.950 . S
C3658 C3653 1.363 . S
C3658 C3657 1.415 . S
C3659 H3635 0.951 . S
C3659 C3660 1.366 . S
C3659 C3661 1.388 . S
C3660 C3659 1.366 . S
C3660 C3664 1.385 . S
C3661 H3636 0.951 . S
C3661 C3659 1.388 . S
C3661 C3662 1.366 . S
C3662 C3661 1.366 . S
C3662 C3663 1.414 . S
C3662 C3665 1.499 . S
C3663 H3637 0.950 . S
C3663 C3662 1.414 . S
C3663 C3664 1.374 . S
C3664 H3638 0.950 . S
C3664 C3660 1.385 . S
C3664 C3663 1.374 . S
C3665 C3662 1.499 . S
C3665 C3666 1.373 . S
C3665 C3667 1.389 . S
C3666 H3639 0.950 . S
C3666 C3652 1.377 . S
C3666 C3665 1.373 . S
C3667 C3651 1.377 . S
C3667 C3665 1.389 . S
C3667 C3668 1.524 . S
C3668 C3667 1.524 . S
C3668 C3669 1.397 . S
C3668 C3673 1.363 . S
C3669 H3640 0.950 . S
C3669 C3668 1.397 . S
C3669 C3670 1.334 . S
C3670 H3641 0.950 . S
C3670 C3669 1.334 . S
C3670 C3671 1.287 . S
C3671 C3670 1.287 . S
C3671 C3672 1.524 . S
C3671 H3674 0.999 . S
C3672 H3642 0.950 . S
C3672 C3671 1.524 . S
C3672 C3673 1.415 . S
C3673 H3643 0.950 . S
C3673 C3668 1.363 . S
C3673 C3672 1.415 . S
H3674 C3671 0.999 . S
H3675 C3656 0.913 . S
H3676 C3694 0.951 . S
H3677 C3696 0.951 . S
H3678 C3698 0.950 . S
H3679 C3699 0.950 . S
H3680 C3701 0.950 . S
H3681 C3704 0.950 . S
H3682 C3705 0.950 . S
H3683 C3707 0.950 . S
H3684 C3708 0.950 . S
H3685 C3709 0.951 . S
H3686 C3711 0.951 . S
H3687 C3713 0.950 . S
H3688 C3714 0.950 . S
H3689 C3716 0.950 . S
H3690 C3719 0.950 . S
H3691 C3720 0.950 . S
H3692 C3722 0.950 . S
H3693 C3723 0.950 . S
C3694 H3676 0.951 . S
C3694 C3695 1.366 . S
C3694 C3696 1.388 . S
C3695 C3694 1.366 . S
C3695 C3699 1.385 . S
C3696 H3677 0.951 . S
C3696 C3694 1.388 . S
C3696 C3697 1.366 . S
C3697 C3696 1.366 . S
C3697 C3698 1.414 . S
C3697 C3700 1.499 . S
C3698 H3678 0.950 . S
C3698 C3697 1.414 . S
C3698 C3699 1.374 . S
C3699 H3679 0.950 . S
C3699 C3695 1.385 . S
C3699 C3698 1.374 . S
C3700 C3697 1.499 . S
C3700 C3701 1.373 . S
C3700 C3702 1.389 . S
C3701 H3680 0.950 . S
C3701 C3700 1.373 . S
C3701 C3717 1.377 . S
C3702 C3700 1.389 . S
C3702 C3703 1.524 . S
C3702 C3716 1.377 . S
C3703 C3702 1.524 . S
C3703 C3704 1.397 . S
C3703 C3708 1.363 . S
C3704 H3681 0.950 . S
C3704 C3703 1.397 . S
C3704 C3705 1.334 . S
C3705 H3682 0.950 . S
C3705 C3704 1.334 . S
C3705 C3706 1.287 . S
C3706 C3705 1.287 . S
C3706 C3707 1.524 . S
C3706 H3725 0.913 . S
C3707 H3683 0.950 . S
C3707 C3706 1.524 . S
C3707 C3708 1.415 . S
C3708 H3684 0.950 . S
C3708 C3703 1.363 . S
C3708 C3707 1.415 . S
C3709 H3685 0.951 . S
C3709 C3710 1.366 . S
C3709 C3711 1.388 . S
C3710 C3709 1.366 . S
C3710 C3714 1.385 . S
C3711 H3686 0.951 . S
C3711 C3709 1.388 . S
C3711 C3712 1.366 . S
C3712 C3711 1.366 . S
C3712 C3713 1.414 . S
C3712 C3715 1.499 . S
C3713 H3687 0.950 . S
C3713 C3712 1.414 . S
C3713 C3714 1.374 . S
C3714 H3688 0.950 . S
C3714 C3710 1.385 . S
C3714 C3713 1.374 . S
C3715 C3712 1.499 . S
C3715 C3716 1.373 . S
C3715 C3717 1.389 . S
C3716 H3689 0.950 . S
C3716 C3702 1.377 . S
C3716 C3715 1.373 . S
C3717 C3701 1.377 . S
C3717 C3715 1.389 . S
C3717 C3718 1.524 1_455 S
C3718 C3717 1.524 1_655 S
C3718 C3719 1.397 . S
C3718 C3723 1.363 . S
C3719 H3690 0.950 . S
C3719 C3718 1.397 . S
C3719 C3720 1.334 . S
C3720 H3691 0.950 . S
C3720 C3719 1.334 . S
C3720 C3721 1.287 . S
C3721 C3720 1.287 . S
C3721 C3722 1.524 . S
C3721 H3724 0.999 . S
C3722 H3692 0.950 . S
C3722 C3721 1.524 . S
C3722 C3723 1.415 . S
C3723 H3693 0.950 . S
C3723 C3718 1.363 . S
C3723 C3722 1.415 . S
H3724 C3721 0.999 . S
H3725 C3706 0.913 . S
H3726 C3744 0.951 . S
H3727 C3746 0.951 . S
H3728 C3748 0.950 . S
H3729 C3749 0.950 . S
H3730 C3751 0.950 . S
H3731 C3754 0.950 . S
H3732 C3755 0.950 . S
H3733 C3757 0.950 . S
H3734 C3758 0.950 . S
H3735 C3759 0.951 . S
H3736 C3761 0.951 . S
H3737 C3763 0.950 . S
H3738 C3764 0.950 . S
H3739 C3766 0.950 . S
H3740 C3769 0.950 . S
H3741 C3770 0.950 . S
H3742 C3772 0.950 . S
H3743 C3773 0.950 . S
C3744 H3726 0.951 . S
C3744 C3745 1.366 . S
C3744 C3746 1.388 . S
C3745 C3744 1.366 . S
C3745 C3749 1.385 . S
C3746 H3727 0.951 . S
C3746 C3744 1.388 . S
C3746 C3747 1.366 . S
C3747 C3746 1.366 . S
C3747 C3748 1.414 . S
C3747 C3750 1.499 . S
C3748 H3728 0.950 . S
C3748 C3747 1.414 . S
C3748 C3749 1.374 . S
C3749 H3729 0.950 . S
C3749 C3745 1.385 . S
C3749 C3748 1.374 . S
C3750 C3747 1.499 . S
C3750 C3751 1.373 . S
C3750 C3752 1.389 . S
C3751 H3730 0.950 . S
C3751 C3750 1.373 . S
C3751 C3767 1.377 . S
C3752 C3750 1.389 . S
C3752 C3753 1.524 . S
C3752 C3766 1.377 . S
C3753 C3752 1.524 . S
C3753 C3754 1.397 . S
C3753 C3758 1.363 . S
C3754 H3731 0.950 . S
C3754 C3753 1.397 . S
C3754 C3755 1.334 . S
C3755 H3732 0.950 . S
C3755 C3754 1.334 . S
C3755 C3756 1.287 . S
C3756 C3755 1.287 . S
C3756 C3757 1.524 . S
C3756 H3775 0.913 . S
C3757 H3733 0.950 . S
C3757 C3756 1.524 . S
C3757 C3758 1.415 . S
C3758 H3734 0.950 . S
C3758 C3753 1.363 . S
C3758 C3757 1.415 . S
C3759 H3735 0.951 . S
C3759 C3760 1.366 . S
C3759 C3761 1.388 . S
C3760 C3759 1.366 . S
C3760 C3764 1.385 . S
C3761 H3736 0.951 . S
C3761 C3759 1.388 . S
C3761 C3762 1.366 . S
C3762 C3761 1.366 . S
C3762 C3763 1.414 . S
C3762 C3765 1.499 . S
C3763 H3737 0.950 . S
C3763 C3762 1.414 . S
C3763 C3764 1.374 . S
C3764 H3738 0.950 . S
C3764 C3760 1.385 . S
C3764 C3763 1.374 . S
C3765 C3762 1.499 . S
C3765 C3766 1.373 . S
C3765 C3767 1.389 . S
C3766 H3739 0.950 . S
C3766 C3752 1.377 . S
C3766 C3765 1.373 . S
C3767 C3751 1.377 . S
C3767 C3765 1.389 . S
C3767 C3768 1.524 . S
C3768 C3767 1.524 . S
C3768 C3769 1.397 . S
C3768 C3773 1.363 . S
C3769 H3740 0.950 . S
C3769 C3768 1.397 . S
C3769 C3770 1.334 . S
C3770 H3741 0.950 . S
C3770 C3769 1.334 . S
C3770 C3771 1.287 . S
C3771 C3770 1.287 . S
C3771 C3772 1.524 . S
C3771 H3774 0.999 . S
C3772 H3742 0.950 . S
C3772 C3771 1.524 . S
C3772 C3773 1.415 . S
C3773 H3743 0.950 . S
C3773 C3768 1.363 . S
C3773 C3772 1.415 . S
H3774 C3771 0.999 . S
H3775 C3756 0.913 . S
H3776 C3794 0.951 . S
H3777 C3796 0.951 . S
H3778 C3798 0.950 . S
H3779 C3799 0.950 . S
H3780 C3801 0.950 . S
H3781 C3804 0.950 . S
H3782 C3805 0.950 . S
H3783 C3807 0.950 . S
H3784 C3808 0.950 . S
H3785 C3809 0.951 . S
H3786 C3811 0.951 . S
H3787 C3813 0.950 . S
H3788 C3814 0.950 . S
H3789 C3816 0.950 . S
H3790 C3819 0.950 . S
H3791 C3820 0.950 . S
H3792 C3822 0.950 . S
H3793 C3823 0.950 . S
C3794 H3776 0.951 . S
C3794 C3795 1.366 . S
C3794 C3796 1.388 . S
C3795 C3794 1.366 . S
C3795 C3799 1.385 . S
C3796 H3777 0.951 . S
C3796 C3794 1.388 . S
C3796 C3797 1.366 . S
C3797 C3796 1.366 . S
C3797 C3798 1.414 . S
C3797 C3800 1.499 . S
C3798 H3778 0.950 . S
C3798 C3797 1.414 . S
C3798 C3799 1.374 . S
C3799 H3779 0.950 . S
C3799 C3795 1.385 . S
C3799 C3798 1.374 . S
C3800 C3797 1.499 . S
C3800 C3801 1.373 . S
C3800 C3802 1.389 . S
C3801 H3780 0.950 . S
C3801 C3800 1.373 . S
C3801 C3817 1.377 . S
C3802 C3800 1.389 . S
C3802 C3803 1.524 . S
C3802 C3816 1.377 . S
C3803 C3802 1.524 . S
C3803 C3804 1.397 . S
C3803 C3808 1.363 . S
C3804 H3781 0.950 . S
C3804 C3803 1.397 . S
C3804 C3805 1.334 . S
C3805 H3782 0.950 . S
C3805 C3804 1.334 . S
C3805 C3806 1.287 . S
C3806 C3805 1.287 . S
C3806 C3807 1.524 . S
C3806 H3825 0.913 . S
C3807 H3783 0.950 . S
C3807 C3806 1.524 . S
C3807 C3808 1.415 . S
C3808 H3784 0.950 . S
C3808 C3803 1.363 . S
C3808 C3807 1.415 . S
C3809 H3785 0.951 . S
C3809 C3810 1.366 . S
C3809 C3811 1.388 . S
C3810 C3809 1.366 . S
C3810 C3814 1.385 . S
C3811 H3786 0.951 . S
C3811 C3809 1.388 . S
C3811 C3812 1.366 . S
C3812 C3811 1.366 . S
C3812 C3813 1.414 . S
C3812 C3815 1.499 . S
C3813 H3787 0.950 . S
C3813 C3812 1.414 . S
C3813 C3814 1.374 . S
C3814 H3788 0.950 . S
C3814 C3810 1.385 . S
C3814 C3813 1.374 . S
C3815 C3812 1.499 . S
C3815 C3816 1.373 . S
C3815 C3817 1.389 . S
C3816 H3789 0.950 . S
C3816 C3802 1.377 . S
C3816 C3815 1.373 . S
C3817 C3801 1.377 . S
C3817 C3815 1.389 . S
C3817 C3818 1.524 . S
C3818 C3817 1.524 . S
C3818 C3819 1.397 . S
C3818 C3823 1.363 . S
C3819 H3790 0.950 . S
C3819 C3818 1.397 . S
C3819 C3820 1.334 . S
C3820 H3791 0.950 . S
C3820 C3819 1.334 . S
C3820 C3821 1.287 . S
C3821 C3820 1.287 . S
C3821 C3822 1.524 . S
C3821 H3824 0.999 . S
C3822 H3792 0.950 . S
C3822 C3821 1.524 . S
C3822 C3823 1.415 . S
C3823 H3793 0.950 . S
C3823 C3818 1.363 . S
C3823 C3822 1.415 . S
H3824 C3821 0.999 . S
H3825 C3806 0.913 . S
H3826 C3844 0.951 . S
H3827 C3846 0.951 . S
H3828 C3848 0.950 . S
H3829 C3849 0.950 . S
H3830 C3851 0.950 . S
H3831 C3854 0.950 . S
H3832 C3855 0.950 . S
H3833 C3857 0.950 . S
H3834 C3858 0.950 . S
H3835 C3859 0.951 . S
H3836 C3861 0.951 . S
H3837 C3863 0.950 . S
H3838 C3864 0.950 . S
H3839 C3866 0.950 . S
H3840 C3869 0.950 . S
H3841 C3870 0.950 . S
H3842 C3872 0.950 . S
H3843 C3873 0.950 . S
C3844 H3826 0.951 . S
C3844 C3845 1.366 1_556 S
C3844 C3846 1.388 . S
C3845 C3844 1.366 1_554 S
C3845 C3849 1.385 . S
C3846 H3827 0.951 . S
C3846 C3844 1.388 . S
C3846 C3847 1.366 . S
C3847 C3846 1.366 . S
C3847 C3848 1.414 . S
C3847 C3850 1.499 . S
C3848 H3828 0.950 . S
C3848 C3847 1.414 . S
C3848 C3849 1.374 1_556 S
C3849 H3829 0.950 . S
C3849 C3845 1.385 . S
C3849 C3848 1.374 1_554 S
C3850 C3847 1.499 . S
C3850 C3851 1.373 . S
C3850 C3852 1.389 . S
C3851 H3830 0.950 . S
C3851 C3850 1.373 . S
C3851 C3867 1.377 . S
C3852 C3850 1.389 . S
C3852 C3853 1.524 . S
C3852 C3866 1.377 . S
C3853 C3852 1.524 . S
C3853 C3854 1.397 . S
C3853 C3858 1.363 . S
C3854 H3831 0.950 . S
C3854 C3853 1.397 . S
C3854 C3855 1.334 . S
C3855 H3832 0.950 . S
C3855 C3854 1.334 . S
C3855 C3856 1.287 . S
C3856 C3855 1.287 . S
C3856 C3857 1.524 . S
C3856 H3875 0.913 . S
C3857 H3833 0.950 . S
C3857 C3856 1.524 . S
C3857 C3858 1.415 . S
C3858 H3834 0.950 . S
C3858 C3853 1.363 . S
C3858 C3857 1.415 . S
C3859 H3835 0.951 . S
C3859 C3860 1.366 . S
C3859 C3861 1.388 . S
C3860 C3859 1.366 . S
C3860 C3864 1.385 . S
C3861 H3836 0.951 . S
C3861 C3859 1.388 . S
C3861 C3862 1.366 . S
C3862 C3861 1.366 . S
C3862 C3863 1.414 . S
C3862 C3865 1.499 . S
C3863 H3837 0.950 . S
C3863 C3862 1.414 . S
C3863 C3864 1.374 . S
C3864 H3838 0.950 . S
C3864 C3860 1.385 . S
C3864 C3863 1.374 . S
C3865 C3862 1.499 . S
C3865 C3866 1.373 . S
C3865 C3867 1.389 . S
C3866 H3839 0.950 . S
C3866 C3852 1.377 . S
C3866 C3865 1.373 . S
C3867 C3851 1.377 . S
C3867 C3865 1.389 . S
C3867 C3868 1.524 . S
C3868 C3867 1.524 . S
C3868 C3869 1.397 . S
C3868 C3873 1.363 . S
C3869 H3840 0.950 . S
C3869 C3868 1.397 . S
C3869 C3870 1.334 . S
C3870 H3841 0.950 . S
C3870 C3869 1.334 . S
C3870 C3871 1.287 . S
C3871 C3870 1.287 . S
C3871 C3872 1.524 . S
C3871 H3874 0.999 . S
C3872 H3842 0.950 . S
C3872 C3871 1.524 . S
C3872 C3873 1.415 . S
C3873 H3843 0.950 . S
C3873 C3868 1.363 . S
C3873 C3872 1.415 . S
H3874 C3871 0.999 . S
H3875 C3856 0.913 . S
H3876 C3894 0.951 . S
H3877 C3896 0.951 . S
H3878 C3898 0.950 . S
H3879 C3899 0.950 . S
H3880 C3901 0.950 . S
H3881 C3904 0.950 . S
H3882 C3905 0.950 . S
H3883 C3907 0.950 . S
H3884 C3908 0.950 . S
H3885 C3909 0.951 . S
H3886 C3911 0.951 . S
H3887 C3913 0.950 . S
H3888 C3914 0.950 . S
H3889 C3916 0.950 . S
H3890 C3919 0.950 . S
H3891 C3920 0.950 . S
H3892 C3922 0.950 . S
H3893 C3923 0.950 . S
C3894 H3876 0.951 . S
C3894 C3895 1.366 . S
C3894 C3896 1.388 . S
C3895 C3894 1.366 . S
C3895 C3899 1.385 . S
C3896 H3877 0.951 . S
C3896 C3894 1.388 . S
C3896 C3897 1.366 . S
C3897 C3896 1.366 . S
C3897 C3898 1.414 . S
C3897 C3900 1.499 . S
C3898 H3878 0.950 . S
C3898 C3897 1.414 . S
C3898 C3899 1.374 . S
C3899 H3879 0.950 . S
C3899 C3895 1.385 . S
C3899 C3898 1.374 . S
C3900 C3897 1.499 . S
C3900 C3901 1.373 . S
C3900 C3902 1.389 . S
C3901 H3880 0.950 . S
C3901 C3900 1.373 . S
C3901 C3917 1.377 . S
C3902 C3900 1.389 . S
C3902 C3903 1.524 . S
C3902 C3916 1.377 . S
C3903 C3902 1.524 . S
C3903 C3904 1.397 . S
C3903 C3908 1.363 . S
C3904 H3881 0.950 . S
C3904 C3903 1.397 . S
C3904 C3905 1.334 . S
C3905 H3882 0.950 . S
C3905 C3904 1.334 . S
C3905 C3906 1.287 . S
C3906 C3905 1.287 . S
C3906 C3907 1.524 . S
C3906 H3925 0.913 . S
C3907 H3883 0.950 . S
C3907 C3906 1.524 . S
C3907 C3908 1.415 . S
C3908 H3884 0.950 . S
C3908 C3903 1.363 . S
C3908 C3907 1.415 . S
C3909 H3885 0.951 . S
C3909 C3910 1.366 . S
C3909 C3911 1.388 . S
C3910 C3909 1.366 . S
C3910 C3914 1.385 . S
C3911 H3886 0.951 . S
C3911 C3909 1.388 . S
C3911 C3912 1.366 . S
C3912 C3911 1.366 . S
C3912 C3913 1.414 . S
C3912 C3915 1.499 . S
C3913 H3887 0.950 . S
C3913 C3912 1.414 . S
C3913 C3914 1.374 . S
C3914 H3888 0.950 . S
C3914 C3910 1.385 . S
C3914 C3913 1.374 . S
C3915 C3912 1.499 . S
C3915 C3916 1.373 . S
C3915 C3917 1.389 . S
C3916 H3889 0.950 . S
C3916 C3902 1.377 . S
C3916 C3915 1.373 . S
C3917 C3901 1.377 . S
C3917 C3915 1.389 . S
C3917 C3918 1.524 . S
C3918 C3917 1.524 . S
C3918 C3919 1.397 . S
C3918 C3923 1.363 . S
C3919 H3890 0.950 . S
C3919 C3918 1.397 . S
C3919 C3920 1.334 . S
C3920 H3891 0.950 . S
C3920 C3919 1.334 . S
C3920 C3921 1.287 . S
C3921 C3920 1.287 . S
C3921 C3922 1.524 . S
C3921 H3924 0.999 . S
C3922 H3892 0.950 . S
C3922 C3921 1.524 . S
C3922 C3923 1.415 . S
C3923 H3893 0.950 . S
C3923 C3918 1.363 . S
C3923 C3922 1.415 . S
H3924 C3921 0.999 . S
H3925 C3906 0.913 . S
H3926 C3944 0.951 . S
H3927 C3946 0.951 . S
H3928 C3948 0.950 . S
H3929 C3949 0.950 . S
H3930 C3951 0.950 . S
H3931 C3954 0.950 . S
H3932 C3955 0.950 . S
H3933 C3957 0.950 . S
H3934 C3958 0.950 . S
H3935 C3959 0.951 . S
H3936 C3961 0.951 . S
H3937 C3963 0.950 . S
H3938 C3964 0.950 . S
H3939 C3966 0.950 . S
H3940 C3969 0.950 . S
H3941 C3970 0.950 . S
H3942 C3972 0.950 . S
H3943 C3973 0.950 . S
C3944 H3926 0.951 . S
C3944 C3945 1.366 . S
C3944 C3946 1.388 . S
C3945 C3944 1.366 . S
C3945 C3949 1.385 . S
C3946 H3927 0.951 . S
C3946 C3944 1.388 . S
C3946 C3947 1.366 . S
C3947 C3946 1.366 . S
C3947 C3948 1.414 . S
C3947 C3950 1.499 . S
C3948 H3928 0.950 . S
C3948 C3947 1.414 . S
C3948 C3949 1.374 . S
C3949 H3929 0.950 . S
C3949 C3945 1.385 . S
C3949 C3948 1.374 . S
C3950 C3947 1.499 . S
C3950 C3951 1.373 . S
C3950 C3952 1.389 . S
C3951 H3930 0.950 . S
C3951 C3950 1.373 . S
C3951 C3967 1.377 . S
C3952 C3950 1.389 . S
C3952 C3953 1.524 . S
C3952 C3966 1.377 . S
C3953 C3952 1.524 . S
C3953 C3954 1.397 . S
C3953 C3958 1.363 . S
C3954 H3931 0.950 . S
C3954 C3953 1.397 . S
C3954 C3955 1.334 . S
C3955 H3932 0.950 . S
C3955 C3954 1.334 . S
C3955 C3956 1.287 . S
C3956 C3955 1.287 . S
C3956 C3957 1.524 . S
C3956 H3975 0.913 . S
C3957 H3933 0.950 . S
C3957 C3956 1.524 . S
C3957 C3958 1.415 . S
C3958 H3934 0.950 . S
C3958 C3953 1.363 . S
C3958 C3957 1.415 . S
C3959 H3935 0.951 . S
C3959 C3960 1.366 . S
C3959 C3961 1.388 . S
C3960 C3959 1.366 . S
C3960 C3964 1.385 . S
C3961 H3936 0.951 . S
C3961 C3959 1.388 . S
C3961 C3962 1.366 . S
C3962 C3961 1.366 . S
C3962 C3963 1.414 . S
C3962 C3965 1.499 . S
C3963 H3937 0.950 . S
C3963 C3962 1.414 . S
C3963 C3964 1.374 . S
C3964 H3938 0.950 . S
C3964 C3960 1.385 . S
C3964 C3963 1.374 . S
C3965 C3962 1.499 . S
C3965 C3966 1.373 . S
C3965 C3967 1.389 . S
C3966 H3939 0.950 . S
C3966 C3952 1.377 . S
C3966 C3965 1.373 . S
C3967 C3951 1.377 . S
C3967 C3965 1.389 . S
C3967 C3968 1.524 . S
C3968 C3967 1.524 . S
C3968 C3969 1.397 . S
C3968 C3973 1.363 . S
C3969 H3940 0.950 . S
C3969 C3968 1.397 . S
C3969 C3970 1.334 . S
C3970 H3941 0.950 . S
C3970 C3969 1.334 . S
C3970 C3971 1.287 . S
C3971 C3970 1.287 . S
C3971 C3972 1.524 . S
C3971 H3974 0.999 . S
C3972 H3942 0.950 . S
C3972 C3971 1.524 . S
C3972 C3973 1.415 . S
C3973 H3943 0.950 . S
C3973 C3968 1.363 . S
C3973 C3972 1.415 . S
H3974 C3971 0.999 . S
H3975 C3956 0.913 . S
H3976 C3994 0.951 . S
H3977 C3996 0.951 . S
H3978 C3998 0.950 . S
H3979 C3999 0.950 . S
H3980 C4001 0.950 . S
H3981 C4004 0.950 . S
H3982 C4005 0.950 . S
H3983 C4007 0.950 . S
H3984 C4008 0.950 . S
H3985 C4009 0.951 . S
H3986 C4011 0.951 . S
H3987 C4013 0.950 . S
H3988 C4014 0.950 . S
H3989 C4016 0.950 . S
H3990 C4019 0.950 . S
H3991 C4020 0.950 . S
H3992 C4022 0.950 . S
H3993 C4023 0.950 . S
C3994 H3976 0.951 . S
C3994 C3995 1.366 . S
C3994 C3996 1.388 . S
C3995 C3994 1.366 . S
C3995 C3999 1.385 . S
C3996 H3977 0.951 . S
C3996 C3994 1.388 . S
C3996 C3997 1.366 . S
C3997 C3996 1.366 . S
C3997 C3998 1.414 . S
C3997 C4000 1.499 . S
C3998 H3978 0.950 . S
C3998 C3997 1.414 . S
C3998 C3999 1.374 . S
C3999 H3979 0.950 . S
C3999 C3995 1.385 . S
C3999 C3998 1.374 . S
C4000 C3997 1.499 . S
C4000 C4001 1.373 . S
C4000 C4002 1.389 . S
C4001 H3980 0.950 . S
C4001 C4000 1.373 . S
C4001 C4017 1.377 . S
C4002 C4000 1.389 . S
C4002 C4003 1.524 . S
C4002 C4016 1.377 . S
C4003 C4002 1.524 . S
C4003 C4004 1.397 . S
C4003 C4008 1.363 . S
C4004 H3981 0.950 . S
C4004 C4003 1.397 . S
C4004 C4005 1.334 . S
C4005 H3982 0.950 . S
C4005 C4004 1.334 . S
C4005 C4006 1.287 . S
C4006 C4005 1.287 . S
C4006 C4007 1.524 . S
C4006 H4025 0.913 . S
C4007 H3983 0.950 . S
C4007 C4006 1.524 . S
C4007 C4008 1.415 . S
C4008 H3984 0.950 . S
C4008 C4003 1.363 . S
C4008 C4007 1.415 . S
C4009 H3985 0.951 . S
C4009 C4010 1.366 . S
C4009 C4011 1.388 . S
C4010 C4009 1.366 . S
C4010 C4014 1.385 . S
C4011 H3986 0.951 . S
C4011 C4009 1.388 . S
C4011 C4012 1.366 . S
C4012 C4011 1.366 . S
C4012 C4013 1.414 . S
C4012 C4015 1.499 . S
C4013 H3987 0.950 . S
C4013 C4012 1.414 . S
C4013 C4014 1.374 . S
C4014 H3988 0.950 . S
C4014 C4010 1.385 . S
C4014 C4013 1.374 . S
C4015 C4012 1.499 . S
C4015 C4016 1.373 . S
C4015 C4017 1.389 . S
C4016 H3989 0.950 . S
C4016 C4002 1.377 . S
C4016 C4015 1.373 . S
C4017 C4001 1.377 . S
C4017 C4015 1.389 . S
C4017 C4018 1.524 . S
C4018 C4017 1.524 . S
C4018 C4019 1.397 . S
C4018 C4023 1.363 . S
C4019 H3990 0.950 . S
C4019 C4018 1.397 . S
C4019 C4020 1.334 . S
C4020 H3991 0.950 . S
C4020 C4019 1.334 . S
C4020 C4021 1.287 . S
C4021 C4020 1.287 . S
C4021 C4022 1.524 . S
C4021 H4024 0.999 . S
C4022 H3992 0.950 . S
C4022 C4021 1.524 . S
C4022 C4023 1.415 . S
C4023 H3993 0.950 . S
C4023 C4018 1.363 . S
C4023 C4022 1.415 . S
H4024 C4021 0.999 . S
H4025 C4006 0.913 . S
H4026 C4044 0.951 . S
H4027 C4046 0.951 . S
H4028 C4048 0.950 . S
H4029 C4049 0.950 . S
H4030 C4051 0.950 . S
H4031 C4054 0.950 . S
H4032 C4055 0.950 . S
H4033 C4057 0.950 . S
H4034 C4058 0.950 . S
H4035 C4059 0.951 . S
H4036 C4061 0.951 . S
H4037 C4063 0.950 . S
H4038 C4064 0.950 . S
H4039 C4066 0.950 . S
H4040 C4069 0.950 . S
H4041 C4070 0.950 . S
H4042 C4072 0.950 . S
H4043 C4073 0.950 . S
C4044 H4026 0.951 . S
C4044 C4045 1.366 . S
C4044 C4046 1.388 . S
C4045 C4044 1.366 . S
C4045 C4049 1.385 . S
C4046 H4027 0.951 . S
C4046 C4044 1.388 . S
C4046 C4047 1.366 . S
C4047 C4046 1.366 . S
C4047 C4048 1.414 . S
C4047 C4050 1.499 . S
C4048 H4028 0.950 . S
C4048 C4047 1.414 . S
C4048 C4049 1.374 . S
C4049 H4029 0.950 . S
C4049 C4045 1.385 . S
C4049 C4048 1.374 . S
C4050 C4047 1.499 . S
C4050 C4051 1.373 . S
C4050 C4052 1.389 . S
C4051 H4030 0.950 . S
C4051 C4050 1.373 . S
C4051 C4067 1.377 . S
C4052 C4050 1.389 . S
C4052 C4053 1.524 . S
C4052 C4066 1.377 . S
C4053 C4052 1.524 . S
C4053 C4054 1.397 . S
C4053 C4058 1.363 . S
C4054 H4031 0.950 . S
C4054 C4053 1.397 . S
C4054 C4055 1.334 . S
C4055 H4032 0.950 . S
C4055 C4054 1.334 . S
C4055 C4056 1.287 . S
C4056 C4055 1.287 . S
C4056 C4057 1.524 . S
C4056 H4075 0.913 . S
C4057 H4033 0.950 . S
C4057 C4056 1.524 . S
C4057 C4058 1.415 . S
C4058 H4034 0.950 . S
C4058 C4053 1.363 . S
C4058 C4057 1.415 . S
C4059 H4035 0.951 . S
C4059 C4060 1.366 . S
C4059 C4061 1.388 . S
C4060 C4059 1.366 . S
C4060 C4064 1.385 . S
C4061 H4036 0.951 . S
C4061 C4059 1.388 . S
C4061 C4062 1.366 . S
C4062 C4061 1.366 . S
C4062 C4063 1.414 . S
C4062 C4065 1.499 . S
C4063 H4037 0.950 . S
C4063 C4062 1.414 . S
C4063 C4064 1.374 . S
C4064 H4038 0.950 . S
C4064 C4060 1.385 . S
C4064 C4063 1.374 . S
C4065 C4062 1.499 . S
C4065 C4066 1.373 . S
C4065 C4067 1.389 . S
C4066 H4039 0.950 . S
C4066 C4052 1.377 . S
C4066 C4065 1.373 . S
C4067 C4051 1.377 . S
C4067 C4065 1.389 . S
C4067 C4068 1.524 . S
C4068 C4067 1.524 . S
C4068 C4069 1.397 . S
C4068 C4073 1.363 . S
C4069 H4040 0.950 . S
C4069 C4068 1.397 . S
C4069 C4070 1.334 . S
C4070 H4041 0.950 . S
C4070 C4069 1.334 . S
C4070 C4071 1.287 . S
C4071 C4070 1.287 . S
C4071 C4072 1.524 . S
C4071 H4074 0.999 . S
C4072 H4042 0.950 . S
C4072 C4071 1.524 . S
C4072 C4073 1.415 . S
C4073 H4043 0.950 . S
C4073 C4068 1.363 . S
C4073 C4072 1.415 . S
H4074 C4071 0.999 . S
H4075 C4056 0.913 . S
H4076 C4094 0.951 . S
H4077 C4096 0.951 . S
H4078 C4098 0.950 . S
H4079 C4099 0.950 . S
H4080 C4101 0.950 . S
H4081 C4104 0.950 . S
H4082 C4105 0.950 . S
H4083 C4107 0.950 . S
H4084 C4108 0.950 . S
H4085 C4109 0.951 . S
H4086 C4111 0.951 . S
H4087 C4113 0.950 . S
H4088 C4114 0.950 . S
H4089 C4116 0.950 . S
H4090 C4119 0.950 . S
H4091 C4120 0.950 . S
H4092 C4122 0.950 . S
H4093 C4123 0.950 . S
C4094 H4076 0.951 . S
C4094 C4095 1.366 . S
C4094 C4096 1.388 . S
C4095 C4094 1.366 . S
C4095 C4099 1.385 . S
C4096 H4077 0.951 . S
C4096 C4094 1.388 . S
C4096 C4097 1.366 . S
C4097 C4096 1.366 . S
C4097 C4098 1.414 . S
C4097 C4100 1.499 . S
C4098 H4078 0.950 . S
C4098 C4097 1.414 . S
C4098 C4099 1.374 . S
C4099 H4079 0.950 . S
C4099 C4095 1.385 . S
C4099 C4098 1.374 . S
C4100 C4097 1.499 . S
C4100 C4101 1.373 . S
C4100 C4102 1.389 . S
C4101 H4080 0.950 . S
C4101 C4100 1.373 . S
C4101 C4117 1.377 . S
C4102 C4100 1.389 . S
C4102 C4103 1.524 . S
C4102 C4116 1.377 . S
C4103 C4102 1.524 . S
C4103 C4104 1.397 . S
C4103 C4108 1.363 . S
C4104 H4081 0.950 . S
C4104 C4103 1.397 . S
C4104 C4105 1.334 . S
C4105 H4082 0.950 . S
C4105 C4104 1.334 . S
C4105 C4106 1.287 . S
C4106 C4105 1.287 . S
C4106 C4107 1.524 . S
C4106 H4125 0.913 . S
C4107 H4083 0.950 . S
C4107 C4106 1.524 . S
C4107 C4108 1.415 . S
C4108 H4084 0.950 . S
C4108 C4103 1.363 . S
C4108 C4107 1.415 . S
C4109 H4085 0.951 . S
C4109 C4110 1.366 . S
C4109 C4111 1.388 . S
C4110 C4109 1.366 . S
C4110 C4114 1.385 . S
C4111 H4086 0.951 . S
C4111 C4109 1.388 . S
C4111 C4112 1.366 . S
C4112 C4111 1.366 . S
C4112 C4113 1.414 . S
C4112 C4115 1.499 . S
C4113 H4087 0.950 . S
C4113 C4112 1.414 . S
C4113 C4114 1.374 . S
C4114 H4088 0.950 . S
C4114 C4110 1.385 . S
C4114 C4113 1.374 . S
C4115 C4112 1.499 . S
C4115 C4116 1.373 . S
C4115 C4117 1.389 . S
C4116 H4089 0.950 . S
C4116 C4102 1.377 . S
C4116 C4115 1.373 . S
C4117 C4101 1.377 . S
C4117 C4115 1.389 . S
C4117 C4118 1.524 . S
C4118 C4117 1.524 . S
C4118 C4119 1.397 . S
C4118 C4123 1.363 . S
C4119 H4090 0.950 . S
C4119 C4118 1.397 . S
C4119 C4120 1.334 . S
C4120 H4091 0.950 . S
C4120 C4119 1.334 . S
C4120 C4121 1.287 . S
C4121 C4120 1.287 . S
C4121 C4122 1.524 . S
C4121 H4124 0.999 . S
C4122 H4092 0.950 . S
C4122 C4121 1.524 . S
C4122 C4123 1.415 . S
C4123 H4093 0.950 . S
C4123 C4118 1.363 . S
C4123 C4122 1.415 . S
H4124 C4121 0.999 . S
H4125 C4106 0.913 . S
H4126 C4144 0.951 . S
H4127 C4146 0.951 . S
H4128 C4148 0.950 . S
H4129 C4149 0.950 . S
H4130 C4151 0.950 . S
H4131 C4154 0.950 . S
H4132 C4155 0.950 . S
H4133 C4157 0.950 . S
H4134 C4158 0.950 . S
H4135 C4159 0.951 . S
H4136 C4161 0.951 . S
H4137 C4163 0.950 . S
H4138 C4164 0.950 . S
H4139 C4166 0.950 . S
H4140 C4169 0.950 . S
H4141 C4170 0.950 . S
H4142 C4172 0.950 . S
H4143 C4173 0.950 . S
C4144 H4126 0.951 . S
C4144 C4145 1.366 . S
C4144 C4146 1.388 . S
C4145 C4144 1.366 . S
C4145 C4149 1.385 . S
C4146 H4127 0.951 . S
C4146 C4144 1.388 . S
C4146 C4147 1.366 . S
C4147 C4146 1.366 . S
C4147 C4148 1.414 . S
C4147 C4150 1.499 . S
C4148 H4128 0.950 . S
C4148 C4147 1.414 . S
C4148 C4149 1.374 . S
C4149 H4129 0.950 . S
C4149 C4145 1.385 . S
C4149 C4148 1.374 . S
C4150 C4147 1.499 . S
C4150 C4151 1.373 . S
C4150 C4152 1.389 . S
C4151 H4130 0.950 . S
C4151 C4150 1.373 . S
C4151 C4167 1.377 . S
C4152 C4150 1.389 . S
C4152 C4153 1.524 . S
C4152 C4166 1.377 . S
C4153 C4152 1.524 . S
C4153 C4154 1.397 . S
C4153 C4158 1.363 . S
C4154 H4131 0.950 . S
C4154 C4153 1.397 . S
C4154 C4155 1.334 . S
C4155 H4132 0.950 . S
C4155 C4154 1.334 . S
C4155 C4156 1.287 . S
C4156 C4155 1.287 . S
C4156 C4157 1.524 . S
C4156 H4175 0.913 . S
C4157 H4133 0.950 . S
C4157 C4156 1.524 . S
C4157 C4158 1.415 . S
C4158 H4134 0.950 . S
C4158 C4153 1.363 . S
C4158 C4157 1.415 . S
C4159 H4135 0.951 . S
C4159 C4160 1.366 . S
C4159 C4161 1.388 . S
C4160 C4159 1.366 . S
C4160 C4164 1.385 . S
C4161 H4136 0.951 . S
C4161 C4159 1.388 . S
C4161 C4162 1.366 . S
C4162 C4161 1.366 . S
C4162 C4163 1.414 . S
C4162 C4165 1.499 . S
C4163 H4137 0.950 . S
C4163 C4162 1.414 . S
C4163 C4164 1.374 . S
C4164 H4138 0.950 . S
C4164 C4160 1.385 . S
C4164 C4163 1.374 . S
C4165 C4162 1.499 . S
C4165 C4166 1.373 . S
C4165 C4167 1.389 . S
C4166 H4139 0.950 . S
C4166 C4152 1.377 . S
C4166 C4165 1.373 . S
C4167 C4151 1.377 . S
C4167 C4165 1.389 . S
C4167 C4168 1.524 . S
C4168 C4167 1.524 . S
C4168 C4169 1.397 . S
C4168 C4173 1.363 . S
C4169 H4140 0.950 . S
C4169 C4168 1.397 . S
C4169 C4170 1.334 . S
C4170 H4141 0.950 . S
C4170 C4169 1.334 . S
C4170 C4171 1.287 . S
C4171 C4170 1.287 . S
C4171 C4172 1.524 . S
C4171 H4174 0.999 . S
C4172 H4142 0.950 . S
C4172 C4171 1.524 . S
C4172 C4173 1.415 . S
C4173 H4143 0.950 . S
C4173 C4168 1.363 . S
C4173 C4172 1.415 . S
H4174 C4171 0.999 . S
H4175 C4156 0.913 . S
H4176 C4194 0.951 . S
H4177 C4196 0.951 . S
H4178 C4198 0.950 . S
H4179 C4199 0.950 . S
H4180 C4201 0.950 . S
H4181 C4204 0.950 . S
H4182 C4205 0.950 . S
H4183 C4207 0.950 . S
H4184 C4208 0.950 . S
H4185 C4209 0.951 . S
H4186 C4211 0.951 . S
H4187 C4213 0.950 . S
H4188 C4214 0.950 . S
H4189 C4216 0.950 . S
H4190 C4219 0.950 . S
H4191 C4220 0.950 . S
H4192 C4222 0.950 . S
H4193 C4223 0.950 . S
C4194 H4176 0.951 . S
C4194 C4195 1.366 . S
C4194 C4196 1.388 . S
C4195 C4194 1.366 . S
C4195 C4199 1.385 . S
C4196 H4177 0.951 . S
C4196 C4194 1.388 . S
C4196 C4197 1.366 . S
C4197 C4196 1.366 . S
C4197 C4198 1.414 . S
C4197 C4200 1.499 . S
C4198 H4178 0.950 . S
C4198 C4197 1.414 . S
C4198 C4199 1.374 . S
C4199 H4179 0.950 . S
C4199 C4195 1.385 . S
C4199 C4198 1.374 . S
C4200 C4197 1.499 . S
C4200 C4201 1.373 . S
C4200 C4202 1.389 . S
C4201 H4180 0.950 . S
C4201 C4200 1.373 . S
C4201 C4217 1.377 . S
C4202 C4200 1.389 . S
C4202 C4203 1.524 . S
C4202 C4216 1.377 . S
C4203 C4202 1.524 . S
C4203 C4204 1.397 . S
C4203 C4208 1.363 . S
C4204 H4181 0.950 . S
C4204 C4203 1.397 . S
C4204 C4205 1.334 . S
C4205 H4182 0.950 . S
C4205 C4204 1.334 . S
C4205 C4206 1.287 . S
C4206 C4205 1.287 . S
C4206 C4207 1.524 . S
C4206 H4225 0.913 . S
C4207 H4183 0.950 . S
C4207 C4206 1.524 . S
C4207 C4208 1.415 . S
C4208 H4184 0.950 . S
C4208 C4203 1.363 . S
C4208 C4207 1.415 . S
C4209 H4185 0.951 . S
C4209 C4210 1.366 . S
C4209 C4211 1.388 . S
C4210 C4209 1.366 . S
C4210 C4214 1.385 . S
C4211 H4186 0.951 . S
C4211 C4209 1.388 . S
C4211 C4212 1.366 . S
C4212 C4211 1.366 . S
C4212 C4213 1.414 . S
C4212 C4215 1.499 . S
C4213 H4187 0.950 . S
C4213 C4212 1.414 . S
C4213 C4214 1.374 . S
C4214 H4188 0.950 . S
C4214 C4210 1.385 . S
C4214 C4213 1.374 . S
C4215 C4212 1.499 . S
C4215 C4216 1.373 . S
C4215 C4217 1.389 . S
C4216 H4189 0.950 . S
C4216 C4202 1.377 . S
C4216 C4215 1.373 . S
C4217 C4201 1.377 . S
C4217 C4215 1.389 . S
C4217 C4218 1.524 . S
C4218 C4217 1.524 . S
C4218 C4219 1.397 . S
C4218 C4223 1.363 . S
C4219 H4190 0.950 . S
C4219 C4218 1.397 . S
C4219 C4220 1.334 . S
C4220 H4191 0.950 . S
C4220 C4219 1.334 . S
C4220 C4221 1.287 . S
C4221 C4220 1.287 . S
C4221 C4222 1.524 . S
C4221 H4224 0.999 . S
C4222 H4192 0.950 . S
C4222 C4221 1.524 . S
C4222 C4223 1.415 . S
C4223 H4193 0.950 . S
C4223 C4218 1.363 . S
C4223 C4222 1.415 . S
H4224 C4221 0.999 . S
H4225 C4206 0.913 . S
H4226 C4244 0.951 . S
H4227 C4246 0.951 . S
H4228 C4248 0.950 . S
H4229 C4249 0.950 . S
H4230 C4251 0.950 . S
H4231 C4254 0.950 . S
H4232 C4255 0.950 . S
H4233 C4257 0.950 . S
H4234 C4258 0.950 . S
H4235 C4259 0.951 . S
H4236 C4261 0.951 . S
H4237 C4263 0.950 . S
H4238 C4264 0.950 . S
H4239 C4266 0.950 . S
H4240 C4269 0.950 . S
H4241 C4270 0.950 . S
H4242 C4272 0.950 . S
H4243 C4273 0.950 . S
C4244 H4226 0.951 . S
C4244 C4245 1.366 . S
C4244 C4246 1.388 . S
C4245 C4244 1.366 . S
C4245 C4249 1.385 . S
C4246 H4227 0.951 . S
C4246 C4244 1.388 . S
C4246 C4247 1.366 . S
C4247 C4246 1.366 . S
C4247 C4248 1.414 . S
C4247 C4250 1.499 . S
C4248 H4228 0.950 . S
C4248 C4247 1.414 . S
C4248 C4249 1.374 . S
C4249 H4229 0.950 . S
C4249 C4245 1.385 . S
C4249 C4248 1.374 . S
C4250 C4247 1.499 . S
C4250 C4251 1.373 . S
C4250 C4252 1.389 . S
C4251 H4230 0.950 . S
C4251 C4250 1.373 . S
C4251 C4267 1.377 . S
C4252 C4250 1.389 . S
C4252 C4253 1.524 . S
C4252 C4266 1.377 . S
C4253 C4252 1.524 . S
C4253 C4254 1.397 . S
C4253 C4258 1.363 . S
C4254 H4231 0.950 . S
C4254 C4253 1.397 . S
C4254 C4255 1.334 . S
C4255 H4232 0.950 . S
C4255 C4254 1.334 . S
C4255 C4256 1.287 . S
C4256 C4255 1.287 . S
C4256 C4257 1.524 . S
C4256 H4275 0.913 . S
C4257 H4233 0.950 . S
C4257 C4256 1.524 . S
C4257 C4258 1.415 . S
C4258 H4234 0.950 . S
C4258 C4253 1.363 . S
C4258 C4257 1.415 . S
C4259 H4235 0.951 . S
C4259 C4260 1.366 . S
C4259 C4261 1.388 . S
C4260 C4259 1.366 . S
C4260 C4264 1.385 . S
C4261 H4236 0.951 . S
C4261 C4259 1.388 . S
C4261 C4262 1.366 . S
C4262 C4261 1.366 . S
C4262 C4263 1.414 . S
C4262 C4265 1.499 . S
C4263 H4237 0.950 . S
C4263 C4262 1.414 . S
C4263 C4264 1.374 . S
C4264 H4238 0.950 . S
C4264 C4260 1.385 . S
C4264 C4263 1.374 . S
C4265 C4262 1.499 . S
C4265 C4266 1.373 . S
C4265 C4267 1.389 . S
C4266 H4239 0.950 . S
C4266 C4252 1.377 . S
C4266 C4265 1.373 . S
C4267 C4251 1.377 . S
C4267 C4265 1.389 . S
C4267 C4268 1.524 . S
C4268 C4267 1.524 . S
C4268 C4269 1.397 . S
C4268 C4273 1.363 . S
C4269 H4240 0.950 . S
C4269 C4268 1.397 . S
C4269 C4270 1.334 . S
C4270 H4241 0.950 . S
C4270 C4269 1.334 . S
C4270 C4271 1.287 . S
C4271 C4270 1.287 . S
C4271 C4272 1.524 . S
C4271 H4274 0.999 . S
C4272 H4242 0.950 . S
C4272 C4271 1.524 . S
C4272 C4273 1.415 . S
C4273 H4243 0.950 . S
C4273 C4268 1.363 . S
C4273 C4272 1.415 . S
H4274 C4271 0.999 . S
H4275 C4256 0.913 . S
H4276 C4294 0.951 . S
H4277 C4296 0.951 . S
H4278 C4298 0.950 . S
H4279 C4299 0.964 . S
H4280 C4301 0.950 . S
H4281 C4304 0.950 . S
H4282 C4305 0.950 . S
H4283 C4307 0.950 . S
H4284 C4308 0.950 . S
H4285 C4309 0.951 . S
H4286 C4311 0.951 . S
H4287 C4313 0.950 . S
H4288 C4314 0.950 . S
H4289 C4316 0.950 . S
H4290 C4319 0.950 . S
H4291 C4320 0.950 . S
H4292 C4322 0.950 . S
H4293 C4323 0.950 . S
C4294 H4276 0.951 . S
C4294 C4295 1.401 . S
C4294 C4296 1.388 . S
C4295 C4294 1.401 . S
C4295 C4299 1.410 1_565 S
C4296 H4277 0.951 . S
C4296 C4294 1.388 . S
C4296 C4297 1.366 . S
C4297 C4296 1.366 . S
C4297 C4298 1.414 . S
C4297 C4300 1.499 . S
C4298 H4278 0.950 . S
C4298 C4297 1.414 . S
C4298 C4299 1.354 1_565 S
C4299 H4279 0.964 . S
C4299 C4295 1.410 1_545 S
C4299 C4298 1.354 1_545 S
C4300 C4297 1.499 . S
C4300 C4301 1.373 . S
C4300 C4302 1.389 . S
C4301 H4280 0.950 . S
C4301 C4300 1.373 . S
C4301 C4317 1.377 . S
C4302 C4300 1.389 . S
C4302 C4303 1.524 . S
C4302 C4316 1.377 . S
C4303 C4302 1.524 . S
C4303 C4304 1.397 . S
C4303 C4308 1.363 . S
C4304 H4281 0.950 . S
C4304 C4303 1.397 . S
C4304 C4305 1.334 . S
C4305 H4282 0.950 . S
C4305 C4304 1.334 . S
C4305 C4306 1.287 . S
C4306 C4305 1.287 . S
C4306 C4307 1.524 . S
C4306 H4325 0.913 . S
C4307 H4283 0.950 . S
C4307 C4306 1.524 . S
C4307 C4308 1.415 . S
C4308 H4284 0.950 . S
C4308 C4303 1.363 . S
C4308 C4307 1.415 . S
C4309 H4285 0.951 . S
C4309 C4310 1.366 . S
C4309 C4311 1.388 . S
C4310 C4309 1.366 . S
C4310 C4314 1.385 . S
C4311 H4286 0.951 . S
C4311 C4309 1.388 . S
C4311 C4312 1.366 . S
C4312 C4311 1.366 . S
C4312 C4313 1.414 . S
C4312 C4315 1.499 . S
C4313 H4287 0.950 . S
C4313 C4312 1.414 . S
C4313 C4314 1.374 . S
C4314 H4288 0.950 . S
C4314 C4310 1.385 . S
C4314 C4313 1.374 . S
C4315 C4312 1.499 . S
C4315 C4316 1.373 . S
C4315 C4317 1.389 . S
C4316 H4289 0.950 . S
C4316 C4302 1.377 . S
C4316 C4315 1.373 . S
C4317 C4301 1.377 . S
C4317 C4315 1.389 . S
C4317 C4318 1.524 . S
C4318 C4317 1.524 . S
C4318 C4319 1.397 . S
C4318 C4323 1.363 . S
C4319 H4290 0.950 . S
C4319 C4318 1.397 . S
C4319 C4320 1.334 . S
C4320 H4291 0.950 . S
C4320 C4319 1.334 . S
C4320 C4321 1.287 . S
C4321 C4320 1.287 . S
C4321 C4322 1.524 . S
C4321 H4324 0.999 . S
C4322 H4292 0.950 . S
C4322 C4321 1.524 . S
C4322 C4323 1.415 . S
C4323 H4293 0.950 . S
C4323 C4318 1.363 . S
C4323 C4322 1.415 . S
H4324 C4321 0.999 . S
H4325 C4306 0.913 . S
H4326 C4344 0.951 . S
H4327 C4346 0.951 . S
H4328 C4348 0.950 . S
H4329 C4349 0.950 . S
H4330 C4351 0.950 . S
H4331 C4354 0.950 . S
H4332 C4355 0.950 . S
H4333 C4357 0.950 . S
H4334 C4358 0.950 . S
H4335 C4359 0.951 . S
H4336 C4361 0.951 . S
H4337 C4363 0.950 . S
H4338 C4364 0.950 . S
H4339 C4366 0.941 1_546 S
H4340 C4369 0.950 . S
H4341 C4370 0.950 . S
H4342 C4372 0.950 . S
H4343 C4373 0.950 . S
C4344 H4326 0.951 . S
C4344 C4345 1.370 . S
C4344 C4346 1.388 . S
C4345 C4344 1.370 . S
C4345 C4349 1.380 1_554 S
C4346 H4327 0.951 . S
C4346 C4344 1.388 . S
C4346 C4347 1.366 . S
C4347 C4346 1.366 . S
C4347 C4348 1.414 1_554 S
C4347 C4350 1.499 . S
C4348 H4328 0.950 . S
C4348 C4347 1.414 1_556 S
C4348 C4349 1.374 . S
C4349 H4329 0.950 . S
C4349 C4345 1.380 1_556 S
C4349 C4348 1.374 . S
C4350 C4347 1.499 . S
C4350 C4351 1.373 . S
C4350 C4352 1.389 1_554 S
C4351 H4330 0.950 . S
C4351 C4350 1.373 . S
C4351 C4367 1.377 . S
C4352 C4350 1.389 1_556 S
C4352 C4353 1.535 . S
C4352 C4366 1.375 1_556 S
C4353 C4352 1.535 . S
C4353 C4354 1.402 . S
C4353 C4358 1.348 1_565 S
C4354 H4331 0.950 . S
C4354 C4353 1.402 . S
C4354 C4355 1.334 . S
C4355 H4332 0.950 . S
C4355 C4354 1.334 . S
C4355 C4356 1.287 1_565 S
C4356 C4355 1.287 1_545 S
C4356 C4357 1.524 . S
C4356 H4375 0.913 . S
C4357 H4333 0.950 . S
C4357 C4356 1.524 . S
C4357 C4358 1.415 . S
C4358 H4334 0.950 . S
C4358 C4353 1.348 1_545 S
C4358 C4357 1.415 . S
C4359 H4335 0.951 . S
C4359 C4360 1.366 1_565 S
C4359 C4361 1.388 . S
C4360 C4359 1.366 1_545 S
C4360 C4364 1.385 . S
C4361 H4336 0.951 . S
C4361 C4359 1.388 . S
C4361 C4362 1.366 . S
C4362 C4361 1.366 . S
C4362 C4363 1.414 1_565 S
C4362 C4365 1.499 . S
C4363 H4337 0.950 . S
C4363 C4362 1.414 1_545 S
C4363 C4364 1.374 . S
C4364 H4338 0.950 . S
C4364 C4360 1.385 . S
C4364 C4363 1.374 . S
C4365 C4362 1.499 . S
C4365 C4366 1.384 . S
C4365 C4367 1.389 . S
C4366 H4339 0.941 1_564 S
C4366 C4352 1.375 1_554 S
C4366 C4365 1.384 . S
C4367 C4351 1.377 . S
C4367 C4365 1.389 . S
C4367 C4368 1.524 . S
C4368 C4367 1.524 . S
C4368 C4369 1.397 . S
C4368 C4373 1.363 . S
C4369 H4340 0.950 . S
C4369 C4368 1.397 . S
C4369 C4370 1.334 . S
C4370 H4341 0.950 . S
C4370 C4369 1.334 . S
C4370 C4371 1.287 . S
C4371 C4370 1.287 . S
C4371 C4372 1.524 . S
C4371 H4374 0.999 . S
C4372 H4342 0.950 . S
C4372 C4371 1.524 . S
C4372 C4373 1.415 . S
C4373 H4343 0.950 . S
C4373 C4368 1.363 . S
C4373 C4372 1.415 . S
H4374 C4371 0.999 . S
H4375 C4356 0.913 . S
H4376 C4394 0.951 . S
H4377 C4396 0.951 . S
H4378 C4398 0.950 . S
H4379 C4399 0.950 . S
H4380 C4401 0.950 . S
H4381 C4404 0.950 . S
H4382 C4405 0.950 . S
H4383 C4407 0.950 . S
H4384 C4408 0.950 . S
H4385 C4409 0.951 . S
H4386 C4411 0.951 . S
H4387 C4413 0.950 . S
H4388 C4414 0.950 . S
H4389 C4416 0.950 . S
H4390 C4419 0.950 . S
H4391 C4420 0.950 . S
H4392 C4422 0.950 . S
H4393 C4423 0.950 . S
C4394 H4376 0.951 . S
C4394 C4395 1.366 . S
C4394 C4396 1.388 . S
C4395 C4394 1.366 . S
C4395 C4399 1.385 . S
C4396 H4377 0.951 . S
C4396 C4394 1.388 . S
C4396 C4397 1.366 . S
C4397 C4396 1.366 . S
C4397 C4398 1.414 . S
C4397 C4400 1.499 . S
C4398 H4378 0.950 . S
C4398 C4397 1.414 . S
C4398 C4399 1.374 . S
C4399 H4379 0.950 . S
C4399 C4395 1.385 . S
C4399 C4398 1.374 . S
C4400 C4397 1.499 . S
C4400 C4401 1.373 . S
C4400 C4402 1.389 . S
C4401 H4380 0.950 . S
C4401 C4400 1.373 . S
C4401 C4417 1.377 . S
C4402 C4400 1.389 . S
C4402 C4403 1.524 . S
C4402 C4416 1.377 . S
C4403 C4402 1.524 . S
C4403 C4404 1.397 . S
C4403 C4408 1.363 . S
C4404 H4381 0.950 . S
C4404 C4403 1.397 . S
C4404 C4405 1.334 . S
C4405 H4382 0.950 . S
C4405 C4404 1.334 . S
C4405 C4406 1.287 . S
C4406 C4405 1.287 . S
C4406 C4407 1.524 . S
C4406 H4425 0.913 . S
C4407 H4383 0.950 . S
C4407 C4406 1.524 . S
C4407 C4408 1.415 . S
C4408 H4384 0.950 . S
C4408 C4403 1.363 . S
C4408 C4407 1.415 . S
C4409 H4385 0.951 . S
C4409 C4410 1.366 . S
C4409 C4411 1.388 . S
C4410 C4409 1.366 . S
C4410 C4414 1.385 . S
C4411 H4386 0.951 . S
C4411 C4409 1.388 . S
C4411 C4412 1.366 . S
C4412 C4411 1.366 . S
C4412 C4413 1.414 . S
C4412 C4415 1.499 . S
C4413 H4387 0.950 . S
C4413 C4412 1.414 . S
C4413 C4414 1.374 . S
C4414 H4388 0.950 . S
C4414 C4410 1.385 . S
C4414 C4413 1.374 . S
C4415 C4412 1.499 . S
C4415 C4416 1.373 . S
C4415 C4417 1.389 . S
C4416 H4389 0.950 . S
C4416 C4402 1.377 . S
C4416 C4415 1.373 . S
C4417 C4401 1.377 . S
C4417 C4415 1.389 . S
C4417 C4418 1.524 . S
C4418 C4417 1.524 . S
C4418 C4419 1.397 . S
C4418 C4423 1.363 . S
C4419 H4390 0.950 . S
C4419 C4418 1.397 . S
C4419 C4420 1.334 . S
C4420 H4391 0.950 . S
C4420 C4419 1.334 . S
C4420 C4421 1.287 . S
C4421 C4420 1.287 . S
C4421 C4422 1.524 . S
C4421 H4424 0.999 . S
C4422 H4392 0.950 . S
C4422 C4421 1.524 . S
C4422 C4423 1.415 . S
C4423 H4393 0.950 . S
C4423 C4418 1.363 . S
C4423 C4422 1.415 . S
H4424 C4421 0.999 . S
H4425 C4406 0.913 . S
H4426 C4444 0.951 . S
H4427 C4446 0.951 . S
H4428 C4448 0.948 . S
H4429 C4449 0.950 1_556 S
H4430 C4451 0.950 . S
H4431 C4454 0.950 . S
H4432 C4455 0.950 . S
H4433 C4457 0.950 . S
H4434 C4458 0.950 . S
H4435 C4459 0.951 . S
H4436 C4461 0.951 . S
H4437 C4463 0.950 . S
H4438 C4464 0.950 . S
H4439 C4466 0.950 . S
H4440 C4469 0.950 . S
H4441 C4470 0.950 . S
H4442 C4472 0.947 . S
H4443 C4473 0.950 1_556 S
C4444 H4426 0.951 . S
C4444 C4445 1.366 . S
C4444 C4446 1.388 . S
C4445 C4444 1.366 . S
C4445 C4449 1.385 . S
C4446 H4427 0.951 . S
C4446 C4444 1.388 . S
C4446 C4447 1.366 . S
C4447 C4446 1.366 . S
C4447 C4448 1.414 . S
C4447 C4450 1.499 . S
C4448 H4428 0.948 . S
C4448 C4447 1.414 . S
C4448 C4449 1.374 . S
C4449 H4429 0.950 1_554 S
C4449 C4445 1.385 . S
C4449 C4448 1.374 . S
C4450 C4447 1.499 . S
C4450 C4451 1.373 . S
C4450 C4452 1.389 . S
C4451 H4430 0.950 . S
C4451 C4450 1.373 . S
C4451 C4467 1.377 . S
C4452 C4450 1.389 . S
C4452 C4453 1.524 . S
C4452 C4466 1.377 . S
C4453 C4452 1.524 . S
C4453 C4454 1.397 . S
C4453 C4458 1.363 . S
C4454 H4431 0.950 . S
C4454 C4453 1.397 . S
C4454 C4455 1.334 . S
C4455 H4432 0.950 . S
C4455 C4454 1.334 . S
C4455 C4456 1.287 . S
C4456 C4455 1.287 . S
C4456 C4457 1.524 . S
C4456 H4475 0.913 . S
C4457 H4433 0.950 . S
C4457 C4456 1.524 . S
C4457 C4458 1.415 . S
C4458 H4434 0.950 . S
C4458 C4453 1.363 . S
C4458 C4457 1.415 . S
C4459 H4435 0.951 . S
C4459 C4460 1.366 . S
C4459 C4461 1.388 . S
C4460 C4459 1.366 . S
C4460 C4464 1.385 . S
C4461 H4436 0.951 . S
C4461 C4459 1.388 . S
C4461 C4462 1.366 . S
C4462 C4461 1.366 . S
C4462 C4463 1.414 . S
C4462 C4465 1.499 . S
C4463 H4437 0.950 . S
C4463 C4462 1.414 . S
C4463 C4464 1.374 . S
C4464 H4438 0.950 . S
C4464 C4460 1.385 . S
C4464 C4463 1.374 . S
C4465 C4462 1.499 . S
C4465 C4466 1.373 . S
C4465 C4467 1.389 . S
C4466 H4439 0.950 . S
C4466 C4452 1.377 . S
C4466 C4465 1.373 . S
C4467 C4451 1.377 . S
C4467 C4465 1.389 . S
C4467 C4468 1.524 . S
C4468 C4467 1.524 . S
C4468 C4469 1.397 . S
C4468 C4473 1.363 . S
C4469 H4440 0.950 . S
C4469 C4468 1.397 . S
C4469 C4470 1.334 . S
C4470 H4441 0.950 . S
C4470 C4469 1.334 . S
C4470 C4471 1.287 . S
C4471 C4470 1.287 . S
C4471 C4472 1.526 1_554 S
C4471 H4474 0.999 . S
C4472 H4442 0.947 . S
C4472 C4471 1.526 1_556 S
C4472 C4473 1.415 1_556 S
C4473 H4443 0.950 1_554 S
C4473 C4468 1.363 . S
C4473 C4472 1.415 1_554 S
H4474 C4471 0.999 . S
H4475 C4456 0.913 . S
H4476 C4494 0.951 . S
H4477 C4496 0.951 . S
H4478 C4498 0.950 . S
H4479 C4499 0.950 . S
H4480 C4501 0.950 . S
H4481 C4504 0.950 . S
H4482 C4505 0.950 . S
H4483 C4507 0.950 . S
H4484 C4508 0.950 . S
H4485 C4509 0.951 . S
H4486 C4511 0.951 . S
H4487 C4513 0.950 . S
H4488 C4514 0.950 . S
H4489 C4516 0.950 . S
H4490 C4519 0.950 . S
H4491 C4520 0.950 . S
H4492 C4522 0.950 . S
H4493 C4523 0.950 . S
C4494 H4476 0.951 . S
C4494 C4495 1.366 . S
C4494 C4496 1.388 . S
C4495 C4494 1.366 . S
C4495 C4499 1.385 . S
C4496 H4477 0.951 . S
C4496 C4494 1.388 . S
C4496 C4497 1.366 . S
C4497 C4496 1.366 . S
C4497 C4498 1.414 . S
C4497 C4500 1.499 . S
C4498 H4478 0.950 . S
C4498 C4497 1.414 . S
C4498 C4499 1.374 . S
C4499 H4479 0.950 . S
C4499 C4495 1.385 . S
C4499 C4498 1.374 . S
C4500 C4497 1.499 . S
C4500 C4501 1.373 . S
C4500 C4502 1.389 . S
C4501 H4480 0.950 . S
C4501 C4500 1.373 . S
C4501 C4517 1.377 . S
C4502 C4500 1.389 . S
C4502 C4503 1.524 . S
C4502 C4516 1.377 . S
C4503 C4502 1.524 . S
C4503 C4504 1.397 . S
C4503 C4508 1.363 . S
C4504 H4481 0.950 . S
C4504 C4503 1.397 . S
C4504 C4505 1.334 . S
C4505 H4482 0.950 . S
C4505 C4504 1.334 . S
C4505 C4506 1.287 . S
C4506 C4505 1.287 . S
C4506 C4507 1.524 . S
C4506 H4525 0.913 . S
C4507 H4483 0.950 . S
C4507 C4506 1.524 . S
C4507 C4508 1.415 . S
C4508 H4484 0.950 . S
C4508 C4503 1.363 . S
C4508 C4507 1.415 . S
C4509 H4485 0.951 . S
C4509 C4510 1.366 . S
C4509 C4511 1.388 . S
C4510 C4509 1.366 . S
C4510 C4514 1.385 . S
C4511 H4486 0.951 . S
C4511 C4509 1.388 . S
C4511 C4512 1.366 . S
C4512 C4511 1.366 . S
C4512 C4513 1.414 . S
C4512 C4515 1.499 . S
C4513 H4487 0.950 . S
C4513 C4512 1.414 . S
C4513 C4514 1.374 . S
C4514 H4488 0.950 . S
C4514 C4510 1.385 . S
C4514 C4513 1.374 . S
C4515 C4512 1.499 . S
C4515 C4516 1.373 . S
C4515 C4517 1.389 . S
C4516 H4489 0.950 . S
C4516 C4502 1.377 . S
C4516 C4515 1.373 . S
C4517 C4501 1.377 . S
C4517 C4515 1.389 . S
C4517 C4518 1.524 . S
C4518 C4517 1.524 . S
C4518 C4519 1.397 . S
C4518 C4523 1.363 . S
C4519 H4490 0.950 . S
C4519 C4518 1.397 . S
C4519 C4520 1.334 . S
C4520 H4491 0.950 . S
C4520 C4519 1.334 . S
C4520 C4521 1.287 . S
C4521 C4520 1.287 . S
C4521 C4522 1.524 . S
C4521 H4524 0.999 . S
C4522 H4492 0.950 . S
C4522 C4521 1.524 . S
C4522 C4523 1.415 . S
C4523 H4493 0.950 . S
C4523 C4518 1.363 . S
C4523 C4522 1.415 . S
H4524 C4521 0.999 . S
H4525 C4506 0.913 . S
H4526 C4544 0.951 . S
H4527 C4546 0.951 . S
H4528 C4548 0.950 . S
H4529 C4549 0.950 . S
H4530 C4551 0.950 . S
H4531 C4554 0.950 . S
H4532 C4555 0.950 . S
H4533 C4557 0.950 . S
H4534 C4558 0.950 . S
H4535 C4559 0.951 . S
H4536 C4561 0.951 . S
H4537 C4563 0.950 . S
H4538 C4564 0.950 . S
H4539 C4566 0.950 . S
H4540 C4569 0.950 . S
H4541 C4570 0.950 . S
H4542 C4572 0.950 . S
H4543 C4573 0.950 . S
C4544 H4526 0.951 . S
C4544 C4545 1.366 . S
C4544 C4546 1.388 . S
C4545 C4544 1.366 . S
C4545 C4549 1.385 . S
C4546 H4527 0.951 . S
C4546 C4544 1.388 . S
C4546 C4547 1.366 . S
C4547 C4546 1.366 . S
C4547 C4548 1.414 . S
C4547 C4550 1.499 . S
C4548 H4528 0.950 . S
C4548 C4547 1.414 . S
C4548 C4549 1.374 . S
C4549 H4529 0.950 . S
C4549 C4545 1.385 . S
C4549 C4548 1.374 . S
C4550 C4547 1.499 . S
C4550 C4551 1.373 . S
C4550 C4552 1.389 . S
C4551 H4530 0.950 . S
C4551 C4550 1.373 . S
C4551 C4567 1.377 . S
C4552 C4550 1.389 . S
C4552 C4553 1.524 . S
C4552 C4566 1.377 . S
C4553 C4552 1.524 . S
C4553 C4554 1.397 . S
C4553 C4558 1.363 . S
C4554 H4531 0.950 . S
C4554 C4553 1.397 . S
C4554 C4555 1.334 . S
C4555 H4532 0.950 . S
C4555 C4554 1.334 . S
C4555 C4556 1.287 . S
C4556 C4555 1.287 . S
C4556 C4557 1.524 . S
C4556 H4575 0.913 . S
C4557 H4533 0.950 . S
C4557 C4556 1.524 . S
C4557 C4558 1.415 . S
C4558 H4534 0.950 . S
C4558 C4553 1.363 . S
C4558 C4557 1.415 . S
C4559 H4535 0.951 . S
C4559 C4560 1.366 . S
C4559 C4561 1.388 . S
C4560 C4559 1.366 . S
C4560 C4564 1.385 . S
C4561 H4536 0.951 . S
C4561 C4559 1.388 . S
C4561 C4562 1.366 . S
C4562 C4561 1.366 . S
C4562 C4563 1.414 . S
C4562 C4565 1.499 . S
C4563 H4537 0.950 . S
C4563 C4562 1.414 . S
C4563 C4564 1.374 . S
C4564 H4538 0.950 . S
C4564 C4560 1.385 . S
C4564 C4563 1.374 . S
C4565 C4562 1.499 . S
C4565 C4566 1.373 . S
C4565 C4567 1.389 . S
C4566 H4539 0.950 . S
C4566 C4552 1.377 . S
C4566 C4565 1.373 . S
C4567 C4551 1.377 . S
C4567 C4565 1.389 . S
C4567 C4568 1.524 . S
C4568 C4567 1.524 . S
C4568 C4569 1.397 . S
C4568 C4573 1.363 . S
C4569 H4540 0.950 . S
C4569 C4568 1.397 . S
C4569 C4570 1.334 . S
C4570 H4541 0.950 . S
C4570 C4569 1.334 . S
C4570 C4571 1.287 . S
C4571 C4570 1.287 . S
C4571 C4572 1.524 . S
C4571 H4574 0.999 . S
C4572 H4542 0.950 . S
C4572 C4571 1.524 . S
C4572 C4573 1.415 . S
C4573 H4543 0.950 . S
C4573 C4568 1.363 . S
C4573 C4572 1.415 . S
H4574 C4571 0.999 . S
H4575 C4556 0.913 . S
H4576 C4594 0.951 . S
H4577 C4596 0.951 . S
H4578 C4598 0.950 . S
H4579 C4599 0.950 . S
H4580 C4601 0.950 . S
H4581 C4604 0.950 . S
H4582 C4605 0.950 . S
H4583 C4607 0.950 . S
H4584 C4608 0.950 . S
H4585 C4609 0.951 . S
H4586 C4611 0.951 . S
H4587 C4613 0.950 . S
H4588 C4614 0.950 . S
H4589 C4616 0.950 . S
H4590 C4619 0.950 . S
H4591 C4620 0.950 . S
H4592 C4622 0.950 . S
H4593 C4623 0.950 . S
C4594 H4576 0.951 . S
C4594 C4595 1.366 . S
C4594 C4596 1.388 . S
C4595 C4594 1.366 . S
C4595 C4599 1.385 . S
C4596 H4577 0.951 . S
C4596 C4594 1.388 . S
C4596 C4597 1.366 . S
C4597 C4596 1.366 . S
C4597 C4598 1.414 . S
C4597 C4600 1.499 . S
C4598 H4578 0.950 . S
C4598 C4597 1.414 . S
C4598 C4599 1.374 . S
C4599 H4579 0.950 . S
C4599 C4595 1.385 . S
C4599 C4598 1.374 . S
C4600 C4597 1.499 . S
C4600 C4601 1.373 . S
C4600 C4602 1.389 . S
C4601 H4580 0.950 . S
C4601 C4600 1.373 . S
C4601 C4617 1.377 . S
C4602 C4600 1.389 . S
C4602 C4603 1.524 . S
C4602 C4616 1.377 . S
C4603 C4602 1.524 . S
C4603 C4604 1.397 . S
C4603 C4608 1.363 . S
C4604 H4581 0.950 . S
C4604 C4603 1.397 . S
C4604 C4605 1.334 . S
C4605 H4582 0.950 . S
C4605 C4604 1.334 . S
C4605 C4606 1.287 . S
C4606 C4605 1.287 . S
C4606 C4607 1.524 . S
C4606 H4625 0.913 . S
C4607 H4583 0.950 . S
C4607 C4606 1.524 . S
C4607 C4608 1.415 . S
C4608 H4584 0.950 . S
C4608 C4603 1.363 . S
C4608 C4607 1.415 . S
C4609 H4585 0.951 . S
C4609 C4610 1.366 . S
C4609 C4611 1.388 . S
C4610 C4609 1.366 . S
C4610 C4614 1.385 . S
C4611 H4586 0.951 . S
C4611 C4609 1.388 . S
C4611 C4612 1.366 . S
C4612 C4611 1.366 . S
C4612 C4613 1.414 . S
C4612 C4615 1.499 . S
C4613 H4587 0.950 . S
C4613 C4612 1.414 . S
C4613 C4614 1.374 . S
C4614 H4588 0.950 . S
C4614 C4610 1.385 . S
C4614 C4613 1.374 . S
C4615 C4612 1.499 . S
C4615 C4616 1.373 . S
C4615 C4617 1.389 . S
C4616 H4589 0.950 . S
C4616 C4602 1.377 . S
C4616 C4615 1.373 . S
C4617 C4601 1.377 . S
C4617 C4615 1.389 . S
C4617 C4618 1.524 . S
C4618 C4617 1.524 . S
C4618 C4619 1.397 . S
C4618 C4623 1.363 . S
C4619 H4590 0.950 . S
C4619 C4618 1.397 . S
C4619 C4620 1.334 . S
C4620 H4591 0.950 . S
C4620 C4619 1.334 . S
C4620 C4621 1.287 . S
C4621 C4620 1.287 . S
C4621 C4622 1.524 . S
C4621 H4624 0.999 . S
C4622 H4592 0.950 . S
C4622 C4621 1.524 . S
C4622 C4623 1.415 . S
C4623 H4593 0.950 . S
C4623 C4618 1.363 . S
C4623 C4622 1.415 . S
H4624 C4621 0.999 . S
H4625 C4606 0.913 . S
H4626 C4644 0.951 . S
H4627 C4646 0.951 . S
H4628 C4648 0.950 . S
H4629 C4649 0.950 . S
H4630 C4651 0.950 . S
H4631 C4654 0.950 . S
H4632 C4655 0.950 . S
H4633 C4657 0.950 . S
H4634 C4658 0.950 . S
H4635 C4659 0.951 . S
H4636 C4661 0.951 . S
H4637 C4663 0.950 . S
H4638 C4664 0.950 . S
H4639 C4666 0.950 . S
H4640 C4669 0.950 . S
H4641 C4670 0.950 . S
H4642 C4672 0.950 . S
H4643 C4673 0.950 . S
C4644 H4626 0.951 . S
C4644 C4645 1.366 . S
C4644 C4646 1.388 . S
C4645 C4644 1.366 . S
C4645 C4649 1.385 . S
C4646 H4627 0.951 . S
C4646 C4644 1.388 . S
C4646 C4647 1.366 . S
C4647 C4646 1.366 . S
C4647 C4648 1.414 . S
C4647 C4650 1.499 . S
C4648 H4628 0.950 . S
C4648 C4647 1.414 . S
C4648 C4649 1.374 . S
C4649 H4629 0.950 . S
C4649 C4645 1.385 . S
C4649 C4648 1.374 . S
C4650 C4647 1.499 . S
C4650 C4651 1.373 . S
C4650 C4652 1.389 . S
C4651 H4630 0.950 . S
C4651 C4650 1.373 . S
C4651 C4667 1.377 . S
C4652 C4650 1.389 . S
C4652 C4653 1.524 . S
C4652 C4666 1.377 . S
C4653 C4652 1.524 . S
C4653 C4654 1.397 . S
C4653 C4658 1.363 . S
C4654 H4631 0.950 . S
C4654 C4653 1.397 . S
C4654 C4655 1.334 . S
C4655 H4632 0.950 . S
C4655 C4654 1.334 . S
C4655 C4656 1.287 . S
C4656 C4655 1.287 . S
C4656 C4657 1.524 . S
C4656 H4675 0.913 . S
C4657 H4633 0.950 . S
C4657 C4656 1.524 . S
C4657 C4658 1.415 . S
C4658 H4634 0.950 . S
C4658 C4653 1.363 . S
C4658 C4657 1.415 . S
C4659 H4635 0.951 . S
C4659 C4660 1.366 . S
C4659 C4661 1.388 . S
C4660 C4659 1.366 . S
C4660 C4664 1.385 . S
C4661 H4636 0.951 . S
C4661 C4659 1.388 . S
C4661 C4662 1.366 . S
C4662 C4661 1.366 . S
C4662 C4663 1.414 . S
C4662 C4665 1.499 . S
C4663 H4637 0.950 . S
C4663 C4662 1.414 . S
C4663 C4664 1.374 . S
C4664 H4638 0.950 . S
C4664 C4660 1.385 . S
C4664 C4663 1.374 . S
C4665 C4662 1.499 . S
C4665 C4666 1.373 . S
C4665 C4667 1.389 . S
C4666 H4639 0.950 . S
C4666 C4652 1.377 . S
C4666 C4665 1.373 . S
C4667 C4651 1.377 . S
C4667 C4665 1.389 . S
C4667 C4668 1.524 . S
C4668 C4667 1.524 . S
C4668 C4669 1.397 . S
C4668 C4673 1.363 . S
C4669 H4640 0.950 . S
C4669 C4668 1.397 . S
C4669 C4670 1.334 . S
C4670 H4641 0.950 . S
C4670 C4669 1.334 . S
C4670 C4671 1.287 . S
C4671 C4670 1.287 . S
C4671 C4672 1.524 . S
C4671 H4674 0.999 . S
C4672 H4642 0.950 . S
C4672 C4671 1.524 . S
C4672 C4673 1.415 . S
C4673 H4643 0.950 . S
C4673 C4668 1.363 . S
C4673 C4672 1.415 . S
H4674 C4671 0.999 . S
H4675 C4656 0.913 . S
H4676 C4694 0.951 . S
H4677 C4696 0.951 . S
H4678 C4698 0.950 . S
H4679 C4699 0.950 . S
H4680 C4701 0.950 . S
H4681 C4704 0.950 . S
H4682 C4705 0.950 . S
H4683 C4707 0.950 . S
H4684 C4708 0.950 . S
H4685 C4709 0.951 . S
H4686 C4711 0.951 . S
H4687 C4713 0.950 . S
H4688 C4714 0.950 . S
H4689 C4716 0.950 . S
H4690 C4719 0.950 . S
H4691 C4720 0.950 . S
H4692 C4722 0.950 . S
H4693 C4723 0.950 . S
C4694 H4676 0.951 . S
C4694 C4695 1.366 . S
C4694 C4696 1.388 . S
C4695 C4694 1.366 . S
C4695 C4699 1.385 . S
C4696 H4677 0.951 . S
C4696 C4694 1.388 . S
C4696 C4697 1.366 . S
C4697 C4696 1.366 . S
C4697 C4698 1.414 . S
C4697 C4700 1.499 . S
C4698 H4678 0.950 . S
C4698 C4697 1.414 . S
C4698 C4699 1.374 . S
C4699 H4679 0.950 . S
C4699 C4695 1.385 . S
C4699 C4698 1.374 . S
C4700 C4697 1.499 . S
C4700 C4701 1.373 . S
C4700 C4702 1.389 . S
C4701 H4680 0.950 . S
C4701 C4700 1.373 . S
C4701 C4717 1.377 . S
C4702 C4700 1.389 . S
C4702 C4703 1.524 . S
C4702 C4716 1.377 . S
C4703 C4702 1.524 . S
C4703 C4704 1.397 . S
C4703 C4708 1.363 . S
C4704 H4681 0.950 . S
C4704 C4703 1.397 . S
C4704 C4705 1.334 . S
C4705 H4682 0.950 . S
C4705 C4704 1.334 . S
C4705 C4706 1.287 . S
C4706 C4705 1.287 . S
C4706 C4707 1.524 . S
C4706 H4725 0.913 . S
C4707 H4683 0.950 . S
C4707 C4706 1.524 . S
C4707 C4708 1.415 . S
C4708 H4684 0.950 . S
C4708 C4703 1.363 . S
C4708 C4707 1.415 . S
C4709 H4685 0.951 . S
C4709 C4710 1.366 . S
C4709 C4711 1.388 . S
C4710 C4709 1.366 . S
C4710 C4714 1.385 . S
C4711 H4686 0.951 . S
C4711 C4709 1.388 . S
C4711 C4712 1.366 . S
C4712 C4711 1.366 . S
C4712 C4713 1.414 . S
C4712 C4715 1.499 . S
C4713 H4687 0.950 . S
C4713 C4712 1.414 . S
C4713 C4714 1.374 . S
C4714 H4688 0.950 . S
C4714 C4710 1.385 . S
C4714 C4713 1.374 . S
C4715 C4712 1.499 . S
C4715 C4716 1.373 . S
C4715 C4717 1.389 . S
C4716 H4689 0.950 . S
C4716 C4702 1.377 . S
C4716 C4715 1.373 . S
C4717 C4701 1.377 . S
C4717 C4715 1.389 . S
C4717 C4718 1.524 . S
C4718 C4717 1.524 . S
C4718 C4719 1.397 . S
C4718 C4723 1.363 . S
C4719 H4690 0.950 . S
C4719 C4718 1.397 . S
C4719 C4720 1.334 . S
C4720 H4691 0.950 . S
C4720 C4719 1.334 . S
C4720 C4721 1.287 1_554 S
C4721 C4720 1.287 1_556 S
C4721 C4722 1.524 . S
C4721 H4724 0.999 . S
C4722 H4692 0.950 . S
C4722 C4721 1.524 . S
C4722 C4723 1.415 1_556 S
C4723 H4693 0.950 . S
C4723 C4718 1.363 . S
C4723 C4722 1.415 1_554 S
H4724 C4721 0.999 . S
H4725 C4706 0.913 . S
H4726 C4744 0.951 . S
H4727 C4746 0.951 . S
H4728 C4748 0.950 . S
H4729 C4749 0.950 . S
H4730 C4751 0.950 . S
H4731 C4754 0.950 . S
H4732 C4755 0.950 . S
H4733 C4757 0.950 . S
H4734 C4758 0.950 . S
H4735 C4759 0.951 . S
H4736 C4761 0.951 . S
H4737 C4763 0.950 . S
H4738 C4764 0.950 . S
H4739 C4766 0.950 . S
H4740 C4769 0.950 . S
H4741 C4770 0.950 . S
H4742 C4772 0.950 . S
H4743 C4773 0.950 . S
C4744 H4726 0.951 . S
C4744 C4745 1.366 . S
C4744 C4746 1.388 . S
C4745 C4744 1.366 . S
C4745 C4749 1.385 . S
C4746 H4727 0.951 . S
C4746 C4744 1.388 . S
C4746 C4747 1.366 . S
C4747 C4746 1.366 . S
C4747 C4748 1.414 . S
C4747 C4750 1.499 . S
C4748 H4728 0.950 . S
C4748 C4747 1.414 . S
C4748 C4749 1.374 . S
C4749 H4729 0.950 . S
C4749 C4745 1.385 . S
C4749 C4748 1.374 . S
C4750 C4747 1.499 . S
C4750 C4751 1.373 . S
C4750 C4752 1.389 . S
C4751 H4730 0.950 . S
C4751 C4750 1.373 . S
C4751 C4767 1.377 . S
C4752 C4750 1.389 . S
C4752 C4753 1.524 . S
C4752 C4766 1.377 . S
C4753 C4752 1.524 . S
C4753 C4754 1.397 . S
C4753 C4758 1.363 . S
C4754 H4731 0.950 . S
C4754 C4753 1.397 . S
C4754 C4755 1.334 . S
C4755 H4732 0.950 . S
C4755 C4754 1.334 . S
C4755 C4756 1.287 . S
C4756 C4755 1.287 . S
C4756 C4757 1.524 . S
C4756 H4775 0.913 . S
C4757 H4733 0.950 . S
C4757 C4756 1.524 . S
C4757 C4758 1.415 . S
C4758 H4734 0.950 . S
C4758 C4753 1.363 . S
C4758 C4757 1.415 . S
C4759 H4735 0.951 . S
C4759 C4760 1.366 . S
C4759 C4761 1.388 . S
C4760 C4759 1.366 . S
C4760 C4764 1.385 . S
C4761 H4736 0.951 . S
C4761 C4759 1.388 . S
C4761 C4762 1.366 . S
C4762 C4761 1.366 . S
C4762 C4763 1.414 . S
C4762 C4765 1.499 . S
C4763 H4737 0.950 . S
C4763 C4762 1.414 . S
C4763 C4764 1.374 . S
C4764 H4738 0.950 . S
C4764 C4760 1.385 . S
C4764 C4763 1.374 . S
C4765 C4762 1.499 . S
C4765 C4766 1.373 . S
C4765 C4767 1.389 . S
C4766 H4739 0.950 . S
C4766 C4752 1.377 . S
C4766 C4765 1.373 . S
C4767 C4751 1.377 . S
C4767 C4765 1.389 . S
C4767 C4768 1.524 . S
C4768 C4767 1.524 . S
C4768 C4769 1.397 . S
C4768 C4773 1.363 . S
C4769 H4740 0.950 . S
C4769 C4768 1.397 . S
C4769 C4770 1.334 . S
C4770 H4741 0.950 . S
C4770 C4769 1.334 . S
C4770 C4771 1.287 . S
C4771 C4770 1.287 . S
C4771 C4772 1.524 . S
C4771 H4774 0.999 . S
C4772 H4742 0.950 . S
C4772 C4771 1.524 . S
C4772 C4773 1.415 . S
C4773 H4743 0.950 . S
C4773 C4768 1.363 . S
C4773 C4772 1.415 . S
H4774 C4771 0.999 . S
H4775 C4756 0.913 . S
H4776 C4794 0.951 . S
H4777 C4796 0.951 . S
H4778 C4798 0.950 . S
H4779 C4799 0.950 . S
H4780 C4801 0.950 . S
H4781 C4804 0.950 . S
H4782 C4805 0.950 . S
H4783 C4807 0.950 . S
H4784 C4808 0.950 . S
H4785 C4809 0.951 1_554 S
H4786 C4811 0.951 . S
H4787 C4813 0.950 . S
H4788 C4814 0.950 . S
H4789 C4816 0.950 . S
H4790 C4819 0.950 . S
H4791 C4820 0.950 . S
H4792 C4822 0.950 . S
H4793 C4823 0.950 . S
C4794 H4776 0.951 . S
C4794 C4795 1.366 . S
C4794 C4796 1.388 . S
C4795 C4794 1.366 . S
C4795 C4799 1.385 . S
C4796 H4777 0.951 . S
C4796 C4794 1.388 . S
C4796 C4797 1.366 . S
C4797 C4796 1.366 . S
C4797 C4798 1.414 . S
C4797 C4800 1.499 . S
C4798 H4778 0.950 . S
C4798 C4797 1.414 . S
C4798 C4799 1.374 . S
C4799 H4779 0.950 . S
C4799 C4795 1.385 . S
C4799 C4798 1.374 . S
C4800 C4797 1.499 . S
C4800 C4801 1.373 . S
C4800 C4802 1.389 . S
C4801 H4780 0.950 . S
C4801 C4800 1.373 . S
C4801 C4817 1.377 . S
C4802 C4800 1.389 . S
C4802 C4803 1.524 . S
C4802 C4816 1.377 . S
C4803 C4802 1.524 . S
C4803 C4804 1.397 . S
C4803 C4808 1.363 . S
C4804 H4781 0.950 . S
C4804 C4803 1.397 . S
C4804 C4805 1.334 . S
C4805 H4782 0.950 . S
C4805 C4804 1.334 . S
C4805 C4806 1.287 . S
C4806 C4805 1.287 . S
C4806 C4807 1.524 . S
C4806 H4825 0.913 . S
C4807 H4783 0.950 . S
C4807 C4806 1.524 . S
C4807 C4808 1.415 . S
C4808 H4784 0.950 . S
C4808 C4803 1.363 . S
C4808 C4807 1.415 . S
C4809 H4785 0.951 1_556 S
C4809 C4810 1.366 . S
C4809 C4811 1.388 . S
C4810 C4809 1.366 . S
C4810 C4814 1.385 . S
C4811 H4786 0.951 . S
C4811 C4809 1.388 . S
C4811 C4812 1.366 . S
C4812 C4811 1.366 . S
C4812 C4813 1.414 . S
C4812 C4815 1.499 . S
C4813 H4787 0.950 . S
C4813 C4812 1.414 . S
C4813 C4814 1.374 . S
C4814 H4788 0.950 . S
C4814 C4810 1.385 . S
C4814 C4813 1.374 . S
C4815 C4812 1.499 . S
C4815 C4816 1.373 . S
C4815 C4817 1.389 . S
C4816 H4789 0.950 . S
C4816 C4802 1.377 . S
C4816 C4815 1.373 . S
C4817 C4801 1.377 . S
C4817 C4815 1.389 . S
C4817 C4818 1.524 . S
C4818 C4817 1.524 . S
C4818 C4819 1.397 . S
C4818 C4823 1.363 . S
C4819 H4790 0.950 . S
C4819 C4818 1.397 . S
C4819 C4820 1.334 . S
C4820 H4791 0.950 . S
C4820 C4819 1.334 . S
C4820 C4821 1.287 . S
C4821 C4820 1.287 . S
C4821 C4822 1.524 . S
C4821 H4824 0.999 . S
C4822 H4792 0.950 . S
C4822 C4821 1.524 . S
C4822 C4823 1.415 . S
C4823 H4793 0.950 . S
C4823 C4818 1.363 . S
C4823 C4822 1.415 . S
H4824 C4821 0.999 . S
H4825 C4806 0.913 . S
H4826 C4844 0.951 . S
H4827 C4846 0.951 . S
H4828 C4848 0.950 . S
H4829 C4849 0.950 . S
H4830 C4851 0.950 . S
H4831 C4854 0.950 . S
H4832 C4855 0.950 . S
H4833 C4857 0.950 . S
H4834 C4858 0.950 . S
H4835 C4859 0.951 . S
H4836 C4861 0.951 . S
H4837 C4863 0.950 . S
H4838 C4864 0.950 . S
H4839 C4866 0.950 . S
H4840 C4869 0.950 . S
H4841 C4870 0.950 . S
H4842 C4872 0.950 . S
H4843 C4873 0.950 . S
C4844 H4826 0.951 . S
C4844 C4845 1.366 . S
C4844 C4846 1.388 . S
C4845 C4844 1.366 . S
C4845 C4849 1.385 . S
C4846 H4827 0.951 . S
C4846 C4844 1.388 . S
C4846 C4847 1.366 . S
C4847 C4846 1.366 . S
C4847 C4848 1.414 . S
C4847 C4850 1.499 . S
C4848 H4828 0.950 . S
C4848 C4847 1.414 . S
C4848 C4849 1.374 . S
C4849 H4829 0.950 . S
C4849 C4845 1.385 . S
C4849 C4848 1.374 . S
C4850 C4847 1.499 . S
C4850 C4851 1.373 . S
C4850 C4852 1.389 . S
C4851 H4830 0.950 . S
C4851 C4850 1.373 . S
C4851 C4867 1.377 . S
C4852 C4850 1.389 . S
C4852 C4853 1.524 . S
C4852 C4866 1.377 . S
C4853 C4852 1.524 . S
C4853 C4854 1.397 . S
C4853 C4858 1.363 . S
C4854 H4831 0.950 . S
C4854 C4853 1.397 . S
C4854 C4855 1.334 . S
C4855 H4832 0.950 . S
C4855 C4854 1.334 . S
C4855 C4856 1.287 . S
C4856 C4855 1.287 . S
C4856 C4857 1.524 . S
C4856 H4875 0.913 . S
C4857 H4833 0.950 . S
C4857 C4856 1.524 . S
C4857 C4858 1.415 . S
C4858 H4834 0.950 . S
C4858 C4853 1.363 . S
C4858 C4857 1.415 . S
C4859 H4835 0.951 . S
C4859 C4860 1.366 . S
C4859 C4861 1.388 . S
C4860 C4859 1.366 . S
C4860 C4864 1.385 . S
C4861 H4836 0.951 . S
C4861 C4859 1.388 . S
C4861 C4862 1.366 . S
C4862 C4861 1.366 . S
C4862 C4863 1.414 . S
C4862 C4865 1.499 . S
C4863 H4837 0.950 . S
C4863 C4862 1.414 . S
C4863 C4864 1.374 . S
C4864 H4838 0.950 . S
C4864 C4860 1.385 . S
C4864 C4863 1.374 . S
C4865 C4862 1.499 . S
C4865 C4866 1.373 . S
C4865 C4867 1.389 . S
C4866 H4839 0.950 . S
C4866 C4852 1.377 . S
C4866 C4865 1.373 . S
C4867 C4851 1.377 . S
C4867 C4865 1.389 . S
C4867 C4868 1.524 . S
C4868 C4867 1.524 . S
C4868 C4869 1.397 . S
C4868 C4873 1.363 . S
C4869 H4840 0.950 . S
C4869 C4868 1.397 . S
C4869 C4870 1.334 . S
C4870 H4841 0.950 . S
C4870 C4869 1.334 . S
C4870 C4871 1.287 . S
C4871 C4870 1.287 . S
C4871 C4872 1.524 . S
C4871 H4874 0.999 . S
C4872 H4842 0.950 . S
C4872 C4871 1.524 . S
C4872 C4873 1.415 . S
C4873 H4843 0.950 . S
C4873 C4868 1.363 . S
C4873 C4872 1.415 . S
H4874 C4871 0.999 . S
H4875 C4856 0.913 . S
H4876 C4894 0.951 . S
H4877 C4896 0.951 . S
H4878 C4898 0.950 . S
H4879 C4899 0.950 . S
H4880 C4901 0.950 . S
H4881 C4904 0.950 . S
H4882 C4905 0.950 . S
H4883 C4907 0.950 . S
H4884 C4908 0.950 . S
H4885 C4909 0.951 . S
H4886 C4911 0.951 . S
H4887 C4913 0.950 . S
H4888 C4914 0.950 . S
H4889 C4916 0.950 . S
H4890 C4919 0.950 . S
H4891 C4920 0.950 . S
H4892 C4922 0.950 . S
H4893 C4923 0.950 . S
C4894 H4876 0.951 . S
C4894 C4895 1.366 . S
C4894 C4896 1.388 . S
C4895 C4894 1.366 . S
C4895 C4899 1.385 . S
C4896 H4877 0.951 . S
C4896 C4894 1.388 . S
C4896 C4897 1.366 . S
C4897 C4896 1.366 . S
C4897 C4898 1.414 . S
C4897 C4900 1.499 . S
C4898 H4878 0.950 . S
C4898 C4897 1.414 . S
C4898 C4899 1.374 . S
C4899 H4879 0.950 . S
C4899 C4895 1.385 . S
C4899 C4898 1.374 . S
C4900 C4897 1.499 . S
C4900 C4901 1.373 . S
C4900 C4902 1.389 . S
C4901 H4880 0.950 . S
C4901 C4900 1.373 . S
C4901 C4917 1.377 . S
C4902 C4900 1.389 . S
C4902 C4903 1.524 . S
C4902 C4916 1.377 . S
C4903 C4902 1.524 . S
C4903 C4904 1.397 . S
C4903 C4908 1.363 . S
C4904 H4881 0.950 . S
C4904 C4903 1.397 . S
C4904 C4905 1.334 . S
C4905 H4882 0.950 . S
C4905 C4904 1.334 . S
C4905 C4906 1.287 . S
C4906 C4905 1.287 . S
C4906 C4907 1.524 . S
C4906 H4925 0.913 . S
C4907 H4883 0.950 . S
C4907 C4906 1.524 . S
C4907 C4908 1.415 . S
C4908 H4884 0.950 . S
C4908 C4903 1.363 . S
C4908 C4907 1.415 . S
C4909 H4885 0.951 . S
C4909 C4910 1.366 . S
C4909 C4911 1.388 . S
C4910 C4909 1.366 . S
C4910 C4914 1.385 . S
C4911 H4886 0.951 . S
C4911 C4909 1.388 . S
C4911 C4912 1.366 . S
C4912 C4911 1.366 . S
C4912 C4913 1.414 . S
C4912 C4915 1.499 . S
C4913 H4887 0.950 . S
C4913 C4912 1.414 . S
C4913 C4914 1.374 . S
C4914 H4888 0.950 . S
C4914 C4910 1.385 . S
C4914 C4913 1.374 . S
C4915 C4912 1.499 . S
C4915 C4916 1.373 . S
C4915 C4917 1.389 . S
C4916 H4889 0.950 . S
C4916 C4902 1.377 . S
C4916 C4915 1.373 . S
C4917 C4901 1.377 . S
C4917 C4915 1.389 . S
C4917 C4918 1.524 . S
C4918 C4917 1.524 . S
C4918 C4919 1.397 . S
C4918 C4923 1.363 1_455 S
C4919 H4890 0.950 . S
C4919 C4918 1.397 . S
C4919 C4920 1.334 1_455 S
C4920 H4891 0.950 . S
C4920 C4919 1.334 1_655 S
C4920 C4921 1.287 . S
C4921 C4920 1.287 . S
C4921 C4922 1.524 . S
C4921 H4924 0.999 . S
C4922 H4892 0.950 . S
C4922 C4921 1.524 . S
C4922 C4923 1.415 . S
C4923 H4893 0.950 . S
C4923 C4918 1.363 1_655 S
C4923 C4922 1.415 . S
H4924 C4921 0.999 . S
H4925 C4906 0.913 . S
H4926 C4944 0.951 . S
H4927 C4946 0.951 . S
H4928 C4948 0.950 . S
H4929 C4949 0.950 . S
H4930 C4951 0.950 . S
H4931 C4954 0.950 . S
H4932 C4955 0.950 . S
H4933 C4957 0.950 . S
H4934 C4958 0.950 . S
H4935 C4959 0.951 . S
H4936 C4961 0.951 . S
H4937 C4963 0.950 . S
H4938 C4964 0.950 . S
H4939 C4966 0.950 . S
H4940 C4969 0.950 . S
H4941 C4970 0.950 . S
H4942 C4972 0.950 . S
H4943 C4973 0.950 . S
C4944 H4926 0.951 . S
C4944 C4945 1.366 . S
C4944 C4946 1.388 . S
C4945 C4944 1.366 . S
C4945 C4949 1.385 . S
C4946 H4927 0.951 . S
C4946 C4944 1.388 . S
C4946 C4947 1.366 . S
C4947 C4946 1.366 . S
C4947 C4948 1.414 . S
C4947 C4950 1.499 . S
C4948 H4928 0.950 . S
C4948 C4947 1.414 . S
C4948 C4949 1.374 . S
C4949 H4929 0.950 . S
C4949 C4945 1.385 . S
C4949 C4948 1.374 . S
C4950 C4947 1.499 . S
C4950 C4951 1.373 . S
C4950 C4952 1.389 . S
C4951 H4930 0.950 . S
C4951 C4950 1.373 . S
C4951 C4967 1.377 . S
C4952 C4950 1.389 . S
C4952 C4953 1.524 . S
C4952 C4966 1.377 . S
C4953 C4952 1.524 . S
C4953 C4954 1.397 . S
C4953 C4958 1.363 . S
C4954 H4931 0.950 . S
C4954 C4953 1.397 . S
C4954 C4955 1.334 . S
C4955 H4932 0.950 . S
C4955 C4954 1.334 . S
C4955 C4956 1.287 . S
C4956 C4955 1.287 . S
C4956 C4957 1.524 . S
C4956 H4975 0.913 . S
C4957 H4933 0.950 . S
C4957 C4956 1.524 . S
C4957 C4958 1.415 . S
C4958 H4934 0.950 . S
C4958 C4953 1.363 . S
C4958 C4957 1.415 . S
C4959 H4935 0.951 . S
C4959 C4960 1.366 . S
C4959 C4961 1.388 . S
C4960 C4959 1.366 . S
C4960 C4964 1.385 . S
C4961 H4936 0.951 . S
C4961 C4959 1.388 . S
C4961 C4962 1.366 . S
C4962 C4961 1.366 . S
C4962 C4963 1.414 . S
C4962 C4965 1.499 . S
C4963 H4937 0.950 . S
C4963 C4962 1.414 . S
C4963 C4964 1.374 . S
C4964 H4938 0.950 . S
C4964 C4960 1.385 . S
C4964 C4963 1.374 . S
C4965 C4962 1.499 . S
C4965 C4966 1.373 . S
C4965 C4967 1.389 . S
C4966 H4939 0.950 . S
C4966 C4952 1.377 . S
C4966 C4965 1.373 . S
C4967 C4951 1.377 . S
C4967 C4965 1.389 . S
C4967 C4968 1.524 . S
C4968 C4967 1.524 . S
C4968 C4969 1.397 . S
C4968 C4973 1.363 . S
C4969 H4940 0.950 . S
C4969 C4968 1.397 . S
C4969 C4970 1.334 . S
C4970 H4941 0.950 . S
C4970 C4969 1.334 . S
C4970 C4971 1.287 . S
C4971 C4970 1.287 . S
C4971 C4972 1.524 . S
C4971 H4974 0.999 . S
C4972 H4942 0.950 . S
C4972 C4971 1.524 . S
C4972 C4973 1.415 . S
C4973 H4943 0.950 . S
C4973 C4968 1.363 . S
C4973 C4972 1.415 . S
H4974 C4971 0.999 . S
H4975 C4956 0.913 . S
H4976 C4994 0.951 . S
H4977 C4996 0.951 . S
H4978 C4998 0.950 . S
H4979 C4999 0.950 . S
H4980 C5001 0.950 . S
H4981 C5004 0.950 . S
H4982 C5005 0.950 . S
H4983 C5007 0.950 . S
H4984 C5008 0.950 . S
H4985 C5009 0.951 . S
H4986 C5011 0.951 . S
H4987 C5013 0.950 . S
H4988 C5014 0.950 . S
H4989 C5016 0.950 . S
H4990 C5019 0.950 . S
H4991 C5020 0.950 . S
H4992 C5022 0.950 . S
H4993 C5023 0.950 . S
C4994 H4976 0.951 . S
C4994 C4995 1.366 . S
C4994 C4996 1.388 . S
C4995 C4994 1.366 . S
C4995 C4999 1.385 . S
C4996 H4977 0.951 . S
C4996 C4994 1.388 . S
C4996 C4997 1.366 . S
C4997 C4996 1.366 . S
C4997 C4998 1.414 . S
C4997 C5000 1.499 . S
C4998 H4978 0.950 . S
C4998 C4997 1.414 . S
C4998 C4999 1.374 . S
C4999 H4979 0.950 . S
C4999 C4995 1.385 . S
C4999 C4998 1.374 . S
C5000 C4997 1.499 . S
C5000 C5001 1.373 . S
C5000 C5002 1.389 . S
C5001 H4980 0.950 . S
C5001 C5000 1.373 . S
C5001 C5017 1.377 . S
C5002 C5000 1.389 . S
C5002 C5003 1.524 . S
C5002 C5016 1.377 . S
C5003 C5002 1.524 . S
C5003 C5004 1.397 . S
C5003 C5008 1.363 . S
C5004 H4981 0.950 . S
C5004 C5003 1.397 . S
C5004 C5005 1.334 . S
C5005 H4982 0.950 . S
C5005 C5004 1.334 . S
C5005 C5006 1.287 . S
C5006 C5005 1.287 . S
C5006 C5007 1.524 . S
C5006 H5025 0.913 . S
C5007 H4983 0.950 . S
C5007 C5006 1.524 . S
C5007 C5008 1.415 . S
C5008 H4984 0.950 . S
C5008 C5003 1.363 . S
C5008 C5007 1.415 . S
C5009 H4985 0.951 . S
C5009 C5010 1.366 . S
C5009 C5011 1.388 . S
C5010 C5009 1.366 . S
C5010 C5014 1.385 . S
C5011 H4986 0.951 . S
C5011 C5009 1.388 . S
C5011 C5012 1.366 . S
C5012 C5011 1.366 . S
C5012 C5013 1.414 . S
C5012 C5015 1.499 . S
C5013 H4987 0.950 . S
C5013 C5012 1.414 . S
C5013 C5014 1.374 . S
C5014 H4988 0.950 . S
C5014 C5010 1.385 . S
C5014 C5013 1.374 . S
C5015 C5012 1.499 . S
C5015 C5016 1.373 . S
C5015 C5017 1.389 . S
C5016 H4989 0.950 . S
C5016 C5002 1.377 . S
C5016 C5015 1.373 . S
C5017 C5001 1.377 . S
C5017 C5015 1.389 . S
C5017 C5018 1.524 . S
C5018 C5017 1.524 . S
C5018 C5019 1.397 . S
C5018 C5023 1.363 . S
C5019 H4990 0.950 . S
C5019 C5018 1.397 . S
C5019 C5020 1.334 . S
C5020 H4991 0.950 . S
C5020 C5019 1.334 . S
C5020 C5021 1.287 . S
C5021 C5020 1.287 . S
C5021 C5022 1.524 . S
C5021 H5024 0.999 . S
C5022 H4992 0.950 . S
C5022 C5021 1.524 . S
C5022 C5023 1.415 . S
C5023 H4993 0.950 . S
C5023 C5018 1.363 . S
C5023 C5022 1.415 . S
H5024 C5021 0.999 . S
H5025 C5006 0.913 . S
H5026 C5044 0.951 . S
H5027 C5046 0.951 . S
H5028 C5048 0.950 . S
H5029 C5049 0.950 . S
H5030 C5051 0.950 . S
H5031 C5054 0.950 . S
H5032 C5055 0.950 . S
H5033 C5057 0.950 . S
H5034 C5058 0.950 . S
H5035 C5059 0.951 . S
H5036 C5061 0.951 . S
H5037 C5063 0.950 . S
H5038 C5064 0.950 . S
H5039 C5066 0.950 . S
H5040 C5069 0.950 . S
H5041 C5070 0.950 . S
H5042 C5072 0.950 . S
H5043 C5073 0.950 . S
C5044 H5026 0.951 . S
C5044 C5045 1.366 . S
C5044 C5046 1.388 . S
C5045 C5044 1.366 . S
C5045 C5049 1.385 . S
C5046 H5027 0.951 . S
C5046 C5044 1.388 . S
C5046 C5047 1.366 . S
C5047 C5046 1.366 . S
C5047 C5048 1.414 . S
C5047 C5050 1.499 . S
C5048 H5028 0.950 . S
C5048 C5047 1.414 . S
C5048 C5049 1.374 . S
C5049 H5029 0.950 . S
C5049 C5045 1.385 . S
C5049 C5048 1.374 . S
C5050 C5047 1.499 . S
C5050 C5051 1.373 . S
C5050 C5052 1.389 . S
C5051 H5030 0.950 . S
C5051 C5050 1.373 . S
C5051 C5067 1.377 . S
C5052 C5050 1.389 . S
C5052 C5053 1.524 . S
C5052 C5066 1.377 . S
C5053 C5052 1.524 . S
C5053 C5054 1.397 . S
C5053 C5058 1.363 . S
C5054 H5031 0.950 . S
C5054 C5053 1.397 . S
C5054 C5055 1.334 . S
C5055 H5032 0.950 . S
C5055 C5054 1.334 . S
C5055 C5056 1.287 . S
C5056 C5055 1.287 . S
C5056 C5057 1.524 . S
C5056 H5075 0.913 . S
C5057 H5033 0.950 . S
C5057 C5056 1.524 . S
C5057 C5058 1.415 . S
C5058 H5034 0.950 . S
C5058 C5053 1.363 . S
C5058 C5057 1.415 . S
C5059 H5035 0.951 . S
C5059 C5060 1.366 . S
C5059 C5061 1.388 . S
C5060 C5059 1.366 . S
C5060 C5064 1.385 . S
C5061 H5036 0.951 . S
C5061 C5059 1.388 . S
C5061 C5062 1.366 . S
C5062 C5061 1.366 . S
C5062 C5063 1.414 . S
C5062 C5065 1.499 . S
C5063 H5037 0.950 . S
C5063 C5062 1.414 . S
C5063 C5064 1.374 . S
C5064 H5038 0.950 . S
C5064 C5060 1.385 . S
C5064 C5063 1.374 . S
C5065 C5062 1.499 . S
C5065 C5066 1.373 . S
C5065 C5067 1.389 . S
C5066 H5039 0.950 . S
C5066 C5052 1.377 . S
C5066 C5065 1.373 . S
C5067 C5051 1.377 . S
C5067 C5065 1.389 . S
C5067 C5068 1.524 . S
C5068 C5067 1.524 . S
C5068 C5069 1.397 . S
C5068 C5073 1.363 . S
C5069 H5040 0.950 . S
C5069 C5068 1.397 . S
C5069 C5070 1.334 . S
C5070 H5041 0.950 . S
C5070 C5069 1.334 . S
C5070 C5071 1.287 . S
C5071 C5070 1.287 . S
C5071 C5072 1.524 . S
C5071 H5074 0.999 . S
C5072 H5042 0.950 . S
C5072 C5071 1.524 . S
C5072 C5073 1.415 . S
C5073 H5043 0.950 . S
C5073 C5068 1.363 . S
C5073 C5072 1.415 . S
H5074 C5071 0.999 . S
H5075 C5056 0.913 . S
H5076 C5094 0.951 . S
H5077 C5096 0.951 . S
H5078 C5098 0.950 . S
H5079 C5099 0.950 . S
H5080 C5101 0.950 1_455 S
H5081 C5104 0.950 . S
H5082 C5105 0.950 . S
H5083 C5107 0.950 . S
H5084 C5108 0.950 . S
H5085 C5109 0.951 . S
H5086 C5111 0.951 . S
H5087 C5113 0.950 . S
H5088 C5114 0.950 1_655 S
H5089 C5116 0.950 . S
H5090 C5119 0.950 . S
H5091 C5120 0.950 . S
H5092 C5122 0.950 . S
H5093 C5123 0.950 . S
C5094 H5076 0.951 . S
C5094 C5095 1.366 . S
C5094 C5096 1.388 . S
C5095 C5094 1.366 . S
C5095 C5099 1.385 . S
C5096 H5077 0.951 . S
C5096 C5094 1.388 . S
C5096 C5097 1.366 . S
C5097 C5096 1.366 . S
C5097 C5098 1.414 . S
C5097 C5100 1.499 . S
C5098 H5078 0.950 . S
C5098 C5097 1.414 . S
C5098 C5099 1.374 . S
C5099 H5079 0.950 . S
C5099 C5095 1.385 . S
C5099 C5098 1.374 . S
C5100 C5097 1.499 . S
C5100 C5101 1.373 . S
C5100 C5102 1.389 . S
C5101 H5080 0.950 1_655 S
C5101 C5100 1.373 . S
C5101 C5117 1.377 1_655 S
C5102 C5100 1.389 . S
C5102 C5103 1.524 . S
C5102 C5116 1.377 . S
C5103 C5102 1.524 . S
C5103 C5104 1.397 . S
C5103 C5108 1.363 . S
C5104 H5081 0.950 . S
C5104 C5103 1.397 . S
C5104 C5105 1.334 . S
C5105 H5082 0.950 . S
C5105 C5104 1.334 . S
C5105 C5106 1.287 . S
C5106 C5105 1.287 . S
C5106 C5107 1.524 . S
C5106 H5125 0.913 . S
C5107 H5083 0.950 . S
C5107 C5106 1.524 . S
C5107 C5108 1.415 . S
C5108 H5084 0.950 . S
C5108 C5103 1.363 . S
C5108 C5107 1.415 . S
C5109 H5085 0.951 . S
C5109 C5110 1.366 . S
C5109 C5111 1.388 . S
C5110 C5109 1.366 . S
C5110 C5114 1.385 . S
C5111 H5086 0.951 . S
C5111 C5109 1.388 . S
C5111 C5112 1.366 . S
C5112 C5111 1.366 . S
C5112 C5113 1.414 1_455 S
C5112 C5115 1.499 1_455 S
C5113 H5087 0.950 . S
C5113 C5112 1.414 1_655 S
C5113 C5114 1.374 1_655 S
C5114 H5088 0.950 1_455 S
C5114 C5110 1.385 . S
C5114 C5113 1.374 1_455 S
C5115 C5112 1.499 1_655 S
C5115 C5116 1.373 . S
C5115 C5117 1.389 1_655 S
C5116 H5089 0.950 . S
C5116 C5102 1.377 . S
C5116 C5115 1.373 . S
C5117 C5101 1.377 1_455 S
C5117 C5115 1.389 1_455 S
C5117 C5118 1.524 . S
C5118 C5117 1.524 . S
C5118 C5119 1.397 . S
C5118 C5123 1.363 . S
C5119 H5090 0.950 . S
C5119 C5118 1.397 . S
C5119 C5120 1.334 . S
C5120 H5091 0.950 . S
C5120 C5119 1.334 . S
C5120 C5121 1.287 . S
C5121 C5120 1.287 . S
C5121 C5122 1.524 . S
C5121 H5124 0.999 . S
C5122 H5092 0.950 . S
C5122 C5121 1.524 . S
C5122 C5123 1.415 . S
C5123 H5093 0.950 . S
C5123 C5118 1.363 . S
C5123 C5122 1.415 . S
H5124 C5121 0.999 . S
H5125 C5106 0.913 . S
H5126 C5144 0.951 . S
H5127 C5146 0.951 . S
H5128 C5148 0.950 . S
H5129 C5149 0.950 . S
H5130 C5151 0.950 . S
H5131 C5154 0.950 . S
H5132 C5155 0.950 . S
H5133 C5157 0.950 . S
H5134 C5158 0.950 . S
H5135 C5159 0.951 . S
H5136 C5161 0.951 . S
H5137 C5163 0.950 . S
H5138 C5164 0.950 . S
H5139 C5166 0.950 . S
H5140 C5169 0.950 . S
H5141 C5170 0.950 . S
H5142 C5172 0.950 . S
H5143 C5173 0.950 . S
C5144 H5126 0.951 . S
C5144 C5145 1.366 . S
C5144 C5146 1.388 . S
C5145 C5144 1.366 . S
C5145 C5149 1.385 . S
C5146 H5127 0.951 . S
C5146 C5144 1.388 . S
C5146 C5147 1.366 . S
C5147 C5146 1.366 . S
C5147 C5148 1.414 . S
C5147 C5150 1.499 . S
C5148 H5128 0.950 . S
C5148 C5147 1.414 . S
C5148 C5149 1.374 . S
C5149 H5129 0.950 . S
C5149 C5145 1.385 . S
C5149 C5148 1.374 . S
C5150 C5147 1.499 . S
C5150 C5151 1.373 . S
C5150 C5152 1.389 . S
C5151 H5130 0.950 . S
C5151 C5150 1.373 . S
C5151 C5167 1.377 . S
C5152 C5150 1.389 . S
C5152 C5153 1.524 . S
C5152 C5166 1.377 . S
C5153 C5152 1.524 . S
C5153 C5154 1.397 . S
C5153 C5158 1.363 . S
C5154 H5131 0.950 . S
C5154 C5153 1.397 . S
C5154 C5155 1.334 . S
C5155 H5132 0.950 . S
C5155 C5154 1.334 . S
C5155 C5156 1.287 . S
C5156 C5155 1.287 . S
C5156 C5157 1.524 . S
C5156 H5175 0.913 . S
C5157 H5133 0.950 . S
C5157 C5156 1.524 . S
C5157 C5158 1.415 . S
C5158 H5134 0.950 . S
C5158 C5153 1.363 . S
C5158 C5157 1.415 . S
C5159 H5135 0.951 . S
C5159 C5160 1.366 . S
C5159 C5161 1.388 . S
C5160 C5159 1.366 . S
C5160 C5164 1.385 . S
C5161 H5136 0.951 . S
C5161 C5159 1.388 . S
C5161 C5162 1.366 . S
C5162 C5161 1.366 . S
C5162 C5163 1.414 . S
C5162 C5165 1.499 . S
C5163 H5137 0.950 . S
C5163 C5162 1.414 . S
C5163 C5164 1.374 . S
C5164 H5138 0.950 . S
C5164 C5160 1.385 . S
C5164 C5163 1.374 . S
C5165 C5162 1.499 . S
C5165 C5166 1.373 . S
C5165 C5167 1.389 . S
C5166 H5139 0.950 . S
C5166 C5152 1.377 . S
C5166 C5165 1.373 . S
C5167 C5151 1.377 . S
C5167 C5165 1.389 . S
C5167 C5168 1.524 . S
C5168 C5167 1.524 . S
C5168 C5169 1.397 . S
C5168 C5173 1.363 . S
C5169 H5140 0.950 . S
C5169 C5168 1.397 . S
C5169 C5170 1.334 . S
C5170 H5141 0.950 . S
C5170 C5169 1.334 . S
C5170 C5171 1.287 . S
C5171 C5170 1.287 . S
C5171 C5172 1.524 . S
C5171 H5174 0.999 . S
C5172 H5142 0.950 . S
C5172 C5171 1.524 . S
C5172 C5173 1.415 . S
C5173 H5143 0.950 . S
C5173 C5168 1.363 . S
C5173 C5172 1.415 . S
H5174 C5171 0.999 . S
H5175 C5156 0.913 . S
H5176 C5194 0.951 . S
H5177 C5196 0.951 . S
H5178 C5198 0.950 . S
H5179 C5199 0.950 . S
H5180 C5201 0.950 . S
H5181 C5204 0.950 . S
H5182 C5205 0.950 . S
H5183 C5207 0.950 . S
H5184 C5208 0.950 . S
H5185 C5209 0.951 . S
H5186 C5211 0.951 . S
H5187 C5213 0.950 . S
H5188 C5214 0.950 . S
H5189 C5216 0.950 . S
H5190 C5219 0.950 . S
H5191 C5220 0.950 . S
H5192 C5222 0.950 . S
H5193 C5223 0.950 . S
C5194 H5176 0.951 . S
C5194 C5195 1.366 . S
C5194 C5196 1.388 . S
C5195 C5194 1.366 . S
C5195 C5199 1.385 . S
C5196 H5177 0.951 . S
C5196 C5194 1.388 . S
C5196 C5197 1.366 . S
C5197 C5196 1.366 . S
C5197 C5198 1.414 . S
C5197 C5200 1.499 . S
C5198 H5178 0.950 . S
C5198 C5197 1.414 . S
C5198 C5199 1.374 . S
C5199 H5179 0.950 . S
C5199 C5195 1.385 . S
C5199 C5198 1.374 . S
C5200 C5197 1.499 . S
C5200 C5201 1.373 . S
C5200 C5202 1.389 . S
C5201 H5180 0.950 . S
C5201 C5200 1.373 . S
C5201 C5217 1.377 . S
C5202 C5200 1.389 . S
C5202 C5203 1.524 . S
C5202 C5216 1.377 . S
C5203 C5202 1.524 . S
C5203 C5204 1.397 . S
C5203 C5208 1.363 . S
C5204 H5181 0.950 . S
C5204 C5203 1.397 . S
C5204 C5205 1.334 . S
C5205 H5182 0.950 . S
C5205 C5204 1.334 . S
C5205 C5206 1.287 . S
C5206 C5205 1.287 . S
C5206 C5207 1.524 . S
C5206 H5225 0.913 . S
C5207 H5183 0.950 . S
C5207 C5206 1.524 . S
C5207 C5208 1.415 . S
C5208 H5184 0.950 . S
C5208 C5203 1.363 . S
C5208 C5207 1.415 . S
C5209 H5185 0.951 . S
C5209 C5210 1.366 . S
C5209 C5211 1.388 . S
C5210 C5209 1.366 . S
C5210 C5214 1.385 . S
C5211 H5186 0.951 . S
C5211 C5209 1.388 . S
C5211 C5212 1.366 . S
C5212 C5211 1.366 . S
C5212 C5213 1.414 . S
C5212 C5215 1.499 . S
C5213 H5187 0.950 . S
C5213 C5212 1.414 . S
C5213 C5214 1.374 . S
C5214 H5188 0.950 . S
C5214 C5210 1.385 . S
C5214 C5213 1.374 . S
C5215 C5212 1.499 . S
C5215 C5216 1.373 . S
C5215 C5217 1.389 . S
C5216 H5189 0.950 . S
C5216 C5202 1.377 . S
C5216 C5215 1.373 . S
C5217 C5201 1.377 . S
C5217 C5215 1.389 . S
C5217 C5218 1.524 . S
C5218 C5217 1.524 . S
C5218 C5219 1.397 . S
C5218 C5223 1.363 . S
C5219 H5190 0.950 . S
C5219 C5218 1.397 . S
C5219 C5220 1.334 . S
C5220 H5191 0.950 . S
C5220 C5219 1.334 . S
C5220 C5221 1.287 . S
C5221 C5220 1.287 . S
C5221 C5222 1.524 . S
C5221 H5224 0.999 . S
C5222 H5192 0.950 . S
C5222 C5221 1.524 . S
C5222 C5223 1.415 . S
C5223 H5193 0.950 . S
C5223 C5218 1.363 . S
C5223 C5222 1.415 . S
H5224 C5221 0.999 . S
H5225 C5206 0.913 . S
H5226 C5244 0.951 . S
H5227 C5246 0.951 . S
H5228 C5248 0.950 . S
H5229 C5249 0.950 . S
H5230 C5251 0.950 . S
H5231 C5254 0.950 . S
H5232 C5255 0.950 . S
H5233 C5257 0.950 . S
H5234 C5258 0.950 . S
H5235 C5259 0.951 . S
H5236 C5261 0.951 . S
H5237 C5263 0.950 . S
H5238 C5264 0.950 . S
H5239 C5266 0.950 . S
H5240 C5269 0.950 . S
H5241 C5270 0.950 . S
H5242 C5272 0.950 . S
H5243 C5273 0.950 . S
C5244 H5226 0.951 . S
C5244 C5245 1.366 . S
C5244 C5246 1.388 . S
C5245 C5244 1.366 . S
C5245 C5249 1.385 . S
C5246 H5227 0.951 . S
C5246 C5244 1.388 . S
C5246 C5247 1.366 . S
C5247 C5246 1.366 . S
C5247 C5248 1.414 . S
C5247 C5250 1.499 . S
C5248 H5228 0.950 . S
C5248 C5247 1.414 . S
C5248 C5249 1.374 . S
C5249 H5229 0.950 . S
C5249 C5245 1.385 . S
C5249 C5248 1.374 . S
C5250 C5247 1.499 . S
C5250 C5251 1.373 . S
C5250 C5252 1.389 . S
C5251 H5230 0.950 . S
C5251 C5250 1.373 . S
C5251 C5267 1.377 . S
C5252 C5250 1.389 . S
C5252 C5253 1.524 . S
C5252 C5266 1.377 . S
C5253 C5252 1.524 . S
C5253 C5254 1.397 . S
C5253 C5258 1.363 . S
C5254 H5231 0.950 . S
C5254 C5253 1.397 . S
C5254 C5255 1.334 . S
C5255 H5232 0.950 . S
C5255 C5254 1.334 . S
C5255 C5256 1.287 . S
C5256 C5255 1.287 . S
C5256 C5257 1.524 . S
C5256 H5275 0.913 . S
C5257 H5233 0.950 . S
C5257 C5256 1.524 . S
C5257 C5258 1.415 . S
C5258 H5234 0.950 . S
C5258 C5253 1.363 . S
C5258 C5257 1.415 . S
C5259 H5235 0.951 . S
C5259 C5260 1.366 . S
C5259 C5261 1.388 . S
C5260 C5259 1.366 . S
C5260 C5264 1.385 . S
C5261 H5236 0.951 . S
C5261 C5259 1.388 . S
C5261 C5262 1.366 . S
C5262 C5261 1.366 . S
C5262 C5263 1.414 . S
C5262 C5265 1.499 . S
C5263 H5237 0.950 . S
C5263 C5262 1.414 . S
C5263 C5264 1.374 . S
C5264 H5238 0.950 . S
C5264 C5260 1.385 . S
C5264 C5263 1.374 . S
C5265 C5262 1.499 . S
C5265 C5266 1.373 . S
C5265 C5267 1.389 . S
C5266 H5239 0.950 . S
C5266 C5252 1.377 . S
C5266 C5265 1.373 . S
C5267 C5251 1.377 . S
C5267 C5265 1.389 . S
C5267 C5268 1.524 . S
C5268 C5267 1.524 . S
C5268 C5269 1.397 . S
C5268 C5273 1.363 . S
C5269 H5240 0.950 . S
C5269 C5268 1.397 . S
C5269 C5270 1.334 . S
C5270 H5241 0.950 . S
C5270 C5269 1.334 . S
C5270 C5271 1.287 . S
C5271 C5270 1.287 . S
C5271 C5272 1.524 . S
C5271 H5274 0.999 . S
C5272 H5242 0.950 . S
C5272 C5271 1.524 . S
C5272 C5273 1.415 . S
C5273 H5243 0.950 . S
C5273 C5268 1.363 . S
C5273 C5272 1.415 . S
H5274 C5271 0.999 . S
H5275 C5256 0.913 . S
H5276 C5294 0.951 . S
H5277 C5296 0.951 . S
H5278 C5298 0.950 . S
H5279 C5299 0.950 . S
H5280 C5301 0.950 . S
H5281 C5304 0.950 . S
H5282 C5305 0.950 . S
H5283 C5307 0.950 . S
H5284 C5308 0.950 . S
H5285 C5309 0.951 . S
H5286 C5311 0.953 1_655 S
H5287 C5313 0.982 . S
H5288 C5314 0.950 . S
H5289 C5316 0.950 . S
H5290 C5319 0.950 . S
H5291 C5320 0.950 . S
H5292 C5322 0.950 . S
H5293 C5323 0.950 . S
C5294 H5276 0.951 . S
C5294 C5295 1.366 . S
C5294 C5296 1.388 . S
C5295 C5294 1.366 . S
C5295 C5299 1.385 . S
C5296 H5277 0.951 . S
C5296 C5294 1.388 . S
C5296 C5297 1.366 . S
C5297 C5296 1.366 . S
C5297 C5298 1.414 . S
C5297 C5300 1.499 . S
C5298 H5278 0.950 . S
C5298 C5297 1.414 . S
C5298 C5299 1.374 . S
C5299 H5279 0.950 . S
C5299 C5295 1.385 . S
C5299 C5298 1.374 . S
C5300 C5297 1.499 . S
C5300 C5301 1.373 . S
C5300 C5302 1.389 . S
C5301 H5280 0.950 . S
C5301 C5300 1.373 . S
C5301 C5317 1.377 . S
C5302 C5300 1.389 . S
C5302 C5303 1.524 . S
C5302 C5316 1.377 . S
C5303 C5302 1.524 . S
C5303 C5304 1.397 . S
C5303 C5308 1.363 . S
C5304 H5281 0.950 . S
C5304 C5303 1.397 . S
C5304 C5305 1.334 . S
C5305 H5282 0.950 . S
C5305 C5304 1.334 . S
C5305 C5306 1.287 . S
C5306 C5305 1.287 . S
C5306 C5307 1.524 . S
C5306 H5325 0.913 . S
C5307 H5283 0.950 . S
C5307 C5306 1.524 . S
C5307 C5308 1.415 . S
C5308 H5284 0.950 . S
C5308 C5303 1.363 . S
C5308 C5307 1.415 . S
C5309 H5285 0.951 . S
C5309 C5310 1.366 . S
C5309 C5311 1.400 . S
C5310 C5309 1.366 . S
C5310 C5314 1.385 . S
C5311 H5286 0.953 1_455 S
C5311 C5309 1.400 . S
C5311 C5312 1.352 1_455 S
C5312 C5311 1.352 1_655 S
C5312 C5313 1.411 . S
C5312 C5315 1.499 . S
C5313 H5287 0.982 . S
C5313 C5312 1.411 . S
C5313 C5314 1.349 1_655 S
C5314 H5288 0.950 . S
C5314 C5310 1.385 . S
C5314 C5313 1.349 1_455 S
C5315 C5312 1.499 . S
C5315 C5316 1.373 . S
C5315 C5317 1.389 . S
C5316 H5289 0.950 . S
C5316 C5302 1.377 . S
C5316 C5315 1.373 . S
C5317 C5301 1.377 . S
C5317 C5315 1.389 . S
C5317 C5318 1.524 1_655 S
C5318 C5317 1.524 1_455 S
C5318 C5319 1.397 . S
C5318 C5323 1.363 . S
C5319 H5290 0.950 . S
C5319 C5318 1.397 . S
C5319 C5320 1.334 . S
C5320 H5291 0.950 . S
C5320 C5319 1.334 . S
C5320 C5321 1.287 . S
C5321 C5320 1.287 . S
C5321 C5322 1.524 . S
C5321 H5324 0.999 . S
C5322 H5292 0.950 . S
C5322 C5321 1.524 . S
C5322 C5323 1.415 . S
C5323 H5293 0.950 . S
C5323 C5318 1.363 . S
C5323 C5322 1.415 . S
H5324 C5321 0.999 . S
H5325 C5306 0.913 . S
H5326 C5344 0.951 . S
H5327 C5346 0.951 . S
H5328 C5348 0.950 . S
H5329 C5349 0.950 . S
H5330 C5351 0.950 . S
H5331 C5354 0.950 . S
H5332 C5355 0.950 . S
H5333 C5357 0.950 . S
H5334 C5358 0.950 . S
H5335 C5359 0.951 . S
H5336 C5361 0.951 . S
H5337 C5363 0.950 . S
H5338 C5364 0.950 . S
H5339 C5366 0.950 . S
H5340 C5369 0.950 . S
H5341 C5370 0.950 . S
H5342 C5372 0.950 . S
H5343 C5373 0.950 . S
C5344 H5326 0.951 . S
C5344 C5345 1.366 . S
C5344 C5346 1.388 . S
C5345 C5344 1.366 . S
C5345 C5349 1.385 . S
C5346 H5327 0.951 . S
C5346 C5344 1.388 . S
C5346 C5347 1.366 . S
C5347 C5346 1.366 . S
C5347 C5348 1.414 . S
C5347 C5350 1.499 . S
C5348 H5328 0.950 . S
C5348 C5347 1.414 . S
C5348 C5349 1.374 . S
C5349 H5329 0.950 . S
C5349 C5345 1.385 . S
C5349 C5348 1.374 . S
C5350 C5347 1.499 . S
C5350 C5351 1.373 . S
C5350 C5352 1.389 . S
C5351 H5330 0.950 . S
C5351 C5350 1.373 . S
C5351 C5367 1.377 . S
C5352 C5350 1.389 . S
C5352 C5353 1.524 . S
C5352 C5366 1.377 . S
C5353 C5352 1.524 . S
C5353 C5354 1.397 . S
C5353 C5358 1.363 . S
C5354 H5331 0.950 . S
C5354 C5353 1.397 . S
C5354 C5355 1.334 . S
C5355 H5332 0.950 . S
C5355 C5354 1.334 . S
C5355 C5356 1.287 . S
C5356 C5355 1.287 . S
C5356 C5357 1.524 . S
C5356 H5375 0.913 . S
C5357 H5333 0.950 . S
C5357 C5356 1.524 . S
C5357 C5358 1.415 . S
C5358 H5334 0.950 . S
C5358 C5353 1.363 . S
C5358 C5357 1.415 . S
C5359 H5335 0.951 . S
C5359 C5360 1.366 . S
C5359 C5361 1.388 . S
C5360 C5359 1.366 . S
C5360 C5364 1.385 . S
C5361 H5336 0.951 . S
C5361 C5359 1.388 . S
C5361 C5362 1.366 . S
C5362 C5361 1.366 . S
C5362 C5363 1.414 . S
C5362 C5365 1.499 . S
C5363 H5337 0.950 . S
C5363 C5362 1.414 . S
C5363 C5364 1.374 . S
C5364 H5338 0.950 . S
C5364 C5360 1.385 . S
C5364 C5363 1.374 . S
C5365 C5362 1.499 . S
C5365 C5366 1.373 . S
C5365 C5367 1.389 . S
C5366 H5339 0.950 . S
C5366 C5352 1.377 . S
C5366 C5365 1.373 . S
C5367 C5351 1.377 . S
C5367 C5365 1.389 . S
C5367 C5368 1.524 . S
C5368 C5367 1.524 . S
C5368 C5369 1.397 . S
C5368 C5373 1.363 . S
C5369 H5340 0.950 . S
C5369 C5368 1.397 . S
C5369 C5370 1.334 . S
C5370 H5341 0.950 . S
C5370 C5369 1.334 . S
C5370 C5371 1.287 . S
C5371 C5370 1.287 . S
C5371 C5372 1.524 . S
C5371 H5374 0.999 . S
C5372 H5342 0.950 . S
C5372 C5371 1.524 . S
C5372 C5373 1.415 . S
C5373 H5343 0.950 . S
C5373 C5368 1.363 . S
C5373 C5372 1.415 . S
H5374 C5371 0.999 . S
H5375 C5356 0.913 . S
H5376 C5394 0.951 . S
H5377 C5396 0.951 . S
H5378 C5398 0.950 . S
H5379 C5399 0.950 . S
H5380 C5401 0.950 . S
H5381 C5404 0.950 . S
H5382 C5405 0.950 . S
H5383 C5407 0.950 . S
H5384 C5408 0.950 . S
H5385 C5409 0.951 . S
H5386 C5411 0.951 . S
H5387 C5413 0.950 . S
H5388 C5414 0.950 . S
H5389 C5416 0.950 . S
H5390 C5419 0.950 . S
H5391 C5420 0.950 . S
H5392 C5422 0.950 . S
H5393 C5423 0.950 . S
C5394 H5376 0.951 . S
C5394 C5395 1.366 . S
C5394 C5396 1.388 . S
C5395 C5394 1.366 . S
C5395 C5399 1.385 . S
C5396 H5377 0.951 . S
C5396 C5394 1.388 . S
C5396 C5397 1.366 . S
C5397 C5396 1.366 . S
C5397 C5398 1.414 . S
C5397 C5400 1.499 . S
C5398 H5378 0.950 . S
C5398 C5397 1.414 . S
C5398 C5399 1.374 . S
C5399 H5379 0.950 . S
C5399 C5395 1.385 . S
C5399 C5398 1.374 . S
C5400 C5397 1.499 . S
C5400 C5401 1.373 . S
C5400 C5402 1.389 . S
C5401 H5380 0.950 . S
C5401 C5400 1.373 . S
C5401 C5417 1.377 . S
C5402 C5400 1.389 . S
C5402 C5403 1.524 . S
C5402 C5416 1.377 . S
C5403 C5402 1.524 . S
C5403 C5404 1.397 . S
C5403 C5408 1.363 . S
C5404 H5381 0.950 . S
C5404 C5403 1.397 . S
C5404 C5405 1.334 . S
C5405 H5382 0.950 . S
C5405 C5404 1.334 . S
C5405 C5406 1.287 . S
C5406 C5405 1.287 . S
C5406 C5407 1.524 . S
C5406 H5425 0.913 . S
C5407 H5383 0.950 . S
C5407 C5406 1.524 . S
C5407 C5408 1.415 . S
C5408 H5384 0.950 . S
C5408 C5403 1.363 . S
C5408 C5407 1.415 . S
C5409 H5385 0.951 . S
C5409 C5410 1.366 . S
C5409 C5411 1.388 . S
C5410 C5409 1.366 . S
C5410 C5414 1.385 . S
C5411 H5386 0.951 . S
C5411 C5409 1.388 . S
C5411 C5412 1.366 . S
C5412 C5411 1.366 . S
C5412 C5413 1.414 . S
C5412 C5415 1.499 . S
C5413 H5387 0.950 . S
C5413 C5412 1.414 . S
C5413 C5414 1.374 . S
C5414 H5388 0.950 . S
C5414 C5410 1.385 . S
C5414 C5413 1.374 . S
C5415 C5412 1.499 . S
C5415 C5416 1.373 . S
C5415 C5417 1.389 . S
C5416 H5389 0.950 . S
C5416 C5402 1.377 . S
C5416 C5415 1.373 . S
C5417 C5401 1.377 . S
C5417 C5415 1.389 . S
C5417 C5418 1.524 . S
C5418 C5417 1.524 . S
C5418 C5419 1.397 . S
C5418 C5423 1.363 . S
C5419 H5390 0.950 . S
C5419 C5418 1.397 . S
C5419 C5420 1.334 . S
C5420 H5391 0.950 . S
C5420 C5419 1.334 . S
C5420 C5421 1.287 . S
C5421 C5420 1.287 . S
C5421 C5422 1.524 . S
C5421 H5424 0.999 . S
C5422 H5392 0.950 . S
C5422 C5421 1.524 . S
C5422 C5423 1.415 . S
C5423 H5393 0.950 . S
C5423 C5418 1.363 . S
C5423 C5422 1.415 . S
H5424 C5421 0.999 . S
H5425 C5406 0.913 . S
H5426 C5444 0.951 . S
H5427 C5446 0.951 . S
H5428 C5448 0.950 . S
H5429 C5449 0.950 . S
H5430 C5451 0.950 . S
H5431 C5454 0.950 . S
H5432 C5455 0.950 . S
H5433 C5457 0.950 . S
H5434 C5458 0.950 . S
H5435 C5459 0.951 . S
H5436 C5461 0.951 1_545 S
H5437 C5463 0.950 . S
H5438 C5464 0.950 . S
H5439 C5466 0.950 . S
H5440 C5469 0.950 . S
H5441 C5470 0.956 . S
H5442 C5472 0.950 . S
H5443 C5473 0.950 . S
C5444 H5426 0.951 . S
C5444 C5445 1.366 . S
C5444 C5446 1.388 . S
C5445 C5444 1.366 . S
C5445 C5449 1.385 . S
C5446 H5427 0.951 . S
C5446 C5444 1.388 . S
C5446 C5447 1.366 . S
C5447 C5446 1.366 . S
C5447 C5448 1.414 . S
C5447 C5450 1.499 . S
C5448 H5428 0.950 . S
C5448 C5447 1.414 . S
C5448 C5449 1.374 . S
C5449 H5429 0.950 . S
C5449 C5445 1.385 . S
C5449 C5448 1.374 . S
C5450 C5447 1.499 . S
C5450 C5451 1.373 . S
C5450 C5452 1.389 . S
C5451 H5430 0.950 . S
C5451 C5450 1.373 . S
C5451 C5467 1.377 . S
C5452 C5450 1.389 . S
C5452 C5453 1.524 . S
C5452 C5466 1.377 . S
C5453 C5452 1.524 . S
C5453 C5454 1.397 . S
C5453 C5458 1.363 . S
C5454 H5431 0.950 . S
C5454 C5453 1.397 . S
C5454 C5455 1.334 . S
C5455 H5432 0.950 . S
C5455 C5454 1.334 . S
C5455 C5456 1.287 . S
C5456 C5455 1.287 . S
C5456 C5457 1.524 . S
C5456 H5475 0.913 . S
C5457 H5433 0.950 . S
C5457 C5456 1.524 . S
C5457 C5458 1.415 . S
C5458 H5434 0.950 . S
C5458 C5453 1.363 . S
C5458 C5457 1.415 . S
C5459 H5435 0.951 . S
C5459 C5460 1.368 . S
C5459 C5461 1.388 1_545 S
C5460 C5459 1.368 . S
C5460 C5464 1.382 1_545 S
C5461 H5436 0.951 1_565 S
C5461 C5459 1.388 1_565 S
C5461 C5462 1.366 . S
C5462 C5461 1.366 . S
C5462 C5463 1.414 . S
C5462 C5465 1.499 . S
C5463 H5437 0.950 . S
C5463 C5462 1.414 . S
C5463 C5464 1.374 . S
C5464 H5438 0.950 . S
C5464 C5460 1.382 1_565 S
C5464 C5463 1.374 . S
C5465 C5462 1.499 . S
C5465 C5466 1.373 . S
C5465 C5467 1.389 . S
C5466 H5439 0.950 . S
C5466 C5452 1.377 . S
C5466 C5465 1.373 . S
C5467 C5451 1.377 . S
C5467 C5465 1.389 . S
C5467 C5468 1.524 . S
C5468 C5467 1.524 . S
C5468 C5469 1.397 . S
C5468 C5473 1.363 . S
C5469 H5440 0.950 . S
C5469 C5468 1.397 . S
C5469 C5470 1.379 . S
C5470 H5441 0.956 . S
C5470 C5469 1.379 . S
C5470 C5471 1.239 1_565 S
C5471 C5470 1.239 1_545 S
C5471 C5472 1.524 . S
C5471 H5474 0.999 . S
C5472 H5442 0.950 . S
C5472 C5471 1.524 . S
C5472 C5473 1.415 1_545 S
C5473 H5443 0.950 . S
C5473 C5468 1.363 . S
C5473 C5472 1.415 1_565 S
H5474 C5471 0.999 . S
H5475 C5456 0.913 . S
H5476 C5494 0.951 . S
H5477 C5496 0.951 . S
H5478 C5498 0.950 . S
H5479 C5499 0.950 . S
H5480 C5501 0.950 . S
H5481 C5504 0.950 . S
H5482 C5505 0.950 . S
H5483 C5507 0.950 . S
H5484 C5508 0.950 . S
H5485 C5509 0.951 . S
H5486 C5511 0.951 . S
H5487 C5513 0.950 . S
H5488 C5514 0.950 . S
H5489 C5516 0.950 . S
H5490 C5519 0.950 . S
H5491 C5520 0.950 . S
H5492 C5522 0.950 . S
H5493 C5523 0.950 . S
C5494 H5476 0.951 . S
C5494 C5495 1.366 . S
C5494 C5496 1.388 . S
C5495 C5494 1.366 . S
C5495 C5499 1.385 . S
C5496 H5477 0.951 . S
C5496 C5494 1.388 . S
C5496 C5497 1.366 . S
C5497 C5496 1.366 . S
C5497 C5498 1.414 . S
C5497 C5500 1.499 . S
C5498 H5478 0.950 . S
C5498 C5497 1.414 . S
C5498 C5499 1.374 . S
C5499 H5479 0.950 . S
C5499 C5495 1.385 . S
C5499 C5498 1.374 . S
C5500 C5497 1.499 . S
C5500 C5501 1.373 . S
C5500 C5502 1.389 . S
C5501 H5480 0.950 . S
C5501 C5500 1.373 . S
C5501 C5517 1.377 . S
C5502 C5500 1.389 . S
C5502 C5503 1.524 . S
C5502 C5516 1.377 . S
C5503 C5502 1.524 . S
C5503 C5504 1.397 . S
C5503 C5508 1.363 . S
C5504 H5481 0.950 . S
C5504 C5503 1.397 . S
C5504 C5505 1.334 . S
C5505 H5482 0.950 . S
C5505 C5504 1.334 . S
C5505 C5506 1.287 . S
C5506 C5505 1.287 . S
C5506 C5507 1.524 . S
C5506 H5525 0.913 . S
C5507 H5483 0.950 . S
C5507 C5506 1.524 . S
C5507 C5508 1.415 . S
C5508 H5484 0.950 . S
C5508 C5503 1.363 . S
C5508 C5507 1.415 . S
C5509 H5485 0.951 . S
C5509 C5510 1.366 . S
C5509 C5511 1.388 . S
C5510 C5509 1.366 . S
C5510 C5514 1.385 . S
C5511 H5486 0.951 . S
C5511 C5509 1.388 . S
C5511 C5512 1.366 . S
C5512 C5511 1.366 . S
C5512 C5513 1.414 . S
C5512 C5515 1.499 . S
C5513 H5487 0.950 . S
C5513 C5512 1.414 . S
C5513 C5514 1.374 . S
C5514 H5488 0.950 . S
C5514 C5510 1.385 . S
C5514 C5513 1.374 . S
C5515 C5512 1.499 . S
C5515 C5516 1.373 . S
C5515 C5517 1.389 . S
C5516 H5489 0.950 . S
C5516 C5502 1.377 . S
C5516 C5515 1.373 . S
C5517 C5501 1.377 . S
C5517 C5515 1.389 . S
C5517 C5518 1.524 . S
C5518 C5517 1.524 . S
C5518 C5519 1.397 . S
C5518 C5523 1.363 . S
C5519 H5490 0.950 . S
C5519 C5518 1.397 . S
C5519 C5520 1.334 . S
C5520 H5491 0.950 . S
C5520 C5519 1.334 . S
C5520 C5521 1.287 . S
C5521 C5520 1.287 . S
C5521 C5522 1.524 . S
C5521 H5524 0.999 . S
C5522 H5492 0.950 . S
C5522 C5521 1.524 . S
C5522 C5523 1.415 . S
C5523 H5493 0.950 . S
C5523 C5518 1.363 . S
C5523 C5522 1.415 . S
H5524 C5521 0.999 . S
H5525 C5506 0.913 . S
H5526 C5544 0.951 . S
H5527 C5546 0.951 . S
H5528 C5548 0.950 . S
H5529 C5549 0.950 . S
H5530 C5551 0.950 . S
H5531 C5554 0.950 . S
H5532 C5555 0.950 . S
H5533 C5557 0.950 1_565 S
H5534 C5558 0.950 . S
H5535 C5559 0.951 . S
H5536 C5561 0.951 . S
H5537 C5563 0.950 . S
H5538 C5564 0.950 . S
H5539 C5566 0.950 . S
H5540 C5569 0.950 . S
H5541 C5570 0.950 . S
H5542 C5572 0.950 . S
H5543 C5573 0.950 . S
C5544 H5526 0.951 . S
C5544 C5545 1.366 . S
C5544 C5546 1.388 . S
C5545 C5544 1.366 . S
C5545 C5549 1.385 . S
C5546 H5527 0.951 . S
C5546 C5544 1.388 . S
C5546 C5547 1.366 . S
C5547 C5546 1.366 . S
C5547 C5548 1.414 . S
C5547 C5550 1.499 . S
C5548 H5528 0.950 . S
C5548 C5547 1.414 . S
C5548 C5549 1.374 . S
C5549 H5529 0.950 . S
C5549 C5545 1.385 . S
C5549 C5548 1.374 . S
C5550 C5547 1.499 . S
C5550 C5551 1.373 . S
C5550 C5552 1.389 . S
C5551 H5530 0.950 . S
C5551 C5550 1.373 . S
C5551 C5567 1.377 . S
C5552 C5550 1.389 . S
C5552 C5553 1.524 . S
C5552 C5566 1.377 . S
C5553 C5552 1.524 . S
C5553 C5554 1.397 . S
C5553 C5558 1.363 . S
C5554 H5531 0.950 . S
C5554 C5553 1.397 . S
C5554 C5555 1.334 . S
C5555 H5532 0.950 . S
C5555 C5554 1.334 . S
C5555 C5556 1.287 . S
C5556 C5555 1.287 . S
C5556 C5557 1.524 . S
C5556 H5575 0.913 1_545 S
C5557 H5533 0.950 1_545 S
C5557 C5556 1.524 . S
C5557 C5558 1.415 . S
C5558 H5534 0.950 . S
C5558 C5553 1.363 . S
C5558 C5557 1.415 . S
C5559 H5535 0.951 . S
C5559 C5560 1.366 . S
C5559 C5561 1.388 . S
C5560 C5559 1.366 . S
C5560 C5564 1.385 . S
C5561 H5536 0.951 . S
C5561 C5559 1.388 . S
C5561 C5562 1.366 . S
C5562 C5561 1.366 . S
C5562 C5563 1.414 . S
C5562 C5565 1.499 . S
C5563 H5537 0.950 . S
C5563 C5562 1.414 . S
C5563 C5564 1.374 . S
C5564 H5538 0.950 . S
C5564 C5560 1.385 . S
C5564 C5563 1.374 . S
C5565 C5562 1.499 . S
C5565 C5566 1.373 . S
C5565 C5567 1.389 . S
C5566 H5539 0.950 . S
C5566 C5552 1.377 . S
C5566 C5565 1.373 . S
C5567 C5551 1.377 . S
C5567 C5565 1.389 . S
C5567 C5568 1.524 . S
C5568 C5567 1.524 . S
C5568 C5569 1.397 . S
C5568 C5573 1.363 . S
C5569 H5540 0.950 . S
C5569 C5568 1.397 . S
C5569 C5570 1.334 . S
C5570 H5541 0.950 . S
C5570 C5569 1.334 . S
C5570 C5571 1.287 . S
C5571 C5570 1.287 . S
C5571 C5572 1.524 . S
C5571 H5574 0.999 . S
C5572 H5542 0.950 . S
C5572 C5571 1.524 . S
C5572 C5573 1.415 . S
C5573 H5543 0.950 . S
C5573 C5568 1.363 . S
C5573 C5572 1.415 . S
H5574 C5571 0.999 . S
H5575 C5556 0.913 1_565 S
H5576 C5594 0.951 . S
H5577 C5596 0.951 . S
H5578 C5598 0.950 . S
H5579 C5599 0.950 . S
H5580 C5601 0.950 . S
H5581 C5604 0.950 . S
H5582 C5605 0.950 . S
H5583 C5607 0.950 . S
H5584 C5608 0.950 . S
H5585 C5609 0.951 . S
H5586 C5611 0.951 . S
H5587 C5613 0.950 . S
H5588 C5614 0.950 . S
H5589 C5616 0.950 . S
H5590 C5619 0.950 . S
H5591 C5620 0.950 . S
H5592 C5622 0.950 . S
H5593 C5623 0.950 . S
C5594 H5576 0.951 . S
C5594 C5595 1.366 . S
C5594 C5596 1.388 . S
C5595 C5594 1.366 . S
C5595 C5599 1.385 . S
C5596 H5577 0.951 . S
C5596 C5594 1.388 . S
C5596 C5597 1.366 . S
C5597 C5596 1.366 . S
C5597 C5598 1.414 . S
C5597 C5600 1.499 . S
C5598 H5578 0.950 . S
C5598 C5597 1.414 . S
C5598 C5599 1.374 . S
C5599 H5579 0.950 . S
C5599 C5595 1.385 . S
C5599 C5598 1.374 . S
C5600 C5597 1.499 . S
C5600 C5601 1.373 . S
C5600 C5602 1.389 . S
C5601 H5580 0.950 . S
C5601 C5600 1.373 . S
C5601 C5617 1.377 . S
C5602 C5600 1.389 . S
C5602 C5603 1.524 . S
C5602 C5616 1.377 . S
C5603 C5602 1.524 . S
C5603 C5604 1.397 . S
C5603 C5608 1.363 . S
C5604 H5581 0.950 . S
C5604 C5603 1.397 . S
C5604 C5605 1.334 . S
C5605 H5582 0.950 . S
C5605 C5604 1.334 . S
C5605 C5606 1.287 . S
C5606 C5605 1.287 . S
C5606 C5607 1.524 . S
C5606 H5625 0.913 . S
C5607 H5583 0.950 . S
C5607 C5606 1.524 . S
C5607 C5608 1.415 . S
C5608 H5584 0.950 . S
C5608 C5603 1.363 . S
C5608 C5607 1.415 . S
C5609 H5585 0.951 . S
C5609 C5610 1.366 . S
C5609 C5611 1.388 . S
C5610 C5609 1.366 . S
C5610 C5614 1.385 . S
C5611 H5586 0.951 . S
C5611 C5609 1.388 . S
C5611 C5612 1.366 . S
C5612 C5611 1.366 . S
C5612 C5613 1.414 . S
C5612 C5615 1.499 . S
C5613 H5587 0.950 . S
C5613 C5612 1.414 . S
C5613 C5614 1.374 . S
C5614 H5588 0.950 . S
C5614 C5610 1.385 . S
C5614 C5613 1.374 . S
C5615 C5612 1.499 . S
C5615 C5616 1.373 . S
C5615 C5617 1.389 . S
C5616 H5589 0.950 . S
C5616 C5602 1.377 . S
C5616 C5615 1.373 . S
C5617 C5601 1.377 . S
C5617 C5615 1.389 . S
C5617 C5618 1.524 . S
C5618 C5617 1.524 . S
C5618 C5619 1.397 . S
C5618 C5623 1.363 . S
C5619 H5590 0.950 . S
C5619 C5618 1.397 . S
C5619 C5620 1.334 . S
C5620 H5591 0.950 . S
C5620 C5619 1.334 . S
C5620 C5621 1.287 . S
C5621 C5620 1.287 . S
C5621 C5622 1.524 . S
C5621 H5624 0.999 . S
C5622 H5592 0.950 . S
C5622 C5621 1.524 . S
C5622 C5623 1.415 . S
C5623 H5593 0.950 . S
C5623 C5618 1.363 . S
C5623 C5622 1.415 . S
H5624 C5621 0.999 . S
H5625 C5606 0.913 . S
H5626 C5644 0.951 . S
H5627 C5646 0.951 . S
H5628 C5648 0.950 . S
H5629 C5649 0.950 . S
H5630 C5651 0.950 . S
H5631 C5654 0.950 . S
H5632 C5655 0.950 . S
H5633 C5657 0.950 . S
H5634 C5658 0.950 . S
H5635 C5659 0.951 . S
H5636 C5661 0.951 . S
H5637 C5663 0.950 . S
H5638 C5664 0.955 . S
H5639 C5666 0.950 . S
H5640 C5669 0.950 . S
H5641 C5670 0.950 . S
H5642 C5672 0.950 . S
H5643 C5673 0.950 . S
C5644 H5626 0.951 . S
C5644 C5645 1.366 . S
C5644 C5646 1.388 . S
C5645 C5644 1.366 . S
C5645 C5649 1.385 . S
C5646 H5627 0.951 . S
C5646 C5644 1.388 . S
C5646 C5647 1.366 . S
C5647 C5646 1.366 . S
C5647 C5648 1.414 . S
C5647 C5650 1.499 . S
C5648 H5628 0.950 . S
C5648 C5647 1.414 . S
C5648 C5649 1.374 . S
C5649 H5629 0.950 . S
C5649 C5645 1.385 . S
C5649 C5648 1.374 . S
C5650 C5647 1.499 . S
C5650 C5651 1.373 . S
C5650 C5652 1.389 1_554 S
C5651 H5630 0.950 . S
C5651 C5650 1.373 . S
C5651 C5667 1.377 . S
C5652 C5650 1.389 1_556 S
C5652 C5653 1.524 . S
C5652 C5666 1.377 . S
C5653 C5652 1.524 . S
C5653 C5654 1.397 . S
C5653 C5658 1.363 . S
C5654 H5631 0.950 . S
C5654 C5653 1.397 . S
C5654 C5655 1.334 . S
C5655 H5632 0.950 . S
C5655 C5654 1.334 . S
C5655 C5656 1.287 . S
C5656 C5655 1.287 . S
C5656 C5657 1.524 . S
C5656 H5675 0.913 . S
C5657 H5633 0.950 . S
C5657 C5656 1.524 . S
C5657 C5658 1.415 . S
C5658 H5634 0.950 . S
C5658 C5653 1.363 . S
C5658 C5657 1.415 . S
C5659 H5635 0.951 . S
C5659 C5660 1.366 . S
C5659 C5661 1.388 . S
C5660 C5659 1.366 . S
C5660 C5664 1.385 . S
C5661 H5636 0.951 . S
C5661 C5659 1.388 . S
C5661 C5662 1.366 1_556 S
C5662 C5661 1.366 1_554 S
C5662 C5663 1.414 . S
C5662 C5665 1.499 . S
C5663 H5637 0.950 . S
C5663 C5662 1.414 . S
C5663 C5664 1.374 1_554 S
C5664 H5638 0.955 . S
C5664 C5660 1.385 . S
C5664 C5663 1.374 1_556 S
C5665 C5662 1.499 . S
C5665 C5666 1.373 1_554 S
C5665 C5667 1.389 . S
C5666 H5639 0.950 . S
C5666 C5652 1.377 . S
C5666 C5665 1.373 1_556 S
C5667 C5651 1.377 . S
C5667 C5665 1.389 . S
C5667 C5668 1.524 . S
C5668 C5667 1.524 . S
C5668 C5669 1.397 . S
C5668 C5673 1.363 . S
C5669 H5640 0.950 . S
C5669 C5668 1.397 . S
C5669 C5670 1.334 . S
C5670 H5641 0.950 . S
C5670 C5669 1.334 . S
C5670 C5671 1.287 . S
C5671 C5670 1.287 . S
C5671 C5672 1.524 . S
C5671 H5674 0.999 . S
C5672 H5642 0.950 . S
C5672 C5671 1.524 . S
C5672 C5673 1.415 . S
C5673 H5643 0.950 . S
C5673 C5668 1.363 . S
C5673 C5672 1.415 . S
H5674 C5671 0.999 . S
H5675 C5656 0.913 . S
H5676 C5694 0.951 . S
H5677 C5696 0.951 . S
H5678 C5698 0.950 . S
H5679 C5699 0.950 . S
H5680 C5701 0.950 . S
H5681 C5704 0.950 . S
H5682 C5705 0.950 . S
H5683 C5707 0.950 . S
H5684 C5708 0.950 . S
H5685 C5709 0.951 . S
H5686 C5711 0.951 . S
H5687 C5713 0.950 . S
H5688 C5714 0.950 . S
H5689 C5716 0.950 . S
H5690 C5719 0.950 . S
H5691 C5720 0.950 . S
H5692 C5722 0.950 . S
H5693 C5723 0.950 . S
C5694 H5676 0.951 . S
C5694 C5695 1.366 . S
C5694 C5696 1.388 . S
C5695 C5694 1.366 . S
C5695 C5699 1.385 . S
C5696 H5677 0.951 . S
C5696 C5694 1.388 . S
C5696 C5697 1.366 . S
C5697 C5696 1.366 . S
C5697 C5698 1.414 . S
C5697 C5700 1.499 . S
C5698 H5678 0.950 . S
C5698 C5697 1.414 . S
C5698 C5699 1.374 . S
C5699 H5679 0.950 . S
C5699 C5695 1.385 . S
C5699 C5698 1.374 . S
C5700 C5697 1.499 . S
C5700 C5701 1.373 . S
C5700 C5702 1.389 . S
C5701 H5680 0.950 . S
C5701 C5700 1.373 . S
C5701 C5717 1.377 . S
C5702 C5700 1.389 . S
C5702 C5703 1.524 . S
C5702 C5716 1.377 . S
C5703 C5702 1.524 . S
C5703 C5704 1.397 . S
C5703 C5708 1.363 . S
C5704 H5681 0.950 . S
C5704 C5703 1.397 . S
C5704 C5705 1.334 . S
C5705 H5682 0.950 . S
C5705 C5704 1.334 . S
C5705 C5706 1.287 . S
C5706 C5705 1.287 . S
C5706 C5707 1.524 . S
C5706 H5725 0.913 . S
C5707 H5683 0.950 . S
C5707 C5706 1.524 . S
C5707 C5708 1.415 . S
C5708 H5684 0.950 . S
C5708 C5703 1.363 . S
C5708 C5707 1.415 . S
C5709 H5685 0.951 . S
C5709 C5710 1.366 . S
C5709 C5711 1.388 . S
C5710 C5709 1.366 . S
C5710 C5714 1.385 . S
C5711 H5686 0.951 . S
C5711 C5709 1.388 . S
C5711 C5712 1.366 . S
C5712 C5711 1.366 . S
C5712 C5713 1.414 . S
C5712 C5715 1.499 . S
C5713 H5687 0.950 . S
C5713 C5712 1.414 . S
C5713 C5714 1.374 . S
C5714 H5688 0.950 . S
C5714 C5710 1.385 . S
C5714 C5713 1.374 . S
C5715 C5712 1.499 . S
C5715 C5716 1.373 . S
C5715 C5717 1.389 . S
C5716 H5689 0.950 . S
C5716 C5702 1.377 . S
C5716 C5715 1.373 . S
C5717 C5701 1.377 . S
C5717 C5715 1.389 . S
C5717 C5718 1.524 . S
C5718 C5717 1.524 . S
C5718 C5719 1.397 . S
C5718 C5723 1.363 . S
C5719 H5690 0.950 . S
C5719 C5718 1.397 . S
C5719 C5720 1.334 . S
C5720 H5691 0.950 . S
C5720 C5719 1.334 . S
C5720 C5721 1.287 . S
C5721 C5720 1.287 . S
C5721 C5722 1.524 . S
C5721 H5724 0.999 . S
C5722 H5692 0.950 . S
C5722 C5721 1.524 . S
C5722 C5723 1.415 . S
C5723 H5693 0.950 . S
C5723 C5718 1.363 . S
C5723 C5722 1.415 . S
H5724 C5721 0.999 . S
H5725 C5706 0.913 . S
H5726 C5744 0.951 . S
H5727 C5746 0.951 . S
H5728 C5748 0.950 . S
H5729 C5749 0.950 . S
H5730 C5751 0.950 . S
H5731 C5754 0.950 . S
H5732 C5755 0.950 . S
H5733 C5757 0.950 . S
H5734 C5758 0.950 . S
H5735 C5759 0.951 . S
H5736 C5761 0.951 . S
H5737 C5763 0.950 . S
H5738 C5764 0.950 . S
H5739 C5766 0.950 . S
H5740 C5769 0.950 . S
H5741 C5770 0.950 . S
H5742 C5772 0.950 . S
H5743 C5773 0.950 . S
C5744 H5726 0.951 . S
C5744 C5745 1.366 . S
C5744 C5746 1.388 . S
C5745 C5744 1.366 . S
C5745 C5749 1.385 . S
C5746 H5727 0.951 . S
C5746 C5744 1.388 . S
C5746 C5747 1.366 . S
C5747 C5746 1.366 . S
C5747 C5748 1.414 . S
C5747 C5750 1.499 . S
C5748 H5728 0.950 . S
C5748 C5747 1.414 . S
C5748 C5749 1.374 . S
C5749 H5729 0.950 . S
C5749 C5745 1.385 . S
C5749 C5748 1.374 . S
C5750 C5747 1.499 . S
C5750 C5751 1.373 . S
C5750 C5752 1.389 . S
C5751 H5730 0.950 . S
C5751 C5750 1.373 . S
C5751 C5767 1.377 . S
C5752 C5750 1.389 . S
C5752 C5753 1.524 . S
C5752 C5766 1.377 . S
C5753 C5752 1.524 . S
C5753 C5754 1.397 . S
C5753 C5758 1.363 . S
C5754 H5731 0.950 . S
C5754 C5753 1.397 . S
C5754 C5755 1.334 . S
C5755 H5732 0.950 . S
C5755 C5754 1.334 . S
C5755 C5756 1.287 . S
C5756 C5755 1.287 . S
C5756 C5757 1.524 . S
C5756 H5775 0.913 . S
C5757 H5733 0.950 . S
C5757 C5756 1.524 . S
C5757 C5758 1.415 . S
C5758 H5734 0.950 . S
C5758 C5753 1.363 . S
C5758 C5757 1.415 . S
C5759 H5735 0.951 . S
C5759 C5760 1.366 . S
C5759 C5761 1.388 . S
C5760 C5759 1.366 . S
C5760 C5764 1.385 . S
C5761 H5736 0.951 . S
C5761 C5759 1.388 . S
C5761 C5762 1.366 . S
C5762 C5761 1.366 . S
C5762 C5763 1.414 . S
C5762 C5765 1.499 . S
C5763 H5737 0.950 . S
C5763 C5762 1.414 . S
C5763 C5764 1.374 . S
C5764 H5738 0.950 . S
C5764 C5760 1.385 . S
C5764 C5763 1.374 . S
C5765 C5762 1.499 . S
C5765 C5766 1.373 . S
C5765 C5767 1.389 . S
C5766 H5739 0.950 . S
C5766 C5752 1.377 . S
C5766 C5765 1.373 . S
C5767 C5751 1.377 . S
C5767 C5765 1.389 . S
C5767 C5768 1.524 . S
C5768 C5767 1.524 . S
C5768 C5769 1.397 . S
C5768 C5773 1.363 . S
C5769 H5740 0.950 . S
C5769 C5768 1.397 . S
C5769 C5770 1.334 . S
C5770 H5741 0.950 . S
C5770 C5769 1.334 . S
C5770 C5771 1.287 . S
C5771 C5770 1.287 . S
C5771 C5772 1.524 . S
C5771 H5774 0.999 . S
C5772 H5742 0.950 . S
C5772 C5771 1.524 . S
C5772 C5773 1.415 . S
C5773 H5743 0.950 . S
C5773 C5768 1.363 . S
C5773 C5772 1.415 . S
H5774 C5771 0.999 . S
H5775 C5756 0.913 . S
C995 C109 1.866 . S
C1010 C367 1.825 . S
C1045 C61 1.447 . S
C1060 C378 1.644 . S
C1095 C74 1.481 . S
C1110 C447 1.498 . S
C1160 C460 1.228 . S
C1145 C96 1.242 . S
C1195 C25 2.389 . S
C1210 C516 2.400 . S
C1260 C567 1.904 . S
C1245 C40 1.917 . S
C1310 C596 2.442 . S
C1295 C46 2.440 . S
C1345 C5 2.006 . S
C1360 C647 2.315 . S
C1410 C338 0.920 . S
C1395 C229 0.823 . S
C1445 C249 0.728 . S
C1460 C380 0.731 . S
C1510 C418 0.862 . S
C1495 C271 0.818 . S
C1560 C487 1.630 . S
C1545 C172 1.570 . S
C1595 C236 0.422 . S
C1610 C521 0.440 . S
C1660 C538 1.565 . S
C1645 C242 1.549 . S
C1710 C601 0.232 . S
C1695 C278 0.153 . S
C1760 C618 2.060 . S
C1745 C179 2.066 . S
C1810 C340 1.371 . S
C1795 C159 1.094 1_556 S
C1845 C285 1.290 . S
C1860 C679 1.479 . S
C1910 C700 1.030 . S
C1895 C333 1.071 . S
C1960 C759 0.271 . S
C1945 C320 0.234 . S
C1995 C123 0.724 . S
C2010 C620 0.726 . S
C2045 C138 1.337 . S
C2060 C420 1.312 . S
C2095 C326 0.877 . S
C2110 C778 0.874 . S
C2160 C847 0.998 . S
C2145 C298 0.999 . S
C2210 C356 1.826 . S
C2195 C67 1.790 . S
C2260 C839 1.557 . S
C2245 C110 1.567 . S
C2295 C88 1.503 . S
C2310 C436 1.504 . S
C2345 C75 0.991 . S
C2360 C801 1.146 . S
C2410 C527 2.299 . S
C2395 C11 2.324 . S
C2445 C47 1.775 . S
C2460 C716 1.901 . S
C2510 C607 2.307 1_556 S
C2495 C32 2.248 . S
C2560 C876 2.328 . S
C2545 C26 2.367 1_655 S
C2610 C359 1.048 . S
C2595 C152 1.055 . S
C2660 C841 0.743 . S
C2645 C319 0.743 . S
C2695 C124 0.821 . S
C2710 C439 0.819 . S
C2745 C284 1.621 . S
C2760 C796 1.632 . S
C2795 C145 0.625 . S
C2810 C500 0.407 . S
C2860 C719 1.417 . S
C2845 C312 1.397 . S
C2895 C117 0.778 . S
C2910 C580 0.202 . S
C2945 C291 1.957 . S
C2960 C879 1.942 . S
C2995 C194 1.524 . S
C3010 C361 1.469 . S
C3045 C180 1.462 . S
C3060 C658 1.426 . S
C3095 C263 0.995 . S
C3110 C561 0.996 . S
C3145 C243 0.766 . S
C3160 C738 0.281 . S
C3210 C881 0.790 . S
C3195 C277 0.788 . S
C3245 C215 1.127 . S
C3260 C441 1.290 . S
C3310 C479 0.761 . S
C3295 C256 0.757 . S
C3360 C396 1.062 . S
C3345 C200 1.054 . S
C3395 C81 1.866 . S
C3410 C927 1.829 . S
C3460 C818 1.645 . S
C3445 C89 1.446 . S
C3495 C102 1.481 . S
C3510 C967 1.500 . S
C3545 C68 1.242 . S
C3560 C780 1.227 . S
C3595 C53 2.389 . S
C3610 C676 2.400 . S
C3660 C727 1.904 . S
C3645 C12 1.917 . S
C3710 C756 2.442 . S
C3695 C18 2.440 . S
C3760 C887 2.315 . S
C3745 C33 2.005 . S
C3810 C898 0.920 . S
C3795 C257 0.827 . S
C3845 C193 0.728 . S
C3860 C820 0.729 . S
C3910 C938 0.863 . S
C3895 C201 0.820 . S
C3960 C807 1.630 . S
C3945 C214 1.569 . S
C4010 C681 0.442 . S
C3995 C264 0.423 . S
C4045 C186 1.549 . S
C4060 C698 1.566 . S
C4110 C761 0.232 . S
C4095 C208 0.153 . S
C4145 C221 2.066 . S
C4160 C858 2.060 . S
C4210 C900 1.373 . S
C4195 C313 1.105 . S
C4245 C131 1.291 . S
C4260 C519 1.479 . S
C4310 C540 1.030 . S
C4295 C151 1.018 1_565 S
C4360 C599 0.271 . S
C4345 C166 0.244 . S
C4410 C860 0.728 . S
C4395 C305 0.725 . S
C4445 C292 1.337 . S
C4460 C940 1.311 . S
C4510 C458 0.875 . S
C4495 C144 0.877 . S
C4560 C407 0.997 . S
C4545 C116 0.999 1_565 S
C4595 C95 1.789 . S
C4610 C916 1.826 . S
C4660 C399 1.556 . S
C4645 C82 1.560 . S
C4695 C60 1.502 . S
C4710 C956 1.504 . S
C4745 C103 0.992 . S
C4760 C481 1.138 . S
C4795 C39 2.324 . S
C4810 C687 2.299 1_556 S
C4860 C556 1.901 . S
C4845 C19 1.775 . S
C4895 C4 2.247 . S
C4910 C767 2.307 . S
C4945 C54 2.367 . S
C4960 C636 2.328 . S
C5010 C919 1.048 . S
C4995 C334 1.055 . S
C5045 C165 0.744 . S
C5060 C401 0.737 . S
C5110 C959 0.819 . S
C5095 C306 0.822 . S
C5145 C130 1.622 . S
C5160 C476 1.633 . S
C5195 C327 0.624 . S
C5210 C660 0.405 . S
C5260 C559 1.417 . S
C5245 C158 1.403 . S
C5295 C299 0.776 . S
C5310 C740 0.199 . S
C5360 C639 1.942 . S
C5345 C137 1.957 . S
C5410 C921 1.470 . S
C5395 C250 1.525 . S
C5460 C498 1.427 . S
C5445 C222 1.462 . S
C5495 C235 0.995 . S
C5510 C721 0.997 . S
C5560 C578 0.283 . S
C5545 C187 0.769 . S
C5595 C207 0.789 . S
C5610 C641 0.791 . S
C5645 C173 1.127 . S
C5660 C961 1.290 . S
C5710 C799 0.760 . S
C5695 C228 0.757 . S
C5760 C836 1.063 . S
C5745 C270 1.055 . S
