# Generated by pormake.
# Topology nia, (6,6)-cn, num edge types: 1
# Building blocks:
#     Node 0, Type 0, BuildingBlock: GEDQOX_clean_sbu_0, # of connection points: 6
#     Node 1, Type 0, BuildingBlock: GEDQOX_clean_sbu_0, # of connection points: 6
#     Node 2, Type 1, BuildingBlock: MIDCAF_clean_sbu_0, # of connection points: 6
#     Node 3, Type 1, BuildingBlock: MIDCAF_clean_sbu_0, # of connection points: 6
#     Edge 4, Type (0, 1), BuildingBlock: FUNLAD_clean_linker_1, # of connection points: 2
#     Edge 5, Type (0, 1), BuildingBlock: FUNLAD_clean_linker_1, # of connection points: 2
#     Edge 6, Type (0, 1), BuildingBlock: FUNLAD_clean_linker_1, # of connection points: 2
#     Edge 7, Type (0, 1), BuildingBlock: FUNLAD_clean_linker_1, # of connection points: 2
#     Edge 8, Type (0, 1), BuildingBlock: FUNLAD_clean_linker_1, # of connection points: 2
#     Edge 9, Type (0, 1), BuildingBlock: FUNLAD_clean_linker_1, # of connection points: 2
#     Edge 10, Type (0, 1), BuildingBlock: FUNLAD_clean_linker_1, # of connection points: 2
#     Edge 11, Type (0, 1), BuildingBlock: FUNLAD_clean_linker_1, # of connection points: 2
#     Edge 12, Type (0, 1), BuildingBlock: FUNLAD_clean_linker_1, # of connection points: 2
#     Edge 13, Type (0, 1), BuildingBlock: FUNLAD_clean_linker_1, # of connection points: 2
#     Edge 14, Type (0, 1), BuildingBlock: FUNLAD_clean_linker_1, # of connection points: 2
#     Edge 15, Type (0, 1), BuildingBlock: FUNLAD_clean_linker_1, # of connection points: 2
# Relax obj value: 0.294
# Max RMSD: 0.266
# Mean RMSD: 0.240
data_MOF--net-nia--node1-GEDQOX_clean_sbu_0--node2-MIDCAF_clean_sbu_0--edge1-FUNLAD_clean_linker_1
_symmetry_space_group_name_H-M    P1
_symmetry_Int_Tables_number       1
_symmetry_cell_setting            triclinic
loop_
_symmetry_equiv_pos_as_xyz
'x, y, z'
_cell_length_a     28.624406
_cell_length_b     26.298186
_cell_length_c     35.71524
_cell_angle_alpha  101.93023
_cell_angle_beta   69.414762
_cell_angle_gamma 127.22606
loop_
_atom_site_label
_atom_site_type_symbol
_atom_site_fract_x
_atom_site_fract_y
_atom_site_fract_z
_atom_type_partial_charge
Nd0 Nd 0.03687 0.08445 0.99603 0.0
Nd1 Nd 0.01972 0.96641 0.03556 0.0
C2 C 0.07921 0.18239 0.95335 0.0
C3 C 0.0568 0.20199 0.9321 0.0
C4 C 0.0972 0.2609 0.91203 0.0
C5 C 0.07666 0.28031 0.89162 0.0
C6 C 0.01525 0.24137 0.89114 0.0
C7 C 0.97501 0.18159 0.91087 0.0
C8 C 0.99568 0.16224 0.93126 0.0
C9 C 0.92002 1.00242 0.04712 0.0
C10 C 0.08199 0.10939 0.07547 0.0
C11 C 0.97996 0.87075 0.07912 0.0
C12 C 0.01038 0.85615 0.0964 0.0
C13 C 0.97597 0.80915 0.12621 0.0
C14 C 0.00501 0.79388 0.14154 0.0
C15 C 0.0691 0.82561 0.12715 0.0
C16 C 0.1032 0.87306 0.09758 0.0
C17 C 0.07426 0.88851 0.08255 0.0
C18 C 0.13599 0.04515 0.98443 0.0
C19 C 0.98371 0.9448 0.95254 0.0
O20 O 0.0578 0.17963 0.99251 0.0
O21 O 0.08239 0.13442 0.93787 0.0
O22 O 0.93492 0.05061 0.02903 0.0
O23 O 0.96603 1.00169 0.03689 0.0
O24 O 0.08744 0.13401 0.044 0.0
O25 O 0.05334 0.04758 0.0807 0.0
O26 O 0.99428 0.86957 0.03991 0.0
O27 O 0.97805 0.9195 0.09464 0.0
O28 O 0.11927 0.99672 1.00315 0.0
O29 O 0.0916 0.04898 0.99397 0.0
O30 O 0.9741 0.91836 0.98487 0.0
O31 O 0.01105 1.00659 0.94855 0.0
H32 H 0.14467 0.29199 0.91218 0.0
H33 H 0.10878 0.32629 0.87652 0.0
H34 H 0.92786 0.14914 0.9103 0.0
H35 H 0.96406 0.11619 0.94628 0.0
H36 H 0.92657 0.78358 0.13719 0.0
H37 H 0.97692 0.75604 0.16363 0.0
H38 H 0.15249 0.89804 0.0858 0.0
H39 H 0.10172 0.92517 0.05967 0.0
Nd40 Nd 0.99968 0.01917 0.51669 0.0
Nd41 Nd 0.1047 0.0832 0.56174 0.0
C42 C 0.93846 1.00082 0.46917 0.0
C43 C 0.87589 0.97418 0.46963 0.0
C44 C 0.86443 0.01404 0.46005 0.0
C45 C 0.80711 0.98877 0.45643 0.0
C46 C 0.76067 0.92308 0.46161 0.0
C47 C 0.77109 0.88358 0.47317 0.0
C48 C 0.8283 0.90894 0.47712 0.0
C49 C 0.96212 0.94434 0.58013 0.0
C50 C 0.00224 0.11315 0.59463 0.0
C51 C 0.17442 0.10309 0.60297 0.0
C52 C 0.19188 0.06917 0.6168 0.0
C53 C 0.16201 0.04309 0.65566 0.0
C54 C 0.18555 0.02213 0.67186 0.0
C55 C 0.2399 0.02795 0.64978 0.0
C56 C 0.26603 0.04757 0.60948 0.0
C57 C 0.24251 0.06855 0.59323 0.0
C58 C 0.12604 0.15736 0.50536 0.0
C59 C 0.097 0.98261 0.48779 0.0
O60 O 0.96617 0.05423 0.48866 0.0
O61 O 0.94954 0.96046 0.47237 0.0
O62 O 0.92717 0.92771 0.55807 0.0
O63 O 0.01045 0.99797 0.56828 0.0
O64 O 0.98533 0.08862 0.5615 0.0
O65 O 0.04105 0.10967 0.60397 0.0
O66 O 0.11802 0.08614 0.61948 0.0
O67 O 0.19533 0.1169 0.56469 0.0
O68 O 0.14806 0.18132 0.53579 0.0
O69 O 0.10013 0.09797 0.50377 0.0
O70 O 0.11206 1.00639 0.52147 0.0
O71 O 0.06219 0.98999 0.47633 0.0
H72 H 0.9004 0.06449 0.45423 0.0
H73 H 0.79997 0.02018 0.44775 0.0
H74 H 0.73555 0.83301 0.47855 0.0
H75 H 0.83556 0.87716 0.48509 0.0
H76 H 0.12261 0.04247 0.67452 0.0
H77 H 0.16438 1.00689 0.7029 0.0
H78 H 0.30704 0.0508 0.59132 0.0
H79 H 0.26611 0.08753 0.563 0.0
Zn80 Zn 0.34864 0.64158 0.20211 0.0
Zn81 Zn 0.28776 0.654 0.3611 0.0
Zn82 Zn 0.32112 0.64792 0.28245 0.0
C83 C 0.41824 0.72352 0.33076 0.0
C84 C 0.24546 0.5278 0.34424 0.0
O85 O 0.27453 0.67707 0.26436 0.0
O86 O 0.30045 0.67165 0.19823 0.0
C87 C 0.45999 0.72935 0.21838 0.0
O88 O 0.40789 0.70632 0.29653 0.0
O89 O 0.37461 0.70843 0.36261 0.0
O90 O 0.23918 0.56166 0.37352 0.0
O91 O 0.27496 0.55198 0.30858 0.0
O92 O 0.43893 0.70205 0.18899 0.0
O93 O 0.42358 0.71521 0.25449 0.0
O94 O 0.27855 0.54657 0.26666 0.0
O95 O 0.31008 0.54842 0.20038 0.0
C96 C 0.28039 0.51764 0.23298 0.0
O97 O 0.26828 0.69117 0.30528 0.0
O98 O 0.24539 0.69475 0.37124 0.0
C99 C 0.2714 0.68306 0.23059 0.0
C100 C 0.244 0.70657 0.33932 0.0
Zn101 Zn 0.69369 0.39121 0.84839 0.0
Zn102 Zn 0.74145 0.40806 0.69413 0.0
Zn103 Zn 0.72424 0.4012 0.76977 0.0
C104 C 0.80004 0.53278 0.71759 0.0
C105 C 0.61623 0.33125 0.72649 0.0
O106 O 0.76633 0.35853 0.78101 0.0
O107 O 0.72681 0.34308 0.84673 0.0
C108 C 0.77131 0.52186 0.8276 0.0
O109 O 0.77558 0.50377 0.75141 0.0
O110 O 0.79563 0.50121 0.68563 0.0
O111 O 0.655 0.36103 0.69431 0.0
O112 O 0.63375 0.33987 0.75735 0.0
O113 O 0.74302 0.4845 0.85702 0.0
O114 O 0.76921 0.49991 0.79202 0.0
O115 O 0.62306 0.34702 0.79942 0.0
O116 O 0.60439 0.34611 0.86504 0.0
C117 C 0.58522 0.33196 0.83506 0.0
O118 O 0.77443 0.35736 0.73824 0.0
O119 O 0.77765 0.35982 0.6757 0.0
C120 C 0.7595 0.33803 0.81378 0.0
C121 C 0.78891 0.34429 0.70081 0.0
H122 H 0.14631 0.82098 0.12001 0.0
C123 C 0.10178 0.80799 0.13997 0.0
H124 H 0.03797 0.76684 0.19654 0.0
H125 H 0.18897 0.63447 0.14789 0.0
H126 H 0.128 0.57216 0.10193 0.0
H127 H 0.05983 0.59386 0.09314 0.0
H128 H 0.05229 0.67811 0.13033 0.0
C129 C 0.08022 0.77745 0.17437 0.0
C130 C 0.1156 0.75943 0.18331 0.0
C131 C 0.11918 0.7097 0.16162 0.0
C132 C 0.15833 0.6971 0.16683 0.0
C133 C 0.16066 0.64682 0.14482 0.0
C134 C 0.12564 0.61039 0.11843 0.0
C135 C 0.08729 0.62262 0.11347 0.0
C136 C 0.08372 0.67143 0.13482 0.0
H137 H 0.19601 0.69472 0.25695 0.0
C138 C 0.23177 0.70098 0.22985 0.0
H139 H 0.27285 0.72806 0.16905 0.0
H140 H 0.11331 0.85258 0.23287 0.0
H141 H 0.17323 0.91463 0.2797 0.0
H142 H 0.24527 0.89697 0.28632 0.0
H143 H 0.25689 0.81633 0.24721 0.0
C144 C 0.23791 0.72305 0.19644 0.0
C145 C 0.19375 0.73407 0.19389 0.0
C146 C 0.1885 0.78243 0.21668 0.0
C147 C 0.14844 0.79421 0.21187 0.0
C148 C 0.14348 0.8422 0.23515 0.0
C149 C 0.1776 0.87815 0.26209 0.0
C150 C 0.21798 0.86799 0.26597 0.0
C151 C 0.22386 0.8211 0.24347 0.0
H152 H 0.2489 0.99986 0.69987 0.0
C153 C 0.27431 0.0264 0.6718 0.0
H154 H 0.36079 0.1019 0.63815 0.0
H155 H 0.43611 0.25606 0.78786 0.0
H156 H 0.34874 0.25961 0.80399 0.0
H157 H 0.26824 0.18808 0.77009 0.0
H158 H 0.275 0.11314 0.72065 0.0
C159 C 0.33477 0.07191 0.66471 0.0
C160 C 0.36663 0.09491 0.69579 0.0
C161 C 0.36089 0.13767 0.7253 0.0
C162 C 0.40709 0.17885 0.74488 0.0
C163 C 0.40206 0.22327 0.77271 0.0
C164 C 0.35211 0.22589 0.78205 0.0
C165 C 0.30686 0.18565 0.76302 0.0
C166 C 0.31135 0.1426 0.73459 0.0
H167 H 0.53767 0.29105 0.70452 0.0
C168 C 0.55172 0.28445 0.72669 0.0
H169 H 0.52951 0.21882 0.76647 0.0
H170 H 0.38259 1.00878 0.64749 0.0
H171 H 0.46517 0.99795 0.63659 0.0
H172 H 0.54423 0.06756 0.67184 0.0
H173 H 0.54161 0.14854 0.7179 0.0
C174 C 0.51418 0.22894 0.74698 0.0
C175 C 0.45784 0.17597 0.73561 0.0
C176 C 0.45865 0.12705 0.7104 0.0
C177 C 0.41323 0.08692 0.69008 0.0
C178 C 0.41654 0.04061 0.66335 0.0
C179 C 0.46339 0.03381 0.65702 0.0
C180 C 0.50788 0.07299 0.67689 0.0
C181 C 0.50589 0.1193 0.70322 0.0
H182 H 0.11721 0.13519 0.12745 0.0
C183 C 0.11145 0.15333 0.10593 0.0
H184 H 0.12672 0.23323 0.08542 0.0
H185 H 0.17277 0.33144 0.26434 0.0
H186 H 0.06849 0.2404 0.29278 0.0
H187 H 0.00698 0.1598 0.24895 0.0
H188 H 0.04992 0.16884 0.17688 0.0
C189 C 0.13152 0.21471 0.10732 0.0
C190 C 0.16741 0.2616 0.13481 0.0
C191 C 0.14028 0.25686 0.17686 0.0
C192 C 0.17439 0.30523 0.20211 0.0
C193 C 0.14772 0.29749 0.244 0.0
C194 C 0.08811 0.24529 0.26061 0.0
C195 C 0.05363 0.19982 0.23595 0.0
C196 C 0.07907 0.20539 0.19454 0.0
H197 H 0.19283 0.42555 0.2361 0.0
C198 C 0.24126 0.44779 0.23083 0.0
H199 H 0.31493 0.44088 0.20519 0.0
H200 H 0.23596 0.28016 0.0562 0.0
H201 H 0.33944 0.37211 0.02812 0.0
H202 H 0.39447 0.46144 0.07072 0.0
H203 H 0.34807 0.45875 0.1417 0.0
C204 C 0.26619 0.41676 0.21032 0.0
C205 C 0.23391 0.36028 0.18522 0.0
C206 C 0.26155 0.36402 0.14316 0.0
C207 C 0.22868 0.31396 0.11815 0.0
C208 C 0.25808 0.31772 0.07648 0.0
C209 C 0.31747 0.37016 0.05986 0.0
C210 C 0.34863 0.42032 0.08391 0.0
C211 C 0.32125 0.41776 0.12495 0.0
H212 H 0.98701 0.16188 0.65118 0.0
C213 C 0.97786 0.14742 0.62234 0.0
H214 H 0.93663 0.14786 0.58379 0.0
H215 H 0.74574 0.18671 0.7121 0.0
H216 H 0.67956 0.07444 0.69737 0.0
H217 H 0.72323 0.01685 0.65639 0.0
H218 H 0.83333 0.07118 0.63011 0.0
C219 C 0.94691 0.16303 0.61226 0.0
C220 C 0.92155 0.19703 0.64004 0.0
C221 C 0.8571 0.16489 0.65466 0.0
C222 C 0.83192 0.19841 0.67757 0.0
C223 C 0.76734 0.16434 0.69306 0.0
C224 C 0.72879 0.09964 0.68525 0.0
C225 C 0.75337 0.0672 0.66226 0.0
C226 C 0.8167 0.09909 0.6472 0.0
H227 H 0.81012 0.28429 0.65662 0.0
C228 C 0.81493 0.30727 0.68542 0.0
H229 H 0.85548 0.32938 0.73026 0.0
H230 H 0.04752 0.2735 0.61743 0.0
H231 H 0.11304 0.3836 0.63606 0.0
H232 H 0.06909 0.44076 0.67723 0.0
H233 H 0.95919 0.38797 0.70014 0.0
C234 C 0.84546 0.30216 0.70369 0.0
C235 C 0.87127 0.26452 0.68519 0.0
C236 C 0.93557 0.29548 0.67315 0.0
C237 C 0.96089 0.26205 0.64997 0.0
C238 C 0.0255 0.29552 0.63623 0.0
C239 C 0.0638 0.35908 0.64639 0.0
C240 C 0.03906 0.39128 0.66957 0.0
C241 C 0.97579 0.3603 0.68259 0.0
H242 H 0.85212 0.91465 0.0843 0.0
C243 C 0.85936 0.95577 0.07418 0.0
H244 H 0.82085 1.00462 0.07703 0.0
H245 H 0.56179 0.72008 0.11987 0.0
H246 H 0.5944 0.69897 0.05002 0.0
H247 H 0.69878 0.77573 1.00767 0.0
H248 H 0.77104 0.87443 0.03513 0.0
C249 C 0.81334 0.96263 0.08606 0.0
C250 C 0.75134 0.91449 0.11244 0.0
C251 C 0.70975 0.85616 0.09636 0.0
C252 C 0.64976 0.81137 0.12115 0.0
C253 C 0.60865 0.75495 0.10332 0.0
C254 C 0.62653 0.74238 0.06295 0.0
C255 C 0.68522 0.78561 0.03909 0.0
C256 C 0.72637 0.84203 0.05535 0.0
H257 H 0.53673 0.83089 0.21304 0.0
C258 C 0.52566 0.78306 0.2095 0.0
H259 H 0.5552 0.72461 0.18428 0.0
H260 H 0.81867 0.0229 0.15194 0.0
H261 H 0.787 0.04589 0.22194 0.0
H262 H 0.68479 0.96738 0.26576 0.0
H263 H 0.61411 0.86582 0.23999 0.0
C264 C 0.56906 0.77358 0.18815 0.0
C265 C 0.63134 0.82418 0.16251 0.0
C266 C 0.67303 0.88337 0.17835 0.0
C267 C 0.73262 0.92855 0.15317 0.0
C268 C 0.77301 0.98712 0.16968 0.0
C269 C 0.7555 1.00091 0.20981 0.0
C270 C 0.69792 0.95681 0.23444 0.0
C271 C 0.65735 0.89861 0.21912 0.0
H272 H 0.99284 0.91309 0.6135 0.0
C273 C 0.95288 0.90166 0.60735 0.0
H274 H 0.85871 0.83552 0.6138 0.0
H275 H 0.82528 0.58194 0.6222 0.0
H276 H 0.80692 0.57312 0.55938 0.0
H277 H 0.82848 0.66522 0.53062 0.0
H278 H 0.86718 0.76615 0.56504 0.0
C279 C 0.89791 0.84646 0.62083 0.0
C280 C 0.89066 0.79355 0.63756 0.0
C281 C 0.86963 0.73508 0.61646 0.0
C282 C 0.85993 0.68285 0.63215 0.0
C283 C 0.836 0.62419 0.61115 0.0
C284 C 0.82475 0.61817 0.57504 0.0
C285 C 0.83664 0.6699 0.55894 0.0
C286 C 0.85864 0.72763 0.57925 0.0
H287 H 0.80305 0.61987 0.7384 0.0
C288 C 0.82559 0.6011 0.7154 0.0
H289 H 0.88944 0.61491 0.65947 0.0
H290 H 0.92584 0.8962 0.68775 0.0
H291 H 0.95189 0.90796 0.74821 0.0
H292 H 0.94538 0.82142 0.77162 0.0
H293 H 0.91078 0.72155 0.73545 0.0
C294 C 0.86764 0.63514 0.68174 0.0
C295 C 0.87387 0.68966 0.66815 0.0
C296 C 0.89616 0.74854 0.68887 0.0
C297 C 0.90307 0.79995 0.67411 0.0
C298 C 0.92214 0.85674 0.69665 0.0
C299 C 0.93689 0.86396 0.73154 0.0
C300 C 0.93292 0.81506 0.74484 0.0
C301 C 0.91275 0.75789 0.72391 0.0
H302 H 0.15057 0.94304 0.4724 0.0
C303 C 0.12035 0.94606 0.46262 0.0
H304 H 0.07201 0.91453 0.42006 0.0
H305 H 0.2931 0.86602 0.34755 0.0
H306 H 0.36228 0.98042 0.33643 0.0
H307 H 0.32345 0.04698 0.35641 0.0
H308 H 0.21495 0.99927 0.38852 0.0
C309 C 0.10414 0.91459 0.42959 0.0
C310 C 0.12493 0.87355 0.40817 0.0
C311 C 0.18776 0.90147 0.38764 0.0
C312 C 0.2097 0.86268 0.3748 0.0
C313 C 0.27343 0.89263 0.35697 0.0
C314 C 0.31379 0.95844 0.35048 0.0
C315 C 0.29196 0.99594 0.36179 0.0
C316 C 0.22973 0.96807 0.3803 0.0
H317 H 0.22163 0.75721 0.31389 0.0
C318 C 0.21723 0.7411 0.34137 0.0
H319 H 0.1853 0.73908 0.40447 0.0
H320 H 1.00043 0.80422 0.44119 0.0
H321 H 0.92971 0.68884 0.4485 0.0
H322 H 0.9671 0.62108 0.42413 0.0
H323 H 0.07565 0.6684 0.3926 0.0
C324 C 0.19123 0.7564 0.37687 0.0
C325 C 0.16811 0.79563 0.38127 0.0
C326 C 0.10447 0.76728 0.39828 0.0
C327 C 0.08282 0.80627 0.41183 0.0
C328 C 0.01926 0.77677 0.43014 0.0
C329 C 0.97817 0.71061 0.43448 0.0
C330 C 0.99924 0.67247 0.42081 0.0
C331 C 0.0616 0.7002 0.40293 0.0
H332 H 0.2315 0.07938 0.95675 0.0
C333 C 0.19801 0.08724 0.95748 0.0
H334 H 0.183 0.14289 0.93509 0.0
H335 H 0.46787 0.37 0.90495 0.0
H336 H 0.41845 0.42145 0.94388 0.0
H337 H 0.30561 0.36049 0.96737 0.0
H338 H 0.24143 0.24766 0.95275 0.0
C339 C 0.21527 0.1333 0.93423 0.0
C340 C 0.28088 0.17484 0.90988 0.0
C341 C 0.31748 0.24062 0.91865 0.0
C342 C 0.38257 0.27572 0.90505 0.0
C343 C 0.41826 0.34114 0.91481 0.0
C344 C 0.39049 0.37121 0.93696 0.0
C345 C 0.32693 0.33688 0.95021 0.0
C346 C 0.2906 0.27212 0.94169 0.0
H347 H 0.50616 0.29619 0.81531 0.0
C348 C 0.51958 0.30006 0.84088 0.0
H349 H 0.49094 0.28363 0.90288 0.0
H350 H 0.22392 0.05802 0.87521 0.0
H351 H 0.27288 1.00918 0.8302 0.0
H352 H 0.38528 0.06673 0.81045 0.0
H353 H 0.44936 0.17347 0.83469 0.0
C354 C 0.47716 0.27723 0.87658 0.0
C355 C 0.41069 0.24499 0.88253 0.0
C356 C 0.37404 0.18152 0.86936 0.0
C357 C 0.30907 0.14714 0.88219 0.0
C358 C 0.27334 0.08494 0.86738 0.0
C359 C 0.30085 0.05667 0.84146 0.0
C360 C 0.36414 0.08912 0.83029 0.0
C361 C 0.40049 0.15059 0.84429 0.0
H362 H 0.09459 0.16853 0.46115 0.0
C363 C 0.1278 0.19404 0.478 0.0
H364 H 0.2017 0.28231 0.49144 0.0
H365 H 0.17124 0.34263 0.33048 0.0
H366 H 0.18166 0.25836 0.29622 0.0
H367 H 0.19057 0.19485 0.3316 0.0
H368 H 0.1871 0.21339 0.40148 0.0
C369 C 0.16908 0.25781 0.47413 0.0
C370 C 0.16837 0.29844 0.45073 0.0
C371 C 0.17512 0.29004 0.40899 0.0
C372 C 0.17521 0.33038 0.38759 0.0
C373 C 0.17549 0.31648 0.34714 0.0
C374 C 0.18067 0.26783 0.32734 0.0
C375 C 0.18536 0.23179 0.34733 0.0
C376 C 0.1827 0.24257 0.38764 0.0
H377 H 0.25886 0.4517 0.33715 0.0
C378 C 0.22712 0.46431 0.35285 0.0
H379 H 0.14831 0.4434 0.39909 0.0
H380 H 0.14816 0.32416 0.53102 0.0
H381 H 0.14719 0.41388 0.56363 0.0
H382 H 0.16213 0.49262 0.52505 0.0
H383 H 0.17676 0.48154 0.45392 0.0
C384 C 0.17943 0.4296 0.38474 0.0
C385 C 0.17467 0.3831 0.40688 0.0
C386 C 0.16935 0.39226 0.4485 0.0
C387 C 0.16416 0.3488 0.47053 0.0
C388 C 0.15492 0.35704 0.51244 0.0
C389 C 0.15382 0.40816 0.53171 0.0
C390 C 0.16203 0.45235 0.51 0.0
C391 C 0.16987 0.44491 0.46899 0.0
H392 H 0.03092 0.30396 0.84829 0.0
C393 C 0.99548 0.26481 0.86956 0.0
H394 H 0.89984 0.205 0.89811 0.0
H395 H 0.90974 0.43661 0.84527 0.0
H396 H 0.96734 0.50074 0.8926 0.0
H397 H 0.00278 0.46008 0.92432 0.0
H398 H 0.98105 0.3551 0.90864 0.0
C399 C 0.93683 0.24325 0.87676 0.0
C400 C 0.91965 0.27015 0.85553 0.0
C401 C 0.93284 0.33186 0.86498 0.0
C402 C 0.9118 0.35501 0.84691 0.0
C403 C 0.92489 0.41649 0.85755 0.0
C404 C 0.95779 0.45391 0.88492 0.0
C405 C 0.97776 0.43105 0.90276 0.0
C406 C 0.96525 0.3707 0.89324 0.0
H407 H 0.75867 0.26359 0.83291 0.0
C408 C 0.78789 0.30709 0.81509 0.0
H409 H 0.87859 0.38501 0.79088 0.0
H410 H 0.89081 0.15207 0.82882 0.0
H411 H 0.83374 0.0874 0.78094 0.0
H412 H 0.7952 0.12601 0.75066 0.0
H413 H 0.81383 0.2297 0.7678 0.0
C414 C 0.84891 0.33819 0.80499 0.0
C415 C 0.87637 0.31584 0.82006 0.0
C416 C 0.86464 0.25469 0.80987 0.0
C417 C 0.88652 0.23208 0.82753 0.0
C418 C 0.87474 0.17126 0.81656 0.0
C419 C 0.84223 0.13371 0.78903 0.0
C420 C 0.82063 0.15555 0.77193 0.0
C421 C 0.83159 0.21521 0.78208 0.0
H422 H 0.69119 0.9292 0.45348 0.0
C423 C 0.70372 0.89702 0.45211 0.0
H424 H 0.68732 0.80781 0.43068 0.0
H425 H 0.42982 0.75945 0.43531 0.0
H426 H 0.40158 0.74453 0.50636 0.0
H427 H 0.47592 0.76542 0.53764 0.0
H428 H 0.57906 0.80067 0.49756 0.0
C429 C 0.6729 0.83915 0.43586 0.0
C430 C 0.62684 0.8226 0.41699 0.0
C431 C 0.56739 0.80345 0.44077 0.0
C432 C 0.52522 0.79288 0.42271 0.0
C433 C 0.46493 0.77071 0.44722 0.0
C434 C 0.44775 0.76131 0.4882 0.0
C435 C 0.48955 0.77297 0.50581 0.0
C436 C 0.54866 0.7935 0.4825 0.0
H437 H 0.50272 0.73044 0.31768 0.0
C438 C 0.47922 0.75225 0.33432 0.0
H439 H 0.47381 0.81522 0.37922 0.0
H440 H 0.73546 0.85212 0.36281 0.0
H441 H 0.76526 0.86722 0.29141 0.0
H442 H 0.69573 0.85687 0.26032 0.0
H443 H 0.59616 0.83278 0.3007 0.0
C444 C 0.49884 0.7947 0.36328 0.0
C445 C 0.54347 0.80351 0.38088 0.0
C446 C 0.60314 0.82196 0.35706 0.0
C447 C 0.64413 0.82972 0.37509 0.0
C448 C 0.70273 0.8462 0.35068 0.0
C449 C 0.72053 0.85515 0.30967 0.0
C450 C 0.6813 0.84942 0.29219 0.0
C451 C 0.6238 0.83431 0.31557 0.0
H452 H 0.97101 0.92574 0.89238 0.0
C453 C 0.96443 0.90396 0.91823 0.0
H454 H 0.93787 0.82037 0.94223 0.0
H455 H 0.78851 0.67714 0.80827 0.0
H456 H 0.73253 0.72442 0.84007 0.0
H457 H 0.76441 0.80635 0.89218 0.0
H458 H 0.85255 0.84236 0.91226 0.0
C459 C 0.9417 0.8419 0.91744 0.0
C460 C 0.92763 0.80191 0.88152 0.0
C461 C 0.87557 0.78159 0.87069 0.0
C462 C 0.85571 0.7328 0.84179 0.0
C463 C 0.80404 0.71304 0.83093 0.0
C464 C 0.77192 0.73992 0.84876 0.0
C465 C 0.79 0.78619 0.87802 0.0
C466 C 0.84095 0.80668 0.88916 0.0
H467 H 0.79041 0.60321 0.86708 0.0
C468 C 0.80393 0.59037 0.83617 0.0
H469 H 0.87037 0.6254 0.77985 0.0
H470 H 0.03687 0.8407 0.88875 0.0
H471 H 0.09501 0.79699 0.85364 0.0
H472 H 0.05832 0.71017 0.80484 0.0
H473 H 0.96339 0.66682 0.79065 0.0
C474 C 0.85212 0.63672 0.80992 0.0
C475 C 0.88618 0.70292 0.82526 0.0
C476 C 0.94243 0.7289 0.8321 0.0
C477 C 0.96317 0.77845 0.86045 0.0
C478 C 0.01869 0.80245 0.8678 0.0
C479 C 0.05254 0.77795 0.84777 0.0
C480 C 0.03189 0.72907 0.82028 0.0
C481 C 0.97734 0.70447 0.81251 0.0
loop_
_geom_bond_atom_site_label_1
_geom_bond_atom_site_label_2
_geom_bond_distance
_geom_bond_site_symmetry_2
_ccdc_geom_bond_type
Nd0 C2 2.836 . S
Nd0 O20 2.500 1_655 S
Nd0 O21 2.492 . S
Nd0 O22 2.487 1_546 S
Nd0 O23 2.682 1_546 S
Nd0 O24 2.410 1_656 S
Nd0 O29 2.414 1_655 S
Nd0 O31 2.424 1_545 S
Nd1 C11 2.821 1_545 S
Nd1 O23 2.419 1_445 S
Nd1 O25 2.439 . S
Nd1 O26 2.487 1_545 S
Nd1 O27 2.478 1_545 S
Nd1 O28 2.488 1_554 S
Nd1 O29 2.691 1_554 S
Nd1 O30 2.402 1_544 S
C2 Nd0 2.836 . S
C2 C3 1.498 . S
C2 O20 1.258 1_655 S
C2 O21 1.239 . S
C3 C2 1.498 . S
C3 C4 1.366 1_655 S
C3 C8 1.407 . S
C4 C3 1.366 1_455 S
C4 C5 1.392 . S
C4 H32 0.930 . S
C5 C4 1.392 . S
C5 C6 1.398 1_455 S
C5 H33 0.929 . S
C6 C5 1.398 1_655 S
C6 C7 1.352 . S
C7 C6 1.352 . S
C7 C8 1.384 . S
C7 H34 0.930 . S
C8 C3 1.407 . S
C8 C7 1.384 . S
C8 H35 0.929 . S
C9 O22 1.241 . S
C9 O23 1.273 . S
C10 O24 1.251 . S
C10 O25 1.268 . S
C11 Nd1 2.821 1_565 S
C11 C12 1.498 . S
C11 O26 1.258 . S
C11 O27 1.239 . S
C12 C11 1.498 . S
C12 C13 1.374 . S
C12 C17 1.407 . S
C13 C12 1.374 . S
C13 C14 1.404 . S
C13 H36 0.909 1_455 S
C14 C13 1.404 . S
C14 C15 1.401 . S
C14 H37 0.928 1_455 S
C15 C14 1.401 . S
C15 C16 1.352 . S
C16 C15 1.352 . S
C16 C17 1.384 . S
C16 H38 0.930 . S
C17 C12 1.407 . S
C17 C16 1.384 . S
C17 H39 0.929 . S
C18 O28 1.241 . S
C18 O29 1.273 . S
C19 O30 1.251 1_655 S
C19 O31 1.268 . S
O20 Nd0 2.500 1_455 S
O20 C2 1.258 1_455 S
O21 Nd0 2.492 . S
O21 C2 1.239 . S
O22 Nd0 2.487 1_564 S
O22 C9 1.241 . S
O23 Nd0 2.682 1_564 S
O23 Nd1 2.419 1_665 S
O23 C9 1.273 . S
O24 Nd0 2.410 1_454 S
O24 C10 1.251 . S
O25 Nd1 2.439 . S
O25 C10 1.268 . S
O26 Nd1 2.487 1_565 S
O26 C11 1.258 . S
O27 Nd1 2.478 1_565 S
O27 C11 1.239 . S
O28 Nd1 2.488 1_556 S
O28 C18 1.241 . S
O29 Nd0 2.414 1_455 S
O29 Nd1 2.691 1_556 S
O29 C18 1.273 . S
O30 Nd1 2.402 1_566 S
O30 C19 1.251 1_455 S
O31 Nd0 2.424 1_565 S
O31 C19 1.268 . S
H32 C4 0.930 . S
H33 C5 0.929 . S
H34 C7 0.930 . S
H35 C8 0.929 . S
H36 C13 0.909 1_655 S
H37 C14 0.928 1_655 S
H38 C16 0.930 . S
H39 C17 0.929 . S
Nd40 C42 2.836 . S
Nd40 O60 2.500 . S
Nd40 O61 2.492 . S
Nd40 O62 2.487 . S
Nd40 O63 2.682 1_655 S
Nd40 O64 2.410 . S
Nd40 O69 2.414 1_665 S
Nd40 O71 2.424 1_655 S
Nd41 C51 2.836 . S
Nd41 O63 2.414 1_545 S
Nd41 O65 2.424 . S
Nd41 O66 2.500 . S
Nd41 O67 2.492 . S
Nd41 O68 2.487 . S
Nd41 O69 2.682 . S
Nd41 O70 2.410 . S
C42 Nd40 2.836 . S
C42 C43 1.498 . S
C42 O60 1.258 . S
C42 O61 1.239 . S
C43 C42 1.498 . S
C43 C44 1.366 . S
C43 C48 1.407 . S
C44 C43 1.366 . S
C44 C45 1.392 . S
C44 H72 0.930 . S
C45 C44 1.392 . S
C45 C46 1.398 . S
C45 H73 0.929 . S
C46 C45 1.398 . S
C46 C47 1.352 . S
C47 C46 1.352 . S
C47 C48 1.384 . S
C47 H74 0.930 . S
C48 C43 1.407 . S
C48 C47 1.384 . S
C48 H75 0.929 . S
C49 O62 1.241 . S
C49 O63 1.273 1_655 S
C50 O64 1.251 1_545 S
C50 O65 1.268 1_655 S
C51 Nd41 2.836 . S
C51 C52 1.498 . S
C51 O66 1.258 . S
C51 O67 1.239 . S
C52 C51 1.498 . S
C52 C53 1.366 . S
C52 C57 1.407 . S
C53 C52 1.366 . S
C53 C54 1.392 . S
C53 H76 0.930 . S
C54 C53 1.392 . S
C54 C55 1.398 . S
C54 H77 0.929 . S
C55 C54 1.398 . S
C55 C56 1.352 . S
C56 C55 1.352 . S
C56 C57 1.384 . S
C56 H78 0.930 . S
C57 C52 1.407 . S
C57 C56 1.384 . S
C57 H79 0.929 . S
C58 O68 1.241 . S
C58 O69 1.273 . S
C59 O70 1.251 1_565 S
C59 O71 1.268 . S
O60 Nd40 2.500 . S
O60 C42 1.258 . S
O61 Nd40 2.492 . S
O61 C42 1.239 . S
O62 Nd40 2.487 . S
O62 C49 1.241 . S
O63 Nd40 2.682 1_455 S
O63 Nd41 2.414 1_565 S
O63 C49 1.273 1_455 S
O64 Nd40 2.410 . S
O64 C50 1.251 1_565 S
O65 Nd41 2.424 . S
O65 C50 1.268 1_455 S
O66 Nd41 2.500 . S
O66 C51 1.258 . S
O67 Nd41 2.492 . S
O67 C51 1.239 . S
O68 Nd41 2.487 . S
O68 C58 1.241 . S
O69 Nd40 2.414 1_445 S
O69 Nd41 2.682 . S
O69 C58 1.273 . S
O70 Nd41 2.410 . S
O70 C59 1.251 1_545 S
O71 Nd40 2.424 1_455 S
O71 C59 1.268 . S
H72 C44 0.930 . S
H73 C45 0.929 . S
H74 C47 0.930 . S
H75 C48 0.929 . S
H76 C53 0.930 . S
H77 C54 0.929 . S
H78 C56 0.930 . S
H79 C57 0.929 . S
Zn80 O86 1.920 . S
Zn80 O92 1.898 . S
Zn80 O95 1.905 . S
Zn81 O89 1.905 . S
Zn81 O90 1.898 . S
Zn81 O98 1.920 . S
Zn82 O85 2.080 . S
Zn82 O88 2.114 . S
Zn82 O91 2.120 . S
Zn82 O93 2.120 . S
Zn82 O94 2.114 . S
Zn82 O97 2.080 . S
C83 O88 1.166 . S
C83 O89 1.182 . S
C84 O90 1.167 . S
C84 O91 1.299 . S
O85 Zn82 2.080 . S
O85 C99 1.305 . S
O86 Zn80 1.920 . S
O86 C99 1.234 . S
C87 O92 1.167 . S
C87 O93 1.299 . S
O88 Zn82 2.114 . S
O88 C83 1.166 . S
O89 Zn81 1.905 . S
O89 C83 1.182 . S
O90 Zn81 1.898 . S
O90 C84 1.167 . S
O91 Zn82 2.120 . S
O91 C84 1.299 . S
O92 Zn80 1.898 . S
O92 C87 1.167 . S
O93 Zn82 2.120 . S
O93 C87 1.299 . S
O94 Zn82 2.114 . S
O94 C96 1.166 . S
O95 Zn80 1.905 . S
O95 C96 1.182 . S
C96 O94 1.166 . S
C96 O95 1.182 . S
O97 Zn82 2.080 . S
O97 C100 1.305 . S
O98 Zn81 1.920 . S
O98 C100 1.234 . S
C99 O85 1.305 . S
C99 O86 1.234 . S
C100 O97 1.305 . S
C100 O98 1.234 . S
Zn101 O107 1.920 . S
Zn101 O113 1.898 . S
Zn101 O116 1.905 . S
Zn102 O110 1.905 . S
Zn102 O111 1.898 . S
Zn102 O119 1.920 . S
Zn103 O106 2.080 . S
Zn103 O109 2.114 . S
Zn103 O112 2.120 . S
Zn103 O114 2.120 . S
Zn103 O115 2.114 . S
Zn103 O118 2.080 . S
C104 O109 1.166 . S
C104 O110 1.182 . S
C105 O111 1.167 . S
C105 O112 1.299 . S
O106 Zn103 2.080 . S
O106 C120 1.305 . S
O107 Zn101 1.920 . S
O107 C120 1.234 . S
C108 O113 1.167 . S
C108 O114 1.299 . S
O109 Zn103 2.114 . S
O109 C104 1.166 . S
O110 Zn102 1.905 . S
O110 C104 1.182 . S
O111 Zn102 1.898 . S
O111 C105 1.167 . S
O112 Zn103 2.120 . S
O112 C105 1.299 . S
O113 Zn101 1.898 . S
O113 C108 1.167 . S
O114 Zn103 2.120 . S
O114 C108 1.299 . S
O115 Zn103 2.114 . S
O115 C117 1.166 . S
O116 Zn101 1.905 . S
O116 C117 1.182 . S
C117 O115 1.166 . S
C117 O116 1.182 . S
O118 Zn103 2.080 . S
O118 C121 1.305 . S
O119 Zn102 1.920 . S
O119 C121 1.234 . S
C120 O106 1.305 . S
C120 O107 1.234 . S
C121 O118 1.305 . S
C121 O119 1.234 . S
H122 C123 0.951 . S
C123 H122 0.951 . S
C123 C129 1.265 . S
H124 C129 0.950 . S
H125 C133 0.949 . S
H126 C134 0.950 . S
H127 C135 0.951 . S
H128 C136 0.951 . S
C129 C123 1.265 . S
C129 H124 0.950 . S
C129 C130 1.478 . S
C130 C129 1.478 . S
C130 C131 1.397 . S
C130 C147 1.394 . S
C131 C130 1.397 . S
C131 C132 1.438 . S
C131 C136 1.429 . S
C132 C131 1.438 . S
C132 C133 1.428 . S
C132 C145 1.394 . S
C133 H125 0.949 . S
C133 C132 1.428 . S
C133 C134 1.345 . S
C134 H126 0.950 . S
C134 C133 1.345 . S
C134 C135 1.424 . S
C135 H127 0.951 . S
C135 C134 1.424 . S
C135 C136 1.347 . S
C136 H128 0.951 . S
C136 C131 1.429 . S
C136 C135 1.347 . S
H137 C138 0.951 . S
C138 H137 0.951 . S
C138 C144 1.265 . S
H139 C144 0.950 . S
H140 C148 0.949 . S
H141 C149 0.950 . S
H142 C150 0.951 . S
H143 C151 0.951 . S
C144 C138 1.265 . S
C144 H139 0.950 . S
C144 C145 1.478 . S
C145 C132 1.394 . S
C145 C144 1.478 . S
C145 C146 1.397 . S
C146 C145 1.397 . S
C146 C147 1.438 . S
C146 C151 1.429 . S
C147 C130 1.394 . S
C147 C146 1.438 . S
C147 C148 1.428 . S
C148 H140 0.949 . S
C148 C147 1.428 . S
C148 C149 1.345 . S
C149 H141 0.950 . S
C149 C148 1.345 . S
C149 C150 1.424 . S
C150 H142 0.951 . S
C150 C149 1.424 . S
C150 C151 1.347 . S
C151 H143 0.951 . S
C151 C146 1.429 . S
C151 C150 1.347 . S
H152 C153 0.951 . S
C153 H152 0.951 . S
C153 C159 1.265 . S
H154 C159 0.950 . S
H155 C163 0.949 . S
H156 C164 0.950 . S
H157 C165 0.951 . S
H158 C166 0.951 . S
C159 C153 1.265 . S
C159 H154 0.950 . S
C159 C160 1.478 . S
C160 C159 1.478 . S
C160 C161 1.397 . S
C160 C177 1.394 . S
C161 C160 1.397 . S
C161 C162 1.438 . S
C161 C166 1.429 . S
C162 C161 1.438 . S
C162 C163 1.428 . S
C162 C175 1.394 . S
C163 H155 0.949 . S
C163 C162 1.428 . S
C163 C164 1.345 . S
C164 H156 0.950 . S
C164 C163 1.345 . S
C164 C165 1.424 . S
C165 H157 0.951 . S
C165 C164 1.424 . S
C165 C166 1.347 . S
C166 H158 0.951 . S
C166 C161 1.429 . S
C166 C165 1.347 . S
H167 C168 0.951 . S
C168 H167 0.951 . S
C168 C174 1.265 . S
H169 C174 0.950 . S
H170 C178 0.949 . S
H171 C179 0.950 . S
H172 C180 0.951 . S
H173 C181 0.951 . S
C174 C168 1.265 . S
C174 H169 0.950 . S
C174 C175 1.478 . S
C175 C162 1.394 . S
C175 C174 1.478 . S
C175 C176 1.397 . S
C176 C175 1.397 . S
C176 C177 1.438 . S
C176 C181 1.429 . S
C177 C160 1.394 . S
C177 C176 1.438 . S
C177 C178 1.428 . S
C178 H170 0.949 . S
C178 C177 1.428 . S
C178 C179 1.345 . S
C179 H171 0.950 . S
C179 C178 1.345 . S
C179 C180 1.424 . S
C180 H172 0.951 . S
C180 C179 1.424 . S
C180 C181 1.347 . S
C181 H173 0.951 . S
C181 C176 1.429 . S
C181 C180 1.347 . S
H182 C183 0.951 . S
C183 H182 0.951 . S
C183 C189 1.265 . S
H184 C189 0.950 . S
H185 C193 0.949 . S
H186 C194 0.950 . S
H187 C195 0.951 1_655 S
H188 C196 0.951 . S
C189 C183 1.265 . S
C189 H184 0.950 . S
C189 C190 1.478 . S
C190 C189 1.478 . S
C190 C191 1.397 . S
C190 C207 1.394 . S
C191 C190 1.397 . S
C191 C192 1.438 . S
C191 C196 1.429 . S
C192 C191 1.438 . S
C192 C193 1.428 . S
C192 C205 1.394 . S
C193 H185 0.949 . S
C193 C192 1.428 . S
C193 C194 1.345 . S
C194 H186 0.950 . S
C194 C193 1.345 . S
C194 C195 1.424 . S
C195 H187 0.951 1_455 S
C195 C194 1.424 . S
C195 C196 1.347 . S
C196 H188 0.951 . S
C196 C191 1.429 . S
C196 C195 1.347 . S
H197 C198 0.951 . S
C198 H197 0.951 . S
C198 C204 1.265 . S
H199 C204 0.950 . S
H200 C208 0.949 . S
H201 C209 0.950 . S
H202 C210 0.951 . S
H203 C211 0.951 . S
C204 C198 1.265 . S
C204 H199 0.950 . S
C204 C205 1.478 . S
C205 C192 1.394 . S
C205 C204 1.478 . S
C205 C206 1.397 . S
C206 C205 1.397 . S
C206 C207 1.438 . S
C206 C211 1.429 . S
C207 C190 1.394 . S
C207 C206 1.438 . S
C207 C208 1.428 . S
C208 H200 0.949 . S
C208 C207 1.428 . S
C208 C209 1.345 . S
C209 H201 0.950 . S
C209 C208 1.345 . S
C209 C210 1.424 . S
C210 H202 0.951 . S
C210 C209 1.424 . S
C210 C211 1.347 . S
C211 H203 0.951 . S
C211 C206 1.429 . S
C211 C210 1.347 . S
H212 C213 0.951 . S
C213 H212 0.951 . S
C213 C219 1.265 . S
H214 C219 0.950 . S
H215 C223 0.949 . S
H216 C224 0.950 . S
H217 C225 0.951 . S
H218 C226 0.951 . S
C219 C213 1.265 . S
C219 H214 0.950 . S
C219 C220 1.478 . S
C220 C219 1.478 . S
C220 C221 1.397 . S
C220 C237 1.394 . S
C221 C220 1.397 . S
C221 C222 1.438 . S
C221 C226 1.429 . S
C222 C221 1.438 . S
C222 C223 1.428 . S
C222 C235 1.394 . S
C223 H215 0.949 . S
C223 C222 1.428 . S
C223 C224 1.345 . S
C224 H216 0.950 . S
C224 C223 1.345 . S
C224 C225 1.424 . S
C225 H217 0.951 . S
C225 C224 1.424 . S
C225 C226 1.347 . S
C226 H218 0.951 . S
C226 C221 1.429 . S
C226 C225 1.347 . S
H227 C228 0.951 . S
C228 H227 0.951 . S
C228 C234 1.265 . S
H229 C234 0.950 . S
H230 C238 0.949 . S
H231 C239 0.950 . S
H232 C240 0.951 . S
H233 C241 0.951 . S
C234 C228 1.265 . S
C234 H229 0.950 . S
C234 C235 1.478 . S
C235 C222 1.394 . S
C235 C234 1.478 . S
C235 C236 1.397 . S
C236 C235 1.397 . S
C236 C237 1.438 . S
C236 C241 1.429 . S
C237 C220 1.394 . S
C237 C236 1.438 . S
C237 C238 1.428 . S
C238 H230 0.949 . S
C238 C237 1.428 . S
C238 C239 1.345 1_655 S
C239 H231 0.950 . S
C239 C238 1.345 1_455 S
C239 C240 1.424 . S
C240 H232 0.951 . S
C240 C239 1.424 . S
C240 C241 1.347 1_455 S
C241 H233 0.951 . S
C241 C236 1.429 . S
C241 C240 1.347 1_655 S
H242 C243 0.951 . S
C243 H242 0.951 . S
C243 C249 1.265 . S
H244 C249 0.950 . S
H245 C253 0.949 . S
H246 C254 0.950 . S
H247 C255 0.951 . S
H248 C256 0.951 . S
C249 C243 1.265 . S
C249 H244 0.950 . S
C249 C250 1.478 . S
C250 C249 1.478 . S
C250 C251 1.397 . S
C250 C267 1.394 . S
C251 C250 1.397 . S
C251 C252 1.438 . S
C251 C256 1.429 . S
C252 C251 1.438 . S
C252 C253 1.428 . S
C252 C265 1.394 . S
C253 H245 0.949 . S
C253 C252 1.428 . S
C253 C254 1.345 . S
C254 H246 0.950 . S
C254 C253 1.345 . S
C254 C255 1.424 . S
C255 H247 0.951 . S
C255 C254 1.424 . S
C255 C256 1.347 . S
C256 H248 0.951 . S
C256 C251 1.429 . S
C256 C255 1.347 . S
H257 C258 0.951 . S
C258 H257 0.951 . S
C258 C264 1.265 . S
H259 C264 0.950 . S
H260 C268 0.949 . S
H261 C269 0.950 . S
H262 C270 0.951 . S
H263 C271 0.951 . S
C264 C258 1.265 . S
C264 H259 0.950 . S
C264 C265 1.478 . S
C265 C252 1.394 . S
C265 C264 1.478 . S
C265 C266 1.397 . S
C266 C265 1.397 . S
C266 C267 1.438 . S
C266 C271 1.429 . S
C267 C250 1.394 . S
C267 C266 1.438 . S
C267 C268 1.428 . S
C268 H260 0.949 . S
C268 C267 1.428 . S
C268 C269 1.345 . S
C269 H261 0.950 . S
C269 C268 1.345 . S
C269 C270 1.424 . S
C270 H262 0.951 . S
C270 C269 1.424 . S
C270 C271 1.347 . S
C271 H263 0.951 . S
C271 C266 1.429 . S
C271 C270 1.347 . S
H272 C273 0.951 . S
C273 H272 0.951 . S
C273 C279 1.265 . S
H274 C279 0.950 . S
H275 C283 0.949 . S
H276 C284 0.950 . S
H277 C285 0.951 . S
H278 C286 0.951 . S
C279 C273 1.265 . S
C279 H274 0.950 . S
C279 C280 1.478 . S
C280 C279 1.478 . S
C280 C281 1.397 . S
C280 C297 1.394 . S
C281 C280 1.397 . S
C281 C282 1.438 . S
C281 C286 1.429 . S
C282 C281 1.438 . S
C282 C283 1.428 . S
C282 C295 1.394 . S
C283 H275 0.949 . S
C283 C282 1.428 . S
C283 C284 1.345 . S
C284 H276 0.950 . S
C284 C283 1.345 . S
C284 C285 1.424 . S
C285 H277 0.951 . S
C285 C284 1.424 . S
C285 C286 1.347 . S
C286 H278 0.951 . S
C286 C281 1.429 . S
C286 C285 1.347 . S
H287 C288 0.951 . S
C288 H287 0.951 . S
C288 C294 1.265 . S
H289 C294 0.950 . S
H290 C298 0.949 . S
H291 C299 0.950 . S
H292 C300 0.951 . S
H293 C301 0.951 . S
C294 C288 1.265 . S
C294 H289 0.950 . S
C294 C295 1.478 . S
C295 C282 1.394 . S
C295 C294 1.478 . S
C295 C296 1.397 . S
C296 C295 1.397 . S
C296 C297 1.438 . S
C296 C301 1.429 . S
C297 C280 1.394 . S
C297 C296 1.438 . S
C297 C298 1.428 . S
C298 H290 0.949 . S
C298 C297 1.428 . S
C298 C299 1.345 . S
C299 H291 0.950 . S
C299 C298 1.345 . S
C299 C300 1.424 . S
C300 H292 0.951 . S
C300 C299 1.424 . S
C300 C301 1.347 . S
C301 H293 0.951 . S
C301 C296 1.429 . S
C301 C300 1.347 . S
H302 C303 0.951 . S
C303 H302 0.951 . S
C303 C309 1.265 . S
H304 C309 0.950 . S
H305 C313 0.949 . S
H306 C314 0.950 . S
H307 C315 0.951 1_545 S
H308 C316 0.951 . S
C309 C303 1.265 . S
C309 H304 0.950 . S
C309 C310 1.478 . S
C310 C309 1.478 . S
C310 C311 1.397 . S
C310 C327 1.394 . S
C311 C310 1.397 . S
C311 C312 1.438 . S
C311 C316 1.429 . S
C312 C311 1.438 . S
C312 C313 1.428 . S
C312 C325 1.394 . S
C313 H305 0.949 . S
C313 C312 1.428 . S
C313 C314 1.345 . S
C314 H306 0.950 . S
C314 C313 1.345 . S
C314 C315 1.424 . S
C315 H307 0.951 1_565 S
C315 C314 1.424 . S
C315 C316 1.347 . S
C316 H308 0.951 . S
C316 C311 1.429 . S
C316 C315 1.347 . S
H317 C318 0.951 . S
C318 H317 0.951 . S
C318 C324 1.265 . S
H319 C324 0.950 . S
H320 C328 0.949 . S
H321 C329 0.950 . S
H322 C330 0.951 . S
H323 C331 0.951 . S
C324 C318 1.265 . S
C324 H319 0.950 . S
C324 C325 1.478 . S
C325 C312 1.394 . S
C325 C324 1.478 . S
C325 C326 1.397 . S
C326 C325 1.397 . S
C326 C327 1.438 . S
C326 C331 1.429 . S
C327 C310 1.394 . S
C327 C326 1.438 . S
C327 C328 1.428 . S
C328 H320 0.949 . S
C328 C327 1.428 . S
C328 C329 1.345 . S
C329 H321 0.950 . S
C329 C328 1.345 . S
C329 C330 1.424 . S
C330 H322 0.951 . S
C330 C329 1.424 . S
C330 C331 1.347 . S
C331 H323 0.951 . S
C331 C326 1.429 . S
C331 C330 1.347 . S
H332 C333 0.951 . S
C333 H332 0.951 . S
C333 C339 1.265 . S
H334 C339 0.950 . S
H335 C343 0.949 . S
H336 C344 0.950 . S
H337 C345 0.951 . S
H338 C346 0.951 . S
C339 C333 1.265 . S
C339 H334 0.950 . S
C339 C340 1.478 . S
C340 C339 1.478 . S
C340 C341 1.397 . S
C340 C357 1.394 . S
C341 C340 1.397 . S
C341 C342 1.438 . S
C341 C346 1.429 . S
C342 C341 1.438 . S
C342 C343 1.428 . S
C342 C355 1.394 . S
C343 H335 0.949 . S
C343 C342 1.428 . S
C343 C344 1.345 . S
C344 H336 0.950 . S
C344 C343 1.345 . S
C344 C345 1.424 . S
C345 H337 0.951 . S
C345 C344 1.424 . S
C345 C346 1.347 . S
C346 H338 0.951 . S
C346 C341 1.429 . S
C346 C345 1.347 . S
H347 C348 0.951 . S
C348 H347 0.951 . S
C348 C354 1.265 . S
H349 C354 0.950 . S
H350 C358 0.949 . S
H351 C359 0.950 . S
H352 C360 0.951 . S
H353 C361 0.951 . S
C354 C348 1.265 . S
C354 H349 0.950 . S
C354 C355 1.478 . S
C355 C342 1.394 . S
C355 C354 1.478 . S
C355 C356 1.397 . S
C356 C355 1.397 . S
C356 C357 1.438 . S
C356 C361 1.429 . S
C357 C340 1.394 . S
C357 C356 1.438 . S
C357 C358 1.428 . S
C358 H350 0.949 . S
C358 C357 1.428 . S
C358 C359 1.345 . S
C359 H351 0.950 . S
C359 C358 1.345 . S
C359 C360 1.424 . S
C360 H352 0.951 . S
C360 C359 1.424 . S
C360 C361 1.347 . S
C361 H353 0.951 . S
C361 C356 1.429 . S
C361 C360 1.347 . S
H362 C363 0.951 . S
C363 H362 0.951 . S
C363 C369 1.265 . S
H364 C369 0.950 . S
H365 C373 0.949 . S
H366 C374 0.950 . S
H367 C375 0.951 . S
H368 C376 0.951 . S
C369 C363 1.265 . S
C369 H364 0.950 . S
C369 C370 1.478 . S
C370 C369 1.478 . S
C370 C371 1.397 . S
C370 C387 1.394 . S
C371 C370 1.397 . S
C371 C372 1.438 . S
C371 C376 1.429 . S
C372 C371 1.438 . S
C372 C373 1.428 . S
C372 C385 1.394 . S
C373 H365 0.949 . S
C373 C372 1.428 . S
C373 C374 1.345 . S
C374 H366 0.950 . S
C374 C373 1.345 . S
C374 C375 1.424 . S
C375 H367 0.951 . S
C375 C374 1.424 . S
C375 C376 1.347 . S
C376 H368 0.951 . S
C376 C371 1.429 . S
C376 C375 1.347 . S
H377 C378 0.951 . S
C378 H377 0.951 . S
C378 C384 1.265 . S
H379 C384 0.950 . S
H380 C388 0.949 . S
H381 C389 0.950 . S
H382 C390 0.951 . S
H383 C391 0.951 . S
C384 C378 1.265 . S
C384 H379 0.950 . S
C384 C385 1.478 . S
C385 C372 1.394 . S
C385 C384 1.478 . S
C385 C386 1.397 . S
C386 C385 1.397 . S
C386 C387 1.438 . S
C386 C391 1.429 . S
C387 C370 1.394 . S
C387 C386 1.438 . S
C387 C388 1.428 . S
C388 H380 0.949 . S
C388 C387 1.428 . S
C388 C389 1.345 . S
C389 H381 0.950 . S
C389 C388 1.345 . S
C389 C390 1.424 . S
C390 H382 0.951 . S
C390 C389 1.424 . S
C390 C391 1.347 . S
C391 H383 0.951 . S
C391 C386 1.429 . S
C391 C390 1.347 . S
H392 C393 0.951 . S
C393 H392 0.951 . S
C393 C399 1.265 . S
H394 C399 0.950 . S
H395 C403 0.949 . S
H396 C404 0.950 . S
H397 C405 0.951 . S
H398 C406 0.951 . S
C399 C393 1.265 . S
C399 H394 0.950 . S
C399 C400 1.478 . S
C400 C399 1.478 . S
C400 C401 1.397 . S
C400 C417 1.394 . S
C401 C400 1.397 . S
C401 C402 1.438 . S
C401 C406 1.429 . S
C402 C401 1.438 . S
C402 C403 1.428 . S
C402 C415 1.394 . S
C403 H395 0.949 . S
C403 C402 1.428 . S
C403 C404 1.345 . S
C404 H396 0.950 . S
C404 C403 1.345 . S
C404 C405 1.424 . S
C405 H397 0.951 . S
C405 C404 1.424 . S
C405 C406 1.347 . S
C406 H398 0.951 . S
C406 C401 1.429 . S
C406 C405 1.347 . S
H407 C408 0.951 . S
C408 H407 0.951 . S
C408 C414 1.265 . S
H409 C414 0.950 . S
H410 C418 0.949 . S
H411 C419 0.950 . S
H412 C420 0.951 . S
H413 C421 0.951 . S
C414 C408 1.265 . S
C414 H409 0.950 . S
C414 C415 1.478 . S
C415 C402 1.394 . S
C415 C414 1.478 . S
C415 C416 1.397 . S
C416 C415 1.397 . S
C416 C417 1.438 . S
C416 C421 1.429 . S
C417 C400 1.394 . S
C417 C416 1.438 . S
C417 C418 1.428 . S
C418 H410 0.949 . S
C418 C417 1.428 . S
C418 C419 1.345 . S
C419 H411 0.950 . S
C419 C418 1.345 . S
C419 C420 1.424 . S
C420 H412 0.951 . S
C420 C419 1.424 . S
C420 C421 1.347 . S
C421 H413 0.951 . S
C421 C416 1.429 . S
C421 C420 1.347 . S
H422 C423 0.951 . S
C423 H422 0.951 . S
C423 C429 1.265 . S
H424 C429 0.950 . S
H425 C433 0.949 . S
H426 C434 0.950 . S
H427 C435 0.951 . S
H428 C436 0.951 . S
C429 C423 1.265 . S
C429 H424 0.950 . S
C429 C430 1.478 . S
C430 C429 1.478 . S
C430 C431 1.397 . S
C430 C447 1.394 . S
C431 C430 1.397 . S
C431 C432 1.438 . S
C431 C436 1.429 . S
C432 C431 1.438 . S
C432 C433 1.428 . S
C432 C445 1.394 . S
C433 H425 0.949 . S
C433 C432 1.428 . S
C433 C434 1.345 . S
C434 H426 0.950 . S
C434 C433 1.345 . S
C434 C435 1.424 . S
C435 H427 0.951 . S
C435 C434 1.424 . S
C435 C436 1.347 . S
C436 H428 0.951 . S
C436 C431 1.429 . S
C436 C435 1.347 . S
H437 C438 0.951 . S
C438 H437 0.951 . S
C438 C444 1.265 . S
H439 C444 0.950 . S
H440 C448 0.949 . S
H441 C449 0.950 . S
H442 C450 0.951 . S
H443 C451 0.951 . S
C444 C438 1.265 . S
C444 H439 0.950 . S
C444 C445 1.478 . S
C445 C432 1.394 . S
C445 C444 1.478 . S
C445 C446 1.397 . S
C446 C445 1.397 . S
C446 C447 1.438 . S
C446 C451 1.429 . S
C447 C430 1.394 . S
C447 C446 1.438 . S
C447 C448 1.428 . S
C448 H440 0.949 . S
C448 C447 1.428 . S
C448 C449 1.345 . S
C449 H441 0.950 . S
C449 C448 1.345 . S
C449 C450 1.424 . S
C450 H442 0.951 . S
C450 C449 1.424 . S
C450 C451 1.347 . S
C451 H443 0.951 . S
C451 C446 1.429 . S
C451 C450 1.347 . S
H452 C453 0.951 1_455 S
C453 H452 0.951 1_655 S
C453 C459 1.265 . S
H454 C459 0.950 . S
H455 C463 0.949 . S
H456 C464 0.950 . S
H457 C465 0.951 . S
H458 C466 0.951 . S
C459 C453 1.265 . S
C459 H454 0.950 . S
C459 C460 1.478 . S
C460 C459 1.478 . S
C460 C461 1.397 . S
C460 C477 1.394 . S
C461 C460 1.397 . S
C461 C462 1.438 . S
C461 C466 1.429 . S
C462 C461 1.438 . S
C462 C463 1.428 . S
C462 C475 1.394 . S
C463 H455 0.949 . S
C463 C462 1.428 . S
C463 C464 1.345 . S
C464 H456 0.950 . S
C464 C463 1.345 . S
C464 C465 1.424 . S
C465 H457 0.951 . S
C465 C464 1.424 . S
C465 C466 1.347 . S
C466 H458 0.951 . S
C466 C461 1.429 . S
C466 C465 1.347 . S
H467 C468 0.951 . S
C468 H467 0.951 . S
C468 C474 1.265 . S
H469 C474 0.950 . S
H470 C478 0.949 . S
H471 C479 0.950 1_554 S
H472 C480 0.951 . S
H473 C481 0.951 . S
C474 C468 1.265 . S
C474 H469 0.950 . S
C474 C475 1.478 . S
C475 C462 1.394 . S
C475 C474 1.478 . S
C475 C476 1.397 . S
C476 C475 1.397 . S
C476 C477 1.438 . S
C476 C481 1.429 . S
C477 C460 1.394 . S
C477 C476 1.438 . S
C477 C478 1.428 . S
C478 H470 0.949 . S
C478 C477 1.428 . S
C478 C479 1.345 . S
C479 H471 0.950 1_556 S
C479 C478 1.345 . S
C479 C480 1.424 . S
C480 H472 0.951 . S
C480 C479 1.424 . S
C480 C481 1.347 . S
C481 H473 0.951 . S
C481 C476 1.429 . S
C481 C480 1.347 . S
C123 C15 1.387 . S
C138 C99 1.380 . S
C153 C55 0.982 . S
C168 C105 0.886 . S
C183 C10 1.259 . S
C198 C96 1.132 . S
C213 C50 1.919 . S
C228 C121 1.789 . S
C243 C9 2.042 . S
C258 C87 1.974 . S
C288 C104 1.855 . S
C273 C49 1.973 . S
C303 C59 1.692 . S
C318 C100 1.646 . S
C348 C117 2.208 . S
C333 C18 2.183 . S
C378 C84 2.092 . S
C363 C58 2.275 . S
C408 C120 1.366 . S
C393 C6 1.522 . S
C438 C83 0.929 . S
C423 C46 1.020 . S
C468 C108 0.967 . S
C453 C19 1.086 . S
