# Generated by pormake.
# Topology gar, (4,6)-cn, num edge types: 1
# Building blocks:
#     Node 0, Type 0, BuildingBlock: QUQFOY_clean_sbu_1, # of connection points: 4
#     Node 1, Type 0, BuildingBlock: QUQFOY_clean_sbu_1, # of connection points: 4
#     Node 2, Type 0, BuildingBlock: QUQFOY_clean_sbu_1, # of connection points: 4
#     Node 3, Type 0, BuildingBlock: QUQFOY_clean_sbu_1, # of connection points: 4
#     Node 4, Type 0, BuildingBlock: QUQFOY_clean_sbu_1, # of connection points: 4
#     Node 5, Type 0, BuildingBlock: QUQFOY_clean_sbu_1, # of connection points: 4
#     Node 6, Type 0, BuildingBlock: QUQFOY_clean_sbu_1, # of connection points: 4
#     Node 7, Type 0, BuildingBlock: QUQFOY_clean_sbu_1, # of connection points: 4
#     Node 8, Type 0, BuildingBlock: QUQFOY_clean_sbu_1, # of connection points: 4
#     Node 9, Type 0, BuildingBlock: QUQFOY_clean_sbu_1, # of connection points: 4
#     Node 10, Type 0, BuildingBlock: QUQFOY_clean_sbu_1, # of connection points: 4
#     Node 11, Type 0, BuildingBlock: QUQFOY_clean_sbu_1, # of connection points: 4
#     Node 12, Type 0, BuildingBlock: QUQFOY_clean_sbu_1, # of connection points: 4
#     Node 13, Type 0, BuildingBlock: QUQFOY_clean_sbu_1, # of connection points: 4
#     Node 14, Type 0, BuildingBlock: QUQFOY_clean_sbu_1, # of connection points: 4
#     Node 15, Type 0, BuildingBlock: QUQFOY_clean_sbu_1, # of connection points: 4
#     Node 16, Type 0, BuildingBlock: QUQFOY_clean_sbu_1, # of connection points: 4
#     Node 17, Type 0, BuildingBlock: QUQFOY_clean_sbu_1, # of connection points: 4
#     Node 18, Type 0, BuildingBlock: QUQFOY_clean_sbu_1, # of connection points: 4
#     Node 19, Type 0, BuildingBlock: QUQFOY_clean_sbu_1, # of connection points: 4
#     Node 20, Type 0, BuildingBlock: QUQFOY_clean_sbu_1, # of connection points: 4
#     Node 21, Type 0, BuildingBlock: QUQFOY_clean_sbu_1, # of connection points: 4
#     Node 22, Type 0, BuildingBlock: QUQFOY_clean_sbu_1, # of connection points: 4
#     Node 23, Type 0, BuildingBlock: QUQFOY_clean_sbu_1, # of connection points: 4
#     Node 24, Type 1, BuildingBlock: BETDEL_clean_sbu_0, # of connection points: 6
#     Node 25, Type 1, BuildingBlock: BETDEL_clean_sbu_0, # of connection points: 6
#     Node 26, Type 1, BuildingBlock: BETDEL_clean_sbu_0, # of connection points: 6
#     Node 27, Type 1, BuildingBlock: BETDEL_clean_sbu_0, # of connection points: 6
#     Node 28, Type 1, BuildingBlock: BETDEL_clean_sbu_0, # of connection points: 6
#     Node 29, Type 1, BuildingBlock: BETDEL_clean_sbu_0, # of connection points: 6
#     Node 30, Type 1, BuildingBlock: BETDEL_clean_sbu_0, # of connection points: 6
#     Node 31, Type 1, BuildingBlock: BETDEL_clean_sbu_0, # of connection points: 6
#     Node 32, Type 1, BuildingBlock: BETDEL_clean_sbu_0, # of connection points: 6
#     Node 33, Type 1, BuildingBlock: BETDEL_clean_sbu_0, # of connection points: 6
#     Node 34, Type 1, BuildingBlock: BETDEL_clean_sbu_0, # of connection points: 6
#     Node 35, Type 1, BuildingBlock: BETDEL_clean_sbu_0, # of connection points: 6
#     Node 36, Type 1, BuildingBlock: BETDEL_clean_sbu_0, # of connection points: 6
#     Node 37, Type 1, BuildingBlock: BETDEL_clean_sbu_0, # of connection points: 6
#     Node 38, Type 1, BuildingBlock: BETDEL_clean_sbu_0, # of connection points: 6
#     Node 39, Type 1, BuildingBlock: BETDEL_clean_sbu_0, # of connection points: 6
#     Edge 40, Type (0, 1), BuildingBlock: AJUNOK_clean_linker_0, # of connection points: 2
#     Edge 41, Type (0, 1), BuildingBlock: AJUNOK_clean_linker_0, # of connection points: 2
#     Edge 42, Type (0, 1), BuildingBlock: AJUNOK_clean_linker_0, # of connection points: 2
#     Edge 43, Type (0, 1), BuildingBlock: AJUNOK_clean_linker_0, # of connection points: 2
#     Edge 44, Type (0, 1), BuildingBlock: AJUNOK_clean_linker_0, # of connection points: 2
#     Edge 45, Type (0, 1), BuildingBlock: AJUNOK_clean_linker_0, # of connection points: 2
#     Edge 46, Type (0, 1), BuildingBlock: AJUNOK_clean_linker_0, # of connection points: 2
#     Edge 47, Type (0, 1), BuildingBlock: AJUNOK_clean_linker_0, # of connection points: 2
#     Edge 48, Type (0, 1), BuildingBlock: AJUNOK_clean_linker_0, # of connection points: 2
#     Edge 49, Type (0, 1), BuildingBlock: AJUNOK_clean_linker_0, # of connection points: 2
#     Edge 50, Type (0, 1), BuildingBlock: AJUNOK_clean_linker_0, # of connection points: 2
#     Edge 51, Type (0, 1), BuildingBlock: AJUNOK_clean_linker_0, # of connection points: 2
#     Edge 52, Type (0, 1), BuildingBlock: AJUNOK_clean_linker_0, # of connection points: 2
#     Edge 53, Type (0, 1), BuildingBlock: AJUNOK_clean_linker_0, # of connection points: 2
#     Edge 54, Type (0, 1), BuildingBlock: AJUNOK_clean_linker_0, # of connection points: 2
#     Edge 55, Type (0, 1), BuildingBlock: AJUNOK_clean_linker_0, # of connection points: 2
#     Edge 56, Type (0, 1), BuildingBlock: AJUNOK_clean_linker_0, # of connection points: 2
#     Edge 57, Type (0, 1), BuildingBlock: AJUNOK_clean_linker_0, # of connection points: 2
#     Edge 58, Type (0, 1), BuildingBlock: AJUNOK_clean_linker_0, # of connection points: 2
#     Edge 59, Type (0, 1), BuildingBlock: AJUNOK_clean_linker_0, # of connection points: 2
#     Edge 60, Type (0, 1), BuildingBlock: AJUNOK_clean_linker_0, # of connection points: 2
#     Edge 61, Type (0, 1), BuildingBlock: AJUNOK_clean_linker_0, # of connection points: 2
#     Edge 62, Type (0, 1), BuildingBlock: AJUNOK_clean_linker_0, # of connection points: 2
#     Edge 63, Type (0, 1), BuildingBlock: AJUNOK_clean_linker_0, # of connection points: 2
#     Edge 64, Type (0, 1), BuildingBlock: AJUNOK_clean_linker_0, # of connection points: 2
#     Edge 65, Type (0, 1), BuildingBlock: AJUNOK_clean_linker_0, # of connection points: 2
#     Edge 66, Type (0, 1), BuildingBlock: AJUNOK_clean_linker_0, # of connection points: 2
#     Edge 67, Type (0, 1), BuildingBlock: AJUNOK_clean_linker_0, # of connection points: 2
#     Edge 68, Type (0, 1), BuildingBlock: AJUNOK_clean_linker_0, # of connection points: 2
#     Edge 69, Type (0, 1), BuildingBlock: AJUNOK_clean_linker_0, # of connection points: 2
#     Edge 70, Type (0, 1), BuildingBlock: AJUNOK_clean_linker_0, # of connection points: 2
#     Edge 71, Type (0, 1), BuildingBlock: AJUNOK_clean_linker_0, # of connection points: 2
#     Edge 72, Type (0, 1), BuildingBlock: AJUNOK_clean_linker_0, # of connection points: 2
#     Edge 73, Type (0, 1), BuildingBlock: AJUNOK_clean_linker_0, # of connection points: 2
#     Edge 74, Type (0, 1), BuildingBlock: AJUNOK_clean_linker_0, # of connection points: 2
#     Edge 75, Type (0, 1), BuildingBlock: AJUNOK_clean_linker_0, # of connection points: 2
#     Edge 76, Type (0, 1), BuildingBlock: AJUNOK_clean_linker_0, # of connection points: 2
#     Edge 77, Type (0, 1), BuildingBlock: AJUNOK_clean_linker_0, # of connection points: 2
#     Edge 78, Type (0, 1), BuildingBlock: AJUNOK_clean_linker_0, # of connection points: 2
#     Edge 79, Type (0, 1), BuildingBlock: AJUNOK_clean_linker_0, # of connection points: 2
#     Edge 80, Type (0, 1), BuildingBlock: AJUNOK_clean_linker_0, # of connection points: 2
#     Edge 81, Type (0, 1), BuildingBlock: AJUNOK_clean_linker_0, # of connection points: 2
#     Edge 82, Type (0, 1), BuildingBlock: AJUNOK_clean_linker_0, # of connection points: 2
#     Edge 83, Type (0, 1), BuildingBlock: AJUNOK_clean_linker_0, # of connection points: 2
#     Edge 84, Type (0, 1), BuildingBlock: AJUNOK_clean_linker_0, # of connection points: 2
#     Edge 85, Type (0, 1), BuildingBlock: AJUNOK_clean_linker_0, # of connection points: 2
#     Edge 86, Type (0, 1), BuildingBlock: AJUNOK_clean_linker_0, # of connection points: 2
#     Edge 87, Type (0, 1), BuildingBlock: AJUNOK_clean_linker_0, # of connection points: 2
#     Edge 88, Type (0, 1), BuildingBlock: AJUNOK_clean_linker_0, # of connection points: 2
#     Edge 89, Type (0, 1), BuildingBlock: AJUNOK_clean_linker_0, # of connection points: 2
#     Edge 90, Type (0, 1), BuildingBlock: AJUNOK_clean_linker_0, # of connection points: 2
#     Edge 91, Type (0, 1), BuildingBlock: AJUNOK_clean_linker_0, # of connection points: 2
#     Edge 92, Type (0, 1), BuildingBlock: AJUNOK_clean_linker_0, # of connection points: 2
#     Edge 93, Type (0, 1), BuildingBlock: AJUNOK_clean_linker_0, # of connection points: 2
#     Edge 94, Type (0, 1), BuildingBlock: AJUNOK_clean_linker_0, # of connection points: 2
#     Edge 95, Type (0, 1), BuildingBlock: AJUNOK_clean_linker_0, # of connection points: 2
#     Edge 96, Type (0, 1), BuildingBlock: AJUNOK_clean_linker_0, # of connection points: 2
#     Edge 97, Type (0, 1), BuildingBlock: AJUNOK_clean_linker_0, # of connection points: 2
#     Edge 98, Type (0, 1), BuildingBlock: AJUNOK_clean_linker_0, # of connection points: 2
#     Edge 99, Type (0, 1), BuildingBlock: AJUNOK_clean_linker_0, # of connection points: 2
#     Edge 100, Type (0, 1), BuildingBlock: AJUNOK_clean_linker_0, # of connection points: 2
#     Edge 101, Type (0, 1), BuildingBlock: AJUNOK_clean_linker_0, # of connection points: 2
#     Edge 102, Type (0, 1), BuildingBlock: AJUNOK_clean_linker_0, # of connection points: 2
#     Edge 103, Type (0, 1), BuildingBlock: AJUNOK_clean_linker_0, # of connection points: 2
#     Edge 104, Type (0, 1), BuildingBlock: AJUNOK_clean_linker_0, # of connection points: 2
#     Edge 105, Type (0, 1), BuildingBlock: AJUNOK_clean_linker_0, # of connection points: 2
#     Edge 106, Type (0, 1), BuildingBlock: AJUNOK_clean_linker_0, # of connection points: 2
#     Edge 107, Type (0, 1), BuildingBlock: AJUNOK_clean_linker_0, # of connection points: 2
#     Edge 108, Type (0, 1), BuildingBlock: AJUNOK_clean_linker_0, # of connection points: 2
#     Edge 109, Type (0, 1), BuildingBlock: AJUNOK_clean_linker_0, # of connection points: 2
#     Edge 110, Type (0, 1), BuildingBlock: AJUNOK_clean_linker_0, # of connection points: 2
#     Edge 111, Type (0, 1), BuildingBlock: AJUNOK_clean_linker_0, # of connection points: 2
#     Edge 112, Type (0, 1), BuildingBlock: AJUNOK_clean_linker_0, # of connection points: 2
#     Edge 113, Type (0, 1), BuildingBlock: AJUNOK_clean_linker_0, # of connection points: 2
#     Edge 114, Type (0, 1), BuildingBlock: AJUNOK_clean_linker_0, # of connection points: 2
#     Edge 115, Type (0, 1), BuildingBlock: AJUNOK_clean_linker_0, # of connection points: 2
#     Edge 116, Type (0, 1), BuildingBlock: AJUNOK_clean_linker_0, # of connection points: 2
#     Edge 117, Type (0, 1), BuildingBlock: AJUNOK_clean_linker_0, # of connection points: 2
#     Edge 118, Type (0, 1), BuildingBlock: AJUNOK_clean_linker_0, # of connection points: 2
#     Edge 119, Type (0, 1), BuildingBlock: AJUNOK_clean_linker_0, # of connection points: 2
#     Edge 120, Type (0, 1), BuildingBlock: AJUNOK_clean_linker_0, # of connection points: 2
#     Edge 121, Type (0, 1), BuildingBlock: AJUNOK_clean_linker_0, # of connection points: 2
#     Edge 122, Type (0, 1), BuildingBlock: AJUNOK_clean_linker_0, # of connection points: 2
#     Edge 123, Type (0, 1), BuildingBlock: AJUNOK_clean_linker_0, # of connection points: 2
#     Edge 124, Type (0, 1), BuildingBlock: AJUNOK_clean_linker_0, # of connection points: 2
#     Edge 125, Type (0, 1), BuildingBlock: AJUNOK_clean_linker_0, # of connection points: 2
#     Edge 126, Type (0, 1), BuildingBlock: AJUNOK_clean_linker_0, # of connection points: 2
#     Edge 127, Type (0, 1), BuildingBlock: AJUNOK_clean_linker_0, # of connection points: 2
#     Edge 128, Type (0, 1), BuildingBlock: AJUNOK_clean_linker_0, # of connection points: 2
#     Edge 129, Type (0, 1), BuildingBlock: AJUNOK_clean_linker_0, # of connection points: 2
#     Edge 130, Type (0, 1), BuildingBlock: AJUNOK_clean_linker_0, # of connection points: 2
#     Edge 131, Type (0, 1), BuildingBlock: AJUNOK_clean_linker_0, # of connection points: 2
#     Edge 132, Type (0, 1), BuildingBlock: AJUNOK_clean_linker_0, # of connection points: 2
#     Edge 133, Type (0, 1), BuildingBlock: AJUNOK_clean_linker_0, # of connection points: 2
#     Edge 134, Type (0, 1), BuildingBlock: AJUNOK_clean_linker_0, # of connection points: 2
#     Edge 135, Type (0, 1), BuildingBlock: AJUNOK_clean_linker_0, # of connection points: 2
# Relax obj value: 0.165
# Max RMSD: 0.290
# Mean RMSD: 0.182
data_MOF--net-gar--node1-QUQFOY_clean_sbu_1--node2-BETDEL_clean_sbu_0--edge1-AJUNOK_clean_linker_0
_symmetry_space_group_name_H-M    P1
_symmetry_Int_Tables_number       1
_symmetry_cell_setting            triclinic
loop_
_symmetry_equiv_pos_as_xyz
'x, y, z'
_cell_length_a     42.702807
_cell_length_b     40.068876
_cell_length_c     41.571822
_cell_angle_alpha  95.640113
_cell_angle_beta   92.144205
_cell_angle_gamma 103.20245
loop_
_atom_site_label
_atom_site_type_symbol
_atom_site_fract_x
_atom_site_fract_y
_atom_site_fract_z
_atom_type_partial_charge
O0 O 0.04827 0.21824 0.40689 0.0
Cd1 Cd 0.05118 0.25903 0.37878 0.0
Cd2 Cd 0.03201 0.28689 0.43829 0.0
O3 O 0.0412 0.24318 0.45485 0.0
O4 O 0.07088 0.24398 0.33862 0.0
O5 O 0.09464 0.28945 0.3724 0.0
C6 C 0.0953 0.26956 0.34614 0.0
C7 C 0.04576 0.3389 0.47147 0.0
C8 C 0.04559 0.21715 0.43721 0.0
C9 C 0.98773 0.27997 0.37891 0.0
O10 O 0.99094 0.28338 0.40959 0.0
O11 O 0.00994 0.2725 0.3621 0.0
O12 O 0.02324 0.31369 0.47819 0.0
O13 O 0.06186 0.33407 0.44642 0.0
O14 O 0.9755 0.69594 0.6064 0.0
Cd15 Cd 0.98681 0.73532 0.64421 0.0
Cd16 Cd 0.0178 0.77142 0.59815 0.0
O17 O 0.99964 0.72638 0.56922 0.0
O18 O 0.9565 0.72176 0.67886 0.0
O19 O 0.95885 0.76909 0.65526 0.0
C20 C 0.94604 0.74919 0.67627 0.0
C21 C 0.01511 0.82263 0.57681 0.0
C22 C 0.98414 0.6979 0.57752 0.0
C23 C 0.05903 0.7559 0.65248 0.0
O24 O 0.05795 0.77048 0.62677 0.0
O25 O 0.03306 0.74149 0.66454 0.0
O26 O 0.03421 0.80411 0.566 0.0
O27 O 0.99746 0.81212 0.60005 0.0
O28 O 0.61284 0.78428 0.89826 0.0
Cd29 Cd 0.58083 0.78276 0.93524 0.0
Cd30 Cd 0.54352 0.79857 0.88336 0.0
O31 O 0.57882 0.78399 0.85671 0.0
O32 O 0.59262 0.75447 0.96894 0.0
O33 O 0.5471 0.73916 0.93845 0.0
C34 C 0.56548 0.7326 0.96129 0.0
C35 C 0.49238 0.79422 0.85881 0.0
C36 C 0.6065 0.78245 0.86782 0.0
C37 C 0.5634 0.85034 0.9436 0.0
O38 O 0.55412 0.84344 0.91391 0.0
O39 O 0.5741 0.82859 0.95842 0.0
O40 O 0.51762 0.8147 0.85009 0.0
O41 O 0.4965 0.77358 0.87974 0.0
O42 O 0.48548 0.20251 0.10901 0.0
Cd43 Cd 0.49454 0.24157 0.14736 0.0
Cd44 Cd 0.52522 0.27948 0.10041 0.0
O45 O 0.50969 0.23336 0.07195 0.0
O46 O 0.46366 0.2266 0.18135 0.0
O47 O 0.46493 0.27377 0.15782 0.0
C48 C 0.45229 0.25343 0.17857 0.0
C49 C 0.52316 0.32917 0.07549 0.0
C50 C 0.49461 0.20468 0.0803 0.0
C51 C 0.56628 0.26683 0.15733 0.0
O52 O 0.56456 0.28128 0.13163 0.0
O53 O 0.54072 0.25039 0.16871 0.0
O54 O 0.54457 0.31196 0.06901 0.0
O55 O 0.50277 0.31846 0.09651 0.0
O56 O 0.03714 0.74221 0.13212 0.0
Cd57 Cd 0.0438 0.78424 0.1669 0.0
Cd58 Cd 0.08309 0.8141 0.12414 0.0
O59 O 0.07546 0.76439 0.10097 0.0
O60 O 0.01165 0.77022 0.19965 0.0
O61 O 0.0121 0.81477 0.1723 0.0
C62 C 0.99964 0.79596 0.19418 0.0
C63 C 0.06548 0.85608 0.09753 0.0
C64 C 0.05417 0.73881 0.10805 0.0
C65 C 0.1139 0.81328 0.18895 0.0
O66 O 0.11791 0.82657 0.16241 0.0
O67 O 0.08659 0.79501 0.19447 0.0
O68 O 0.09246 0.84803 0.09152 0.0
O69 O 0.04867 0.84055 0.11923 0.0
O70 O 0.55934 0.75573 0.36619 0.0
Cd71 Cd 0.52848 0.76 0.40278 0.0
Cd72 Cd 0.49699 0.78567 0.34908 0.0
O73 O 0.53755 0.77782 0.32669 0.0
O74 O 0.54947 0.74185 0.43865 0.0
O75 O 0.5006 0.71702 0.41757 0.0
C76 C 0.52401 0.71734 0.43827 0.0
C77 C 0.44768 0.77083 0.31892 0.0
C78 C 0.55956 0.76455 0.33764 0.0
C79 C 0.51369 0.83105 0.41327 0.0
O80 O 0.50128 0.82677 0.38446 0.0
O81 O 0.52568 0.80789 0.42422 0.0
O82 O 0.46947 0.79768 0.31436 0.0
O83 O 0.45393 0.75152 0.34024 0.0
O84 O 0.54015 0.23937 0.63533 0.0
Cd85 Cd 0.54563 0.28083 0.67056 0.0
Cd86 Cd 0.58482 0.31284 0.62877 0.0
O87 O 0.57657 0.26432 0.60366 0.0
O88 O 0.51265 0.2659 0.7022 0.0
O89 O 0.51339 0.3107 0.67506 0.0
C90 C 0.50043 0.2914 0.6964 0.0
C91 C 0.57086 0.35651 0.60149 0.0
C92 C 0.55659 0.23766 0.61054 0.0
C93 C 0.6155 0.30919 0.69358 0.0
O94 O 0.61976 0.32232 0.66693 0.0
O95 O 0.58782 0.29184 0.69913 0.0
O96 O 0.59733 0.34687 0.59677 0.0
O97 O 0.55256 0.34189 0.62266 0.0
O98 O 1.00405 0.19664 0.88557 0.0
Cd99 Cd 1.00172 0.22721 0.84863 0.0
Cd100 Cd 0.97613 0.26378 0.90094 0.0
O101 O 0.98276 0.22318 0.9253 0.0
O102 O 0.03 0.21252 0.81545 0.0
O103 O 0.04129 0.26405 0.84346 0.0
C104 C 0.04949 0.24236 0.82217 0.0
C105 C 0.99127 0.31915 0.92899 0.0
C106 C 0.99553 0.19898 0.91453 0.0
C107 C 0.93667 0.2423 0.83606 0.0
O108 O 0.93991 0.25686 0.86498 0.0
O109 O 0.95836 0.22821 0.82471 0.0
O110 O 0.96501 0.29771 0.93434 0.0
O111 O 0.00941 0.30894 0.90778 0.0
O112 O 0.42397 0.06065 0.22787 0.0
Cd113 Cd 0.39545 0.06057 0.26704 0.0
Cd114 Cd 0.45136 0.04581 0.28992 0.0
O115 O 0.47191 0.0701 0.25289 0.0
O116 O 0.35463 0.06195 0.24342 0.0
O117 O 0.3786 0.10141 0.28309 0.0
C118 C 0.35468 0.08948 0.26203 0.0
C119 C 0.481 0.05321 0.33868 0.0
C120 C 0.45448 0.06798 0.2272 0.0
C121 C 0.39238 0.99178 0.28454 0.0
O122 O 0.42188 0.99722 0.27868 0.0
O123 O 0.3788 0.01664 0.28806 0.0
O124 O 0.48798 0.03531 0.31371 0.0
O125 O 0.45752 0.0683 0.33567 0.0
O126 O 0.2855 0.17105 0.55488 0.0
Cd127 Cd 0.28144 0.13419 0.51553 0.0
Cd128 Cd 0.25542 0.18657 0.48646 0.0
O129 O 0.26359 0.21031 0.53474 0.0
O130 O 0.30332 0.09922 0.53225 0.0
O131 O 0.3202 0.12694 0.49083 0.0
C132 C 0.32371 0.10462 0.51024 0.0
C133 C 0.27021 0.21592 0.43979 0.0
C134 C 0.27595 0.19898 0.55872 0.0
C135 C 0.21142 0.11534 0.48979 0.0
O136 O 0.21543 0.14511 0.48004 0.0
O137 O 0.23469 0.10612 0.50359 0.0
O138 O 0.24572 0.21984 0.45575 0.0
O139 O 0.28732 0.19633 0.4509 0.0
O140 O 0.15118 0.00649 0.72945 0.0
Cd141 Cd 0.18562 0.00741 0.76625 0.0
Cd142 Cd 0.1406 0.03557 0.80191 0.0
O143 O 0.11639 0.02911 0.75698 0.0
O144 O 0.21435 0.97939 0.74502 0.0
O145 O 0.19028 0.9661 0.78952 0.0
C146 C 0.20874 0.95895 0.76724 0.0
C147 C 0.10987 0.02366 0.84751 0.0
C148 C 0.12563 0.01783 0.73017 0.0
C149 C 0.20637 0.08205 0.79411 0.0
O150 O 0.17916 0.07815 0.80656 0.0
O151 O 0.21429 0.05651 0.77857 0.0
O152 O 0.11018 0.05053 0.83281 0.0
O153 O 0.12706 1.00299 0.83641 0.0
O154 O 0.25278 0.90753 0.05997 0.0
Cd155 Cd 0.26294 0.94705 0.03125 0.0
Cd156 Cd 0.271 0.89213 0.98504 0.0
O157 O 0.26299 0.86654 0.02535 0.0
O158 O 0.24789 0.98599 0.05391 0.0
O159 O 0.22863 0.96064 1.00517 0.0
C160 C 0.22861 0.98412 0.02886 0.0
C161 C 0.25714 0.85625 0.93647 0.0
C162 C 0.2555 0.87673 0.05322 0.0
C163 C 0.32588 0.95551 1.00133 0.0
O164 O 0.31359 0.92768 0.98355 0.0
O165 O 0.31009 0.96707 0.02326 0.0
O166 O 0.28125 0.85493 0.95527 0.0
O167 O 0.24019 0.878 0.94537 0.0
O168 O 0.26486 0.3863 0.0915 0.0
Cd169 Cd 0.27326 0.42434 0.05987 0.0
Cd170 Cd 0.29482 0.36983 0.02189 0.0
O171 O 0.28079 0.34426 0.06287 0.0
O172 O 0.2484 0.45933 0.07484 0.0
O173 O 0.23879 0.42885 0.02689 0.0
C174 C 0.23204 0.45229 0.04731 0.0
C175 C 0.28667 0.3428 0.9678 0.0
C176 C 0.26961 0.35588 0.08867 0.0
C177 C 0.34202 0.44019 0.04098 0.0
O178 O 0.33591 0.40947 0.02717 0.0
O179 O 0.32047 0.45148 0.056 0.0
O180 O 0.30745 0.33642 0.98818 0.0
O181 O 0.2685 0.36255 0.97873 0.0
O182 O 0.81761 0.16419 0.09325 0.0
Cd183 Cd 0.80035 0.12438 0.05736 0.0
Cd184 Cd 0.79085 0.1751 0.0214 0.0
O185 O 0.80498 0.20337 0.06505 0.0
O186 O 0.81868 0.08433 0.06461 0.0
O187 O 0.82709 0.11281 0.02145 0.0
C188 C 0.83141 0.08767 0.03707 0.0
C189 C 0.8032 0.20831 0.97876 0.0
C190 C 0.81562 0.19508 0.09117 0.0
C191 C 0.73398 0.11725 0.03101 0.0
O192 O 0.74587 0.1426 0.01573 0.0
O193 O 0.75145 0.10658 0.0511 0.0
O194 O 0.78194 0.21316 0.99856 0.0
O195 O 0.81764 0.1839 0.98284 0.0
O196 O 0.13405 0.48898 0.17739 0.0
Cd197 Cd 0.16615 0.50248 0.2176 0.0
Cd198 Cd 0.11382 0.51547 0.24609 0.0
O199 O 0.09064 0.49408 0.20269 0.0
O200 O 0.20494 0.48554 0.20649 0.0
O201 O 0.17676 0.47113 0.24877 0.0
C202 C 0.2017 0.47008 0.23235 0.0
C203 C 0.08772 0.49926 0.29204 0.0
C204 C 0.10387 0.48684 0.17702 0.0
C205 C 0.16914 0.57548 0.24118 0.0
O206 O 0.14009 0.56593 0.24846 0.0
O207 O 0.18436 0.55384 0.22971 0.0
O208 O 0.0774 0.51871 0.27335 0.0
O209 O 0.11322 0.48876 0.28455 0.0
O210 O 0.77105 0.88829 0.59765 0.0
Cd211 Cd 0.77654 0.92629 0.56571 0.0
Cd212 Cd 0.79638 0.87268 0.52507 0.0
O213 O 0.7831 0.84608 0.56569 0.0
O214 O 0.75044 0.96032 0.58046 0.0
O215 O 0.74063 0.92818 0.53334 0.0
C216 C 0.73356 0.95185 0.55326 0.0
C217 C 0.78796 0.84667 0.47067 0.0
C218 C 0.77458 0.85741 0.59306 0.0
C219 C 0.84393 0.94305 0.54299 0.0
O220 O 0.83762 0.91212 0.52966 0.0
O221 O 0.82276 0.95429 0.55871 0.0
O222 O 0.80872 0.83977 0.49073 0.0
O223 O 0.76978 0.86613 0.48216 0.0
O224 O 0.90438 0.05193 0.17224 0.0
Cd225 Cd 0.86815 0.04464 0.20609 0.0
Cd226 Cd 0.915 0.01385 0.23458 0.0
O227 O 0.94292 0.03662 0.20011 0.0
O228 O 0.83652 0.07341 0.19634 0.0
O229 O 0.86715 0.08278 0.24164 0.0
C230 C 0.84496 0.09106 0.22423 0.0
C231 C 0.93619 0.01082 0.28677 0.0
C232 C 0.93333 0.04838 0.17517 0.0
C233 C 0.85097 0.96817 0.21373 0.0
O234 O 0.88074 0.97023 0.21913 0.0
O235 O 0.8405 0.99511 0.21093 0.0
O236 O 0.94438 0.9942 0.26162 0.0
O237 O 0.91749 0.03132 0.28208 0.0
O238 O 0.31368 0.66603 0.59137 0.0
Cd239 Cd 0.30168 0.62802 0.55286 0.0
Cd240 Cd 0.28888 0.68253 0.52216 0.0
O241 O 0.30389 0.70909 0.56652 0.0
O242 O 0.31937 0.58878 0.56484 0.0
O243 O 0.33307 0.61545 0.52163 0.0
C244 C 0.33558 0.59127 0.5393 0.0
C245 C 0.29773 0.71615 0.47946 0.0
C246 C 0.31229 0.69746 0.59186 0.0
C247 C 0.23417 0.62086 0.52827 0.0
O248 O 0.24405 0.64964 0.5174 0.0
O249 O 0.25338 0.60746 0.54378 0.0
O250 O 0.27783 0.72057 0.50093 0.0
O251 O 0.31347 0.69259 0.48249 0.0
O252 O 0.40354 0.55204 0.67415 0.0
Cd253 Cd 0.36705 0.54308 0.70692 0.0
Cd254 Cd 0.41676 0.52377 0.7427 0.0
O255 O 0.44328 0.54277 0.70529 0.0
O256 O 0.33366 0.56998 0.69827 0.0
O257 O 0.36466 0.57949 0.74345 0.0
C258 C 0.3417 0.58703 0.72651 0.0
C259 C 0.44098 0.52887 0.79491 0.0
C260 C 0.43307 0.55143 0.67899 0.0
C261 C 0.35533 0.46943 0.72176 0.0
O262 O 0.38412 0.47726 0.7338 0.0
O263 O 0.34307 0.49222 0.71031 0.0
O264 O 0.44908 0.5101 0.77122 0.0
O265 O 0.42053 0.54695 0.78849 0.0
O266 O 0.63624 0.98302 0.6665 0.0
Cd267 Cd 0.67062 0.99903 0.7044 0.0
Cd268 Cd 0.62114 0.01006 0.73903 0.0
O269 O 0.59614 0.99104 0.69582 0.0
O270 O 0.70893 0.98039 0.69603 0.0
O271 O 0.67976 0.97057 0.73864 0.0
C272 C 0.705 0.96762 0.72332 0.0
C273 C 0.59216 0.99749 0.78424 0.0
C274 C 0.60652 0.98228 0.66891 0.0
C275 C 0.67561 0.07105 0.73146 0.0
O276 O 0.64896 0.0599 0.74369 0.0
O277 O 0.68852 0.05075 0.71415 0.0
O278 O 0.58481 0.01757 0.76447 0.0
O279 O 0.61615 0.98375 0.77812 0.0
O280 O 0.78682 0.67218 0.0601 0.0
Cd281 Cd 0.78304 0.63536 0.02071 0.0
Cd282 Cd 0.76012 0.68781 0.99074 0.0
O283 O 0.76746 0.71231 0.03839 0.0
O284 O 0.80372 0.60013 0.03816 0.0
O285 O 0.82171 0.62737 0.99672 0.0
C286 C 0.82438 0.60498 0.01635 0.0
C287 C 0.77427 0.71642 0.94387 0.0
C288 C 0.77813 0.70062 0.06303 0.0
C289 C 0.7141 0.6176 0.99337 0.0
O290 O 0.71928 0.64773 0.98439 0.0
O291 O 0.73667 0.60745 0.00736 0.0
O292 O 0.75012 0.72069 0.96016 0.0
O293 O 0.79178 0.69723 0.95492 0.0
O294 O 0.93388 0.58204 0.7266 0.0
Cd295 Cd 0.89348 0.56104 0.74907 0.0
Cd296 Cd 0.93569 0.55359 0.79844 0.0
O297 O 0.96501 0.56326 0.76049 0.0
O298 O 0.85622 0.57447 0.72905 0.0
O299 O 0.87266 0.58792 0.78094 0.0
C300 C 0.85193 0.58811 0.75749 0.0
C301 C 0.96457 0.56229 0.84828 0.0
C302 C 0.96105 0.57649 0.73456 0.0
C303 C 0.88153 0.49362 0.77179 0.0
O304 O 0.89946 0.50933 0.79618 0.0
O305 O 0.87934 0.50877 0.74679 0.0
O306 O 0.96547 0.53715 0.82702 0.0
O307 O 0.94768 0.58377 0.84132 0.0
O308 O 0.75021 0.3954 0.56296 0.0
Cd309 Cd 0.76285 0.43694 0.53691 0.0
Cd310 Cd 0.77237 0.38702 0.48843 0.0
O311 O 0.76473 0.35886 0.52658 0.0
O312 O 0.74687 0.47521 0.55966 0.0
O313 O 0.73109 0.45288 0.50921 0.0
C314 C 0.72977 0.47528 0.53344 0.0
C315 C 0.76143 0.35216 0.43933 0.0
C316 C 0.7553 0.3659 0.55437 0.0
C317 C 0.82815 0.44678 0.51114 0.0
O318 O 0.81585 0.42202 0.4897 0.0
O319 O 0.81128 0.45602 0.5333 0.0
O320 O 0.78494 0.35133 0.45902 0.0
O321 O 0.74316 0.37274 0.44736 0.0
O322 O 0.6554 0.50912 0.23525 0.0
Cd323 Cd 0.69225 0.51219 0.27009 0.0
Cd324 Cd 0.64706 0.54157 0.30824 0.0
O325 O 0.62173 0.53273 0.2637 0.0
O326 O 0.72193 0.48722 0.24621 0.0
O327 O 0.70174 0.47198 0.29197 0.0
C328 C 0.71975 0.46692 0.26858 0.0
C329 C 0.61736 0.5326 0.35506 0.0
C330 C 0.62972 0.52017 0.23677 0.0
C331 C 0.71236 0.58746 0.29777 0.0
O332 O 0.6856 0.58412 0.31105 0.0
O333 O 0.71958 0.56181 0.28175 0.0
O334 O 0.61706 0.55815 0.33867 0.0
O335 O 0.63436 0.51137 0.34482 0.0
Dy336 Dy 0.98982 0.01501 1.00483 0.0
C337 C 0.12601 0.05494 0.02445 0.0
C338 C 0.92497 0.00967 1.00359 0.0
Dy339 Dy 0.06132 0.04934 0.02526 0.0
O340 O 0.94216 0.01173 0.9784 0.0
O341 O 0.94304 0.00786 0.02886 0.0
O342 O 1.0051 0.98459 0.96167 0.0
O343 O 0.03261 0.03346 0.98007 0.0
C344 C 0.03191 0.00773 0.95989 0.0
C345 C 0.01902 0.05968 0.06878 0.0
O346 O 0.05036 0.09235 1.00059 0.0
O347 O 0.99476 0.0719 0.99952 0.0
O348 O 0.11106 0.06217 0.05005 0.0
O349 O 0.10567 0.04667 0.99942 0.0
O350 O 0.04683 0.08127 0.06742 0.0
O351 O 0.01798 0.03254 0.05023 0.0
O352 O 1.00127 0.97039 0.0274 0.0
O353 O 0.05669 0.99343 0.03248 0.0
C354 C 0.02072 0.09608 0.99465 0.0
C355 C 0.03112 0.96789 0.03472 0.0
Dy356 Dy 0.27518 0.78524 0.22361 0.0
C357 C 0.288 0.7734 0.35909 0.0
C358 C 0.26051 0.80288 0.16455 0.0
Dy359 Dy 0.27385 0.78755 0.29866 0.0
O360 O 0.27939 0.78228 0.16962 0.0
O361 O 0.24995 0.81345 0.19161 0.0
O362 O 0.31532 0.75664 0.22381 0.0
O363 O 0.31006 0.79076 0.26356 0.0
C364 C 0.32512 0.76863 0.25374 0.0
C365 C 0.22547 0.80639 0.26859 0.0
O366 O 0.30516 0.8395 0.29635 0.0
O367 O 0.29837 0.84109 0.24056 0.0
O368 O 0.26832 0.79254 0.35224 0.0
O369 O 0.29945 0.76184 0.33295 0.0
O370 O 0.23492 0.8175 0.29868 0.0
O371 O 0.23894 0.78289 0.25875 0.0
O372 O 0.24268 0.73371 0.22678 0.0
O373 O 0.25311 0.7314 0.28194 0.0
C374 C 0.30888 0.85601 0.27022 0.0
C375 C 0.24059 0.71687 0.25281 0.0
Dy376 Dy 0.57034 0.03536 0.51534 0.0
C377 C 0.43517 0.04248 0.50715 0.0
C378 C 0.62864 0.0188 0.52579 0.0
Dy379 Dy 0.49437 0.02762 0.51603 0.0
O380 O 0.61495 0.02 0.49758 0.0
O381 O 0.61118 0.02844 0.54824 0.0
O382 O 0.57262 0.06699 0.47358 0.0
O383 O 0.53043 0.0299 0.48023 0.0
C384 C 0.54225 0.05457 0.4645 0.0
C385 C 0.52425 0.01049 0.56741 0.0
O386 O 0.49509 0.97847 0.48609 0.0
O387 O 0.54737 0.97838 0.50415 0.0
O388 O 0.44213 0.02179 0.52718 0.0
O389 O 0.46033 0.05396 0.49123 0.0
O390 O 0.49437 0.9955 0.55837 0.0
O391 O 0.53437 0.03421 0.55038 0.0
O392 O 0.57132 0.08852 0.53845 0.0
O393 O 0.51547 0.0837 0.53327 0.0
C394 C 0.51904 0.96265 0.48907 0.0
C395 C 0.54548 0.10169 0.54135 0.0
Dy396 Dy 0.2404 0.27666 0.75863 0.0
C397 C 0.38011 0.30075 0.75233 0.0
C398 C 0.17676 0.26807 0.77075 0.0
Dy399 Dy 0.31623 0.28124 0.76312 0.0
O400 O 0.18958 0.24395 0.75744 0.0
O401 O 0.1986 0.29668 0.77659 0.0
O402 O 0.24876 0.32051 0.72796 0.0
O403 O 0.28472 0.31719 0.76256 0.0
C404 C 0.27822 0.33339 0.73958 0.0
C405 C 0.28231 0.21772 0.77321 0.0
O406 O 0.31051 0.30414 0.81332 0.0
O407 O 0.25433 0.28645 0.81255 0.0
O408 O 0.36847 0.28509 0.77681 0.0
O409 O 0.35679 0.30699 0.73464 0.0
O410 O 0.31355 0.22584 0.77309 0.0
O411 O 0.2723 0.24366 0.76704 0.0
O412 O 0.24586 0.25065 0.70898 0.0
O413 O 0.30206 0.26739 0.71015 0.0
C414 C 0.28302 0.29952 0.82822 0.0
C415 C 0.27366 0.25328 0.69468 0.0
Dy416 Dy 0.01549 0.00618 0.4742 0.0
C417 C 0.07099 0.04409 0.60702 0.0
C418 C 0.97882 0.99342 0.41745 0.0
Dy419 Dy 0.03944 0.03766 0.54744 0.0
O420 O 1.00169 0.9781 0.42438 0.0
O421 O 0.97485 0.014 0.44238 0.0
O422 O 0.06476 0.01769 0.45313 0.0
O423 O 0.05985 0.02856 0.5018 0.0
C424 C 0.08022 0.03087 0.48062 0.0
C425 C 0.97519 0.02272 0.53284 0.0
O426 O 0.05013 0.08596 0.52275 0.0
O427 O 0.01467 0.06215 0.47794 0.0
O428 O 0.04335 0.05164 0.60165 0.0
O429 O 0.08208 0.03523 0.57963 0.0
O430 O 0.99005 0.0474 0.55471 0.0
O431 O 0.99537 0.00678 0.52173 0.0
O432 O 0.01221 0.95641 0.49588 0.0
O433 O 0.03471 0.98059 0.5477 0.0
C434 C 0.03458 0.08874 0.49516 0.0
C435 C 0.02258 0.95367 0.52591 0.0
Dy436 Dy 0.30624 0.78722 0.77827 0.0
C437 C 0.18125 0.73875 0.70709 0.0
C438 C 0.36377 0.80053 0.81324 0.0
Dy439 Dy 0.23388 0.7509 0.74904 0.0
O440 O 0.35765 0.81655 0.78886 0.0
O441 O 0.3379 0.77848 0.81943 0.0
O442 O 0.31972 0.79945 0.72784 0.0
O443 O 0.28303 0.75748 0.73417 0.0
C444 C 0.29744 0.77432 0.71307 0.0
C445 C 0.23669 0.77183 0.81304 0.0
O446 O 0.25429 0.70349 0.74984 0.0
O447 O 0.30414 0.73014 0.77737 0.0
O448 O 0.18335 0.72217 0.73232 0.0
O449 O 0.20873 0.75986 0.7038 0.0
O450 O 0.20971 0.75707 0.79673 0.0
O451 O 0.25867 0.7721 0.79407 0.0
O452 O 0.28211 0.83151 0.78478 0.0
O453 O 0.24137 0.80787 0.74456 0.0
C454 C 0.28275 0.70213 0.7637 0.0
C455 C 0.25804 0.83429 0.76474 0.0
Dy456 Dy 0.52886 0.03152 0.04579 0.0
C457 C 0.54288 0.00988 0.91004 0.0
C458 C 0.51279 0.04157 0.1078 0.0
Dy459 Dy 0.53025 0.02989 0.97142 0.0
O460 O 0.499 0.01573 0.08691 0.0
O461 O 0.53651 0.06149 0.09527 0.0
O462 O 0.55196 0.98607 0.04449 0.0
O463 O 0.52183 0.99155 1.00541 0.0
C464 C 0.54087 0.97435 0.01499 0.0
C465 C 0.51663 0.08679 1.00066 0.0
O466 O 0.4799 1.00191 0.97648 0.0
O467 O 0.4777 0.0277 0.02821 0.0
O468 O 0.52199 0.02796 0.91763 0.0
O469 O 0.55716 1.00335 0.93596 0.0
O470 O 0.50884 0.07637 0.97015 0.0
O471 O 0.53527 0.06977 0.01164 0.0
O472 O 0.5806 0.05706 0.04344 0.0
O473 O 0.58256 0.04786 0.98735 0.0
C474 C 0.46325 0.0104 1.00083 0.0
C475 C 0.59662 0.05831 0.01673 0.0
Dy476 Dy 0.28698 0.31636 0.26885 0.0
C477 C 0.26314 0.17251 0.25325 0.0
C478 C 0.28572 0.38343 0.26423 0.0
Dy479 Dy 0.26309 0.23981 0.24968 0.0
O480 O 0.28706 0.36992 0.29132 0.0
O481 O 0.28748 0.36079 0.24032 0.0
O482 O 0.31243 0.30681 0.31459 0.0
O483 O 0.26943 0.27271 0.29549 0.0
C484 C 0.29184 0.27772 0.31743 0.0
C485 C 0.25642 0.2788 0.20217 0.0
O486 O 0.2168 0.24717 0.2678 0.0
O487 O 0.23273 0.30693 0.273 0.0
O488 O 0.25998 0.18604 0.22644 0.0
O489 O 0.26376 0.19543 0.27766 0.0
O490 O 0.23685 0.24899 0.2044 0.0
O491 O 0.27969 0.28367 0.22309 0.0
O492 O 0.33358 0.30779 0.25055 0.0
O493 O 0.31696 0.24821 0.24698 0.0
C494 C 0.21058 0.27785 0.27453 0.0
C495 C 0.33952 0.2767 0.24502 0.0
Dy496 Dy 0.51869 0.51916 0.98437 0.0
C497 C 0.56993 0.54172 0.11444 0.0
C498 C 0.4877 0.51472 0.92495 0.0
Dy499 Dy 0.53883 0.53935 0.05516 0.0
O500 O 0.51295 0.50273 0.9307 0.0
O501 O 0.47868 0.52771 0.95188 0.0
O502 O 0.56845 0.51351 0.97362 0.0
O503 O 0.56271 0.55023 0.01052 0.0
C504 C 0.5831 0.53619 0.99702 0.0
C505 C 0.47428 0.52091 0.04166 0.0
O506 O 0.54715 0.59275 0.03983 0.0
O507 O 0.51613 0.57514 0.99175 0.0
O508 O 0.54333 0.55164 0.10967 0.0
O509 O 0.5801 0.53229 0.08678 0.0
O510 O 0.48812 0.54369 0.06541 0.0
O511 O 0.49535 0.50772 0.02867 0.0
O512 O 0.51142 0.46602 1.00007 0.0
O513 O 0.54451 0.48469 0.04674 0.0
C514 C 0.53236 0.60005 0.01363 0.0
C515 C 0.52842 0.45963 0.02511 0.0
Dy516 Dy 0.81898 0.29438 0.27334 0.0
C517 C 0.69107 0.25578 0.21193 0.0
C518 C 0.87324 0.30127 0.31237 0.0
Dy519 Dy 0.7484 0.2647 0.24698 0.0
O520 O 0.87209 0.31614 0.28599 0.0
O521 O 0.84477 0.28372 0.31764 0.0
O522 O 0.83451 0.30545 0.2238 0.0
O523 O 0.79577 0.26454 0.22922 0.0
C524 C 0.81157 0.28129 0.20871 0.0
C525 C 0.75748 0.27959 0.3118 0.0
O526 O 0.76553 0.21517 0.24235 0.0
O527 O 0.81142 0.23687 0.27641 0.0
O528 O 0.69482 0.24248 0.23873 0.0
O529 O 0.71893 0.27215 0.20354 0.0
O530 O 0.73371 0.25556 0.29795 0.0
O531 O 0.77219 0.2953 0.29034 0.0
O532 O 0.80151 0.34367 0.27625 0.0
O533 O 0.75682 0.3215 0.24048 0.0
C534 C 0.7909 0.21045 0.25945 0.0
C535 C 0.77699 0.34799 0.25764 0.0
Dy536 Dy 0.03372 0.53377 0.56095 0.0
C537 C 0.04007 0.49831 0.41914 0.0
C538 C 0.03006 0.55951 0.62306 0.0
Dy539 Dy 0.03024 0.52248 0.48038 0.0
O540 O 0.02573 0.52701 0.61283 0.0
O541 O 0.03627 0.57826 0.59923 0.0
O542 O 0.04514 0.48192 0.56721 0.0
O543 O 0.03997 0.4975 0.52191 0.0
C544 C 0.04548 0.47317 0.53625 0.0
C545 C 0.01351 0.58024 0.50531 0.0
O546 O 0.98319 0.4903 0.49307 0.0
O547 O 0.98132 0.51678 0.54572 0.0
O548 O 0.01352 0.50624 0.42805 0.0
O549 O 0.06082 0.50337 0.44375 0.0
O550 O 0.01404 0.57223 0.47418 0.0
O551 O 0.02355 0.55804 0.51916 0.0
O552 O 0.0838 0.55944 0.55096 0.0
O553 O 0.08184 0.54881 0.49394 0.0
C554 C 0.96726 0.49775 0.51876 0.0
C555 C 0.09719 0.56112 0.52261 0.0
Dy556 Dy 0.74174 0.77934 0.26167 0.0
C557 C 0.88189 0.80819 0.25406 0.0
C558 C 0.678 0.76743 0.27382 0.0
Dy559 Dy 0.81815 0.78749 0.26546 0.0
O560 O 0.69652 0.79737 0.27079 0.0
O561 O 0.69415 0.74363 0.26945 0.0
O562 O 0.74749 0.82068 0.22844 0.0
O563 O 0.78486 0.82158 0.26342 0.0
C564 C 0.77696 0.8351 0.23903 0.0
C565 C 0.78684 0.7235 0.27688 0.0
O566 O 0.81232 0.81064 0.31561 0.0
O567 O 0.75604 0.79383 0.31513 0.0
O568 O 0.87073 0.79241 0.27861 0.0
O569 O 0.85816 0.81407 0.23675 0.0
O570 O 0.81801 0.73315 0.27681 0.0
O571 O 0.77555 0.74855 0.2704 0.0
O572 O 0.7472 0.75188 0.21299 0.0
O573 O 0.8033 0.77046 0.21287 0.0
C574 C 0.78485 0.80677 0.33053 0.0
C575 C 0.77471 0.75537 0.19812 0.0
Dy576 Dy 0.78077 0.27965 0.72339 0.0
C577 C 0.79799 0.26909 0.86043 0.0
C578 C 0.76813 0.28998 0.66151 0.0
Dy579 Dy 0.77873 0.28276 0.80156 0.0
O580 O 0.79684 0.29181 0.67435 0.0
O581 O 0.74654 0.28205 0.68234 0.0
O582 O 0.81869 0.24816 0.72598 0.0
O583 O 0.81355 0.28336 0.76492 0.0
C584 C 0.82794 0.26034 0.75599 0.0
C585 C 0.72561 0.2955 0.77318 0.0
O586 O 0.80832 0.33528 0.79608 0.0
O587 O 0.7982 0.33604 0.7403 0.0
O588 O 0.78577 0.29533 0.85552 0.0
O589 O 0.79922 0.25052 0.83331 0.0
O590 O 0.72898 0.29478 0.80446 0.0
O591 O 0.75014 0.28878 0.76105 0.0
O592 O 0.74813 0.22909 0.72804 0.0
O593 O 0.75724 0.22715 0.78378 0.0
C594 C 0.80999 0.35146 0.76952 0.0
C595 C 0.74493 0.21311 0.75447 0.0
Dy596 Dy 0.78731 0.81903 0.77474 0.0
C597 C 0.76306 0.67367 0.76769 0.0
C598 C 0.78782 0.88672 0.77146 0.0
Dy599 Dy 0.76047 0.73805 0.75524 0.0
O600 O 0.78078 0.87028 0.79665 0.0
O601 O 0.79713 0.86663 0.74929 0.0
O602 O 0.8131 0.80822 0.81996 0.0
O603 O 0.77097 0.77402 0.79937 0.0
C604 C 0.79304 0.77838 0.82155 0.0
C605 C 0.7602 0.77375 0.70307 0.0
O606 O 0.71505 0.74873 0.77344 0.0
O607 O 0.73352 0.80902 0.7818 0.0
O608 O 0.74637 0.68039 0.74313 0.0
O609 O 0.77676 0.70203 0.78547 0.0
O610 O 0.75034 0.7402 0.70121 0.0
O611 O 0.76845 0.78441 0.73239 0.0
O612 O 0.83068 0.807 0.75147 0.0
O613 O 0.81344 0.74708 0.74801 0.0
C614 C 0.71077 0.78003 0.78254 0.0
C615 C 0.8356 0.77553 0.74486 0.0
Dy616 Dy 0.49719 0.51886 0.51338 0.0
C617 C 0.63302 0.55456 0.5326 0.0
C618 C 0.43229 0.51438 0.51234 0.0
Dy619 Dy 0.56892 0.55176 0.5354 0.0
O620 O 0.44972 0.51825 0.48738 0.0
O621 O 0.45014 0.5105 0.53694 0.0
O622 O 0.51272 0.49219 0.46814 0.0
O623 O 0.54023 0.53984 0.48986 0.0
C624 C 0.53951 0.51576 0.46777 0.0
C625 C 0.52658 0.55705 0.58027 0.0
O626 O 0.55848 0.5979 0.51629 0.0
O627 O 0.50285 0.57666 0.51294 0.0
O628 O 0.61885 0.5605 0.55911 0.0
O629 O 0.61239 0.54971 0.50794 0.0
O630 O 0.55401 0.57969 0.58009 0.0
O631 O 0.52556 0.53203 0.55901 0.0
O632 O 0.50838 0.47198 0.53224 0.0
O633 O 0.56375 0.49509 0.53847 0.0
C634 C 0.52885 0.60188 0.51077 0.0
C635 C 0.53828 0.46903 0.53877 0.0
Dy636 Dy 0.06812 0.53491 0.01454 0.0
C637 C 0.93294 0.53908 0.01239 0.0
C638 C 0.12743 0.52025 0.02309 0.0
Dy639 Dy 0.99245 0.52506 0.01954 0.0
O640 O 0.11404 0.52379 0.99537 0.0
O641 O 0.10908 0.52645 0.04602 0.0
O642 O 0.06616 0.56628 0.97269 0.0
O643 O 0.02627 0.52712 0.98189 0.0
C644 C 0.03582 0.55155 0.96516 0.0
C645 C 0.02534 0.50969 0.06967 0.0
O646 O 0.99177 0.47447 0.99209 0.0
O647 O 0.04648 0.47737 1.00266 0.0
O648 O 0.94176 0.52185 0.03469 0.0
O649 O 0.95628 0.54737 0.99339 0.0
O650 O 0.99513 0.49459 0.06235 0.0
O651 O 0.03435 0.53327 0.05204 0.0
O652 O 0.06857 0.5879 0.03873 0.0
O653 O 0.01276 0.58172 0.03368 0.0
C654 C 0.01687 0.4601 0.99172 0.0
C655 C 0.04237 0.60048 0.04201 0.0
C656 C 0.98001 0.15968 0.95763 0.0
C657 C 1.0028 0.17454 0.93648 0.0
C658 C 0.98634 0.1351 0.97732 0.0
C659 C 0.01608 0.1254 0.97727 0.0
H660 H 0.95675 0.16619 0.95813 0.0
H661 H 0.96762 0.12322 0.99228 0.0
S662 S 0.08475 0.15951 0.92803 0.0
N663 N 0.0566 0.1793 0.91765 0.0
N664 N 0.06916 0.13441 0.95538 0.0
C665 C 0.03958 0.14147 0.95725 0.0
C666 C 0.03275 0.16567 0.93664 0.0
C667 C 0.14162 0.78617 0.22926 0.0
C668 C 0.14171 0.81466 0.21185 0.0
C669 C 0.16856 0.78439 0.24862 0.0
C670 C 0.19623 0.81142 0.25204 0.0
H671 H 0.12107 0.76428 0.22683 0.0
H672 H 0.16804 0.76132 0.26039 0.0
S673 S 0.2084 0.8927 0.21384 0.0
N674 N 0.17174 0.8711 0.20037 0.0
N675 N 0.22212 0.86809 0.23793 0.0
C676 C 0.19641 0.84065 0.23598 0.0
C677 C 0.1692 0.84219 0.21556 0.0
C678 C 0.49438 0.88532 0.42544 0.0
C679 C 0.51417 0.86351 0.43421 0.0
C680 C 0.49503 0.91661 0.44414 0.0
C681 C 0.51578 0.9276 0.47214 0.0
H682 H 0.47839 0.87835 0.40378 0.0
H683 H 0.47995 0.93285 0.43588 0.0
S684 S 0.57154 0.87966 0.50658 0.0
N685 N 0.55435 0.8548 0.47368 0.0
N686 N 0.55568 0.91364 0.50854 0.0
C687 C 0.53519 0.90578 0.48162 0.0
C688 C 0.53433 0.87376 0.46276 0.0
C689 C 0.45084 0.31487 0.69881 0.0
C690 C 0.4719 0.29751 0.71322 0.0
C691 C 0.42189 0.31751 0.71265 0.0
C692 C 0.41317 0.30331 0.74161 0.0
H693 H 0.45603 0.32517 0.67595 0.0
H694 H 0.40567 0.32963 0.69989 0.0
S695 S 0.46211 0.25954 0.79124 0.0
N696 N 0.48352 0.26886 0.75969 0.0
N697 N 0.42941 0.27423 0.78581 0.0
C698 C 0.43499 0.28786 0.75731 0.0
C699 C 0.46425 0.28481 0.74306 0.0
C700 C 0.02547 0.86067 0.53216 0.0
C701 C 0.01428 0.85523 0.56317 0.0
C702 C 0.02685 0.89212 0.51939 0.0
C703 C 0.01777 0.91939 0.53755 0.0
H704 H 0.03353 0.84059 0.51772 0.0
H705 H 0.03619 0.89555 0.49576 0.0
S706 S 0.98497 0.91793 0.61895 0.0
N707 N 0.9923 0.87937 0.6108 0.0
N708 N 0.99553 0.93856 0.58714 0.0
C709 C 1.00575 0.91403 0.56814 0.0
C710 C 1.00381 0.88191 0.58087 0.0
C711 C 0.43228 0.77288 0.85544 0.0
C712 C 0.45976 0.79637 0.84697 0.0
C713 C 0.40119 0.77528 0.84551 0.0
C714 C 0.39643 0.80128 0.82674 0.0
H715 H 0.43473 0.7523 0.86972 0.0
H716 H 0.3808 0.7561 0.85196 0.0
S717 S 0.45999 0.87061 0.79971 0.0
N718 N 0.47988 0.84761 0.81979 0.0
N719 N 0.4215 0.85181 0.80115 0.0
C720 C 0.42354 0.82536 0.81865 0.0
C721 C 0.4552 0.82297 0.82871 0.0
C722 C 0.495 0.14227 0.07156 0.0
C723 C 0.4935 0.17291 0.0583 0.0
C724 C 0.50166 0.11424 0.05242 0.0
C725 C 0.50665 0.1155 0.01935 0.0
H726 H 0.49286 0.14055 0.09727 0.0
H727 H 0.50321 0.09152 0.06367 0.0
S728 S 0.50068 0.18752 0.97179 0.0
N729 N 0.49437 0.20144 0.00918 0.0
N730 N 0.50624 0.14822 0.97326 0.0
C731 C 0.50282 0.14482 1.00522 0.0
C732 C 0.49647 0.17367 0.02472 0.0
C733 C 0.12548 0.24893 0.30072 0.0
C734 C 0.12358 0.27463 0.32578 0.0
C735 C 0.15306 0.25113 0.28303 0.0
C736 C 0.17973 0.27937 0.28926 0.0
H737 H 0.10597 0.22619 0.2954 0.0
H738 H 0.15381 0.22999 0.26492 0.0
S739 S 0.18631 0.35474 0.35083 0.0
N740 N 0.15029 0.33014 0.35478 0.0
N741 N 0.20197 0.33447 0.32133 0.0
C742 C 0.17761 0.30611 0.31316 0.0
C743 C 0.14961 0.30366 0.33148 0.0
C744 C 0.98505 0.044 0.15011 0.0
C745 C 0.9558 0.05482 0.14845 0.0
C746 C 1.00573 0.04661 0.12457 0.0
C747 C 0.99829 0.06043 0.09637 0.0
H748 H 0.9918 0.03245 0.17101 0.0
H749 H 0.02741 0.03703 0.12663 0.0
S750 S 0.92667 0.09502 0.07991 0.0
N751 N 0.92163 0.08163 0.11613 0.0
N752 N 0.96089 0.08658 0.0683 0.0
C753 C 0.96987 0.07229 0.09442 0.0
C754 C 0.94856 0.06953 0.12041 0.0
C755 C 0.31445 0.72399 0.42343 0.0
C756 C 0.29975 0.73526 0.45078 0.0
C757 C 0.31173 0.73773 0.39411 0.0
C758 C 0.29418 0.76313 0.3912 0.0
H759 H 0.32685 0.70328 0.42416 0.0
H760 H 0.32232 0.72731 0.37327 0.0
S761 S 0.25562 0.80536 0.45684 0.0
N762 N 0.27041 0.77641 0.47412 0.0
N763 N 0.26512 0.80188 0.41873 0.0
C764 C 0.28128 0.77633 0.41881 0.0
C765 C 0.28413 0.76247 0.44873 0.0
C766 C 0.55979 0.96154 0.62776 0.0
C767 C 0.58751 0.98639 0.64026 0.0
C768 C 0.53876 0.96921 0.60412 0.0
C769 C 0.54459 1.00221 0.59343 0.0
H770 H 0.55421 0.93642 0.63656 0.0
H771 H 0.51798 0.9494 0.59425 0.0
S772 S 0.61152 0.0773 0.62295 0.0
N773 N 0.61858 0.04537 0.64209 0.0
N774 N 0.57823 0.06067 0.59994 0.0
C775 C 0.5716 0.02744 0.60701 0.0
C776 C 0.59334 0.01927 0.62985 0.0
C777 C 0.25817 0.32875 0.91203 0.0
C778 C 0.28548 0.32998 0.9326 0.0
C779 C 0.25737 0.31837 0.87853 0.0
C780 C 0.28415 0.30956 0.86398 0.0
H781 H 0.23717 0.33588 0.92185 0.0
H782 H 0.23577 0.31794 0.86383 0.0
S783 S 0.36165 0.30841 0.90698 0.0
N784 N 0.33994 0.32102 0.93576 0.0
N785 N 0.33863 0.30229 0.87314 0.0
C786 C 0.31157 0.31062 0.8843 0.0
C787 C 0.31218 0.32058 0.91844 0.0
C788 C 0.9382 0.02419 0.34717 0.0
C789 C 0.94663 0.00512 0.31993 0.0
C790 C 0.94744 0.01902 0.3787 0.0
C791 C 0.96545 0.99456 0.3843 0.0
H792 H 0.92463 0.04357 0.34418 0.0
H793 H 0.94113 0.03503 0.3988 0.0
S794 S 0.99202 0.9363 0.32167 0.0
N795 N 0.97288 0.95947 0.30094 0.0
N796 N 0.99019 0.95002 0.36016 0.0
C797 C 0.97332 0.97466 0.35743 0.0
C798 C 0.96397 0.97991 0.32529 0.0
C799 C 0.29928 0.70147 0.64907 0.0
C800 C 0.3129 0.71828 0.62317 0.0
C801 C 0.29351 0.72014 0.67733 0.0
C802 C 0.30204 0.75642 0.68149 0.0
H803 H 0.29155 0.6736 0.64704 0.0
H804 H 0.28234 0.7057 0.69609 0.0
S805 S 0.33981 0.81289 0.6214 0.0
N806 N 0.33513 0.77335 0.60316 0.0
N807 N 0.32583 0.80861 0.65769 0.0
C808 C 0.31659 0.77371 0.6562 0.0
C809 C 0.32166 0.7546 0.62673 0.0
C810 C 0.59126 0.98467 0.84166 0.0
C811 C 0.57568 0.99379 0.81464 0.0
C812 C 0.5794 0.98822 0.87242 0.0
C813 C 0.55167 1.00101 0.87704 0.0
H814 H 0.61376 0.97672 0.83945 0.0
H815 H 0.59299 0.98258 0.8929 0.0
S816 S 0.49855 0.02175 0.81318 0.0
N817 N 0.52844 0.0111 0.7937 0.0
N818 N 0.50637 0.01796 0.85166 0.0
C819 C 0.53439 0.00739 0.84989 0.0
C820 C 0.54636 0.00371 0.81858 0.0
C821 C 0.28098 0.30887 0.12054 0.0
C822 C 0.26403 0.33478 0.11675 0.0
C823 C 0.27821 0.29068 0.14808 0.0
C824 C 0.25794 0.29716 0.17268 0.0
H825 H 0.29728 0.30322 0.10254 0.0
H826 H 0.29226 0.27157 0.15028 0.0
S827 S 0.20693 0.36056 0.1743 0.0
N828 N 0.22538 0.36496 0.1402 0.0
N829 N 0.21991 0.33023 0.19126 0.0
C830 C 0.2403 0.32223 0.16901 0.0
C831 C 0.2434 0.34114 0.14126 0.0
C832 C 0.1895 0.00866 0.99824 0.0
C833 C 0.20635 0.00744 0.02763 0.0
C834 C 0.16547 0.02713 0.99697 0.0
C835 C 0.15707 0.04473 0.02512 0.0
H836 H 0.19405 0.99425 0.97617 0.0
H837 H 0.15203 0.02574 0.97405 0.0
S838 S 0.19695 0.05383 0.10729 0.0
N839 N 0.21554 0.02888 0.08495 0.0
N840 N 0.16982 0.06311 0.08249 0.0
C841 C 0.17528 0.04592 0.0542 0.0
C842 C 0.20003 0.02732 0.05549 0.0
C843 C 0.67437 0.56316 1.00318 0.0
C844 C 0.68068 0.59551 0.99083 0.0
C845 C 0.64271 0.54362 1.00463 0.0
C846 C 0.61629 0.55586 0.99405 0.0
H847 H 0.69396 0.55312 0.01253 0.0
H848 H 0.63885 0.51922 0.01478 0.0
S849 S 0.61894 0.63677 0.95696 0.0
N850 N 0.65711 0.63737 0.96573 0.0
N851 N 0.59795 0.60062 0.96882 0.0
C852 C 0.62204 0.58735 0.98068 0.0
C853 C 0.65415 0.60716 0.97894 0.0
C854 C 0.742 0.42249 0.23613 0.0
C855 C 0.73675 0.43828 0.26663 0.0
C856 C 0.75632 0.39411 0.23334 0.0
C857 C 0.76708 0.38125 0.26092 0.0
H858 H 0.73389 0.4313 0.21416 0.0
H859 H 0.75846 0.38173 0.20942 0.0
S860 S 0.76031 0.41406 0.34637 0.0
N861 N 0.74403 0.43915 0.32501 0.0
N862 N 0.77201 0.38676 0.31971 0.0
C863 C 0.76306 0.39753 0.29154 0.0
C864 C 0.74761 0.42578 0.29441 0.0
C865 C 0.88269 0.4471 0.49121 0.0
C866 C 0.86321 0.46224 0.51197 0.0
C867 C 0.91626 0.45872 0.49352 0.0
C868 C 0.93173 0.48591 0.51676 0.0
H869 H 0.87206 0.42546 0.47338 0.0
H870 H 0.93015 0.44588 0.47731 0.0
S871 S 0.8917 0.5368 0.57479 0.0
N872 N 0.86184 0.50753 0.55507 0.0
N873 N 0.92487 0.52951 0.55941 0.0
C874 C 0.91253 0.50207 0.53702 0.0
C875 C 0.87831 0.49027 0.53461 0.0
C876 C 0.31923 0.12413 0.2875 0.0
C877 C 0.3277 0.10633 0.25969 0.0
C878 C 0.29511 0.14232 0.28569 0.0
C879 C 0.2793 0.14414 0.2558 0.0
H880 H 0.33183 0.12467 0.31074 0.0
H881 H 0.29057 0.15708 0.30756 0.0
S882 S 0.29022 0.09864 0.17651 0.0
N883 N 0.31624 0.08841 0.20197 0.0
N884 N 0.27148 0.12382 0.19838 0.0
C885 C 0.28602 0.12455 0.22817 0.0
C886 C 0.31023 0.10543 0.23013 0.0
C887 C 0.37544 0.0962 0.48698 0.0
C888 C 0.35067 0.08648 0.50806 0.0
C889 C 0.40209 0.081 0.48606 0.0
C890 C 0.40509 0.05536 0.50608 0.0
H891 H 0.37467 0.11628 0.47153 0.0
H892 H 0.42088 0.09006 0.47004 0.0
S893 S 0.34599 0.01874 0.56396 0.0
N894 N 0.33029 0.04801 0.54829 0.0
N895 N 0.38018 0.01969 0.54643 0.0
C896 C 0.38006 0.04457 0.52647 0.0
C897 C 0.35295 0.06006 0.5275 0.0
C898 C 0.71955 0.65159 0.30006 0.0
C899 C 0.7331 0.62254 0.29656 0.0
C900 C 0.73705 0.68426 0.29382 0.0
C901 C 0.76877 0.68918 0.28411 0.0
H902 H 0.69483 0.64893 0.3065 0.0
H903 H 0.72567 0.70577 0.29664 0.0
S904 S 0.81645 0.62252 0.27423 0.0
N905 N 0.78102 0.60157 0.28474 0.0
N906 N 0.81383 0.66289 0.2733 0.0
C907 C 0.78309 0.66078 0.28191 0.0
C908 C 0.76527 0.6275 0.28802 0.0
C909 C 0.84143 0.44147 0.74631 0.0
C910 C 0.863 0.45773 0.77262 0.0
C911 C 0.82401 0.40739 0.74594 0.0
C912 C 0.82737 0.3881 0.77181 0.0
H913 H 0.83801 0.45504 0.72569 0.0
H914 H 0.80786 0.39609 0.72495 0.0
S915 S 0.88056 0.41867 0.84673 0.0
N916 N 0.88655 0.45203 0.82552 0.0
N917 N 0.85382 0.38784 0.82471 0.0
C918 C 0.84852 0.40412 0.79855 0.0
C919 C 0.86633 0.43893 0.79893 0.0
C920 C 0.07593 0.90229 0.06025 0.0
C921 C 0.0547 0.88273 0.08017 0.0
C922 C 0.06745 0.92875 0.04473 0.0
C923 C 0.03719 0.93668 0.04805 0.0
H924 H 0.09974 0.89774 0.0571 0.0
H925 H 0.0851 0.94352 0.03037 0.0
S926 S 0.97198 0.89232 0.09618 0.0
N927 N 1.00137 0.87244 0.10144 0.0
N928 N 0.98542 0.92209 0.07201 0.0
C929 C 0.0152 0.91664 0.06697 0.0
C930 C 0.02397 0.88978 0.08313 0.0
C931 C 0.89059 0.26894 0.82496 0.0
C932 C 0.90826 0.24445 0.81518 0.0
C933 C 0.86484 0.27355 0.80554 0.0
C934 C 0.85497 0.25342 0.77568 0.0
H935 H 0.89709 0.28548 0.84757 0.0
H936 H 0.85279 0.29348 0.81403 0.0
S937 S 0.8921 0.18478 0.73906 0.0
N938 N 0.91366 0.19929 0.77352 0.0
N939 N 0.86442 0.20752 0.73731 0.0
C940 C 0.87194 0.22842 0.76562 0.0
C941 C 0.8987 0.224 0.7853 0.0
C942 C 0.52946 0.17531 0.59724 0.0
C943 C 0.55366 0.20383 0.59098 0.0
C944 C 0.52707 0.14257 0.58081 0.0
C945 C 0.54905 0.1368 0.55776 0.0
H946 H 0.51221 0.17811 0.61519 0.0
H947 H 0.50814 0.12141 0.58666 0.0
S948 S 0.61587 0.20246 0.53088 0.0
N949 N 0.59938 0.22409 0.55873 0.0
N950 N 0.59499 0.16205 0.52839 0.0
C951 C 0.57319 0.16484 0.55089 0.0
C952 C 0.57541 0.19849 0.56728 0.0
C953 C 0.5991 0.78736 0.29776 0.0
C954 C 0.58724 0.76176 0.31797 0.0
C955 C 0.62789 0.7881 0.28238 0.0
C956 C 0.64538 0.76277 0.28596 0.0
H957 H 0.58696 0.80799 0.2951 0.0
H958 H 0.63698 0.80923 0.26832 0.0
S959 S 0.62282 0.6881 0.33339 0.0
N960 N 0.59405 0.70914 0.33899 0.0
N961 N 0.64764 0.70997 0.30922 0.0
C962 C 0.6328 0.73586 0.30448 0.0
C963 C 0.60387 0.73553 0.32075 0.0
C964 C 0.04555 0.18421 0.48588 0.0
C965 C 0.04581 0.18473 0.45193 0.0
C966 C 0.04319 0.15337 0.50016 0.0
C967 C 0.04049 0.1219 0.48095 0.0
H968 H 0.04661 0.2077 0.5016 0.0
H969 H 0.04228 0.15399 0.52621 0.0
S970 S 0.0432 0.10919 0.39148 0.0
N971 N 0.04561 0.15084 0.39992 0.0
N972 N 0.04091 0.0933 0.42666 0.0
C973 C 0.042 0.1222 0.44721 0.0
C974 C 0.04473 0.15347 0.43272 0.0
C975 C 0.60074 0.24536 0.19726 0.0
C976 C 0.59849 0.26583 0.17192 0.0
C977 C 0.63069 0.24155 0.20953 0.0
C978 C 0.65962 0.25789 0.1969 0.0
H979 H 0.57919 0.23178 0.20756 0.0
H980 H 0.63114 0.22577 0.22919 0.0
S981 S 0.66756 0.31494 0.13104 0.0
N982 N 0.6284 0.30321 0.13509 0.0
N983 N 0.68433 0.29573 0.158 0.0
C984 C 0.65785 0.2785 0.1717 0.0
C985 C 0.62743 0.28258 0.1593 0.0
C986 C 0.57489 0.89614 0.99134 0.0
C987 C 0.55854 0.88271 0.96116 0.0
C988 C 0.56927 0.92599 0.00858 0.0
C989 C 0.54683 0.94318 0.99642 0.0
H990 H 0.59217 0.88355 1.00171 0.0
H991 H 0.58249 0.93556 0.03164 0.0
S992 S 0.49625 0.91751 0.9194 0.0
N993 N 0.51825 0.88869 0.9203 0.0
N994 N 0.50729 0.94382 0.95299 0.0
C995 C 0.53009 0.92981 0.96648 0.0
C996 C 0.53606 0.89984 0.94877 0.0
C997 C 0.90917 0.78771 0.69411 0.0
C998 C 0.91965 0.75701 0.69624 0.0
C999 C 0.88307 0.79456 0.71127 0.0
C1000 C 0.86622 0.77084 0.73105 0.0
H1001 H 0.92077 0.80636 0.67854 0.0
H1002 H 0.87522 0.81792 0.7079 0.0
S1003 S 0.88544 0.68792 0.7473 0.0
N1004 N 0.91206 0.7037 0.72165 0.0
N1005 N 0.86334 0.71649 0.75353 0.0
C1006 C 0.87721 0.74068 0.73436 0.0
C1007 C 0.90379 0.73379 0.71708 0.0
C1008 C 0.08548 0.04666 0.8959 0.0
C1009 C 0.09091 0.01793 0.87661 0.0
C1010 C 0.06697 0.04278 0.92297 0.0
C1011 C 0.05233 0.01 0.93163 0.0
H1012 H 0.09574 0.07255 0.89014 0.0
H1013 H 0.06357 0.06583 0.93685 0.0
S1014 S 0.05913 0.92628 0.88949 0.0
N1015 N 0.0807 0.95534 0.86852 0.0
N1016 N 0.04486 0.94813 0.91901 0.0
C1017 C 0.05752 0.98094 0.9127 0.0
C1018 C 0.07711 0.98489 0.88536 0.0
C1019 C 0.73302 0.33861 0.6024 0.0
C1020 C 0.75539 0.34149 0.57839 0.0
C1021 C 0.7359 0.31929 0.62812 0.0
C1022 C 0.76179 0.30329 0.63103 0.0
H1023 H 0.71381 0.35219 0.60181 0.0
H1024 H 0.71891 0.31872 0.64686 0.0
S1025 S 0.8254 0.30107 0.57335 0.0
N1026 N 0.80286 0.32462 0.55775 0.0
N1027 N 0.80877 0.28939 0.60696 0.0
C1028 C 0.78342 0.30463 0.60648 0.0
C1029 C 0.78008 0.32352 0.57987 0.0
C1030 C 0.50034 0.08249 0.3941 0.0
C1031 C 0.49844 0.05459 0.37014 0.0
C1032 C 0.51586 0.08325 0.4246 0.0
C1033 C 0.5294 0.05593 0.43185 0.0
H1034 H 0.48966 0.1037 0.38933 0.0
H1035 H 0.5165 0.10472 0.44281 0.0
S1036 S 0.53007 0.97663 0.37842 0.0
N1037 N 0.51125 0.99887 0.3562 0.0
N1038 N 0.53989 1.00037 0.41364 0.0
C1039 C 0.52779 0.02808 0.40828 0.0
C1040 C 0.51244 0.0274 0.37728 0.0
C1041 C 0.8027 0.71801 0.11951 0.0
C1042 C 0.77783 0.71798 0.09633 0.0
C1043 C 0.80134 0.73026 0.15213 0.0
C1044 C 0.77459 0.74206 0.16331 0.0
H1045 H 0.82334 0.7082 0.11239 0.0
H1046 H 0.82125 0.72979 0.16889 0.0
S1047 S 0.70283 0.74702 0.11252 0.0
N1048 N 0.72566 0.73109 0.08678 0.0
N1049 N 0.72271 0.75327 0.1483 0.0
C1050 C 0.74949 0.74217 0.14042 0.0
C1051 C 0.75124 0.73043 0.10693 0.0
C1052 C 0.12386 0.0166 0.66973 0.0
C1053 C 0.10947 0.02256 0.69906 0.0
C1054 C 0.11171 0.02459 0.6404 0.0
C1055 C 0.08453 0.03877 0.63897 0.0
H1056 H 0.14516 0.00622 0.66934 0.0
H1057 H 0.12367 0.01933 0.6186 0.0
S1058 S 0.03694 0.05849 0.7082 0.0
N1059 N 0.06581 0.04305 0.72444 0.0
N1060 N 0.04295 0.05774 0.66916 0.0
C1061 C 0.06953 0.04452 0.66786 0.0
C1062 C 0.08195 0.03645 0.69788 0.0
C1063 C 0.73206 0.30836 0.39466 0.0
C1064 C 0.75936 0.33388 0.40687 0.0
C1065 C 0.73189 0.28945 0.36425 0.0
C1066 C 0.7588 0.29616 0.34527 0.0
H1067 H 0.71108 0.30269 0.40882 0.0
H1068 H 0.71039 0.27015 0.35529 0.0
S1069 S 0.83547 0.36177 0.36693 0.0
N1070 N 0.8135 0.36516 0.39832 0.0
N1071 N 0.81293 0.33104 0.34109 0.0
C1072 C 0.78598 0.32196 0.35755 0.0
C1073 C 0.7863 0.34053 0.38841 0.0
C1074 C 0.4519 0.04229 0.17049 0.0
C1075 C 0.46916 0.06564 0.19595 0.0
C1076 C 0.46662 0.03447 0.14232 0.0
C1077 C 0.49893 0.05023 0.1383 0.0
H1078 H 0.42719 0.0287 0.17282 0.0
H1079 H 0.45248 0.01587 0.12354 0.0
S1080 S 0.5538 0.11558 0.19649 0.0
N1081 N 0.51978 0.10583 0.2149 0.0
N1082 N 0.54728 0.09191 0.16096 0.0
C1083 C 0.51616 0.07478 0.16287 0.0
C1084 C 0.5013 0.08229 0.19199 0.0
C1085 C 0.8105 0.74761 0.90371 0.0
C1086 C 0.77964 0.73082 0.91217 0.0
C1087 C 0.81488 0.7627 0.87429 0.0
C1088 C 0.78876 0.76053 0.85175 0.0
H1089 H 0.83122 0.74998 0.92034 0.0
H1090 H 0.83887 0.77624 0.86922 0.0
S1091 S 0.70345 0.71669 0.86147 0.0
N1092 N 0.72288 0.7118 0.8951 0.0
N1093 N 0.73109 0.73834 0.83981 0.0
C1094 C 0.75805 0.74252 0.85959 0.0
C1095 C 0.75351 0.72818 0.88975 0.0
C1096 C 0.85628 0.03775 0.04316 0.0
C1097 C 0.85119 0.06382 0.02458 0.0
C1098 C 0.87822 0.01778 0.03443 0.0
C1099 C 0.8955 0.02273 0.00655 0.0
H1100 H 0.84458 0.03386 0.06561 0.0
H1101 H 0.88311 0.9998 0.05071 0.0
S1102 S 0.88817 0.0845 0.94735 0.0
N1103 N 0.86311 0.09118 0.97525 0.0
N1104 N 0.90401 0.05328 0.9587 0.0
C1105 C 0.88879 0.04671 0.98632 0.0
C1106 C 0.86673 0.0674 0.99541 0.0
C1107 C 0.38716 0.49046 0.06337 0.0
C1108 C 0.3748 0.46269 0.03938 0.0
C1109 C 0.41901 0.51019 0.06337 0.0
C1110 C 0.43956 0.50306 0.03922 0.0
H1111 H 0.37251 0.4963 0.08292 0.0
H1112 H 0.42785 0.53045 0.08297 0.0
S1113 S 0.4175 0.43637 0.96842 0.0
N1114 N 0.38486 0.43128 0.98916 0.0
N1115 N 0.4441 0.46855 0.98892 0.0
C1116 C 0.42689 0.47661 0.01418 0.0
C1117 C 0.39472 0.45636 0.01433 0.0
C1118 C 0.29718 0.61847 0.72177 0.0
C1119 C 0.32512 0.61448 0.73871 0.0
C1120 C 0.2821 0.6453 0.73145 0.0
C1121 C 0.29453 0.66971 0.75826 0.0
H1122 H 0.28714 0.60113 0.70036 0.0
H1123 H 0.26147 0.64784 0.71674 0.0
S1124 S 0.36538 0.66913 0.81283 0.0
N1125 N 0.3631 0.63594 0.78526 0.0
N1126 N 0.33516 0.68634 0.80317 0.0
C1127 C 0.32159 0.66507 0.77631 0.0
C1128 C 0.33677 0.63756 0.76661 0.0
C1129 C 0.18557 0.58508 0.54957 0.0
C1130 C 0.19952 0.60438 0.52513 0.0
C1131 C 0.15231 0.57161 0.54874 0.0
C1132 C 0.13196 0.57638 0.52311 0.0
H1133 H 0.20034 0.58109 0.56996 0.0
H1134 H 0.14252 0.55704 0.56817 0.0
S1135 S 0.15667 0.62396 0.45259 0.0
N1136 N 0.19062 0.62719 0.47431 0.0
N1137 N 0.12799 0.60112 0.4724 0.0
C1138 C 0.14562 0.59501 0.49815 0.0
C1139 C 0.17946 0.60925 0.49927 0.0
C1140 C 0.72506 0.93841 0.76755 0.0
C1141 C 0.7292 0.95087 0.73712 0.0
C1142 C 0.74646 0.92066 0.78036 0.0
C1143 C 0.77263 0.91449 0.7631 0.0
H1144 H 0.70455 0.94135 0.78119 0.0
H1145 H 0.74111 0.90971 0.8029 0.0
S1146 S 0.79739 0.94649 0.68508 0.0
N1147 N 0.76403 0.95951 0.69202 0.0
N1148 N 0.80387 0.92564 0.71608 0.0
C1149 C 0.77846 0.92895 0.73387 0.0
C1150 C 0.75678 0.94718 0.72083 0.0
C1151 C 0.69551 0.98913 0.56988 0.0
C1152 C 0.70719 0.96919 0.54531 0.0
C1153 C 0.67059 0.00561 0.56324 0.0
C1154 C 0.65663 1.00337 0.53166 0.0
H1155 H 0.70534 0.99167 0.59463 0.0
H1156 H 0.66202 0.02001 0.58311 0.0
S1157 S 0.67858 0.95496 0.45846 0.0
N1158 N 0.70276 0.94847 0.48794 0.0
N1159 N 0.65644 0.9798 0.47548 0.0
C1160 C 0.66833 0.98397 0.50677 0.0
C1161 C 0.69341 0.96679 0.51359 0.0
C1162 C 0.34707 0.41263 0.74423 0.0
C1163 C 0.33582 0.4339 0.72362 0.0
C1164 C 0.32859 0.37992 0.74864 0.0
C1165 C 0.29819 0.36687 0.73238 0.0
H1166 H 0.37007 0.4216 0.75791 0.0
H1167 H 0.33799 0.36506 0.76543 0.0
S1168 S 0.25851 0.4107 0.67373 0.0
N1169 N 0.29283 0.43859 0.6855 0.0
N1170 N 0.25824 0.3768 0.69343 0.0
C1171 C 0.28702 0.3872 0.71081 0.0
C1172 C 0.30576 0.42076 0.70653 0.0
C1173 C 0.21626 0.62204 0.26206 0.0
C1174 C 0.18573 0.61197 0.24556 0.0
C1175 C 0.23373 0.65635 0.26475 0.0
C1176 C 0.22162 0.68122 0.24999 0.0
H1177 H 0.22667 0.60324 0.27296 0.0
H1178 H 0.25716 0.66331 0.27778 0.0
S1179 S 0.14287 0.6677 0.20399 0.0
N1180 N 0.14378 0.6293 0.21479 0.0
N1181 N 0.17725 0.69383 0.21874 0.0
C1182 C 0.19113 0.67147 0.23337 0.0
C1183 C 0.17296 0.63673 0.23145 0.0
C1184 C 0.55135 0.68809 0.47728 0.0
C1185 C 0.52294 0.68978 0.45988 0.0
C1186 C 0.5524 0.66065 0.49532 0.0
C1187 C 0.52507 0.63366 0.49692 0.0
H1188 H 0.57345 0.70748 0.47608 0.0
H1189 H 0.57531 0.66005 0.50709 0.0
S1190 S 0.44344 0.62816 0.4592 0.0
N1191 N 0.46591 0.66382 0.44786 0.0
N1192 N 0.46772 0.61217 0.48191 0.0
C1193 C 0.49588 0.6361 0.48129 0.0
C1194 C 0.49489 0.6641 0.46269 0.0
C1195 C 0.67515 0.32172 0.70733 0.0
C1196 C 0.64342 0.31017 0.71657 0.0
C1197 C 0.70172 0.31771 0.72624 0.0
C1198 C 0.69761 0.30212 0.75511 0.0
H1199 H 0.67951 0.33297 0.68481 0.0
H1200 H 0.72567 0.32682 0.71816 0.0
S1201 S 0.62035 0.271 0.79232 0.0
N1202 N 0.60995 0.28512 0.75844 0.0
N1203 N 0.66 0.27771 0.79359 0.0
C1204 C 0.66639 0.29232 0.76569 0.0
C1205 C 0.63927 0.29625 0.74649 0.0
C1206 C 0.97467 0.36806 0.96021 0.0
C1207 C 0.99925 0.35468 0.94594 0.0
C1208 C 0.98076 0.40195 0.97524 0.0
C1209 C 0.0118 0.42379 0.97714 0.0
H1210 H 0.95026 0.35249 0.95921 0.0
H1211 H 0.96084 0.41108 0.9854 0.0
S1212 S 0.08502 0.4009 0.9448 0.0
N1213 N 0.05612 0.36569 0.93535 0.0
N1214 N 0.06774 0.42928 0.96406 0.0
C1215 C 0.03686 0.41053 0.96366 0.0
C1216 C 0.03053 0.37606 0.94791 0.0
C1217 C 0.95102 0.821 0.19848 0.0
C1218 C 0.97197 0.80296 0.21204 0.0
C1219 C 0.92275 0.82446 0.21334 0.0
C1220 C 0.91463 0.81041 0.24251 0.0
H1221 H 0.95569 0.83119 0.17549 0.0
H1222 H 0.90653 0.83703 0.20119 0.0
S1223 S 0.96386 0.76531 0.29032 0.0
N1224 N 0.98433 0.77402 0.25805 0.0
N1225 N 0.93154 0.78092 0.28606 0.0
C1226 C 0.93649 0.79441 0.25742 0.0
C1227 C 0.96504 0.79052 0.24214 0.0
C1228 C 0.55271 0.38161 0.0523 0.0
C1229 C 0.52322 0.36093 0.06004 0.0
C1230 C 0.55406 0.41295 0.0395 0.0
C1231 C 0.52587 0.42409 0.03282 0.0
H1232 H 0.57511 0.37421 0.05738 0.0
H1233 H 0.57738 0.42898 0.03544 0.0
S1234 S 0.44247 0.37881 0.04684 0.0
N1235 N 0.46503 0.35349 0.05921 0.0
N1236 N 0.46759 0.41191 0.03396 0.0
C1237 C 0.49612 0.40312 0.03917 0.0
C1238 C 0.49478 0.37164 0.0531 0.0
C1239 C 0.95942 0.29672 0.33133 0.0
C1240 C 0.95842 0.28625 0.36272 0.0
C1241 C 0.93213 0.30336 0.31572 0.0
C1242 C 0.90277 0.29917 0.33075 0.0
H1243 H 0.98148 0.29993 0.31872 0.0
H1244 H 0.93376 0.31068 0.29133 0.0
S1245 S 0.88739 0.27312 0.41293 0.0
N1246 N 0.92563 0.27299 0.40853 0.0
N1247 N 0.87433 0.28481 0.37889 0.0
C1248 C 0.9015 0.2892 0.36221 0.0
C1249 C 0.92933 0.28291 0.37829 0.0
C1250 C 0.98046 0.63455 0.56921 0.0
C1251 C 0.98333 0.66597 0.55583 0.0
C1252 C 0.98933 0.60651 0.55225 0.0
C1253 C 1.00101 0.60868 0.5212 0.0
H1254 H 0.97328 0.63222 0.59374 0.0
H1255 H 0.98764 0.58325 0.56386 0.0
S1256 S 1.0066 0.68225 0.47255 0.0
N1257 N 0.99399 0.69558 0.50754 0.0
N1258 N 0.01035 0.64257 0.47572 0.0
C1259 C 1.00093 0.63854 0.50624 0.0
C1260 C 0.99212 0.66725 0.52354 0.0
C1261 C 0.6635 0.8017 0.85347 0.0
C1262 C 0.63228 0.7814 0.84515 0.0
C1263 C 0.68813 0.80251 0.832 0.0
C1264 C 0.68275 0.78234 0.80174 0.0
H1265 H 0.66889 0.81739 0.87663 0.0
H1266 H 0.71197 0.81807 0.83975 0.0
S1267 S 0.60544 0.72441 0.76856 0.0
N1268 N 0.5971 0.74107 0.80429 0.0
N1269 N 0.64404 0.74124 0.76464 0.0
C1270 C 0.65174 0.76174 0.79317 0.0
C1271 C 0.62633 0.76168 0.81466 0.0
C1272 C 0.45506 0.5262 0.63044 0.0
C1273 C 0.45497 0.55524 0.65223 0.0
C1274 C 0.47825 0.52722 0.6073 0.0
C1275 C 0.50209 0.55745 0.60477 0.0
H1276 H 0.43765 0.50214 0.63197 0.0
H1277 H 0.47794 0.50375 0.59184 0.0
S1278 S 0.5121 0.64058 0.65648 0.0
N1279 N 0.48071 0.61493 0.67038 0.0
N1280 N 0.5239 0.61732 0.62625 0.0
C1281 C 0.50204 0.58683 0.62632 0.0
C1282 C 0.47855 0.58562 0.65019 0.0
C1283 C 0.81919 0.21403 0.92229 0.0
C1284 C 0.80829 0.22824 0.95073 0.0
C1285 C 0.81766 0.22889 0.8934 0.0
C1286 C 0.80535 0.25849 0.89213 0.0
H1287 H 0.82703 0.19011 0.9218 0.0
H1288 H 0.82465 0.21606 0.87159 0.0
S1289 S 0.77994 0.30939 0.96141 0.0
N1290 N 0.78937 0.27638 0.97705 0.0
N1291 N 0.78652 0.30427 0.92256 0.0
C1292 C 0.7972 0.27472 0.92098 0.0
C1293 C 0.79864 0.25955 0.95039 0.0
C1294 C 0.05825 0.46482 0.13515 0.0
C1295 C 0.08664 0.48919 0.14658 0.0
C1296 C 0.03841 0.47125 0.10982 0.0
C1297 C 0.04601 0.50267 0.09615 0.0
H1298 H 0.05108 0.44112 0.14627 0.0
H1299 H 0.01685 0.45184 0.10126 0.0
S1300 S 0.1154 0.57659 0.1215 0.0
N1301 N 0.12041 0.54631 0.144 0.0
N1302 N 0.08218 0.55958 0.09847 0.0
C1303 C 0.07388 0.52752 0.1083 0.0
C1304 C 0.09449 0.52045 0.133 0.0
C1305 C 0.7602 0.83545 0.41457 0.0
C1306 C 0.78696 0.83494 0.43524 0.0
C1307 C 0.75963 0.82616 0.38091 0.0
C1308 C 0.78611 0.81675 0.36629 0.0
H1309 H 0.73944 0.84307 0.42445 0.0
H1310 H 0.73839 0.82687 0.36616 0.0
S1311 S 0.86214 0.81107 0.40943 0.0
N1312 N 0.84059 0.82369 0.43836 0.0
N1313 N 0.8397 0.80699 0.37544 0.0
C1314 C 0.81302 0.81616 0.38667 0.0
C1315 C 0.81339 0.825 0.42097 0.0
C1316 C 0.47664 0.50828 0.83362 0.0
C1317 C 0.45318 0.5272 0.82848 0.0
C1318 C 0.48715 0.50385 0.86488 0.0
C1319 C 0.47455 0.51799 0.89232 0.0
H1320 H 0.48697 0.49654 0.8133 0.0
H1321 H 0.50541 0.4893 0.86752 0.0
S1322 S 0.41284 0.56995 0.89254 0.0
N1323 N 0.41779 0.56041 0.8538 0.0
N1324 N 0.43755 0.55197 0.91259 0.0
C1325 C 0.45114 0.53702 0.88771 0.0
C1326 C 0.44051 0.54172 0.8558 0.0
C1327 C 0.82577 0.2091 0.15079 0.0
C1328 C 0.82097 0.22032 0.12041 0.0
C1329 C 0.82412 0.22996 0.17925 0.0
C1330 C 0.8176 0.26269 0.17841 0.0
H1331 H 0.82923 0.18341 0.15275 0.0
H1332 H 0.82708 0.21997 0.20214 0.0
S1333 S 0.80862 0.30675 0.10584 0.0
N1334 N 0.81362 0.2685 0.09146 0.0
N1335 N 0.81025 0.30734 0.14566 0.0
C1336 C 0.81533 0.2755 0.14862 0.0
C1337 C 0.81707 0.25435 0.1194 0.0
C1338 C 0.09022 0.48426 0.34868 0.0
C1339 C 0.0723 0.49206 0.32259 0.0
C1340 C 0.0785 0.48404 0.37966 0.0
C1341 C 0.04838 0.49129 0.3855 0.0
H1342 H 0.11428 0.48037 0.34565 0.0
H1343 H 0.0939 0.47988 0.39946 0.0
S1344 S 0.98968 0.50703 0.32419 0.0
N1345 N 0.02115 0.50266 0.30369 0.0
N1346 N 0.9991 0.50201 0.36201 0.0
C1347 C 0.02904 0.49613 0.35914 0.0
C1348 C 0.04105 0.49663 0.32762 0.0
C1349 C 0.76384 0.84884 0.65171 0.0
C1350 C 0.76995 0.8351 0.62053 0.0
C1351 C 0.76086 0.82913 0.67827 0.0
C1352 C 0.76349 0.79462 0.67489 0.0
H1353 H 0.76139 0.87518 0.6558 0.0
H1354 H 0.75576 0.84084 0.70146 0.0
S1355 S 0.7784 0.74543 0.59884 0.0
N1356 N 0.77796 0.78398 0.58826 0.0
N1357 N 0.7719 0.74722 0.6378 0.0
C1358 C 0.76894 0.78027 0.64389 0.0
C1359 C 0.77233 0.80038 0.6169 0.0
C1360 C 0.70143 0.51734 0.56069 0.0
C1361 C 0.70853 0.49967 0.53189 0.0
C1362 C 0.67878 0.53772 0.5605 0.0
C1363 C 0.66262 0.54141 0.53149 0.0
H1364 H 0.71229 0.51418 0.58382 0.0
H1365 H 0.67261 0.54904 0.58346 0.0
S1366 S 0.67597 0.50481 0.44893 0.0
N1367 N 0.70005 0.49024 0.47318 0.0
N1368 N 0.65786 0.52891 0.47277 0.0
C1369 C 0.67128 0.52604 0.50226 0.0
C1370 C 0.69407 0.50498 0.50247 0.0
C1371 C 0.156 0.09466 0.46252 0.0
C1372 C 0.17854 0.09227 0.48725 0.0
C1373 C 0.12432 0.07445 0.46059 0.0
C1374 C 0.11369 0.05182 0.48383 0.0
H1375 H 0.16289 0.1122 0.4444 0.0
H1376 H 0.10783 0.07699 0.44102 0.0
S1377 S 0.1628 0.03557 0.55328 0.0
N1378 N 0.18781 0.06484 0.53537 0.0
N1379 N 0.12805 0.02746 0.53179 0.0
C1380 C 0.13576 0.04913 0.50867 0.0
C1381 C 0.16825 0.06916 0.51033 0.0
C1382 C 0.23156 0.91584 0.79529 0.0
C1383 C 0.22244 0.92788 0.76644 0.0
C1384 C 0.24455 0.88643 0.79465 0.0
C1385 C 0.24804 0.86749 0.76515 0.0
H1386 H 0.22878 0.92932 0.81851 0.0
H1387 H 0.25084 0.87778 0.8174 0.0
S1388 S 0.22712 0.8876 0.68297 0.0
N1389 N 0.21803 0.91844 0.70761 0.0
N1390 N 0.24118 0.86279 0.70651 0.0
C1391 C 0.23889 0.87919 0.73624 0.0
C1392 C 0.22646 0.90948 0.73685 0.0
C1393 C 0.37683 0.99613 0.02399 0.0
C1394 C 0.35996 0.97258 0.99839 0.0
C1395 C 0.4101 0.00901 0.02401 0.0
C1396 C 0.42777 0.999 0.99839 0.0
H1397 H 0.36455 0.00365 0.04483 0.0
H1398 H 0.42207 0.02628 0.04481 0.0
S1399 S 0.39425 0.94129 0.92357 0.0
N1400 N 0.36281 0.94223 0.94525 0.0
N1401 N 0.42543 0.96645 0.94529 0.0
C1402 C 0.41093 0.97696 0.97173 0.0
C1403 C 0.37701 0.96376 0.97177 0.0
C1404 C 0.80328 0.60517 0.73584 0.0
C1405 C 0.82431 0.60413 0.76249 0.0
C1406 C 0.77978 0.6244 0.7386 0.0
C1407 C 0.77668 0.64326 0.76808 0.0
H1408 H 0.8061 0.59271 0.71216 0.0
H1409 H 0.76614 0.62699 0.71687 0.0
S1410 S 0.82082 0.64335 0.8466 0.0
N1411 N 0.83678 0.61921 0.82051 0.0
N1412 N 0.79258 0.65541 0.82553 0.0
C1413 C 0.79504 0.63942 0.79564 0.0
C1414 C 0.81902 0.61995 0.79288 0.0
C1415 C 0.87336 0.59202 0.99077 0.0
C1416 C 0.85058 0.58592 0.01443 0.0
C1417 C 0.8992 0.5757 0.98954 0.0
C1418 C 0.90336 0.55263 0.01191 0.0
H1419 H 0.87161 0.61001 0.97335 0.0
H1420 H 0.9165 0.58192 0.97136 0.0
S1421 S 0.84969 0.5261 0.07756 0.0
N1422 N 0.83332 0.55374 0.05998 0.0
N1423 N 0.88185 0.52338 0.05757 0.0
C1424 C 0.88033 0.54549 0.03509 0.0
C1425 C 0.85399 0.56205 0.03637 0.0
C1426 C 0.25747 0.12182 0.78048 0.0
C1427 C 0.22681 0.11748 0.79313 0.0
C1428 C 0.27527 0.15443 0.77455 0.0
C1429 C 0.26297 0.18399 0.7805 0.0
H1430 H 0.26759 0.09973 0.77434 0.0
H1431 H 0.29854 0.15634 0.76442 0.0
S1432 S 0.18578 0.18796 0.81676 0.0
N1433 N 0.18617 0.14666 0.81376 0.0
N1434 N 0.2198 0.20765 0.80235 0.0
C1435 C 0.23305 0.18047 0.79423 0.0
C1436 C 0.21498 0.14733 0.80069 0.0
C1437 C 0.37621 0.93174 0.25806 0.0
C1438 C 0.37244 0.95665 0.28289 0.0
C1439 C 0.35473 0.89937 0.2534 0.0
C1440 C 0.32944 0.89085 0.27394 0.0
H1441 H 0.39523 0.93767 0.24152 0.0
H1442 H 0.35825 0.88071 0.23398 0.0
S1443 S 0.30999 0.94665 0.34306 0.0
N1444 N 0.34176 0.97075 0.32831 0.0
N1445 N 0.30207 0.90919 0.32028 0.0
C1446 C 0.32583 0.91522 0.29925 0.0
C1447 C 0.3472 0.94839 0.30354 0.0
C1448 C 0.53135 0.39123 0.58595 0.0
C1449 C 0.56179 0.38341 0.58308 0.0
C1450 C 0.52284 0.41748 0.56981 0.0
C1451 C 0.54455 0.43709 0.55035 0.0
H1452 H 0.51411 0.37742 0.6013 0.0
H1453 H 0.49973 0.42351 0.57384 0.0
S1454 S 0.62623 0.42539 0.53251 0.0
N1455 N 0.61287 0.39636 0.55737 0.0
N1456 N 0.59693 0.44534 0.52731 0.0
C1457 C 0.57451 0.42861 0.54622 0.0
C1458 C 0.58312 0.40192 0.56249 0.0
C1459 C 0.39563 0.7873 0.31581 0.0
C1460 C 0.41515 0.7659 0.30362 0.0
C1461 C 0.36614 0.78694 0.29991 0.0
C1462 C 0.3551 0.76535 0.27096 0.0
H1463 H 0.40364 0.80517 0.33743 0.0
H1464 H 0.3524 0.80462 0.31001 0.0
S1465 S 0.39727 0.7035 0.22976 0.0
N1466 N 0.42156 0.72179 0.26169 0.0
N1467 N 0.3658 0.72105 0.23139 0.0
C1468 C 0.37412 0.7431 0.25892 0.0
C1469 C 0.40428 0.7434 0.27535 0.0
C1470 C 0.07636 0.6952 0.0738 0.0
C1471 C 0.0503 0.70427 0.08954 0.0
C1472 C 0.07386 0.66164 0.05852 0.0
C1473 C 0.04504 0.6361 0.0579 0.0
H1474 H 0.09913 0.71388 0.074 0.0
H1475 H 0.09463 0.65572 0.04708 0.0
S1476 S 0.96941 0.64711 0.09491 0.0
N1477 N 0.99465 0.68515 0.10298 0.0
N1478 N 0.98971 0.6226 0.07444 0.0
C1479 C 0.01865 0.64515 0.07316 0.0
C1480 C 0.02135 0.67906 0.0889 0.0
C1481 C 0.09157 0.22415 0.78863 0.0
C1482 C 0.08098 0.25049 0.80706 0.0
C1483 C 0.12222 0.23025 0.77617 0.0
C1484 C 0.14343 0.26297 0.78144 0.0
H1485 H 0.07643 0.19829 0.78445 0.0
H1486 H 0.12958 0.20895 0.76291 0.0
S1487 S 0.12685 0.34138 0.82617 0.0
N1488 N 0.09386 0.31106 0.82858 0.0
N1489 N 0.15124 0.32253 0.80503 0.0
C1490 C 0.13283 0.28984 0.79888 0.0
C1491 C 0.10169 0.2836 0.81172 0.0
C1492 C 0.52771 0.67563 0.96664 0.0
C1493 C 0.55597 0.70055 0.97762 0.0
C1494 C 0.51936 0.64406 0.97978 0.0
C1495 C 0.53874 0.63601 1.00471 0.0
H1496 H 0.51225 0.68002 0.947 0.0
H1497 H 0.49795 0.62536 0.96956 0.0
S1498 S 0.61444 0.69308 0.04356 0.0
N1499 N 0.60268 0.71557 0.01618 0.0
N1500 N 0.5869 0.6564 0.04087 0.0
C1501 C 0.56633 0.6613 0.01699 0.0
C1502 C 0.575 0.69343 1.00342 0.0
C1503 C 0.09165 0.72889 0.68925 0.0
C1504 C 0.09061 0.75241 0.66635 0.0
C1505 C 0.12102 0.72332 0.70115 0.0
C1506 C 0.15054 0.74105 0.69068 0.0
H1507 H 0.0696 0.71442 0.69799 0.0
H1508 H 0.12057 0.70551 0.71922 0.0
S1509 S 0.16148 0.80537 0.63109 0.0
N1510 N 0.1221 0.79352 0.63366 0.0
N1511 N 0.17706 0.78293 0.65594 0.0
C1512 C 0.14994 0.76434 0.66757 0.0
C1513 C 0.12007 0.7701 0.65549 0.0
C1514 C 0.06058 0.40319 0.47466 0.0
C1515 C 0.05021 0.37319 0.49003 0.0
C1516 C 0.05957 0.43567 0.49001 0.0
C1517 C 0.04853 0.43926 0.52125 0.0
H1518 H 0.06819 0.40146 0.4501 0.0
H1519 H 0.06737 0.45803 0.47733 0.0
S1520 S 0.02211 0.36923 0.57326 0.0
N1521 N 0.03091 0.34947 0.53922 0.0
N1522 N 0.02946 0.41056 0.56808 0.0
C1523 C 0.03984 0.40975 0.53756 0.0
C1524 C 0.04051 0.37667 0.52189 0.0
C1525 C 0.41521 0.29135 0.19735 0.0
C1526 C 0.42522 0.26021 0.19812 0.0
C1527 C 0.38866 0.29746 0.21416 0.0
C1528 C 0.37078 0.27256 0.23223 0.0
H1529 H 0.4276 0.31099 0.18313 0.0
H1530 H 0.38128 0.32128 0.21179 0.0
S1531 S 0.38814 0.18772 0.24422 0.0
N1532 N 0.41593 0.20498 0.22029 0.0
N1533 N 0.36628 0.21636 0.25148 0.0
C1534 C 0.38122 0.24186 0.23417 0.0
C1535 C 0.40832 0.23572 0.21726 0.0
C1536 C 0.58617 0.49546 0.39441 0.0
C1537 C 0.59878 0.52835 0.38463 0.0
C1538 C 0.5668 0.49132 0.42121 0.0
C1539 C 0.56012 0.51999 0.43965 0.0
H1540 H 0.59062 0.4727 0.38081 0.0
H1541 H 0.55717 0.46558 0.42763 0.0
S1542 S 0.58843 0.61172 0.42493 0.0
N1543 N 0.60361 0.59004 0.39609 0.0
N1544 N 0.56816 0.58241 0.44636 0.0
C1545 C 0.57325 0.55299 0.4305 0.0
C1546 C 0.59232 0.55713 0.40303 0.0
C1547 C 0.2371 0.86115 0.10703 0.0
C1548 C 0.25275 0.85359 0.07905 0.0
C1549 C 0.23819 0.84297 0.13387 0.0
C1550 C 0.25534 0.81691 0.13392 0.0
H1551 H 0.22472 0.88199 0.10864 0.0
H1552 H 0.22663 0.85048 0.15524 0.0
S1553 S 0.29743 0.78447 0.06555 0.0
N1554 N 0.28345 0.81593 0.05191 0.0
N1555 N 0.2858 0.78216 0.10286 0.0
C1556 C 0.26946 0.8076 0.10553 0.0
C1557 C 0.26809 0.82587 0.07794 0.0
C1558 C 0.97237 0.53389 0.89655 0.0
C1559 C 0.98018 0.56352 0.88042 0.0
C1560 C 0.98993 0.53105 0.92465 0.0
C1561 C 0.01647 0.55746 0.9372 0.0
H1562 H 0.953 0.51228 0.88684 0.0
H1563 H 0.98336 0.50733 0.93584 0.0
S1564 S 0.04548 0.64122 0.90476 0.0
N1565 N 0.01473 0.62064 0.87955 0.0
N1566 N 0.04865 0.61507 0.93247 0.0
C1567 C 0.02395 0.58779 0.9219 0.0
C1568 C 1.00551 0.59092 0.89343 0.0
C1569 C 0.25087 0.22937 0.60365 0.0
C1570 C 0.2769 0.21613 0.59246 0.0
C1571 C 0.2494 0.24074 0.63676 0.0
C1572 C 0.2742 0.2399 0.65983 0.0
H1573 H 0.23095 0.22982 0.58692 0.0
H1574 H 0.22885 0.25048 0.64428 0.0
S1575 S 0.34802 0.20842 0.64277 0.0
N1576 N 0.32813 0.20339 0.60716 0.0
N1577 N 0.32578 0.22497 0.66865 0.0
C1578 C 0.30059 0.2273 0.64867 0.0
C1579 C 0.30183 0.21539 0.61526 0.0
C1580 C 0.62412 0.5146 0.17615 0.0
C1581 C 0.61179 0.52308 0.20606 0.0
C1582 C 0.61064 0.52126 0.1469 0.0
C1583 C 0.58413 0.53655 0.14614 0.0
H1584 H 0.64493 0.50341 0.17521 0.0
H1585 H 0.62122 0.51435 0.12466 0.0
S1586 S 0.54136 0.56223 0.21707 0.0
N1587 N 0.57044 0.54667 0.23272 0.0
N1588 N 0.5451 0.55887 0.17757 0.0
C1589 C 0.57096 0.54449 0.1756 0.0
C1590 C 0.58473 0.53778 0.20555 0.0
C1591 C 0.27495 0.81951 0.89253 0.0
C1592 C 0.25039 0.83405 0.90535 0.0
C1593 C 0.27003 0.79891 0.86285 0.0
C1594 C 0.24024 0.79155 0.84518 0.0
H1595 H 0.29846 0.82455 0.90521 0.0
H1596 H 0.28973 0.7887 0.85367 0.0
S1597 S 0.16791 0.82276 0.86794 0.0
N1598 N 0.19507 0.83952 0.898 0.0
N1599 N 0.18567 0.80006 0.84224 0.0
C1600 C 0.21524 0.80536 0.85777 0.0
C1601 C 0.22039 0.82688 0.88785 0.0
C1602 C 0.98494 0.59994 0.6852 0.0
C1603 C 0.9861 0.57958 0.71076 0.0
C1604 C 1.00256 0.59623 0.65785 0.0
C1605 C 0.02118 0.57154 0.65508 0.0
H1606 H 0.96875 0.6172 0.68536 0.0
H1607 H 0.99923 0.61045 0.63766 0.0
S1608 S 0.03732 0.51675 0.71745 0.0
N1609 N 0.01183 0.53799 0.73358 0.0
N1610 N 0.04383 0.53033 0.68153 0.0
C1611 C 0.02511 0.5536 0.68162 0.0
C1612 C 1.00783 0.55785 0.70974 0.0
C1613 C 0.25135 0.23803 0.38965 0.0
C1614 C 0.27697 0.2319 0.40882 0.0
C1615 C 0.2564 0.25215 0.36002 0.0
C1616 C 0.28746 0.2618 0.34854 0.0
H1617 H 0.22695 0.23135 0.39735 0.0
H1618 H 0.23574 0.2561 0.34624 0.0
S1619 S 0.36295 0.25158 0.38919 0.0
N1620 N 0.33473 0.23626 0.41358 0.0
N1621 N 0.34428 0.26419 0.35869 0.0
C1622 C 0.31338 0.2562 0.36749 0.0
C1623 C 0.30813 0.24088 0.39733 0.0
C1624 C 0.3714 0.56783 0.50106 0.0
C1625 C 0.35681 0.56745 0.53089 0.0
C1626 C 0.39373 0.54779 0.49375 0.0
C1627 C 0.40254 0.52693 0.51615 0.0
H1628 H 0.36636 0.58455 0.48357 0.0
H1629 H 0.4056 0.55036 0.47125 0.0
S1630 S 0.36874 0.51347 0.59602 0.0
N1631 N 0.35065 0.54165 0.58168 0.0
N1632 N 0.39283 0.50448 0.56797 0.0
C1633 C 0.38668 0.5246 0.54513 0.0
C1634 C 0.36381 0.54479 0.55253 0.0
C1635 C 0.89735 0.95392 0.51798 0.0
C1636 C 0.87635 0.96572 0.53938 0.0
C1637 C 0.92856 0.97346 0.51483 0.0
C1638 C 0.94041 0.00568 0.53306 0.0
H1639 H 0.88987 0.929 0.50372 0.0
H1640 H 0.94386 0.96262 0.49865 0.0
S1641 S 0.89479 0.0499 0.59075 0.0
N1642 N 0.86928 0.01301 0.57773 0.0
N1643 N 0.9281 0.04962 0.57189 0.0
C1644 C 0.91941 0.01857 0.5536 0.0
C1645 C 0.88742 0.99865 0.55677 0.0
C1646 C 0.80402 0.12655 0.21662 0.0
C1647 C 0.8296 0.11987 0.23551 0.0
C1648 C 0.7901 0.15446 0.22566 0.0
C1649 C 0.80127 0.1772 0.2539 0.0
H1650 H 0.79502 0.11053 0.19419 0.0
H1651 H 0.77148 0.15915 0.20947 0.0
S1652 S 0.86587 0.16973 0.31338 0.0
N1653 N 0.86405 0.13731 0.28507 0.0
N1654 N 0.83815 0.18959 0.30191 0.0
C1655 C 0.82594 0.16999 0.27372 0.0
C1656 C 0.84002 0.14147 0.26458 0.0
C1657 C 0.68304 0.08419 0.051 0.0
C1658 C 0.69926 0.10114 0.02623 0.0
C1659 C 0.64972 0.07056 0.04782 0.0
C1660 C 0.63163 0.07289 0.01955 0.0
H1661 H 0.69603 0.08207 0.07331 0.0
H1662 H 0.63812 0.05791 0.06758 0.0
S1663 S 0.6628 0.11395 0.94725 0.0
N1664 N 0.69487 0.11902 0.97227 0.0
N1665 N 0.63229 0.09312 0.96618 0.0
C1666 C 0.64762 0.08928 0.99437 0.0
C1667 C 0.68145 0.10351 0.99775 0.0
C1668 C 0.24653 0.44156 0.21979 0.0
C1669 C 0.2262 0.45191 0.24263 0.0
C1670 C 0.26828 0.42202 0.22801 0.0
C1671 C 0.27078 0.41243 0.25946 0.0
H1672 H 0.24458 0.44712 0.1949 0.0
H1673 H 0.28182 0.41261 0.20903 0.0
S1674 S 0.2276 0.43894 0.32975 0.0
N1675 N 0.21312 0.45535 0.29913 0.0
N1676 N 0.25431 0.4187 0.31469 0.0
C1677 C 0.25265 0.42513 0.28326 0.0
C1678 C 0.23016 0.44475 0.27478 0.0
C1679 C 0.19466 0.48971 0.06509 0.0
C1680 C 0.20628 0.47057 0.03988 0.0
C1681 C 0.16982 0.50647 0.05922 0.0
C1682 C 0.1559 0.50535 0.02781 0.0
H1683 H 0.20433 0.49123 0.08979 0.0
H1684 H 0.16117 0.52005 0.07959 0.0
S1685 S 0.17798 0.45977 0.95307 0.0
N1686 N 0.20209 0.45209 0.98203 0.0
N1687 N 0.15584 0.48404 0.97102 0.0
C1688 C 0.1677 0.48703 1.00223 0.0
C1689 C 0.19272 0.46951 0.00825 0.0
C1690 C 0.80465 0.93162 0.23806 0.0
C1691 C 0.82872 0.9345 0.21564 0.0
C1692 C 0.78775 0.89915 0.24541 0.0
C1693 C 0.7942 0.86874 0.23025 0.0
H1694 H 0.80005 0.95455 0.25123 0.0
H1695 H 0.77003 0.89782 0.26352 0.0
S1696 S 0.85161 0.86234 0.1667 0.0
N1697 N 0.85644 0.90423 0.17672 0.0
N1698 N 0.82341 0.84327 0.18938 0.0
C1699 C 0.81676 0.87122 0.20648 0.0
C1700 C 0.83441 0.90417 0.19948 0.0
C1701 C 0.72644 0.11662 0.73894 0.0
C1702 C 0.69255 0.10755 0.73834 0.0
C1703 C 0.7434 0.15104 0.74519 0.0
C1704 C 0.72693 0.17731 0.75071 0.0
H1705 H 0.74 0.09699 0.73466 0.0
H1706 H 0.76947 0.1572 0.74519 0.0
S1707 S 0.63873 0.16785 0.75088 0.0
N1708 N 0.64325 0.12797 0.74358 0.0
N1709 N 0.67549 0.19294 0.75478 0.0
C1710 C 0.69324 0.1689 0.75019 0.0
C1711 C 0.67591 0.13384 0.74419 0.0
loop_
_geom_bond_atom_site_label_1
_geom_bond_atom_site_label_2
_geom_bond_distance
_geom_bond_site_symmetry_2
_ccdc_geom_bond_type
O0 Cd1 2.223 . S
O0 C8 1.315 . S
Cd1 O0 2.223 . S
Cd1 O4 2.297 . S
Cd1 O5 2.439 . S
Cd1 O11 2.240 1_455 S
Cd2 O3 2.240 . S
Cd2 O10 2.223 1_455 S
Cd2 O12 2.297 . S
Cd2 O13 2.439 . S
O3 Cd2 2.240 . S
O3 C8 1.279 . S
O4 Cd1 2.297 . S
O4 C6 1.247 . S
O5 Cd1 2.439 . S
O5 C6 1.208 . S
C6 O4 1.247 . S
C6 O5 1.208 . S
C7 O12 1.247 . S
C7 O13 1.208 . S
C8 O0 1.315 . S
C8 O3 1.279 . S
C9 O10 1.315 . S
C9 O11 1.279 . S
O10 Cd2 2.223 1_655 S
O10 C9 1.315 . S
O11 Cd1 2.240 1_655 S
O11 C9 1.279 . S
O12 Cd2 2.297 . S
O12 C7 1.247 . S
O13 Cd2 2.439 . S
O13 C7 1.208 . S
O14 Cd15 2.223 1_455 S
O14 C22 1.313 1_455 S
Cd15 O14 2.223 1_655 S
Cd15 O18 2.297 . S
Cd15 O19 2.439 . S
Cd15 O25 2.240 1_655 S
Cd16 O17 2.240 1_455 S
Cd16 O24 2.223 . S
Cd16 O26 2.297 . S
Cd16 O27 2.439 . S
O17 Cd16 2.240 1_655 S
O17 C22 1.290 . S
O18 Cd15 2.297 . S
O18 C20 1.247 . S
O19 Cd15 2.439 . S
O19 C20 1.208 . S
C20 O18 1.247 . S
C20 O19 1.208 . S
C21 O26 1.247 . S
C21 O27 1.208 . S
C22 O14 1.313 1_655 S
C22 O17 1.290 . S
C23 O24 1.315 . S
C23 O25 1.279 . S
O24 Cd16 2.223 . S
O24 C23 1.315 . S
O25 Cd15 2.240 1_455 S
O25 C23 1.279 . S
O26 Cd16 2.297 . S
O26 C21 1.247 . S
O27 Cd16 2.439 . S
O27 C21 1.208 . S
O28 Cd29 2.223 . S
O28 C36 1.315 . S
Cd29 O28 2.223 . S
Cd29 O32 2.297 . S
Cd29 O33 2.439 . S
Cd29 O39 2.240 . S
Cd30 O31 2.240 . S
Cd30 O38 2.223 . S
Cd30 O40 2.297 . S
Cd30 O41 2.439 . S
O31 Cd30 2.240 . S
O31 C36 1.279 . S
O32 Cd29 2.297 . S
O32 C34 1.247 . S
O33 Cd29 2.439 . S
O33 C34 1.208 . S
C34 O32 1.247 . S
C34 O33 1.208 . S
C35 O40 1.247 . S
C35 O41 1.208 . S
C36 O28 1.315 . S
C36 O31 1.279 . S
C37 O38 1.315 . S
C37 O39 1.279 . S
O38 Cd30 2.223 . S
O38 C37 1.315 . S
O39 Cd29 2.240 . S
O39 C37 1.279 . S
O40 Cd30 2.297 . S
O40 C35 1.247 . S
O41 Cd30 2.439 . S
O41 C35 1.208 . S
O42 Cd43 2.223 . S
O42 C50 1.315 . S
Cd43 O42 2.223 . S
Cd43 O46 2.297 . S
Cd43 O47 2.439 . S
Cd43 O53 2.240 . S
Cd44 O45 2.240 . S
Cd44 O52 2.223 . S
Cd44 O54 2.297 . S
Cd44 O55 2.439 . S
O45 Cd44 2.240 . S
O45 C50 1.279 . S
O46 Cd43 2.297 . S
O46 C48 1.247 . S
O47 Cd43 2.439 . S
O47 C48 1.208 . S
C48 O46 1.247 . S
C48 O47 1.208 . S
C49 O54 1.247 . S
C49 O55 1.208 . S
C50 O42 1.315 . S
C50 O45 1.279 . S
C51 O52 1.315 . S
C51 O53 1.279 . S
O52 Cd44 2.223 . S
O52 C51 1.315 . S
O53 Cd43 2.240 . S
O53 C51 1.279 . S
O54 Cd44 2.297 . S
O54 C49 1.247 . S
O55 Cd44 2.439 . S
O55 C49 1.208 . S
O56 Cd57 2.223 . S
O56 C64 1.315 . S
Cd57 O56 2.223 . S
Cd57 O60 2.297 1_455 S
Cd57 O61 2.439 1_455 S
Cd57 O67 2.240 . S
Cd58 O59 2.240 . S
Cd58 O66 2.223 . S
Cd58 O68 2.297 . S
Cd58 O69 2.439 . S
O59 Cd58 2.240 . S
O59 C64 1.279 . S
O60 Cd57 2.297 1_655 S
O60 C62 1.247 . S
O61 Cd57 2.439 1_655 S
O61 C62 1.208 . S
C62 O60 1.247 . S
C62 O61 1.208 . S
C63 O68 1.247 . S
C63 O69 1.208 . S
C64 O56 1.315 . S
C64 O59 1.279 . S
C65 O66 1.315 . S
C65 O67 1.279 . S
O66 Cd58 2.223 . S
O66 C65 1.315 . S
O67 Cd57 2.240 . S
O67 C65 1.279 . S
O68 Cd58 2.297 . S
O68 C63 1.247 . S
O69 Cd58 2.439 . S
O69 C63 1.208 . S
O70 Cd71 2.223 . S
O70 C78 1.315 . S
Cd71 O70 2.223 . S
Cd71 O74 2.297 . S
Cd71 O75 2.439 . S
Cd71 O81 2.240 . S
Cd72 O73 2.240 . S
Cd72 O80 2.223 . S
Cd72 O82 2.297 . S
Cd72 O83 2.439 . S
O73 Cd72 2.240 . S
O73 C78 1.279 . S
O74 Cd71 2.297 . S
O74 C76 1.247 . S
O75 Cd71 2.439 . S
O75 C76 1.208 . S
C76 O74 1.247 . S
C76 O75 1.208 . S
C77 O82 1.247 . S
C77 O83 1.208 . S
C78 O70 1.315 . S
C78 O73 1.279 . S
C79 O80 1.315 . S
C79 O81 1.279 . S
O80 Cd72 2.223 . S
O80 C79 1.315 . S
O81 Cd71 2.240 . S
O81 C79 1.279 . S
O82 Cd72 2.297 . S
O82 C77 1.247 . S
O83 Cd72 2.439 . S
O83 C77 1.208 . S
O84 Cd85 2.223 . S
O84 C92 1.315 . S
Cd85 O84 2.223 . S
Cd85 O88 2.297 . S
Cd85 O89 2.439 . S
Cd85 O95 2.240 . S
Cd86 O87 2.240 . S
Cd86 O94 2.223 . S
Cd86 O96 2.297 . S
Cd86 O97 2.439 . S
O87 Cd86 2.240 . S
O87 C92 1.279 . S
O88 Cd85 2.297 . S
O88 C90 1.247 . S
O89 Cd85 2.439 . S
O89 C90 1.208 . S
C90 O88 1.247 . S
C90 O89 1.208 . S
C91 O96 1.247 . S
C91 O97 1.208 . S
C92 O84 1.315 . S
C92 O87 1.279 . S
C93 O94 1.315 . S
C93 O95 1.279 . S
O94 Cd86 2.223 . S
O94 C93 1.315 . S
O95 Cd85 2.240 . S
O95 C93 1.279 . S
O96 Cd86 2.297 . S
O96 C91 1.247 . S
O97 Cd86 2.439 . S
O97 C91 1.208 . S
O98 Cd99 2.223 1_655 S
O98 C106 1.315 . S
Cd99 O98 2.223 1_455 S
Cd99 O102 2.297 . S
Cd99 O103 2.439 . S
Cd99 O109 2.240 1_455 S
Cd100 O101 2.240 1_655 S
Cd100 O108 2.223 . S
Cd100 O110 2.297 . S
Cd100 O111 2.439 1_655 S
O101 Cd100 2.240 1_455 S
O101 C106 1.279 1_455 S
O102 Cd99 2.297 . S
O102 C104 1.247 . S
O103 Cd99 2.439 . S
O103 C104 1.208 . S
C104 O102 1.247 . S
C104 O103 1.208 . S
C105 O110 1.247 1_455 S
C105 O111 1.208 . S
C106 O98 1.315 . S
C106 O101 1.279 1_655 S
C107 O108 1.315 . S
C107 O109 1.279 . S
O108 Cd100 2.223 . S
O108 C107 1.315 . S
O109 Cd99 2.240 1_655 S
O109 C107 1.279 . S
O110 Cd100 2.297 . S
O110 C105 1.247 1_655 S
O111 Cd100 2.439 1_455 S
O111 C105 1.208 . S
O112 Cd113 2.223 . S
O112 C120 1.315 . S
Cd113 O112 2.223 . S
Cd113 O116 2.297 . S
Cd113 O117 2.439 . S
Cd113 O123 2.240 1_545 S
Cd114 O115 2.240 . S
Cd114 O122 2.223 1_545 S
Cd114 O124 2.297 1_545 S
Cd114 O125 2.439 . S
O115 Cd114 2.240 . S
O115 C120 1.279 . S
O116 Cd113 2.297 . S
O116 C118 1.247 . S
O117 Cd113 2.439 . S
O117 C118 1.208 . S
C118 O116 1.247 . S
C118 O117 1.208 . S
C119 O124 1.247 1_545 S
C119 O125 1.208 . S
C120 O112 1.315 . S
C120 O115 1.279 . S
C121 O122 1.315 . S
C121 O123 1.279 . S
O122 Cd114 2.223 1_565 S
O122 C121 1.315 . S
O123 Cd113 2.240 1_565 S
O123 C121 1.279 . S
O124 Cd114 2.297 1_565 S
O124 C119 1.247 1_565 S
O125 Cd114 2.439 . S
O125 C119 1.208 . S
O126 Cd127 2.223 . S
O126 C134 1.315 . S
Cd127 O126 2.223 . S
Cd127 O130 2.297 . S
Cd127 O131 2.439 . S
Cd127 O137 2.240 . S
Cd128 O129 2.240 . S
Cd128 O136 2.223 . S
Cd128 O138 2.297 . S
Cd128 O139 2.439 . S
O129 Cd128 2.240 . S
O129 C134 1.279 . S
O130 Cd127 2.297 . S
O130 C132 1.247 . S
O131 Cd127 2.439 . S
O131 C132 1.208 . S
C132 O130 1.247 . S
C132 O131 1.208 . S
C133 O138 1.247 . S
C133 O139 1.208 . S
C134 O126 1.315 . S
C134 O129 1.279 . S
C135 O136 1.315 . S
C135 O137 1.279 . S
O136 Cd128 2.223 . S
O136 C135 1.315 . S
O137 Cd127 2.240 . S
O137 C135 1.279 . S
O138 Cd128 2.297 . S
O138 C133 1.247 . S
O139 Cd128 2.439 . S
O139 C133 1.208 . S
O140 Cd141 2.223 1_545 S
O140 C148 1.315 1_545 S
Cd141 O140 2.223 1_565 S
Cd141 O144 2.297 . S
Cd141 O145 2.439 . S
Cd141 O151 2.240 1_565 S
Cd142 O143 2.240 1_545 S
Cd142 O150 2.223 . S
Cd142 O152 2.297 . S
Cd142 O153 2.439 1_545 S
O143 Cd142 2.240 1_565 S
O143 C148 1.279 . S
O144 Cd141 2.297 . S
O144 C146 1.247 . S
O145 Cd141 2.439 . S
O145 C146 1.208 . S
C146 O144 1.247 . S
C146 O145 1.208 . S
C147 O152 1.247 . S
C147 O153 1.208 1_545 S
C148 O140 1.315 1_565 S
C148 O143 1.279 . S
C149 O150 1.315 . S
C149 O151 1.279 . S
O150 Cd142 2.223 . S
O150 C149 1.315 . S
O151 Cd141 2.240 1_545 S
O151 C149 1.279 . S
O152 Cd142 2.297 . S
O152 C147 1.247 . S
O153 Cd142 2.439 1_565 S
O153 C147 1.208 1_565 S
O154 Cd155 2.223 . S
O154 C162 1.315 . S
Cd155 O154 2.223 . S
Cd155 O158 2.297 . S
Cd155 O159 2.439 1_554 S
Cd155 O165 2.251 . S
Cd156 O157 2.240 1_556 S
Cd156 O164 2.223 1_556 S
Cd156 O166 2.297 . S
Cd156 O167 2.439 . S
O157 Cd156 2.240 1_554 S
O157 C162 1.279 . S
O158 Cd155 2.297 . S
O158 C160 1.247 . S
O159 Cd155 2.439 1_556 S
O159 C160 1.208 1_556 S
C160 O158 1.247 . S
C160 O159 1.208 1_554 S
C161 O166 1.247 . S
C161 O167 1.208 . S
C162 O154 1.315 . S
C162 O157 1.279 . S
C163 O164 1.315 . S
C163 O165 1.287 . S
O164 Cd156 2.223 1_554 S
O164 C163 1.315 . S
O165 Cd155 2.251 . S
O165 C163 1.287 . S
O166 Cd156 2.297 . S
O166 C161 1.247 . S
O167 Cd156 2.439 . S
O167 C161 1.208 . S
O168 Cd169 2.223 . S
O168 C176 1.315 . S
Cd169 O168 2.223 . S
Cd169 O172 2.297 . S
Cd169 O173 2.439 . S
Cd169 O179 2.240 . S
Cd170 O171 2.240 1_556 S
Cd170 O178 2.223 1_556 S
Cd170 O180 2.297 . S
Cd170 O181 2.439 . S
O171 Cd170 2.240 1_554 S
O171 C176 1.279 . S
O172 Cd169 2.297 . S
O172 C174 1.247 . S
O173 Cd169 2.439 . S
O173 C174 1.208 . S
C174 O172 1.247 . S
C174 O173 1.208 . S
C175 O180 1.247 . S
C175 O181 1.208 . S
C176 O168 1.315 . S
C176 O171 1.279 . S
C177 O178 1.315 . S
C177 O179 1.279 . S
O178 Cd170 2.223 1_554 S
O178 C177 1.315 . S
O179 Cd169 2.240 . S
O179 C177 1.279 . S
O180 Cd170 2.297 . S
O180 C175 1.247 . S
O181 Cd170 2.439 . S
O181 C175 1.208 . S
O182 Cd183 2.223 . S
O182 C190 1.315 . S
Cd183 O182 2.223 . S
Cd183 O186 2.297 . S
Cd183 O187 2.439 1_554 S
Cd183 O193 2.240 1_554 S
Cd184 O185 2.240 1_556 S
Cd184 O192 2.223 1_556 S
Cd184 O194 2.297 . S
Cd184 O195 2.439 . S
O185 Cd184 2.240 1_554 S
O185 C190 1.279 . S
O186 Cd183 2.297 . S
O186 C188 1.247 . S
O187 Cd183 2.439 1_556 S
O187 C188 1.208 1_556 S
C188 O186 1.247 . S
C188 O187 1.208 1_554 S
C189 O194 1.247 . S
C189 O195 1.208 . S
C190 O182 1.315 . S
C190 O185 1.279 . S
C191 O192 1.317 . S
C191 O193 1.269 1_554 S
O192 Cd184 2.223 1_554 S
O192 C191 1.317 . S
O193 Cd183 2.240 1_556 S
O193 C191 1.269 1_556 S
O194 Cd184 2.297 . S
O194 C189 1.247 . S
O195 Cd184 2.439 . S
O195 C189 1.208 . S
O196 Cd197 2.223 . S
O196 C204 1.315 . S
Cd197 O196 2.223 . S
Cd197 O200 2.297 . S
Cd197 O201 2.439 . S
Cd197 O207 2.240 . S
Cd198 O199 2.240 . S
Cd198 O206 2.223 . S
Cd198 O208 2.297 . S
Cd198 O209 2.439 . S
O199 Cd198 2.240 . S
O199 C204 1.279 . S
O200 Cd197 2.297 . S
O200 C202 1.247 . S
O201 Cd197 2.439 . S
O201 C202 1.208 . S
C202 O200 1.247 . S
C202 O201 1.208 . S
C203 O208 1.247 . S
C203 O209 1.208 . S
C204 O196 1.315 . S
C204 O199 1.279 . S
C205 O206 1.315 . S
C205 O207 1.279 . S
O206 Cd198 2.223 . S
O206 C205 1.315 . S
O207 Cd197 2.240 . S
O207 C205 1.279 . S
O208 Cd198 2.297 . S
O208 C203 1.247 . S
O209 Cd198 2.439 . S
O209 C203 1.208 . S
O210 Cd211 2.223 . S
O210 C218 1.315 . S
Cd211 O210 2.223 . S
Cd211 O214 2.297 . S
Cd211 O215 2.439 . S
Cd211 O221 2.240 . S
Cd212 O213 2.240 . S
Cd212 O220 2.223 . S
Cd212 O222 2.297 . S
Cd212 O223 2.439 . S
O213 Cd212 2.240 . S
O213 C218 1.279 . S
O214 Cd211 2.297 . S
O214 C216 1.247 . S
O215 Cd211 2.439 . S
O215 C216 1.208 . S
C216 O214 1.247 . S
C216 O215 1.208 . S
C217 O222 1.247 . S
C217 O223 1.208 . S
C218 O210 1.315 . S
C218 O213 1.279 . S
C219 O220 1.315 . S
C219 O221 1.279 . S
O220 Cd212 2.223 . S
O220 C219 1.315 . S
O221 Cd211 2.240 . S
O221 C219 1.279 . S
O222 Cd212 2.297 . S
O222 C217 1.247 . S
O223 Cd212 2.439 . S
O223 C217 1.208 . S
O224 Cd225 2.223 . S
O224 C232 1.315 . S
Cd225 O224 2.223 . S
Cd225 O228 2.297 . S
Cd225 O229 2.439 . S
Cd225 O235 2.240 . S
Cd226 O227 2.240 . S
Cd226 O234 2.223 1_545 S
Cd226 O236 2.297 . S
Cd226 O237 2.439 . S
O227 Cd226 2.240 . S
O227 C232 1.279 . S
O228 Cd225 2.297 . S
O228 C230 1.247 . S
O229 Cd225 2.439 . S
O229 C230 1.208 . S
C230 O228 1.247 . S
C230 O229 1.208 . S
C231 O236 1.247 . S
C231 O237 1.208 . S
C232 O224 1.315 . S
C232 O227 1.279 . S
C233 O234 1.315 . S
C233 O235 1.279 1_565 S
O234 Cd226 2.223 1_565 S
O234 C233 1.315 . S
O235 Cd225 2.240 . S
O235 C233 1.279 1_545 S
O236 Cd226 2.297 . S
O236 C231 1.247 . S
O237 Cd226 2.439 . S
O237 C231 1.208 . S
O238 Cd239 2.223 . S
O238 C246 1.315 . S
Cd239 O238 2.223 . S
Cd239 O242 2.297 . S
Cd239 O243 2.439 . S
Cd239 O249 2.240 . S
Cd240 O241 2.240 . S
Cd240 O248 2.223 . S
Cd240 O250 2.297 . S
Cd240 O251 2.439 . S
O241 Cd240 2.240 . S
O241 C246 1.279 . S
O242 Cd239 2.297 . S
O242 C244 1.247 . S
O243 Cd239 2.439 . S
O243 C244 1.208 . S
C244 O242 1.247 . S
C244 O243 1.208 . S
C245 O250 1.247 . S
C245 O251 1.208 . S
C246 O238 1.315 . S
C246 O241 1.279 . S
C247 O248 1.315 . S
C247 O249 1.279 . S
O248 Cd240 2.223 . S
O248 C247 1.315 . S
O249 Cd239 2.240 . S
O249 C247 1.279 . S
O250 Cd240 2.297 . S
O250 C245 1.247 . S
O251 Cd240 2.439 . S
O251 C245 1.208 . S
O252 Cd253 2.223 . S
O252 C260 1.315 . S
Cd253 O252 2.223 . S
Cd253 O256 2.297 . S
Cd253 O257 2.439 . S
Cd253 O263 2.240 . S
Cd254 O255 2.240 . S
Cd254 O262 2.223 . S
Cd254 O264 2.297 . S
Cd254 O265 2.439 . S
O255 Cd254 2.240 . S
O255 C260 1.279 . S
O256 Cd253 2.297 . S
O256 C258 1.247 . S
O257 Cd253 2.439 . S
O257 C258 1.208 . S
C258 O256 1.247 . S
C258 O257 1.208 . S
C259 O264 1.247 . S
C259 O265 1.208 . S
C260 O252 1.315 . S
C260 O255 1.279 . S
C261 O262 1.315 . S
C261 O263 1.279 . S
O262 Cd254 2.223 . S
O262 C261 1.315 . S
O263 Cd253 2.240 . S
O263 C261 1.279 . S
O264 Cd254 2.297 . S
O264 C259 1.247 . S
O265 Cd254 2.439 . S
O265 C259 1.208 . S
O266 Cd267 2.223 . S
O266 C274 1.315 . S
Cd267 O266 2.223 . S
Cd267 O270 2.297 1_545 S
Cd267 O271 2.439 1_545 S
Cd267 O277 2.240 . S
Cd268 O269 2.240 . S
Cd268 O276 2.223 . S
Cd268 O278 2.297 . S
Cd268 O279 2.439 . S
O269 Cd268 2.240 . S
O269 C274 1.279 . S
O270 Cd267 2.297 1_565 S
O270 C272 1.247 . S
O271 Cd267 2.439 1_565 S
O271 C272 1.208 . S
C272 O270 1.247 . S
C272 O271 1.208 . S
C273 O278 1.247 . S
C273 O279 1.208 . S
C274 O266 1.315 . S
C274 O269 1.279 . S
C275 O276 1.315 . S
C275 O277 1.279 . S
O276 Cd268 2.223 . S
O276 C275 1.315 . S
O277 Cd267 2.240 . S
O277 C275 1.279 . S
O278 Cd268 2.297 . S
O278 C273 1.247 . S
O279 Cd268 2.439 . S
O279 C273 1.208 . S
O280 Cd281 2.223 . S
O280 C288 1.315 . S
Cd281 O280 2.223 . S
Cd281 O284 2.297 . S
Cd281 O285 2.439 . S
Cd281 O291 2.240 1_554 S
Cd282 O283 2.240 . S
Cd282 O290 2.223 . S
Cd282 O292 2.297 1_554 S
Cd282 O293 2.439 1_554 S
O283 Cd282 2.240 . S
O283 C288 1.279 . S
O284 Cd281 2.297 . S
O284 C286 1.247 . S
O285 Cd281 2.439 . S
O285 C286 1.208 . S
C286 O284 1.247 . S
C286 O285 1.208 . S
C287 O292 1.247 . S
C287 O293 1.208 . S
C288 O280 1.315 . S
C288 O283 1.279 . S
C289 O290 1.315 . S
C289 O291 1.279 1_554 S
O290 Cd282 2.223 . S
O290 C289 1.315 . S
O291 Cd281 2.240 1_556 S
O291 C289 1.279 1_556 S
O292 Cd282 2.297 1_556 S
O292 C287 1.247 . S
O293 Cd282 2.439 1_556 S
O293 C287 1.208 . S
O294 Cd295 2.223 . S
O294 C302 1.315 . S
Cd295 O294 2.223 . S
Cd295 O298 2.297 . S
Cd295 O299 2.439 . S
Cd295 O305 2.240 . S
Cd296 O297 2.240 . S
Cd296 O304 2.223 . S
Cd296 O306 2.297 . S
Cd296 O307 2.439 . S
O297 Cd296 2.240 . S
O297 C302 1.279 . S
O298 Cd295 2.297 . S
O298 C300 1.247 . S
O299 Cd295 2.439 . S
O299 C300 1.208 . S
C300 O298 1.247 . S
C300 O299 1.208 . S
C301 O306 1.247 . S
C301 O307 1.208 . S
C302 O294 1.315 . S
C302 O297 1.279 . S
C303 O304 1.315 . S
C303 O305 1.279 . S
O304 Cd296 2.223 . S
O304 C303 1.315 . S
O305 Cd295 2.240 . S
O305 C303 1.279 . S
O306 Cd296 2.297 . S
O306 C301 1.247 . S
O307 Cd296 2.439 . S
O307 C301 1.208 . S
O308 Cd309 2.223 . S
O308 C316 1.315 . S
Cd309 O308 2.223 . S
Cd309 O312 2.297 . S
Cd309 O313 2.439 . S
Cd309 O319 2.240 . S
Cd310 O311 2.240 . S
Cd310 O318 2.223 . S
Cd310 O320 2.297 . S
Cd310 O321 2.439 . S
O311 Cd310 2.240 . S
O311 C316 1.279 . S
O312 Cd309 2.297 . S
O312 C314 1.247 . S
O313 Cd309 2.439 . S
O313 C314 1.208 . S
C314 O312 1.247 . S
C314 O313 1.208 . S
C315 O320 1.247 . S
C315 O321 1.208 . S
C316 O308 1.315 . S
C316 O311 1.279 . S
C317 O318 1.315 . S
C317 O319 1.279 . S
O318 Cd310 2.223 . S
O318 C317 1.315 . S
O319 Cd309 2.240 . S
O319 C317 1.279 . S
O320 Cd310 2.297 . S
O320 C315 1.247 . S
O321 Cd310 2.439 . S
O321 C315 1.208 . S
O322 Cd323 2.223 . S
O322 C330 1.315 . S
Cd323 O322 2.223 . S
Cd323 O326 2.297 . S
Cd323 O327 2.439 . S
Cd323 O333 2.240 . S
Cd324 O325 2.240 . S
Cd324 O332 2.223 . S
Cd324 O334 2.297 . S
Cd324 O335 2.439 . S
O325 Cd324 2.240 . S
O325 C330 1.279 . S
O326 Cd323 2.297 . S
O326 C328 1.247 . S
O327 Cd323 2.439 . S
O327 C328 1.208 . S
C328 O326 1.247 . S
C328 O327 1.208 . S
C329 O334 1.247 . S
C329 O335 1.208 . S
C330 O322 1.315 . S
C330 O325 1.279 . S
C331 O332 1.315 . S
C331 O333 1.279 . S
O332 Cd324 2.223 . S
O332 C331 1.315 . S
O333 Cd323 2.240 . S
O333 C331 1.279 . S
O334 Cd324 2.297 . S
O334 C329 1.247 . S
O335 Cd324 2.439 . S
O335 C329 1.208 . S
Dy336 O340 2.398 . S
Dy336 O341 2.491 1_556 S
Dy336 O342 2.403 . S
Dy336 O343 2.664 1_655 S
Dy336 O347 2.321 1_655 S
Dy336 O351 2.310 1_656 S
Dy336 O352 2.351 1_546 S
C337 O348 1.185 . S
C337 O349 1.355 . S
C338 O340 1.185 . S
C338 O341 1.355 1_556 S
Dy339 O343 2.310 1_554 S
Dy339 O346 2.351 . S
Dy339 O348 2.398 . S
Dy339 O349 2.491 . S
Dy339 O350 2.403 . S
Dy339 O351 2.664 . S
Dy339 O353 2.326 1_545 S
O340 Dy336 2.398 . S
O340 C338 1.185 . S
O341 Dy336 2.491 1_554 S
O341 C338 1.355 1_554 S
O342 Dy336 2.403 . S
O342 C344 1.254 1_655 S
O343 Dy336 2.664 1_455 S
O343 Dy339 2.310 1_556 S
O343 C344 1.268 . S
C344 O342 1.254 1_455 S
C344 O343 1.268 . S
C345 O350 1.254 . S
C345 O351 1.268 . S
O346 Dy339 2.351 . S
O346 C354 1.258 . S
O347 Dy336 2.321 1_455 S
O347 C354 1.274 1_556 S
O348 C337 1.185 . S
O348 Dy339 2.398 . S
O349 C337 1.355 . S
O349 Dy339 2.491 . S
O350 Dy339 2.403 . S
O350 C345 1.254 . S
O351 Dy336 2.310 1_454 S
O351 Dy339 2.664 . S
O351 C345 1.268 . S
O352 Dy336 2.351 1_564 S
O352 C355 1.249 1_655 S
O353 Dy339 2.326 1_565 S
O353 C355 1.267 . S
C354 O346 1.258 . S
C354 O347 1.274 1_554 S
C355 O352 1.249 1_455 S
C355 O353 1.267 . S
Dy356 O360 2.398 . S
Dy356 O361 2.491 . S
Dy356 O362 2.403 . S
Dy356 O363 2.664 . S
Dy356 O367 2.326 . S
Dy356 O371 2.310 . S
Dy356 O372 2.351 . S
C357 O368 1.185 . S
C357 O369 1.355 . S
C358 O360 1.185 . S
C358 O361 1.355 . S
Dy359 O363 2.310 . S
Dy359 O366 2.351 . S
Dy359 O368 2.398 . S
Dy359 O369 2.491 . S
Dy359 O370 2.403 . S
Dy359 O371 2.664 . S
Dy359 O373 2.326 . S
O360 Dy356 2.398 . S
O360 C358 1.185 . S
O361 Dy356 2.491 . S
O361 C358 1.355 . S
O362 Dy356 2.403 . S
O362 C364 1.254 . S
O363 Dy356 2.664 . S
O363 Dy359 2.310 . S
O363 C364 1.268 . S
C364 O362 1.254 . S
C364 O363 1.268 . S
C365 O370 1.254 . S
C365 O371 1.268 . S
O366 Dy359 2.351 . S
O366 C374 1.249 . S
O367 Dy356 2.326 . S
O367 C374 1.267 . S
O368 C357 1.185 . S
O368 Dy359 2.398 . S
O369 C357 1.355 . S
O369 Dy359 2.491 . S
O370 Dy359 2.403 . S
O370 C365 1.254 . S
O371 Dy356 2.310 . S
O371 Dy359 2.664 . S
O371 C365 1.268 . S
O372 Dy356 2.351 . S
O372 C375 1.249 . S
O373 Dy359 2.326 . S
O373 C375 1.267 . S
C374 O366 1.249 . S
C374 O367 1.267 . S
C375 O372 1.249 . S
C375 O373 1.267 . S
Dy376 O380 2.398 . S
Dy376 O381 2.491 1_545 S
Dy376 O382 2.403 . S
Dy376 O383 2.664 . S
Dy376 O387 2.326 1_545 S
Dy376 O391 2.310 . S
Dy376 O392 2.351 . S
C377 O388 1.185 . S
C377 O389 1.355 . S
C378 O380 1.185 1_565 S
C378 O381 1.355 . S
Dy379 O383 2.310 . S
Dy379 O386 2.351 1_545 S
Dy379 O388 2.398 . S
Dy379 O389 2.491 . S
Dy379 O390 2.403 . S
Dy379 O391 2.664 . S
Dy379 O393 2.326 . S
O380 Dy376 2.398 . S
O380 C378 1.185 1_545 S
O381 Dy376 2.491 1_565 S
O381 C378 1.355 . S
O382 Dy376 2.403 . S
O382 C384 1.254 . S
O383 Dy376 2.664 . S
O383 Dy379 2.310 . S
O383 C384 1.268 . S
C384 O382 1.254 . S
C384 O383 1.268 . S
C385 O390 1.254 . S
C385 O391 1.268 . S
O386 Dy379 2.351 1_565 S
O386 C394 1.249 . S
O387 Dy376 2.326 1_565 S
O387 C394 1.267 . S
O388 C377 1.185 . S
O388 Dy379 2.398 . S
O389 C377 1.355 . S
O389 Dy379 2.491 . S
O390 Dy379 2.403 . S
O390 C385 1.254 . S
O391 Dy376 2.310 . S
O391 Dy379 2.664 . S
O391 C385 1.268 . S
O392 Dy376 2.351 . S
O392 C395 1.249 . S
O393 Dy379 2.326 . S
O393 C395 1.267 . S
C394 O386 1.249 . S
C394 O387 1.267 . S
C395 O392 1.249 . S
C395 O393 1.267 . S
Dy396 O400 2.398 . S
Dy396 O401 2.491 . S
Dy396 O402 2.403 . S
Dy396 O403 2.664 . S
Dy396 O407 2.326 . S
Dy396 O411 2.310 . S
Dy396 O412 2.351 . S
C397 O408 1.185 . S
C397 O409 1.355 . S
C398 O400 1.185 . S
C398 O401 1.355 . S
Dy399 O403 2.310 . S
Dy399 O406 2.351 . S
Dy399 O408 2.398 . S
Dy399 O409 2.491 . S
Dy399 O410 2.403 . S
Dy399 O411 2.664 . S
Dy399 O413 2.326 . S
O400 Dy396 2.398 . S
O400 C398 1.185 . S
O401 Dy396 2.491 . S
O401 C398 1.355 . S
O402 Dy396 2.403 . S
O402 C404 1.254 . S
O403 Dy396 2.664 . S
O403 Dy399 2.310 . S
O403 C404 1.268 . S
C404 O402 1.254 . S
C404 O403 1.268 . S
C405 O410 1.254 . S
C405 O411 1.268 . S
O406 Dy399 2.351 . S
O406 C414 1.249 . S
O407 Dy396 2.326 . S
O407 C414 1.267 . S
O408 C397 1.185 . S
O408 Dy399 2.398 . S
O409 C397 1.355 . S
O409 Dy399 2.491 . S
O410 Dy399 2.403 . S
O410 C405 1.254 . S
O411 Dy396 2.310 . S
O411 Dy399 2.664 . S
O411 C405 1.268 . S
O412 Dy396 2.351 . S
O412 C415 1.249 . S
O413 Dy399 2.326 . S
O413 C415 1.267 . S
C414 O406 1.249 . S
C414 O407 1.267 . S
C415 O412 1.249 . S
C415 O413 1.267 . S
Dy416 O420 2.398 . S
Dy416 O421 2.491 1_455 S
Dy416 O422 2.403 . S
Dy416 O423 2.664 . S
Dy416 O427 2.326 . S
Dy416 O431 2.310 1_455 S
Dy416 O432 2.351 1_545 S
C417 O428 1.185 . S
C417 O429 1.355 . S
C418 O420 1.185 1_655 S
C418 O421 1.355 . S
Dy419 O423 2.310 . S
Dy419 O426 2.351 . S
Dy419 O428 2.398 . S
Dy419 O429 2.491 . S
Dy419 O430 2.403 1_455 S
Dy419 O431 2.664 1_455 S
Dy419 O433 2.326 1_545 S
O420 Dy416 2.398 . S
O420 C418 1.185 1_455 S
O421 Dy416 2.491 1_655 S
O421 C418 1.355 . S
O422 Dy416 2.403 . S
O422 C424 1.254 . S
O423 Dy416 2.664 . S
O423 Dy419 2.310 . S
O423 C424 1.268 . S
C424 O422 1.254 . S
C424 O423 1.268 . S
C425 O430 1.254 . S
C425 O431 1.268 . S
O426 Dy419 2.351 . S
O426 C434 1.249 . S
O427 Dy416 2.326 . S
O427 C434 1.267 . S
O428 C417 1.185 . S
O428 Dy419 2.398 . S
O429 C417 1.355 . S
O429 Dy419 2.491 . S
O430 Dy419 2.403 1_655 S
O430 C425 1.254 . S
O431 Dy416 2.310 1_655 S
O431 Dy419 2.664 1_655 S
O431 C425 1.268 . S
O432 Dy416 2.351 1_565 S
O432 C435 1.249 . S
O433 Dy419 2.326 1_565 S
O433 C435 1.267 . S
C434 O426 1.249 . S
C434 O427 1.267 . S
C435 O432 1.249 . S
C435 O433 1.267 . S
Dy436 O440 2.398 . S
Dy436 O441 2.491 . S
Dy436 O442 2.403 . S
Dy436 O443 2.664 . S
Dy436 O447 2.326 . S
Dy436 O451 2.310 . S
Dy436 O452 2.351 . S
C437 O448 1.185 . S
C437 O449 1.355 . S
C438 O440 1.185 . S
C438 O441 1.355 . S
Dy439 O443 2.310 . S
Dy439 O446 2.351 . S
Dy439 O448 2.398 . S
Dy439 O449 2.491 . S
Dy439 O450 2.403 . S
Dy439 O451 2.664 . S
Dy439 O453 2.326 . S
O440 Dy436 2.398 . S
O440 C438 1.185 . S
O441 Dy436 2.491 . S
O441 C438 1.355 . S
O442 Dy436 2.403 . S
O442 C444 1.254 . S
O443 Dy436 2.664 . S
O443 Dy439 2.310 . S
O443 C444 1.268 . S
C444 O442 1.254 . S
C444 O443 1.268 . S
C445 O450 1.254 . S
C445 O451 1.268 . S
O446 Dy439 2.351 . S
O446 C454 1.249 . S
O447 Dy436 2.326 . S
O447 C454 1.267 . S
O448 C437 1.185 . S
O448 Dy439 2.398 . S
O449 C437 1.355 . S
O449 Dy439 2.491 . S
O450 Dy439 2.403 . S
O450 C445 1.254 . S
O451 Dy436 2.310 . S
O451 Dy439 2.664 . S
O451 C445 1.268 . S
O452 Dy436 2.351 . S
O452 C455 1.249 . S
O453 Dy439 2.326 . S
O453 C455 1.267 . S
C454 O446 1.249 . S
C454 O447 1.267 . S
C455 O452 1.249 . S
C455 O453 1.267 . S
Dy456 O460 2.398 1_545 S
Dy456 O461 2.491 . S
Dy456 O462 2.403 1_545 S
Dy456 O463 2.664 1_544 S
Dy456 O467 2.326 1_545 S
Dy456 O471 2.310 . S
Dy456 O472 2.351 . S
C457 O468 1.185 . S
C457 O469 1.355 . S
C458 O460 1.185 . S
C458 O461 1.355 1_565 S
Dy459 O463 2.310 1_545 S
Dy459 O466 2.351 . S
Dy459 O468 2.398 . S
Dy459 O469 2.491 . S
Dy459 O470 2.403 . S
Dy459 O471 2.664 1_556 S
Dy459 O473 2.326 . S
O460 Dy456 2.398 1_565 S
O460 C458 1.185 . S
O461 Dy456 2.491 . S
O461 C458 1.355 1_545 S
O462 Dy456 2.403 1_565 S
O462 C464 1.254 . S
O463 Dy456 2.664 1_566 S
O463 Dy459 2.310 1_565 S
O463 C464 1.268 1_556 S
C464 O462 1.254 . S
C464 O463 1.268 1_554 S
C465 O470 1.254 1_554 S
C465 O471 1.268 . S
O466 Dy459 2.351 . S
O466 C474 1.249 1_546 S
O467 Dy456 2.326 1_565 S
O467 C474 1.267 . S
O468 C457 1.185 . S
O468 Dy459 2.398 . S
O469 C457 1.355 . S
O469 Dy459 2.491 . S
O470 Dy459 2.403 . S
O470 C465 1.254 1_556 S
O471 Dy456 2.310 . S
O471 Dy459 2.664 1_554 S
O471 C465 1.268 . S
O472 Dy456 2.351 . S
O472 C475 1.249 . S
O473 Dy459 2.326 . S
O473 C475 1.267 1_556 S
C474 O466 1.249 1_564 S
C474 O467 1.267 . S
C475 O472 1.249 . S
C475 O473 1.267 1_554 S
Dy476 O480 2.398 . S
Dy476 O481 2.491 . S
Dy476 O482 2.403 . S
Dy476 O483 2.664 . S
Dy476 O487 2.326 . S
Dy476 O491 2.310 . S
Dy476 O492 2.351 . S
C477 O488 1.185 . S
C477 O489 1.355 . S
C478 O480 1.185 . S
C478 O481 1.355 . S
Dy479 O483 2.310 . S
Dy479 O486 2.351 . S
Dy479 O488 2.398 . S
Dy479 O489 2.491 . S
Dy479 O490 2.403 . S
Dy479 O491 2.664 . S
Dy479 O493 2.326 . S
O480 Dy476 2.398 . S
O480 C478 1.185 . S
O481 Dy476 2.491 . S
O481 C478 1.355 . S
O482 Dy476 2.403 . S
O482 C484 1.254 . S
O483 Dy476 2.664 . S
O483 Dy479 2.310 . S
O483 C484 1.268 . S
C484 O482 1.254 . S
C484 O483 1.268 . S
C485 O490 1.254 . S
C485 O491 1.268 . S
O486 Dy479 2.351 . S
O486 C494 1.249 . S
O487 Dy476 2.326 . S
O487 C494 1.267 . S
O488 C477 1.185 . S
O488 Dy479 2.398 . S
O489 C477 1.355 . S
O489 Dy479 2.491 . S
O490 Dy479 2.403 . S
O490 C485 1.254 . S
O491 Dy476 2.310 . S
O491 Dy479 2.664 . S
O491 C485 1.268 . S
O492 Dy476 2.351 . S
O492 C495 1.249 . S
O493 Dy479 2.326 . S
O493 C495 1.267 . S
C494 O486 1.249 . S
C494 O487 1.267 . S
C495 O492 1.249 . S
C495 O493 1.267 . S
Dy496 O500 2.398 . S
Dy496 O501 2.491 . S
Dy496 O502 2.403 . S
Dy496 O503 2.664 1_556 S
Dy496 O507 2.326 . S
Dy496 O511 2.310 1_556 S
Dy496 O512 2.351 1_556 S
C497 O508 1.185 . S
C497 O509 1.355 . S
C498 O500 1.185 . S
C498 O501 1.355 . S
Dy499 O503 2.310 . S
Dy499 O506 2.351 . S
Dy499 O508 2.398 . S
Dy499 O509 2.491 . S
Dy499 O510 2.403 . S
Dy499 O511 2.664 . S
Dy499 O513 2.326 . S
O500 Dy496 2.398 . S
O500 C498 1.185 . S
O501 Dy496 2.491 . S
O501 C498 1.355 . S
O502 Dy496 2.403 . S
O502 C504 1.234 1_556 S
O503 Dy496 2.664 1_554 S
O503 Dy499 2.310 . S
O503 C504 1.282 . S
C504 O502 1.234 1_554 S
C504 O503 1.282 . S
C505 O510 1.254 . S
C505 O511 1.268 . S
O506 Dy499 2.351 . S
O506 C514 1.249 1_554 S
O507 Dy496 2.326 . S
O507 C514 1.267 . S
O508 C497 1.185 . S
O508 Dy499 2.398 . S
O509 C497 1.355 . S
O509 Dy499 2.491 . S
O510 Dy499 2.403 . S
O510 C505 1.254 . S
O511 Dy496 2.310 1_554 S
O511 Dy499 2.664 . S
O511 C505 1.268 . S
O512 Dy496 2.351 1_554 S
O512 C515 1.249 . S
O513 Dy499 2.326 . S
O513 C515 1.267 . S
C514 O506 1.249 1_556 S
C514 O507 1.267 . S
C515 O512 1.249 . S
C515 O513 1.267 . S
Dy516 O520 2.398 . S
Dy516 O521 2.491 . S
Dy516 O522 2.403 . S
Dy516 O523 2.664 . S
Dy516 O527 2.326 . S
Dy516 O531 2.310 . S
Dy516 O532 2.351 . S
C517 O528 1.185 . S
C517 O529 1.355 . S
C518 O520 1.185 . S
C518 O521 1.355 . S
Dy519 O523 2.310 . S
Dy519 O526 2.351 . S
Dy519 O528 2.398 . S
Dy519 O529 2.491 . S
Dy519 O530 2.403 . S
Dy519 O531 2.664 . S
Dy519 O533 2.326 . S
O520 Dy516 2.398 . S
O520 C518 1.185 . S
O521 Dy516 2.491 . S
O521 C518 1.355 . S
O522 Dy516 2.403 . S
O522 C524 1.254 . S
O523 Dy516 2.664 . S
O523 Dy519 2.310 . S
O523 C524 1.268 . S
C524 O522 1.254 . S
C524 O523 1.268 . S
C525 O530 1.254 . S
C525 O531 1.268 . S
O526 Dy519 2.351 . S
O526 C534 1.249 . S
O527 Dy516 2.326 . S
O527 C534 1.267 . S
O528 C517 1.185 . S
O528 Dy519 2.398 . S
O529 C517 1.355 . S
O529 Dy519 2.491 . S
O530 Dy519 2.403 . S
O530 C525 1.254 . S
O531 Dy516 2.310 . S
O531 Dy519 2.664 . S
O531 C525 1.268 . S
O532 Dy516 2.351 . S
O532 C535 1.249 . S
O533 Dy519 2.326 . S
O533 C535 1.267 . S
C534 O526 1.249 . S
C534 O527 1.267 . S
C535 O532 1.249 . S
C535 O533 1.267 . S
Dy536 O540 2.398 1_455 S
Dy536 O541 2.491 1_455 S
Dy536 O542 2.403 . S
Dy536 O543 2.664 . S
Dy536 O547 2.326 1_455 S
Dy536 O551 2.310 . S
Dy536 O552 2.351 . S
C537 O548 1.185 . S
C537 O549 1.355 . S
C538 O540 1.185 . S
C538 O541 1.355 . S
Dy539 O543 2.310 . S
Dy539 O546 2.351 1_455 S
Dy539 O548 2.398 . S
Dy539 O549 2.491 . S
Dy539 O550 2.403 . S
Dy539 O551 2.664 . S
Dy539 O553 2.326 . S
O540 Dy536 2.398 1_655 S
O540 C538 1.185 . S
O541 Dy536 2.491 1_655 S
O541 C538 1.355 . S
O542 Dy536 2.403 . S
O542 C544 1.254 . S
O543 Dy536 2.664 . S
O543 Dy539 2.310 . S
O543 C544 1.268 . S
C544 O542 1.254 . S
C544 O543 1.268 . S
C545 O550 1.254 . S
C545 O551 1.268 . S
O546 Dy539 2.351 1_655 S
O546 C554 1.249 . S
O547 Dy536 2.326 1_655 S
O547 C554 1.267 . S
O548 C537 1.185 . S
O548 Dy539 2.398 . S
O549 C537 1.355 . S
O549 Dy539 2.491 . S
O550 Dy539 2.403 . S
O550 C545 1.254 . S
O551 Dy536 2.310 . S
O551 Dy539 2.664 . S
O551 C545 1.268 . S
O552 Dy536 2.351 . S
O552 C555 1.249 . S
O553 Dy539 2.326 . S
O553 C555 1.267 . S
C554 O546 1.249 . S
C554 O547 1.267 . S
C555 O552 1.249 . S
C555 O553 1.267 . S
Dy556 O560 2.398 . S
Dy556 O561 2.491 . S
Dy556 O562 2.403 . S
Dy556 O563 2.664 . S
Dy556 O567 2.326 . S
Dy556 O571 2.310 . S
Dy556 O572 2.351 . S
C557 O568 1.185 . S
C557 O569 1.355 . S
C558 O560 1.185 . S
C558 O561 1.355 . S
Dy559 O563 2.310 . S
Dy559 O566 2.351 . S
Dy559 O568 2.398 . S
Dy559 O569 2.491 . S
Dy559 O570 2.403 . S
Dy559 O571 2.664 . S
Dy559 O573 2.326 . S
O560 Dy556 2.398 . S
O560 C558 1.185 . S
O561 Dy556 2.491 . S
O561 C558 1.355 . S
O562 Dy556 2.403 . S
O562 C564 1.254 . S
O563 Dy556 2.664 . S
O563 Dy559 2.310 . S
O563 C564 1.268 . S
C564 O562 1.254 . S
C564 O563 1.268 . S
C565 O570 1.254 . S
C565 O571 1.268 . S
O566 Dy559 2.351 . S
O566 C574 1.249 . S
O567 Dy556 2.326 . S
O567 C574 1.267 . S
O568 C557 1.185 . S
O568 Dy559 2.398 . S
O569 C557 1.355 . S
O569 Dy559 2.491 . S
O570 Dy559 2.403 . S
O570 C565 1.254 . S
O571 Dy556 2.310 . S
O571 Dy559 2.664 . S
O571 C565 1.268 . S
O572 Dy556 2.351 . S
O572 C575 1.249 . S
O573 Dy559 2.326 . S
O573 C575 1.267 . S
C574 O566 1.249 . S
C574 O567 1.267 . S
C575 O572 1.249 . S
C575 O573 1.267 . S
Dy576 O580 2.398 . S
Dy576 O581 2.491 . S
Dy576 O582 2.403 . S
Dy576 O583 2.664 . S
Dy576 O587 2.326 . S
Dy576 O591 2.310 . S
Dy576 O592 2.351 . S
C577 O588 1.185 . S
C577 O589 1.355 . S
C578 O580 1.185 . S
C578 O581 1.355 . S
Dy579 O583 2.310 . S
Dy579 O586 2.351 . S
Dy579 O588 2.398 . S
Dy579 O589 2.491 . S
Dy579 O590 2.403 . S
Dy579 O591 2.664 . S
Dy579 O593 2.326 . S
O580 Dy576 2.398 . S
O580 C578 1.185 . S
O581 Dy576 2.491 . S
O581 C578 1.355 . S
O582 Dy576 2.403 . S
O582 C584 1.254 . S
O583 Dy576 2.664 . S
O583 Dy579 2.310 . S
O583 C584 1.268 . S
C584 O582 1.254 . S
C584 O583 1.268 . S
C585 O590 1.254 . S
C585 O591 1.268 . S
O586 Dy579 2.351 . S
O586 C594 1.249 . S
O587 Dy576 2.326 . S
O587 C594 1.267 . S
O588 C577 1.185 . S
O588 Dy579 2.398 . S
O589 C577 1.355 . S
O589 Dy579 2.491 . S
O590 Dy579 2.403 . S
O590 C585 1.254 . S
O591 Dy576 2.310 . S
O591 Dy579 2.664 . S
O591 C585 1.268 . S
O592 Dy576 2.351 . S
O592 C595 1.249 . S
O593 Dy579 2.326 . S
O593 C595 1.267 . S
C594 O586 1.249 . S
C594 O587 1.267 . S
C595 O592 1.249 . S
C595 O593 1.267 . S
Dy596 O600 2.398 . S
Dy596 O601 2.491 . S
Dy596 O602 2.403 . S
Dy596 O603 2.664 . S
Dy596 O607 2.326 . S
Dy596 O611 2.310 . S
Dy596 O612 2.351 . S
C597 O608 1.185 . S
C597 O609 1.355 . S
C598 O600 1.185 . S
C598 O601 1.355 . S
Dy599 O603 2.310 . S
Dy599 O606 2.351 . S
Dy599 O608 2.398 . S
Dy599 O609 2.491 . S
Dy599 O610 2.403 . S
Dy599 O611 2.664 . S
Dy599 O613 2.326 . S
O600 Dy596 2.398 . S
O600 C598 1.185 . S
O601 Dy596 2.491 . S
O601 C598 1.355 . S
O602 Dy596 2.403 . S
O602 C604 1.254 . S
O603 Dy596 2.664 . S
O603 Dy599 2.310 . S
O603 C604 1.268 . S
C604 O602 1.254 . S
C604 O603 1.268 . S
C605 O610 1.254 . S
C605 O611 1.268 . S
O606 Dy599 2.351 . S
O606 C614 1.249 . S
O607 Dy596 2.326 . S
O607 C614 1.267 . S
O608 C597 1.185 . S
O608 Dy599 2.398 . S
O609 C597 1.355 . S
O609 Dy599 2.491 . S
O610 Dy599 2.403 . S
O610 C605 1.254 . S
O611 Dy596 2.310 . S
O611 Dy599 2.664 . S
O611 C605 1.268 . S
O612 Dy596 2.351 . S
O612 C615 1.249 . S
O613 Dy599 2.326 . S
O613 C615 1.267 . S
C614 O606 1.249 . S
C614 O607 1.267 . S
C615 O612 1.249 . S
C615 O613 1.267 . S
Dy616 O620 2.398 . S
Dy616 O621 2.491 . S
Dy616 O622 2.403 . S
Dy616 O623 2.664 . S
Dy616 O627 2.326 . S
Dy616 O631 2.310 . S
Dy616 O632 2.351 . S
C617 O628 1.185 . S
C617 O629 1.355 . S
C618 O620 1.185 . S
C618 O621 1.355 . S
Dy619 O623 2.310 . S
Dy619 O626 2.351 . S
Dy619 O628 2.398 . S
Dy619 O629 2.491 . S
Dy619 O630 2.403 . S
Dy619 O631 2.664 . S
Dy619 O633 2.326 . S
O620 Dy616 2.398 . S
O620 C618 1.185 . S
O621 Dy616 2.491 . S
O621 C618 1.355 . S
O622 Dy616 2.403 . S
O622 C624 1.254 . S
O623 Dy616 2.664 . S
O623 Dy619 2.310 . S
O623 C624 1.268 . S
C624 O622 1.254 . S
C624 O623 1.268 . S
C625 O630 1.254 . S
C625 O631 1.268 . S
O626 Dy619 2.351 . S
O626 C634 1.249 . S
O627 Dy616 2.326 . S
O627 C634 1.267 . S
O628 C617 1.185 . S
O628 Dy619 2.398 . S
O629 C617 1.355 . S
O629 Dy619 2.491 . S
O630 Dy619 2.403 . S
O630 C625 1.254 . S
O631 Dy616 2.310 . S
O631 Dy619 2.664 . S
O631 C625 1.268 . S
O632 Dy616 2.351 . S
O632 C635 1.249 . S
O633 Dy619 2.326 . S
O633 C635 1.267 . S
C634 O626 1.249 . S
C634 O627 1.267 . S
C635 O632 1.249 . S
C635 O633 1.267 . S
Dy636 O640 2.398 1_554 S
Dy636 O641 2.491 . S
Dy636 O642 2.403 1_554 S
Dy636 O643 2.655 1_554 S
Dy636 O647 2.332 . S
Dy636 O651 2.310 . S
Dy636 O652 2.351 . S
C637 O648 1.185 . S
C637 O649 1.355 . S
C638 O640 1.185 1_554 S
C638 O641 1.355 . S
Dy639 O643 2.279 1_654 S
Dy639 O646 2.351 . S
Dy639 O648 2.398 . S
Dy639 O649 2.491 . S
Dy639 O650 2.403 . S
Dy639 O651 2.664 1_655 S
Dy639 O653 2.326 1_655 S
O640 Dy636 2.398 1_556 S
O640 C638 1.185 1_556 S
O641 Dy636 2.491 . S
O641 C638 1.355 . S
O642 Dy636 2.403 1_556 S
O642 C644 1.254 . S
O643 Dy636 2.655 1_556 S
O643 Dy639 2.279 1_456 S
O643 C644 1.303 . S
C644 O642 1.254 . S
C644 O643 1.303 . S
C645 O650 1.254 1_455 S
C645 O651 1.268 . S
O646 Dy639 2.351 . S
O646 C654 1.249 1_655 S
O647 Dy636 2.332 . S
O647 C654 1.281 . S
O648 C637 1.185 . S
O648 Dy639 2.398 . S
O649 C637 1.355 . S
O649 Dy639 2.491 . S
O650 Dy639 2.403 . S
O650 C645 1.254 1_655 S
O651 Dy636 2.310 . S
O651 Dy639 2.664 1_455 S
O651 C645 1.268 . S
O652 Dy636 2.351 . S
O652 C655 1.249 . S
O653 Dy639 2.326 1_455 S
O653 C655 1.267 . S
C654 O646 1.249 1_455 S
C654 O647 1.281 . S
C655 O652 1.249 . S
C655 O653 1.267 . S
C656 C657 1.369 . S
C656 C658 1.419 . S
C656 H660 0.930 . S
C657 C656 1.369 . S
C657 C666 1.429 1_655 S
C658 C656 1.419 . S
C658 C659 1.363 1_655 S
C658 H661 0.929 . S
C659 C658 1.363 1_455 S
C659 C665 1.428 . S
H660 C656 0.930 . S
H661 C658 0.929 . S
S662 N663 1.613 . S
S662 N664 1.610 . S
N663 S662 1.613 . S
N663 C666 1.350 . S
N664 S662 1.610 . S
N664 C665 1.351 . S
C665 C659 1.428 . S
C665 N664 1.351 . S
C665 C666 1.434 . S
C666 C657 1.429 1_455 S
C666 N663 1.350 . S
C666 C665 1.434 . S
C667 C668 1.369 . S
C667 C669 1.419 . S
C667 H671 0.930 . S
C668 C667 1.369 . S
C668 C677 1.429 . S
C669 C667 1.419 . S
C669 C670 1.363 . S
C669 H672 0.929 . S
C670 C669 1.363 . S
C670 C676 1.428 . S
H671 C667 0.930 . S
H672 C669 0.929 . S
S673 N674 1.613 . S
S673 N675 1.610 . S
N674 S673 1.613 . S
N674 C677 1.350 . S
N675 S673 1.610 . S
N675 C676 1.351 . S
C676 C670 1.428 . S
C676 N675 1.351 . S
C676 C677 1.434 . S
C677 C668 1.429 . S
C677 N674 1.350 . S
C677 C676 1.434 . S
C678 C679 1.369 . S
C678 C680 1.419 . S
C678 H682 0.930 . S
C679 C678 1.369 . S
C679 C688 1.429 . S
C680 C678 1.419 . S
C680 C681 1.363 . S
C680 H683 0.929 . S
C681 C680 1.363 . S
C681 C687 1.428 . S
H682 C678 0.930 . S
H683 C680 0.929 . S
S684 N685 1.613 . S
S684 N686 1.610 . S
N685 S684 1.613 . S
N685 C688 1.350 . S
N686 S684 1.610 . S
N686 C687 1.351 . S
C687 C681 1.428 . S
C687 N686 1.351 . S
C687 C688 1.434 . S
C688 C679 1.429 . S
C688 N685 1.350 . S
C688 C687 1.434 . S
C689 C690 1.369 . S
C689 C691 1.419 . S
C689 H693 0.930 . S
C690 C689 1.369 . S
C690 C699 1.429 . S
C691 C689 1.419 . S
C691 C692 1.363 . S
C691 H694 0.929 . S
C692 C691 1.363 . S
C692 C698 1.428 . S
H693 C689 0.930 . S
H694 C691 0.929 . S
S695 N696 1.613 . S
S695 N697 1.610 . S
N696 S695 1.613 . S
N696 C699 1.350 . S
N697 S695 1.610 . S
N697 C698 1.351 . S
C698 C692 1.428 . S
C698 N697 1.351 . S
C698 C699 1.434 . S
C699 C690 1.429 . S
C699 N696 1.350 . S
C699 C698 1.434 . S
C700 C701 1.369 . S
C700 C702 1.419 . S
C700 H704 0.930 . S
C701 C700 1.369 . S
C701 C710 1.429 . S
C702 C700 1.419 . S
C702 C703 1.363 . S
C702 H705 0.929 . S
C703 C702 1.363 . S
C703 C709 1.428 . S
H704 C700 0.930 . S
H705 C702 0.929 . S
S706 N707 1.613 . S
S706 N708 1.610 . S
N707 S706 1.613 . S
N707 C710 1.350 . S
N708 S706 1.610 . S
N708 C709 1.351 . S
C709 C703 1.428 . S
C709 N708 1.351 . S
C709 C710 1.434 . S
C710 C701 1.429 . S
C710 N707 1.350 . S
C710 C709 1.434 . S
C711 C712 1.369 . S
C711 C713 1.419 . S
C711 H715 0.930 . S
C712 C711 1.369 . S
C712 C721 1.429 . S
C713 C711 1.419 . S
C713 C714 1.363 . S
C713 H716 0.929 . S
C714 C713 1.363 . S
C714 C720 1.428 . S
H715 C711 0.930 . S
H716 C713 0.929 . S
S717 N718 1.613 . S
S717 N719 1.610 . S
N718 S717 1.613 . S
N718 C721 1.350 . S
N719 S717 1.610 . S
N719 C720 1.351 . S
C720 C714 1.428 . S
C720 N719 1.351 . S
C720 C721 1.434 . S
C721 C712 1.429 . S
C721 N718 1.350 . S
C721 C720 1.434 . S
C722 C723 1.369 . S
C722 C724 1.419 . S
C722 H726 0.930 . S
C723 C722 1.369 . S
C723 C732 1.429 . S
C724 C722 1.419 . S
C724 C725 1.363 . S
C724 H727 0.929 . S
C725 C724 1.363 . S
C725 C731 1.428 . S
H726 C722 0.930 . S
H727 C724 0.929 . S
S728 N729 1.613 . S
S728 N730 1.610 . S
N729 S728 1.613 . S
N729 C732 1.350 . S
N730 S728 1.610 . S
N730 C731 1.351 . S
C731 C725 1.428 . S
C731 N730 1.351 . S
C731 C732 1.434 . S
C732 C723 1.429 . S
C732 N729 1.350 . S
C732 C731 1.434 . S
C733 C734 1.369 . S
C733 C735 1.419 . S
C733 H737 0.930 . S
C734 C733 1.369 . S
C734 C743 1.429 . S
C735 C733 1.419 . S
C735 C736 1.363 . S
C735 H738 0.929 . S
C736 C735 1.363 . S
C736 C742 1.428 . S
H737 C733 0.930 . S
H738 C735 0.929 . S
S739 N740 1.613 . S
S739 N741 1.610 . S
N740 S739 1.613 . S
N740 C743 1.350 . S
N741 S739 1.610 . S
N741 C742 1.351 . S
C742 C736 1.428 . S
C742 N741 1.351 . S
C742 C743 1.434 . S
C743 C734 1.429 . S
C743 N740 1.350 . S
C743 C742 1.434 . S
C744 C745 1.369 . S
C744 C746 1.419 . S
C744 H748 0.930 . S
C745 C744 1.369 . S
C745 C754 1.429 . S
C746 C744 1.419 . S
C746 C747 1.363 . S
C746 H749 0.929 1_655 S
C747 C746 1.363 . S
C747 C753 1.428 . S
H748 C744 0.930 . S
H749 C746 0.929 1_455 S
S750 N751 1.613 . S
S750 N752 1.610 . S
N751 S750 1.613 . S
N751 C754 1.350 . S
N752 S750 1.610 . S
N752 C753 1.351 . S
C753 C747 1.428 . S
C753 N752 1.351 . S
C753 C754 1.434 . S
C754 C745 1.429 . S
C754 N751 1.350 . S
C754 C753 1.434 . S
C755 C756 1.369 . S
C755 C757 1.419 . S
C755 H759 0.930 . S
C756 C755 1.369 . S
C756 C765 1.429 . S
C757 C755 1.419 . S
C757 C758 1.363 . S
C757 H760 0.929 . S
C758 C757 1.363 . S
C758 C764 1.428 . S
H759 C755 0.930 . S
H760 C757 0.929 . S
S761 N762 1.613 . S
S761 N763 1.610 . S
N762 S761 1.613 . S
N762 C765 1.350 . S
N763 S761 1.610 . S
N763 C764 1.351 . S
C764 C758 1.428 . S
C764 N763 1.351 . S
C764 C765 1.434 . S
C765 C756 1.429 . S
C765 N762 1.350 . S
C765 C764 1.434 . S
C766 C767 1.383 . S
C766 C768 1.421 1_545 S
C766 H770 0.913 1_545 S
C767 C766 1.383 . S
C767 C776 1.429 . S
C768 C766 1.421 1_565 S
C768 C769 1.363 1_565 S
C768 H771 0.929 . S
C769 C768 1.363 1_545 S
C769 C775 1.428 . S
H770 C766 0.913 1_565 S
H771 C768 0.929 . S
S772 N773 1.613 . S
S772 N774 1.610 . S
N773 S772 1.613 . S
N773 C776 1.350 . S
N774 S772 1.610 . S
N774 C775 1.351 . S
C775 C769 1.428 . S
C775 N774 1.351 . S
C775 C776 1.434 . S
C776 C767 1.429 . S
C776 N773 1.350 . S
C776 C775 1.434 . S
C777 C778 1.369 . S
C777 C779 1.419 . S
C777 H781 0.930 . S
C778 C777 1.369 . S
C778 C787 1.429 . S
C779 C777 1.419 . S
C779 C780 1.363 . S
C779 H782 0.929 . S
C780 C779 1.363 . S
C780 C786 1.428 . S
H781 C777 0.930 . S
H782 C779 0.929 . S
S783 N784 1.613 . S
S783 N785 1.610 . S
N784 S783 1.613 . S
N784 C787 1.350 . S
N785 S783 1.610 . S
N785 C786 1.351 . S
C786 C780 1.428 . S
C786 N785 1.351 . S
C786 C787 1.434 . S
C787 C778 1.429 . S
C787 N784 1.350 . S
C787 C786 1.434 . S
C788 C789 1.369 . S
C788 C790 1.419 . S
C788 H792 0.930 . S
C789 C788 1.369 . S
C789 C798 1.429 . S
C790 C788 1.419 . S
C790 C791 1.363 . S
C790 H793 0.929 . S
C791 C790 1.363 . S
C791 C797 1.428 . S
H792 C788 0.930 . S
H793 C790 0.929 . S
S794 N795 1.613 . S
S794 N796 1.610 . S
N795 S794 1.613 . S
N795 C798 1.350 1_565 S
N796 S794 1.610 . S
N796 C797 1.351 1_565 S
C797 C791 1.428 . S
C797 N796 1.351 1_545 S
C797 C798 1.434 . S
C798 C789 1.429 . S
C798 N795 1.350 1_545 S
C798 C797 1.434 . S
C799 C800 1.369 . S
C799 C801 1.419 . S
C799 H803 0.930 . S
C800 C799 1.369 . S
C800 C809 1.429 . S
C801 C799 1.419 . S
C801 C802 1.363 . S
C801 H804 0.929 . S
C802 C801 1.363 . S
C802 C808 1.428 . S
H803 C799 0.930 . S
H804 C801 0.929 . S
S805 N806 1.613 . S
S805 N807 1.610 . S
N806 S805 1.613 . S
N806 C809 1.350 . S
N807 S805 1.610 . S
N807 C808 1.351 . S
C808 C802 1.428 . S
C808 N807 1.351 . S
C808 C809 1.434 . S
C809 C800 1.429 . S
C809 N806 1.350 . S
C809 C808 1.434 . S
C810 C811 1.369 . S
C810 C812 1.419 . S
C810 H814 0.930 . S
C811 C810 1.369 . S
C811 C820 1.429 . S
C812 C810 1.419 . S
C812 C813 1.363 . S
C812 H815 0.929 . S
C813 C812 1.363 . S
C813 C819 1.428 . S
H814 C810 0.930 . S
H815 C812 0.929 . S
S816 N817 1.613 . S
S816 N818 1.610 . S
N817 S816 1.613 . S
N817 C820 1.350 . S
N818 S816 1.610 . S
N818 C819 1.351 . S
C819 C813 1.428 . S
C819 N818 1.351 . S
C819 C820 1.434 . S
C820 C811 1.429 . S
C820 N817 1.350 . S
C820 C819 1.434 . S
C821 C822 1.369 . S
C821 C823 1.419 . S
C821 H825 0.930 . S
C822 C821 1.369 . S
C822 C831 1.429 . S
C823 C821 1.419 . S
C823 C824 1.363 . S
C823 H826 0.929 . S
C824 C823 1.363 . S
C824 C830 1.428 . S
H825 C821 0.930 . S
H826 C823 0.929 . S
S827 N828 1.613 . S
S827 N829 1.610 . S
N828 S827 1.613 . S
N828 C831 1.350 . S
N829 S827 1.610 . S
N829 C830 1.351 . S
C830 C824 1.428 . S
C830 N829 1.351 . S
C830 C831 1.434 . S
C831 C822 1.429 . S
C831 N828 1.350 . S
C831 C830 1.434 . S
C832 C833 1.369 . S
C832 C834 1.419 . S
C832 H836 0.930 1_554 S
C833 C832 1.369 . S
C833 C842 1.429 . S
C834 C832 1.419 . S
C834 C835 1.363 . S
C834 H837 0.929 . S
C835 C834 1.363 . S
C835 C841 1.428 1_565 S
H836 C832 0.930 1_556 S
H837 C834 0.929 . S
S838 N839 1.613 1_545 S
S838 N840 1.610 . S
N839 S838 1.613 1_565 S
N839 C842 1.350 . S
N840 S838 1.610 . S
N840 C841 1.351 . S
C841 C835 1.428 1_545 S
C841 N840 1.351 . S
C841 C842 1.434 1_545 S
C842 C833 1.429 . S
C842 N839 1.350 . S
C842 C841 1.434 1_565 S
C843 C844 1.369 . S
C843 C845 1.419 . S
C843 H847 0.930 . S
C844 C843 1.369 . S
C844 C853 1.429 1_554 S
C845 C843 1.419 . S
C845 C846 1.363 . S
C845 H848 0.929 . S
C846 C845 1.363 . S
C846 C852 1.428 1_554 S
H847 C843 0.930 . S
H848 C845 0.929 . S
S849 N850 1.613 . S
S849 N851 1.610 . S
N850 S849 1.613 . S
N850 C853 1.350 . S
N851 S849 1.610 . S
N851 C852 1.351 . S
C852 C846 1.428 1_556 S
C852 N851 1.351 . S
C852 C853 1.434 . S
C853 C844 1.429 1_556 S
C853 N850 1.350 . S
C853 C852 1.434 . S
C854 C855 1.369 . S
C854 C856 1.419 . S
C854 H858 0.930 . S
C855 C854 1.369 . S
C855 C864 1.429 . S
C856 C854 1.419 . S
C856 C857 1.363 . S
C856 H859 0.929 . S
C857 C856 1.363 . S
C857 C863 1.428 . S
H858 C854 0.930 . S
H859 C856 0.929 . S
S860 N861 1.613 . S
S860 N862 1.610 . S
N861 S860 1.613 . S
N861 C864 1.350 . S
N862 S860 1.610 . S
N862 C863 1.351 . S
C863 C857 1.428 . S
C863 N862 1.351 . S
C863 C864 1.434 . S
C864 C855 1.429 . S
C864 N861 1.350 . S
C864 C863 1.434 . S
C865 C866 1.369 . S
C865 C867 1.419 . S
C865 H869 0.930 . S
C866 C865 1.369 . S
C866 C875 1.429 . S
C867 C865 1.419 . S
C867 C868 1.363 . S
C867 H870 0.929 . S
C868 C867 1.363 . S
C868 C874 1.428 . S
H869 C865 0.930 . S
H870 C867 0.929 . S
S871 N872 1.613 . S
S871 N873 1.610 . S
N872 S871 1.613 . S
N872 C875 1.350 . S
N873 S871 1.610 . S
N873 C874 1.351 . S
C874 C868 1.428 . S
C874 N873 1.351 . S
C874 C875 1.434 . S
C875 C866 1.429 . S
C875 N872 1.350 . S
C875 C874 1.434 . S
C876 C877 1.369 . S
C876 C878 1.419 . S
C876 H880 0.930 . S
C877 C876 1.369 . S
C877 C886 1.429 . S
C878 C876 1.419 . S
C878 C879 1.363 . S
C878 H881 0.929 . S
C879 C878 1.363 . S
C879 C885 1.428 . S
H880 C876 0.930 . S
H881 C878 0.929 . S
S882 N883 1.613 . S
S882 N884 1.610 . S
N883 S882 1.613 . S
N883 C886 1.350 . S
N884 S882 1.610 . S
N884 C885 1.351 . S
C885 C879 1.428 . S
C885 N884 1.351 . S
C885 C886 1.434 . S
C886 C877 1.429 . S
C886 N883 1.350 . S
C886 C885 1.434 . S
C887 C888 1.369 . S
C887 C889 1.419 . S
C887 H891 0.930 . S
C888 C887 1.369 . S
C888 C897 1.429 . S
C889 C887 1.419 . S
C889 C890 1.363 . S
C889 H892 0.929 . S
C890 C889 1.363 . S
C890 C896 1.428 . S
H891 C887 0.930 . S
H892 C889 0.929 . S
S893 N894 1.613 . S
S893 N895 1.610 . S
N894 S893 1.613 . S
N894 C897 1.350 . S
N895 S893 1.610 . S
N895 C896 1.351 . S
C896 C890 1.428 . S
C896 N895 1.351 . S
C896 C897 1.434 . S
C897 C888 1.429 . S
C897 N894 1.350 . S
C897 C896 1.434 . S
C898 C899 1.369 . S
C898 C900 1.419 . S
C898 H902 0.930 . S
C899 C898 1.369 . S
C899 C908 1.429 . S
C900 C898 1.419 . S
C900 C901 1.363 . S
C900 H903 0.929 . S
C901 C900 1.363 . S
C901 C907 1.428 . S
H902 C898 0.930 . S
H903 C900 0.929 . S
S904 N905 1.613 . S
S904 N906 1.610 . S
N905 S904 1.613 . S
N905 C908 1.350 . S
N906 S904 1.610 . S
N906 C907 1.351 . S
C907 C901 1.428 . S
C907 N906 1.351 . S
C907 C908 1.434 . S
C908 C899 1.429 . S
C908 N905 1.350 . S
C908 C907 1.434 . S
C909 C910 1.369 . S
C909 C911 1.419 . S
C909 H913 0.930 . S
C910 C909 1.369 . S
C910 C919 1.429 . S
C911 C909 1.419 . S
C911 C912 1.363 . S
C911 H914 0.929 . S
C912 C911 1.363 . S
C912 C918 1.428 . S
H913 C909 0.930 . S
H914 C911 0.929 . S
S915 N916 1.613 . S
S915 N917 1.610 . S
N916 S915 1.613 . S
N916 C919 1.350 . S
N917 S915 1.610 . S
N917 C918 1.351 . S
C918 C912 1.428 . S
C918 N917 1.351 . S
C918 C919 1.434 . S
C919 C910 1.429 . S
C919 N916 1.350 . S
C919 C918 1.434 . S
C920 C921 1.369 . S
C920 C922 1.419 . S
C920 H924 0.930 . S
C921 C920 1.369 . S
C921 C930 1.429 . S
C922 C920 1.419 . S
C922 C923 1.363 . S
C922 H925 0.929 . S
C923 C922 1.363 . S
C923 C929 1.428 . S
H924 C920 0.930 . S
H925 C922 0.929 . S
S926 N927 1.613 1_655 S
S926 N928 1.610 . S
N927 S926 1.613 1_455 S
N927 C930 1.350 . S
N928 S926 1.610 . S
N928 C929 1.351 1_655 S
C929 C923 1.428 . S
C929 N928 1.351 1_455 S
C929 C930 1.434 . S
C930 C921 1.429 . S
C930 N927 1.350 . S
C930 C929 1.434 . S
C931 C932 1.369 . S
C931 C933 1.419 . S
C931 H935 0.930 . S
C932 C931 1.369 . S
C932 C941 1.429 . S
C933 C931 1.419 . S
C933 C934 1.363 . S
C933 H936 0.929 . S
C934 C933 1.363 . S
C934 C940 1.428 . S
H935 C931 0.930 . S
H936 C933 0.929 . S
S937 N938 1.613 . S
S937 N939 1.610 . S
N938 S937 1.613 . S
N938 C941 1.350 . S
N939 S937 1.610 . S
N939 C940 1.351 . S
C940 C934 1.428 . S
C940 N939 1.351 . S
C940 C941 1.434 . S
C941 C932 1.429 . S
C941 N938 1.350 . S
C941 C940 1.434 . S
C942 C943 1.369 . S
C942 C944 1.419 . S
C942 H946 0.930 . S
C943 C942 1.369 . S
C943 C952 1.429 . S
C944 C942 1.419 . S
C944 C945 1.363 . S
C944 H947 0.929 . S
C945 C944 1.363 . S
C945 C951 1.428 . S
H946 C942 0.930 . S
H947 C944 0.929 . S
S948 N949 1.613 . S
S948 N950 1.610 . S
N949 S948 1.613 . S
N949 C952 1.350 . S
N950 S948 1.610 . S
N950 C951 1.351 . S
C951 C945 1.428 . S
C951 N950 1.351 . S
C951 C952 1.434 . S
C952 C943 1.429 . S
C952 N949 1.350 . S
C952 C951 1.434 . S
C953 C954 1.369 . S
C953 C955 1.419 . S
C953 H957 0.930 . S
C954 C953 1.369 . S
C954 C963 1.429 . S
C955 C953 1.419 . S
C955 C956 1.363 . S
C955 H958 0.929 . S
C956 C955 1.363 . S
C956 C962 1.428 . S
H957 C953 0.930 . S
H958 C955 0.929 . S
S959 N960 1.613 . S
S959 N961 1.610 . S
N960 S959 1.613 . S
N960 C963 1.350 . S
N961 S959 1.610 . S
N961 C962 1.351 . S
C962 C956 1.428 . S
C962 N961 1.351 . S
C962 C963 1.434 . S
C963 C954 1.429 . S
C963 N960 1.350 . S
C963 C962 1.434 . S
C964 C965 1.369 . S
C964 C966 1.419 . S
C964 H968 0.930 . S
C965 C964 1.369 . S
C965 C974 1.429 1_455 S
C966 C964 1.419 . S
C966 C967 1.363 . S
C966 H969 0.929 . S
C967 C966 1.363 . S
C967 C973 1.428 1_455 S
H968 C964 0.930 . S
H969 C966 0.929 . S
S970 N971 1.613 . S
S970 N972 1.610 . S
N971 S970 1.613 . S
N971 C974 1.350 . S
N972 S970 1.610 . S
N972 C973 1.351 . S
C973 C967 1.428 1_655 S
C973 N972 1.351 . S
C973 C974 1.434 . S
C974 C965 1.429 1_655 S
C974 N971 1.350 . S
C974 C973 1.434 . S
C975 C976 1.369 . S
C975 C977 1.419 . S
C975 H979 0.930 . S
C976 C975 1.369 . S
C976 C985 1.429 . S
C977 C975 1.419 . S
C977 C978 1.363 . S
C977 H980 0.929 . S
C978 C977 1.363 . S
C978 C984 1.428 . S
H979 C975 0.930 . S
H980 C977 0.929 . S
S981 N982 1.613 . S
S981 N983 1.610 . S
N982 S981 1.613 . S
N982 C985 1.350 . S
N983 S981 1.610 . S
N983 C984 1.351 . S
C984 C978 1.428 . S
C984 N983 1.351 . S
C984 C985 1.434 . S
C985 C976 1.429 . S
C985 N982 1.350 . S
C985 C984 1.434 . S
C986 C987 1.369 . S
C986 C988 1.419 . S
C986 H990 0.930 . S
C987 C986 1.369 . S
C987 C996 1.429 . S
C988 C986 1.419 . S
C988 C989 1.363 . S
C988 H991 0.929 . S
C989 C988 1.363 . S
C989 C995 1.428 . S
H990 C986 0.930 . S
H991 C988 0.929 . S
S992 N993 1.613 . S
S992 N994 1.610 . S
N993 S992 1.613 . S
N993 C996 1.350 . S
N994 S992 1.610 . S
N994 C995 1.351 . S
C995 C989 1.428 . S
C995 N994 1.351 . S
C995 C996 1.434 . S
C996 C987 1.429 . S
C996 N993 1.350 . S
C996 C995 1.434 . S
C997 C998 1.369 . S
C997 C999 1.419 . S
C997 H1001 0.930 . S
C998 C997 1.369 . S
C998 C1007 1.429 . S
C999 C997 1.419 . S
C999 C1000 1.363 . S
C999 H1002 0.929 . S
C1000 C999 1.363 . S
C1000 C1006 1.428 . S
H1001 C997 0.930 . S
H1002 C999 0.929 . S
S1003 N1004 1.613 . S
S1003 N1005 1.610 . S
N1004 S1003 1.613 . S
N1004 C1007 1.350 . S
N1005 S1003 1.610 . S
N1005 C1006 1.351 . S
C1006 C1000 1.428 . S
C1006 N1005 1.351 . S
C1006 C1007 1.434 . S
C1007 C998 1.429 . S
C1007 N1004 1.350 . S
C1007 C1006 1.434 . S
C1008 C1009 1.369 . S
C1008 C1010 1.419 . S
C1008 H1012 0.930 . S
C1009 C1008 1.369 . S
C1009 C1018 1.427 1_545 S
C1010 C1008 1.419 . S
C1010 C1011 1.363 . S
C1010 H1013 0.929 . S
C1011 C1010 1.363 . S
C1011 C1017 1.429 . S
H1012 C1008 0.930 . S
H1013 C1010 0.929 . S
S1014 N1015 1.613 . S
S1014 N1016 1.610 . S
N1015 S1014 1.613 . S
N1015 C1018 1.354 . S
N1016 S1014 1.610 . S
N1016 C1017 1.351 1_565 S
C1017 C1011 1.429 . S
C1017 N1016 1.351 1_545 S
C1017 C1018 1.432 1_545 S
C1018 C1009 1.427 1_565 S
C1018 N1015 1.354 . S
C1018 C1017 1.432 1_565 S
C1019 C1020 1.369 . S
C1019 C1021 1.419 . S
C1019 H1023 0.930 . S
C1020 C1019 1.369 . S
C1020 C1029 1.429 . S
C1021 C1019 1.419 . S
C1021 C1022 1.363 . S
C1021 H1024 0.929 . S
C1022 C1021 1.363 . S
C1022 C1028 1.428 . S
H1023 C1019 0.930 . S
H1024 C1021 0.929 . S
S1025 N1026 1.613 . S
S1025 N1027 1.610 . S
N1026 S1025 1.613 . S
N1026 C1029 1.350 . S
N1027 S1025 1.610 . S
N1027 C1028 1.351 . S
C1028 C1022 1.428 . S
C1028 N1027 1.351 . S
C1028 C1029 1.434 . S
C1029 C1020 1.429 . S
C1029 N1026 1.350 . S
C1029 C1028 1.434 . S
C1030 C1031 1.369 . S
C1030 C1032 1.419 . S
C1030 H1034 0.930 . S
C1031 C1030 1.369 . S
C1031 C1040 1.454 . S
C1032 C1030 1.419 . S
C1032 C1033 1.363 . S
C1032 H1035 0.929 . S
C1033 C1032 1.363 . S
C1033 C1039 1.428 . S
H1034 C1030 0.930 . S
H1035 C1032 0.929 . S
S1036 N1037 1.613 . S
S1036 N1038 1.610 . S
N1037 S1036 1.613 . S
N1037 C1040 1.326 1_565 S
N1038 S1036 1.610 . S
N1038 C1039 1.351 1_565 S
C1039 C1033 1.428 . S
C1039 N1038 1.351 1_545 S
C1039 C1040 1.430 . S
C1040 C1031 1.454 . S
C1040 N1037 1.326 1_545 S
C1040 C1039 1.430 . S
C1041 C1042 1.369 . S
C1041 C1043 1.419 . S
C1041 H1045 0.930 . S
C1042 C1041 1.369 . S
C1042 C1051 1.429 . S
C1043 C1041 1.419 . S
C1043 C1044 1.363 . S
C1043 H1046 0.929 . S
C1044 C1043 1.363 . S
C1044 C1050 1.428 . S
H1045 C1041 0.930 . S
H1046 C1043 0.929 . S
S1047 N1048 1.613 . S
S1047 N1049 1.610 . S
N1048 S1047 1.613 . S
N1048 C1051 1.350 . S
N1049 S1047 1.610 . S
N1049 C1050 1.351 . S
C1050 C1044 1.428 . S
C1050 N1049 1.351 . S
C1050 C1051 1.434 . S
C1051 C1042 1.429 . S
C1051 N1048 1.350 . S
C1051 C1050 1.434 . S
C1052 C1053 1.369 1_565 S
C1052 C1054 1.419 1_565 S
C1052 H1056 0.930 . S
C1053 C1052 1.369 1_545 S
C1053 C1062 1.429 . S
C1054 C1052 1.419 1_545 S
C1054 C1055 1.363 . S
C1054 H1057 0.929 . S
C1055 C1054 1.363 . S
C1055 C1061 1.428 . S
H1056 C1052 0.930 . S
H1057 C1054 0.929 . S
S1058 N1059 1.613 . S
S1058 N1060 1.610 . S
N1059 S1058 1.613 . S
N1059 C1062 1.350 . S
N1060 S1058 1.610 . S
N1060 C1061 1.351 . S
C1061 C1055 1.428 . S
C1061 N1060 1.351 . S
C1061 C1062 1.434 . S
C1062 C1053 1.429 . S
C1062 N1059 1.350 . S
C1062 C1061 1.434 . S
C1063 C1064 1.369 . S
C1063 C1065 1.419 . S
C1063 H1067 0.930 . S
C1064 C1063 1.369 . S
C1064 C1073 1.429 . S
C1065 C1063 1.419 . S
C1065 C1066 1.363 . S
C1065 H1068 0.929 . S
C1066 C1065 1.363 . S
C1066 C1072 1.428 . S
H1067 C1063 0.930 . S
H1068 C1065 0.929 . S
S1069 N1070 1.613 . S
S1069 N1071 1.610 . S
N1070 S1069 1.613 . S
N1070 C1073 1.350 . S
N1071 S1069 1.610 . S
N1071 C1072 1.351 . S
C1072 C1066 1.428 . S
C1072 N1071 1.351 . S
C1072 C1073 1.434 . S
C1073 C1064 1.429 . S
C1073 N1070 1.350 . S
C1073 C1072 1.434 . S
C1074 C1075 1.369 1_565 S
C1074 C1076 1.419 . S
C1074 H1078 0.930 . S
C1075 C1074 1.369 1_545 S
C1075 C1084 1.429 . S
C1076 C1074 1.419 . S
C1076 C1077 1.363 . S
C1076 H1079 0.929 . S
C1077 C1076 1.363 . S
C1077 C1083 1.428 1_565 S
H1078 C1074 0.930 . S
H1079 C1076 0.929 . S
S1080 N1081 1.613 . S
S1080 N1082 1.610 . S
N1081 S1080 1.613 . S
N1081 C1084 1.350 . S
N1082 S1080 1.610 . S
N1082 C1083 1.351 . S
C1083 C1077 1.428 1_545 S
C1083 N1082 1.351 . S
C1083 C1084 1.434 . S
C1084 C1075 1.429 . S
C1084 N1081 1.350 . S
C1084 C1083 1.434 . S
C1085 C1086 1.369 . S
C1085 C1087 1.419 . S
C1085 H1089 0.930 . S
C1086 C1085 1.369 . S
C1086 C1095 1.429 . S
C1087 C1085 1.419 . S
C1087 C1088 1.363 . S
C1087 H1090 0.929 . S
C1088 C1087 1.363 . S
C1088 C1094 1.428 . S
H1089 C1085 0.930 . S
H1090 C1087 0.929 . S
S1091 N1092 1.613 . S
S1091 N1093 1.610 . S
N1092 S1091 1.613 . S
N1092 C1095 1.350 . S
N1093 S1091 1.610 . S
N1093 C1094 1.351 . S
C1094 C1088 1.428 . S
C1094 N1093 1.351 . S
C1094 C1095 1.434 . S
C1095 C1086 1.429 . S
C1095 N1092 1.350 . S
C1095 C1094 1.434 . S
C1096 C1097 1.369 . S
C1096 C1098 1.419 . S
C1096 H1100 0.930 . S
C1097 C1096 1.369 . S
C1097 C1106 1.429 1_554 S
C1098 C1096 1.419 . S
C1098 C1099 1.363 1_554 S
C1098 H1101 0.929 . S
C1099 C1098 1.363 1_556 S
C1099 C1105 1.428 . S
H1100 C1096 0.930 . S
H1101 C1098 0.929 . S
S1102 N1103 1.613 . S
S1102 N1104 1.610 . S
N1103 S1102 1.613 . S
N1103 C1106 1.350 . S
N1104 S1102 1.610 . S
N1104 C1105 1.351 . S
C1105 C1099 1.428 . S
C1105 N1104 1.351 . S
C1105 C1106 1.434 . S
C1106 C1097 1.429 1_556 S
C1106 N1103 1.350 . S
C1106 C1105 1.434 . S
C1107 C1108 1.369 . S
C1107 C1109 1.419 . S
C1107 H1111 0.930 . S
C1108 C1107 1.369 . S
C1108 C1117 1.429 . S
C1109 C1107 1.419 . S
C1109 C1110 1.363 . S
C1109 H1112 0.929 . S
C1110 C1109 1.363 . S
C1110 C1116 1.428 . S
H1111 C1107 0.930 . S
H1112 C1109 0.929 . S
S1113 N1114 1.613 . S
S1113 N1115 1.610 . S
N1114 S1113 1.613 . S
N1114 C1117 1.350 . S
N1115 S1113 1.610 . S
N1115 C1116 1.351 . S
C1116 C1110 1.428 . S
C1116 N1115 1.351 . S
C1116 C1117 1.434 . S
C1117 C1108 1.429 . S
C1117 N1114 1.350 . S
C1117 C1116 1.434 . S
C1118 C1119 1.369 . S
C1118 C1120 1.419 . S
C1118 H1122 0.930 . S
C1119 C1118 1.369 . S
C1119 C1128 1.429 . S
C1120 C1118 1.419 . S
C1120 C1121 1.363 . S
C1120 H1123 0.929 . S
C1121 C1120 1.363 . S
C1121 C1127 1.428 . S
H1122 C1118 0.930 . S
H1123 C1120 0.929 . S
S1124 N1125 1.613 . S
S1124 N1126 1.610 . S
N1125 S1124 1.613 . S
N1125 C1128 1.350 . S
N1126 S1124 1.610 . S
N1126 C1127 1.351 . S
C1127 C1121 1.428 . S
C1127 N1126 1.351 . S
C1127 C1128 1.434 . S
C1128 C1119 1.429 . S
C1128 N1125 1.350 . S
C1128 C1127 1.434 . S
C1129 C1130 1.369 . S
C1129 C1131 1.419 . S
C1129 H1133 0.930 . S
C1130 C1129 1.369 . S
C1130 C1139 1.429 . S
C1131 C1129 1.419 . S
C1131 C1132 1.363 . S
C1131 H1134 0.929 . S
C1132 C1131 1.363 . S
C1132 C1138 1.428 . S
H1133 C1129 0.930 . S
H1134 C1131 0.929 . S
S1135 N1136 1.613 . S
S1135 N1137 1.610 . S
N1136 S1135 1.613 . S
N1136 C1139 1.350 . S
N1137 S1135 1.610 . S
N1137 C1138 1.351 . S
C1138 C1132 1.428 . S
C1138 N1137 1.351 . S
C1138 C1139 1.434 . S
C1139 C1130 1.429 . S
C1139 N1136 1.350 . S
C1139 C1138 1.434 . S
C1140 C1141 1.369 . S
C1140 C1142 1.419 . S
C1140 H1144 0.930 . S
C1141 C1140 1.369 . S
C1141 C1150 1.429 . S
C1142 C1140 1.419 . S
C1142 C1143 1.363 . S
C1142 H1145 0.929 . S
C1143 C1142 1.363 . S
C1143 C1149 1.428 . S
H1144 C1140 0.930 . S
H1145 C1142 0.929 . S
S1146 N1147 1.613 . S
S1146 N1148 1.610 . S
N1147 S1146 1.613 . S
N1147 C1150 1.350 . S
N1148 S1146 1.610 . S
N1148 C1149 1.351 . S
C1149 C1143 1.428 . S
C1149 N1148 1.351 . S
C1149 C1150 1.434 . S
C1150 C1141 1.429 . S
C1150 N1147 1.350 . S
C1150 C1149 1.434 . S
C1151 C1152 1.369 . S
C1151 C1153 1.419 . S
C1151 H1155 0.930 . S
C1152 C1151 1.369 . S
C1152 C1161 1.429 . S
C1153 C1151 1.419 . S
C1153 C1154 1.363 . S
C1153 H1156 0.929 . S
C1154 C1153 1.363 . S
C1154 C1160 1.428 . S
H1155 C1151 0.930 . S
H1156 C1153 0.929 . S
S1157 N1158 1.613 . S
S1157 N1159 1.610 . S
N1158 S1157 1.613 . S
N1158 C1161 1.350 . S
N1159 S1157 1.610 . S
N1159 C1160 1.351 . S
C1160 C1154 1.428 . S
C1160 N1159 1.351 . S
C1160 C1161 1.434 . S
C1161 C1152 1.429 . S
C1161 N1158 1.350 . S
C1161 C1160 1.434 . S
C1162 C1163 1.369 . S
C1162 C1164 1.419 . S
C1162 H1166 0.930 . S
C1163 C1162 1.369 . S
C1163 C1172 1.429 . S
C1164 C1162 1.419 . S
C1164 C1165 1.363 . S
C1164 H1167 0.929 . S
C1165 C1164 1.363 . S
C1165 C1171 1.428 . S
H1166 C1162 0.930 . S
H1167 C1164 0.929 . S
S1168 N1169 1.613 . S
S1168 N1170 1.610 . S
N1169 S1168 1.613 . S
N1169 C1172 1.350 . S
N1170 S1168 1.610 . S
N1170 C1171 1.351 . S
C1171 C1165 1.428 . S
C1171 N1170 1.351 . S
C1171 C1172 1.434 . S
C1172 C1163 1.429 . S
C1172 N1169 1.350 . S
C1172 C1171 1.434 . S
C1173 C1174 1.369 . S
C1173 C1175 1.419 . S
C1173 H1177 0.930 . S
C1174 C1173 1.369 . S
C1174 C1183 1.429 . S
C1175 C1173 1.419 . S
C1175 C1176 1.363 . S
C1175 H1178 0.929 . S
C1176 C1175 1.363 . S
C1176 C1182 1.428 . S
H1177 C1173 0.930 . S
H1178 C1175 0.929 . S
S1179 N1180 1.613 . S
S1179 N1181 1.610 . S
N1180 S1179 1.613 . S
N1180 C1183 1.350 . S
N1181 S1179 1.610 . S
N1181 C1182 1.351 . S
C1182 C1176 1.428 . S
C1182 N1181 1.351 . S
C1182 C1183 1.434 . S
C1183 C1174 1.429 . S
C1183 N1180 1.350 . S
C1183 C1182 1.434 . S
C1184 C1185 1.369 . S
C1184 C1186 1.419 . S
C1184 H1188 0.930 . S
C1185 C1184 1.369 . S
C1185 C1194 1.429 . S
C1186 C1184 1.419 . S
C1186 C1187 1.363 . S
C1186 H1189 0.929 . S
C1187 C1186 1.363 . S
C1187 C1193 1.428 . S
H1188 C1184 0.930 . S
H1189 C1186 0.929 . S
S1190 N1191 1.613 . S
S1190 N1192 1.610 . S
N1191 S1190 1.613 . S
N1191 C1194 1.350 . S
N1192 S1190 1.610 . S
N1192 C1193 1.351 . S
C1193 C1187 1.428 . S
C1193 N1192 1.351 . S
C1193 C1194 1.434 . S
C1194 C1185 1.429 . S
C1194 N1191 1.350 . S
C1194 C1193 1.434 . S
C1195 C1196 1.369 . S
C1195 C1197 1.419 . S
C1195 H1199 0.930 . S
C1196 C1195 1.369 . S
C1196 C1205 1.429 . S
C1197 C1195 1.419 . S
C1197 C1198 1.363 . S
C1197 H1200 0.929 . S
C1198 C1197 1.363 . S
C1198 C1204 1.428 . S
H1199 C1195 0.930 . S
H1200 C1197 0.929 . S
S1201 N1202 1.613 . S
S1201 N1203 1.610 . S
N1202 S1201 1.613 . S
N1202 C1205 1.350 . S
N1203 S1201 1.610 . S
N1203 C1204 1.351 . S
C1204 C1198 1.428 . S
C1204 N1203 1.351 . S
C1204 C1205 1.434 . S
C1205 C1196 1.429 . S
C1205 N1202 1.350 . S
C1205 C1204 1.434 . S
C1206 C1207 1.369 . S
C1206 C1208 1.419 1_556 S
C1206 H1210 0.930 1_455 S
C1207 C1206 1.369 . S
C1207 C1216 1.429 . S
C1208 C1206 1.419 1_554 S
C1208 C1209 1.363 . S
C1208 H1211 0.930 . S
C1209 C1208 1.363 . S
C1209 C1215 1.429 1_554 S
H1210 C1206 0.930 1_655 S
H1211 C1208 0.930 . S
S1212 N1213 1.613 . S
S1212 N1214 1.610 . S
N1213 S1212 1.613 . S
N1213 C1216 1.350 . S
N1214 S1212 1.610 . S
N1214 C1215 1.351 . S
C1215 C1209 1.429 1_556 S
C1215 N1214 1.351 . S
C1215 C1216 1.434 . S
C1216 C1207 1.429 . S
C1216 N1213 1.350 . S
C1216 C1215 1.434 . S
C1217 C1218 1.369 . S
C1217 C1219 1.419 . S
C1217 H1221 0.930 . S
C1218 C1217 1.369 . S
C1218 C1227 1.429 . S
C1219 C1217 1.419 . S
C1219 C1220 1.363 . S
C1219 H1222 0.929 . S
C1220 C1219 1.363 . S
C1220 C1226 1.428 . S
H1221 C1217 0.930 . S
H1222 C1219 0.929 . S
S1223 N1224 1.613 . S
S1223 N1225 1.610 . S
N1224 S1223 1.613 . S
N1224 C1227 1.350 . S
N1225 S1223 1.610 . S
N1225 C1226 1.351 . S
C1226 C1220 1.428 . S
C1226 N1225 1.351 . S
C1226 C1227 1.434 . S
C1227 C1218 1.429 . S
C1227 N1224 1.350 . S
C1227 C1226 1.434 . S
C1228 C1229 1.369 . S
C1228 C1230 1.419 . S
C1228 H1232 0.930 . S
C1229 C1228 1.369 . S
C1229 C1238 1.429 . S
C1230 C1228 1.419 . S
C1230 C1231 1.363 . S
C1230 H1233 0.929 . S
C1231 C1230 1.363 . S
C1231 C1237 1.428 . S
H1232 C1228 0.930 . S
H1233 C1230 0.929 . S
S1234 N1235 1.613 . S
S1234 N1236 1.610 . S
N1235 S1234 1.613 . S
N1235 C1238 1.350 . S
N1236 S1234 1.610 . S
N1236 C1237 1.351 . S
C1237 C1231 1.428 . S
C1237 N1236 1.351 . S
C1237 C1238 1.434 . S
C1238 C1229 1.429 . S
C1238 N1235 1.350 . S
C1238 C1237 1.434 . S
C1239 C1240 1.369 . S
C1239 C1241 1.419 . S
C1239 H1243 0.930 . S
C1240 C1239 1.369 . S
C1240 C1249 1.429 . S
C1241 C1239 1.419 . S
C1241 C1242 1.363 . S
C1241 H1244 0.929 . S
C1242 C1241 1.363 . S
C1242 C1248 1.428 . S
H1243 C1239 0.930 . S
H1244 C1241 0.929 . S
S1245 N1246 1.613 . S
S1245 N1247 1.610 . S
N1246 S1245 1.613 . S
N1246 C1249 1.350 . S
N1247 S1245 1.610 . S
N1247 C1248 1.351 . S
C1248 C1242 1.428 . S
C1248 N1247 1.351 . S
C1248 C1249 1.434 . S
C1249 C1240 1.429 . S
C1249 N1246 1.350 . S
C1249 C1248 1.434 . S
C1250 C1251 1.369 1_655 S
C1250 C1252 1.419 . S
C1250 H1254 0.930 . S
C1251 C1250 1.369 1_455 S
C1251 C1260 1.429 . S
C1252 C1250 1.419 . S
C1252 C1253 1.363 1_655 S
C1252 H1255 0.929 . S
C1253 C1252 1.363 1_455 S
C1253 C1259 1.428 . S
H1254 C1250 0.930 . S
H1255 C1252 0.929 . S
S1256 N1257 1.613 . S
S1256 N1258 1.610 . S
N1257 S1256 1.613 . S
N1257 C1260 1.350 . S
N1258 S1256 1.610 . S
N1258 C1259 1.351 . S
C1259 C1253 1.428 . S
C1259 N1258 1.351 . S
C1259 C1260 1.434 . S
C1260 C1251 1.429 . S
C1260 N1257 1.350 . S
C1260 C1259 1.434 . S
C1261 C1262 1.369 . S
C1261 C1263 1.419 . S
C1261 H1265 0.930 . S
C1262 C1261 1.369 . S
C1262 C1271 1.429 . S
C1263 C1261 1.419 . S
C1263 C1264 1.363 . S
C1263 H1266 0.929 . S
C1264 C1263 1.363 . S
C1264 C1270 1.428 . S
H1265 C1261 0.930 . S
H1266 C1263 0.929 . S
S1267 N1268 1.613 . S
S1267 N1269 1.610 . S
N1268 S1267 1.613 . S
N1268 C1271 1.350 . S
N1269 S1267 1.610 . S
N1269 C1270 1.351 . S
C1270 C1264 1.428 . S
C1270 N1269 1.351 . S
C1270 C1271 1.434 . S
C1271 C1262 1.429 . S
C1271 N1268 1.350 . S
C1271 C1270 1.434 . S
C1272 C1273 1.369 . S
C1272 C1274 1.419 . S
C1272 H1276 0.930 . S
C1273 C1272 1.369 . S
C1273 C1282 1.429 . S
C1274 C1272 1.419 . S
C1274 C1275 1.363 . S
C1274 H1277 0.929 . S
C1275 C1274 1.363 . S
C1275 C1281 1.428 . S
H1276 C1272 0.930 . S
H1277 C1274 0.929 . S
S1278 N1279 1.613 . S
S1278 N1280 1.610 . S
N1279 S1278 1.613 . S
N1279 C1282 1.350 . S
N1280 S1278 1.610 . S
N1280 C1281 1.351 . S
C1281 C1275 1.428 . S
C1281 N1280 1.351 . S
C1281 C1282 1.434 . S
C1282 C1273 1.429 . S
C1282 N1279 1.350 . S
C1282 C1281 1.434 . S
C1283 C1284 1.369 . S
C1283 C1285 1.419 . S
C1283 H1287 0.930 . S
C1284 C1283 1.369 . S
C1284 C1293 1.429 . S
C1285 C1283 1.419 . S
C1285 C1286 1.363 . S
C1285 H1288 0.929 . S
C1286 C1285 1.363 . S
C1286 C1292 1.428 . S
H1287 C1283 0.930 . S
H1288 C1285 0.929 . S
S1289 N1290 1.613 . S
S1289 N1291 1.610 . S
N1290 S1289 1.613 . S
N1290 C1293 1.350 . S
N1291 S1289 1.610 . S
N1291 C1292 1.351 . S
C1292 C1286 1.428 . S
C1292 N1291 1.351 . S
C1292 C1293 1.434 . S
C1293 C1284 1.429 . S
C1293 N1290 1.350 . S
C1293 C1292 1.434 . S
C1294 C1295 1.369 . S
C1294 C1296 1.419 . S
C1294 H1298 0.930 . S
C1295 C1294 1.369 . S
C1295 C1304 1.429 . S
C1296 C1294 1.419 . S
C1296 C1297 1.363 . S
C1296 H1299 0.929 . S
C1297 C1296 1.363 . S
C1297 C1303 1.428 . S
H1298 C1294 0.930 . S
H1299 C1296 0.929 . S
S1300 N1301 1.613 . S
S1300 N1302 1.610 . S
N1301 S1300 1.613 . S
N1301 C1304 1.350 . S
N1302 S1300 1.610 . S
N1302 C1303 1.351 . S
C1303 C1297 1.428 . S
C1303 N1302 1.351 . S
C1303 C1304 1.434 . S
C1304 C1295 1.429 . S
C1304 N1301 1.350 . S
C1304 C1303 1.434 . S
C1305 C1306 1.369 . S
C1305 C1307 1.419 . S
C1305 H1309 0.930 . S
C1306 C1305 1.369 . S
C1306 C1315 1.429 . S
C1307 C1305 1.419 . S
C1307 C1308 1.363 . S
C1307 H1310 0.929 . S
C1308 C1307 1.363 . S
C1308 C1314 1.428 . S
H1309 C1305 0.930 . S
H1310 C1307 0.929 . S
S1311 N1312 1.613 . S
S1311 N1313 1.610 . S
N1312 S1311 1.613 . S
N1312 C1315 1.350 . S
N1313 S1311 1.610 . S
N1313 C1314 1.351 . S
C1314 C1308 1.428 . S
C1314 N1313 1.351 . S
C1314 C1315 1.434 . S
C1315 C1306 1.429 . S
C1315 N1312 1.350 . S
C1315 C1314 1.434 . S
C1316 C1317 1.369 . S
C1316 C1318 1.419 . S
C1316 H1320 0.930 . S
C1317 C1316 1.369 . S
C1317 C1326 1.429 . S
C1318 C1316 1.419 . S
C1318 C1319 1.363 . S
C1318 H1321 0.929 . S
C1319 C1318 1.363 . S
C1319 C1325 1.428 . S
H1320 C1316 0.930 . S
H1321 C1318 0.929 . S
S1322 N1323 1.613 . S
S1322 N1324 1.610 . S
N1323 S1322 1.613 . S
N1323 C1326 1.350 . S
N1324 S1322 1.610 . S
N1324 C1325 1.351 . S
C1325 C1319 1.428 . S
C1325 N1324 1.351 . S
C1325 C1326 1.434 . S
C1326 C1317 1.429 . S
C1326 N1323 1.350 . S
C1326 C1325 1.434 . S
C1327 C1328 1.369 . S
C1327 C1329 1.419 . S
C1327 H1331 0.930 . S
C1328 C1327 1.369 . S
C1328 C1337 1.429 . S
C1329 C1327 1.419 . S
C1329 C1330 1.363 . S
C1329 H1332 0.929 . S
C1330 C1329 1.363 . S
C1330 C1336 1.428 . S
H1331 C1327 0.930 . S
H1332 C1329 0.929 . S
S1333 N1334 1.613 . S
S1333 N1335 1.610 . S
N1334 S1333 1.613 . S
N1334 C1337 1.350 . S
N1335 S1333 1.610 . S
N1335 C1336 1.351 . S
C1336 C1330 1.428 . S
C1336 N1335 1.351 . S
C1336 C1337 1.434 . S
C1337 C1328 1.429 . S
C1337 N1334 1.350 . S
C1337 C1336 1.434 . S
C1338 C1339 1.369 . S
C1338 C1340 1.419 . S
C1338 H1342 0.930 . S
C1339 C1338 1.369 . S
C1339 C1348 1.429 . S
C1340 C1338 1.419 . S
C1340 C1341 1.363 . S
C1340 H1343 0.929 . S
C1341 C1340 1.363 . S
C1341 C1347 1.428 . S
H1342 C1338 0.930 . S
H1343 C1340 0.929 . S
S1344 N1345 1.613 . S
S1344 N1346 1.610 . S
N1345 S1344 1.613 . S
N1345 C1348 1.350 . S
N1346 S1344 1.610 . S
N1346 C1347 1.351 . S
C1347 C1341 1.428 . S
C1347 N1346 1.351 . S
C1347 C1348 1.434 . S
C1348 C1339 1.429 . S
C1348 N1345 1.350 . S
C1348 C1347 1.434 . S
C1349 C1350 1.369 . S
C1349 C1351 1.419 . S
C1349 H1353 0.930 . S
C1350 C1349 1.369 . S
C1350 C1359 1.429 . S
C1351 C1349 1.419 . S
C1351 C1352 1.363 . S
C1351 H1354 0.929 . S
C1352 C1351 1.363 . S
C1352 C1358 1.428 . S
H1353 C1349 0.930 . S
H1354 C1351 0.929 . S
S1355 N1356 1.613 . S
S1355 N1357 1.610 . S
N1356 S1355 1.613 . S
N1356 C1359 1.350 . S
N1357 S1355 1.610 . S
N1357 C1358 1.351 . S
C1358 C1352 1.428 . S
C1358 N1357 1.351 . S
C1358 C1359 1.434 . S
C1359 C1350 1.429 . S
C1359 N1356 1.350 . S
C1359 C1358 1.434 . S
C1360 C1361 1.369 . S
C1360 C1362 1.419 . S
C1360 H1364 0.930 . S
C1361 C1360 1.369 . S
C1361 C1370 1.429 . S
C1362 C1360 1.419 . S
C1362 C1363 1.363 . S
C1362 H1365 0.929 . S
C1363 C1362 1.363 . S
C1363 C1369 1.428 . S
H1364 C1360 0.930 . S
H1365 C1362 0.929 . S
S1366 N1367 1.613 . S
S1366 N1368 1.610 . S
N1367 S1366 1.613 . S
N1367 C1370 1.350 . S
N1368 S1366 1.610 . S
N1368 C1369 1.351 . S
C1369 C1363 1.428 . S
C1369 N1368 1.351 . S
C1369 C1370 1.434 . S
C1370 C1361 1.429 . S
C1370 N1367 1.350 . S
C1370 C1369 1.434 . S
C1371 C1372 1.369 . S
C1371 C1373 1.419 . S
C1371 H1375 0.930 . S
C1372 C1371 1.369 . S
C1372 C1381 1.429 . S
C1373 C1371 1.419 . S
C1373 C1374 1.363 . S
C1373 H1376 0.929 . S
C1374 C1373 1.363 . S
C1374 C1380 1.428 . S
H1375 C1371 0.930 . S
H1376 C1373 0.929 . S
S1377 N1378 1.613 . S
S1377 N1379 1.610 . S
N1378 S1377 1.613 . S
N1378 C1381 1.350 . S
N1379 S1377 1.610 . S
N1379 C1380 1.351 . S
C1380 C1374 1.428 . S
C1380 N1379 1.351 . S
C1380 C1381 1.434 . S
C1381 C1372 1.429 . S
C1381 N1378 1.350 . S
C1381 C1380 1.434 . S
C1382 C1383 1.369 . S
C1382 C1384 1.419 . S
C1382 H1386 0.930 . S
C1383 C1382 1.369 . S
C1383 C1392 1.429 . S
C1384 C1382 1.419 . S
C1384 C1385 1.363 . S
C1384 H1387 0.929 . S
C1385 C1384 1.363 . S
C1385 C1391 1.428 . S
H1386 C1382 0.930 . S
H1387 C1384 0.929 . S
S1388 N1389 1.613 . S
S1388 N1390 1.610 . S
N1389 S1388 1.613 . S
N1389 C1392 1.350 . S
N1390 S1388 1.610 . S
N1390 C1391 1.351 . S
C1391 C1385 1.428 . S
C1391 N1390 1.351 . S
C1391 C1392 1.434 . S
C1392 C1383 1.429 . S
C1392 N1389 1.350 . S
C1392 C1391 1.434 . S
C1393 C1394 1.369 . S
C1393 C1395 1.419 . S
C1393 H1397 0.930 . S
C1394 C1393 1.369 . S
C1394 C1403 1.429 1_554 S
C1395 C1393 1.419 . S
C1395 C1396 1.363 . S
C1395 H1398 0.929 . S
C1396 C1395 1.363 . S
C1396 C1402 1.428 1_554 S
H1397 C1393 0.930 . S
H1398 C1395 0.929 . S
S1399 N1400 1.613 . S
S1399 N1401 1.610 . S
N1400 S1399 1.613 . S
N1400 C1403 1.350 . S
N1401 S1399 1.610 . S
N1401 C1402 1.351 . S
C1402 C1396 1.428 1_556 S
C1402 N1401 1.351 . S
C1402 C1403 1.434 . S
C1403 C1394 1.429 1_556 S
C1403 N1400 1.350 . S
C1403 C1402 1.434 . S
C1404 C1405 1.369 . S
C1404 C1406 1.419 . S
C1404 H1408 0.930 . S
C1405 C1404 1.369 . S
C1405 C1414 1.429 . S
C1406 C1404 1.419 . S
C1406 C1407 1.363 . S
C1406 H1409 0.929 . S
C1407 C1406 1.363 . S
C1407 C1413 1.428 . S
H1408 C1404 0.930 . S
H1409 C1406 0.929 . S
S1410 N1411 1.613 . S
S1410 N1412 1.610 . S
N1411 S1410 1.613 . S
N1411 C1414 1.350 . S
N1412 S1410 1.610 . S
N1412 C1413 1.351 . S
C1413 C1407 1.428 . S
C1413 N1412 1.351 . S
C1413 C1414 1.434 . S
C1414 C1405 1.429 . S
C1414 N1411 1.350 . S
C1414 C1413 1.434 . S
C1415 C1416 1.369 . S
C1415 C1417 1.419 . S
C1415 H1419 0.930 . S
C1416 C1415 1.369 . S
C1416 C1425 1.429 . S
C1417 C1415 1.419 . S
C1417 C1418 1.363 . S
C1417 H1420 0.929 . S
C1418 C1417 1.363 . S
C1418 C1424 1.428 . S
H1419 C1415 0.930 . S
H1420 C1417 0.929 . S
S1421 N1422 1.613 . S
S1421 N1423 1.610 . S
N1422 S1421 1.613 . S
N1422 C1425 1.350 . S
N1423 S1421 1.610 . S
N1423 C1424 1.351 . S
C1424 C1418 1.428 . S
C1424 N1423 1.351 . S
C1424 C1425 1.434 . S
C1425 C1416 1.429 . S
C1425 N1422 1.350 . S
C1425 C1424 1.434 . S
C1426 C1427 1.369 . S
C1426 C1428 1.419 . S
C1426 H1430 0.930 . S
C1427 C1426 1.369 . S
C1427 C1436 1.429 . S
C1428 C1426 1.419 . S
C1428 C1429 1.363 . S
C1428 H1431 0.929 . S
C1429 C1428 1.363 . S
C1429 C1435 1.428 . S
H1430 C1426 0.930 . S
H1431 C1428 0.929 . S
S1432 N1433 1.613 . S
S1432 N1434 1.610 . S
N1433 S1432 1.613 . S
N1433 C1436 1.350 . S
N1434 S1432 1.610 . S
N1434 C1435 1.351 . S
C1435 C1429 1.428 . S
C1435 N1434 1.351 . S
C1435 C1436 1.434 . S
C1436 C1427 1.429 . S
C1436 N1433 1.350 . S
C1436 C1435 1.434 . S
C1437 C1438 1.369 . S
C1437 C1439 1.419 . S
C1437 H1441 0.930 . S
C1438 C1437 1.369 . S
C1438 C1447 1.429 . S
C1439 C1437 1.419 . S
C1439 C1440 1.363 . S
C1439 H1442 0.929 . S
C1440 C1439 1.363 . S
C1440 C1446 1.428 . S
H1441 C1437 0.930 . S
H1442 C1439 0.929 . S
S1443 N1444 1.613 . S
S1443 N1445 1.610 . S
N1444 S1443 1.613 . S
N1444 C1447 1.350 . S
N1445 S1443 1.610 . S
N1445 C1446 1.351 . S
C1446 C1440 1.428 . S
C1446 N1445 1.351 . S
C1446 C1447 1.434 . S
C1447 C1438 1.429 . S
C1447 N1444 1.350 . S
C1447 C1446 1.434 . S
C1448 C1449 1.369 . S
C1448 C1450 1.419 . S
C1448 H1452 0.930 . S
C1449 C1448 1.369 . S
C1449 C1458 1.429 . S
C1450 C1448 1.419 . S
C1450 C1451 1.363 . S
C1450 H1453 0.929 . S
C1451 C1450 1.363 . S
C1451 C1457 1.428 . S
H1452 C1448 0.930 . S
H1453 C1450 0.929 . S
S1454 N1455 1.613 . S
S1454 N1456 1.610 . S
N1455 S1454 1.613 . S
N1455 C1458 1.350 . S
N1456 S1454 1.610 . S
N1456 C1457 1.351 . S
C1457 C1451 1.428 . S
C1457 N1456 1.351 . S
C1457 C1458 1.434 . S
C1458 C1449 1.429 . S
C1458 N1455 1.350 . S
C1458 C1457 1.434 . S
C1459 C1460 1.369 . S
C1459 C1461 1.419 . S
C1459 H1463 0.930 . S
C1460 C1459 1.369 . S
C1460 C1469 1.429 . S
C1461 C1459 1.419 . S
C1461 C1462 1.363 . S
C1461 H1464 0.929 . S
C1462 C1461 1.363 . S
C1462 C1468 1.428 . S
H1463 C1459 0.930 . S
H1464 C1461 0.929 . S
S1465 N1466 1.613 . S
S1465 N1467 1.610 . S
N1466 S1465 1.613 . S
N1466 C1469 1.350 . S
N1467 S1465 1.610 . S
N1467 C1468 1.351 . S
C1468 C1462 1.428 . S
C1468 N1467 1.351 . S
C1468 C1469 1.434 . S
C1469 C1460 1.429 . S
C1469 N1466 1.350 . S
C1469 C1468 1.434 . S
C1470 C1471 1.369 . S
C1470 C1472 1.419 . S
C1470 H1474 0.930 . S
C1471 C1470 1.369 . S
C1471 C1480 1.429 . S
C1472 C1470 1.419 . S
C1472 C1473 1.363 . S
C1472 H1475 0.929 . S
C1473 C1472 1.363 . S
C1473 C1479 1.428 . S
H1474 C1470 0.930 . S
H1475 C1472 0.929 . S
S1476 N1477 1.613 . S
S1476 N1478 1.610 . S
N1477 S1476 1.613 . S
N1477 C1480 1.350 . S
N1478 S1476 1.610 . S
N1478 C1479 1.351 . S
C1479 C1473 1.428 . S
C1479 N1478 1.351 . S
C1479 C1480 1.434 . S
C1480 C1471 1.429 . S
C1480 N1477 1.350 . S
C1480 C1479 1.434 . S
C1481 C1482 1.369 . S
C1481 C1483 1.419 . S
C1481 H1485 0.930 . S
C1482 C1481 1.369 . S
C1482 C1491 1.429 . S
C1483 C1481 1.419 . S
C1483 C1484 1.363 . S
C1483 H1486 0.929 . S
C1484 C1483 1.363 . S
C1484 C1490 1.428 . S
H1485 C1481 0.930 . S
H1486 C1483 0.929 . S
S1487 N1488 1.613 . S
S1487 N1489 1.610 . S
N1488 S1487 1.613 . S
N1488 C1491 1.350 . S
N1489 S1487 1.610 . S
N1489 C1490 1.351 . S
C1490 C1484 1.428 . S
C1490 N1489 1.351 . S
C1490 C1491 1.434 . S
C1491 C1482 1.429 . S
C1491 N1488 1.350 . S
C1491 C1490 1.434 . S
C1492 C1493 1.369 . S
C1492 C1494 1.419 . S
C1492 H1496 0.930 . S
C1493 C1492 1.369 . S
C1493 C1502 1.429 . S
C1494 C1492 1.419 . S
C1494 C1495 1.363 . S
C1494 H1497 0.929 . S
C1495 C1494 1.363 . S
C1495 C1501 1.428 . S
H1496 C1492 0.930 . S
H1497 C1494 0.929 . S
S1498 N1499 1.613 1_554 S
S1498 N1500 1.610 . S
N1499 S1498 1.613 1_556 S
N1499 C1502 1.350 . S
N1500 S1498 1.610 . S
N1500 C1501 1.351 1_554 S
C1501 C1495 1.428 . S
C1501 N1500 1.351 1_556 S
C1501 C1502 1.434 . S
C1502 C1493 1.429 . S
C1502 N1499 1.350 . S
C1502 C1501 1.434 . S
C1503 C1504 1.369 . S
C1503 C1505 1.419 . S
C1503 H1507 0.930 . S
C1504 C1503 1.369 . S
C1504 C1513 1.429 . S
C1505 C1503 1.419 . S
C1505 C1506 1.363 . S
C1505 H1508 0.929 . S
C1506 C1505 1.363 . S
C1506 C1512 1.428 . S
H1507 C1503 0.930 . S
H1508 C1505 0.929 . S
S1509 N1510 1.613 . S
S1509 N1511 1.610 . S
N1510 S1509 1.613 . S
N1510 C1513 1.350 . S
N1511 S1509 1.610 . S
N1511 C1512 1.351 . S
C1512 C1506 1.428 . S
C1512 N1511 1.351 . S
C1512 C1513 1.434 . S
C1513 C1504 1.429 . S
C1513 N1510 1.350 . S
C1513 C1512 1.434 . S
C1514 C1515 1.369 . S
C1514 C1516 1.419 . S
C1514 H1518 0.930 . S
C1515 C1514 1.369 . S
C1515 C1524 1.429 . S
C1516 C1514 1.419 . S
C1516 C1517 1.363 . S
C1516 H1519 0.929 . S
C1517 C1516 1.363 . S
C1517 C1523 1.428 . S
H1518 C1514 0.930 . S
H1519 C1516 0.929 . S
S1520 N1521 1.613 . S
S1520 N1522 1.610 . S
N1521 S1520 1.613 . S
N1521 C1524 1.350 . S
N1522 S1520 1.610 . S
N1522 C1523 1.351 . S
C1523 C1517 1.428 . S
C1523 N1522 1.351 . S
C1523 C1524 1.434 . S
C1524 C1515 1.429 . S
C1524 N1521 1.350 . S
C1524 C1523 1.434 . S
C1525 C1526 1.369 . S
C1525 C1527 1.419 . S
C1525 H1529 0.930 . S
C1526 C1525 1.369 . S
C1526 C1535 1.429 . S
C1527 C1525 1.419 . S
C1527 C1528 1.363 . S
C1527 H1530 0.929 . S
C1528 C1527 1.363 . S
C1528 C1534 1.428 . S
H1529 C1525 0.930 . S
H1530 C1527 0.929 . S
S1531 N1532 1.613 . S
S1531 N1533 1.610 . S
N1532 S1531 1.613 . S
N1532 C1535 1.350 . S
N1533 S1531 1.610 . S
N1533 C1534 1.351 . S
C1534 C1528 1.428 . S
C1534 N1533 1.351 . S
C1534 C1535 1.434 . S
C1535 C1526 1.429 . S
C1535 N1532 1.350 . S
C1535 C1534 1.434 . S
C1536 C1537 1.369 . S
C1536 C1538 1.419 . S
C1536 H1540 0.930 . S
C1537 C1536 1.369 . S
C1537 C1546 1.429 . S
C1538 C1536 1.419 . S
C1538 C1539 1.363 . S
C1538 H1541 0.929 . S
C1539 C1538 1.363 . S
C1539 C1545 1.428 . S
H1540 C1536 0.930 . S
H1541 C1538 0.929 . S
S1542 N1543 1.613 . S
S1542 N1544 1.610 . S
N1543 S1542 1.613 . S
N1543 C1546 1.350 . S
N1544 S1542 1.610 . S
N1544 C1545 1.351 . S
C1545 C1539 1.428 . S
C1545 N1544 1.351 . S
C1545 C1546 1.434 . S
C1546 C1537 1.429 . S
C1546 N1543 1.350 . S
C1546 C1545 1.434 . S
C1547 C1548 1.369 . S
C1547 C1549 1.419 . S
C1547 H1551 0.930 . S
C1548 C1547 1.369 . S
C1548 C1557 1.429 . S
C1549 C1547 1.419 . S
C1549 C1550 1.363 . S
C1549 H1552 0.929 . S
C1550 C1549 1.363 . S
C1550 C1556 1.428 . S
H1551 C1547 0.930 . S
H1552 C1549 0.929 . S
S1553 N1554 1.613 . S
S1553 N1555 1.610 . S
N1554 S1553 1.613 . S
N1554 C1557 1.350 . S
N1555 S1553 1.610 . S
N1555 C1556 1.351 . S
C1556 C1550 1.428 . S
C1556 N1555 1.351 . S
C1556 C1557 1.434 . S
C1557 C1548 1.429 . S
C1557 N1554 1.350 . S
C1557 C1556 1.434 . S
C1558 C1559 1.369 . S
C1558 C1560 1.419 . S
C1558 H1562 0.930 . S
C1559 C1558 1.369 . S
C1559 C1568 1.429 . S
C1560 C1558 1.419 . S
C1560 C1561 1.363 . S
C1560 H1563 0.929 . S
C1561 C1560 1.363 . S
C1561 C1567 1.428 . S
H1562 C1558 0.930 . S
H1563 C1560 0.929 . S
S1564 N1565 1.613 . S
S1564 N1566 1.610 . S
N1565 S1564 1.613 . S
N1565 C1568 1.350 . S
N1566 S1564 1.610 . S
N1566 C1567 1.351 . S
C1567 C1561 1.428 . S
C1567 N1566 1.351 . S
C1567 C1568 1.434 . S
C1568 C1559 1.429 . S
C1568 N1565 1.350 . S
C1568 C1567 1.434 . S
C1569 C1570 1.369 . S
C1569 C1571 1.419 . S
C1569 H1573 0.930 . S
C1570 C1569 1.369 . S
C1570 C1579 1.429 . S
C1571 C1569 1.419 . S
C1571 C1572 1.363 . S
C1571 H1574 0.929 . S
C1572 C1571 1.363 . S
C1572 C1578 1.428 . S
H1573 C1569 0.930 . S
H1574 C1571 0.929 . S
S1575 N1576 1.613 . S
S1575 N1577 1.610 . S
N1576 S1575 1.613 . S
N1576 C1579 1.350 . S
N1577 S1575 1.610 . S
N1577 C1578 1.351 . S
C1578 C1572 1.428 . S
C1578 N1577 1.351 . S
C1578 C1579 1.434 . S
C1579 C1570 1.429 . S
C1579 N1576 1.350 . S
C1579 C1578 1.434 . S
C1580 C1581 1.369 . S
C1580 C1582 1.419 . S
C1580 H1584 0.930 . S
C1581 C1580 1.369 . S
C1581 C1590 1.429 . S
C1582 C1580 1.419 . S
C1582 C1583 1.363 . S
C1582 H1585 0.929 . S
C1583 C1582 1.363 . S
C1583 C1589 1.428 . S
H1584 C1580 0.930 . S
H1585 C1582 0.929 . S
S1586 N1587 1.613 . S
S1586 N1588 1.610 . S
N1587 S1586 1.613 . S
N1587 C1590 1.350 . S
N1588 S1586 1.610 . S
N1588 C1589 1.351 . S
C1589 C1583 1.428 . S
C1589 N1588 1.351 . S
C1589 C1590 1.434 . S
C1590 C1581 1.429 . S
C1590 N1587 1.350 . S
C1590 C1589 1.434 . S
C1591 C1592 1.369 . S
C1591 C1593 1.419 . S
C1591 H1595 0.930 . S
C1592 C1591 1.369 . S
C1592 C1601 1.429 . S
C1593 C1591 1.419 . S
C1593 C1594 1.363 . S
C1593 H1596 0.929 . S
C1594 C1593 1.363 . S
C1594 C1600 1.428 . S
H1595 C1591 0.930 . S
H1596 C1593 0.929 . S
S1597 N1598 1.613 . S
S1597 N1599 1.610 . S
N1598 S1597 1.613 . S
N1598 C1601 1.350 . S
N1599 S1597 1.610 . S
N1599 C1600 1.351 . S
C1600 C1594 1.428 . S
C1600 N1599 1.351 . S
C1600 C1601 1.434 . S
C1601 C1592 1.429 . S
C1601 N1598 1.350 . S
C1601 C1600 1.434 . S
C1602 C1603 1.369 . S
C1602 C1604 1.419 . S
C1602 H1606 0.930 . S
C1603 C1602 1.369 . S
C1603 C1612 1.429 . S
C1604 C1602 1.419 . S
C1604 C1605 1.363 . S
C1604 H1607 0.929 . S
C1605 C1604 1.363 . S
C1605 C1611 1.428 . S
H1606 C1602 0.930 . S
H1607 C1604 0.929 . S
S1608 N1609 1.613 . S
S1608 N1610 1.610 . S
N1609 S1608 1.613 . S
N1609 C1612 1.350 . S
N1610 S1608 1.610 . S
N1610 C1611 1.351 . S
C1611 C1605 1.428 . S
C1611 N1610 1.351 . S
C1611 C1612 1.434 . S
C1612 C1603 1.429 . S
C1612 N1609 1.350 . S
C1612 C1611 1.434 . S
C1613 C1614 1.369 . S
C1613 C1615 1.419 . S
C1613 H1617 0.930 . S
C1614 C1613 1.369 . S
C1614 C1623 1.429 . S
C1615 C1613 1.419 . S
C1615 C1616 1.363 . S
C1615 H1618 0.929 . S
C1616 C1615 1.363 . S
C1616 C1622 1.428 . S
H1617 C1613 0.930 . S
H1618 C1615 0.929 . S
S1619 N1620 1.613 . S
S1619 N1621 1.610 . S
N1620 S1619 1.613 . S
N1620 C1623 1.350 . S
N1621 S1619 1.610 . S
N1621 C1622 1.351 . S
C1622 C1616 1.428 . S
C1622 N1621 1.351 . S
C1622 C1623 1.434 . S
C1623 C1614 1.429 . S
C1623 N1620 1.350 . S
C1623 C1622 1.434 . S
C1624 C1625 1.369 . S
C1624 C1626 1.419 . S
C1624 H1628 0.930 . S
C1625 C1624 1.369 . S
C1625 C1634 1.429 . S
C1626 C1624 1.419 . S
C1626 C1627 1.363 . S
C1626 H1629 0.929 . S
C1627 C1626 1.363 . S
C1627 C1633 1.428 . S
H1628 C1624 0.930 . S
H1629 C1626 0.929 . S
S1630 N1631 1.613 . S
S1630 N1632 1.610 . S
N1631 S1630 1.613 . S
N1631 C1634 1.350 . S
N1632 S1630 1.610 . S
N1632 C1633 1.351 . S
C1633 C1627 1.428 . S
C1633 N1632 1.351 . S
C1633 C1634 1.434 . S
C1634 C1625 1.429 . S
C1634 N1631 1.350 . S
C1634 C1633 1.434 . S
C1635 C1636 1.369 . S
C1635 C1637 1.419 . S
C1635 H1639 0.930 . S
C1636 C1635 1.369 . S
C1636 C1645 1.429 . S
C1637 C1635 1.419 . S
C1637 C1638 1.363 . S
C1637 H1640 0.929 . S
C1638 C1637 1.363 . S
C1638 C1644 1.428 . S
H1639 C1635 0.930 . S
H1640 C1637 0.929 . S
S1641 N1642 1.613 1_545 S
S1641 N1643 1.610 . S
N1642 S1641 1.613 1_565 S
N1642 C1645 1.350 . S
N1643 S1641 1.610 . S
N1643 C1644 1.351 1_545 S
C1644 C1638 1.428 . S
C1644 N1643 1.351 1_565 S
C1644 C1645 1.434 . S
C1645 C1636 1.429 . S
C1645 N1642 1.350 . S
C1645 C1644 1.434 . S
C1646 C1647 1.369 . S
C1646 C1648 1.419 . S
C1646 H1650 0.930 . S
C1647 C1646 1.369 . S
C1647 C1656 1.429 . S
C1648 C1646 1.419 . S
C1648 C1649 1.363 . S
C1648 H1651 0.929 . S
C1649 C1648 1.363 . S
C1649 C1655 1.428 . S
H1650 C1646 0.930 . S
H1651 C1648 0.929 . S
S1652 N1653 1.613 . S
S1652 N1654 1.610 . S
N1653 S1652 1.613 . S
N1653 C1656 1.350 . S
N1654 S1652 1.610 . S
N1654 C1655 1.351 . S
C1655 C1649 1.428 . S
C1655 N1654 1.351 . S
C1655 C1656 1.434 . S
C1656 C1647 1.429 . S
C1656 N1653 1.350 . S
C1656 C1655 1.434 . S
C1657 C1658 1.369 . S
C1657 C1659 1.419 . S
C1657 H1661 0.930 . S
C1658 C1657 1.369 . S
C1658 C1667 1.429 1_554 S
C1659 C1657 1.419 . S
C1659 C1660 1.363 . S
C1659 H1662 0.929 . S
C1660 C1659 1.363 . S
C1660 C1666 1.428 1_554 S
H1661 C1657 0.930 . S
H1662 C1659 0.929 . S
S1663 N1664 1.613 . S
S1663 N1665 1.610 . S
N1664 S1663 1.613 . S
N1664 C1667 1.350 . S
N1665 S1663 1.610 . S
N1665 C1666 1.351 . S
C1666 C1660 1.428 1_556 S
C1666 N1665 1.351 . S
C1666 C1667 1.434 . S
C1667 C1658 1.429 1_556 S
C1667 N1664 1.350 . S
C1667 C1666 1.434 . S
C1668 C1669 1.369 . S
C1668 C1670 1.419 . S
C1668 H1672 0.930 . S
C1669 C1668 1.369 . S
C1669 C1678 1.429 . S
C1670 C1668 1.419 . S
C1670 C1671 1.363 . S
C1670 H1673 0.929 . S
C1671 C1670 1.363 . S
C1671 C1677 1.428 . S
H1672 C1668 0.930 . S
H1673 C1670 0.929 . S
S1674 N1675 1.613 . S
S1674 N1676 1.610 . S
N1675 S1674 1.613 . S
N1675 C1678 1.350 . S
N1676 S1674 1.610 . S
N1676 C1677 1.351 . S
C1677 C1671 1.428 . S
C1677 N1676 1.351 . S
C1677 C1678 1.434 . S
C1678 C1669 1.429 . S
C1678 N1675 1.350 . S
C1678 C1677 1.434 . S
C1679 C1680 1.369 . S
C1679 C1681 1.419 . S
C1679 H1683 0.930 . S
C1680 C1679 1.369 . S
C1680 C1689 1.429 1_554 S
C1681 C1679 1.419 . S
C1681 C1682 1.363 . S
C1681 H1684 0.929 . S
C1682 C1681 1.363 . S
C1682 C1688 1.428 1_554 S
H1683 C1679 0.930 . S
H1684 C1681 0.929 . S
S1685 N1686 1.613 . S
S1685 N1687 1.610 . S
N1686 S1685 1.613 . S
N1686 C1689 1.350 . S
N1687 S1685 1.610 . S
N1687 C1688 1.351 . S
C1688 C1682 1.428 1_556 S
C1688 N1687 1.351 . S
C1688 C1689 1.434 . S
C1689 C1680 1.429 1_556 S
C1689 N1686 1.350 . S
C1689 C1688 1.434 . S
C1690 C1691 1.369 . S
C1690 C1692 1.419 . S
C1690 H1694 0.930 . S
C1691 C1690 1.369 . S
C1691 C1700 1.429 . S
C1692 C1690 1.419 . S
C1692 C1693 1.363 . S
C1692 H1695 0.929 . S
C1693 C1692 1.363 . S
C1693 C1699 1.428 . S
H1694 C1690 0.930 . S
H1695 C1692 0.929 . S
S1696 N1697 1.613 . S
S1696 N1698 1.610 . S
N1697 S1696 1.613 . S
N1697 C1700 1.350 . S
N1698 S1696 1.610 . S
N1698 C1699 1.351 . S
C1699 C1693 1.428 . S
C1699 N1698 1.351 . S
C1699 C1700 1.434 . S
C1700 C1691 1.429 . S
C1700 N1697 1.350 . S
C1700 C1699 1.434 . S
C1701 C1702 1.369 . S
C1701 C1703 1.419 . S
C1701 H1705 0.930 . S
C1702 C1701 1.369 . S
C1702 C1711 1.429 . S
C1703 C1701 1.419 . S
C1703 C1704 1.363 . S
C1703 H1706 0.929 . S
C1704 C1703 1.363 . S
C1704 C1710 1.428 . S
H1705 C1701 0.930 . S
H1706 C1703 0.929 . S
S1707 N1708 1.613 . S
S1707 N1709 1.610 . S
N1708 S1707 1.613 . S
N1708 C1711 1.350 . S
N1709 S1707 1.610 . S
N1709 C1710 1.351 . S
C1710 C1704 1.428 . S
C1710 N1709 1.351 . S
C1710 C1711 1.434 . S
C1711 C1702 1.429 . S
C1711 N1708 1.350 . S
C1711 C1710 1.434 . S
C657 C106 1.991 . S
C659 C354 1.919 1_556 S
C668 C65 1.698 . S
C670 C365 1.699 . S
C679 C79 1.586 . S
C681 C394 1.488 . S
C692 C397 1.270 . S
C690 C90 1.242 . S
C701 C21 1.437 . S
C703 C435 1.427 . S
C714 C438 1.283 . S
C712 C35 1.180 . S
C725 C465 1.596 . S
C723 C50 1.599 . S
C734 C6 1.702 . S
C736 C494 1.666 . S
C747 C345 1.890 1_655 S
C745 C232 1.879 . S
C756 C245 1.046 . S
C758 C357 1.104 . S
C769 C385 1.616 . S
C767 C274 1.616 . S
C780 C414 1.286 . S
C778 C175 1.276 . S
C789 C231 1.007 . S
C791 C418 1.070 . S
C802 C444 1.604 . S
C800 C246 1.630 . S
C813 C457 0.819 . S
C811 C273 0.806 . S
C824 C485 1.833 . S
C822 C176 1.828 . S
C835 C337 1.606 1_565 S
C833 C160 1.548 . S
C844 C289 1.779 . S
C846 C504 1.738 . S
C857 C535 1.646 . S
C855 C328 1.648 . S
C868 C554 1.196 . S
C866 C317 1.248 . S
C877 C118 1.428 . S
C879 C477 1.533 . S
C888 C132 1.501 . S
C890 C377 1.589 . S
C899 C331 1.671 . S
C901 C565 1.664 . S
C912 C594 1.226 . S
C910 C303 1.306 . S
C923 C355 1.584 . S
C921 C63 1.579 . S
C934 C584 2.058 . S
C932 C107 2.008 . S
C943 C92 1.319 . S
C945 C395 1.272 . S
C954 C78 1.702 . S
C956 C558 1.717 . S
C967 C434 1.892 . S
C965 C8 1.941 . S
C976 C51 1.317 . S
C978 C517 1.304 . S
C989 C464 1.912 1_556 S
C987 C37 1.859 . S
C1000 C615 1.585 . S
C998 C20 1.610 . S
C1011 C344 1.631 . S
C1009 C147 1.551 . S
C1022 C578 1.196 . S
C1020 C316 1.235 . S
C1031 C119 1.493 . S
C1033 C384 1.541 . S
C1042 C288 1.364 . S
C1044 C575 1.355 . S
C1053 C148 1.315 1_545 S
C1055 C417 1.312 . S
C1066 C525 1.580 . S
C1064 C315 1.545 . S
C1075 C120 1.084 . S
C1077 C458 1.055 . S
C1086 C287 1.644 . S
C1088 C604 1.662 . S
C1097 C188 1.483 . S
C1099 C338 1.480 . S
C1108 C177 1.948 . S
C1110 C505 1.928 . S
C1119 C258 1.720 . S
C1121 C454 1.709 . S
C1130 C247 1.247 . S
C1132 C555 1.226 . S
C1143 C598 1.408 . S
C1141 C272 1.381 . S
C1152 C216 1.448 . S
C1154 C378 1.506 . S
C1165 C404 1.841 . S
C1163 C261 1.818 . S
C1176 C375 1.190 . S
C1174 C205 1.252 . S
C1185 C76 1.591 . S
C1187 C634 1.592 . S
C1198 C585 1.768 . S
C1196 C93 1.764 . S
C1207 C105 1.218 . S
C1209 C654 1.189 . S
C1218 C62 1.268 . S
C1220 C557 1.302 . S
C1229 C49 1.398 . S
C1231 C515 1.396 . S
C1242 C518 1.613 . S
C1240 C9 1.583 . S
C1253 C545 1.535 . S
C1251 C22 1.532 1_455 S
C1264 C614 1.973 . S
C1262 C36 2.094 . S
C1275 C625 1.843 . S
C1273 C260 1.830 . S
C1284 C189 0.931 . S
C1286 C577 0.964 . S
C1297 C645 1.572 . S
C1295 C204 1.571 . S
C1308 C574 1.140 . S
C1306 C217 1.151 . S
C1319 C498 1.241 . S
C1317 C259 1.156 . S
C1328 C190 1.673 . S
C1330 C524 1.659 . S
C1341 C537 0.952 . S
C1339 C203 0.922 . S
C1350 C218 1.871 . S
C1352 C605 1.874 . S
C1363 C617 1.578 . S
C1361 C314 1.518 . S
C1372 C135 1.815 . S
C1374 C424 1.785 . S
C1385 C455 1.613 . S
C1383 C146 1.602 . S
C1396 C474 1.237 . S
C1394 C163 1.268 . S
C1407 C597 1.536 . S
C1405 C300 1.442 . S
C1416 C286 1.474 . S
C1418 C637 1.577 . S
C1429 C405 1.613 . S
C1427 C149 1.612 . S
C1440 C374 1.211 . S
C1438 C121 1.302 . S
C1449 C91 1.571 . S
C1451 C635 1.585 . S
C1462 C364 1.686 . S
C1460 C77 1.569 . S
C1471 C64 1.275 . S
C1473 C655 1.238 . S
C1482 C104 1.406 . S
C1484 C398 1.452 . S
C1493 C34 1.589 . S
C1495 C514 1.583 . S
C1506 C437 1.264 . S
C1504 C23 1.269 . S
C1515 C7 1.455 . S
C1517 C544 1.545 . S
C1526 C48 1.583 . S
C1528 C495 1.573 . S
C1539 C624 1.590 . S
C1537 C329 1.525 . S
C1548 C162 1.206 . S
C1550 C358 1.175 . S
C1561 C644 1.515 1_655 S
C1559 C301 1.479 . S
C1570 C134 1.362 . S
C1572 C415 1.358 . S
C1581 C330 1.294 . S
C1583 C497 1.293 . S
C1594 C445 1.555 . S
C1592 C161 1.524 . S
C1603 C302 1.070 . S
C1605 C538 1.053 . S
C1616 C484 1.626 . S
C1614 C133 1.613 . S
C1627 C618 1.608 . S
C1625 C244 1.607 . S
C1638 C425 1.922 1_565 S
C1636 C219 1.944 . S
C1647 C230 1.568 . S
C1649 C534 1.543 . S
C1660 C475 1.189 . S
C1658 C191 1.237 . S
C1669 C202 1.492 . S
C1671 C478 1.533 . S
C1680 C174 1.576 . S
C1682 C638 1.638 . S
C1693 C564 1.835 . S
C1691 C233 1.801 . S
C1704 C595 1.188 . S
C1702 C275 1.274 . S
