# Generated by pormake.
# Topology soc, (4,6)-cn, num edge types: 1
# Building blocks:
#     Node 0, Type 0, BuildingBlock: ESEHIV_clean_sbu_0, # of connection points: 4
#     Node 1, Type 0, BuildingBlock: ESEHIV_clean_sbu_0, # of connection points: 4
#     Node 2, Type 0, BuildingBlock: ESEHIV_clean_sbu_0, # of connection points: 4
#     Node 3, Type 0, BuildingBlock: ESEHIV_clean_sbu_0, # of connection points: 4
#     Node 4, Type 0, BuildingBlock: ESEHIV_clean_sbu_0, # of connection points: 4
#     Node 5, Type 0, BuildingBlock: ESEHIV_clean_sbu_0, # of connection points: 4
#     Node 6, Type 0, BuildingBlock: ESEHIV_clean_sbu_0, # of connection points: 4
#     Node 7, Type 0, BuildingBlock: ESEHIV_clean_sbu_0, # of connection points: 4
#     Node 8, Type 0, BuildingBlock: ESEHIV_clean_sbu_0, # of connection points: 4
#     Node 9, Type 0, BuildingBlock: ESEHIV_clean_sbu_0, # of connection points: 4
#     Node 10, Type 0, BuildingBlock: ESEHIV_clean_sbu_0, # of connection points: 4
#     Node 11, Type 0, BuildingBlock: ESEHIV_clean_sbu_0, # of connection points: 4
#     Node 12, Type 1, BuildingBlock: BETFAJ_clean_sbu_0, # of connection points: 6
#     Node 13, Type 1, BuildingBlock: BETFAJ_clean_sbu_0, # of connection points: 6
#     Node 14, Type 1, BuildingBlock: BETFAJ_clean_sbu_0, # of connection points: 6
#     Node 15, Type 1, BuildingBlock: BETFAJ_clean_sbu_0, # of connection points: 6
#     Node 16, Type 1, BuildingBlock: BETFAJ_clean_sbu_0, # of connection points: 6
#     Node 17, Type 1, BuildingBlock: BETFAJ_clean_sbu_0, # of connection points: 6
#     Node 18, Type 1, BuildingBlock: BETFAJ_clean_sbu_0, # of connection points: 6
#     Node 19, Type 1, BuildingBlock: BETFAJ_clean_sbu_0, # of connection points: 6
#     Edge 20, Type (0, 1), BuildingBlock: ZUJKAS_clean_linker_0, # of connection points: 2
#     Edge 21, Type (0, 1), BuildingBlock: ZUJKAS_clean_linker_0, # of connection points: 2
#     Edge 22, Type (0, 1), BuildingBlock: ZUJKAS_clean_linker_0, # of connection points: 2
#     Edge 23, Type (0, 1), BuildingBlock: ZUJKAS_clean_linker_0, # of connection points: 2
#     Edge 24, Type (0, 1), BuildingBlock: ZUJKAS_clean_linker_0, # of connection points: 2
#     Edge 25, Type (0, 1), BuildingBlock: ZUJKAS_clean_linker_0, # of connection points: 2
#     Edge 26, Type (0, 1), BuildingBlock: ZUJKAS_clean_linker_0, # of connection points: 2
#     Edge 27, Type (0, 1), BuildingBlock: ZUJKAS_clean_linker_0, # of connection points: 2
#     Edge 28, Type (0, 1), BuildingBlock: ZUJKAS_clean_linker_0, # of connection points: 2
#     Edge 29, Type (0, 1), BuildingBlock: ZUJKAS_clean_linker_0, # of connection points: 2
#     Edge 30, Type (0, 1), BuildingBlock: ZUJKAS_clean_linker_0, # of connection points: 2
#     Edge 31, Type (0, 1), BuildingBlock: ZUJKAS_clean_linker_0, # of connection points: 2
#     Edge 32, Type (0, 1), BuildingBlock: ZUJKAS_clean_linker_0, # of connection points: 2
#     Edge 33, Type (0, 1), BuildingBlock: ZUJKAS_clean_linker_0, # of connection points: 2
#     Edge 34, Type (0, 1), BuildingBlock: ZUJKAS_clean_linker_0, # of connection points: 2
#     Edge 35, Type (0, 1), BuildingBlock: ZUJKAS_clean_linker_0, # of connection points: 2
#     Edge 36, Type (0, 1), BuildingBlock: ZUJKAS_clean_linker_0, # of connection points: 2
#     Edge 37, Type (0, 1), BuildingBlock: ZUJKAS_clean_linker_0, # of connection points: 2
#     Edge 38, Type (0, 1), BuildingBlock: ZUJKAS_clean_linker_0, # of connection points: 2
#     Edge 39, Type (0, 1), BuildingBlock: ZUJKAS_clean_linker_0, # of connection points: 2
#     Edge 40, Type (0, 1), BuildingBlock: ZUJKAS_clean_linker_0, # of connection points: 2
#     Edge 41, Type (0, 1), BuildingBlock: ZUJKAS_clean_linker_0, # of connection points: 2
#     Edge 42, Type (0, 1), BuildingBlock: ZUJKAS_clean_linker_0, # of connection points: 2
#     Edge 43, Type (0, 1), BuildingBlock: ZUJKAS_clean_linker_0, # of connection points: 2
#     Edge 44, Type (0, 1), BuildingBlock: ZUJKAS_clean_linker_0, # of connection points: 2
#     Edge 45, Type (0, 1), BuildingBlock: ZUJKAS_clean_linker_0, # of connection points: 2
#     Edge 46, Type (0, 1), BuildingBlock: ZUJKAS_clean_linker_0, # of connection points: 2
#     Edge 47, Type (0, 1), BuildingBlock: ZUJKAS_clean_linker_0, # of connection points: 2
#     Edge 48, Type (0, 1), BuildingBlock: ZUJKAS_clean_linker_0, # of connection points: 2
#     Edge 49, Type (0, 1), BuildingBlock: ZUJKAS_clean_linker_0, # of connection points: 2
#     Edge 50, Type (0, 1), BuildingBlock: ZUJKAS_clean_linker_0, # of connection points: 2
#     Edge 51, Type (0, 1), BuildingBlock: ZUJKAS_clean_linker_0, # of connection points: 2
#     Edge 52, Type (0, 1), BuildingBlock: ZUJKAS_clean_linker_0, # of connection points: 2
#     Edge 53, Type (0, 1), BuildingBlock: ZUJKAS_clean_linker_0, # of connection points: 2
#     Edge 54, Type (0, 1), BuildingBlock: ZUJKAS_clean_linker_0, # of connection points: 2
#     Edge 55, Type (0, 1), BuildingBlock: ZUJKAS_clean_linker_0, # of connection points: 2
#     Edge 56, Type (0, 1), BuildingBlock: ZUJKAS_clean_linker_0, # of connection points: 2
#     Edge 57, Type (0, 1), BuildingBlock: ZUJKAS_clean_linker_0, # of connection points: 2
#     Edge 58, Type (0, 1), BuildingBlock: ZUJKAS_clean_linker_0, # of connection points: 2
#     Edge 59, Type (0, 1), BuildingBlock: ZUJKAS_clean_linker_0, # of connection points: 2
#     Edge 60, Type (0, 1), BuildingBlock: ZUJKAS_clean_linker_0, # of connection points: 2
#     Edge 61, Type (0, 1), BuildingBlock: ZUJKAS_clean_linker_0, # of connection points: 2
#     Edge 62, Type (0, 1), BuildingBlock: ZUJKAS_clean_linker_0, # of connection points: 2
#     Edge 63, Type (0, 1), BuildingBlock: ZUJKAS_clean_linker_0, # of connection points: 2
#     Edge 64, Type (0, 1), BuildingBlock: ZUJKAS_clean_linker_0, # of connection points: 2
#     Edge 65, Type (0, 1), BuildingBlock: ZUJKAS_clean_linker_0, # of connection points: 2
#     Edge 66, Type (0, 1), BuildingBlock: ZUJKAS_clean_linker_0, # of connection points: 2
#     Edge 67, Type (0, 1), BuildingBlock: ZUJKAS_clean_linker_0, # of connection points: 2
# Relax obj value: 0.162
# Max RMSD: 0.247
# Mean RMSD: 0.166
data_MOF--net-soc--node1-ESEHIV_clean_sbu_0--node2-BETFAJ_clean_sbu_0--edge1-ZUJKAS_clean_linker_0
_symmetry_space_group_name_H-M    P1
_symmetry_Int_Tables_number       1
_symmetry_cell_setting            triclinic
loop_
_symmetry_equiv_pos_as_xyz
'x, y, z'
_cell_length_a     64.856523
_cell_length_b     62.543975
_cell_length_c     55.705227
_cell_angle_alpha  84.055445
_cell_angle_beta   84.460093
_cell_angle_gamma 73.83719
loop_
_atom_site_label
_atom_site_type_symbol
_atom_site_fract_x
_atom_site_fract_y
_atom_site_fract_z
_atom_type_partial_charge
Cu0 Cu 0.04015 0.01672 0.34208 0.0
N1 N 0.05484 0.0303 0.36043 0.0
N2 N 0.07357 0.05332 0.36895 0.0
C3 C 0.06301 0.04743 0.35209 0.0
C4 C 0.07167 0.0395 0.38883 0.0
C5 C 0.06011 0.02533 0.38352 0.0
O6 O 0.06141 0.99531 0.32287 0.0
C7 C 1.00521 0.05288 0.34024 0.0
O8 O 1.00776 0.0482 0.3635 0.0
H9 H 0.06123 0.05536 0.33392 0.0
H10 H 0.05608 0.01222 0.39562 0.0
N11 N 0.02517 0.99911 0.36153 0.0
N12 N 1.00155 0.97877 0.36984 0.0
C13 C 1.00644 0.99609 0.35619 0.0
C14 C 0.03248 0.98319 0.37919 0.0
C15 C 1.01784 0.97076 0.38452 0.0
C16 C 0.07949 0.99752 0.31349 0.0
O17 O 0.08323 0.0172 0.31189 0.0
H18 H 0.99732 0.00564 0.34153 0.0
H19 H 0.04813 0.97962 0.38626 0.0
O20 O 0.01854 0.04065 0.32548 0.0
H21 H 0.07863 0.03921 0.40579 0.0
H22 H 0.01997 0.95587 0.39685 0.0
Cu23 Cu 0.04172 0.03054 0.74708 0.0
N24 N 0.02971 0.01321 0.73023 0.0
N25 N 1.01196 0.9884 0.72459 0.0
C26 C 1.01706 1.00058 0.74062 0.0
C27 C 0.02182 0.99372 0.70322 0.0
C28 C 0.03281 0.00898 0.70677 0.0
O29 O 0.01841 0.04983 0.76666 0.0
C30 C 0.0804 0.99892 0.74861 0.0
O31 O 0.07825 1.00416 0.72536 0.0
H32 H 1.01187 1.0003 0.75967 0.0
H33 H 0.04287 0.01592 0.69337 0.0
N34 N 0.05367 0.05005 0.72648 0.0
N35 N 0.07335 0.07414 0.71599 0.0
C36 C 0.06866 0.05894 0.73306 0.0
C37 C 0.04857 0.05991 0.70439 0.0
C38 C 0.06084 0.07472 0.69777 0.0
C39 C 1.00201 0.06019 0.755 0.0
O40 O 1.00199 0.05626 0.73229 0.0
H41 H 0.07578 0.05443 0.75029 0.0
H42 H 0.03634 0.05711 0.69418 0.0
O43 O 0.06558 0.00924 0.76346 0.0
H44 H 0.02172 0.98659 0.68636 0.0
H45 H 0.06001 0.08564 0.68129 0.0
Cu46 Cu 0.27062 0.05545 0.0756 0.0
N47 N 0.24697 0.04767 0.06609 0.0
N48 N 0.22841 0.02579 0.05461 0.0
C49 C 0.24684 0.02662 0.06329 0.0
C50 C 0.21639 0.04715 0.05183 0.0
C51 C 0.22782 0.06062 0.05912 0.0
O52 O 0.28799 0.02808 0.09219 0.0
C53 C 0.27379 0.0854 0.03611 0.0
O54 O 0.25421 0.09435 0.0452 0.0
H55 H 0.26047 0.01228 0.06637 0.0
H56 H 0.22263 0.07862 0.05875 0.0
N57 N 0.26151 0.07758 0.09734 0.0
N58 N 0.26264 0.10153 0.12397 0.0
C59 C 0.2742 0.08643 0.1087 0.0
C60 C 0.24125 0.08736 0.10564 0.0
C61 C 0.24188 0.10216 0.12199 0.0
C62 C 0.28104 0.02275 0.11357 0.0
O63 O 0.26398 0.03651 0.12355 0.0
H64 H 0.29159 0.08142 0.1062 0.0
H65 H 0.227 0.08376 0.10052 0.0
O66 O 0.28506 0.06759 0.04691 0.0
H67 H 0.20073 0.05262 0.04453 0.0
H68 H 0.22805 0.11261 0.13158 0.0
Cu69 Cu 0.06703 0.29202 0.09066 0.0
N70 N 0.08131 0.30857 0.06857 0.0
N71 N 0.10177 0.31701 0.03623 0.0
C72 C 0.09256 0.30156 0.04791 0.0
C73 C 0.09591 0.33446 0.05019 0.0
C74 C 0.08333 0.32919 0.0701 0.0
O75 O 0.08595 0.27902 0.11732 0.0
C76 C 0.04098 0.2653 0.07702 0.0
O77 O 0.03276 0.2662 0.09948 0.0
H78 H 0.09444 0.28512 0.04205 0.0
H79 H 0.07631 0.33955 0.08478 0.0
N80 N 0.0418 0.31116 0.10374 0.0
N81 N 1.01004 0.32125 0.12512 0.0
C82 C 0.02967 0.30637 0.12349 0.0
C83 C 0.02969 0.32999 0.09275 0.0
C84 C 1.01016 0.33631 0.10591 0.0
C85 C 0.10648 0.27392 0.1142 0.0
O86 O 0.11539 0.27384 0.092 0.0
H87 H 0.0347 0.29144 0.13551 0.0
H88 H 0.03414 0.33766 0.07545 0.0
O89 O 0.05757 0.27241 0.07109 0.0
H90 H 0.10032 0.34998 0.04638 0.0
H91 H 0.99656 0.34995 0.10066 0.0
Cu92 Cu 0.79013 0.99362 0.01924 0.0
N93 N 0.80809 0.00667 0.99812 0.0
N94 N 0.817 0.03358 0.97327 0.0
C95 C 0.80294 0.02857 0.99089 0.0
C96 C 0.83169 0.014 0.96926 0.0
C97 C 0.82616 0.99739 0.98469 0.0
O98 O 0.77341 0.01734 0.03904 0.0
C99 C 0.78482 0.96314 0.99029 0.0
O100 O 0.80532 0.95566 0.99425 0.0
H101 H 0.78842 0.0404 0.99751 0.0
H102 H 0.83428 0.97974 0.98537 0.0
N103 N 0.80514 0.97055 0.04032 0.0
N104 N 0.80998 0.94488 0.07179 0.0
C105 C 0.79556 0.96018 0.05857 0.0
C106 C 0.82642 0.96153 0.04187 0.0
C107 C 0.82946 0.94559 0.06126 0.0
C108 C 0.78424 0.02206 0.05469 0.0
O109 O 0.80446 0.01067 0.05622 0.0
H110 H 0.77827 0.96388 0.06199 0.0
H111 H 0.83882 0.96645 0.03005 0.0
O112 O 0.77376 0.98079 0.99987 0.0
H113 H 0.84515 0.01177 0.95579 0.0
H114 H 0.84481 0.93571 0.06742 0.0
Cu115 Cu 0.02263 0.74788 1.01005 0.0
N116 N 1.00904 0.73634 0.9881 0.0
N117 N 0.98587 0.73465 0.96131 0.0
C118 C 0.98977 0.74611 0.97896 0.0
C119 C 1.00347 0.71705 0.95938 0.0
C120 C 1.01769 0.71823 0.97573 0.0
O121 O 1.00048 0.76233 0.03477 0.0
C122 C 0.05334 0.77485 0.99561 0.0
O123 O 0.0516 0.78051 0.01791 0.0
H124 H 0.97909 0.76155 0.98486 0.0
H125 H 0.03364 0.70717 0.9777 0.0
N126 N 0.04224 0.7252 0.02746 0.0
N127 N 0.0682 0.71036 0.05281 0.0
C128 C 0.05604 0.72922 0.04181 0.0
C129 C 0.04552 0.70286 0.02974 0.0
C130 C 0.06156 0.69364 0.04545 0.0
C131 C 0.99075 0.7487 0.04626 0.0
O132 O 0.99581 0.72826 0.03949 0.0
H133 H 0.05666 0.74578 0.04482 0.0
H134 H 0.03671 0.69392 0.02095 0.0
O135 O 0.04073 0.76424 0.98945 0.0
H136 H 1.00637 0.70467 0.94636 0.0
H137 H 0.06786 0.67608 0.05092 0.0
Cu138 Cu 0.5308 0.51547 0.84916 0.0
N139 N 0.54051 0.53549 0.86453 0.0
N140 N 0.55716 0.56158 0.86874 0.0
C141 C 0.5556 0.54556 0.85505 0.0
C142 C 0.54247 0.56143 0.88764 0.0
C143 C 0.53213 0.54543 0.8849 0.0
O144 O 0.55582 0.49553 0.83246 0.0
C145 C 0.48924 0.54147 0.84138 0.0
O146 O 0.48716 0.5356 0.86461 0.0
H147 H 0.56477 0.54156 0.83805 0.0
H148 H 0.51876 0.54204 0.89631 0.0
N149 N 0.51913 0.49688 0.87158 0.0
N150 N 0.50074 0.47228 0.88539 0.0
C151 C 0.50709 0.48409 0.86582 0.0
C152 C 0.52069 0.49294 0.89565 0.0
C153 C 0.50935 0.47771 0.90424 0.0
C154 C 0.56945 0.48365 0.84697 0.0
O155 O 0.56595 0.48705 0.87007 0.0
H156 H 0.50325 0.4834 0.84749 0.0
H157 H 0.52951 0.5005 0.9062 0.0
O158 O 0.50745 0.53407 0.82976 0.0
H159 H 0.53865 0.57282 0.90179 0.0
H160 H 0.50736 0.47141 0.92291 0.0
Cu161 Cu 0.54659 0.53473 0.26016 0.0
N162 N 0.53477 0.51787 0.2424 0.0
N163 N 0.51663 0.49388 0.23515 0.0
C164 C 0.52245 0.50462 0.25208 0.0
C165 C 0.52572 0.50071 0.21395 0.0
C166 C 0.53696 0.51546 0.2185 0.0
O167 O 0.52336 0.55461 0.27907 0.0
C168 C 0.58429 0.50223 0.26393 0.0
O169 O 0.58289 0.5065 0.24045 0.0
H170 H 0.51773 0.50312 0.27121 0.0
H171 H 0.54629 0.5236 0.20537 0.0
N172 N 0.56018 0.55338 0.24034 0.0
N173 N 0.58311 0.57423 0.23014 0.0
C174 C 0.57753 0.55885 0.24633 0.0
C175 C 0.55441 0.56571 0.2196 0.0
C176 C 0.56863 0.57853 0.21316 0.0
C177 C 0.50617 0.56383 0.26835 0.0
O178 O 0.50478 0.55857 0.24646 0.0
H179 H 0.58569 0.55175 0.26253 0.0
H180 H 0.54049 0.5659 0.21025 0.0
O181 O 0.56913 0.51318 0.27794 0.0
H182 H 0.52473 0.49513 0.19645 0.0
H183 H 0.56784 0.59064 0.19769 0.0
Cu184 Cu 0.83305 0.54429 0.56374 0.0
N185 N 0.8513 0.5529 0.53893 0.0
N186 N 0.86169 0.57251 0.50647 0.0
C187 C 0.84669 0.57231 0.52503 0.0
C188 C 0.87634 0.55245 0.50888 0.0
C189 C 0.86987 0.54038 0.52891 0.0
O190 O 0.82035 0.5693 0.58356 0.0
C191 C 0.82027 0.51534 0.5389 0.0
O192 O 0.84107 0.506 0.53936 0.0
H193 H 0.83202 0.58553 0.52773 0.0
H194 H 0.8777 0.52334 0.53506 0.0
N195 N 0.84795 0.52003 0.58363 0.0
N196 N 0.85374 0.48825 0.60753 0.0
C197 C 0.83905 0.50482 0.59603 0.0
C198 C 0.86902 0.51301 0.58751 0.0
C199 C 0.87264 0.49343 0.60231 0.0
C200 C 0.83286 0.57387 0.59735 0.0
O201 O 0.85308 0.56205 0.59688 0.0
H202 H 0.82209 0.50585 0.59634 0.0
H203 H 0.88097 0.52133 0.57982 0.0
O204 O 0.81224 0.53375 0.54853 0.0
H205 H 0.89047 0.54672 0.49677 0.0
H206 H 0.88808 0.48348 0.60818 0.0
Cu207 Cu 0.56099 0.78139 0.57877 0.0
N208 N 0.58406 0.76474 0.55891 0.0
N209 N 0.61059 0.75735 0.52914 0.0
C210 C 0.59348 0.77286 0.53856 0.0
C211 C 0.61197 0.7388 0.54439 0.0
C212 C 0.59578 0.74342 0.56268 0.0
O213 O 0.57429 0.79377 0.60212 0.0
C214 C 0.53641 0.79422 0.54036 0.0
O215 O 0.54464 0.77271 0.53838 0.0
H216 H 0.58786 0.78991 0.53093 0.0
H217 H 0.59318 0.73217 0.57803 0.0
N218 N 0.54291 0.76502 0.59596 0.0
N219 N 0.51428 0.75856 0.61877 0.0
C220 C 0.5247 0.77396 0.60962 0.0
C221 C 0.54399 0.7432 0.59632 0.0
C222 C 0.5265 0.73916 0.6104 0.0
C223 C 0.58273 0.78013 0.61944 0.0
O224 O 0.5808 0.75967 0.62102 0.0
H225 H 0.51919 0.79152 0.61264 0.0
H226 H 0.5563 0.73112 0.58659 0.0
O227 O 0.54188 0.80305 0.5575 0.0
H228 H 0.62424 0.72312 0.54298 0.0
H229 H 0.5228 0.72323 0.61358 0.0
Cu230 Cu 0.27885 0.50122 0.52616 0.0
N231 N 0.29633 0.51647 0.50675 0.0
N232 N 0.30416 0.5443 0.482 0.0
C233 C 0.29035 0.53847 0.4996 0.0
C234 C 0.31949 0.52508 0.47809 0.0
C235 C 0.31452 0.50799 0.49317 0.0
O236 O 0.26006 0.52288 0.54654 0.0
C237 C 0.25185 0.47742 0.50887 0.0
O238 O 0.24717 0.4716 0.53163 0.0
H239 H 0.27559 0.54973 0.50651 0.0
H240 H 0.32281 0.49042 0.49302 0.0
N241 N 0.29432 0.47689 0.54597 0.0
N242 N 0.30122 0.44935 0.57579 0.0
C243 C 0.28592 0.46558 0.56459 0.0
C244 C 0.31571 0.46758 0.54549 0.0
C245 C 0.32 0.45063 0.56377 0.0
C246 C 0.26917 0.52817 0.56336 0.0
O247 O 0.28952 0.51791 0.56619 0.0
H248 H 0.26893 0.46956 0.57017 0.0
H249 H 0.32745 0.47282 0.53292 0.0
O250 O 0.26384 0.49048 0.5037 0.0
H251 H 0.33264 0.52314 0.46426 0.0
H252 H 0.33575 0.43994 0.56772 0.0
Cu253 Cu 0.51914 0.25006 0.51786 0.0
N254 N 0.54096 0.23474 0.49645 0.0
N255 N 0.57156 0.22717 0.47271 0.0
C256 C 0.55868 0.2412 0.48824 0.0
C257 C 0.56139 0.21129 0.47104 0.0
C258 C 0.54252 0.21602 0.48566 0.0
O259 O 0.5332 0.26634 0.53698 0.0
C260 C 0.48381 0.25447 0.49122 0.0
O261 O 0.48946 0.23294 0.49757 0.0
H262 H 0.56178 0.25619 0.4933 0.0
H263 H 0.53077 0.20651 0.48817 0.0
N264 N 0.50906 0.23024 0.54047 0.0
N265 N 0.49021 0.21854 0.5724 0.0
C266 C 0.49319 0.23629 0.55791 0.0
C267 C 0.5164 0.20788 0.54398 0.0
C268 C 0.50481 0.20062 0.56367 0.0
C269 C 0.54798 0.25313 0.54933 0.0
O270 O 0.55183 0.23158 0.54749 0.0
H271 H 0.48447 0.25349 0.5603 0.0
H272 H 0.52955 0.19761 0.53333 0.0
O273 O 0.49472 0.26656 0.49833 0.0
H274 H 0.56719 0.19714 0.4602 0.0
H275 H 0.50702 0.18348 0.57098 0.0
Sm276 Sm 0.27005 0.27027 0.32977 0.0
Sm277 Sm 0.29904 0.29612 0.29052 0.0
C278 C 0.23867 0.25454 0.3514 0.0
C279 C 0.22343 0.24193 0.34742 0.0
C280 C 0.20373 0.24597 0.36123 0.0
C281 C 0.18996 0.23254 0.36006 0.0
C282 C 0.1957 0.21469 0.34511 0.0
C283 C 0.21505 0.21137 0.33037 0.0
C284 C 0.22882 0.2249 0.33151 0.0
C285 C 0.30832 0.27133 0.34824 0.0
C286 C 0.29997 0.24401 0.28454 0.0
C287 C 0.32995 0.31247 0.26853 0.0
C288 C 0.34435 0.32672 0.27081 0.0
C289 C 0.36311 0.31888 0.28346 0.0
C290 C 0.37764 0.33187 0.28296 0.0
C291 C 0.37374 0.35284 0.26968 0.0
C292 C 0.35463 0.36087 0.25775 0.0
C293 C 0.34019 0.34794 0.25821 0.0
C294 C 0.26096 0.29449 0.27205 0.0
C295 C 0.2677 0.32297 0.33455 0.0
O296 O 0.23534 0.27492 0.34101 0.0
O297 O 0.25908 0.24337 0.35137 0.0
O298 O 0.3015 0.27897 0.3278 0.0
O299 O 0.29449 0.26173 0.35981 0.0
O300 O 0.28378 0.24512 0.30125 0.0
O301 O 0.30998 0.25996 0.27945 0.0
O302 O 0.33376 0.29265 0.28045 0.0
O303 O 0.30939 0.32258 0.26725 0.0
O304 O 0.2678 0.28721 0.29254 0.0
O305 O 0.27463 0.30424 0.26037 0.0
O306 O 0.28421 0.32199 0.31826 0.0
O307 O 0.25829 0.30661 0.33976 0.0
H308 H 0.19926 0.25914 0.3735 0.0
H309 H 0.17498 0.23587 0.37125 0.0
H310 H 0.22001 0.19773 0.31873 0.0
H311 H 0.24395 0.2216 0.32058 0.0
H312 H 0.36687 0.30252 0.2932 0.0
H313 H 0.39228 0.32513 0.29223 0.0
H314 H 0.35091 0.37712 0.24774 0.0
H315 H 0.32596 0.35438 0.24815 0.0
Sm316 Sm 0.79879 0.28486 0.32171 0.0
Sm317 Sm 0.78387 0.26719 0.28238 0.0
C318 C 0.81048 0.3103 0.35013 0.0
C319 C 0.80166 0.32698 0.36786 0.0
C320 C 0.78053 0.34087 0.36743 0.0
C321 C 0.77321 0.35781 0.38334 0.0
C322 C 0.7869 0.36103 0.39997 0.0
C323 C 0.80789 0.34669 0.40056 0.0
C324 C 0.81516 0.32986 0.38469 0.0
C325 C 0.82099 0.24058 0.31645 0.0
C326 C 0.76026 0.26312 0.3369 0.0
C327 C 0.76888 0.24423 0.25406 0.0
C328 C 0.77154 0.2304 0.23356 0.0
C329 C 0.79026 0.21317 0.22898 0.0
C330 C 0.79102 0.19865 0.21117 0.0
C331 C 0.77303 0.20105 0.19775 0.0
C332 C 0.75463 0.21884 0.20196 0.0
C333 C 0.75394 0.23334 0.21964 0.0
C334 C 0.76257 0.31151 0.28834 0.0
C335 C 0.82283 0.28824 0.26694 0.0
O336 O 0.80582 0.31648 0.32771 0.0
O337 O 0.81022 0.2897 0.35672 0.0
O338 O 0.81593 0.25545 0.29928 0.0
O339 O 0.81461 0.24904 0.33704 0.0
O340 O 0.76795 0.27942 0.34182 0.0
O341 O 0.76675 0.25341 0.31655 0.0
O342 O 0.77866 0.23537 0.27363 0.0
O343 O 0.76739 0.26549 0.24957 0.0
O344 O 0.76695 0.29621 0.3051 0.0
O345 O 0.76945 0.30368 0.26755 0.0
O346 O 0.81448 0.27253 0.26158 0.0
O347 O 0.81681 0.29765 0.28757 0.0
H348 H 0.76984 0.33888 0.35454 0.0
H349 H 0.75691 0.36842 0.38255 0.0
H350 H 0.81901 0.3489 0.41279 0.0
H351 H 0.83156 0.31939 0.38517 0.0
H352 H 0.80406 0.21062 0.23952 0.0
H353 H 0.80558 0.18536 0.20815 0.0
H354 H 0.74037 0.22106 0.19231 0.0
H355 H 0.73927 0.24642 0.22306 0.0
Sm356 Sm 0.80093 0.74484 0.28422 0.0
Sm357 Sm 0.802 0.79099 0.29738 0.0
C358 C 0.7994 0.70309 0.28282 0.0
C359 C 0.78257 0.69274 0.27822 0.0
C360 C 0.78481 0.67007 0.28507 0.0
C361 C 0.76908 0.66005 0.28004 0.0
C362 C 0.75093 0.67258 0.26797 0.0
C363 C 0.74868 0.6954 0.26142 0.0
C364 C 0.76432 0.70541 0.26659 0.0
C365 C 0.77793 0.78012 0.2551 0.0
C366 C 0.76517 0.77055 0.32576 0.0
C367 C 0.8033 0.83283 0.29918 0.0
C368 C 0.81888 0.84413 0.30532 0.0
C369 C 0.8154 0.86709 0.29933 0.0
C370 C 0.82993 0.87811 0.30552 0.0
C371 C 0.84816 0.86629 0.31785 0.0
C372 C 0.85162 0.84319 0.32366 0.0
C373 C 0.83712 0.83218 0.31738 0.0
C374 C 0.82522 0.75559 0.32615 0.0
C375 C 0.83681 0.76591 0.25471 0.0
O376 O 0.7966 0.71297 0.30292 0.0
O377 O 0.806 0.71472 0.26433 0.0
O378 O 0.77897 0.77978 0.27758 0.0
O379 O 0.78686 0.76039 0.24798 0.0
O380 O 0.77691 0.75122 0.31814 0.0
O381 O 0.76916 0.7895 0.31659 0.0
O382 O 0.80812 0.82235 0.27943 0.0
O383 O 0.79561 0.82144 0.31709 0.0
O384 O 0.82432 0.75606 0.30365 0.0
O385 O 0.8157 0.77502 0.33371 0.0
O386 O 0.82517 0.78513 0.26268 0.0
O387 O 0.83324 0.74682 0.26405 0.0
H388 H 0.7988 0.66008 0.2941 0.0
H389 H 0.77131 0.64242 0.28518 0.0
H390 H 0.73473 0.70556 0.25244 0.0
H391 H 0.76224 0.72301 0.26135 0.0
H392 H 0.80137 0.87653 0.29002 0.0
H393 H 0.82671 0.89594 0.30099 0.0
H394 H 0.86566 0.83357 0.33284 0.0
H395 H 0.84009 0.81438 0.32201 0.0
Sm396 Sm 0.28011 0.77526 0.27662 0.0
Sm397 Sm 0.31395 0.78724 0.30932 0.0
C398 C 0.24791 0.77579 0.25069 0.0
C399 C 0.2355 0.76245 0.24108 0.0
C400 C 0.21296 0.76975 0.2433 0.0
C401 C 0.20064 0.75942 0.23162 0.0
C402 C 0.21062 0.74157 0.21735 0.0
C403 C 0.23323 0.73369 0.21594 0.0
C404 C 0.24556 0.74401 0.2277 0.0
C405 C 0.32055 0.74601 0.2765 0.0
C406 C 0.30402 0.81497 0.25681 0.0
C407 C 0.34887 0.78794 0.32997 0.0
C408 C 0.35667 0.79653 0.35014 0.0
C409 C 0.35346 0.7885 0.37434 0.0
C410 C 0.36296 0.79521 0.39274 0.0
C411 C 0.37587 0.81007 0.38734 0.0
C412 C 0.37851 0.81856 0.36321 0.0
C413 C 0.36908 0.81181 0.34484 0.0
C414 C 0.27211 0.81412 0.31754 0.0
C415 C 0.2899 0.74746 0.32895 0.0
O416 O 0.26767 0.7739 0.24143 0.0
O417 O 0.2453 0.77856 0.27395 0.0
O418 O 0.31643 0.76694 0.27727 0.0
O419 O 0.30334 0.74039 0.27271 0.0
O420 O 0.28735 0.80674 0.25625 0.0
O421 O 0.31825 0.80779 0.27336 0.0
O422 O 0.33917 0.77203 0.33501 0.0
O423 O 0.34058 0.80247 0.31243 0.0
O424 O 0.27912 0.7984 0.30426 0.0
O425 O 0.28809 0.81569 0.32904 0.0
O426 O 0.30665 0.75566 0.32941 0.0
O427 O 0.27542 0.75472 0.31255 0.0
H428 H 0.20485 0.78406 0.25334 0.0
H429 H 0.18331 0.76614 0.23287 0.0
H430 H 0.24141 0.7198 0.20535 0.0
H431 H 0.26294 0.73799 0.22573 0.0
H432 H 0.34401 0.77667 0.37904 0.0
H433 H 0.36043 0.78853 0.41118 0.0
H434 H 0.3886 0.82974 0.35832 0.0
H435 H 0.37204 0.81806 0.32632 0.0
Sm436 Sm 0.29245 0.7828 0.82177 0.0
Sm437 Sm 0.27515 0.75831 0.78954 0.0
C438 C 0.30157 0.80863 0.85143 0.0
C439 C 0.29092 0.82371 0.87001 0.0
C440 C 0.26888 0.82739 0.87677 0.0
C441 C 0.2591 0.84205 0.89448 0.0
C442 C 0.27127 0.85327 0.90545 0.0
C443 C 0.29339 0.84927 0.89868 0.0
C444 C 0.30311 0.83461 0.88111 0.0
C445 C 0.31853 0.7403 0.81568 0.0
C446 C 0.2502 0.76563 0.84342 0.0
C447 C 0.26169 0.72975 0.76729 0.0
C448 C 0.25899 0.72231 0.74374 0.0
C449 C 0.27356 0.70295 0.73539 0.0
C450 C 0.26953 0.69364 0.71523 0.0
C451 C 0.25077 0.7034 0.70299 0.0
C452 C 0.23659 0.72326 0.71078 0.0
C453 C 0.24063 0.73261 0.731 0.0
C454 C 0.25837 0.80432 0.78353 0.0
C455 C 0.31494 0.7778 0.76736 0.0
O456 O 0.29649 0.81546 0.82917 0.0
O457 O 0.30317 0.78739 0.85696 0.0
O458 O 0.29822 0.74526 0.81911 0.0
O459 O 0.32545 0.75769 0.8162 0.0
O460 O 0.26303 0.77802 0.84673 0.0
O461 O 0.25287 0.75478 0.82377 0.0
O462 O 0.28125 0.72558 0.7742 0.0
O463 O 0.24915 0.74886 0.7737 0.0
O464 O 0.26157 0.79265 0.80328 0.0
O465 O 0.26426 0.79164 0.76562 0.0
O466 O 0.30613 0.7612 0.76692 0.0
O467 O 0.30856 0.79188 0.78452 0.0
H468 H 0.25927 0.81905 0.86827 0.0
H469 H 0.24202 0.84491 0.89927 0.0
H470 H 0.30324 0.85738 0.90711 0.0
H471 H 0.32017 0.83182 0.87614 0.0
H472 H 0.28765 0.69441 0.74505 0.0
H473 H 0.28062 0.67812 0.71002 0.0
H474 H 0.22209 0.73128 0.70161 0.0
H475 H 0.22898 0.74745 0.73709 0.0
Sm476 Sm 0.28975 0.24205 0.7975 0.0
Sm477 Sm 0.30338 0.28107 0.81209 0.0
C478 C 0.27697 0.20568 0.79471 0.0
C479 C 0.25881 0.19893 0.78713 0.0
C480 C 0.25545 0.17851 0.79676 0.0
C481 C 0.23901 0.17109 0.78896 0.0
C482 C 0.22562 0.184 0.77134 0.0
C483 C 0.22887 0.20467 0.76194 0.0
C484 C 0.24531 0.21213 0.76984 0.0
C485 C 0.28083 0.27906 0.76448 0.0
C486 C 0.2569 0.27721 0.83293 0.0
C487 C 0.31643 0.31711 0.81567 0.0
C488 C 0.33338 0.32391 0.82617 0.0
C489 C 0.35533 0.31327 0.82147 0.0
C490 C 0.37098 0.3207 0.83116 0.0
C491 C 0.36492 0.33874 0.84584 0.0
C492 C 0.34293 0.34903 0.85082 0.0
C493 C 0.32734 0.34172 0.84102 0.0
C494 C 0.31271 0.24388 0.84489 0.0
C495 C 0.33571 0.24656 0.77588 0.0
O496 O 0.27353 0.21651 0.81418 0.0
O497 O 0.28867 0.2136 0.77756 0.0
O498 O 0.2787 0.27958 0.78716 0.0
O499 O 0.28531 0.25868 0.75869 0.0
O500 O 0.26373 0.25627 0.82738 0.0
O501 O 0.26751 0.29184 0.82431 0.0
O502 O 0.32196 0.30499 0.79712 0.0
O503 O 0.30225 0.31094 0.83101 0.0
O504 O 0.31466 0.24352 0.82221 0.0
O505 O 0.30813 0.26421 0.85079 0.0
O506 O 0.32846 0.26755 0.78117 0.0
O507 O 0.3256 0.23162 0.78497 0.0
H508 H 0.26578 0.1681 0.81006 0.0
H509 H 0.23713 0.15497 0.79631 0.0
H510 H 0.21868 0.21508 0.74853 0.0
H511 H 0.24765 0.22802 0.76228 0.0
H512 H 0.36042 0.29936 0.81018 0.0
H513 H 0.38781 0.31237 0.82715 0.0
H514 H 0.33776 0.36319 0.86174 0.0
H515 H 0.3105 0.35019 0.84482 0.0
Sm516 Sm 0.77734 0.27555 0.78661 0.0
Sm517 Sm 0.81183 0.28649 0.81961 0.0
C518 C 0.74065 0.27906 0.76682 0.0
C519 C 0.72828 0.28007 0.7453 0.0
C520 C 0.7108 0.29875 0.74055 0.0
C521 C 0.69703 0.29909 0.72248 0.0
C522 C 0.70026 0.28066 0.70863 0.0
C523 C 0.71818 0.26218 0.71298 0.0
C524 C 0.73195 0.26186 0.7311 0.0
C525 C 0.81832 0.24677 0.77936 0.0
C526 C 0.8086 0.30768 0.76378 0.0
C527 C 0.84184 0.28961 0.84726 0.0
C528 C 0.8595 0.28121 0.86385 0.0
C529 C 0.85766 0.26744 0.8851 0.0
C530 C 0.87365 0.26223 0.9018 0.0
C531 C 0.89179 0.2708 0.89774 0.0
C532 C 0.89369 0.28414 0.87609 0.0
C533 C 0.87782 0.2892 0.85943 0.0
C534 C 0.77169 0.31685 0.8171 0.0
C535 C 0.78896 0.24614 0.83789 0.0
O536 O 0.74731 0.29638 0.77038 0.0
O537 O 0.75362 0.25995 0.77445 0.0
O538 O 0.81225 0.26289 0.79241 0.0
O539 O 0.80202 0.24607 0.76776 0.0
O540 O 0.79028 0.30229 0.76285 0.0
O541 O 0.82121 0.30064 0.78195 0.0
O542 O 0.84569 0.28653 0.82413 0.0
O543 O 0.82194 0.29064 0.85546 0.0
O544 O 0.7754 0.29586 0.81847 0.0
O545 O 0.78933 0.32238 0.81868 0.0
O546 O 0.80571 0.25423 0.83844 0.0
O547 O 0.77394 0.25414 0.82224 0.0
H548 H 0.70733 0.31291 0.75141 0.0
H549 H 0.68335 0.31351 0.72003 0.0
H550 H 0.72149 0.24781 0.7025 0.0
H551 H 0.74519 0.24713 0.73432 0.0
H552 H 0.84368 0.26107 0.88906 0.0
H553 H 0.87167 0.25162 0.91799 0.0
H554 H 0.90705 0.29146 0.87231 0.0
H555 H 0.87952 0.3001 0.84336 0.0
Sm556 Sm 0.76056 0.77158 0.80959 0.0
Sm557 Sm 0.79164 0.79735 0.77211 0.0
C558 C 0.72848 0.75758 0.8323 0.0
C559 C 0.71343 0.74393 0.83141 0.0
C560 C 0.70095 0.74561 0.81169 0.0
C561 C 0.68683 0.73218 0.81197 0.0
C562 C 0.68491 0.71703 0.83206 0.0
C563 C 0.69757 0.71542 0.85161 0.0
C564 C 0.7116 0.72874 0.85129 0.0
C565 C 0.80098 0.76624 0.82637 0.0
C566 C 0.78656 0.748 0.76073 0.0
C567 C 0.82439 0.81089 0.75064 0.0
C568 C 0.84059 0.82286 0.75333 0.0
C569 C 0.85713 0.81467 0.7692 0.0
C570 C 0.87301 0.82587 0.76983 0.0
C571 C 0.8727 0.84526 0.75443 0.0
C572 C 0.85587 0.85357 0.739 0.0
C573 C 0.84007 0.84247 0.73842 0.0
C574 C 0.75124 0.80269 0.75557 0.0
C575 C 0.76423 0.82166 0.81982 0.0
O576 O 0.72548 0.77673 0.81913 0.0
O577 O 0.74878 0.74661 0.83381 0.0
O578 O 0.79348 0.77664 0.80722 0.0
O579 O 0.78655 0.75729 0.83757 0.0
O580 O 0.77121 0.74845 0.77845 0.0
O581 O 0.79769 0.7631 0.75668 0.0
O582 O 0.82664 0.79078 0.76158 0.0
O583 O 0.80432 0.823 0.75021 0.0
O584 O 0.7589 0.79244 0.77468 0.0
O585 O 0.76549 0.8118 0.74413 0.0
O586 O 0.78054 0.82042 0.80317 0.0
O587 O 0.75296 0.80667 0.82351 0.0
H588 H 0.70203 0.75726 0.79617 0.0
H589 H 0.67721 0.73387 0.79669 0.0
H590 H 0.69683 0.70364 0.86714 0.0
H591 H 0.72112 0.72715 0.86667 0.0
H592 H 0.85805 0.79947 0.78077 0.0
H593 H 0.88585 0.81902 0.78183 0.0
H594 H 0.85495 0.86867 0.72723 0.0
H595 H 0.82755 0.84907 0.72595 0.0
H596 H 0.09141 0.06878 0.32695 0.0
H597 H 0.11185 0.09655 0.3219 0.0
H598 H 0.1032 0.10354 0.39867 0.0
H599 H 0.08253 0.07589 0.40391 0.0
H600 H 0.09944 0.14129 0.3341 0.0
H601 H 0.16875 0.08996 0.38418 0.0
H602 H 0.14901 0.07824 0.37384 0.0
H603 H 0.14304 0.09309 0.40072 0.0
C604 C 0.09363 0.07634 0.34277 0.0
C605 C 0.08533 0.07002 0.36588 0.0
C606 C 0.10543 0.09214 0.33984 0.0
C607 C 0.1093 0.10184 0.35994 0.0
C608 C 0.10078 0.09589 0.38298 0.0
H609 H 0.1759 0.19786 0.38516 0.0
H610 H 0.15439 0.17125 0.38736 0.0
C611 C 0.08897 0.08007 0.38594 0.0
C612 C 0.12214 0.1183 0.35678 0.0
H613 H 0.16794 0.12785 0.37326 0.0
C614 C 0.11448 0.13834 0.34253 0.0
C615 C 0.14178 0.11432 0.36774 0.0
C616 C 0.15129 0.09266 0.3823 0.0
C617 C 0.12566 0.15483 0.33952 0.0
C618 C 0.14517 0.15096 0.35074 0.0
C619 C 0.15294 0.13079 0.36474 0.0
C620 C 0.15753 0.16782 0.34885 0.0
C621 C 0.1162 0.1765 0.32496 0.0
C622 C 0.1665 0.1747 0.32642 0.0
C623 C 0.1787 0.19012 0.32505 0.0
C624 C 0.18219 0.19887 0.34612 0.0
C625 C 0.17318 0.19184 0.36852 0.0
C626 C 0.16102 0.17648 0.36986 0.0
H627 H 0.09891 0.17891 0.32237 0.0
H628 H 0.11788 0.19094 0.33389 0.0
H629 H 0.12497 0.17639 0.30684 0.0
H630 H 0.16431 0.16792 0.31002 0.0
H631 H 0.18536 0.19523 0.30752 0.0
H632 H 0.99319 0.06903 0.29378 0.0
H633 H 0.96271 0.10115 0.28258 0.0
H634 H 0.94541 0.11126 0.35805 0.0
H635 H 0.97537 0.07987 0.36926 0.0
H636 H 0.91669 0.10948 0.29733 0.0
H637 H 0.95109 0.1726 0.32834 0.0
H638 H 0.96723 0.14483 0.32239 0.0
H639 H 0.95144 0.1497 0.35069 0.0
C640 C 0.98289 0.07817 0.30792 0.0
C641 C 0.98692 0.07192 0.33241 0.0
C642 C 0.96547 0.09648 0.30151 0.0
C643 C 0.95198 0.10887 0.31949 0.0
C644 C 0.95581 0.1023 0.34383 0.0
H645 H 0.8393 0.21089 0.35279 0.0
H646 H 0.87096 0.17881 0.34973 0.0
C647 C 0.97301 0.08419 0.3502 0.0
C648 C 0.93375 0.12869 0.31348 0.0
H649 H 0.91277 0.18336 0.32538 0.0
C650 C 0.91598 0.12578 0.30294 0.0
C651 C 0.93281 0.15 0.32077 0.0
C652 C 0.95175 0.15457 0.33095 0.0
C653 C 0.89686 0.14326 0.3009 0.0
C654 C 0.89557 0.16411 0.30956 0.0
C655 C 0.91369 0.1673 0.31897 0.0
C656 C 0.87519 0.18242 0.31068 0.0
C657 C 0.87778 0.13907 0.29068 0.0
C658 C 0.86685 0.195 0.28968 0.0
C659 C 0.84871 0.21349 0.29139 0.0
C660 C 0.83865 0.2197 0.31413 0.0
C661 C 0.84666 0.2066 0.33501 0.0
C662 C 0.86479 0.18825 0.3333 0.0
H663 H 0.88068 0.12134 0.28688 0.0
H664 H 0.86335 0.14369 0.3035 0.0
H665 H 0.87421 0.14972 0.27357 0.0
H666 H 0.87474 0.19093 0.27206 0.0
H667 H 0.84294 0.22328 0.27497 0.0
H668 H 0.98464 0.9517 0.4025 0.0
H669 H 0.95831 0.93197 0.39539 0.0
H670 H 0.95347 0.96331 0.32274 0.0
H671 H 0.98017 0.98234 0.32924 0.0
H672 H 0.9157 0.94821 0.38145 0.0
H673 H 0.96864 0.89673 0.31251 0.0
H674 H 0.97862 0.9121 0.33228 0.0
H675 H 0.96523 0.92617 0.30593 0.0
C676 C 0.97807 0.95431 0.38497 0.0
C677 C 0.98475 0.96853 0.36643 0.0
C678 C 0.96293 0.94312 0.38099 0.0
C679 C 0.95428 0.94587 0.35839 0.0
C680 C 0.96029 0.96062 0.34016 0.0
H681 H 0.86388 0.89787 0.29035 0.0
H682 H 0.88916 0.91717 0.30157 0.0
C683 C 0.97541 0.97175 0.34407 0.0
C684 C 0.93908 0.93323 0.35363 0.0
H685 H 0.93183 0.89649 0.31609 0.0
C686 C 0.91926 0.93675 0.36731 0.0
C687 C 0.94384 0.91824 0.33522 0.0
C688 C 0.96532 0.91288 0.32079 0.0
C689 C 0.90376 0.9262 0.36252 0.0
C690 C 0.90838 0.91161 0.34376 0.0
C691 C 0.92832 0.90782 0.33036 0.0
C692 C 0.89263 0.90029 0.33745 0.0
C693 C 0.88235 0.93123 0.37705 0.0
C694 C 0.88638 0.88429 0.35388 0.0
C695 C 0.87191 0.87326 0.34754 0.0
C696 C 0.86348 0.87803 0.32464 0.0
C697 C 0.86986 0.89404 0.30823 0.0
C698 C 0.88437 0.90499 0.31455 0.0
H699 H 0.87963 0.94628 0.38719 0.0
H700 H 0.86896 0.93381 0.36511 0.0
H701 H 0.88187 0.91683 0.39032 0.0
H702 H 0.89283 0.88019 0.37151 0.0
H703 H 0.8672 0.86114 0.36064 0.0
H704 H 0.08286 0.95461 0.33228 0.0
H705 H 0.11475 0.92277 0.33112 0.0
H706 H 0.14893 0.96232 0.28356 0.0
H707 H 0.11736 0.99468 0.2858 0.0
H708 H 0.13852 0.89758 0.29976 0.0
H709 H 0.18981 0.943 0.33482 0.0
H710 H 0.16126 0.95478 0.33308 0.0
H711 H 0.17943 0.95605 0.30669 0.0
C712 C 0.09709 0.95651 0.32135 0.0
C713 C 0.0976 0.9773 0.3093 0.0
C714 C 0.1154 0.93823 0.32074 0.0
C715 C 0.13461 0.94018 0.30785 0.0
C716 C 0.13466 0.96052 0.29443 0.0
H717 H 0.24408 0.82309 0.28193 0.0
H718 H 0.21061 0.85304 0.27912 0.0
C719 C 0.11649 0.97897 0.29546 0.0
C720 C 0.15457 0.92113 0.30909 0.0
H721 H 0.20752 0.9073 0.32143 0.0
C722 C 0.15358 0.89972 0.30459 0.0
C723 C 0.17423 0.92364 0.3159 0.0
C724 C 0.17623 0.94555 0.32316 0.0
C725 C 0.17155 0.88094 0.3066 0.0
C726 C 0.19146 0.88367 0.31233 0.0
C727 C 0.19241 0.90507 0.31685 0.0
C728 C 0.21144 0.86468 0.31424 0.0
C729 C 0.16866 0.85831 0.30336 0.0
C730 C 0.22362 0.86141 0.33456 0.0
C731 C 0.24311 0.84468 0.33585 0.0
C732 C 0.25069 0.83055 0.31704 0.0
C733 C 0.23839 0.83345 0.29693 0.0
C734 C 0.21914 0.85053 0.29538 0.0
H735 H 0.15161 0.85804 0.30729 0.0
H736 H 0.17331 0.85439 0.28429 0.0
H737 H 0.17878 0.84501 0.31533 0.0
H738 H 0.21819 0.87202 0.34939 0.0
H739 H 0.25233 0.84289 0.35149 0.0
H740 H 0.11305 0.97574 0.71934 0.0
H741 H 0.14373 0.94502 0.73005 0.0
H742 H 0.12289 0.94983 0.80566 0.0
H743 H 0.09135 0.98075 0.7949 0.0
H744 H 0.17703 0.94266 0.75633 0.0
H745 H 0.13107 0.88395 0.79898 0.0
H746 H 0.11844 0.90952 0.78175 0.0
H747 H 0.1252 0.91021 0.81213 0.0
C748 C 0.1148 0.97039 0.73833 0.0
C749 C 0.09951 0.98075 0.75626 0.0
C750 C 0.13252 0.95274 0.74442 0.0
C751 C 0.13562 0.94479 0.76863 0.0
C752 C 0.12067 0.95532 0.78678 0.0
H753 H 0.23756 0.82882 0.82076 0.0
H754 H 0.20884 0.86383 0.81868 0.0
C755 C 0.10272 0.97311 0.78064 0.0
C756 C 0.15457 0.92547 0.77422 0.0
H757 H 0.16886 0.87076 0.79679 0.0
C758 C 0.17522 0.927 0.76534 0.0
C759 C 0.15232 0.90494 0.78595 0.0
C760 C 0.13058 0.90186 0.79511 0.0
C761 C 0.19347 0.90859 0.76742 0.0
C762 C 0.19111 0.88795 0.77852 0.0
C763 C 0.17065 0.88657 0.78818 0.0
C764 C 0.20953 0.8674 0.77961 0.0
C765 C 0.21518 0.91134 0.75765 0.0
C766 C 0.21965 0.85775 0.75831 0.0
C767 C 0.23606 0.83763 0.75943 0.0
C768 C 0.24267 0.82676 0.78188 0.0
C769 C 0.23288 0.83677 0.80315 0.0
C770 C 0.2164 0.85676 0.80201 0.0
H771 H 0.21518 0.9292 0.75519 0.0
H772 H 0.22785 0.90223 0.7699 0.0
H773 H 0.21939 0.90431 0.73977 0.0
H774 H 0.21446 0.86549 0.74081 0.0
H775 H 0.24319 0.83031 0.74276 0.0
H776 H 0.08447 0.08642 0.75702 0.0
H777 H 0.11062 0.10711 0.76048 0.0
H778 H 0.12112 0.1139 0.6828 0.0
H779 H 0.09506 0.09264 0.67911 0.0
H780 H 0.15585 0.09283 0.73901 0.0
H781 H 0.10978 0.1789 0.70742 0.0
H782 H 0.09642 0.15787 0.71937 0.0
H783 H 0.11039 0.15597 0.68998 0.0
C784 C 0.09238 0.09212 0.74062 0.0
C785 C 0.08786 0.08759 0.71777 0.0
C786 C 0.1072 0.10413 0.74264 0.0
C787 C 0.1177 0.11204 0.72191 0.0
C788 C 0.11297 0.10808 0.699 0.0
H789 H 0.21518 0.18524 0.72457 0.0
H790 H 0.18932 0.16836 0.70996 0.0
C791 C 0.0981 0.09597 0.69693 0.0
C792 C 0.13439 0.12336 0.72477 0.0
H793 H 0.14363 0.17472 0.72222 0.0
C794 C 0.15331 0.11069 0.73509 0.0
C795 C 0.13102 0.14661 0.71945 0.0
C796 C 0.1108 0.1608 0.70851 0.0
C797 C 0.16873 0.12078 0.74095 0.0
C798 C 0.16487 0.1442 0.73684 0.0
C799 C 0.1464 0.15678 0.7255 0.0
C800 C 0.17929 0.15589 0.74556 0.0
C801 C 0.18891 0.10629 0.7518 0.0
C802 C 0.18166 0.15503 0.77043 0.0
C803 C 0.19629 0.16468 0.77882 0.0
C804 C 0.20877 0.17549 0.76248 0.0
C805 C 0.20572 0.17713 0.73761 0.0
C806 C 0.19104 0.16743 0.72922 0.0
H807 H 0.19224 0.08864 0.74751 0.0
H808 H 0.20307 0.1125 0.74516 0.0
H809 H 0.18688 0.10666 0.77177 0.0
H810 H 0.17238 0.14659 0.78336 0.0
H811 H 0.19795 0.16352 0.7981 0.0
H812 H 1.00087 0.08723 0.79175 0.0
H813 H 0.97084 0.11924 0.80368 0.0
H814 H 0.9319 0.10442 0.75256 0.0
H815 H 0.96141 0.07284 0.74076 0.0
H816 H 0.95062 0.15674 0.77187 0.0
H817 H 0.89124 0.11311 0.81385 0.0
H818 H 0.9196 0.09917 0.80961 0.0
H819 H 0.90248 0.10334 0.78498 0.0
C820 C 0.98571 0.09056 0.78352 0.0
C821 C 0.98351 0.07744 0.76537 0.0
C822 C 0.96863 0.10892 0.79021 0.0
C823 C 0.94898 0.11414 0.7792 0.0
C824 C 0.94668 0.10058 0.76165 0.0
H825 H 0.83121 0.2106 0.75304 0.0
H826 H 0.86388 0.17968 0.75592 0.0
C827 C 0.96367 0.08253 0.75483 0.0
C828 C 0.93117 0.13445 0.78442 0.0
H829 H 0.87688 0.15132 0.79836 0.0
C830 C 0.93458 0.15563 0.77819 0.0
C831 C 0.91021 0.13303 0.79266 0.0
C832 C 0.90568 0.11094 0.8009 0.0
C833 C 0.91736 0.17524 0.77847 0.0
C834 C 0.89621 0.17365 0.7854 0.0
C835 C 0.89303 0.15257 0.79283 0.0
C836 C 0.87694 0.19327 0.78328 0.0
C837 C 0.92169 0.19739 0.77007 0.0
C838 C 0.87336 0.21137 0.79762 0.0
C839 C 0.8546 0.22919 0.79595 0.0
C840 C 0.83909 0.22917 0.77995 0.0
C841 C 0.84288 0.21118 0.76545 0.0
C842 C 0.86153 0.19343 0.76715 0.0
H843 H 0.93829 0.19538 0.76164 0.0
H844 H 0.91007 0.20682 0.75679 0.0
H845 H 0.91962 0.20752 0.78579 0.0
H846 H 0.88483 0.2115 0.81046 0.0
H847 H 0.852 0.2427 0.80755 0.0
H848 H 0.99098 0.97373 0.69254 0.0
H849 H 0.96976 0.94674 0.70107 0.0
H850 H 0.98279 0.93995 0.77629 0.0
H851 H 1.00442 0.96651 0.76796 0.0
H852 H 0.984 0.90084 0.72377 0.0
H853 H 0.91565 0.956 0.77577 0.0
H854 H 0.93458 0.96684 0.75566 0.0
H855 H 0.94226 0.95325 0.78468 0.0
C856 C 0.98953 0.96641 0.71087 0.0
C857 C 0.99938 0.97248 0.72955 0.0
C858 C 0.9773 0.95105 0.71572 0.0
C859 C 0.97455 0.94158 0.73934 0.0
C860 C 0.98446 0.94737 0.75801 0.0
H861 H 0.89126 0.85507 0.7927 0.0
H862 H 0.91825 0.87612 0.79103 0.0
C863 C 0.99676 0.96266 0.75318 0.0
C864 C 0.96137 0.92554 0.74434 0.0
H865 H 0.91357 0.91964 0.77147 0.0
C866 C 0.96864 0.90487 0.73429 0.0
C867 C 0.94149 0.9308 0.7583 0.0
C868 C 0.93286 0.95296 0.76915 0.0
C869 C 0.95636 0.88939 0.73754 0.0
C870 C 0.93608 0.89499 0.75071 0.0
C871 C 0.92913 0.91538 0.7614 0.0
C872 C 0.92107 0.88079 0.75193 0.0
C873 C 0.96524 0.86718 0.72683 0.0
C874 C 0.91374 0.87647 0.73054 0.0
C875 C 0.89848 0.86446 0.73144 0.0
C876 C 0.89001 0.85668 0.75378 0.0
C877 C 0.89761 0.86069 0.77523 0.0
C878 C 0.91293 0.87278 0.7743 0.0
H879 H 0.98311 0.86259 0.72453 0.0
H880 H 0.9602 0.85366 0.73832 0.0
H881 H 0.95912 0.86829 0.70869 0.0
H882 H 0.91946 0.88285 0.7131 0.0
H883 H 0.89314 0.86143 0.71458 0.0
H884 H 0.30116 0.11156 0.11859 0.0
H885 H 0.31422 0.13333 0.1448 0.0
H886 H 0.25543 0.14201 0.19047 0.0
H887 H 0.24244 0.1199 0.16492 0.0
H888 H 0.26928 0.18276 0.17206 0.0
H889 H 0.33194 0.11494 0.2175 0.0
H890 H 0.33133 0.11597 0.18511 0.0
H891 H 0.30973 0.10944 0.2043 0.0
C892 C 0.29112 0.11779 0.13439 0.0
C893 C 0.27067 0.11399 0.13953 0.0
C894 C 0.29861 0.13027 0.1493 0.0
C895 C 0.2858 0.13913 0.16956 0.0
C896 C 0.26552 0.13529 0.17486 0.0
H897 H 0.28906 0.20467 0.29335 0.0
H898 H 0.29013 0.1779 0.26402 0.0
C899 C 0.25806 0.12277 0.16009 0.0
C900 C 0.29294 0.15327 0.18485 0.0
H901 H 0.32615 0.15135 0.22949 0.0
C902 C 0.28191 0.176 0.18439 0.0
C903 C 0.30933 0.14425 0.20094 0.0
C904 C 0.32129 0.11979 0.20224 0.0
C905 C 0.28651 0.18994 0.20006 0.0
C906 C 0.30263 0.18087 0.21647 0.0
C907 C 0.31398 0.15821 0.21665 0.0
C908 C 0.30618 0.19438 0.23509 0.0
C909 C 0.27349 0.21408 0.19971 0.0
C910 C 0.31567 0.21196 0.22872 0.0
C911 C 0.31518 0.22729 0.24549 0.0
C912 C 0.305 0.22533 0.26877 0.0
C913 C 0.29689 0.20675 0.27553 0.0
C914 C 0.29754 0.19138 0.25883 0.0
H915 H 0.25989 0.2178 0.18786 0.0
H916 H 0.26698 0.21839 0.21829 0.0
H917 H 0.28404 0.22499 0.19299 0.0
H918 H 0.32243 0.21446 0.21043 0.0
H919 H 0.32152 0.24143 0.23968 0.0
H920 H 0.97465 0.35453 0.13719 0.0
H921 H 0.94225 0.35069 0.16168 0.0
H922 H 0.97078 0.27981 0.17359 0.0
H923 H 1.00298 0.28337 0.14895 0.0
H924 H 0.91508 0.3241 0.15314 0.0
H925 H 0.9501 0.29936 0.24222 0.0
H926 H 0.96331 0.31208 0.21696 0.0
H927 H 0.96458 0.28291 0.21825 0.0
C928 C 0.97408 0.33812 0.14505 0.0
C929 C 0.99157 0.3193 0.1411 0.0
C930 C 0.95555 0.33597 0.15909 0.0
C931 C 0.95419 0.315 0.16967 0.0
C932 C 0.97165 0.29623 0.166 0.0
H933 H 0.84171 0.27049 0.22454 0.0
H934 H 0.8728 0.27812 0.20026 0.0
C935 C 0.99014 0.29834 0.15192 0.0
C936 C 0.93423 0.31258 0.1838 0.0
H937 H 0.91497 0.29549 0.23959 0.0
C938 C 0.91501 0.31796 0.17208 0.0
C939 C 0.93413 0.30474 0.20855 0.0
C940 C 0.95407 0.29961 0.22235 0.0
C941 C 0.89578 0.31527 0.18432 0.0
C942 C 0.89585 0.30676 0.20886 0.0
C943 C 0.91498 0.30183 0.22071 0.0
C944 C 0.87625 0.30298 0.22272 0.0
C945 C 0.8755 0.32177 0.17097 0.0
C946 C 0.86794 0.31429 0.24349 0.0
C947 C 0.85022 0.30995 0.25743 0.0
C948 C 0.84051 0.29404 0.25098 0.0
C949 C 0.84869 0.28293 0.22995 0.0
C950 C 0.86643 0.28733 0.21599 0.0
H951 H 0.87689 0.33303 0.15447 0.0
H952 H 0.87242 0.3065 0.16532 0.0
H953 H 0.86142 0.3302 0.18279 0.0
H954 H 0.8753 0.32639 0.24906 0.0
H955 H 0.8444 0.31881 0.27351 0.0
H956 H 0.77435 0.95359 0.10296 0.0
H957 H 0.76566 0.9293 0.13733 0.0
H958 H 0.82615 0.88044 0.12309 0.0
H959 H 0.83491 0.90455 0.08844 0.0
H960 H 0.76157 0.88638 0.13603 0.0
H961 H 0.82498 0.88677 0.19587 0.0
H962 H 0.81794 0.9071 0.17041 0.0
H963 H 0.83524 0.87966 0.16577 0.0
C964 C 0.78582 0.93766 0.10703 0.0
C965 C 0.80532 0.93099 0.0928 0.0
C966 C 0.78086 0.92387 0.12682 0.0
C967 C 0.79536 0.9032 0.13294 0.0
C968 C 0.81493 0.89655 0.11899 0.0
H969 H 0.78123 0.78205 0.20612 0.0
H970 H 0.78215 0.8144 0.17796 0.0
C971 C 0.81991 0.91034 0.09916 0.0
C972 C 0.78948 0.88805 0.15305 0.0
H973 H 0.80652 0.85844 0.20583 0.0
C974 C 0.77125 0.88047 0.15144 0.0
C975 C 0.80192 0.88063 0.17332 0.0
C976 C 0.82099 0.88911 0.17664 0.0
C977 C 0.76571 0.86487 0.16902 0.0
C978 C 0.77886 0.8565 0.18855 0.0
C979 C 0.79652 0.86483 0.19076 0.0
C980 C 0.77574 0.83771 0.20563 0.0
C981 C 0.74601 0.85721 0.16637 0.0
C982 C 0.77163 0.84014 0.23057 0.0
C983 C 0.77094 0.82162 0.24676 0.0
C984 C 0.77484 0.80039 0.23824 0.0
C985 C 0.77815 0.79822 0.21321 0.0
C986 C 0.77864 0.8167 0.19708 0.0
H987 H 0.73446 0.86958 0.15492 0.0
H988 H 0.75094 0.84126 0.15758 0.0
H989 H 0.7377 0.85431 0.18429 0.0
H990 H 0.76943 0.85624 0.2375 0.0
H991 H 0.76822 0.82375 0.26596 0.0
H992 H 0.09359 0.73811 0.05198 0.0
H993 H 0.11883 0.7383 0.08163 0.0
H994 H 0.10517 0.68004 0.12079 0.0
H995 H 0.07971 0.67977 0.09095 0.0
H996 H 0.10788 0.7432 0.1305 0.0
H997 H 0.17148 0.66416 0.11615 0.0
H998 H 0.15191 0.67701 0.09433 0.0
H999 H 0.14439 0.66174 0.12127 0.0
C1000 C 0.09596 0.72529 0.06686 0.0
C1001 C 0.08448 0.70905 0.06925 0.0
C1002 C 0.11048 0.72536 0.08374 0.0
C1003 C 0.11396 0.70915 0.10338 0.0
C1004 C 0.10299 0.6925 0.10556 0.0
H1005 H 0.17183 0.73254 0.23068 0.0
H1006 H 0.14834 0.72222 0.20471 0.0
C1007 C 0.08844 0.69237 0.08853 0.0
C1008 C 0.12807 0.71082 0.12219 0.0
H1009 H 0.17538 0.68486 0.14784 0.0
C1010 C 0.12258 0.73038 0.13441 0.0
C1011 C 0.1473 0.69414 0.1271 0.0
C1012 C 0.15431 0.67312 0.11394 0.0
C1013 C 0.13591 0.73391 0.15112 0.0
C1014 C 0.15511 0.71721 0.15614 0.0
C1015 C 0.16055 0.69752 0.14412 0.0
C1016 C 0.17029 0.72067 0.17272 0.0
C1017 C 0.1297 0.75585 0.16262 0.0
C1018 C 0.19078 0.72232 0.16361 0.0
C1019 C 0.20424 0.7282 0.1784 0.0
C1020 C 0.19749 0.73251 0.20263 0.0
C1021 C 0.17737 0.72973 0.212 0.0
C1022 C 0.16394 0.7238 0.1972 0.0
H1023 H 0.11706 0.76866 0.15293 0.0
H1024 H 0.12331 0.75325 0.18158 0.0
H1025 H 0.1439 0.76244 0.16292 0.0
H1026 H 0.196 0.71997 0.14477 0.0
H1027 H 0.21952 0.73039 0.1705 0.0
H1028 H 0.20954 0.02384 0.01414 0.0
H1029 H 0.20925 0.99 0.99615 0.0
H1030 H 0.23787 0.94998 0.05853 0.0
H1031 H 0.23889 0.98396 0.0761 0.0
H1032 H 0.26099 0.93707 0.02007 0.0
H1033 H 0.17741 0.94369 1.00187 0.0
H1034 H 0.1842 0.96875 0.98991 0.0
H1035 H 0.18385 0.9613 0.02209 0.0
C1036 C 0.21511 0.00786 0.02432 0.0
C1037 C 0.22437 0.00642 0.04639 0.0
C1038 C 0.2148 0.98849 0.01412 0.0
C1039 C 0.22329 0.96737 0.02609 0.0
C1040 C 0.23118 0.96606 0.04897 0.0
H1041 H 0.24264 0.84849 0.94394 0.0
H1042 H 0.2288 0.87402 0.97611 0.0
C1043 C 0.23183 0.98542 0.05896 0.0
C1044 C 0.22737 0.94699 1.01293 0.0
H1045 H 0.20539 0.92215 0.97401 0.0
C1046 C 0.24864 0.93351 1.01055 0.0
C1047 C 0.21132 0.94204 1.00066 0.0
C1048 C 0.18789 0.95461 1.00402 0.0
C1049 C 0.25459 0.91637 0.99491 0.0
C1050 C 0.23898 0.91294 0.98084 0.0
C1051 C 0.2174 0.92517 0.98451 0.0
C1052 C 0.2454 0.89836 0.96068 0.0
C1053 C 0.27776 0.90262 0.99285 0.0
C1054 C 0.25867 0.90405 0.94112 0.0
C1055 C 0.26651 0.88966 0.92287 0.0
C1056 C 0.26116 0.8693 0.92377 0.0
C1057 C 0.247 0.86409 0.9428 0.0
C1058 C 0.23914 0.87857 0.96117 0.0
H1059 H 0.28601 0.90268 1.00941 0.0
H1060 H 0.27894 0.88507 0.98966 0.0
H1061 H 0.28643 0.90982 0.97734 0.0
H1062 H 0.26333 0.91948 0.94025 0.0
H1063 H 0.277 0.89434 0.90816 0.0
H1064 H 0.13062 0.34067 0.02036 0.0
H1065 H 0.15456 0.3364 0.98358 0.0
H1066 H 0.12968 0.28338 0.96558 0.0
H1067 H 0.10497 0.2882 1.00169 0.0
H1068 H 0.18649 0.30054 0.97121 0.0
H1069 H 0.12639 0.32118 0.9022 0.0
H1070 H 0.11918 0.32684 0.93348 0.0
H1071 H 0.12288 0.2992 0.92423 0.0
C1072 C 0.12986 0.32838 1.00842 0.0
C1073 C 0.11569 0.31485 0.01415 0.0
C1074 C 0.14372 0.32586 0.98741 0.0
C1075 C 0.14372 0.3098 0.97157 0.0
C1076 C 0.12966 0.29624 0.9772 0.0
H1077 H 0.22908 0.25281 0.85151 0.0
H1078 H 0.20088 0.26192 0.8843 0.0
C1079 C 0.11571 0.29882 0.99813 0.0
C1080 C 0.15918 0.30651 0.94984 0.0
H1081 H 0.16284 0.30441 0.88839 0.0
C1082 C 0.18128 0.3016 0.9531 0.0
C1083 C 0.15241 0.30789 0.92615 0.0
C1084 C 0.12892 0.31428 0.92122 0.0
C1085 C 0.19675 0.29756 0.93345 0.0
C1086 C 0.18998 0.29858 0.9099 0.0
C1087 C 0.16794 0.30361 0.90652 0.0
C1088 C 0.20572 0.29408 0.88866 0.0
C1089 C 0.22031 0.29175 0.938 0.0
C1090 C 0.21738 0.30943 0.87989 0.0
C1091 C 0.2334 0.30438 0.86103 0.0
C1092 C 0.23814 0.2838 0.8507 0.0
C1093 C 0.22589 0.26879 0.85905 0.0
C1094 C 0.20976 0.27395 0.87778 0.0
H1095 H 0.22301 0.28849 0.95759 0.0
H1096 H 0.2294 0.27678 0.92859 0.0
H1097 H 0.22696 0.30582 0.9306 0.0
H1098 H 0.21437 0.32513 0.88799 0.0
H1099 H 0.24254 0.3163 0.85512 0.0
H1100 H 0.80042 0.07412 0.99053 0.0
H1101 H 0.79448 0.11051 0.96749 0.0
H1102 H 0.82263 0.07809 0.90281 0.0
H1103 H 0.82892 0.04162 0.92593 0.0
H1104 H 0.8366 0.11405 0.90669 0.0
H1105 H 0.74777 0.13711 0.92168 0.0
H1106 H 0.76089 0.13071 0.94946 0.0
H1107 H 0.76433 0.10924 0.92908 0.0
C1108 C 0.8053 0.07476 0.97139 0.0
C1109 C 0.81499 0.05501 0.96 0.0
C1110 C 0.80178 0.09555 0.95821 0.0
C1111 C 0.80758 0.09701 0.93328 0.0
C1112 C 0.81786 0.07736 0.92199 0.0
H1113 H 0.76611 0.2159 0.83392 0.0
H1114 H 0.76998 0.17964 0.85707 0.0
C1115 C 0.82156 0.05654 0.93523 0.0
C1116 C 0.80324 0.11905 0.9191 0.0
H1117 H 0.76337 0.1663 0.90512 0.0
C1118 C 0.82057 0.12541 0.90624 0.0
C1119 C 0.78224 0.13373 0.91813 0.0
C1120 C 0.76272 0.12728 0.93011 0.0
C1121 C 0.81759 0.14625 0.89299 0.0
C1122 C 0.79679 0.1614 0.89311 0.0
C1123 C 0.77935 0.15482 0.90538 0.0
C1124 C 0.79291 0.18412 0.88054 0.0
C1125 C 0.83674 0.1517 0.8787 0.0
C1126 C 0.80382 0.19901 0.88673 0.0
C1127 C 0.80172 0.21963 0.87352 0.0
C1128 C 0.78841 0.22593 0.85405 0.0
C1129 C 0.77645 0.21157 0.84883 0.0
C1130 C 0.77871 0.19081 0.86197 0.0
H1131 H 0.84968 0.13633 0.87476 0.0
H1132 H 0.83207 0.16144 0.86131 0.0
H1133 H 0.84348 0.16183 0.8894 0.0
H1134 H 0.81436 0.19447 0.90145 0.0
H1135 H 0.81097 0.2304 0.87823 0.0
H1136 H 0.9578 0.77573 0.95243 0.0
H1137 H 0.92734 0.78521 0.92692 0.0
H1138 H 0.94185 0.71652 0.91059 0.0
H1139 H 0.9721 0.7068 0.93619 0.0
H1140 H 0.93325 0.74759 0.86927 0.0
H1141 H 0.86998 0.76916 0.9444 0.0
H1142 H 0.89055 0.78364 0.94202 0.0
H1143 H 0.89743 0.75403 0.94968 0.0
C1144 C 0.95444 0.76255 0.94366 0.0
C1145 C 0.96755 0.74043 0.94655 0.0
C1146 C 0.937 0.76804 0.92897 0.0
C1147 C 0.93219 0.75157 0.9169 0.0
C1148 C 0.94528 0.72956 0.9196 0.0
H1149 H 0.81862 0.73855 0.8637 0.0
H1150 H 0.85091 0.73742 0.88332 0.0
C1151 C 0.96266 0.72404 0.93427 0.0
C1152 C 0.91335 0.75696 0.90177 0.0
H1153 H 0.85835 0.77257 0.90517 0.0
C1154 C 0.91686 0.75327 0.87704 0.0
C1155 C 0.89196 0.76428 0.91193 0.0
C1156 C 0.88711 0.76788 0.93849 0.0
C1157 C 0.89958 0.75621 0.86238 0.0
C1158 C 0.87821 0.76314 0.87267 0.0
C1159 C 0.87474 0.76739 0.89724 0.0
C1160 C 0.85924 0.76364 0.85924 0.0
C1161 C 0.90428 0.75096 0.83626 0.0
C1162 C 0.85316 0.77864 0.83884 0.0
C1163 C 0.83453 0.77925 0.8274 0.0
C1164 C 0.82175 0.76492 0.83627 0.0
C1165 C 0.82813 0.74979 0.85639 0.0
C1166 C 0.84659 0.74916 0.8677 0.0
H1167 H 0.92156 0.74255 0.83206 0.0
H1168 H 0.89449 0.7401 0.83178 0.0
H1169 H 0.89989 0.76672 0.82443 0.0
H1170 H 0.86248 0.79021 0.83215 0.0
H1171 H 0.82977 0.79133 0.81219 0.0
H1172 H 0.09407 0.28052 0.16242 0.0
H1173 H 0.11716 0.28081 0.19477 0.0
H1174 H 0.17326 0.2627 0.14515 0.0
H1175 H 0.15047 0.262 0.11302 0.0
H1176 H 0.18058 0.24062 0.19027 0.0
H1177 H 0.14453 0.33145 0.19842 0.0
H1178 H 0.12587 0.31466 0.20331 0.0
H1179 H 0.13942 0.31735 0.17391 0.0
C1180 C 0.11134 0.27628 0.15847 0.0
C1181 C 0.1203 0.27138 0.13494 0.0
C1182 C 0.12456 0.27665 0.17698 0.0
C1183 C 0.14703 0.27222 0.1724 0.0
C1184 C 0.15602 0.2663 0.14925 0.0
H1185 H 0.24427 0.31488 0.2304 0.0
H1186 H 0.2155 0.30828 0.20962 0.0
C1187 C 0.14288 0.26593 0.1308 0.0
C1188 C 0.16126 0.27467 0.19109 0.0
H1189 H 0.17234 0.31329 0.22353 0.0
C1190 C 0.17861 0.25644 0.19777 0.0
C1191 C 0.15895 0.29538 0.20077 0.0
C1192 C 0.14133 0.31591 0.19365 0.0
C1193 C 0.19382 0.25847 0.21332 0.0
C1194 C 0.1916 0.27924 0.22278 0.0
C1195 C 0.17399 0.2973 0.21655 0.0
C1196 C 0.2086 0.28338 0.23672 0.0
C1197 C 0.21275 0.23866 0.21857 0.0
C1198 C 0.2143 0.27185 0.2593 0.0
C1199 C 0.23088 0.27574 0.27145 0.0
C1200 C 0.24206 0.29119 0.26117 0.0
C1201 C 0.236 0.3029 0.23888 0.0
C1202 C 0.21949 0.29914 0.22692 0.0
H1203 H 0.21431 0.22519 0.20643 0.0
H1204 H 0.22793 0.2438 0.21656 0.0
H1205 H 0.21069 0.23173 0.23752 0.0
H1206 H 0.20601 0.2598 0.26748 0.0
H1207 H 0.23524 0.26636 0.28853 0.0
H1208 H 0.06561 0.75937 0.95047 0.0
H1209 H 0.09897 0.75893 0.92569 0.0
H1210 H 0.11764 0.79511 0.9778 0.0
H1211 H 0.08454 0.79517 1.00297 0.0
H1212 H 0.11655 0.79074 0.90324 0.0
H1213 H 0.17006 0.74259 0.97335 0.0
H1214 H 0.14137 0.74624 0.97621 0.0
H1215 H 0.1523 0.76818 0.98313 0.0
C1216 C 0.07668 0.76742 0.95663 0.0
C1217 C 0.07229 0.7772 0.97891 0.0
C1218 C 0.09587 0.7671 0.9424 0.0
C1219 C 0.11125 0.77648 0.95003 0.0
C1220 C 0.10646 0.78714 0.97173 0.0
H1221 H 0.23779 0.78709 0.88547 0.0
H1222 H 0.20444 0.78997 0.91137 0.0
C1223 C 0.08732 0.78739 0.98604 0.0
C1224 C 0.13223 0.77497 0.93534 0.0
H1225 H 0.18704 0.75635 0.93782 0.0
C1226 C 0.13193 0.78315 0.91085 0.0
C1227 C 0.15247 0.76507 0.94509 0.0
C1228 C 0.15416 0.75482 0.97081 0.0
C1229 C 0.15109 0.78196 0.89605 0.0
C1230 C 0.17128 0.77202 0.90579 0.0
C1231 C 0.17164 0.76401 0.9303 0.0
C1232 C 0.19212 0.76942 0.89065 0.0
C1233 C 0.14954 0.79171 0.87015 0.0
C1234 C 0.19673 0.75641 0.87069 0.0
C1235 C 0.21586 0.75459 0.85594 0.0
C1236 C 0.23099 0.76572 0.86073 0.0
C1237 C 0.22662 0.77823 0.88117 0.0
C1238 C 0.20749 0.77995 0.896 0.0
H1239 H 0.13356 0.80364 0.86722 0.0
H1240 H 0.1622 0.80045 0.86471 0.0
H1241 H 0.15186 0.77802 0.85813 0.0
H1242 H 0.18541 0.74774 0.86638 0.0
H1243 H 0.21854 0.74477 0.84045 0.0
H1244 H 0.25013 0.10766 0.99954 0.0
H1245 H 0.26086 0.1302 0.96487 0.0
H1246 H 0.32564 0.11203 0.98763 0.0
H1247 H 0.315 0.08846 0.02212 0.0
H1248 H 0.27289 0.1659 0.96731 0.0
H1249 H 0.33818 0.10729 0.91605 0.0
H1250 H 0.32093 0.09783 0.93969 0.0
H1251 H 0.34315 0.10724 0.9472 0.0
C1252 C 0.2668 0.10808 0.99693 0.0
C1253 C 0.28172 0.09633 1.01358 0.0
C1254 C 0.27292 0.12103 0.97706 0.0
C1255 C 0.29409 0.1229 0.97343 0.0
C1256 C 0.30931 0.11057 0.98964 0.0
H1257 H 0.3164 0.2423 0.89312 0.0
H1258 H 0.31434 0.21194 0.92375 0.0
C1259 C 0.30322 0.09716 1.00942 0.0
C1260 C 0.29925 0.13943 0.95405 0.0
H1261 H 0.33274 0.1461 0.90411 0.0
C1262 C 0.28596 0.16146 0.95347 0.0
C1263 C 0.31615 0.13375 0.93576 0.0
C1264 C 0.3303 0.1102 0.93449 0.0
C1265 C 0.28894 0.17782 0.93528 0.0
C1266 C 0.30631 0.1724 0.91748 0.0
C1267 C 0.31959 0.15036 0.91788 0.0
C1268 C 0.31063 0.18952 0.89839 0.0
C1269 C 0.27298 0.20062 0.935 0.0
C1270 C 0.31067 0.18658 0.87367 0.0
C1271 C 0.3124 0.20383 0.85596 0.0
C1272 C 0.31389 0.22436 0.86275 0.0
C1273 C 0.31496 0.22679 0.88735 0.0
C1274 C 0.31364 0.20948 0.90492 0.0
H1275 H 0.2574 0.19996 0.94484 0.0
H1276 H 0.27952 0.21199 0.94414 0.0
H1277 H 0.26983 0.20786 0.91622 0.0
H1278 H 0.30857 0.17127 0.86812 0.0
H1279 H 0.31172 0.20144 0.83711 0.0
H1280 H 1.00259 0.25455 0.08344 0.0
H1281 H 0.97909 0.25246 0.05257 0.0
H1282 H 0.02639 0.26397 0.99663 0.0
H1283 H 0.05012 0.26622 0.0275 0.0
H1284 H 0.96329 0.28852 0.01672 0.0
H1285 H 1.00805 0.21044 0.9748 0.0
H1286 H 1.01294 0.21624 1.00454 0.0
H1287 H 0.02322 0.22994 0.97807 0.0
C1288 C 1.00827 0.25624 0.0646 0.0
C1289 C 0.02837 0.26053 0.05808 0.0
C1290 C 0.99471 0.25511 0.04692 0.0
C1291 C 1.00093 0.25795 0.02222 0.0
C1292 C 0.0213 0.26143 0.01555 0.0
H1293 H 0.93566 0.2652 0.89022 0.0
H1294 H 0.96159 0.26223 0.92022 0.0
C1295 C 0.03488 0.26271 0.03327 0.0
C1296 C 0.98542 0.25886 1.00367 0.0
H1297 H 0.97681 0.23228 0.95641 0.0
C1298 C 0.96622 0.27618 1.00358 0.0
C1299 C 0.98928 0.2429 0.98637 0.0
C1300 C 1.0094 0.2237 0.98591 0.0
C1301 C 0.95095 0.27816 0.98655 0.0
C1302 C 0.95455 0.26195 0.96946 0.0
C1303 C 0.97387 0.24467 0.96949 0.0
C1304 C 0.93867 0.26287 0.95123 0.0
C1305 C 0.9314 0.29807 0.98663 0.0
C1306 C 0.91709 0.26368 0.95844 0.0
C1307 C 0.90204 0.26578 0.94123 0.0
C1308 C 0.90819 0.26682 0.91625 0.0
C1309 C 0.93005 0.26502 0.90916 0.0
C1310 C 0.94504 0.2631 0.92638 0.0
H1311 H 0.93425 0.31205 0.99543 0.0
H1312 H 0.92674 0.3042 0.96797 0.0
H1313 H 0.91771 0.29319 0.99701 0.0
H1314 H 0.91177 0.2629 0.97746 0.0
H1315 H 0.88544 0.26722 0.94759 0.0
H1316 H 0.74537 0.97632 0.97024 0.0
H1317 H 0.732 0.95577 0.9425 0.0
H1318 H 0.79041 0.90219 0.94721 0.0
H1319 H 0.80364 0.92218 0.97465 0.0
H1320 H 0.7516 0.94144 0.89712 0.0
H1321 H 0.74381 0.86917 0.95957 0.0
H1322 H 0.74543 0.89498 0.97013 0.0
H1323 H 0.76954 0.87433 0.96071 0.0
C1324 C 0.75517 0.96004 0.96555 0.0
C1325 C 0.77555 0.95089 0.97469 0.0
C1326 C 0.74756 0.94835 0.9497 0.0
C1327 C 0.76007 0.92727 0.94313 0.0
C1328 C 0.78026 0.91817 0.95243 0.0
H1329 H 0.78631 0.85279 0.82202 0.0
H1330 H 0.78016 0.8808 0.85106 0.0
C1331 C 0.78787 0.92977 0.96802 0.0
C1332 C 0.75312 0.91496 0.92544 0.0
H1333 H 0.75026 0.86264 0.91699 0.0
C1334 C 0.75078 0.92438 0.90154 0.0
C1335 C 0.75164 0.89285 0.93125 0.0
C1336 C 0.7525 0.88233 0.95689 0.0
C1337 C 0.74872 0.91166 0.88297 0.0
C1338 C 0.74946 0.88883 0.88841 0.0
C1339 C 0.75004 0.88001 0.91265 0.0
C1340 C 0.75166 0.87328 0.86925 0.0
C1341 C 0.74626 0.92269 0.85763 0.0
C1342 C 0.73793 0.85933 0.86996 0.0
C1343 C 0.7416 0.84297 0.85349 0.0
C1344 C 0.75914 0.84016 0.83602 0.0
C1345 C 0.77255 0.85451 0.83505 0.0
C1346 C 0.76893 0.87075 0.85157 0.0
H1347 H 0.73808 0.94083 0.8579 0.0
H1348 H 0.76244 0.92098 0.84819 0.0
H1349 H 0.73694 0.91496 0.84711 0.0
H1350 H 0.72461 0.86083 0.88357 0.0
H1351 H 0.73092 0.83225 0.85481 0.0
H1352 H 0.97428 0.78909 0.06766 0.0
H1353 H 0.94772 0.79651 0.10276 0.0
H1354 H 0.94477 0.72817 0.10788 0.0
H1355 H 0.97048 0.72085 0.07318 0.0
H1356 H 0.90502 0.7563 0.11125 0.0
H1357 H 0.95586 0.77841 0.17433 0.0
H1358 H 0.95283 0.79489 0.14583 0.0
H1359 H 0.96699 0.76575 0.14658 0.0
C1360 C 0.96794 0.77569 0.07631 0.0
C1361 C 0.97463 0.75438 0.06741 0.0
C1362 C 0.95286 0.77989 0.09653 0.0
C1363 C 0.94429 0.76282 0.10831 0.0
C1364 C 0.95099 0.74168 0.09928 0.0
H1365 H 0.86126 0.7306 0.22978 0.0
H1366 H 0.88682 0.73147 0.19456 0.0
C1367 C 0.96584 0.73753 0.07927 0.0
C1368 C 0.92802 0.76648 0.12964 0.0
H1369 H 0.92055 0.77831 0.18913 0.0
C1370 C 0.90844 0.76124 0.12822 0.0
C1371 C 0.93228 0.77297 0.1519 0.0
C1372 C 0.95317 0.77819 0.15497 0.0
C1373 C 0.89336 0.7619 0.14829 0.0
C1374 C 0.89791 0.76768 0.17073 0.0
C1375 C 0.91709 0.7737 0.17203 0.0
C1376 C 0.88309 0.76705 0.19304 0.0
C1377 C 0.87258 0.7564 0.14527 0.0
C1378 C 0.87281 0.78662 0.20448 0.0
C1379 C 0.85812 0.78617 0.22469 0.0
C1380 C 0.85351 0.76607 0.23419 0.0
C1381 C 0.86432 0.74639 0.22307 0.0
C1382 C 0.87889 0.74688 0.20278 0.0
H1383 H 0.86904 0.75798 0.12594 0.0
H1384 H 0.87386 0.7389 0.15251 0.0
H1385 H 0.85885 0.76749 0.15542 0.0
H1386 H 0.87578 0.80238 0.19743 0.0
H1387 H 0.85018 0.8017 0.23268 0.0
H1388 H 0.30308 0.9831 0.09433 0.0
H1389 H 0.3111 0.94558 0.11581 0.0
H1390 H 0.2865 0.97478 0.18313 0.0
H1391 H 0.27819 0.01195 0.16192 0.0
H1392 H 0.33524 0.92402 0.15664 0.0
H1393 H 0.24777 0.93419 0.17586 0.0
H1394 H 0.25835 0.95261 0.15411 0.0
H1395 H 0.25656 0.95635 0.18591 0.0
C1396 C 0.29982 0.9815 0.11378 0.0
C1397 C 0.2898 1.00047 0.12639 0.0
C1398 C 0.30433 0.96006 0.12602 0.0
C1399 C 0.29893 0.95734 0.15101 0.0
C1400 C 0.29035 0.9764 0.16378 0.0
H1401 H 0.32938 0.84351 0.25753 0.0
H1402 H 0.32973 0.87655 0.23002 0.0
C1403 C 0.28569 0.99768 0.15161 0.0
C1404 C 0.30086 0.93478 0.16374 0.0
H1405 H 0.27111 0.90375 0.19759 0.0
C1406 C 0.32123 0.91947 0.16544 0.0
C1407 C 0.28254 0.92865 0.17486 0.0
C1408 C 0.26004 0.94371 0.17243 0.0
C1409 C 0.32381 0.89852 0.17868 0.0
C1410 C 0.30557 0.89292 0.1909 0.0
C1411 C 0.28517 0.90801 0.18848 0.0
C1412 C 0.30702 0.87167 0.20646 0.0
C1413 C 0.34602 0.88254 0.17919 0.0
C1414 C 0.29395 0.85794 0.20274 0.0
C1415 C 0.29345 0.83924 0.21869 0.0
C1416 C 0.30607 0.83371 0.23878 0.0
C1417 C 0.3196 0.84711 0.24215 0.0
C1418 C 0.31993 0.86598 0.22628 0.0
H1419 H 0.3566 0.88607 0.16325 0.0
H1420 H 0.35346 0.88448 0.19567 0.0
H1421 H 0.34539 0.86495 0.17957 0.0
H1422 H 0.28379 0.86193 0.18767 0.0
H1423 H 0.28287 0.82931 0.21545 0.0
H1424 H 0.75675 0.06314 0.04242 0.0
H1425 H 0.75055 0.09692 0.06435 0.0
H1426 H 0.78714 0.05756 0.12202 0.0
H1427 H 0.79357 0.02416 0.10025 0.0
H1428 H 0.73455 0.10825 0.11561 0.0
H1429 H 0.82072 0.10379 0.09268 0.0
H1430 H 0.80639 0.08901 0.07718 0.0
H1431 H 0.81611 0.07808 0.10635 0.0
C1432 C 0.76286 0.06168 0.06011 0.0
C1433 C 0.77575 0.04115 0.06962 0.0
C1434 C 0.75944 0.08094 0.07253 0.0
C1435 C 0.76879 0.07973 0.09454 0.0
C1436 C 0.78011 0.05889 0.10487 0.0
H1437 H 0.79018 0.15568 0.20272 0.0
H1438 H 0.78815 0.12821 0.17552 0.0
C1439 C 0.78369 0.03982 0.09246 0.0
C1440 C 0.76861 0.10012 0.10599 0.0
H1441 H 0.80273 0.12754 0.1235 0.0
C1442 C 0.74934 0.11276 0.11703 0.0
C1443 C 0.78796 0.10598 0.10767 0.0
C1444 C 0.80896 0.09365 0.09515 0.0
C1445 C 0.74916 0.13044 0.13083 0.0
C1446 C 0.76872 0.13555 0.13343 0.0
C1447 C 0.7878 0.12346 0.1216 0.0
C1448 C 0.77003 0.15252 0.14947 0.0
C1449 C 0.72831 0.14292 0.14343 0.0
C1450 C 0.76091 0.17533 0.14352 0.0
C1451 C 0.76232 0.19115 0.15886 0.0
C1452 C 0.77285 0.18444 0.18048 0.0
C1453 C 0.78226 0.16153 0.18609 0.0
C1454 C 0.78094 0.14577 0.17068 0.0
H1455 H 0.71513 0.13498 0.14224 0.0
H1456 H 0.73047 0.14383 0.1628 0.0
H1457 H 0.72335 0.16027 0.13499 0.0
H1458 H 0.75276 0.18088 0.12699 0.0
H1459 H 0.75518 0.20866 0.15376 0.0
H1460 H 0.5701 0.58452 0.90043 0.0
H1461 H 0.59125 0.61147 0.89097 0.0
H1462 H 0.59606 0.5999 0.81541 0.0
H1463 H 0.57422 0.57363 0.82451 0.0
H1464 H 0.63259 0.60477 0.86979 0.0
H1465 H 0.57465 0.66774 0.81366 0.0
H1466 H 0.56718 0.64546 0.83255 0.0
H1467 H 0.58197 0.63999 0.80383 0.0
C1468 C 0.5754 0.58788 0.88176 0.0
C1469 C 0.5703 0.57693 0.86327 0.0
C1470 C 0.58762 0.6032 0.8764 0.0
C1471 C 0.59493 0.60795 0.85244 0.0
C1472 C 0.59021 0.59682 0.83396 0.0
H1473 H 0.67757 0.69407 0.79575 0.0
H1474 H 0.65547 0.66761 0.79893 0.0
C1475 C 0.57794 0.58153 0.83929 0.0
C1476 C 0.60793 0.62418 0.847 0.0
H1477 H 0.60862 0.67424 0.81628 0.0
C1478 C 0.62735 0.61994 0.85808 0.0
C1479 C 0.60109 0.64392 0.83159 0.0
C1480 C 0.58 0.64972 0.81986 0.0
C1481 C 0.64006 0.63497 0.85433 0.0
C1482 C 0.63305 0.65486 0.8393 0.0
C1483 C 0.6139 0.65893 0.82776 0.0
C1484 C 0.64491 0.67211 0.83655 0.0
C1485 C 0.66091 0.62953 0.8665 0.0
C1486 C 0.64565 0.68382 0.85642 0.0
C1487 C 0.65805 0.69898 0.85463 0.0
C1488 C 0.67 0.70269 0.83292 0.0
C1489 C 0.66848 0.69163 0.81268 0.0
C1490 C 0.65597 0.67646 0.81449 0.0
H1491 H 0.66639 0.61156 0.87286 0.0
H1492 H 0.67378 0.63393 0.85399 0.0
H1493 H 0.65857 0.63946 0.88243 0.0
H1494 H 0.6369 0.68094 0.87347 0.0
H1495 H 0.65849 0.70759 0.87039 0.0
H1496 H 0.48944 0.57809 0.80939 0.0
H1497 H 0.45811 0.60979 0.80024 0.0
H1498 H 0.41609 0.57386 0.84 0.0
H1499 H 0.44722 0.54277 0.84986 0.0
H1500 H 0.41958 0.61771 0.77899 0.0
H1501 H 0.40352 0.62843 0.8772 0.0
H1502 H 0.42781 0.60974 0.86492 0.0
H1503 H 0.40324 0.60132 0.86971 0.0
C1504 C 0.47346 0.57679 0.81561 0.0
C1505 C 0.47076 0.55804 0.83045 0.0
C1506 C 0.45556 0.59496 0.81053 0.0
C1507 C 0.43473 0.59454 0.82007 0.0
C1508 C 0.43198 0.57496 0.83308 0.0
H1509 H 0.31107 0.69899 0.82816 0.0
H1510 H 0.3379 0.66226 0.82706 0.0
C1511 C 0.44979 0.55707 0.83849 0.0
C1512 C 0.41611 0.61492 0.81793 0.0
H1513 H 0.37757 0.65113 0.85165 0.0
C1514 C 0.41041 0.62499 0.79488 0.0
C1515 C 0.40408 0.62458 0.83866 0.0
C1516 C 0.41007 0.61562 0.86401 0.0
C1517 C 0.393 0.64426 0.79205 0.0
C1518 C 0.38102 0.65382 0.81279 0.0
C1519 C 0.38654 0.64362 0.83577 0.0
C1520 C 0.36406 0.67553 0.81124 0.0
C1521 C 0.38752 0.65426 0.76689 0.0
C1522 C 0.3698 0.69512 0.80271 0.0
C1523 C 0.35468 0.71594 0.80361 0.0
C1524 C 0.33338 0.71773 0.81299 0.0
C1525 C 0.32734 0.6981 0.8208 0.0
C1526 C 0.34265 0.67716 0.82018 0.0
H1527 H 0.39415 0.64197 0.75317 0.0
H1528 H 0.36982 0.66054 0.76577 0.0
H1529 H 0.39454 0.66858 0.76229 0.0
H1530 H 0.38623 0.6944 0.79611 0.0
H1531 H 0.35983 0.73075 0.79734 0.0
H1532 H 0.49987 0.43687 0.91783 0.0
H1533 H 0.47755 0.41106 0.91754 0.0
H1534 H 0.44944 0.44762 0.85331 0.0
H1535 H 0.47098 0.4738 0.85395 0.0
H1536 H 0.41941 0.4375 0.88847 0.0
H1537 H 0.48712 0.36259 0.86976 0.0
H1538 H 0.48865 0.37666 0.89583 0.0
H1539 H 0.49036 0.39051 0.86612 0.0
C1540 C 0.4888 0.43951 0.90379 0.0
C1541 C 0.48738 0.45728 0.88577 0.0
C1542 C 0.47624 0.42462 0.9035 0.0
C1543 C 0.46212 0.42725 0.88518 0.0
C1544 C 0.46037 0.44521 0.86751 0.0
H1545 H 0.40068 0.34668 0.82081 0.0
H1546 H 0.4251 0.36596 0.83405 0.0
C1547 C 0.47285 0.46005 0.86779 0.0
C1548 C 0.44896 0.41152 0.88412 0.0
H1549 H 0.45207 0.35816 0.8724 0.0
C1550 C 0.4265 0.42007 0.88524 0.0
C1551 C 0.45835 0.38888 0.87971 0.0
C1552 C 0.48244 0.37904 0.87758 0.0
C1553 C 0.41315 0.40678 0.8813 0.0
C1554 C 0.42253 0.38419 0.87662 0.0
C1555 C 0.44497 0.37544 0.87618 0.0
C1556 C 0.4094 0.37005 0.87002 0.0
C1557 C 0.3892 0.41737 0.881 0.0
C1558 C 0.39296 0.36531 0.88615 0.0
C1559 C 0.37895 0.35436 0.8786 0.0
C1560 C 0.3813 0.34778 0.85487 0.0
C1561 C 0.39855 0.35142 0.83923 0.0
C1562 C 0.41247 0.36248 0.84675 0.0
H1563 H 0.38515 0.43589 0.8799 0.0
H1564 H 0.38265 0.41232 0.86544 0.0
H1565 H 0.38103 0.41169 0.89788 0.0
H1566 H 0.39062 0.37062 0.90435 0.0
H1567 H 0.36601 0.35143 0.89116 0.0
H1568 H 0.59094 0.47759 0.80146 0.0
H1569 H 0.62462 0.44897 0.79135 0.0
H1570 H 0.62429 0.42021 0.86513 0.0
H1571 H 0.59147 0.44867 0.87532 0.0
H1572 H 0.66222 0.42726 0.85078 0.0
H1573 H 0.63826 0.38267 0.78159 0.0
H1574 H 0.63313 0.41235 0.77496 0.0
H1575 H 0.61883 0.40156 0.80045 0.0
C1576 C 0.59797 0.46497 0.81537 0.0
C1577 C 0.58859 0.46558 0.83924 0.0
C1578 C 0.61717 0.44853 0.80957 0.0
C1579 C 0.62705 0.43226 0.82746 0.0
C1580 C 0.61716 0.43255 0.851 0.0
H1581 H 0.73157 0.30924 0.82248 0.0
H1582 H 0.69646 0.33746 0.82286 0.0
C1583 C 0.59831 0.44894 0.8568 0.0
C1584 C 0.64837 0.41576 0.8227 0.0
H1585 H 0.67507 0.37151 0.79003 0.0
C1586 C 0.66499 0.41513 0.83741 0.0
C1587 C 0.65203 0.3997 0.80548 0.0
C1588 C 0.6346 0.39887 0.78982 0.0
C1589 C 0.68491 0.39891 0.83568 0.0
C1590 C 0.68876 0.38309 0.81818 0.0
C1591 C 0.67222 0.3837 0.80332 0.0
C1592 C 0.70983 0.36576 0.81544 0.0
C1593 C 0.70138 0.39848 0.85326 0.0
C1594 C 0.72902 0.37213 0.8104 0.0
C1595 C 0.74898 0.35612 0.81048 0.0
C1596 C 0.75028 0.33328 0.8152 0.0
C1597 C 0.73108 0.32673 0.81894 0.0
C1598 C 0.71102 0.34285 0.81909 0.0
H1599 H 0.69385 0.40731 0.86955 0.0
H1600 H 0.7101 0.38108 0.85921 0.0
H1601 H 0.71328 0.40703 0.8443 0.0
H1602 H 0.72859 0.3896 0.80691 0.0
H1603 H 0.76347 0.36169 0.80716 0.0
H1604 H 0.59068 0.48128 0.31005 0.0
H1605 H 0.62214 0.45099 0.32266 0.0
H1606 H 0.65194 0.45397 0.25023 0.0
H1607 H 0.62119 0.48384 0.23772 0.0
H1608 H 0.63835 0.40889 0.30325 0.0
H1609 H 0.70036 0.45503 0.29111 0.0
H1610 H 0.67191 0.46898 0.29338 0.0
H1611 H 0.68512 0.45942 0.26497 0.0
C1612 C 0.6041 0.47563 0.29698 0.0
C1613 C 0.60339 0.48501 0.27289 0.0
C1614 C 0.62203 0.45832 0.30416 0.0
C1615 C 0.63959 0.45046 0.28747 0.0
C1616 C 0.63888 0.46004 0.26359 0.0
H1617 H 0.74821 0.34477 0.25331 0.0
H1618 H 0.71879 0.37891 0.25731 0.0
C1619 C 0.6211 0.47707 0.25642 0.0
C1620 C 0.65824 0.43133 0.294 0.0
H1621 H 0.71325 0.41504 0.28854 0.0
C1622 C 0.65473 0.41028 0.30065 0.0
C1623 C 0.67963 0.43314 0.2906 0.0
C1624 C 0.68449 0.45542 0.28487 0.0
C1625 C 0.67202 0.39083 0.30232 0.0
C1626 C 0.69337 0.39254 0.29743 0.0
C1627 C 0.69689 0.41372 0.29208 0.0
C1628 C 0.71207 0.37246 0.29577 0.0
C1629 C 0.66733 0.36846 0.30788 0.0
C1630 C 0.71843 0.35774 0.31618 0.0
C1631 C 0.73532 0.33823 0.31395 0.0
C1632 C 0.7461 0.33309 0.29124 0.0
C1633 C 0.74016 0.34822 0.27101 0.0
C1634 C 0.72336 0.36774 0.27328 0.0
H1635 H 0.64991 0.36972 0.30767 0.0
H1636 H 0.67644 0.35659 0.29459 0.0
H1637 H 0.67256 0.36139 0.32611 0.0
H1638 H 0.71016 0.36122 0.33378 0.0
H1639 H 0.73961 0.32694 0.32989 0.0
H1640 H 0.60206 0.57746 0.27056 0.0
H1641 H 0.63148 0.59402 0.27311 0.0
H1642 H 0.63244 0.61191 0.19628 0.0
H1643 H 0.60315 0.59477 0.19331 0.0
H1644 H 0.67398 0.58198 0.24512 0.0
H1645 H 0.62732 0.67108 0.22998 0.0
H1646 H 0.61445 0.64923 0.24002 0.0
H1647 H 0.62489 0.65184 0.20919 0.0
C1648 C 0.60858 0.58462 0.25407 0.0
C1649 C 0.60023 0.58458 0.23165 0.0
C1650 C 0.62535 0.59423 0.25563 0.0
C1651 C 0.63402 0.60424 0.23493 0.0
C1652 C 0.62576 0.60443 0.21251 0.0
H1653 H 0.73154 0.6776 0.2255 0.0
H1654 H 0.7041 0.66031 0.21594 0.0
C1655 C 0.60899 0.59469 0.21088 0.0
C1656 C 0.65192 0.61414 0.23703 0.0
H1657 H 0.6639 0.66393 0.23697 0.0
C1658 C 0.67187 0.59989 0.2432 0.0
C1659 C 0.64906 0.63747 0.23439 0.0
C1660 C 0.62778 0.65343 0.22815 0.0
C1661 C 0.68907 0.60837 0.247 0.0
C1662 C 0.68601 0.63177 0.2452 0.0
C1663 C 0.66619 0.646 0.23844 0.0
C1664 C 0.70296 0.64186 0.25089 0.0
C1665 C 0.71039 0.59215 0.25268 0.0
C1666 C 0.71125 0.63744 0.27381 0.0
C1667 C 0.72696 0.64724 0.2793 0.0
C1668 C 0.73446 0.66192 0.26207 0.0
C1669 C 0.72595 0.66651 0.23922 0.0
C1670 C 0.71035 0.65659 0.2337 0.0
H1671 H 0.71206 0.57557 0.24601 0.0
H1672 H 0.72406 0.59852 0.24452 0.0
H1673 H 0.71144 0.58973 0.27258 0.0
H1674 H 0.70536 0.62663 0.2876 0.0
H1675 H 0.73294 0.64367 0.29718 0.0
H1676 H 0.50854 0.59658 0.29661 0.0
H1677 H 0.4793 0.62996 0.3065 0.0
H1678 H 0.43487 0.60489 0.27234 0.0
H1679 H 0.46382 0.57203 0.26211 0.0
H1680 H 0.45302 0.65958 0.26646 0.0
H1681 H 0.40406 0.62597 0.34014 0.0
H1682 H 0.43253 0.6134 0.334 0.0
H1683 H 0.41342 0.60871 0.31528 0.0
C1684 C 0.4924 0.59798 0.29182 0.0
C1685 C 0.48841 0.58169 0.27868 0.0
C1686 C 0.47578 0.61709 0.29731 0.0
C1687 C 0.4549 0.61983 0.29024 0.0
C1688 C 0.45078 0.60303 0.27817 0.0
H1689 H 0.33023 0.70158 0.2724 0.0
H1690 H 0.36418 0.67346 0.27856 0.0
C1691 C 0.46735 0.58426 0.27233 0.0
C1692 C 0.43757 0.64085 0.29335 0.0
H1693 H 0.38636 0.66007 0.31839 0.0
C1694 C 0.4386 0.65998 0.27821 0.0
C1695 C 0.41878 0.6412 0.30858 0.0
C1696 C 0.41708 0.6213 0.32561 0.0
C1697 C 0.42074 0.67891 0.27665 0.0
C1698 C 0.4015 0.67886 0.29106 0.0
C1699 C 0.40103 0.66016 0.30727 0.0
C1700 C 0.38098 0.69665 0.28763 0.0
C1701 C 0.42217 0.69813 0.25841 0.0
C1702 C 0.37893 0.71924 0.2907 0.0
C1703 C 0.3594 0.73555 0.28686 0.0
C1704 C 0.34158 0.72946 0.28018 0.0
C1705 C 0.34366 0.70686 0.27744 0.0
C1706 C 0.36308 0.6907 0.28108 0.0
H1707 H 0.43654 0.69366 0.24546 0.0
H1708 H 0.40758 0.70373 0.24801 0.0
H1709 H 0.4233 0.71238 0.26803 0.0
H1710 H 0.39234 0.72424 0.29622 0.0
H1711 H 0.3582 0.75283 0.28928 0.0
H1712 H 0.51051 0.46875 0.27665 0.0
H1713 H 0.48773 0.44321 0.28349 0.0
H1714 H 0.4704 0.45778 0.20961 0.0
H1715 H 0.49293 0.48362 0.20263 0.0
H1716 H 0.44308 0.45324 0.27821 0.0
H1717 H 0.48986 0.38902 0.21753 0.0
H1718 H 0.50089 0.40982 0.22755 0.0
H1719 H 0.48303 0.41702 0.20346 0.0
C1720 C 0.50179 0.46668 0.26185 0.0
C1721 C 0.50359 0.47833 0.23905 0.0
C1722 C 0.48886 0.45194 0.26578 0.0
C1723 C 0.4776 0.44838 0.24699 0.0
C1724 C 0.47931 0.45993 0.22423 0.0
H1725 H 0.38633 0.37571 0.22905 0.0
H1726 H 0.41177 0.39839 0.2251 0.0
C1727 C 0.49222 0.47471 0.22027 0.0
C1728 C 0.46348 0.43317 0.25144 0.0
H1729 H 0.45525 0.38597 0.23306 0.0
C1730 C 0.44581 0.43842 0.26851 0.0
C1731 C 0.46713 0.41387 0.23875 0.0
C1732 C 0.48636 0.40692 0.22095 0.0
C1733 C 0.43126 0.42525 0.27268 0.0
C1734 C 0.43475 0.40609 0.25975 0.0
C1735 C 0.45262 0.40067 0.24295 0.0
C1736 C 0.41951 0.39203 0.26254 0.0
C1737 C 0.41188 0.4324 0.29025 0.0
C1738 C 0.4156 0.38066 0.28487 0.0
C1739 C 0.40085 0.36779 0.28727 0.0
C1740 C 0.38981 0.36603 0.26734 0.0
C1741 C 0.39418 0.37708 0.2449 0.0
C1742 C 0.40886 0.38991 0.24254 0.0
H1743 H 0.40892 0.45005 0.29437 0.0
H1744 H 0.39722 0.43043 0.28299 0.0
H1745 H 0.4146 0.42173 0.30747 0.0
H1746 H 0.42395 0.38173 0.30043 0.0
H1747 H 0.39785 0.35952 0.30479 0.0
H1748 H 0.7984 0.61133 0.59381 0.0
H1749 H 0.78871 0.64253 0.61999 0.0
H1750 H 0.84016 0.6076 0.66498 0.0
H1751 H 0.85035 0.57713 0.63857 0.0
H1752 H 0.77603 0.64709 0.66679 0.0
H1753 H 0.85478 0.66561 0.64938 0.0
H1754 H 0.84697 0.64664 0.63214 0.0
H1755 H 0.85808 0.63717 0.66105 0.0
C1756 C 0.80756 0.61037 0.60933 0.0
C1757 C 0.82534 0.59197 0.61392 0.0
C1758 C 0.80205 0.62818 0.62426 0.0
C1759 C 0.81412 0.62774 0.64408 0.0
C1760 C 0.8311 0.60877 0.64933 0.0
H1761 H 0.77739 0.70748 0.768 0.0
H1762 H 0.7832 0.67917 0.73905 0.0
C1763 C 0.83682 0.59126 0.63427 0.0
C1764 C 0.80926 0.64697 0.65935 0.0
H1765 H 0.8331 0.68098 0.68407 0.0
C1766 C 0.78844 0.65467 0.67038 0.0
C1767 C 0.82528 0.6573 0.66363 0.0
C1768 C 0.84744 0.65142 0.65069 0.0
C1769 C 0.78344 0.67181 0.68624 0.0
C1770 C 0.79991 0.68098 0.69188 0.0
C1771 C 0.82051 0.67376 0.68017 0.0
C1772 C 0.79625 0.69815 0.70967 0.0
C1773 C 0.76046 0.68012 0.69639 0.0
C1774 C 0.80252 0.71788 0.70329 0.0
C1775 C 0.79983 0.73378 0.72005 0.0
C1776 C 0.79059 0.73044 0.74355 0.0
C1777 C 0.78442 0.71064 0.75 0.0
C1778 C 0.78749 0.69454 0.73334 0.0
H1779 H 0.74901 0.67711 0.68438 0.0
H1780 H 0.7584 0.67095 0.7142 0.0
H1781 H 0.75614 0.69826 0.6989 0.0
H1782 H 0.8094 0.72108 0.68522 0.0
H1783 H 0.80458 0.74892 0.7144 0.0
H1784 H 0.5004 0.72787 0.64958 0.0
H1785 H 0.46603 0.73328 0.67363 0.0
H1786 H 0.4477 0.80254 0.64667 0.0
H1787 H 0.48189 0.79715 0.6221 0.0
H1788 H 0.44818 0.7616 0.71009 0.0
H1789 H 0.39588 0.78138 0.6331 0.0
H1790 H 0.42459 0.76927 0.62929 0.0
H1791 H 0.41392 0.79861 0.63291 0.0
C1792 C 0.48904 0.74423 0.64851 0.0
C1793 C 0.49406 0.762 0.63362 0.0
C1794 C 0.46936 0.74734 0.66247 0.0
C1795 C 0.454 0.76824 0.66181 0.0
C1796 C 0.45903 0.78613 0.64725 0.0
H1797 H 0.34195 0.80496 0.76714 0.0
H1798 H 0.37511 0.80379 0.7415 0.0
C1799 C 0.47878 0.78306 0.63335 0.0
C1800 C 0.4329 0.77124 0.67655 0.0
H1801 H 0.37831 0.78486 0.67237 0.0
C1802 C 0.43292 0.76676 0.70181 0.0
C1803 C 0.41288 0.77772 0.66585 0.0
C1804 C 0.41169 0.78185 0.63879 0.0
C1805 C 0.41364 0.7687 0.71658 0.0
C1806 C 0.39361 0.77555 0.70592 0.0
C1807 C 0.39358 0.77986 0.68064 0.0
C1808 C 0.37264 0.77739 0.72064 0.0
C1809 C 0.4149 0.76284 0.74345 0.0
C1810 C 0.35967 0.76352 0.71704 0.0
C1811 C 0.34064 0.76419 0.73166 0.0
C1812 C 0.33389 0.77894 0.75014 0.0
C1813 C 0.34652 0.7934 0.75312 0.0
C1814 C 0.36565 0.79263 0.73857 0.0
H1815 H 0.43138 0.75321 0.74809 0.0
H1816 H 0.41044 0.77844 0.75289 0.0
H1817 H 0.4035 0.75292 0.75043 0.0
H1818 H 0.36459 0.75169 0.70331 0.0
H1819 H 0.33143 0.75278 0.72875 0.0
H1820 H 0.32972 0.42902 0.60929 0.0
H1821 H 0.32519 0.40178 0.64272 0.0
H1822 H 0.26148 0.40693 0.62217 0.0
H1823 H 0.26585 0.43436 0.58875 0.0
H1824 H 0.26243 0.40605 0.67125 0.0
H1825 H 0.32867 0.33715 0.63591 0.0
H1826 H 0.3371 0.3614 0.64022 0.0
H1827 H 0.31818 0.363 0.61806 0.0
C1828 C 0.31479 0.42428 0.61174 0.0
C1829 C 0.29824 0.43379 0.5961 0.0
C1830 C 0.31222 0.40865 0.6309 0.0
C1831 C 0.29315 0.4019 0.63476 0.0
C1832 C 0.27638 0.41177 0.61957 0.0
H1833 H 0.28052 0.27986 0.71575 0.0
H1834 H 0.28226 0.31054 0.68543 0.0
C1835 C 0.27889 0.42752 0.60046 0.0
C1836 C 0.29078 0.38443 0.65443 0.0
H1837 H 0.31342 0.33041 0.67539 0.0
C1838 C 0.27355 0.38949 0.67214 0.0
C1839 C 0.30512 0.36269 0.65548 0.0
C1840 C 0.32318 0.35561 0.63629 0.0
C1841 C 0.27037 0.37353 0.6909 0.0
C1842 C 0.28507 0.35198 0.69231 0.0
C1843 C 0.30223 0.34694 0.67452 0.0
C1844 C 0.28255 0.33398 0.7113 0.0
C1845 C 0.25096 0.37974 0.7086 0.0
C1846 C 0.28196 0.33683 0.73614 0.0
C1847 C 0.28066 0.31928 0.75363 0.0
C1848 C 0.28028 0.29845 0.74656 0.0
C1849 C 0.28074 0.29571 0.72178 0.0
C1850 C 0.28181 0.31325 0.7044 0.0
H1851 H 0.23839 0.3943 0.70127 0.0
H1852 H 0.2438 0.36553 0.71333 0.0
H1853 H 0.25592 0.38434 0.72544 0.0
H1854 H 0.28303 0.35243 0.74201 0.0
H1855 H 0.28057 0.32179 0.77259 0.0
H1856 H 0.57253 0.22755 0.58381 0.0
H1857 H 0.59705 0.23721 0.60828 0.0
H1858 H 0.57928 0.30499 0.57636 0.0
H1859 H 0.55412 0.29535 0.55148 0.0
H1860 H 0.63242 0.2522 0.59113 0.0
H1861 H 0.57601 0.3132 0.64938 0.0
H1862 H 0.56693 0.29482 0.63248 0.0
H1863 H 0.57413 0.31869 0.6172 0.0
C1864 C 0.57358 0.24464 0.58195 0.0
C1865 C 0.5613 0.26064 0.56546 0.0
C1866 C 0.58772 0.25012 0.59607 0.0
C1867 C 0.59013 0.27182 0.59434 0.0
C1868 C 0.57757 0.28816 0.57832 0.0
H1869 H 0.67838 0.31552 0.67797 0.0
H1870 H 0.65218 0.31501 0.6493 0.0
C1871 C 0.5632 0.28264 0.56405 0.0
C1872 C 0.6066 0.27643 0.6087 0.0
H1873 H 0.61281 0.30396 0.65642 0.0
C1874 C 0.6281 0.26368 0.60527 0.0
C1875 C 0.60114 0.29146 0.62712 0.0
C1876 C 0.5783 0.30528 0.63201 0.0
C1877 C 0.64407 0.26512 0.61998 0.0
C1878 C 0.63847 0.27941 0.63909 0.0
C1879 C 0.61715 0.29286 0.64194 0.0
C1880 C 0.65432 0.27987 0.65679 0.0
C1881 C 0.66687 0.25122 0.61487 0.0
C1882 C 0.66416 0.26039 0.67092 0.0
C1883 C 0.67911 0.26062 0.68744 0.0
C1884 C 0.68461 0.28041 0.69045 0.0
C1885 C 0.67453 0.29998 0.67641 0.0
C1886 C 0.65954 0.29972 0.65989 0.0
H1887 H 0.6698 0.24661 0.59586 0.0
H1888 H 0.67868 0.26024 0.61833 0.0
H1889 H 0.66977 0.23554 0.62689 0.0
H1890 H 0.66009 0.24495 0.66938 0.0
H1891 H 0.68601 0.24532 0.69823 0.0
H1892 H 0.8285 0.47095 0.53628 0.0
H1893 H 0.81014 0.4512 0.51384 0.0
H1894 H 0.7642 0.51335 0.49326 0.0
H1895 H 0.78258 0.53347 0.51621 0.0
H1896 H 0.76149 0.45296 0.5157 0.0
H1897 H 0.79874 0.48316 0.42899 0.0
H1898 H 0.81052 0.48255 0.45721 0.0
H1899 H 0.78535 0.50241 0.45121 0.0
C1900 C 0.81432 0.48045 0.52726 0.0
C1901 C 0.80707 0.50377 0.52777 0.0
C1902 C 0.80379 0.46911 0.51456 0.0
C1903 C 0.78592 0.48082 0.50184 0.0
C1904 C 0.778 0.50405 0.50302 0.0
H1905 H 0.76344 0.40419 0.38864 0.0
H1906 H 0.75602 0.43591 0.41353 0.0
C1907 C 0.78844 0.51548 0.51612 0.0
C1908 C 0.77723 0.46846 0.48587 0.0
H1909 H 0.78561 0.45192 0.42848 0.0
C1910 C 0.7662 0.4531 0.49647 0.0
C1911 C 0.78329 0.46879 0.46082 0.0
C1912 C 0.79515 0.48506 0.44869 0.0
C1913 C 0.76224 0.43711 0.4829 0.0
C1914 C 0.77015 0.43606 0.45832 0.0
C1915 C 0.77966 0.45258 0.44734 0.0
C1916 C 0.77138 0.41651 0.4446 0.0
C1917 C 0.75019 0.42111 0.49527 0.0
C1918 C 0.78222 0.39497 0.45383 0.0
C1919 C 0.78628 0.37682 0.43978 0.0
C1920 C 0.77992 0.3798 0.41595 0.0
C1921 C 0.76838 0.40124 0.40699 0.0
C1922 C 0.76422 0.41943 0.42116 0.0
H1923 H 0.73825 0.42919 0.50955 0.0
H1924 H 0.74169 0.41496 0.48223 0.0
H1925 H 0.76174 0.4066 0.5042 0.0
H1926 H 0.78844 0.39229 0.47158 0.0
H1927 H 0.79498 0.36052 0.44736 0.0
H1928 H 0.63629 0.7247 0.50233 0.0
H1929 H 0.66122 0.72894 0.46757 0.0
H1930 H 0.64218 0.80024 0.4718 0.0
H1931 H 0.61762 0.79612 0.50709 0.0
H1932 H 0.65408 0.75157 0.42282 0.0
H1933 H 0.70731 0.78666 0.46995 0.0
H1934 H 0.68772 0.77387 0.48607 0.0
H1935 H 0.67941 0.80195 0.47235 0.0
C1936 C 0.6375 0.74131 0.49615 0.0
C1937 C 0.62491 0.76002 0.50791 0.0
C1938 C 0.65174 0.74371 0.47605 0.0
C1939 C 0.65398 0.76487 0.46714 0.0
C1940 C 0.64118 0.78366 0.47852 0.0
H1941 H 0.73817 0.8064 0.3482 0.0
H1942 H 0.71049 0.80582 0.38141 0.0
C1943 C 0.62688 0.78127 0.49864 0.0
C1944 C 0.66947 0.76714 0.4458 0.0
H1945 H 0.71423 0.7852 0.42758 0.0
C1946 C 0.66723 0.75891 0.42392 0.0
C1947 C 0.68667 0.7768 0.44701 0.0
C1948 C 0.69062 0.78516 0.47014 0.0
C1949 C 0.68149 0.76018 0.40335 0.0
C1950 C 0.69887 0.76953 0.40465 0.0
C1951 C 0.70096 0.77804 0.42643 0.0
C1952 C 0.71541 0.77001 0.38393 0.0
C1953 C 0.67752 0.75178 0.38025 0.0
C1954 C 0.72767 0.75012 0.37424 0.0
C1955 C 0.74346 0.75041 0.35521 0.0
C1956 C 0.74762 0.77061 0.34536 0.0
C1957 C 0.73539 0.79054 0.35513 0.0
C1958 C 0.71956 0.79022 0.37423 0.0
H1959 H 0.66046 0.75161 0.37994 0.0
H1960 H 0.68166 0.76222 0.36415 0.0
H1961 H 0.68771 0.7344 0.37888 0.0
H1962 H 0.72527 0.73422 0.38166 0.0
H1963 H 0.7526 0.73466 0.34842 0.0
H1964 H 0.33547 0.55944 0.45542 0.0
H1965 H 0.33116 0.59481 0.43067 0.0
H1966 H 0.26335 0.6136 0.4523 0.0
H1967 H 0.26737 0.57821 0.47681 0.0
H1968 H 0.30487 0.61116 0.39177 0.0
H1969 H 0.28267 0.66831 0.46569 0.0
H1970 H 0.29476 0.63868 0.47111 0.0
H1971 H 0.26663 0.649 0.46608 0.0
C1972 C 0.3196 0.57101 0.45494 0.0
C1973 C 0.30181 0.56577 0.46827 0.0
C1974 C 0.31719 0.59131 0.4408 0.0
C1975 C 0.29698 0.60701 0.43979 0.0
C1976 C 0.27919 0.60197 0.45314 0.0
H1977 H 0.26347 0.71969 0.32944 0.0
H1978 H 0.26388 0.68605 0.35648 0.0
C1979 C 0.28157 0.58163 0.46724 0.0
C1980 C 0.29445 0.62831 0.42419 0.0
H1981 H 0.28032 0.68514 0.42556 0.0
C1982 C 0.29947 0.62733 0.39915 0.0
C1983 C 0.28756 0.64943 0.43384 0.0
C1984 C 0.28276 0.65155 0.46067 0.0
C1985 C 0.29768 0.64684 0.38353 0.0
C1986 C 0.29048 0.66797 0.39312 0.0
C1987 C 0.28559 0.66896 0.41817 0.0
C1988 C 0.28907 0.68913 0.37758 0.0
C1989 C 0.30405 0.64468 0.35692 0.0
C1990 C 0.30259 0.70245 0.38089 0.0
C1991 C 0.30239 0.72168 0.36553 0.0
C1992 C 0.28848 0.7282 0.34657 0.0
C1993 C 0.27438 0.71524 0.34382 0.0
C1994 C 0.27469 0.69589 0.35916 0.0
H1995 H 0.31334 0.62739 0.35322 0.0
H1996 H 0.28933 0.64916 0.34679 0.0
H1997 H 0.31388 0.65626 0.3499 0.0
H1998 H 0.31375 0.69765 0.39503 0.0
H1999 H 0.31343 0.73123 0.36832 0.0
H2000 H 0.44992 0.23743 0.49029 0.0
H2001 H 0.42124 0.24785 0.4626 0.0
H2002 H 0.44646 0.30133 0.42876 0.0
H2003 H 0.47551 0.29099 0.45697 0.0
H2004 H 0.38962 0.29377 0.45295 0.0
H2005 H 0.44233 0.25917 0.37317 0.0
H2006 H 0.44972 0.24936 0.40363 0.0
H2007 H 0.45071 0.2768 0.39171 0.0
C2008 C 0.44935 0.25159 0.47716 0.0
C2009 C 0.4651 0.26336 0.47591 0.0
C2010 C 0.43287 0.25752 0.46128 0.0
C2011 C 0.43174 0.27521 0.44338 0.0
C2012 C 0.44708 0.28749 0.44232 0.0
H2013 H 0.33698 0.29614 0.3306 0.0
H2014 H 0.36729 0.30073 0.35144 0.0
C2015 C 0.46357 0.2817 0.45857 0.0
C2016 C 0.4145 0.28011 0.42596 0.0
H2017 H 0.4049 0.26875 0.36983 0.0
C2018 C 0.39301 0.28872 0.43461 0.0
C2019 C 0.41882 0.27361 0.40197 0.0
C2020 C 0.4416 0.26416 0.39187 0.0
C2021 C 0.37579 0.29016 0.42035 0.0
C2022 C 0.38002 0.2822 0.39694 0.0
C2023 C 0.40156 0.27476 0.38775 0.0
C2024 C 0.36237 0.27916 0.38322 0.0
C2025 C 0.35312 0.29979 0.43077 0.0
C2026 C 0.3499 0.26507 0.39367 0.0
C2027 C 0.33283 0.2624 0.38185 0.0
C2028 C 0.32771 0.27359 0.35906 0.0
C2029 C 0.34054 0.28724 0.34809 0.0
C2030 C 0.35781 0.28991 0.36004 0.0
H2031 H 0.35265 0.31162 0.44451 0.0
H2032 H 0.34236 0.30863 0.41642 0.0
H2033 H 0.34676 0.28605 0.43984 0.0
H2034 H 0.3533 0.25614 0.41119 0.0
H2035 H 0.32343 0.25164 0.39081 0.0
H2036 H 0.59584 0.75736 0.66199 0.0
H2037 H 0.62127 0.76374 0.68806 0.0
H2038 H 0.62668 0.82167 0.64135 0.0
H2039 H 0.60073 0.81559 0.61527 0.0
H2040 H 0.66261 0.7623 0.67534 0.0
H2041 H 0.62043 0.84538 0.7074 0.0
H2042 H 0.60686 0.82915 0.69292 0.0
H2043 H 0.62295 0.84502 0.67506 0.0
C2044 C 0.60215 0.77169 0.65739 0.0
C2045 C 0.59623 0.78597 0.63648 0.0
C2046 C 0.61675 0.7753 0.67236 0.0
C2047 C 0.62585 0.79326 0.66686 0.0
C2048 C 0.61958 0.80794 0.64631 0.0
H2049 H 0.73191 0.82958 0.71823 0.0
H2050 H 0.70054 0.82735 0.69854 0.0
C2051 C 0.60478 0.80442 0.63134 0.0
C2052 C 0.64301 0.79544 0.68171 0.0
H2053 H 0.65736 0.83092 0.71557 0.0
C2054 C 0.66135 0.77725 0.6843 0.0
C2055 C 0.64143 0.81494 0.69341 0.0
C2056 C 0.62178 0.83467 0.69229 0.0
C2057 C 0.6783 0.77816 0.69776 0.0
C2058 C 0.67681 0.79771 0.7093 0.0
C2059 C 0.65845 0.81589 0.70682 0.0
C2060 C 0.69471 0.8 0.7228 0.0
C2061 C 0.69799 0.75842 0.69886 0.0
C2062 C 0.70161 0.78571 0.74341 0.0
C2063 C 0.71959 0.787 0.75475 0.0
C2064 C 0.73087 0.80265 0.74572 0.0
C2065 C 0.7235 0.81737 0.72561 0.0
C2066 C 0.70555 0.81614 0.71436 0.0
H2067 H 0.69864 0.74682 0.68481 0.0
H2068 H 0.71293 0.76402 0.6965 0.0
H2069 H 0.69767 0.74899 0.71684 0.0
H2070 H 0.69334 0.77329 0.75044 0.0
H2071 H 0.72515 0.77529 0.76999 0.0
H2072 H 0.59045 0.20941 0.43085 0.0
H2073 H 0.6241 0.21336 0.40958 0.0
H2074 H 0.63164 0.25408 0.46424 0.0
H2075 H 0.59854 0.24949 0.48614 0.0
H2076 H 0.63352 0.25173 0.39017 0.0
H2077 H 0.69054 0.20979 0.45954 0.0
H2078 H 0.66336 0.20733 0.46105 0.0
H2079 H 0.66859 0.2318 0.47064 0.0
C2080 C 0.59941 0.21887 0.43862 0.0
C2081 C 0.59168 0.22909 0.4603 0.0
C2082 C 0.61861 0.22124 0.42633 0.0
C2083 C 0.63058 0.23375 0.43548 0.0
C2084 C 0.62294 0.24396 0.45707 0.0
H2085 H 0.74159 0.2805 0.37949 0.0
H2086 H 0.71052 0.27273 0.40377 0.0
C2087 C 0.60379 0.24157 0.46942 0.0
C2088 C 0.65047 0.23699 0.42181 0.0
H2089 H 0.70417 0.23021 0.42621 0.0
C2090 C 0.64899 0.24687 0.398 0.0
C2091 C 0.67065 0.23073 0.43207 0.0
C2092 C 0.67349 0.21913 0.45715 0.0
C2093 C 0.66704 0.25097 0.38432 0.0
C2094 C 0.68717 0.2448 0.39462 0.0
C2095 C 0.68869 0.23495 0.41841 0.0
C2096 C 0.70679 0.24841 0.3808 0.0
C2097 C 0.66436 0.2623 0.3591 0.0
C2098 C 0.71529 0.23689 0.36021 0.0
C2099 C 0.73304 0.24121 0.34635 0.0
C2100 C 0.74268 0.25716 0.35284 0.0
C2101 C 0.73454 0.26816 0.37395 0.0
C2102 C 0.71679 0.26375 0.38785 0.0
H2103 H 0.64719 0.27035 0.35587 0.0
H2104 H 0.67339 0.27515 0.35582 0.0
H2105 H 0.6709 0.24969 0.34573 0.0
H2106 H 0.70798 0.22474 0.35468 0.0
H2107 H 0.73892 0.23236 0.33028 0.0
H2108 H 0.8771 0.56712 0.45983 0.0
H2109 H 0.87484 0.59644 0.42659 0.0
H2110 H 0.84227 0.64615 0.47562 0.0
H2111 H 0.84457 0.61697 0.50896 0.0
H2112 H 0.83396 0.62912 0.41164 0.0
H2113 H 0.8941 0.66812 0.43972 0.0
H2114 H 0.89373 0.6398 0.44975 0.0
H2115 H 0.87457 0.66285 0.46312 0.0
C2116 C 0.86972 0.58432 0.46359 0.0
C2117 C 0.86107 0.58976 0.48705 0.0
C2118 C 0.86833 0.60101 0.44457 0.0
C2119 C 0.85856 0.62342 0.44874 0.0
C2120 C 0.85005 0.62894 0.47212 0.0
H2121 H 0.82403 0.75291 0.37505 0.0
H2122 H 0.8338 0.71941 0.40274 0.0
C2123 C 0.85125 0.61226 0.49109 0.0
C2124 C 0.85657 0.64109 0.42857 0.0
H2125 H 0.87199 0.68815 0.40874 0.0
C2126 C 0.84243 0.64192 0.41075 0.0
C2127 C 0.86768 0.65767 0.42759 0.0
C2128 C 0.88352 0.65709 0.44593 0.0
C2129 C 0.83833 0.65956 0.39252 0.0
C2130 C 0.84909 0.67647 0.39184 0.0
C2131 C 0.86377 0.67518 0.40926 0.0
C2132 C 0.84408 0.69661 0.3745 0.0
C2133 C 0.82173 0.66049 0.37493 0.0
C2134 C 0.84695 0.69499 0.34935 0.0
C2135 C 0.84123 0.71421 0.33341 0.0
C2136 C 0.83277 0.73529 0.34244 0.0
C2137 C 0.83052 0.73688 0.36757 0.0
C2138 C 0.83611 0.71774 0.38342 0.0
H2139 H 0.81154 0.6491 0.38126 0.0
H2140 H 0.81113 0.67772 0.37204 0.0
H2141 H 0.83002 0.65535 0.35723 0.0
H2142 H 0.85349 0.6789 0.34205 0.0
H2143 H 0.84316 0.71255 0.3141 0.0
H2144 H 0.53311 0.7858 0.49462 0.0
H2145 H 0.5022 0.80007 0.4704 0.0
H2146 H 0.47001 0.84409 0.52532 0.0
H2147 H 0.50127 0.82959 0.54996 0.0
H2148 H 0.44569 0.81751 0.51309 0.0
H2149 H 0.47673 0.85717 0.42969 0.0
H2150 H 0.49445 0.83015 0.43707 0.0
H2151 H 0.49039 0.85184 0.45736 0.0
C2152 C 0.51971 0.79896 0.50129 0.0
C2153 C 0.51959 0.80661 0.52415 0.0
C2154 C 0.50207 0.80723 0.48733 0.0
C2155 C 0.48385 0.82335 0.49587 0.0
C2156 C 0.484 0.8318 0.51828 0.0
H2157 H 0.38217 0.85064 0.39418 0.0
H2158 H 0.4049 0.85844 0.42299 0.0
C2159 C 0.50188 0.82363 0.53226 0.0
C2160 C 0.46403 0.82889 0.48256 0.0
H2161 H 0.44741 0.84081 0.42522 0.0
C2162 C 0.44582 0.82317 0.49401 0.0
C2163 C 0.464 0.83659 0.45777 0.0
C2164 C 0.48238 0.84451 0.44485 0.0
C2165 C 0.42838 0.82319 0.48088 0.0
C2166 C 0.42937 0.82867 0.45557 0.0
C2167 C 0.44676 0.83621 0.44454 0.0
C2168 C 0.41373 0.82471 0.43986 0.0
C2169 C 0.40933 0.81675 0.49416 0.0
C2170 C 0.41109 0.80318 0.43975 0.0
C2171 C 0.39817 0.79868 0.42332 0.0
C2172 C 0.38776 0.81555 0.4064 0.0
C2173 C 0.3901 0.83722 0.40683 0.0
C2174 C 0.403 0.84174 0.42336 0.0
H2175 H 0.40734 0.82102 0.51328 0.0
H2176 H 0.3942 0.82518 0.48535 0.0
H2177 H 0.41203 0.79842 0.49433 0.0
H2178 H 0.4197 0.78959 0.45177 0.0
H2179 H 0.3971 0.78171 0.42319 0.0
H2180 H 0.26003 0.48528 0.46027 0.0
H2181 H 0.25687 0.46267 0.42838 0.0
H2182 H 0.22869 0.42124 0.48064 0.0
H2183 H 0.2318 0.44378 0.51288 0.0
H2184 H 0.27877 0.41498 0.43286 0.0
H2185 H 0.19139 0.43272 0.42015 0.0
H2186 H 0.20261 0.45223 0.43264 0.0
H2187 H 0.19928 0.42785 0.4508 0.0
C2188 C 0.25273 0.47166 0.46499 0.0
C2189 C 0.24636 0.4662 0.4892 0.0
C2190 C 0.25092 0.45878 0.4467 0.0
C2191 C 0.24249 0.44038 0.45217 0.0
C2192 C 0.23498 0.43558 0.47604 0.0
H2193 H 0.24095 0.32765 0.37593 0.0
H2194 H 0.23355 0.35754 0.40308 0.0
C2195 C 0.23685 0.44844 0.49444 0.0
C2196 C 0.2442 0.42465 0.43353 0.0
H2197 H 0.21498 0.40315 0.39942 0.0
C2198 C 0.26485 0.41248 0.42539 0.0
C2199 C 0.22597 0.42132 0.42414 0.0
C2200 C 0.20351 0.43428 0.43219 0.0
C2201 C 0.26782 0.39676 0.40832 0.0
C2202 C 0.24961 0.3936 0.39857 0.0
C2203 C 0.2289 0.40577 0.40675 0.0
C2204 C 0.2519 0.37705 0.38059 0.0
C2205 C 0.29043 0.38315 0.40152 0.0
C2206 C 0.264 0.37853 0.35849 0.0
C2207 C 0.26848 0.36135 0.34301 0.0
C2208 C 0.26063 0.34253 0.34919 0.0
C2209 C 0.24733 0.34184 0.37061 0.0
C2210 C 0.24304 0.35893 0.38618 0.0
H2211 H 0.30177 0.38338 0.41516 0.0
H2212 H 0.29092 0.36552 0.3996 0.0
H2213 H 0.29623 0.39028 0.38393 0.0
H2214 H 0.27054 0.39267 0.35356 0.0
H2215 H 0.27854 0.36258 0.32652 0.0
H2216 H 0.49439 0.18876 0.61194 0.0
H2217 H 0.46918 0.18984 0.64774 0.0
H2218 H 0.4271 0.25041 0.61671 0.0
H2219 H 0.45195 0.24919 0.58065 0.0
H2220 H 0.45504 0.22407 0.67966 0.0
H2221 H 0.38677 0.21012 0.63655 0.0
H2222 H 0.41376 0.20424 0.6223 0.0
H2223 H 0.39682 0.23242 0.62158 0.0
C2224 C 0.47963 0.20214 0.61256 0.0
C2225 C 0.47518 0.21886 0.59335 0.0
C2226 C 0.46531 0.2028 0.63311 0.0
C2227 C 0.44615 0.22005 0.63476 0.0
C2228 C 0.44163 0.23675 0.61565 0.0
H2229 H 0.36185 0.27224 0.75595 0.0
H2230 H 0.38996 0.26362 0.7232 0.0
C2231 C 0.45598 0.23615 0.59515 0.0
C2232 C 0.43121 0.22107 0.6568 0.0
H2233 H 0.37929 0.22258 0.67631 0.0
C2234 C 0.43853 0.22355 0.67899 0.0
C2235 C 0.40976 0.2201 0.65595 0.0
C2236 C 0.40131 0.21636 0.63288 0.0
C2237 C 0.42474 0.22589 0.70019 0.0
C2238 C 0.40303 0.22595 0.69909 0.0
C2239 C 0.39591 0.22268 0.67709 0.0
C2240 C 0.38716 0.23033 0.72028 0.0
C2241 C 0.43352 0.22829 0.72357 0.0
C2242 C 0.37616 0.2145 0.72951 0.0
C2243 C 0.36001 0.21937 0.74829 0.0
C2244 C 0.35441 0.2403 0.75799 0.0
C2245 C 0.36578 0.25593 0.74899 0.0
C2246 C 0.38196 0.251 0.73032 0.0
H2247 H 0.45133 0.22175 0.72288 0.0
H2248 H 0.42932 0.24624 0.72687 0.0
H2249 H 0.42646 0.21937 0.73909 0.0
H2250 H 0.37985 0.19849 0.72191 0.0
H2251 H 0.3515 0.207 0.75467 0.0
H2252 H 0.87737 0.46328 0.64327 0.0
H2253 H 0.87078 0.43052 0.66733 0.0
H2254 H 0.81477 0.4367 0.62848 0.0
H2255 H 0.82166 0.46888 0.6038 0.0
H2256 H 0.83471 0.42881 0.69731 0.0
H2257 H 0.84637 0.37086 0.62509 0.0
H2258 H 0.85508 0.3961 0.62086 0.0
H2259 H 0.82725 0.39735 0.61888 0.0
C2260 C 0.86385 0.45748 0.63958 0.0
C2261 C 0.85005 0.46877 0.62159 0.0
C2262 C 0.86004 0.43882 0.65343 0.0
C2263 C 0.84246 0.43098 0.64946 0.0
C2264 C 0.82867 0.44218 0.63154 0.0
H2265 H 0.78543 0.33034 0.72578 0.0
H2266 H 0.79397 0.35968 0.69715 0.0
C2267 C 0.83247 0.46081 0.61767 0.0
C2268 C 0.83796 0.4118 0.66491 0.0
H2269 H 0.83165 0.35947 0.66351 0.0
C2270 C 0.83418 0.4136 0.68994 0.0
C2271 C 0.83713 0.39202 0.65521 0.0
C2272 C 0.84186 0.38881 0.62857 0.0
C2273 C 0.82935 0.39628 0.70553 0.0
C2274 C 0.82859 0.3765 0.69585 0.0
C2275 C 0.83225 0.37469 0.67082 0.0
C2276 C 0.82431 0.35745 0.71166 0.0
C2277 C 0.82472 0.39943 0.73221 0.0
C2278 C 0.83889 0.34605 0.72873 0.0
C2279 C 0.83411 0.32931 0.74506 0.0
C2280 C 0.81466 0.32357 0.74459 0.0
C2281 C 0.80052 0.33435 0.7267 0.0
C2282 C 0.80535 0.35113 0.71033 0.0
H2283 H 0.82097 0.41728 0.73587 0.0
H2284 H 0.81102 0.39281 0.73971 0.0
H2285 H 0.83909 0.39011 0.74194 0.0
H2286 H 0.85379 0.35044 0.72974 0.0
H2287 H 0.84549 0.32127 0.75841 0.0
H2288 H 0.23232 0.56157 0.55423 0.0
H2289 H 0.21807 0.59582 0.57544 0.0
H2290 H 0.26786 0.57205 0.62547 0.0
H2291 H 0.2819 0.538 0.60478 0.0
H2292 H 0.22697 0.59259 0.64734 0.0
H2293 H 0.25135 0.64425 0.5678 0.0
H2294 H 0.23346 0.62778 0.5634 0.0
H2295 H 0.26073 0.61416 0.57016 0.0
C2296 C 0.23993 0.56352 0.57004 0.0
C2297 C 0.25835 0.54724 0.57773 0.0
C2298 C 0.23188 0.58313 0.582 0.0
C2299 C 0.24214 0.58656 0.60177 0.0
C2300 C 0.25975 0.56974 0.61019 0.0
H2301 H 0.2778 0.68198 0.66687 0.0
H2302 H 0.27027 0.65698 0.6401 0.0
C2303 C 0.2678 0.55031 0.59829 0.0
C2304 C 0.23586 0.60803 0.61309 0.0
H2305 H 0.24187 0.66086 0.60449 0.0
C2306 C 0.22968 0.60775 0.63791 0.0
C2307 C 0.23963 0.62764 0.60066 0.0
C2308 C 0.24677 0.62863 0.57406 0.0
C2309 C 0.22858 0.62603 0.65106 0.0
C2310 C 0.23335 0.64529 0.63885 0.0
C2311 C 0.23815 0.6461 0.61372 0.0
C2312 C 0.23658 0.66315 0.65235 0.0
C2313 C 0.22396 0.62388 0.67817 0.0
C2314 C 0.21994 0.67558 0.66742 0.0
C2315 C 0.22428 0.68966 0.68304 0.0
C2316 C 0.24532 0.69166 0.68365 0.0
C2317 C 0.26155 0.68045 0.66719 0.0
C2318 C 0.25722 0.66631 0.65173 0.0
H2319 H 0.22423 0.60652 0.68516 0.0
H2320 H 0.23592 0.62916 0.68746 0.0
H2321 H 0.20777 0.63488 0.68302 0.0
H2322 H 0.20381 0.67368 0.66785 0.0
H2323 H 0.21142 0.69799 0.69553 0.0
loop_
_geom_bond_atom_site_label_1
_geom_bond_atom_site_label_2
_geom_bond_distance
_geom_bond_site_symmetry_2
_ccdc_geom_bond_type
Cu0 N1 2.014 . S
Cu0 O6 1.965 1_545 S
Cu0 N11 1.970 1_545 S
Cu0 O20 1.968 . S
N1 Cu0 2.014 . S
N1 C3 1.263 . S
N1 C5 1.389 . S
N2 C3 1.358 . S
N2 C4 1.400 . S
C3 N1 1.263 . S
C3 N2 1.358 . S
C3 H9 0.930 . S
C4 N2 1.400 . S
C4 C5 1.351 . S
C4 H21 0.930 . S
C5 N1 1.389 . S
C5 C4 1.351 . S
C5 H10 0.930 . S
O6 Cu0 1.965 1_565 S
O6 C16 1.282 . S
C7 O8 1.261 1_655 S
C7 O20 1.251 1_655 S
O8 C7 1.261 1_455 S
H9 C3 0.930 . S
H10 C5 0.930 . S
N11 Cu0 1.970 1_565 S
N11 C13 1.335 1_455 S
N11 C14 1.390 . S
N12 C13 1.345 . S
N12 C15 1.336 1_655 S
C13 N11 1.335 1_655 S
C13 N12 1.345 . S
C13 H18 0.930 . S
C14 N11 1.390 . S
C14 C15 1.346 . S
C14 H19 0.930 . S
C15 N12 1.336 1_455 S
C15 C14 1.346 . S
C15 H22 0.929 . S
C16 O6 1.282 . S
C16 O17 1.216 . S
O17 C16 1.216 . S
H18 C13 0.930 . S
H19 C14 0.930 . S
O20 Cu0 1.968 . S
O20 C7 1.251 1_455 S
H21 C4 0.930 . S
H22 C15 0.929 . S
Cu23 N24 1.999 1_455 S
Cu23 O29 1.974 1_455 S
Cu23 N34 1.985 . S
Cu23 O43 1.959 . S
N24 Cu23 1.999 1_655 S
N24 C26 1.263 . S
N24 C28 1.389 1_645 S
N25 C26 1.358 1_565 S
N25 C27 1.400 . S
C26 N24 1.263 . S
C26 N25 1.358 1_545 S
C26 H32 0.930 . S
C27 N25 1.400 . S
C27 C28 1.351 1_655 S
C27 H44 0.930 . S
C28 N24 1.389 1_465 S
C28 C27 1.351 1_455 S
C28 H33 0.930 . S
O29 Cu23 1.974 1_655 S
O29 C39 1.282 . S
C30 O31 1.261 . S
C30 O43 1.251 . S
O31 C30 1.261 . S
H32 C26 0.930 . S
H33 C28 0.930 . S
N34 Cu23 1.985 . S
N34 C36 1.335 . S
N34 C37 1.390 . S
N35 C36 1.345 . S
N35 C38 1.336 . S
C36 N34 1.335 . S
C36 N35 1.345 . S
C36 H41 0.930 . S
C37 N34 1.390 . S
C37 C38 1.346 . S
C37 H42 0.930 . S
C38 N35 1.336 . S
C38 C37 1.346 . S
C38 H45 0.929 . S
C39 O29 1.282 . S
C39 O40 1.216 . S
O40 C39 1.216 . S
H41 C36 0.930 . S
H42 C37 0.930 . S
O43 Cu23 1.959 . S
O43 C30 1.251 . S
H44 C27 0.930 . S
H45 C38 0.929 . S
Cu46 N47 1.999 . S
Cu46 O52 1.974 . S
Cu46 N57 1.985 . S
Cu46 O66 1.959 . S
N47 Cu46 1.999 . S
N47 C49 1.263 1_545 S
N47 C51 1.389 . S
N48 C49 1.358 . S
N48 C50 1.400 . S
C49 N47 1.263 1_565 S
C49 N48 1.358 . S
C49 H55 0.930 . S
C50 N48 1.400 . S
C50 C51 1.351 1_565 S
C50 H67 0.930 1_554 S
C51 N47 1.389 . S
C51 C50 1.351 1_545 S
C51 H56 0.930 . S
O52 Cu46 1.974 . S
O52 C62 1.282 . S
C53 O54 1.261 . S
C53 O66 1.251 . S
O54 C53 1.261 . S
H55 C49 0.930 . S
H56 C51 0.930 . S
N57 Cu46 1.985 . S
N57 C59 1.335 . S
N57 C60 1.390 . S
N58 C59 1.345 . S
N58 C61 1.336 . S
C59 N57 1.335 . S
C59 N58 1.345 . S
C59 H64 0.930 . S
C60 N57 1.390 . S
C60 C61 1.346 . S
C60 H65 0.930 . S
C61 N58 1.336 . S
C61 C60 1.346 . S
C61 H68 0.929 . S
C62 O52 1.282 . S
C62 O63 1.216 . S
O63 C62 1.216 . S
H64 C59 0.930 . S
H65 C60 0.930 . S
O66 Cu46 1.959 . S
O66 C53 1.251 . S
H67 C50 0.930 1_556 S
H68 C61 0.929 . S
Cu69 N70 1.999 . S
Cu69 O75 1.974 . S
Cu69 N80 1.985 . S
Cu69 O89 1.959 . S
N70 Cu69 1.999 . S
N70 C72 1.263 . S
N70 C74 1.389 . S
N71 C72 1.358 . S
N71 C73 1.400 1_554 S
C72 N70 1.263 . S
C72 N71 1.358 . S
C72 H78 0.930 . S
C73 N71 1.400 1_556 S
C73 C74 1.351 1_556 S
C73 H90 0.930 . S
C74 N70 1.389 . S
C74 C73 1.351 1_554 S
C74 H79 0.945 . S
O75 Cu69 1.974 . S
O75 C85 1.282 . S
C76 O77 1.261 . S
C76 O89 1.251 . S
O77 C76 1.261 . S
H78 C72 0.930 . S
H79 C74 0.945 . S
N80 Cu69 1.985 . S
N80 C82 1.335 1_455 S
N80 C83 1.390 . S
N81 C82 1.345 . S
N81 C84 1.336 . S
C82 N80 1.335 1_655 S
C82 N81 1.345 . S
C82 H87 0.930 . S
C83 N80 1.390 . S
C83 C84 1.346 1_455 S
C83 H88 0.930 . S
C84 N81 1.336 . S
C84 C83 1.346 1_655 S
C84 H91 0.929 . S
C85 O75 1.282 . S
C85 O86 1.216 . S
O86 C85 1.216 . S
H87 C82 0.930 . S
H88 C83 0.930 . S
O89 Cu69 1.959 . S
O89 C76 1.251 . S
H90 C73 0.930 . S
H91 C84 0.929 . S
Cu92 N93 1.999 1_554 S
Cu92 O98 1.974 . S
Cu92 N103 1.985 1_545 S
Cu92 O112 1.959 1_544 S
N93 Cu92 1.999 1_556 S
N93 C95 1.263 . S
N93 C97 1.389 . S
N94 C95 1.358 . S
N94 C96 1.400 . S
C95 N93 1.263 . S
C95 N94 1.358 . S
C95 H101 0.930 . S
C96 N94 1.400 . S
C96 C97 1.351 . S
C96 H113 0.930 . S
C97 N93 1.389 . S
C97 C96 1.351 . S
C97 H102 0.930 . S
O98 Cu92 1.974 . S
O98 C108 1.282 . S
C99 O100 1.261 . S
C99 O112 1.251 . S
O100 C99 1.261 . S
H101 C95 0.930 . S
H102 C97 0.930 . S
N103 Cu92 1.985 1_565 S
N103 C105 1.335 . S
N103 C106 1.390 . S
N104 C105 1.345 . S
N104 C107 1.336 . S
C105 N103 1.335 . S
C105 N104 1.345 . S
C105 H110 0.930 . S
C106 N103 1.390 . S
C106 C107 1.346 . S
C106 H111 0.930 . S
C107 N104 1.336 . S
C107 C106 1.346 . S
C107 H114 0.929 . S
C108 O98 1.282 . S
C108 O109 1.216 . S
O109 C108 1.216 . S
H110 C105 0.930 . S
H111 C106 0.930 . S
O112 Cu92 1.959 1_566 S
O112 C99 1.251 . S
H113 C96 0.930 . S
H114 C107 0.929 . S
Cu115 N116 1.999 1_454 S
Cu115 O121 1.974 1_455 S
Cu115 N126 1.985 . S
Cu115 O135 1.959 1_554 S
N116 Cu115 1.999 1_656 S
N116 C118 1.263 . S
N116 C120 1.389 1_655 S
N117 C118 1.358 . S
N117 C119 1.400 . S
C118 N116 1.263 . S
C118 N117 1.358 . S
C118 H124 0.915 1_556 S
C119 N117 1.400 . S
C119 C120 1.351 1_655 S
C119 H136 0.930 . S
C120 N116 1.389 1_455 S
C120 C119 1.351 1_455 S
C120 H125 0.930 . S
O121 Cu115 1.974 1_655 S
O121 C131 1.282 . S
C122 O123 1.261 . S
C122 O135 1.251 . S
O123 C122 1.261 . S
H124 C118 0.915 1_554 S
H125 C120 0.930 . S
N126 Cu115 1.985 . S
N126 C128 1.335 . S
N126 C129 1.390 . S
N127 C128 1.345 . S
N127 C130 1.336 . S
C128 N126 1.335 . S
C128 N127 1.345 . S
C128 H133 0.930 . S
C129 N126 1.390 . S
C129 C130 1.346 . S
C129 H134 0.930 . S
C130 N127 1.336 . S
C130 C129 1.346 . S
C130 H137 0.929 . S
C131 O121 1.282 . S
C131 O132 1.216 . S
O132 C131 1.216 . S
H133 C128 0.930 . S
H134 C129 0.930 . S
O135 Cu115 1.959 1_556 S
O135 C122 1.251 . S
H136 C119 0.930 . S
H137 C130 0.929 . S
Cu138 N139 1.999 . S
Cu138 O144 1.974 . S
Cu138 N149 1.985 . S
Cu138 O158 1.959 . S
N139 Cu138 1.999 . S
N139 C141 1.263 . S
N139 C143 1.389 . S
N140 C141 1.358 . S
N140 C142 1.400 . S
C141 N139 1.263 . S
C141 N140 1.358 . S
C141 H147 0.930 . S
C142 N140 1.400 . S
C142 C143 1.351 . S
C142 H159 0.930 . S
C143 N139 1.389 . S
C143 C142 1.351 . S
C143 H148 0.930 . S
O144 Cu138 1.974 . S
O144 C154 1.282 . S
C145 O146 1.261 . S
C145 O158 1.251 . S
O146 C145 1.261 . S
H147 C141 0.930 . S
H148 C143 0.930 . S
N149 Cu138 1.985 . S
N149 C151 1.335 . S
N149 C152 1.390 . S
N150 C151 1.345 . S
N150 C153 1.336 . S
C151 N149 1.335 . S
C151 N150 1.345 . S
C151 H156 0.930 . S
C152 N149 1.390 . S
C152 C153 1.346 . S
C152 H157 0.930 . S
C153 N150 1.336 . S
C153 C152 1.346 . S
C153 H160 0.929 . S
C154 O144 1.282 . S
C154 O155 1.216 . S
O155 C154 1.216 . S
H156 C151 0.930 . S
H157 C152 0.930 . S
O158 Cu138 1.959 . S
O158 C145 1.251 . S
H159 C142 0.930 . S
H160 C153 0.929 . S
Cu161 N162 1.999 . S
Cu161 O167 1.974 . S
Cu161 N172 1.985 . S
Cu161 O181 1.959 . S
N162 Cu161 1.999 . S
N162 C164 1.263 . S
N162 C166 1.389 . S
N163 C164 1.358 . S
N163 C165 1.400 . S
C164 N162 1.263 . S
C164 N163 1.358 . S
C164 H170 0.930 . S
C165 N163 1.400 . S
C165 C166 1.351 . S
C165 H182 0.930 . S
C166 N162 1.389 . S
C166 C165 1.351 . S
C166 H171 0.930 . S
O167 Cu161 1.974 . S
O167 C177 1.282 . S
C168 O169 1.261 . S
C168 O181 1.251 . S
O169 C168 1.261 . S
H170 C164 0.930 . S
H171 C166 0.930 . S
N172 Cu161 1.985 . S
N172 C174 1.335 . S
N172 C175 1.390 . S
N173 C174 1.345 . S
N173 C176 1.336 . S
C174 N172 1.335 . S
C174 N173 1.345 . S
C174 H179 0.930 . S
C175 N172 1.390 . S
C175 C176 1.346 . S
C175 H180 0.930 . S
C176 N173 1.336 . S
C176 C175 1.346 . S
C176 H183 0.929 . S
C177 O167 1.282 . S
C177 O178 1.216 . S
O178 C177 1.216 . S
H179 C174 0.930 . S
H180 C175 0.930 . S
O181 Cu161 1.959 . S
O181 C168 1.251 . S
H182 C165 0.930 . S
H183 C176 0.929 . S
Cu184 N185 1.999 . S
Cu184 O190 1.974 . S
Cu184 N195 1.985 . S
Cu184 O204 1.959 . S
N185 Cu184 1.999 . S
N185 C187 1.263 . S
N185 C189 1.389 . S
N186 C187 1.358 . S
N186 C188 1.400 . S
C187 N185 1.263 . S
C187 N186 1.358 . S
C187 H193 0.930 . S
C188 N186 1.400 . S
C188 C189 1.351 . S
C188 H205 0.930 . S
C189 N185 1.389 . S
C189 C188 1.351 . S
C189 H194 0.930 . S
O190 Cu184 1.974 . S
O190 C200 1.282 . S
C191 O192 1.261 . S
C191 O204 1.251 . S
O192 C191 1.261 . S
H193 C187 0.930 . S
H194 C189 0.930 . S
N195 Cu184 1.985 . S
N195 C197 1.335 . S
N195 C198 1.390 . S
N196 C197 1.345 . S
N196 C199 1.336 . S
C197 N195 1.335 . S
C197 N196 1.345 . S
C197 H202 0.930 . S
C198 N195 1.390 . S
C198 C199 1.346 . S
C198 H203 0.930 . S
C199 N196 1.336 . S
C199 C198 1.346 . S
C199 H206 0.929 . S
C200 O190 1.282 . S
C200 O201 1.216 . S
O201 C200 1.216 . S
H202 C197 0.930 . S
H203 C198 0.930 . S
O204 Cu184 1.959 . S
O204 C191 1.251 . S
H205 C188 0.930 . S
H206 C199 0.929 . S
Cu207 N208 1.999 . S
Cu207 O213 1.974 . S
Cu207 N218 1.985 . S
Cu207 O227 1.959 . S
N208 Cu207 1.999 . S
N208 C210 1.263 . S
N208 C212 1.389 . S
N209 C210 1.358 . S
N209 C211 1.400 . S
C210 N208 1.263 . S
C210 N209 1.358 . S
C210 H216 0.930 . S
C211 N209 1.400 . S
C211 C212 1.351 . S
C211 H228 0.930 . S
C212 N208 1.389 . S
C212 C211 1.351 . S
C212 H217 0.930 . S
O213 Cu207 1.974 . S
O213 C223 1.282 . S
C214 O215 1.261 . S
C214 O227 1.251 . S
O215 C214 1.261 . S
H216 C210 0.930 . S
H217 C212 0.930 . S
N218 Cu207 1.985 . S
N218 C220 1.335 . S
N218 C221 1.390 . S
N219 C220 1.345 . S
N219 C222 1.336 . S
C220 N218 1.335 . S
C220 N219 1.345 . S
C220 H225 0.930 . S
C221 N218 1.390 . S
C221 C222 1.346 . S
C221 H226 0.930 . S
C222 N219 1.336 . S
C222 C221 1.346 . S
C222 H229 0.929 . S
C223 O213 1.282 . S
C223 O224 1.216 . S
O224 C223 1.216 . S
H225 C220 0.930 . S
H226 C221 0.930 . S
O227 Cu207 1.959 . S
O227 C214 1.251 . S
H228 C211 0.930 . S
H229 C222 0.929 . S
Cu230 N231 1.999 . S
Cu230 O236 1.974 . S
Cu230 N241 1.985 . S
Cu230 O250 1.959 . S
N231 Cu230 1.999 . S
N231 C233 1.263 . S
N231 C235 1.389 . S
N232 C233 1.358 . S
N232 C234 1.400 . S
C233 N231 1.263 . S
C233 N232 1.358 . S
C233 H239 0.930 . S
C234 N232 1.400 . S
C234 C235 1.351 . S
C234 H251 0.930 . S
C235 N231 1.389 . S
C235 C234 1.351 . S
C235 H240 0.930 . S
O236 Cu230 1.974 . S
O236 C246 1.282 . S
C237 O238 1.261 . S
C237 O250 1.251 . S
O238 C237 1.261 . S
H239 C233 0.930 . S
H240 C235 0.930 . S
N241 Cu230 1.985 . S
N241 C243 1.335 . S
N241 C244 1.390 . S
N242 C243 1.345 . S
N242 C245 1.336 . S
C243 N241 1.335 . S
C243 N242 1.345 . S
C243 H248 0.930 . S
C244 N241 1.390 . S
C244 C245 1.346 . S
C244 H249 0.930 . S
C245 N242 1.336 . S
C245 C244 1.346 . S
C245 H252 0.929 . S
C246 O236 1.282 . S
C246 O247 1.216 . S
O247 C246 1.216 . S
H248 C243 0.930 . S
H249 C244 0.930 . S
O250 Cu230 1.959 . S
O250 C237 1.251 . S
H251 C234 0.930 . S
H252 C245 0.929 . S
Cu253 N254 1.999 . S
Cu253 O259 1.974 . S
Cu253 N264 1.985 . S
Cu253 O273 1.959 . S
N254 Cu253 1.999 . S
N254 C256 1.263 . S
N254 C258 1.389 . S
N255 C256 1.358 . S
N255 C257 1.400 . S
C256 N254 1.263 . S
C256 N255 1.358 . S
C256 H262 0.930 . S
C257 N255 1.400 . S
C257 C258 1.351 . S
C257 H274 0.930 . S
C258 N254 1.389 . S
C258 C257 1.351 . S
C258 H263 0.930 . S
O259 Cu253 1.974 . S
O259 C269 1.282 . S
C260 O261 1.261 . S
C260 O273 1.251 . S
O261 C260 1.261 . S
H262 C256 0.930 . S
H263 C258 0.930 . S
N264 Cu253 1.985 . S
N264 C266 1.335 . S
N264 C267 1.390 . S
N265 C266 1.345 . S
N265 C268 1.336 . S
C266 N264 1.335 . S
C266 N265 1.345 . S
C266 H271 0.930 . S
C267 N264 1.390 . S
C267 C268 1.346 . S
C267 H272 0.930 . S
C268 N265 1.336 . S
C268 C267 1.346 . S
C268 H275 0.929 . S
C269 O259 1.282 . S
C269 O270 1.216 . S
O270 C269 1.216 . S
H271 C266 0.930 . S
H272 C267 0.930 . S
O273 Cu253 1.959 . S
O273 C260 1.251 . S
H274 C257 0.930 . S
H275 C268 0.929 . S
Sm276 C278 2.846 . S
Sm276 O296 2.543 . S
Sm276 O297 2.450 . S
Sm276 O298 2.681 . S
Sm276 O299 2.464 . S
Sm276 O300 2.396 . S
Sm276 O304 2.386 . S
Sm276 O307 2.408 . S
Sm277 C287 2.846 . S
Sm277 O298 2.386 . S
Sm277 O301 2.408 . S
Sm277 O302 2.543 . S
Sm277 O303 2.450 . S
Sm277 O304 2.681 . S
Sm277 O305 2.464 . S
Sm277 O306 2.396 . S
C278 Sm276 2.846 . S
C278 C279 1.506 . S
C278 O296 1.261 . S
C278 O297 1.242 . S
C279 C278 1.506 . S
C279 C280 1.358 . S
C279 C284 1.382 . S
C280 C279 1.358 . S
C280 C281 1.385 . S
C280 H308 0.930 . S
C281 C280 1.385 . S
C281 C282 1.395 . S
C281 H309 0.929 . S
C282 C281 1.395 . S
C282 C283 1.335 . S
C283 C282 1.335 . S
C283 C284 1.398 . S
C283 H310 0.930 . S
C284 C279 1.382 . S
C284 C283 1.398 . S
C284 H311 0.929 . S
C285 O298 1.271 . S
C285 O299 1.251 . S
C286 O300 1.252 . S
C286 O301 1.272 . S
C287 Sm277 2.846 . S
C287 C288 1.506 . S
C287 O302 1.261 . S
C287 O303 1.242 . S
C288 C287 1.506 . S
C288 C289 1.358 . S
C288 C293 1.382 . S
C289 C288 1.358 . S
C289 C290 1.385 . S
C289 H312 0.930 . S
C290 C289 1.385 . S
C290 C291 1.395 . S
C290 H313 0.929 . S
C291 C290 1.395 . S
C291 C292 1.335 . S
C292 C291 1.335 . S
C292 C293 1.398 . S
C292 H314 0.930 . S
C293 C288 1.382 . S
C293 C292 1.398 . S
C293 H315 0.929 . S
C294 O304 1.271 . S
C294 O305 1.251 . S
C295 O306 1.252 . S
C295 O307 1.272 . S
O296 Sm276 2.543 . S
O296 C278 1.261 . S
O297 Sm276 2.450 . S
O297 C278 1.242 . S
O298 Sm276 2.681 . S
O298 Sm277 2.386 . S
O298 C285 1.271 . S
O299 Sm276 2.464 . S
O299 C285 1.251 . S
O300 Sm276 2.396 . S
O300 C286 1.252 . S
O301 Sm277 2.408 . S
O301 C286 1.272 . S
O302 Sm277 2.543 . S
O302 C287 1.261 . S
O303 Sm277 2.450 . S
O303 C287 1.242 . S
O304 Sm276 2.386 . S
O304 Sm277 2.681 . S
O304 C294 1.271 . S
O305 Sm277 2.464 . S
O305 C294 1.251 . S
O306 Sm277 2.396 . S
O306 C295 1.252 . S
O307 Sm276 2.408 . S
O307 C295 1.272 . S
H308 C280 0.930 . S
H309 C281 0.929 . S
H310 C283 0.930 . S
H311 C284 0.929 . S
H312 C289 0.930 . S
H313 C290 0.929 . S
H314 C292 0.930 . S
H315 C293 0.929 . S
Sm316 C318 2.846 . S
Sm316 O336 2.543 . S
Sm316 O337 2.450 . S
Sm316 O338 2.681 . S
Sm316 O339 2.464 . S
Sm316 O340 2.396 . S
Sm316 O344 2.386 . S
Sm316 O347 2.408 . S
Sm317 C327 2.846 . S
Sm317 O338 2.386 . S
Sm317 O341 2.408 . S
Sm317 O342 2.543 . S
Sm317 O343 2.450 . S
Sm317 O344 2.681 . S
Sm317 O345 2.464 . S
Sm317 O346 2.396 . S
C318 Sm316 2.846 . S
C318 C319 1.506 . S
C318 O336 1.261 . S
C318 O337 1.242 . S
C319 C318 1.506 . S
C319 C320 1.358 . S
C319 C324 1.382 . S
C320 C319 1.358 . S
C320 C321 1.385 . S
C320 H348 0.930 . S
C321 C320 1.385 . S
C321 C322 1.395 . S
C321 H349 0.929 . S
C322 C321 1.395 . S
C322 C323 1.335 . S
C323 C322 1.335 . S
C323 C324 1.398 . S
C323 H350 0.930 . S
C324 C319 1.382 . S
C324 C323 1.398 . S
C324 H351 0.929 . S
C325 O338 1.271 . S
C325 O339 1.251 . S
C326 O340 1.252 . S
C326 O341 1.272 . S
C327 Sm317 2.846 . S
C327 C328 1.506 . S
C327 O342 1.261 . S
C327 O343 1.242 . S
C328 C327 1.506 . S
C328 C329 1.358 . S
C328 C333 1.382 . S
C329 C328 1.358 . S
C329 C330 1.385 . S
C329 H352 0.930 . S
C330 C329 1.385 . S
C330 C331 1.395 . S
C330 H353 0.929 . S
C331 C330 1.395 . S
C331 C332 1.335 . S
C332 C331 1.335 . S
C332 C333 1.398 . S
C332 H354 0.930 . S
C333 C328 1.382 . S
C333 C332 1.398 . S
C333 H355 0.929 . S
C334 O344 1.271 . S
C334 O345 1.251 . S
C335 O346 1.252 . S
C335 O347 1.272 . S
O336 Sm316 2.543 . S
O336 C318 1.261 . S
O337 Sm316 2.450 . S
O337 C318 1.242 . S
O338 Sm316 2.681 . S
O338 Sm317 2.386 . S
O338 C325 1.271 . S
O339 Sm316 2.464 . S
O339 C325 1.251 . S
O340 Sm316 2.396 . S
O340 C326 1.252 . S
O341 Sm317 2.408 . S
O341 C326 1.272 . S
O342 Sm317 2.543 . S
O342 C327 1.261 . S
O343 Sm317 2.450 . S
O343 C327 1.242 . S
O344 Sm316 2.386 . S
O344 Sm317 2.681 . S
O344 C334 1.271 . S
O345 Sm317 2.464 . S
O345 C334 1.251 . S
O346 Sm317 2.396 . S
O346 C335 1.252 . S
O347 Sm316 2.408 . S
O347 C335 1.272 . S
H348 C320 0.930 . S
H349 C321 0.929 . S
H350 C323 0.930 . S
H351 C324 0.929 . S
H352 C329 0.930 . S
H353 C330 0.929 . S
H354 C332 0.930 . S
H355 C333 0.929 . S
Sm356 C358 2.846 . S
Sm356 O376 2.543 . S
Sm356 O377 2.450 . S
Sm356 O378 2.681 . S
Sm356 O379 2.464 . S
Sm356 O380 2.396 . S
Sm356 O384 2.386 . S
Sm356 O387 2.408 . S
Sm357 C367 2.846 . S
Sm357 O378 2.386 . S
Sm357 O381 2.408 . S
Sm357 O382 2.543 . S
Sm357 O383 2.450 . S
Sm357 O384 2.681 . S
Sm357 O385 2.464 . S
Sm357 O386 2.396 . S
C358 Sm356 2.846 . S
C358 C359 1.506 . S
C358 O376 1.261 . S
C358 O377 1.242 . S
C359 C358 1.506 . S
C359 C360 1.358 . S
C359 C364 1.382 . S
C360 C359 1.358 . S
C360 C361 1.385 . S
C360 H388 0.930 . S
C361 C360 1.385 . S
C361 C362 1.395 . S
C361 H389 0.929 . S
C362 C361 1.395 . S
C362 C363 1.335 . S
C363 C362 1.335 . S
C363 C364 1.398 . S
C363 H390 0.930 . S
C364 C359 1.382 . S
C364 C363 1.398 . S
C364 H391 0.929 . S
C365 O378 1.271 . S
C365 O379 1.251 . S
C366 O380 1.252 . S
C366 O381 1.272 . S
C367 Sm357 2.846 . S
C367 C368 1.506 . S
C367 O382 1.261 . S
C367 O383 1.242 . S
C368 C367 1.506 . S
C368 C369 1.358 . S
C368 C373 1.382 . S
C369 C368 1.358 . S
C369 C370 1.385 . S
C369 H392 0.930 . S
C370 C369 1.385 . S
C370 C371 1.395 . S
C370 H393 0.929 . S
C371 C370 1.395 . S
C371 C372 1.335 . S
C372 C371 1.335 . S
C372 C373 1.398 . S
C372 H394 0.930 . S
C373 C368 1.382 . S
C373 C372 1.398 . S
C373 H395 0.929 . S
C374 O384 1.271 . S
C374 O385 1.251 . S
C375 O386 1.252 . S
C375 O387 1.272 . S
O376 Sm356 2.543 . S
O376 C358 1.261 . S
O377 Sm356 2.450 . S
O377 C358 1.242 . S
O378 Sm356 2.681 . S
O378 Sm357 2.386 . S
O378 C365 1.271 . S
O379 Sm356 2.464 . S
O379 C365 1.251 . S
O380 Sm356 2.396 . S
O380 C366 1.252 . S
O381 Sm357 2.408 . S
O381 C366 1.272 . S
O382 Sm357 2.543 . S
O382 C367 1.261 . S
O383 Sm357 2.450 . S
O383 C367 1.242 . S
O384 Sm356 2.386 . S
O384 Sm357 2.681 . S
O384 C374 1.271 . S
O385 Sm357 2.464 . S
O385 C374 1.251 . S
O386 Sm357 2.396 . S
O386 C375 1.252 . S
O387 Sm356 2.408 . S
O387 C375 1.272 . S
H388 C360 0.930 . S
H389 C361 0.929 . S
H390 C363 0.930 . S
H391 C364 0.929 . S
H392 C369 0.930 . S
H393 C370 0.929 . S
H394 C372 0.930 . S
H395 C373 0.929 . S
Sm396 C398 2.846 . S
Sm396 O416 2.543 . S
Sm396 O417 2.450 . S
Sm396 O418 2.681 . S
Sm396 O419 2.464 . S
Sm396 O420 2.396 . S
Sm396 O424 2.386 . S
Sm396 O427 2.408 . S
Sm397 C407 2.846 . S
Sm397 O418 2.386 . S
Sm397 O421 2.408 . S
Sm397 O422 2.543 . S
Sm397 O423 2.450 . S
Sm397 O424 2.681 . S
Sm397 O425 2.464 . S
Sm397 O426 2.396 . S
C398 Sm396 2.846 . S
C398 C399 1.506 . S
C398 O416 1.261 . S
C398 O417 1.242 . S
C399 C398 1.506 . S
C399 C400 1.358 . S
C399 C404 1.382 . S
C400 C399 1.358 . S
C400 C401 1.385 . S
C400 H428 0.930 . S
C401 C400 1.385 . S
C401 C402 1.395 . S
C401 H429 0.929 . S
C402 C401 1.395 . S
C402 C403 1.335 . S
C403 C402 1.335 . S
C403 C404 1.398 . S
C403 H430 0.930 . S
C404 C399 1.382 . S
C404 C403 1.398 . S
C404 H431 0.929 . S
C405 O418 1.271 . S
C405 O419 1.251 . S
C406 O420 1.252 . S
C406 O421 1.272 . S
C407 Sm397 2.846 . S
C407 C408 1.506 . S
C407 O422 1.261 . S
C407 O423 1.242 . S
C408 C407 1.506 . S
C408 C409 1.358 . S
C408 C413 1.382 . S
C409 C408 1.358 . S
C409 C410 1.385 . S
C409 H432 0.930 . S
C410 C409 1.385 . S
C410 C411 1.395 . S
C410 H433 0.929 . S
C411 C410 1.395 . S
C411 C412 1.335 . S
C412 C411 1.335 . S
C412 C413 1.398 . S
C412 H434 0.930 . S
C413 C408 1.382 . S
C413 C412 1.398 . S
C413 H435 0.929 . S
C414 O424 1.271 . S
C414 O425 1.251 . S
C415 O426 1.252 . S
C415 O427 1.272 . S
O416 Sm396 2.543 . S
O416 C398 1.261 . S
O417 Sm396 2.450 . S
O417 C398 1.242 . S
O418 Sm396 2.681 . S
O418 Sm397 2.386 . S
O418 C405 1.271 . S
O419 Sm396 2.464 . S
O419 C405 1.251 . S
O420 Sm396 2.396 . S
O420 C406 1.252 . S
O421 Sm397 2.408 . S
O421 C406 1.272 . S
O422 Sm397 2.543 . S
O422 C407 1.261 . S
O423 Sm397 2.450 . S
O423 C407 1.242 . S
O424 Sm396 2.386 . S
O424 Sm397 2.681 . S
O424 C414 1.271 . S
O425 Sm397 2.464 . S
O425 C414 1.251 . S
O426 Sm397 2.396 . S
O426 C415 1.252 . S
O427 Sm396 2.408 . S
O427 C415 1.272 . S
H428 C400 0.930 . S
H429 C401 0.929 . S
H430 C403 0.930 . S
H431 C404 0.929 . S
H432 C409 0.930 . S
H433 C410 0.929 . S
H434 C412 0.930 . S
H435 C413 0.929 . S
Sm436 C438 2.846 . S
Sm436 O456 2.543 . S
Sm436 O457 2.450 . S
Sm436 O458 2.681 . S
Sm436 O459 2.464 . S
Sm436 O460 2.396 . S
Sm436 O464 2.386 . S
Sm436 O467 2.408 . S
Sm437 C447 2.846 . S
Sm437 O458 2.386 . S
Sm437 O461 2.408 . S
Sm437 O462 2.543 . S
Sm437 O463 2.450 . S
Sm437 O464 2.681 . S
Sm437 O465 2.464 . S
Sm437 O466 2.396 . S
C438 Sm436 2.846 . S
C438 C439 1.506 . S
C438 O456 1.261 . S
C438 O457 1.242 . S
C439 C438 1.506 . S
C439 C440 1.358 . S
C439 C444 1.382 . S
C440 C439 1.358 . S
C440 C441 1.385 . S
C440 H468 0.930 . S
C441 C440 1.385 . S
C441 C442 1.395 . S
C441 H469 0.929 . S
C442 C441 1.395 . S
C442 C443 1.335 . S
C443 C442 1.335 . S
C443 C444 1.398 . S
C443 H470 0.930 . S
C444 C439 1.382 . S
C444 C443 1.398 . S
C444 H471 0.929 . S
C445 O458 1.271 . S
C445 O459 1.251 . S
C446 O460 1.252 . S
C446 O461 1.272 . S
C447 Sm437 2.846 . S
C447 C448 1.506 . S
C447 O462 1.261 . S
C447 O463 1.242 . S
C448 C447 1.506 . S
C448 C449 1.358 . S
C448 C453 1.382 . S
C449 C448 1.358 . S
C449 C450 1.385 . S
C449 H472 0.930 . S
C450 C449 1.385 . S
C450 C451 1.395 . S
C450 H473 0.929 . S
C451 C450 1.395 . S
C451 C452 1.335 . S
C452 C451 1.335 . S
C452 C453 1.398 . S
C452 H474 0.930 . S
C453 C448 1.382 . S
C453 C452 1.398 . S
C453 H475 0.929 . S
C454 O464 1.271 . S
C454 O465 1.251 . S
C455 O466 1.252 . S
C455 O467 1.272 . S
O456 Sm436 2.543 . S
O456 C438 1.261 . S
O457 Sm436 2.450 . S
O457 C438 1.242 . S
O458 Sm436 2.681 . S
O458 Sm437 2.386 . S
O458 C445 1.271 . S
O459 Sm436 2.464 . S
O459 C445 1.251 . S
O460 Sm436 2.396 . S
O460 C446 1.252 . S
O461 Sm437 2.408 . S
O461 C446 1.272 . S
O462 Sm437 2.543 . S
O462 C447 1.261 . S
O463 Sm437 2.450 . S
O463 C447 1.242 . S
O464 Sm436 2.386 . S
O464 Sm437 2.681 . S
O464 C454 1.271 . S
O465 Sm437 2.464 . S
O465 C454 1.251 . S
O466 Sm437 2.396 . S
O466 C455 1.252 . S
O467 Sm436 2.408 . S
O467 C455 1.272 . S
H468 C440 0.930 . S
H469 C441 0.929 . S
H470 C443 0.930 . S
H471 C444 0.929 . S
H472 C449 0.930 . S
H473 C450 0.929 . S
H474 C452 0.930 . S
H475 C453 0.929 . S
Sm476 C478 2.846 . S
Sm476 O496 2.543 . S
Sm476 O497 2.450 . S
Sm476 O498 2.681 . S
Sm476 O499 2.464 . S
Sm476 O500 2.396 . S
Sm476 O504 2.386 . S
Sm476 O507 2.408 . S
Sm477 C487 2.846 . S
Sm477 O498 2.386 . S
Sm477 O501 2.408 . S
Sm477 O502 2.543 . S
Sm477 O503 2.450 . S
Sm477 O504 2.681 . S
Sm477 O505 2.464 . S
Sm477 O506 2.396 . S
C478 Sm476 2.846 . S
C478 C479 1.506 . S
C478 O496 1.261 . S
C478 O497 1.242 . S
C479 C478 1.506 . S
C479 C480 1.358 . S
C479 C484 1.382 . S
C480 C479 1.358 . S
C480 C481 1.385 . S
C480 H508 0.930 . S
C481 C480 1.385 . S
C481 C482 1.395 . S
C481 H509 0.929 . S
C482 C481 1.395 . S
C482 C483 1.335 . S
C483 C482 1.335 . S
C483 C484 1.398 . S
C483 H510 0.930 . S
C484 C479 1.382 . S
C484 C483 1.398 . S
C484 H511 0.929 . S
C485 O498 1.271 . S
C485 O499 1.251 . S
C486 O500 1.252 . S
C486 O501 1.272 . S
C487 Sm477 2.846 . S
C487 C488 1.506 . S
C487 O502 1.261 . S
C487 O503 1.242 . S
C488 C487 1.506 . S
C488 C489 1.358 . S
C488 C493 1.382 . S
C489 C488 1.358 . S
C489 C490 1.385 . S
C489 H512 0.930 . S
C490 C489 1.385 . S
C490 C491 1.395 . S
C490 H513 0.929 . S
C491 C490 1.395 . S
C491 C492 1.335 . S
C492 C491 1.335 . S
C492 C493 1.398 . S
C492 H514 0.930 . S
C493 C488 1.382 . S
C493 C492 1.398 . S
C493 H515 0.929 . S
C494 O504 1.271 . S
C494 O505 1.251 . S
C495 O506 1.252 . S
C495 O507 1.272 . S
O496 Sm476 2.543 . S
O496 C478 1.261 . S
O497 Sm476 2.450 . S
O497 C478 1.242 . S
O498 Sm476 2.681 . S
O498 Sm477 2.386 . S
O498 C485 1.271 . S
O499 Sm476 2.464 . S
O499 C485 1.251 . S
O500 Sm476 2.396 . S
O500 C486 1.252 . S
O501 Sm477 2.408 . S
O501 C486 1.272 . S
O502 Sm477 2.543 . S
O502 C487 1.261 . S
O503 Sm477 2.450 . S
O503 C487 1.242 . S
O504 Sm476 2.386 . S
O504 Sm477 2.681 . S
O504 C494 1.271 . S
O505 Sm477 2.464 . S
O505 C494 1.251 . S
O506 Sm477 2.396 . S
O506 C495 1.252 . S
O507 Sm476 2.408 . S
O507 C495 1.272 . S
H508 C480 0.930 . S
H509 C481 0.929 . S
H510 C483 0.930 . S
H511 C484 0.929 . S
H512 C489 0.930 . S
H513 C490 0.929 . S
H514 C492 0.930 . S
H515 C493 0.929 . S
Sm516 C518 2.846 . S
Sm516 O536 2.543 . S
Sm516 O537 2.450 . S
Sm516 O538 2.681 . S
Sm516 O539 2.464 . S
Sm516 O540 2.396 . S
Sm516 O544 2.386 . S
Sm516 O547 2.408 . S
Sm517 C527 2.846 . S
Sm517 O538 2.386 . S
Sm517 O541 2.408 . S
Sm517 O542 2.543 . S
Sm517 O543 2.450 . S
Sm517 O544 2.681 . S
Sm517 O545 2.464 . S
Sm517 O546 2.396 . S
C518 Sm516 2.846 . S
C518 C519 1.506 . S
C518 O536 1.261 . S
C518 O537 1.242 . S
C519 C518 1.506 . S
C519 C520 1.358 . S
C519 C524 1.382 . S
C520 C519 1.358 . S
C520 C521 1.385 . S
C520 H548 0.930 . S
C521 C520 1.385 . S
C521 C522 1.395 . S
C521 H549 0.929 . S
C522 C521 1.395 . S
C522 C523 1.335 . S
C523 C522 1.335 . S
C523 C524 1.398 . S
C523 H550 0.930 . S
C524 C519 1.382 . S
C524 C523 1.398 . S
C524 H551 0.929 . S
C525 O538 1.271 . S
C525 O539 1.251 . S
C526 O540 1.252 . S
C526 O541 1.272 . S
C527 Sm517 2.846 . S
C527 C528 1.506 . S
C527 O542 1.261 . S
C527 O543 1.242 . S
C528 C527 1.506 . S
C528 C529 1.358 . S
C528 C533 1.382 . S
C529 C528 1.358 . S
C529 C530 1.385 . S
C529 H552 0.930 . S
C530 C529 1.385 . S
C530 C531 1.395 . S
C530 H553 0.929 . S
C531 C530 1.395 . S
C531 C532 1.335 . S
C532 C531 1.335 . S
C532 C533 1.398 . S
C532 H554 0.930 . S
C533 C528 1.382 . S
C533 C532 1.398 . S
C533 H555 0.929 . S
C534 O544 1.271 . S
C534 O545 1.251 . S
C535 O546 1.252 . S
C535 O547 1.272 . S
O536 Sm516 2.543 . S
O536 C518 1.261 . S
O537 Sm516 2.450 . S
O537 C518 1.242 . S
O538 Sm516 2.681 . S
O538 Sm517 2.386 . S
O538 C525 1.271 . S
O539 Sm516 2.464 . S
O539 C525 1.251 . S
O540 Sm516 2.396 . S
O540 C526 1.252 . S
O541 Sm517 2.408 . S
O541 C526 1.272 . S
O542 Sm517 2.543 . S
O542 C527 1.261 . S
O543 Sm517 2.450 . S
O543 C527 1.242 . S
O544 Sm516 2.386 . S
O544 Sm517 2.681 . S
O544 C534 1.271 . S
O545 Sm517 2.464 . S
O545 C534 1.251 . S
O546 Sm517 2.396 . S
O546 C535 1.252 . S
O547 Sm516 2.408 . S
O547 C535 1.272 . S
H548 C520 0.930 . S
H549 C521 0.929 . S
H550 C523 0.930 . S
H551 C524 0.929 . S
H552 C529 0.930 . S
H553 C530 0.929 . S
H554 C532 0.930 . S
H555 C533 0.929 . S
Sm556 C558 2.846 . S
Sm556 O576 2.543 . S
Sm556 O577 2.450 . S
Sm556 O578 2.681 . S
Sm556 O579 2.464 . S
Sm556 O580 2.396 . S
Sm556 O584 2.386 . S
Sm556 O587 2.408 . S
Sm557 C567 2.846 . S
Sm557 O578 2.386 . S
Sm557 O581 2.408 . S
Sm557 O582 2.543 . S
Sm557 O583 2.450 . S
Sm557 O584 2.681 . S
Sm557 O585 2.464 . S
Sm557 O586 2.396 . S
C558 Sm556 2.846 . S
C558 C559 1.506 . S
C558 O576 1.261 . S
C558 O577 1.242 . S
C559 C558 1.506 . S
C559 C560 1.358 . S
C559 C564 1.382 . S
C560 C559 1.358 . S
C560 C561 1.385 . S
C560 H588 0.930 . S
C561 C560 1.385 . S
C561 C562 1.395 . S
C561 H589 0.929 . S
C562 C561 1.395 . S
C562 C563 1.335 . S
C563 C562 1.335 . S
C563 C564 1.398 . S
C563 H590 0.930 . S
C564 C559 1.382 . S
C564 C563 1.398 . S
C564 H591 0.929 . S
C565 O578 1.271 . S
C565 O579 1.251 . S
C566 O580 1.252 . S
C566 O581 1.272 . S
C567 Sm557 2.846 . S
C567 C568 1.506 . S
C567 O582 1.261 . S
C567 O583 1.242 . S
C568 C567 1.506 . S
C568 C569 1.358 . S
C568 C573 1.382 . S
C569 C568 1.358 . S
C569 C570 1.385 . S
C569 H592 0.930 . S
C570 C569 1.385 . S
C570 C571 1.395 . S
C570 H593 0.929 . S
C571 C570 1.395 . S
C571 C572 1.335 . S
C572 C571 1.335 . S
C572 C573 1.398 . S
C572 H594 0.930 . S
C573 C568 1.382 . S
C573 C572 1.398 . S
C573 H595 0.929 . S
C574 O584 1.271 . S
C574 O585 1.251 . S
C575 O586 1.252 . S
C575 O587 1.272 . S
O576 Sm556 2.543 . S
O576 C558 1.261 . S
O577 Sm556 2.450 . S
O577 C558 1.242 . S
O578 Sm556 2.681 . S
O578 Sm557 2.386 . S
O578 C565 1.271 . S
O579 Sm556 2.464 . S
O579 C565 1.251 . S
O580 Sm556 2.396 . S
O580 C566 1.252 . S
O581 Sm557 2.408 . S
O581 C566 1.272 . S
O582 Sm557 2.543 . S
O582 C567 1.261 . S
O583 Sm557 2.450 . S
O583 C567 1.242 . S
O584 Sm556 2.386 . S
O584 Sm557 2.681 . S
O584 C574 1.271 . S
O585 Sm557 2.464 . S
O585 C574 1.251 . S
O586 Sm557 2.396 . S
O586 C575 1.252 . S
O587 Sm556 2.408 . S
O587 C575 1.272 . S
H588 C560 0.930 . S
H589 C561 0.929 . S
H590 C563 0.930 . S
H591 C564 0.929 . S
H592 C569 0.930 . S
H593 C570 0.929 . S
H594 C572 0.930 . S
H595 C573 0.929 . S
H596 C604 0.929 . S
H597 C606 0.930 . S
H598 C608 0.930 . S
H599 C611 0.929 . S
H600 C614 0.930 . S
H601 C616 0.960 . S
H602 C616 0.960 . S
H603 C616 0.960 . S
C604 H596 0.929 . S
C604 C605 1.377 . S
C604 C606 1.384 . S
C605 C604 1.377 . S
C605 C611 1.390 . S
C606 H597 0.930 . S
C606 C604 1.384 . S
C606 C607 1.372 . S
C607 C606 1.372 . S
C607 C608 1.400 . S
C607 C612 1.490 . S
C608 H598 0.930 . S
C608 C607 1.400 . S
C608 C611 1.386 . S
H609 C625 0.930 . S
H610 C626 0.931 . S
C611 H599 0.929 . S
C611 C605 1.390 . S
C611 C608 1.386 . S
C612 C607 1.490 . S
C612 C614 1.395 . S
C612 C615 1.403 . S
H613 C619 0.930 . S
C614 H600 0.930 . S
C614 C612 1.395 . S
C614 C617 1.403 . S
C615 C612 1.403 . S
C615 C616 1.524 . S
C615 C619 1.400 . S
C616 H601 0.960 . S
C616 H602 0.960 . S
C616 H603 0.960 . S
C616 C615 1.524 . S
C617 C614 1.403 . S
C617 C618 1.392 . S
C617 C621 1.495 . S
C618 C617 1.392 . S
C618 C619 1.385 . S
C618 C620 1.478 . S
C619 H613 0.930 . S
C619 C615 1.400 . S
C619 C618 1.385 . S
C620 C618 1.478 . S
C620 C622 1.381 . S
C620 C626 1.383 . S
C621 C617 1.495 . S
C621 H627 0.959 . S
C621 H628 0.961 . S
C621 H629 0.960 . S
C622 C620 1.381 . S
C622 C623 1.394 . S
C622 H630 0.930 . S
C623 C622 1.394 . S
C623 C624 1.383 . S
C623 H631 0.929 . S
C624 C623 1.383 . S
C624 C625 1.377 . S
C625 H609 0.930 . S
C625 C624 1.377 . S
C625 C626 1.379 . S
C626 H610 0.931 . S
C626 C620 1.383 . S
C626 C625 1.379 . S
H627 C621 0.959 . S
H628 C621 0.961 . S
H629 C621 0.960 . S
H630 C622 0.930 . S
H631 C623 0.929 . S
H632 C640 0.929 . S
H633 C642 0.930 . S
H634 C644 0.930 . S
H635 C647 0.929 . S
H636 C650 0.930 . S
H637 C652 0.960 . S
H638 C652 0.960 . S
H639 C652 0.960 . S
C640 H632 0.929 . S
C640 C641 1.377 . S
C640 C642 1.384 . S
C641 C640 1.377 . S
C641 C647 1.390 . S
C642 H633 0.930 . S
C642 C640 1.384 . S
C642 C643 1.372 . S
C643 C642 1.372 . S
C643 C644 1.400 . S
C643 C648 1.490 . S
C644 H634 0.930 . S
C644 C643 1.400 . S
C644 C647 1.386 . S
H645 C661 0.930 . S
H646 C662 0.931 . S
C647 H635 0.929 . S
C647 C641 1.390 . S
C647 C644 1.386 . S
C648 C643 1.490 . S
C648 C650 1.395 . S
C648 C651 1.403 . S
H649 C655 0.930 . S
C650 H636 0.930 . S
C650 C648 1.395 . S
C650 C653 1.403 . S
C651 C648 1.403 . S
C651 C652 1.524 . S
C651 C655 1.400 . S
C652 H637 0.960 . S
C652 H638 0.960 . S
C652 H639 0.960 . S
C652 C651 1.524 . S
C653 C650 1.403 . S
C653 C654 1.392 . S
C653 C657 1.495 . S
C654 C653 1.392 . S
C654 C655 1.385 . S
C654 C656 1.478 . S
C655 H649 0.930 . S
C655 C651 1.400 . S
C655 C654 1.385 . S
C656 C654 1.478 . S
C656 C658 1.381 . S
C656 C662 1.383 . S
C657 C653 1.495 . S
C657 H663 0.959 . S
C657 H664 0.961 . S
C657 H665 0.960 . S
C658 C656 1.381 . S
C658 C659 1.394 . S
C658 H666 0.930 . S
C659 C658 1.394 . S
C659 C660 1.383 . S
C659 H667 0.929 . S
C660 C659 1.383 . S
C660 C661 1.377 . S
C661 H645 0.930 . S
C661 C660 1.377 . S
C661 C662 1.379 . S
C662 H646 0.931 . S
C662 C656 1.383 . S
C662 C661 1.379 . S
H663 C657 0.959 . S
H664 C657 0.961 . S
H665 C657 0.960 . S
H666 C658 0.930 . S
H667 C659 0.929 . S
H668 C676 0.929 . S
H669 C678 0.930 . S
H670 C680 0.930 . S
H671 C683 0.929 . S
H672 C686 0.930 . S
H673 C688 0.960 . S
H674 C688 0.960 . S
H675 C688 0.960 . S
C676 H668 0.929 . S
C676 C677 1.377 . S
C676 C678 1.384 . S
C677 C676 1.377 . S
C677 C683 1.390 . S
C678 H669 0.930 . S
C678 C676 1.384 . S
C678 C679 1.372 . S
C679 C678 1.372 . S
C679 C680 1.400 . S
C679 C684 1.490 . S
C680 H670 0.930 . S
C680 C679 1.400 . S
C680 C683 1.386 . S
H681 C697 0.930 . S
H682 C698 0.931 . S
C683 H671 0.929 . S
C683 C677 1.390 . S
C683 C680 1.386 . S
C684 C679 1.490 . S
C684 C686 1.395 . S
C684 C687 1.403 . S
H685 C691 0.930 . S
C686 H672 0.930 . S
C686 C684 1.395 . S
C686 C689 1.403 . S
C687 C684 1.403 . S
C687 C688 1.524 . S
C687 C691 1.400 . S
C688 H673 0.960 . S
C688 H674 0.960 . S
C688 H675 0.960 . S
C688 C687 1.524 . S
C689 C686 1.403 . S
C689 C690 1.392 . S
C689 C693 1.495 . S
C690 C689 1.392 . S
C690 C691 1.385 . S
C690 C692 1.478 . S
C691 H685 0.930 . S
C691 C687 1.400 . S
C691 C690 1.385 . S
C692 C690 1.478 . S
C692 C694 1.381 . S
C692 C698 1.383 . S
C693 C689 1.495 . S
C693 H699 0.959 . S
C693 H700 0.961 . S
C693 H701 0.960 . S
C694 C692 1.381 . S
C694 C695 1.394 . S
C694 H702 0.930 . S
C695 C694 1.394 . S
C695 C696 1.383 . S
C695 H703 0.929 . S
C696 C695 1.383 . S
C696 C697 1.377 . S
C697 H681 0.930 . S
C697 C696 1.377 . S
C697 C698 1.379 . S
C698 H682 0.931 . S
C698 C692 1.383 . S
C698 C697 1.379 . S
H699 C693 0.959 . S
H700 C693 0.961 . S
H701 C693 0.960 . S
H702 C694 0.930 . S
H703 C695 0.929 . S
H704 C712 0.929 . S
H705 C714 0.930 . S
H706 C716 0.930 . S
H707 C719 0.929 . S
H708 C722 0.930 . S
H709 C724 0.960 . S
H710 C724 0.960 . S
H711 C724 0.960 . S
C712 H704 0.929 . S
C712 C713 1.377 . S
C712 C714 1.384 . S
C713 C712 1.377 . S
C713 C719 1.390 . S
C714 H705 0.930 . S
C714 C712 1.384 . S
C714 C715 1.372 . S
C715 C714 1.372 . S
C715 C716 1.400 . S
C715 C720 1.490 . S
C716 H706 0.930 . S
C716 C715 1.400 . S
C716 C719 1.386 . S
H717 C733 0.930 . S
H718 C734 0.931 . S
C719 H707 0.929 . S
C719 C713 1.390 . S
C719 C716 1.386 . S
C720 C715 1.490 . S
C720 C722 1.395 . S
C720 C723 1.403 . S
H721 C727 0.930 . S
C722 H708 0.930 . S
C722 C720 1.395 . S
C722 C725 1.403 . S
C723 C720 1.403 . S
C723 C724 1.524 . S
C723 C727 1.400 . S
C724 H709 0.960 . S
C724 H710 0.960 . S
C724 H711 0.960 . S
C724 C723 1.524 . S
C725 C722 1.403 . S
C725 C726 1.392 . S
C725 C729 1.495 . S
C726 C725 1.392 . S
C726 C727 1.385 . S
C726 C728 1.478 . S
C727 H721 0.930 . S
C727 C723 1.400 . S
C727 C726 1.385 . S
C728 C726 1.478 . S
C728 C730 1.381 . S
C728 C734 1.383 . S
C729 C725 1.495 . S
C729 H735 0.959 . S
C729 H736 0.961 . S
C729 H737 0.960 . S
C730 C728 1.381 . S
C730 C731 1.394 . S
C730 H738 0.930 . S
C731 C730 1.394 . S
C731 C732 1.383 . S
C731 H739 0.929 . S
C732 C731 1.383 . S
C732 C733 1.377 . S
C733 H717 0.930 . S
C733 C732 1.377 . S
C733 C734 1.379 . S
C734 H718 0.931 . S
C734 C728 1.383 . S
C734 C733 1.379 . S
H735 C729 0.959 . S
H736 C729 0.961 . S
H737 C729 0.960 . S
H738 C730 0.930 . S
H739 C731 0.929 . S
H740 C748 0.929 . S
H741 C750 0.930 . S
H742 C752 0.930 . S
H743 C755 0.929 . S
H744 C758 0.930 . S
H745 C760 0.960 . S
H746 C760 0.960 . S
H747 C760 0.960 . S
C748 H740 0.929 . S
C748 C749 1.377 . S
C748 C750 1.384 . S
C749 C748 1.377 . S
C749 C755 1.390 . S
C750 H741 0.930 . S
C750 C748 1.384 . S
C750 C751 1.372 . S
C751 C750 1.372 . S
C751 C752 1.400 . S
C751 C756 1.490 . S
C752 H742 0.930 . S
C752 C751 1.400 . S
C752 C755 1.386 . S
H753 C769 0.930 . S
H754 C770 0.931 . S
C755 H743 0.929 . S
C755 C749 1.390 . S
C755 C752 1.386 . S
C756 C751 1.490 . S
C756 C758 1.395 . S
C756 C759 1.403 . S
H757 C763 0.930 . S
C758 H744 0.930 . S
C758 C756 1.395 . S
C758 C761 1.403 . S
C759 C756 1.403 . S
C759 C760 1.524 . S
C759 C763 1.400 . S
C760 H745 0.960 . S
C760 H746 0.960 . S
C760 H747 0.960 . S
C760 C759 1.524 . S
C761 C758 1.403 . S
C761 C762 1.392 . S
C761 C765 1.495 . S
C762 C761 1.392 . S
C762 C763 1.385 . S
C762 C764 1.478 . S
C763 H757 0.930 . S
C763 C759 1.400 . S
C763 C762 1.385 . S
C764 C762 1.478 . S
C764 C766 1.381 . S
C764 C770 1.383 . S
C765 C761 1.495 . S
C765 H771 0.959 . S
C765 H772 0.961 . S
C765 H773 0.960 . S
C766 C764 1.381 . S
C766 C767 1.394 . S
C766 H774 0.930 . S
C767 C766 1.394 . S
C767 C768 1.383 . S
C767 H775 0.929 . S
C768 C767 1.383 . S
C768 C769 1.377 . S
C769 H753 0.930 . S
C769 C768 1.377 . S
C769 C770 1.379 . S
C770 H754 0.931 . S
C770 C764 1.383 . S
C770 C769 1.379 . S
H771 C765 0.959 . S
H772 C765 0.961 . S
H773 C765 0.960 . S
H774 C766 0.930 . S
H775 C767 0.929 . S
H776 C784 0.929 . S
H777 C786 0.930 . S
H778 C788 0.930 . S
H779 C791 0.929 . S
H780 C794 0.930 . S
H781 C796 0.960 . S
H782 C796 0.960 . S
H783 C796 0.960 . S
C784 H776 0.929 . S
C784 C785 1.377 . S
C784 C786 1.384 . S
C785 C784 1.377 . S
C785 C791 1.390 . S
C786 H777 0.930 . S
C786 C784 1.384 . S
C786 C787 1.372 . S
C787 C786 1.372 . S
C787 C788 1.400 . S
C787 C792 1.490 . S
C788 H778 0.930 . S
C788 C787 1.400 . S
C788 C791 1.386 . S
H789 C805 0.930 . S
H790 C806 0.931 . S
C791 H779 0.929 . S
C791 C785 1.390 . S
C791 C788 1.386 . S
C792 C787 1.490 . S
C792 C794 1.395 . S
C792 C795 1.403 . S
H793 C799 0.930 . S
C794 H780 0.930 . S
C794 C792 1.395 . S
C794 C797 1.403 . S
C795 C792 1.403 . S
C795 C796 1.524 . S
C795 C799 1.400 . S
C796 H781 0.960 . S
C796 H782 0.960 . S
C796 H783 0.960 . S
C796 C795 1.524 . S
C797 C794 1.403 . S
C797 C798 1.392 . S
C797 C801 1.495 . S
C798 C797 1.392 . S
C798 C799 1.385 . S
C798 C800 1.478 . S
C799 H793 0.930 . S
C799 C795 1.400 . S
C799 C798 1.385 . S
C800 C798 1.478 . S
C800 C802 1.381 . S
C800 C806 1.383 . S
C801 C797 1.495 . S
C801 H807 0.959 . S
C801 H808 0.961 . S
C801 H809 0.960 . S
C802 C800 1.381 . S
C802 C803 1.394 . S
C802 H810 0.930 . S
C803 C802 1.394 . S
C803 C804 1.383 . S
C803 H811 0.929 . S
C804 C803 1.383 . S
C804 C805 1.377 . S
C805 H789 0.930 . S
C805 C804 1.377 . S
C805 C806 1.379 . S
C806 H790 0.931 . S
C806 C800 1.383 . S
C806 C805 1.379 . S
H807 C801 0.959 . S
H808 C801 0.961 . S
H809 C801 0.960 . S
H810 C802 0.930 . S
H811 C803 0.929 . S
H812 C820 0.929 . S
H813 C822 0.930 . S
H814 C824 0.930 . S
H815 C827 0.929 . S
H816 C830 0.930 . S
H817 C832 0.960 . S
H818 C832 0.960 . S
H819 C832 0.960 . S
C820 H812 0.929 . S
C820 C821 1.377 . S
C820 C822 1.384 . S
C821 C820 1.377 . S
C821 C827 1.390 . S
C822 H813 0.930 . S
C822 C820 1.384 . S
C822 C823 1.372 . S
C823 C822 1.372 . S
C823 C824 1.400 . S
C823 C828 1.490 . S
C824 H814 0.930 . S
C824 C823 1.400 . S
C824 C827 1.386 . S
H825 C841 0.930 . S
H826 C842 0.931 . S
C827 H815 0.929 . S
C827 C821 1.390 . S
C827 C824 1.386 . S
C828 C823 1.490 . S
C828 C830 1.395 . S
C828 C831 1.403 . S
H829 C835 0.930 . S
C830 H816 0.930 . S
C830 C828 1.395 . S
C830 C833 1.403 . S
C831 C828 1.403 . S
C831 C832 1.524 . S
C831 C835 1.400 . S
C832 H817 0.960 . S
C832 H818 0.960 . S
C832 H819 0.960 . S
C832 C831 1.524 . S
C833 C830 1.403 . S
C833 C834 1.392 . S
C833 C837 1.495 . S
C834 C833 1.392 . S
C834 C835 1.385 . S
C834 C836 1.478 . S
C835 H829 0.930 . S
C835 C831 1.400 . S
C835 C834 1.385 . S
C836 C834 1.478 . S
C836 C838 1.381 . S
C836 C842 1.383 . S
C837 C833 1.495 . S
C837 H843 0.959 . S
C837 H844 0.961 . S
C837 H845 0.960 . S
C838 C836 1.381 . S
C838 C839 1.394 . S
C838 H846 0.930 . S
C839 C838 1.394 . S
C839 C840 1.383 . S
C839 H847 0.929 . S
C840 C839 1.383 . S
C840 C841 1.377 . S
C841 H825 0.930 . S
C841 C840 1.377 . S
C841 C842 1.379 . S
C842 H826 0.931 . S
C842 C836 1.383 . S
C842 C841 1.379 . S
H843 C837 0.959 . S
H844 C837 0.961 . S
H845 C837 0.960 . S
H846 C838 0.930 . S
H847 C839 0.929 . S
H848 C856 0.929 . S
H849 C858 0.930 . S
H850 C860 0.930 . S
H851 C863 0.929 . S
H852 C866 0.930 . S
H853 C868 0.960 . S
H854 C868 0.960 . S
H855 C868 0.960 . S
C856 H848 0.929 . S
C856 C857 1.377 . S
C856 C858 1.384 . S
C857 C856 1.377 . S
C857 C863 1.390 . S
C858 H849 0.930 . S
C858 C856 1.384 . S
C858 C859 1.372 . S
C859 C858 1.372 . S
C859 C860 1.400 . S
C859 C864 1.490 . S
C860 H850 0.930 . S
C860 C859 1.400 . S
C860 C863 1.386 . S
H861 C877 0.930 . S
H862 C878 0.931 . S
C863 H851 0.929 . S
C863 C857 1.390 . S
C863 C860 1.386 . S
C864 C859 1.490 . S
C864 C866 1.395 . S
C864 C867 1.403 . S
H865 C871 0.930 . S
C866 H852 0.930 . S
C866 C864 1.395 . S
C866 C869 1.403 . S
C867 C864 1.403 . S
C867 C868 1.524 . S
C867 C871 1.400 . S
C868 H853 0.960 . S
C868 H854 0.960 . S
C868 H855 0.960 . S
C868 C867 1.524 . S
C869 C866 1.403 . S
C869 C870 1.392 . S
C869 C873 1.495 . S
C870 C869 1.392 . S
C870 C871 1.385 . S
C870 C872 1.478 . S
C871 H865 0.930 . S
C871 C867 1.400 . S
C871 C870 1.385 . S
C872 C870 1.478 . S
C872 C874 1.381 . S
C872 C878 1.383 . S
C873 C869 1.495 . S
C873 H879 0.959 . S
C873 H880 0.961 . S
C873 H881 0.960 . S
C874 C872 1.381 . S
C874 C875 1.394 . S
C874 H882 0.930 . S
C875 C874 1.394 . S
C875 C876 1.383 . S
C875 H883 0.929 . S
C876 C875 1.383 . S
C876 C877 1.377 . S
C877 H861 0.930 . S
C877 C876 1.377 . S
C877 C878 1.379 . S
C878 H862 0.931 . S
C878 C872 1.383 . S
C878 C877 1.379 . S
H879 C873 0.959 . S
H880 C873 0.961 . S
H881 C873 0.960 . S
H882 C874 0.930 . S
H883 C875 0.929 . S
H884 C892 0.929 . S
H885 C894 0.930 . S
H886 C896 0.930 . S
H887 C899 0.929 . S
H888 C902 0.930 . S
H889 C904 0.960 . S
H890 C904 0.960 . S
H891 C904 0.960 . S
C892 H884 0.929 . S
C892 C893 1.377 . S
C892 C894 1.384 . S
C893 C892 1.377 . S
C893 C899 1.390 . S
C894 H885 0.930 . S
C894 C892 1.384 . S
C894 C895 1.372 . S
C895 C894 1.372 . S
C895 C896 1.400 . S
C895 C900 1.490 . S
C896 H886 0.930 . S
C896 C895 1.400 . S
C896 C899 1.386 . S
H897 C913 0.930 . S
H898 C914 0.931 . S
C899 H887 0.929 . S
C899 C893 1.390 . S
C899 C896 1.386 . S
C900 C895 1.490 . S
C900 C902 1.395 . S
C900 C903 1.403 . S
H901 C907 0.930 . S
C902 H888 0.930 . S
C902 C900 1.395 . S
C902 C905 1.403 . S
C903 C900 1.403 . S
C903 C904 1.524 . S
C903 C907 1.400 . S
C904 H889 0.960 . S
C904 H890 0.960 . S
C904 H891 0.960 . S
C904 C903 1.524 . S
C905 C902 1.403 . S
C905 C906 1.392 . S
C905 C909 1.495 . S
C906 C905 1.392 . S
C906 C907 1.385 . S
C906 C908 1.478 . S
C907 H901 0.930 . S
C907 C903 1.400 . S
C907 C906 1.385 . S
C908 C906 1.478 . S
C908 C910 1.381 . S
C908 C914 1.383 . S
C909 C905 1.495 . S
C909 H915 0.959 . S
C909 H916 0.961 . S
C909 H917 0.960 . S
C910 C908 1.381 . S
C910 C911 1.394 . S
C910 H918 0.930 . S
C911 C910 1.394 . S
C911 C912 1.383 . S
C911 H919 0.929 . S
C912 C911 1.383 . S
C912 C913 1.377 . S
C913 H897 0.930 . S
C913 C912 1.377 . S
C913 C914 1.379 . S
C914 H898 0.931 . S
C914 C908 1.383 . S
C914 C913 1.379 . S
H915 C909 0.959 . S
H916 C909 0.961 . S
H917 C909 0.960 . S
H918 C910 0.930 . S
H919 C911 0.929 . S
H920 C928 0.929 . S
H921 C930 0.930 . S
H922 C932 0.930 . S
H923 C935 0.929 . S
H924 C938 0.930 . S
H925 C940 0.960 . S
H926 C940 0.960 . S
H927 C940 0.960 . S
C928 H920 0.929 . S
C928 C929 1.377 . S
C928 C930 1.384 . S
C929 C928 1.377 . S
C929 C935 1.390 . S
C930 H921 0.930 . S
C930 C928 1.384 . S
C930 C931 1.372 . S
C931 C930 1.372 . S
C931 C932 1.400 . S
C931 C936 1.490 . S
C932 H922 0.930 . S
C932 C931 1.400 . S
C932 C935 1.386 . S
H933 C949 0.930 . S
H934 C950 0.931 . S
C935 H923 0.929 . S
C935 C929 1.390 . S
C935 C932 1.386 . S
C936 C931 1.490 . S
C936 C938 1.395 . S
C936 C939 1.403 . S
H937 C943 0.930 . S
C938 H924 0.930 . S
C938 C936 1.395 . S
C938 C941 1.403 . S
C939 C936 1.403 . S
C939 C940 1.524 . S
C939 C943 1.400 . S
C940 H925 0.960 . S
C940 H926 0.960 . S
C940 H927 0.960 . S
C940 C939 1.524 . S
C941 C938 1.403 . S
C941 C942 1.392 . S
C941 C945 1.495 . S
C942 C941 1.392 . S
C942 C943 1.385 . S
C942 C944 1.478 . S
C943 H937 0.930 . S
C943 C939 1.400 . S
C943 C942 1.385 . S
C944 C942 1.478 . S
C944 C946 1.381 . S
C944 C950 1.383 . S
C945 C941 1.495 . S
C945 H951 0.959 . S
C945 H952 0.961 . S
C945 H953 0.960 . S
C946 C944 1.381 . S
C946 C947 1.394 . S
C946 H954 0.930 . S
C947 C946 1.394 . S
C947 C948 1.383 . S
C947 H955 0.929 . S
C948 C947 1.383 . S
C948 C949 1.377 . S
C949 H933 0.930 . S
C949 C948 1.377 . S
C949 C950 1.379 . S
C950 H934 0.931 . S
C950 C944 1.383 . S
C950 C949 1.379 . S
H951 C945 0.959 . S
H952 C945 0.961 . S
H953 C945 0.960 . S
H954 C946 0.930 . S
H955 C947 0.929 . S
H956 C964 0.929 . S
H957 C966 0.930 . S
H958 C968 0.930 . S
H959 C971 0.929 . S
H960 C974 0.930 . S
H961 C976 0.960 . S
H962 C976 0.960 . S
H963 C976 0.960 . S
C964 H956 0.929 . S
C964 C965 1.377 . S
C964 C966 1.384 . S
C965 C964 1.377 . S
C965 C971 1.390 . S
C966 H957 0.930 . S
C966 C964 1.384 . S
C966 C967 1.372 . S
C967 C966 1.372 . S
C967 C968 1.400 . S
C967 C972 1.490 . S
C968 H958 0.930 . S
C968 C967 1.400 . S
C968 C971 1.386 . S
H969 C985 0.930 . S
H970 C986 0.931 . S
C971 H959 0.929 . S
C971 C965 1.390 . S
C971 C968 1.386 . S
C972 C967 1.490 . S
C972 C974 1.395 . S
C972 C975 1.403 . S
H973 C979 0.930 . S
C974 H960 0.930 . S
C974 C972 1.395 . S
C974 C977 1.403 . S
C975 C972 1.403 . S
C975 C976 1.524 . S
C975 C979 1.400 . S
C976 H961 0.960 . S
C976 H962 0.960 . S
C976 H963 0.960 . S
C976 C975 1.524 . S
C977 C974 1.403 . S
C977 C978 1.392 . S
C977 C981 1.495 . S
C978 C977 1.392 . S
C978 C979 1.385 . S
C978 C980 1.478 . S
C979 H973 0.930 . S
C979 C975 1.400 . S
C979 C978 1.385 . S
C980 C978 1.478 . S
C980 C982 1.381 . S
C980 C986 1.383 . S
C981 C977 1.495 . S
C981 H987 0.959 . S
C981 H988 0.961 . S
C981 H989 0.960 . S
C982 C980 1.381 . S
C982 C983 1.394 . S
C982 H990 0.930 . S
C983 C982 1.394 . S
C983 C984 1.383 . S
C983 H991 0.929 . S
C984 C983 1.383 . S
C984 C985 1.377 . S
C985 H969 0.930 . S
C985 C984 1.377 . S
C985 C986 1.379 . S
C986 H970 0.931 . S
C986 C980 1.383 . S
C986 C985 1.379 . S
H987 C981 0.959 . S
H988 C981 0.961 . S
H989 C981 0.960 . S
H990 C982 0.930 . S
H991 C983 0.929 . S
H992 C1000 0.929 . S
H993 C1002 0.930 . S
H994 C1004 0.930 . S
H995 C1007 0.929 . S
H996 C1010 0.930 . S
H997 C1012 0.960 . S
H998 C1012 0.960 . S
H999 C1012 0.960 . S
C1000 H992 0.929 . S
C1000 C1001 1.377 . S
C1000 C1002 1.384 . S
C1001 C1000 1.377 . S
C1001 C1007 1.390 . S
C1002 H993 0.930 . S
C1002 C1000 1.384 . S
C1002 C1003 1.372 . S
C1003 C1002 1.372 . S
C1003 C1004 1.400 . S
C1003 C1008 1.490 . S
C1004 H994 0.930 . S
C1004 C1003 1.400 . S
C1004 C1007 1.386 . S
H1005 C1021 0.930 . S
H1006 C1022 0.931 . S
C1007 H995 0.929 . S
C1007 C1001 1.390 . S
C1007 C1004 1.386 . S
C1008 C1003 1.490 . S
C1008 C1010 1.395 . S
C1008 C1011 1.403 . S
H1009 C1015 0.930 . S
C1010 H996 0.930 . S
C1010 C1008 1.395 . S
C1010 C1013 1.403 . S
C1011 C1008 1.403 . S
C1011 C1012 1.524 . S
C1011 C1015 1.400 . S
C1012 H997 0.960 . S
C1012 H998 0.960 . S
C1012 H999 0.960 . S
C1012 C1011 1.524 . S
C1013 C1010 1.403 . S
C1013 C1014 1.392 . S
C1013 C1017 1.495 . S
C1014 C1013 1.392 . S
C1014 C1015 1.385 . S
C1014 C1016 1.478 . S
C1015 H1009 0.930 . S
C1015 C1011 1.400 . S
C1015 C1014 1.385 . S
C1016 C1014 1.478 . S
C1016 C1018 1.381 . S
C1016 C1022 1.383 . S
C1017 C1013 1.495 . S
C1017 H1023 0.959 . S
C1017 H1024 0.961 . S
C1017 H1025 0.960 . S
C1018 C1016 1.381 . S
C1018 C1019 1.394 . S
C1018 H1026 0.930 . S
C1019 C1018 1.394 . S
C1019 C1020 1.383 . S
C1019 H1027 0.929 . S
C1020 C1019 1.383 . S
C1020 C1021 1.377 . S
C1021 H1005 0.930 . S
C1021 C1020 1.377 . S
C1021 C1022 1.379 . S
C1022 H1006 0.931 . S
C1022 C1016 1.383 . S
C1022 C1021 1.379 . S
H1023 C1017 0.959 . S
H1024 C1017 0.961 . S
H1025 C1017 0.960 . S
H1026 C1018 0.930 . S
H1027 C1019 0.929 . S
H1028 C1036 0.929 . S
H1029 C1038 0.930 . S
H1030 C1040 0.930 . S
H1031 C1043 0.929 . S
H1032 C1046 0.960 . S
H1033 C1048 0.960 . S
H1034 C1048 0.960 . S
H1035 C1048 0.960 . S
C1036 H1028 0.929 . S
C1036 C1037 1.377 . S
C1036 C1038 1.384 1_554 S
C1037 C1036 1.377 . S
C1037 C1043 1.390 . S
C1038 H1029 0.930 . S
C1038 C1036 1.384 1_556 S
C1038 C1039 1.372 . S
C1039 C1038 1.372 . S
C1039 C1040 1.400 1_556 S
C1039 C1044 1.490 . S
C1040 H1030 0.930 . S
C1040 C1039 1.400 1_554 S
C1040 C1043 1.386 . S
H1041 C1057 0.930 . S
H1042 C1058 0.931 . S
C1043 H1031 0.929 . S
C1043 C1037 1.390 . S
C1043 C1040 1.386 . S
C1044 C1039 1.490 . S
C1044 C1046 1.395 . S
C1044 C1047 1.403 . S
H1045 C1051 0.930 . S
C1046 H1032 0.960 . S
C1046 C1044 1.395 . S
C1046 C1049 1.403 . S
C1047 C1044 1.403 . S
C1047 C1048 1.524 . S
C1047 C1051 1.400 . S
C1048 H1033 0.960 . S
C1048 H1034 0.960 . S
C1048 H1035 0.960 . S
C1048 C1047 1.524 . S
C1049 C1046 1.403 . S
C1049 C1050 1.392 . S
C1049 C1053 1.495 . S
C1050 C1049 1.392 . S
C1050 C1051 1.385 . S
C1050 C1052 1.478 . S
C1051 H1045 0.930 . S
C1051 C1047 1.400 . S
C1051 C1050 1.385 . S
C1052 C1050 1.478 . S
C1052 C1054 1.381 . S
C1052 C1058 1.383 . S
C1053 C1049 1.495 . S
C1053 H1059 0.959 . S
C1053 H1060 0.961 . S
C1053 H1061 0.960 . S
C1054 C1052 1.381 . S
C1054 C1055 1.394 . S
C1054 H1062 0.930 . S
C1055 C1054 1.394 . S
C1055 C1056 1.383 . S
C1055 H1063 0.929 . S
C1056 C1055 1.383 . S
C1056 C1057 1.377 . S
C1057 H1041 0.930 . S
C1057 C1056 1.377 . S
C1057 C1058 1.379 . S
C1058 H1042 0.931 . S
C1058 C1052 1.383 . S
C1058 C1057 1.379 . S
H1059 C1053 0.959 . S
H1060 C1053 0.961 . S
H1061 C1053 0.960 . S
H1062 C1054 0.930 . S
H1063 C1055 0.929 . S
H1064 C1072 0.929 . S
H1065 C1074 0.930 . S
H1066 C1076 0.930 . S
H1067 C1079 0.929 . S
H1068 C1082 0.930 . S
H1069 C1084 0.960 . S
H1070 C1084 0.960 . S
H1071 C1084 0.960 . S
C1072 H1064 0.929 . S
C1072 C1073 1.377 . S
C1072 C1074 1.384 . S
C1073 C1072 1.377 . S
C1073 C1079 1.390 . S
C1074 H1065 0.930 . S
C1074 C1072 1.384 . S
C1074 C1075 1.372 . S
C1075 C1074 1.372 . S
C1075 C1076 1.400 . S
C1075 C1080 1.490 . S
C1076 H1066 0.930 . S
C1076 C1075 1.400 . S
C1076 C1079 1.386 . S
H1077 C1093 0.930 . S
H1078 C1094 0.931 . S
C1079 H1067 0.929 . S
C1079 C1073 1.390 . S
C1079 C1076 1.386 . S
C1080 C1075 1.490 . S
C1080 C1082 1.395 . S
C1080 C1083 1.403 . S
H1081 C1087 0.930 . S
C1082 H1068 0.930 . S
C1082 C1080 1.395 . S
C1082 C1085 1.403 . S
C1083 C1080 1.403 . S
C1083 C1084 1.524 . S
C1083 C1087 1.400 . S
C1084 H1069 0.960 . S
C1084 H1070 0.960 . S
C1084 H1071 0.960 . S
C1084 C1083 1.524 . S
C1085 C1082 1.403 . S
C1085 C1086 1.392 . S
C1085 C1089 1.495 . S
C1086 C1085 1.392 . S
C1086 C1087 1.385 . S
C1086 C1088 1.478 . S
C1087 H1081 0.930 . S
C1087 C1083 1.400 . S
C1087 C1086 1.385 . S
C1088 C1086 1.478 . S
C1088 C1090 1.381 . S
C1088 C1094 1.383 . S
C1089 C1085 1.495 . S
C1089 H1095 0.959 . S
C1089 H1096 0.961 . S
C1089 H1097 0.960 . S
C1090 C1088 1.381 . S
C1090 C1091 1.394 . S
C1090 H1098 0.930 . S
C1091 C1090 1.394 . S
C1091 C1092 1.383 . S
C1091 H1099 0.929 . S
C1092 C1091 1.383 . S
C1092 C1093 1.377 . S
C1093 H1077 0.930 . S
C1093 C1092 1.377 . S
C1093 C1094 1.379 . S
C1094 H1078 0.931 . S
C1094 C1088 1.383 . S
C1094 C1093 1.379 . S
H1095 C1089 0.959 . S
H1096 C1089 0.961 . S
H1097 C1089 0.960 . S
H1098 C1090 0.930 . S
H1099 C1091 0.929 . S
H1100 C1108 0.929 . S
H1101 C1110 0.930 . S
H1102 C1112 0.930 . S
H1103 C1115 0.929 . S
H1104 C1118 0.930 . S
H1105 C1120 0.960 . S
H1106 C1120 0.960 . S
H1107 C1120 0.960 . S
C1108 H1100 0.929 . S
C1108 C1109 1.377 . S
C1108 C1110 1.384 . S
C1109 C1108 1.377 . S
C1109 C1115 1.390 . S
C1110 H1101 0.930 . S
C1110 C1108 1.384 . S
C1110 C1111 1.372 . S
C1111 C1110 1.372 . S
C1111 C1112 1.400 . S
C1111 C1116 1.490 . S
C1112 H1102 0.930 . S
C1112 C1111 1.400 . S
C1112 C1115 1.386 . S
H1113 C1129 0.930 . S
H1114 C1130 0.931 . S
C1115 H1103 0.929 . S
C1115 C1109 1.390 . S
C1115 C1112 1.386 . S
C1116 C1111 1.490 . S
C1116 C1118 1.395 . S
C1116 C1119 1.403 . S
H1117 C1123 0.930 . S
C1118 H1104 0.930 . S
C1118 C1116 1.395 . S
C1118 C1121 1.403 . S
C1119 C1116 1.403 . S
C1119 C1120 1.524 . S
C1119 C1123 1.400 . S
C1120 H1105 0.960 . S
C1120 H1106 0.960 . S
C1120 H1107 0.960 . S
C1120 C1119 1.524 . S
C1121 C1118 1.403 . S
C1121 C1122 1.392 . S
C1121 C1125 1.495 . S
C1122 C1121 1.392 . S
C1122 C1123 1.385 . S
C1122 C1124 1.478 . S
C1123 H1117 0.930 . S
C1123 C1119 1.400 . S
C1123 C1122 1.385 . S
C1124 C1122 1.478 . S
C1124 C1126 1.381 . S
C1124 C1130 1.383 . S
C1125 C1121 1.495 . S
C1125 H1131 0.959 . S
C1125 H1132 0.961 . S
C1125 H1133 0.960 . S
C1126 C1124 1.381 . S
C1126 C1127 1.394 . S
C1126 H1134 0.930 . S
C1127 C1126 1.394 . S
C1127 C1128 1.383 . S
C1127 H1135 0.929 . S
C1128 C1127 1.383 . S
C1128 C1129 1.377 . S
C1129 H1113 0.930 . S
C1129 C1128 1.377 . S
C1129 C1130 1.379 . S
C1130 H1114 0.931 . S
C1130 C1124 1.383 . S
C1130 C1129 1.379 . S
H1131 C1125 0.959 . S
H1132 C1125 0.961 . S
H1133 C1125 0.960 . S
H1134 C1126 0.930 . S
H1135 C1127 0.929 . S
H1136 C1144 0.929 . S
H1137 C1146 0.930 . S
H1138 C1148 0.930 . S
H1139 C1151 0.929 . S
H1140 C1154 0.930 . S
H1141 C1156 0.960 . S
H1142 C1156 0.960 . S
H1143 C1156 0.960 . S
C1144 H1136 0.929 . S
C1144 C1145 1.377 . S
C1144 C1146 1.384 . S
C1145 C1144 1.377 . S
C1145 C1151 1.390 . S
C1146 H1137 0.930 . S
C1146 C1144 1.384 . S
C1146 C1147 1.372 . S
C1147 C1146 1.372 . S
C1147 C1148 1.400 . S
C1147 C1152 1.490 . S
C1148 H1138 0.930 . S
C1148 C1147 1.400 . S
C1148 C1151 1.386 . S
H1149 C1165 0.930 . S
H1150 C1166 0.931 . S
C1151 H1139 0.929 . S
C1151 C1145 1.390 . S
C1151 C1148 1.386 . S
C1152 C1147 1.490 . S
C1152 C1154 1.395 . S
C1152 C1155 1.403 . S
H1153 C1159 0.930 . S
C1154 H1140 0.930 . S
C1154 C1152 1.395 . S
C1154 C1157 1.403 . S
C1155 C1152 1.403 . S
C1155 C1156 1.524 . S
C1155 C1159 1.400 . S
C1156 H1141 0.960 . S
C1156 H1142 0.960 . S
C1156 H1143 0.960 . S
C1156 C1155 1.524 . S
C1157 C1154 1.403 . S
C1157 C1158 1.392 . S
C1157 C1161 1.495 . S
C1158 C1157 1.392 . S
C1158 C1159 1.385 . S
C1158 C1160 1.478 . S
C1159 H1153 0.930 . S
C1159 C1155 1.400 . S
C1159 C1158 1.385 . S
C1160 C1158 1.478 . S
C1160 C1162 1.381 . S
C1160 C1166 1.383 . S
C1161 C1157 1.495 . S
C1161 H1167 0.959 . S
C1161 H1168 0.961 . S
C1161 H1169 0.960 . S
C1162 C1160 1.381 . S
C1162 C1163 1.394 . S
C1162 H1170 0.930 . S
C1163 C1162 1.394 . S
C1163 C1164 1.383 . S
C1163 H1171 0.929 . S
C1164 C1163 1.383 . S
C1164 C1165 1.377 . S
C1165 H1149 0.930 . S
C1165 C1164 1.377 . S
C1165 C1166 1.379 . S
C1166 H1150 0.931 . S
C1166 C1160 1.383 . S
C1166 C1165 1.379 . S
H1167 C1161 0.959 . S
H1168 C1161 0.961 . S
H1169 C1161 0.960 . S
H1170 C1162 0.930 . S
H1171 C1163 0.929 . S
H1172 C1180 0.929 . S
H1173 C1182 0.930 . S
H1174 C1184 0.930 . S
H1175 C1187 0.929 . S
H1176 C1190 0.930 . S
H1177 C1192 0.960 . S
H1178 C1192 0.960 . S
H1179 C1192 0.960 . S
C1180 H1172 0.929 . S
C1180 C1181 1.377 . S
C1180 C1182 1.384 . S
C1181 C1180 1.377 . S
C1181 C1187 1.390 . S
C1182 H1173 0.930 . S
C1182 C1180 1.384 . S
C1182 C1183 1.372 . S
C1183 C1182 1.372 . S
C1183 C1184 1.400 . S
C1183 C1188 1.490 . S
C1184 H1174 0.930 . S
C1184 C1183 1.400 . S
C1184 C1187 1.386 . S
H1185 C1201 0.930 . S
H1186 C1202 0.931 . S
C1187 H1175 0.929 . S
C1187 C1181 1.390 . S
C1187 C1184 1.386 . S
C1188 C1183 1.490 . S
C1188 C1190 1.395 . S
C1188 C1191 1.403 . S
H1189 C1195 0.930 . S
C1190 H1176 0.930 . S
C1190 C1188 1.395 . S
C1190 C1193 1.403 . S
C1191 C1188 1.403 . S
C1191 C1192 1.524 . S
C1191 C1195 1.400 . S
C1192 H1177 0.960 . S
C1192 H1178 0.960 . S
C1192 H1179 0.960 . S
C1192 C1191 1.524 . S
C1193 C1190 1.403 . S
C1193 C1194 1.392 . S
C1193 C1197 1.495 . S
C1194 C1193 1.392 . S
C1194 C1195 1.385 . S
C1194 C1196 1.478 . S
C1195 H1189 0.930 . S
C1195 C1191 1.400 . S
C1195 C1194 1.385 . S
C1196 C1194 1.478 . S
C1196 C1198 1.381 . S
C1196 C1202 1.383 . S
C1197 C1193 1.495 . S
C1197 H1203 0.959 . S
C1197 H1204 0.961 . S
C1197 H1205 0.960 . S
C1198 C1196 1.381 . S
C1198 C1199 1.394 . S
C1198 H1206 0.930 . S
C1199 C1198 1.394 . S
C1199 C1200 1.383 . S
C1199 H1207 0.929 . S
C1200 C1199 1.383 . S
C1200 C1201 1.377 . S
C1201 H1185 0.930 . S
C1201 C1200 1.377 . S
C1201 C1202 1.379 . S
C1202 H1186 0.931 . S
C1202 C1196 1.383 . S
C1202 C1201 1.379 . S
H1203 C1197 0.959 . S
H1204 C1197 0.961 . S
H1205 C1197 0.960 . S
H1206 C1198 0.930 . S
H1207 C1199 0.929 . S
H1208 C1216 0.929 . S
H1209 C1218 0.930 . S
H1210 C1220 0.930 . S
H1211 C1223 0.929 . S
H1212 C1226 0.930 . S
H1213 C1228 0.960 . S
H1214 C1228 0.960 . S
H1215 C1228 0.960 . S
C1216 H1208 0.929 . S
C1216 C1217 1.377 . S
C1216 C1218 1.384 . S
C1217 C1216 1.377 . S
C1217 C1223 1.390 . S
C1218 H1209 0.930 . S
C1218 C1216 1.384 . S
C1218 C1219 1.372 . S
C1219 C1218 1.372 . S
C1219 C1220 1.400 . S
C1219 C1224 1.490 . S
C1220 H1210 0.930 . S
C1220 C1219 1.400 . S
C1220 C1223 1.386 . S
H1221 C1237 0.930 . S
H1222 C1238 0.931 . S
C1223 H1211 0.929 . S
C1223 C1217 1.390 . S
C1223 C1220 1.386 . S
C1224 C1219 1.490 . S
C1224 C1226 1.395 . S
C1224 C1227 1.403 . S
H1225 C1231 0.930 . S
C1226 H1212 0.930 . S
C1226 C1224 1.395 . S
C1226 C1229 1.403 . S
C1227 C1224 1.403 . S
C1227 C1228 1.524 . S
C1227 C1231 1.400 . S
C1228 H1213 0.960 . S
C1228 H1214 0.960 . S
C1228 H1215 0.960 . S
C1228 C1227 1.524 . S
C1229 C1226 1.403 . S
C1229 C1230 1.392 . S
C1229 C1233 1.495 . S
C1230 C1229 1.392 . S
C1230 C1231 1.385 . S
C1230 C1232 1.478 . S
C1231 H1225 0.930 . S
C1231 C1227 1.400 . S
C1231 C1230 1.385 . S
C1232 C1230 1.478 . S
C1232 C1234 1.381 . S
C1232 C1238 1.383 . S
C1233 C1229 1.495 . S
C1233 H1239 0.959 . S
C1233 H1240 0.961 . S
C1233 H1241 0.960 . S
C1234 C1232 1.381 . S
C1234 C1235 1.394 . S
C1234 H1242 0.930 . S
C1235 C1234 1.394 . S
C1235 C1236 1.383 . S
C1235 H1243 0.929 . S
C1236 C1235 1.383 . S
C1236 C1237 1.377 . S
C1237 H1221 0.930 . S
C1237 C1236 1.377 . S
C1237 C1238 1.379 . S
C1238 H1222 0.931 . S
C1238 C1232 1.383 . S
C1238 C1237 1.379 . S
H1239 C1233 0.959 . S
H1240 C1233 0.961 . S
H1241 C1233 0.960 . S
H1242 C1234 0.930 . S
H1243 C1235 0.929 . S
H1244 C1252 0.929 . S
H1245 C1254 0.930 . S
H1246 C1256 0.930 . S
H1247 C1259 0.929 . S
H1248 C1262 0.930 . S
H1249 C1264 0.960 . S
H1250 C1264 0.960 . S
H1251 C1264 0.960 . S
C1252 H1244 0.929 . S
C1252 C1253 1.377 . S
C1252 C1254 1.384 1_554 S
C1253 C1252 1.377 . S
C1253 C1259 1.390 . S
C1254 H1245 0.930 . S
C1254 C1252 1.384 1_556 S
C1254 C1255 1.372 . S
C1255 C1254 1.372 . S
C1255 C1256 1.400 . S
C1255 C1260 1.490 . S
C1256 H1246 0.930 . S
C1256 C1255 1.400 . S
C1256 C1259 1.386 1_556 S
H1257 C1273 0.930 . S
H1258 C1274 0.931 . S
C1259 H1247 0.929 . S
C1259 C1253 1.390 . S
C1259 C1256 1.386 1_554 S
C1260 C1255 1.490 . S
C1260 C1262 1.395 . S
C1260 C1263 1.403 . S
H1261 C1267 0.930 . S
C1262 H1248 0.930 . S
C1262 C1260 1.395 . S
C1262 C1265 1.403 . S
C1263 C1260 1.403 . S
C1263 C1264 1.524 . S
C1263 C1267 1.400 . S
C1264 H1249 0.960 . S
C1264 H1250 0.960 . S
C1264 H1251 0.960 . S
C1264 C1263 1.524 . S
C1265 C1262 1.403 . S
C1265 C1266 1.392 . S
C1265 C1269 1.495 . S
C1266 C1265 1.392 . S
C1266 C1267 1.385 . S
C1266 C1268 1.478 . S
C1267 H1261 0.930 . S
C1267 C1263 1.400 . S
C1267 C1266 1.385 . S
C1268 C1266 1.478 . S
C1268 C1270 1.381 . S
C1268 C1274 1.383 . S
C1269 C1265 1.495 . S
C1269 H1275 0.959 . S
C1269 H1276 0.961 . S
C1269 H1277 0.960 . S
C1270 C1268 1.381 . S
C1270 C1271 1.394 . S
C1270 H1278 0.930 . S
C1271 C1270 1.394 . S
C1271 C1272 1.383 . S
C1271 H1279 0.929 . S
C1272 C1271 1.383 . S
C1272 C1273 1.377 . S
C1273 H1257 0.930 . S
C1273 C1272 1.377 . S
C1273 C1274 1.379 . S
C1274 H1258 0.931 . S
C1274 C1268 1.383 . S
C1274 C1273 1.379 . S
H1275 C1269 0.959 . S
H1276 C1269 0.961 . S
H1277 C1269 0.960 . S
H1278 C1270 0.930 . S
H1279 C1271 0.929 . S
H1280 C1288 0.929 . S
H1281 C1290 0.930 . S
H1282 C1292 0.930 . S
H1283 C1295 0.929 . S
H1284 C1298 0.930 1_554 S
H1285 C1300 0.960 . S
H1286 C1300 0.960 . S
H1287 C1300 0.960 . S
C1288 H1280 0.929 . S
C1288 C1289 1.377 . S
C1288 C1290 1.384 . S
C1289 C1288 1.377 . S
C1289 C1295 1.390 1_554 S
C1290 H1281 0.930 . S
C1290 C1288 1.384 . S
C1290 C1291 1.372 1_554 S
C1291 C1290 1.372 1_556 S
C1291 C1292 1.400 . S
C1291 C1296 1.490 . S
C1292 H1282 0.930 . S
C1292 C1291 1.400 . S
C1292 C1295 1.386 . S
H1293 C1309 0.930 . S
H1294 C1310 0.931 . S
C1295 H1283 0.929 . S
C1295 C1289 1.390 1_556 S
C1295 C1292 1.386 . S
C1296 C1291 1.490 . S
C1296 C1298 1.395 . S
C1296 C1299 1.403 . S
H1297 C1303 0.930 . S
C1298 H1284 0.930 1_556 S
C1298 C1296 1.395 . S
C1298 C1301 1.403 . S
C1299 C1296 1.403 . S
C1299 C1300 1.524 . S
C1299 C1303 1.400 . S
C1300 H1285 0.960 . S
C1300 H1286 0.960 . S
C1300 H1287 0.960 . S
C1300 C1299 1.524 . S
C1301 C1298 1.403 . S
C1301 C1302 1.392 . S
C1301 C1305 1.495 . S
C1302 C1301 1.392 . S
C1302 C1303 1.385 . S
C1302 C1304 1.478 . S
C1303 H1297 0.930 . S
C1303 C1299 1.400 . S
C1303 C1302 1.385 . S
C1304 C1302 1.478 . S
C1304 C1306 1.381 . S
C1304 C1310 1.383 . S
C1305 C1301 1.495 . S
C1305 H1311 0.959 1_556 S
C1305 H1312 0.961 . S
C1305 H1313 0.960 . S
C1306 C1304 1.381 . S
C1306 C1307 1.394 . S
C1306 H1314 0.930 . S
C1307 C1306 1.394 . S
C1307 C1308 1.383 . S
C1307 H1315 0.929 . S
C1308 C1307 1.383 . S
C1308 C1309 1.377 . S
C1309 H1293 0.930 . S
C1309 C1308 1.377 . S
C1309 C1310 1.379 . S
C1310 H1294 0.931 . S
C1310 C1304 1.383 . S
C1310 C1309 1.379 . S
H1311 C1305 0.959 1_554 S
H1312 C1305 0.961 . S
H1313 C1305 0.960 . S
H1314 C1306 0.930 . S
H1315 C1307 0.929 . S
H1316 C1324 0.929 . S
H1317 C1326 0.930 . S
H1318 C1328 0.930 . S
H1319 C1331 0.929 . S
H1320 C1334 0.930 . S
H1321 C1336 0.960 . S
H1322 C1336 0.960 . S
H1323 C1336 0.960 . S
C1324 H1316 0.929 . S
C1324 C1325 1.377 . S
C1324 C1326 1.384 . S
C1325 C1324 1.377 . S
C1325 C1331 1.390 . S
C1326 H1317 0.930 . S
C1326 C1324 1.384 . S
C1326 C1327 1.372 . S
C1327 C1326 1.372 . S
C1327 C1328 1.400 . S
C1327 C1332 1.490 . S
C1328 H1318 0.930 . S
C1328 C1327 1.400 . S
C1328 C1331 1.386 . S
H1329 C1345 0.930 . S
H1330 C1346 0.931 . S
C1331 H1319 0.929 . S
C1331 C1325 1.390 . S
C1331 C1328 1.386 . S
C1332 C1327 1.490 . S
C1332 C1334 1.395 . S
C1332 C1335 1.403 . S
H1333 C1339 0.930 . S
C1334 H1320 0.930 . S
C1334 C1332 1.395 . S
C1334 C1337 1.403 . S
C1335 C1332 1.403 . S
C1335 C1336 1.524 . S
C1335 C1339 1.400 . S
C1336 H1321 0.960 . S
C1336 H1322 0.960 . S
C1336 H1323 0.960 . S
C1336 C1335 1.524 . S
C1337 C1334 1.403 . S
C1337 C1338 1.392 . S
C1337 C1341 1.495 . S
C1338 C1337 1.392 . S
C1338 C1339 1.385 . S
C1338 C1340 1.478 . S
C1339 H1333 0.930 . S
C1339 C1335 1.400 . S
C1339 C1338 1.385 . S
C1340 C1338 1.478 . S
C1340 C1342 1.381 . S
C1340 C1346 1.383 . S
C1341 C1337 1.495 . S
C1341 H1347 0.959 . S
C1341 H1348 0.961 . S
C1341 H1349 0.960 . S
C1342 C1340 1.381 . S
C1342 C1343 1.394 . S
C1342 H1350 0.930 . S
C1343 C1342 1.394 . S
C1343 C1344 1.383 . S
C1343 H1351 0.929 . S
C1344 C1343 1.383 . S
C1344 C1345 1.377 . S
C1345 H1329 0.930 . S
C1345 C1344 1.377 . S
C1345 C1346 1.379 . S
C1346 H1330 0.931 . S
C1346 C1340 1.383 . S
C1346 C1345 1.379 . S
H1347 C1341 0.959 . S
H1348 C1341 0.961 . S
H1349 C1341 0.960 . S
H1350 C1342 0.930 . S
H1351 C1343 0.929 . S
H1352 C1360 0.929 . S
H1353 C1362 0.930 . S
H1354 C1364 0.930 . S
H1355 C1367 0.929 . S
H1356 C1370 0.930 . S
H1357 C1372 0.960 . S
H1358 C1372 0.960 . S
H1359 C1372 0.960 . S
C1360 H1352 0.929 . S
C1360 C1361 1.377 . S
C1360 C1362 1.384 . S
C1361 C1360 1.377 . S
C1361 C1367 1.390 . S
C1362 H1353 0.930 . S
C1362 C1360 1.384 . S
C1362 C1363 1.372 . S
C1363 C1362 1.372 . S
C1363 C1364 1.400 . S
C1363 C1368 1.490 . S
C1364 H1354 0.930 . S
C1364 C1363 1.400 . S
C1364 C1367 1.386 . S
H1365 C1381 0.930 . S
H1366 C1382 0.931 . S
C1367 H1355 0.929 . S
C1367 C1361 1.390 . S
C1367 C1364 1.386 . S
C1368 C1363 1.490 . S
C1368 C1370 1.395 . S
C1368 C1371 1.403 . S
H1369 C1375 0.930 . S
C1370 H1356 0.930 . S
C1370 C1368 1.395 . S
C1370 C1373 1.403 . S
C1371 C1368 1.403 . S
C1371 C1372 1.524 . S
C1371 C1375 1.400 . S
C1372 H1357 0.960 . S
C1372 H1358 0.960 . S
C1372 H1359 0.960 . S
C1372 C1371 1.524 . S
C1373 C1370 1.403 . S
C1373 C1374 1.392 . S
C1373 C1377 1.495 . S
C1374 C1373 1.392 . S
C1374 C1375 1.385 . S
C1374 C1376 1.478 . S
C1375 H1369 0.930 . S
C1375 C1371 1.400 . S
C1375 C1374 1.385 . S
C1376 C1374 1.478 . S
C1376 C1378 1.381 . S
C1376 C1382 1.383 . S
C1377 C1373 1.495 . S
C1377 H1383 0.959 . S
C1377 H1384 0.961 . S
C1377 H1385 0.960 . S
C1378 C1376 1.381 . S
C1378 C1379 1.394 . S
C1378 H1386 0.930 . S
C1379 C1378 1.394 . S
C1379 C1380 1.383 . S
C1379 H1387 0.929 . S
C1380 C1379 1.383 . S
C1380 C1381 1.377 . S
C1381 H1365 0.930 . S
C1381 C1380 1.377 . S
C1381 C1382 1.379 . S
C1382 H1366 0.931 . S
C1382 C1376 1.383 . S
C1382 C1381 1.379 . S
H1383 C1377 0.959 . S
H1384 C1377 0.961 . S
H1385 C1377 0.960 . S
H1386 C1378 0.930 . S
H1387 C1379 0.929 . S
H1388 C1396 0.929 . S
H1389 C1398 0.930 . S
H1390 C1400 0.930 . S
H1391 C1403 0.929 . S
H1392 C1406 0.930 . S
H1393 C1408 0.960 . S
H1394 C1408 0.960 . S
H1395 C1408 0.960 . S
C1396 H1388 0.929 . S
C1396 C1397 1.377 . S
C1396 C1398 1.384 . S
C1397 C1396 1.377 . S
C1397 C1403 1.390 . S
C1398 H1389 0.930 . S
C1398 C1396 1.384 . S
C1398 C1399 1.372 . S
C1399 C1398 1.372 . S
C1399 C1400 1.400 . S
C1399 C1404 1.490 . S
C1400 H1390 0.930 . S
C1400 C1399 1.400 . S
C1400 C1403 1.386 . S
H1401 C1417 0.930 . S
H1402 C1418 0.931 . S
C1403 H1391 0.929 . S
C1403 C1397 1.390 . S
C1403 C1400 1.386 . S
C1404 C1399 1.490 . S
C1404 C1406 1.395 . S
C1404 C1407 1.403 . S
H1405 C1411 0.930 . S
C1406 H1392 0.930 . S
C1406 C1404 1.395 . S
C1406 C1409 1.403 . S
C1407 C1404 1.403 . S
C1407 C1408 1.524 . S
C1407 C1411 1.400 . S
C1408 H1393 0.960 . S
C1408 H1394 0.960 . S
C1408 H1395 0.960 . S
C1408 C1407 1.524 . S
C1409 C1406 1.403 . S
C1409 C1410 1.392 . S
C1409 C1413 1.495 . S
C1410 C1409 1.392 . S
C1410 C1411 1.385 . S
C1410 C1412 1.478 . S
C1411 H1405 0.930 . S
C1411 C1407 1.400 . S
C1411 C1410 1.385 . S
C1412 C1410 1.478 . S
C1412 C1414 1.381 . S
C1412 C1418 1.383 . S
C1413 C1409 1.495 . S
C1413 H1419 0.959 . S
C1413 H1420 0.961 . S
C1413 H1421 0.960 . S
C1414 C1412 1.381 . S
C1414 C1415 1.394 . S
C1414 H1422 0.930 . S
C1415 C1414 1.394 . S
C1415 C1416 1.383 . S
C1415 H1423 0.929 . S
C1416 C1415 1.383 . S
C1416 C1417 1.377 . S
C1417 H1401 0.930 . S
C1417 C1416 1.377 . S
C1417 C1418 1.379 . S
C1418 H1402 0.931 . S
C1418 C1412 1.383 . S
C1418 C1417 1.379 . S
H1419 C1413 0.959 . S
H1420 C1413 0.961 . S
H1421 C1413 0.960 . S
H1422 C1414 0.930 . S
H1423 C1415 0.929 . S
H1424 C1432 0.929 . S
H1425 C1434 0.930 . S
H1426 C1436 0.930 . S
H1427 C1439 0.929 . S
H1428 C1442 0.930 . S
H1429 C1444 0.960 . S
H1430 C1444 0.960 . S
H1431 C1444 0.960 . S
C1432 H1424 0.929 . S
C1432 C1433 1.377 . S
C1432 C1434 1.384 . S
C1433 C1432 1.377 . S
C1433 C1439 1.390 . S
C1434 H1425 0.930 . S
C1434 C1432 1.384 . S
C1434 C1435 1.372 . S
C1435 C1434 1.372 . S
C1435 C1436 1.400 . S
C1435 C1440 1.490 . S
C1436 H1426 0.930 . S
C1436 C1435 1.400 . S
C1436 C1439 1.386 . S
H1437 C1453 0.930 . S
H1438 C1454 0.931 . S
C1439 H1427 0.929 . S
C1439 C1433 1.390 . S
C1439 C1436 1.386 . S
C1440 C1435 1.490 . S
C1440 C1442 1.395 . S
C1440 C1443 1.403 . S
H1441 C1447 0.930 . S
C1442 H1428 0.930 . S
C1442 C1440 1.395 . S
C1442 C1445 1.403 . S
C1443 C1440 1.403 . S
C1443 C1444 1.524 . S
C1443 C1447 1.400 . S
C1444 H1429 0.960 . S
C1444 H1430 0.960 . S
C1444 H1431 0.960 . S
C1444 C1443 1.524 . S
C1445 C1442 1.403 . S
C1445 C1446 1.392 . S
C1445 C1449 1.495 . S
C1446 C1445 1.392 . S
C1446 C1447 1.385 . S
C1446 C1448 1.478 . S
C1447 H1441 0.930 . S
C1447 C1443 1.400 . S
C1447 C1446 1.385 . S
C1448 C1446 1.478 . S
C1448 C1450 1.381 . S
C1448 C1454 1.383 . S
C1449 C1445 1.495 . S
C1449 H1455 0.959 . S
C1449 H1456 0.961 . S
C1449 H1457 0.960 . S
C1450 C1448 1.381 . S
C1450 C1451 1.394 . S
C1450 H1458 0.930 . S
C1451 C1450 1.394 . S
C1451 C1452 1.383 . S
C1451 H1459 0.929 . S
C1452 C1451 1.383 . S
C1452 C1453 1.377 . S
C1453 H1437 0.930 . S
C1453 C1452 1.377 . S
C1453 C1454 1.379 . S
C1454 H1438 0.931 . S
C1454 C1448 1.383 . S
C1454 C1453 1.379 . S
H1455 C1449 0.959 . S
H1456 C1449 0.961 . S
H1457 C1449 0.960 . S
H1458 C1450 0.930 . S
H1459 C1451 0.929 . S
H1460 C1468 0.929 . S
H1461 C1470 0.930 . S
H1462 C1472 0.930 . S
H1463 C1475 0.929 . S
H1464 C1478 0.930 . S
H1465 C1480 0.960 . S
H1466 C1480 0.960 . S
H1467 C1480 0.960 . S
C1468 H1460 0.929 . S
C1468 C1469 1.377 . S
C1468 C1470 1.384 . S
C1469 C1468 1.377 . S
C1469 C1475 1.390 . S
C1470 H1461 0.930 . S
C1470 C1468 1.384 . S
C1470 C1471 1.372 . S
C1471 C1470 1.372 . S
C1471 C1472 1.400 . S
C1471 C1476 1.490 . S
C1472 H1462 0.930 . S
C1472 C1471 1.400 . S
C1472 C1475 1.386 . S
H1473 C1489 0.930 . S
H1474 C1490 0.931 . S
C1475 H1463 0.929 . S
C1475 C1469 1.390 . S
C1475 C1472 1.386 . S
C1476 C1471 1.490 . S
C1476 C1478 1.395 . S
C1476 C1479 1.403 . S
H1477 C1483 0.930 . S
C1478 H1464 0.930 . S
C1478 C1476 1.395 . S
C1478 C1481 1.403 . S
C1479 C1476 1.403 . S
C1479 C1480 1.524 . S
C1479 C1483 1.400 . S
C1480 H1465 0.960 . S
C1480 H1466 0.960 . S
C1480 H1467 0.960 . S
C1480 C1479 1.524 . S
C1481 C1478 1.403 . S
C1481 C1482 1.392 . S
C1481 C1485 1.495 . S
C1482 C1481 1.392 . S
C1482 C1483 1.385 . S
C1482 C1484 1.478 . S
C1483 H1477 0.930 . S
C1483 C1479 1.400 . S
C1483 C1482 1.385 . S
C1484 C1482 1.478 . S
C1484 C1486 1.381 . S
C1484 C1490 1.383 . S
C1485 C1481 1.495 . S
C1485 H1491 0.959 . S
C1485 H1492 0.961 . S
C1485 H1493 0.960 . S
C1486 C1484 1.381 . S
C1486 C1487 1.394 . S
C1486 H1494 0.930 . S
C1487 C1486 1.394 . S
C1487 C1488 1.383 . S
C1487 H1495 0.929 . S
C1488 C1487 1.383 . S
C1488 C1489 1.377 . S
C1489 H1473 0.930 . S
C1489 C1488 1.377 . S
C1489 C1490 1.379 . S
C1490 H1474 0.931 . S
C1490 C1484 1.383 . S
C1490 C1489 1.379 . S
H1491 C1485 0.959 . S
H1492 C1485 0.961 . S
H1493 C1485 0.960 . S
H1494 C1486 0.930 . S
H1495 C1487 0.929 . S
H1496 C1504 0.929 . S
H1497 C1506 0.930 . S
H1498 C1508 0.930 . S
H1499 C1511 0.929 . S
H1500 C1514 0.930 . S
H1501 C1516 0.960 . S
H1502 C1516 0.960 . S
H1503 C1516 0.960 . S
C1504 H1496 0.929 . S
C1504 C1505 1.377 . S
C1504 C1506 1.384 . S
C1505 C1504 1.377 . S
C1505 C1511 1.390 . S
C1506 H1497 0.930 . S
C1506 C1504 1.384 . S
C1506 C1507 1.372 . S
C1507 C1506 1.372 . S
C1507 C1508 1.400 . S
C1507 C1512 1.490 . S
C1508 H1498 0.930 . S
C1508 C1507 1.400 . S
C1508 C1511 1.386 . S
H1509 C1525 0.930 . S
H1510 C1526 0.931 . S
C1511 H1499 0.929 . S
C1511 C1505 1.390 . S
C1511 C1508 1.386 . S
C1512 C1507 1.490 . S
C1512 C1514 1.395 . S
C1512 C1515 1.403 . S
H1513 C1519 0.930 . S
C1514 H1500 0.930 . S
C1514 C1512 1.395 . S
C1514 C1517 1.403 . S
C1515 C1512 1.403 . S
C1515 C1516 1.524 . S
C1515 C1519 1.400 . S
C1516 H1501 0.960 . S
C1516 H1502 0.960 . S
C1516 H1503 0.960 . S
C1516 C1515 1.524 . S
C1517 C1514 1.403 . S
C1517 C1518 1.392 . S
C1517 C1521 1.495 . S
C1518 C1517 1.392 . S
C1518 C1519 1.385 . S
C1518 C1520 1.478 . S
C1519 H1513 0.930 . S
C1519 C1515 1.400 . S
C1519 C1518 1.385 . S
C1520 C1518 1.478 . S
C1520 C1522 1.381 . S
C1520 C1526 1.383 . S
C1521 C1517 1.495 . S
C1521 H1527 0.959 . S
C1521 H1528 0.961 . S
C1521 H1529 0.960 . S
C1522 C1520 1.381 . S
C1522 C1523 1.394 . S
C1522 H1530 0.930 . S
C1523 C1522 1.394 . S
C1523 C1524 1.383 . S
C1523 H1531 0.929 . S
C1524 C1523 1.383 . S
C1524 C1525 1.377 . S
C1525 H1509 0.930 . S
C1525 C1524 1.377 . S
C1525 C1526 1.379 . S
C1526 H1510 0.931 . S
C1526 C1520 1.383 . S
C1526 C1525 1.379 . S
H1527 C1521 0.959 . S
H1528 C1521 0.961 . S
H1529 C1521 0.960 . S
H1530 C1522 0.930 . S
H1531 C1523 0.929 . S
H1532 C1540 0.929 . S
H1533 C1542 0.930 . S
H1534 C1544 0.930 . S
H1535 C1547 0.929 . S
H1536 C1550 0.930 . S
H1537 C1552 0.960 . S
H1538 C1552 0.960 . S
H1539 C1552 0.960 . S
C1540 H1532 0.929 . S
C1540 C1541 1.377 . S
C1540 C1542 1.384 . S
C1541 C1540 1.377 . S
C1541 C1547 1.390 . S
C1542 H1533 0.930 . S
C1542 C1540 1.384 . S
C1542 C1543 1.372 . S
C1543 C1542 1.372 . S
C1543 C1544 1.400 . S
C1543 C1548 1.490 . S
C1544 H1534 0.930 . S
C1544 C1543 1.400 . S
C1544 C1547 1.386 . S
H1545 C1561 0.930 . S
H1546 C1562 0.931 . S
C1547 H1535 0.929 . S
C1547 C1541 1.390 . S
C1547 C1544 1.386 . S
C1548 C1543 1.490 . S
C1548 C1550 1.395 . S
C1548 C1551 1.403 . S
H1549 C1555 0.930 . S
C1550 H1536 0.930 . S
C1550 C1548 1.395 . S
C1550 C1553 1.403 . S
C1551 C1548 1.403 . S
C1551 C1552 1.524 . S
C1551 C1555 1.400 . S
C1552 H1537 0.960 . S
C1552 H1538 0.960 . S
C1552 H1539 0.960 . S
C1552 C1551 1.524 . S
C1553 C1550 1.403 . S
C1553 C1554 1.392 . S
C1553 C1557 1.495 . S
C1554 C1553 1.392 . S
C1554 C1555 1.385 . S
C1554 C1556 1.478 . S
C1555 H1549 0.930 . S
C1555 C1551 1.400 . S
C1555 C1554 1.385 . S
C1556 C1554 1.478 . S
C1556 C1558 1.381 . S
C1556 C1562 1.383 . S
C1557 C1553 1.495 . S
C1557 H1563 0.959 . S
C1557 H1564 0.961 . S
C1557 H1565 0.960 . S
C1558 C1556 1.381 . S
C1558 C1559 1.394 . S
C1558 H1566 0.930 . S
C1559 C1558 1.394 . S
C1559 C1560 1.383 . S
C1559 H1567 0.929 . S
C1560 C1559 1.383 . S
C1560 C1561 1.377 . S
C1561 H1545 0.930 . S
C1561 C1560 1.377 . S
C1561 C1562 1.379 . S
C1562 H1546 0.931 . S
C1562 C1556 1.383 . S
C1562 C1561 1.379 . S
H1563 C1557 0.959 . S
H1564 C1557 0.961 . S
H1565 C1557 0.960 . S
H1566 C1558 0.930 . S
H1567 C1559 0.929 . S
H1568 C1576 0.929 . S
H1569 C1578 0.930 . S
H1570 C1580 0.930 . S
H1571 C1583 0.929 . S
H1572 C1586 0.930 . S
H1573 C1588 0.960 . S
H1574 C1588 0.960 . S
H1575 C1588 0.960 . S
C1576 H1568 0.929 . S
C1576 C1577 1.377 . S
C1576 C1578 1.384 . S
C1577 C1576 1.377 . S
C1577 C1583 1.390 . S
C1578 H1569 0.930 . S
C1578 C1576 1.384 . S
C1578 C1579 1.372 . S
C1579 C1578 1.372 . S
C1579 C1580 1.400 . S
C1579 C1584 1.490 . S
C1580 H1570 0.930 . S
C1580 C1579 1.400 . S
C1580 C1583 1.386 . S
H1581 C1597 0.930 . S
H1582 C1598 0.931 . S
C1583 H1571 0.929 . S
C1583 C1577 1.390 . S
C1583 C1580 1.386 . S
C1584 C1579 1.490 . S
C1584 C1586 1.395 . S
C1584 C1587 1.403 . S
H1585 C1591 0.930 . S
C1586 H1572 0.930 . S
C1586 C1584 1.395 . S
C1586 C1589 1.403 . S
C1587 C1584 1.403 . S
C1587 C1588 1.524 . S
C1587 C1591 1.400 . S
C1588 H1573 0.960 . S
C1588 H1574 0.960 . S
C1588 H1575 0.960 . S
C1588 C1587 1.524 . S
C1589 C1586 1.403 . S
C1589 C1590 1.392 . S
C1589 C1593 1.495 . S
C1590 C1589 1.392 . S
C1590 C1591 1.385 . S
C1590 C1592 1.478 . S
C1591 H1585 0.930 . S
C1591 C1587 1.400 . S
C1591 C1590 1.385 . S
C1592 C1590 1.478 . S
C1592 C1594 1.381 . S
C1592 C1598 1.383 . S
C1593 C1589 1.495 . S
C1593 H1599 0.959 . S
C1593 H1600 0.961 . S
C1593 H1601 0.960 . S
C1594 C1592 1.381 . S
C1594 C1595 1.394 . S
C1594 H1602 0.930 . S
C1595 C1594 1.394 . S
C1595 C1596 1.383 . S
C1595 H1603 0.929 . S
C1596 C1595 1.383 . S
C1596 C1597 1.377 . S
C1597 H1581 0.930 . S
C1597 C1596 1.377 . S
C1597 C1598 1.379 . S
C1598 H1582 0.931 . S
C1598 C1592 1.383 . S
C1598 C1597 1.379 . S
H1599 C1593 0.959 . S
H1600 C1593 0.961 . S
H1601 C1593 0.960 . S
H1602 C1594 0.930 . S
H1603 C1595 0.929 . S
H1604 C1612 0.929 . S
H1605 C1614 0.930 . S
H1606 C1616 0.930 . S
H1607 C1619 0.929 . S
H1608 C1622 0.930 . S
H1609 C1624 0.960 . S
H1610 C1624 0.960 . S
H1611 C1624 0.960 . S
C1612 H1604 0.929 . S
C1612 C1613 1.377 . S
C1612 C1614 1.384 . S
C1613 C1612 1.377 . S
C1613 C1619 1.390 . S
C1614 H1605 0.930 . S
C1614 C1612 1.384 . S
C1614 C1615 1.372 . S
C1615 C1614 1.372 . S
C1615 C1616 1.400 . S
C1615 C1620 1.490 . S
C1616 H1606 0.930 . S
C1616 C1615 1.400 . S
C1616 C1619 1.386 . S
H1617 C1633 0.930 . S
H1618 C1634 0.931 . S
C1619 H1607 0.929 . S
C1619 C1613 1.390 . S
C1619 C1616 1.386 . S
C1620 C1615 1.490 . S
C1620 C1622 1.395 . S
C1620 C1623 1.403 . S
H1621 C1627 0.930 . S
C1622 H1608 0.930 . S
C1622 C1620 1.395 . S
C1622 C1625 1.403 . S
C1623 C1620 1.403 . S
C1623 C1624 1.524 . S
C1623 C1627 1.400 . S
C1624 H1609 0.960 . S
C1624 H1610 0.960 . S
C1624 H1611 0.960 . S
C1624 C1623 1.524 . S
C1625 C1622 1.403 . S
C1625 C1626 1.392 . S
C1625 C1629 1.495 . S
C1626 C1625 1.392 . S
C1626 C1627 1.385 . S
C1626 C1628 1.478 . S
C1627 H1621 0.930 . S
C1627 C1623 1.400 . S
C1627 C1626 1.385 . S
C1628 C1626 1.478 . S
C1628 C1630 1.381 . S
C1628 C1634 1.383 . S
C1629 C1625 1.495 . S
C1629 H1635 0.959 . S
C1629 H1636 0.961 . S
C1629 H1637 0.960 . S
C1630 C1628 1.381 . S
C1630 C1631 1.394 . S
C1630 H1638 0.930 . S
C1631 C1630 1.394 . S
C1631 C1632 1.383 . S
C1631 H1639 0.929 . S
C1632 C1631 1.383 . S
C1632 C1633 1.377 . S
C1633 H1617 0.930 . S
C1633 C1632 1.377 . S
C1633 C1634 1.379 . S
C1634 H1618 0.931 . S
C1634 C1628 1.383 . S
C1634 C1633 1.379 . S
H1635 C1629 0.959 . S
H1636 C1629 0.961 . S
H1637 C1629 0.960 . S
H1638 C1630 0.930 . S
H1639 C1631 0.929 . S
H1640 C1648 0.929 . S
H1641 C1650 0.930 . S
H1642 C1652 0.930 . S
H1643 C1655 0.929 . S
H1644 C1658 0.930 . S
H1645 C1660 0.960 . S
H1646 C1660 0.960 . S
H1647 C1660 0.960 . S
C1648 H1640 0.929 . S
C1648 C1649 1.377 . S
C1648 C1650 1.384 . S
C1649 C1648 1.377 . S
C1649 C1655 1.390 . S
C1650 H1641 0.930 . S
C1650 C1648 1.384 . S
C1650 C1651 1.372 . S
C1651 C1650 1.372 . S
C1651 C1652 1.400 . S
C1651 C1656 1.490 . S
C1652 H1642 0.930 . S
C1652 C1651 1.400 . S
C1652 C1655 1.386 . S
H1653 C1669 0.930 . S
H1654 C1670 0.931 . S
C1655 H1643 0.929 . S
C1655 C1649 1.390 . S
C1655 C1652 1.386 . S
C1656 C1651 1.490 . S
C1656 C1658 1.395 . S
C1656 C1659 1.403 . S
H1657 C1663 0.930 . S
C1658 H1644 0.930 . S
C1658 C1656 1.395 . S
C1658 C1661 1.403 . S
C1659 C1656 1.403 . S
C1659 C1660 1.524 . S
C1659 C1663 1.400 . S
C1660 H1645 0.960 . S
C1660 H1646 0.960 . S
C1660 H1647 0.960 . S
C1660 C1659 1.524 . S
C1661 C1658 1.403 . S
C1661 C1662 1.392 . S
C1661 C1665 1.495 . S
C1662 C1661 1.392 . S
C1662 C1663 1.385 . S
C1662 C1664 1.478 . S
C1663 H1657 0.930 . S
C1663 C1659 1.400 . S
C1663 C1662 1.385 . S
C1664 C1662 1.478 . S
C1664 C1666 1.381 . S
C1664 C1670 1.383 . S
C1665 C1661 1.495 . S
C1665 H1671 0.959 . S
C1665 H1672 0.961 . S
C1665 H1673 0.960 . S
C1666 C1664 1.381 . S
C1666 C1667 1.394 . S
C1666 H1674 0.930 . S
C1667 C1666 1.394 . S
C1667 C1668 1.383 . S
C1667 H1675 0.929 . S
C1668 C1667 1.383 . S
C1668 C1669 1.377 . S
C1669 H1653 0.930 . S
C1669 C1668 1.377 . S
C1669 C1670 1.379 . S
C1670 H1654 0.931 . S
C1670 C1664 1.383 . S
C1670 C1669 1.379 . S
H1671 C1665 0.959 . S
H1672 C1665 0.961 . S
H1673 C1665 0.960 . S
H1674 C1666 0.930 . S
H1675 C1667 0.929 . S
H1676 C1684 0.929 . S
H1677 C1686 0.930 . S
H1678 C1688 0.930 . S
H1679 C1691 0.929 . S
H1680 C1694 0.930 . S
H1681 C1696 0.960 . S
H1682 C1696 0.960 . S
H1683 C1696 0.960 . S
C1684 H1676 0.929 . S
C1684 C1685 1.377 . S
C1684 C1686 1.384 . S
C1685 C1684 1.377 . S
C1685 C1691 1.390 . S
C1686 H1677 0.930 . S
C1686 C1684 1.384 . S
C1686 C1687 1.372 . S
C1687 C1686 1.372 . S
C1687 C1688 1.400 . S
C1687 C1692 1.490 . S
C1688 H1678 0.930 . S
C1688 C1687 1.400 . S
C1688 C1691 1.386 . S
H1689 C1705 0.930 . S
H1690 C1706 0.931 . S
C1691 H1679 0.929 . S
C1691 C1685 1.390 . S
C1691 C1688 1.386 . S
C1692 C1687 1.490 . S
C1692 C1694 1.395 . S
C1692 C1695 1.403 . S
H1693 C1699 0.930 . S
C1694 H1680 0.930 . S
C1694 C1692 1.395 . S
C1694 C1697 1.403 . S
C1695 C1692 1.403 . S
C1695 C1696 1.524 . S
C1695 C1699 1.400 . S
C1696 H1681 0.960 . S
C1696 H1682 0.960 . S
C1696 H1683 0.960 . S
C1696 C1695 1.524 . S
C1697 C1694 1.403 . S
C1697 C1698 1.392 . S
C1697 C1701 1.495 . S
C1698 C1697 1.392 . S
C1698 C1699 1.385 . S
C1698 C1700 1.478 . S
C1699 H1693 0.930 . S
C1699 C1695 1.400 . S
C1699 C1698 1.385 . S
C1700 C1698 1.478 . S
C1700 C1702 1.381 . S
C1700 C1706 1.383 . S
C1701 C1697 1.495 . S
C1701 H1707 0.959 . S
C1701 H1708 0.961 . S
C1701 H1709 0.960 . S
C1702 C1700 1.381 . S
C1702 C1703 1.394 . S
C1702 H1710 0.930 . S
C1703 C1702 1.394 . S
C1703 C1704 1.383 . S
C1703 H1711 0.929 . S
C1704 C1703 1.383 . S
C1704 C1705 1.377 . S
C1705 H1689 0.930 . S
C1705 C1704 1.377 . S
C1705 C1706 1.379 . S
C1706 H1690 0.931 . S
C1706 C1700 1.383 . S
C1706 C1705 1.379 . S
H1707 C1701 0.959 . S
H1708 C1701 0.961 . S
H1709 C1701 0.960 . S
H1710 C1702 0.930 . S
H1711 C1703 0.929 . S
H1712 C1720 0.929 . S
H1713 C1722 0.930 . S
H1714 C1724 0.930 . S
H1715 C1727 0.929 . S
H1716 C1730 0.930 . S
H1717 C1732 0.960 . S
H1718 C1732 0.960 . S
H1719 C1732 0.960 . S
C1720 H1712 0.929 . S
C1720 C1721 1.377 . S
C1720 C1722 1.384 . S
C1721 C1720 1.377 . S
C1721 C1727 1.390 . S
C1722 H1713 0.930 . S
C1722 C1720 1.384 . S
C1722 C1723 1.372 . S
C1723 C1722 1.372 . S
C1723 C1724 1.400 . S
C1723 C1728 1.490 . S
C1724 H1714 0.930 . S
C1724 C1723 1.400 . S
C1724 C1727 1.386 . S
H1725 C1741 0.930 . S
H1726 C1742 0.931 . S
C1727 H1715 0.929 . S
C1727 C1721 1.390 . S
C1727 C1724 1.386 . S
C1728 C1723 1.490 . S
C1728 C1730 1.395 . S
C1728 C1731 1.403 . S
H1729 C1735 0.930 . S
C1730 H1716 0.930 . S
C1730 C1728 1.395 . S
C1730 C1733 1.403 . S
C1731 C1728 1.403 . S
C1731 C1732 1.524 . S
C1731 C1735 1.400 . S
C1732 H1717 0.960 . S
C1732 H1718 0.960 . S
C1732 H1719 0.960 . S
C1732 C1731 1.524 . S
C1733 C1730 1.403 . S
C1733 C1734 1.392 . S
C1733 C1737 1.495 . S
C1734 C1733 1.392 . S
C1734 C1735 1.385 . S
C1734 C1736 1.478 . S
C1735 H1729 0.930 . S
C1735 C1731 1.400 . S
C1735 C1734 1.385 . S
C1736 C1734 1.478 . S
C1736 C1738 1.381 . S
C1736 C1742 1.383 . S
C1737 C1733 1.495 . S
C1737 H1743 0.959 . S
C1737 H1744 0.961 . S
C1737 H1745 0.960 . S
C1738 C1736 1.381 . S
C1738 C1739 1.394 . S
C1738 H1746 0.930 . S
C1739 C1738 1.394 . S
C1739 C1740 1.383 . S
C1739 H1747 0.929 . S
C1740 C1739 1.383 . S
C1740 C1741 1.377 . S
C1741 H1725 0.930 . S
C1741 C1740 1.377 . S
C1741 C1742 1.379 . S
C1742 H1726 0.931 . S
C1742 C1736 1.383 . S
C1742 C1741 1.379 . S
H1743 C1737 0.959 . S
H1744 C1737 0.961 . S
H1745 C1737 0.960 . S
H1746 C1738 0.930 . S
H1747 C1739 0.929 . S
H1748 C1756 0.929 . S
H1749 C1758 0.930 . S
H1750 C1760 0.930 . S
H1751 C1763 0.929 . S
H1752 C1766 0.930 . S
H1753 C1768 0.960 . S
H1754 C1768 0.960 . S
H1755 C1768 0.960 . S
C1756 H1748 0.929 . S
C1756 C1757 1.377 . S
C1756 C1758 1.384 . S
C1757 C1756 1.377 . S
C1757 C1763 1.390 . S
C1758 H1749 0.930 . S
C1758 C1756 1.384 . S
C1758 C1759 1.372 . S
C1759 C1758 1.372 . S
C1759 C1760 1.400 . S
C1759 C1764 1.490 . S
C1760 H1750 0.930 . S
C1760 C1759 1.400 . S
C1760 C1763 1.386 . S
H1761 C1777 0.930 . S
H1762 C1778 0.931 . S
C1763 H1751 0.929 . S
C1763 C1757 1.390 . S
C1763 C1760 1.386 . S
C1764 C1759 1.490 . S
C1764 C1766 1.395 . S
C1764 C1767 1.403 . S
H1765 C1771 0.930 . S
C1766 H1752 0.930 . S
C1766 C1764 1.395 . S
C1766 C1769 1.403 . S
C1767 C1764 1.403 . S
C1767 C1768 1.524 . S
C1767 C1771 1.400 . S
C1768 H1753 0.960 . S
C1768 H1754 0.960 . S
C1768 H1755 0.960 . S
C1768 C1767 1.524 . S
C1769 C1766 1.403 . S
C1769 C1770 1.392 . S
C1769 C1773 1.495 . S
C1770 C1769 1.392 . S
C1770 C1771 1.385 . S
C1770 C1772 1.478 . S
C1771 H1765 0.930 . S
C1771 C1767 1.400 . S
C1771 C1770 1.385 . S
C1772 C1770 1.478 . S
C1772 C1774 1.381 . S
C1772 C1778 1.383 . S
C1773 C1769 1.495 . S
C1773 H1779 0.959 . S
C1773 H1780 0.961 . S
C1773 H1781 0.960 . S
C1774 C1772 1.381 . S
C1774 C1775 1.394 . S
C1774 H1782 0.930 . S
C1775 C1774 1.394 . S
C1775 C1776 1.383 . S
C1775 H1783 0.929 . S
C1776 C1775 1.383 . S
C1776 C1777 1.377 . S
C1777 H1761 0.930 . S
C1777 C1776 1.377 . S
C1777 C1778 1.379 . S
C1778 H1762 0.931 . S
C1778 C1772 1.383 . S
C1778 C1777 1.379 . S
H1779 C1773 0.959 . S
H1780 C1773 0.961 . S
H1781 C1773 0.960 . S
H1782 C1774 0.930 . S
H1783 C1775 0.929 . S
H1784 C1792 0.929 . S
H1785 C1794 0.930 . S
H1786 C1796 0.930 . S
H1787 C1799 0.929 . S
H1788 C1802 0.930 . S
H1789 C1804 0.960 . S
H1790 C1804 0.960 . S
H1791 C1804 0.960 . S
C1792 H1784 0.929 . S
C1792 C1793 1.377 . S
C1792 C1794 1.384 . S
C1793 C1792 1.377 . S
C1793 C1799 1.390 . S
C1794 H1785 0.930 . S
C1794 C1792 1.384 . S
C1794 C1795 1.372 . S
C1795 C1794 1.372 . S
C1795 C1796 1.400 . S
C1795 C1800 1.490 . S
C1796 H1786 0.930 . S
C1796 C1795 1.400 . S
C1796 C1799 1.386 . S
H1797 C1813 0.930 . S
H1798 C1814 0.931 . S
C1799 H1787 0.929 . S
C1799 C1793 1.390 . S
C1799 C1796 1.386 . S
C1800 C1795 1.490 . S
C1800 C1802 1.395 . S
C1800 C1803 1.403 . S
H1801 C1807 0.930 . S
C1802 H1788 0.930 . S
C1802 C1800 1.395 . S
C1802 C1805 1.403 . S
C1803 C1800 1.403 . S
C1803 C1804 1.524 . S
C1803 C1807 1.400 . S
C1804 H1789 0.960 . S
C1804 H1790 0.960 . S
C1804 H1791 0.960 . S
C1804 C1803 1.524 . S
C1805 C1802 1.403 . S
C1805 C1806 1.392 . S
C1805 C1809 1.495 . S
C1806 C1805 1.392 . S
C1806 C1807 1.385 . S
C1806 C1808 1.478 . S
C1807 H1801 0.930 . S
C1807 C1803 1.400 . S
C1807 C1806 1.385 . S
C1808 C1806 1.478 . S
C1808 C1810 1.381 . S
C1808 C1814 1.383 . S
C1809 C1805 1.495 . S
C1809 H1815 0.959 . S
C1809 H1816 0.961 . S
C1809 H1817 0.960 . S
C1810 C1808 1.381 . S
C1810 C1811 1.394 . S
C1810 H1818 0.930 . S
C1811 C1810 1.394 . S
C1811 C1812 1.383 . S
C1811 H1819 0.929 . S
C1812 C1811 1.383 . S
C1812 C1813 1.377 . S
C1813 H1797 0.930 . S
C1813 C1812 1.377 . S
C1813 C1814 1.379 . S
C1814 H1798 0.931 . S
C1814 C1808 1.383 . S
C1814 C1813 1.379 . S
H1815 C1809 0.959 . S
H1816 C1809 0.961 . S
H1817 C1809 0.960 . S
H1818 C1810 0.930 . S
H1819 C1811 0.929 . S
H1820 C1828 0.929 . S
H1821 C1830 0.930 . S
H1822 C1832 0.930 . S
H1823 C1835 0.929 . S
H1824 C1838 0.930 . S
H1825 C1840 0.960 . S
H1826 C1840 0.960 . S
H1827 C1840 0.960 . S
C1828 H1820 0.929 . S
C1828 C1829 1.377 . S
C1828 C1830 1.384 . S
C1829 C1828 1.377 . S
C1829 C1835 1.390 . S
C1830 H1821 0.930 . S
C1830 C1828 1.384 . S
C1830 C1831 1.372 . S
C1831 C1830 1.372 . S
C1831 C1832 1.400 . S
C1831 C1836 1.490 . S
C1832 H1822 0.930 . S
C1832 C1831 1.400 . S
C1832 C1835 1.386 . S
H1833 C1849 0.930 . S
H1834 C1850 0.931 . S
C1835 H1823 0.929 . S
C1835 C1829 1.390 . S
C1835 C1832 1.386 . S
C1836 C1831 1.490 . S
C1836 C1838 1.395 . S
C1836 C1839 1.403 . S
H1837 C1843 0.930 . S
C1838 H1824 0.930 . S
C1838 C1836 1.395 . S
C1838 C1841 1.403 . S
C1839 C1836 1.403 . S
C1839 C1840 1.524 . S
C1839 C1843 1.400 . S
C1840 H1825 0.960 . S
C1840 H1826 0.960 . S
C1840 H1827 0.960 . S
C1840 C1839 1.524 . S
C1841 C1838 1.403 . S
C1841 C1842 1.392 . S
C1841 C1845 1.495 . S
C1842 C1841 1.392 . S
C1842 C1843 1.385 . S
C1842 C1844 1.478 . S
C1843 H1837 0.930 . S
C1843 C1839 1.400 . S
C1843 C1842 1.385 . S
C1844 C1842 1.478 . S
C1844 C1846 1.381 . S
C1844 C1850 1.383 . S
C1845 C1841 1.495 . S
C1845 H1851 0.959 . S
C1845 H1852 0.961 . S
C1845 H1853 0.960 . S
C1846 C1844 1.381 . S
C1846 C1847 1.394 . S
C1846 H1854 0.930 . S
C1847 C1846 1.394 . S
C1847 C1848 1.383 . S
C1847 H1855 0.929 . S
C1848 C1847 1.383 . S
C1848 C1849 1.377 . S
C1849 H1833 0.930 . S
C1849 C1848 1.377 . S
C1849 C1850 1.379 . S
C1850 H1834 0.931 . S
C1850 C1844 1.383 . S
C1850 C1849 1.379 . S
H1851 C1845 0.959 . S
H1852 C1845 0.961 . S
H1853 C1845 0.960 . S
H1854 C1846 0.930 . S
H1855 C1847 0.929 . S
H1856 C1864 0.929 . S
H1857 C1866 0.930 . S
H1858 C1868 0.930 . S
H1859 C1871 0.929 . S
H1860 C1874 0.930 . S
H1861 C1876 0.960 . S
H1862 C1876 0.960 . S
H1863 C1876 0.960 . S
C1864 H1856 0.929 . S
C1864 C1865 1.377 . S
C1864 C1866 1.384 . S
C1865 C1864 1.377 . S
C1865 C1871 1.390 . S
C1866 H1857 0.930 . S
C1866 C1864 1.384 . S
C1866 C1867 1.372 . S
C1867 C1866 1.372 . S
C1867 C1868 1.400 . S
C1867 C1872 1.490 . S
C1868 H1858 0.930 . S
C1868 C1867 1.400 . S
C1868 C1871 1.386 . S
H1869 C1885 0.930 . S
H1870 C1886 0.931 . S
C1871 H1859 0.929 . S
C1871 C1865 1.390 . S
C1871 C1868 1.386 . S
C1872 C1867 1.490 . S
C1872 C1874 1.395 . S
C1872 C1875 1.403 . S
H1873 C1879 0.930 . S
C1874 H1860 0.930 . S
C1874 C1872 1.395 . S
C1874 C1877 1.403 . S
C1875 C1872 1.403 . S
C1875 C1876 1.524 . S
C1875 C1879 1.400 . S
C1876 H1861 0.960 . S
C1876 H1862 0.960 . S
C1876 H1863 0.960 . S
C1876 C1875 1.524 . S
C1877 C1874 1.403 . S
C1877 C1878 1.392 . S
C1877 C1881 1.495 . S
C1878 C1877 1.392 . S
C1878 C1879 1.385 . S
C1878 C1880 1.478 . S
C1879 H1873 0.930 . S
C1879 C1875 1.400 . S
C1879 C1878 1.385 . S
C1880 C1878 1.478 . S
C1880 C1882 1.381 . S
C1880 C1886 1.383 . S
C1881 C1877 1.495 . S
C1881 H1887 0.959 . S
C1881 H1888 0.961 . S
C1881 H1889 0.960 . S
C1882 C1880 1.381 . S
C1882 C1883 1.394 . S
C1882 H1890 0.930 . S
C1883 C1882 1.394 . S
C1883 C1884 1.383 . S
C1883 H1891 0.929 . S
C1884 C1883 1.383 . S
C1884 C1885 1.377 . S
C1885 H1869 0.930 . S
C1885 C1884 1.377 . S
C1885 C1886 1.379 . S
C1886 H1870 0.931 . S
C1886 C1880 1.383 . S
C1886 C1885 1.379 . S
H1887 C1881 0.959 . S
H1888 C1881 0.961 . S
H1889 C1881 0.960 . S
H1890 C1882 0.930 . S
H1891 C1883 0.929 . S
H1892 C1900 0.929 . S
H1893 C1902 0.930 . S
H1894 C1904 0.930 . S
H1895 C1907 0.929 . S
H1896 C1910 0.930 . S
H1897 C1912 0.960 . S
H1898 C1912 0.960 . S
H1899 C1912 0.960 . S
C1900 H1892 0.929 . S
C1900 C1901 1.377 . S
C1900 C1902 1.384 . S
C1901 C1900 1.377 . S
C1901 C1907 1.390 . S
C1902 H1893 0.930 . S
C1902 C1900 1.384 . S
C1902 C1903 1.372 . S
C1903 C1902 1.372 . S
C1903 C1904 1.400 . S
C1903 C1908 1.490 . S
C1904 H1894 0.930 . S
C1904 C1903 1.400 . S
C1904 C1907 1.386 . S
H1905 C1921 0.930 . S
H1906 C1922 0.931 . S
C1907 H1895 0.929 . S
C1907 C1901 1.390 . S
C1907 C1904 1.386 . S
C1908 C1903 1.490 . S
C1908 C1910 1.395 . S
C1908 C1911 1.403 . S
H1909 C1915 0.930 . S
C1910 H1896 0.930 . S
C1910 C1908 1.395 . S
C1910 C1913 1.403 . S
C1911 C1908 1.403 . S
C1911 C1912 1.524 . S
C1911 C1915 1.400 . S
C1912 H1897 0.960 . S
C1912 H1898 0.960 . S
C1912 H1899 0.960 . S
C1912 C1911 1.524 . S
C1913 C1910 1.403 . S
C1913 C1914 1.392 . S
C1913 C1917 1.495 . S
C1914 C1913 1.392 . S
C1914 C1915 1.385 . S
C1914 C1916 1.478 . S
C1915 H1909 0.930 . S
C1915 C1911 1.400 . S
C1915 C1914 1.385 . S
C1916 C1914 1.478 . S
C1916 C1918 1.381 . S
C1916 C1922 1.383 . S
C1917 C1913 1.495 . S
C1917 H1923 0.959 . S
C1917 H1924 0.961 . S
C1917 H1925 0.960 . S
C1918 C1916 1.381 . S
C1918 C1919 1.394 . S
C1918 H1926 0.930 . S
C1919 C1918 1.394 . S
C1919 C1920 1.383 . S
C1919 H1927 0.929 . S
C1920 C1919 1.383 . S
C1920 C1921 1.377 . S
C1921 H1905 0.930 . S
C1921 C1920 1.377 . S
C1921 C1922 1.379 . S
C1922 H1906 0.931 . S
C1922 C1916 1.383 . S
C1922 C1921 1.379 . S
H1923 C1917 0.959 . S
H1924 C1917 0.961 . S
H1925 C1917 0.960 . S
H1926 C1918 0.930 . S
H1927 C1919 0.929 . S
H1928 C1936 0.929 . S
H1929 C1938 0.930 . S
H1930 C1940 0.930 . S
H1931 C1943 0.929 . S
H1932 C1946 0.930 . S
H1933 C1948 0.960 . S
H1934 C1948 0.960 . S
H1935 C1948 0.960 . S
C1936 H1928 0.929 . S
C1936 C1937 1.377 . S
C1936 C1938 1.384 . S
C1937 C1936 1.377 . S
C1937 C1943 1.390 . S
C1938 H1929 0.930 . S
C1938 C1936 1.384 . S
C1938 C1939 1.372 . S
C1939 C1938 1.372 . S
C1939 C1940 1.400 . S
C1939 C1944 1.490 . S
C1940 H1930 0.930 . S
C1940 C1939 1.400 . S
C1940 C1943 1.386 . S
H1941 C1957 0.930 . S
H1942 C1958 0.931 . S
C1943 H1931 0.929 . S
C1943 C1937 1.390 . S
C1943 C1940 1.386 . S
C1944 C1939 1.490 . S
C1944 C1946 1.395 . S
C1944 C1947 1.403 . S
H1945 C1951 0.930 . S
C1946 H1932 0.930 . S
C1946 C1944 1.395 . S
C1946 C1949 1.403 . S
C1947 C1944 1.403 . S
C1947 C1948 1.524 . S
C1947 C1951 1.400 . S
C1948 H1933 0.960 . S
C1948 H1934 0.960 . S
C1948 H1935 0.960 . S
C1948 C1947 1.524 . S
C1949 C1946 1.403 . S
C1949 C1950 1.392 . S
C1949 C1953 1.495 . S
C1950 C1949 1.392 . S
C1950 C1951 1.385 . S
C1950 C1952 1.478 . S
C1951 H1945 0.930 . S
C1951 C1947 1.400 . S
C1951 C1950 1.385 . S
C1952 C1950 1.478 . S
C1952 C1954 1.381 . S
C1952 C1958 1.383 . S
C1953 C1949 1.495 . S
C1953 H1959 0.959 . S
C1953 H1960 0.961 . S
C1953 H1961 0.960 . S
C1954 C1952 1.381 . S
C1954 C1955 1.394 . S
C1954 H1962 0.930 . S
C1955 C1954 1.394 . S
C1955 C1956 1.383 . S
C1955 H1963 0.929 . S
C1956 C1955 1.383 . S
C1956 C1957 1.377 . S
C1957 H1941 0.930 . S
C1957 C1956 1.377 . S
C1957 C1958 1.379 . S
C1958 H1942 0.931 . S
C1958 C1952 1.383 . S
C1958 C1957 1.379 . S
H1959 C1953 0.959 . S
H1960 C1953 0.961 . S
H1961 C1953 0.960 . S
H1962 C1954 0.930 . S
H1963 C1955 0.929 . S
H1964 C1972 0.929 . S
H1965 C1974 0.930 . S
H1966 C1976 0.930 . S
H1967 C1979 0.929 . S
H1968 C1982 0.930 . S
H1969 C1984 0.960 . S
H1970 C1984 0.960 . S
H1971 C1984 0.960 . S
C1972 H1964 0.929 . S
C1972 C1973 1.377 . S
C1972 C1974 1.384 . S
C1973 C1972 1.377 . S
C1973 C1979 1.390 . S
C1974 H1965 0.930 . S
C1974 C1972 1.384 . S
C1974 C1975 1.372 . S
C1975 C1974 1.372 . S
C1975 C1976 1.400 . S
C1975 C1980 1.490 . S
C1976 H1966 0.930 . S
C1976 C1975 1.400 . S
C1976 C1979 1.386 . S
H1977 C1993 0.930 . S
H1978 C1994 0.931 . S
C1979 H1967 0.929 . S
C1979 C1973 1.390 . S
C1979 C1976 1.386 . S
C1980 C1975 1.490 . S
C1980 C1982 1.395 . S
C1980 C1983 1.403 . S
H1981 C1987 0.930 . S
C1982 H1968 0.930 . S
C1982 C1980 1.395 . S
C1982 C1985 1.403 . S
C1983 C1980 1.403 . S
C1983 C1984 1.524 . S
C1983 C1987 1.400 . S
C1984 H1969 0.960 . S
C1984 H1970 0.960 . S
C1984 H1971 0.960 . S
C1984 C1983 1.524 . S
C1985 C1982 1.403 . S
C1985 C1986 1.392 . S
C1985 C1989 1.495 . S
C1986 C1985 1.392 . S
C1986 C1987 1.385 . S
C1986 C1988 1.478 . S
C1987 H1981 0.930 . S
C1987 C1983 1.400 . S
C1987 C1986 1.385 . S
C1988 C1986 1.478 . S
C1988 C1990 1.381 . S
C1988 C1994 1.383 . S
C1989 C1985 1.495 . S
C1989 H1995 0.959 . S
C1989 H1996 0.961 . S
C1989 H1997 0.960 . S
C1990 C1988 1.381 . S
C1990 C1991 1.394 . S
C1990 H1998 0.930 . S
C1991 C1990 1.394 . S
C1991 C1992 1.383 . S
C1991 H1999 0.929 . S
C1992 C1991 1.383 . S
C1992 C1993 1.377 . S
C1993 H1977 0.930 . S
C1993 C1992 1.377 . S
C1993 C1994 1.379 . S
C1994 H1978 0.931 . S
C1994 C1988 1.383 . S
C1994 C1993 1.379 . S
H1995 C1989 0.959 . S
H1996 C1989 0.961 . S
H1997 C1989 0.960 . S
H1998 C1990 0.930 . S
H1999 C1991 0.929 . S
H2000 C2008 0.929 . S
H2001 C2010 0.930 . S
H2002 C2012 0.930 . S
H2003 C2015 0.929 . S
H2004 C2018 0.930 . S
H2005 C2020 0.960 . S
H2006 C2020 0.960 . S
H2007 C2020 0.960 . S
C2008 H2000 0.929 . S
C2008 C2009 1.377 . S
C2008 C2010 1.384 . S
C2009 C2008 1.377 . S
C2009 C2015 1.390 . S
C2010 H2001 0.930 . S
C2010 C2008 1.384 . S
C2010 C2011 1.372 . S
C2011 C2010 1.372 . S
C2011 C2012 1.400 . S
C2011 C2016 1.490 . S
C2012 H2002 0.930 . S
C2012 C2011 1.400 . S
C2012 C2015 1.386 . S
H2013 C2029 0.930 . S
H2014 C2030 0.931 . S
C2015 H2003 0.929 . S
C2015 C2009 1.390 . S
C2015 C2012 1.386 . S
C2016 C2011 1.490 . S
C2016 C2018 1.395 . S
C2016 C2019 1.403 . S
H2017 C2023 0.930 . S
C2018 H2004 0.930 . S
C2018 C2016 1.395 . S
C2018 C2021 1.403 . S
C2019 C2016 1.403 . S
C2019 C2020 1.524 . S
C2019 C2023 1.400 . S
C2020 H2005 0.960 . S
C2020 H2006 0.960 . S
C2020 H2007 0.960 . S
C2020 C2019 1.524 . S
C2021 C2018 1.403 . S
C2021 C2022 1.392 . S
C2021 C2025 1.495 . S
C2022 C2021 1.392 . S
C2022 C2023 1.385 . S
C2022 C2024 1.478 . S
C2023 H2017 0.930 . S
C2023 C2019 1.400 . S
C2023 C2022 1.385 . S
C2024 C2022 1.478 . S
C2024 C2026 1.381 . S
C2024 C2030 1.383 . S
C2025 C2021 1.495 . S
C2025 H2031 0.959 . S
C2025 H2032 0.961 . S
C2025 H2033 0.960 . S
C2026 C2024 1.381 . S
C2026 C2027 1.394 . S
C2026 H2034 0.930 . S
C2027 C2026 1.394 . S
C2027 C2028 1.383 . S
C2027 H2035 0.929 . S
C2028 C2027 1.383 . S
C2028 C2029 1.377 . S
C2029 H2013 0.930 . S
C2029 C2028 1.377 . S
C2029 C2030 1.379 . S
C2030 H2014 0.931 . S
C2030 C2024 1.383 . S
C2030 C2029 1.379 . S
H2031 C2025 0.959 . S
H2032 C2025 0.961 . S
H2033 C2025 0.960 . S
H2034 C2026 0.930 . S
H2035 C2027 0.929 . S
H2036 C2044 0.929 . S
H2037 C2046 0.930 . S
H2038 C2048 0.930 . S
H2039 C2051 0.929 . S
H2040 C2054 0.930 . S
H2041 C2056 0.960 . S
H2042 C2056 0.960 . S
H2043 C2056 0.960 . S
C2044 H2036 0.929 . S
C2044 C2045 1.377 . S
C2044 C2046 1.384 . S
C2045 C2044 1.377 . S
C2045 C2051 1.390 . S
C2046 H2037 0.930 . S
C2046 C2044 1.384 . S
C2046 C2047 1.372 . S
C2047 C2046 1.372 . S
C2047 C2048 1.400 . S
C2047 C2052 1.490 . S
C2048 H2038 0.930 . S
C2048 C2047 1.400 . S
C2048 C2051 1.386 . S
H2049 C2065 0.930 . S
H2050 C2066 0.931 . S
C2051 H2039 0.929 . S
C2051 C2045 1.390 . S
C2051 C2048 1.386 . S
C2052 C2047 1.490 . S
C2052 C2054 1.395 . S
C2052 C2055 1.403 . S
H2053 C2059 0.930 . S
C2054 H2040 0.930 . S
C2054 C2052 1.395 . S
C2054 C2057 1.403 . S
C2055 C2052 1.403 . S
C2055 C2056 1.524 . S
C2055 C2059 1.400 . S
C2056 H2041 0.960 . S
C2056 H2042 0.960 . S
C2056 H2043 0.960 . S
C2056 C2055 1.524 . S
C2057 C2054 1.403 . S
C2057 C2058 1.392 . S
C2057 C2061 1.495 . S
C2058 C2057 1.392 . S
C2058 C2059 1.385 . S
C2058 C2060 1.478 . S
C2059 H2053 0.930 . S
C2059 C2055 1.400 . S
C2059 C2058 1.385 . S
C2060 C2058 1.478 . S
C2060 C2062 1.381 . S
C2060 C2066 1.383 . S
C2061 C2057 1.495 . S
C2061 H2067 0.959 . S
C2061 H2068 0.961 . S
C2061 H2069 0.960 . S
C2062 C2060 1.381 . S
C2062 C2063 1.394 . S
C2062 H2070 0.930 . S
C2063 C2062 1.394 . S
C2063 C2064 1.383 . S
C2063 H2071 0.929 . S
C2064 C2063 1.383 . S
C2064 C2065 1.377 . S
C2065 H2049 0.930 . S
C2065 C2064 1.377 . S
C2065 C2066 1.379 . S
C2066 H2050 0.931 . S
C2066 C2060 1.383 . S
C2066 C2065 1.379 . S
H2067 C2061 0.959 . S
H2068 C2061 0.961 . S
H2069 C2061 0.960 . S
H2070 C2062 0.930 . S
H2071 C2063 0.929 . S
H2072 C2080 0.929 . S
H2073 C2082 0.930 . S
H2074 C2084 0.930 . S
H2075 C2087 0.929 . S
H2076 C2090 0.930 . S
H2077 C2092 0.960 . S
H2078 C2092 0.960 . S
H2079 C2092 0.960 . S
C2080 H2072 0.929 . S
C2080 C2081 1.377 . S
C2080 C2082 1.384 . S
C2081 C2080 1.377 . S
C2081 C2087 1.390 . S
C2082 H2073 0.930 . S
C2082 C2080 1.384 . S
C2082 C2083 1.372 . S
C2083 C2082 1.372 . S
C2083 C2084 1.400 . S
C2083 C2088 1.490 . S
C2084 H2074 0.930 . S
C2084 C2083 1.400 . S
C2084 C2087 1.386 . S
H2085 C2101 0.930 . S
H2086 C2102 0.931 . S
C2087 H2075 0.929 . S
C2087 C2081 1.390 . S
C2087 C2084 1.386 . S
C2088 C2083 1.490 . S
C2088 C2090 1.395 . S
C2088 C2091 1.403 . S
H2089 C2095 0.930 . S
C2090 H2076 0.930 . S
C2090 C2088 1.395 . S
C2090 C2093 1.403 . S
C2091 C2088 1.403 . S
C2091 C2092 1.524 . S
C2091 C2095 1.400 . S
C2092 H2077 0.960 . S
C2092 H2078 0.960 . S
C2092 H2079 0.960 . S
C2092 C2091 1.524 . S
C2093 C2090 1.403 . S
C2093 C2094 1.392 . S
C2093 C2097 1.495 . S
C2094 C2093 1.392 . S
C2094 C2095 1.385 . S
C2094 C2096 1.478 . S
C2095 H2089 0.930 . S
C2095 C2091 1.400 . S
C2095 C2094 1.385 . S
C2096 C2094 1.478 . S
C2096 C2098 1.381 . S
C2096 C2102 1.383 . S
C2097 C2093 1.495 . S
C2097 H2103 0.959 . S
C2097 H2104 0.961 . S
C2097 H2105 0.960 . S
C2098 C2096 1.381 . S
C2098 C2099 1.394 . S
C2098 H2106 0.930 . S
C2099 C2098 1.394 . S
C2099 C2100 1.383 . S
C2099 H2107 0.929 . S
C2100 C2099 1.383 . S
C2100 C2101 1.377 . S
C2101 H2085 0.930 . S
C2101 C2100 1.377 . S
C2101 C2102 1.379 . S
C2102 H2086 0.931 . S
C2102 C2096 1.383 . S
C2102 C2101 1.379 . S
H2103 C2097 0.959 . S
H2104 C2097 0.961 . S
H2105 C2097 0.960 . S
H2106 C2098 0.930 . S
H2107 C2099 0.929 . S
H2108 C2116 0.929 . S
H2109 C2118 0.930 . S
H2110 C2120 0.930 . S
H2111 C2123 0.929 . S
H2112 C2126 0.930 . S
H2113 C2128 0.960 . S
H2114 C2128 0.960 . S
H2115 C2128 0.960 . S
C2116 H2108 0.929 . S
C2116 C2117 1.377 . S
C2116 C2118 1.384 . S
C2117 C2116 1.377 . S
C2117 C2123 1.390 . S
C2118 H2109 0.930 . S
C2118 C2116 1.384 . S
C2118 C2119 1.372 . S
C2119 C2118 1.372 . S
C2119 C2120 1.400 . S
C2119 C2124 1.490 . S
C2120 H2110 0.930 . S
C2120 C2119 1.400 . S
C2120 C2123 1.386 . S
H2121 C2137 0.930 . S
H2122 C2138 0.931 . S
C2123 H2111 0.929 . S
C2123 C2117 1.390 . S
C2123 C2120 1.386 . S
C2124 C2119 1.490 . S
C2124 C2126 1.395 . S
C2124 C2127 1.403 . S
H2125 C2131 0.930 . S
C2126 H2112 0.930 . S
C2126 C2124 1.395 . S
C2126 C2129 1.403 . S
C2127 C2124 1.403 . S
C2127 C2128 1.524 . S
C2127 C2131 1.400 . S
C2128 H2113 0.960 . S
C2128 H2114 0.960 . S
C2128 H2115 0.960 . S
C2128 C2127 1.524 . S
C2129 C2126 1.403 . S
C2129 C2130 1.392 . S
C2129 C2133 1.495 . S
C2130 C2129 1.392 . S
C2130 C2131 1.385 . S
C2130 C2132 1.478 . S
C2131 H2125 0.930 . S
C2131 C2127 1.400 . S
C2131 C2130 1.385 . S
C2132 C2130 1.478 . S
C2132 C2134 1.381 . S
C2132 C2138 1.383 . S
C2133 C2129 1.495 . S
C2133 H2139 0.959 . S
C2133 H2140 0.961 . S
C2133 H2141 0.960 . S
C2134 C2132 1.381 . S
C2134 C2135 1.394 . S
C2134 H2142 0.930 . S
C2135 C2134 1.394 . S
C2135 C2136 1.383 . S
C2135 H2143 0.929 . S
C2136 C2135 1.383 . S
C2136 C2137 1.377 . S
C2137 H2121 0.930 . S
C2137 C2136 1.377 . S
C2137 C2138 1.379 . S
C2138 H2122 0.931 . S
C2138 C2132 1.383 . S
C2138 C2137 1.379 . S
H2139 C2133 0.959 . S
H2140 C2133 0.961 . S
H2141 C2133 0.960 . S
H2142 C2134 0.930 . S
H2143 C2135 0.929 . S
H2144 C2152 0.929 . S
H2145 C2154 0.930 . S
H2146 C2156 0.930 . S
H2147 C2159 0.929 . S
H2148 C2162 0.930 . S
H2149 C2164 0.960 . S
H2150 C2164 0.960 . S
H2151 C2164 0.960 . S
C2152 H2144 0.929 . S
C2152 C2153 1.377 . S
C2152 C2154 1.384 . S
C2153 C2152 1.377 . S
C2153 C2159 1.390 . S
C2154 H2145 0.930 . S
C2154 C2152 1.384 . S
C2154 C2155 1.372 . S
C2155 C2154 1.372 . S
C2155 C2156 1.400 . S
C2155 C2160 1.490 . S
C2156 H2146 0.930 . S
C2156 C2155 1.400 . S
C2156 C2159 1.386 . S
H2157 C2173 0.930 . S
H2158 C2174 0.931 . S
C2159 H2147 0.929 . S
C2159 C2153 1.390 . S
C2159 C2156 1.386 . S
C2160 C2155 1.490 . S
C2160 C2162 1.395 . S
C2160 C2163 1.403 . S
H2161 C2167 0.930 . S
C2162 H2148 0.930 . S
C2162 C2160 1.395 . S
C2162 C2165 1.403 . S
C2163 C2160 1.403 . S
C2163 C2164 1.524 . S
C2163 C2167 1.400 . S
C2164 H2149 0.960 . S
C2164 H2150 0.960 . S
C2164 H2151 0.960 . S
C2164 C2163 1.524 . S
C2165 C2162 1.403 . S
C2165 C2166 1.392 . S
C2165 C2169 1.495 . S
C2166 C2165 1.392 . S
C2166 C2167 1.385 . S
C2166 C2168 1.478 . S
C2167 H2161 0.930 . S
C2167 C2163 1.400 . S
C2167 C2166 1.385 . S
C2168 C2166 1.478 . S
C2168 C2170 1.381 . S
C2168 C2174 1.383 . S
C2169 C2165 1.495 . S
C2169 H2175 0.959 . S
C2169 H2176 0.961 . S
C2169 H2177 0.960 . S
C2170 C2168 1.381 . S
C2170 C2171 1.394 . S
C2170 H2178 0.930 . S
C2171 C2170 1.394 . S
C2171 C2172 1.383 . S
C2171 H2179 0.929 . S
C2172 C2171 1.383 . S
C2172 C2173 1.377 . S
C2173 H2157 0.930 . S
C2173 C2172 1.377 . S
C2173 C2174 1.379 . S
C2174 H2158 0.931 . S
C2174 C2168 1.383 . S
C2174 C2173 1.379 . S
H2175 C2169 0.959 . S
H2176 C2169 0.961 . S
H2177 C2169 0.960 . S
H2178 C2170 0.930 . S
H2179 C2171 0.929 . S
H2180 C2188 0.929 . S
H2181 C2190 0.930 . S
H2182 C2192 0.930 . S
H2183 C2195 0.929 . S
H2184 C2198 0.930 . S
H2185 C2200 0.960 . S
H2186 C2200 0.960 . S
H2187 C2200 0.960 . S
C2188 H2180 0.929 . S
C2188 C2189 1.377 . S
C2188 C2190 1.384 . S
C2189 C2188 1.377 . S
C2189 C2195 1.390 . S
C2190 H2181 0.930 . S
C2190 C2188 1.384 . S
C2190 C2191 1.372 . S
C2191 C2190 1.372 . S
C2191 C2192 1.400 . S
C2191 C2196 1.490 . S
C2192 H2182 0.930 . S
C2192 C2191 1.400 . S
C2192 C2195 1.386 . S
H2193 C2209 0.930 . S
H2194 C2210 0.931 . S
C2195 H2183 0.929 . S
C2195 C2189 1.390 . S
C2195 C2192 1.386 . S
C2196 C2191 1.490 . S
C2196 C2198 1.395 . S
C2196 C2199 1.403 . S
H2197 C2203 0.930 . S
C2198 H2184 0.930 . S
C2198 C2196 1.395 . S
C2198 C2201 1.403 . S
C2199 C2196 1.403 . S
C2199 C2200 1.524 . S
C2199 C2203 1.400 . S
C2200 H2185 0.960 . S
C2200 H2186 0.960 . S
C2200 H2187 0.960 . S
C2200 C2199 1.524 . S
C2201 C2198 1.403 . S
C2201 C2202 1.392 . S
C2201 C2205 1.495 . S
C2202 C2201 1.392 . S
C2202 C2203 1.385 . S
C2202 C2204 1.478 . S
C2203 H2197 0.930 . S
C2203 C2199 1.400 . S
C2203 C2202 1.385 . S
C2204 C2202 1.478 . S
C2204 C2206 1.381 . S
C2204 C2210 1.383 . S
C2205 C2201 1.495 . S
C2205 H2211 0.959 . S
C2205 H2212 0.961 . S
C2205 H2213 0.960 . S
C2206 C2204 1.381 . S
C2206 C2207 1.394 . S
C2206 H2214 0.930 . S
C2207 C2206 1.394 . S
C2207 C2208 1.383 . S
C2207 H2215 0.929 . S
C2208 C2207 1.383 . S
C2208 C2209 1.377 . S
C2209 H2193 0.930 . S
C2209 C2208 1.377 . S
C2209 C2210 1.379 . S
C2210 H2194 0.931 . S
C2210 C2204 1.383 . S
C2210 C2209 1.379 . S
H2211 C2205 0.959 . S
H2212 C2205 0.961 . S
H2213 C2205 0.960 . S
H2214 C2206 0.930 . S
H2215 C2207 0.929 . S
H2216 C2224 0.929 . S
H2217 C2226 0.930 . S
H2218 C2228 0.930 . S
H2219 C2231 0.929 . S
H2220 C2234 0.930 . S
H2221 C2236 0.960 . S
H2222 C2236 0.960 . S
H2223 C2236 0.960 . S
C2224 H2216 0.929 . S
C2224 C2225 1.377 . S
C2224 C2226 1.384 . S
C2225 C2224 1.377 . S
C2225 C2231 1.390 . S
C2226 H2217 0.930 . S
C2226 C2224 1.384 . S
C2226 C2227 1.372 . S
C2227 C2226 1.372 . S
C2227 C2228 1.400 . S
C2227 C2232 1.490 . S
C2228 H2218 0.930 . S
C2228 C2227 1.400 . S
C2228 C2231 1.386 . S
H2229 C2245 0.930 . S
H2230 C2246 0.931 . S
C2231 H2219 0.929 . S
C2231 C2225 1.390 . S
C2231 C2228 1.386 . S
C2232 C2227 1.490 . S
C2232 C2234 1.395 . S
C2232 C2235 1.403 . S
H2233 C2239 0.930 . S
C2234 H2220 0.930 . S
C2234 C2232 1.395 . S
C2234 C2237 1.403 . S
C2235 C2232 1.403 . S
C2235 C2236 1.524 . S
C2235 C2239 1.400 . S
C2236 H2221 0.960 . S
C2236 H2222 0.960 . S
C2236 H2223 0.960 . S
C2236 C2235 1.524 . S
C2237 C2234 1.403 . S
C2237 C2238 1.392 . S
C2237 C2241 1.495 . S
C2238 C2237 1.392 . S
C2238 C2239 1.385 . S
C2238 C2240 1.478 . S
C2239 H2233 0.930 . S
C2239 C2235 1.400 . S
C2239 C2238 1.385 . S
C2240 C2238 1.478 . S
C2240 C2242 1.381 . S
C2240 C2246 1.383 . S
C2241 C2237 1.495 . S
C2241 H2247 0.959 . S
C2241 H2248 0.961 . S
C2241 H2249 0.960 . S
C2242 C2240 1.381 . S
C2242 C2243 1.394 . S
C2242 H2250 0.930 . S
C2243 C2242 1.394 . S
C2243 C2244 1.383 . S
C2243 H2251 0.929 . S
C2244 C2243 1.383 . S
C2244 C2245 1.377 . S
C2245 H2229 0.930 . S
C2245 C2244 1.377 . S
C2245 C2246 1.379 . S
C2246 H2230 0.931 . S
C2246 C2240 1.383 . S
C2246 C2245 1.379 . S
H2247 C2241 0.959 . S
H2248 C2241 0.961 . S
H2249 C2241 0.960 . S
H2250 C2242 0.930 . S
H2251 C2243 0.929 . S
H2252 C2260 0.929 . S
H2253 C2262 0.930 . S
H2254 C2264 0.930 . S
H2255 C2267 0.929 . S
H2256 C2270 0.930 . S
H2257 C2272 0.960 . S
H2258 C2272 0.960 . S
H2259 C2272 0.960 . S
C2260 H2252 0.929 . S
C2260 C2261 1.377 . S
C2260 C2262 1.384 . S
C2261 C2260 1.377 . S
C2261 C2267 1.390 . S
C2262 H2253 0.930 . S
C2262 C2260 1.384 . S
C2262 C2263 1.372 . S
C2263 C2262 1.372 . S
C2263 C2264 1.400 . S
C2263 C2268 1.490 . S
C2264 H2254 0.930 . S
C2264 C2263 1.400 . S
C2264 C2267 1.386 . S
H2265 C2281 0.930 . S
H2266 C2282 0.931 . S
C2267 H2255 0.929 . S
C2267 C2261 1.390 . S
C2267 C2264 1.386 . S
C2268 C2263 1.490 . S
C2268 C2270 1.395 . S
C2268 C2271 1.403 . S
H2269 C2275 0.930 . S
C2270 H2256 0.930 . S
C2270 C2268 1.395 . S
C2270 C2273 1.403 . S
C2271 C2268 1.403 . S
C2271 C2272 1.524 . S
C2271 C2275 1.400 . S
C2272 H2257 0.960 . S
C2272 H2258 0.960 . S
C2272 H2259 0.960 . S
C2272 C2271 1.524 . S
C2273 C2270 1.403 . S
C2273 C2274 1.392 . S
C2273 C2277 1.495 . S
C2274 C2273 1.392 . S
C2274 C2275 1.385 . S
C2274 C2276 1.478 . S
C2275 H2269 0.930 . S
C2275 C2271 1.400 . S
C2275 C2274 1.385 . S
C2276 C2274 1.478 . S
C2276 C2278 1.381 . S
C2276 C2282 1.383 . S
C2277 C2273 1.495 . S
C2277 H2283 0.959 . S
C2277 H2284 0.961 . S
C2277 H2285 0.960 . S
C2278 C2276 1.381 . S
C2278 C2279 1.394 . S
C2278 H2286 0.930 . S
C2279 C2278 1.394 . S
C2279 C2280 1.383 . S
C2279 H2287 0.929 . S
C2280 C2279 1.383 . S
C2280 C2281 1.377 . S
C2281 H2265 0.930 . S
C2281 C2280 1.377 . S
C2281 C2282 1.379 . S
C2282 H2266 0.931 . S
C2282 C2276 1.383 . S
C2282 C2281 1.379 . S
H2283 C2277 0.959 . S
H2284 C2277 0.961 . S
H2285 C2277 0.960 . S
H2286 C2278 0.930 . S
H2287 C2279 0.929 . S
H2288 C2296 0.929 . S
H2289 C2298 0.930 . S
H2290 C2300 0.930 . S
H2291 C2303 0.929 . S
H2292 C2306 0.930 . S
H2293 C2308 0.960 . S
H2294 C2308 0.960 . S
H2295 C2308 0.960 . S
C2296 H2288 0.929 . S
C2296 C2297 1.377 . S
C2296 C2298 1.384 . S
C2297 C2296 1.377 . S
C2297 C2303 1.390 . S
C2298 H2289 0.930 . S
C2298 C2296 1.384 . S
C2298 C2299 1.372 . S
C2299 C2298 1.372 . S
C2299 C2300 1.400 . S
C2299 C2304 1.490 . S
C2300 H2290 0.930 . S
C2300 C2299 1.400 . S
C2300 C2303 1.386 . S
H2301 C2317 0.930 . S
H2302 C2318 0.931 . S
C2303 H2291 0.929 . S
C2303 C2297 1.390 . S
C2303 C2300 1.386 . S
C2304 C2299 1.490 . S
C2304 C2306 1.395 . S
C2304 C2307 1.403 . S
H2305 C2311 0.930 . S
C2306 H2292 0.930 . S
C2306 C2304 1.395 . S
C2306 C2309 1.403 . S
C2307 C2304 1.403 . S
C2307 C2308 1.524 . S
C2307 C2311 1.400 . S
C2308 H2293 0.960 . S
C2308 H2294 0.960 . S
C2308 H2295 0.960 . S
C2308 C2307 1.524 . S
C2309 C2306 1.403 . S
C2309 C2310 1.392 . S
C2309 C2313 1.495 . S
C2310 C2309 1.392 . S
C2310 C2311 1.385 . S
C2310 C2312 1.478 . S
C2311 H2305 0.930 . S
C2311 C2307 1.400 . S
C2311 C2310 1.385 . S
C2312 C2310 1.478 . S
C2312 C2314 1.381 . S
C2312 C2318 1.383 . S
C2313 C2309 1.495 . S
C2313 H2319 0.959 . S
C2313 H2320 0.961 . S
C2313 H2321 0.960 . S
C2314 C2312 1.381 . S
C2314 C2315 1.394 . S
C2314 H2322 0.930 . S
C2315 C2314 1.394 . S
C2315 C2316 1.383 . S
C2315 H2323 0.929 . S
C2316 C2315 1.383 . S
C2316 C2317 1.377 . S
C2317 H2301 0.930 . S
C2317 C2316 1.377 . S
C2317 C2318 1.379 . S
C2318 H2302 0.931 . S
C2318 C2312 1.383 . S
C2318 C2317 1.379 . S
H2319 C2313 0.959 . S
H2320 C2313 0.961 . S
H2321 C2313 0.960 . S
H2322 C2314 0.930 . S
H2323 C2315 0.929 . S
C624 C282 1.414 . S
C605 N2 1.394 . S
C660 C325 2.823 . S
C641 C7 2.847 . S
C696 C371 1.687 . S
C677 N12 1.607 . S
C713 C16 1.857 . S
C732 C414 1.884 . S
C768 C454 2.907 . S
C749 C30 2.919 1_565 S
C804 C482 1.501 . S
C785 N35 1.451 . S
C821 C39 2.022 . S
C840 C525 1.991 . S
C876 C571 1.247 . S
C857 N25 1.204 . S
C912 C286 1.183 . S
C893 N58 1.153 . S
C929 N81 1.860 . S
C948 C335 1.863 . S
C984 C365 1.404 . S
C965 N104 1.390 . S
C1001 N127 1.069 . S
C1020 C402 1.096 . S
C1056 C442 0.691 . S
C1037 N48 0.677 . S
C1092 C486 1.605 . S
C1073 N71 1.587 1_556 S
C1109 N94 1.068 . S
C1128 C535 1.086 . S
C1164 C565 2.031 . S
C1145 N117 2.037 . S
C1181 C85 2.565 . S
C1200 C294 2.513 . S
C1217 C122 2.346 . S
C1236 C446 2.312 . S
C1253 C53 2.039 . S
C1272 C494 1.948 . S
C1308 C531 1.313 . S
C1289 C76 1.328 1_655 S
C1344 C575 1.763 . S
C1325 C99 1.762 . S
C1380 C375 2.009 . S
C1361 C131 2.007 . S
C1416 C406 1.403 . S
C1397 C62 1.439 1_565 S
C1433 C108 0.954 . S
C1452 C331 0.927 . S
C1488 C562 1.474 . S
C1469 N140 1.454 . S
C1505 C145 2.846 . S
C1524 C445 2.803 . S
C1560 C491 1.568 . S
C1541 N150 1.495 . S
C1577 C154 1.856 . S
C1596 C534 1.858 . S
C1632 C334 2.889 . S
C1613 C168 2.921 . S
C1649 N173 1.340 . S
C1668 C362 1.383 . S
C1704 C405 1.990 . S
C1685 C177 2.025 . S
C1740 C291 1.347 . S
C1721 N163 1.249 . S
C1776 C566 1.652 . S
C1757 C200 1.646 . S
C1812 C455 2.146 . S
C1793 N219 2.154 . S
C1829 N242 1.645 . S
C1848 C485 1.685 . S
C1884 C522 1.298 . S
C1865 C269 1.354 . S
C1920 C322 1.003 . S
C1901 C191 0.994 . S
C1937 N209 1.839 . S
C1956 C366 1.880 . S
C1973 N232 1.385 . S
C1992 C415 1.354 . S
C2009 C260 2.577 . S
C2028 C285 2.507 . S
C2045 C223 2.274 . S
C2064 C574 2.204 . S
C2081 N255 1.881 . S
C2100 C326 1.903 . S
C2117 N186 1.514 . S
C2136 C374 1.523 . S
C2172 C411 1.018 . S
C2153 C214 1.025 . S
C2208 C295 1.454 . S
C2189 C237 1.449 . S
C2244 C495 1.606 . S
C2225 N265 1.535 . S
C2280 C526 1.046 . S
C2261 N196 1.071 . S
C2316 C451 0.632 . S
C2297 C246 0.659 . S
