# Generated by pormake.
# Topology gar, (4,6)-cn, num edge types: 1
# Building blocks:
#     Node 0, Type 0, BuildingBlock: QUQFOY_clean_sbu_1, # of connection points: 4
#     Node 1, Type 0, BuildingBlock: QUQFOY_clean_sbu_1, # of connection points: 4
#     Node 2, Type 0, BuildingBlock: QUQFOY_clean_sbu_1, # of connection points: 4
#     Node 3, Type 0, BuildingBlock: QUQFOY_clean_sbu_1, # of connection points: 4
#     Node 4, Type 0, BuildingBlock: QUQFOY_clean_sbu_1, # of connection points: 4
#     Node 5, Type 0, BuildingBlock: QUQFOY_clean_sbu_1, # of connection points: 4
#     Node 6, Type 0, BuildingBlock: QUQFOY_clean_sbu_1, # of connection points: 4
#     Node 7, Type 0, BuildingBlock: QUQFOY_clean_sbu_1, # of connection points: 4
#     Node 8, Type 0, BuildingBlock: QUQFOY_clean_sbu_1, # of connection points: 4
#     Node 9, Type 0, BuildingBlock: QUQFOY_clean_sbu_1, # of connection points: 4
#     Node 10, Type 0, BuildingBlock: QUQFOY_clean_sbu_1, # of connection points: 4
#     Node 11, Type 0, BuildingBlock: QUQFOY_clean_sbu_1, # of connection points: 4
#     Node 12, Type 0, BuildingBlock: QUQFOY_clean_sbu_1, # of connection points: 4
#     Node 13, Type 0, BuildingBlock: QUQFOY_clean_sbu_1, # of connection points: 4
#     Node 14, Type 0, BuildingBlock: QUQFOY_clean_sbu_1, # of connection points: 4
#     Node 15, Type 0, BuildingBlock: QUQFOY_clean_sbu_1, # of connection points: 4
#     Node 16, Type 0, BuildingBlock: QUQFOY_clean_sbu_1, # of connection points: 4
#     Node 17, Type 0, BuildingBlock: QUQFOY_clean_sbu_1, # of connection points: 4
#     Node 18, Type 0, BuildingBlock: QUQFOY_clean_sbu_1, # of connection points: 4
#     Node 19, Type 0, BuildingBlock: QUQFOY_clean_sbu_1, # of connection points: 4
#     Node 20, Type 0, BuildingBlock: QUQFOY_clean_sbu_1, # of connection points: 4
#     Node 21, Type 0, BuildingBlock: QUQFOY_clean_sbu_1, # of connection points: 4
#     Node 22, Type 0, BuildingBlock: QUQFOY_clean_sbu_1, # of connection points: 4
#     Node 23, Type 0, BuildingBlock: QUQFOY_clean_sbu_1, # of connection points: 4
#     Node 24, Type 1, BuildingBlock: INOVEN_clean_sbu_0, # of connection points: 6
#     Node 25, Type 1, BuildingBlock: INOVEN_clean_sbu_0, # of connection points: 6
#     Node 26, Type 1, BuildingBlock: INOVEN_clean_sbu_0, # of connection points: 6
#     Node 27, Type 1, BuildingBlock: INOVEN_clean_sbu_0, # of connection points: 6
#     Node 28, Type 1, BuildingBlock: INOVEN_clean_sbu_0, # of connection points: 6
#     Node 29, Type 1, BuildingBlock: INOVEN_clean_sbu_0, # of connection points: 6
#     Node 30, Type 1, BuildingBlock: INOVEN_clean_sbu_0, # of connection points: 6
#     Node 31, Type 1, BuildingBlock: INOVEN_clean_sbu_0, # of connection points: 6
#     Node 32, Type 1, BuildingBlock: INOVEN_clean_sbu_0, # of connection points: 6
#     Node 33, Type 1, BuildingBlock: INOVEN_clean_sbu_0, # of connection points: 6
#     Node 34, Type 1, BuildingBlock: INOVEN_clean_sbu_0, # of connection points: 6
#     Node 35, Type 1, BuildingBlock: INOVEN_clean_sbu_0, # of connection points: 6
#     Node 36, Type 1, BuildingBlock: INOVEN_clean_sbu_0, # of connection points: 6
#     Node 37, Type 1, BuildingBlock: INOVEN_clean_sbu_0, # of connection points: 6
#     Node 38, Type 1, BuildingBlock: INOVEN_clean_sbu_0, # of connection points: 6
#     Node 39, Type 1, BuildingBlock: INOVEN_clean_sbu_0, # of connection points: 6
#     Edge 40, Type (0, 1), BuildingBlock: UVAHIK_clean_linker_0, # of connection points: 2
#     Edge 41, Type (0, 1), BuildingBlock: UVAHIK_clean_linker_0, # of connection points: 2
#     Edge 42, Type (0, 1), BuildingBlock: UVAHIK_clean_linker_0, # of connection points: 2
#     Edge 43, Type (0, 1), BuildingBlock: UVAHIK_clean_linker_0, # of connection points: 2
#     Edge 44, Type (0, 1), BuildingBlock: UVAHIK_clean_linker_0, # of connection points: 2
#     Edge 45, Type (0, 1), BuildingBlock: UVAHIK_clean_linker_0, # of connection points: 2
#     Edge 46, Type (0, 1), BuildingBlock: UVAHIK_clean_linker_0, # of connection points: 2
#     Edge 47, Type (0, 1), BuildingBlock: UVAHIK_clean_linker_0, # of connection points: 2
#     Edge 48, Type (0, 1), BuildingBlock: UVAHIK_clean_linker_0, # of connection points: 2
#     Edge 49, Type (0, 1), BuildingBlock: UVAHIK_clean_linker_0, # of connection points: 2
#     Edge 50, Type (0, 1), BuildingBlock: UVAHIK_clean_linker_0, # of connection points: 2
#     Edge 51, Type (0, 1), BuildingBlock: UVAHIK_clean_linker_0, # of connection points: 2
#     Edge 52, Type (0, 1), BuildingBlock: UVAHIK_clean_linker_0, # of connection points: 2
#     Edge 53, Type (0, 1), BuildingBlock: UVAHIK_clean_linker_0, # of connection points: 2
#     Edge 54, Type (0, 1), BuildingBlock: UVAHIK_clean_linker_0, # of connection points: 2
#     Edge 55, Type (0, 1), BuildingBlock: UVAHIK_clean_linker_0, # of connection points: 2
#     Edge 56, Type (0, 1), BuildingBlock: UVAHIK_clean_linker_0, # of connection points: 2
#     Edge 57, Type (0, 1), BuildingBlock: UVAHIK_clean_linker_0, # of connection points: 2
#     Edge 58, Type (0, 1), BuildingBlock: UVAHIK_clean_linker_0, # of connection points: 2
#     Edge 59, Type (0, 1), BuildingBlock: UVAHIK_clean_linker_0, # of connection points: 2
#     Edge 60, Type (0, 1), BuildingBlock: UVAHIK_clean_linker_0, # of connection points: 2
#     Edge 61, Type (0, 1), BuildingBlock: UVAHIK_clean_linker_0, # of connection points: 2
#     Edge 62, Type (0, 1), BuildingBlock: UVAHIK_clean_linker_0, # of connection points: 2
#     Edge 63, Type (0, 1), BuildingBlock: UVAHIK_clean_linker_0, # of connection points: 2
#     Edge 64, Type (0, 1), BuildingBlock: UVAHIK_clean_linker_0, # of connection points: 2
#     Edge 65, Type (0, 1), BuildingBlock: UVAHIK_clean_linker_0, # of connection points: 2
#     Edge 66, Type (0, 1), BuildingBlock: UVAHIK_clean_linker_0, # of connection points: 2
#     Edge 67, Type (0, 1), BuildingBlock: UVAHIK_clean_linker_0, # of connection points: 2
#     Edge 68, Type (0, 1), BuildingBlock: UVAHIK_clean_linker_0, # of connection points: 2
#     Edge 69, Type (0, 1), BuildingBlock: UVAHIK_clean_linker_0, # of connection points: 2
#     Edge 70, Type (0, 1), BuildingBlock: UVAHIK_clean_linker_0, # of connection points: 2
#     Edge 71, Type (0, 1), BuildingBlock: UVAHIK_clean_linker_0, # of connection points: 2
#     Edge 72, Type (0, 1), BuildingBlock: UVAHIK_clean_linker_0, # of connection points: 2
#     Edge 73, Type (0, 1), BuildingBlock: UVAHIK_clean_linker_0, # of connection points: 2
#     Edge 74, Type (0, 1), BuildingBlock: UVAHIK_clean_linker_0, # of connection points: 2
#     Edge 75, Type (0, 1), BuildingBlock: UVAHIK_clean_linker_0, # of connection points: 2
#     Edge 76, Type (0, 1), BuildingBlock: UVAHIK_clean_linker_0, # of connection points: 2
#     Edge 77, Type (0, 1), BuildingBlock: UVAHIK_clean_linker_0, # of connection points: 2
#     Edge 78, Type (0, 1), BuildingBlock: UVAHIK_clean_linker_0, # of connection points: 2
#     Edge 79, Type (0, 1), BuildingBlock: UVAHIK_clean_linker_0, # of connection points: 2
#     Edge 80, Type (0, 1), BuildingBlock: UVAHIK_clean_linker_0, # of connection points: 2
#     Edge 81, Type (0, 1), BuildingBlock: UVAHIK_clean_linker_0, # of connection points: 2
#     Edge 82, Type (0, 1), BuildingBlock: UVAHIK_clean_linker_0, # of connection points: 2
#     Edge 83, Type (0, 1), BuildingBlock: UVAHIK_clean_linker_0, # of connection points: 2
#     Edge 84, Type (0, 1), BuildingBlock: UVAHIK_clean_linker_0, # of connection points: 2
#     Edge 85, Type (0, 1), BuildingBlock: UVAHIK_clean_linker_0, # of connection points: 2
#     Edge 86, Type (0, 1), BuildingBlock: UVAHIK_clean_linker_0, # of connection points: 2
#     Edge 87, Type (0, 1), BuildingBlock: UVAHIK_clean_linker_0, # of connection points: 2
#     Edge 88, Type (0, 1), BuildingBlock: UVAHIK_clean_linker_0, # of connection points: 2
#     Edge 89, Type (0, 1), BuildingBlock: UVAHIK_clean_linker_0, # of connection points: 2
#     Edge 90, Type (0, 1), BuildingBlock: UVAHIK_clean_linker_0, # of connection points: 2
#     Edge 91, Type (0, 1), BuildingBlock: UVAHIK_clean_linker_0, # of connection points: 2
#     Edge 92, Type (0, 1), BuildingBlock: UVAHIK_clean_linker_0, # of connection points: 2
#     Edge 93, Type (0, 1), BuildingBlock: UVAHIK_clean_linker_0, # of connection points: 2
#     Edge 94, Type (0, 1), BuildingBlock: UVAHIK_clean_linker_0, # of connection points: 2
#     Edge 95, Type (0, 1), BuildingBlock: UVAHIK_clean_linker_0, # of connection points: 2
#     Edge 96, Type (0, 1), BuildingBlock: UVAHIK_clean_linker_0, # of connection points: 2
#     Edge 97, Type (0, 1), BuildingBlock: UVAHIK_clean_linker_0, # of connection points: 2
#     Edge 98, Type (0, 1), BuildingBlock: UVAHIK_clean_linker_0, # of connection points: 2
#     Edge 99, Type (0, 1), BuildingBlock: UVAHIK_clean_linker_0, # of connection points: 2
#     Edge 100, Type (0, 1), BuildingBlock: UVAHIK_clean_linker_0, # of connection points: 2
#     Edge 101, Type (0, 1), BuildingBlock: UVAHIK_clean_linker_0, # of connection points: 2
#     Edge 102, Type (0, 1), BuildingBlock: UVAHIK_clean_linker_0, # of connection points: 2
#     Edge 103, Type (0, 1), BuildingBlock: UVAHIK_clean_linker_0, # of connection points: 2
#     Edge 104, Type (0, 1), BuildingBlock: UVAHIK_clean_linker_0, # of connection points: 2
#     Edge 105, Type (0, 1), BuildingBlock: UVAHIK_clean_linker_0, # of connection points: 2
#     Edge 106, Type (0, 1), BuildingBlock: UVAHIK_clean_linker_0, # of connection points: 2
#     Edge 107, Type (0, 1), BuildingBlock: UVAHIK_clean_linker_0, # of connection points: 2
#     Edge 108, Type (0, 1), BuildingBlock: UVAHIK_clean_linker_0, # of connection points: 2
#     Edge 109, Type (0, 1), BuildingBlock: UVAHIK_clean_linker_0, # of connection points: 2
#     Edge 110, Type (0, 1), BuildingBlock: UVAHIK_clean_linker_0, # of connection points: 2
#     Edge 111, Type (0, 1), BuildingBlock: UVAHIK_clean_linker_0, # of connection points: 2
#     Edge 112, Type (0, 1), BuildingBlock: UVAHIK_clean_linker_0, # of connection points: 2
#     Edge 113, Type (0, 1), BuildingBlock: UVAHIK_clean_linker_0, # of connection points: 2
#     Edge 114, Type (0, 1), BuildingBlock: UVAHIK_clean_linker_0, # of connection points: 2
#     Edge 115, Type (0, 1), BuildingBlock: UVAHIK_clean_linker_0, # of connection points: 2
#     Edge 116, Type (0, 1), BuildingBlock: UVAHIK_clean_linker_0, # of connection points: 2
#     Edge 117, Type (0, 1), BuildingBlock: UVAHIK_clean_linker_0, # of connection points: 2
#     Edge 118, Type (0, 1), BuildingBlock: UVAHIK_clean_linker_0, # of connection points: 2
#     Edge 119, Type (0, 1), BuildingBlock: UVAHIK_clean_linker_0, # of connection points: 2
#     Edge 120, Type (0, 1), BuildingBlock: UVAHIK_clean_linker_0, # of connection points: 2
#     Edge 121, Type (0, 1), BuildingBlock: UVAHIK_clean_linker_0, # of connection points: 2
#     Edge 122, Type (0, 1), BuildingBlock: UVAHIK_clean_linker_0, # of connection points: 2
#     Edge 123, Type (0, 1), BuildingBlock: UVAHIK_clean_linker_0, # of connection points: 2
#     Edge 124, Type (0, 1), BuildingBlock: UVAHIK_clean_linker_0, # of connection points: 2
#     Edge 125, Type (0, 1), BuildingBlock: UVAHIK_clean_linker_0, # of connection points: 2
#     Edge 126, Type (0, 1), BuildingBlock: UVAHIK_clean_linker_0, # of connection points: 2
#     Edge 127, Type (0, 1), BuildingBlock: UVAHIK_clean_linker_0, # of connection points: 2
#     Edge 128, Type (0, 1), BuildingBlock: UVAHIK_clean_linker_0, # of connection points: 2
#     Edge 129, Type (0, 1), BuildingBlock: UVAHIK_clean_linker_0, # of connection points: 2
#     Edge 130, Type (0, 1), BuildingBlock: UVAHIK_clean_linker_0, # of connection points: 2
#     Edge 131, Type (0, 1), BuildingBlock: UVAHIK_clean_linker_0, # of connection points: 2
#     Edge 132, Type (0, 1), BuildingBlock: UVAHIK_clean_linker_0, # of connection points: 2
#     Edge 133, Type (0, 1), BuildingBlock: UVAHIK_clean_linker_0, # of connection points: 2
#     Edge 134, Type (0, 1), BuildingBlock: UVAHIK_clean_linker_0, # of connection points: 2
#     Edge 135, Type (0, 1), BuildingBlock: UVAHIK_clean_linker_0, # of connection points: 2
# Relax obj value: 0.167
# Max RMSD: 0.296
# Mean RMSD: 0.178
data_MOF--net-gar--node1-QUQFOY_clean_sbu_1--node2-INOVEN_clean_sbu_0--edge1-UVAHIK_clean_linker_0
_symmetry_space_group_name_H-M    P1
_symmetry_Int_Tables_number       1
_symmetry_cell_setting            triclinic
loop_
_symmetry_equiv_pos_as_xyz
'x, y, z'
_cell_length_a     79.536106
_cell_length_b     74.004401
_cell_length_c     74.196653
_cell_angle_alpha  98.893118
_cell_angle_beta   95.353182
_cell_angle_gamma 105.18337
loop_
_atom_site_label
_atom_site_type_symbol
_atom_site_fract_x
_atom_site_fract_y
_atom_site_fract_z
_atom_type_partial_charge
O0 O 0.09439 0.29621 0.39237 0.0
Cd1 Cd 0.10037 0.31899 0.37888 0.0
Cd2 Cd 0.09107 0.3343 0.40795 0.0
O3 O 0.09672 0.31333 0.41989 0.0
O4 O 0.112 0.30944 0.35872 0.0
O5 O 0.1254 0.33464 0.38058 0.0
C6 C 0.12594 0.32288 0.366 0.0
C7 C 0.09799 0.36517 0.42382 0.0
C8 C 0.0948 0.29736 0.40966 0.0
C9 C 0.06636 0.32563 0.37399 0.0
O10 O 0.06746 0.3262 0.3912 0.0
O11 O 0.07967 0.32583 0.36583 0.0
O12 O 0.08703 0.35146 0.42899 0.0
O13 O 0.10588 0.36129 0.4099 0.0
O14 O 0.98979 0.72801 0.64784 0.0
Cd15 Cd 0.99343 0.75377 0.66432 0.0
Cd16 Cd 1.00242 0.76304 0.63582 0.0
O17 O 0.98627 0.73783 0.62177 0.0
O18 O 0.97799 0.74827 0.68264 0.0
O19 O 0.97507 0.7669 0.66221 0.0
C20 C 0.96936 0.75854 0.67543 0.0
C21 C 0.00695 0.79045 0.62415 0.0
C22 C 0.98554 0.72429 0.63049 0.0
C23 C 0.02953 0.76565 0.66719 0.0
O24 O 0.02521 0.76144 0.64987 0.0
O25 O 0.01806 0.76712 0.67757 0.0
O26 O 0.01238 0.77644 0.61688 0.0
O27 O 0.99756 0.78834 0.63738 0.0
O28 O 0.62425 0.82139 0.88962 0.0
Cd29 Cd 0.60391 0.82088 0.90485 0.0
Cd30 Cd 0.5898 0.8299 0.87633 0.0
O31 O 0.60812 0.82063 0.86346 0.0
O32 O 0.60565 0.80513 0.92376 0.0
O33 O 0.58455 0.79656 0.89967 0.0
C34 C 0.59173 0.79282 0.91447 0.0
C35 C 0.56101 0.82147 0.8634 0.0
C36 C 0.62217 0.81963 0.87221 0.0
C37 C 0.59848 0.85912 0.90938 0.0
O38 O 0.59681 0.85641 0.892 0.0
O39 O 0.60003 0.84581 0.91774 0.0
O40 O 0.57299 0.83317 0.85703 0.0
O41 O 0.56556 0.8133 0.87646 0.0
O42 O 0.49341 0.21908 0.14676 0.0
Cd43 Cd 0.4955 0.24457 0.16306 0.0
Cd44 Cd 0.50438 0.25455 0.13471 0.0
O45 O 0.48968 0.22864 0.12056 0.0
O46 O 0.47981 0.23851 0.18117 0.0
O47 O 0.47624 0.25648 0.16034 0.0
C48 C 0.4707 0.24817 0.17365 0.0
C49 C 0.5074 0.28222 0.12391 0.0
C50 C 0.4897 0.21526 0.12935 0.0
C51 C 0.53172 0.25874 0.16627 0.0
O52 O 0.52763 0.25456 0.14893 0.0
O53 O 0.51988 0.25912 0.17645 0.0
O54 O 0.51367 0.26909 0.11621 0.0
O55 O 0.49795 0.27904 0.13693 0.0
O56 O 0.06598 0.77977 0.11641 0.0
Cd57 Cd 0.07053 0.80427 0.13542 0.0
Cd58 Cd 0.08678 0.81858 0.10682 0.0
O59 O 0.07575 0.79092 0.0923 0.0
O60 O 0.05545 0.79426 0.15389 0.0
O61 O 0.04979 0.81524 0.13793 0.0
C62 C 0.04499 0.80395 0.14932 0.0
C63 C 0.08068 0.84486 0.09558 0.0
C64 C 0.06848 0.777 0.09971 0.0
C65 C 0.11024 0.81885 0.14187 0.0
O66 O 0.10934 0.82123 0.12516 0.0
O67 O 0.09624 0.81418 0.14927 0.0
O68 O 0.09145 0.83634 0.08852 0.0
O69 O 0.07346 0.83861 0.10916 0.0
O70 O 0.54817 0.77157 0.40776 0.0
Cd71 Cd 0.53055 0.76729 0.42644 0.0
Cd72 Cd 0.5104 0.77879 0.39327 0.0
O73 O 0.53277 0.7744 0.3822 0.0
O74 O 0.54252 0.75723 0.44633 0.0
O75 O 0.51792 0.74018 0.42869 0.0
C76 C 0.53036 0.7413 0.44167 0.0
C77 C 0.48297 0.77598 0.37521 0.0
C78 C 0.54711 0.77355 0.39097 0.0
C79 C 0.52154 0.80447 0.43231 0.0
O80 O 0.51593 0.80117 0.41516 0.0
O81 O 0.5265 0.79211 0.43995 0.0
O82 O 0.49718 0.78858 0.37386 0.0
O83 O 0.48429 0.76406 0.38589 0.0
O84 O 0.57428 0.27641 0.6183 0.0
Cd85 Cd 0.57812 0.30026 0.638 0.0
Cd86 Cd 0.59462 0.31556 0.60988 0.0
O87 O 0.58336 0.28847 0.59437 0.0
O88 O 0.56206 0.28953 0.65555 0.0
O89 O 0.55698 0.31082 0.63971 0.0
C90 C 0.55164 0.29913 0.65061 0.0
C91 C 0.58849 0.34214 0.59933 0.0
C92 C 0.57648 0.27418 0.60147 0.0
C93 C 0.61785 0.31453 0.64493 0.0
O94 O 0.61699 0.31714 0.62827 0.0
O95 O 0.60383 0.31004 0.65238 0.0
O96 O 0.59943 0.33395 0.59216 0.0
O97 O 0.5813 0.33554 0.61278 0.0
O98 O 0.02134 0.24016 0.91269 0.0
Cd99 Cd 0.02237 0.2619 0.89711 0.0
Cd100 Cd 0.00972 0.2764 0.92766 0.0
O101 O 0.01546 0.25419 0.93879 0.0
O102 O 0.03706 0.25556 0.87766 0.0
O103 O 0.04653 0.28133 0.89922 0.0
C104 C 0.04964 0.27047 0.88529 0.0
C105 C 0.02159 0.30782 0.94258 0.0
C106 C 0.01946 0.2403 0.9296 0.0
C107 C 0.9861 0.26979 0.8917 0.0
O108 O 0.98709 0.27226 0.90917 0.0
O109 O 0.99904 0.26645 0.88406 0.0
O110 O 0.00861 0.29663 0.94818 0.0
O111 O 0.02845 0.30099 0.92893 0.0
O112 O 0.42714 0.03788 0.26736 0.0
Cd113 Cd 0.4196 0.04554 0.29239 0.0
Cd114 Cd 0.45027 0.0455 0.29854 0.0
O115 O 0.45369 0.05695 0.27591 0.0
O116 O 0.3964 0.04895 0.28573 0.0
O117 O 0.41996 0.07236 0.29968 0.0
C118 C 0.4038 0.06687 0.29174 0.0
C119 C 0.46781 0.05299 0.32539 0.0
C120 C 0.44198 0.04614 0.26326 0.0
C121 C 0.42291 0.0127 0.30192 0.0
O122 O 0.4363 0.01742 0.29389 0.0
O123 O 0.41618 0.02554 0.30856 0.0
O124 O 0.47265 0.04501 0.31081 0.0
O125 O 0.45405 0.05922 0.324 0.0
O126 O 0.30313 0.1927 0.53012 0.0
Cd127 Cd 0.29967 0.1717 0.50746 0.0
Cd128 Cd 0.28729 0.20084 0.49286 0.0
O129 O 0.29819 0.21713 0.51899 0.0
O130 O 0.31116 0.15408 0.51877 0.0
O131 O 0.32178 0.16869 0.4969 0.0
C132 C 0.32354 0.15806 0.5088 0.0
C133 C 0.29203 0.21248 0.46501 0.0
C134 C 0.30261 0.2099 0.53259 0.0
C135 C 0.26064 0.16318 0.49543 0.0
O136 O 0.26366 0.18045 0.49324 0.0
O137 O 0.27332 0.15605 0.49888 0.0
O138 O 0.28258 0.21883 0.47626 0.0
O139 O 0.29921 0.1998 0.46966 0.0
O140 O 0.15652 1.00382 0.73594 0.0
Cd141 Cd 0.17916 1.00446 0.75471 0.0
Cd142 Cd 0.15132 0.02596 0.78049 0.0
O143 O 0.13833 0.01674 0.75191 0.0
O144 O 0.19485 0.98821 0.74151 0.0
O145 O 0.18365 0.98065 0.76568 0.0
C146 C 0.19301 0.97666 0.75308 0.0
C147 C 0.13623 0.02587 0.80931 0.0
C148 C 0.14252 0.00953 0.73648 0.0
C149 C 0.18927 0.04962 0.77247 0.0
O150 O 0.17523 0.04787 0.78028 0.0
O151 O 0.19283 0.03491 0.76343 0.0
O152 O 0.13565 0.03764 0.79824 0.0
O153 O 0.14483 0.01382 0.80413 0.0
O154 O 0.29616 0.92037 0.02559 0.0
Cd155 Cd 0.29509 0.93507 0.00444 0.0
Cd156 Cd 0.29818 0.9035 0.99029 0.0
O157 O 0.28606 0.89122 0.00975 0.0
O158 O 0.28927 0.95705 0.01788 0.0
O159 O 0.27201 0.9371 0.99367 0.0
C160 C 0.27454 0.95136 0.00707 0.0
C161 C 0.297 0.8881 0.96087 0.0
C162 C 0.29047 0.9026 0.02507 0.0
C163 C 0.32906 0.93669 0.99865 0.0
O164 O 0.32328 0.9194 0.99993 0.0
O165 O 0.31847 0.94639 0.99583 0.0
O166 O 0.30347 0.88248 0.97481 0.0
O167 O 0.28936 0.90149 0.96373 0.0
O168 O 0.30319 0.38974 0.06257 0.0
Cd169 Cd 0.30586 0.40742 0.04262 0.0
Cd170 Cd 0.31637 0.37711 0.02566 0.0
O171 O 0.30825 0.36405 0.04739 0.0
O172 O 0.29175 0.42562 0.0506 0.0
O173 O 0.28421 0.40526 0.02425 0.0
C174 C 0.28071 0.41831 0.03577 0.0
C175 C 0.30839 0.36219 0.9947 0.0
C176 C 0.30411 0.37267 0.06178 0.0
C177 C 0.34392 0.41533 0.0348 0.0
O178 O 0.34059 0.39732 0.03069 0.0
O179 O 0.33162 0.42284 0.03875 0.0
O180 O 0.31986 0.35789 0.00542 0.0
O181 O 0.30048 0.37419 1.00175 0.0
O182 O 0.78825 0.14952 0.051 0.0
Cd183 Cd 0.78817 0.13546 0.02482 0.0
Cd184 Cd 0.78789 0.16674 0.0201 0.0
O185 O 0.80336 0.17654 0.04464 0.0
O186 O 0.79994 0.11539 0.02549 0.0
O187 O 0.81048 0.14207 0.0147 0.0
C188 C 0.81222 0.12613 0.01846 0.0
C189 C 0.78893 0.17726 0.99352 0.0
C190 C 0.7974 0.16672 0.05639 0.0
C191 C 0.75562 0.13831 0.00992 0.0
O192 O 0.762 0.15441 0.02035 0.0
O193 O 0.76542 0.12751 0.00679 0.0
O194 O 0.78614 0.18768 0.00795 0.0
O195 O 0.79444 0.16256 0.99524 0.0
O196 O 0.17337 0.5476 0.23354 0.0
Cd197 Cd 0.18597 0.54973 0.25935 0.0
Cd198 Cd 0.15521 0.54412 0.26416 0.0
O199 O 0.15046 0.5267 0.23949 0.0
O200 O 0.20668 0.54023 0.2587 0.0
O201 O 0.18173 0.52593 0.26855 0.0
C202 C 0.19734 0.52606 0.26498 0.0
C203 C 0.14367 0.54032 0.29024 0.0
C204 C 0.1586 0.53533 0.22801 0.0
C205 C 0.17726 0.58231 0.2736 0.0
O206 O 0.16294 0.57255 0.26381 0.0
O207 O 0.18904 0.57431 0.27748 0.0
O208 O 0.13406 0.54205 0.27594 0.0
O209 O 0.15889 0.53758 0.28862 0.0
O210 O 0.80533 0.89175 0.5675 0.0
Cd211 Cd 0.80734 0.90685 0.54559 0.0
Cd212 Cd 0.81753 0.87694 0.53049 0.0
O213 O 0.8089 0.8651 0.55281 0.0
O214 O 0.79393 0.92602 0.5517 0.0
O215 O 0.78499 0.90266 0.52761 0.0
C216 C 0.78223 0.91717 0.53771 0.0
C217 C 0.80697 0.86261 0.49974 0.0
C218 C 0.80554 0.87453 0.5672 0.0
C219 C 0.8451 0.91421 0.53685 0.0
O220 O 0.84227 0.89622 0.53446 0.0
O221 O 0.83255 0.92155 0.54001 0.0
O222 O 0.81715 0.85597 0.50982 0.0
O223 O 0.80197 0.87687 0.5074 0.0
O224 O 0.93315 0.0619 0.22372 0.0
Cd225 Cd 0.91369 0.06236 0.24309 0.0
Cd226 Cd 0.94634 0.04785 0.2635 0.0
O227 O 0.95621 0.05562 0.23858 0.0
O228 O 0.8952 0.07624 0.23357 0.0
O229 O 0.91282 0.08877 0.25907 0.0
C230 C 0.90038 0.09032 0.24738 0.0
C231 C 0.96387 0.05263 0.29389 0.0
C232 C 0.94872 0.05947 0.22401 0.0
C233 C 0.90731 0.0206 0.25446 0.0
O234 O 0.92391 0.02399 0.25909 0.0
O235 O 0.9009 0.03378 0.24941 0.0
O236 O 0.96487 0.04023 0.28004 0.0
O237 O 0.95387 0.06327 0.29043 0.0
O238 O 0.29226 0.65312 0.54324 0.0
Cd239 Cd 0.29151 0.63552 0.51888 0.0
Cd240 Cd 0.28934 0.66434 0.50762 0.0
O241 O 0.30159 0.67957 0.5327 0.0
O242 O 0.30447 0.61732 0.52363 0.0
O243 O 0.31257 0.63931 0.50627 0.0
C244 C 0.31553 0.62552 0.51365 0.0
C245 C 0.29224 0.67382 0.48014 0.0
C246 C 0.29795 0.67115 0.54608 0.0
C247 C 0.25728 0.63256 0.50361 0.0
O248 O 0.26361 0.65047 0.50715 0.0
O249 O 0.26715 0.62182 0.50501 0.0
O250 O 0.28657 0.68338 0.49302 0.0
O251 O 0.29826 0.65995 0.48355 0.0
O252 O 0.43516 0.56483 0.72797 0.0
Cd253 Cd 0.41444 0.56561 0.74581 0.0
Cd254 Cd 0.44787 0.54993 0.76842 0.0
O255 O 0.4577 0.55783 0.74334 0.0
O256 O 0.39618 0.57934 0.73469 0.0
O257 O 0.41253 0.59234 0.76075 0.0
C258 C 0.40064 0.59368 0.74828 0.0
C259 C 0.46537 0.55244 0.79878 0.0
C260 C 0.45061 0.56195 0.72865 0.0
C261 C 0.40807 0.52351 0.75735 0.0
O262 O 0.42453 0.52708 0.76303 0.0
O263 O 0.40177 0.5366 0.75177 0.0
O264 O 0.46566 0.54031 0.78438 0.0
O265 O 0.45615 0.56401 0.79597 0.0
O266 O 0.67436 0.05016 0.728 0.0
Cd267 Cd 0.68747 0.05192 0.75339 0.0
Cd268 Cd 0.65655 0.04629 0.75972 0.0
O269 O 0.65097 0.03015 0.73433 0.0
O270 O 0.70735 0.0409 0.75257 0.0
O271 O 0.68221 0.02871 0.76335 0.0
C272 C 0.69762 0.02788 0.75992 0.0
C273 C 0.64412 0.04109 0.78521 0.0
C274 C 0.65927 0.03845 0.72276 0.0
C275 C 0.67924 0.08435 0.77019 0.0
O276 O 0.66442 0.07505 0.76115 0.0
O277 O 0.6913 0.07623 0.77201 0.0
O278 O 0.63507 0.04384 0.77104 0.0
O279 O 0.65923 0.03808 0.78364 0.0
O280 O 0.80205 0.69809 0.03502 0.0
Cd281 Cd 0.79931 0.67677 0.01287 0.0
Cd282 Cd 0.78535 0.70502 0.99741 0.0
O283 O 0.79568 0.7217 0.02352 0.0
O284 O 0.81067 0.65972 0.02532 0.0
O285 O 0.82183 0.67362 0.00329 0.0
C286 C 0.82331 0.66339 0.01563 0.0
C287 C 0.79011 0.71634 0.96941 0.0
C288 C 0.80065 0.71497 0.03725 0.0
C289 C 0.76012 0.66658 1.00026 0.0
O290 O 0.76232 0.6837 0.9978 0.0
O291 O 0.7733 0.66032 0.00406 0.0
O292 O 0.78033 0.72254 0.98035 0.0
O293 O 0.79756 0.704 0.97441 0.0
O294 O 0.92851 0.54282 0.77498 0.0
Cd295 Cd 0.9193 0.54988 0.79918 0.0
Cd296 Cd 0.94972 0.55033 0.80743 0.0
O297 O 0.95529 0.56101 0.78471 0.0
O298 O 0.89627 0.55243 0.79018 0.0
O299 O 0.91825 0.57625 0.80644 0.0
C300 C 0.90269 0.57032 0.797 0.0
C301 C 0.9663 0.55728 0.83501 0.0
C302 C 0.94377 0.55071 0.77162 0.0
C303 C 0.92184 0.517 0.80903 0.0
O304 O 0.93597 0.52217 0.80229 0.0
O305 O 0.9143 0.52943 0.81472 0.0
O306 O 0.97153 0.54943 0.82064 0.0
O307 O 0.95278 0.56381 0.8331 0.0
O308 O 0.80076 0.41934 0.53388 0.0
Cd309 Cd 0.79835 0.4319 0.51139 0.0
Cd310 Cd 0.80215 0.40049 0.49908 0.0
O311 O 0.7907 0.38958 0.51953 0.0
O312 O 0.79218 0.45468 0.52247 0.0
O313 O 0.77451 0.4317 0.50078 0.0
C314 C 0.77708 0.4474 0.51243 0.0
C315 C 0.79975 0.38483 0.46975 0.0
C316 C 0.79542 0.40173 0.53437 0.0
C317 C 0.83224 0.43384 0.5045 0.0
O318 O 0.82729 0.41699 0.50739 0.0
O319 O 0.82091 0.44249 0.50103 0.0
O320 O 0.80687 0.3793 0.48341 0.0
O321 O 0.79201 0.39809 0.47297 0.0
O322 O 0.65916 0.5007 0.24163 0.0
Cd323 Cd 0.68209 0.50251 0.26098 0.0
Cd324 Cd 0.65449 0.52442 0.28602 0.0
O325 O 0.64205 0.51554 0.25737 0.0
O326 O 0.69802 0.48603 0.24852 0.0
O327 O 0.68646 0.47897 0.27264 0.0
C328 C 0.69597 0.47472 0.2603 0.0
C329 C 0.63957 0.52405 0.31493 0.0
C330 C 0.64569 0.50741 0.24203 0.0
C331 C 0.69203 0.54815 0.27806 0.0
O332 O 0.6778 0.54652 0.28543 0.0
O333 O 0.69584 0.5333 0.26958 0.0
O334 O 0.63888 0.53591 0.30397 0.0
O335 O 0.64814 0.51203 0.30956 0.0
Gd336 Gd 0.03193 0.03584 0.00998 0.0
Gd337 Gd 0.06658 0.05712 0.03216 0.0
C338 C 0.04679 0.0818 0.01133 0.0
C339 C 0.99839 0.02511 1.00033 0.0
C340 C 0.98556 0.03603 0.99889 0.0
C341 C 0.97348 0.03174 0.98282 0.0
C342 C 0.9861 0.05161 0.01264 0.0
C343 C 0.96151 0.05745 0.99479 0.0
C344 C 0.97406 0.06214 0.01067 0.0
C345 C 0.96168 0.04245 0.98069 0.0
C346 C 0.05573 0.03466 0.98534 0.0
C347 C 0.05242 0.01079 0.02894 0.0
C348 C 0.10001 0.0677 0.04274 0.0
C349 C 0.11287 0.05677 0.04093 0.0
C350 C 0.12686 0.06008 0.05509 0.0
C351 C 0.10999 0.04142 0.0262 0.0
C352 C 0.13552 0.03332 0.0394 0.0
C353 C 0.12126 0.02984 0.02542 0.0
C354 C 0.13815 0.04844 0.05434 0.0
C355 C 0.04261 0.05801 0.05687 0.0
O356 O 0.03371 0.06601 0.0062 0.0
O357 O 0.06136 0.08231 0.02168 0.0
O358 O 0.00957 0.02731 0.98854 0.0
O359 O 0.00571 0.0252 0.0169 0.0
O360 O 0.03924 0.02531 0.98234 0.0
O361 O 0.05951 0.04278 1.00245 0.0
O362 O 0.06572 0.02646 0.0331 0.0
O363 O 0.03715 0.01072 0.02038 0.0
O364 O 0.0885 0.06182 0.05348 0.0
O365 O 0.09294 0.0713 0.02751 0.0
O366 O 0.05917 0.067 0.05991 0.0
O367 O 0.039 0.05004 0.03973 0.0
H368 H 0.97324 0.02012 0.97185 0.0
H369 H 0.9957 0.05554 0.02497 0.0
H370 H 0.97425 0.07351 0.02186 0.0
H371 H 0.95252 0.03879 0.96806 0.0
H372 H 0.12894 0.07153 0.06681 0.0
H373 H 0.09888 0.03822 0.01544 0.0
H374 H 0.11875 0.01805 0.01393 0.0
H375 H 0.14907 0.05146 0.06527 0.0
Gd376 Gd 0.3024 0.79138 0.2415 0.0
Gd377 Gd 0.29027 0.80085 0.27743 0.0
C378 C 0.30401 0.83469 0.25758 0.0
C379 C 0.3154 0.79104 0.21108 0.0
C380 C 0.32017 0.80533 0.19955 0.0
C381 C 0.33684 0.80899 0.19387 0.0
C382 C 0.30928 0.81692 0.1961 0.0
C383 C 0.33158 0.83533 0.18077 0.0
C384 C 0.31491 0.83174 0.18665 0.0
C385 C 0.34254 0.82392 0.18457 0.0
C386 C 0.32352 0.78828 0.27107 0.0
C387 C 0.28023 0.75746 0.25563 0.0
C388 C 0.28791 0.80329 0.31194 0.0
C389 C 0.27741 0.78956 0.3218 0.0
C390 C 0.26436 0.79423 0.33153 0.0
C391 C 0.27993 0.77138 0.32098 0.0
C392 C 0.25736 0.76317 0.34054 0.0
C393 C 0.27011 0.75841 0.33032 0.0
C394 C 0.25436 0.78111 0.34079 0.0
C395 C 0.26254 0.79792 0.25158 0.0
O396 O 0.30284 0.82181 0.24284 0.0
O397 O 0.30223 0.83027 0.2739 0.0
O398 O 0.32501 0.79564 0.22721 0.0
O399 O 0.29861 0.78373 0.2117 0.0
O400 O 0.31791 0.7755 0.25624 0.0
O401 O 0.31682 0.80197 0.2701 0.0
O402 O 0.28389 0.76909 0.27171 0.0
O403 O 0.28365 0.76333 0.24024 0.0
O404 O 0.27907 0.81109 0.30123 0.0
O405 O 0.30063 0.79822 0.30448 0.0
O406 O 0.26257 0.80136 0.26919 0.0
O407 O 0.27723 0.79555 0.24818 0.0
H408 H 0.34557 0.80047 0.19692 0.0
H409 H 0.29653 0.81463 0.20081 0.0
H410 H 0.30603 0.84009 0.1836 0.0
H411 H 0.35548 0.82651 0.18029 0.0
H412 H 0.26201 0.80807 0.33208 0.0
H413 H 0.28972 0.76718 0.3134 0.0
H414 H 0.27314 0.74495 0.33015 0.0
H415 H 0.24455 0.78514 0.34845 0.0
Gd416 Gd 0.57149 0.03961 0.52351 0.0
Gd417 Gd 0.53202 0.03629 0.52876 0.0
C418 C 0.54228 0.99797 0.51872 0.0
C419 C 0.60279 0.0353 0.52329 0.0
C420 C 0.61234 0.02042 0.52147 0.0
C421 C 0.61921 0.01584 0.50509 0.0
C422 C 0.61629 0.01214 0.53657 0.0
C423 C 0.63496 0.9964 0.5195 0.0
C424 C 0.62743 1.00028 0.53558 0.0
C425 C 0.63031 1.00388 0.50408 0.0
C426 C 0.5497 0.04071 0.49453 0.0
C427 C 0.56167 0.07825 0.53474 0.0
C428 C 0.50071 0.04059 0.52636 0.0
C429 C 0.4917 0.05579 0.52982 0.0
C430 C 0.48482 0.05927 0.5464 0.0
C431 C 0.4885 0.06579 0.51584 0.0
C432 C 0.47086 0.08157 0.53445 0.0
C433 C 0.47824 0.07846 0.51811 0.0
C434 C 0.4746 0.07207 0.54872 0.0
C435 C 0.55316 0.03508 0.55817 0.0
O436 O 0.55893 0.00828 0.52366 0.0
O437 O 0.52919 1.0058 0.51713 0.0
O438 O 0.59307 0.03658 0.50856 0.0
O439 O 0.59581 0.03838 0.53841 0.0
O440 O 0.56596 0.0511 0.49775 0.0
O441 O 0.54624 0.03011 0.506 0.0
O442 O 0.54492 0.06802 0.53192 0.0
O443 O 0.57492 0.07057 0.53393 0.0
O444 O 0.50801 0.03561 0.54068 0.0
O445 O 0.50997 0.04084 0.51261 0.0
O446 O 0.53655 0.0257 0.55506 0.0
O447 O 0.55721 0.04544 0.54651 0.0
H448 H 0.61655 0.02209 0.49324 0.0
H449 H 0.61128 0.01532 0.54941 0.0
H450 H 0.63052 0.99452 0.54763 0.0
H451 H 0.63596 1.00131 0.49153 0.0
H452 H 0.48695 0.05174 0.55743 0.0
H453 H 0.49342 0.06336 0.50282 0.0
H454 H 0.47547 0.08516 0.50664 0.0
H455 H 0.46939 0.07426 0.5616 0.0
Gd456 Gd 0.28046 0.28933 0.76113 0.0
Gd457 Gd 0.31823 0.28091 0.76388 0.0
C458 C 0.30364 0.29398 0.80116 0.0
C459 C 0.24763 0.28676 0.76412 0.0
C460 C 0.23607 0.28812 0.77873 0.0
C461 C 0.22911 0.30379 0.78188 0.0
C462 C 0.23078 0.27336 0.78867 0.0
C463 C 0.21083 0.28924 0.80346 0.0
C464 C 0.21839 0.27394 0.80088 0.0
C465 C 0.21672 0.30438 0.7941 0.0
C466 C 0.30702 0.32299 0.76199 0.0
C467 C 0.29396 0.2736 0.72373 0.0
C468 C 0.35107 0.28491 0.76017 0.0
C469 C 0.36219 0.27998 0.7461 0.0
C470 C 0.36766 0.26326 0.74487 0.0
C471 C 0.36874 0.29301 0.73476 0.0
C472 C 0.38664 0.27329 0.72196 0.0
C473 C 0.38073 0.28972 0.72289 0.0
C474 C 0.37969 0.25993 0.73291 0.0
C475 C 0.29197 0.24774 0.76466 0.0
O476 O 0.2881 0.29111 0.79135 0.0
O477 O 0.31795 0.29296 0.79365 0.0
O478 O 0.25906 0.30248 0.76246 0.0
O479 O 0.25386 0.27198 0.76155 0.0
O480 O 0.29029 0.32128 0.76101 0.0
O481 O 0.30848 0.30622 0.76243 0.0
O482 O 0.30877 0.27357 0.73347 0.0
O483 O 0.28102 0.27898 0.73101 0.0
O484 O 0.3418 0.27129 0.76757 0.0
O485 O 0.34271 0.29745 0.75714 0.0
O486 O 0.30879 0.24954 0.76644 0.0
O487 O 0.29039 0.26423 0.76305 0.0
H488 H 0.23284 0.31538 0.77443 0.0
H489 H 0.23589 0.2611 0.78672 0.0
H490 H 0.2145 0.26218 0.80808 0.0
H491 H 0.21119 0.31634 0.79554 0.0
H492 H 0.36297 0.25294 0.75345 0.0
H493 H 0.36505 0.30616 0.73545 0.0
H494 H 0.38594 0.30056 0.71502 0.0
H495 H 0.38373 0.24701 0.73246 0.0
Gd496 Gd 0.05045 0.06063 0.52658 0.0
Gd497 Gd 0.0546 0.025 0.51125 0.0
C498 C 0.03957 0.04514 0.48152 0.0
C499 C 0.05081 0.096 0.53203 0.0
C500 C 0.05081 0.10941 0.51926 0.0
C501 C 0.03762 0.11878 0.51861 0.0
C502 C 0.06347 0.11246 0.5072 0.0
C503 C 0.05024 0.1348 0.49471 0.0
C504 C 0.06324 0.12511 0.49513 0.0
C505 C 0.03729 0.13132 0.50641 0.0
C506 C 0.02227 0.03147 0.52926 0.0
C507 C 0.06478 0.03938 0.55633 0.0
C508 C 0.05543 0.99016 0.5043 0.0
C509 C 0.05636 0.97658 0.51638 0.0
C510 C 0.06611 0.9636 0.5124 0.0
C511 C 0.04812 0.977 0.53232 0.0
C512 C 0.05827 0.95055 0.53939 0.0
C513 C 0.04911 0.96405 0.5438 0.0
C514 C 0.06696 0.95049 0.52381 0.0
C515 C 0.08228 0.05411 0.50759 0.0
O516 O 0.04429 0.05999 0.49535 0.0
O517 O 0.04097 0.02848 0.48454 0.0
O518 O 0.03639 0.08213 0.5304 0.0
O519 O 0.065 0.0904 0.53439 0.0
O520 O 0.02967 0.04596 0.5424 0.0
O521 O 0.03018 0.03302 0.5153 0.0
O522 O 0.05971 0.02477 0.54231 0.0
O523 O 0.06388 0.05635 0.55349 0.0
O524 O 0.06949 1.00454 0.50636 0.0
O525 O 0.04081 0.99511 0.50291 0.0
O526 O 0.07464 0.03942 0.49485 0.0
O527 O 0.07485 0.05281 0.52192 0.0
H528 H 0.02756 0.11639 0.52756 0.0
H529 H 0.07367 0.10521 0.50716 0.0
H530 H 0.07354 0.12764 0.48648 0.0
H531 H 0.02693 0.13833 0.50619 0.0
H532 H 0.07281 0.96341 0.50034 0.0
H533 H 0.04069 0.98711 0.53573 0.0
H534 H 0.04213 0.96403 0.55567 0.0
H535 H 0.07402 0.94004 0.52029 0.0
Gd536 Gd 0.31542 0.8019 0.74891 0.0
Gd537 Gd 0.28228 0.77221 0.7508 0.0
C538 C 0.31717 0.75716 0.75277 0.0
C539 C 0.3467 0.82431 0.75653 0.0
C540 C 0.36349 0.82049 0.76151 0.0
C541 C 0.37728 0.82595 0.75127 0.0
C542 C 0.36549 0.8103 0.77567 0.0
C543 C 0.39522 0.81191 0.76987 0.0
C544 C 0.38127 0.80611 0.77985 0.0
C545 C 0.39307 0.82166 0.75541 0.0
C546 C 0.29764 0.78287 0.71635 0.0
C547 C 0.28029 0.81679 0.74703 0.0
C548 C 0.2509 0.75001 0.74249 0.0
C549 C 0.23424 0.75386 0.73664 0.0
C550 C 0.22242 0.75554 0.74928 0.0
C551 C 0.23046 0.75696 0.71864 0.0
C552 C 0.20334 0.76318 0.72605 0.0
C553 C 0.21513 0.7616 0.71342 0.0
C554 C 0.20709 0.76027 0.74404 0.0
C555 C 0.29997 0.79183 0.78326 0.0
O556 O 0.32584 0.77571 0.75432 0.0
O557 O 0.29968 0.752 0.7502 0.0
O558 O 0.33917 0.81701 0.73958 0.0
O559 O 0.33573 0.82229 0.7687 0.0
O560 O 0.30594 0.80092 0.71908 0.0
O561 O 0.30015 0.77601 0.73046 0.0
O562 O 0.27173 0.79839 0.74636 0.0
O563 O 0.29778 0.82197 0.74875 0.0
O564 O 0.2581 0.75721 0.7596 0.0
O565 O 0.26226 0.75195 0.73078 0.0
O566 O 0.29214 0.77364 0.78065 0.0
O567 O 0.2973 0.79837 0.76901 0.0
H568 H 0.37581 0.83349 0.74008 0.0
H569 H 0.35494 0.80562 0.7836 0.0
H570 H 0.38272 0.79884 0.79126 0.0
H571 H 0.40367 0.82615 0.74748 0.0
H572 H 0.22506 0.75326 0.76321 0.0
H573 H 0.23935 0.75593 0.70857 0.0
H574 H 0.21246 0.76391 0.69949 0.0
H575 H 0.19798 0.76122 0.75389 0.0
Gd576 Gd 0.55122 0.0384 0.04433 0.0
Gd577 Gd 0.54453 0.03919 0.00451 0.0
C578 C 0.51155 0.02462 0.0229 0.0
C579 C 0.54925 0.03921 0.0785 0.0
C580 C 0.53572 0.02723 0.0871 0.0
C581 C 0.53866 0.01115 0.09321 0.0
C582 C 0.51949 0.03118 0.08852 0.0
C583 C 0.51057 1.00488 0.10453 0.0
C584 C 0.50697 0.02003 0.09716 0.0
C585 C 0.52611 0.99997 0.10176 0.0
C586 C 0.55278 0.00683 0.02196 0.0
C587 C 0.58411 0.05272 0.02658 0.0
C588 C 0.54595 0.03887 0.97011 0.0
C589 C 0.55938 0.05038 0.961 0.0
C590 C 0.55918 0.06891 0.95892 0.0
C591 C 0.57326 0.0434 0.95551 0.0
C592 C 0.58639 0.07311 0.94588 0.0
C593 C 0.58671 0.05473 0.94811 0.0
C594 C 0.57259 0.08017 0.95135 0.0
C595 C 0.5434 0.07074 0.02713 0.0
O596 O 0.52183 0.03233 0.03867 0.0
O597 O 0.5179 0.0223 0.00724 0.0
O598 O 0.55922 0.03037 0.06978 0.0
O599 O 0.5443 0.05136 0.06962 0.0
O600 O 0.56312 0.01432 0.0373 0.0
O601 O 0.54153 0.01567 0.01951 0.0
O602 O 0.57387 0.04431 0.01087 0.0
O603 O 0.57766 0.05598 0.04199 0.0
O604 O 0.53665 0.04809 0.97946 0.0
O605 O 0.55094 0.02661 0.97875 0.0
O606 O 0.5322 0.06281 0.01249 0.0
O607 O 0.55458 0.06181 0.02905 0.0
H608 H 0.55089 0.00751 0.09192 0.0
H609 H 0.51665 0.04322 0.08354 0.0
H610 H 0.49512 0.0242 0.09934 0.0
H611 H 0.52906 0.98829 0.10737 0.0
H612 H 0.54869 0.07473 0.9631 0.0
H613 H 0.57375 0.02919 0.95693 0.0
H614 H 0.59701 0.04882 0.94345 0.0
H615 H 0.57204 0.09424 0.94945 0.0
Gd616 Gd 0.29875 0.30263 0.26656 0.0
Gd617 Gd 0.28395 0.26342 0.24946 0.0
C618 C 0.25698 0.28407 0.26229 0.0
C619 C 0.30585 0.33878 0.27762 0.0
C620 C 0.29465 0.35148 0.2786 0.0
C621 C 0.29803 0.36649 0.29364 0.0
C622 C 0.28007 0.34817 0.26504 0.0
C623 C 0.27319 0.37571 0.2809 0.0
C624 C 0.2694 0.36034 0.26616 0.0
C625 C 0.28734 0.37868 0.29475 0.0
C626 C 0.30062 0.27905 0.29077 0.0
C627 C 0.32571 0.28196 0.25484 0.0
C628 C 0.27793 0.22733 0.23783 0.0
C629 C 0.28975 0.21516 0.23685 0.0
C630 C 0.28636 0.19957 0.22237 0.0
C631 C 0.30495 0.2196 0.2498 0.0
C632 C 0.31285 0.19237 0.23425 0.0
C633 C 0.31645 0.20831 0.24848 0.0
C634 C 0.29781 0.18817 0.22111 0.0
C635 C 0.28325 0.28786 0.22566 0.0
O636 O 0.26961 0.29949 0.26171 0.0
O637 O 0.2598 0.26724 0.25999 0.0
O638 O 0.30318 0.32667 0.2888 0.0
O639 O 0.30757 0.33113 0.26104 0.0
O640 O 0.31322 0.29376 0.28951 0.0
O641 O 0.28748 0.27719 0.27886 0.0
O642 O 0.31297 0.26661 0.25521 0.0
O643 O 0.32287 0.29871 0.25639 0.0
O644 O 0.28032 0.23973 0.22693 0.0
O645 O 0.27575 0.23455 0.25437 0.0
O646 O 0.27022 0.27328 0.2263 0.0
O647 O 0.29597 0.28874 0.23756 0.0
H648 H 0.30904 0.36891 0.30435 0.0
H649 H 0.27709 0.33641 0.25346 0.0
H650 H 0.25858 0.35815 0.25529 0.0
H651 H 0.29035 0.39068 0.30609 0.0
H652 H 0.27482 0.19617 0.21211 0.0
H653 H 0.30784 0.23164 0.26106 0.0
H654 H 0.32782 0.21169 0.25895 0.0
H655 H 0.29486 0.176 0.20996 0.0
Gd656 Gd 0.55407 0.55524 0.02987 0.0
Gd657 Gd 0.55847 0.51689 0.01409 0.0
C658 C 0.54173 0.53772 0.9851 0.0
C659 C 0.56042 0.59172 0.03474 0.0
C660 C 0.55789 0.60442 0.02186 0.0
C661 C 0.54653 0.61584 0.02498 0.0
C662 C 0.56677 0.60523 0.0063 0.0
C663 C 0.55394 0.62968 0.99805 0.0
C664 C 0.56484 0.61776 0.99456 0.0
C665 C 0.54453 0.62833 0.01316 0.0
C666 C 0.52249 0.52875 0.02866 0.0
C667 C 0.56791 0.53262 0.05967 0.0
C668 C 0.55982 0.48226 0.00783 0.0
C669 C 0.56137 0.46899 0.02011 0.0
C670 C 0.57275 0.45764 0.01702 0.0
C671 C 0.5525 0.46847 0.03558 0.0
C672 C 0.56526 0.44401 0.0439 0.0
C673 C 0.55434 0.45597 0.04734 0.0
C674 C 0.57474 0.44525 0.02888 0.0
C675 C 0.58534 0.54691 0.01088 0.0
O676 O 0.54664 0.5529 0.99863 0.0
O677 O 0.54347 0.52107 0.98816 0.0
O678 O 0.54625 0.58083 0.03928 0.0
O679 O 0.57231 0.58283 0.03157 0.0
O680 O 0.52559 0.54679 0.03507 0.0
O681 O 0.53645 0.52576 0.02369 0.0
O682 O 0.56525 0.51838 0.04535 0.0
O683 O 0.56489 0.54904 0.05727 0.0
O684 O 0.5737 0.49681 0.0095 0.0
O685 O 0.54497 0.48684 0.00641 0.0
O686 O 0.5785 0.53202 0.99805 0.0
O687 O 0.57742 0.54514 0.02485 0.0
H688 H 0.53936 0.61528 0.0367 0.0
H689 H 0.5755 0.59644 0.00332 0.0
H690 H 0.57239 0.6186 0.98315 0.0
H691 H 0.53582 0.63716 0.016 0.0
H692 H 0.58005 0.4583 0.00539 0.0
H693 H 0.54398 0.47752 0.03847 0.0
H694 H 0.54671 0.45519 0.05869 0.0
H695 H 0.58346 0.43641 0.02611 0.0
Gd696 Gd 0.81615 0.29815 0.25923 0.0
Gd697 Gd 0.78312 0.26898 0.26064 0.0
C698 C 0.81739 0.25314 0.26057 0.0
C699 C 0.84782 0.31974 0.26718 0.0
C700 C 0.86457 0.31571 0.27222 0.0
C701 C 0.87773 0.31925 0.26088 0.0
C702 C 0.86735 0.30766 0.28783 0.0
C703 C 0.89673 0.30805 0.28131 0.0
C704 C 0.88333 0.30393 0.29236 0.0
C705 C 0.89365 0.31536 0.26533 0.0
C706 C 0.79761 0.28218 0.22613 0.0
C707 C 0.78142 0.31359 0.25778 0.0
C708 C 0.7518 0.24646 0.25546 0.0
C709 C 0.73475 0.24927 0.24983 0.0
C710 C 0.72134 0.24482 0.26073 0.0
C711 C 0.73205 0.25743 0.2343 0.0
C712 C 0.70248 0.25603 0.24033 0.0
C713 C 0.71597 0.26077 0.22957 0.0
C714 C 0.70524 0.24816 0.25598 0.0
C715 C 0.80207 0.28664 0.29342 0.0
O716 O 0.82628 0.27162 0.263 0.0
O717 O 0.79995 0.24828 0.25798 0.0
O718 O 0.8403 0.31266 0.25018 0.0
O719 O 0.83674 0.31795 0.27924 0.0
O720 O 0.80665 0.29999 0.23047 0.0
O721 O 0.79983 0.27352 0.23911 0.0
O722 O 0.77266 0.29511 0.25614 0.0
O723 O 0.79894 0.31867 0.26025 0.0
O724 O 0.75967 0.25589 0.27174 0.0
O725 O 0.76238 0.2469 0.24298 0.0
O726 O 0.79419 0.26851 0.28967 0.0
O727 O 0.79889 0.2941 0.27996 0.0
H728 H 0.87572 0.32512 0.24862 0.0
H729 H 0.8573 0.30446 0.29669 0.0
H730 H 0.88541 0.29847 0.30487 0.0
H731 H 0.90368 0.31838 0.25642 0.0
H732 H 0.72335 0.23883 0.27292 0.0
H733 H 0.74232 0.26125 0.2258 0.0
H734 H 0.71392 0.26664 0.21731 0.0
H735 H 0.69492 0.24455 0.26445 0.0
Gd736 Gd 0.0522 0.54767 0.54846 0.0
Gd737 Gd 0.04187 0.55087 0.50928 0.0
C738 C 0.01119 0.53439 0.53034 0.0
C739 C 0.05287 0.5474 0.58282 0.0
C740 C 0.03918 0.53682 0.59223 0.0
C741 C 0.04172 0.52119 0.59951 0.0
C742 C 0.02315 0.54142 0.59311 0.0
C743 C 0.0136 0.51662 0.6107 0.0
C744 C 0.01043 0.53135 0.60231 0.0
C745 C 0.02896 0.51109 0.6086 0.0
C746 C 0.05384 0.51832 0.52341 0.0
C747 C 0.08252 0.56415 0.52768 0.0
C748 C 0.03997 0.55378 0.47523 0.0
C749 C 0.05402 0.56173 0.46484 0.0
C750 C 0.05478 0.57919 0.45934 0.0
C751 C 0.06778 0.55338 0.46223 0.0
C752 C 0.08264 0.57972 0.44849 0.0
C753 C 0.08198 0.56231 0.45409 0.0
C754 C 0.06902 0.58817 0.45132 0.0
C755 C 0.04042 0.57975 0.53495 0.0
O756 O 0.0227 0.5402 0.54546 0.0
O757 O 0.0158 0.5342 0.51376 0.0
O758 O 0.06032 0.53689 0.57223 0.0
O759 O 0.04931 0.56121 0.57546 0.0
O760 O 0.06467 0.52483 0.53857 0.0
O761 O 0.04185 0.52652 0.52264 0.0
O762 O 0.07127 0.55618 0.51256 0.0
O763 O 0.07762 0.56608 0.54411 0.0
O764 O 0.03694 0.56632 0.48799 0.0
O765 O 0.03999 0.53777 0.48067 0.0
O766 O 0.02844 0.57214 0.52086 0.0
O767 O 0.05255 0.57185 0.53484 0.0
H768 H 0.05377 0.51709 0.59859 0.0
H769 H 0.0206 0.55309 0.58718 0.0
H770 H 0.99872 0.53597 0.604 0.0
H771 H 0.03156 0.49974 0.61505 0.0
H772 H 0.04445 0.58605 0.4615 0.0
H773 H 0.06768 0.54002 0.4665 0.0
H774 H 0.09214 0.55529 0.45166 0.0
H775 H 0.06928 0.60161 0.4471 0.0
Gd776 Gd 0.77708 0.78998 0.26581 0.0
Gd777 Gd 0.81477 0.78165 0.26857 0.0
C778 C 0.80038 0.79542 0.30581 0.0
C779 C 0.74425 0.78778 0.26828 0.0
C780 C 0.7324 0.78923 0.28251 0.0
C781 C 0.724 0.80379 0.2838 0.0
C782 C 0.7284 0.7757 0.29401 0.0
C783 C 0.70668 0.79038 0.30659 0.0
C784 C 0.71577 0.77632 0.30593 0.0
C785 C 0.71134 0.80438 0.29564 0.0
C786 C 0.80364 0.82333 0.2656 0.0
C787 C 0.79057 0.77447 0.22842 0.0
C788 C 0.84768 0.7857 0.26534 0.0
C789 C 0.85875 0.78204 0.25084 0.0
C790 C 0.86349 0.7649 0.24757 0.0
C791 C 0.86583 0.79642 0.24107 0.0
C792 C 0.88277 0.77707 0.22573 0.0
C793 C 0.87763 0.79397 0.2287 0.0
C794 C 0.87533 0.76243 0.23513 0.0
C795 C 0.78896 0.74845 0.27012 0.0
O796 O 0.78478 0.7924 0.29608 0.0
O797 O 0.8146 0.79409 0.29828 0.0
O798 O 0.75593 0.80346 0.26701 0.0
O799 O 0.7503 0.77286 0.26581 0.0
O800 O 0.78699 0.82186 0.26497 0.0
O801 O 0.80493 0.8066 0.26641 0.0
O802 O 0.80552 0.77476 0.23812 0.0
O803 O 0.77748 0.7794 0.23577 0.0
O804 O 0.83782 0.77106 0.27091 0.0
O805 O 0.83989 0.79907 0.26409 0.0
O806 O 0.8058 0.75057 0.27172 0.0
O807 O 0.78693 0.76477 0.26832 0.0
H808 H 0.72681 0.81444 0.27515 0.0
H809 H 0.73474 0.76437 0.29353 0.0
H810 H 0.71296 0.76555 0.31443 0.0
H811 H 0.70465 0.81537 0.29553 0.0
H812 H 0.85837 0.75354 0.25491 0.0
H813 H 0.86266 0.80989 0.24335 0.0
H814 H 0.88327 0.80573 0.22205 0.0
H815 H 0.8788 0.74913 0.23306 0.0
Gd816 Gd 0.81132 0.28919 0.74468 0.0
Gd817 Gd 0.79761 0.29921 0.78355 0.0
C818 C 0.81468 0.33263 0.76287 0.0
C819 C 0.8163 0.28541 0.71095 0.0
C820 C 0.82266 0.30048 0.70052 0.0
C821 C 0.83979 0.30387 0.69592 0.0
C822 C 0.81281 0.31318 0.69743 0.0
C823 C 0.83718 0.33247 0.68534 0.0
C824 C 0.81999 0.32899 0.68983 0.0
C825 C 0.84704 0.3198 0.68844 0.0
C826 C 0.83677 0.29157 0.77381 0.0
C827 C 0.79087 0.25538 0.76206 0.0
C828 C 0.79336 0.30339 0.81779 0.0
C829 C 0.78485 0.28854 0.82748 0.0
C830 C 0.77742 0.29269 0.84344 0.0
C831 C 0.78285 0.26958 0.81956 0.0
C832 C 0.76746 0.25875 0.84403 0.0
C833 C 0.77361 0.25487 0.8272 0.0
C834 C 0.76901 0.27782 0.85194 0.0
C835 C 0.77226 0.29719 0.75498 0.0
O836 O 0.81463 0.3203 0.74797 0.0
O837 O 0.81126 0.32797 0.77891 0.0
O838 O 0.82796 0.28459 0.72418 0.0
O839 O 0.80059 0.28355 0.71584 0.0
O840 O 0.83824 0.28785 0.75653 0.0
O841 O 0.82164 0.29408 0.77446 0.0
O842 O 0.79133 0.2674 0.77736 0.0
O843 O 0.79616 0.26041 0.74688 0.0
O844 O 0.78269 0.30668 0.80506 0.0
O845 O 0.80813 0.30186 0.81213 0.0
O846 O 0.77074 0.30084 0.77228 0.0
O847 O 0.78723 0.29429 0.75405 0.0
H848 H 0.84773 0.29443 0.69853 0.0
H849 H 0.79966 0.31112 0.70109 0.0
H850 H 0.81191 0.33826 0.68711 0.0
H851 H 0.8603 0.32221 0.68505 0.0
H852 H 0.77852 0.3073 0.84954 0.0
H853 H 0.78876 0.266 0.80765 0.0
H854 H 0.77218 0.24041 0.82035 0.0
H855 H 0.76446 0.28133 0.86498 0.0
Gd856 Gd 0.79864 0.81077 0.77148 0.0
Gd857 Gd 0.7819 0.76484 0.75622 0.0
C858 C 0.75669 0.79032 0.76929 0.0
C859 C 0.80671 0.84684 0.77371 0.0
C860 C 0.7954 0.85949 0.77644 0.0
C861 C 0.79744 0.87146 0.79358 0.0
C862 C 0.78134 0.85821 0.76288 0.0
C863 C 0.7718 0.88097 0.78347 0.0
C864 C 0.76964 0.86892 0.76638 0.0
C865 C 0.78566 0.88206 0.79711 0.0
C866 C 0.79888 0.79054 0.7994 0.0
C867 C 0.82372 0.78549 0.75926 0.0
C868 C 0.77467 0.72857 0.75252 0.0
C869 C 0.78678 0.71667 0.75079 0.0
C870 C 0.78453 0.70292 0.73481 0.0
C871 C 0.8017 0.72037 0.76399 0.0
C872 C 0.8117 0.69633 0.74546 0.0
C873 C 0.81398 0.7102 0.7614 0.0
C874 C 0.79692 0.69284 0.73213 0.0
C875 C 0.784 0.78575 0.72853 0.0
O876 O 0.76967 0.80622 0.77089 0.0
O877 O 0.75838 0.7729 0.76485 0.0
O878 O 0.80971 0.83892 0.78782 0.0
O879 O 0.80339 0.83502 0.75789 0.0
O880 O 0.80512 0.80888 0.80143 0.0
O881 O 0.79325 0.78428 0.78246 0.0
O882 O 0.81113 0.76958 0.75887 0.0
O883 O 0.82154 0.80271 0.76204 0.0
O884 O 0.77275 0.73707 0.73858 0.0
O885 O 0.77627 0.73968 0.76851 0.0
O886 O 0.77837 0.76733 0.72578 0.0
O887 O 0.78757 0.79127 0.74569 0.0
H888 H 0.80798 0.8724 0.80434 0.0
H889 H 0.77926 0.84891 0.74962 0.0
H890 H 0.7592 0.86813 0.75556 0.0
H891 H 0.78744 0.89123 0.81044 0.0
H892 H 0.77334 0.70021 0.72425 0.0
H893 H 0.80402 0.73121 0.77628 0.0
H894 H 0.82507 0.71296 0.77209 0.0
H895 H 0.79496 0.68235 0.71964 0.0
Gd896 Gd 0.53484 0.53178 0.51534 0.0
Gd897 Gd 0.5694 0.55294 0.53739 0.0
C898 C 0.54979 0.57769 0.51703 0.0
C899 C 0.50137 0.52166 0.50516 0.0
C900 C 0.48864 0.53289 0.50533 0.0
C901 C 0.47746 0.53144 0.48907 0.0
C902 C 0.48854 0.54623 0.52099 0.0
C903 C 0.46536 0.55551 0.50443 0.0
C904 C 0.47685 0.55734 0.52057 0.0
C905 C 0.46594 0.54274 0.48859 0.0
C906 C 0.55849 0.53042 0.49052 0.0
C907 C 0.55539 0.50671 0.53421 0.0
C908 C 0.6028 0.56392 0.54828 0.0
C909 C 0.61618 0.55353 0.54759 0.0
C910 C 0.6273 0.55468 0.56379 0.0
C911 C 0.61657 0.54072 0.53166 0.0
C912 C 0.63924 0.53052 0.54818 0.0
C913 C 0.62811 0.52944 0.53192 0.0
C914 C 0.63868 0.54323 0.56412 0.0
C915 C 0.54537 0.55452 0.56205 0.0
O916 O 0.53648 0.56209 0.51249 0.0
O917 O 0.56462 0.578 0.52668 0.0
O918 O 0.51279 0.52555 0.49382 0.0
O919 O 0.50841 0.51957 0.5211 0.0
O920 O 0.542 0.52109 0.48775 0.0
O921 O 0.56245 0.53862 0.50761 0.0
O922 O 0.56867 0.52238 0.53824 0.0
O923 O 0.54001 0.50664 0.52586 0.0
O924 O 0.59117 0.55837 0.55902 0.0
O925 O 0.59583 0.5668 0.53265 0.0
O926 O 0.562 0.5632 0.56505 0.0
O927 O 0.54173 0.5463 0.54498 0.0
H928 H 0.47766 0.52156 0.47675 0.0
H929 H 0.49744 0.54806 0.53354 0.0
H930 H 0.47665 0.56724 0.53289 0.0
H931 H 0.45708 0.54105 0.47604 0.0
H932 H 0.62685 0.56413 0.57633 0.0
H933 H 0.60781 0.53924 0.51909 0.0
H934 H 0.6284 0.52 0.51932 0.0
H935 H 0.64686 0.54416 0.57693 0.0
Gd936 Gd 0.06911 0.54182 0.03403 0.0
Gd937 Gd 0.02936 0.53861 0.03724 0.0
C938 C 0.0397 0.50003 0.02827 0.0
C939 C 0.10061 0.5375 0.03618 0.0
C940 C 0.11046 0.52303 0.03196 0.0
C941 C 0.1189 0.52221 0.01611 0.0
C942 C 0.1132 0.5114 0.04463 0.0
C943 C 0.13345 0.49949 0.02634 0.0
C944 C 0.12446 0.49974 0.04182 0.0
C945 C 0.1302 0.5106 0.01334 0.0
C946 C 0.0484 0.54164 0.00359 0.0
C947 C 0.05862 0.58023 0.04218 0.0
C948 C 0.99798 0.54291 0.03523 0.0
C949 C 0.98903 0.55818 0.03876 0.0
C950 C 0.98182 0.56129 0.05521 0.0
C951 C 0.98625 0.56868 0.02508 0.0
C952 C 0.96846 0.58425 0.0437 0.0
C953 C 0.97612 0.58149 0.02751 0.0
C954 C 0.97173 0.57422 0.05768 0.0
C955 C 0.04982 0.53903 0.06795 0.0
O956 O 0.05629 0.51042 0.03349 0.0
O957 O 0.02664 0.50789 0.02615 0.0
O958 O 0.09337 0.54321 0.02232 0.0
O959 O 0.09104 0.53615 0.04965 0.0
O960 O 0.06467 0.55195 0.0072 0.0
O961 O 0.04437 0.53159 0.01539 0.0
O962 O 0.04208 0.5698 0.03675 0.0
O963 O 0.07165 0.57253 0.04521 0.0
O964 O 0.00561 0.53829 0.04955 0.0
O965 O 0.00692 0.54274 0.02123 0.0
O966 O 0.03343 0.5291 0.0643 0.0
O967 O 0.05409 0.54882 0.05595 0.0
H968 H 0.11721 0.53101 0.00608 0.0
H969 H 0.1071 0.51175 0.05709 0.0
H970 H 0.12671 0.49154 0.05224 0.0
H971 H 0.13665 0.51058 1.00111 0.0
H972 H 0.98361 0.55339 0.06602 0.0
H973 H 0.99144 0.56657 0.01217 0.0
H974 H 0.97371 0.58863 0.01626 0.0
H975 H 0.96628 0.57611 0.07045 0.0
C976 C 0.02389 0.22597 0.95797 0.0
C977 C 0.02249 0.22446 0.9387 0.0
C978 C 0.02742 0.21139 0.9665 0.0
C979 C 0.042 0.16633 0.95653 0.0
H980 H 0.02629 0.15875 0.00341 0.0
C981 C 0.03881 0.0972 0.98536 0.0
C982 C 0.04526 0.09901 0.00403 0.0
C983 C 0.03718 0.11313 0.97807 0.0
C984 C 0.0309 0.16077 0.99038 0.0
H985 H 0.02349 0.20605 0.91336 0.0
H986 H 0.02862 0.18043 0.92787 0.0
H987 H 0.02064 0.18462 0.98938 0.0
H988 H 0.05506 0.11897 0.02976 0.0
H989 H 0.05152 0.14688 0.01717 0.0
H990 H 0.0515 0.14183 0.95729 0.0
C991 C 0.02771 0.1931 0.9367 0.0
C992 C 0.02773 0.17576 0.98227 0.0
C993 C 0.02451 0.20782 0.92823 0.0
C994 C 0.05005 0.11717 0.01531 0.0
C995 C 0.04795 0.1331 0.00811 0.0
C996 C 0.0448 0.15115 0.96445 0.0
C997 C 0.02939 0.19461 0.95604 0.0
C998 C 0.03313 0.1788 0.96509 0.0
C999 C 0.04155 0.13129 0.98935 0.0
C1000 C 0.03923 0.14808 0.98144 0.0
H1001 H 0.02256 0.23861 0.96657 0.0
H1002 H 0.02888 0.21356 0.98138 0.0
H1003 H 0.04697 0.16826 0.94367 0.0
H1004 H 0.03519 0.08341 0.97629 0.0
H1005 H 0.03215 0.11116 0.96361 0.0
C1006 C 0.14049 0.81397 0.14247 0.0
C1007 C 0.12741 0.819 0.15206 0.0
C1008 C 0.15576 0.81177 0.15197 0.0
C1009 C 0.18355 0.82547 0.19771 0.0
H1010 H 0.20047 0.78185 0.18156 0.0
C1011 C 0.23395 0.80528 0.24538 0.0
C1012 C 0.24773 0.79914 0.23828 0.0
C1013 C 0.2201 0.80758 0.23377 0.0
C1014 C 0.1961 0.79426 0.18612 0.0
H1015 H 0.1204 0.82592 0.17926 0.0
H1016 H 0.14721 0.82274 0.19583 0.0
H1017 H 0.17493 0.78647 0.1636 0.0
H1018 H 0.25743 0.79017 0.21308 0.0
H1019 H 0.23287 0.79402 0.19248 0.0
H1020 H 0.20457 0.83336 0.22014 0.0
C1021 C 0.14564 0.82037 0.18093 0.0
C1022 C 0.18141 0.79691 0.17583 0.0
C1023 C 0.13023 0.82219 0.17142 0.0
C1024 C 0.24705 0.79496 0.21901 0.0
C1025 C 0.23295 0.79712 0.20724 0.0
C1026 C 0.19821 0.82289 0.2079 0.0
C1027 C 0.15856 0.8149 0.17135 0.0
C1028 C 0.17477 0.81243 0.18164 0.0
C1029 C 0.21939 0.80377 0.21451 0.0
C1030 C 0.20458 0.80708 0.20249 0.0
H1031 H 0.13866 0.81108 0.12754 0.0
H1032 H 0.16542 0.80767 0.14411 0.0
H1033 H 0.17911 0.8378 0.20243 0.0
H1034 H 0.23392 0.8086 0.26012 0.0
H1035 H 0.20982 0.8123 0.23998 0.0
C1036 C 0.51584 0.83626 0.43473 0.0
C1037 C 0.52316 0.82365 0.44296 0.0
C1038 C 0.51814 0.8548 0.44391 0.0
C1039 C 0.54632 0.89289 0.4797 0.0
H1040 H 0.50502 0.91142 0.48006 0.0
C1041 C 0.5497 0.96746 0.51963 0.0
C1042 C 0.53882 0.9774 0.51218 0.0
C1043 C 0.54773 0.94842 0.51207 0.0
C1044 C 0.51679 0.90668 0.47987 0.0
H1045 H 0.53883 0.82078 0.46735 0.0
H1046 H 0.54276 0.85344 0.48357 0.0
H1047 H 0.50216 0.879 0.46513 0.0
H1048 H 0.51759 0.97553 0.49083 0.0
H1049 H 0.51463 0.94267 0.47704 0.0
H1050 H 0.56112 0.92076 0.4938 0.0
C1051 C 0.53527 0.84878 0.4699 0.0
C1052 C 0.51509 0.888 0.47141 0.0
C1053 C 0.53287 0.83007 0.46071 0.0
C1054 C 0.52587 0.96802 0.4971 0.0
C1055 C 0.52419 0.94913 0.48922 0.0
C1056 C 0.5481 0.91174 0.48793 0.0
C1057 C 0.52784 0.86126 0.46158 0.0
C1058 C 0.52981 0.88092 0.47121 0.0
C1059 C 0.53509 0.93904 0.4966 0.0
C1060 C 0.53333 0.91891 0.48809 0.0
H1061 H 0.5084 0.83189 0.42103 0.0
H1062 H 0.51247 0.86419 0.43707 0.0
H1063 H 0.55792 0.88782 0.47955 0.0
H1064 H 0.55981 0.97447 0.53126 0.0
H1065 H 0.55615 0.94111 0.51839 0.0
C1066 C 0.52872 0.28349 0.6688 0.0
C1067 C 0.53366 0.29556 0.65613 0.0
C1068 C 0.51154 0.27899 0.67322 0.0
C1069 C 0.47098 0.29551 0.67126 0.0
H1070 H 0.45062 0.24697 0.68533 0.0
C1071 C 0.40186 0.27773 0.69383 0.0
C1072 C 0.40085 0.27103 0.71059 0.0
C1073 C 0.41647 0.27819 0.68453 0.0
C1074 C 0.45613 0.26061 0.68148 0.0
H1075 H 0.52411 0.31195 0.63782 0.0
H1076 H 0.4941 0.30391 0.64527 0.0
H1077 H 0.47902 0.25291 0.67396 0.0
H1078 H 0.41425 0.2585 0.72999 0.0
H1079 H 0.43949 0.259 0.71362 0.0
H1080 H 0.44805 0.30315 0.67875 0.0
C1081 C 0.50361 0.29826 0.6522 0.0
C1082 C 0.4725 0.26409 0.67502 0.0
C1083 C 0.52088 0.3029 0.64789 0.0
C1084 C 0.4144 0.26365 0.7171 0.0
C1085 C 0.42896 0.26397 0.70771 0.0
C1086 C 0.45454 0.29194 0.67752 0.0
C1087 C 0.49866 0.28625 0.66498 0.0
C1088 C 0.4804 0.28178 0.67021 0.0
C1089 C 0.43045 0.27179 0.6916 0.0
C1090 C 0.44705 0.27461 0.68308 0.0
H1091 H 0.53814 0.27744 0.67534 0.0
H1092 H 0.50849 0.27 0.68335 0.0
H1093 H 0.47656 0.30937 0.66793 0.0
H1094 H 0.3915 0.28304 0.68805 0.0
H1095 H 0.41698 0.28391 0.67195 0.0
C1096 C 1.00292 0.82193 0.61998 0.0
C1097 C 0.01285 0.80882 0.61842 0.0
C1098 C 0.00886 0.83924 0.61413 0.0
C1099 C 0.04823 0.87201 0.60277 0.0
H1100 H 0.01501 0.88327 0.56755 0.0
C1101 C 0.06241 0.93875 0.56859 0.0
C1102 C 0.0566 0.93501 0.54962 0.0
C1103 C 0.05839 0.92412 0.57862 0.0
C1104 C 0.0244 0.88025 0.57737 0.0
H1105 H 0.03707 0.80365 0.61066 0.0
H1106 H 0.04739 0.83378 0.60049 0.0
H1107 H 0.00502 0.85688 0.58355 0.0
H1108 H 0.0425 0.91359 0.526 0.0
H1109 H 0.03535 0.88795 0.54355 0.0
H1110 H 0.06774 0.89503 0.59601 0.0
C1111 C 0.03506 0.83077 0.6061 0.0
C1112 C 0.01864 0.86538 0.58669 0.0
C1113 C 0.02903 0.81344 0.61165 0.0
C1114 C 0.04725 0.91655 0.54062 0.0
C1115 C 0.04303 0.90204 0.55065 0.0
C1116 C 0.05398 0.88696 0.59347 0.0
C1117 C 0.02493 0.84368 0.60705 0.0
C1118 C 0.03057 0.86096 0.59921 0.0
C1119 C 0.04823 0.90583 0.56977 0.0
C1120 C 0.04215 0.8909 0.58046 0.0
H1121 H 0.99046 0.81863 0.6253 0.0
H1122 H 1.00087 0.84909 0.61498 0.0
H1123 H 0.05763 0.86884 0.61244 0.0
H1124 H 0.06957 0.95303 0.57565 0.0
H1125 H 0.06249 0.92728 0.59338 0.0
C1126 C 0.53755 0.83439 0.8518 0.0
C1127 C 0.54257 0.81878 0.85657 0.0
C1128 C 0.5206 0.83197 0.84342 0.0
C1129 C 0.47584 0.80086 0.8316 0.0
H1130 H 0.47796 0.82258 0.78716 0.0
C1131 C 0.41383 0.79239 0.78103 0.0
C1132 C 0.41247 0.80951 0.77594 0.0
C1133 C 0.42978 0.79132 0.78965 0.0
C1134 C 0.47715 0.8165 0.79954 0.0
H1135 H 0.5338 0.78879 0.85787 0.0
H1136 H 0.50388 0.78431 0.84237 0.0
H1137 H 0.50497 0.8258 0.80711 0.0
H1138 H 0.42662 0.83865 0.77516 0.0
H1139 H 0.45436 0.83687 0.79024 0.0
H1140 H 0.44787 0.79206 0.82423 0.0
C1141 C 0.51309 0.79842 0.84535 0.0
C1142 C 0.49257 0.81837 0.81096 0.0
C1143 C 0.53012 0.80092 0.85405 0.0
C1144 C 0.42742 0.82521 0.77871 0.0
C1145 C 0.44329 0.82418 0.78736 0.0
C1146 C 0.4603 0.79911 0.8202 0.0
C1147 C 0.50851 0.81382 0.83938 0.0
C1148 C 0.49201 0.81087 0.82721 0.0
C1149 C 0.44451 0.80737 0.79328 0.0
C1150 C 0.46086 0.8072 0.80423 0.0
H1151 H 0.54688 0.84842 0.85417 0.0
H1152 H 0.51715 0.84415 0.83937 0.0
H1153 H 0.47518 0.79497 0.84409 0.0
H1154 H 0.40244 0.78005 0.77884 0.0
H1155 H 0.43049 0.77812 0.79382 0.0
C1156 C 0.4941 0.18353 0.13008 0.0
C1157 C 0.49073 0.19684 0.11967 0.0
C1158 C 0.50099 0.1692 0.1224 0.0
C1159 C 0.52589 0.15879 0.08468 0.0
H1160 H 0.51369 0.10804 0.09629 0.0
C1161 C 0.55406 0.10027 0.0507 0.0
C1162 C 0.54038 0.08434 0.04187 0.0
C1163 C 0.55058 0.11398 0.06382 0.0
C1164 C 0.51734 0.12224 0.0931 0.0
H1165 H 0.48986 0.20425 0.09247 0.0
H1166 H 0.50091 0.17838 0.0787 0.0
H1167 H 0.50002 0.13145 0.11029 0.0
H1168 H 0.51292 0.06904 0.04034 0.0
H1169 H 0.5068 0.09271 0.06342 0.0
H1170 H 0.54228 0.14904 0.06646 0.0
C1171 C 0.49911 0.1797 0.09309 0.0
C1172 C 0.50957 0.13565 0.10113 0.0
C1173 C 0.49245 0.19426 0.10086 0.0
C1174 C 0.52352 0.08149 0.04689 0.0
C1175 C 0.52013 0.09488 0.06023 0.0
C1176 C 0.53352 0.14528 0.07648 0.0
C1177 C 0.50419 0.16762 0.10404 0.0
C1178 C 0.51336 0.15386 0.09655 0.0
C1179 C 0.5335 0.11145 0.06846 0.0
C1180 C 0.52881 0.12674 0.08018 0.0
H1181 H 0.49282 0.18509 0.14461 0.0
H1182 H 0.50475 0.16011 0.13119 0.0
H1183 H 0.52948 0.17293 0.08135 0.0
H1184 H 0.56719 0.10247 0.04692 0.0
H1185 H 0.56105 0.12668 0.07002 0.0
C1186 C 0.14688 0.33418 0.34473 0.0
C1187 C 0.14225 0.32345 0.3584 0.0
C1188 C 0.16009 0.33122 0.33446 0.0
C1189 C 0.17771 0.29253 0.3176 0.0
H1190 H 0.21541 0.33124 0.30464 0.0
C1191 C 0.2325 0.27406 0.28007 0.0
C1192 C 0.24077 0.28632 0.26889 0.0
C1193 C 0.21959 0.27849 0.28989 0.0
C1194 C 0.20473 0.32026 0.3078 0.0
H1195 H 0.14772 0.30187 0.37274 0.0
H1196 H 0.17102 0.29681 0.35496 0.0
H1197 H 0.19597 0.34068 0.32546 0.0
H1198 H 0.2413 0.31192 0.25797 0.0
H1199 H 0.21787 0.31909 0.27421 0.0
H1200 H 0.18596 0.27211 0.29967 0.0
C1201 C 0.16452 0.30743 0.35212 0.0
C1202 C 0.19374 0.3257 0.31986 0.0
C1203 C 0.15138 0.31043 0.36236 0.0
C1204 C 0.2351 0.30232 0.26659 0.0
C1205 C 0.22187 0.30652 0.27608 0.0
C1206 C 0.18848 0.28711 0.30534 0.0
C1207 C 0.16855 0.31734 0.33769 0.0
C1208 C 0.18029 0.31185 0.325 0.0
C1209 C 0.21443 0.29504 0.28836 0.0
C1210 C 0.20223 0.30088 0.30042 0.0
H1211 H 0.13963 0.344 0.34131 0.0
H1212 H 0.16291 0.33891 0.3233 0.0
H1213 H 0.16717 0.28161 0.3211 0.0
H1214 H 0.23688 0.26178 0.28228 0.0
H1215 H 0.21439 0.26946 0.29941 0.0
C1216 C 0.94877 0.05113 0.18881 0.0
C1217 C 0.95798 0.05997 0.20658 0.0
C1218 C 0.95737 0.05054 0.17276 0.0
C1219 C 0.99918 0.07409 0.1537 0.0
H1220 H 0.98384 0.03016 0.1141 0.0
C1221 C 0.03851 0.06975 0.0899 0.0
C1222 C 0.03111 0.05784 0.07259 0.0
C1223 C 0.02947 0.06976 0.10551 0.0
C1224 C 0.98835 0.04281 0.12472 0.0
H1225 H 0.98407 0.07543 0.22058 0.0
H1226 H 0.99879 0.07523 0.19288 0.0
H1227 H 0.96915 0.03083 0.14159 0.0
H1228 H 0.00751 0.03621 0.05904 0.0
H1229 H 0.99151 0.03637 0.08596 0.0
H1230 H 0.01803 0.08639 0.13692 0.0
C1231 C 0.98479 0.06838 0.19125 0.0
C1232 C 0.97977 0.04316 0.14083 0.0
C1233 C 0.97626 0.06847 0.20738 0.0
C1234 C 0.01387 0.04583 0.07179 0.0
C1235 C 0.00468 0.04584 0.08759 0.0
C1236 C 0.00761 0.07385 0.13754 0.0
C1237 C 0.97564 0.05923 0.17343 0.0
C1238 C 0.98495 0.0588 0.15586 0.0
C1239 C 0.01221 0.05787 0.10501 0.0
C1240 C 1.00258 0.05816 0.12248 0.0
H1241 H 0.93479 0.04417 0.1873 0.0
H1242 H 0.9495 0.04339 0.15966 0.0
H1243 H 1.00371 0.08666 0.16444 0.0
H1244 H 0.05174 0.07919 0.0916 0.0
H1245 H 0.03645 0.07905 0.11818 0.0
C1246 C 0.26988 0.66765 0.45349 0.0
C1247 C 0.28749 0.67579 0.46137 0.0
C1248 C 0.26312 0.67385 0.43838 0.0
C1249 C 0.27192 0.71789 0.42044 0.0
H1250 H 0.2345 0.68922 0.38111 0.0
C1251 C 0.24824 0.75812 0.37105 0.0
C1252 C 0.24928 0.75042 0.3528 0.0
C1253 C 0.24641 0.74659 0.3843 0.0
C1254 C 0.24491 0.6974 0.39206 0.0
H1255 H 0.31233 0.69546 0.45937 0.0
H1256 H 0.30082 0.70574 0.43213 0.0
H1257 H 0.24745 0.67242 0.40194 0.0
H1258 H 0.24603 0.72415 0.33347 0.0
H1259 H 0.24422 0.70436 0.35673 0.0
H1260 H 0.27033 0.74268 0.4102 0.0
C1261 C 0.29208 0.69495 0.43787 0.0
C1262 C 0.2523 0.68779 0.40398 0.0
C1263 C 0.29876 0.68893 0.4532 0.0
C1264 C 0.24593 0.73058 0.34759 0.0
C1265 C 0.24461 0.71916 0.36093 0.0
C1266 C 0.26474 0.72741 0.40847 0.0
C1267 C 0.27399 0.68823 0.431 0.0
C1268 C 0.26611 0.69797 0.41805 0.0
C1269 C 0.24616 0.72737 0.3796 0.0
C1270 C 0.25132 0.71729 0.39397 0.0
H1271 H 0.26099 0.65767 0.45997 0.0
H1272 H 0.24915 0.6685 0.43352 0.0
H1273 H 0.28213 0.72621 0.43154 0.0
H1274 H 0.25059 0.77331 0.37555 0.0
H1275 H 0.24695 0.75316 0.39852 0.0
C1276 C 0.6582 0.04888 0.69253 0.0
C1277 C 0.64967 0.03855 0.70507 0.0
C1278 C 0.64849 0.05107 0.67684 0.0
C1279 C 0.61018 0.02527 0.64582 0.0
H1280 H 0.60884 0.07245 0.62985 0.0
C1281 C 0.55891 0.02606 0.58825 0.0
C1282 C 0.56484 0.03661 0.57488 0.0
C1283 C 0.56993 0.02809 0.6045 0.0
C1284 C 0.60932 0.05922 0.63415 0.0
H1285 H 0.62435 0.02309 0.71152 0.0
H1286 H 0.60757 0.02673 0.684 0.0
H1287 H 0.62775 0.07349 0.65837 0.0
H1288 H 0.58653 0.05776 0.56773 0.0
H1289 H 0.60613 0.0607 0.59594 0.0
H1290 H 0.59206 0.01087 0.62182 0.0
C1291 C 0.62172 0.03294 0.68629 0.0
C1292 C 0.62002 0.05984 0.65032 0.0
C1293 C 0.63135 0.03066 0.70185 0.0
C1294 C 0.58183 0.04928 0.57785 0.0
C1295 C 0.59292 0.05118 0.59402 0.0
C1296 C 0.59965 0.02464 0.62973 0.0
C1297 C 0.63027 0.04289 0.67364 0.0
C1298 C 0.62018 0.04282 0.65628 0.0
C1299 C 0.58704 0.04052 0.60737 0.0
C1300 C 0.5989 0.04158 0.62396 0.0
H1301 H 0.67229 0.05541 0.69493 0.0
H1302 H 0.6552 0.0587 0.66704 0.0
H1303 H 0.61045 0.01202 0.65018 0.0
H1304 H 0.54578 0.01636 0.58623 0.0
H1305 H 0.56509 0.01994 0.61481 0.0
C1306 C 0.32157 0.35894 0.96589 0.0
C1307 C 0.30645 0.35558 0.97462 0.0
C1308 C 0.32046 0.35259 0.94699 0.0
C1309 C 0.29353 0.31615 0.90847 0.0
H1310 H 0.32204 0.34739 0.87889 0.0
C1311 C 0.28901 0.29456 0.82947 0.0
C1312 C 0.30458 0.29894 0.82144 0.0
C1313 C 0.28911 0.30083 0.84822 0.0
C1314 C 0.3142 0.33838 0.88701 0.0
H1315 H 0.27824 0.34314 0.97058 0.0
H1316 H 0.27626 0.3314 0.9373 0.0
H1317 H 0.32135 0.36046 0.91096 0.0
H1318 H 0.33262 0.31275 0.82699 0.0
H1319 H 0.33284 0.32371 0.85996 0.0
H1320 H 0.28643 0.29403 0.8845 0.0
C1321 C 0.28899 0.33912 0.94512 0.0
C1322 C 0.31372 0.34591 0.90538 0.0
C1323 C 0.29007 0.34588 0.96409 0.0
C1324 C 0.32042 0.30916 0.83276 0.0
C1325 C 0.3205 0.31558 0.85159 0.0
C1326 C 0.29401 0.30861 0.89007 0.0
C1327 C 0.30422 0.34241 0.93637 0.0
C1328 C 0.30353 0.33484 0.91641 0.0
C1329 C 0.30477 0.31173 0.85947 0.0
C1330 C 0.30447 0.31958 0.87915 0.0
H1331 H 0.33432 0.36656 0.97374 0.0
H1332 H 0.33246 0.35526 0.94079 0.0
H1333 H 0.28573 0.30715 0.91662 0.0
H1334 H 0.27658 0.28657 0.82119 0.0
H1335 H 0.27675 0.29769 0.85374 0.0
C1336 C 0.97114 0.06649 0.32856 0.0
C1337 C 0.97304 0.05372 0.31316 0.0
C1338 C 0.97885 0.06658 0.34661 0.0
C1339 C 0.01177 0.04694 0.37299 0.0
H1340 H 0.99003 0.06279 0.41496 0.0
C1341 C 0.03157 0.03295 0.44684 0.0
C1342 C 0.03261 0.0471 0.46237 0.0
C1343 C 0.0249 0.03451 0.42898 0.0
C1344 C 0.99644 0.05844 0.40347 0.0
H1345 H 0.98495 0.03104 0.3053 0.0
H1346 H 0.9979 0.03086 0.33626 0.0
H1347 H 0.9776 0.06405 0.38402 0.0
H1348 H 0.02707 0.07405 0.47077 0.0
H1349 H 0.01515 0.0766 0.43984 0.0
H1350 H 0.03034 0.04089 0.39254 0.0
C1351 C 0.99077 0.04122 0.3346 0.0
C1352 C 0.98929 0.05923 0.38548 0.0
C1353 C 0.98314 0.04121 0.31659 0.0
C1354 C 0.02659 0.06284 0.4593 0.0
C1355 C 0.01961 0.06425 0.44145 0.0
C1356 C 0.01877 0.04592 0.39093 0.0
C1357 C 0.98876 0.05383 0.35015 0.0
C1358 C 0.99672 0.05343 0.36973 0.0
C1359 C 0.01867 0.05014 0.42587 0.0
C1360 C 0.01125 0.0516 0.40658 0.0
H1361 H 0.96351 0.0764 0.32671 0.0
H1362 H 0.97705 0.07685 0.35779 0.0
H1363 H 0.01844 0.04275 0.36168 0.0
H1364 H 0.03601 0.02057 0.44844 0.0
H1365 H 0.02433 0.0232 0.41759 0.0
C1366 C 0.29175 0.67244 0.57834 0.0
C1367 C 0.29682 0.68208 0.56397 0.0
C1368 C 0.28788 0.68209 0.59431 0.0
C1369 C 0.27629 0.72543 0.6133 0.0
H1370 H 0.29773 0.71765 0.65951 0.0
C1371 C 0.29156 0.77845 0.68217 0.0
C1372 C 0.29068 0.77078 0.69829 0.0
C1373 C 0.28757 0.76631 0.66503 0.0
C1374 C 0.2913 0.71969 0.64675 0.0
H1375 H 0.30196 0.70939 0.55507 0.0
H1376 H 0.29577 0.72642 0.58339 0.0
H1377 H 0.30062 0.69875 0.63089 0.0
H1378 H 0.28401 0.74466 0.70931 0.0
H1379 H 0.27638 0.72367 0.67954 0.0
H1380 H 0.26752 0.74695 0.62938 0.0
C1381 C 0.29446 0.71131 0.58205 0.0
C1382 C 0.293 0.70889 0.63037 0.0
C1383 C 0.29831 0.70165 0.56602 0.0
C1384 C 0.2846 0.75098 0.69709 0.0
C1385 C 0.28039 0.73893 0.68006 0.0
C1386 C 0.27459 0.73631 0.62978 0.0
C1387 C 0.28912 0.70156 0.59625 0.0
C1388 C 0.2858 0.7119 0.6135 0.0
C1389 C 0.28258 0.74645 0.66395 0.0
C1390 C 0.28232 0.73368 0.6466 0.0
H1391 H 0.29027 0.65731 0.57707 0.0
H1392 H 0.28367 0.67424 0.60504 0.0
H1393 H 0.27041 0.72778 0.60041 0.0
H1394 H 0.29623 0.79369 0.68283 0.0
H1395 H 0.28951 0.77242 0.65277 0.0
C1396 C 0.64139 0.06808 0.80679 0.0
C1397 C 0.641 0.04882 0.80335 0.0
C1398 C 0.6415 0.0773 0.82454 0.0
C1399 C 0.64501 0.07071 0.87358 0.0
H1400 H 0.61915 0.1085 0.87795 0.0
C1401 C 0.61692 0.08519 0.93896 0.0
C1402 C 0.59889 0.08339 0.93512 0.0
C1403 C 0.62789 0.08972 0.92576 0.0
C1404 C 0.62644 0.09799 0.87702 0.0
H1405 H 0.64087 0.024 0.81531 0.0
H1406 H 0.63888 0.03939 0.84634 0.0
H1407 H 0.62536 0.09623 0.84815 0.0
H1408 H 0.57837 0.08655 0.91559 0.0
H1409 H 0.59699 0.09347 0.89235 0.0
H1410 H 0.6438 0.0705 0.90203 0.0
C1411 C 0.63998 0.04778 0.83556 0.0
C1412 C 0.6303 0.0911 0.85987 0.0
C1413 C 0.64066 0.03875 0.81779 0.0
C1414 C 0.59229 0.08803 0.91886 0.0
C1415 C 0.60311 0.09212 0.90554 0.0
C1416 C 0.64048 0.07702 0.89062 0.0
C1417 C 0.6405 0.06725 0.83916 0.0
C1418 C 0.639 0.07677 0.85779 0.0
C1419 C 0.62082 0.09193 0.90841 0.0
C1420 C 0.63033 0.09001 0.89231 0.0
H1421 H 0.64247 0.07629 0.79582 0.0
H1422 H 0.6426 0.09239 0.82673 0.0
H1423 H 0.65242 0.06032 0.87269 0.0
H1424 H 0.62222 0.08182 0.95161 0.0
H1425 H 0.64157 0.09002 0.92862 0.0
C1426 C 0.29405 0.37122 0.093 0.0
C1427 C 0.30097 0.36308 0.07801 0.0
C1428 C 0.29169 0.36258 0.10851 0.0
C1429 C 0.30763 0.32976 0.13413 0.0
H1430 H 0.2652 0.32615 0.15673 0.0
C1431 C 0.29606 0.29094 0.1963 0.0
C1432 C 0.28539 0.29639 0.20891 0.0
C1433 C 0.29766 0.29853 0.18011 0.0
C1434 C 0.27735 0.3273 0.15096 0.0
H1435 H 0.31072 0.33924 0.06774 0.0
H1436 H 0.30677 0.32433 0.09483 0.0
H1437 H 0.26856 0.34044 0.12946 0.0
H1438 H 0.26829 0.31423 0.2148 0.0
H1439 H 0.27181 0.32845 0.18734 0.0
H1440 H 0.31684 0.31737 0.15584 0.0
C1441 C 0.30319 0.33745 0.09458 0.0
C1442 C 0.27919 0.33544 0.13511 0.0
C1443 C 0.30535 0.34596 0.07897 0.0
C1444 C 0.27654 0.30975 0.20521 0.0
C1445 C 0.27845 0.31773 0.18927 0.0
C1446 C 0.30596 0.32194 0.15018 0.0
C1447 C 0.29637 0.34566 0.10961 0.0
C1448 C 0.29434 0.33678 0.12644 0.0
C1449 C 0.28894 0.31217 0.17628 0.0
C1450 C 0.29076 0.32053 0.15895 0.0
H1451 H 0.29051 0.38436 0.09282 0.0
H1452 H 0.28654 0.36941 0.11986 0.0
H1453 H 0.31959 0.33073 0.12798 0.0
H1454 H 0.30292 0.28051 0.19879 0.0
H1455 H 0.30554 0.29338 0.17052 0.0
C1456 C 0.24764 0.96052 0.99764 0.0
C1457 C 0.26023 0.95938 0.01154 0.0
C1458 C 0.23328 0.9668 1.00227 0.0
C1459 C 0.21701 0.99163 0.04133 0.0
H1460 H 0.17276 0.97096 0.00869 0.0
C1461 C 0.1546 0.01543 0.05327 0.0
C1462 C 0.14806 0.02177 0.03788 0.0
C1463 C 0.16702 1.0052 0.0517 0.0
C1464 C 0.18501 0.97669 0.01799 0.0
H1465 H 0.26787 0.96337 0.04103 0.0
H1466 H 0.24237 0.97333 0.04917 0.0
H1467 H 0.19742 0.9583 1.00276 0.0
H1468 H 0.14944 0.02258 0.00893 0.0
H1469 H 0.17094 1.00463 0.00621 0.0
H1470 H 0.20439 0.01 0.05654 0.0
C1471 C 0.2438 0.97024 0.03474 0.0
C1472 C 0.19919 0.96963 0.01451 0.0
C1473 C 0.25839 0.96452 0.03009 0.0
C1474 C 0.15396 0.01752 0.02091 0.0
C1475 C 0.16625 0.00726 0.01934 0.0
C1476 C 0.20271 0.99848 0.04497 0.0
C1477 C 0.23104 0.97139 0.02088 0.0
C1478 C 0.21552 0.97747 0.02577 0.0
C1479 C 0.17292 1.0011 0.03471 0.0
C1480 C 0.18682 0.99148 0.03296 0.0
H1481 H 0.24892 0.95662 0.98325 0.0
H1482 H 0.22396 0.96803 0.99126 0.0
H1483 H 0.22941 0.99808 0.05025 0.0
H1484 H 0.15012 0.01839 0.06646 0.0
H1485 H 0.17205 1.00053 0.06371 0.0
C1486 C 0.72926 0.66302 0.00729 0.0
C1487 C 0.74199 0.65454 1.00077 0.0
C1488 C 0.71255 0.65182 0.00922 0.0
C1489 C 0.67981 0.60679 0.99046 0.0
H1490 H 0.6614 0.61152 0.03697 0.0
C1491 C 0.61362 0.5549 0.99766 0.0
C1492 C 0.6033 0.55985 0.01093 0.0
C1493 C 0.63053 0.56649 0.99724 0.0
C1494 C 0.66602 0.61012 0.02371 0.0
H1495 H 0.74703 0.62758 0.99105 0.0
H1496 H 0.71745 0.60803 0.9935 0.0
H1497 H 0.69037 0.63173 0.03439 0.0
H1498 H 0.60325 0.58082 0.03473 0.0
H1499 H 0.63191 0.60208 0.03296 0.0
H1500 H 0.65545 0.58631 0.97918 0.0
C1501 C 0.72059 0.62338 0.99742 0.0
C1502 C 0.68281 0.6217 0.02233 0.0
C1503 C 0.7375 0.63456 0.99599 0.0
C1504 C 0.61053 0.57677 0.02396 0.0
C1505 C 0.62729 0.58885 0.02311 0.0
C1506 C 0.66287 0.59565 0.99164 0.0
C1507 C 0.70797 0.63187 0.00422 0.0
C1508 C 0.68999 0.61996 0.00574 0.0
C1509 C 0.63765 0.58398 0.00964 0.0
C1510 C 0.65567 0.59677 0.00837 0.0
H1511 H 0.73237 0.67836 0.01137 0.0
H1512 H 0.70311 0.65878 0.01443 0.0
H1513 H 0.68485 0.60534 0.9774 0.0
H1514 H 0.60874 0.54176 0.98766 0.0
H1515 H 0.63801 0.56142 0.98715 0.0
C1516 C 0.70202 0.44551 0.27285 0.0
C1517 C 0.70412 0.45761 0.25964 0.0
C1518 C 0.7096 0.42989 0.27231 0.0
C1519 C 0.74108 0.40544 0.2462 0.0
H1520 H 0.72839 0.36884 0.27812 0.0
C1521 C 0.77984 0.34706 0.25266 0.0
C1522 C 0.77165 0.32919 0.25717 0.0
C1523 C 0.77129 0.3618 0.25248 0.0
C1524 C 0.73218 0.37869 0.26888 0.0
H1525 H 0.71625 0.46142 0.23508 0.0
H1526 H 0.72891 0.43474 0.23382 0.0
H1527 H 0.71457 0.39452 0.27848 0.0
H1528 H 0.74733 0.31376 0.26529 0.0
H1529 H 0.7327 0.33919 0.26537 0.0
H1530 H 0.75844 0.38924 0.23639 0.0
C1531 C 0.72168 0.43725 0.24511 0.0
C1532 C 0.72419 0.394 0.26921 0.0
C1533 C 0.71416 0.45291 0.24573 0.0
C1534 C 0.75435 0.32701 0.2616 0.0
C1535 C 0.74589 0.34193 0.26177 0.0
C1536 C 0.74904 0.39017 0.2459 0.0
C1537 C 0.71981 0.42513 0.25844 0.0
C1538 C 0.72837 0.40807 0.25794 0.0
C1539 C 0.75406 0.35985 0.25716 0.0
C1540 C 0.74497 0.37629 0.25728 0.0
H1541 H 0.69446 0.44816 0.28388 0.0
H1542 H 0.70746 0.42171 0.28316 0.0
H1543 H 0.74526 0.41532 0.23713 0.0
H1544 H 0.79306 0.34973 0.24911 0.0
H1545 H 0.77855 0.37503 0.24897 0.0
C1546 C 0.8624 0.43766 0.51937 0.0
C1547 C 0.85091 0.44398 0.50793 0.0
C1548 C 0.87994 0.44809 0.52405 0.0
C1549 C 0.91478 0.47678 0.50707 0.0
H1550 H 0.9343 0.50411 0.55682 0.0
C1551 C 0.98033 0.53047 0.51855 0.0
C1552 C 0.99265 0.52795 0.53196 0.0
C1553 C 0.96258 0.52218 0.51848 0.0
C1554 C 0.92898 0.4964 0.54295 0.0
H1555 H 0.84854 0.46566 0.49205 0.0
H1556 H 0.87965 0.48362 0.49974 0.0
H1557 H 0.90378 0.48365 0.55049 0.0
H1558 H 0.99651 0.51672 0.55687 0.0
H1559 H 0.96518 0.50127 0.55624 0.0
H1560 H 0.93976 0.48896 0.49938 0.0
C1561 C 0.87484 0.47081 0.50528 0.0
C1562 C 0.9117 0.48479 0.53938 0.0
C1563 C 0.85721 0.46059 0.50088 0.0
C1564 C 0.98707 0.51849 0.54625 0.0
C1565 C 0.96925 0.50982 0.54597 0.0
C1566 C 0.93199 0.48813 0.51063 0.0
C1567 C 0.88613 0.46466 0.51701 0.0
C1568 C 0.90455 0.47534 0.52135 0.0
C1569 C 0.95704 0.51091 0.53155 0.0
C1570 C 0.93906 0.49841 0.52847 0.0
H1571 H 0.85775 0.42494 0.5251 0.0
H1572 H 0.88868 0.4432 0.53299 0.0
H1573 H 0.90938 0.46926 0.49315 0.0
H1574 H 0.98444 0.5383 0.50778 0.0
H1575 H 0.95325 0.52366 0.50758 0.0
C1576 C 0.40486 0.09927 0.28634 0.0
C1577 C 0.39487 0.08076 0.28693 0.0
C1578 C 0.39712 0.11142 0.27831 0.0
C1579 C 0.35908 0.11108 0.24595 0.0
H1580 H 0.37026 0.16419 0.26939 0.0
C1581 C 0.31597 0.15964 0.23238 0.0
C1582 C 0.32392 0.17926 0.23423 0.0
C1583 C 0.32617 0.14743 0.23532 0.0
C1584 C 0.3673 0.14952 0.2624 0.0
H1585 H 0.36889 0.06056 0.28036 0.0
H1586 H 0.35513 0.08221 0.26706 0.0
H1587 H 0.38456 0.14326 0.28275 0.0
H1588 H 0.34873 0.20141 0.23914 0.0
H1589 H 0.36668 0.17995 0.24397 0.0
H1590 H 0.34144 0.11732 0.22584 0.0
C1591 C 0.36905 0.08709 0.27227 0.0
C1592 C 0.37543 0.13751 0.27013 0.0
C1593 C 0.37685 0.07483 0.28012 0.0
C1594 C 0.34231 0.18633 0.23787 0.0
C1595 C 0.35254 0.17409 0.24065 0.0
C1596 C 0.35093 0.12313 0.23819 0.0
C1597 C 0.37921 0.10535 0.271 0.0
C1598 C 0.37119 0.11814 0.26216 0.0
C1599 C 0.34449 0.15464 0.24005 0.0
C1600 C 0.35476 0.14239 0.24654 0.0
H1601 H 0.41886 0.10405 0.29118 0.0
H1602 H 0.4053 0.12534 0.27729 0.0
H1603 H 0.35584 0.09625 0.23935 0.0
H1604 H 0.30179 0.15388 0.22981 0.0
H1605 H 0.31956 0.13258 0.23503 0.0
C1606 C 0.35412 0.15758 0.50257 0.0
C1607 C 0.3397 0.1517 0.512 0.0
C1608 C 0.36968 0.1525 0.50657 0.0
C1609 C 0.39339 0.13315 0.54192 0.0
H1610 H 0.41889 0.12097 0.50185 0.0
C1611 C 0.44333 0.08836 0.54462 0.0
C1612 C 0.45838 0.09358 0.53586 0.0
C1613 C 0.43046 0.09811 0.54381 0.0
C1614 C 0.41207 0.12458 0.51327 0.0
H1615 H 0.33048 0.13588 0.53316 0.0
H1616 H 0.35717 0.12653 0.53967 0.0
H1617 H 0.39326 0.13235 0.49583 0.0
H1618 H 0.47221 0.11431 0.52067 0.0
H1619 H 0.44954 0.13089 0.51883 0.0
H1620 H 0.41197 0.12456 0.55915 0.0
C1621 C 0.35673 0.13541 0.52942 0.0
C1622 C 0.39734 0.13117 0.50983 0.0
C1623 C 0.34125 0.14058 0.5255 0.0
C1624 C 0.4606 0.10948 0.52713 0.0
C1625 C 0.44763 0.11907 0.52613 0.0
C1626 C 0.40803 0.12632 0.54531 0.0
C1627 C 0.37123 0.14131 0.52006 0.0
C1628 C 0.38762 0.13536 0.52404 0.0
C1629 C 0.43221 0.11321 0.53406 0.0
C1630 C 0.41745 0.1218 0.53097 0.0
H1631 H 0.3535 0.16637 0.49227 0.0
H1632 H 0.38059 0.15761 0.49924 0.0
H1633 H 0.38658 0.13662 0.55337 0.0
H1634 H 0.441 0.07612 0.55135 0.0
H1635 H 0.41869 0.09319 0.55 0.0
C1636 C 0.69568 0.57809 0.26401 0.0
C1637 C 0.70244 0.56831 0.27655 0.0
C1638 C 0.70404 0.5974 0.26323 0.0
C1639 C 0.73943 0.64213 0.2901 0.0
H1640 H 0.7324 0.66229 0.24571 0.0
C1641 C 0.78215 0.71823 0.28341 0.0
C1642 C 0.77601 0.72966 0.27223 0.0
C1643 C 0.77232 0.69944 0.28405 0.0
C1644 C 0.73448 0.65717 0.25839 0.0
H1645 H 0.72365 0.57207 0.29843 0.0
H1646 H 0.73841 0.60527 0.29704 0.0
H1647 H 0.7182 0.62891 0.24629 0.0
H1648 H 0.75394 0.72914 0.25255 0.0
H1649 H 0.73663 0.69634 0.25365 0.0
H1650 H 0.75573 0.67029 0.30219 0.0
C1651 C 0.72643 0.59818 0.28766 0.0
C1652 C 0.72619 0.63765 0.25877 0.0
C1653 C 0.71804 0.57878 0.28837 0.0
C1654 C 0.75919 0.72126 0.26171 0.0
C1655 C 0.74931 0.70213 0.26217 0.0
C1656 C 0.74774 0.66155 0.2897 0.0
C1657 C 0.71964 0.60816 0.27513 0.0
C1658 C 0.7285 0.62945 0.27462 0.0
C1659 C 0.75569 0.69063 0.27333 0.0
C1660 C 0.74568 0.66967 0.27381 0.0
H1661 H 0.68359 0.57078 0.2548 0.0
H1662 H 0.69785 0.60396 0.25348 0.0
H1663 H 0.7415 0.63721 0.30289 0.0
H1664 H 0.79503 0.72374 0.29158 0.0
H1665 H 0.77825 0.69158 0.29264 0.0
C1666 C 0.89554 0.49137 0.8114 0.0
C1667 C 0.91178 0.49695 0.80498 0.0
C1668 C 0.88415 0.47347 0.8044 0.0
C1669 C 0.86918 0.43789 0.76472 0.0
H1670 H 0.85272 0.4047 0.79888 0.0
C1671 C 0.82974 0.35905 0.7482 0.0
C1672 C 0.81957 0.35272 0.76167 0.0
C1673 C 0.83784 0.37837 0.74969 0.0
C1674 C 0.8569 0.41402 0.78925 0.0
H1675 H 0.92926 0.48803 0.7868 0.0
H1676 H 0.90906 0.45642 0.77464 0.0
H1677 H 0.87601 0.434 0.80994 0.0
H1678 H 0.80692 0.36127 0.78493 0.0
H1679 H 0.82084 0.39514 0.78729 0.0
H1680 H 0.84984 0.41776 0.74398 0.0
C1681 C 0.90529 0.46612 0.78493 0.0
C1682 C 0.87038 0.43052 0.79553 0.0
C1683 C 0.91683 0.48401 0.79209 0.0
C1684 C 0.81532 0.36588 0.77485 0.0
C1685 C 0.82311 0.38518 0.77608 0.0
C1686 C 0.8555 0.42128 0.75838 0.0
C1687 C 0.88885 0.46101 0.79091 0.0
C1688 C 0.87637 0.44261 0.7834 0.0
C1689 C 0.83559 0.39131 0.76452 0.0
C1690 C 0.84909 0.40947 0.77075 0.0
H1691 H 0.89131 0.50112 0.82121 0.0
H1692 H 0.8714 0.46955 0.80908 0.0
H1693 H 0.87376 0.4473 0.75528 0.0
H1694 H 0.83276 0.34908 0.73755 0.0
H1695 H 0.84728 0.38284 0.74049 0.0
C1696 C 0.07902 0.86357 0.0701 0.0
C1697 C 0.07681 0.86127 0.0883 0.0
C1698 C 0.0755 0.87908 0.06327 0.0
C1699 C 0.07214 0.92808 0.07888 0.0
H1700 H 0.04991 0.9224 0.02875 0.0
C1701 C 0.07004 0.99372 0.04636 0.0
C1702 C 0.05481 0.99303 0.03467 0.0
C1703 C 0.07218 0.97738 0.05251 0.0
C1704 C 0.05601 0.92426 0.04284 0.0
H1705 H 0.06918 0.87361 0.11356 0.0
H1706 H 0.06333 0.90078 0.10182 0.0
H1707 H 0.05423 0.8945 0.04026 0.0
H1708 H 0.02992 0.97431 0.02015 0.0
H1709 H 0.03364 0.94578 0.0309 0.0
H1710 H 0.07369 0.9577 0.08163 0.0
C1711 C 0.06774 0.89057 0.09275 0.0
C1712 C 0.05868 0.90824 0.04939 0.0
C1713 C 0.07098 0.87489 0.09947 0.0
C1714 C 0.04184 0.97541 0.02913 0.0
C1715 C 0.04402 0.95899 0.03523 0.0
C1716 C 0.0695 0.94406 0.07234 0.0
C1717 C 0.06995 0.89293 0.07454 0.0
C1718 C 0.06683 0.90992 0.06751 0.0
C1719 C 0.05918 0.95977 0.04716 0.0
C1720 C 0.06149 0.94246 0.05418 0.0
H1721 H 0.08339 0.85328 0.06107 0.0
H1722 H 0.07749 0.88042 0.04924 0.0
H1723 H 0.07861 0.93005 0.09282 0.0
H1724 H 0.08034 0.00697 0.05098 0.0
H1725 H 0.08417 0.97859 0.0614 0.0
C1726 C 0.95573 0.2752 0.88908 0.0
C1727 C 0.97005 0.27187 0.88051 0.0
C1728 C 0.94105 0.27807 0.87895 0.0
C1729 C 0.92694 0.29146 0.83427 0.0
H1730 H 0.87962 0.27206 0.84543 0.0
C1731 C 0.86717 0.28981 0.78304 0.0
C1732 C 0.85112 0.2915 0.78867 0.0
C1733 C 0.88101 0.28849 0.79541 0.0
C1734 C 0.89272 0.27786 0.84221 0.0
H1735 H 0.97973 0.26893 0.8542 0.0
H1736 H 0.95424 0.27374 0.83657 0.0
H1737 H 0.90458 0.26722 0.86405 0.0
H1738 H 0.8374 0.29305 0.81246 0.0
H1739 H 0.86191 0.29124 0.83448 0.0
H1740 H 0.91538 0.30239 0.81274 0.0
C1741 C 0.95439 0.27434 0.85126 0.0
C1742 C 0.90716 0.27502 0.85294 0.0
C1743 C 0.96906 0.2714 0.86139 0.0
C1744 C 0.84951 0.29199 0.8075 0.0
C1745 C 0.86362 0.29074 0.82012 0.0
C1746 C 0.91261 0.29443 0.8237 0.0
C1747 C 0.94011 0.27784 0.85984 0.0
C1748 C 0.92454 0.28146 0.84895 0.0
C1749 C 0.8797 0.28899 0.81425 0.0
C1750 C 0.89511 0.28734 0.82711 0.0
H1751 H 0.95591 0.27581 0.90378 0.0
H1752 H 0.93058 0.28091 0.88627 0.0
H1753 H 0.94001 0.29723 0.83095 0.0
H1754 H 0.8691 0.28922 0.76872 0.0
H1755 H 0.89269 0.28661 0.7899 0.0
C1756 C 0.57934 0.25044 0.57456 0.0
C1757 C 0.57244 0.2545 0.59099 0.0
C1758 C 0.57771 0.23154 0.56651 0.0
C1759 C 0.55336 0.18154 0.56717 0.0
H1760 H 0.59565 0.16994 0.55301 0.0
C1761 C 0.55738 0.10502 0.55627 0.0
C1762 C 0.56533 0.09876 0.54138 0.0
C1763 C 0.55914 0.12434 0.56181 0.0
C1764 C 0.58367 0.17295 0.55668 0.0
H1765 H 0.55755 0.24188 0.61125 0.0
H1766 H 0.55488 0.20925 0.59741 0.0
H1767 H 0.59567 0.2031 0.56206 0.0
H1768 H 0.58189 0.10742 0.52096 0.0
H1769 H 0.58442 0.14146 0.5301 0.0
H1770 H 0.54131 0.15155 0.5619 0.0
C1771 C 0.56147 0.22052 0.59062 0.0
C1772 C 0.58366 0.19195 0.56181 0.0
C1773 C 0.5631 0.23929 0.59863 0.0
C1774 C 0.57567 0.11209 0.53249 0.0
C1775 C 0.57713 0.1315 0.53779 0.0
C1776 C 0.55334 0.16262 0.56199 0.0
C1777 C 0.56905 0.21641 0.57469 0.0
C1778 C 0.56858 0.19643 0.56739 0.0
C1779 C 0.56852 0.13778 0.55225 0.0
C1780 C 0.56857 0.15805 0.55698 0.0
H1781 H 0.58661 0.26185 0.56835 0.0
H1782 H 0.58347 0.22877 0.55408 0.0
H1783 H 0.54144 0.18451 0.5711 0.0
H1784 H 0.54961 0.09489 0.56351 0.0
H1785 H 0.55286 0.12869 0.57341 0.0
C1786 C 0.57998 0.78358 0.39334 0.0
C1787 C 0.56347 0.77626 0.38223 0.0
C1788 C 0.5956 0.78632 0.38554 0.0
C1789 C 0.61322 0.76994 0.34338 0.0
H1790 H 0.65422 0.81228 0.36405 0.0
C1791 C 0.68031 0.77206 0.31922 0.0
C1792 C 0.69161 0.78968 0.31752 0.0
C1793 C 0.66537 0.77116 0.32801 0.0
C1794 C 0.64289 0.80044 0.35795 0.0
H1795 H 0.55052 0.76634 0.35411 0.0
H1796 H 0.57781 0.77092 0.3404 0.0
H1797 H 0.62663 0.81002 0.37658 0.0
H1798 H 0.69617 0.82031 0.32477 0.0
H1799 H 0.66974 0.81872 0.33931 0.0
H1800 H 0.62912 0.76064 0.32436 0.0
C1801 C 0.57868 0.77447 0.35523 0.0
C1802 C 0.62706 0.79902 0.36532 0.0
C1803 C 0.56299 0.77193 0.36305 0.0
C1804 C 0.68768 0.80643 0.32541 0.0
C1805 C 0.67257 0.80552 0.33404 0.0
C1806 C 0.62896 0.77142 0.33595 0.0
C1807 C 0.59522 0.78164 0.36638 0.0
C1808 C 0.612 0.78368 0.35818 0.0
C1809 C 0.66098 0.78783 0.33518 0.0
C1810 C 0.64413 0.78659 0.34318 0.0
H1811 H 0.58087 0.78734 0.40817 0.0
H1812 H 0.60799 0.79171 0.39463 0.0
H1813 H 0.60205 0.75779 0.33764 0.0
H1814 H 0.68263 0.75879 0.31323 0.0
H1815 H 0.65715 0.75726 0.32899 0.0
C1816 C 0.08398 0.28007 0.43441 0.0
C1817 C 0.09043 0.27986 0.41741 0.0
C1818 C 0.07779 0.26314 0.44079 0.0
C1819 C 0.08154 0.21472 0.43678 0.0
H1820 H 0.03817 0.20535 0.45833 0.0
C1821 C 0.05584 0.14649 0.46521 0.0
C1822 C 0.05086 0.14932 0.48289 0.0
C1823 C 0.05832 0.16105 0.45499 0.0
C1824 C 0.05032 0.20781 0.4524 0.0
H1825 H 0.09569 0.2619 0.39386 0.0
H1826 H 0.08516 0.23228 0.40523 0.0
H1827 H 0.0478 0.23394 0.44509 0.0
H1828 H 0.044 0.16944 0.50341 0.0
H1829 H 0.04828 0.19476 0.48558 0.0
H1830 H 0.08443 0.18899 0.44455 0.0
C1831 C 0.08487 0.24555 0.41356 0.0
C1832 C 0.05582 0.22414 0.44485 0.0
C1833 C 0.09091 0.26247 0.40708 0.0
C1834 C 0.04763 0.1667 0.48975 0.0
C1835 C 0.05008 0.18123 0.47952 0.0
C1836 C 0.07609 0.19844 0.44439 0.0
C1837 C 0.07809 0.24573 0.43037 0.0
C1838 C 0.07161 0.22786 0.43723 0.0
C1839 C 0.05584 0.17871 0.46222 0.0
C1840 C 0.06056 0.19496 0.45251 0.0
H1841 H 0.08321 0.29324 0.44255 0.0
H1842 H 0.07281 0.26368 0.45391 0.0
H1843 H 0.09386 0.21737 0.43115 0.0
H1844 H 0.0581 0.13312 0.4594 0.0
H1845 H 0.06247 0.1586 0.44155 0.0
C1846 C 0.55616 0.26977 0.19255 0.0
C1847 C 0.54978 0.26083 0.17421 0.0
C1848 C 0.57311 0.27052 0.20008 0.0
C1849 C 0.6076 0.24626 0.19195 0.0
H1850 H 0.63663 0.2892 0.22825 0.0
C1851 C 0.67045 0.24207 0.23184 0.0
C1852 C 0.68513 0.258 0.23443 0.0
C1853 C 0.65404 0.24333 0.22504 0.0
C1854 C 0.62873 0.27723 0.21795 0.0
H1855 H 0.55591 0.24579 0.14926 0.0
H1856 H 0.58546 0.24765 0.16208 0.0
H1857 H 0.60792 0.29022 0.2146 0.0
H1858 H 0.69454 0.28777 0.23247 0.0
H1859 H 0.66564 0.29001 0.22025 0.0
H1860 H 0.62873 0.23373 0.19448 0.0
C1861 C 0.57746 0.25378 0.17086 0.0
C1862 C 0.6122 0.27767 0.21035 0.0
C1863 C 0.56059 0.25296 0.16342 0.0
C1864 C 0.68326 0.27534 0.23046 0.0
C1865 C 0.66678 0.27662 0.22364 0.0
C1866 C 0.62422 0.246 0.19923 0.0
C1867 C 0.58383 0.26232 0.18933 0.0
C1868 C 0.60144 0.26213 0.19735 0.0
C1869 C 0.6521 0.26053 0.22064 0.0
C1870 C 0.63483 0.26136 0.21247 0.0
H1871 H 0.54801 0.27598 0.20107 0.0
H1872 H 0.57759 0.27706 0.21441 0.0
H1873 H 0.59955 0.23387 0.18223 0.0
H1874 H 0.67175 0.22853 0.23466 0.0
H1875 H 0.64289 0.23078 0.22312 0.0
C1876 C 0.58839 0.88829 0.90998 0.0
C1877 C 0.59584 0.87661 0.91952 0.0
C1878 C 0.58283 0.90286 0.91961 0.0
C1879 C 0.56883 0.91559 0.96444 0.0
H1880 H 0.57373 0.96515 0.95097 0.0
C1881 C 0.56685 0.98121 0.01401 0.0
C1882 C 0.55489 0.991 0.00875 0.0
C1883 C 0.56974 0.96674 1.00148 0.0
C1884 C 0.57205 0.95121 0.9546 0.0
H1885 H 0.60453 0.87184 0.9465 0.0
H1886 H 0.59547 0.89778 0.96335 0.0
H1887 H 0.58474 0.94156 0.93234 0.0
H1888 H 0.53622 0.99323 0.98654 0.0
H1889 H 0.54197 0.96818 0.96411 0.0
H1890 H 0.55694 0.92561 0.98718 0.0
C1891 C 0.59333 0.89524 0.94844 0.0
C1892 C 0.57836 0.93778 0.94405 0.0
C1893 C 0.5987 0.88053 0.93882 0.0
C1894 C 0.54569 0.986 0.99078 0.0
C1895 C 0.54891 0.97174 0.97803 0.0
C1896 C 0.56274 0.92905 0.97505 0.0
C1897 C 0.58479 0.90609 0.93892 0.0
C1898 C 0.5772 0.92002 0.94918 0.0
C1899 C 0.56092 0.96203 0.98341 0.0
C1900 C 0.56466 0.94704 0.97042 0.0
H1901 H 0.58595 0.88555 0.89506 0.0
H1902 H 0.57625 0.91095 0.91191 0.0
H1903 H 0.56724 0.90181 0.96838 0.0
H1904 H 0.57407 0.98479 0.0278 0.0
H1905 H 0.57913 0.95942 0.00579 0.0
C1906 C 0.94474 0.74735 0.69258 0.0
C1907 C 0.95318 0.7604 0.68216 0.0
C1908 C 0.92989 0.74956 0.69998 0.0
C1909 C 0.91221 0.78631 0.71859 0.0
H1910 H 0.86897 0.74606 0.71573 0.0
C1911 C 0.85142 0.79865 0.74739 0.0
C1912 C 0.84064 0.78386 0.75438 0.0
C1913 C 0.86595 0.79598 0.73962 0.0
C1914 C 0.88112 0.75729 0.7169 0.0
H1915 H 0.95252 0.78538 0.67049 0.0
H1916 H 0.92651 0.78949 0.68393 0.0
H1917 H 0.89165 0.74033 0.69747 0.0
H1918 H 0.83721 0.7554 0.76026 0.0
H1919 H 0.86317 0.75097 0.7472 0.0
H1920 H 0.90207 0.80312 0.73842 0.0
C1921 C 0.93147 0.77759 0.68622 0.0
C1922 C 0.89389 0.75409 0.7063 0.0
C1923 C 0.94624 0.77525 0.67861 0.0
C1924 C 0.84526 0.7669 0.75473 0.0
C1925 C 0.85999 0.76434 0.74718 0.0
C1926 C 0.89956 0.78944 0.72938 0.0
C1927 C 0.92346 0.76492 0.69716 0.0
C1928 C 0.90944 0.76861 0.70711 0.0
C1929 C 0.87006 0.77863 0.73902 0.0
C1930 C 0.88392 0.77497 0.72857 0.0
H1931 H 0.94976 0.73561 0.69527 0.0
H1932 H 0.92388 0.73975 0.70852 0.0
H1933 H 0.92436 0.79752 0.71958 0.0
H1934 H 0.84808 0.81186 0.74685 0.0
H1935 H 0.87337 0.80713 0.73321 0.0
C1936 C 0.12859 0.01351 0.83937 0.0
C1937 C 0.12778 0.02647 0.82735 0.0
C1938 C 0.12126 0.01442 0.85626 0.0
C1939 C 0.10101 0.04624 0.88975 0.0
H1940 H 0.09217 1.00279 0.91405 0.0
C1941 C 0.07653 0.05123 0.96399 0.0
C1942 C 0.06734 0.03453 0.96985 0.0
C1943 C 0.08403 0.05049 0.94714 0.0
C1944 C 0.09426 0.01522 0.90767 0.0
H1945 H 0.1178 0.05059 0.82456 0.0
H1946 H 0.10496 0.05202 0.85319 0.0
H1947 H 0.10326 1.00067 0.88477 0.0
H1948 H 0.05887 1.0039 0.96152 0.0
H1949 H 0.07191 1.00244 0.93316 0.0
H1950 H 0.09138 0.06053 0.91241 0.0
C1951 C 0.1116 0.04116 0.84998 0.0
C1952 C 0.10108 0.01406 0.89051 0.0
C1953 C 0.11898 0.04027 0.83312 0.0
C1954 C 0.06619 0.01716 0.95807 0.0
C1955 C 0.0738 0.01636 0.94144 0.0
C1956 C 0.09408 0.04735 0.90687 0.0
C1957 C 0.11256 0.02835 0.86225 0.0
C1958 C 0.10479 0.02955 0.88093 0.0
C1959 C 0.08283 0.03298 0.93521 0.0
C1960 C 0.0905 0.0319 0.9165 0.0
H1961 H 0.13511 1.00258 0.83582 0.0
H1962 H 0.12281 1.00418 0.86474 0.0
H1963 H 0.10356 0.05883 0.88359 0.0
H1964 H 0.07727 0.06501 0.97202 0.0
H1965 H 0.09072 0.06386 0.94351 0.0
C1966 C 0.81026 0.38292 0.55133 0.0
C1967 C 0.8001 0.39582 0.55146 0.0
C1968 C 0.81856 0.38062 0.56782 0.0
C1969 C 0.81444 0.38452 0.61601 0.0
H1970 H 0.86329 0.38386 0.62227 0.0
C1971 C 0.83998 0.36548 0.68018 0.0
C1972 C 0.84375 0.348 0.67541 0.0
C1973 C 0.84075 0.3776 0.66753 0.0
C1974 C 0.84973 0.38432 0.62072 0.0
H1975 H 0.79056 0.41648 0.56839 0.0
H1976 H 0.80436 0.41172 0.59747 0.0
H1977 H 0.85066 0.39127 0.59378 0.0
H1978 H 0.85375 0.33072 0.65505 0.0
H1979 H 0.85505 0.35186 0.63299 0.0
H1980 H 0.81307 0.37667 0.64232 0.0
C1981 C 0.80599 0.40353 0.58466 0.0
C1982 C 0.84251 0.38835 0.60448 0.0
C1983 C 0.79796 0.40607 0.56817 0.0
C1984 C 0.85074 0.34411 0.65904 0.0
C1985 C 0.85154 0.35625 0.64641 0.0
C1986 C 0.82162 0.38053 0.63215 0.0
C1987 C 0.81653 0.391 0.58455 0.0
C1988 C 0.82474 0.38819 0.60199 0.0
C1989 C 0.8453 0.37231 0.65007 0.0
C1990 C 0.83924 0.38017 0.63455 0.0
H1991 H 0.81261 0.37545 0.53847 0.0
H1992 H 0.82657 0.3708 0.56751 0.0
H1993 H 0.80062 0.38395 0.61417 0.0
H1994 H 0.83493 0.36894 0.69295 0.0
H1995 H 0.8361 0.39009 0.67065 0.0
C1996 C 0.4778 0.03284 0.34469 0.0
C1997 C 0.47493 0.05049 0.34326 0.0
C1998 C 0.48147 0.02847 0.36186 0.0
C1999 C 0.4821 0.04562 0.41181 0.0
H2000 H 0.51739 0.01841 0.41635 0.0
C2001 C 0.53564 0.0561 0.47263 0.0
C2002 C 0.5371 0.03961 0.47881 0.0
C2003 C 0.52318 0.05461 0.45762 0.0
C2004 C 0.50726 0.02567 0.41517 0.0
H2005 H 0.4736 0.07748 0.35817 0.0
H2006 H 0.48191 0.07073 0.38839 0.0
H2007 H 0.50554 0.02134 0.38606 0.0
H2008 H 0.52686 0.00888 0.47515 0.0
H2009 H 0.50576 0.0062 0.44803 0.0
H2010 H 0.48542 0.05145 0.44133 0.0
C2011 C 0.48044 0.05984 0.37634 0.0
C2012 C 0.50039 0.02732 0.39785 0.0
C2013 C 0.47611 0.06393 0.35912 0.0
C2014 C 0.52587 0.02172 0.47033 0.0
C2015 C 0.51378 0.02018 0.45508 0.0
C2016 C 0.48937 0.04439 0.4292 0.0
C2017 C 0.48296 0.04197 0.37787 0.0
C2018 C 0.48815 0.03784 0.39602 0.0
C2019 C 0.51252 0.0366 0.4486 0.0
C2020 C 0.50228 0.03484 0.43085 0.0
H2021 H 0.4763 0.02198 0.33257 0.0
H2022 H 0.48287 0.01442 0.36252 0.0
H2023 H 0.47227 0.05328 0.4108 0.0
H2024 H 0.54406 0.07 0.47938 0.0
H2025 H 0.52242 0.06736 0.45251 0.0
C2026 C 0.7966 0.74147 0.06092 0.0
C2027 C 0.80285 0.72546 0.05651 0.0
C2028 C 0.79594 0.74891 0.07938 0.0
C2029 C 0.81201 0.74666 0.12784 0.0
H2030 H 0.7697 0.76011 0.13907 0.0
C2031 C 0.79537 0.75303 0.2014 0.0
C2032 C 0.78889 0.76823 0.20829 0.0
C2033 C 0.79627 0.74847 0.18262 0.0
C2034 C 0.78168 0.75659 0.13618 0.0
H2035 H 0.81422 0.70544 0.06822 0.0
H2036 H 0.81276 0.71799 0.09986 0.0
H2037 H 0.77427 0.75251 0.10699 0.0
H2038 H 0.77767 0.79021 0.20098 0.0
H2039 H 0.77968 0.78262 0.16799 0.0
H2040 H 0.81937 0.75046 0.15688 0.0
C2041 C 0.80853 0.72507 0.08929 0.0
C2042 C 0.78435 0.75231 0.11776 0.0
C2043 C 0.80927 0.71776 0.071 0.0
C2044 C 0.7826 0.77833 0.19594 0.0
C2045 C 0.78378 0.77397 0.17708 0.0
C2046 C 0.80933 0.75087 0.14616 0.0
C2047 C 0.80155 0.74051 0.09378 0.0
C2048 C 0.79944 0.74698 0.11333 0.0
C2049 C 0.79105 0.75927 0.17026 0.0
C2050 C 0.794 0.75559 0.15061 0.0
H2051 H 0.79153 0.74775 0.05012 0.0
H2052 H 0.79075 0.76103 0.08233 0.0
H2053 H 0.82398 0.74306 0.12506 0.0
H2054 H 0.80009 0.74486 0.21063 0.0
H2055 H 0.8014 0.73667 0.17784 0.0
C2056 C 0.14266 0.02428 0.70778 0.0
C2057 C 0.1333 0.01177 0.71828 0.0
C2058 C 0.13483 0.02712 0.6909 0.0
C2059 C 0.0937 0.00753 0.65397 0.0
H2060 H 0.11484 0.05334 0.63583 0.0
C2061 C 0.06971 0.01797 0.57924 0.0
C2062 C 0.07163 0.03643 0.57531 0.0
C2063 C 0.07651 0.01502 0.59658 0.0
C2064 C 0.10845 0.04048 0.64056 0.0
H2065 H 0.10786 0.99222 0.71853 0.0
H2066 H 0.0941 0.99696 0.68926 0.0
H2067 H 0.12697 0.0486 0.66525 0.0
H2068 H 0.08247 0.06633 0.5874 0.0
H2069 H 0.09411 0.06136 0.61735 0.0
H2070 H 0.07469 0.9999 0.62947 0.0
C2071 C 0.10773 1.00477 0.69396 0.0
C2072 C 0.11576 0.03749 0.65767 0.0
C2073 C 0.11561 1.00206 0.71106 0.0
C2074 C 0.08058 0.05185 0.58963 0.0
C2075 C 0.08749 0.04892 0.60697 0.0
C2076 C 0.08629 0.01061 0.6369 0.0
C2077 C 0.1171 0.01751 0.68339 0.0
C2078 C 0.10873 0.02085 0.66489 0.0
C2079 C 0.08571 0.0304 0.61094 0.0
C2080 C 0.0935 0.02714 0.62964 0.0
H2081 H 0.15626 0.03214 0.71276 0.0
H2082 H 0.14305 0.03679 0.68365 0.0
H2083 H 0.08761 0.99439 0.65839 0.0
H2084 H 0.06294 1.00561 0.56881 0.0
H2085 H 0.0748 1.00048 0.59849 0.0
C2086 C 0.79135 0.37774 0.4356 0.0
C2087 C 0.80286 0.37802 0.45118 0.0
C2088 C 0.79495 0.37134 0.41807 0.0
C2089 C 0.81874 0.33991 0.39642 0.0
H2090 H 0.80583 0.3584 0.35253 0.0
C2091 C 0.82022 0.3003 0.32385 0.0
C2092 C 0.8048 0.29771 0.31186 0.0
C2093 C 0.82353 0.31309 0.34056 0.0
C2094 C 0.80957 0.35318 0.36472 0.0
H2095 H 0.8278 0.37353 0.4609 0.0
H2096 H 0.83429 0.36293 0.43045 0.0
H2097 H 0.80501 0.37635 0.38281 0.0
H2098 H 0.7808 0.30595 0.3072 0.0
H2099 H 0.78616 0.32767 0.33663 0.0
H2100 H 0.82261 0.31639 0.37845 0.0
C2101 C 0.82218 0.36685 0.43166 0.0
C2102 C 0.80905 0.3634 0.38197 0.0
C2103 C 0.8184 0.37281 0.44907 0.0
C2104 C 0.79269 0.30774 0.31654 0.0
C2105 C 0.79592 0.32037 0.33316 0.0
C2106 C 0.81926 0.32973 0.37922 0.0
C2107 C 0.8103 0.36557 0.41603 0.0
C2108 C 0.81313 0.35651 0.39792 0.0
C2109 C 0.81142 0.32328 0.34526 0.0
C2110 C 0.81411 0.33593 0.36324 0.0
H2111 H 0.77942 0.382 0.437 0.0
H2112 H 0.78548 0.37031 0.40622 0.0
H2113 H 0.82177 0.33414 0.40848 0.0
H2114 H 0.82982 0.2929 0.32009 0.0
H2115 H 0.8356 0.31517 0.3497 0.0
C2116 C 0.46502 0.0433 0.24371 0.0
C2117 C 0.44721 0.0384 0.24605 0.0
C2118 C 0.47042 0.03415 0.22853 0.0
C2119 C 0.45939 0.99353 0.19088 0.0
H2120 H 0.48587 0.0309 0.16512 0.0
C2121 C 0.48221 0.9926 0.11641 0.0
C2122 C 0.50068 0.99784 0.1189 0.0
C2123 C 0.47329 0.99129 0.13168 0.0
C2124 C 0.47838 0.02038 0.17218 0.0
H2125 H 0.42116 0.01956 0.23487 0.0
H2126 H 0.43069 1.00409 0.20775 0.0
H2127 H 0.47563 0.04164 0.19362 0.0
H2128 H 0.52429 1.00485 0.13882 0.0
H2129 H 0.50869 1.00271 0.1653 0.0
H2130 H 0.46257 0.97228 0.16919 0.0
C2131 C 0.44036 0.01483 0.21787 0.0
C2132 C 0.47271 0.02647 0.18845 0.0
C2133 C 0.43492 0.02394 0.23313 0.0
C2134 C 0.51003 1.00022 0.1365 0.0
C2135 C 0.50117 0.999 0.15164 0.0
C2136 C 0.46519 0.98739 0.17446 0.0
C2137 C 0.45807 0.02017 0.21538 0.0
C2138 C 0.46345 0.01312 0.19804 0.0
C2139 C 0.48287 0.99531 0.14934 0.0
C2140 C 0.47486 1.00088 0.16529 0.0
H2141 H 0.47486 0.05396 0.25372 0.0
H2142 H 0.48422 0.03824 0.22685 0.0
H2143 H 0.45218 0.9831 0.19819 0.0
H2144 H 0.47485 0.99093 0.10293 0.0
H2145 H 0.45914 0.98884 0.1299 0.0
C2146 C 0.78887 0.7095 0.93493 0.0
C2147 C 0.7922 0.7228 0.95149 0.0
C2148 C 0.7898 0.71555 0.91789 0.0
C2149 C 0.81069 0.75557 0.89635 0.0
H2150 H 0.7715 0.73541 0.85689 0.0
C2151 C 0.80845 0.79059 0.83227 0.0
C2152 C 0.79892 0.78027 0.81522 0.0
C2153 C 0.80803 0.78246 0.84807 0.0
C2154 C 0.78278 0.74099 0.86752 0.0
H2155 H 0.79945 0.75288 0.9632 0.0
H2156 H 0.80201 0.76352 0.93355 0.0
H2157 H 0.77023 0.72347 0.88577 0.0
H2158 H 0.7813 0.75308 0.80167 0.0
H2159 H 0.78125 0.73827 0.82897 0.0
H2160 H 0.8237 0.77245 0.87821 0.0
C2161 C 0.79831 0.74838 0.93369 0.0
C2162 C 0.78195 0.73418 0.8842 0.0
C2163 C 0.79683 0.74231 0.95067 0.0
C2164 C 0.78911 0.76131 0.81438 0.0
C2165 C 0.78886 0.75296 0.83027 0.0
C2166 C 0.81172 0.76204 0.87957 0.0
C2167 C 0.79462 0.73509 0.91705 0.0
C2168 C 0.79578 0.74162 0.89894 0.0
C2169 C 0.79826 0.76347 0.84749 0.0
C2170 C 0.79763 0.7552 0.86491 0.0
H2171 H 0.78511 0.69437 0.93512 0.0
H2172 H 0.78692 0.70495 0.90536 0.0
H2173 H 0.8217 0.76139 0.9073 0.0
H2174 H 0.81609 0.8053 0.83358 0.0
H2175 H 0.81508 0.79146 0.86087 0.0
C2176 C 0.83854 0.12796 1.00246 0.0
C2177 C 0.82817 0.12057 0.01534 0.0
C2178 C 0.85369 0.1225 0.99953 0.0
C2179 C 0.87406 0.08435 0.00696 0.0
H2180 H 0.9155 0.11868 0.99466 0.0
C2181 C 0.9301 0.05597 0.9861 0.0
C2182 C 0.94727 0.06687 0.99368 0.0
C2183 C 0.91617 0.06394 0.98691 0.0
C2184 C 0.90408 0.109 0.99825 0.0
H2185 H 0.82565 0.10246 0.03585 0.0
H2186 H 0.85246 0.09361 0.03143 0.0
H2187 H 0.89031 0.13029 1.00126 0.0
H2188 H 0.96342 0.09512 0.00703 0.0
H2189 H 0.93878 0.10879 0.00947 0.0
H2190 H 0.88802 0.06343 0.00515 0.0
C2191 C 0.84863 0.10296 0.02299 0.0
C2192 C 0.88957 0.11556 1.00179 0.0
C2193 C 0.83331 0.10807 0.02559 0.0
C2194 C 0.95028 0.08623 1.0014 0.0
C2195 C 0.93621 0.09414 1.00256 0.0
C2196 C 0.88861 0.07795 0.00382 0.0
C2197 C 0.85883 0.10985 0.00971 0.0
C2198 C 0.8744 0.10325 0.00613 0.0
C2199 C 0.91895 0.08286 0.9958 0.0
C2200 C 0.9037 0.0901 0.99921 0.0
H2201 H 0.83477 0.13766 0.99441 0.0
H2202 H 0.86113 0.12785 0.98903 0.0
H2203 H 0.8625 0.07435 0.00992 0.0
H2204 H 0.92719 0.04097 0.98025 0.0
H2205 H 0.90308 0.05502 0.98112 0.0
C2206 C 0.36596 0.44483 0.02887 0.0
C2207 C 0.36235 0.42714 0.03465 0.0
C2208 C 0.38334 0.45481 0.02727 0.0
C2209 C 0.43053 0.45896 0.04336 0.0
H2210 H 0.4398 0.48424 1.00186 0.0
C2211 C 0.5023 0.49668 0.03147 0.0
C2212 C 0.50474 0.51474 0.02662 0.0
C2213 C 0.48518 0.48482 0.03152 0.0
C2214 C 0.4375 0.47741 0.01365 0.0
H2215 H 0.37438 0.40633 0.04357 0.0
H2216 H 0.40448 0.42384 0.04134 0.0
H2217 H 0.4097 0.4668 0.00437 0.0
H2218 H 0.49116 0.53411 0.01732 0.0
H2219 H 0.46161 0.51342 0.01674 0.0
H2220 H 0.45831 0.46969 0.05272 0.0
C2221 C 0.39397 0.43005 0.0379 0.0
C2222 C 0.42014 0.4674 0.01511 0.0
C2223 C 0.37663 0.41994 0.03912 0.0
C2224 C 0.48974 0.52029 0.02115 0.0
C2225 C 0.47273 0.50833 0.02075 0.0
C2226 C 0.4479 0.46898 0.04191 0.0
C2227 C 0.39766 0.44759 0.03178 0.0
C2228 C 0.41631 0.45813 0.03008 0.0
C2229 C 0.47009 0.49053 0.02626 0.0
C2230 C 0.45168 0.47856 0.02712 0.0
H2231 H 0.3553 0.45069 0.02507 0.0
H2232 H 0.38557 0.46829 0.02261 0.0
H2233 H 0.42821 0.4522 0.05519 0.0
H2234 H 0.5136 0.49205 0.03592 0.0
H2235 H 0.48378 0.4712 0.03574 0.0
C2236 C 0.39731 0.62659 0.76431 0.0
C2237 C 0.39257 0.61092 0.74931 0.0
C2238 C 0.38987 0.64238 0.76505 0.0
C2239 C 0.355 0.66136 0.73787 0.0
H2240 H 0.37151 0.70532 0.77727 0.0
C2241 C 0.31799 0.72205 0.74496 0.0
C2242 C 0.3268 0.74132 0.75297 0.0
C2243 C 0.32627 0.70707 0.74477 0.0
C2244 C 0.36663 0.69334 0.76595 0.0
H2245 H 0.3757 0.60082 0.72314 0.0
H2246 H 0.36319 0.62746 0.72409 0.0
H2247 H 0.38475 0.67907 0.77647 0.0
H2248 H 0.35207 0.75897 0.76745 0.0
H2249 H 0.36631 0.73312 0.7675 0.0
H2250 H 0.33707 0.67582 0.72727 0.0
C2251 C 0.37256 0.62793 0.73576 0.0
C2252 C 0.37432 0.67775 0.76551 0.0
C2253 C 0.37995 0.61217 0.73509 0.0
C2254 C 0.34452 0.74462 0.761 0.0
C2255 C 0.35277 0.72948 0.7611 0.0
C2256 C 0.34733 0.67688 0.73835 0.0
C2257 C 0.37715 0.64373 0.75077 0.0
C2258 C 0.36881 0.66105 0.75143 0.0
C2259 C 0.34395 0.71016 0.75283 0.0
C2260 C 0.35278 0.69342 0.7524 0.0
H2261 H 0.40691 0.62671 0.77572 0.0
H2262 H 0.39426 0.65352 0.77711 0.0
H2263 H 0.34973 0.64951 0.72656 0.0
H2264 H 0.30445 0.71841 0.73853 0.0
H2265 H 0.31846 0.69282 0.7384 0.0
C2266 C 0.23157 0.62481 0.51915 0.0
C2267 C 0.23853 0.62505 0.50258 0.0
C2268 C 0.21362 0.62143 0.51911 0.0
C2269 C 0.17169 0.59945 0.49041 0.0
H2270 H 0.15633 0.62452 0.53308 0.0
C2271 C 0.11026 0.56254 0.5169 0.0
C2272 C 0.1003 0.57334 0.52552 0.0
C2273 C 0.12627 0.57167 0.51204 0.0
C2274 C 0.16018 0.61768 0.5208 0.0
H2275 H 0.23298 0.62227 0.47303 0.0
H2276 H 0.20103 0.61582 0.47277 0.0
H2277 H 0.18606 0.63674 0.52674 0.0
H2278 H 0.09846 0.60158 0.53605 0.0
H2279 H 0.12619 0.61783 0.52671 0.0
H2280 H 0.14569 0.58068 0.48417 0.0
C2281 C 0.20944 0.61817 0.48576 0.0
C2282 C 0.17729 0.62453 0.51731 0.0
C2283 C 0.22754 0.62163 0.48585 0.0
C2284 C 0.10636 0.5932 0.52962 0.0
C2285 C 0.12212 0.6024 0.52422 0.0
C2286 C 0.1544 0.59292 0.49358 0.0
C2287 C 0.20244 0.61844 0.50246 0.0
C2288 C 0.18346 0.61468 0.50284 0.0
C2289 C 0.1321 0.5917 0.51514 0.0
C2290 C 0.14887 0.60123 0.50947 0.0
H2291 H 0.2401 0.62792 0.53219 0.0
H2292 H 0.20853 0.62121 0.53214 0.0
H2293 H 0.1761 0.59171 0.47904 0.0
H2294 H 0.1055 0.54712 0.51369 0.0
H2295 H 0.13397 0.563 0.50573 0.0
C2296 C 0.71013 1.00121 0.75124 0.0
C2297 C 0.7038 0.01227 0.76451 0.0
C2298 C 0.71464 0.98525 0.75536 0.0
C2299 C 0.72885 0.9659 0.79421 0.0
H2300 H 0.71699 0.91911 0.75799 0.0
C2301 C 0.76883 0.91327 0.79314 0.0
C2302 C 0.76076 0.89388 0.78632 0.0
C2303 C 0.75899 0.92619 0.79345 0.0
C2304 C 0.72002 0.93189 0.76844 0.0
H2305 H 0.69728 0.01615 0.79227 0.0
H2306 H 0.7056 0.9884 0.79973 0.0
H2307 H 0.70512 0.94507 0.75191 0.0
H2308 H 0.73608 0.87241 0.77543 0.0
H2309 H 0.71862 0.89519 0.77624 0.0
H2310 H 0.74369 0.95282 0.81079 0.0
C2311 C 0.70695 0.99186 0.78617 0.0
C2312 C 0.7135 0.94681 0.76481 0.0
C2313 C 0.70221 0.00761 0.78195 0.0
C2314 C 0.74253 0.88739 0.78064 0.0
C2315 C 0.73261 0.90036 0.78108 0.0
C2316 C 0.73517 0.95091 0.79796 0.0
C2317 C 0.71305 0.9805 0.77286 0.0
C2318 C 0.71831 0.96407 0.77744 0.0
C2319 C 0.74088 0.9199 0.78708 0.0
C2320 C 0.7313 0.93404 0.78484 0.0
H2321 H 0.71113 1.00463 0.73762 0.0
H2322 H 0.71952 0.97675 0.74497 0.0
H2323 H 0.73282 0.97916 0.8041 0.0
H2324 H 0.78293 0.91861 0.79725 0.0
H2325 H 0.76581 0.94121 0.79771 0.0
C2326 C 0.7539 0.91536 0.51773 0.0
C2327 C 0.7661 0.92344 0.53384 0.0
C2328 C 0.73896 0.92183 0.51434 0.0
C2329 C 0.72296 0.96415 0.52851 0.0
H2330 H 0.67648 0.93097 0.50818 0.0
C2331 C 0.66205 0.99064 0.53475 0.0
C2332 C 0.64881 0.98611 0.51952 0.0
C2333 C 0.67564 0.98192 0.5348 0.0
C2334 C 0.68943 0.94044 0.51368 0.0
H2335 H 0.77159 0.94405 0.55934 0.0
H2336 H 0.74573 0.95496 0.55366 0.0
H2337 H 0.70149 0.91749 0.51137 0.0
H2338 H 0.63939 0.9685 0.49242 0.0
H2339 H 0.66332 0.95315 0.49251 0.0
H2340 H 0.71109 0.98702 0.53105 0.0
C2341 C 0.74785 0.94405 0.54332 0.0
C2342 C 0.70377 0.93271 0.5155 0.0
C2343 C 0.76272 0.93771 0.54663 0.0
C2344 C 0.64943 0.97237 0.50435 0.0
C2345 C 0.66305 0.96348 0.50445 0.0
C2346 C 0.70873 0.97179 0.52674 0.0
C2347 C 0.73589 0.9365 0.527 0.0
C2348 C 0.72067 0.94446 0.52337 0.0
C2349 C 0.67648 0.96839 0.51961 0.0
C2350 C 0.69169 0.96004 0.51972 0.0
H2351 H 0.75601 0.90423 0.50763 0.0
H2352 H 0.73005 0.91567 0.50162 0.0
H2353 H 0.73582 0.97377 0.53407 0.0
H2354 H 0.66218 1.00133 0.54656 0.0
H2355 H 0.68558 0.98587 0.54683 0.0
C2356 C 0.38096 0.49809 0.76415 0.0
C2357 C 0.39683 0.5029 0.75653 0.0
C2358 C 0.3722 0.47878 0.76511 0.0
C2359 C 0.3701 0.42647 0.7461 0.0
H2360 H 0.34481 0.41589 0.78703 0.0
C2361 C 0.3357 0.34602 0.75443 0.0
C2362 C 0.32058 0.34253 0.76349 0.0
C2363 C 0.34588 0.36507 0.75394 0.0
C2364 C 0.35148 0.41823 0.77519 0.0
H2365 H 0.41546 0.49021 0.74382 0.0
H2366 H 0.40024 0.45722 0.74486 0.0
H2367 H 0.35919 0.44864 0.78491 0.0
H2368 H 0.305 0.35722 0.7793 0.0
H2369 H 0.32217 0.38929 0.77868 0.0
H2370 H 0.36226 0.39603 0.73629 0.0
C2371 C 0.39437 0.4682 0.75023 0.0
C2372 C 0.35993 0.43745 0.77401 0.0
C2373 C 0.40325 0.48742 0.74965 0.0
C2374 C 0.31653 0.35892 0.7723 0.0
C2375 C 0.32664 0.37771 0.77199 0.0
C2376 C 0.36151 0.4072 0.7472 0.0
C2377 C 0.37867 0.46323 0.75817 0.0
C2378 C 0.36943 0.44222 0.75938 0.0
C2379 C 0.34153 0.38154 0.76261 0.0
C2380 C 0.35176 0.40243 0.76172 0.0
H2381 H 0.37556 0.50932 0.76998 0.0
H2382 H 0.36021 0.47609 0.7713 0.0
H2383 H 0.37701 0.42897 0.73443 0.0
H2384 H 0.33931 0.33409 0.74709 0.0
H2385 H 0.35715 0.36678 0.7466 0.0
C2386 C 0.17678 0.61166 0.26229 0.0
C2387 C 0.18188 0.60295 0.27652 0.0
C2388 C 0.1856 0.63043 0.26199 0.0
C2389 C 0.23043 0.65805 0.2762 0.0
H2390 H 0.21611 0.69543 0.25185 0.0
C2391 C 0.27493 0.73017 0.27136 0.0
C2392 C 0.27219 0.73745 0.25535 0.0
C2393 C 0.26458 0.71247 0.27293 0.0
C2394 C 0.22019 0.68484 0.25837 0.0
H2395 H 0.19782 0.6072 0.30293 0.0
H2396 H 0.21272 0.64053 0.30295 0.0
H2397 H 0.19375 0.67015 0.26076 0.0
H2398 H 0.25812 0.73162 0.22767 0.0
H2399 H 0.23973 0.70024 0.23045 0.0
H2400 H 0.25683 0.67277 0.27388 0.0
C2401 C 0.20249 0.63269 0.29168 0.0
C2402 C 0.20748 0.67064 0.2637 0.0
C2403 C 0.19399 0.61376 0.29173 0.0
C2404 C 0.26025 0.72618 0.24018 0.0
C2405 C 0.24975 0.70841 0.24179 0.0
C2406 C 0.24309 0.67226 0.27095 0.0
C2407 C 0.19932 0.6406 0.27612 0.0
C2408 C 0.21253 0.65715 0.27265 0.0
C2409 C 0.2514 0.70192 0.25849 0.0
C2410 C 0.23803 0.68569 0.26201 0.0
H2411 H 0.16743 0.60345 0.25041 0.0
H2412 H 0.18294 0.63616 0.2498 0.0
H2413 H 0.23466 0.64746 0.28255 0.0
H2414 H 0.28438 0.7386 0.28309 0.0
H2415 H 0.26601 0.70772 0.28595 0.0
C2416 C 0.52295 0.70598 0.44102 0.0
C2417 C 0.53122 0.7247 0.4504 0.0
C2418 C 0.52491 0.69033 0.44865 0.0
C2419 C 0.53725 0.67585 0.4927 0.0
H2420 H 0.54567 0.63351 0.4606 0.0
C2421 C 0.55668 0.61335 0.5201 0.0
C2422 C 0.5481 0.59496 0.51011 0.0
C2423 C 0.55483 0.62949 0.51324 0.0
C2424 C 0.54317 0.64512 0.46974 0.0
H2425 H 0.54765 0.74163 0.47543 0.0
H2426 H 0.55082 0.71437 0.48891 0.0
H2427 H 0.5414 0.66076 0.44798 0.0
H2428 H 0.53134 0.57904 0.4849 0.0
H2429 H 0.52834 0.60701 0.47285 0.0
H2430 H 0.53902 0.66013 0.51446 0.0
C2431 C 0.54287 0.71175 0.47559 0.0
C2432 C 0.54068 0.66076 0.46248 0.0
C2433 C 0.54113 0.72739 0.46782 0.0
C2434 C 0.53793 0.59303 0.49303 0.0
C2435 C 0.53635 0.60909 0.48604 0.0
C2436 C 0.53974 0.66018 0.49997 0.0
C2437 C 0.53499 0.693 0.466 0.0
C2438 C 0.53761 0.67632 0.47383 0.0
C2439 C 0.54468 0.62754 0.49607 0.0
C2440 C 0.54265 0.64457 0.48856 0.0
H2441 H 0.51532 0.70341 0.42753 0.0
H2442 H 0.5185 0.67611 0.44095 0.0
H2443 H 0.53473 0.68747 0.50182 0.0
H2444 H 0.56463 0.61525 0.53329 0.0
H2445 H 0.56153 0.64348 0.52127 0.0
C2446 C 0.63997 0.32143 0.67378 0.0
C2447 C 0.63498 0.31407 0.65483 0.0
C2448 C 0.65564 0.31983 0.6831 0.0
C2449 C 0.68755 0.29097 0.68174 0.0
H2450 H 0.71883 0.33519 0.71462 0.0
C2451 C 0.75472 0.28917 0.72237 0.0
C2452 C 0.75909 0.29979 0.74046 0.0
C2453 C 0.74035 0.29076 0.71042 0.0
C2454 C 0.71021 0.32252 0.70574 0.0
H2455 H 0.64235 0.29867 0.63099 0.0
H2456 H 0.66929 0.2953 0.64733 0.0
H2457 H 0.69213 0.33785 0.69779 0.0
H2458 H 0.75188 0.3206 0.75982 0.0
H2459 H 0.72749 0.32326 0.73962 0.0
H2460 H 0.70541 0.27546 0.69016 0.0
C2461 C 0.66132 0.3027 0.65494 0.0
C2462 C 0.69482 0.32413 0.69599 0.0
C2463 C 0.64595 0.30481 0.64552 0.0
C2464 C 0.74906 0.31223 0.74599 0.0
C2465 C 0.73498 0.31388 0.73422 0.0
C2466 C 0.7029 0.28926 0.69176 0.0
C2467 C 0.66649 0.31026 0.67387 0.0
C2468 C 0.68315 0.30838 0.68394 0.0
C2469 C 0.73018 0.30316 0.71621 0.0
C2470 C 0.71444 0.30499 0.70414 0.0
H2471 H 0.63178 0.3285 0.68139 0.0
H2472 H 0.6591 0.32576 0.69767 0.0
H2473 H 0.67886 0.27848 0.67265 0.0
H2474 H 0.76194 0.27922 0.7177 0.0
H2475 H 0.7372 0.28224 0.69667 0.0
C2476 C 0.03982 0.33675 0.96482 0.0
C2477 C 0.02649 0.32833 0.94989 0.0
C2478 C 0.0427 0.35589 0.97299 0.0
C2479 C 0.03132 0.40053 0.96624 0.0
H2480 H 0.03894 0.41191 0.01966 0.0
C2481 C 0.02272 0.46947 0.00752 0.0
C2482 C 0.03654 0.47946 0.02164 0.0
C2483 C 0.02169 0.45091 0.999 0.0
C2484 C 0.03693 0.40897 0.00473 0.0
H2485 H 0.00595 0.33288 0.93143 0.0
H2486 H 0.01068 0.36608 0.94572 0.0
H2487 H 0.03836 0.3804 0.00361 0.0
H2488 H 0.0596 0.47767 0.03853 0.0
H2489 H 0.05762 0.44522 0.02389 0.0
H2490 H 0.02953 0.42906 0.96748 0.0
C2491 C 0.01922 0.3583 0.95102 0.0
C2492 C 0.03673 0.39096 0.99551 0.0
C2493 C 0.01642 0.33927 0.94287 0.0
C2494 C 0.04878 0.47027 0.02769 0.0
C2495 C 0.04764 0.45169 0.01933 0.0
C2496 C 0.03139 0.4185 0.97548 0.0
C2497 C 0.03217 0.36678 0.96641 0.0
C2498 C 0.03378 0.38644 0.97614 0.0
C2499 C 0.03433 0.44198 0.00462 0.0
C2500 C 0.03408 0.42285 0.99482 0.0
H2501 H 0.04765 0.32843 0.97046 0.0
H2502 H 0.05295 0.36204 0.98465 0.0
H2503 H 0.02932 0.39768 0.95132 0.0
H2504 H 0.01321 0.47629 1.00243 0.0
H2505 H 0.01117 0.44366 0.98782 0.0
C2506 C 0.02275 0.78824 0.16804 0.0
C2507 C 0.02747 0.8008 0.15575 0.0
C2508 C 0.00585 0.78395 0.17311 0.0
C2509 C 0.96647 0.80193 0.17474 0.0
H2510 H 0.94476 0.75172 0.18465 0.0
C2511 C 0.89786 0.78385 0.19805 0.0
C2512 C 0.89672 0.77547 0.21386 0.0
C2513 C 0.91227 0.78475 0.1884 0.0
C2514 C 0.95066 0.76582 0.18198 0.0
H2515 H 0.0179 0.81851 0.13897 0.0
H2516 H 0.98834 0.81096 0.1477 0.0
H2517 H 0.97287 0.75792 0.17265 0.0
H2518 H 0.90957 0.76051 0.23118 0.0
H2519 H 0.9345 0.76181 0.21418 0.0
H2520 H 0.9443 0.80983 0.18413 0.0
C2521 C 0.99783 0.80464 0.1537 0.0
C2522 C 0.96684 0.76943 0.17516 0.0
C2523 C 0.01481 0.809 0.14868 0.0
C2524 C 0.90986 0.76695 0.21903 0.0
C2525 C 0.92422 0.76773 0.20928 0.0
C2526 C 0.95025 0.79828 0.18142 0.0
C2527 C 0.99309 0.79202 0.16598 0.0
C2528 C 0.97515 0.78765 0.17178 0.0
C2529 C 0.92586 0.77714 0.19417 0.0
C2530 C 0.94228 0.78029 0.18542 0.0
H2531 H 0.0321 0.78155 0.17369 0.0
H2532 H 1.00287 0.77445 0.18283 0.0
H2533 H 0.97248 0.81619 0.17256 0.0
H2534 H 0.88779 0.79012 0.19333 0.0
H2535 H 0.91293 0.79173 0.17658 0.0
C2536 C 0.5316 0.31048 0.12389 0.0
C2537 C 0.51355 0.30122 0.11988 0.0
C2538 C 0.53845 0.32749 0.11801 0.0
C2539 C 0.5291 0.35162 0.08098 0.0
H2540 H 0.56718 0.39385 0.10869 0.0
C2541 C 0.56366 0.41034 0.04559 0.0
C2542 C 0.56511 0.42889 0.05472 0.0
C2543 C 0.56016 0.39523 0.05498 0.0
C2544 C 0.55652 0.38217 0.10085 0.0
H2545 H 0.48824 0.30222 0.1074 0.0
H2546 H 0.50023 0.3323 0.0969 0.0
H2547 H 0.55353 0.36754 0.12356 0.0
H2548 H 0.56562 0.44648 0.08114 0.0
H2549 H 0.55879 0.41987 0.09745 0.0
H2550 H 0.53164 0.36634 0.05845 0.0
C2551 C 0.50908 0.3264 0.10457 0.0
C2552 C 0.54878 0.36713 0.1093 0.0
C2553 C 0.5022 0.30939 0.11063 0.0
C2554 C 0.56425 0.43224 0.07372 0.0
C2555 C 0.56055 0.41706 0.08309 0.0
C2556 C 0.53675 0.36666 0.07258 0.0
C2557 C 0.52732 0.33532 0.10787 0.0
C2558 C 0.53497 0.35177 0.09942 0.0
C2559 C 0.55779 0.39835 0.07359 0.0
C2560 C 0.55054 0.38205 0.08242 0.0
H2561 H 0.54048 0.30421 0.13107 0.0
H2562 H 0.55255 0.33396 0.12059 0.0
H2563 H 0.51873 0.33976 0.07293 0.0
H2564 H 0.56413 0.40727 0.03092 0.0
H2565 H 0.55846 0.38097 0.04744 0.0
C2566 C 0.03522 0.30741 0.36527 0.0
C2567 C 0.04924 0.32266 0.36335 0.0
C2568 C 0.01884 0.3041 0.35497 0.0
C2569 C 0.99702 0.31616 0.31412 0.0
H2570 H 0.95518 0.29916 0.33697 0.0
C2571 C 0.92924 0.32144 0.28664 0.0
C2572 C 0.91439 0.3065 0.28741 0.0
C2573 C 0.94585 0.32127 0.29417 0.0
C2574 C 0.96675 0.30358 0.33032 0.0
H2575 H 0.05755 0.34667 0.34975 0.0
H2576 H 0.02849 0.34164 0.33239 0.0
H2577 H 0.98401 0.30417 0.35432 0.0
H2578 H 0.90525 0.27924 0.29591 0.0
H2579 H 0.9345 0.279 0.30927 0.0
H2580 H 0.97964 0.31621 0.29035 0.0
C2581 C 0.03024 0.33175 0.34125 0.0
C2582 C 0.98327 0.30649 0.34024 0.0
C2583 C 0.04679 0.33475 0.35122 0.0
C2584 C 0.9165 0.29103 0.29532 0.0
C2585 C 0.93317 0.29089 0.30293 0.0
C2586 C 0.9805 0.31341 0.30427 0.0
C2587 C 0.01612 0.3163 0.34294 0.0
C2588 C 0.99859 0.31292 0.33228 0.0
C2589 C 0.94791 0.30618 0.30266 0.0
C2590 C 0.96525 0.30726 0.31235 0.0
H2591 H 0.03706 0.29783 0.37446 0.0
H2592 H 0.00837 0.29184 0.35629 0.0
H2593 H 0.00855 0.32076 0.30747 0.0
H2594 H 0.92797 0.33373 0.28096 0.0
H2595 H 0.95696 0.33339 0.29408 0.0
C2596 C 0.98594 0.69122 0.63103 0.0
C2597 C 0.98529 0.70545 0.62071 0.0
C2598 C 0.99271 0.67644 0.62433 0.0
C2599 C 0.02225 0.66639 0.59113 0.0
H2600 H 0.00768 0.6158 0.60278 0.0
C2601 C 0.05132 0.60788 0.56021 0.0
C2602 C 0.03769 0.59217 0.55081 0.0
C2603 C 0.04758 0.62134 0.5734 0.0
C2604 C 0.01199 0.62995 0.59958 0.0
H2605 H 0.98861 0.71393 0.59423 0.0
H2606 H 0.99927 0.68723 0.58196 0.0
H2607 H 0.99256 0.63901 0.61342 0.0
H2608 H 0.01016 0.57683 0.54856 0.0
H2609 H 1.00355 0.60004 0.5714 0.0
H2610 H 0.04057 0.65659 0.57576 0.0
C2611 C 0.99561 0.68819 0.5957 0.0
C2612 C 1.00338 0.64328 0.60573 0.0
C2613 C 0.98912 0.70322 0.60255 0.0
C2614 C 0.02075 0.58908 0.55559 0.0
C2615 C 0.01706 0.60226 0.56885 0.0
C2616 C 0.03059 0.65286 0.58458 0.0
C2617 C 0.9984 0.67532 0.60697 0.0
C2618 C 0.00808 0.66146 0.60113 0.0
C2619 C 0.03028 0.61884 0.57741 0.0
C2620 C 0.02506 0.63432 0.58822 0.0
H2621 H 0.98289 0.6925 0.64502 0.0
H2622 H 0.99462 0.66677 0.63338 0.0
H2623 H 0.02661 0.68053 0.58794 0.0
H2624 H 0.06451 0.61029 0.55657 0.0
H2625 H 0.05797 0.63401 0.57987 0.0
C2626 C 0.649 0.83196 0.85876 0.0
C2627 C 0.63603 0.81641 0.86193 0.0
C2628 C 0.66132 0.82895 0.84736 0.0
C2629 C 0.66835 0.79323 0.81063 0.0
H2630 H 0.71705 0.8235 0.82347 0.0
C2631 C 0.72717 0.77666 0.77814 0.0
C2632 C 0.7399 0.7924 0.77465 0.0
C2633 C 0.71292 0.77937 0.7867 0.0
C2634 C 0.70343 0.81512 0.81964 0.0
H2635 H 0.62523 0.78577 0.85615 0.0
H2636 H 0.64721 0.78029 0.83664 0.0
H2637 H 0.69577 0.82862 0.84377 0.0
H2638 H 0.74692 0.82305 0.77581 0.0
H2639 H 0.72208 0.82766 0.79074 0.0
H2640 H 0.6763 0.77938 0.78671 0.0
C2641 C 0.64779 0.79479 0.84261 0.0
C2642 C 0.69127 0.81805 0.83122 0.0
C2643 C 0.6354 0.79784 0.85388 0.0
C2644 C 0.73746 0.81066 0.77856 0.0
C2645 C 0.7233 0.81334 0.78713 0.0
C2646 C 0.68058 0.79017 0.79912 0.0
C2647 C 0.66076 0.81033 0.83911 0.0
C2648 C 0.67362 0.80716 0.82682 0.0
C2649 C 0.7113 0.79782 0.79182 0.0
C2650 C 0.69816 0.80117 0.80353 0.0
H2651 H 0.64933 0.84639 0.86473 0.0
H2652 H 0.67099 0.84121 0.84468 0.0
H2653 H 0.65475 0.78483 0.80676 0.0
H2654 H 0.72869 0.76241 0.77528 0.0
H2655 H 0.70379 0.76722 0.79027 0.0
C2656 C 0.45088 0.55294 0.69355 0.0
C2657 C 0.46005 0.56194 0.71131 0.0
C2658 C 0.45956 0.55184 0.67757 0.0
C2659 C 0.50188 0.57395 0.65846 0.0
H2660 H 0.48572 0.52964 0.61933 0.0
C2661 C 0.54131 0.56716 0.59489 0.0
C2662 C 0.53382 0.55503 0.57771 0.0
C2663 C 0.53219 0.5678 0.61044 0.0
C2664 C 0.49048 0.54238 0.62981 0.0
H2665 H 0.4862 0.57711 0.72533 0.0
H2666 H 0.50108 0.57603 0.69774 0.0
H2667 H 0.47095 0.53127 0.64672 0.0
H2668 H 0.50994 0.53373 0.56432 0.0
H2669 H 0.49383 0.53496 0.59113 0.0
H2670 H 0.52107 0.58539 0.64164 0.0
C2671 C 0.48704 0.56945 0.69607 0.0
C2672 C 0.48185 0.5433 0.64588 0.0
C2673 C 0.47841 0.57006 0.71215 0.0
C2674 C 0.5164 0.54347 0.57698 0.0
C2675 C 0.50713 0.54411 0.59271 0.0
C2676 C 0.51037 0.57314 0.64235 0.0
C2677 C 0.47791 0.56013 0.67828 0.0
C2678 C 0.4873 0.55909 0.66075 0.0
C2679 C 0.51476 0.55635 0.61002 0.0
C2680 C 0.50506 0.55728 0.62745 0.0
H2681 H 0.43685 0.54625 0.692 0.0
H2682 H 0.45169 0.54459 0.6645 0.0
H2683 H 0.50664 0.58661 0.66907 0.0
H2684 H 0.55465 0.57629 0.59654 0.0
H2685 H 0.53925 0.57722 0.62301 0.0
C2686 C 0.78779 0.17118 0.9595 0.0
C2687 C 0.78253 0.17985 0.97532 0.0
C2688 C 0.78077 0.17295 0.9422 0.0
C2689 C 0.74769 0.18818 0.91557 0.0
H2690 H 0.78826 0.21774 0.89742 0.0
C2691 C 0.74977 0.24298 0.86662 0.0
C2692 C 0.7623 0.2432 0.85442 0.0
C2693 C 0.74759 0.23003 0.87865 0.0
C2694 C 0.77679 0.20914 0.90203 0.0
H2695 H 0.76451 0.19528 0.98558 0.0
H2696 H 0.75266 0.19879 0.95531 0.0
H2697 H 0.79266 0.20233 0.92315 0.0
H2698 H 0.78157 0.22915 0.84462 0.0
H2699 H 0.77678 0.20617 0.86436 0.0
H2700 H 0.73185 0.19563 0.8944 0.0
C2701 C 0.76216 0.19069 0.95632 0.0
C2702 C 0.77934 0.20029 0.91667 0.0
C2703 C 0.76932 0.18915 0.97359 0.0
C2704 C 0.77145 0.22926 0.8534 0.0
C2705 C 0.7689 0.21613 0.8649 0.0
C2706 C 0.74511 0.19694 0.90057 0.0
C2707 C 0.76829 0.18316 0.94062 0.0
C2708 C 0.76486 0.1898 0.92354 0.0
C2709 C 0.75779 0.21715 0.87832 0.0
C2710 C 0.75971 0.20739 0.89374 0.0
H2711 H 0.79756 0.16344 0.96052 0.0
H2712 H 0.78566 0.16715 0.9301 0.0
H2713 H 0.73641 0.18041 0.92108 0.0
H2714 H 0.74232 0.25334 0.86747 0.0
H2715 H 0.73894 0.23098 0.88898 0.0
C2716 C 0.15697 0.54667 0.19824 0.0
C2717 C 0.1487 0.53593 0.21064 0.0
C2718 C 0.14696 0.54975 0.18322 0.0
C2719 C 0.10735 0.52603 0.15313 0.0
H2720 H 0.10688 0.57457 0.13976 0.0
C2721 C 0.05534 0.53019 0.09818 0.0
C2722 C 0.06137 0.54066 0.08479 0.0
C2723 C 0.06646 0.53182 0.11425 0.0
C2724 C 0.10708 0.56098 0.14336 0.0
H2725 H 0.12352 0.52061 0.2175 0.0
H2726 H 0.10622 0.52583 0.1912 0.0
H2727 H 0.12655 0.57385 0.16709 0.0
H2728 H 0.08332 0.56136 0.07748 0.0
H2729 H 0.10304 0.56367 0.10542 0.0
H2730 H 0.08819 0.513 0.12961 0.0
C2731 C 0.1204 0.53164 0.19304 0.0
C2732 C 0.11824 0.56059 0.15883 0.0
C2733 C 0.13033 0.52844 0.2079 0.0
C2734 C 0.07849 0.55302 0.08765 0.0
C2735 C 0.08968 0.55453 0.10366 0.0
C2736 C 0.09635 0.52639 0.13776 0.0
C2737 C 0.12867 0.54207 0.18055 0.0
C2738 C 0.11812 0.54307 0.16385 0.0
C2739 C 0.08376 0.54377 0.11692 0.0
C2740 C 0.09591 0.54383 0.13295 0.0
H2741 H 0.1711 0.55293 0.2003 0.0
H2742 H 0.15346 0.55775 0.17353 0.0
H2743 H 0.10739 0.51239 0.15673 0.0
H2744 H 0.0421 0.52072 0.09623 0.0
H2745 H 0.06162 0.52358 0.1245 0.0
C2746 C 0.80208 0.83613 0.47278 0.0
C2747 C 0.80254 0.85503 0.4797 0.0
C2748 C 0.80031 0.82955 0.45382 0.0
C2749 C 0.8091 0.84693 0.41065 0.0
H2750 H 0.78329 0.79492 0.38841 0.0
C2751 C 0.8168 0.81278 0.33702 0.0
C2752 C 0.80143 0.80074 0.32603 0.0
C2753 C 0.81668 0.81937 0.35579 0.0
C2754 C 0.79045 0.80956 0.39427 0.0
H2755 H 0.80109 0.88179 0.4722 0.0
H2756 H 0.79811 0.87034 0.43895 0.0
H2757 H 0.78154 0.80696 0.42031 0.0
H2758 H 0.77413 0.78557 0.32618 0.0
H2759 H 0.77385 0.79705 0.35846 0.0
H2760 H 0.81761 0.84967 0.3844 0.0
C2761 C 0.79912 0.86058 0.44821 0.0
C2762 C 0.78959 0.81641 0.4127 0.0
C2763 C 0.80062 0.86709 0.46723 0.0
C2764 C 0.78619 0.79493 0.33426 0.0
C2765 C 0.78607 0.80143 0.35289 0.0
C2766 C 0.80987 0.84011 0.39213 0.0
C2767 C 0.79923 0.8418 0.44128 0.0
C2768 C 0.79905 0.8351 0.42121 0.0
C2769 C 0.80122 0.81391 0.36392 0.0
C2770 C 0.80065 0.82127 0.38371 0.0
H2771 H 0.8035 0.82652 0.48208 0.0
H2772 H 0.80056 0.81505 0.44904 0.0
H2773 H 0.8167 0.86135 0.41679 0.0
H2774 H 0.8287 0.81759 0.33101 0.0
H2775 H 0.82868 0.82877 0.3639 0.0
C2776 C 0.47331 0.56486 0.83382 0.0
C2777 C 0.47447 0.55229 0.81788 0.0
C2778 C 0.48098 0.56395 0.85164 0.0
C2779 C 0.51234 0.54095 0.87658 0.0
H2780 H 0.49276 0.55853 0.91955 0.0
C2781 C 0.53292 0.52561 0.9502 0.0
C2782 C 0.53429 0.53962 0.96598 0.0
C2783 C 0.52616 0.52756 0.93243 0.0
C2784 C 0.49861 0.55366 0.90781 0.0
H2785 H 0.4851 0.52884 0.80892 0.0
H2786 H 0.49799 0.52696 0.83942 0.0
H2787 H 0.48043 0.56117 0.8891 0.0
H2788 H 0.52922 0.56676 0.97477 0.0
H2789 H 0.51726 0.56997 0.94419 0.0
H2790 H 0.53029 0.5331 0.89542 0.0
C2791 C 0.49144 0.53792 0.83839 0.0
C2792 C 0.49148 0.55525 0.89004 0.0
C2793 C 0.48383 0.5389 0.8206 0.0
C2794 C 0.52847 0.55558 0.96317 0.0
C2795 C 0.52145 0.55738 0.94546 0.0
C2796 C 0.51933 0.53918 0.89432 0.0
C2797 C 0.49017 0.55034 0.85448 0.0
C2798 C 0.4981 0.54891 0.87386 0.0
C2799 C 0.52017 0.54345 0.92961 0.0
C2800 C 0.51264 0.54546 0.9104 0.0
H2801 H 0.4663 0.57543 0.83259 0.0
H2802 H 0.47973 0.57415 0.86318 0.0
H2803 H 0.51841 0.53622 0.86498 0.0
H2804 H 0.53722 0.5131 0.95153 0.0
H2805 H 0.52538 0.51633 0.92088 0.0
C2806 C 0.8097 0.1943 0.08194 0.0
C2807 C 0.79773 0.17636 0.07519 0.0
C2808 C 0.80827 0.20482 0.09863 0.0
C2809 C 0.77673 0.21242 0.12883 0.0
H2810 H 0.81855 0.23764 0.16424 0.0
C2811 C 0.77985 0.25483 0.20244 0.0
C2812 C 0.79324 0.27207 0.20709 0.0
C2813 C 0.77817 0.24305 0.18544 0.0
C2814 C 0.80682 0.23078 0.15436 0.0
H2815 H 0.77492 0.15522 0.08044 0.0
H2816 H 0.77252 0.17377 0.10981 0.0
H2817 H 0.82052 0.21568 0.13698 0.0
H2818 H 0.81479 0.29121 0.19762 0.0
H2819 H 0.812 0.27047 0.16791 0.0
H2820 H 0.76309 0.22769 0.14638 0.0
C2821 C 0.78298 0.17954 0.10217 0.0
C2822 C 0.80793 0.21823 0.13889 0.0
C2823 C 0.78453 0.1689 0.08554 0.0
C2824 C 0.80424 0.27804 0.19419 0.0
C2825 C 0.80275 0.26615 0.17734 0.0
C2826 C 0.7756 0.225 0.14442 0.0
C2827 C 0.79479 0.19761 0.10872 0.0
C2828 C 0.793 0.20926 0.12587 0.0
C2829 C 0.7901 0.24833 0.17315 0.0
C2830 C 0.79076 0.23453 0.15702 0.0
H2831 H 0.81984 0.20042 0.07408 0.0
H2832 H 0.81738 0.21886 0.10339 0.0
H2833 H 0.76508 0.20567 0.11882 0.0
H2834 H 0.77122 0.25009 0.21219 0.0
H2835 H 0.76833 0.22933 0.18241 0.0
C2836 C 0.14165 0.56804 0.31131 0.0
C2837 C 0.14077 0.54866 0.30826 0.0
C2838 C 0.14196 0.57772 0.32894 0.0
C2839 C 0.14428 0.57153 0.37831 0.0
H2840 H 0.12106 0.61161 0.38184 0.0
C2841 C 0.1138 0.58793 0.44212 0.0
C2842 C 0.09618 0.58756 0.43744 0.0
C2843 C 0.12561 0.59137 0.42944 0.0
C2844 C 0.12759 0.60044 0.38114 0.0
H2845 H 0.13982 0.524 0.32073 0.0
H2846 H 0.13804 0.54016 0.35145 0.0
H2847 H 0.12754 0.59882 0.35243 0.0
H2848 H 0.07734 0.59183 0.41662 0.0
H2849 H 0.09735 0.59703 0.39448 0.0
H2850 H 0.14179 0.57124 0.40656 0.0
C2851 C 0.1395 0.54837 0.34054 0.0
C2852 C 0.13164 0.59322 0.36419 0.0
C2853 C 0.14005 0.53888 0.32292 0.0
C2854 C 0.09091 0.59223 0.42065 0.0
C2855 C 0.10254 0.59536 0.40794 0.0
C2856 C 0.13944 0.57813 0.3951 0.0
C2857 C 0.14061 0.56801 0.34382 0.0
C2858 C 0.13929 0.57801 0.36236 0.0
C2859 C 0.11982 0.59409 0.41182 0.0
C2860 C 0.13011 0.59189 0.39641 0.0
H2861 H 0.14296 0.57596 0.30012 0.0
H2862 H 0.14349 0.59288 0.33078 0.0
H2863 H 0.15101 0.56055 0.37773 0.0
H2864 H 0.11818 0.58463 0.45518 0.0
H2865 H 0.13893 0.59073 0.43303 0.0
C2866 C 0.80457 0.84743 0.58442 0.0
C2867 C 0.80246 0.86565 0.58388 0.0
C2868 C 0.80249 0.83943 0.60033 0.0
C2869 C 0.78419 0.84389 0.64513 0.0
H2870 H 0.81547 0.81418 0.65802 0.0
C2871 C 0.78608 0.81543 0.71461 0.0
C2872 C 0.78759 0.79681 0.71347 0.0
C2873 C 0.78814 0.82467 0.69935 0.0
C2874 C 0.80649 0.82229 0.6546 0.0
H2875 H 0.79608 0.8895 0.59978 0.0
H2876 H 0.79262 0.87568 0.62749 0.0
H2877 H 0.81799 0.82802 0.6304 0.0
H2878 H 0.79236 0.77328 0.69543 0.0
H2879 H 0.79601 0.78916 0.66914 0.0
H2880 H 0.77274 0.8381 0.66947 0.0
C2881 C 0.79576 0.86745 0.61556 0.0
C2882 C 0.8079 0.83022 0.63863 0.0
C2883 C 0.79787 0.87547 0.59964 0.0
C2884 C 0.79129 0.78771 0.69685 0.0
C2885 C 0.79348 0.7969 0.68174 0.0
C2886 C 0.7828 0.83596 0.66118 0.0
C2887 C 0.79822 0.84937 0.61625 0.0
C2888 C 0.79671 0.84106 0.63352 0.0
C2889 C 0.79188 0.8155 0.68266 0.0
C2890 C 0.79385 0.8249 0.66609 0.0
H2891 H 0.80803 0.83935 0.57259 0.0
H2892 H 0.80418 0.82535 0.60008 0.0
H2893 H 0.77516 0.85191 0.64164 0.0
H2894 H 0.78266 0.82256 0.72698 0.0
H2895 H 0.78681 0.83898 0.70064 0.0
C2896 C 0.74568 0.44681 0.5063 0.0
C2897 C 0.76266 0.45584 0.5157 0.0
C2898 C 0.73157 0.45343 0.51112 0.0
C2899 C 0.71799 0.48214 0.54916 0.0
H2900 H 0.68253 0.48446 0.51067 0.0
C2901 C 0.66905 0.52696 0.55765 0.0
C2902 C 0.65186 0.51896 0.54825 0.0
C2903 C 0.68158 0.51695 0.55594 0.0
C2904 C 0.69217 0.48356 0.52157 0.0
H2905 H 0.77839 0.47915 0.53715 0.0
H2906 H 0.75379 0.49102 0.54517 0.0
H2907 H 0.70697 0.47249 0.50236 0.0
H2908 H 0.63393 0.49356 0.53098 0.0
H2909 H 0.65606 0.47632 0.52759 0.0
H2910 H 0.70339 0.49399 0.5683 0.0
C2911 C 0.75132 0.47859 0.53439 0.0
C2912 C 0.70616 0.47675 0.51682 0.0
C2913 C 0.76541 0.47193 0.52962 0.0
C2914 C 0.64719 0.50031 0.53799 0.0
C2915 C 0.65977 0.49039 0.53615 0.0
C2916 C 0.70403 0.48914 0.55391 0.0
C2917 C 0.73425 0.46925 0.52533 0.0
C2918 C 0.71925 0.47607 0.53054 0.0
C2919 C 0.67716 0.49887 0.54468 0.0
C2920 C 0.69108 0.48995 0.54011 0.0
H2921 H 0.74317 0.43429 0.49562 0.0
H2922 H 0.71851 0.44585 0.50402 0.0
H2923 H 0.72779 0.4815 0.56003 0.0
H2924 H 0.67312 0.54134 0.56554 0.0
H2925 H 0.69497 0.52383 0.56252 0.0
C2926 C 0.23663 0.13208 0.49128 0.0
C2927 C 0.24218 0.15208 0.49606 0.0
C2928 C 0.21935 0.12189 0.49273 0.0
C2929 C 0.18175 0.12369 0.51759 0.0
H2930 H 0.15357 0.08745 0.47536 0.0
C2931 C 0.10777 0.08394 0.51875 0.0
C2932 C 0.10055 0.06599 0.50731 0.0
C2933 C 0.12495 0.09496 0.51775 0.0
C2934 C 0.16122 0.09713 0.48754 0.0
H2935 H 0.23401 0.17696 0.50667 0.0
H2936 H 0.20416 0.15914 0.50974 0.0
H2937 H 0.1836 0.10469 0.47329 0.0
H2938 H 0.10605 0.04525 0.48644 0.0
H2939 H 0.13586 0.06348 0.4855 0.0
H2940 H 0.15976 0.11571 0.53217 0.0
C2941 C 0.21304 0.15137 0.50453 0.0
C2942 C 0.17852 0.10718 0.48622 0.0
C2943 C 0.23011 0.16158 0.5026 0.0
C2944 C 0.11104 0.05915 0.49526 0.0
C2945 C 0.12825 0.06984 0.49459 0.0
C2946 C 0.16454 0.11329 0.51909 0.0
C2947 C 0.20739 0.1314 0.49955 0.0
C2948 C 0.18902 0.12059 0.50119 0.0
C2949 C 0.13552 0.08812 0.50556 0.0
C2950 C 0.15392 0.09972 0.50408 0.0
H2951 H 0.24561 0.12434 0.48631 0.0
H2952 H 0.21542 0.1065 0.48883 0.0
H2953 H 0.18953 0.13391 0.52942 0.0
H2954 H 0.10002 0.08964 0.52819 0.0
H2955 H 0.12975 0.10897 0.52635 0.0
C2956 C 0.19965 0.94752 0.76515 0.0
C2957 C 0.20127 0.95964 0.75196 0.0
C2958 C 0.20742 0.93202 0.76425 0.0
C2959 C 0.23833 0.90787 0.73681 0.0
H2960 H 0.22756 0.87171 0.76947 0.0
C2961 C 0.27808 0.85005 0.74174 0.0
C2962 C 0.27031 0.83226 0.74666 0.0
C2963 C 0.26937 0.86469 0.74189 0.0
C2964 C 0.2308 0.88144 0.76 0.0
H2965 H 0.21265 0.96361 0.72701 0.0
H2966 H 0.22561 0.93713 0.72513 0.0
H2967 H 0.21339 0.89713 0.77039 0.0
H2968 H 0.2466 0.81688 0.75591 0.0
H2969 H 0.23169 0.84212 0.7565 0.0
H2970 H 0.2555 0.89179 0.72624 0.0
C2971 C 0.21865 0.93953 0.73668 0.0
C2972 C 0.22261 0.89659 0.76066 0.0
C2973 C 0.21096 0.95508 0.73767 0.0
C2974 C 0.25327 0.83006 0.75185 0.0
C2975 C 0.24466 0.84487 0.75233 0.0
C2976 C 0.24651 0.89274 0.73618 0.0
C2977 C 0.21731 0.92741 0.75001 0.0
C2978 C 0.22609 0.91051 0.74913 0.0
C2979 C 0.2524 0.86271 0.74731 0.0
C2980 C 0.24312 0.87902 0.74781 0.0
H2981 H 0.19238 0.95007 0.77645 0.0
H2982 H 0.20566 0.92383 0.77512 0.0
H2983 H 0.24197 0.91762 0.72749 0.0
H2984 H 0.29109 0.85275 0.73766 0.0
H2985 H 0.27629 0.87786 0.73804 0.0
C2986 C 0.35781 0.93965 0.01605 0.0
C2987 C 0.34786 0.94567 1.00275 0.0
C2988 C 0.37581 0.94794 0.02018 0.0
C2989 C 0.41302 0.9664 1.0007 0.0
H2990 H 0.43431 1.00165 0.04648 0.0
C2991 C 0.48124 0.01557 0.00693 0.0
C2992 C 0.49277 0.01734 0.02294 0.0
C2993 C 0.46345 0.00693 0.00623 0.0
C2994 C 0.42855 0.9916 0.0338 0.0
H2995 H 0.34846 0.96474 0.98328 0.0
H2996 H 0.38047 0.97892 0.99011 0.0
H2997 H 0.40279 0.98504 0.04189 0.0
H2998 H 0.4951 0.01259 0.05109 0.0
H2999 H 0.46381 0.9968 0.04966 0.0
H3000 H 0.43857 0.97255 0.99254 0.0
C3001 C 0.37412 0.96803 0.99745 0.0
C3002 C 0.41066 0.98225 0.03119 0.0
C3003 C 0.35601 0.96004 0.9936 0.0
C3004 C 0.48631 0.01125 0.03858 0.0
C3005 C 0.4685 1.00229 0.03779 0.0
C3006 C 0.43089 0.97549 0.00338 0.0
C3007 C 0.38397 0.96198 0.01076 0.0
C3008 C 0.40287 0.9701 0.01443 0.0
C3009 C 0.45707 0.99964 0.02141 0.0
C3010 C 0.43864 0.98862 0.01968 0.0
H3011 H 0.35162 0.92866 0.02337 0.0
H3012 H 0.3834 0.94321 0.03046 0.0
H3013 H 0.40706 0.95677 0.98781 0.0
H3014 H 0.48599 0.02061 0.99487 0.0
H3015 H 0.45474 1.00557 0.99366 0.0
C3016 C 0.87761 0.57733 0.77972 0.0
C3017 C 0.89347 0.58387 0.7919 0.0
C3018 C 0.87036 0.59022 0.77232 0.0
C3019 C 0.87193 0.64087 0.77966 0.0
H3020 H 0.84999 0.62806 0.72864 0.0
C3021 C 0.84208 0.69269 0.74963 0.0
C3022 C 0.82399 0.68454 0.74363 0.0
C3023 C 0.85308 0.68107 0.75155 0.0
C3024 C 0.85626 0.63182 0.74283 0.0
H3025 H 0.9139 0.60889 0.80634 0.0
H3026 H 0.90141 0.63137 0.79326 0.0
H3027 H 0.86377 0.606 0.74135 0.0
H3028 H 0.80352 0.65802 0.7334 0.0
H3029 H 0.82279 0.63778 0.73665 0.0
H3030 H 0.86428 0.66651 0.78124 0.0
C3031 C 0.89445 0.61635 0.78958 0.0
C3032 C 0.86395 0.61918 0.75016 0.0
C3033 C 0.90161 0.60349 0.79709 0.0
C3034 C 0.81742 0.6647 0.73795 0.0
C3035 C 0.82845 0.6531 0.73977 0.0
C3036 C 0.86446 0.65355 0.77229 0.0
C3037 C 0.87891 0.60982 0.77694 0.0
C3038 C 0.87158 0.62349 0.76875 0.0
C3039 C 0.84615 0.66119 0.7474 0.0
C3040 C 0.85634 0.649 0.75393 0.0
H3041 H 0.87108 0.56224 0.77541 0.0
H3042 H 0.85816 0.58482 0.76291 0.0
H3043 H 0.87742 0.64442 0.7941 0.0
H3044 H 0.84754 0.70799 0.75371 0.0
H3045 H 0.86678 0.68756 0.75727 0.0
C3046 C 0.8403 0.64571 0.03297 0.0
C3047 C 0.83934 0.65701 0.0195 0.0
C3048 C 0.85558 0.64034 0.03737 0.0
C3049 C 0.89675 0.63597 0.01899 0.0
H3050 H 0.90953 0.62768 0.06816 0.0
C3051 C 0.95896 0.61287 0.03717 0.0
C3052 C 0.95619 0.59653 0.04527 0.0
C3053 C 0.94624 0.62279 0.03624 0.0
C3054 C 0.90611 0.62992 0.05436 0.0
H3055 H 0.85401 0.67187 1.00043 0.0
H3056 H 0.88077 0.66285 0.00828 0.0
H3057 H 0.88457 0.64032 0.06195 0.0
H3058 H 0.9381 0.57864 0.05981 0.0
H3059 H 0.91617 0.59623 0.05853 0.0
H3060 H 0.91839 0.62571 0.01149 0.0
C3061 C 0.86954 0.65769 0.01517 0.0
C3062 C 0.89171 0.63708 0.05073 0.0
C3063 C 0.85417 0.66294 0.01067 0.0
C3064 C 0.94083 0.59119 0.05355 0.0
C3065 C 0.92819 0.60126 0.05278 0.0
C3066 C 0.91124 0.62908 0.02269 0.0
C3067 C 0.87047 0.64622 0.02855 0.0
C3068 C 0.88661 0.63991 0.03289 0.0
C3069 C 0.93049 0.61681 0.04359 0.0
C3070 C 0.91596 0.6257 0.04033 0.0
H3071 H 0.8292 0.64098 0.04018 0.0
H3072 H 0.85555 0.63127 0.04751 0.0
H3073 H 0.89318 0.63759 0.00502 0.0
H3074 H 0.97081 0.6178 0.03112 0.0
H3075 H 0.94858 0.63496 0.0294 0.0
C3076 C 0.2041 0.08465 0.78762 0.0
C3077 C 0.20047 0.06983 0.77209 0.0
C3078 C 0.21301 0.10381 0.78681 0.0
C3079 C 0.22637 0.13821 0.75334 0.0
H3080 H 0.25577 0.1707 0.79695 0.0
C3081 C 0.26208 0.22101 0.75541 0.0
C3082 C 0.27856 0.22925 0.76665 0.0
C3083 C 0.25167 0.2021 0.75587 0.0
C3084 C 0.2478 0.16204 0.78442 0.0
H3085 H 0.20308 0.06449 0.74313 0.0
H3086 H 0.21825 0.09755 0.74157 0.0
H3087 H 0.24083 0.13782 0.79773 0.0
H3088 H 0.29644 0.22332 0.78722 0.0
H3089 H 0.27876 0.19152 0.78829 0.0
H3090 H 0.23374 0.1625 0.73995 0.0
C3091 C 0.21452 0.09443 0.75466 0.0
C3092 C 0.23885 0.14285 0.78498 0.0
C3093 C 0.20594 0.07517 0.75559 0.0
C3094 C 0.28383 0.21791 0.7785 0.0
C3095 C 0.27346 0.19934 0.77914 0.0
C3096 C 0.23535 0.15751 0.75279 0.0
C3097 C 0.21838 0.10933 0.77027 0.0
C3098 C 0.22792 0.13029 0.76947 0.0
C3099 C 0.25715 0.19068 0.76774 0.0
C3100 C 0.24649 0.16997 0.76829 0.0
H3101 H 0.19995 0.08144 0.80054 0.0
H3102 H 0.21527 0.11442 0.79923 0.0
H3103 H 0.21805 0.12953 0.74101 0.0
H3104 H 0.25753 0.22883 0.74572 0.0
H3105 H 0.23929 0.19645 0.7468 0.0
C3106 C 0.39633 0.98802 0.30534 0.0
C3107 C 0.4123 0.99283 0.29826 0.0
C3108 C 0.3842 0.9705 0.29859 0.0
C3109 C 0.36668 0.93578 0.25884 0.0
H3110 H 0.34847 0.90354 0.29317 0.0
C3111 C 0.31927 0.86013 0.242 0.0
C3112 C 0.30954 0.85469 0.25607 0.0
C3113 C 0.32936 0.87888 0.24374 0.0
C3114 C 0.35317 0.91261 0.28349 0.0
H3115 H 0.42861 0.9828 0.27928 0.0
H3116 H 0.40713 0.9518 0.26757 0.0
H3117 H 0.37393 0.93087 0.3037 0.0
H3118 H 0.29971 0.86469 0.2809 0.0
H3119 H 0.31688 0.89768 0.28359 0.0
H3120 H 0.34559 0.91753 0.23864 0.0
C3121 C 0.40413 0.96184 0.27817 0.0
C3122 C 0.36789 0.92794 0.28945 0.0
C3123 C 0.4164 0.97939 0.28505 0.0
C3124 C 0.3076 0.86857 0.27021 0.0
C3125 C 0.31736 0.88737 0.2717 0.0
C3126 C 0.35176 0.92035 0.25282 0.0
C3127 C 0.38791 0.95757 0.28474 0.0
C3128 C 0.37447 0.93977 0.2773 0.0
C3129 C 0.32948 0.8922 0.25942 0.0
C3130 C 0.34469 0.90898 0.26529 0.0
H3131 H 0.39279 0.99814 0.3154 0.0
H3132 H 0.37163 0.96729 0.30371 0.0
H3133 H 0.37168 0.94499 0.24938 0.0
H3134 H 0.32066 0.84964 0.23074 0.0
H3135 H 0.33847 0.88234 0.23397 0.0
C3136 C 0.58538 0.36036 0.57373 0.0
C3137 C 0.58425 0.35845 0.5922 0.0
C3138 C 0.58133 0.37567 0.56699 0.0
C3139 C 0.57854 0.42482 0.58279 0.0
H3140 H 0.55327 0.41831 0.53388 0.0
C3141 C 0.57386 0.48974 0.55052 0.0
C3142 C 0.55808 0.489 0.53975 0.0
C3143 C 0.57646 0.4735 0.55643 0.0
C3144 C 0.56022 0.4204 0.54763 0.0
H3145 H 0.578 0.37123 0.61804 0.0
H3146 H 0.57129 0.39813 0.60649 0.0
H3147 H 0.55856 0.39067 0.54516 0.0
H3148 H 0.53268 0.47026 0.52661 0.0
H3149 H 0.53719 0.44184 0.53702 0.0
H3150 H 0.57998 0.4544 0.58549 0.0
C3151 C 0.57524 0.38775 0.59712 0.0
C3152 C 0.56344 0.40453 0.55404 0.0
C3153 C 0.57898 0.37225 0.60375 0.0
C3154 C 0.54501 0.4714 0.53488 0.0
C3155 C 0.54764 0.45505 0.54079 0.0
C3156 C 0.57535 0.44064 0.5764 0.0
C3157 C 0.57635 0.38971 0.57864 0.0
C3158 C 0.57269 0.40652 0.57172 0.0
C3159 C 0.56338 0.4559 0.55181 0.0
C3160 C 0.56623 0.43874 0.55868 0.0
H3161 H 0.58926 0.34989 0.56441 0.0
H3162 H 0.58245 0.37671 0.55273 0.0
H3163 H 0.58586 0.42703 0.59638 0.0
H3164 H 0.58428 0.50298 0.55458 0.0
H3165 H 0.58889 0.47476 0.56456 0.0
C3166 C 0.46105 0.77012 0.34675 0.0
C3167 C 0.46569 0.77628 0.36584 0.0
C3168 C 0.44539 0.77191 0.33772 0.0
C3169 C 0.40268 0.78364 0.34591 0.0
H3170 H 0.40221 0.78971 0.29495 0.0
C3171 C 0.34495 0.80077 0.30105 0.0
C3172 C 0.33946 0.78868 0.28369 0.0
C3173 C 0.36012 0.80034 0.31237 0.0
C3174 C 0.40208 0.78803 0.30919 0.0
H3175 H 0.45771 0.78938 0.39047 0.0
H3176 H 0.4308 0.79329 0.37478 0.0
H3177 H 0.42864 0.7867 0.31183 0.0
H3178 H 0.3458 0.76679 0.26474 0.0
H3179 H 0.37206 0.76649 0.28396 0.0
H3180 H 0.376 0.78554 0.34305 0.0
C3181 C 0.43879 0.78641 0.36667 0.0
C3182 C 0.41728 0.78606 0.31892 0.0
C3183 C 0.45431 0.78425 0.37574 0.0
C3184 C 0.34953 0.77633 0.27798 0.0
C3185 C 0.36471 0.77619 0.289 0.0
C3186 C 0.38749 0.78593 0.33619 0.0
C3187 C 0.43409 0.78045 0.34741 0.0
C3188 C 0.41783 0.78343 0.33737 0.0
C3189 C 0.37031 0.78816 0.30634 0.0
C3190 C 0.38689 0.78779 0.31757 0.0
H3191 H 0.46959 0.76396 0.33878 0.0
H3192 H 0.44222 0.76655 0.32304 0.0
H3193 H 0.40228 0.78152 0.35999 0.0
H3194 H 0.33752 0.81044 0.30589 0.0
H3195 H 0.36407 0.80977 0.32566 0.0
C3196 C 0.05296 0.74245 0.09624 0.0
C3197 C 0.06474 0.75709 0.08995 0.0
C3198 C 0.05176 0.72337 0.08966 0.0
C3199 C 0.06558 0.69114 0.0537 0.0
H3200 H 0.05894 0.65798 0.0897 0.0
C3201 C 0.05443 0.61011 0.03409 0.0
C3202 C 0.06191 0.60097 0.04649 0.0
C3203 C 0.05551 0.6294 0.03889 0.0
C3204 C 0.06105 0.66711 0.07955 0.0
H3205 H 0.08391 0.76321 0.07122 0.0
H3206 H 0.08223 0.72998 0.06007 0.0
H3207 H 0.0587 0.69093 0.09838 0.0
H3208 H 0.07634 0.60445 0.0736 0.0
H3209 H 0.07824 0.63836 0.08217 0.0
H3210 H 0.06868 0.66747 0.03514 0.0
C3211 C 0.07362 0.73312 0.06983 0.0
C3212 C 0.06057 0.68596 0.08441 0.0
C3213 C 0.07461 0.75223 0.07621 0.0
C3214 C 0.07076 0.61139 0.06371 0.0
C3215 C 0.07162 0.63069 0.06867 0.0
C3216 C 0.06626 0.67236 0.04892 0.0
C3217 C 0.06252 0.71845 0.07685 0.0
C3218 C 0.06275 0.69824 0.07152 0.0
C3219 C 0.06387 0.63987 0.05634 0.0
C3220 C 0.06392 0.66008 0.06174 0.0
H3221 H 0.04506 0.74575 0.10674 0.0
H3222 H 0.04264 0.71253 0.09498 0.0
H3223 H 0.06713 0.70001 0.04332 0.0
H3224 H 0.04745 0.60222 0.02077 0.0
H3225 H 0.04923 0.63592 0.02914 0.0
C3226 C 0.07126 0.25958 0.86694 0.0
C3227 C 0.0672 0.27422 0.87863 0.0
C3228 C 0.08756 0.26251 0.8605 0.0
C3229 C 0.13351 0.29512 0.86696 0.0
H3230 H 0.13245 0.26809 0.81757 0.0
C3231 C 0.19402 0.30532 0.82539 0.0
C3232 C 0.19596 0.28868 0.81467 0.0
C3233 C 0.17926 0.30473 0.83463 0.0
C3234 C 0.1331 0.27561 0.83147 0.0
H3235 H 0.07753 0.30346 0.89309 0.0
H3236 H 0.10592 0.30889 0.88123 0.0
H3237 H 0.10531 0.26536 0.83058 0.0
H3238 H 0.18375 0.25832 0.80571 0.0
H3239 H 0.15849 0.25727 0.82192 0.0
H3240 H 0.16153 0.30565 0.86742 0.0
C3241 C 0.09649 0.29495 0.87726 0.0
C3242 C 0.11743 0.274 0.83903 0.0
C3243 C 0.08014 0.2919 0.88397 0.0
C3244 C 0.18294 0.27142 0.81392 0.0
C3245 C 0.16825 0.27086 0.82306 0.0
C3246 C 0.1493 0.29686 0.85927 0.0
C3247 C 0.10037 0.28033 0.86519 0.0
C3248 C 0.11733 0.28337 0.85704 0.0
C3249 C 0.16597 0.28752 0.83327 0.0
C3250 C 0.14932 0.2868 0.84151 0.0
H3251 H 0.06184 0.24564 0.86284 0.0
H3252 H 0.0901 0.25062 0.85183 0.0
H3253 H 0.13409 0.30258 0.88086 0.0
H3254 H 0.20384 0.31885 0.82652 0.0
H3255 H 0.17798 0.31786 0.84235 0.0
C3256 C 0.58582 0.77451 0.93959 0.0
C3257 C 0.58441 0.77487 0.92069 0.0
C3258 C 0.57952 0.75745 0.94569 0.0
C3259 C 0.57268 0.70698 0.93369 0.0
H3260 H 0.54244 0.70451 0.97187 0.0
C3261 C 0.55322 0.64072 0.96769 0.0
C3262 C 0.55358 0.64455 0.9869 0.0
C3263 C 0.55432 0.6553 0.95754 0.0
C3264 C 0.55099 0.70499 0.96131 0.0
H3265 H 0.57556 0.75789 0.89325 0.0
H3266 H 0.56499 0.72767 0.90403 0.0
H3267 H 0.54972 0.73284 0.95801 0.0
H3268 H 0.55551 0.66662 0.01054 0.0
H3269 H 0.5577 0.69198 0.99306 0.0
H3270 H 0.57486 0.67965 0.9377 0.0
C3271 C 0.57069 0.7407 0.91403 0.0
C3272 C 0.55503 0.72115 0.95332 0.0
C3273 C 0.57662 0.75791 0.90791 0.0
C3274 C 0.5548 0.66313 0.99571 0.0
C3275 C 0.55603 0.67768 0.98564 0.0
C3276 C 0.56886 0.69089 0.94191 0.0
C3277 C 0.57205 0.74041 0.93298 0.0
C3278 C 0.56616 0.72241 0.93972 0.0
C3279 C 0.55592 0.674 0.96645 0.0
C3280 C 0.55828 0.68992 0.95612 0.0
H3281 H 0.59175 0.78745 0.94966 0.0
H3282 H 0.58083 0.7575 0.96037 0.0
H3283 H 0.5814 0.70776 0.92328 0.0
H3284 H 0.55216 0.62647 0.96052 0.0
H3285 H 0.554 0.65194 0.94276 0.0
C3286 C 0.05631 0.75529 0.66533 0.0
C3287 C 0.04738 0.76686 0.67484 0.0
C3288 C 0.07356 0.75661 0.67183 0.0
C3289 C 0.10713 0.77329 0.71233 0.0
H3290 H 0.13838 0.77174 0.67529 0.0
C3291 C 0.18068 0.78048 0.73071 0.0
C3292 C 0.18658 0.76663 0.72007 0.0
C3293 C 0.16427 0.78286 0.72539 0.0
C3294 C 0.12978 0.77218 0.68576 0.0
H3295 H 0.04892 0.78847 0.69871 0.0
H3296 H 0.07969 0.79134 0.70992 0.0
H3297 H 0.10804 0.77103 0.6661 0.0
H3298 H 0.18032 0.74442 0.69571 0.0
H3299 H 0.15154 0.74838 0.68652 0.0
H3300 H 0.12891 0.77412 0.73194 0.0
C3301 C 0.07318 0.78104 0.69761 0.0
C3302 C 0.11245 0.77172 0.68052 0.0
C3303 C 0.05571 0.77947 0.69122 0.0
C3304 C 0.17608 0.75539 0.70395 0.0
C3305 C 0.15968 0.75768 0.69869 0.0
C3306 C 0.12453 0.77379 0.71759 0.0
C3307 C 0.08227 0.7698 0.68776 0.0
C3308 C 0.10091 0.77188 0.69371 0.0
C3309 C 0.15361 0.77134 0.70943 0.0
C3310 C 0.13585 0.77288 0.70427 0.0
H3311 H 0.04993 0.74515 0.65286 0.0
H3312 H 0.08011 0.74736 0.66431 0.0
H3313 H 0.09841 0.77328 0.72271 0.0
H3314 H 0.18874 0.78938 0.74312 0.0
H3315 H 0.15987 0.79361 0.73375 0.0
C3316 C 0.09769 0.39818 0.42139 0.0
C3317 C 0.09933 0.38475 0.43241 0.0
C3318 C 0.09307 0.41447 0.42882 0.0
C3319 C 0.06649 0.42638 0.46267 0.0
H3320 H 0.0889 0.47982 0.46374 0.0
C3321 C 0.05445 0.48506 0.51451 0.0
C3322 C 0.05505 0.50266 0.50958 0.0
C3323 C 0.05783 0.47074 0.5021 0.0
C3324 C 0.08224 0.46493 0.46316 0.0
H3325 H 0.09928 0.37842 0.45993 0.0
H3326 H 0.09173 0.40709 0.47301 0.0
H3327 H 0.10093 0.45564 0.44767 0.0
H3328 H 0.06027 0.51965 0.48854 0.0
H3329 H 0.06533 0.49438 0.46626 0.0
H3330 H 0.04787 0.43538 0.47813 0.0
C3331 C 0.09358 0.40487 0.45864 0.0
C3332 C 0.08921 0.45117 0.45408 0.0
C3333 C 0.09805 0.38863 0.45123 0.0
C3334 C 0.05884 0.50581 0.49211 0.0
C3335 C 0.06215 0.49149 0.4796 0.0
C3336 C 0.05942 0.44003 0.47151 0.0
C3337 C 0.09017 0.41735 0.44728 0.0
C3338 C 0.08174 0.43189 0.45442 0.0
C3339 C 0.06198 0.47391 0.4846 0.0
C3340 C 0.06759 0.45947 0.47245 0.0
H3341 H 0.09836 0.39525 0.40675 0.0
H3342 H 0.09049 0.424 0.41988 0.0
H3343 H 0.06031 0.41148 0.46269 0.0
H3344 H 0.05185 0.48258 0.52814 0.0
H3345 H 0.05797 0.45751 0.50655 0.0
C3346 C 0.44658 0.23711 0.19156 0.0
C3347 C 0.45428 0.24952 0.18022 0.0
C3348 C 0.43158 0.239 0.19885 0.0
C3349 C 0.39592 0.2619 0.19553 0.0
H3350 H 0.3986 0.26141 0.24799 0.0
C3351 C 0.35243 0.29284 0.24059 0.0
C3352 C 0.34246 0.2798 0.25006 0.0
C3353 C 0.36643 0.28881 0.23259 0.0
C3354 C 0.39771 0.26145 0.23333 0.0
H3355 H 0.45207 0.273 0.1668 0.0
H3356 H 0.42604 0.27678 0.18012 0.0
H3357 H 0.42143 0.25351 0.23125 0.0
H3358 H 0.33988 0.2533 0.26003 0.0
H3359 H 0.36473 0.2464 0.24622 0.0
H3360 H 0.37241 0.27041 0.19787 0.0
C3361 C 0.43145 0.26539 0.1831 0.0
C3362 C 0.41062 0.25681 0.22373 0.0
C3363 C 0.44638 0.26335 0.17562 0.0
C3364 C 0.34737 0.26342 0.25263 0.0
C3365 C 0.36152 0.25952 0.24481 0.0
C3366 C 0.3831 0.26672 0.20519 0.0
C3367 C 0.4242 0.25349 0.19508 0.0
C3368 C 0.40987 0.25713 0.2048 0.0
C3369 C 0.37069 0.2719 0.23426 0.0
C3370 C 0.38407 0.26666 0.22414 0.0
H3371 H 0.45227 0.22607 0.19502 0.0
H3372 H 0.42597 0.22941 0.20776 0.0
H3373 H 0.39498 0.26199 0.18089 0.0
H3374 H 0.34878 0.30553 0.23838 0.0
H3375 H 0.37358 0.29859 0.22463 0.0
C3376 C 0.6308 0.51046 0.34413 0.0
C3377 C 0.63126 0.52452 0.33306 0.0
C3378 C 0.62352 0.51115 0.36105 0.0
C3379 C 0.6076 0.54431 0.39737 0.0
H3380 H 0.59065 0.4981 0.41643 0.0
C3381 C 0.58276 0.54608 0.47161 0.0
C3382 C 0.56983 0.53008 0.47475 0.0
C3383 C 0.5906 0.54572 0.45493 0.0
C3384 C 0.59511 0.51133 0.41152 0.0
H3385 H 0.6238 0.5505 0.33213 0.0
H3386 H 0.61125 0.55173 0.36101 0.0
H3387 H 0.60212 0.49669 0.38721 0.0
H3388 H 0.55544 0.50116 0.46196 0.0
H3389 H 0.56893 0.50034 0.43393 0.0
H3390 H 0.60017 0.55885 0.42158 0.0
C3391 C 0.61671 0.54005 0.35686 0.0
C3392 C 0.60209 0.51052 0.39446 0.0
C3393 C 0.62391 0.53928 0.3399 0.0
C3394 C 0.56547 0.51377 0.46056 0.0
C3395 C 0.57339 0.51331 0.44416 0.0
C3396 C 0.60063 0.54512 0.41448 0.0
C3397 C 0.61631 0.52605 0.36808 0.0
C3398 C 0.60859 0.52697 0.38675 0.0
C3399 C 0.58609 0.52929 0.4406 0.0
C3400 C 0.59411 0.52864 0.42214 0.0
H3401 H 0.63618 0.49875 0.33974 0.0
H3402 H 0.62392 0.49999 0.36878 0.0
H3403 H 0.61243 0.55757 0.39263 0.0
H3404 H 0.58634 0.55917 0.4817 0.0
H3405 H 0.60025 0.5585 0.45332 0.0
C3406 C 0.29111 0.9049 0.05855 0.0
C3407 C 0.29427 0.89566 0.04182 0.0
C3408 C 0.29852 0.90178 0.07508 0.0
C3409 C 0.33502 0.8869 0.09566 0.0
H3410 H 0.30458 0.87497 0.13264 0.0
C3411 C 0.34335 0.84487 0.15273 0.0
C3412 C 0.33658 0.84965 0.16907 0.0
C3413 C 0.3436 0.85594 0.13918 0.0
C3414 C 0.31337 0.87882 0.12266 0.0
H3415 H 0.30795 0.87647 0.02889 0.0
H3416 H 0.32078 0.87072 0.05799 0.0
H3417 H 0.29265 0.88177 0.104 0.0
H3418 H 0.32727 0.87108 0.18531 0.0
H3419 H 0.32738 0.89027 0.16135 0.0
H3420 H 0.35555 0.88292 0.11422 0.0
C3421 C 0.31245 0.88021 0.05828 0.0
C3422 C 0.3065 0.88256 0.10625 0.0
C3423 C 0.30479 0.88312 0.04172 0.0
C3424 C 0.33213 0.86688 0.17261 0.0
C3425 C 0.33233 0.87791 0.15903 0.0
C3426 C 0.34192 0.88304 0.11216 0.0
C3427 C 0.30944 0.88964 0.07505 0.0
C3428 C 0.3172 0.88646 0.09258 0.0
C3429 C 0.337 0.87181 0.14183 0.0
C3430 C 0.33106 0.87888 0.1257 0.0
H3431 H 0.28346 0.91507 0.0588 0.0
H3432 H 0.29616 0.90931 0.08789 0.0
H3433 H 0.34351 0.89004 0.08528 0.0
H3434 H 0.34684 0.83164 0.14964 0.0
H3435 H 0.34716 0.85094 0.12596 0.0
C3436 C 0.97249 0.56693 0.86913 0.0
C3437 C 0.97295 0.55455 0.85302 0.0
C3438 C 0.97703 0.56263 0.88624 0.0
C3439 C 1.00123 0.53296 0.90675 0.0
H3440 H 0.98263 0.5505 0.9506 0.0
C3441 C 0.02684 0.52293 0.97723 0.0
C3442 C 0.0361 0.5408 0.98769 0.0
C3443 C 0.01482 0.5217 0.96198 0.0
C3444 C 0.98766 0.54532 0.93835 0.0
H3445 H 0.97722 0.52746 0.84183 0.0
H3446 H 0.98419 0.51952 0.87144 0.0
H3447 H 0.96941 0.55329 0.92036 0.0
H3448 H 0.03933 0.57118 0.99205 0.0
H3449 H 0.01789 0.56904 0.96515 0.0
H3450 H 0.01938 0.52497 0.92471 0.0
C3451 C 0.98135 0.53302 0.8711 0.0
C3452 C 0.98031 0.54709 0.92115 0.0
C3453 C 0.97744 0.53761 0.85412 0.0
C3454 C 0.03257 0.55738 0.98363 0.0
C3455 C 0.02017 0.55611 0.96862 0.0
C3456 C 0.00823 0.5308 0.9238 0.0
C3457 C 0.98149 0.5456 0.88735 0.0
C3458 C 0.98743 0.54149 0.90527 0.0
C3459 C 0.01162 0.5383 0.9575 0.0
C3460 C 1.00183 0.53748 0.93968 0.0
H3461 H 0.96869 0.57986 0.86847 0.0
H3462 H 0.97727 0.57277 0.89853 0.0
H3463 H 0.0073 0.52883 0.89491 0.0
H3464 H 0.02931 0.51001 0.98055 0.0
H3465 H 0.0084 0.50791 0.95338 0.0
C3466 C 0.30034 0.23724 0.55647 0.0
C3467 C 0.30519 0.22032 0.55193 0.0
C3468 C 0.30005 0.24491 0.57496 0.0
C3469 C 0.31443 0.24082 0.62346 0.0
H3470 H 0.27481 0.25989 0.63438 0.0
C3471 C 0.29745 0.25075 0.69706 0.0
C3472 C 0.29225 0.26698 0.70364 0.0
C3473 C 0.29844 0.24566 0.67835 0.0
C3474 C 0.28606 0.25479 0.6316 0.0
H3475 H 0.31447 0.19884 0.56347 0.0
H3476 H 0.31356 0.21175 0.59515 0.0
H3477 H 0.27913 0.2513 0.60242 0.0
H3478 H 0.2836 0.29042 0.69587 0.0
H3479 H 0.28581 0.2819 0.66305 0.0
H3480 H 0.32126 0.24405 0.65254 0.0
C3481 C 0.31019 0.21939 0.58467 0.0
C3482 C 0.2886 0.24993 0.61322 0.0
C3483 C 0.3106 0.21186 0.56634 0.0
C3484 C 0.28745 0.27771 0.69107 0.0
C3485 C 0.28874 0.2728 0.67229 0.0
C3486 C 0.31186 0.24561 0.64177 0.0
C3487 C 0.30458 0.23581 0.58929 0.0
C3488 C 0.3027 0.24263 0.60887 0.0
C3489 C 0.29464 0.25693 0.66576 0.0
C3490 C 0.29751 0.25243 0.64613 0.0
H3491 H 0.29612 0.24414 0.54575 0.0
H3492 H 0.29598 0.25778 0.57798 0.0
H3493 H 0.32567 0.23568 0.62078 0.0
H3494 H 0.30108 0.24215 0.7065 0.0
H3495 H 0.3025 0.23302 0.67383 0.0
C3496 C 0.63347 0.5264 0.22069 0.0
C3497 C 0.63582 0.50878 0.22374 0.0
C3498 C 0.62605 0.52872 0.20332 0.0
C3499 C 0.59862 0.50177 0.15748 0.0
H3500 H 0.61668 0.54937 0.14093 0.0
C3501 C 0.57511 0.51176 0.08233 0.0
C3502 C 0.57496 0.52997 0.07879 0.0
C3503 C 0.58209 0.50913 0.09976 0.0
C3504 C 0.61113 0.53601 0.14524 0.0
H3505 H 0.6317 0.47963 0.2101 0.0
H3506 H 0.61802 0.48331 0.18022 0.0
H3507 H 0.62904 0.5448 0.17066 0.0
H3508 H 0.58249 0.55975 0.09175 0.0
H3509 H 0.59452 0.5553 0.12182 0.0
H3510 H 0.5806 0.49301 0.13217 0.0
C3511 C 0.62216 0.49559 0.1913 0.0
C3512 C 0.61836 0.53333 0.16256 0.0
C3513 C 0.63008 0.49342 0.2086 0.0
C3514 C 0.58216 0.54545 0.09363 0.0
C3515 C 0.5893 0.54284 0.11106 0.0
C3516 C 0.59131 0.50448 0.14019 0.0
C3517 C 0.62018 0.5134 0.1881 0.0
C3518 C 0.61232 0.51615 0.1692 0.0
C3519 C 0.58949 0.52459 0.11465 0.0
C3520 C 0.59734 0.52168 0.13353 0.0
H3521 H 0.63794 0.53875 0.2317 0.0
H3522 H 0.62484 0.54267 0.2019 0.0
H3523 H 0.59322 0.48838 0.16182 0.0
H3524 H 0.56982 0.49934 0.07152 0.0
H3525 H 0.58196 0.49481 0.10135 0.0
C3526 C 0.29125 0.88391 0.92653 0.0
C3527 C 0.30022 0.88076 0.94242 0.0
C3528 C 0.2951 0.87721 0.90919 0.0
C3529 C 0.31114 0.83925 0.88702 0.0
H3530 H 0.31423 0.86618 0.84608 0.0
C3531 C 0.31491 0.80061 0.81554 0.0
C3532 C 0.30419 0.80415 0.80129 0.0
C3533 C 0.31865 0.81267 0.83271 0.0
C3534 C 0.31334 0.85847 0.85739 0.0
H3535 H 0.32096 0.86933 0.95284 0.0
H3536 H 0.32764 0.85785 0.92275 0.0
H3537 H 0.31205 0.88276 0.87654 0.0
H3538 H 0.28899 0.82274 0.7932 0.0
H3539 H 0.29441 0.84291 0.82334 0.0
H3540 H 0.31136 0.81471 0.86803 0.0
C3541 C 0.3174 0.86502 0.92361 0.0
C3542 C 0.31212 0.86797 0.87475 0.0
C3543 C 0.31346 0.87148 0.9408 0.0
C3544 C 0.2974 0.81987 0.80413 0.0
C3545 C 0.3007 0.83157 0.82133 0.0
C3546 C 0.31212 0.82971 0.8697 0.0
C3547 C 0.30804 0.86747 0.90767 0.0
C3548 C 0.31074 0.85829 0.8896 0.0
C3549 C 0.31123 0.82801 0.83587 0.0
C3550 C 0.31288 0.83908 0.85461 0.0
H3551 H 0.28116 0.89127 0.9275 0.0
H3552 H 0.28761 0.8791 0.89701 0.0
H3553 H 0.30987 0.83141 0.89824 0.0
H3554 H 0.32044 0.78867 0.81337 0.0
H3555 H 0.32709 0.80978 0.84356 0.0
C3556 C 0.93676 0.52988 0.74077 0.0
C3557 C 0.94904 0.54391 0.75409 0.0
C3558 C 0.94204 0.52193 0.72484 0.0
C3559 C 0.97278 0.53636 0.69478 0.0
H3560 H 0.96556 0.48296 0.674 0.0
C3561 C 0.01238 0.51401 0.64308 0.0
C3562 C 1.00338 0.51057 0.62517 0.0
C3563 C 1.00311 0.51268 0.65791 0.0
C3564 C 0.96727 0.49783 0.67963 0.0
H3565 H 0.97656 0.55994 0.76168 0.0
H3566 H 0.98566 0.54634 0.73347 0.0
H3567 H 0.95514 0.4918 0.70353 0.0
H3568 H 0.97782 0.50211 0.60837 0.0
H3569 H 0.96134 0.49975 0.63486 0.0
H3570 H 0.98517 0.54254 0.67133 0.0
C3571 C 0.97198 0.54163 0.73548 0.0
C3572 C 0.96149 0.50285 0.69638 0.0
C3573 C 0.96674 0.54955 0.75143 0.0
C3574 C 0.98491 0.50458 0.62213 0.0
C3575 C 0.97556 0.50313 0.63711 0.0
C3576 C 0.97837 0.53138 0.67813 0.0
C3577 C 0.95959 0.52806 0.72201 0.0
C3578 C 0.96466 0.52219 0.70416 0.0
C3579 C 0.98474 0.50784 0.65501 0.0
C3580 C 0.97595 0.51216 0.67071 0.0
H3581 H 0.92308 0.52495 0.74267 0.0
H3582 H 0.93235 0.51151 0.71447 0.0
H3583 H 0.97501 0.55133 0.70048 0.0
H3584 H 0.02661 0.51922 0.64576 0.0
H3585 H 0.01029 0.51688 0.67175 0.0
C3586 C 0.29315 0.23762 0.44545 0.0
C3587 C 0.29406 0.21922 0.44716 0.0
C3588 C 0.29431 0.24377 0.42851 0.0
C3589 C 0.28799 0.22561 0.37793 0.0
H3590 H 0.31364 0.27751 0.37633 0.0
C3591 C 0.2846 0.25754 0.31085 0.0
C3592 C 0.29989 0.27067 0.30778 0.0
C3593 C 0.28391 0.25084 0.3276 0.0
C3594 C 0.30652 0.26289 0.3764 0.0
H3595 H 0.29677 0.1928 0.43226 0.0
H3596 H 0.29849 0.20337 0.40261 0.0
H3597 H 0.31313 0.26671 0.40567 0.0
H3598 H 0.32652 0.28677 0.31979 0.0
H3599 H 0.32547 0.27496 0.34857 0.0
H3600 H 0.28169 0.22168 0.34858 0.0
C3601 C 0.29699 0.21314 0.41441 0.0
C3602 C 0.30605 0.25675 0.39336 0.0
C3603 C 0.29617 0.20712 0.43146 0.0
C3604 C 0.31451 0.27668 0.32168 0.0
C3605 C 0.31383 0.27002 0.33834 0.0
C3606 C 0.28846 0.23175 0.36093 0.0
C3607 C 0.29607 0.23157 0.41266 0.0
C3608 C 0.29676 0.23802 0.39442 0.0
C3609 C 0.29849 0.25712 0.3417 0.0
C3610 C 0.29776 0.2505 0.35987 0.0
H3611 H 0.29157 0.24732 0.45727 0.0
H3612 H 0.29342 0.25799 0.42776 0.0
H3613 H 0.28053 0.21115 0.37814 0.0
H3614 H 0.27308 0.2527 0.30046 0.0
H3615 H 0.27178 0.24108 0.32964 0.0
C3616 C 0.34192 0.62566 0.49789 0.0
C3617 C 0.33138 0.61942 0.51113 0.0
C3618 C 0.35689 0.61958 0.49557 0.0
C3619 C 0.37583 0.58112 0.50448 0.0
H3620 H 0.4204 0.61602 0.49987 0.0
C3621 C 0.44021 0.56303 0.51804 0.0
C3622 C 0.45153 0.56534 0.50467 0.0
C3623 C 0.42593 0.57053 0.51744 0.0
C3624 C 0.40796 0.60613 0.50092 0.0
H3625 H 0.32841 0.60257 0.53273 0.0
H3626 H 0.35463 0.59232 0.52893 0.0
H3627 H 0.39424 0.6275 0.50134 0.0
H3628 H 0.45737 0.57774 0.48056 0.0
H3629 H 0.43225 0.59128 0.47967 0.0
H3630 H 0.38954 0.55991 0.50458 0.0
C3631 C 0.35113 0.60144 0.52 0.0
C3632 C 0.39304 0.61265 0.50173 0.0
C3633 C 0.33616 0.60736 0.52222 0.0
C3634 C 0.44872 0.57581 0.49098 0.0
C3635 C 0.43448 0.58356 0.49051 0.0
C3636 C 0.39069 0.57467 0.50379 0.0
C3637 C 0.3615 0.60728 0.50651 0.0
C3638 C 0.37696 0.60026 0.50393 0.0
C3639 C 0.4228 0.58058 0.50352 0.0
C3640 C 0.40693 0.58721 0.50242 0.0
H3641 H 0.33849 0.63501 0.4892 0.0
H3642 H 0.36466 0.62421 0.48502 0.0
H3643 H 0.36349 0.57116 0.50572 0.0
H3644 H 0.44206 0.55484 0.52859 0.0
H3645 H 0.41718 0.56826 0.52774 0.0
C3646 C 0.86574 0.94372 0.52934 0.0
C3647 C 0.86312 0.92637 0.53572 0.0
C3648 C 0.88278 0.95452 0.52759 0.0
C3649 C 0.93012 0.9619 0.54517 0.0
H3650 H 0.93935 0.98809 0.50421 0.0
C3651 C 0.99713 0.01725 0.54564 0.0
C3652 C 1.00433 0.0184 0.52911 0.0
C3653 C 0.98006 1.00568 0.54575 0.0
C3654 C 0.93709 0.98078 0.5157 0.0
H3655 H 0.8765 0.90691 0.54531 0.0
H3656 H 0.906 0.92579 0.54272 0.0
H3657 H 0.90952 0.96878 0.50557 0.0
H3658 H 0.99901 0.00816 0.49961 0.0
H3659 H 0.96916 0.98793 0.49974 0.0
H3660 H 0.95758 0.97358 0.55524 0.0
C3661 C 0.89498 0.93113 0.53898 0.0
C3662 C 0.91986 0.96984 0.51659 0.0
C3663 C 0.87799 0.92021 0.5404 0.0
C3664 C 0.99393 0.00756 0.51262 0.0
C3665 C 0.97672 0.99607 0.5127 0.0
C3666 C 0.94726 0.97287 0.54433 0.0
C3667 C 0.89771 0.94848 0.53254 0.0
C3668 C 0.91608 0.96024 0.53137 0.0
C3669 C 0.96948 0.9949 0.5293 0.0
C3670 C 0.95109 0.98261 0.52966 0.0
H3671 H 0.85459 0.94878 0.52538 0.0
H3672 H 0.88426 0.96779 0.52263 0.0
H3673 H 0.92784 0.95493 0.55687 0.0
H3674 H 0.00471 0.02542 0.55858 0.0
H3675 H 0.97503 1.00551 0.5588 0.0
C3676 C 0.87952 0.10911 0.23585 0.0
C3677 C 0.89245 0.10751 0.24947 0.0
C3678 C 0.87217 0.12484 0.23742 0.0
C3679 C 0.87461 0.1737 0.26897 0.0
H3680 H 0.83652 0.17272 0.2321 0.0
C3681 C 0.84476 0.24054 0.26734 0.0
C3682 C 0.82684 0.23724 0.26011 0.0
C3683 C 0.85301 0.22542 0.26675 0.0
C3684 C 0.84701 0.17346 0.24281 0.0
H3685 H 0.90748 0.12245 0.27584 0.0
H3686 H 0.89484 0.14927 0.27884 0.0
H3687 H 0.84917 0.14644 0.22997 0.0
H3688 H 0.80401 0.21447 0.24646 0.0
H3689 H 0.81804 0.18882 0.24523 0.0
H3690 H 0.87193 0.20096 0.28183 0.0
C3691 C 0.89018 0.13847 0.26654 0.0
C3692 C 0.85469 0.158 0.24148 0.0
C3693 C 0.89761 0.12271 0.26487 0.0
C3694 C 0.81774 0.21805 0.25225 0.0
C3695 C 0.826 0.20308 0.2514 0.0
C3696 C 0.86688 0.18924 0.27028 0.0
C3697 C 0.87713 0.14018 0.25285 0.0
C3698 C 0.8688 0.15741 0.25449 0.0
C3699 C 0.84392 0.2062 0.25857 0.0
C3700 C 0.85275 0.18958 0.25725 0.0
H3701 H 0.875 0.09807 0.22365 0.0
H3702 H 0.86256 0.1247 0.22612 0.0
H3703 H 0.88527 0.17476 0.27956 0.0
H3704 H 0.85247 0.25487 0.27364 0.0
H3705 H 0.86674 0.22899 0.27248 0.0
C3706 C 0.72587 0.14289 0.00884 0.0
C3707 C 0.73686 0.13174 1.00301 0.0
C3708 C 0.70779 0.13495 0.00612 0.0
C3709 C 0.68199 0.08861 0.00829 0.0
H3710 H 0.64302 0.11097 0.00667 0.0
C3711 C 0.61097 0.05065 0.01386 0.0
C3712 C 0.60266 0.06049 0.02611 0.0
C3713 C 0.62783 0.05939 0.01083 0.0
C3714 C 0.65395 0.10479 0.00728 0.0
H3715 H 0.73778 0.10502 0.98686 0.0
H3716 H 0.70599 0.09114 0.98196 0.0
H3717 H 0.6702 0.12654 0.99552 0.0
H3718 H 0.60516 0.08643 0.04561 0.0
H3719 H 0.63489 0.10208 0.0399 0.0
H3720 H 0.66582 0.06697 0.02013 0.0
C3721 C 0.71141 0.10577 0.98912 0.0
C3722 C 0.66927 0.11347 1.00073 0.0
C3723 C 0.72954 0.11363 0.99203 0.0
C3724 C 0.61157 0.07869 0.03615 0.0
C3725 C 0.62835 0.08762 0.03283 0.0
C3726 C 0.66669 0.07992 0.0147 0.0
C3727 C 0.70062 0.11586 0.99745 0.0
C3728 C 0.68341 0.10545 1.00126 0.0
C3729 C 0.63627 0.07811 0.01981 0.0
C3730 C 0.65271 0.08803 0.01431 0.0
H3731 H 0.73124 0.15716 0.01687 0.0
H3732 H 0.69971 0.14307 0.01258 0.0
H3733 H 0.69294 0.08251 0.00948 0.0
H3734 H 0.60418 0.03651 0.00613 0.0
H3735 H 0.63387 0.05195 1.00072 0.0
C3736 C 0.19519 0.4962 0.2769 0.0
C3737 C 0.20395 0.50982 0.26722 0.0
C3738 C 0.20084 0.48015 0.27816 0.0
C3739 C 0.22668 0.45122 0.25582 0.0
H3740 H 0.23177 0.43579 0.30326 0.0
C3741 C 0.27122 0.40589 0.27267 0.0
C3742 C 0.26388 0.39006 0.28038 0.0
C3743 C 0.26212 0.41927 0.27094 0.0
C3744 C 0.23013 0.43982 0.28991 0.0
H3745 H 0.22535 0.51756 0.25122 0.0
H3746 H 0.23549 0.48965 0.25375 0.0
H3747 H 0.21906 0.46202 0.30025 0.0
H3748 H 0.24182 0.37536 0.29256 0.0
H3749 H 0.22572 0.39926 0.28981 0.0
H3750 H 0.23843 0.42952 0.24571 0.0
C3751 C 0.22413 0.49125 0.26015 0.0
C3752 C 0.22288 0.45474 0.28817 0.0
C3753 C 0.21849 0.5073 0.25891 0.0
C3754 C 0.24754 0.38768 0.28666 0.0
C3755 C 0.23845 0.40121 0.28509 0.0
C3756 C 0.23405 0.43644 0.25761 0.0
C3757 C 0.21529 0.47754 0.26973 0.0
C3758 C 0.22144 0.46076 0.2712 0.0
C3759 C 0.24563 0.4169 0.27699 0.0
C3760 C 0.2361 0.43095 0.27474 0.0
H3761 H 0.18391 0.49785 0.28341 0.0
H3762 H 0.19377 0.46968 0.28551 0.0
H3763 H 0.22536 0.45539 0.24251 0.0
H3764 H 0.28386 0.40772 0.26774 0.0
H3765 H 0.26793 0.43147 0.2649 0.0
C3766 C 0.25638 0.43026 0.04779 0.0
C3767 C 0.26427 0.42424 0.03266 0.0
C3768 C 0.24102 0.43604 0.04528 0.0
C3769 C 0.2151 0.45467 0.01192 0.0
H3770 H 0.18062 0.44494 0.04543 0.0
C3771 C 0.16303 0.49673 0.01846 0.0
C3772 C 0.1469 0.48862 0.02435 0.0
C3773 C 0.17616 0.48723 0.01772 0.0
C3774 C 0.18987 0.44765 0.0357 0.0
H3775 H 0.26202 0.41947 1.0029 0.0
H3776 H 0.23535 0.42998 0.99844 0.0
H3777 H 0.20486 0.43078 0.0469 0.0
H3778 H 0.13179 0.46358 0.03337 0.0
H3779 H 0.1543 0.44675 0.03156 0.0
H3780 H 0.19988 0.47109 1.00033 0.0
C3781 C 0.24103 0.43017 0.01233 0.0
C3782 C 0.20406 0.4397 0.03676 0.0
C3783 C 0.25629 0.42403 0.01486 0.0
C3784 C 0.14412 0.47043 0.02902 0.0
C3785 C 0.15716 0.4608 0.02805 0.0
C3786 C 0.20082 0.46251 0.01074 0.0
C3787 C 0.23314 0.43628 0.02754 0.0
C3788 C 0.21712 0.44338 0.02517 0.0
C3789 C 0.17356 0.46913 0.02265 0.0
C3790 C 0.1881 0.45947 0.02286 0.0
H3791 H 0.26205 0.43039 0.06169 0.0
H3792 H 0.23556 0.44077 0.05738 0.0
H3793 H 0.22484 0.45795 1.00276 0.0
H3794 H 0.16582 0.51081 0.015 0.0
H3795 H 0.18858 0.49448 0.01383 0.0
C3796 C 0.90127 0.98433 0.24698 0.0
C3797 C 0.89588 1.00033 0.25455 0.0
C3798 C 0.89211 0.9654 0.24825 0.0
C3799 C 0.85941 0.9365 0.27503 0.0
H3800 H 0.85738 0.89412 0.23624 0.0
C3801 C 0.81424 0.85929 0.27568 0.0
C3802 C 0.81744 0.84254 0.26652 0.0
C3803 C 0.82465 0.87782 0.27483 0.0
C3804 C 0.85789 0.90557 0.24746 0.0
H3805 H 0.87632 0.00809 0.27005 0.0
H3806 H 0.86054 0.97537 0.27258 0.0
H3807 H 0.87264 0.92659 0.23342 0.0
H3808 H 0.83484 0.83306 0.2489 0.0
H3809 H 0.85311 0.86525 0.2474 0.0
H3810 H 0.84494 0.91562 0.28924 0.0
C3811 C 0.87186 0.9774 0.26529 0.0
C3812 C 0.86677 0.92455 0.2458 0.0
C3813 C 0.88085 0.9964 0.26364 0.0
C3814 C 0.83194 0.84532 0.25654 0.0
C3815 C 0.84235 0.86406 0.25547 0.0
C3816 C 0.85064 0.91754 0.27675 0.0
C3817 C 0.87722 0.96132 0.25761 0.0
C3818 C 0.86767 0.94063 0.25946 0.0
C3819 C 0.83889 0.88092 0.26449 0.0
C3820 C 0.8494 0.90145 0.26294 0.0
H3821 H 0.91283 0.98648 0.24004 0.0
H3822 H 0.89713 0.95394 0.24224 0.0
H3823 H 0.85991 0.94797 0.28623 0.0
H3824 H 0.80319 0.8581 0.28336 0.0
H3825 H 0.82093 0.88979 0.28188 0.0
C3826 C 0.69749 0.11452 0.78936 0.0
C3827 C 0.68368 0.10495 0.77521 0.0
C3828 C 0.7057 0.13371 0.79031 0.0
C3829 C 0.71926 0.15803 0.75583 0.0
H3830 H 0.74216 0.2009 0.79513 0.0
C3831 C 0.76967 0.22545 0.74616 0.0
C3832 C 0.782 0.23554 0.76148 0.0
C3833 C 0.75746 0.20866 0.74752 0.0
C3834 C 0.73604 0.18885 0.78412 0.0
H3835 H 0.66582 0.10794 0.75262 0.0
H3836 H 0.68069 0.14151 0.75392 0.0
H3837 H 0.71694 0.1763 0.80041 0.0
H3838 H 0.79323 0.23531 0.78915 0.0
H3839 H 0.77238 0.20528 0.79127 0.0
H3840 H 0.73889 0.16977 0.73987 0.0
C3841 C 0.68497 0.13428 0.76434 0.0
C3842 C 0.72144 0.17511 0.78705 0.0
C3843 C 0.67655 0.11515 0.7636 0.0
C3844 C 0.78351 0.22772 0.77734 0.0
C3845 C 0.77156 0.21072 0.77857 0.0
C3846 C 0.73401 0.17158 0.75299 0.0
C3847 C 0.70027 0.14319 0.77689 0.0
C3848 C 0.71309 0.15961 0.77296 0.0
C3849 C 0.75778 0.20177 0.76411 0.0
C3850 C 0.74261 0.18697 0.76719 0.0
H3851 H 0.70295 0.10682 0.79857 0.0
H3852 H 0.71755 0.14041 0.80006 0.0
H3853 H 0.71324 0.14578 0.74497 0.0
H3854 H 0.76837 0.23142 0.73382 0.0
H3855 H 0.74697 0.20204 0.73617 0.0
loop_
_geom_bond_atom_site_label_1
_geom_bond_atom_site_label_2
_geom_bond_distance
_geom_bond_site_symmetry_2
_ccdc_geom_bond_type
O0 Cd1 2.223 . S
O0 C8 1.315 . S
Cd1 O0 2.223 . S
Cd1 O4 2.297 . S
Cd1 O5 2.439 . S
Cd1 O11 2.240 . S
Cd2 O3 2.240 . S
Cd2 O10 2.223 . S
Cd2 O12 2.297 . S
Cd2 O13 2.439 . S
O3 Cd2 2.240 . S
O3 C8 1.279 . S
O4 Cd1 2.297 . S
O4 C6 1.247 . S
O5 Cd1 2.439 . S
O5 C6 1.208 . S
C6 O4 1.247 . S
C6 O5 1.208 . S
C7 O12 1.247 . S
C7 O13 1.208 . S
C8 O0 1.315 . S
C8 O3 1.279 . S
C9 O10 1.315 . S
C9 O11 1.279 . S
O10 Cd2 2.223 . S
O10 C9 1.315 . S
O11 Cd1 2.240 . S
O11 C9 1.279 . S
O12 Cd2 2.297 . S
O12 C7 1.247 . S
O13 Cd2 2.439 . S
O13 C7 1.208 . S
O14 Cd15 2.251 . S
O14 C22 1.323 . S
Cd15 O14 2.251 . S
Cd15 O18 2.297 . S
Cd15 O19 2.439 . S
Cd15 O25 2.240 1_655 S
Cd16 O17 2.240 1_455 S
Cd16 O24 2.223 . S
Cd16 O26 2.297 . S
Cd16 O27 2.447 . S
O17 Cd16 2.240 1_655 S
O17 C22 1.279 . S
O18 Cd15 2.297 . S
O18 C20 1.247 . S
O19 Cd15 2.439 . S
O19 C20 1.208 . S
C20 O18 1.247 . S
C20 O19 1.208 . S
C21 O26 1.247 . S
C21 O27 1.218 . S
C22 O14 1.323 . S
C22 O17 1.279 . S
C23 O24 1.315 . S
C23 O25 1.279 . S
O24 Cd16 2.223 . S
O24 C23 1.315 . S
O25 Cd15 2.240 1_455 S
O25 C23 1.279 . S
O26 Cd16 2.297 . S
O26 C21 1.247 . S
O27 Cd16 2.447 . S
O27 C21 1.218 . S
O28 Cd29 2.223 . S
O28 C36 1.315 . S
Cd29 O28 2.223 . S
Cd29 O32 2.297 . S
Cd29 O33 2.439 . S
Cd29 O39 2.240 . S
Cd30 O31 2.240 . S
Cd30 O38 2.223 . S
Cd30 O40 2.297 . S
Cd30 O41 2.439 . S
O31 Cd30 2.240 . S
O31 C36 1.279 . S
O32 Cd29 2.297 . S
O32 C34 1.247 . S
O33 Cd29 2.439 . S
O33 C34 1.208 . S
C34 O32 1.247 . S
C34 O33 1.208 . S
C35 O40 1.247 . S
C35 O41 1.208 . S
C36 O28 1.315 . S
C36 O31 1.279 . S
C37 O38 1.315 . S
C37 O39 1.279 . S
O38 Cd30 2.223 . S
O38 C37 1.315 . S
O39 Cd29 2.240 . S
O39 C37 1.279 . S
O40 Cd30 2.297 . S
O40 C35 1.247 . S
O41 Cd30 2.439 . S
O41 C35 1.208 . S
O42 Cd43 2.223 . S
O42 C50 1.315 . S
Cd43 O42 2.223 . S
Cd43 O46 2.297 . S
Cd43 O47 2.439 . S
Cd43 O53 2.240 . S
Cd44 O45 2.240 . S
Cd44 O52 2.223 . S
Cd44 O54 2.297 . S
Cd44 O55 2.439 . S
O45 Cd44 2.240 . S
O45 C50 1.279 . S
O46 Cd43 2.297 . S
O46 C48 1.247 . S
O47 Cd43 2.439 . S
O47 C48 1.208 . S
C48 O46 1.247 . S
C48 O47 1.208 . S
C49 O54 1.247 . S
C49 O55 1.208 . S
C50 O42 1.315 . S
C50 O45 1.279 . S
C51 O52 1.315 . S
C51 O53 1.279 . S
O52 Cd44 2.223 . S
O52 C51 1.315 . S
O53 Cd43 2.240 . S
O53 C51 1.279 . S
O54 Cd44 2.297 . S
O54 C49 1.247 . S
O55 Cd44 2.439 . S
O55 C49 1.208 . S
O56 Cd57 2.223 . S
O56 C64 1.315 . S
Cd57 O56 2.223 . S
Cd57 O60 2.297 . S
Cd57 O61 2.439 . S
Cd57 O67 2.240 . S
Cd58 O59 2.240 . S
Cd58 O66 2.223 . S
Cd58 O68 2.297 . S
Cd58 O69 2.439 . S
O59 Cd58 2.240 . S
O59 C64 1.279 . S
O60 Cd57 2.297 . S
O60 C62 1.247 . S
O61 Cd57 2.439 . S
O61 C62 1.208 . S
C62 O60 1.247 . S
C62 O61 1.208 . S
C63 O68 1.247 . S
C63 O69 1.208 . S
C64 O56 1.315 . S
C64 O59 1.279 . S
C65 O66 1.315 . S
C65 O67 1.279 . S
O66 Cd58 2.223 . S
O66 C65 1.315 . S
O67 Cd57 2.240 . S
O67 C65 1.279 . S
O68 Cd58 2.297 . S
O68 C63 1.247 . S
O69 Cd58 2.439 . S
O69 C63 1.208 . S
O70 Cd71 2.223 . S
O70 C78 1.315 . S
Cd71 O70 2.223 . S
Cd71 O74 2.297 . S
Cd71 O75 2.439 . S
Cd71 O81 2.240 . S
Cd72 O73 2.240 . S
Cd72 O80 2.223 . S
Cd72 O82 2.297 . S
Cd72 O83 2.439 . S
O73 Cd72 2.240 . S
O73 C78 1.279 . S
O74 Cd71 2.297 . S
O74 C76 1.247 . S
O75 Cd71 2.439 . S
O75 C76 1.208 . S
C76 O74 1.247 . S
C76 O75 1.208 . S
C77 O82 1.247 . S
C77 O83 1.208 . S
C78 O70 1.315 . S
C78 O73 1.279 . S
C79 O80 1.315 . S
C79 O81 1.279 . S
O80 Cd72 2.223 . S
O80 C79 1.315 . S
O81 Cd71 2.240 . S
O81 C79 1.279 . S
O82 Cd72 2.297 . S
O82 C77 1.247 . S
O83 Cd72 2.439 . S
O83 C77 1.208 . S
O84 Cd85 2.223 . S
O84 C92 1.315 . S
Cd85 O84 2.223 . S
Cd85 O88 2.297 . S
Cd85 O89 2.439 . S
Cd85 O95 2.240 . S
Cd86 O87 2.240 . S
Cd86 O94 2.223 . S
Cd86 O96 2.297 . S
Cd86 O97 2.439 . S
O87 Cd86 2.240 . S
O87 C92 1.279 . S
O88 Cd85 2.297 . S
O88 C90 1.247 . S
O89 Cd85 2.439 . S
O89 C90 1.208 . S
C90 O88 1.247 . S
C90 O89 1.208 . S
C91 O96 1.247 . S
C91 O97 1.208 . S
C92 O84 1.315 . S
C92 O87 1.279 . S
C93 O94 1.315 . S
C93 O95 1.279 . S
O94 Cd86 2.223 . S
O94 C93 1.315 . S
O95 Cd85 2.240 . S
O95 C93 1.279 . S
O96 Cd86 2.297 . S
O96 C91 1.247 . S
O97 Cd86 2.439 . S
O97 C91 1.208 . S
O98 Cd99 2.223 . S
O98 C106 1.315 . S
Cd99 O98 2.223 . S
Cd99 O102 2.297 . S
Cd99 O103 2.439 . S
Cd99 O109 2.240 . S
Cd100 O101 2.240 . S
Cd100 O108 2.223 1_455 S
Cd100 O110 2.297 . S
Cd100 O111 2.439 . S
O101 Cd100 2.240 . S
O101 C106 1.279 . S
O102 Cd99 2.297 . S
O102 C104 1.247 . S
O103 Cd99 2.439 . S
O103 C104 1.208 . S
C104 O102 1.247 . S
C104 O103 1.208 . S
C105 O110 1.247 . S
C105 O111 1.208 . S
C106 O98 1.315 . S
C106 O101 1.279 . S
C107 O108 1.315 . S
C107 O109 1.279 1_655 S
O108 Cd100 2.223 1_655 S
O108 C107 1.315 . S
O109 Cd99 2.240 . S
O109 C107 1.279 1_455 S
O110 Cd100 2.297 . S
O110 C105 1.247 . S
O111 Cd100 2.439 . S
O111 C105 1.208 . S
O112 Cd113 2.223 . S
O112 C120 1.315 . S
Cd113 O112 2.223 . S
Cd113 O116 2.297 . S
Cd113 O117 2.439 . S
Cd113 O123 2.221 1_545 S
Cd114 O115 2.240 . S
Cd114 O122 2.223 1_545 S
Cd114 O124 2.297 . S
Cd114 O125 2.439 . S
O115 Cd114 2.240 . S
O115 C120 1.279 . S
O116 Cd113 2.297 . S
O116 C118 1.247 . S
O117 Cd113 2.439 . S
O117 C118 1.208 . S
C118 O116 1.247 . S
C118 O117 1.208 . S
C119 O124 1.247 . S
C119 O125 1.208 . S
C120 O112 1.315 . S
C120 O115 1.279 . S
C121 O122 1.315 . S
C121 O123 1.298 . S
O122 Cd114 2.223 1_565 S
O122 C121 1.315 . S
O123 Cd113 2.221 1_565 S
O123 C121 1.298 . S
O124 Cd114 2.297 . S
O124 C119 1.247 . S
O125 Cd114 2.439 . S
O125 C119 1.208 . S
O126 Cd127 2.223 . S
O126 C134 1.315 . S
Cd127 O126 2.223 . S
Cd127 O130 2.297 . S
Cd127 O131 2.439 . S
Cd127 O137 2.240 . S
Cd128 O129 2.240 . S
Cd128 O136 2.223 . S
Cd128 O138 2.297 . S
Cd128 O139 2.439 . S
O129 Cd128 2.240 . S
O129 C134 1.279 . S
O130 Cd127 2.297 . S
O130 C132 1.247 . S
O131 Cd127 2.439 . S
O131 C132 1.208 . S
C132 O130 1.247 . S
C132 O131 1.208 . S
C133 O138 1.247 . S
C133 O139 1.208 . S
C134 O126 1.315 . S
C134 O129 1.279 . S
C135 O136 1.315 . S
C135 O137 1.279 . S
O136 Cd128 2.223 . S
O136 C135 1.315 . S
O137 Cd127 2.240 . S
O137 C135 1.279 . S
O138 Cd128 2.297 . S
O138 C133 1.247 . S
O139 Cd128 2.439 . S
O139 C133 1.208 . S
O140 Cd141 2.223 1_545 S
O140 C148 1.315 1_545 S
Cd141 O140 2.223 1_565 S
Cd141 O144 2.297 . S
Cd141 O145 2.439 . S
Cd141 O151 2.240 1_565 S
Cd142 O143 2.240 1_545 S
Cd142 O150 2.223 . S
Cd142 O152 2.297 . S
Cd142 O153 2.439 1_545 S
O143 Cd142 2.240 1_565 S
O143 C148 1.279 . S
O144 Cd141 2.297 . S
O144 C146 1.247 . S
O145 Cd141 2.439 . S
O145 C146 1.208 . S
C146 O144 1.247 . S
C146 O145 1.208 . S
C147 O152 1.247 . S
C147 O153 1.208 1_545 S
C148 O140 1.315 1_565 S
C148 O143 1.279 . S
C149 O150 1.315 . S
C149 O151 1.279 . S
O150 Cd142 2.223 . S
O150 C149 1.315 . S
O151 Cd141 2.240 1_545 S
O151 C149 1.279 . S
O152 Cd142 2.297 . S
O152 C147 1.247 . S
O153 Cd142 2.439 1_565 S
O153 C147 1.208 1_565 S
O154 Cd155 2.223 . S
O154 C162 1.315 . S
Cd155 O154 2.223 . S
Cd155 O158 2.297 . S
Cd155 O159 2.439 1_554 S
Cd155 O165 2.240 . S
Cd156 O157 2.240 1_556 S
Cd156 O164 2.223 1_556 S
Cd156 O166 2.297 . S
Cd156 O167 2.439 . S
O157 Cd156 2.240 1_554 S
O157 C162 1.279 . S
O158 Cd155 2.297 . S
O158 C160 1.247 . S
O159 Cd155 2.439 1_556 S
O159 C160 1.208 1_556 S
C160 O158 1.247 . S
C160 O159 1.208 1_554 S
C161 O166 1.247 . S
C161 O167 1.208 . S
C162 O154 1.315 . S
C162 O157 1.279 . S
C163 O164 1.315 . S
C163 O165 1.279 . S
O164 Cd156 2.223 1_554 S
O164 C163 1.315 . S
O165 Cd155 2.240 . S
O165 C163 1.279 . S
O166 Cd156 2.297 . S
O166 C161 1.247 . S
O167 Cd156 2.439 . S
O167 C161 1.208 . S
O168 Cd169 2.223 . S
O168 C176 1.315 . S
Cd169 O168 2.223 . S
Cd169 O172 2.297 . S
Cd169 O173 2.439 . S
Cd169 O179 2.240 . S
Cd170 O171 2.240 . S
Cd170 O178 2.223 . S
Cd170 O180 2.297 1_554 S
Cd170 O181 2.439 1_554 S
O171 Cd170 2.240 . S
O171 C176 1.279 . S
O172 Cd169 2.297 . S
O172 C174 1.247 . S
O173 Cd169 2.439 . S
O173 C174 1.208 . S
C174 O172 1.247 . S
C174 O173 1.208 . S
C175 O180 1.247 . S
C175 O181 1.208 . S
C176 O168 1.315 . S
C176 O171 1.279 . S
C177 O178 1.315 . S
C177 O179 1.279 . S
O178 Cd170 2.223 . S
O178 C177 1.315 . S
O179 Cd169 2.240 . S
O179 C177 1.279 . S
O180 Cd170 2.297 1_556 S
O180 C175 1.247 . S
O181 Cd170 2.439 1_556 S
O181 C175 1.208 . S
O182 Cd183 2.223 . S
O182 C190 1.315 . S
Cd183 O182 2.223 . S
Cd183 O186 2.297 . S
Cd183 O187 2.439 . S
Cd183 O193 2.240 . S
Cd184 O185 2.240 . S
Cd184 O192 2.223 . S
Cd184 O194 2.297 1_554 S
Cd184 O195 2.439 1_554 S
O185 Cd184 2.240 . S
O185 C190 1.279 . S
O186 Cd183 2.297 . S
O186 C188 1.247 . S
O187 Cd183 2.439 . S
O187 C188 1.208 . S
C188 O186 1.247 . S
C188 O187 1.208 . S
C189 O194 1.247 . S
C189 O195 1.208 . S
C190 O182 1.315 . S
C190 O185 1.279 . S
C191 O192 1.315 . S
C191 O193 1.279 . S
O192 Cd184 2.223 . S
O192 C191 1.315 . S
O193 Cd183 2.240 . S
O193 C191 1.279 . S
O194 Cd184 2.297 1_556 S
O194 C189 1.247 . S
O195 Cd184 2.439 1_556 S
O195 C189 1.208 . S
O196 Cd197 2.223 . S
O196 C204 1.315 . S
Cd197 O196 2.223 . S
Cd197 O200 2.297 . S
Cd197 O201 2.439 . S
Cd197 O207 2.240 . S
Cd198 O199 2.240 . S
Cd198 O206 2.223 . S
Cd198 O208 2.297 . S
Cd198 O209 2.439 . S
O199 Cd198 2.240 . S
O199 C204 1.279 . S
O200 Cd197 2.297 . S
O200 C202 1.247 . S
O201 Cd197 2.439 . S
O201 C202 1.208 . S
C202 O200 1.247 . S
C202 O201 1.208 . S
C203 O208 1.247 . S
C203 O209 1.208 . S
C204 O196 1.315 . S
C204 O199 1.279 . S
C205 O206 1.315 . S
C205 O207 1.279 . S
O206 Cd198 2.223 . S
O206 C205 1.315 . S
O207 Cd197 2.240 . S
O207 C205 1.279 . S
O208 Cd198 2.297 . S
O208 C203 1.247 . S
O209 Cd198 2.439 . S
O209 C203 1.208 . S
O210 Cd211 2.223 . S
O210 C218 1.315 . S
Cd211 O210 2.223 . S
Cd211 O214 2.297 . S
Cd211 O215 2.439 . S
Cd211 O221 2.240 . S
Cd212 O213 2.240 . S
Cd212 O220 2.223 . S
Cd212 O222 2.297 . S
Cd212 O223 2.439 . S
O213 Cd212 2.240 . S
O213 C218 1.279 . S
O214 Cd211 2.297 . S
O214 C216 1.247 . S
O215 Cd211 2.439 . S
O215 C216 1.208 . S
C216 O214 1.247 . S
C216 O215 1.208 . S
C217 O222 1.247 . S
C217 O223 1.208 . S
C218 O210 1.315 . S
C218 O213 1.279 . S
C219 O220 1.315 . S
C219 O221 1.279 . S
O220 Cd212 2.223 . S
O220 C219 1.315 . S
O221 Cd211 2.240 . S
O221 C219 1.279 . S
O222 Cd212 2.297 . S
O222 C217 1.247 . S
O223 Cd212 2.439 . S
O223 C217 1.208 . S
O224 Cd225 2.223 . S
O224 C232 1.315 . S
Cd225 O224 2.223 . S
Cd225 O228 2.297 . S
Cd225 O229 2.439 . S
Cd225 O235 2.240 . S
Cd226 O227 2.240 . S
Cd226 O234 2.223 . S
Cd226 O236 2.297 . S
Cd226 O237 2.439 . S
O227 Cd226 2.240 . S
O227 C232 1.279 . S
O228 Cd225 2.297 . S
O228 C230 1.247 . S
O229 Cd225 2.439 . S
O229 C230 1.208 . S
C230 O228 1.247 . S
C230 O229 1.208 . S
C231 O236 1.247 . S
C231 O237 1.208 . S
C232 O224 1.315 . S
C232 O227 1.279 . S
C233 O234 1.315 . S
C233 O235 1.279 . S
O234 Cd226 2.223 . S
O234 C233 1.315 . S
O235 Cd225 2.240 . S
O235 C233 1.279 . S
O236 Cd226 2.297 . S
O236 C231 1.247 . S
O237 Cd226 2.439 . S
O237 C231 1.208 . S
O238 Cd239 2.223 . S
O238 C246 1.315 . S
Cd239 O238 2.223 . S
Cd239 O242 2.297 . S
Cd239 O243 2.439 . S
Cd239 O249 2.240 . S
Cd240 O241 2.240 . S
Cd240 O248 2.223 . S
Cd240 O250 2.297 . S
Cd240 O251 2.439 . S
O241 Cd240 2.240 . S
O241 C246 1.279 . S
O242 Cd239 2.297 . S
O242 C244 1.247 . S
O243 Cd239 2.439 . S
O243 C244 1.208 . S
C244 O242 1.247 . S
C244 O243 1.208 . S
C245 O250 1.247 . S
C245 O251 1.208 . S
C246 O238 1.315 . S
C246 O241 1.279 . S
C247 O248 1.315 . S
C247 O249 1.279 . S
O248 Cd240 2.223 . S
O248 C247 1.315 . S
O249 Cd239 2.240 . S
O249 C247 1.279 . S
O250 Cd240 2.297 . S
O250 C245 1.247 . S
O251 Cd240 2.439 . S
O251 C245 1.208 . S
O252 Cd253 2.223 . S
O252 C260 1.315 . S
Cd253 O252 2.223 . S
Cd253 O256 2.297 . S
Cd253 O257 2.439 . S
Cd253 O263 2.240 . S
Cd254 O255 2.240 . S
Cd254 O262 2.223 . S
Cd254 O264 2.297 . S
Cd254 O265 2.439 . S
O255 Cd254 2.240 . S
O255 C260 1.279 . S
O256 Cd253 2.297 . S
O256 C258 1.247 . S
O257 Cd253 2.439 . S
O257 C258 1.208 . S
C258 O256 1.247 . S
C258 O257 1.208 . S
C259 O264 1.247 . S
C259 O265 1.208 . S
C260 O252 1.315 . S
C260 O255 1.279 . S
C261 O262 1.315 . S
C261 O263 1.279 . S
O262 Cd254 2.223 . S
O262 C261 1.315 . S
O263 Cd253 2.240 . S
O263 C261 1.279 . S
O264 Cd254 2.297 . S
O264 C259 1.247 . S
O265 Cd254 2.439 . S
O265 C259 1.208 . S
O266 Cd267 2.223 . S
O266 C274 1.315 . S
Cd267 O266 2.223 . S
Cd267 O270 2.297 . S
Cd267 O271 2.439 . S
Cd267 O277 2.240 . S
Cd268 O269 2.240 . S
Cd268 O276 2.223 . S
Cd268 O278 2.297 . S
Cd268 O279 2.439 . S
O269 Cd268 2.240 . S
O269 C274 1.279 . S
O270 Cd267 2.297 . S
O270 C272 1.247 . S
O271 Cd267 2.439 . S
O271 C272 1.208 . S
C272 O270 1.247 . S
C272 O271 1.208 . S
C273 O278 1.247 . S
C273 O279 1.208 . S
C274 O266 1.315 . S
C274 O269 1.279 . S
C275 O276 1.315 . S
C275 O277 1.279 . S
O276 Cd268 2.223 . S
O276 C275 1.315 . S
O277 Cd267 2.240 . S
O277 C275 1.279 . S
O278 Cd268 2.297 . S
O278 C273 1.247 . S
O279 Cd268 2.439 . S
O279 C273 1.208 . S
O280 Cd281 2.223 . S
O280 C288 1.315 . S
Cd281 O280 2.223 . S
Cd281 O284 2.297 . S
Cd281 O285 2.439 . S
Cd281 O291 2.240 . S
Cd282 O283 2.240 . S
Cd282 O290 2.223 . S
Cd282 O292 2.297 1_554 S
Cd282 O293 2.439 1_554 S
O283 Cd282 2.240 . S
O283 C288 1.279 . S
O284 Cd281 2.297 . S
O284 C286 1.247 . S
O285 Cd281 2.439 . S
O285 C286 1.208 . S
C286 O284 1.247 . S
C286 O285 1.208 . S
C287 O292 1.247 . S
C287 O293 1.208 . S
C288 O280 1.315 . S
C288 O283 1.279 . S
C289 O290 1.315 . S
C289 O291 1.279 . S
O290 Cd282 2.223 . S
O290 C289 1.315 . S
O291 Cd281 2.240 . S
O291 C289 1.279 . S
O292 Cd282 2.297 1_556 S
O292 C287 1.247 . S
O293 Cd282 2.439 1_556 S
O293 C287 1.208 . S
O294 Cd295 2.223 . S
O294 C302 1.315 . S
Cd295 O294 2.223 . S
Cd295 O298 2.297 . S
Cd295 O299 2.439 . S
Cd295 O305 2.240 . S
Cd296 O297 2.240 . S
Cd296 O304 2.223 . S
Cd296 O306 2.297 . S
Cd296 O307 2.439 . S
O297 Cd296 2.240 . S
O297 C302 1.279 . S
O298 Cd295 2.297 . S
O298 C300 1.247 . S
O299 Cd295 2.439 . S
O299 C300 1.208 . S
C300 O298 1.247 . S
C300 O299 1.208 . S
C301 O306 1.247 . S
C301 O307 1.208 . S
C302 O294 1.315 . S
C302 O297 1.279 . S
C303 O304 1.315 . S
C303 O305 1.279 . S
O304 Cd296 2.223 . S
O304 C303 1.315 . S
O305 Cd295 2.240 . S
O305 C303 1.279 . S
O306 Cd296 2.297 . S
O306 C301 1.247 . S
O307 Cd296 2.439 . S
O307 C301 1.208 . S
O308 Cd309 2.223 . S
O308 C316 1.315 . S
Cd309 O308 2.223 . S
Cd309 O312 2.297 . S
Cd309 O313 2.439 . S
Cd309 O319 2.240 . S
Cd310 O311 2.240 . S
Cd310 O318 2.223 . S
Cd310 O320 2.297 . S
Cd310 O321 2.439 . S
O311 Cd310 2.240 . S
O311 C316 1.279 . S
O312 Cd309 2.297 . S
O312 C314 1.247 . S
O313 Cd309 2.439 . S
O313 C314 1.208 . S
C314 O312 1.247 . S
C314 O313 1.208 . S
C315 O320 1.247 . S
C315 O321 1.208 . S
C316 O308 1.315 . S
C316 O311 1.279 . S
C317 O318 1.315 . S
C317 O319 1.279 . S
O318 Cd310 2.223 . S
O318 C317 1.315 . S
O319 Cd309 2.240 . S
O319 C317 1.279 . S
O320 Cd310 2.297 . S
O320 C315 1.247 . S
O321 Cd310 2.439 . S
O321 C315 1.208 . S
O322 Cd323 2.223 . S
O322 C330 1.315 . S
Cd323 O322 2.223 . S
Cd323 O326 2.297 . S
Cd323 O327 2.439 . S
Cd323 O333 2.240 . S
Cd324 O325 2.240 . S
Cd324 O332 2.223 . S
Cd324 O334 2.297 . S
Cd324 O335 2.439 . S
O325 Cd324 2.240 . S
O325 C330 1.279 . S
O326 Cd323 2.297 . S
O326 C328 1.247 . S
O327 Cd323 2.439 . S
O327 C328 1.208 . S
C328 O326 1.247 . S
C328 O327 1.208 . S
C329 O334 1.247 . S
C329 O335 1.208 . S
C330 O322 1.315 . S
C330 O325 1.279 . S
C331 O332 1.315 . S
C331 O333 1.279 . S
O332 Cd324 2.223 . S
O332 C331 1.315 . S
O333 Cd323 2.240 . S
O333 C331 1.279 . S
O334 Cd324 2.297 . S
O334 C329 1.247 . S
O335 Cd324 2.439 . S
O335 C329 1.208 . S
Gd336 C339 2.829 1_455 S
Gd336 O356 2.377 . S
Gd336 O358 2.448 1_454 S
Gd336 O359 2.506 1_455 S
Gd336 O360 2.435 1_554 S
Gd336 O361 2.727 . S
Gd336 O363 2.395 . S
Gd336 O367 2.327 . S
Gd337 C348 2.818 . S
Gd337 O357 2.395 . S
Gd337 O361 2.349 . S
Gd337 O362 2.377 . S
Gd337 O364 2.448 . S
Gd337 O365 2.506 . S
Gd337 O366 2.435 . S
Gd337 O367 2.717 . S
C338 O356 1.240 . S
C338 O357 1.240 . S
C339 Gd336 2.829 1_655 S
C339 C340 1.500 1_554 S
C339 O358 1.208 1_554 S
C339 O359 1.305 . S
C340 C339 1.500 1_556 S
C340 C341 1.404 . S
C340 C342 1.352 1_556 S
C341 C340 1.404 . S
C341 C345 1.389 . S
C341 H368 0.930 . S
C342 C340 1.352 1_554 S
C342 C344 1.374 . S
C342 H369 0.931 . S
C343 C344 1.359 1_556 S
C343 C345 1.364 . S
C344 C342 1.374 . S
C344 C343 1.359 1_554 S
C344 H370 0.931 . S
C345 C341 1.389 . S
C345 C343 1.364 . S
C345 H371 0.931 . S
C346 O360 1.256 . S
C346 O361 1.231 1_556 S
C347 O362 1.240 . S
C347 O363 1.240 . S
C348 Gd337 2.818 . S
C348 C349 1.510 . S
C348 O364 1.249 . S
C348 O365 1.252 . S
C349 C348 1.510 . S
C349 C350 1.404 . S
C349 C351 1.352 . S
C350 C349 1.404 . S
C350 C354 1.389 . S
C350 H372 0.930 . S
C351 C349 1.352 . S
C351 C353 1.374 . S
C351 H373 0.931 . S
C352 C353 1.359 . S
C352 C354 1.364 . S
C353 C351 1.374 . S
C353 C352 1.359 . S
C353 H374 0.893 1_545 S
C354 C350 1.389 . S
C354 C352 1.364 . S
C354 H375 0.931 . S
C355 O366 1.256 . S
C355 O367 1.257 . S
O356 Gd336 2.377 . S
O356 C338 1.240 . S
O357 Gd337 2.395 . S
O357 C338 1.240 . S
O358 Gd336 2.448 1_656 S
O358 C339 1.208 1_556 S
O359 Gd336 2.506 1_655 S
O359 C339 1.305 . S
O360 Gd336 2.435 1_556 S
O360 C346 1.256 . S
O361 Gd336 2.727 . S
O361 Gd337 2.349 . S
O361 C346 1.231 1_554 S
O362 Gd337 2.377 . S
O362 C347 1.240 . S
O363 Gd336 2.395 . S
O363 C347 1.240 . S
O364 Gd337 2.448 . S
O364 C348 1.249 . S
O365 Gd337 2.506 . S
O365 C348 1.252 . S
O366 Gd337 2.435 . S
O366 C355 1.256 . S
O367 Gd336 2.327 . S
O367 Gd337 2.717 . S
O367 C355 1.257 . S
H368 C341 0.930 . S
H369 C342 0.931 . S
H370 C344 0.931 . S
H371 C345 0.931 . S
H372 C350 0.930 . S
H373 C351 0.931 . S
H374 C353 0.893 1_565 S
H375 C354 0.931 . S
Gd376 C379 2.818 . S
Gd376 O396 2.377 . S
Gd376 O398 2.448 . S
Gd376 O399 2.506 . S
Gd376 O400 2.435 . S
Gd376 O401 2.717 . S
Gd376 O403 2.395 . S
Gd376 O407 2.327 . S
Gd377 C388 2.818 . S
Gd377 O397 2.395 . S
Gd377 O401 2.327 . S
Gd377 O402 2.377 . S
Gd377 O404 2.448 . S
Gd377 O405 2.506 . S
Gd377 O406 2.435 . S
Gd377 O407 2.717 . S
C378 O396 1.240 . S
C378 O397 1.240 . S
C379 Gd376 2.818 . S
C379 C380 1.510 . S
C379 O398 1.249 . S
C379 O399 1.252 . S
C380 C379 1.510 . S
C380 C381 1.404 . S
C380 C382 1.352 . S
C381 C380 1.404 . S
C381 C385 1.389 . S
C381 H408 0.930 . S
C382 C380 1.352 . S
C382 C384 1.374 . S
C382 H409 0.931 . S
C383 C384 1.359 . S
C383 C385 1.364 . S
C384 C382 1.374 . S
C384 C383 1.359 . S
C384 H410 0.931 . S
C385 C381 1.389 . S
C385 C383 1.364 . S
C385 H411 0.931 . S
C386 O400 1.256 . S
C386 O401 1.257 . S
C387 O402 1.240 . S
C387 O403 1.240 . S
C388 Gd377 2.818 . S
C388 C389 1.510 . S
C388 O404 1.249 . S
C388 O405 1.252 . S
C389 C388 1.510 . S
C389 C390 1.404 . S
C389 C391 1.352 . S
C390 C389 1.404 . S
C390 C394 1.389 . S
C390 H412 0.930 . S
C391 C389 1.352 . S
C391 C393 1.374 . S
C391 H413 0.931 . S
C392 C393 1.359 . S
C392 C394 1.364 . S
C393 C391 1.374 . S
C393 C392 1.359 . S
C393 H414 0.931 . S
C394 C390 1.389 . S
C394 C392 1.364 . S
C394 H415 0.931 . S
C395 O406 1.256 . S
C395 O407 1.257 . S
O396 Gd376 2.377 . S
O396 C378 1.240 . S
O397 Gd377 2.395 . S
O397 C378 1.240 . S
O398 Gd376 2.448 . S
O398 C379 1.249 . S
O399 Gd376 2.506 . S
O399 C379 1.252 . S
O400 Gd376 2.435 . S
O400 C386 1.256 . S
O401 Gd376 2.717 . S
O401 Gd377 2.327 . S
O401 C386 1.257 . S
O402 Gd377 2.377 . S
O402 C387 1.240 . S
O403 Gd376 2.395 . S
O403 C387 1.240 . S
O404 Gd377 2.448 . S
O404 C388 1.249 . S
O405 Gd377 2.506 . S
O405 C388 1.252 . S
O406 Gd377 2.435 . S
O406 C395 1.256 . S
O407 Gd376 2.327 . S
O407 Gd377 2.717 . S
O407 C395 1.257 . S
H408 C381 0.930 . S
H409 C382 0.931 . S
H410 C384 0.931 . S
H411 C385 0.931 . S
H412 C390 0.930 . S
H413 C391 0.931 . S
H414 C393 0.931 . S
H415 C394 0.931 . S
Gd416 C419 2.818 . S
Gd416 O436 2.377 . S
Gd416 O438 2.448 . S
Gd416 O439 2.506 . S
Gd416 O440 2.435 . S
Gd416 O441 2.717 . S
Gd416 O443 2.395 . S
Gd416 O447 2.327 . S
Gd417 C428 2.818 . S
Gd417 O437 2.383 1_545 S
Gd417 O441 2.327 . S
Gd417 O442 2.377 . S
Gd417 O444 2.448 . S
Gd417 O445 2.506 . S
Gd417 O446 2.435 . S
Gd417 O447 2.717 . S
C418 O436 1.240 1_565 S
C418 O437 1.245 . S
C419 Gd416 2.818 . S
C419 C420 1.510 . S
C419 O438 1.249 . S
C419 O439 1.252 . S
C420 C419 1.510 . S
C420 C421 1.404 . S
C420 C422 1.352 1_545 S
C421 C420 1.404 . S
C421 C425 1.389 1_545 S
C421 H448 0.930 . S
C422 C420 1.352 1_565 S
C422 C424 1.374 . S
C422 H449 0.931 . S
C423 C424 1.359 . S
C423 C425 1.364 . S
C424 C422 1.374 . S
C424 C423 1.359 . S
C424 H450 0.931 . S
C425 C421 1.389 1_565 S
C425 C423 1.364 . S
C425 H451 0.931 . S
C426 O440 1.256 . S
C426 O441 1.257 . S
C427 O442 1.240 . S
C427 O443 1.240 . S
C428 Gd417 2.818 . S
C428 C429 1.510 . S
C428 O444 1.249 . S
C428 O445 1.252 . S
C429 C428 1.510 . S
C429 C430 1.404 . S
C429 C431 1.352 . S
C430 C429 1.404 . S
C430 C434 1.389 . S
C430 H452 0.930 . S
C431 C429 1.352 . S
C431 C433 1.374 . S
C431 H453 0.931 . S
C432 C433 1.359 . S
C432 C434 1.364 . S
C433 C431 1.374 . S
C433 C432 1.359 . S
C433 H454 0.931 . S
C434 C430 1.389 . S
C434 C432 1.364 . S
C434 H455 0.931 . S
C435 O446 1.256 . S
C435 O447 1.257 . S
O436 Gd416 2.377 . S
O436 C418 1.240 1_545 S
O437 Gd417 2.383 1_565 S
O437 C418 1.245 . S
O438 Gd416 2.448 . S
O438 C419 1.249 . S
O439 Gd416 2.506 . S
O439 C419 1.252 . S
O440 Gd416 2.435 . S
O440 C426 1.256 . S
O441 Gd416 2.717 . S
O441 Gd417 2.327 . S
O441 C426 1.257 . S
O442 Gd417 2.377 . S
O442 C427 1.240 . S
O443 Gd416 2.395 . S
O443 C427 1.240 . S
O444 Gd417 2.448 . S
O444 C428 1.249 . S
O445 Gd417 2.506 . S
O445 C428 1.252 . S
O446 Gd417 2.435 . S
O446 C435 1.256 . S
O447 Gd416 2.327 . S
O447 Gd417 2.717 . S
O447 C435 1.257 . S
H448 C421 0.930 . S
H449 C422 0.931 . S
H450 C424 0.931 . S
H451 C425 0.931 . S
H452 C430 0.930 . S
H453 C431 0.931 . S
H454 C433 0.931 . S
H455 C434 0.931 . S
Gd456 C459 2.818 . S
Gd456 O476 2.377 . S
Gd456 O478 2.448 . S
Gd456 O479 2.506 . S
Gd456 O480 2.435 . S
Gd456 O481 2.717 . S
Gd456 O483 2.395 . S
Gd456 O487 2.327 . S
Gd457 C468 2.818 . S
Gd457 O477 2.395 . S
Gd457 O481 2.327 . S
Gd457 O482 2.377 . S
Gd457 O484 2.448 . S
Gd457 O485 2.506 . S
Gd457 O486 2.435 . S
Gd457 O487 2.717 . S
C458 O476 1.240 . S
C458 O477 1.240 . S
C459 Gd456 2.818 . S
C459 C460 1.510 . S
C459 O478 1.249 . S
C459 O479 1.252 . S
C460 C459 1.510 . S
C460 C461 1.404 . S
C460 C462 1.352 . S
C461 C460 1.404 . S
C461 C465 1.389 . S
C461 H488 0.930 . S
C462 C460 1.352 . S
C462 C464 1.374 . S
C462 H489 0.931 . S
C463 C464 1.359 . S
C463 C465 1.364 . S
C464 C462 1.374 . S
C464 C463 1.359 . S
C464 H490 0.931 . S
C465 C461 1.389 . S
C465 C463 1.364 . S
C465 H491 0.931 . S
C466 O480 1.256 . S
C466 O481 1.257 . S
C467 O482 1.240 . S
C467 O483 1.240 . S
C468 Gd457 2.818 . S
C468 C469 1.510 . S
C468 O484 1.249 . S
C468 O485 1.252 . S
C469 C468 1.510 . S
C469 C470 1.404 . S
C469 C471 1.352 . S
C470 C469 1.404 . S
C470 C474 1.389 . S
C470 H492 0.930 . S
C471 C469 1.352 . S
C471 C473 1.374 . S
C471 H493 0.931 . S
C472 C473 1.359 . S
C472 C474 1.364 . S
C473 C471 1.374 . S
C473 C472 1.359 . S
C473 H494 0.931 . S
C474 C470 1.389 . S
C474 C472 1.364 . S
C474 H495 0.931 . S
C475 O486 1.256 . S
C475 O487 1.257 . S
O476 Gd456 2.377 . S
O476 C458 1.240 . S
O477 Gd457 2.395 . S
O477 C458 1.240 . S
O478 Gd456 2.448 . S
O478 C459 1.249 . S
O479 Gd456 2.506 . S
O479 C459 1.252 . S
O480 Gd456 2.435 . S
O480 C466 1.256 . S
O481 Gd456 2.717 . S
O481 Gd457 2.327 . S
O481 C466 1.257 . S
O482 Gd457 2.377 . S
O482 C467 1.240 . S
O483 Gd456 2.395 . S
O483 C467 1.240 . S
O484 Gd457 2.448 . S
O484 C468 1.249 . S
O485 Gd457 2.506 . S
O485 C468 1.252 . S
O486 Gd457 2.435 . S
O486 C475 1.256 . S
O487 Gd456 2.327 . S
O487 Gd457 2.717 . S
O487 C475 1.257 . S
H488 C461 0.930 . S
H489 C462 0.931 . S
H490 C464 0.931 . S
H491 C465 0.931 . S
H492 C470 0.930 . S
H493 C471 0.931 . S
H494 C473 0.931 . S
H495 C474 0.931 . S
Gd496 C499 2.818 . S
Gd496 O516 2.377 . S
Gd496 O518 2.448 . S
Gd496 O519 2.506 . S
Gd496 O520 2.435 . S
Gd496 O521 2.717 . S
Gd496 O523 2.395 . S
Gd496 O527 2.327 . S
Gd497 C508 2.818 1_545 S
Gd497 O517 2.395 . S
Gd497 O521 2.327 . S
Gd497 O522 2.377 . S
Gd497 O524 2.448 1_545 S
Gd497 O525 2.506 1_545 S
Gd497 O526 2.435 . S
Gd497 O527 2.717 . S
C498 O516 1.240 . S
C498 O517 1.240 . S
C499 Gd496 2.818 . S
C499 C500 1.510 . S
C499 O518 1.249 . S
C499 O519 1.252 . S
C500 C499 1.510 . S
C500 C501 1.404 . S
C500 C502 1.352 . S
C501 C500 1.404 . S
C501 C505 1.389 . S
C501 H528 0.930 . S
C502 C500 1.352 . S
C502 C504 1.374 . S
C502 H529 0.931 . S
C503 C504 1.359 . S
C503 C505 1.364 . S
C504 C502 1.374 . S
C504 C503 1.359 . S
C504 H530 0.931 . S
C505 C501 1.389 . S
C505 C503 1.364 . S
C505 H531 0.931 . S
C506 O520 1.256 . S
C506 O521 1.257 . S
C507 O522 1.240 . S
C507 O523 1.240 . S
C508 Gd497 2.818 1_565 S
C508 C509 1.510 . S
C508 O524 1.249 . S
C508 O525 1.252 . S
C509 C508 1.510 . S
C509 C510 1.404 . S
C509 C511 1.352 . S
C510 C509 1.404 . S
C510 C514 1.389 . S
C510 H532 0.930 . S
C511 C509 1.352 . S
C511 C513 1.374 . S
C511 H533 0.931 . S
C512 C513 1.359 . S
C512 C514 1.364 . S
C513 C511 1.374 . S
C513 C512 1.359 . S
C513 H534 0.931 . S
C514 C510 1.389 . S
C514 C512 1.364 . S
C514 H535 0.931 . S
C515 O526 1.256 . S
C515 O527 1.257 . S
O516 Gd496 2.377 . S
O516 C498 1.240 . S
O517 Gd497 2.395 . S
O517 C498 1.240 . S
O518 Gd496 2.448 . S
O518 C499 1.249 . S
O519 Gd496 2.506 . S
O519 C499 1.252 . S
O520 Gd496 2.435 . S
O520 C506 1.256 . S
O521 Gd496 2.717 . S
O521 Gd497 2.327 . S
O521 C506 1.257 . S
O522 Gd497 2.377 . S
O522 C507 1.240 . S
O523 Gd496 2.395 . S
O523 C507 1.240 . S
O524 Gd497 2.448 1_565 S
O524 C508 1.249 . S
O525 Gd497 2.506 1_565 S
O525 C508 1.252 . S
O526 Gd497 2.435 . S
O526 C515 1.256 . S
O527 Gd496 2.327 . S
O527 Gd497 2.717 . S
O527 C515 1.257 . S
H528 C501 0.930 . S
H529 C502 0.931 . S
H530 C504 0.931 . S
H531 C505 0.931 . S
H532 C510 0.930 . S
H533 C511 0.931 . S
H534 C513 0.931 . S
H535 C514 0.931 . S
Gd536 C539 2.818 . S
Gd536 O556 2.377 . S
Gd536 O558 2.448 . S
Gd536 O559 2.506 . S
Gd536 O560 2.435 . S
Gd536 O561 2.717 . S
Gd536 O563 2.395 . S
Gd536 O567 2.327 . S
Gd537 C548 2.818 . S
Gd537 O557 2.395 . S
Gd537 O561 2.327 . S
Gd537 O562 2.377 . S
Gd537 O564 2.448 . S
Gd537 O565 2.506 . S
Gd537 O566 2.435 . S
Gd537 O567 2.717 . S
C538 O556 1.240 . S
C538 O557 1.240 . S
C539 Gd536 2.818 . S
C539 C540 1.510 . S
C539 O558 1.249 . S
C539 O559 1.252 . S
C540 C539 1.510 . S
C540 C541 1.404 . S
C540 C542 1.352 . S
C541 C540 1.404 . S
C541 C545 1.389 . S
C541 H568 0.930 . S
C542 C540 1.352 . S
C542 C544 1.374 . S
C542 H569 0.931 . S
C543 C544 1.359 . S
C543 C545 1.364 . S
C544 C542 1.374 . S
C544 C543 1.359 . S
C544 H570 0.931 . S
C545 C541 1.389 . S
C545 C543 1.364 . S
C545 H571 0.931 . S
C546 O560 1.256 . S
C546 O561 1.257 . S
C547 O562 1.240 . S
C547 O563 1.240 . S
C548 Gd537 2.818 . S
C548 C549 1.510 . S
C548 O564 1.249 . S
C548 O565 1.252 . S
C549 C548 1.510 . S
C549 C550 1.404 . S
C549 C551 1.352 . S
C550 C549 1.404 . S
C550 C554 1.389 . S
C550 H572 0.930 . S
C551 C549 1.352 . S
C551 C553 1.374 . S
C551 H573 0.931 . S
C552 C553 1.359 . S
C552 C554 1.364 . S
C553 C551 1.374 . S
C553 C552 1.359 . S
C553 H574 0.931 . S
C554 C550 1.389 . S
C554 C552 1.364 . S
C554 H575 0.931 . S
C555 O566 1.256 . S
C555 O567 1.257 . S
O556 Gd536 2.377 . S
O556 C538 1.240 . S
O557 Gd537 2.395 . S
O557 C538 1.240 . S
O558 Gd536 2.448 . S
O558 C539 1.249 . S
O559 Gd536 2.506 . S
O559 C539 1.252 . S
O560 Gd536 2.435 . S
O560 C546 1.256 . S
O561 Gd536 2.717 . S
O561 Gd537 2.327 . S
O561 C546 1.257 . S
O562 Gd537 2.377 . S
O562 C547 1.240 . S
O563 Gd536 2.395 . S
O563 C547 1.240 . S
O564 Gd537 2.448 . S
O564 C548 1.249 . S
O565 Gd537 2.506 . S
O565 C548 1.252 . S
O566 Gd537 2.435 . S
O566 C555 1.256 . S
O567 Gd536 2.327 . S
O567 Gd537 2.717 . S
O567 C555 1.257 . S
H568 C541 0.930 . S
H569 C542 0.931 . S
H570 C544 0.931 . S
H571 C545 0.931 . S
H572 C550 0.930 . S
H573 C551 0.931 . S
H574 C553 0.931 . S
H575 C554 0.931 . S
Gd576 C579 2.818 . S
Gd576 O596 2.377 . S
Gd576 O598 2.448 . S
Gd576 O599 2.506 . S
Gd576 O600 2.402 1_545 S
Gd576 O601 2.717 . S
Gd576 O603 2.395 . S
Gd576 O607 2.327 . S
Gd577 C588 2.818 . S
Gd577 O597 2.395 1_556 S
Gd577 O601 2.327 1_556 S
Gd577 O602 2.377 1_556 S
Gd577 O604 2.448 . S
Gd577 O605 2.506 . S
Gd577 O606 2.435 1_556 S
Gd577 O607 2.717 1_556 S
C578 O596 1.240 . S
C578 O597 1.240 . S
C579 Gd576 2.818 . S
C579 C580 1.510 . S
C579 O598 1.249 . S
C579 O599 1.252 . S
C580 C579 1.510 . S
C580 C581 1.404 1_545 S
C580 C582 1.352 . S
C581 C580 1.404 1_565 S
C581 C585 1.389 . S
C581 H608 0.930 . S
C582 C580 1.352 . S
C582 C584 1.374 . S
C582 H609 0.931 . S
C583 C584 1.359 . S
C583 C585 1.364 1_545 S
C584 C582 1.374 . S
C584 C583 1.359 . S
C584 H610 0.931 . S
C585 C581 1.389 . S
C585 C583 1.364 1_565 S
C585 H611 0.931 . S
C586 O600 1.242 1_545 S
C586 O601 1.257 . S
C587 O602 1.240 . S
C587 O603 1.240 . S
C588 Gd577 2.818 . S
C588 C589 1.510 . S
C588 O604 1.249 . S
C588 O605 1.252 . S
C589 C588 1.510 . S
C589 C590 1.404 . S
C589 C591 1.352 . S
C590 C589 1.404 . S
C590 C594 1.389 . S
C590 H612 0.930 . S
C591 C589 1.352 . S
C591 C593 1.374 . S
C591 H613 0.931 . S
C592 C593 1.359 . S
C592 C594 1.364 . S
C593 C591 1.374 . S
C593 C592 1.359 . S
C593 H614 0.931 . S
C594 C590 1.389 . S
C594 C592 1.364 . S
C594 H615 0.931 . S
C595 O606 1.256 . S
C595 O607 1.257 . S
O596 Gd576 2.377 . S
O596 C578 1.240 . S
O597 Gd577 2.395 1_554 S
O597 C578 1.240 . S
O598 Gd576 2.448 . S
O598 C579 1.249 . S
O599 Gd576 2.506 . S
O599 C579 1.252 . S
O600 Gd576 2.402 1_565 S
O600 C586 1.242 1_565 S
O601 Gd576 2.717 . S
O601 Gd577 2.327 1_554 S
O601 C586 1.257 . S
O602 Gd577 2.377 1_554 S
O602 C587 1.240 . S
O603 Gd576 2.395 . S
O603 C587 1.240 . S
O604 Gd577 2.448 . S
O604 C588 1.249 . S
O605 Gd577 2.506 . S
O605 C588 1.252 . S
O606 Gd577 2.435 1_554 S
O606 C595 1.256 . S
O607 Gd576 2.327 . S
O607 Gd577 2.717 1_554 S
O607 C595 1.257 . S
H608 C581 0.930 . S
H609 C582 0.931 . S
H610 C584 0.931 . S
H611 C585 0.931 . S
H612 C590 0.930 . S
H613 C591 0.931 . S
H614 C593 0.931 . S
H615 C594 0.931 . S
Gd616 C619 2.818 . S
Gd616 O636 2.377 . S
Gd616 O638 2.448 . S
Gd616 O639 2.506 . S
Gd616 O640 2.435 . S
Gd616 O641 2.717 . S
Gd616 O643 2.395 . S
Gd616 O647 2.327 . S
Gd617 C628 2.818 . S
Gd617 O637 2.395 . S
Gd617 O641 2.327 . S
Gd617 O642 2.377 . S
Gd617 O644 2.448 . S
Gd617 O645 2.506 . S
Gd617 O646 2.435 . S
Gd617 O647 2.717 . S
C618 O636 1.240 . S
C618 O637 1.240 . S
C619 Gd616 2.818 . S
C619 C620 1.510 . S
C619 O638 1.249 . S
C619 O639 1.252 . S
C620 C619 1.510 . S
C620 C621 1.404 . S
C620 C622 1.352 . S
C621 C620 1.404 . S
C621 C625 1.389 . S
C621 H648 0.930 . S
C622 C620 1.352 . S
C622 C624 1.374 . S
C622 H649 0.931 . S
C623 C624 1.359 . S
C623 C625 1.364 . S
C624 C622 1.374 . S
C624 C623 1.359 . S
C624 H650 0.931 . S
C625 C621 1.389 . S
C625 C623 1.364 . S
C625 H651 0.931 . S
C626 O640 1.256 . S
C626 O641 1.257 . S
C627 O642 1.240 . S
C627 O643 1.240 . S
C628 Gd617 2.818 . S
C628 C629 1.510 . S
C628 O644 1.249 . S
C628 O645 1.252 . S
C629 C628 1.510 . S
C629 C630 1.404 . S
C629 C631 1.352 . S
C630 C629 1.404 . S
C630 C634 1.389 . S
C630 H652 0.930 . S
C631 C629 1.352 . S
C631 C633 1.374 . S
C631 H653 0.931 . S
C632 C633 1.359 . S
C632 C634 1.364 . S
C633 C631 1.374 . S
C633 C632 1.359 . S
C633 H654 0.931 . S
C634 C630 1.389 . S
C634 C632 1.364 . S
C634 H655 0.931 . S
C635 O646 1.256 . S
C635 O647 1.257 . S
O636 Gd616 2.377 . S
O636 C618 1.240 . S
O637 Gd617 2.395 . S
O637 C618 1.240 . S
O638 Gd616 2.448 . S
O638 C619 1.249 . S
O639 Gd616 2.506 . S
O639 C619 1.252 . S
O640 Gd616 2.435 . S
O640 C626 1.256 . S
O641 Gd616 2.717 . S
O641 Gd617 2.327 . S
O641 C626 1.257 . S
O642 Gd617 2.377 . S
O642 C627 1.240 . S
O643 Gd616 2.395 . S
O643 C627 1.240 . S
O644 Gd617 2.448 . S
O644 C628 1.249 . S
O645 Gd617 2.506 . S
O645 C628 1.252 . S
O646 Gd617 2.435 . S
O646 C635 1.256 . S
O647 Gd616 2.327 . S
O647 Gd617 2.717 . S
O647 C635 1.257 . S
H648 C621 0.930 . S
H649 C622 0.931 . S
H650 C624 0.931 . S
H651 C625 0.931 . S
H652 C630 0.930 . S
H653 C631 0.931 . S
H654 C633 0.931 . S
H655 C634 0.931 . S
Gd656 C659 2.818 . S
Gd656 O676 2.377 1_554 S
Gd656 O678 2.448 . S
Gd656 O679 2.506 . S
Gd656 O680 2.435 . S
Gd656 O681 2.717 . S
Gd656 O683 2.395 . S
Gd656 O687 2.327 . S
Gd657 C668 2.818 . S
Gd657 O677 2.395 1_554 S
Gd657 O681 2.327 . S
Gd657 O682 2.377 . S
Gd657 O684 2.448 . S
Gd657 O685 2.506 . S
Gd657 O686 2.435 . S
Gd657 O687 2.717 . S
C658 O676 1.240 . S
C658 O677 1.240 . S
C659 Gd656 2.818 . S
C659 C660 1.493 1_554 S
C659 O678 1.249 . S
C659 O679 1.252 . S
C660 C659 1.493 1_556 S
C660 C661 1.400 1_556 S
C660 C662 1.373 . S
C661 C660 1.400 1_554 S
C661 C665 1.389 1_554 S
C661 H688 0.930 . S
C662 C660 1.373 . S
C662 C664 1.374 . S
C662 H689 0.931 . S
C663 C664 1.359 . S
C663 C665 1.364 . S
C664 C662 1.374 . S
C664 C663 1.359 . S
C664 H690 0.931 . S
C665 C661 1.389 1_556 S
C665 C663 1.364 . S
C665 H691 0.931 . S
C666 O680 1.256 . S
C666 O681 1.257 . S
C667 O682 1.240 . S
C667 O683 1.240 . S
C668 Gd657 2.818 . S
C668 C669 1.510 . S
C668 O684 1.249 . S
C668 O685 1.252 . S
C669 C668 1.510 . S
C669 C670 1.404 . S
C669 C671 1.352 . S
C670 C669 1.404 . S
C670 C674 1.389 . S
C670 H692 0.930 . S
C671 C669 1.352 . S
C671 C673 1.374 . S
C671 H693 0.931 . S
C672 C673 1.359 . S
C672 C674 1.364 . S
C673 C671 1.374 . S
C673 C672 1.359 . S
C673 H694 0.931 . S
C674 C670 1.389 . S
C674 C672 1.364 . S
C674 H695 0.931 . S
C675 O686 1.256 . S
C675 O687 1.257 . S
O676 Gd656 2.377 1_556 S
O676 C658 1.240 . S
O677 Gd657 2.395 1_556 S
O677 C658 1.240 . S
O678 Gd656 2.448 . S
O678 C659 1.249 . S
O679 Gd656 2.506 . S
O679 C659 1.252 . S
O680 Gd656 2.435 . S
O680 C666 1.256 . S
O681 Gd656 2.717 . S
O681 Gd657 2.327 . S
O681 C666 1.257 . S
O682 Gd657 2.377 . S
O682 C667 1.240 . S
O683 Gd656 2.395 . S
O683 C667 1.240 . S
O684 Gd657 2.448 . S
O684 C668 1.249 . S
O685 Gd657 2.506 . S
O685 C668 1.252 . S
O686 Gd657 2.435 . S
O686 C675 1.256 . S
O687 Gd656 2.327 . S
O687 Gd657 2.717 . S
O687 C675 1.257 . S
H688 C661 0.930 . S
H689 C662 0.931 . S
H690 C664 0.931 . S
H691 C665 0.931 . S
H692 C670 0.930 . S
H693 C671 0.931 . S
H694 C673 0.931 . S
H695 C674 0.931 . S
Gd696 C699 2.818 . S
Gd696 O716 2.377 . S
Gd696 O718 2.448 . S
Gd696 O719 2.506 . S
Gd696 O720 2.435 . S
Gd696 O721 2.717 . S
Gd696 O723 2.395 . S
Gd696 O727 2.327 . S
Gd697 C708 2.818 . S
Gd697 O717 2.395 . S
Gd697 O721 2.327 . S
Gd697 O722 2.377 . S
Gd697 O724 2.448 . S
Gd697 O725 2.506 . S
Gd697 O726 2.435 . S
Gd697 O727 2.717 . S
C698 O716 1.240 . S
C698 O717 1.240 . S
C699 Gd696 2.818 . S
C699 C700 1.510 . S
C699 O718 1.249 . S
C699 O719 1.252 . S
C700 C699 1.510 . S
C700 C701 1.404 . S
C700 C702 1.352 . S
C701 C700 1.404 . S
C701 C705 1.389 . S
C701 H728 0.930 . S
C702 C700 1.352 . S
C702 C704 1.374 . S
C702 H729 0.931 . S
C703 C704 1.359 . S
C703 C705 1.364 . S
C704 C702 1.374 . S
C704 C703 1.359 . S
C704 H730 0.931 . S
C705 C701 1.389 . S
C705 C703 1.364 . S
C705 H731 0.931 . S
C706 O720 1.256 . S
C706 O721 1.257 . S
C707 O722 1.240 . S
C707 O723 1.240 . S
C708 Gd697 2.818 . S
C708 C709 1.510 . S
C708 O724 1.249 . S
C708 O725 1.252 . S
C709 C708 1.510 . S
C709 C710 1.404 . S
C709 C711 1.352 . S
C710 C709 1.404 . S
C710 C714 1.389 . S
C710 H732 0.930 . S
C711 C709 1.352 . S
C711 C713 1.374 . S
C711 H733 0.931 . S
C712 C713 1.359 . S
C712 C714 1.364 . S
C713 C711 1.374 . S
C713 C712 1.359 . S
C713 H734 0.931 . S
C714 C710 1.389 . S
C714 C712 1.364 . S
C714 H735 0.931 . S
C715 O726 1.256 . S
C715 O727 1.257 . S
O716 Gd696 2.377 . S
O716 C698 1.240 . S
O717 Gd697 2.395 . S
O717 C698 1.240 . S
O718 Gd696 2.448 . S
O718 C699 1.249 . S
O719 Gd696 2.506 . S
O719 C699 1.252 . S
O720 Gd696 2.435 . S
O720 C706 1.256 . S
O721 Gd696 2.717 . S
O721 Gd697 2.327 . S
O721 C706 1.257 . S
O722 Gd697 2.377 . S
O722 C707 1.240 . S
O723 Gd696 2.395 . S
O723 C707 1.240 . S
O724 Gd697 2.448 . S
O724 C708 1.249 . S
O725 Gd697 2.506 . S
O725 C708 1.252 . S
O726 Gd697 2.435 . S
O726 C715 1.256 . S
O727 Gd696 2.327 . S
O727 Gd697 2.717 . S
O727 C715 1.257 . S
H728 C701 0.930 . S
H729 C702 0.931 . S
H730 C704 0.931 . S
H731 C705 0.931 . S
H732 C710 0.930 . S
H733 C711 0.931 . S
H734 C713 0.931 . S
H735 C714 0.931 . S
Gd736 C739 2.818 . S
Gd736 O756 2.377 . S
Gd736 O758 2.448 . S
Gd736 O759 2.506 . S
Gd736 O760 2.435 . S
Gd736 O761 2.717 . S
Gd736 O763 2.395 . S
Gd736 O767 2.327 . S
Gd737 C748 2.818 . S
Gd737 O757 2.395 . S
Gd737 O761 2.327 . S
Gd737 O762 2.377 . S
Gd737 O764 2.448 . S
Gd737 O765 2.506 . S
Gd737 O766 2.435 . S
Gd737 O767 2.717 . S
C738 O756 1.240 . S
C738 O757 1.240 . S
C739 Gd736 2.818 . S
C739 C740 1.510 . S
C739 O758 1.249 . S
C739 O759 1.252 . S
C740 C739 1.510 . S
C740 C741 1.404 . S
C740 C742 1.352 . S
C741 C740 1.404 . S
C741 C745 1.389 . S
C741 H768 0.930 . S
C742 C740 1.352 . S
C742 C744 1.374 1_455 S
C742 H769 0.931 . S
C743 C744 1.359 . S
C743 C745 1.364 1_655 S
C744 C742 1.374 1_655 S
C744 C743 1.359 . S
C744 H770 0.931 . S
C745 C741 1.389 . S
C745 C743 1.364 1_455 S
C745 H771 0.931 . S
C746 O760 1.256 . S
C746 O761 1.257 . S
C747 O762 1.240 . S
C747 O763 1.240 . S
C748 Gd737 2.818 . S
C748 C749 1.510 . S
C748 O764 1.249 . S
C748 O765 1.252 . S
C749 C748 1.510 . S
C749 C750 1.404 . S
C749 C751 1.352 . S
C750 C749 1.404 . S
C750 C754 1.389 . S
C750 H772 0.930 . S
C751 C749 1.352 . S
C751 C753 1.374 . S
C751 H773 0.931 . S
C752 C753 1.359 . S
C752 C754 1.364 . S
C753 C751 1.374 . S
C753 C752 1.359 . S
C753 H774 0.931 . S
C754 C750 1.389 . S
C754 C752 1.364 . S
C754 H775 0.931 . S
C755 O766 1.256 . S
C755 O767 1.257 . S
O756 Gd736 2.377 . S
O756 C738 1.240 . S
O757 Gd737 2.395 . S
O757 C738 1.240 . S
O758 Gd736 2.448 . S
O758 C739 1.249 . S
O759 Gd736 2.506 . S
O759 C739 1.252 . S
O760 Gd736 2.435 . S
O760 C746 1.256 . S
O761 Gd736 2.717 . S
O761 Gd737 2.327 . S
O761 C746 1.257 . S
O762 Gd737 2.377 . S
O762 C747 1.240 . S
O763 Gd736 2.395 . S
O763 C747 1.240 . S
O764 Gd737 2.448 . S
O764 C748 1.249 . S
O765 Gd737 2.506 . S
O765 C748 1.252 . S
O766 Gd737 2.435 . S
O766 C755 1.256 . S
O767 Gd736 2.327 . S
O767 Gd737 2.717 . S
O767 C755 1.257 . S
H768 C741 0.930 . S
H769 C742 0.931 . S
H770 C744 0.931 . S
H771 C745 0.931 . S
H772 C750 0.930 . S
H773 C751 0.931 . S
H774 C753 0.931 . S
H775 C754 0.931 . S
Gd776 C779 2.818 . S
Gd776 O796 2.377 . S
Gd776 O798 2.448 . S
Gd776 O799 2.506 . S
Gd776 O800 2.435 . S
Gd776 O801 2.717 . S
Gd776 O803 2.395 . S
Gd776 O807 2.327 . S
Gd777 C788 2.818 . S
Gd777 O797 2.395 . S
Gd777 O801 2.327 . S
Gd777 O802 2.377 . S
Gd777 O804 2.448 . S
Gd777 O805 2.506 . S
Gd777 O806 2.435 . S
Gd777 O807 2.717 . S
C778 O796 1.240 . S
C778 O797 1.240 . S
C779 Gd776 2.818 . S
C779 C780 1.510 . S
C779 O798 1.249 . S
C779 O799 1.252 . S
C780 C779 1.510 . S
C780 C781 1.404 . S
C780 C782 1.352 . S
C781 C780 1.404 . S
C781 C785 1.389 . S
C781 H808 0.930 . S
C782 C780 1.352 . S
C782 C784 1.374 . S
C782 H809 0.931 . S
C783 C784 1.359 . S
C783 C785 1.364 . S
C784 C782 1.374 . S
C784 C783 1.359 . S
C784 H810 0.931 . S
C785 C781 1.389 . S
C785 C783 1.364 . S
C785 H811 0.931 . S
C786 O800 1.256 . S
C786 O801 1.257 . S
C787 O802 1.240 . S
C787 O803 1.240 . S
C788 Gd777 2.818 . S
C788 C789 1.510 . S
C788 O804 1.249 . S
C788 O805 1.252 . S
C789 C788 1.510 . S
C789 C790 1.404 . S
C789 C791 1.352 . S
C790 C789 1.404 . S
C790 C794 1.389 . S
C790 H812 0.930 . S
C791 C789 1.352 . S
C791 C793 1.374 . S
C791 H813 0.931 . S
C792 C793 1.359 . S
C792 C794 1.364 . S
C793 C791 1.374 . S
C793 C792 1.359 . S
C793 H814 0.931 . S
C794 C790 1.389 . S
C794 C792 1.364 . S
C794 H815 0.931 . S
C795 O806 1.256 . S
C795 O807 1.257 . S
O796 Gd776 2.377 . S
O796 C778 1.240 . S
O797 Gd777 2.395 . S
O797 C778 1.240 . S
O798 Gd776 2.448 . S
O798 C779 1.249 . S
O799 Gd776 2.506 . S
O799 C779 1.252 . S
O800 Gd776 2.435 . S
O800 C786 1.256 . S
O801 Gd776 2.717 . S
O801 Gd777 2.327 . S
O801 C786 1.257 . S
O802 Gd777 2.377 . S
O802 C787 1.240 . S
O803 Gd776 2.395 . S
O803 C787 1.240 . S
O804 Gd777 2.448 . S
O804 C788 1.249 . S
O805 Gd777 2.506 . S
O805 C788 1.252 . S
O806 Gd777 2.435 . S
O806 C795 1.256 . S
O807 Gd776 2.327 . S
O807 Gd777 2.717 . S
O807 C795 1.257 . S
H808 C781 0.930 . S
H809 C782 0.931 . S
H810 C784 0.931 . S
H811 C785 0.931 . S
H812 C790 0.930 . S
H813 C791 0.931 . S
H814 C793 0.931 . S
H815 C794 0.931 . S
Gd816 C819 2.818 . S
Gd816 O836 2.377 . S
Gd816 O838 2.448 . S
Gd816 O839 2.506 . S
Gd816 O840 2.435 . S
Gd816 O841 2.717 . S
Gd816 O843 2.395 . S
Gd816 O847 2.327 . S
Gd817 C828 2.818 . S
Gd817 O837 2.395 . S
Gd817 O841 2.327 . S
Gd817 O842 2.377 . S
Gd817 O844 2.448 . S
Gd817 O845 2.506 . S
Gd817 O846 2.435 . S
Gd817 O847 2.717 . S
C818 O836 1.240 . S
C818 O837 1.240 . S
C819 Gd816 2.818 . S
C819 C820 1.510 . S
C819 O838 1.249 . S
C819 O839 1.252 . S
C820 C819 1.510 . S
C820 C821 1.404 . S
C820 C822 1.352 . S
C821 C820 1.404 . S
C821 C825 1.389 . S
C821 H848 0.930 . S
C822 C820 1.352 . S
C822 C824 1.374 . S
C822 H849 0.931 . S
C823 C824 1.359 . S
C823 C825 1.364 . S
C824 C822 1.374 . S
C824 C823 1.359 . S
C824 H850 0.931 . S
C825 C821 1.389 . S
C825 C823 1.364 . S
C825 H851 0.931 . S
C826 O840 1.256 . S
C826 O841 1.257 . S
C827 O842 1.240 . S
C827 O843 1.240 . S
C828 Gd817 2.818 . S
C828 C829 1.510 . S
C828 O844 1.249 . S
C828 O845 1.252 . S
C829 C828 1.510 . S
C829 C830 1.404 . S
C829 C831 1.352 . S
C830 C829 1.404 . S
C830 C834 1.389 . S
C830 H852 0.930 . S
C831 C829 1.352 . S
C831 C833 1.374 . S
C831 H853 0.931 . S
C832 C833 1.359 . S
C832 C834 1.364 . S
C833 C831 1.374 . S
C833 C832 1.359 . S
C833 H854 0.931 . S
C834 C830 1.389 . S
C834 C832 1.364 . S
C834 H855 0.931 . S
C835 O846 1.256 . S
C835 O847 1.257 . S
O836 Gd816 2.377 . S
O836 C818 1.240 . S
O837 Gd817 2.395 . S
O837 C818 1.240 . S
O838 Gd816 2.448 . S
O838 C819 1.249 . S
O839 Gd816 2.506 . S
O839 C819 1.252 . S
O840 Gd816 2.435 . S
O840 C826 1.256 . S
O841 Gd816 2.717 . S
O841 Gd817 2.327 . S
O841 C826 1.257 . S
O842 Gd817 2.377 . S
O842 C827 1.240 . S
O843 Gd816 2.395 . S
O843 C827 1.240 . S
O844 Gd817 2.448 . S
O844 C828 1.249 . S
O845 Gd817 2.506 . S
O845 C828 1.252 . S
O846 Gd817 2.435 . S
O846 C835 1.256 . S
O847 Gd816 2.327 . S
O847 Gd817 2.717 . S
O847 C835 1.257 . S
H848 C821 0.930 . S
H849 C822 0.931 . S
H850 C824 0.931 . S
H851 C825 0.931 . S
H852 C830 0.930 . S
H853 C831 0.931 . S
H854 C833 0.931 . S
H855 C834 0.931 . S
Gd856 C859 2.818 . S
Gd856 O876 2.377 . S
Gd856 O878 2.448 . S
Gd856 O879 2.506 . S
Gd856 O880 2.435 . S
Gd856 O881 2.717 . S
Gd856 O883 2.395 . S
Gd856 O887 2.327 . S
Gd857 C868 2.818 . S
Gd857 O877 2.395 . S
Gd857 O881 2.327 . S
Gd857 O882 2.377 . S
Gd857 O884 2.448 . S
Gd857 O885 2.506 . S
Gd857 O886 2.435 . S
Gd857 O887 2.717 . S
C858 O876 1.240 . S
C858 O877 1.240 . S
C859 Gd856 2.818 . S
C859 C860 1.510 . S
C859 O878 1.249 . S
C859 O879 1.252 . S
C860 C859 1.510 . S
C860 C861 1.404 . S
C860 C862 1.352 . S
C861 C860 1.404 . S
C861 C865 1.389 . S
C861 H888 0.930 . S
C862 C860 1.352 . S
C862 C864 1.374 . S
C862 H889 0.931 . S
C863 C864 1.359 . S
C863 C865 1.364 . S
C864 C862 1.374 . S
C864 C863 1.359 . S
C864 H890 0.931 . S
C865 C861 1.389 . S
C865 C863 1.364 . S
C865 H891 0.931 . S
C866 O880 1.256 . S
C866 O881 1.257 . S
C867 O882 1.240 . S
C867 O883 1.240 . S
C868 Gd857 2.818 . S
C868 C869 1.510 . S
C868 O884 1.249 . S
C868 O885 1.252 . S
C869 C868 1.510 . S
C869 C870 1.404 . S
C869 C871 1.352 . S
C870 C869 1.404 . S
C870 C874 1.389 . S
C870 H892 0.930 . S
C871 C869 1.352 . S
C871 C873 1.374 . S
C871 H893 0.931 . S
C872 C873 1.359 . S
C872 C874 1.364 . S
C873 C871 1.374 . S
C873 C872 1.359 . S
C873 H894 0.931 . S
C874 C870 1.389 . S
C874 C872 1.364 . S
C874 H895 0.931 . S
C875 O886 1.256 . S
C875 O887 1.257 . S
O876 Gd856 2.377 . S
O876 C858 1.240 . S
O877 Gd857 2.395 . S
O877 C858 1.240 . S
O878 Gd856 2.448 . S
O878 C859 1.249 . S
O879 Gd856 2.506 . S
O879 C859 1.252 . S
O880 Gd856 2.435 . S
O880 C866 1.256 . S
O881 Gd856 2.717 . S
O881 Gd857 2.327 . S
O881 C866 1.257 . S
O882 Gd857 2.377 . S
O882 C867 1.240 . S
O883 Gd856 2.395 . S
O883 C867 1.240 . S
O884 Gd857 2.448 . S
O884 C868 1.249 . S
O885 Gd857 2.506 . S
O885 C868 1.252 . S
O886 Gd857 2.435 . S
O886 C875 1.256 . S
O887 Gd856 2.327 . S
O887 Gd857 2.717 . S
O887 C875 1.257 . S
H888 C861 0.930 . S
H889 C862 0.931 . S
H890 C864 0.931 . S
H891 C865 0.931 . S
H892 C870 0.930 . S
H893 C871 0.931 . S
H894 C873 0.931 . S
H895 C874 0.931 . S
Gd896 C899 2.818 . S
Gd896 O916 2.377 . S
Gd896 O918 2.448 . S
Gd896 O919 2.506 . S
Gd896 O920 2.435 . S
Gd896 O921 2.717 . S
Gd896 O923 2.395 . S
Gd896 O927 2.327 . S
Gd897 C908 2.818 . S
Gd897 O917 2.395 . S
Gd897 O921 2.327 . S
Gd897 O922 2.377 . S
Gd897 O924 2.448 . S
Gd897 O925 2.506 . S
Gd897 O926 2.435 . S
Gd897 O927 2.717 . S
C898 O916 1.240 . S
C898 O917 1.240 . S
C899 Gd896 2.818 . S
C899 C900 1.510 . S
C899 O918 1.249 . S
C899 O919 1.252 . S
C900 C899 1.510 . S
C900 C901 1.404 . S
C900 C902 1.352 . S
C901 C900 1.404 . S
C901 C905 1.389 . S
C901 H928 0.930 . S
C902 C900 1.352 . S
C902 C904 1.374 . S
C902 H929 0.931 . S
C903 C904 1.359 . S
C903 C905 1.364 . S
C904 C902 1.374 . S
C904 C903 1.359 . S
C904 H930 0.931 . S
C905 C901 1.389 . S
C905 C903 1.364 . S
C905 H931 0.931 . S
C906 O920 1.256 . S
C906 O921 1.257 . S
C907 O922 1.240 . S
C907 O923 1.240 . S
C908 Gd897 2.818 . S
C908 C909 1.510 . S
C908 O924 1.249 . S
C908 O925 1.252 . S
C909 C908 1.510 . S
C909 C910 1.404 . S
C909 C911 1.352 . S
C910 C909 1.404 . S
C910 C914 1.389 . S
C910 H932 0.930 . S
C911 C909 1.352 . S
C911 C913 1.374 . S
C911 H933 0.931 . S
C912 C913 1.359 . S
C912 C914 1.364 . S
C913 C911 1.374 . S
C913 C912 1.359 . S
C913 H934 0.931 . S
C914 C910 1.389 . S
C914 C912 1.364 . S
C914 H935 0.931 . S
C915 O926 1.256 . S
C915 O927 1.257 . S
O916 Gd896 2.377 . S
O916 C898 1.240 . S
O917 Gd897 2.395 . S
O917 C898 1.240 . S
O918 Gd896 2.448 . S
O918 C899 1.249 . S
O919 Gd896 2.506 . S
O919 C899 1.252 . S
O920 Gd896 2.435 . S
O920 C906 1.256 . S
O921 Gd896 2.717 . S
O921 Gd897 2.327 . S
O921 C906 1.257 . S
O922 Gd897 2.377 . S
O922 C907 1.240 . S
O923 Gd896 2.395 . S
O923 C907 1.240 . S
O924 Gd897 2.448 . S
O924 C908 1.249 . S
O925 Gd897 2.506 . S
O925 C908 1.252 . S
O926 Gd897 2.435 . S
O926 C915 1.256 . S
O927 Gd896 2.327 . S
O927 Gd897 2.717 . S
O927 C915 1.257 . S
H928 C901 0.930 . S
H929 C902 0.931 . S
H930 C904 0.931 . S
H931 C905 0.931 . S
H932 C910 0.930 . S
H933 C911 0.931 . S
H934 C913 0.931 . S
H935 C914 0.931 . S
Gd936 C939 2.818 . S
Gd936 O956 2.377 . S
Gd936 O958 2.448 . S
Gd936 O959 2.506 . S
Gd936 O960 2.435 1_554 S
Gd936 O961 2.717 . S
Gd936 O963 2.395 . S
Gd936 O967 2.327 . S
Gd937 C948 2.818 1_455 S
Gd937 O957 2.395 . S
Gd937 O961 2.327 . S
Gd937 O962 2.377 . S
Gd937 O964 2.495 . S
Gd937 O965 2.528 . S
Gd937 O966 2.435 . S
Gd937 O967 2.717 . S
C938 O956 1.240 . S
C938 O957 1.240 . S
C939 Gd936 2.818 . S
C939 C940 1.510 . S
C939 O958 1.249 . S
C939 O959 1.252 . S
C940 C939 1.510 . S
C940 C941 1.404 . S
C940 C942 1.352 . S
C941 C940 1.404 . S
C941 C945 1.389 1_554 S
C941 H968 0.930 1_554 S
C942 C940 1.352 . S
C942 C944 1.374 . S
C942 H969 0.931 . S
C943 C944 1.359 . S
C943 C945 1.366 1_554 S
C944 C942 1.374 . S
C944 C943 1.359 . S
C944 H970 0.931 . S
C945 C941 1.389 1_556 S
C945 C943 1.366 1_556 S
C945 H971 0.929 . S
C946 O960 1.256 1_554 S
C946 O961 1.257 . S
C947 O962 1.240 . S
C947 O963 1.240 . S
C948 Gd937 2.818 1_655 S
C948 C949 1.510 . S
C948 O964 1.228 1_655 S
C948 O965 1.239 1_655 S
C949 C948 1.510 . S
C949 C950 1.404 . S
C949 C951 1.352 . S
C950 C949 1.404 . S
C950 C954 1.389 . S
C950 H972 0.930 . S
C951 C949 1.352 . S
C951 C953 1.374 . S
C951 H973 0.931 . S
C952 C953 1.359 . S
C952 C954 1.364 . S
C953 C951 1.374 . S
C953 C952 1.359 . S
C953 H974 0.931 . S
C954 C950 1.389 . S
C954 C952 1.364 . S
C954 H975 0.931 . S
C955 O966 1.256 . S
C955 O967 1.257 . S
O956 Gd936 2.377 . S
O956 C938 1.240 . S
O957 Gd937 2.395 . S
O957 C938 1.240 . S
O958 Gd936 2.448 . S
O958 C939 1.249 . S
O959 Gd936 2.506 . S
O959 C939 1.252 . S
O960 Gd936 2.435 1_556 S
O960 C946 1.256 1_556 S
O961 Gd936 2.717 . S
O961 Gd937 2.327 . S
O961 C946 1.257 . S
O962 Gd937 2.377 . S
O962 C947 1.240 . S
O963 Gd936 2.395 . S
O963 C947 1.240 . S
O964 Gd937 2.495 . S
O964 C948 1.228 1_455 S
O965 Gd937 2.528 . S
O965 C948 1.239 1_455 S
O966 Gd937 2.435 . S
O966 C955 1.256 . S
O967 Gd936 2.327 . S
O967 Gd937 2.717 . S
O967 C955 1.257 . S
H968 C941 0.930 1_556 S
H969 C942 0.931 . S
H970 C944 0.931 . S
H971 C945 0.929 . S
H972 C950 0.930 . S
H973 C951 0.931 . S
H974 C953 0.931 . S
H975 C954 0.931 . S
C976 C977 1.349 . S
C976 C978 1.327 . S
C976 H1001 0.950 . S
C977 C976 1.349 . S
C977 C993 1.349 . S
C978 C976 1.327 . S
C978 C997 1.429 . S
C978 H1002 0.950 . S
C979 C996 1.574 . S
C979 C998 1.368 . S
C979 H1003 0.949 . S
H980 C984 0.949 1_554 S
C981 C982 1.349 1_556 S
C981 C983 1.327 . S
C981 H1004 0.950 . S
C982 C981 1.349 1_554 S
C982 C994 1.349 . S
C983 C981 1.327 . S
C983 C999 1.429 . S
C983 H1005 0.950 . S
C984 H980 0.949 1_556 S
C984 C992 1.574 . S
C984 C1000 1.368 . S
H985 C993 0.950 . S
H986 C991 0.950 . S
H987 C992 0.949 . S
H988 C994 0.950 . S
H989 C995 0.950 . S
H990 C996 0.949 . S
C991 H986 0.950 . S
C991 C993 1.327 . S
C991 C997 1.429 . S
C992 C984 1.574 . S
C992 H987 0.949 . S
C992 C998 1.368 . S
C993 C977 1.349 . S
C993 H985 0.950 . S
C993 C991 1.327 . S
C994 C982 1.349 . S
C994 H988 0.950 . S
C994 C995 1.327 . S
C995 H989 0.950 . S
C995 C994 1.327 . S
C995 C999 1.429 1_554 S
C996 C979 1.574 . S
C996 H990 0.949 . S
C996 C1000 1.368 . S
C997 C978 1.429 . S
C997 C991 1.429 . S
C997 C998 1.523 . S
C998 C979 1.368 . S
C998 C992 1.368 . S
C998 C997 1.523 . S
C999 C983 1.429 . S
C999 C995 1.429 1_556 S
C999 C1000 1.523 . S
C1000 C984 1.368 . S
C1000 C996 1.368 . S
C1000 C999 1.523 . S
H1001 C976 0.950 . S
H1002 C978 0.950 . S
H1003 C979 0.949 . S
H1004 C981 0.950 . S
H1005 C983 0.950 . S
C1006 C1007 1.349 . S
C1006 C1008 1.327 . S
C1006 H1031 0.950 . S
C1007 C1006 1.349 . S
C1007 C1023 1.349 . S
C1008 C1006 1.327 . S
C1008 C1027 1.429 . S
C1008 H1032 0.950 . S
C1009 C1026 1.574 . S
C1009 C1028 1.368 . S
C1009 H1033 0.949 . S
H1010 C1014 0.949 . S
C1011 C1012 1.349 . S
C1011 C1013 1.327 . S
C1011 H1034 0.950 . S
C1012 C1011 1.349 . S
C1012 C1024 1.349 . S
C1013 C1011 1.327 . S
C1013 C1029 1.429 . S
C1013 H1035 0.950 . S
C1014 H1010 0.949 . S
C1014 C1022 1.574 . S
C1014 C1030 1.368 . S
H1015 C1023 0.950 . S
H1016 C1021 0.950 . S
H1017 C1022 0.949 . S
H1018 C1024 0.950 . S
H1019 C1025 0.950 . S
H1020 C1026 0.949 . S
C1021 H1016 0.950 . S
C1021 C1023 1.327 . S
C1021 C1027 1.429 . S
C1022 C1014 1.574 . S
C1022 H1017 0.949 . S
C1022 C1028 1.368 . S
C1023 C1007 1.349 . S
C1023 H1015 0.950 . S
C1023 C1021 1.327 . S
C1024 C1012 1.349 . S
C1024 H1018 0.950 . S
C1024 C1025 1.327 . S
C1025 H1019 0.950 . S
C1025 C1024 1.327 . S
C1025 C1029 1.429 . S
C1026 C1009 1.574 . S
C1026 H1020 0.949 . S
C1026 C1030 1.368 . S
C1027 C1008 1.429 . S
C1027 C1021 1.429 . S
C1027 C1028 1.523 . S
C1028 C1009 1.368 . S
C1028 C1022 1.368 . S
C1028 C1027 1.523 . S
C1029 C1013 1.429 . S
C1029 C1025 1.429 . S
C1029 C1030 1.523 . S
C1030 C1014 1.368 . S
C1030 C1026 1.368 . S
C1030 C1029 1.523 . S
H1031 C1006 0.950 . S
H1032 C1008 0.950 . S
H1033 C1009 0.949 . S
H1034 C1011 0.950 . S
H1035 C1013 0.950 . S
C1036 C1037 1.349 . S
C1036 C1038 1.327 . S
C1036 H1061 0.950 . S
C1037 C1036 1.349 . S
C1037 C1053 1.349 . S
C1038 C1036 1.327 . S
C1038 C1057 1.429 . S
C1038 H1062 0.950 . S
C1039 C1056 1.574 . S
C1039 C1058 1.368 . S
C1039 H1063 0.949 . S
H1040 C1044 0.949 . S
C1041 C1042 1.349 . S
C1041 C1043 1.327 . S
C1041 H1064 0.950 . S
C1042 C1041 1.349 . S
C1042 C1054 1.349 . S
C1043 C1041 1.327 . S
C1043 C1059 1.429 . S
C1043 H1065 0.950 . S
C1044 H1040 0.949 . S
C1044 C1052 1.574 . S
C1044 C1060 1.368 . S
H1045 C1053 0.950 . S
H1046 C1051 0.950 . S
H1047 C1052 0.949 . S
H1048 C1054 0.950 . S
H1049 C1055 0.950 . S
H1050 C1056 0.949 . S
C1051 H1046 0.950 . S
C1051 C1053 1.327 . S
C1051 C1057 1.429 . S
C1052 C1044 1.574 . S
C1052 H1047 0.949 . S
C1052 C1058 1.368 . S
C1053 C1037 1.349 . S
C1053 H1045 0.950 . S
C1053 C1051 1.327 . S
C1054 C1042 1.349 . S
C1054 H1048 0.950 . S
C1054 C1055 1.327 . S
C1055 H1049 0.950 . S
C1055 C1054 1.327 . S
C1055 C1059 1.429 . S
C1056 C1039 1.574 . S
C1056 H1050 0.949 . S
C1056 C1060 1.368 . S
C1057 C1038 1.429 . S
C1057 C1051 1.429 . S
C1057 C1058 1.523 . S
C1058 C1039 1.368 . S
C1058 C1052 1.368 . S
C1058 C1057 1.523 . S
C1059 C1043 1.429 . S
C1059 C1055 1.429 . S
C1059 C1060 1.523 . S
C1060 C1044 1.368 . S
C1060 C1056 1.368 . S
C1060 C1059 1.523 . S
H1061 C1036 0.950 . S
H1062 C1038 0.950 . S
H1063 C1039 0.949 . S
H1064 C1041 0.950 . S
H1065 C1043 0.950 . S
C1066 C1067 1.349 . S
C1066 C1068 1.327 . S
C1066 H1091 0.950 . S
C1067 C1066 1.349 . S
C1067 C1083 1.349 . S
C1068 C1066 1.327 . S
C1068 C1087 1.429 . S
C1068 H1092 0.950 . S
C1069 C1086 1.574 . S
C1069 C1088 1.368 . S
C1069 H1093 0.949 . S
H1070 C1074 0.949 . S
C1071 C1072 1.349 . S
C1071 C1073 1.327 . S
C1071 H1094 0.950 . S
C1072 C1071 1.349 . S
C1072 C1084 1.349 . S
C1073 C1071 1.327 . S
C1073 C1089 1.429 . S
C1073 H1095 0.950 . S
C1074 H1070 0.949 . S
C1074 C1082 1.574 . S
C1074 C1090 1.368 . S
H1075 C1083 0.950 . S
H1076 C1081 0.950 . S
H1077 C1082 0.949 . S
H1078 C1084 0.950 . S
H1079 C1085 0.950 . S
H1080 C1086 0.949 . S
C1081 H1076 0.950 . S
C1081 C1083 1.327 . S
C1081 C1087 1.429 . S
C1082 C1074 1.574 . S
C1082 H1077 0.949 . S
C1082 C1088 1.368 . S
C1083 C1067 1.349 . S
C1083 H1075 0.950 . S
C1083 C1081 1.327 . S
C1084 C1072 1.349 . S
C1084 H1078 0.950 . S
C1084 C1085 1.327 . S
C1085 H1079 0.950 . S
C1085 C1084 1.327 . S
C1085 C1089 1.429 . S
C1086 C1069 1.574 . S
C1086 H1080 0.949 . S
C1086 C1090 1.368 . S
C1087 C1068 1.429 . S
C1087 C1081 1.429 . S
C1087 C1088 1.523 . S
C1088 C1069 1.368 . S
C1088 C1082 1.368 . S
C1088 C1087 1.523 . S
C1089 C1073 1.429 . S
C1089 C1085 1.429 . S
C1089 C1090 1.523 . S
C1090 C1074 1.368 . S
C1090 C1086 1.368 . S
C1090 C1089 1.523 . S
H1091 C1066 0.950 . S
H1092 C1068 0.950 . S
H1093 C1069 0.949 . S
H1094 C1071 0.950 . S
H1095 C1073 0.950 . S
C1096 C1097 1.349 . S
C1096 C1098 1.327 . S
C1096 H1121 0.950 1_455 S
C1097 C1096 1.349 . S
C1097 C1113 1.349 . S
C1098 C1096 1.327 . S
C1098 C1117 1.429 . S
C1098 H1122 0.950 1_455 S
C1099 C1116 1.574 . S
C1099 C1118 1.368 . S
C1099 H1123 0.949 . S
H1100 C1104 0.949 . S
C1101 C1102 1.349 . S
C1101 C1103 1.327 . S
C1101 H1124 0.950 . S
C1102 C1101 1.349 . S
C1102 C1114 1.349 . S
C1103 C1101 1.327 . S
C1103 C1119 1.429 . S
C1103 H1125 0.950 . S
C1104 H1100 0.949 . S
C1104 C1112 1.574 . S
C1104 C1120 1.368 . S
H1105 C1113 0.950 . S
H1106 C1111 0.950 . S
H1107 C1112 0.949 . S
H1108 C1114 0.950 . S
H1109 C1115 0.950 . S
H1110 C1116 0.949 . S
C1111 H1106 0.950 . S
C1111 C1113 1.327 . S
C1111 C1117 1.429 . S
C1112 C1104 1.574 . S
C1112 H1107 0.949 . S
C1112 C1118 1.368 . S
C1113 C1097 1.349 . S
C1113 H1105 0.950 . S
C1113 C1111 1.327 . S
C1114 C1102 1.349 . S
C1114 H1108 0.950 . S
C1114 C1115 1.327 . S
C1115 H1109 0.950 . S
C1115 C1114 1.327 . S
C1115 C1119 1.429 . S
C1116 C1099 1.574 . S
C1116 H1110 0.949 . S
C1116 C1120 1.368 . S
C1117 C1098 1.429 . S
C1117 C1111 1.429 . S
C1117 C1118 1.523 . S
C1118 C1099 1.368 . S
C1118 C1112 1.368 . S
C1118 C1117 1.523 . S
C1119 C1103 1.429 . S
C1119 C1115 1.429 . S
C1119 C1120 1.523 . S
C1120 C1104 1.368 . S
C1120 C1116 1.368 . S
C1120 C1119 1.523 . S
H1121 C1096 0.950 1_655 S
H1122 C1098 0.950 1_655 S
H1123 C1099 0.949 . S
H1124 C1101 0.950 . S
H1125 C1103 0.950 . S
C1126 C1127 1.349 . S
C1126 C1128 1.327 . S
C1126 H1151 0.950 . S
C1127 C1126 1.349 . S
C1127 C1143 1.349 . S
C1128 C1126 1.327 . S
C1128 C1147 1.429 . S
C1128 H1152 0.950 . S
C1129 C1146 1.574 . S
C1129 C1148 1.368 . S
C1129 H1153 0.949 . S
H1130 C1134 0.949 . S
C1131 C1132 1.349 . S
C1131 C1133 1.327 . S
C1131 H1154 0.950 . S
C1132 C1131 1.349 . S
C1132 C1144 1.349 . S
C1133 C1131 1.327 . S
C1133 C1149 1.429 . S
C1133 H1155 0.950 . S
C1134 H1130 0.949 . S
C1134 C1142 1.574 . S
C1134 C1150 1.368 . S
H1135 C1143 0.950 . S
H1136 C1141 0.950 . S
H1137 C1142 0.949 . S
H1138 C1144 0.950 . S
H1139 C1145 0.950 . S
H1140 C1146 0.949 . S
C1141 H1136 0.950 . S
C1141 C1143 1.327 . S
C1141 C1147 1.429 . S
C1142 C1134 1.574 . S
C1142 H1137 0.949 . S
C1142 C1148 1.368 . S
C1143 C1127 1.349 . S
C1143 H1135 0.950 . S
C1143 C1141 1.327 . S
C1144 C1132 1.349 . S
C1144 H1138 0.950 . S
C1144 C1145 1.327 . S
C1145 H1139 0.950 . S
C1145 C1144 1.327 . S
C1145 C1149 1.429 . S
C1146 C1129 1.574 . S
C1146 H1140 0.949 . S
C1146 C1150 1.368 . S
C1147 C1128 1.429 . S
C1147 C1141 1.429 . S
C1147 C1148 1.523 . S
C1148 C1129 1.368 . S
C1148 C1142 1.368 . S
C1148 C1147 1.523 . S
C1149 C1133 1.429 . S
C1149 C1145 1.429 . S
C1149 C1150 1.523 . S
C1150 C1134 1.368 . S
C1150 C1146 1.368 . S
C1150 C1149 1.523 . S
H1151 C1126 0.950 . S
H1152 C1128 0.950 . S
H1153 C1129 0.949 . S
H1154 C1131 0.950 . S
H1155 C1133 0.950 . S
C1156 C1157 1.349 . S
C1156 C1158 1.327 . S
C1156 H1181 0.950 . S
C1157 C1156 1.349 . S
C1157 C1173 1.349 . S
C1158 C1156 1.327 . S
C1158 C1177 1.429 . S
C1158 H1182 0.950 . S
C1159 C1176 1.574 . S
C1159 C1178 1.368 . S
C1159 H1183 0.949 . S
H1160 C1164 0.949 . S
C1161 C1162 1.349 . S
C1161 C1163 1.327 . S
C1161 H1184 0.950 . S
C1162 C1161 1.349 . S
C1162 C1174 1.349 . S
C1163 C1161 1.327 . S
C1163 C1179 1.429 . S
C1163 H1185 0.950 . S
C1164 H1160 0.949 . S
C1164 C1172 1.574 . S
C1164 C1180 1.368 . S
H1165 C1173 0.950 . S
H1166 C1171 0.950 . S
H1167 C1172 0.949 . S
H1168 C1174 0.950 . S
H1169 C1175 0.950 . S
H1170 C1176 0.949 . S
C1171 H1166 0.950 . S
C1171 C1173 1.327 . S
C1171 C1177 1.429 . S
C1172 C1164 1.574 . S
C1172 H1167 0.949 . S
C1172 C1178 1.368 . S
C1173 C1157 1.349 . S
C1173 H1165 0.950 . S
C1173 C1171 1.327 . S
C1174 C1162 1.349 . S
C1174 H1168 0.950 . S
C1174 C1175 1.327 . S
C1175 H1169 0.950 . S
C1175 C1174 1.327 . S
C1175 C1179 1.429 . S
C1176 C1159 1.574 . S
C1176 H1170 0.949 . S
C1176 C1180 1.368 . S
C1177 C1158 1.429 . S
C1177 C1171 1.429 . S
C1177 C1178 1.523 . S
C1178 C1159 1.368 . S
C1178 C1172 1.368 . S
C1178 C1177 1.523 . S
C1179 C1163 1.429 . S
C1179 C1175 1.429 . S
C1179 C1180 1.523 . S
C1180 C1164 1.368 . S
C1180 C1176 1.368 . S
C1180 C1179 1.523 . S
H1181 C1156 0.950 . S
H1182 C1158 0.950 . S
H1183 C1159 0.949 . S
H1184 C1161 0.950 . S
H1185 C1163 0.950 . S
C1186 C1187 1.349 . S
C1186 C1188 1.327 . S
C1186 H1211 0.950 . S
C1187 C1186 1.349 . S
C1187 C1203 1.349 . S
C1188 C1186 1.327 . S
C1188 C1207 1.429 . S
C1188 H1212 0.950 . S
C1189 C1206 1.574 . S
C1189 C1208 1.368 . S
C1189 H1213 0.949 . S
H1190 C1194 0.949 . S
C1191 C1192 1.349 . S
C1191 C1193 1.327 . S
C1191 H1214 0.950 . S
C1192 C1191 1.349 . S
C1192 C1204 1.349 . S
C1193 C1191 1.327 . S
C1193 C1209 1.429 . S
C1193 H1215 0.950 . S
C1194 H1190 0.949 . S
C1194 C1202 1.574 . S
C1194 C1210 1.368 . S
H1195 C1203 0.950 . S
H1196 C1201 0.950 . S
H1197 C1202 0.949 . S
H1198 C1204 0.950 . S
H1199 C1205 0.950 . S
H1200 C1206 0.949 . S
C1201 H1196 0.950 . S
C1201 C1203 1.327 . S
C1201 C1207 1.429 . S
C1202 C1194 1.574 . S
C1202 H1197 0.949 . S
C1202 C1208 1.368 . S
C1203 C1187 1.349 . S
C1203 H1195 0.950 . S
C1203 C1201 1.327 . S
C1204 C1192 1.349 . S
C1204 H1198 0.950 . S
C1204 C1205 1.327 . S
C1205 H1199 0.950 . S
C1205 C1204 1.327 . S
C1205 C1209 1.429 . S
C1206 C1189 1.574 . S
C1206 H1200 0.949 . S
C1206 C1210 1.368 . S
C1207 C1188 1.429 . S
C1207 C1201 1.429 . S
C1207 C1208 1.523 . S
C1208 C1189 1.368 . S
C1208 C1202 1.368 . S
C1208 C1207 1.523 . S
C1209 C1193 1.429 . S
C1209 C1205 1.429 . S
C1209 C1210 1.523 . S
C1210 C1194 1.368 . S
C1210 C1206 1.368 . S
C1210 C1209 1.523 . S
H1211 C1186 0.950 . S
H1212 C1188 0.950 . S
H1213 C1189 0.949 . S
H1214 C1191 0.950 . S
H1215 C1193 0.950 . S
C1216 C1217 1.349 . S
C1216 C1218 1.327 . S
C1216 H1241 0.950 . S
C1217 C1216 1.349 . S
C1217 C1233 1.349 . S
C1218 C1216 1.327 . S
C1218 C1237 1.429 . S
C1218 H1242 0.950 . S
C1219 C1236 1.574 1_655 S
C1219 C1238 1.368 . S
C1219 H1243 0.949 1_655 S
H1220 C1224 0.949 . S
C1221 C1222 1.349 . S
C1221 C1223 1.327 . S
C1221 H1244 0.950 . S
C1222 C1221 1.349 . S
C1222 C1234 1.349 . S
C1223 C1221 1.327 . S
C1223 C1239 1.429 . S
C1223 H1245 0.950 . S
C1224 H1220 0.949 . S
C1224 C1232 1.574 . S
C1224 C1240 1.369 . S
H1225 C1233 0.950 . S
H1226 C1231 0.950 . S
H1227 C1232 0.949 . S
H1228 C1234 0.950 . S
H1229 C1235 0.950 1_655 S
H1230 C1236 0.949 . S
C1231 H1226 0.950 . S
C1231 C1233 1.327 . S
C1231 C1237 1.429 . S
C1232 C1224 1.574 . S
C1232 H1227 0.949 . S
C1232 C1238 1.368 . S
C1233 C1217 1.349 . S
C1233 H1225 0.950 . S
C1233 C1231 1.327 . S
C1234 C1222 1.349 . S
C1234 H1228 0.950 . S
C1234 C1235 1.327 . S
C1235 H1229 0.950 1_455 S
C1235 C1234 1.327 . S
C1235 C1239 1.429 . S
C1236 C1219 1.574 1_455 S
C1236 H1230 0.949 . S
C1236 C1240 1.368 1_455 S
C1237 C1218 1.429 . S
C1237 C1231 1.429 . S
C1237 C1238 1.523 . S
C1238 C1219 1.368 . S
C1238 C1232 1.368 . S
C1238 C1237 1.523 . S
C1239 C1223 1.429 . S
C1239 C1235 1.429 . S
C1239 C1240 1.522 1_455 S
C1240 C1224 1.369 . S
C1240 C1236 1.368 1_655 S
C1240 C1239 1.522 1_655 S
H1241 C1216 0.950 . S
H1242 C1218 0.950 . S
H1243 C1219 0.949 1_455 S
H1244 C1221 0.950 . S
H1245 C1223 0.950 . S
C1246 C1247 1.349 . S
C1246 C1248 1.327 . S
C1246 H1271 0.950 . S
C1247 C1246 1.349 . S
C1247 C1263 1.349 . S
C1248 C1246 1.327 . S
C1248 C1267 1.429 . S
C1248 H1272 0.950 . S
C1249 C1266 1.574 . S
C1249 C1268 1.368 . S
C1249 H1273 0.949 . S
H1250 C1254 0.949 . S
C1251 C1252 1.349 . S
C1251 C1253 1.327 . S
C1251 H1274 0.950 . S
C1252 C1251 1.349 . S
C1252 C1264 1.349 . S
C1253 C1251 1.327 . S
C1253 C1269 1.429 . S
C1253 H1275 0.950 . S
C1254 H1250 0.949 . S
C1254 C1262 1.574 . S
C1254 C1270 1.368 . S
H1255 C1263 0.950 . S
H1256 C1261 0.950 . S
H1257 C1262 0.949 . S
H1258 C1264 0.950 . S
H1259 C1265 0.950 . S
H1260 C1266 0.949 . S
C1261 H1256 0.950 . S
C1261 C1263 1.327 . S
C1261 C1267 1.429 . S
C1262 C1254 1.574 . S
C1262 H1257 0.949 . S
C1262 C1268 1.368 . S
C1263 C1247 1.349 . S
C1263 H1255 0.950 . S
C1263 C1261 1.327 . S
C1264 C1252 1.349 . S
C1264 H1258 0.950 . S
C1264 C1265 1.327 . S
C1265 H1259 0.950 . S
C1265 C1264 1.327 . S
C1265 C1269 1.429 . S
C1266 C1249 1.574 . S
C1266 H1260 0.949 . S
C1266 C1270 1.368 . S
C1267 C1248 1.429 . S
C1267 C1261 1.429 . S
C1267 C1268 1.523 . S
C1268 C1249 1.368 . S
C1268 C1262 1.368 . S
C1268 C1267 1.523 . S
C1269 C1253 1.429 . S
C1269 C1265 1.429 . S
C1269 C1270 1.523 . S
C1270 C1254 1.368 . S
C1270 C1266 1.368 . S
C1270 C1269 1.523 . S
H1271 C1246 0.950 . S
H1272 C1248 0.950 . S
H1273 C1249 0.949 . S
H1274 C1251 0.950 . S
H1275 C1253 0.950 . S
C1276 C1277 1.349 . S
C1276 C1278 1.327 . S
C1276 H1301 0.950 . S
C1277 C1276 1.349 . S
C1277 C1293 1.349 . S
C1278 C1276 1.327 . S
C1278 C1297 1.429 . S
C1278 H1302 0.950 . S
C1279 C1296 1.574 . S
C1279 C1298 1.368 . S
C1279 H1303 0.949 . S
H1280 C1284 0.949 . S
C1281 C1282 1.349 . S
C1281 C1283 1.327 . S
C1281 H1304 0.950 . S
C1282 C1281 1.349 . S
C1282 C1294 1.349 . S
C1283 C1281 1.327 . S
C1283 C1299 1.429 . S
C1283 H1305 0.950 . S
C1284 H1280 0.949 . S
C1284 C1292 1.574 . S
C1284 C1300 1.368 . S
H1285 C1293 0.950 . S
H1286 C1291 0.950 . S
H1287 C1292 0.949 . S
H1288 C1294 0.950 . S
H1289 C1295 0.950 . S
H1290 C1296 0.949 . S
C1291 H1286 0.950 . S
C1291 C1293 1.327 . S
C1291 C1297 1.429 . S
C1292 C1284 1.574 . S
C1292 H1287 0.949 . S
C1292 C1298 1.368 . S
C1293 C1277 1.349 . S
C1293 H1285 0.950 . S
C1293 C1291 1.327 . S
C1294 C1282 1.349 . S
C1294 H1288 0.950 . S
C1294 C1295 1.327 . S
C1295 H1289 0.950 . S
C1295 C1294 1.327 . S
C1295 C1299 1.429 . S
C1296 C1279 1.574 . S
C1296 H1290 0.949 . S
C1296 C1300 1.368 . S
C1297 C1278 1.429 . S
C1297 C1291 1.429 . S
C1297 C1298 1.523 . S
C1298 C1279 1.368 . S
C1298 C1292 1.368 . S
C1298 C1297 1.523 . S
C1299 C1283 1.429 . S
C1299 C1295 1.429 . S
C1299 C1300 1.523 . S
C1300 C1284 1.368 . S
C1300 C1296 1.368 . S
C1300 C1299 1.523 . S
H1301 C1276 0.950 . S
H1302 C1278 0.950 . S
H1303 C1279 0.949 . S
H1304 C1281 0.950 . S
H1305 C1283 0.950 . S
C1306 C1307 1.349 . S
C1306 C1308 1.327 . S
C1306 H1331 0.950 . S
C1307 C1306 1.349 . S
C1307 C1323 1.349 . S
C1308 C1306 1.327 . S
C1308 C1327 1.429 . S
C1308 H1332 0.950 . S
C1309 C1326 1.574 . S
C1309 C1328 1.368 . S
C1309 H1333 0.949 . S
H1310 C1314 0.949 . S
C1311 C1312 1.349 . S
C1311 C1313 1.327 . S
C1311 H1334 0.950 . S
C1312 C1311 1.349 . S
C1312 C1324 1.349 . S
C1313 C1311 1.327 . S
C1313 C1329 1.429 . S
C1313 H1335 0.950 . S
C1314 H1310 0.949 . S
C1314 C1322 1.574 . S
C1314 C1330 1.368 . S
H1315 C1323 0.950 . S
H1316 C1321 0.950 . S
H1317 C1322 0.949 . S
H1318 C1324 0.950 . S
H1319 C1325 0.950 . S
H1320 C1326 0.949 . S
C1321 H1316 0.950 . S
C1321 C1323 1.327 . S
C1321 C1327 1.429 . S
C1322 C1314 1.574 . S
C1322 H1317 0.949 . S
C1322 C1328 1.368 . S
C1323 C1307 1.349 . S
C1323 H1315 0.950 . S
C1323 C1321 1.327 . S
C1324 C1312 1.349 . S
C1324 H1318 0.950 . S
C1324 C1325 1.327 . S
C1325 H1319 0.950 . S
C1325 C1324 1.327 . S
C1325 C1329 1.429 . S
C1326 C1309 1.574 . S
C1326 H1320 0.949 . S
C1326 C1330 1.368 . S
C1327 C1308 1.429 . S
C1327 C1321 1.429 . S
C1327 C1328 1.523 . S
C1328 C1309 1.368 . S
C1328 C1322 1.368 . S
C1328 C1327 1.523 . S
C1329 C1313 1.429 . S
C1329 C1325 1.429 . S
C1329 C1330 1.523 . S
C1330 C1314 1.368 . S
C1330 C1326 1.368 . S
C1330 C1329 1.523 . S
H1331 C1306 0.950 . S
H1332 C1308 0.950 . S
H1333 C1309 0.949 . S
H1334 C1311 0.950 . S
H1335 C1313 0.950 . S
C1336 C1337 1.349 . S
C1336 C1338 1.327 . S
C1336 H1361 0.950 . S
C1337 C1336 1.349 . S
C1337 C1353 1.349 . S
C1338 C1336 1.327 . S
C1338 C1357 1.429 . S
C1338 H1362 0.950 . S
C1339 C1356 1.574 . S
C1339 C1358 1.368 1_455 S
C1339 H1363 0.949 . S
H1340 C1344 0.949 . S
C1341 C1342 1.349 . S
C1341 C1343 1.327 . S
C1341 H1364 0.950 . S
C1342 C1341 1.349 . S
C1342 C1354 1.349 . S
C1343 C1341 1.327 . S
C1343 C1359 1.429 . S
C1343 H1365 0.950 . S
C1344 H1340 0.949 . S
C1344 C1352 1.574 . S
C1344 C1360 1.368 1_655 S
H1345 C1353 0.950 . S
H1346 C1351 0.950 . S
H1347 C1352 0.949 . S
H1348 C1354 0.950 . S
H1349 C1355 0.950 . S
H1350 C1356 0.949 . S
C1351 H1346 0.950 . S
C1351 C1353 1.327 . S
C1351 C1357 1.429 . S
C1352 C1344 1.574 . S
C1352 H1347 0.949 . S
C1352 C1358 1.368 . S
C1353 C1337 1.349 . S
C1353 H1345 0.950 . S
C1353 C1351 1.327 . S
C1354 C1342 1.349 . S
C1354 H1348 0.950 . S
C1354 C1355 1.327 . S
C1355 H1349 0.950 . S
C1355 C1354 1.327 . S
C1355 C1359 1.429 . S
C1356 C1339 1.574 . S
C1356 H1350 0.949 . S
C1356 C1360 1.368 . S
C1357 C1338 1.429 . S
C1357 C1351 1.429 . S
C1357 C1358 1.523 . S
C1358 C1339 1.368 1_655 S
C1358 C1352 1.368 . S
C1358 C1357 1.523 . S
C1359 C1343 1.429 . S
C1359 C1355 1.429 . S
C1359 C1360 1.523 . S
C1360 C1344 1.368 1_455 S
C1360 C1356 1.368 . S
C1360 C1359 1.523 . S
H1361 C1336 0.950 . S
H1362 C1338 0.950 . S
H1363 C1339 0.949 . S
H1364 C1341 0.950 . S
H1365 C1343 0.950 . S
C1366 C1367 1.349 . S
C1366 C1368 1.327 . S
C1366 H1391 0.950 . S
C1367 C1366 1.349 . S
C1367 C1383 1.349 . S
C1368 C1366 1.327 . S
C1368 C1387 1.429 . S
C1368 H1392 0.950 . S
C1369 C1386 1.574 . S
C1369 C1388 1.368 . S
C1369 H1393 0.949 . S
H1370 C1374 0.949 . S
C1371 C1372 1.349 . S
C1371 C1373 1.327 . S
C1371 H1394 0.950 . S
C1372 C1371 1.349 . S
C1372 C1384 1.349 . S
C1373 C1371 1.327 . S
C1373 C1389 1.429 . S
C1373 H1395 0.950 . S
C1374 H1370 0.949 . S
C1374 C1382 1.574 . S
C1374 C1390 1.368 . S
H1375 C1383 0.950 . S
H1376 C1381 0.950 . S
H1377 C1382 0.949 . S
H1378 C1384 0.950 . S
H1379 C1385 0.950 . S
H1380 C1386 0.949 . S
C1381 H1376 0.950 . S
C1381 C1383 1.327 . S
C1381 C1387 1.429 . S
C1382 C1374 1.574 . S
C1382 H1377 0.949 . S
C1382 C1388 1.368 . S
C1383 C1367 1.349 . S
C1383 H1375 0.950 . S
C1383 C1381 1.327 . S
C1384 C1372 1.349 . S
C1384 H1378 0.950 . S
C1384 C1385 1.327 . S
C1385 H1379 0.950 . S
C1385 C1384 1.327 . S
C1385 C1389 1.429 . S
C1386 C1369 1.574 . S
C1386 H1380 0.949 . S
C1386 C1390 1.368 . S
C1387 C1368 1.429 . S
C1387 C1381 1.429 . S
C1387 C1388 1.523 . S
C1388 C1369 1.368 . S
C1388 C1382 1.368 . S
C1388 C1387 1.523 . S
C1389 C1373 1.429 . S
C1389 C1385 1.429 . S
C1389 C1390 1.523 . S
C1390 C1374 1.368 . S
C1390 C1386 1.368 . S
C1390 C1389 1.523 . S
H1391 C1366 0.950 . S
H1392 C1368 0.950 . S
H1393 C1369 0.949 . S
H1394 C1371 0.950 . S
H1395 C1373 0.950 . S
C1396 C1397 1.349 . S
C1396 C1398 1.327 . S
C1396 H1421 0.950 . S
C1397 C1396 1.349 . S
C1397 C1413 1.349 . S
C1398 C1396 1.327 . S
C1398 C1417 1.429 . S
C1398 H1422 0.950 . S
C1399 C1416 1.574 . S
C1399 C1418 1.368 . S
C1399 H1423 0.949 . S
H1400 C1404 0.949 . S
C1401 C1402 1.349 . S
C1401 C1403 1.327 . S
C1401 H1424 0.950 . S
C1402 C1401 1.349 . S
C1402 C1414 1.349 . S
C1403 C1401 1.327 . S
C1403 C1419 1.429 . S
C1403 H1425 0.950 . S
C1404 H1400 0.949 . S
C1404 C1412 1.574 . S
C1404 C1420 1.368 . S
H1405 C1413 0.950 . S
H1406 C1411 0.950 . S
H1407 C1412 0.949 . S
H1408 C1414 0.950 . S
H1409 C1415 0.950 . S
H1410 C1416 0.949 . S
C1411 H1406 0.950 . S
C1411 C1413 1.327 . S
C1411 C1417 1.429 . S
C1412 C1404 1.574 . S
C1412 H1407 0.949 . S
C1412 C1418 1.368 . S
C1413 C1397 1.349 . S
C1413 H1405 0.950 . S
C1413 C1411 1.327 . S
C1414 C1402 1.349 . S
C1414 H1408 0.950 . S
C1414 C1415 1.327 . S
C1415 H1409 0.950 . S
C1415 C1414 1.327 . S
C1415 C1419 1.429 . S
C1416 C1399 1.574 . S
C1416 H1410 0.949 . S
C1416 C1420 1.368 . S
C1417 C1398 1.429 . S
C1417 C1411 1.429 . S
C1417 C1418 1.523 . S
C1418 C1399 1.368 . S
C1418 C1412 1.368 . S
C1418 C1417 1.523 . S
C1419 C1403 1.429 . S
C1419 C1415 1.429 . S
C1419 C1420 1.523 . S
C1420 C1404 1.368 . S
C1420 C1416 1.368 . S
C1420 C1419 1.523 . S
H1421 C1396 0.950 . S
H1422 C1398 0.950 . S
H1423 C1399 0.949 . S
H1424 C1401 0.950 . S
H1425 C1403 0.950 . S
C1426 C1427 1.349 . S
C1426 C1428 1.327 . S
C1426 H1451 0.950 . S
C1427 C1426 1.349 . S
C1427 C1443 1.349 . S
C1428 C1426 1.327 . S
C1428 C1447 1.429 . S
C1428 H1452 0.950 . S
C1429 C1446 1.574 . S
C1429 C1448 1.368 . S
C1429 H1453 0.949 . S
H1430 C1434 0.949 . S
C1431 C1432 1.349 . S
C1431 C1433 1.327 . S
C1431 H1454 0.950 . S
C1432 C1431 1.349 . S
C1432 C1444 1.349 . S
C1433 C1431 1.327 . S
C1433 C1449 1.429 . S
C1433 H1455 0.950 . S
C1434 H1430 0.949 . S
C1434 C1442 1.574 . S
C1434 C1450 1.368 . S
H1435 C1443 0.950 . S
H1436 C1441 0.950 . S
H1437 C1442 0.949 . S
H1438 C1444 0.950 . S
H1439 C1445 0.950 . S
H1440 C1446 0.949 . S
C1441 H1436 0.950 . S
C1441 C1443 1.327 . S
C1441 C1447 1.429 . S
C1442 C1434 1.574 . S
C1442 H1437 0.949 . S
C1442 C1448 1.368 . S
C1443 C1427 1.349 . S
C1443 H1435 0.950 . S
C1443 C1441 1.327 . S
C1444 C1432 1.349 . S
C1444 H1438 0.950 . S
C1444 C1445 1.327 . S
C1445 H1439 0.950 . S
C1445 C1444 1.327 . S
C1445 C1449 1.429 . S
C1446 C1429 1.574 . S
C1446 H1440 0.949 . S
C1446 C1450 1.368 . S
C1447 C1428 1.429 . S
C1447 C1441 1.429 . S
C1447 C1448 1.523 . S
C1448 C1429 1.368 . S
C1448 C1442 1.368 . S
C1448 C1447 1.523 . S
C1449 C1433 1.429 . S
C1449 C1445 1.429 . S
C1449 C1450 1.523 . S
C1450 C1434 1.368 . S
C1450 C1446 1.368 . S
C1450 C1449 1.523 . S
H1451 C1426 0.950 . S
H1452 C1428 0.950 . S
H1453 C1429 0.949 . S
H1454 C1431 0.950 . S
H1455 C1433 0.950 . S
C1456 C1457 1.349 1_556 S
C1456 C1458 1.327 1_556 S
C1456 H1481 0.950 . S
C1457 C1456 1.349 1_554 S
C1457 C1473 1.349 . S
C1458 C1456 1.327 1_554 S
C1458 C1477 1.429 . S
C1458 H1482 0.950 1_554 S
C1459 C1476 1.574 . S
C1459 C1478 1.368 . S
C1459 H1483 0.949 . S
H1460 C1464 0.949 . S
C1461 C1462 1.349 . S
C1461 C1463 1.327 1_545 S
C1461 H1484 0.950 . S
C1462 C1461 1.349 . S
C1462 C1474 1.349 . S
C1463 C1461 1.327 1_565 S
C1463 C1479 1.429 . S
C1463 H1485 0.950 . S
C1464 H1460 0.949 . S
C1464 C1472 1.574 . S
C1464 C1480 1.368 . S
H1465 C1473 0.950 . S
H1466 C1471 0.950 . S
H1467 C1472 0.949 1_556 S
H1468 C1474 0.950 . S
H1469 C1475 0.950 . S
H1470 C1476 0.949 . S
C1471 H1466 0.950 . S
C1471 C1473 1.327 . S
C1471 C1477 1.429 . S
C1472 C1464 1.574 . S
C1472 H1467 0.949 1_554 S
C1472 C1478 1.368 . S
C1473 C1457 1.349 . S
C1473 H1465 0.950 . S
C1473 C1471 1.327 . S
C1474 C1462 1.349 . S
C1474 H1468 0.950 . S
C1474 C1475 1.327 1_545 S
C1475 H1469 0.950 . S
C1475 C1474 1.327 1_565 S
C1475 C1479 1.429 . S
C1476 C1459 1.574 . S
C1476 H1470 0.949 . S
C1476 C1480 1.368 . S
C1477 C1458 1.429 . S
C1477 C1471 1.429 . S
C1477 C1478 1.523 . S
C1478 C1459 1.368 . S
C1478 C1472 1.368 . S
C1478 C1477 1.523 . S
C1479 C1463 1.429 . S
C1479 C1475 1.429 . S
C1479 C1480 1.523 . S
C1480 C1464 1.368 . S
C1480 C1476 1.368 . S
C1480 C1479 1.523 . S
H1481 C1456 0.950 . S
H1482 C1458 0.950 1_556 S
H1483 C1459 0.949 . S
H1484 C1461 0.950 . S
H1485 C1463 0.950 . S
C1486 C1487 1.349 . S
C1486 C1488 1.327 . S
C1486 H1511 0.950 . S
C1487 C1486 1.349 . S
C1487 C1503 1.349 1_554 S
C1488 C1486 1.327 . S
C1488 C1507 1.429 . S
C1488 H1512 0.950 . S
C1489 C1506 1.574 . S
C1489 C1508 1.368 1_556 S
C1489 H1513 0.949 . S
H1490 C1494 0.949 . S
C1491 C1492 1.349 1_556 S
C1491 C1493 1.327 . S
C1491 H1514 0.950 . S
C1492 C1491 1.349 1_554 S
C1492 C1504 1.349 . S
C1493 C1491 1.327 . S
C1493 C1509 1.429 1_556 S
C1493 H1515 0.950 . S
C1494 H1490 0.949 . S
C1494 C1502 1.574 . S
C1494 C1510 1.368 . S
H1495 C1503 0.950 . S
H1496 C1501 0.950 . S
H1497 C1502 0.949 . S
H1498 C1504 0.950 . S
H1499 C1505 0.950 . S
H1500 C1506 0.949 . S
C1501 H1496 0.950 . S
C1501 C1503 1.327 . S
C1501 C1507 1.429 1_556 S
C1502 C1494 1.574 . S
C1502 H1497 0.949 . S
C1502 C1508 1.368 . S
C1503 C1487 1.349 1_556 S
C1503 H1495 0.950 . S
C1503 C1501 1.327 . S
C1504 C1492 1.349 . S
C1504 H1498 0.950 . S
C1504 C1505 1.327 . S
C1505 H1499 0.950 . S
C1505 C1504 1.327 . S
C1505 C1509 1.429 . S
C1506 C1489 1.574 . S
C1506 H1500 0.949 . S
C1506 C1510 1.368 1_556 S
C1507 C1488 1.429 . S
C1507 C1501 1.429 1_554 S
C1507 C1508 1.523 . S
C1508 C1489 1.368 1_554 S
C1508 C1502 1.368 . S
C1508 C1507 1.523 . S
C1509 C1493 1.429 1_554 S
C1509 C1505 1.429 . S
C1509 C1510 1.523 . S
C1510 C1494 1.368 . S
C1510 C1506 1.368 1_554 S
C1510 C1509 1.523 . S
H1511 C1486 0.950 . S
H1512 C1488 0.950 . S
H1513 C1489 0.949 . S
H1514 C1491 0.950 . S
H1515 C1493 0.950 . S
C1516 C1517 1.349 . S
C1516 C1518 1.327 . S
C1516 H1541 0.950 . S
C1517 C1516 1.349 . S
C1517 C1533 1.349 . S
C1518 C1516 1.327 . S
C1518 C1537 1.429 . S
C1518 H1542 0.950 . S
C1519 C1536 1.574 . S
C1519 C1538 1.368 . S
C1519 H1543 0.949 . S
H1520 C1524 0.949 . S
C1521 C1522 1.349 . S
C1521 C1523 1.327 . S
C1521 H1544 0.950 . S
C1522 C1521 1.349 . S
C1522 C1534 1.349 . S
C1523 C1521 1.327 . S
C1523 C1539 1.429 . S
C1523 H1545 0.950 . S
C1524 H1520 0.949 . S
C1524 C1532 1.574 . S
C1524 C1540 1.368 . S
H1525 C1533 0.950 . S
H1526 C1531 0.950 . S
H1527 C1532 0.949 . S
H1528 C1534 0.950 . S
H1529 C1535 0.950 . S
H1530 C1536 0.949 . S
C1531 H1526 0.950 . S
C1531 C1533 1.327 . S
C1531 C1537 1.429 . S
C1532 C1524 1.574 . S
C1532 H1527 0.949 . S
C1532 C1538 1.368 . S
C1533 C1517 1.349 . S
C1533 H1525 0.950 . S
C1533 C1531 1.327 . S
C1534 C1522 1.349 . S
C1534 H1528 0.950 . S
C1534 C1535 1.327 . S
C1535 H1529 0.950 . S
C1535 C1534 1.327 . S
C1535 C1539 1.429 . S
C1536 C1519 1.574 . S
C1536 H1530 0.949 . S
C1536 C1540 1.368 . S
C1537 C1518 1.429 . S
C1537 C1531 1.429 . S
C1537 C1538 1.523 . S
C1538 C1519 1.368 . S
C1538 C1532 1.368 . S
C1538 C1537 1.523 . S
C1539 C1523 1.429 . S
C1539 C1535 1.429 . S
C1539 C1540 1.523 . S
C1540 C1524 1.368 . S
C1540 C1536 1.368 . S
C1540 C1539 1.523 . S
H1541 C1516 0.950 . S
H1542 C1518 0.950 . S
H1543 C1519 0.949 . S
H1544 C1521 0.950 . S
H1545 C1523 0.950 . S
C1546 C1547 1.349 . S
C1546 C1548 1.327 . S
C1546 H1571 0.950 . S
C1547 C1546 1.349 . S
C1547 C1563 1.349 . S
C1548 C1546 1.327 . S
C1548 C1567 1.429 . S
C1548 H1572 0.950 . S
C1549 C1566 1.574 . S
C1549 C1568 1.368 . S
C1549 H1573 0.949 . S
H1550 C1554 0.949 . S
C1551 C1552 1.349 . S
C1551 C1553 1.327 . S
C1551 H1574 0.950 . S
C1552 C1551 1.349 . S
C1552 C1564 1.349 . S
C1553 C1551 1.327 . S
C1553 C1569 1.429 . S
C1553 H1575 0.950 . S
C1554 H1550 0.949 . S
C1554 C1562 1.574 . S
C1554 C1570 1.368 . S
H1555 C1563 0.950 . S
H1556 C1561 0.950 . S
H1557 C1562 0.949 . S
H1558 C1564 0.920 1_455 S
H1559 C1565 0.950 . S
H1560 C1566 0.949 . S
C1561 H1556 0.950 . S
C1561 C1563 1.327 . S
C1561 C1567 1.429 . S
C1562 C1554 1.574 . S
C1562 H1557 0.949 . S
C1562 C1568 1.368 . S
C1563 C1547 1.349 . S
C1563 H1555 0.950 . S
C1563 C1561 1.327 . S
C1564 C1552 1.349 . S
C1564 H1558 0.920 1_655 S
C1564 C1565 1.327 . S
C1565 H1559 0.950 . S
C1565 C1564 1.327 . S
C1565 C1569 1.429 . S
C1566 C1549 1.574 . S
C1566 H1560 0.949 . S
C1566 C1570 1.368 . S
C1567 C1548 1.429 . S
C1567 C1561 1.429 . S
C1567 C1568 1.523 . S
C1568 C1549 1.368 . S
C1568 C1562 1.368 . S
C1568 C1567 1.523 . S
C1569 C1553 1.429 . S
C1569 C1565 1.429 . S
C1569 C1570 1.523 . S
C1570 C1554 1.368 . S
C1570 C1566 1.368 . S
C1570 C1569 1.523 . S
H1571 C1546 0.950 . S
H1572 C1548 0.950 . S
H1573 C1549 0.949 . S
H1574 C1551 0.950 . S
H1575 C1553 0.950 . S
C1576 C1577 1.349 . S
C1576 C1578 1.327 . S
C1576 H1601 0.950 . S
C1577 C1576 1.349 . S
C1577 C1593 1.349 . S
C1578 C1576 1.327 . S
C1578 C1597 1.429 . S
C1578 H1602 0.950 . S
C1579 C1596 1.574 . S
C1579 C1598 1.368 . S
C1579 H1603 0.949 . S
H1580 C1584 0.949 . S
C1581 C1582 1.349 . S
C1581 C1583 1.327 . S
C1581 H1604 0.950 . S
C1582 C1581 1.349 . S
C1582 C1594 1.349 . S
C1583 C1581 1.327 . S
C1583 C1599 1.429 . S
C1583 H1605 0.950 . S
C1584 H1580 0.949 . S
C1584 C1592 1.574 . S
C1584 C1600 1.368 . S
H1585 C1593 0.950 . S
H1586 C1591 0.950 . S
H1587 C1592 0.949 . S
H1588 C1594 0.950 . S
H1589 C1595 0.950 . S
H1590 C1596 0.949 . S
C1591 H1586 0.950 . S
C1591 C1593 1.327 . S
C1591 C1597 1.429 . S
C1592 C1584 1.574 . S
C1592 H1587 0.949 . S
C1592 C1598 1.368 . S
C1593 C1577 1.349 . S
C1593 H1585 0.950 . S
C1593 C1591 1.327 . S
C1594 C1582 1.349 . S
C1594 H1588 0.950 . S
C1594 C1595 1.327 . S
C1595 H1589 0.950 . S
C1595 C1594 1.327 . S
C1595 C1599 1.429 . S
C1596 C1579 1.574 . S
C1596 H1590 0.949 . S
C1596 C1600 1.368 . S
C1597 C1578 1.429 . S
C1597 C1591 1.429 . S
C1597 C1598 1.523 . S
C1598 C1579 1.368 . S
C1598 C1592 1.368 . S
C1598 C1597 1.523 . S
C1599 C1583 1.429 . S
C1599 C1595 1.429 . S
C1599 C1600 1.523 . S
C1600 C1584 1.368 . S
C1600 C1596 1.368 . S
C1600 C1599 1.523 . S
H1601 C1576 0.950 . S
H1602 C1578 0.950 . S
H1603 C1579 0.949 . S
H1604 C1581 0.950 . S
H1605 C1583 0.950 . S
C1606 C1607 1.349 . S
C1606 C1608 1.327 . S
C1606 H1631 0.950 . S
C1607 C1606 1.349 . S
C1607 C1623 1.349 . S
C1608 C1606 1.327 . S
C1608 C1627 1.429 . S
C1608 H1632 0.950 . S
C1609 C1626 1.574 . S
C1609 C1628 1.368 . S
C1609 H1633 0.949 . S
H1610 C1614 0.949 . S
C1611 C1612 1.349 . S
C1611 C1613 1.327 . S
C1611 H1634 0.950 . S
C1612 C1611 1.349 . S
C1612 C1624 1.349 . S
C1613 C1611 1.327 . S
C1613 C1629 1.429 . S
C1613 H1635 0.950 . S
C1614 H1610 0.949 . S
C1614 C1622 1.574 . S
C1614 C1630 1.368 . S
H1615 C1623 0.950 . S
H1616 C1621 0.950 . S
H1617 C1622 0.949 . S
H1618 C1624 0.950 . S
H1619 C1625 0.950 . S
H1620 C1626 0.949 . S
C1621 H1616 0.950 . S
C1621 C1623 1.327 . S
C1621 C1627 1.429 . S
C1622 C1614 1.574 . S
C1622 H1617 0.949 . S
C1622 C1628 1.368 . S
C1623 C1607 1.349 . S
C1623 H1615 0.950 . S
C1623 C1621 1.327 . S
C1624 C1612 1.349 . S
C1624 H1618 0.950 . S
C1624 C1625 1.327 . S
C1625 H1619 0.950 . S
C1625 C1624 1.327 . S
C1625 C1629 1.429 . S
C1626 C1609 1.574 . S
C1626 H1620 0.949 . S
C1626 C1630 1.368 . S
C1627 C1608 1.429 . S
C1627 C1621 1.429 . S
C1627 C1628 1.523 . S
C1628 C1609 1.368 . S
C1628 C1622 1.368 . S
C1628 C1627 1.523 . S
C1629 C1613 1.429 . S
C1629 C1625 1.429 . S
C1629 C1630 1.523 . S
C1630 C1614 1.368 . S
C1630 C1626 1.368 . S
C1630 C1629 1.523 . S
H1631 C1606 0.950 . S
H1632 C1608 0.950 . S
H1633 C1609 0.949 . S
H1634 C1611 0.950 . S
H1635 C1613 0.950 . S
C1636 C1637 1.349 . S
C1636 C1638 1.327 . S
C1636 H1661 0.950 . S
C1637 C1636 1.349 . S
C1637 C1653 1.349 . S
C1638 C1636 1.327 . S
C1638 C1657 1.429 . S
C1638 H1662 0.950 . S
C1639 C1656 1.574 . S
C1639 C1658 1.368 . S
C1639 H1663 0.949 . S
H1640 C1644 0.949 . S
C1641 C1642 1.349 . S
C1641 C1643 1.327 . S
C1641 H1664 0.950 . S
C1642 C1641 1.349 . S
C1642 C1654 1.349 . S
C1643 C1641 1.327 . S
C1643 C1659 1.429 . S
C1643 H1665 0.950 . S
C1644 H1640 0.949 . S
C1644 C1652 1.574 . S
C1644 C1660 1.368 . S
H1645 C1653 0.950 . S
H1646 C1651 0.950 . S
H1647 C1652 0.949 . S
H1648 C1654 0.950 . S
H1649 C1655 0.950 . S
H1650 C1656 0.949 . S
C1651 H1646 0.950 . S
C1651 C1653 1.327 . S
C1651 C1657 1.429 . S
C1652 C1644 1.574 . S
C1652 H1647 0.949 . S
C1652 C1658 1.368 . S
C1653 C1637 1.349 . S
C1653 H1645 0.950 . S
C1653 C1651 1.327 . S
C1654 C1642 1.349 . S
C1654 H1648 0.950 . S
C1654 C1655 1.327 . S
C1655 H1649 0.950 . S
C1655 C1654 1.327 . S
C1655 C1659 1.429 . S
C1656 C1639 1.574 . S
C1656 H1650 0.949 . S
C1656 C1660 1.368 . S
C1657 C1638 1.429 . S
C1657 C1651 1.429 . S
C1657 C1658 1.523 . S
C1658 C1639 1.368 . S
C1658 C1652 1.368 . S
C1658 C1657 1.523 . S
C1659 C1643 1.429 . S
C1659 C1655 1.429 . S
C1659 C1660 1.523 . S
C1660 C1644 1.368 . S
C1660 C1656 1.368 . S
C1660 C1659 1.523 . S
H1661 C1636 0.950 . S
H1662 C1638 0.950 . S
H1663 C1639 0.949 . S
H1664 C1641 0.950 . S
H1665 C1643 0.950 . S
C1666 C1667 1.349 . S
C1666 C1668 1.327 . S
C1666 H1691 0.950 . S
C1667 C1666 1.349 . S
C1667 C1683 1.349 . S
C1668 C1666 1.327 . S
C1668 C1687 1.429 . S
C1668 H1692 0.950 . S
C1669 C1686 1.574 . S
C1669 C1688 1.368 . S
C1669 H1693 0.949 . S
H1670 C1674 0.949 . S
C1671 C1672 1.349 . S
C1671 C1673 1.327 . S
C1671 H1694 0.950 . S
C1672 C1671 1.349 . S
C1672 C1684 1.349 . S
C1673 C1671 1.327 . S
C1673 C1689 1.429 . S
C1673 H1695 0.950 . S
C1674 H1670 0.949 . S
C1674 C1682 1.574 . S
C1674 C1690 1.368 . S
H1675 C1683 0.950 . S
H1676 C1681 0.950 . S
H1677 C1682 0.949 . S
H1678 C1684 0.950 . S
H1679 C1685 0.950 . S
H1680 C1686 0.949 . S
C1681 H1676 0.950 . S
C1681 C1683 1.327 . S
C1681 C1687 1.429 . S
C1682 C1674 1.574 . S
C1682 H1677 0.949 . S
C1682 C1688 1.368 . S
C1683 C1667 1.349 . S
C1683 H1675 0.950 . S
C1683 C1681 1.327 . S
C1684 C1672 1.349 . S
C1684 H1678 0.950 . S
C1684 C1685 1.327 . S
C1685 H1679 0.950 . S
C1685 C1684 1.327 . S
C1685 C1689 1.429 . S
C1686 C1669 1.574 . S
C1686 H1680 0.949 . S
C1686 C1690 1.368 . S
C1687 C1668 1.429 . S
C1687 C1681 1.429 . S
C1687 C1688 1.523 . S
C1688 C1669 1.368 . S
C1688 C1682 1.368 . S
C1688 C1687 1.523 . S
C1689 C1673 1.429 . S
C1689 C1685 1.429 . S
C1689 C1690 1.523 . S
C1690 C1674 1.368 . S
C1690 C1686 1.368 . S
C1690 C1689 1.523 . S
H1691 C1666 0.950 . S
H1692 C1668 0.950 . S
H1693 C1669 0.949 . S
H1694 C1671 0.950 . S
H1695 C1673 0.950 . S
C1696 C1697 1.349 . S
C1696 C1698 1.327 . S
C1696 H1721 0.950 . S
C1697 C1696 1.349 . S
C1697 C1713 1.349 . S
C1698 C1696 1.327 . S
C1698 C1717 1.429 . S
C1698 H1722 0.950 . S
C1699 C1716 1.574 . S
C1699 C1718 1.368 . S
C1699 H1723 0.949 . S
H1700 C1704 0.949 . S
C1701 C1702 1.349 . S
C1701 C1703 1.327 . S
C1701 H1724 0.950 . S
C1702 C1701 1.349 . S
C1702 C1714 1.349 . S
C1703 C1701 1.327 . S
C1703 C1719 1.429 . S
C1703 H1725 0.950 . S
C1704 H1700 0.949 . S
C1704 C1712 1.574 . S
C1704 C1720 1.368 . S
H1705 C1713 0.950 . S
H1706 C1711 0.950 . S
H1707 C1712 0.949 . S
H1708 C1714 0.950 . S
H1709 C1715 0.950 . S
H1710 C1716 0.949 . S
C1711 H1706 0.950 . S
C1711 C1713 1.327 . S
C1711 C1717 1.429 . S
C1712 C1704 1.574 . S
C1712 H1707 0.949 . S
C1712 C1718 1.368 . S
C1713 C1697 1.349 . S
C1713 H1705 0.950 . S
C1713 C1711 1.327 . S
C1714 C1702 1.349 . S
C1714 H1708 0.950 . S
C1714 C1715 1.327 . S
C1715 H1709 0.950 . S
C1715 C1714 1.327 . S
C1715 C1719 1.429 . S
C1716 C1699 1.574 . S
C1716 H1710 0.949 . S
C1716 C1720 1.368 . S
C1717 C1698 1.429 . S
C1717 C1711 1.429 . S
C1717 C1718 1.523 . S
C1718 C1699 1.368 . S
C1718 C1712 1.368 . S
C1718 C1717 1.523 . S
C1719 C1703 1.429 . S
C1719 C1715 1.429 . S
C1719 C1720 1.523 . S
C1720 C1704 1.368 . S
C1720 C1716 1.368 . S
C1720 C1719 1.523 . S
H1721 C1696 0.950 . S
H1722 C1698 0.950 . S
H1723 C1699 0.949 . S
H1724 C1701 0.950 . S
H1725 C1703 0.950 . S
C1726 C1727 1.349 . S
C1726 C1728 1.327 . S
C1726 H1751 0.950 . S
C1727 C1726 1.349 . S
C1727 C1743 1.349 . S
C1728 C1726 1.327 . S
C1728 C1747 1.429 . S
C1728 H1752 0.950 . S
C1729 C1746 1.574 . S
C1729 C1748 1.368 . S
C1729 H1753 0.949 . S
H1730 C1734 0.949 . S
C1731 C1732 1.349 . S
C1731 C1733 1.327 . S
C1731 H1754 0.950 . S
C1732 C1731 1.349 . S
C1732 C1744 1.349 . S
C1733 C1731 1.327 . S
C1733 C1749 1.429 . S
C1733 H1755 0.950 . S
C1734 H1730 0.949 . S
C1734 C1742 1.574 . S
C1734 C1750 1.368 . S
H1735 C1743 0.950 . S
H1736 C1741 0.950 . S
H1737 C1742 0.949 . S
H1738 C1744 0.950 . S
H1739 C1745 0.950 . S
H1740 C1746 0.949 . S
C1741 H1736 0.950 . S
C1741 C1743 1.327 . S
C1741 C1747 1.429 . S
C1742 C1734 1.574 . S
C1742 H1737 0.949 . S
C1742 C1748 1.368 . S
C1743 C1727 1.349 . S
C1743 H1735 0.950 . S
C1743 C1741 1.327 . S
C1744 C1732 1.349 . S
C1744 H1738 0.950 . S
C1744 C1745 1.327 . S
C1745 H1739 0.950 . S
C1745 C1744 1.327 . S
C1745 C1749 1.429 . S
C1746 C1729 1.574 . S
C1746 H1740 0.949 . S
C1746 C1750 1.368 . S
C1747 C1728 1.429 . S
C1747 C1741 1.429 . S
C1747 C1748 1.523 . S
C1748 C1729 1.368 . S
C1748 C1742 1.368 . S
C1748 C1747 1.523 . S
C1749 C1733 1.429 . S
C1749 C1745 1.429 . S
C1749 C1750 1.523 . S
C1750 C1734 1.368 . S
C1750 C1746 1.368 . S
C1750 C1749 1.523 . S
H1751 C1726 0.950 . S
H1752 C1728 0.950 . S
H1753 C1729 0.949 . S
H1754 C1731 0.950 . S
H1755 C1733 0.950 . S
C1756 C1757 1.349 . S
C1756 C1758 1.327 . S
C1756 H1781 0.950 . S
C1757 C1756 1.349 . S
C1757 C1773 1.349 . S
C1758 C1756 1.327 . S
C1758 C1777 1.429 . S
C1758 H1782 0.950 . S
C1759 C1776 1.574 . S
C1759 C1778 1.368 . S
C1759 H1783 0.949 . S
H1760 C1764 0.949 . S
C1761 C1762 1.349 . S
C1761 C1763 1.327 . S
C1761 H1784 0.950 . S
C1762 C1761 1.349 . S
C1762 C1774 1.349 . S
C1763 C1761 1.327 . S
C1763 C1779 1.429 . S
C1763 H1785 0.950 . S
C1764 H1760 0.949 . S
C1764 C1772 1.574 . S
C1764 C1780 1.368 . S
H1765 C1773 0.950 . S
H1766 C1771 0.950 . S
H1767 C1772 0.949 . S
H1768 C1774 0.950 . S
H1769 C1775 0.950 . S
H1770 C1776 0.949 . S
C1771 H1766 0.950 . S
C1771 C1773 1.327 . S
C1771 C1777 1.429 . S
C1772 C1764 1.574 . S
C1772 H1767 0.949 . S
C1772 C1778 1.368 . S
C1773 C1757 1.349 . S
C1773 H1765 0.950 . S
C1773 C1771 1.327 . S
C1774 C1762 1.349 . S
C1774 H1768 0.950 . S
C1774 C1775 1.327 . S
C1775 H1769 0.950 . S
C1775 C1774 1.327 . S
C1775 C1779 1.429 . S
C1776 C1759 1.574 . S
C1776 H1770 0.949 . S
C1776 C1780 1.368 . S
C1777 C1758 1.429 . S
C1777 C1771 1.429 . S
C1777 C1778 1.523 . S
C1778 C1759 1.368 . S
C1778 C1772 1.368 . S
C1778 C1777 1.523 . S
C1779 C1763 1.429 . S
C1779 C1775 1.429 . S
C1779 C1780 1.523 . S
C1780 C1764 1.368 . S
C1780 C1776 1.368 . S
C1780 C1779 1.523 . S
H1781 C1756 0.950 . S
H1782 C1758 0.950 . S
H1783 C1759 0.949 . S
H1784 C1761 0.950 . S
H1785 C1763 0.950 . S
C1786 C1787 1.349 . S
C1786 C1788 1.327 . S
C1786 H1811 0.950 . S
C1787 C1786 1.349 . S
C1787 C1803 1.349 . S
C1788 C1786 1.327 . S
C1788 C1807 1.429 . S
C1788 H1812 0.950 . S
C1789 C1806 1.574 . S
C1789 C1808 1.368 . S
C1789 H1813 0.949 . S
H1790 C1794 0.949 . S
C1791 C1792 1.349 . S
C1791 C1793 1.327 . S
C1791 H1814 0.950 . S
C1792 C1791 1.349 . S
C1792 C1804 1.349 . S
C1793 C1791 1.327 . S
C1793 C1809 1.429 . S
C1793 H1815 0.950 . S
C1794 H1790 0.949 . S
C1794 C1802 1.574 . S
C1794 C1810 1.368 . S
H1795 C1803 0.950 . S
H1796 C1801 0.950 . S
H1797 C1802 0.949 . S
H1798 C1804 0.950 . S
H1799 C1805 0.950 . S
H1800 C1806 0.949 . S
C1801 H1796 0.950 . S
C1801 C1803 1.327 . S
C1801 C1807 1.429 . S
C1802 C1794 1.574 . S
C1802 H1797 0.949 . S
C1802 C1808 1.368 . S
C1803 C1787 1.349 . S
C1803 H1795 0.950 . S
C1803 C1801 1.327 . S
C1804 C1792 1.349 . S
C1804 H1798 0.950 . S
C1804 C1805 1.327 . S
C1805 H1799 0.950 . S
C1805 C1804 1.327 . S
C1805 C1809 1.429 . S
C1806 C1789 1.574 . S
C1806 H1800 0.949 . S
C1806 C1810 1.368 . S
C1807 C1788 1.429 . S
C1807 C1801 1.429 . S
C1807 C1808 1.523 . S
C1808 C1789 1.368 . S
C1808 C1802 1.368 . S
C1808 C1807 1.523 . S
C1809 C1793 1.429 . S
C1809 C1805 1.429 . S
C1809 C1810 1.523 . S
C1810 C1794 1.368 . S
C1810 C1806 1.368 . S
C1810 C1809 1.523 . S
H1811 C1786 0.950 . S
H1812 C1788 0.950 . S
H1813 C1789 0.949 . S
H1814 C1791 0.950 . S
H1815 C1793 0.950 . S
C1816 C1817 1.349 . S
C1816 C1818 1.327 . S
C1816 H1841 0.950 . S
C1817 C1816 1.349 . S
C1817 C1833 1.349 . S
C1818 C1816 1.327 . S
C1818 C1837 1.429 . S
C1818 H1842 0.950 . S
C1819 C1836 1.574 . S
C1819 C1838 1.368 . S
C1819 H1843 0.949 . S
H1820 C1824 0.949 . S
C1821 C1822 1.349 . S
C1821 C1823 1.327 . S
C1821 H1844 0.950 . S
C1822 C1821 1.349 . S
C1822 C1834 1.349 . S
C1823 C1821 1.327 . S
C1823 C1839 1.429 . S
C1823 H1845 0.950 . S
C1824 H1820 0.949 . S
C1824 C1832 1.574 . S
C1824 C1840 1.368 . S
H1825 C1833 0.950 . S
H1826 C1831 0.950 . S
H1827 C1832 0.949 . S
H1828 C1834 0.950 . S
H1829 C1835 0.950 . S
H1830 C1836 0.949 . S
C1831 H1826 0.950 . S
C1831 C1833 1.327 . S
C1831 C1837 1.429 . S
C1832 C1824 1.574 . S
C1832 H1827 0.949 . S
C1832 C1838 1.368 . S
C1833 C1817 1.349 . S
C1833 H1825 0.950 . S
C1833 C1831 1.327 . S
C1834 C1822 1.349 . S
C1834 H1828 0.950 . S
C1834 C1835 1.327 . S
C1835 H1829 0.950 . S
C1835 C1834 1.327 . S
C1835 C1839 1.429 . S
C1836 C1819 1.574 . S
C1836 H1830 0.949 . S
C1836 C1840 1.368 . S
C1837 C1818 1.429 . S
C1837 C1831 1.429 . S
C1837 C1838 1.523 . S
C1838 C1819 1.368 . S
C1838 C1832 1.368 . S
C1838 C1837 1.523 . S
C1839 C1823 1.429 . S
C1839 C1835 1.429 . S
C1839 C1840 1.523 . S
C1840 C1824 1.368 . S
C1840 C1836 1.368 . S
C1840 C1839 1.523 . S
H1841 C1816 0.950 . S
H1842 C1818 0.950 . S
H1843 C1819 0.949 . S
H1844 C1821 0.950 . S
H1845 C1823 0.950 . S
C1846 C1847 1.349 . S
C1846 C1848 1.327 . S
C1846 H1871 0.950 . S
C1847 C1846 1.349 . S
C1847 C1863 1.349 . S
C1848 C1846 1.327 . S
C1848 C1867 1.429 . S
C1848 H1872 0.950 . S
C1849 C1866 1.574 . S
C1849 C1868 1.368 . S
C1849 H1873 0.949 . S
H1850 C1854 0.949 . S
C1851 C1852 1.349 . S
C1851 C1853 1.327 . S
C1851 H1874 0.950 . S
C1852 C1851 1.349 . S
C1852 C1864 1.349 . S
C1853 C1851 1.327 . S
C1853 C1869 1.429 . S
C1853 H1875 0.950 . S
C1854 H1850 0.949 . S
C1854 C1862 1.574 . S
C1854 C1870 1.368 . S
H1855 C1863 0.950 . S
H1856 C1861 0.950 . S
H1857 C1862 0.949 . S
H1858 C1864 0.950 . S
H1859 C1865 0.950 . S
H1860 C1866 0.949 . S
C1861 H1856 0.950 . S
C1861 C1863 1.327 . S
C1861 C1867 1.429 . S
C1862 C1854 1.574 . S
C1862 H1857 0.949 . S
C1862 C1868 1.368 . S
C1863 C1847 1.349 . S
C1863 H1855 0.950 . S
C1863 C1861 1.327 . S
C1864 C1852 1.349 . S
C1864 H1858 0.950 . S
C1864 C1865 1.327 . S
C1865 H1859 0.950 . S
C1865 C1864 1.327 . S
C1865 C1869 1.429 . S
C1866 C1849 1.574 . S
C1866 H1860 0.949 . S
C1866 C1870 1.368 . S
C1867 C1848 1.429 . S
C1867 C1861 1.429 . S
C1867 C1868 1.523 . S
C1868 C1849 1.368 . S
C1868 C1862 1.368 . S
C1868 C1867 1.523 . S
C1869 C1853 1.429 . S
C1869 C1865 1.429 . S
C1869 C1870 1.523 . S
C1870 C1854 1.368 . S
C1870 C1866 1.368 . S
C1870 C1869 1.523 . S
H1871 C1846 0.950 . S
H1872 C1848 0.950 . S
H1873 C1849 0.949 . S
H1874 C1851 0.950 . S
H1875 C1853 0.950 . S
C1876 C1877 1.349 . S
C1876 C1878 1.327 . S
C1876 H1901 0.950 . S
C1877 C1876 1.349 . S
C1877 C1893 1.349 . S
C1878 C1876 1.327 . S
C1878 C1897 1.429 . S
C1878 H1902 0.950 . S
C1879 C1896 1.574 . S
C1879 C1898 1.368 . S
C1879 H1903 0.949 . S
H1880 C1884 0.949 . S
C1881 C1882 1.349 1_554 S
C1881 C1883 1.327 1_554 S
C1881 H1904 0.950 . S
C1882 C1881 1.349 1_556 S
C1882 C1894 1.349 . S
C1883 C1881 1.327 1_556 S
C1883 C1899 1.429 . S
C1883 H1905 0.968 . S
C1884 H1880 0.949 . S
C1884 C1892 1.574 . S
C1884 C1900 1.368 . S
H1885 C1893 0.950 . S
H1886 C1891 0.950 . S
H1887 C1892 0.949 . S
H1888 C1894 0.950 . S
H1889 C1895 0.950 . S
H1890 C1896 0.949 . S
C1891 H1886 0.950 . S
C1891 C1893 1.327 . S
C1891 C1897 1.429 . S
C1892 C1884 1.574 . S
C1892 H1887 0.949 . S
C1892 C1898 1.368 . S
C1893 C1877 1.349 . S
C1893 H1885 0.950 . S
C1893 C1891 1.327 . S
C1894 C1882 1.349 . S
C1894 H1888 0.950 . S
C1894 C1895 1.327 . S
C1895 H1889 0.950 . S
C1895 C1894 1.327 . S
C1895 C1899 1.429 . S
C1896 C1879 1.574 . S
C1896 H1890 0.949 . S
C1896 C1900 1.368 . S
C1897 C1878 1.429 . S
C1897 C1891 1.429 . S
C1897 C1898 1.523 . S
C1898 C1879 1.368 . S
C1898 C1892 1.368 . S
C1898 C1897 1.523 . S
C1899 C1883 1.429 . S
C1899 C1895 1.429 . S
C1899 C1900 1.523 . S
C1900 C1884 1.368 . S
C1900 C1896 1.368 . S
C1900 C1899 1.523 . S
H1901 C1876 0.950 . S
H1902 C1878 0.950 . S
H1903 C1879 0.949 . S
H1904 C1881 0.950 . S
H1905 C1883 0.968 . S
C1906 C1907 1.349 . S
C1906 C1908 1.327 . S
C1906 H1931 0.950 . S
C1907 C1906 1.349 . S
C1907 C1923 1.349 . S
C1908 C1906 1.327 . S
C1908 C1927 1.429 . S
C1908 H1932 0.950 . S
C1909 C1926 1.574 . S
C1909 C1928 1.368 . S
C1909 H1933 0.949 . S
H1910 C1914 0.949 . S
C1911 C1912 1.349 . S
C1911 C1913 1.327 . S
C1911 H1934 0.950 . S
C1912 C1911 1.349 . S
C1912 C1924 1.349 . S
C1913 C1911 1.327 . S
C1913 C1929 1.429 . S
C1913 H1935 0.950 . S
C1914 H1910 0.949 . S
C1914 C1922 1.574 . S
C1914 C1930 1.368 . S
H1915 C1923 0.950 . S
H1916 C1921 0.950 . S
H1917 C1922 0.949 . S
H1918 C1924 0.950 . S
H1919 C1925 0.950 . S
H1920 C1926 0.949 . S
C1921 H1916 0.950 . S
C1921 C1923 1.327 . S
C1921 C1927 1.429 . S
C1922 C1914 1.574 . S
C1922 H1917 0.949 . S
C1922 C1928 1.368 . S
C1923 C1907 1.349 . S
C1923 H1915 0.950 . S
C1923 C1921 1.327 . S
C1924 C1912 1.349 . S
C1924 H1918 0.950 . S
C1924 C1925 1.327 . S
C1925 H1919 0.950 . S
C1925 C1924 1.327 . S
C1925 C1929 1.429 . S
C1926 C1909 1.574 . S
C1926 H1920 0.949 . S
C1926 C1930 1.368 . S
C1927 C1908 1.429 . S
C1927 C1921 1.429 . S
C1927 C1928 1.523 . S
C1928 C1909 1.368 . S
C1928 C1922 1.368 . S
C1928 C1927 1.523 . S
C1929 C1913 1.429 . S
C1929 C1925 1.429 . S
C1929 C1930 1.523 . S
C1930 C1914 1.368 . S
C1930 C1926 1.368 . S
C1930 C1929 1.523 . S
H1931 C1906 0.950 . S
H1932 C1908 0.950 . S
H1933 C1909 0.949 . S
H1934 C1911 0.950 . S
H1935 C1913 0.950 . S
C1936 C1937 1.349 1_565 S
C1936 C1938 1.327 . S
C1936 H1961 0.950 . S
C1937 C1936 1.349 1_545 S
C1937 C1953 1.349 . S
C1938 C1936 1.327 . S
C1938 C1957 1.429 1_565 S
C1938 H1962 0.950 . S
C1939 C1956 1.574 . S
C1939 C1958 1.368 . S
C1939 H1963 0.949 . S
H1940 C1944 0.949 1_565 S
C1941 C1942 1.349 . S
C1941 C1943 1.327 . S
C1941 H1964 0.950 . S
C1942 C1941 1.349 . S
C1942 C1954 1.349 . S
C1943 C1941 1.327 . S
C1943 C1959 1.429 . S
C1943 H1965 0.950 . S
C1944 H1940 0.949 1_545 S
C1944 C1952 1.573 1_545 S
C1944 C1960 1.368 . S
H1945 C1953 0.950 . S
H1946 C1951 0.950 . S
H1947 C1952 0.951 . S
H1948 C1954 0.950 1_565 S
H1949 C1955 0.950 1_565 S
H1950 C1956 0.949 . S
C1951 H1946 0.950 . S
C1951 C1953 1.327 . S
C1951 C1957 1.429 . S
C1952 C1944 1.573 1_565 S
C1952 H1947 0.951 . S
C1952 C1958 1.366 1_565 S
C1953 C1937 1.349 . S
C1953 H1945 0.950 . S
C1953 C1951 1.327 . S
C1954 C1942 1.349 . S
C1954 H1948 0.950 1_545 S
C1954 C1955 1.327 . S
C1955 H1949 0.950 1_545 S
C1955 C1954 1.327 . S
C1955 C1959 1.429 . S
C1956 C1939 1.574 . S
C1956 H1950 0.949 . S
C1956 C1960 1.368 . S
C1957 C1938 1.429 1_545 S
C1957 C1951 1.429 . S
C1957 C1958 1.523 . S
C1958 C1939 1.368 . S
C1958 C1952 1.366 1_545 S
C1958 C1957 1.523 . S
C1959 C1943 1.429 . S
C1959 C1955 1.429 . S
C1959 C1960 1.523 . S
C1960 C1944 1.368 . S
C1960 C1956 1.368 . S
C1960 C1959 1.523 . S
H1961 C1936 0.950 . S
H1962 C1938 0.950 . S
H1963 C1939 0.949 . S
H1964 C1941 0.950 . S
H1965 C1943 0.950 . S
C1966 C1967 1.349 . S
C1966 C1968 1.327 . S
C1966 H1991 0.950 . S
C1967 C1966 1.349 . S
C1967 C1983 1.349 . S
C1968 C1966 1.327 . S
C1968 C1987 1.429 . S
C1968 H1992 0.950 . S
C1969 C1986 1.574 . S
C1969 C1988 1.368 . S
C1969 H1993 0.949 . S
H1970 C1974 0.949 . S
C1971 C1972 1.349 . S
C1971 C1973 1.327 . S
C1971 H1994 0.950 . S
C1972 C1971 1.349 . S
C1972 C1984 1.349 . S
C1973 C1971 1.327 . S
C1973 C1989 1.429 . S
C1973 H1995 0.950 . S
C1974 H1970 0.949 . S
C1974 C1982 1.574 . S
C1974 C1990 1.368 . S
H1975 C1983 0.950 . S
H1976 C1981 0.950 . S
H1977 C1982 0.949 . S
H1978 C1984 0.950 . S
H1979 C1985 0.950 . S
H1980 C1986 0.949 . S
C1981 H1976 0.950 . S
C1981 C1983 1.327 . S
C1981 C1987 1.429 . S
C1982 C1974 1.574 . S
C1982 H1977 0.949 . S
C1982 C1988 1.368 . S
C1983 C1967 1.349 . S
C1983 H1975 0.950 . S
C1983 C1981 1.327 . S
C1984 C1972 1.349 . S
C1984 H1978 0.950 . S
C1984 C1985 1.327 . S
C1985 H1979 0.950 . S
C1985 C1984 1.327 . S
C1985 C1989 1.429 . S
C1986 C1969 1.574 . S
C1986 H1980 0.949 . S
C1986 C1990 1.368 . S
C1987 C1968 1.429 . S
C1987 C1981 1.429 . S
C1987 C1988 1.523 . S
C1988 C1969 1.368 . S
C1988 C1982 1.368 . S
C1988 C1987 1.523 . S
C1989 C1973 1.429 . S
C1989 C1985 1.429 . S
C1989 C1990 1.523 . S
C1990 C1974 1.368 . S
C1990 C1986 1.368 . S
C1990 C1989 1.523 . S
H1991 C1966 0.950 . S
H1992 C1968 0.950 . S
H1993 C1969 0.949 . S
H1994 C1971 0.950 . S
H1995 C1973 0.950 . S
C1996 C1997 1.349 . S
C1996 C1998 1.327 . S
C1996 H2021 0.943 1_545 S
C1997 C1996 1.349 . S
C1997 C2013 1.349 . S
C1998 C1996 1.327 . S
C1998 C2017 1.429 . S
C1998 H2022 0.950 . S
C1999 C2016 1.574 . S
C1999 C2018 1.368 . S
C1999 H2023 0.949 . S
H2000 C2004 0.949 . S
C2001 C2002 1.349 . S
C2001 C2003 1.327 . S
C2001 H2024 0.950 . S
C2002 C2001 1.349 . S
C2002 C2014 1.349 . S
C2003 C2001 1.327 . S
C2003 C2019 1.429 . S
C2003 H2025 0.950 . S
C2004 H2000 0.949 . S
C2004 C2012 1.574 . S
C2004 C2020 1.368 . S
H2005 C2013 0.950 . S
H2006 C2011 0.950 . S
H2007 C2012 0.949 . S
H2008 C2014 0.950 . S
H2009 C2015 0.950 . S
H2010 C2016 0.949 . S
C2011 H2006 0.950 . S
C2011 C2013 1.327 . S
C2011 C2017 1.429 . S
C2012 C2004 1.574 . S
C2012 H2007 0.949 . S
C2012 C2018 1.368 . S
C2013 C1997 1.349 . S
C2013 H2005 0.950 . S
C2013 C2011 1.327 . S
C2014 C2002 1.349 . S
C2014 H2008 0.950 . S
C2014 C2015 1.327 . S
C2015 H2009 0.950 . S
C2015 C2014 1.327 . S
C2015 C2019 1.429 . S
C2016 C1999 1.574 . S
C2016 H2010 0.949 . S
C2016 C2020 1.368 . S
C2017 C1998 1.429 . S
C2017 C2011 1.429 . S
C2017 C2018 1.523 . S
C2018 C1999 1.368 . S
C2018 C2012 1.368 . S
C2018 C2017 1.523 . S
C2019 C2003 1.429 . S
C2019 C2015 1.429 . S
C2019 C2020 1.523 . S
C2020 C2004 1.368 . S
C2020 C2016 1.368 . S
C2020 C2019 1.523 . S
H2021 C1996 0.943 1_565 S
H2022 C1998 0.950 . S
H2023 C1999 0.949 . S
H2024 C2001 0.950 . S
H2025 C2003 0.950 . S
C2026 C2027 1.349 . S
C2026 C2028 1.327 . S
C2026 H2051 0.950 . S
C2027 C2026 1.349 . S
C2027 C2043 1.349 . S
C2028 C2026 1.327 . S
C2028 C2047 1.429 . S
C2028 H2052 0.950 . S
C2029 C2046 1.574 . S
C2029 C2048 1.368 . S
C2029 H2053 0.949 . S
H2030 C2034 0.949 . S
C2031 C2032 1.349 . S
C2031 C2033 1.327 . S
C2031 H2054 0.950 . S
C2032 C2031 1.349 . S
C2032 C2044 1.349 . S
C2033 C2031 1.327 . S
C2033 C2049 1.429 . S
C2033 H2055 0.950 . S
C2034 H2030 0.949 . S
C2034 C2042 1.574 . S
C2034 C2050 1.368 . S
H2035 C2043 0.950 . S
H2036 C2041 0.950 . S
H2037 C2042 0.949 . S
H2038 C2044 0.950 . S
H2039 C2045 0.950 . S
H2040 C2046 0.949 . S
C2041 H2036 0.950 . S
C2041 C2043 1.327 . S
C2041 C2047 1.429 . S
C2042 C2034 1.574 . S
C2042 H2037 0.949 . S
C2042 C2048 1.368 . S
C2043 C2027 1.349 . S
C2043 H2035 0.950 . S
C2043 C2041 1.327 . S
C2044 C2032 1.349 . S
C2044 H2038 0.950 . S
C2044 C2045 1.327 . S
C2045 H2039 0.950 . S
C2045 C2044 1.327 . S
C2045 C2049 1.429 . S
C2046 C2029 1.574 . S
C2046 H2040 0.949 . S
C2046 C2050 1.368 . S
C2047 C2028 1.429 . S
C2047 C2041 1.429 . S
C2047 C2048 1.523 . S
C2048 C2029 1.368 . S
C2048 C2042 1.368 . S
C2048 C2047 1.523 . S
C2049 C2033 1.429 . S
C2049 C2045 1.429 . S
C2049 C2050 1.523 . S
C2050 C2034 1.368 . S
C2050 C2046 1.368 . S
C2050 C2049 1.523 . S
H2051 C2026 0.950 . S
H2052 C2028 0.950 . S
H2053 C2029 0.949 . S
H2054 C2031 0.950 . S
H2055 C2033 0.950 . S
C2056 C2057 1.393 . S
C2056 C2058 1.327 . S
C2056 H2081 0.950 . S
C2057 C2056 1.393 . S
C2057 C2073 1.330 1_545 S
C2058 C2056 1.327 . S
C2058 C2077 1.429 . S
C2058 H2082 0.950 . S
C2059 C2076 1.574 1_565 S
C2059 C2078 1.368 1_565 S
C2059 H2083 0.949 . S
H2060 C2064 0.949 . S
C2061 C2062 1.349 . S
C2061 C2063 1.327 . S
C2061 H2084 0.950 . S
C2062 C2061 1.349 . S
C2062 C2074 1.349 . S
C2063 C2061 1.327 . S
C2063 C2079 1.429 . S
C2063 H2085 0.950 1_545 S
C2064 H2060 0.949 . S
C2064 C2072 1.574 . S
C2064 C2080 1.368 . S
H2065 C2073 0.950 . S
H2066 C2071 0.950 . S
H2067 C2072 0.949 . S
H2068 C2074 0.950 . S
H2069 C2075 0.950 . S
H2070 C2076 0.949 1_565 S
C2071 H2066 0.950 . S
C2071 C2073 1.327 . S
C2071 C2077 1.429 1_565 S
C2072 C2064 1.574 . S
C2072 H2067 0.949 . S
C2072 C2078 1.368 . S
C2073 C2057 1.330 1_565 S
C2073 H2065 0.950 . S
C2073 C2071 1.327 . S
C2074 C2062 1.349 . S
C2074 H2068 0.950 . S
C2074 C2075 1.327 . S
C2075 H2069 0.950 . S
C2075 C2074 1.327 . S
C2075 C2079 1.429 . S
C2076 C2059 1.574 1_545 S
C2076 H2070 0.949 1_545 S
C2076 C2080 1.368 . S
C2077 C2058 1.429 . S
C2077 C2071 1.429 1_545 S
C2077 C2078 1.523 . S
C2078 C2059 1.368 1_545 S
C2078 C2072 1.368 . S
C2078 C2077 1.523 . S
C2079 C2063 1.429 . S
C2079 C2075 1.429 . S
C2079 C2080 1.523 . S
C2080 C2064 1.368 . S
C2080 C2076 1.368 . S
C2080 C2079 1.523 . S
H2081 C2056 0.950 . S
H2082 C2058 0.950 . S
H2083 C2059 0.949 . S
H2084 C2061 0.950 . S
H2085 C2063 0.950 1_565 S
C2086 C2087 1.349 . S
C2086 C2088 1.327 . S
C2086 H2111 0.950 . S
C2087 C2086 1.349 . S
C2087 C2103 1.349 . S
C2088 C2086 1.327 . S
C2088 C2107 1.429 . S
C2088 H2112 0.950 . S
C2089 C2106 1.574 . S
C2089 C2108 1.368 . S
C2089 H2113 0.949 . S
H2090 C2094 0.949 . S
C2091 C2092 1.349 . S
C2091 C2093 1.327 . S
C2091 H2114 0.950 . S
C2092 C2091 1.349 . S
C2092 C2104 1.349 . S
C2093 C2091 1.327 . S
C2093 C2109 1.429 . S
C2093 H2115 0.950 . S
C2094 H2090 0.949 . S
C2094 C2102 1.574 . S
C2094 C2110 1.368 . S
H2095 C2103 0.950 . S
H2096 C2101 0.950 . S
H2097 C2102 0.949 . S
H2098 C2104 0.950 . S
H2099 C2105 0.950 . S
H2100 C2106 0.949 . S
C2101 H2096 0.950 . S
C2101 C2103 1.327 . S
C2101 C2107 1.429 . S
C2102 C2094 1.574 . S
C2102 H2097 0.949 . S
C2102 C2108 1.368 . S
C2103 C2087 1.349 . S
C2103 H2095 0.950 . S
C2103 C2101 1.327 . S
C2104 C2092 1.349 . S
C2104 H2098 0.950 . S
C2104 C2105 1.327 . S
C2105 H2099 0.950 . S
C2105 C2104 1.327 . S
C2105 C2109 1.429 . S
C2106 C2089 1.574 . S
C2106 H2100 0.949 . S
C2106 C2110 1.368 . S
C2107 C2088 1.429 . S
C2107 C2101 1.429 . S
C2107 C2108 1.523 . S
C2108 C2089 1.368 . S
C2108 C2102 1.368 . S
C2108 C2107 1.523 . S
C2109 C2093 1.429 . S
C2109 C2105 1.429 . S
C2109 C2110 1.523 . S
C2110 C2094 1.368 . S
C2110 C2106 1.368 . S
C2110 C2109 1.523 . S
H2111 C2086 0.950 . S
H2112 C2088 0.950 . S
H2113 C2089 0.949 . S
H2114 C2091 0.950 . S
H2115 C2093 0.950 . S
C2116 C2117 1.349 . S
C2116 C2118 1.327 . S
C2116 H2141 0.950 . S
C2117 C2116 1.349 . S
C2117 C2133 1.375 . S
C2118 C2116 1.327 . S
C2118 C2137 1.429 . S
C2118 H2142 0.950 . S
C2119 C2136 1.574 . S
C2119 C2138 1.368 1_565 S
C2119 H2143 0.949 . S
H2120 C2124 0.949 . S
C2121 C2122 1.367 . S
C2121 C2123 1.327 . S
C2121 H2144 0.950 . S
C2122 C2121 1.367 . S
C2122 C2134 1.329 1_565 S
C2123 C2121 1.327 . S
C2123 C2139 1.429 1_565 S
C2123 H2145 0.950 . S
C2124 H2120 0.949 . S
C2124 C2132 1.574 . S
C2124 C2140 1.368 . S
H2125 C2133 0.928 1_565 S
H2126 C2131 0.950 . S
H2127 C2132 0.949 . S
H2128 C2134 0.950 . S
H2129 C2135 0.950 . S
H2130 C2136 0.949 . S
C2131 H2126 0.950 . S
C2131 C2133 1.324 1_565 S
C2131 C2137 1.429 1_565 S
C2132 C2124 1.574 . S
C2132 H2127 0.949 . S
C2132 C2138 1.368 . S
C2133 C2117 1.375 . S
C2133 H2125 0.928 1_545 S
C2133 C2131 1.324 1_545 S
C2134 C2122 1.329 1_545 S
C2134 H2128 0.950 . S
C2134 C2135 1.327 . S
C2135 H2129 0.950 . S
C2135 C2134 1.327 . S
C2135 C2139 1.429 . S
C2136 C2119 1.574 . S
C2136 H2130 0.949 . S
C2136 C2140 1.368 1_565 S
C2137 C2118 1.429 . S
C2137 C2131 1.429 1_545 S
C2137 C2138 1.523 . S
C2138 C2119 1.368 1_545 S
C2138 C2132 1.368 . S
C2138 C2137 1.523 . S
C2139 C2123 1.429 1_545 S
C2139 C2135 1.429 . S
C2139 C2140 1.523 . S
C2140 C2124 1.368 . S
C2140 C2136 1.368 1_545 S
C2140 C2139 1.523 . S
H2141 C2116 0.950 . S
H2142 C2118 0.950 . S
H2143 C2119 0.949 . S
H2144 C2121 0.950 . S
H2145 C2123 0.950 . S
C2146 C2147 1.349 . S
C2146 C2148 1.327 . S
C2146 H2171 0.950 . S
C2147 C2146 1.349 . S
C2147 C2163 1.349 . S
C2148 C2146 1.327 . S
C2148 C2167 1.429 . S
C2148 H2172 0.950 . S
C2149 C2166 1.574 . S
C2149 C2168 1.368 . S
C2149 H2173 0.949 . S
H2150 C2154 0.949 . S
C2151 C2152 1.349 . S
C2151 C2153 1.327 . S
C2151 H2174 0.950 . S
C2152 C2151 1.349 . S
C2152 C2164 1.349 . S
C2153 C2151 1.327 . S
C2153 C2169 1.429 . S
C2153 H2175 0.950 . S
C2154 H2150 0.949 . S
C2154 C2162 1.574 . S
C2154 C2170 1.368 . S
H2155 C2163 0.950 . S
H2156 C2161 0.950 . S
H2157 C2162 0.949 . S
H2158 C2164 0.950 . S
H2159 C2165 0.950 . S
H2160 C2166 0.949 . S
C2161 H2156 0.950 . S
C2161 C2163 1.327 . S
C2161 C2167 1.429 . S
C2162 C2154 1.574 . S
C2162 H2157 0.949 . S
C2162 C2168 1.368 . S
C2163 C2147 1.349 . S
C2163 H2155 0.950 . S
C2163 C2161 1.327 . S
C2164 C2152 1.349 . S
C2164 H2158 0.950 . S
C2164 C2165 1.327 . S
C2165 H2159 0.950 . S
C2165 C2164 1.327 . S
C2165 C2169 1.429 . S
C2166 C2149 1.574 . S
C2166 H2160 0.949 . S
C2166 C2170 1.368 . S
C2167 C2148 1.429 . S
C2167 C2161 1.429 . S
C2167 C2168 1.523 . S
C2168 C2149 1.368 . S
C2168 C2162 1.368 . S
C2168 C2167 1.523 . S
C2169 C2153 1.429 . S
C2169 C2165 1.429 . S
C2169 C2170 1.523 . S
C2170 C2154 1.368 . S
C2170 C2166 1.368 . S
C2170 C2169 1.523 . S
H2171 C2146 0.950 . S
H2172 C2148 0.950 . S
H2173 C2149 0.949 . S
H2174 C2151 0.950 . S
H2175 C2153 0.950 . S
C2176 C2177 1.349 . S
C2176 C2178 1.327 . S
C2176 H2201 0.950 . S
C2177 C2176 1.349 . S
C2177 C2193 1.349 . S
C2178 C2176 1.327 . S
C2178 C2197 1.429 . S
C2178 H2202 0.972 . S
C2179 C2196 1.574 . S
C2179 C2198 1.368 . S
C2179 H2203 0.949 . S
H2180 C2184 0.949 . S
C2181 C2182 1.349 . S
C2181 C2183 1.327 . S
C2181 H2204 0.950 . S
C2182 C2181 1.349 . S
C2182 C2194 1.349 . S
C2183 C2181 1.327 . S
C2183 C2199 1.429 . S
C2183 H2205 0.950 1_556 S
C2184 H2180 0.949 . S
C2184 C2192 1.574 . S
C2184 C2200 1.368 . S
H2185 C2193 0.950 . S
H2186 C2191 0.950 . S
H2187 C2192 0.949 . S
H2188 C2194 0.950 . S
H2189 C2195 0.950 . S
H2190 C2196 0.949 . S
C2191 H2186 0.950 . S
C2191 C2193 1.327 . S
C2191 C2197 1.429 . S
C2192 C2184 1.574 . S
C2192 H2187 0.949 . S
C2192 C2198 1.368 1_556 S
C2193 C2177 1.349 . S
C2193 H2185 0.950 . S
C2193 C2191 1.327 . S
C2194 C2182 1.349 . S
C2194 H2188 0.950 . S
C2194 C2195 1.327 . S
C2195 H2189 0.950 . S
C2195 C2194 1.327 . S
C2195 C2199 1.429 . S
C2196 C2179 1.574 . S
C2196 H2190 0.949 . S
C2196 C2200 1.368 1_554 S
C2197 C2178 1.429 . S
C2197 C2191 1.429 . S
C2197 C2198 1.523 . S
C2198 C2179 1.368 . S
C2198 C2192 1.368 1_554 S
C2198 C2197 1.523 . S
C2199 C2183 1.429 . S
C2199 C2195 1.429 . S
C2199 C2200 1.523 . S
C2200 C2184 1.368 . S
C2200 C2196 1.368 1_556 S
C2200 C2199 1.523 . S
H2201 C2176 0.950 . S
H2202 C2178 0.972 . S
H2203 C2179 0.949 . S
H2204 C2181 0.950 . S
H2205 C2183 0.950 1_554 S
C2206 C2207 1.349 . S
C2206 C2208 1.327 . S
C2206 H2231 0.950 . S
C2207 C2206 1.349 . S
C2207 C2223 1.349 . S
C2208 C2206 1.327 . S
C2208 C2227 1.429 . S
C2208 H2232 0.950 . S
C2209 C2226 1.574 . S
C2209 C2228 1.368 . S
C2209 H2233 0.949 . S
H2210 C2214 0.949 . S
C2211 C2212 1.349 . S
C2211 C2213 1.327 . S
C2211 H2234 0.950 . S
C2212 C2211 1.349 . S
C2212 C2224 1.349 . S
C2213 C2211 1.327 . S
C2213 C2229 1.429 . S
C2213 H2235 0.950 . S
C2214 H2210 0.949 . S
C2214 C2222 1.574 . S
C2214 C2230 1.368 . S
H2215 C2223 0.950 . S
H2216 C2221 0.950 . S
H2217 C2222 0.949 . S
H2218 C2224 0.950 . S
H2219 C2225 0.950 . S
H2220 C2226 0.949 . S
C2221 H2216 0.950 . S
C2221 C2223 1.327 . S
C2221 C2227 1.429 . S
C2222 C2214 1.574 . S
C2222 H2217 0.949 . S
C2222 C2228 1.368 . S
C2223 C2207 1.349 . S
C2223 H2215 0.950 . S
C2223 C2221 1.327 . S
C2224 C2212 1.349 . S
C2224 H2218 0.950 . S
C2224 C2225 1.327 . S
C2225 H2219 0.950 . S
C2225 C2224 1.327 . S
C2225 C2229 1.429 . S
C2226 C2209 1.574 . S
C2226 H2220 0.949 . S
C2226 C2230 1.368 . S
C2227 C2208 1.429 . S
C2227 C2221 1.429 . S
C2227 C2228 1.523 . S
C2228 C2209 1.368 . S
C2228 C2222 1.368 . S
C2228 C2227 1.523 . S
C2229 C2213 1.429 . S
C2229 C2225 1.429 . S
C2229 C2230 1.523 . S
C2230 C2214 1.368 . S
C2230 C2226 1.368 . S
C2230 C2229 1.523 . S
H2231 C2206 0.950 . S
H2232 C2208 0.950 . S
H2233 C2209 0.949 . S
H2234 C2211 0.950 . S
H2235 C2213 0.950 . S
C2236 C2237 1.349 . S
C2236 C2238 1.327 . S
C2236 H2261 0.950 . S
C2237 C2236 1.349 . S
C2237 C2253 1.349 . S
C2238 C2236 1.327 . S
C2238 C2257 1.429 . S
C2238 H2262 0.950 . S
C2239 C2256 1.574 . S
C2239 C2258 1.368 . S
C2239 H2263 0.949 . S
H2240 C2244 0.949 . S
C2241 C2242 1.349 . S
C2241 C2243 1.327 . S
C2241 H2264 0.950 . S
C2242 C2241 1.349 . S
C2242 C2254 1.349 . S
C2243 C2241 1.327 . S
C2243 C2259 1.429 . S
C2243 H2265 0.950 . S
C2244 H2240 0.949 . S
C2244 C2252 1.574 . S
C2244 C2260 1.368 . S
H2245 C2253 0.950 . S
H2246 C2251 0.950 . S
H2247 C2252 0.949 . S
H2248 C2254 0.950 . S
H2249 C2255 0.950 . S
H2250 C2256 0.949 . S
C2251 H2246 0.950 . S
C2251 C2253 1.327 . S
C2251 C2257 1.429 . S
C2252 C2244 1.574 . S
C2252 H2247 0.949 . S
C2252 C2258 1.368 . S
C2253 C2237 1.349 . S
C2253 H2245 0.950 . S
C2253 C2251 1.327 . S
C2254 C2242 1.349 . S
C2254 H2248 0.950 . S
C2254 C2255 1.327 . S
C2255 H2249 0.950 . S
C2255 C2254 1.327 . S
C2255 C2259 1.429 . S
C2256 C2239 1.574 . S
C2256 H2250 0.949 . S
C2256 C2260 1.368 . S
C2257 C2238 1.429 . S
C2257 C2251 1.429 . S
C2257 C2258 1.523 . S
C2258 C2239 1.368 . S
C2258 C2252 1.368 . S
C2258 C2257 1.523 . S
C2259 C2243 1.429 . S
C2259 C2255 1.429 . S
C2259 C2260 1.523 . S
C2260 C2244 1.368 . S
C2260 C2256 1.368 . S
C2260 C2259 1.523 . S
H2261 C2236 0.950 . S
H2262 C2238 0.950 . S
H2263 C2239 0.949 . S
H2264 C2241 0.950 . S
H2265 C2243 0.950 . S
C2266 C2267 1.349 . S
C2266 C2268 1.327 . S
C2266 H2291 0.950 . S
C2267 C2266 1.349 . S
C2267 C2283 1.349 . S
C2268 C2266 1.327 . S
C2268 C2287 1.429 . S
C2268 H2292 0.950 . S
C2269 C2286 1.574 . S
C2269 C2288 1.368 . S
C2269 H2293 0.949 . S
H2270 C2274 0.949 . S
C2271 C2272 1.349 . S
C2271 C2273 1.327 . S
C2271 H2294 0.950 . S
C2272 C2271 1.349 . S
C2272 C2284 1.349 . S
C2273 C2271 1.327 . S
C2273 C2289 1.429 . S
C2273 H2295 0.950 . S
C2274 H2270 0.949 . S
C2274 C2282 1.574 . S
C2274 C2290 1.368 . S
H2275 C2283 0.950 . S
H2276 C2281 0.950 . S
H2277 C2282 0.949 . S
H2278 C2284 0.950 . S
H2279 C2285 0.950 . S
H2280 C2286 0.949 . S
C2281 H2276 0.950 . S
C2281 C2283 1.327 . S
C2281 C2287 1.429 . S
C2282 C2274 1.574 . S
C2282 H2277 0.949 . S
C2282 C2288 1.368 . S
C2283 C2267 1.349 . S
C2283 H2275 0.950 . S
C2283 C2281 1.327 . S
C2284 C2272 1.349 . S
C2284 H2278 0.950 . S
C2284 C2285 1.327 . S
C2285 H2279 0.950 . S
C2285 C2284 1.327 . S
C2285 C2289 1.429 . S
C2286 C2269 1.574 . S
C2286 H2280 0.949 . S
C2286 C2290 1.368 . S
C2287 C2268 1.429 . S
C2287 C2281 1.429 . S
C2287 C2288 1.523 . S
C2288 C2269 1.368 . S
C2288 C2282 1.368 . S
C2288 C2287 1.523 . S
C2289 C2273 1.429 . S
C2289 C2285 1.429 . S
C2289 C2290 1.523 . S
C2290 C2274 1.368 . S
C2290 C2286 1.368 . S
C2290 C2289 1.523 . S
H2291 C2266 0.950 . S
H2292 C2268 0.950 . S
H2293 C2269 0.949 . S
H2294 C2271 0.950 . S
H2295 C2273 0.950 . S
C2296 C2297 1.349 1_565 S
C2296 C2298 1.327 . S
C2296 H2321 0.950 . S
C2297 C2296 1.349 1_545 S
C2297 C2313 1.349 . S
C2298 C2296 1.327 . S
C2298 C2317 1.429 . S
C2298 H2322 0.950 . S
C2299 C2316 1.574 . S
C2299 C2318 1.368 . S
C2299 H2323 0.949 . S
H2300 C2304 0.949 . S
C2301 C2302 1.349 . S
C2301 C2303 1.327 . S
C2301 H2324 0.950 . S
C2302 C2301 1.349 . S
C2302 C2314 1.349 . S
C2303 C2301 1.327 . S
C2303 C2319 1.429 . S
C2303 H2325 0.950 . S
C2304 H2300 0.949 . S
C2304 C2312 1.574 . S
C2304 C2320 1.368 . S
H2305 C2313 0.950 . S
H2306 C2311 0.948 . S
H2307 C2312 0.949 . S
H2308 C2314 0.950 . S
H2309 C2315 0.950 . S
H2310 C2316 0.949 . S
C2311 H2306 0.948 . S
C2311 C2313 1.327 1_565 S
C2311 C2317 1.429 . S
C2312 C2304 1.574 . S
C2312 H2307 0.949 . S
C2312 C2318 1.368 . S
C2313 C2297 1.349 . S
C2313 H2305 0.950 . S
C2313 C2311 1.327 1_545 S
C2314 C2302 1.349 . S
C2314 H2308 0.950 . S
C2314 C2315 1.327 . S
C2315 H2309 0.950 . S
C2315 C2314 1.327 . S
C2315 C2319 1.429 . S
C2316 C2299 1.574 . S
C2316 H2310 0.949 . S
C2316 C2320 1.368 . S
C2317 C2298 1.429 . S
C2317 C2311 1.429 . S
C2317 C2318 1.523 . S
C2318 C2299 1.368 . S
C2318 C2312 1.368 . S
C2318 C2317 1.523 . S
C2319 C2303 1.429 . S
C2319 C2315 1.429 . S
C2319 C2320 1.523 . S
C2320 C2304 1.368 . S
C2320 C2316 1.368 . S
C2320 C2319 1.523 . S
H2321 C2296 0.950 . S
H2322 C2298 0.950 . S
H2323 C2299 0.949 . S
H2324 C2301 0.950 . S
H2325 C2303 0.950 . S
C2326 C2327 1.349 . S
C2326 C2328 1.327 . S
C2326 H2351 0.950 . S
C2327 C2326 1.349 . S
C2327 C2343 1.349 . S
C2328 C2326 1.327 . S
C2328 C2347 1.429 . S
C2328 H2352 0.950 . S
C2329 C2346 1.574 . S
C2329 C2348 1.368 . S
C2329 H2353 0.949 . S
H2330 C2334 0.949 . S
C2331 C2332 1.349 . S
C2331 C2333 1.327 . S
C2331 H2354 0.950 . S
C2332 C2331 1.349 . S
C2332 C2344 1.349 . S
C2333 C2331 1.327 . S
C2333 C2349 1.429 . S
C2333 H2355 0.950 . S
C2334 H2330 0.949 . S
C2334 C2342 1.574 . S
C2334 C2350 1.368 . S
H2335 C2343 0.950 . S
H2336 C2341 0.950 . S
H2337 C2342 0.949 . S
H2338 C2344 0.950 . S
H2339 C2345 0.950 . S
H2340 C2346 0.949 . S
C2341 H2336 0.950 . S
C2341 C2343 1.327 . S
C2341 C2347 1.429 . S
C2342 C2334 1.574 . S
C2342 H2337 0.949 . S
C2342 C2348 1.368 . S
C2343 C2327 1.349 . S
C2343 H2335 0.950 . S
C2343 C2341 1.327 . S
C2344 C2332 1.349 . S
C2344 H2338 0.950 . S
C2344 C2345 1.327 . S
C2345 H2339 0.950 . S
C2345 C2344 1.327 . S
C2345 C2349 1.429 . S
C2346 C2329 1.574 . S
C2346 H2340 0.949 . S
C2346 C2350 1.368 . S
C2347 C2328 1.429 . S
C2347 C2341 1.429 . S
C2347 C2348 1.523 . S
C2348 C2329 1.368 . S
C2348 C2342 1.368 . S
C2348 C2347 1.523 . S
C2349 C2333 1.429 . S
C2349 C2345 1.429 . S
C2349 C2350 1.523 . S
C2350 C2334 1.368 . S
C2350 C2346 1.368 . S
C2350 C2349 1.523 . S
H2351 C2326 0.950 . S
H2352 C2328 0.950 . S
H2353 C2329 0.949 . S
H2354 C2331 0.950 . S
H2355 C2333 0.950 . S
C2356 C2357 1.349 . S
C2356 C2358 1.327 . S
C2356 H2381 0.950 . S
C2357 C2356 1.349 . S
C2357 C2373 1.349 . S
C2358 C2356 1.327 . S
C2358 C2377 1.429 . S
C2358 H2382 0.950 . S
C2359 C2376 1.574 . S
C2359 C2378 1.368 . S
C2359 H2383 0.949 . S
H2360 C2364 0.949 . S
C2361 C2362 1.349 . S
C2361 C2363 1.327 . S
C2361 H2384 0.950 . S
C2362 C2361 1.349 . S
C2362 C2374 1.349 . S
C2363 C2361 1.327 . S
C2363 C2379 1.429 . S
C2363 H2385 0.950 . S
C2364 H2360 0.949 . S
C2364 C2372 1.574 . S
C2364 C2380 1.368 . S
H2365 C2373 0.950 . S
H2366 C2371 0.950 . S
H2367 C2372 0.949 . S
H2368 C2374 0.950 . S
H2369 C2375 0.950 . S
H2370 C2376 0.949 . S
C2371 H2366 0.950 . S
C2371 C2373 1.327 . S
C2371 C2377 1.429 . S
C2372 C2364 1.574 . S
C2372 H2367 0.949 . S
C2372 C2378 1.368 . S
C2373 C2357 1.349 . S
C2373 H2365 0.950 . S
C2373 C2371 1.327 . S
C2374 C2362 1.349 . S
C2374 H2368 0.950 . S
C2374 C2375 1.327 . S
C2375 H2369 0.950 . S
C2375 C2374 1.327 . S
C2375 C2379 1.429 . S
C2376 C2359 1.574 . S
C2376 H2370 0.949 . S
C2376 C2380 1.368 . S
C2377 C2358 1.429 . S
C2377 C2371 1.429 . S
C2377 C2378 1.523 . S
C2378 C2359 1.368 . S
C2378 C2372 1.368 . S
C2378 C2377 1.523 . S
C2379 C2363 1.429 . S
C2379 C2375 1.429 . S
C2379 C2380 1.523 . S
C2380 C2364 1.368 . S
C2380 C2376 1.368 . S
C2380 C2379 1.523 . S
H2381 C2356 0.950 . S
H2382 C2358 0.950 . S
H2383 C2359 0.949 . S
H2384 C2361 0.950 . S
H2385 C2363 0.950 . S
C2386 C2387 1.349 . S
C2386 C2388 1.327 . S
C2386 H2411 0.950 . S
C2387 C2386 1.349 . S
C2387 C2403 1.349 . S
C2388 C2386 1.327 . S
C2388 C2407 1.429 . S
C2388 H2412 0.950 . S
C2389 C2406 1.574 . S
C2389 C2408 1.368 . S
C2389 H2413 0.949 . S
H2390 C2394 0.949 . S
C2391 C2392 1.349 . S
C2391 C2393 1.327 . S
C2391 H2414 0.950 . S
C2392 C2391 1.349 . S
C2392 C2404 1.349 . S
C2393 C2391 1.327 . S
C2393 C2409 1.429 . S
C2393 H2415 0.950 . S
C2394 H2390 0.949 . S
C2394 C2402 1.574 . S
C2394 C2410 1.368 . S
H2395 C2403 0.950 . S
H2396 C2401 0.950 . S
H2397 C2402 0.949 . S
H2398 C2404 0.950 . S
H2399 C2405 0.950 . S
H2400 C2406 0.949 . S
C2401 H2396 0.950 . S
C2401 C2403 1.327 . S
C2401 C2407 1.429 . S
C2402 C2394 1.574 . S
C2402 H2397 0.949 . S
C2402 C2408 1.368 . S
C2403 C2387 1.349 . S
C2403 H2395 0.950 . S
C2403 C2401 1.327 . S
C2404 C2392 1.349 . S
C2404 H2398 0.950 . S
C2404 C2405 1.327 . S
C2405 H2399 0.950 . S
C2405 C2404 1.327 . S
C2405 C2409 1.429 . S
C2406 C2389 1.574 . S
C2406 H2400 0.949 . S
C2406 C2410 1.368 . S
C2407 C2388 1.429 . S
C2407 C2401 1.429 . S
C2407 C2408 1.523 . S
C2408 C2389 1.368 . S
C2408 C2402 1.368 . S
C2408 C2407 1.523 . S
C2409 C2393 1.429 . S
C2409 C2405 1.429 . S
C2409 C2410 1.523 . S
C2410 C2394 1.368 . S
C2410 C2406 1.368 . S
C2410 C2409 1.523 . S
H2411 C2386 0.950 . S
H2412 C2388 0.950 . S
H2413 C2389 0.949 . S
H2414 C2391 0.950 . S
H2415 C2393 0.950 . S
C2416 C2417 1.349 . S
C2416 C2418 1.327 . S
C2416 H2441 0.950 . S
C2417 C2416 1.349 . S
C2417 C2433 1.349 . S
C2418 C2416 1.327 . S
C2418 C2437 1.429 . S
C2418 H2442 0.950 . S
C2419 C2436 1.574 . S
C2419 C2438 1.368 . S
C2419 H2443 0.949 . S
H2420 C2424 0.949 . S
C2421 C2422 1.349 . S
C2421 C2423 1.327 . S
C2421 H2444 0.950 . S
C2422 C2421 1.349 . S
C2422 C2434 1.349 . S
C2423 C2421 1.327 . S
C2423 C2439 1.429 . S
C2423 H2445 0.950 . S
C2424 H2420 0.949 . S
C2424 C2432 1.574 . S
C2424 C2440 1.368 . S
H2425 C2433 0.950 . S
H2426 C2431 0.950 . S
H2427 C2432 0.949 . S
H2428 C2434 0.950 . S
H2429 C2435 0.950 . S
H2430 C2436 0.949 . S
C2431 H2426 0.950 . S
C2431 C2433 1.327 . S
C2431 C2437 1.429 . S
C2432 C2424 1.574 . S
C2432 H2427 0.949 . S
C2432 C2438 1.368 . S
C2433 C2417 1.349 . S
C2433 H2425 0.950 . S
C2433 C2431 1.327 . S
C2434 C2422 1.349 . S
C2434 H2428 0.950 . S
C2434 C2435 1.327 . S
C2435 H2429 0.950 . S
C2435 C2434 1.327 . S
C2435 C2439 1.429 . S
C2436 C2419 1.574 . S
C2436 H2430 0.949 . S
C2436 C2440 1.368 . S
C2437 C2418 1.429 . S
C2437 C2431 1.429 . S
C2437 C2438 1.523 . S
C2438 C2419 1.368 . S
C2438 C2432 1.368 . S
C2438 C2437 1.523 . S
C2439 C2423 1.429 . S
C2439 C2435 1.429 . S
C2439 C2440 1.523 . S
C2440 C2424 1.368 . S
C2440 C2436 1.368 . S
C2440 C2439 1.523 . S
H2441 C2416 0.950 . S
H2442 C2418 0.950 . S
H2443 C2419 0.949 . S
H2444 C2421 0.950 . S
H2445 C2423 0.950 . S
C2446 C2447 1.349 . S
C2446 C2448 1.327 . S
C2446 H2471 0.950 . S
C2447 C2446 1.349 . S
C2447 C2463 1.349 . S
C2448 C2446 1.327 . S
C2448 C2467 1.429 . S
C2448 H2472 0.950 . S
C2449 C2466 1.574 . S
C2449 C2468 1.368 . S
C2449 H2473 0.949 . S
H2450 C2454 0.949 . S
C2451 C2452 1.349 . S
C2451 C2453 1.327 . S
C2451 H2474 0.950 . S
C2452 C2451 1.349 . S
C2452 C2464 1.349 . S
C2453 C2451 1.327 . S
C2453 C2469 1.429 . S
C2453 H2475 0.950 . S
C2454 H2450 0.949 . S
C2454 C2462 1.574 . S
C2454 C2470 1.368 . S
H2455 C2463 0.950 . S
H2456 C2461 0.950 . S
H2457 C2462 0.949 . S
H2458 C2464 0.950 . S
H2459 C2465 0.950 . S
H2460 C2466 0.949 . S
C2461 H2456 0.950 . S
C2461 C2463 1.327 . S
C2461 C2467 1.429 . S
C2462 C2454 1.574 . S
C2462 H2457 0.949 . S
C2462 C2468 1.368 . S
C2463 C2447 1.349 . S
C2463 H2455 0.950 . S
C2463 C2461 1.327 . S
C2464 C2452 1.349 . S
C2464 H2458 0.950 . S
C2464 C2465 1.327 . S
C2465 H2459 0.950 . S
C2465 C2464 1.327 . S
C2465 C2469 1.429 . S
C2466 C2449 1.574 . S
C2466 H2460 0.949 . S
C2466 C2470 1.368 . S
C2467 C2448 1.429 . S
C2467 C2461 1.429 . S
C2467 C2468 1.523 . S
C2468 C2449 1.368 . S
C2468 C2462 1.368 . S
C2468 C2467 1.523 . S
C2469 C2453 1.429 . S
C2469 C2465 1.429 . S
C2469 C2470 1.523 . S
C2470 C2454 1.368 . S
C2470 C2466 1.368 . S
C2470 C2469 1.523 . S
H2471 C2446 0.950 . S
H2472 C2448 0.950 . S
H2473 C2449 0.949 . S
H2474 C2451 0.950 . S
H2475 C2453 0.950 . S
C2476 C2477 1.349 . S
C2476 C2478 1.327 . S
C2476 H2501 0.950 . S
C2477 C2476 1.349 . S
C2477 C2493 1.349 . S
C2478 C2476 1.327 . S
C2478 C2497 1.429 . S
C2478 H2502 0.950 . S
C2479 C2496 1.574 . S
C2479 C2498 1.368 . S
C2479 H2503 0.949 . S
H2480 C2484 0.949 . S
C2481 C2482 1.349 . S
C2481 C2483 1.327 1_554 S
C2481 H2504 0.950 . S
C2482 C2481 1.349 . S
C2482 C2494 1.349 . S
C2483 C2481 1.327 1_556 S
C2483 C2499 1.429 1_556 S
C2483 H2505 0.950 . S
C2484 H2480 0.949 . S
C2484 C2492 1.574 1_554 S
C2484 C2500 1.368 1_554 S
H2485 C2493 0.950 . S
H2486 C2491 0.950 . S
H2487 C2492 0.949 . S
H2488 C2494 0.950 . S
H2489 C2495 0.950 . S
H2490 C2496 0.949 . S
C2491 H2486 0.950 . S
C2491 C2493 1.327 . S
C2491 C2497 1.429 . S
C2492 C2484 1.574 1_556 S
C2492 H2487 0.949 . S
C2492 C2498 1.368 . S
C2493 C2477 1.349 . S
C2493 H2485 0.950 . S
C2493 C2491 1.327 . S
C2494 C2482 1.349 . S
C2494 H2488 0.950 . S
C2494 C2495 1.327 . S
C2495 H2489 0.950 . S
C2495 C2494 1.327 . S
C2495 C2499 1.429 . S
C2496 C2479 1.574 . S
C2496 H2490 0.949 . S
C2496 C2500 1.368 . S
C2497 C2478 1.429 . S
C2497 C2491 1.429 . S
C2497 C2498 1.523 . S
C2498 C2479 1.368 . S
C2498 C2492 1.368 . S
C2498 C2497 1.523 . S
C2499 C2483 1.429 1_554 S
C2499 C2495 1.429 . S
C2499 C2500 1.523 1_554 S
C2500 C2484 1.368 1_556 S
C2500 C2496 1.368 . S
C2500 C2499 1.523 1_556 S
H2501 C2476 0.950 . S
H2502 C2478 0.950 . S
H2503 C2479 0.949 . S
H2504 C2481 0.950 . S
H2505 C2483 0.950 . S
C2506 C2507 1.349 . S
C2506 C2508 1.327 1_455 S
C2506 H2531 0.950 . S
C2507 C2506 1.349 . S
C2507 C2523 1.349 . S
C2508 C2506 1.327 1_655 S
C2508 C2527 1.429 . S
C2508 H2532 0.950 . S
C2509 C2526 1.574 . S
C2509 C2528 1.368 . S
C2509 H2533 0.949 . S
H2510 C2514 0.949 . S
C2511 C2512 1.349 . S
C2511 C2513 1.327 . S
C2511 H2534 0.950 . S
C2512 C2511 1.349 . S
C2512 C2524 1.349 . S
C2513 C2511 1.327 . S
C2513 C2529 1.429 . S
C2513 H2535 0.950 . S
C2514 H2510 0.949 . S
C2514 C2522 1.574 . S
C2514 C2530 1.368 . S
H2515 C2523 0.950 . S
H2516 C2521 0.950 . S
H2517 C2522 0.949 . S
H2518 C2524 0.950 . S
H2519 C2525 0.950 . S
H2520 C2526 0.949 . S
C2521 H2516 0.950 . S
C2521 C2523 1.327 1_655 S
C2521 C2527 1.429 . S
C2522 C2514 1.574 . S
C2522 H2517 0.949 . S
C2522 C2528 1.368 . S
C2523 C2507 1.349 . S
C2523 H2515 0.950 . S
C2523 C2521 1.327 1_455 S
C2524 C2512 1.349 . S
C2524 H2518 0.950 . S
C2524 C2525 1.327 . S
C2525 H2519 0.950 . S
C2525 C2524 1.327 . S
C2525 C2529 1.429 . S
C2526 C2509 1.574 . S
C2526 H2520 0.949 . S
C2526 C2530 1.368 . S
C2527 C2508 1.429 . S
C2527 C2521 1.429 . S
C2527 C2528 1.523 . S
C2528 C2509 1.368 . S
C2528 C2522 1.368 . S
C2528 C2527 1.523 . S
C2529 C2513 1.429 . S
C2529 C2525 1.429 . S
C2529 C2530 1.523 . S
C2530 C2514 1.368 . S
C2530 C2526 1.368 . S
C2530 C2529 1.523 . S
H2531 C2506 0.950 . S
H2532 C2508 0.950 . S
H2533 C2509 0.949 . S
H2534 C2511 0.950 . S
H2535 C2513 0.950 . S
C2536 C2537 1.349 . S
C2536 C2538 1.327 . S
C2536 H2561 0.950 . S
C2537 C2536 1.349 . S
C2537 C2553 1.349 . S
C2538 C2536 1.327 . S
C2538 C2557 1.429 . S
C2538 H2562 0.950 . S
C2539 C2556 1.574 . S
C2539 C2558 1.368 . S
C2539 H2563 0.949 . S
H2540 C2544 0.949 . S
C2541 C2542 1.349 . S
C2541 C2543 1.327 . S
C2541 H2564 0.950 . S
C2542 C2541 1.349 . S
C2542 C2554 1.349 . S
C2543 C2541 1.327 . S
C2543 C2559 1.429 . S
C2543 H2565 0.950 . S
C2544 H2540 0.949 . S
C2544 C2552 1.574 . S
C2544 C2560 1.368 . S
H2545 C2553 0.950 . S
H2546 C2551 0.950 . S
H2547 C2552 0.949 . S
H2548 C2554 0.950 . S
H2549 C2555 0.950 . S
H2550 C2556 0.949 . S
C2551 H2546 0.950 . S
C2551 C2553 1.327 . S
C2551 C2557 1.429 . S
C2552 C2544 1.574 . S
C2552 H2547 0.949 . S
C2552 C2558 1.368 . S
C2553 C2537 1.349 . S
C2553 H2545 0.950 . S
C2553 C2551 1.327 . S
C2554 C2542 1.349 . S
C2554 H2548 0.950 . S
C2554 C2555 1.327 . S
C2555 H2549 0.950 . S
C2555 C2554 1.327 . S
C2555 C2559 1.429 . S
C2556 C2539 1.574 . S
C2556 H2550 0.949 . S
C2556 C2560 1.368 . S
C2557 C2538 1.429 . S
C2557 C2551 1.429 . S
C2557 C2558 1.523 . S
C2558 C2539 1.368 . S
C2558 C2552 1.368 . S
C2558 C2557 1.523 . S
C2559 C2543 1.429 . S
C2559 C2555 1.429 . S
C2559 C2560 1.523 . S
C2560 C2544 1.368 . S
C2560 C2556 1.368 . S
C2560 C2559 1.523 . S
H2561 C2536 0.950 . S
H2562 C2538 0.950 . S
H2563 C2539 0.949 . S
H2564 C2541 0.950 . S
H2565 C2543 0.950 . S
C2566 C2567 1.349 . S
C2566 C2568 1.327 . S
C2566 H2591 0.950 . S
C2567 C2566 1.349 . S
C2567 C2583 1.349 . S
C2568 C2566 1.327 . S
C2568 C2587 1.429 . S
C2568 H2592 0.950 . S
C2569 C2586 1.574 . S
C2569 C2588 1.368 . S
C2569 H2593 0.949 1_655 S
H2570 C2574 0.949 . S
C2571 C2572 1.349 . S
C2571 C2573 1.327 . S
C2571 H2594 0.950 . S
C2572 C2571 1.349 . S
C2572 C2584 1.349 . S
C2573 C2571 1.327 . S
C2573 C2589 1.429 . S
C2573 H2595 0.950 . S
C2574 H2570 0.949 . S
C2574 C2582 1.574 . S
C2574 C2590 1.368 . S
H2575 C2583 0.950 . S
H2576 C2581 0.950 . S
H2577 C2582 0.949 . S
H2578 C2584 0.950 . S
H2579 C2585 0.950 . S
H2580 C2586 0.949 . S
C2581 H2576 0.950 . S
C2581 C2583 1.327 . S
C2581 C2587 1.429 . S
C2582 C2574 1.574 . S
C2582 H2577 0.949 . S
C2582 C2588 1.368 . S
C2583 C2567 1.349 . S
C2583 H2575 0.950 . S
C2583 C2581 1.327 . S
C2584 C2572 1.349 . S
C2584 H2578 0.950 . S
C2584 C2585 1.327 . S
C2585 H2579 0.950 . S
C2585 C2584 1.327 . S
C2585 C2589 1.429 . S
C2586 C2569 1.574 . S
C2586 H2580 0.949 . S
C2586 C2590 1.368 . S
C2587 C2568 1.429 . S
C2587 C2581 1.429 . S
C2587 C2588 1.523 1_455 S
C2588 C2569 1.368 . S
C2588 C2582 1.368 . S
C2588 C2587 1.523 1_655 S
C2589 C2573 1.429 . S
C2589 C2585 1.429 . S
C2589 C2590 1.523 . S
C2590 C2574 1.368 . S
C2590 C2586 1.368 . S
C2590 C2589 1.523 . S
H2591 C2566 0.950 . S
H2592 C2568 0.950 . S
H2593 C2569 0.949 1_455 S
H2594 C2571 0.950 . S
H2595 C2573 0.950 . S
C2596 C2597 1.349 . S
C2596 C2598 1.327 . S
C2596 H2621 0.950 . S
C2597 C2596 1.349 . S
C2597 C2613 1.349 1_655 S
C2598 C2596 1.327 . S
C2598 C2617 1.429 1_655 S
C2598 H2622 0.950 . S
C2599 C2616 1.574 . S
C2599 C2618 1.368 . S
C2599 H2623 0.949 . S
H2600 C2604 0.949 . S
C2601 C2602 1.349 . S
C2601 C2603 1.327 . S
C2601 H2624 0.950 . S
C2602 C2601 1.349 . S
C2602 C2614 1.349 . S
C2603 C2601 1.327 . S
C2603 C2619 1.429 . S
C2603 H2625 0.950 . S
C2604 H2600 0.949 . S
C2604 C2612 1.574 . S
C2604 C2620 1.368 . S
H2605 C2613 0.950 . S
H2606 C2611 0.950 . S
H2607 C2612 0.949 1_655 S
H2608 C2614 0.950 . S
H2609 C2615 0.950 . S
H2610 C2616 0.949 . S
C2611 H2606 0.950 . S
C2611 C2613 1.327 . S
C2611 C2617 1.429 . S
C2612 C2604 1.574 . S
C2612 H2607 0.949 1_455 S
C2612 C2618 1.368 . S
C2613 C2597 1.349 1_455 S
C2613 H2605 0.950 . S
C2613 C2611 1.327 . S
C2614 C2602 1.349 . S
C2614 H2608 0.950 . S
C2614 C2615 1.327 . S
C2615 H2609 0.950 . S
C2615 C2614 1.327 . S
C2615 C2619 1.429 . S
C2616 C2599 1.574 . S
C2616 H2610 0.949 . S
C2616 C2620 1.368 . S
C2617 C2598 1.429 1_455 S
C2617 C2611 1.429 . S
C2617 C2618 1.523 . S
C2618 C2599 1.368 . S
C2618 C2612 1.368 . S
C2618 C2617 1.523 . S
C2619 C2603 1.429 . S
C2619 C2615 1.429 . S
C2619 C2620 1.523 . S
C2620 C2604 1.368 . S
C2620 C2616 1.368 . S
C2620 C2619 1.523 . S
H2621 C2596 0.950 . S
H2622 C2598 0.950 . S
H2623 C2599 0.949 . S
H2624 C2601 0.950 . S
H2625 C2603 0.950 . S
C2626 C2627 1.349 . S
C2626 C2628 1.327 . S
C2626 H2651 0.950 . S
C2627 C2626 1.349 . S
C2627 C2643 1.349 . S
C2628 C2626 1.327 . S
C2628 C2647 1.429 . S
C2628 H2652 0.950 . S
C2629 C2646 1.574 . S
C2629 C2648 1.368 . S
C2629 H2653 0.949 . S
H2630 C2634 0.949 . S
C2631 C2632 1.349 . S
C2631 C2633 1.327 . S
C2631 H2654 0.950 . S
C2632 C2631 1.349 . S
C2632 C2644 1.349 . S
C2633 C2631 1.327 . S
C2633 C2649 1.429 . S
C2633 H2655 0.950 . S
C2634 H2630 0.949 . S
C2634 C2642 1.574 . S
C2634 C2650 1.368 . S
H2635 C2643 0.950 . S
H2636 C2641 0.950 . S
H2637 C2642 0.949 . S
H2638 C2644 0.950 . S
H2639 C2645 0.950 . S
H2640 C2646 0.949 . S
C2641 H2636 0.950 . S
C2641 C2643 1.327 . S
C2641 C2647 1.429 . S
C2642 C2634 1.574 . S
C2642 H2637 0.949 . S
C2642 C2648 1.368 . S
C2643 C2627 1.349 . S
C2643 H2635 0.950 . S
C2643 C2641 1.327 . S
C2644 C2632 1.349 . S
C2644 H2638 0.950 . S
C2644 C2645 1.327 . S
C2645 H2639 0.950 . S
C2645 C2644 1.327 . S
C2645 C2649 1.429 . S
C2646 C2629 1.574 . S
C2646 H2640 0.949 . S
C2646 C2650 1.368 . S
C2647 C2628 1.429 . S
C2647 C2641 1.429 . S
C2647 C2648 1.523 . S
C2648 C2629 1.368 . S
C2648 C2642 1.368 . S
C2648 C2647 1.523 . S
C2649 C2633 1.429 . S
C2649 C2645 1.429 . S
C2649 C2650 1.523 . S
C2650 C2634 1.368 . S
C2650 C2646 1.368 . S
C2650 C2649 1.523 . S
H2651 C2626 0.950 . S
H2652 C2628 0.950 . S
H2653 C2629 0.949 . S
H2654 C2631 0.950 . S
H2655 C2633 0.950 . S
C2656 C2657 1.349 . S
C2656 C2658 1.327 . S
C2656 H2681 0.950 . S
C2657 C2656 1.349 . S
C2657 C2673 1.349 . S
C2658 C2656 1.327 . S
C2658 C2677 1.429 . S
C2658 H2682 0.950 . S
C2659 C2676 1.574 . S
C2659 C2678 1.368 . S
C2659 H2683 0.949 . S
H2660 C2664 0.949 . S
C2661 C2662 1.349 . S
C2661 C2663 1.327 . S
C2661 H2684 0.950 . S
C2662 C2661 1.349 . S
C2662 C2674 1.349 . S
C2663 C2661 1.327 . S
C2663 C2679 1.429 . S
C2663 H2685 0.950 . S
C2664 H2660 0.949 . S
C2664 C2672 1.574 . S
C2664 C2680 1.368 . S
H2665 C2673 0.950 . S
H2666 C2671 0.950 . S
H2667 C2672 0.949 . S
H2668 C2674 0.950 . S
H2669 C2675 0.950 . S
H2670 C2676 0.949 . S
C2671 H2666 0.950 . S
C2671 C2673 1.327 . S
C2671 C2677 1.429 . S
C2672 C2664 1.574 . S
C2672 H2667 0.949 . S
C2672 C2678 1.368 . S
C2673 C2657 1.349 . S
C2673 H2665 0.950 . S
C2673 C2671 1.327 . S
C2674 C2662 1.349 . S
C2674 H2668 0.950 . S
C2674 C2675 1.327 . S
C2675 H2669 0.950 . S
C2675 C2674 1.327 . S
C2675 C2679 1.429 . S
C2676 C2659 1.574 . S
C2676 H2670 0.949 . S
C2676 C2680 1.368 . S
C2677 C2658 1.429 . S
C2677 C2671 1.429 . S
C2677 C2678 1.523 . S
C2678 C2659 1.368 . S
C2678 C2672 1.368 . S
C2678 C2677 1.523 . S
C2679 C2663 1.429 . S
C2679 C2675 1.429 . S
C2679 C2680 1.523 . S
C2680 C2664 1.368 . S
C2680 C2676 1.368 . S
C2680 C2679 1.523 . S
H2681 C2656 0.950 . S
H2682 C2658 0.950 . S
H2683 C2659 0.949 . S
H2684 C2661 0.950 . S
H2685 C2663 0.950 . S
C2686 C2687 1.349 . S
C2686 C2688 1.327 . S
C2686 H2711 0.950 . S
C2687 C2686 1.349 . S
C2687 C2703 1.349 . S
C2688 C2686 1.327 . S
C2688 C2707 1.429 . S
C2688 H2712 0.950 . S
C2689 C2706 1.574 . S
C2689 C2708 1.368 . S
C2689 H2713 0.949 . S
H2690 C2694 0.949 . S
C2691 C2692 1.349 . S
C2691 C2693 1.327 . S
C2691 H2714 0.950 . S
C2692 C2691 1.349 . S
C2692 C2704 1.349 . S
C2693 C2691 1.327 . S
C2693 C2709 1.429 . S
C2693 H2715 0.950 . S
C2694 H2690 0.949 . S
C2694 C2702 1.574 . S
C2694 C2710 1.368 . S
H2695 C2703 0.950 . S
H2696 C2701 0.950 . S
H2697 C2702 0.949 . S
H2698 C2704 0.950 . S
H2699 C2705 0.950 . S
H2700 C2706 0.949 . S
C2701 H2696 0.950 . S
C2701 C2703 1.327 . S
C2701 C2707 1.429 . S
C2702 C2694 1.574 . S
C2702 H2697 0.949 . S
C2702 C2708 1.368 . S
C2703 C2687 1.349 . S
C2703 H2695 0.950 . S
C2703 C2701 1.327 . S
C2704 C2692 1.349 . S
C2704 H2698 0.950 . S
C2704 C2705 1.327 . S
C2705 H2699 0.950 . S
C2705 C2704 1.327 . S
C2705 C2709 1.429 . S
C2706 C2689 1.574 . S
C2706 H2700 0.949 . S
C2706 C2710 1.368 . S
C2707 C2688 1.429 . S
C2707 C2701 1.429 . S
C2707 C2708 1.523 . S
C2708 C2689 1.368 . S
C2708 C2702 1.368 . S
C2708 C2707 1.523 . S
C2709 C2693 1.429 . S
C2709 C2705 1.429 . S
C2709 C2710 1.523 . S
C2710 C2694 1.368 . S
C2710 C2706 1.368 . S
C2710 C2709 1.523 . S
H2711 C2686 0.950 . S
H2712 C2688 0.950 . S
H2713 C2689 0.949 . S
H2714 C2691 0.950 . S
H2715 C2693 0.950 . S
C2716 C2717 1.349 . S
C2716 C2718 1.327 . S
C2716 H2741 0.950 . S
C2717 C2716 1.349 . S
C2717 C2733 1.349 . S
C2718 C2716 1.327 . S
C2718 C2737 1.429 . S
C2718 H2742 0.950 . S
C2719 C2736 1.574 . S
C2719 C2738 1.368 . S
C2719 H2743 0.949 . S
H2720 C2724 0.949 . S
C2721 C2722 1.349 . S
C2721 C2723 1.327 . S
C2721 H2744 0.950 . S
C2722 C2721 1.349 . S
C2722 C2734 1.349 . S
C2723 C2721 1.327 . S
C2723 C2739 1.429 . S
C2723 H2745 0.950 . S
C2724 H2720 0.949 . S
C2724 C2732 1.574 . S
C2724 C2740 1.368 . S
H2725 C2733 0.950 . S
H2726 C2731 0.950 . S
H2727 C2732 0.949 . S
H2728 C2734 0.950 . S
H2729 C2735 0.950 . S
H2730 C2736 0.949 . S
C2731 H2726 0.950 . S
C2731 C2733 1.327 . S
C2731 C2737 1.429 . S
C2732 C2724 1.574 . S
C2732 H2727 0.949 . S
C2732 C2738 1.368 . S
C2733 C2717 1.349 . S
C2733 H2725 0.950 . S
C2733 C2731 1.327 . S
C2734 C2722 1.349 . S
C2734 H2728 0.950 . S
C2734 C2735 1.327 . S
C2735 H2729 0.950 . S
C2735 C2734 1.327 . S
C2735 C2739 1.429 . S
C2736 C2719 1.574 . S
C2736 H2730 0.949 . S
C2736 C2740 1.368 . S
C2737 C2718 1.429 . S
C2737 C2731 1.429 . S
C2737 C2738 1.523 . S
C2738 C2719 1.368 . S
C2738 C2732 1.368 . S
C2738 C2737 1.523 . S
C2739 C2723 1.429 . S
C2739 C2735 1.429 . S
C2739 C2740 1.523 . S
C2740 C2724 1.368 . S
C2740 C2736 1.368 . S
C2740 C2739 1.523 . S
H2741 C2716 0.950 . S
H2742 C2718 0.950 . S
H2743 C2719 0.949 . S
H2744 C2721 0.950 . S
H2745 C2723 0.950 . S
C2746 C2747 1.349 . S
C2746 C2748 1.327 . S
C2746 H2771 0.950 . S
C2747 C2746 1.349 . S
C2747 C2763 1.349 . S
C2748 C2746 1.327 . S
C2748 C2767 1.429 . S
C2748 H2772 0.950 . S
C2749 C2766 1.574 . S
C2749 C2768 1.368 . S
C2749 H2773 0.949 . S
H2750 C2754 0.949 . S
C2751 C2752 1.349 . S
C2751 C2753 1.327 . S
C2751 H2774 0.950 . S
C2752 C2751 1.349 . S
C2752 C2764 1.349 . S
C2753 C2751 1.327 . S
C2753 C2769 1.429 . S
C2753 H2775 0.950 . S
C2754 H2750 0.949 . S
C2754 C2762 1.574 . S
C2754 C2770 1.368 . S
H2755 C2763 0.950 . S
H2756 C2761 0.950 . S
H2757 C2762 0.949 . S
H2758 C2764 0.950 . S
H2759 C2765 0.950 . S
H2760 C2766 0.949 . S
C2761 H2756 0.950 . S
C2761 C2763 1.327 . S
C2761 C2767 1.429 . S
C2762 C2754 1.574 . S
C2762 H2757 0.949 . S
C2762 C2768 1.368 . S
C2763 C2747 1.349 . S
C2763 H2755 0.950 . S
C2763 C2761 1.327 . S
C2764 C2752 1.349 . S
C2764 H2758 0.950 . S
C2764 C2765 1.327 . S
C2765 H2759 0.950 . S
C2765 C2764 1.327 . S
C2765 C2769 1.429 . S
C2766 C2749 1.574 . S
C2766 H2760 0.949 . S
C2766 C2770 1.368 . S
C2767 C2748 1.429 . S
C2767 C2761 1.429 . S
C2767 C2768 1.523 . S
C2768 C2749 1.368 . S
C2768 C2762 1.368 . S
C2768 C2767 1.523 . S
C2769 C2753 1.429 . S
C2769 C2765 1.429 . S
C2769 C2770 1.523 . S
C2770 C2754 1.368 . S
C2770 C2766 1.368 . S
C2770 C2769 1.523 . S
H2771 C2746 0.950 . S
H2772 C2748 0.950 . S
H2773 C2749 0.949 . S
H2774 C2751 0.950 . S
H2775 C2753 0.950 . S
C2776 C2777 1.349 . S
C2776 C2778 1.327 . S
C2776 H2801 0.950 . S
C2777 C2776 1.349 . S
C2777 C2793 1.349 . S
C2778 C2776 1.327 . S
C2778 C2797 1.429 . S
C2778 H2802 0.950 . S
C2779 C2796 1.574 . S
C2779 C2798 1.368 . S
C2779 H2803 0.949 . S
H2780 C2784 0.949 . S
C2781 C2782 1.349 . S
C2781 C2783 1.327 . S
C2781 H2804 0.950 . S
C2782 C2781 1.349 . S
C2782 C2794 1.349 . S
C2783 C2781 1.327 . S
C2783 C2799 1.429 . S
C2783 H2805 0.950 . S
C2784 H2780 0.949 . S
C2784 C2792 1.574 . S
C2784 C2800 1.368 . S
H2785 C2793 0.950 . S
H2786 C2791 0.950 . S
H2787 C2792 0.949 . S
H2788 C2794 0.950 . S
H2789 C2795 0.950 . S
H2790 C2796 0.949 . S
C2791 H2786 0.950 . S
C2791 C2793 1.327 . S
C2791 C2797 1.429 . S
C2792 C2784 1.574 . S
C2792 H2787 0.949 . S
C2792 C2798 1.368 . S
C2793 C2777 1.349 . S
C2793 H2785 0.950 . S
C2793 C2791 1.327 . S
C2794 C2782 1.349 . S
C2794 H2788 0.950 . S
C2794 C2795 1.327 . S
C2795 H2789 0.950 . S
C2795 C2794 1.327 . S
C2795 C2799 1.429 . S
C2796 C2779 1.574 . S
C2796 H2790 0.949 . S
C2796 C2800 1.368 . S
C2797 C2778 1.429 . S
C2797 C2791 1.429 . S
C2797 C2798 1.523 . S
C2798 C2779 1.368 . S
C2798 C2792 1.368 . S
C2798 C2797 1.523 . S
C2799 C2783 1.429 . S
C2799 C2795 1.429 . S
C2799 C2800 1.523 . S
C2800 C2784 1.368 . S
C2800 C2796 1.368 . S
C2800 C2799 1.523 . S
H2801 C2776 0.950 . S
H2802 C2778 0.950 . S
H2803 C2779 0.949 . S
H2804 C2781 0.950 . S
H2805 C2783 0.950 . S
C2806 C2807 1.349 . S
C2806 C2808 1.327 . S
C2806 H2831 0.950 . S
C2807 C2806 1.349 . S
C2807 C2823 1.349 . S
C2808 C2806 1.327 . S
C2808 C2827 1.429 . S
C2808 H2832 0.950 . S
C2809 C2826 1.574 . S
C2809 C2828 1.368 . S
C2809 H2833 0.949 . S
H2810 C2814 0.949 . S
C2811 C2812 1.349 . S
C2811 C2813 1.327 . S
C2811 H2834 0.950 . S
C2812 C2811 1.349 . S
C2812 C2824 1.349 . S
C2813 C2811 1.327 . S
C2813 C2829 1.429 . S
C2813 H2835 0.950 . S
C2814 H2810 0.949 . S
C2814 C2822 1.574 . S
C2814 C2830 1.368 . S
H2815 C2823 0.950 . S
H2816 C2821 0.950 . S
H2817 C2822 0.949 . S
H2818 C2824 0.950 . S
H2819 C2825 0.950 . S
H2820 C2826 0.949 . S
C2821 H2816 0.950 . S
C2821 C2823 1.327 . S
C2821 C2827 1.429 . S
C2822 C2814 1.574 . S
C2822 H2817 0.949 . S
C2822 C2828 1.368 . S
C2823 C2807 1.349 . S
C2823 H2815 0.950 . S
C2823 C2821 1.327 . S
C2824 C2812 1.349 . S
C2824 H2818 0.950 . S
C2824 C2825 1.327 . S
C2825 H2819 0.950 . S
C2825 C2824 1.327 . S
C2825 C2829 1.429 . S
C2826 C2809 1.574 . S
C2826 H2820 0.949 . S
C2826 C2830 1.368 . S
C2827 C2808 1.429 . S
C2827 C2821 1.429 . S
C2827 C2828 1.523 . S
C2828 C2809 1.368 . S
C2828 C2822 1.368 . S
C2828 C2827 1.523 . S
C2829 C2813 1.429 . S
C2829 C2825 1.429 . S
C2829 C2830 1.523 . S
C2830 C2814 1.368 . S
C2830 C2826 1.368 . S
C2830 C2829 1.523 . S
H2831 C2806 0.950 . S
H2832 C2808 0.950 . S
H2833 C2809 0.949 . S
H2834 C2811 0.950 . S
H2835 C2813 0.950 . S
C2836 C2837 1.349 . S
C2836 C2838 1.327 . S
C2836 H2861 0.950 . S
C2837 C2836 1.349 . S
C2837 C2853 1.349 . S
C2838 C2836 1.327 . S
C2838 C2857 1.429 . S
C2838 H2862 0.950 . S
C2839 C2856 1.574 . S
C2839 C2858 1.368 . S
C2839 H2863 0.949 . S
H2840 C2844 0.949 . S
C2841 C2842 1.349 . S
C2841 C2843 1.327 . S
C2841 H2864 0.950 . S
C2842 C2841 1.349 . S
C2842 C2854 1.349 . S
C2843 C2841 1.327 . S
C2843 C2859 1.429 . S
C2843 H2865 0.950 . S
C2844 H2840 0.949 . S
C2844 C2852 1.574 . S
C2844 C2860 1.368 . S
H2845 C2853 0.950 . S
H2846 C2851 0.950 . S
H2847 C2852 0.949 . S
H2848 C2854 0.950 . S
H2849 C2855 0.950 . S
H2850 C2856 0.949 . S
C2851 H2846 0.950 . S
C2851 C2853 1.327 . S
C2851 C2857 1.429 . S
C2852 C2844 1.574 . S
C2852 H2847 0.949 . S
C2852 C2858 1.368 . S
C2853 C2837 1.349 . S
C2853 H2845 0.950 . S
C2853 C2851 1.327 . S
C2854 C2842 1.349 . S
C2854 H2848 0.950 . S
C2854 C2855 1.327 . S
C2855 H2849 0.950 . S
C2855 C2854 1.327 . S
C2855 C2859 1.429 . S
C2856 C2839 1.574 . S
C2856 H2850 0.949 . S
C2856 C2860 1.368 . S
C2857 C2838 1.429 . S
C2857 C2851 1.429 . S
C2857 C2858 1.523 . S
C2858 C2839 1.368 . S
C2858 C2852 1.368 . S
C2858 C2857 1.523 . S
C2859 C2843 1.429 . S
C2859 C2855 1.429 . S
C2859 C2860 1.523 . S
C2860 C2844 1.368 . S
C2860 C2856 1.368 . S
C2860 C2859 1.523 . S
H2861 C2836 0.950 . S
H2862 C2838 0.950 . S
H2863 C2839 0.949 . S
H2864 C2841 0.950 . S
H2865 C2843 0.950 . S
C2866 C2867 1.349 . S
C2866 C2868 1.327 . S
C2866 H2891 0.950 . S
C2867 C2866 1.349 . S
C2867 C2883 1.349 . S
C2868 C2866 1.327 . S
C2868 C2887 1.429 . S
C2868 H2892 0.950 . S
C2869 C2886 1.574 . S
C2869 C2888 1.368 . S
C2869 H2893 0.949 . S
H2870 C2874 0.949 . S
C2871 C2872 1.349 . S
C2871 C2873 1.327 . S
C2871 H2894 0.950 . S
C2872 C2871 1.349 . S
C2872 C2884 1.349 . S
C2873 C2871 1.327 . S
C2873 C2889 1.429 . S
C2873 H2895 0.950 . S
C2874 H2870 0.949 . S
C2874 C2882 1.574 . S
C2874 C2890 1.368 . S
H2875 C2883 0.950 . S
H2876 C2881 0.950 . S
H2877 C2882 0.949 . S
H2878 C2884 0.950 . S
H2879 C2885 0.950 . S
H2880 C2886 0.949 . S
C2881 H2876 0.950 . S
C2881 C2883 1.327 . S
C2881 C2887 1.429 . S
C2882 C2874 1.574 . S
C2882 H2877 0.949 . S
C2882 C2888 1.368 . S
C2883 C2867 1.349 . S
C2883 H2875 0.950 . S
C2883 C2881 1.327 . S
C2884 C2872 1.349 . S
C2884 H2878 0.950 . S
C2884 C2885 1.327 . S
C2885 H2879 0.950 . S
C2885 C2884 1.327 . S
C2885 C2889 1.429 . S
C2886 C2869 1.574 . S
C2886 H2880 0.949 . S
C2886 C2890 1.368 . S
C2887 C2868 1.429 . S
C2887 C2881 1.429 . S
C2887 C2888 1.523 . S
C2888 C2869 1.368 . S
C2888 C2882 1.368 . S
C2888 C2887 1.523 . S
C2889 C2873 1.429 . S
C2889 C2885 1.429 . S
C2889 C2890 1.523 . S
C2890 C2874 1.368 . S
C2890 C2886 1.368 . S
C2890 C2889 1.523 . S
H2891 C2866 0.950 . S
H2892 C2868 0.950 . S
H2893 C2869 0.949 . S
H2894 C2871 0.950 . S
H2895 C2873 0.950 . S
C2896 C2897 1.349 . S
C2896 C2898 1.327 . S
C2896 H2921 0.950 . S
C2897 C2896 1.349 . S
C2897 C2913 1.349 . S
C2898 C2896 1.327 . S
C2898 C2917 1.429 . S
C2898 H2922 0.950 . S
C2899 C2916 1.574 . S
C2899 C2918 1.368 . S
C2899 H2923 0.949 . S
H2900 C2904 0.949 . S
C2901 C2902 1.349 . S
C2901 C2903 1.327 . S
C2901 H2924 0.950 . S
C2902 C2901 1.349 . S
C2902 C2914 1.349 . S
C2903 C2901 1.327 . S
C2903 C2919 1.429 . S
C2903 H2925 0.950 . S
C2904 H2900 0.949 . S
C2904 C2912 1.574 . S
C2904 C2920 1.368 . S
H2905 C2913 0.950 . S
H2906 C2911 0.950 . S
H2907 C2912 0.949 . S
H2908 C2914 0.950 . S
H2909 C2915 0.950 . S
H2910 C2916 0.949 . S
C2911 H2906 0.950 . S
C2911 C2913 1.327 . S
C2911 C2917 1.429 . S
C2912 C2904 1.574 . S
C2912 H2907 0.949 . S
C2912 C2918 1.368 . S
C2913 C2897 1.349 . S
C2913 H2905 0.950 . S
C2913 C2911 1.327 . S
C2914 C2902 1.349 . S
C2914 H2908 0.950 . S
C2914 C2915 1.327 . S
C2915 H2909 0.950 . S
C2915 C2914 1.327 . S
C2915 C2919 1.429 . S
C2916 C2899 1.574 . S
C2916 H2910 0.949 . S
C2916 C2920 1.368 . S
C2917 C2898 1.429 . S
C2917 C2911 1.429 . S
C2917 C2918 1.523 . S
C2918 C2899 1.368 . S
C2918 C2912 1.368 . S
C2918 C2917 1.523 . S
C2919 C2903 1.429 . S
C2919 C2915 1.429 . S
C2919 C2920 1.523 . S
C2920 C2904 1.368 . S
C2920 C2916 1.368 . S
C2920 C2919 1.523 . S
H2921 C2896 0.950 . S
H2922 C2898 0.950 . S
H2923 C2899 0.949 . S
H2924 C2901 0.950 . S
H2925 C2903 0.950 . S
C2926 C2927 1.349 . S
C2926 C2928 1.327 . S
C2926 H2951 0.950 . S
C2927 C2926 1.349 . S
C2927 C2943 1.349 . S
C2928 C2926 1.327 . S
C2928 C2947 1.429 . S
C2928 H2952 0.950 . S
C2929 C2946 1.574 . S
C2929 C2948 1.368 . S
C2929 H2953 0.949 . S
H2930 C2934 0.949 . S
C2931 C2932 1.349 . S
C2931 C2933 1.327 . S
C2931 H2954 0.950 . S
C2932 C2931 1.349 . S
C2932 C2944 1.349 . S
C2933 C2931 1.327 . S
C2933 C2949 1.429 . S
C2933 H2955 0.950 . S
C2934 H2930 0.949 . S
C2934 C2942 1.574 . S
C2934 C2950 1.368 . S
H2935 C2943 0.950 . S
H2936 C2941 0.950 . S
H2937 C2942 0.949 . S
H2938 C2944 0.950 . S
H2939 C2945 0.950 . S
H2940 C2946 0.949 . S
C2941 H2936 0.950 . S
C2941 C2943 1.327 . S
C2941 C2947 1.429 . S
C2942 C2934 1.574 . S
C2942 H2937 0.949 . S
C2942 C2948 1.368 . S
C2943 C2927 1.349 . S
C2943 H2935 0.950 . S
C2943 C2941 1.327 . S
C2944 C2932 1.349 . S
C2944 H2938 0.950 . S
C2944 C2945 1.327 . S
C2945 H2939 0.950 . S
C2945 C2944 1.327 . S
C2945 C2949 1.429 . S
C2946 C2929 1.574 . S
C2946 H2940 0.949 . S
C2946 C2950 1.368 . S
C2947 C2928 1.429 . S
C2947 C2941 1.429 . S
C2947 C2948 1.523 . S
C2948 C2929 1.368 . S
C2948 C2942 1.368 . S
C2948 C2947 1.523 . S
C2949 C2933 1.429 . S
C2949 C2945 1.429 . S
C2949 C2950 1.523 . S
C2950 C2934 1.368 . S
C2950 C2946 1.368 . S
C2950 C2949 1.523 . S
H2951 C2926 0.950 . S
H2952 C2928 0.950 . S
H2953 C2929 0.949 . S
H2954 C2931 0.950 . S
H2955 C2933 0.950 . S
C2956 C2957 1.349 . S
C2956 C2958 1.327 . S
C2956 H2981 0.950 . S
C2957 C2956 1.349 . S
C2957 C2973 1.349 . S
C2958 C2956 1.327 . S
C2958 C2977 1.429 . S
C2958 H2982 0.950 . S
C2959 C2976 1.574 . S
C2959 C2978 1.368 . S
C2959 H2983 0.949 . S
H2960 C2964 0.949 . S
C2961 C2962 1.349 . S
C2961 C2963 1.327 . S
C2961 H2984 0.950 . S
C2962 C2961 1.349 . S
C2962 C2974 1.349 . S
C2963 C2961 1.327 . S
C2963 C2979 1.429 . S
C2963 H2985 0.950 . S
C2964 H2960 0.949 . S
C2964 C2972 1.574 . S
C2964 C2980 1.368 . S
H2965 C2973 0.950 . S
H2966 C2971 0.950 . S
H2967 C2972 0.949 . S
H2968 C2974 0.950 . S
H2969 C2975 0.950 . S
H2970 C2976 0.949 . S
C2971 H2966 0.950 . S
C2971 C2973 1.327 . S
C2971 C2977 1.429 . S
C2972 C2964 1.574 . S
C2972 H2967 0.949 . S
C2972 C2978 1.368 . S
C2973 C2957 1.349 . S
C2973 H2965 0.950 . S
C2973 C2971 1.327 . S
C2974 C2962 1.349 . S
C2974 H2968 0.950 . S
C2974 C2975 1.327 . S
C2975 H2969 0.950 . S
C2975 C2974 1.327 . S
C2975 C2979 1.429 . S
C2976 C2959 1.574 . S
C2976 H2970 0.949 . S
C2976 C2980 1.368 . S
C2977 C2958 1.429 . S
C2977 C2971 1.429 . S
C2977 C2978 1.523 . S
C2978 C2959 1.368 . S
C2978 C2972 1.368 . S
C2978 C2977 1.523 . S
C2979 C2963 1.429 . S
C2979 C2975 1.429 . S
C2979 C2980 1.523 . S
C2980 C2964 1.368 . S
C2980 C2976 1.368 . S
C2980 C2979 1.523 . S
H2981 C2956 0.950 . S
H2982 C2958 0.950 . S
H2983 C2959 0.949 . S
H2984 C2961 0.950 . S
H2985 C2963 0.950 . S
C2986 C2987 1.349 . S
C2986 C2988 1.327 . S
C2986 H3011 0.950 . S
C2987 C2986 1.349 . S
C2987 C3003 1.349 1_554 S
C2988 C2986 1.327 . S
C2988 C3007 1.429 . S
C2988 H3012 0.950 . S
C2989 C3006 1.588 1_556 S
C2989 C3008 1.316 1_556 S
C2989 H3013 0.991 . S
H2990 C2994 0.949 . S
C2991 C2992 1.349 . S
C2991 C2993 1.327 . S
C2991 H3014 0.950 1_554 S
C2992 C2991 1.349 . S
C2992 C3004 1.349 . S
C2993 C2991 1.327 . S
C2993 C3009 1.429 1_545 S
C2993 H3015 0.945 1_554 S
C2994 H2990 0.949 . S
C2994 C3002 1.574 . S
C2994 C3010 1.368 . S
H2995 C3003 0.950 . S
H2996 C3001 0.950 . S
H2997 C3002 0.949 . S
H2998 C3004 0.950 . S
H2999 C3005 0.936 1_565 S
H3000 C3006 0.906 1_556 S
C3001 H2996 0.950 . S
C3001 C3003 1.327 . S
C3001 C3007 1.429 1_556 S
C3002 C2994 1.574 . S
C3002 H2997 0.949 . S
C3002 C3008 1.368 . S
C3003 C2987 1.349 1_556 S
C3003 H2995 0.950 . S
C3003 C3001 1.327 . S
C3004 C2992 1.349 . S
C3004 H2998 0.950 . S
C3004 C3005 1.338 . S
C3005 H2999 0.936 1_545 S
C3005 C3004 1.338 . S
C3005 C3009 1.433 1_545 S
C3006 C2989 1.588 1_554 S
C3006 H3000 0.906 1_554 S
C3006 C3010 1.411 . S
C3007 C2988 1.429 . S
C3007 C3001 1.429 1_554 S
C3007 C3008 1.523 . S
C3008 C2989 1.316 1_554 S
C3008 C3002 1.368 . S
C3008 C3007 1.523 . S
C3009 C2993 1.429 1_565 S
C3009 C3005 1.433 1_565 S
C3009 C3010 1.523 . S
C3010 C2994 1.368 . S
C3010 C3006 1.411 . S
C3010 C3009 1.523 . S
H3011 C2986 0.950 . S
H3012 C2988 0.950 . S
H3013 C2989 0.991 . S
H3014 C2991 0.950 1_556 S
H3015 C2993 0.945 1_556 S
C3016 C3017 1.349 . S
C3016 C3018 1.327 . S
C3016 H3041 0.950 . S
C3017 C3016 1.349 . S
C3017 C3033 1.349 . S
C3018 C3016 1.327 . S
C3018 C3037 1.429 . S
C3018 H3042 0.950 . S
C3019 C3036 1.574 . S
C3019 C3038 1.368 . S
C3019 H3043 0.949 . S
H3020 C3024 0.949 . S
C3021 C3022 1.349 . S
C3021 C3023 1.327 . S
C3021 H3044 0.950 . S
C3022 C3021 1.349 . S
C3022 C3034 1.349 . S
C3023 C3021 1.327 . S
C3023 C3039 1.429 . S
C3023 H3045 0.950 . S
C3024 H3020 0.949 . S
C3024 C3032 1.574 . S
C3024 C3040 1.368 . S
H3025 C3033 0.950 . S
H3026 C3031 0.950 . S
H3027 C3032 0.949 . S
H3028 C3034 0.950 . S
H3029 C3035 0.950 . S
H3030 C3036 0.949 . S
C3031 H3026 0.950 . S
C3031 C3033 1.327 . S
C3031 C3037 1.429 . S
C3032 C3024 1.574 . S
C3032 H3027 0.949 . S
C3032 C3038 1.368 . S
C3033 C3017 1.349 . S
C3033 H3025 0.950 . S
C3033 C3031 1.327 . S
C3034 C3022 1.349 . S
C3034 H3028 0.950 . S
C3034 C3035 1.327 . S
C3035 H3029 0.950 . S
C3035 C3034 1.327 . S
C3035 C3039 1.429 . S
C3036 C3019 1.574 . S
C3036 H3030 0.949 . S
C3036 C3040 1.368 . S
C3037 C3018 1.429 . S
C3037 C3031 1.429 . S
C3037 C3038 1.523 . S
C3038 C3019 1.368 . S
C3038 C3032 1.368 . S
C3038 C3037 1.523 . S
C3039 C3023 1.429 . S
C3039 C3035 1.429 . S
C3039 C3040 1.523 . S
C3040 C3024 1.368 . S
C3040 C3036 1.368 . S
C3040 C3039 1.523 . S
H3041 C3016 0.950 . S
H3042 C3018 0.950 . S
H3043 C3019 0.949 . S
H3044 C3021 0.950 . S
H3045 C3023 0.950 . S
C3046 C3047 1.349 . S
C3046 C3048 1.327 . S
C3046 H3071 0.950 . S
C3047 C3046 1.349 . S
C3047 C3063 1.349 . S
C3048 C3046 1.327 . S
C3048 C3067 1.429 . S
C3048 H3072 0.950 . S
C3049 C3066 1.574 . S
C3049 C3068 1.368 . S
C3049 H3073 0.949 . S
H3050 C3054 0.949 . S
C3051 C3052 1.349 . S
C3051 C3053 1.327 . S
C3051 H3074 0.950 . S
C3052 C3051 1.349 . S
C3052 C3064 1.349 . S
C3053 C3051 1.327 . S
C3053 C3069 1.429 . S
C3053 H3075 0.950 . S
C3054 H3050 0.949 . S
C3054 C3062 1.574 . S
C3054 C3070 1.368 . S
H3055 C3063 0.950 1_556 S
H3056 C3061 0.950 . S
H3057 C3062 0.949 . S
H3058 C3064 0.950 . S
H3059 C3065 0.950 . S
H3060 C3066 0.949 . S
C3061 H3056 0.950 . S
C3061 C3063 1.327 . S
C3061 C3067 1.429 . S
C3062 C3054 1.574 . S
C3062 H3057 0.949 . S
C3062 C3068 1.368 . S
C3063 C3047 1.349 . S
C3063 H3055 0.950 1_554 S
C3063 C3061 1.327 . S
C3064 C3052 1.349 . S
C3064 H3058 0.950 . S
C3064 C3065 1.327 . S
C3065 H3059 0.950 . S
C3065 C3064 1.327 . S
C3065 C3069 1.429 . S
C3066 C3049 1.574 . S
C3066 H3060 0.949 . S
C3066 C3070 1.368 . S
C3067 C3048 1.429 . S
C3067 C3061 1.429 . S
C3067 C3068 1.523 . S
C3068 C3049 1.368 . S
C3068 C3062 1.368 . S
C3068 C3067 1.523 . S
C3069 C3053 1.429 . S
C3069 C3065 1.429 . S
C3069 C3070 1.523 . S
C3070 C3054 1.368 . S
C3070 C3066 1.368 . S
C3070 C3069 1.523 . S
H3071 C3046 0.950 . S
H3072 C3048 0.950 . S
H3073 C3049 0.949 . S
H3074 C3051 0.950 . S
H3075 C3053 0.950 . S
C3076 C3077 1.349 . S
C3076 C3078 1.327 . S
C3076 H3101 0.950 . S
C3077 C3076 1.349 . S
C3077 C3093 1.349 . S
C3078 C3076 1.327 . S
C3078 C3097 1.429 . S
C3078 H3102 0.950 . S
C3079 C3096 1.574 . S
C3079 C3098 1.368 . S
C3079 H3103 0.949 . S
H3080 C3084 0.949 . S
C3081 C3082 1.349 . S
C3081 C3083 1.327 . S
C3081 H3104 0.950 . S
C3082 C3081 1.349 . S
C3082 C3094 1.349 . S
C3083 C3081 1.327 . S
C3083 C3099 1.429 . S
C3083 H3105 0.950 . S
C3084 H3080 0.949 . S
C3084 C3092 1.574 . S
C3084 C3100 1.368 . S
H3085 C3093 0.950 . S
H3086 C3091 0.950 . S
H3087 C3092 0.949 . S
H3088 C3094 0.950 . S
H3089 C3095 0.950 . S
H3090 C3096 0.949 . S
C3091 H3086 0.950 . S
C3091 C3093 1.327 . S
C3091 C3097 1.429 . S
C3092 C3084 1.574 . S
C3092 H3087 0.949 . S
C3092 C3098 1.368 . S
C3093 C3077 1.349 . S
C3093 H3085 0.950 . S
C3093 C3091 1.327 . S
C3094 C3082 1.349 . S
C3094 H3088 0.950 . S
C3094 C3095 1.327 . S
C3095 H3089 0.950 . S
C3095 C3094 1.327 . S
C3095 C3099 1.429 . S
C3096 C3079 1.574 . S
C3096 H3090 0.949 . S
C3096 C3100 1.368 . S
C3097 C3078 1.429 . S
C3097 C3091 1.429 . S
C3097 C3098 1.523 . S
C3098 C3079 1.368 . S
C3098 C3092 1.368 . S
C3098 C3097 1.523 . S
C3099 C3083 1.429 . S
C3099 C3095 1.429 . S
C3099 C3100 1.523 . S
C3100 C3084 1.368 . S
C3100 C3096 1.368 . S
C3100 C3099 1.523 . S
H3101 C3076 0.950 . S
H3102 C3078 0.950 . S
H3103 C3079 0.949 . S
H3104 C3081 0.950 . S
H3105 C3083 0.950 . S
C3106 C3107 1.349 . S
C3106 C3108 1.327 . S
C3106 H3131 0.950 . S
C3107 C3106 1.349 . S
C3107 C3123 1.349 . S
C3108 C3106 1.327 . S
C3108 C3127 1.429 . S
C3108 H3132 0.950 . S
C3109 C3126 1.574 . S
C3109 C3128 1.368 . S
C3109 H3133 0.949 . S
H3110 C3114 0.949 . S
C3111 C3112 1.349 . S
C3111 C3113 1.327 . S
C3111 H3134 0.950 . S
C3112 C3111 1.349 . S
C3112 C3124 1.349 . S
C3113 C3111 1.327 . S
C3113 C3129 1.429 . S
C3113 H3135 0.950 . S
C3114 H3110 0.949 . S
C3114 C3122 1.574 . S
C3114 C3130 1.368 . S
H3115 C3123 0.950 . S
H3116 C3121 0.950 . S
H3117 C3122 0.949 . S
H3118 C3124 0.950 . S
H3119 C3125 0.950 . S
H3120 C3126 0.949 . S
C3121 H3116 0.950 . S
C3121 C3123 1.327 . S
C3121 C3127 1.429 . S
C3122 C3114 1.574 . S
C3122 H3117 0.949 . S
C3122 C3128 1.368 . S
C3123 C3107 1.349 . S
C3123 H3115 0.950 . S
C3123 C3121 1.327 . S
C3124 C3112 1.349 . S
C3124 H3118 0.950 . S
C3124 C3125 1.327 . S
C3125 H3119 0.950 . S
C3125 C3124 1.327 . S
C3125 C3129 1.429 . S
C3126 C3109 1.574 . S
C3126 H3120 0.949 . S
C3126 C3130 1.368 . S
C3127 C3108 1.429 . S
C3127 C3121 1.429 . S
C3127 C3128 1.523 . S
C3128 C3109 1.368 . S
C3128 C3122 1.368 . S
C3128 C3127 1.523 . S
C3129 C3113 1.429 . S
C3129 C3125 1.429 . S
C3129 C3130 1.523 . S
C3130 C3114 1.368 . S
C3130 C3126 1.368 . S
C3130 C3129 1.523 . S
H3131 C3106 0.950 . S
H3132 C3108 0.950 . S
H3133 C3109 0.949 . S
H3134 C3111 0.950 . S
H3135 C3113 0.950 . S
C3136 C3137 1.349 . S
C3136 C3138 1.327 . S
C3136 H3161 0.950 . S
C3137 C3136 1.349 . S
C3137 C3153 1.349 . S
C3138 C3136 1.327 . S
C3138 C3157 1.429 . S
C3138 H3162 0.950 . S
C3139 C3156 1.574 . S
C3139 C3158 1.368 . S
C3139 H3163 0.949 . S
H3140 C3144 0.949 . S
C3141 C3142 1.349 . S
C3141 C3143 1.327 . S
C3141 H3164 0.950 . S
C3142 C3141 1.349 . S
C3142 C3154 1.349 . S
C3143 C3141 1.327 . S
C3143 C3159 1.429 . S
C3143 H3165 0.950 . S
C3144 H3140 0.949 . S
C3144 C3152 1.574 . S
C3144 C3160 1.368 . S
H3145 C3153 0.950 . S
H3146 C3151 0.950 . S
H3147 C3152 0.949 . S
H3148 C3154 0.950 . S
H3149 C3155 0.950 . S
H3150 C3156 0.949 . S
C3151 H3146 0.950 . S
C3151 C3153 1.327 . S
C3151 C3157 1.429 . S
C3152 C3144 1.574 . S
C3152 H3147 0.949 . S
C3152 C3158 1.368 . S
C3153 C3137 1.349 . S
C3153 H3145 0.950 . S
C3153 C3151 1.327 . S
C3154 C3142 1.349 . S
C3154 H3148 0.950 . S
C3154 C3155 1.327 . S
C3155 H3149 0.950 . S
C3155 C3154 1.327 . S
C3155 C3159 1.429 . S
C3156 C3139 1.574 . S
C3156 H3150 0.949 . S
C3156 C3160 1.368 . S
C3157 C3138 1.429 . S
C3157 C3151 1.429 . S
C3157 C3158 1.523 . S
C3158 C3139 1.368 . S
C3158 C3152 1.368 . S
C3158 C3157 1.523 . S
C3159 C3143 1.429 . S
C3159 C3155 1.429 . S
C3159 C3160 1.523 . S
C3160 C3144 1.368 . S
C3160 C3156 1.368 . S
C3160 C3159 1.523 . S
H3161 C3136 0.950 . S
H3162 C3138 0.950 . S
H3163 C3139 0.949 . S
H3164 C3141 0.950 . S
H3165 C3143 0.950 . S
C3166 C3167 1.349 . S
C3166 C3168 1.327 . S
C3166 H3191 0.950 . S
C3167 C3166 1.349 . S
C3167 C3183 1.349 . S
C3168 C3166 1.327 . S
C3168 C3187 1.429 . S
C3168 H3192 0.950 . S
C3169 C3186 1.574 . S
C3169 C3188 1.368 . S
C3169 H3193 0.949 . S
H3170 C3174 0.949 . S
C3171 C3172 1.349 . S
C3171 C3173 1.327 . S
C3171 H3194 0.950 . S
C3172 C3171 1.349 . S
C3172 C3184 1.349 . S
C3173 C3171 1.327 . S
C3173 C3189 1.429 . S
C3173 H3195 0.950 . S
C3174 H3170 0.949 . S
C3174 C3182 1.574 . S
C3174 C3190 1.368 . S
H3175 C3183 0.950 . S
H3176 C3181 0.950 . S
H3177 C3182 0.949 . S
H3178 C3184 0.950 . S
H3179 C3185 0.950 . S
H3180 C3186 0.949 . S
C3181 H3176 0.950 . S
C3181 C3183 1.327 . S
C3181 C3187 1.429 . S
C3182 C3174 1.574 . S
C3182 H3177 0.949 . S
C3182 C3188 1.368 . S
C3183 C3167 1.349 . S
C3183 H3175 0.950 . S
C3183 C3181 1.327 . S
C3184 C3172 1.349 . S
C3184 H3178 0.950 . S
C3184 C3185 1.327 . S
C3185 H3179 0.950 . S
C3185 C3184 1.327 . S
C3185 C3189 1.429 . S
C3186 C3169 1.574 . S
C3186 H3180 0.949 . S
C3186 C3190 1.368 . S
C3187 C3168 1.429 . S
C3187 C3181 1.429 . S
C3187 C3188 1.523 . S
C3188 C3169 1.368 . S
C3188 C3182 1.368 . S
C3188 C3187 1.523 . S
C3189 C3173 1.429 . S
C3189 C3185 1.429 . S
C3189 C3190 1.523 . S
C3190 C3174 1.368 . S
C3190 C3186 1.368 . S
C3190 C3189 1.523 . S
H3191 C3166 0.950 . S
H3192 C3168 0.950 . S
H3193 C3169 0.949 . S
H3194 C3171 0.950 . S
H3195 C3173 0.950 . S
C3196 C3197 1.349 . S
C3196 C3198 1.327 . S
C3196 H3221 0.950 . S
C3197 C3196 1.349 . S
C3197 C3213 1.349 . S
C3198 C3196 1.327 . S
C3198 C3217 1.429 . S
C3198 H3222 0.950 . S
C3199 C3216 1.574 . S
C3199 C3218 1.368 . S
C3199 H3223 0.949 . S
H3200 C3204 0.949 . S
C3201 C3202 1.349 . S
C3201 C3203 1.327 . S
C3201 H3224 0.950 . S
C3202 C3201 1.349 . S
C3202 C3214 1.349 . S
C3203 C3201 1.327 . S
C3203 C3219 1.429 . S
C3203 H3225 0.950 . S
C3204 H3200 0.949 . S
C3204 C3212 1.574 . S
C3204 C3220 1.368 . S
H3205 C3213 0.950 . S
H3206 C3211 0.950 . S
H3207 C3212 0.949 . S
H3208 C3214 0.950 . S
H3209 C3215 0.950 . S
H3210 C3216 0.949 . S
C3211 H3206 0.950 . S
C3211 C3213 1.327 . S
C3211 C3217 1.429 . S
C3212 C3204 1.574 . S
C3212 H3207 0.949 . S
C3212 C3218 1.368 . S
C3213 C3197 1.349 . S
C3213 H3205 0.950 . S
C3213 C3211 1.327 . S
C3214 C3202 1.349 . S
C3214 H3208 0.950 . S
C3214 C3215 1.327 . S
C3215 H3209 0.950 . S
C3215 C3214 1.327 . S
C3215 C3219 1.429 . S
C3216 C3199 1.574 . S
C3216 H3210 0.949 . S
C3216 C3220 1.368 . S
C3217 C3198 1.429 . S
C3217 C3211 1.429 . S
C3217 C3218 1.523 . S
C3218 C3199 1.368 . S
C3218 C3212 1.368 . S
C3218 C3217 1.523 . S
C3219 C3203 1.429 . S
C3219 C3215 1.429 . S
C3219 C3220 1.523 . S
C3220 C3204 1.368 . S
C3220 C3216 1.368 . S
C3220 C3219 1.523 . S
H3221 C3196 0.950 . S
H3222 C3198 0.950 . S
H3223 C3199 0.949 . S
H3224 C3201 0.950 . S
H3225 C3203 0.950 . S
C3226 C3227 1.349 . S
C3226 C3228 1.327 . S
C3226 H3251 0.950 . S
C3227 C3226 1.349 . S
C3227 C3243 1.349 . S
C3228 C3226 1.327 . S
C3228 C3247 1.429 . S
C3228 H3252 0.950 . S
C3229 C3246 1.574 . S
C3229 C3248 1.368 . S
C3229 H3253 0.949 . S
H3230 C3234 0.949 . S
C3231 C3232 1.349 . S
C3231 C3233 1.327 . S
C3231 H3254 0.950 . S
C3232 C3231 1.349 . S
C3232 C3244 1.349 . S
C3233 C3231 1.327 . S
C3233 C3249 1.429 . S
C3233 H3255 0.950 . S
C3234 H3230 0.949 . S
C3234 C3242 1.574 . S
C3234 C3250 1.368 . S
H3235 C3243 0.950 . S
H3236 C3241 0.950 . S
H3237 C3242 0.949 . S
H3238 C3244 0.950 . S
H3239 C3245 0.950 . S
H3240 C3246 0.949 . S
C3241 H3236 0.950 . S
C3241 C3243 1.327 . S
C3241 C3247 1.429 . S
C3242 C3234 1.574 . S
C3242 H3237 0.949 . S
C3242 C3248 1.368 . S
C3243 C3227 1.349 . S
C3243 H3235 0.950 . S
C3243 C3241 1.327 . S
C3244 C3232 1.349 . S
C3244 H3238 0.950 . S
C3244 C3245 1.327 . S
C3245 H3239 0.950 . S
C3245 C3244 1.327 . S
C3245 C3249 1.429 . S
C3246 C3229 1.574 . S
C3246 H3240 0.949 . S
C3246 C3250 1.368 . S
C3247 C3228 1.429 . S
C3247 C3241 1.429 . S
C3247 C3248 1.523 . S
C3248 C3229 1.368 . S
C3248 C3242 1.368 . S
C3248 C3247 1.523 . S
C3249 C3233 1.429 . S
C3249 C3245 1.429 . S
C3249 C3250 1.523 . S
C3250 C3234 1.368 . S
C3250 C3246 1.368 . S
C3250 C3249 1.523 . S
H3251 C3226 0.950 . S
H3252 C3228 0.950 . S
H3253 C3229 0.949 . S
H3254 C3231 0.950 . S
H3255 C3233 0.950 . S
C3256 C3257 1.349 . S
C3256 C3258 1.327 . S
C3256 H3281 0.950 . S
C3257 C3256 1.349 . S
C3257 C3273 1.349 . S
C3258 C3256 1.327 . S
C3258 C3277 1.429 . S
C3258 H3282 0.950 . S
C3259 C3276 1.574 . S
C3259 C3278 1.368 . S
C3259 H3283 0.949 . S
H3260 C3264 0.949 . S
C3261 C3262 1.349 . S
C3261 C3263 1.327 . S
C3261 H3284 0.950 . S
C3262 C3261 1.349 . S
C3262 C3274 1.349 . S
C3263 C3261 1.327 . S
C3263 C3279 1.429 . S
C3263 H3285 0.950 . S
C3264 H3260 0.949 . S
C3264 C3272 1.574 . S
C3264 C3280 1.368 . S
H3265 C3273 0.950 . S
H3266 C3271 0.950 . S
H3267 C3272 0.949 . S
H3268 C3274 0.950 . S
H3269 C3275 0.950 . S
H3270 C3276 0.949 . S
C3271 H3266 0.950 . S
C3271 C3273 1.327 . S
C3271 C3277 1.429 . S
C3272 C3264 1.574 . S
C3272 H3267 0.949 . S
C3272 C3278 1.368 . S
C3273 C3257 1.349 . S
C3273 H3265 0.950 . S
C3273 C3271 1.327 . S
C3274 C3262 1.349 . S
C3274 H3268 0.950 . S
C3274 C3275 1.327 . S
C3275 H3269 0.950 . S
C3275 C3274 1.327 . S
C3275 C3279 1.429 . S
C3276 C3259 1.574 . S
C3276 H3270 0.949 . S
C3276 C3280 1.368 . S
C3277 C3258 1.429 . S
C3277 C3271 1.429 . S
C3277 C3278 1.523 . S
C3278 C3259 1.368 . S
C3278 C3272 1.368 . S
C3278 C3277 1.523 . S
C3279 C3263 1.429 . S
C3279 C3275 1.429 . S
C3279 C3280 1.523 . S
C3280 C3264 1.368 . S
C3280 C3276 1.368 . S
C3280 C3279 1.523 . S
H3281 C3256 0.950 . S
H3282 C3258 0.950 . S
H3283 C3259 0.949 . S
H3284 C3261 0.950 . S
H3285 C3263 0.950 . S
C3286 C3287 1.349 . S
C3286 C3288 1.327 . S
C3286 H3311 0.950 . S
C3287 C3286 1.349 . S
C3287 C3303 1.349 . S
C3288 C3286 1.327 . S
C3288 C3307 1.429 . S
C3288 H3312 0.950 . S
C3289 C3306 1.574 . S
C3289 C3308 1.368 . S
C3289 H3313 0.949 . S
H3290 C3294 0.949 . S
C3291 C3292 1.349 . S
C3291 C3293 1.327 . S
C3291 H3314 0.950 . S
C3292 C3291 1.349 . S
C3292 C3304 1.349 . S
C3293 C3291 1.327 . S
C3293 C3309 1.429 . S
C3293 H3315 0.950 . S
C3294 H3290 0.949 . S
C3294 C3302 1.574 . S
C3294 C3310 1.368 . S
H3295 C3303 0.950 . S
H3296 C3301 0.950 . S
H3297 C3302 0.949 . S
H3298 C3304 0.950 . S
H3299 C3305 0.950 . S
H3300 C3306 0.949 . S
C3301 H3296 0.950 . S
C3301 C3303 1.327 . S
C3301 C3307 1.429 . S
C3302 C3294 1.574 . S
C3302 H3297 0.949 . S
C3302 C3308 1.368 . S
C3303 C3287 1.349 . S
C3303 H3295 0.950 . S
C3303 C3301 1.327 . S
C3304 C3292 1.349 . S
C3304 H3298 0.950 . S
C3304 C3305 1.327 . S
C3305 H3299 0.950 . S
C3305 C3304 1.327 . S
C3305 C3309 1.429 . S
C3306 C3289 1.574 . S
C3306 H3300 0.949 . S
C3306 C3310 1.368 . S
C3307 C3288 1.429 . S
C3307 C3301 1.429 . S
C3307 C3308 1.523 . S
C3308 C3289 1.368 . S
C3308 C3302 1.368 . S
C3308 C3307 1.523 . S
C3309 C3293 1.429 . S
C3309 C3305 1.429 . S
C3309 C3310 1.523 . S
C3310 C3294 1.368 . S
C3310 C3306 1.368 . S
C3310 C3309 1.523 . S
H3311 C3286 0.950 . S
H3312 C3288 0.950 . S
H3313 C3289 0.949 . S
H3314 C3291 0.950 . S
H3315 C3293 0.950 . S
C3316 C3317 1.349 . S
C3316 C3318 1.327 . S
C3316 H3341 0.950 . S
C3317 C3316 1.349 . S
C3317 C3333 1.349 . S
C3318 C3316 1.327 . S
C3318 C3337 1.429 . S
C3318 H3342 0.950 . S
C3319 C3336 1.574 . S
C3319 C3338 1.368 . S
C3319 H3343 0.949 . S
H3320 C3324 0.949 . S
C3321 C3322 1.349 . S
C3321 C3323 1.327 . S
C3321 H3344 0.950 . S
C3322 C3321 1.349 . S
C3322 C3334 1.349 . S
C3323 C3321 1.327 . S
C3323 C3339 1.429 . S
C3323 H3345 0.950 . S
C3324 H3320 0.949 . S
C3324 C3332 1.574 . S
C3324 C3340 1.368 . S
H3325 C3333 0.950 . S
H3326 C3331 0.950 . S
H3327 C3332 0.949 . S
H3328 C3334 0.950 . S
H3329 C3335 0.950 . S
H3330 C3336 0.949 . S
C3331 H3326 0.950 . S
C3331 C3333 1.327 . S
C3331 C3337 1.429 . S
C3332 C3324 1.574 . S
C3332 H3327 0.949 . S
C3332 C3338 1.368 . S
C3333 C3317 1.349 . S
C3333 H3325 0.950 . S
C3333 C3331 1.327 . S
C3334 C3322 1.349 . S
C3334 H3328 0.950 . S
C3334 C3335 1.327 . S
C3335 H3329 0.950 . S
C3335 C3334 1.327 . S
C3335 C3339 1.429 . S
C3336 C3319 1.574 . S
C3336 H3330 0.949 . S
C3336 C3340 1.368 . S
C3337 C3318 1.429 . S
C3337 C3331 1.429 . S
C3337 C3338 1.523 . S
C3338 C3319 1.368 . S
C3338 C3332 1.368 . S
C3338 C3337 1.523 . S
C3339 C3323 1.429 . S
C3339 C3335 1.429 . S
C3339 C3340 1.523 . S
C3340 C3324 1.368 . S
C3340 C3336 1.368 . S
C3340 C3339 1.523 . S
H3341 C3316 0.950 . S
H3342 C3318 0.950 . S
H3343 C3319 0.949 . S
H3344 C3321 0.950 . S
H3345 C3323 0.950 . S
C3346 C3347 1.349 . S
C3346 C3348 1.327 . S
C3346 H3371 0.950 . S
C3347 C3346 1.349 . S
C3347 C3363 1.349 . S
C3348 C3346 1.327 . S
C3348 C3367 1.429 . S
C3348 H3372 0.950 . S
C3349 C3366 1.574 . S
C3349 C3368 1.368 . S
C3349 H3373 0.949 . S
H3350 C3354 0.949 . S
C3351 C3352 1.349 . S
C3351 C3353 1.327 . S
C3351 H3374 0.950 . S
C3352 C3351 1.349 . S
C3352 C3364 1.349 . S
C3353 C3351 1.327 . S
C3353 C3369 1.429 . S
C3353 H3375 0.950 . S
C3354 H3350 0.949 . S
C3354 C3362 1.574 . S
C3354 C3370 1.368 . S
H3355 C3363 0.950 . S
H3356 C3361 0.950 . S
H3357 C3362 0.949 . S
H3358 C3364 0.950 . S
H3359 C3365 0.950 . S
H3360 C3366 0.949 . S
C3361 H3356 0.950 . S
C3361 C3363 1.327 . S
C3361 C3367 1.429 . S
C3362 C3354 1.574 . S
C3362 H3357 0.949 . S
C3362 C3368 1.368 . S
C3363 C3347 1.349 . S
C3363 H3355 0.950 . S
C3363 C3361 1.327 . S
C3364 C3352 1.349 . S
C3364 H3358 0.950 . S
C3364 C3365 1.327 . S
C3365 H3359 0.950 . S
C3365 C3364 1.327 . S
C3365 C3369 1.429 . S
C3366 C3349 1.574 . S
C3366 H3360 0.949 . S
C3366 C3370 1.368 . S
C3367 C3348 1.429 . S
C3367 C3361 1.429 . S
C3367 C3368 1.523 . S
C3368 C3349 1.368 . S
C3368 C3362 1.368 . S
C3368 C3367 1.523 . S
C3369 C3353 1.429 . S
C3369 C3365 1.429 . S
C3369 C3370 1.523 . S
C3370 C3354 1.368 . S
C3370 C3366 1.368 . S
C3370 C3369 1.523 . S
H3371 C3346 0.950 . S
H3372 C3348 0.950 . S
H3373 C3349 0.949 . S
H3374 C3351 0.950 . S
H3375 C3353 0.950 . S
C3376 C3377 1.349 . S
C3376 C3378 1.327 . S
C3376 H3401 0.950 . S
C3377 C3376 1.349 . S
C3377 C3393 1.349 . S
C3378 C3376 1.327 . S
C3378 C3397 1.429 . S
C3378 H3402 0.950 . S
C3379 C3396 1.574 . S
C3379 C3398 1.368 . S
C3379 H3403 0.949 . S
H3380 C3384 0.949 . S
C3381 C3382 1.349 . S
C3381 C3383 1.327 . S
C3381 H3404 0.950 . S
C3382 C3381 1.349 . S
C3382 C3394 1.349 . S
C3383 C3381 1.327 . S
C3383 C3399 1.429 . S
C3383 H3405 0.950 . S
C3384 H3380 0.949 . S
C3384 C3392 1.574 . S
C3384 C3400 1.368 . S
H3385 C3393 0.950 . S
H3386 C3391 0.950 . S
H3387 C3392 0.949 . S
H3388 C3394 0.950 . S
H3389 C3395 0.950 . S
H3390 C3396 0.949 . S
C3391 H3386 0.950 . S
C3391 C3393 1.327 . S
C3391 C3397 1.429 . S
C3392 C3384 1.574 . S
C3392 H3387 0.949 . S
C3392 C3398 1.368 . S
C3393 C3377 1.349 . S
C3393 H3385 0.950 . S
C3393 C3391 1.327 . S
C3394 C3382 1.349 . S
C3394 H3388 0.950 . S
C3394 C3395 1.327 . S
C3395 H3389 0.950 . S
C3395 C3394 1.327 . S
C3395 C3399 1.429 . S
C3396 C3379 1.574 . S
C3396 H3390 0.949 . S
C3396 C3400 1.368 . S
C3397 C3378 1.429 . S
C3397 C3391 1.429 . S
C3397 C3398 1.523 . S
C3398 C3379 1.368 . S
C3398 C3392 1.368 . S
C3398 C3397 1.523 . S
C3399 C3383 1.429 . S
C3399 C3395 1.429 . S
C3399 C3400 1.523 . S
C3400 C3384 1.368 . S
C3400 C3396 1.368 . S
C3400 C3399 1.523 . S
H3401 C3376 0.950 . S
H3402 C3378 0.950 . S
H3403 C3379 0.949 . S
H3404 C3381 0.950 . S
H3405 C3383 0.950 . S
C3406 C3407 1.349 . S
C3406 C3408 1.327 . S
C3406 H3431 0.950 . S
C3407 C3406 1.349 . S
C3407 C3423 1.349 . S
C3408 C3406 1.327 . S
C3408 C3427 1.429 . S
C3408 H3432 0.950 . S
C3409 C3426 1.574 . S
C3409 C3428 1.368 . S
C3409 H3433 0.949 . S
H3410 C3414 0.949 . S
C3411 C3412 1.349 . S
C3411 C3413 1.327 . S
C3411 H3434 0.950 . S
C3412 C3411 1.349 . S
C3412 C3424 1.349 . S
C3413 C3411 1.327 . S
C3413 C3429 1.429 . S
C3413 H3435 0.950 . S
C3414 H3410 0.949 . S
C3414 C3422 1.574 . S
C3414 C3430 1.368 . S
H3415 C3423 0.950 . S
H3416 C3421 0.950 . S
H3417 C3422 0.949 . S
H3418 C3424 0.950 . S
H3419 C3425 0.950 . S
H3420 C3426 0.949 . S
C3421 H3416 0.950 . S
C3421 C3423 1.327 . S
C3421 C3427 1.429 . S
C3422 C3414 1.574 . S
C3422 H3417 0.949 . S
C3422 C3428 1.368 . S
C3423 C3407 1.349 . S
C3423 H3415 0.950 . S
C3423 C3421 1.327 . S
C3424 C3412 1.349 . S
C3424 H3418 0.950 . S
C3424 C3425 1.327 . S
C3425 H3419 0.950 . S
C3425 C3424 1.327 . S
C3425 C3429 1.429 . S
C3426 C3409 1.574 . S
C3426 H3420 0.949 . S
C3426 C3430 1.368 . S
C3427 C3408 1.429 . S
C3427 C3421 1.429 . S
C3427 C3428 1.523 . S
C3428 C3409 1.368 . S
C3428 C3422 1.368 . S
C3428 C3427 1.523 . S
C3429 C3413 1.429 . S
C3429 C3425 1.429 . S
C3429 C3430 1.523 . S
C3430 C3414 1.368 . S
C3430 C3426 1.368 . S
C3430 C3429 1.523 . S
H3431 C3406 0.950 . S
H3432 C3408 0.950 . S
H3433 C3409 0.949 . S
H3434 C3411 0.950 . S
H3435 C3413 0.950 . S
C3436 C3437 1.349 . S
C3436 C3438 1.327 . S
C3436 H3461 0.950 . S
C3437 C3436 1.349 . S
C3437 C3453 1.349 . S
C3438 C3436 1.327 . S
C3438 C3457 1.429 . S
C3438 H3462 0.950 . S
C3439 C3456 1.572 1_655 S
C3439 C3458 1.368 . S
C3439 H3463 0.949 . S
H3440 C3444 0.949 . S
C3441 C3442 1.349 . S
C3441 C3443 1.327 . S
C3441 H3464 0.950 . S
C3442 C3441 1.349 . S
C3442 C3454 1.349 . S
C3443 C3441 1.327 . S
C3443 C3459 1.429 . S
C3443 H3465 0.950 . S
C3444 H3440 0.949 . S
C3444 C3452 1.574 . S
C3444 C3460 1.368 . S
H3445 C3453 0.950 . S
H3446 C3451 0.950 . S
H3447 C3452 0.949 . S
H3448 C3454 0.950 . S
H3449 C3455 0.950 . S
H3450 C3456 0.951 . S
C3451 H3446 0.950 . S
C3451 C3453 1.327 . S
C3451 C3457 1.429 . S
C3452 C3444 1.574 . S
C3452 H3447 0.949 . S
C3452 C3458 1.368 . S
C3453 C3437 1.349 . S
C3453 H3445 0.950 . S
C3453 C3451 1.327 . S
C3454 C3442 1.349 . S
C3454 H3448 0.950 . S
C3454 C3455 1.327 . S
C3455 H3449 0.950 . S
C3455 C3454 1.327 . S
C3455 C3459 1.429 . S
C3456 C3439 1.572 1_455 S
C3456 H3450 0.951 . S
C3456 C3460 1.367 1_455 S
C3457 C3438 1.429 . S
C3457 C3451 1.429 . S
C3457 C3458 1.523 . S
C3458 C3439 1.368 . S
C3458 C3452 1.368 . S
C3458 C3457 1.523 . S
C3459 C3443 1.429 . S
C3459 C3455 1.429 . S
C3459 C3460 1.523 1_455 S
C3460 C3444 1.368 . S
C3460 C3456 1.367 1_655 S
C3460 C3459 1.523 1_655 S
H3461 C3436 0.950 . S
H3462 C3438 0.950 . S
H3463 C3439 0.949 . S
H3464 C3441 0.950 . S
H3465 C3443 0.950 . S
C3466 C3467 1.349 . S
C3466 C3468 1.327 . S
C3466 H3491 0.950 . S
C3467 C3466 1.349 . S
C3467 C3483 1.349 . S
C3468 C3466 1.327 . S
C3468 C3487 1.429 . S
C3468 H3492 0.950 . S
C3469 C3486 1.574 . S
C3469 C3488 1.368 . S
C3469 H3493 0.949 . S
H3470 C3474 0.949 . S
C3471 C3472 1.349 . S
C3471 C3473 1.327 . S
C3471 H3494 0.950 . S
C3472 C3471 1.349 . S
C3472 C3484 1.349 . S
C3473 C3471 1.327 . S
C3473 C3489 1.429 . S
C3473 H3495 0.950 . S
C3474 H3470 0.949 . S
C3474 C3482 1.574 . S
C3474 C3490 1.368 . S
H3475 C3483 0.950 . S
H3476 C3481 0.950 . S
H3477 C3482 0.949 . S
H3478 C3484 0.950 . S
H3479 C3485 0.950 . S
H3480 C3486 0.949 . S
C3481 H3476 0.950 . S
C3481 C3483 1.327 . S
C3481 C3487 1.429 . S
C3482 C3474 1.574 . S
C3482 H3477 0.949 . S
C3482 C3488 1.368 . S
C3483 C3467 1.349 . S
C3483 H3475 0.950 . S
C3483 C3481 1.327 . S
C3484 C3472 1.349 . S
C3484 H3478 0.950 . S
C3484 C3485 1.327 . S
C3485 H3479 0.950 . S
C3485 C3484 1.327 . S
C3485 C3489 1.429 . S
C3486 C3469 1.574 . S
C3486 H3480 0.949 . S
C3486 C3490 1.368 . S
C3487 C3468 1.429 . S
C3487 C3481 1.429 . S
C3487 C3488 1.523 . S
C3488 C3469 1.368 . S
C3488 C3482 1.368 . S
C3488 C3487 1.523 . S
C3489 C3473 1.429 . S
C3489 C3485 1.429 . S
C3489 C3490 1.523 . S
C3490 C3474 1.368 . S
C3490 C3486 1.368 . S
C3490 C3489 1.523 . S
H3491 C3466 0.950 . S
H3492 C3468 0.950 . S
H3493 C3469 0.949 . S
H3494 C3471 0.950 . S
H3495 C3473 0.950 . S
C3496 C3497 1.349 . S
C3496 C3498 1.327 . S
C3496 H3521 0.950 . S
C3497 C3496 1.349 . S
C3497 C3513 1.349 . S
C3498 C3496 1.327 . S
C3498 C3517 1.429 . S
C3498 H3522 0.950 . S
C3499 C3516 1.574 . S
C3499 C3518 1.368 . S
C3499 H3523 0.949 . S
H3500 C3504 0.949 . S
C3501 C3502 1.349 . S
C3501 C3503 1.327 . S
C3501 H3524 0.950 . S
C3502 C3501 1.349 . S
C3502 C3514 1.349 . S
C3503 C3501 1.327 . S
C3503 C3519 1.429 . S
C3503 H3525 0.950 . S
C3504 H3500 0.949 . S
C3504 C3512 1.574 . S
C3504 C3520 1.368 . S
H3505 C3513 0.950 . S
H3506 C3511 0.950 . S
H3507 C3512 0.949 . S
H3508 C3514 0.950 . S
H3509 C3515 0.950 . S
H3510 C3516 0.949 . S
C3511 H3506 0.950 . S
C3511 C3513 1.327 . S
C3511 C3517 1.429 . S
C3512 C3504 1.574 . S
C3512 H3507 0.949 . S
C3512 C3518 1.368 . S
C3513 C3497 1.349 . S
C3513 H3505 0.950 . S
C3513 C3511 1.327 . S
C3514 C3502 1.349 . S
C3514 H3508 0.950 . S
C3514 C3515 1.327 . S
C3515 H3509 0.950 . S
C3515 C3514 1.327 . S
C3515 C3519 1.429 . S
C3516 C3499 1.574 . S
C3516 H3510 0.949 . S
C3516 C3520 1.368 . S
C3517 C3498 1.429 . S
C3517 C3511 1.429 . S
C3517 C3518 1.523 . S
C3518 C3499 1.368 . S
C3518 C3512 1.368 . S
C3518 C3517 1.523 . S
C3519 C3503 1.429 . S
C3519 C3515 1.429 . S
C3519 C3520 1.523 . S
C3520 C3504 1.368 . S
C3520 C3516 1.368 . S
C3520 C3519 1.523 . S
H3521 C3496 0.950 . S
H3522 C3498 0.950 . S
H3523 C3499 0.949 . S
H3524 C3501 0.950 . S
H3525 C3503 0.950 . S
C3526 C3527 1.349 . S
C3526 C3528 1.327 . S
C3526 H3551 0.950 . S
C3527 C3526 1.349 . S
C3527 C3543 1.349 . S
C3528 C3526 1.327 . S
C3528 C3547 1.429 . S
C3528 H3552 0.950 . S
C3529 C3546 1.574 . S
C3529 C3548 1.368 . S
C3529 H3553 0.949 . S
H3530 C3534 0.949 . S
C3531 C3532 1.349 . S
C3531 C3533 1.327 . S
C3531 H3554 0.950 . S
C3532 C3531 1.349 . S
C3532 C3544 1.349 . S
C3533 C3531 1.327 . S
C3533 C3549 1.429 . S
C3533 H3555 0.950 . S
C3534 H3530 0.949 . S
C3534 C3542 1.574 . S
C3534 C3550 1.368 . S
H3535 C3543 0.950 . S
H3536 C3541 0.950 . S
H3537 C3542 0.949 . S
H3538 C3544 0.950 . S
H3539 C3545 0.950 . S
H3540 C3546 0.949 . S
C3541 H3536 0.950 . S
C3541 C3543 1.327 . S
C3541 C3547 1.429 . S
C3542 C3534 1.574 . S
C3542 H3537 0.949 . S
C3542 C3548 1.368 . S
C3543 C3527 1.349 . S
C3543 H3535 0.950 . S
C3543 C3541 1.327 . S
C3544 C3532 1.349 . S
C3544 H3538 0.950 . S
C3544 C3545 1.327 . S
C3545 H3539 0.950 . S
C3545 C3544 1.327 . S
C3545 C3549 1.429 . S
C3546 C3529 1.574 . S
C3546 H3540 0.949 . S
C3546 C3550 1.368 . S
C3547 C3528 1.429 . S
C3547 C3541 1.429 . S
C3547 C3548 1.523 . S
C3548 C3529 1.368 . S
C3548 C3542 1.368 . S
C3548 C3547 1.523 . S
C3549 C3533 1.429 . S
C3549 C3545 1.429 . S
C3549 C3550 1.523 . S
C3550 C3534 1.368 . S
C3550 C3546 1.368 . S
C3550 C3549 1.523 . S
H3551 C3526 0.950 . S
H3552 C3528 0.950 . S
H3553 C3529 0.949 . S
H3554 C3531 0.950 . S
H3555 C3533 0.950 . S
C3556 C3557 1.349 . S
C3556 C3558 1.327 . S
C3556 H3581 0.950 . S
C3557 C3556 1.349 . S
C3557 C3573 1.349 . S
C3558 C3556 1.327 . S
C3558 C3577 1.429 . S
C3558 H3582 0.950 . S
C3559 C3576 1.574 . S
C3559 C3578 1.368 . S
C3559 H3583 0.949 . S
H3560 C3564 0.949 . S
C3561 C3562 1.344 1_455 S
C3561 C3563 1.293 1_455 S
C3561 H3584 0.994 . S
C3562 C3561 1.344 1_655 S
C3562 C3574 1.349 . S
C3563 C3561 1.293 1_655 S
C3563 C3579 1.429 . S
C3563 H3585 0.957 . S
C3564 H3560 0.949 . S
C3564 C3572 1.574 . S
C3564 C3580 1.368 . S
H3565 C3573 0.950 . S
H3566 C3571 0.950 . S
H3567 C3572 0.949 . S
H3568 C3574 0.950 . S
H3569 C3575 0.950 . S
H3570 C3576 0.949 . S
C3571 H3566 0.950 . S
C3571 C3573 1.327 . S
C3571 C3577 1.429 . S
C3572 C3564 1.574 . S
C3572 H3567 0.949 . S
C3572 C3578 1.368 . S
C3573 C3557 1.349 . S
C3573 H3565 0.950 . S
C3573 C3571 1.327 . S
C3574 C3562 1.349 . S
C3574 H3568 0.950 . S
C3574 C3575 1.327 . S
C3575 H3569 0.950 . S
C3575 C3574 1.327 . S
C3575 C3579 1.429 . S
C3576 C3559 1.574 . S
C3576 H3570 0.949 . S
C3576 C3580 1.368 . S
C3577 C3558 1.429 . S
C3577 C3571 1.429 . S
C3577 C3578 1.523 . S
C3578 C3559 1.368 . S
C3578 C3572 1.368 . S
C3578 C3577 1.523 . S
C3579 C3563 1.429 . S
C3579 C3575 1.429 . S
C3579 C3580 1.523 . S
C3580 C3564 1.368 . S
C3580 C3576 1.368 . S
C3580 C3579 1.523 . S
H3581 C3556 0.950 . S
H3582 C3558 0.950 . S
H3583 C3559 0.949 . S
H3584 C3561 0.994 . S
H3585 C3563 0.957 . S
C3586 C3587 1.349 . S
C3586 C3588 1.327 . S
C3586 H3611 0.950 . S
C3587 C3586 1.349 . S
C3587 C3603 1.349 . S
C3588 C3586 1.327 . S
C3588 C3607 1.429 . S
C3588 H3612 0.950 . S
C3589 C3606 1.574 . S
C3589 C3608 1.368 . S
C3589 H3613 0.949 . S
H3590 C3594 0.949 . S
C3591 C3592 1.349 . S
C3591 C3593 1.327 . S
C3591 H3614 0.950 . S
C3592 C3591 1.349 . S
C3592 C3604 1.349 . S
C3593 C3591 1.327 . S
C3593 C3609 1.429 . S
C3593 H3615 0.950 . S
C3594 H3590 0.949 . S
C3594 C3602 1.574 . S
C3594 C3610 1.368 . S
H3595 C3603 0.950 . S
H3596 C3601 0.950 . S
H3597 C3602 0.949 . S
H3598 C3604 0.950 . S
H3599 C3605 0.950 . S
H3600 C3606 0.949 . S
C3601 H3596 0.950 . S
C3601 C3603 1.327 . S
C3601 C3607 1.429 . S
C3602 C3594 1.574 . S
C3602 H3597 0.949 . S
C3602 C3608 1.368 . S
C3603 C3587 1.349 . S
C3603 H3595 0.950 . S
C3603 C3601 1.327 . S
C3604 C3592 1.349 . S
C3604 H3598 0.950 . S
C3604 C3605 1.327 . S
C3605 H3599 0.950 . S
C3605 C3604 1.327 . S
C3605 C3609 1.429 . S
C3606 C3589 1.574 . S
C3606 H3600 0.949 . S
C3606 C3610 1.368 . S
C3607 C3588 1.429 . S
C3607 C3601 1.429 . S
C3607 C3608 1.523 . S
C3608 C3589 1.368 . S
C3608 C3602 1.368 . S
C3608 C3607 1.523 . S
C3609 C3593 1.429 . S
C3609 C3605 1.429 . S
C3609 C3610 1.523 . S
C3610 C3594 1.368 . S
C3610 C3606 1.368 . S
C3610 C3609 1.523 . S
H3611 C3586 0.950 . S
H3612 C3588 0.950 . S
H3613 C3589 0.949 . S
H3614 C3591 0.950 . S
H3615 C3593 0.950 . S
C3616 C3617 1.349 . S
C3616 C3618 1.327 . S
C3616 H3641 0.950 . S
C3617 C3616 1.349 . S
C3617 C3633 1.349 . S
C3618 C3616 1.327 . S
C3618 C3637 1.429 . S
C3618 H3642 0.950 . S
C3619 C3636 1.574 . S
C3619 C3638 1.368 . S
C3619 H3643 0.949 . S
H3620 C3624 0.949 . S
C3621 C3622 1.349 . S
C3621 C3623 1.327 . S
C3621 H3644 0.950 . S
C3622 C3621 1.349 . S
C3622 C3634 1.349 . S
C3623 C3621 1.327 . S
C3623 C3639 1.429 . S
C3623 H3645 0.950 . S
C3624 H3620 0.949 . S
C3624 C3632 1.574 . S
C3624 C3640 1.368 . S
H3625 C3633 0.950 . S
H3626 C3631 0.950 . S
H3627 C3632 0.949 . S
H3628 C3634 0.950 . S
H3629 C3635 0.950 . S
H3630 C3636 0.949 . S
C3631 H3626 0.950 . S
C3631 C3633 1.327 . S
C3631 C3637 1.429 . S
C3632 C3624 1.574 . S
C3632 H3627 0.949 . S
C3632 C3638 1.368 . S
C3633 C3617 1.349 . S
C3633 H3625 0.950 . S
C3633 C3631 1.327 . S
C3634 C3622 1.349 . S
C3634 H3628 0.950 . S
C3634 C3635 1.327 . S
C3635 H3629 0.950 . S
C3635 C3634 1.327 . S
C3635 C3639 1.429 . S
C3636 C3619 1.574 . S
C3636 H3630 0.949 . S
C3636 C3640 1.368 . S
C3637 C3618 1.429 . S
C3637 C3631 1.429 . S
C3637 C3638 1.523 . S
C3638 C3619 1.368 . S
C3638 C3632 1.368 . S
C3638 C3637 1.523 . S
C3639 C3623 1.429 . S
C3639 C3635 1.429 . S
C3639 C3640 1.523 . S
C3640 C3624 1.368 . S
C3640 C3636 1.368 . S
C3640 C3639 1.523 . S
H3641 C3616 0.950 . S
H3642 C3618 0.950 . S
H3643 C3619 0.949 . S
H3644 C3621 0.950 . S
H3645 C3623 0.950 . S
C3646 C3647 1.349 . S
C3646 C3648 1.327 . S
C3646 H3671 0.950 . S
C3647 C3646 1.349 . S
C3647 C3663 1.349 . S
C3648 C3646 1.327 . S
C3648 C3667 1.429 . S
C3648 H3672 0.950 . S
C3649 C3666 1.574 . S
C3649 C3668 1.368 . S
C3649 H3673 0.949 . S
H3650 C3654 0.949 . S
C3651 C3652 1.349 1_565 S
C3651 C3653 1.327 . S
C3651 H3674 0.953 1_565 S
C3652 C3651 1.349 1_545 S
C3652 C3664 1.349 . S
C3653 C3651 1.327 . S
C3653 C3669 1.429 . S
C3653 H3675 0.950 . S
C3654 H3650 0.949 . S
C3654 C3662 1.574 . S
C3654 C3670 1.368 . S
H3655 C3663 0.950 . S
H3656 C3661 0.950 . S
H3657 C3662 0.949 . S
H3658 C3664 0.950 . S
H3659 C3665 0.950 . S
H3660 C3666 0.949 . S
C3661 H3656 0.950 . S
C3661 C3663 1.327 . S
C3661 C3667 1.429 . S
C3662 C3654 1.574 . S
C3662 H3657 0.949 . S
C3662 C3668 1.368 . S
C3663 C3647 1.349 . S
C3663 H3655 0.950 . S
C3663 C3661 1.327 . S
C3664 C3652 1.349 . S
C3664 H3658 0.950 . S
C3664 C3665 1.327 1_545 S
C3665 H3659 0.950 . S
C3665 C3664 1.327 1_565 S
C3665 C3669 1.429 . S
C3666 C3649 1.574 . S
C3666 H3660 0.949 . S
C3666 C3670 1.368 . S
C3667 C3648 1.429 . S
C3667 C3661 1.429 . S
C3667 C3668 1.523 . S
C3668 C3649 1.368 . S
C3668 C3662 1.368 . S
C3668 C3667 1.523 . S
C3669 C3653 1.429 . S
C3669 C3665 1.429 . S
C3669 C3670 1.523 . S
C3670 C3654 1.368 . S
C3670 C3666 1.368 . S
C3670 C3669 1.523 . S
H3671 C3646 0.950 . S
H3672 C3648 0.950 . S
H3673 C3649 0.949 . S
H3674 C3651 0.953 1_545 S
H3675 C3653 0.950 . S
C3676 C3677 1.349 . S
C3676 C3678 1.327 . S
C3676 H3701 0.950 . S
C3677 C3676 1.349 . S
C3677 C3693 1.349 . S
C3678 C3676 1.327 . S
C3678 C3697 1.429 . S
C3678 H3702 0.950 . S
C3679 C3696 1.574 . S
C3679 C3698 1.368 . S
C3679 H3703 0.949 . S
H3680 C3684 0.949 . S
C3681 C3682 1.349 . S
C3681 C3683 1.327 . S
C3681 H3704 0.950 . S
C3682 C3681 1.349 . S
C3682 C3694 1.349 . S
C3683 C3681 1.327 . S
C3683 C3699 1.429 . S
C3683 H3705 0.950 . S
C3684 H3680 0.949 . S
C3684 C3692 1.574 . S
C3684 C3700 1.368 . S
H3685 C3693 0.950 . S
H3686 C3691 0.950 . S
H3687 C3692 0.949 . S
H3688 C3694 0.950 . S
H3689 C3695 0.950 . S
H3690 C3696 0.949 . S
C3691 H3686 0.950 . S
C3691 C3693 1.327 . S
C3691 C3697 1.429 . S
C3692 C3684 1.574 . S
C3692 H3687 0.949 . S
C3692 C3698 1.368 . S
C3693 C3677 1.349 . S
C3693 H3685 0.950 . S
C3693 C3691 1.327 . S
C3694 C3682 1.349 . S
C3694 H3688 0.950 . S
C3694 C3695 1.327 . S
C3695 H3689 0.950 . S
C3695 C3694 1.327 . S
C3695 C3699 1.429 . S
C3696 C3679 1.574 . S
C3696 H3690 0.949 . S
C3696 C3700 1.368 . S
C3697 C3678 1.429 . S
C3697 C3691 1.429 . S
C3697 C3698 1.523 . S
C3698 C3679 1.368 . S
C3698 C3692 1.368 . S
C3698 C3697 1.523 . S
C3699 C3683 1.429 . S
C3699 C3695 1.429 . S
C3699 C3700 1.523 . S
C3700 C3684 1.368 . S
C3700 C3696 1.368 . S
C3700 C3699 1.523 . S
H3701 C3676 0.950 . S
H3702 C3678 0.950 . S
H3703 C3679 0.949 . S
H3704 C3681 0.950 . S
H3705 C3683 0.950 . S
C3706 C3707 1.349 . S
C3706 C3708 1.327 . S
C3706 H3731 0.950 . S
C3707 C3706 1.349 . S
C3707 C3723 1.349 . S
C3708 C3706 1.327 . S
C3708 C3727 1.429 . S
C3708 H3732 0.950 . S
C3709 C3726 1.574 . S
C3709 C3728 1.368 . S
C3709 H3733 0.949 . S
H3710 C3714 0.949 . S
C3711 C3712 1.349 . S
C3711 C3713 1.327 . S
C3711 H3734 0.950 . S
C3712 C3711 1.349 . S
C3712 C3724 1.349 . S
C3713 C3711 1.327 . S
C3713 C3729 1.429 . S
C3713 H3735 0.950 . S
C3714 H3710 0.949 . S
C3714 C3722 1.574 . S
C3714 C3730 1.368 . S
H3715 C3723 0.950 . S
H3716 C3721 0.950 . S
H3717 C3722 0.949 . S
H3718 C3724 0.950 . S
H3719 C3725 0.950 . S
H3720 C3726 0.949 . S
C3721 H3716 0.950 . S
C3721 C3723 1.327 . S
C3721 C3727 1.429 . S
C3722 C3714 1.574 . S
C3722 H3717 0.949 . S
C3722 C3728 1.368 . S
C3723 C3707 1.349 . S
C3723 H3715 0.950 . S
C3723 C3721 1.327 . S
C3724 C3712 1.349 . S
C3724 H3718 0.950 . S
C3724 C3725 1.327 . S
C3725 H3719 0.950 . S
C3725 C3724 1.327 . S
C3725 C3729 1.429 . S
C3726 C3709 1.574 . S
C3726 H3720 0.949 . S
C3726 C3730 1.368 . S
C3727 C3708 1.429 . S
C3727 C3721 1.429 . S
C3727 C3728 1.523 . S
C3728 C3709 1.368 . S
C3728 C3722 1.368 . S
C3728 C3727 1.523 . S
C3729 C3713 1.429 . S
C3729 C3725 1.429 . S
C3729 C3730 1.523 . S
C3730 C3714 1.368 . S
C3730 C3726 1.368 . S
C3730 C3729 1.523 . S
H3731 C3706 0.950 . S
H3732 C3708 0.950 . S
H3733 C3709 0.949 . S
H3734 C3711 0.950 . S
H3735 C3713 0.950 . S
C3736 C3737 1.349 . S
C3736 C3738 1.327 . S
C3736 H3761 0.950 . S
C3737 C3736 1.349 . S
C3737 C3753 1.349 . S
C3738 C3736 1.327 . S
C3738 C3757 1.429 . S
C3738 H3762 0.950 . S
C3739 C3756 1.574 . S
C3739 C3758 1.368 . S
C3739 H3763 0.949 . S
H3740 C3744 0.949 . S
C3741 C3742 1.349 . S
C3741 C3743 1.327 . S
C3741 H3764 0.950 . S
C3742 C3741 1.349 . S
C3742 C3754 1.349 . S
C3743 C3741 1.327 . S
C3743 C3759 1.429 . S
C3743 H3765 0.950 . S
C3744 H3740 0.949 . S
C3744 C3752 1.574 . S
C3744 C3760 1.368 . S
H3745 C3753 0.950 . S
H3746 C3751 0.950 . S
H3747 C3752 0.949 . S
H3748 C3754 0.950 . S
H3749 C3755 0.950 . S
H3750 C3756 0.949 . S
C3751 H3746 0.950 . S
C3751 C3753 1.327 . S
C3751 C3757 1.429 . S
C3752 C3744 1.574 . S
C3752 H3747 0.949 . S
C3752 C3758 1.368 . S
C3753 C3737 1.349 . S
C3753 H3745 0.950 . S
C3753 C3751 1.327 . S
C3754 C3742 1.349 . S
C3754 H3748 0.950 . S
C3754 C3755 1.327 . S
C3755 H3749 0.950 . S
C3755 C3754 1.327 . S
C3755 C3759 1.429 . S
C3756 C3739 1.574 . S
C3756 H3750 0.949 . S
C3756 C3760 1.368 . S
C3757 C3738 1.429 . S
C3757 C3751 1.429 . S
C3757 C3758 1.523 . S
C3758 C3739 1.368 . S
C3758 C3752 1.368 . S
C3758 C3757 1.523 . S
C3759 C3743 1.429 . S
C3759 C3755 1.429 . S
C3759 C3760 1.523 . S
C3760 C3744 1.368 . S
C3760 C3756 1.368 . S
C3760 C3759 1.523 . S
H3761 C3736 0.950 . S
H3762 C3738 0.950 . S
H3763 C3739 0.949 . S
H3764 C3741 0.950 . S
H3765 C3743 0.950 . S
C3766 C3767 1.349 . S
C3766 C3768 1.327 . S
C3766 H3791 0.950 . S
C3767 C3766 1.349 . S
C3767 C3783 1.349 . S
C3768 C3766 1.327 . S
C3768 C3787 1.429 . S
C3768 H3792 0.950 . S
C3769 C3786 1.574 . S
C3769 C3788 1.368 . S
C3769 H3793 0.949 . S
H3770 C3774 0.949 . S
C3771 C3772 1.349 . S
C3771 C3773 1.327 . S
C3771 H3794 0.950 1_554 S
C3772 C3771 1.349 . S
C3772 C3784 1.349 . S
C3773 C3771 1.327 . S
C3773 C3789 1.429 . S
C3773 H3795 0.950 1_554 S
C3774 H3770 0.949 . S
C3774 C3782 1.574 . S
C3774 C3790 1.368 . S
H3775 C3783 0.950 . S
H3776 C3781 0.950 . S
H3777 C3782 0.949 . S
H3778 C3784 0.950 . S
H3779 C3785 0.950 . S
H3780 C3786 0.915 1_556 S
C3781 H3776 0.950 . S
C3781 C3783 1.327 . S
C3781 C3787 1.429 . S
C3782 C3774 1.574 . S
C3782 H3777 0.949 . S
C3782 C3788 1.368 . S
C3783 C3767 1.349 . S
C3783 H3775 0.950 . S
C3783 C3781 1.327 . S
C3784 C3772 1.349 . S
C3784 H3778 0.950 . S
C3784 C3785 1.327 . S
C3785 H3779 0.950 . S
C3785 C3784 1.327 . S
C3785 C3789 1.429 . S
C3786 C3769 1.574 . S
C3786 H3780 0.915 1_554 S
C3786 C3790 1.368 . S
C3787 C3768 1.429 . S
C3787 C3781 1.429 . S
C3787 C3788 1.523 . S
C3788 C3769 1.368 . S
C3788 C3782 1.368 . S
C3788 C3787 1.523 . S
C3789 C3773 1.429 . S
C3789 C3785 1.429 . S
C3789 C3790 1.523 . S
C3790 C3774 1.368 . S
C3790 C3786 1.368 . S
C3790 C3789 1.523 . S
H3791 C3766 0.950 . S
H3792 C3768 0.950 . S
H3793 C3769 0.949 . S
H3794 C3771 0.950 1_556 S
H3795 C3773 0.950 1_556 S
C3796 C3797 1.349 . S
C3796 C3798 1.327 . S
C3796 H3821 0.950 . S
C3797 C3796 1.349 . S
C3797 C3813 1.349 . S
C3798 C3796 1.327 . S
C3798 C3817 1.429 . S
C3798 H3822 0.950 . S
C3799 C3816 1.574 . S
C3799 C3818 1.368 . S
C3799 H3823 0.949 . S
H3800 C3804 0.949 . S
C3801 C3802 1.349 . S
C3801 C3803 1.327 . S
C3801 H3824 0.950 . S
C3802 C3801 1.349 . S
C3802 C3814 1.349 . S
C3803 C3801 1.327 . S
C3803 C3819 1.429 . S
C3803 H3825 0.950 . S
C3804 H3800 0.949 . S
C3804 C3812 1.574 . S
C3804 C3820 1.368 . S
H3805 C3813 0.964 . S
H3806 C3811 0.950 . S
H3807 C3812 0.949 . S
H3808 C3814 0.950 . S
H3809 C3815 0.950 . S
H3810 C3816 0.949 . S
C3811 H3806 0.950 . S
C3811 C3813 1.327 . S
C3811 C3817 1.429 . S
C3812 C3804 1.574 . S
C3812 H3807 0.949 . S
C3812 C3818 1.368 . S
C3813 C3797 1.349 . S
C3813 H3805 0.964 . S
C3813 C3811 1.327 . S
C3814 C3802 1.349 . S
C3814 H3808 0.950 . S
C3814 C3815 1.327 . S
C3815 H3809 0.950 . S
C3815 C3814 1.327 . S
C3815 C3819 1.429 . S
C3816 C3799 1.574 . S
C3816 H3810 0.949 . S
C3816 C3820 1.368 . S
C3817 C3798 1.429 . S
C3817 C3811 1.429 . S
C3817 C3818 1.523 . S
C3818 C3799 1.368 . S
C3818 C3812 1.368 . S
C3818 C3817 1.523 . S
C3819 C3803 1.429 . S
C3819 C3815 1.429 . S
C3819 C3820 1.523 . S
C3820 C3804 1.368 . S
C3820 C3816 1.368 . S
C3820 C3819 1.523 . S
H3821 C3796 0.950 . S
H3822 C3798 0.950 . S
H3823 C3799 0.949 . S
H3824 C3801 0.950 . S
H3825 C3803 0.950 . S
C3826 C3827 1.349 . S
C3826 C3828 1.327 . S
C3826 H3851 0.950 . S
C3827 C3826 1.349 . S
C3827 C3843 1.349 . S
C3828 C3826 1.327 . S
C3828 C3847 1.429 . S
C3828 H3852 0.950 . S
C3829 C3846 1.574 . S
C3829 C3848 1.368 . S
C3829 H3853 0.949 . S
H3830 C3834 0.949 . S
C3831 C3832 1.349 . S
C3831 C3833 1.327 . S
C3831 H3854 0.950 . S
C3832 C3831 1.349 . S
C3832 C3844 1.349 . S
C3833 C3831 1.327 . S
C3833 C3849 1.429 . S
C3833 H3855 0.950 . S
C3834 H3830 0.949 . S
C3834 C3842 1.574 . S
C3834 C3850 1.368 . S
H3835 C3843 0.950 . S
H3836 C3841 0.950 . S
H3837 C3842 0.949 . S
H3838 C3844 0.950 . S
H3839 C3845 0.950 . S
H3840 C3846 0.949 . S
C3841 H3836 0.950 . S
C3841 C3843 1.327 . S
C3841 C3847 1.429 . S
C3842 C3834 1.574 . S
C3842 H3837 0.949 . S
C3842 C3848 1.368 . S
C3843 C3827 1.349 . S
C3843 H3835 0.950 . S
C3843 C3841 1.327 . S
C3844 C3832 1.349 . S
C3844 H3838 0.950 . S
C3844 C3845 1.327 . S
C3845 H3839 0.950 . S
C3845 C3844 1.327 . S
C3845 C3849 1.429 . S
C3846 C3829 1.574 . S
C3846 H3840 0.949 . S
C3846 C3850 1.368 . S
C3847 C3828 1.429 . S
C3847 C3841 1.429 . S
C3847 C3848 1.523 . S
C3848 C3829 1.368 . S
C3848 C3842 1.368 . S
C3848 C3847 1.523 . S
C3849 C3833 1.429 . S
C3849 C3845 1.429 . S
C3849 C3850 1.523 . S
C3850 C3834 1.368 . S
C3850 C3846 1.368 . S
C3850 C3849 1.523 . S
H3851 C3826 0.950 . S
H3852 C3828 0.950 . S
H3853 C3829 0.949 . S
H3854 C3831 0.950 . S
H3855 C3833 0.950 . S
C977 C106 2.495 . S
C982 C338 2.500 . S
C1007 C65 2.037 . S
C1012 C395 2.028 . S
C1037 C79 1.459 . S
C1042 C418 1.442 . S
C1072 C472 1.184 . S
C1067 C90 1.170 . S
C1097 C21 0.987 . S
C1102 C512 0.995 . S
C1132 C543 0.412 . S
C1127 C35 0.450 . S
C1162 C595 1.126 . S
C1157 C50 1.128 . S
C1187 C6 1.732 . S
C1192 C618 1.753 . S
C1222 C355 2.628 . S
C1217 C232 2.631 . S
C1247 C245 0.451 . S
C1252 C392 0.392 . S
C1282 C435 1.389 . S
C1277 C274 1.395 . S
C1312 C458 1.220 . S
C1307 C175 1.217 . S
C1337 C231 1.509 . S
C1342 C498 1.542 . S
C1372 C546 1.385 . S
C1367 C246 1.410 . S
C1402 C592 0.289 . S
C1397 C273 0.355 . S
C1432 C635 2.107 . S
C1427 C176 2.102 . S
C1462 C352 1.446 . S
C1457 C160 1.446 . S
C1487 C289 1.995 . S
C1492 C675 1.990 . S
C1522 C707 2.675 . S
C1517 C328 2.639 . S
C1552 C738 0.726 1_655 S
C1547 C317 0.726 . S
C1577 C118 1.307 . S
C1582 C632 1.332 . S
C1607 C132 1.522 . S
C1612 C432 1.548 . S
C1637 C331 2.408 . S
C1642 C795 2.392 . S
C1672 C818 0.739 . S
C1667 C303 0.738 . S
C1702 C347 2.029 1_565 S
C1697 C63 2.033 . S
C1732 C826 2.526 . S
C1727 C107 2.484 . S
C1757 C92 1.223 . S
C1762 C427 1.230 . S
C1787 C78 1.762 . S
C1792 C783 1.763 . S
C1822 C503 1.483 . S
C1817 C8 1.514 . S
C1847 C51 0.554 . S
C1852 C712 0.552 . S
C1882 C586 1.636 1_566 S
C1877 C37 1.573 . S
C1912 C867 1.613 . S
C1907 C20 1.622 . S
C1942 C346 2.449 . S
C1937 C147 2.415 . S
C1972 C823 0.483 . S
C1967 C316 0.432 . S
C1997 C119 1.277 . S
C2002 C426 1.308 . S
C2027 C288 1.370 . S
C2032 C787 1.381 . S
C2057 C148 1.959 1_545 S
C2062 C507 1.961 . S
C2092 C715 1.394 . S
C2087 C315 1.382 . S
C2117 C120 0.346 . S
C2122 C583 0.382 1_565 S
C2147 C287 1.957 . S
C2152 C866 1.962 . S
C2177 C188 1.319 . S
C2182 C343 1.303 . S
C2207 C177 2.354 . S
C2212 C666 2.372 . S
C2237 C258 2.752 . S
C2242 C538 2.801 . S
C2267 C247 0.753 . S
C2272 C747 0.753 . S
C2302 C863 1.099 . S
C2297 C272 1.100 . S
C2327 C216 1.314 . S
C2332 C423 1.330 . S
C2362 C466 2.649 . S
C2357 C261 2.645 . S
C2392 C387 0.705 . S
C2387 C205 0.702 . S
C2417 C76 2.081 . S
C2422 C898 2.104 . S
C2452 C835 2.133 . S
C2447 C93 2.142 . S
C2477 C105 1.021 . S
C2482 C938 1.016 . S
C2507 C62 1.199 . S
C2512 C792 1.217 . S
C2537 C49 0.977 . S
C2542 C672 0.982 . S
C2572 C703 0.767 . S
C2567 C9 0.768 . S
C2602 C755 1.028 . S
C2597 C22 1.028 . S
C2632 C858 2.124 . S
C2627 C36 2.153 . S
C2662 C915 2.552 . S
C2657 C260 2.555 . S
C2687 C189 0.402 . S
C2692 C832 0.332 . S
C2722 C955 1.263 . S
C2717 C204 1.267 . S
C2752 C778 1.031 . S
C2747 C217 1.032 . S
C2782 C658 1.843 . S
C2777 C259 1.797 . S
C2807 C190 1.521 . S
C2812 C706 1.501 . S
C2842 C752 0.319 . S
C2837 C203 0.375 . S
C2867 C218 2.204 . S
C2872 C875 2.208 . S
C2902 C912 1.413 . S
C2897 C314 1.411 . S
C2927 C135 2.090 . S
C2932 C515 2.082 . S
C2962 C547 2.550 . S
C2957 C146 2.514 . S
C2992 C578 0.750 . S
C2987 C163 0.750 . S
C3022 C872 1.348 . S
C3017 C300 1.324 . S
C3047 C286 1.467 . S
C3052 C952 1.498 . S
C3082 C475 2.291 . S
C3077 C149 2.298 . S
C3112 C378 0.691 . S
C3107 C121 0.683 . S
C3137 C91 2.015 . S
C3142 C907 2.017 . S
C3172 C386 2.100 . S
C3167 C77 2.005 . S
C3197 C64 1.192 . S
C3202 C947 1.204 . S
C3227 C104 1.377 . S
C3232 C463 1.405 . S
C3257 C34 1.093 . S
C3262 C663 1.101 . S
C3292 C552 0.516 . S
C3287 C23 0.527 . S
C3317 C7 1.141 . S
C3322 C746 1.219 . S
C3347 C48 1.598 . S
C3352 C627 1.599 . S
C3382 C906 2.412 . S
C3377 C329 2.383 . S
C3407 C162 0.448 . S
C3412 C383 0.487 . S
C3442 C946 1.311 1_556 S
C3437 C301 1.286 . S
C3467 C134 1.386 . S
C3472 C467 1.398 . S
C3497 C330 1.939 . S
C3502 C667 1.926 . S
C3532 C555 1.413 . S
C3527 C161 1.406 . S
C3557 C302 0.354 . S
C3562 C743 0.393 . S
C3592 C626 1.934 . S
C3587 C133 1.933 . S
C3622 C903 1.504 . S
C3617 C244 1.517 . S
C3652 C506 2.305 1_655 S
C3647 C219 2.278 . S
C3677 C230 2.388 . S
C3682 C698 2.428 . S
C3712 C587 0.741 . S
C3707 C191 0.741 . S
C3737 C202 1.280 . S
C3742 C623 1.282 . S
C3767 C174 1.546 . S
C3772 C943 1.568 . S
C3802 C786 2.620 . S
C3797 C233 2.607 1_565 S
C3832 C827 0.699 . S
C3827 C275 0.694 . S
