# Generated by pormake.
# Topology bcu-b, (8,8)-cn, num edge types: 1
# Building blocks:
#     Node 0, Type 0, BuildingBlock: TAGTUT_clean_sbu_1, # of connection points: 8
#     Node 1, Type 1, BuildingBlock: VETTIZ_charged_sbu_0, # of connection points: 8
#     Edge 2, Type (0, 1), BuildingBlock: UVAHIK_clean_linker_0, # of connection points: 2
#     Edge 3, Type (0, 1), BuildingBlock: UVAHIK_clean_linker_0, # of connection points: 2
#     Edge 4, Type (0, 1), BuildingBlock: UVAHIK_clean_linker_0, # of connection points: 2
#     Edge 5, Type (0, 1), BuildingBlock: UVAHIK_clean_linker_0, # of connection points: 2
#     Edge 6, Type (0, 1), BuildingBlock: UVAHIK_clean_linker_0, # of connection points: 2
#     Edge 7, Type (0, 1), BuildingBlock: UVAHIK_clean_linker_0, # of connection points: 2
#     Edge 8, Type (0, 1), BuildingBlock: UVAHIK_clean_linker_0, # of connection points: 2
#     Edge 9, Type (0, 1), BuildingBlock: UVAHIK_clean_linker_0, # of connection points: 2
# Relax obj value: 0.029
# Max RMSD: 0.124
# Mean RMSD: 0.087
data_MOF--net-bcu-b--node1-TAGTUT_clean_sbu_1--node2-VETTIZ_charged_sbu_0--edge1-UVAHIK_clean_linker_0
_symmetry_space_group_name_H-M    P1
_symmetry_Int_Tables_number       1
_symmetry_cell_setting            triclinic
loop_
_symmetry_equiv_pos_as_xyz
'x, y, z'
_cell_length_a     24.785255
_cell_length_b     24.257397
_cell_length_c     25.983129
_cell_angle_alpha  90.040923
_cell_angle_beta   92.241254
_cell_angle_gamma 97.463496
loop_
_atom_site_label
_atom_site_type_symbol
_atom_site_fract_x
_atom_site_fract_y
_atom_site_fract_z
_atom_type_partial_charge
C0 C 0.85262 0.10914 0.05592 0.0
C1 C 0.90494 0.11195 0.89956 0.0
C2 C 0.9306 0.89517 0.93663 0.0
Mg3 Mg 0.96551 0.12279 0.00532 0.0
O4 O 0.95406 0.04582 0.01402 0.0
Mg5 Mg 0.88536 0.00388 0.98291 0.0
Mg6 Mg 1.00855 -0.0002 0.9893 0.0
O7 O 0.06313 0.95361 0.96483 0.0
Mg8 Mg 0.05195 0.87679 0.9748 0.0
Mg9 Mg 0.13178 0.99559 -0.00394 0.0
C10 C 0.08639 0.10384 0.04434 0.0
C11 C 0.08385 0.0711 0.90652 0.0
O12 O 0.83961 0.0622 0.03251 0.0
O13 O 0.89927 0.13834 0.05176 0.0
O14 O 0.88166 0.06488 0.91471 0.0
O15 O 0.94295 0.14014 0.92668 0.0
O16 O 0.0506 0.13678 0.03432 0.0
O17 O 0.0763 0.05104 0.03696 0.0
C18 C 0.93346 0.92821 0.07218 0.0
O19 O 0.98229 0.9421 0.05769 0.0
O20 O 0.89221 0.94583 0.0498 0.0
O21 O 0.17753 0.937 0.94669 0.0
O22 O 0.11786 0.86066 0.92816 0.0
O23 O 0.13581 0.93539 0.06465 0.0
C24 C 0.16446 0.88986 0.92362 0.0
O25 O 0.07467 0.86002 0.05349 0.0
O26 O 0.96653 0.86261 0.94739 0.0
C27 C 0.11265 0.88854 0.08032 0.0
O28 O 0.94067 0.94828 0.94181 0.0
O29 O 0.0349 0.05766 0.92088 0.0
O30 O 0.12483 0.05315 0.92904 0.0
Fe31 Fe 0.51104 0.56432 0.48827 0.0
O32 O 0.46517 0.49905 0.51794 0.0
Fe33 Fe 0.63196 0.51158 0.46575 0.0
Fe34 Fe 0.38554 0.48752 0.5128 0.0
O35 O 0.552 0.50641 0.45938 0.0
O36 O 0.55236 0.50084 0.46064 0.0
O37 O 0.46551 0.49346 0.5192 0.0
Fe38 Fe 0.50642 0.43566 0.49018 0.0
C39 C 0.42271 0.60423 0.5562 0.0
O40 O 0.46234 0.56333 0.422 0.0
O41 O 0.38013 0.54414 0.45485 0.0
O42 O 0.5549 0.38374 0.45348 0.0
O43 O 0.62167 0.44452 0.41593 0.0
O44 O 0.62534 0.57371 0.41338 0.0
O45 O 0.56584 0.62533 0.4522 0.0
O46 O 0.37728 0.4245 0.45802 0.0
O47 O 0.4586 0.43099 0.42405 0.0
C48 C 0.60272 0.61854 0.41901 0.0
O49 O 0.55511 0.43657 0.55644 0.0
O50 O 0.6371 0.4541 0.52303 0.0
O51 O 0.46229 0.61617 0.52475 0.0
O52 O 0.39529 0.55526 0.5619 0.0
C53 C 0.41093 0.56344 0.41933 0.0
C54 C 0.40783 0.41497 0.4216 0.0
C55 C 0.4154 0.38136 0.56001 0.0
O56 O 0.39265 0.4261 0.56581 0.0
O57 O 0.45184 0.37464 0.52635 0.0
C58 C 0.59414 0.39563 0.42167 0.0
O59 O 0.6406 0.57351 0.52148 0.0
O60 O 0.55875 0.56929 0.55443 0.0
C61 C 0.60639 0.43566 0.55892 0.0
C62 C 0.60989 0.58301 0.55779 0.0
C63 C 0.17043 0.09509 0.09887 0.0
C64 C 0.1392 0.12791 0.06837 0.0
C65 C 0.21392 0.12015 0.13027 0.0
C66 C 0.30016 0.25446 0.16134 0.0
H67 H 0.27968 0.208 0.30281 0.0
C68 C 0.33022 0.35533 0.37644 0.0
C69 C 0.38474 0.38005 0.3773 0.0
C70 C 0.30927 0.31986 0.33614 0.0
C71 C 0.28605 0.22129 0.26346 0.0
H72 H 0.13244 0.21188 0.0426 0.0
H73 H 0.20782 0.25539 0.09719 0.0
H74 H 0.23134 0.15264 0.23309 0.0
H75 H 0.45988 0.38731 0.33597 0.0
H76 H 0.42281 0.3257 0.2653 0.0
H77 H 0.35293 0.32467 0.1922 0.0
C78 C 0.19889 0.21048 0.09723 0.0
C79 C 0.25898 0.18918 0.22346 0.0
C80 C 0.1553 0.18555 0.06625 0.0
C81 C 0.41762 0.3691 0.33647 0.0
C82 C 0.39648 0.33385 0.29595 0.0
C83 C 0.32751 0.28647 0.20143 0.0
C84 C 0.22717 0.17833 0.1312 0.0
C85 C 0.2644 0.20631 0.17206 0.0
C86 C 0.34223 0.30851 0.29565 0.0
C87 C 0.31929 0.27108 0.25294 0.0
H88 H 0.15917 0.05052 0.10112 0.0
H89 H 0.23551 0.0943 0.1556 0.0
H90 H 0.30541 0.26844 0.12205 0.0
H91 H 0.30376 0.36281 0.40719 0.0
H92 H 0.26699 0.30165 0.33644 0.0
C93 C 0.76145 0.1008 0.09726 0.0
C94 C 0.81462 0.12846 0.09256 0.0
C95 C 0.72797 0.11699 0.1353 0.0
C96 C 0.73818 0.18195 0.26212 0.0
H97 H 0.60016 0.23625 0.23117 0.0
C98 C 0.66577 0.35262 0.37833 0.0
C99 C 0.61092 0.35032 0.39064 0.0
C100 C 0.68256 0.31236 0.34674 0.0
C101 C 0.63791 0.21986 0.24066 0.0
H102 H 0.87352 0.19575 0.12344 0.0
H103 H 0.81567 0.22307 0.18945 0.0
H104 H 0.64453 0.18975 0.16363 0.0
H105 H 0.53045 0.30381 0.38003 0.0
H106 H 0.56005 0.23309 0.32317 0.0
H107 H 0.73325 0.21404 0.33817 0.0
C108 C 0.79999 0.18881 0.16398 0.0
C109 C 0.66327 0.19345 0.20205 0.0
C110 C 0.83297 0.17331 0.12582 0.0
C111 C 0.57308 0.30623 0.3713 0.0
C112 C 0.58988 0.26609 0.33871 0.0
C113 C 0.71288 0.20795 0.30055 0.0
C114 C 0.7476 0.16036 0.16963 0.0
C115 C 0.71477 0.17663 0.21202 0.0
C116 C 0.64487 0.26897 0.32618 0.0
C117 C 0.6638 0.22949 0.28956 0.0
H118 H 0.74602 0.06618 0.07216 0.0
H119 H 0.68749 0.09472 0.13886 0.0
H120 H 0.77752 0.16849 0.27087 0.0
H121 H 0.6959 0.38593 0.3929 0.0
H122 H 0.72503 0.31622 0.33713 0.0
C123 C 0.89136 0.83942 0.10708 0.0
C124 C 0.92225 0.89129 0.11607 0.0
C125 C 0.86434 0.81098 0.14715 0.0
C126 C 0.80009 0.84215 0.26608 0.0
H127 H 0.76999 0.68156 0.27279 0.0
C128 C 0.65617 0.71192 0.40916 0.0
C129 C 0.62476 0.66507 0.38672 0.0
C130 C 0.69346 0.74564 0.37968 0.0
C131 C 0.77781 0.72651 0.27119 0.0
H132 H 0.95136 0.95362 0.17368 0.0
H133 H 0.90456 0.90338 0.24459 0.0
H134 H 0.84202 0.72412 0.21898 0.0
H135 H 0.60367 0.61919 0.3158 0.0
H136 H 0.66727 0.67862 0.26416 0.0
H137 H 0.73512 0.84402 0.31823 0.0
C138 C 0.90121 0.88463 0.20656 0.0
C139 C 0.81921 0.75086 0.24053 0.0
C140 C 0.92868 0.91292 0.16633 0.0
C141 C 0.62726 0.6554 0.33373 0.0
C142 C 0.66417 0.6889 0.30443 0.0
C143 C 0.75873 0.81764 0.29718 0.0
C144 C 0.86712 0.83432 0.19694 0.0
C145 C 0.82985 0.80893 0.23639 0.0
C146 C 0.69965 0.73249 0.32768 0.0
C147 C 0.74616 0.75957 0.29871 0.0
H148 H 0.88486 0.82281 0.06826 0.0
H149 H 0.83798 0.77274 0.13812 0.0
H150 H 0.80689 0.88704 0.26336 0.0
H151 H 0.65559 0.7194 0.45024 0.0
H152 H 0.72024 0.77915 0.39844 0.0
C153 C 0.18798 0.8861 0.1471 0.0
C154 C 0.1372 0.8624 0.12562 0.0
C155 C 0.2174 0.85598 0.1815 0.0
C156 C 0.20841 0.73446 0.2673 0.0
H157 H 0.35774 0.72779 0.2307 0.0
C158 C 0.33087 0.57456 0.36144 0.0
C159 C 0.38535 0.59225 0.37668 0.0
C160 C 0.30224 0.60717 0.32888 0.0
C161 C 0.3164 0.72966 0.24192 0.0
H162 H 0.07566 0.79015 0.127 0.0
H163 H 0.12672 0.73806 0.18774 0.0
H164 H 0.30294 0.78877 0.1831 0.0
H165 H 0.45353 0.65658 0.36787 0.0
H166 H 0.40318 0.71448 0.31159 0.0
H167 H 0.2217 0.67611 0.32646 0.0
C168 C 0.14396 0.77972 0.17741 0.0
C169 C 0.285 0.76467 0.21466 0.0
C170 C 0.1147 0.80962 0.14258 0.0
C171 C 0.41167 0.64176 0.35634 0.0
C172 C 0.38269 0.67494 0.32419 0.0
C173 C 0.23989 0.69988 0.29485 0.0
C174 C 0.19645 0.80182 0.19576 0.0
C175 C 0.23054 0.76711 0.22681 0.0
C176 C 0.32708 0.65881 0.31138 0.0
C177 C 0.29415 0.6965 0.28219 0.0
H178 H 0.20656 0.92674 0.13518 0.0
H179 H 0.25732 0.87446 0.1958 0.0
H180 H 0.16678 0.73593 0.2779 0.0
H181 H 0.30977 0.53623 0.37616 0.0
H182 H 0.26008 0.59246 0.31853 0.0
C183 C 0.18388 0.825 0.85417 0.0
C184 C 0.20224 0.87034 0.88686 0.0
C185 C 0.21652 0.80938 0.81577 0.0
C186 C 0.353 0.80607 0.77592 0.0
H187 H 0.2812 0.78348 0.64074 0.0
C188 C 0.4429 0.6942 0.60593 0.0
C189 C 0.40551 0.64948 0.58708 0.0
C190 C 0.4258 0.7341 0.6386 0.0
C191 C 0.30206 0.7901 0.6781 0.0
H192 H 0.27061 0.93336 0.90601 0.0
H193 H 0.32855 0.90465 0.83891 0.0
H194 H 0.23714 0.8286 0.70846 0.0
H195 H 0.32088 0.61267 0.58567 0.0
H196 H 0.29125 0.68195 0.64155 0.0
H197 H 0.41649 0.76428 0.74613 0.0
C198 C 0.28831 0.88206 0.8431 0.0
C199 C 0.27687 0.81585 0.71677 0.0
C200 C 0.25516 0.89835 0.88138 0.0
C201 C 0.35072 0.64643 0.59986 0.0
C202 C 0.33362 0.68645 0.63153 0.0
C203 C 0.37825 0.7799 0.73707 0.0
C204 C 0.26861 0.83821 0.8093 0.0
C205 C 0.301 0.82193 0.76656 0.0
C206 C 0.37092 0.73039 0.6517 0.0
C207 C 0.35175 0.76955 0.68851 0.0
H208 H 0.14353 0.80226 0.85715 0.0
H209 H 0.2008 0.77476 0.79073 0.0
H210 H 0.37232 0.81038 0.81409 0.0
H211 H 0.48544 0.69733 0.59677 0.0
H212 H 0.45533 0.76758 0.65378 0.0
C213 C 0.12644 0.15985 0.87249 0.0
C214 C 0.09587 0.10792 0.86271 0.0
C215 C 0.158 0.18643 0.83428 0.0
C216 C 0.1915 0.19016 0.69764 0.0
H217 H 0.33891 0.22823 0.75425 0.0
C218 C 0.36631 0.28598 0.57129 0.0
C219 C 0.39474 0.33485 0.59292 0.0
C220 C 0.33278 0.24944 0.60184 0.0
C221 C 0.298 0.21794 0.73779 0.0
H222 H 0.07095 0.04448 0.80498 0.0
H223 H 0.12563 0.09165 0.7373 0.0
H224 H 0.26735 0.18855 0.80986 0.0
H225 H 0.41353 0.38262 0.66311 0.0
H226 H 0.35643 0.31899 0.71647 0.0
H227 H 0.22209 0.22129 0.62576 0.0
C228 C 0.12492 0.11195 0.77437 0.0
C229 C 0.25694 0.1955 0.7697 0.0
C230 C 0.09324 0.08527 0.81282 0.0
C231 C 0.39249 0.34469 0.64588 0.0
C232 C 0.35966 0.30818 0.67636 0.0
C233 C 0.23269 0.21318 0.66562 0.0
C234 C 0.15986 0.16121 0.78577 0.0
C235 C 0.20305 0.18265 0.75032 0.0
C236 C 0.32781 0.2612 0.65441 0.0
C237 C 0.28616 0.22853 0.68571 0.0
H238 H 0.12978 0.17744 0.91103 0.0
H239 H 0.18385 0.22489 0.84377 0.0
H240 H 0.15035 0.18016 0.68169 0.0
H241 H 0.36677 0.27824 0.53025 0.0
H242 H 0.30911 0.2133 0.58397 0.0
C243 C 0.90355 0.1914 0.83783 0.0
C244 C 0.88034 0.13889 0.85474 0.0
C245 C 0.87436 0.22234 0.80386 0.0
C246 C 0.7496 0.21526 0.71715 0.0
H247 H 0.76097 0.37228 0.75069 0.0
C248 C 0.60463 0.35921 0.62405 0.0
C249 C 0.63183 0.40738 0.60203 0.0
C250 C 0.6329 0.32684 0.65765 0.0
C251 C 0.75744 0.32853 0.74082 0.0
H252 H 0.8096 0.07616 0.84602 0.0
H253 H 0.75865 0.13023 0.78784 0.0
H254 H 0.81727 0.31333 0.79868 0.0
H255 H 0.70854 0.46149 0.60035 0.0
H256 H 0.75731 0.40591 0.65966 0.0
H257 H 0.68903 0.23076 0.65968 0.0
C258 C 0.79952 0.14757 0.80035 0.0
C259 C 0.79009 0.29474 0.76797 0.0
C260 C 0.82888 0.11645 0.83392 0.0
C261 C 0.68663 0.42443 0.61667 0.0
C262 C 0.71453 0.39268 0.65073 0.0
C263 C 0.71656 0.24903 0.6903 0.0
C264 C 0.8211 0.20171 0.78627 0.0
C265 C 0.78696 0.23769 0.75628 0.0
C266 C 0.68846 0.34273 0.67045 0.0
C267 C 0.72041 0.3061 0.70163 0.0
H268 H 0.9433 0.20979 0.85264 0.0
H269 H 0.89298 0.2632 0.79264 0.0
H270 H 0.7464 0.17172 0.70664 0.0
H271 H 0.56249 0.34495 0.61314 0.0
H272 H 0.61167 0.28878 0.67274 0.0
C273 C 0.85753 0.815 0.92903 0.0
C274 C 0.87742 0.86954 0.9151 0.0
C275 C 0.8153 0.78471 0.90004 0.0
C276 C 0.71502 0.7901 0.79008 0.0
H277 H 0.76095 0.6478 0.75662 0.0
C278 C 0.69063 0.6221 0.61323 0.0
C279 C 0.63393 0.61359 0.60418 0.0
C280 C 0.71339 0.65201 0.6564 0.0
C281 C 0.74753 0.68735 0.76558 0.0
H282 H 0.86553 0.93729 0.86341 0.0
H283 H 0.7925 0.88378 0.81154 0.0
H284 H 0.80871 0.70434 0.8254 0.0
H285 H 0.55657 0.62987 0.63349 0.0
H286 H 0.59664 0.68233 0.7089 0.0
H287 H 0.65515 0.77351 0.72826 0.0
C288 C 0.80901 0.86452 0.84519 0.0
C289 C 0.77438 0.71951 0.80553 0.0
C290 C 0.8509 0.8952 0.87481 0.0
C291 C 0.60046 0.63557 0.63939 0.0
C292 C 0.62332 0.6659 0.6824 0.0
C293 C 0.68793 0.75766 0.75002 0.0
C294 C 0.79278 0.80806 0.856 0.0
C295 C 0.75911 0.77168 0.81776 0.0
C296 C 0.68001 0.67432 0.69136 0.0
C297 C 0.70479 0.70653 0.73672 0.0
H298 H 0.87672 0.79466 0.96062 0.0
H299 H 0.80257 0.74183 0.91026 0.0
H300 H 0.70216 0.82996 0.79875 0.0
H301 H 0.71753 0.60573 0.58693 0.0
H302 H 0.7573 0.65844 0.66199 0.0
loop_
_geom_bond_atom_site_label_1
_geom_bond_atom_site_label_2
_geom_bond_distance
_geom_bond_site_symmetry_2
_ccdc_geom_bond_type
C0 O12 1.241 . S
C0 O13 1.280 . S
C1 O14 1.277 . S
C1 O15 1.245 . S
C2 O26 1.247 . S
C2 O28 1.289 . S
Mg3 O4 1.926 . S
Mg3 O13 1.984 . S
Mg3 O15 1.988 1_554 S
Mg3 O16 2.061 1_655 S
O4 Mg3 1.926 . S
O4 Mg5 1.988 . S
O4 Mg6 1.917 1_655 S
Mg5 O4 1.988 . S
Mg5 O12 2.047 . S
Mg5 O14 2.036 1_554 S
Mg5 O20 2.043 1_545 S
Mg5 O28 2.234 1_544 S
Mg6 O4 1.917 1_455 S
Mg6 O7 1.917 1_544 S
Mg6 O17 2.106 . S
Mg6 O19 2.079 1_445 S
Mg6 O28 2.106 1_444 S
Mg6 O29 2.079 1_554 S
O7 Mg6 1.917 1_566 S
O7 Mg8 1.926 . S
O7 Mg9 1.987 . S
Mg8 O7 1.926 . S
Mg8 O22 1.984 . S
Mg8 O25 1.988 1_556 S
Mg8 O26 2.061 1_455 S
Mg9 O7 1.987 . S
Mg9 O17 2.237 1_566 S
Mg9 O21 2.043 . S
Mg9 O23 2.040 1_556 S
Mg9 O30 2.040 1_565 S
C10 O16 1.247 . S
C10 O17 1.289 . S
C11 O29 1.245 . S
C11 O30 1.274 . S
O12 C0 1.241 . S
O12 Mg5 2.047 . S
O13 C0 1.280 . S
O13 Mg3 1.984 . S
O14 C1 1.277 . S
O14 Mg5 2.036 1_556 S
O15 C1 1.245 . S
O15 Mg3 1.988 1_556 S
O16 Mg3 2.061 1_455 S
O16 C10 1.247 . S
O17 Mg6 2.106 . S
O17 Mg9 2.237 1_544 S
O17 C10 1.289 . S
C18 O19 1.245 . S
C18 O20 1.274 . S
O19 Mg6 2.079 1_665 S
O19 C18 1.245 . S
O20 Mg5 2.043 1_565 S
O20 C18 1.274 . S
O21 Mg9 2.043 . S
O21 C24 1.241 . S
O22 Mg8 1.984 . S
O22 C24 1.280 . S
O23 Mg9 2.040 1_554 S
O23 C27 1.277 . S
C24 O21 1.241 . S
C24 O22 1.280 . S
O25 Mg8 1.988 1_554 S
O25 C27 1.245 . S
O26 C2 1.247 . S
O26 Mg8 2.061 1_655 S
C27 O23 1.277 . S
C27 O25 1.245 . S
O28 C2 1.289 . S
O28 Mg5 2.234 1_566 S
O28 Mg6 2.106 1_666 S
O29 Mg6 2.079 1_556 S
O29 C11 1.245 . S
O30 Mg9 2.040 1_545 S
O30 C11 1.274 . S
Fe31 O32 1.886 . S
Fe31 O35 1.715 . S
Fe31 O40 2.077 . S
Fe31 O45 1.935 . S
Fe31 O51 2.077 . S
Fe31 O60 1.935 . S
O32 Fe31 1.886 . S
O32 Fe34 1.715 . S
Fe33 O35 1.886 . S
Fe33 O36 1.715 . S
Fe33 O43 1.935 . S
Fe33 O44 2.077 . S
Fe33 O50 1.935 . S
Fe33 O59 2.077 . S
Fe34 O32 1.715 . S
Fe34 O37 1.886 . S
Fe34 O41 1.935 . S
Fe34 O46 2.077 . S
Fe34 O52 1.935 . S
Fe34 O56 2.077 . S
O35 Fe31 1.715 . S
O35 Fe33 1.886 . S
O36 Fe33 1.715 . S
O36 Fe38 1.886 . S
O37 Fe34 1.886 . S
O37 Fe38 1.715 . S
Fe38 O36 1.886 . S
Fe38 O37 1.715 . S
Fe38 O42 2.077 . S
Fe38 O47 1.935 . S
Fe38 O49 2.077 . S
Fe38 O57 1.935 . S
C39 O51 1.381 . S
C39 O52 1.421 . S
O40 Fe31 2.077 . S
O40 C53 1.381 . S
O41 Fe34 1.935 . S
O41 C53 1.421 . S
O42 Fe38 2.077 . S
O42 C58 1.381 . S
O43 Fe33 1.935 . S
O43 C58 1.421 . S
O44 Fe33 2.077 . S
O44 C48 1.381 . S
O45 Fe31 1.935 . S
O45 C48 1.421 . S
O46 Fe34 2.077 . S
O46 C54 1.381 . S
O47 Fe38 1.935 . S
O47 C54 1.421 . S
C48 O44 1.381 . S
C48 O45 1.421 . S
O49 Fe38 2.077 . S
O49 C61 1.381 . S
O50 Fe33 1.935 . S
O50 C61 1.421 . S
O51 Fe31 2.077 . S
O51 C39 1.381 . S
O52 Fe34 1.935 . S
O52 C39 1.421 . S
C53 O40 1.381 . S
C53 O41 1.421 . S
C54 O46 1.381 . S
C54 O47 1.421 . S
C55 O56 1.381 . S
C55 O57 1.421 . S
O56 Fe34 2.077 . S
O56 C55 1.381 . S
O57 Fe38 1.935 . S
O57 C55 1.421 . S
C58 O42 1.381 . S
C58 O43 1.421 . S
O59 Fe33 2.077 . S
O59 C62 1.381 . S
O60 Fe31 1.935 . S
O60 C62 1.421 . S
C61 O49 1.381 . S
C61 O50 1.421 . S
C62 O59 1.381 . S
C62 O60 1.421 . S
C63 C64 1.349 . S
C63 C65 1.327 . S
C63 H88 0.950 . S
C64 C63 1.349 . S
C64 C80 1.349 . S
C65 C63 1.327 . S
C65 C84 1.429 . S
C65 H89 0.950 . S
C66 C83 1.574 . S
C66 C85 1.368 . S
C66 H90 0.949 . S
H67 C71 0.949 . S
C68 C69 1.349 . S
C68 C70 1.327 . S
C68 H91 0.950 . S
C69 C68 1.349 . S
C69 C81 1.349 . S
C70 C68 1.327 . S
C70 C86 1.429 . S
C70 H92 0.950 . S
C71 H67 0.949 . S
C71 C79 1.574 . S
C71 C87 1.368 . S
H72 C80 0.950 . S
H73 C78 0.950 . S
H74 C79 0.949 . S
H75 C81 0.950 . S
H76 C82 0.950 . S
H77 C83 0.949 . S
C78 H73 0.950 . S
C78 C80 1.327 . S
C78 C84 1.429 . S
C79 C71 1.574 . S
C79 H74 0.949 . S
C79 C85 1.368 . S
C80 C64 1.349 . S
C80 H72 0.950 . S
C80 C78 1.327 . S
C81 C69 1.349 . S
C81 H75 0.950 . S
C81 C82 1.327 . S
C82 H76 0.950 . S
C82 C81 1.327 . S
C82 C86 1.429 . S
C83 C66 1.574 . S
C83 H77 0.949 . S
C83 C87 1.368 . S
C84 C65 1.429 . S
C84 C78 1.429 . S
C84 C85 1.523 . S
C85 C66 1.368 . S
C85 C79 1.368 . S
C85 C84 1.523 . S
C86 C70 1.429 . S
C86 C82 1.429 . S
C86 C87 1.523 . S
C87 C71 1.368 . S
C87 C83 1.368 . S
C87 C86 1.523 . S
H88 C63 0.950 . S
H89 C65 0.950 . S
H90 C66 0.949 . S
H91 C68 0.950 . S
H92 C70 0.950 . S
C93 C94 1.349 . S
C93 C95 1.327 . S
C93 H118 0.950 . S
C94 C93 1.349 . S
C94 C110 1.349 . S
C95 C93 1.327 . S
C95 C114 1.429 . S
C95 H119 0.950 . S
C96 C113 1.574 . S
C96 C115 1.368 . S
C96 H120 0.949 . S
H97 C101 0.949 . S
C98 C99 1.349 . S
C98 C100 1.327 . S
C98 H121 0.950 . S
C99 C98 1.349 . S
C99 C111 1.349 . S
C100 C98 1.327 . S
C100 C116 1.429 . S
C100 H122 0.950 . S
C101 H97 0.949 . S
C101 C109 1.574 . S
C101 C117 1.368 . S
H102 C110 0.950 . S
H103 C108 0.950 . S
H104 C109 0.949 . S
H105 C111 0.950 . S
H106 C112 0.950 . S
H107 C113 0.949 . S
C108 H103 0.950 . S
C108 C110 1.327 . S
C108 C114 1.429 . S
C109 C101 1.574 . S
C109 H104 0.949 . S
C109 C115 1.368 . S
C110 C94 1.349 . S
C110 H102 0.950 . S
C110 C108 1.327 . S
C111 C99 1.349 . S
C111 H105 0.950 . S
C111 C112 1.327 . S
C112 H106 0.950 . S
C112 C111 1.327 . S
C112 C116 1.429 . S
C113 C96 1.574 . S
C113 H107 0.949 . S
C113 C117 1.368 . S
C114 C95 1.429 . S
C114 C108 1.429 . S
C114 C115 1.523 . S
C115 C96 1.368 . S
C115 C109 1.368 . S
C115 C114 1.523 . S
C116 C100 1.429 . S
C116 C112 1.429 . S
C116 C117 1.523 . S
C117 C101 1.368 . S
C117 C113 1.368 . S
C117 C116 1.523 . S
H118 C93 0.950 . S
H119 C95 0.950 . S
H120 C96 0.949 . S
H121 C98 0.950 . S
H122 C100 0.950 . S
C123 C124 1.349 . S
C123 C125 1.327 . S
C123 H148 0.950 . S
C124 C123 1.349 . S
C124 C140 1.349 . S
C125 C123 1.327 . S
C125 C144 1.429 . S
C125 H149 0.950 . S
C126 C143 1.574 . S
C126 C145 1.368 . S
C126 H150 0.949 . S
H127 C131 0.949 . S
C128 C129 1.349 . S
C128 C130 1.327 . S
C128 H151 0.950 . S
C129 C128 1.349 . S
C129 C141 1.349 . S
C130 C128 1.327 . S
C130 C146 1.429 . S
C130 H152 0.950 . S
C131 H127 0.949 . S
C131 C139 1.574 . S
C131 C147 1.368 . S
H132 C140 0.950 . S
H133 C138 0.950 . S
H134 C139 0.949 . S
H135 C141 0.950 . S
H136 C142 0.950 . S
H137 C143 0.949 . S
C138 H133 0.950 . S
C138 C140 1.327 . S
C138 C144 1.429 . S
C139 C131 1.574 . S
C139 H134 0.949 . S
C139 C145 1.368 . S
C140 C124 1.349 . S
C140 H132 0.950 . S
C140 C138 1.327 . S
C141 C129 1.349 . S
C141 H135 0.950 . S
C141 C142 1.327 . S
C142 H136 0.950 . S
C142 C141 1.327 . S
C142 C146 1.429 . S
C143 C126 1.574 . S
C143 H137 0.949 . S
C143 C147 1.368 . S
C144 C125 1.429 . S
C144 C138 1.429 . S
C144 C145 1.523 . S
C145 C126 1.368 . S
C145 C139 1.368 . S
C145 C144 1.523 . S
C146 C130 1.429 . S
C146 C142 1.429 . S
C146 C147 1.523 . S
C147 C131 1.368 . S
C147 C143 1.368 . S
C147 C146 1.523 . S
H148 C123 0.950 . S
H149 C125 0.950 . S
H150 C126 0.949 . S
H151 C128 0.950 . S
H152 C130 0.950 . S
C153 C154 1.349 . S
C153 C155 1.327 . S
C153 H178 0.950 . S
C154 C153 1.349 . S
C154 C170 1.349 . S
C155 C153 1.327 . S
C155 C174 1.429 . S
C155 H179 0.950 . S
C156 C173 1.574 . S
C156 C175 1.368 . S
C156 H180 0.949 . S
H157 C161 0.949 . S
C158 C159 1.349 . S
C158 C160 1.327 . S
C158 H181 0.950 . S
C159 C158 1.349 . S
C159 C171 1.349 . S
C160 C158 1.327 . S
C160 C176 1.429 . S
C160 H182 0.950 . S
C161 H157 0.949 . S
C161 C169 1.574 . S
C161 C177 1.368 . S
H162 C170 0.950 . S
H163 C168 0.950 . S
H164 C169 0.949 . S
H165 C171 0.950 . S
H166 C172 0.950 . S
H167 C173 0.949 . S
C168 H163 0.950 . S
C168 C170 1.327 . S
C168 C174 1.429 . S
C169 C161 1.574 . S
C169 H164 0.949 . S
C169 C175 1.368 . S
C170 C154 1.349 . S
C170 H162 0.950 . S
C170 C168 1.327 . S
C171 C159 1.349 . S
C171 H165 0.950 . S
C171 C172 1.327 . S
C172 H166 0.950 . S
C172 C171 1.327 . S
C172 C176 1.429 . S
C173 C156 1.574 . S
C173 H167 0.949 . S
C173 C177 1.368 . S
C174 C155 1.429 . S
C174 C168 1.429 . S
C174 C175 1.523 . S
C175 C156 1.368 . S
C175 C169 1.368 . S
C175 C174 1.523 . S
C176 C160 1.429 . S
C176 C172 1.429 . S
C176 C177 1.523 . S
C177 C161 1.368 . S
C177 C173 1.368 . S
C177 C176 1.523 . S
H178 C153 0.950 . S
H179 C155 0.950 . S
H180 C156 0.949 . S
H181 C158 0.950 . S
H182 C160 0.950 . S
C183 C184 1.349 . S
C183 C185 1.327 . S
C183 H208 0.950 . S
C184 C183 1.349 . S
C184 C200 1.349 . S
C185 C183 1.327 . S
C185 C204 1.429 . S
C185 H209 0.950 . S
C186 C203 1.574 . S
C186 C205 1.368 . S
C186 H210 0.949 . S
H187 C191 0.949 . S
C188 C189 1.349 . S
C188 C190 1.327 . S
C188 H211 0.950 . S
C189 C188 1.349 . S
C189 C201 1.349 . S
C190 C188 1.327 . S
C190 C206 1.429 . S
C190 H212 0.950 . S
C191 H187 0.949 . S
C191 C199 1.574 . S
C191 C207 1.368 . S
H192 C200 0.950 . S
H193 C198 0.950 . S
H194 C199 0.949 . S
H195 C201 0.950 . S
H196 C202 0.950 . S
H197 C203 0.949 . S
C198 H193 0.950 . S
C198 C200 1.327 . S
C198 C204 1.429 . S
C199 C191 1.574 . S
C199 H194 0.949 . S
C199 C205 1.368 . S
C200 C184 1.349 . S
C200 H192 0.950 . S
C200 C198 1.327 . S
C201 C189 1.349 . S
C201 H195 0.950 . S
C201 C202 1.327 . S
C202 H196 0.950 . S
C202 C201 1.327 . S
C202 C206 1.429 . S
C203 C186 1.574 . S
C203 H197 0.949 . S
C203 C207 1.368 . S
C204 C185 1.429 . S
C204 C198 1.429 . S
C204 C205 1.523 . S
C205 C186 1.368 . S
C205 C199 1.368 . S
C205 C204 1.523 . S
C206 C190 1.429 . S
C206 C202 1.429 . S
C206 C207 1.523 . S
C207 C191 1.368 . S
C207 C203 1.368 . S
C207 C206 1.523 . S
H208 C183 0.950 . S
H209 C185 0.950 . S
H210 C186 0.949 . S
H211 C188 0.950 . S
H212 C190 0.950 . S
C213 C214 1.349 . S
C213 C215 1.327 . S
C213 H238 0.950 . S
C214 C213 1.349 . S
C214 C230 1.349 . S
C215 C213 1.327 . S
C215 C234 1.429 . S
C215 H239 0.950 . S
C216 C233 1.574 . S
C216 C235 1.368 . S
C216 H240 0.949 . S
H217 C221 0.949 . S
C218 C219 1.349 . S
C218 C220 1.327 . S
C218 H241 0.950 . S
C219 C218 1.349 . S
C219 C231 1.349 . S
C220 C218 1.327 . S
C220 C236 1.429 . S
C220 H242 0.950 . S
C221 H217 0.949 . S
C221 C229 1.574 . S
C221 C237 1.368 . S
H222 C230 0.950 . S
H223 C228 0.950 . S
H224 C229 0.949 . S
H225 C231 0.950 . S
H226 C232 0.950 . S
H227 C233 0.949 . S
C228 H223 0.950 . S
C228 C230 1.327 . S
C228 C234 1.429 . S
C229 C221 1.574 . S
C229 H224 0.949 . S
C229 C235 1.368 . S
C230 C214 1.349 . S
C230 H222 0.950 . S
C230 C228 1.327 . S
C231 C219 1.349 . S
C231 H225 0.950 . S
C231 C232 1.327 . S
C232 H226 0.950 . S
C232 C231 1.327 . S
C232 C236 1.429 . S
C233 C216 1.574 . S
C233 H227 0.949 . S
C233 C237 1.368 . S
C234 C215 1.429 . S
C234 C228 1.429 . S
C234 C235 1.523 . S
C235 C216 1.368 . S
C235 C229 1.368 . S
C235 C234 1.523 . S
C236 C220 1.429 . S
C236 C232 1.429 . S
C236 C237 1.523 . S
C237 C221 1.368 . S
C237 C233 1.368 . S
C237 C236 1.523 . S
H238 C213 0.950 . S
H239 C215 0.950 . S
H240 C216 0.949 . S
H241 C218 0.950 . S
H242 C220 0.950 . S
C243 C244 1.349 . S
C243 C245 1.327 . S
C243 H268 0.950 . S
C244 C243 1.349 . S
C244 C260 1.349 . S
C245 C243 1.327 . S
C245 C264 1.429 . S
C245 H269 0.950 . S
C246 C263 1.574 . S
C246 C265 1.368 . S
C246 H270 0.949 . S
H247 C251 0.949 . S
C248 C249 1.349 . S
C248 C250 1.327 . S
C248 H271 0.950 . S
C249 C248 1.349 . S
C249 C261 1.349 . S
C250 C248 1.327 . S
C250 C266 1.429 . S
C250 H272 0.950 . S
C251 H247 0.949 . S
C251 C259 1.574 . S
C251 C267 1.368 . S
H252 C260 0.950 . S
H253 C258 0.950 . S
H254 C259 0.949 . S
H255 C261 0.950 . S
H256 C262 0.950 . S
H257 C263 0.949 . S
C258 H253 0.950 . S
C258 C260 1.327 . S
C258 C264 1.429 . S
C259 C251 1.574 . S
C259 H254 0.949 . S
C259 C265 1.368 . S
C260 C244 1.349 . S
C260 H252 0.950 . S
C260 C258 1.327 . S
C261 C249 1.349 . S
C261 H255 0.950 . S
C261 C262 1.327 . S
C262 H256 0.950 . S
C262 C261 1.327 . S
C262 C266 1.429 . S
C263 C246 1.574 . S
C263 H257 0.949 . S
C263 C267 1.368 . S
C264 C245 1.429 . S
C264 C258 1.429 . S
C264 C265 1.523 . S
C265 C246 1.368 . S
C265 C259 1.368 . S
C265 C264 1.523 . S
C266 C250 1.429 . S
C266 C262 1.429 . S
C266 C267 1.523 . S
C267 C251 1.368 . S
C267 C263 1.368 . S
C267 C266 1.523 . S
H268 C243 0.950 . S
H269 C245 0.950 . S
H270 C246 0.949 . S
H271 C248 0.950 . S
H272 C250 0.950 . S
C273 C274 1.349 . S
C273 C275 1.327 . S
C273 H298 0.950 . S
C274 C273 1.349 . S
C274 C290 1.349 . S
C275 C273 1.327 . S
C275 C294 1.429 . S
C275 H299 0.950 . S
C276 C293 1.574 . S
C276 C295 1.368 . S
C276 H300 0.949 . S
H277 C281 0.949 . S
C278 C279 1.349 . S
C278 C280 1.327 . S
C278 H301 0.950 . S
C279 C278 1.349 . S
C279 C291 1.349 . S
C280 C278 1.327 . S
C280 C296 1.429 . S
C280 H302 0.950 . S
C281 H277 0.949 . S
C281 C289 1.574 . S
C281 C297 1.368 . S
H282 C290 0.950 . S
H283 C288 0.950 . S
H284 C289 0.949 . S
H285 C291 0.950 . S
H286 C292 0.950 . S
H287 C293 0.949 . S
C288 H283 0.950 . S
C288 C290 1.327 . S
C288 C294 1.429 . S
C289 C281 1.574 . S
C289 H284 0.949 . S
C289 C295 1.368 . S
C290 C274 1.349 . S
C290 H282 0.950 . S
C290 C288 1.327 . S
C291 C279 1.349 . S
C291 H285 0.950 . S
C291 C292 1.327 . S
C292 H286 0.950 . S
C292 C291 1.327 . S
C292 C296 1.429 . S
C293 C276 1.574 . S
C293 H287 0.949 . S
C293 C297 1.368 . S
C294 C275 1.429 . S
C294 C288 1.429 . S
C294 C295 1.523 . S
C295 C276 1.368 . S
C295 C289 1.368 . S
C295 C294 1.523 . S
C296 C280 1.429 . S
C296 C292 1.429 . S
C296 C297 1.523 . S
C297 C281 1.368 . S
C297 C293 1.368 . S
C297 C296 1.523 . S
H298 C273 0.950 . S
H299 C275 0.950 . S
H300 C276 0.949 . S
H301 C278 0.950 . S
H302 C280 0.950 . S
C64 C10 1.082 . S
C69 C54 1.091 . S
C94 C0 1.563 . S
C99 C58 1.564 . S
C124 C18 1.470 . S
C129 C48 1.496 . S
C154 C27 1.644 . S
C159 C53 1.632 . S
C184 C24 1.563 . S
C189 C39 1.567 . S
C219 C55 1.496 . S
C214 C11 1.469 . S
C244 C1 1.645 . S
C249 C61 1.635 . S
C279 C62 1.094 . S
C274 C2 1.085 . S
