# Generated by pormake.
# Topology tbo, (3,4)-cn, num edge types: 1
# Building blocks:
#     Node 0, Type 0, BuildingBlock: WUSLED_clean_sbu_0, # of connection points: 3
#     Node 1, Type 0, BuildingBlock: WUSLED_clean_sbu_0, # of connection points: 3
#     Node 2, Type 0, BuildingBlock: WUSLED_clean_sbu_0, # of connection points: 3
#     Node 3, Type 0, BuildingBlock: WUSLED_clean_sbu_0, # of connection points: 3
#     Node 4, Type 0, BuildingBlock: WUSLED_clean_sbu_0, # of connection points: 3
#     Node 5, Type 0, BuildingBlock: WUSLED_clean_sbu_0, # of connection points: 3
#     Node 6, Type 0, BuildingBlock: WUSLED_clean_sbu_0, # of connection points: 3
#     Node 7, Type 0, BuildingBlock: WUSLED_clean_sbu_0, # of connection points: 3
#     Node 8, Type 0, BuildingBlock: WUSLED_clean_sbu_0, # of connection points: 3
#     Node 9, Type 0, BuildingBlock: WUSLED_clean_sbu_0, # of connection points: 3
#     Node 10, Type 0, BuildingBlock: WUSLED_clean_sbu_0, # of connection points: 3
#     Node 11, Type 0, BuildingBlock: WUSLED_clean_sbu_0, # of connection points: 3
#     Node 12, Type 0, BuildingBlock: WUSLED_clean_sbu_0, # of connection points: 3
#     Node 13, Type 0, BuildingBlock: WUSLED_clean_sbu_0, # of connection points: 3
#     Node 14, Type 0, BuildingBlock: WUSLED_clean_sbu_0, # of connection points: 3
#     Node 15, Type 0, BuildingBlock: WUSLED_clean_sbu_0, # of connection points: 3
#     Node 16, Type 0, BuildingBlock: WUSLED_clean_sbu_0, # of connection points: 3
#     Node 17, Type 0, BuildingBlock: WUSLED_clean_sbu_0, # of connection points: 3
#     Node 18, Type 0, BuildingBlock: WUSLED_clean_sbu_0, # of connection points: 3
#     Node 19, Type 0, BuildingBlock: WUSLED_clean_sbu_0, # of connection points: 3
#     Node 20, Type 0, BuildingBlock: WUSLED_clean_sbu_0, # of connection points: 3
#     Node 21, Type 0, BuildingBlock: WUSLED_clean_sbu_0, # of connection points: 3
#     Node 22, Type 0, BuildingBlock: WUSLED_clean_sbu_0, # of connection points: 3
#     Node 23, Type 0, BuildingBlock: WUSLED_clean_sbu_0, # of connection points: 3
#     Node 24, Type 0, BuildingBlock: WUSLED_clean_sbu_0, # of connection points: 3
#     Node 25, Type 0, BuildingBlock: WUSLED_clean_sbu_0, # of connection points: 3
#     Node 26, Type 0, BuildingBlock: WUSLED_clean_sbu_0, # of connection points: 3
#     Node 27, Type 0, BuildingBlock: WUSLED_clean_sbu_0, # of connection points: 3
#     Node 28, Type 0, BuildingBlock: WUSLED_clean_sbu_0, # of connection points: 3
#     Node 29, Type 0, BuildingBlock: WUSLED_clean_sbu_0, # of connection points: 3
#     Node 30, Type 0, BuildingBlock: WUSLED_clean_sbu_0, # of connection points: 3
#     Node 31, Type 0, BuildingBlock: WUSLED_clean_sbu_0, # of connection points: 3
#     Node 32, Type 1, BuildingBlock: ESEHIV_clean_sbu_0, # of connection points: 4
#     Node 33, Type 1, BuildingBlock: ESEHIV_clean_sbu_0, # of connection points: 4
#     Node 34, Type 1, BuildingBlock: ESEHIV_clean_sbu_0, # of connection points: 4
#     Node 35, Type 1, BuildingBlock: ESEHIV_clean_sbu_0, # of connection points: 4
#     Node 36, Type 1, BuildingBlock: ESEHIV_clean_sbu_0, # of connection points: 4
#     Node 37, Type 1, BuildingBlock: ESEHIV_clean_sbu_0, # of connection points: 4
#     Node 38, Type 1, BuildingBlock: ESEHIV_clean_sbu_0, # of connection points: 4
#     Node 39, Type 1, BuildingBlock: ESEHIV_clean_sbu_0, # of connection points: 4
#     Node 40, Type 1, BuildingBlock: ESEHIV_clean_sbu_0, # of connection points: 4
#     Node 41, Type 1, BuildingBlock: ESEHIV_clean_sbu_0, # of connection points: 4
#     Node 42, Type 1, BuildingBlock: ESEHIV_clean_sbu_0, # of connection points: 4
#     Node 43, Type 1, BuildingBlock: ESEHIV_clean_sbu_0, # of connection points: 4
#     Node 44, Type 1, BuildingBlock: ESEHIV_clean_sbu_0, # of connection points: 4
#     Node 45, Type 1, BuildingBlock: ESEHIV_clean_sbu_0, # of connection points: 4
#     Node 46, Type 1, BuildingBlock: ESEHIV_clean_sbu_0, # of connection points: 4
#     Node 47, Type 1, BuildingBlock: ESEHIV_clean_sbu_0, # of connection points: 4
#     Node 48, Type 1, BuildingBlock: ESEHIV_clean_sbu_0, # of connection points: 4
#     Node 49, Type 1, BuildingBlock: ESEHIV_clean_sbu_0, # of connection points: 4
#     Node 50, Type 1, BuildingBlock: ESEHIV_clean_sbu_0, # of connection points: 4
#     Node 51, Type 1, BuildingBlock: ESEHIV_clean_sbu_0, # of connection points: 4
#     Node 52, Type 1, BuildingBlock: ESEHIV_clean_sbu_0, # of connection points: 4
#     Node 53, Type 1, BuildingBlock: ESEHIV_clean_sbu_0, # of connection points: 4
#     Node 54, Type 1, BuildingBlock: ESEHIV_clean_sbu_0, # of connection points: 4
#     Node 55, Type 1, BuildingBlock: ESEHIV_clean_sbu_0, # of connection points: 4
#     Edge 56, Type (0, 1), BuildingBlock: XIVTED_clean_linker_0, # of connection points: 2
#     Edge 57, Type (0, 1), BuildingBlock: XIVTED_clean_linker_0, # of connection points: 2
#     Edge 58, Type (0, 1), BuildingBlock: XIVTED_clean_linker_0, # of connection points: 2
#     Edge 59, Type (0, 1), BuildingBlock: XIVTED_clean_linker_0, # of connection points: 2
#     Edge 60, Type (0, 1), BuildingBlock: XIVTED_clean_linker_0, # of connection points: 2
#     Edge 61, Type (0, 1), BuildingBlock: XIVTED_clean_linker_0, # of connection points: 2
#     Edge 62, Type (0, 1), BuildingBlock: XIVTED_clean_linker_0, # of connection points: 2
#     Edge 63, Type (0, 1), BuildingBlock: XIVTED_clean_linker_0, # of connection points: 2
#     Edge 64, Type (0, 1), BuildingBlock: XIVTED_clean_linker_0, # of connection points: 2
#     Edge 65, Type (0, 1), BuildingBlock: XIVTED_clean_linker_0, # of connection points: 2
#     Edge 66, Type (0, 1), BuildingBlock: XIVTED_clean_linker_0, # of connection points: 2
#     Edge 67, Type (0, 1), BuildingBlock: XIVTED_clean_linker_0, # of connection points: 2
#     Edge 68, Type (0, 1), BuildingBlock: XIVTED_clean_linker_0, # of connection points: 2
#     Edge 69, Type (0, 1), BuildingBlock: XIVTED_clean_linker_0, # of connection points: 2
#     Edge 70, Type (0, 1), BuildingBlock: XIVTED_clean_linker_0, # of connection points: 2
#     Edge 71, Type (0, 1), BuildingBlock: XIVTED_clean_linker_0, # of connection points: 2
#     Edge 72, Type (0, 1), BuildingBlock: XIVTED_clean_linker_0, # of connection points: 2
#     Edge 73, Type (0, 1), BuildingBlock: XIVTED_clean_linker_0, # of connection points: 2
#     Edge 74, Type (0, 1), BuildingBlock: XIVTED_clean_linker_0, # of connection points: 2
#     Edge 75, Type (0, 1), BuildingBlock: XIVTED_clean_linker_0, # of connection points: 2
#     Edge 76, Type (0, 1), BuildingBlock: XIVTED_clean_linker_0, # of connection points: 2
#     Edge 77, Type (0, 1), BuildingBlock: XIVTED_clean_linker_0, # of connection points: 2
#     Edge 78, Type (0, 1), BuildingBlock: XIVTED_clean_linker_0, # of connection points: 2
#     Edge 79, Type (0, 1), BuildingBlock: XIVTED_clean_linker_0, # of connection points: 2
#     Edge 80, Type (0, 1), BuildingBlock: XIVTED_clean_linker_0, # of connection points: 2
#     Edge 81, Type (0, 1), BuildingBlock: XIVTED_clean_linker_0, # of connection points: 2
#     Edge 82, Type (0, 1), BuildingBlock: XIVTED_clean_linker_0, # of connection points: 2
#     Edge 83, Type (0, 1), BuildingBlock: XIVTED_clean_linker_0, # of connection points: 2
#     Edge 84, Type (0, 1), BuildingBlock: XIVTED_clean_linker_0, # of connection points: 2
#     Edge 85, Type (0, 1), BuildingBlock: XIVTED_clean_linker_0, # of connection points: 2
#     Edge 86, Type (0, 1), BuildingBlock: XIVTED_clean_linker_0, # of connection points: 2
#     Edge 87, Type (0, 1), BuildingBlock: XIVTED_clean_linker_0, # of connection points: 2
#     Edge 88, Type (0, 1), BuildingBlock: XIVTED_clean_linker_0, # of connection points: 2
#     Edge 89, Type (0, 1), BuildingBlock: XIVTED_clean_linker_0, # of connection points: 2
#     Edge 90, Type (0, 1), BuildingBlock: XIVTED_clean_linker_0, # of connection points: 2
#     Edge 91, Type (0, 1), BuildingBlock: XIVTED_clean_linker_0, # of connection points: 2
#     Edge 92, Type (0, 1), BuildingBlock: XIVTED_clean_linker_0, # of connection points: 2
#     Edge 93, Type (0, 1), BuildingBlock: XIVTED_clean_linker_0, # of connection points: 2
#     Edge 94, Type (0, 1), BuildingBlock: XIVTED_clean_linker_0, # of connection points: 2
#     Edge 95, Type (0, 1), BuildingBlock: XIVTED_clean_linker_0, # of connection points: 2
#     Edge 96, Type (0, 1), BuildingBlock: XIVTED_clean_linker_0, # of connection points: 2
#     Edge 97, Type (0, 1), BuildingBlock: XIVTED_clean_linker_0, # of connection points: 2
#     Edge 98, Type (0, 1), BuildingBlock: XIVTED_clean_linker_0, # of connection points: 2
#     Edge 99, Type (0, 1), BuildingBlock: XIVTED_clean_linker_0, # of connection points: 2
#     Edge 100, Type (0, 1), BuildingBlock: XIVTED_clean_linker_0, # of connection points: 2
#     Edge 101, Type (0, 1), BuildingBlock: XIVTED_clean_linker_0, # of connection points: 2
#     Edge 102, Type (0, 1), BuildingBlock: XIVTED_clean_linker_0, # of connection points: 2
#     Edge 103, Type (0, 1), BuildingBlock: XIVTED_clean_linker_0, # of connection points: 2
#     Edge 104, Type (0, 1), BuildingBlock: XIVTED_clean_linker_0, # of connection points: 2
#     Edge 105, Type (0, 1), BuildingBlock: XIVTED_clean_linker_0, # of connection points: 2
#     Edge 106, Type (0, 1), BuildingBlock: XIVTED_clean_linker_0, # of connection points: 2
#     Edge 107, Type (0, 1), BuildingBlock: XIVTED_clean_linker_0, # of connection points: 2
#     Edge 108, Type (0, 1), BuildingBlock: XIVTED_clean_linker_0, # of connection points: 2
#     Edge 109, Type (0, 1), BuildingBlock: XIVTED_clean_linker_0, # of connection points: 2
#     Edge 110, Type (0, 1), BuildingBlock: XIVTED_clean_linker_0, # of connection points: 2
#     Edge 111, Type (0, 1), BuildingBlock: XIVTED_clean_linker_0, # of connection points: 2
#     Edge 112, Type (0, 1), BuildingBlock: XIVTED_clean_linker_0, # of connection points: 2
#     Edge 113, Type (0, 1), BuildingBlock: XIVTED_clean_linker_0, # of connection points: 2
#     Edge 114, Type (0, 1), BuildingBlock: XIVTED_clean_linker_0, # of connection points: 2
#     Edge 115, Type (0, 1), BuildingBlock: XIVTED_clean_linker_0, # of connection points: 2
#     Edge 116, Type (0, 1), BuildingBlock: XIVTED_clean_linker_0, # of connection points: 2
#     Edge 117, Type (0, 1), BuildingBlock: XIVTED_clean_linker_0, # of connection points: 2
#     Edge 118, Type (0, 1), BuildingBlock: XIVTED_clean_linker_0, # of connection points: 2
#     Edge 119, Type (0, 1), BuildingBlock: XIVTED_clean_linker_0, # of connection points: 2
#     Edge 120, Type (0, 1), BuildingBlock: XIVTED_clean_linker_0, # of connection points: 2
#     Edge 121, Type (0, 1), BuildingBlock: XIVTED_clean_linker_0, # of connection points: 2
#     Edge 122, Type (0, 1), BuildingBlock: XIVTED_clean_linker_0, # of connection points: 2
#     Edge 123, Type (0, 1), BuildingBlock: XIVTED_clean_linker_0, # of connection points: 2
#     Edge 124, Type (0, 1), BuildingBlock: XIVTED_clean_linker_0, # of connection points: 2
#     Edge 125, Type (0, 1), BuildingBlock: XIVTED_clean_linker_0, # of connection points: 2
#     Edge 126, Type (0, 1), BuildingBlock: XIVTED_clean_linker_0, # of connection points: 2
#     Edge 127, Type (0, 1), BuildingBlock: XIVTED_clean_linker_0, # of connection points: 2
#     Edge 128, Type (0, 1), BuildingBlock: XIVTED_clean_linker_0, # of connection points: 2
#     Edge 129, Type (0, 1), BuildingBlock: XIVTED_clean_linker_0, # of connection points: 2
#     Edge 130, Type (0, 1), BuildingBlock: XIVTED_clean_linker_0, # of connection points: 2
#     Edge 131, Type (0, 1), BuildingBlock: XIVTED_clean_linker_0, # of connection points: 2
#     Edge 132, Type (0, 1), BuildingBlock: XIVTED_clean_linker_0, # of connection points: 2
#     Edge 133, Type (0, 1), BuildingBlock: XIVTED_clean_linker_0, # of connection points: 2
#     Edge 134, Type (0, 1), BuildingBlock: XIVTED_clean_linker_0, # of connection points: 2
#     Edge 135, Type (0, 1), BuildingBlock: XIVTED_clean_linker_0, # of connection points: 2
#     Edge 136, Type (0, 1), BuildingBlock: XIVTED_clean_linker_0, # of connection points: 2
#     Edge 137, Type (0, 1), BuildingBlock: XIVTED_clean_linker_0, # of connection points: 2
#     Edge 138, Type (0, 1), BuildingBlock: XIVTED_clean_linker_0, # of connection points: 2
#     Edge 139, Type (0, 1), BuildingBlock: XIVTED_clean_linker_0, # of connection points: 2
#     Edge 140, Type (0, 1), BuildingBlock: XIVTED_clean_linker_0, # of connection points: 2
#     Edge 141, Type (0, 1), BuildingBlock: XIVTED_clean_linker_0, # of connection points: 2
#     Edge 142, Type (0, 1), BuildingBlock: XIVTED_clean_linker_0, # of connection points: 2
#     Edge 143, Type (0, 1), BuildingBlock: XIVTED_clean_linker_0, # of connection points: 2
#     Edge 144, Type (0, 1), BuildingBlock: XIVTED_clean_linker_0, # of connection points: 2
#     Edge 145, Type (0, 1), BuildingBlock: XIVTED_clean_linker_0, # of connection points: 2
#     Edge 146, Type (0, 1), BuildingBlock: XIVTED_clean_linker_0, # of connection points: 2
#     Edge 147, Type (0, 1), BuildingBlock: XIVTED_clean_linker_0, # of connection points: 2
#     Edge 148, Type (0, 1), BuildingBlock: XIVTED_clean_linker_0, # of connection points: 2
#     Edge 149, Type (0, 1), BuildingBlock: XIVTED_clean_linker_0, # of connection points: 2
#     Edge 150, Type (0, 1), BuildingBlock: XIVTED_clean_linker_0, # of connection points: 2
#     Edge 151, Type (0, 1), BuildingBlock: XIVTED_clean_linker_0, # of connection points: 2
# Relax obj value: 0.002
# Max RMSD: 0.116
# Mean RMSD: 0.047
data_MOF--net-tbo--node1-WUSLED_clean_sbu_0--node2-ESEHIV_clean_sbu_0--edge1-XIVTED_clean_linker_0
_symmetry_space_group_name_H-M    P1
_symmetry_Int_Tables_number       1
_symmetry_cell_setting            triclinic
loop_
_symmetry_equiv_pos_as_xyz
'x, y, z'
_cell_length_a     96.995271
_cell_length_b     97.3124
_cell_length_c     97.141823
_cell_angle_alpha  89.614693
_cell_angle_beta   92.107371
_cell_angle_gamma 91.341245
loop_
_atom_site_label
_atom_site_type_symbol
_atom_site_fract_x
_atom_site_fract_y
_atom_site_fract_z
_atom_type_partial_charge
C0 C 0.20114 0.13363 0.21442 0.0
C1 C 0.20168 0.12322 0.20447 0.0
C2 C 0.21592 0.10912 0.22013 0.0
C3 C 0.20898 0.11115 0.20729 0.0
C4 C 0.21568 0.11975 0.22989 0.0
C5 C 0.20836 0.13178 0.22709 0.0
U6 U 0.18895 0.16776 0.1967 0.0
O7 O 0.16775 0.17473 0.19244 0.0
O8 O 0.18166 0.18658 0.20645 0.0
C9 C 0.16917 0.18526 0.20084 0.0
C10 C 0.1921 0.14576 0.21245 0.0
C11 C 0.15741 0.1884 0.20962 0.0
C12 C 0.1355 0.18236 0.22003 0.0
C13 C 0.14725 0.17851 0.21302 0.0
C14 C 0.14402 0.20591 0.22057 0.0
C15 C 0.1336 0.19618 0.22368 0.0
C16 C 0.15573 0.20206 0.21365 0.0
C17 C 0.20925 0.18272 0.16573 0.0
C18 C 0.20231 0.19833 0.14707 0.0
C19 C 0.2265 0.19394 0.15157 0.0
C20 C 0.22307 0.18516 0.16246 0.0
C21 C 0.21618 0.20054 0.14358 0.0
C22 C 0.19887 0.18949 0.15802 0.0
C23 C 0.20615 0.17257 0.17673 0.0
O24 O 0.19759 0.15789 0.21556 0.0
O25 O 0.18386 0.14607 0.2014 0.0
O26 O 0.19474 0.16508 0.17517 0.0
O27 O 0.2086 0.17658 0.18949 0.0
H28 H 0.19623 0.12424 0.1946 0.0
H29 H 0.20905 0.10333 0.19942 0.0
H30 H 0.2207 0.11856 0.23996 0.0
H31 H 0.20801 0.13951 0.23504 0.0
H32 H 0.12768 0.17459 0.22217 0.0
H33 H 0.14821 0.1679 0.20999 0.0
H34 H 0.14309 0.21658 0.22341 0.0
H35 H 0.16336 0.2099 0.21113 0.0
H36 H 0.19406 0.20314 0.14113 0.0
H37 H 0.2373 0.19556 0.14943 0.0
H38 H 0.23127 0.18009 0.16826 0.0
H39 H 0.18812 0.1878 0.1603 0.0
C40 C 0.83509 0.2008 0.14031 0.0
C41 C 0.83382 0.21516 0.14064 0.0
C42 C 0.82613 0.21556 0.11633 0.0
C43 C 0.82939 0.22244 0.12881 0.0
C44 C 0.82767 0.20121 0.11602 0.0
C45 C 0.83205 0.19395 0.12785 0.0
U46 U 0.858 0.1923 0.17278 0.0
O47 O 0.85192 0.18538 0.19343 0.0
O48 O 0.86441 0.17213 0.18089 0.0
C49 C 0.85809 0.17355 0.19252 0.0
C50 C 0.83882 0.19262 0.15285 0.0
C51 C 0.85094 0.16125 0.19813 0.0
C52 C 0.83447 0.14194 0.19647 0.0
C53 C 0.84043 0.15394 0.19078 0.0
C54 C 0.84938 0.14458 0.21684 0.0
C55 C 0.83901 0.13701 0.20953 0.0
C56 C 0.85525 0.15652 0.21121 0.0
C57 C 0.89035 0.21468 0.1819 0.0
C58 C 0.90527 0.21102 0.20224 0.0
C59 C 0.91127 0.2287 0.18572 0.0
C60 C 0.89936 0.22526 0.17774 0.0
C61 C 0.91444 0.2216 0.19807 0.0
C62 C 0.89337 0.20759 0.19423 0.0
C63 C 0.87798 0.21114 0.1732 0.0
O64 O 0.85001 0.18529 0.15236 0.0
O65 O 0.8375 0.19854 0.16485 0.0
O66 O 0.86602 0.21285 0.17881 0.0
O67 O 0.87845 0.19961 0.16629 0.0
H68 H 0.83605 0.22077 0.15008 0.0
H69 H 0.82821 0.23344 0.12956 0.0
H70 H 0.82554 0.19552 0.10661 0.0
H71 H 0.83292 0.18288 0.12729 0.0
H72 H 0.82655 0.13635 0.19051 0.0
H73 H 0.83696 0.1574 0.18065 0.0
H74 H 0.85297 0.14132 0.22701 0.0
H75 H 0.86331 0.16202 0.21709 0.0
H76 H 0.90722 0.20544 0.21177 0.0
H77 H 0.91812 0.23675 0.18205 0.0
H78 H 0.89724 0.23083 0.16823 0.0
H79 H 0.88652 0.1994 0.19766 0.0
C80 C 0.83044 0.85166 0.14257 0.0
C81 C 0.83116 0.83724 0.1428 0.0
C82 C 0.82454 0.83614 0.11819 0.0
C83 C 0.82823 0.82956 0.13074 0.0
C84 C 0.82395 0.8506 0.11809 0.0
C85 C 0.82687 0.85821 0.13007 0.0
U86 U 0.84783 0.86256 0.17807 0.0
O87 O 0.85318 0.88355 0.18532 0.0
O88 O 0.83776 0.87111 0.19605 0.0
C89 C 0.8441 0.88315 0.19504 0.0
C90 C 0.8325 0.86023 0.15514 0.0
C91 C 0.83596 0.8958 0.19697 0.0
C92 C 0.81433 0.90757 0.20057 0.0
C93 C 0.82145 0.89559 0.19737 0.0
C94 C 0.83603 0.92017 0.20292 0.0
C95 C 0.82153 0.92006 0.20348 0.0
C96 C 0.84309 0.90826 0.19973 0.0
C97 C 0.87844 0.84033 0.19344 0.0
C98 C 0.90049 0.84474 0.20586 0.0
C99 C 0.89076 0.82166 0.20502 0.0
C100 C 0.87936 0.82642 0.19723 0.0
C101 C 0.90164 0.83068 0.20926 0.0
C102 C 0.88906 0.8495 0.198 0.0
C103 C 0.86718 0.84445 0.18351 0.0
O104 O 0.82905 0.85472 0.16697 0.0
O105 O 0.84388 0.86781 0.15613 0.0
O106 O 0.86914 0.85566 0.17613 0.0
O107 O 0.85438 0.84281 0.18734 0.0
H108 H 0.83387 0.83189 0.15229 0.0
H109 H 0.82893 0.81848 0.13126 0.0
H110 H 0.8209 0.8561 0.10879 0.0
H111 H 0.82608 0.86929 0.12962 0.0
H112 H 0.80318 0.90702 0.20075 0.0
H113 H 0.81559 0.88615 0.1954 0.0
H114 H 0.84207 0.92939 0.20536 0.0
H115 H 0.85427 0.90873 0.19975 0.0
H116 H 0.90866 0.85201 0.20885 0.0
H117 H 0.89109 0.81083 0.20761 0.0
H118 H 0.8714 0.81909 0.19381 0.0
H119 H 0.88874 0.86028 0.19517 0.0
C120 C 0.14048 0.81212 0.18044 0.0
C121 C 0.13599 0.81944 0.19178 0.0
C122 C 0.11659 0.80308 0.19445 0.0
C123 C 0.1242 0.81498 0.1987 0.0
C124 C 0.12129 0.79574 0.18315 0.0
C125 C 0.13306 0.80021 0.17625 0.0
U126 U 0.17217 0.83615 0.17369 0.0
O127 O 0.1925 0.83086 0.166 0.0
O128 O 0.1792 0.84478 0.15398 0.0
C129 C 0.19092 0.83827 0.1547 0.0
C130 C 0.15264 0.81676 0.17263 0.0
C131 C 0.19607 0.8327 0.14168 0.0
C132 C 0.20038 0.81403 0.12578 0.0
C133 C 0.19454 0.8188 0.13791 0.0
C134 C 0.20928 0.83693 0.12113 0.0
C135 C 0.20788 0.82304 0.11719 0.0
C136 C 0.20345 0.84166 0.13313 0.0
C137 C 0.1805 0.86673 0.19919 0.0
C138 C 0.18076 0.89141 0.20383 0.0
C139 C 0.19865 0.87733 0.21404 0.0
C140 C 0.19261 0.86568 0.20755 0.0
C141 C 0.19268 0.89034 0.21247 0.0
C142 C 0.17475 0.87978 0.19734 0.0
C143 C 0.17282 0.85424 0.19387 0.0
O144 O 0.15163 0.82864 0.16621 0.0
O145 O 0.16483 0.81512 0.17873 0.0
O146 O 0.17904 0.84238 0.1947 0.0
O147 O 0.16534 0.85561 0.1824 0.0
H148 H 0.14157 0.82863 0.19523 0.0
H149 H 0.1211 0.82083 0.20746 0.0
H150 H 0.1157 0.78668 0.17941 0.0
H151 H 0.1363 0.79441 0.1675 0.0
H152 H 0.19892 0.8033 0.12311 0.0
H153 H 0.18894 0.81165 0.14435 0.0
H154 H 0.21519 0.8442 0.11509 0.0
H155 H 0.20492 0.85238 0.13588 0.0
H156 H 0.17595 0.90124 0.20216 0.0
H157 H 0.20771 0.87602 0.22072 0.0
H158 H 0.19724 0.85579 0.20944 0.0
H159 H 0.16533 0.88099 0.19115 0.0
C160 C 0.14352 0.82951 0.83087 0.0
C161 C 0.14396 0.82905 0.81641 0.0
C162 C 0.11901 0.82465 0.81449 0.0
C163 C 0.13184 0.82661 0.80832 0.0
C164 C 0.11866 0.82525 0.82895 0.0
C165 C 0.13073 0.82761 0.837 0.0
U166 U 0.17739 0.84812 0.84413 0.0
O167 O 0.18493 0.85125 0.86555 0.0
O168 O 0.19701 0.83908 0.85163 0.0
C169 C 0.19559 0.8433 0.86433 0.0
C170 C 0.15617 0.83108 0.8399 0.0
C171 C 0.19845 0.83321 0.87565 0.0
C172 C 0.19274 0.82237 0.89755 0.0
C173 C 0.18908 0.83063 0.88613 0.0
C174 C 0.21503 0.81869 0.88805 0.0
C175 C 0.20586 0.81645 0.89879 0.0
C176 C 0.21138 0.82699 0.87668 0.0
C177 C 0.18785 0.88296 0.82563 0.0
C178 C 0.18872 0.90805 0.82446 0.0
C179 C 0.20621 0.89511 0.81355 0.0
C180 C 0.19993 0.88279 0.81803 0.0
C181 C 0.2005 0.90791 0.81642 0.0
C182 C 0.18247 0.89577 0.82895 0.0
C183 C 0.17958 0.87016 0.8283 0.0
O184 O 0.16816 0.82959 0.83426 0.0
O185 O 0.15629 0.84114 0.84887 0.0
O186 O 0.17241 0.8697 0.83953 0.0
O187 O 0.18491 0.85826 0.82536 0.0
H188 H 0.15366 0.83044 0.81134 0.0
H189 H 0.13251 0.82634 0.79722 0.0
H190 H 0.10906 0.82355 0.83413 0.0
H191 H 0.1301 0.82774 0.84812 0.0
H192 H 0.18531 0.82075 0.90549 0.0
H193 H 0.17901 0.83524 0.88571 0.0
H194 H 0.22527 0.81448 0.88867 0.0
H195 H 0.21888 0.82889 0.86885 0.0
H196 H 0.18413 0.91768 0.82709 0.0
H197 H 0.2152 0.89455 0.8073 0.0
H198 H 0.20426 0.87313 0.81507 0.0
H199 H 0.17309 0.89632 0.83462 0.0
C200 C 0.17299 0.19675 0.84779 0.0
C201 C 0.1734 0.20534 0.8361 0.0
C202 C 0.1497 0.21257 0.83923 0.0
C203 C 0.16198 0.21315 0.83191 0.0
C204 C 0.1494 0.2042 0.85114 0.0
C205 C 0.16085 0.19638 0.85533 0.0
U206 U 0.20515 0.18223 0.86868 0.0
O207 O 0.21042 0.16057 0.87244 0.0
O208 O 0.2241 0.17378 0.8604 0.0
C209 C 0.22149 0.16129 0.86502 0.0
C210 C 0.18457 0.18716 0.85086 0.0
C211 C 0.22417 0.14954 0.85571 0.0
C212 C 0.24026 0.13763 0.84132 0.0
C213 C 0.23665 0.14925 0.84879 0.0
C214 C 0.21891 0.12625 0.84739 0.0
C215 C 0.23151 0.12587 0.8406 0.0
C216 C 0.2153 0.13788 0.85485 0.0
C217 C 0.21851 0.20074 0.90281 0.0
C218 C 0.23309 0.21663 0.91668 0.0
C219 C 0.22527 0.19515 0.92666 0.0
C220 C 0.21835 0.19167 0.91416 0.0
C221 C 0.23252 0.20782 0.92822 0.0
C222 C 0.22615 0.21315 0.90419 0.0
C223 C 0.20944 0.19842 0.89022 0.0
O224 O 0.19723 0.19199 0.84945 0.0
O225 O 0.18353 0.17875 0.86144 0.0
O226 O 0.20096 0.18766 0.89009 0.0
O227 O 0.21481 0.20085 0.87818 0.0
H228 H 0.18249 0.20578 0.82994 0.0
H229 H 0.16278 0.21959 0.82283 0.0
H230 H 0.14014 0.2033 0.857 0.0
H231 H 0.16002 0.18975 0.86428 0.0
H232 H 0.24994 0.13789 0.83612 0.0
H233 H 0.24381 0.15795 0.84938 0.0
H234 H 0.21194 0.1174 0.84728 0.0
H235 H 0.20571 0.13758 0.86021 0.0
H236 H 0.23837 0.22653 0.91744 0.0
H237 H 0.22474 0.18798 0.93521 0.0
H238 H 0.21254 0.18204 0.91355 0.0
H239 H 0.22632 0.22047 0.89574 0.0
C240 C 0.84272 0.15361 0.83435 0.0
C241 C 0.84412 0.15029 0.82042 0.0
C242 C 0.82962 0.12947 0.82314 0.0
C243 C 0.83765 0.13833 0.81488 0.0
C244 C 0.82842 0.13291 0.8371 0.0
C245 C 0.8349 0.14475 0.8426 0.0
U246 U 0.86789 0.18585 0.84093 0.0
O247 O 0.86133 0.20666 0.84638 0.0
O248 O 0.8735 0.19453 0.86131 0.0
C249 C 0.86653 0.20581 0.85904 0.0
C250 C 0.84826 0.16659 0.84058 0.0
C251 C 0.85775 0.21054 0.87024 0.0
C252 C 0.84535 0.20666 0.89144 0.0
C253 C 0.8525 0.20154 0.88028 0.0
C254 C 0.84825 0.22975 0.88248 0.0
C255 C 0.84335 0.22089 0.89284 0.0
C256 C 0.85536 0.22464 0.87138 0.0
C257 C 0.90124 0.19356 0.82046 0.0
C258 C 0.92345 0.20454 0.82691 0.0
C259 C 0.9163 0.20299 0.80287 0.0
C260 C 0.90399 0.19626 0.80657 0.0
C261 C 0.92629 0.20721 0.81297 0.0
C262 C 0.91111 0.19784 0.8306 0.0
C263 C 0.88851 0.18553 0.82391 0.0
O264 O 0.85957 0.16594 0.84842 0.0
O265 O 0.84763 0.17789 0.83311 0.0
O266 O 0.87662 0.1912 0.82081 0.0
O267 O 0.88858 0.179 0.83581 0.0
H268 H 0.85005 0.15699 0.8138 0.0
H269 H 0.83898 0.13602 0.80413 0.0
H270 H 0.82214 0.12665 0.8438 0.0
H271 H 0.83352 0.14717 0.85333 0.0
H272 H 0.84181 0.19952 0.89921 0.0
H273 H 0.85417 0.1906 0.87969 0.0
H274 H 0.8467 0.24072 0.88299 0.0
H275 H 0.85926 0.23181 0.86379 0.0
H276 H 0.93088 0.20739 0.83504 0.0
H277 H 0.91791 0.20498 0.79207 0.0
H278 H 0.89663 0.19302 0.79852 0.0
H279 H 0.90939 0.19586 0.84139 0.0
C280 C 0.8455 0.89174 0.81572 0.0
C281 C 0.83736 0.89936 0.82442 0.0
C282 C 0.83136 0.91524 0.80552 0.0
C283 C 0.8304 0.91097 0.81939 0.0
C284 C 0.83956 0.90753 0.79688 0.0
C285 C 0.84653 0.89595 0.80193 0.0
U286 U 0.85247 0.86107 0.84072 0.0
O287 O 0.85908 0.8402 0.83585 0.0
O288 O 0.87242 0.85348 0.84905 0.0
C289 C 0.87101 0.84165 0.84263 0.0
C290 C 0.85323 0.87959 0.82076 0.0
C291 C 0.88341 0.83632 0.83608 0.0
C292 C 0.89594 0.82933 0.816 0.0
C293 C 0.88457 0.83567 0.8217 0.0
C294 C 0.90524 0.82448 0.83891 0.0
C295 C 0.90634 0.82344 0.82454 0.0
C296 C 0.89394 0.83081 0.84457 0.0
C297 C 0.82753 0.85532 0.87128 0.0
C298 C 0.8298 0.84006 0.89126 0.0
C299 C 0.80908 0.85315 0.88759 0.0
C300 C 0.81442 0.85882 0.87556 0.0
C301 C 0.81671 0.84378 0.89572 0.0
C302 C 0.83517 0.84581 0.87918 0.0
C303 C 0.8329 0.86219 0.85883 0.0
O304 O 0.86013 0.88091 0.8326 0.0
O305 O 0.84682 0.8676 0.81947 0.0
O306 O 0.83147 0.85546 0.84716 0.0
O307 O 0.84484 0.8688 0.86024 0.0
H308 H 0.83643 0.89637 0.83511 0.0
H309 H 0.82438 0.91669 0.82645 0.0
H310 H 0.84044 0.91028 0.78613 0.0
H311 H 0.85274 0.89024 0.79502 0.0
H312 H 0.89635 0.82869 0.8049 0.0
H313 H 0.87659 0.83979 0.81489 0.0
H314 H 0.91311 0.82035 0.84585 0.0
H315 H 0.8933 0.83117 0.85567 0.0
H316 H 0.83602 0.83295 0.89727 0.0
H317 H 0.79888 0.8561 0.89047 0.0
H318 H 0.80831 0.8661 0.86963 0.0
H319 H 0.84533 0.84296 0.87609 0.0
C320 C 0.19219 0.65055 0.70005 0.0
C321 C 0.20632 0.65022 0.70387 0.0
C322 C 0.20365 0.62659 0.71235 0.0
C323 C 0.21199 0.63835 0.7099 0.0
C324 C 0.18964 0.62684 0.70805 0.0
C325 C 0.18401 0.63865 0.70201 0.0
U326 U 0.18535 0.68392 0.67775 0.0
O327 O 0.16502 0.69194 0.6714 0.0
O328 O 0.17867 0.70391 0.6855 0.0
C329 C 0.16629 0.70263 0.67959 0.0
C330 C 0.18527 0.66341 0.69563 0.0
C331 C 0.15438 0.70563 0.68831 0.0
C332 C 0.1424 0.72194 0.70237 0.0
C333 C 0.15388 0.71842 0.69487 0.0
C334 C 0.13163 0.69986 0.69706 0.0
C335 C 0.13101 0.71278 0.70348 0.0
C336 C 0.14315 0.69633 0.68958 0.0
C337 C 0.2088 0.69373 0.64658 0.0
C338 C 0.22309 0.71236 0.6372 0.0
C339 C 0.21307 0.69506 0.62191 0.0
C340 C 0.2069 0.68853 0.63314 0.0
C341 C 0.22147 0.70696 0.62378 0.0
C342 C 0.21688 0.70583 0.64842 0.0
C343 C 0.20396 0.68543 0.65856 0.0
O344 O 0.19195 0.67515 0.69782 0.0
O345 O 0.17808 0.66317 0.68389 0.0
O346 O 0.19214 0.6786 0.65702 0.0
O347 O 0.20592 0.69061 0.67098 0.0
H348 H 0.2129 0.65925 0.70259 0.0
H349 H 0.22279 0.63858 0.71314 0.0
H350 H 0.18293 0.61794 0.70952 0.0
H351 H 0.17308 0.63862 0.69925 0.0
H352 H 0.1425 0.73187 0.70733 0.0
H353 H 0.16234 0.72581 0.69405 0.0
H354 H 0.12306 0.69257 0.69749 0.0
H355 H 0.14314 0.6864 0.68463 0.0
H356 H 0.22928 0.72161 0.63908 0.0
H357 H 0.21168 0.69044 0.61184 0.0
H358 H 0.20099 0.67908 0.63134 0.0
H359 H 0.21875 0.7101 0.65861 0.0
C360 C 0.83394 0.70386 0.62691 0.0
C361 C 0.83714 0.71802 0.62644 0.0
C362 C 0.82627 0.71976 0.60336 0.0
C363 C 0.83331 0.72589 0.61479 0.0
C364 C 0.82331 0.70553 0.60387 0.0
C365 C 0.82709 0.69771 0.61549 0.0
U366 U 0.85535 0.69415 0.65998 0.0
O367 O 0.84795 0.68667 0.67998 0.0
O368 O 0.86082 0.67357 0.6677 0.0
C369 C 0.85343 0.67453 0.67872 0.0
C370 C 0.83709 0.69533 0.63927 0.0
C371 C 0.84473 0.6624 0.68246 0.0
C372 C 0.83477 0.64823 0.70055 0.0
C373 C 0.842 0.66009 0.69638 0.0
C374 C 0.83256 0.64078 0.67686 0.0
C375 C 0.83008 0.63829 0.69089 0.0
C376 C 0.83982 0.65268 0.67269 0.0
C377 C 0.88767 0.71672 0.67084 0.0
C378 C 0.90884 0.71116 0.6838 0.0
C379 C 0.90238 0.7349 0.68107 0.0
C380 C 0.8905 0.7307 0.67342 0.0
C381 C 0.91179 0.72521 0.68632 0.0
C382 C 0.89692 0.70696 0.67617 0.0
C383 C 0.87548 0.71279 0.66192 0.0
O384 O 0.84827 0.68799 0.63901 0.0
O385 O 0.83538 0.70104 0.6513 0.0
O386 O 0.8633 0.71445 0.66708 0.0
O387 O 0.87621 0.70138 0.65481 0.0
H388 H 0.84247 0.723 0.63511 0.0
H389 H 0.83591 0.73677 0.61473 0.0
H390 H 0.81773 0.70045 0.59541 0.0
H391 H 0.82446 0.68683 0.61565 0.0
H392 H 0.83286 0.64688 0.71139 0.0
H393 H 0.84566 0.6674 0.70413 0.0
H394 H 0.82921 0.63335 0.66911 0.0
H395 H 0.84178 0.65416 0.66187 0.0
H396 H 0.91588 0.70336 0.68748 0.0
H397 H 0.9041 0.74577 0.68295 0.0
H398 H 0.88355 0.73843 0.66939 0.0
H399 H 0.89505 0.6961 0.6743 0.0
C400 C 0.84245 0.35008 0.65762 0.0
C401 C 0.84882 0.3374 0.65594 0.0
C402 C 0.83456 0.33276 0.63497 0.0
C403 C 0.84494 0.32885 0.64472 0.0
C404 C 0.82839 0.34557 0.6367 0.0
C405 C 0.83228 0.35407 0.64784 0.0
U406 U 0.86396 0.36363 0.69005 0.0
O407 O 0.86861 0.38519 0.69573 0.0
O408 O 0.85604 0.37225 0.70916 0.0
C409 C 0.86119 0.38463 0.70679 0.0
C410 C 0.84582 0.35933 0.66946 0.0
C411 C 0.85243 0.39665 0.70973 0.0
C412 C 0.83867 0.40896 0.72611 0.0
C413 C 0.84548 0.39709 0.72219 0.0
C414 C 0.84539 0.42029 0.70512 0.0
C415 C 0.83862 0.42083 0.71772 0.0
C416 C 0.85221 0.40841 0.70121 0.0
C417 C 0.89765 0.3446 0.70249 0.0
C418 C 0.9092 0.33887 0.72453 0.0
C419 C 0.92199 0.33863 0.70365 0.0
C420 C 0.91017 0.3426 0.69604 0.0
C421 C 0.92166 0.33647 0.71798 0.0
C422 C 0.89732 0.34284 0.71687 0.0
C423 C 0.885 0.3471 0.69372 0.0
O424 O 0.84445 0.35417 0.68189 0.0
O425 O 0.85678 0.36744 0.66854 0.0
O426 O 0.88522 0.3579 0.68551 0.0
O427 O 0.87293 0.34489 0.69918 0.0
H428 H 0.85669 0.33407 0.66335 0.0
H429 H 0.84989 0.31905 0.64384 0.0
H430 H 0.82059 0.34914 0.62936 0.0
H431 H 0.82725 0.36381 0.64886 0.0
H432 H 0.83344 0.4088 0.73577 0.0
H433 H 0.8456 0.38831 0.72911 0.0
H434 H 0.8458 0.42921 0.69842 0.0
H435 H 0.85761 0.40861 0.69165 0.0
H436 H 0.90847 0.33724 0.73551 0.0
H437 H 0.93139 0.33715 0.69823 0.0
H438 H 0.91074 0.3438 0.68497 0.0
H439 H 0.88783 0.3442 0.72218 0.0
C440 C 0.16074 0.33184 0.69605 0.0
C441 C 0.14871 0.33961 0.6966 0.0
C442 C 0.13698 0.3213 0.70954 0.0
C443 C 0.13703 0.33443 0.70326 0.0
C444 C 0.14911 0.31364 0.70911 0.0
C445 C 0.16077 0.31883 0.70244 0.0
U446 U 0.19218 0.35565 0.68573 0.0
O447 O 0.21238 0.34941 0.67834 0.0
O448 O 0.19848 0.36141 0.66487 0.0
C449 C 0.21028 0.35506 0.66614 0.0
C450 C 0.17271 0.33632 0.6877 0.0
C451 C 0.21506 0.34754 0.654 0.0
C452 C 0.21111 0.33685 0.63146 0.0
C453 C 0.20596 0.34235 0.64357 0.0
C454 C 0.23444 0.3414 0.64016 0.0
C455 C 0.22544 0.33657 0.62947 0.0
C456 C 0.22931 0.3468 0.65222 0.0
C457 C 0.2028 0.38849 0.70646 0.0
C458 C 0.22439 0.40177 0.70502 0.0
C459 C 0.20579 0.41055 0.71809 0.0
C460 C 0.19768 0.39887 0.71468 0.0
C461 C 0.2193 0.4122 0.71337 0.0
C462 C 0.21622 0.39006 0.70158 0.0
C463 C 0.19405 0.37604 0.70353 0.0
O464 O 0.17139 0.34743 0.68 0.0
O465 O 0.18513 0.33533 0.69348 0.0
O466 O 0.1999 0.36412 0.70561 0.0
O467 O 0.18618 0.37632 0.69223 0.0
H468 H 0.14818 0.34959 0.69164 0.0
H469 H 0.1279 0.34062 0.70315 0.0
H470 H 0.14965 0.30361 0.71396 0.0
H471 H 0.16979 0.3125 0.70208 0.0
H472 H 0.20385 0.33329 0.62346 0.0
H473 H 0.19491 0.34285 0.64462 0.0
H474 H 0.24551 0.34114 0.63916 0.0
H475 H 0.23655 0.35078 0.66006 0.0
H476 H 0.23465 0.4027 0.70104 0.0
H477 H 0.20154 0.41816 0.72471 0.0
H478 H 0.1874 0.39786 0.71862 0.0
H479 H 0.2204 0.38221 0.69519 0.0
C480 C 0.14469 0.32763 0.34229 0.0
C481 C 0.14466 0.32724 0.32781 0.0
C482 C 0.12021 0.32042 0.32682 0.0
C483 C 0.13255 0.32364 0.32017 0.0
C484 C 0.12028 0.32105 0.3413 0.0
C485 C 0.13237 0.32458 0.34891 0.0
U486 U 0.17875 0.34775 0.3518 0.0
O487 O 0.18734 0.35355 0.37229 0.0
O488 O 0.19871 0.3396 0.35945 0.0
C489 C 0.19792 0.34541 0.37157 0.0
C490 C 0.15746 0.33044 0.35081 0.0
C491 C 0.20118 0.33667 0.38383 0.0
C492 C 0.19493 0.32578 0.40553 0.0
C493 C 0.19122 0.33307 0.39346 0.0
C494 C 0.21853 0.32522 0.39839 0.0
C495 C 0.20868 0.32188 0.40825 0.0
C496 C 0.21482 0.33254 0.38637 0.0
C497 C 0.18854 0.37899 0.32759 0.0
C498 C 0.1986 0.40213 0.33018 0.0
C499 C 0.19701 0.39158 0.3077 0.0
C500 C 0.19106 0.37974 0.31347 0.0
C501 C 0.20061 0.40307 0.3159 0.0
C502 C 0.19257 0.39025 0.33596 0.0
C503 C 0.18028 0.3671 0.33275 0.0
O504 O 0.16927 0.32799 0.34518 0.0
O505 O 0.15779 0.34177 0.35811 0.0
O506 O 0.17391 0.36857 0.34435 0.0
O507 O 0.18529 0.35478 0.33131 0.0
H508 H 0.154 0.32958 0.32241 0.0
H509 H 0.13286 0.32341 0.30904 0.0
H510 H 0.11107 0.31845 0.34681 0.0
H511 H 0.13214 0.3247 0.36006 0.0
H512 H 0.18701 0.32324 0.41275 0.0
H513 H 0.1806 0.33605 0.39179 0.0
H514 H 0.22923 0.32258 0.40014 0.0
H515 H 0.22273 0.33524 0.37917 0.0
H516 H 0.20118 0.41078 0.33682 0.0
H517 H 0.19862 0.39179 0.29672 0.0
H518 H 0.18799 0.37127 0.30675 0.0
H519 H 0.19069 0.39004 0.34688 0.0
C520 C 0.15562 0.68562 0.32643 0.0
C521 C 0.15269 0.69756 0.33372 0.0
C522 C 0.13184 0.70112 0.31913 0.0
C523 C 0.14092 0.70522 0.33013 0.0
C524 C 0.13485 0.68905 0.31198 0.0
C525 C 0.14656 0.68144 0.31558 0.0
U526 U 0.18844 0.67607 0.34842 0.0
O527 O 0.19635 0.65548 0.3535 0.0
O528 O 0.20888 0.66993 0.34154 0.0
C529 C 0.20782 0.65752 0.34688 0.0
C530 C 0.16804 0.67738 0.32971 0.0
C531 C 0.21319 0.64588 0.33886 0.0
C532 C 0.21036 0.62433 0.32606 0.0
C533 C 0.20461 0.6357 0.33255 0.0
C534 C 0.23326 0.63317 0.33204 0.0
C535 C 0.22481 0.62283 0.32575 0.0
C536 C 0.22754 0.64447 0.33843 0.0
C537 C 0.19722 0.69888 0.38147 0.0
C538 C 0.19978 0.69963 0.40661 0.0
C539 C 0.21157 0.71673 0.39294 0.0
C540 C 0.20607 0.71053 0.38087 0.0
C541 C 0.20828 0.71156 0.40603 0.0
C542 C 0.19429 0.69342 0.39453 0.0
C543 C 0.18939 0.69399 0.36879 0.0
O544 O 0.18007 0.68366 0.32843 0.0
O545 O 0.16763 0.66949 0.34073 0.0
O546 O 0.18272 0.68208 0.3693 0.0
O547 O 0.19491 0.69633 0.35682 0.0
H548 H 0.15953 0.70101 0.34213 0.0
H549 H 0.13908 0.71448 0.33582 0.0
H550 H 0.12807 0.68536 0.30364 0.0
H551 H 0.14856 0.67224 0.30983 0.0
H552 H 0.20343 0.61676 0.32124 0.0
H553 H 0.1935 0.63644 0.33276 0.0
H554 H 0.24438 0.6324 0.33239 0.0
H555 H 0.23441 0.65204 0.34336 0.0
H556 H 0.19715 0.69517 0.41644 0.0
H557 H 0.21791 0.72597 0.39199 0.0
H558 H 0.20834 0.71523 0.37104 0.0
H559 H 0.18737 0.6846 0.39547 0.0
C560 C 0.82596 0.6434 0.3305 0.0
C561 C 0.83458 0.63551 0.32254 0.0
C562 C 0.81596 0.61831 0.31859 0.0
C563 C 0.82963 0.6231 0.31663 0.0
C564 C 0.80739 0.62642 0.32645 0.0
C565 C 0.81234 0.63878 0.3323 0.0
U566 U 0.85003 0.6758 0.33859 0.0
O567 O 0.84308 0.69615 0.345 0.0
O568 O 0.85571 0.68377 0.35926 0.0
C569 C 0.84843 0.69492 0.35756 0.0
C570 C 0.83086 0.65608 0.33769 0.0
C571 C 0.83936 0.69844 0.36894 0.0
C572 C 0.82186 0.6924 0.38551 0.0
C573 C 0.83005 0.68881 0.37449 0.0
C574 C 0.83204 0.71533 0.38545 0.0
C575 C 0.82276 0.70573 0.39119 0.0
C576 C 0.84022 0.71172 0.37449 0.0
C577 C 0.88283 0.68475 0.31722 0.0
C578 C 0.90729 0.69099 0.32085 0.0
C579 C 0.89524 0.69801 0.29986 0.0
C580 C 0.88308 0.69159 0.30442 0.0
C581 C 0.9076 0.69772 0.30794 0.0
C582 C 0.89512 0.68459 0.3254 0.0
C583 C 0.87025 0.6766 0.32105 0.0
O584 O 0.84238 0.65539 0.3452 0.0
O585 O 0.82969 0.66776 0.33093 0.0
O586 O 0.85818 0.68216 0.31849 0.0
O587 O 0.87075 0.66968 0.33273 0.0
H588 H 0.84514 0.63887 0.321 0.0
H589 H 0.83651 0.61729 0.3105 0.0
H590 H 0.79693 0.62306 0.32842 0.0
H591 H 0.80553 0.64464 0.33849 0.0
H592 H 0.81474 0.68476 0.38949 0.0
H593 H 0.82915 0.67851 0.37035 0.0
H594 H 0.83323 0.7256 0.38961 0.0
H595 H 0.84735 0.71932 0.37041 0.0
H596 H 0.91656 0.69031 0.32733 0.0
H597 H 0.89491 0.7032 0.28997 0.0
H598 H 0.87388 0.69176 0.29775 0.0
H599 H 0.89546 0.67925 0.33522 0.0
C600 C 0.84734 0.37564 0.33033 0.0
C601 C 0.83652 0.3826 0.33624 0.0
C602 C 0.8363 0.39941 0.31729 0.0
C603 C 0.83101 0.39437 0.32975 0.0
C604 C 0.84701 0.39219 0.31141 0.0
C605 C 0.85243 0.3805 0.31784 0.0
U606 U 0.85329 0.34586 0.35756 0.0
O607 O 0.85997 0.3249 0.35312 0.0
O608 O 0.8735 0.33869 0.36552 0.0
C609 C 0.8722 0.32679 0.35922 0.0
C610 C 0.85393 0.36351 0.33683 0.0
C611 C 0.88447 0.32188 0.35198 0.0
C612 C 0.90919 0.3175 0.35256 0.0
C613 C 0.89768 0.32337 0.35832 0.0
C614 C 0.89466 0.30861 0.33379 0.0
C615 C 0.90785 0.30983 0.34032 0.0
C616 C 0.88312 0.31451 0.33956 0.0
C617 C 0.83039 0.33985 0.38938 0.0
C618 C 0.83506 0.33279 0.41325 0.0
C619 C 0.81226 0.32907 0.4029 0.0
C620 C 0.81672 0.33497 0.39055 0.0
C621 C 0.82133 0.32793 0.41449 0.0
C622 C 0.83953 0.33865 0.40089 0.0
C623 C 0.83451 0.34701 0.37648 0.0
O624 O 0.86073 0.36544 0.34864 0.0
O625 O 0.847 0.35174 0.33629 0.0
O626 O 0.83259 0.34019 0.3649 0.0
O627 O 0.84615 0.35424 0.37699 0.0
H628 H 0.83244 0.37904 0.3459 0.0
H629 H 0.82282 0.39967 0.33463 0.0
H630 H 0.8512 0.39553 0.30172 0.0
H631 H 0.86074 0.37527 0.31306 0.0
H632 H 0.91916 0.31891 0.35781 0.0
H633 H 0.89908 0.32885 0.36796 0.0
H634 H 0.89312 0.30268 0.32444 0.0
H635 H 0.87311 0.31297 0.33443 0.0
H636 H 0.84236 0.33235 0.42194 0.0
H637 H 0.80169 0.3253 0.40329 0.0
H638 H 0.80941 0.33584 0.38191 0.0
H639 H 0.8501 0.3424 0.40044 0.0
C640 C 0.70253 0.15033 0.6956 0.0
C641 C 0.7027 0.13953 0.68603 0.0
C642 C 0.71769 0.12609 0.70159 0.0
C643 C 0.71017 0.1276 0.68898 0.0
C644 C 0.71786 0.13711 0.71093 0.0
C645 C 0.71036 0.14901 0.70799 0.0
U646 U 0.68847 0.18334 0.677 0.0
O647 O 0.66678 0.18915 0.67327 0.0
O648 O 0.68061 0.20216 0.68623 0.0
C649 C 0.66802 0.20015 0.68103 0.0
C650 C 0.6932 0.16225 0.69362 0.0
C651 C 0.65641 0.2031 0.69001 0.0
C652 C 0.64254 0.19883 0.71016 0.0
C653 C 0.65367 0.19546 0.70197 0.0
C654 C 0.63679 0.21743 0.6945 0.0
C655 C 0.63397 0.20994 0.70657 0.0
C656 C 0.64784 0.21405 0.68638 0.0
C657 C 0.70636 0.19648 0.64348 0.0
C658 C 0.71085 0.21886 0.63269 0.0
C659 C 0.7118 0.19815 0.61918 0.0
C660 C 0.70845 0.19026 0.63075 0.0
C661 C 0.71315 0.21258 0.61994 0.0
C662 C 0.70751 0.2109 0.64432 0.0
C663 C 0.70424 0.18747 0.65572 0.0
O664 O 0.69858 0.17461 0.69578 0.0
O665 O 0.68429 0.16184 0.68309 0.0
O666 O 0.69326 0.17929 0.65537 0.0
O667 O 0.70705 0.19267 0.668 0.0
H668 H 0.69679 0.14013 0.67637 0.0
H669 H 0.70992 0.11946 0.68142 0.0
H670 H 0.72335 0.13634 0.72081 0.0
H671 H 0.71031 0.15705 0.71566 0.0
H672 H 0.64078 0.19287 0.7194 0.0
H673 H 0.66015 0.18696 0.705 0.0
H674 H 0.63034 0.22585 0.69118 0.0
H675 H 0.64969 0.22006 0.67716 0.0
H676 H 0.71165 0.22992 0.6337 0.0
H677 H 0.71374 0.19283 0.60973 0.0
H678 H 0.70785 0.17917 0.62983 0.0
H679 H 0.70602 0.21603 0.654 0.0
C680 C 0.33127 0.20072 0.64284 0.0
C681 C 0.33966 0.20165 0.63135 0.0
C682 C 0.32146 0.21326 0.61792 0.0
C683 C 0.33482 0.20783 0.61906 0.0
C684 C 0.31318 0.21246 0.62951 0.0
C685 C 0.31802 0.20625 0.64178 0.0
U686 U 0.35479 0.19228 0.67533 0.0
O687 O 0.34815 0.18547 0.69581 0.0
O688 O 0.36035 0.17187 0.68342 0.0
C689 C 0.35309 0.17309 0.6945 0.0
C690 C 0.33548 0.19298 0.65551 0.0
C691 C 0.34386 0.16124 0.69819 0.0
C692 C 0.32719 0.15089 0.71368 0.0
C693 C 0.33513 0.16225 0.70938 0.0
C694 C 0.33645 0.13717 0.6957 0.0
C695 C 0.32781 0.13813 0.70699 0.0
C696 C 0.34438 0.14855 0.69139 0.0
C697 C 0.38803 0.2147 0.6836 0.0
C698 C 0.40435 0.21223 0.70311 0.0
C699 C 0.40841 0.22979 0.68589 0.0
C700 C 0.39626 0.2256 0.67871 0.0
C701 C 0.41269 0.22318 0.69821 0.0
C702 C 0.39215 0.20804 0.69588 0.0
C703 C 0.3753 0.21061 0.6756 0.0
O704 O 0.34654 0.18546 0.65503 0.0
O705 O 0.33452 0.19932 0.66733 0.0
O706 O 0.36352 0.21256 0.68148 0.0
O707 O 0.37553 0.1989 0.66896 0.0
H708 H 0.34988 0.19737 0.63173 0.0
H709 H 0.34147 0.20806 0.61035 0.0
H710 H 0.30295 0.21669 0.62916 0.0
H711 H 0.31127 0.20558 0.65041 0.0
H712 H 0.32055 0.15214 0.72228 0.0
H713 H 0.33458 0.17181 0.71496 0.0
H714 H 0.33741 0.12751 0.6904 0.0
H715 H 0.35111 0.14727 0.68286 0.0
H716 H 0.40716 0.20697 0.71262 0.0
H717 H 0.41458 0.23808 0.68163 0.0
H718 H 0.3933 0.23087 0.66923 0.0
H719 H 0.38594 0.19962 0.69988 0.0
C720 C 0.32993 0.85973 0.66031 0.0
C721 C 0.33202 0.84568 0.658 0.0
C722 C 0.31825 0.84662 0.63631 0.0
C723 C 0.3263 0.83921 0.64609 0.0
C724 C 0.31652 0.86075 0.63858 0.0
C725 C 0.32227 0.86717 0.65038 0.0
U726 U 0.35362 0.86721 0.69345 0.0
O727 O 0.35963 0.88755 0.7019 0.0
O728 O 0.3469 0.87338 0.71396 0.0
C729 C 0.35287 0.88561 0.71326 0.0
C730 C 0.33466 0.86685 0.67321 0.0
C731 C 0.34525 0.8974 0.71862 0.0
C732 C 0.33132 0.91788 0.71565 0.0
C733 C 0.33761 0.90636 0.71006 0.0
C734 C 0.34018 0.91156 0.73834 0.0
C735 C 0.33255 0.92069 0.7299 0.0
C736 C 0.34639 0.90011 0.73278 0.0
C737 C 0.38579 0.84515 0.70338 0.0
C738 C 0.39721 0.82787 0.7179 0.0
C739 C 0.41005 0.84813 0.71089 0.0
C740 C 0.39825 0.8529 0.70366 0.0
C741 C 0.40977 0.83545 0.71799 0.0
C742 C 0.38544 0.83262 0.71067 0.0
C743 C 0.37357 0.84918 0.69455 0.0
O744 O 0.33333 0.86014 0.68489 0.0
O745 O 0.34614 0.87428 0.67287 0.0
O746 O 0.37435 0.8609 0.68775 0.0
O747 O 0.36132 0.8468 0.69954 0.0
H748 H 0.33786 0.83967 0.66551 0.0
H749 H 0.32782 0.82832 0.64476 0.0
H750 H 0.31065 0.86689 0.63123 0.0
H751 H 0.3205 0.87801 0.65189 0.0
H752 H 0.32543 0.92453 0.70879 0.0
H753 H 0.33659 0.90453 0.69908 0.0
H754 H 0.34167 0.91341 0.74928 0.0
H755 H 0.35235 0.89344 0.73958 0.0
H756 H 0.39643 0.81817 0.72339 0.0
H757 H 0.41951 0.85423 0.71054 0.0
H758 H 0.39902 0.86251 0.69803 0.0
H759 H 0.37609 0.8263 0.71058 0.0
C760 C 0.64463 0.82189 0.68008 0.0
C761 C 0.63749 0.83128 0.6879 0.0
C762 C 0.62211 0.81281 0.69599 0.0
C763 C 0.62635 0.8268 0.69575 0.0
C764 C 0.62938 0.80348 0.68813 0.0
C765 C 0.64048 0.80798 0.68028 0.0
U766 U 0.67496 0.84613 0.66924 0.0
O767 O 0.69495 0.84034 0.66113 0.0
O768 O 0.68053 0.85225 0.64822 0.0
C769 C 0.69228 0.84577 0.64892 0.0
C770 C 0.65612 0.82629 0.67129 0.0
C771 C 0.69546 0.8373 0.63686 0.0
C772 C 0.69121 0.81754 0.62183 0.0
C773 C 0.68786 0.82528 0.63338 0.0
C774 C 0.70976 0.83375 0.61713 0.0
C775 C 0.70221 0.82169 0.61349 0.0
C776 C 0.70641 0.84143 0.62864 0.0
C777 C 0.68399 0.87924 0.69139 0.0
C778 C 0.68371 0.90418 0.6943 0.0
C779 C 0.70237 0.8913 0.70477 0.0
C780 C 0.69645 0.87909 0.69932 0.0
C781 C 0.69595 0.90402 0.70257 0.0
C782 C 0.67781 0.89199 0.68885 0.0
C783 C 0.67639 0.86621 0.68745 0.0
O784 O 0.6543 0.83749 0.66385 0.0
O785 O 0.66865 0.82556 0.67683 0.0
O786 O 0.68286 0.85455 0.68912 0.0
O787 O 0.66837 0.86641 0.67623 0.0
H788 H 0.64046 0.84208 0.68787 0.0
H789 H 0.62094 0.83436 0.70149 0.0
H790 H 0.62663 0.79263 0.68818 0.0
H791 H 0.64583 0.80054 0.67432 0.0
H792 H 0.68505 0.80841 0.61932 0.0
H793 H 0.67933 0.8219 0.63956 0.0
H794 H 0.71843 0.83719 0.6112 0.0
H795 H 0.71246 0.85064 0.63116 0.0
H796 H 0.67854 0.91374 0.69216 0.0
H797 H 0.7117 0.89067 0.71119 0.0
H798 H 0.70142 0.86947 0.70172 0.0
H799 H 0.66813 0.89252 0.68297 0.0
C800 C 0.64357 0.83245 0.32832 0.0
C801 C 0.63163 0.84033 0.32918 0.0
C802 C 0.61865 0.8247 0.31354 0.0
C803 C 0.61938 0.83652 0.32188 0.0
C804 C 0.63072 0.8171 0.31236 0.0
C805 C 0.64296 0.82088 0.31968 0.0
U806 U 0.67743 0.85221 0.3408 0.0
O807 O 0.68491 0.85682 0.36199 0.0
O808 O 0.69699 0.84365 0.34899 0.0
C809 C 0.69579 0.84907 0.36123 0.0
C810 C 0.65604 0.83512 0.3375 0.0
C811 C 0.69971 0.84048 0.37345 0.0
C812 C 0.7173 0.82704 0.3857 0.0
C813 C 0.71232 0.83363 0.3737 0.0
C814 C 0.69703 0.83377 0.3975 0.0
C815 C 0.70983 0.82717 0.39786 0.0
C816 C 0.69205 0.84037 0.38548 0.0
C817 C 0.69095 0.88447 0.32119 0.0
C818 C 0.70726 0.89601 0.30617 0.0
C819 C 0.70085 0.90708 0.32713 0.0
C820 C 0.69224 0.89575 0.33018 0.0
C821 C 0.70838 0.90745 0.31499 0.0
C822 C 0.69864 0.88473 0.30921 0.0
C823 C 0.68099 0.87286 0.32352 0.0
O824 O 0.66816 0.83295 0.33236 0.0
O825 O 0.6561 0.84599 0.34548 0.0
O826 O 0.6733 0.87352 0.33436 0.0
O827 O 0.68541 0.86042 0.32134 0.0
H828 H 0.63161 0.84925 0.33578 0.0
H829 H 0.61039 0.84276 0.32294 0.0
H830 H 0.63059 0.80784 0.30622 0.0
H831 H 0.65187 0.81444 0.31894 0.0
H832 H 0.72706 0.82191 0.38545 0.0
H833 H 0.71856 0.83368 0.36468 0.0
H834 H 0.69102 0.83424 0.40666 0.0
H835 H 0.68239 0.8457 0.38576 0.0
H836 H 0.71304 0.89576 0.29686 0.0
H837 H 0.70128 0.91572 0.3341 0.0
H838 H 0.6864 0.89599 0.33946 0.0
H839 H 0.69782 0.87625 0.30203 0.0
C840 C 0.65264 0.19244 0.32943 0.0
C841 C 0.6391 0.18766 0.33175 0.0
C842 C 0.62938 0.20856 0.32157 0.0
C843 C 0.62765 0.19562 0.32795 0.0
C844 C 0.64296 0.21353 0.31969 0.0
C845 C 0.6544 0.20559 0.32353 0.0
U846 U 0.6865 0.17859 0.34764 0.0
O847 O 0.69264 0.15708 0.35083 0.0
O848 O 0.70492 0.17075 0.33781 0.0
C849 C 0.70297 0.15814 0.34244 0.0
C850 C 0.6645 0.18298 0.33148 0.0
C851 C 0.70502 0.14656 0.33269 0.0
C852 C 0.7013 0.12246 0.32616 0.0
C853 C 0.6978 0.13391 0.33394 0.0
C854 C 0.71908 0.13603 0.31534 0.0
C855 C 0.71218 0.12324 0.31692 0.0
C856 C 0.71559 0.14747 0.32315 0.0
C857 C 0.70108 0.19863 0.38063 0.0
C858 C 0.71894 0.19305 0.39805 0.0
C859 C 0.70816 0.21519 0.39842 0.0
C860 C 0.69998 0.21154 0.38678 0.0
C861 C 0.71781 0.20604 0.40429 0.0
C862 C 0.71065 0.18938 0.38634 0.0
C863 C 0.69162 0.19521 0.36871 0.0
O864 O 0.67691 0.1879 0.32901 0.0
O865 O 0.66441 0.17463 0.34219 0.0
O866 O 0.68405 0.18387 0.36945 0.0
O867 O 0.69614 0.1976 0.35631 0.0
H868 H 0.63732 0.1775 0.33606 0.0
H869 H 0.6174 0.19134 0.32945 0.0
H870 H 0.64477 0.22351 0.31501 0.0
H871 H 0.66462 0.20964 0.32147 0.0
H872 H 0.69558 0.1129 0.32756 0.0
H873 H 0.68968 0.1327 0.34125 0.0
H874 H 0.72761 0.13708 0.30851 0.0
H875 H 0.72156 0.15694 0.32206 0.0
H876 H 0.72629 0.18574 0.40213 0.0
H877 H 0.70667 0.22514 0.40297 0.0
H878 H 0.69258 0.21881 0.38266 0.0
H879 H 0.71168 0.17933 0.38181 0.0
C880 C 0.32433 0.14436 0.34931 0.0
C881 C 0.33028 0.13746 0.33843 0.0
C882 C 0.31229 0.11934 0.33912 0.0
C883 C 0.3243 0.12508 0.33336 0.0
C884 C 0.30637 0.12646 0.34993 0.0
C885 C 0.31231 0.13877 0.35493 0.0
U886 U 0.35104 0.17506 0.35265 0.0
O887 O 0.34689 0.19678 0.35706 0.0
O888 O 0.3594 0.1847 0.37175 0.0
C889 C 0.35356 0.19653 0.36908 0.0
C890 C 0.3303 0.1573 0.35519 0.0
C891 C 0.34699 0.20331 0.38068 0.0
C892 C 0.33126 0.20345 0.39972 0.0
C893 C 0.33677 0.19675 0.38843 0.0
C894 C 0.346 0.22332 0.39551 0.0
C895 C 0.33591 0.21681 0.4035 0.0
C896 C 0.35144 0.21665 0.38427 0.0
C897 C 0.38228 0.17817 0.32865 0.0
C898 C 0.39687 0.19833 0.32398 0.0
C899 C 0.40357 0.17592 0.31638 0.0
C900 C 0.39174 0.17002 0.32205 0.0
C901 C 0.40627 0.19019 0.31711 0.0
C902 C 0.38499 0.19239 0.32968 0.0
C903 C 0.36952 0.17156 0.33382 0.0
O904 O 0.34211 0.15641 0.36217 0.0
O905 O 0.32963 0.16834 0.34735 0.0
O906 O 0.35795 0.1781 0.33147 0.0
O907 O 0.37043 0.16602 0.34618 0.0
H908 H 0.33957 0.14158 0.33394 0.0
H909 H 0.32922 0.11988 0.32511 0.0
H910 H 0.29701 0.12259 0.35448 0.0
H911 H 0.3075 0.14395 0.36328 0.0
H912 H 0.32358 0.19806 0.40565 0.0
H913 H 0.33318 0.18643 0.38585 0.0
H914 H 0.34966 0.23367 0.39787 0.0
H915 H 0.35928 0.22193 0.37842 0.0
H916 H 0.39851 0.20935 0.32469 0.0
H917 H 0.41064 0.16923 0.31144 0.0
H918 H 0.38991 0.15903 0.32117 0.0
H919 H 0.37784 0.19892 0.33472 0.0
C920 C 0.34015 0.87546 0.33772 0.0
C921 C 0.32609 0.87691 0.34025 0.0
C922 C 0.32568 0.89878 0.32748 0.0
C923 C 0.31895 0.88844 0.33521 0.0
C924 C 0.3398 0.89726 0.32509 0.0
C925 C 0.3469 0.88578 0.33014 0.0
U926 U 0.34988 0.84357 0.36106 0.0
O927 O 0.357 0.82348 0.35415 0.0
O928 O 0.37085 0.83674 0.36681 0.0
C929 C 0.3695 0.82536 0.35962 0.0
C930 C 0.34798 0.86313 0.34212 0.0
C931 C 0.38144 0.82144 0.35133 0.0
C932 C 0.40624 0.8179 0.3503 0.0
C933 C 0.39494 0.82315 0.35696 0.0
C934 C 0.39094 0.80931 0.33197 0.0
C935 C 0.40442 0.81067 0.33783 0.0
C936 C 0.3796 0.81457 0.33865 0.0
C937 C 0.32991 0.83405 0.39412 0.0
C938 C 0.33159 0.81313 0.40808 0.0
C939 C 0.31857 0.83221 0.41609 0.0
C940 C 0.3218 0.8397 0.40422 0.0
C941 C 0.32339 0.81878 0.41825 0.0
C942 C 0.33483 0.82069 0.39616 0.0
C943 C 0.33275 0.8423 0.38157 0.0
O944 O 0.35587 0.86422 0.35337 0.0
O945 O 0.34162 0.85108 0.341 0.0
O946 O 0.33024 0.8363 0.36962 0.0
O947 O 0.34419 0.84981 0.38188 0.0
H948 H 0.3206 0.86907 0.346 0.0
H949 H 0.30807 0.88912 0.33718 0.0
H950 H 0.34544 0.90503 0.31942 0.0
H951 H 0.35773 0.8849 0.32802 0.0
H952 H 0.41644 0.81938 0.35505 0.0
H953 H 0.39674 0.82824 0.36677 0.0
H954 H 0.38906 0.80371 0.32247 0.0
H955 H 0.36937 0.81287 0.33407 0.0
H956 H 0.33562 0.80291 0.40939 0.0
H957 H 0.31205 0.83689 0.42346 0.0
H958 H 0.31782 0.84995 0.40286 0.0
H959 H 0.34114 0.81609 0.38854 0.0
C960 C 0.69366 0.64908 0.19653 0.0
C961 C 0.70567 0.64681 0.18928 0.0
C962 C 0.71024 0.62606 0.20301 0.0
C963 C 0.71386 0.63539 0.19247 0.0
C964 C 0.69809 0.62838 0.21006 0.0
C965 C 0.68994 0.63973 0.20686 0.0
U966 U 0.68223 0.68266 0.17739 0.0
O967 O 0.66105 0.68945 0.17274 0.0
O968 O 0.67473 0.70163 0.18665 0.0
C969 C 0.66225 0.70004 0.18108 0.0
C970 C 0.68489 0.66115 0.19387 0.0
C971 C 0.65055 0.70255 0.19011 0.0
C972 C 0.63104 0.69471 0.20353 0.0
C973 C 0.64258 0.69182 0.19578 0.0
C974 C 0.63541 0.71906 0.20025 0.0
C975 C 0.62718 0.7084 0.20574 0.0
C976 C 0.64691 0.71616 0.19254 0.0
C977 C 0.70289 0.69686 0.14628 0.0
C978 C 0.69619 0.71123 0.12655 0.0
C979 C 0.72037 0.70808 0.13239 0.0
C980 C 0.71678 0.69971 0.14354 0.0
C981 C 0.71015 0.71384 0.12359 0.0
C982 C 0.6926 0.70282 0.13775 0.0
C983 C 0.69966 0.68702 0.15753 0.0
O984 O 0.69056 0.67327 0.19656 0.0
O985 O 0.67714 0.66103 0.18249 0.0
O986 O 0.6883 0.67945 0.15604 0.0
O987 O 0.70196 0.69137 0.17021 0.0
H988 H 0.70875 0.65392 0.18127 0.0
H989 H 0.72318 0.63401 0.18688 0.0
H990 H 0.69477 0.62135 0.21804 0.0
H991 H 0.68069 0.64123 0.21254 0.0
H992 H 0.62494 0.68621 0.20749 0.0
H993 H 0.64515 0.68121 0.19404 0.0
H994 H 0.63301 0.72972 0.20192 0.0
H995 H 0.65289 0.72462 0.18831 0.0
H996 H 0.68802 0.71539 0.11998 0.0
H997 H 0.73121 0.71002 0.13066 0.0
H998 H 0.72491 0.69526 0.14995 0.0
H999 H 0.68179 0.70078 0.1396 0.0
C1000 C 0.32731 0.69437 0.13548 0.0
C1001 C 0.3357 0.69487 0.12397 0.0
C1002 C 0.31759 0.70617 0.11012 0.0
C1003 C 0.33091 0.70069 0.11148 0.0
C1004 C 0.30931 0.70585 0.12173 0.0
C1005 C 0.3141 0.7 0.1342 0.0
U1006 U 0.34999 0.68641 0.16883 0.0
O1007 O 0.34279 0.67906 0.18891 0.0
O1008 O 0.35587 0.66602 0.17683 0.0
C1009 C 0.34821 0.66689 0.18767 0.0
C1010 C 0.33139 0.68679 0.14831 0.0
C1011 C 0.33941 0.65458 0.19091 0.0
C1012 C 0.3183 0.64404 0.19965 0.0
C1013 C 0.32595 0.65576 0.19568 0.0
C1014 C 0.33731 0.62971 0.1941 0.0
C1015 C 0.32389 0.63084 0.19896 0.0
C1016 C 0.34496 0.6414 0.19019 0.0
C1017 C 0.38251 0.70938 0.17854 0.0
C1018 C 0.39757 0.70769 0.19912 0.0
C1019 C 0.40318 0.72405 0.18122 0.0
C1020 C 0.39135 0.71974 0.17355 0.0
C1021 C 0.40652 0.71809 0.19413 0.0
C1022 C 0.3857 0.70338 0.19142 0.0
C1023 C 0.37011 0.70518 0.17006 0.0
O1024 O 0.34269 0.67959 0.14821 0.0
O1025 O 0.32982 0.69303 0.1601 0.0
O1026 O 0.35806 0.70676 0.17555 0.0
O1027 O 0.37081 0.69361 0.16325 0.0
H1028 H 0.34587 0.69048 0.12448 0.0
H1029 H 0.33756 0.70055 0.10277 0.0
H1030 H 0.2991 0.71013 0.12122 0.0
H1031 H 0.30732 0.69963 0.14283 0.0
H1032 H 0.30796 0.64534 0.2032 0.0
H1033 H 0.32135 0.66574 0.19649 0.0
H1034 H 0.34209 0.61979 0.19362 0.0
H1035 H 0.35537 0.64013 0.1868 0.0
H1036 H 0.39964 0.70294 0.20907 0.0
H1037 H 0.40985 0.7319 0.17687 0.0
H1038 H 0.38912 0.7245 0.16363 0.0
H1039 H 0.37902 0.69539 0.19551 0.0
C1040 C 0.3398 0.34516 0.16472 0.0
C1041 C 0.34649 0.34769 0.15229 0.0
C1042 C 0.33267 0.32956 0.14054 0.0
C1043 C 0.34301 0.33999 0.14042 0.0
C1044 C 0.32627 0.32678 0.15308 0.0
C1045 C 0.32973 0.33451 0.16495 0.0
U1046 U 0.35918 0.35883 0.19826 0.0
O1047 O 0.36274 0.38028 0.20504 0.0
O1048 O 0.35051 0.36608 0.2176 0.0
C1049 C 0.35538 0.37871 0.21607 0.0
C1050 C 0.34205 0.35451 0.17685 0.0
C1051 C 0.34652 0.39023 0.22018 0.0
C1052 C 0.3356 0.41239 0.21595 0.0
C1053 C 0.34258 0.40091 0.21112 0.0
C1054 C 0.33632 0.40269 0.23891 0.0
C1055 C 0.33246 0.41354 0.22998 0.0
C1056 C 0.3432 0.39126 0.23408 0.0
C1057 C 0.3926 0.3394 0.21128 0.0
C1058 C 0.40247 0.32838 0.23196 0.0
C1059 C 0.41738 0.33535 0.21367 0.0
C1060 C 0.40596 0.34046 0.20613 0.0
C1061 C 0.41577 0.32891 0.22656 0.0
C1062 C 0.39105 0.33352 0.22443 0.0
C1063 C 0.38042 0.34254 0.20201 0.0
O1064 O 0.34011 0.34925 0.18915 0.0
O1065 O 0.35261 0.36324 0.17672 0.0
O1066 O 0.3809 0.35389 0.1946 0.0
O1067 O 0.36807 0.33975 0.20659 0.0
H1068 H 0.3542 0.35587 0.1516 0.0
H1069 H 0.34834 0.34236 0.13107 0.0
H1070 H 0.31814 0.31899 0.15362 0.0
H1071 H 0.32417 0.33239 0.17422 0.0
H1072 H 0.3327 0.42036 0.20866 0.0
H1073 H 0.34507 0.40051 0.20035 0.0
H1074 H 0.33444 0.40317 0.24981 0.0
H1075 H 0.34631 0.38335 0.24137 0.0
H1076 H 0.40081 0.3237 0.24193 0.0
H1077 H 0.42738 0.33585 0.20906 0.0
H1078 H 0.4075 0.34473 0.19596 0.0
H1079 H 0.38094 0.33243 0.22874 0.0
C1080 C 0.65147 0.32637 0.18041 0.0
C1081 C 0.64847 0.33004 0.19392 0.0
C1082 C 0.62754 0.31539 0.19288 0.0
C1083 C 0.63662 0.32457 0.20011 0.0
C1084 C 0.6307 0.31181 0.17935 0.0
C1085 C 0.64248 0.31724 0.17322 0.0
U1086 U 0.68328 0.35104 0.17492 0.0
O1087 O 0.7038 0.34548 0.16802 0.0
O1088 O 0.6908 0.35887 0.1551 0.0
C1089 C 0.70227 0.35195 0.15615 0.0
C1090 C 0.66395 0.33153 0.17351 0.0
C1091 C 0.70615 0.34442 0.14369 0.0
C1092 C 0.70683 0.3236 0.12985 0.0
C1093 C 0.70256 0.33049 0.14159 0.0
C1094 C 0.71818 0.34449 0.12207 0.0
C1095 C 0.71479 0.33048 0.11994 0.0
C1096 C 0.71393 0.35133 0.13378 0.0
C1097 C 0.69094 0.38184 0.19998 0.0
C1098 C 0.70754 0.40082 0.19743 0.0
C1099 C 0.69437 0.39901 0.21805 0.0
C1100 C 0.6878 0.38702 0.21291 0.0
C1101 C 0.7043 0.40617 0.21038 0.0
C1102 C 0.70093 0.38879 0.19229 0.0
C1103 C 0.68328 0.36948 0.19474 0.0
O1104 O 0.66295 0.34336 0.16699 0.0
O1105 O 0.67586 0.33016 0.18022 0.0
O1106 O 0.68957 0.35769 0.19597 0.0
O1107 O 0.67641 0.37079 0.18291 0.0
H1108 H 0.65526 0.33708 0.19967 0.0
H1109 H 0.6345 0.32767 0.21049 0.0
H1110 H 0.62418 0.3046 0.17351 0.0
H1111 H 0.64463 0.3142 0.16282 0.0
H1112 H 0.7041 0.31281 0.12869 0.0
H1113 H 0.69656 0.32491 0.14908 0.0
H1114 H 0.72404 0.35026 0.11462 0.0
H1115 H 0.71678 0.36208 0.13513 0.0
H1116 H 0.71525 0.40588 0.19127 0.0
H1117 H 0.6914 0.40282 0.22793 0.0
H1118 H 0.68008 0.38187 0.21901 0.0
H1119 H 0.70355 0.38497 0.18229 0.0
C1120 C 0.64998 0.33385 0.83318 0.0
C1121 C 0.64931 0.33498 0.81873 0.0
C1122 C 0.62529 0.32653 0.81801 0.0
C1123 C 0.63709 0.33133 0.81122 0.0
C1124 C 0.62607 0.32553 0.83249 0.0
C1125 C 0.63823 0.32914 0.83994 0.0
U1126 U 0.68385 0.35452 0.84291 0.0
O1127 O 0.69192 0.36051 0.86357 0.0
O1128 O 0.7038 0.34678 0.85101 0.0
C1129 C 0.70276 0.35269 0.86306 0.0
C1130 C 0.66281 0.33688 0.84155 0.0
C1131 C 0.70658 0.34451 0.87567 0.0
C1132 C 0.70772 0.3423 0.90079 0.0
C1133 C 0.70258 0.34873 0.88874 0.0
C1134 C 0.72083 0.32706 0.88707 0.0
C1135 C 0.7171 0.33151 0.90017 0.0
C1136 C 0.7157 0.3335 0.87501 0.0
C1137 C 0.69419 0.38641 0.82014 0.0
C1138 C 0.70054 0.41077 0.82226 0.0
C1139 C 0.70755 0.39808 0.80249 0.0
C1140 C 0.70112 0.38616 0.80768 0.0
C1141 C 0.7071 0.41064 0.80956 0.0
C1142 C 0.69415 0.39884 0.82747 0.0
C1143 C 0.68562 0.37425 0.82426 0.0
O1144 O 0.67464 0.33477 0.83581 0.0
O1145 O 0.66294 0.34813 0.84897 0.0
O1146 O 0.67858 0.37524 0.83552 0.0
O1147 O 0.69082 0.36202 0.82274 0.0
H1148 H 0.65822 0.3386 0.81323 0.0
H1149 H 0.63687 0.33235 0.80011 0.0
H1150 H 0.61736 0.32165 0.83813 0.0
H1151 H 0.63851 0.32806 0.85106 0.0
H1152 H 0.70442 0.34592 0.91063 0.0
H1153 H 0.69574 0.35728 0.88973 0.0
H1154 H 0.72815 0.31892 0.88611 0.0
H1155 H 0.71925 0.33012 0.86518 0.0
H1156 H 0.70015 0.42018 0.82811 0.0
H1157 H 0.71234 0.39756 0.79262 0.0
H1158 H 0.70115 0.37684 0.80166 0.0
H1159 H 0.68885 0.39949 0.83705 0.0
C1160 C 0.66712 0.69274 0.82979 0.0
C1161 C 0.65979 0.69865 0.84039 0.0
C1162 C 0.64288 0.70796 0.82358 0.0
C1163 C 0.64783 0.70618 0.83732 0.0
C1164 C 0.65046 0.70218 0.81304 0.0
C1165 C 0.66237 0.69469 0.81611 0.0
U1166 U 0.70013 0.68093 0.85056 0.0
O1167 O 0.70739 0.65981 0.85414 0.0
O1168 O 0.72008 0.67457 0.8427 0.0
C1169 C 0.7187 0.66189 0.84728 0.0
C1170 C 0.67934 0.68402 0.83256 0.0
C1171 C 0.72346 0.65066 0.83834 0.0
C1172 C 0.72041 0.62832 0.82705 0.0
C1173 C 0.71496 0.63938 0.83423 0.0
C1174 C 0.74286 0.63963 0.82793 0.0
C1175 C 0.73451 0.62821 0.82386 0.0
C1176 C 0.73742 0.65064 0.83501 0.0
C1177 C 0.71179 0.7006 0.88445 0.0
C1178 C 0.71795 0.69695 0.90881 0.0
C1179 C 0.72684 0.71707 0.89708 0.0
C1180 C 0.71993 0.71277 0.88485 0.0
C1181 C 0.72571 0.70939 0.90934 0.0
C1182 C 0.71107 0.69264 0.89657 0.0
C1183 C 0.70279 0.69744 0.87201 0.0
O1184 O 0.69155 0.68994 0.83123 0.0
O1185 O 0.67892 0.6756 0.84318 0.0
O1186 O 0.69541 0.68592 0.87197 0.0
O1187 O 0.70778 0.7004 0.85991 0.0
H1188 H 0.6632 0.69729 0.85105 0.0
H1189 H 0.64228 0.71034 0.84576 0.0
H1190 H 0.64723 0.7035 0.80233 0.0
H1191 H 0.66784 0.69028 0.80774 0.0
H1192 H 0.71356 0.61985 0.824 0.0
H1193 H 0.70417 0.63901 0.83671 0.0
H1194 H 0.75379 0.63994 0.82601 0.0
H1195 H 0.74429 0.65904 0.83825 0.0
H1196 H 0.71698 0.69064 0.91796 0.0
H1197 H 0.73253 0.72678 0.89706 0.0
H1198 H 0.72054 0.71929 0.8758 0.0
H1199 H 0.70483 0.68327 0.89674 0.0
C1200 C 0.33899 0.64631 0.83042 0.0
C1201 C 0.34207 0.64526 0.81644 0.0
C1202 C 0.33164 0.62207 0.81533 0.0
C1203 C 0.33842 0.63329 0.80898 0.0
C1204 C 0.32877 0.62316 0.82939 0.0
C1205 C 0.33239 0.63511 0.8368 0.0
U1206 U 0.36024 0.67952 0.84013 0.0
O1207 O 0.35287 0.69995 0.84595 0.0
O1208 O 0.36532 0.68796 0.86077 0.0
C1209 C 0.35842 0.69926 0.85848 0.0
C1210 C 0.34198 0.65902 0.83851 0.0
C1211 C 0.35037 0.7047 0.86991 0.0
C1212 C 0.33654 0.70189 0.89034 0.0
C1213 C 0.34298 0.69621 0.87897 0.0
C1214 C 0.34463 0.72455 0.88363 0.0
C1215 C 0.33748 0.71615 0.89296 0.0
C1216 C 0.35095 0.71891 0.8723 0.0
C1217 C 0.39323 0.68875 0.81943 0.0
C1218 C 0.41662 0.69754 0.82467 0.0
C1219 C 0.40648 0.70057 0.80178 0.0
C1220 C 0.39438 0.69377 0.8059 0.0
C1221 C 0.41785 0.70248 0.81106 0.0
C1222 C 0.40449 0.69078 0.82879 0.0
C1223 C 0.3808 0.68037 0.82305 0.0
O1224 O 0.35296 0.65895 0.84685 0.0
O1225 O 0.34043 0.67081 0.83201 0.0
O1226 O 0.36869 0.68566 0.82012 0.0
O1227 O 0.38121 0.6737 0.83487 0.0
H1228 H 0.3472 0.65373 0.81126 0.0
H1229 H 0.34097 0.63282 0.79824 0.0
H1230 H 0.32339 0.61491 0.83464 0.0
H1231 H 0.32982 0.63567 0.84755 0.0
H1232 H 0.33118 0.69507 0.89731 0.0
H1233 H 0.3424 0.6852 0.87741 0.0
H1234 H 0.3454 0.73557 0.88509 0.0
H1235 H 0.35658 0.7257 0.86549 0.0
H1236 H 0.42515 0.69859 0.83211 0.0
H1237 H 0.40689 0.70436 0.79129 0.0
H1238 H 0.38594 0.69225 0.7984 0.0
H1239 H 0.40407 0.68692 0.83925 0.0
C1240 C 0.34686 0.37983 0.83842 0.0
C1241 C 0.33334 0.37823 0.83276 0.0
C1242 C 0.33103 0.40316 0.83076 0.0
C1243 C 0.32554 0.38973 0.829 0.0
C1244 C 0.34452 0.40473 0.83649 0.0
C1245 C 0.35233 0.39324 0.8402 0.0
U1246 U 0.35797 0.34858 0.86086 0.0
O1247 O 0.3646 0.32802 0.85474 0.0
O1248 O 0.37883 0.34152 0.86674 0.0
C1249 C 0.37702 0.32966 0.86045 0.0
C1250 C 0.35566 0.36774 0.84166 0.0
C1251 C 0.38878 0.32447 0.85281 0.0
C1252 C 0.40543 0.32587 0.83454 0.0
C1253 C 0.39398 0.33114 0.84115 0.0
C1254 C 0.40647 0.30724 0.85113 0.0
C1255 C 0.41193 0.31389 0.83954 0.0
C1256 C 0.3951 0.31246 0.85764 0.0
C1257 C 0.33674 0.34178 0.89424 0.0
C1258 C 0.32335 0.32423 0.9064 0.0
C1259 C 0.3338 0.34333 0.91905 0.0
C1260 C 0.33929 0.34852 0.90687 0.0
C1261 C 0.3255 0.33126 0.91897 0.0
C1262 C 0.32883 0.32945 0.89419 0.0
C1263 C 0.34065 0.34877 0.88119 0.0
O1264 O 0.36418 0.36883 0.85247 0.0
O1265 O 0.3498 0.35545 0.84055 0.0
O1266 O 0.33807 0.34228 0.86951 0.0
O1267 O 0.35237 0.35585 0.88134 0.0
H1268 H 0.32878 0.36808 0.83111 0.0
H1269 H 0.31516 0.38808 0.82476 0.0
H1270 H 0.34922 0.41486 0.83781 0.0
H1271 H 0.36277 0.39487 0.84431 0.0
H1272 H 0.40934 0.33133 0.82571 0.0
H1273 H 0.38928 0.34043 0.83723 0.0
H1274 H 0.41093 0.29787 0.85515 0.0
H1275 H 0.39124 0.3071 0.86658 0.0
H1276 H 0.31692 0.31498 0.90587 0.0
H1277 H 0.3359 0.34892 0.92852 0.0
H1278 H 0.34516 0.35813 0.90728 0.0
H1279 H 0.32646 0.32406 0.88465 0.0
Cu1280 Cu 0.27362 0.27159 0.03581 0.0
N1281 N 0.27268 0.28632 0.02311 0.0
N1282 N 0.27824 0.29879 1.00446 0.0
C1283 C 0.2805 0.28721 0.0119 0.0
C1284 C 0.26855 0.30546 0.01131 0.0
C1285 C 0.26512 0.29775 0.02275 0.0
O1286 O 0.2742 0.25549 0.02353 0.0
C1287 C 0.28859 0.28733 0.05496 0.0
O1288 O 0.27848 0.29545 0.05124 0.0
H1289 H 0.28792 0.27955 0.00944 0.0
H1290 H 0.25779 0.30043 0.03034 0.0
N1291 N 0.25823 0.26911 0.04699 0.0
N1292 N 0.24545 0.25995 0.06376 0.0
C1293 C 0.25763 0.25985 0.05738 0.0
C1294 C 0.24599 0.27535 0.04676 0.0
C1295 C 0.23811 0.26975 0.05706 0.0
C1296 C 0.26267 0.25253 0.01726 0.0
O1297 O 0.25177 0.25945 0.02036 0.0
H1298 H 0.26609 0.25324 0.06023 0.0
H1299 H 0.24288 0.28323 0.03948 0.0
O1300 O 0.28917 0.2756 0.04911 0.0
H1301 H 0.26416 0.31518 1.00826 0.0
H1302 H 0.22768 0.27252 0.05922 0.0
Cu1303 Cu 0.77307 0.27072 1.0059 0.0
N1304 N 0.7572 0.27528 0.01704 0.0
N1305 N 0.74436 0.28314 0.03399 0.0
C1306 C 0.75719 0.28241 0.02895 0.0
C1307 C 0.73607 0.27627 0.02475 0.0
C1308 C 0.74398 0.27145 0.01438 0.0
O1309 O 0.78188 0.2608 0.02272 0.0
C1310 C 0.76212 0.29261 0.98738 0.0
O1311 O 0.76645 0.30086 0.99736 0.0
H1312 H 0.76643 0.28676 0.03393 0.0
H1313 H 0.74036 0.26552 1.00553 0.0
N1314 N 0.78908 0.26641 0.99487 0.0
N1315 N 0.80253 0.25973 0.97791 0.0
C1316 C 0.78957 0.25965 0.98275 0.0
C1317 C 0.80209 0.27083 0.99776 0.0
C1318 C 0.81036 0.26671 0.98742 0.0
C1319 C 0.78974 0.26667 0.03185 0.0
O1320 O 0.79277 0.27983 0.03052 0.0
H1321 H 0.78058 0.25517 0.9774 0.0
H1322 H 0.80532 0.27687 1.00665 0.0
O1323 O 0.7638 0.27971 0.98879 0.0
H1324 H 0.72501 0.27486 0.02531 0.0
H1325 H 0.82135 0.26877 0.98697 0.0
Cu1326 Cu 0.76774 0.77996 0.01267 0.0
N1327 N 0.76699 0.79481 1.00001 0.0
N1328 N 0.77252 0.80803 0.98182 0.0
C1329 C 0.7751 0.79634 0.98904 0.0
C1330 C 0.76231 0.81401 0.98856 0.0
C1331 C 0.75894 0.80588 0.9997 0.0
O1332 O 0.76778 0.76363 1.0007 0.0
C1333 C 0.78559 0.79536 0.03029 0.0
O1334 O 0.77828 0.80526 0.02471 0.0
H1335 H 0.78292 0.78909 0.9866 0.0
H1336 H 0.75132 0.80807 1.00717 0.0
N1337 N 0.75242 0.77798 0.02406 0.0
N1338 N 0.73978 0.76959 0.04133 0.0
C1339 C 0.75207 0.76953 0.03514 0.0
C1340 C 0.7399 0.78365 0.02318 0.0
C1341 C 0.73212 0.77853 0.03379 0.0
C1342 C 0.75622 0.76104 0.99434 0.0
O1343 O 0.7457 0.76877 0.99685 0.0
H1344 H 0.76076 0.76344 0.03855 0.0
H1345 H 0.73646 0.7907 0.0152 0.0
O1346 O 0.78345 0.78306 0.02597 0.0
H1347 H 0.75751 0.82358 0.98566 0.0
H1348 H 0.7215 0.78096 0.03553 0.0
Cu1349 Cu 0.26885 0.76765 1.00353 0.0
N1350 N 0.26682 0.78254 0.01575 0.0
N1351 N 0.25862 0.79431 0.03347 0.0
C1352 C 0.2588 0.78209 0.02688 0.0
C1353 C 0.26694 0.80275 0.02621 0.0
C1354 C 0.27199 0.79549 0.01537 0.0
O1355 O 0.272 0.75195 0.01607 0.0
C1356 C 0.25067 0.77895 0.98451 0.0
O1357 O 0.25875 0.78949 0.98787 0.0
H1358 H 0.25292 0.77304 0.02986 0.0
H1359 H 0.27867 0.79953 1.00759 0.0
N1360 N 0.28409 0.76881 0.99188 0.0
N1361 N 0.29802 0.76313 0.97482 0.0
C1362 C 0.28632 0.75999 0.98152 0.0
C1363 C 0.29473 0.7779 0.99174 0.0
C1364 C 0.30328 0.77446 0.9813 0.0
C1365 C 0.28347 0.75322 0.02295 0.0
O1366 O 0.29148 0.76393 0.02034 0.0
H1367 H 0.2795 0.75131 0.97911 0.0
H1368 H 0.2963 0.78638 0.99879 0.0
O1369 O 0.25272 0.76741 0.99054 0.0
H1370 H 0.26923 0.81344 0.02853 0.0
H1371 H 0.31261 0.78003 0.97868 0.0
Cu1372 Cu 0.01878 0.25579 0.27551 0.0
N1373 N 0.03016 0.24032 0.27512 0.0
N1374 N 0.04771 0.22705 0.26922 0.0
C1375 C 0.04159 0.23939 0.26766 0.0
C1376 C 0.0397 0.22 0.27808 0.0
C1377 C 0.02897 0.22817 0.28169 0.0
O1378 O 0.03199 0.27143 0.27605 0.0
C1379 C 0.99819 0.24372 0.25932 0.0
O1380 O 1.00014 0.23458 0.26916 0.0
H1381 H 0.04535 0.24772 0.26129 0.0
H1382 H 0.02079 0.22538 0.28853 0.0
N1383 N 1.00782 0.25618 0.29115 0.0
N1384 N 0.99086 0.26221 0.30497 0.0
C1385 C 0.99593 0.26303 0.29216 0.0
C1386 C 0.01035 0.25073 0.30371 0.0
C1387 C 0.99995 0.25438 0.31221 0.0
C1388 C 0.03184 0.28109 0.28487 0.0
O1389 O 0.02096 0.28233 0.29237 0.0
H1390 H 0.99141 0.26893 0.28374 0.0
H1391 H 0.01929 0.24476 0.30658 0.0
O1392 O 1.00572 0.25467 0.25959 0.0
H1393 H 0.04129 0.20957 0.28162 0.0
H1394 H 0.99926 0.2515 0.32294 0.0
Cu1395 Cu 0.77316 0.02265 0.26394 0.0
N1396 N 0.78887 0.03446 0.2638 0.0
N1397 N 0.80267 0.05201 0.2572 0.0
C1398 C 0.79029 0.04542 0.25532 0.0
C1399 C 0.80924 0.04485 0.26735 0.0
C1400 C 0.80075 0.03409 0.27138 0.0
O1401 O 0.7576 0.03526 0.26591 0.0
C1402 C 0.7853 1.00466 0.24618 0.0
O1403 O 0.79579 1.00818 0.25443 0.0
H1404 H 0.78243 0.04832 0.24773 0.0
H1405 H 0.80321 0.02643 0.27913 0.0
N1406 N 0.77261 0.0101 0.27879 0.0
N1407 N 0.76518 0.99169 0.29077 0.0
C1408 C 0.76398 0.99903 0.27892 0.0
C1409 C 0.77959 0.0098 0.29102 0.0
C1410 C 0.77504 0.99849 0.29841 0.0
C1411 C 0.75752 0.04109 0.27769 0.0
O1412 O 0.76709 0.03787 0.28699 0.0
H1413 H 0.75673 0.99661 0.2705 0.0
H1414 H 0.78726 0.01736 0.29447 0.0
O1415 O 0.77369 0.01037 0.24778 0.0
H1416 H 0.81946 0.04721 0.27166 0.0
H1417 H 0.77876 0.99554 0.30861 0.0
Cu1418 Cu 0.01447 0.76254 0.26518 0.0
N1419 N 1.00361 0.77849 0.26488 0.0
N1420 N 0.98636 0.79256 0.25836 0.0
C1421 C 0.99204 0.78006 0.25688 0.0
C1422 C 0.9948 0.79905 0.26775 0.0
C1423 C 1.00535 0.7904 0.27173 0.0
O1424 O 1.00072 0.74732 0.26713 0.0
C1425 C 0.03367 0.77469 0.24876 0.0
O1426 O 0.03242 0.78355 0.25875 0.0
H1427 H 0.9879 0.77207 0.25012 0.0
H1428 H 0.01381 0.79278 0.27893 0.0
N1429 N 0.0275 0.76119 0.28014 0.0
N1430 N 0.04612 0.75381 0.2924 0.0
C1431 C 0.03844 0.75279 0.28048 0.0
C1432 C 0.02829 0.76782 0.29226 0.0
C1433 C 0.03968 0.7633 0.29981 0.0
C1434 C 0.99451 0.74777 0.27854 0.0
O1435 O 0.9983 0.75749 0.28729 0.0
H1436 H 0.04058 0.74593 0.27215 0.0
H1437 H 0.02107 0.77535 0.29546 0.0
O1438 O 0.02612 0.7637 0.24889 0.0
H1439 H 0.99367 0.80943 0.27137 0.0
H1440 H 0.04301 0.7669 0.30994 0.0
Cu1441 Cu 0.25873 1.00102 0.27748 0.0
N1442 N 0.25876 0.01323 0.29251 0.0
N1443 N 0.26516 0.03165 0.30531 0.0
C1444 C 0.2667 0.02481 0.29339 0.0
C1445 C 0.2558 0.02401 0.31217 0.0
C1446 C 0.25188 0.0127 0.30429 0.0
O1447 O 0.25915 0.01374 0.26154 0.0
C1448 C 0.27222 0.98084 0.29199 0.0
O1449 O 0.26128 0.9831 0.29915 0.0
H1450 H 0.2737 0.02797 0.28549 0.0
H1451 H 0.24466 1.00462 0.30707 0.0
N1452 N 0.24282 0.98948 0.27531 0.0
N1453 N 0.22893 0.9724 0.26696 0.0
C1454 C 0.24145 0.97881 0.26646 0.0
C1455 C 0.23076 0.98978 0.2817 0.0
C1456 C 0.2222 0.97933 0.27658 0.0
C1457 C 0.24764 0.01944 0.25856 0.0
O1458 O 0.23671 0.01555 0.26528 0.0
H1459 H 0.24947 0.97598 0.25963 0.0
H1460 H 0.22826 0.99717 0.28942 0.0
O1461 O 0.27395 0.98812 0.28112 0.0
H1462 H 0.25196 0.02639 0.32218 0.0
H1463 H 0.21185 0.97699 0.27983 0.0
Cu1464 Cu 0.01606 0.76642 0.76025 0.0
N1465 N 0.02819 0.75155 0.76009 0.0
N1466 N 0.04625 0.73929 0.75368 0.0
C1467 C 0.03911 0.751 0.75189 0.0
C1468 C 0.03945 0.73218 0.76345 0.0
C1469 C 0.02837 0.73975 0.76738 0.0
O1470 O 0.02888 0.78242 0.76028 0.0
C1471 C 0.99569 0.75281 0.74546 0.0
O1472 O 0.99831 0.74466 0.75603 0.0
H1473 H 0.04163 0.75907 0.74462 0.0
H1474 H 0.02097 0.73681 0.77499 0.0
N1475 N 1.00502 0.76705 0.77585 0.0
N1476 N 0.98778 0.77338 0.78916 0.0
C1477 C 0.99324 0.77415 0.77654 0.0
C1478 C 1.00709 0.76153 0.78847 0.0
C1479 C 0.99648 0.76537 0.79666 0.0
C1480 C 0.02971 0.79116 0.77005 0.0
O1481 O 0.0197 0.79159 0.77874 0.0
H1482 H 0.98888 0.77988 0.76792 0.0
H1483 H 0.01584 0.75543 0.7916 0.0
O1484 O 1.00286 0.76396 0.74454 0.0
H1485 H 0.04232 0.72228 0.76763 0.0
H1486 H 0.99554 0.76279 0.80744 0.0
Cu1487 Cu 0.26891 0.0243 0.76828 0.0
N1488 N 0.26922 0.03596 0.75275 0.0
N1489 N 0.27593 0.05348 0.73913 0.0
C1490 C 0.27631 0.04804 0.75202 0.0
C1491 C 0.26822 0.04437 0.73151 0.0
C1492 C 0.2642 0.03359 0.73988 0.0
O1493 O 0.26799 0.03686 0.78416 0.0
C1494 C 0.28877 1.00241 0.77377 0.0
O1495 O 0.28393 1.00113 0.78617 0.0
H1496 H 0.28214 0.05241 0.7607 0.0
H1497 H 0.25845 0.02445 0.73666 0.0
N1498 N 0.25317 0.01239 0.76819 0.0
N1499 N 0.23909 0.99466 0.77372 0.0
C1500 C 0.25128 1.00131 0.77645 0.0
C1501 C 0.24166 0.01282 0.76003 0.0
C1502 C 0.23299 1.00195 0.76341 0.0
C1503 C 0.25684 0.04369 0.78401 0.0
O1504 O 0.24762 0.04122 0.77404 0.0
H1505 H 0.25857 0.9983 0.78449 0.0
H1506 H 0.23965 0.02051 0.75219 0.0
O1507 O 0.28483 0.01235 0.76608 0.0
H1508 H 0.2658 0.04525 0.72059 0.0
H1509 H 0.22306 0.9995 0.75847 0.0
Cu1510 Cu 0.03532 0.27368 0.77749 0.0
N1511 N 0.02401 0.28931 0.77714 0.0
N1512 N 1.00629 0.30269 0.7705 0.0
C1513 C 0.01275 0.29067 0.76866 0.0
C1514 C 0.01388 0.30913 0.78059 0.0
C1515 C 0.02476 0.3009 0.78463 0.0
O1516 O 0.02162 0.25822 0.77821 0.0
C1517 C 0.05513 0.28714 0.76289 0.0
O1518 O 0.05334 0.29508 0.77353 0.0
H1519 H 1.00927 0.28283 0.7614 0.0
H1520 H 0.03269 0.3033 0.7924 0.0
N1521 N 0.04744 0.272 0.79317 0.0
N1522 N 0.06517 0.26435 0.80659 0.0
C1523 C 0.0584 0.26363 0.79413 0.0
C1524 C 0.04728 0.27829 0.80545 0.0
C1525 C 0.05813 0.27362 0.81369 0.0
C1526 C 0.01445 0.25879 0.78902 0.0
O1527 O 0.01761 0.26858 0.79791 0.0
H1528 H 0.0612 0.25698 0.78585 0.0
H1529 H 0.03976 0.28566 0.8083 0.0
O1530 O 0.0478 0.27603 0.76188 0.0
H1531 H 0.01188 0.31918 0.78466 0.0
H1532 H 0.06065 0.27695 0.82411 0.0
Cu1533 Cu 0.76396 0.01853 0.75871 0.0
N1534 N 0.76531 0.03035 0.77405 0.0
N1535 N 0.77369 0.04771 0.78729 0.0
C1536 C 0.77387 0.0415 0.77488 0.0
C1537 C 0.76457 0.04017 0.79454 0.0
C1538 C 0.7594 0.02952 0.78636 0.0
O1539 O 0.76339 0.03144 0.74291 0.0
C1540 C 0.77727 0.99753 0.77173 0.0
O1541 O 0.76661 0.99989 0.77926 0.0
H1542 H 0.78046 0.04471 0.76664 0.0
H1543 H 0.7521 0.02158 0.78933 0.0
N1544 N 0.74785 1.00714 0.75736 0.0
N1545 N 0.73393 0.98951 0.75033 0.0
C1546 C 0.74629 0.99607 0.74905 0.0
C1547 C 0.73607 1.00759 0.76421 0.0
C1548 C 0.72748 0.9968 0.75988 0.0
C1549 C 0.75197 0.03774 0.74136 0.0
O1550 O 0.74189 0.03446 0.7495 0.0
H1551 H 0.75413 0.99297 0.74214 0.0
H1552 H 0.73386 0.01519 0.77185 0.0
O1553 O 0.77905 1.00527 0.76118 0.0
H1554 H 0.76185 0.04215 0.80503 0.0
H1555 H 0.71736 0.99441 0.7637 0.0
Cu1556 Cu 0.26645 0.77277 0.52287 0.0
N1557 N 0.26555 0.788 0.53491 0.0
N1558 N 0.27115 0.80252 0.55242 0.0
C1559 C 0.27532 0.79209 0.54445 0.0
C1560 C 0.25832 0.80527 0.54733 0.0
C1561 C 0.25495 0.79639 0.53663 0.0
O1562 O 0.26517 0.75621 0.53468 0.0
C1563 C 0.28713 0.76926 0.50182 0.0
O1564 O 0.28311 0.75631 0.50079 0.0
H1565 H 0.28523 0.78733 0.54563 0.0
H1566 H 0.24533 0.79602 0.53068 0.0
N1567 N 0.25084 0.77099 0.51062 0.0
N1568 N 0.23739 0.76295 0.49285 0.0
C1569 C 0.25044 0.76554 0.4978 0.0
C1570 C 0.23752 0.77191 0.51385 0.0
C1571 C 0.22926 0.7671 0.50296 0.0
C1572 C 0.27143 0.75434 0.54631 0.0
O1573 O 0.28222 0.76214 0.54968 0.0
H1574 H 0.25952 0.76271 0.49252 0.0
H1575 H 0.23403 0.77501 0.52377 0.0
O1576 O 0.28244 0.7766 0.51135 0.0
H1577 H 0.25165 0.81306 0.55106 0.0
H1578 H 0.21812 0.76629 0.50279 0.0
Cu1579 Cu 0.76057 0.76271 0.50178 0.0
N1580 N 0.76191 0.74703 0.4906 0.0
N1581 N 0.76969 0.73405 0.47352 0.0
C1582 C 0.76775 0.74695 0.47816 0.0
C1583 C 0.76479 0.72572 0.48349 0.0
C1584 C 0.76016 0.73369 0.49399 0.0
O1585 O 0.75679 0.77787 0.4888 0.0
C1586 C 0.78029 0.76961 0.524 0.0
O1587 O 0.77229 0.7798 0.52691 0.0
H1588 H 0.7713 0.75623 0.47306 0.0
H1589 H 0.75661 0.72995 0.50376 0.0
N1590 N 0.74614 0.76177 0.51447 0.0
N1591 N 0.73307 0.768 0.532 0.0
C1592 C 0.74234 0.77215 0.52263 0.0
C1593 C 0.73869 0.75075 0.51858 0.0
C1594 C 0.73068 0.75453 0.52933 0.0
C1595 C 0.74476 0.77696 0.483 0.0
O1596 O 0.73651 0.76681 0.48673 0.0
H1597 H 0.74671 0.78244 0.52203 0.0
H1598 H 0.73921 0.74057 0.51435 0.0
O1599 O 0.77789 0.76288 0.51292 0.0
H1600 H 0.76492 0.71461 0.48349 0.0
H1601 H 0.7238 0.74776 0.53486 0.0
Cu1602 Cu 0.77722 0.26579 0.52104 0.0
N1603 N 0.77642 0.25019 0.50941 0.0
N1604 N 0.76953 0.2371 0.49127 0.0
C1605 C 0.76856 0.24936 0.49764 0.0
C1606 C 0.77841 0.22992 0.49941 0.0
C1607 C 0.78268 0.238 0.51051 0.0
O1608 O 0.77959 0.28115 0.50787 0.0
C1609 C 0.7589 0.2533 0.53858 0.0
O1610 O 0.76717 0.24322 0.53607 0.0
H1611 H 0.76206 0.2576 0.49396 0.0
H1612 H 0.7897 0.23509 0.51887 0.0
N1613 N 0.79216 0.2669 0.53414 0.0
N1614 N 0.80483 0.27476 0.55251 0.0
C1615 C 0.79305 0.27596 0.54467 0.0
C1616 C 0.80379 0.25965 0.53536 0.0
C1617 C 0.81159 0.26445 0.54661 0.0
C1618 C 0.79103 0.2806 0.50174 0.0
O1619 O 0.79957 0.27087 0.50548 0.0
H1620 H 0.78522 0.28343 0.54637 0.0
H1621 H 0.8065 0.25151 0.52851 0.0
O1622 O 0.76083 0.26488 0.53253 0.0
H1623 H 0.78172 0.2196 0.49745 0.0
H1624 H 0.82143 0.26052 0.55018 0.0
Cu1625 Cu 0.27262 0.27668 0.51222 0.0
N1626 N 0.27171 0.29252 0.52321 0.0
N1627 N 0.26599 0.30576 0.54092 0.0
C1628 C 0.26574 0.29295 0.53555 0.0
C1629 C 0.27245 0.31368 0.53152 0.0
C1630 C 0.27591 0.30553 0.52063 0.0
O1631 O 0.27555 0.26156 0.52549 0.0
C1632 C 0.24744 0.28497 0.49829 0.0
O1633 O 0.2467 0.29382 0.50836 0.0
H1634 H 0.26124 0.28397 0.54044 0.0
H1635 H 0.28084 0.30891 0.51136 0.0
N1636 N 0.28767 0.27677 0.50049 0.0
N1637 N 0.30102 0.26979 0.48355 0.0
C1638 C 0.28928 0.2675 0.49041 0.0
C1639 C 0.29877 0.28529 0.5 0.0
C1640 C 0.30701 0.28101 0.48961 0.0
C1641 C 0.28707 0.26284 0.53226 0.0
O1642 O 0.2952 0.27336 0.52933 0.0
H1643 H 0.28201 0.25911 0.48833 0.0
H1644 H 0.30079 0.29393 0.50677 0.0
O1645 O 0.25658 0.27572 0.49915 0.0
H1646 H 0.27423 0.32468 0.53224 0.0
H1647 H 0.3166 0.28592 0.4867 0.0
Cu1648 Cu 0.77269 0.52565 0.75656 0.0
N1649 N 0.77269 0.53748 0.74096 0.0
N1650 N 0.77964 0.55436 0.72664 0.0
C1651 C 0.78335 0.54559 0.73695 0.0
C1652 C 0.76617 0.55133 0.72382 0.0
C1653 C 0.76195 0.54098 0.73261 0.0
O1654 O 0.77174 0.53763 0.77292 0.0
C1655 C 0.7873 0.506 0.74345 0.0
O1656 O 0.77761 0.50926 0.73428 0.0
H1657 H 0.79356 0.54527 0.74177 0.0
H1658 H 0.75162 0.5367 0.73314 0.0
N1659 N 0.75655 0.51458 0.75733 0.0
N1660 N 0.74259 0.49728 0.76419 0.0
C1661 C 0.75579 0.50166 0.76251 0.0
C1662 C 0.74339 0.51852 0.75572 0.0
C1663 C 0.73479 0.50789 0.75981 0.0
C1664 C 0.77762 0.54946 0.77423 0.0
O1665 O 0.78749 0.55295 0.76593 0.0
H1666 H 0.76477 0.49596 0.76585 0.0
H1667 H 0.74025 0.5287 0.75262 0.0
O1668 O 0.78779 0.51246 0.75492 0.0
H1669 H 0.7596 0.55666 0.71641 0.0
H1670 H 0.72365 0.50817 0.75997 0.0
Cu1671 Cu 0.27128 0.51654 0.77136 0.0
N1672 N 0.27288 0.50545 0.78737 0.0
N1673 N 0.28029 0.48842 0.80141 0.0
C1674 C 0.27738 0.49239 0.78825 0.0
C1675 C 0.27733 0.4994 0.80912 0.0
C1676 C 0.27289 0.50984 0.80048 0.0
O1677 O 0.2669 0.50426 0.75568 0.0
C1678 C 0.28961 0.53974 0.76549 0.0
O1679 O 0.28144 0.54226 0.75475 0.0
H1680 H 0.27937 0.48623 0.77939 0.0
H1681 H 0.27075 0.52021 0.80351 0.0
N1682 N 0.25638 0.52865 0.77179 0.0
N1683 N 0.24248 0.54574 0.76487 0.0
C1684 C 0.25204 0.5367 0.76117 0.0
C1685 C 0.24902 0.53251 0.78253 0.0
C1686 C 0.24046 0.543 0.7783 0.0
C1687 C 0.27371 0.49423 0.7513 0.0
O1688 O 0.28656 0.49273 0.7557 0.0
H1689 H 0.25604 0.53609 0.75095 0.0
H1690 H 0.25011 0.52837 0.79284 0.0
O1691 O 0.28803 0.52846 0.77209 0.0
H1692 H 0.27876 0.50011 0.82019 0.0
H1693 H 0.23376 0.5486 0.78481 0.0
Cu1694 Cu 0.26613 0.51774 0.26295 0.0
N1695 N 0.25086 0.50532 0.26173 0.0
N1696 N 0.23668 0.48774 0.26752 0.0
C1697 C 0.24624 0.49721 0.27202 0.0
C1698 C 0.23497 0.4903 0.25388 0.0
C1699 C 0.24367 0.50108 0.25037 0.0
O1700 O 0.28262 0.50601 0.26339 0.0
C1701 C 0.26947 0.541 0.28216 0.0
O1702 O 0.28212 0.54262 0.27794 0.0
H1703 H 0.25013 0.49802 0.28257 0.0
H1704 H 0.24503 0.50511 0.24011 0.0
N1705 N 0.26779 0.52826 0.24662 0.0
N1706 N 0.27484 0.54502 0.23221 0.0
C1707 C 0.27183 0.54161 0.24534 0.0
C1708 C 0.26819 0.52311 0.23383 0.0
C1709 C 0.27239 0.53336 0.22496 0.0
C1710 C 0.28371 0.49463 0.26995 0.0
O1711 O 0.27522 0.49189 0.27986 0.0
H1712 H 0.27339 0.54847 0.25395 0.0
H1713 H 0.26645 0.51241 0.23125 0.0
O1714 O 0.26226 0.53056 0.27806 0.0
H1715 H 0.22844 0.48437 0.24675 0.0
H1716 H 0.27401 0.53211 0.21409 0.0
Cu1717 Cu 0.77218 0.51102 0.25596 0.0
N1718 N 0.78736 0.4992 0.25702 0.0
N1719 N 0.80049 0.48185 0.26486 0.0
C1720 C 0.78853 0.48859 0.26601 0.0
C1721 C 0.80707 0.48853 0.25467 0.0
C1722 C 0.79898 0.49917 0.24986 0.0
O1723 O 0.7561 0.49833 0.25371 0.0
C1724 C 0.7856 0.52946 0.27327 0.0
O1725 O 0.79519 0.52625 0.26474 0.0
H1726 H 0.78081 0.48606 0.27342 0.0
H1727 H 0.80151 0.50645 0.24184 0.0
N1728 N 0.77158 0.5235 0.24097 0.0
N1729 N 0.76462 0.54196 0.22873 0.0
C1730 C 0.76345 0.53459 0.24051 0.0
C1731 C 0.7782 0.52384 0.22903 0.0
C1732 C 0.77391 0.53516 0.22147 0.0
C1733 C 0.75554 0.49225 0.24204 0.0
O1734 O 0.76492 0.49552 0.23311 0.0
H1735 H 0.75662 0.53702 0.24867 0.0
H1736 H 0.78548 0.51633 0.22592 0.0
O1737 O 0.7738 0.52334 0.27199 0.0
H1738 H 0.817 0.48591 0.25084 0.0
H1739 H 0.77749 0.53817 0.21145 0.0
Cu1740 Cu 0.5206 0.26242 0.7681 0.0
N1741 N 0.50982 0.26244 0.78397 0.0
N1742 N 0.49346 0.26873 0.79839 0.0
C1743 C 0.49899 0.27066 0.78589 0.0
C1744 C 0.50113 0.25883 0.80451 0.0
C1745 C 0.51114 0.25499 0.79564 0.0
O1746 O 0.50692 0.26057 0.75264 0.0
C1747 C 0.53942 0.28055 0.78043 0.0
O1748 O 0.53705 0.27187 0.79051 0.0
H1749 H 0.49545 0.27812 0.77833 0.0
H1750 H 0.51898 0.24747 0.79771 0.0
N1751 N 0.53295 0.2477 0.76706 0.0
N1752 N 0.5509 0.23562 0.75992 0.0
C1753 C 0.54404 0.2476 0.759 0.0
C1754 C 0.53279 0.23534 0.77335 0.0
C1755 C 0.54378 0.22791 0.769 0.0
C1756 C 0.50003 0.24919 0.75287 0.0
O1757 O 0.50314 0.24028 0.76264 0.0
H1758 H 0.54682 0.25613 0.75236 0.0
H1759 H 0.52512 0.23183 0.78044 0.0
O1760 O 0.53281 0.2789 0.7689 0.0
H1761 H 0.49963 0.25458 0.81468 0.0
H1762 H 0.54631 0.21763 0.77236 0.0
Cu1763 Cu 0.52439 0.76921 0.7711 0.0
N1764 N 0.5373 0.76706 0.78608 0.0
N1765 N 0.55598 0.75925 0.79795 0.0
C1766 C 0.54828 0.75873 0.78602 0.0
C1767 C 0.5495 0.76833 0.80582 0.0
C1768 C 0.53806 0.7731 0.79851 0.0
O1769 O 0.53601 0.77141 0.75494 0.0
C1770 C 0.50435 0.7541 0.78345 0.0
O1771 O 0.50801 0.76364 0.79245 0.0
H1772 H 0.55064 0.75255 0.77723 0.0
H1773 H 0.53078 0.78039 0.80209 0.0
N1774 N 0.51345 0.78505 0.77153 0.0
N1775 N 0.49603 0.79912 0.76567 0.0
C1776 C 0.50191 0.78685 0.76354 0.0
C1777 C 0.51495 0.79659 0.77903 0.0
C1778 C 0.50428 0.80525 0.77545 0.0
C1779 C 0.5442 0.78187 0.75632 0.0
O1780 O 0.54328 0.78938 0.76742 0.0
H1781 H 0.49805 0.77931 0.75614 0.0
H1782 H 0.52326 0.79865 0.78651 0.0
O1783 O 0.51074 0.75389 0.77215 0.0
H1784 H 0.55264 0.77123 0.81622 0.0
H1785 H 0.5027 0.81525 0.77986 0.0
Cu1786 Cu 0.51259 0.75946 0.26644 0.0
N1787 N 0.50186 0.75888 0.2823 0.0
N1788 N 0.48535 0.76451 0.2968 0.0
C1789 C 0.49096 0.76693 0.28442 0.0
C1790 C 0.49305 0.75448 0.30264 0.0
C1791 C 0.50316 0.75104 0.29371 0.0
O1792 O 0.49889 0.75785 0.25091 0.0
C1793 C 0.53149 0.77719 0.27938 0.0
O1794 O 0.52903 0.76819 0.28916 0.0
H1795 H 0.48741 0.77459 0.27708 0.0
H1796 H 0.51102 0.74349 0.29555 0.0
N1797 N 0.5249 0.74482 0.26498 0.0
N1798 N 0.54291 0.73317 0.25745 0.0
C1799 C 0.53602 0.74513 0.25699 0.0
C1800 C 0.52472 0.7322 0.27074 0.0
C1801 C 0.53578 0.72503 0.26615 0.0
C1802 C 0.49184 0.74656 0.25113 0.0
O1803 O 0.49476 0.73768 0.26099 0.0
H1804 H 0.53896 0.75404 0.25097 0.0
H1805 H 0.51696 0.72833 0.27756 0.0
O1806 O 0.52487 0.77593 0.26779 0.0
H1807 H 0.49149 0.74986 0.31264 0.0
H1808 H 0.53814 0.71451 0.26879 0.0
Cu1809 Cu 0.51987 0.25887 0.26569 0.0
N1810 N 0.50873 0.24274 0.26635 0.0
N1811 N 0.4913 0.22847 0.27223 0.0
C1812 C 0.4976 0.2409 0.27421 0.0
C1813 C 0.49889 0.22224 0.26278 0.0
C1814 C 0.50958 0.23103 0.2592 0.0
O1815 O 0.50695 0.27422 0.26687 0.0
C1816 C 0.54382 0.24786 0.27664 0.0
O1817 O 0.5418 0.24104 0.26509 0.0
H1818 H 0.49403 0.24874 0.28098 0.0
H1819 H 0.51737 0.22904 0.25183 0.0
N1820 N 0.52878 0.26138 0.2489 0.0
N1821 N 0.54446 0.26916 0.23409 0.0
C1822 C 0.54042 0.26902 0.24728 0.0
C1823 C 0.52529 0.2565 0.2363 0.0
C1824 C 0.53491 0.26128 0.22716 0.0
C1825 C 0.49665 0.2733 0.25826 0.0
O1826 O 0.49588 0.26284 0.24978 0.0
H1827 H 0.54571 0.27451 0.25564 0.0
H1828 H 0.51638 0.24993 0.23391 0.0
O1829 O 0.53496 0.25677 0.27979 0.0
H1830 H 0.49695 0.21201 0.25875 0.0
H1831 H 0.53493 0.25896 0.21628 0.0
H1832 H 0.20476 0.22499 0.13468 0.0
H1833 H 0.25589 0.23528 0.072 0.0
H1834 H 0.23628 0.19643 0.12485 0.0
H1835 H 0.22502 0.26457 0.08173 0.0
H1836 H 0.24862 0.22095 0.09121 0.0
H1837 H 0.21156 0.2394 0.11516 0.0
C1838 C 0.21305 0.22168 0.12841 0.0
C1839 C 0.21998 0.20944 0.13156 0.0
C1840 C 0.24342 0.23052 0.08916 0.0
C1841 C 0.22792 0.22605 0.10915 0.0
C1842 C 0.24764 0.2388 0.07818 0.0
C1843 C 0.24114 0.25128 0.07514 0.0
C1844 C 0.23257 0.23466 0.09729 0.0
C1845 C 0.23029 0.25503 0.08351 0.0
C1846 C 0.21699 0.22998 0.11729 0.0
C1847 C 0.23076 0.20586 0.12306 0.0
N1848 N 0.22639 0.24679 0.09417 0.0
N1849 N 0.23437 0.21408 0.11232 0.0
H1850 H 0.8338 0.24154 0.10728 0.0
H1851 H 0.7841 0.23978 0.03923 0.0
H1852 H 0.80659 0.20723 0.09652 0.0
H1853 H 0.80785 0.27566 0.05246 0.0
H1854 H 0.79296 0.22735 0.05958 0.0
H1855 H 0.82505 0.25386 0.08688 0.0
C1856 C 0.82594 0.23658 0.10071 0.0
C1857 C 0.82098 0.22325 0.10376 0.0
C1858 C 0.79625 0.23794 0.05803 0.0
C1859 C 0.81099 0.23735 0.08009 0.0
C1860 C 0.7912 0.24506 0.04637 0.0
C1861 C 0.7952 0.25883 0.04406 0.0
C1862 C 0.80545 0.24459 0.06749 0.0
C1863 C 0.80443 0.26508 0.05376 0.0
C1864 C 0.821 0.24363 0.08898 0.0
C1865 C 0.81094 0.21737 0.09459 0.0
N1866 N 0.80923 0.25793 0.06499 0.0
N1867 N 0.80631 0.22443 0.08324 0.0
H1868 H 0.81062 0.81101 0.11523 0.0
H1869 H 0.80199 0.81807 0.0335 0.0
H1870 H 0.83044 0.84291 0.09142 0.0
H1871 H 0.78941 0.78122 0.05491 0.0
H1872 H 0.81328 0.82661 0.05471 0.0
H1873 H 0.80352 0.79931 0.09371 0.0
C1874 C 0.81364 0.81551 0.10554 0.0
C1875 C 0.82103 0.82814 0.10526 0.0
C1876 C 0.80827 0.81655 0.05481 0.0
C1877 C 0.81273 0.81478 0.08048 0.0
C1878 C 0.80187 0.81163 0.04264 0.0
C1879 C 0.79485 0.79886 0.04238 0.0
C1880 C 0.80742 0.80882 0.06704 0.0
C1881 C 0.79489 0.79103 0.0546 0.0
C1882 C 0.80952 0.80881 0.09323 0.0
C1883 C 0.82448 0.83342 0.09227 0.0
N1884 N 0.80089 0.79622 0.06649 0.0
N1885 N 0.82022 0.82681 0.0805 0.0
H1886 H 0.21079 0.83689 0.09255 0.0
H1887 H 0.25035 0.77734 0.05428 0.0
H1888 H 0.21989 0.79801 0.1121 0.0
H1889 H 0.24896 0.81937 0.04008 0.0
H1890 H 0.23738 0.78373 0.07445 0.0
H1891 H 0.22282 0.82967 0.07234 0.0
C1892 C 0.21536 0.82684 0.09269 0.0
C1893 C 0.2144 0.81818 0.1043 0.0
C1894 C 0.23992 0.79155 0.06691 0.0
C1895 C 0.22812 0.80967 0.08075 0.0
C1896 C 0.24728 0.78789 0.05534 0.0
C1897 C 0.25085 0.79783 0.04541 0.0
C1898 C 0.23591 0.80523 0.06855 0.0
C1899 C 0.24665 0.81137 0.04748 0.0
C1900 C 0.2222 0.82269 0.08104 0.0
C1901 C 0.22023 0.80508 0.10347 0.0
N1902 N 0.23941 0.81463 0.05873 0.0
N1903 N 0.22685 0.80126 0.09196 0.0
H1904 H 0.2215 0.79306 0.90112 0.0
H1905 H 0.23159 0.79869 0.98276 0.0
H1906 H 0.20049 0.82216 0.92575 0.0
H1907 H 0.24708 0.76483 0.9601 0.0
H1908 H 0.21874 0.80622 0.96209 0.0
H1909 H 0.23 0.78175 0.92233 0.0
C1910 C 0.21861 0.79706 0.91096 0.0
C1911 C 0.21027 0.80868 0.91155 0.0
C1912 C 0.22469 0.79698 0.96162 0.0
C1913 C 0.21998 0.79567 0.93597 0.0
C1914 C 0.23194 0.7926 0.97348 0.0
C1915 C 0.24022 0.78099 0.9732 0.0
C1916 C 0.22599 0.78993 0.94917 0.0
C1917 C 0.24057 0.77366 0.96082 0.0
C1918 C 0.22341 0.79052 0.92308 0.0
C1919 C 0.20675 0.8132 0.92466 0.0
N1920 N 0.23374 0.77838 0.94923 0.0
N1921 N 0.21171 0.80679 0.93627 0.0
H1922 H 0.22201 0.20346 0.95385 0.0
H1923 H 0.28 0.24853 0.99568 0.0
H1924 H 0.25685 0.22252 0.93424 0.0
H1925 H 0.24121 0.23493 0.01185 0.0
H1926 H 0.27397 0.23605 0.97415 0.0
H1927 H 0.23109 0.21191 0.97602 0.0
C1928 C 0.23169 0.20925 0.95418 0.0
C1929 C 0.23861 0.21225 0.94201 0.0
C1930 C 0.26691 0.2356 0.98252 0.0
C1931 C 0.24907 0.22224 0.96765 0.0
C1932 C 0.27044 0.24258 0.99487 0.0
C1933 C 0.26114 0.24268 1.00562 0.0
C1934 C 0.25404 0.22862 0.981 0.0
C1935 C 0.24871 0.23509 1.00386 0.0
C1936 C 0.23683 0.21419 0.9669 0.0
C1937 C 0.25101 0.22008 0.94325 0.0
N1938 N 0.24553 0.22845 0.99184 0.0
N1939 N 0.2558 0.22482 0.95578 0.0
H1940 H 0.85073 0.24434 0.90709 0.0
H1941 H 0.79199 0.23769 0.96325 0.0
H1942 H 0.82108 0.21058 0.90718 0.0
H1943 H 0.82409 0.2691 0.96318 0.0
H1944 H 0.80136 0.228 0.94226 0.0
H1945 H 0.84012 0.25383 0.92712 0.0
C1946 C 0.84189 0.23894 0.91123 0.0
C1947 C 0.83678 0.22664 0.90526 0.0
C1948 C 0.80632 0.23702 0.94687 0.0
C1949 C 0.82455 0.2375 0.92862 0.0
C1950 C 0.80093 0.2426 0.95881 0.0
C1951 C 0.80731 0.25418 0.96514 0.0
C1952 C 0.81813 0.24312 0.94114 0.0
C1953 C 0.81894 0.26004 0.95891 0.0
C1954 C 0.83586 0.24436 0.92279 0.0
C1955 C 0.82547 0.22003 0.91143 0.0
N1956 N 0.82392 0.25447 0.94735 0.0
N1957 N 0.81973 0.22554 0.92272 0.0
H1958 H 0.81818 0.81743 0.90656 0.0
H1959 H 0.77344 0.83441 0.97211 0.0
H1960 H 0.80215 0.85737 0.915 0.0
H1961 H 0.78738 0.79366 0.96351 0.0
H1962 H 0.78452 0.8429 0.95154 0.0
H1963 H 0.80793 0.80858 0.92769 0.0
C1964 C 0.8126 0.82438 0.91287 0.0
C1965 C 0.81099 0.83818 0.90884 0.0
C1966 C 0.78518 0.83209 0.95412 0.0
C1967 C 0.79911 0.82805 0.9331 0.0
C1968 C 0.77875 0.82718 0.9659 0.0
C1969 C 0.77933 0.81321 0.96967 0.0
C1970 C 0.79234 0.82304 0.94589 0.0
C1971 C 0.78668 0.8045 0.96118 0.0
C1972 C 0.80667 0.81928 0.92491 0.0
C1973 C 0.8035 0.84661 0.91745 0.0
N1974 N 0.79285 0.80954 0.94973 0.0
N1975 N 0.79787 0.84142 0.92909 0.0
H1976 H 0.11878 0.21951 0.21844 0.0
H1977 H 0.06323 0.2047 0.27622 0.0
H1978 H 0.11878 0.18304 0.24394 0.0
H1979 H 0.06082 0.2385 0.24725 0.0
H1980 H 0.08378 0.19695 0.2651 0.0
H1981 H 0.09803 0.22694 0.22949 0.0
C1982 C 0.11449 0.21307 0.22643 0.0
C1983 C 0.12069 0.20063 0.23028 0.0
C1984 C 0.07874 0.20606 0.26117 0.0
C1985 C 0.09665 0.20911 0.24299 0.0
C1986 C 0.06689 0.21051 0.26751 0.0
C1987 C 0.06006 0.22235 0.26276 0.0
C1988 C 0.08396 0.21347 0.24997 0.0
C1989 C 0.06565 0.22943 0.25148 0.0
C1990 C 0.10254 0.21731 0.23269 0.0
C1991 C 0.11438 0.19265 0.24053 0.0
N1992 N 0.0772 0.22491 0.24553 0.0
N1993 N 0.10278 0.19705 0.24655 0.0
H1994 H 0.81193 0.12736 0.20921 0.0
H1995 H 0.82951 0.06033 0.25472 0.0
H1996 H 0.85294 0.1168 0.22368 0.0
H1997 H 0.7879 0.07122 0.24261 0.0
H1998 H 0.83813 0.0806 0.24265 0.0
H1999 H 0.80287 0.10643 0.22028 0.0
C2000 C 0.81905 0.12062 0.21461 0.0
C2001 C 0.83324 0.12398 0.21558 0.0
C2002 C 0.8271 0.07858 0.24261 0.0
C2003 C 0.82289 0.09998 0.22837 0.0
C2004 C 0.82213 0.06698 0.24961 0.0
C2005 C 0.80789 0.06396 0.24983 0.0
C2006 C 0.81782 0.08736 0.23569 0.0
C2007 C 0.79895 0.07298 0.24269 0.0
C2008 C 0.81385 0.1087 0.22101 0.0
C2009 C 0.84191 0.11484 0.22284 0.0
N2010 N 0.80405 0.08424 0.23596 0.0
N2011 N 0.83662 0.10334 0.22893 0.0
H2012 H 0.9171 0.84243 0.23082 0.0
H2013 H 0.97232 0.7821 0.23558 0.0
H2014 H 0.91517 0.80662 0.20481 0.0
H2015 H 0.97194 0.81548 0.26464 0.0
H2016 H 0.95186 0.79131 0.22389 0.0
H2017 H 0.93767 0.83329 0.24277 0.0
C2018 C 0.921 0.83268 0.22757 0.0
C2019 C 0.91425 0.8253 0.21677 0.0
C2020 C 0.95625 0.79663 0.23284 0.0
C2021 C 0.93791 0.8147 0.23053 0.0
C2022 C 0.968 0.79131 0.23962 0.0
C2023 C 0.97409 0.79792 0.25126 0.0
C2024 C 0.95044 0.80873 0.2376 0.0
C2025 C 0.96787 0.81 0.2557 0.0
C2026 C 0.93273 0.82742 0.23446 0.0
C2027 C 0.9198 0.81263 0.21318 0.0
N2028 N 0.95647 0.81498 0.24889 0.0
N2029 N 0.93125 0.80778 0.21999 0.0
H2030 H 0.22 0.89776 0.21826 0.0
H2031 H 0.20206 0.96502 0.26108 0.0
H2032 H 0.17858 0.91103 0.22463 0.0
H2033 H 0.24375 0.95291 0.2542 0.0
H2034 H 0.19345 0.94523 0.24782 0.0
H2035 H 0.22899 0.91767 0.23137 0.0
C2036 C 0.21277 0.90481 0.22242 0.0
C2037 C 0.19846 0.90262 0.22023 0.0
C2038 C 0.20449 0.94688 0.24919 0.0
C2039 C 0.20876 0.92562 0.23527 0.0
C2040 C 0.20945 0.95819 0.25687 0.0
C2041 C 0.22371 0.96074 0.25889 0.0
C2042 C 0.2138 0.93788 0.24342 0.0
C2043 C 0.23269 0.95153 0.25287 0.0
C2044 C 0.21793 0.91624 0.22987 0.0
C2045 C 0.18968 0.9123 0.22579 0.0
N2046 N 0.2276 0.94053 0.24547 0.0
N2047 N 0.19495 0.92328 0.23303 0.0
H2048 H 0.09307 0.83441 0.81817 0.0
H2049 H 0.05559 0.78699 0.76006 0.0
H2050 H 0.11527 0.80812 0.79156 0.0
H2051 H 0.03422 0.8119 0.78862 0.0
H2052 H 0.07763 0.79659 0.76933 0.0
H2053 H 0.07165 0.82805 0.80562 0.0
C2054 C 0.09346 0.82729 0.80968 0.0
C2055 C 0.10605 0.82169 0.80607 0.0
C2056 C 0.0681 0.80008 0.77344 0.0
C2057 C 0.08137 0.81438 0.79146 0.0
C2058 C 0.05549 0.79468 0.76806 0.0
C2059 C 0.04297 0.79859 0.77358 0.0
C2060 C 0.06822 0.80947 0.78439 0.0
C2061 C 0.04356 0.8085 0.78406 0.0
C2062 C 0.08119 0.82371 0.80244 0.0
C2063 C 0.10586 0.81276 0.79472 0.0
N2064 N 0.05592 0.81349 0.78916 0.0
N2065 N 0.09373 0.8093 0.78791 0.0
H2066 H 0.21478 0.10815 0.8251 0.0
H2067 H 0.27496 0.05858 0.80165 0.0
H2068 H 0.25739 0.11465 0.83831 0.0
H2069 H 0.23194 0.05421 0.78921 0.0
H2070 H 0.26917 0.07832 0.81607 0.0
H2071 H 0.22124 0.08772 0.81276 0.0
C2072 C 0.2255 0.10527 0.82552 0.0
C2073 C 0.23549 0.11328 0.83286 0.0
C2074 C 0.26102 0.07295 0.81023 0.0
C2075 C 0.24311 0.08966 0.81841 0.0
C2076 C 0.26431 0.06162 0.80206 0.0
C2077 C 0.25395 0.0547 0.79412 0.0
C2078 C 0.24726 0.07732 0.81048 0.0
C2079 C 0.24034 0.05922 0.79502 0.0
C2080 C 0.22922 0.09357 0.81836 0.0
C2081 C 0.24929 0.10899 0.83268 0.0
N2082 N 0.23744 0.07017 0.80294 0.0
N2083 N 0.25268 0.09752 0.82561 0.0
H2084 H 0.94084 0.22784 0.82682 0.0
H2085 H 1.00028 0.23959 0.77197 0.0
H2086 H 0.94213 0.20331 0.79004 0.0
H2087 H 1.00041 0.25722 0.81262 0.0
H2088 H 0.97891 0.22651 0.77734 0.0
H2089 H 0.96236 0.23921 0.82073 0.0
C2090 C 0.94566 0.22471 0.8175 0.0
C2091 C 0.93953 0.21442 0.80905 0.0
C2092 C 0.98372 0.23322 0.78506 0.0
C2093 C 0.96445 0.22779 0.80177 0.0
C2094 C 0.99594 0.24064 0.78201 0.0
C2095 C 1.00222 0.24962 0.79179 0.0
C2096 C 0.97772 0.23485 0.79795 0.0
C2097 C 0.99602 0.25057 0.80463 0.0
C2098 C 0.958 0.23131 0.81396 0.0
C2099 C 0.94629 0.21123 0.79688 0.0
N2100 N 0.98422 0.2434 0.80726 0.0
N2101 N 0.95834 0.21787 0.79361 0.0
H2102 H 0.80558 0.92365 0.81217 0.0
H2103 H 0.80199 0.9889 0.76082 0.0
H2104 H 0.83927 0.93478 0.78616 0.0
H2105 H 0.77261 0.97875 0.79183 0.0
H2106 H 0.81559 0.96887 0.76853 0.0
H2107 H 0.79314 0.94348 0.80351 0.0
C2108 C 0.81047 0.93031 0.80472 0.0
C2109 C 0.82363 0.92746 0.80005 0.0
C2110 C 0.80615 0.97111 0.7736 0.0
C2111 C 0.80913 0.9504 0.78975 0.0
C2112 C 0.79838 0.98253 0.76919 0.0
C2113 C 0.78611 0.98563 0.77567 0.0
C2114 C 0.80152 0.96271 0.78448 0.0
C2115 C 0.78198 0.97694 0.78648 0.0
C2116 C 0.80327 0.94166 0.79967 0.0
C2117 C 0.82912 0.93642 0.79004 0.0
N2118 N 0.78959 0.96599 0.79047 0.0
N2119 N 0.82188 0.94746 0.78525 0.0
H2120 H 0.2402 0.10463 0.23525 0.0
H2121 H 0.22744 0.0233 0.23912 0.0
H2122 H 0.20707 0.08288 0.21323 0.0
H2123 H 0.26365 0.04323 0.25745 0.0
H2124 H 0.22118 0.0449 0.2279 0.0
H2125 H 0.24993 0.08251 0.24228 0.0
C2126 C 0.23497 0.09524 0.23183 0.0
C2127 C 0.22269 0.09574 0.22365 0.0
C2128 C 0.23065 0.04458 0.23414 0.0
C2129 C 0.23391 0.07025 0.23165 0.0
C2130 C 0.2343 0.03218 0.24046 0.0
C2131 C 0.24619 0.0314 0.24908 0.0
C2132 C 0.23876 0.05652 0.23668 0.0
C2133 C 0.25455 0.04331 0.25067 0.0
C2134 C 0.24061 0.08259 0.23579 0.0
C2135 C 0.21659 0.08314 0.21941 0.0
N2136 N 0.25057 0.05543 0.24471 0.0
N2137 N 0.22217 0.071 0.22353 0.0
H2138 H 0.18637 0.92987 0.80559 0.0
H2139 H 0.25382 0.97451 0.78675 0.0
H2140 H 0.22782 0.91585 0.81344 0.0
H2141 H 0.21223 0.98625 0.7757 0.0
H2142 H 0.24464 0.95355 0.79748 0.0
H2143 H 0.19577 0.95101 0.79563 0.0
C2144 C 0.19747 0.93126 0.80536 0.0
C2145 C 0.20628 0.92099 0.81048 0.0
C2146 C 0.23752 0.96072 0.79271 0.0
C2147 C 0.21719 0.94532 0.79881 0.0
C2148 C 0.24276 0.97276 0.78664 0.0
C2149 C 0.23381 0.98226 0.78027 0.0
C2150 C 0.2232 0.95809 0.79252 0.0
C2151 C 0.21956 0.97923 0.78032 0.0
C2152 C 0.20284 0.94334 0.79954 0.0
C2153 C 0.22059 0.92337 0.80955 0.0
N2154 N 0.21473 0.96748 0.78635 0.0
N2155 N 0.22558 0.93527 0.80388 0.0
H2156 H 0.14027 0.21725 0.81245 0.0
H2157 H 0.07402 0.25953 0.8332 0.0
H2158 H 0.1303 0.22558 0.85447 0.0
H2159 H 0.08421 0.25174 0.79114 0.0
H2160 H 0.09446 0.24717 0.84109 0.0
H2161 H 0.11992 0.2298 0.8045 0.0
C2162 C 0.1339 0.22179 0.82005 0.0
C2163 C 0.13719 0.22031 0.83422 0.0
C2164 C 0.09224 0.24815 0.83013 0.0
C2165 C 0.11352 0.23468 0.82506 0.0
C2166 C 0.08054 0.25532 0.82557 0.0
C2167 C 0.07724 0.25682 0.8114 0.0
C2168 C 0.10087 0.24237 0.82051 0.0
C2169 C 0.08614 0.25081 0.80213 0.0
C2170 C 0.12217 0.22891 0.81546 0.0
C2171 C 0.12822 0.22625 0.84347 0.0
N2172 N 0.09749 0.24391 0.80683 0.0
N2173 N 0.11688 0.23315 0.83874 0.0
H2174 H 0.82491 0.10444 0.83586 0.0
H2175 H 0.78376 0.06894 0.77187 0.0
H2176 H 0.81739 0.1255 0.79715 0.0
H2177 H 0.78273 0.05348 0.81352 0.0
H2178 H 0.79793 0.08866 0.78012 0.0
H2179 H 0.81145 0.08473 0.82705 0.0
C2180 C 0.8204 0.10501 0.82552 0.0
C2181 C 0.82224 0.11689 0.81736 0.0
C2182 C 0.79459 0.08095 0.78745 0.0
C2183 C 0.80688 0.09395 0.80703 0.0
C2184 C 0.78655 0.06964 0.78273 0.0
C2185 C 0.78198 0.05949 0.792 0.0
C2186 C 0.79829 0.08208 0.80154 0.0
C2187 C 0.78584 0.06108 0.80601 0.0
C2188 C 0.81274 0.09366 0.82046 0.0
C2189 C 0.81641 0.11664 0.80385 0.0
N2190 N 0.79378 0.07208 0.81031 0.0
N2191 N 0.809 0.10542 0.79915 0.0
H2192 H 0.92114 0.82988 0.80143 0.0
H2193 H 0.97198 0.7661 0.81081 0.0
H2194 H 0.91847 0.79974 0.83407 0.0
H2195 H 0.97562 0.79637 0.77841 0.0
H2196 H 0.95207 0.77808 0.81905 0.0
H2197 H 0.94057 0.81752 0.79237 0.0
C2198 C 0.92455 0.82064 0.80667 0.0
C2199 C 0.91811 0.81595 0.81863 0.0
C2200 C 0.95721 0.78212 0.81013 0.0
C2201 C 0.94053 0.80173 0.80829 0.0
C2202 C 0.96867 0.77529 0.80543 0.0
C2203 C 0.97565 0.78019 0.79388 0.0
C2204 C 0.95258 0.79404 0.8033 0.0
C2205 C 0.97058 0.79207 0.78725 0.0
C2206 C 0.93573 0.81361 0.80151 0.0
C2207 C 0.92319 0.80395 0.82499 0.0
N2208 N 0.95943 0.79858 0.79207 0.0
N2209 N 0.93403 0.79731 0.81977 0.0
H2210 H 0.828 0.94704 0.19702 0.0
H2211 H 0.76958 0.98091 0.24181 0.0
H2212 H 0.79811 0.9226 0.21887 0.0
H2213 H 0.8065 1.00211 0.22912 0.0
H2214 H 0.77688 0.96018 0.22974 0.0
H2215 H 0.81743 0.96781 0.20516 0.0
C2216 C 0.81923 0.94597 0.20355 0.0
C2217 C 0.81417 0.93287 0.2074 0.0
C2218 C 0.78323 0.96947 0.22937 0.0
C2219 C 0.80171 0.95696 0.21664 0.0
C2220 C 0.77896 0.98135 0.23609 0.0
C2221 C 0.78736 0.99332 0.23631 0.0
C2222 C 0.79592 0.96963 0.22273 0.0
C2223 C 0.79965 0.99317 0.22911 0.0
C2224 C 0.81312 0.95791 0.20814 0.0
C2225 C 0.80242 0.93237 0.21555 0.0
N2226 N 0.80354 0.98157 0.22268 0.0
N2227 N 0.79667 0.94419 0.21996 0.0
H2228 H 0.09661 0.81916 0.20508 0.0
H2229 H 0.0492 0.75686 0.23356 0.0
H2230 H 0.10684 0.77662 0.19992 0.0
H2231 H 0.04265 0.79987 0.24064 0.0
H2232 H 0.06903 0.76334 0.2194 0.0
H2233 H 0.07584 0.81181 0.21669 0.0
C2234 C 0.09459 0.80826 0.20646 0.0
C2235 C 0.1037 0.79856 0.20154 0.0
C2236 C 0.06314 0.77133 0.22396 0.0
C2237 C 0.07949 0.78995 0.2148 0.0
C2238 C 0.05174 0.76763 0.23193 0.0
C2239 C 0.04424 0.77782 0.23834 0.0
C2240 C 0.06696 0.78532 0.22233 0.0
C2241 C 0.04814 0.79162 0.236 0.0
C2242 C 0.08259 0.80404 0.21302 0.0
C2243 C 0.10015 0.78453 0.2034 0.0
N2244 N 0.05917 0.79492 0.2283 0.0
N2245 N 0.0884 0.78066 0.2099 0.0
H2246 H 0.93173 0.20392 0.21204 0.0
H2247 H 0.98506 0.26207 0.24146 0.0
H2248 H 0.92685 0.24708 0.20309 0.0
H2249 H 0.98549 0.21926 0.25326 0.0
H2250 H 0.96502 0.25698 0.22578 0.0
H2251 H 0.95254 0.20954 0.22584 0.0
C2252 C 0.93495 0.21461 0.21303 0.0
C2253 C 0.92735 0.22502 0.20642 0.0
C2254 C 0.96959 0.24872 0.23177 0.0
C2255 C 0.95153 0.23158 0.22218 0.0
C2256 C 0.98106 0.25161 0.24065 0.0
C2257 C 0.98695 0.2411 0.24875 0.0
C2258 C 0.96407 0.23521 0.23093 0.0
C2259 C 0.98127 0.22774 0.24733 0.0
C2260 C 0.94694 0.21782 0.22087 0.0
C2261 C 0.93237 0.23866 0.20788 0.0
N2262 N 0.97021 0.22521 0.23868 0.0
N2263 N 0.94409 0.24155 0.21562 0.0
H2264 H 0.21234 0.70988 0.5966 0.0
H2265 H 0.28157 0.74851 0.57241 0.0
H2266 H 0.24767 0.71866 0.62367 0.0
H2267 H 0.24643 0.74008 0.545 0.0
H2268 H 0.26972 0.73652 0.5909 0.0
H2269 H 0.22486 0.71997 0.57742 0.0
C2270 C 0.22274 0.71386 0.59856 0.0
C2271 C 0.22887 0.71339 0.61191 0.0
C2272 C 0.26461 0.73719 0.58082 0.0
C2273 C 0.24333 0.72511 0.58982 0.0
C2274 C 0.27143 0.74399 0.57019 0.0
C2275 C 0.26505 0.74536 0.55703 0.0
C2276 C 0.25122 0.73168 0.57841 0.0
C2277 C 0.25183 0.73928 0.55491 0.0
C2278 C 0.22988 0.71968 0.58756 0.0
C2279 C 0.24235 0.71894 0.61369 0.0
N2280 N 0.24535 0.73281 0.56547 0.0
N2281 N 0.24908 0.72452 0.60283 0.0
H2282 H 0.82624 0.7128 0.5759 0.0
H2283 H 0.78638 0.77995 0.54982 0.0
H2284 H 0.81567 0.74583 0.6027 0.0
H2285 H 0.7959 0.74636 0.52326 0.0
H2286 H 0.79917 0.76877 0.56875 0.0
H2287 H 0.81704 0.72586 0.5562 0.0
C2288 C 0.82199 0.7228 0.57768 0.0
C2289 C 0.82165 0.72812 0.59109 0.0
C2290 C 0.7986 0.7639 0.55875 0.0
C2291 C 0.81115 0.74327 0.56839 0.0
C2292 C 0.79133 0.77033 0.54788 0.0
C2293 C 0.78995 0.76409 0.53487 0.0
C2294 C 0.80455 0.75108 0.55669 0.0
C2295 C 0.79663 0.75158 0.53307 0.0
C2296 C 0.8168 0.7303 0.56637 0.0
C2297 C 0.81627 0.7413 0.59261 0.0
N2298 N 0.8035 0.74546 0.54386 0.0
N2299 N 0.81116 0.74835 0.58144 0.0
H2300 H 0.80832 0.32838 0.6237 0.0
H2301 H 0.831 0.27801 0.56376 0.0
H2302 H 0.85034 0.31614 0.61898 0.0
H2303 H 0.78902 0.29013 0.56907 0.0
H2304 H 0.83824 0.29155 0.58397 0.0
H2305 H 0.80117 0.31431 0.60387 0.0
C2306 C 0.8161 0.32281 0.61848 0.0
C2307 C 0.83003 0.32363 0.62309 0.0
C2308 C 0.82744 0.29125 0.58072 0.0
C2309 C 0.82177 0.3072 0.6002 0.0
C2310 C 0.82324 0.28342 0.56915 0.0
C2311 C 0.8093 0.28281 0.56453 0.0
C2312 C 0.81767 0.2986 0.58786 0.0
C2313 C 0.79988 0.29032 0.57201 0.0
C2314 C 0.81196 0.31467 0.60715 0.0
C2315 C 0.83949 0.31582 0.61596 0.0
N2316 N 0.80422 0.29784 0.58323 0.0
N2317 N 0.83521 0.30802 0.6049 0.0
H2318 H 0.21675 0.3145 0.6133 0.0
H2319 H 0.27336 0.3284 0.5561 0.0
H2320 H 0.24701 0.3477 0.61522 0.0
H2321 H 0.24536 0.29328 0.55522 0.0
H2322 H 0.26333 0.33586 0.57741 0.0
H2323 H 0.22648 0.30687 0.59174 0.0
C2324 C 0.22539 0.32023 0.60919 0.0
C2325 C 0.23108 0.33174 0.61621 0.0
C2326 C 0.25937 0.32651 0.57258 0.0
C2327 C 0.24234 0.32301 0.59146 0.0
C2328 C 0.26507 0.32226 0.56031 0.0
C2329 C 0.26025 0.31016 0.55372 0.0
C2330 C 0.24867 0.31867 0.57839 0.0
C2331 C 0.24957 0.30258 0.55993 0.0
C2332 C 0.231 0.31582 0.5969 0.0
C2333 C 0.24238 0.33864 0.61037 0.0
N2334 N 0.24414 0.30697 0.57184 0.0
N2335 N 0.24759 0.3342 0.5984 0.0
H2336 H 0.1997 0.32666 0.43432 0.0
H2337 H 0.25156 0.27429 0.47251 0.0
H2338 H 0.22741 0.30115 0.41263 0.0
H2339 H 0.22596 0.30236 0.49366 0.0
H2340 H 0.24108 0.282 0.45049 0.0
H2341 H 0.20751 0.31603 0.45598 0.0
C2342 C 0.20731 0.31871 0.43405 0.0
C2343 C 0.21289 0.31488 0.42152 0.0
C2344 C 0.23765 0.28636 0.45996 0.0
C2345 C 0.22208 0.30267 0.44653 0.0
C2346 C 0.24356 0.28188 0.47258 0.0
C2347 C 0.23968 0.28769 0.48503 0.0
C2348 C 0.22775 0.29671 0.45976 0.0
C2349 C 0.22934 0.2976 0.48437 0.0
C2350 C 0.21185 0.31269 0.44649 0.0
C2351 C 0.22292 0.30463 0.422 0.0
N2352 N 0.22383 0.30182 0.47201 0.0
N2353 N 0.2272 0.29894 0.43425 0.0
H2354 H 0.23331 0.72497 0.41182 0.0
H2355 H 0.21285 0.7494 0.48709 0.0
H2356 H 0.19424 0.71528 0.42986 0.0
H2357 H 0.25205 0.75971 0.46956 0.0
H2358 H 0.20602 0.73702 0.46615 0.0
H2359 H 0.24046 0.73766 0.43269 0.0
C2360 C 0.2262 0.7255 0.42012 0.0
C2361 C 0.21311 0.71894 0.41896 0.0
C2362 C 0.21612 0.742 0.46685 0.0
C2363 C 0.22134 0.7335 0.44308 0.0
C2364 C 0.22004 0.74921 0.47884 0.0
C2365 C 0.23311 0.75576 0.48025 0.0
C2366 C 0.22527 0.74123 0.45601 0.0
C2367 C 0.24194 0.75478 0.46912 0.0
C2368 C 0.23034 0.73272 0.43209 0.0
C2369 C 0.2045 0.71992 0.43025 0.0
N2370 N 0.23787 0.74769 0.45752 0.0
N2371 N 0.20874 0.72704 0.44174 0.0
H2372 H 0.81583 0.68997 0.41375 0.0
H2373 H 0.77441 0.7494 0.45038 0.0
H2374 H 0.81025 0.73036 0.3961 0.0
H2375 H 0.78142 0.70938 0.4684 0.0
H2376 H 0.78693 0.74252 0.43022 0.0
H2377 H 0.8025 0.69668 0.4334 0.0
C2378 C 0.81173 0.70022 0.41391 0.0
C2379 C 0.81426 0.70958 0.40315 0.0
C2380 C 0.78569 0.73524 0.43859 0.0
C2381 C 0.799 0.71744 0.42588 0.0
C2382 C 0.77857 0.73919 0.45018 0.0
C2383 C 0.77677 0.73002 0.46127 0.0
C2384 C 0.79112 0.72199 0.43797 0.0
C2385 C 0.78231 0.71683 0.46017 0.0
C2386 C 0.80417 0.70408 0.42522 0.0
C2387 C 0.80879 0.72281 0.40417 0.0
N2388 N 0.78921 0.71326 0.4488 0.0
N2389 N 0.80146 0.72632 0.41528 0.0
H2390 H 0.83596 0.31179 0.43297 0.0
H2391 H 0.77436 0.29702 0.48467 0.0
H2392 H 0.79583 0.32949 0.42645 0.0
H2393 H 0.81645 0.28457 0.49156 0.0
H2394 H 0.78139 0.30929 0.4636 0.0
H2395 H 0.82841 0.30183 0.45452 0.0
C2396 C 0.82558 0.31372 0.43608 0.0
C2397 C 0.8166 0.32163 0.42776 0.0
C2398 C 0.78907 0.30394 0.46982 0.0
C2399 C 0.80769 0.30989 0.45266 0.0
C2400 C 0.78507 0.29701 0.48189 0.0
C2401 C 0.79479 0.28967 0.48991 0.0
C2402 C 0.80287 0.30349 0.46578 0.0
C2403 C 0.80852 0.28995 0.48571 0.0
C2404 C 0.82122 0.30792 0.44843 0.0
C2405 C 0.80312 0.32337 0.43236 0.0
N2406 N 0.81208 0.29662 0.474 0.0
N2407 N 0.79908 0.31755 0.44446 0.0
H2408 H 0.11921 0.73827 0.70475 0.0
H2409 H 0.05652 0.71348 0.75134 0.0
H2410 H 0.11393 0.69659 0.71947 0.0
H2411 H 0.06429 0.75578 0.73973 0.0
H2412 H 0.07711 0.707 0.73941 0.0
H2413 H 0.0989 0.74469 0.71711 0.0
C2414 C 0.11389 0.73045 0.71065 0.0
C2415 C 0.11847 0.71683 0.71103 0.0
C2416 C 0.07431 0.7177 0.73948 0.0
C2417 C 0.09482 0.72417 0.72515 0.0
C2418 C 0.06253 0.72145 0.74637 0.0
C2419 C 0.05849 0.73525 0.74662 0.0
C2420 C 0.08222 0.72778 0.7327 0.0
C2421 C 0.06675 0.745 0.73974 0.0
C2422 C 0.10218 0.73414 0.71766 0.0
C2423 C 0.1108 0.70717 0.71867 0.0
N2424 N 0.07815 0.74108 0.7331 0.0
N2425 N 0.09942 0.71102 0.72539 0.0
H2426 H 0.80808 0.62411 0.67829 0.0
H2427 H 0.80248 0.56725 0.7383 0.0
H2428 H 0.83562 0.62273 0.71416 0.0
H2429 H 0.77533 0.56773 0.7021 0.0
H2430 H 0.8151 0.5871 0.72922 0.0
H2431 H 0.79635 0.60318 0.68642 0.0
C2432 C 0.81174 0.6194 0.68782 0.0
C2433 C 0.82287 0.62535 0.69555 0.0
C2434 C 0.80641 0.58284 0.72322 0.0
C2435 C 0.80932 0.60131 0.70503 0.0
C2436 C 0.79922 0.57138 0.72838 0.0
C2437 C 0.78773 0.56568 0.72101 0.0
C2438 C 0.80216 0.58876 0.71057 0.0
C2439 C 0.78397 0.57179 0.70827 0.0
C2440 C 0.80497 0.60746 0.69251 0.0
C2441 C 0.82696 0.61876 0.70794 0.0
N2442 N 0.79112 0.58296 0.7035 0.0
N2443 N 0.82021 0.60717 0.71226 0.0
H2444 H 0.94025 0.31738 0.71 0.0
H2445 H 0.98842 0.32197 0.77897 0.0
H2446 H 0.93166 0.34361 0.74412 0.0
H2447 H 0.99573 0.29477 0.74524 0.0
H2448 H 0.96787 0.33021 0.76642 0.0
H2449 H 0.96068 0.30926 0.72272 0.0
C2450 C 0.94268 0.32154 0.72013 0.0
C2451 C 0.93415 0.33132 0.72588 0.0
C2452 C 0.97396 0.32243 0.76177 0.0
C2453 C 0.95768 0.32183 0.74072 0.0
C2454 C 0.98579 0.31774 0.76892 0.0
C2455 C 0.99397 0.3076 0.76323 0.0
C2456 C 0.97019 0.31702 0.74875 0.0
C2457 C 0.98977 0.30245 0.75019 0.0
C2458 C 0.95435 0.3168 0.72745 0.0
C2459 C 0.93779 0.33601 0.73924 0.0
N2460 N 0.97826 0.30722 0.74343 0.0
N2461 N 0.94926 0.33128 0.74615 0.0
H2462 H 0.2473 0.41389 0.71985 0.0
H2463 H 0.24695 0.49359 0.74085 0.0
H2464 H 0.21129 0.43905 0.71613 0.0
H2465 H 0.28338 0.46898 0.74392 0.0
H2466 H 0.23417 0.47409 0.73048 0.0
H2467 H 0.26099 0.43412 0.72736 0.0
C2468 C 0.24226 0.42366 0.72046 0.0
C2469 C 0.22802 0.42463 0.71738 0.0
C2470 C 0.24499 0.47296 0.73331 0.0
C2471 C 0.24373 0.44797 0.72619 0.0
C2472 C 0.25234 0.48415 0.73921 0.0
C2473 C 0.26632 0.48301 0.74333 0.0
C2474 C 0.25157 0.46041 0.73153 0.0
C2475 C 0.27265 0.47042 0.74091 0.0
C2476 C 0.2501 0.43523 0.72485 0.0
C2477 C 0.22214 0.43764 0.7186 0.0
N2478 N 0.26523 0.45963 0.73528 0.0
N2479 N 0.22997 0.44871 0.72293 0.0
H2480 H 0.11756 0.30353 0.30412 0.0
H2481 H 0.03481 0.30281 0.30256 0.0
H2482 H 0.09342 0.3274 0.33126 0.0
H2483 H 0.05827 0.27749 0.27612 0.0
H2484 H 0.05626 0.31361 0.31141 0.0
H2485 H 0.0962 0.29554 0.29217 0.0
C2486 C 0.1078 0.30723 0.30749 0.0
C2487 C 0.10735 0.31611 0.31882 0.0
C2488 C 0.05675 0.30579 0.30357 0.0
C2489 C 0.08277 0.30687 0.3052 0.0
C2490 C 0.04446 0.29963 0.29846 0.0
C2491 C 0.04467 0.28914 0.2886 0.0
C2492 C 0.06946 0.30143 0.29889 0.0
C2493 C 0.05756 0.28553 0.2837 0.0
C2494 C 0.09558 0.30259 0.30069 0.0
C2495 C 0.09433 0.32039 0.32276 0.0
N2496 N 0.06942 0.29156 0.28898 0.0
N2497 N 0.08262 0.3157 0.31602 0.0
H2498 H 0.24917 0.6218 0.31187 0.0
H2499 H 0.2435 0.54156 0.29304 0.0
H2500 H 0.21518 0.59569 0.32427 0.0
H2501 H 0.28032 0.56665 0.28851 0.0
H2502 H 0.23246 0.56113 0.30367 0.0
H2503 H 0.26001 0.60184 0.3023 0.0
C2504 C 0.24396 0.61189 0.31271 0.0
C2505 C 0.23119 0.6106 0.31912 0.0
C2506 C 0.24299 0.56232 0.30042 0.0
C2507 C 0.24366 0.58741 0.30776 0.0
C2508 C 0.24933 0.55111 0.29437 0.0
C2509 C 0.26294 0.55234 0.28986 0.0
C2510 C 0.2502 0.57498 0.30187 0.0
C2511 C 0.26987 0.56509 0.29184 0.0
C2512 C 0.25019 0.60044 0.30713 0.0
C2513 C 0.22492 0.59737 0.31938 0.0
N2514 N 0.26343 0.57584 0.29758 0.0
N2515 N 0.23119 0.58636 0.31382 0.0
H2516 H 0.91718 0.69927 0.28135 0.0
H2517 H 0.98599 0.74193 0.30419 0.0
H2518 H 0.92825 0.71136 0.32305 0.0
H2519 H 0.97604 0.73241 0.26164 0.0
H2520 H 0.96545 0.72928 0.31093 0.0
H2521 H 0.93866 0.7102 0.27369 0.0
C2522 C 0.92404 0.70425 0.28893 0.0
C2523 C 0.92074 0.70432 0.30295 0.0
C2524 C 0.9677 0.72983 0.3001 0.0
C2525 C 0.9456 0.71674 0.29415 0.0
C2526 C 0.97952 0.73707 0.29621 0.0
C2527 C 0.98282 0.73834 0.28228 0.0
C2528 C 0.95881 0.72375 0.29005 0.0
C2529 C 0.97398 0.73167 0.27249 0.0
C2530 C 0.93639 0.71042 0.28451 0.0
C2531 C 0.93028 0.71078 0.3122 0.0
N2532 N 0.96233 0.72476 0.27655 0.0
N2533 N 0.94216 0.71669 0.30765 0.0
H2534 H 0.85103 0.41994 0.30447 0.0
H2535 H 0.78511 0.4631 0.27919 0.0
H2536 H 0.80937 0.40817 0.31433 0.0
H2537 H 0.82703 0.47366 0.26914 0.0
H2538 H 0.79359 0.44345 0.29263 0.0
H2539 H 0.84227 0.43998 0.29209 0.0
C2540 C 0.84001 0.42151 0.304 0.0
C2541 C 0.83095 0.41217 0.31039 0.0
C2542 C 0.80093 0.45008 0.28749 0.0
C2543 C 0.82076 0.43542 0.29619 0.0
C2544 C 0.79609 0.46138 0.27984 0.0
C2545 C 0.80532 0.47016 0.27292 0.0
C2546 C 0.81513 0.44747 0.28832 0.0
C2547 C 0.81945 0.46718 0.27408 0.0
C2548 C 0.835 0.43305 0.29695 0.0
C2549 C 0.81679 0.41506 0.30965 0.0
N2550 N 0.82387 0.45615 0.28159 0.0
N2551 N 0.81214 0.42636 0.30264 0.0
H2552 H 0.19125 0.61078 0.73212 0.0
H2553 H 0.2539 0.55891 0.74302 0.0
H2554 H 0.22894 0.61444 0.71 0.0
H2555 H 0.21806 0.55839 0.76803 0.0
H2556 H 0.24446 0.57831 0.72993 0.0
H2557 H 0.20043 0.59084 0.74443 0.0
C2558 C 0.20143 0.60734 0.72975 0.0
C2559 C 0.20927 0.61434 0.7199 0.0
C2560 C 0.23864 0.57394 0.73826 0.0
C2561 C 0.21998 0.59142 0.73419 0.0
C2562 C 0.24398 0.56275 0.74569 0.0
C2563 C 0.23677 0.55691 0.75668 0.0
C2564 C 0.22593 0.57935 0.74174 0.0
C2565 C 0.22406 0.56259 0.75976 0.0
C2566 C 0.20671 0.59597 0.73688 0.0
C2567 C 0.22253 0.60948 0.71755 0.0
N2568 N 0.21906 0.57344 0.75234 0.0
N2569 N 0.22743 0.59833 0.72459 0.0
H2570 H 0.22142 0.42091 0.32537 0.0
H2571 H 0.21333 0.47268 0.26094 0.0
H2572 H 0.19173 0.41511 0.29161 0.0
H2573 H 0.2465 0.47625 0.29166 0.0
H2574 H 0.20445 0.45247 0.273 0.0
H2575 H 0.22983 0.44204 0.31421 0.0
C2576 C 0.21662 0.42408 0.31565 0.0
C2577 C 0.20589 0.41609 0.30941 0.0
C2578 C 0.21365 0.45769 0.27714 0.0
C2579 C 0.2155 0.44034 0.29654 0.0
C2580 C 0.21879 0.46926 0.2702 0.0
C2581 C 0.23079 0.47628 0.27516 0.0
C2582 C 0.22049 0.45298 0.28921 0.0
C2583 C 0.23718 0.47136 0.28743 0.0
C2584 C 0.22148 0.43613 0.30925 0.0
C2585 C 0.20018 0.42074 0.29674 0.0
N2586 N 0.23199 0.46004 0.29398 0.0
N2587 N 0.20503 0.4325 0.29077 0.0
H2588 H 0.12076 0.70614 0.29304 0.0
H2589 H 0.05712 0.74967 0.3184 0.0
H2590 H 0.1142 0.7149 0.33577 0.0
H2591 H 0.06374 0.74074 0.27572 0.0
H2592 H 0.07801 0.73729 0.3249 0.0
H2593 H 0.10004 0.71883 0.28658 0.0
C2594 C 0.11496 0.71065 0.30111 0.0
C2595 C 0.11933 0.70929 0.31503 0.0
C2596 C 0.0749 0.73804 0.31411 0.0
C2597 C 0.09544 0.72413 0.30758 0.0
C2598 C 0.06294 0.7452 0.31034 0.0
C2599 C 0.0585 0.74637 0.29642 0.0
C2600 C 0.08262 0.73192 0.30393 0.0
C2601 C 0.06654 0.74007 0.28657 0.0
C2602 C 0.10312 0.718 0.29738 0.0
C2603 C 0.11142 0.71571 0.32491 0.0
N2604 N 0.07814 0.73317 0.2905 0.0
N2605 N 0.0999 0.72277 0.32101 0.0
H2606 H 0.78985 0.6114 0.30797 0.0
H2607 H 0.81013 0.53556 0.28614 0.0
H2608 H 0.82997 0.59417 0.31603 0.0
H2609 H 0.76854 0.55001 0.28171 0.0
H2610 H 0.81703 0.55667 0.29814 0.0
H2611 H 0.7815 0.58913 0.29906 0.0
C2612 C 0.79692 0.60296 0.30797 0.0
C2613 C 0.81072 0.60481 0.31279 0.0
C2614 C 0.80634 0.55523 0.29474 0.0
C2615 C 0.80113 0.57916 0.30242 0.0
C2616 C 0.80236 0.54311 0.28794 0.0
C2617 C 0.78871 0.54097 0.28296 0.0
C2618 C 0.79667 0.56554 0.29645 0.0
C2619 C 0.77913 0.55116 0.28553 0.0
C2620 C 0.79211 0.59022 0.30282 0.0
C2621 C 0.81935 0.59343 0.31225 0.0
N2622 N 0.78332 0.56309 0.29195 0.0
N2623 N 0.81443 0.58118 0.30717 0.0
H2624 H 0.91449 0.30619 0.31311 0.0
H2625 H 0.98475 0.26698 0.33175 0.0
H2626 H 0.92919 0.29723 0.35461 0.0
H2627 H 0.96911 0.27296 0.29 0.0
H2628 H 0.9646 0.2783 0.34011 0.0
H2629 H 0.93441 0.29443 0.30435 0.0
C2630 C 0.92184 0.30172 0.32041 0.0
C2631 C 0.92007 0.30281 0.33468 0.0
C2632 C 0.96555 0.27713 0.32911 0.0
C2633 C 0.9431 0.28937 0.32463 0.0
C2634 C 0.97709 0.27055 0.32428 0.0
C2635 C 0.9788 0.26888 0.31007 0.0
C2636 C 0.9555 0.2822 0.31973 0.0
C2637 C 0.96845 0.27406 0.30102 0.0
C2638 C 0.93328 0.29505 0.31538 0.0
C2639 C 0.93014 0.29693 0.34355 0.0
N2640 N 0.9573 0.28046 0.30599 0.0
N2641 N 0.94115 0.29051 0.3384 0.0
H2642 H 0.83703 0.43175 0.74394 0.0
H2643 H 0.79216 0.49592 0.71817 0.0
H2644 H 0.82433 0.43959 0.70162 0.0
H2645 H 0.8034 0.48953 0.76106 0.0
H2646 H 0.80499 0.4758 0.71228 0.0
H2647 H 0.82561 0.45279 0.75067 0.0
C2648 C 0.8318 0.4378 0.73603 0.0
C2649 C 0.83171 0.43373 0.72212 0.0
C2650 C 0.80477 0.47875 0.723 0.0
C2651 C 0.81871 0.4581 0.72985 0.0
C2652 C 0.79742 0.49033 0.72641 0.0
C2653 C 0.7966 0.4945 0.74018 0.0
C2654 C 0.81143 0.47101 0.7334 0.0
C2655 C 0.80377 0.48677 0.75031 0.0
C2656 C 0.82536 0.44991 0.73992 0.0
C2657 C 0.82493 0.44227 0.71242 0.0
N2658 N 0.8108 0.47535 0.74673 0.0
N2659 N 0.81875 0.45393 0.71646 0.0
H2660 H 0.12678 0.2944 0.7105 0.0
H2661 H 0.06381 0.31319 0.75775 0.0
H2662 H 0.11818 0.3352 0.72452 0.0
H2663 H 0.07096 0.27152 0.74554 0.0
H2664 H 0.08299 0.32112 0.7442 0.0
H2665 H 0.1063 0.28562 0.72214 0.0
C2666 C 0.12067 0.30155 0.71604 0.0
C2667 C 0.12438 0.31565 0.71646 0.0
C2668 C 0.0804 0.31023 0.74434 0.0
C2669 C 0.10065 0.30556 0.72971 0.0
C2670 C 0.06937 0.30566 0.7521 0.0
C2671 C 0.06572 0.29162 0.75288 0.0
C2672 C 0.08815 0.30075 0.73725 0.0
C2673 C 0.07333 0.28244 0.7452 0.0
C2674 C 0.10889 0.29649 0.72261 0.0
C2675 C 0.11578 0.32432 0.72365 0.0
N2676 N 0.08426 0.28715 0.7378 0.0
N2677 N 0.10444 0.31915 0.72995 0.0
H2678 H 0.92855 0.74829 0.68257 0.0
H2679 H 0.98116 0.72865 0.74469 0.0
H2680 H 0.92431 0.71249 0.70871 0.0
H2681 H 0.98363 0.7679 0.72385 0.0
H2682 H 0.96134 0.72223 0.73006 0.0
H2683 H 0.94925 0.75537 0.69623 0.0
C2684 C 0.93188 0.74193 0.6912 0.0
C2685 C 0.92455 0.72971 0.69442 0.0
C2686 C 0.96616 0.73226 0.72861 0.0
C2687 C 0.94848 0.73772 0.70998 0.0
C2688 C 0.97757 0.73597 0.73698 0.0
C2689 C 0.98413 0.74892 0.73561 0.0
C2690 C 0.96106 0.74149 0.71862 0.0
C2691 C 0.97893 0.75783 0.7253 0.0
C2692 C 0.94378 0.74596 0.69894 0.0
C2693 C 0.92963 0.72184 0.7056 0.0
N2694 N 0.96767 0.75396 0.71722 0.0
N2695 N 0.9412 0.72597 0.71291 0.0
H2696 H 0.70579 0.20815 0.59261 0.0
H2697 H 0.75495 0.26784 0.56231 0.0
H2698 H 0.73006 0.23595 0.61871 0.0
H2699 H 0.74016 0.23235 0.53949 0.0
H2700 H 0.74193 0.25959 0.58223 0.0
H2701 H 0.71452 0.22004 0.57243 0.0
C2702 C 0.71296 0.21675 0.59416 0.0
C2703 C 0.71733 0.22081 0.60753 0.0
C2704 C 0.7413 0.25378 0.57275 0.0
C2705 C 0.72725 0.23476 0.58418 0.0
C2706 C 0.74856 0.2586 0.56133 0.0
C2707 C 0.74846 0.25086 0.54917 0.0
C2708 C 0.73381 0.24122 0.57192 0.0
C2709 C 0.74039 0.2387 0.54861 0.0
C2710 C 0.71789 0.22361 0.58257 0.0
C2711 C 0.72632 0.23238 0.6087 0.0
N2712 N 0.73345 0.23426 0.55978 0.0
N2713 N 0.73105 0.23887 0.59721 0.0
H2714 H 0.33587 0.22925 0.59967 0.0
H2715 H 0.27135 0.24473 0.54795 0.0
H2716 H 0.29509 0.21217 0.60594 0.0
H2717 H 0.31302 0.25991 0.54293 0.0
H2718 H 0.27947 0.23176 0.56851 0.0
H2719 H 0.32737 0.23972 0.57829 0.0
C2720 C 0.32514 0.22758 0.59653 0.0
C2721 C 0.31624 0.21974 0.60473 0.0
C2722 C 0.28681 0.23787 0.56281 0.0
C2723 C 0.30627 0.23201 0.58008 0.0
C2724 C 0.28219 0.2452 0.55103 0.0
C2725 C 0.29148 0.2535 0.54372 0.0
C2726 C 0.30081 0.23885 0.56722 0.0
C2727 C 0.30541 0.25379 0.54827 0.0
C2728 C 0.32024 0.23366 0.58429 0.0
C2729 C 0.30233 0.21826 0.60011 0.0
N2730 N 0.30959 0.24667 0.55967 0.0
N2731 N 0.29778 0.22433 0.58814 0.0
H2732 H 0.29222 0.8508 0.62516 0.0
H2733 H 0.29801 0.79896 0.56173 0.0
H2734 H 0.32823 0.82664 0.61927 0.0
H2735 H 0.26109 0.82063 0.5709 0.0
H2736 H 0.30952 0.80923 0.5821 0.0
H2737 H 0.28112 0.84021 0.60482 0.0
C2738 C 0.29787 0.84332 0.61956 0.0
C2739 C 0.31129 0.83975 0.62399 0.0
C2740 C 0.2989 0.81172 0.57961 0.0
C2741 C 0.29843 0.82735 0.60047 0.0
C2742 C 0.29223 0.80582 0.56791 0.0
C2743 C 0.27839 0.80881 0.56432 0.0
C2744 C 0.29177 0.82076 0.58789 0.0
C2745 C 0.27171 0.81796 0.57294 0.0
C2746 C 0.29145 0.83719 0.60793 0.0
C2747 C 0.31787 0.82971 0.61636 0.0
N2748 N 0.27843 0.82355 0.5842 0.0
N2749 N 0.31142 0.82393 0.60498 0.0
H2750 H 0.70198 0.79348 0.61028 0.0
H2751 H 0.73184 0.79595 0.53415 0.0
H2752 H 0.71101 0.83116 0.58836 0.0
H2753 H 0.72242 0.7583 0.55596 0.0
H2754 H 0.72391 0.80898 0.55368 0.0
H2755 H 0.70878 0.78046 0.59027 0.0
C2756 C 0.70528 0.79906 0.60125 0.0
C2757 C 0.70593 0.81351 0.60115 0.0
C2758 C 0.72354 0.79786 0.55417 0.0
C2759 C 0.71395 0.79855 0.57808 0.0
C2760 C 0.72814 0.79038 0.543 0.0
C2761 C 0.72787 0.77591 0.54328 0.0
C2762 C 0.71862 0.7909 0.56581 0.0
C2763 C 0.72273 0.76938 0.55508 0.0
C2764 C 0.70926 0.79158 0.58982 0.0
C2765 C 0.71052 0.82006 0.58911 0.0
N2766 N 0.71838 0.77689 0.56583 0.0
N2767 N 0.71435 0.81256 0.57814 0.0
H2768 H 0.73683 0.82666 0.40801 0.0
H2769 H 0.71834 0.78087 0.474 0.0
H2770 H 0.6957 0.8127 0.41756 0.0
H2771 H 0.76006 0.79392 0.46582 0.0
H2772 H 0.7101 0.79369 0.45392 0.0
H2773 H 0.74568 0.81567 0.42921 0.0
C2774 C 0.72964 0.82124 0.41449 0.0
C2775 C 0.71544 0.82062 0.41086 0.0
C2776 C 0.72106 0.79387 0.45648 0.0
C2777 C 0.72557 0.80813 0.43536 0.0
C2778 C 0.72581 0.78653 0.46802 0.0
C2779 C 0.73996 0.78623 0.47162 0.0
C2780 C 0.73048 0.80099 0.44827 0.0
C2781 C 0.74907 0.79389 0.46347 0.0
C2782 C 0.73472 0.81505 0.42667 0.0
C2783 C 0.70667 0.81365 0.4199 0.0
N2784 N 0.74419 0.80087 0.4521 0.0
N2785 N 0.71187 0.80769 0.43164 0.0
H2786 H 0.7265 0.18988 0.42644 0.0
H2787 H 0.75977 0.25308 0.47006 0.0
H2788 H 0.72882 0.23162 0.41122 0.0
H2789 H 0.76309 0.21081 0.48316 0.0
H2790 H 0.74773 0.24536 0.44884 0.0
H2791 H 0.7395 0.19718 0.44734 0.0
C2792 C 0.72981 0.20055 0.42737 0.0
C2793 C 0.72638 0.21011 0.41693 0.0
C2794 C 0.75111 0.23775 0.45634 0.0
C2795 C 0.74118 0.21862 0.44114 0.0
C2796 C 0.75793 0.24217 0.46855 0.0
C2797 C 0.76248 0.23262 0.47855 0.0
C2798 C 0.74866 0.22363 0.45402 0.0
C2799 C 0.75992 0.21858 0.47577 0.0
C2800 C 0.73718 0.20473 0.43941 0.0
C2801 C 0.73088 0.22385 0.419 0.0
N2802 N 0.75316 0.21454 0.46385 0.0
N2803 N 0.73794 0.22766 0.4308 0.0
H2804 H 0.30921 0.21694 0.4126 0.0
H2805 H 0.32754 0.26851 0.47528 0.0
H2806 H 0.35017 0.23309 0.42248 0.0
H2807 H 0.28631 0.25285 0.46578 0.0
H2808 H 0.33591 0.25536 0.45612 0.0
H2809 H 0.30064 0.22943 0.43227 0.0
C2810 C 0.31644 0.22301 0.41893 0.0
C2811 C 0.33046 0.22397 0.41574 0.0
C2812 C 0.32502 0.25478 0.45822 0.0
C2813 C 0.32063 0.23846 0.4383 0.0
C2814 C 0.3202 0.26238 0.46916 0.0
C2815 C 0.30614 0.2619 0.47225 0.0
C2816 C 0.31578 0.24656 0.45017 0.0
C2817 C 0.29724 0.2535 0.46397 0.0
C2818 C 0.3115 0.23023 0.43013 0.0
C2819 C 0.33925 0.23218 0.4243 0.0
N2820 N 0.30219 0.24622 0.45334 0.0
N2821 N 0.3342 0.23908 0.43511 0.0
H2822 H 0.31723 0.79099 0.42095 0.0
H2823 H 0.29687 0.79601 0.50018 0.0
H2824 H 0.32098 0.82825 0.44477 0.0
H2825 H 0.29472 0.75815 0.47725 0.0
H2826 H 0.30684 0.80762 0.48035 0.0
H2827 H 0.31013 0.77853 0.44161 0.0
C2828 C 0.31671 0.79656 0.43052 0.0
C2829 C 0.31967 0.81079 0.43097 0.0
C2830 C 0.30431 0.79674 0.47967 0.0
C2831 C 0.31133 0.7965 0.4548 0.0
C2832 C 0.29864 0.79006 0.49105 0.0
C2833 C 0.2949 0.77602 0.49048 0.0
C2834 C 0.30623 0.78941 0.46748 0.0
C2835 C 0.29745 0.76896 0.47826 0.0
C2836 C 0.31256 0.78943 0.44233 0.0
C2837 C 0.31858 0.81738 0.44374 0.0
N2838 N 0.30284 0.77573 0.46726 0.0
N2839 N 0.31447 0.81023 0.45505 0.0
H2840 H 0.62505 0.23585 0.71257 0.0
H2841 H 0.56007 0.20972 0.75537 0.0
H2842 H 0.61569 0.19301 0.72042 0.0
H2843 H 0.56978 0.25252 0.74755 0.0
H2844 H 0.58049 0.20344 0.74308 0.0
H2845 H 0.60509 0.24205 0.7256 0.0
C2846 C 0.61879 0.2277 0.71697 0.0
C2847 C 0.62212 0.21383 0.71522 0.0
C2848 C 0.57817 0.21421 0.74406 0.0
C2849 C 0.59909 0.22097 0.73043 0.0
C2850 C 0.56648 0.21785 0.75117 0.0
C2851 C 0.56304 0.23174 0.7526 0.0
C2852 C 0.58661 0.22448 0.73826 0.0
C2853 C 0.5718 0.24169 0.74666 0.0
C2854 C 0.60739 0.23129 0.72451 0.0
C2855 C 0.61368 0.20383 0.72152 0.0
N2856 N 0.58311 0.23787 0.73979 0.0
N2857 N 0.60258 0.20758 0.72876 0.0
H2858 H 0.3223 0.13052 0.7337 0.0
H2859 H 0.28207 0.06039 0.71268 0.0
H2860 H 0.31486 0.11745 0.69165 0.0
H2861 H 0.2862 0.07511 0.7545 0.0
H2862 H 0.2942 0.08105 0.7049 0.0
H2863 H 0.30933 0.11029 0.74152 0.0
C2864 C 0.31786 0.12349 0.72607 0.0
C2865 C 0.31973 0.12582 0.71193 0.0
C2866 C 0.29244 0.07978 0.71579 0.0
C2867 C 0.30495 0.10235 0.72094 0.0
C2868 C 0.2854 0.06795 0.72027 0.0
C2869 C 0.283 0.06584 0.73434 0.0
C2870 C 0.29721 0.0897 0.72538 0.0
C2871 C 0.28788 0.07609 0.74359 0.0
C2872 C 0.31051 0.11186 0.73058 0.0
C2873 C 0.31391 0.11608 0.70264 0.0
N2874 N 0.29474 0.0875 0.73896 0.0
N2875 N 0.30683 0.10483 0.70729 0.0
H2876 H 0.4183 0.80861 0.7198 0.0
H2877 H 0.48831 0.82594 0.76369 0.0
H2878 H 0.43064 0.84964 0.73249 0.0
H2879 H 0.47516 0.78484 0.75199 0.0
H2880 H 0.46742 0.83479 0.75232 0.0
H2881 H 0.43905 0.79982 0.73146 0.0
C2882 C 0.42528 0.81581 0.72512 0.0
C2883 C 0.42254 0.82995 0.72514 0.0
C2884 C 0.4691 0.82383 0.75224 0.0
C2885 C 0.44666 0.81984 0.73847 0.0
C2886 C 0.48105 0.81872 0.75882 0.0
C2887 C 0.48366 0.80455 0.75889 0.0
C2888 C 0.45955 0.81476 0.74562 0.0
C2889 C 0.47381 0.79583 0.75214 0.0
C2890 C 0.43723 0.81075 0.73172 0.0
C2891 C 0.43228 0.8387 0.73201 0.0
N2892 N 0.46226 0.80106 0.74583 0.0
N2893 N 0.44383 0.83352 0.73838 0.0
H2894 H 0.68163 0.92505 0.71384 0.0
H2895 H 0.74881 0.96969 0.73818 0.0
H2896 H 0.7232 0.91253 0.70702 0.0
H2897 H 0.70709 0.98106 0.74598 0.0
H2898 H 0.73977 0.94909 0.7263 0.0
H2899 H 0.69086 0.94584 0.72507 0.0
C2900 C 0.69271 0.92669 0.71457 0.0
C2901 C 0.7016 0.91692 0.70934 0.0
C2902 C 0.73259 0.9561 0.73061 0.0
C2903 C 0.71233 0.94087 0.72251 0.0
C2904 C 0.73775 0.96795 0.73736 0.0
C2905 C 0.72875 0.97725 0.74317 0.0
C2906 C 0.71828 0.95345 0.72957 0.0
C2907 C 0.7145 0.9742 0.74187 0.0
C2908 C 0.69799 0.93857 0.72111 0.0
C2909 C 0.7159 0.91963 0.71096 0.0
N2910 N 0.70975 0.96263 0.73523 0.0
N2911 N 0.72079 0.9313 0.71735 0.0
H2912 H 0.6138 0.81291 0.28787 0.0
H2913 H 0.53551 0.79219 0.30252 0.0
H2914 H 0.59268 0.82517 0.32397 0.0
H2915 H 0.55312 0.78534 0.26316 0.0
H2916 H 0.55609 0.80553 0.30973 0.0
H2917 H 0.59185 0.80362 0.27805 0.0
C2918 C 0.60458 0.81371 0.29373 0.0
C2919 C 0.60521 0.81985 0.30684 0.0
C2920 C 0.55545 0.80134 0.29942 0.0
C2921 C 0.57994 0.80923 0.29557 0.0
C2922 C 0.54362 0.79378 0.29526 0.0
C2923 C 0.54252 0.78776 0.28217 0.0
C2924 C 0.56654 0.80269 0.29056 0.0
C2925 C 0.55345 0.79001 0.27326 0.0
C2926 C 0.59201 0.80848 0.28806 0.0
C2927 C 0.5928 0.82071 0.3138 0.0
N2928 N 0.5651 0.79712 0.27769 0.0
N2929 N 0.58079 0.81539 0.30815 0.0
H2930 H 0.72167 0.12082 0.29043 0.0
H2931 H 0.74482 0.04304 0.30183 0.0
H2932 H 0.71365 0.09671 0.32683 0.0
H2933 H 0.74813 0.06363 0.26267 0.0
H2934 H 0.73224 0.06241 0.3104 0.0
H2935 H 0.73059 0.10027 0.27959 0.0
C2936 C 0.72173 0.11124 0.29616 0.0
C2937 C 0.71686 0.11064 0.30965 0.0
C2938 C 0.73549 0.06271 0.29986 0.0
C2939 C 0.72706 0.08693 0.29717 0.0
C2940 C 0.74263 0.05157 0.29492 0.0
C2941 C 0.74744 0.05162 0.28147 0.0
C2942 C 0.73331 0.0743 0.29142 0.0
C2943 C 0.74443 0.06305 0.27304 0.0
C2944 C 0.72676 0.09947 0.28989 0.0
C2945 C 0.71707 0.09779 0.31639 0.0
N2946 N 0.73772 0.07401 0.27821 0.0
N2947 N 0.72215 0.08658 0.31015 0.0
H2948 H 0.42346 0.21151 0.32646 0.0
H2949 H 0.47383 0.20795 0.26279 0.0
H2950 H 0.41761 0.18322 0.2926 0.0
H2951 H 0.48018 0.23662 0.29626 0.0
H2952 H 0.45322 0.19894 0.27364 0.0
H2953 H 0.44395 0.22115 0.31554 0.0
C2954 C 0.4264 0.20735 0.3167 0.0
C2955 C 0.41873 0.19644 0.31053 0.0
C2956 C 0.4591 0.20721 0.27863 0.0
C2957 C 0.44238 0.20741 0.29799 0.0
C2958 C 0.47099 0.21234 0.27245 0.0
C2959 C 0.47893 0.2231 0.27857 0.0
C2960 C 0.45499 0.2128 0.2911 0.0
C2961 C 0.47442 0.22844 0.29103 0.0
C2962 C 0.43818 0.21283 0.31051 0.0
C2963 C 0.42325 0.19144 0.29794 0.0
N2964 N 0.46281 0.22324 0.29687 0.0
N2965 N 0.43471 0.19693 0.29214 0.0
H2966 H 0.30565 0.91338 0.33993 0.0
H2967 H 0.29333 0.96814 0.2783 0.0
H2968 H 0.32845 0.9126 0.30263 0.0
H2969 H 0.27225 0.9676 0.31665 0.0
H2970 H 0.30683 0.94833 0.28667 0.0
H2971 H 0.29355 0.93346 0.33114 0.0
C2972 C 0.30808 0.91734 0.32984 0.0
C2973 C 0.31813 0.91113 0.32206 0.0
C2974 C 0.29927 0.95263 0.29323 0.0
C2975 C 0.30428 0.93453 0.31186 0.0
C2976 C 0.29161 0.96398 0.28847 0.0
C2977 C 0.28156 0.96958 0.29672 0.0
C2978 C 0.29687 0.94688 0.30633 0.0
C2979 C 0.27977 0.96366 0.30982 0.0
C2980 C 0.3012 0.92894 0.32483 0.0
C2981 C 0.32092 0.91705 0.30912 0.0
N2982 N 0.28725 0.95272 0.31413 0.0
N2983 N 0.31404 0.92836 0.30443 0.0
H2984 H 0.74266 0.12213 0.71571 0.0
H2985 H 0.73019 0.04107 0.72363 0.0
H2986 H 0.70851 0.09961 0.69621 0.0
H2987 H 0.76786 0.06137 0.73806 0.0
H2988 H 0.72312 0.06228 0.71214 0.0
H2989 H 0.75276 0.10026 0.72304 0.0
C2990 C 0.73728 0.11263 0.71291 0.0
C2991 C 0.72462 0.11284 0.70533 0.0
C2992 C 0.73306 0.06212 0.71756 0.0
C2993 C 0.73626 0.08763 0.71369 0.0
C2994 C 0.73717 0.04993 0.72404 0.0
C2995 C 0.74973 0.04937 0.73162 0.0
C2996 C 0.7414 0.07407 0.71893 0.0
C2997 C 0.75822 0.06127 0.73206 0.0
C2998 C 0.74313 0.10011 0.71703 0.0
C2999 C 0.71832 0.10009 0.70188 0.0
N3000 N 0.75382 0.07319 0.72599 0.0
N3001 N 0.72412 0.0881 0.70617 0.0
H3002 H 0.71209 0.91898 0.28938 0.0
H3003 H 0.76112 0.98134 0.31658 0.0
H3004 H 0.72444 0.92437 0.33218 0.0
H3005 H 0.75121 0.97368 0.27358 0.0
H3006 H 0.74766 0.96076 0.32257 0.0
H3007 H 0.72618 0.93912 0.28354 0.0
C3008 C 0.71784 0.92429 0.29757 0.0
C3009 C 0.71705 0.91981 0.31132 0.0
C3010 C 0.74844 0.96359 0.31182 0.0
C3011 C 0.73316 0.94323 0.30465 0.0
C3012 C 0.75621 0.97534 0.30836 0.0
C3013 C 0.75736 0.9794 0.29451 0.0
C3014 C 0.7417 0.95574 0.30139 0.0
C3015 C 0.75053 0.97118 0.2844 0.0
C3016 C 0.72584 0.9359 0.29421 0.0
C3017 C 0.72456 0.92744 0.32146 0.0
N3018 N 0.74302 0.95981 0.28803 0.0
N3019 N 0.73227 0.93873 0.31793 0.0
H3020 H 0.62684 0.22296 0.29724 0.0
H3021 H 0.54787 0.24453 0.30495 0.0
H3022 H 0.60386 0.21191 0.33302 0.0
H3023 H 0.56919 0.24471 0.26681 0.0
H3024 H 0.56907 0.23626 0.31697 0.0
H3025 H 0.60669 0.23461 0.2876 0.0
C3026 C 0.61762 0.22312 0.3032 0.0
C3027 C 0.61717 0.21638 0.31602 0.0
C3028 C 0.56911 0.23829 0.306 0.0
C3029 C 0.59373 0.22972 0.30483 0.0
C3030 C 0.55708 0.24314 0.29918 0.0
C3031 C 0.55678 0.24533 0.28486 0.0
C3032 C 0.58094 0.23582 0.29844 0.0
C3033 C 0.56893 0.24313 0.27785 0.0
C3034 C 0.60603 0.22972 0.29761 0.0
C3035 C 0.60471 0.21681 0.32305 0.0
N3036 N 0.58043 0.23852 0.28466 0.0
N3037 N 0.59351 0.22333 0.31737 0.0
H3038 H 0.30064 0.09844 0.35434 0.0
H3039 H 0.27756 0.05139 0.28949 0.0
H3040 H 0.30934 0.1096 0.31242 0.0
H3041 H 0.26907 0.04098 0.33164 0.0
H3042 H 0.28953 0.07244 0.2975 0.0
H3043 H 0.28935 0.07726 0.34606 0.0
C3044 C 0.30014 0.09651 0.34336 0.0
C3045 C 0.30591 0.106 0.33409 0.0
C3046 C 0.28505 0.06554 0.305 0.0
C3047 C 0.29299 0.08143 0.32447 0.0
C3048 C 0.27824 0.05343 0.30043 0.0
C3049 C 0.27222 0.04425 0.30986 0.0
C3050 C 0.28592 0.06857 0.31914 0.0
C3051 C 0.27334 0.04771 0.32391 0.0
C3052 C 0.29373 0.08431 0.33864 0.0
C3053 C 0.30516 0.10262 0.32 0.0
N3054 N 0.28003 0.05952 0.32808 0.0
N3055 N 0.29879 0.09068 0.31564 0.0
H3056 H 0.40996 0.80851 0.31018 0.0
H3057 H 0.47962 0.76666 0.32395 0.0
H3058 H 0.42634 0.79766 0.35061 0.0
H3059 H 0.46446 0.77806 0.28325 0.0
H3060 H 0.46003 0.77787 0.33371 0.0
H3061 H 0.42957 0.79738 0.30001 0.0
C3062 C 0.41763 0.80378 0.31694 0.0
C3063 C 0.41643 0.80413 0.33133 0.0
C3064 C 0.46096 0.77794 0.32263 0.0
C3065 C 0.43904 0.79136 0.31969 0.0
C3066 C 0.47216 0.77144 0.31702 0.0
C3067 C 0.47378 0.77131 0.30269 0.0
C3068 C 0.45117 0.78441 0.31393 0.0
C3069 C 0.46378 0.77796 0.29434 0.0
C3070 C 0.42888 0.79747 0.31111 0.0
C3071 C 0.42685 0.79791 0.3395 0.0
N3072 N 0.45292 0.78419 0.30006 0.0
N3073 N 0.43763 0.7918 0.33359 0.0
H3074 H 0.32955 0.94679 0.71872 0.0
H3075 H 0.2961 0.97794 0.78597 0.0
H3076 H 0.32088 0.92311 0.75526 0.0
H3077 H 0.29949 1.00065 0.7479 0.0
H3078 H 0.30686 0.9584 0.77534 0.0
H3079 H 0.31976 0.96693 0.7294 0.0
C3080 C 0.32552 0.94574 0.72893 0.0
C3081 C 0.32616 0.9331 0.73604 0.0
C3082 C 0.30534 0.96767 0.76931 0.0
C3083 C 0.31509 0.95637 0.7485 0.0
C3084 C 0.29925 0.97892 0.77542 0.0
C3085 C 0.29684 0.99106 0.76787 0.0
C3086 C 0.30914 0.96847 0.75548 0.0
C3087 C 0.30112 0.99156 0.75417 0.0
C3088 C 0.32002 0.95732 0.73508 0.0
C3089 C 0.32092 0.9326 0.74938 0.0
N3090 N 0.307 0.98045 0.74843 0.0
N3091 N 0.31567 0.944 0.75513 0.0
H3092 H 0.61523 0.82185 0.72153 0.0
H3093 H 0.55093 0.76945 0.73161 0.0
H3094 H 0.60216 0.79255 0.69025 0.0
H3095 H 0.56256 0.80323 0.75853 0.0
H3096 H 0.56975 0.77662 0.71644 0.0
H3097 H 0.59617 0.81408 0.7354 0.0
C3098 C 0.6083 0.81386 0.71747 0.0
C3099 C 0.61037 0.80797 0.70458 0.0
C3100 C 0.5681 0.78243 0.72568 0.0
C3101 C 0.58837 0.79873 0.72071 0.0
C3102 C 0.55736 0.77834 0.73433 0.0
C3103 C 0.55509 0.7857 0.74641 0.0
C3104 C 0.57663 0.7939 0.72921 0.0
C3105 C 0.5638 0.79715 0.74938 0.0
C3106 C 0.5974 0.80933 0.72548 0.0
C3107 C 0.60112 0.79735 0.70016 0.0
N3108 N 0.5741 0.80082 0.74093 0.0
N3109 N 0.59054 0.79308 0.70818 0.0
H3110 H 0.42391 0.24941 0.70173 0.0
H3111 H 0.48914 0.22387 0.7472 0.0
H3112 H 0.4318 0.20699 0.71181 0.0
H3113 H 0.48376 0.26654 0.73651 0.0
H3114 H 0.46846 0.21784 0.73354 0.0
H3115 H 0.4457 0.25612 0.7137 0.0
C3116 C 0.43021 0.24147 0.70638 0.0
C3117 C 0.42587 0.22755 0.70571 0.0
C3118 C 0.47176 0.22853 0.73406 0.0
C3119 C 0.45092 0.23527 0.71959 0.0
C3120 C 0.48365 0.23202 0.74189 0.0
C3121 C 0.48824 0.24578 0.74309 0.0
C3122 C 0.46415 0.23885 0.72734 0.0
C3123 C 0.48066 0.25581 0.73584 0.0
C3124 C 0.44266 0.24535 0.71327 0.0
C3125 C 0.43448 0.21783 0.71217 0.0
N3126 N 0.46892 0.25216 0.72836 0.0
N3127 N 0.44651 0.22187 0.71879 0.0
H3128 H 0.69809 0.73723 0.11279 0.0
H3129 H 0.75124 0.7461 0.05163 0.0
H3130 H 0.73135 0.70964 0.1061 0.0
H3131 H 0.71861 0.77443 0.05836 0.0
H3132 H 0.74398 0.7327 0.0715 0.0
H3133 H 0.70509 0.75079 0.09276 0.0
C3134 C 0.70681 0.73396 0.1071 0.0
C3135 C 0.71414 0.72224 0.11128 0.0
C3136 C 0.7384 0.74185 0.06864 0.0
C3137 C 0.72232 0.73788 0.08828 0.0
C3138 C 0.7426 0.74961 0.05728 0.0
C3139 C 0.73559 0.76153 0.05318 0.0
C3140 C 0.72705 0.74596 0.07609 0.0
C3141 C 0.72429 0.76529 0.06094 0.0
C3142 C 0.71086 0.74177 0.09569 0.0
C3143 C 0.72549 0.71869 0.10351 0.0
N3144 N 0.7204 0.75757 0.07197 0.0
N3145 N 0.72919 0.72643 0.09245 0.0
H3146 H 0.33209 0.72125 0.09119 0.0
H3147 H 0.26756 0.73582 0.0392 0.0
H3148 H 0.29117 0.70491 0.0982 0.0
H3149 H 0.30948 0.74962 0.03312 0.0
H3150 H 0.27561 0.72337 0.06013 0.0
H3151 H 0.32367 0.73086 0.06937 0.0
C3152 C 0.32134 0.71956 0.08813 0.0
C3153 C 0.3124 0.71218 0.09667 0.0
C3154 C 0.28303 0.72904 0.0541 0.0
C3155 C 0.3025 0.72347 0.07149 0.0
C3156 C 0.27844 0.73605 0.04211 0.0
C3157 C 0.28783 0.74384 0.03441 0.0
C3158 C 0.29709 0.72983 0.05835 0.0
C3159 C 0.30182 0.74387 0.03876 0.0
C3160 C 0.31649 0.72515 0.07563 0.0
C3161 C 0.29847 0.71066 0.09212 0.0
N3162 N 0.30596 0.73709 0.05039 0.0
N3163 N 0.29395 0.71626 0.07989 0.0
H3164 H 0.32475 0.30216 0.13693 0.0
H3165 H 0.29914 0.31305 0.05844 0.0
H3166 H 0.32984 0.3401 0.11424 0.0
H3167 H 0.29955 0.27295 0.07747 0.0
H3168 H 0.31133 0.3226 0.0787 0.0
H3169 H 0.31611 0.29093 0.11563 0.0
C3170 C 0.3241 0.30816 0.12751 0.0
C3171 C 0.32808 0.32218 0.12751 0.0
C3172 C 0.30897 0.31167 0.07847 0.0
C3173 C 0.31818 0.30927 0.10296 0.0
C3174 C 0.30205 0.30618 0.06683 0.0
C3175 C 0.2984 0.29215 0.06618 0.0
C3176 C 0.3121 0.30318 0.08986 0.0
C3177 C 0.30234 0.28379 0.07744 0.0
C3178 C 0.31924 0.30168 0.11531 0.0
C3179 C 0.32712 0.32927 0.11485 0.0
N3180 N 0.30881 0.28946 0.0889 0.0
N3181 N 0.32221 0.32279 0.10321 0.0
H3182 H 0.73956 0.33367 0.107 0.0
H3183 H 0.72089 0.27815 0.04809 0.0
H3184 H 0.70106 0.31053 0.1042 0.0
H3185 H 0.75836 0.303 0.04912 0.0
H3186 H 0.71387 0.28943 0.06893 0.0
H3187 H 0.7469 0.32217 0.08631 0.0
C3188 C 0.73258 0.32623 0.10203 0.0
C3189 C 0.71958 0.32319 0.10745 0.0
C3190 C 0.72363 0.29243 0.06461 0.0
C3191 C 0.72811 0.30975 0.08364 0.0
C3192 C 0.72765 0.28602 0.05259 0.0
C3193 C 0.74026 0.28962 0.04661 0.0
C3194 C 0.73223 0.30258 0.07088 0.0
C3195 C 0.74862 0.29976 0.05329 0.0
C3196 C 0.73685 0.31959 0.09022 0.0
C3197 C 0.71121 0.31318 0.1006 0.0
N3198 N 0.74445 0.30587 0.06499 0.0
N3199 N 0.71559 0.30688 0.0891 0.0
H3200 H 0.72334 0.30438 0.90567 0.0
H3201 H 0.75592 0.31946 0.98152 0.0
H3202 H 0.72544 0.34456 0.92427 0.0
H3203 H 0.75273 0.27885 0.96397 0.0
H3204 H 0.74485 0.32872 0.96056 0.0
H3205 H 0.73417 0.29481 0.9267 0.0
C3206 C 0.72609 0.31122 0.91413 0.0
C3207 C 0.72339 0.32535 0.91309 0.0
C3208 C 0.74655 0.31778 0.96127 0.0
C3209 C 0.7358 0.31436 0.93737 0.0
C3210 C 0.7529 0.31246 0.97327 0.0
C3211 C 0.75531 0.29832 0.97459 0.0
C3212 C 0.74253 0.30894 0.95037 0.0
C3213 C 0.7511 0.28981 0.96348 0.0
C3214 C 0.73223 0.30572 0.92619 0.0
C3215 C 0.72707 0.3336 0.92456 0.0
N3216 N 0.74496 0.29524 0.95187 0.0
N3217 N 0.73308 0.32801 0.93613 0.0
H3218 H 0.71443 0.70812 0.93487 0.0
H3219 H 0.77388 0.7536 0.97402 0.0
H3220 H 0.75063 0.7233 0.91458 0.0
H3221 H 0.73356 0.74485 0.98957 0.0
H3222 H 0.76768 0.73935 0.95367 0.0
H3223 H 0.72341 0.71828 0.95632 0.0
C3224 C 0.72438 0.71341 0.93492 0.0
C3225 C 0.73172 0.71482 0.92276 0.0
C3226 C 0.7603 0.74039 0.96166 0.0
C3227 C 0.74207 0.72679 0.94753 0.0
C3228 C 0.7639 0.74839 0.97334 0.0
C3229 C 0.75423 0.75037 0.98352 0.0
C3230 C 0.74701 0.73425 0.96028 0.0
C3231 C 0.74133 0.74361 0.98198 0.0
C3232 C 0.72947 0.71934 0.94722 0.0
C3233 C 0.74448 0.72208 0.92359 0.0
N3234 N 0.7381 0.73594 0.97062 0.0
N3235 N 0.74921 0.72781 0.93571 0.0
H3236 H 0.31244 0.71014 0.90477 0.0
H3237 H 0.32417 0.76562 0.96528 0.0
H3238 H 0.34875 0.73632 0.90988 0.0
H3239 H 0.28531 0.74394 0.95769 0.0
H3240 H 0.33355 0.75394 0.94579 0.0
H3241 H 0.30274 0.72111 0.92487 0.0
C3242 C 0.31842 0.71812 0.91013 0.0
C3243 C 0.33143 0.72233 0.90547 0.0
C3244 C 0.32296 0.75172 0.94836 0.0
C3245 C 0.32032 0.73499 0.92857 0.0
C3246 C 0.31751 0.75849 0.95955 0.0
C3247 C 0.30379 0.75595 0.9633 0.0
C3248 C 0.31474 0.7422 0.94073 0.0
C3249 C 0.29593 0.74627 0.9554 0.0
C3250 C 0.31283 0.72444 0.92158 0.0
C3251 C 0.3386 0.73283 0.91286 0.0
N3252 N 0.3015 0.73979 0.94454 0.0
N3253 N 0.33298 0.73874 0.92396 0.0
H3254 H 0.3138 0.34684 0.93876 0.0
H3255 H 0.29054 0.28278 0.98572 0.0
H3256 H 0.32128 0.30467 0.92844 0.0
H3257 H 0.28148 0.32493 0.99459 0.0
H3258 H 0.30218 0.2905 0.96503 0.0
H3259 H 0.30244 0.33895 0.95948 0.0
C3260 C 0.31318 0.33591 0.94088 0.0
C3261 C 0.31863 0.32644 0.93178 0.0
C3262 C 0.29764 0.29807 0.9715 0.0
C3263 C 0.30534 0.31726 0.95559 0.0
C3264 C 0.29103 0.29366 0.98339 0.0
C3265 C 0.28499 0.30319 0.99203 0.0
C3266 C 0.2983 0.31214 0.96815 0.0
C3267 C 0.28582 0.31716 0.98825 0.0
C3268 C 0.30657 0.3314 0.95271 0.0
C3269 C 0.31717 0.31238 0.93503 0.0
N3270 N 0.29236 0.32118 0.97666 0.0
N3271 N 0.31071 0.30824 0.94665 0.0
H3272 H 0.61699 0.6955 0.22884 0.0
H3273 H 0.55265 0.74552 0.23427 0.0
H3274 H 0.60839 0.72872 0.20039 0.0
H3275 H 0.56117 0.71275 0.2633 0.0
H3276 H 0.573 0.73943 0.22182 0.0
H3277 H 0.59649 0.70133 0.24141 0.0
C3278 C 0.61079 0.70397 0.22517 0.0
C3279 C 0.61457 0.71164 0.21351 0.0
C3280 C 0.57043 0.73356 0.23092 0.0
C3281 C 0.59101 0.71848 0.22801 0.0
C3282 C 0.55879 0.7371 0.23813 0.0
C3283 C 0.55505 0.72969 0.24996 0.0
C3284 C 0.57852 0.72251 0.2355 0.0
C3285 C 0.56345 0.71871 0.2542 0.0
C3286 C 0.5991 0.70735 0.23242 0.0
C3287 C 0.60612 0.72263 0.20942 0.0
N3288 N 0.57474 0.71548 0.24701 0.0
N3289 N 0.59481 0.72569 0.21662 0.0
H3290 H 0.3226 0.6052 0.18713 0.0
H3291 H 0.27433 0.57052 0.24386 0.0
H3292 H 0.30694 0.62773 0.22108 0.0
H3293 H 0.28998 0.54889 0.20928 0.0
H3294 H 0.28576 0.59162 0.2357 0.0
H3295 H 0.31032 0.58462 0.19506 0.0
C3296 C 0.31662 0.60584 0.19629 0.0
C3297 C 0.31592 0.6183 0.20345 0.0
C3298 C 0.28663 0.58225 0.22989 0.0
C3299 C 0.30161 0.5946 0.2126 0.0
C3300 C 0.28014 0.57014 0.23458 0.0
C3301 C 0.2811 0.55777 0.22729 0.0
C3302 C 0.29422 0.58204 0.21783 0.0
C3303 C 0.2887 0.55809 0.21521 0.0
C3304 C 0.30953 0.59406 0.20078 0.0
C3305 C 0.30773 0.61845 0.21512 0.0
N3306 N 0.29495 0.56995 0.21093 0.0
N3307 N 0.30096 0.6068 0.21935 0.0
H3308 H 0.41548 0.30426 0.24051 0.0
H3309 H 0.49741 0.30175 0.25639 0.0
H3310 H 0.44332 0.33724 0.22899 0.0
H3311 H 0.46949 0.26673 0.25783 0.0
H3312 H 0.4776 0.31645 0.25038 0.0
H3313 H 0.43494 0.29204 0.25086 0.0
C3314 C 0.42565 0.30907 0.24032 0.0
C3315 C 0.42765 0.32187 0.23379 0.0
C3316 C 0.47581 0.30558 0.25225 0.0
C3317 C 0.45026 0.30767 0.2456 0.0
C3318 C 0.48709 0.29724 0.25584 0.0
C3319 C 0.48505 0.28303 0.25771 0.0
C3320 C 0.46245 0.29965 0.25067 0.0
C3321 C 0.47151 0.27765 0.25653 0.0
C3322 C 0.43683 0.302 0.24616 0.0
C3323 C 0.44123 0.32735 0.23373 0.0
N3324 N 0.46079 0.28591 0.25309 0.0
N3325 N 0.452 0.32023 0.23948 0.0
H3326 H 0.71226 0.41293 0.23722 0.0
H3327 H 0.74527 0.48606 0.21654 0.0
H3328 H 0.71153 0.42953 0.19589 0.0
H3329 H 0.74326 0.47254 0.25877 0.0
H3330 H 0.73197 0.4657 0.20925 0.0
H3331 H 0.72284 0.43456 0.24562 0.0
C3332 C 0.71422 0.42111 0.22988 0.0
C3333 C 0.71097 0.41926 0.21574 0.0
C3334 C 0.73427 0.46717 0.22014 0.0
C3335 C 0.72326 0.44414 0.2254 0.0
C3336 C 0.74184 0.47886 0.22433 0.0
C3337 C 0.74539 0.48105 0.23831 0.0
C3338 C 0.73028 0.45732 0.22993 0.0
C3339 C 0.74065 0.47134 0.24791 0.0
C3340 C 0.72032 0.43347 0.23473 0.0
C3341 C 0.71402 0.43026 0.20681 0.0
N3342 N 0.73347 0.45981 0.24353 0.0
N3343 N 0.71997 0.44213 0.21177 0.0
H3344 H 0.62218 0.31272 0.79321 0.0
H3345 H 0.54172 0.29824 0.8017 0.0
H3346 H 0.59845 0.33064 0.82493 0.0
H3347 H 0.56251 0.28613 0.76546 0.0
H3348 H 0.56218 0.31161 0.80924 0.0
H3349 H 0.60063 0.30421 0.78189 0.0
C3350 C 0.61247 0.31504 0.79772 0.0
C3351 C 0.61225 0.32229 0.81021 0.0
C3352 C 0.56227 0.30628 0.79949 0.0
C3353 C 0.58746 0.31241 0.79731 0.0
C3354 C 0.55051 0.29873 0.79513 0.0
C3355 C 0.55035 0.29124 0.78285 0.0
C3356 C 0.5742 0.3061 0.79172 0.0
C3357 C 0.56213 0.29199 0.77487 0.0
C3358 C 0.60015 0.31012 0.79126 0.0
C3359 C 0.59927 0.32483 0.81555 0.0
N3360 N 0.57368 0.29911 0.77954 0.0
N3361 N 0.5875 0.31983 0.80917 0.0
H3362 H 0.75511 0.62876 0.805 0.0
H3363 H 0.75522 0.54751 0.79117 0.0
H3364 H 0.72804 0.60029 0.82582 0.0
H3365 H 0.78652 0.5762 0.77753 0.0
H3366 H 0.74459 0.56631 0.80351 0.0
H3367 H 0.7659 0.60946 0.7942 0.0
C3368 C 0.75144 0.61847 0.80742 0.0
C3369 C 0.74065 0.61631 0.81655 0.0
C3370 C 0.75384 0.56844 0.79789 0.0
C3371 C 0.75299 0.59387 0.80382 0.0
C3372 C 0.75998 0.55769 0.79089 0.0
C3373 C 0.77185 0.56019 0.78325 0.0
C3374 C 0.75952 0.58187 0.79718 0.0
C3375 C 0.77742 0.57367 0.78324 0.0
C3376 C 0.75761 0.60738 0.80115 0.0
C3377 C 0.7362 0.6026 0.81882 0.0
N3378 N 0.77119 0.58394 0.78996 0.0
N3379 N 0.74237 0.59195 0.81253 0.0
H3380 H 0.43518 0.71995 0.8261 0.0
H3381 H 0.48806 0.73701 0.76611 0.0
H3382 H 0.43045 0.70146 0.78589 0.0
H3383 H 0.49338 0.74997 0.8084 0.0
H3384 H 0.4671 0.72382 0.77243 0.0
H3385 H 0.45648 0.73115 0.81912 0.0
C3386 C 0.43864 0.71812 0.81582 0.0
C3387 C 0.4309 0.7096 0.80666 0.0
C3388 C 0.47295 0.72951 0.7803 0.0
C3389 C 0.45551 0.72276 0.79839 0.0
C3390 C 0.48495 0.73697 0.7767 0.0
C3391 C 0.4925 0.74471 0.7867 0.0
C3392 C 0.46852 0.72982 0.79396 0.0
C3393 C 0.4879 0.74432 0.80026 0.0
C3394 C 0.45084 0.72462 0.81178 0.0
C3395 C 0.43591 0.70802 0.79331 0.0
N3396 N 0.47627 0.73712 0.80343 0.0
N3397 N 0.44786 0.71452 0.78958 0.0
H3398 H 0.3137 0.40644 0.80784 0.0
H3399 H 0.29547 0.48433 0.82527 0.0
H3400 H 0.32964 0.42811 0.84385 0.0
H3401 H 0.28061 0.46369 0.78824 0.0
H3402 H 0.30718 0.4635 0.83257 0.0
H3403 H 0.3008 0.42683 0.8009 0.0
C3404 C 0.31443 0.41543 0.81437 0.0
C3405 C 0.32285 0.41547 0.82648 0.0
C3406 C 0.30133 0.46349 0.82285 0.0
C3407 C 0.3081 0.43903 0.81846 0.0
C3408 C 0.29451 0.47541 0.81869 0.0
C3409 C 0.28694 0.4759 0.80607 0.0
C3410 C 0.30064 0.45181 0.8144 0.0
C3411 C 0.2864 0.46394 0.79797 0.0
C3412 C 0.3071 0.42713 0.81033 0.0
C3413 C 0.32348 0.42758 0.83434 0.0
N3414 N 0.29314 0.45243 0.80226 0.0
N3415 N 0.31624 0.4388 0.83021 0.0
H3416 H 0.71649 0.61573 0.22886 0.0
H3417 H 0.76003 0.55237 0.20277 0.0
H3418 H 0.72419 0.60887 0.18601 0.0
H3419 H 0.75244 0.56014 0.24549 0.0
H3420 H 0.74747 0.57311 0.19637 0.0
H3421 H 0.72992 0.59556 0.23499 0.0
C3422 C 0.72094 0.60996 0.22069 0.0
C3423 C 0.71904 0.61404 0.20685 0.0
C3424 C 0.74857 0.57027 0.20715 0.0
C3425 C 0.7347 0.59079 0.21389 0.0
C3426 C 0.75582 0.55842 0.21084 0.0
C3427 C 0.75734 0.55434 0.22474 0.0
C3428 C 0.74274 0.57821 0.21739 0.0
C3429 C 0.75143 0.56265 0.23465 0.0
C3430 C 0.72871 0.59844 0.22424 0.0
C3431 C 0.7254 0.60623 0.19682 0.0
N3432 N 0.74443 0.57411 0.23079 0.0
N3433 N 0.73287 0.59499 0.20053 0.0
H3434 H 0.69608 0.4364 0.80957 0.0
H3435 H 0.7557 0.47277 0.76596 0.0
H3436 H 0.73096 0.41463 0.79516 0.0
H3437 H 0.71864 0.49276 0.77753 0.0
H3438 H 0.74752 0.45167 0.77731 0.0
H3439 H 0.70494 0.45737 0.7988 0.0
C3440 C 0.70569 0.43602 0.80427 0.0
C3441 C 0.71277 0.42364 0.80336 0.0
C3442 C 0.74118 0.46068 0.77733 0.0
C3443 C 0.72296 0.44778 0.79073 0.0
C3444 C 0.74587 0.47277 0.77089 0.0
C3445 C 0.73786 0.48464 0.77069 0.0
C3446 C 0.72839 0.46042 0.78373 0.0
C3447 C 0.72513 0.4839 0.77718 0.0
C3448 C 0.7107 0.44803 0.798 0.0
C3449 C 0.72505 0.42385 0.79605 0.0
N3450 N 0.72084 0.47206 0.78342 0.0
N3451 N 0.72974 0.4357 0.79005 0.0
H3452 H 0.63307 0.73118 0.83592 0.0
H3453 H 0.56523 0.73593 0.78606 0.0
H3454 H 0.62278 0.70231 0.80341 0.0
H3455 H 0.57555 0.76521 0.81821 0.0
H3456 H 0.58618 0.72355 0.79232 0.0
H3457 H 0.61196 0.74355 0.82989 0.0
C3458 C 0.62638 0.72736 0.82757 0.0
C3459 C 0.62987 0.71563 0.82017 0.0
C3460 C 0.58386 0.73269 0.79802 0.0
C3461 C 0.60556 0.72994 0.81308 0.0
C3462 C 0.57187 0.73985 0.79439 0.0
C3463 C 0.56844 0.75175 0.80156 0.0
C3464 C 0.59264 0.73736 0.80894 0.0
C3465 C 0.57754 0.75607 0.81242 0.0
C3466 C 0.61432 0.73451 0.82407 0.0
C3467 C 0.62075 0.71138 0.80931 0.0
N3468 N 0.58915 0.74892 0.81574 0.0
N3469 N 0.6091 0.7185 0.80612 0.0
H3470 H 0.33186 0.59495 0.82392 0.0
H3471 H 0.29458 0.56549 0.75473 0.0
H3472 H 0.32134 0.6201 0.78849 0.0
H3473 H 0.30443 0.54032 0.79032 0.0
H3474 H 0.30607 0.58512 0.76619 0.0
H3475 H 0.32335 0.57464 0.81127 0.0
C3476 C 0.32775 0.59626 0.81349 0.0
C3477 C 0.32727 0.6094 0.80737 0.0
C3478 C 0.30585 0.57529 0.77146 0.0
C3479 C 0.31756 0.58595 0.79267 0.0
C3480 C 0.29933 0.564 0.76488 0.0
C3481 C 0.29846 0.55114 0.77153 0.0
C3482 C 0.31157 0.57382 0.78489 0.0
C3483 C 0.30483 0.54997 0.78473 0.0
C3484 C 0.32296 0.58459 0.80623 0.0
C3485 C 0.32207 0.61025 0.79367 0.0
N3486 N 0.31099 0.56115 0.79098 0.0
N3487 N 0.31737 0.59875 0.78686 0.0
H3488 H 0.41762 0.31237 0.81182 0.0
H3489 H 0.48819 0.27192 0.82554 0.0
H3490 H 0.43486 0.30252 0.85216 0.0
H3491 H 0.47245 0.28206 0.7847 0.0
H3492 H 0.46875 0.28341 0.83521 0.0
H3493 H 0.43765 0.30203 0.80153 0.0
C3494 C 0.42562 0.30815 0.81854 0.0
C3495 C 0.42438 0.30826 0.83293 0.0
C3496 C 0.46951 0.28316 0.82413 0.0
C3497 C 0.44738 0.29625 0.82115 0.0
C3498 C 0.48063 0.27648 0.81855 0.0
C3499 C 0.48204 0.27587 0.80421 0.0
C3500 C 0.45955 0.28933 0.81538 0.0
C3501 C 0.47192 0.28231 0.7958 0.0
C3502 C 0.43704 0.30216 0.81264 0.0
C3503 C 0.43512 0.30247 0.84104 0.0
N3504 N 0.46112 0.2887 0.80149 0.0
N3505 N 0.44606 0.29672 0.83506 0.0
H3506 H 0.33483 0.44089 0.22171 0.0
H3507 H 0.28685 0.46874 0.28071 0.0
H3508 H 0.31398 0.41489 0.25094 0.0
H3509 H 0.30044 0.49456 0.24733 0.0
H3510 H 0.29879 0.44951 0.27098 0.0
H3511 H 0.32389 0.46091 0.2315 0.0
C3512 C 0.32791 0.4393 0.23009 0.0
C3513 C 0.32547 0.42599 0.23546 0.0
C3514 C 0.29926 0.45938 0.26579 0.0
C3515 C 0.31307 0.44914 0.24697 0.0
C3516 C 0.29248 0.47046 0.27141 0.0
C3517 C 0.29257 0.48342 0.26489 0.0
C3518 C 0.30632 0.4611 0.25349 0.0
C3519 C 0.30008 0.48483 0.25279 0.0
C3520 C 0.32174 0.45081 0.23576 0.0
C3521 C 0.31651 0.42483 0.24654 0.0
N3522 N 0.30659 0.47384 0.24748 0.0
N3523 N 0.31074 0.43617 0.25188 0.0
H3524 H 0.60189 0.31031 0.18066 0.0
H3525 H 0.56842 0.27691 0.24784 0.0
H3526 H 0.62412 0.30677 0.21978 0.0
H3527 H 0.54799 0.27767 0.20764 0.0
H3528 H 0.58844 0.2888 0.23822 0.0
H3529 H 0.58176 0.29935 0.19078 0.0
C3530 C 0.6026 0.30719 0.19138 0.0
C3531 C 0.61488 0.30941 0.1993 0.0
C3532 C 0.57957 0.28637 0.23151 0.0
C3533 C 0.59157 0.29689 0.21108 0.0
C3534 C 0.56807 0.27963 0.23702 0.0
C3535 C 0.55641 0.27623 0.22857 0.0
C3536 C 0.57946 0.28983 0.21743 0.0
C3537 C 0.55674 0.27989 0.21456 0.0
C3538 C 0.59102 0.30097 0.19718 0.0
C3539 C 0.61492 0.3054 0.21325 0.0
N3540 N 0.56802 0.28648 0.20947 0.0
N3541 N 0.6035 0.2993 0.21866 0.0
H3542 H 0.42422 0.70216 0.20985 0.0
H3543 H 0.47689 0.76366 0.23318 0.0
H3544 H 0.41848 0.74417 0.19672 0.0
H3545 H 0.47989 0.72145 0.24659 0.0
H3546 H 0.45629 0.75708 0.21879 0.0
H3547 H 0.44515 0.70938 0.2227 0.0
C3548 C 0.42726 0.71294 0.20973 0.0
C3549 C 0.4194 0.72253 0.20216 0.0
C3550 C 0.46154 0.74928 0.22485 0.0
C3551 C 0.44377 0.73094 0.21687 0.0
C3552 C 0.47334 0.75303 0.233 0.0
C3553 C 0.48015 0.74314 0.24119 0.0
C3554 C 0.45657 0.73554 0.22485 0.0
C3555 C 0.47499 0.72951 0.24059 0.0
C3556 C 0.43935 0.71707 0.21702 0.0
C3557 C 0.42421 0.73633 0.20225 0.0
N3558 N 0.46359 0.72617 0.23266 0.0
N3559 N 0.43602 0.74012 0.20948 0.0
loop_
_geom_bond_atom_site_label_1
_geom_bond_atom_site_label_2
_geom_bond_distance
_geom_bond_site_symmetry_2
_ccdc_geom_bond_type
C0 C1 1.264 . S
C0 C5 1.479 . S
C0 C10 1.465 . S
C1 C0 1.264 . S
C1 C3 1.339 . S
C1 H28 0.931 . S
C2 C3 1.395 . S
C2 C4 1.320 . S
C3 C1 1.339 . S
C3 C2 1.395 . S
C3 H29 0.929 . S
C4 C2 1.320 . S
C4 C5 1.405 . S
C4 H30 0.930 . S
C5 C0 1.479 . S
C5 C4 1.405 . S
C5 H31 0.931 . S
U6 O7 2.454 . S
U6 O8 2.458 . S
U6 C9 2.984 . S
U6 C10 2.847 . S
U6 C23 2.882 . S
U6 O24 2.441 . S
U6 O25 2.420 . S
U6 O26 2.455 . S
U6 O27 2.449 . S
O7 U6 2.454 . S
O7 C9 1.353 . S
O8 U6 2.458 . S
O8 C9 1.286 . S
C9 U6 2.984 . S
C9 O7 1.353 . S
C9 O8 1.286 . S
C9 C11 1.363 . S
C10 C0 1.465 . S
C10 U6 2.847 . S
C10 O24 1.249 . S
C10 O25 1.202 . S
C11 C9 1.363 . S
C11 C13 1.408 . S
C11 C16 1.342 . S
C12 C13 1.310 . S
C12 C15 1.461 . S
C12 H32 0.932 . S
C13 C11 1.408 . S
C13 C12 1.310 . S
C13 H33 0.930 . S
C14 C15 1.474 . S
C14 C16 1.285 . S
C14 H34 0.929 . S
C15 C12 1.461 . S
C15 C14 1.474 . S
C16 C11 1.342 . S
C16 C14 1.285 . S
C16 H35 0.930 . S
C17 C20 1.424 . S
C17 C22 1.245 . S
C17 C23 1.428 . S
C18 C21 1.260 . S
C18 C22 1.477 . S
C18 H36 0.932 . S
C19 C20 1.384 . S
C19 C21 1.479 . S
C19 H37 0.929 . S
C20 C17 1.424 . S
C20 C19 1.384 . S
C20 H38 0.928 . S
C21 C18 1.260 . S
C21 C19 1.479 . S
C22 C17 1.245 . S
C22 C18 1.477 . S
C22 H39 0.932 . S
C23 U6 2.882 . S
C23 C17 1.428 . S
C23 O26 1.301 . S
C23 O27 1.282 . S
O24 U6 2.441 . S
O24 C10 1.249 . S
O25 U6 2.420 . S
O25 C10 1.202 . S
O26 U6 2.455 . S
O26 C23 1.301 . S
O27 U6 2.449 . S
O27 C23 1.282 . S
H28 C1 0.931 . S
H29 C3 0.929 . S
H30 C4 0.930 . S
H31 C5 0.931 . S
H32 C12 0.932 . S
H33 C13 0.930 . S
H34 C14 0.929 . S
H35 C16 0.930 . S
H36 C18 0.932 . S
H37 C19 0.929 . S
H38 C20 0.928 . S
H39 C22 0.932 . S
C40 C41 1.264 . S
C40 C45 1.479 . S
C40 C50 1.465 . S
C41 C40 1.264 . S
C41 C43 1.339 . S
C41 H68 0.931 . S
C42 C43 1.395 . S
C42 C44 1.320 . S
C43 C41 1.339 . S
C43 C42 1.395 . S
C43 H69 0.929 . S
C44 C42 1.320 . S
C44 C45 1.405 . S
C44 H70 0.930 . S
C45 C40 1.479 . S
C45 C44 1.405 . S
C45 H71 0.931 . S
U46 O47 2.454 . S
U46 O48 2.458 . S
U46 C49 2.984 . S
U46 C50 2.847 . S
U46 C63 2.882 . S
U46 O64 2.441 . S
U46 O65 2.420 . S
U46 O66 2.455 . S
U46 O67 2.449 . S
O47 U46 2.454 . S
O47 C49 1.353 . S
O48 U46 2.458 . S
O48 C49 1.286 . S
C49 U46 2.984 . S
C49 O47 1.353 . S
C49 O48 1.286 . S
C49 C51 1.363 . S
C50 C40 1.465 . S
C50 U46 2.847 . S
C50 O64 1.249 . S
C50 O65 1.202 . S
C51 C49 1.363 . S
C51 C53 1.408 . S
C51 C56 1.342 . S
C52 C53 1.310 . S
C52 C55 1.461 . S
C52 H72 0.932 . S
C53 C51 1.408 . S
C53 C52 1.310 . S
C53 H73 0.930 . S
C54 C55 1.474 . S
C54 C56 1.285 . S
C54 H74 0.929 . S
C55 C52 1.461 . S
C55 C54 1.474 . S
C56 C51 1.342 . S
C56 C54 1.285 . S
C56 H75 0.930 . S
C57 C60 1.424 . S
C57 C62 1.245 . S
C57 C63 1.428 . S
C58 C61 1.260 . S
C58 C62 1.477 . S
C58 H76 0.932 . S
C59 C60 1.384 . S
C59 C61 1.479 . S
C59 H77 0.929 . S
C60 C57 1.424 . S
C60 C59 1.384 . S
C60 H78 0.928 . S
C61 C58 1.260 . S
C61 C59 1.479 . S
C62 C57 1.245 . S
C62 C58 1.477 . S
C62 H79 0.932 . S
C63 U46 2.882 . S
C63 C57 1.428 . S
C63 O66 1.301 . S
C63 O67 1.282 . S
O64 U46 2.441 . S
O64 C50 1.249 . S
O65 U46 2.420 . S
O65 C50 1.202 . S
O66 U46 2.455 . S
O66 C63 1.301 . S
O67 U46 2.449 . S
O67 C63 1.282 . S
H68 C41 0.931 . S
H69 C43 0.929 . S
H70 C44 0.930 . S
H71 C45 0.931 . S
H72 C52 0.932 . S
H73 C53 0.930 . S
H74 C54 0.929 . S
H75 C56 0.930 . S
H76 C58 0.932 . S
H77 C59 0.929 . S
H78 C60 0.928 . S
H79 C62 0.932 . S
C80 C81 1.264 . S
C80 C85 1.479 . S
C80 C90 1.465 . S
C81 C80 1.264 . S
C81 C83 1.339 . S
C81 H108 0.931 . S
C82 C83 1.395 . S
C82 C84 1.320 . S
C83 C81 1.339 . S
C83 C82 1.395 . S
C83 H109 0.929 . S
C84 C82 1.320 . S
C84 C85 1.405 . S
C84 H110 0.930 . S
C85 C80 1.479 . S
C85 C84 1.405 . S
C85 H111 0.931 . S
U86 O87 2.454 . S
U86 O88 2.458 . S
U86 C89 2.984 . S
U86 C90 2.847 . S
U86 C103 2.882 . S
U86 O104 2.441 . S
U86 O105 2.420 . S
U86 O106 2.455 . S
U86 O107 2.449 . S
O87 U86 2.454 . S
O87 C89 1.353 . S
O88 U86 2.458 . S
O88 C89 1.286 . S
C89 U86 2.984 . S
C89 O87 1.353 . S
C89 O88 1.286 . S
C89 C91 1.363 . S
C90 C80 1.465 . S
C90 U86 2.847 . S
C90 O104 1.249 . S
C90 O105 1.202 . S
C91 C89 1.363 . S
C91 C93 1.408 . S
C91 C96 1.342 . S
C92 C93 1.310 . S
C92 C95 1.461 . S
C92 H112 0.932 . S
C93 C91 1.408 . S
C93 C92 1.310 . S
C93 H113 0.930 . S
C94 C95 1.474 . S
C94 C96 1.285 . S
C94 H114 0.929 . S
C95 C92 1.461 . S
C95 C94 1.474 . S
C96 C91 1.342 . S
C96 C94 1.285 . S
C96 H115 0.930 . S
C97 C100 1.424 . S
C97 C102 1.245 . S
C97 C103 1.428 . S
C98 C101 1.260 . S
C98 C102 1.477 . S
C98 H116 0.932 . S
C99 C100 1.384 . S
C99 C101 1.479 . S
C99 H117 0.929 . S
C100 C97 1.424 . S
C100 C99 1.384 . S
C100 H118 0.928 . S
C101 C98 1.260 . S
C101 C99 1.479 . S
C102 C97 1.245 . S
C102 C98 1.477 . S
C102 H119 0.932 . S
C103 U86 2.882 . S
C103 C97 1.428 . S
C103 O106 1.301 . S
C103 O107 1.282 . S
O104 U86 2.441 . S
O104 C90 1.249 . S
O105 U86 2.420 . S
O105 C90 1.202 . S
O106 U86 2.455 . S
O106 C103 1.301 . S
O107 U86 2.449 . S
O107 C103 1.282 . S
H108 C81 0.931 . S
H109 C83 0.929 . S
H110 C84 0.930 . S
H111 C85 0.931 . S
H112 C92 0.932 . S
H113 C93 0.930 . S
H114 C94 0.929 . S
H115 C96 0.930 . S
H116 C98 0.932 . S
H117 C99 0.929 . S
H118 C100 0.928 . S
H119 C102 0.932 . S
C120 C121 1.264 . S
C120 C125 1.479 . S
C120 C130 1.465 . S
C121 C120 1.264 . S
C121 C123 1.339 . S
C121 H148 0.931 . S
C122 C123 1.395 . S
C122 C124 1.320 . S
C123 C121 1.339 . S
C123 C122 1.395 . S
C123 H149 0.929 . S
C124 C122 1.320 . S
C124 C125 1.405 . S
C124 H150 0.930 . S
C125 C120 1.479 . S
C125 C124 1.405 . S
C125 H151 0.931 . S
U126 O127 2.454 . S
U126 O128 2.458 . S
U126 C129 2.984 . S
U126 C130 2.847 . S
U126 C143 2.882 . S
U126 O144 2.441 . S
U126 O145 2.420 . S
U126 O146 2.455 . S
U126 O147 2.449 . S
O127 U126 2.454 . S
O127 C129 1.353 . S
O128 U126 2.458 . S
O128 C129 1.286 . S
C129 U126 2.984 . S
C129 O127 1.353 . S
C129 O128 1.286 . S
C129 C131 1.363 . S
C130 C120 1.465 . S
C130 U126 2.847 . S
C130 O144 1.249 . S
C130 O145 1.202 . S
C131 C129 1.363 . S
C131 C133 1.408 . S
C131 C136 1.342 . S
C132 C133 1.310 . S
C132 C135 1.461 . S
C132 H152 0.932 . S
C133 C131 1.408 . S
C133 C132 1.310 . S
C133 H153 0.930 . S
C134 C135 1.474 . S
C134 C136 1.285 . S
C134 H154 0.929 . S
C135 C132 1.461 . S
C135 C134 1.474 . S
C136 C131 1.342 . S
C136 C134 1.285 . S
C136 H155 0.930 . S
C137 C140 1.424 . S
C137 C142 1.245 . S
C137 C143 1.428 . S
C138 C141 1.260 . S
C138 C142 1.477 . S
C138 H156 0.932 . S
C139 C140 1.384 . S
C139 C141 1.479 . S
C139 H157 0.929 . S
C140 C137 1.424 . S
C140 C139 1.384 . S
C140 H158 0.928 . S
C141 C138 1.260 . S
C141 C139 1.479 . S
C142 C137 1.245 . S
C142 C138 1.477 . S
C142 H159 0.932 . S
C143 U126 2.882 . S
C143 C137 1.428 . S
C143 O146 1.301 . S
C143 O147 1.282 . S
O144 U126 2.441 . S
O144 C130 1.249 . S
O145 U126 2.420 . S
O145 C130 1.202 . S
O146 U126 2.455 . S
O146 C143 1.301 . S
O147 U126 2.449 . S
O147 C143 1.282 . S
H148 C121 0.931 . S
H149 C123 0.929 . S
H150 C124 0.930 . S
H151 C125 0.931 . S
H152 C132 0.932 . S
H153 C133 0.930 . S
H154 C134 0.929 . S
H155 C136 0.930 . S
H156 C138 0.932 . S
H157 C139 0.929 . S
H158 C140 0.928 . S
H159 C142 0.932 . S
C160 C161 1.264 . S
C160 C165 1.479 . S
C160 C170 1.465 . S
C161 C160 1.264 . S
C161 C163 1.339 . S
C161 H188 0.931 . S
C162 C163 1.395 . S
C162 C164 1.320 . S
C163 C161 1.339 . S
C163 C162 1.395 . S
C163 H189 0.929 . S
C164 C162 1.320 . S
C164 C165 1.405 . S
C164 H190 0.930 . S
C165 C160 1.479 . S
C165 C164 1.405 . S
C165 H191 0.931 . S
U166 O167 2.454 . S
U166 O168 2.458 . S
U166 C169 2.984 . S
U166 C170 2.847 . S
U166 C183 2.882 . S
U166 O184 2.441 . S
U166 O185 2.420 . S
U166 O186 2.455 . S
U166 O187 2.449 . S
O167 U166 2.454 . S
O167 C169 1.353 . S
O168 U166 2.458 . S
O168 C169 1.286 . S
C169 U166 2.984 . S
C169 O167 1.353 . S
C169 O168 1.286 . S
C169 C171 1.363 . S
C170 C160 1.465 . S
C170 U166 2.847 . S
C170 O184 1.249 . S
C170 O185 1.202 . S
C171 C169 1.363 . S
C171 C173 1.408 . S
C171 C176 1.342 . S
C172 C173 1.310 . S
C172 C175 1.461 . S
C172 H192 0.932 . S
C173 C171 1.408 . S
C173 C172 1.310 . S
C173 H193 0.930 . S
C174 C175 1.474 . S
C174 C176 1.285 . S
C174 H194 0.929 . S
C175 C172 1.461 . S
C175 C174 1.474 . S
C176 C171 1.342 . S
C176 C174 1.285 . S
C176 H195 0.930 . S
C177 C180 1.424 . S
C177 C182 1.245 . S
C177 C183 1.428 . S
C178 C181 1.260 . S
C178 C182 1.477 . S
C178 H196 0.932 . S
C179 C180 1.384 . S
C179 C181 1.479 . S
C179 H197 0.929 . S
C180 C177 1.424 . S
C180 C179 1.384 . S
C180 H198 0.928 . S
C181 C178 1.260 . S
C181 C179 1.479 . S
C182 C177 1.245 . S
C182 C178 1.477 . S
C182 H199 0.932 . S
C183 U166 2.882 . S
C183 C177 1.428 . S
C183 O186 1.301 . S
C183 O187 1.282 . S
O184 U166 2.441 . S
O184 C170 1.249 . S
O185 U166 2.420 . S
O185 C170 1.202 . S
O186 U166 2.455 . S
O186 C183 1.301 . S
O187 U166 2.449 . S
O187 C183 1.282 . S
H188 C161 0.931 . S
H189 C163 0.929 . S
H190 C164 0.930 . S
H191 C165 0.931 . S
H192 C172 0.932 . S
H193 C173 0.930 . S
H194 C174 0.929 . S
H195 C176 0.930 . S
H196 C178 0.932 . S
H197 C179 0.929 . S
H198 C180 0.928 . S
H199 C182 0.932 . S
C200 C201 1.264 . S
C200 C205 1.479 . S
C200 C210 1.465 . S
C201 C200 1.264 . S
C201 C203 1.339 . S
C201 H228 0.931 . S
C202 C203 1.395 . S
C202 C204 1.320 . S
C203 C201 1.339 . S
C203 C202 1.395 . S
C203 H229 0.929 . S
C204 C202 1.320 . S
C204 C205 1.405 . S
C204 H230 0.930 . S
C205 C200 1.479 . S
C205 C204 1.405 . S
C205 H231 0.931 . S
U206 O207 2.454 . S
U206 O208 2.458 . S
U206 C209 2.984 . S
U206 C210 2.847 . S
U206 C223 2.882 . S
U206 O224 2.441 . S
U206 O225 2.420 . S
U206 O226 2.455 . S
U206 O227 2.449 . S
O207 U206 2.454 . S
O207 C209 1.353 . S
O208 U206 2.458 . S
O208 C209 1.286 . S
C209 U206 2.984 . S
C209 O207 1.353 . S
C209 O208 1.286 . S
C209 C211 1.363 . S
C210 C200 1.465 . S
C210 U206 2.847 . S
C210 O224 1.249 . S
C210 O225 1.202 . S
C211 C209 1.363 . S
C211 C213 1.408 . S
C211 C216 1.342 . S
C212 C213 1.310 . S
C212 C215 1.461 . S
C212 H232 0.932 . S
C213 C211 1.408 . S
C213 C212 1.310 . S
C213 H233 0.930 . S
C214 C215 1.474 . S
C214 C216 1.285 . S
C214 H234 0.929 . S
C215 C212 1.461 . S
C215 C214 1.474 . S
C216 C211 1.342 . S
C216 C214 1.285 . S
C216 H235 0.930 . S
C217 C220 1.424 . S
C217 C222 1.245 . S
C217 C223 1.428 . S
C218 C221 1.260 . S
C218 C222 1.477 . S
C218 H236 0.932 . S
C219 C220 1.384 . S
C219 C221 1.479 . S
C219 H237 0.929 . S
C220 C217 1.424 . S
C220 C219 1.384 . S
C220 H238 0.928 . S
C221 C218 1.260 . S
C221 C219 1.479 . S
C222 C217 1.245 . S
C222 C218 1.477 . S
C222 H239 0.932 . S
C223 U206 2.882 . S
C223 C217 1.428 . S
C223 O226 1.301 . S
C223 O227 1.282 . S
O224 U206 2.441 . S
O224 C210 1.249 . S
O225 U206 2.420 . S
O225 C210 1.202 . S
O226 U206 2.455 . S
O226 C223 1.301 . S
O227 U206 2.449 . S
O227 C223 1.282 . S
H228 C201 0.931 . S
H229 C203 0.929 . S
H230 C204 0.930 . S
H231 C205 0.931 . S
H232 C212 0.932 . S
H233 C213 0.930 . S
H234 C214 0.929 . S
H235 C216 0.930 . S
H236 C218 0.932 . S
H237 C219 0.929 . S
H238 C220 0.928 . S
H239 C222 0.932 . S
C240 C241 1.264 . S
C240 C245 1.479 . S
C240 C250 1.465 . S
C241 C240 1.264 . S
C241 C243 1.339 . S
C241 H268 0.931 . S
C242 C243 1.395 . S
C242 C244 1.320 . S
C243 C241 1.339 . S
C243 C242 1.395 . S
C243 H269 0.929 . S
C244 C242 1.320 . S
C244 C245 1.405 . S
C244 H270 0.930 . S
C245 C240 1.479 . S
C245 C244 1.405 . S
C245 H271 0.931 . S
U246 O247 2.454 . S
U246 O248 2.458 . S
U246 C249 2.984 . S
U246 C250 2.847 . S
U246 C263 2.882 . S
U246 O264 2.441 . S
U246 O265 2.420 . S
U246 O266 2.455 . S
U246 O267 2.449 . S
O247 U246 2.454 . S
O247 C249 1.353 . S
O248 U246 2.458 . S
O248 C249 1.286 . S
C249 U246 2.984 . S
C249 O247 1.353 . S
C249 O248 1.286 . S
C249 C251 1.363 . S
C250 C240 1.465 . S
C250 U246 2.847 . S
C250 O264 1.249 . S
C250 O265 1.202 . S
C251 C249 1.363 . S
C251 C253 1.408 . S
C251 C256 1.342 . S
C252 C253 1.310 . S
C252 C255 1.461 . S
C252 H272 0.932 . S
C253 C251 1.408 . S
C253 C252 1.310 . S
C253 H273 0.930 . S
C254 C255 1.474 . S
C254 C256 1.285 . S
C254 H274 0.929 . S
C255 C252 1.461 . S
C255 C254 1.474 . S
C256 C251 1.342 . S
C256 C254 1.285 . S
C256 H275 0.930 . S
C257 C260 1.424 . S
C257 C262 1.245 . S
C257 C263 1.428 . S
C258 C261 1.260 . S
C258 C262 1.477 . S
C258 H276 0.932 . S
C259 C260 1.384 . S
C259 C261 1.479 . S
C259 H277 0.929 . S
C260 C257 1.424 . S
C260 C259 1.384 . S
C260 H278 0.928 . S
C261 C258 1.260 . S
C261 C259 1.479 . S
C262 C257 1.245 . S
C262 C258 1.477 . S
C262 H279 0.932 . S
C263 U246 2.882 . S
C263 C257 1.428 . S
C263 O266 1.301 . S
C263 O267 1.282 . S
O264 U246 2.441 . S
O264 C250 1.249 . S
O265 U246 2.420 . S
O265 C250 1.202 . S
O266 U246 2.455 . S
O266 C263 1.301 . S
O267 U246 2.449 . S
O267 C263 1.282 . S
H268 C241 0.931 . S
H269 C243 0.929 . S
H270 C244 0.930 . S
H271 C245 0.931 . S
H272 C252 0.932 . S
H273 C253 0.930 . S
H274 C254 0.929 . S
H275 C256 0.930 . S
H276 C258 0.932 . S
H277 C259 0.929 . S
H278 C260 0.928 . S
H279 C262 0.932 . S
C280 C281 1.264 . S
C280 C285 1.479 . S
C280 C290 1.465 . S
C281 C280 1.264 . S
C281 C283 1.339 . S
C281 H308 0.931 . S
C282 C283 1.395 . S
C282 C284 1.320 . S
C283 C281 1.339 . S
C283 C282 1.395 . S
C283 H309 0.929 . S
C284 C282 1.320 . S
C284 C285 1.405 . S
C284 H310 0.930 . S
C285 C280 1.479 . S
C285 C284 1.405 . S
C285 H311 0.931 . S
U286 O287 2.454 . S
U286 O288 2.458 . S
U286 C289 2.984 . S
U286 C290 2.847 . S
U286 C303 2.882 . S
U286 O304 2.441 . S
U286 O305 2.420 . S
U286 O306 2.455 . S
U286 O307 2.449 . S
O287 U286 2.454 . S
O287 C289 1.353 . S
O288 U286 2.458 . S
O288 C289 1.286 . S
C289 U286 2.984 . S
C289 O287 1.353 . S
C289 O288 1.286 . S
C289 C291 1.363 . S
C290 C280 1.465 . S
C290 U286 2.847 . S
C290 O304 1.249 . S
C290 O305 1.202 . S
C291 C289 1.363 . S
C291 C293 1.408 . S
C291 C296 1.342 . S
C292 C293 1.310 . S
C292 C295 1.461 . S
C292 H312 0.932 . S
C293 C291 1.408 . S
C293 C292 1.310 . S
C293 H313 0.930 . S
C294 C295 1.474 . S
C294 C296 1.285 . S
C294 H314 0.929 . S
C295 C292 1.461 . S
C295 C294 1.474 . S
C296 C291 1.342 . S
C296 C294 1.285 . S
C296 H315 0.930 . S
C297 C300 1.424 . S
C297 C302 1.245 . S
C297 C303 1.428 . S
C298 C301 1.260 . S
C298 C302 1.477 . S
C298 H316 0.932 . S
C299 C300 1.384 . S
C299 C301 1.479 . S
C299 H317 0.929 . S
C300 C297 1.424 . S
C300 C299 1.384 . S
C300 H318 0.928 . S
C301 C298 1.260 . S
C301 C299 1.479 . S
C302 C297 1.245 . S
C302 C298 1.477 . S
C302 H319 0.932 . S
C303 U286 2.882 . S
C303 C297 1.428 . S
C303 O306 1.301 . S
C303 O307 1.282 . S
O304 U286 2.441 . S
O304 C290 1.249 . S
O305 U286 2.420 . S
O305 C290 1.202 . S
O306 U286 2.455 . S
O306 C303 1.301 . S
O307 U286 2.449 . S
O307 C303 1.282 . S
H308 C281 0.931 . S
H309 C283 0.929 . S
H310 C284 0.930 . S
H311 C285 0.931 . S
H312 C292 0.932 . S
H313 C293 0.930 . S
H314 C294 0.929 . S
H315 C296 0.930 . S
H316 C298 0.932 . S
H317 C299 0.929 . S
H318 C300 0.928 . S
H319 C302 0.932 . S
C320 C321 1.264 . S
C320 C325 1.479 . S
C320 C330 1.465 . S
C321 C320 1.264 . S
C321 C323 1.339 . S
C321 H348 0.931 . S
C322 C323 1.395 . S
C322 C324 1.320 . S
C323 C321 1.339 . S
C323 C322 1.395 . S
C323 H349 0.929 . S
C324 C322 1.320 . S
C324 C325 1.405 . S
C324 H350 0.930 . S
C325 C320 1.479 . S
C325 C324 1.405 . S
C325 H351 0.931 . S
U326 O327 2.454 . S
U326 O328 2.458 . S
U326 C329 2.984 . S
U326 C330 2.847 . S
U326 C343 2.882 . S
U326 O344 2.441 . S
U326 O345 2.420 . S
U326 O346 2.455 . S
U326 O347 2.449 . S
O327 U326 2.454 . S
O327 C329 1.353 . S
O328 U326 2.458 . S
O328 C329 1.286 . S
C329 U326 2.984 . S
C329 O327 1.353 . S
C329 O328 1.286 . S
C329 C331 1.363 . S
C330 C320 1.465 . S
C330 U326 2.847 . S
C330 O344 1.249 . S
C330 O345 1.202 . S
C331 C329 1.363 . S
C331 C333 1.408 . S
C331 C336 1.342 . S
C332 C333 1.310 . S
C332 C335 1.461 . S
C332 H352 0.932 . S
C333 C331 1.408 . S
C333 C332 1.310 . S
C333 H353 0.930 . S
C334 C335 1.474 . S
C334 C336 1.285 . S
C334 H354 0.929 . S
C335 C332 1.461 . S
C335 C334 1.474 . S
C336 C331 1.342 . S
C336 C334 1.285 . S
C336 H355 0.930 . S
C337 C340 1.424 . S
C337 C342 1.245 . S
C337 C343 1.428 . S
C338 C341 1.260 . S
C338 C342 1.477 . S
C338 H356 0.932 . S
C339 C340 1.384 . S
C339 C341 1.479 . S
C339 H357 0.929 . S
C340 C337 1.424 . S
C340 C339 1.384 . S
C340 H358 0.928 . S
C341 C338 1.260 . S
C341 C339 1.479 . S
C342 C337 1.245 . S
C342 C338 1.477 . S
C342 H359 0.932 . S
C343 U326 2.882 . S
C343 C337 1.428 . S
C343 O346 1.301 . S
C343 O347 1.282 . S
O344 U326 2.441 . S
O344 C330 1.249 . S
O345 U326 2.420 . S
O345 C330 1.202 . S
O346 U326 2.455 . S
O346 C343 1.301 . S
O347 U326 2.449 . S
O347 C343 1.282 . S
H348 C321 0.931 . S
H349 C323 0.929 . S
H350 C324 0.930 . S
H351 C325 0.931 . S
H352 C332 0.932 . S
H353 C333 0.930 . S
H354 C334 0.929 . S
H355 C336 0.930 . S
H356 C338 0.932 . S
H357 C339 0.929 . S
H358 C340 0.928 . S
H359 C342 0.932 . S
C360 C361 1.264 . S
C360 C365 1.479 . S
C360 C370 1.465 . S
C361 C360 1.264 . S
C361 C363 1.339 . S
C361 H388 0.931 . S
C362 C363 1.395 . S
C362 C364 1.320 . S
C363 C361 1.339 . S
C363 C362 1.395 . S
C363 H389 0.929 . S
C364 C362 1.320 . S
C364 C365 1.405 . S
C364 H390 0.930 . S
C365 C360 1.479 . S
C365 C364 1.405 . S
C365 H391 0.931 . S
U366 O367 2.454 . S
U366 O368 2.458 . S
U366 C369 2.984 . S
U366 C370 2.847 . S
U366 C383 2.882 . S
U366 O384 2.441 . S
U366 O385 2.420 . S
U366 O386 2.455 . S
U366 O387 2.449 . S
O367 U366 2.454 . S
O367 C369 1.353 . S
O368 U366 2.458 . S
O368 C369 1.286 . S
C369 U366 2.984 . S
C369 O367 1.353 . S
C369 O368 1.286 . S
C369 C371 1.363 . S
C370 C360 1.465 . S
C370 U366 2.847 . S
C370 O384 1.249 . S
C370 O385 1.202 . S
C371 C369 1.363 . S
C371 C373 1.408 . S
C371 C376 1.342 . S
C372 C373 1.310 . S
C372 C375 1.461 . S
C372 H392 0.932 . S
C373 C371 1.408 . S
C373 C372 1.310 . S
C373 H393 0.930 . S
C374 C375 1.474 . S
C374 C376 1.285 . S
C374 H394 0.929 . S
C375 C372 1.461 . S
C375 C374 1.474 . S
C376 C371 1.342 . S
C376 C374 1.285 . S
C376 H395 0.930 . S
C377 C380 1.424 . S
C377 C382 1.245 . S
C377 C383 1.428 . S
C378 C381 1.260 . S
C378 C382 1.477 . S
C378 H396 0.932 . S
C379 C380 1.384 . S
C379 C381 1.479 . S
C379 H397 0.929 . S
C380 C377 1.424 . S
C380 C379 1.384 . S
C380 H398 0.928 . S
C381 C378 1.260 . S
C381 C379 1.479 . S
C382 C377 1.245 . S
C382 C378 1.477 . S
C382 H399 0.932 . S
C383 U366 2.882 . S
C383 C377 1.428 . S
C383 O386 1.301 . S
C383 O387 1.282 . S
O384 U366 2.441 . S
O384 C370 1.249 . S
O385 U366 2.420 . S
O385 C370 1.202 . S
O386 U366 2.455 . S
O386 C383 1.301 . S
O387 U366 2.449 . S
O387 C383 1.282 . S
H388 C361 0.931 . S
H389 C363 0.929 . S
H390 C364 0.930 . S
H391 C365 0.931 . S
H392 C372 0.932 . S
H393 C373 0.930 . S
H394 C374 0.929 . S
H395 C376 0.930 . S
H396 C378 0.932 . S
H397 C379 0.929 . S
H398 C380 0.928 . S
H399 C382 0.932 . S
C400 C401 1.264 . S
C400 C405 1.479 . S
C400 C410 1.465 . S
C401 C400 1.264 . S
C401 C403 1.339 . S
C401 H428 0.931 . S
C402 C403 1.395 . S
C402 C404 1.320 . S
C403 C401 1.339 . S
C403 C402 1.395 . S
C403 H429 0.929 . S
C404 C402 1.320 . S
C404 C405 1.405 . S
C404 H430 0.930 . S
C405 C400 1.479 . S
C405 C404 1.405 . S
C405 H431 0.931 . S
U406 O407 2.454 . S
U406 O408 2.458 . S
U406 C409 2.984 . S
U406 C410 2.847 . S
U406 C423 2.882 . S
U406 O424 2.441 . S
U406 O425 2.420 . S
U406 O426 2.455 . S
U406 O427 2.449 . S
O407 U406 2.454 . S
O407 C409 1.353 . S
O408 U406 2.458 . S
O408 C409 1.286 . S
C409 U406 2.984 . S
C409 O407 1.353 . S
C409 O408 1.286 . S
C409 C411 1.363 . S
C410 C400 1.465 . S
C410 U406 2.847 . S
C410 O424 1.249 . S
C410 O425 1.202 . S
C411 C409 1.363 . S
C411 C413 1.408 . S
C411 C416 1.342 . S
C412 C413 1.310 . S
C412 C415 1.461 . S
C412 H432 0.932 . S
C413 C411 1.408 . S
C413 C412 1.310 . S
C413 H433 0.930 . S
C414 C415 1.474 . S
C414 C416 1.285 . S
C414 H434 0.929 . S
C415 C412 1.461 . S
C415 C414 1.474 . S
C416 C411 1.342 . S
C416 C414 1.285 . S
C416 H435 0.930 . S
C417 C420 1.424 . S
C417 C422 1.245 . S
C417 C423 1.428 . S
C418 C421 1.260 . S
C418 C422 1.477 . S
C418 H436 0.932 . S
C419 C420 1.384 . S
C419 C421 1.479 . S
C419 H437 0.929 . S
C420 C417 1.424 . S
C420 C419 1.384 . S
C420 H438 0.928 . S
C421 C418 1.260 . S
C421 C419 1.479 . S
C422 C417 1.245 . S
C422 C418 1.477 . S
C422 H439 0.932 . S
C423 U406 2.882 . S
C423 C417 1.428 . S
C423 O426 1.301 . S
C423 O427 1.282 . S
O424 U406 2.441 . S
O424 C410 1.249 . S
O425 U406 2.420 . S
O425 C410 1.202 . S
O426 U406 2.455 . S
O426 C423 1.301 . S
O427 U406 2.449 . S
O427 C423 1.282 . S
H428 C401 0.931 . S
H429 C403 0.929 . S
H430 C404 0.930 . S
H431 C405 0.931 . S
H432 C412 0.932 . S
H433 C413 0.930 . S
H434 C414 0.929 . S
H435 C416 0.930 . S
H436 C418 0.932 . S
H437 C419 0.929 . S
H438 C420 0.928 . S
H439 C422 0.932 . S
C440 C441 1.264 . S
C440 C445 1.479 . S
C440 C450 1.465 . S
C441 C440 1.264 . S
C441 C443 1.339 . S
C441 H468 0.931 . S
C442 C443 1.395 . S
C442 C444 1.320 . S
C443 C441 1.339 . S
C443 C442 1.395 . S
C443 H469 0.929 . S
C444 C442 1.320 . S
C444 C445 1.405 . S
C444 H470 0.930 . S
C445 C440 1.479 . S
C445 C444 1.405 . S
C445 H471 0.931 . S
U446 O447 2.454 . S
U446 O448 2.458 . S
U446 C449 2.984 . S
U446 C450 2.847 . S
U446 C463 2.882 . S
U446 O464 2.441 . S
U446 O465 2.420 . S
U446 O466 2.455 . S
U446 O467 2.449 . S
O447 U446 2.454 . S
O447 C449 1.353 . S
O448 U446 2.458 . S
O448 C449 1.286 . S
C449 U446 2.984 . S
C449 O447 1.353 . S
C449 O448 1.286 . S
C449 C451 1.363 . S
C450 C440 1.465 . S
C450 U446 2.847 . S
C450 O464 1.249 . S
C450 O465 1.202 . S
C451 C449 1.363 . S
C451 C453 1.408 . S
C451 C456 1.342 . S
C452 C453 1.310 . S
C452 C455 1.461 . S
C452 H472 0.932 . S
C453 C451 1.408 . S
C453 C452 1.310 . S
C453 H473 0.930 . S
C454 C455 1.474 . S
C454 C456 1.285 . S
C454 H474 0.929 . S
C455 C452 1.461 . S
C455 C454 1.474 . S
C456 C451 1.342 . S
C456 C454 1.285 . S
C456 H475 0.930 . S
C457 C460 1.424 . S
C457 C462 1.245 . S
C457 C463 1.428 . S
C458 C461 1.260 . S
C458 C462 1.477 . S
C458 H476 0.932 . S
C459 C460 1.384 . S
C459 C461 1.479 . S
C459 H477 0.929 . S
C460 C457 1.424 . S
C460 C459 1.384 . S
C460 H478 0.928 . S
C461 C458 1.260 . S
C461 C459 1.479 . S
C462 C457 1.245 . S
C462 C458 1.477 . S
C462 H479 0.932 . S
C463 U446 2.882 . S
C463 C457 1.428 . S
C463 O466 1.301 . S
C463 O467 1.282 . S
O464 U446 2.441 . S
O464 C450 1.249 . S
O465 U446 2.420 . S
O465 C450 1.202 . S
O466 U446 2.455 . S
O466 C463 1.301 . S
O467 U446 2.449 . S
O467 C463 1.282 . S
H468 C441 0.931 . S
H469 C443 0.929 . S
H470 C444 0.930 . S
H471 C445 0.931 . S
H472 C452 0.932 . S
H473 C453 0.930 . S
H474 C454 0.929 . S
H475 C456 0.930 . S
H476 C458 0.932 . S
H477 C459 0.929 . S
H478 C460 0.928 . S
H479 C462 0.932 . S
C480 C481 1.264 . S
C480 C485 1.479 . S
C480 C490 1.465 . S
C481 C480 1.264 . S
C481 C483 1.339 . S
C481 H508 0.931 . S
C482 C483 1.395 . S
C482 C484 1.320 . S
C483 C481 1.339 . S
C483 C482 1.395 . S
C483 H509 0.929 . S
C484 C482 1.320 . S
C484 C485 1.405 . S
C484 H510 0.930 . S
C485 C480 1.479 . S
C485 C484 1.405 . S
C485 H511 0.931 . S
U486 O487 2.454 . S
U486 O488 2.458 . S
U486 C489 2.984 . S
U486 C490 2.847 . S
U486 C503 2.882 . S
U486 O504 2.441 . S
U486 O505 2.420 . S
U486 O506 2.455 . S
U486 O507 2.449 . S
O487 U486 2.454 . S
O487 C489 1.353 . S
O488 U486 2.458 . S
O488 C489 1.286 . S
C489 U486 2.984 . S
C489 O487 1.353 . S
C489 O488 1.286 . S
C489 C491 1.363 . S
C490 C480 1.465 . S
C490 U486 2.847 . S
C490 O504 1.249 . S
C490 O505 1.202 . S
C491 C489 1.363 . S
C491 C493 1.408 . S
C491 C496 1.342 . S
C492 C493 1.310 . S
C492 C495 1.461 . S
C492 H512 0.932 . S
C493 C491 1.408 . S
C493 C492 1.310 . S
C493 H513 0.930 . S
C494 C495 1.474 . S
C494 C496 1.285 . S
C494 H514 0.929 . S
C495 C492 1.461 . S
C495 C494 1.474 . S
C496 C491 1.342 . S
C496 C494 1.285 . S
C496 H515 0.930 . S
C497 C500 1.424 . S
C497 C502 1.245 . S
C497 C503 1.428 . S
C498 C501 1.260 . S
C498 C502 1.477 . S
C498 H516 0.932 . S
C499 C500 1.384 . S
C499 C501 1.479 . S
C499 H517 0.929 . S
C500 C497 1.424 . S
C500 C499 1.384 . S
C500 H518 0.928 . S
C501 C498 1.260 . S
C501 C499 1.479 . S
C502 C497 1.245 . S
C502 C498 1.477 . S
C502 H519 0.932 . S
C503 U486 2.882 . S
C503 C497 1.428 . S
C503 O506 1.301 . S
C503 O507 1.282 . S
O504 U486 2.441 . S
O504 C490 1.249 . S
O505 U486 2.420 . S
O505 C490 1.202 . S
O506 U486 2.455 . S
O506 C503 1.301 . S
O507 U486 2.449 . S
O507 C503 1.282 . S
H508 C481 0.931 . S
H509 C483 0.929 . S
H510 C484 0.930 . S
H511 C485 0.931 . S
H512 C492 0.932 . S
H513 C493 0.930 . S
H514 C494 0.929 . S
H515 C496 0.930 . S
H516 C498 0.932 . S
H517 C499 0.929 . S
H518 C500 0.928 . S
H519 C502 0.932 . S
C520 C521 1.264 . S
C520 C525 1.479 . S
C520 C530 1.465 . S
C521 C520 1.264 . S
C521 C523 1.339 . S
C521 H548 0.931 . S
C522 C523 1.395 . S
C522 C524 1.320 . S
C523 C521 1.339 . S
C523 C522 1.395 . S
C523 H549 0.929 . S
C524 C522 1.320 . S
C524 C525 1.405 . S
C524 H550 0.930 . S
C525 C520 1.479 . S
C525 C524 1.405 . S
C525 H551 0.931 . S
U526 O527 2.454 . S
U526 O528 2.458 . S
U526 C529 2.984 . S
U526 C530 2.847 . S
U526 C543 2.882 . S
U526 O544 2.441 . S
U526 O545 2.420 . S
U526 O546 2.455 . S
U526 O547 2.449 . S
O527 U526 2.454 . S
O527 C529 1.353 . S
O528 U526 2.458 . S
O528 C529 1.286 . S
C529 U526 2.984 . S
C529 O527 1.353 . S
C529 O528 1.286 . S
C529 C531 1.363 . S
C530 C520 1.465 . S
C530 U526 2.847 . S
C530 O544 1.249 . S
C530 O545 1.202 . S
C531 C529 1.363 . S
C531 C533 1.408 . S
C531 C536 1.342 . S
C532 C533 1.310 . S
C532 C535 1.461 . S
C532 H552 0.932 . S
C533 C531 1.408 . S
C533 C532 1.310 . S
C533 H553 0.930 . S
C534 C535 1.474 . S
C534 C536 1.285 . S
C534 H554 0.929 . S
C535 C532 1.461 . S
C535 C534 1.474 . S
C536 C531 1.342 . S
C536 C534 1.285 . S
C536 H555 0.930 . S
C537 C540 1.424 . S
C537 C542 1.245 . S
C537 C543 1.428 . S
C538 C541 1.260 . S
C538 C542 1.477 . S
C538 H556 0.932 . S
C539 C540 1.384 . S
C539 C541 1.479 . S
C539 H557 0.929 . S
C540 C537 1.424 . S
C540 C539 1.384 . S
C540 H558 0.928 . S
C541 C538 1.260 . S
C541 C539 1.479 . S
C542 C537 1.245 . S
C542 C538 1.477 . S
C542 H559 0.932 . S
C543 U526 2.882 . S
C543 C537 1.428 . S
C543 O546 1.301 . S
C543 O547 1.282 . S
O544 U526 2.441 . S
O544 C530 1.249 . S
O545 U526 2.420 . S
O545 C530 1.202 . S
O546 U526 2.455 . S
O546 C543 1.301 . S
O547 U526 2.449 . S
O547 C543 1.282 . S
H548 C521 0.931 . S
H549 C523 0.929 . S
H550 C524 0.930 . S
H551 C525 0.931 . S
H552 C532 0.932 . S
H553 C533 0.930 . S
H554 C534 0.929 . S
H555 C536 0.930 . S
H556 C538 0.932 . S
H557 C539 0.929 . S
H558 C540 0.928 . S
H559 C542 0.932 . S
C560 C561 1.264 . S
C560 C565 1.479 . S
C560 C570 1.465 . S
C561 C560 1.264 . S
C561 C563 1.339 . S
C561 H588 0.931 . S
C562 C563 1.395 . S
C562 C564 1.320 . S
C563 C561 1.339 . S
C563 C562 1.395 . S
C563 H589 0.929 . S
C564 C562 1.320 . S
C564 C565 1.405 . S
C564 H590 0.930 . S
C565 C560 1.479 . S
C565 C564 1.405 . S
C565 H591 0.931 . S
U566 O567 2.454 . S
U566 O568 2.458 . S
U566 C569 2.984 . S
U566 C570 2.847 . S
U566 C583 2.882 . S
U566 O584 2.441 . S
U566 O585 2.420 . S
U566 O586 2.455 . S
U566 O587 2.449 . S
O567 U566 2.454 . S
O567 C569 1.353 . S
O568 U566 2.458 . S
O568 C569 1.286 . S
C569 U566 2.984 . S
C569 O567 1.353 . S
C569 O568 1.286 . S
C569 C571 1.363 . S
C570 C560 1.465 . S
C570 U566 2.847 . S
C570 O584 1.249 . S
C570 O585 1.202 . S
C571 C569 1.363 . S
C571 C573 1.408 . S
C571 C576 1.342 . S
C572 C573 1.310 . S
C572 C575 1.461 . S
C572 H592 0.932 . S
C573 C571 1.408 . S
C573 C572 1.310 . S
C573 H593 0.930 . S
C574 C575 1.474 . S
C574 C576 1.285 . S
C574 H594 0.929 . S
C575 C572 1.461 . S
C575 C574 1.474 . S
C576 C571 1.342 . S
C576 C574 1.285 . S
C576 H595 0.930 . S
C577 C580 1.424 . S
C577 C582 1.245 . S
C577 C583 1.428 . S
C578 C581 1.260 . S
C578 C582 1.477 . S
C578 H596 0.932 . S
C579 C580 1.384 . S
C579 C581 1.479 . S
C579 H597 0.929 . S
C580 C577 1.424 . S
C580 C579 1.384 . S
C580 H598 0.928 . S
C581 C578 1.260 . S
C581 C579 1.479 . S
C582 C577 1.245 . S
C582 C578 1.477 . S
C582 H599 0.932 . S
C583 U566 2.882 . S
C583 C577 1.428 . S
C583 O586 1.301 . S
C583 O587 1.282 . S
O584 U566 2.441 . S
O584 C570 1.249 . S
O585 U566 2.420 . S
O585 C570 1.202 . S
O586 U566 2.455 . S
O586 C583 1.301 . S
O587 U566 2.449 . S
O587 C583 1.282 . S
H588 C561 0.931 . S
H589 C563 0.929 . S
H590 C564 0.930 . S
H591 C565 0.931 . S
H592 C572 0.932 . S
H593 C573 0.930 . S
H594 C574 0.929 . S
H595 C576 0.930 . S
H596 C578 0.932 . S
H597 C579 0.929 . S
H598 C580 0.928 . S
H599 C582 0.932 . S
C600 C601 1.264 . S
C600 C605 1.479 . S
C600 C610 1.465 . S
C601 C600 1.264 . S
C601 C603 1.339 . S
C601 H628 0.931 . S
C602 C603 1.395 . S
C602 C604 1.320 . S
C603 C601 1.339 . S
C603 C602 1.395 . S
C603 H629 0.929 . S
C604 C602 1.320 . S
C604 C605 1.405 . S
C604 H630 0.930 . S
C605 C600 1.479 . S
C605 C604 1.405 . S
C605 H631 0.931 . S
U606 O607 2.454 . S
U606 O608 2.458 . S
U606 C609 2.984 . S
U606 C610 2.847 . S
U606 C623 2.882 . S
U606 O624 2.441 . S
U606 O625 2.420 . S
U606 O626 2.455 . S
U606 O627 2.449 . S
O607 U606 2.454 . S
O607 C609 1.353 . S
O608 U606 2.458 . S
O608 C609 1.286 . S
C609 U606 2.984 . S
C609 O607 1.353 . S
C609 O608 1.286 . S
C609 C611 1.363 . S
C610 C600 1.465 . S
C610 U606 2.847 . S
C610 O624 1.249 . S
C610 O625 1.202 . S
C611 C609 1.363 . S
C611 C613 1.408 . S
C611 C616 1.342 . S
C612 C613 1.310 . S
C612 C615 1.461 . S
C612 H632 0.932 . S
C613 C611 1.408 . S
C613 C612 1.310 . S
C613 H633 0.930 . S
C614 C615 1.474 . S
C614 C616 1.285 . S
C614 H634 0.929 . S
C615 C612 1.461 . S
C615 C614 1.474 . S
C616 C611 1.342 . S
C616 C614 1.285 . S
C616 H635 0.930 . S
C617 C620 1.424 . S
C617 C622 1.245 . S
C617 C623 1.428 . S
C618 C621 1.260 . S
C618 C622 1.477 . S
C618 H636 0.932 . S
C619 C620 1.384 . S
C619 C621 1.479 . S
C619 H637 0.929 . S
C620 C617 1.424 . S
C620 C619 1.384 . S
C620 H638 0.928 . S
C621 C618 1.260 . S
C621 C619 1.479 . S
C622 C617 1.245 . S
C622 C618 1.477 . S
C622 H639 0.932 . S
C623 U606 2.882 . S
C623 C617 1.428 . S
C623 O626 1.301 . S
C623 O627 1.282 . S
O624 U606 2.441 . S
O624 C610 1.249 . S
O625 U606 2.420 . S
O625 C610 1.202 . S
O626 U606 2.455 . S
O626 C623 1.301 . S
O627 U606 2.449 . S
O627 C623 1.282 . S
H628 C601 0.931 . S
H629 C603 0.929 . S
H630 C604 0.930 . S
H631 C605 0.931 . S
H632 C612 0.932 . S
H633 C613 0.930 . S
H634 C614 0.929 . S
H635 C616 0.930 . S
H636 C618 0.932 . S
H637 C619 0.929 . S
H638 C620 0.928 . S
H639 C622 0.932 . S
C640 C641 1.264 . S
C640 C645 1.479 . S
C640 C650 1.465 . S
C641 C640 1.264 . S
C641 C643 1.339 . S
C641 H668 0.931 . S
C642 C643 1.395 . S
C642 C644 1.320 . S
C643 C641 1.339 . S
C643 C642 1.395 . S
C643 H669 0.929 . S
C644 C642 1.320 . S
C644 C645 1.405 . S
C644 H670 0.930 . S
C645 C640 1.479 . S
C645 C644 1.405 . S
C645 H671 0.931 . S
U646 O647 2.454 . S
U646 O648 2.458 . S
U646 C649 2.984 . S
U646 C650 2.847 . S
U646 C663 2.882 . S
U646 O664 2.441 . S
U646 O665 2.420 . S
U646 O666 2.455 . S
U646 O667 2.449 . S
O647 U646 2.454 . S
O647 C649 1.353 . S
O648 U646 2.458 . S
O648 C649 1.286 . S
C649 U646 2.984 . S
C649 O647 1.353 . S
C649 O648 1.286 . S
C649 C651 1.363 . S
C650 C640 1.465 . S
C650 U646 2.847 . S
C650 O664 1.249 . S
C650 O665 1.202 . S
C651 C649 1.363 . S
C651 C653 1.408 . S
C651 C656 1.342 . S
C652 C653 1.310 . S
C652 C655 1.461 . S
C652 H672 0.932 . S
C653 C651 1.408 . S
C653 C652 1.310 . S
C653 H673 0.930 . S
C654 C655 1.474 . S
C654 C656 1.285 . S
C654 H674 0.929 . S
C655 C652 1.461 . S
C655 C654 1.474 . S
C656 C651 1.342 . S
C656 C654 1.285 . S
C656 H675 0.930 . S
C657 C660 1.424 . S
C657 C662 1.245 . S
C657 C663 1.428 . S
C658 C661 1.260 . S
C658 C662 1.477 . S
C658 H676 0.932 . S
C659 C660 1.384 . S
C659 C661 1.479 . S
C659 H677 0.929 . S
C660 C657 1.424 . S
C660 C659 1.384 . S
C660 H678 0.928 . S
C661 C658 1.260 . S
C661 C659 1.479 . S
C662 C657 1.245 . S
C662 C658 1.477 . S
C662 H679 0.932 . S
C663 U646 2.882 . S
C663 C657 1.428 . S
C663 O666 1.301 . S
C663 O667 1.282 . S
O664 U646 2.441 . S
O664 C650 1.249 . S
O665 U646 2.420 . S
O665 C650 1.202 . S
O666 U646 2.455 . S
O666 C663 1.301 . S
O667 U646 2.449 . S
O667 C663 1.282 . S
H668 C641 0.931 . S
H669 C643 0.929 . S
H670 C644 0.930 . S
H671 C645 0.931 . S
H672 C652 0.932 . S
H673 C653 0.930 . S
H674 C654 0.929 . S
H675 C656 0.930 . S
H676 C658 0.932 . S
H677 C659 0.929 . S
H678 C660 0.928 . S
H679 C662 0.932 . S
C680 C681 1.264 . S
C680 C685 1.479 . S
C680 C690 1.465 . S
C681 C680 1.264 . S
C681 C683 1.339 . S
C681 H708 0.931 . S
C682 C683 1.395 . S
C682 C684 1.320 . S
C683 C681 1.339 . S
C683 C682 1.395 . S
C683 H709 0.929 . S
C684 C682 1.320 . S
C684 C685 1.405 . S
C684 H710 0.930 . S
C685 C680 1.479 . S
C685 C684 1.405 . S
C685 H711 0.931 . S
U686 O687 2.454 . S
U686 O688 2.458 . S
U686 C689 2.984 . S
U686 C690 2.847 . S
U686 C703 2.882 . S
U686 O704 2.441 . S
U686 O705 2.420 . S
U686 O706 2.455 . S
U686 O707 2.449 . S
O687 U686 2.454 . S
O687 C689 1.353 . S
O688 U686 2.458 . S
O688 C689 1.286 . S
C689 U686 2.984 . S
C689 O687 1.353 . S
C689 O688 1.286 . S
C689 C691 1.363 . S
C690 C680 1.465 . S
C690 U686 2.847 . S
C690 O704 1.249 . S
C690 O705 1.202 . S
C691 C689 1.363 . S
C691 C693 1.408 . S
C691 C696 1.342 . S
C692 C693 1.310 . S
C692 C695 1.461 . S
C692 H712 0.932 . S
C693 C691 1.408 . S
C693 C692 1.310 . S
C693 H713 0.930 . S
C694 C695 1.474 . S
C694 C696 1.285 . S
C694 H714 0.929 . S
C695 C692 1.461 . S
C695 C694 1.474 . S
C696 C691 1.342 . S
C696 C694 1.285 . S
C696 H715 0.930 . S
C697 C700 1.424 . S
C697 C702 1.245 . S
C697 C703 1.428 . S
C698 C701 1.260 . S
C698 C702 1.477 . S
C698 H716 0.932 . S
C699 C700 1.384 . S
C699 C701 1.479 . S
C699 H717 0.929 . S
C700 C697 1.424 . S
C700 C699 1.384 . S
C700 H718 0.928 . S
C701 C698 1.260 . S
C701 C699 1.479 . S
C702 C697 1.245 . S
C702 C698 1.477 . S
C702 H719 0.932 . S
C703 U686 2.882 . S
C703 C697 1.428 . S
C703 O706 1.301 . S
C703 O707 1.282 . S
O704 U686 2.441 . S
O704 C690 1.249 . S
O705 U686 2.420 . S
O705 C690 1.202 . S
O706 U686 2.455 . S
O706 C703 1.301 . S
O707 U686 2.449 . S
O707 C703 1.282 . S
H708 C681 0.931 . S
H709 C683 0.929 . S
H710 C684 0.930 . S
H711 C685 0.931 . S
H712 C692 0.932 . S
H713 C693 0.930 . S
H714 C694 0.929 . S
H715 C696 0.930 . S
H716 C698 0.932 . S
H717 C699 0.929 . S
H718 C700 0.928 . S
H719 C702 0.932 . S
C720 C721 1.264 . S
C720 C725 1.479 . S
C720 C730 1.465 . S
C721 C720 1.264 . S
C721 C723 1.339 . S
C721 H748 0.931 . S
C722 C723 1.395 . S
C722 C724 1.320 . S
C723 C721 1.339 . S
C723 C722 1.395 . S
C723 H749 0.929 . S
C724 C722 1.320 . S
C724 C725 1.405 . S
C724 H750 0.930 . S
C725 C720 1.479 . S
C725 C724 1.405 . S
C725 H751 0.931 . S
U726 O727 2.454 . S
U726 O728 2.458 . S
U726 C729 2.984 . S
U726 C730 2.847 . S
U726 C743 2.882 . S
U726 O744 2.441 . S
U726 O745 2.420 . S
U726 O746 2.455 . S
U726 O747 2.449 . S
O727 U726 2.454 . S
O727 C729 1.353 . S
O728 U726 2.458 . S
O728 C729 1.286 . S
C729 U726 2.984 . S
C729 O727 1.353 . S
C729 O728 1.286 . S
C729 C731 1.363 . S
C730 C720 1.465 . S
C730 U726 2.847 . S
C730 O744 1.249 . S
C730 O745 1.202 . S
C731 C729 1.363 . S
C731 C733 1.408 . S
C731 C736 1.342 . S
C732 C733 1.310 . S
C732 C735 1.461 . S
C732 H752 0.932 . S
C733 C731 1.408 . S
C733 C732 1.310 . S
C733 H753 0.930 . S
C734 C735 1.474 . S
C734 C736 1.285 . S
C734 H754 0.929 . S
C735 C732 1.461 . S
C735 C734 1.474 . S
C736 C731 1.342 . S
C736 C734 1.285 . S
C736 H755 0.930 . S
C737 C740 1.424 . S
C737 C742 1.245 . S
C737 C743 1.428 . S
C738 C741 1.260 . S
C738 C742 1.477 . S
C738 H756 0.932 . S
C739 C740 1.384 . S
C739 C741 1.479 . S
C739 H757 0.929 . S
C740 C737 1.424 . S
C740 C739 1.384 . S
C740 H758 0.928 . S
C741 C738 1.260 . S
C741 C739 1.479 . S
C742 C737 1.245 . S
C742 C738 1.477 . S
C742 H759 0.932 . S
C743 U726 2.882 . S
C743 C737 1.428 . S
C743 O746 1.301 . S
C743 O747 1.282 . S
O744 U726 2.441 . S
O744 C730 1.249 . S
O745 U726 2.420 . S
O745 C730 1.202 . S
O746 U726 2.455 . S
O746 C743 1.301 . S
O747 U726 2.449 . S
O747 C743 1.282 . S
H748 C721 0.931 . S
H749 C723 0.929 . S
H750 C724 0.930 . S
H751 C725 0.931 . S
H752 C732 0.932 . S
H753 C733 0.930 . S
H754 C734 0.929 . S
H755 C736 0.930 . S
H756 C738 0.932 . S
H757 C739 0.929 . S
H758 C740 0.928 . S
H759 C742 0.932 . S
C760 C761 1.264 . S
C760 C765 1.479 . S
C760 C770 1.465 . S
C761 C760 1.264 . S
C761 C763 1.339 . S
C761 H788 0.931 . S
C762 C763 1.395 . S
C762 C764 1.320 . S
C763 C761 1.339 . S
C763 C762 1.395 . S
C763 H789 0.929 . S
C764 C762 1.320 . S
C764 C765 1.405 . S
C764 H790 0.930 . S
C765 C760 1.479 . S
C765 C764 1.405 . S
C765 H791 0.931 . S
U766 O767 2.454 . S
U766 O768 2.458 . S
U766 C769 2.984 . S
U766 C770 2.847 . S
U766 C783 2.882 . S
U766 O784 2.441 . S
U766 O785 2.420 . S
U766 O786 2.455 . S
U766 O787 2.449 . S
O767 U766 2.454 . S
O767 C769 1.353 . S
O768 U766 2.458 . S
O768 C769 1.286 . S
C769 U766 2.984 . S
C769 O767 1.353 . S
C769 O768 1.286 . S
C769 C771 1.363 . S
C770 C760 1.465 . S
C770 U766 2.847 . S
C770 O784 1.249 . S
C770 O785 1.202 . S
C771 C769 1.363 . S
C771 C773 1.408 . S
C771 C776 1.342 . S
C772 C773 1.310 . S
C772 C775 1.461 . S
C772 H792 0.932 . S
C773 C771 1.408 . S
C773 C772 1.310 . S
C773 H793 0.930 . S
C774 C775 1.474 . S
C774 C776 1.285 . S
C774 H794 0.929 . S
C775 C772 1.461 . S
C775 C774 1.474 . S
C776 C771 1.342 . S
C776 C774 1.285 . S
C776 H795 0.930 . S
C777 C780 1.424 . S
C777 C782 1.245 . S
C777 C783 1.428 . S
C778 C781 1.260 . S
C778 C782 1.477 . S
C778 H796 0.932 . S
C779 C780 1.384 . S
C779 C781 1.479 . S
C779 H797 0.929 . S
C780 C777 1.424 . S
C780 C779 1.384 . S
C780 H798 0.928 . S
C781 C778 1.260 . S
C781 C779 1.479 . S
C782 C777 1.245 . S
C782 C778 1.477 . S
C782 H799 0.932 . S
C783 U766 2.882 . S
C783 C777 1.428 . S
C783 O786 1.301 . S
C783 O787 1.282 . S
O784 U766 2.441 . S
O784 C770 1.249 . S
O785 U766 2.420 . S
O785 C770 1.202 . S
O786 U766 2.455 . S
O786 C783 1.301 . S
O787 U766 2.449 . S
O787 C783 1.282 . S
H788 C761 0.931 . S
H789 C763 0.929 . S
H790 C764 0.930 . S
H791 C765 0.931 . S
H792 C772 0.932 . S
H793 C773 0.930 . S
H794 C774 0.929 . S
H795 C776 0.930 . S
H796 C778 0.932 . S
H797 C779 0.929 . S
H798 C780 0.928 . S
H799 C782 0.932 . S
C800 C801 1.264 . S
C800 C805 1.479 . S
C800 C810 1.465 . S
C801 C800 1.264 . S
C801 C803 1.339 . S
C801 H828 0.931 . S
C802 C803 1.395 . S
C802 C804 1.320 . S
C803 C801 1.339 . S
C803 C802 1.395 . S
C803 H829 0.929 . S
C804 C802 1.320 . S
C804 C805 1.405 . S
C804 H830 0.930 . S
C805 C800 1.479 . S
C805 C804 1.405 . S
C805 H831 0.931 . S
U806 O807 2.454 . S
U806 O808 2.458 . S
U806 C809 2.984 . S
U806 C810 2.847 . S
U806 C823 2.882 . S
U806 O824 2.441 . S
U806 O825 2.420 . S
U806 O826 2.455 . S
U806 O827 2.449 . S
O807 U806 2.454 . S
O807 C809 1.353 . S
O808 U806 2.458 . S
O808 C809 1.286 . S
C809 U806 2.984 . S
C809 O807 1.353 . S
C809 O808 1.286 . S
C809 C811 1.363 . S
C810 C800 1.465 . S
C810 U806 2.847 . S
C810 O824 1.249 . S
C810 O825 1.202 . S
C811 C809 1.363 . S
C811 C813 1.408 . S
C811 C816 1.342 . S
C812 C813 1.310 . S
C812 C815 1.461 . S
C812 H832 0.932 . S
C813 C811 1.408 . S
C813 C812 1.310 . S
C813 H833 0.930 . S
C814 C815 1.474 . S
C814 C816 1.285 . S
C814 H834 0.929 . S
C815 C812 1.461 . S
C815 C814 1.474 . S
C816 C811 1.342 . S
C816 C814 1.285 . S
C816 H835 0.930 . S
C817 C820 1.424 . S
C817 C822 1.245 . S
C817 C823 1.428 . S
C818 C821 1.260 . S
C818 C822 1.477 . S
C818 H836 0.932 . S
C819 C820 1.384 . S
C819 C821 1.479 . S
C819 H837 0.929 . S
C820 C817 1.424 . S
C820 C819 1.384 . S
C820 H838 0.928 . S
C821 C818 1.260 . S
C821 C819 1.479 . S
C822 C817 1.245 . S
C822 C818 1.477 . S
C822 H839 0.932 . S
C823 U806 2.882 . S
C823 C817 1.428 . S
C823 O826 1.301 . S
C823 O827 1.282 . S
O824 U806 2.441 . S
O824 C810 1.249 . S
O825 U806 2.420 . S
O825 C810 1.202 . S
O826 U806 2.455 . S
O826 C823 1.301 . S
O827 U806 2.449 . S
O827 C823 1.282 . S
H828 C801 0.931 . S
H829 C803 0.929 . S
H830 C804 0.930 . S
H831 C805 0.931 . S
H832 C812 0.932 . S
H833 C813 0.930 . S
H834 C814 0.929 . S
H835 C816 0.930 . S
H836 C818 0.932 . S
H837 C819 0.929 . S
H838 C820 0.928 . S
H839 C822 0.932 . S
C840 C841 1.264 . S
C840 C845 1.479 . S
C840 C850 1.465 . S
C841 C840 1.264 . S
C841 C843 1.339 . S
C841 H868 0.931 . S
C842 C843 1.395 . S
C842 C844 1.320 . S
C843 C841 1.339 . S
C843 C842 1.395 . S
C843 H869 0.929 . S
C844 C842 1.320 . S
C844 C845 1.405 . S
C844 H870 0.930 . S
C845 C840 1.479 . S
C845 C844 1.405 . S
C845 H871 0.931 . S
U846 O847 2.454 . S
U846 O848 2.458 . S
U846 C849 2.984 . S
U846 C850 2.847 . S
U846 C863 2.882 . S
U846 O864 2.441 . S
U846 O865 2.420 . S
U846 O866 2.455 . S
U846 O867 2.449 . S
O847 U846 2.454 . S
O847 C849 1.353 . S
O848 U846 2.458 . S
O848 C849 1.286 . S
C849 U846 2.984 . S
C849 O847 1.353 . S
C849 O848 1.286 . S
C849 C851 1.363 . S
C850 C840 1.465 . S
C850 U846 2.847 . S
C850 O864 1.249 . S
C850 O865 1.202 . S
C851 C849 1.363 . S
C851 C853 1.408 . S
C851 C856 1.342 . S
C852 C853 1.310 . S
C852 C855 1.461 . S
C852 H872 0.932 . S
C853 C851 1.408 . S
C853 C852 1.310 . S
C853 H873 0.930 . S
C854 C855 1.474 . S
C854 C856 1.285 . S
C854 H874 0.929 . S
C855 C852 1.461 . S
C855 C854 1.474 . S
C856 C851 1.342 . S
C856 C854 1.285 . S
C856 H875 0.930 . S
C857 C860 1.424 . S
C857 C862 1.245 . S
C857 C863 1.428 . S
C858 C861 1.260 . S
C858 C862 1.477 . S
C858 H876 0.932 . S
C859 C860 1.384 . S
C859 C861 1.479 . S
C859 H877 0.929 . S
C860 C857 1.424 . S
C860 C859 1.384 . S
C860 H878 0.928 . S
C861 C858 1.260 . S
C861 C859 1.479 . S
C862 C857 1.245 . S
C862 C858 1.477 . S
C862 H879 0.932 . S
C863 U846 2.882 . S
C863 C857 1.428 . S
C863 O866 1.301 . S
C863 O867 1.282 . S
O864 U846 2.441 . S
O864 C850 1.249 . S
O865 U846 2.420 . S
O865 C850 1.202 . S
O866 U846 2.455 . S
O866 C863 1.301 . S
O867 U846 2.449 . S
O867 C863 1.282 . S
H868 C841 0.931 . S
H869 C843 0.929 . S
H870 C844 0.930 . S
H871 C845 0.931 . S
H872 C852 0.932 . S
H873 C853 0.930 . S
H874 C854 0.929 . S
H875 C856 0.930 . S
H876 C858 0.932 . S
H877 C859 0.929 . S
H878 C860 0.928 . S
H879 C862 0.932 . S
C880 C881 1.264 . S
C880 C885 1.479 . S
C880 C890 1.465 . S
C881 C880 1.264 . S
C881 C883 1.339 . S
C881 H908 0.931 . S
C882 C883 1.395 . S
C882 C884 1.320 . S
C883 C881 1.339 . S
C883 C882 1.395 . S
C883 H909 0.929 . S
C884 C882 1.320 . S
C884 C885 1.405 . S
C884 H910 0.930 . S
C885 C880 1.479 . S
C885 C884 1.405 . S
C885 H911 0.931 . S
U886 O887 2.454 . S
U886 O888 2.458 . S
U886 C889 2.984 . S
U886 C890 2.847 . S
U886 C903 2.882 . S
U886 O904 2.441 . S
U886 O905 2.420 . S
U886 O906 2.455 . S
U886 O907 2.449 . S
O887 U886 2.454 . S
O887 C889 1.353 . S
O888 U886 2.458 . S
O888 C889 1.286 . S
C889 U886 2.984 . S
C889 O887 1.353 . S
C889 O888 1.286 . S
C889 C891 1.363 . S
C890 C880 1.465 . S
C890 U886 2.847 . S
C890 O904 1.249 . S
C890 O905 1.202 . S
C891 C889 1.363 . S
C891 C893 1.408 . S
C891 C896 1.342 . S
C892 C893 1.310 . S
C892 C895 1.461 . S
C892 H912 0.932 . S
C893 C891 1.408 . S
C893 C892 1.310 . S
C893 H913 0.930 . S
C894 C895 1.474 . S
C894 C896 1.285 . S
C894 H914 0.929 . S
C895 C892 1.461 . S
C895 C894 1.474 . S
C896 C891 1.342 . S
C896 C894 1.285 . S
C896 H915 0.930 . S
C897 C900 1.424 . S
C897 C902 1.245 . S
C897 C903 1.428 . S
C898 C901 1.260 . S
C898 C902 1.477 . S
C898 H916 0.932 . S
C899 C900 1.384 . S
C899 C901 1.479 . S
C899 H917 0.929 . S
C900 C897 1.424 . S
C900 C899 1.384 . S
C900 H918 0.928 . S
C901 C898 1.260 . S
C901 C899 1.479 . S
C902 C897 1.245 . S
C902 C898 1.477 . S
C902 H919 0.932 . S
C903 U886 2.882 . S
C903 C897 1.428 . S
C903 O906 1.301 . S
C903 O907 1.282 . S
O904 U886 2.441 . S
O904 C890 1.249 . S
O905 U886 2.420 . S
O905 C890 1.202 . S
O906 U886 2.455 . S
O906 C903 1.301 . S
O907 U886 2.449 . S
O907 C903 1.282 . S
H908 C881 0.931 . S
H909 C883 0.929 . S
H910 C884 0.930 . S
H911 C885 0.931 . S
H912 C892 0.932 . S
H913 C893 0.930 . S
H914 C894 0.929 . S
H915 C896 0.930 . S
H916 C898 0.932 . S
H917 C899 0.929 . S
H918 C900 0.928 . S
H919 C902 0.932 . S
C920 C921 1.264 . S
C920 C925 1.479 . S
C920 C930 1.465 . S
C921 C920 1.264 . S
C921 C923 1.339 . S
C921 H948 0.931 . S
C922 C923 1.395 . S
C922 C924 1.320 . S
C923 C921 1.339 . S
C923 C922 1.395 . S
C923 H949 0.929 . S
C924 C922 1.320 . S
C924 C925 1.405 . S
C924 H950 0.930 . S
C925 C920 1.479 . S
C925 C924 1.405 . S
C925 H951 0.931 . S
U926 O927 2.454 . S
U926 O928 2.458 . S
U926 C929 2.984 . S
U926 C930 2.847 . S
U926 C943 2.882 . S
U926 O944 2.441 . S
U926 O945 2.420 . S
U926 O946 2.455 . S
U926 O947 2.449 . S
O927 U926 2.454 . S
O927 C929 1.353 . S
O928 U926 2.458 . S
O928 C929 1.286 . S
C929 U926 2.984 . S
C929 O927 1.353 . S
C929 O928 1.286 . S
C929 C931 1.363 . S
C930 C920 1.465 . S
C930 U926 2.847 . S
C930 O944 1.249 . S
C930 O945 1.202 . S
C931 C929 1.363 . S
C931 C933 1.408 . S
C931 C936 1.342 . S
C932 C933 1.310 . S
C932 C935 1.461 . S
C932 H952 0.932 . S
C933 C931 1.408 . S
C933 C932 1.310 . S
C933 H953 0.930 . S
C934 C935 1.474 . S
C934 C936 1.285 . S
C934 H954 0.929 . S
C935 C932 1.461 . S
C935 C934 1.474 . S
C936 C931 1.342 . S
C936 C934 1.285 . S
C936 H955 0.930 . S
C937 C940 1.424 . S
C937 C942 1.245 . S
C937 C943 1.428 . S
C938 C941 1.260 . S
C938 C942 1.477 . S
C938 H956 0.932 . S
C939 C940 1.384 . S
C939 C941 1.479 . S
C939 H957 0.929 . S
C940 C937 1.424 . S
C940 C939 1.384 . S
C940 H958 0.928 . S
C941 C938 1.260 . S
C941 C939 1.479 . S
C942 C937 1.245 . S
C942 C938 1.477 . S
C942 H959 0.932 . S
C943 U926 2.882 . S
C943 C937 1.428 . S
C943 O946 1.301 . S
C943 O947 1.282 . S
O944 U926 2.441 . S
O944 C930 1.249 . S
O945 U926 2.420 . S
O945 C930 1.202 . S
O946 U926 2.455 . S
O946 C943 1.301 . S
O947 U926 2.449 . S
O947 C943 1.282 . S
H948 C921 0.931 . S
H949 C923 0.929 . S
H950 C924 0.930 . S
H951 C925 0.931 . S
H952 C932 0.932 . S
H953 C933 0.930 . S
H954 C934 0.929 . S
H955 C936 0.930 . S
H956 C938 0.932 . S
H957 C939 0.929 . S
H958 C940 0.928 . S
H959 C942 0.932 . S
C960 C961 1.264 . S
C960 C965 1.479 . S
C960 C970 1.465 . S
C961 C960 1.264 . S
C961 C963 1.339 . S
C961 H988 0.931 . S
C962 C963 1.395 . S
C962 C964 1.320 . S
C963 C961 1.339 . S
C963 C962 1.395 . S
C963 H989 0.929 . S
C964 C962 1.320 . S
C964 C965 1.405 . S
C964 H990 0.930 . S
C965 C960 1.479 . S
C965 C964 1.405 . S
C965 H991 0.931 . S
U966 O967 2.454 . S
U966 O968 2.458 . S
U966 C969 2.984 . S
U966 C970 2.847 . S
U966 C983 2.882 . S
U966 O984 2.441 . S
U966 O985 2.420 . S
U966 O986 2.455 . S
U966 O987 2.449 . S
O967 U966 2.454 . S
O967 C969 1.353 . S
O968 U966 2.458 . S
O968 C969 1.286 . S
C969 U966 2.984 . S
C969 O967 1.353 . S
C969 O968 1.286 . S
C969 C971 1.363 . S
C970 C960 1.465 . S
C970 U966 2.847 . S
C970 O984 1.249 . S
C970 O985 1.202 . S
C971 C969 1.363 . S
C971 C973 1.408 . S
C971 C976 1.342 . S
C972 C973 1.310 . S
C972 C975 1.461 . S
C972 H992 0.932 . S
C973 C971 1.408 . S
C973 C972 1.310 . S
C973 H993 0.930 . S
C974 C975 1.474 . S
C974 C976 1.285 . S
C974 H994 0.929 . S
C975 C972 1.461 . S
C975 C974 1.474 . S
C976 C971 1.342 . S
C976 C974 1.285 . S
C976 H995 0.930 . S
C977 C980 1.424 . S
C977 C982 1.245 . S
C977 C983 1.428 . S
C978 C981 1.260 . S
C978 C982 1.477 . S
C978 H996 0.932 . S
C979 C980 1.384 . S
C979 C981 1.479 . S
C979 H997 0.929 . S
C980 C977 1.424 . S
C980 C979 1.384 . S
C980 H998 0.928 . S
C981 C978 1.260 . S
C981 C979 1.479 . S
C982 C977 1.245 . S
C982 C978 1.477 . S
C982 H999 0.932 . S
C983 U966 2.882 . S
C983 C977 1.428 . S
C983 O986 1.301 . S
C983 O987 1.282 . S
O984 U966 2.441 . S
O984 C970 1.249 . S
O985 U966 2.420 . S
O985 C970 1.202 . S
O986 U966 2.455 . S
O986 C983 1.301 . S
O987 U966 2.449 . S
O987 C983 1.282 . S
H988 C961 0.931 . S
H989 C963 0.929 . S
H990 C964 0.930 . S
H991 C965 0.931 . S
H992 C972 0.932 . S
H993 C973 0.930 . S
H994 C974 0.929 . S
H995 C976 0.930 . S
H996 C978 0.932 . S
H997 C979 0.929 . S
H998 C980 0.928 . S
H999 C982 0.932 . S
C1000 C1001 1.264 . S
C1000 C1005 1.479 . S
C1000 C1010 1.465 . S
C1001 C1000 1.264 . S
C1001 C1003 1.339 . S
C1001 H1028 0.931 . S
C1002 C1003 1.395 . S
C1002 C1004 1.320 . S
C1003 C1001 1.339 . S
C1003 C1002 1.395 . S
C1003 H1029 0.929 . S
C1004 C1002 1.320 . S
C1004 C1005 1.405 . S
C1004 H1030 0.930 . S
C1005 C1000 1.479 . S
C1005 C1004 1.405 . S
C1005 H1031 0.931 . S
U1006 O1007 2.454 . S
U1006 O1008 2.458 . S
U1006 C1009 2.984 . S
U1006 C1010 2.847 . S
U1006 C1023 2.882 . S
U1006 O1024 2.441 . S
U1006 O1025 2.420 . S
U1006 O1026 2.455 . S
U1006 O1027 2.449 . S
O1007 U1006 2.454 . S
O1007 C1009 1.353 . S
O1008 U1006 2.458 . S
O1008 C1009 1.286 . S
C1009 U1006 2.984 . S
C1009 O1007 1.353 . S
C1009 O1008 1.286 . S
C1009 C1011 1.363 . S
C1010 C1000 1.465 . S
C1010 U1006 2.847 . S
C1010 O1024 1.249 . S
C1010 O1025 1.202 . S
C1011 C1009 1.363 . S
C1011 C1013 1.408 . S
C1011 C1016 1.342 . S
C1012 C1013 1.310 . S
C1012 C1015 1.461 . S
C1012 H1032 0.932 . S
C1013 C1011 1.408 . S
C1013 C1012 1.310 . S
C1013 H1033 0.930 . S
C1014 C1015 1.474 . S
C1014 C1016 1.285 . S
C1014 H1034 0.929 . S
C1015 C1012 1.461 . S
C1015 C1014 1.474 . S
C1016 C1011 1.342 . S
C1016 C1014 1.285 . S
C1016 H1035 0.930 . S
C1017 C1020 1.424 . S
C1017 C1022 1.245 . S
C1017 C1023 1.428 . S
C1018 C1021 1.260 . S
C1018 C1022 1.477 . S
C1018 H1036 0.932 . S
C1019 C1020 1.384 . S
C1019 C1021 1.479 . S
C1019 H1037 0.929 . S
C1020 C1017 1.424 . S
C1020 C1019 1.384 . S
C1020 H1038 0.928 . S
C1021 C1018 1.260 . S
C1021 C1019 1.479 . S
C1022 C1017 1.245 . S
C1022 C1018 1.477 . S
C1022 H1039 0.932 . S
C1023 U1006 2.882 . S
C1023 C1017 1.428 . S
C1023 O1026 1.301 . S
C1023 O1027 1.282 . S
O1024 U1006 2.441 . S
O1024 C1010 1.249 . S
O1025 U1006 2.420 . S
O1025 C1010 1.202 . S
O1026 U1006 2.455 . S
O1026 C1023 1.301 . S
O1027 U1006 2.449 . S
O1027 C1023 1.282 . S
H1028 C1001 0.931 . S
H1029 C1003 0.929 . S
H1030 C1004 0.930 . S
H1031 C1005 0.931 . S
H1032 C1012 0.932 . S
H1033 C1013 0.930 . S
H1034 C1014 0.929 . S
H1035 C1016 0.930 . S
H1036 C1018 0.932 . S
H1037 C1019 0.929 . S
H1038 C1020 0.928 . S
H1039 C1022 0.932 . S
C1040 C1041 1.264 . S
C1040 C1045 1.479 . S
C1040 C1050 1.465 . S
C1041 C1040 1.264 . S
C1041 C1043 1.339 . S
C1041 H1068 0.931 . S
C1042 C1043 1.395 . S
C1042 C1044 1.320 . S
C1043 C1041 1.339 . S
C1043 C1042 1.395 . S
C1043 H1069 0.929 . S
C1044 C1042 1.320 . S
C1044 C1045 1.405 . S
C1044 H1070 0.930 . S
C1045 C1040 1.479 . S
C1045 C1044 1.405 . S
C1045 H1071 0.931 . S
U1046 O1047 2.454 . S
U1046 O1048 2.458 . S
U1046 C1049 2.984 . S
U1046 C1050 2.847 . S
U1046 C1063 2.882 . S
U1046 O1064 2.441 . S
U1046 O1065 2.420 . S
U1046 O1066 2.455 . S
U1046 O1067 2.449 . S
O1047 U1046 2.454 . S
O1047 C1049 1.353 . S
O1048 U1046 2.458 . S
O1048 C1049 1.286 . S
C1049 U1046 2.984 . S
C1049 O1047 1.353 . S
C1049 O1048 1.286 . S
C1049 C1051 1.363 . S
C1050 C1040 1.465 . S
C1050 U1046 2.847 . S
C1050 O1064 1.249 . S
C1050 O1065 1.202 . S
C1051 C1049 1.363 . S
C1051 C1053 1.408 . S
C1051 C1056 1.342 . S
C1052 C1053 1.310 . S
C1052 C1055 1.461 . S
C1052 H1072 0.932 . S
C1053 C1051 1.408 . S
C1053 C1052 1.310 . S
C1053 H1073 0.930 . S
C1054 C1055 1.474 . S
C1054 C1056 1.285 . S
C1054 H1074 0.929 . S
C1055 C1052 1.461 . S
C1055 C1054 1.474 . S
C1056 C1051 1.342 . S
C1056 C1054 1.285 . S
C1056 H1075 0.930 . S
C1057 C1060 1.424 . S
C1057 C1062 1.245 . S
C1057 C1063 1.428 . S
C1058 C1061 1.260 . S
C1058 C1062 1.477 . S
C1058 H1076 0.932 . S
C1059 C1060 1.384 . S
C1059 C1061 1.479 . S
C1059 H1077 0.929 . S
C1060 C1057 1.424 . S
C1060 C1059 1.384 . S
C1060 H1078 0.928 . S
C1061 C1058 1.260 . S
C1061 C1059 1.479 . S
C1062 C1057 1.245 . S
C1062 C1058 1.477 . S
C1062 H1079 0.932 . S
C1063 U1046 2.882 . S
C1063 C1057 1.428 . S
C1063 O1066 1.301 . S
C1063 O1067 1.282 . S
O1064 U1046 2.441 . S
O1064 C1050 1.249 . S
O1065 U1046 2.420 . S
O1065 C1050 1.202 . S
O1066 U1046 2.455 . S
O1066 C1063 1.301 . S
O1067 U1046 2.449 . S
O1067 C1063 1.282 . S
H1068 C1041 0.931 . S
H1069 C1043 0.929 . S
H1070 C1044 0.930 . S
H1071 C1045 0.931 . S
H1072 C1052 0.932 . S
H1073 C1053 0.930 . S
H1074 C1054 0.929 . S
H1075 C1056 0.930 . S
H1076 C1058 0.932 . S
H1077 C1059 0.929 . S
H1078 C1060 0.928 . S
H1079 C1062 0.932 . S
C1080 C1081 1.264 . S
C1080 C1085 1.479 . S
C1080 C1090 1.465 . S
C1081 C1080 1.264 . S
C1081 C1083 1.339 . S
C1081 H1108 0.931 . S
C1082 C1083 1.395 . S
C1082 C1084 1.320 . S
C1083 C1081 1.339 . S
C1083 C1082 1.395 . S
C1083 H1109 0.929 . S
C1084 C1082 1.320 . S
C1084 C1085 1.405 . S
C1084 H1110 0.930 . S
C1085 C1080 1.479 . S
C1085 C1084 1.405 . S
C1085 H1111 0.931 . S
U1086 O1087 2.454 . S
U1086 O1088 2.458 . S
U1086 C1089 2.984 . S
U1086 C1090 2.847 . S
U1086 C1103 2.882 . S
U1086 O1104 2.441 . S
U1086 O1105 2.420 . S
U1086 O1106 2.455 . S
U1086 O1107 2.449 . S
O1087 U1086 2.454 . S
O1087 C1089 1.353 . S
O1088 U1086 2.458 . S
O1088 C1089 1.286 . S
C1089 U1086 2.984 . S
C1089 O1087 1.353 . S
C1089 O1088 1.286 . S
C1089 C1091 1.363 . S
C1090 C1080 1.465 . S
C1090 U1086 2.847 . S
C1090 O1104 1.249 . S
C1090 O1105 1.202 . S
C1091 C1089 1.363 . S
C1091 C1093 1.408 . S
C1091 C1096 1.342 . S
C1092 C1093 1.310 . S
C1092 C1095 1.461 . S
C1092 H1112 0.932 . S
C1093 C1091 1.408 . S
C1093 C1092 1.310 . S
C1093 H1113 0.930 . S
C1094 C1095 1.474 . S
C1094 C1096 1.285 . S
C1094 H1114 0.929 . S
C1095 C1092 1.461 . S
C1095 C1094 1.474 . S
C1096 C1091 1.342 . S
C1096 C1094 1.285 . S
C1096 H1115 0.930 . S
C1097 C1100 1.424 . S
C1097 C1102 1.245 . S
C1097 C1103 1.428 . S
C1098 C1101 1.260 . S
C1098 C1102 1.477 . S
C1098 H1116 0.932 . S
C1099 C1100 1.384 . S
C1099 C1101 1.479 . S
C1099 H1117 0.929 . S
C1100 C1097 1.424 . S
C1100 C1099 1.384 . S
C1100 H1118 0.928 . S
C1101 C1098 1.260 . S
C1101 C1099 1.479 . S
C1102 C1097 1.245 . S
C1102 C1098 1.477 . S
C1102 H1119 0.932 . S
C1103 U1086 2.882 . S
C1103 C1097 1.428 . S
C1103 O1106 1.301 . S
C1103 O1107 1.282 . S
O1104 U1086 2.441 . S
O1104 C1090 1.249 . S
O1105 U1086 2.420 . S
O1105 C1090 1.202 . S
O1106 U1086 2.455 . S
O1106 C1103 1.301 . S
O1107 U1086 2.449 . S
O1107 C1103 1.282 . S
H1108 C1081 0.931 . S
H1109 C1083 0.929 . S
H1110 C1084 0.930 . S
H1111 C1085 0.931 . S
H1112 C1092 0.932 . S
H1113 C1093 0.930 . S
H1114 C1094 0.929 . S
H1115 C1096 0.930 . S
H1116 C1098 0.932 . S
H1117 C1099 0.929 . S
H1118 C1100 0.928 . S
H1119 C1102 0.932 . S
C1120 C1121 1.264 . S
C1120 C1125 1.479 . S
C1120 C1130 1.465 . S
C1121 C1120 1.264 . S
C1121 C1123 1.339 . S
C1121 H1148 0.931 . S
C1122 C1123 1.395 . S
C1122 C1124 1.320 . S
C1123 C1121 1.339 . S
C1123 C1122 1.395 . S
C1123 H1149 0.929 . S
C1124 C1122 1.320 . S
C1124 C1125 1.405 . S
C1124 H1150 0.930 . S
C1125 C1120 1.479 . S
C1125 C1124 1.405 . S
C1125 H1151 0.931 . S
U1126 O1127 2.454 . S
U1126 O1128 2.458 . S
U1126 C1129 2.984 . S
U1126 C1130 2.847 . S
U1126 C1143 2.882 . S
U1126 O1144 2.441 . S
U1126 O1145 2.420 . S
U1126 O1146 2.455 . S
U1126 O1147 2.449 . S
O1127 U1126 2.454 . S
O1127 C1129 1.353 . S
O1128 U1126 2.458 . S
O1128 C1129 1.286 . S
C1129 U1126 2.984 . S
C1129 O1127 1.353 . S
C1129 O1128 1.286 . S
C1129 C1131 1.363 . S
C1130 C1120 1.465 . S
C1130 U1126 2.847 . S
C1130 O1144 1.249 . S
C1130 O1145 1.202 . S
C1131 C1129 1.363 . S
C1131 C1133 1.408 . S
C1131 C1136 1.342 . S
C1132 C1133 1.310 . S
C1132 C1135 1.461 . S
C1132 H1152 0.932 . S
C1133 C1131 1.408 . S
C1133 C1132 1.310 . S
C1133 H1153 0.930 . S
C1134 C1135 1.474 . S
C1134 C1136 1.285 . S
C1134 H1154 0.929 . S
C1135 C1132 1.461 . S
C1135 C1134 1.474 . S
C1136 C1131 1.342 . S
C1136 C1134 1.285 . S
C1136 H1155 0.930 . S
C1137 C1140 1.424 . S
C1137 C1142 1.245 . S
C1137 C1143 1.428 . S
C1138 C1141 1.260 . S
C1138 C1142 1.477 . S
C1138 H1156 0.932 . S
C1139 C1140 1.384 . S
C1139 C1141 1.479 . S
C1139 H1157 0.929 . S
C1140 C1137 1.424 . S
C1140 C1139 1.384 . S
C1140 H1158 0.928 . S
C1141 C1138 1.260 . S
C1141 C1139 1.479 . S
C1142 C1137 1.245 . S
C1142 C1138 1.477 . S
C1142 H1159 0.932 . S
C1143 U1126 2.882 . S
C1143 C1137 1.428 . S
C1143 O1146 1.301 . S
C1143 O1147 1.282 . S
O1144 U1126 2.441 . S
O1144 C1130 1.249 . S
O1145 U1126 2.420 . S
O1145 C1130 1.202 . S
O1146 U1126 2.455 . S
O1146 C1143 1.301 . S
O1147 U1126 2.449 . S
O1147 C1143 1.282 . S
H1148 C1121 0.931 . S
H1149 C1123 0.929 . S
H1150 C1124 0.930 . S
H1151 C1125 0.931 . S
H1152 C1132 0.932 . S
H1153 C1133 0.930 . S
H1154 C1134 0.929 . S
H1155 C1136 0.930 . S
H1156 C1138 0.932 . S
H1157 C1139 0.929 . S
H1158 C1140 0.928 . S
H1159 C1142 0.932 . S
C1160 C1161 1.264 . S
C1160 C1165 1.479 . S
C1160 C1170 1.465 . S
C1161 C1160 1.264 . S
C1161 C1163 1.339 . S
C1161 H1188 0.931 . S
C1162 C1163 1.395 . S
C1162 C1164 1.320 . S
C1163 C1161 1.339 . S
C1163 C1162 1.395 . S
C1163 H1189 0.929 . S
C1164 C1162 1.320 . S
C1164 C1165 1.405 . S
C1164 H1190 0.930 . S
C1165 C1160 1.479 . S
C1165 C1164 1.405 . S
C1165 H1191 0.931 . S
U1166 O1167 2.454 . S
U1166 O1168 2.458 . S
U1166 C1169 2.984 . S
U1166 C1170 2.847 . S
U1166 C1183 2.882 . S
U1166 O1184 2.441 . S
U1166 O1185 2.420 . S
U1166 O1186 2.455 . S
U1166 O1187 2.449 . S
O1167 U1166 2.454 . S
O1167 C1169 1.353 . S
O1168 U1166 2.458 . S
O1168 C1169 1.286 . S
C1169 U1166 2.984 . S
C1169 O1167 1.353 . S
C1169 O1168 1.286 . S
C1169 C1171 1.363 . S
C1170 C1160 1.465 . S
C1170 U1166 2.847 . S
C1170 O1184 1.249 . S
C1170 O1185 1.202 . S
C1171 C1169 1.363 . S
C1171 C1173 1.408 . S
C1171 C1176 1.342 . S
C1172 C1173 1.310 . S
C1172 C1175 1.461 . S
C1172 H1192 0.932 . S
C1173 C1171 1.408 . S
C1173 C1172 1.310 . S
C1173 H1193 0.930 . S
C1174 C1175 1.474 . S
C1174 C1176 1.285 . S
C1174 H1194 0.929 . S
C1175 C1172 1.461 . S
C1175 C1174 1.474 . S
C1176 C1171 1.342 . S
C1176 C1174 1.285 . S
C1176 H1195 0.930 . S
C1177 C1180 1.424 . S
C1177 C1182 1.245 . S
C1177 C1183 1.428 . S
C1178 C1181 1.260 . S
C1178 C1182 1.477 . S
C1178 H1196 0.932 . S
C1179 C1180 1.384 . S
C1179 C1181 1.479 . S
C1179 H1197 0.929 . S
C1180 C1177 1.424 . S
C1180 C1179 1.384 . S
C1180 H1198 0.928 . S
C1181 C1178 1.260 . S
C1181 C1179 1.479 . S
C1182 C1177 1.245 . S
C1182 C1178 1.477 . S
C1182 H1199 0.932 . S
C1183 U1166 2.882 . S
C1183 C1177 1.428 . S
C1183 O1186 1.301 . S
C1183 O1187 1.282 . S
O1184 U1166 2.441 . S
O1184 C1170 1.249 . S
O1185 U1166 2.420 . S
O1185 C1170 1.202 . S
O1186 U1166 2.455 . S
O1186 C1183 1.301 . S
O1187 U1166 2.449 . S
O1187 C1183 1.282 . S
H1188 C1161 0.931 . S
H1189 C1163 0.929 . S
H1190 C1164 0.930 . S
H1191 C1165 0.931 . S
H1192 C1172 0.932 . S
H1193 C1173 0.930 . S
H1194 C1174 0.929 . S
H1195 C1176 0.930 . S
H1196 C1178 0.932 . S
H1197 C1179 0.929 . S
H1198 C1180 0.928 . S
H1199 C1182 0.932 . S
C1200 C1201 1.264 . S
C1200 C1205 1.479 . S
C1200 C1210 1.465 . S
C1201 C1200 1.264 . S
C1201 C1203 1.339 . S
C1201 H1228 0.931 . S
C1202 C1203 1.395 . S
C1202 C1204 1.320 . S
C1203 C1201 1.339 . S
C1203 C1202 1.395 . S
C1203 H1229 0.929 . S
C1204 C1202 1.320 . S
C1204 C1205 1.405 . S
C1204 H1230 0.930 . S
C1205 C1200 1.479 . S
C1205 C1204 1.405 . S
C1205 H1231 0.931 . S
U1206 O1207 2.454 . S
U1206 O1208 2.458 . S
U1206 C1209 2.984 . S
U1206 C1210 2.847 . S
U1206 C1223 2.882 . S
U1206 O1224 2.441 . S
U1206 O1225 2.420 . S
U1206 O1226 2.455 . S
U1206 O1227 2.449 . S
O1207 U1206 2.454 . S
O1207 C1209 1.353 . S
O1208 U1206 2.458 . S
O1208 C1209 1.286 . S
C1209 U1206 2.984 . S
C1209 O1207 1.353 . S
C1209 O1208 1.286 . S
C1209 C1211 1.363 . S
C1210 C1200 1.465 . S
C1210 U1206 2.847 . S
C1210 O1224 1.249 . S
C1210 O1225 1.202 . S
C1211 C1209 1.363 . S
C1211 C1213 1.408 . S
C1211 C1216 1.342 . S
C1212 C1213 1.310 . S
C1212 C1215 1.461 . S
C1212 H1232 0.932 . S
C1213 C1211 1.408 . S
C1213 C1212 1.310 . S
C1213 H1233 0.930 . S
C1214 C1215 1.474 . S
C1214 C1216 1.285 . S
C1214 H1234 0.929 . S
C1215 C1212 1.461 . S
C1215 C1214 1.474 . S
C1216 C1211 1.342 . S
C1216 C1214 1.285 . S
C1216 H1235 0.930 . S
C1217 C1220 1.424 . S
C1217 C1222 1.245 . S
C1217 C1223 1.428 . S
C1218 C1221 1.260 . S
C1218 C1222 1.477 . S
C1218 H1236 0.932 . S
C1219 C1220 1.384 . S
C1219 C1221 1.479 . S
C1219 H1237 0.929 . S
C1220 C1217 1.424 . S
C1220 C1219 1.384 . S
C1220 H1238 0.928 . S
C1221 C1218 1.260 . S
C1221 C1219 1.479 . S
C1222 C1217 1.245 . S
C1222 C1218 1.477 . S
C1222 H1239 0.932 . S
C1223 U1206 2.882 . S
C1223 C1217 1.428 . S
C1223 O1226 1.301 . S
C1223 O1227 1.282 . S
O1224 U1206 2.441 . S
O1224 C1210 1.249 . S
O1225 U1206 2.420 . S
O1225 C1210 1.202 . S
O1226 U1206 2.455 . S
O1226 C1223 1.301 . S
O1227 U1206 2.449 . S
O1227 C1223 1.282 . S
H1228 C1201 0.931 . S
H1229 C1203 0.929 . S
H1230 C1204 0.930 . S
H1231 C1205 0.931 . S
H1232 C1212 0.932 . S
H1233 C1213 0.930 . S
H1234 C1214 0.929 . S
H1235 C1216 0.930 . S
H1236 C1218 0.932 . S
H1237 C1219 0.929 . S
H1238 C1220 0.928 . S
H1239 C1222 0.932 . S
C1240 C1241 1.264 . S
C1240 C1245 1.479 . S
C1240 C1250 1.465 . S
C1241 C1240 1.264 . S
C1241 C1243 1.339 . S
C1241 H1268 0.931 . S
C1242 C1243 1.395 . S
C1242 C1244 1.320 . S
C1243 C1241 1.339 . S
C1243 C1242 1.395 . S
C1243 H1269 0.929 . S
C1244 C1242 1.320 . S
C1244 C1245 1.405 . S
C1244 H1270 0.930 . S
C1245 C1240 1.479 . S
C1245 C1244 1.405 . S
C1245 H1271 0.931 . S
U1246 O1247 2.454 . S
U1246 O1248 2.458 . S
U1246 C1249 2.984 . S
U1246 C1250 2.847 . S
U1246 C1263 2.882 . S
U1246 O1264 2.441 . S
U1246 O1265 2.420 . S
U1246 O1266 2.455 . S
U1246 O1267 2.449 . S
O1247 U1246 2.454 . S
O1247 C1249 1.353 . S
O1248 U1246 2.458 . S
O1248 C1249 1.286 . S
C1249 U1246 2.984 . S
C1249 O1247 1.353 . S
C1249 O1248 1.286 . S
C1249 C1251 1.363 . S
C1250 C1240 1.465 . S
C1250 U1246 2.847 . S
C1250 O1264 1.249 . S
C1250 O1265 1.202 . S
C1251 C1249 1.363 . S
C1251 C1253 1.408 . S
C1251 C1256 1.342 . S
C1252 C1253 1.310 . S
C1252 C1255 1.461 . S
C1252 H1272 0.932 . S
C1253 C1251 1.408 . S
C1253 C1252 1.310 . S
C1253 H1273 0.930 . S
C1254 C1255 1.474 . S
C1254 C1256 1.285 . S
C1254 H1274 0.929 . S
C1255 C1252 1.461 . S
C1255 C1254 1.474 . S
C1256 C1251 1.342 . S
C1256 C1254 1.285 . S
C1256 H1275 0.930 . S
C1257 C1260 1.424 . S
C1257 C1262 1.245 . S
C1257 C1263 1.428 . S
C1258 C1261 1.260 . S
C1258 C1262 1.477 . S
C1258 H1276 0.932 . S
C1259 C1260 1.384 . S
C1259 C1261 1.479 . S
C1259 H1277 0.929 . S
C1260 C1257 1.424 . S
C1260 C1259 1.384 . S
C1260 H1278 0.928 . S
C1261 C1258 1.260 . S
C1261 C1259 1.479 . S
C1262 C1257 1.245 . S
C1262 C1258 1.477 . S
C1262 H1279 0.932 . S
C1263 U1246 2.882 . S
C1263 C1257 1.428 . S
C1263 O1266 1.301 . S
C1263 O1267 1.282 . S
O1264 U1246 2.441 . S
O1264 C1250 1.249 . S
O1265 U1246 2.420 . S
O1265 C1250 1.202 . S
O1266 U1246 2.455 . S
O1266 C1263 1.301 . S
O1267 U1246 2.449 . S
O1267 C1263 1.282 . S
H1268 C1241 0.931 . S
H1269 C1243 0.929 . S
H1270 C1244 0.930 . S
H1271 C1245 0.931 . S
H1272 C1252 0.932 . S
H1273 C1253 0.930 . S
H1274 C1254 0.929 . S
H1275 C1256 0.930 . S
H1276 C1258 0.932 . S
H1277 C1259 0.929 . S
H1278 C1260 0.928 . S
H1279 C1262 0.932 . S
Cu1280 N1281 1.999 . S
Cu1280 O1286 1.974 1_554 S
Cu1280 N1291 1.985 . S
Cu1280 O1300 1.959 . S
N1281 Cu1280 1.999 . S
N1281 C1283 1.263 1_554 S
N1281 C1285 1.389 . S
N1282 C1283 1.358 . S
N1282 C1284 1.400 . S
C1283 N1281 1.263 1_556 S
C1283 N1282 1.358 . S
C1283 H1289 0.930 . S
C1284 N1282 1.400 . S
C1284 C1285 1.351 1_556 S
C1284 H1301 0.930 . S
C1285 N1281 1.389 . S
C1285 C1284 1.351 1_554 S
C1285 H1290 0.930 . S
O1286 Cu1280 1.974 1_556 S
O1286 C1296 1.282 . S
C1287 O1288 1.261 . S
C1287 O1300 1.251 . S
O1288 C1287 1.261 . S
H1289 C1283 0.930 . S
H1290 C1285 0.930 . S
N1291 Cu1280 1.985 . S
N1291 C1293 1.335 . S
N1291 C1294 1.390 . S
N1292 C1293 1.345 . S
N1292 C1295 1.336 . S
C1293 N1291 1.335 . S
C1293 N1292 1.345 . S
C1293 H1298 0.930 . S
C1294 N1291 1.390 . S
C1294 C1295 1.346 . S
C1294 H1299 0.930 . S
C1295 N1292 1.336 . S
C1295 C1294 1.346 . S
C1295 H1302 0.929 . S
C1296 O1286 1.282 . S
C1296 O1297 1.216 . S
O1297 C1296 1.216 . S
H1298 C1293 0.930 . S
H1299 C1294 0.930 . S
O1300 Cu1280 1.959 . S
O1300 C1287 1.251 . S
H1301 C1284 0.930 . S
H1302 C1295 0.929 . S
Cu1303 N1304 1.999 . S
Cu1303 O1309 1.974 . S
Cu1303 N1314 1.985 1_554 S
Cu1303 O1323 1.959 1_554 S
N1304 Cu1303 1.999 . S
N1304 C1306 1.263 . S
N1304 C1308 1.389 . S
N1305 C1306 1.358 . S
N1305 C1307 1.400 . S
C1306 N1304 1.263 . S
C1306 N1305 1.358 . S
C1306 H1312 0.930 . S
C1307 N1305 1.400 . S
C1307 C1308 1.351 . S
C1307 H1324 0.930 . S
C1308 N1304 1.389 . S
C1308 C1307 1.351 . S
C1308 H1313 0.930 . S
O1309 Cu1303 1.974 . S
O1309 C1319 1.282 . S
C1310 O1311 1.261 . S
C1310 O1323 1.251 . S
O1311 C1310 1.261 . S
H1312 C1306 0.930 . S
H1313 C1308 0.930 . S
N1314 Cu1303 1.985 1_556 S
N1314 C1316 1.335 . S
N1314 C1317 1.389 1_556 S
N1315 C1316 1.345 . S
N1315 C1318 1.336 . S
C1316 N1314 1.335 . S
C1316 N1315 1.345 . S
C1316 H1321 0.930 . S
C1317 N1314 1.389 1_554 S
C1317 C1318 1.341 1_554 S
C1317 H1322 0.936 . S
C1318 N1315 1.336 . S
C1318 C1317 1.341 1_556 S
C1318 H1325 0.929 . S
C1319 O1309 1.282 . S
C1319 O1320 1.216 . S
O1320 C1319 1.216 . S
H1321 C1316 0.930 . S
H1322 C1317 0.936 . S
O1323 Cu1303 1.959 1_556 S
O1323 C1310 1.251 . S
H1324 C1307 0.930 . S
H1325 C1318 0.929 . S
Cu1326 N1327 1.957 1_554 S
Cu1326 O1332 1.921 1_554 S
Cu1326 N1337 2.027 . S
Cu1326 O1346 2.012 . S
N1327 Cu1326 1.957 1_556 S
N1327 C1329 1.263 . S
N1327 C1331 1.389 . S
N1328 C1329 1.358 . S
N1328 C1330 1.400 . S
C1329 N1327 1.263 . S
C1329 N1328 1.358 . S
C1329 H1335 0.930 . S
C1330 N1328 1.400 . S
C1330 C1331 1.351 . S
C1330 H1347 0.930 . S
C1331 N1327 1.389 . S
C1331 C1330 1.351 . S
C1331 H1336 1.003 . S
O1332 Cu1326 1.921 1_556 S
O1332 C1342 1.282 . S
C1333 O1334 1.261 . S
C1333 O1346 1.251 . S
O1334 C1333 1.261 . S
H1335 C1329 0.930 . S
H1336 C1331 1.003 . S
N1337 Cu1326 2.027 . S
N1337 C1339 1.335 . S
N1337 C1340 1.390 . S
N1338 C1339 1.345 . S
N1338 C1341 1.336 . S
C1339 N1337 1.335 . S
C1339 N1338 1.345 . S
C1339 H1344 0.930 . S
C1340 N1337 1.390 . S
C1340 C1341 1.346 . S
C1340 H1345 0.976 . S
C1341 N1338 1.336 . S
C1341 C1340 1.346 . S
C1341 H1348 0.929 . S
C1342 O1332 1.282 . S
C1342 O1343 1.216 . S
O1343 C1342 1.216 . S
H1344 C1339 0.930 . S
H1345 C1340 0.976 . S
O1346 Cu1326 2.012 . S
O1346 C1333 1.251 . S
H1347 C1330 0.930 . S
H1348 C1341 0.929 . S
Cu1349 N1350 1.999 . S
Cu1349 O1355 1.974 . S
Cu1349 N1360 1.985 1_554 S
Cu1349 O1369 1.959 1_554 S
N1350 Cu1349 1.999 . S
N1350 C1352 1.263 . S
N1350 C1354 1.389 . S
N1351 C1352 1.358 . S
N1351 C1353 1.400 . S
C1352 N1350 1.263 . S
C1352 N1351 1.358 . S
C1352 H1358 0.930 . S
C1353 N1351 1.400 . S
C1353 C1354 1.351 . S
C1353 H1370 0.930 . S
C1354 N1350 1.389 . S
C1354 C1353 1.351 . S
C1354 H1359 0.930 . S
O1355 Cu1349 1.974 . S
O1355 C1365 1.282 . S
C1356 O1357 1.261 . S
C1356 O1369 1.251 . S
O1357 C1356 1.261 . S
H1358 C1352 0.930 . S
H1359 C1354 0.930 . S
N1360 Cu1349 1.985 1_556 S
N1360 C1362 1.335 . S
N1360 C1363 1.390 . S
N1361 C1362 1.345 . S
N1361 C1364 1.336 . S
C1362 N1360 1.335 . S
C1362 N1361 1.345 . S
C1362 H1367 0.930 . S
C1363 N1360 1.390 . S
C1363 C1364 1.346 . S
C1363 H1368 0.930 1_556 S
C1364 N1361 1.336 . S
C1364 C1363 1.346 . S
C1364 H1371 0.929 . S
C1365 O1355 1.282 . S
C1365 O1366 1.216 . S
O1366 C1365 1.216 . S
H1367 C1362 0.930 . S
H1368 C1363 0.930 1_554 S
O1369 Cu1349 1.959 1_556 S
O1369 C1356 1.251 . S
H1370 C1353 0.930 . S
H1371 C1364 0.929 . S
Cu1372 N1373 1.999 . S
Cu1372 O1378 1.974 . S
Cu1372 N1383 1.985 1_455 S
Cu1372 O1392 1.959 1_455 S
N1373 Cu1372 1.999 . S
N1373 C1375 1.263 . S
N1373 C1377 1.389 . S
N1374 C1375 1.358 . S
N1374 C1376 1.400 . S
C1375 N1373 1.263 . S
C1375 N1374 1.358 . S
C1375 H1381 0.930 . S
C1376 N1374 1.400 . S
C1376 C1377 1.351 . S
C1376 H1393 0.930 . S
C1377 N1373 1.389 . S
C1377 C1376 1.351 . S
C1377 H1382 0.930 . S
O1378 Cu1372 1.974 . S
O1378 C1388 1.282 . S
C1379 O1380 1.261 . S
C1379 O1392 1.251 . S
O1380 C1379 1.261 . S
H1381 C1375 0.930 . S
H1382 C1377 0.930 . S
N1383 Cu1372 1.985 1_655 S
N1383 C1385 1.335 . S
N1383 C1386 1.390 1_655 S
N1384 C1385 1.345 . S
N1384 C1387 1.336 . S
C1385 N1383 1.335 . S
C1385 N1384 1.345 . S
C1385 H1390 0.930 . S
C1386 N1383 1.390 1_455 S
C1386 C1387 1.346 1_455 S
C1386 H1391 0.930 . S
C1387 N1384 1.336 . S
C1387 C1386 1.346 1_655 S
C1387 H1394 0.929 . S
C1388 O1378 1.282 . S
C1388 O1389 1.216 . S
O1389 C1388 1.216 . S
H1390 C1385 0.930 . S
H1391 C1386 0.930 . S
O1392 Cu1372 1.959 1_655 S
O1392 C1379 1.251 . S
H1393 C1376 0.930 . S
H1394 C1387 0.929 . S
Cu1395 N1396 1.999 . S
Cu1395 O1401 1.974 . S
Cu1395 N1406 1.985 1_545 S
Cu1395 O1415 1.959 1_545 S
N1396 Cu1395 1.999 . S
N1396 C1398 1.263 . S
N1396 C1400 1.389 . S
N1397 C1398 1.358 . S
N1397 C1399 1.400 . S
C1398 N1396 1.263 . S
C1398 N1397 1.358 . S
C1398 H1404 0.930 . S
C1399 N1397 1.400 . S
C1399 C1400 1.351 . S
C1399 H1416 0.930 . S
C1400 N1396 1.389 . S
C1400 C1399 1.351 . S
C1400 H1405 0.930 . S
O1401 Cu1395 1.974 . S
O1401 C1411 1.282 . S
C1402 O1403 1.261 . S
C1402 O1415 1.251 . S
O1403 C1402 1.261 . S
H1404 C1398 0.930 . S
H1405 C1400 0.930 . S
N1406 Cu1395 1.985 1_565 S
N1406 C1408 1.335 . S
N1406 C1409 1.390 . S
N1407 C1408 1.345 . S
N1407 C1410 1.336 . S
C1408 N1406 1.335 . S
C1408 N1407 1.345 . S
C1408 H1413 0.930 . S
C1409 N1406 1.390 . S
C1409 C1410 1.346 . S
C1409 H1414 0.930 1_565 S
C1410 N1407 1.336 . S
C1410 C1409 1.346 . S
C1410 H1417 0.929 . S
C1411 O1401 1.282 . S
C1411 O1412 1.216 . S
O1412 C1411 1.216 . S
H1413 C1408 0.930 . S
H1414 C1409 0.930 1_545 S
O1415 Cu1395 1.959 1_565 S
O1415 C1402 1.251 . S
H1416 C1399 0.930 . S
H1417 C1410 0.929 . S
Cu1418 N1419 1.996 . S
Cu1418 O1424 1.970 . S
Cu1418 N1429 1.988 1_655 S
Cu1418 O1438 1.963 1_655 S
N1419 Cu1418 1.996 . S
N1419 C1421 1.263 . S
N1419 C1423 1.389 . S
N1420 C1421 1.358 . S
N1420 C1422 1.400 . S
C1421 N1419 1.263 . S
C1421 N1420 1.358 . S
C1421 H1427 0.930 . S
C1422 N1420 1.400 . S
C1422 C1423 1.351 . S
C1422 H1439 0.930 . S
C1423 N1419 1.389 . S
C1423 C1422 1.351 . S
C1423 H1428 0.930 . S
O1424 Cu1418 1.970 . S
O1424 C1434 1.282 . S
C1425 O1426 1.261 . S
C1425 O1438 1.251 . S
O1426 C1425 1.261 . S
H1427 C1421 0.930 . S
H1428 C1423 0.930 . S
N1429 Cu1418 1.988 1_455 S
N1429 C1431 1.335 . S
N1429 C1432 1.390 . S
N1430 C1431 1.345 . S
N1430 C1433 1.336 . S
C1431 N1429 1.335 . S
C1431 N1430 1.345 . S
C1431 H1436 0.930 . S
C1432 N1429 1.390 . S
C1432 C1433 1.346 . S
C1432 H1437 0.930 . S
C1433 N1430 1.336 . S
C1433 C1432 1.346 . S
C1433 H1440 0.929 . S
C1434 O1424 1.282 . S
C1434 O1435 1.216 . S
O1435 C1434 1.216 . S
H1436 C1431 0.930 . S
H1437 C1432 0.930 . S
O1438 Cu1418 1.963 1_455 S
O1438 C1425 1.251 . S
H1439 C1422 0.930 . S
H1440 C1433 0.929 . S
Cu1441 N1442 1.996 1_565 S
Cu1441 O1447 1.970 1_565 S
Cu1441 N1452 1.988 . S
Cu1441 O1461 1.963 . S
N1442 Cu1441 1.996 1_545 S
N1442 C1444 1.263 . S
N1442 C1446 1.389 . S
N1443 C1444 1.358 . S
N1443 C1445 1.400 . S
C1444 N1442 1.263 . S
C1444 N1443 1.358 . S
C1444 H1450 0.930 . S
C1445 N1443 1.400 . S
C1445 C1446 1.351 . S
C1445 H1462 0.930 . S
C1446 N1442 1.389 . S
C1446 C1445 1.351 . S
C1446 H1451 0.930 . S
O1447 Cu1441 1.970 1_545 S
O1447 C1457 1.282 . S
C1448 O1449 1.261 . S
C1448 O1461 1.251 . S
O1449 C1448 1.261 . S
H1450 C1444 0.930 . S
H1451 C1446 0.930 . S
N1452 Cu1441 1.988 . S
N1452 C1454 1.335 . S
N1452 C1455 1.390 . S
N1453 C1454 1.345 . S
N1453 C1456 1.336 . S
C1454 N1452 1.335 . S
C1454 N1453 1.345 . S
C1454 H1459 0.930 . S
C1455 N1452 1.390 . S
C1455 C1456 1.346 . S
C1455 H1460 0.930 . S
C1456 N1453 1.336 . S
C1456 C1455 1.346 . S
C1456 H1463 0.929 . S
C1457 O1447 1.282 . S
C1457 O1458 1.216 . S
O1458 C1457 1.216 . S
H1459 C1454 0.930 . S
H1460 C1455 0.930 . S
O1461 Cu1441 1.963 . S
O1461 C1448 1.251 . S
H1462 C1445 0.930 . S
H1463 C1456 0.929 . S
Cu1464 N1465 1.999 . S
Cu1464 O1470 1.974 . S
Cu1464 N1475 1.985 1_455 S
Cu1464 O1484 1.959 1_455 S
N1465 Cu1464 1.999 . S
N1465 C1467 1.263 . S
N1465 C1469 1.389 . S
N1466 C1467 1.358 . S
N1466 C1468 1.400 . S
C1467 N1465 1.263 . S
C1467 N1466 1.358 . S
C1467 H1473 0.930 . S
C1468 N1466 1.400 . S
C1468 C1469 1.351 . S
C1468 H1485 0.930 . S
C1469 N1465 1.389 . S
C1469 C1468 1.351 . S
C1469 H1474 0.930 . S
O1470 Cu1464 1.974 . S
O1470 C1480 1.282 . S
C1471 O1472 1.261 . S
C1471 O1484 1.251 . S
O1472 C1471 1.261 . S
H1473 C1467 0.930 . S
H1474 C1469 0.930 . S
N1475 Cu1464 1.985 1_655 S
N1475 C1477 1.335 . S
N1475 C1478 1.390 1_655 S
N1476 C1477 1.345 . S
N1476 C1479 1.336 . S
C1477 N1475 1.335 . S
C1477 N1476 1.345 . S
C1477 H1482 0.930 . S
C1478 N1475 1.390 1_455 S
C1478 C1479 1.346 1_455 S
C1478 H1483 0.930 . S
C1479 N1476 1.336 . S
C1479 C1478 1.346 1_655 S
C1479 H1486 0.929 . S
C1480 O1470 1.282 . S
C1480 O1481 1.216 . S
O1481 C1480 1.216 . S
H1482 C1477 0.930 . S
H1483 C1478 0.930 . S
O1484 Cu1464 1.959 1_655 S
O1484 C1471 1.251 . S
H1485 C1468 0.930 . S
H1486 C1479 0.929 . S
Cu1487 N1488 1.999 . S
Cu1487 O1493 1.974 . S
Cu1487 N1498 1.985 1_545 S
Cu1487 O1507 1.959 1_545 S
N1488 Cu1487 1.999 . S
N1488 C1490 1.263 . S
N1488 C1492 1.389 . S
N1489 C1490 1.358 . S
N1489 C1491 1.400 . S
C1490 N1488 1.263 . S
C1490 N1489 1.358 . S
C1490 H1496 0.930 . S
C1491 N1489 1.400 . S
C1491 C1492 1.351 . S
C1491 H1508 0.930 . S
C1492 N1488 1.389 . S
C1492 C1491 1.351 . S
C1492 H1497 0.930 . S
O1493 Cu1487 1.974 . S
O1493 C1503 1.282 . S
C1494 O1495 1.261 . S
C1494 O1507 1.251 . S
O1495 C1494 1.261 . S
H1496 C1490 0.930 . S
H1497 C1492 0.930 . S
N1498 Cu1487 1.985 1_565 S
N1498 C1500 1.335 . S
N1498 C1501 1.395 . S
N1499 C1500 1.345 . S
N1499 C1502 1.336 . S
C1500 N1498 1.335 . S
C1500 N1499 1.345 . S
C1500 H1505 0.930 . S
C1501 N1498 1.395 . S
C1501 C1502 1.370 . S
C1501 H1506 0.906 1_565 S
C1502 N1499 1.336 . S
C1502 C1501 1.370 . S
C1502 H1509 0.929 . S
C1503 O1493 1.282 . S
C1503 O1504 1.216 . S
O1504 C1503 1.216 . S
H1505 C1500 0.930 . S
H1506 C1501 0.906 1_545 S
O1507 Cu1487 1.959 1_565 S
O1507 C1494 1.251 . S
H1508 C1491 0.930 . S
H1509 C1502 0.929 . S
Cu1510 N1511 1.999 . S
Cu1510 O1516 1.974 . S
Cu1510 N1521 1.985 . S
Cu1510 O1530 1.959 . S
N1511 Cu1510 1.999 . S
N1511 C1513 1.263 1_455 S
N1511 C1515 1.389 . S
N1512 C1513 1.358 . S
N1512 C1514 1.400 . S
C1513 N1511 1.263 1_655 S
C1513 N1512 1.358 . S
C1513 H1519 0.930 . S
C1514 N1512 1.400 . S
C1514 C1515 1.351 1_655 S
C1514 H1531 0.930 . S
C1515 N1511 1.389 . S
C1515 C1514 1.351 1_455 S
C1515 H1520 0.930 . S
O1516 Cu1510 1.974 . S
O1516 C1526 1.282 1_455 S
C1517 O1518 1.261 . S
C1517 O1530 1.251 . S
O1518 C1517 1.261 . S
H1519 C1513 0.930 . S
H1520 C1515 0.930 . S
N1521 Cu1510 1.985 . S
N1521 C1523 1.335 . S
N1521 C1524 1.390 . S
N1522 C1523 1.345 . S
N1522 C1525 1.336 . S
C1523 N1521 1.335 . S
C1523 N1522 1.345 . S
C1523 H1528 0.930 . S
C1524 N1521 1.390 . S
C1524 C1525 1.346 . S
C1524 H1529 0.930 . S
C1525 N1522 1.336 . S
C1525 C1524 1.346 . S
C1525 H1532 0.929 . S
C1526 O1516 1.282 1_655 S
C1526 O1527 1.216 1_655 S
O1527 C1526 1.216 1_455 S
H1528 C1523 0.930 . S
H1529 C1524 0.930 . S
O1530 Cu1510 1.959 . S
O1530 C1517 1.251 . S
H1531 C1514 0.930 . S
H1532 C1525 0.929 . S
Cu1533 N1534 1.999 . S
Cu1533 O1539 1.974 . S
Cu1533 N1544 2.028 . S
Cu1533 O1553 1.959 1_545 S
N1534 Cu1533 1.999 . S
N1534 C1536 1.263 . S
N1534 C1538 1.389 . S
N1535 C1536 1.358 . S
N1535 C1537 1.400 . S
C1536 N1534 1.263 . S
C1536 N1535 1.358 . S
C1536 H1542 0.930 . S
C1537 N1535 1.400 . S
C1537 C1538 1.351 . S
C1537 H1554 0.930 . S
C1538 N1534 1.389 . S
C1538 C1537 1.351 . S
C1538 H1543 0.930 . S
O1539 Cu1533 1.974 . S
O1539 C1549 1.282 . S
C1540 O1541 1.264 1_565 S
C1540 O1553 1.251 . S
O1541 C1540 1.264 1_545 S
H1542 C1536 0.930 . S
H1543 C1538 0.930 . S
N1544 Cu1533 2.028 . S
N1544 C1546 1.268 1_545 S
N1544 C1547 1.407 . S
N1545 C1546 1.345 . S
N1545 C1548 1.336 . S
C1546 N1544 1.268 1_565 S
C1546 N1545 1.345 . S
C1546 H1551 0.930 . S
C1547 N1544 1.407 . S
C1547 C1548 1.346 1_545 S
C1547 H1552 0.930 . S
C1548 N1545 1.336 . S
C1548 C1547 1.346 1_565 S
C1548 H1555 0.929 . S
C1549 O1539 1.282 . S
C1549 O1550 1.216 . S
O1550 C1549 1.216 . S
H1551 C1546 0.930 . S
H1552 C1547 0.930 . S
O1553 Cu1533 1.959 1_565 S
O1553 C1540 1.251 . S
H1554 C1537 0.930 . S
H1555 C1548 0.929 . S
Cu1556 N1557 1.999 . S
Cu1556 O1562 1.974 . S
Cu1556 N1567 1.985 . S
Cu1556 O1576 1.959 . S
N1557 Cu1556 1.999 . S
N1557 C1559 1.263 . S
N1557 C1561 1.389 . S
N1558 C1559 1.358 . S
N1558 C1560 1.400 . S
C1559 N1557 1.263 . S
C1559 N1558 1.358 . S
C1559 H1565 0.930 . S
C1560 N1558 1.400 . S
C1560 C1561 1.351 . S
C1560 H1577 0.930 . S
C1561 N1557 1.389 . S
C1561 C1560 1.351 . S
C1561 H1566 0.930 . S
O1562 Cu1556 1.974 . S
O1562 C1572 1.282 . S
C1563 O1564 1.261 . S
C1563 O1576 1.251 . S
O1564 C1563 1.261 . S
H1565 C1559 0.930 . S
H1566 C1561 0.930 . S
N1567 Cu1556 1.985 . S
N1567 C1569 1.335 . S
N1567 C1570 1.390 . S
N1568 C1569 1.345 . S
N1568 C1571 1.336 . S
C1569 N1567 1.335 . S
C1569 N1568 1.345 . S
C1569 H1574 0.930 . S
C1570 N1567 1.390 . S
C1570 C1571 1.346 . S
C1570 H1575 0.930 . S
C1571 N1568 1.336 . S
C1571 C1570 1.346 . S
C1571 H1578 0.929 . S
C1572 O1562 1.282 . S
C1572 O1573 1.216 . S
O1573 C1572 1.216 . S
H1574 C1569 0.930 . S
H1575 C1570 0.930 . S
O1576 Cu1556 1.959 . S
O1576 C1563 1.251 . S
H1577 C1560 0.930 . S
H1578 C1571 0.929 . S
Cu1579 N1580 1.999 . S
Cu1579 O1585 1.974 . S
Cu1579 N1590 1.985 . S
Cu1579 O1599 1.959 . S
N1580 Cu1579 1.999 . S
N1580 C1582 1.263 . S
N1580 C1584 1.389 . S
N1581 C1582 1.358 . S
N1581 C1583 1.400 . S
C1582 N1580 1.263 . S
C1582 N1581 1.358 . S
C1582 H1588 0.930 . S
C1583 N1581 1.400 . S
C1583 C1584 1.351 . S
C1583 H1600 0.930 . S
C1584 N1580 1.389 . S
C1584 C1583 1.351 . S
C1584 H1589 0.930 . S
O1585 Cu1579 1.974 . S
O1585 C1595 1.282 . S
C1586 O1587 1.261 . S
C1586 O1599 1.251 . S
O1587 C1586 1.261 . S
H1588 C1582 0.930 . S
H1589 C1584 0.930 . S
N1590 Cu1579 1.985 . S
N1590 C1592 1.335 . S
N1590 C1593 1.390 . S
N1591 C1592 1.345 . S
N1591 C1594 1.336 . S
C1592 N1590 1.335 . S
C1592 N1591 1.345 . S
C1592 H1597 0.930 . S
C1593 N1590 1.390 . S
C1593 C1594 1.346 . S
C1593 H1598 0.930 . S
C1594 N1591 1.336 . S
C1594 C1593 1.346 . S
C1594 H1601 0.929 . S
C1595 O1585 1.282 . S
C1595 O1596 1.216 . S
O1596 C1595 1.216 . S
H1597 C1592 0.930 . S
H1598 C1593 0.930 . S
O1599 Cu1579 1.959 . S
O1599 C1586 1.251 . S
H1600 C1583 0.930 . S
H1601 C1594 0.929 . S
Cu1602 N1603 1.999 . S
Cu1602 O1608 1.974 . S
Cu1602 N1613 1.985 . S
Cu1602 O1622 1.959 . S
N1603 Cu1602 1.999 . S
N1603 C1605 1.263 . S
N1603 C1607 1.389 . S
N1604 C1605 1.358 . S
N1604 C1606 1.400 . S
C1605 N1603 1.263 . S
C1605 N1604 1.358 . S
C1605 H1611 0.930 . S
C1606 N1604 1.400 . S
C1606 C1607 1.351 . S
C1606 H1623 0.930 . S
C1607 N1603 1.389 . S
C1607 C1606 1.351 . S
C1607 H1612 0.930 . S
O1608 Cu1602 1.974 . S
O1608 C1618 1.282 . S
C1609 O1610 1.261 . S
C1609 O1622 1.251 . S
O1610 C1609 1.261 . S
H1611 C1605 0.930 . S
H1612 C1607 0.930 . S
N1613 Cu1602 1.985 . S
N1613 C1615 1.335 . S
N1613 C1616 1.390 . S
N1614 C1615 1.345 . S
N1614 C1617 1.336 . S
C1615 N1613 1.335 . S
C1615 N1614 1.345 . S
C1615 H1620 0.930 . S
C1616 N1613 1.390 . S
C1616 C1617 1.346 . S
C1616 H1621 0.930 . S
C1617 N1614 1.336 . S
C1617 C1616 1.346 . S
C1617 H1624 0.929 . S
C1618 O1608 1.282 . S
C1618 O1619 1.216 . S
O1619 C1618 1.216 . S
H1620 C1615 0.930 . S
H1621 C1616 0.930 . S
O1622 Cu1602 1.959 . S
O1622 C1609 1.251 . S
H1623 C1606 0.930 . S
H1624 C1617 0.929 . S
Cu1625 N1626 1.999 . S
Cu1625 O1631 1.974 . S
Cu1625 N1636 1.985 . S
Cu1625 O1645 1.959 . S
N1626 Cu1625 1.999 . S
N1626 C1628 1.263 . S
N1626 C1630 1.389 . S
N1627 C1628 1.358 . S
N1627 C1629 1.400 . S
C1628 N1626 1.263 . S
C1628 N1627 1.358 . S
C1628 H1634 0.930 . S
C1629 N1627 1.400 . S
C1629 C1630 1.351 . S
C1629 H1646 0.930 . S
C1630 N1626 1.389 . S
C1630 C1629 1.351 . S
C1630 H1635 0.930 . S
O1631 Cu1625 1.974 . S
O1631 C1641 1.282 . S
C1632 O1633 1.261 . S
C1632 O1645 1.251 . S
O1633 C1632 1.261 . S
H1634 C1628 0.930 . S
H1635 C1630 0.930 . S
N1636 Cu1625 1.985 . S
N1636 C1638 1.335 . S
N1636 C1639 1.390 . S
N1637 C1638 1.345 . S
N1637 C1640 1.336 . S
C1638 N1636 1.335 . S
C1638 N1637 1.345 . S
C1638 H1643 0.930 . S
C1639 N1636 1.390 . S
C1639 C1640 1.346 . S
C1639 H1644 0.930 . S
C1640 N1637 1.336 . S
C1640 C1639 1.346 . S
C1640 H1647 0.929 . S
C1641 O1631 1.282 . S
C1641 O1642 1.216 . S
O1642 C1641 1.216 . S
H1643 C1638 0.930 . S
H1644 C1639 0.930 . S
O1645 Cu1625 1.959 . S
O1645 C1632 1.251 . S
H1646 C1629 0.930 . S
H1647 C1640 0.929 . S
Cu1648 N1649 1.999 . S
Cu1648 O1654 1.974 . S
Cu1648 N1659 1.985 . S
Cu1648 O1668 1.959 . S
N1649 Cu1648 1.999 . S
N1649 C1651 1.263 . S
N1649 C1653 1.389 . S
N1650 C1651 1.358 . S
N1650 C1652 1.400 . S
C1651 N1649 1.263 . S
C1651 N1650 1.358 . S
C1651 H1657 0.930 . S
C1652 N1650 1.400 . S
C1652 C1653 1.351 . S
C1652 H1669 0.930 . S
C1653 N1649 1.389 . S
C1653 C1652 1.351 . S
C1653 H1658 0.930 . S
O1654 Cu1648 1.974 . S
O1654 C1664 1.282 . S
C1655 O1656 1.261 . S
C1655 O1668 1.251 . S
O1656 C1655 1.261 . S
H1657 C1651 0.930 . S
H1658 C1653 0.930 . S
N1659 Cu1648 1.985 . S
N1659 C1661 1.335 . S
N1659 C1662 1.390 . S
N1660 C1661 1.345 . S
N1660 C1663 1.336 . S
C1661 N1659 1.335 . S
C1661 N1660 1.345 . S
C1661 H1666 0.930 . S
C1662 N1659 1.390 . S
C1662 C1663 1.346 . S
C1662 H1667 0.930 . S
C1663 N1660 1.336 . S
C1663 C1662 1.346 . S
C1663 H1670 0.929 . S
C1664 O1654 1.282 . S
C1664 O1665 1.216 . S
O1665 C1664 1.216 . S
H1666 C1661 0.930 . S
H1667 C1662 0.930 . S
O1668 Cu1648 1.959 . S
O1668 C1655 1.251 . S
H1669 C1652 0.930 . S
H1670 C1663 0.929 . S
Cu1671 N1672 1.999 . S
Cu1671 O1677 1.974 . S
Cu1671 N1682 1.985 . S
Cu1671 O1691 1.959 . S
N1672 Cu1671 1.999 . S
N1672 C1674 1.263 . S
N1672 C1676 1.389 . S
N1673 C1674 1.358 . S
N1673 C1675 1.400 . S
C1674 N1672 1.263 . S
C1674 N1673 1.358 . S
C1674 H1680 0.930 . S
C1675 N1673 1.400 . S
C1675 C1676 1.351 . S
C1675 H1692 0.930 . S
C1676 N1672 1.389 . S
C1676 C1675 1.351 . S
C1676 H1681 0.930 . S
O1677 Cu1671 1.974 . S
O1677 C1687 1.282 . S
C1678 O1679 1.261 . S
C1678 O1691 1.251 . S
O1679 C1678 1.261 . S
H1680 C1674 0.930 . S
H1681 C1676 0.930 . S
N1682 Cu1671 1.985 . S
N1682 C1684 1.335 . S
N1682 C1685 1.390 . S
N1683 C1684 1.345 . S
N1683 C1686 1.336 . S
C1684 N1682 1.335 . S
C1684 N1683 1.345 . S
C1684 H1689 0.930 . S
C1685 N1682 1.390 . S
C1685 C1686 1.346 . S
C1685 H1690 0.930 . S
C1686 N1683 1.336 . S
C1686 C1685 1.346 . S
C1686 H1693 0.929 . S
C1687 O1677 1.282 . S
C1687 O1688 1.216 . S
O1688 C1687 1.216 . S
H1689 C1684 0.930 . S
H1690 C1685 0.930 . S
O1691 Cu1671 1.959 . S
O1691 C1678 1.251 . S
H1692 C1675 0.930 . S
H1693 C1686 0.929 . S
Cu1694 N1695 1.999 . S
Cu1694 O1700 1.974 . S
Cu1694 N1705 1.985 . S
Cu1694 O1714 1.959 . S
N1695 Cu1694 1.999 . S
N1695 C1697 1.263 . S
N1695 C1699 1.389 . S
N1696 C1697 1.358 . S
N1696 C1698 1.400 . S
C1697 N1695 1.263 . S
C1697 N1696 1.358 . S
C1697 H1703 0.930 . S
C1698 N1696 1.400 . S
C1698 C1699 1.351 . S
C1698 H1715 0.930 . S
C1699 N1695 1.389 . S
C1699 C1698 1.351 . S
C1699 H1704 0.930 . S
O1700 Cu1694 1.974 . S
O1700 C1710 1.282 . S
C1701 O1702 1.261 . S
C1701 O1714 1.251 . S
O1702 C1701 1.261 . S
H1703 C1697 0.930 . S
H1704 C1699 0.930 . S
N1705 Cu1694 1.985 . S
N1705 C1707 1.335 . S
N1705 C1708 1.390 . S
N1706 C1707 1.345 . S
N1706 C1709 1.336 . S
C1707 N1705 1.335 . S
C1707 N1706 1.345 . S
C1707 H1712 0.930 . S
C1708 N1705 1.390 . S
C1708 C1709 1.346 . S
C1708 H1713 0.930 . S
C1709 N1706 1.336 . S
C1709 C1708 1.346 . S
C1709 H1716 0.929 . S
C1710 O1700 1.282 . S
C1710 O1711 1.216 . S
O1711 C1710 1.216 . S
H1712 C1707 0.930 . S
H1713 C1708 0.930 . S
O1714 Cu1694 1.959 . S
O1714 C1701 1.251 . S
H1715 C1698 0.930 . S
H1716 C1709 0.929 . S
Cu1717 N1718 1.999 . S
Cu1717 O1723 1.974 . S
Cu1717 N1728 1.985 . S
Cu1717 O1737 1.959 . S
N1718 Cu1717 1.999 . S
N1718 C1720 1.263 . S
N1718 C1722 1.389 . S
N1719 C1720 1.358 . S
N1719 C1721 1.400 . S
C1720 N1718 1.263 . S
C1720 N1719 1.358 . S
C1720 H1726 0.930 . S
C1721 N1719 1.400 . S
C1721 C1722 1.351 . S
C1721 H1738 0.930 . S
C1722 N1718 1.389 . S
C1722 C1721 1.351 . S
C1722 H1727 0.930 . S
O1723 Cu1717 1.974 . S
O1723 C1733 1.282 . S
C1724 O1725 1.261 . S
C1724 O1737 1.251 . S
O1725 C1724 1.261 . S
H1726 C1720 0.930 . S
H1727 C1722 0.930 . S
N1728 Cu1717 1.985 . S
N1728 C1730 1.335 . S
N1728 C1731 1.390 . S
N1729 C1730 1.345 . S
N1729 C1732 1.336 . S
C1730 N1728 1.335 . S
C1730 N1729 1.345 . S
C1730 H1735 0.930 . S
C1731 N1728 1.390 . S
C1731 C1732 1.346 . S
C1731 H1736 0.930 . S
C1732 N1729 1.336 . S
C1732 C1731 1.346 . S
C1732 H1739 0.929 . S
C1733 O1723 1.282 . S
C1733 O1734 1.216 . S
O1734 C1733 1.216 . S
H1735 C1730 0.930 . S
H1736 C1731 0.930 . S
O1737 Cu1717 1.959 . S
O1737 C1724 1.251 . S
H1738 C1721 0.930 . S
H1739 C1732 0.929 . S
Cu1740 N1741 1.999 . S
Cu1740 O1746 1.974 . S
Cu1740 N1751 1.985 . S
Cu1740 O1760 1.959 . S
N1741 Cu1740 1.999 . S
N1741 C1743 1.263 . S
N1741 C1745 1.389 . S
N1742 C1743 1.358 . S
N1742 C1744 1.400 . S
C1743 N1741 1.263 . S
C1743 N1742 1.358 . S
C1743 H1749 0.930 . S
C1744 N1742 1.400 . S
C1744 C1745 1.351 . S
C1744 H1761 0.930 . S
C1745 N1741 1.389 . S
C1745 C1744 1.351 . S
C1745 H1750 0.930 . S
O1746 Cu1740 1.974 . S
O1746 C1756 1.282 . S
C1747 O1748 1.261 . S
C1747 O1760 1.251 . S
O1748 C1747 1.261 . S
H1749 C1743 0.930 . S
H1750 C1745 0.930 . S
N1751 Cu1740 1.985 . S
N1751 C1753 1.335 . S
N1751 C1754 1.390 . S
N1752 C1753 1.345 . S
N1752 C1755 1.336 . S
C1753 N1751 1.335 . S
C1753 N1752 1.345 . S
C1753 H1758 0.930 . S
C1754 N1751 1.390 . S
C1754 C1755 1.346 . S
C1754 H1759 0.930 . S
C1755 N1752 1.336 . S
C1755 C1754 1.346 . S
C1755 H1762 0.929 . S
C1756 O1746 1.282 . S
C1756 O1757 1.216 . S
O1757 C1756 1.216 . S
H1758 C1753 0.930 . S
H1759 C1754 0.930 . S
O1760 Cu1740 1.959 . S
O1760 C1747 1.251 . S
H1761 C1744 0.930 . S
H1762 C1755 0.929 . S
Cu1763 N1764 1.999 . S
Cu1763 O1769 1.974 . S
Cu1763 N1774 1.985 . S
Cu1763 O1783 1.959 . S
N1764 Cu1763 1.999 . S
N1764 C1766 1.263 . S
N1764 C1768 1.389 . S
N1765 C1766 1.358 . S
N1765 C1767 1.400 . S
C1766 N1764 1.263 . S
C1766 N1765 1.358 . S
C1766 H1772 0.930 . S
C1767 N1765 1.400 . S
C1767 C1768 1.351 . S
C1767 H1784 0.930 . S
C1768 N1764 1.389 . S
C1768 C1767 1.351 . S
C1768 H1773 0.930 . S
O1769 Cu1763 1.974 . S
O1769 C1779 1.282 . S
C1770 O1771 1.261 . S
C1770 O1783 1.251 . S
O1771 C1770 1.261 . S
H1772 C1766 0.930 . S
H1773 C1768 0.930 . S
N1774 Cu1763 1.985 . S
N1774 C1776 1.335 . S
N1774 C1777 1.390 . S
N1775 C1776 1.345 . S
N1775 C1778 1.336 . S
C1776 N1774 1.335 . S
C1776 N1775 1.345 . S
C1776 H1781 0.930 . S
C1777 N1774 1.390 . S
C1777 C1778 1.346 . S
C1777 H1782 0.930 . S
C1778 N1775 1.336 . S
C1778 C1777 1.346 . S
C1778 H1785 0.929 . S
C1779 O1769 1.282 . S
C1779 O1780 1.216 . S
O1780 C1779 1.216 . S
H1781 C1776 0.930 . S
H1782 C1777 0.930 . S
O1783 Cu1763 1.959 . S
O1783 C1770 1.251 . S
H1784 C1767 0.930 . S
H1785 C1778 0.929 . S
Cu1786 N1787 1.999 . S
Cu1786 O1792 1.974 . S
Cu1786 N1797 1.985 . S
Cu1786 O1806 1.959 . S
N1787 Cu1786 1.999 . S
N1787 C1789 1.263 . S
N1787 C1791 1.389 . S
N1788 C1789 1.358 . S
N1788 C1790 1.400 . S
C1789 N1787 1.263 . S
C1789 N1788 1.358 . S
C1789 H1795 0.930 . S
C1790 N1788 1.400 . S
C1790 C1791 1.351 . S
C1790 H1807 0.930 . S
C1791 N1787 1.389 . S
C1791 C1790 1.351 . S
C1791 H1796 0.930 . S
O1792 Cu1786 1.974 . S
O1792 C1802 1.282 . S
C1793 O1794 1.261 . S
C1793 O1806 1.251 . S
O1794 C1793 1.261 . S
H1795 C1789 0.930 . S
H1796 C1791 0.930 . S
N1797 Cu1786 1.985 . S
N1797 C1799 1.335 . S
N1797 C1800 1.390 . S
N1798 C1799 1.345 . S
N1798 C1801 1.336 . S
C1799 N1797 1.335 . S
C1799 N1798 1.345 . S
C1799 H1804 0.930 . S
C1800 N1797 1.390 . S
C1800 C1801 1.346 . S
C1800 H1805 0.930 . S
C1801 N1798 1.336 . S
C1801 C1800 1.346 . S
C1801 H1808 0.929 . S
C1802 O1792 1.282 . S
C1802 O1803 1.216 . S
O1803 C1802 1.216 . S
H1804 C1799 0.930 . S
H1805 C1800 0.930 . S
O1806 Cu1786 1.959 . S
O1806 C1793 1.251 . S
H1807 C1790 0.930 . S
H1808 C1801 0.929 . S
Cu1809 N1810 1.999 . S
Cu1809 O1815 1.974 . S
Cu1809 N1820 1.985 . S
Cu1809 O1829 1.959 . S
N1810 Cu1809 1.999 . S
N1810 C1812 1.263 . S
N1810 C1814 1.389 . S
N1811 C1812 1.358 . S
N1811 C1813 1.400 . S
C1812 N1810 1.263 . S
C1812 N1811 1.358 . S
C1812 H1818 0.930 . S
C1813 N1811 1.400 . S
C1813 C1814 1.351 . S
C1813 H1830 0.930 . S
C1814 N1810 1.389 . S
C1814 C1813 1.351 . S
C1814 H1819 0.930 . S
O1815 Cu1809 1.974 . S
O1815 C1825 1.282 . S
C1816 O1817 1.261 . S
C1816 O1829 1.251 . S
O1817 C1816 1.261 . S
H1818 C1812 0.930 . S
H1819 C1814 0.930 . S
N1820 Cu1809 1.985 . S
N1820 C1822 1.335 . S
N1820 C1823 1.390 . S
N1821 C1822 1.345 . S
N1821 C1824 1.336 . S
C1822 N1820 1.335 . S
C1822 N1821 1.345 . S
C1822 H1827 0.930 . S
C1823 N1820 1.390 . S
C1823 C1824 1.346 . S
C1823 H1828 0.930 . S
C1824 N1821 1.336 . S
C1824 C1823 1.346 . S
C1824 H1831 0.929 . S
C1825 O1815 1.282 . S
C1825 O1826 1.216 . S
O1826 C1825 1.216 . S
H1827 C1822 0.930 . S
H1828 C1823 0.930 . S
O1829 Cu1809 1.959 . S
O1829 C1816 1.251 . S
H1830 C1813 0.930 . S
H1831 C1824 0.929 . S
H1832 C1838 0.930 . S
H1833 C1842 0.930 . S
H1834 C1847 0.929 . S
H1835 C1845 0.929 . S
H1836 C1840 0.929 . S
H1837 C1846 0.929 . S
C1838 H1832 0.930 . S
C1838 C1839 1.367 . S
C1838 C1846 1.378 . S
C1839 C1838 1.367 . S
C1839 C1847 1.433 . S
C1840 H1836 0.929 . S
C1840 C1842 1.378 . S
C1840 C1844 1.350 . S
C1841 C1844 1.463 . S
C1841 C1846 1.350 . S
C1841 N1849 1.427 . S
C1842 H1833 0.930 . S
C1842 C1840 1.378 . S
C1842 C1843 1.367 . S
C1843 C1842 1.367 . S
C1843 C1845 1.433 . S
C1844 C1840 1.350 . S
C1844 C1841 1.463 . S
C1844 N1848 1.427 . S
C1845 H1835 0.929 . S
C1845 C1843 1.433 . S
C1845 N1848 1.384 . S
C1846 H1837 0.929 . S
C1846 C1838 1.378 . S
C1846 C1841 1.350 . S
C1847 H1834 0.929 . S
C1847 C1839 1.433 . S
C1847 N1849 1.384 . S
N1848 C1844 1.427 . S
N1848 C1845 1.384 . S
N1849 C1841 1.427 . S
N1849 C1847 1.384 . S
H1850 C1856 0.930 . S
H1851 C1860 0.930 . S
H1852 C1865 0.929 . S
H1853 C1863 0.929 . S
H1854 C1858 0.929 . S
H1855 C1864 0.929 . S
C1856 H1850 0.930 . S
C1856 C1857 1.367 . S
C1856 C1864 1.378 . S
C1857 C1856 1.367 . S
C1857 C1865 1.433 . S
C1858 H1854 0.929 . S
C1858 C1860 1.378 . S
C1858 C1862 1.350 . S
C1859 C1862 1.463 . S
C1859 C1864 1.350 . S
C1859 N1867 1.427 . S
C1860 H1851 0.930 . S
C1860 C1858 1.378 . S
C1860 C1861 1.367 . S
C1861 C1860 1.367 . S
C1861 C1863 1.433 . S
C1862 C1858 1.350 . S
C1862 C1859 1.463 . S
C1862 N1866 1.427 . S
C1863 H1853 0.929 . S
C1863 C1861 1.433 . S
C1863 N1866 1.384 . S
C1864 H1855 0.929 . S
C1864 C1856 1.378 . S
C1864 C1859 1.350 . S
C1865 H1852 0.929 . S
C1865 C1857 1.433 . S
C1865 N1867 1.384 . S
N1866 C1862 1.427 . S
N1866 C1863 1.384 . S
N1867 C1859 1.427 . S
N1867 C1865 1.384 . S
H1868 C1874 0.930 . S
H1869 C1878 0.930 . S
H1870 C1883 0.929 . S
H1871 C1881 0.929 . S
H1872 C1876 0.929 . S
H1873 C1882 0.929 . S
C1874 H1868 0.930 . S
C1874 C1875 1.367 . S
C1874 C1882 1.378 . S
C1875 C1874 1.367 . S
C1875 C1883 1.433 . S
C1876 H1872 0.929 . S
C1876 C1878 1.378 . S
C1876 C1880 1.350 . S
C1877 C1880 1.463 . S
C1877 C1882 1.350 . S
C1877 N1885 1.427 . S
C1878 H1869 0.930 . S
C1878 C1876 1.378 . S
C1878 C1879 1.367 . S
C1879 C1878 1.367 . S
C1879 C1881 1.433 . S
C1880 C1876 1.350 . S
C1880 C1877 1.463 . S
C1880 N1884 1.427 . S
C1881 H1871 0.929 . S
C1881 C1879 1.433 . S
C1881 N1884 1.384 . S
C1882 H1873 0.929 . S
C1882 C1874 1.378 . S
C1882 C1877 1.350 . S
C1883 H1870 0.929 . S
C1883 C1875 1.433 . S
C1883 N1885 1.384 . S
N1884 C1880 1.427 . S
N1884 C1881 1.384 . S
N1885 C1877 1.427 . S
N1885 C1883 1.384 . S
H1886 C1892 0.930 . S
H1887 C1896 0.930 . S
H1888 C1901 0.929 . S
H1889 C1899 0.929 . S
H1890 C1894 0.929 . S
H1891 C1900 0.929 . S
C1892 H1886 0.930 . S
C1892 C1893 1.367 . S
C1892 C1900 1.378 . S
C1893 C1892 1.367 . S
C1893 C1901 1.433 . S
C1894 H1890 0.929 . S
C1894 C1896 1.378 . S
C1894 C1898 1.350 . S
C1895 C1898 1.463 . S
C1895 C1900 1.350 . S
C1895 N1903 1.427 . S
C1896 H1887 0.930 . S
C1896 C1894 1.378 . S
C1896 C1897 1.367 . S
C1897 C1896 1.367 . S
C1897 C1899 1.433 . S
C1898 C1894 1.350 . S
C1898 C1895 1.463 . S
C1898 N1902 1.427 . S
C1899 H1889 0.929 . S
C1899 C1897 1.433 . S
C1899 N1902 1.384 . S
C1900 H1891 0.929 . S
C1900 C1892 1.378 . S
C1900 C1895 1.350 . S
C1901 H1888 0.929 . S
C1901 C1893 1.433 . S
C1901 N1903 1.384 . S
N1902 C1898 1.427 . S
N1902 C1899 1.384 . S
N1903 C1895 1.427 . S
N1903 C1901 1.384 . S
H1904 C1910 0.930 . S
H1905 C1914 0.930 . S
H1906 C1919 0.929 . S
H1907 C1917 0.929 . S
H1908 C1912 0.929 . S
H1909 C1918 0.929 . S
C1910 H1904 0.930 . S
C1910 C1911 1.367 . S
C1910 C1918 1.378 . S
C1911 C1910 1.367 . S
C1911 C1919 1.433 . S
C1912 H1908 0.929 . S
C1912 C1914 1.378 . S
C1912 C1916 1.350 . S
C1913 C1916 1.463 . S
C1913 C1918 1.350 . S
C1913 N1921 1.427 . S
C1914 H1905 0.930 . S
C1914 C1912 1.378 . S
C1914 C1915 1.367 . S
C1915 C1914 1.367 . S
C1915 C1917 1.433 . S
C1916 C1912 1.350 . S
C1916 C1913 1.463 . S
C1916 N1920 1.427 . S
C1917 H1907 0.929 . S
C1917 C1915 1.433 . S
C1917 N1920 1.384 . S
C1918 H1909 0.929 . S
C1918 C1910 1.378 . S
C1918 C1913 1.350 . S
C1919 H1906 0.929 . S
C1919 C1911 1.433 . S
C1919 N1921 1.384 . S
N1920 C1916 1.427 . S
N1920 C1917 1.384 . S
N1921 C1913 1.427 . S
N1921 C1919 1.384 . S
H1922 C1928 0.930 . S
H1923 C1932 0.930 . S
H1924 C1937 0.929 . S
H1925 C1935 0.929 . S
H1926 C1930 0.929 . S
H1927 C1936 0.929 . S
C1928 H1922 0.930 . S
C1928 C1929 1.367 . S
C1928 C1936 1.378 . S
C1929 C1928 1.367 . S
C1929 C1937 1.433 . S
C1930 H1926 0.929 . S
C1930 C1932 1.378 . S
C1930 C1934 1.350 . S
C1931 C1934 1.463 . S
C1931 C1936 1.350 . S
C1931 N1939 1.427 . S
C1932 H1923 0.930 . S
C1932 C1930 1.378 . S
C1932 C1933 1.367 . S
C1933 C1932 1.367 . S
C1933 C1935 1.433 . S
C1934 C1930 1.350 . S
C1934 C1931 1.463 . S
C1934 N1938 1.427 . S
C1935 H1925 0.929 . S
C1935 C1933 1.433 . S
C1935 N1938 1.384 . S
C1936 H1927 0.929 . S
C1936 C1928 1.378 . S
C1936 C1931 1.350 . S
C1937 H1924 0.929 . S
C1937 C1929 1.433 . S
C1937 N1939 1.384 . S
N1938 C1934 1.427 . S
N1938 C1935 1.384 . S
N1939 C1931 1.427 . S
N1939 C1937 1.384 . S
H1940 C1946 0.930 . S
H1941 C1950 0.930 . S
H1942 C1955 0.929 . S
H1943 C1953 0.929 . S
H1944 C1948 0.929 . S
H1945 C1954 0.929 . S
C1946 H1940 0.930 . S
C1946 C1947 1.367 . S
C1946 C1954 1.378 . S
C1947 C1946 1.367 . S
C1947 C1955 1.433 . S
C1948 H1944 0.929 . S
C1948 C1950 1.378 . S
C1948 C1952 1.350 . S
C1949 C1952 1.463 . S
C1949 C1954 1.350 . S
C1949 N1957 1.427 . S
C1950 H1941 0.930 . S
C1950 C1948 1.378 . S
C1950 C1951 1.367 . S
C1951 C1950 1.367 . S
C1951 C1953 1.433 . S
C1952 C1948 1.350 . S
C1952 C1949 1.463 . S
C1952 N1956 1.427 . S
C1953 H1943 0.929 . S
C1953 C1951 1.433 . S
C1953 N1956 1.384 . S
C1954 H1945 0.929 . S
C1954 C1946 1.378 . S
C1954 C1949 1.350 . S
C1955 H1942 0.929 . S
C1955 C1947 1.433 . S
C1955 N1957 1.384 . S
N1956 C1952 1.427 . S
N1956 C1953 1.384 . S
N1957 C1949 1.427 . S
N1957 C1955 1.384 . S
H1958 C1964 0.930 . S
H1959 C1968 0.930 . S
H1960 C1973 0.929 . S
H1961 C1971 0.929 . S
H1962 C1966 0.929 . S
H1963 C1972 0.929 . S
C1964 H1958 0.930 . S
C1964 C1965 1.367 . S
C1964 C1972 1.378 . S
C1965 C1964 1.367 . S
C1965 C1973 1.433 . S
C1966 H1962 0.929 . S
C1966 C1968 1.378 . S
C1966 C1970 1.350 . S
C1967 C1970 1.463 . S
C1967 C1972 1.350 . S
C1967 N1975 1.427 . S
C1968 H1959 0.930 . S
C1968 C1966 1.378 . S
C1968 C1969 1.367 . S
C1969 C1968 1.367 . S
C1969 C1971 1.433 . S
C1970 C1966 1.350 . S
C1970 C1967 1.463 . S
C1970 N1974 1.427 . S
C1971 H1961 0.929 . S
C1971 C1969 1.433 . S
C1971 N1974 1.384 . S
C1972 H1963 0.929 . S
C1972 C1964 1.378 . S
C1972 C1967 1.350 . S
C1973 H1960 0.929 . S
C1973 C1965 1.433 . S
C1973 N1975 1.384 . S
N1974 C1970 1.427 . S
N1974 C1971 1.384 . S
N1975 C1967 1.427 . S
N1975 C1973 1.384 . S
H1976 C1982 0.930 . S
H1977 C1986 0.930 . S
H1978 C1991 0.929 . S
H1979 C1989 0.929 . S
H1980 C1984 0.929 . S
H1981 C1990 0.929 . S
C1982 H1976 0.930 . S
C1982 C1983 1.367 . S
C1982 C1990 1.378 . S
C1983 C1982 1.367 . S
C1983 C1991 1.433 . S
C1984 H1980 0.929 . S
C1984 C1986 1.378 . S
C1984 C1988 1.350 . S
C1985 C1988 1.463 . S
C1985 C1990 1.350 . S
C1985 N1993 1.427 . S
C1986 H1977 0.930 . S
C1986 C1984 1.378 . S
C1986 C1987 1.367 . S
C1987 C1986 1.367 . S
C1987 C1989 1.433 . S
C1988 C1984 1.350 . S
C1988 C1985 1.463 . S
C1988 N1992 1.427 . S
C1989 H1979 0.929 . S
C1989 C1987 1.433 . S
C1989 N1992 1.384 . S
C1990 H1981 0.929 . S
C1990 C1982 1.378 . S
C1990 C1985 1.350 . S
C1991 H1978 0.929 . S
C1991 C1983 1.433 . S
C1991 N1993 1.384 . S
N1992 C1988 1.427 . S
N1992 C1989 1.384 . S
N1993 C1985 1.427 . S
N1993 C1991 1.384 . S
H1994 C2000 0.930 . S
H1995 C2004 0.930 . S
H1996 C2009 0.929 . S
H1997 C2007 0.929 . S
H1998 C2002 0.929 . S
H1999 C2008 0.929 . S
C2000 H1994 0.930 . S
C2000 C2001 1.367 . S
C2000 C2008 1.378 . S
C2001 C2000 1.367 . S
C2001 C2009 1.433 . S
C2002 H1998 0.929 . S
C2002 C2004 1.378 . S
C2002 C2006 1.350 . S
C2003 C2006 1.463 . S
C2003 C2008 1.350 . S
C2003 N2011 1.427 . S
C2004 H1995 0.930 . S
C2004 C2002 1.378 . S
C2004 C2005 1.367 . S
C2005 C2004 1.367 . S
C2005 C2007 1.433 . S
C2006 C2002 1.350 . S
C2006 C2003 1.463 . S
C2006 N2010 1.427 . S
C2007 H1997 0.929 . S
C2007 C2005 1.433 . S
C2007 N2010 1.384 . S
C2008 H1999 0.929 . S
C2008 C2000 1.378 . S
C2008 C2003 1.350 . S
C2009 H1996 0.929 . S
C2009 C2001 1.433 . S
C2009 N2011 1.384 . S
N2010 C2006 1.427 . S
N2010 C2007 1.384 . S
N2011 C2003 1.427 . S
N2011 C2009 1.384 . S
H2012 C2018 0.930 . S
H2013 C2022 0.930 . S
H2014 C2027 0.929 . S
H2015 C2025 0.929 . S
H2016 C2020 0.929 . S
H2017 C2026 0.929 . S
C2018 H2012 0.930 . S
C2018 C2019 1.367 . S
C2018 C2026 1.378 . S
C2019 C2018 1.367 . S
C2019 C2027 1.433 . S
C2020 H2016 0.929 . S
C2020 C2022 1.378 . S
C2020 C2024 1.350 . S
C2021 C2024 1.463 . S
C2021 C2026 1.350 . S
C2021 N2029 1.427 . S
C2022 H2013 0.930 . S
C2022 C2020 1.378 . S
C2022 C2023 1.367 . S
C2023 C2022 1.367 . S
C2023 C2025 1.433 . S
C2024 C2020 1.350 . S
C2024 C2021 1.463 . S
C2024 N2028 1.427 . S
C2025 H2015 0.929 . S
C2025 C2023 1.433 . S
C2025 N2028 1.384 . S
C2026 H2017 0.929 . S
C2026 C2018 1.378 . S
C2026 C2021 1.350 . S
C2027 H2014 0.929 . S
C2027 C2019 1.433 . S
C2027 N2029 1.384 . S
N2028 C2024 1.427 . S
N2028 C2025 1.384 . S
N2029 C2021 1.427 . S
N2029 C2027 1.384 . S
H2030 C2036 0.930 . S
H2031 C2040 0.930 . S
H2032 C2045 0.929 . S
H2033 C2043 0.929 . S
H2034 C2038 0.929 . S
H2035 C2044 0.929 . S
C2036 H2030 0.930 . S
C2036 C2037 1.367 . S
C2036 C2044 1.378 . S
C2037 C2036 1.367 . S
C2037 C2045 1.433 . S
C2038 H2034 0.929 . S
C2038 C2040 1.378 . S
C2038 C2042 1.350 . S
C2039 C2042 1.463 . S
C2039 C2044 1.350 . S
C2039 N2047 1.427 . S
C2040 H2031 0.930 . S
C2040 C2038 1.378 . S
C2040 C2041 1.367 . S
C2041 C2040 1.367 . S
C2041 C2043 1.433 . S
C2042 C2038 1.350 . S
C2042 C2039 1.463 . S
C2042 N2046 1.427 . S
C2043 H2033 0.929 . S
C2043 C2041 1.433 . S
C2043 N2046 1.384 . S
C2044 H2035 0.929 . S
C2044 C2036 1.378 . S
C2044 C2039 1.350 . S
C2045 H2032 0.929 . S
C2045 C2037 1.433 . S
C2045 N2047 1.384 . S
N2046 C2042 1.427 . S
N2046 C2043 1.384 . S
N2047 C2039 1.427 . S
N2047 C2045 1.384 . S
H2048 C2054 0.930 . S
H2049 C2058 0.930 . S
H2050 C2063 0.929 . S
H2051 C2061 0.929 . S
H2052 C2056 0.929 . S
H2053 C2062 0.929 . S
C2054 H2048 0.930 . S
C2054 C2055 1.367 . S
C2054 C2062 1.378 . S
C2055 C2054 1.367 . S
C2055 C2063 1.433 . S
C2056 H2052 0.929 . S
C2056 C2058 1.378 . S
C2056 C2060 1.350 . S
C2057 C2060 1.463 . S
C2057 C2062 1.350 . S
C2057 N2065 1.427 . S
C2058 H2049 0.930 . S
C2058 C2056 1.378 . S
C2058 C2059 1.367 . S
C2059 C2058 1.367 . S
C2059 C2061 1.433 . S
C2060 C2056 1.350 . S
C2060 C2057 1.463 . S
C2060 N2064 1.427 . S
C2061 H2051 0.929 . S
C2061 C2059 1.433 . S
C2061 N2064 1.384 . S
C2062 H2053 0.929 . S
C2062 C2054 1.378 . S
C2062 C2057 1.350 . S
C2063 H2050 0.929 . S
C2063 C2055 1.433 . S
C2063 N2065 1.384 . S
N2064 C2060 1.427 . S
N2064 C2061 1.384 . S
N2065 C2057 1.427 . S
N2065 C2063 1.384 . S
H2066 C2072 0.930 . S
H2067 C2076 0.930 . S
H2068 C2081 0.929 . S
H2069 C2079 0.929 . S
H2070 C2074 0.929 . S
H2071 C2080 0.929 . S
C2072 H2066 0.930 . S
C2072 C2073 1.367 . S
C2072 C2080 1.378 . S
C2073 C2072 1.367 . S
C2073 C2081 1.433 . S
C2074 H2070 0.929 . S
C2074 C2076 1.378 . S
C2074 C2078 1.350 . S
C2075 C2078 1.463 . S
C2075 C2080 1.350 . S
C2075 N2083 1.427 . S
C2076 H2067 0.930 . S
C2076 C2074 1.378 . S
C2076 C2077 1.367 . S
C2077 C2076 1.367 . S
C2077 C2079 1.433 . S
C2078 C2074 1.350 . S
C2078 C2075 1.463 . S
C2078 N2082 1.427 . S
C2079 H2069 0.929 . S
C2079 C2077 1.433 . S
C2079 N2082 1.384 . S
C2080 H2071 0.929 . S
C2080 C2072 1.378 . S
C2080 C2075 1.350 . S
C2081 H2068 0.929 . S
C2081 C2073 1.433 . S
C2081 N2083 1.384 . S
N2082 C2078 1.427 . S
N2082 C2079 1.384 . S
N2083 C2075 1.427 . S
N2083 C2081 1.384 . S
H2084 C2090 0.930 . S
H2085 C2094 0.930 . S
H2086 C2099 0.929 . S
H2087 C2097 0.929 . S
H2088 C2092 0.929 . S
H2089 C2098 0.929 . S
C2090 H2084 0.930 . S
C2090 C2091 1.367 . S
C2090 C2098 1.378 . S
C2091 C2090 1.367 . S
C2091 C2099 1.433 . S
C2092 H2088 0.929 . S
C2092 C2094 1.378 . S
C2092 C2096 1.350 . S
C2093 C2096 1.463 . S
C2093 C2098 1.350 . S
C2093 N2101 1.427 . S
C2094 H2085 0.930 . S
C2094 C2092 1.378 . S
C2094 C2095 1.367 . S
C2095 C2094 1.367 . S
C2095 C2097 1.433 . S
C2096 C2092 1.350 . S
C2096 C2093 1.463 . S
C2096 N2100 1.427 . S
C2097 H2087 0.929 . S
C2097 C2095 1.433 . S
C2097 N2100 1.384 . S
C2098 H2089 0.929 . S
C2098 C2090 1.378 . S
C2098 C2093 1.350 . S
C2099 H2086 0.929 . S
C2099 C2091 1.433 . S
C2099 N2101 1.384 . S
N2100 C2096 1.427 . S
N2100 C2097 1.384 . S
N2101 C2093 1.427 . S
N2101 C2099 1.384 . S
H2102 C2108 0.930 . S
H2103 C2112 0.930 . S
H2104 C2117 0.929 . S
H2105 C2115 0.929 . S
H2106 C2110 0.929 . S
H2107 C2116 0.929 . S
C2108 H2102 0.930 . S
C2108 C2109 1.367 . S
C2108 C2116 1.378 . S
C2109 C2108 1.367 . S
C2109 C2117 1.433 . S
C2110 H2106 0.929 . S
C2110 C2112 1.378 . S
C2110 C2114 1.350 . S
C2111 C2114 1.463 . S
C2111 C2116 1.350 . S
C2111 N2119 1.427 . S
C2112 H2103 0.930 . S
C2112 C2110 1.378 . S
C2112 C2113 1.367 . S
C2113 C2112 1.367 . S
C2113 C2115 1.433 . S
C2114 C2110 1.350 . S
C2114 C2111 1.463 . S
C2114 N2118 1.427 . S
C2115 H2105 0.929 . S
C2115 C2113 1.433 . S
C2115 N2118 1.384 . S
C2116 H2107 0.929 . S
C2116 C2108 1.378 . S
C2116 C2111 1.350 . S
C2117 H2104 0.929 . S
C2117 C2109 1.433 . S
C2117 N2119 1.384 . S
N2118 C2114 1.427 . S
N2118 C2115 1.384 . S
N2119 C2111 1.427 . S
N2119 C2117 1.384 . S
H2120 C2126 0.930 . S
H2121 C2130 0.930 . S
H2122 C2135 0.929 . S
H2123 C2133 0.929 . S
H2124 C2128 0.929 . S
H2125 C2134 0.929 . S
C2126 H2120 0.930 . S
C2126 C2127 1.367 . S
C2126 C2134 1.378 . S
C2127 C2126 1.367 . S
C2127 C2135 1.433 . S
C2128 H2124 0.929 . S
C2128 C2130 1.378 . S
C2128 C2132 1.350 . S
C2129 C2132 1.463 . S
C2129 C2134 1.350 . S
C2129 N2137 1.427 . S
C2130 H2121 0.930 . S
C2130 C2128 1.378 . S
C2130 C2131 1.367 . S
C2131 C2130 1.367 . S
C2131 C2133 1.433 . S
C2132 C2128 1.350 . S
C2132 C2129 1.463 . S
C2132 N2136 1.427 . S
C2133 H2123 0.929 . S
C2133 C2131 1.433 . S
C2133 N2136 1.384 . S
C2134 H2125 0.929 . S
C2134 C2126 1.378 . S
C2134 C2129 1.350 . S
C2135 H2122 0.929 . S
C2135 C2127 1.433 . S
C2135 N2137 1.384 . S
N2136 C2132 1.427 . S
N2136 C2133 1.384 . S
N2137 C2129 1.427 . S
N2137 C2135 1.384 . S
H2138 C2144 0.930 . S
H2139 C2148 0.930 . S
H2140 C2153 0.929 . S
H2141 C2151 0.929 . S
H2142 C2146 0.929 . S
H2143 C2152 0.929 . S
C2144 H2138 0.930 . S
C2144 C2145 1.367 . S
C2144 C2152 1.378 . S
C2145 C2144 1.367 . S
C2145 C2153 1.433 . S
C2146 H2142 0.929 . S
C2146 C2148 1.378 . S
C2146 C2150 1.350 . S
C2147 C2150 1.463 . S
C2147 C2152 1.350 . S
C2147 N2155 1.427 . S
C2148 H2139 0.930 . S
C2148 C2146 1.378 . S
C2148 C2149 1.367 . S
C2149 C2148 1.367 . S
C2149 C2151 1.433 . S
C2150 C2146 1.350 . S
C2150 C2147 1.463 . S
C2150 N2154 1.427 . S
C2151 H2141 0.929 . S
C2151 C2149 1.433 . S
C2151 N2154 1.384 . S
C2152 H2143 0.929 . S
C2152 C2144 1.378 . S
C2152 C2147 1.350 . S
C2153 H2140 0.929 . S
C2153 C2145 1.433 . S
C2153 N2155 1.384 . S
N2154 C2150 1.427 . S
N2154 C2151 1.384 . S
N2155 C2147 1.427 . S
N2155 C2153 1.384 . S
H2156 C2162 0.930 . S
H2157 C2166 0.930 . S
H2158 C2171 0.929 . S
H2159 C2169 0.929 . S
H2160 C2164 0.929 . S
H2161 C2170 0.929 . S
C2162 H2156 0.930 . S
C2162 C2163 1.367 . S
C2162 C2170 1.378 . S
C2163 C2162 1.367 . S
C2163 C2171 1.433 . S
C2164 H2160 0.929 . S
C2164 C2166 1.378 . S
C2164 C2168 1.350 . S
C2165 C2168 1.463 . S
C2165 C2170 1.350 . S
C2165 N2173 1.427 . S
C2166 H2157 0.930 . S
C2166 C2164 1.378 . S
C2166 C2167 1.367 . S
C2167 C2166 1.367 . S
C2167 C2169 1.433 . S
C2168 C2164 1.350 . S
C2168 C2165 1.463 . S
C2168 N2172 1.427 . S
C2169 H2159 0.929 . S
C2169 C2167 1.433 . S
C2169 N2172 1.384 . S
C2170 H2161 0.929 . S
C2170 C2162 1.378 . S
C2170 C2165 1.350 . S
C2171 H2158 0.929 . S
C2171 C2163 1.433 . S
C2171 N2173 1.384 . S
N2172 C2168 1.427 . S
N2172 C2169 1.384 . S
N2173 C2165 1.427 . S
N2173 C2171 1.384 . S
H2174 C2180 0.930 . S
H2175 C2184 0.930 . S
H2176 C2189 0.929 . S
H2177 C2187 0.929 . S
H2178 C2182 0.929 . S
H2179 C2188 0.929 . S
C2180 H2174 0.930 . S
C2180 C2181 1.367 . S
C2180 C2188 1.378 . S
C2181 C2180 1.367 . S
C2181 C2189 1.433 . S
C2182 H2178 0.929 . S
C2182 C2184 1.378 . S
C2182 C2186 1.350 . S
C2183 C2186 1.463 . S
C2183 C2188 1.350 . S
C2183 N2191 1.427 . S
C2184 H2175 0.930 . S
C2184 C2182 1.378 . S
C2184 C2185 1.367 . S
C2185 C2184 1.367 . S
C2185 C2187 1.433 . S
C2186 C2182 1.350 . S
C2186 C2183 1.463 . S
C2186 N2190 1.427 . S
C2187 H2177 0.929 . S
C2187 C2185 1.433 . S
C2187 N2190 1.384 . S
C2188 H2179 0.929 . S
C2188 C2180 1.378 . S
C2188 C2183 1.350 . S
C2189 H2176 0.929 . S
C2189 C2181 1.433 . S
C2189 N2191 1.384 . S
N2190 C2186 1.427 . S
N2190 C2187 1.384 . S
N2191 C2183 1.427 . S
N2191 C2189 1.384 . S
H2192 C2198 0.930 . S
H2193 C2202 0.930 . S
H2194 C2207 0.929 . S
H2195 C2205 0.929 . S
H2196 C2200 0.929 . S
H2197 C2206 0.929 . S
C2198 H2192 0.930 . S
C2198 C2199 1.367 . S
C2198 C2206 1.378 . S
C2199 C2198 1.367 . S
C2199 C2207 1.433 . S
C2200 H2196 0.929 . S
C2200 C2202 1.378 . S
C2200 C2204 1.350 . S
C2201 C2204 1.463 . S
C2201 C2206 1.350 . S
C2201 N2209 1.427 . S
C2202 H2193 0.930 . S
C2202 C2200 1.378 . S
C2202 C2203 1.367 . S
C2203 C2202 1.367 . S
C2203 C2205 1.433 . S
C2204 C2200 1.350 . S
C2204 C2201 1.463 . S
C2204 N2208 1.427 . S
C2205 H2195 0.929 . S
C2205 C2203 1.433 . S
C2205 N2208 1.384 . S
C2206 H2197 0.929 . S
C2206 C2198 1.378 . S
C2206 C2201 1.350 . S
C2207 H2194 0.929 . S
C2207 C2199 1.433 . S
C2207 N2209 1.384 . S
N2208 C2204 1.427 . S
N2208 C2205 1.384 . S
N2209 C2201 1.427 . S
N2209 C2207 1.384 . S
H2210 C2216 0.930 . S
H2211 C2220 0.930 . S
H2212 C2225 0.929 . S
H2213 C2223 0.929 . S
H2214 C2218 0.929 . S
H2215 C2224 0.929 . S
C2216 H2210 0.930 . S
C2216 C2217 1.367 . S
C2216 C2224 1.378 . S
C2217 C2216 1.367 . S
C2217 C2225 1.433 . S
C2218 H2214 0.929 . S
C2218 C2220 1.378 . S
C2218 C2222 1.350 . S
C2219 C2222 1.463 . S
C2219 C2224 1.350 . S
C2219 N2227 1.427 . S
C2220 H2211 0.930 . S
C2220 C2218 1.378 . S
C2220 C2221 1.367 . S
C2221 C2220 1.367 . S
C2221 C2223 1.433 . S
C2222 C2218 1.350 . S
C2222 C2219 1.463 . S
C2222 N2226 1.427 . S
C2223 H2213 0.929 . S
C2223 C2221 1.433 . S
C2223 N2226 1.384 . S
C2224 H2215 0.929 . S
C2224 C2216 1.378 . S
C2224 C2219 1.350 . S
C2225 H2212 0.929 . S
C2225 C2217 1.433 . S
C2225 N2227 1.384 . S
N2226 C2222 1.427 . S
N2226 C2223 1.384 . S
N2227 C2219 1.427 . S
N2227 C2225 1.384 . S
H2228 C2234 0.930 . S
H2229 C2238 0.930 . S
H2230 C2243 0.929 . S
H2231 C2241 0.929 . S
H2232 C2236 0.929 . S
H2233 C2242 0.929 . S
C2234 H2228 0.930 . S
C2234 C2235 1.367 . S
C2234 C2242 1.378 . S
C2235 C2234 1.367 . S
C2235 C2243 1.433 . S
C2236 H2232 0.929 . S
C2236 C2238 1.378 . S
C2236 C2240 1.350 . S
C2237 C2240 1.463 . S
C2237 C2242 1.350 . S
C2237 N2245 1.427 . S
C2238 H2229 0.930 . S
C2238 C2236 1.378 . S
C2238 C2239 1.367 . S
C2239 C2238 1.367 . S
C2239 C2241 1.433 . S
C2240 C2236 1.350 . S
C2240 C2237 1.463 . S
C2240 N2244 1.427 . S
C2241 H2231 0.929 . S
C2241 C2239 1.433 . S
C2241 N2244 1.384 . S
C2242 H2233 0.929 . S
C2242 C2234 1.378 . S
C2242 C2237 1.350 . S
C2243 H2230 0.929 . S
C2243 C2235 1.433 . S
C2243 N2245 1.384 . S
N2244 C2240 1.427 . S
N2244 C2241 1.384 . S
N2245 C2237 1.427 . S
N2245 C2243 1.384 . S
H2246 C2252 0.930 . S
H2247 C2256 0.930 . S
H2248 C2261 0.929 . S
H2249 C2259 0.929 . S
H2250 C2254 0.929 . S
H2251 C2260 0.929 . S
C2252 H2246 0.930 . S
C2252 C2253 1.367 . S
C2252 C2260 1.378 . S
C2253 C2252 1.367 . S
C2253 C2261 1.433 . S
C2254 H2250 0.929 . S
C2254 C2256 1.378 . S
C2254 C2258 1.350 . S
C2255 C2258 1.463 . S
C2255 C2260 1.350 . S
C2255 N2263 1.427 . S
C2256 H2247 0.930 . S
C2256 C2254 1.378 . S
C2256 C2257 1.367 . S
C2257 C2256 1.367 . S
C2257 C2259 1.433 . S
C2258 C2254 1.350 . S
C2258 C2255 1.463 . S
C2258 N2262 1.427 . S
C2259 H2249 0.929 . S
C2259 C2257 1.433 . S
C2259 N2262 1.384 . S
C2260 H2251 0.929 . S
C2260 C2252 1.378 . S
C2260 C2255 1.350 . S
C2261 H2248 0.929 . S
C2261 C2253 1.433 . S
C2261 N2263 1.384 . S
N2262 C2258 1.427 . S
N2262 C2259 1.384 . S
N2263 C2255 1.427 . S
N2263 C2261 1.384 . S
H2264 C2270 0.930 . S
H2265 C2274 0.930 . S
H2266 C2279 0.929 . S
H2267 C2277 0.929 . S
H2268 C2272 0.929 . S
H2269 C2278 0.929 . S
C2270 H2264 0.930 . S
C2270 C2271 1.367 . S
C2270 C2278 1.378 . S
C2271 C2270 1.367 . S
C2271 C2279 1.433 . S
C2272 H2268 0.929 . S
C2272 C2274 1.378 . S
C2272 C2276 1.350 . S
C2273 C2276 1.463 . S
C2273 C2278 1.350 . S
C2273 N2281 1.427 . S
C2274 H2265 0.930 . S
C2274 C2272 1.378 . S
C2274 C2275 1.367 . S
C2275 C2274 1.367 . S
C2275 C2277 1.433 . S
C2276 C2272 1.350 . S
C2276 C2273 1.463 . S
C2276 N2280 1.427 . S
C2277 H2267 0.929 . S
C2277 C2275 1.433 . S
C2277 N2280 1.384 . S
C2278 H2269 0.929 . S
C2278 C2270 1.378 . S
C2278 C2273 1.350 . S
C2279 H2266 0.929 . S
C2279 C2271 1.433 . S
C2279 N2281 1.384 . S
N2280 C2276 1.427 . S
N2280 C2277 1.384 . S
N2281 C2273 1.427 . S
N2281 C2279 1.384 . S
H2282 C2288 0.930 . S
H2283 C2292 0.930 . S
H2284 C2297 0.929 . S
H2285 C2295 0.929 . S
H2286 C2290 0.929 . S
H2287 C2296 0.929 . S
C2288 H2282 0.930 . S
C2288 C2289 1.367 . S
C2288 C2296 1.378 . S
C2289 C2288 1.367 . S
C2289 C2297 1.433 . S
C2290 H2286 0.929 . S
C2290 C2292 1.378 . S
C2290 C2294 1.350 . S
C2291 C2294 1.463 . S
C2291 C2296 1.350 . S
C2291 N2299 1.427 . S
C2292 H2283 0.930 . S
C2292 C2290 1.378 . S
C2292 C2293 1.367 . S
C2293 C2292 1.367 . S
C2293 C2295 1.433 . S
C2294 C2290 1.350 . S
C2294 C2291 1.463 . S
C2294 N2298 1.427 . S
C2295 H2285 0.929 . S
C2295 C2293 1.433 . S
C2295 N2298 1.384 . S
C2296 H2287 0.929 . S
C2296 C2288 1.378 . S
C2296 C2291 1.350 . S
C2297 H2284 0.929 . S
C2297 C2289 1.433 . S
C2297 N2299 1.384 . S
N2298 C2294 1.427 . S
N2298 C2295 1.384 . S
N2299 C2291 1.427 . S
N2299 C2297 1.384 . S
H2300 C2306 0.930 . S
H2301 C2310 0.930 . S
H2302 C2315 0.929 . S
H2303 C2313 0.929 . S
H2304 C2308 0.929 . S
H2305 C2314 0.929 . S
C2306 H2300 0.930 . S
C2306 C2307 1.367 . S
C2306 C2314 1.378 . S
C2307 C2306 1.367 . S
C2307 C2315 1.433 . S
C2308 H2304 0.929 . S
C2308 C2310 1.378 . S
C2308 C2312 1.350 . S
C2309 C2312 1.463 . S
C2309 C2314 1.350 . S
C2309 N2317 1.427 . S
C2310 H2301 0.930 . S
C2310 C2308 1.378 . S
C2310 C2311 1.367 . S
C2311 C2310 1.367 . S
C2311 C2313 1.433 . S
C2312 C2308 1.350 . S
C2312 C2309 1.463 . S
C2312 N2316 1.427 . S
C2313 H2303 0.929 . S
C2313 C2311 1.433 . S
C2313 N2316 1.384 . S
C2314 H2305 0.929 . S
C2314 C2306 1.378 . S
C2314 C2309 1.350 . S
C2315 H2302 0.929 . S
C2315 C2307 1.433 . S
C2315 N2317 1.384 . S
N2316 C2312 1.427 . S
N2316 C2313 1.384 . S
N2317 C2309 1.427 . S
N2317 C2315 1.384 . S
H2318 C2324 0.930 . S
H2319 C2328 0.930 . S
H2320 C2333 0.929 . S
H2321 C2331 0.929 . S
H2322 C2326 0.929 . S
H2323 C2332 0.929 . S
C2324 H2318 0.930 . S
C2324 C2325 1.367 . S
C2324 C2332 1.378 . S
C2325 C2324 1.367 . S
C2325 C2333 1.433 . S
C2326 H2322 0.929 . S
C2326 C2328 1.378 . S
C2326 C2330 1.350 . S
C2327 C2330 1.463 . S
C2327 C2332 1.350 . S
C2327 N2335 1.427 . S
C2328 H2319 0.930 . S
C2328 C2326 1.378 . S
C2328 C2329 1.367 . S
C2329 C2328 1.367 . S
C2329 C2331 1.433 . S
C2330 C2326 1.350 . S
C2330 C2327 1.463 . S
C2330 N2334 1.427 . S
C2331 H2321 0.929 . S
C2331 C2329 1.433 . S
C2331 N2334 1.384 . S
C2332 H2323 0.929 . S
C2332 C2324 1.378 . S
C2332 C2327 1.350 . S
C2333 H2320 0.929 . S
C2333 C2325 1.433 . S
C2333 N2335 1.384 . S
N2334 C2330 1.427 . S
N2334 C2331 1.384 . S
N2335 C2327 1.427 . S
N2335 C2333 1.384 . S
H2336 C2342 0.930 . S
H2337 C2346 0.930 . S
H2338 C2351 0.929 . S
H2339 C2349 0.929 . S
H2340 C2344 0.929 . S
H2341 C2350 0.929 . S
C2342 H2336 0.930 . S
C2342 C2343 1.367 . S
C2342 C2350 1.378 . S
C2343 C2342 1.367 . S
C2343 C2351 1.433 . S
C2344 H2340 0.929 . S
C2344 C2346 1.378 . S
C2344 C2348 1.350 . S
C2345 C2348 1.463 . S
C2345 C2350 1.350 . S
C2345 N2353 1.427 . S
C2346 H2337 0.930 . S
C2346 C2344 1.378 . S
C2346 C2347 1.367 . S
C2347 C2346 1.367 . S
C2347 C2349 1.433 . S
C2348 C2344 1.350 . S
C2348 C2345 1.463 . S
C2348 N2352 1.427 . S
C2349 H2339 0.929 . S
C2349 C2347 1.433 . S
C2349 N2352 1.384 . S
C2350 H2341 0.929 . S
C2350 C2342 1.378 . S
C2350 C2345 1.350 . S
C2351 H2338 0.929 . S
C2351 C2343 1.433 . S
C2351 N2353 1.384 . S
N2352 C2348 1.427 . S
N2352 C2349 1.384 . S
N2353 C2345 1.427 . S
N2353 C2351 1.384 . S
H2354 C2360 0.930 . S
H2355 C2364 0.930 . S
H2356 C2369 0.929 . S
H2357 C2367 0.929 . S
H2358 C2362 0.929 . S
H2359 C2368 0.929 . S
C2360 H2354 0.930 . S
C2360 C2361 1.367 . S
C2360 C2368 1.378 . S
C2361 C2360 1.367 . S
C2361 C2369 1.433 . S
C2362 H2358 0.929 . S
C2362 C2364 1.378 . S
C2362 C2366 1.350 . S
C2363 C2366 1.463 . S
C2363 C2368 1.350 . S
C2363 N2371 1.427 . S
C2364 H2355 0.930 . S
C2364 C2362 1.378 . S
C2364 C2365 1.367 . S
C2365 C2364 1.367 . S
C2365 C2367 1.433 . S
C2366 C2362 1.350 . S
C2366 C2363 1.463 . S
C2366 N2370 1.427 . S
C2367 H2357 0.929 . S
C2367 C2365 1.433 . S
C2367 N2370 1.384 . S
C2368 H2359 0.929 . S
C2368 C2360 1.378 . S
C2368 C2363 1.350 . S
C2369 H2356 0.929 . S
C2369 C2361 1.433 . S
C2369 N2371 1.384 . S
N2370 C2366 1.427 . S
N2370 C2367 1.384 . S
N2371 C2363 1.427 . S
N2371 C2369 1.384 . S
H2372 C2378 0.930 . S
H2373 C2382 0.930 . S
H2374 C2387 0.929 . S
H2375 C2385 0.929 . S
H2376 C2380 0.929 . S
H2377 C2386 0.929 . S
C2378 H2372 0.930 . S
C2378 C2379 1.367 . S
C2378 C2386 1.378 . S
C2379 C2378 1.367 . S
C2379 C2387 1.433 . S
C2380 H2376 0.929 . S
C2380 C2382 1.378 . S
C2380 C2384 1.350 . S
C2381 C2384 1.463 . S
C2381 C2386 1.350 . S
C2381 N2389 1.427 . S
C2382 H2373 0.930 . S
C2382 C2380 1.378 . S
C2382 C2383 1.367 . S
C2383 C2382 1.367 . S
C2383 C2385 1.433 . S
C2384 C2380 1.350 . S
C2384 C2381 1.463 . S
C2384 N2388 1.427 . S
C2385 H2375 0.929 . S
C2385 C2383 1.433 . S
C2385 N2388 1.384 . S
C2386 H2377 0.929 . S
C2386 C2378 1.378 . S
C2386 C2381 1.350 . S
C2387 H2374 0.929 . S
C2387 C2379 1.433 . S
C2387 N2389 1.384 . S
N2388 C2384 1.427 . S
N2388 C2385 1.384 . S
N2389 C2381 1.427 . S
N2389 C2387 1.384 . S
H2390 C2396 0.930 . S
H2391 C2400 0.930 . S
H2392 C2405 0.929 . S
H2393 C2403 0.929 . S
H2394 C2398 0.929 . S
H2395 C2404 0.929 . S
C2396 H2390 0.930 . S
C2396 C2397 1.367 . S
C2396 C2404 1.378 . S
C2397 C2396 1.367 . S
C2397 C2405 1.433 . S
C2398 H2394 0.929 . S
C2398 C2400 1.378 . S
C2398 C2402 1.350 . S
C2399 C2402 1.463 . S
C2399 C2404 1.350 . S
C2399 N2407 1.427 . S
C2400 H2391 0.930 . S
C2400 C2398 1.378 . S
C2400 C2401 1.367 . S
C2401 C2400 1.367 . S
C2401 C2403 1.433 . S
C2402 C2398 1.350 . S
C2402 C2399 1.463 . S
C2402 N2406 1.427 . S
C2403 H2393 0.929 . S
C2403 C2401 1.433 . S
C2403 N2406 1.384 . S
C2404 H2395 0.929 . S
C2404 C2396 1.378 . S
C2404 C2399 1.350 . S
C2405 H2392 0.929 . S
C2405 C2397 1.433 . S
C2405 N2407 1.384 . S
N2406 C2402 1.427 . S
N2406 C2403 1.384 . S
N2407 C2399 1.427 . S
N2407 C2405 1.384 . S
H2408 C2414 0.930 . S
H2409 C2418 0.930 . S
H2410 C2423 0.929 . S
H2411 C2421 0.929 . S
H2412 C2416 0.929 . S
H2413 C2422 0.929 . S
C2414 H2408 0.930 . S
C2414 C2415 1.367 . S
C2414 C2422 1.378 . S
C2415 C2414 1.367 . S
C2415 C2423 1.433 . S
C2416 H2412 0.929 . S
C2416 C2418 1.378 . S
C2416 C2420 1.350 . S
C2417 C2420 1.463 . S
C2417 C2422 1.350 . S
C2417 N2425 1.427 . S
C2418 H2409 0.930 . S
C2418 C2416 1.378 . S
C2418 C2419 1.367 . S
C2419 C2418 1.367 . S
C2419 C2421 1.433 . S
C2420 C2416 1.350 . S
C2420 C2417 1.463 . S
C2420 N2424 1.427 . S
C2421 H2411 0.929 . S
C2421 C2419 1.433 . S
C2421 N2424 1.384 . S
C2422 H2413 0.929 . S
C2422 C2414 1.378 . S
C2422 C2417 1.350 . S
C2423 H2410 0.929 . S
C2423 C2415 1.433 . S
C2423 N2425 1.384 . S
N2424 C2420 1.427 . S
N2424 C2421 1.384 . S
N2425 C2417 1.427 . S
N2425 C2423 1.384 . S
H2426 C2432 0.930 . S
H2427 C2436 0.930 . S
H2428 C2441 0.929 . S
H2429 C2439 0.929 . S
H2430 C2434 0.929 . S
H2431 C2440 0.929 . S
C2432 H2426 0.930 . S
C2432 C2433 1.367 . S
C2432 C2440 1.378 . S
C2433 C2432 1.367 . S
C2433 C2441 1.433 . S
C2434 H2430 0.929 . S
C2434 C2436 1.378 . S
C2434 C2438 1.350 . S
C2435 C2438 1.463 . S
C2435 C2440 1.350 . S
C2435 N2443 1.427 . S
C2436 H2427 0.930 . S
C2436 C2434 1.378 . S
C2436 C2437 1.367 . S
C2437 C2436 1.367 . S
C2437 C2439 1.433 . S
C2438 C2434 1.350 . S
C2438 C2435 1.463 . S
C2438 N2442 1.427 . S
C2439 H2429 0.929 . S
C2439 C2437 1.433 . S
C2439 N2442 1.384 . S
C2440 H2431 0.929 . S
C2440 C2432 1.378 . S
C2440 C2435 1.350 . S
C2441 H2428 0.929 . S
C2441 C2433 1.433 . S
C2441 N2443 1.384 . S
N2442 C2438 1.427 . S
N2442 C2439 1.384 . S
N2443 C2435 1.427 . S
N2443 C2441 1.384 . S
H2444 C2450 0.930 . S
H2445 C2454 0.930 . S
H2446 C2459 0.929 . S
H2447 C2457 0.929 . S
H2448 C2452 0.929 . S
H2449 C2458 0.929 . S
C2450 H2444 0.930 . S
C2450 C2451 1.367 . S
C2450 C2458 1.378 . S
C2451 C2450 1.367 . S
C2451 C2459 1.433 . S
C2452 H2448 0.929 . S
C2452 C2454 1.378 . S
C2452 C2456 1.350 . S
C2453 C2456 1.463 . S
C2453 C2458 1.350 . S
C2453 N2461 1.427 . S
C2454 H2445 0.930 . S
C2454 C2452 1.378 . S
C2454 C2455 1.367 . S
C2455 C2454 1.367 . S
C2455 C2457 1.433 . S
C2456 C2452 1.350 . S
C2456 C2453 1.463 . S
C2456 N2460 1.427 . S
C2457 H2447 0.929 . S
C2457 C2455 1.433 . S
C2457 N2460 1.384 . S
C2458 H2449 0.929 . S
C2458 C2450 1.378 . S
C2458 C2453 1.350 . S
C2459 H2446 0.929 . S
C2459 C2451 1.433 . S
C2459 N2461 1.384 . S
N2460 C2456 1.427 . S
N2460 C2457 1.384 . S
N2461 C2453 1.427 . S
N2461 C2459 1.384 . S
H2462 C2468 0.930 . S
H2463 C2472 0.930 . S
H2464 C2477 0.929 . S
H2465 C2475 0.929 . S
H2466 C2470 0.929 . S
H2467 C2476 0.929 . S
C2468 H2462 0.930 . S
C2468 C2469 1.367 . S
C2468 C2476 1.378 . S
C2469 C2468 1.367 . S
C2469 C2477 1.433 . S
C2470 H2466 0.929 . S
C2470 C2472 1.378 . S
C2470 C2474 1.350 . S
C2471 C2474 1.463 . S
C2471 C2476 1.350 . S
C2471 N2479 1.427 . S
C2472 H2463 0.930 . S
C2472 C2470 1.378 . S
C2472 C2473 1.367 . S
C2473 C2472 1.367 . S
C2473 C2475 1.433 . S
C2474 C2470 1.350 . S
C2474 C2471 1.463 . S
C2474 N2478 1.427 . S
C2475 H2465 0.929 . S
C2475 C2473 1.433 . S
C2475 N2478 1.384 . S
C2476 H2467 0.929 . S
C2476 C2468 1.378 . S
C2476 C2471 1.350 . S
C2477 H2464 0.929 . S
C2477 C2469 1.433 . S
C2477 N2479 1.384 . S
N2478 C2474 1.427 . S
N2478 C2475 1.384 . S
N2479 C2471 1.427 . S
N2479 C2477 1.384 . S
H2480 C2486 0.930 . S
H2481 C2490 0.930 . S
H2482 C2495 0.929 . S
H2483 C2493 0.929 . S
H2484 C2488 0.929 . S
H2485 C2494 0.929 . S
C2486 H2480 0.930 . S
C2486 C2487 1.367 . S
C2486 C2494 1.378 . S
C2487 C2486 1.367 . S
C2487 C2495 1.433 . S
C2488 H2484 0.929 . S
C2488 C2490 1.378 . S
C2488 C2492 1.350 . S
C2489 C2492 1.463 . S
C2489 C2494 1.350 . S
C2489 N2497 1.427 . S
C2490 H2481 0.930 . S
C2490 C2488 1.378 . S
C2490 C2491 1.367 . S
C2491 C2490 1.367 . S
C2491 C2493 1.433 . S
C2492 C2488 1.350 . S
C2492 C2489 1.463 . S
C2492 N2496 1.427 . S
C2493 H2483 0.929 . S
C2493 C2491 1.433 . S
C2493 N2496 1.384 . S
C2494 H2485 0.929 . S
C2494 C2486 1.378 . S
C2494 C2489 1.350 . S
C2495 H2482 0.929 . S
C2495 C2487 1.433 . S
C2495 N2497 1.384 . S
N2496 C2492 1.427 . S
N2496 C2493 1.384 . S
N2497 C2489 1.427 . S
N2497 C2495 1.384 . S
H2498 C2504 0.930 . S
H2499 C2508 0.930 . S
H2500 C2513 0.929 . S
H2501 C2511 0.929 . S
H2502 C2506 0.929 . S
H2503 C2512 0.929 . S
C2504 H2498 0.930 . S
C2504 C2505 1.367 . S
C2504 C2512 1.378 . S
C2505 C2504 1.367 . S
C2505 C2513 1.433 . S
C2506 H2502 0.929 . S
C2506 C2508 1.378 . S
C2506 C2510 1.350 . S
C2507 C2510 1.463 . S
C2507 C2512 1.350 . S
C2507 N2515 1.427 . S
C2508 H2499 0.930 . S
C2508 C2506 1.378 . S
C2508 C2509 1.367 . S
C2509 C2508 1.367 . S
C2509 C2511 1.433 . S
C2510 C2506 1.350 . S
C2510 C2507 1.463 . S
C2510 N2514 1.427 . S
C2511 H2501 0.929 . S
C2511 C2509 1.433 . S
C2511 N2514 1.384 . S
C2512 H2503 0.929 . S
C2512 C2504 1.378 . S
C2512 C2507 1.350 . S
C2513 H2500 0.929 . S
C2513 C2505 1.433 . S
C2513 N2515 1.384 . S
N2514 C2510 1.427 . S
N2514 C2511 1.384 . S
N2515 C2507 1.427 . S
N2515 C2513 1.384 . S
H2516 C2522 0.930 . S
H2517 C2526 0.930 . S
H2518 C2531 0.929 . S
H2519 C2529 0.929 . S
H2520 C2524 0.929 . S
H2521 C2530 0.929 . S
C2522 H2516 0.930 . S
C2522 C2523 1.367 . S
C2522 C2530 1.378 . S
C2523 C2522 1.367 . S
C2523 C2531 1.433 . S
C2524 H2520 0.929 . S
C2524 C2526 1.378 . S
C2524 C2528 1.350 . S
C2525 C2528 1.463 . S
C2525 C2530 1.350 . S
C2525 N2533 1.427 . S
C2526 H2517 0.930 . S
C2526 C2524 1.378 . S
C2526 C2527 1.367 . S
C2527 C2526 1.367 . S
C2527 C2529 1.433 . S
C2528 C2524 1.350 . S
C2528 C2525 1.463 . S
C2528 N2532 1.427 . S
C2529 H2519 0.929 . S
C2529 C2527 1.433 . S
C2529 N2532 1.384 . S
C2530 H2521 0.929 . S
C2530 C2522 1.378 . S
C2530 C2525 1.350 . S
C2531 H2518 0.929 . S
C2531 C2523 1.433 . S
C2531 N2533 1.384 . S
N2532 C2528 1.427 . S
N2532 C2529 1.384 . S
N2533 C2525 1.427 . S
N2533 C2531 1.384 . S
H2534 C2540 0.930 . S
H2535 C2544 0.930 . S
H2536 C2549 0.929 . S
H2537 C2547 0.929 . S
H2538 C2542 0.929 . S
H2539 C2548 0.929 . S
C2540 H2534 0.930 . S
C2540 C2541 1.367 . S
C2540 C2548 1.378 . S
C2541 C2540 1.367 . S
C2541 C2549 1.433 . S
C2542 H2538 0.929 . S
C2542 C2544 1.378 . S
C2542 C2546 1.350 . S
C2543 C2546 1.463 . S
C2543 C2548 1.350 . S
C2543 N2551 1.427 . S
C2544 H2535 0.930 . S
C2544 C2542 1.378 . S
C2544 C2545 1.367 . S
C2545 C2544 1.367 . S
C2545 C2547 1.433 . S
C2546 C2542 1.350 . S
C2546 C2543 1.463 . S
C2546 N2550 1.427 . S
C2547 H2537 0.929 . S
C2547 C2545 1.433 . S
C2547 N2550 1.384 . S
C2548 H2539 0.929 . S
C2548 C2540 1.378 . S
C2548 C2543 1.350 . S
C2549 H2536 0.929 . S
C2549 C2541 1.433 . S
C2549 N2551 1.384 . S
N2550 C2546 1.427 . S
N2550 C2547 1.384 . S
N2551 C2543 1.427 . S
N2551 C2549 1.384 . S
H2552 C2558 0.930 . S
H2553 C2562 0.930 . S
H2554 C2567 0.929 . S
H2555 C2565 0.929 . S
H2556 C2560 0.929 . S
H2557 C2566 0.929 . S
C2558 H2552 0.930 . S
C2558 C2559 1.367 . S
C2558 C2566 1.378 . S
C2559 C2558 1.367 . S
C2559 C2567 1.433 . S
C2560 H2556 0.929 . S
C2560 C2562 1.378 . S
C2560 C2564 1.350 . S
C2561 C2564 1.463 . S
C2561 C2566 1.350 . S
C2561 N2569 1.427 . S
C2562 H2553 0.930 . S
C2562 C2560 1.378 . S
C2562 C2563 1.367 . S
C2563 C2562 1.367 . S
C2563 C2565 1.433 . S
C2564 C2560 1.350 . S
C2564 C2561 1.463 . S
C2564 N2568 1.427 . S
C2565 H2555 0.929 . S
C2565 C2563 1.433 . S
C2565 N2568 1.384 . S
C2566 H2557 0.929 . S
C2566 C2558 1.378 . S
C2566 C2561 1.350 . S
C2567 H2554 0.929 . S
C2567 C2559 1.433 . S
C2567 N2569 1.384 . S
N2568 C2564 1.427 . S
N2568 C2565 1.384 . S
N2569 C2561 1.427 . S
N2569 C2567 1.384 . S
H2570 C2576 0.930 . S
H2571 C2580 0.930 . S
H2572 C2585 0.929 . S
H2573 C2583 0.929 . S
H2574 C2578 0.929 . S
H2575 C2584 0.929 . S
C2576 H2570 0.930 . S
C2576 C2577 1.367 . S
C2576 C2584 1.378 . S
C2577 C2576 1.367 . S
C2577 C2585 1.433 . S
C2578 H2574 0.929 . S
C2578 C2580 1.378 . S
C2578 C2582 1.350 . S
C2579 C2582 1.463 . S
C2579 C2584 1.350 . S
C2579 N2587 1.427 . S
C2580 H2571 0.930 . S
C2580 C2578 1.378 . S
C2580 C2581 1.367 . S
C2581 C2580 1.367 . S
C2581 C2583 1.433 . S
C2582 C2578 1.350 . S
C2582 C2579 1.463 . S
C2582 N2586 1.427 . S
C2583 H2573 0.929 . S
C2583 C2581 1.433 . S
C2583 N2586 1.384 . S
C2584 H2575 0.929 . S
C2584 C2576 1.378 . S
C2584 C2579 1.350 . S
C2585 H2572 0.929 . S
C2585 C2577 1.433 . S
C2585 N2587 1.384 . S
N2586 C2582 1.427 . S
N2586 C2583 1.384 . S
N2587 C2579 1.427 . S
N2587 C2585 1.384 . S
H2588 C2594 0.930 . S
H2589 C2598 0.930 . S
H2590 C2603 0.929 . S
H2591 C2601 0.929 . S
H2592 C2596 0.929 . S
H2593 C2602 0.929 . S
C2594 H2588 0.930 . S
C2594 C2595 1.367 . S
C2594 C2602 1.378 . S
C2595 C2594 1.367 . S
C2595 C2603 1.433 . S
C2596 H2592 0.929 . S
C2596 C2598 1.378 . S
C2596 C2600 1.350 . S
C2597 C2600 1.463 . S
C2597 C2602 1.350 . S
C2597 N2605 1.427 . S
C2598 H2589 0.930 . S
C2598 C2596 1.378 . S
C2598 C2599 1.367 . S
C2599 C2598 1.367 . S
C2599 C2601 1.433 . S
C2600 C2596 1.350 . S
C2600 C2597 1.463 . S
C2600 N2604 1.427 . S
C2601 H2591 0.929 . S
C2601 C2599 1.433 . S
C2601 N2604 1.384 . S
C2602 H2593 0.929 . S
C2602 C2594 1.378 . S
C2602 C2597 1.350 . S
C2603 H2590 0.929 . S
C2603 C2595 1.433 . S
C2603 N2605 1.384 . S
N2604 C2600 1.427 . S
N2604 C2601 1.384 . S
N2605 C2597 1.427 . S
N2605 C2603 1.384 . S
H2606 C2612 0.930 . S
H2607 C2616 0.930 . S
H2608 C2621 0.929 . S
H2609 C2619 0.929 . S
H2610 C2614 0.929 . S
H2611 C2620 0.929 . S
C2612 H2606 0.930 . S
C2612 C2613 1.367 . S
C2612 C2620 1.378 . S
C2613 C2612 1.367 . S
C2613 C2621 1.433 . S
C2614 H2610 0.929 . S
C2614 C2616 1.378 . S
C2614 C2618 1.350 . S
C2615 C2618 1.463 . S
C2615 C2620 1.350 . S
C2615 N2623 1.427 . S
C2616 H2607 0.930 . S
C2616 C2614 1.378 . S
C2616 C2617 1.367 . S
C2617 C2616 1.367 . S
C2617 C2619 1.433 . S
C2618 C2614 1.350 . S
C2618 C2615 1.463 . S
C2618 N2622 1.427 . S
C2619 H2609 0.929 . S
C2619 C2617 1.433 . S
C2619 N2622 1.384 . S
C2620 H2611 0.929 . S
C2620 C2612 1.378 . S
C2620 C2615 1.350 . S
C2621 H2608 0.929 . S
C2621 C2613 1.433 . S
C2621 N2623 1.384 . S
N2622 C2618 1.427 . S
N2622 C2619 1.384 . S
N2623 C2615 1.427 . S
N2623 C2621 1.384 . S
H2624 C2630 0.930 . S
H2625 C2634 0.930 . S
H2626 C2639 0.929 . S
H2627 C2637 0.929 . S
H2628 C2632 0.929 . S
H2629 C2638 0.929 . S
C2630 H2624 0.930 . S
C2630 C2631 1.367 . S
C2630 C2638 1.378 . S
C2631 C2630 1.367 . S
C2631 C2639 1.433 . S
C2632 H2628 0.929 . S
C2632 C2634 1.378 . S
C2632 C2636 1.350 . S
C2633 C2636 1.463 . S
C2633 C2638 1.350 . S
C2633 N2641 1.427 . S
C2634 H2625 0.930 . S
C2634 C2632 1.378 . S
C2634 C2635 1.367 . S
C2635 C2634 1.367 . S
C2635 C2637 1.433 . S
C2636 C2632 1.350 . S
C2636 C2633 1.463 . S
C2636 N2640 1.427 . S
C2637 H2627 0.929 . S
C2637 C2635 1.433 . S
C2637 N2640 1.384 . S
C2638 H2629 0.929 . S
C2638 C2630 1.378 . S
C2638 C2633 1.350 . S
C2639 H2626 0.929 . S
C2639 C2631 1.433 . S
C2639 N2641 1.384 . S
N2640 C2636 1.427 . S
N2640 C2637 1.384 . S
N2641 C2633 1.427 . S
N2641 C2639 1.384 . S
H2642 C2648 0.930 . S
H2643 C2652 0.930 . S
H2644 C2657 0.929 . S
H2645 C2655 0.929 . S
H2646 C2650 0.929 . S
H2647 C2656 0.929 . S
C2648 H2642 0.930 . S
C2648 C2649 1.367 . S
C2648 C2656 1.378 . S
C2649 C2648 1.367 . S
C2649 C2657 1.433 . S
C2650 H2646 0.929 . S
C2650 C2652 1.378 . S
C2650 C2654 1.350 . S
C2651 C2654 1.463 . S
C2651 C2656 1.350 . S
C2651 N2659 1.427 . S
C2652 H2643 0.930 . S
C2652 C2650 1.378 . S
C2652 C2653 1.367 . S
C2653 C2652 1.367 . S
C2653 C2655 1.433 . S
C2654 C2650 1.350 . S
C2654 C2651 1.463 . S
C2654 N2658 1.427 . S
C2655 H2645 0.929 . S
C2655 C2653 1.433 . S
C2655 N2658 1.384 . S
C2656 H2647 0.929 . S
C2656 C2648 1.378 . S
C2656 C2651 1.350 . S
C2657 H2644 0.929 . S
C2657 C2649 1.433 . S
C2657 N2659 1.384 . S
N2658 C2654 1.427 . S
N2658 C2655 1.384 . S
N2659 C2651 1.427 . S
N2659 C2657 1.384 . S
H2660 C2666 0.930 . S
H2661 C2670 0.930 . S
H2662 C2675 0.929 . S
H2663 C2673 0.929 . S
H2664 C2668 0.929 . S
H2665 C2674 0.929 . S
C2666 H2660 0.930 . S
C2666 C2667 1.367 . S
C2666 C2674 1.378 . S
C2667 C2666 1.367 . S
C2667 C2675 1.433 . S
C2668 H2664 0.929 . S
C2668 C2670 1.378 . S
C2668 C2672 1.350 . S
C2669 C2672 1.463 . S
C2669 C2674 1.350 . S
C2669 N2677 1.427 . S
C2670 H2661 0.930 . S
C2670 C2668 1.378 . S
C2670 C2671 1.367 . S
C2671 C2670 1.367 . S
C2671 C2673 1.433 . S
C2672 C2668 1.350 . S
C2672 C2669 1.463 . S
C2672 N2676 1.427 . S
C2673 H2663 0.929 . S
C2673 C2671 1.433 . S
C2673 N2676 1.384 . S
C2674 H2665 0.929 . S
C2674 C2666 1.378 . S
C2674 C2669 1.350 . S
C2675 H2662 0.929 . S
C2675 C2667 1.433 . S
C2675 N2677 1.384 . S
N2676 C2672 1.427 . S
N2676 C2673 1.384 . S
N2677 C2669 1.427 . S
N2677 C2675 1.384 . S
H2678 C2684 0.930 . S
H2679 C2688 0.930 . S
H2680 C2693 0.929 . S
H2681 C2691 0.929 . S
H2682 C2686 0.929 . S
H2683 C2692 0.929 . S
C2684 H2678 0.930 . S
C2684 C2685 1.367 . S
C2684 C2692 1.378 . S
C2685 C2684 1.367 . S
C2685 C2693 1.433 . S
C2686 H2682 0.929 . S
C2686 C2688 1.378 . S
C2686 C2690 1.350 . S
C2687 C2690 1.463 . S
C2687 C2692 1.350 . S
C2687 N2695 1.427 . S
C2688 H2679 0.930 . S
C2688 C2686 1.378 . S
C2688 C2689 1.367 . S
C2689 C2688 1.367 . S
C2689 C2691 1.433 . S
C2690 C2686 1.350 . S
C2690 C2687 1.463 . S
C2690 N2694 1.427 . S
C2691 H2681 0.929 . S
C2691 C2689 1.433 . S
C2691 N2694 1.384 . S
C2692 H2683 0.929 . S
C2692 C2684 1.378 . S
C2692 C2687 1.350 . S
C2693 H2680 0.929 . S
C2693 C2685 1.433 . S
C2693 N2695 1.384 . S
N2694 C2690 1.427 . S
N2694 C2691 1.384 . S
N2695 C2687 1.427 . S
N2695 C2693 1.384 . S
H2696 C2702 0.930 . S
H2697 C2706 0.930 . S
H2698 C2711 0.929 . S
H2699 C2709 0.929 . S
H2700 C2704 0.929 . S
H2701 C2710 0.929 . S
C2702 H2696 0.930 . S
C2702 C2703 1.367 . S
C2702 C2710 1.378 . S
C2703 C2702 1.367 . S
C2703 C2711 1.433 . S
C2704 H2700 0.929 . S
C2704 C2706 1.378 . S
C2704 C2708 1.350 . S
C2705 C2708 1.463 . S
C2705 C2710 1.350 . S
C2705 N2713 1.427 . S
C2706 H2697 0.930 . S
C2706 C2704 1.378 . S
C2706 C2707 1.367 . S
C2707 C2706 1.367 . S
C2707 C2709 1.433 . S
C2708 C2704 1.350 . S
C2708 C2705 1.463 . S
C2708 N2712 1.427 . S
C2709 H2699 0.929 . S
C2709 C2707 1.433 . S
C2709 N2712 1.384 . S
C2710 H2701 0.929 . S
C2710 C2702 1.378 . S
C2710 C2705 1.350 . S
C2711 H2698 0.929 . S
C2711 C2703 1.433 . S
C2711 N2713 1.384 . S
N2712 C2708 1.427 . S
N2712 C2709 1.384 . S
N2713 C2705 1.427 . S
N2713 C2711 1.384 . S
H2714 C2720 0.930 . S
H2715 C2724 0.930 . S
H2716 C2729 0.929 . S
H2717 C2727 0.929 . S
H2718 C2722 0.929 . S
H2719 C2728 0.929 . S
C2720 H2714 0.930 . S
C2720 C2721 1.367 . S
C2720 C2728 1.378 . S
C2721 C2720 1.367 . S
C2721 C2729 1.433 . S
C2722 H2718 0.929 . S
C2722 C2724 1.378 . S
C2722 C2726 1.350 . S
C2723 C2726 1.463 . S
C2723 C2728 1.350 . S
C2723 N2731 1.427 . S
C2724 H2715 0.930 . S
C2724 C2722 1.378 . S
C2724 C2725 1.367 . S
C2725 C2724 1.367 . S
C2725 C2727 1.433 . S
C2726 C2722 1.350 . S
C2726 C2723 1.463 . S
C2726 N2730 1.427 . S
C2727 H2717 0.929 . S
C2727 C2725 1.433 . S
C2727 N2730 1.384 . S
C2728 H2719 0.929 . S
C2728 C2720 1.378 . S
C2728 C2723 1.350 . S
C2729 H2716 0.929 . S
C2729 C2721 1.433 . S
C2729 N2731 1.384 . S
N2730 C2726 1.427 . S
N2730 C2727 1.384 . S
N2731 C2723 1.427 . S
N2731 C2729 1.384 . S
H2732 C2738 0.930 . S
H2733 C2742 0.930 . S
H2734 C2747 0.929 . S
H2735 C2745 0.929 . S
H2736 C2740 0.929 . S
H2737 C2746 0.929 . S
C2738 H2732 0.930 . S
C2738 C2739 1.367 . S
C2738 C2746 1.378 . S
C2739 C2738 1.367 . S
C2739 C2747 1.433 . S
C2740 H2736 0.929 . S
C2740 C2742 1.378 . S
C2740 C2744 1.350 . S
C2741 C2744 1.463 . S
C2741 C2746 1.350 . S
C2741 N2749 1.427 . S
C2742 H2733 0.930 . S
C2742 C2740 1.378 . S
C2742 C2743 1.367 . S
C2743 C2742 1.367 . S
C2743 C2745 1.433 . S
C2744 C2740 1.350 . S
C2744 C2741 1.463 . S
C2744 N2748 1.427 . S
C2745 H2735 0.929 . S
C2745 C2743 1.433 . S
C2745 N2748 1.384 . S
C2746 H2737 0.929 . S
C2746 C2738 1.378 . S
C2746 C2741 1.350 . S
C2747 H2734 0.929 . S
C2747 C2739 1.433 . S
C2747 N2749 1.384 . S
N2748 C2744 1.427 . S
N2748 C2745 1.384 . S
N2749 C2741 1.427 . S
N2749 C2747 1.384 . S
H2750 C2756 0.930 . S
H2751 C2760 0.930 . S
H2752 C2765 0.929 . S
H2753 C2763 0.929 . S
H2754 C2758 0.929 . S
H2755 C2764 0.929 . S
C2756 H2750 0.930 . S
C2756 C2757 1.367 . S
C2756 C2764 1.378 . S
C2757 C2756 1.367 . S
C2757 C2765 1.433 . S
C2758 H2754 0.929 . S
C2758 C2760 1.378 . S
C2758 C2762 1.350 . S
C2759 C2762 1.463 . S
C2759 C2764 1.350 . S
C2759 N2767 1.427 . S
C2760 H2751 0.930 . S
C2760 C2758 1.378 . S
C2760 C2761 1.367 . S
C2761 C2760 1.367 . S
C2761 C2763 1.433 . S
C2762 C2758 1.350 . S
C2762 C2759 1.463 . S
C2762 N2766 1.427 . S
C2763 H2753 0.929 . S
C2763 C2761 1.433 . S
C2763 N2766 1.384 . S
C2764 H2755 0.929 . S
C2764 C2756 1.378 . S
C2764 C2759 1.350 . S
C2765 H2752 0.929 . S
C2765 C2757 1.433 . S
C2765 N2767 1.384 . S
N2766 C2762 1.427 . S
N2766 C2763 1.384 . S
N2767 C2759 1.427 . S
N2767 C2765 1.384 . S
H2768 C2774 0.930 . S
H2769 C2778 0.930 . S
H2770 C2783 0.929 . S
H2771 C2781 0.929 . S
H2772 C2776 0.929 . S
H2773 C2782 0.929 . S
C2774 H2768 0.930 . S
C2774 C2775 1.367 . S
C2774 C2782 1.378 . S
C2775 C2774 1.367 . S
C2775 C2783 1.433 . S
C2776 H2772 0.929 . S
C2776 C2778 1.378 . S
C2776 C2780 1.350 . S
C2777 C2780 1.463 . S
C2777 C2782 1.350 . S
C2777 N2785 1.427 . S
C2778 H2769 0.930 . S
C2778 C2776 1.378 . S
C2778 C2779 1.367 . S
C2779 C2778 1.367 . S
C2779 C2781 1.433 . S
C2780 C2776 1.350 . S
C2780 C2777 1.463 . S
C2780 N2784 1.427 . S
C2781 H2771 0.929 . S
C2781 C2779 1.433 . S
C2781 N2784 1.384 . S
C2782 H2773 0.929 . S
C2782 C2774 1.378 . S
C2782 C2777 1.350 . S
C2783 H2770 0.929 . S
C2783 C2775 1.433 . S
C2783 N2785 1.384 . S
N2784 C2780 1.427 . S
N2784 C2781 1.384 . S
N2785 C2777 1.427 . S
N2785 C2783 1.384 . S
H2786 C2792 0.930 . S
H2787 C2796 0.930 . S
H2788 C2801 0.929 . S
H2789 C2799 0.929 . S
H2790 C2794 0.929 . S
H2791 C2800 0.929 . S
C2792 H2786 0.930 . S
C2792 C2793 1.367 . S
C2792 C2800 1.378 . S
C2793 C2792 1.367 . S
C2793 C2801 1.433 . S
C2794 H2790 0.929 . S
C2794 C2796 1.378 . S
C2794 C2798 1.350 . S
C2795 C2798 1.463 . S
C2795 C2800 1.350 . S
C2795 N2803 1.427 . S
C2796 H2787 0.930 . S
C2796 C2794 1.378 . S
C2796 C2797 1.367 . S
C2797 C2796 1.367 . S
C2797 C2799 1.433 . S
C2798 C2794 1.350 . S
C2798 C2795 1.463 . S
C2798 N2802 1.427 . S
C2799 H2789 0.929 . S
C2799 C2797 1.433 . S
C2799 N2802 1.384 . S
C2800 H2791 0.929 . S
C2800 C2792 1.378 . S
C2800 C2795 1.350 . S
C2801 H2788 0.929 . S
C2801 C2793 1.433 . S
C2801 N2803 1.384 . S
N2802 C2798 1.427 . S
N2802 C2799 1.384 . S
N2803 C2795 1.427 . S
N2803 C2801 1.384 . S
H2804 C2810 0.930 . S
H2805 C2814 0.930 . S
H2806 C2819 0.929 . S
H2807 C2817 0.929 . S
H2808 C2812 0.929 . S
H2809 C2818 0.929 . S
C2810 H2804 0.930 . S
C2810 C2811 1.367 . S
C2810 C2818 1.378 . S
C2811 C2810 1.367 . S
C2811 C2819 1.433 . S
C2812 H2808 0.929 . S
C2812 C2814 1.378 . S
C2812 C2816 1.350 . S
C2813 C2816 1.463 . S
C2813 C2818 1.350 . S
C2813 N2821 1.427 . S
C2814 H2805 0.930 . S
C2814 C2812 1.378 . S
C2814 C2815 1.367 . S
C2815 C2814 1.367 . S
C2815 C2817 1.433 . S
C2816 C2812 1.350 . S
C2816 C2813 1.463 . S
C2816 N2820 1.427 . S
C2817 H2807 0.929 . S
C2817 C2815 1.433 . S
C2817 N2820 1.384 . S
C2818 H2809 0.929 . S
C2818 C2810 1.378 . S
C2818 C2813 1.350 . S
C2819 H2806 0.929 . S
C2819 C2811 1.433 . S
C2819 N2821 1.384 . S
N2820 C2816 1.427 . S
N2820 C2817 1.384 . S
N2821 C2813 1.427 . S
N2821 C2819 1.384 . S
H2822 C2828 0.930 . S
H2823 C2832 0.930 . S
H2824 C2837 0.929 . S
H2825 C2835 0.929 . S
H2826 C2830 0.929 . S
H2827 C2836 0.929 . S
C2828 H2822 0.930 . S
C2828 C2829 1.367 . S
C2828 C2836 1.378 . S
C2829 C2828 1.367 . S
C2829 C2837 1.433 . S
C2830 H2826 0.929 . S
C2830 C2832 1.378 . S
C2830 C2834 1.350 . S
C2831 C2834 1.463 . S
C2831 C2836 1.350 . S
C2831 N2839 1.427 . S
C2832 H2823 0.930 . S
C2832 C2830 1.378 . S
C2832 C2833 1.367 . S
C2833 C2832 1.367 . S
C2833 C2835 1.433 . S
C2834 C2830 1.350 . S
C2834 C2831 1.463 . S
C2834 N2838 1.427 . S
C2835 H2825 0.929 . S
C2835 C2833 1.433 . S
C2835 N2838 1.384 . S
C2836 H2827 0.929 . S
C2836 C2828 1.378 . S
C2836 C2831 1.350 . S
C2837 H2824 0.929 . S
C2837 C2829 1.433 . S
C2837 N2839 1.384 . S
N2838 C2834 1.427 . S
N2838 C2835 1.384 . S
N2839 C2831 1.427 . S
N2839 C2837 1.384 . S
H2840 C2846 0.930 . S
H2841 C2850 0.930 . S
H2842 C2855 0.929 . S
H2843 C2853 0.929 . S
H2844 C2848 0.929 . S
H2845 C2854 0.929 . S
C2846 H2840 0.930 . S
C2846 C2847 1.367 . S
C2846 C2854 1.378 . S
C2847 C2846 1.367 . S
C2847 C2855 1.433 . S
C2848 H2844 0.929 . S
C2848 C2850 1.378 . S
C2848 C2852 1.350 . S
C2849 C2852 1.463 . S
C2849 C2854 1.350 . S
C2849 N2857 1.427 . S
C2850 H2841 0.930 . S
C2850 C2848 1.378 . S
C2850 C2851 1.367 . S
C2851 C2850 1.367 . S
C2851 C2853 1.433 . S
C2852 C2848 1.350 . S
C2852 C2849 1.463 . S
C2852 N2856 1.427 . S
C2853 H2843 0.929 . S
C2853 C2851 1.433 . S
C2853 N2856 1.384 . S
C2854 H2845 0.929 . S
C2854 C2846 1.378 . S
C2854 C2849 1.350 . S
C2855 H2842 0.929 . S
C2855 C2847 1.433 . S
C2855 N2857 1.384 . S
N2856 C2852 1.427 . S
N2856 C2853 1.384 . S
N2857 C2849 1.427 . S
N2857 C2855 1.384 . S
H2858 C2864 0.930 . S
H2859 C2868 0.930 . S
H2860 C2873 0.929 . S
H2861 C2871 0.929 . S
H2862 C2866 0.929 . S
H2863 C2872 0.929 . S
C2864 H2858 0.930 . S
C2864 C2865 1.367 . S
C2864 C2872 1.378 . S
C2865 C2864 1.367 . S
C2865 C2873 1.433 . S
C2866 H2862 0.929 . S
C2866 C2868 1.378 . S
C2866 C2870 1.350 . S
C2867 C2870 1.463 . S
C2867 C2872 1.350 . S
C2867 N2875 1.427 . S
C2868 H2859 0.930 . S
C2868 C2866 1.378 . S
C2868 C2869 1.367 . S
C2869 C2868 1.367 . S
C2869 C2871 1.433 . S
C2870 C2866 1.350 . S
C2870 C2867 1.463 . S
C2870 N2874 1.427 . S
C2871 H2861 0.929 . S
C2871 C2869 1.433 . S
C2871 N2874 1.384 . S
C2872 H2863 0.929 . S
C2872 C2864 1.378 . S
C2872 C2867 1.350 . S
C2873 H2860 0.929 . S
C2873 C2865 1.433 . S
C2873 N2875 1.384 . S
N2874 C2870 1.427 . S
N2874 C2871 1.384 . S
N2875 C2867 1.427 . S
N2875 C2873 1.384 . S
H2876 C2882 0.930 . S
H2877 C2886 0.930 . S
H2878 C2891 0.929 . S
H2879 C2889 0.929 . S
H2880 C2884 0.929 . S
H2881 C2890 0.929 . S
C2882 H2876 0.930 . S
C2882 C2883 1.367 . S
C2882 C2890 1.378 . S
C2883 C2882 1.367 . S
C2883 C2891 1.433 . S
C2884 H2880 0.929 . S
C2884 C2886 1.378 . S
C2884 C2888 1.350 . S
C2885 C2888 1.463 . S
C2885 C2890 1.350 . S
C2885 N2893 1.427 . S
C2886 H2877 0.930 . S
C2886 C2884 1.378 . S
C2886 C2887 1.367 . S
C2887 C2886 1.367 . S
C2887 C2889 1.433 . S
C2888 C2884 1.350 . S
C2888 C2885 1.463 . S
C2888 N2892 1.427 . S
C2889 H2879 0.929 . S
C2889 C2887 1.433 . S
C2889 N2892 1.384 . S
C2890 H2881 0.929 . S
C2890 C2882 1.378 . S
C2890 C2885 1.350 . S
C2891 H2878 0.929 . S
C2891 C2883 1.433 . S
C2891 N2893 1.384 . S
N2892 C2888 1.427 . S
N2892 C2889 1.384 . S
N2893 C2885 1.427 . S
N2893 C2891 1.384 . S
H2894 C2900 0.930 . S
H2895 C2904 0.930 . S
H2896 C2909 0.929 . S
H2897 C2907 0.929 . S
H2898 C2902 0.929 . S
H2899 C2908 0.929 . S
C2900 H2894 0.930 . S
C2900 C2901 1.367 . S
C2900 C2908 1.378 . S
C2901 C2900 1.367 . S
C2901 C2909 1.433 . S
C2902 H2898 0.929 . S
C2902 C2904 1.378 . S
C2902 C2906 1.350 . S
C2903 C2906 1.463 . S
C2903 C2908 1.350 . S
C2903 N2911 1.427 . S
C2904 H2895 0.930 . S
C2904 C2902 1.378 . S
C2904 C2905 1.367 . S
C2905 C2904 1.367 . S
C2905 C2907 1.433 . S
C2906 C2902 1.350 . S
C2906 C2903 1.463 . S
C2906 N2910 1.427 . S
C2907 H2897 0.929 . S
C2907 C2905 1.433 . S
C2907 N2910 1.384 . S
C2908 H2899 0.929 . S
C2908 C2900 1.378 . S
C2908 C2903 1.350 . S
C2909 H2896 0.929 . S
C2909 C2901 1.433 . S
C2909 N2911 1.384 . S
N2910 C2906 1.427 . S
N2910 C2907 1.384 . S
N2911 C2903 1.427 . S
N2911 C2909 1.384 . S
H2912 C2918 0.930 . S
H2913 C2922 0.930 . S
H2914 C2927 0.929 . S
H2915 C2925 0.929 . S
H2916 C2920 0.929 . S
H2917 C2926 0.929 . S
C2918 H2912 0.930 . S
C2918 C2919 1.367 . S
C2918 C2926 1.378 . S
C2919 C2918 1.367 . S
C2919 C2927 1.433 . S
C2920 H2916 0.929 . S
C2920 C2922 1.378 . S
C2920 C2924 1.350 . S
C2921 C2924 1.463 . S
C2921 C2926 1.350 . S
C2921 N2929 1.427 . S
C2922 H2913 0.930 . S
C2922 C2920 1.378 . S
C2922 C2923 1.367 . S
C2923 C2922 1.367 . S
C2923 C2925 1.433 . S
C2924 C2920 1.350 . S
C2924 C2921 1.463 . S
C2924 N2928 1.427 . S
C2925 H2915 0.929 . S
C2925 C2923 1.433 . S
C2925 N2928 1.384 . S
C2926 H2917 0.929 . S
C2926 C2918 1.378 . S
C2926 C2921 1.350 . S
C2927 H2914 0.929 . S
C2927 C2919 1.433 . S
C2927 N2929 1.384 . S
N2928 C2924 1.427 . S
N2928 C2925 1.384 . S
N2929 C2921 1.427 . S
N2929 C2927 1.384 . S
H2930 C2936 0.930 . S
H2931 C2940 0.930 . S
H2932 C2945 0.929 . S
H2933 C2943 0.929 . S
H2934 C2938 0.929 . S
H2935 C2944 0.929 . S
C2936 H2930 0.930 . S
C2936 C2937 1.367 . S
C2936 C2944 1.378 . S
C2937 C2936 1.367 . S
C2937 C2945 1.433 . S
C2938 H2934 0.929 . S
C2938 C2940 1.378 . S
C2938 C2942 1.350 . S
C2939 C2942 1.463 . S
C2939 C2944 1.350 . S
C2939 N2947 1.427 . S
C2940 H2931 0.930 . S
C2940 C2938 1.378 . S
C2940 C2941 1.367 . S
C2941 C2940 1.367 . S
C2941 C2943 1.433 . S
C2942 C2938 1.350 . S
C2942 C2939 1.463 . S
C2942 N2946 1.427 . S
C2943 H2933 0.929 . S
C2943 C2941 1.433 . S
C2943 N2946 1.384 . S
C2944 H2935 0.929 . S
C2944 C2936 1.378 . S
C2944 C2939 1.350 . S
C2945 H2932 0.929 . S
C2945 C2937 1.433 . S
C2945 N2947 1.384 . S
N2946 C2942 1.427 . S
N2946 C2943 1.384 . S
N2947 C2939 1.427 . S
N2947 C2945 1.384 . S
H2948 C2954 0.930 . S
H2949 C2958 0.930 . S
H2950 C2963 0.929 . S
H2951 C2961 0.929 . S
H2952 C2956 0.929 . S
H2953 C2962 0.929 . S
C2954 H2948 0.930 . S
C2954 C2955 1.367 . S
C2954 C2962 1.378 . S
C2955 C2954 1.367 . S
C2955 C2963 1.433 . S
C2956 H2952 0.929 . S
C2956 C2958 1.378 . S
C2956 C2960 1.350 . S
C2957 C2960 1.463 . S
C2957 C2962 1.350 . S
C2957 N2965 1.427 . S
C2958 H2949 0.930 . S
C2958 C2956 1.378 . S
C2958 C2959 1.367 . S
C2959 C2958 1.367 . S
C2959 C2961 1.433 . S
C2960 C2956 1.350 . S
C2960 C2957 1.463 . S
C2960 N2964 1.427 . S
C2961 H2951 0.929 . S
C2961 C2959 1.433 . S
C2961 N2964 1.384 . S
C2962 H2953 0.929 . S
C2962 C2954 1.378 . S
C2962 C2957 1.350 . S
C2963 H2950 0.929 . S
C2963 C2955 1.433 . S
C2963 N2965 1.384 . S
N2964 C2960 1.427 . S
N2964 C2961 1.384 . S
N2965 C2957 1.427 . S
N2965 C2963 1.384 . S
H2966 C2972 0.930 . S
H2967 C2976 0.930 . S
H2968 C2981 0.929 . S
H2969 C2979 0.929 . S
H2970 C2974 0.929 . S
H2971 C2980 0.929 . S
C2972 H2966 0.930 . S
C2972 C2973 1.367 . S
C2972 C2980 1.378 . S
C2973 C2972 1.367 . S
C2973 C2981 1.433 . S
C2974 H2970 0.929 . S
C2974 C2976 1.378 . S
C2974 C2978 1.350 . S
C2975 C2978 1.463 . S
C2975 C2980 1.350 . S
C2975 N2983 1.427 . S
C2976 H2967 0.930 . S
C2976 C2974 1.378 . S
C2976 C2977 1.367 . S
C2977 C2976 1.367 . S
C2977 C2979 1.433 . S
C2978 C2974 1.350 . S
C2978 C2975 1.463 . S
C2978 N2982 1.427 . S
C2979 H2969 0.929 . S
C2979 C2977 1.433 . S
C2979 N2982 1.384 . S
C2980 H2971 0.929 . S
C2980 C2972 1.378 . S
C2980 C2975 1.350 . S
C2981 H2968 0.929 . S
C2981 C2973 1.433 . S
C2981 N2983 1.384 . S
N2982 C2978 1.427 . S
N2982 C2979 1.384 . S
N2983 C2975 1.427 . S
N2983 C2981 1.384 . S
H2984 C2990 0.930 . S
H2985 C2994 0.930 . S
H2986 C2999 0.929 . S
H2987 C2997 0.929 . S
H2988 C2992 0.929 . S
H2989 C2998 0.929 . S
C2990 H2984 0.930 . S
C2990 C2991 1.367 . S
C2990 C2998 1.378 . S
C2991 C2990 1.367 . S
C2991 C2999 1.433 . S
C2992 H2988 0.929 . S
C2992 C2994 1.378 . S
C2992 C2996 1.350 . S
C2993 C2996 1.463 . S
C2993 C2998 1.350 . S
C2993 N3001 1.427 . S
C2994 H2985 0.930 . S
C2994 C2992 1.378 . S
C2994 C2995 1.367 . S
C2995 C2994 1.367 . S
C2995 C2997 1.433 . S
C2996 C2992 1.350 . S
C2996 C2993 1.463 . S
C2996 N3000 1.427 . S
C2997 H2987 0.929 . S
C2997 C2995 1.433 . S
C2997 N3000 1.384 . S
C2998 H2989 0.929 . S
C2998 C2990 1.378 . S
C2998 C2993 1.350 . S
C2999 H2986 0.929 . S
C2999 C2991 1.433 . S
C2999 N3001 1.384 . S
N3000 C2996 1.427 . S
N3000 C2997 1.384 . S
N3001 C2993 1.427 . S
N3001 C2999 1.384 . S
H3002 C3008 0.930 . S
H3003 C3012 0.930 . S
H3004 C3017 0.929 . S
H3005 C3015 0.929 . S
H3006 C3010 0.929 . S
H3007 C3016 0.929 . S
C3008 H3002 0.930 . S
C3008 C3009 1.367 . S
C3008 C3016 1.378 . S
C3009 C3008 1.367 . S
C3009 C3017 1.433 . S
C3010 H3006 0.929 . S
C3010 C3012 1.378 . S
C3010 C3014 1.350 . S
C3011 C3014 1.463 . S
C3011 C3016 1.350 . S
C3011 N3019 1.427 . S
C3012 H3003 0.930 . S
C3012 C3010 1.378 . S
C3012 C3013 1.367 . S
C3013 C3012 1.367 . S
C3013 C3015 1.433 . S
C3014 C3010 1.350 . S
C3014 C3011 1.463 . S
C3014 N3018 1.427 . S
C3015 H3005 0.929 . S
C3015 C3013 1.433 . S
C3015 N3018 1.384 . S
C3016 H3007 0.929 . S
C3016 C3008 1.378 . S
C3016 C3011 1.350 . S
C3017 H3004 0.929 . S
C3017 C3009 1.433 . S
C3017 N3019 1.384 . S
N3018 C3014 1.427 . S
N3018 C3015 1.384 . S
N3019 C3011 1.427 . S
N3019 C3017 1.384 . S
H3020 C3026 0.930 . S
H3021 C3030 0.930 . S
H3022 C3035 0.929 . S
H3023 C3033 0.929 . S
H3024 C3028 0.929 . S
H3025 C3034 0.929 . S
C3026 H3020 0.930 . S
C3026 C3027 1.367 . S
C3026 C3034 1.378 . S
C3027 C3026 1.367 . S
C3027 C3035 1.433 . S
C3028 H3024 0.929 . S
C3028 C3030 1.378 . S
C3028 C3032 1.350 . S
C3029 C3032 1.463 . S
C3029 C3034 1.350 . S
C3029 N3037 1.427 . S
C3030 H3021 0.930 . S
C3030 C3028 1.378 . S
C3030 C3031 1.367 . S
C3031 C3030 1.367 . S
C3031 C3033 1.433 . S
C3032 C3028 1.350 . S
C3032 C3029 1.463 . S
C3032 N3036 1.427 . S
C3033 H3023 0.929 . S
C3033 C3031 1.433 . S
C3033 N3036 1.384 . S
C3034 H3025 0.929 . S
C3034 C3026 1.378 . S
C3034 C3029 1.350 . S
C3035 H3022 0.929 . S
C3035 C3027 1.433 . S
C3035 N3037 1.384 . S
N3036 C3032 1.427 . S
N3036 C3033 1.384 . S
N3037 C3029 1.427 . S
N3037 C3035 1.384 . S
H3038 C3044 0.930 . S
H3039 C3048 0.930 . S
H3040 C3053 0.929 . S
H3041 C3051 0.929 . S
H3042 C3046 0.929 . S
H3043 C3052 0.929 . S
C3044 H3038 0.930 . S
C3044 C3045 1.367 . S
C3044 C3052 1.378 . S
C3045 C3044 1.367 . S
C3045 C3053 1.433 . S
C3046 H3042 0.929 . S
C3046 C3048 1.378 . S
C3046 C3050 1.350 . S
C3047 C3050 1.463 . S
C3047 C3052 1.350 . S
C3047 N3055 1.427 . S
C3048 H3039 0.930 . S
C3048 C3046 1.378 . S
C3048 C3049 1.367 . S
C3049 C3048 1.367 . S
C3049 C3051 1.433 . S
C3050 C3046 1.350 . S
C3050 C3047 1.463 . S
C3050 N3054 1.427 . S
C3051 H3041 0.929 . S
C3051 C3049 1.433 . S
C3051 N3054 1.384 . S
C3052 H3043 0.929 . S
C3052 C3044 1.378 . S
C3052 C3047 1.350 . S
C3053 H3040 0.929 . S
C3053 C3045 1.433 . S
C3053 N3055 1.384 . S
N3054 C3050 1.427 . S
N3054 C3051 1.384 . S
N3055 C3047 1.427 . S
N3055 C3053 1.384 . S
H3056 C3062 0.930 . S
H3057 C3066 0.930 . S
H3058 C3071 0.929 . S
H3059 C3069 0.929 . S
H3060 C3064 0.929 . S
H3061 C3070 0.929 . S
C3062 H3056 0.930 . S
C3062 C3063 1.367 . S
C3062 C3070 1.378 . S
C3063 C3062 1.367 . S
C3063 C3071 1.433 . S
C3064 H3060 0.929 . S
C3064 C3066 1.378 . S
C3064 C3068 1.350 . S
C3065 C3068 1.463 . S
C3065 C3070 1.350 . S
C3065 N3073 1.427 . S
C3066 H3057 0.930 . S
C3066 C3064 1.378 . S
C3066 C3067 1.367 . S
C3067 C3066 1.367 . S
C3067 C3069 1.433 . S
C3068 C3064 1.350 . S
C3068 C3065 1.463 . S
C3068 N3072 1.427 . S
C3069 H3059 0.929 . S
C3069 C3067 1.433 . S
C3069 N3072 1.384 . S
C3070 H3061 0.929 . S
C3070 C3062 1.378 . S
C3070 C3065 1.350 . S
C3071 H3058 0.929 . S
C3071 C3063 1.433 . S
C3071 N3073 1.384 . S
N3072 C3068 1.427 . S
N3072 C3069 1.384 . S
N3073 C3065 1.427 . S
N3073 C3071 1.384 . S
H3074 C3080 0.930 . S
H3075 C3084 0.930 . S
H3076 C3089 0.929 . S
H3077 C3087 0.929 . S
H3078 C3082 0.929 . S
H3079 C3088 0.929 . S
C3080 H3074 0.930 . S
C3080 C3081 1.367 . S
C3080 C3088 1.378 . S
C3081 C3080 1.367 . S
C3081 C3089 1.433 . S
C3082 H3078 0.929 . S
C3082 C3084 1.378 . S
C3082 C3086 1.350 . S
C3083 C3086 1.463 . S
C3083 C3088 1.350 . S
C3083 N3091 1.427 . S
C3084 H3075 0.930 . S
C3084 C3082 1.378 . S
C3084 C3085 1.367 . S
C3085 C3084 1.367 . S
C3085 C3087 1.433 . S
C3086 C3082 1.350 . S
C3086 C3083 1.463 . S
C3086 N3090 1.427 . S
C3087 H3077 0.929 . S
C3087 C3085 1.433 . S
C3087 N3090 1.384 . S
C3088 H3079 0.929 . S
C3088 C3080 1.378 . S
C3088 C3083 1.350 . S
C3089 H3076 0.929 . S
C3089 C3081 1.433 . S
C3089 N3091 1.384 . S
N3090 C3086 1.427 . S
N3090 C3087 1.384 . S
N3091 C3083 1.427 . S
N3091 C3089 1.384 . S
H3092 C3098 0.930 . S
H3093 C3102 0.930 . S
H3094 C3107 0.929 . S
H3095 C3105 0.929 . S
H3096 C3100 0.929 . S
H3097 C3106 0.929 . S
C3098 H3092 0.930 . S
C3098 C3099 1.367 . S
C3098 C3106 1.378 . S
C3099 C3098 1.367 . S
C3099 C3107 1.433 . S
C3100 H3096 0.929 . S
C3100 C3102 1.378 . S
C3100 C3104 1.350 . S
C3101 C3104 1.463 . S
C3101 C3106 1.350 . S
C3101 N3109 1.427 . S
C3102 H3093 0.930 . S
C3102 C3100 1.378 . S
C3102 C3103 1.367 . S
C3103 C3102 1.367 . S
C3103 C3105 1.433 . S
C3104 C3100 1.350 . S
C3104 C3101 1.463 . S
C3104 N3108 1.427 . S
C3105 H3095 0.929 . S
C3105 C3103 1.433 . S
C3105 N3108 1.384 . S
C3106 H3097 0.929 . S
C3106 C3098 1.378 . S
C3106 C3101 1.350 . S
C3107 H3094 0.929 . S
C3107 C3099 1.433 . S
C3107 N3109 1.384 . S
N3108 C3104 1.427 . S
N3108 C3105 1.384 . S
N3109 C3101 1.427 . S
N3109 C3107 1.384 . S
H3110 C3116 0.930 . S
H3111 C3120 0.930 . S
H3112 C3125 0.929 . S
H3113 C3123 0.929 . S
H3114 C3118 0.929 . S
H3115 C3124 0.929 . S
C3116 H3110 0.930 . S
C3116 C3117 1.367 . S
C3116 C3124 1.378 . S
C3117 C3116 1.367 . S
C3117 C3125 1.433 . S
C3118 H3114 0.929 . S
C3118 C3120 1.378 . S
C3118 C3122 1.350 . S
C3119 C3122 1.463 . S
C3119 C3124 1.350 . S
C3119 N3127 1.427 . S
C3120 H3111 0.930 . S
C3120 C3118 1.378 . S
C3120 C3121 1.367 . S
C3121 C3120 1.367 . S
C3121 C3123 1.433 . S
C3122 C3118 1.350 . S
C3122 C3119 1.463 . S
C3122 N3126 1.427 . S
C3123 H3113 0.929 . S
C3123 C3121 1.433 . S
C3123 N3126 1.384 . S
C3124 H3115 0.929 . S
C3124 C3116 1.378 . S
C3124 C3119 1.350 . S
C3125 H3112 0.929 . S
C3125 C3117 1.433 . S
C3125 N3127 1.384 . S
N3126 C3122 1.427 . S
N3126 C3123 1.384 . S
N3127 C3119 1.427 . S
N3127 C3125 1.384 . S
H3128 C3134 0.930 . S
H3129 C3138 0.930 . S
H3130 C3143 0.929 . S
H3131 C3141 0.929 . S
H3132 C3136 0.929 . S
H3133 C3142 0.929 . S
C3134 H3128 0.930 . S
C3134 C3135 1.367 . S
C3134 C3142 1.378 . S
C3135 C3134 1.367 . S
C3135 C3143 1.433 . S
C3136 H3132 0.929 . S
C3136 C3138 1.378 . S
C3136 C3140 1.350 . S
C3137 C3140 1.463 . S
C3137 C3142 1.350 . S
C3137 N3145 1.427 . S
C3138 H3129 0.930 . S
C3138 C3136 1.378 . S
C3138 C3139 1.367 . S
C3139 C3138 1.367 . S
C3139 C3141 1.433 . S
C3140 C3136 1.350 . S
C3140 C3137 1.463 . S
C3140 N3144 1.427 . S
C3141 H3131 0.929 . S
C3141 C3139 1.433 . S
C3141 N3144 1.384 . S
C3142 H3133 0.929 . S
C3142 C3134 1.378 . S
C3142 C3137 1.350 . S
C3143 H3130 0.929 . S
C3143 C3135 1.433 . S
C3143 N3145 1.384 . S
N3144 C3140 1.427 . S
N3144 C3141 1.384 . S
N3145 C3137 1.427 . S
N3145 C3143 1.384 . S
H3146 C3152 0.930 . S
H3147 C3156 0.930 . S
H3148 C3161 0.929 . S
H3149 C3159 0.929 . S
H3150 C3154 0.929 . S
H3151 C3160 0.929 . S
C3152 H3146 0.930 . S
C3152 C3153 1.367 . S
C3152 C3160 1.378 . S
C3153 C3152 1.367 . S
C3153 C3161 1.433 . S
C3154 H3150 0.929 . S
C3154 C3156 1.378 . S
C3154 C3158 1.350 . S
C3155 C3158 1.463 . S
C3155 C3160 1.350 . S
C3155 N3163 1.427 . S
C3156 H3147 0.930 . S
C3156 C3154 1.378 . S
C3156 C3157 1.367 . S
C3157 C3156 1.367 . S
C3157 C3159 1.433 . S
C3158 C3154 1.350 . S
C3158 C3155 1.463 . S
C3158 N3162 1.427 . S
C3159 H3149 0.929 . S
C3159 C3157 1.433 . S
C3159 N3162 1.384 . S
C3160 H3151 0.929 . S
C3160 C3152 1.378 . S
C3160 C3155 1.350 . S
C3161 H3148 0.929 . S
C3161 C3153 1.433 . S
C3161 N3163 1.384 . S
N3162 C3158 1.427 . S
N3162 C3159 1.384 . S
N3163 C3155 1.427 . S
N3163 C3161 1.384 . S
H3164 C3170 0.930 . S
H3165 C3174 0.930 . S
H3166 C3179 0.929 . S
H3167 C3177 0.929 . S
H3168 C3172 0.929 . S
H3169 C3178 0.929 . S
C3170 H3164 0.930 . S
C3170 C3171 1.367 . S
C3170 C3178 1.378 . S
C3171 C3170 1.367 . S
C3171 C3179 1.433 . S
C3172 H3168 0.929 . S
C3172 C3174 1.378 . S
C3172 C3176 1.350 . S
C3173 C3176 1.463 . S
C3173 C3178 1.350 . S
C3173 N3181 1.427 . S
C3174 H3165 0.930 . S
C3174 C3172 1.378 . S
C3174 C3175 1.367 . S
C3175 C3174 1.367 . S
C3175 C3177 1.433 . S
C3176 C3172 1.350 . S
C3176 C3173 1.463 . S
C3176 N3180 1.427 . S
C3177 H3167 0.929 . S
C3177 C3175 1.433 . S
C3177 N3180 1.384 . S
C3178 H3169 0.929 . S
C3178 C3170 1.378 . S
C3178 C3173 1.350 . S
C3179 H3166 0.929 . S
C3179 C3171 1.433 . S
C3179 N3181 1.384 . S
N3180 C3176 1.427 . S
N3180 C3177 1.384 . S
N3181 C3173 1.427 . S
N3181 C3179 1.384 . S
H3182 C3188 0.930 . S
H3183 C3192 0.930 . S
H3184 C3197 0.929 . S
H3185 C3195 0.929 . S
H3186 C3190 0.929 . S
H3187 C3196 0.929 . S
C3188 H3182 0.930 . S
C3188 C3189 1.367 . S
C3188 C3196 1.378 . S
C3189 C3188 1.367 . S
C3189 C3197 1.433 . S
C3190 H3186 0.929 . S
C3190 C3192 1.378 . S
C3190 C3194 1.350 . S
C3191 C3194 1.463 . S
C3191 C3196 1.350 . S
C3191 N3199 1.427 . S
C3192 H3183 0.930 . S
C3192 C3190 1.378 . S
C3192 C3193 1.367 . S
C3193 C3192 1.367 . S
C3193 C3195 1.433 . S
C3194 C3190 1.350 . S
C3194 C3191 1.463 . S
C3194 N3198 1.427 . S
C3195 H3185 0.929 . S
C3195 C3193 1.433 . S
C3195 N3198 1.384 . S
C3196 H3187 0.929 . S
C3196 C3188 1.378 . S
C3196 C3191 1.350 . S
C3197 H3184 0.929 . S
C3197 C3189 1.433 . S
C3197 N3199 1.384 . S
N3198 C3194 1.427 . S
N3198 C3195 1.384 . S
N3199 C3191 1.427 . S
N3199 C3197 1.384 . S
H3200 C3206 0.930 . S
H3201 C3210 0.930 . S
H3202 C3215 0.929 . S
H3203 C3213 0.929 . S
H3204 C3208 0.929 . S
H3205 C3214 0.929 . S
C3206 H3200 0.930 . S
C3206 C3207 1.367 . S
C3206 C3214 1.378 . S
C3207 C3206 1.367 . S
C3207 C3215 1.433 . S
C3208 H3204 0.929 . S
C3208 C3210 1.378 . S
C3208 C3212 1.350 . S
C3209 C3212 1.463 . S
C3209 C3214 1.350 . S
C3209 N3217 1.427 . S
C3210 H3201 0.930 . S
C3210 C3208 1.378 . S
C3210 C3211 1.367 . S
C3211 C3210 1.367 . S
C3211 C3213 1.433 . S
C3212 C3208 1.350 . S
C3212 C3209 1.463 . S
C3212 N3216 1.427 . S
C3213 H3203 0.929 . S
C3213 C3211 1.433 . S
C3213 N3216 1.384 . S
C3214 H3205 0.929 . S
C3214 C3206 1.378 . S
C3214 C3209 1.350 . S
C3215 H3202 0.929 . S
C3215 C3207 1.433 . S
C3215 N3217 1.384 . S
N3216 C3212 1.427 . S
N3216 C3213 1.384 . S
N3217 C3209 1.427 . S
N3217 C3215 1.384 . S
H3218 C3224 0.930 . S
H3219 C3228 0.930 . S
H3220 C3233 0.929 . S
H3221 C3231 0.929 . S
H3222 C3226 0.929 . S
H3223 C3232 0.929 . S
C3224 H3218 0.930 . S
C3224 C3225 1.367 . S
C3224 C3232 1.378 . S
C3225 C3224 1.367 . S
C3225 C3233 1.433 . S
C3226 H3222 0.929 . S
C3226 C3228 1.378 . S
C3226 C3230 1.350 . S
C3227 C3230 1.463 . S
C3227 C3232 1.350 . S
C3227 N3235 1.427 . S
C3228 H3219 0.930 . S
C3228 C3226 1.378 . S
C3228 C3229 1.367 . S
C3229 C3228 1.367 . S
C3229 C3231 1.433 . S
C3230 C3226 1.350 . S
C3230 C3227 1.463 . S
C3230 N3234 1.427 . S
C3231 H3221 0.929 . S
C3231 C3229 1.433 . S
C3231 N3234 1.384 . S
C3232 H3223 0.929 . S
C3232 C3224 1.378 . S
C3232 C3227 1.350 . S
C3233 H3220 0.929 . S
C3233 C3225 1.433 . S
C3233 N3235 1.384 . S
N3234 C3230 1.427 . S
N3234 C3231 1.384 . S
N3235 C3227 1.427 . S
N3235 C3233 1.384 . S
H3236 C3242 0.930 . S
H3237 C3246 0.930 . S
H3238 C3251 0.929 . S
H3239 C3249 0.929 . S
H3240 C3244 0.929 . S
H3241 C3250 0.929 . S
C3242 H3236 0.930 . S
C3242 C3243 1.367 . S
C3242 C3250 1.378 . S
C3243 C3242 1.367 . S
C3243 C3251 1.433 . S
C3244 H3240 0.929 . S
C3244 C3246 1.378 . S
C3244 C3248 1.350 . S
C3245 C3248 1.463 . S
C3245 C3250 1.350 . S
C3245 N3253 1.427 . S
C3246 H3237 0.930 . S
C3246 C3244 1.378 . S
C3246 C3247 1.367 . S
C3247 C3246 1.367 . S
C3247 C3249 1.433 . S
C3248 C3244 1.350 . S
C3248 C3245 1.463 . S
C3248 N3252 1.427 . S
C3249 H3239 0.929 . S
C3249 C3247 1.433 . S
C3249 N3252 1.384 . S
C3250 H3241 0.929 . S
C3250 C3242 1.378 . S
C3250 C3245 1.350 . S
C3251 H3238 0.929 . S
C3251 C3243 1.433 . S
C3251 N3253 1.384 . S
N3252 C3248 1.427 . S
N3252 C3249 1.384 . S
N3253 C3245 1.427 . S
N3253 C3251 1.384 . S
H3254 C3260 0.930 . S
H3255 C3264 0.930 . S
H3256 C3269 0.929 . S
H3257 C3267 0.929 . S
H3258 C3262 0.929 . S
H3259 C3268 0.929 . S
C3260 H3254 0.930 . S
C3260 C3261 1.367 . S
C3260 C3268 1.378 . S
C3261 C3260 1.367 . S
C3261 C3269 1.433 . S
C3262 H3258 0.929 . S
C3262 C3264 1.378 . S
C3262 C3266 1.350 . S
C3263 C3266 1.463 . S
C3263 C3268 1.350 . S
C3263 N3271 1.427 . S
C3264 H3255 0.930 . S
C3264 C3262 1.378 . S
C3264 C3265 1.367 . S
C3265 C3264 1.367 . S
C3265 C3267 1.433 . S
C3266 C3262 1.350 . S
C3266 C3263 1.463 . S
C3266 N3270 1.427 . S
C3267 H3257 0.929 . S
C3267 C3265 1.433 . S
C3267 N3270 1.384 . S
C3268 H3259 0.929 . S
C3268 C3260 1.378 . S
C3268 C3263 1.350 . S
C3269 H3256 0.929 . S
C3269 C3261 1.433 . S
C3269 N3271 1.384 . S
N3270 C3266 1.427 . S
N3270 C3267 1.384 . S
N3271 C3263 1.427 . S
N3271 C3269 1.384 . S
H3272 C3278 0.930 . S
H3273 C3282 0.930 . S
H3274 C3287 0.929 . S
H3275 C3285 0.929 . S
H3276 C3280 0.929 . S
H3277 C3286 0.929 . S
C3278 H3272 0.930 . S
C3278 C3279 1.367 . S
C3278 C3286 1.378 . S
C3279 C3278 1.367 . S
C3279 C3287 1.433 . S
C3280 H3276 0.929 . S
C3280 C3282 1.378 . S
C3280 C3284 1.350 . S
C3281 C3284 1.463 . S
C3281 C3286 1.350 . S
C3281 N3289 1.427 . S
C3282 H3273 0.930 . S
C3282 C3280 1.378 . S
C3282 C3283 1.367 . S
C3283 C3282 1.367 . S
C3283 C3285 1.433 . S
C3284 C3280 1.350 . S
C3284 C3281 1.463 . S
C3284 N3288 1.427 . S
C3285 H3275 0.929 . S
C3285 C3283 1.433 . S
C3285 N3288 1.384 . S
C3286 H3277 0.929 . S
C3286 C3278 1.378 . S
C3286 C3281 1.350 . S
C3287 H3274 0.929 . S
C3287 C3279 1.433 . S
C3287 N3289 1.384 . S
N3288 C3284 1.427 . S
N3288 C3285 1.384 . S
N3289 C3281 1.427 . S
N3289 C3287 1.384 . S
H3290 C3296 0.930 . S
H3291 C3300 0.930 . S
H3292 C3305 0.929 . S
H3293 C3303 0.929 . S
H3294 C3298 0.929 . S
H3295 C3304 0.929 . S
C3296 H3290 0.930 . S
C3296 C3297 1.367 . S
C3296 C3304 1.378 . S
C3297 C3296 1.367 . S
C3297 C3305 1.433 . S
C3298 H3294 0.929 . S
C3298 C3300 1.378 . S
C3298 C3302 1.350 . S
C3299 C3302 1.463 . S
C3299 C3304 1.350 . S
C3299 N3307 1.427 . S
C3300 H3291 0.930 . S
C3300 C3298 1.378 . S
C3300 C3301 1.367 . S
C3301 C3300 1.367 . S
C3301 C3303 1.433 . S
C3302 C3298 1.350 . S
C3302 C3299 1.463 . S
C3302 N3306 1.427 . S
C3303 H3293 0.929 . S
C3303 C3301 1.433 . S
C3303 N3306 1.384 . S
C3304 H3295 0.929 . S
C3304 C3296 1.378 . S
C3304 C3299 1.350 . S
C3305 H3292 0.929 . S
C3305 C3297 1.433 . S
C3305 N3307 1.384 . S
N3306 C3302 1.427 . S
N3306 C3303 1.384 . S
N3307 C3299 1.427 . S
N3307 C3305 1.384 . S
H3308 C3314 0.930 . S
H3309 C3318 0.930 . S
H3310 C3323 0.929 . S
H3311 C3321 0.929 . S
H3312 C3316 0.929 . S
H3313 C3322 0.929 . S
C3314 H3308 0.930 . S
C3314 C3315 1.367 . S
C3314 C3322 1.378 . S
C3315 C3314 1.367 . S
C3315 C3323 1.433 . S
C3316 H3312 0.929 . S
C3316 C3318 1.378 . S
C3316 C3320 1.350 . S
C3317 C3320 1.463 . S
C3317 C3322 1.350 . S
C3317 N3325 1.427 . S
C3318 H3309 0.930 . S
C3318 C3316 1.378 . S
C3318 C3319 1.367 . S
C3319 C3318 1.367 . S
C3319 C3321 1.433 . S
C3320 C3316 1.350 . S
C3320 C3317 1.463 . S
C3320 N3324 1.427 . S
C3321 H3311 0.929 . S
C3321 C3319 1.433 . S
C3321 N3324 1.384 . S
C3322 H3313 0.929 . S
C3322 C3314 1.378 . S
C3322 C3317 1.350 . S
C3323 H3310 0.929 . S
C3323 C3315 1.433 . S
C3323 N3325 1.384 . S
N3324 C3320 1.427 . S
N3324 C3321 1.384 . S
N3325 C3317 1.427 . S
N3325 C3323 1.384 . S
H3326 C3332 0.930 . S
H3327 C3336 0.930 . S
H3328 C3341 0.929 . S
H3329 C3339 0.929 . S
H3330 C3334 0.929 . S
H3331 C3340 0.929 . S
C3332 H3326 0.930 . S
C3332 C3333 1.367 . S
C3332 C3340 1.378 . S
C3333 C3332 1.367 . S
C3333 C3341 1.433 . S
C3334 H3330 0.929 . S
C3334 C3336 1.378 . S
C3334 C3338 1.350 . S
C3335 C3338 1.463 . S
C3335 C3340 1.350 . S
C3335 N3343 1.427 . S
C3336 H3327 0.930 . S
C3336 C3334 1.378 . S
C3336 C3337 1.367 . S
C3337 C3336 1.367 . S
C3337 C3339 1.433 . S
C3338 C3334 1.350 . S
C3338 C3335 1.463 . S
C3338 N3342 1.427 . S
C3339 H3329 0.929 . S
C3339 C3337 1.433 . S
C3339 N3342 1.384 . S
C3340 H3331 0.929 . S
C3340 C3332 1.378 . S
C3340 C3335 1.350 . S
C3341 H3328 0.929 . S
C3341 C3333 1.433 . S
C3341 N3343 1.384 . S
N3342 C3338 1.427 . S
N3342 C3339 1.384 . S
N3343 C3335 1.427 . S
N3343 C3341 1.384 . S
H3344 C3350 0.930 . S
H3345 C3354 0.930 . S
H3346 C3359 0.929 . S
H3347 C3357 0.929 . S
H3348 C3352 0.929 . S
H3349 C3358 0.929 . S
C3350 H3344 0.930 . S
C3350 C3351 1.367 . S
C3350 C3358 1.378 . S
C3351 C3350 1.367 . S
C3351 C3359 1.433 . S
C3352 H3348 0.929 . S
C3352 C3354 1.378 . S
C3352 C3356 1.350 . S
C3353 C3356 1.463 . S
C3353 C3358 1.350 . S
C3353 N3361 1.427 . S
C3354 H3345 0.930 . S
C3354 C3352 1.378 . S
C3354 C3355 1.367 . S
C3355 C3354 1.367 . S
C3355 C3357 1.433 . S
C3356 C3352 1.350 . S
C3356 C3353 1.463 . S
C3356 N3360 1.427 . S
C3357 H3347 0.929 . S
C3357 C3355 1.433 . S
C3357 N3360 1.384 . S
C3358 H3349 0.929 . S
C3358 C3350 1.378 . S
C3358 C3353 1.350 . S
C3359 H3346 0.929 . S
C3359 C3351 1.433 . S
C3359 N3361 1.384 . S
N3360 C3356 1.427 . S
N3360 C3357 1.384 . S
N3361 C3353 1.427 . S
N3361 C3359 1.384 . S
H3362 C3368 0.930 . S
H3363 C3372 0.930 . S
H3364 C3377 0.929 . S
H3365 C3375 0.929 . S
H3366 C3370 0.929 . S
H3367 C3376 0.929 . S
C3368 H3362 0.930 . S
C3368 C3369 1.367 . S
C3368 C3376 1.378 . S
C3369 C3368 1.367 . S
C3369 C3377 1.433 . S
C3370 H3366 0.929 . S
C3370 C3372 1.378 . S
C3370 C3374 1.350 . S
C3371 C3374 1.463 . S
C3371 C3376 1.350 . S
C3371 N3379 1.427 . S
C3372 H3363 0.930 . S
C3372 C3370 1.378 . S
C3372 C3373 1.367 . S
C3373 C3372 1.367 . S
C3373 C3375 1.433 . S
C3374 C3370 1.350 . S
C3374 C3371 1.463 . S
C3374 N3378 1.427 . S
C3375 H3365 0.929 . S
C3375 C3373 1.433 . S
C3375 N3378 1.384 . S
C3376 H3367 0.929 . S
C3376 C3368 1.378 . S
C3376 C3371 1.350 . S
C3377 H3364 0.929 . S
C3377 C3369 1.433 . S
C3377 N3379 1.384 . S
N3378 C3374 1.427 . S
N3378 C3375 1.384 . S
N3379 C3371 1.427 . S
N3379 C3377 1.384 . S
H3380 C3386 0.930 . S
H3381 C3390 0.930 . S
H3382 C3395 0.929 . S
H3383 C3393 0.929 . S
H3384 C3388 0.929 . S
H3385 C3394 0.929 . S
C3386 H3380 0.930 . S
C3386 C3387 1.367 . S
C3386 C3394 1.378 . S
C3387 C3386 1.367 . S
C3387 C3395 1.433 . S
C3388 H3384 0.929 . S
C3388 C3390 1.378 . S
C3388 C3392 1.350 . S
C3389 C3392 1.463 . S
C3389 C3394 1.350 . S
C3389 N3397 1.427 . S
C3390 H3381 0.930 . S
C3390 C3388 1.378 . S
C3390 C3391 1.367 . S
C3391 C3390 1.367 . S
C3391 C3393 1.433 . S
C3392 C3388 1.350 . S
C3392 C3389 1.463 . S
C3392 N3396 1.427 . S
C3393 H3383 0.929 . S
C3393 C3391 1.433 . S
C3393 N3396 1.384 . S
C3394 H3385 0.929 . S
C3394 C3386 1.378 . S
C3394 C3389 1.350 . S
C3395 H3382 0.929 . S
C3395 C3387 1.433 . S
C3395 N3397 1.384 . S
N3396 C3392 1.427 . S
N3396 C3393 1.384 . S
N3397 C3389 1.427 . S
N3397 C3395 1.384 . S
H3398 C3404 0.930 . S
H3399 C3408 0.930 . S
H3400 C3413 0.929 . S
H3401 C3411 0.929 . S
H3402 C3406 0.929 . S
H3403 C3412 0.929 . S
C3404 H3398 0.930 . S
C3404 C3405 1.367 . S
C3404 C3412 1.378 . S
C3405 C3404 1.367 . S
C3405 C3413 1.433 . S
C3406 H3402 0.929 . S
C3406 C3408 1.378 . S
C3406 C3410 1.350 . S
C3407 C3410 1.463 . S
C3407 C3412 1.350 . S
C3407 N3415 1.427 . S
C3408 H3399 0.930 . S
C3408 C3406 1.378 . S
C3408 C3409 1.367 . S
C3409 C3408 1.367 . S
C3409 C3411 1.433 . S
C3410 C3406 1.350 . S
C3410 C3407 1.463 . S
C3410 N3414 1.427 . S
C3411 H3401 0.929 . S
C3411 C3409 1.433 . S
C3411 N3414 1.384 . S
C3412 H3403 0.929 . S
C3412 C3404 1.378 . S
C3412 C3407 1.350 . S
C3413 H3400 0.929 . S
C3413 C3405 1.433 . S
C3413 N3415 1.384 . S
N3414 C3410 1.427 . S
N3414 C3411 1.384 . S
N3415 C3407 1.427 . S
N3415 C3413 1.384 . S
H3416 C3422 0.930 . S
H3417 C3426 0.930 . S
H3418 C3431 0.929 . S
H3419 C3429 0.929 . S
H3420 C3424 0.929 . S
H3421 C3430 0.929 . S
C3422 H3416 0.930 . S
C3422 C3423 1.367 . S
C3422 C3430 1.378 . S
C3423 C3422 1.367 . S
C3423 C3431 1.433 . S
C3424 H3420 0.929 . S
C3424 C3426 1.378 . S
C3424 C3428 1.350 . S
C3425 C3428 1.463 . S
C3425 C3430 1.350 . S
C3425 N3433 1.427 . S
C3426 H3417 0.930 . S
C3426 C3424 1.378 . S
C3426 C3427 1.367 . S
C3427 C3426 1.367 . S
C3427 C3429 1.433 . S
C3428 C3424 1.350 . S
C3428 C3425 1.463 . S
C3428 N3432 1.427 . S
C3429 H3419 0.929 . S
C3429 C3427 1.433 . S
C3429 N3432 1.384 . S
C3430 H3421 0.929 . S
C3430 C3422 1.378 . S
C3430 C3425 1.350 . S
C3431 H3418 0.929 . S
C3431 C3423 1.433 . S
C3431 N3433 1.384 . S
N3432 C3428 1.427 . S
N3432 C3429 1.384 . S
N3433 C3425 1.427 . S
N3433 C3431 1.384 . S
H3434 C3440 0.930 . S
H3435 C3444 0.930 . S
H3436 C3449 0.929 . S
H3437 C3447 0.929 . S
H3438 C3442 0.929 . S
H3439 C3448 0.929 . S
C3440 H3434 0.930 . S
C3440 C3441 1.367 . S
C3440 C3448 1.378 . S
C3441 C3440 1.367 . S
C3441 C3449 1.433 . S
C3442 H3438 0.929 . S
C3442 C3444 1.378 . S
C3442 C3446 1.350 . S
C3443 C3446 1.463 . S
C3443 C3448 1.350 . S
C3443 N3451 1.427 . S
C3444 H3435 0.930 . S
C3444 C3442 1.378 . S
C3444 C3445 1.367 . S
C3445 C3444 1.367 . S
C3445 C3447 1.433 . S
C3446 C3442 1.350 . S
C3446 C3443 1.463 . S
C3446 N3450 1.427 . S
C3447 H3437 0.929 . S
C3447 C3445 1.433 . S
C3447 N3450 1.384 . S
C3448 H3439 0.929 . S
C3448 C3440 1.378 . S
C3448 C3443 1.350 . S
C3449 H3436 0.929 . S
C3449 C3441 1.433 . S
C3449 N3451 1.384 . S
N3450 C3446 1.427 . S
N3450 C3447 1.384 . S
N3451 C3443 1.427 . S
N3451 C3449 1.384 . S
H3452 C3458 0.930 . S
H3453 C3462 0.930 . S
H3454 C3467 0.929 . S
H3455 C3465 0.929 . S
H3456 C3460 0.929 . S
H3457 C3466 0.929 . S
C3458 H3452 0.930 . S
C3458 C3459 1.367 . S
C3458 C3466 1.378 . S
C3459 C3458 1.367 . S
C3459 C3467 1.433 . S
C3460 H3456 0.929 . S
C3460 C3462 1.378 . S
C3460 C3464 1.350 . S
C3461 C3464 1.463 . S
C3461 C3466 1.350 . S
C3461 N3469 1.427 . S
C3462 H3453 0.930 . S
C3462 C3460 1.378 . S
C3462 C3463 1.367 . S
C3463 C3462 1.367 . S
C3463 C3465 1.433 . S
C3464 C3460 1.350 . S
C3464 C3461 1.463 . S
C3464 N3468 1.427 . S
C3465 H3455 0.929 . S
C3465 C3463 1.433 . S
C3465 N3468 1.384 . S
C3466 H3457 0.929 . S
C3466 C3458 1.378 . S
C3466 C3461 1.350 . S
C3467 H3454 0.929 . S
C3467 C3459 1.433 . S
C3467 N3469 1.384 . S
N3468 C3464 1.427 . S
N3468 C3465 1.384 . S
N3469 C3461 1.427 . S
N3469 C3467 1.384 . S
H3470 C3476 0.930 . S
H3471 C3480 0.930 . S
H3472 C3485 0.929 . S
H3473 C3483 0.929 . S
H3474 C3478 0.929 . S
H3475 C3484 0.929 . S
C3476 H3470 0.930 . S
C3476 C3477 1.367 . S
C3476 C3484 1.378 . S
C3477 C3476 1.367 . S
C3477 C3485 1.433 . S
C3478 H3474 0.929 . S
C3478 C3480 1.378 . S
C3478 C3482 1.350 . S
C3479 C3482 1.463 . S
C3479 C3484 1.350 . S
C3479 N3487 1.427 . S
C3480 H3471 0.930 . S
C3480 C3478 1.378 . S
C3480 C3481 1.367 . S
C3481 C3480 1.367 . S
C3481 C3483 1.433 . S
C3482 C3478 1.350 . S
C3482 C3479 1.463 . S
C3482 N3486 1.427 . S
C3483 H3473 0.929 . S
C3483 C3481 1.433 . S
C3483 N3486 1.384 . S
C3484 H3475 0.929 . S
C3484 C3476 1.378 . S
C3484 C3479 1.350 . S
C3485 H3472 0.929 . S
C3485 C3477 1.433 . S
C3485 N3487 1.384 . S
N3486 C3482 1.427 . S
N3486 C3483 1.384 . S
N3487 C3479 1.427 . S
N3487 C3485 1.384 . S
H3488 C3494 0.930 . S
H3489 C3498 0.930 . S
H3490 C3503 0.929 . S
H3491 C3501 0.929 . S
H3492 C3496 0.929 . S
H3493 C3502 0.929 . S
C3494 H3488 0.930 . S
C3494 C3495 1.367 . S
C3494 C3502 1.378 . S
C3495 C3494 1.367 . S
C3495 C3503 1.433 . S
C3496 H3492 0.929 . S
C3496 C3498 1.378 . S
C3496 C3500 1.350 . S
C3497 C3500 1.463 . S
C3497 C3502 1.350 . S
C3497 N3505 1.427 . S
C3498 H3489 0.930 . S
C3498 C3496 1.378 . S
C3498 C3499 1.367 . S
C3499 C3498 1.367 . S
C3499 C3501 1.433 . S
C3500 C3496 1.350 . S
C3500 C3497 1.463 . S
C3500 N3504 1.427 . S
C3501 H3491 0.929 . S
C3501 C3499 1.433 . S
C3501 N3504 1.384 . S
C3502 H3493 0.929 . S
C3502 C3494 1.378 . S
C3502 C3497 1.350 . S
C3503 H3490 0.929 . S
C3503 C3495 1.433 . S
C3503 N3505 1.384 . S
N3504 C3500 1.427 . S
N3504 C3501 1.384 . S
N3505 C3497 1.427 . S
N3505 C3503 1.384 . S
H3506 C3512 0.930 . S
H3507 C3516 0.930 . S
H3508 C3521 0.929 . S
H3509 C3519 0.929 . S
H3510 C3514 0.929 . S
H3511 C3520 0.929 . S
C3512 H3506 0.930 . S
C3512 C3513 1.367 . S
C3512 C3520 1.378 . S
C3513 C3512 1.367 . S
C3513 C3521 1.433 . S
C3514 H3510 0.929 . S
C3514 C3516 1.378 . S
C3514 C3518 1.350 . S
C3515 C3518 1.463 . S
C3515 C3520 1.350 . S
C3515 N3523 1.427 . S
C3516 H3507 0.930 . S
C3516 C3514 1.378 . S
C3516 C3517 1.367 . S
C3517 C3516 1.367 . S
C3517 C3519 1.433 . S
C3518 C3514 1.350 . S
C3518 C3515 1.463 . S
C3518 N3522 1.427 . S
C3519 H3509 0.929 . S
C3519 C3517 1.433 . S
C3519 N3522 1.384 . S
C3520 H3511 0.929 . S
C3520 C3512 1.378 . S
C3520 C3515 1.350 . S
C3521 H3508 0.929 . S
C3521 C3513 1.433 . S
C3521 N3523 1.384 . S
N3522 C3518 1.427 . S
N3522 C3519 1.384 . S
N3523 C3515 1.427 . S
N3523 C3521 1.384 . S
H3524 C3530 0.930 . S
H3525 C3534 0.930 . S
H3526 C3539 0.929 . S
H3527 C3537 0.929 . S
H3528 C3532 0.929 . S
H3529 C3538 0.929 . S
C3530 H3524 0.930 . S
C3530 C3531 1.367 . S
C3530 C3538 1.378 . S
C3531 C3530 1.367 . S
C3531 C3539 1.433 . S
C3532 H3528 0.929 . S
C3532 C3534 1.378 . S
C3532 C3536 1.350 . S
C3533 C3536 1.463 . S
C3533 C3538 1.350 . S
C3533 N3541 1.427 . S
C3534 H3525 0.930 . S
C3534 C3532 1.378 . S
C3534 C3535 1.367 . S
C3535 C3534 1.367 . S
C3535 C3537 1.433 . S
C3536 C3532 1.350 . S
C3536 C3533 1.463 . S
C3536 N3540 1.427 . S
C3537 H3527 0.929 . S
C3537 C3535 1.433 . S
C3537 N3540 1.384 . S
C3538 H3529 0.929 . S
C3538 C3530 1.378 . S
C3538 C3533 1.350 . S
C3539 H3526 0.929 . S
C3539 C3531 1.433 . S
C3539 N3541 1.384 . S
N3540 C3536 1.427 . S
N3540 C3537 1.384 . S
N3541 C3533 1.427 . S
N3541 C3539 1.384 . S
H3542 C3548 0.930 . S
H3543 C3552 0.930 . S
H3544 C3557 0.929 . S
H3545 C3555 0.929 . S
H3546 C3550 0.929 . S
H3547 C3556 0.929 . S
C3548 H3542 0.930 . S
C3548 C3549 1.367 . S
C3548 C3556 1.378 . S
C3549 C3548 1.367 . S
C3549 C3557 1.433 . S
C3550 H3546 0.929 . S
C3550 C3552 1.378 . S
C3550 C3554 1.350 . S
C3551 C3554 1.463 . S
C3551 C3556 1.350 . S
C3551 N3559 1.427 . S
C3552 H3543 0.930 . S
C3552 C3550 1.378 . S
C3552 C3553 1.367 . S
C3553 C3552 1.367 . S
C3553 C3555 1.433 . S
C3554 C3550 1.350 . S
C3554 C3551 1.463 . S
C3554 N3558 1.427 . S
C3555 H3545 0.929 . S
C3555 C3553 1.433 . S
C3555 N3558 1.384 . S
C3556 H3547 0.929 . S
C3556 C3548 1.378 . S
C3556 C3551 1.350 . S
C3557 H3544 0.929 . S
C3557 C3549 1.433 . S
C3557 N3559 1.384 . S
N3558 C3554 1.427 . S
N3558 C3555 1.384 . S
N3559 C3551 1.427 . S
N3559 C3557 1.384 . S
C1843 N1292 1.495 . S
C1839 C21 1.542 . S
C1861 C1319 1.535 . S
C1857 C42 1.523 . S
C1875 C82 1.537 . S
C1879 C1333 1.529 . S
C1897 N1351 1.439 . S
C1893 C135 1.479 . S
C1911 C175 1.503 . S
C1915 C1356 1.500 . S
C1929 C221 1.529 . S
C1933 C1296 1.534 . S
C1947 C255 1.405 . S
C1951 N1315 1.373 . S
C1969 N1328 1.506 . S
C1965 C301 1.529 . S
C1987 N1374 1.426 . S
C1983 C15 1.460 . S
C2001 C55 1.479 . S
C2005 N1397 1.446 . S
C2019 C101 1.602 . S
C2023 N1420 1.574 . S
C2041 N1453 1.418 . S
C2037 C141 1.449 . S
C2055 C162 1.492 . S
C2059 C1480 1.493 . S
C2077 C1503 1.577 . S
C2073 C215 1.580 . S
C2091 C261 1.477 . S
C2095 C1526 1.497 . S
C2113 C1540 1.459 . S
C2109 C282 1.436 . S
C2127 C2 1.462 . S
C2131 C1457 1.465 . S
C2145 C181 1.428 . S
C2149 N1499 1.410 . S
C2167 N1522 1.467 . S
C2163 C202 1.509 . S
C2181 C242 1.462 . S
C2185 N1535 1.443 . S
C2203 N1476 1.427 . S
C2199 C295 1.472 . S
C2221 C1402 1.686 . S
C2217 C95 1.690 . S
C2235 C122 1.502 . S
C2239 C1425 1.510 . S
C2257 C1379 1.536 . S
C2253 C61 1.525 . S
C2275 C1572 1.503 . S
C2271 C341 1.502 . S
C2289 C362 1.523 . S
C2293 C1586 1.543 . S
C2307 C402 1.526 . S
C2311 N1614 1.478 . S
C2329 N1627 1.425 . S
C2325 C455 1.463 . S
C2343 C495 1.519 . S
C2347 C1632 1.518 . S
C2361 C541 1.517 . S
C2365 N1568 1.469 . S
C2379 C575 1.496 . S
C2383 N1581 1.467 . S
C2397 C621 1.482 . S
C2401 C1618 1.499 . S
C2419 N1466 1.422 . S
C2415 C335 1.462 . S
C2433 C375 1.469 . S
C2437 N1650 1.429 . S
C2455 N1512 1.493 . S
C2451 C421 1.520 . S
C2469 C461 1.492 . S
C2473 C1687 1.511 . S
C2487 C482 1.521 . S
C2491 C1388 1.519 . S
C2509 C1701 1.610 . S
C2505 C535 1.612 . S
C2523 C581 1.533 . S
C2527 C1434 1.549 . S
C2545 N1719 1.422 . S
C2541 C602 1.440 . S
C2559 C322 1.485 . S
C2563 N1683 1.449 . S
C2581 N1696 1.426 . S
C2577 C501 1.468 . S
C2595 C522 1.508 . S
C2599 N1430 1.462 . S
C2617 C1724 1.449 . S
C2613 C562 1.429 . S
C2631 C615 1.442 . S
C2635 N1384 1.399 . S
C2649 C415 1.592 . S
C2653 C1655 1.590 . S
C2667 C442 1.533 . S
C2671 C1517 1.552 . S
C2685 C381 1.536 . S
C2689 C1471 1.551 . S
C2703 C661 1.564 . S
C2707 C1609 1.567 . S
C2725 C1641 1.484 . S
C2721 C682 1.474 . S
C2739 C722 1.495 . S
C2743 N1558 1.459 . S
C2757 C775 1.446 . S
C2761 N1591 1.404 . S
C2775 C815 1.519 . S
C2779 C1595 1.511 . S
C2793 C861 1.581 . S
C2797 N1604 1.556 . S
C2815 N1637 1.346 . S
C2811 C895 1.388 . S
C2829 C941 1.540 . S
C2833 C1563 1.558 . S
C2851 N1752 1.437 . S
C2847 C655 1.486 . S
C2865 C695 1.419 . S
C2869 N1489 1.382 . S
C2887 N1775 1.415 . S
C2883 C741 1.469 . S
C2901 C781 1.471 . S
C2905 N1545 1.447 . S
C2919 C802 1.492 . S
C2923 C1793 1.501 . S
C2937 C855 1.674 . S
C2941 C1411 1.669 . S
C2959 N1811 1.400 . S
C2955 C901 1.415 . S
C2973 C922 1.490 . S
C2977 C1448 1.513 . S
C2995 C1549 1.521 . S
C2991 C642 1.509 . S
C3013 N1407 1.432 . S
C3009 C821 1.478 . S
C3027 C842 1.609 . S
C3031 C1816 1.613 . S
C3045 C882 1.393 . S
C3049 N1443 1.363 . S
C3067 N1788 1.477 . S
C3063 C935 1.513 . S
C3085 C1494 1.592 . S
C3081 C735 1.594 . S
C3103 C1779 1.545 . S
C3099 C762 1.529 . S
C3121 C1756 1.500 . S
C3117 C701 1.492 . S
C3135 C981 1.454 . S
C3139 N1338 1.400 . S
C3153 C1002 1.482 . S
C3157 C1365 1.492 . S
C3175 C1287 1.565 . S
C3171 C1042 1.562 . S
C3193 N1305 1.366 . S
C3189 C1095 1.412 . S
C3211 C1310 1.521 . S
C3207 C1135 1.526 . S
C3229 C1342 1.531 . S
C3225 C1181 1.533 . S
C3247 N1361 1.460 . S
C3243 C1215 1.504 . S
C3261 C1261 1.546 . S
C3265 N1282 1.534 . S
C3279 C975 1.401 . S
C3283 N1798 1.359 . S
C3301 N1706 1.411 . S
C3297 C1015 1.439 . S
C3319 C1825 1.626 . S
C3315 C1061 1.627 . S
C3337 C1733 1.385 . S
C3333 C1101 1.372 . S
C3351 C1122 1.531 . S
C3355 C1747 1.533 . S
C3373 C1664 1.598 . S
C3369 C1175 1.603 . S
C3391 C1770 1.641 . S
C3387 C1221 1.621 . S
C3405 C1242 1.478 . S
C3409 N1673 1.463 . S
C3427 N1729 1.371 . S
C3423 C962 1.411 . S
C3445 N1660 1.412 . S
C3441 C1141 1.435 . S
C3463 N1765 1.427 . S
C3459 C1162 1.461 . S
C3477 C1202 1.496 . S
C3481 C1678 1.516 . S
C3495 C1255 1.457 . S
C3499 N1742 1.425 . S
C3513 C1055 1.685 . S
C3517 C1710 1.676 . S
C3531 C1082 1.420 . S
C3535 N1821 1.405 . S
C3553 C1802 1.484 . S
C3549 C1021 1.474 . S
