# Generated by pormake.
# Topology ssb, (4,4)-cn, num edge types: 1
# Building blocks:
#     Node 0, Type 0, BuildingBlock: NAWXER_clean_sbu_0, # of connection points: 4
#     Node 1, Type 0, BuildingBlock: NAWXER_clean_sbu_0, # of connection points: 4
#     Node 2, Type 0, BuildingBlock: NAWXER_clean_sbu_0, # of connection points: 4
#     Node 3, Type 0, BuildingBlock: NAWXER_clean_sbu_0, # of connection points: 4
#     Node 4, Type 0, BuildingBlock: NAWXER_clean_sbu_0, # of connection points: 4
#     Node 5, Type 0, BuildingBlock: NAWXER_clean_sbu_0, # of connection points: 4
#     Node 6, Type 0, BuildingBlock: NAWXER_clean_sbu_0, # of connection points: 4
#     Node 7, Type 0, BuildingBlock: NAWXER_clean_sbu_0, # of connection points: 4
#     Node 8, Type 1, BuildingBlock: KOZSID_clean_sbu_0, # of connection points: 4
#     Node 9, Type 1, BuildingBlock: KOZSID_clean_sbu_0, # of connection points: 4
#     Node 10, Type 1, BuildingBlock: KOZSID_clean_sbu_0, # of connection points: 4
#     Node 11, Type 1, BuildingBlock: KOZSID_clean_sbu_0, # of connection points: 4
#     Node 12, Type 1, BuildingBlock: KOZSID_clean_sbu_0, # of connection points: 4
#     Node 13, Type 1, BuildingBlock: KOZSID_clean_sbu_0, # of connection points: 4
#     Node 14, Type 1, BuildingBlock: KOZSID_clean_sbu_0, # of connection points: 4
#     Node 15, Type 1, BuildingBlock: KOZSID_clean_sbu_0, # of connection points: 4
#     Edge 16, Type (0, 1), BuildingBlock: AJUNOK_clean_linker_0, # of connection points: 2
#     Edge 17, Type (0, 1), BuildingBlock: AJUNOK_clean_linker_0, # of connection points: 2
#     Edge 18, Type (0, 1), BuildingBlock: AJUNOK_clean_linker_0, # of connection points: 2
#     Edge 19, Type (0, 1), BuildingBlock: AJUNOK_clean_linker_0, # of connection points: 2
#     Edge 20, Type (0, 1), BuildingBlock: AJUNOK_clean_linker_0, # of connection points: 2
#     Edge 21, Type (0, 1), BuildingBlock: AJUNOK_clean_linker_0, # of connection points: 2
#     Edge 22, Type (0, 1), BuildingBlock: AJUNOK_clean_linker_0, # of connection points: 2
#     Edge 23, Type (0, 1), BuildingBlock: AJUNOK_clean_linker_0, # of connection points: 2
#     Edge 24, Type (0, 1), BuildingBlock: AJUNOK_clean_linker_0, # of connection points: 2
#     Edge 25, Type (0, 1), BuildingBlock: AJUNOK_clean_linker_0, # of connection points: 2
#     Edge 26, Type (0, 1), BuildingBlock: AJUNOK_clean_linker_0, # of connection points: 2
#     Edge 27, Type (0, 1), BuildingBlock: AJUNOK_clean_linker_0, # of connection points: 2
#     Edge 28, Type (0, 1), BuildingBlock: AJUNOK_clean_linker_0, # of connection points: 2
#     Edge 29, Type (0, 1), BuildingBlock: AJUNOK_clean_linker_0, # of connection points: 2
#     Edge 30, Type (0, 1), BuildingBlock: AJUNOK_clean_linker_0, # of connection points: 2
#     Edge 31, Type (0, 1), BuildingBlock: AJUNOK_clean_linker_0, # of connection points: 2
#     Edge 32, Type (0, 1), BuildingBlock: AJUNOK_clean_linker_0, # of connection points: 2
#     Edge 33, Type (0, 1), BuildingBlock: AJUNOK_clean_linker_0, # of connection points: 2
#     Edge 34, Type (0, 1), BuildingBlock: AJUNOK_clean_linker_0, # of connection points: 2
#     Edge 35, Type (0, 1), BuildingBlock: AJUNOK_clean_linker_0, # of connection points: 2
#     Edge 36, Type (0, 1), BuildingBlock: AJUNOK_clean_linker_0, # of connection points: 2
#     Edge 37, Type (0, 1), BuildingBlock: AJUNOK_clean_linker_0, # of connection points: 2
#     Edge 38, Type (0, 1), BuildingBlock: AJUNOK_clean_linker_0, # of connection points: 2
#     Edge 39, Type (0, 1), BuildingBlock: AJUNOK_clean_linker_0, # of connection points: 2
#     Edge 40, Type (0, 1), BuildingBlock: AJUNOK_clean_linker_0, # of connection points: 2
#     Edge 41, Type (0, 1), BuildingBlock: AJUNOK_clean_linker_0, # of connection points: 2
#     Edge 42, Type (0, 1), BuildingBlock: AJUNOK_clean_linker_0, # of connection points: 2
#     Edge 43, Type (0, 1), BuildingBlock: AJUNOK_clean_linker_0, # of connection points: 2
#     Edge 44, Type (0, 1), BuildingBlock: AJUNOK_clean_linker_0, # of connection points: 2
#     Edge 45, Type (0, 1), BuildingBlock: AJUNOK_clean_linker_0, # of connection points: 2
#     Edge 46, Type (0, 1), BuildingBlock: AJUNOK_clean_linker_0, # of connection points: 2
#     Edge 47, Type (0, 1), BuildingBlock: AJUNOK_clean_linker_0, # of connection points: 2
# Relax obj value: 0.008
# Max RMSD: 0.037
# Mean RMSD: 0.022
data_MOF--net-ssb--node1-NAWXER_clean_sbu_0--node2-KOZSID_clean_sbu_0--edge1-AJUNOK_clean_linker_0
_symmetry_space_group_name_H-M    P1
_symmetry_Int_Tables_number       1
_symmetry_cell_setting            triclinic
loop_
_symmetry_equiv_pos_as_xyz
'x, y, z'
_cell_length_a     40.080858
_cell_length_b     39.87528
_cell_length_c     29.230155
_cell_angle_alpha  93.05184
_cell_angle_beta   96.309111
_cell_angle_gamma 90.156162
loop_
_atom_site_label
_atom_site_type_symbol
_atom_site_fract_x
_atom_site_fract_y
_atom_site_fract_z
_atom_type_partial_charge
C0 C 0.22491 0.27802 0.3574 0.0
C1 C 0.33032 0.2587 0.28306 0.0
O2 O 0.22228 0.2595 0.32001 0.0
Zn3 Zn 0.25162 0.23958 0.26889 0.0
O4 O 0.25335 0.29146 0.3718 0.0
Zn5 Zn 0.27968 0.27127 0.32352 0.0
O6 O 0.26227 0.29803 0.26404 0.0
O7 O 0.23403 0.26421 0.21201 0.0
O8 O 0.32879 0.27663 0.32031 0.0
O9 O 0.30355 0.24433 0.26338 0.0
O10 O 0.24859 0.19024 0.28179 0.0
O11 O 0.27627 0.21959 0.33948 0.0
C12 C 0.24609 0.29353 0.22387 0.0
C13 C 0.264 0.19131 0.3226 0.0
C14 C 0.70949 0.24624 0.22264 0.0
C15 C 0.81946 0.26531 0.31775 0.0
O16 O 0.70828 0.26028 0.26282 0.0
Zn17 Zn 0.74056 0.27707 0.3225 0.0
O18 O 0.73792 0.23788 0.20995 0.0
Zn19 Zn 0.76579 0.25387 0.26704 0.0
O20 O 0.75166 0.22028 0.31595 0.0
O21 O 0.72612 0.24864 0.36864 0.0
O22 O 0.81539 0.25191 0.27691 0.0
O23 O 0.7936 0.27511 0.33667 0.0
O24 O 0.73247 0.32548 0.32351 0.0
O25 O 0.75704 0.30601 0.2634 0.0
C26 C 0.73692 0.22086 0.35273 0.0
C27 C 0.74447 0.33036 0.28583 0.0
C28 C 0.76013 0.70452 0.2433 0.0
C29 C 0.74886 0.81342 0.34256 0.0
O30 O 0.74792 0.70654 0.28198 0.0
Zn31 Zn 0.75343 0.75685 0.29711 0.0
O32 O 0.77155 0.73162 0.22885 0.0
Zn33 Zn 0.77701 0.78459 0.24776 0.0
O34 O 0.82632 0.79032 0.25706 0.0
O35 O 0.80671 0.76212 0.31115 0.0
O36 O 0.76247 0.81586 0.3051 0.0
O37 O 0.73945 0.78422 0.35231 0.0
O38 O 0.71982 0.77515 0.24205 0.0
O39 O 0.74859 0.80228 0.1954 0.0
C40 C 0.83168 0.77522 0.29448 0.0
C41 C 0.7205 0.79141 0.20547 0.0
C42 C 0.27375 0.6979 0.21962 0.0
C43 C 0.30099 0.79998 0.3133 0.0
O44 O 0.26152 0.72433 0.2014 0.0
Zn45 Zn 0.26042 0.77694 0.21625 0.0
O46 O 0.29138 0.70022 0.25861 0.0
Zn47 Zn 0.28904 0.74818 0.26774 0.0
O48 O 0.23782 0.75463 0.27765 0.0
O49 O 0.21224 0.78482 0.2237 0.0
O50 O 0.31012 0.77057 0.32372 0.0
O51 O 0.28333 0.80469 0.27504 0.0
O52 O 0.2845 0.79397 0.16651 0.0
O53 O 0.31731 0.76542 0.21554 0.0
C54 C 0.21116 0.76876 0.26013 0.0
C55 C 0.31342 0.78219 0.17912 0.0
C56 C 0.34151 0.76616 0.7787 0.0
C57 C 0.23119 0.74723 0.68359 0.0
O58 O 0.31605 0.78036 0.79394 0.0
Zn59 Zn 0.26342 0.78573 0.77777 0.0
O60 O 0.33737 0.74928 0.74011 0.0
Zn61 Zn 0.28799 0.75481 0.72803 0.0
O62 O 0.28463 0.80675 0.71231 0.0
O63 O 0.25994 0.83521 0.76506 0.0
O64 O 0.25912 0.73526 0.6735 0.0
O65 O 0.23061 0.76534 0.72099 0.0
O66 O 0.2479 0.76137 0.8307 0.0
O67 O 0.2727 0.72719 0.784 0.0
C68 C 0.27355 0.83484 0.72744 0.0
C69 C 0.25834 0.73183 0.82094 0.0
C70 C 0.27741 0.24698 0.71726 0.0
C71 C 0.25413 0.35372 0.79592 0.0
O72 O 0.26214 0.24484 0.75316 0.0
Zn73 Zn 0.24279 0.27506 0.80481 0.0
O74 O 0.2854 0.27557 0.70404 0.0
Zn75 Zn 0.26781 0.30164 0.75428 0.0
O76 O 0.3002 0.28743 0.81328 0.0
O77 O 0.27074 0.26174 0.86054 0.0
O78 O 0.26973 0.35077 0.76027 0.0
O79 O 0.24402 0.32743 0.81364 0.0
O80 O 0.19409 0.26622 0.79083 0.0
O81 O 0.2156 0.29271 0.73654 0.0
C82 C 0.29896 0.27271 0.85103 0.0
C83 C 0.19026 0.27927 0.75169 0.0
C84 C 0.75685 0.19095 0.76441 0.0
C85 C 0.77031 0.30252 0.86192 0.0
O86 O 0.74337 0.21724 0.74708 0.0
Zn87 Zn 0.73782 0.27049 0.76258 0.0
O88 O 0.77239 0.19426 0.80508 0.0
Zn89 Zn 0.76655 0.24457 0.81664 0.0
O90 O 0.71392 0.2467 0.82142 0.0
O91 O 0.6888 0.27404 0.76398 0.0
O92 O 0.78266 0.2743 0.87369 0.0
O93 O 0.75422 0.30359 0.82161 0.0
O94 O 0.76197 0.28802 0.71352 0.0
O95 O 0.79528 0.26176 0.76456 0.0
C96 C 0.68703 0.25853 0.8007 0.0
C97 C 0.79111 0.2772 0.72698 0.0
C98 C 0.85193 0.73967 0.73798 0.0
C99 C 0.74976 0.75555 0.82029 0.0
O100 O 0.8251 0.72529 0.71849 0.0
Zn101 Zn 0.77407 0.7189 0.72847 0.0
O102 O 0.85118 0.75507 0.77722 0.0
Zn103 Zn 0.80301 0.74776 0.78479 0.0
O104 O 0.79784 0.69562 0.79554 0.0
O105 O 0.768 0.67101 0.73479 0.0
O106 O 0.77884 0.76693 0.83616 0.0
O107 O 0.74655 0.7382 0.78201 0.0
O108 O 0.75202 0.74239 0.67658 0.0
O109 O 0.7793 0.77594 0.73112 0.0
C110 C 0.78378 0.6693 0.77481 0.0
C111 C 0.76084 0.77178 0.69268 0.0
C112 C 0.04701 0.31157 0.61984 0.0
C113 C 0.0559 0.34284 0.64068 0.0
C114 C 0.03949 0.36604 0.61396 0.0
C115 C 0.02153 0.34768 0.57848 0.0
N116 N 0.02516 0.31411 0.58126 0.0
Co117 Co 1.0047 0.27824 0.53594 0.0
N118 N 0.98337 0.31225 0.49392 0.0
C119 C 0.98642 0.34605 0.49977 0.0
C120 C 0.9682 0.36291 0.46589 0.0
C121 C 0.95218 0.33846 0.437 0.0
C122 C 0.96148 0.30797 0.45508 0.0
N123 N 0.98385 0.24225 0.49091 0.0
C124 C 0.96172 0.24459 0.45253 0.0
C125 C 0.95201 0.21311 0.43286 0.0
C126 C 0.96832 0.1901 0.45981 0.0
C127 C 0.98684 0.20868 0.4944 0.0
N128 N 0.02629 0.2441 0.5776 0.0
C129 C 0.02413 0.21031 0.57098 0.0
C130 C 0.04257 0.19331 0.60444 0.0
C131 C 0.05795 0.21769 0.63394 0.0
C132 C 0.04787 0.24825 0.61666 0.0
N133 N 0.96357 0.27811 0.56923 0.0
C134 C 0.90556 0.27864 0.61708 0.0
C135 C 0.92189 0.24862 0.60672 0.0
C136 C 0.9504 0.24888 0.58269 0.0
C137 C 0.91879 0.3083 0.60287 0.0
C138 C 0.94748 0.3075 0.57939 0.0
N139 N 0.04601 0.27881 0.50295 0.0
C140 C 0.09014 0.24977 0.46642 0.0
C141 C 0.10604 0.28013 0.45937 0.0
C142 C 0.09111 0.30975 0.47432 0.0
C143 C 0.06147 0.30855 0.49564 0.0
C144 C 0.06056 0.24966 0.48819 0.0
H145 H 0.05155 0.33214 0.50583 0.0
H146 H 0.04993 0.22569 0.49283 0.0
H147 H 0.96138 0.22513 0.57544 0.0
H148 H 0.95625 0.33111 0.57009 0.0
C149 C 1.00383 0.36114 0.5398 0.0
C150 C 0.06139 0.28034 0.63673 0.0
C151 C 0.94762 0.27581 0.43517 0.0
C152 C 1.00566 0.19532 0.53201 0.0
H153 H 0.07316 0.34824 0.67137 0.0
H154 H 0.04143 0.39311 0.61886 0.0
H155 H 0.96585 0.3898 0.46343 0.0
H156 H 0.93491 0.34254 0.40668 0.0
H157 H 0.93424 0.20724 0.40289 0.0
H158 H 0.96608 0.16303 0.45555 0.0
H159 H 0.04522 0.16641 0.60648 0.0
H160 H 0.0753 0.21345 0.66409 0.0
H161 H 0.91257 0.22492 0.61687 0.0
H162 H 0.9075 0.33228 0.61072 0.0
H163 H 0.10062 0.22606 0.45544 0.0
H164 H 0.10184 0.33396 0.46877 0.0
C165 C 0.71778 0.04969 0.62461 0.0
C166 C 0.68708 0.06186 0.63563 0.0
C167 C 0.6633 0.05002 0.60134 0.0
C168 C 0.68054 0.03097 0.57148 0.0
N169 N 0.71369 0.02919 0.58529 0.0
Co170 Co 0.74699 1.00526 0.54918 0.0
N171 N 0.7115 0.98153 0.50572 0.0
C172 C 0.67883 0.98968 0.50046 0.0
C173 C 0.65992 0.96839 0.46926 0.0
C174 C 0.68205 0.94525 0.45401 0.0
C175 C 0.71334 0.95363 0.47688 0.0
N176 N 0.77999 0.98169 0.51245 0.0
C177 C 0.77626 0.95401 0.48272 0.0
C178 C 0.80653 0.94553 0.46646 0.0
C179 C 0.82986 0.96856 0.48654 0.0
C180 C 0.81271 0.98978 0.51402 0.0
N181 N 0.78294 0.02844 0.59311 0.0
C182 C 0.81562 0.02983 0.5863 0.0
C183 C 0.83487 0.04874 0.61989 0.0
C184 C 0.81297 0.06087 0.64937 0.0
C185 C 0.78131 0.0487 0.6322 0.0
N186 N 0.74732 0.9671 0.58843 0.0
C187 C 0.74588 0.90328 0.62302 0.0
C188 C 0.77644 0.91862 0.61716 0.0
C189 C 0.77665 0.95077 0.60047 0.0
C190 C 0.71628 0.92143 0.6145 0.0
C191 C 0.71757 0.95336 0.5974 0.0
N192 N 0.74617 0.04328 0.5089 0.0
C193 C 0.74547 0.10308 0.50112 0.0
C194 C 0.73881 0.09863 0.45335 0.0
C195 C 0.73756 0.06575 0.43348 0.0
C196 C 0.74143 0.03839 0.4619 0.0
C197 C 0.74882 0.07535 0.52796 0.0
H198 H 0.74011 0.01334 0.44589 0.0
H199 H 0.7532 0.08029 0.56426 0.0
H200 H 0.80042 0.96158 0.59496 0.0
H201 H 0.69421 0.96595 0.58891 0.0
C202 C 0.66627 0.01308 0.53146 0.0
C203 C 0.75019 0.06212 0.64905 0.0
C204 C 0.74444 0.93568 0.46834 0.0
C205 C 0.82743 0.01247 0.54852 0.0
H206 H 0.68257 0.07881 0.66443 0.0
H207 H 0.63664 0.055 0.59833 0.0
H208 H 0.633 0.96863 0.46033 0.0
H209 H 0.67588 0.92446 0.42914 0.0
H210 H 0.81141 0.92456 0.44316 0.0
H211 H 0.85654 0.96855 0.48356 0.0
H212 H 0.86157 0.05376 0.62215 0.0
H213 H 0.81941 0.07822 0.67875 0.0
H214 H 0.79994 0.90559 0.62455 0.0
H215 H 0.69219 0.91047 0.61905 0.0
H216 H 0.74821 0.12796 0.51793 0.0
H217 H 0.73312 0.06119 0.39645 0.0
C218 C 0.08995 0.7825 0.55668 0.0
C219 C 0.10276 0.81149 0.58082 0.0
C220 C 0.079 0.83585 0.57356 0.0
C221 C 0.05312 0.82052 0.54537 0.0
N222 N 0.05913 0.78809 0.53416 0.0
Co223 Co 0.02812 0.75709 0.49406 0.0
N224 N 1.00073 0.79483 0.46858 0.0
C225 C 1.00133 0.82656 0.48698 0.0
C226 C 0.97911 0.84721 0.46326 0.0
C227 C 0.96313 0.8272 0.42799 0.0
C228 C 0.97656 0.79528 0.43212 0.0
N229 N 0.9972 0.72587 0.45405 0.0
C230 C 0.97374 0.73203 0.41835 0.0
C231 C 0.95803 0.70243 0.40003 0.0
C232 C 0.97135 0.67714 0.42596 0.0
C233 C 0.99461 0.69251 0.45832 0.0
N234 N 0.05546 0.71939 0.51974 0.0
C235 C 0.04589 0.68691 0.51754 0.0
C236 C 0.06963 0.66645 0.53873 0.0
C237 C 0.09579 0.68736 0.55561 0.0
C238 C 0.08649 0.71952 0.54369 0.0
N239 N 0.99887 0.75455 0.54397 0.0
C240 C 0.95621 0.7497 0.61401 0.0
C241 C 0.99123 0.74913 0.62431 0.0
C242 C 0.01206 0.75145 0.58884 0.0
C243 C 0.9432 0.75319 0.56804 0.0
C244 C 0.96475 0.75571 0.53387 0.0
N245 N 0.05714 0.7597 0.4443 0.0
C246 C 0.08742 0.73223 0.38623 0.0
C247 C 0.10075 0.76301 0.37531 0.0
C248 C 0.09113 0.79221 0.39923 0.0
C249 C 0.0693 0.79002 0.43334 0.0
C250 C 0.06581 0.73111 0.42065 0.0
H251 H 0.06279 0.81289 0.45145 0.0
H252 H 0.05651 0.70697 0.42853 0.0
H253 H 0.03885 0.75041 0.59776 0.0
H254 H 0.95355 0.75839 0.49912 0.0
C255 C 0.0255 0.83677 0.52327 0.0
C256 C 0.10662 0.74969 0.55901 0.0
C257 C 0.96274 0.76554 0.40436 0.0
C258 C 0.01709 0.67603 0.48933 0.0
H259 H 0.12666 0.81465 0.60179 0.0
H260 H 0.0809 0.8619 0.58608 0.0
H261 H 0.97526 0.87375 0.47037 0.0
H262 H 0.94324 0.83503 0.40282 0.0
H263 H 0.93838 0.69952 0.37156 0.0
H264 H 0.96526 0.65064 0.42119 0.0
H265 H 0.06856 0.63942 0.54038 0.0
H266 H 0.11895 0.67984 0.57483 0.0
H267 H 1.00243 0.74611 0.65926 0.0
H268 H 0.91634 0.754 0.55843 0.0
H269 H 0.094 0.70897 0.36867 0.0
H270 H 0.10129 0.8165 0.39289 0.0
C271 C 0.30994 0.96916 0.60292 0.0
C272 C 0.34128 0.95986 0.62302 0.0
C273 C 0.36447 0.97852 0.60424 0.0
C274 C 0.34615 0.99811 0.57366 0.0
N275 N 0.31261 0.99358 0.57238 0.0
Co276 Co 0.27755 0.01514 0.52893 0.0
N277 N 0.31153 0.04192 0.50007 0.0
C278 C 0.34474 0.04379 0.51448 0.0
C279 C 0.36185 0.06595 0.49114 0.0
C280 C 0.33805 0.07961 0.4606 0.0
C281 C 0.30758 0.06498 0.46695 0.0
N282 N 0.24256 0.03418 0.48282 0.0
C283 C 0.24503 0.05615 0.44906 0.0
C284 C 0.21386 0.06213 0.42536 0.0
C285 C 0.19099 0.04364 0.4448 0.0
C286 C 0.20931 0.02739 0.47916 0.0
N287 N 0.24323 0.9905 0.56015 0.0
C288 C 0.20962 0.99302 0.55083 0.0
C289 C 0.19189 0.97362 0.57719 0.0
C290 C 0.21558 0.95755 0.605 0.0
C291 C 0.24663 0.96809 0.59405 0.0
N292 N 0.27417 0.05444 0.57256 0.0
C293 C 0.27696 0.11755 0.62019 0.0
C294 C 0.24809 0.1072 0.59174 0.0
C295 C 0.24702 0.07543 0.5688 0.0
C296 C 0.30349 0.09527 0.62636 0.0
C297 C 0.30133 0.06394 0.60322 0.0
N298 N 0.28203 0.97629 0.48547 0.0
C299 C 0.26087 0.92425 0.447 0.0
C300 C 0.29229 0.9176 0.43225 0.0
C301 C 0.31812 0.94084 0.44357 0.0
C302 C 0.31247 0.96983 0.4698 0.0
C303 C 0.25616 0.95392 0.47314 0.0
H304 H 0.33346 0.98628 0.47748 0.0
H305 H 0.23162 0.9582 0.48332 0.0
H306 H 0.22427 0.06869 0.54766 0.0
H307 H 0.32262 0.04846 0.61004 0.0
C308 C 0.35927 0.02249 0.54761 0.0
C309 C 0.27844 0.95441 0.61472 0.0
C310 C 0.27566 0.07405 0.44067 0.0
C311 C 0.19573 1.0095 0.51248 0.0
H312 H 0.34676 0.94154 0.64878 0.0
H313 H 0.39148 0.97801 0.61216 0.0
H314 H 0.38852 0.07136 0.49553 0.0
H315 H 0.34258 0.09828 0.4364 0.0
H316 H 0.20795 0.07908 0.398 0.0
H317 H 0.16401 0.04335 0.43634 0.0
H318 H 0.16493 0.97021 0.57481 0.0
H319 H 0.21045 0.93925 0.62939 0.0
H320 H 0.22653 0.12349 0.58722 0.0
H321 H 0.32628 0.1022 0.64834 0.0
H322 H 0.24007 0.90688 0.43797 0.0
H323 H 0.34277 0.9365 0.43255 0.0
C324 C 0.57647 0.82073 0.06879 0.0
C325 C 0.58568 0.85305 0.08529 0.0
C326 C 0.56662 0.87434 0.05838 0.0
C327 C 0.54684 0.85388 0.02722 0.0
N328 N 0.55158 0.8208 0.0333 0.0
Co329 Co 0.52975 0.78238 0.99391 0.0
N330 N 0.50776 0.8133 0.94796 0.0
C331 C 0.51105 0.8471 0.94923 0.0
C332 C 0.49274 0.86168 0.91325 0.0
C333 C 0.47645 0.83568 0.88775 0.0
C334 C 0.48563 0.80664 0.90989 0.0
N335 N 0.50726 0.74388 0.95499 0.0
C336 C 0.48432 0.74386 0.91705 0.0
C337 C 0.47332 0.71157 0.90275 0.0
C338 C 0.48951 0.69047 0.9329 0.0
C339 C 0.5093 0.71096 0.96391 0.0
N340 N 0.55283 0.75136 0.03904 0.0
C341 C 0.55013 0.71748 0.0375 0.0
C342 C 0.57148 0.70271 0.07023 0.0
C343 C 0.58963 0.72858 0.09329 0.0
C344 C 0.57811 0.75782 0.07337 0.0
N345 N 0.48958 0.7854 0.02926 0.0
C346 C 0.43092 0.78818 0.07587 0.0
C347 C 0.44908 0.75851 0.07164 0.0
C348 C 0.47787 0.75767 0.04852 0.0
C349 C 0.44282 0.8166 0.05649 0.0
C350 C 0.47197 0.81471 0.03371 0.0
N351 N 0.56978 0.77934 0.95907 0.0
C352 C 0.61218 0.74559 0.9262 0.0
C353 C 0.62979 0.77421 0.91667 0.0
C354 C 0.6169 0.80555 0.92877 0.0
C355 C 0.58689 0.80755 0.94943 0.0
C356 C 0.5825 0.74867 0.94698 0.0
H357 H 0.57804 0.83217 0.95748 0.0
H358 H 0.57043 0.72583 0.9533 0.0
H359 H 0.49006 0.73411 0.04657 0.0
H360 H 0.47971 0.83734 0.02001 0.0
C361 C 0.52858 0.86459 0.98719 0.0
C362 C 0.5935 0.79082 0.08588 0.0
C363 C 0.47072 0.77378 0.89516 0.0
C364 C 0.52955 0.70014 1.00225 0.0
H365 H 0.60519 0.8604 0.1126 0.0
H366 H 0.56859 0.90146 0.05943 0.0
H367 H 0.49046 0.88818 0.90729 0.0
H368 H 0.45889 0.83787 0.85718 0.0
H369 H 0.45493 0.70407 0.87411 0.0
H370 H 0.48663 0.66347 0.93281 0.0
H371 H 0.57467 0.67615 0.07521 0.0
H372 H 0.60994 0.72601 0.12044 0.0
H373 H 0.44093 0.73572 0.08587 0.0
H374 H 0.4301 0.84041 0.05956 0.0
H375 H 0.62129 0.72074 0.91757 0.0
H376 H 0.62952 0.82841 0.92149 0.0
C377 C 0.22234 0.55842 0.09465 0.0
C378 C 0.19301 0.56638 0.11375 0.0
C379 C 0.1683 0.54607 0.0906 0.0
C380 C 0.18401 0.52697 0.05894 0.0
N381 N 0.21695 0.53409 0.06074 0.0
Co382 Co 0.24935 0.51282 0.02187 0.0
N383 N 0.2127 0.49566 0.97555 0.0
C384 C 0.17988 0.49378 0.98153 0.0
C385 C 0.16017 0.48232 0.94246 0.0
C386 C 0.18196 0.47621 0.91011 0.0
C387 C 0.21397 0.48397 0.93146 0.0
N388 N 0.28194 0.4914 0.98329 0.0
C389 C 0.27751 0.47903 0.939 0.0
C390 C 0.30732 0.46561 0.92594 0.0
C391 C 0.33082 0.46935 0.96344 0.0
C392 C 0.31433 0.48476 0.99727 0.0
N393 N 0.28604 0.52994 0.06828 0.0
C394 C 0.31783 0.51891 0.0736 0.0
C395 C 0.33749 0.53608 0.10865 0.0
C396 C 0.31666 0.55927 0.12661 0.0
C397 C 0.28538 0.55465 0.10147 0.0
N398 N 0.24718 0.47087 0.05603 0.0
C399 C 0.24398 0.41156 0.10636 0.0
C400 C 0.24399 0.40997 0.05804 0.0
C401 C 0.24542 0.43965 0.03374 0.0
C402 C 0.24559 0.4439 0.12837 0.0
C403 C 0.24733 0.4728 0.10301 0.0
N404 N 0.2512 0.55489 0.98801 0.0
C405 C 0.28247 0.59668 0.95212 0.0
C406 C 0.25305 0.61433 0.93791 0.0
C407 C 0.22274 0.60129 0.94981 0.0
C408 C 0.22233 0.57181 0.97445 0.0
C409 C 0.28106 0.56747 0.97725 0.0
H410 H 0.19839 0.56258 0.98212 0.0
H411 H 0.30425 0.55493 0.98776 0.0
H412 H 0.24538 0.43723 0.99684 0.0
H413 H 0.24882 0.49686 0.1218 0.0
C414 C 0.16802 0.50744 0.02174 0.0
C415 C 0.25521 0.57293 0.11081 0.0
C416 C 0.24482 0.4746 0.91105 0.0
C417 C 0.32951 0.49712 0.04015 0.0
H418 H 0.18988 0.58488 0.14138 0.0
H419 H 0.14182 0.54636 0.09491 0.0
H420 H 0.13312 0.4795 0.93768 0.0
H421 H 0.17527 0.46606 0.8752 0.0
H422 H 0.31166 0.45337 0.89328 0.0
H423 H 0.35695 0.46217 0.96551 0.0
H424 H 0.3641 0.53319 0.11856 0.0
H425 H 0.32377 0.57748 0.15478 0.0
H426 H 0.24368 0.38596 0.03892 0.0
H427 H 0.24539 0.4471 0.16535 0.0
H428 H 0.30662 0.60552 0.94412 0.0
H429 H 0.19917 0.61329 0.93914 0.0
C430 C 0.4457 0.29113 0.98506 0.0
C431 C 0.43401 0.32328 0.97714 0.0
C432 C 0.45766 0.3451 0.99879 0.0
C433 C 0.48234 0.32519 0.0188 0.0
N434 N 0.476 0.2919 0.01113 0.0
Co435 Co 0.50496 0.2543 0.03549 0.0
N436 N 0.5389 0.28647 0.06934 0.0
C437 C 0.53719 0.32038 0.07152 0.0
C438 C 0.56434 0.33586 0.09668 0.0
C439 C 0.58478 0.31035 0.1113 0.0
C440 C 0.56887 0.28063 0.09406 0.0
N441 N 0.53412 0.21662 0.05923 0.0
C442 C 0.56467 0.21735 0.08453 0.0
C443 C 0.5766 0.18524 0.09208 0.0
C444 C 0.55295 0.16342 0.0705 0.0
C445 C 0.52805 0.18333 0.05106 0.0
N446 N 0.47081 0.22205 1.00208 0.0
C447 C 0.47214 0.18813 1.00096 0.0
C448 C 0.445 0.17253 0.97599 0.0
C449 C 0.42486 0.19797 0.96049 0.0
C450 C 0.44087 0.22778 0.97715 0.0
N451 N 0.53014 0.25455 0.98012 0.0
C452 C 0.57306 0.25435 0.90915 0.0
C453 C 0.5587 0.22459 0.92157 0.0
C454 C 0.53732 0.22527 0.95652 0.0
C455 C 0.56421 0.28436 0.9315 0.0
C456 C 0.54279 0.28391 0.96628 0.0
N457 N 0.47992 0.25422 0.0911 0.0
C458 C 0.45042 0.22418 0.14471 0.0
C459 C 0.43953 0.25419 0.16516 0.0
C460 C 0.45038 0.28422 0.14877 0.0
C461 C 0.4706 0.28366 0.1125 0.0
C462 C 0.4703 0.22475 0.10815 0.0
H463 H 0.47769 0.30747 0.10172 0.0
H464 H 0.47704 0.20097 0.09368 0.0
H465 H 0.52755 0.20169 0.9646 0.0
H466 H 0.53765 0.30761 0.9824 0.0
C467 C 0.51073 0.33695 0.04725 0.0
C468 C 0.42653 0.26079 0.96827 0.0
C469 C 0.58357 0.24761 0.10169 0.0
C470 C 0.49907 0.17159 0.02408 0.0
H471 H 0.4105 0.33029 0.95836 0.0
H472 H 0.45661 0.37225 1.00065 0.0
H473 H 0.56905 0.36255 0.10285 0.0
H474 H 0.6089 0.31328 0.1318 0.0
H475 H 0.60017 0.17834 0.11083 0.0
H476 H 0.554 0.13626 0.06864 0.0
H477 H 0.44031 0.14583 0.97001 0.0
H478 H 0.40097 0.19488 0.93947 0.0
H479 H 0.56446 0.20069 0.90496 0.0
H480 H 0.57492 0.30808 0.92374 0.0
H481 H 0.44308 0.20015 0.15628 0.0
H482 H 0.44227 0.30822 0.1625 0.0
C483 C 0.73284 0.56539 0.09621 0.0
C484 C 0.7022 0.58159 0.09511 0.0
C485 C 0.68146 0.56621 0.05972 0.0
C486 C 0.70045 0.54153 0.04105 0.0
N487 N 0.73182 0.54004 0.06264 0.0
Co488 Co 0.76718 0.50816 0.04423 0.0
N489 N 0.73425 0.47865 1.00397 0.0
C490 C 0.7024 0.48715 0.98996 0.0
C491 C 0.68502 0.46244 0.96271 0.0
C492 C 0.70737 0.43683 0.95858 0.0
C493 C 0.73748 0.44741 0.98323 0.0
N494 N 0.80258 0.47628 0.02585 0.0
C495 C 0.80035 0.44529 1.00314 0.0
C496 C 0.832 0.4333 0.99632 0.0
C497 C 0.85467 0.45736 0.01497 0.0
C498 C 0.83581 0.48279 0.03202 0.0
N499 N 0.80015 0.53767 0.08432 0.0
C500 C 0.83368 0.53672 0.0838 0.0
C501 C 0.85059 0.55981 0.11439 0.0
C502 C 0.82623 0.57675 0.13532 0.0
C503 C 0.79561 0.56316 0.11617 0.0
N504 N 0.76081 0.48154 0.09686 0.0
C505 C 0.75103 0.44171 0.1704 0.0
C506 C 0.78347 0.45039 0.16129 0.0
C507 C 0.7878 0.47043 0.12453 0.0
C508 C 0.72366 0.45409 0.14258 0.0
C509 C 0.72907 0.47382 0.10607 0.0
N510 N 0.77325 0.53508 0.99127 0.0
C511 C 0.77416 0.58913 0.9583 0.0
C512 C 0.77643 0.57384 0.91459 0.0
C513 C 0.77828 0.53884 0.91012 0.0
C514 C 0.7764 0.51991 0.94879 0.0
C515 C 0.77291 0.56939 0.99613 0.0
H516 H 0.77688 0.49298 0.94395 0.0
H517 H 0.77106 0.58206 0.02915 0.0
H518 H 0.813 0.47635 0.11797 0.0
H519 H 0.70745 0.48234 0.0849 0.0
C520 C 0.6887 0.51682 1.0073 0.0
C521 C 0.763 0.57725 0.12648 0.0
C522 C 0.76901 0.42806 0.98291 0.0
C523 C 0.84841 0.51135 0.05813 0.0
H524 H 0.69571 0.60273 0.11708 0.0
H525 H 0.65543 0.57195 0.04943 0.0
H526 H 0.65896 0.46268 0.94835 0.0
H527 H 0.7021 0.41321 0.93915 0.0
H528 H 0.83809 0.40993 0.97872 0.0
H529 H 0.88175 0.45623 0.01641 0.0
H530 H 0.87747 0.56345 0.12137 0.0
H531 H 0.8305 0.59717 0.16125 0.0
H532 H 0.80539 0.44069 0.18118 0.0
H533 H 0.69816 0.44795 0.14836 0.0
H534 H 0.77319 0.61622 0.96317 0.0
H535 H 0.78019 0.52618 0.87681 0.0
C536 C 0.16594 0.2614 0.36852 0.0
C537 C 0.19499 0.28073 0.38412 0.0
C538 C 0.13775 0.26132 0.3931 0.0
C539 C 0.13685 0.28081 0.43444 0.0
H540 H 0.16489 0.24567 0.33702 0.0
H541 H 0.11625 0.24601 0.37922 0.0
S542 S 0.20592 0.33586 0.49122 0.0
N543 N 0.22087 0.31987 0.44438 0.0
N544 N 0.1677 0.32003 0.49027 0.0
C545 C 0.16547 0.30058 0.45047 0.0
C546 C 0.19449 0.30042 0.42553 0.0
C547 C 0.75283 0.16092 0.36349 0.0
C548 C 0.73442 0.18922 0.37689 0.0
C549 C 0.75302 0.13124 0.38712 0.0
C550 C 0.73474 0.12858 0.42508 0.0
H551 H 0.76811 0.16187 0.33523 0.0
H552 H 0.76864 0.11071 0.37666 0.0
S553 S 0.67911 0.19359 0.47082 0.0
N554 N 0.69527 0.21153 0.42854 0.0
N555 N 0.69514 0.15552 0.47241 0.0
C556 C 0.71495 0.15604 0.43758 0.0
C557 C 0.71492 0.18639 0.41367 0.0
C558 C 0.8689 0.76104 0.36543 0.0
C559 C 0.86587 0.77331 0.32071 0.0
C560 C 0.90012 0.7589 0.39191 0.0
C561 C 0.92993 0.76854 0.37486 0.0
H562 H 0.84688 0.75315 0.38056 0.0
H563 H 0.90099 0.74952 0.42614 0.0
S564 S 0.93676 0.80276 0.26087 0.0
N565 N 0.8961 0.79581 0.26114 0.0
N566 N 0.95485 0.79126 0.3111 0.0
C567 C 0.92759 0.78105 0.3306 0.0
C568 C 0.89562 0.7835 0.30349 0.0
C569 C 0.29701 0.82626 0.39132 0.0
C570 C 0.30617 0.82874 0.34657 0.0
C571 C 0.29278 0.85523 0.41934 0.0
C572 C 0.29809 0.88726 0.40347 0.0
H573 H 0.291 0.80203 0.40356 0.0
H574 H 0.28471 0.85266 0.45318 0.0
S575 S 0.32483 0.90669 0.29033 0.0
N576 N 0.32221 0.8653 0.28867 0.0
N577 N 0.31471 0.91973 0.34153 0.0
C578 C 0.30891 0.88987 0.35975 0.0
C579 C 0.31289 0.86054 0.33122 0.0
C580 C 0.19975 0.7412 0.60344 0.0
C581 C 0.19942 0.74322 0.65173 0.0
C582 C 0.16971 0.74281 0.5734 0.0
C583 C 0.13837 0.74628 0.59062 0.0
H584 H 0.22341 0.7398 0.5888 0.0
H585 H 0.17105 0.74206 0.53655 0.0
S586 S 0.12314 0.74906 0.71342 0.0
N587 N 0.16435 0.74639 0.71474 0.0
N588 N 0.10851 0.74908 0.65837 0.0
C589 C 0.13758 0.74678 0.63848 0.0
C590 C 0.16791 0.74535 0.66897 0.0
C591 C 0.27468 0.21213 0.64342 0.0
C592 C 0.28336 0.21544 0.69134 0.0
C593 C 0.27263 0.18026 0.62034 0.0
C594 C 0.27946 0.15101 0.64457 0.0
H595 H 0.26773 0.23399 0.62417 0.0
H596 H 0.2653 0.17842 0.5835 0.0
S597 S 0.30489 0.14688 0.77003 0.0
N598 N 0.30046 0.18731 0.76179 0.0
N599 N 0.29604 0.12761 0.71874 0.0
C600 C 0.28926 0.15428 0.69221 0.0
C601 C 0.29142 0.1865 0.71549 0.0
C602 C 0.85017 0.2627 0.71209 0.0
C603 C 0.81998 0.27951 0.69857 0.0
C604 C 0.87732 0.26237 0.68546 0.0
C605 C 0.87587 0.27912 0.64417 0.0
H606 H 0.85289 0.24918 0.74344 0.0
H607 H 0.89985 0.2491 0.69764 0.0
S608 S 0.80293 0.32656 0.59229 0.0
N609 N 0.79047 0.31315 0.64021 0.0
N610 N 0.84158 0.3127 0.59048 0.0
C611 C 0.84605 0.29623 0.63017 0.0
C612 C 0.81816 0.29635 0.65717 0.0
C613 C 0.76278 0.80983 0.6283 0.0
C614 C 0.7499 0.80213 0.66925 0.0
C615 C 0.76049 0.84254 0.6127 0.0
C616 C 0.74503 0.86831 0.63747 0.0
H617 H 0.77654 0.79113 0.60991 0.0
H618 H 0.77174 0.848 0.58184 0.0
S619 S 0.70562 0.85989 0.74522 0.0
N620 N 0.71991 0.82201 0.73306 0.0
N621 N 0.71514 0.88331 0.70347 0.0
C622 C 0.73052 0.86031 0.6771 0.0
C623 C 0.73313 0.82722 0.6931 0.0
C624 C 0.8818 0.71904 0.67117 0.0
C625 C 0.88193 0.7401 0.71158 0.0
C626 C 0.90649 0.72167 0.64107 0.0
C627 C 0.93279 0.74534 0.64983 0.0
H628 H 0.8618 0.70083 0.66175 0.0
H629 H 0.90458 0.70537 0.61001 0.0
S630 S 0.94641 0.8053 0.75178 0.0
N631 N 0.91192 0.78457 0.75968 0.0
N632 N 0.9585 0.78933 0.703 0.0
C633 C 0.93433 0.76557 0.69106 0.0
C634 C 0.90892 0.763 0.72188 0.0
C635 C 0.26606 0.89784 0.71554 0.0
C636 C 0.27587 0.86568 0.69942 0.0
C637 C 0.26746 0.92641 0.68873 0.0
C638 C 0.27858 0.92423 0.64443 0.0
H639 H 0.25705 0.90102 0.74908 0.0
H640 H 0.25943 0.95041 0.70261 0.0
S641 S 0.30661 0.84667 0.58498 0.0
N642 N 0.29713 0.83418 0.63498 0.0
N643 N 0.29924 0.88737 0.58566 0.0
C644 C 0.28855 0.89251 0.628 0.0
C645 C 0.28729 0.8635 0.65507 0.0
C646 C 0.12686 0.27443 0.74142 0.0
C647 C 0.15728 0.27912 0.72246 0.0
C648 C 0.09573 0.27544 0.71391 0.0
C649 C 0.09404 0.281 0.66657 0.0
H650 H 0.12706 0.27029 0.77777 0.0
H651 H 0.07284 0.27165 0.72959 0.0
S652 S 0.16567 0.29256 0.59911 0.0
N653 N 0.18316 0.28817 0.65225 0.0
N654 N 0.12481 0.28996 0.60149 0.0
C655 C 0.12401 0.28532 0.64711 0.0
C656 C 0.15557 0.28437 0.67478 0.0
C657 C 0.76649 0.12721 0.7535 0.0
C658 C 0.7548 0.15784 0.7355 0.0
C659 C 0.76478 0.09653 0.726 0.0
C660 C 0.7514 0.09487 0.67907 0.0
H661 H 0.77707 0.12686 0.78917 0.0
H662 H 0.7741 0.07387 0.74161 0.0
S663 S 0.71837 0.1674 0.61392 0.0
N664 N 0.72981 0.18378 0.66634 0.0
N665 N 0.72698 0.12706 0.61594 0.0
C666 C 0.73986 0.12523 0.66071 0.0
C667 C 0.74145 0.15629 0.68844 0.0
C668 C 0.85493 0.28062 0.39209 0.0
C669 C 0.85314 0.26902 0.34531 0.0
C670 C 0.88557 0.28338 0.42027 0.0
C671 C 0.91587 0.27481 0.40303 0.0
H672 H 0.83235 0.28719 0.40763 0.0
H673 H 0.88551 0.29171 0.45616 0.0
S674 S 0.92622 0.24513 0.28314 0.0
N675 N 0.88528 0.25011 0.28294 0.0
N676 N 0.94293 0.2558 0.33615 0.0
C677 C 0.9149 0.26409 0.35629 0.0
C678 C 0.88357 0.26103 0.32742 0.0
C679 C 0.73964 0.84283 0.42069 0.0
C680 C 0.7455 0.84472 0.374 0.0
C681 C 0.73879 0.87204 0.45075 0.0
C682 C 0.74359 0.90458 0.43557 0.0
H683 H 0.73639 0.81852 0.43452 0.0
H684 H 0.73486 0.86908 0.48639 0.0
S685 S 0.75727 0.92447 0.31656 0.0
N686 N 0.75451 0.88307 0.31427 0.0
N687 N 0.75258 0.93693 0.37022 0.0
C688 C 0.74845 0.90694 0.38894 0.0
C689 C 0.74952 0.87742 0.35846 0.0
C690 C 0.1795 0.74229 0.31803 0.0
C691 C 0.18052 0.76656 0.28478 0.0
C692 C 0.15335 0.74104 0.34599 0.0
C693 C 0.12679 0.76403 0.34234 0.0
H694 H 0.19953 0.72425 0.32332 0.0
H695 H 0.15459 0.72242 0.37178 0.0
S696 S 0.11576 0.83119 0.25876 0.0
N697 N 0.15149 0.81328 0.24837 0.0
N698 N 0.102 0.81076 0.3008 0.0
C699 C 0.12678 0.78789 0.30834 0.0
C700 C 0.15356 0.7891 0.27953 0.0
C701 C 0.26209 0.12791 0.33366 0.0
C702 C 0.26713 0.16118 0.35239 0.0
C703 C 0.26538 0.09991 0.36187 0.0
C704 C 0.27355 0.10385 0.41017 0.0
H705 H 0.25576 0.12339 0.29687 0.0
H706 H 0.26129 0.07492 0.3458 0.0
S707 S 0.2874 0.185 0.47751 0.0
N708 N 0.2798 0.19577 0.42361 0.0
N709 N 0.28535 0.1436 0.47543 0.0
C710 C 0.27828 0.13678 0.42932 0.0
C711 C 0.27521 0.16519 0.40087 0.0
C712 C 0.72016 0.78088 0.88645 0.0
C713 C 0.71908 0.76137 0.84461 0.0
C714 C 0.69114 0.78571 0.90934 0.0
C715 C 0.66011 0.77091 0.89148 0.0
H716 H 0.74356 0.79234 0.90177 0.0
H717 H 0.69312 0.80055 0.94167 0.0
S718 S 0.64272 0.71949 0.78203 0.0
N719 N 0.68312 0.72851 0.78554 0.0
N720 N 0.62955 0.73764 0.82867 0.0
C721 C 0.65853 0.75201 0.84947 0.0
C722 C 0.68771 0.74723 0.82606 0.0
C723 C 0.27343 0.67258 0.8432 0.0
C724 C 0.25595 0.70266 0.85195 0.0
C725 C 0.27262 0.64478 0.87117 0.0
C726 C 0.25394 0.64508 0.90935 0.0
H727 H 0.28824 0.67038 0.81438 0.0
H728 H 0.28647 0.62253 0.86223 0.0
S729 S 0.2043 0.71754 0.94905 0.0
N730 N 0.21984 0.73087 0.90313 0.0
N731 N 0.21806 0.67883 0.9551 0.0
C732 C 0.23634 0.67495 0.91875 0.0
C733 C 0.23746 0.70353 0.89043 0.0
C734 C 0.36177 0.27704 0.86648 0.0
C735 C 0.3308 0.26882 0.8822 0.0
C736 C 0.39237 0.27434 0.8944 0.0
C737 C 0.39345 0.26348 0.9394 0.0
H738 H 0.36256 0.28561 0.83207 0.0
H739 H 0.41544 0.28082 0.88067 0.0
S740 S 0.3204 0.23909 0.99814 0.0
N741 N 0.30369 0.24925 0.94654 0.0
N742 N 0.36134 0.24455 0.99894 0.0
C743 C 0.36298 0.25513 0.95583 0.0
C744 C 0.33168 0.2577 0.92731 0.0
C745 C 0.76261 0.36545 0.87628 0.0
C746 C 0.77235 0.33411 0.89398 0.0
C747 C 0.76192 0.39523 0.9048 0.0
C748 C 0.77042 0.39552 0.95295 0.0
H749 H 0.75524 0.36712 0.83971 0.0
H750 H 0.75443 0.41837 0.88891 0.0
S751 S 0.79835 0.32117 0.01782 0.0
N752 N 0.79153 0.30606 0.96381 0.0
N753 N 0.7897 0.36165 0.01697 0.0
C754 C 0.7807 0.36466 0.97123 0.0
C755 C 0.78173 0.33422 0.94207 0.0
C756 C 0.67733 0.2436 0.14309 0.0
C757 C 0.67759 0.24243 0.19125 0.0
C758 C 0.64688 0.24486 0.11403 0.0
C759 C 0.61577 0.24474 0.13216 0.0
H760 H 0.70075 0.24485 0.12794 0.0
H761 H 0.64763 0.24656 0.0773 0.0
S762 S 0.60223 0.23894 0.25465 0.0
N763 N 0.64345 0.23905 0.25493 0.0
N764 N 0.5868 0.2414 0.2002 0.0
C765 C 0.61561 0.24233 0.17971 0.0
C766 C 0.64636 0.24117 0.20927 0.0
C767 C 0.75084 0.64064 0.22895 0.0
C768 C 0.76074 0.67188 0.21362 0.0
C769 C 0.75142 0.61031 0.20101 0.0
C770 C 0.76193 0.60969 0.15638 0.0
H771 H 0.74264 0.63951 0.26292 0.0
H772 H 0.74372 0.58711 0.21456 0.0
S773 S 0.78884 0.68384 0.09804 0.0
N774 N 0.78049 0.69942 0.14896 0.0
N775 N 0.78127 0.64313 0.09772 0.0
C776 C 0.77138 0.64057 0.14041 0.0
C777 C 0.77091 0.67131 0.16857 0.0
C778 C 0.37423 0.77312 0.1694 0.0
C779 C 0.3429 0.78627 0.15236 0.0
C780 C 0.40232 0.77447 0.14485 0.0
C781 C 0.40072 0.78917 0.10199 0.0
H782 H 0.37721 0.7612 0.20202 0.0
H783 H 0.42559 0.76376 0.15967 0.0
S784 S 0.32522 0.82784 0.04166 0.0
N785 N 0.31232 0.81507 0.08966 0.0
N786 N 0.36524 0.8176 0.04356 0.0
C787 C 0.36987 0.8031 0.08475 0.0
C788 C 0.341 0.80161 0.1098 0.0
C789 C 0.26337 0.352 0.20551 0.0
C790 C 0.24416 0.3226 0.19206 0.0
C791 C 0.26325 0.37983 0.17765 0.0
C792 C 0.24376 0.38036 0.13443 0.0
H793 H 0.27917 0.35365 0.23809 0.0
H794 H 0.2791 0.40113 0.19021 0.0
S795 S 0.188 0.31032 0.08252 0.0
N796 N 0.20478 0.29601 0.13182 0.0
N797 N 0.20387 0.34838 0.08 0.0
C798 C 0.22433 0.35111 0.12026 0.0
C799 C 0.22463 0.32244 0.14878 0.0
C800 C 0.36125 0.23233 0.22078 0.0
C801 C 0.36123 0.25583 0.25865 0.0
C802 C 0.38706 0.23145 0.19209 0.0
C803 C 0.41445 0.25393 0.19973 0.0
H804 H 0.34048 0.21488 0.21204 0.0
H805 H 0.38471 0.21375 0.16248 0.0
S806 S 0.42891 0.31804 0.29704 0.0
N807 N 0.39248 0.3007 0.30415 0.0
N808 N 0.44154 0.2986 0.25073 0.0
C809 C 0.41575 0.27658 0.23875 0.0
C810 C 0.38918 0.27754 0.26812 0.0
C811 C 0.72198 0.36239 0.21999 0.0
C812 C 0.74083 0.3624 0.2634 0.0
C813 C 0.72417 0.38908 0.19133 0.0
C814 C 0.74568 0.41663 0.20477 0.0
H815 H 0.70674 0.3407 0.20706 0.0
H816 H 0.71037 0.3871 0.15726 0.0
S817 S 0.79831 0.42969 0.31701 0.0
N818 N 0.78006 0.39277 0.32001 0.0
N819 N 0.78422 0.44345 0.26616 0.0
C820 C 0.76344 0.41769 0.2492 0.0
C821 C 0.76097 0.39044 0.27858 0.0
C822 C 0.65758 0.78936 0.19214 0.0
C823 C 0.68849 0.79514 0.17473 0.0
C824 C 0.62701 0.7889 0.16358 0.0
C825 C 0.62601 0.79392 0.1163 0.0
H826 H 0.65696 0.78455 0.22816 0.0
H827 H 0.604 0.78381 0.17836 0.0
S828 S 0.69882 0.81118 0.05305 0.0
N829 N 0.71553 0.80714 0.10672 0.0
N830 N 0.65793 0.80596 0.05322 0.0
C831 C 0.65631 0.8007 0.09847 0.0
C832 C 0.68756 0.80139 0.12759 0.0
C833 C 0.25932 0.66503 0.14553 0.0
C834 C 0.26803 0.66537 0.19361 0.0
C835 C 0.2545 0.63485 0.11915 0.0
C836 C 0.258 0.60415 0.14004 0.0
H837 H 0.25688 0.68824 0.12784 0.0
H838 H 0.2486 0.63549 0.08211 0.0
S839 S 0.27765 0.59079 0.26438 0.0
N840 N 0.27825 0.63203 0.26109 0.0
N841 N 0.26853 0.5751 0.21099 0.0
C842 C 0.26556 0.60385 0.18797 0.0
C843 C 0.27085 0.63458 0.21493 0.0
C844 C 0.40446 0.75668 0.79127 0.0
C845 C 0.3747 0.7685 0.80801 0.0
C846 C 0.43554 0.75844 0.81928 0.0
C847 C 0.43793 0.77183 0.8651 0.0
H848 H 0.40381 0.74606 0.7563 0.0
H849 H 0.45784 0.74922 0.80508 0.0
S850 S 0.36824 0.80528 0.92663 0.0
N851 N 0.35034 0.79376 0.8746 0.0
N852 N 0.4084 0.79651 0.92626 0.0
C853 C 0.40863 0.78354 0.88232 0.0
C854 C 0.37715 0.782 0.85409 0.0
C855 C 0.23295 0.38631 0.86093 0.0
C856 C 0.24841 0.38649 0.81988 0.0
C857 C 0.2303 0.41541 0.88847 0.0
C858 C 0.24227 0.44623 0.87587 0.0
H859 H 0.22392 0.36322 0.87334 0.0
H860 H 0.22004 0.41343 0.92102 0.0
S861 S 0.28122 0.4618 0.76977 0.0
N862 N 0.27364 0.42091 0.76626 0.0
N863 N 0.26756 0.47638 0.81827 0.0
C864 C 0.25577 0.44757 0.83366 0.0
C865 C 0.25909 0.41753 0.8056 0.0
C866 C 0.65332 0.23186 0.85638 0.0
C867 C 0.65523 0.25554 0.82257 0.0
C868 C 0.6261 0.2309 0.88264 0.0
C869 C 0.59949 0.25373 0.87666 0.0
H870 H 0.67355 0.21431 0.86366 0.0
H871 H 0.62666 0.21294 0.90924 0.0
S872 S 0.59044 0.31888 0.79006 0.0
N873 N 0.62676 0.30107 0.78256 0.0
N874 N 0.57548 0.29921 0.83187 0.0
C875 C 0.60027 0.2767 0.84171 0.0
C876 C 0.62803 0.27754 0.81461 0.0
C877 C 0.80608 0.61857 0.81442 0.0
C878 C 0.77931 0.6403 0.80268 0.0
C879 C 0.80432 0.59564 0.84911 0.0
C880 C 0.7762 0.59464 0.87397 0.0
H881 H 0.82892 0.6202 0.79796 0.0
H882 H 0.82574 0.57986 0.85817 0.0
S883 S 0.69963 0.64634 0.85582 0.0
N884 N 0.72373 0.65886 0.81755 0.0
N885 N 0.72074 0.61658 0.88337 0.0
C886 C 0.74905 0.61573 0.86165 0.0
C887 C 0.75057 0.63843 0.82586 0.0
loop_
_geom_bond_atom_site_label_1
_geom_bond_atom_site_label_2
_geom_bond_distance
_geom_bond_site_symmetry_2
_ccdc_geom_bond_type
C0 O2 1.247 . S
C0 O4 1.258 . S
C1 O8 1.247 . S
C1 O9 1.258 . S
O2 C0 1.247 . S
O2 Zn3 2.028 . S
Zn3 O2 2.028 . S
Zn3 O7 2.035 . S
Zn3 O9 2.035 . S
Zn3 O10 2.028 . S
O4 C0 1.258 . S
O4 Zn5 2.035 . S
Zn5 O4 2.035 . S
Zn5 O6 2.028 . S
Zn5 O8 2.028 . S
Zn5 O11 2.035 . S
O6 Zn5 2.028 . S
O6 C12 1.247 . S
O7 Zn3 2.035 . S
O7 C12 1.258 . S
O8 C1 1.247 . S
O8 Zn5 2.028 . S
O9 C1 1.258 . S
O9 Zn3 2.035 . S
O10 Zn3 2.028 . S
O10 C13 1.247 . S
O11 Zn5 2.035 . S
O11 C13 1.258 . S
C12 O6 1.247 . S
C12 O7 1.258 . S
C13 O10 1.247 . S
C13 O11 1.258 . S
C14 O16 1.247 . S
C14 O18 1.258 . S
C15 O22 1.247 . S
C15 O23 1.258 . S
O16 C14 1.247 . S
O16 Zn17 2.028 . S
Zn17 O16 2.028 . S
Zn17 O21 2.035 . S
Zn17 O23 2.035 . S
Zn17 O24 2.028 . S
O18 C14 1.258 . S
O18 Zn19 2.035 . S
Zn19 O18 2.035 . S
Zn19 O20 2.028 . S
Zn19 O22 2.028 . S
Zn19 O25 2.035 . S
O20 Zn19 2.028 . S
O20 C26 1.247 . S
O21 Zn17 2.035 . S
O21 C26 1.258 . S
O22 C15 1.247 . S
O22 Zn19 2.028 . S
O23 C15 1.258 . S
O23 Zn17 2.035 . S
O24 Zn17 2.028 . S
O24 C27 1.247 . S
O25 Zn19 2.035 . S
O25 C27 1.258 . S
C26 O20 1.247 . S
C26 O21 1.258 . S
C27 O24 1.247 . S
C27 O25 1.258 . S
C28 O30 1.247 . S
C28 O32 1.258 . S
C29 O36 1.247 . S
C29 O37 1.258 . S
O30 C28 1.247 . S
O30 Zn31 2.028 . S
Zn31 O30 2.028 . S
Zn31 O35 2.035 . S
Zn31 O37 2.035 . S
Zn31 O38 2.028 . S
O32 C28 1.258 . S
O32 Zn33 2.035 . S
Zn33 O32 2.035 . S
Zn33 O34 2.028 . S
Zn33 O36 2.028 . S
Zn33 O39 2.035 . S
O34 Zn33 2.028 . S
O34 C40 1.247 . S
O35 Zn31 2.035 . S
O35 C40 1.258 . S
O36 C29 1.247 . S
O36 Zn33 2.028 . S
O37 C29 1.258 . S
O37 Zn31 2.035 . S
O38 Zn31 2.028 . S
O38 C41 1.247 . S
O39 Zn33 2.035 . S
O39 C41 1.258 . S
C40 O34 1.247 . S
C40 O35 1.258 . S
C41 O38 1.247 . S
C41 O39 1.258 . S
C42 O44 1.247 . S
C42 O46 1.258 . S
C43 O50 1.247 . S
C43 O51 1.258 . S
O44 C42 1.247 . S
O44 Zn45 2.028 . S
Zn45 O44 2.028 . S
Zn45 O49 2.035 . S
Zn45 O51 2.035 . S
Zn45 O52 2.028 . S
O46 C42 1.258 . S
O46 Zn47 2.035 . S
Zn47 O46 2.035 . S
Zn47 O48 2.028 . S
Zn47 O50 2.028 . S
Zn47 O53 2.035 . S
O48 Zn47 2.028 . S
O48 C54 1.247 . S
O49 Zn45 2.035 . S
O49 C54 1.258 . S
O50 C43 1.247 . S
O50 Zn47 2.028 . S
O51 C43 1.258 . S
O51 Zn45 2.035 . S
O52 Zn45 2.028 . S
O52 C55 1.247 . S
O53 Zn47 2.035 . S
O53 C55 1.258 . S
C54 O48 1.247 . S
C54 O49 1.258 . S
C55 O52 1.247 . S
C55 O53 1.258 . S
C56 O58 1.247 . S
C56 O60 1.258 . S
C57 O64 1.247 . S
C57 O65 1.258 . S
O58 C56 1.247 . S
O58 Zn59 2.028 . S
Zn59 O58 2.028 . S
Zn59 O63 2.035 . S
Zn59 O65 2.035 . S
Zn59 O66 2.028 . S
O60 C56 1.258 . S
O60 Zn61 2.035 . S
Zn61 O60 2.035 . S
Zn61 O62 2.028 . S
Zn61 O64 2.028 . S
Zn61 O67 2.035 . S
O62 Zn61 2.028 . S
O62 C68 1.247 . S
O63 Zn59 2.035 . S
O63 C68 1.258 . S
O64 C57 1.247 . S
O64 Zn61 2.028 . S
O65 C57 1.258 . S
O65 Zn59 2.035 . S
O66 Zn59 2.028 . S
O66 C69 1.247 . S
O67 Zn61 2.035 . S
O67 C69 1.258 . S
C68 O62 1.247 . S
C68 O63 1.258 . S
C69 O66 1.247 . S
C69 O67 1.258 . S
C70 O72 1.247 . S
C70 O74 1.258 . S
C71 O78 1.247 . S
C71 O79 1.258 . S
O72 C70 1.247 . S
O72 Zn73 2.028 . S
Zn73 O72 2.028 . S
Zn73 O77 2.035 . S
Zn73 O79 2.035 . S
Zn73 O80 2.028 . S
O74 C70 1.258 . S
O74 Zn75 2.035 . S
Zn75 O74 2.035 . S
Zn75 O76 2.028 . S
Zn75 O78 2.028 . S
Zn75 O81 2.035 . S
O76 Zn75 2.028 . S
O76 C82 1.247 . S
O77 Zn73 2.035 . S
O77 C82 1.258 . S
O78 C71 1.247 . S
O78 Zn75 2.028 . S
O79 C71 1.258 . S
O79 Zn73 2.035 . S
O80 Zn73 2.028 . S
O80 C83 1.247 . S
O81 Zn75 2.035 . S
O81 C83 1.258 . S
C82 O76 1.247 . S
C82 O77 1.258 . S
C83 O80 1.247 . S
C83 O81 1.258 . S
C84 O86 1.247 . S
C84 O88 1.258 . S
C85 O92 1.247 . S
C85 O93 1.258 . S
O86 C84 1.247 . S
O86 Zn87 2.028 . S
Zn87 O86 2.028 . S
Zn87 O91 2.035 . S
Zn87 O93 2.035 . S
Zn87 O94 2.028 . S
O88 C84 1.258 . S
O88 Zn89 2.035 . S
Zn89 O88 2.035 . S
Zn89 O90 2.028 . S
Zn89 O92 2.028 . S
Zn89 O95 2.035 . S
O90 Zn89 2.028 . S
O90 C96 1.247 . S
O91 Zn87 2.035 . S
O91 C96 1.258 . S
O92 C85 1.247 . S
O92 Zn89 2.028 . S
O93 C85 1.258 . S
O93 Zn87 2.035 . S
O94 Zn87 2.028 . S
O94 C97 1.247 . S
O95 Zn89 2.035 . S
O95 C97 1.258 . S
C96 O90 1.247 . S
C96 O91 1.258 . S
C97 O94 1.247 . S
C97 O95 1.258 . S
C98 O100 1.247 . S
C98 O102 1.258 . S
C99 O106 1.247 . S
C99 O107 1.258 . S
O100 C98 1.247 . S
O100 Zn101 2.028 . S
Zn101 O100 2.028 . S
Zn101 O105 2.035 . S
Zn101 O107 2.035 . S
Zn101 O108 2.028 . S
O102 C98 1.258 . S
O102 Zn103 2.035 . S
Zn103 O102 2.035 . S
Zn103 O104 2.028 . S
Zn103 O106 2.028 . S
Zn103 O109 2.035 . S
O104 Zn103 2.028 . S
O104 C110 1.247 . S
O105 Zn101 2.035 . S
O105 C110 1.258 . S
O106 C99 1.247 . S
O106 Zn103 2.028 . S
O107 C99 1.258 . S
O107 Zn101 2.035 . S
O108 Zn101 2.028 . S
O108 C111 1.247 . S
O109 Zn103 2.035 . S
O109 C111 1.258 . S
C110 O104 1.247 . S
C110 O105 1.258 . S
C111 O108 1.247 . S
C111 O109 1.258 . S
C112 C113 1.443 . S
C112 N116 1.376 . S
C112 C150 1.389 . S
C113 C112 1.443 . S
C113 C114 1.340 . S
C113 H153 0.951 . S
C114 C113 1.340 . S
C114 C115 1.439 . S
C114 H154 0.950 . S
C115 C114 1.439 . S
C115 N116 1.374 . S
C115 C149 1.395 . S
N116 C112 1.376 . S
N116 C115 1.374 . S
N116 Co117 2.008 . S
Co117 N116 2.008 . S
Co117 N118 1.995 1_455 S
Co117 N123 2.008 1_455 S
Co117 N128 1.995 . S
Co117 N133 2.282 1_455 S
Co117 N139 2.282 . S
N118 Co117 1.995 1_655 S
N118 C119 1.376 . S
N118 C122 1.383 . S
C119 N118 1.376 . S
C119 C120 1.446 . S
C119 C149 1.391 1_655 S
C120 C119 1.446 . S
C120 C121 1.339 . S
C120 H155 0.949 . S
C121 C120 1.339 . S
C121 C122 1.439 . S
C121 H156 0.950 . S
C122 N118 1.383 . S
C122 C121 1.439 . S
C122 C151 1.392 . S
N123 Co117 2.008 1_655 S
N123 C124 1.376 . S
N123 C127 1.374 . S
C124 N123 1.376 . S
C124 C125 1.443 . S
C124 C151 1.389 . S
C125 C124 1.443 . S
C125 C126 1.340 . S
C125 H157 0.951 . S
C126 C125 1.340 . S
C126 C127 1.439 . S
C126 H158 0.950 . S
C127 N123 1.374 . S
C127 C126 1.439 . S
C127 C152 1.375 1_655 S
N128 Co117 1.995 . S
N128 C129 1.376 . S
N128 C132 1.383 . S
C129 N128 1.376 . S
C129 C130 1.446 . S
C129 C152 1.413 . S
C130 C129 1.446 . S
C130 C131 1.339 . S
C130 H159 0.949 . S
C131 C130 1.339 . S
C131 C132 1.439 . S
C131 H160 0.950 . S
C132 N128 1.383 . S
C132 C131 1.439 . S
C132 C150 1.392 . S
N133 Co117 2.282 1_655 S
N133 C136 1.332 . S
N133 C138 1.332 . S
C134 C135 1.386 . S
C134 C137 1.388 . S
C135 C134 1.386 . S
C135 C136 1.382 . S
C135 H161 0.950 . S
C136 N133 1.332 . S
C136 C135 1.382 . S
C136 H147 0.952 . S
C137 C134 1.388 . S
C137 C138 1.382 . S
C137 H162 0.950 . S
C138 N133 1.332 . S
C138 C137 1.382 . S
C138 H148 0.948 . S
N139 Co117 2.282 . S
N139 C143 1.332 . S
N139 C144 1.332 . S
C140 C141 1.388 . S
C140 C144 1.382 . S
C140 H163 0.950 . S
C141 C140 1.388 . S
C141 C142 1.386 . S
C142 C141 1.386 . S
C142 C143 1.382 . S
C142 H164 0.950 . S
C143 N139 1.332 . S
C143 C142 1.382 . S
C143 H145 0.952 . S
C144 N139 1.332 . S
C144 C140 1.382 . S
C144 H146 0.948 . S
H145 C143 0.952 . S
H146 C144 0.948 . S
H147 C136 0.952 . S
H148 C138 0.948 . S
C149 C115 1.395 . S
C149 C119 1.391 1_455 S
C150 C112 1.389 . S
C150 C132 1.392 . S
C151 C122 1.392 . S
C151 C124 1.389 . S
C152 C127 1.375 1_455 S
C152 C129 1.413 . S
H153 C113 0.951 . S
H154 C114 0.950 . S
H155 C120 0.949 . S
H156 C121 0.950 . S
H157 C125 0.951 . S
H158 C126 0.950 . S
H159 C130 0.949 . S
H160 C131 0.950 . S
H161 C135 0.950 . S
H162 C137 0.950 . S
H163 C140 0.950 . S
H164 C142 0.950 . S
C165 C166 1.443 . S
C165 N169 1.376 . S
C165 C203 1.389 . S
C166 C165 1.443 . S
C166 C167 1.340 . S
C166 H206 0.951 . S
C167 C166 1.340 . S
C167 C168 1.439 . S
C167 H207 0.950 . S
C168 C167 1.439 . S
C168 N169 1.374 . S
C168 C202 1.395 . S
N169 C165 1.376 . S
N169 C168 1.374 . S
N169 Co170 2.008 . S
Co170 N169 2.008 . S
Co170 N171 1.995 1_545 S
Co170 N176 2.008 1_545 S
Co170 N181 1.995 . S
Co170 N186 2.282 1_545 S
Co170 N192 2.282 . S
N171 Co170 1.995 1_565 S
N171 C172 1.376 . S
N171 C175 1.383 . S
C172 N171 1.376 . S
C172 C173 1.446 . S
C172 C202 1.391 1_565 S
C173 C172 1.446 . S
C173 C174 1.339 . S
C173 H208 0.949 . S
C174 C173 1.339 . S
C174 C175 1.439 . S
C174 H209 0.950 . S
C175 N171 1.383 . S
C175 C174 1.439 . S
C175 C204 1.392 . S
N176 Co170 2.008 1_565 S
N176 C177 1.376 . S
N176 C180 1.374 . S
C177 N176 1.376 . S
C177 C178 1.443 . S
C177 C204 1.389 . S
C178 C177 1.443 . S
C178 C179 1.340 . S
C178 H210 0.951 . S
C179 C178 1.340 . S
C179 C180 1.439 . S
C179 H211 0.950 . S
C180 N176 1.374 . S
C180 C179 1.439 . S
C180 C205 1.395 . S
N181 Co170 1.995 . S
N181 C182 1.376 . S
N181 C185 1.383 . S
C182 N181 1.376 . S
C182 C183 1.446 . S
C182 C205 1.391 1_545 S
C183 C182 1.446 . S
C183 C184 1.339 . S
C183 H212 0.949 . S
C184 C183 1.339 . S
C184 C185 1.439 . S
C184 H213 0.950 . S
C185 N181 1.383 . S
C185 C184 1.439 . S
C185 C203 1.392 . S
N186 Co170 2.282 1_565 S
N186 C189 1.332 . S
N186 C191 1.332 . S
C187 C188 1.386 . S
C187 C190 1.388 . S
C188 C187 1.386 . S
C188 C189 1.382 . S
C188 H214 0.950 . S
C189 N186 1.332 . S
C189 C188 1.382 . S
C189 H200 0.952 . S
C190 C187 1.388 . S
C190 C191 1.382 . S
C190 H215 0.950 . S
C191 N186 1.332 . S
C191 C190 1.382 . S
C191 H201 0.948 . S
N192 Co170 2.282 . S
N192 C196 1.332 . S
N192 C197 1.332 . S
C193 C194 1.388 . S
C193 C197 1.382 . S
C193 H216 0.950 . S
C194 C193 1.388 . S
C194 C195 1.386 . S
C195 C194 1.386 . S
C195 C196 1.382 . S
C195 H217 0.950 . S
C196 N192 1.332 . S
C196 C195 1.382 . S
C196 H198 0.952 . S
C197 N192 1.332 . S
C197 C193 1.382 . S
C197 H199 0.948 . S
H198 C196 0.952 . S
H199 C197 0.948 . S
H200 C189 0.952 . S
H201 C191 0.948 . S
C202 C168 1.395 . S
C202 C172 1.391 1_545 S
C203 C165 1.389 . S
C203 C185 1.392 . S
C204 C175 1.392 . S
C204 C177 1.389 . S
C205 C180 1.395 . S
C205 C182 1.391 1_565 S
H206 C166 0.951 . S
H207 C167 0.950 . S
H208 C173 0.949 . S
H209 C174 0.950 . S
H210 C178 0.951 . S
H211 C179 0.950 . S
H212 C183 0.949 . S
H213 C184 0.950 . S
H214 C188 0.950 . S
H215 C190 0.950 . S
H216 C193 0.950 . S
H217 C195 0.950 . S
C218 C219 1.443 . S
C218 N222 1.376 . S
C218 C256 1.389 . S
C219 C218 1.443 . S
C219 C220 1.340 . S
C219 H259 0.951 . S
C220 C219 1.340 . S
C220 C221 1.439 . S
C220 H260 0.950 . S
C221 C220 1.439 . S
C221 N222 1.374 . S
C221 C255 1.395 . S
N222 C218 1.376 . S
N222 C221 1.374 . S
N222 Co223 2.008 . S
Co223 N222 2.008 . S
Co223 N224 1.995 1_455 S
Co223 N229 2.008 1_455 S
Co223 N234 1.995 . S
Co223 N239 2.282 1_455 S
Co223 N245 2.282 . S
N224 Co223 1.995 1_655 S
N224 C225 1.376 . S
N224 C228 1.383 . S
C225 N224 1.376 . S
C225 C226 1.446 . S
C225 C255 1.391 1_655 S
C226 C225 1.446 . S
C226 C227 1.339 . S
C226 H261 0.949 . S
C227 C226 1.339 . S
C227 C228 1.439 . S
C227 H262 0.950 . S
C228 N224 1.383 . S
C228 C227 1.439 . S
C228 C257 1.392 . S
N229 Co223 2.008 1_655 S
N229 C230 1.376 . S
N229 C233 1.374 . S
C230 N229 1.376 . S
C230 C231 1.443 . S
C230 C257 1.389 . S
C231 C230 1.443 . S
C231 C232 1.340 . S
C231 H263 0.951 . S
C232 C231 1.340 . S
C232 C233 1.439 . S
C232 H264 0.950 . S
C233 N229 1.374 . S
C233 C232 1.439 . S
C233 C258 1.395 . S
N234 Co223 1.995 . S
N234 C235 1.376 . S
N234 C238 1.383 . S
C235 N234 1.376 . S
C235 C236 1.446 . S
C235 C258 1.391 1_455 S
C236 C235 1.446 . S
C236 C237 1.339 . S
C236 H265 0.949 . S
C237 C236 1.339 . S
C237 C238 1.439 . S
C237 H266 0.950 . S
C238 N234 1.383 . S
C238 C237 1.439 . S
C238 C256 1.392 . S
N239 Co223 2.282 1_655 S
N239 C242 1.332 . S
N239 C244 1.332 . S
C240 C241 1.386 . S
C240 C243 1.388 . S
C241 C240 1.386 . S
C241 C242 1.382 . S
C241 H267 0.950 . S
C242 N239 1.332 . S
C242 C241 1.382 . S
C242 H253 0.952 . S
C243 C240 1.388 . S
C243 C244 1.382 . S
C243 H268 0.950 . S
C244 N239 1.332 . S
C244 C243 1.382 . S
C244 H254 0.948 . S
N245 Co223 2.282 . S
N245 C249 1.332 . S
N245 C250 1.332 . S
C246 C247 1.388 . S
C246 C250 1.382 . S
C246 H269 0.950 . S
C247 C246 1.388 . S
C247 C248 1.386 . S
C248 C247 1.386 . S
C248 C249 1.382 . S
C248 H270 0.950 . S
C249 N245 1.332 . S
C249 C248 1.382 . S
C249 H251 0.952 . S
C250 N245 1.332 . S
C250 C246 1.382 . S
C250 H252 0.948 . S
H251 C249 0.952 . S
H252 C250 0.948 . S
H253 C242 0.952 . S
H254 C244 0.948 . S
C255 C221 1.395 . S
C255 C225 1.391 1_455 S
C256 C218 1.389 . S
C256 C238 1.392 . S
C257 C228 1.392 . S
C257 C230 1.389 . S
C258 C233 1.395 . S
C258 C235 1.391 1_655 S
H259 C219 0.951 . S
H260 C220 0.950 . S
H261 C226 0.949 . S
H262 C227 0.950 . S
H263 C231 0.951 . S
H264 C232 0.950 . S
H265 C236 0.949 . S
H266 C237 0.950 . S
H267 C241 0.950 . S
H268 C243 0.950 . S
H269 C246 0.950 . S
H270 C248 0.950 . S
C271 C272 1.443 . S
C271 N275 1.376 . S
C271 C309 1.389 . S
C272 C271 1.443 . S
C272 C273 1.340 . S
C272 H312 0.951 . S
C273 C272 1.340 . S
C273 C274 1.439 . S
C273 H313 0.950 . S
C274 C273 1.439 . S
C274 N275 1.374 . S
C274 C308 1.395 . S
N275 C271 1.376 . S
N275 C274 1.374 . S
N275 Co276 2.008 1_565 S
Co276 N275 2.008 1_545 S
Co276 N277 1.995 . S
Co276 N282 2.008 . S
Co276 N287 1.995 1_545 S
Co276 N292 2.282 . S
Co276 N298 2.282 1_545 S
N277 Co276 1.995 . S
N277 C278 1.376 . S
N277 C281 1.383 . S
C278 N277 1.376 . S
C278 C279 1.446 . S
C278 C308 1.391 1_545 S
C279 C278 1.446 . S
C279 C280 1.339 . S
C279 H314 0.949 . S
C280 C279 1.339 . S
C280 C281 1.439 . S
C280 H315 0.950 . S
C281 N277 1.383 . S
C281 C280 1.439 . S
C281 C310 1.392 . S
N282 Co276 2.008 . S
N282 C283 1.376 . S
N282 C286 1.374 . S
C283 N282 1.376 . S
C283 C284 1.443 . S
C283 C310 1.389 . S
C284 C283 1.443 . S
C284 C285 1.340 . S
C284 H316 0.951 . S
C285 C284 1.340 . S
C285 C286 1.439 . S
C285 H317 0.950 . S
C286 N282 1.374 . S
C286 C285 1.439 . S
C286 C311 1.395 . S
N287 Co276 1.995 1_565 S
N287 C288 1.376 . S
N287 C291 1.383 . S
C288 N287 1.376 . S
C288 C289 1.446 . S
C288 C311 1.391 1_565 S
C289 C288 1.446 . S
C289 C290 1.339 . S
C289 H318 0.949 . S
C290 C289 1.339 . S
C290 C291 1.439 . S
C290 H319 0.950 . S
C291 N287 1.383 . S
C291 C290 1.439 . S
C291 C309 1.392 . S
N292 Co276 2.282 . S
N292 C295 1.332 . S
N292 C297 1.332 . S
C293 C294 1.386 . S
C293 C296 1.388 . S
C294 C293 1.386 . S
C294 C295 1.382 . S
C294 H320 0.950 . S
C295 N292 1.332 . S
C295 C294 1.382 . S
C295 H306 0.952 . S
C296 C293 1.388 . S
C296 C297 1.382 . S
C296 H321 0.950 . S
C297 N292 1.332 . S
C297 C296 1.382 . S
C297 H307 0.948 . S
N298 Co276 2.282 1_565 S
N298 C302 1.332 . S
N298 C303 1.332 . S
C299 C300 1.388 . S
C299 C303 1.382 . S
C299 H322 0.950 . S
C300 C299 1.388 . S
C300 C301 1.386 . S
C301 C300 1.386 . S
C301 C302 1.382 . S
C301 H323 0.950 . S
C302 N298 1.332 . S
C302 C301 1.382 . S
C302 H304 0.952 . S
C303 N298 1.332 . S
C303 C299 1.382 . S
C303 H305 0.948 . S
H304 C302 0.952 . S
H305 C303 0.948 . S
H306 C295 0.952 . S
H307 C297 0.948 . S
C308 C274 1.395 . S
C308 C278 1.391 1_565 S
C309 C271 1.389 . S
C309 C291 1.392 . S
C310 C281 1.392 . S
C310 C283 1.389 . S
C311 C286 1.395 . S
C311 C288 1.391 1_545 S
H312 C272 0.951 . S
H313 C273 0.950 . S
H314 C279 0.949 . S
H315 C280 0.950 . S
H316 C284 0.951 . S
H317 C285 0.950 . S
H318 C289 0.949 . S
H319 C290 0.950 . S
H320 C294 0.950 . S
H321 C296 0.950 . S
H322 C299 0.950 . S
H323 C301 0.950 . S
C324 C325 1.443 . S
C324 N328 1.376 . S
C324 C362 1.389 . S
C325 C324 1.443 . S
C325 C326 1.340 . S
C325 H365 0.951 . S
C326 C325 1.340 . S
C326 C327 1.439 . S
C326 H366 0.950 . S
C327 C326 1.439 . S
C327 N328 1.374 . S
C327 C361 1.395 . S
N328 C324 1.376 . S
N328 C327 1.374 . S
N328 Co329 2.008 . S
Co329 N328 2.008 . S
Co329 N330 1.995 1_554 S
Co329 N335 2.008 1_554 S
Co329 N340 1.995 . S
Co329 N345 2.282 . S
Co329 N351 2.282 1_554 S
N330 Co329 1.995 1_556 S
N330 C331 1.376 . S
N330 C334 1.383 . S
C331 N330 1.376 . S
C331 C332 1.446 . S
C331 C361 1.391 1_556 S
C332 C331 1.446 . S
C332 C333 1.339 . S
C332 H367 0.949 . S
C333 C332 1.339 . S
C333 C334 1.439 . S
C333 H368 0.950 . S
C334 N330 1.383 . S
C334 C333 1.439 . S
C334 C363 1.392 . S
N335 Co329 2.008 1_556 S
N335 C336 1.376 . S
N335 C339 1.374 . S
C336 N335 1.376 . S
C336 C337 1.443 . S
C336 C363 1.389 . S
C337 C336 1.443 . S
C337 C338 1.340 . S
C337 H369 0.951 . S
C338 C337 1.340 . S
C338 C339 1.439 . S
C338 H370 0.950 . S
C339 N335 1.374 . S
C339 C338 1.439 . S
C339 C364 1.395 . S
N340 Co329 1.995 . S
N340 C341 1.376 . S
N340 C344 1.383 . S
C341 N340 1.376 . S
C341 C342 1.446 . S
C341 C364 1.391 1_554 S
C342 C341 1.446 . S
C342 C343 1.339 . S
C342 H371 0.949 . S
C343 C342 1.339 . S
C343 C344 1.439 . S
C343 H372 0.950 . S
C344 N340 1.383 . S
C344 C343 1.439 . S
C344 C362 1.392 . S
N345 Co329 2.282 . S
N345 C348 1.332 . S
N345 C350 1.332 . S
C346 C347 1.386 . S
C346 C349 1.388 . S
C347 C346 1.386 . S
C347 C348 1.382 . S
C347 H373 0.950 . S
C348 N345 1.332 . S
C348 C347 1.382 . S
C348 H359 0.952 . S
C349 C346 1.388 . S
C349 C350 1.382 . S
C349 H374 0.950 . S
C350 N345 1.332 . S
C350 C349 1.382 . S
C350 H360 0.948 . S
N351 Co329 2.282 1_556 S
N351 C355 1.332 . S
N351 C356 1.332 . S
C352 C353 1.388 . S
C352 C356 1.382 . S
C352 H375 0.950 . S
C353 C352 1.388 . S
C353 C354 1.386 . S
C354 C353 1.386 . S
C354 C355 1.382 . S
C354 H376 0.950 . S
C355 N351 1.332 . S
C355 C354 1.382 . S
C355 H357 0.952 . S
C356 N351 1.332 . S
C356 C352 1.382 . S
C356 H358 0.948 . S
H357 C355 0.952 . S
H358 C356 0.948 . S
H359 C348 0.952 . S
H360 C350 0.948 . S
C361 C327 1.395 . S
C361 C331 1.391 1_554 S
C362 C324 1.389 . S
C362 C344 1.392 . S
C363 C334 1.392 . S
C363 C336 1.389 . S
C364 C339 1.395 . S
C364 C341 1.391 1_556 S
H365 C325 0.951 . S
H366 C326 0.950 . S
H367 C332 0.949 . S
H368 C333 0.950 . S
H369 C337 0.951 . S
H370 C338 0.950 . S
H371 C342 0.949 . S
H372 C343 0.950 . S
H373 C347 0.950 . S
H374 C349 0.950 . S
H375 C352 0.950 . S
H376 C354 0.950 . S
C377 C378 1.443 . S
C377 N381 1.376 . S
C377 C415 1.389 . S
C378 C377 1.443 . S
C378 C379 1.340 . S
C378 H418 0.951 . S
C379 C378 1.340 . S
C379 C380 1.439 . S
C379 H419 0.950 . S
C380 C379 1.439 . S
C380 N381 1.374 . S
C380 C414 1.395 1_554 S
N381 C377 1.376 . S
N381 C380 1.374 . S
N381 Co382 2.008 . S
Co382 N381 2.008 . S
Co382 N383 1.995 1_554 S
Co382 N388 2.008 1_554 S
Co382 N393 1.995 . S
Co382 N398 2.282 . S
Co382 N404 2.282 1_554 S
N383 Co382 1.995 1_556 S
N383 C384 1.376 . S
N383 C387 1.383 . S
C384 N383 1.376 . S
C384 C385 1.446 . S
C384 C414 1.391 . S
C385 C384 1.446 . S
C385 C386 1.339 . S
C385 H420 0.949 . S
C386 C385 1.339 . S
C386 C387 1.439 . S
C386 H421 0.950 . S
C387 N383 1.383 . S
C387 C386 1.439 . S
C387 C416 1.392 . S
N388 Co382 2.008 1_556 S
N388 C389 1.376 . S
N388 C392 1.374 1_556 S
C389 N388 1.376 . S
C389 C390 1.443 . S
C389 C416 1.389 . S
C390 C389 1.443 . S
C390 C391 1.340 . S
C390 H422 0.951 . S
C391 C390 1.340 . S
C391 C392 1.439 1_556 S
C391 H423 0.950 . S
C392 N388 1.374 1_554 S
C392 C391 1.439 1_554 S
C392 C417 1.395 . S
N393 Co382 1.995 . S
N393 C394 1.376 . S
N393 C397 1.383 . S
C394 N393 1.376 . S
C394 C395 1.446 . S
C394 C417 1.391 . S
C395 C394 1.446 . S
C395 C396 1.339 . S
C395 H424 0.949 . S
C396 C395 1.339 . S
C396 C397 1.439 . S
C396 H425 0.950 . S
C397 N393 1.383 . S
C397 C396 1.439 . S
C397 C415 1.392 . S
N398 Co382 2.282 . S
N398 C401 1.332 . S
N398 C403 1.332 . S
C399 C400 1.386 . S
C399 C402 1.388 . S
C400 C399 1.386 . S
C400 C401 1.382 . S
C400 H426 0.950 . S
C401 N398 1.332 . S
C401 C400 1.382 . S
C401 H412 0.952 . S
C402 C399 1.388 . S
C402 C403 1.382 . S
C402 H427 0.950 . S
C403 N398 1.332 . S
C403 C402 1.382 . S
C403 H413 0.948 . S
N404 Co382 2.282 1_556 S
N404 C408 1.332 . S
N404 C409 1.332 . S
C405 C406 1.388 . S
C405 C409 1.382 . S
C405 H428 0.950 . S
C406 C405 1.388 . S
C406 C407 1.386 . S
C407 C406 1.386 . S
C407 C408 1.382 . S
C407 H429 0.950 . S
C408 N404 1.332 . S
C408 C407 1.382 . S
C408 H410 0.952 . S
C409 N404 1.332 . S
C409 C405 1.382 . S
C409 H411 0.948 . S
H410 C408 0.952 . S
H411 C409 0.948 . S
H412 C401 0.952 . S
H413 C403 0.948 . S
C414 C380 1.395 1_556 S
C414 C384 1.391 . S
C415 C377 1.389 . S
C415 C397 1.392 . S
C416 C387 1.392 . S
C416 C389 1.389 . S
C417 C392 1.395 . S
C417 C394 1.391 . S
H418 C378 0.951 . S
H419 C379 0.950 . S
H420 C385 0.949 . S
H421 C386 0.950 . S
H422 C390 0.951 . S
H423 C391 0.950 . S
H424 C395 0.949 . S
H425 C396 0.950 . S
H426 C400 0.950 . S
H427 C402 0.950 . S
H428 C405 0.950 . S
H429 C407 0.950 . S
C430 C431 1.443 . S
C430 N434 1.376 1_556 S
C430 C468 1.389 . S
C431 C430 1.443 . S
C431 C432 1.340 . S
C431 H471 0.951 . S
C432 C431 1.340 . S
C432 C433 1.439 1_556 S
C432 H472 0.950 . S
C433 C432 1.439 1_554 S
C433 N434 1.374 . S
C433 C467 1.395 . S
N434 C430 1.376 1_554 S
N434 C433 1.374 . S
N434 Co435 2.008 . S
Co435 N434 2.008 . S
Co435 N436 1.995 . S
Co435 N441 2.008 . S
Co435 N446 1.995 1_554 S
Co435 N451 2.282 1_554 S
Co435 N457 2.282 . S
N436 Co435 1.995 . S
N436 C437 1.376 . S
N436 C440 1.383 . S
C437 N436 1.376 . S
C437 C438 1.446 . S
C437 C467 1.391 . S
C438 C437 1.446 . S
C438 C439 1.339 . S
C438 H473 0.949 . S
C439 C438 1.339 . S
C439 C440 1.439 . S
C439 H474 0.950 . S
C440 N436 1.383 . S
C440 C439 1.439 . S
C440 C469 1.392 . S
N441 Co435 2.008 . S
N441 C442 1.376 . S
N441 C445 1.374 . S
C442 N441 1.376 . S
C442 C443 1.443 . S
C442 C469 1.389 . S
C443 C442 1.443 . S
C443 C444 1.340 . S
C443 H475 0.951 . S
C444 C443 1.340 . S
C444 C445 1.439 . S
C444 H476 0.950 . S
C445 N441 1.374 . S
C445 C444 1.439 . S
C445 C470 1.395 . S
N446 Co435 1.995 1_556 S
N446 C447 1.376 . S
N446 C450 1.383 . S
C447 N446 1.376 . S
C447 C448 1.446 . S
C447 C470 1.391 1_556 S
C448 C447 1.446 . S
C448 C449 1.339 . S
C448 H477 0.949 . S
C449 C448 1.339 . S
C449 C450 1.439 . S
C449 H478 0.950 . S
C450 N446 1.383 . S
C450 C449 1.439 . S
C450 C468 1.392 . S
N451 Co435 2.282 1_556 S
N451 C454 1.332 . S
N451 C456 1.332 . S
C452 C453 1.386 . S
C452 C455 1.388 . S
C453 C452 1.386 . S
C453 C454 1.382 . S
C453 H479 0.950 . S
C454 N451 1.332 . S
C454 C453 1.382 . S
C454 H465 0.952 . S
C455 C452 1.388 . S
C455 C456 1.382 . S
C455 H480 0.950 . S
C456 N451 1.332 . S
C456 C455 1.382 . S
C456 H466 0.948 . S
N457 Co435 2.282 . S
N457 C461 1.332 . S
N457 C462 1.332 . S
C458 C459 1.388 . S
C458 C462 1.382 . S
C458 H481 0.950 . S
C459 C458 1.388 . S
C459 C460 1.386 . S
C460 C459 1.386 . S
C460 C461 1.382 . S
C460 H482 0.950 . S
C461 N457 1.332 . S
C461 C460 1.382 . S
C461 H463 0.952 . S
C462 N457 1.332 . S
C462 C458 1.382 . S
C462 H464 0.948 . S
H463 C461 0.952 . S
H464 C462 0.948 . S
H465 C454 0.952 . S
H466 C456 0.948 . S
C467 C433 1.395 . S
C467 C437 1.391 . S
C468 C430 1.389 . S
C468 C450 1.392 . S
C469 C440 1.392 . S
C469 C442 1.389 . S
C470 C445 1.395 . S
C470 C447 1.391 1_554 S
H471 C431 0.951 . S
H472 C432 0.950 . S
H473 C438 0.949 . S
H474 C439 0.950 . S
H475 C443 0.951 . S
H476 C444 0.950 . S
H477 C448 0.949 . S
H478 C449 0.950 . S
H479 C453 0.950 . S
H480 C455 0.950 . S
H481 C458 0.950 . S
H482 C460 0.950 . S
C483 C484 1.443 . S
C483 N487 1.376 . S
C483 C521 1.389 . S
C484 C483 1.443 . S
C484 C485 1.340 . S
C484 H524 0.951 . S
C485 C484 1.340 . S
C485 C486 1.439 . S
C485 H525 0.950 . S
C486 C485 1.439 . S
C486 N487 1.374 . S
C486 C520 1.395 1_554 S
N487 C483 1.376 . S
N487 C486 1.374 . S
N487 Co488 2.008 . S
Co488 N487 2.008 . S
Co488 N489 1.995 1_554 S
Co488 N494 2.008 1_554 S
Co488 N499 1.995 . S
Co488 N504 2.282 . S
Co488 N510 2.282 1_554 S
N489 Co488 1.995 1_556 S
N489 C490 1.376 . S
N489 C493 1.383 . S
C490 N489 1.376 . S
C490 C491 1.446 . S
C490 C520 1.391 . S
C491 C490 1.446 . S
C491 C492 1.339 . S
C491 H526 0.949 . S
C492 C491 1.339 . S
C492 C493 1.439 . S
C492 H527 0.950 . S
C493 N489 1.383 . S
C493 C492 1.439 . S
C493 C522 1.392 . S
N494 Co488 2.008 1_556 S
N494 C495 1.376 . S
N494 C498 1.374 1_556 S
C495 N494 1.376 . S
C495 C496 1.443 . S
C495 C522 1.389 . S
C496 C495 1.443 . S
C496 C497 1.340 . S
C496 H528 0.951 . S
C497 C496 1.340 . S
C497 C498 1.439 1_556 S
C497 H529 0.950 . S
C498 N494 1.374 1_554 S
C498 C497 1.439 1_554 S
C498 C523 1.395 . S
N499 Co488 1.995 . S
N499 C500 1.376 . S
N499 C503 1.383 . S
C500 N499 1.376 . S
C500 C501 1.446 . S
C500 C523 1.391 . S
C501 C500 1.446 . S
C501 C502 1.339 . S
C501 H530 0.949 . S
C502 C501 1.339 . S
C502 C503 1.439 . S
C502 H531 0.950 . S
C503 N499 1.383 . S
C503 C502 1.439 . S
C503 C521 1.392 . S
N504 Co488 2.282 . S
N504 C507 1.332 . S
N504 C509 1.332 . S
C505 C506 1.386 . S
C505 C508 1.388 . S
C506 C505 1.386 . S
C506 C507 1.382 . S
C506 H532 0.950 . S
C507 N504 1.332 . S
C507 C506 1.382 . S
C507 H518 0.952 . S
C508 C505 1.388 . S
C508 C509 1.382 . S
C508 H533 0.950 . S
C509 N504 1.332 . S
C509 C508 1.382 . S
C509 H519 0.948 . S
N510 Co488 2.282 1_556 S
N510 C514 1.332 . S
N510 C515 1.332 . S
C511 C512 1.388 . S
C511 C515 1.382 . S
C511 H534 0.950 . S
C512 C511 1.388 . S
C512 C513 1.386 . S
C513 C512 1.386 . S
C513 C514 1.382 . S
C513 H535 0.950 . S
C514 N510 1.332 . S
C514 C513 1.382 . S
C514 H516 0.952 . S
C515 N510 1.332 . S
C515 C511 1.382 . S
C515 H517 0.948 . S
H516 C514 0.952 . S
H517 C515 0.948 . S
H518 C507 0.952 . S
H519 C509 0.948 . S
C520 C486 1.395 1_556 S
C520 C490 1.391 . S
C521 C483 1.389 . S
C521 C503 1.392 . S
C522 C493 1.392 . S
C522 C495 1.389 . S
C523 C498 1.395 . S
C523 C500 1.391 . S
H524 C484 0.951 . S
H525 C485 0.950 . S
H526 C491 0.949 . S
H527 C492 0.950 . S
H528 C496 0.951 . S
H529 C497 0.950 . S
H530 C501 0.949 . S
H531 C502 0.950 . S
H532 C506 0.950 . S
H533 C508 0.950 . S
H534 C511 0.950 . S
H535 C513 0.950 . S
C536 C537 1.369 . S
C536 C538 1.419 . S
C536 H540 0.930 . S
C537 C536 1.369 . S
C537 C546 1.429 . S
C538 C536 1.419 . S
C538 C539 1.363 . S
C538 H541 0.929 . S
C539 C538 1.363 . S
C539 C545 1.428 . S
H540 C536 0.930 . S
H541 C538 0.929 . S
S542 N543 1.613 . S
S542 N544 1.610 . S
N543 S542 1.613 . S
N543 C546 1.350 . S
N544 S542 1.610 . S
N544 C545 1.351 . S
C545 C539 1.428 . S
C545 N544 1.351 . S
C545 C546 1.434 . S
C546 C537 1.429 . S
C546 N543 1.350 . S
C546 C545 1.434 . S
C547 C548 1.369 . S
C547 C549 1.419 . S
C547 H551 0.930 . S
C548 C547 1.369 . S
C548 C557 1.429 . S
C549 C547 1.419 . S
C549 C550 1.363 . S
C549 H552 0.929 . S
C550 C549 1.363 . S
C550 C556 1.428 . S
H551 C547 0.930 . S
H552 C549 0.929 . S
S553 N554 1.613 . S
S553 N555 1.610 . S
N554 S553 1.613 . S
N554 C557 1.350 . S
N555 S553 1.610 . S
N555 C556 1.351 . S
C556 C550 1.428 . S
C556 N555 1.351 . S
C556 C557 1.434 . S
C557 C548 1.429 . S
C557 N554 1.350 . S
C557 C556 1.434 . S
C558 C559 1.369 . S
C558 C560 1.419 . S
C558 H562 0.930 . S
C559 C558 1.369 . S
C559 C568 1.429 . S
C560 C558 1.419 . S
C560 C561 1.363 . S
C560 H563 0.929 . S
C561 C560 1.363 . S
C561 C567 1.428 . S
H562 C558 0.930 . S
H563 C560 0.929 . S
S564 N565 1.613 . S
S564 N566 1.610 . S
N565 S564 1.613 . S
N565 C568 1.350 . S
N566 S564 1.610 . S
N566 C567 1.351 . S
C567 C561 1.428 . S
C567 N566 1.351 . S
C567 C568 1.434 . S
C568 C559 1.429 . S
C568 N565 1.350 . S
C568 C567 1.434 . S
C569 C570 1.369 . S
C569 C571 1.419 . S
C569 H573 0.930 . S
C570 C569 1.369 . S
C570 C579 1.429 . S
C571 C569 1.419 . S
C571 C572 1.363 . S
C571 H574 0.929 . S
C572 C571 1.363 . S
C572 C578 1.428 . S
H573 C569 0.930 . S
H574 C571 0.929 . S
S575 N576 1.613 . S
S575 N577 1.610 . S
N576 S575 1.613 . S
N576 C579 1.350 . S
N577 S575 1.610 . S
N577 C578 1.351 . S
C578 C572 1.428 . S
C578 N577 1.351 . S
C578 C579 1.434 . S
C579 C570 1.429 . S
C579 N576 1.350 . S
C579 C578 1.434 . S
C580 C581 1.369 . S
C580 C582 1.419 . S
C580 H584 0.930 . S
C581 C580 1.369 . S
C581 C590 1.429 . S
C582 C580 1.419 . S
C582 C583 1.363 . S
C582 H585 0.929 . S
C583 C582 1.363 . S
C583 C589 1.428 . S
H584 C580 0.930 . S
H585 C582 0.929 . S
S586 N587 1.613 . S
S586 N588 1.610 . S
N587 S586 1.613 . S
N587 C590 1.350 . S
N588 S586 1.610 . S
N588 C589 1.351 . S
C589 C583 1.428 . S
C589 N588 1.351 . S
C589 C590 1.434 . S
C590 C581 1.429 . S
C590 N587 1.350 . S
C590 C589 1.434 . S
C591 C592 1.369 . S
C591 C593 1.419 . S
C591 H595 0.930 . S
C592 C591 1.369 . S
C592 C601 1.429 . S
C593 C591 1.419 . S
C593 C594 1.363 . S
C593 H596 0.929 . S
C594 C593 1.363 . S
C594 C600 1.428 . S
H595 C591 0.930 . S
H596 C593 0.929 . S
S597 N598 1.613 . S
S597 N599 1.610 . S
N598 S597 1.613 . S
N598 C601 1.350 . S
N599 S597 1.610 . S
N599 C600 1.351 . S
C600 C594 1.428 . S
C600 N599 1.351 . S
C600 C601 1.434 . S
C601 C592 1.429 . S
C601 N598 1.350 . S
C601 C600 1.434 . S
C602 C603 1.369 . S
C602 C604 1.419 . S
C602 H606 0.930 . S
C603 C602 1.369 . S
C603 C612 1.429 . S
C604 C602 1.419 . S
C604 C605 1.363 . S
C604 H607 0.929 . S
C605 C604 1.363 . S
C605 C611 1.428 . S
H606 C602 0.930 . S
H607 C604 0.929 . S
S608 N609 1.613 . S
S608 N610 1.610 . S
N609 S608 1.613 . S
N609 C612 1.350 . S
N610 S608 1.610 . S
N610 C611 1.351 . S
C611 C605 1.428 . S
C611 N610 1.351 . S
C611 C612 1.434 . S
C612 C603 1.429 . S
C612 N609 1.350 . S
C612 C611 1.434 . S
C613 C614 1.369 . S
C613 C615 1.419 . S
C613 H617 0.930 . S
C614 C613 1.369 . S
C614 C623 1.429 . S
C615 C613 1.419 . S
C615 C616 1.363 . S
C615 H618 0.929 . S
C616 C615 1.363 . S
C616 C622 1.428 . S
H617 C613 0.930 . S
H618 C615 0.929 . S
S619 N620 1.613 . S
S619 N621 1.610 . S
N620 S619 1.613 . S
N620 C623 1.350 . S
N621 S619 1.610 . S
N621 C622 1.351 . S
C622 C616 1.428 . S
C622 N621 1.351 . S
C622 C623 1.434 . S
C623 C614 1.429 . S
C623 N620 1.350 . S
C623 C622 1.434 . S
C624 C625 1.369 . S
C624 C626 1.419 . S
C624 H628 0.930 . S
C625 C624 1.369 . S
C625 C634 1.429 . S
C626 C624 1.419 . S
C626 C627 1.363 . S
C626 H629 0.929 . S
C627 C626 1.363 . S
C627 C633 1.428 . S
H628 C624 0.930 . S
H629 C626 0.929 . S
S630 N631 1.613 . S
S630 N632 1.610 . S
N631 S630 1.613 . S
N631 C634 1.350 . S
N632 S630 1.610 . S
N632 C633 1.351 . S
C633 C627 1.428 . S
C633 N632 1.351 . S
C633 C634 1.434 . S
C634 C625 1.429 . S
C634 N631 1.350 . S
C634 C633 1.434 . S
C635 C636 1.369 . S
C635 C637 1.419 . S
C635 H639 0.930 . S
C636 C635 1.369 . S
C636 C645 1.429 . S
C637 C635 1.419 . S
C637 C638 1.363 . S
C637 H640 0.929 . S
C638 C637 1.363 . S
C638 C644 1.428 . S
H639 C635 0.930 . S
H640 C637 0.929 . S
S641 N642 1.613 . S
S641 N643 1.610 . S
N642 S641 1.613 . S
N642 C645 1.350 . S
N643 S641 1.610 . S
N643 C644 1.351 . S
C644 C638 1.428 . S
C644 N643 1.351 . S
C644 C645 1.434 . S
C645 C636 1.429 . S
C645 N642 1.350 . S
C645 C644 1.434 . S
C646 C647 1.369 . S
C646 C648 1.419 . S
C646 H650 0.930 . S
C647 C646 1.369 . S
C647 C656 1.429 . S
C648 C646 1.419 . S
C648 C649 1.363 . S
C648 H651 0.929 . S
C649 C648 1.363 . S
C649 C655 1.428 . S
H650 C646 0.930 . S
H651 C648 0.929 . S
S652 N653 1.613 . S
S652 N654 1.610 . S
N653 S652 1.613 . S
N653 C656 1.350 . S
N654 S652 1.610 . S
N654 C655 1.351 . S
C655 C649 1.428 . S
C655 N654 1.351 . S
C655 C656 1.434 . S
C656 C647 1.429 . S
C656 N653 1.350 . S
C656 C655 1.434 . S
C657 C658 1.369 . S
C657 C659 1.419 . S
C657 H661 0.930 . S
C658 C657 1.369 . S
C658 C667 1.429 . S
C659 C657 1.419 . S
C659 C660 1.363 . S
C659 H662 0.929 . S
C660 C659 1.363 . S
C660 C666 1.428 . S
H661 C657 0.930 . S
H662 C659 0.929 . S
S663 N664 1.613 . S
S663 N665 1.610 . S
N664 S663 1.613 . S
N664 C667 1.350 . S
N665 S663 1.610 . S
N665 C666 1.351 . S
C666 C660 1.428 . S
C666 N665 1.351 . S
C666 C667 1.434 . S
C667 C658 1.429 . S
C667 N664 1.350 . S
C667 C666 1.434 . S
C668 C669 1.369 . S
C668 C670 1.419 . S
C668 H672 0.930 . S
C669 C668 1.369 . S
C669 C678 1.429 . S
C670 C668 1.419 . S
C670 C671 1.363 . S
C670 H673 0.929 . S
C671 C670 1.363 . S
C671 C677 1.428 . S
H672 C668 0.930 . S
H673 C670 0.929 . S
S674 N675 1.613 . S
S674 N676 1.610 . S
N675 S674 1.613 . S
N675 C678 1.350 . S
N676 S674 1.610 . S
N676 C677 1.351 . S
C677 C671 1.428 . S
C677 N676 1.351 . S
C677 C678 1.434 . S
C678 C669 1.429 . S
C678 N675 1.350 . S
C678 C677 1.434 . S
C679 C680 1.369 . S
C679 C681 1.419 . S
C679 H683 0.930 . S
C680 C679 1.369 . S
C680 C689 1.429 . S
C681 C679 1.419 . S
C681 C682 1.363 . S
C681 H684 0.929 . S
C682 C681 1.363 . S
C682 C688 1.428 . S
H683 C679 0.930 . S
H684 C681 0.929 . S
S685 N686 1.613 . S
S685 N687 1.610 . S
N686 S685 1.613 . S
N686 C689 1.350 . S
N687 S685 1.610 . S
N687 C688 1.351 . S
C688 C682 1.428 . S
C688 N687 1.351 . S
C688 C689 1.434 . S
C689 C680 1.429 . S
C689 N686 1.350 . S
C689 C688 1.434 . S
C690 C691 1.369 . S
C690 C692 1.419 . S
C690 H694 0.930 . S
C691 C690 1.369 . S
C691 C700 1.429 . S
C692 C690 1.419 . S
C692 C693 1.363 . S
C692 H695 0.929 . S
C693 C692 1.363 . S
C693 C699 1.428 . S
H694 C690 0.930 . S
H695 C692 0.929 . S
S696 N697 1.613 . S
S696 N698 1.610 . S
N697 S696 1.613 . S
N697 C700 1.350 . S
N698 S696 1.610 . S
N698 C699 1.351 . S
C699 C693 1.428 . S
C699 N698 1.351 . S
C699 C700 1.434 . S
C700 C691 1.429 . S
C700 N697 1.350 . S
C700 C699 1.434 . S
C701 C702 1.369 . S
C701 C703 1.419 . S
C701 H705 0.930 . S
C702 C701 1.369 . S
C702 C711 1.429 . S
C703 C701 1.419 . S
C703 C704 1.363 . S
C703 H706 0.929 . S
C704 C703 1.363 . S
C704 C710 1.428 . S
H705 C701 0.930 . S
H706 C703 0.929 . S
S707 N708 1.613 . S
S707 N709 1.610 . S
N708 S707 1.613 . S
N708 C711 1.350 . S
N709 S707 1.610 . S
N709 C710 1.351 . S
C710 C704 1.428 . S
C710 N709 1.351 . S
C710 C711 1.434 . S
C711 C702 1.429 . S
C711 N708 1.350 . S
C711 C710 1.434 . S
C712 C713 1.369 . S
C712 C714 1.419 . S
C712 H716 0.930 . S
C713 C712 1.369 . S
C713 C722 1.429 . S
C714 C712 1.419 . S
C714 C715 1.363 . S
C714 H717 0.929 . S
C715 C714 1.363 . S
C715 C721 1.428 . S
H716 C712 0.930 . S
H717 C714 0.929 . S
S718 N719 1.613 . S
S718 N720 1.610 . S
N719 S718 1.613 . S
N719 C722 1.350 . S
N720 S718 1.610 . S
N720 C721 1.351 . S
C721 C715 1.428 . S
C721 N720 1.351 . S
C721 C722 1.434 . S
C722 C713 1.429 . S
C722 N719 1.350 . S
C722 C721 1.434 . S
C723 C724 1.369 . S
C723 C725 1.419 . S
C723 H727 0.930 . S
C724 C723 1.369 . S
C724 C733 1.429 . S
C725 C723 1.419 . S
C725 C726 1.363 . S
C725 H728 0.929 . S
C726 C725 1.363 . S
C726 C732 1.428 . S
H727 C723 0.930 . S
H728 C725 0.929 . S
S729 N730 1.613 . S
S729 N731 1.610 . S
N730 S729 1.613 . S
N730 C733 1.350 . S
N731 S729 1.610 . S
N731 C732 1.351 . S
C732 C726 1.428 . S
C732 N731 1.351 . S
C732 C733 1.434 . S
C733 C724 1.429 . S
C733 N730 1.350 . S
C733 C732 1.434 . S
C734 C735 1.369 . S
C734 C736 1.419 . S
C734 H738 0.930 . S
C735 C734 1.369 . S
C735 C744 1.429 . S
C736 C734 1.419 . S
C736 C737 1.363 . S
C736 H739 0.929 . S
C737 C736 1.363 . S
C737 C743 1.428 . S
H738 C734 0.930 . S
H739 C736 0.929 . S
S740 N741 1.613 . S
S740 N742 1.610 . S
N741 S740 1.613 . S
N741 C744 1.350 . S
N742 S740 1.610 . S
N742 C743 1.351 . S
C743 C737 1.428 . S
C743 N742 1.351 . S
C743 C744 1.434 . S
C744 C735 1.429 . S
C744 N741 1.350 . S
C744 C743 1.434 . S
C745 C746 1.369 . S
C745 C747 1.419 . S
C745 H749 0.930 . S
C746 C745 1.369 . S
C746 C755 1.429 . S
C747 C745 1.419 . S
C747 C748 1.363 . S
C747 H750 0.929 . S
C748 C747 1.363 . S
C748 C754 1.428 . S
H749 C745 0.930 . S
H750 C747 0.929 . S
S751 N752 1.613 . S
S751 N753 1.610 . S
N752 S751 1.613 . S
N752 C755 1.350 . S
N753 S751 1.610 . S
N753 C754 1.351 . S
C754 C748 1.428 . S
C754 N753 1.351 . S
C754 C755 1.434 . S
C755 C746 1.429 . S
C755 N752 1.350 . S
C755 C754 1.434 . S
C756 C757 1.369 . S
C756 C758 1.419 . S
C756 H760 0.930 . S
C757 C756 1.369 . S
C757 C766 1.429 . S
C758 C756 1.419 . S
C758 C759 1.363 . S
C758 H761 0.929 . S
C759 C758 1.363 . S
C759 C765 1.428 . S
H760 C756 0.930 . S
H761 C758 0.929 . S
S762 N763 1.613 . S
S762 N764 1.610 . S
N763 S762 1.613 . S
N763 C766 1.350 . S
N764 S762 1.610 . S
N764 C765 1.351 . S
C765 C759 1.428 . S
C765 N764 1.351 . S
C765 C766 1.434 . S
C766 C757 1.429 . S
C766 N763 1.350 . S
C766 C765 1.434 . S
C767 C768 1.369 . S
C767 C769 1.419 . S
C767 H771 0.930 . S
C768 C767 1.369 . S
C768 C777 1.429 . S
C769 C767 1.419 . S
C769 C770 1.363 . S
C769 H772 0.929 . S
C770 C769 1.363 . S
C770 C776 1.428 . S
H771 C767 0.930 . S
H772 C769 0.929 . S
S773 N774 1.613 . S
S773 N775 1.610 . S
N774 S773 1.613 . S
N774 C777 1.350 . S
N775 S773 1.610 . S
N775 C776 1.351 . S
C776 C770 1.428 . S
C776 N775 1.351 . S
C776 C777 1.434 . S
C777 C768 1.429 . S
C777 N774 1.350 . S
C777 C776 1.434 . S
C778 C779 1.369 . S
C778 C780 1.419 . S
C778 H782 0.930 . S
C779 C778 1.369 . S
C779 C788 1.429 . S
C780 C778 1.419 . S
C780 C781 1.363 . S
C780 H783 0.929 . S
C781 C780 1.363 . S
C781 C787 1.428 . S
H782 C778 0.930 . S
H783 C780 0.929 . S
S784 N785 1.613 . S
S784 N786 1.610 . S
N785 S784 1.613 . S
N785 C788 1.350 . S
N786 S784 1.610 . S
N786 C787 1.351 . S
C787 C781 1.428 . S
C787 N786 1.351 . S
C787 C788 1.434 . S
C788 C779 1.429 . S
C788 N785 1.350 . S
C788 C787 1.434 . S
C789 C790 1.369 . S
C789 C791 1.419 . S
C789 H793 0.930 . S
C790 C789 1.369 . S
C790 C799 1.429 . S
C791 C789 1.419 . S
C791 C792 1.363 . S
C791 H794 0.929 . S
C792 C791 1.363 . S
C792 C798 1.428 . S
H793 C789 0.930 . S
H794 C791 0.929 . S
S795 N796 1.613 . S
S795 N797 1.610 . S
N796 S795 1.613 . S
N796 C799 1.350 . S
N797 S795 1.610 . S
N797 C798 1.351 . S
C798 C792 1.428 . S
C798 N797 1.351 . S
C798 C799 1.434 . S
C799 C790 1.429 . S
C799 N796 1.350 . S
C799 C798 1.434 . S
C800 C801 1.369 . S
C800 C802 1.419 . S
C800 H804 0.930 . S
C801 C800 1.369 . S
C801 C810 1.429 . S
C802 C800 1.419 . S
C802 C803 1.363 . S
C802 H805 0.929 . S
C803 C802 1.363 . S
C803 C809 1.428 . S
H804 C800 0.930 . S
H805 C802 0.929 . S
S806 N807 1.613 . S
S806 N808 1.610 . S
N807 S806 1.613 . S
N807 C810 1.350 . S
N808 S806 1.610 . S
N808 C809 1.351 . S
C809 C803 1.428 . S
C809 N808 1.351 . S
C809 C810 1.434 . S
C810 C801 1.429 . S
C810 N807 1.350 . S
C810 C809 1.434 . S
C811 C812 1.369 . S
C811 C813 1.419 . S
C811 H815 0.930 . S
C812 C811 1.369 . S
C812 C821 1.429 . S
C813 C811 1.419 . S
C813 C814 1.363 . S
C813 H816 0.929 . S
C814 C813 1.363 . S
C814 C820 1.428 . S
H815 C811 0.930 . S
H816 C813 0.929 . S
S817 N818 1.613 . S
S817 N819 1.610 . S
N818 S817 1.613 . S
N818 C821 1.350 . S
N819 S817 1.610 . S
N819 C820 1.351 . S
C820 C814 1.428 . S
C820 N819 1.351 . S
C820 C821 1.434 . S
C821 C812 1.429 . S
C821 N818 1.350 . S
C821 C820 1.434 . S
C822 C823 1.369 . S
C822 C824 1.419 . S
C822 H826 0.930 . S
C823 C822 1.369 . S
C823 C832 1.429 . S
C824 C822 1.419 . S
C824 C825 1.363 . S
C824 H827 0.929 . S
C825 C824 1.363 . S
C825 C831 1.428 . S
H826 C822 0.930 . S
H827 C824 0.929 . S
S828 N829 1.613 . S
S828 N830 1.610 . S
N829 S828 1.613 . S
N829 C832 1.350 . S
N830 S828 1.610 . S
N830 C831 1.351 . S
C831 C825 1.428 . S
C831 N830 1.351 . S
C831 C832 1.434 . S
C832 C823 1.429 . S
C832 N829 1.350 . S
C832 C831 1.434 . S
C833 C834 1.369 . S
C833 C835 1.419 . S
C833 H837 0.930 . S
C834 C833 1.369 . S
C834 C843 1.429 . S
C835 C833 1.419 . S
C835 C836 1.363 . S
C835 H838 0.929 . S
C836 C835 1.363 . S
C836 C842 1.428 . S
H837 C833 0.930 . S
H838 C835 0.929 . S
S839 N840 1.613 . S
S839 N841 1.610 . S
N840 S839 1.613 . S
N840 C843 1.350 . S
N841 S839 1.610 . S
N841 C842 1.351 . S
C842 C836 1.428 . S
C842 N841 1.351 . S
C842 C843 1.434 . S
C843 C834 1.429 . S
C843 N840 1.350 . S
C843 C842 1.434 . S
C844 C845 1.369 . S
C844 C846 1.419 . S
C844 H848 0.930 . S
C845 C844 1.369 . S
C845 C854 1.429 . S
C846 C844 1.419 . S
C846 C847 1.363 . S
C846 H849 0.929 . S
C847 C846 1.363 . S
C847 C853 1.428 . S
H848 C844 0.930 . S
H849 C846 0.929 . S
S850 N851 1.613 . S
S850 N852 1.610 . S
N851 S850 1.613 . S
N851 C854 1.350 . S
N852 S850 1.610 . S
N852 C853 1.351 . S
C853 C847 1.428 . S
C853 N852 1.351 . S
C853 C854 1.434 . S
C854 C845 1.429 . S
C854 N851 1.350 . S
C854 C853 1.434 . S
C855 C856 1.369 . S
C855 C857 1.419 . S
C855 H859 0.930 . S
C856 C855 1.369 . S
C856 C865 1.429 . S
C857 C855 1.419 . S
C857 C858 1.363 . S
C857 H860 0.929 . S
C858 C857 1.363 . S
C858 C864 1.428 . S
H859 C855 0.930 . S
H860 C857 0.929 . S
S861 N862 1.613 . S
S861 N863 1.610 . S
N862 S861 1.613 . S
N862 C865 1.350 . S
N863 S861 1.610 . S
N863 C864 1.351 . S
C864 C858 1.428 . S
C864 N863 1.351 . S
C864 C865 1.434 . S
C865 C856 1.429 . S
C865 N862 1.350 . S
C865 C864 1.434 . S
C866 C867 1.369 . S
C866 C868 1.419 . S
C866 H870 0.930 . S
C867 C866 1.369 . S
C867 C876 1.429 . S
C868 C866 1.419 . S
C868 C869 1.363 . S
C868 H871 0.929 . S
C869 C868 1.363 . S
C869 C875 1.428 . S
H870 C866 0.930 . S
H871 C868 0.929 . S
S872 N873 1.613 . S
S872 N874 1.610 . S
N873 S872 1.613 . S
N873 C876 1.350 . S
N874 S872 1.610 . S
N874 C875 1.351 . S
C875 C869 1.428 . S
C875 N874 1.351 . S
C875 C876 1.434 . S
C876 C867 1.429 . S
C876 N873 1.350 . S
C876 C875 1.434 . S
C877 C878 1.369 . S
C877 C879 1.419 . S
C877 H881 0.930 . S
C878 C877 1.369 . S
C878 C887 1.429 . S
C879 C877 1.419 . S
C879 C880 1.363 . S
C879 H882 0.929 . S
C880 C879 1.363 . S
C880 C886 1.428 . S
H881 C877 0.930 . S
H882 C879 0.929 . S
S883 N884 1.613 . S
S883 N885 1.610 . S
N884 S883 1.613 . S
N884 C887 1.350 . S
N885 S883 1.610 . S
N885 C886 1.351 . S
C886 C880 1.428 . S
C886 N885 1.351 . S
C886 C887 1.434 . S
C887 C878 1.429 . S
C887 N884 1.350 . S
C887 C886 1.434 . S
C539 C141 1.524 . S
C537 C0 1.536 . S
C550 C194 1.351 . S
C548 C26 1.359 . S
C561 C257 1.613 . S
C559 C40 1.614 . S
C572 C300 1.296 . S
C570 C43 1.301 . S
C581 C57 1.612 . S
C583 C256 1.608 . S
C594 C293 1.385 . S
C592 C70 1.388 . S
C605 C134 1.531 . S
C603 C97 1.535 . S
C616 C187 1.264 . S
C614 C111 1.266 . S
C627 C240 1.478 . S
C625 C98 1.481 . S
C638 C309 1.842 . S
C636 C68 1.846 . S
C649 C150 1.585 . S
C647 C83 1.586 . S
C660 C203 1.753 . S
C658 C84 1.759 . S
C671 C151 1.565 . S
C669 C15 1.567 . S
C682 C204 1.844 . S
C680 C29 1.850 . S
C693 C247 1.493 . S
C691 C54 1.497 . S
C704 C310 1.742 . S
C702 C13 1.748 . S
C715 C353 1.481 . S
C713 C99 1.496 . S
C724 C69 1.710 . S
C726 C406 1.705 . S
C735 C82 1.664 . S
C737 C468 1.655 . S
C746 C85 1.710 . S
C748 C522 1.706 . S
C757 C14 1.569 . S
C759 C469 1.568 . S
C768 C28 1.802 . S
C770 C521 1.801 . S
C779 C55 1.574 . S
C781 C346 1.573 . S
C792 C399 1.625 . S
C790 C12 1.632 . S
C803 C459 1.451 . S
C801 C1 1.454 . S
C812 C27 1.406 . S
C814 C505 1.399 . S
C823 C41 1.620 . S
C825 C362 1.623 . S
C834 C42 1.348 . S
C836 C415 1.343 . S
C847 C363 1.529 . S
C845 C56 1.534 . S
C858 C416 1.448 . S
C856 C71 1.455 . S
C867 C96 1.528 . S
C869 C452 1.523 . S
C880 C512 1.315 . S
C878 C110 1.319 . S
