# Generated by pormake.
# Topology gar, (4,6)-cn, num edge types: 1
# Building blocks:
#     Node 0, Type 0, BuildingBlock: NAHDIM_clean_sbu_0, # of connection points: 4
#     Node 1, Type 0, BuildingBlock: NAHDIM_clean_sbu_0, # of connection points: 4
#     Node 2, Type 0, BuildingBlock: NAHDIM_clean_sbu_0, # of connection points: 4
#     Node 3, Type 0, BuildingBlock: NAHDIM_clean_sbu_0, # of connection points: 4
#     Node 4, Type 0, BuildingBlock: NAHDIM_clean_sbu_0, # of connection points: 4
#     Node 5, Type 0, BuildingBlock: NAHDIM_clean_sbu_0, # of connection points: 4
#     Node 6, Type 0, BuildingBlock: NAHDIM_clean_sbu_0, # of connection points: 4
#     Node 7, Type 0, BuildingBlock: NAHDIM_clean_sbu_0, # of connection points: 4
#     Node 8, Type 0, BuildingBlock: NAHDIM_clean_sbu_0, # of connection points: 4
#     Node 9, Type 0, BuildingBlock: NAHDIM_clean_sbu_0, # of connection points: 4
#     Node 10, Type 0, BuildingBlock: NAHDIM_clean_sbu_0, # of connection points: 4
#     Node 11, Type 0, BuildingBlock: NAHDIM_clean_sbu_0, # of connection points: 4
#     Node 12, Type 0, BuildingBlock: NAHDIM_clean_sbu_0, # of connection points: 4
#     Node 13, Type 0, BuildingBlock: NAHDIM_clean_sbu_0, # of connection points: 4
#     Node 14, Type 0, BuildingBlock: NAHDIM_clean_sbu_0, # of connection points: 4
#     Node 15, Type 0, BuildingBlock: NAHDIM_clean_sbu_0, # of connection points: 4
#     Node 16, Type 0, BuildingBlock: NAHDIM_clean_sbu_0, # of connection points: 4
#     Node 17, Type 0, BuildingBlock: NAHDIM_clean_sbu_0, # of connection points: 4
#     Node 18, Type 0, BuildingBlock: NAHDIM_clean_sbu_0, # of connection points: 4
#     Node 19, Type 0, BuildingBlock: NAHDIM_clean_sbu_0, # of connection points: 4
#     Node 20, Type 0, BuildingBlock: NAHDIM_clean_sbu_0, # of connection points: 4
#     Node 21, Type 0, BuildingBlock: NAHDIM_clean_sbu_0, # of connection points: 4
#     Node 22, Type 0, BuildingBlock: NAHDIM_clean_sbu_0, # of connection points: 4
#     Node 23, Type 0, BuildingBlock: NAHDIM_clean_sbu_0, # of connection points: 4
#     Node 24, Type 1, BuildingBlock: KUMBUR_clean_sbu_0, # of connection points: 6
#     Node 25, Type 1, BuildingBlock: KUMBUR_clean_sbu_0, # of connection points: 6
#     Node 26, Type 1, BuildingBlock: KUMBUR_clean_sbu_0, # of connection points: 6
#     Node 27, Type 1, BuildingBlock: KUMBUR_clean_sbu_0, # of connection points: 6
#     Node 28, Type 1, BuildingBlock: KUMBUR_clean_sbu_0, # of connection points: 6
#     Node 29, Type 1, BuildingBlock: KUMBUR_clean_sbu_0, # of connection points: 6
#     Node 30, Type 1, BuildingBlock: KUMBUR_clean_sbu_0, # of connection points: 6
#     Node 31, Type 1, BuildingBlock: KUMBUR_clean_sbu_0, # of connection points: 6
#     Node 32, Type 1, BuildingBlock: KUMBUR_clean_sbu_0, # of connection points: 6
#     Node 33, Type 1, BuildingBlock: KUMBUR_clean_sbu_0, # of connection points: 6
#     Node 34, Type 1, BuildingBlock: KUMBUR_clean_sbu_0, # of connection points: 6
#     Node 35, Type 1, BuildingBlock: KUMBUR_clean_sbu_0, # of connection points: 6
#     Node 36, Type 1, BuildingBlock: KUMBUR_clean_sbu_0, # of connection points: 6
#     Node 37, Type 1, BuildingBlock: KUMBUR_clean_sbu_0, # of connection points: 6
#     Node 38, Type 1, BuildingBlock: KUMBUR_clean_sbu_0, # of connection points: 6
#     Node 39, Type 1, BuildingBlock: KUMBUR_clean_sbu_0, # of connection points: 6
#     Edge 40, Type (0, 1), BuildingBlock: UVAHIK_clean_linker_0, # of connection points: 2
#     Edge 41, Type (0, 1), BuildingBlock: UVAHIK_clean_linker_0, # of connection points: 2
#     Edge 42, Type (0, 1), BuildingBlock: UVAHIK_clean_linker_0, # of connection points: 2
#     Edge 43, Type (0, 1), BuildingBlock: UVAHIK_clean_linker_0, # of connection points: 2
#     Edge 44, Type (0, 1), BuildingBlock: UVAHIK_clean_linker_0, # of connection points: 2
#     Edge 45, Type (0, 1), BuildingBlock: UVAHIK_clean_linker_0, # of connection points: 2
#     Edge 46, Type (0, 1), BuildingBlock: UVAHIK_clean_linker_0, # of connection points: 2
#     Edge 47, Type (0, 1), BuildingBlock: UVAHIK_clean_linker_0, # of connection points: 2
#     Edge 48, Type (0, 1), BuildingBlock: UVAHIK_clean_linker_0, # of connection points: 2
#     Edge 49, Type (0, 1), BuildingBlock: UVAHIK_clean_linker_0, # of connection points: 2
#     Edge 50, Type (0, 1), BuildingBlock: UVAHIK_clean_linker_0, # of connection points: 2
#     Edge 51, Type (0, 1), BuildingBlock: UVAHIK_clean_linker_0, # of connection points: 2
#     Edge 52, Type (0, 1), BuildingBlock: UVAHIK_clean_linker_0, # of connection points: 2
#     Edge 53, Type (0, 1), BuildingBlock: UVAHIK_clean_linker_0, # of connection points: 2
#     Edge 54, Type (0, 1), BuildingBlock: UVAHIK_clean_linker_0, # of connection points: 2
#     Edge 55, Type (0, 1), BuildingBlock: UVAHIK_clean_linker_0, # of connection points: 2
#     Edge 56, Type (0, 1), BuildingBlock: UVAHIK_clean_linker_0, # of connection points: 2
#     Edge 57, Type (0, 1), BuildingBlock: UVAHIK_clean_linker_0, # of connection points: 2
#     Edge 58, Type (0, 1), BuildingBlock: UVAHIK_clean_linker_0, # of connection points: 2
#     Edge 59, Type (0, 1), BuildingBlock: UVAHIK_clean_linker_0, # of connection points: 2
#     Edge 60, Type (0, 1), BuildingBlock: UVAHIK_clean_linker_0, # of connection points: 2
#     Edge 61, Type (0, 1), BuildingBlock: UVAHIK_clean_linker_0, # of connection points: 2
#     Edge 62, Type (0, 1), BuildingBlock: UVAHIK_clean_linker_0, # of connection points: 2
#     Edge 63, Type (0, 1), BuildingBlock: UVAHIK_clean_linker_0, # of connection points: 2
#     Edge 64, Type (0, 1), BuildingBlock: UVAHIK_clean_linker_0, # of connection points: 2
#     Edge 65, Type (0, 1), BuildingBlock: UVAHIK_clean_linker_0, # of connection points: 2
#     Edge 66, Type (0, 1), BuildingBlock: UVAHIK_clean_linker_0, # of connection points: 2
#     Edge 67, Type (0, 1), BuildingBlock: UVAHIK_clean_linker_0, # of connection points: 2
#     Edge 68, Type (0, 1), BuildingBlock: UVAHIK_clean_linker_0, # of connection points: 2
#     Edge 69, Type (0, 1), BuildingBlock: UVAHIK_clean_linker_0, # of connection points: 2
#     Edge 70, Type (0, 1), BuildingBlock: UVAHIK_clean_linker_0, # of connection points: 2
#     Edge 71, Type (0, 1), BuildingBlock: UVAHIK_clean_linker_0, # of connection points: 2
#     Edge 72, Type (0, 1), BuildingBlock: UVAHIK_clean_linker_0, # of connection points: 2
#     Edge 73, Type (0, 1), BuildingBlock: UVAHIK_clean_linker_0, # of connection points: 2
#     Edge 74, Type (0, 1), BuildingBlock: UVAHIK_clean_linker_0, # of connection points: 2
#     Edge 75, Type (0, 1), BuildingBlock: UVAHIK_clean_linker_0, # of connection points: 2
#     Edge 76, Type (0, 1), BuildingBlock: UVAHIK_clean_linker_0, # of connection points: 2
#     Edge 77, Type (0, 1), BuildingBlock: UVAHIK_clean_linker_0, # of connection points: 2
#     Edge 78, Type (0, 1), BuildingBlock: UVAHIK_clean_linker_0, # of connection points: 2
#     Edge 79, Type (0, 1), BuildingBlock: UVAHIK_clean_linker_0, # of connection points: 2
#     Edge 80, Type (0, 1), BuildingBlock: UVAHIK_clean_linker_0, # of connection points: 2
#     Edge 81, Type (0, 1), BuildingBlock: UVAHIK_clean_linker_0, # of connection points: 2
#     Edge 82, Type (0, 1), BuildingBlock: UVAHIK_clean_linker_0, # of connection points: 2
#     Edge 83, Type (0, 1), BuildingBlock: UVAHIK_clean_linker_0, # of connection points: 2
#     Edge 84, Type (0, 1), BuildingBlock: UVAHIK_clean_linker_0, # of connection points: 2
#     Edge 85, Type (0, 1), BuildingBlock: UVAHIK_clean_linker_0, # of connection points: 2
#     Edge 86, Type (0, 1), BuildingBlock: UVAHIK_clean_linker_0, # of connection points: 2
#     Edge 87, Type (0, 1), BuildingBlock: UVAHIK_clean_linker_0, # of connection points: 2
#     Edge 88, Type (0, 1), BuildingBlock: UVAHIK_clean_linker_0, # of connection points: 2
#     Edge 89, Type (0, 1), BuildingBlock: UVAHIK_clean_linker_0, # of connection points: 2
#     Edge 90, Type (0, 1), BuildingBlock: UVAHIK_clean_linker_0, # of connection points: 2
#     Edge 91, Type (0, 1), BuildingBlock: UVAHIK_clean_linker_0, # of connection points: 2
#     Edge 92, Type (0, 1), BuildingBlock: UVAHIK_clean_linker_0, # of connection points: 2
#     Edge 93, Type (0, 1), BuildingBlock: UVAHIK_clean_linker_0, # of connection points: 2
#     Edge 94, Type (0, 1), BuildingBlock: UVAHIK_clean_linker_0, # of connection points: 2
#     Edge 95, Type (0, 1), BuildingBlock: UVAHIK_clean_linker_0, # of connection points: 2
#     Edge 96, Type (0, 1), BuildingBlock: UVAHIK_clean_linker_0, # of connection points: 2
#     Edge 97, Type (0, 1), BuildingBlock: UVAHIK_clean_linker_0, # of connection points: 2
#     Edge 98, Type (0, 1), BuildingBlock: UVAHIK_clean_linker_0, # of connection points: 2
#     Edge 99, Type (0, 1), BuildingBlock: UVAHIK_clean_linker_0, # of connection points: 2
#     Edge 100, Type (0, 1), BuildingBlock: UVAHIK_clean_linker_0, # of connection points: 2
#     Edge 101, Type (0, 1), BuildingBlock: UVAHIK_clean_linker_0, # of connection points: 2
#     Edge 102, Type (0, 1), BuildingBlock: UVAHIK_clean_linker_0, # of connection points: 2
#     Edge 103, Type (0, 1), BuildingBlock: UVAHIK_clean_linker_0, # of connection points: 2
#     Edge 104, Type (0, 1), BuildingBlock: UVAHIK_clean_linker_0, # of connection points: 2
#     Edge 105, Type (0, 1), BuildingBlock: UVAHIK_clean_linker_0, # of connection points: 2
#     Edge 106, Type (0, 1), BuildingBlock: UVAHIK_clean_linker_0, # of connection points: 2
#     Edge 107, Type (0, 1), BuildingBlock: UVAHIK_clean_linker_0, # of connection points: 2
#     Edge 108, Type (0, 1), BuildingBlock: UVAHIK_clean_linker_0, # of connection points: 2
#     Edge 109, Type (0, 1), BuildingBlock: UVAHIK_clean_linker_0, # of connection points: 2
#     Edge 110, Type (0, 1), BuildingBlock: UVAHIK_clean_linker_0, # of connection points: 2
#     Edge 111, Type (0, 1), BuildingBlock: UVAHIK_clean_linker_0, # of connection points: 2
#     Edge 112, Type (0, 1), BuildingBlock: UVAHIK_clean_linker_0, # of connection points: 2
#     Edge 113, Type (0, 1), BuildingBlock: UVAHIK_clean_linker_0, # of connection points: 2
#     Edge 114, Type (0, 1), BuildingBlock: UVAHIK_clean_linker_0, # of connection points: 2
#     Edge 115, Type (0, 1), BuildingBlock: UVAHIK_clean_linker_0, # of connection points: 2
#     Edge 116, Type (0, 1), BuildingBlock: UVAHIK_clean_linker_0, # of connection points: 2
#     Edge 117, Type (0, 1), BuildingBlock: UVAHIK_clean_linker_0, # of connection points: 2
#     Edge 118, Type (0, 1), BuildingBlock: UVAHIK_clean_linker_0, # of connection points: 2
#     Edge 119, Type (0, 1), BuildingBlock: UVAHIK_clean_linker_0, # of connection points: 2
#     Edge 120, Type (0, 1), BuildingBlock: UVAHIK_clean_linker_0, # of connection points: 2
#     Edge 121, Type (0, 1), BuildingBlock: UVAHIK_clean_linker_0, # of connection points: 2
#     Edge 122, Type (0, 1), BuildingBlock: UVAHIK_clean_linker_0, # of connection points: 2
#     Edge 123, Type (0, 1), BuildingBlock: UVAHIK_clean_linker_0, # of connection points: 2
#     Edge 124, Type (0, 1), BuildingBlock: UVAHIK_clean_linker_0, # of connection points: 2
#     Edge 125, Type (0, 1), BuildingBlock: UVAHIK_clean_linker_0, # of connection points: 2
#     Edge 126, Type (0, 1), BuildingBlock: UVAHIK_clean_linker_0, # of connection points: 2
#     Edge 127, Type (0, 1), BuildingBlock: UVAHIK_clean_linker_0, # of connection points: 2
#     Edge 128, Type (0, 1), BuildingBlock: UVAHIK_clean_linker_0, # of connection points: 2
#     Edge 129, Type (0, 1), BuildingBlock: UVAHIK_clean_linker_0, # of connection points: 2
#     Edge 130, Type (0, 1), BuildingBlock: UVAHIK_clean_linker_0, # of connection points: 2
#     Edge 131, Type (0, 1), BuildingBlock: UVAHIK_clean_linker_0, # of connection points: 2
#     Edge 132, Type (0, 1), BuildingBlock: UVAHIK_clean_linker_0, # of connection points: 2
#     Edge 133, Type (0, 1), BuildingBlock: UVAHIK_clean_linker_0, # of connection points: 2
#     Edge 134, Type (0, 1), BuildingBlock: UVAHIK_clean_linker_0, # of connection points: 2
#     Edge 135, Type (0, 1), BuildingBlock: UVAHIK_clean_linker_0, # of connection points: 2
# Relax obj value: 0.125
# Max RMSD: 0.303
# Mean RMSD: 0.174
data_MOF--net-gar--node1-NAHDIM_clean_sbu_0--node2-KUMBUR_clean_sbu_0--edge1-UVAHIK_clean_linker_0
_symmetry_space_group_name_H-M    P1
_symmetry_Int_Tables_number       1
_symmetry_cell_setting            triclinic
loop_
_symmetry_equiv_pos_as_xyz
'x, y, z'
_cell_length_a     77.766052
_cell_length_b     72.004979
_cell_length_c     70.498733
_cell_angle_alpha  100.43806
_cell_angle_beta   93.26658
_cell_angle_gamma 102.70975
loop_
_atom_site_label
_atom_site_type_symbol
_atom_site_fract_x
_atom_site_fract_y
_atom_site_fract_z
_atom_type_partial_charge
C0 C 0.12757 0.31761 0.36625 0.0
O1 O 0.12872 0.32038 0.38527 0.0
O2 O 0.09171 0.28629 0.3861 0.0
Zn3 Zn 0.09284 0.30825 0.37242 0.0
O4 O 0.098 0.33287 0.39157 0.0
C5 C 0.05603 0.29465 0.35779 0.0
O6 O 0.05611 0.27999 0.36648 0.0
O7 O 0.11257 0.31086 0.35651 0.0
C8 C 0.09665 0.34833 0.38612 0.0
O9 O 0.0912 0.34763 0.36796 0.0
C10 C 0.08846 0.28951 0.40366 0.0
O11 O 0.08559 0.30643 0.41137 0.0
O12 O 0.07034 0.30699 0.35749 0.0
C13 C 0.96635 0.75174 0.6749 0.0
O14 O 0.96247 0.74528 0.65619 0.0
O15 O 0.99554 0.73793 0.64616 0.0
Zn16 Zn 1.00019 0.76354 0.66369 0.0
O17 O 0.00106 0.78552 0.65015 0.0
C18 C 0.03431 0.75865 0.66909 0.0
O19 O 0.02996 0.75018 0.65081 0.0
O20 O 0.98187 0.76139 0.68156 0.0
C21 C 0.00466 0.78396 0.63271 0.0
O22 O 0.00722 0.76749 0.62326 0.0
C23 C 0.98631 0.72854 0.63062 0.0
O24 O 0.9759 0.73659 0.6211 0.0
O25 O 0.02363 0.76691 0.67835 0.0
C26 C 0.6273 0.81589 0.86241 0.0
O27 O 0.63145 0.82342 0.88095 0.0
O28 O 0.59367 0.7868 0.89002 0.0
Zn29 Zn 0.59432 0.80778 0.87546 0.0
O30 O 0.60154 0.83353 0.893 0.0
C31 C 0.5597 0.81174 0.87421 0.0
O32 O 0.56478 0.81786 0.89282 0.0
O33 O 0.61146 0.80703 0.85623 0.0
C34 C 0.60348 0.84845 0.88549 0.0
O35 O 0.60083 0.84633 0.86657 0.0
C36 C 0.59361 0.79083 0.90826 0.0
O37 O 0.59447 0.80879 0.91696 0.0
O38 O 0.5704 0.80573 0.86304 0.0
C39 C 0.46798 0.24604 0.17784 0.0
O40 O 0.47254 0.22934 0.174 0.0
O41 O 0.49059 0.23416 0.1396 0.0
Zn42 Zn 0.49692 0.2594 0.15751 0.0
O43 O 0.49962 0.28013 0.1423 0.0
C44 C 0.52559 0.247 0.17481 0.0
O45 O 0.51556 0.2297 0.16733 0.0
O46 O 0.47715 0.26095 0.17297 0.0
C47 C 0.51496 0.28927 0.13989 0.0
O48 O 0.52904 0.28522 0.14778 0.0
C49 C 0.48825 0.23216 0.12136 0.0
O50 O 0.4899 0.24749 0.11338 0.0
O51 O 0.51979 0.26192 0.17354 0.0
C52 C 0.04496 0.81274 0.12895 0.0
O53 O 0.04351 0.81583 0.11119 0.0
O54 O 0.07629 0.78459 0.1019 0.0
Zn55 Zn 0.08074 0.81198 0.11873 0.0
O56 O 0.07853 0.83355 0.10326 0.0
C57 C 0.11743 0.80902 0.12962 0.0
O58 O 0.1152 0.79918 0.1117 0.0
O59 O 0.05986 0.81073 0.13588 0.0
C60 C 0.0868 0.8407 0.09013 0.0
O61 O 0.10041 0.8342 0.08397 0.0
C62 C 0.07918 0.77863 0.08449 0.0
O63 O 0.08573 0.79132 0.074 0.0
O64 O 0.10497 0.81676 0.13588 0.0
C65 C 0.551 0.76087 0.40969 0.0
O66 O 0.54822 0.74578 0.4181 0.0
O67 O 0.5198 0.74435 0.44046 0.0
Zn68 Zn 0.51737 0.76656 0.4254 0.0
O69 O 0.51765 0.79374 0.4414 0.0
C70 C 0.4807 0.7656 0.4124 0.0
O71 O 0.48168 0.77406 0.4307 0.0
O72 O 0.53969 0.77137 0.41042 0.0
C73 C 0.52179 0.80225 0.45908 0.0
O74 O 0.52702 0.7927 0.47166 0.0
C75 C 0.51071 0.73612 0.45248 0.0
O76 O 0.49665 0.7421 0.45796 0.0
O77 O 0.49416 0.7597 0.40635 0.0
C78 C 0.54391 0.31317 0.6286 0.0
O79 O 0.54198 0.3161 0.61083 0.0
O80 O 0.57516 0.28404 0.60189 0.0
Zn81 Zn 0.57961 0.3118 0.61754 0.0
O82 O 0.5769 0.33134 0.59952 0.0
C83 C 0.61596 0.308 0.62946 0.0
O84 O 0.61288 0.29604 0.61257 0.0
O85 O 0.55897 0.31124 0.63513 0.0
C86 C 0.58862 0.34573 0.59664 0.0
O87 O 0.60485 0.34873 0.60481 0.0
C88 C 0.5784 0.27813 0.58461 0.0
O89 O 0.58518 0.29091 0.57429 0.0
O90 O 0.60422 0.31739 0.63465 0.0
C91 C 0.05371 0.2741 0.91673 0.0
O92 O 0.05591 0.2824 0.93518 0.0
O93 O 0.01404 0.24267 0.93896 0.0
Zn94 Zn 0.01623 0.26608 0.92452 0.0
O95 O 0.01967 0.29387 0.94103 0.0
C96 C 0.97777 0.25556 0.90741 0.0
O97 O 0.97447 0.247 0.92219 0.0
O98 O 0.03798 0.26618 0.90883 0.0
C99 C 0.02185 0.30199 0.95894 0.0
O100 O 0.02246 0.2914 0.97219 0.0
C101 C 0.02433 0.24192 0.95349 0.0
O102 O 0.03664 0.25749 0.96142 0.0
O103 O 0.99384 0.26332 0.9054 0.0
C104 C 0.39713 0.08007 0.3139 0.0
O105 O 0.41421 0.08224 0.3182 0.0
O106 O 0.41228 0.04298 0.28034 0.0
Zn107 Zn 0.39844 0.04222 0.3029 0.0
O108 O 0.41363 0.04302 0.32566 0.0
C109 C 0.38053 0.00532 0.28469 0.0
O110 O 0.39011 0.00951 0.27065 0.0
O111 O 0.38744 0.06339 0.30709 0.0
C112 C 0.42085 0.02885 0.32496 0.0
O113 O 0.41791 0.01511 0.3093 0.0
C114 C 0.42893 0.04887 0.28098 0.0
O115 O 0.43843 0.05673 0.29767 0.0
O116 O 0.38068 0.01821 0.29947 0.0
C117 C 0.32871 0.17023 0.499 0.0
O118 O 0.33178 0.1866 0.49264 0.0
O119 O 0.29711 0.19607 0.53106 0.0
Zn120 Zn 0.29457 0.17921 0.50426 0.0
O121 O 0.29916 0.1946 0.48304 0.0
C122 C 0.25663 0.16817 0.5051 0.0
O123 O 0.25965 0.18663 0.51331 0.0
O124 O 0.31354 0.16387 0.50445 0.0
C125 C 0.29114 0.20688 0.47823 0.0
O126 O 0.27787 0.21084 0.48763 0.0
C127 C 0.29943 0.21439 0.53609 0.0
O128 O 0.30075 0.22515 0.52283 0.0
O129 O 0.26967 0.16127 0.49953 0.0
C130 C 0.18245 0.96767 0.77033 0.0
O131 O 0.16802 0.96468 0.77928 0.0
O132 O 0.15519 0.00679 0.73847 0.0
Zn133 Zn 0.17054 0.00698 0.76601 0.0
O134 O 0.155 0.00538 0.79119 0.0
C135 C 0.18357 0.04999 0.76502 0.0
O136 O 0.16747 0.04638 0.75629 0.0
O137 O 0.18612 0.98353 0.7635 0.0
C138 C 0.1438 0.01541 0.79723 0.0
O139 O 0.14039 0.02791 0.78694 0.0
C140 C 0.13853 0.00247 0.73234 0.0
O141 O 0.12714 0.99525 0.7437 0.0
O142 O 0.18838 0.03586 0.7711 0.0
C143 C 0.28386 0.95339 0.00801 0.0
O144 O 0.28341 0.93528 1.00009 0.0
O145 O 0.31264 0.93454 0.03748 0.0
Zn146 Zn 0.31788 0.95238 0.01936 0.0
O147 O 0.3203 0.93757 0.99356 0.0
C148 C 0.34883 0.97086 0.04485 0.0
O149 O 0.34186 0.95881 0.05575 0.0
O150 O 0.29809 0.96426 0.0171 0.0
C151 C 0.33413 0.93205 0.98882 0.0
O152 O 0.34851 0.93731 1.00109 0.0
C153 C 0.3145 0.91726 0.03387 0.0
O154 O 0.3182 0.90981 0.01663 0.0
O155 O 0.34006 0.9718 0.02946 0.0
C156 C 0.26703 0.40052 0.03109 0.0
O157 O 0.26359 0.38228 0.02209 0.0
O158 O 0.30213 0.37969 0.05658 0.0
Zn159 Zn 0.30211 0.39423 0.03482 0.0
O160 O 0.29696 0.37538 0.00902 0.0
C161 C 0.34018 0.40975 0.04429 0.0
O162 O 0.3385 0.39456 0.05253 0.0
O163 O 0.2829 0.40914 0.0377 0.0
C164 C 0.30963 0.36884 0.00206 0.0
O165 O 0.32522 0.37381 0.01216 0.0
C166 C 0.28907 0.36663 0.0592 0.0
O167 O 0.27471 0.36163 0.04698 0.0
O168 O 0.32639 0.41289 0.03599 0.0
C169 C 0.81551 0.12669 0.02002 0.0
O170 O 0.81728 0.14486 0.01824 0.0
O171 O 0.78762 0.15202 0.04922 0.0
Zn172 Zn 0.78307 0.13265 0.02463 0.0
O173 O 0.7829 0.14514 0.00198 0.0
C174 C 0.74783 0.1245 0.03088 0.0
O175 O 0.75322 0.14015 0.04449 0.0
O176 O 0.80061 0.11709 0.0231 0.0
C177 C 0.77221 0.15591 1.00047 0.0
O178 O 0.76245 0.15995 0.01452 0.0
C179 C 0.79227 0.1703 0.05082 0.0
O180 O 0.79735 0.17773 0.03579 0.0
O181 O 0.75904 0.11667 0.02222 0.0
C182 C 0.19119 0.49017 0.22228 0.0
O183 O 0.17424 0.48798 0.22438 0.0
O184 O 0.17121 0.53037 0.22124 0.0
Zn185 Zn 0.19155 0.52864 0.23786 0.0
O186 O 0.184 0.52615 0.26362 0.0
C187 C 0.21043 0.56132 0.22639 0.0
O188 O 0.20169 0.55231 0.20956 0.0
O189 O 0.20129 0.50702 0.22629 0.0
C190 C 0.17787 0.54053 0.27066 0.0
O191 O 0.17799 0.55444 0.26086 0.0
C192 C 0.15517 0.52286 0.22277 0.0
O193 O 0.1509 0.51213 0.23577 0.0
O194 O 0.20905 0.55308 0.2408 0.0
C195 C 0.76899 0.9029 0.53593 0.0
O196 O 0.76492 0.8842 0.53595 0.0
O197 O 0.80173 0.8825 0.55766 0.0
Zn198 Zn 0.80355 0.89553 0.53452 0.0
O199 O 0.79864 0.87757 0.50824 0.0
C200 C 0.84043 0.91553 0.54935 0.0
O201 O 0.83696 0.90728 0.56431 0.0
O202 O 0.78513 0.91139 0.5356 0.0
C203 C 0.80335 0.86183 0.50249 0.0
O204 O 0.81221 0.85472 0.51468 0.0
C205 C 0.79522 0.86486 0.55834 0.0
O206 O 0.78865 0.8522 0.54234 0.0
O207 O 0.82827 0.91286 0.53558 0.0
C208 C 0.9151 0.11135 0.28081 0.0
O209 O 0.93024 0.11852 0.29168 0.0
O210 O 0.94152 0.06767 0.24565 0.0
Zn211 Zn 0.9278 0.07046 0.27234 0.0
O212 O 0.94539 0.07455 0.29948 0.0
C213 C 0.91277 0.02614 0.26212 0.0
O214 O 0.92699 0.02701 0.2528 0.0
O215 O 0.91178 0.09317 0.27235 0.0
C216 C 0.94819 0.05987 0.30634 0.0
O217 O 0.94112 0.0425 0.29595 0.0
C218 C 0.95601 0.07783 0.24111 0.0
O219 O 0.96501 0.09267 0.25423 0.0
O220 O 0.90986 0.04228 0.27094 0.0
C221 C 0.31382 0.63164 0.52677 0.0
O222 O 0.31549 0.64982 0.52514 0.0
O223 O 0.27925 0.65258 0.5519 0.0
Zn224 Zn 0.27996 0.63514 0.52719 0.0
O225 O 0.28337 0.65019 0.50653 0.0
C226 C 0.24535 0.62679 0.51588 0.0
O227 O 0.2497 0.64588 0.51932 0.0
O228 O 0.29874 0.62145 0.52853 0.0
C229 C 0.27738 0.64225 0.4892 0.0
O230 O 0.27057 0.62343 0.48465 0.0
C231 C 0.28381 0.67085 0.55342 0.0
O232 O 0.29028 0.67819 0.53886 0.0
O233 O 0.2568 0.61757 0.51979 0.0
C234 C 0.415 0.61218 0.78079 0.0
O235 O 0.43023 0.61932 0.7915 0.0
O236 O 0.44132 0.56822 0.74573 0.0
Zn237 Zn 0.42755 0.57118 0.77243 0.0
O238 O 0.44451 0.5747 0.79981 0.0
C239 C 0.41278 0.527 0.76311 0.0
O240 O 0.4274 0.52761 0.75454 0.0
O241 O 0.41157 0.59396 0.77242 0.0
C242 C 0.45332 0.56225 0.80348 0.0
O243 O 0.4532 0.54748 0.78943 0.0
C244 C 0.45675 0.57681 0.74185 0.0
O245 O 0.46695 0.58985 0.7558 0.0
O246 O 0.40957 0.54326 0.7711 0.0
C247 C 0.68769 0.98841 0.72112 0.0
O248 O 0.67135 0.98771 0.72529 0.0
O249 O 0.67185 0.03313 0.71935 0.0
Zn250 Zn 0.69068 0.02744 0.73503 0.0
O251 O 0.68178 0.02323 0.75993 0.0
C252 C 0.7147 0.05796 0.72588 0.0
O253 O 0.70706 0.04962 0.70838 0.0
O254 O 0.69801 0.00477 0.72164 0.0
C255 C 0.68158 0.03864 0.77179 0.0
O256 O 0.68793 0.05562 0.76738 0.0
C257 C 0.65579 0.02692 0.72189 0.0
O258 O 0.65159 0.01643 0.73508 0.0
O259 O 0.71065 0.04982 0.73997 0.0
C260 C 0.82555 0.66648 0.99517 0.0
O261 O 0.82363 0.67301 0.97914 0.0
O262 O 0.79423 0.69852 0.0306 0.0
Zn263 Zn 0.79361 0.68042 0.00489 0.0
O264 O 0.79641 0.69407 0.98223 0.0
C265 C 0.75608 0.66804 0.00338 0.0
O266 O 0.75855 0.68703 0.00788 0.0
O267 O 0.81422 0.66756 0.00744 0.0
C268 C 0.79405 0.7108 0.98126 0.0
O269 O 0.7888 0.72119 0.99612 0.0
C270 C 0.80335 0.71567 0.0374 0.0
O271 O 0.81444 0.72469 0.02682 0.0
O272 O 0.76957 0.6609 1.00077 0.0
C273 C 0.89798 0.58096 0.8138 0.0
O274 O 0.91513 0.58376 0.81813 0.0
O275 O 0.91354 0.54338 0.78109 0.0
Zn276 Zn 0.89956 0.54285 0.80343 0.0
O277 O 0.91436 0.54324 0.82626 0.0
C278 C 0.88099 0.50623 0.78483 0.0
O279 O 0.89064 0.51022 0.77079 0.0
O280 O 0.88866 0.56403 0.80738 0.0
C281 C 0.92121 0.52878 0.82552 0.0
O282 O 0.91828 0.5152 0.80972 0.0
C283 C 0.93022 0.54883 0.7817 0.0
O284 O 0.93984 0.55646 0.79835 0.0
O285 O 0.88151 0.5191 0.79973 0.0
C286 C 0.78131 0.45154 0.50691 0.0
O287 O 0.77927 0.433 0.49947 0.0
O288 O 0.80668 0.42989 0.5377 0.0
Zn289 Zn 0.81375 0.4468 0.51913 0.0
O290 O 0.8151 0.43069 0.49361 0.0
C291 C 0.848 0.45868 0.53911 0.0
O292 O 0.84352 0.44158 0.54384 0.0
O293 O 0.79589 0.46113 0.51625 0.0
C294 C 0.82918 0.43056 0.48545 0.0
O295 O 0.84411 0.44268 0.49337 0.0
C296 C 0.80945 0.41297 0.53436 0.0
O297 O 0.81524 0.40657 0.51787 0.0
O298 O 0.8369 0.46447 0.52914 0.0
C299 C 0.6827 0.46742 0.27001 0.0
O300 O 0.66831 0.46411 0.27898 0.0
O301 O 0.65515 0.5069 0.23856 0.0
Zn302 Zn 0.67043 0.50674 0.26599 0.0
O303 O 0.65423 0.5044 0.29054 0.0
C304 C 0.68357 0.54998 0.26543 0.0
O305 O 0.66774 0.54632 0.25603 0.0
O306 O 0.68616 0.4834 0.26333 0.0
C307 C 0.64615 0.51705 0.29885 0.0
O308 O 0.64698 0.53277 0.29163 0.0
C309 C 0.63899 0.49979 0.23096 0.0
O310 O 0.62822 0.48876 0.24031 0.0
O311 O 0.68815 0.53582 0.27172 0.0
Tb312 Tb 0.02268 0.02142 0.00403 0.0
C313 C 0.07932 0.08986 0.04824 0.0
C314 C 0.08582 0.1091 0.0236 0.0
C315 C 0.09361 0.12428 0.05759 0.0
C316 C 0.07895 0.09118 0.02899 0.0
C317 C 0.0869 0.10634 0.0628 0.0
C318 C 0.09302 0.12566 0.03801 0.0
C319 C 0.08218 0.0858 0.08643 0.0
N320 N 0.0731 0.07221 0.05263 0.0
C321 C 0.07502 0.06986 0.07143 0.0
C322 C 0.08807 0.10415 0.08211 0.0
Tb323 Tb 0.06465 0.04645 0.02694 0.0
N324 N 0.07236 0.07474 0.0155 0.0
C325 C 0.07261 0.07528 0.99621 0.0
C326 C 0.08559 0.10975 0.0039 0.0
C327 C 0.07896 0.09274 0.99015 0.0
H328 H 0.07114 0.05555 0.07482 0.0
H329 H 0.07883 0.09301 0.97484 0.0
H330 H 0.09842 0.13953 0.03415 0.0
H331 H 0.08346 0.08382 0.10126 0.0
H332 H 0.06764 0.06247 0.98529 0.0
H333 H 1.00078 0.98074 0.06072 0.0
H334 H 0.09068 0.12323 0.99916 0.0
H335 H 0.02427 0.00445 0.956 0.0
H336 H 0.01357 0.0092 0.04906 0.0
H337 H 0.01865 0.97361 0.9339 0.0
H338 H 0.09953 0.13708 0.06855 0.0
H339 H 0.99372 0.94864 0.03904 0.0
H340 H 0.99322 0.92883 0.00638 0.0
H341 H 0.0939 0.11643 0.0937 0.0
H342 H 0.99886 0.92679 0.97234 0.0
N343 N 0.0133 0.99511 0.01925 0.0
C344 C 0.01002 0.99612 0.03839 0.0
C345 C 0.99921 0.96147 0.03337 0.0
C346 C 0.0027 0.96011 0.01408 0.0
C347 C 0.00302 0.97954 0.04558 0.0
C348 C 0.01002 0.97728 0.00734 0.0
H349 H 0.00856 0.94316 0.9455 0.0
N350 N 0.02063 0.99266 0.98196 0.0
C351 C 0.0177 0.97397 0.94922 0.0
C352 C 0.01383 0.97603 0.98825 0.0
C353 C 0.02153 0.99168 0.96232 0.0
C354 C 0.0119 0.95687 0.95579 0.0
C355 C 0.00954 0.95773 0.97536 0.0
O356 O 0.00966 0.02547 0.97872 0.0
O357 O 0.04261 0.04842 0.00808 0.0
O358 O 0.04564 0.05343 0.04846 0.0
O359 O 0.01791 0.0342 0.03417 0.0
O360 O 0.01697 0.0501 0.01169 0.0
O361 O 0.99505 0.01166 0.99967 0.0
O362 O 0.08291 0.03473 0.04107 0.0
O363 O 0.04724 0.01764 0.01672 0.0
O364 O 0.04141 0.02557 0.98141 0.0
O365 O 0.06912 0.03148 0.99781 0.0
O366 O 0.05754 0.0258 0.04557 0.0
O367 O 0.091 0.0515 0.01945 0.0
C368 C 0.03282 0.06037 0.01187 0.0
C369 C 0.97911 0.0241 0.97739 0.0
C370 C 0.95535 0.0398 0.9853 0.0
C371 C 0.97084 0.0347 0.99116 0.0
C372 C 0.94829 0.03459 0.9658 0.0
C373 C 0.97206 0.01898 0.95789 0.0
C374 C 0.95669 0.02425 0.95212 0.0
C375 C 0.02839 0.04604 0.04936 0.0
C376 C 0.99426 0.01678 0.98289 0.0
C377 C 0.00225 0.94084 0.98208 0.0
C378 C 0.99894 0.94201 0.00141 0.0
C379 C 0.04871 0.01155 0.03242 0.0
C380 C 0.11333 0.04865 0.04249 0.0
C381 C 0.12723 0.04235 0.03384 0.0
C382 C 0.14335 0.04431 0.04478 0.0
C383 C 0.14594 0.05415 0.06424 0.0
C384 C 0.11595 0.05824 0.06198 0.0
C385 C 0.13232 0.0613 0.07269 0.0
C386 C 0.05859 0.02614 0.98139 0.0
C387 C 0.09581 0.04165 0.03165 0.0
H388 H 0.97616 0.03862 0.00628 0.0
H389 H 0.93624 0.0385 0.96122 0.0
H390 H 0.97831 0.0106 0.94719 0.0
H391 H 0.9512 0.02016 0.93709 0.0
H392 H 0.12506 0.03476 0.01882 0.0
H393 H 0.15813 0.05556 0.07317 0.0
H394 H 0.10534 0.06268 0.0692 0.0
H395 H 0.13419 0.06845 0.0878 0.0
Tb396 Tb 0.30785 0.77798 0.24966 0.0
C397 C 0.28657 0.83855 0.31283 0.0
C398 C 0.31525 0.85746 0.32806 0.0
C399 C 0.28938 0.87076 0.33256 0.0
C400 C 0.30448 0.84006 0.31679 0.0
C401 C 0.27882 0.85389 0.32071 0.0
C402 C 0.30757 0.87259 0.33615 0.0
C403 C 0.25056 0.83475 0.30506 0.0
N404 N 0.27673 0.82216 0.3011 0.0
C405 C 0.25875 0.81999 0.29764 0.0
C406 C 0.26064 0.85181 0.31664 0.0
Tb407 Tb 0.29029 0.7967 0.29357 0.0
N408 N 0.31142 0.82494 0.30894 0.0
C409 C 0.3296 0.8276 0.31059 0.0
C410 C 0.33351 0.85942 0.33058 0.0
C411 C 0.34072 0.84458 0.32147 0.0
H412 H 0.25035 0.80655 0.28961 0.0
H413 H 0.35494 0.84624 0.32267 0.0
H414 H 0.31564 0.88588 0.34502 0.0
H415 H 0.23639 0.83275 0.30213 0.0
H416 H 0.33616 0.8172 0.30315 0.0
H417 H 0.24959 0.72515 0.2123 0.0
H418 H 0.34219 0.87256 0.33902 0.0
H419 H 0.34979 0.77649 0.25385 0.0
H420 H 0.26522 0.75508 0.23411 0.0
H421 H 0.36809 0.75319 0.24359 0.0
H422 H 0.28362 0.88258 0.33885 0.0
H423 H 0.26562 0.7002 0.19973 0.0
H424 H 0.29405 0.68918 0.19919 0.0
H425 H 0.25422 0.8632 0.32253 0.0
H426 H 0.32616 0.69636 0.20858 0.0
N427 N 0.29071 0.74835 0.23361 0.0
C428 C 0.27284 0.74493 0.22851 0.0
C429 C 0.27273 0.71355 0.20931 0.0
C430 C 0.29083 0.71678 0.21493 0.0
C431 C 0.26368 0.72764 0.21626 0.0
C432 C 0.29953 0.73457 0.22712 0.0
H433 H 0.35388 0.7201 0.22532 0.0
N434 N 0.32528 0.75619 0.24337 0.0
C435 C 0.35382 0.74875 0.24056 0.0
C436 C 0.31744 0.73855 0.23243 0.0
C437 C 0.34338 0.76182 0.24654 0.0
C438 C 0.34576 0.73012 0.23024 0.0
C439 C 0.32738 0.72495 0.22566 0.0
O440 O 0.32788 0.79408 0.2368 0.0
O441 O 0.30247 0.80234 0.26851 0.0
O442 O 0.27304 0.80018 0.26857 0.0
O443 O 0.28335 0.7859 0.2403 0.0
O444 O 0.32795 0.80403 0.26207 0.0
O445 O 0.3025 0.78044 0.2205 0.0
O446 O 0.26465 0.78223 0.2977 0.0
O447 O 0.28915 0.77269 0.27014 0.0
O448 O 0.3238 0.77249 0.27447 0.0
O449 O 0.31514 0.78931 0.30306 0.0
O450 O 0.28975 0.76737 0.29809 0.0
O451 O 0.28371 0.7986 0.32208 0.0
C452 C 0.31704 0.81389 0.2691 0.0
C453 C 0.32723 0.79086 0.20321 0.0
C454 C 0.33277 0.80491 0.17493 0.0
C455 C 0.32233 0.80129 0.18986 0.0
C456 C 0.34799 0.79757 0.17294 0.0
C457 C 0.34256 0.78361 0.20139 0.0
C458 C 0.35283 0.78689 0.18616 0.0
C459 C 0.2717 0.79438 0.24933 0.0
C460 C 0.31813 0.79164 0.22067 0.0
C461 C 0.31876 0.707 0.21392 0.0
C462 C 0.30051 0.70294 0.20852 0.0
C463 C 0.28871 0.75979 0.28 0.0
C464 C 0.26013 0.77424 0.32821 0.0
C465 C 0.27083 0.76545 0.33855 0.0
C466 C 0.26317 0.75338 0.35066 0.0
C467 C 0.24492 0.75 0.35247 0.0
C468 C 0.24188 0.77082 0.32997 0.0
C469 C 0.2343 0.75871 0.3421 0.0
C470 C 0.32593 0.77956 0.2936 0.0
C471 C 0.26764 0.78804 0.31648 0.0
H472 H 0.31082 0.80744 0.19164 0.0
H473 H 0.35634 0.80058 0.16155 0.0
H474 H 0.34689 0.77608 0.21202 0.0
H475 H 0.3648 0.78162 0.1849 0.0
H476 H 0.28498 0.76813 0.33741 0.0
H477 H 0.23897 0.74072 0.36202 0.0
H478 H 0.23355 0.77777 0.32216 0.0
H479 H 0.22025 0.75621 0.34357 0.0
Tb480 Tb 0.57487 0.04488 0.50995 0.0
C481 C 0.51078 0.00318 0.5402 0.0
C482 C 0.49468 0.97736 0.51413 0.0
C483 C 0.49531 0.97233 0.54726 0.0
C484 C 0.50556 0.99624 0.52057 0.0
C485 C 0.50505 0.99156 0.55379 0.0
C486 C 0.49017 0.96523 0.52746 0.0
C487 C 0.51674 0.01952 0.57939 0.0
N488 N 0.52022 0.02184 0.5461 0.0
C489 C 0.52212 0.03049 0.56544 0.0
C490 C 0.50854 0.99984 0.57356 0.0
Tb491 Tb 0.52909 0.0377 0.52143 0.0
N492 N 0.50998 0.00841 0.50802 0.0
C493 C 0.50222 0.0032 0.48926 0.0
C494 C 0.48796 0.9715 0.49463 0.0
C495 C 0.49138 0.98465 0.48228 0.0
H496 H 0.52871 0.04569 0.57008 0.0
H497 H 0.48561 0.98055 0.46735 0.0
H498 H 0.48208 0.9506 0.5227 0.0
H499 H 0.51893 0.02625 0.59462 0.0
H500 H 0.50399 0.01312 0.47941 0.0
H501 H 0.61003 0.11145 0.55899 0.0
H502 H 0.47953 0.95716 0.48915 0.0
H503 H 0.57827 0.02961 0.46317 0.0
H504 H 0.59357 0.07775 0.55078 0.0
H505 H 0.58932 0.04414 0.43561 0.0
H506 H 0.49107 0.96309 0.55747 0.0
H507 H 0.6188 0.12956 0.53315 0.0
H508 H 0.62016 0.12936 0.49774 0.0
H509 H 0.50431 0.99138 0.58441 0.0
H510 H 0.61438 0.11113 0.46408 0.0
N511 N 0.59159 0.07617 0.52005 0.0
C512 C 0.59674 0.08512 0.53906 0.0
C513 C 0.61127 0.11461 0.52932 0.0
C514 C 0.60693 0.10515 0.50994 0.0
C515 C 0.60636 0.10444 0.54393 0.0
C516 C 0.59699 0.08569 0.5057 0.0
H517 H 0.60301 0.07933 0.44079 0.0
N518 N 0.58449 0.05663 0.48328 0.0
C519 C 0.59037 0.05319 0.44986 0.0
C520 C 0.59342 0.07557 0.48672 0.0
C521 C 0.58412 0.04503 0.46543 0.0
C522 C 0.59805 0.07306 0.45284 0.0
C523 C 0.60011 0.08442 0.47153 0.0
O524 O 0.58739 0.02323 0.49822 0.0
O525 O 0.54838 0.02538 0.50656 0.0
O526 O 0.5459 0.02904 0.54264 0.0
O527 O 0.57319 0.04886 0.54083 0.0
O528 O 0.56945 0.01334 0.50828 0.0
O529 O 0.60039 0.04564 0.52279 0.0
O530 O 0.52032 0.05897 0.54022 0.0
O531 O 0.55552 0.05764 0.52505 0.0
O532 O 0.55896 0.05069 0.48615 0.0
O533 O 0.52975 0.03593 0.49042 0.0
O534 O 0.53413 0.0675 0.51688 0.0
O535 O 0.50377 0.04201 0.51412 0.0
C536 C 0.55259 0.00948 0.50675 0.0
C537 C 0.61828 0.0289 0.50251 0.0
C538 C 0.64207 0.0119 0.49929 0.0
C539 C 0.62804 0.01674 0.50919 0.0
C540 C 0.64641 0.01937 0.48269 0.0
C541 C 0.6232 0.03691 0.48633 0.0
C542 C 0.63713 0.03203 0.47639 0.0
C543 C 0.56233 0.03747 0.54972 0.0
C544 C 0.60144 0.03002 0.51058 0.0
C545 C 0.60932 0.10402 0.47559 0.0
C546 C 0.61266 0.11439 0.49476 0.0
C547 C 0.55091 0.07224 0.52077 0.0
C548 C 0.48946 0.05821 0.53907 0.0
C549 C 0.47718 0.06679 0.53054 0.0
C550 C 0.46284 0.07109 0.54042 0.0
C551 C 0.46105 0.06672 0.55898 0.0
C552 C 0.48722 0.05387 0.55751 0.0
C553 C 0.47309 0.05808 0.56735 0.0
C554 C 0.54182 0.04493 0.48059 0.0
C555 C 0.50537 0.05599 0.52932 0.0
H556 H 0.62424 0.01035 0.52158 0.0
H557 H 0.65713 0.01563 0.4748 0.0
H558 H 0.61614 0.04657 0.48112 0.0
H559 H 0.64063 0.03791 0.46368 0.0
H560 H 0.47892 0.0703 0.51634 0.0
H561 H 0.4505 0.07032 0.56725 0.0
H562 H 0.49654 0.0477 0.5646 0.0
H563 H 0.47162 0.05493 0.5817 0.0
Tb564 Tb 0.27581 0.2951 0.76832 0.0
C565 C 0.33293 0.27372 0.80824 0.0
C566 C 0.34568 0.30287 0.83215 0.0
C567 C 0.34328 0.27139 0.84079 0.0
C568 C 0.33759 0.29368 0.81331 0.0
C569 C 0.33678 0.26238 0.8216 0.0
C570 C 0.34762 0.29166 0.84611 0.0
C571 C 0.33094 0.23472 0.79524 0.0
N572 N 0.32682 0.26553 0.78955 0.0
C573 C 0.32698 0.24648 0.78269 0.0
C574 C 0.33523 0.24254 0.81493 0.0
Tb575 Tb 0.3197 0.28598 0.77029 0.0
N576 N 0.33591 0.30397 0.79921 0.0
C577 C 0.34461 0.32329 0.80261 0.0
C578 C 0.35255 0.32292 0.8361 0.0
C579 C 0.3525 0.33306 0.82109 0.0
H580 H 0.32319 0.23995 0.76756 0.0
H581 H 0.35881 0.34839 0.82365 0.0
H582 H 0.35346 0.29849 0.86072 0.0
H583 H 0.3304 0.21954 0.78971 0.0
H584 H 0.34614 0.3316 0.79132 0.0
H585 H 0.2496 0.23809 0.70553 0.0
H586 H 0.35885 0.33049 0.85035 0.0
H587 H 0.26997 0.33965 0.77949 0.0
H588 H 0.26405 0.25177 0.73834 0.0
H589 H 0.25954 0.36313 0.76274 0.0
H590 H 0.34592 0.26288 0.85134 0.0
H591 H 0.24034 0.25953 0.68526 0.0
H592 H 0.23735 0.29299 0.68236 0.0
H593 H 0.33825 0.23338 0.82466 0.0
H594 H 0.24048 0.32726 0.69781 0.0
N595 N 0.26288 0.28089 0.73745 0.0
C596 C 0.25975 0.26136 0.73014 0.0
C597 C 0.24656 0.26564 0.69987 0.0
C598 C 0.24923 0.28548 0.70761 0.0
C599 C 0.25167 0.2535 0.71129 0.0
C600 C 0.25745 0.29269 0.72669 0.0
H601 H 0.24869 0.35358 0.72785 0.0
N602 N 0.26644 0.31774 0.75395 0.0
C603 C 0.25961 0.34882 0.75475 0.0
C604 C 0.25943 0.31188 0.73522 0.0
C605 C 0.26556 0.33556 0.76416 0.0
C606 C 0.25353 0.34339 0.73506 0.0
C607 C 0.25294 0.32454 0.72515 0.0
O608 O 0.26171 0.30322 0.79209 0.0
O609 O 0.29811 0.292 0.7864 0.0
O610 O 0.30001 0.25746 0.76906 0.0
O611 O 0.27249 0.26495 0.77244 0.0
O612 O 0.28772 0.31595 0.79441 0.0
O613 O 0.24955 0.27948 0.76938 0.0
O614 O 0.32918 0.26754 0.74863 0.0
O615 O 0.29494 0.28259 0.75246 0.0
O616 O 0.29399 0.32214 0.76313 0.0
O617 O 0.32225 0.31725 0.77031 0.0
O618 O 0.31812 0.29541 0.74289 0.0
O619 O 0.34646 0.2941 0.76457 0.0
C620 C 0.29923 0.30691 0.79946 0.0
C621 C 0.23036 0.29597 0.78714 0.0
C622 C 0.20258 0.29588 0.80219 0.0
C623 C 0.21888 0.29025 0.80105 0.0
C624 C 0.19823 0.30769 0.78974 0.0
C625 C 0.22534 0.30735 0.77462 0.0
C626 C 0.20955 0.31341 0.77614 0.0
C627 C 0.28274 0.25241 0.77138 0.0
C628 C 0.24739 0.28995 0.7857 0.0
C629 C 0.24541 0.31772 0.70586 0.0
C630 C 0.24357 0.29821 0.69708 0.0
C631 C 0.30141 0.28933 0.73834 0.0
C632 C 0.36058 0.2709 0.74677 0.0
C633 C 0.37499 0.28094 0.73818 0.0
C634 C 0.38961 0.27267 0.73379 0.0
C635 C 0.38937 0.25422 0.73791 0.0
C636 C 0.3609 0.25248 0.75045 0.0
C637 C 0.37518 0.24428 0.7461 0.0
C638 C 0.31159 0.32848 0.76636 0.0
C639 C 0.34489 0.27922 0.75046 0.0
H640 H 0.22243 0.2812 0.81063 0.0
H641 H 0.18591 0.31237 0.79046 0.0
H642 H 0.23349 0.31141 0.76351 0.0
H643 H 0.20594 0.32237 0.76652 0.0
H644 H 0.37483 0.29507 0.73497 0.0
H645 H 0.40013 0.24726 0.73447 0.0
H646 H 0.35003 0.24415 0.75635 0.0
H647 H 0.37516 0.23 0.74894 0.0
Tb648 Tb 0.04339 0.06237 0.53094 0.0
C649 C 0.06342 1.00027 0.47079 0.0
C650 C 0.0374 0.98888 0.44765 0.0
C651 C 0.0661 0.98577 0.43747 0.0
C652 C 0.04554 0.99796 0.46647 0.0
C653 C 0.07387 0.99367 0.45652 0.0
C654 C 0.04786 0.98338 0.43303 0.0
C655 C 0.09815 1.00045 0.48155 0.0
N656 N 0.07025 0.00732 0.48947 0.0
C657 C 0.08717 0.00663 0.49519 0.0
C658 C 0.09156 0.99426 0.46206 0.0
Tb659 Tb 0.05158 0.01713 0.5111 0.0
N660 N 0.0359 0.00283 0.4812 0.0
C661 C 0.01775 0.99741 0.47818 0.0
C662 C 0.01895 0.98459 0.44435 0.0
C663 C 0.00908 0.9885 0.4598 0.0
H664 H 0.09241 0.01137 0.51023 0.0
H665 H 0.99474 0.98465 0.45761 0.0
H666 H 0.04187 0.97654 0.41848 0.0
H667 H 0.11168 1.00045 0.4861 0.0
H668 H 0.00955 0.99991 0.48964 0.0
H669 H 0.10106 0.09469 0.58307 0.0
H670 H 0.01219 0.97754 0.43015 0.0
H671 H 0.00107 0.06266 0.53344 0.0
H672 H 0.0857 0.07832 0.55138 0.0
H673 H 0.98213 0.07315 0.55822 0.0
H674 H 0.07392 0.98076 0.42625 0.0
H675 H 0.08411 0.10368 0.61047 0.0
H676 H 0.0547 0.10541 0.62257 0.0
H677 H 0.10003 0.9893 0.45155 0.0
H678 H 0.02237 0.09971 0.61582 0.0
N679 N 0.05962 0.07701 0.56024 0.0
C680 C 0.07778 0.08187 0.56293 0.0
C681 C 0.07712 0.09625 0.59648 0.0
C682 C 0.05864 0.09213 0.59351 0.0
C683 C 0.08673 0.09126 0.58105 0.0
C684 C 0.05018 0.08241 0.575 0.0
H685 H 0.99524 0.08785 0.59185 0.0
N686 N 0.02455 0.07055 0.55306 0.0
C687 C 0.99613 0.0748 0.56212 0.0
C688 C 0.03204 0.07915 0.57126 0.0
C689 C 0.00689 0.06886 0.54813 0.0
C690 C 0.00357 0.08307 0.58109 0.0
C691 C 0.02177 0.08556 0.58582 0.0
O692 O 0.03104 0.07965 0.51658 0.0
O693 O 0.0429 0.04191 0.50391 0.0
O694 O 0.07209 0.03777 0.50039 0.0
O695 O 0.07012 0.06622 0.52108 0.0
O696 O 0.02094 0.05232 0.50824 0.0
O697 O 0.05788 0.09063 0.53024 0.0
O698 O 0.06233 0.99932 0.52653 0.0
O699 O 0.0526 0.03795 0.53791 0.0
O700 O 0.02524 0.04138 0.54364 0.0
O701 O 0.02427 0.01486 0.51926 0.0
O702 O 0.07426 0.02713 0.53351 0.0
O703 O 0.03555 0.99001 0.51309 0.0
C704 C 0.02791 0.0419 0.49549 0.0
C705 C 0.041 0.11336 0.52552 0.0
C706 C 0.04341 0.14498 0.5171 0.0
C707 C 0.04871 0.12743 0.51535 0.0
C708 C 0.03054 0.14847 0.52967 0.0
C709 C 0.02837 0.11706 0.53821 0.0
C710 C 0.02321 0.13462 0.54029 0.0
C711 C 0.07839 0.05639 0.50833 0.0
C712 C 0.04475 0.09424 0.52038 0.0
C713 C 0.03004 0.09473 0.60442 0.0
C714 C 0.04844 0.09797 0.60826 0.0
C715 C 0.06766 0.03804 0.54615 0.0
C716 C 0.05048 0.96591 0.51806 0.0
C717 C 0.04473 0.95312 0.53032 0.0
C718 C 0.04753 0.93433 0.52657 0.0
C719 C 0.0563 0.92844 0.51048 0.0
C720 C 0.05919 0.95998 0.50197 0.0
C721 C 0.06216 0.94129 0.49829 0.0
C722 C 0.01737 0.02387 0.5339 0.0
C723 C 0.04801 0.98559 0.5232 0.0
H724 H 0.05856 0.12442 0.50567 0.0
H725 H 0.02587 0.1617 0.53102 0.0
H726 H 0.02219 0.1063 0.54609 0.0
H727 H 0.01323 0.13733 0.54982 0.0
H728 H 0.03798 0.95776 0.54276 0.0
H729 H 0.05875 0.91401 0.50749 0.0
H730 H 0.06375 0.96971 0.49239 0.0
H731 H 0.06902 0.93676 0.48598 0.0
Tb732 Tb 0.31408 0.80178 0.76985 0.0
C733 C 0.27439 0.73799 0.80555 0.0
C734 C 0.27686 0.70886 0.78356 0.0
C735 C 0.27199 0.70777 0.8171 0.0
C736 C 0.27686 0.72879 0.78722 0.0
C737 C 0.27153 0.72746 0.82058 0.0
C738 C 0.2747 0.69851 0.79865 0.0
C739 C 0.26587 0.75595 0.84074 0.0
N740 N 0.2736 0.75691 0.80834 0.0
C741 C 0.26853 0.76567 0.82535 0.0
C742 C 0.26756 0.7368 0.83842 0.0
Tb743 Tb 0.27639 0.77075 0.78161 0.0
N744 N 0.27826 0.73903 0.77277 0.0
C745 C 0.27911 0.72988 0.75412 0.0
C746 C 0.27843 0.69972 0.76469 0.0
C747 C 0.27944 0.71025 0.74989 0.0
H748 H 0.26657 0.78023 0.82698 0.0
H749 H 0.28044 0.70327 0.73518 0.0
H750 H 0.27464 0.6832 0.79609 0.0
H751 H 0.26221 0.76311 0.85425 0.0
H752 H 0.28001 0.73755 0.74233 0.0
H753 H 0.30693 0.87323 0.80342 0.0
H754 H 0.27852 0.68445 0.76132 0.0
H755 H 0.32986 0.78666 0.72834 0.0
H756 H 0.30746 0.83936 0.80234 0.0
H757 H 0.33876 0.79956 0.69957 0.0
H758 H 0.26983 0.69945 0.82846 0.0
H759 H 0.31264 0.8878 0.77457 0.0
H760 H 0.32113 0.8843 0.74057 0.0
H761 H 0.26519 0.72916 0.85027 0.0
H762 H 0.32983 0.86428 0.7123 0.0
N763 N 0.3125 0.83364 0.77253 0.0
C764 C 0.30976 0.84505 0.78937 0.0
C765 C 0.31265 0.87264 0.77385 0.0
C766 C 0.31639 0.86131 0.757 0.0
C767 C 0.30948 0.8645 0.79016 0.0
C768 C 0.31621 0.84163 0.75679 0.0
H769 H 0.33656 0.83275 0.69695 0.0
N770 N 0.32167 0.8119 0.74182 0.0
C771 C 0.33366 0.80834 0.71102 0.0
C772 C 0.32097 0.83038 0.74088 0.0
C773 C 0.32851 0.80105 0.72743 0.0
C774 C 0.33236 0.82705 0.70957 0.0
C775 C 0.32623 0.83845 0.72474 0.0
O776 O 0.33926 0.79569 0.77045 0.0
O777 O 0.30429 0.77349 0.77784 0.0
O778 O 0.29596 0.77817 0.80664 0.0
O779 O 0.31031 0.80769 0.80064 0.0
O780 O 0.31944 0.77406 0.75549 0.0
O781 O 0.33506 0.82132 0.78857 0.0
O782 O 0.2519 0.77291 0.79166 0.0
O783 O 0.28589 0.79874 0.77328 0.0
O784 O 0.29656 0.79422 0.7431 0.0
O785 O 0.2753 0.76866 0.75014 0.0
O786 O 0.26962 0.79826 0.79455 0.0
O787 O 0.25342 0.75312 0.76435 0.0
C788 C 0.31164 0.76269 0.76607 0.0
C789 C 0.36385 0.8218 0.77917 0.0
C790 C 0.39573 0.82767 0.7853 0.0
C791 C 0.37878 0.82035 0.79028 0.0
C792 C 0.39778 0.83682 0.76935 0.0
C793 C 0.36595 0.83132 0.76346 0.0
C794 C 0.3829 0.83883 0.75861 0.0
C795 C 0.30614 0.79566 0.81251 0.0
C796 C 0.34652 0.8113 0.78309 0.0
C797 C 0.32587 0.85783 0.72458 0.0
C798 C 0.32093 0.86923 0.74068 0.0
C799 C 0.27759 0.80947 0.78388 0.0
C800 C 0.22431 0.75294 0.77528 0.0
C801 C 0.21439 0.75441 0.7587 0.0
C802 C 0.19596 0.74841 0.75709 0.0
C803 C 0.18744 0.74072 0.77194 0.0
C804 C 0.21581 0.7455 0.79027 0.0
C805 C 0.19736 0.73928 0.7885 0.0
C806 C 0.28286 0.77916 0.73793 0.0
C807 C 0.24348 0.75973 0.77698 0.0
H808 H 0.37722 0.81274 0.80226 0.0
H809 H 0.41086 0.84236 0.76525 0.0
H810 H 0.35462 0.83262 0.75474 0.0
H811 H 0.38449 0.84592 0.74632 0.0
H812 H 0.22094 0.7606 0.74733 0.0
H813 H 0.17311 0.73633 0.77091 0.0
H814 H 0.22341 0.74446 0.80324 0.0
H815 H 0.19073 0.73357 0.80003 0.0
Tb816 Tb 0.55386 0.02835 0.04819 0.0
C817 C 0.50931 0.04598 0.98303 0.0
C818 C 0.49118 0.01582 0.96423 0.0
C819 C 0.47972 0.04484 0.9688 0.0
C820 C 0.50705 0.0264 0.97562 0.0
C821 C 0.49598 0.05559 0.97884 0.0
C822 C 0.47729 0.02495 0.96155 0.0
C823 C 0.51679 0.08609 0.99149 0.0
N824 N 0.52525 0.05596 0.99252 0.0
C825 C 0.52956 0.07593 0.99514 0.0
C826 C 0.49974 0.07586 0.98379 0.0
Tb827 Tb 0.54496 0.0374 0.99894 0.0
N828 N 0.52089 0.01812 0.97821 0.0
C829 C 0.52024 0.99991 0.96764 0.0
C830 C 0.48997 0.9966 0.95515 0.0
C831 C 0.50473 0.98877 0.95652 0.0
H832 H 0.54277 0.08413 1.00097 0.0
H833 H 0.50427 0.97423 0.94875 0.0
H834 H 0.46494 0.01695 0.95315 0.0
H835 H 0.52016 0.10181 0.99449 0.0
H836 H 0.53159 0.99365 0.96738 0.0
H837 H 0.58653 0.09331 0.10193 0.0
H838 H 0.47802 0.988 0.94635 0.0
H839 H 0.56097 0.98388 0.04888 0.0
H840 H 0.56089 0.0703 0.08251 0.0
H841 H 0.58604 0.96992 0.05633 0.0
H842 H 0.46923 0.05194 0.96577 0.0
H843 H 0.61565 0.08491 0.10375 0.0
H844 H 0.63301 0.05936 0.09676 0.0
H845 H 0.48989 0.08376 0.98073 0.0
H846 H 0.63287 0.02514 0.08426 0.0
N847 N 0.57564 0.04973 0.07082 0.0
C848 C 0.57361 0.06656 0.08233 0.0
C849 C 0.6045 0.07488 0.0947 0.0
C850 C 0.6059 0.05656 0.08526 0.0
C851 C 0.5881 0.07965 0.09371 0.0
C852 C 0.59099 0.04411 0.07351 0.0
H853 H 0.61516 0.99145 0.0698 0.0
N854 N 0.57587 0.01334 0.05658 0.0
C855 C 0.58781 0.98553 0.05882 0.0
C856 C 0.5911 0.02514 0.0661 0.0
C857 C 0.57362 0.9936 0.05458 0.0
C858 C 0.60422 0.99771 0.06633 0.0
C859 C 0.60586 0.01778 0.07075 0.0
O860 O 0.53899 0.00353 0.05642 0.0
O861 O 0.53653 0.0225 0.02148 0.0
O862 O 0.53755 0.05886 0.02136 0.0
O863 O 0.55559 0.05899 0.04878 0.0
O864 O 0.52562 0.02838 0.04708 0.0
O865 O 0.54138 0.03265 0.07344 0.0
O866 O 0.56187 0.06048 0.99007 0.0
O867 O 0.56249 0.04235 0.0252 0.0
O868 O 0.56195 0.00676 0.02617 0.0
O869 O 0.5445 0.00689 0.99833 0.0
O870 O 0.57319 0.03796 0.99935 0.0
O871 O 0.55355 0.03165 0.97139 0.0
C872 C 0.52243 0.02344 0.02866 0.0
C873 C 0.53516 0.00703 0.09 0.0
C874 C 0.52355 0.00737 0.12103 0.0
C875 C 0.52466 0.01394 0.10369 0.0
C876 C 0.53312 0.99391 0.12497 0.0
C877 C 0.54473 0.99346 0.09376 0.0
C878 C 0.54373 0.98699 0.1113 0.0
C879 C 0.54472 0.06651 0.03924 0.0
C880 C 0.53494 0.01404 0.07191 0.0
C881 C 0.62129 0.03046 0.08092 0.0
C882 C 0.62134 0.04991 0.08809 0.0
C883 C 0.57652 0.04166 0.01778 0.0
C884 C 0.56332 0.05817 0.95622 0.0
C885 C 0.57317 0.0513 0.94176 0.0
C886 C 0.57597 0.06035 0.92599 0.0
C887 C 0.56859 0.07614 0.92433 0.0
C888 C 0.55589 0.07398 0.95462 0.0
C889 C 0.55842 0.08283 0.93859 0.0
C890 C 0.55606 0.99988 0.00766 0.0
C891 C 0.56285 0.04952 0.97339 0.0
H892 H 0.51706 0.02426 0.10072 0.0
H893 H 0.53218 0.98862 0.1384 0.0
H894 H 0.55274 0.98772 0.08325 0.0
H895 H 0.55102 0.97645 0.11421 0.0
H896 H 0.57934 0.03941 0.94319 0.0
H897 H 0.57098 0.08345 0.91226 0.0
H898 H 0.54854 0.07979 0.9658 0.0
H899 H 0.55286 0.09515 0.93746 0.0
Tb900 Tb 0.31831 0.32126 0.28541 0.0
C901 C 0.24881 0.26151 0.25495 0.0
C902 C 0.23565 0.25354 0.28362 0.0
C903 C 0.21703 0.24756 0.2534 0.0
C904 C 0.25076 0.2605 0.27431 0.0
C905 C 0.2319 0.25472 0.24423 0.0
C906 C 0.21889 0.24705 0.27307 0.0
C907 C 0.24559 0.26041 0.21547 0.0
N908 N 0.26349 0.26822 0.24636 0.0
C909 C 0.262 0.26671 0.22652 0.0
C910 C 0.23043 0.25454 0.22438 0.0
Tb911 Tb 0.29045 0.27306 0.26468 0.0
N912 N 0.2673 0.26634 0.28403 0.0
C913 C 0.26891 0.26706 0.3037 0.0
C914 C 0.23771 0.25329 0.30331 0.0
C915 C 0.25437 0.2604 0.31344 0.0
H916 H 0.27353 0.26986 0.21876 0.0
H917 H 0.25604 0.26101 0.32891 0.0
H918 H 0.20728 0.24152 0.27999 0.0
H919 H 0.24475 0.25957 0.19995 0.0
H920 H 0.28096 0.27351 0.31271 0.0
H921 H 0.35654 0.35969 0.23597 0.0
H922 H 0.22646 0.24811 0.31092 0.0
H923 H 0.33304 0.32466 0.33244 0.0
H924 H 0.32988 0.34818 0.25142 0.0
H925 H 0.36101 0.32789 0.35162 0.0
H926 H 0.20405 0.2422 0.24534 0.0
H927 H 0.38565 0.35637 0.24895 0.0
H928 H 0.40359 0.34868 0.27577 0.0
H929 H 0.21774 0.24928 0.2157 0.0
H930 H 0.40484 0.33987 0.3078 0.0
N931 N 0.34297 0.33531 0.27136 0.0
C932 C 0.34227 0.34553 0.25674 0.0
C933 C 0.37383 0.35059 0.25542 0.0
C934 C 0.37491 0.34271 0.27202 0.0
C935 C 0.35745 0.35249 0.24807 0.0
C936 C 0.35906 0.33523 0.27982 0.0
H937 H 0.38907 0.33266 0.33646 0.0
N938 N 0.34427 0.32474 0.30532 0.0
C939 C 0.36087 0.32789 0.33625 0.0
C940 C 0.35975 0.32976 0.29749 0.0
C941 C 0.3449 0.32572 0.32506 0.0
C942 C 0.37665 0.33057 0.32766 0.0
C943 C 0.37632 0.33231 0.30825 0.0
O944 O 0.31244 0.33648 0.31196 0.0
O945 O 0.29289 0.30081 0.28304 0.0
O946 O 0.28838 0.29376 0.24575 0.0
O947 O 0.31508 0.31652 0.25362 0.0
O948 O 0.29291 0.32849 0.27916 0.0
O949 O 0.31877 0.35065 0.28722 0.0
O950 O 0.29595 0.25932 0.23758 0.0
O951 O 0.31556 0.29362 0.26717 0.0
O952 O 0.31787 0.30089 0.30542 0.0
O953 O 0.30206 0.26877 0.29188 0.0
O954 O 0.31627 0.26523 0.26681 0.0
O955 O 0.28106 0.24299 0.25695 0.0
C956 C 0.28315 0.31186 0.28002 0.0
C957 C 0.31253 0.37079 0.31593 0.0
C958 C 0.30211 0.40012 0.31612 0.0
C959 C 0.30501 0.38267 0.30608 0.0
C960 C 0.307 0.40582 0.33616 0.0
C961 C 0.31741 0.37647 0.33595 0.0
C962 C 0.31475 0.39405 0.34599 0.0
C963 C 0.30069 0.30781 0.2417 0.0
C964 C 0.31487 0.3524 0.30511 0.0
C965 C 0.39205 0.33815 0.29987 0.0
C966 C 0.39134 0.34324 0.28168 0.0
C967 C 0.32573 0.28249 0.26754 0.0
C968 C 0.29527 0.22609 0.23341 0.0
C969 C 0.30409 0.21836 0.24665 0.0
C970 C 0.30957 0.20135 0.24035 0.0
C971 C 0.3067 0.19226 0.2207 0.0
C972 C 0.29255 0.21725 0.2137 0.0
C973 C 0.29835 0.20037 0.20736 0.0
C974 C 0.31225 0.28219 0.30594 0.0
C975 C 0.28745 0.24231 0.24011 0.0
H976 H 0.30082 0.37798 0.29067 0.0
H977 H 0.30482 0.4193 0.34414 0.0
H978 H 0.32331 0.36739 0.34374 0.0
H979 H 0.31856 0.3985 0.36143 0.0
H980 H 0.30606 0.22508 0.26193 0.0
H981 H 0.31096 0.17901 0.21574 0.0
H982 H 0.28564 0.22317 0.20334 0.0
H983 H 0.29614 0.19342 0.19219 0.0
Tb984 Tb 0.54296 0.56222 0.03158 0.0
C985 C 0.56045 0.49757 0.97093 0.0
C986 C 0.53344 0.48585 0.94926 0.0
C987 C 0.56108 0.47975 0.93829 0.0
C988 C 0.54252 0.49579 0.96744 0.0
C989 C 0.56992 0.48923 0.95655 0.0
C990 C 0.54287 0.47808 0.93463 0.0
C991 C 0.59568 0.49837 0.98 0.0
N992 N 0.5684 0.50633 0.98889 0.0
C993 C 0.58563 0.50613 0.99383 0.0
C994 C 0.58783 0.49004 0.96121 0.0
Tb995 Tb 0.55085 0.51719 0.01127 0.0
N996 N 0.53385 0.50311 0.9821 0.0
C997 C 0.51573 0.50012 0.97953 0.0
C998 C 0.51511 0.48355 0.94646 0.0
C999 C 0.50622 0.49063 0.96171 0.0
H1000 H 0.59174 0.51226 0.00843 0.0
H1001 H 0.49198 0.48869 0.95983 0.0
H1002 H 0.53613 0.47041 0.9206 0.0
H1003 H 0.60941 0.49865 0.98391 0.0
H1004 H 0.50824 0.50523 0.99088 0.0
H1005 H 0.60243 0.59456 0.08124 0.0
H1006 H 0.50767 0.47602 0.93272 0.0
H1007 H 0.50175 0.56594 0.03592 0.0
H1008 H 0.58592 0.57812 0.05024 0.0
H1009 H 0.48371 0.57584 0.06193 0.0
H1010 H 0.56813 0.47328 0.92704 0.0
H1011 H 0.5867 0.6031 0.10981 0.0
H1012 H 0.55796 0.60451 0.12364 0.0
H1013 H 0.59556 0.48379 0.95058 0.0
H1014 H 0.52556 0.59925 0.11846 0.0
N1015 N 0.56027 0.57643 0.06047 0.0
C1016 C 0.57845 0.5815 0.06224 0.0
C1017 C 0.57918 0.59565 0.0961 0.0
C1018 C 0.56068 0.59135 0.09412 0.0
C1019 C 0.58809 0.59094 0.08 0.0
C1020 C 0.55151 0.58171 0.0759 0.0
H1021 H 0.49776 0.58859 0.09552 0.0
N1022 N 0.52529 0.57097 0.05491 0.0
C1023 C 0.49761 0.57653 0.06532 0.0
C1024 C 0.53336 0.57882 0.07302 0.0
C1025 C 0.5078 0.57069 0.05067 0.0
C1026 C 0.50559 0.58371 0.08424 0.0
C1027 C 0.52376 0.58538 0.08821 0.0
O1028 O 0.53013 0.57982 0.0182 0.0
O1029 O 0.54238 0.54226 0.00398 0.0
O1030 O 0.57135 0.53753 1.00029 0.0
O1031 O 0.56934 0.566 0.02082 0.0
O1032 O 0.52029 0.55208 0.00962 0.0
O1033 O 0.55737 0.59039 0.03048 0.0
O1034 O 0.56264 0.4992 0.0254 0.0
O1035 O 0.55186 0.5376 0.03836 0.0
O1036 O 0.52325 0.54135 0.04275 0.0
O1037 O 0.52408 0.51335 0.02089 0.0
O1038 O 0.57367 0.52717 0.03352 0.0
O1039 O 0.53516 0.49012 0.01385 0.0
C1040 C 0.52731 0.54276 0.99601 0.0
C1041 C 0.54059 0.6135 0.02723 0.0
C1042 C 0.54337 0.64533 0.01942 0.0
C1043 C 0.54827 0.62757 0.01712 0.0
C1044 C 0.53101 0.64912 0.03254 0.0
C1045 C 0.52847 0.61743 0.0405 0.0
C1046 C 0.52374 0.63525 0.04315 0.0
C1047 C 0.57766 0.55615 0.00815 0.0
C1048 C 0.54392 0.59426 0.02149 0.0
C1049 C 0.5327 0.59416 0.1066 0.0
C1050 C 0.55115 0.59716 0.10954 0.0
C1051 C 0.56697 0.53766 0.04644 0.0
C1052 C 0.55015 0.46576 0.01771 0.0
C1053 C 0.54376 0.45305 0.02981 0.0
C1054 C 0.54605 0.43409 0.02609 0.0
C1055 C 0.55487 0.42783 0.0102 0.0
C1056 C 0.55898 0.45954 0.00184 0.0
C1057 C 0.56137 0.4406 0.99815 0.0
C1058 C 0.5164 0.52309 0.03425 0.0
C1059 C 0.54819 0.48562 0.02297 0.0
H1060 H 0.55775 0.6244 0.00702 0.0
H1061 H 0.52671 0.6626 0.03431 0.0
H1062 H 0.52241 0.60676 0.04848 0.0
H1063 H 0.51414 0.63816 0.05314 0.0
H1064 H 0.53707 0.45793 0.04221 0.0
H1065 H 0.55696 0.41324 0.00734 0.0
H1066 H 0.56414 0.4692 0.99243 0.0
H1067 H 0.56834 0.43585 0.98602 0.0
Tb1068 Tb 0.81423 0.29843 0.26731 0.0
C1069 C 0.77265 0.23929 0.30358 0.0
C1070 C 0.77693 0.2098 0.28362 0.0
C1071 C 0.77147 0.21028 0.31719 0.0
C1072 C 0.77594 0.22945 0.28583 0.0
C1073 C 0.76958 0.22942 0.31914 0.0
C1074 C 0.77525 0.20053 0.29951 0.0
C1075 C 0.75979 0.25663 0.33635 0.0
N1076 N 0.77051 0.2577 0.30501 0.0
C1077 C 0.7629 0.26577 0.32063 0.0
C1078 C 0.76354 0.23856 0.3358 0.0
Tb1079 Tb 0.77438 0.27046 0.27742 0.0
N1080 N 0.77659 0.23845 0.27039 0.0
C1081 C 0.77712 0.22791 0.25218 0.0
C1082 C 0.7787 0.19962 0.26529 0.0
C1083 C 0.77853 0.20864 0.24948 0.0
H1084 H 0.75976 0.27978 0.32143 0.0
H1085 H 0.77948 0.20074 0.23513 0.0
H1086 H 0.77606 0.18551 0.29802 0.0
H1087 H 0.75439 0.26352 0.34882 0.0
H1088 H 0.77717 0.23406 0.23942 0.0
H1089 H 0.80636 0.36613 0.30892 0.0
H1090 H 0.77958 0.18458 0.26308 0.0
H1091 H 0.82879 0.28751 0.22451 0.0
H1092 H 0.80716 0.33158 0.30332 0.0
H1093 H 0.83733 0.30397 0.19743 0.0
H1094 H 0.76931 0.2026 0.32904 0.0
H1095 H 0.81175 0.38449 0.28251 0.0
H1096 H 0.81984 0.38507 0.24852 0.0
H1097 H 0.76091 0.23137 0.34793 0.0
H1098 H 0.82826 0.36814 0.21814 0.0
N1099 N 0.81226 0.33006 0.2738 0.0
C1100 C 0.8094 0.33934 0.29164 0.0
C1101 C 0.81197 0.36925 0.27993 0.0
C1102 C 0.81569 0.35988 0.26198 0.0
C1103 C 0.80896 0.35896 0.29488 0.0
C1104 C 0.81573 0.34002 0.25935 0.0
H1105 H 0.83496 0.33793 0.199 0.0
N1106 N 0.82083 0.3116 0.24075 0.0
C1107 C 0.8324 0.31155 0.20987 0.0
C1108 C 0.82024 0.33047 0.24224 0.0
C1109 C 0.82751 0.30225 0.2252 0.0
C1110 C 0.83102 0.3307 0.21081 0.0
C1111 C 0.82514 0.34052 0.22726 0.0
O1112 O 0.83927 0.29268 0.26322 0.0
O1113 O 0.80259 0.27061 0.27534 0.0
O1114 O 0.78797 0.28705 0.30551 0.0
O1115 O 0.81643 0.29881 0.29808 0.0
O1116 O 0.81726 0.27023 0.25208 0.0
O1117 O 0.83642 0.31636 0.28534 0.0
O1118 O 0.75149 0.27816 0.28778 0.0
O1119 O 0.78816 0.30043 0.27659 0.0
O1120 O 0.79689 0.29089 0.2402 0.0
O1121 O 0.77527 0.2653 0.2463 0.0
O1122 O 0.76306 0.29074 0.26357 0.0
O1123 O 0.74989 0.25117 0.26645 0.0
C1124 C 0.80968 0.25952 0.26339 0.0
C1125 C 0.86479 0.31786 0.27447 0.0
C1126 C 0.89604 0.32836 0.28617 0.0
C1127 C 0.87866 0.3193 0.28855 0.0
C1128 C 0.89944 0.33631 0.2696 0.0
C1129 C 0.86824 0.32584 0.25797 0.0
C1130 C 0.88556 0.33504 0.25558 0.0
C1131 C 0.80489 0.29544 0.31063 0.0
C1132 C 0.84728 0.30679 0.27721 0.0
C1133 C 0.82462 0.36017 0.22952 0.0
C1134 C 0.81985 0.36982 0.24682 0.0
C1135 C 0.7759 0.30585 0.26747 0.0
C1136 C 0.72231 0.25735 0.27728 0.0
C1137 C 0.71149 0.25728 0.26066 0.0
C1138 C 0.69303 0.25247 0.26068 0.0
C1139 C 0.6855 0.2477 0.27731 0.0
C1140 C 0.7147 0.25282 0.29391 0.0
C1141 C 0.69631 0.24795 0.29387 0.0
C1142 C 0.78332 0.27581 0.23448 0.0
C1143 C 0.74153 0.26219 0.27734 0.0
H1144 H 0.87596 0.313 0.30126 0.0
H1145 H 0.91284 0.34301 0.26727 0.0
H1146 H 0.85772 0.32483 0.24691 0.0
H1147 H 0.88827 0.34097 0.24271 0.0
H1148 H 0.71737 0.26105 0.24786 0.0
H1149 H 0.67124 0.24414 0.27756 0.0
H1150 H 0.72296 0.25293 0.30685 0.0
H1151 H 0.69043 0.24443 0.3067 0.0
Tb1152 Tb 0.05412 0.52915 0.54819 0.0
C1153 C 0.00985 0.54328 0.48057 0.0
C1154 C 0.99194 0.51237 0.46319 0.0
C1155 C 0.98022 0.54116 0.46576 0.0
C1156 C 0.00777 0.52357 0.47427 0.0
C1157 C 0.99643 0.55244 0.47548 0.0
C1158 C 0.97794 0.52112 0.45971 0.0
C1159 C 0.01699 0.58332 0.48689 0.0
N1160 N 0.02563 0.55372 0.49003 0.0
C1161 C 0.02977 0.57359 0.49172 0.0
C1162 C 1.00005 0.57271 0.47928 0.0
Tb1163 Tb 0.04557 0.53607 0.49822 0.0
N1164 N 0.02175 0.5157 0.47763 0.0
C1165 C 0.02131 0.49724 0.46779 0.0
C1166 C 0.99089 0.49291 0.4552 0.0
C1167 C 0.00582 0.48548 0.45708 0.0
H1168 H 0.04266 0.58219 0.49818 0.0
H1169 H 0.00554 0.47077 0.44995 0.0
H1170 H 0.96561 0.51266 0.45155 0.0
H1171 H 0.02021 0.59902 0.48924 0.0
H1172 H 0.03282 0.49124 0.46768 0.0
H1173 H 0.08852 0.59479 0.5997 0.0
H1174 H 0.97898 0.48384 0.44668 0.0
H1175 H 0.06038 0.48485 0.55161 0.0
H1176 H 0.06214 0.57107 0.58211 0.0
H1177 H 0.08526 0.47061 0.55914 0.0
H1178 H 0.96966 0.54791 0.46211 0.0
H1179 H 0.11773 0.58643 0.60008 0.0
H1180 H 0.13476 0.56043 0.59296 0.0
H1181 H 0.99014 0.58027 0.47553 0.0
H1182 H 0.1338 0.52573 0.58193 0.0
N1183 N 0.0766 0.55066 0.56973 0.0
C1184 C 0.07494 0.56762 0.58117 0.0
C1185 C 0.10627 0.57623 0.59178 0.0
C1186 C 0.10729 0.55763 0.58275 0.0
C1187 C 0.08982 0.58098 0.59158 0.0
C1188 C 0.09196 0.54499 0.57199 0.0
H1189 H 0.11508 0.49183 0.57008 0.0
N1190 N 0.07591 0.51402 0.55711 0.0
C1191 C 0.08737 0.4862 0.56068 0.0
C1192 C 0.09156 0.52579 0.56549 0.0
C1193 C 0.07325 0.49442 0.5565 0.0
C1194 C 0.10417 0.49819 0.56675 0.0
C1195 C 0.10629 0.51832 0.56998 0.0
O1196 O 0.03844 0.50485 0.55644 0.0
O1197 O 0.03671 0.52237 0.52144 0.0
O1198 O 0.03795 0.55817 0.5196 0.0
O1199 O 0.05552 0.55989 0.54793 0.0
O1200 O 0.02617 0.53004 0.54698 0.0
O1201 O 0.04277 0.53396 0.57421 0.0
O1202 O 0.06279 0.55972 0.49065 0.0
O1203 O 0.06292 0.54212 0.52466 0.0
O1204 O 0.06181 0.50648 0.52714 0.0
O1205 O 0.04576 0.50584 0.49799 0.0
O1206 O 0.0736 0.53528 0.49903 0.0
O1207 O 0.05472 0.5315 0.47088 0.0
C1208 C 0.02266 0.52369 0.52869 0.0
C1209 C 0.03454 0.50772 0.58993 0.0
C1210 C 0.02131 0.50696 0.61995 0.0
C1211 C 0.02422 0.51498 0.6036 0.0
C1212 C 0.02904 0.49179 0.62305 0.0
C1213 C 0.04229 0.49246 0.59286 0.0
C1214 C 0.03964 0.48465 0.60952 0.0
C1215 C 0.04534 0.56724 0.5371 0.0
C1216 C 0.03524 0.51553 0.57229 0.0
C1217 C 0.1222 0.53111 0.57885 0.0
C1218 C 0.12273 0.55085 0.58516 0.0
C1219 C 0.07685 0.54042 0.51747 0.0
C1220 C 0.06385 0.55911 0.457 0.0
C1221 C 0.06984 0.55017 0.4403 0.0
C1222 C 0.07324 0.55979 0.42496 0.0
C1223 C 0.06935 0.57805 0.42577 0.0
C1224 C 0.06061 0.5777 0.45809 0.0
C1225 C 0.06293 0.5869 0.44229 0.0
C1226 C 0.0564 0.49888 0.50862 0.0
C1227 C 0.06379 0.54956 0.47359 0.0
H1228 H 0.01789 0.52652 0.60121 0.0
H1229 H 0.02669 0.48541 0.63572 0.0
H1230 H 0.05001 0.48631 0.5823 0.0
H1231 H 0.04551 0.47282 0.61176 0.0
H1232 H 0.07288 0.53607 0.4397 0.0
H1233 H 0.07209 0.58587 0.41411 0.0
H1234 H 0.05691 0.58546 0.47117 0.0
H1235 H 0.06049 0.60124 0.44318 0.0
Tb1236 Tb 0.7755 0.79542 0.26636 0.0
C1237 C 0.83444 0.76904 0.30593 0.0
C1238 C 0.84676 0.79689 0.33159 0.0
C1239 C 0.84765 0.76455 0.33637 0.0
C1240 C 0.83797 0.78879 0.31286 0.0
C1241 C 0.83978 0.75674 0.31733 0.0
C1242 C 0.85109 0.78461 0.34351 0.0
C1243 C 0.83107 0.73036 0.28955 0.0
N1244 N 0.82696 0.76207 0.28746 0.0
C1245 C 0.82594 0.74314 0.27885 0.0
C1246 C 0.83771 0.73711 0.309 0.0
Tb1247 Tb 0.81862 0.78399 0.27121 0.0
N1248 N 0.83384 0.80015 0.30076 0.0
C1249 C 0.83964 0.81998 0.30608 0.0
C1250 C 0.85158 0.81709 0.33749 0.0
C1251 C 0.84835 0.82867 0.32451 0.0
H1252 H 0.82075 0.73789 0.2638 0.0
H1253 H 0.85243 0.84434 0.32872 0.0
H1254 H 0.85766 0.79054 0.35801 0.0
H1255 H 0.82985 0.71532 0.28281 0.0
H1256 H 0.83732 0.8295 0.29662 0.0
H1257 H 0.74272 0.73809 0.20573 0.0
H1258 H 0.85831 0.82387 0.35176 0.0
H1259 H 0.77112 0.84048 0.27723 0.0
H1260 H 0.75771 0.75128 0.23819 0.0
H1261 H 0.76215 0.86457 0.26027 0.0
H1262 H 0.85165 0.7553 0.34545 0.0
H1263 H 0.7367 0.76012 0.1844 0.0
H1264 H 0.73696 0.79416 0.18054 0.0
H1265 H 0.84171 0.72719 0.31726 0.0
H1266 H 0.74231 0.82886 0.19544 0.0
N1267 N 0.76087 0.78109 0.23602 0.0
C1268 C 0.75517 0.76138 0.22954 0.0
C1269 C 0.74338 0.76613 0.19884 0.0
C1270 C 0.74804 0.78617 0.20594 0.0
C1271 C 0.74665 0.75367 0.21086 0.0
C1272 C 0.75673 0.79323 0.22485 0.0
H1273 H 0.75144 0.85525 0.22534 0.0
N1274 N 0.7667 0.81826 0.25186 0.0
C1275 C 0.76157 0.85004 0.25239 0.0
C1276 C 0.7598 0.8126 0.2331 0.0
C1277 C 0.76665 0.8364 0.26193 0.0
C1278 C 0.7556 0.84475 0.23266 0.0
C1279 C 0.75419 0.82567 0.22288 0.0
O1280 O 0.76165 0.80572 0.2894 0.0
O1281 O 0.79718 0.79293 0.28548 0.0
O1282 O 0.79953 0.75985 0.28031 0.0
O1283 O 0.77234 0.76445 0.26876 0.0
O1284 O 0.78676 0.81687 0.29239 0.0
O1285 O 0.75007 0.77909 0.26979 0.0
O1286 O 0.83161 0.77244 0.248 0.0
O1287 O 0.79707 0.78669 0.25196 0.0
O1288 O 0.79424 0.82082 0.25941 0.0
O1289 O 0.82185 0.81454 0.26713 0.0
O1290 O 0.80672 0.76205 0.24584 0.0
O1291 O 0.84482 0.79851 0.26751 0.0
C1292 C 0.79821 0.8081 0.29812 0.0
C1293 C 0.73041 0.79654 0.28545 0.0
C1294 C 0.70333 0.79798 0.30141 0.0
C1295 C 0.71921 0.79156 0.29981 0.0
C1296 C 0.69883 0.80928 0.28849 0.0
C1297 C 0.72528 0.80738 0.27244 0.0
C1298 C 0.70965 0.81379 0.27404 0.0
C1299 C 0.78205 0.75356 0.27559 0.0
C1300 C 0.74782 0.79137 0.28484 0.0
C1301 C 0.74654 0.81902 0.20362 0.0
C1302 C 0.74349 0.79927 0.19514 0.0
C1303 C 0.7958 0.77123 0.23963 0.0
C1304 C 0.86296 0.77937 0.25054 0.0
C1305 C 0.87645 0.78785 0.23976 0.0
C1306 C 0.8917 0.78017 0.23704 0.0
C1307 C 0.89271 0.76359 0.24459 0.0
C1308 C 0.86502 0.76336 0.25838 0.0
C1309 C 0.87959 0.7554 0.25521 0.0
C1310 C 0.81188 0.82619 0.2624 0.0
C1311 C 0.84612 0.78595 0.25221 0.0
H1312 H 0.723 0.78312 0.30991 0.0
H1313 H 0.68677 0.81445 0.28945 0.0
H1314 H 0.73338 0.81105 0.26112 0.0
H1315 H 0.70593 0.82236 0.26407 0.0
H1316 H 0.87512 0.80029 0.23366 0.0
H1317 H 0.90375 0.75681 0.24223 0.0
H1318 H 0.85521 0.7567 0.26669 0.0
H1319 H 0.88069 0.74272 0.26099 0.0
Tb1320 Tb 0.80712 0.27808 0.74907 0.0
C1321 C 0.78564 0.33806 0.81312 0.0
C1322 C 0.81427 0.35688 0.82864 0.0
C1323 C 0.78831 0.37002 0.83331 0.0
C1324 C 0.80356 0.3396 0.81708 0.0
C1325 C 0.77783 0.35327 0.82121 0.0
C1326 C 0.80651 0.37186 0.83695 0.0
C1327 C 0.74967 0.33429 0.8051 0.0
N1328 N 0.77589 0.3218 0.80111 0.0
C1329 C 0.75792 0.31965 0.79747 0.0
C1330 C 0.75965 0.3512 0.81701 0.0
Tb1331 Tb 0.78961 0.29654 0.7932 0.0
N1332 N 0.8106 0.32467 0.80893 0.0
C1333 C 0.82877 0.3274 0.81058 0.0
C1334 C 0.83253 0.35889 0.83118 0.0
C1335 C 0.83982 0.34425 0.82178 0.0
H1336 H 0.7496 0.30638 0.789 0.0
H1337 H 0.85405 0.34597 0.823 0.0
H1338 H 0.81452 0.38507 0.84603 0.0
H1339 H 0.73552 0.33233 0.80201 0.0
H1340 H 0.83536 0.31716 0.80291 0.0
H1341 H 0.75095 0.22249 0.7117 0.0
H1342 H 0.84116 0.37194 0.83985 0.0
H1343 H 0.84978 0.27897 0.75481 0.0
H1344 H 0.7654 0.25342 0.7328 0.0
H1345 H 0.86937 0.2569 0.74535 0.0
H1346 H 0.7825 0.38174 0.83975 0.0
H1347 H 0.76829 0.19844 0.70038 0.0
H1348 H 0.79774 0.18958 0.69989 0.0
H1349 H 0.75319 0.3625 0.82303 0.0
H1350 H 0.82984 0.19865 0.70964 0.0
N1351 N 0.7913 0.24779 0.73353 0.0
C1352 C 0.77348 0.24351 0.72791 0.0
C1353 C 0.77485 0.21218 0.7097 0.0
C1354 C 0.79302 0.21653 0.71547 0.0
C1355 C 0.76504 0.22573 0.71599 0.0
C1356 C 0.80093 0.23466 0.72755 0.0
H1357 H 0.85662 0.22355 0.72688 0.0
N1358 N 0.82593 0.25758 0.74402 0.0
C1359 C 0.85516 0.25174 0.74205 0.0
C1360 C 0.81886 0.23967 0.73315 0.0
C1361 C 0.84399 0.26409 0.74765 0.0
C1362 C 0.84792 0.23296 0.7316 0.0
C1363 C 0.8296 0.22684 0.72666 0.0
O1364 O 0.82578 0.295 0.73525 0.0
O1365 O 0.80182 0.30242 0.76811 0.0
O1366 O 0.77262 0.30068 0.76839 0.0
O1367 O 0.782 0.28513 0.74014 0.0
O1368 O 0.82717 0.30426 0.76108 0.0
O1369 O 0.80115 0.2781 0.71938 0.0
O1370 O 0.76395 0.28199 0.79719 0.0
O1371 O 0.78826 0.2727 0.76941 0.0
O1372 O 0.8231 0.27272 0.77375 0.0
O1373 O 0.81445 0.28906 0.80264 0.0
O1374 O 0.78914 0.26716 0.79727 0.0
O1375 O 0.78309 0.29771 0.8217 0.0
C1376 C 0.81639 0.31399 0.76868 0.0
C1377 C 0.82565 0.28775 0.70165 0.0
C1378 C 0.83359 0.3014 0.67355 0.0
C1379 C 0.82188 0.29781 0.68749 0.0
C1380 C 0.84842 0.29321 0.67278 0.0
C1381 C 0.84052 0.27966 0.70096 0.0
C1382 C 0.85169 0.28212 0.68631 0.0
C1383 C 0.77076 0.29423 0.74923 0.0
C1384 C 0.81614 0.29017 0.7188 0.0
C1385 C 0.82181 0.20867 0.71484 0.0
C1386 C 0.80355 0.20353 0.70925 0.0
C1387 C 0.7879 0.25972 0.77915 0.0
C1388 C 0.75965 0.27273 0.82725 0.0
C1389 C 0.77047 0.26414 0.83774 0.0
C1390 C 0.76281 0.25147 0.84937 0.0
C1391 C 0.74446 0.24734 0.85055 0.0
C1392 C 0.74129 0.26852 0.82843 0.0
C1393 C 0.73373 0.25584 0.84006 0.0
C1394 C 0.82525 0.27963 0.79283 0.0
C1395 C 0.76704 0.28715 0.81601 0.0
H1396 H 0.8104 0.30408 0.68824 0.0
H1397 H 0.85782 0.29599 0.66228 0.0
H1398 H 0.84386 0.27213 0.71201 0.0
H1399 H 0.86332 0.27618 0.68596 0.0
H1400 H 0.78471 0.26748 0.83715 0.0
H1401 H 0.7385 0.23772 0.85979 0.0
H1402 H 0.73285 0.2753 0.82056 0.0
H1403 H 0.71959 0.25278 0.8411 0.0
Tb1404 Tb 0.81572 0.81975 0.78573 0.0
C1405 C 0.74772 0.75392 0.75636 0.0
C1406 C 0.73713 0.74553 0.78599 0.0
C1407 C 0.7175 0.7351 0.75617 0.0
C1408 C 0.75095 0.75414 0.77584 0.0
C1409 C 0.73094 0.74432 0.74629 0.0
C1410 C 0.72057 0.73576 0.776 0.0
C1411 C 0.74203 0.75261 0.71704 0.0
N1412 N 0.76109 0.76278 0.74718 0.0
C1413 C 0.75841 0.76173 0.72751 0.0
C1414 C 0.72821 0.74386 0.72646 0.0
Tb1415 Tb 0.78903 0.77183 0.76404 0.0
N1416 N 0.76736 0.76328 0.78495 0.0
C1417 C 0.76964 0.76623 0.8049 0.0
C1418 C 0.74019 0.74722 0.80595 0.0
C1419 C 0.75636 0.75805 0.81549 0.0
H1420 H 0.76907 0.76699 0.71935 0.0
H1421 H 0.75862 0.76029 0.83112 0.0
H1422 H 0.70997 0.72884 0.78353 0.0
H1423 H 0.74027 0.75184 0.70155 0.0
H1424 H 0.78133 0.7754 0.81335 0.0
H1425 H 0.85915 0.83195 0.72936 0.0
H1426 H 0.72994 0.74086 0.81422 0.0
H1427 H 0.82356 0.83128 0.83292 0.0
H1428 H 0.83108 0.82086 0.74196 0.0
H1429 H 0.84927 0.84452 0.8577 0.0
H1430 H 0.70465 0.7275 0.74861 0.0
H1431 H 0.88675 0.84421 0.75146 0.0
H1432 H 0.90152 0.85281 0.78547 0.0
H1433 H 0.7156 0.7365 0.71823 0.0
H1434 H 0.89894 0.85579 0.82047 0.0
N1435 N 0.84189 0.82685 0.77169 0.0
C1436 C 0.84264 0.82648 0.75223 0.0
C1437 C 0.87429 0.8394 0.75727 0.0
C1438 C 0.87353 0.84018 0.77713 0.0
C1439 C 0.85875 0.83261 0.74479 0.0
C1440 C 0.85696 0.83372 0.78393 0.0
H1441 H 0.87952 0.85263 0.84757 0.0
N1442 N 0.83922 0.82972 0.80922 0.0
C1443 C 0.8513 0.84167 0.84249 0.0
C1444 C 0.85557 0.83512 0.80344 0.0
C1445 C 0.8368 0.83389 0.82845 0.0
C1446 C 0.86833 0.84624 0.83672 0.0
C1447 C 0.87061 0.8434 0.81696 0.0
O1448 O 0.805 0.84079 0.80236 0.0
O1449 O 0.78958 0.80084 0.77768 0.0
O1450 O 0.78518 0.79162 0.74492 0.0
O1451 O 0.80555 0.82112 0.75663 0.0
O1452 O 0.79577 0.81564 0.80587 0.0
O1453 O 0.81925 0.84745 0.77831 0.0
O1454 O 0.79547 0.76017 0.73642 0.0
O1455 O 0.81369 0.79308 0.76556 0.0
O1456 O 0.82128 0.79987 0.80467 0.0
O1457 O 0.80144 0.7693 0.79194 0.0
O1458 O 0.81481 0.76477 0.76682 0.0
O1459 O 0.78151 0.7418 0.75461 0.0
C1460 C 0.7832 0.80476 0.79338 0.0
C1461 C 0.8164 0.87372 0.80286 0.0
C1462 C 0.81005 0.90555 0.80872 0.0
C1463 C 0.80799 0.88721 0.79702 0.0
C1464 C 0.82093 0.91067 0.82627 0.0
C1465 C 0.82765 0.87895 0.82022 0.0
C1466 C 0.82995 0.89744 0.83183 0.0
C1467 C 0.79373 0.80912 0.74322 0.0
C1468 C 0.81042 0.85373 0.79217 0.0
C1469 C 0.88723 0.8494 0.81032 0.0
C1470 C 0.8887 0.84775 0.79041 0.0
C1471 C 0.82395 0.78194 0.7666 0.0
C1472 C 0.79771 0.72758 0.73149 0.0
C1473 C 0.80615 0.71965 0.7449 0.0
C1474 C 0.81233 0.7031 0.73863 0.0
C1475 C 0.81074 0.69477 0.71884 0.0
C1476 C 0.79631 0.7195 0.71164 0.0
C1477 C 0.80294 0.70317 0.70533 0.0
C1478 C 0.81351 0.78153 0.80545 0.0
C1479 C 0.7883 0.74249 0.73814 0.0
H1480 H 0.7989 0.88302 0.78386 0.0
H1481 H 0.82234 0.92477 0.83557 0.0
H1482 H 0.83422 0.86873 0.82508 0.0
H1483 H 0.83838 0.90134 0.84538 0.0
H1484 H 0.80702 0.72561 0.7603 0.0
H1485 H 0.81546 0.68181 0.71392 0.0
H1486 H 0.78962 0.72547 0.70113 0.0
H1487 H 0.80165 0.69675 0.69005 0.0
Tb1488 Tb 0.52484 0.52425 0.50591 0.0
C1489 C 0.57889 0.59199 0.54444 0.0
C1490 C 0.58889 0.60831 0.51863 0.0
C1491 C 0.58721 0.62735 0.55024 0.0
C1492 C 0.5823 0.59103 0.52543 0.0
C1493 C 0.58248 0.61016 0.55738 0.0
C1494 C 0.5903 0.62641 0.53079 0.0
C1495 C 0.58073 0.59318 0.58385 0.0
N1496 N 0.57497 0.57509 0.55089 0.0
C1497 C 0.57725 0.57562 0.57047 0.0
C1498 C 0.58276 0.61054 0.57727 0.0
Tb1499 Tb 0.56835 0.54669 0.5276 0.0
N1500 N 0.58181 0.57326 0.51459 0.0
C1501 C 0.59079 0.57237 0.49828 0.0
C1502 C 0.59536 0.60694 0.5005 0.0
C1503 C 0.59689 0.58892 0.49059 0.0
H1504 H 0.57566 0.56241 0.57606 0.0
H1505 H 0.60322 0.58781 0.47729 0.0
H1506 H 0.59505 0.63977 0.5257 0.0
H1507 H 0.58184 0.59327 0.59925 0.0
H1508 H 0.59377 0.55908 0.49103 0.0
H1509 H 0.50939 0.47433 0.55471 0.0
H1510 H 0.6005 0.61982 0.49477 0.0
H1511 H 0.51655 0.51816 0.45835 0.0
H1512 H 0.52075 0.50581 0.54616 0.0
H1513 H 0.50439 0.49105 0.43063 0.0
H1514 H 0.58967 0.6414 0.55989 0.0
H1515 H 0.49807 0.44511 0.52899 0.0
H1516 H 0.49094 0.43056 0.49352 0.0
H1517 H 0.58568 0.62417 0.58767 0.0
H1518 H 0.4899 0.43502 0.45972 0.0
N1519 N 0.51635 0.49507 0.51556 0.0
C1520 C 0.51583 0.49346 0.5346 0.0
C1521 C 0.50317 0.45902 0.52507 0.0
C1522 C 0.50325 0.46077 0.50564 0.0
C1523 C 0.50946 0.47547 0.53961 0.0
C1524 C 0.51008 0.4792 0.50132 0.0
H1525 H 0.49501 0.45748 0.43612 0.0
N1526 N 0.51559 0.49986 0.47906 0.0
C1527 C 0.50601 0.48817 0.44508 0.0
C1528 C 0.50975 0.48166 0.48239 0.0
C1529 C 0.51299 0.50345 0.46078 0.0
C1530 C 0.50074 0.46924 0.44824 0.0
C1531 C 0.50223 0.46584 0.46711 0.0
O1532 O 0.50671 0.53766 0.49379 0.0
O1533 O 0.54401 0.55177 0.51636 0.0
O1534 O 0.55049 0.5487 0.55159 0.0
O1535 O 0.52184 0.53611 0.53652 0.0
O1536 O 0.53155 0.54693 0.4889 0.0
O1537 O 0.49923 0.52021 0.51503 0.0
O1538 O 0.58061 0.53728 0.55038 0.0
O1539 O 0.54674 0.52103 0.52395 0.0
O1540 O 0.54245 0.51553 0.48365 0.0
O1541 O 0.56845 0.53878 0.49544 0.0
O1542 O 0.57076 0.51707 0.51669 0.0
O1543 O 0.59489 0.54594 0.52655 0.0
C1544 C 0.54252 0.55956 0.5018 0.0
C1545 C 0.47654 0.52352 0.49327 0.0
C1546 C 0.44726 0.52898 0.48846 0.0
C1547 C 0.46424 0.53449 0.49816 0.0
C1548 C 0.44248 0.51243 0.47361 0.0
C1549 C 0.47181 0.5068 0.47856 0.0
C1550 C 0.45482 0.5014 0.46863 0.0
C1551 C 0.53296 0.54441 0.55228 0.0
C1552 C 0.49417 0.53065 0.50363 0.0
C1553 C 0.49574 0.44735 0.47125 0.0
C1554 C 0.49628 0.44481 0.49049 0.0
C1555 C 0.55505 0.50799 0.51858 0.0
C1556 C 0.61236 0.54484 0.5545 0.0
C1557 C 0.62662 0.53987 0.54545 0.0
C1558 C 0.6426 0.54127 0.55618 0.0
C1559 C 0.64475 0.54911 0.57616 0.0
C1560 C 0.6143 0.55224 0.57452 0.0
C1561 C 0.63064 0.55471 0.58524 0.0
C1562 C 0.55854 0.5253 0.48124 0.0
C1563 C 0.59547 0.53926 0.54249 0.0
H1564 H 0.46787 0.54738 0.50962 0.0
H1565 H 0.42933 0.5082 0.46589 0.0
H1566 H 0.48102 0.49792 0.47478 0.0
H1567 H 0.45122 0.48863 0.45713 0.0
H1568 H 0.62495 0.5339 0.52999 0.0
H1569 H 0.65702 0.55019 0.58482 0.0
H1570 H 0.60329 0.55566 0.58194 0.0
H1571 H 0.63219 0.56034 0.6007 0.0
Tb1572 Tb 0.07322 0.542 0.00849 0.0
C1573 C 0.01183 0.5035 0.04108 0.0
C1574 C 0.99742 0.47748 0.01441 0.0
C1575 C 0.99717 0.47192 0.04731 0.0
C1576 C 0.00738 0.49672 0.02143 0.0
C1577 C 0.00602 0.4914 0.05428 0.0
C1578 C 0.99294 0.46494 0.02737 0.0
C1579 C 0.01533 0.51936 0.08023 0.0
N1580 N 0.02015 0.52248 0.04732 0.0
C1581 C 0.02076 0.53074 0.06661 0.0
C1582 C 0.00833 0.49949 0.07409 0.0
Tb1583 Tb 0.0293 0.53963 0.02344 0.0
N1584 N 0.01163 0.50937 0.00934 0.0
C1585 C 0.00463 0.504 0.99027 0.0
C1586 C 0.99159 0.47161 0.99469 0.0
C1587 C 0.99485 0.48507 0.98267 0.0
H1588 H 0.02571 0.54622 0.07174 0.0
H1589 H 0.9898 0.48091 0.9675 0.0
H1590 H 0.98553 0.45007 0.0222 0.0
H1591 H 0.01637 0.52599 0.09543 0.0
H1592 H 0.0063 0.51399 0.98051 0.0
H1593 H 0.10716 0.60465 0.0623 0.0
H1594 H 0.98398 0.45696 0.98875 0.0
H1595 H 0.07782 0.52985 0.96171 0.0
H1596 H 0.08915 0.57122 0.05061 0.0
H1597 H 0.0903 0.54626 0.93589 0.0
H1598 H 0.99287 0.46237 0.05723 0.0
H1599 H 0.11864 0.62478 0.03874 0.0
H1600 H 0.12205 0.62734 0.0039 0.0
H1601 H 0.00393 0.49072 0.08465 0.0
H1602 H 0.1172 0.61151 0.96936 0.0
N1603 N 0.09013 0.57252 0.02084 0.0
C1604 C 0.09412 0.57983 0.04025 0.0
C1605 C 0.11077 0.61011 0.03357 0.0
C1606 C 0.10734 0.60218 0.01371 0.0
C1607 C 0.10435 0.59877 0.04691 0.0
C1608 C 0.09695 0.58306 0.00777 0.0
H1609 H 0.10544 0.58117 0.94381 0.0
N1610 N 0.08469 0.55558 0.98359 0.0
C1611 C 0.09131 0.55438 0.95058 0.0
C1612 C 0.09409 0.57429 0.98843 0.0
C1613 C 0.08419 0.54515 0.96518 0.0
C1614 C 0.09982 0.57409 0.95511 0.0
C1615 C 0.1017 0.58419 0.97433 0.0
O1616 O 0.08474 0.51892 0.9977 0.0
O1617 O 0.04853 0.52321 0.01339 0.0
O1618 O 0.04777 0.54467 0.04935 0.0
O1619 O 0.07248 0.53531 0.03723 0.0
O1620 O 0.0592 0.51602 0.9878 0.0
O1621 O 0.09825 0.54152 0.0214 0.0
O1622 O 0.01811 0.55906 0.04189 0.0
O1623 O 0.05599 0.55785 0.02431 0.0
O1624 O 0.05862 0.55139 0.98654 0.0
O1625 O 0.0293 0.53967 0.99259 0.0
O1626 O 0.03479 0.56896 0.0179 0.0
O1627 O 0.00442 0.54354 0.01399 0.0
C1628 C 0.04671 0.51025 0.99813 0.0
C1629 C 0.11576 0.52465 0.00157 0.0
C1630 C 0.14132 0.51042 0.99964 0.0
C1631 C 0.12555 0.51226 0.00766 0.0
C1632 C 0.14705 0.52062 0.98512 0.0
C1633 C 0.12185 0.53516 0.98737 0.0
C1634 C 0.13727 0.53289 0.97897 0.0
C1635 C 0.06254 0.53881 0.05129 0.0
C1636 C 0.09895 0.52558 0.00972 0.0
C1637 C 0.11141 0.60355 0.98 0.0
C1638 C 0.11421 0.61255 0.99967 0.0
C1639 C 0.05169 0.57285 0.0204 0.0
C1640 C 0.98713 0.55653 0.0373 0.0
C1641 C 0.9774 0.56932 0.03178 0.0
C1642 C 0.96167 0.57113 0.03998 0.0
C1643 C 0.95566 0.55978 0.05361 0.0
C1644 C 0.9808 0.54507 0.05065 0.0
C1645 C 0.96513 0.54677 0.05879 0.0
C1646 C 0.0414 0.5471 0.98192 0.0
C1647 C 0.00422 0.55638 0.02956 0.0
H1648 H 0.12104 0.50421 0.01877 0.0
H1649 H 0.1591 0.51912 0.97865 0.0
H1650 H 0.11486 0.54514 0.98279 0.0
H1651 H 0.14176 0.5408 0.96781 0.0
H1652 H 0.98233 0.57823 0.02148 0.0
H1653 H 0.94351 0.56079 0.06007 0.0
H1654 H 0.98796 0.53496 0.05486 0.0
H1655 H 0.96032 0.53801 0.0692 0.0
C1656 C 0.03242 0.22371 0.97874 0.0
C1657 C 0.02376 0.22337 0.96054 0.0
C1658 C 0.03336 0.20643 0.98491 0.0
C1659 C 0.01499 0.152 0.9727 0.0
H1660 H 0.05628 0.152 0.00628 0.0
C1661 C 0.03086 0.08051 0.98691 0.0
C1662 C 0.03529 0.07962 0.00626 0.0
C1663 C 0.03013 0.09824 0.9817 0.0
C1664 C 0.04461 0.15177 0.997 0.0
H1665 H 0.00911 0.20426 0.93465 0.0
H1666 H 0.01125 0.17422 0.94493 0.0
H1667 H 0.05321 0.182 0.99653 0.0
H1668 H 0.0422 0.09653 0.03541 0.0
H1669 H 0.04178 0.12781 0.02622 0.0
H1670 H 0.00676 0.12155 0.97278 0.0
C1671 C 0.01696 0.18782 0.95484 0.0
C1672 C 0.04273 0.16908 0.99144 0.0
C1673 C 0.01577 0.20515 0.94882 0.0
C1674 C 0.03922 0.0969 0.0203 0.0
C1675 C 0.03889 0.11477 0.01503 0.0
C1676 C 0.01703 0.13467 0.97802 0.0
C1677 C 0.02595 0.18811 0.97294 0.0
C1678 C 0.02787 0.16956 0.97915 0.0
C1679 C 0.03391 0.11561 0.9957 0.0
C1680 C 0.03187 0.13426 0.99021 0.0
H1681 H 0.03862 0.23742 0.98828 0.0
H1682 H 0.03997 0.20757 0.99914 0.0
H1683 H 0.00313 0.15156 0.96367 0.0
H1684 H 0.02739 0.06733 0.97588 0.0
H1685 H 0.02639 0.09831 0.96669 0.0
C1686 C 0.13632 0.81808 0.16225 0.0
C1687 C 0.13388 0.80975 0.14231 0.0
C1688 C 0.15147 0.81747 0.17395 0.0
C1689 C 0.1876 0.7904 0.17471 0.0
H1690 H 0.21024 0.83276 0.21688 0.0
C1691 C 0.25379 0.7898 0.217 0.0
C1692 C 0.25663 0.79766 0.23705 0.0
C1693 C 0.23933 0.79211 0.20551 0.0
C1694 C 0.20402 0.82063 0.20533 0.0
H1695 H 0.14597 0.79464 0.11917 0.0
H1696 H 0.17211 0.79388 0.13921 0.0
H1697 H 0.18421 0.8352 0.19736 0.0
H1698 H 0.24654 0.81508 0.26018 0.0
H1699 H 0.22111 0.81832 0.24066 0.0
H1700 H 0.20717 0.7757 0.1827 0.0
C1701 C 0.16224 0.80055 0.14605 0.0
C1702 C 0.18899 0.82206 0.19406 0.0
C1703 C 0.14719 0.80114 0.13444 0.0
C1704 C 0.24472 0.80832 0.24506 0.0
C1705 C 0.23015 0.81048 0.23364 0.0
C1706 C 0.20255 0.78894 0.18599 0.0
C1707 C 0.1646 0.80848 0.16607 0.0
C1708 C 0.18054 0.80699 0.17848 0.0
C1709 C 0.22707 0.80228 0.21366 0.0
C1710 C 0.21109 0.80403 0.20149 0.0
H1711 H 0.12639 0.82479 0.1689 0.0
H1712 H 0.15264 0.82365 0.18928 0.0
H1713 H 0.18138 0.77824 0.16318 0.0
H1714 H 0.26268 0.78165 0.21008 0.0
H1715 H 0.23784 0.78593 0.19016 0.0
C1716 C 0.53019 0.83408 0.48315 0.0
C1717 C 0.52181 0.82327 0.46507 0.0
C1718 C 0.53119 0.85407 0.48832 0.0
C1719 C 0.5119 0.89418 0.47599 0.0
H1720 H 0.55604 0.92665 0.50321 0.0
C1721 C 0.53285 0.97922 0.4868 0.0
C1722 C 0.54191 0.98939 0.50476 0.0
C1723 C 0.52777 0.95879 0.48277 0.0
C1724 C 0.54352 0.9178 0.49585 0.0
H1725 H 0.50734 0.82511 0.43851 0.0
H1726 H 0.50907 0.85992 0.44751 0.0
H1727 H 0.55264 0.89169 0.49438 0.0
H1728 H 0.55333 0.98607 0.53225 0.0
H1729 H 0.5444 0.95068 0.52549 0.0
H1730 H 0.50303 0.92061 0.47717 0.0
C1731 C 0.5149 0.85295 0.45775 0.0
C1732 C 0.54155 0.89766 0.49078 0.0
C1733 C 0.514 0.83295 0.45252 0.0
C1734 C 0.54559 0.97871 0.51867 0.0
C1735 C 0.54076 0.95838 0.51462 0.0
C1736 C 0.51393 0.91442 0.481 0.0
C1737 C 0.52374 0.86389 0.47562 0.0
C1738 C 0.52569 0.88548 0.48087 0.0
C1739 C 0.53226 0.94809 0.4964 0.0
C1740 C 0.52974 0.92649 0.49112 0.0
H1741 H 0.53632 0.82717 0.49323 0.0
H1742 H 0.53783 0.86184 0.50235 0.0
H1743 H 0.49943 0.88532 0.46854 0.0
H1744 H 0.53077 0.98697 0.47539 0.0
H1745 H 0.52143 0.95136 0.46851 0.0
C1746 C 0.5287 0.30487 0.6579 0.0
C1747 C 0.52836 0.31146 0.64032 0.0
C1748 C 0.51364 0.30244 0.66819 0.0
C1749 C 0.46971 0.3158 0.67282 0.0
H1750 H 0.45967 0.27167 0.6981 0.0
C1751 C 0.40334 0.28927 0.70746 0.0
C1752 C 0.40526 0.28247 0.7248 0.0
C1753 C 0.41815 0.2948 0.69729 0.0
C1754 C 0.46233 0.28421 0.69131 0.0
H1755 H 0.51179 0.32102 0.62007 0.0
H1756 H 0.48572 0.31674 0.63784 0.0
H1757 H 0.48566 0.27702 0.68039 0.0
H1758 H 0.4245 0.27773 0.74574 0.0
H1759 H 0.45004 0.28738 0.7283 0.0
H1760 H 0.44604 0.32269 0.68364 0.0
C1761 C 0.49762 0.31355 0.64384 0.0
C1762 C 0.47735 0.28733 0.68115 0.0
C1763 C 0.51262 0.31588 0.63353 0.0
C1764 C 0.42246 0.28258 0.73229 0.0
C1765 C 0.43713 0.288 0.7222 0.0
C1766 C 0.45456 0.31259 0.68295 0.0
C1767 C 0.49779 0.3066 0.66126 0.0
C1768 C 0.48145 0.30328 0.67189 0.0
C1769 C 0.43518 0.29357 0.70423 0.0
C1770 C 0.45079 0.29687 0.69257 0.0
H1771 H 0.54054 0.30131 0.66361 0.0
H1772 H 0.51449 0.29735 0.68167 0.0
H1773 H 0.47239 0.32833 0.66603 0.0
H1774 H 0.39029 0.28929 0.70121 0.0
H1775 H 0.41613 0.29908 0.68353 0.0
C1776 C 0.01408 0.81956 0.63477 0.0
C1777 C 0.00708 0.8009 0.62357 0.0
C1778 C 0.0172 0.83564 0.62596 0.0
C1779 C 0.00386 0.8529 0.58328 0.0
H1780 H 0.05099 0.8869 0.59179 0.0
C1781 C 0.0306 0.90237 0.53153 0.0
C1782 C 0.0412 0.92088 0.53941 0.0
C1783 C 0.0249 0.88938 0.54353 0.0
C1784 C 0.03768 0.87777 0.58958 0.0
H1785 H 0.99743 0.78421 0.59471 0.0
H1786 H 0.00248 0.81249 0.57928 0.0
H1787 H 0.04383 0.86071 0.60977 0.0
H1788 H 0.0539 0.94073 0.56587 0.0
H1789 H 0.04402 0.91781 0.587 0.0
H1790 H 0.99776 0.86972 0.56288 0.0
C1791 C 0.00567 0.81463 0.5948 0.0
C1792 C 0.03361 0.8628 0.5998 0.0
C1793 C 0.00289 0.79851 0.60356 0.0
C1794 C 0.04574 0.92644 0.55953 0.0
C1795 C 0.04017 0.91337 0.57155 0.0
C1796 C 0.00789 0.86792 0.57314 0.0
C1797 C 0.013 0.83326 0.60592 0.0
C1798 C 0.01678 0.85006 0.59644 0.0
C1799 C 0.02981 0.89467 0.5636 0.0
C1800 C 0.02493 0.88024 0.57592 0.0
H1801 H 0.01754 0.82166 0.65024 0.0
H1802 H 0.02286 0.84991 0.63477 0.0
H1803 H 0.99072 0.84335 0.58069 0.0
H1804 H 0.02679 0.89795 0.51606 0.0
H1805 H 0.01708 0.87499 0.53702 0.0
C1806 C 0.53151 0.82244 0.87798 0.0
C1807 C 0.54221 0.81291 0.86625 0.0
C1808 C 0.51517 0.82414 0.87022 0.0
C1809 C 0.49056 0.82223 0.82357 0.0
H1810 H 0.4492 0.81401 0.85207 0.0
C1811 C 0.42162 0.81304 0.78659 0.0
C1812 C 0.41123 0.82469 0.79606 0.0
C1813 C 0.43684 0.81084 0.7964 0.0
C1814 C 0.4607 0.81645 0.84406 0.0
H1815 H 0.54423 0.79752 0.8373 0.0
H1816 H 0.51556 0.80007 0.82388 0.0
H1817 H 0.47785 0.8122 0.8669 0.0
H1818 H 0.40773 0.84245 0.82315 0.0
H1819 H 0.43487 0.83906 0.84037 0.0
H1820 H 0.47345 0.82624 0.80068 0.0
C1821 C 0.51992 0.80657 0.83897 0.0
C1822 C 0.47706 0.81549 0.85253 0.0
C1823 C 0.53627 0.80498 0.84668 0.0
C1824 C 0.41576 0.83352 0.81566 0.0
C1825 C 0.43113 0.83148 0.82547 0.0
C1826 C 0.47425 0.82305 0.8151 0.0
C1827 C 0.50926 0.81626 0.85063 0.0
C1828 C 0.49208 0.81815 0.84223 0.0
C1829 C 0.44196 0.82046 0.81574 0.0
C1830 C 0.45916 0.81995 0.82517 0.0
H1831 H 0.53584 0.82883 0.89309 0.0
H1832 H 0.50732 0.8319 0.87947 0.0
H1833 H 0.502 0.82482 0.81549 0.0
H1834 H 0.41802 0.8058 0.77157 0.0
H1835 H 0.4448 0.80191 0.78877 0.0
C1836 C 0.49991 0.21261 0.09506 0.0
C1837 C 0.48872 0.21338 0.1099 0.0
C1838 C 0.50481 0.19541 0.08811 0.0
C1839 C 0.49443 0.14337 0.08436 0.0
H1840 H 0.54552 0.15043 0.08612 0.0
C1841 C 0.5275 0.08 0.06379 0.0
C1842 C 0.53918 0.08292 0.04967 0.0
C1843 C 0.5215 0.09551 0.07353 0.0
C1844 C 0.53126 0.14834 0.08561 0.0
H1845 H 0.47257 0.19688 0.12804 0.0
H1846 H 0.48074 0.16643 0.11531 0.0
H1847 H 0.53298 0.17829 0.09714 0.0
H1848 H 0.55449 0.10361 0.03476 0.0
H1849 H 0.54398 0.1311 0.05189 0.0
H1850 H 0.4927 0.11349 0.0724 0.0
C1851 C 0.48588 0.17915 0.10933 0.0
C1852 C 0.52412 0.16416 0.09179 0.0
C1853 C 0.48118 0.19643 0.11648 0.0
C1854 C 0.54532 0.10134 0.04559 0.0
C1855 C 0.53947 0.11692 0.05547 0.0
C1856 C 0.50158 0.12752 0.07814 0.0
C1857 C 0.49833 0.17885 0.09577 0.0
C1858 C 0.50568 0.16183 0.09067 0.0
C1859 C 0.52736 0.11401 0.0693 0.0
C1860 C 0.52001 0.13006 0.07829 0.0
H1861 H 0.50604 0.22561 0.09001 0.0
H1862 H 0.51428 0.19527 0.07743 0.0
H1863 H 0.48017 0.14138 0.08353 0.0
H1864 H 0.52279 0.06569 0.067 0.0
H1865 H 0.51221 0.09307 0.08422 0.0
C1866 C 0.14209 0.32252 0.3366 0.0
C1867 C 0.14351 0.32121 0.35623 0.0
C1868 C 0.15674 0.32291 0.32617 0.0
C1869 C 0.19266 0.30041 0.32477 0.0
H1870 H 0.21348 0.33462 0.29131 0.0
C1871 C 0.26166 0.30766 0.30347 0.0
C1872 C 0.26504 0.30917 0.28452 0.0
C1873 C 0.24466 0.30615 0.30876 0.0
C1874 C 0.20737 0.32469 0.30017 0.0
H1875 H 0.16149 0.32132 0.38097 0.0
H1876 H 0.18713 0.32152 0.36249 0.0
H1877 H 0.18906 0.34194 0.30956 0.0
H1878 H 0.25413 0.31081 0.25613 0.0
H1879 H 0.22384 0.30879 0.26566 0.0
H1880 H 0.21111 0.28338 0.3158 0.0
C1881 C 0.17465 0.32216 0.35526 0.0
C1882 C 0.1937 0.32903 0.31075 0.0
C1883 C 0.16005 0.32202 0.36576 0.0
C1884 C 0.25145 0.30943 0.27079 0.0
C1885 C 0.23431 0.30817 0.27616 0.0
C1886 C 0.20617 0.29599 0.31411 0.0
C1887 C 0.17281 0.32176 0.33528 0.0
C1888 C 0.18672 0.31721 0.32353 0.0
C1889 C 0.23095 0.30672 0.29525 0.0
C1890 C 0.21397 0.30845 0.30225 0.0
H1891 H 0.12949 0.32237 0.32909 0.0
H1892 H 0.1552 0.32269 0.31076 0.0
H1893 H 0.18701 0.29087 0.33422 0.0
H1894 H 0.27228 0.30805 0.3143 0.0
H1895 H 0.24242 0.30553 0.32369 0.0
C1896 C 0.95438 0.05842 0.2059 0.0
C1897 C 0.96308 0.07369 0.22126 0.0
C1898 C 0.96132 0.05536 0.18759 0.0
C1899 C 0.99591 0.08001 0.15728 0.0
H1900 H 0.98499 0.02916 0.1238 0.0
C1901 C 0.03017 0.06405 0.08492 0.0
C1902 C 0.02047 0.05051 0.06869 0.0
C1903 C 0.02335 0.06695 0.10323 0.0
C1904 C 0.98813 0.04359 0.13276 0.0
H1905 H 0.98649 0.09743 0.22865 0.0
H1906 H 0.99847 0.092 0.19768 0.0
H1907 H 0.97321 0.03354 0.15522 0.0
H1908 H 0.99505 0.03012 0.05976 0.0
H1909 H 0.98345 0.03486 0.09126 0.0
H1910 H 0.01105 0.08995 0.13488 0.0
C1911 C 0.98601 0.08249 0.19929 0.0
C1912 C 0.98123 0.04616 0.15105 0.0
C1913 C 0.97909 0.08555 0.21746 0.0
C1914 C 0.00334 0.04043 0.07164 0.0
C1915 C 0.99661 0.04312 0.09 0.0
C1916 C 0.00292 0.07739 0.13907 0.0
C1917 C 0.97731 0.0674 0.18373 0.0
C1918 C 0.98485 0.06448 0.16385 0.0
C1919 C 0.00646 0.05636 0.10633 0.0
C1920 C 0.99914 0.05914 0.12625 0.0
H1921 H 0.94208 0.04885 0.20794 0.0
H1922 H 0.95383 0.04363 0.17633 0.0
H1923 H 0.99901 0.09452 0.16604 0.0
H1924 H 0.04316 0.07254 0.08358 0.0
H1925 H 0.03159 0.07731 0.11511 0.0
C1926 C 0.26945 0.64632 0.45581 0.0
C1927 C 0.27662 0.65453 0.47496 0.0
C1928 C 0.26931 0.65814 0.44228 0.0
C1929 C 0.29342 0.70473 0.43335 0.0
H1930 H 0.25505 0.69537 0.39269 0.0
C1931 C 0.28149 0.75418 0.38054 0.0
C1932 C 0.27394 0.74434 0.36192 0.0
C1933 C 0.28608 0.7437 0.39398 0.0
C1934 C 0.26596 0.69789 0.40383 0.0
H1935 H 0.28805 0.68153 0.49545 0.0
H1936 H 0.28759 0.70211 0.47183 0.0
H1937 H 0.25168 0.67667 0.41825 0.0
H1938 H 0.26715 0.71686 0.34161 0.0
H1939 H 0.27541 0.69842 0.3651 0.0
H1940 H 0.30743 0.72642 0.41905 0.0
C1941 C 0.28259 0.68655 0.46716 0.0
C1942 C 0.26399 0.68729 0.41845 0.0
C1943 C 0.28282 0.67476 0.48064 0.0
C1944 C 0.27302 0.72452 0.356 0.0
C1945 C 0.27763 0.71406 0.36937 0.0
C1946 C 0.29531 0.71549 0.41878 0.0
C1947 C 0.27625 0.67828 0.44781 0.0
C1948 C 0.27779 0.69045 0.43317 0.0
C1949 C 0.28301 0.72342 0.38871 0.0
C1950 C 0.2817 0.71185 0.40379 0.0
H1951 H 0.26427 0.6308 0.45118 0.0
H1952 H 0.26437 0.65142 0.42738 0.0
H1953 H 0.30432 0.70728 0.4445 0.0
H1954 H 0.28213 0.76954 0.3852 0.0
H1955 H 0.2902 0.75112 0.40888 0.0
C1956 C 0.63056 0.01015 0.69789 0.0
C1957 C 0.64257 0.02743 0.70688 0.0
C1958 C 0.62107 0.00924 0.68034 0.0
C1959 C 0.6235 0.03371 0.63918 0.0
H1960 H 0.57356 0.0082 0.62803 0.0
C1961 C 0.58069 0.05037 0.58064 0.0
C1962 C 0.56881 0.03484 0.56839 0.0
C1963 C 0.58939 0.04728 0.597 0.0
C1964 C 0.58758 0.01504 0.63084 0.0
H1965 H 0.6536 0.05754 0.7058 0.0
H1966 H 0.6361 0.05635 0.67559 0.0
H1967 H 0.58929 0.00731 0.65856 0.0
H1968 H 0.55548 0.00441 0.56382 0.0
H1969 H 0.57123 0.99872 0.59246 0.0
H1970 H 0.62166 0.04186 0.61167 0.0
C1971 C 0.6345 0.04334 0.68164 0.0
C1972 C 0.59654 0.01457 0.64826 0.0
C1973 C 0.64423 0.04414 0.69898 0.0
C1974 C 0.56482 0.01644 0.57312 0.0
C1975 C 0.57378 0.01323 0.58938 0.0
C1976 C 0.61454 0.03418 0.62179 0.0
C1977 C 0.62333 0.0257 0.6719 0.0
C1978 C 0.61438 0.02445 0.65278 0.0
C1979 C 0.58642 0.02857 0.6011 0.0
C1980 C 0.5964 0.02541 0.61787 0.0
H1981 H 0.6295 0.99703 0.70366 0.0
H1982 H 0.61264 0.99546 0.67295 0.0
H1983 H 0.63743 0.04091 0.64216 0.0
H1984 H 0.58347 0.06481 0.57742 0.0
H1985 H 0.5986 0.05947 0.6063 0.0
C1986 C 0.32221 0.36108 0.97093 0.0
C1987 C 0.30773 0.35814 0.98187 0.0
C1988 C 0.32071 0.35181 0.9516 0.0
C1989 C 0.28785 0.32594 0.90962 0.0
H1990 H 0.33053 0.31601 0.88799 0.0
C1991 C 0.29723 0.29196 0.82871 0.0
C1992 C 0.30332 0.30809 0.82023 0.0
C1993 C 0.29736 0.29436 0.84888 0.0
C1994 C 0.31848 0.31842 0.89395 0.0
H1995 H 0.2803 0.34306 0.98137 0.0
H1996 H 0.27786 0.3258 0.94761 0.0
H1997 H 0.33089 0.32639 0.92291 0.0
H1998 H 0.3143 0.33912 0.82573 0.0
H1999 H 0.3155 0.34311 0.86107 0.0
H2000 H 0.2756 0.31776 0.88028 0.0
C2001 C 0.29027 0.33578 0.95382 0.0
C2002 C 0.31868 0.32465 0.91389 0.0
C2003 C 0.29166 0.34554 0.97316 0.0
C2004 C 0.30997 0.32645 0.83208 0.0
C2005 C 0.31049 0.32876 0.85216 0.0
C2006 C 0.2876 0.31935 0.88964 0.0
C2007 C 0.30482 0.33883 0.94276 0.0
C2008 C 0.30359 0.32923 0.92195 0.0
C2009 C 0.3038 0.31284 0.86063 0.0
C2010 C 0.30305 0.31607 0.88171 0.0
H2011 H 0.33463 0.37104 0.97718 0.0
H2012 H 0.33201 0.3552 0.94351 0.0
H2013 H 0.27599 0.32938 0.91517 0.0
H2014 H 0.2915 0.27779 0.81974 0.0
H2015 H 0.29206 0.28198 0.85527 0.0
C2016 C 0.95383 0.04456 0.33496 0.0
C2017 C 0.95798 0.0609 0.32615 0.0
C2018 C 0.96291 0.04358 0.35248 0.0
C2019 C 0.99642 0.07267 0.39548 0.0
H2020 H 0.99429 0.02091 0.40505 0.0
C2021 C 0.03447 0.05412 0.46395 0.0
C2022 C 0.02333 0.04211 0.47429 0.0
C2023 C 0.0283 0.05739 0.44569 0.0
C2024 C 0.99507 0.03553 0.40276 0.0
H2025 H 0.97558 0.08944 0.32998 0.0
H2026 H 0.9919 0.08762 0.36043 0.0
H2027 H 0.98121 0.02495 0.3745 0.0
H2028 H 0.99656 0.02508 0.47337 0.0
H2029 H 0.98655 0.02902 0.44116 0.0
H2030 H 0.01118 0.08292 0.42386 0.0
C2031 C 0.98117 0.07545 0.35375 0.0
C2032 C 0.98724 0.03798 0.38506 0.0
C2033 C 0.97174 0.07656 0.33609 0.0
C2034 C 0.00591 0.03358 0.46562 0.0
C2035 C 1.00003 0.03611 0.44712 0.0
C2036 C 0.00466 0.07016 0.41314 0.0
C2037 C 0.97711 0.05872 0.36229 0.0
C2038 C 0.98718 0.05658 0.38105 0.0
C2039 C 0.01092 0.04836 0.43687 0.0
C2040 C 0.0038 0.05149 0.41729 0.0
H2041 H 0.94327 0.03219 0.32825 0.0
H2042 H 0.95843 0.03068 0.35834 0.0
H2043 H 0.99694 0.08731 0.39347 0.0
H2044 H 0.04769 0.06174 0.47041 0.0
H2045 H 0.03715 0.06703 0.43847 0.0
C2046 C 0.28691 0.70379 0.57371 0.0
C2047 C 0.28078 0.68356 0.57098 0.0
C2048 C 0.28406 0.71571 0.59057 0.0
C2049 C 0.27625 0.71338 0.64069 0.0
H2050 H 0.26446 0.76328 0.64235 0.0
C2051 C 0.26334 0.75515 0.71125 0.0
C2052 C 0.27636 0.77256 0.71728 0.0
C2053 C 0.26019 0.74622 0.6918 0.0
C2054 C 0.26768 0.74934 0.64194 0.0
H2055 H 0.26622 0.6599 0.58322 0.0
H2056 H 0.26106 0.68068 0.6124 0.0
H2057 H 0.26654 0.743 0.61094 0.0
H2058 H 0.29415 0.7958 0.70741 0.0
H2059 H 0.28891 0.77981 0.67329 0.0
H2060 H 0.27744 0.71959 0.67152 0.0
C2061 C 0.2684 0.68733 0.60178 0.0
C2062 C 0.26897 0.73784 0.62412 0.0
C2063 C 0.27135 0.67544 0.58507 0.0
C2064 C 0.28453 0.78206 0.70326 0.0
C2065 C 0.28136 0.77308 0.68373 0.0
C2066 C 0.27478 0.72471 0.65835 0.0
C2067 C 0.27498 0.70752 0.60483 0.0
C2068 C 0.27325 0.71975 0.6234 0.0
C2069 C 0.26989 0.75464 0.67812 0.0
C2070 C 0.27043 0.74269 0.6591 0.0
H2071 H 0.29412 0.7104 0.56299 0.0
H2072 H 0.2894 0.73124 0.59268 0.0
H2073 H 0.28006 0.69977 0.6406 0.0
H2074 H 0.25643 0.74765 0.72161 0.0
H2075 H 0.25109 0.73208 0.68761 0.0
C2076 C 0.6577 0.02279 0.78947 0.0
C2077 C 0.6728 0.03759 0.78942 0.0
C2078 C 0.64832 0.02298 0.80574 0.0
C2079 C 0.64188 0.05747 0.84844 0.0
H2080 H 0.61744 0.01105 0.86514 0.0
C2081 C 0.60608 0.06392 0.91581 0.0
C2082 C 0.58812 0.05446 0.91243 0.0
C2083 C 0.61772 0.05904 0.90258 0.0
C2084 C 0.62428 0.02407 0.86059 0.0
H2085 H 0.69058 0.06357 0.80617 0.0
H2086 H 0.67486 0.06338 0.83502 0.0
H2087 H 0.63576 0.00812 0.8381 0.0
H2088 H 0.56815 0.03165 0.89396 0.0
H2089 H 0.58857 0.02332 0.87022 0.0
H2090 H 0.63052 0.07342 0.8708 0.0
C2091 C 0.66978 0.05204 0.82236 0.0
C2092 C 0.63465 0.02242 0.84511 0.0
C2093 C 0.67886 0.05212 0.80596 0.0
C2094 C 0.58199 0.03928 0.89641 0.0
C2095 C 0.59365 0.03439 0.8831 0.0
C2096 C 0.63179 0.05911 0.86396 0.0
C2097 C 0.65417 0.03777 0.82226 0.0
C2098 C 0.64353 0.03915 0.83891 0.0
C2099 C 0.61146 0.04469 0.88583 0.0
C2100 C 0.6229 0.04246 0.87013 0.0
H2101 H 0.65272 0.01156 0.77668 0.0
H2102 H 0.63619 0.01197 0.80511 0.0
H2103 H 0.64808 0.0706 0.84365 0.0
H2104 H 0.61098 0.07536 0.92845 0.0
H2105 H 0.63148 0.06695 0.90505 0.0
C2106 C 0.30603 0.35919 0.08675 0.0
C2107 C 0.28968 0.35819 0.07666 0.0
C2108 C 0.30666 0.35242 0.104 0.0
C2109 C 0.27954 0.32289 0.13444 0.0
H2110 H 0.31589 0.35353 0.17486 0.0
C2111 C 0.28201 0.31168 0.21359 0.0
C2112 C 0.29886 0.31289 0.22266 0.0
C2113 C 0.28029 0.31649 0.19541 0.0
C2114 C 0.30578 0.34471 0.16365 0.0
H2115 H 0.26115 0.34908 0.07642 0.0
H2116 H 0.26221 0.33789 0.107 0.0
H2117 H 0.31401 0.363 0.14366 0.0
H2118 H 0.32703 0.3192 0.21982 0.0
H2119 H 0.32409 0.32749 0.188 0.0
H2120 H 0.27122 0.30477 0.15476 0.0
C2121 C 0.27457 0.34344 0.10135 0.0
C2122 C 0.30472 0.35009 0.14573 0.0
C2123 C 0.27395 0.34992 0.08389 0.0
C2124 C 0.31394 0.31864 0.21326 0.0
C2125 C 0.31223 0.32333 0.19507 0.0
C2126 C 0.28055 0.31755 0.15246 0.0
C2127 C 0.29094 0.34486 0.11172 0.0
C2128 C 0.29172 0.33914 0.13084 0.0
C2129 C 0.29541 0.3225 0.18606 0.0
C2130 C 0.29382 0.32832 0.16715 0.0
H2131 H 0.31836 0.36531 0.08136 0.0
H2132 H 0.3195 0.35325 0.11136 0.0
H2133 H 0.26945 0.31405 0.12323 0.0
H2134 H 0.27021 0.30736 0.2207 0.0
H2135 H 0.26718 0.31591 0.18888 0.0
C2136 C 0.26821 0.97885 0.01979 0.0
C2137 C 0.26774 0.96062 0.00834 0.0
C2138 C 0.25283 0.98535 0.02165 0.0
C2139 C 0.20944 0.98194 0.99926 0.0
H2140 H 0.2024 0.00445 0.05178 0.0
C2141 C 0.15081 0.0152 0.02515 0.0
C2142 C 0.15648 0.03406 0.03656 0.0
C2143 C 0.16309 0.00456 0.01914 0.0
C2144 C 0.20425 0.99816 0.03708 0.0
H2145 H 0.25105 0.93517 0.98925 0.0
H2146 H 0.22382 0.94688 0.99247 0.0
H2147 H 0.22586 0.98715 0.04644 0.0
H2148 H 0.17937 0.05692 0.04969 0.0
H2149 H 0.20087 0.0379 0.03968 0.0
H2150 H 0.18781 0.99333 0.99003 0.0
C2151 C 0.2362 0.95589 1.00002 0.0
C2152 C 0.21753 0.98827 0.03404 0.0
C2153 C 0.25169 0.94925 0.99823 0.0
C2154 C 0.17465 0.04234 0.04119 0.0
C2155 C 0.18689 0.03157 0.0354 0.0
C2156 C 0.19596 0.99175 0.00235 0.0
C2157 C 0.23671 0.9738 0.01208 0.0
C2158 C 0.22062 0.98076 0.0151 0.0
C2159 C 0.18111 0.01252 0.02475 0.0
C2160 C 0.1938 1.00045 0.02124 0.0
H2161 H 0.28039 0.98798 0.02771 0.0
H2162 H 0.25352 0.99942 0.03072 0.0
H2163 H 0.21172 0.97622 0.98456 0.0
H2164 H 0.13687 0.00824 0.02165 0.0
H2165 H 0.1585 0.98978 0.01105 0.0
C2166 C 0.72355 0.66407 0.00626 0.0
C2167 C 0.73788 0.65551 0.00217 0.0
C2168 C 0.70643 0.65264 0.0058 0.0
C2169 C 0.67754 0.60355 0.98692 0.0
H2170 H 0.64898 0.61964 0.02727 0.0
C2171 C 0.60817 0.55688 0.99692 0.0
C2172 C 0.59534 0.56673 0.00389 0.0
C2173 C 0.62552 0.56713 0.99559 0.0
C2174 C 0.6566 0.61504 0.01568 0.0
H2175 H 0.74525 0.62802 0.9941 0.0
H2176 H 0.71522 0.60796 0.99331 0.0
H2177 H 0.67912 0.63818 0.02735 0.0
H2178 H 0.5906 0.59536 0.01363 0.0
H2179 H 0.62038 0.61311 0.01069 0.0
H2180 H 0.65488 0.58041 0.97521 0.0
C2181 C 0.7173 0.62361 0.99679 0.0
C2182 C 0.67399 0.6257 0.01577 0.0
C2183 C 0.73454 0.63511 0.99733 0.0
C2184 C 0.60012 0.58716 0.00849 0.0
C2185 C 0.61734 0.59739 0.00696 0.0
C2186 C 0.66005 0.59289 0.98678 0.0
C2187 C 0.70303 0.63224 1.0012 0.0
C2188 C 0.68469 0.62024 0.00132 0.0
C2189 C 0.63046 0.58754 1.00099 0.0
C2190 C 0.64925 0.59858 1.00108 0.0
H2191 H 0.72554 0.67972 0.00997 0.0
H2192 H 0.69578 0.65985 0.00894 0.0
H2193 H 0.68531 0.59899 0.97547 0.0
H2194 H 0.60509 0.54126 0.99317 0.0
H2195 H 0.6352 0.55895 0.99099 0.0
C2196 C 0.71064 0.45381 0.26064 0.0
C2197 C 0.69411 0.45212 0.26851 0.0
C2198 C 0.72061 0.43917 0.26037 0.0
C2199 C 0.72215 0.39289 0.28123 0.0
H2200 H 0.75802 0.38733 0.24626 0.0
C2201 C 0.76408 0.33392 0.28571 0.0
C2202 C 0.77157 0.32584 0.26931 0.0
C2203 C 0.75598 0.34988 0.28579 0.0
C2204 C 0.74797 0.38832 0.25614 0.0
H2205 H 0.67554 0.43245 0.28182 0.0
H2206 H 0.69198 0.40769 0.2809 0.0
H2207 H 0.74173 0.41255 0.24541 0.0
H2208 H 0.77545 0.32849 0.23974 0.0
H2209 H 0.7619 0.35613 0.23982 0.0
H2210 H 0.72785 0.36838 0.29155 0.0
C2211 C 0.69791 0.42042 0.27539 0.0
C2212 C 0.73857 0.40327 0.2558 0.0
C2213 C 0.68812 0.43492 0.27573 0.0
C2214 C 0.77053 0.33455 0.25297 0.0
C2215 C 0.76252 0.35058 0.25304 0.0
C2216 C 0.73143 0.37794 0.28149 0.0
C2217 C 0.7146 0.42203 0.26794 0.0
C2218 C 0.72526 0.40602 0.2683 0.0
C2219 C 0.75463 0.35855 0.26933 0.0
C2220 C 0.74468 0.37512 0.269 0.0
H2221 H 0.71602 0.46655 0.25483 0.0
H2222 H 0.73325 0.44158 0.25445 0.0
H2223 H 0.71253 0.39409 0.29159 0.0
H2224 H 0.76388 0.32738 0.2984 0.0
H2225 H 0.75057 0.35521 0.29892 0.0
C2226 C 0.87894 0.45677 0.53563 0.0
C2227 C 0.86664 0.46819 0.53973 0.0
C2228 C 0.89555 0.4651 0.53074 0.0
C2229 C 0.92821 0.50976 0.53519 0.0
H2230 H 0.94212 0.48545 0.4865 0.0
C2231 C 0.99667 0.53608 0.52162 0.0
C2232 C 0.00541 0.52101 0.51846 0.0
C2233 C 0.97872 0.53252 0.51597 0.0
C2234 C 0.93831 0.49246 0.50002 0.0
H2235 H 0.86217 0.49723 0.54364 0.0
H2236 H 0.8917 0.51206 0.53594 0.0
H2237 H 0.91293 0.47249 0.49649 0.0
H2238 H 0.00294 0.49053 0.50678 0.0
H2239 H 0.97093 0.48356 0.49901 0.0
H2240 H 0.95366 0.52882 0.53972 0.0
C2241 C 0.8883 0.49665 0.53601 0.0
C2242 C 0.92176 0.485 0.50575 0.0
C2243 C 0.87156 0.48826 0.54053 0.0
C2244 C 0.99629 0.50238 0.50897 0.0
C2245 C 0.97804 0.4985 0.50432 0.0
C2246 C 0.94473 0.51704 0.52963 0.0
C2247 C 0.90005 0.48496 0.53032 0.0
C2248 C 0.91686 0.49341 0.52357 0.0
C2249 C 0.96899 0.51337 0.50904 0.0
C2250 C 0.95013 0.50822 0.5122 0.0
H2251 H 0.8753 0.4412 0.53475 0.0
H2252 H 0.90467 0.45599 0.52673 0.0
H2253 H 0.92463 0.51634 0.54904 0.0
H2254 H 0.00345 0.55025 0.52966 0.0
H2255 H 0.97213 0.54432 0.51932 0.0
C2256 C 0.37129 0.09323 0.30769 0.0
C2257 C 0.38945 0.09667 0.31358 0.0
C2258 C 0.36422 0.1082 0.30373 0.0
C2259 C 0.3655 0.1576 0.31105 0.0
H2260 H 0.34567 0.14477 0.25718 0.0
C2261 C 0.33335 0.20369 0.26607 0.0
C2262 C 0.31787 0.19287 0.2545 0.0
C2263 C 0.3425 0.19471 0.27772 0.0
C2264 C 0.35115 0.14845 0.27225 0.0
H2265 H 0.41422 0.11849 0.3214 0.0
H2266 H 0.40143 0.14515 0.31453 0.0
H2267 H 0.36322 0.12439 0.26905 0.0
H2268 H 0.29839 0.16542 0.24748 0.0
H2269 H 0.31447 0.14957 0.26795 0.0
H2270 H 0.35288 0.18149 0.3142 0.0
C2271 C 0.39298 0.13072 0.31297 0.0
C2272 C 0.36126 0.13702 0.2789 0.0
C2273 C 0.40019 0.11558 0.31685 0.0
C2274 C 0.31062 0.17369 0.25598 0.0
C2275 C 0.31964 0.16479 0.26774 0.0
C2276 C 0.35535 0.16918 0.30432 0.0
C2277 C 0.37515 0.12679 0.3058 0.0
C2278 C 0.36795 0.14122 0.29843 0.0
C2279 C 0.33603 0.17501 0.27781 0.0
C2280 C 0.34768 0.16415 0.28507 0.0
H2281 H 0.36266 0.0788 0.30516 0.0
H2282 H 0.35036 0.10512 0.29824 0.0
H2283 H 0.37062 0.16076 0.32619 0.0
H2284 H 0.33889 0.21866 0.26517 0.0
H2285 H 0.3552 0.20265 0.28541 0.0
C2286 C 0.34107 0.14465 0.51089 0.0
C2287 C 0.34312 0.16003 0.50086 0.0
C2288 C 0.35501 0.13576 0.51364 0.0
C2289 C 0.39722 0.12829 0.49574 0.0
H2290 H 0.40453 0.11559 0.54628 0.0
C2291 C 0.45542 0.09607 0.52238 0.0
C2292 C 0.44991 0.08057 0.53199 0.0
C2293 C 0.44331 0.10643 0.51682 0.0
C2294 C 0.40261 0.119 0.53207 0.0
H2295 H 0.36131 0.17781 0.48539 0.0
H2296 H 0.38569 0.16224 0.49025 0.0
H2297 H 0.38167 0.13263 0.54024 0.0
H2298 H 0.42711 0.06279 0.5417 0.0
H2299 H 0.40627 0.08097 0.53239 0.0
H2300 H 0.41836 0.11451 0.48773 0.0
C2301 C 0.37326 0.15705 0.49593 0.0
C2302 C 0.38948 0.12868 0.52858 0.0
C2303 C 0.35932 0.16602 0.49325 0.0
C2304 C 0.43192 0.07498 0.53486 0.0
C2305 C 0.41996 0.08536 0.5295 0.0
C2306 C 0.41051 0.11862 0.49929 0.0
C2307 C 0.37133 0.142 0.5064 0.0
C2308 C 0.38631 0.13303 0.51025 0.0
C2309 C 0.42559 0.10149 0.52092 0.0
C2310 C 0.41298 0.11347 0.51736 0.0
H2311 H 0.32879 0.13966 0.51692 0.0
H2312 H 0.35299 0.12397 0.52149 0.0
H2313 H 0.39511 0.13146 0.48146 0.0
H2314 H 0.46919 0.10077 0.51998 0.0
H2315 H 0.44795 0.11878 0.51014 0.0
C2316 C 0.68952 0.58392 0.25811 0.0
C2317 C 0.69529 0.57048 0.2678 0.0
C2318 C 0.69949 0.60313 0.25979 0.0
C2319 C 0.73816 0.64183 0.28906 0.0
H2320 H 0.73235 0.66732 0.24602 0.0
C2321 C 0.78094 0.72048 0.28544 0.0
C2322 C 0.77263 0.73283 0.27668 0.0
C2323 C 0.7722 0.70089 0.28523 0.0
C2324 C 0.73409 0.66067 0.25837 0.0
H2325 H 0.71676 0.56769 0.2872 0.0
H2326 H 0.73435 0.6012 0.29004 0.0
H2327 H 0.71692 0.63374 0.24379 0.0
H2328 H 0.74767 0.73364 0.26177 0.0
H2329 H 0.73284 0.70011 0.26119 0.0
H2330 H 0.75578 0.66898 0.30335 0.0
C2331 C 0.7218 0.59678 0.28111 0.0
C2332 C 0.72505 0.64111 0.25714 0.0
C2333 C 0.71171 0.57732 0.27939 0.0
C2334 C 0.75497 0.72485 0.2683 0.0
C2335 C 0.74634 0.70531 0.26791 0.0
C2336 C 0.74738 0.66145 0.29021 0.0
C2337 C 0.71596 0.61016 0.27122 0.0
C2338 C 0.72661 0.63117 0.27252 0.0
C2339 C 0.75477 0.69275 0.27615 0.0
C2340 C 0.7454 0.67141 0.27496 0.0
H2341 H 0.67704 0.57963 0.24904 0.0
H2342 H 0.69392 0.61257 0.25221 0.0
H2343 H 0.73984 0.6352 0.30142 0.0
H2344 H 0.79423 0.72592 0.29255 0.0
H2345 H 0.77932 0.69199 0.29187 0.0
C2346 C 0.87566 0.4712 0.77141 0.0
C2347 C 0.87274 0.48627 0.78547 0.0
C2348 C 0.86851 0.45217 0.77259 0.0
C2349 C 0.82988 0.42448 0.78106 0.0
H2350 H 0.85551 0.38372 0.77592 0.0
C2351 C 0.80396 0.34289 0.77009 0.0
C2352 C 0.81687 0.33293 0.76417 0.0
C2353 C 0.80647 0.36232 0.76921 0.0
C2354 C 0.84822 0.39502 0.77696 0.0
H2355 H 0.8609 0.49357 0.81229 0.0
H2356 H 0.84767 0.45986 0.8137 0.0
H2357 H 0.87136 0.41692 0.78899 0.0
H2358 H 0.83896 0.33288 0.74652 0.0
H2359 H 0.84214 0.3662 0.74297 0.0
H2360 H 0.80688 0.40264 0.76791 0.0
C2361 C 0.8557 0.46302 0.80209 0.0
C2362 C 0.85719 0.41377 0.785 0.0
C2363 C 0.86303 0.48211 0.80105 0.0
C2364 C 0.82962 0.34079 0.75273 0.0
C2365 C 0.8312 0.35968 0.75033 0.0
C2366 C 0.82087 0.40564 0.77274 0.0
C2367 C 0.85828 0.44815 0.78771 0.0
C2368 C 0.84817 0.42857 0.78626 0.0
C2369 C 0.82139 0.37113 0.76117 0.0
C2370 C 0.83024 0.39105 0.76982 0.0
H2371 H 0.88336 0.47405 0.75948 0.0
H2372 H 0.87028 0.44059 0.76123 0.0
H2373 H 0.82292 0.43605 0.78193 0.0
H2374 H 0.79272 0.33619 0.77657 0.0
H2375 H 0.79813 0.37072 0.7769 0.0
C2376 C 0.09039 0.86504 0.06801 0.0
C2377 C 0.08099 0.8563 0.08181 0.0
C2378 C 0.08516 0.88002 0.0606 0.0
C2379 C 0.05268 0.91312 0.06838 0.0
H2380 H 0.07386 0.93156 0.02483 0.0
C2381 C 0.04874 0.98758 0.05351 0.0
C2382 C 0.04863 0.99137 0.03468 0.0
C2383 C 0.05085 0.96979 0.05714 0.0
C2384 C 0.06753 0.92642 0.03681 0.0
H2385 H 0.05818 0.8562 0.09806 0.0
H2386 H 0.04841 0.8809 0.08462 0.0
H2387 H 0.08047 0.90308 0.0343 0.0
H2388 H 0.05084 0.97933 0.00472 0.0
H2389 H 0.05385 0.94755 0.01089 0.0
H2390 H 0.03882 0.93574 0.06989 0.0
C2391 C 0.06041 0.87728 0.07988 0.0
C2392 C 0.07165 0.9101 0.04267 0.0
C2393 C 0.06591 0.86265 0.08759 0.0
C2394 C 0.05049 0.97669 0.01935 0.0
C2395 C 0.05247 0.95859 0.02297 0.0
C2396 C 0.0482 0.92897 0.06216 0.0
C2397 C 0.07005 0.88662 0.0664 0.0
C2398 C 0.06466 0.90331 0.05896 0.0
C2399 C 0.05284 0.95496 0.04202 0.0
C2400 C 0.05595 0.93632 0.04668 0.0
H2401 H 0.10205 0.86051 0.06309 0.0
H2402 H 0.09339 0.88651 0.05061 0.0
H2403 H 0.04688 0.90916 0.08104 0.0
H2404 H 0.04756 0.99868 0.06567 0.0
H2405 H 0.05152 0.96801 0.07206 0.0
C2406 C 0.96506 0.27068 0.88166 0.0
C2407 C 0.9627 0.25721 0.89404 0.0
C2408 C 0.95058 0.27294 0.87008 0.0
C2409 C 0.90384 0.24818 0.84964 0.0
H2410 H 0.90056 0.29977 0.84363 0.0
C2411 C 0.8392 0.26344 0.81632 0.0
C2412 C 0.84098 0.27677 0.80389 0.0
C2413 C 0.8542 0.26083 0.82669 0.0
C2414 C 0.90131 0.28521 0.84495 0.0
H2415 H 0.94307 0.23536 0.90358 0.0
H2416 H 0.91805 0.23917 0.88347 0.0
H2417 H 0.92634 0.29557 0.86235 0.0
H2418 H 0.85975 0.29789 0.79257 0.0
H2419 H 0.8859 0.2937 0.8109 0.0
H2420 H 0.87876 0.23784 0.83236 0.0
C2421 C 0.93108 0.24798 0.88256 0.0
C2422 C 0.91618 0.28278 0.8557 0.0
C2423 C 0.94549 0.24586 0.89424 0.0
C2424 C 0.85802 0.28751 0.80208 0.0
C2425 C 0.87299 0.28517 0.81269 0.0
C2426 C 0.88896 0.25061 0.83893 0.0
C2427 C 0.93332 0.26165 0.87036 0.0
C2428 C 0.91767 0.26423 0.85832 0.0
C2429 C 0.87135 0.27175 0.82515 0.0
C2430 C 0.8874 0.26916 0.83646 0.0
H2431 H 0.97806 0.27976 0.88116 0.0
H2432 H 0.95296 0.2835 0.8608 0.0
H2433 H 0.90455 0.23361 0.85095 0.0
H2434 H 0.8262 0.25495 0.8179 0.0
H2435 H 0.85231 0.25047 0.8362 0.0
C2436 C 0.56942 0.2434 0.58836 0.0
C2437 C 0.57567 0.25694 0.57679 0.0
C2438 C 0.56762 0.22352 0.58152 0.0
C2439 C 0.58256 0.18846 0.54398 0.0
H2440 H 0.54534 0.15132 0.56064 0.0
C2441 C 0.56279 0.10469 0.51333 0.0
C2442 C 0.55992 0.09284 0.52714 0.0
C2443 C 0.56668 0.12495 0.51905 0.0
C2444 C 0.55591 0.16153 0.55602 0.0
H2445 H 0.58462 0.26001 0.5487 0.0
H2446 H 0.58107 0.22527 0.53656 0.0
H2447 H 0.54687 0.1859 0.5702 0.0
H2448 H 0.5584 0.0926 0.55762 0.0
H2449 H 0.5649 0.12807 0.56771 0.0
H2450 H 0.59113 0.16375 0.52924 0.0
C2451 C 0.5779 0.23006 0.55113 0.0
C2452 C 0.55684 0.18141 0.56154 0.0
C2453 C 0.5798 0.25001 0.55804 0.0
C2454 C 0.56119 0.10151 0.54681 0.0
C2455 C 0.56467 0.12174 0.55251 0.0
C2456 C 0.58145 0.16851 0.53821 0.0
C2457 C 0.57189 0.21651 0.56284 0.0
C2458 C 0.57034 0.19522 0.55587 0.0
C2459 C 0.56702 0.13365 0.53864 0.0
C2460 C 0.56827 0.15486 0.54443 0.0
H2461 H 0.56615 0.24816 0.60289 0.0
H2462 H 0.56326 0.21371 0.59116 0.0
H2463 H 0.59327 0.19857 0.53947 0.0
H2464 H 0.56128 0.09824 0.49801 0.0
H2465 H 0.56831 0.13374 0.50804 0.0
C2466 C 0.57386 0.74986 0.38973 0.0
C2467 C 0.56718 0.76518 0.39939 0.0
C2468 C 0.58938 0.7535 0.38046 0.0
C2469 C 0.62117 0.79335 0.36351 0.0
H2470 H 0.64986 0.75531 0.3575 0.0
C2471 C 0.68795 0.80841 0.33036 0.0
C2472 C 0.69115 0.79333 0.31635 0.0
C2473 C 0.67418 0.80487 0.34219 0.0
C2474 C 0.64197 0.76606 0.35896 0.0
H2475 H 0.57191 0.79646 0.40744 0.0
H2476 H 0.59951 0.80297 0.39224 0.0
H2477 H 0.62361 0.7499 0.37484 0.0
H2478 H 0.68269 0.76263 0.30402 0.0
H2479 H 0.6585 0.75636 0.32461 0.0
H2480 H 0.63983 0.80964 0.34792 0.0
C2481 C 0.59241 0.78802 0.39097 0.0
C2482 C 0.62674 0.76292 0.36886 0.0
C2483 C 0.57656 0.78433 0.39981 0.0
C2484 C 0.68071 0.77445 0.31493 0.0
C2485 C 0.66682 0.7709 0.32672 0.0
C2486 C 0.63653 0.7966 0.35387 0.0
C2487 C 0.5991 0.77264 0.38103 0.0
C2488 C 0.61591 0.77641 0.37115 0.0
C2489 C 0.66307 0.78618 0.34019 0.0
C2490 C 0.6471 0.78294 0.35129 0.0
H2491 H 0.56691 0.73493 0.38909 0.0
H2492 H 0.59358 0.74116 0.37266 0.0
H2493 H 0.61322 0.80401 0.36449 0.0
H2494 H 0.69578 0.82311 0.3317 0.0
H2495 H 0.67199 0.81693 0.35264 0.0
C2496 C 0.08434 0.27854 0.43477 0.0
C2497 C 0.08708 0.27428 0.41512 0.0
C2498 C 0.08164 0.26395 0.44546 0.0
C2499 C 0.08604 0.21462 0.44704 0.0
H2500 H 0.04688 0.21523 0.47872 0.0
C2501 C 0.05397 0.153 0.48594 0.0
C2502 C 0.05082 0.15922 0.50528 0.0
C2503 C 0.06016 0.16653 0.47458 0.0
C2504 C 0.05793 0.215 0.47006 0.0
H2505 H 0.09007 0.2517 0.39142 0.0
H2506 H 0.08499 0.22595 0.4102 0.0
H2507 H 0.05451 0.23983 0.4592 0.0
H2508 H 0.05254 0.18441 0.5281 0.0
H2509 H 0.06285 0.20799 0.50806 0.0
H2510 H 0.08916 0.18946 0.45788 0.0
C2511 C 0.08505 0.24064 0.41727 0.0
C2512 C 0.06232 0.22905 0.45894 0.0
C2513 C 0.08784 0.25532 0.40654 0.0
C2514 C 0.05444 0.17918 0.51315 0.0
C2515 C 0.06044 0.19265 0.50175 0.0
C2516 C 0.08155 0.2004 0.45815 0.0
C2517 C 0.0815 0.2448 0.43668 0.0
C2518 C 0.07659 0.2292 0.44761 0.0
C2519 C 0.06307 0.18642 0.48233 0.0
C2520 C 0.06764 0.20075 0.46996 0.0
H2521 H 0.08395 0.29309 0.44185 0.0
H2522 H 0.07934 0.2676 0.46055 0.0
H2523 H 0.09711 0.21449 0.43839 0.0
H2524 H 0.0511 0.13772 0.47934 0.0
H2525 H 0.06198 0.16146 0.45956 0.0
C2526 C 0.55122 0.23271 0.1817 0.0
C2527 C 0.54425 0.24917 0.18214 0.0
C2528 C 0.56921 0.23474 0.18695 0.0
C2529 C 0.60862 0.26917 0.21444 0.0
H2530 H 0.63341 0.23365 0.18591 0.0
C2531 C 0.67986 0.27131 0.24006 0.0
C2532 C 0.6813 0.25327 0.24394 0.0
C2533 C 0.66551 0.27252 0.22788 0.0
C2534 C 0.62668 0.24376 0.19389 0.0
H2535 H 0.55063 0.28071 0.18876 0.0
H2536 H 0.58204 0.28423 0.19789 0.0
H2537 H 0.60274 0.23241 0.17489 0.0
H2538 H 0.67023 0.22227 0.23706 0.0
H2539 H 0.64528 0.22424 0.21551 0.0
H2540 H 0.63235 0.28016 0.23374 0.0
C2541 C 0.57358 0.26975 0.19358 0.0
C2542 C 0.60911 0.24296 0.1877 0.0
C2543 C 0.55557 0.26772 0.18834 0.0
C2544 C 0.66928 0.2363 0.23415 0.0
C2545 C 0.65508 0.23746 0.2218 0.0
C2546 C 0.62619 0.27003 0.22057 0.0
C2547 C 0.58063 0.25328 0.19275 0.0
C2548 C 0.59975 0.25534 0.1982 0.0
C2549 C 0.65258 0.25566 0.21933 0.0
C2550 C 0.63526 0.25703 0.21062 0.0
H2551 H 0.54286 0.21822 0.17702 0.0
H2552 H 0.57416 0.22175 0.18654 0.0
H2553 H 0.60175 0.27877 0.22297 0.0
H2554 H 0.68903 0.28456 0.24761 0.0
H2555 H 0.66396 0.2867 0.22606 0.0
C2556 C 0.60944 0.86965 0.91829 0.0
C2557 C 0.6063 0.86764 0.8981 0.0
C2558 C 0.60885 0.88691 0.93055 0.0
C2559 C 0.58394 0.92292 0.93045 0.0
H2560 H 0.61207 0.94931 0.97899 0.0
C2561 C 0.56685 0.98762 0.97675 0.0
C2562 C 0.56459 0.9862 0.99608 0.0
C2563 C 0.57512 0.97513 0.96541 0.0
C2564 C 0.60415 0.94195 0.96548 0.0
H2565 H 0.60177 0.88252 0.8748 0.0
H2566 H 0.60067 0.91271 0.89633 0.0
H2567 H 0.62247 0.92438 0.95707 0.0
H2568 H 0.56992 0.97121 0.01893 0.0
H2569 H 0.58465 0.94925 0.99901 0.0
H2570 H 0.5654 0.93989 0.9389 0.0
C2571 C 0.60343 0.90087 0.90258 0.0
C2572 C 0.6101 0.92787 0.95299 0.0
C2573 C 0.60407 0.88364 0.89031 0.0
C2574 C 0.57149 0.97262 0.00414 0.0
C2575 C 0.57993 0.96012 0.99278 0.0
C2576 C 0.57804 0.93687 0.94285 0.0
C2577 C 0.60508 0.9023 0.92275 0.0
C2578 C 0.60001 0.91833 0.93538 0.0
C2579 C 0.58142 0.96108 0.97323 0.0
C2580 C 0.58809 0.94649 0.9604 0.0
H2581 H 0.61139 0.85757 0.92466 0.0
H2582 H 0.61005 0.88768 0.94608 0.0
H2583 H 0.57566 0.91529 0.91724 0.0
H2584 H 0.56242 0.99853 0.97036 0.0
H2585 H 0.57644 0.97631 0.95042 0.0
C2586 C 0.93513 0.74997 0.68085 0.0
C2587 C 0.95244 0.75034 0.68785 0.0
C2588 C 0.92305 0.75387 0.69388 0.0
C2589 C 0.91081 0.7588 0.7423 0.0
H2590 H 0.89842 0.80552 0.73147 0.0
C2591 C 0.85557 0.78716 0.77811 0.0
C2592 C 0.84237 0.7857 0.7632 0.0
C2593 C 0.87296 0.78793 0.7738 0.0
C2594 C 0.90215 0.79278 0.73493 0.0
H2595 H 0.97013 0.75191 0.71333 0.0
H2596 H 0.94871 0.7585 0.73621 0.0
H2597 H 0.91956 0.79162 0.71263 0.0
H2598 H 0.83613 0.78337 0.73246 0.0
H2599 H 0.8664 0.78479 0.72481 0.0
H2600 H 0.89235 0.75912 0.76359 0.0
C2601 C 0.94471 0.75568 0.72079 0.0
C2602 C 0.91394 0.78472 0.72405 0.0
C2603 C 0.95689 0.75206 0.70777 0.0
C2604 C 0.84643 0.78508 0.74412 0.0
C2605 C 0.8637 0.78608 0.73985 0.0
C2606 C 0.89884 0.76679 0.75311 0.0
C2607 C 0.92821 0.7578 0.71386 0.0
C2608 C 0.91762 0.76724 0.72711 0.0
C2609 C 0.87698 0.78704 0.75456 0.0
C2610 C 0.8938 0.78325 0.74876 0.0
H2611 H 0.9314 0.74842 0.66549 0.0
H2612 H 0.91016 0.75522 0.68842 0.0
H2613 H 0.91381 0.74543 0.74491 0.0
H2614 H 0.85236 0.78714 0.79286 0.0
H2615 H 0.88304 0.78834 0.78522 0.0
C2616 C 0.12129 0.02411 0.82015 0.0
C2617 C 0.13469 0.01399 0.81583 0.0
C2618 C 0.11301 0.02413 0.83749 0.0
C2619 C 0.10783 1.0006 0.8823 0.0
H2620 H 0.08794 0.04457 0.90083 0.0
C2621 C 0.08239 0.0162 0.96053 0.0
C2622 C 0.06677 0.02313 0.9622 0.0
C2623 C 0.09023 0.01387 0.94278 0.0
C2624 C 0.09322 0.03201 0.89592 0.0
H2625 H 0.14936 0.99546 0.82725 0.0
H2626 H 0.13529 0.99574 0.85763 0.0
H2627 H 0.10241 0.04307 0.87118 0.0
H2628 H 0.04748 0.03316 0.94585 0.0
H2629 H 0.0613 0.02976 0.91539 0.0
H2630 H 0.09905 0.99007 0.90779 0.0
C2631 C 0.13094 0.00364 0.84735 0.0
C2632 C 0.10159 0.03102 0.87854 0.0
C2633 C 0.1392 0.00351 0.82976 0.0
C2634 C 0.05938 0.02768 0.94535 0.0
C2635 C 0.06746 0.02583 0.92776 0.0
C2636 C 0.09967 1.00176 0.89993 0.0
C2637 C 0.11773 0.0142 0.85182 0.0
C2638 C 0.10902 0.01522 0.87106 0.0
C2639 C 0.0831 0.01889 0.92602 0.0
C2640 C 0.09205 0.01745 0.90709 0.0
H2641 H 0.11707 0.03225 0.81 0.0
H2642 H 0.10268 0.03198 0.83943 0.0
H2643 H 0.11299 0.98796 0.87742 0.0
H2644 H 0.08859 0.01248 0.97301 0.0
H2645 H 0.10222 0.00857 0.94236 0.0
C2646 C 0.80489 0.41015 0.56839 0.0
C2647 C 0.81068 0.40309 0.55056 0.0
C2648 C 0.80824 0.40243 0.58454 0.0
C2649 C 0.83746 0.3751 0.60331 0.0
H2650 H 0.79844 0.35652 0.63223 0.0
C2651 C 0.8346 0.31211 0.64184 0.0
C2652 C 0.83113 0.3153 0.6613 0.0
C2653 C 0.83278 0.32568 0.63062 0.0
C2654 C 0.80947 0.36196 0.62445 0.0
H2655 H 0.82427 0.38239 0.53546 0.0
H2656 H 0.82974 0.36863 0.56355 0.0
H2657 H 0.79418 0.37614 0.60823 0.0
H2658 H 0.82323 0.33527 0.6844 0.0
H2659 H 0.81934 0.35849 0.66435 0.0
H2660 H 0.85242 0.36003 0.61878 0.0
C2661 C 0.8229 0.38033 0.5651 0.0
C2662 C 0.80709 0.37318 0.61086 0.0
C2663 C 0.81952 0.38798 0.54898 0.0
C2664 C 0.82561 0.33217 0.66929 0.0
C2665 C 0.82352 0.34554 0.65797 0.0
C2666 C 0.83978 0.36378 0.61674 0.0
C2667 C 0.81746 0.38766 0.583 0.0
C2668 C 0.82088 0.37916 0.59973 0.0
C2669 C 0.82732 0.34245 0.63869 0.0
C2670 C 0.82561 0.35664 0.62684 0.0
H2671 H 0.79814 0.42191 0.56998 0.0
H2672 H 0.80392 0.40821 0.59826 0.0
H2673 H 0.84837 0.37998 0.59512 0.0
H2674 H 0.83864 0.29914 0.6353 0.0
H2675 H 0.8355 0.32303 0.61558 0.0
C2676 C 0.43465 0.04178 0.35839 0.0
C2677 C 0.43443 0.02977 0.34031 0.0
C2678 C 0.44904 0.04535 0.37213 0.0
C2679 C 0.48645 0.02674 0.38615 0.0
H2680 H 0.50467 0.07979 0.41434 0.0
C2681 C 0.54157 0.04249 0.44532 0.0
C2682 C 0.53543 0.04941 0.46283 0.0
C2683 C 0.53334 0.04446 0.42807 0.0
C2684 C 0.49983 0.06502 0.40629 0.0
H2685 H 0.44838 0.01136 0.32245 0.0
H2686 H 0.47379 0.01773 0.3466 0.0
H2687 H 0.4804 0.07268 0.38853 0.0
H2688 H 0.51717 0.06484 0.4769 0.0
H2689 H 0.50236 0.06788 0.44659 0.0
H2690 H 0.50534 0.01893 0.40431 0.0
C2691 C 0.46279 0.02428 0.35012 0.0
C2692 C 0.48592 0.06092 0.39179 0.0
C2693 C 0.4483 0.02058 0.3364 0.0
C2694 C 0.52191 0.05941 0.46329 0.0
C2695 C 0.51368 0.06138 0.44609 0.0
C2696 C 0.50038 0.03085 0.40053 0.0
C2697 C 0.46339 0.03704 0.36785 0.0
C2698 C 0.47894 0.04168 0.38195 0.0
C2699 C 0.51888 0.05316 0.4284 0.0
C2700 C 0.5069 0.04993 0.4109 0.0
H2701 H 0.42392 0.04884 0.36172 0.0
H2702 H 0.44905 0.05481 0.38597 0.0
H2703 H 0.48106 0.01178 0.37892 0.0
H2704 H 0.55169 0.03432 0.44484 0.0
H2705 H 0.53737 0.03793 0.41447 0.0
C2706 C 0.79679 0.71268 0.07098 0.0
C2707 C 0.80222 0.72465 0.05773 0.0
C2708 C 0.7962 0.72074 0.09037 0.0
C2709 C 0.79134 0.76321 0.12414 0.0
H2710 H 0.81351 0.73992 0.1614 0.0
C2711 C 0.79512 0.785 0.20935 0.0
C2712 C 0.79218 0.76897 0.21853 0.0
C2713 C 0.79566 0.78213 0.18918 0.0
C2714 C 0.80718 0.74652 0.15118 0.0
H2715 H 0.81082 0.75448 0.05424 0.0
H2716 H 0.80938 0.76869 0.08844 0.0
H2717 H 0.81663 0.73047 0.12711 0.0
H2718 H 0.78637 0.73761 0.21412 0.0
H2719 H 0.78682 0.73258 0.17913 0.0
H2720 H 0.78149 0.7789 0.14846 0.0
C2721 C 0.80578 0.75305 0.08367 0.0
C2722 C 0.80902 0.74116 0.13158 0.0
C2723 C 0.8067 0.74493 0.0642 0.0
C2724 C 0.7887 0.75016 0.2073 0.0
C2725 C 0.7891 0.74731 0.18733 0.0
C2726 C 0.78942 0.76857 0.14392 0.0
C2727 C 0.80079 0.74096 0.09695 0.0
C2728 C 0.80071 0.74899 0.11781 0.0
C2729 C 0.79337 0.76325 0.17815 0.0
C2730 C 0.79686 0.75976 0.15752 0.0
H2731 H 0.79331 0.69701 0.06647 0.0
H2732 H 0.79214 0.71109 0.10029 0.0
H2733 H 0.78484 0.76947 0.11375 0.0
H2734 H 0.79804 0.79966 0.21781 0.0
H2735 H 0.79891 0.79465 0.18242 0.0
C2736 C 0.11341 0.99841 0.70573 0.0
C2737 C 0.13141 0.00622 0.713 0.0
C2738 C 0.10605 0.00243 0.68849 0.0
C2739 C 0.11469 0.03682 0.6528 0.0
H2740 H 0.07479 0.99985 0.62161 0.0
C2741 C 0.09082 0.04452 0.57461 0.0
C2742 C 0.07276 0.03856 0.56742 0.0
C2743 C 0.09698 0.04176 0.5929 0.0
C2744 C 0.08578 0.01056 0.63018 0.0
H2745 H 0.15558 0.02467 0.70694 0.0
H2746 H 0.14299 0.03151 0.67698 0.0
H2747 H 0.08763 0.99238 0.65092 0.0
H2748 H 0.04705 0.02421 0.57427 0.0
H2749 H 0.05772 0.01906 0.60612 0.0
H2750 H 0.11299 0.05482 0.63184 0.0
C2751 C 0.13434 0.02231 0.68475 0.0
C2752 C 0.09328 0.00624 0.64725 0.0
C2753 C 0.14175 0.01819 0.70203 0.0
C2754 C 0.06097 0.02961 0.57941 0.0
C2755 C 0.06722 0.02638 0.59766 0.0
C2756 C 0.10728 0.04106 0.63569 0.0
C2757 C 0.11625 0.01458 0.67754 0.0
C2758 C 0.10803 0.01922 0.65901 0.0
C2759 C 0.08544 0.03224 0.60476 0.0
C2760 C 0.0927 0.028 0.62386 0.0
H2761 H 0.10478 0.98917 0.7135 0.0
H2762 H 0.09211 0.99623 0.68407 0.0
H2763 H 0.12563 0.04763 0.66129 0.0
H2764 H 0.10044 0.05096 0.56572 0.0
H2765 H 0.11107 0.04634 0.59733 0.0
C2766 C 0.81366 0.40013 0.46268 0.0
C2767 C 0.82884 0.41541 0.46834 0.0
C2768 C 0.81343 0.38518 0.44707 0.0
C2769 C 0.8326 0.37473 0.40223 0.0
H2770 H 0.81536 0.3207 0.40569 0.0
C2771 C 0.82835 0.31595 0.3361 0.0
C2772 C 0.81124 0.30375 0.3312 0.0
C2773 C 0.83334 0.32689 0.35475 0.0
C2774 C 0.82024 0.33573 0.40459 0.0
H2775 H 0.85558 0.42715 0.46205 0.0
H2776 H 0.85502 0.40101 0.43434 0.0
H2777 H 0.81795 0.34626 0.43454 0.0
H2778 H 0.78696 0.29202 0.34286 0.0
H2779 H 0.79557 0.31099 0.37525 0.0
H2780 H 0.83416 0.36449 0.37223 0.0
C2781 C 0.84341 0.40067 0.44218 0.0
C2782 C 0.82168 0.35028 0.421 0.0
C2783 C 0.84372 0.41557 0.45797 0.0
C2784 C 0.80001 0.30134 0.34588 0.0
C2785 C 0.80504 0.31219 0.36459 0.0
C2786 C 0.83107 0.36025 0.38585 0.0
C2787 C 0.8283 0.38535 0.43673 0.0
C2788 C 0.82775 0.36987 0.41985 0.0
C2789 C 0.82139 0.32578 0.36887 0.0
C2790 C 0.82478 0.34063 0.38685 0.0
H2791 H 0.80198 0.39957 0.47044 0.0
H2792 H 0.80155 0.37363 0.4429 0.0
H2793 H 0.83698 0.38978 0.40098 0.0
H2794 H 0.83759 0.318 0.32532 0.0
H2795 H 0.84619 0.33701 0.35783 0.0
C2796 C 0.42783 0.03224 0.24679 0.0
C2797 C 0.43732 0.04571 0.26297 0.0
C2798 C 0.43535 0.02932 0.22943 0.0
C2799 C 0.46967 0.05243 0.20223 0.0
H2800 H 0.4667 0.99959 0.17555 0.0
C2801 C 0.51805 0.02977 0.14978 0.0
C2802 C 0.51158 0.01404 0.13441 0.0
C2803 C 0.50655 0.03595 0.16262 0.0
C2804 C 0.46728 0.01444 0.18256 0.0
H2805 H 0.4622 0.06634 0.27393 0.0
H2806 H 0.47547 0.06119 0.24333 0.0
H2807 H 0.45189 0.00523 0.20471 0.0
H2808 H 0.48832 0.9934 0.11891 0.0
H2809 H 0.46805 0.00396 0.14163 0.0
H2810 H 0.48563 0.06155 0.18033 0.0
C2811 C 0.4621 0.05315 0.24412 0.0
C2812 C 0.45889 0.01765 0.1993 0.0
C2813 C 0.4546 0.05598 0.26161 0.0
C2814 C 0.49346 0.00524 0.13114 0.0
C2815 C 0.48195 0.01135 0.14397 0.0
C2816 C 0.4781 0.04921 0.18545 0.0
C2817 C 0.45246 0.03987 0.2279 0.0
C2818 C 0.46034 0.03665 0.20949 0.0
C2819 C 0.48852 0.02637 0.16013 0.0
C2820 C 0.47728 0.03016 0.17576 0.0
H2821 H 0.41456 0.0239 0.24748 0.0
H2822 H 0.42766 0.01899 0.21713 0.0
H2823 H 0.47064 0.06723 0.20969 0.0
H2824 H 0.532 0.03698 0.15205 0.0
H2825 H 0.51193 0.0475 0.17502 0.0
C2826 C 0.8022 0.73858 0.96411 0.0
C2827 C 0.79746 0.71847 0.96346 0.0
C2828 C 0.80588 0.7457 0.94722 0.0
C2829 C 0.79589 0.7323 0.89464 0.0
H2830 H 0.83811 0.77209 0.89282 0.0
C2831 C 0.81253 0.7541 0.82283 0.0
C2832 C 0.8174 0.77414 0.82311 0.0
C2833 C 0.81245 0.74719 0.84008 0.0
C2834 C 0.8262 0.76108 0.89315 0.0
H2835 H 0.79269 0.69004 0.94473 0.0
H2836 H 0.79867 0.70247 0.91521 0.0
H2837 H 0.83245 0.76086 0.92313 0.0
H2838 H 0.82712 0.80236 0.84184 0.0
H2839 H 0.82693 0.79049 0.87178 0.0
H2840 H 0.78929 0.73273 0.86497 0.0
C2841 C 0.79969 0.71272 0.92876 0.0
C2842 C 0.82297 0.75469 0.91048 0.0
C2843 C 0.79634 0.70562 0.94565 0.0
C2844 C 0.82342 0.78694 0.84094 0.0
C2845 C 0.82327 0.78006 0.85823 0.0
C2846 C 0.79903 0.73877 0.87741 0.0
C2847 C 0.80453 0.73281 0.92938 0.0
C2848 C 0.80784 0.74013 0.91132 0.0
C2849 C 0.81716 0.76016 0.85803 0.0
C2850 C 0.81428 0.75312 0.87639 0.0
H2851 H 0.8033 0.74879 0.9777 0.0
H2852 H 0.8095 0.76126 0.94805 0.0
H2853 H 0.78397 0.7213 0.89499 0.0
H2854 H 0.80801 0.74374 0.80934 0.0
H2855 H 0.80812 0.7317 0.83938 0.0
C2856 C 0.84698 0.12834 0.01495 0.0
C2857 C 0.83069 0.11783 0.01906 0.0
C2858 C 0.86158 0.12021 0.01456 0.0
C2859 C 0.88005 0.08347 0.03216 0.0
H2860 H 0.90944 0.08934 0.99 0.0
C2861 C 0.93149 0.04024 0.00677 0.0
C2862 C 0.94614 0.05045 0.99925 0.0
C2863 C 0.91919 0.04999 0.01474 0.0
C2864 C 0.90155 0.08796 0.00208 0.0
H2865 H 0.81666 0.09055 0.02576 0.0
H2866 H 0.84233 0.07622 0.02483 0.0
H2867 H 0.88298 0.10197 0.9908 0.0
H2868 H 0.96078 0.0786 0.99567 0.0
H2869 H 0.93928 0.09583 0.00978 0.0
H2870 H 0.89853 0.06881 0.04301 0.0
C2871 C 0.84378 0.09083 0.0222 0.0
C2872 C 0.88638 0.09505 0.00245 0.0
C2873 C 0.82913 0.09897 0.0226 0.0
C2874 C 0.94952 0.07065 0.00156 0.0
C2875 C 0.93724 0.0804 0.00952 0.0
C2876 C 0.89527 0.07622 0.03172 0.0
C2877 C 0.86009 0.10144 0.0182 0.0
C2878 C 0.87562 0.09303 0.01756 0.0
C2879 C 0.92149 0.06991 0.01499 0.0
C2880 C 0.90619 0.07865 0.01677 0.0
H2881 H 0.84852 0.14289 0.01216 0.0
H2882 H 0.87411 0.12872 0.01162 0.0
H2883 H 0.87191 0.08185 0.04399 0.0
H2884 H 0.92877 0.02456 0.0049 0.0
H2885 H 0.90708 0.04164 0.0188 0.0
C2886 C 0.37323 0.41741 0.05145 0.0
C2887 C 0.35806 0.4224 0.04404 0.0
C2888 C 0.39015 0.429 0.05111 0.0
C2889 C 0.41498 0.4678 0.02766 0.0
H2890 H 0.45115 0.47294 0.06975 0.0
C2891 C 0.48392 0.52102 0.03489 0.0
C2892 C 0.4986 0.51328 0.03834 0.0
C2893 C 0.46674 0.51065 0.03643 0.0
C2894 C 0.44122 0.47155 0.05784 0.0
H2895 H 0.34889 0.44362 0.03043 0.0
H2896 H 0.37839 0.46413 0.03023 0.0
H2897 H 0.42122 0.45394 0.0708 0.0
H2898 H 0.50688 0.48853 0.04583 0.0
H2899 H 0.47683 0.4705 0.04907 0.0
H2900 H 0.43503 0.48575 0.01493 0.0
C2901 C 0.37725 0.45103 0.03603 0.0
C2902 C 0.42403 0.46058 0.05837 0.0
C2903 C 0.36027 0.43933 0.03626 0.0
C2904 C 0.49579 0.49498 0.04348 0.0
C2905 C 0.47862 0.4847 0.04532 0.0
C2906 C 0.43212 0.47896 0.02726 0.0
C2907 C 0.39246 0.44604 0.04347 0.0
C2908 C 0.41066 0.45838 0.04321 0.0
C2909 C 0.46385 0.4923 0.04154 0.0
C2910 C 0.44549 0.48086 0.04228 0.0
H2911 H 0.37208 0.40439 0.05741 0.0
H2912 H 0.40147 0.42436 0.05659 0.0
H2913 H 0.40522 0.46623 0.01555 0.0
H2914 H 0.48558 0.53465 0.03008 0.0
H2915 H 0.45567 0.5169 0.03341 0.0
C2916 C 0.40748 0.64548 0.78966 0.0
C2917 C 0.4026 0.62607 0.77904 0.0
C2918 C 0.39689 0.65906 0.78856 0.0
C2919 C 0.35685 0.66803 0.75967 0.0
H2920 H 0.36247 0.71224 0.80195 0.0
C2921 C 0.3239 0.73356 0.75251 0.0
C2922 C 0.319 0.74509 0.76884 0.0
C2923 C 0.33282 0.71863 0.75412 0.0
C2924 C 0.36043 0.69999 0.78995 0.0
H2925 H 0.38178 0.60645 0.75862 0.0
H2926 H 0.36322 0.62981 0.75681 0.0
H2927 H 0.37934 0.68784 0.80396 0.0
H2928 H 0.32043 0.74948 0.8001 0.0
H2929 H 0.33599 0.7236 0.80307 0.0
H2930 H 0.3376 0.68006 0.7459 0.0
C2931 C 0.37559 0.63473 0.76604 0.0
C2932 C 0.37052 0.68582 0.79096 0.0
C2933 C 0.3863 0.62103 0.76715 0.0
C2934 C 0.32353 0.74089 0.78705 0.0
C2935 C 0.33277 0.72602 0.78872 0.0
C2936 C 0.34678 0.68223 0.75867 0.0
C2937 C 0.38055 0.65422 0.77678 0.0
C2938 C 0.36915 0.6694 0.7758 0.0
C2939 C 0.33777 0.7145 0.77225 0.0
C2940 C 0.34831 0.69871 0.77373 0.0
H2941 H 0.4198 0.65045 0.79901 0.0
H2942 H 0.4019 0.67363 0.79689 0.0
H2943 H 0.35508 0.65607 0.74744 0.0
H2944 H 0.32101 0.73632 0.73821 0.0
H2945 H 0.33636 0.71074 0.74093 0.0
C2946 C 0.21385 0.62638 0.50789 0.0
C2947 C 0.22731 0.61629 0.5085 0.0
C2948 C 0.19625 0.61621 0.5057 0.0
C2949 C 0.16552 0.56913 0.50046 0.0
H2950 H 0.15606 0.58953 0.55278 0.0
C2951 C 0.10487 0.53173 0.52426 0.0
C2952 C 0.09423 0.54505 0.52761 0.0
C2953 C 0.12311 0.53823 0.52804 0.0
C2954 C 0.15862 0.58364 0.53823 0.0
H2955 H 0.23333 0.58784 0.50362 0.0
H2956 H 0.20254 0.57014 0.50017 0.0
H2957 H 0.18103 0.60696 0.53868 0.0
H2958 H 0.09323 0.57467 0.5393 0.0
H2959 H 0.12512 0.58642 0.54469 0.0
H2960 H 0.14283 0.54621 0.49957 0.0
C2961 C 0.20553 0.58578 0.50152 0.0
C2962 C 0.1726 0.59375 0.53004 0.0
C2963 C 0.2231 0.59592 0.50385 0.0
C2964 C 0.10149 0.56432 0.53671 0.0
C2965 C 0.11973 0.57094 0.53999 0.0
C2966 C 0.15135 0.55916 0.50852 0.0
C2967 C 0.19222 0.59602 0.5041 0.0
C2968 C 0.17599 0.58661 0.51109 0.0
C2969 C 0.13059 0.55823 0.53385 0.0
C2970 C 0.1477 0.56643 0.52743 0.0
H2971 H 0.21683 0.64211 0.51087 0.0
H2972 H 0.18597 0.62421 0.50745 0.0
H2973 H 0.16826 0.5633 0.48597 0.0
H2974 H 0.09921 0.51674 0.5173 0.0
H2975 H 0.13133 0.52814 0.52382 0.0
C2976 C 0.69173 0.96492 0.7412 0.0
C2977 C 0.69634 0.97339 0.72524 0.0
C2978 C 0.70386 0.95725 0.75064 0.0
C2979 C 0.75189 0.9635 0.75795 0.0
H2980 H 0.73961 0.91883 0.78229 0.0
C2981 C 0.80194 0.92464 0.7854 0.0
C2982 C 0.79946 0.91834 0.80291 0.0
C2983 C 0.78971 0.9334 0.77766 0.0
C2984 C 0.74313 0.93152 0.77581 0.0
H2985 H 0.71618 0.97882 0.7053 0.0
H2986 H 0.73702 0.96416 0.72106 0.0
H2987 H 0.71665 0.9276 0.7632 0.0
H2988 H 0.78272 0.91609 0.82629 0.0
H2989 H 0.76113 0.93158 0.81269 0.0
H2990 H 0.77849 0.96702 0.77016 0.0
C2991 C 0.72437 0.96419 0.72676 0.0
C2992 C 0.73004 0.93647 0.76485 0.0
C2993 C 0.71235 0.97215 0.7175 0.0
C2994 C 0.78498 0.92135 0.81298 0.0
C2995 C 0.77262 0.92995 0.80513 0.0
C2996 C 0.76499 0.95844 0.76879 0.0
C2997 C 0.72056 0.95757 0.74395 0.0
C2998 C 0.73436 0.95234 0.75561 0.0
C2999 C 0.77476 0.93567 0.78724 0.0
C3000 C 0.76072 0.9423 0.7776 0.0
H3001 H 0.67962 0.96612 0.74769 0.0
H3002 H 0.70063 0.95239 0.76395 0.0
H3003 H 0.75548 0.97616 0.75144 0.0
H3004 H 0.81288 0.92197 0.77731 0.0
H3005 H 0.79144 0.93741 0.76368 0.0
C3006 C 0.73705 0.90428 0.53578 0.0
C3007 C 0.75486 0.91367 0.53537 0.0
C3008 C 0.72364 0.91425 0.53449 0.0
C3009 C 0.71644 0.96433 0.53739 0.0
H3010 H 0.67137 0.9364 0.50887 0.0
C3011 C 0.66261 0.00506 0.52404 0.0
C3012 C 0.65223 0.99902 0.50618 0.0
C3013 C 0.67349 0.99365 0.52987 0.0
C3014 C 0.68394 0.94456 0.51665 0.0
H3015 H 0.77257 0.94096 0.53347 0.0
H3016 H 0.7493 0.9581 0.53048 0.0
H3017 H 0.69403 0.91903 0.51394 0.0
H3018 H 0.64425 0.97619 0.48068 0.0
H3019 H 0.66353 0.95641 0.49037 0.0
H3020 H 0.70709 0.9901 0.53865 0.0
C3021 C 0.74558 0.9432 0.53233 0.0
C3022 C 0.69688 0.93446 0.51992 0.0
C3023 C 0.75899 0.93329 0.53386 0.0
C3024 C 0.65233 0.98113 0.49448 0.0
C3025 C 0.66326 0.96973 0.50022 0.0
C3026 C 0.70371 0.97451 0.53365 0.0
C3027 C 0.7277 0.93381 0.53254 0.0
C3028 C 0.71341 0.94426 0.53014 0.0
C3029 C 0.6743 0.976 0.51784 0.0
C3030 C 0.68732 0.96483 0.52305 0.0
H3031 H 0.73341 0.88917 0.53701 0.0
H3032 H 0.7101 0.90659 0.53507 0.0
H3033 H 0.72878 0.97236 0.54576 0.0
H3034 H 0.66267 0.01888 0.53324 0.0
H3035 H 0.68137 0.99885 0.54374 0.0
C3036 C 0.38586 0.50477 0.77396 0.0
C3037 C 0.40088 0.50726 0.76351 0.0
C3038 C 0.37546 0.48594 0.77428 0.0
C3039 C 0.36774 0.43273 0.74852 0.0
H3040 H 0.34241 0.42231 0.79261 0.0
C3041 C 0.33724 0.35338 0.75826 0.0
C3042 C 0.32041 0.34915 0.76516 0.0
C3043 C 0.34616 0.37262 0.75785 0.0
C3044 C 0.34926 0.42491 0.78005 0.0
H3045 H 0.41644 0.49121 0.74529 0.0
H3046 H 0.39899 0.45921 0.74612 0.0
H3047 H 0.35933 0.45524 0.79254 0.0
H3048 H 0.30021 0.36248 0.77762 0.0
H3049 H 0.31585 0.39603 0.77728 0.0
H3050 H 0.35802 0.40232 0.73629 0.0
C3051 C 0.39473 0.47156 0.7538 0.0
C3052 C 0.35903 0.444 0.77996 0.0
C3053 C 0.40501 0.49022 0.75347 0.0
C3054 C 0.31294 0.36498 0.77186 0.0
C3055 C 0.32207 0.38434 0.77186 0.0
C3056 C 0.35819 0.41367 0.74874 0.0
C3057 C 0.37963 0.46885 0.76413 0.0
C3058 C 0.3686 0.44839 0.76421 0.0
C3059 C 0.33886 0.38856 0.76477 0.0
C3060 C 0.34878 0.40929 0.76452 0.0
H3061 H 0.38215 0.51735 0.78199 0.0
H3062 H 0.36397 0.48489 0.78234 0.0
H3063 H 0.37431 0.43511 0.73576 0.0
H3064 H 0.34358 0.34172 0.75307 0.0
H3065 H 0.35906 0.37501 0.75244 0.0
C3066 C 0.22515 0.59244 0.2481 0.0
C3067 C 0.22045 0.58144 0.22921 0.0
C3068 C 0.23476 0.61153 0.25105 0.0
C3069 C 0.24663 0.65279 0.22733 0.0
H3070 H 0.28227 0.67101 0.2716 0.0
C3071 C 0.26604 0.73068 0.26637 0.0
C3072 C 0.28384 0.73924 0.2725 0.0
C3073 C 0.26097 0.7111 0.25817 0.0
C3074 C 0.2727 0.66601 0.2589 0.0
H3075 H 0.22138 0.58177 0.19859 0.0
H3076 H 0.23878 0.61524 0.2038 0.0
H3077 H 0.2678 0.63665 0.26261 0.0
H3078 H 0.31032 0.73476 0.27659 0.0
H3079 H 0.3014 0.69997 0.262 0.0
H3080 H 0.25119 0.68225 0.224 0.0
C3081 C 0.23492 0.60905 0.21626 0.0
C3082 C 0.26422 0.64646 0.25395 0.0
C3083 C 0.22508 0.58995 0.21329 0.0
C3084 C 0.29654 0.72816 0.27147 0.0
C3085 C 0.29148 0.70846 0.26317 0.0
C3086 C 0.25517 0.67232 0.23222 0.0
C3087 C 0.24005 0.61984 0.23518 0.0
C3088 C 0.25069 0.63986 0.23857 0.0
C3089 C 0.27367 0.69993 0.25626 0.0
C3090 C 0.26777 0.67911 0.24847 0.0
H3091 H 0.22132 0.58637 0.26064 0.0
H3092 H 0.23799 0.61979 0.26577 0.0
H3093 H 0.23618 0.64807 0.21546 0.0
H3094 H 0.25615 0.73923 0.26755 0.0
H3095 H 0.24708 0.70468 0.2535 0.0
C3096 C 0.52959 0.7115 0.45286 0.0
C3097 C 0.5156 0.71942 0.45984 0.0
C3098 C 0.53373 0.69548 0.45937 0.0
C3099 C 0.51498 0.65528 0.48555 0.0
H3100 H 0.56296 0.6481 0.48625 0.0
C3101 C 0.53566 0.59169 0.51505 0.0
C3102 C 0.54421 0.58054 0.50195 0.0
C3103 C 0.53332 0.60982 0.51198 0.0
C3104 C 0.54948 0.64989 0.48615 0.0
H3105 H 0.49523 0.71659 0.47958 0.0
H3106 H 0.50269 0.68931 0.4913 0.0
H3107 H 0.55655 0.6771 0.47701 0.0
H3108 H 0.55715 0.57972 0.4756 0.0
H3109 H 0.55424 0.61177 0.47097 0.0
H3110 H 0.50812 0.6281 0.49507 0.0
C3111 C 0.51027 0.69504 0.48038 0.0
C3112 C 0.54572 0.66651 0.48066 0.0
C3113 C 0.50605 0.71094 0.47374 0.0
C3114 C 0.55095 0.58822 0.48621 0.0
C3115 C 0.54917 0.60655 0.48351 0.0
C3116 C 0.51883 0.63881 0.49134 0.0
C3117 C 0.52412 0.68688 0.47324 0.0
C3118 C 0.52834 0.66943 0.47998 0.0
C3119 C 0.53986 0.61737 0.496 0.0
C3120 C 0.53609 0.63576 0.49149 0.0
H3121 H 0.53726 0.7175 0.44212 0.0
H3122 H 0.54429 0.68963 0.45314 0.0
H3123 H 0.50137 0.65655 0.48496 0.0
H3124 H 0.52981 0.58587 0.52695 0.0
H3125 H 0.52607 0.61775 0.52188 0.0
C3126 C 0.64458 0.29808 0.63555 0.0
C3127 C 0.63247 0.3091 0.64233 0.0
C3128 C 0.65957 0.29772 0.64738 0.0
C3129 C 0.68897 0.32302 0.69302 0.0
H3130 H 0.70292 0.27399 0.6871 0.0
C3131 C 0.74493 0.30998 0.74485 0.0
C3132 C 0.75557 0.29754 0.73714 0.0
C3133 C 0.73026 0.31228 0.73363 0.0
C3134 C 0.69947 0.28792 0.68883 0.0
H3135 H 0.6272 0.32879 0.66722 0.0
H3136 H 0.65343 0.32811 0.68803 0.0
H3137 H 0.67704 0.27641 0.66768 0.0
H3138 H 0.75932 0.27848 0.7109 0.0
H3139 H 0.73421 0.28275 0.69137 0.0
H3140 H 0.71148 0.33444 0.71435 0.0
C3141 C 0.65129 0.31977 0.67334 0.0
C3142 C 0.68448 0.28933 0.6776 0.0
C3143 C 0.63615 0.32013 0.6614 0.0
C3144 C 0.75141 0.288 0.71758 0.0
C3145 C 0.7368 0.29035 0.70634 0.0
C3146 C 0.70402 0.3216 0.70431 0.0
C3147 C 0.66315 0.30831 0.66659 0.0
C3148 C 0.67899 0.30693 0.67932 0.0
C3149 C 0.72578 0.30231 0.71422 0.0
C3150 C 0.70961 0.30403 0.70233 0.0
H3151 H 0.64243 0.28945 0.62098 0.0
H3152 H 0.66844 0.28908 0.6413 0.0
H3153 H 0.6854 0.3369 0.69475 0.0
H3154 H 0.74789 0.31806 0.75956 0.0
H3155 H 0.72222 0.32162 0.74037 0.0
C3156 C 0.01961 0.33417 0.95091 0.0
C3157 C 0.02336 0.32337 0.96473 0.0
C3158 C 0.02081 0.35418 0.95626 0.0
C3159 C 0.04113 0.39782 0.99431 0.0
H3160 H 0.00649 0.42 0.97026 0.0
C3161 C 0.0421 0.48051 0.01314 0.0
C3162 C 0.04027 0.48905 0.99694 0.0
C3163 C 0.03864 0.46019 0.011 0.0
C3164 C 0.01632 0.41407 0.97707 0.0
H3165 H 0.03149 0.32546 0.99513 0.0
H3166 H 0.03367 0.36038 0.00444 0.0
H3167 H 0.00353 0.38495 0.96301 0.0
H3168 H 0.03369 0.48315 0.9659 0.0
H3169 H 0.02723 0.44788 0.96216 0.0
H3170 H 0.054 0.42709 0.00823 0.0
C3171 C 0.02982 0.35333 0.98941 0.0
C3172 C 0.01466 0.39394 0.97285 0.0
C3173 C 0.02847 0.33324 0.98407 0.0
C3174 C 0.03481 0.47693 0.97867 0.0
C3175 C 0.0311 0.45671 0.97656 0.0
C3176 C 0.04277 0.41801 0.99857 0.0
C3177 C 0.02593 0.36409 0.97559 0.0
C3178 C 0.0272 0.38551 0.98113 0.0
C3179 C 0.03321 0.44802 0.99261 0.0
C3180 C 0.03054 0.42643 0.98975 0.0
H3181 H 0.01562 0.32714 0.93589 0.0
H3182 H 0.01795 0.36194 0.94512 0.0
H3183 H 0.05113 0.39194 1.00087 0.0
H3184 H 0.04673 0.48954 0.02733 0.0
H3185 H 0.04038 0.454 0.02368 0.0
C3186 C 0.02915 0.80493 0.158 0.0
C3187 C 0.02916 0.81121 0.14024 0.0
C3188 C 0.01394 0.8029 0.16803 0.0
C3189 C 0.97034 0.81717 0.1715 0.0
H3190 H 0.95968 0.7745 0.19872 0.0
C3191 C 0.9043 0.79343 0.20819 0.0
C3192 C 0.90686 0.78867 0.22651 0.0
C3193 C 0.91876 0.79782 0.19717 0.0
C3194 C 0.96249 0.78658 0.19129 0.0
H3195 H 0.01305 0.82056 0.11935 0.0
H3196 H 0.9867 0.81691 0.13667 0.0
H3197 H 0.98557 0.77846 0.1807 0.0
H3198 H 0.92694 0.78661 0.24818 0.0
H3199 H 0.95169 0.79387 0.22909 0.0
H3200 H 0.94691 0.82499 0.18204 0.0
C3201 C 0.99844 0.81368 0.14301 0.0
C3202 C 0.97746 0.78893 0.181 0.0
C3203 C 0.0136 0.81565 0.13297 0.0
C3204 C 0.92433 0.78972 0.23397 0.0
C3205 C 0.93858 0.79384 0.22298 0.0
C3206 C 0.95521 0.8147 0.18172 0.0
C3207 C 0.99827 0.80713 0.16066 0.0
C3208 C 0.98184 0.80442 0.17116 0.0
C3209 C 0.93599 0.79738 0.20421 0.0
C3210 C 0.95125 0.79954 0.19203 0.0
H3211 H 0.04085 0.80139 0.16407 0.0
H3212 H 0.01453 0.79811 0.1817 0.0
H3213 H 0.97323 0.82936 0.16425 0.0
H3214 H 0.89108 0.79276 0.20197 0.0
H3215 H 0.91631 0.80062 0.1828 0.0
C3216 C 0.50438 0.30344 0.11321 0.0
C3217 C 0.51682 0.30475 0.12888 0.0
C3218 C 0.50616 0.31832 0.1028 0.0
C3219 C 0.53952 0.36076 0.0947 0.0
H3220 H 0.49846 0.3738 0.07142 0.0
C3221 C 0.54614 0.42638 0.05896 0.0
C3222 C 0.53979 0.4211 0.03926 0.0
C3223 C 0.54134 0.41339 0.0712 0.0
C3224 C 0.50996 0.37028 0.07799 0.0
H3225 H 0.54042 0.3225 0.14654 0.0
H3226 H 0.543 0.34906 0.12923 0.0
H3227 H 0.49425 0.34832 0.09055 0.0
H3228 H 0.5227 0.39909 0.01695 0.0
H3229 H 0.51407 0.37625 0.03855 0.0
H3230 H 0.55516 0.38306 0.08253 0.0
C3231 C 0.53235 0.33627 0.12427 0.0
C3232 C 0.50762 0.35563 0.08874 0.0
C3233 C 0.53085 0.32115 0.13428 0.0
C3234 C 0.52785 0.4032 0.03211 0.0
C3235 C 0.52281 0.39033 0.04442 0.0
C3236 C 0.54183 0.37564 0.08438 0.0
C3237 C 0.52017 0.33493 0.10826 0.0
C3238 C 0.52241 0.35065 0.09712 0.0
C3239 C 0.52992 0.39517 0.06388 0.0
C3240 C 0.52709 0.38041 0.07589 0.0
H3241 H 0.49348 0.29076 0.10881 0.0
H3242 H 0.49674 0.31663 0.09034 0.0
H3243 H 0.55122 0.35697 0.10044 0.0
H3244 H 0.55533 0.44022 0.06469 0.0
H3245 H 0.54692 0.4173 0.08622 0.0
C3246 C 0.03926 0.31841 0.35027 0.0
C3247 C 0.03928 0.29929 0.35203 0.0
C3248 C 0.02341 0.32373 0.34699 0.0
C3249 C 0.97513 0.30777 0.34934 0.0
H3250 H 0.97316 0.34218 0.31328 0.0
C3251 C 0.91199 0.31063 0.30564 0.0
C3252 C 0.91071 0.32814 0.30022 0.0
C3253 C 0.92693 0.30971 0.31695 0.0
C3254 C 0.97355 0.33294 0.32375 0.0
H3255 H 0.02286 0.27057 0.35115 0.0
H3256 H 0.99499 0.27962 0.34432 0.0
H3257 H 0.00104 0.33469 0.32183 0.0
H3258 H 0.9231 0.35874 0.30363 0.0
H3259 H 0.94928 0.35723 0.3237 0.0
H3260 H 0.94729 0.30539 0.35041 0.0
C3261 C 0.00725 0.29067 0.34624 0.0
C3262 C 0.98955 0.32858 0.32861 0.0
C3263 C 0.02317 0.28541 0.34989 0.0
C3264 C 0.92401 0.34502 0.30737 0.0
C3265 C 0.9389 0.34415 0.31885 0.0
C3266 C 0.95903 0.31206 0.34435 0.0
C3267 C 0.00723 0.30995 0.345 0.0
C3268 C 0.99045 0.31563 0.34112 0.0
C3269 C 0.94079 0.32633 0.32309 0.0
C3270 C 0.95805 0.32435 0.33117 0.0
H3271 H 0.05148 0.32954 0.35209 0.0
H3272 H 0.02386 0.33875 0.3464 0.0
H3273 H 0.97551 0.2981 0.35938 0.0
H3274 H 0.90191 0.29739 0.30023 0.0
H3275 H 0.92812 0.29572 0.31977 0.0
C3276 C 0.98056 0.69839 0.60492 0.0
C3277 C 0.9891 0.70929 0.62283 0.0
C3278 C 0.98543 0.68141 0.59672 0.0
C3279 C 0.02459 0.66439 0.59366 0.0
H3280 H 0.99494 0.61278 0.57436 0.0
C3281 C 0.05144 0.59845 0.56109 0.0
C3282 C 0.04077 0.58541 0.54544 0.0
C3283 C 0.04537 0.61391 0.57098 0.0
C3284 C 0.0033 0.62721 0.57952 0.0
H3285 H 0.0083 0.71019 0.64699 0.0
H3286 H 0.01695 0.68103 0.63234 0.0
H3287 H 0.98199 0.63811 0.59167 0.0
H3288 H 0.0165 0.57976 0.52634 0.0
H3289 H 0.00631 0.60691 0.54297 0.0
H3290 H 0.04579 0.65384 0.58106 0.0
C3291 C 0.00661 0.68562 0.62472 0.0
C3292 C 0.99591 0.64153 0.58942 0.0
C3293 C 0.00164 0.70231 0.63299 0.0
C3294 C 0.02484 0.58915 0.53864 0.0
C3295 C 0.01888 0.60464 0.54829 0.0
C3296 C 0.03194 0.65016 0.58356 0.0
C3297 C 0.99894 0.67548 0.60635 0.0
C3298 C 0.00654 0.66014 0.59643 0.0
C3299 C 0.02875 0.61664 0.56497 0.0
C3300 C 0.0213 0.63154 0.57628 0.0
H3301 H 0.97074 0.70335 0.59694 0.0
H3302 H 0.97943 0.67356 0.58245 0.0
H3303 H 0.03289 0.67884 0.59895 0.0
H3304 H 0.06427 0.59656 0.56589 0.0
H3305 H 0.05337 0.62325 0.58367 0.0
C3306 C 0.63742 0.80677 0.83007 0.0
C3307 C 0.64068 0.8183 0.84878 0.0
C3308 C 0.65043 0.80836 0.81737 0.0
C3309 C 0.69421 0.83743 0.81015 0.0
H3310 H 0.70376 0.7867 0.7928 0.0
C3311 C 0.76073 0.81781 0.81133 0.0
C3312 C 0.76519 0.80744 0.79425 0.0
C3313 C 0.74432 0.82237 0.81176 0.0
C3314 C 0.70094 0.80089 0.79696 0.0
H3315 H 0.65946 0.84139 0.86862 0.0
H3316 H 0.68246 0.84382 0.84658 0.0
H3317 H 0.67575 0.78891 0.80547 0.0
H3318 H 0.75667 0.79518 0.76391 0.0
H3319 H 0.7269 0.80078 0.76542 0.0
H3320 H 0.72041 0.84924 0.80344 0.0
C3321 C 0.66979 0.83374 0.84161 0.0
C3322 C 0.68495 0.8022 0.80419 0.0
C3323 C 0.65678 0.83212 0.85434 0.0
C3324 C 0.75313 0.80202 0.77753 0.0
C3325 C 0.7364 0.80581 0.77818 0.0
C3326 C 0.71034 0.83609 0.80312 0.0
C3327 C 0.66686 0.82152 0.82322 0.0
C3328 C 0.68175 0.82047 0.81153 0.0
C3329 C 0.73203 0.81608 0.79529 0.0
C3330 C 0.71392 0.81781 0.79721 0.0
H3331 H 0.62503 0.7961 0.82542 0.0
H3332 H 0.64788 0.79885 0.80322 0.0
H3333 H 0.69191 0.85165 0.81558 0.0
H3334 H 0.77 0.82263 0.82429 0.0
H3335 H 0.74096 0.83013 0.82516 0.0
C3336 C 0.48083 0.58284 0.71892 0.0
C3337 C 0.46373 0.57275 0.72192 0.0
C3338 C 0.48783 0.57971 0.70081 0.0
C3339 C 0.48089 0.54537 0.6512 0.0
H3340 H 0.516 0.58704 0.63809 0.0
C3341 C 0.50724 0.53902 0.57359 0.0
C3342 C 0.52502 0.54801 0.57171 0.0
C3343 C 0.49972 0.54187 0.59148 0.0
C3344 C 0.50638 0.57503 0.64142 0.0
H3345 H 0.44078 0.55107 0.70714 0.0
H3346 H 0.45273 0.54574 0.67561 0.0
H3347 H 0.50314 0.59211 0.6687 0.0
H3348 H 0.54833 0.56753 0.58829 0.0
H3349 H 0.53552 0.57261 0.61896 0.0
H3350 H 0.48406 0.52841 0.62369 0.0
C3351 C 0.46099 0.55608 0.68749 0.0
C3352 C 0.49888 0.57795 0.6593 0.0
C3353 C 0.45395 0.55922 0.70575 0.0
C3354 C 0.53478 0.56016 0.58867 0.0
C3355 C 0.52722 0.56322 0.60652 0.0
C3356 C 0.48833 0.54249 0.63324 0.0
C3357 C 0.47814 0.56631 0.68449 0.0
C3358 C 0.48596 0.56318 0.6648 0.0
C3359 C 0.5095 0.55408 0.60846 0.0
C3360 C 0.50133 0.55722 0.62787 0.0
H3361 H 0.48906 0.59334 0.73073 0.0
H3362 H 0.50114 0.58777 0.69983 0.0
H3363 H 0.47132 0.53332 0.65451 0.0
H3364 H 0.49901 0.5295 0.56115 0.0
H3365 H 0.48603 0.53462 0.59184 0.0
C3366 C 0.77158 0.18449 0.98596 0.0
C3367 C 0.77181 0.16483 0.98363 0.0
C3368 C 0.77326 0.19353 0.9701 0.0
C3369 C 0.76646 0.18524 0.91813 0.0
H3370 H 0.80474 0.23122 0.92288 0.0
C3371 C 0.77392 0.22349 0.85566 0.0
C3372 C 0.77371 0.24307 0.86129 0.0
C3373 C 0.77886 0.21349 0.86937 0.0
C3374 C 0.79405 0.21838 0.92137 0.0
H3375 H 0.77279 0.1387 0.96332 0.0
H3376 H 0.77507 0.15444 0.93527 0.0
H3377 H 0.80035 0.21456 0.95015 0.0
H3378 H 0.77998 0.26831 0.88458 0.0
H3379 H 0.78824 0.25082 0.90881 0.0
H3380 H 0.75945 0.18941 0.88987 0.0
C3381 C 0.77403 0.1629 0.94935 0.0
C3382 C 0.7915 0.20897 0.93692 0.0
C3383 C 0.77278 0.15398 0.96527 0.0
C3384 C 0.78023 0.25317 0.88011 0.0
C3385 C 0.78498 0.24313 0.8939 0.0
C3386 C 0.76885 0.19474 0.90268 0.0
C3387 C 0.77475 0.18281 0.95182 0.0
C3388 C 0.77759 0.1925 0.93539 0.0
C3389 C 0.78324 0.22296 0.88886 0.0
C3390 C 0.78257 0.2115 0.90421 0.0
H3391 H 0.77087 0.193 1.00011 0.0
H3392 H 0.77361 0.20889 0.97212 0.0
H3393 H 0.75559 0.17259 0.91682 0.0
H3394 H 0.76885 0.2156 0.84111 0.0
H3395 H 0.77781 0.19802 0.86506 0.0
C3396 C 0.14351 0.54163 0.20158 0.0
C3397 C 0.14211 0.52403 0.20783 0.0
C3398 C 0.13406 0.54212 0.18448 0.0
C3399 C 0.09726 0.51428 0.14849 0.0
H3400 H 0.12154 0.54775 0.1161 0.0
C3401 C 0.06874 0.51743 0.07255 0.0
C3402 C 0.06887 0.53626 0.06999 0.0
C3403 C 0.07782 0.5147 0.08894 0.0
C3404 C 0.11469 0.53838 0.12507 0.0
H3405 H 0.12974 0.49329 0.20189 0.0
H3406 H 0.11337 0.49394 0.17152 0.0
H3407 H 0.13709 0.54499 0.14611 0.0
H3408 H 0.07818 0.56703 0.08177 0.0
H3409 H 0.09426 0.5623 0.11078 0.0
H3410 H 0.07495 0.50754 0.12724 0.0
C3411 C 0.12139 0.50745 0.18002 0.0
C3412 C 0.12348 0.53687 0.14222 0.0
C3413 C 0.13061 0.50705 0.19738 0.0
C3414 C 0.07781 0.55241 0.08389 0.0
C3415 C 0.08713 0.54971 0.10018 0.0
C3416 C 0.08857 0.5156 0.13122 0.0
C3417 C 0.12339 0.52491 0.17323 0.0
C3418 C 0.11465 0.52521 0.15432 0.0
C3419 C 0.08729 0.53084 0.10264 0.0
C3420 C 0.0971 0.52802 0.11973 0.0
H3421 H 0.15247 0.55484 0.20955 0.0
H3422 H 0.13545 0.55588 0.17985 0.0
H3423 H 0.09014 0.50526 0.15758 0.0
H3424 H 0.06208 0.50491 0.06158 0.0
H3425 H 0.07788 0.50005 0.09064 0.0
C3426 C 0.80297 0.86573 0.46816 0.0
C3427 C 0.80122 0.85338 0.48158 0.0
C3428 C 0.80286 0.85823 0.44848 0.0
C3429 C 0.78894 0.81586 0.40969 0.0
H3430 H 0.82965 0.8408 0.38653 0.0
C3431 C 0.79962 0.79419 0.32817 0.0
C3432 C 0.80255 0.81027 0.31908 0.0
C3433 C 0.80059 0.79701 0.34844 0.0
C3434 C 0.81824 0.83366 0.3928 0.0
H3435 H 0.79694 0.82345 0.48494 0.0
H3436 H 0.79609 0.81014 0.45009 0.0
H3437 H 0.82762 0.85058 0.42115 0.0
H3438 H 0.80876 0.84165 0.32366 0.0
H3439 H 0.81102 0.8466 0.35887 0.0
H3440 H 0.77927 0.79943 0.38104 0.0
C3441 C 0.7979 0.82566 0.455 0.0
C3442 C 0.81705 0.83929 0.41256 0.0
C3443 C 0.79846 0.83325 0.47485 0.0
C3444 C 0.8068 0.82907 0.33043 0.0
C3445 C 0.80809 0.83187 0.35055 0.0
C3446 C 0.79008 0.81026 0.38978 0.0
C3447 C 0.80061 0.83818 0.44175 0.0
C3448 C 0.80224 0.83076 0.42111 0.0
C3449 C 0.80469 0.81591 0.35978 0.0
C3450 C 0.80459 0.81944 0.38112 0.0
H3451 H 0.80518 0.88131 0.47297 0.0
H3452 H 0.80483 0.86815 0.43851 0.0
H3453 H 0.77737 0.80912 0.41599 0.0
H3454 H 0.79586 0.77955 0.31963 0.0
H3455 H 0.79788 0.78448 0.35524 0.0
C3456 C 0.46125 0.57513 0.84071 0.0
C3457 C 0.46321 0.56299 0.82321 0.0
C3458 C 0.46963 0.57388 0.85885 0.0
C3459 C 0.49348 0.54069 0.88244 0.0
H3460 H 0.50261 0.58327 0.92667 0.0
C3461 C 0.5306 0.53843 0.95865 0.0
C3462 C 0.5225 0.54502 0.97522 0.0
C3463 C 0.5247 0.54072 0.9398 0.0
C3464 C 0.50015 0.5711 0.91453 0.0
H3465 H 0.47652 0.54048 0.81183 0.0
H3466 H 0.49114 0.53878 0.84243 0.0
H3467 H 0.49005 0.58741 0.89563 0.0
H3468 H 0.50228 0.56047 0.98411 0.0
H3469 H 0.49321 0.56539 0.95242 0.0
H3470 H 0.5039 0.52455 0.90149 0.0
C3471 C 0.48271 0.5489 0.84265 0.0
C3472 C 0.49273 0.57346 0.89649 0.0
C3473 C 0.47431 0.55006 0.82471 0.0
C3474 C 0.50896 0.55481 0.97208 0.0
C3475 C 0.50366 0.55778 0.95363 0.0
C3476 C 0.50112 0.53844 0.90043 0.0
C3477 C 0.48041 0.56048 0.86035 0.0
C3478 C 0.48897 0.55824 0.87992 0.0
C3479 C 0.51114 0.55063 0.93694 0.0
C3480 C 0.50443 0.5535 0.917 0.0
H3481 H 0.45288 0.5853 0.8405 0.0
H3482 H 0.46717 0.58317 0.87178 0.0
H3483 H 0.4907 0.52824 0.87061 0.0
H3484 H 0.54145 0.53151 0.96013 0.0
H3485 H 0.53106 0.53507 0.92749 0.0
C3486 C 0.79294 0.20298 0.07082 0.0
C3487 C 0.78869 0.18266 0.06843 0.0
C3488 C 0.78876 0.21439 0.08733 0.0
C3489 C 0.78024 0.21126 0.13737 0.0
H3490 H 0.76573 0.25965 0.13835 0.0
C3491 C 0.76461 0.25162 0.20728 0.0
C3492 C 0.77743 0.26915 0.21365 0.0
C3493 C 0.76181 0.24283 0.18779 0.0
C3494 C 0.76969 0.2461 0.13812 0.0
H3495 H 0.77595 0.15829 0.08094 0.0
H3496 H 0.76835 0.17805 0.10923 0.0
H3497 H 0.76922 0.23985 0.10716 0.0
H3498 H 0.79488 0.2929 0.2042 0.0
H3499 H 0.79038 0.27709 0.16998 0.0
H3500 H 0.78067 0.21736 0.16814 0.0
C3501 C 0.77538 0.18527 0.09876 0.0
C3502 C 0.77179 0.23488 0.12042 0.0
C3503 C 0.77976 0.17394 0.0825 0.0
C3504 C 0.78562 0.27895 0.19984 0.0
C3505 C 0.7828 0.27011 0.18024 0.0
C3506 C 0.77789 0.22226 0.15488 0.0
C3507 C 0.78015 0.2056 0.10156 0.0
C3508 C 0.77717 0.21739 0.11994 0.0
C3509 C 0.77159 0.25154 0.17434 0.0
C3510 C 0.77266 0.23974 0.1554 0.0
H3511 H 0.79958 0.21005 0.06004 0.0
H3512 H 0.79268 0.23005 0.08919 0.0
H3513 H 0.78487 0.19817 0.13758 0.0
H3514 H 0.7575 0.24397 0.21741 0.0
H3515 H 0.75291 0.22859 0.18339 0.0
C3516 C 0.17226 0.52922 0.30163 0.0
C3517 C 0.16889 0.54063 0.2883 0.0
C3518 C 0.16315 0.52912 0.31812 0.0
C3519 C 0.13733 0.55797 0.34791 0.0
H3520 H 0.11521 0.5096 0.36274 0.0
C3521 C 0.07794 0.55188 0.39007 0.0
C3522 C 0.08292 0.55178 0.40945 0.0
C3523 C 0.08858 0.54659 0.37582 0.0
C3524 C 0.12145 0.52312 0.35868 0.0
H3525 H 0.15318 0.56034 0.28123 0.0
H3526 H 0.13701 0.55973 0.30952 0.0
H3527 H 0.13539 0.50929 0.33712 0.0
H3528 H 0.1023 0.54527 0.42917 0.0
H3529 H 0.12085 0.536 0.40402 0.0
H3530 H 0.12281 0.57164 0.36873 0.0
C3531 C 0.14705 0.55142 0.30772 0.0
C3532 C 0.13303 0.52301 0.34426 0.0
C3533 C 0.15626 0.55173 0.29149 0.0
C3534 C 0.09806 0.54521 0.41424 0.0
C3535 C 0.10863 0.53985 0.39996 0.0
C3536 C 0.12565 0.55802 0.362 0.0
C3537 C 0.15053 0.54029 0.32127 0.0
C3538 C 0.14061 0.54041 0.3384 0.0
C3539 C 0.10418 0.54112 0.38085 0.0
C3540 C 0.11734 0.54057 0.36704 0.0
H3541 H 0.18197 0.52052 0.29937 0.0
H3542 H 0.16607 0.52047 0.32842 0.0
H3543 H 0.14338 0.57164 0.34401 0.0
H3544 H 0.06623 0.55669 0.3861 0.0
H3545 H 0.08515 0.54774 0.36103 0.0
C3546 C 0.79426 0.87254 0.59415 0.0
C3547 C 0.7946 0.8589 0.57727 0.0
C3548 C 0.79344 0.86698 0.61209 0.0
C3549 C 0.80374 0.83059 0.6381 0.0
H3550 H 0.77091 0.84719 0.67321 0.0
C3551 C 0.7916 0.80098 0.70748 0.0
C3552 C 0.79147 0.81459 0.72441 0.0
C3553 C 0.79127 0.80634 0.68949 0.0
C3554 C 0.78025 0.84263 0.66362 0.0
H3555 H 0.79471 0.82889 0.56588 0.0
H3556 H 0.7936 0.81919 0.5974 0.0
H3557 H 0.77186 0.85655 0.64157 0.0
H3558 H 0.79108 0.84439 0.73613 0.0
H3559 H 0.79027 0.85387 0.70442 0.0
H3560 H 0.81221 0.81677 0.66014 0.0
C3561 C 0.79381 0.83414 0.59669 0.0
C3562 C 0.78079 0.84795 0.64554 0.0
C3563 C 0.79433 0.83964 0.57867 0.0
C3564 C 0.79092 0.83365 0.72315 0.0
C3565 C 0.79043 0.839 0.70508 0.0
C3566 C 0.80322 0.8253 0.65617 0.0
C3567 C 0.79324 0.84775 0.61354 0.0
C3568 C 0.79254 0.84196 0.63262 0.0
C3569 C 0.79085 0.82543 0.68812 0.0
C3570 C 0.79144 0.83124 0.66907 0.0
H3571 H 0.79439 0.88748 0.59347 0.0
H3572 H 0.79319 0.87779 0.62488 0.0
H3573 H 0.81311 0.82604 0.62854 0.0
H3574 H 0.79274 0.7864 0.70818 0.0
H3575 H 0.79153 0.79557 0.67667 0.0
C3576 C 0.74962 0.45028 0.49757 0.0
C3577 C 0.76636 0.46072 0.50668 0.0
C3578 C 0.73507 0.45858 0.49958 0.0
C3579 C 0.72056 0.49315 0.53474 0.0
H3580 H 0.68665 0.49693 0.49387 0.0
C3581 C 0.67406 0.54253 0.55012 0.0
C3582 C 0.65616 0.53278 0.54657 0.0
C3583 C 0.68682 0.53375 0.54186 0.0
C3584 C 0.69607 0.49585 0.50531 0.0
H3585 H 0.78135 0.4883 0.52402 0.0
H3586 H 0.75606 0.5026 0.52746 0.0
H3587 H 0.71045 0.4802 0.48563 0.0
H3588 H 0.6374 0.50656 0.53115 0.0
H3589 H 0.65986 0.49133 0.51672 0.0
H3590 H 0.70654 0.50887 0.55439 0.0
C3591 C 0.75413 0.48802 0.51899 0.0
C3592 C 0.70948 0.48627 0.50065 0.0
C3593 C 0.76857 0.47983 0.51694 0.0
C3594 C 0.65114 0.5145 0.53396 0.0
C3595 C 0.6639 0.50579 0.52564 0.0
C3596 C 0.70734 0.50275 0.53933 0.0
C3597 C 0.73725 0.47727 0.5108 0.0
C3598 C 0.722 0.48533 0.51536 0.0
C3599 C 0.6818 0.51516 0.53002 0.0
C3600 C 0.6953 0.50453 0.52464 0.0
H3601 H 0.74765 0.43554 0.48949 0.0
H3602 H 0.72207 0.45014 0.49317 0.0
H3603 H 0.72987 0.49211 0.54631 0.0
H3604 H 0.67817 0.55674 0.5595 0.0
H3605 H 0.70068 0.54115 0.54525 0.0
C3606 C 0.23486 0.13545 0.49678 0.0
C3607 C 0.23831 0.15573 0.50295 0.0
C3608 C 0.21755 0.12392 0.49544 0.0
C3609 C 0.17019 0.12677 0.49225 0.0
H3610 H 0.16201 0.07833 0.51069 0.0
C3611 C 0.10097 0.0874 0.50871 0.0
C3612 C 0.09605 0.06695 0.504 0.0
C3613 C 0.11809 0.09754 0.50659 0.0
C3614 C 0.16406 0.09168 0.50522 0.0
H3615 H 0.22613 0.17975 0.51241 0.0
H3616 H 0.19621 0.15981 0.51014 0.0
H3617 H 0.19231 0.09712 0.51085 0.0
H3618 H 0.10544 0.04143 0.49264 0.0
H3619 H 0.13533 0.05897 0.48925 0.0
H3620 H 0.14196 0.12151 0.48691 0.0
C3621 C 0.20677 0.15273 0.50613 0.0
C3622 C 0.18147 0.10248 0.5053 0.0
C3623 C 0.22402 0.16419 0.50756 0.0
C3624 C 0.10865 0.05702 0.49656 0.0
C3625 C 0.12589 0.06715 0.49471 0.0
C3626 C 0.15282 0.11602 0.49221 0.0
C3627 C 0.20326 0.13242 0.5001 0.0
C3628 C 0.18478 0.12029 0.49902 0.0
C3629 C 0.1309 0.08755 0.49989 0.0
C3630 C 0.14949 0.09842 0.49887 0.0
H3631 H 0.24554 0.12843 0.49313 0.0
H3632 H 0.21536 0.10836 0.49059 0.0
H3633 H 0.17219 0.14022 0.48694 0.0
H3634 H 0.09166 0.09565 0.51436 0.0
H3635 H 0.12144 0.11323 0.51083 0.0
C3636 C 0.21011 0.95332 0.76116 0.0
C3637 C 0.19364 0.95215 0.7691 0.0
C3638 C 0.21984 0.93848 0.76126 0.0
C3639 C 0.2202 0.89263 0.78338 0.0
H3640 H 0.25758 0.88615 0.75065 0.0
C3641 C 0.26241 0.83672 0.79534 0.0
C3642 C 0.27051 0.8271 0.78034 0.0
C3643 C 0.25415 0.85194 0.79297 0.0
C3644 C 0.24709 0.88747 0.75989 0.0
H3645 H 0.17485 0.93314 0.78282 0.0
H3646 H 0.19072 0.90809 0.78241 0.0
H3647 H 0.24158 0.91154 0.74815 0.0
H3648 H 0.27584 0.82686 0.7505 0.0
H3649 H 0.26153 0.85349 0.74627 0.0
H3650 H 0.22503 0.86835 0.79462 0.0
C3651 C 0.19692 0.92056 0.77666 0.0
C3652 C 0.23785 0.90246 0.7586 0.0
C3653 C 0.18741 0.93524 0.77668 0.0
C3654 C 0.27006 0.8338 0.76264 0.0
C3655 C 0.2617 0.84925 0.76023 0.0
C3656 C 0.22924 0.8777 0.78454 0.0
C3657 C 0.21361 0.92168 0.76928 0.0
C3658 C 0.22405 0.90555 0.77035 0.0
C3659 C 0.25319 0.85858 0.7753 0.0
C3660 C 0.24312 0.87467 0.77304 0.0
H3661 H 0.21565 0.96579 0.75502 0.0
H3662 H 0.23247 0.94049 0.75528 0.0
H3663 H 0.21022 0.89401 0.79324 0.0
H3664 H 0.26232 0.83231 0.80924 0.0
H3665 H 0.24855 0.85858 0.80539 0.0
C3666 C 0.37646 0.99475 0.04347 0.0
C3667 C 0.3679 0.97586 0.04469 0.0
C3668 C 0.39305 0.99818 0.03658 0.0
C3669 C 0.43027 0.97566 0.0241 0.0
H3670 H 0.43998 0.0163 0.99406 0.0
C3671 C 0.49882 0.99935 0.0074 0.0
C3672 C 0.50499 0.01819 0.01831 0.0
C3673 C 0.48094 0.99252 1.00099 0.0
C3674 C 0.4372 0.00459 0.00199 0.0
H3675 H 0.36964 0.94581 0.04048 0.0
H3676 H 0.3982 0.95154 0.02767 0.0
H3677 H 0.41069 0.00727 0.00523 0.0
H3678 H 0.49834 0.04524 0.03027 0.0
H3679 H 0.46683 0.03326 0.01932 0.0
H3680 H 0.4568 0.97326 0.02133 0.0
C3681 C 0.39264 0.96388 0.0326 0.0
C3682 C 0.42064 0.99967 0.00872 0.0
C3683 C 0.37637 0.96061 0.0401 0.0
C3684 C 0.4936 0.03067 0.0217 0.0
C3685 C 0.47572 0.02391 0.01517 0.0
C3686 C 0.44664 0.9803 0.01709 0.0
C3687 C 0.40087 0.98261 0.03016 0.0
C3688 C 0.41736 0.98584 0.02066 0.0
C3689 C 0.46915 0.00441 0.00584 0.0
C3690 C 0.4505 0.99545 0.00684 0.0
H3691 H 0.36989 0.00658 0.04675 0.0
H3692 H 0.39938 0.0129 0.03555 0.0
H3693 H 0.42825 0.965 0.03329 0.0
H3694 H 0.50759 0.98954 0.00496 0.0
H3695 H 0.47608 0.97745 0.99384 0.0
C3696 C 0.89967 0.61634 0.81726 0.0
C3697 C 0.88967 0.59707 0.81316 0.0
C3698 C 0.89186 0.63111 0.81351 0.0
C3699 C 0.86016 0.63677 0.7788 0.0
H3700 H 0.85085 0.68056 0.81431 0.0
C3701 C 0.81154 0.67484 0.7539 0.0
C3702 C 0.81954 0.69401 0.75301 0.0
C3703 C 0.81941 0.66545 0.76618 0.0
C3704 C 0.85351 0.66839 0.80439 0.0
H3705 H 0.86352 0.57812 0.80316 0.0
H3706 H 0.85024 0.60379 0.79647 0.0
H3707 H 0.86844 0.65972 0.82639 0.0
H3708 H 0.84057 0.71932 0.76523 0.0
H3709 H 0.85497 0.70241 0.78631 0.0
H3710 H 0.84509 0.64486 0.7569 0.0
C3711 C 0.86397 0.60745 0.80256 0.0
C3712 C 0.86359 0.65675 0.81117 0.0
C3713 C 0.87162 0.59284 0.80639 0.0
C3714 C 0.83453 0.70434 0.76564 0.0
C3715 C 0.84254 0.69486 0.77779 0.0
C3716 C 0.85011 0.64823 0.7721 0.0
C3717 C 0.87418 0.62647 0.80559 0.0
C3718 C 0.8665 0.6407 0.79842 0.0
C3719 C 0.83543 0.67515 0.77735 0.0
C3720 C 0.84636 0.66374 0.78496 0.0
H3721 H 0.91359 0.61985 0.82251 0.0
H3722 H 0.89977 0.64588 0.8158 0.0
H3723 H 0.8625 0.62443 0.76883 0.0
H3724 H 0.79964 0.66697 0.74458 0.0
H3725 H 0.81374 0.65023 0.76593 0.0
C3726 C 0.85159 0.6534 0.98445 0.0
C3727 C 0.84111 0.65854 0.99924 0.0
C3728 C 0.86613 0.64565 0.98833 0.0
C3729 C 0.88442 0.62213 0.02522 0.0
H3730 H 0.92643 0.63029 0.99778 0.0
C3731 C 0.9451 0.59693 0.04901 0.0
C3732 C 0.95141 0.5848 0.03452 0.0
C3733 C 0.93354 0.608 0.04409 0.0
C3734 C 0.91474 0.62789 0.00549 0.0
H3735 H 0.83819 0.66045 0.02987 0.0
H3736 H 0.8638 0.64781 0.03683 0.0
H3737 H 0.90245 0.64584 0.99071 0.0
H3738 H 0.95152 0.57566 0.0035 0.0
H3739 H 0.93108 0.59507 0.99486 0.0
H3740 H 0.89682 0.60455 0.04024 0.0
C3741 C 0.86047 0.64892 0.02202 0.0
C3742 C 0.90094 0.6367 0.0014 0.0
C3743 C 0.84579 0.65631 0.01808 0.0
C3744 C 0.94682 0.58489 0.01495 0.0
C3745 C 0.93518 0.596 0.01001 0.0
C3746 C 0.89826 0.61365 0.02948 0.0
C3747 C 0.87069 0.64314 0.00716 0.0
C3748 C 0.88559 0.63397 0.01129 0.0
C3749 C 0.928 0.60716 0.02458 0.0
C3750 C 0.91357 0.61648 0.01975 0.0
H3751 H 0.84837 0.65501 0.96978 0.0
H3752 H 0.8735 0.64122 0.97643 0.0
H3753 H 0.87267 0.61909 0.03272 0.0
H3754 H 0.94875 0.59747 0.06419 0.0
H3755 H 0.92849 0.61681 0.0556 0.0
C3756 C 0.18945 0.08361 0.757 0.0
C3757 C 0.19534 0.07036 0.76684 0.0
C3758 C 0.19948 0.10272 0.7582 0.0
C3759 C 0.23861 0.14154 0.78628 0.0
H3760 H 0.23243 0.16596 0.74251 0.0
C3761 C 0.28211 0.21876 0.77958 0.0
C3762 C 0.2736 0.23139 0.77159 0.0
C3763 C 0.27322 0.19936 0.77985 0.0
C3764 C 0.23429 0.15958 0.75502 0.0
H3765 H 0.21705 0.06776 0.78603 0.0
H3766 H 0.23475 0.10109 0.78803 0.0
H3767 H 0.21683 0.13256 0.74118 0.0
H3768 H 0.24815 0.23292 0.75844 0.0
H3769 H 0.23308 0.19941 0.7582 0.0
H3770 H 0.25658 0.16876 0.79979 0.0
C3771 C 0.22207 0.09661 0.77935 0.0
C3772 C 0.22515 0.14016 0.75433 0.0
C3773 C 0.21192 0.07726 0.7781 0.0
C3774 C 0.2556 0.22383 0.76428 0.0
C3775 C 0.24682 0.20438 0.76415 0.0
C3776 C 0.24797 0.161 0.78687 0.0
C3777 C 0.21612 0.10979 0.76928 0.0
C3778 C 0.22684 0.13064 0.77001 0.0
C3779 C 0.25543 0.19163 0.77186 0.0
C3780 C 0.24586 0.17052 0.7713 0.0
H3781 H 0.17683 0.07926 0.74817 0.0
H3782 H 0.19385 0.11204 0.75052 0.0
H3783 H 0.24039 0.13522 0.79885 0.0
H3784 H 0.29554 0.22394 0.78612 0.0
H3785 H 0.28044 0.19031 0.7861 0.0
C3786 C 0.36314 0.98083 0.30097 0.0
C3787 C 0.37278 0.98526 0.28542 0.0
C3788 C 0.35608 0.96163 0.30189 0.0
C3789 C 0.35764 0.91243 0.28369 0.0
H3790 H 0.30736 0.90194 0.26674 0.0
C3791 C 0.32997 0.8399 0.25194 0.0
C3792 C 0.31738 0.83246 0.26377 0.0
C3793 C 0.33132 0.85851 0.24877 0.0
C3794 C 0.32135 0.90475 0.27148 0.0
H3795 H 0.38369 0.97344 0.25946 0.0
H3796 H 0.37111 0.93985 0.261 0.0
H3797 H 0.32351 0.93505 0.28161 0.0
H3798 H 0.29321 0.83596 0.27602 0.0
H3799 H 0.29829 0.87015 0.27506 0.0
H3800 H 0.35586 0.8825 0.27377 0.0
C3801 C 0.36917 0.95126 0.27244 0.0
C3802 C 0.33042 0.92341 0.28032 0.0
C3803 C 0.37603 0.97038 0.27137 0.0
C3804 C 0.30436 0.84242 0.26925 0.0
C3805 C 0.30666 0.86163 0.26761 0.0
C3806 C 0.34861 0.89384 0.27514 0.0
C3807 C 0.35888 0.94694 0.28743 0.0
C3808 C 0.3487 0.92732 0.28553 0.0
C3809 C 0.32155 0.87022 0.25937 0.0
C3810 C 0.33063 0.89009 0.26807 0.0
H3811 H 0.36079 0.99214 0.31221 0.0
H3812 H 0.34801 0.95824 0.3134 0.0
H3813 H 0.3718 0.91543 0.28767 0.0
H3814 H 0.33938 0.83192 0.24606 0.0
H3815 H 0.34219 0.8648 0.24119 0.0
C3816 C 0.5913 0.38045 0.59444 0.0
C3817 C 0.58355 0.3608 0.5869 0.0
C3818 C 0.58651 0.3951 0.58622 0.0
C3819 C 0.55346 0.40455 0.54936 0.0
H3820 H 0.5868 0.45475 0.55973 0.0
C3821 C 0.5506 0.4717 0.51256 0.0
C3822 C 0.553 0.48951 0.52564 0.0
C3823 C 0.55207 0.45477 0.51922 0.0
C3824 C 0.57729 0.44085 0.55677 0.0
H3825 H 0.56471 0.34105 0.5644 0.0
H3826 H 0.55726 0.36651 0.54894 0.0
H3827 H 0.59471 0.42791 0.57134 0.0
H3828 H 0.55882 0.50362 0.55586 0.0
H3829 H 0.562 0.47435 0.56741 0.0
H3830 H 0.53662 0.41785 0.53352 0.0
C3831 C 0.56655 0.37084 0.56184 0.0
C3832 C 0.58171 0.4253 0.56367 0.0
C3833 C 0.57093 0.35611 0.5706 0.0
C3834 C 0.55664 0.49003 0.5455 0.0
C3835 C 0.55854 0.47329 0.55208 0.0
C3836 C 0.54926 0.4201 0.54193 0.0
C3837 C 0.57427 0.39071 0.56953 0.0
C3838 C 0.56975 0.4069 0.56061 0.0
C3839 C 0.55662 0.45554 0.53901 0.0
C3840 C 0.561 0.43854 0.54593 0.0
H3841 H 0.60081 0.38461 0.60719 0.0
H3842 H 0.59235 0.40993 0.59339 0.0
H3843 H 0.54369 0.39088 0.54659 0.0
H3844 H 0.54812 0.47101 0.49714 0.0
H3845 H 0.55062 0.44135 0.50879 0.0
C3846 C 0.45139 0.77392 0.40632 0.0
C3847 C 0.46462 0.76477 0.39913 0.0
C3848 C 0.43672 0.77457 0.39418 0.0
C3849 C 0.40936 0.75177 0.34748 0.0
H3850 H 0.39527 0.80076 0.3544 0.0
C3851 C 0.35185 0.76387 0.29738 0.0
C3852 C 0.34146 0.7765 0.30532 0.0
C3853 C 0.367 0.76199 0.30806 0.0
C3854 C 0.39872 0.78682 0.35238 0.0
H3855 H 0.47227 0.74861 0.37326 0.0
H3856 H 0.44639 0.74953 0.35197 0.0
H3857 H 0.42096 0.79792 0.37393 0.0
H3858 H 0.33885 0.79657 0.33134 0.0
H3859 H 0.36461 0.79284 0.35005 0.0
H3860 H 0.38689 0.74053 0.32617 0.0
C3861 C 0.44753 0.75629 0.36716 0.0
C3862 C 0.41362 0.78523 0.36361 0.0
C3863 C 0.46241 0.7558 0.37936 0.0
C3864 C 0.34646 0.78677 0.32454 0.0
C3865 C 0.3615 0.78479 0.33528 0.0
C3866 C 0.3943 0.7533 0.33632 0.0
C3867 C 0.4346 0.76599 0.37436 0.0
C3868 C 0.41911 0.76765 0.3615 0.0
C3869 C 0.3722 0.77252 0.32719 0.0
C3870 C 0.3886 0.77083 0.33869 0.0
H3871 H 0.45244 0.78096 0.42142 0.0
H3872 H 0.42696 0.78185 0.40041 0.0
H3873 H 0.41307 0.73795 0.3455 0.0
H3874 H 0.34831 0.75532 0.28288 0.0
H3875 H 0.37478 0.75245 0.30112 0.0
C3876 C 0.07034 0.74389 0.08837 0.0
C3877 C 0.07634 0.7574 0.07668 0.0
C3878 C 0.06853 0.72399 0.08156 0.0
C3879 C 0.08328 0.68898 0.04381 0.0
H3880 H 0.04657 0.65164 0.06094 0.0
C3881 C 0.06435 0.60523 0.01325 0.0
C3882 C 0.06116 0.59329 0.02695 0.0
C3883 C 0.06817 0.62549 0.01906 0.0
C3884 C 0.05701 0.6619 0.05619 0.0
H3885 H 0.08475 0.76035 0.04835 0.0
H3886 H 0.08121 0.72561 0.03628 0.0
H3887 H 0.04791 0.68618 0.07052 0.0
H3888 H 0.05905 0.59294 0.05734 0.0
H3889 H 0.06566 0.62837 0.0676 0.0
H3890 H 0.09195 0.66438 0.02898 0.0
C3891 C 0.07825 0.73043 0.05093 0.0
C3892 C 0.05782 0.68176 0.06171 0.0
C3893 C 0.08015 0.7504 0.05781 0.0
C3894 C 0.06212 0.6019 0.04661 0.0
C3895 C 0.06563 0.62212 0.05241 0.0
C3896 C 0.08231 0.66904 0.03807 0.0
C3897 C 0.07256 0.71693 0.06277 0.0
C3898 C 0.07112 0.69565 0.05585 0.0
C3899 C 0.0682 0.63411 0.03863 0.0
C3900 C 0.06932 0.65531 0.04445 0.0
H3901 H 0.0673 0.74869 0.103 0.0
H3902 H 0.06439 0.71421 0.09129 0.0
H3903 H 0.09384 0.69915 0.03915 0.0
H3904 H 0.063 0.59885 0.99793 0.0
H3905 H 0.06994 0.63432 0.0081 0.0
C3906 C 0.06786 0.26481 0.88595 0.0
C3907 C 0.06947 0.27436 0.90547 0.0
C3908 C 0.08284 0.26548 0.87556 0.0
C3909 C 0.129 0.29467 0.87606 0.0
H3910 H 0.13431 0.25013 0.8388 0.0
C3911 C 0.19225 0.29728 0.83557 0.0
C3912 C 0.18946 0.28932 0.81562 0.0
C3913 C 0.17841 0.2939 0.84746 0.0
C3914 C 0.13302 0.26278 0.84905 0.0
H3915 H 0.08834 0.29186 0.92934 0.0
H3916 H 0.11421 0.29296 0.91138 0.0
H3917 H 0.10847 0.2475 0.85715 0.0
H3918 H 0.17023 0.2712 0.79258 0.0
H3919 H 0.14624 0.26505 0.81316 0.0
H3920 H 0.15337 0.31005 0.86784 0.0
C3921 C 0.10138 0.28514 0.90394 0.0
C3922 C 0.11812 0.26127 0.85958 0.0
C3923 C 0.08648 0.28441 0.91432 0.0
C3924 C 0.1728 0.2773 0.80797 0.0
C3925 C 0.15905 0.27378 0.81982 0.0
C3926 C 0.14386 0.29619 0.86555 0.0
C3927 C 0.09983 0.27582 0.88436 0.0
C3928 C 0.11583 0.27723 0.8732 0.0
C3929 C 0.16146 0.2824 0.83968 0.0
C3930 C 0.14609 0.28031 0.85178 0.0
H3931 H 0.05501 0.25688 0.87865 0.0
H3932 H 0.08102 0.25823 0.86048 0.0
H3933 H 0.12764 0.30741 0.88615 0.0
H3934 H 0.20487 0.30683 0.8418 0.0
H3935 H 0.1809 0.30062 0.8627 0.0
C3936 C 0.58985 0.75596 0.90999 0.0
C3937 C 0.59096 0.77523 0.91929 0.0
C3938 C 0.58585 0.74097 0.92018 0.0
C3939 C 0.56351 0.72989 0.96213 0.0
H3940 H 0.58812 0.68819 0.95903 0.0
C3941 C 0.55527 0.67936 0.01564 0.0
C3942 C 0.55065 0.65946 0.00752 0.0
C3943 C 0.56133 0.69276 0.0042 0.0
C3944 C 0.58111 0.69972 0.95985 0.0
H3945 H 0.58943 0.7941 0.94659 0.0
H3946 H 0.58267 0.76795 0.96441 0.0
H3947 H 0.59669 0.71337 0.93988 0.0
H3948 H 0.54911 0.63786 0.98113 0.0
H3949 H 0.56007 0.66146 0.96124 0.0
H3950 H 0.54808 0.71647 0.98218 0.0
C3951 C 0.58461 0.76442 0.9492 0.0
C3952 C 0.58596 0.71401 0.94894 0.0
C3953 C 0.58859 0.77937 0.93904 0.0
C3954 C 0.55277 0.65313 0.98787 0.0
C3955 C 0.55901 0.66656 0.97647 0.0
C3956 C 0.55876 0.71572 0.97305 0.0
C3957 C 0.58289 0.7451 0.93976 0.0
C3958 C 0.57735 0.72935 0.95029 0.0
C3959 C 0.56296 0.68644 0.98451 0.0
C3960 C 0.56771 0.70075 0.97222 0.0
H3961 H 0.59167 0.75239 0.89475 0.0
H3962 H 0.58452 0.72614 0.91262 0.0
H3963 H 0.55638 0.74131 0.963 0.0
H3964 H 0.55414 0.68459 0.03081 0.0
H3965 H 0.56458 0.7081 0.01068 0.0
C3966 C 0.06072 0.77334 0.693 0.0
C3967 C 0.05116 0.75781 0.67869 0.0
C3968 C 0.07768 0.77318 0.70043 0.0
C3969 C 0.1143 0.75 0.68682 0.0
H3970 H 0.13377 0.77306 0.73983 0.0
C3971 C 0.17441 0.73593 0.72801 0.0
C3972 C 0.18522 0.7518 0.74098 0.0
C3973 C 0.1602 0.73857 0.71674 0.0
C3974 C 0.12855 0.76692 0.72488 0.0
H3975 H 0.05069 0.7292 0.66217 0.0
H3976 H 0.0799 0.72843 0.6758 0.0
H3977 H 0.1031 0.77228 0.72983 0.0
H3978 H 0.1912 0.78294 0.75123 0.0
H3979 H 0.16599 0.78758 0.73168 0.0
H3980 H 0.13962 0.74375 0.68231 0.0
C3981 C 0.07485 0.74118 0.68058 0.0
C3982 C 0.111 0.7664 0.71918 0.0
C3983 C 0.05812 0.74155 0.67287 0.0
C3984 C 0.18292 0.77059 0.74119 0.0
C3985 C 0.16854 0.7732 0.73016 0.0
C3986 C 0.13177 0.75026 0.69263 0.0
C3987 C 0.08507 0.75729 0.6939 0.0
C3988 C 0.10367 0.75785 0.70011 0.0
C3989 C 0.1566 0.75705 0.71867 0.0
C3990 C 0.13898 0.75871 0.71169 0.0
H3991 H 0.05546 0.78596 0.69773 0.0
H3992 H 0.08524 0.78584 0.71064 0.0
H3993 H 0.10916 0.74369 0.6719 0.0
H3994 H 0.1761 0.72136 0.7278 0.0
H3995 H 0.15109 0.72593 0.708 0.0
C3996 C 0.10793 0.3673 0.41924 0.0
C3997 C 0.10077 0.36667 0.40031 0.0
C3998 C 0.11047 0.38419 0.43325 0.0
C3999 C 0.10976 0.43608 0.44159 0.0
H4000 H 0.08225 0.42323 0.48357 0.0
C4001 C 0.0685 0.48489 0.47902 0.0
C4002 C 0.06526 0.48468 0.49838 0.0
C4003 C 0.07838 0.47281 0.46965 0.0
C4004 C 0.09046 0.42725 0.47238 0.0
H4005 H 0.09156 0.38337 0.38086 0.0
H4006 H 0.09556 0.41281 0.40555 0.0
H4007 H 0.09127 0.39785 0.46207 0.0
H4008 H 0.06961 0.47147 0.52283 0.0
H4009 H 0.08805 0.45156 0.5072 0.0
H4010 H 0.10827 0.46548 0.45158 0.0
C4011 C 0.09955 0.40037 0.40941 0.0
C4012 C 0.09562 0.41265 0.46001 0.0
C4013 C 0.09705 0.38347 0.39536 0.0
C4014 C 0.07227 0.47238 0.50822 0.0
C4015 C 0.08262 0.46073 0.49909 0.0
C4016 C 0.10475 0.4508 0.45415 0.0
C4017 C 0.10582 0.40065 0.42857 0.0
C4018 C 0.10459 0.41681 0.44404 0.0
C4019 C 0.08558 0.46062 0.47962 0.0
C4020 C 0.09434 0.44631 0.46909 0.0
H4021 H 0.1111 0.35459 0.42342 0.0
H4022 H 0.11536 0.38414 0.44794 0.0
H4023 H 0.11686 0.43958 0.42944 0.0
H4024 H 0.06371 0.49465 0.47116 0.0
H4025 H 0.08007 0.47277 0.4545 0.0
C4026 C 0.44325 0.26159 0.18462 0.0
C4027 C 0.45289 0.2482 0.18861 0.0
C4028 C 0.43125 0.26693 0.1971 0.0
C4029 C 0.40653 0.25456 0.23752 0.0
H4030 H 0.40772 0.30971 0.24698 0.0
C4031 C 0.35542 0.28089 0.28013 0.0
C4032 C 0.34477 0.28743 0.26739 0.0
C4033 C 0.37296 0.28125 0.27685 0.0
C4034 C 0.40757 0.29438 0.24477 0.0
H4035 H 0.45674 0.22858 0.20751 0.0
H4036 H 0.4359 0.2383 0.22985 0.0
H4037 H 0.42845 0.29716 0.22634 0.0
H4038 H 0.34366 0.3003 0.24203 0.0
H4039 H 0.37426 0.30082 0.2361 0.0
H4040 H 0.38527 0.25167 0.25537 0.0
C4041 C 0.43757 0.24461 0.21706 0.0
C4042 C 0.41916 0.28713 0.23276 0.0
C4043 C 0.44942 0.23901 0.20432 0.0
C4044 C 0.35191 0.29553 0.25217 0.0
C4045 C 0.36941 0.29593 0.24889 0.0
C4046 C 0.39508 0.26183 0.24967 0.0
C4047 C 0.42899 0.25921 0.21393 0.0
C4048 C 0.41823 0.26706 0.22845 0.0
C4049 C 0.37972 0.28779 0.26058 0.0
C4050 C 0.39508 0.28166 0.25278 0.0
H4051 H 0.44552 0.2685 0.17225 0.0
H4052 H 0.42423 0.27762 0.19393 0.0
H4053 H 0.4055 0.23904 0.23438 0.0
H4054 H 0.34989 0.27447 0.29186 0.0
H4055 H 0.38074 0.27489 0.28597 0.0
C4056 C 0.63538 0.49976 0.32697 0.0
C4057 C 0.6362 0.51516 0.31685 0.0
C4058 C 0.62652 0.4993 0.34415 0.0
C4059 C 0.61019 0.53267 0.38376 0.0
H4060 H 0.58352 0.48558 0.39708 0.0
C4061 C 0.57048 0.53801 0.45209 0.0
C4062 C 0.56573 0.52231 0.46158 0.0
C4063 C 0.57825 0.5361 0.43438 0.0
C4064 C 0.59104 0.49901 0.39395 0.0
H4065 H 0.62747 0.54185 0.31737 0.0
H4066 H 0.61241 0.54101 0.34645 0.0
H4067 H 0.59852 0.48389 0.36745 0.0
H4068 H 0.56578 0.49201 0.45943 0.0
H4069 H 0.58004 0.48872 0.42923 0.0
H4070 H 0.60351 0.54788 0.41019 0.0
C4071 C 0.61882 0.52935 0.34154 0.0
C4072 C 0.59974 0.49798 0.37666 0.0
C4073 C 0.62751 0.52976 0.32451 0.0
C4074 C 0.56903 0.50445 0.45256 0.0
C4075 C 0.57727 0.5026 0.43499 0.0
C4076 C 0.60176 0.53369 0.40107 0.0
C4077 C 0.61824 0.5143 0.35201 0.0
C4078 C 0.60937 0.51485 0.37101 0.0
C4079 C 0.58226 0.51846 0.42544 0.0
C4080 C 0.59172 0.51696 0.40665 0.0
H4081 H 0.64177 0.48815 0.32178 0.0
H4082 H 0.62654 0.48737 0.35153 0.0
H4083 H 0.6177 0.54609 0.38057 0.0
H4084 H 0.56809 0.55197 0.45839 0.0
H4085 H 0.58101 0.54871 0.42778 0.0
C4086 C 0.31415 0.91639 0.06889 0.0
C4087 C 0.31523 0.90697 0.04986 0.0
C4088 C 0.31627 0.90729 0.08433 0.0
C4089 C 0.33483 0.86842 0.09738 0.0
H4090 H 0.30119 0.86699 0.13606 0.0
C4091 C 0.32632 0.81083 0.14216 0.0
C4092 C 0.32832 0.81743 0.16223 0.0
C4093 C 0.32363 0.82325 0.13 0.0
C4094 C 0.31073 0.86752 0.12544 0.0
H4095 H 0.31926 0.8807 0.03195 0.0
H4096 H 0.32249 0.86455 0.05892 0.0
H4097 H 0.29961 0.88683 0.11151 0.0
H4098 H 0.32811 0.84148 0.18569 0.0
H4099 H 0.3237 0.86358 0.16413 0.0
H4100 H 0.34561 0.84872 0.11087 0.0
C4101 C 0.32032 0.87911 0.06189 0.0
C4102 C 0.3099 0.87884 0.11151 0.0
C4103 C 0.31828 0.88824 0.04646 0.0
C4104 C 0.32666 0.83625 0.17013 0.0
C4105 C 0.32408 0.84878 0.15792 0.0
C4106 C 0.33558 0.85709 0.11116 0.0
C4107 C 0.31945 0.88863 0.08092 0.0
C4108 C 0.32162 0.87885 0.09707 0.0
C4109 C 0.32313 0.84246 0.13782 0.0
C4110 C 0.32322 0.85612 0.12485 0.0
H4111 H 0.312 0.93095 0.07195 0.0
H4112 H 0.31572 0.91493 0.09893 0.0
H4113 H 0.3443 0.86866 0.08668 0.0
H4114 H 0.32721 0.7962 0.13594 0.0
H4115 H 0.32252 0.81808 0.11445 0.0
C4116 C 0.93429 0.54075 0.85924 0.0
C4117 C 0.9345 0.52928 0.84097 0.0
C4118 C 0.94862 0.54448 0.87305 0.0
C4119 C 0.987 0.5276 0.88703 0.0
H4120 H 0.00356 0.58093 0.9151 0.0
C4121 C 0.04149 0.54511 0.9468 0.0
C4122 C 0.035 0.55169 0.9642 0.0
C4123 C 0.03338 0.54694 0.92946 0.0
C4124 C 0.99919 0.56609 0.9071 0.0
H4125 H 0.94905 0.51176 0.82291 0.0
H4126 H 0.97437 0.51838 0.84725 0.0
H4127 H 0.97939 0.57287 0.88908 0.0
H4128 H 0.01622 0.56655 0.97796 0.0
H4129 H 0.00151 0.56924 0.94745 0.0
H4130 H 0.00623 0.52063 0.90547 0.0
C4131 C 0.96311 0.52443 0.85081 0.0
C4132 C 0.98535 0.56145 0.89246 0.0
C4133 C 0.94866 0.52057 0.837 0.0
C4134 C 0.02122 0.56132 0.96446 0.0
C4135 C 0.01306 0.56311 0.94713 0.0
C4136 C 0.00085 0.53225 0.90156 0.0
C4137 C 0.96333 0.53686 0.86866 0.0
C4138 C 0.97894 0.54209 0.88271 0.0
C4139 C 0.01862 0.55512 0.92956 0.0
C4140 C 0.00675 0.55143 0.91191 0.0
H4141 H 0.92332 0.5474 0.86259 0.0
H4142 H 0.94837 0.55364 0.88699 0.0
H4143 H 0.98206 0.51256 0.87981 0.0
H4144 H 0.05177 0.53718 0.94642 0.0
H4145 H 0.0377 0.54061 0.91596 0.0
C4146 C 0.29777 0.24234 0.56248 0.0
C4147 C 0.29986 0.22328 0.55681 0.0
C4148 C 0.29728 0.25022 0.58206 0.0
C4149 C 0.30957 0.24377 0.63154 0.0
H4150 H 0.27386 0.27218 0.64646 0.0
C4151 C 0.2955 0.26157 0.71063 0.0
C4152 C 0.29561 0.28107 0.71784 0.0
C4153 C 0.29449 0.25464 0.6907 0.0
C4154 C 0.28395 0.26437 0.64246 0.0
H4155 H 0.30352 0.19773 0.56727 0.0
H4156 H 0.30269 0.21142 0.60127 0.0
H4157 H 0.27622 0.26053 0.61207 0.0
H4158 H 0.29487 0.30868 0.71029 0.0
H4159 H 0.29259 0.29644 0.67519 0.0
H4160 H 0.31719 0.24744 0.66186 0.0
C4161 C 0.30147 0.22034 0.59066 0.0
C4162 C 0.28537 0.25779 0.62281 0.0
C4163 C 0.30182 0.21243 0.57114 0.0
C4164 C 0.29426 0.29344 0.7049 0.0
C4165 C 0.29303 0.28646 0.6849 0.0
C4166 C 0.30808 0.25025 0.65112 0.0
C4167 C 0.29906 0.23926 0.59636 0.0
C4168 C 0.2981 0.24725 0.61714 0.0
C4169 C 0.29372 0.26714 0.67766 0.0
C4170 C 0.29515 0.26044 0.65679 0.0
H4171 H 0.2962 0.25105 0.55178 0.0
H4172 H 0.29559 0.26491 0.58601 0.0
H4173 H 0.31976 0.23607 0.62767 0.0
H4174 H 0.29707 0.25196 0.72045 0.0
H4175 H 0.29491 0.23965 0.68549 0.0
C4176 C 0.61471 0.49374 0.20296 0.0
C4177 C 0.63165 0.50419 0.21204 0.0
C4178 C 0.60712 0.49794 0.18595 0.0
C4179 C 0.61187 0.53629 0.15416 0.0
H4180 H 0.57793 0.4959 0.11827 0.0
C4181 C 0.58965 0.54485 0.07561 0.0
C4182 C 0.57188 0.53744 0.06759 0.0
C4183 C 0.59573 0.54193 0.09387 0.0
C4184 C 0.58721 0.50751 0.12817 0.0
H4185 H 0.65364 0.52764 0.20953 0.0
H4186 H 0.6407 0.53484 0.17996 0.0
H4187 H 0.59116 0.48849 0.14739 0.0
H4188 H 0.54685 0.51981 0.07262 0.0
H4189 H 0.55754 0.51401 0.10418 0.0
H4190 H 0.60821 0.55511 0.1345 0.0
C4191 C 0.63303 0.52335 0.18611 0.0
C4192 C 0.59492 0.50325 0.14515 0.0
C4193 C 0.64068 0.51907 0.20316 0.0
C4194 C 0.56044 0.52648 0.07851 0.0
C4195 C 0.5667 0.52292 0.09658 0.0
C4196 C 0.60432 0.54046 0.13708 0.0
C4197 C 0.616 0.5129 0.17703 0.0
C4198 C 0.60754 0.51751 0.15861 0.0
C4199 C 0.58455 0.53053 0.10464 0.0
C4200 C 0.59187 0.52617 0.12361 0.0
H4201 H 0.60709 0.4822 0.20909 0.0
H4202 H 0.59398 0.48955 0.18008 0.0
H4203 H 0.62105 0.54803 0.16398 0.0
H4204 H 0.59911 0.55266 0.06744 0.0
H4205 H 0.60956 0.54789 0.09912 0.0
C4206 C 0.31656 0.91073 0.95932 0.0
C4207 C 0.3327 0.91714 0.97117 0.0
C4208 C 0.31442 0.8957 0.94337 0.0
C4209 C 0.33064 0.85388 0.92166 0.0
H4210 H 0.30877 0.86288 0.87437 0.0
C4211 C 0.32419 0.80583 0.84433 0.0
C4212 C 0.30831 0.80404 0.83303 0.0
C4213 C 0.32724 0.81719 0.86304 0.0
C4214 C 0.31467 0.86004 0.88753 0.0
H4215 H 0.35925 0.91276 0.97568 0.0
H4216 H 0.35552 0.88645 0.94719 0.0
H4217 H 0.31487 0.88831 0.9032 0.0
H4218 H 0.28313 0.81213 0.83183 0.0
H4219 H 0.28793 0.83101 0.86469 0.0
H4220 H 0.33034 0.8254 0.90565 0.0
C4221 C 0.34455 0.89307 0.95058 0.0
C4222 C 0.31824 0.87462 0.90397 0.0
C4223 C 0.34672 0.9082 0.96669 0.0
C4224 C 0.29521 0.81286 0.84065 0.0
C4225 C 0.29809 0.82386 0.8593 0.0
C4226 C 0.32703 0.83914 0.90505 0.0
C4227 C 0.32839 0.88682 0.93879 0.0
C4228 C 0.32599 0.8716 0.92123 0.0
C4229 C 0.31441 0.82684 0.87033 0.0
C4230 C 0.31873 0.84207 0.88799 0.0
H4231 H 0.30542 0.91714 0.96246 0.0
H4232 H 0.30174 0.89093 0.93463 0.0
H4233 H 0.33658 0.85126 0.9349 0.0
H4234 H 0.33451 0.79932 0.83836 0.0
H4235 H 0.33998 0.81944 0.87125 0.0
C4236 C 0.9557 0.55556 0.76197 0.0
C4237 C 0.93844 0.54545 0.76362 0.0
C4238 C 0.96283 0.55274 0.74426 0.0
C4239 C 0.95851 0.51763 0.69903 0.0
H4240 H 0.98376 0.56181 0.67935 0.0
C4241 C 0.99128 0.50498 0.63011 0.0
C4242 C 0.00936 0.51395 0.63307 0.0
C4243 C 0.97985 0.51138 0.64286 0.0
C4244 C 0.97662 0.5494 0.68465 0.0
H4245 H 0.91539 0.52382 0.74847 0.0
H4246 H 0.92785 0.51893 0.71779 0.0
H4247 H 0.97 0.56722 0.70961 0.0
H4248 H 0.02975 0.5375 0.64991 0.0
H4249 H 0.00991 0.54836 0.67291 0.0
H4250 H 0.96554 0.49976 0.67463 0.0
C4251 C 0.93579 0.52914 0.73001 0.0
C4252 C 0.96892 0.55247 0.70195 0.0
C4253 C 0.92865 0.53204 0.74757 0.0
C4254 C 0.01583 0.53018 0.64792 0.0
C4255 C 0.00444 0.53655 0.66075 0.0
C4256 C 0.96618 0.51457 0.6818 0.0
C4257 C 0.95283 0.53962 0.72815 0.0
C4258 C 0.96015 0.53658 0.70942 0.0
C4259 C 0.98649 0.52674 0.6587 0.0
C4260 C 0.97565 0.5304 0.67472 0.0
H4261 H 0.96352 0.56586 0.7742 0.0
H4262 H 0.97617 0.56071 0.74316 0.0
H4263 H 0.95191 0.50515 0.7046 0.0
H4264 H 0.98612 0.49279 0.61821 0.0
H4265 H 0.96599 0.50384 0.64084 0.0
C4266 C 0.29058 0.23256 0.45863 0.0
C4267 C 0.29666 0.21631 0.46189 0.0
C4268 C 0.29548 0.24106 0.44282 0.0
C4269 C 0.30773 0.22859 0.39412 0.0
H4270 H 0.32387 0.28414 0.39781 0.0
C4271 C 0.32056 0.25924 0.32532 0.0
C4272 C 0.31554 0.2766 0.32454 0.0
C4273 C 0.32171 0.25308 0.34294 0.0
C4274 C 0.31918 0.2686 0.39644 0.0
H4275 H 0.31295 0.19646 0.45135 0.0
H4276 H 0.32118 0.2111 0.42358 0.0
H4277 H 0.31849 0.27123 0.42717 0.0
H4278 H 0.30773 0.30122 0.34117 0.0
H4279 H 0.30875 0.29013 0.37159 0.0
H4280 H 0.30731 0.22577 0.3635 0.0
C4281 C 0.31267 0.21726 0.43329 0.0
C4282 C 0.3162 0.26125 0.4133 0.0
C4283 C 0.30797 0.20893 0.44921 0.0
C4284 C 0.31203 0.28795 0.34158 0.0
C4285 C 0.31268 0.28157 0.35905 0.0
C4286 C 0.31035 0.23593 0.37725 0.0
C4287 C 0.30636 0.23329 0.42987 0.0
C4288 C 0.31034 0.24119 0.41225 0.0
C4289 C 0.31725 0.26387 0.35995 0.0
C4290 C 0.31597 0.25606 0.37812 0.0
H4291 H 0.28195 0.23865 0.46822 0.0
H4292 H 0.29035 0.25335 0.4404 0.0
H4293 H 0.30302 0.21306 0.3929 0.0
H4294 H 0.3234 0.25036 0.31228 0.0
H4295 H 0.32575 0.23965 0.34309 0.0
C4296 C 0.32765 0.60424 0.52955 0.0
C4297 C 0.32896 0.62277 0.52528 0.0
C4298 C 0.34179 0.59543 0.52736 0.0
C4299 C 0.37965 0.59496 0.50016 0.0
H4300 H 0.39549 0.5692 0.53937 0.0
C4301 C 0.43865 0.56033 0.49225 0.0
C4302 C 0.43476 0.54084 0.49407 0.0
C4303 C 0.42711 0.57194 0.49824 0.0
C4304 C 0.39114 0.57637 0.52837 0.0
H4305 H 0.34581 0.64664 0.51534 0.0
H4306 H 0.37061 0.63115 0.51154 0.0
H4307 H 0.372 0.5866 0.54546 0.0
H4308 H 0.41678 0.51818 0.50434 0.0
H4309 H 0.39629 0.53856 0.5148 0.0
H4310 H 0.39849 0.5845 0.48292 0.0
C4311 C 0.35867 0.62355 0.51659 0.0
C4312 C 0.37778 0.58621 0.53181 0.0
C4313 C 0.34457 0.63241 0.51888 0.0
C4314 C 0.41963 0.53313 0.50249 0.0
C4315 C 0.40817 0.5448 0.50869 0.0
C4316 C 0.39301 0.58518 0.49675 0.0
C4317 C 0.35732 0.60502 0.52078 0.0
C4318 C 0.37189 0.5954 0.51764 0.0
C4319 C 0.41173 0.56415 0.5063 0.0
C4320 C 0.3987 0.57571 0.51076 0.0
H4321 H 0.31569 0.59649 0.53445 0.0
H4322 H 0.34046 0.58099 0.5304 0.0
H4323 H 0.37507 0.60172 0.48893 0.0
H4324 H 0.45051 0.56648 0.48604 0.0
H4325 H 0.4301 0.58691 0.49644 0.0
C4326 C 0.86307 0.93406 0.53132 0.0
C4327 C 0.85849 0.92738 0.54833 0.0
C4328 C 0.88018 0.94492 0.53027 0.0
C4329 C 0.9204 0.97561 0.56081 0.0
H4330 H 0.94332 0.96516 0.51396 0.0
C4331 C 0.99451 0.01109 0.55507 0.0
C4332 C 0.99897 0.01518 0.53703 0.0
C4333 C 0.97728 1.00099 0.55709 0.0
C4334 C 0.93707 0.96852 0.52708 0.0
H4335 H 0.86843 0.92692 0.57758 0.0
H4336 H 0.89822 0.94586 0.57575 0.0
H4337 H 0.91365 0.94631 0.51601 0.0
H4338 H 0.9888 0.01346 0.50741 0.0
H4339 H 0.95879 0.99643 0.51091 0.0
H4340 H 0.94379 0.99793 0.57184 0.0
C4341 C 0.88853 0.94284 0.56326 0.0
C4342 C 0.92001 0.95764 0.52825 0.0
C4343 C 0.87145 0.93188 0.56427 0.0
C4344 C 0.98579 0.00994 0.52133 0.0
C4345 C 0.9686 1.00012 0.52336 0.0
C4346 C 0.93746 0.98659 0.55961 0.0
C4347 C 0.89315 0.94949 0.54624 0.0
C4348 C 0.91141 0.96106 0.54511 0.0
C4349 C 0.96415 0.99505 0.54113 0.0
C4350 C 0.94602 0.98326 0.54268 0.0
H4351 H 0.85345 0.93083 0.51874 0.0
H4352 H 0.8832 0.94995 0.51699 0.0
H4353 H 0.91411 0.9788 0.57394 0.0
H4354 H 0.0045 0.01503 0.56739 0.0
H4355 H 0.97442 0.99731 0.57098 0.0
C4356 C 0.90736 0.14456 0.2896 0.0
C4357 C 0.90263 0.12514 0.27897 0.0
C4358 C 0.89666 0.15803 0.28838 0.0
C4359 C 0.85661 0.16643 0.25903 0.0
H4360 H 0.86168 0.21089 0.30091 0.0
C4361 C 0.82256 0.23069 0.25059 0.0
C4362 C 0.81747 0.24235 0.26668 0.0
C4363 C 0.83184 0.21616 0.25258 0.0
C4364 C 0.8598 0.19856 0.28902 0.0
H4365 H 0.882 0.10539 0.25843 0.0
H4366 H 0.86328 0.12851 0.25642 0.0
H4367 H 0.87888 0.18682 0.30332 0.0
H4368 H 0.81899 0.24743 0.29799 0.0
H4369 H 0.8351 0.22212 0.30161 0.0
H4370 H 0.8372 0.17798 0.24497 0.0
C4371 C 0.8756 0.13355 0.26573 0.0
C4372 C 0.87006 0.18458 0.29026 0.0
C4373 C 0.88641 0.11997 0.26697 0.0
C4374 C 0.82221 0.23869 0.28509 0.0
C4375 C 0.83176 0.22416 0.28714 0.0
C4376 C 0.84636 0.1804 0.25779 0.0
C4377 C 0.8804 0.15305 0.27645 0.0
C4378 C 0.86888 0.16808 0.27526 0.0
C4379 C 0.83692 0.2125 0.27089 0.0
C4380 C 0.84769 0.19698 0.27269 0.0
H4381 H 0.91962 0.1496 0.29904 0.0
H4382 H 0.90154 0.17262 0.29672 0.0
H4383 H 0.85499 0.15441 0.24689 0.0
H4384 H 0.81955 0.23305 0.23615 0.0
H4385 H 0.83552 0.20818 0.23953 0.0
C4386 C 0.72402 0.10461 0.00578 0.0
C4387 C 0.72925 0.1183 0.02321 0.0
C4388 C 0.70617 0.09751 0.9994 0.0
C4389 C 0.66117 0.09895 0.01142 0.0
H4390 H 0.66045 0.04809 0.02315 0.0
C4391 C 0.60133 0.06289 0.0392 0.0
C4392 C 0.59393 0.04469 0.02752 0.0
C4393 C 0.61949 0.07023 0.04073 0.0
C4394 C 0.6604 0.06214 0.01972 0.0
H4395 H 0.72039 0.1374 0.04612 0.0
H4396 H 0.68917 0.12443 0.0354 0.0
H4397 H 0.68689 0.06622 0.01222 0.0
H4398 H 0.59901 0.01864 0.01057 0.0
H4399 H 0.6306 0.03191 0.01198 0.0
H4400 H 0.63473 0.09497 0.019 0.0
C4401 C 0.6988 0.11935 0.02655 0.0
C4402 C 0.67535 0.07235 0.01309 0.0
C4403 C 0.71663 0.12641 0.03296 0.0
C4404 C 0.60475 0.03274 0.01969 0.0
C4405 C 0.62282 0.04035 0.02057 0.0
C4406 C 0.6461 0.08861 0.01773 0.0
C4407 C 0.69351 0.10396 0.01052 0.0
C4408 C 0.67609 0.09115 0.00982 0.0
C4409 C 0.6299 0.05985 0.02945 0.0
C4410 C 0.64593 0.07052 0.02278 0.0
H4411 H 0.73362 0.0987 0.99757 0.0
H4412 H 0.7022 0.0857 0.98693 0.0
H4413 H 0.6616 0.11347 0.009 0.0
H4414 H 0.59302 0.07231 0.04516 0.0
H4415 H 0.62493 0.08504 0.04837 0.0
C4416 C 0.21582 0.47439 0.21553 0.0
C4417 C 0.19963 0.47425 0.22339 0.0
C4418 C 0.2276 0.46481 0.22284 0.0
C4419 C 0.24094 0.45779 0.2691 0.0
H4420 H 0.26454 0.4191 0.24435 0.0
C4421 C 0.27791 0.41699 0.31257 0.0
C4422 C 0.29296 0.41157 0.30564 0.0
C4423 C 0.26799 0.42584 0.30158 0.0
C4424 C 0.25833 0.43021 0.25137 0.0
H4425 H 0.18221 0.46285 0.24364 0.0
H4426 H 0.20293 0.44624 0.25656 0.0
H4427 H 0.24323 0.4302 0.22494 0.0
H4428 H 0.3099 0.41148 0.28225 0.0
H4429 H 0.29279 0.42757 0.26318 0.0
H4430 H 0.25609 0.45825 0.29542 0.0
C4431 C 0.2064 0.45359 0.2447 0.0
C4432 C 0.24609 0.43636 0.2403 0.0
C4433 C 0.1945 0.46282 0.23713 0.0
C4434 C 0.29828 0.41559 0.28782 0.0
C4435 C 0.28846 0.42464 0.2769 0.0
C4436 C 0.25335 0.45191 0.28009 0.0
C4437 C 0.22327 0.45535 0.23821 0.0
C4438 C 0.237 0.44971 0.24928 0.0
C4439 C 0.27309 0.42959 0.28358 0.0
C4440 C 0.26177 0.43766 0.27144 0.0
H4441 H 0.22001 0.48338 0.20508 0.0
H4442 H 0.24062 0.46625 0.21775 0.0
H4443 H 0.2343 0.46853 0.27609 0.0
H4444 H 0.27339 0.41362 0.32608 0.0
H4445 H 0.25596 0.42909 0.30689 0.0
C4446 C 0.23503 0.4008 0.02675 0.0
C4447 C 0.25268 0.411 0.03253 0.0
C4448 C 0.22154 0.4107 0.02643 0.0
C4449 C 0.21023 0.45787 0.04291 0.0
H4450 H 0.17874 0.44218 0.99521 0.0
C4451 C 0.16912 0.50693 0.01606 0.0
C4452 C 0.15212 0.49828 0.00669 0.0
C4453 C 0.17996 0.49547 0.02174 0.0
C4454 C 0.18718 0.44652 0.00877 0.0
H4455 H 0.26991 0.43952 0.0435 0.0
H4456 H 0.24633 0.45691 0.04259 0.0
H4457 H 0.20048 0.42371 1.001 0.0
H4458 H 0.13275 0.4712 0.99614 0.0
H4459 H 0.15181 0.45091 0.00595 0.0
H4460 H 0.1971 0.48098 0.05044 0.0
C4461 C 0.24293 0.44121 0.03846 0.0
C4462 C 0.19966 0.43595 0.0121 0.0
C4463 C 0.25645 0.43127 0.03886 0.0
C4464 C 0.14586 0.47806 0.00341 0.0
C4465 C 0.15678 0.46653 0.00891 0.0
C4466 C 0.1977 0.46845 0.0396 0.0
C4467 C 0.22541 0.43104 0.0318 0.0
C4468 C 0.21144 0.44163 0.0291 0.0
C4469 C 0.17401 0.47514 0.01796 0.0
C4470 C 0.18621 0.46301 0.02238 0.0
H4471 H 0.23163 0.38514 0.02209 0.0
H4472 H 0.2081 0.40246 0.02162 0.0
H4473 H 0.21901 0.46245 0.05624 0.0
H4474 H 0.17408 0.52256 0.01872 0.0
H4475 H 0.19323 0.5025 0.02845 0.0
C4476 C 0.90524 0.98939 0.25192 0.0
C4477 C 0.90118 0.0062 0.26258 0.0
C4478 C 0.89528 0.97056 0.25217 0.0
C4479 C 0.86045 0.9418 0.27857 0.0
H4480 H 0.85922 0.90101 0.23397 0.0
C4481 C 0.81417 0.8628 0.26893 0.0
C4482 C 0.82125 0.84683 0.26152 0.0
C4483 C 0.82353 0.88216 0.26943 0.0
C4484 C 0.85948 0.91209 0.24668 0.0
H4485 H 0.88296 0.01564 0.28216 0.0
H4486 H 0.86528 0.98288 0.28233 0.0
H4487 H 0.87518 0.93405 0.23398 0.0
H4488 H 0.84414 0.83924 0.24895 0.0
H4489 H 0.86006 0.87271 0.24906 0.0
H4490 H 0.84416 0.91959 0.29089 0.0
C4491 C 0.87647 0.98425 0.27382 0.0
C4492 C 0.86884 0.93132 0.24678 0.0
C4493 C 0.88658 0.00326 0.27362 0.0
C4494 C 0.83805 0.851 0.25456 0.0
C4495 C 0.84722 0.87033 0.25461 0.0
C4496 C 0.85085 0.92254 0.27833 0.0
C4497 C 0.88054 0.96739 0.26299 0.0
C4498 C 0.86976 0.9467 0.2628 0.0
C4499 C 0.84023 0.88637 0.26218 0.0
C4500 C 0.85027 0.90722 0.26243 0.0
H4501 H 0.91637 0.99068 0.2433 0.0
H4502 H 0.89949 0.95843 0.24397 0.0
H4503 H 0.86079 0.95276 0.29139 0.0
H4504 H 0.80156 0.86039 0.27492 0.0
H4505 H 0.81754 0.89388 0.27537 0.0
C4506 C 0.72864 0.08832 0.74929 0.0
C4507 C 0.72473 0.07818 0.72997 0.0
C4508 C 0.73622 0.10808 0.75335 0.0
C4509 C 0.7423 0.15117 0.73176 0.0
H4510 H 0.7788 0.17217 0.7749 0.0
C4511 C 0.76384 0.23156 0.76639 0.0
C4512 C 0.78193 0.23927 0.7717 0.0
C4513 C 0.75769 0.21181 0.75936 0.0
C4514 C 0.76885 0.16643 0.7626 0.0
H4515 H 0.72591 0.08052 0.69981 0.0
H4516 H 0.73989 0.11517 0.707 0.0
H4517 H 0.76652 0.13735 0.76642 0.0
H4518 H 0.80791 0.23339 0.77493 0.0
H4519 H 0.7972 0.19845 0.76216 0.0
H4520 H 0.74491 0.18036 0.72782 0.0
C4521 C 0.73668 0.10782 0.7189 0.0
C4522 C 0.76163 0.14661 0.75795 0.0
C4523 C 0.7289 0.08802 0.71481 0.0
C4524 C 0.79391 0.22737 0.77055 0.0
C4525 C 0.78779 0.20759 0.76334 0.0
C4526 C 0.74966 0.17103 0.7363 0.0
C4527 C 0.74027 0.11797 0.73819 0.0
C4528 C 0.74823 0.13886 0.7426 0.0
C4529 C 0.76962 0.19971 0.75782 0.0
C4530 C 0.76287 0.17874 0.75185 0.0
H4531 H 0.72535 0.08116 0.76131 0.0
H4532 H 0.73856 0.11569 0.76834 0.0
H4533 H 0.73177 0.14551 0.72003 0.0
H4534 H 0.75454 0.24084 0.76761 0.0
H4535 H 0.74359 0.20596 0.75556 0.0
loop_
_geom_bond_atom_site_label_1
_geom_bond_atom_site_label_2
_geom_bond_distance
_geom_bond_site_symmetry_2
_ccdc_geom_bond_type
C0 O1 1.160 . S
C0 O7 1.185 . S
O1 C0 1.160 . S
O2 Zn3 1.899 . S
O2 C10 1.284 . S
Zn3 O2 1.899 . S
Zn3 O4 2.032 . S
Zn3 O7 2.086 . S
Zn3 O12 1.977 . S
O4 Zn3 2.032 . S
O4 C8 1.278 . S
C5 O6 1.203 . S
C5 O12 1.267 . S
O6 C5 1.203 . S
O7 C0 1.185 . S
O7 Zn3 2.086 . S
C8 O4 1.278 . S
C8 O9 1.211 . S
O9 C8 1.211 . S
C10 O2 1.284 . S
C10 O11 1.273 . S
O11 C10 1.273 . S
O12 Zn3 1.977 . S
O12 C5 1.267 . S
C13 O14 1.160 . S
C13 O20 1.185 . S
O14 C13 1.160 . S
O15 Zn16 1.899 . S
O15 C23 1.284 . S
Zn16 O15 1.899 . S
Zn16 O17 2.032 . S
Zn16 O20 2.086 . S
Zn16 O25 1.977 1_655 S
O17 Zn16 2.032 . S
O17 C21 1.278 1_655 S
C18 O19 1.203 . S
C18 O25 1.267 . S
O19 C18 1.203 . S
O20 C13 1.185 . S
O20 Zn16 2.086 . S
C21 O17 1.278 1_455 S
C21 O22 1.211 . S
O22 C21 1.211 . S
C23 O15 1.284 . S
C23 O24 1.273 1_655 S
O24 C23 1.273 1_455 S
O25 Zn16 1.977 1_455 S
O25 C18 1.267 . S
C26 O27 1.160 . S
C26 O33 1.185 . S
O27 C26 1.160 . S
O28 Zn29 1.899 . S
O28 C36 1.284 . S
Zn29 O28 1.899 . S
Zn29 O30 2.032 . S
Zn29 O33 2.086 . S
Zn29 O38 1.977 . S
O30 Zn29 2.032 . S
O30 C34 1.278 . S
C31 O32 1.203 . S
C31 O38 1.267 . S
O32 C31 1.203 . S
O33 C26 1.185 . S
O33 Zn29 2.086 . S
C34 O30 1.278 . S
C34 O35 1.211 . S
O35 C34 1.211 . S
C36 O28 1.284 . S
C36 O37 1.273 . S
O37 C36 1.273 . S
O38 Zn29 1.977 . S
O38 C31 1.267 . S
C39 O40 1.160 . S
C39 O46 1.185 . S
O40 C39 1.160 . S
O41 Zn42 1.899 . S
O41 C49 1.284 . S
Zn42 O41 1.899 . S
Zn42 O43 2.032 . S
Zn42 O46 2.086 . S
Zn42 O51 1.977 . S
O43 Zn42 2.032 . S
O43 C47 1.278 . S
C44 O45 1.203 . S
C44 O51 1.267 . S
O45 C44 1.203 . S
O46 C39 1.185 . S
O46 Zn42 2.086 . S
C47 O43 1.278 . S
C47 O48 1.211 . S
O48 C47 1.211 . S
C49 O41 1.284 . S
C49 O50 1.273 . S
O50 C49 1.273 . S
O51 Zn42 1.977 . S
O51 C44 1.267 . S
C52 O53 1.160 . S
C52 O59 1.185 . S
O53 C52 1.160 . S
O54 Zn55 1.899 . S
O54 C62 1.284 . S
Zn55 O54 1.899 . S
Zn55 O56 2.032 . S
Zn55 O59 2.086 . S
Zn55 O64 1.977 . S
O56 Zn55 2.032 . S
O56 C60 1.278 . S
C57 O58 1.203 . S
C57 O64 1.267 . S
O58 C57 1.203 . S
O59 C52 1.185 . S
O59 Zn55 2.086 . S
C60 O56 1.278 . S
C60 O61 1.211 . S
O61 C60 1.211 . S
C62 O54 1.284 . S
C62 O63 1.273 . S
O63 C62 1.273 . S
O64 Zn55 1.977 . S
O64 C57 1.267 . S
C65 O66 1.160 . S
C65 O72 1.185 . S
O66 C65 1.160 . S
O67 Zn68 1.899 . S
O67 C75 1.284 . S
Zn68 O67 1.899 . S
Zn68 O69 2.032 . S
Zn68 O72 2.086 . S
Zn68 O77 1.977 . S
O69 Zn68 2.032 . S
O69 C73 1.278 . S
C70 O71 1.203 . S
C70 O77 1.267 . S
O71 C70 1.203 . S
O72 C65 1.185 . S
O72 Zn68 2.086 . S
C73 O69 1.278 . S
C73 O74 1.211 . S
O74 C73 1.211 . S
C75 O67 1.284 . S
C75 O76 1.273 . S
O76 C75 1.273 . S
O77 Zn68 1.977 . S
O77 C70 1.267 . S
C78 O79 1.160 . S
C78 O85 1.185 . S
O79 C78 1.160 . S
O80 Zn81 1.899 . S
O80 C88 1.284 . S
Zn81 O80 1.899 . S
Zn81 O82 2.032 . S
Zn81 O85 2.086 . S
Zn81 O90 1.977 . S
O82 Zn81 2.032 . S
O82 C86 1.278 . S
C83 O84 1.203 . S
C83 O90 1.267 . S
O84 C83 1.203 . S
O85 C78 1.185 . S
O85 Zn81 2.086 . S
C86 O82 1.278 . S
C86 O87 1.211 . S
O87 C86 1.211 . S
C88 O80 1.284 . S
C88 O89 1.273 . S
O89 C88 1.273 . S
O90 Zn81 1.977 . S
O90 C83 1.267 . S
C91 O92 1.160 . S
C91 O98 1.185 . S
O92 C91 1.160 . S
O93 Zn94 1.899 . S
O93 C101 1.284 . S
Zn94 O93 1.899 . S
Zn94 O95 2.032 . S
Zn94 O98 2.086 . S
Zn94 O103 1.931 1_455 S
O95 Zn94 2.032 . S
O95 C99 1.278 . S
C96 O97 1.203 . S
C96 O103 1.321 . S
O97 C96 1.203 . S
O98 C91 1.185 . S
O98 Zn94 2.086 . S
C99 O95 1.278 . S
C99 O100 1.211 . S
O100 C99 1.211 . S
C101 O93 1.284 . S
C101 O102 1.273 . S
O102 C101 1.273 . S
O103 Zn94 1.931 1_655 S
O103 C96 1.321 . S
C104 O105 1.160 . S
C104 O111 1.185 . S
O105 C104 1.160 . S
O106 Zn107 1.899 . S
O106 C114 1.284 . S
Zn107 O106 1.899 . S
Zn107 O108 2.032 . S
Zn107 O111 2.086 . S
Zn107 O116 1.977 . S
O108 Zn107 2.032 . S
O108 C112 1.278 . S
C109 O110 1.203 . S
C109 O116 1.267 1_565 S
O110 C109 1.203 . S
O111 C104 1.185 . S
O111 Zn107 2.086 . S
C112 O108 1.278 . S
C112 O113 1.211 . S
O113 C112 1.211 . S
C114 O106 1.284 . S
C114 O115 1.273 . S
O115 C114 1.273 . S
O116 Zn107 1.977 . S
O116 C109 1.267 1_545 S
C117 O118 1.160 . S
C117 O124 1.185 . S
O118 C117 1.160 . S
O119 Zn120 1.899 . S
O119 C127 1.284 . S
Zn120 O119 1.899 . S
Zn120 O121 2.032 . S
Zn120 O124 2.086 . S
Zn120 O129 1.977 . S
O121 Zn120 2.032 . S
O121 C125 1.278 . S
C122 O123 1.203 . S
C122 O129 1.267 . S
O123 C122 1.203 . S
O124 C117 1.185 . S
O124 Zn120 2.086 . S
C125 O121 1.278 . S
C125 O126 1.211 . S
O126 C125 1.211 . S
C127 O119 1.284 . S
C127 O128 1.273 . S
O128 C127 1.273 . S
O129 Zn120 1.977 . S
O129 C122 1.267 . S
C130 O131 1.160 . S
C130 O137 1.185 . S
O131 C130 1.160 . S
O132 Zn133 1.899 . S
O132 C140 1.284 . S
Zn133 O132 1.899 . S
Zn133 O134 2.032 . S
Zn133 O137 2.086 . S
Zn133 O142 1.977 1_565 S
O134 Zn133 2.032 . S
O134 C138 1.278 1_565 S
C135 O136 1.203 . S
C135 O142 1.267 . S
O136 C135 1.203 . S
O137 C130 1.185 . S
O137 Zn133 2.086 . S
C138 O134 1.278 1_545 S
C138 O139 1.211 . S
O139 C138 1.211 . S
C140 O132 1.284 . S
C140 O141 1.273 1_565 S
O141 C140 1.273 1_545 S
O142 Zn133 1.977 1_545 S
O142 C135 1.267 . S
C143 O144 1.160 . S
C143 O150 1.185 . S
O144 C143 1.160 . S
O145 Zn146 1.899 . S
O145 C153 1.284 . S
Zn146 O145 1.899 . S
Zn146 O147 2.032 1_554 S
Zn146 O150 2.086 . S
Zn146 O155 1.977 . S
O147 Zn146 2.032 1_556 S
O147 C151 1.278 . S
C148 O149 1.203 . S
C148 O155 1.267 . S
O149 C148 1.203 . S
O150 C143 1.185 . S
O150 Zn146 2.086 . S
C151 O147 1.278 . S
C151 O152 1.211 . S
O152 C151 1.211 . S
C153 O145 1.284 . S
C153 O154 1.273 . S
O154 C153 1.273 . S
O155 Zn146 1.977 . S
O155 C148 1.267 . S
C156 O157 1.160 . S
C156 O163 1.185 . S
O157 C156 1.160 . S
O158 Zn159 1.899 . S
O158 C166 1.284 . S
Zn159 O158 1.899 . S
Zn159 O160 2.032 . S
Zn159 O163 2.086 . S
Zn159 O168 1.977 . S
O160 Zn159 2.032 . S
O160 C164 1.278 . S
C161 O162 1.203 . S
C161 O168 1.267 . S
O162 C161 1.203 . S
O163 C156 1.185 . S
O163 Zn159 2.086 . S
C164 O160 1.278 . S
C164 O165 1.211 . S
O165 C164 1.211 . S
C166 O158 1.284 . S
C166 O167 1.273 . S
O167 C166 1.273 . S
O168 Zn159 1.977 . S
O168 C161 1.267 . S
C169 O170 1.160 . S
C169 O176 1.185 . S
O170 C169 1.160 . S
O171 Zn172 1.899 . S
O171 C179 1.284 . S
Zn172 O171 1.899 . S
Zn172 O173 2.032 . S
Zn172 O176 2.086 . S
Zn172 O181 1.977 . S
O173 Zn172 2.032 . S
O173 C177 1.278 1_554 S
C174 O175 1.203 . S
C174 O181 1.267 . S
O175 C174 1.203 . S
O176 C169 1.185 . S
O176 Zn172 2.086 . S
C177 O173 1.278 1_556 S
C177 O178 1.211 . S
O178 C177 1.211 . S
C179 O171 1.284 . S
C179 O180 1.273 . S
O180 C179 1.273 . S
O181 Zn172 1.977 . S
O181 C174 1.267 . S
C182 O183 1.160 . S
C182 O189 1.185 . S
O183 C182 1.160 . S
O184 Zn185 1.899 . S
O184 C192 1.284 . S
Zn185 O184 1.899 . S
Zn185 O186 2.032 . S
Zn185 O189 2.086 . S
Zn185 O194 1.977 . S
O186 Zn185 2.032 . S
O186 C190 1.278 . S
C187 O188 1.203 . S
C187 O194 1.267 . S
O188 C187 1.203 . S
O189 C182 1.185 . S
O189 Zn185 2.086 . S
C190 O186 1.278 . S
C190 O191 1.211 . S
O191 C190 1.211 . S
C192 O184 1.284 . S
C192 O193 1.273 . S
O193 C192 1.273 . S
O194 Zn185 1.977 . S
O194 C187 1.267 . S
C195 O196 1.160 . S
C195 O202 1.185 . S
O196 C195 1.160 . S
O197 Zn198 1.899 . S
O197 C205 1.284 . S
Zn198 O197 1.899 . S
Zn198 O199 2.032 . S
Zn198 O202 2.086 . S
Zn198 O207 1.977 . S
O199 Zn198 2.032 . S
O199 C203 1.278 . S
C200 O201 1.203 . S
C200 O207 1.267 . S
O201 C200 1.203 . S
O202 C195 1.185 . S
O202 Zn198 2.086 . S
C203 O199 1.278 . S
C203 O204 1.211 . S
O204 C203 1.211 . S
C205 O197 1.284 . S
C205 O206 1.273 . S
O206 C205 1.273 . S
O207 Zn198 1.977 . S
O207 C200 1.267 . S
C208 O209 1.160 . S
C208 O215 1.185 . S
O209 C208 1.160 . S
O210 Zn211 1.899 . S
O210 C218 1.284 . S
Zn211 O210 1.899 . S
Zn211 O212 2.032 . S
Zn211 O215 2.086 . S
Zn211 O220 1.977 . S
O212 Zn211 2.032 . S
O212 C216 1.278 . S
C213 O214 1.203 . S
C213 O220 1.267 . S
O214 C213 1.203 . S
O215 C208 1.185 . S
O215 Zn211 2.086 . S
C216 O212 1.278 . S
C216 O217 1.211 . S
O217 C216 1.211 . S
C218 O210 1.284 . S
C218 O219 1.273 . S
O219 C218 1.273 . S
O220 Zn211 1.977 . S
O220 C213 1.267 . S
C221 O222 1.160 . S
C221 O228 1.185 . S
O222 C221 1.160 . S
O223 Zn224 1.899 . S
O223 C231 1.284 . S
Zn224 O223 1.899 . S
Zn224 O225 2.032 . S
Zn224 O228 2.086 . S
Zn224 O233 1.977 . S
O225 Zn224 2.032 . S
O225 C229 1.278 . S
C226 O227 1.203 . S
C226 O233 1.267 . S
O227 C226 1.203 . S
O228 C221 1.185 . S
O228 Zn224 2.086 . S
C229 O225 1.278 . S
C229 O230 1.211 . S
O230 C229 1.211 . S
C231 O223 1.284 . S
C231 O232 1.273 . S
O232 C231 1.273 . S
O233 Zn224 1.977 . S
O233 C226 1.267 . S
C234 O235 1.160 . S
C234 O241 1.185 . S
O235 C234 1.160 . S
O236 Zn237 1.899 . S
O236 C244 1.284 . S
Zn237 O236 1.899 . S
Zn237 O238 2.032 . S
Zn237 O241 2.086 . S
Zn237 O246 1.977 . S
O238 Zn237 2.032 . S
O238 C242 1.278 . S
C239 O240 1.203 . S
C239 O246 1.267 . S
O240 C239 1.203 . S
O241 C234 1.185 . S
O241 Zn237 2.086 . S
C242 O238 1.278 . S
C242 O243 1.211 . S
O243 C242 1.211 . S
C244 O236 1.284 . S
C244 O245 1.273 . S
O245 C244 1.273 . S
O246 Zn237 1.977 . S
O246 C239 1.267 . S
C247 O248 1.160 . S
C247 O254 1.185 . S
O248 C247 1.160 . S
O249 Zn250 1.899 . S
O249 C257 1.284 . S
Zn250 O249 1.899 . S
Zn250 O251 2.032 . S
Zn250 O254 2.086 . S
Zn250 O259 1.977 . S
O251 Zn250 2.032 . S
O251 C255 1.278 . S
C252 O253 1.203 . S
C252 O259 1.267 . S
O253 C252 1.203 . S
O254 C247 1.185 . S
O254 Zn250 2.086 . S
C255 O251 1.278 . S
C255 O256 1.211 . S
O256 C255 1.211 . S
C257 O249 1.284 . S
C257 O258 1.273 . S
O258 C257 1.273 . S
O259 Zn250 1.977 . S
O259 C252 1.267 . S
C260 O261 1.183 . S
C260 O267 1.173 1_554 S
O261 C260 1.183 . S
O262 Zn263 1.899 . S
O262 C270 1.284 . S
Zn263 O262 1.899 . S
Zn263 O264 2.032 1_554 S
Zn263 O267 2.086 1_554 S
Zn263 O272 1.977 1_554 S
O264 Zn263 2.032 1_556 S
O264 C268 1.278 . S
C265 O266 1.203 1_556 S
C265 O272 1.267 . S
O266 C265 1.203 1_554 S
O267 C260 1.173 1_556 S
O267 Zn263 2.086 1_556 S
C268 O264 1.278 . S
C268 O269 1.211 . S
O269 C268 1.211 . S
C270 O262 1.284 . S
C270 O271 1.273 . S
O271 C270 1.273 . S
O272 Zn263 1.977 1_556 S
O272 C265 1.267 . S
C273 O274 1.160 . S
C273 O280 1.185 . S
O274 C273 1.160 . S
O275 Zn276 1.899 . S
O275 C283 1.284 . S
Zn276 O275 1.899 . S
Zn276 O277 2.032 . S
Zn276 O280 2.086 . S
Zn276 O285 1.977 . S
O277 Zn276 2.032 . S
O277 C281 1.278 . S
C278 O279 1.203 . S
C278 O285 1.267 . S
O279 C278 1.203 . S
O280 C273 1.185 . S
O280 Zn276 2.086 . S
C281 O277 1.278 . S
C281 O282 1.211 . S
O282 C281 1.211 . S
C283 O275 1.284 . S
C283 O284 1.273 . S
O284 C283 1.273 . S
O285 Zn276 1.977 . S
O285 C278 1.267 . S
C286 O287 1.160 . S
C286 O293 1.185 . S
O287 C286 1.160 . S
O288 Zn289 1.899 . S
O288 C296 1.284 . S
Zn289 O288 1.899 . S
Zn289 O290 2.032 . S
Zn289 O293 2.086 . S
Zn289 O298 1.977 . S
O290 Zn289 2.032 . S
O290 C294 1.278 . S
C291 O292 1.203 . S
C291 O298 1.267 . S
O292 C291 1.203 . S
O293 C286 1.185 . S
O293 Zn289 2.086 . S
C294 O290 1.278 . S
C294 O295 1.211 . S
O295 C294 1.211 . S
C296 O288 1.284 . S
C296 O297 1.273 . S
O297 C296 1.273 . S
O298 Zn289 1.977 . S
O298 C291 1.267 . S
C299 O300 1.160 . S
C299 O306 1.185 . S
O300 C299 1.160 . S
O301 Zn302 1.899 . S
O301 C309 1.284 . S
Zn302 O301 1.899 . S
Zn302 O303 2.032 . S
Zn302 O306 2.086 . S
Zn302 O311 1.977 . S
O303 Zn302 2.032 . S
O303 C307 1.278 . S
C304 O305 1.203 . S
C304 O311 1.267 . S
O305 C304 1.203 . S
O306 C299 1.185 . S
O306 Zn302 2.086 . S
C307 O303 1.278 . S
C307 O308 1.211 . S
O308 C307 1.211 . S
C309 O301 1.284 . S
C309 O310 1.273 . S
O310 C309 1.273 . S
O311 Zn302 1.977 . S
O311 C304 1.267 . S
Tb312 N343 2.660 1_545 S
Tb312 N350 2.600 1_544 S
Tb312 O356 2.546 1_454 S
Tb312 O357 2.610 . S
Tb312 O359 2.320 . S
Tb312 O360 2.551 . S
Tb312 O361 2.413 1_455 S
Tb312 O363 2.362 . S
Tb312 O364 2.421 1_554 S
Tb312 C376 2.833 1_454 S
C313 C316 1.432 . S
C313 C317 1.414 . S
C313 N320 1.359 . S
C314 C316 1.417 . S
C314 C318 1.432 . S
C314 C326 1.410 1_554 S
C315 C317 1.444 . S
C315 C318 1.317 . S
C315 H338 0.929 . S
C316 C313 1.432 . S
C316 C314 1.417 . S
C316 N324 1.360 . S
C317 C313 1.414 . S
C317 C315 1.444 . S
C317 C322 1.385 . S
C318 C314 1.432 . S
C318 C315 1.317 . S
C318 H330 0.930 . S
C319 C321 1.392 . S
C319 C322 1.370 . S
C319 H331 0.931 . S
N320 C313 1.359 . S
N320 C321 1.327 . S
N320 Tb323 2.600 . S
C321 C319 1.392 . S
C321 N320 1.327 . S
C321 H328 0.930 . S
C322 C317 1.385 . S
C322 C319 1.370 . S
C322 H341 0.930 . S
Tb323 N320 2.600 . S
Tb323 N324 2.660 . S
Tb323 O357 2.362 . S
Tb323 O358 2.421 . S
Tb323 O362 2.546 . S
Tb323 O363 2.610 . S
Tb323 O365 2.320 1_554 S
Tb323 O366 2.552 . S
Tb323 O367 2.413 . S
Tb323 C387 2.833 . S
N324 C316 1.360 . S
N324 Tb323 2.660 . S
N324 C325 1.305 1_554 S
C325 N324 1.305 1_556 S
C325 C327 1.407 . S
C325 H332 0.930 . S
C326 C314 1.410 1_556 S
C326 C327 1.345 . S
C326 H334 0.930 . S
C327 C325 1.407 . S
C327 C326 1.345 . S
C327 H329 0.930 . S
H328 C321 0.930 . S
H329 C327 0.930 . S
H330 C318 0.930 . S
H331 C319 0.931 . S
H332 C325 0.930 . S
H333 C347 0.931 1_455 S
H334 C326 0.930 . S
H335 C353 0.934 1_545 S
H336 C344 0.930 1_545 S
H337 C351 0.931 . S
H338 C315 0.929 . S
H339 C345 0.930 . S
H340 C378 0.930 1_554 S
H341 C322 0.930 . S
H342 C377 0.929 . S
N343 Tb312 2.660 1_565 S
N343 C344 1.305 . S
N343 C348 1.360 1_455 S
C344 H336 0.930 1_565 S
C344 N343 1.305 . S
C344 C347 1.403 1_455 S
C345 H339 0.930 . S
C345 C346 1.410 . S
C345 C347 1.350 . S
C346 C345 1.410 . S
C346 C348 1.417 . S
C346 C378 1.432 1_554 S
C347 H333 0.931 1_655 S
C347 C344 1.403 1_655 S
C347 C345 1.350 . S
C348 N343 1.360 1_655 S
C348 C346 1.417 . S
C348 C352 1.432 1_554 S
H349 C354 0.930 . S
N350 Tb312 2.600 1_566 S
N350 C352 1.359 1_455 S
N350 C353 1.327 . S
C351 H337 0.931 . S
C351 C353 1.392 1_655 S
C351 C354 1.370 . S
C352 C348 1.432 1_556 S
C352 N350 1.359 1_655 S
C352 C355 1.414 . S
C353 H335 0.934 1_565 S
C353 N350 1.327 . S
C353 C351 1.392 1_455 S
C354 H349 0.930 . S
C354 C351 1.370 . S
C354 C355 1.385 . S
C355 C352 1.414 . S
C355 C354 1.385 . S
C355 C377 1.444 . S
O356 Tb312 2.546 1_656 S
O356 C376 1.251 . S
O357 Tb312 2.610 . S
O357 Tb323 2.362 . S
O357 C368 1.283 . S
O358 Tb323 2.421 . S
O358 C375 1.262 . S
O359 Tb312 2.320 . S
O359 C375 1.260 . S
O360 Tb312 2.551 . S
O360 C368 1.241 . S
O361 Tb312 2.413 1_655 S
O361 C376 1.256 1_554 S
O362 Tb323 2.546 . S
O362 C387 1.251 . S
O363 Tb312 2.362 . S
O363 Tb323 2.610 . S
O363 C379 1.283 . S
O364 Tb312 2.421 1_556 S
O364 C386 1.262 . S
O365 Tb323 2.320 1_556 S
O365 C386 1.260 . S
O366 Tb323 2.552 . S
O366 C379 1.243 . S
O367 Tb323 2.413 . S
O367 C387 1.256 . S
C368 O357 1.283 . S
C368 O360 1.241 . S
C369 C371 1.382 1_556 S
C369 C373 1.393 . S
C369 C376 1.500 . S
C370 C371 1.400 1_556 S
C370 C372 1.384 . S
C371 C369 1.382 1_554 S
C371 C370 1.400 1_554 S
C371 H388 0.930 . S
C372 C370 1.384 . S
C372 C374 1.392 . S
C372 H389 0.931 . S
C373 C369 1.393 . S
C373 C374 1.401 . S
C373 H390 0.930 . S
C374 C372 1.392 . S
C374 C373 1.401 . S
C374 H391 0.930 . S
C375 O358 1.262 . S
C375 O359 1.260 . S
C376 Tb312 2.833 1_656 S
C376 O356 1.251 . S
C376 O361 1.256 1_556 S
C376 C369 1.500 . S
C377 H342 0.929 . S
C377 C355 1.444 . S
C377 C378 1.317 . S
C378 H340 0.930 1_556 S
C378 C346 1.432 1_556 S
C378 C377 1.317 . S
C379 O363 1.283 . S
C379 O366 1.243 . S
C380 C381 1.382 . S
C380 C384 1.393 . S
C380 C387 1.500 . S
C381 C380 1.382 . S
C381 C382 1.400 . S
C381 H392 0.930 . S
C382 C381 1.400 . S
C382 C383 1.384 . S
C383 C382 1.384 . S
C383 C385 1.392 . S
C383 H393 0.931 . S
C384 C380 1.393 . S
C384 C385 1.401 . S
C384 H394 0.930 . S
C385 C383 1.392 . S
C385 C384 1.401 . S
C385 H395 0.930 . S
C386 O364 1.262 . S
C386 O365 1.260 . S
C387 Tb323 2.833 . S
C387 O362 1.251 . S
C387 O367 1.256 . S
C387 C380 1.500 . S
H388 C371 0.930 . S
H389 C372 0.931 . S
H390 C373 0.930 . S
H391 C374 0.930 . S
H392 C381 0.930 . S
H393 C383 0.931 . S
H394 C384 0.930 . S
H395 C385 0.930 . S
Tb396 N427 2.660 . S
Tb396 N434 2.600 . S
Tb396 O440 2.546 . S
Tb396 O441 2.610 . S
Tb396 O443 2.320 . S
Tb396 O444 2.552 . S
Tb396 O445 2.413 . S
Tb396 O447 2.362 . S
Tb396 O448 2.421 . S
Tb396 C460 2.833 . S
C397 C400 1.432 . S
C397 C401 1.414 . S
C397 N404 1.359 . S
C398 C400 1.417 . S
C398 C402 1.432 . S
C398 C410 1.410 . S
C399 C401 1.444 . S
C399 C402 1.317 . S
C399 H422 0.929 . S
C400 C397 1.432 . S
C400 C398 1.417 . S
C400 N408 1.360 . S
C401 C397 1.414 . S
C401 C399 1.444 . S
C401 C406 1.385 . S
C402 C398 1.432 . S
C402 C399 1.317 . S
C402 H414 0.930 . S
C403 C405 1.392 . S
C403 C406 1.370 . S
C403 H415 0.931 . S
N404 C397 1.359 . S
N404 C405 1.327 . S
N404 Tb407 2.600 . S
C405 C403 1.392 . S
C405 N404 1.327 . S
C405 H412 0.930 . S
C406 C401 1.385 . S
C406 C403 1.370 . S
C406 H425 0.930 . S
Tb407 N404 2.600 . S
Tb407 N408 2.660 . S
Tb407 O441 2.362 . S
Tb407 O442 2.421 . S
Tb407 O446 2.546 . S
Tb407 O447 2.610 . S
Tb407 O449 2.320 . S
Tb407 O450 2.552 . S
Tb407 O451 2.413 . S
Tb407 C471 2.833 . S
N408 C400 1.360 . S
N408 Tb407 2.660 . S
N408 C409 1.305 . S
C409 N408 1.305 . S
C409 C411 1.407 . S
C409 H416 0.930 . S
C410 C398 1.410 . S
C410 C411 1.345 . S
C410 H418 0.930 . S
C411 C409 1.407 . S
C411 C410 1.345 . S
C411 H413 0.930 . S
H412 C405 0.930 . S
H413 C411 0.930 . S
H414 C402 0.930 . S
H415 C403 0.931 . S
H416 C409 0.930 . S
H417 C431 0.930 . S
H418 C410 0.930 . S
H419 C437 0.930 . S
H420 C428 0.930 . S
H421 C435 0.931 . S
H422 C399 0.929 . S
H423 C429 0.930 . S
H424 C462 0.930 . S
H425 C406 0.930 . S
H426 C461 0.929 . S
N427 Tb396 2.660 . S
N427 C428 1.305 . S
N427 C432 1.360 . S
C428 H420 0.930 . S
C428 N427 1.305 . S
C428 C431 1.407 . S
C429 H423 0.930 . S
C429 C430 1.410 . S
C429 C431 1.345 . S
C430 C429 1.410 . S
C430 C432 1.417 . S
C430 C462 1.432 . S
C431 H417 0.930 . S
C431 C428 1.407 . S
C431 C429 1.345 . S
C432 N427 1.360 . S
C432 C430 1.417 . S
C432 C436 1.432 . S
H433 C438 0.930 . S
N434 Tb396 2.600 . S
N434 C436 1.359 . S
N434 C437 1.327 . S
C435 H421 0.931 . S
C435 C437 1.392 . S
C435 C438 1.370 . S
C436 C432 1.432 . S
C436 N434 1.359 . S
C436 C439 1.414 . S
C437 H419 0.930 . S
C437 N434 1.327 . S
C437 C435 1.392 . S
C438 H433 0.930 . S
C438 C435 1.370 . S
C438 C439 1.385 . S
C439 C436 1.414 . S
C439 C438 1.385 . S
C439 C461 1.444 . S
O440 Tb396 2.546 . S
O440 C460 1.251 . S
O441 Tb396 2.610 . S
O441 Tb407 2.362 . S
O441 C452 1.283 . S
O442 Tb407 2.421 . S
O442 C459 1.262 . S
O443 Tb396 2.320 . S
O443 C459 1.260 . S
O444 Tb396 2.552 . S
O444 C452 1.243 . S
O445 Tb396 2.413 . S
O445 C460 1.256 . S
O446 Tb407 2.546 . S
O446 C471 1.251 . S
O447 Tb396 2.362 . S
O447 Tb407 2.610 . S
O447 C463 1.283 . S
O448 Tb396 2.421 . S
O448 C470 1.262 . S
O449 Tb407 2.320 . S
O449 C470 1.260 . S
O450 Tb407 2.552 . S
O450 C463 1.243 . S
O451 Tb407 2.413 . S
O451 C471 1.256 . S
C452 O441 1.283 . S
C452 O444 1.243 . S
C453 C455 1.382 . S
C453 C457 1.393 . S
C453 C460 1.500 . S
C454 C455 1.400 . S
C454 C456 1.384 . S
C455 C453 1.382 . S
C455 C454 1.400 . S
C455 H472 0.930 . S
C456 C454 1.384 . S
C456 C458 1.392 . S
C456 H473 0.931 . S
C457 C453 1.393 . S
C457 C458 1.401 . S
C457 H474 0.930 . S
C458 C456 1.392 . S
C458 C457 1.401 . S
C458 H475 0.930 . S
C459 O442 1.262 . S
C459 O443 1.260 . S
C460 Tb396 2.833 . S
C460 O440 1.251 . S
C460 O445 1.256 . S
C460 C453 1.500 . S
C461 H426 0.929 . S
C461 C439 1.444 . S
C461 C462 1.317 . S
C462 H424 0.930 . S
C462 C430 1.432 . S
C462 C461 1.317 . S
C463 O447 1.283 . S
C463 O450 1.243 . S
C464 C465 1.382 . S
C464 C468 1.393 . S
C464 C471 1.500 . S
C465 C464 1.382 . S
C465 C466 1.400 . S
C465 H476 0.930 . S
C466 C465 1.400 . S
C466 C467 1.384 . S
C467 C466 1.384 . S
C467 C469 1.392 . S
C467 H477 0.931 . S
C468 C464 1.393 . S
C468 C469 1.401 . S
C468 H478 0.930 . S
C469 C467 1.392 . S
C469 C468 1.401 . S
C469 H479 0.930 . S
C470 O448 1.262 . S
C470 O449 1.260 . S
C471 Tb407 2.833 . S
C471 O446 1.251 . S
C471 O451 1.256 . S
C471 C464 1.500 . S
H472 C455 0.930 . S
H473 C456 0.931 . S
H474 C457 0.930 . S
H475 C458 0.930 . S
H476 C465 0.930 . S
H477 C467 0.931 . S
H478 C468 0.930 . S
H479 C469 0.930 . S
Tb480 N511 2.660 . S
Tb480 N518 2.600 . S
Tb480 O524 2.546 . S
Tb480 O525 2.610 . S
Tb480 O527 2.320 . S
Tb480 O528 2.552 . S
Tb480 O529 2.413 . S
Tb480 O531 2.362 . S
Tb480 O532 2.421 . S
Tb480 C544 2.833 . S
C481 C484 1.432 . S
C481 C485 1.414 . S
C481 N488 1.359 1_565 S
C482 C484 1.417 . S
C482 C486 1.432 . S
C482 C494 1.410 . S
C483 C485 1.444 . S
C483 C486 1.317 . S
C483 H506 0.929 . S
C484 C481 1.432 . S
C484 C482 1.417 . S
C484 N492 1.360 1_565 S
C485 C481 1.414 . S
C485 C483 1.444 . S
C485 C490 1.385 . S
C486 C482 1.432 . S
C486 C483 1.317 . S
C486 H498 0.930 . S
C487 C489 1.392 . S
C487 C490 1.370 1_545 S
C487 H499 0.931 . S
N488 C481 1.359 1_545 S
N488 C489 1.327 . S
N488 Tb491 2.600 . S
C489 C487 1.392 . S
C489 N488 1.327 . S
C489 H496 0.930 . S
C490 C485 1.385 . S
C490 C487 1.370 1_565 S
C490 H509 0.930 . S
Tb491 N488 2.600 . S
Tb491 N492 2.660 . S
Tb491 O525 2.362 . S
Tb491 O526 2.421 . S
Tb491 O530 2.546 . S
Tb491 O531 2.610 . S
Tb491 O533 2.320 . S
Tb491 O534 2.552 . S
Tb491 O535 2.413 . S
Tb491 C555 2.833 . S
N492 C484 1.360 1_545 S
N492 Tb491 2.660 . S
N492 C493 1.305 1_545 S
C493 N492 1.305 1_565 S
C493 C495 1.407 . S
C493 H500 0.930 1_565 S
C494 C482 1.410 . S
C494 C495 1.345 . S
C494 H502 0.930 . S
C495 C493 1.407 . S
C495 C494 1.345 . S
C495 H497 0.930 . S
H496 C489 0.930 . S
H497 C495 0.930 . S
H498 C486 0.930 . S
H499 C487 0.931 . S
H500 C493 0.930 1_545 S
H501 C515 0.930 . S
H502 C494 0.930 . S
H503 C521 0.930 . S
H504 C512 0.930 . S
H505 C519 0.931 . S
H506 C483 0.929 . S
H507 C513 0.930 . S
H508 C546 0.930 . S
H509 C490 0.930 . S
H510 C545 0.929 . S
N511 Tb480 2.660 . S
N511 C512 1.305 . S
N511 C516 1.360 . S
C512 H504 0.930 . S
C512 N511 1.305 . S
C512 C515 1.407 . S
C513 H507 0.930 . S
C513 C514 1.410 . S
C513 C515 1.345 . S
C514 C513 1.410 . S
C514 C516 1.417 . S
C514 C546 1.432 . S
C515 H501 0.930 . S
C515 C512 1.407 . S
C515 C513 1.345 . S
C516 N511 1.360 . S
C516 C514 1.417 . S
C516 C520 1.432 . S
H517 C522 0.930 . S
N518 Tb480 2.600 . S
N518 C520 1.359 . S
N518 C521 1.327 . S
C519 H505 0.931 . S
C519 C521 1.392 . S
C519 C522 1.370 . S
C520 C516 1.432 . S
C520 N518 1.359 . S
C520 C523 1.414 . S
C521 H503 0.930 . S
C521 N518 1.327 . S
C521 C519 1.392 . S
C522 H517 0.930 . S
C522 C519 1.370 . S
C522 C523 1.385 . S
C523 C520 1.414 . S
C523 C522 1.385 . S
C523 C545 1.444 . S
O524 Tb480 2.546 . S
O524 C544 1.251 . S
O525 Tb480 2.610 . S
O525 Tb491 2.362 . S
O525 C536 1.283 . S
O526 Tb491 2.421 . S
O526 C543 1.262 . S
O527 Tb480 2.320 . S
O527 C543 1.260 . S
O528 Tb480 2.552 . S
O528 C536 1.243 . S
O529 Tb480 2.413 . S
O529 C544 1.256 . S
O530 Tb491 2.546 . S
O530 C555 1.251 . S
O531 Tb480 2.362 . S
O531 Tb491 2.610 . S
O531 C547 1.283 . S
O532 Tb480 2.421 . S
O532 C554 1.262 . S
O533 Tb491 2.320 . S
O533 C554 1.260 . S
O534 Tb491 2.552 . S
O534 C547 1.243 . S
O535 Tb491 2.413 . S
O535 C555 1.256 . S
C536 O525 1.283 . S
C536 O528 1.243 . S
C537 C539 1.382 . S
C537 C541 1.393 . S
C537 C544 1.500 . S
C538 C539 1.400 1_565 S
C538 C540 1.384 . S
C539 C537 1.382 . S
C539 C538 1.400 1_545 S
C539 H556 0.930 . S
C540 C538 1.384 . S
C540 C542 1.392 1_565 S
C540 H557 0.931 . S
C541 C537 1.393 . S
C541 C542 1.401 . S
C541 H558 0.930 . S
C542 C540 1.392 1_545 S
C542 C541 1.401 . S
C542 H559 0.930 . S
C543 O526 1.262 . S
C543 O527 1.260 . S
C544 Tb480 2.833 . S
C544 O524 1.251 . S
C544 O529 1.256 . S
C544 C537 1.500 . S
C545 H510 0.929 . S
C545 C523 1.444 . S
C545 C546 1.317 . S
C546 H508 0.930 . S
C546 C514 1.432 . S
C546 C545 1.317 . S
C547 O531 1.283 . S
C547 O534 1.243 . S
C548 C549 1.382 . S
C548 C552 1.393 . S
C548 C555 1.500 . S
C549 C548 1.382 . S
C549 C550 1.400 . S
C549 H560 0.930 . S
C550 C549 1.400 . S
C550 C551 1.384 . S
C551 C550 1.384 . S
C551 C553 1.392 . S
C551 H561 0.931 . S
C552 C548 1.393 . S
C552 C553 1.401 . S
C552 H562 0.930 . S
C553 C551 1.392 . S
C553 C552 1.401 . S
C553 H563 0.930 . S
C554 O532 1.262 . S
C554 O533 1.260 . S
C555 Tb491 2.833 . S
C555 O530 1.251 . S
C555 O535 1.256 . S
C555 C548 1.500 . S
H556 C539 0.930 . S
H557 C540 0.931 . S
H558 C541 0.930 . S
H559 C542 0.930 . S
H560 C549 0.930 . S
H561 C551 0.931 . S
H562 C552 0.930 . S
H563 C553 0.930 . S
Tb564 N595 2.660 . S
Tb564 N602 2.600 . S
Tb564 O608 2.546 . S
Tb564 O609 2.610 . S
Tb564 O611 2.320 . S
Tb564 O612 2.552 . S
Tb564 O613 2.413 . S
Tb564 O615 2.362 . S
Tb564 O616 2.421 . S
Tb564 C628 2.833 . S
C565 C568 1.432 . S
C565 C569 1.414 . S
C565 N572 1.359 . S
C566 C568 1.417 . S
C566 C570 1.432 . S
C566 C578 1.410 . S
C567 C569 1.444 . S
C567 C570 1.317 . S
C567 H590 0.929 . S
C568 C565 1.432 . S
C568 C566 1.417 . S
C568 N576 1.360 . S
C569 C565 1.414 . S
C569 C567 1.444 . S
C569 C574 1.385 . S
C570 C566 1.432 . S
C570 C567 1.317 . S
C570 H582 0.930 . S
C571 C573 1.392 . S
C571 C574 1.370 . S
C571 H583 0.931 . S
N572 C565 1.359 . S
N572 C573 1.327 . S
N572 Tb575 2.600 . S
C573 C571 1.392 . S
C573 N572 1.327 . S
C573 H580 0.930 . S
C574 C569 1.385 . S
C574 C571 1.370 . S
C574 H593 0.930 . S
Tb575 N572 2.600 . S
Tb575 N576 2.660 . S
Tb575 O609 2.362 . S
Tb575 O610 2.421 . S
Tb575 O614 2.546 . S
Tb575 O615 2.610 . S
Tb575 O617 2.320 . S
Tb575 O618 2.552 . S
Tb575 O619 2.413 . S
Tb575 C639 2.833 . S
N576 C568 1.360 . S
N576 Tb575 2.660 . S
N576 C577 1.305 . S
C577 N576 1.305 . S
C577 C579 1.407 . S
C577 H584 0.930 . S
C578 C566 1.410 . S
C578 C579 1.345 . S
C578 H586 0.930 . S
C579 C577 1.407 . S
C579 C578 1.345 . S
C579 H581 0.930 . S
H580 C573 0.930 . S
H581 C579 0.930 . S
H582 C570 0.930 . S
H583 C571 0.931 . S
H584 C577 0.930 . S
H585 C599 0.930 . S
H586 C578 0.930 . S
H587 C605 0.930 . S
H588 C596 0.930 . S
H589 C603 0.931 . S
H590 C567 0.929 . S
H591 C597 0.930 . S
H592 C630 0.930 . S
H593 C574 0.930 . S
H594 C629 0.929 . S
N595 Tb564 2.660 . S
N595 C596 1.305 . S
N595 C600 1.360 . S
C596 H588 0.930 . S
C596 N595 1.305 . S
C596 C599 1.407 . S
C597 H591 0.930 . S
C597 C598 1.410 . S
C597 C599 1.345 . S
C598 C597 1.410 . S
C598 C600 1.417 . S
C598 C630 1.432 . S
C599 H585 0.930 . S
C599 C596 1.407 . S
C599 C597 1.345 . S
C600 N595 1.360 . S
C600 C598 1.417 . S
C600 C604 1.432 . S
H601 C606 0.930 . S
N602 Tb564 2.600 . S
N602 C604 1.359 . S
N602 C605 1.327 . S
C603 H589 0.931 . S
C603 C605 1.392 . S
C603 C606 1.370 . S
C604 C600 1.432 . S
C604 N602 1.359 . S
C604 C607 1.414 . S
C605 H587 0.930 . S
C605 N602 1.327 . S
C605 C603 1.392 . S
C606 H601 0.930 . S
C606 C603 1.370 . S
C606 C607 1.385 . S
C607 C604 1.414 . S
C607 C606 1.385 . S
C607 C629 1.444 . S
O608 Tb564 2.546 . S
O608 C628 1.251 . S
O609 Tb564 2.610 . S
O609 Tb575 2.362 . S
O609 C620 1.283 . S
O610 Tb575 2.421 . S
O610 C627 1.262 . S
O611 Tb564 2.320 . S
O611 C627 1.260 . S
O612 Tb564 2.552 . S
O612 C620 1.243 . S
O613 Tb564 2.413 . S
O613 C628 1.256 . S
O614 Tb575 2.546 . S
O614 C639 1.251 . S
O615 Tb564 2.362 . S
O615 Tb575 2.610 . S
O615 C631 1.283 . S
O616 Tb564 2.421 . S
O616 C638 1.262 . S
O617 Tb575 2.320 . S
O617 C638 1.260 . S
O618 Tb575 2.552 . S
O618 C631 1.243 . S
O619 Tb575 2.413 . S
O619 C639 1.256 . S
C620 O609 1.283 . S
C620 O612 1.243 . S
C621 C623 1.382 . S
C621 C625 1.393 . S
C621 C628 1.500 . S
C622 C623 1.400 . S
C622 C624 1.384 . S
C623 C621 1.382 . S
C623 C622 1.400 . S
C623 H640 0.930 . S
C624 C622 1.384 . S
C624 C626 1.392 . S
C624 H641 0.931 . S
C625 C621 1.393 . S
C625 C626 1.401 . S
C625 H642 0.930 . S
C626 C624 1.392 . S
C626 C625 1.401 . S
C626 H643 0.930 . S
C627 O610 1.262 . S
C627 O611 1.260 . S
C628 Tb564 2.833 . S
C628 O608 1.251 . S
C628 O613 1.256 . S
C628 C621 1.500 . S
C629 H594 0.929 . S
C629 C607 1.444 . S
C629 C630 1.317 . S
C630 H592 0.930 . S
C630 C598 1.432 . S
C630 C629 1.317 . S
C631 O615 1.283 . S
C631 O618 1.243 . S
C632 C633 1.382 . S
C632 C636 1.393 . S
C632 C639 1.500 . S
C633 C632 1.382 . S
C633 C634 1.400 . S
C633 H644 0.930 . S
C634 C633 1.400 . S
C634 C635 1.384 . S
C635 C634 1.384 . S
C635 C637 1.392 . S
C635 H645 0.931 . S
C636 C632 1.393 . S
C636 C637 1.401 . S
C636 H646 0.930 . S
C637 C635 1.392 . S
C637 C636 1.401 . S
C637 H647 0.930 . S
C638 O616 1.262 . S
C638 O617 1.260 . S
C639 Tb575 2.833 . S
C639 O614 1.251 . S
C639 O619 1.256 . S
C639 C632 1.500 . S
H640 C623 0.930 . S
H641 C624 0.931 . S
H642 C625 0.930 . S
H643 C626 0.930 . S
H644 C633 0.930 . S
H645 C635 0.931 . S
H646 C636 0.930 . S
H647 C637 0.930 . S
Tb648 N679 2.660 . S
Tb648 N686 2.600 . S
Tb648 O692 2.546 . S
Tb648 O693 2.610 . S
Tb648 O695 2.320 . S
Tb648 O696 2.552 . S
Tb648 O697 2.413 . S
Tb648 O699 2.362 . S
Tb648 O700 2.421 . S
Tb648 C712 2.833 . S
C649 C652 1.432 . S
C649 C653 1.414 . S
C649 N656 1.364 . S
C650 C652 1.417 . S
C650 C654 1.432 . S
C650 C662 1.410 . S
C651 C653 1.444 . S
C651 C654 1.317 . S
C651 H674 0.929 . S
C652 C649 1.432 . S
C652 C650 1.417 . S
C652 N660 1.360 . S
C653 C649 1.414 . S
C653 C651 1.444 . S
C653 C658 1.385 . S
C654 C650 1.432 . S
C654 C651 1.317 . S
C654 H666 0.930 . S
C655 C657 1.392 1_565 S
C655 C658 1.370 . S
C655 H667 0.931 . S
N656 C649 1.364 . S
N656 C657 1.330 1_565 S
N656 Tb659 2.594 1_565 S
C657 C655 1.392 1_545 S
C657 N656 1.330 1_545 S
C657 H664 0.930 . S
C658 C653 1.385 . S
C658 C655 1.370 . S
C658 H677 0.930 . S
Tb659 N656 2.594 1_545 S
Tb659 N660 2.660 1_545 S
Tb659 O693 2.362 . S
Tb659 O694 2.421 . S
Tb659 O698 2.546 1_545 S
Tb659 O699 2.610 . S
Tb659 O701 2.320 . S
Tb659 O702 2.552 . S
Tb659 O703 2.413 1_545 S
Tb659 C723 2.833 1_545 S
N660 C652 1.360 . S
N660 Tb659 2.660 1_565 S
N660 C661 1.305 . S
C661 N660 1.305 . S
C661 C663 1.437 . S
C661 H668 0.930 . S
C662 C650 1.410 . S
C662 C663 1.377 . S
C662 H670 0.934 . S
C663 C661 1.437 . S
C663 C662 1.377 . S
C663 H665 0.871 1_455 S
H664 C657 0.930 . S
H665 C663 0.871 1_655 S
H666 C654 0.930 . S
H667 C655 0.931 . S
H668 C661 0.930 . S
H669 C683 0.930 . S
H670 C662 0.934 . S
H671 C689 0.930 . S
H672 C680 0.930 . S
H673 C687 0.887 1_655 S
H674 C651 0.929 . S
H675 C681 0.930 . S
H676 C714 0.930 . S
H677 C658 0.930 . S
H678 C713 0.929 . S
N679 Tb648 2.660 . S
N679 C680 1.305 . S
N679 C684 1.360 . S
C680 H672 0.930 . S
C680 N679 1.305 . S
C680 C683 1.407 . S
C681 H675 0.930 . S
C681 C682 1.410 . S
C681 C683 1.345 . S
C682 C681 1.410 . S
C682 C684 1.417 . S
C682 C714 1.432 . S
C683 H669 0.930 . S
C683 C680 1.407 . S
C683 C681 1.345 . S
C684 N679 1.360 . S
C684 C682 1.417 . S
C684 C688 1.432 . S
H685 C690 0.930 . S
N686 Tb648 2.600 . S
N686 C688 1.359 . S
N686 C689 1.327 . S
C687 H673 0.887 1_455 S
C687 C689 1.420 . S
C687 C690 1.388 . S
C688 C684 1.432 . S
C688 N686 1.359 . S
C688 C691 1.414 . S
C689 H671 0.930 . S
C689 N686 1.327 . S
C689 C687 1.420 . S
C690 H685 0.930 . S
C690 C687 1.388 . S
C690 C691 1.385 . S
C691 C688 1.414 . S
C691 C690 1.385 . S
C691 C713 1.444 . S
O692 Tb648 2.546 . S
O692 C712 1.251 . S
O693 Tb648 2.610 . S
O693 Tb659 2.362 . S
O693 C704 1.283 . S
O694 Tb659 2.421 . S
O694 C711 1.262 . S
O695 Tb648 2.320 . S
O695 C711 1.260 . S
O696 Tb648 2.552 . S
O696 C704 1.243 . S
O697 Tb648 2.413 . S
O697 C712 1.256 . S
O698 Tb659 2.546 1_565 S
O698 C723 1.251 . S
O699 Tb648 2.362 . S
O699 Tb659 2.610 . S
O699 C715 1.283 . S
O700 Tb648 2.421 . S
O700 C722 1.262 . S
O701 Tb659 2.320 . S
O701 C722 1.260 . S
O702 Tb659 2.552 . S
O702 C715 1.243 . S
O703 Tb659 2.413 1_565 S
O703 C723 1.256 . S
C704 O693 1.283 . S
C704 O696 1.243 . S
C705 C707 1.382 . S
C705 C709 1.393 . S
C705 C712 1.500 . S
C706 C707 1.400 . S
C706 C708 1.384 . S
C707 C705 1.382 . S
C707 C706 1.400 . S
C707 H724 0.930 . S
C708 C706 1.384 . S
C708 C710 1.392 . S
C708 H725 0.931 . S
C709 C705 1.393 . S
C709 C710 1.401 . S
C709 H726 0.930 . S
C710 C708 1.392 . S
C710 C709 1.401 . S
C710 H727 0.930 . S
C711 O694 1.262 . S
C711 O695 1.260 . S
C712 Tb648 2.833 . S
C712 O692 1.251 . S
C712 O697 1.256 . S
C712 C705 1.500 . S
C713 H678 0.929 . S
C713 C691 1.444 . S
C713 C714 1.317 . S
C714 H676 0.930 . S
C714 C682 1.432 . S
C714 C713 1.317 . S
C715 O699 1.283 . S
C715 O702 1.243 . S
C716 C717 1.382 . S
C716 C720 1.393 . S
C716 C723 1.500 . S
C717 C716 1.382 . S
C717 C718 1.400 . S
C717 H728 0.930 . S
C718 C717 1.400 . S
C718 C719 1.384 . S
C719 C718 1.384 . S
C719 C721 1.392 . S
C719 H729 0.931 . S
C720 C716 1.393 . S
C720 C721 1.401 . S
C720 H730 0.930 . S
C721 C719 1.392 . S
C721 C720 1.401 . S
C721 H731 0.930 . S
C722 O700 1.262 . S
C722 O701 1.260 . S
C723 Tb659 2.833 1_565 S
C723 O698 1.251 . S
C723 O703 1.256 . S
C723 C716 1.500 . S
H724 C707 0.930 . S
H725 C708 0.931 . S
H726 C709 0.930 . S
H727 C710 0.930 . S
H728 C717 0.930 . S
H729 C719 0.931 . S
H730 C720 0.930 . S
H731 C721 0.930 . S
Tb732 N763 2.660 . S
Tb732 N770 2.600 . S
Tb732 O776 2.546 . S
Tb732 O777 2.610 . S
Tb732 O779 2.320 . S
Tb732 O780 2.552 . S
Tb732 O781 2.413 . S
Tb732 O783 2.362 . S
Tb732 O784 2.421 . S
Tb732 C796 2.833 . S
C733 C736 1.432 . S
C733 C737 1.414 . S
C733 N740 1.359 . S
C734 C736 1.417 . S
C734 C738 1.432 . S
C734 C746 1.410 . S
C735 C737 1.444 . S
C735 C738 1.317 . S
C735 H758 0.929 . S
C736 C733 1.432 . S
C736 C734 1.417 . S
C736 N744 1.360 . S
C737 C733 1.414 . S
C737 C735 1.444 . S
C737 C742 1.385 . S
C738 C734 1.432 . S
C738 C735 1.317 . S
C738 H750 0.930 . S
C739 C741 1.392 . S
C739 C742 1.370 . S
C739 H751 0.931 . S
N740 C733 1.359 . S
N740 C741 1.327 . S
N740 Tb743 2.600 . S
C741 C739 1.392 . S
C741 N740 1.327 . S
C741 H748 0.930 . S
C742 C737 1.385 . S
C742 C739 1.370 . S
C742 H761 0.930 . S
Tb743 N740 2.600 . S
Tb743 N744 2.660 . S
Tb743 O777 2.362 . S
Tb743 O778 2.421 . S
Tb743 O782 2.546 . S
Tb743 O783 2.610 . S
Tb743 O785 2.320 . S
Tb743 O786 2.552 . S
Tb743 O787 2.413 . S
Tb743 C807 2.833 . S
N744 C736 1.360 . S
N744 Tb743 2.660 . S
N744 C745 1.305 . S
C745 N744 1.305 . S
C745 C747 1.407 . S
C745 H752 0.930 . S
C746 C734 1.410 . S
C746 C747 1.345 . S
C746 H754 0.930 . S
C747 C745 1.407 . S
C747 C746 1.345 . S
C747 H749 0.930 . S
H748 C741 0.930 . S
H749 C747 0.930 . S
H750 C738 0.930 . S
H751 C739 0.931 . S
H752 C745 0.930 . S
H753 C767 0.930 . S
H754 C746 0.930 . S
H755 C773 0.930 . S
H756 C764 0.930 . S
H757 C771 0.931 . S
H758 C735 0.929 . S
H759 C765 0.930 . S
H760 C798 0.930 . S
H761 C742 0.930 . S
H762 C797 0.929 . S
N763 Tb732 2.660 . S
N763 C764 1.305 . S
N763 C768 1.360 . S
C764 H756 0.930 . S
C764 N763 1.305 . S
C764 C767 1.407 . S
C765 H759 0.930 . S
C765 C766 1.410 . S
C765 C767 1.345 . S
C766 C765 1.410 . S
C766 C768 1.417 . S
C766 C798 1.432 . S
C767 H753 0.930 . S
C767 C764 1.407 . S
C767 C765 1.345 . S
C768 N763 1.360 . S
C768 C766 1.417 . S
C768 C772 1.432 . S
H769 C774 0.930 . S
N770 Tb732 2.600 . S
N770 C772 1.359 . S
N770 C773 1.327 . S
C771 H757 0.931 . S
C771 C773 1.392 . S
C771 C774 1.370 . S
C772 C768 1.432 . S
C772 N770 1.359 . S
C772 C775 1.414 . S
C773 H755 0.930 . S
C773 N770 1.327 . S
C773 C771 1.392 . S
C774 H769 0.930 . S
C774 C771 1.370 . S
C774 C775 1.385 . S
C775 C772 1.414 . S
C775 C774 1.385 . S
C775 C797 1.444 . S
O776 Tb732 2.546 . S
O776 C796 1.251 . S
O777 Tb732 2.610 . S
O777 Tb743 2.362 . S
O777 C788 1.283 . S
O778 Tb743 2.421 . S
O778 C795 1.262 . S
O779 Tb732 2.320 . S
O779 C795 1.260 . S
O780 Tb732 2.552 . S
O780 C788 1.243 . S
O781 Tb732 2.413 . S
O781 C796 1.256 . S
O782 Tb743 2.546 . S
O782 C807 1.251 . S
O783 Tb732 2.362 . S
O783 Tb743 2.610 . S
O783 C799 1.283 . S
O784 Tb732 2.421 . S
O784 C806 1.262 . S
O785 Tb743 2.320 . S
O785 C806 1.260 . S
O786 Tb743 2.552 . S
O786 C799 1.243 . S
O787 Tb743 2.413 . S
O787 C807 1.256 . S
C788 O777 1.283 . S
C788 O780 1.243 . S
C789 C791 1.382 . S
C789 C793 1.393 . S
C789 C796 1.500 . S
C790 C791 1.400 . S
C790 C792 1.384 . S
C791 C789 1.382 . S
C791 C790 1.400 . S
C791 H808 0.930 . S
C792 C790 1.384 . S
C792 C794 1.392 . S
C792 H809 0.931 . S
C793 C789 1.393 . S
C793 C794 1.401 . S
C793 H810 0.930 . S
C794 C792 1.392 . S
C794 C793 1.401 . S
C794 H811 0.930 . S
C795 O778 1.262 . S
C795 O779 1.260 . S
C796 Tb732 2.833 . S
C796 O776 1.251 . S
C796 O781 1.256 . S
C796 C789 1.500 . S
C797 H762 0.929 . S
C797 C775 1.444 . S
C797 C798 1.317 . S
C798 H760 0.930 . S
C798 C766 1.432 . S
C798 C797 1.317 . S
C799 O783 1.283 . S
C799 O786 1.243 . S
C800 C801 1.382 . S
C800 C804 1.393 . S
C800 C807 1.500 . S
C801 C800 1.382 . S
C801 C802 1.400 . S
C801 H812 0.930 . S
C802 C801 1.400 . S
C802 C803 1.384 . S
C803 C802 1.384 . S
C803 C805 1.392 . S
C803 H813 0.931 . S
C804 C800 1.393 . S
C804 C805 1.401 . S
C804 H814 0.930 . S
C805 C803 1.392 . S
C805 C804 1.401 . S
C805 H815 0.930 . S
C806 O784 1.262 . S
C806 O785 1.260 . S
C807 Tb743 2.833 . S
C807 O782 1.251 . S
C807 O787 1.256 . S
C807 C800 1.500 . S
H808 C791 0.930 . S
H809 C792 0.931 . S
H810 C793 0.930 . S
H811 C794 0.930 . S
H812 C801 0.930 . S
H813 C803 0.931 . S
H814 C804 0.930 . S
H815 C805 0.930 . S
Tb816 N847 2.660 . S
Tb816 N854 2.600 . S
Tb816 O860 2.579 . S
Tb816 O861 2.610 . S
Tb816 O863 2.320 . S
Tb816 O864 2.552 . S
Tb816 O865 2.413 . S
Tb816 O867 2.362 . S
Tb816 O868 2.421 1_545 S
Tb816 C880 2.833 . S
C817 C820 1.432 . S
C817 C821 1.414 . S
C817 N824 1.359 . S
C818 C820 1.417 . S
C818 C822 1.432 . S
C818 C830 1.410 1_545 S
C819 C821 1.444 . S
C819 C822 1.317 . S
C819 H842 0.929 . S
C820 C817 1.432 . S
C820 C818 1.417 . S
C820 N828 1.360 . S
C821 C817 1.414 . S
C821 C819 1.444 . S
C821 C826 1.385 . S
C822 C818 1.432 . S
C822 C819 1.317 . S
C822 H834 0.930 . S
C823 C825 1.392 . S
C823 C826 1.370 . S
C823 H835 0.931 . S
N824 C817 1.359 . S
N824 C825 1.327 . S
N824 Tb827 2.600 . S
C825 C823 1.392 . S
C825 N824 1.327 . S
C825 H832 0.930 . S
C826 C821 1.385 . S
C826 C823 1.370 . S
C826 H845 0.930 . S
Tb827 N824 2.600 . S
Tb827 N828 2.660 . S
Tb827 O861 2.362 1_556 S
Tb827 O862 2.421 1_556 S
Tb827 O866 2.546 . S
Tb827 O867 2.610 1_556 S
Tb827 O869 2.320 . S
Tb827 O870 2.552 1_556 S
Tb827 O871 2.413 . S
Tb827 C891 2.833 . S
N828 C820 1.360 . S
N828 Tb827 2.660 . S
N828 C829 1.305 1_545 S
C829 N828 1.305 1_565 S
C829 C831 1.407 . S
C829 H836 0.930 . S
C830 C818 1.410 1_565 S
C830 C831 1.345 . S
C830 H838 0.930 . S
C831 C829 1.407 . S
C831 C830 1.345 . S
C831 H833 0.930 . S
H832 C825 0.930 . S
H833 C831 0.930 . S
H834 C822 0.930 . S
H835 C823 0.931 . S
H836 C829 0.930 . S
H837 C851 0.930 . S
H838 C830 0.930 . S
H839 C857 0.930 . S
H840 C848 0.930 . S
H841 C855 0.931 . S
H842 C819 0.929 . S
H843 C849 0.930 . S
H844 C882 0.930 . S
H845 C826 0.930 . S
H846 C881 0.929 . S
N847 Tb816 2.660 . S
N847 C848 1.305 . S
N847 C852 1.360 . S
C848 H840 0.930 . S
C848 N847 1.305 . S
C848 C851 1.407 . S
C849 H843 0.930 . S
C849 C850 1.410 . S
C849 C851 1.345 . S
C850 C849 1.410 . S
C850 C852 1.417 . S
C850 C882 1.432 . S
C851 H837 0.930 . S
C851 C848 1.407 . S
C851 C849 1.345 . S
C852 N847 1.360 . S
C852 C850 1.417 . S
C852 C856 1.432 . S
H853 C858 0.930 . S
N854 Tb816 2.600 . S
N854 C856 1.359 . S
N854 C857 1.327 1_545 S
C855 H841 0.931 . S
C855 C857 1.392 . S
C855 C858 1.370 . S
C856 C852 1.432 . S
C856 N854 1.359 . S
C856 C859 1.414 . S
C857 H839 0.930 . S
C857 N854 1.327 1_565 S
C857 C855 1.392 . S
C858 H853 0.930 . S
C858 C855 1.370 . S
C858 C859 1.385 1_565 S
C859 C856 1.414 . S
C859 C858 1.385 1_545 S
C859 C881 1.444 . S
O860 Tb816 2.579 . S
O860 C880 1.283 . S
O861 Tb816 2.610 . S
O861 Tb827 2.362 1_554 S
O861 C872 1.283 . S
O862 Tb827 2.421 1_554 S
O862 C879 1.262 . S
O863 Tb816 2.320 . S
O863 C879 1.260 . S
O864 Tb816 2.552 . S
O864 C872 1.243 . S
O865 Tb816 2.413 . S
O865 C880 1.256 . S
O866 Tb827 2.546 . S
O866 C891 1.251 . S
O867 Tb816 2.362 . S
O867 Tb827 2.610 1_554 S
O867 C883 1.283 . S
O868 Tb816 2.421 1_565 S
O868 C890 1.263 . S
O869 Tb827 2.320 . S
O869 C890 1.255 1_546 S
O870 Tb827 2.552 1_554 S
O870 C883 1.243 . S
O871 Tb827 2.413 . S
O871 C891 1.256 . S
C872 O861 1.283 . S
C872 O864 1.243 . S
C873 C875 1.382 . S
C873 C877 1.393 1_545 S
C873 C880 1.500 . S
C874 C875 1.400 . S
C874 C876 1.384 . S
C875 C873 1.382 . S
C875 C874 1.400 . S
C875 H892 0.930 . S
C876 C874 1.384 . S
C876 C878 1.392 1_545 S
C876 H893 0.931 1_545 S
C877 C873 1.393 1_565 S
C877 C878 1.401 . S
C877 H894 0.930 . S
C878 C876 1.392 1_565 S
C878 C877 1.401 . S
C878 H895 0.930 . S
C879 O862 1.262 . S
C879 O863 1.260 . S
C880 Tb816 2.833 . S
C880 O860 1.283 . S
C880 O865 1.256 . S
C880 C873 1.500 . S
C881 H846 0.929 . S
C881 C859 1.444 . S
C881 C882 1.317 . S
C882 H844 0.930 . S
C882 C850 1.432 . S
C882 C881 1.317 . S
C883 O867 1.283 . S
C883 O870 1.243 . S
C884 C885 1.382 . S
C884 C888 1.393 . S
C884 C891 1.500 . S
C885 C884 1.382 . S
C885 C886 1.400 . S
C885 H896 0.930 . S
C886 C885 1.400 . S
C886 C887 1.384 . S
C887 C886 1.384 . S
C887 C889 1.392 . S
C887 H897 0.931 . S
C888 C884 1.393 . S
C888 C889 1.401 . S
C888 H898 0.930 . S
C889 C887 1.392 . S
C889 C888 1.401 . S
C889 H899 0.930 . S
C890 O868 1.263 . S
C890 O869 1.255 1_564 S
C891 Tb827 2.833 . S
C891 O866 1.251 . S
C891 O871 1.256 . S
C891 C884 1.500 . S
H892 C875 0.930 . S
H893 C876 0.931 1_565 S
H894 C877 0.930 . S
H895 C878 0.930 . S
H896 C885 0.930 . S
H897 C887 0.931 . S
H898 C888 0.930 . S
H899 C889 0.930 . S
Tb900 N931 2.660 . S
Tb900 N938 2.600 . S
Tb900 O944 2.546 . S
Tb900 O945 2.610 . S
Tb900 O947 2.320 . S
Tb900 O948 2.552 . S
Tb900 O949 2.413 . S
Tb900 O951 2.362 . S
Tb900 O952 2.421 . S
Tb900 C964 2.833 . S
C901 C904 1.432 . S
C901 C905 1.414 . S
C901 N908 1.359 . S
C902 C904 1.417 . S
C902 C906 1.432 . S
C902 C914 1.410 . S
C903 C905 1.444 . S
C903 C906 1.317 . S
C903 H926 0.929 . S
C904 C901 1.432 . S
C904 C902 1.417 . S
C904 N912 1.360 . S
C905 C901 1.414 . S
C905 C903 1.444 . S
C905 C910 1.385 . S
C906 C902 1.432 . S
C906 C903 1.317 . S
C906 H918 0.930 . S
C907 C909 1.392 . S
C907 C910 1.370 . S
C907 H919 0.931 . S
N908 C901 1.359 . S
N908 C909 1.327 . S
N908 Tb911 2.600 . S
C909 C907 1.392 . S
C909 N908 1.327 . S
C909 H916 0.930 . S
C910 C905 1.385 . S
C910 C907 1.370 . S
C910 H929 0.930 . S
Tb911 N908 2.600 . S
Tb911 N912 2.660 . S
Tb911 O945 2.362 . S
Tb911 O946 2.421 . S
Tb911 O950 2.546 . S
Tb911 O951 2.610 . S
Tb911 O953 2.320 . S
Tb911 O954 2.552 . S
Tb911 O955 2.413 . S
Tb911 C975 2.833 . S
N912 C904 1.360 . S
N912 Tb911 2.660 . S
N912 C913 1.305 . S
C913 N912 1.305 . S
C913 C915 1.407 . S
C913 H920 0.930 . S
C914 C902 1.410 . S
C914 C915 1.345 . S
C914 H922 0.930 . S
C915 C913 1.407 . S
C915 C914 1.345 . S
C915 H917 0.930 . S
H916 C909 0.930 . S
H917 C915 0.930 . S
H918 C906 0.930 . S
H919 C907 0.931 . S
H920 C913 0.930 . S
H921 C935 0.930 . S
H922 C914 0.930 . S
H923 C941 0.930 . S
H924 C932 0.930 . S
H925 C939 0.931 . S
H926 C903 0.929 . S
H927 C933 0.930 . S
H928 C966 0.930 . S
H929 C910 0.930 . S
H930 C965 0.929 . S
N931 Tb900 2.660 . S
N931 C932 1.305 . S
N931 C936 1.360 . S
C932 H924 0.930 . S
C932 N931 1.305 . S
C932 C935 1.407 . S
C933 H927 0.930 . S
C933 C934 1.410 . S
C933 C935 1.345 . S
C934 C933 1.410 . S
C934 C936 1.417 . S
C934 C966 1.432 . S
C935 H921 0.930 . S
C935 C932 1.407 . S
C935 C933 1.345 . S
C936 N931 1.360 . S
C936 C934 1.417 . S
C936 C940 1.432 . S
H937 C942 0.930 . S
N938 Tb900 2.600 . S
N938 C940 1.359 . S
N938 C941 1.327 . S
C939 H925 0.931 . S
C939 C941 1.392 . S
C939 C942 1.370 . S
C940 C936 1.432 . S
C940 N938 1.359 . S
C940 C943 1.414 . S
C941 H923 0.930 . S
C941 N938 1.327 . S
C941 C939 1.392 . S
C942 H937 0.930 . S
C942 C939 1.370 . S
C942 C943 1.385 . S
C943 C940 1.414 . S
C943 C942 1.385 . S
C943 C965 1.444 . S
O944 Tb900 2.546 . S
O944 C964 1.251 . S
O945 Tb900 2.610 . S
O945 Tb911 2.362 . S
O945 C956 1.283 . S
O946 Tb911 2.421 . S
O946 C963 1.262 . S
O947 Tb900 2.320 . S
O947 C963 1.260 . S
O948 Tb900 2.552 . S
O948 C956 1.243 . S
O949 Tb900 2.413 . S
O949 C964 1.256 . S
O950 Tb911 2.546 . S
O950 C975 1.251 . S
O951 Tb900 2.362 . S
O951 Tb911 2.610 . S
O951 C967 1.283 . S
O952 Tb900 2.421 . S
O952 C974 1.262 . S
O953 Tb911 2.320 . S
O953 C974 1.260 . S
O954 Tb911 2.552 . S
O954 C967 1.243 . S
O955 Tb911 2.413 . S
O955 C975 1.256 . S
C956 O945 1.283 . S
C956 O948 1.243 . S
C957 C959 1.382 . S
C957 C961 1.393 . S
C957 C964 1.500 . S
C958 C959 1.400 . S
C958 C960 1.384 . S
C959 C957 1.382 . S
C959 C958 1.400 . S
C959 H976 0.930 . S
C960 C958 1.384 . S
C960 C962 1.392 . S
C960 H977 0.931 . S
C961 C957 1.393 . S
C961 C962 1.401 . S
C961 H978 0.930 . S
C962 C960 1.392 . S
C962 C961 1.401 . S
C962 H979 0.930 . S
C963 O946 1.262 . S
C963 O947 1.260 . S
C964 Tb900 2.833 . S
C964 O944 1.251 . S
C964 O949 1.256 . S
C964 C957 1.500 . S
C965 H930 0.929 . S
C965 C943 1.444 . S
C965 C966 1.317 . S
C966 H928 0.930 . S
C966 C934 1.432 . S
C966 C965 1.317 . S
C967 O951 1.283 . S
C967 O954 1.243 . S
C968 C969 1.382 . S
C968 C972 1.393 . S
C968 C975 1.500 . S
C969 C968 1.382 . S
C969 C970 1.400 . S
C969 H980 0.930 . S
C970 C969 1.400 . S
C970 C971 1.384 . S
C971 C970 1.384 . S
C971 C973 1.392 . S
C971 H981 0.931 . S
C972 C968 1.393 . S
C972 C973 1.401 . S
C972 H982 0.930 . S
C973 C971 1.392 . S
C973 C972 1.401 . S
C973 H983 0.930 . S
C974 O952 1.262 . S
C974 O953 1.260 . S
C975 Tb911 2.833 . S
C975 O950 1.251 . S
C975 O955 1.256 . S
C975 C968 1.500 . S
H976 C959 0.930 . S
H977 C960 0.931 . S
H978 C961 0.930 . S
H979 C962 0.930 . S
H980 C969 0.930 . S
H981 C971 0.931 . S
H982 C972 0.930 . S
H983 C973 0.930 . S
Tb984 N1015 2.660 . S
Tb984 N1022 2.600 . S
Tb984 O1028 2.546 . S
Tb984 O1029 2.587 1_554 S
Tb984 O1031 2.320 . S
Tb984 O1032 2.552 1_554 S
Tb984 O1033 2.413 . S
Tb984 O1035 2.362 . S
Tb984 O1036 2.421 . S
Tb984 C1048 2.833 . S
C985 C988 1.432 . S
C985 C989 1.414 . S
C985 N992 1.359 . S
C986 C988 1.417 . S
C986 C990 1.432 . S
C986 C998 1.410 . S
C987 C989 1.444 . S
C987 C990 1.317 . S
C987 H1010 0.929 . S
C988 C985 1.432 . S
C988 C986 1.417 . S
C988 N996 1.360 . S
C989 C985 1.414 . S
C989 C987 1.444 . S
C989 C994 1.385 . S
C990 C986 1.432 . S
C990 C987 1.317 . S
C990 H1002 0.930 . S
C991 C993 1.392 . S
C991 C994 1.370 . S
C991 H1003 0.931 . S
N992 C985 1.359 . S
N992 C993 1.327 . S
N992 Tb995 2.600 1_556 S
C993 C991 1.392 . S
C993 N992 1.327 . S
C993 H1000 0.930 . S
C994 C989 1.385 . S
C994 C991 1.370 . S
C994 H1013 0.930 . S
Tb995 N992 2.600 1_554 S
Tb995 N996 2.660 1_554 S
Tb995 O1029 2.345 1_554 S
Tb995 O1030 2.421 . S
Tb995 O1034 2.546 . S
Tb995 O1035 2.610 . S
Tb995 O1037 2.320 . S
Tb995 O1038 2.552 . S
Tb995 O1039 2.413 . S
Tb995 C1059 2.833 . S
N996 C988 1.360 . S
N996 Tb995 2.660 1_556 S
N996 C997 1.305 . S
C997 N996 1.305 . S
C997 C999 1.407 . S
C997 H1004 0.930 . S
C998 C986 1.410 . S
C998 C999 1.345 . S
C998 H1006 0.930 . S
C999 C997 1.407 . S
C999 C998 1.345 . S
C999 H1001 0.930 . S
H1000 C993 0.930 . S
H1001 C999 0.930 . S
H1002 C990 0.930 . S
H1003 C991 0.931 . S
H1004 C997 0.930 . S
H1005 C1019 0.930 . S
H1006 C998 0.930 . S
H1007 C1025 0.930 . S
H1008 C1016 0.930 . S
H1009 C1023 0.931 . S
H1010 C987 0.929 . S
H1011 C1017 0.930 . S
H1012 C1050 0.930 . S
H1013 C994 0.930 . S
H1014 C1049 0.929 . S
N1015 Tb984 2.660 . S
N1015 C1016 1.305 . S
N1015 C1020 1.360 . S
C1016 H1008 0.930 . S
C1016 N1015 1.305 . S
C1016 C1019 1.407 . S
C1017 H1011 0.930 . S
C1017 C1018 1.410 . S
C1017 C1019 1.345 . S
C1018 C1017 1.410 . S
C1018 C1020 1.417 . S
C1018 C1050 1.432 . S
C1019 H1005 0.930 . S
C1019 C1016 1.407 . S
C1019 C1017 1.345 . S
C1020 N1015 1.360 . S
C1020 C1018 1.417 . S
C1020 C1024 1.432 . S
H1021 C1026 0.930 . S
N1022 Tb984 2.600 . S
N1022 C1024 1.359 . S
N1022 C1025 1.327 . S
C1023 H1009 0.931 . S
C1023 C1025 1.392 . S
C1023 C1026 1.370 . S
C1024 C1020 1.432 . S
C1024 N1022 1.359 . S
C1024 C1027 1.414 . S
C1025 H1007 0.930 . S
C1025 N1022 1.327 . S
C1025 C1023 1.392 . S
C1026 H1021 0.930 . S
C1026 C1023 1.370 . S
C1026 C1027 1.385 . S
C1027 C1024 1.414 . S
C1027 C1026 1.385 . S
C1027 C1049 1.444 . S
O1028 Tb984 2.546 . S
O1028 C1048 1.251 . S
O1029 Tb984 2.587 1_556 S
O1029 Tb995 2.345 1_556 S
O1029 C1040 1.308 . S
O1030 Tb995 2.421 . S
O1030 C1047 1.262 . S
O1031 Tb984 2.320 . S
O1031 C1047 1.260 . S
O1032 Tb984 2.552 1_556 S
O1032 C1040 1.243 . S
O1033 Tb984 2.413 . S
O1033 C1048 1.256 . S
O1034 Tb995 2.546 . S
O1034 C1059 1.251 . S
O1035 Tb984 2.362 . S
O1035 Tb995 2.610 . S
O1035 C1051 1.283 . S
O1036 Tb984 2.421 . S
O1036 C1058 1.262 . S
O1037 Tb995 2.320 . S
O1037 C1058 1.260 . S
O1038 Tb995 2.552 . S
O1038 C1051 1.243 . S
O1039 Tb995 2.413 . S
O1039 C1059 1.256 . S
C1040 O1029 1.308 . S
C1040 O1032 1.243 . S
C1041 C1043 1.382 . S
C1041 C1045 1.393 . S
C1041 C1048 1.500 . S
C1042 C1043 1.400 . S
C1042 C1044 1.384 . S
C1043 C1041 1.382 . S
C1043 C1042 1.400 . S
C1043 H1060 0.930 . S
C1044 C1042 1.384 . S
C1044 C1046 1.392 . S
C1044 H1061 0.931 . S
C1045 C1041 1.393 . S
C1045 C1046 1.401 . S
C1045 H1062 0.930 . S
C1046 C1044 1.392 . S
C1046 C1045 1.401 . S
C1046 H1063 0.930 . S
C1047 O1030 1.262 . S
C1047 O1031 1.260 . S
C1048 Tb984 2.833 . S
C1048 O1028 1.251 . S
C1048 O1033 1.256 . S
C1048 C1041 1.500 . S
C1049 H1014 0.929 . S
C1049 C1027 1.444 . S
C1049 C1050 1.317 . S
C1050 H1012 0.930 . S
C1050 C1018 1.432 . S
C1050 C1049 1.317 . S
C1051 O1035 1.283 . S
C1051 O1038 1.243 . S
C1052 C1053 1.382 . S
C1052 C1056 1.393 . S
C1052 C1059 1.500 . S
C1053 C1052 1.382 . S
C1053 C1054 1.400 . S
C1053 H1064 0.930 . S
C1054 C1053 1.400 . S
C1054 C1055 1.384 . S
C1055 C1054 1.384 . S
C1055 C1057 1.392 . S
C1055 H1065 0.931 . S
C1056 C1052 1.393 . S
C1056 C1057 1.401 . S
C1056 H1066 0.930 . S
C1057 C1055 1.392 . S
C1057 C1056 1.401 . S
C1057 H1067 0.930 . S
C1058 O1036 1.262 . S
C1058 O1037 1.260 . S
C1059 Tb995 2.833 . S
C1059 O1034 1.251 . S
C1059 O1039 1.256 . S
C1059 C1052 1.500 . S
H1060 C1043 0.930 . S
H1061 C1044 0.931 . S
H1062 C1045 0.930 . S
H1063 C1046 0.930 . S
H1064 C1053 0.930 . S
H1065 C1055 0.931 . S
H1066 C1056 0.930 . S
H1067 C1057 0.930 . S
Tb1068 N1099 2.660 . S
Tb1068 N1106 2.600 . S
Tb1068 O1112 2.546 . S
Tb1068 O1113 2.610 . S
Tb1068 O1115 2.320 . S
Tb1068 O1116 2.552 . S
Tb1068 O1117 2.413 . S
Tb1068 O1119 2.362 . S
Tb1068 O1120 2.421 . S
Tb1068 C1132 2.833 . S
C1069 C1072 1.432 . S
C1069 C1073 1.414 . S
C1069 N1076 1.359 . S
C1070 C1072 1.417 . S
C1070 C1074 1.432 . S
C1070 C1082 1.410 . S
C1071 C1073 1.444 . S
C1071 C1074 1.317 . S
C1071 H1094 0.929 . S
C1072 C1069 1.432 . S
C1072 C1070 1.417 . S
C1072 N1080 1.360 . S
C1073 C1069 1.414 . S
C1073 C1071 1.444 . S
C1073 C1078 1.385 . S
C1074 C1070 1.432 . S
C1074 C1071 1.317 . S
C1074 H1086 0.930 . S
C1075 C1077 1.392 . S
C1075 C1078 1.370 . S
C1075 H1087 0.931 . S
N1076 C1069 1.359 . S
N1076 C1077 1.327 . S
N1076 Tb1079 2.600 . S
C1077 C1075 1.392 . S
C1077 N1076 1.327 . S
C1077 H1084 0.930 . S
C1078 C1073 1.385 . S
C1078 C1075 1.370 . S
C1078 H1097 0.930 . S
Tb1079 N1076 2.600 . S
Tb1079 N1080 2.660 . S
Tb1079 O1113 2.362 . S
Tb1079 O1114 2.421 . S
Tb1079 O1118 2.546 . S
Tb1079 O1119 2.610 . S
Tb1079 O1121 2.320 . S
Tb1079 O1122 2.552 . S
Tb1079 O1123 2.413 . S
Tb1079 C1143 2.833 . S
N1080 C1072 1.360 . S
N1080 Tb1079 2.660 . S
N1080 C1081 1.305 . S
C1081 N1080 1.305 . S
C1081 C1083 1.407 . S
C1081 H1088 0.930 . S
C1082 C1070 1.410 . S
C1082 C1083 1.345 . S
C1082 H1090 0.930 . S
C1083 C1081 1.407 . S
C1083 C1082 1.345 . S
C1083 H1085 0.930 . S
H1084 C1077 0.930 . S
H1085 C1083 0.930 . S
H1086 C1074 0.930 . S
H1087 C1075 0.931 . S
H1088 C1081 0.930 . S
H1089 C1103 0.930 . S
H1090 C1082 0.930 . S
H1091 C1109 0.930 . S
H1092 C1100 0.930 . S
H1093 C1107 0.931 . S
H1094 C1071 0.929 . S
H1095 C1101 0.930 . S
H1096 C1134 0.930 . S
H1097 C1078 0.930 . S
H1098 C1133 0.929 . S
N1099 Tb1068 2.660 . S
N1099 C1100 1.305 . S
N1099 C1104 1.360 . S
C1100 H1092 0.930 . S
C1100 N1099 1.305 . S
C1100 C1103 1.407 . S
C1101 H1095 0.930 . S
C1101 C1102 1.410 . S
C1101 C1103 1.345 . S
C1102 C1101 1.410 . S
C1102 C1104 1.417 . S
C1102 C1134 1.432 . S
C1103 H1089 0.930 . S
C1103 C1100 1.407 . S
C1103 C1101 1.345 . S
C1104 N1099 1.360 . S
C1104 C1102 1.417 . S
C1104 C1108 1.432 . S
H1105 C1110 0.930 . S
N1106 Tb1068 2.600 . S
N1106 C1108 1.359 . S
N1106 C1109 1.327 . S
C1107 H1093 0.931 . S
C1107 C1109 1.392 . S
C1107 C1110 1.370 . S
C1108 C1104 1.432 . S
C1108 N1106 1.359 . S
C1108 C1111 1.414 . S
C1109 H1091 0.930 . S
C1109 N1106 1.327 . S
C1109 C1107 1.392 . S
C1110 H1105 0.930 . S
C1110 C1107 1.370 . S
C1110 C1111 1.385 . S
C1111 C1108 1.414 . S
C1111 C1110 1.385 . S
C1111 C1133 1.444 . S
O1112 Tb1068 2.546 . S
O1112 C1132 1.251 . S
O1113 Tb1068 2.610 . S
O1113 Tb1079 2.362 . S
O1113 C1124 1.283 . S
O1114 Tb1079 2.421 . S
O1114 C1131 1.262 . S
O1115 Tb1068 2.320 . S
O1115 C1131 1.260 . S
O1116 Tb1068 2.552 . S
O1116 C1124 1.243 . S
O1117 Tb1068 2.413 . S
O1117 C1132 1.256 . S
O1118 Tb1079 2.546 . S
O1118 C1143 1.251 . S
O1119 Tb1068 2.362 . S
O1119 Tb1079 2.610 . S
O1119 C1135 1.283 . S
O1120 Tb1068 2.421 . S
O1120 C1142 1.262 . S
O1121 Tb1079 2.320 . S
O1121 C1142 1.260 . S
O1122 Tb1079 2.552 . S
O1122 C1135 1.243 . S
O1123 Tb1079 2.413 . S
O1123 C1143 1.256 . S
C1124 O1113 1.283 . S
C1124 O1116 1.243 . S
C1125 C1127 1.382 . S
C1125 C1129 1.393 . S
C1125 C1132 1.500 . S
C1126 C1127 1.400 . S
C1126 C1128 1.384 . S
C1127 C1125 1.382 . S
C1127 C1126 1.400 . S
C1127 H1144 0.930 . S
C1128 C1126 1.384 . S
C1128 C1130 1.392 . S
C1128 H1145 0.931 . S
C1129 C1125 1.393 . S
C1129 C1130 1.401 . S
C1129 H1146 0.930 . S
C1130 C1128 1.392 . S
C1130 C1129 1.401 . S
C1130 H1147 0.930 . S
C1131 O1114 1.262 . S
C1131 O1115 1.260 . S
C1132 Tb1068 2.833 . S
C1132 O1112 1.251 . S
C1132 O1117 1.256 . S
C1132 C1125 1.500 . S
C1133 H1098 0.929 . S
C1133 C1111 1.444 . S
C1133 C1134 1.317 . S
C1134 H1096 0.930 . S
C1134 C1102 1.432 . S
C1134 C1133 1.317 . S
C1135 O1119 1.283 . S
C1135 O1122 1.243 . S
C1136 C1137 1.382 . S
C1136 C1140 1.393 . S
C1136 C1143 1.500 . S
C1137 C1136 1.382 . S
C1137 C1138 1.400 . S
C1137 H1148 0.930 . S
C1138 C1137 1.400 . S
C1138 C1139 1.384 . S
C1139 C1138 1.384 . S
C1139 C1141 1.392 . S
C1139 H1149 0.931 . S
C1140 C1136 1.393 . S
C1140 C1141 1.401 . S
C1140 H1150 0.930 . S
C1141 C1139 1.392 . S
C1141 C1140 1.401 . S
C1141 H1151 0.930 . S
C1142 O1120 1.262 . S
C1142 O1121 1.260 . S
C1143 Tb1079 2.833 . S
C1143 O1118 1.251 . S
C1143 O1123 1.256 . S
C1143 C1136 1.500 . S
H1144 C1127 0.930 . S
H1145 C1128 0.931 . S
H1146 C1129 0.930 . S
H1147 C1130 0.930 . S
H1148 C1137 0.930 . S
H1149 C1139 0.931 . S
H1150 C1140 0.930 . S
H1151 C1141 0.930 . S
Tb1152 N1183 2.660 . S
Tb1152 N1190 2.600 . S
Tb1152 O1196 2.546 . S
Tb1152 O1197 2.610 . S
Tb1152 O1199 2.320 . S
Tb1152 O1200 2.552 . S
Tb1152 O1201 2.413 . S
Tb1152 O1203 2.362 . S
Tb1152 O1204 2.421 . S
Tb1152 C1216 2.833 . S
C1153 C1156 1.432 . S
C1153 C1157 1.414 1_455 S
C1153 N1160 1.359 . S
C1154 C1156 1.417 1_655 S
C1154 C1158 1.432 . S
C1154 C1166 1.410 . S
C1155 C1157 1.444 . S
C1155 C1158 1.317 . S
C1155 H1178 0.929 . S
C1156 C1153 1.432 . S
C1156 C1154 1.417 1_455 S
C1156 N1164 1.360 . S
C1157 C1153 1.414 1_655 S
C1157 C1155 1.444 . S
C1157 C1162 1.382 . S
C1158 C1154 1.432 . S
C1158 C1155 1.317 . S
C1158 H1170 0.930 . S
C1159 C1161 1.392 . S
C1159 C1162 1.334 1_455 S
C1159 H1171 0.931 . S
N1160 C1153 1.359 . S
N1160 C1161 1.327 . S
N1160 Tb1163 2.600 . S
C1161 C1159 1.392 . S
C1161 N1160 1.327 . S
C1161 H1168 0.930 . S
C1162 C1157 1.382 . S
C1162 C1159 1.334 1_655 S
C1162 H1181 0.970 . S
Tb1163 N1160 2.600 . S
Tb1163 N1164 2.660 . S
Tb1163 O1197 2.362 . S
Tb1163 O1198 2.421 . S
Tb1163 O1202 2.546 . S
Tb1163 O1203 2.610 . S
Tb1163 O1205 2.320 . S
Tb1163 O1206 2.552 . S
Tb1163 O1207 2.413 . S
Tb1163 C1227 2.833 . S
N1164 C1156 1.360 . S
N1164 Tb1163 2.660 . S
N1164 C1165 1.305 . S
C1165 N1164 1.305 . S
C1165 C1167 1.407 . S
C1165 H1172 0.930 . S
C1166 C1154 1.410 . S
C1166 C1167 1.345 1_655 S
C1166 H1174 0.930 . S
C1167 C1165 1.407 . S
C1167 C1166 1.345 1_455 S
C1167 H1169 0.924 . S
H1168 C1161 0.930 . S
H1169 C1167 0.924 . S
H1170 C1158 0.930 . S
H1171 C1159 0.931 . S
H1172 C1165 0.930 . S
H1173 C1187 0.930 . S
H1174 C1166 0.930 . S
H1175 C1193 0.930 . S
H1176 C1184 0.930 . S
H1177 C1191 0.931 . S
H1178 C1155 0.929 . S
H1179 C1185 0.930 . S
H1180 C1218 0.930 . S
H1181 C1162 0.970 . S
H1182 C1217 0.929 . S
N1183 Tb1152 2.660 . S
N1183 C1184 1.305 . S
N1183 C1188 1.360 . S
C1184 H1176 0.930 . S
C1184 N1183 1.305 . S
C1184 C1187 1.407 . S
C1185 H1179 0.930 . S
C1185 C1186 1.410 . S
C1185 C1187 1.345 . S
C1186 C1185 1.410 . S
C1186 C1188 1.417 . S
C1186 C1218 1.432 . S
C1187 H1173 0.930 . S
C1187 C1184 1.407 . S
C1187 C1185 1.345 . S
C1188 N1183 1.360 . S
C1188 C1186 1.417 . S
C1188 C1192 1.432 . S
H1189 C1194 0.930 . S
N1190 Tb1152 2.600 . S
N1190 C1192 1.359 . S
N1190 C1193 1.327 . S
C1191 H1177 0.931 . S
C1191 C1193 1.392 . S
C1191 C1194 1.370 . S
C1192 C1188 1.432 . S
C1192 N1190 1.359 . S
C1192 C1195 1.414 . S
C1193 H1175 0.930 . S
C1193 N1190 1.327 . S
C1193 C1191 1.392 . S
C1194 H1189 0.930 . S
C1194 C1191 1.370 . S
C1194 C1195 1.385 . S
C1195 C1192 1.414 . S
C1195 C1194 1.385 . S
C1195 C1217 1.444 . S
O1196 Tb1152 2.546 . S
O1196 C1216 1.251 . S
O1197 Tb1152 2.610 . S
O1197 Tb1163 2.362 . S
O1197 C1208 1.283 . S
O1198 Tb1163 2.421 . S
O1198 C1215 1.262 . S
O1199 Tb1152 2.320 . S
O1199 C1215 1.260 . S
O1200 Tb1152 2.552 . S
O1200 C1208 1.243 . S
O1201 Tb1152 2.413 . S
O1201 C1216 1.256 . S
O1202 Tb1163 2.546 . S
O1202 C1227 1.251 . S
O1203 Tb1152 2.362 . S
O1203 Tb1163 2.610 . S
O1203 C1219 1.283 . S
O1204 Tb1152 2.421 . S
O1204 C1226 1.262 . S
O1205 Tb1163 2.320 . S
O1205 C1226 1.260 . S
O1206 Tb1163 2.552 . S
O1206 C1219 1.243 . S
O1207 Tb1163 2.413 . S
O1207 C1227 1.256 . S
C1208 O1197 1.283 . S
C1208 O1200 1.243 . S
C1209 C1211 1.382 . S
C1209 C1213 1.393 . S
C1209 C1216 1.500 . S
C1210 C1211 1.400 . S
C1210 C1212 1.384 . S
C1211 C1209 1.382 . S
C1211 C1210 1.400 . S
C1211 H1228 0.930 . S
C1212 C1210 1.384 . S
C1212 C1214 1.392 . S
C1212 H1229 0.931 . S
C1213 C1209 1.393 . S
C1213 C1214 1.401 . S
C1213 H1230 0.930 . S
C1214 C1212 1.392 . S
C1214 C1213 1.401 . S
C1214 H1231 0.930 . S
C1215 O1198 1.262 . S
C1215 O1199 1.260 . S
C1216 Tb1152 2.833 . S
C1216 O1196 1.251 . S
C1216 O1201 1.256 . S
C1216 C1209 1.500 . S
C1217 H1182 0.929 . S
C1217 C1195 1.444 . S
C1217 C1218 1.317 . S
C1218 H1180 0.930 . S
C1218 C1186 1.432 . S
C1218 C1217 1.317 . S
C1219 O1203 1.283 . S
C1219 O1206 1.243 . S
C1220 C1221 1.382 . S
C1220 C1224 1.393 . S
C1220 C1227 1.500 . S
C1221 C1220 1.382 . S
C1221 C1222 1.400 . S
C1221 H1232 0.930 . S
C1222 C1221 1.400 . S
C1222 C1223 1.384 . S
C1223 C1222 1.384 . S
C1223 C1225 1.392 . S
C1223 H1233 0.931 . S
C1224 C1220 1.393 . S
C1224 C1225 1.401 . S
C1224 H1234 0.930 . S
C1225 C1223 1.392 . S
C1225 C1224 1.401 . S
C1225 H1235 0.930 . S
C1226 O1204 1.262 . S
C1226 O1205 1.260 . S
C1227 Tb1163 2.833 . S
C1227 O1202 1.251 . S
C1227 O1207 1.256 . S
C1227 C1220 1.500 . S
H1228 C1211 0.930 . S
H1229 C1212 0.931 . S
H1230 C1213 0.930 . S
H1231 C1214 0.930 . S
H1232 C1221 0.930 . S
H1233 C1223 0.931 . S
H1234 C1224 0.930 . S
H1235 C1225 0.930 . S
Tb1236 N1267 2.660 . S
Tb1236 N1274 2.600 . S
Tb1236 O1280 2.546 . S
Tb1236 O1281 2.610 . S
Tb1236 O1283 2.320 . S
Tb1236 O1284 2.552 . S
Tb1236 O1285 2.413 . S
Tb1236 O1287 2.362 . S
Tb1236 O1288 2.421 . S
Tb1236 C1300 2.833 . S
C1237 C1240 1.432 . S
C1237 C1241 1.414 . S
C1237 N1244 1.359 . S
C1238 C1240 1.417 . S
C1238 C1242 1.432 . S
C1238 C1250 1.410 . S
C1239 C1241 1.444 . S
C1239 C1242 1.317 . S
C1239 H1262 0.929 . S
C1240 C1237 1.432 . S
C1240 C1238 1.417 . S
C1240 N1248 1.360 . S
C1241 C1237 1.414 . S
C1241 C1239 1.444 . S
C1241 C1246 1.385 . S
C1242 C1238 1.432 . S
C1242 C1239 1.317 . S
C1242 H1254 0.930 . S
C1243 C1245 1.392 . S
C1243 C1246 1.370 . S
C1243 H1255 0.931 . S
N1244 C1237 1.359 . S
N1244 C1245 1.327 . S
N1244 Tb1247 2.600 . S
C1245 C1243 1.392 . S
C1245 N1244 1.327 . S
C1245 H1252 0.930 . S
C1246 C1241 1.385 . S
C1246 C1243 1.370 . S
C1246 H1265 0.930 . S
Tb1247 N1244 2.600 . S
Tb1247 N1248 2.660 . S
Tb1247 O1281 2.362 . S
Tb1247 O1282 2.421 . S
Tb1247 O1286 2.546 . S
Tb1247 O1287 2.610 . S
Tb1247 O1289 2.320 . S
Tb1247 O1290 2.552 . S
Tb1247 O1291 2.413 . S
Tb1247 C1311 2.833 . S
N1248 C1240 1.360 . S
N1248 Tb1247 2.660 . S
N1248 C1249 1.305 . S
C1249 N1248 1.305 . S
C1249 C1251 1.407 . S
C1249 H1256 0.930 . S
C1250 C1238 1.410 . S
C1250 C1251 1.345 . S
C1250 H1258 0.930 . S
C1251 C1249 1.407 . S
C1251 C1250 1.345 . S
C1251 H1253 0.930 . S
H1252 C1245 0.930 . S
H1253 C1251 0.930 . S
H1254 C1242 0.930 . S
H1255 C1243 0.931 . S
H1256 C1249 0.930 . S
H1257 C1271 0.930 . S
H1258 C1250 0.930 . S
H1259 C1277 0.930 . S
H1260 C1268 0.930 . S
H1261 C1275 0.931 . S
H1262 C1239 0.929 . S
H1263 C1269 0.930 . S
H1264 C1302 0.930 . S
H1265 C1246 0.930 . S
H1266 C1301 0.929 . S
N1267 Tb1236 2.660 . S
N1267 C1268 1.305 . S
N1267 C1272 1.360 . S
C1268 H1260 0.930 . S
C1268 N1267 1.305 . S
C1268 C1271 1.407 . S
C1269 H1263 0.930 . S
C1269 C1270 1.410 . S
C1269 C1271 1.345 . S
C1270 C1269 1.410 . S
C1270 C1272 1.417 . S
C1270 C1302 1.432 . S
C1271 H1257 0.930 . S
C1271 C1268 1.407 . S
C1271 C1269 1.345 . S
C1272 N1267 1.360 . S
C1272 C1270 1.417 . S
C1272 C1276 1.432 . S
H1273 C1278 0.930 . S
N1274 Tb1236 2.600 . S
N1274 C1276 1.359 . S
N1274 C1277 1.327 . S
C1275 H1261 0.931 . S
C1275 C1277 1.392 . S
C1275 C1278 1.370 . S
C1276 C1272 1.432 . S
C1276 N1274 1.359 . S
C1276 C1279 1.414 . S
C1277 H1259 0.930 . S
C1277 N1274 1.327 . S
C1277 C1275 1.392 . S
C1278 H1273 0.930 . S
C1278 C1275 1.370 . S
C1278 C1279 1.385 . S
C1279 C1276 1.414 . S
C1279 C1278 1.385 . S
C1279 C1301 1.444 . S
O1280 Tb1236 2.546 . S
O1280 C1300 1.251 . S
O1281 Tb1236 2.610 . S
O1281 Tb1247 2.362 . S
O1281 C1292 1.283 . S
O1282 Tb1247 2.421 . S
O1282 C1299 1.262 . S
O1283 Tb1236 2.320 . S
O1283 C1299 1.260 . S
O1284 Tb1236 2.552 . S
O1284 C1292 1.243 . S
O1285 Tb1236 2.413 . S
O1285 C1300 1.256 . S
O1286 Tb1247 2.546 . S
O1286 C1311 1.251 . S
O1287 Tb1236 2.362 . S
O1287 Tb1247 2.610 . S
O1287 C1303 1.283 . S
O1288 Tb1236 2.421 . S
O1288 C1310 1.262 . S
O1289 Tb1247 2.320 . S
O1289 C1310 1.260 . S
O1290 Tb1247 2.552 . S
O1290 C1303 1.243 . S
O1291 Tb1247 2.413 . S
O1291 C1311 1.256 . S
C1292 O1281 1.283 . S
C1292 O1284 1.243 . S
C1293 C1295 1.382 . S
C1293 C1297 1.393 . S
C1293 C1300 1.500 . S
C1294 C1295 1.400 . S
C1294 C1296 1.384 . S
C1295 C1293 1.382 . S
C1295 C1294 1.400 . S
C1295 H1312 0.930 . S
C1296 C1294 1.384 . S
C1296 C1298 1.392 . S
C1296 H1313 0.931 . S
C1297 C1293 1.393 . S
C1297 C1298 1.401 . S
C1297 H1314 0.930 . S
C1298 C1296 1.392 . S
C1298 C1297 1.401 . S
C1298 H1315 0.930 . S
C1299 O1282 1.262 . S
C1299 O1283 1.260 . S
C1300 Tb1236 2.833 . S
C1300 O1280 1.251 . S
C1300 O1285 1.256 . S
C1300 C1293 1.500 . S
C1301 H1266 0.929 . S
C1301 C1279 1.444 . S
C1301 C1302 1.317 . S
C1302 H1264 0.930 . S
C1302 C1270 1.432 . S
C1302 C1301 1.317 . S
C1303 O1287 1.283 . S
C1303 O1290 1.243 . S
C1304 C1305 1.382 . S
C1304 C1308 1.393 . S
C1304 C1311 1.500 . S
C1305 C1304 1.382 . S
C1305 C1306 1.400 . S
C1305 H1316 0.930 . S
C1306 C1305 1.400 . S
C1306 C1307 1.384 . S
C1307 C1306 1.384 . S
C1307 C1309 1.392 . S
C1307 H1317 0.931 . S
C1308 C1304 1.393 . S
C1308 C1309 1.401 . S
C1308 H1318 0.930 . S
C1309 C1307 1.392 . S
C1309 C1308 1.401 . S
C1309 H1319 0.930 . S
C1310 O1288 1.262 . S
C1310 O1289 1.260 . S
C1311 Tb1247 2.833 . S
C1311 O1286 1.251 . S
C1311 O1291 1.256 . S
C1311 C1304 1.500 . S
H1312 C1295 0.930 . S
H1313 C1296 0.931 . S
H1314 C1297 0.930 . S
H1315 C1298 0.930 . S
H1316 C1305 0.930 . S
H1317 C1307 0.931 . S
H1318 C1308 0.930 . S
H1319 C1309 0.930 . S
Tb1320 N1351 2.660 . S
Tb1320 N1358 2.600 . S
Tb1320 O1364 2.546 . S
Tb1320 O1365 2.610 . S
Tb1320 O1367 2.320 . S
Tb1320 O1368 2.552 . S
Tb1320 O1369 2.413 . S
Tb1320 O1371 2.362 . S
Tb1320 O1372 2.421 . S
Tb1320 C1384 2.833 . S
C1321 C1324 1.432 . S
C1321 C1325 1.414 . S
C1321 N1328 1.359 . S
C1322 C1324 1.417 . S
C1322 C1326 1.432 . S
C1322 C1334 1.410 . S
C1323 C1325 1.444 . S
C1323 C1326 1.317 . S
C1323 H1346 0.929 . S
C1324 C1321 1.432 . S
C1324 C1322 1.417 . S
C1324 N1332 1.360 . S
C1325 C1321 1.414 . S
C1325 C1323 1.444 . S
C1325 C1330 1.385 . S
C1326 C1322 1.432 . S
C1326 C1323 1.317 . S
C1326 H1338 0.930 . S
C1327 C1329 1.392 . S
C1327 C1330 1.370 . S
C1327 H1339 0.931 . S
N1328 C1321 1.359 . S
N1328 C1329 1.327 . S
N1328 Tb1331 2.600 . S
C1329 C1327 1.392 . S
C1329 N1328 1.327 . S
C1329 H1336 0.930 . S
C1330 C1325 1.385 . S
C1330 C1327 1.370 . S
C1330 H1349 0.930 . S
Tb1331 N1328 2.600 . S
Tb1331 N1332 2.660 . S
Tb1331 O1365 2.362 . S
Tb1331 O1366 2.421 . S
Tb1331 O1370 2.546 . S
Tb1331 O1371 2.610 . S
Tb1331 O1373 2.320 . S
Tb1331 O1374 2.552 . S
Tb1331 O1375 2.413 . S
Tb1331 C1395 2.833 . S
N1332 C1324 1.360 . S
N1332 Tb1331 2.660 . S
N1332 C1333 1.305 . S
C1333 N1332 1.305 . S
C1333 C1335 1.407 . S
C1333 H1340 0.930 . S
C1334 C1322 1.410 . S
C1334 C1335 1.345 . S
C1334 H1342 0.930 . S
C1335 C1333 1.407 . S
C1335 C1334 1.345 . S
C1335 H1337 0.930 . S
H1336 C1329 0.930 . S
H1337 C1335 0.930 . S
H1338 C1326 0.930 . S
H1339 C1327 0.931 . S
H1340 C1333 0.930 . S
H1341 C1355 0.930 . S
H1342 C1334 0.930 . S
H1343 C1361 0.930 . S
H1344 C1352 0.930 . S
H1345 C1359 0.931 . S
H1346 C1323 0.929 . S
H1347 C1353 0.930 . S
H1348 C1386 0.930 . S
H1349 C1330 0.930 . S
H1350 C1385 0.929 . S
N1351 Tb1320 2.660 . S
N1351 C1352 1.305 . S
N1351 C1356 1.360 . S
C1352 H1344 0.930 . S
C1352 N1351 1.305 . S
C1352 C1355 1.407 . S
C1353 H1347 0.930 . S
C1353 C1354 1.410 . S
C1353 C1355 1.345 . S
C1354 C1353 1.410 . S
C1354 C1356 1.417 . S
C1354 C1386 1.432 . S
C1355 H1341 0.930 . S
C1355 C1352 1.407 . S
C1355 C1353 1.345 . S
C1356 N1351 1.360 . S
C1356 C1354 1.417 . S
C1356 C1360 1.432 . S
H1357 C1362 0.930 . S
N1358 Tb1320 2.600 . S
N1358 C1360 1.359 . S
N1358 C1361 1.327 . S
C1359 H1345 0.931 . S
C1359 C1361 1.392 . S
C1359 C1362 1.370 . S
C1360 C1356 1.432 . S
C1360 N1358 1.359 . S
C1360 C1363 1.414 . S
C1361 H1343 0.930 . S
C1361 N1358 1.327 . S
C1361 C1359 1.392 . S
C1362 H1357 0.930 . S
C1362 C1359 1.370 . S
C1362 C1363 1.385 . S
C1363 C1360 1.414 . S
C1363 C1362 1.385 . S
C1363 C1385 1.444 . S
O1364 Tb1320 2.546 . S
O1364 C1384 1.251 . S
O1365 Tb1320 2.610 . S
O1365 Tb1331 2.362 . S
O1365 C1376 1.283 . S
O1366 Tb1331 2.421 . S
O1366 C1383 1.262 . S
O1367 Tb1320 2.320 . S
O1367 C1383 1.260 . S
O1368 Tb1320 2.552 . S
O1368 C1376 1.243 . S
O1369 Tb1320 2.413 . S
O1369 C1384 1.256 . S
O1370 Tb1331 2.546 . S
O1370 C1395 1.251 . S
O1371 Tb1320 2.362 . S
O1371 Tb1331 2.610 . S
O1371 C1387 1.283 . S
O1372 Tb1320 2.421 . S
O1372 C1394 1.262 . S
O1373 Tb1331 2.320 . S
O1373 C1394 1.260 . S
O1374 Tb1331 2.552 . S
O1374 C1387 1.243 . S
O1375 Tb1331 2.413 . S
O1375 C1395 1.256 . S
C1376 O1365 1.283 . S
C1376 O1368 1.243 . S
C1377 C1379 1.382 . S
C1377 C1381 1.393 . S
C1377 C1384 1.500 . S
C1378 C1379 1.400 . S
C1378 C1380 1.384 . S
C1379 C1377 1.382 . S
C1379 C1378 1.400 . S
C1379 H1396 0.930 . S
C1380 C1378 1.384 . S
C1380 C1382 1.392 . S
C1380 H1397 0.931 . S
C1381 C1377 1.393 . S
C1381 C1382 1.401 . S
C1381 H1398 0.930 . S
C1382 C1380 1.392 . S
C1382 C1381 1.401 . S
C1382 H1399 0.930 . S
C1383 O1366 1.262 . S
C1383 O1367 1.260 . S
C1384 Tb1320 2.833 . S
C1384 O1364 1.251 . S
C1384 O1369 1.256 . S
C1384 C1377 1.500 . S
C1385 H1350 0.929 . S
C1385 C1363 1.444 . S
C1385 C1386 1.317 . S
C1386 H1348 0.930 . S
C1386 C1354 1.432 . S
C1386 C1385 1.317 . S
C1387 O1371 1.283 . S
C1387 O1374 1.243 . S
C1388 C1389 1.382 . S
C1388 C1392 1.393 . S
C1388 C1395 1.500 . S
C1389 C1388 1.382 . S
C1389 C1390 1.400 . S
C1389 H1400 0.930 . S
C1390 C1389 1.400 . S
C1390 C1391 1.384 . S
C1391 C1390 1.384 . S
C1391 C1393 1.392 . S
C1391 H1401 0.931 . S
C1392 C1388 1.393 . S
C1392 C1393 1.401 . S
C1392 H1402 0.930 . S
C1393 C1391 1.392 . S
C1393 C1392 1.401 . S
C1393 H1403 0.930 . S
C1394 O1372 1.262 . S
C1394 O1373 1.260 . S
C1395 Tb1331 2.833 . S
C1395 O1370 1.251 . S
C1395 O1375 1.256 . S
C1395 C1388 1.500 . S
H1396 C1379 0.930 . S
H1397 C1380 0.931 . S
H1398 C1381 0.930 . S
H1399 C1382 0.930 . S
H1400 C1389 0.930 . S
H1401 C1391 0.931 . S
H1402 C1392 0.930 . S
H1403 C1393 0.930 . S
Tb1404 N1435 2.660 . S
Tb1404 N1442 2.600 . S
Tb1404 O1448 2.546 . S
Tb1404 O1449 2.610 . S
Tb1404 O1451 2.320 . S
Tb1404 O1452 2.552 . S
Tb1404 O1453 2.413 . S
Tb1404 O1455 2.362 . S
Tb1404 O1456 2.421 . S
Tb1404 C1468 2.833 . S
C1405 C1408 1.432 . S
C1405 C1409 1.414 . S
C1405 N1412 1.359 . S
C1406 C1408 1.417 . S
C1406 C1410 1.432 . S
C1406 C1418 1.410 . S
C1407 C1409 1.444 . S
C1407 C1410 1.317 . S
C1407 H1430 0.929 . S
C1408 C1405 1.432 . S
C1408 C1406 1.417 . S
C1408 N1416 1.360 . S
C1409 C1405 1.414 . S
C1409 C1407 1.444 . S
C1409 C1414 1.385 . S
C1410 C1406 1.432 . S
C1410 C1407 1.317 . S
C1410 H1422 0.930 . S
C1411 C1413 1.392 . S
C1411 C1414 1.370 . S
C1411 H1423 0.931 . S
N1412 C1405 1.359 . S
N1412 C1413 1.327 . S
N1412 Tb1415 2.600 . S
C1413 C1411 1.392 . S
C1413 N1412 1.327 . S
C1413 H1420 0.930 . S
C1414 C1409 1.385 . S
C1414 C1411 1.370 . S
C1414 H1433 0.930 . S
Tb1415 N1412 2.600 . S
Tb1415 N1416 2.660 . S
Tb1415 O1449 2.362 . S
Tb1415 O1450 2.421 . S
Tb1415 O1454 2.546 . S
Tb1415 O1455 2.610 . S
Tb1415 O1457 2.320 . S
Tb1415 O1458 2.552 . S
Tb1415 O1459 2.413 . S
Tb1415 C1479 2.833 . S
N1416 C1408 1.360 . S
N1416 Tb1415 2.660 . S
N1416 C1417 1.305 . S
C1417 N1416 1.305 . S
C1417 C1419 1.407 . S
C1417 H1424 0.930 . S
C1418 C1406 1.410 . S
C1418 C1419 1.345 . S
C1418 H1426 0.930 . S
C1419 C1417 1.407 . S
C1419 C1418 1.345 . S
C1419 H1421 0.930 . S
H1420 C1413 0.930 . S
H1421 C1419 0.930 . S
H1422 C1410 0.930 . S
H1423 C1411 0.931 . S
H1424 C1417 0.930 . S
H1425 C1439 0.930 . S
H1426 C1418 0.930 . S
H1427 C1445 0.930 . S
H1428 C1436 0.930 . S
H1429 C1443 0.931 . S
H1430 C1407 0.929 . S
H1431 C1437 0.930 . S
H1432 C1470 0.930 . S
H1433 C1414 0.930 . S
H1434 C1469 0.929 . S
N1435 Tb1404 2.660 . S
N1435 C1436 1.305 . S
N1435 C1440 1.360 . S
C1436 H1428 0.930 . S
C1436 N1435 1.305 . S
C1436 C1439 1.407 . S
C1437 H1431 0.930 . S
C1437 C1438 1.410 . S
C1437 C1439 1.345 . S
C1438 C1437 1.410 . S
C1438 C1440 1.417 . S
C1438 C1470 1.432 . S
C1439 H1425 0.930 . S
C1439 C1436 1.407 . S
C1439 C1437 1.345 . S
C1440 N1435 1.360 . S
C1440 C1438 1.417 . S
C1440 C1444 1.432 . S
H1441 C1446 0.930 . S
N1442 Tb1404 2.600 . S
N1442 C1444 1.359 . S
N1442 C1445 1.327 . S
C1443 H1429 0.931 . S
C1443 C1445 1.392 . S
C1443 C1446 1.370 . S
C1444 C1440 1.432 . S
C1444 N1442 1.359 . S
C1444 C1447 1.414 . S
C1445 H1427 0.930 . S
C1445 N1442 1.327 . S
C1445 C1443 1.392 . S
C1446 H1441 0.930 . S
C1446 C1443 1.370 . S
C1446 C1447 1.385 . S
C1447 C1444 1.414 . S
C1447 C1446 1.385 . S
C1447 C1469 1.444 . S
O1448 Tb1404 2.546 . S
O1448 C1468 1.251 . S
O1449 Tb1404 2.610 . S
O1449 Tb1415 2.362 . S
O1449 C1460 1.283 . S
O1450 Tb1415 2.421 . S
O1450 C1467 1.262 . S
O1451 Tb1404 2.320 . S
O1451 C1467 1.260 . S
O1452 Tb1404 2.552 . S
O1452 C1460 1.243 . S
O1453 Tb1404 2.413 . S
O1453 C1468 1.256 . S
O1454 Tb1415 2.546 . S
O1454 C1479 1.251 . S
O1455 Tb1404 2.362 . S
O1455 Tb1415 2.610 . S
O1455 C1471 1.283 . S
O1456 Tb1404 2.421 . S
O1456 C1478 1.262 . S
O1457 Tb1415 2.320 . S
O1457 C1478 1.260 . S
O1458 Tb1415 2.552 . S
O1458 C1471 1.243 . S
O1459 Tb1415 2.413 . S
O1459 C1479 1.256 . S
C1460 O1449 1.283 . S
C1460 O1452 1.243 . S
C1461 C1463 1.382 . S
C1461 C1465 1.393 . S
C1461 C1468 1.500 . S
C1462 C1463 1.400 . S
C1462 C1464 1.384 . S
C1463 C1461 1.382 . S
C1463 C1462 1.400 . S
C1463 H1480 0.930 . S
C1464 C1462 1.384 . S
C1464 C1466 1.392 . S
C1464 H1481 0.931 . S
C1465 C1461 1.393 . S
C1465 C1466 1.401 . S
C1465 H1482 0.930 . S
C1466 C1464 1.392 . S
C1466 C1465 1.401 . S
C1466 H1483 0.930 . S
C1467 O1450 1.262 . S
C1467 O1451 1.260 . S
C1468 Tb1404 2.833 . S
C1468 O1448 1.251 . S
C1468 O1453 1.256 . S
C1468 C1461 1.500 . S
C1469 H1434 0.929 . S
C1469 C1447 1.444 . S
C1469 C1470 1.317 . S
C1470 H1432 0.930 . S
C1470 C1438 1.432 . S
C1470 C1469 1.317 . S
C1471 O1455 1.283 . S
C1471 O1458 1.243 . S
C1472 C1473 1.382 . S
C1472 C1476 1.393 . S
C1472 C1479 1.500 . S
C1473 C1472 1.382 . S
C1473 C1474 1.400 . S
C1473 H1484 0.930 . S
C1474 C1473 1.400 . S
C1474 C1475 1.384 . S
C1475 C1474 1.384 . S
C1475 C1477 1.392 . S
C1475 H1485 0.931 . S
C1476 C1472 1.393 . S
C1476 C1477 1.401 . S
C1476 H1486 0.930 . S
C1477 C1475 1.392 . S
C1477 C1476 1.401 . S
C1477 H1487 0.930 . S
C1478 O1456 1.262 . S
C1478 O1457 1.260 . S
C1479 Tb1415 2.833 . S
C1479 O1454 1.251 . S
C1479 O1459 1.256 . S
C1479 C1472 1.500 . S
H1480 C1463 0.930 . S
H1481 C1464 0.931 . S
H1482 C1465 0.930 . S
H1483 C1466 0.930 . S
H1484 C1473 0.930 . S
H1485 C1475 0.931 . S
H1486 C1476 0.930 . S
H1487 C1477 0.930 . S
Tb1488 N1519 2.660 . S
Tb1488 N1526 2.600 . S
Tb1488 O1532 2.546 . S
Tb1488 O1533 2.610 . S
Tb1488 O1535 2.320 . S
Tb1488 O1536 2.552 . S
Tb1488 O1537 2.413 . S
Tb1488 O1539 2.362 . S
Tb1488 O1540 2.421 . S
Tb1488 C1552 2.833 . S
C1489 C1492 1.432 . S
C1489 C1493 1.414 . S
C1489 N1496 1.359 . S
C1490 C1492 1.417 . S
C1490 C1494 1.432 . S
C1490 C1502 1.410 . S
C1491 C1493 1.444 . S
C1491 C1494 1.317 . S
C1491 H1514 0.929 . S
C1492 C1489 1.432 . S
C1492 C1490 1.417 . S
C1492 N1500 1.360 . S
C1493 C1489 1.414 . S
C1493 C1491 1.444 . S
C1493 C1498 1.385 . S
C1494 C1490 1.432 . S
C1494 C1491 1.317 . S
C1494 H1506 0.930 . S
C1495 C1497 1.392 . S
C1495 C1498 1.370 . S
C1495 H1507 0.931 . S
N1496 C1489 1.359 . S
N1496 C1497 1.327 . S
N1496 Tb1499 2.600 . S
C1497 C1495 1.392 . S
C1497 N1496 1.327 . S
C1497 H1504 0.930 . S
C1498 C1493 1.385 . S
C1498 C1495 1.370 . S
C1498 H1517 0.930 . S
Tb1499 N1496 2.600 . S
Tb1499 N1500 2.660 . S
Tb1499 O1533 2.362 . S
Tb1499 O1534 2.421 . S
Tb1499 O1538 2.546 . S
Tb1499 O1539 2.610 . S
Tb1499 O1541 2.320 . S
Tb1499 O1542 2.552 . S
Tb1499 O1543 2.413 . S
Tb1499 C1563 2.833 . S
N1500 C1492 1.360 . S
N1500 Tb1499 2.660 . S
N1500 C1501 1.305 . S
C1501 N1500 1.305 . S
C1501 C1503 1.407 . S
C1501 H1508 0.930 . S
C1502 C1490 1.410 . S
C1502 C1503 1.345 . S
C1502 H1510 0.930 . S
C1503 C1501 1.407 . S
C1503 C1502 1.345 . S
C1503 H1505 0.930 . S
H1504 C1497 0.930 . S
H1505 C1503 0.930 . S
H1506 C1494 0.930 . S
H1507 C1495 0.931 . S
H1508 C1501 0.930 . S
H1509 C1523 0.930 . S
H1510 C1502 0.930 . S
H1511 C1529 0.930 . S
H1512 C1520 0.930 . S
H1513 C1527 0.931 . S
H1514 C1491 0.929 . S
H1515 C1521 0.930 . S
H1516 C1554 0.930 . S
H1517 C1498 0.930 . S
H1518 C1553 0.929 . S
N1519 Tb1488 2.660 . S
N1519 C1520 1.305 . S
N1519 C1524 1.360 . S
C1520 H1512 0.930 . S
C1520 N1519 1.305 . S
C1520 C1523 1.407 . S
C1521 H1515 0.930 . S
C1521 C1522 1.410 . S
C1521 C1523 1.345 . S
C1522 C1521 1.410 . S
C1522 C1524 1.417 . S
C1522 C1554 1.432 . S
C1523 H1509 0.930 . S
C1523 C1520 1.407 . S
C1523 C1521 1.345 . S
C1524 N1519 1.360 . S
C1524 C1522 1.417 . S
C1524 C1528 1.432 . S
H1525 C1530 0.930 . S
N1526 Tb1488 2.600 . S
N1526 C1528 1.359 . S
N1526 C1529 1.327 . S
C1527 H1513 0.931 . S
C1527 C1529 1.392 . S
C1527 C1530 1.370 . S
C1528 C1524 1.432 . S
C1528 N1526 1.359 . S
C1528 C1531 1.414 . S
C1529 H1511 0.930 . S
C1529 N1526 1.327 . S
C1529 C1527 1.392 . S
C1530 H1525 0.930 . S
C1530 C1527 1.370 . S
C1530 C1531 1.385 . S
C1531 C1528 1.414 . S
C1531 C1530 1.385 . S
C1531 C1553 1.444 . S
O1532 Tb1488 2.546 . S
O1532 C1552 1.251 . S
O1533 Tb1488 2.610 . S
O1533 Tb1499 2.362 . S
O1533 C1544 1.283 . S
O1534 Tb1499 2.421 . S
O1534 C1551 1.262 . S
O1535 Tb1488 2.320 . S
O1535 C1551 1.260 . S
O1536 Tb1488 2.552 . S
O1536 C1544 1.243 . S
O1537 Tb1488 2.413 . S
O1537 C1552 1.256 . S
O1538 Tb1499 2.546 . S
O1538 C1563 1.251 . S
O1539 Tb1488 2.362 . S
O1539 Tb1499 2.610 . S
O1539 C1555 1.283 . S
O1540 Tb1488 2.421 . S
O1540 C1562 1.262 . S
O1541 Tb1499 2.320 . S
O1541 C1562 1.260 . S
O1542 Tb1499 2.552 . S
O1542 C1555 1.243 . S
O1543 Tb1499 2.413 . S
O1543 C1563 1.256 . S
C1544 O1533 1.283 . S
C1544 O1536 1.243 . S
C1545 C1547 1.382 . S
C1545 C1549 1.393 . S
C1545 C1552 1.500 . S
C1546 C1547 1.400 . S
C1546 C1548 1.384 . S
C1547 C1545 1.382 . S
C1547 C1546 1.400 . S
C1547 H1564 0.930 . S
C1548 C1546 1.384 . S
C1548 C1550 1.392 . S
C1548 H1565 0.931 . S
C1549 C1545 1.393 . S
C1549 C1550 1.401 . S
C1549 H1566 0.930 . S
C1550 C1548 1.392 . S
C1550 C1549 1.401 . S
C1550 H1567 0.930 . S
C1551 O1534 1.262 . S
C1551 O1535 1.260 . S
C1552 Tb1488 2.833 . S
C1552 O1532 1.251 . S
C1552 O1537 1.256 . S
C1552 C1545 1.500 . S
C1553 H1518 0.929 . S
C1553 C1531 1.444 . S
C1553 C1554 1.317 . S
C1554 H1516 0.930 . S
C1554 C1522 1.432 . S
C1554 C1553 1.317 . S
C1555 O1539 1.283 . S
C1555 O1542 1.243 . S
C1556 C1557 1.382 . S
C1556 C1560 1.393 . S
C1556 C1563 1.500 . S
C1557 C1556 1.382 . S
C1557 C1558 1.400 . S
C1557 H1568 0.930 . S
C1558 C1557 1.400 . S
C1558 C1559 1.384 . S
C1559 C1558 1.384 . S
C1559 C1561 1.392 . S
C1559 H1569 0.931 . S
C1560 C1556 1.393 . S
C1560 C1561 1.401 . S
C1560 H1570 0.930 . S
C1561 C1559 1.392 . S
C1561 C1560 1.401 . S
C1561 H1571 0.930 . S
C1562 O1540 1.262 . S
C1562 O1541 1.260 . S
C1563 Tb1499 2.833 . S
C1563 O1538 1.251 . S
C1563 O1543 1.256 . S
C1563 C1556 1.500 . S
H1564 C1547 0.930 . S
H1565 C1548 0.931 . S
H1566 C1549 0.930 . S
H1567 C1550 0.930 . S
H1568 C1557 0.930 . S
H1569 C1559 0.931 . S
H1570 C1560 0.930 . S
H1571 C1561 0.930 . S
Tb1572 N1603 2.660 . S
Tb1572 N1610 2.600 1_554 S
Tb1572 O1616 2.546 1_554 S
Tb1572 O1617 2.610 . S
Tb1572 O1619 2.320 . S
Tb1572 O1620 2.552 1_554 S
Tb1572 O1621 2.413 . S
Tb1572 O1623 2.362 . S
Tb1572 O1624 2.421 1_554 S
Tb1572 C1636 2.833 1_554 S
C1573 C1576 1.432 1_455 S
C1573 C1577 1.414 1_455 S
C1573 N1580 1.359 . S
C1574 C1576 1.417 . S
C1574 C1578 1.432 . S
C1574 C1586 1.410 1_554 S
C1575 C1577 1.444 . S
C1575 C1578 1.317 . S
C1575 H1598 0.929 . S
C1576 C1573 1.432 1_655 S
C1576 C1574 1.417 . S
C1576 N1584 1.360 1_655 S
C1577 C1573 1.414 1_655 S
C1577 C1575 1.444 . S
C1577 C1582 1.385 . S
C1578 C1574 1.432 . S
C1578 C1575 1.317 . S
C1578 H1590 0.930 . S
C1579 C1581 1.392 . S
C1579 C1582 1.370 1_455 S
C1579 H1591 0.931 . S
N1580 C1573 1.359 . S
N1580 C1581 1.327 . S
N1580 Tb1583 2.600 . S
C1581 C1579 1.392 . S
C1581 N1580 1.327 . S
C1581 H1588 0.930 . S
C1582 C1577 1.385 . S
C1582 C1579 1.370 1_655 S
C1582 H1601 0.930 . S
Tb1583 N1580 2.600 . S
Tb1583 N1584 2.660 . S
Tb1583 O1617 2.362 . S
Tb1583 O1618 2.421 . S
Tb1583 O1622 2.546 . S
Tb1583 O1623 2.610 . S
Tb1583 O1625 2.320 1_554 S
Tb1583 O1626 2.552 . S
Tb1583 O1627 2.370 1_455 S
Tb1583 C1647 2.833 1_455 S
N1584 C1576 1.360 1_455 S
N1584 Tb1583 2.660 . S
N1584 C1585 1.305 1_554 S
C1585 N1584 1.305 1_556 S
C1585 C1587 1.407 1_455 S
C1585 H1592 0.930 . S
C1586 C1574 1.410 1_556 S
C1586 C1587 1.345 . S
C1586 H1594 0.930 . S
C1587 C1585 1.407 1_655 S
C1587 C1586 1.345 . S
C1587 H1589 0.930 . S
H1588 C1581 0.930 . S
H1589 C1587 0.930 . S
H1590 C1578 0.930 . S
H1591 C1579 0.931 . S
H1592 C1585 0.930 . S
H1593 C1607 0.930 . S
H1594 C1586 0.930 . S
H1595 C1613 0.930 . S
H1596 C1604 0.930 . S
H1597 C1611 0.931 . S
H1598 C1575 0.929 . S
H1599 C1605 0.930 . S
H1600 C1638 0.930 . S
H1601 C1582 0.930 . S
H1602 C1637 0.929 . S
N1603 Tb1572 2.660 . S
N1603 C1604 1.305 . S
N1603 C1608 1.360 . S
C1604 H1596 0.930 . S
C1604 N1603 1.305 . S
C1604 C1607 1.407 . S
C1605 H1599 0.930 . S
C1605 C1606 1.410 . S
C1605 C1607 1.345 . S
C1606 C1605 1.410 . S
C1606 C1608 1.417 . S
C1606 C1638 1.432 . S
C1607 H1593 0.930 . S
C1607 C1604 1.407 . S
C1607 C1605 1.345 . S
C1608 N1603 1.360 . S
C1608 C1606 1.417 . S
C1608 C1612 1.432 1_554 S
H1609 C1614 0.930 . S
N1610 Tb1572 2.600 1_556 S
N1610 C1612 1.359 . S
N1610 C1613 1.327 . S
C1611 H1597 0.931 . S
C1611 C1613 1.392 . S
C1611 C1614 1.370 . S
C1612 C1608 1.432 1_556 S
C1612 N1610 1.359 . S
C1612 C1615 1.414 . S
C1613 H1595 0.930 . S
C1613 N1610 1.327 . S
C1613 C1611 1.392 . S
C1614 H1609 0.930 . S
C1614 C1611 1.370 . S
C1614 C1615 1.385 . S
C1615 C1612 1.414 . S
C1615 C1614 1.385 . S
C1615 C1637 1.444 . S
O1616 Tb1572 2.546 1_556 S
O1616 C1636 1.251 . S
O1617 Tb1572 2.610 . S
O1617 Tb1583 2.362 . S
O1617 C1628 1.283 . S
O1618 Tb1583 2.421 . S
O1618 C1635 1.262 . S
O1619 Tb1572 2.320 . S
O1619 C1635 1.260 . S
O1620 Tb1572 2.552 1_556 S
O1620 C1628 1.243 1_556 S
O1621 Tb1572 2.413 . S
O1621 C1636 1.256 1_554 S
O1622 Tb1583 2.546 . S
O1622 C1647 1.251 1_455 S
O1623 Tb1572 2.362 . S
O1623 Tb1583 2.610 . S
O1623 C1639 1.283 . S
O1624 Tb1572 2.421 1_556 S
O1624 C1646 1.262 . S
O1625 Tb1583 2.320 1_556 S
O1625 C1646 1.260 . S
O1626 Tb1583 2.552 . S
O1626 C1639 1.243 . S
O1627 Tb1583 2.370 1_655 S
O1627 C1647 1.268 . S
C1628 O1617 1.283 . S
C1628 O1620 1.243 1_554 S
C1629 C1631 1.382 1_556 S
C1629 C1633 1.393 . S
C1629 C1636 1.500 . S
C1630 C1631 1.400 1_556 S
C1630 C1632 1.384 . S
C1631 C1629 1.382 1_554 S
C1631 C1630 1.400 1_554 S
C1631 H1648 0.930 . S
C1632 C1630 1.384 . S
C1632 C1634 1.392 . S
C1632 H1649 0.931 . S
C1633 C1629 1.393 . S
C1633 C1634 1.401 . S
C1633 H1650 0.930 . S
C1634 C1632 1.392 . S
C1634 C1633 1.401 . S
C1634 H1651 0.930 . S
C1635 O1618 1.262 . S
C1635 O1619 1.260 . S
C1636 Tb1572 2.833 1_556 S
C1636 O1616 1.251 . S
C1636 O1621 1.256 1_556 S
C1636 C1629 1.500 . S
C1637 H1602 0.929 . S
C1637 C1615 1.444 . S
C1637 C1638 1.317 1_556 S
C1638 H1600 0.930 . S
C1638 C1606 1.432 . S
C1638 C1637 1.317 1_554 S
C1639 O1623 1.283 . S
C1639 O1626 1.243 . S
C1640 C1641 1.382 . S
C1640 C1644 1.393 . S
C1640 C1647 1.500 . S
C1641 C1640 1.382 . S
C1641 C1642 1.400 . S
C1641 H1652 0.930 . S
C1642 C1641 1.400 . S
C1642 C1643 1.384 . S
C1643 C1642 1.384 . S
C1643 C1645 1.392 . S
C1643 H1653 0.931 . S
C1644 C1640 1.393 . S
C1644 C1645 1.401 . S
C1644 H1654 0.930 . S
C1645 C1643 1.392 . S
C1645 C1644 1.401 . S
C1645 H1655 0.930 . S
C1646 O1624 1.262 . S
C1646 O1625 1.260 . S
C1647 Tb1583 2.833 1_655 S
C1647 O1622 1.251 1_655 S
C1647 O1627 1.268 . S
C1647 C1640 1.500 . S
H1648 C1631 0.930 . S
H1649 C1632 0.931 . S
H1650 C1633 0.930 . S
H1651 C1634 0.930 . S
H1652 C1641 0.930 . S
H1653 C1643 0.931 . S
H1654 C1644 0.930 . S
H1655 C1645 0.930 . S
C1656 C1657 1.349 . S
C1656 C1658 1.327 . S
C1656 H1681 0.950 . S
C1657 C1656 1.349 . S
C1657 C1673 1.349 . S
C1658 C1656 1.327 . S
C1658 C1677 1.429 . S
C1658 H1682 0.950 . S
C1659 C1676 1.574 . S
C1659 C1678 1.368 . S
C1659 H1683 0.949 . S
H1660 C1664 0.949 . S
C1661 C1662 1.349 1_556 S
C1661 C1663 1.327 . S
C1661 H1684 0.950 . S
C1662 C1661 1.349 1_554 S
C1662 C1674 1.349 . S
C1663 C1661 1.327 . S
C1663 C1679 1.429 . S
C1663 H1685 0.950 . S
C1664 H1660 0.949 . S
C1664 C1672 1.574 1_554 S
C1664 C1680 1.368 1_554 S
H1665 C1673 0.950 1_655 S
H1666 C1671 0.970 . S
H1667 C1672 0.949 1_554 S
H1668 C1674 0.950 . S
H1669 C1675 0.950 . S
H1670 C1676 0.949 . S
C1671 H1666 0.970 . S
C1671 C1673 1.327 . S
C1671 C1677 1.429 . S
C1672 C1664 1.574 1_556 S
C1672 H1667 0.949 1_556 S
C1672 C1678 1.368 . S
C1673 C1657 1.349 . S
C1673 H1665 0.950 1_455 S
C1673 C1671 1.327 . S
C1674 C1662 1.349 . S
C1674 H1668 0.950 . S
C1674 C1675 1.327 . S
C1675 H1669 0.950 . S
C1675 C1674 1.327 . S
C1675 C1679 1.429 1_554 S
C1676 C1659 1.574 . S
C1676 H1670 0.949 . S
C1676 C1680 1.368 . S
C1677 C1658 1.429 . S
C1677 C1671 1.429 . S
C1677 C1678 1.523 . S
C1678 C1659 1.368 . S
C1678 C1672 1.368 . S
C1678 C1677 1.523 . S
C1679 C1663 1.429 . S
C1679 C1675 1.429 1_556 S
C1679 C1680 1.523 . S
C1680 C1664 1.368 1_556 S
C1680 C1676 1.368 . S
C1680 C1679 1.523 . S
H1681 C1656 0.950 . S
H1682 C1658 0.950 . S
H1683 C1659 0.949 . S
H1684 C1661 0.950 . S
H1685 C1663 0.950 . S
C1686 C1687 1.349 . S
C1686 C1688 1.327 . S
C1686 H1711 0.950 . S
C1687 C1686 1.349 . S
C1687 C1703 1.349 . S
C1688 C1686 1.327 . S
C1688 C1707 1.429 . S
C1688 H1712 0.950 . S
C1689 C1706 1.574 . S
C1689 C1708 1.368 . S
C1689 H1713 0.949 . S
H1690 C1694 0.949 . S
C1691 C1692 1.349 . S
C1691 C1693 1.327 . S
C1691 H1714 0.950 . S
C1692 C1691 1.349 . S
C1692 C1704 1.349 . S
C1693 C1691 1.327 . S
C1693 C1709 1.429 . S
C1693 H1715 0.950 . S
C1694 H1690 0.949 . S
C1694 C1702 1.574 . S
C1694 C1710 1.368 . S
H1695 C1703 0.950 . S
H1696 C1701 0.950 . S
H1697 C1702 0.949 . S
H1698 C1704 0.950 . S
H1699 C1705 0.950 . S
H1700 C1706 0.949 . S
C1701 H1696 0.950 . S
C1701 C1703 1.327 . S
C1701 C1707 1.429 . S
C1702 C1694 1.574 . S
C1702 H1697 0.949 . S
C1702 C1708 1.368 . S
C1703 C1687 1.349 . S
C1703 H1695 0.950 . S
C1703 C1701 1.327 . S
C1704 C1692 1.349 . S
C1704 H1698 0.950 . S
C1704 C1705 1.327 . S
C1705 H1699 0.950 . S
C1705 C1704 1.327 . S
C1705 C1709 1.429 . S
C1706 C1689 1.574 . S
C1706 H1700 0.949 . S
C1706 C1710 1.368 . S
C1707 C1688 1.429 . S
C1707 C1701 1.429 . S
C1707 C1708 1.523 . S
C1708 C1689 1.368 . S
C1708 C1702 1.368 . S
C1708 C1707 1.523 . S
C1709 C1693 1.429 . S
C1709 C1705 1.429 . S
C1709 C1710 1.523 . S
C1710 C1694 1.368 . S
C1710 C1706 1.368 . S
C1710 C1709 1.523 . S
H1711 C1686 0.950 . S
H1712 C1688 0.950 . S
H1713 C1689 0.949 . S
H1714 C1691 0.950 . S
H1715 C1693 0.950 . S
C1716 C1717 1.349 . S
C1716 C1718 1.327 . S
C1716 H1741 0.950 . S
C1717 C1716 1.349 . S
C1717 C1733 1.349 . S
C1718 C1716 1.327 . S
C1718 C1737 1.429 . S
C1718 H1742 0.950 . S
C1719 C1736 1.574 . S
C1719 C1738 1.368 . S
C1719 H1743 0.949 . S
H1720 C1724 0.949 . S
C1721 C1722 1.349 . S
C1721 C1723 1.327 . S
C1721 H1744 0.950 . S
C1722 C1721 1.349 . S
C1722 C1734 1.349 . S
C1723 C1721 1.327 . S
C1723 C1739 1.429 . S
C1723 H1745 0.950 . S
C1724 H1720 0.949 . S
C1724 C1732 1.574 . S
C1724 C1740 1.368 . S
H1725 C1733 0.950 . S
H1726 C1731 0.950 . S
H1727 C1732 0.949 . S
H1728 C1734 0.950 . S
H1729 C1735 0.950 . S
H1730 C1736 0.949 . S
C1731 H1726 0.950 . S
C1731 C1733 1.327 . S
C1731 C1737 1.429 . S
C1732 C1724 1.574 . S
C1732 H1727 0.949 . S
C1732 C1738 1.368 . S
C1733 C1717 1.349 . S
C1733 H1725 0.950 . S
C1733 C1731 1.327 . S
C1734 C1722 1.349 . S
C1734 H1728 0.950 . S
C1734 C1735 1.327 . S
C1735 H1729 0.950 . S
C1735 C1734 1.327 . S
C1735 C1739 1.429 . S
C1736 C1719 1.574 . S
C1736 H1730 0.949 . S
C1736 C1740 1.368 . S
C1737 C1718 1.429 . S
C1737 C1731 1.429 . S
C1737 C1738 1.523 . S
C1738 C1719 1.368 . S
C1738 C1732 1.368 . S
C1738 C1737 1.523 . S
C1739 C1723 1.429 . S
C1739 C1735 1.429 . S
C1739 C1740 1.523 . S
C1740 C1724 1.368 . S
C1740 C1736 1.368 . S
C1740 C1739 1.523 . S
H1741 C1716 0.950 . S
H1742 C1718 0.950 . S
H1743 C1719 0.949 . S
H1744 C1721 0.950 . S
H1745 C1723 0.950 . S
C1746 C1747 1.349 . S
C1746 C1748 1.327 . S
C1746 H1771 0.950 . S
C1747 C1746 1.349 . S
C1747 C1763 1.349 . S
C1748 C1746 1.327 . S
C1748 C1767 1.429 . S
C1748 H1772 0.950 . S
C1749 C1766 1.574 . S
C1749 C1768 1.368 . S
C1749 H1773 0.949 . S
H1750 C1754 0.949 . S
C1751 C1752 1.349 . S
C1751 C1753 1.327 . S
C1751 H1774 0.950 . S
C1752 C1751 1.349 . S
C1752 C1764 1.349 . S
C1753 C1751 1.327 . S
C1753 C1769 1.429 . S
C1753 H1775 0.950 . S
C1754 H1750 0.949 . S
C1754 C1762 1.574 . S
C1754 C1770 1.368 . S
H1755 C1763 0.950 . S
H1756 C1761 0.950 . S
H1757 C1762 0.949 . S
H1758 C1764 0.950 . S
H1759 C1765 0.950 . S
H1760 C1766 0.949 . S
C1761 H1756 0.950 . S
C1761 C1763 1.327 . S
C1761 C1767 1.429 . S
C1762 C1754 1.574 . S
C1762 H1757 0.949 . S
C1762 C1768 1.368 . S
C1763 C1747 1.349 . S
C1763 H1755 0.950 . S
C1763 C1761 1.327 . S
C1764 C1752 1.349 . S
C1764 H1758 0.950 . S
C1764 C1765 1.327 . S
C1765 H1759 0.950 . S
C1765 C1764 1.327 . S
C1765 C1769 1.429 . S
C1766 C1749 1.574 . S
C1766 H1760 0.949 . S
C1766 C1770 1.368 . S
C1767 C1748 1.429 . S
C1767 C1761 1.429 . S
C1767 C1768 1.523 . S
C1768 C1749 1.368 . S
C1768 C1762 1.368 . S
C1768 C1767 1.523 . S
C1769 C1753 1.429 . S
C1769 C1765 1.429 . S
C1769 C1770 1.523 . S
C1770 C1754 1.368 . S
C1770 C1766 1.368 . S
C1770 C1769 1.523 . S
H1771 C1746 0.950 . S
H1772 C1748 0.950 . S
H1773 C1749 0.949 . S
H1774 C1751 0.950 . S
H1775 C1753 0.950 . S
C1776 C1777 1.349 . S
C1776 C1778 1.327 . S
C1776 H1801 0.950 . S
C1777 C1776 1.349 . S
C1777 C1793 1.349 1_455 S
C1778 C1776 1.327 . S
C1778 C1797 1.429 . S
C1778 H1802 0.950 . S
C1779 C1796 1.574 . S
C1779 C1798 1.368 . S
C1779 H1803 0.949 1_455 S
H1780 C1784 0.949 . S
C1781 C1782 1.349 . S
C1781 C1783 1.327 . S
C1781 H1804 0.950 . S
C1782 C1781 1.349 . S
C1782 C1794 1.349 . S
C1783 C1781 1.327 . S
C1783 C1799 1.429 . S
C1783 H1805 0.950 . S
C1784 H1780 0.949 . S
C1784 C1792 1.574 . S
C1784 C1800 1.368 . S
H1785 C1793 0.950 . S
H1786 C1791 0.950 . S
H1787 C1792 0.949 . S
H1788 C1794 0.950 . S
H1789 C1795 0.950 . S
H1790 C1796 0.949 . S
C1791 H1786 0.950 . S
C1791 C1793 1.327 . S
C1791 C1797 1.429 1_655 S
C1792 C1784 1.574 . S
C1792 H1787 0.949 . S
C1792 C1798 1.368 . S
C1793 C1777 1.349 1_655 S
C1793 H1785 0.950 . S
C1793 C1791 1.327 . S
C1794 C1782 1.349 . S
C1794 H1788 0.950 . S
C1794 C1795 1.327 . S
C1795 H1789 0.950 . S
C1795 C1794 1.327 . S
C1795 C1799 1.429 . S
C1796 C1779 1.574 . S
C1796 H1790 0.949 . S
C1796 C1800 1.368 . S
C1797 C1778 1.429 . S
C1797 C1791 1.429 1_455 S
C1797 C1798 1.523 . S
C1798 C1779 1.368 . S
C1798 C1792 1.368 . S
C1798 C1797 1.523 . S
C1799 C1783 1.429 . S
C1799 C1795 1.429 . S
C1799 C1800 1.523 . S
C1800 C1784 1.368 . S
C1800 C1796 1.368 . S
C1800 C1799 1.523 . S
H1801 C1776 0.950 . S
H1802 C1778 0.950 . S
H1803 C1779 0.949 1_655 S
H1804 C1781 0.950 . S
H1805 C1783 0.950 . S
C1806 C1807 1.349 . S
C1806 C1808 1.327 . S
C1806 H1831 0.950 . S
C1807 C1806 1.349 . S
C1807 C1823 1.349 . S
C1808 C1806 1.327 . S
C1808 C1827 1.429 . S
C1808 H1832 0.950 . S
C1809 C1826 1.574 . S
C1809 C1828 1.368 . S
C1809 H1833 0.949 . S
H1810 C1814 0.949 . S
C1811 C1812 1.349 . S
C1811 C1813 1.327 . S
C1811 H1834 0.950 . S
C1812 C1811 1.349 . S
C1812 C1824 1.349 . S
C1813 C1811 1.327 . S
C1813 C1829 1.429 . S
C1813 H1835 0.950 . S
C1814 H1810 0.949 . S
C1814 C1822 1.574 . S
C1814 C1830 1.368 . S
H1815 C1823 0.950 . S
H1816 C1821 0.950 . S
H1817 C1822 0.949 . S
H1818 C1824 0.950 . S
H1819 C1825 0.950 . S
H1820 C1826 0.949 . S
C1821 H1816 0.950 . S
C1821 C1823 1.327 . S
C1821 C1827 1.429 . S
C1822 C1814 1.574 . S
C1822 H1817 0.949 . S
C1822 C1828 1.368 . S
C1823 C1807 1.349 . S
C1823 H1815 0.950 . S
C1823 C1821 1.327 . S
C1824 C1812 1.349 . S
C1824 H1818 0.950 . S
C1824 C1825 1.327 . S
C1825 H1819 0.950 . S
C1825 C1824 1.327 . S
C1825 C1829 1.429 . S
C1826 C1809 1.574 . S
C1826 H1820 0.949 . S
C1826 C1830 1.368 . S
C1827 C1808 1.429 . S
C1827 C1821 1.429 . S
C1827 C1828 1.523 . S
C1828 C1809 1.368 . S
C1828 C1822 1.368 . S
C1828 C1827 1.523 . S
C1829 C1813 1.429 . S
C1829 C1825 1.429 . S
C1829 C1830 1.523 . S
C1830 C1814 1.368 . S
C1830 C1826 1.368 . S
C1830 C1829 1.523 . S
H1831 C1806 0.950 . S
H1832 C1808 0.950 . S
H1833 C1809 0.949 . S
H1834 C1811 0.950 . S
H1835 C1813 0.950 . S
C1836 C1837 1.349 . S
C1836 C1838 1.327 . S
C1836 H1861 0.950 . S
C1837 C1836 1.349 . S
C1837 C1853 1.349 . S
C1838 C1836 1.327 . S
C1838 C1857 1.429 . S
C1838 H1862 0.950 . S
C1839 C1856 1.574 . S
C1839 C1858 1.368 . S
C1839 H1863 0.949 . S
H1840 C1844 0.949 . S
C1841 C1842 1.349 . S
C1841 C1843 1.327 . S
C1841 H1864 0.950 . S
C1842 C1841 1.349 . S
C1842 C1854 1.349 . S
C1843 C1841 1.327 . S
C1843 C1859 1.429 . S
C1843 H1865 0.950 . S
C1844 H1840 0.949 . S
C1844 C1852 1.574 . S
C1844 C1860 1.368 . S
H1845 C1853 0.950 . S
H1846 C1851 0.950 . S
H1847 C1852 0.949 . S
H1848 C1854 0.950 . S
H1849 C1855 0.950 . S
H1850 C1856 0.949 . S
C1851 H1846 0.950 . S
C1851 C1853 1.327 . S
C1851 C1857 1.429 . S
C1852 C1844 1.574 . S
C1852 H1847 0.949 . S
C1852 C1858 1.368 . S
C1853 C1837 1.349 . S
C1853 H1845 0.950 . S
C1853 C1851 1.327 . S
C1854 C1842 1.349 . S
C1854 H1848 0.950 . S
C1854 C1855 1.327 . S
C1855 H1849 0.950 . S
C1855 C1854 1.327 . S
C1855 C1859 1.429 . S
C1856 C1839 1.574 . S
C1856 H1850 0.949 . S
C1856 C1860 1.368 . S
C1857 C1838 1.429 . S
C1857 C1851 1.429 . S
C1857 C1858 1.523 . S
C1858 C1839 1.368 . S
C1858 C1852 1.368 . S
C1858 C1857 1.523 . S
C1859 C1843 1.429 . S
C1859 C1855 1.429 . S
C1859 C1860 1.523 . S
C1860 C1844 1.368 . S
C1860 C1856 1.368 . S
C1860 C1859 1.523 . S
H1861 C1836 0.950 . S
H1862 C1838 0.950 . S
H1863 C1839 0.949 . S
H1864 C1841 0.950 . S
H1865 C1843 0.950 . S
C1866 C1867 1.349 . S
C1866 C1868 1.327 . S
C1866 H1891 0.950 . S
C1867 C1866 1.349 . S
C1867 C1883 1.349 . S
C1868 C1866 1.327 . S
C1868 C1887 1.429 . S
C1868 H1892 0.950 . S
C1869 C1886 1.574 . S
C1869 C1888 1.368 . S
C1869 H1893 0.949 . S
H1870 C1874 0.949 . S
C1871 C1872 1.349 . S
C1871 C1873 1.327 . S
C1871 H1894 0.950 . S
C1872 C1871 1.349 . S
C1872 C1884 1.349 . S
C1873 C1871 1.327 . S
C1873 C1889 1.429 . S
C1873 H1895 0.950 . S
C1874 H1870 0.949 . S
C1874 C1882 1.574 . S
C1874 C1890 1.368 . S
H1875 C1883 0.950 . S
H1876 C1881 0.950 . S
H1877 C1882 0.949 . S
H1878 C1884 0.950 . S
H1879 C1885 0.950 . S
H1880 C1886 0.949 . S
C1881 H1876 0.950 . S
C1881 C1883 1.327 . S
C1881 C1887 1.429 . S
C1882 C1874 1.574 . S
C1882 H1877 0.949 . S
C1882 C1888 1.368 . S
C1883 C1867 1.349 . S
C1883 H1875 0.950 . S
C1883 C1881 1.327 . S
C1884 C1872 1.349 . S
C1884 H1878 0.950 . S
C1884 C1885 1.327 . S
C1885 H1879 0.950 . S
C1885 C1884 1.327 . S
C1885 C1889 1.429 . S
C1886 C1869 1.574 . S
C1886 H1880 0.949 . S
C1886 C1890 1.368 . S
C1887 C1868 1.429 . S
C1887 C1881 1.429 . S
C1887 C1888 1.523 . S
C1888 C1869 1.368 . S
C1888 C1882 1.368 . S
C1888 C1887 1.523 . S
C1889 C1873 1.429 . S
C1889 C1885 1.429 . S
C1889 C1890 1.523 . S
C1890 C1874 1.368 . S
C1890 C1886 1.368 . S
C1890 C1889 1.523 . S
H1891 C1866 0.950 . S
H1892 C1868 0.950 . S
H1893 C1869 0.949 . S
H1894 C1871 0.950 . S
H1895 C1873 0.950 . S
C1896 C1897 1.349 . S
C1896 C1898 1.327 . S
C1896 H1921 0.950 . S
C1897 C1896 1.349 . S
C1897 C1913 1.349 . S
C1898 C1896 1.327 . S
C1898 C1917 1.429 . S
C1898 H1922 0.950 . S
C1899 C1916 1.578 . S
C1899 C1918 1.364 1_455 S
C1899 H1923 0.949 . S
H1900 C1904 0.949 . S
C1901 C1902 1.349 . S
C1901 C1903 1.327 . S
C1901 H1924 0.950 . S
C1902 C1901 1.349 . S
C1902 C1914 1.349 . S
C1903 C1901 1.327 . S
C1903 C1919 1.429 . S
C1903 H1925 0.950 . S
C1904 H1900 0.949 . S
C1904 C1912 1.574 . S
C1904 C1920 1.368 1_655 S
H1905 C1913 0.950 . S
H1906 C1911 0.950 . S
H1907 C1912 0.949 . S
H1908 C1914 0.950 . S
H1909 C1915 0.950 1_655 S
H1910 C1916 0.949 . S
C1911 H1906 0.950 . S
C1911 C1913 1.327 . S
C1911 C1917 1.429 . S
C1912 C1904 1.574 . S
C1912 H1907 0.949 . S
C1912 C1918 1.368 . S
C1913 C1897 1.349 . S
C1913 H1905 0.950 . S
C1913 C1911 1.327 . S
C1914 C1902 1.349 . S
C1914 H1908 0.950 . S
C1914 C1915 1.327 . S
C1915 H1909 0.950 1_455 S
C1915 C1914 1.327 . S
C1915 C1919 1.429 . S
C1916 C1899 1.578 . S
C1916 H1910 0.949 . S
C1916 C1920 1.368 . S
C1917 C1898 1.429 . S
C1917 C1911 1.429 . S
C1917 C1918 1.523 . S
C1918 C1899 1.364 1_655 S
C1918 C1912 1.368 . S
C1918 C1917 1.523 . S
C1919 C1903 1.429 . S
C1919 C1915 1.429 . S
C1919 C1920 1.523 . S
C1920 C1904 1.368 1_455 S
C1920 C1916 1.368 . S
C1920 C1919 1.523 . S
H1921 C1896 0.950 . S
H1922 C1898 0.950 . S
H1923 C1899 0.949 . S
H1924 C1901 0.950 . S
H1925 C1903 0.950 . S
C1926 C1927 1.349 . S
C1926 C1928 1.327 . S
C1926 H1951 0.950 . S
C1927 C1926 1.349 . S
C1927 C1943 1.349 . S
C1928 C1926 1.327 . S
C1928 C1947 1.429 . S
C1928 H1952 0.950 . S
C1929 C1946 1.574 . S
C1929 C1948 1.368 . S
C1929 H1953 0.949 . S
H1930 C1934 0.949 . S
C1931 C1932 1.349 . S
C1931 C1933 1.327 . S
C1931 H1954 0.950 . S
C1932 C1931 1.349 . S
C1932 C1944 1.349 . S
C1933 C1931 1.327 . S
C1933 C1949 1.429 . S
C1933 H1955 0.950 . S
C1934 H1930 0.949 . S
C1934 C1942 1.574 . S
C1934 C1950 1.368 . S
H1935 C1943 0.950 . S
H1936 C1941 0.950 . S
H1937 C1942 0.949 . S
H1938 C1944 0.950 . S
H1939 C1945 0.950 . S
H1940 C1946 0.949 . S
C1941 H1936 0.950 . S
C1941 C1943 1.327 . S
C1941 C1947 1.429 . S
C1942 C1934 1.574 . S
C1942 H1937 0.949 . S
C1942 C1948 1.368 . S
C1943 C1927 1.349 . S
C1943 H1935 0.950 . S
C1943 C1941 1.327 . S
C1944 C1932 1.349 . S
C1944 H1938 0.950 . S
C1944 C1945 1.327 . S
C1945 H1939 0.950 . S
C1945 C1944 1.327 . S
C1945 C1949 1.429 . S
C1946 C1929 1.574 . S
C1946 H1940 0.949 . S
C1946 C1950 1.368 . S
C1947 C1928 1.429 . S
C1947 C1941 1.429 . S
C1947 C1948 1.523 . S
C1948 C1929 1.368 . S
C1948 C1942 1.368 . S
C1948 C1947 1.523 . S
C1949 C1933 1.429 . S
C1949 C1945 1.429 . S
C1949 C1950 1.523 . S
C1950 C1934 1.368 . S
C1950 C1946 1.368 . S
C1950 C1949 1.523 . S
H1951 C1926 0.950 . S
H1952 C1928 0.950 . S
H1953 C1929 0.949 . S
H1954 C1931 0.950 . S
H1955 C1933 0.950 . S
C1956 C1957 1.349 . S
C1956 C1958 1.327 . S
C1956 H1981 0.950 . S
C1957 C1956 1.349 . S
C1957 C1973 1.349 . S
C1958 C1956 1.327 . S
C1958 C1977 1.429 . S
C1958 H1982 0.950 . S
C1959 C1976 1.574 . S
C1959 C1978 1.368 . S
C1959 H1983 0.949 . S
H1960 C1964 0.949 . S
C1961 C1962 1.349 . S
C1961 C1963 1.327 . S
C1961 H1984 0.950 . S
C1962 C1961 1.349 . S
C1962 C1974 1.349 . S
C1963 C1961 1.327 . S
C1963 C1979 1.429 . S
C1963 H1985 0.950 . S
C1964 H1960 0.949 . S
C1964 C1972 1.574 . S
C1964 C1980 1.368 . S
H1965 C1973 0.950 . S
H1966 C1971 0.950 . S
H1967 C1972 0.949 . S
H1968 C1974 0.950 . S
H1969 C1975 0.950 . S
H1970 C1976 0.949 . S
C1971 H1966 0.950 . S
C1971 C1973 1.327 . S
C1971 C1977 1.429 . S
C1972 C1964 1.574 . S
C1972 H1967 0.949 . S
C1972 C1978 1.368 . S
C1973 C1957 1.349 . S
C1973 H1965 0.950 . S
C1973 C1971 1.327 . S
C1974 C1962 1.349 . S
C1974 H1968 0.950 . S
C1974 C1975 1.327 . S
C1975 H1969 0.950 . S
C1975 C1974 1.327 . S
C1975 C1979 1.429 . S
C1976 C1959 1.574 . S
C1976 H1970 0.949 . S
C1976 C1980 1.368 . S
C1977 C1958 1.429 . S
C1977 C1971 1.429 . S
C1977 C1978 1.523 . S
C1978 C1959 1.368 . S
C1978 C1972 1.368 . S
C1978 C1977 1.523 . S
C1979 C1963 1.429 . S
C1979 C1975 1.429 . S
C1979 C1980 1.523 . S
C1980 C1964 1.368 . S
C1980 C1976 1.368 . S
C1980 C1979 1.523 . S
H1981 C1956 0.950 . S
H1982 C1958 0.950 . S
H1983 C1959 0.949 . S
H1984 C1961 0.950 . S
H1985 C1963 0.950 . S
C1986 C1987 1.349 . S
C1986 C1988 1.327 . S
C1986 H2011 0.950 . S
C1987 C1986 1.349 . S
C1987 C2003 1.349 . S
C1988 C1986 1.327 . S
C1988 C2007 1.429 . S
C1988 H2012 0.950 . S
C1989 C2006 1.574 . S
C1989 C2008 1.368 . S
C1989 H2013 0.949 . S
H1990 C1994 0.949 . S
C1991 C1992 1.349 . S
C1991 C1993 1.327 . S
C1991 H2014 0.950 . S
C1992 C1991 1.349 . S
C1992 C2004 1.349 . S
C1993 C1991 1.327 . S
C1993 C2009 1.429 . S
C1993 H2015 0.950 . S
C1994 H1990 0.949 . S
C1994 C2002 1.574 . S
C1994 C2010 1.368 . S
H1995 C2003 0.950 . S
H1996 C2001 0.950 . S
H1997 C2002 0.949 . S
H1998 C2004 0.950 . S
H1999 C2005 0.950 . S
H2000 C2006 0.949 . S
C2001 H1996 0.950 . S
C2001 C2003 1.327 . S
C2001 C2007 1.429 . S
C2002 C1994 1.574 . S
C2002 H1997 0.949 . S
C2002 C2008 1.368 . S
C2003 C1987 1.349 . S
C2003 H1995 0.950 . S
C2003 C2001 1.327 . S
C2004 C1992 1.349 . S
C2004 H1998 0.950 . S
C2004 C2005 1.327 . S
C2005 H1999 0.950 . S
C2005 C2004 1.327 . S
C2005 C2009 1.429 . S
C2006 C1989 1.574 . S
C2006 H2000 0.949 . S
C2006 C2010 1.368 . S
C2007 C1988 1.429 . S
C2007 C2001 1.429 . S
C2007 C2008 1.523 . S
C2008 C1989 1.368 . S
C2008 C2002 1.368 . S
C2008 C2007 1.523 . S
C2009 C1993 1.429 . S
C2009 C2005 1.429 . S
C2009 C2010 1.523 . S
C2010 C1994 1.368 . S
C2010 C2006 1.368 . S
C2010 C2009 1.523 . S
H2011 C1986 0.950 . S
H2012 C1988 0.950 . S
H2013 C1989 0.949 . S
H2014 C1991 0.950 . S
H2015 C1993 0.950 . S
C2016 C2017 1.349 . S
C2016 C2018 1.327 . S
C2016 H2041 0.950 . S
C2017 C2016 1.349 . S
C2017 C2033 1.349 . S
C2018 C2016 1.327 . S
C2018 C2037 1.429 . S
C2018 H2042 0.950 . S
C2019 C2036 1.574 . S
C2019 C2038 1.368 1_455 S
C2019 H2043 0.949 . S
H2020 C2024 0.949 . S
C2021 C2022 1.349 . S
C2021 C2023 1.327 . S
C2021 H2044 0.950 . S
C2022 C2021 1.349 . S
C2022 C2034 1.349 . S
C2023 C2021 1.327 . S
C2023 C2039 1.429 . S
C2023 H2045 0.950 . S
C2024 H2020 0.949 . S
C2024 C2032 1.574 . S
C2024 C2040 1.368 1_655 S
H2025 C2033 0.950 . S
H2026 C2031 0.950 . S
H2027 C2032 0.949 . S
H2028 C2034 0.950 . S
H2029 C2035 0.950 . S
H2030 C2036 0.949 . S
C2031 H2026 0.950 . S
C2031 C2033 1.327 . S
C2031 C2037 1.429 . S
C2032 C2024 1.574 . S
C2032 H2027 0.949 . S
C2032 C2038 1.368 . S
C2033 C2017 1.349 . S
C2033 H2025 0.950 . S
C2033 C2031 1.327 . S
C2034 C2022 1.349 . S
C2034 H2028 0.950 . S
C2034 C2035 1.327 . S
C2035 H2029 0.950 . S
C2035 C2034 1.327 . S
C2035 C2039 1.429 . S
C2036 C2019 1.574 . S
C2036 H2030 0.949 . S
C2036 C2040 1.368 . S
C2037 C2018 1.429 . S
C2037 C2031 1.429 . S
C2037 C2038 1.523 . S
C2038 C2019 1.368 1_655 S
C2038 C2032 1.368 . S
C2038 C2037 1.523 . S
C2039 C2023 1.429 . S
C2039 C2035 1.429 . S
C2039 C2040 1.523 . S
C2040 C2024 1.368 1_455 S
C2040 C2036 1.368 . S
C2040 C2039 1.523 . S
H2041 C2016 0.950 . S
H2042 C2018 0.950 . S
H2043 C2019 0.949 . S
H2044 C2021 0.950 . S
H2045 C2023 0.950 . S
C2046 C2047 1.349 . S
C2046 C2048 1.327 . S
C2046 H2071 0.950 . S
C2047 C2046 1.349 . S
C2047 C2063 1.349 . S
C2048 C2046 1.327 . S
C2048 C2067 1.429 . S
C2048 H2072 0.950 . S
C2049 C2066 1.574 . S
C2049 C2068 1.368 . S
C2049 H2073 0.949 . S
H2050 C2054 0.949 . S
C2051 C2052 1.349 . S
C2051 C2053 1.327 . S
C2051 H2074 0.950 . S
C2052 C2051 1.349 . S
C2052 C2064 1.349 . S
C2053 C2051 1.327 . S
C2053 C2069 1.429 . S
C2053 H2075 0.950 . S
C2054 H2050 0.949 . S
C2054 C2062 1.574 . S
C2054 C2070 1.368 . S
H2055 C2063 0.950 . S
H2056 C2061 0.950 . S
H2057 C2062 0.949 . S
H2058 C2064 0.950 . S
H2059 C2065 0.950 . S
H2060 C2066 0.949 . S
C2061 H2056 0.950 . S
C2061 C2063 1.327 . S
C2061 C2067 1.429 . S
C2062 C2054 1.574 . S
C2062 H2057 0.949 . S
C2062 C2068 1.368 . S
C2063 C2047 1.349 . S
C2063 H2055 0.950 . S
C2063 C2061 1.327 . S
C2064 C2052 1.349 . S
C2064 H2058 0.950 . S
C2064 C2065 1.327 . S
C2065 H2059 0.950 . S
C2065 C2064 1.327 . S
C2065 C2069 1.429 . S
C2066 C2049 1.574 . S
C2066 H2060 0.949 . S
C2066 C2070 1.368 . S
C2067 C2048 1.429 . S
C2067 C2061 1.429 . S
C2067 C2068 1.523 . S
C2068 C2049 1.368 . S
C2068 C2062 1.368 . S
C2068 C2067 1.523 . S
C2069 C2053 1.429 . S
C2069 C2065 1.429 . S
C2069 C2070 1.523 . S
C2070 C2054 1.368 . S
C2070 C2066 1.368 . S
C2070 C2069 1.523 . S
H2071 C2046 0.950 . S
H2072 C2048 0.950 . S
H2073 C2049 0.949 . S
H2074 C2051 0.950 . S
H2075 C2053 0.950 . S
C2076 C2077 1.349 . S
C2076 C2078 1.327 . S
C2076 H2101 0.950 . S
C2077 C2076 1.349 . S
C2077 C2093 1.349 . S
C2078 C2076 1.327 . S
C2078 C2097 1.429 . S
C2078 H2102 0.950 . S
C2079 C2096 1.574 . S
C2079 C2098 1.368 . S
C2079 H2103 0.949 . S
H2080 C2084 0.949 . S
C2081 C2082 1.349 . S
C2081 C2083 1.327 . S
C2081 H2104 0.950 . S
C2082 C2081 1.349 . S
C2082 C2094 1.349 . S
C2083 C2081 1.327 . S
C2083 C2099 1.429 . S
C2083 H2105 0.950 . S
C2084 H2080 0.949 . S
C2084 C2092 1.574 . S
C2084 C2100 1.368 . S
H2085 C2093 0.950 . S
H2086 C2091 0.950 . S
H2087 C2092 0.949 . S
H2088 C2094 0.950 . S
H2089 C2095 0.950 . S
H2090 C2096 0.949 . S
C2091 H2086 0.950 . S
C2091 C2093 1.327 . S
C2091 C2097 1.429 . S
C2092 C2084 1.574 . S
C2092 H2087 0.949 . S
C2092 C2098 1.368 . S
C2093 C2077 1.349 . S
C2093 H2085 0.950 . S
C2093 C2091 1.327 . S
C2094 C2082 1.349 . S
C2094 H2088 0.950 . S
C2094 C2095 1.327 . S
C2095 H2089 0.950 . S
C2095 C2094 1.327 . S
C2095 C2099 1.429 . S
C2096 C2079 1.574 . S
C2096 H2090 0.949 . S
C2096 C2100 1.368 . S
C2097 C2078 1.429 . S
C2097 C2091 1.429 . S
C2097 C2098 1.523 . S
C2098 C2079 1.368 . S
C2098 C2092 1.368 . S
C2098 C2097 1.523 . S
C2099 C2083 1.429 . S
C2099 C2095 1.429 . S
C2099 C2100 1.523 . S
C2100 C2084 1.368 . S
C2100 C2096 1.368 . S
C2100 C2099 1.523 . S
H2101 C2076 0.950 . S
H2102 C2078 0.950 . S
H2103 C2079 0.949 . S
H2104 C2081 0.950 . S
H2105 C2083 0.950 . S
C2106 C2107 1.349 . S
C2106 C2108 1.327 . S
C2106 H2131 0.950 . S
C2107 C2106 1.349 . S
C2107 C2123 1.349 . S
C2108 C2106 1.327 . S
C2108 C2127 1.429 . S
C2108 H2132 0.950 . S
C2109 C2126 1.574 . S
C2109 C2128 1.368 . S
C2109 H2133 0.949 . S
H2110 C2114 0.949 . S
C2111 C2112 1.349 . S
C2111 C2113 1.327 . S
C2111 H2134 0.950 . S
C2112 C2111 1.349 . S
C2112 C2124 1.349 . S
C2113 C2111 1.327 . S
C2113 C2129 1.429 . S
C2113 H2135 0.950 . S
C2114 H2110 0.949 . S
C2114 C2122 1.574 . S
C2114 C2130 1.368 . S
H2115 C2123 0.950 . S
H2116 C2121 0.950 . S
H2117 C2122 0.949 . S
H2118 C2124 0.950 . S
H2119 C2125 0.950 . S
H2120 C2126 0.949 . S
C2121 H2116 0.950 . S
C2121 C2123 1.327 . S
C2121 C2127 1.429 . S
C2122 C2114 1.574 . S
C2122 H2117 0.949 . S
C2122 C2128 1.368 . S
C2123 C2107 1.349 . S
C2123 H2115 0.950 . S
C2123 C2121 1.327 . S
C2124 C2112 1.349 . S
C2124 H2118 0.950 . S
C2124 C2125 1.327 . S
C2125 H2119 0.950 . S
C2125 C2124 1.327 . S
C2125 C2129 1.429 . S
C2126 C2109 1.574 . S
C2126 H2120 0.949 . S
C2126 C2130 1.368 . S
C2127 C2108 1.429 . S
C2127 C2121 1.429 . S
C2127 C2128 1.523 . S
C2128 C2109 1.368 . S
C2128 C2122 1.368 . S
C2128 C2127 1.523 . S
C2129 C2113 1.429 . S
C2129 C2125 1.429 . S
C2129 C2130 1.523 . S
C2130 C2114 1.368 . S
C2130 C2126 1.368 . S
C2130 C2129 1.523 . S
H2131 C2106 0.950 . S
H2132 C2108 0.950 . S
H2133 C2109 0.949 . S
H2134 C2111 0.950 . S
H2135 C2113 0.950 . S
C2136 C2137 1.349 . S
C2136 C2138 1.327 . S
C2136 H2161 0.950 . S
C2137 C2136 1.349 . S
C2137 C2153 1.349 . S
C2138 C2136 1.327 . S
C2138 C2157 1.429 . S
C2138 H2162 0.950 . S
C2139 C2156 1.574 . S
C2139 C2158 1.368 . S
C2139 H2163 0.949 1_554 S
H2140 C2144 0.949 1_545 S
C2141 C2142 1.349 1_565 S
C2141 C2143 1.327 . S
C2141 H2164 0.915 1_554 S
C2142 C2141 1.349 1_545 S
C2142 C2154 1.349 . S
C2143 C2141 1.327 . S
C2143 C2159 1.429 . S
C2143 H2165 0.950 1_554 S
C2144 H2140 0.949 1_565 S
C2144 C2152 1.574 . S
C2144 C2160 1.368 . S
H2145 C2153 0.950 1_556 S
H2146 C2151 0.950 1_556 S
H2147 C2152 0.949 . S
H2148 C2154 0.950 . S
H2149 C2155 0.950 . S
H2150 C2156 0.949 1_556 S
C2151 H2146 0.950 1_554 S
C2151 C2153 1.327 . S
C2151 C2157 1.429 . S
C2152 C2144 1.574 . S
C2152 H2147 0.949 . S
C2152 C2158 1.368 . S
C2153 C2137 1.349 . S
C2153 H2145 0.950 1_554 S
C2153 C2151 1.327 . S
C2154 C2142 1.349 . S
C2154 H2148 0.950 . S
C2154 C2155 1.327 . S
C2155 H2149 0.950 . S
C2155 C2154 1.327 . S
C2155 C2159 1.429 1_545 S
C2156 C2139 1.574 . S
C2156 H2150 0.949 1_554 S
C2156 C2160 1.368 . S
C2157 C2138 1.429 . S
C2157 C2151 1.429 . S
C2157 C2158 1.523 . S
C2158 C2139 1.368 . S
C2158 C2152 1.368 . S
C2158 C2157 1.523 . S
C2159 C2143 1.429 . S
C2159 C2155 1.429 1_565 S
C2159 C2160 1.523 . S
C2160 C2144 1.368 . S
C2160 C2156 1.368 . S
C2160 C2159 1.523 . S
H2161 C2136 0.950 . S
H2162 C2138 0.950 . S
H2163 C2139 0.949 1_556 S
H2164 C2141 0.915 1_556 S
H2165 C2143 0.950 1_556 S
C2166 C2167 1.349 1_554 S
C2166 C2168 1.327 . S
C2166 H2191 0.950 . S
C2167 C2166 1.349 1_556 S
C2167 C2183 1.349 . S
C2168 C2166 1.327 . S
C2168 C2187 1.429 1_554 S
C2168 H2192 0.950 . S
C2169 C2186 1.574 . S
C2169 C2188 1.371 . S
C2169 H2193 0.949 . S
H2170 C2174 0.949 . S
C2171 C2172 1.349 1_556 S
C2171 C2173 1.327 . S
C2171 H2194 0.950 . S
C2172 C2171 1.349 1_554 S
C2172 C2184 1.349 . S
C2173 C2171 1.327 . S
C2173 C2189 1.429 1_556 S
C2173 H2195 0.950 . S
C2174 H2170 0.949 . S
C2174 C2182 1.574 . S
C2174 C2190 1.368 . S
H2175 C2183 0.950 . S
H2176 C2181 0.950 . S
H2177 C2182 0.949 . S
H2178 C2184 0.950 . S
H2179 C2185 0.950 . S
H2180 C2186 0.949 . S
C2181 H2176 0.950 . S
C2181 C2183 1.327 . S
C2181 C2187 1.429 . S
C2182 C2174 1.574 . S
C2182 H2177 0.949 . S
C2182 C2188 1.365 1_554 S
C2183 C2167 1.349 . S
C2183 H2175 0.950 . S
C2183 C2181 1.327 . S
C2184 C2172 1.349 . S
C2184 H2178 0.950 . S
C2184 C2185 1.327 . S
C2185 H2179 0.950 . S
C2185 C2184 1.327 . S
C2185 C2189 1.429 . S
C2186 C2169 1.574 . S
C2186 H2180 0.949 . S
C2186 C2190 1.368 1_556 S
C2187 C2168 1.429 1_556 S
C2187 C2181 1.429 . S
C2187 C2188 1.525 . S
C2188 C2169 1.371 . S
C2188 C2182 1.365 1_556 S
C2188 C2187 1.525 . S
C2189 C2173 1.429 1_554 S
C2189 C2185 1.429 . S
C2189 C2190 1.523 . S
C2190 C2174 1.368 . S
C2190 C2186 1.368 1_554 S
C2190 C2189 1.523 . S
H2191 C2166 0.950 . S
H2192 C2168 0.950 . S
H2193 C2169 0.949 . S
H2194 C2171 0.950 . S
H2195 C2173 0.950 . S
C2196 C2197 1.349 . S
C2196 C2198 1.327 . S
C2196 H2221 0.950 . S
C2197 C2196 1.349 . S
C2197 C2213 1.349 . S
C2198 C2196 1.327 . S
C2198 C2217 1.429 . S
C2198 H2222 0.950 . S
C2199 C2216 1.574 . S
C2199 C2218 1.368 . S
C2199 H2223 0.949 . S
H2200 C2204 0.949 . S
C2201 C2202 1.349 . S
C2201 C2203 1.327 . S
C2201 H2224 0.950 . S
C2202 C2201 1.349 . S
C2202 C2214 1.349 . S
C2203 C2201 1.327 . S
C2203 C2219 1.429 . S
C2203 H2225 0.950 . S
C2204 H2200 0.949 . S
C2204 C2212 1.574 . S
C2204 C2220 1.368 . S
H2205 C2213 0.950 . S
H2206 C2211 0.950 . S
H2207 C2212 0.949 . S
H2208 C2214 0.950 . S
H2209 C2215 0.950 . S
H2210 C2216 0.949 . S
C2211 H2206 0.950 . S
C2211 C2213 1.327 . S
C2211 C2217 1.429 . S
C2212 C2204 1.574 . S
C2212 H2207 0.949 . S
C2212 C2218 1.368 . S
C2213 C2197 1.349 . S
C2213 H2205 0.950 . S
C2213 C2211 1.327 . S
C2214 C2202 1.349 . S
C2214 H2208 0.950 . S
C2214 C2215 1.327 . S
C2215 H2209 0.950 . S
C2215 C2214 1.327 . S
C2215 C2219 1.429 . S
C2216 C2199 1.574 . S
C2216 H2210 0.949 . S
C2216 C2220 1.368 . S
C2217 C2198 1.429 . S
C2217 C2211 1.429 . S
C2217 C2218 1.523 . S
C2218 C2199 1.368 . S
C2218 C2212 1.368 . S
C2218 C2217 1.523 . S
C2219 C2203 1.429 . S
C2219 C2215 1.429 . S
C2219 C2220 1.523 . S
C2220 C2204 1.368 . S
C2220 C2216 1.368 . S
C2220 C2219 1.523 . S
H2221 C2196 0.950 . S
H2222 C2198 0.950 . S
H2223 C2199 0.949 . S
H2224 C2201 0.950 . S
H2225 C2203 0.950 . S
C2226 C2227 1.349 . S
C2226 C2228 1.327 . S
C2226 H2251 0.950 . S
C2227 C2226 1.349 . S
C2227 C2243 1.349 . S
C2228 C2226 1.327 . S
C2228 C2247 1.429 . S
C2228 H2252 0.950 . S
C2229 C2246 1.574 . S
C2229 C2248 1.368 . S
C2229 H2253 0.949 . S
H2230 C2234 0.949 . S
C2231 C2232 1.349 . S
C2231 C2233 1.327 1_455 S
C2231 H2254 0.950 . S
C2232 C2231 1.349 . S
C2232 C2244 1.349 . S
C2233 C2231 1.327 1_655 S
C2233 C2249 1.429 . S
C2233 H2255 0.950 . S
C2234 H2230 0.949 . S
C2234 C2242 1.574 . S
C2234 C2250 1.368 . S
H2235 C2243 0.950 . S
H2236 C2241 0.950 . S
H2237 C2242 0.949 . S
H2238 C2244 0.950 . S
H2239 C2245 0.950 . S
H2240 C2246 0.949 . S
C2241 H2236 0.950 . S
C2241 C2243 1.327 . S
C2241 C2247 1.429 . S
C2242 C2234 1.574 . S
C2242 H2237 0.949 . S
C2242 C2248 1.368 . S
C2243 C2227 1.349 . S
C2243 H2235 0.950 . S
C2243 C2241 1.327 . S
C2244 C2232 1.349 . S
C2244 H2238 0.950 . S
C2244 C2245 1.327 1_455 S
C2245 H2239 0.950 . S
C2245 C2244 1.327 1_655 S
C2245 C2249 1.429 . S
C2246 C2229 1.574 . S
C2246 H2240 0.949 . S
C2246 C2250 1.368 . S
C2247 C2228 1.429 . S
C2247 C2241 1.429 . S
C2247 C2248 1.523 . S
C2248 C2229 1.368 . S
C2248 C2242 1.368 . S
C2248 C2247 1.523 . S
C2249 C2233 1.429 . S
C2249 C2245 1.429 . S
C2249 C2250 1.523 . S
C2250 C2234 1.368 . S
C2250 C2246 1.368 . S
C2250 C2249 1.523 . S
H2251 C2226 0.950 . S
H2252 C2228 0.950 . S
H2253 C2229 0.949 . S
H2254 C2231 0.950 . S
H2255 C2233 0.950 . S
C2256 C2257 1.349 . S
C2256 C2258 1.327 . S
C2256 H2281 0.950 . S
C2257 C2256 1.349 . S
C2257 C2273 1.349 . S
C2258 C2256 1.327 . S
C2258 C2277 1.429 . S
C2258 H2282 0.950 . S
C2259 C2276 1.574 . S
C2259 C2278 1.368 . S
C2259 H2283 0.949 . S
H2260 C2264 0.949 . S
C2261 C2262 1.349 . S
C2261 C2263 1.327 . S
C2261 H2284 0.950 . S
C2262 C2261 1.349 . S
C2262 C2274 1.349 . S
C2263 C2261 1.327 . S
C2263 C2279 1.429 . S
C2263 H2285 0.950 . S
C2264 H2260 0.949 . S
C2264 C2272 1.574 . S
C2264 C2280 1.368 . S
H2265 C2273 0.950 . S
H2266 C2271 0.950 . S
H2267 C2272 0.949 . S
H2268 C2274 0.950 . S
H2269 C2275 0.950 . S
H2270 C2276 0.949 . S
C2271 H2266 0.950 . S
C2271 C2273 1.327 . S
C2271 C2277 1.429 . S
C2272 C2264 1.574 . S
C2272 H2267 0.949 . S
C2272 C2278 1.368 . S
C2273 C2257 1.349 . S
C2273 H2265 0.950 . S
C2273 C2271 1.327 . S
C2274 C2262 1.349 . S
C2274 H2268 0.950 . S
C2274 C2275 1.327 . S
C2275 H2269 0.950 . S
C2275 C2274 1.327 . S
C2275 C2279 1.429 . S
C2276 C2259 1.574 . S
C2276 H2270 0.949 . S
C2276 C2280 1.368 . S
C2277 C2258 1.429 . S
C2277 C2271 1.429 . S
C2277 C2278 1.523 . S
C2278 C2259 1.368 . S
C2278 C2272 1.368 . S
C2278 C2277 1.523 . S
C2279 C2263 1.429 . S
C2279 C2275 1.429 . S
C2279 C2280 1.523 . S
C2280 C2264 1.368 . S
C2280 C2276 1.368 . S
C2280 C2279 1.523 . S
H2281 C2256 0.950 . S
H2282 C2258 0.950 . S
H2283 C2259 0.949 . S
H2284 C2261 0.950 . S
H2285 C2263 0.950 . S
C2286 C2287 1.349 . S
C2286 C2288 1.327 . S
C2286 H2311 0.950 . S
C2287 C2286 1.349 . S
C2287 C2303 1.349 . S
C2288 C2286 1.327 . S
C2288 C2307 1.429 . S
C2288 H2312 0.950 . S
C2289 C2306 1.574 . S
C2289 C2308 1.368 . S
C2289 H2313 0.949 . S
H2290 C2294 0.949 . S
C2291 C2292 1.349 . S
C2291 C2293 1.327 . S
C2291 H2314 0.950 . S
C2292 C2291 1.349 . S
C2292 C2304 1.349 . S
C2293 C2291 1.327 . S
C2293 C2309 1.429 . S
C2293 H2315 0.950 . S
C2294 H2290 0.949 . S
C2294 C2302 1.574 . S
C2294 C2310 1.368 . S
H2295 C2303 0.950 . S
H2296 C2301 0.950 . S
H2297 C2302 0.949 . S
H2298 C2304 0.950 . S
H2299 C2305 0.950 . S
H2300 C2306 0.949 . S
C2301 H2296 0.950 . S
C2301 C2303 1.327 . S
C2301 C2307 1.429 . S
C2302 C2294 1.574 . S
C2302 H2297 0.949 . S
C2302 C2308 1.368 . S
C2303 C2287 1.349 . S
C2303 H2295 0.950 . S
C2303 C2301 1.327 . S
C2304 C2292 1.349 . S
C2304 H2298 0.950 . S
C2304 C2305 1.327 . S
C2305 H2299 0.950 . S
C2305 C2304 1.327 . S
C2305 C2309 1.429 . S
C2306 C2289 1.574 . S
C2306 H2300 0.949 . S
C2306 C2310 1.368 . S
C2307 C2288 1.429 . S
C2307 C2301 1.429 . S
C2307 C2308 1.523 . S
C2308 C2289 1.368 . S
C2308 C2302 1.368 . S
C2308 C2307 1.523 . S
C2309 C2293 1.429 . S
C2309 C2305 1.429 . S
C2309 C2310 1.523 . S
C2310 C2294 1.368 . S
C2310 C2306 1.368 . S
C2310 C2309 1.523 . S
H2311 C2286 0.950 . S
H2312 C2288 0.950 . S
H2313 C2289 0.949 . S
H2314 C2291 0.950 . S
H2315 C2293 0.950 . S
C2316 C2317 1.349 . S
C2316 C2318 1.327 . S
C2316 H2341 0.950 . S
C2317 C2316 1.349 . S
C2317 C2333 1.349 . S
C2318 C2316 1.327 . S
C2318 C2337 1.429 . S
C2318 H2342 0.950 . S
C2319 C2336 1.574 . S
C2319 C2338 1.368 . S
C2319 H2343 0.949 . S
H2320 C2324 0.949 . S
C2321 C2322 1.349 . S
C2321 C2323 1.327 . S
C2321 H2344 0.950 . S
C2322 C2321 1.349 . S
C2322 C2334 1.349 . S
C2323 C2321 1.327 . S
C2323 C2339 1.429 . S
C2323 H2345 0.950 . S
C2324 H2320 0.949 . S
C2324 C2332 1.574 . S
C2324 C2340 1.368 . S
H2325 C2333 0.950 . S
H2326 C2331 0.950 . S
H2327 C2332 0.949 . S
H2328 C2334 0.950 . S
H2329 C2335 0.950 . S
H2330 C2336 0.949 . S
C2331 H2326 0.950 . S
C2331 C2333 1.327 . S
C2331 C2337 1.429 . S
C2332 C2324 1.574 . S
C2332 H2327 0.949 . S
C2332 C2338 1.368 . S
C2333 C2317 1.349 . S
C2333 H2325 0.950 . S
C2333 C2331 1.327 . S
C2334 C2322 1.349 . S
C2334 H2328 0.950 . S
C2334 C2335 1.327 . S
C2335 H2329 0.950 . S
C2335 C2334 1.327 . S
C2335 C2339 1.429 . S
C2336 C2319 1.574 . S
C2336 H2330 0.949 . S
C2336 C2340 1.368 . S
C2337 C2318 1.429 . S
C2337 C2331 1.429 . S
C2337 C2338 1.523 . S
C2338 C2319 1.368 . S
C2338 C2332 1.368 . S
C2338 C2337 1.523 . S
C2339 C2323 1.429 . S
C2339 C2335 1.429 . S
C2339 C2340 1.523 . S
C2340 C2324 1.368 . S
C2340 C2336 1.368 . S
C2340 C2339 1.523 . S
H2341 C2316 0.950 . S
H2342 C2318 0.950 . S
H2343 C2319 0.949 . S
H2344 C2321 0.950 . S
H2345 C2323 0.950 . S
C2346 C2347 1.349 . S
C2346 C2348 1.327 . S
C2346 H2371 0.950 . S
C2347 C2346 1.349 . S
C2347 C2363 1.349 . S
C2348 C2346 1.327 . S
C2348 C2367 1.429 . S
C2348 H2372 0.950 . S
C2349 C2366 1.574 . S
C2349 C2368 1.368 . S
C2349 H2373 0.949 . S
H2350 C2354 0.949 . S
C2351 C2352 1.349 . S
C2351 C2353 1.327 . S
C2351 H2374 0.950 . S
C2352 C2351 1.349 . S
C2352 C2364 1.349 . S
C2353 C2351 1.327 . S
C2353 C2369 1.429 . S
C2353 H2375 0.950 . S
C2354 H2350 0.949 . S
C2354 C2362 1.574 . S
C2354 C2370 1.368 . S
H2355 C2363 0.950 . S
H2356 C2361 0.950 . S
H2357 C2362 0.949 . S
H2358 C2364 0.950 . S
H2359 C2365 0.950 . S
H2360 C2366 0.949 . S
C2361 H2356 0.950 . S
C2361 C2363 1.327 . S
C2361 C2367 1.429 . S
C2362 C2354 1.574 . S
C2362 H2357 0.949 . S
C2362 C2368 1.368 . S
C2363 C2347 1.349 . S
C2363 H2355 0.950 . S
C2363 C2361 1.327 . S
C2364 C2352 1.349 . S
C2364 H2358 0.950 . S
C2364 C2365 1.327 . S
C2365 H2359 0.950 . S
C2365 C2364 1.327 . S
C2365 C2369 1.429 . S
C2366 C2349 1.574 . S
C2366 H2360 0.949 . S
C2366 C2370 1.368 . S
C2367 C2348 1.429 . S
C2367 C2361 1.429 . S
C2367 C2368 1.523 . S
C2368 C2349 1.368 . S
C2368 C2362 1.368 . S
C2368 C2367 1.523 . S
C2369 C2353 1.429 . S
C2369 C2365 1.429 . S
C2369 C2370 1.523 . S
C2370 C2354 1.368 . S
C2370 C2366 1.368 . S
C2370 C2369 1.523 . S
H2371 C2346 0.950 . S
H2372 C2348 0.950 . S
H2373 C2349 0.949 . S
H2374 C2351 0.950 . S
H2375 C2353 0.950 . S
C2376 C2377 1.349 . S
C2376 C2378 1.327 . S
C2376 H2401 0.950 . S
C2377 C2376 1.349 . S
C2377 C2393 1.349 . S
C2378 C2376 1.327 . S
C2378 C2397 1.429 . S
C2378 H2402 0.950 . S
C2379 C2396 1.574 . S
C2379 C2398 1.368 . S
C2379 H2403 0.949 . S
H2380 C2384 0.949 . S
C2381 C2382 1.349 . S
C2381 C2383 1.327 . S
C2381 H2404 0.950 . S
C2382 C2381 1.349 . S
C2382 C2394 1.349 . S
C2383 C2381 1.327 . S
C2383 C2399 1.429 . S
C2383 H2405 0.950 . S
C2384 H2380 0.949 . S
C2384 C2392 1.574 . S
C2384 C2400 1.368 . S
H2385 C2393 0.950 . S
H2386 C2391 0.950 . S
H2387 C2392 0.949 . S
H2388 C2394 0.907 1_556 S
H2389 C2395 0.950 . S
H2390 C2396 0.949 . S
C2391 H2386 0.950 . S
C2391 C2393 1.327 . S
C2391 C2397 1.429 . S
C2392 C2384 1.574 . S
C2392 H2387 0.949 . S
C2392 C2398 1.368 . S
C2393 C2377 1.349 . S
C2393 H2385 0.950 . S
C2393 C2391 1.327 . S
C2394 C2382 1.349 . S
C2394 H2388 0.907 1_554 S
C2394 C2395 1.327 . S
C2395 H2389 0.950 . S
C2395 C2394 1.327 . S
C2395 C2399 1.429 . S
C2396 C2379 1.574 . S
C2396 H2390 0.949 . S
C2396 C2400 1.368 . S
C2397 C2378 1.429 . S
C2397 C2391 1.429 . S
C2397 C2398 1.523 . S
C2398 C2379 1.368 . S
C2398 C2392 1.368 . S
C2398 C2397 1.523 . S
C2399 C2383 1.429 . S
C2399 C2395 1.429 . S
C2399 C2400 1.523 . S
C2400 C2384 1.368 . S
C2400 C2396 1.368 . S
C2400 C2399 1.523 . S
H2401 C2376 0.950 . S
H2402 C2378 0.950 . S
H2403 C2379 0.949 . S
H2404 C2381 0.950 . S
H2405 C2383 0.950 . S
C2406 C2407 1.349 . S
C2406 C2408 1.327 . S
C2406 H2431 0.950 . S
C2407 C2406 1.349 . S
C2407 C2423 1.349 . S
C2408 C2406 1.327 . S
C2408 C2427 1.429 . S
C2408 H2432 0.950 . S
C2409 C2426 1.574 . S
C2409 C2428 1.368 . S
C2409 H2433 0.949 . S
H2410 C2414 0.949 . S
C2411 C2412 1.349 . S
C2411 C2413 1.327 . S
C2411 H2434 0.950 . S
C2412 C2411 1.349 . S
C2412 C2424 1.349 . S
C2413 C2411 1.327 . S
C2413 C2429 1.429 . S
C2413 H2435 0.950 . S
C2414 H2410 0.949 . S
C2414 C2422 1.574 . S
C2414 C2430 1.368 . S
H2415 C2423 0.950 . S
H2416 C2421 0.950 . S
H2417 C2422 0.949 . S
H2418 C2424 0.950 . S
H2419 C2425 0.950 . S
H2420 C2426 0.949 . S
C2421 H2416 0.950 . S
C2421 C2423 1.327 . S
C2421 C2427 1.429 . S
C2422 C2414 1.574 . S
C2422 H2417 0.949 . S
C2422 C2428 1.368 . S
C2423 C2407 1.349 . S
C2423 H2415 0.950 . S
C2423 C2421 1.327 . S
C2424 C2412 1.349 . S
C2424 H2418 0.950 . S
C2424 C2425 1.327 . S
C2425 H2419 0.950 . S
C2425 C2424 1.327 . S
C2425 C2429 1.429 . S
C2426 C2409 1.574 . S
C2426 H2420 0.949 . S
C2426 C2430 1.368 . S
C2427 C2408 1.429 . S
C2427 C2421 1.429 . S
C2427 C2428 1.523 . S
C2428 C2409 1.368 . S
C2428 C2422 1.368 . S
C2428 C2427 1.523 . S
C2429 C2413 1.429 . S
C2429 C2425 1.429 . S
C2429 C2430 1.523 . S
C2430 C2414 1.368 . S
C2430 C2426 1.368 . S
C2430 C2429 1.523 . S
H2431 C2406 0.950 . S
H2432 C2408 0.950 . S
H2433 C2409 0.949 . S
H2434 C2411 0.950 . S
H2435 C2413 0.950 . S
C2436 C2437 1.349 . S
C2436 C2438 1.327 . S
C2436 H2461 0.950 . S
C2437 C2436 1.349 . S
C2437 C2453 1.349 . S
C2438 C2436 1.327 . S
C2438 C2457 1.429 . S
C2438 H2462 0.950 . S
C2439 C2456 1.574 . S
C2439 C2458 1.368 . S
C2439 H2463 0.949 . S
H2440 C2444 0.949 . S
C2441 C2442 1.349 . S
C2441 C2443 1.327 . S
C2441 H2464 0.950 . S
C2442 C2441 1.349 . S
C2442 C2454 1.349 . S
C2443 C2441 1.327 . S
C2443 C2459 1.429 . S
C2443 H2465 0.950 . S
C2444 H2440 0.949 . S
C2444 C2452 1.574 . S
C2444 C2460 1.368 . S
H2445 C2453 0.950 . S
H2446 C2451 0.950 . S
H2447 C2452 0.949 . S
H2448 C2454 0.950 . S
H2449 C2455 0.950 . S
H2450 C2456 0.949 . S
C2451 H2446 0.950 . S
C2451 C2453 1.327 . S
C2451 C2457 1.429 . S
C2452 C2444 1.574 . S
C2452 H2447 0.949 . S
C2452 C2458 1.368 . S
C2453 C2437 1.349 . S
C2453 H2445 0.950 . S
C2453 C2451 1.327 . S
C2454 C2442 1.349 . S
C2454 H2448 0.950 . S
C2454 C2455 1.327 . S
C2455 H2449 0.950 . S
C2455 C2454 1.327 . S
C2455 C2459 1.429 . S
C2456 C2439 1.574 . S
C2456 H2450 0.949 . S
C2456 C2460 1.368 . S
C2457 C2438 1.429 . S
C2457 C2451 1.429 . S
C2457 C2458 1.523 . S
C2458 C2439 1.368 . S
C2458 C2452 1.368 . S
C2458 C2457 1.523 . S
C2459 C2443 1.429 . S
C2459 C2455 1.429 . S
C2459 C2460 1.523 . S
C2460 C2444 1.368 . S
C2460 C2456 1.368 . S
C2460 C2459 1.523 . S
H2461 C2436 0.950 . S
H2462 C2438 0.950 . S
H2463 C2439 0.949 . S
H2464 C2441 0.950 . S
H2465 C2443 0.950 . S
C2466 C2467 1.349 . S
C2466 C2468 1.327 . S
C2466 H2491 0.950 . S
C2467 C2466 1.349 . S
C2467 C2483 1.349 . S
C2468 C2466 1.327 . S
C2468 C2487 1.429 . S
C2468 H2492 0.950 . S
C2469 C2486 1.574 . S
C2469 C2488 1.368 . S
C2469 H2493 0.949 . S
H2470 C2474 0.949 . S
C2471 C2472 1.349 . S
C2471 C2473 1.327 . S
C2471 H2494 0.950 . S
C2472 C2471 1.349 . S
C2472 C2484 1.349 . S
C2473 C2471 1.327 . S
C2473 C2489 1.429 . S
C2473 H2495 0.950 . S
C2474 H2470 0.949 . S
C2474 C2482 1.574 . S
C2474 C2490 1.368 . S
H2475 C2483 0.950 . S
H2476 C2481 0.950 . S
H2477 C2482 0.949 . S
H2478 C2484 0.950 . S
H2479 C2485 0.950 . S
H2480 C2486 0.949 . S
C2481 H2476 0.950 . S
C2481 C2483 1.327 . S
C2481 C2487 1.429 . S
C2482 C2474 1.574 . S
C2482 H2477 0.949 . S
C2482 C2488 1.368 . S
C2483 C2467 1.349 . S
C2483 H2475 0.950 . S
C2483 C2481 1.327 . S
C2484 C2472 1.349 . S
C2484 H2478 0.950 . S
C2484 C2485 1.327 . S
C2485 H2479 0.950 . S
C2485 C2484 1.327 . S
C2485 C2489 1.429 . S
C2486 C2469 1.574 . S
C2486 H2480 0.949 . S
C2486 C2490 1.368 . S
C2487 C2468 1.429 . S
C2487 C2481 1.429 . S
C2487 C2488 1.523 . S
C2488 C2469 1.368 . S
C2488 C2482 1.368 . S
C2488 C2487 1.523 . S
C2489 C2473 1.429 . S
C2489 C2485 1.429 . S
C2489 C2490 1.523 . S
C2490 C2474 1.368 . S
C2490 C2486 1.368 . S
C2490 C2489 1.523 . S
H2491 C2466 0.950 . S
H2492 C2468 0.950 . S
H2493 C2469 0.949 . S
H2494 C2471 0.950 . S
H2495 C2473 0.950 . S
C2496 C2497 1.349 . S
C2496 C2498 1.327 . S
C2496 H2521 0.950 . S
C2497 C2496 1.349 . S
C2497 C2513 1.349 . S
C2498 C2496 1.327 . S
C2498 C2517 1.429 . S
C2498 H2522 0.950 . S
C2499 C2516 1.574 . S
C2499 C2518 1.368 . S
C2499 H2523 0.949 . S
H2500 C2504 0.949 . S
C2501 C2502 1.349 . S
C2501 C2503 1.327 . S
C2501 H2524 0.950 . S
C2502 C2501 1.349 . S
C2502 C2514 1.349 . S
C2503 C2501 1.327 . S
C2503 C2519 1.429 . S
C2503 H2525 0.950 . S
C2504 H2500 0.949 . S
C2504 C2512 1.574 . S
C2504 C2520 1.368 . S
H2505 C2513 0.950 . S
H2506 C2511 0.950 . S
H2507 C2512 0.949 . S
H2508 C2514 0.950 . S
H2509 C2515 0.950 . S
H2510 C2516 0.949 . S
C2511 H2506 0.950 . S
C2511 C2513 1.327 . S
C2511 C2517 1.429 . S
C2512 C2504 1.574 . S
C2512 H2507 0.949 . S
C2512 C2518 1.368 . S
C2513 C2497 1.349 . S
C2513 H2505 0.950 . S
C2513 C2511 1.327 . S
C2514 C2502 1.349 . S
C2514 H2508 0.950 . S
C2514 C2515 1.327 . S
C2515 H2509 0.950 . S
C2515 C2514 1.327 . S
C2515 C2519 1.429 . S
C2516 C2499 1.574 . S
C2516 H2510 0.949 . S
C2516 C2520 1.368 . S
C2517 C2498 1.429 . S
C2517 C2511 1.429 . S
C2517 C2518 1.523 . S
C2518 C2499 1.368 . S
C2518 C2512 1.368 . S
C2518 C2517 1.523 . S
C2519 C2503 1.429 . S
C2519 C2515 1.429 . S
C2519 C2520 1.523 . S
C2520 C2504 1.368 . S
C2520 C2516 1.368 . S
C2520 C2519 1.523 . S
H2521 C2496 0.950 . S
H2522 C2498 0.950 . S
H2523 C2499 0.949 . S
H2524 C2501 0.950 . S
H2525 C2503 0.950 . S
C2526 C2527 1.349 . S
C2526 C2528 1.327 . S
C2526 H2551 0.950 . S
C2527 C2526 1.349 . S
C2527 C2543 1.349 . S
C2528 C2526 1.327 . S
C2528 C2547 1.429 . S
C2528 H2552 0.950 . S
C2529 C2546 1.574 . S
C2529 C2548 1.368 . S
C2529 H2553 0.949 . S
H2530 C2534 0.949 . S
C2531 C2532 1.349 . S
C2531 C2533 1.327 . S
C2531 H2554 0.950 . S
C2532 C2531 1.349 . S
C2532 C2544 1.349 . S
C2533 C2531 1.327 . S
C2533 C2549 1.429 . S
C2533 H2555 0.950 . S
C2534 H2530 0.949 . S
C2534 C2542 1.574 . S
C2534 C2550 1.368 . S
H2535 C2543 0.950 . S
H2536 C2541 0.950 . S
H2537 C2542 0.949 . S
H2538 C2544 0.950 . S
H2539 C2545 0.950 . S
H2540 C2546 0.949 . S
C2541 H2536 0.950 . S
C2541 C2543 1.327 . S
C2541 C2547 1.429 . S
C2542 C2534 1.574 . S
C2542 H2537 0.949 . S
C2542 C2548 1.368 . S
C2543 C2527 1.349 . S
C2543 H2535 0.950 . S
C2543 C2541 1.327 . S
C2544 C2532 1.349 . S
C2544 H2538 0.950 . S
C2544 C2545 1.327 . S
C2545 H2539 0.950 . S
C2545 C2544 1.327 . S
C2545 C2549 1.429 . S
C2546 C2529 1.574 . S
C2546 H2540 0.949 . S
C2546 C2550 1.368 . S
C2547 C2528 1.429 . S
C2547 C2541 1.429 . S
C2547 C2548 1.523 . S
C2548 C2529 1.368 . S
C2548 C2542 1.368 . S
C2548 C2547 1.523 . S
C2549 C2533 1.429 . S
C2549 C2545 1.429 . S
C2549 C2550 1.523 . S
C2550 C2534 1.368 . S
C2550 C2546 1.368 . S
C2550 C2549 1.523 . S
H2551 C2526 0.950 . S
H2552 C2528 0.950 . S
H2553 C2529 0.949 . S
H2554 C2531 0.950 . S
H2555 C2533 0.950 . S
C2556 C2557 1.349 . S
C2556 C2558 1.327 . S
C2556 H2581 0.950 . S
C2557 C2556 1.349 . S
C2557 C2573 1.349 . S
C2558 C2556 1.327 . S
C2558 C2577 1.429 . S
C2558 H2582 0.950 . S
C2559 C2576 1.574 . S
C2559 C2578 1.368 . S
C2559 H2583 0.949 . S
H2560 C2564 0.949 . S
C2561 C2562 1.347 1_556 S
C2561 C2563 1.327 . S
C2561 H2584 0.950 . S
C2562 C2561 1.347 1_554 S
C2562 C2574 1.350 . S
C2563 C2561 1.327 . S
C2563 C2579 1.429 . S
C2563 H2585 0.950 . S
C2564 H2560 0.949 . S
C2564 C2572 1.574 . S
C2564 C2580 1.368 . S
H2565 C2573 0.950 . S
H2566 C2571 0.950 . S
H2567 C2572 0.949 . S
H2568 C2574 0.950 . S
H2569 C2575 0.950 1_554 S
H2570 C2576 0.949 . S
C2571 H2566 0.950 . S
C2571 C2573 1.327 . S
C2571 C2577 1.429 . S
C2572 C2564 1.574 . S
C2572 H2567 0.949 . S
C2572 C2578 1.368 . S
C2573 C2557 1.349 . S
C2573 H2565 0.950 . S
C2573 C2571 1.327 . S
C2574 C2562 1.350 . S
C2574 H2568 0.950 . S
C2574 C2575 1.327 1_554 S
C2575 H2569 0.950 1_556 S
C2575 C2574 1.327 1_556 S
C2575 C2579 1.429 . S
C2576 C2559 1.574 . S
C2576 H2570 0.949 . S
C2576 C2580 1.368 . S
C2577 C2558 1.429 . S
C2577 C2571 1.429 . S
C2577 C2578 1.523 . S
C2578 C2559 1.368 . S
C2578 C2572 1.368 . S
C2578 C2577 1.523 . S
C2579 C2563 1.429 . S
C2579 C2575 1.429 . S
C2579 C2580 1.523 . S
C2580 C2564 1.368 . S
C2580 C2576 1.368 . S
C2580 C2579 1.523 . S
H2581 C2556 0.950 . S
H2582 C2558 0.950 . S
H2583 C2559 0.949 . S
H2584 C2561 0.950 . S
H2585 C2563 0.950 . S
C2586 C2587 1.349 . S
C2586 C2588 1.327 . S
C2586 H2611 0.950 . S
C2587 C2586 1.349 . S
C2587 C2603 1.349 . S
C2588 C2586 1.327 . S
C2588 C2607 1.429 . S
C2588 H2612 0.950 . S
C2589 C2606 1.574 . S
C2589 C2608 1.368 . S
C2589 H2613 0.949 . S
H2590 C2594 0.949 . S
C2591 C2592 1.349 . S
C2591 C2593 1.327 . S
C2591 H2614 0.950 . S
C2592 C2591 1.349 . S
C2592 C2604 1.349 . S
C2593 C2591 1.327 . S
C2593 C2609 1.429 . S
C2593 H2615 0.950 . S
C2594 H2590 0.949 . S
C2594 C2602 1.574 . S
C2594 C2610 1.368 . S
H2595 C2603 0.950 . S
H2596 C2601 0.950 . S
H2597 C2602 0.949 . S
H2598 C2604 0.950 . S
H2599 C2605 0.950 . S
H2600 C2606 0.949 . S
C2601 H2596 0.950 . S
C2601 C2603 1.327 . S
C2601 C2607 1.429 . S
C2602 C2594 1.574 . S
C2602 H2597 0.949 . S
C2602 C2608 1.368 . S
C2603 C2587 1.349 . S
C2603 H2595 0.950 . S
C2603 C2601 1.327 . S
C2604 C2592 1.349 . S
C2604 H2598 0.950 . S
C2604 C2605 1.327 . S
C2605 H2599 0.950 . S
C2605 C2604 1.327 . S
C2605 C2609 1.429 . S
C2606 C2589 1.574 . S
C2606 H2600 0.949 . S
C2606 C2610 1.368 . S
C2607 C2588 1.429 . S
C2607 C2601 1.429 . S
C2607 C2608 1.523 . S
C2608 C2589 1.368 . S
C2608 C2602 1.368 . S
C2608 C2607 1.523 . S
C2609 C2593 1.429 . S
C2609 C2605 1.429 . S
C2609 C2610 1.523 . S
C2610 C2594 1.368 . S
C2610 C2606 1.368 . S
C2610 C2609 1.523 . S
H2611 C2586 0.950 . S
H2612 C2588 0.950 . S
H2613 C2589 0.949 . S
H2614 C2591 0.950 . S
H2615 C2593 0.950 . S
C2616 C2617 1.349 . S
C2616 C2618 1.327 . S
C2616 H2641 0.950 . S
C2617 C2616 1.349 . S
C2617 C2633 1.349 1_545 S
C2618 C2616 1.327 . S
C2618 C2637 1.429 . S
C2618 H2642 0.950 . S
C2619 C2636 1.574 . S
C2619 C2638 1.368 1_565 S
C2619 H2643 0.949 . S
H2620 C2624 0.949 . S
C2621 C2622 1.336 1_565 S
C2621 C2623 1.328 . S
C2621 H2644 0.962 . S
C2622 C2621 1.336 1_545 S
C2622 C2634 1.349 . S
C2623 C2621 1.328 . S
C2623 C2639 1.429 1_565 S
C2623 H2645 0.950 . S
C2624 H2620 0.949 . S
C2624 C2632 1.574 . S
C2624 C2640 1.368 . S
H2625 C2633 0.950 . S
H2626 C2631 0.950 . S
H2627 C2632 0.949 . S
H2628 C2634 0.950 . S
H2629 C2635 0.950 . S
H2630 C2636 0.949 . S
C2631 H2626 0.950 . S
C2631 C2633 1.327 . S
C2631 C2637 1.429 1_565 S
C2632 C2624 1.574 . S
C2632 H2627 0.949 . S
C2632 C2638 1.368 . S
C2633 C2617 1.349 1_565 S
C2633 H2625 0.950 . S
C2633 C2631 1.327 . S
C2634 C2622 1.349 . S
C2634 H2628 0.950 . S
C2634 C2635 1.327 . S
C2635 H2629 0.950 . S
C2635 C2634 1.327 . S
C2635 C2639 1.429 . S
C2636 C2619 1.574 . S
C2636 H2630 0.949 . S
C2636 C2640 1.368 1_565 S
C2637 C2618 1.429 . S
C2637 C2631 1.429 1_545 S
C2637 C2638 1.523 . S
C2638 C2619 1.368 1_545 S
C2638 C2632 1.368 . S
C2638 C2637 1.523 . S
C2639 C2623 1.429 1_545 S
C2639 C2635 1.429 . S
C2639 C2640 1.523 . S
C2640 C2624 1.368 . S
C2640 C2636 1.368 1_545 S
C2640 C2639 1.523 . S
H2641 C2616 0.950 . S
H2642 C2618 0.950 . S
H2643 C2619 0.949 . S
H2644 C2621 0.962 . S
H2645 C2623 0.950 . S
C2646 C2647 1.349 . S
C2646 C2648 1.327 . S
C2646 H2671 0.950 . S
C2647 C2646 1.349 . S
C2647 C2663 1.349 . S
C2648 C2646 1.327 . S
C2648 C2667 1.429 . S
C2648 H2672 0.950 . S
C2649 C2666 1.574 . S
C2649 C2668 1.368 . S
C2649 H2673 0.949 . S
H2650 C2654 0.949 . S
C2651 C2652 1.349 . S
C2651 C2653 1.327 . S
C2651 H2674 0.950 . S
C2652 C2651 1.349 . S
C2652 C2664 1.349 . S
C2653 C2651 1.327 . S
C2653 C2669 1.429 . S
C2653 H2675 0.950 . S
C2654 H2650 0.949 . S
C2654 C2662 1.574 . S
C2654 C2670 1.368 . S
H2655 C2663 0.950 . S
H2656 C2661 0.950 . S
H2657 C2662 0.949 . S
H2658 C2664 0.950 . S
H2659 C2665 0.950 . S
H2660 C2666 0.949 . S
C2661 H2656 0.950 . S
C2661 C2663 1.327 . S
C2661 C2667 1.429 . S
C2662 C2654 1.574 . S
C2662 H2657 0.949 . S
C2662 C2668 1.368 . S
C2663 C2647 1.349 . S
C2663 H2655 0.950 . S
C2663 C2661 1.327 . S
C2664 C2652 1.349 . S
C2664 H2658 0.950 . S
C2664 C2665 1.327 . S
C2665 H2659 0.950 . S
C2665 C2664 1.327 . S
C2665 C2669 1.429 . S
C2666 C2649 1.574 . S
C2666 H2660 0.949 . S
C2666 C2670 1.368 . S
C2667 C2648 1.429 . S
C2667 C2661 1.429 . S
C2667 C2668 1.523 . S
C2668 C2649 1.368 . S
C2668 C2662 1.368 . S
C2668 C2667 1.523 . S
C2669 C2653 1.429 . S
C2669 C2665 1.429 . S
C2669 C2670 1.523 . S
C2670 C2654 1.368 . S
C2670 C2666 1.368 . S
C2670 C2669 1.523 . S
H2671 C2646 0.950 . S
H2672 C2648 0.950 . S
H2673 C2649 0.949 . S
H2674 C2651 0.950 . S
H2675 C2653 0.950 . S
C2676 C2677 1.349 . S
C2676 C2678 1.327 . S
C2676 H2701 0.950 . S
C2677 C2676 1.349 . S
C2677 C2693 1.349 . S
C2678 C2676 1.327 . S
C2678 C2697 1.429 . S
C2678 H2702 0.950 . S
C2679 C2696 1.574 . S
C2679 C2698 1.368 . S
C2679 H2703 0.949 . S
H2680 C2684 0.949 . S
C2681 C2682 1.349 . S
C2681 C2683 1.327 . S
C2681 H2704 0.950 . S
C2682 C2681 1.349 . S
C2682 C2694 1.349 . S
C2683 C2681 1.327 . S
C2683 C2699 1.429 . S
C2683 H2705 0.950 . S
C2684 H2680 0.949 . S
C2684 C2692 1.574 . S
C2684 C2700 1.368 . S
H2685 C2693 0.950 . S
H2686 C2691 0.950 . S
H2687 C2692 0.949 . S
H2688 C2694 0.950 . S
H2689 C2695 0.950 . S
H2690 C2696 0.949 . S
C2691 H2686 0.950 . S
C2691 C2693 1.327 . S
C2691 C2697 1.429 . S
C2692 C2684 1.574 . S
C2692 H2687 0.949 . S
C2692 C2698 1.368 . S
C2693 C2677 1.349 . S
C2693 H2685 0.950 . S
C2693 C2691 1.327 . S
C2694 C2682 1.349 . S
C2694 H2688 0.950 . S
C2694 C2695 1.327 . S
C2695 H2689 0.950 . S
C2695 C2694 1.327 . S
C2695 C2699 1.429 . S
C2696 C2679 1.574 . S
C2696 H2690 0.949 . S
C2696 C2700 1.368 . S
C2697 C2678 1.429 . S
C2697 C2691 1.429 . S
C2697 C2698 1.523 . S
C2698 C2679 1.368 . S
C2698 C2692 1.368 . S
C2698 C2697 1.523 . S
C2699 C2683 1.429 . S
C2699 C2695 1.429 . S
C2699 C2700 1.523 . S
C2700 C2684 1.368 . S
C2700 C2696 1.368 . S
C2700 C2699 1.523 . S
H2701 C2676 0.950 . S
H2702 C2678 0.950 . S
H2703 C2679 0.949 . S
H2704 C2681 0.950 . S
H2705 C2683 0.950 . S
C2706 C2707 1.349 . S
C2706 C2708 1.327 . S
C2706 H2731 0.950 . S
C2707 C2706 1.349 . S
C2707 C2723 1.349 . S
C2708 C2706 1.327 . S
C2708 C2727 1.429 . S
C2708 H2732 0.950 . S
C2709 C2726 1.574 . S
C2709 C2728 1.368 . S
C2709 H2733 0.949 . S
H2710 C2714 0.949 . S
C2711 C2712 1.349 . S
C2711 C2713 1.327 . S
C2711 H2734 0.950 . S
C2712 C2711 1.349 . S
C2712 C2724 1.349 . S
C2713 C2711 1.327 . S
C2713 C2729 1.429 . S
C2713 H2735 0.950 . S
C2714 H2710 0.949 . S
C2714 C2722 1.574 . S
C2714 C2730 1.368 . S
H2715 C2723 0.950 . S
H2716 C2721 0.950 . S
H2717 C2722 0.949 . S
H2718 C2724 0.950 . S
H2719 C2725 0.950 . S
H2720 C2726 0.949 . S
C2721 H2716 0.950 . S
C2721 C2723 1.327 . S
C2721 C2727 1.429 . S
C2722 C2714 1.574 . S
C2722 H2717 0.949 . S
C2722 C2728 1.368 . S
C2723 C2707 1.349 . S
C2723 H2715 0.950 . S
C2723 C2721 1.327 . S
C2724 C2712 1.349 . S
C2724 H2718 0.950 . S
C2724 C2725 1.327 . S
C2725 H2719 0.950 . S
C2725 C2724 1.327 . S
C2725 C2729 1.429 . S
C2726 C2709 1.574 . S
C2726 H2720 0.949 . S
C2726 C2730 1.368 . S
C2727 C2708 1.429 . S
C2727 C2721 1.429 . S
C2727 C2728 1.523 . S
C2728 C2709 1.368 . S
C2728 C2722 1.368 . S
C2728 C2727 1.523 . S
C2729 C2713 1.429 . S
C2729 C2725 1.429 . S
C2729 C2730 1.523 . S
C2730 C2714 1.368 . S
C2730 C2726 1.368 . S
C2730 C2729 1.523 . S
H2731 C2706 0.950 . S
H2732 C2708 0.950 . S
H2733 C2709 0.949 . S
H2734 C2711 0.950 . S
H2735 C2713 0.950 . S
C2736 C2737 1.349 . S
C2736 C2738 1.327 . S
C2736 H2761 0.950 . S
C2737 C2736 1.349 . S
C2737 C2753 1.349 1_565 S
C2738 C2736 1.327 . S
C2738 C2757 1.429 1_565 S
C2738 H2762 0.950 . S
C2739 C2756 1.574 . S
C2739 C2758 1.368 . S
C2739 H2763 0.949 . S
H2740 C2744 0.949 1_565 S
C2741 C2742 1.349 . S
C2741 C2743 1.327 . S
C2741 H2764 0.950 . S
C2742 C2741 1.349 . S
C2742 C2754 1.349 . S
C2743 C2741 1.327 . S
C2743 C2759 1.429 . S
C2743 H2765 0.950 . S
C2744 H2740 0.949 1_545 S
C2744 C2752 1.574 1_545 S
C2744 C2760 1.368 . S
H2745 C2753 0.950 . S
H2746 C2751 0.950 . S
H2747 C2752 0.949 . S
H2748 C2754 0.950 . S
H2749 C2755 0.899 1_565 S
H2750 C2756 0.949 . S
C2751 H2746 0.950 . S
C2751 C2753 1.327 . S
C2751 C2757 1.429 . S
C2752 C2744 1.574 1_565 S
C2752 H2747 0.949 . S
C2752 C2758 1.368 1_565 S
C2753 C2737 1.349 1_545 S
C2753 H2745 0.950 . S
C2753 C2751 1.327 . S
C2754 C2742 1.349 . S
C2754 H2748 0.950 . S
C2754 C2755 1.327 . S
C2755 H2749 0.899 1_545 S
C2755 C2754 1.327 . S
C2755 C2759 1.429 . S
C2756 C2739 1.574 . S
C2756 H2750 0.949 . S
C2756 C2760 1.368 . S
C2757 C2738 1.429 1_545 S
C2757 C2751 1.429 . S
C2757 C2758 1.523 . S
C2758 C2739 1.368 . S
C2758 C2752 1.368 1_545 S
C2758 C2757 1.523 . S
C2759 C2743 1.429 . S
C2759 C2755 1.429 . S
C2759 C2760 1.523 . S
C2760 C2744 1.368 . S
C2760 C2756 1.368 . S
C2760 C2759 1.523 . S
H2761 C2736 0.950 . S
H2762 C2738 0.950 . S
H2763 C2739 0.949 . S
H2764 C2741 0.950 . S
H2765 C2743 0.950 . S
C2766 C2767 1.349 . S
C2766 C2768 1.327 . S
C2766 H2791 0.950 . S
C2767 C2766 1.349 . S
C2767 C2783 1.349 . S
C2768 C2766 1.327 . S
C2768 C2787 1.429 . S
C2768 H2792 0.950 . S
C2769 C2786 1.574 . S
C2769 C2788 1.368 . S
C2769 H2793 0.949 . S
H2770 C2774 0.949 . S
C2771 C2772 1.349 . S
C2771 C2773 1.327 . S
C2771 H2794 0.950 . S
C2772 C2771 1.349 . S
C2772 C2784 1.349 . S
C2773 C2771 1.327 . S
C2773 C2789 1.429 . S
C2773 H2795 0.950 . S
C2774 H2770 0.949 . S
C2774 C2782 1.574 . S
C2774 C2790 1.368 . S
H2775 C2783 0.950 . S
H2776 C2781 0.950 . S
H2777 C2782 0.949 . S
H2778 C2784 0.950 . S
H2779 C2785 0.950 . S
H2780 C2786 0.949 . S
C2781 H2776 0.950 . S
C2781 C2783 1.327 . S
C2781 C2787 1.429 . S
C2782 C2774 1.574 . S
C2782 H2777 0.949 . S
C2782 C2788 1.368 . S
C2783 C2767 1.349 . S
C2783 H2775 0.950 . S
C2783 C2781 1.327 . S
C2784 C2772 1.349 . S
C2784 H2778 0.950 . S
C2784 C2785 1.327 . S
C2785 H2779 0.950 . S
C2785 C2784 1.327 . S
C2785 C2789 1.429 . S
C2786 C2769 1.574 . S
C2786 H2780 0.949 . S
C2786 C2790 1.368 . S
C2787 C2768 1.429 . S
C2787 C2781 1.429 . S
C2787 C2788 1.523 . S
C2788 C2769 1.368 . S
C2788 C2782 1.368 . S
C2788 C2787 1.523 . S
C2789 C2773 1.429 . S
C2789 C2785 1.429 . S
C2789 C2790 1.523 . S
C2790 C2774 1.368 . S
C2790 C2786 1.368 . S
C2790 C2789 1.523 . S
H2791 C2766 0.950 . S
H2792 C2768 0.950 . S
H2793 C2769 0.949 . S
H2794 C2771 0.950 . S
H2795 C2773 0.950 . S
C2796 C2797 1.349 . S
C2796 C2798 1.327 . S
C2796 H2821 0.952 . S
C2797 C2796 1.349 . S
C2797 C2813 1.349 . S
C2798 C2796 1.327 . S
C2798 C2817 1.429 . S
C2798 H2822 0.950 1_545 S
C2799 C2816 1.574 . S
C2799 C2818 1.368 . S
C2799 H2823 0.949 . S
H2800 C2804 0.949 1_565 S
C2801 C2802 1.349 . S
C2801 C2803 1.327 . S
C2801 H2824 0.950 . S
C2802 C2801 1.349 . S
C2802 C2814 1.349 . S
C2803 C2801 1.327 . S
C2803 C2819 1.429 . S
C2803 H2825 0.950 . S
C2804 H2800 0.949 1_545 S
C2804 C2812 1.574 . S
C2804 C2820 1.368 . S
H2805 C2813 0.950 . S
H2806 C2811 0.950 . S
H2807 C2812 0.949 1_565 S
H2808 C2814 0.950 1_565 S
H2809 C2815 0.950 1_565 S
H2810 C2816 0.949 . S
C2811 H2806 0.950 . S
C2811 C2813 1.327 . S
C2811 C2817 1.429 . S
C2812 C2804 1.574 . S
C2812 H2807 0.949 1_545 S
C2812 C2818 1.368 . S
C2813 C2797 1.349 . S
C2813 H2805 0.950 . S
C2813 C2811 1.327 . S
C2814 C2802 1.349 . S
C2814 H2808 0.950 1_545 S
C2814 C2815 1.327 . S
C2815 H2809 0.950 1_545 S
C2815 C2814 1.327 . S
C2815 C2819 1.429 . S
C2816 C2799 1.574 . S
C2816 H2810 0.949 . S
C2816 C2820 1.368 . S
C2817 C2798 1.429 . S
C2817 C2811 1.429 . S
C2817 C2818 1.523 . S
C2818 C2799 1.368 . S
C2818 C2812 1.368 . S
C2818 C2817 1.523 . S
C2819 C2803 1.429 . S
C2819 C2815 1.429 . S
C2819 C2820 1.523 . S
C2820 C2804 1.368 . S
C2820 C2816 1.368 . S
C2820 C2819 1.523 . S
H2821 C2796 0.952 . S
H2822 C2798 0.950 1_565 S
H2823 C2799 0.949 . S
H2824 C2801 0.950 . S
H2825 C2803 0.950 . S
C2826 C2827 1.349 . S
C2826 C2828 1.327 . S
C2826 H2851 0.950 . S
C2827 C2826 1.349 . S
C2827 C2843 1.349 . S
C2828 C2826 1.327 . S
C2828 C2847 1.429 . S
C2828 H2852 0.950 . S
C2829 C2846 1.574 . S
C2829 C2848 1.368 . S
C2829 H2853 0.949 . S
H2830 C2834 0.949 . S
C2831 C2832 1.349 . S
C2831 C2833 1.327 . S
C2831 H2854 0.950 . S
C2832 C2831 1.349 . S
C2832 C2844 1.349 . S
C2833 C2831 1.327 . S
C2833 C2849 1.429 . S
C2833 H2855 0.950 . S
C2834 H2830 0.949 . S
C2834 C2842 1.574 . S
C2834 C2850 1.368 . S
H2835 C2843 0.950 . S
H2836 C2841 0.950 . S
H2837 C2842 0.949 . S
H2838 C2844 0.950 . S
H2839 C2845 0.950 . S
H2840 C2846 0.949 . S
C2841 H2836 0.950 . S
C2841 C2843 1.327 . S
C2841 C2847 1.429 . S
C2842 C2834 1.574 . S
C2842 H2837 0.949 . S
C2842 C2848 1.368 . S
C2843 C2827 1.349 . S
C2843 H2835 0.950 . S
C2843 C2841 1.327 . S
C2844 C2832 1.349 . S
C2844 H2838 0.950 . S
C2844 C2845 1.327 . S
C2845 H2839 0.950 . S
C2845 C2844 1.327 . S
C2845 C2849 1.429 . S
C2846 C2829 1.574 . S
C2846 H2840 0.949 . S
C2846 C2850 1.368 . S
C2847 C2828 1.429 . S
C2847 C2841 1.429 . S
C2847 C2848 1.523 . S
C2848 C2829 1.368 . S
C2848 C2842 1.368 . S
C2848 C2847 1.523 . S
C2849 C2833 1.429 . S
C2849 C2845 1.429 . S
C2849 C2850 1.523 . S
C2850 C2834 1.368 . S
C2850 C2846 1.368 . S
C2850 C2849 1.523 . S
H2851 C2826 0.950 . S
H2852 C2828 0.950 . S
H2853 C2829 0.949 . S
H2854 C2831 0.950 . S
H2855 C2833 0.950 . S
C2856 C2857 1.349 . S
C2856 C2858 1.327 . S
C2856 H2881 0.950 . S
C2857 C2856 1.349 . S
C2857 C2873 1.349 . S
C2858 C2856 1.327 . S
C2858 C2877 1.429 . S
C2858 H2882 0.946 . S
C2859 C2876 1.574 . S
C2859 C2878 1.368 . S
C2859 H2883 0.949 . S
H2860 C2864 0.949 1_556 S
C2861 C2862 1.349 . S
C2861 C2863 1.327 . S
C2861 H2884 0.950 . S
C2862 C2861 1.349 . S
C2862 C2874 1.349 1_554 S
C2863 C2861 1.327 . S
C2863 C2879 1.429 . S
C2863 H2885 0.950 . S
C2864 H2860 0.949 1_554 S
C2864 C2872 1.574 . S
C2864 C2880 1.368 . S
H2865 C2873 0.950 . S
H2866 C2871 0.950 . S
H2867 C2872 0.949 1_556 S
H2868 C2874 0.950 . S
H2869 C2875 0.950 . S
H2870 C2876 0.949 . S
C2871 H2866 0.950 . S
C2871 C2873 1.327 . S
C2871 C2877 1.429 . S
C2872 C2864 1.574 . S
C2872 H2867 0.949 1_554 S
C2872 C2878 1.368 . S
C2873 C2857 1.349 . S
C2873 H2865 0.950 . S
C2873 C2871 1.327 . S
C2874 C2862 1.349 1_556 S
C2874 H2868 0.950 . S
C2874 C2875 1.327 . S
C2875 H2869 0.950 . S
C2875 C2874 1.327 . S
C2875 C2879 1.429 1_556 S
C2876 C2859 1.574 . S
C2876 H2870 0.949 . S
C2876 C2880 1.368 . S
C2877 C2858 1.429 . S
C2877 C2871 1.429 . S
C2877 C2878 1.523 . S
C2878 C2859 1.368 . S
C2878 C2872 1.368 . S
C2878 C2877 1.523 . S
C2879 C2863 1.429 . S
C2879 C2875 1.429 1_554 S
C2879 C2880 1.523 . S
C2880 C2864 1.368 . S
C2880 C2876 1.368 . S
C2880 C2879 1.523 . S
H2881 C2856 0.950 . S
H2882 C2858 0.946 . S
H2883 C2859 0.949 . S
H2884 C2861 0.950 . S
H2885 C2863 0.950 . S
C2886 C2887 1.349 . S
C2886 C2888 1.327 . S
C2886 H2911 0.950 . S
C2887 C2886 1.349 . S
C2887 C2903 1.349 . S
C2888 C2886 1.327 . S
C2888 C2907 1.429 . S
C2888 H2912 0.950 . S
C2889 C2906 1.574 . S
C2889 C2908 1.368 . S
C2889 H2913 0.949 . S
H2890 C2894 0.949 . S
C2891 C2892 1.349 . S
C2891 C2893 1.327 . S
C2891 H2914 0.950 . S
C2892 C2891 1.349 . S
C2892 C2904 1.349 . S
C2893 C2891 1.327 . S
C2893 C2909 1.429 . S
C2893 H2915 0.950 . S
C2894 H2890 0.949 . S
C2894 C2902 1.574 . S
C2894 C2910 1.368 . S
H2895 C2903 0.950 . S
H2896 C2901 0.950 . S
H2897 C2902 0.949 . S
H2898 C2904 0.950 . S
H2899 C2905 0.950 . S
H2900 C2906 0.949 . S
C2901 H2896 0.950 . S
C2901 C2903 1.327 . S
C2901 C2907 1.429 . S
C2902 C2894 1.574 . S
C2902 H2897 0.949 . S
C2902 C2908 1.368 . S
C2903 C2887 1.349 . S
C2903 H2895 0.950 . S
C2903 C2901 1.327 . S
C2904 C2892 1.349 . S
C2904 H2898 0.950 . S
C2904 C2905 1.327 . S
C2905 H2899 0.950 . S
C2905 C2904 1.327 . S
C2905 C2909 1.429 . S
C2906 C2889 1.574 . S
C2906 H2900 0.949 . S
C2906 C2910 1.368 . S
C2907 C2888 1.429 . S
C2907 C2901 1.429 . S
C2907 C2908 1.523 . S
C2908 C2889 1.368 . S
C2908 C2902 1.368 . S
C2908 C2907 1.523 . S
C2909 C2893 1.429 . S
C2909 C2905 1.429 . S
C2909 C2910 1.523 . S
C2910 C2894 1.368 . S
C2910 C2906 1.368 . S
C2910 C2909 1.523 . S
H2911 C2886 0.950 . S
H2912 C2888 0.950 . S
H2913 C2889 0.949 . S
H2914 C2891 0.950 . S
H2915 C2893 0.950 . S
C2916 C2917 1.349 . S
C2916 C2918 1.327 . S
C2916 H2941 0.950 . S
C2917 C2916 1.349 . S
C2917 C2933 1.349 . S
C2918 C2916 1.327 . S
C2918 C2937 1.429 . S
C2918 H2942 0.950 . S
C2919 C2936 1.574 . S
C2919 C2938 1.368 . S
C2919 H2943 0.949 . S
H2920 C2924 0.949 . S
C2921 C2922 1.349 . S
C2921 C2923 1.327 . S
C2921 H2944 0.950 . S
C2922 C2921 1.349 . S
C2922 C2934 1.349 . S
C2923 C2921 1.327 . S
C2923 C2939 1.429 . S
C2923 H2945 0.950 . S
C2924 H2920 0.949 . S
C2924 C2932 1.574 . S
C2924 C2940 1.368 . S
H2925 C2933 0.950 . S
H2926 C2931 0.950 . S
H2927 C2932 0.949 . S
H2928 C2934 0.950 . S
H2929 C2935 0.950 . S
H2930 C2936 0.949 . S
C2931 H2926 0.950 . S
C2931 C2933 1.327 . S
C2931 C2937 1.429 . S
C2932 C2924 1.574 . S
C2932 H2927 0.949 . S
C2932 C2938 1.368 . S
C2933 C2917 1.349 . S
C2933 H2925 0.950 . S
C2933 C2931 1.327 . S
C2934 C2922 1.349 . S
C2934 H2928 0.950 . S
C2934 C2935 1.327 . S
C2935 H2929 0.950 . S
C2935 C2934 1.327 . S
C2935 C2939 1.429 . S
C2936 C2919 1.574 . S
C2936 H2930 0.949 . S
C2936 C2940 1.368 . S
C2937 C2918 1.429 . S
C2937 C2931 1.429 . S
C2937 C2938 1.523 . S
C2938 C2919 1.368 . S
C2938 C2932 1.368 . S
C2938 C2937 1.523 . S
C2939 C2923 1.429 . S
C2939 C2935 1.429 . S
C2939 C2940 1.523 . S
C2940 C2924 1.368 . S
C2940 C2936 1.368 . S
C2940 C2939 1.523 . S
H2941 C2916 0.950 . S
H2942 C2918 0.950 . S
H2943 C2919 0.949 . S
H2944 C2921 0.950 . S
H2945 C2923 0.950 . S
C2946 C2947 1.349 . S
C2946 C2948 1.327 . S
C2946 H2971 0.950 . S
C2947 C2946 1.349 . S
C2947 C2963 1.349 . S
C2948 C2946 1.327 . S
C2948 C2967 1.429 . S
C2948 H2972 0.950 . S
C2949 C2966 1.574 . S
C2949 C2968 1.368 . S
C2949 H2973 0.949 . S
H2950 C2954 0.949 . S
C2951 C2952 1.349 . S
C2951 C2953 1.327 . S
C2951 H2974 0.950 . S
C2952 C2951 1.349 . S
C2952 C2964 1.349 . S
C2953 C2951 1.327 . S
C2953 C2969 1.429 . S
C2953 H2975 0.950 . S
C2954 H2950 0.949 . S
C2954 C2962 1.574 . S
C2954 C2970 1.368 . S
H2955 C2963 0.950 . S
H2956 C2961 0.950 . S
H2957 C2962 0.949 . S
H2958 C2964 0.950 . S
H2959 C2965 0.950 . S
H2960 C2966 0.949 . S
C2961 H2956 0.950 . S
C2961 C2963 1.327 . S
C2961 C2967 1.429 . S
C2962 C2954 1.574 . S
C2962 H2957 0.949 . S
C2962 C2968 1.368 . S
C2963 C2947 1.349 . S
C2963 H2955 0.950 . S
C2963 C2961 1.327 . S
C2964 C2952 1.349 . S
C2964 H2958 0.950 . S
C2964 C2965 1.327 . S
C2965 H2959 0.950 . S
C2965 C2964 1.327 . S
C2965 C2969 1.429 . S
C2966 C2949 1.574 . S
C2966 H2960 0.949 . S
C2966 C2970 1.368 . S
C2967 C2948 1.429 . S
C2967 C2961 1.429 . S
C2967 C2968 1.523 . S
C2968 C2949 1.368 . S
C2968 C2962 1.368 . S
C2968 C2967 1.523 . S
C2969 C2953 1.429 . S
C2969 C2965 1.429 . S
C2969 C2970 1.523 . S
C2970 C2954 1.368 . S
C2970 C2966 1.368 . S
C2970 C2969 1.523 . S
H2971 C2946 0.950 . S
H2972 C2948 0.950 . S
H2973 C2949 0.949 . S
H2974 C2951 0.950 . S
H2975 C2953 0.950 . S
C2976 C2977 1.349 1_565 S
C2976 C2978 1.327 . S
C2976 H3001 0.950 . S
C2977 C2976 1.349 1_545 S
C2977 C2993 1.349 . S
C2978 C2976 1.327 . S
C2978 C2997 1.429 . S
C2978 H3002 0.950 . S
C2979 C2996 1.574 . S
C2979 C2998 1.368 . S
C2979 H3003 0.949 . S
H2980 C2984 0.949 . S
C2981 C2982 1.349 . S
C2981 C2983 1.327 . S
C2981 H3004 0.950 . S
C2982 C2981 1.349 . S
C2982 C2994 1.349 . S
C2983 C2981 1.327 . S
C2983 C2999 1.429 . S
C2983 H3005 0.950 . S
C2984 H2980 0.949 . S
C2984 C2992 1.574 . S
C2984 C3000 1.368 . S
H2985 C2993 0.950 . S
H2986 C2991 0.950 . S
H2987 C2992 0.949 . S
H2988 C2994 0.950 . S
H2989 C2995 0.950 . S
H2990 C2996 0.949 . S
C2991 H2986 0.950 . S
C2991 C2993 1.327 1_565 S
C2991 C2997 1.429 . S
C2992 C2984 1.574 . S
C2992 H2987 0.949 . S
C2992 C2998 1.368 . S
C2993 C2977 1.349 . S
C2993 H2985 0.950 . S
C2993 C2991 1.327 1_545 S
C2994 C2982 1.349 . S
C2994 H2988 0.950 . S
C2994 C2995 1.327 . S
C2995 H2989 0.950 . S
C2995 C2994 1.327 . S
C2995 C2999 1.429 . S
C2996 C2979 1.574 . S
C2996 H2990 0.949 . S
C2996 C3000 1.368 . S
C2997 C2978 1.429 . S
C2997 C2991 1.429 . S
C2997 C2998 1.523 . S
C2998 C2979 1.368 . S
C2998 C2992 1.368 . S
C2998 C2997 1.523 . S
C2999 C2983 1.429 . S
C2999 C2995 1.429 . S
C2999 C3000 1.523 . S
C3000 C2984 1.368 . S
C3000 C2996 1.368 . S
C3000 C2999 1.523 . S
H3001 C2976 0.950 . S
H3002 C2978 0.950 . S
H3003 C2979 0.949 . S
H3004 C2981 0.950 . S
H3005 C2983 0.950 . S
C3006 C3007 1.349 . S
C3006 C3008 1.327 . S
C3006 H3031 0.950 . S
C3007 C3006 1.349 . S
C3007 C3023 1.349 . S
C3008 C3006 1.327 . S
C3008 C3027 1.429 . S
C3008 H3032 0.950 . S
C3009 C3026 1.574 . S
C3009 C3028 1.368 . S
C3009 H3033 0.949 . S
H3010 C3014 0.949 . S
C3011 C3012 1.349 . S
C3011 C3013 1.327 . S
C3011 H3034 0.950 1_565 S
C3012 C3011 1.349 . S
C3012 C3024 1.349 . S
C3013 C3011 1.327 . S
C3013 C3029 1.429 . S
C3013 H3035 0.950 . S
C3014 H3010 0.949 . S
C3014 C3022 1.574 . S
C3014 C3030 1.368 . S
H3015 C3023 0.950 . S
H3016 C3021 0.950 . S
H3017 C3022 0.949 . S
H3018 C3024 0.950 . S
H3019 C3025 0.950 . S
H3020 C3026 0.949 . S
C3021 H3016 0.950 . S
C3021 C3023 1.327 . S
C3021 C3027 1.429 . S
C3022 C3014 1.574 . S
C3022 H3017 0.949 . S
C3022 C3028 1.368 . S
C3023 C3007 1.349 . S
C3023 H3015 0.950 . S
C3023 C3021 1.327 . S
C3024 C3012 1.349 . S
C3024 H3018 0.950 . S
C3024 C3025 1.327 . S
C3025 H3019 0.950 . S
C3025 C3024 1.327 . S
C3025 C3029 1.429 . S
C3026 C3009 1.574 . S
C3026 H3020 0.949 . S
C3026 C3030 1.368 . S
C3027 C3008 1.429 . S
C3027 C3021 1.429 . S
C3027 C3028 1.523 . S
C3028 C3009 1.368 . S
C3028 C3022 1.368 . S
C3028 C3027 1.523 . S
C3029 C3013 1.429 . S
C3029 C3025 1.429 . S
C3029 C3030 1.523 . S
C3030 C3014 1.368 . S
C3030 C3026 1.368 . S
C3030 C3029 1.523 . S
H3031 C3006 0.950 . S
H3032 C3008 0.950 . S
H3033 C3009 0.949 . S
H3034 C3011 0.950 1_545 S
H3035 C3013 0.950 . S
C3036 C3037 1.349 . S
C3036 C3038 1.327 . S
C3036 H3061 0.950 . S
C3037 C3036 1.349 . S
C3037 C3053 1.349 . S
C3038 C3036 1.327 . S
C3038 C3057 1.429 . S
C3038 H3062 0.950 . S
C3039 C3056 1.574 . S
C3039 C3058 1.368 . S
C3039 H3063 0.949 . S
H3040 C3044 0.949 . S
C3041 C3042 1.349 . S
C3041 C3043 1.327 . S
C3041 H3064 0.950 . S
C3042 C3041 1.349 . S
C3042 C3054 1.349 . S
C3043 C3041 1.327 . S
C3043 C3059 1.429 . S
C3043 H3065 0.950 . S
C3044 H3040 0.949 . S
C3044 C3052 1.574 . S
C3044 C3060 1.368 . S
H3045 C3053 0.950 . S
H3046 C3051 0.950 . S
H3047 C3052 0.949 . S
H3048 C3054 0.950 . S
H3049 C3055 0.950 . S
H3050 C3056 0.949 . S
C3051 H3046 0.950 . S
C3051 C3053 1.327 . S
C3051 C3057 1.429 . S
C3052 C3044 1.574 . S
C3052 H3047 0.949 . S
C3052 C3058 1.368 . S
C3053 C3037 1.349 . S
C3053 H3045 0.950 . S
C3053 C3051 1.327 . S
C3054 C3042 1.349 . S
C3054 H3048 0.950 . S
C3054 C3055 1.327 . S
C3055 H3049 0.950 . S
C3055 C3054 1.327 . S
C3055 C3059 1.429 . S
C3056 C3039 1.574 . S
C3056 H3050 0.949 . S
C3056 C3060 1.368 . S
C3057 C3038 1.429 . S
C3057 C3051 1.429 . S
C3057 C3058 1.523 . S
C3058 C3039 1.368 . S
C3058 C3052 1.368 . S
C3058 C3057 1.523 . S
C3059 C3043 1.429 . S
C3059 C3055 1.429 . S
C3059 C3060 1.523 . S
C3060 C3044 1.368 . S
C3060 C3056 1.368 . S
C3060 C3059 1.523 . S
H3061 C3036 0.950 . S
H3062 C3038 0.950 . S
H3063 C3039 0.949 . S
H3064 C3041 0.950 . S
H3065 C3043 0.950 . S
C3066 C3067 1.349 . S
C3066 C3068 1.327 . S
C3066 H3091 0.950 . S
C3067 C3066 1.349 . S
C3067 C3083 1.349 . S
C3068 C3066 1.327 . S
C3068 C3087 1.429 . S
C3068 H3092 0.950 . S
C3069 C3086 1.574 . S
C3069 C3088 1.368 . S
C3069 H3093 0.949 . S
H3070 C3074 0.949 . S
C3071 C3072 1.349 . S
C3071 C3073 1.327 . S
C3071 H3094 0.950 . S
C3072 C3071 1.349 . S
C3072 C3084 1.349 . S
C3073 C3071 1.327 . S
C3073 C3089 1.429 . S
C3073 H3095 0.950 . S
C3074 H3070 0.949 . S
C3074 C3082 1.574 . S
C3074 C3090 1.368 . S
H3075 C3083 0.950 . S
H3076 C3081 0.950 . S
H3077 C3082 0.949 . S
H3078 C3084 0.950 . S
H3079 C3085 0.950 . S
H3080 C3086 0.949 . S
C3081 H3076 0.950 . S
C3081 C3083 1.327 . S
C3081 C3087 1.429 . S
C3082 C3074 1.574 . S
C3082 H3077 0.949 . S
C3082 C3088 1.368 . S
C3083 C3067 1.349 . S
C3083 H3075 0.950 . S
C3083 C3081 1.327 . S
C3084 C3072 1.349 . S
C3084 H3078 0.950 . S
C3084 C3085 1.327 . S
C3085 H3079 0.950 . S
C3085 C3084 1.327 . S
C3085 C3089 1.429 . S
C3086 C3069 1.574 . S
C3086 H3080 0.949 . S
C3086 C3090 1.368 . S
C3087 C3068 1.429 . S
C3087 C3081 1.429 . S
C3087 C3088 1.523 . S
C3088 C3069 1.368 . S
C3088 C3082 1.368 . S
C3088 C3087 1.523 . S
C3089 C3073 1.429 . S
C3089 C3085 1.429 . S
C3089 C3090 1.523 . S
C3090 C3074 1.368 . S
C3090 C3086 1.368 . S
C3090 C3089 1.523 . S
H3091 C3066 0.950 . S
H3092 C3068 0.950 . S
H3093 C3069 0.949 . S
H3094 C3071 0.950 . S
H3095 C3073 0.950 . S
C3096 C3097 1.349 . S
C3096 C3098 1.327 . S
C3096 H3121 0.950 . S
C3097 C3096 1.349 . S
C3097 C3113 1.349 . S
C3098 C3096 1.327 . S
C3098 C3117 1.429 . S
C3098 H3122 0.950 . S
C3099 C3116 1.574 . S
C3099 C3118 1.368 . S
C3099 H3123 0.949 . S
H3100 C3104 0.949 . S
C3101 C3102 1.349 . S
C3101 C3103 1.327 . S
C3101 H3124 0.950 . S
C3102 C3101 1.349 . S
C3102 C3114 1.349 . S
C3103 C3101 1.327 . S
C3103 C3119 1.429 . S
C3103 H3125 0.950 . S
C3104 H3100 0.949 . S
C3104 C3112 1.574 . S
C3104 C3120 1.368 . S
H3105 C3113 0.950 . S
H3106 C3111 0.950 . S
H3107 C3112 0.949 . S
H3108 C3114 0.950 . S
H3109 C3115 0.950 . S
H3110 C3116 0.949 . S
C3111 H3106 0.950 . S
C3111 C3113 1.327 . S
C3111 C3117 1.429 . S
C3112 C3104 1.574 . S
C3112 H3107 0.949 . S
C3112 C3118 1.368 . S
C3113 C3097 1.349 . S
C3113 H3105 0.950 . S
C3113 C3111 1.327 . S
C3114 C3102 1.349 . S
C3114 H3108 0.950 . S
C3114 C3115 1.327 . S
C3115 H3109 0.950 . S
C3115 C3114 1.327 . S
C3115 C3119 1.429 . S
C3116 C3099 1.574 . S
C3116 H3110 0.949 . S
C3116 C3120 1.368 . S
C3117 C3098 1.429 . S
C3117 C3111 1.429 . S
C3117 C3118 1.523 . S
C3118 C3099 1.368 . S
C3118 C3112 1.368 . S
C3118 C3117 1.523 . S
C3119 C3103 1.429 . S
C3119 C3115 1.429 . S
C3119 C3120 1.523 . S
C3120 C3104 1.368 . S
C3120 C3116 1.368 . S
C3120 C3119 1.523 . S
H3121 C3096 0.950 . S
H3122 C3098 0.950 . S
H3123 C3099 0.949 . S
H3124 C3101 0.950 . S
H3125 C3103 0.950 . S
C3126 C3127 1.349 . S
C3126 C3128 1.327 . S
C3126 H3151 0.950 . S
C3127 C3126 1.349 . S
C3127 C3143 1.349 . S
C3128 C3126 1.327 . S
C3128 C3147 1.429 . S
C3128 H3152 0.950 . S
C3129 C3146 1.574 . S
C3129 C3148 1.368 . S
C3129 H3153 0.949 . S
H3130 C3134 0.949 . S
C3131 C3132 1.349 . S
C3131 C3133 1.327 . S
C3131 H3154 0.950 . S
C3132 C3131 1.349 . S
C3132 C3144 1.349 . S
C3133 C3131 1.327 . S
C3133 C3149 1.429 . S
C3133 H3155 0.950 . S
C3134 H3130 0.949 . S
C3134 C3142 1.574 . S
C3134 C3150 1.368 . S
H3135 C3143 0.950 . S
H3136 C3141 0.950 . S
H3137 C3142 0.949 . S
H3138 C3144 0.950 . S
H3139 C3145 0.950 . S
H3140 C3146 0.949 . S
C3141 H3136 0.950 . S
C3141 C3143 1.327 . S
C3141 C3147 1.429 . S
C3142 C3134 1.574 . S
C3142 H3137 0.949 . S
C3142 C3148 1.368 . S
C3143 C3127 1.349 . S
C3143 H3135 0.950 . S
C3143 C3141 1.327 . S
C3144 C3132 1.349 . S
C3144 H3138 0.950 . S
C3144 C3145 1.327 . S
C3145 H3139 0.950 . S
C3145 C3144 1.327 . S
C3145 C3149 1.429 . S
C3146 C3129 1.574 . S
C3146 H3140 0.949 . S
C3146 C3150 1.368 . S
C3147 C3128 1.429 . S
C3147 C3141 1.429 . S
C3147 C3148 1.523 . S
C3148 C3129 1.368 . S
C3148 C3142 1.368 . S
C3148 C3147 1.523 . S
C3149 C3133 1.429 . S
C3149 C3145 1.429 . S
C3149 C3150 1.523 . S
C3150 C3134 1.368 . S
C3150 C3146 1.368 . S
C3150 C3149 1.523 . S
H3151 C3126 0.950 . S
H3152 C3128 0.950 . S
H3153 C3129 0.949 . S
H3154 C3131 0.950 . S
H3155 C3133 0.950 . S
C3156 C3157 1.349 . S
C3156 C3158 1.327 . S
C3156 H3181 0.950 . S
C3157 C3156 1.349 . S
C3157 C3173 1.349 . S
C3158 C3156 1.327 . S
C3158 C3177 1.429 . S
C3158 H3182 0.950 . S
C3159 C3176 1.572 1_556 S
C3159 C3178 1.404 . S
C3159 H3183 0.920 1_556 S
H3160 C3164 0.949 . S
C3161 C3162 1.349 . S
C3161 C3163 1.327 . S
C3161 H3184 0.950 . S
C3162 C3161 1.349 . S
C3162 C3174 1.349 1_554 S
C3163 C3161 1.327 . S
C3163 C3179 1.429 1_554 S
C3163 H3185 0.950 . S
C3164 H3160 0.949 . S
C3164 C3172 1.574 . S
C3164 C3180 1.368 . S
H3165 C3173 0.950 . S
H3166 C3171 0.962 . S
H3167 C3172 0.949 . S
H3168 C3174 0.950 . S
H3169 C3175 0.950 . S
H3170 C3176 0.949 . S
C3171 H3166 0.962 . S
C3171 C3173 1.327 . S
C3171 C3177 1.429 . S
C3172 C3164 1.574 . S
C3172 H3167 0.949 . S
C3172 C3178 1.368 . S
C3173 C3157 1.349 . S
C3173 H3165 0.950 . S
C3173 C3171 1.327 . S
C3174 C3162 1.349 1_556 S
C3174 H3168 0.950 . S
C3174 C3175 1.327 . S
C3175 H3169 0.950 . S
C3175 C3174 1.327 . S
C3175 C3179 1.429 . S
C3176 C3159 1.572 1_554 S
C3176 H3170 0.949 . S
C3176 C3180 1.368 1_554 S
C3177 C3158 1.429 . S
C3177 C3171 1.429 . S
C3177 C3178 1.523 . S
C3178 C3159 1.404 . S
C3178 C3172 1.368 . S
C3178 C3177 1.523 . S
C3179 C3163 1.429 1_556 S
C3179 C3175 1.429 . S
C3179 C3180 1.523 . S
C3180 C3164 1.368 . S
C3180 C3176 1.368 1_556 S
C3180 C3179 1.523 . S
H3181 C3156 0.950 . S
H3182 C3158 0.950 . S
H3183 C3159 0.920 1_554 S
H3184 C3161 0.950 . S
H3185 C3163 0.950 . S
C3186 C3187 1.349 . S
C3186 C3188 1.327 . S
C3186 H3211 0.950 . S
C3187 C3186 1.349 . S
C3187 C3203 1.349 . S
C3188 C3186 1.327 . S
C3188 C3207 1.429 1_455 S
C3188 H3212 0.950 . S
C3189 C3206 1.574 . S
C3189 C3208 1.368 . S
C3189 H3213 0.949 . S
H3190 C3194 0.949 . S
C3191 C3192 1.349 . S
C3191 C3193 1.327 . S
C3191 H3214 0.950 . S
C3192 C3191 1.349 . S
C3192 C3204 1.349 . S
C3193 C3191 1.327 . S
C3193 C3209 1.429 . S
C3193 H3215 0.950 . S
C3194 H3190 0.949 . S
C3194 C3202 1.574 . S
C3194 C3210 1.368 . S
H3195 C3203 0.950 . S
H3196 C3201 0.907 1_655 S
H3197 C3202 0.949 . S
H3198 C3204 0.950 . S
H3199 C3205 0.950 . S
H3200 C3206 0.949 . S
C3201 H3196 0.907 1_455 S
C3201 C3203 1.376 . S
C3201 C3207 1.423 1_455 S
C3202 C3194 1.574 . S
C3202 H3197 0.949 . S
C3202 C3208 1.368 . S
C3203 C3187 1.349 . S
C3203 H3195 0.950 . S
C3203 C3201 1.376 . S
C3204 C3192 1.349 . S
C3204 H3198 0.950 . S
C3204 C3205 1.327 . S
C3205 H3199 0.950 . S
C3205 C3204 1.327 . S
C3205 C3209 1.429 . S
C3206 C3189 1.574 . S
C3206 H3200 0.949 . S
C3206 C3210 1.368 . S
C3207 C3188 1.429 1_655 S
C3207 C3201 1.423 1_655 S
C3207 C3208 1.523 . S
C3208 C3189 1.368 . S
C3208 C3202 1.368 . S
C3208 C3207 1.523 . S
C3209 C3193 1.429 . S
C3209 C3205 1.429 . S
C3209 C3210 1.523 . S
C3210 C3194 1.368 . S
C3210 C3206 1.368 . S
C3210 C3209 1.523 . S
H3211 C3186 0.950 . S
H3212 C3188 0.950 . S
H3213 C3189 0.949 . S
H3214 C3191 0.950 . S
H3215 C3193 0.950 . S
C3216 C3217 1.349 . S
C3216 C3218 1.327 . S
C3216 H3241 0.950 . S
C3217 C3216 1.349 . S
C3217 C3233 1.349 . S
C3218 C3216 1.327 . S
C3218 C3237 1.429 . S
C3218 H3242 0.950 . S
C3219 C3236 1.574 . S
C3219 C3238 1.368 . S
C3219 H3243 0.949 . S
H3220 C3224 0.949 . S
C3221 C3222 1.349 . S
C3221 C3223 1.327 . S
C3221 H3244 0.950 . S
C3222 C3221 1.349 . S
C3222 C3234 1.349 . S
C3223 C3221 1.327 . S
C3223 C3239 1.429 . S
C3223 H3245 0.950 . S
C3224 H3220 0.949 . S
C3224 C3232 1.574 . S
C3224 C3240 1.368 . S
H3225 C3233 0.950 . S
H3226 C3231 0.950 . S
H3227 C3232 0.949 . S
H3228 C3234 0.950 . S
H3229 C3235 0.950 . S
H3230 C3236 0.949 . S
C3231 H3226 0.950 . S
C3231 C3233 1.327 . S
C3231 C3237 1.429 . S
C3232 C3224 1.574 . S
C3232 H3227 0.949 . S
C3232 C3238 1.368 . S
C3233 C3217 1.349 . S
C3233 H3225 0.950 . S
C3233 C3231 1.327 . S
C3234 C3222 1.349 . S
C3234 H3228 0.950 . S
C3234 C3235 1.327 . S
C3235 H3229 0.950 . S
C3235 C3234 1.327 . S
C3235 C3239 1.429 . S
C3236 C3219 1.574 . S
C3236 H3230 0.949 . S
C3236 C3240 1.368 . S
C3237 C3218 1.429 . S
C3237 C3231 1.429 . S
C3237 C3238 1.523 . S
C3238 C3219 1.368 . S
C3238 C3232 1.368 . S
C3238 C3237 1.523 . S
C3239 C3223 1.429 . S
C3239 C3235 1.429 . S
C3239 C3240 1.523 . S
C3240 C3224 1.368 . S
C3240 C3236 1.368 . S
C3240 C3239 1.523 . S
H3241 C3216 0.950 . S
H3242 C3218 0.950 . S
H3243 C3219 0.949 . S
H3244 C3221 0.950 . S
H3245 C3223 0.950 . S
C3246 C3247 1.349 . S
C3246 C3248 1.327 . S
C3246 H3271 0.950 . S
C3247 C3246 1.349 . S
C3247 C3263 1.349 . S
C3248 C3246 1.327 . S
C3248 C3267 1.429 . S
C3248 H3272 0.950 . S
C3249 C3266 1.574 . S
C3249 C3268 1.368 . S
C3249 H3273 0.949 . S
H3250 C3254 0.949 . S
C3251 C3252 1.349 . S
C3251 C3253 1.327 . S
C3251 H3274 0.950 . S
C3252 C3251 1.349 . S
C3252 C3264 1.349 . S
C3253 C3251 1.327 . S
C3253 C3269 1.429 . S
C3253 H3275 0.950 . S
C3254 H3250 0.949 . S
C3254 C3262 1.574 . S
C3254 C3270 1.368 . S
H3255 C3263 0.950 . S
H3256 C3261 0.950 . S
H3257 C3262 0.949 1_455 S
H3258 C3264 0.950 . S
H3259 C3265 0.950 . S
H3260 C3266 0.949 . S
C3261 H3256 0.950 . S
C3261 C3263 1.327 . S
C3261 C3267 1.429 . S
C3262 C3254 1.574 . S
C3262 H3257 0.949 1_655 S
C3262 C3268 1.368 . S
C3263 C3247 1.349 . S
C3263 H3255 0.950 . S
C3263 C3261 1.327 . S
C3264 C3252 1.349 . S
C3264 H3258 0.950 . S
C3264 C3265 1.327 . S
C3265 H3259 0.950 . S
C3265 C3264 1.327 . S
C3265 C3269 1.429 . S
C3266 C3249 1.574 . S
C3266 H3260 0.949 . S
C3266 C3270 1.368 . S
C3267 C3248 1.429 . S
C3267 C3261 1.429 . S
C3267 C3268 1.523 1_455 S
C3268 C3249 1.368 . S
C3268 C3262 1.368 . S
C3268 C3267 1.523 1_655 S
C3269 C3253 1.429 . S
C3269 C3265 1.429 . S
C3269 C3270 1.523 . S
C3270 C3254 1.368 . S
C3270 C3266 1.368 . S
C3270 C3269 1.523 . S
H3271 C3246 0.950 . S
H3272 C3248 0.950 . S
H3273 C3249 0.949 . S
H3274 C3251 0.950 . S
H3275 C3253 0.950 . S
C3276 C3277 1.349 . S
C3276 C3278 1.327 . S
C3276 H3301 0.950 . S
C3277 C3276 1.349 . S
C3277 C3293 1.349 1_655 S
C3278 C3276 1.327 . S
C3278 C3297 1.429 1_655 S
C3278 H3302 0.950 . S
C3279 C3296 1.574 . S
C3279 C3298 1.368 . S
C3279 H3303 0.949 . S
H3280 C3284 0.949 1_655 S
C3281 C3282 1.349 . S
C3281 C3283 1.327 . S
C3281 H3304 0.950 . S
C3282 C3281 1.349 . S
C3282 C3294 1.349 . S
C3283 C3281 1.327 . S
C3283 C3299 1.429 . S
C3283 H3305 0.950 . S
C3284 H3280 0.949 1_455 S
C3284 C3292 1.574 1_455 S
C3284 C3300 1.368 . S
H3285 C3293 0.950 . S
H3286 C3291 0.950 . S
H3287 C3292 0.949 . S
H3288 C3294 0.950 . S
H3289 C3295 0.950 . S
H3290 C3296 0.949 . S
C3291 H3286 0.950 . S
C3291 C3293 1.327 . S
C3291 C3297 1.429 . S
C3292 C3284 1.574 1_655 S
C3292 H3287 0.949 . S
C3292 C3298 1.368 1_655 S
C3293 C3277 1.349 1_455 S
C3293 H3285 0.950 . S
C3293 C3291 1.327 . S
C3294 C3282 1.349 . S
C3294 H3288 0.950 . S
C3294 C3295 1.327 . S
C3295 H3289 0.950 . S
C3295 C3294 1.327 . S
C3295 C3299 1.429 . S
C3296 C3279 1.574 . S
C3296 H3290 0.949 . S
C3296 C3300 1.368 . S
C3297 C3278 1.429 1_455 S
C3297 C3291 1.429 . S
C3297 C3298 1.523 . S
C3298 C3279 1.368 . S
C3298 C3292 1.368 1_455 S
C3298 C3297 1.523 . S
C3299 C3283 1.429 . S
C3299 C3295 1.429 . S
C3299 C3300 1.523 . S
C3300 C3284 1.368 . S
C3300 C3296 1.368 . S
C3300 C3299 1.523 . S
H3301 C3276 0.950 . S
H3302 C3278 0.950 . S
H3303 C3279 0.949 . S
H3304 C3281 0.950 . S
H3305 C3283 0.950 . S
C3306 C3307 1.349 . S
C3306 C3308 1.327 . S
C3306 H3331 0.950 . S
C3307 C3306 1.349 . S
C3307 C3323 1.349 . S
C3308 C3306 1.327 . S
C3308 C3327 1.429 . S
C3308 H3332 0.950 . S
C3309 C3326 1.574 . S
C3309 C3328 1.368 . S
C3309 H3333 0.949 . S
H3310 C3314 0.949 . S
C3311 C3312 1.349 . S
C3311 C3313 1.327 . S
C3311 H3334 0.950 . S
C3312 C3311 1.349 . S
C3312 C3324 1.349 . S
C3313 C3311 1.327 . S
C3313 C3329 1.429 . S
C3313 H3335 0.950 . S
C3314 H3310 0.949 . S
C3314 C3322 1.574 . S
C3314 C3330 1.368 . S
H3315 C3323 0.950 . S
H3316 C3321 0.950 . S
H3317 C3322 0.949 . S
H3318 C3324 0.950 . S
H3319 C3325 0.950 . S
H3320 C3326 0.949 . S
C3321 H3316 0.950 . S
C3321 C3323 1.327 . S
C3321 C3327 1.429 . S
C3322 C3314 1.574 . S
C3322 H3317 0.949 . S
C3322 C3328 1.368 . S
C3323 C3307 1.349 . S
C3323 H3315 0.950 . S
C3323 C3321 1.327 . S
C3324 C3312 1.349 . S
C3324 H3318 0.950 . S
C3324 C3325 1.327 . S
C3325 H3319 0.950 . S
C3325 C3324 1.327 . S
C3325 C3329 1.429 . S
C3326 C3309 1.574 . S
C3326 H3320 0.949 . S
C3326 C3330 1.368 . S
C3327 C3308 1.429 . S
C3327 C3321 1.429 . S
C3327 C3328 1.523 . S
C3328 C3309 1.368 . S
C3328 C3322 1.368 . S
C3328 C3327 1.523 . S
C3329 C3313 1.429 . S
C3329 C3325 1.429 . S
C3329 C3330 1.523 . S
C3330 C3314 1.368 . S
C3330 C3326 1.368 . S
C3330 C3329 1.523 . S
H3331 C3306 0.950 . S
H3332 C3308 0.950 . S
H3333 C3309 0.949 . S
H3334 C3311 0.950 . S
H3335 C3313 0.950 . S
C3336 C3337 1.349 . S
C3336 C3338 1.327 . S
C3336 H3361 0.950 . S
C3337 C3336 1.349 . S
C3337 C3353 1.349 . S
C3338 C3336 1.327 . S
C3338 C3357 1.429 . S
C3338 H3362 0.950 . S
C3339 C3356 1.574 . S
C3339 C3358 1.368 . S
C3339 H3363 0.949 . S
H3340 C3344 0.949 . S
C3341 C3342 1.349 . S
C3341 C3343 1.327 . S
C3341 H3364 0.950 . S
C3342 C3341 1.349 . S
C3342 C3354 1.349 . S
C3343 C3341 1.327 . S
C3343 C3359 1.429 . S
C3343 H3365 0.950 . S
C3344 H3340 0.949 . S
C3344 C3352 1.574 . S
C3344 C3360 1.368 . S
H3345 C3353 0.950 . S
H3346 C3351 0.950 . S
H3347 C3352 0.949 . S
H3348 C3354 0.950 . S
H3349 C3355 0.950 . S
H3350 C3356 0.949 . S
C3351 H3346 0.950 . S
C3351 C3353 1.327 . S
C3351 C3357 1.429 . S
C3352 C3344 1.574 . S
C3352 H3347 0.949 . S
C3352 C3358 1.368 . S
C3353 C3337 1.349 . S
C3353 H3345 0.950 . S
C3353 C3351 1.327 . S
C3354 C3342 1.349 . S
C3354 H3348 0.950 . S
C3354 C3355 1.327 . S
C3355 H3349 0.950 . S
C3355 C3354 1.327 . S
C3355 C3359 1.429 . S
C3356 C3339 1.574 . S
C3356 H3350 0.949 . S
C3356 C3360 1.368 . S
C3357 C3338 1.429 . S
C3357 C3351 1.429 . S
C3357 C3358 1.523 . S
C3358 C3339 1.368 . S
C3358 C3352 1.368 . S
C3358 C3357 1.523 . S
C3359 C3343 1.429 . S
C3359 C3355 1.429 . S
C3359 C3360 1.523 . S
C3360 C3344 1.368 . S
C3360 C3356 1.368 . S
C3360 C3359 1.523 . S
H3361 C3336 0.950 . S
H3362 C3338 0.950 . S
H3363 C3339 0.949 . S
H3364 C3341 0.950 . S
H3365 C3343 0.950 . S
C3366 C3367 1.349 . S
C3366 C3368 1.327 . S
C3366 H3391 0.950 1_556 S
C3367 C3366 1.349 . S
C3367 C3383 1.349 . S
C3368 C3366 1.327 . S
C3368 C3387 1.429 . S
C3368 H3392 0.950 . S
C3369 C3386 1.574 . S
C3369 C3388 1.368 . S
C3369 H3393 0.949 . S
H3370 C3374 0.949 . S
C3371 C3372 1.349 . S
C3371 C3373 1.327 . S
C3371 H3394 0.950 . S
C3372 C3371 1.349 . S
C3372 C3384 1.349 . S
C3373 C3371 1.327 . S
C3373 C3389 1.429 . S
C3373 H3395 0.950 . S
C3374 H3370 0.949 . S
C3374 C3382 1.574 . S
C3374 C3390 1.368 . S
H3375 C3383 0.950 . S
H3376 C3381 0.950 . S
H3377 C3382 0.949 . S
H3378 C3384 0.950 . S
H3379 C3385 0.950 . S
H3380 C3386 0.949 . S
C3381 H3376 0.950 . S
C3381 C3383 1.327 . S
C3381 C3387 1.429 . S
C3382 C3374 1.574 . S
C3382 H3377 0.949 . S
C3382 C3388 1.368 . S
C3383 C3367 1.349 . S
C3383 H3375 0.950 . S
C3383 C3381 1.327 . S
C3384 C3372 1.349 . S
C3384 H3378 0.950 . S
C3384 C3385 1.327 . S
C3385 H3379 0.950 . S
C3385 C3384 1.327 . S
C3385 C3389 1.429 . S
C3386 C3369 1.574 . S
C3386 H3380 0.949 . S
C3386 C3390 1.368 . S
C3387 C3368 1.429 . S
C3387 C3381 1.429 . S
C3387 C3388 1.523 . S
C3388 C3369 1.368 . S
C3388 C3382 1.368 . S
C3388 C3387 1.523 . S
C3389 C3373 1.429 . S
C3389 C3385 1.429 . S
C3389 C3390 1.523 . S
C3390 C3374 1.368 . S
C3390 C3386 1.368 . S
C3390 C3389 1.523 . S
H3391 C3366 0.950 1_554 S
H3392 C3368 0.950 . S
H3393 C3369 0.949 . S
H3394 C3371 0.950 . S
H3395 C3373 0.950 . S
C3396 C3397 1.349 . S
C3396 C3398 1.327 . S
C3396 H3421 0.950 . S
C3397 C3396 1.349 . S
C3397 C3413 1.349 . S
C3398 C3396 1.327 . S
C3398 C3417 1.429 . S
C3398 H3422 0.950 . S
C3399 C3416 1.574 . S
C3399 C3418 1.368 . S
C3399 H3423 0.949 . S
H3400 C3404 0.949 . S
C3401 C3402 1.349 . S
C3401 C3403 1.327 . S
C3401 H3424 0.950 . S
C3402 C3401 1.349 . S
C3402 C3414 1.349 . S
C3403 C3401 1.327 . S
C3403 C3419 1.429 . S
C3403 H3425 0.950 . S
C3404 H3400 0.949 . S
C3404 C3412 1.574 . S
C3404 C3420 1.368 . S
H3405 C3413 0.950 . S
H3406 C3411 0.950 . S
H3407 C3412 0.949 . S
H3408 C3414 0.950 . S
H3409 C3415 0.950 . S
H3410 C3416 0.949 . S
C3411 H3406 0.950 . S
C3411 C3413 1.327 . S
C3411 C3417 1.429 . S
C3412 C3404 1.574 . S
C3412 H3407 0.949 . S
C3412 C3418 1.368 . S
C3413 C3397 1.349 . S
C3413 H3405 0.950 . S
C3413 C3411 1.327 . S
C3414 C3402 1.349 . S
C3414 H3408 0.950 . S
C3414 C3415 1.327 . S
C3415 H3409 0.950 . S
C3415 C3414 1.327 . S
C3415 C3419 1.429 . S
C3416 C3399 1.574 . S
C3416 H3410 0.949 . S
C3416 C3420 1.368 . S
C3417 C3398 1.429 . S
C3417 C3411 1.429 . S
C3417 C3418 1.523 . S
C3418 C3399 1.368 . S
C3418 C3412 1.368 . S
C3418 C3417 1.523 . S
C3419 C3403 1.429 . S
C3419 C3415 1.429 . S
C3419 C3420 1.523 . S
C3420 C3404 1.368 . S
C3420 C3416 1.368 . S
C3420 C3419 1.523 . S
H3421 C3396 0.950 . S
H3422 C3398 0.950 . S
H3423 C3399 0.949 . S
H3424 C3401 0.950 . S
H3425 C3403 0.950 . S
C3426 C3427 1.349 . S
C3426 C3428 1.327 . S
C3426 H3451 0.950 . S
C3427 C3426 1.349 . S
C3427 C3443 1.349 . S
C3428 C3426 1.327 . S
C3428 C3447 1.429 . S
C3428 H3452 0.950 . S
C3429 C3446 1.574 . S
C3429 C3448 1.368 . S
C3429 H3453 0.949 . S
H3430 C3434 0.949 . S
C3431 C3432 1.349 . S
C3431 C3433 1.327 . S
C3431 H3454 0.950 . S
C3432 C3431 1.349 . S
C3432 C3444 1.349 . S
C3433 C3431 1.327 . S
C3433 C3449 1.429 . S
C3433 H3455 0.950 . S
C3434 H3430 0.949 . S
C3434 C3442 1.574 . S
C3434 C3450 1.368 . S
H3435 C3443 0.950 . S
H3436 C3441 0.950 . S
H3437 C3442 0.949 . S
H3438 C3444 0.950 . S
H3439 C3445 0.950 . S
H3440 C3446 0.949 . S
C3441 H3436 0.950 . S
C3441 C3443 1.327 . S
C3441 C3447 1.429 . S
C3442 C3434 1.574 . S
C3442 H3437 0.949 . S
C3442 C3448 1.368 . S
C3443 C3427 1.349 . S
C3443 H3435 0.950 . S
C3443 C3441 1.327 . S
C3444 C3432 1.349 . S
C3444 H3438 0.950 . S
C3444 C3445 1.327 . S
C3445 H3439 0.950 . S
C3445 C3444 1.327 . S
C3445 C3449 1.429 . S
C3446 C3429 1.574 . S
C3446 H3440 0.949 . S
C3446 C3450 1.368 . S
C3447 C3428 1.429 . S
C3447 C3441 1.429 . S
C3447 C3448 1.523 . S
C3448 C3429 1.368 . S
C3448 C3442 1.368 . S
C3448 C3447 1.523 . S
C3449 C3433 1.429 . S
C3449 C3445 1.429 . S
C3449 C3450 1.523 . S
C3450 C3434 1.368 . S
C3450 C3446 1.368 . S
C3450 C3449 1.523 . S
H3451 C3426 0.950 . S
H3452 C3428 0.950 . S
H3453 C3429 0.949 . S
H3454 C3431 0.950 . S
H3455 C3433 0.950 . S
C3456 C3457 1.349 . S
C3456 C3458 1.327 . S
C3456 H3481 0.950 . S
C3457 C3456 1.349 . S
C3457 C3473 1.349 . S
C3458 C3456 1.327 . S
C3458 C3477 1.429 . S
C3458 H3482 0.950 . S
C3459 C3476 1.574 . S
C3459 C3478 1.368 . S
C3459 H3483 0.949 . S
H3460 C3464 0.949 . S
C3461 C3462 1.349 . S
C3461 C3463 1.327 . S
C3461 H3484 0.950 . S
C3462 C3461 1.349 . S
C3462 C3474 1.349 . S
C3463 C3461 1.327 . S
C3463 C3479 1.429 . S
C3463 H3485 0.950 . S
C3464 H3460 0.949 . S
C3464 C3472 1.574 . S
C3464 C3480 1.368 . S
H3465 C3473 0.950 . S
H3466 C3471 0.950 . S
H3467 C3472 0.949 . S
H3468 C3474 0.950 . S
H3469 C3475 0.950 . S
H3470 C3476 0.949 . S
C3471 H3466 0.950 . S
C3471 C3473 1.327 . S
C3471 C3477 1.429 . S
C3472 C3464 1.574 . S
C3472 H3467 0.949 . S
C3472 C3478 1.368 . S
C3473 C3457 1.349 . S
C3473 H3465 0.950 . S
C3473 C3471 1.327 . S
C3474 C3462 1.349 . S
C3474 H3468 0.950 . S
C3474 C3475 1.327 . S
C3475 H3469 0.950 . S
C3475 C3474 1.327 . S
C3475 C3479 1.429 . S
C3476 C3459 1.574 . S
C3476 H3470 0.949 . S
C3476 C3480 1.368 . S
C3477 C3458 1.429 . S
C3477 C3471 1.429 . S
C3477 C3478 1.523 . S
C3478 C3459 1.368 . S
C3478 C3472 1.368 . S
C3478 C3477 1.523 . S
C3479 C3463 1.429 . S
C3479 C3475 1.429 . S
C3479 C3480 1.523 . S
C3480 C3464 1.368 . S
C3480 C3476 1.368 . S
C3480 C3479 1.523 . S
H3481 C3456 0.950 . S
H3482 C3458 0.950 . S
H3483 C3459 0.949 . S
H3484 C3461 0.950 . S
H3485 C3463 0.950 . S
C3486 C3487 1.349 . S
C3486 C3488 1.327 . S
C3486 H3511 0.950 . S
C3487 C3486 1.349 . S
C3487 C3503 1.349 . S
C3488 C3486 1.327 . S
C3488 C3507 1.429 . S
C3488 H3512 0.950 . S
C3489 C3506 1.574 . S
C3489 C3508 1.368 . S
C3489 H3513 0.949 . S
H3490 C3494 0.949 . S
C3491 C3492 1.349 . S
C3491 C3493 1.327 . S
C3491 H3514 0.950 . S
C3492 C3491 1.349 . S
C3492 C3504 1.349 . S
C3493 C3491 1.327 . S
C3493 C3509 1.429 . S
C3493 H3515 0.950 . S
C3494 H3490 0.949 . S
C3494 C3502 1.574 . S
C3494 C3510 1.368 . S
H3495 C3503 0.950 . S
H3496 C3501 0.950 . S
H3497 C3502 0.949 . S
H3498 C3504 0.950 . S
H3499 C3505 0.950 . S
H3500 C3506 0.949 . S
C3501 H3496 0.950 . S
C3501 C3503 1.327 . S
C3501 C3507 1.429 . S
C3502 C3494 1.574 . S
C3502 H3497 0.949 . S
C3502 C3508 1.368 . S
C3503 C3487 1.349 . S
C3503 H3495 0.950 . S
C3503 C3501 1.327 . S
C3504 C3492 1.349 . S
C3504 H3498 0.950 . S
C3504 C3505 1.327 . S
C3505 H3499 0.950 . S
C3505 C3504 1.327 . S
C3505 C3509 1.429 . S
C3506 C3489 1.574 . S
C3506 H3500 0.949 . S
C3506 C3510 1.368 . S
C3507 C3488 1.429 . S
C3507 C3501 1.429 . S
C3507 C3508 1.523 . S
C3508 C3489 1.368 . S
C3508 C3502 1.368 . S
C3508 C3507 1.523 . S
C3509 C3493 1.429 . S
C3509 C3505 1.429 . S
C3509 C3510 1.523 . S
C3510 C3494 1.368 . S
C3510 C3506 1.368 . S
C3510 C3509 1.523 . S
H3511 C3486 0.950 . S
H3512 C3488 0.950 . S
H3513 C3489 0.949 . S
H3514 C3491 0.950 . S
H3515 C3493 0.950 . S
C3516 C3517 1.349 . S
C3516 C3518 1.327 . S
C3516 H3541 0.950 . S
C3517 C3516 1.349 . S
C3517 C3533 1.349 . S
C3518 C3516 1.327 . S
C3518 C3537 1.429 . S
C3518 H3542 0.950 . S
C3519 C3536 1.574 . S
C3519 C3538 1.368 . S
C3519 H3543 0.949 . S
H3520 C3524 0.949 . S
C3521 C3522 1.349 . S
C3521 C3523 1.327 . S
C3521 H3544 0.950 . S
C3522 C3521 1.349 . S
C3522 C3534 1.349 . S
C3523 C3521 1.327 . S
C3523 C3539 1.429 . S
C3523 H3545 0.950 . S
C3524 H3520 0.949 . S
C3524 C3532 1.574 . S
C3524 C3540 1.368 . S
H3525 C3533 0.950 . S
H3526 C3531 0.950 . S
H3527 C3532 0.949 . S
H3528 C3534 0.950 . S
H3529 C3535 0.950 . S
H3530 C3536 0.949 . S
C3531 H3526 0.950 . S
C3531 C3533 1.327 . S
C3531 C3537 1.429 . S
C3532 C3524 1.574 . S
C3532 H3527 0.949 . S
C3532 C3538 1.368 . S
C3533 C3517 1.349 . S
C3533 H3525 0.950 . S
C3533 C3531 1.327 . S
C3534 C3522 1.349 . S
C3534 H3528 0.950 . S
C3534 C3535 1.327 . S
C3535 H3529 0.950 . S
C3535 C3534 1.327 . S
C3535 C3539 1.429 . S
C3536 C3519 1.574 . S
C3536 H3530 0.949 . S
C3536 C3540 1.368 . S
C3537 C3518 1.429 . S
C3537 C3531 1.429 . S
C3537 C3538 1.523 . S
C3538 C3519 1.368 . S
C3538 C3532 1.368 . S
C3538 C3537 1.523 . S
C3539 C3523 1.429 . S
C3539 C3535 1.429 . S
C3539 C3540 1.523 . S
C3540 C3524 1.368 . S
C3540 C3536 1.368 . S
C3540 C3539 1.523 . S
H3541 C3516 0.950 . S
H3542 C3518 0.950 . S
H3543 C3519 0.949 . S
H3544 C3521 0.950 . S
H3545 C3523 0.950 . S
C3546 C3547 1.349 . S
C3546 C3548 1.327 . S
C3546 H3571 0.950 . S
C3547 C3546 1.349 . S
C3547 C3563 1.349 . S
C3548 C3546 1.327 . S
C3548 C3567 1.429 . S
C3548 H3572 0.950 . S
C3549 C3566 1.574 . S
C3549 C3568 1.368 . S
C3549 H3573 0.949 . S
H3550 C3554 0.949 . S
C3551 C3552 1.349 . S
C3551 C3553 1.327 . S
C3551 H3574 0.950 . S
C3552 C3551 1.349 . S
C3552 C3564 1.349 . S
C3553 C3551 1.327 . S
C3553 C3569 1.429 . S
C3553 H3575 0.950 . S
C3554 H3550 0.949 . S
C3554 C3562 1.574 . S
C3554 C3570 1.368 . S
H3555 C3563 0.950 . S
H3556 C3561 0.950 . S
H3557 C3562 0.949 . S
H3558 C3564 0.950 . S
H3559 C3565 0.950 . S
H3560 C3566 0.949 . S
C3561 H3556 0.950 . S
C3561 C3563 1.327 . S
C3561 C3567 1.429 . S
C3562 C3554 1.574 . S
C3562 H3557 0.949 . S
C3562 C3568 1.368 . S
C3563 C3547 1.349 . S
C3563 H3555 0.950 . S
C3563 C3561 1.327 . S
C3564 C3552 1.349 . S
C3564 H3558 0.950 . S
C3564 C3565 1.327 . S
C3565 H3559 0.950 . S
C3565 C3564 1.327 . S
C3565 C3569 1.429 . S
C3566 C3549 1.574 . S
C3566 H3560 0.949 . S
C3566 C3570 1.368 . S
C3567 C3548 1.429 . S
C3567 C3561 1.429 . S
C3567 C3568 1.523 . S
C3568 C3549 1.368 . S
C3568 C3562 1.368 . S
C3568 C3567 1.523 . S
C3569 C3553 1.429 . S
C3569 C3565 1.429 . S
C3569 C3570 1.523 . S
C3570 C3554 1.368 . S
C3570 C3566 1.368 . S
C3570 C3569 1.523 . S
H3571 C3546 0.950 . S
H3572 C3548 0.950 . S
H3573 C3549 0.949 . S
H3574 C3551 0.950 . S
H3575 C3553 0.950 . S
C3576 C3577 1.349 . S
C3576 C3578 1.327 . S
C3576 H3601 0.950 . S
C3577 C3576 1.349 . S
C3577 C3593 1.349 . S
C3578 C3576 1.327 . S
C3578 C3597 1.429 . S
C3578 H3602 0.950 . S
C3579 C3596 1.574 . S
C3579 C3598 1.368 . S
C3579 H3603 0.949 . S
H3580 C3584 0.949 . S
C3581 C3582 1.349 . S
C3581 C3583 1.327 . S
C3581 H3604 0.950 . S
C3582 C3581 1.349 . S
C3582 C3594 1.349 . S
C3583 C3581 1.327 . S
C3583 C3599 1.429 . S
C3583 H3605 0.950 . S
C3584 H3580 0.949 . S
C3584 C3592 1.574 . S
C3584 C3600 1.368 . S
H3585 C3593 0.950 . S
H3586 C3591 0.950 . S
H3587 C3592 0.949 . S
H3588 C3594 0.950 . S
H3589 C3595 0.950 . S
H3590 C3596 0.949 . S
C3591 H3586 0.950 . S
C3591 C3593 1.327 . S
C3591 C3597 1.429 . S
C3592 C3584 1.574 . S
C3592 H3587 0.949 . S
C3592 C3598 1.368 . S
C3593 C3577 1.349 . S
C3593 H3585 0.950 . S
C3593 C3591 1.327 . S
C3594 C3582 1.349 . S
C3594 H3588 0.950 . S
C3594 C3595 1.327 . S
C3595 H3589 0.950 . S
C3595 C3594 1.327 . S
C3595 C3599 1.429 . S
C3596 C3579 1.574 . S
C3596 H3590 0.949 . S
C3596 C3600 1.368 . S
C3597 C3578 1.429 . S
C3597 C3591 1.429 . S
C3597 C3598 1.523 . S
C3598 C3579 1.368 . S
C3598 C3592 1.368 . S
C3598 C3597 1.523 . S
C3599 C3583 1.429 . S
C3599 C3595 1.429 . S
C3599 C3600 1.523 . S
C3600 C3584 1.368 . S
C3600 C3596 1.368 . S
C3600 C3599 1.523 . S
H3601 C3576 0.950 . S
H3602 C3578 0.950 . S
H3603 C3579 0.949 . S
H3604 C3581 0.950 . S
H3605 C3583 0.950 . S
C3606 C3607 1.349 . S
C3606 C3608 1.327 . S
C3606 H3631 0.950 . S
C3607 C3606 1.349 . S
C3607 C3623 1.349 . S
C3608 C3606 1.327 . S
C3608 C3627 1.429 . S
C3608 H3632 0.950 . S
C3609 C3626 1.574 . S
C3609 C3628 1.368 . S
C3609 H3633 0.949 . S
H3610 C3614 0.949 . S
C3611 C3612 1.349 . S
C3611 C3613 1.327 . S
C3611 H3634 0.950 . S
C3612 C3611 1.349 . S
C3612 C3624 1.349 . S
C3613 C3611 1.327 . S
C3613 C3629 1.429 . S
C3613 H3635 0.950 . S
C3614 H3610 0.949 . S
C3614 C3622 1.574 . S
C3614 C3630 1.368 . S
H3615 C3623 0.950 . S
H3616 C3621 0.950 . S
H3617 C3622 0.949 . S
H3618 C3624 0.950 . S
H3619 C3625 0.950 . S
H3620 C3626 0.949 . S
C3621 H3616 0.950 . S
C3621 C3623 1.327 . S
C3621 C3627 1.429 . S
C3622 C3614 1.574 . S
C3622 H3617 0.949 . S
C3622 C3628 1.368 . S
C3623 C3607 1.349 . S
C3623 H3615 0.950 . S
C3623 C3621 1.327 . S
C3624 C3612 1.349 . S
C3624 H3618 0.950 . S
C3624 C3625 1.327 . S
C3625 H3619 0.950 . S
C3625 C3624 1.327 . S
C3625 C3629 1.429 . S
C3626 C3609 1.574 . S
C3626 H3620 0.949 . S
C3626 C3630 1.368 . S
C3627 C3608 1.429 . S
C3627 C3621 1.429 . S
C3627 C3628 1.523 . S
C3628 C3609 1.368 . S
C3628 C3622 1.368 . S
C3628 C3627 1.523 . S
C3629 C3613 1.429 . S
C3629 C3625 1.429 . S
C3629 C3630 1.523 . S
C3630 C3614 1.368 . S
C3630 C3626 1.368 . S
C3630 C3629 1.523 . S
H3631 C3606 0.950 . S
H3632 C3608 0.950 . S
H3633 C3609 0.949 . S
H3634 C3611 0.950 . S
H3635 C3613 0.950 . S
C3636 C3637 1.349 . S
C3636 C3638 1.327 . S
C3636 H3661 0.950 . S
C3637 C3636 1.349 . S
C3637 C3653 1.349 . S
C3638 C3636 1.327 . S
C3638 C3657 1.429 . S
C3638 H3662 0.950 . S
C3639 C3656 1.574 . S
C3639 C3658 1.368 . S
C3639 H3663 0.949 . S
H3640 C3644 0.949 . S
C3641 C3642 1.349 . S
C3641 C3643 1.327 . S
C3641 H3664 0.950 . S
C3642 C3641 1.349 . S
C3642 C3654 1.349 . S
C3643 C3641 1.327 . S
C3643 C3659 1.429 . S
C3643 H3665 0.950 . S
C3644 H3640 0.949 . S
C3644 C3652 1.574 . S
C3644 C3660 1.368 . S
H3645 C3653 0.950 . S
H3646 C3651 0.950 . S
H3647 C3652 0.949 . S
H3648 C3654 0.950 . S
H3649 C3655 0.950 . S
H3650 C3656 0.949 . S
C3651 H3646 0.950 . S
C3651 C3653 1.327 . S
C3651 C3657 1.429 . S
C3652 C3644 1.574 . S
C3652 H3647 0.949 . S
C3652 C3658 1.368 . S
C3653 C3637 1.349 . S
C3653 H3645 0.950 . S
C3653 C3651 1.327 . S
C3654 C3642 1.349 . S
C3654 H3648 0.950 . S
C3654 C3655 1.327 . S
C3655 H3649 0.950 . S
C3655 C3654 1.327 . S
C3655 C3659 1.429 . S
C3656 C3639 1.574 . S
C3656 H3650 0.949 . S
C3656 C3660 1.368 . S
C3657 C3638 1.429 . S
C3657 C3651 1.429 . S
C3657 C3658 1.523 . S
C3658 C3639 1.368 . S
C3658 C3652 1.368 . S
C3658 C3657 1.523 . S
C3659 C3643 1.429 . S
C3659 C3655 1.429 . S
C3659 C3660 1.523 . S
C3660 C3644 1.368 . S
C3660 C3656 1.368 . S
C3660 C3659 1.523 . S
H3661 C3636 0.950 . S
H3662 C3638 0.950 . S
H3663 C3639 0.949 . S
H3664 C3641 0.950 . S
H3665 C3643 0.950 . S
C3666 C3667 1.349 . S
C3666 C3668 1.327 . S
C3666 H3691 0.950 . S
C3667 C3666 1.349 . S
C3667 C3683 1.349 . S
C3668 C3666 1.327 . S
C3668 C3687 1.429 . S
C3668 H3692 0.931 1_565 S
C3669 C3686 1.574 . S
C3669 C3688 1.368 . S
C3669 H3693 0.949 . S
H3670 C3674 0.949 . S
C3671 C3672 1.349 . S
C3671 C3673 1.327 1_545 S
C3671 H3694 0.950 1_545 S
C3672 C3671 1.349 . S
C3672 C3684 1.349 . S
C3673 C3671 1.327 1_565 S
C3673 C3689 1.429 1_565 S
C3673 H3695 0.950 . S
C3674 H3670 0.949 . S
C3674 C3682 1.574 . S
C3674 C3690 1.368 1_545 S
H3675 C3683 0.950 . S
H3676 C3681 0.950 . S
H3677 C3682 0.949 . S
H3678 C3684 0.950 . S
H3679 C3685 0.950 . S
H3680 C3686 0.949 . S
C3681 H3676 0.950 . S
C3681 C3683 1.327 . S
C3681 C3687 1.429 . S
C3682 C3674 1.574 . S
C3682 H3677 0.949 . S
C3682 C3688 1.368 1_545 S
C3683 C3667 1.349 . S
C3683 H3675 0.950 . S
C3683 C3681 1.327 . S
C3684 C3672 1.349 . S
C3684 H3678 0.950 . S
C3684 C3685 1.327 . S
C3685 H3679 0.950 . S
C3685 C3684 1.327 . S
C3685 C3689 1.429 . S
C3686 C3669 1.574 . S
C3686 H3680 0.949 . S
C3686 C3690 1.368 . S
C3687 C3668 1.429 . S
C3687 C3681 1.429 . S
C3687 C3688 1.523 . S
C3688 C3669 1.368 . S
C3688 C3682 1.368 1_565 S
C3688 C3687 1.523 . S
C3689 C3673 1.429 1_545 S
C3689 C3685 1.429 . S
C3689 C3690 1.523 1_545 S
C3690 C3674 1.368 1_565 S
C3690 C3686 1.368 . S
C3690 C3689 1.523 1_565 S
H3691 C3666 0.950 . S
H3692 C3668 0.931 1_545 S
H3693 C3669 0.949 . S
H3694 C3671 0.950 1_565 S
H3695 C3673 0.950 . S
C3696 C3697 1.349 . S
C3696 C3698 1.327 . S
C3696 H3721 0.950 . S
C3697 C3696 1.349 . S
C3697 C3713 1.349 . S
C3698 C3696 1.327 . S
C3698 C3717 1.429 . S
C3698 H3722 0.950 . S
C3699 C3716 1.574 . S
C3699 C3718 1.368 . S
C3699 H3723 0.949 . S
H3700 C3704 0.949 . S
C3701 C3702 1.349 . S
C3701 C3703 1.327 . S
C3701 H3724 0.950 . S
C3702 C3701 1.349 . S
C3702 C3714 1.349 . S
C3703 C3701 1.327 . S
C3703 C3719 1.429 . S
C3703 H3725 0.950 . S
C3704 H3700 0.949 . S
C3704 C3712 1.574 . S
C3704 C3720 1.368 . S
H3705 C3713 0.950 . S
H3706 C3711 0.950 . S
H3707 C3712 0.949 . S
H3708 C3714 0.950 . S
H3709 C3715 0.950 . S
H3710 C3716 0.949 . S
C3711 H3706 0.950 . S
C3711 C3713 1.327 . S
C3711 C3717 1.429 . S
C3712 C3704 1.574 . S
C3712 H3707 0.949 . S
C3712 C3718 1.368 . S
C3713 C3697 1.349 . S
C3713 H3705 0.950 . S
C3713 C3711 1.327 . S
C3714 C3702 1.349 . S
C3714 H3708 0.950 . S
C3714 C3715 1.327 . S
C3715 H3709 0.950 . S
C3715 C3714 1.327 . S
C3715 C3719 1.429 . S
C3716 C3699 1.574 . S
C3716 H3710 0.949 . S
C3716 C3720 1.368 . S
C3717 C3698 1.429 . S
C3717 C3711 1.429 . S
C3717 C3718 1.523 . S
C3718 C3699 1.368 . S
C3718 C3712 1.368 . S
C3718 C3717 1.523 . S
C3719 C3703 1.429 . S
C3719 C3715 1.429 . S
C3719 C3720 1.523 . S
C3720 C3704 1.368 . S
C3720 C3716 1.368 . S
C3720 C3719 1.523 . S
H3721 C3696 0.950 . S
H3722 C3698 0.950 . S
H3723 C3699 0.949 . S
H3724 C3701 0.950 . S
H3725 C3703 0.950 . S
C3726 C3727 1.349 . S
C3726 C3728 1.327 . S
C3726 H3751 0.950 . S
C3727 C3726 1.349 . S
C3727 C3743 1.349 1_556 S
C3728 C3726 1.327 . S
C3728 C3747 1.429 1_556 S
C3728 H3752 0.950 . S
C3729 C3746 1.574 . S
C3729 C3748 1.368 . S
C3729 H3753 0.949 . S
H3730 C3734 0.949 . S
C3731 C3732 1.349 . S
C3731 C3733 1.327 . S
C3731 H3754 0.950 . S
C3732 C3731 1.349 . S
C3732 C3744 1.349 . S
C3733 C3731 1.327 . S
C3733 C3749 1.429 . S
C3733 H3755 0.950 . S
C3734 H3730 0.949 . S
C3734 C3742 1.574 . S
C3734 C3750 1.368 1_556 S
H3735 C3743 0.950 . S
H3736 C3741 0.950 . S
H3737 C3742 0.949 . S
H3738 C3744 0.950 1_556 S
H3739 C3745 0.950 1_556 S
H3740 C3746 0.949 . S
C3741 H3736 0.950 . S
C3741 C3743 1.327 . S
C3741 C3747 1.429 . S
C3742 C3734 1.574 . S
C3742 H3737 0.949 . S
C3742 C3748 1.368 1_556 S
C3743 C3727 1.349 1_554 S
C3743 H3735 0.950 . S
C3743 C3741 1.327 . S
C3744 C3732 1.349 . S
C3744 H3738 0.950 1_554 S
C3744 C3745 1.327 . S
C3745 H3739 0.950 1_554 S
C3745 C3744 1.327 . S
C3745 C3749 1.429 . S
C3746 C3729 1.574 . S
C3746 H3740 0.949 . S
C3746 C3750 1.368 . S
C3747 C3728 1.429 1_554 S
C3747 C3741 1.429 . S
C3747 C3748 1.523 . S
C3748 C3729 1.368 . S
C3748 C3742 1.368 1_554 S
C3748 C3747 1.523 . S
C3749 C3733 1.429 . S
C3749 C3745 1.429 . S
C3749 C3750 1.523 . S
C3750 C3734 1.368 1_554 S
C3750 C3746 1.368 . S
C3750 C3749 1.523 . S
H3751 C3726 0.950 . S
H3752 C3728 0.950 . S
H3753 C3729 0.949 . S
H3754 C3731 0.950 . S
H3755 C3733 0.950 . S
C3756 C3757 1.349 . S
C3756 C3758 1.327 . S
C3756 H3781 0.950 . S
C3757 C3756 1.349 . S
C3757 C3773 1.349 . S
C3758 C3756 1.327 . S
C3758 C3777 1.429 . S
C3758 H3782 0.950 . S
C3759 C3776 1.574 . S
C3759 C3778 1.368 . S
C3759 H3783 0.949 . S
H3760 C3764 0.949 . S
C3761 C3762 1.349 . S
C3761 C3763 1.327 . S
C3761 H3784 0.950 . S
C3762 C3761 1.349 . S
C3762 C3774 1.349 . S
C3763 C3761 1.327 . S
C3763 C3779 1.429 . S
C3763 H3785 0.950 . S
C3764 H3760 0.949 . S
C3764 C3772 1.574 . S
C3764 C3780 1.368 . S
H3765 C3773 0.950 . S
H3766 C3771 0.950 . S
H3767 C3772 0.949 . S
H3768 C3774 0.950 . S
H3769 C3775 0.950 . S
H3770 C3776 0.949 . S
C3771 H3766 0.950 . S
C3771 C3773 1.327 . S
C3771 C3777 1.429 . S
C3772 C3764 1.574 . S
C3772 H3767 0.949 . S
C3772 C3778 1.368 . S
C3773 C3757 1.349 . S
C3773 H3765 0.950 . S
C3773 C3771 1.327 . S
C3774 C3762 1.349 . S
C3774 H3768 0.950 . S
C3774 C3775 1.327 . S
C3775 H3769 0.950 . S
C3775 C3774 1.327 . S
C3775 C3779 1.429 . S
C3776 C3759 1.574 . S
C3776 H3770 0.949 . S
C3776 C3780 1.368 . S
C3777 C3758 1.429 . S
C3777 C3771 1.429 . S
C3777 C3778 1.523 . S
C3778 C3759 1.368 . S
C3778 C3772 1.368 . S
C3778 C3777 1.523 . S
C3779 C3763 1.429 . S
C3779 C3775 1.429 . S
C3779 C3780 1.523 . S
C3780 C3764 1.368 . S
C3780 C3776 1.368 . S
C3780 C3779 1.523 . S
H3781 C3756 0.950 . S
H3782 C3758 0.950 . S
H3783 C3759 0.949 . S
H3784 C3761 0.950 . S
H3785 C3763 0.950 . S
C3786 C3787 1.349 . S
C3786 C3788 1.327 . S
C3786 H3811 0.950 . S
C3787 C3786 1.349 . S
C3787 C3803 1.349 . S
C3788 C3786 1.327 . S
C3788 C3807 1.429 . S
C3788 H3812 0.950 . S
C3789 C3806 1.574 . S
C3789 C3808 1.368 . S
C3789 H3813 0.949 . S
H3790 C3794 0.949 . S
C3791 C3792 1.349 . S
C3791 C3793 1.327 . S
C3791 H3814 0.950 . S
C3792 C3791 1.349 . S
C3792 C3804 1.349 . S
C3793 C3791 1.327 . S
C3793 C3809 1.429 . S
C3793 H3815 0.950 . S
C3794 H3790 0.949 . S
C3794 C3802 1.574 . S
C3794 C3810 1.368 . S
H3795 C3803 0.950 . S
H3796 C3801 0.950 . S
H3797 C3802 0.949 . S
H3798 C3804 0.950 . S
H3799 C3805 0.950 . S
H3800 C3806 0.949 . S
C3801 H3796 0.950 . S
C3801 C3803 1.327 . S
C3801 C3807 1.429 . S
C3802 C3794 1.574 . S
C3802 H3797 0.949 . S
C3802 C3808 1.368 . S
C3803 C3787 1.349 . S
C3803 H3795 0.950 . S
C3803 C3801 1.327 . S
C3804 C3792 1.349 . S
C3804 H3798 0.950 . S
C3804 C3805 1.327 . S
C3805 H3799 0.950 . S
C3805 C3804 1.327 . S
C3805 C3809 1.429 . S
C3806 C3789 1.574 . S
C3806 H3800 0.949 . S
C3806 C3810 1.368 . S
C3807 C3788 1.429 . S
C3807 C3801 1.429 . S
C3807 C3808 1.523 . S
C3808 C3789 1.368 . S
C3808 C3802 1.368 . S
C3808 C3807 1.523 . S
C3809 C3793 1.429 . S
C3809 C3805 1.429 . S
C3809 C3810 1.523 . S
C3810 C3794 1.368 . S
C3810 C3806 1.368 . S
C3810 C3809 1.523 . S
H3811 C3786 0.950 . S
H3812 C3788 0.950 . S
H3813 C3789 0.949 . S
H3814 C3791 0.950 . S
H3815 C3793 0.950 . S
C3816 C3817 1.349 . S
C3816 C3818 1.327 . S
C3816 H3841 0.950 . S
C3817 C3816 1.349 . S
C3817 C3833 1.349 . S
C3818 C3816 1.327 . S
C3818 C3837 1.429 . S
C3818 H3842 0.950 . S
C3819 C3836 1.574 . S
C3819 C3838 1.368 . S
C3819 H3843 0.949 . S
H3820 C3824 0.949 . S
C3821 C3822 1.349 . S
C3821 C3823 1.327 . S
C3821 H3844 0.950 . S
C3822 C3821 1.349 . S
C3822 C3834 1.349 . S
C3823 C3821 1.327 . S
C3823 C3839 1.429 . S
C3823 H3845 0.950 . S
C3824 H3820 0.949 . S
C3824 C3832 1.574 . S
C3824 C3840 1.368 . S
H3825 C3833 0.950 . S
H3826 C3831 0.950 . S
H3827 C3832 0.949 . S
H3828 C3834 0.950 . S
H3829 C3835 0.950 . S
H3830 C3836 0.949 . S
C3831 H3826 0.950 . S
C3831 C3833 1.327 . S
C3831 C3837 1.429 . S
C3832 C3824 1.574 . S
C3832 H3827 0.949 . S
C3832 C3838 1.368 . S
C3833 C3817 1.349 . S
C3833 H3825 0.950 . S
C3833 C3831 1.327 . S
C3834 C3822 1.349 . S
C3834 H3828 0.950 . S
C3834 C3835 1.327 . S
C3835 H3829 0.950 . S
C3835 C3834 1.327 . S
C3835 C3839 1.429 . S
C3836 C3819 1.574 . S
C3836 H3830 0.949 . S
C3836 C3840 1.368 . S
C3837 C3818 1.429 . S
C3837 C3831 1.429 . S
C3837 C3838 1.523 . S
C3838 C3819 1.368 . S
C3838 C3832 1.368 . S
C3838 C3837 1.523 . S
C3839 C3823 1.429 . S
C3839 C3835 1.429 . S
C3839 C3840 1.523 . S
C3840 C3824 1.368 . S
C3840 C3836 1.368 . S
C3840 C3839 1.523 . S
H3841 C3816 0.950 . S
H3842 C3818 0.950 . S
H3843 C3819 0.949 . S
H3844 C3821 0.950 . S
H3845 C3823 0.950 . S
C3846 C3847 1.349 . S
C3846 C3848 1.327 . S
C3846 H3871 0.950 . S
C3847 C3846 1.349 . S
C3847 C3863 1.349 . S
C3848 C3846 1.327 . S
C3848 C3867 1.429 . S
C3848 H3872 0.950 . S
C3849 C3866 1.574 . S
C3849 C3868 1.368 . S
C3849 H3873 0.949 . S
H3850 C3854 0.949 . S
C3851 C3852 1.349 . S
C3851 C3853 1.327 . S
C3851 H3874 0.950 . S
C3852 C3851 1.349 . S
C3852 C3864 1.349 . S
C3853 C3851 1.327 . S
C3853 C3869 1.429 . S
C3853 H3875 0.950 . S
C3854 H3850 0.949 . S
C3854 C3862 1.574 . S
C3854 C3870 1.368 . S
H3855 C3863 0.950 . S
H3856 C3861 0.950 . S
H3857 C3862 0.949 . S
H3858 C3864 0.950 . S
H3859 C3865 0.950 . S
H3860 C3866 0.949 . S
C3861 H3856 0.950 . S
C3861 C3863 1.327 . S
C3861 C3867 1.429 . S
C3862 C3854 1.574 . S
C3862 H3857 0.949 . S
C3862 C3868 1.368 . S
C3863 C3847 1.349 . S
C3863 H3855 0.950 . S
C3863 C3861 1.327 . S
C3864 C3852 1.349 . S
C3864 H3858 0.950 . S
C3864 C3865 1.327 . S
C3865 H3859 0.950 . S
C3865 C3864 1.327 . S
C3865 C3869 1.429 . S
C3866 C3849 1.574 . S
C3866 H3860 0.949 . S
C3866 C3870 1.368 . S
C3867 C3848 1.429 . S
C3867 C3861 1.429 . S
C3867 C3868 1.523 . S
C3868 C3849 1.368 . S
C3868 C3862 1.368 . S
C3868 C3867 1.523 . S
C3869 C3853 1.429 . S
C3869 C3865 1.429 . S
C3869 C3870 1.523 . S
C3870 C3854 1.368 . S
C3870 C3866 1.368 . S
C3870 C3869 1.523 . S
H3871 C3846 0.950 . S
H3872 C3848 0.950 . S
H3873 C3849 0.949 . S
H3874 C3851 0.950 . S
H3875 C3853 0.950 . S
C3876 C3877 1.349 . S
C3876 C3878 1.327 . S
C3876 H3901 0.950 . S
C3877 C3876 1.349 . S
C3877 C3893 1.349 . S
C3878 C3876 1.327 . S
C3878 C3897 1.429 . S
C3878 H3902 0.950 . S
C3879 C3896 1.574 . S
C3879 C3898 1.368 . S
C3879 H3903 0.949 . S
H3880 C3884 0.949 . S
C3881 C3882 1.349 . S
C3881 C3883 1.327 . S
C3881 H3904 0.950 . S
C3882 C3881 1.349 . S
C3882 C3894 1.349 . S
C3883 C3881 1.327 . S
C3883 C3899 1.429 . S
C3883 H3905 0.950 . S
C3884 H3880 0.949 . S
C3884 C3892 1.574 . S
C3884 C3900 1.368 . S
H3885 C3893 0.950 . S
H3886 C3891 0.950 . S
H3887 C3892 0.949 . S
H3888 C3894 0.950 . S
H3889 C3895 0.950 . S
H3890 C3896 0.949 . S
C3891 H3886 0.950 . S
C3891 C3893 1.327 . S
C3891 C3897 1.429 . S
C3892 C3884 1.574 . S
C3892 H3887 0.949 . S
C3892 C3898 1.368 . S
C3893 C3877 1.349 . S
C3893 H3885 0.950 . S
C3893 C3891 1.327 . S
C3894 C3882 1.349 . S
C3894 H3888 0.950 . S
C3894 C3895 1.327 . S
C3895 H3889 0.950 . S
C3895 C3894 1.327 . S
C3895 C3899 1.429 . S
C3896 C3879 1.574 . S
C3896 H3890 0.949 . S
C3896 C3900 1.368 . S
C3897 C3878 1.429 . S
C3897 C3891 1.429 . S
C3897 C3898 1.523 . S
C3898 C3879 1.368 . S
C3898 C3892 1.368 . S
C3898 C3897 1.523 . S
C3899 C3883 1.429 . S
C3899 C3895 1.429 . S
C3899 C3900 1.523 . S
C3900 C3884 1.368 . S
C3900 C3896 1.368 . S
C3900 C3899 1.523 . S
H3901 C3876 0.950 . S
H3902 C3878 0.950 . S
H3903 C3879 0.949 . S
H3904 C3881 0.950 . S
H3905 C3883 0.950 . S
C3906 C3907 1.349 . S
C3906 C3908 1.327 . S
C3906 H3931 0.950 . S
C3907 C3906 1.349 . S
C3907 C3923 1.349 . S
C3908 C3906 1.327 . S
C3908 C3927 1.429 . S
C3908 H3932 0.950 . S
C3909 C3926 1.574 . S
C3909 C3928 1.368 . S
C3909 H3933 0.949 . S
H3910 C3914 0.949 . S
C3911 C3912 1.349 . S
C3911 C3913 1.327 . S
C3911 H3934 0.950 . S
C3912 C3911 1.349 . S
C3912 C3924 1.349 . S
C3913 C3911 1.327 . S
C3913 C3929 1.429 . S
C3913 H3935 0.950 . S
C3914 H3910 0.949 . S
C3914 C3922 1.574 . S
C3914 C3930 1.368 . S
H3915 C3923 0.950 . S
H3916 C3921 0.950 . S
H3917 C3922 0.949 . S
H3918 C3924 0.950 . S
H3919 C3925 0.950 . S
H3920 C3926 0.949 . S
C3921 H3916 0.950 . S
C3921 C3923 1.327 . S
C3921 C3927 1.429 . S
C3922 C3914 1.574 . S
C3922 H3917 0.949 . S
C3922 C3928 1.368 . S
C3923 C3907 1.349 . S
C3923 H3915 0.950 . S
C3923 C3921 1.327 . S
C3924 C3912 1.349 . S
C3924 H3918 0.950 . S
C3924 C3925 1.327 . S
C3925 H3919 0.950 . S
C3925 C3924 1.327 . S
C3925 C3929 1.429 . S
C3926 C3909 1.574 . S
C3926 H3920 0.949 . S
C3926 C3930 1.368 . S
C3927 C3908 1.429 . S
C3927 C3921 1.429 . S
C3927 C3928 1.523 . S
C3928 C3909 1.368 . S
C3928 C3922 1.368 . S
C3928 C3927 1.523 . S
C3929 C3913 1.429 . S
C3929 C3925 1.429 . S
C3929 C3930 1.523 . S
C3930 C3914 1.368 . S
C3930 C3926 1.368 . S
C3930 C3929 1.523 . S
H3931 C3906 0.950 . S
H3932 C3908 0.950 . S
H3933 C3909 0.949 . S
H3934 C3911 0.950 . S
H3935 C3913 0.950 . S
C3936 C3937 1.349 . S
C3936 C3938 1.327 . S
C3936 H3961 0.950 . S
C3937 C3936 1.349 . S
C3937 C3953 1.349 . S
C3938 C3936 1.327 . S
C3938 C3957 1.429 . S
C3938 H3962 0.950 . S
C3939 C3956 1.574 . S
C3939 C3958 1.368 . S
C3939 H3963 0.949 . S
H3940 C3944 0.949 . S
C3941 C3942 1.349 . S
C3941 C3943 1.327 . S
C3941 H3964 0.950 1_556 S
C3942 C3941 1.349 . S
C3942 C3954 1.349 . S
C3943 C3941 1.327 . S
C3943 C3959 1.429 . S
C3943 H3965 0.950 . S
C3944 H3940 0.949 . S
C3944 C3952 1.574 . S
C3944 C3960 1.368 . S
H3945 C3953 0.950 . S
H3946 C3951 0.950 . S
H3947 C3952 0.949 . S
H3948 C3954 0.950 . S
H3949 C3955 0.950 . S
H3950 C3956 0.949 . S
C3951 H3946 0.950 . S
C3951 C3953 1.327 . S
C3951 C3957 1.429 . S
C3952 C3944 1.574 . S
C3952 H3947 0.949 . S
C3952 C3958 1.368 . S
C3953 C3937 1.349 . S
C3953 H3945 0.950 . S
C3953 C3951 1.327 . S
C3954 C3942 1.349 . S
C3954 H3948 0.950 . S
C3954 C3955 1.327 . S
C3955 H3949 0.950 . S
C3955 C3954 1.327 . S
C3955 C3959 1.429 . S
C3956 C3939 1.574 . S
C3956 H3950 0.949 . S
C3956 C3960 1.368 . S
C3957 C3938 1.429 . S
C3957 C3951 1.429 . S
C3957 C3958 1.523 . S
C3958 C3939 1.368 . S
C3958 C3952 1.368 . S
C3958 C3957 1.523 . S
C3959 C3943 1.429 . S
C3959 C3955 1.429 . S
C3959 C3960 1.523 . S
C3960 C3944 1.368 . S
C3960 C3956 1.368 . S
C3960 C3959 1.523 . S
H3961 C3936 0.950 . S
H3962 C3938 0.950 . S
H3963 C3939 0.949 . S
H3964 C3941 0.950 1_554 S
H3965 C3943 0.950 . S
C3966 C3967 1.349 . S
C3966 C3968 1.327 . S
C3966 H3991 0.950 . S
C3967 C3966 1.349 . S
C3967 C3983 1.349 . S
C3968 C3966 1.327 . S
C3968 C3987 1.429 . S
C3968 H3992 0.950 . S
C3969 C3986 1.574 . S
C3969 C3988 1.368 . S
C3969 H3993 0.949 . S
H3970 C3974 0.949 . S
C3971 C3972 1.349 . S
C3971 C3973 1.327 . S
C3971 H3994 0.950 . S
C3972 C3971 1.349 . S
C3972 C3984 1.349 . S
C3973 C3971 1.327 . S
C3973 C3989 1.429 . S
C3973 H3995 0.950 . S
C3974 H3970 0.949 . S
C3974 C3982 1.574 . S
C3974 C3990 1.368 . S
H3975 C3983 0.950 . S
H3976 C3981 0.950 . S
H3977 C3982 0.949 . S
H3978 C3984 0.950 . S
H3979 C3985 0.950 . S
H3980 C3986 0.949 . S
C3981 H3976 0.950 . S
C3981 C3983 1.327 . S
C3981 C3987 1.429 . S
C3982 C3974 1.574 . S
C3982 H3977 0.949 . S
C3982 C3988 1.368 . S
C3983 C3967 1.349 . S
C3983 H3975 0.950 . S
C3983 C3981 1.327 . S
C3984 C3972 1.349 . S
C3984 H3978 0.950 . S
C3984 C3985 1.327 . S
C3985 H3979 0.950 . S
C3985 C3984 1.327 . S
C3985 C3989 1.429 . S
C3986 C3969 1.574 . S
C3986 H3980 0.949 . S
C3986 C3990 1.368 . S
C3987 C3968 1.429 . S
C3987 C3981 1.429 . S
C3987 C3988 1.523 . S
C3988 C3969 1.368 . S
C3988 C3982 1.368 . S
C3988 C3987 1.523 . S
C3989 C3973 1.429 . S
C3989 C3985 1.429 . S
C3989 C3990 1.523 . S
C3990 C3974 1.368 . S
C3990 C3986 1.368 . S
C3990 C3989 1.523 . S
H3991 C3966 0.950 . S
H3992 C3968 0.950 . S
H3993 C3969 0.949 . S
H3994 C3971 0.950 . S
H3995 C3973 0.950 . S
C3996 C3997 1.349 . S
C3996 C3998 1.327 . S
C3996 H4021 0.950 . S
C3997 C3996 1.349 . S
C3997 C4013 1.349 . S
C3998 C3996 1.327 . S
C3998 C4017 1.429 . S
C3998 H4022 0.950 . S
C3999 C4016 1.574 . S
C3999 C4018 1.368 . S
C3999 H4023 0.949 . S
H4000 C4004 0.949 . S
C4001 C4002 1.349 . S
C4001 C4003 1.327 . S
C4001 H4024 0.950 . S
C4002 C4001 1.349 . S
C4002 C4014 1.349 . S
C4003 C4001 1.327 . S
C4003 C4019 1.429 . S
C4003 H4025 0.950 . S
C4004 H4000 0.949 . S
C4004 C4012 1.574 . S
C4004 C4020 1.368 . S
H4005 C4013 0.950 . S
H4006 C4011 0.950 . S
H4007 C4012 0.949 . S
H4008 C4014 0.950 . S
H4009 C4015 0.950 . S
H4010 C4016 0.949 . S
C4011 H4006 0.950 . S
C4011 C4013 1.327 . S
C4011 C4017 1.429 . S
C4012 C4004 1.574 . S
C4012 H4007 0.949 . S
C4012 C4018 1.368 . S
C4013 C3997 1.349 . S
C4013 H4005 0.950 . S
C4013 C4011 1.327 . S
C4014 C4002 1.349 . S
C4014 H4008 0.950 . S
C4014 C4015 1.327 . S
C4015 H4009 0.950 . S
C4015 C4014 1.327 . S
C4015 C4019 1.429 . S
C4016 C3999 1.574 . S
C4016 H4010 0.949 . S
C4016 C4020 1.368 . S
C4017 C3998 1.429 . S
C4017 C4011 1.429 . S
C4017 C4018 1.523 . S
C4018 C3999 1.368 . S
C4018 C4012 1.368 . S
C4018 C4017 1.523 . S
C4019 C4003 1.429 . S
C4019 C4015 1.429 . S
C4019 C4020 1.523 . S
C4020 C4004 1.368 . S
C4020 C4016 1.368 . S
C4020 C4019 1.523 . S
H4021 C3996 0.950 . S
H4022 C3998 0.950 . S
H4023 C3999 0.949 . S
H4024 C4001 0.950 . S
H4025 C4003 0.950 . S
C4026 C4027 1.349 . S
C4026 C4028 1.327 . S
C4026 H4051 0.950 . S
C4027 C4026 1.349 . S
C4027 C4043 1.349 . S
C4028 C4026 1.327 . S
C4028 C4047 1.429 . S
C4028 H4052 0.950 . S
C4029 C4046 1.574 . S
C4029 C4048 1.368 . S
C4029 H4053 0.949 . S
H4030 C4034 0.949 . S
C4031 C4032 1.349 . S
C4031 C4033 1.327 . S
C4031 H4054 0.950 . S
C4032 C4031 1.349 . S
C4032 C4044 1.349 . S
C4033 C4031 1.327 . S
C4033 C4049 1.429 . S
C4033 H4055 0.950 . S
C4034 H4030 0.949 . S
C4034 C4042 1.574 . S
C4034 C4050 1.368 . S
H4035 C4043 0.950 . S
H4036 C4041 0.950 . S
H4037 C4042 0.949 . S
H4038 C4044 0.950 . S
H4039 C4045 0.950 . S
H4040 C4046 0.949 . S
C4041 H4036 0.950 . S
C4041 C4043 1.327 . S
C4041 C4047 1.429 . S
C4042 C4034 1.574 . S
C4042 H4037 0.949 . S
C4042 C4048 1.368 . S
C4043 C4027 1.349 . S
C4043 H4035 0.950 . S
C4043 C4041 1.327 . S
C4044 C4032 1.349 . S
C4044 H4038 0.950 . S
C4044 C4045 1.327 . S
C4045 H4039 0.950 . S
C4045 C4044 1.327 . S
C4045 C4049 1.429 . S
C4046 C4029 1.574 . S
C4046 H4040 0.949 . S
C4046 C4050 1.368 . S
C4047 C4028 1.429 . S
C4047 C4041 1.429 . S
C4047 C4048 1.523 . S
C4048 C4029 1.368 . S
C4048 C4042 1.368 . S
C4048 C4047 1.523 . S
C4049 C4033 1.429 . S
C4049 C4045 1.429 . S
C4049 C4050 1.523 . S
C4050 C4034 1.368 . S
C4050 C4046 1.368 . S
C4050 C4049 1.523 . S
H4051 C4026 0.950 . S
H4052 C4028 0.950 . S
H4053 C4029 0.949 . S
H4054 C4031 0.950 . S
H4055 C4033 0.950 . S
C4056 C4057 1.349 . S
C4056 C4058 1.327 . S
C4056 H4081 0.950 . S
C4057 C4056 1.349 . S
C4057 C4073 1.349 . S
C4058 C4056 1.327 . S
C4058 C4077 1.429 . S
C4058 H4082 0.950 . S
C4059 C4076 1.574 . S
C4059 C4078 1.368 . S
C4059 H4083 0.949 . S
H4060 C4064 0.949 . S
C4061 C4062 1.349 . S
C4061 C4063 1.327 . S
C4061 H4084 0.950 . S
C4062 C4061 1.349 . S
C4062 C4074 1.349 . S
C4063 C4061 1.327 . S
C4063 C4079 1.429 . S
C4063 H4085 0.950 . S
C4064 H4060 0.949 . S
C4064 C4072 1.574 . S
C4064 C4080 1.368 . S
H4065 C4073 0.950 . S
H4066 C4071 0.950 . S
H4067 C4072 0.949 . S
H4068 C4074 0.950 . S
H4069 C4075 0.950 . S
H4070 C4076 0.949 . S
C4071 H4066 0.950 . S
C4071 C4073 1.327 . S
C4071 C4077 1.429 . S
C4072 C4064 1.574 . S
C4072 H4067 0.949 . S
C4072 C4078 1.368 . S
C4073 C4057 1.349 . S
C4073 H4065 0.950 . S
C4073 C4071 1.327 . S
C4074 C4062 1.349 . S
C4074 H4068 0.950 . S
C4074 C4075 1.327 . S
C4075 H4069 0.950 . S
C4075 C4074 1.327 . S
C4075 C4079 1.429 . S
C4076 C4059 1.574 . S
C4076 H4070 0.949 . S
C4076 C4080 1.368 . S
C4077 C4058 1.429 . S
C4077 C4071 1.429 . S
C4077 C4078 1.523 . S
C4078 C4059 1.368 . S
C4078 C4072 1.368 . S
C4078 C4077 1.523 . S
C4079 C4063 1.429 . S
C4079 C4075 1.429 . S
C4079 C4080 1.523 . S
C4080 C4064 1.368 . S
C4080 C4076 1.368 . S
C4080 C4079 1.523 . S
H4081 C4056 0.950 . S
H4082 C4058 0.950 . S
H4083 C4059 0.949 . S
H4084 C4061 0.950 . S
H4085 C4063 0.950 . S
C4086 C4087 1.349 . S
C4086 C4088 1.327 . S
C4086 H4111 0.950 . S
C4087 C4086 1.349 . S
C4087 C4103 1.349 . S
C4088 C4086 1.327 . S
C4088 C4107 1.429 . S
C4088 H4112 0.950 . S
C4089 C4106 1.574 . S
C4089 C4108 1.368 . S
C4089 H4113 0.949 . S
H4090 C4094 0.949 . S
C4091 C4092 1.349 . S
C4091 C4093 1.327 . S
C4091 H4114 0.950 . S
C4092 C4091 1.349 . S
C4092 C4104 1.349 . S
C4093 C4091 1.327 . S
C4093 C4109 1.429 . S
C4093 H4115 0.950 . S
C4094 H4090 0.949 . S
C4094 C4102 1.574 . S
C4094 C4110 1.368 . S
H4095 C4103 0.950 . S
H4096 C4101 0.950 . S
H4097 C4102 0.949 . S
H4098 C4104 0.950 . S
H4099 C4105 0.950 . S
H4100 C4106 0.949 . S
C4101 H4096 0.950 . S
C4101 C4103 1.327 . S
C4101 C4107 1.429 . S
C4102 C4094 1.574 . S
C4102 H4097 0.949 . S
C4102 C4108 1.368 . S
C4103 C4087 1.349 . S
C4103 H4095 0.950 . S
C4103 C4101 1.327 . S
C4104 C4092 1.349 . S
C4104 H4098 0.950 . S
C4104 C4105 1.327 . S
C4105 H4099 0.950 . S
C4105 C4104 1.327 . S
C4105 C4109 1.429 . S
C4106 C4089 1.574 . S
C4106 H4100 0.949 . S
C4106 C4110 1.368 . S
C4107 C4088 1.429 . S
C4107 C4101 1.429 . S
C4107 C4108 1.523 . S
C4108 C4089 1.368 . S
C4108 C4102 1.368 . S
C4108 C4107 1.523 . S
C4109 C4093 1.429 . S
C4109 C4105 1.429 . S
C4109 C4110 1.523 . S
C4110 C4094 1.368 . S
C4110 C4106 1.368 . S
C4110 C4109 1.523 . S
H4111 C4086 0.950 . S
H4112 C4088 0.950 . S
H4113 C4089 0.949 . S
H4114 C4091 0.950 . S
H4115 C4093 0.950 . S
C4116 C4117 1.349 . S
C4116 C4118 1.327 . S
C4116 H4141 0.950 . S
C4117 C4116 1.349 . S
C4117 C4133 1.349 . S
C4118 C4116 1.327 . S
C4118 C4137 1.429 . S
C4118 H4142 0.950 . S
C4119 C4136 1.574 . S
C4119 C4138 1.368 . S
C4119 H4143 0.949 . S
H4120 C4124 0.949 . S
C4121 C4122 1.349 . S
C4121 C4123 1.327 . S
C4121 H4144 0.950 . S
C4122 C4121 1.349 . S
C4122 C4134 1.349 . S
C4123 C4121 1.327 . S
C4123 C4139 1.429 . S
C4123 H4145 0.950 . S
C4124 H4120 0.949 . S
C4124 C4132 1.574 . S
C4124 C4140 1.368 . S
H4125 C4133 0.950 . S
H4126 C4131 0.950 . S
H4127 C4132 0.949 . S
H4128 C4134 0.950 . S
H4129 C4135 0.950 1_655 S
H4130 C4136 0.949 1_455 S
C4131 H4126 0.950 . S
C4131 C4133 1.327 . S
C4131 C4137 1.429 . S
C4132 C4124 1.574 . S
C4132 H4127 0.949 . S
C4132 C4138 1.368 . S
C4133 C4117 1.349 . S
C4133 H4125 0.950 . S
C4133 C4131 1.327 . S
C4134 C4122 1.349 . S
C4134 H4128 0.950 . S
C4134 C4135 1.327 . S
C4135 H4129 0.950 1_455 S
C4135 C4134 1.327 . S
C4135 C4139 1.429 . S
C4136 C4119 1.574 . S
C4136 H4130 0.949 1_655 S
C4136 C4140 1.368 . S
C4137 C4118 1.429 . S
C4137 C4131 1.429 . S
C4137 C4138 1.523 . S
C4138 C4119 1.368 . S
C4138 C4132 1.368 . S
C4138 C4137 1.523 . S
C4139 C4123 1.429 . S
C4139 C4135 1.429 . S
C4139 C4140 1.523 1_455 S
C4140 C4124 1.368 . S
C4140 C4136 1.368 . S
C4140 C4139 1.523 1_655 S
H4141 C4116 0.950 . S
H4142 C4118 0.950 . S
H4143 C4119 0.949 . S
H4144 C4121 0.950 . S
H4145 C4123 0.950 . S
C4146 C4147 1.349 . S
C4146 C4148 1.327 . S
C4146 H4171 0.950 . S
C4147 C4146 1.349 . S
C4147 C4163 1.349 . S
C4148 C4146 1.327 . S
C4148 C4167 1.429 . S
C4148 H4172 0.950 . S
C4149 C4166 1.574 . S
C4149 C4168 1.368 . S
C4149 H4173 0.949 . S
H4150 C4154 0.949 . S
C4151 C4152 1.349 . S
C4151 C4153 1.327 . S
C4151 H4174 0.950 . S
C4152 C4151 1.349 . S
C4152 C4164 1.349 . S
C4153 C4151 1.327 . S
C4153 C4169 1.429 . S
C4153 H4175 0.950 . S
C4154 H4150 0.949 . S
C4154 C4162 1.574 . S
C4154 C4170 1.368 . S
H4155 C4163 0.950 . S
H4156 C4161 0.950 . S
H4157 C4162 0.949 . S
H4158 C4164 0.950 . S
H4159 C4165 0.950 . S
H4160 C4166 0.949 . S
C4161 H4156 0.950 . S
C4161 C4163 1.327 . S
C4161 C4167 1.429 . S
C4162 C4154 1.574 . S
C4162 H4157 0.949 . S
C4162 C4168 1.368 . S
C4163 C4147 1.349 . S
C4163 H4155 0.950 . S
C4163 C4161 1.327 . S
C4164 C4152 1.349 . S
C4164 H4158 0.950 . S
C4164 C4165 1.327 . S
C4165 H4159 0.950 . S
C4165 C4164 1.327 . S
C4165 C4169 1.429 . S
C4166 C4149 1.574 . S
C4166 H4160 0.949 . S
C4166 C4170 1.368 . S
C4167 C4148 1.429 . S
C4167 C4161 1.429 . S
C4167 C4168 1.523 . S
C4168 C4149 1.368 . S
C4168 C4162 1.368 . S
C4168 C4167 1.523 . S
C4169 C4153 1.429 . S
C4169 C4165 1.429 . S
C4169 C4170 1.523 . S
C4170 C4154 1.368 . S
C4170 C4166 1.368 . S
C4170 C4169 1.523 . S
H4171 C4146 0.950 . S
H4172 C4148 0.950 . S
H4173 C4149 0.949 . S
H4174 C4151 0.950 . S
H4175 C4153 0.950 . S
C4176 C4177 1.349 . S
C4176 C4178 1.327 . S
C4176 H4201 0.950 . S
C4177 C4176 1.349 . S
C4177 C4193 1.349 . S
C4178 C4176 1.327 . S
C4178 C4197 1.429 . S
C4178 H4202 0.950 . S
C4179 C4196 1.574 . S
C4179 C4198 1.368 . S
C4179 H4203 0.949 . S
H4180 C4184 0.949 . S
C4181 C4182 1.349 . S
C4181 C4183 1.327 . S
C4181 H4204 0.950 . S
C4182 C4181 1.349 . S
C4182 C4194 1.349 . S
C4183 C4181 1.327 . S
C4183 C4199 1.429 . S
C4183 H4205 0.950 . S
C4184 H4180 0.949 . S
C4184 C4192 1.574 . S
C4184 C4200 1.368 . S
H4185 C4193 0.950 . S
H4186 C4191 0.950 . S
H4187 C4192 0.949 . S
H4188 C4194 0.950 . S
H4189 C4195 0.950 . S
H4190 C4196 0.949 . S
C4191 H4186 0.950 . S
C4191 C4193 1.327 . S
C4191 C4197 1.429 . S
C4192 C4184 1.574 . S
C4192 H4187 0.949 . S
C4192 C4198 1.368 . S
C4193 C4177 1.349 . S
C4193 H4185 0.950 . S
C4193 C4191 1.327 . S
C4194 C4182 1.349 . S
C4194 H4188 0.950 . S
C4194 C4195 1.327 . S
C4195 H4189 0.950 . S
C4195 C4194 1.327 . S
C4195 C4199 1.429 . S
C4196 C4179 1.574 . S
C4196 H4190 0.949 . S
C4196 C4200 1.368 . S
C4197 C4178 1.429 . S
C4197 C4191 1.429 . S
C4197 C4198 1.523 . S
C4198 C4179 1.368 . S
C4198 C4192 1.368 . S
C4198 C4197 1.523 . S
C4199 C4183 1.429 . S
C4199 C4195 1.429 . S
C4199 C4200 1.523 . S
C4200 C4184 1.368 . S
C4200 C4196 1.368 . S
C4200 C4199 1.523 . S
H4201 C4176 0.950 . S
H4202 C4178 0.950 . S
H4203 C4179 0.949 . S
H4204 C4181 0.950 . S
H4205 C4183 0.950 . S
C4206 C4207 1.349 . S
C4206 C4208 1.327 . S
C4206 H4231 0.950 . S
C4207 C4206 1.349 . S
C4207 C4223 1.349 . S
C4208 C4206 1.327 . S
C4208 C4227 1.429 . S
C4208 H4232 0.950 . S
C4209 C4226 1.574 . S
C4209 C4228 1.368 . S
C4209 H4233 0.949 . S
H4210 C4214 0.949 . S
C4211 C4212 1.349 . S
C4211 C4213 1.327 . S
C4211 H4234 0.950 . S
C4212 C4211 1.349 . S
C4212 C4224 1.349 . S
C4213 C4211 1.327 . S
C4213 C4229 1.429 . S
C4213 H4235 0.950 . S
C4214 H4210 0.949 . S
C4214 C4222 1.574 . S
C4214 C4230 1.368 . S
H4215 C4223 0.950 . S
H4216 C4221 0.950 . S
H4217 C4222 0.949 . S
H4218 C4224 0.950 . S
H4219 C4225 0.950 . S
H4220 C4226 0.949 . S
C4221 H4216 0.950 . S
C4221 C4223 1.327 . S
C4221 C4227 1.429 . S
C4222 C4214 1.574 . S
C4222 H4217 0.949 . S
C4222 C4228 1.368 . S
C4223 C4207 1.349 . S
C4223 H4215 0.950 . S
C4223 C4221 1.327 . S
C4224 C4212 1.349 . S
C4224 H4218 0.950 . S
C4224 C4225 1.327 . S
C4225 H4219 0.950 . S
C4225 C4224 1.327 . S
C4225 C4229 1.429 . S
C4226 C4209 1.574 . S
C4226 H4220 0.949 . S
C4226 C4230 1.368 . S
C4227 C4208 1.429 . S
C4227 C4221 1.429 . S
C4227 C4228 1.523 . S
C4228 C4209 1.368 . S
C4228 C4222 1.368 . S
C4228 C4227 1.523 . S
C4229 C4213 1.429 . S
C4229 C4225 1.429 . S
C4229 C4230 1.523 . S
C4230 C4214 1.368 . S
C4230 C4226 1.368 . S
C4230 C4229 1.523 . S
H4231 C4206 0.950 . S
H4232 C4208 0.950 . S
H4233 C4209 0.949 . S
H4234 C4211 0.950 . S
H4235 C4213 0.950 . S
C4236 C4237 1.349 . S
C4236 C4238 1.327 . S
C4236 H4261 0.950 . S
C4237 C4236 1.349 . S
C4237 C4253 1.349 . S
C4238 C4236 1.327 . S
C4238 C4257 1.429 . S
C4238 H4262 0.950 . S
C4239 C4256 1.574 . S
C4239 C4258 1.368 . S
C4239 H4263 0.949 . S
H4240 C4244 0.949 . S
C4241 C4242 1.349 1_655 S
C4241 C4243 1.327 . S
C4241 H4264 0.950 . S
C4242 C4241 1.349 1_455 S
C4242 C4254 1.349 . S
C4243 C4241 1.327 . S
C4243 C4259 1.429 . S
C4243 H4265 0.950 . S
C4244 H4240 0.949 . S
C4244 C4252 1.574 . S
C4244 C4260 1.368 . S
H4245 C4253 0.950 . S
H4246 C4251 0.950 . S
H4247 C4252 0.949 . S
H4248 C4254 0.950 . S
H4249 C4255 0.950 . S
H4250 C4256 0.949 . S
C4251 H4246 0.950 . S
C4251 C4253 1.327 . S
C4251 C4257 1.429 . S
C4252 C4244 1.574 . S
C4252 H4247 0.949 . S
C4252 C4258 1.368 . S
C4253 C4237 1.349 . S
C4253 H4245 0.950 . S
C4253 C4251 1.327 . S
C4254 C4242 1.349 . S
C4254 H4248 0.950 . S
C4254 C4255 1.327 . S
C4255 H4249 0.950 . S
C4255 C4254 1.327 . S
C4255 C4259 1.429 1_455 S
C4256 C4239 1.574 . S
C4256 H4250 0.949 . S
C4256 C4260 1.368 . S
C4257 C4238 1.429 . S
C4257 C4251 1.429 . S
C4257 C4258 1.523 . S
C4258 C4239 1.368 . S
C4258 C4252 1.368 . S
C4258 C4257 1.523 . S
C4259 C4243 1.429 . S
C4259 C4255 1.429 1_655 S
C4259 C4260 1.523 . S
C4260 C4244 1.368 . S
C4260 C4256 1.368 . S
C4260 C4259 1.523 . S
H4261 C4236 0.950 . S
H4262 C4238 0.950 . S
H4263 C4239 0.949 . S
H4264 C4241 0.950 . S
H4265 C4243 0.950 . S
C4266 C4267 1.349 . S
C4266 C4268 1.327 . S
C4266 H4291 0.950 . S
C4267 C4266 1.349 . S
C4267 C4283 1.349 . S
C4268 C4266 1.327 . S
C4268 C4287 1.429 . S
C4268 H4292 0.950 . S
C4269 C4286 1.574 . S
C4269 C4288 1.368 . S
C4269 H4293 0.949 . S
H4270 C4274 0.949 . S
C4271 C4272 1.349 . S
C4271 C4273 1.327 . S
C4271 H4294 0.950 . S
C4272 C4271 1.349 . S
C4272 C4284 1.349 . S
C4273 C4271 1.327 . S
C4273 C4289 1.429 . S
C4273 H4295 0.950 . S
C4274 H4270 0.949 . S
C4274 C4282 1.574 . S
C4274 C4290 1.368 . S
H4275 C4283 0.950 . S
H4276 C4281 0.950 . S
H4277 C4282 0.949 . S
H4278 C4284 0.950 . S
H4279 C4285 0.950 . S
H4280 C4286 0.949 . S
C4281 H4276 0.950 . S
C4281 C4283 1.327 . S
C4281 C4287 1.429 . S
C4282 C4274 1.574 . S
C4282 H4277 0.949 . S
C4282 C4288 1.368 . S
C4283 C4267 1.349 . S
C4283 H4275 0.950 . S
C4283 C4281 1.327 . S
C4284 C4272 1.349 . S
C4284 H4278 0.950 . S
C4284 C4285 1.327 . S
C4285 H4279 0.950 . S
C4285 C4284 1.327 . S
C4285 C4289 1.429 . S
C4286 C4269 1.574 . S
C4286 H4280 0.949 . S
C4286 C4290 1.368 . S
C4287 C4268 1.429 . S
C4287 C4281 1.429 . S
C4287 C4288 1.523 . S
C4288 C4269 1.368 . S
C4288 C4282 1.368 . S
C4288 C4287 1.523 . S
C4289 C4273 1.429 . S
C4289 C4285 1.429 . S
C4289 C4290 1.523 . S
C4290 C4274 1.368 . S
C4290 C4286 1.368 . S
C4290 C4289 1.523 . S
H4291 C4266 0.950 . S
H4292 C4268 0.950 . S
H4293 C4269 0.949 . S
H4294 C4271 0.950 . S
H4295 C4273 0.950 . S
C4296 C4297 1.349 . S
C4296 C4298 1.327 . S
C4296 H4321 0.950 . S
C4297 C4296 1.349 . S
C4297 C4313 1.349 . S
C4298 C4296 1.327 . S
C4298 C4317 1.429 . S
C4298 H4322 0.950 . S
C4299 C4316 1.574 . S
C4299 C4318 1.368 . S
C4299 H4323 0.949 . S
H4300 C4304 0.949 . S
C4301 C4302 1.349 . S
C4301 C4303 1.327 . S
C4301 H4324 0.950 . S
C4302 C4301 1.349 . S
C4302 C4314 1.349 . S
C4303 C4301 1.327 . S
C4303 C4319 1.429 . S
C4303 H4325 0.950 . S
C4304 H4300 0.949 . S
C4304 C4312 1.574 . S
C4304 C4320 1.368 . S
H4305 C4313 0.950 . S
H4306 C4311 0.950 . S
H4307 C4312 0.949 . S
H4308 C4314 0.950 . S
H4309 C4315 0.950 . S
H4310 C4316 0.949 . S
C4311 H4306 0.950 . S
C4311 C4313 1.327 . S
C4311 C4317 1.429 . S
C4312 C4304 1.574 . S
C4312 H4307 0.949 . S
C4312 C4318 1.368 . S
C4313 C4297 1.349 . S
C4313 H4305 0.950 . S
C4313 C4311 1.327 . S
C4314 C4302 1.349 . S
C4314 H4308 0.950 . S
C4314 C4315 1.327 . S
C4315 H4309 0.950 . S
C4315 C4314 1.327 . S
C4315 C4319 1.429 . S
C4316 C4299 1.574 . S
C4316 H4310 0.949 . S
C4316 C4320 1.368 . S
C4317 C4298 1.429 . S
C4317 C4311 1.429 . S
C4317 C4318 1.523 . S
C4318 C4299 1.368 . S
C4318 C4312 1.368 . S
C4318 C4317 1.523 . S
C4319 C4303 1.429 . S
C4319 C4315 1.429 . S
C4319 C4320 1.523 . S
C4320 C4304 1.368 . S
C4320 C4316 1.368 . S
C4320 C4319 1.523 . S
H4321 C4296 0.950 . S
H4322 C4298 0.950 . S
H4323 C4299 0.949 . S
H4324 C4301 0.950 . S
H4325 C4303 0.950 . S
C4326 C4327 1.349 . S
C4326 C4328 1.327 . S
C4326 H4351 0.950 . S
C4327 C4326 1.349 . S
C4327 C4343 1.349 . S
C4328 C4326 1.327 . S
C4328 C4347 1.429 . S
C4328 H4352 0.950 . S
C4329 C4346 1.574 . S
C4329 C4348 1.368 . S
C4329 H4353 0.949 . S
H4330 C4334 0.949 . S
C4331 C4332 1.349 . S
C4331 C4333 1.327 1_545 S
C4331 H4354 0.950 . S
C4332 C4331 1.349 . S
C4332 C4344 1.349 1_545 S
C4333 C4331 1.327 1_565 S
C4333 C4349 1.429 . S
C4333 H4355 0.950 . S
C4334 H4330 0.949 . S
C4334 C4342 1.574 . S
C4334 C4350 1.368 . S
H4335 C4343 0.950 . S
H4336 C4341 0.950 . S
H4337 C4342 0.949 . S
H4338 C4344 0.950 . S
H4339 C4345 0.950 . S
H4340 C4346 0.949 . S
C4341 H4336 0.950 . S
C4341 C4343 1.327 . S
C4341 C4347 1.429 . S
C4342 C4334 1.574 . S
C4342 H4337 0.949 . S
C4342 C4348 1.368 . S
C4343 C4327 1.349 . S
C4343 H4335 0.950 . S
C4343 C4341 1.327 . S
C4344 C4332 1.349 1_565 S
C4344 H4338 0.950 . S
C4344 C4345 1.327 . S
C4345 H4339 0.950 . S
C4345 C4344 1.327 . S
C4345 C4349 1.429 . S
C4346 C4329 1.574 . S
C4346 H4340 0.949 . S
C4346 C4350 1.368 . S
C4347 C4328 1.429 . S
C4347 C4341 1.429 . S
C4347 C4348 1.523 . S
C4348 C4329 1.368 . S
C4348 C4342 1.368 . S
C4348 C4347 1.523 . S
C4349 C4333 1.429 . S
C4349 C4345 1.429 . S
C4349 C4350 1.523 . S
C4350 C4334 1.368 . S
C4350 C4346 1.368 . S
C4350 C4349 1.523 . S
H4351 C4326 0.950 . S
H4352 C4328 0.950 . S
H4353 C4329 0.949 . S
H4354 C4331 0.950 . S
H4355 C4333 0.950 . S
C4356 C4357 1.349 . S
C4356 C4358 1.327 . S
C4356 H4381 0.950 . S
C4357 C4356 1.349 . S
C4357 C4373 1.349 . S
C4358 C4356 1.327 . S
C4358 C4377 1.429 . S
C4358 H4382 0.950 . S
C4359 C4376 1.574 . S
C4359 C4378 1.368 . S
C4359 H4383 0.949 . S
H4360 C4364 0.949 . S
C4361 C4362 1.349 . S
C4361 C4363 1.327 . S
C4361 H4384 0.950 . S
C4362 C4361 1.349 . S
C4362 C4374 1.349 . S
C4363 C4361 1.327 . S
C4363 C4379 1.429 . S
C4363 H4385 0.950 . S
C4364 H4360 0.949 . S
C4364 C4372 1.574 . S
C4364 C4380 1.368 . S
H4365 C4373 0.950 . S
H4366 C4371 0.950 . S
H4367 C4372 0.949 . S
H4368 C4374 0.950 . S
H4369 C4375 0.950 . S
H4370 C4376 0.949 . S
C4371 H4366 0.950 . S
C4371 C4373 1.327 . S
C4371 C4377 1.429 . S
C4372 C4364 1.574 . S
C4372 H4367 0.949 . S
C4372 C4378 1.368 . S
C4373 C4357 1.349 . S
C4373 H4365 0.950 . S
C4373 C4371 1.327 . S
C4374 C4362 1.349 . S
C4374 H4368 0.950 . S
C4374 C4375 1.327 . S
C4375 H4369 0.950 . S
C4375 C4374 1.327 . S
C4375 C4379 1.429 . S
C4376 C4359 1.574 . S
C4376 H4370 0.949 . S
C4376 C4380 1.368 . S
C4377 C4358 1.429 . S
C4377 C4371 1.429 . S
C4377 C4378 1.523 . S
C4378 C4359 1.368 . S
C4378 C4372 1.368 . S
C4378 C4377 1.523 . S
C4379 C4363 1.429 . S
C4379 C4375 1.429 . S
C4379 C4380 1.523 . S
C4380 C4364 1.368 . S
C4380 C4376 1.368 . S
C4380 C4379 1.523 . S
H4381 C4356 0.950 . S
H4382 C4358 0.950 . S
H4383 C4359 0.949 . S
H4384 C4361 0.950 . S
H4385 C4363 0.950 . S
C4386 C4387 1.349 . S
C4386 C4388 1.327 . S
C4386 H4411 0.920 1_554 S
C4387 C4386 1.349 . S
C4387 C4403 1.349 . S
C4388 C4386 1.327 . S
C4388 C4407 1.429 . S
C4388 H4412 0.934 1_554 S
C4389 C4406 1.574 . S
C4389 C4408 1.368 . S
C4389 H4413 0.949 . S
H4390 C4394 0.961 . S
C4391 C4392 1.349 . S
C4391 C4393 1.327 . S
C4391 H4414 0.950 . S
C4392 C4391 1.349 . S
C4392 C4404 1.349 . S
C4393 C4391 1.327 . S
C4393 C4409 1.429 . S
C4393 H4415 0.950 . S
C4394 H4390 0.961 . S
C4394 C4402 1.574 . S
C4394 C4410 1.368 . S
H4395 C4403 0.950 . S
H4396 C4401 0.950 . S
H4397 C4402 0.944 1_556 S
H4398 C4404 0.950 . S
H4399 C4405 0.950 . S
H4400 C4406 0.949 . S
C4401 H4396 0.950 . S
C4401 C4403 1.327 . S
C4401 C4407 1.429 . S
C4402 C4394 1.574 . S
C4402 H4397 0.944 1_554 S
C4402 C4408 1.368 . S
C4403 C4387 1.349 . S
C4403 H4395 0.950 . S
C4403 C4401 1.327 . S
C4404 C4392 1.349 . S
C4404 H4398 0.950 . S
C4404 C4405 1.327 . S
C4405 H4399 0.950 . S
C4405 C4404 1.327 . S
C4405 C4409 1.429 . S
C4406 C4389 1.574 . S
C4406 H4400 0.949 . S
C4406 C4410 1.368 . S
C4407 C4388 1.429 . S
C4407 C4401 1.429 . S
C4407 C4408 1.523 . S
C4408 C4389 1.368 . S
C4408 C4402 1.368 . S
C4408 C4407 1.523 . S
C4409 C4393 1.429 . S
C4409 C4405 1.429 . S
C4409 C4410 1.523 . S
C4410 C4394 1.368 . S
C4410 C4406 1.368 . S
C4410 C4409 1.523 . S
H4411 C4386 0.920 1_556 S
H4412 C4388 0.934 1_556 S
H4413 C4389 0.949 . S
H4414 C4391 0.950 . S
H4415 C4393 0.950 . S
C4416 C4417 1.349 . S
C4416 C4418 1.327 . S
C4416 H4441 0.950 . S
C4417 C4416 1.349 . S
C4417 C4433 1.349 . S
C4418 C4416 1.327 . S
C4418 C4437 1.429 . S
C4418 H4442 0.950 . S
C4419 C4436 1.574 . S
C4419 C4438 1.368 . S
C4419 H4443 0.949 . S
H4420 C4424 0.949 . S
C4421 C4422 1.349 . S
C4421 C4423 1.327 . S
C4421 H4444 0.950 . S
C4422 C4421 1.349 . S
C4422 C4434 1.349 . S
C4423 C4421 1.327 . S
C4423 C4439 1.429 . S
C4423 H4445 0.950 . S
C4424 H4420 0.949 . S
C4424 C4432 1.574 . S
C4424 C4440 1.368 . S
H4425 C4433 0.950 . S
H4426 C4431 0.950 . S
H4427 C4432 0.949 . S
H4428 C4434 0.950 . S
H4429 C4435 0.950 . S
H4430 C4436 0.949 . S
C4431 H4426 0.950 . S
C4431 C4433 1.327 . S
C4431 C4437 1.429 . S
C4432 C4424 1.574 . S
C4432 H4427 0.949 . S
C4432 C4438 1.368 . S
C4433 C4417 1.349 . S
C4433 H4425 0.950 . S
C4433 C4431 1.327 . S
C4434 C4422 1.349 . S
C4434 H4428 0.950 . S
C4434 C4435 1.327 . S
C4435 H4429 0.950 . S
C4435 C4434 1.327 . S
C4435 C4439 1.429 . S
C4436 C4419 1.574 . S
C4436 H4430 0.949 . S
C4436 C4440 1.368 . S
C4437 C4418 1.429 . S
C4437 C4431 1.429 . S
C4437 C4438 1.523 . S
C4438 C4419 1.368 . S
C4438 C4432 1.368 . S
C4438 C4437 1.523 . S
C4439 C4423 1.429 . S
C4439 C4435 1.429 . S
C4439 C4440 1.523 . S
C4440 C4424 1.368 . S
C4440 C4436 1.368 . S
C4440 C4439 1.523 . S
H4441 C4416 0.950 . S
H4442 C4418 0.950 . S
H4443 C4419 0.949 . S
H4444 C4421 0.950 . S
H4445 C4423 0.950 . S
C4446 C4447 1.349 . S
C4446 C4448 1.327 . S
C4446 H4471 0.950 . S
C4447 C4446 1.349 . S
C4447 C4463 1.349 . S
C4448 C4446 1.327 . S
C4448 C4467 1.429 . S
C4448 H4472 0.950 . S
C4449 C4466 1.574 . S
C4449 C4468 1.368 . S
C4449 H4473 0.949 . S
H4450 C4454 0.944 1_556 S
C4451 C4452 1.349 . S
C4451 C4453 1.327 . S
C4451 H4474 0.950 . S
C4452 C4451 1.349 . S
C4452 C4464 1.349 1_554 S
C4453 C4451 1.327 . S
C4453 C4469 1.429 . S
C4453 H4475 0.950 . S
C4454 H4450 0.944 1_554 S
C4454 C4462 1.574 . S
C4454 C4470 1.368 . S
H4455 C4463 0.950 . S
H4456 C4461 0.950 . S
H4457 C4462 0.949 . S
H4458 C4464 0.950 . S
H4459 C4465 0.936 1_556 S
H4460 C4466 0.949 . S
C4461 H4456 0.950 . S
C4461 C4463 1.327 . S
C4461 C4467 1.429 . S
C4462 C4454 1.574 . S
C4462 H4457 0.949 . S
C4462 C4468 1.368 . S
C4463 C4447 1.349 . S
C4463 H4455 0.950 . S
C4463 C4461 1.327 . S
C4464 C4452 1.349 1_556 S
C4464 H4458 0.950 . S
C4464 C4465 1.314 1_556 S
C4465 H4459 0.936 1_554 S
C4465 C4464 1.314 1_554 S
C4465 C4469 1.459 . S
C4466 C4449 1.574 . S
C4466 H4460 0.949 . S
C4466 C4470 1.368 . S
C4467 C4448 1.429 . S
C4467 C4461 1.429 . S
C4467 C4468 1.523 . S
C4468 C4449 1.368 . S
C4468 C4462 1.368 . S
C4468 C4467 1.523 . S
C4469 C4453 1.429 . S
C4469 C4465 1.459 . S
C4469 C4470 1.523 . S
C4470 C4454 1.368 . S
C4470 C4466 1.368 . S
C4470 C4469 1.523 . S
H4471 C4446 0.950 . S
H4472 C4448 0.950 . S
H4473 C4449 0.949 . S
H4474 C4451 0.950 . S
H4475 C4453 0.950 . S
C4476 C4477 1.349 1_565 S
C4476 C4478 1.327 . S
C4476 H4501 0.950 . S
C4477 C4476 1.349 1_545 S
C4477 C4493 1.349 . S
C4478 C4476 1.327 . S
C4478 C4497 1.429 . S
C4478 H4502 0.950 . S
C4479 C4496 1.574 . S
C4479 C4498 1.368 . S
C4479 H4503 0.949 . S
H4480 C4484 0.949 . S
C4481 C4482 1.349 . S
C4481 C4483 1.327 . S
C4481 H4504 0.950 . S
C4482 C4481 1.349 . S
C4482 C4494 1.349 . S
C4483 C4481 1.327 . S
C4483 C4499 1.429 . S
C4483 H4505 0.950 . S
C4484 H4480 0.949 . S
C4484 C4492 1.574 . S
C4484 C4500 1.368 . S
H4485 C4493 0.950 . S
H4486 C4491 0.950 . S
H4487 C4492 0.949 . S
H4488 C4494 0.950 . S
H4489 C4495 0.950 . S
H4490 C4496 0.949 . S
C4491 H4486 0.950 . S
C4491 C4493 1.327 1_565 S
C4491 C4497 1.429 . S
C4492 C4484 1.574 . S
C4492 H4487 0.949 . S
C4492 C4498 1.368 . S
C4493 C4477 1.349 . S
C4493 H4485 0.950 . S
C4493 C4491 1.327 1_545 S
C4494 C4482 1.349 . S
C4494 H4488 0.950 . S
C4494 C4495 1.327 . S
C4495 H4489 0.950 . S
C4495 C4494 1.327 . S
C4495 C4499 1.429 . S
C4496 C4479 1.574 . S
C4496 H4490 0.949 . S
C4496 C4500 1.368 . S
C4497 C4478 1.429 . S
C4497 C4491 1.429 . S
C4497 C4498 1.523 . S
C4498 C4479 1.368 . S
C4498 C4492 1.368 . S
C4498 C4497 1.523 . S
C4499 C4483 1.429 . S
C4499 C4495 1.429 . S
C4499 C4500 1.523 . S
C4500 C4484 1.368 . S
C4500 C4496 1.368 . S
C4500 C4499 1.523 . S
H4501 C4476 0.950 . S
H4502 C4478 0.950 . S
H4503 C4479 0.949 . S
H4504 C4481 0.950 . S
H4505 C4483 0.950 . S
C4506 C4507 1.349 . S
C4506 C4508 1.327 . S
C4506 H4531 0.950 . S
C4507 C4506 1.349 . S
C4507 C4523 1.349 . S
C4508 C4506 1.327 . S
C4508 C4527 1.429 . S
C4508 H4532 0.950 . S
C4509 C4526 1.574 . S
C4509 C4528 1.368 . S
C4509 H4533 0.949 . S
H4510 C4514 0.949 . S
C4511 C4512 1.349 . S
C4511 C4513 1.327 . S
C4511 H4534 0.950 . S
C4512 C4511 1.349 . S
C4512 C4524 1.349 . S
C4513 C4511 1.327 . S
C4513 C4529 1.429 . S
C4513 H4535 0.950 . S
C4514 H4510 0.949 . S
C4514 C4522 1.574 . S
C4514 C4530 1.368 . S
H4515 C4523 0.950 . S
H4516 C4521 0.950 . S
H4517 C4522 0.949 . S
H4518 C4524 0.950 . S
H4519 C4525 0.950 . S
H4520 C4526 0.949 . S
C4521 H4516 0.950 . S
C4521 C4523 1.327 . S
C4521 C4527 1.429 . S
C4522 C4514 1.574 . S
C4522 H4517 0.949 . S
C4522 C4528 1.368 . S
C4523 C4507 1.349 . S
C4523 H4515 0.950 . S
C4523 C4521 1.327 . S
C4524 C4512 1.349 . S
C4524 H4518 0.950 . S
C4524 C4525 1.327 . S
C4525 H4519 0.950 . S
C4525 C4524 1.327 . S
C4525 C4529 1.429 . S
C4526 C4509 1.574 . S
C4526 H4520 0.949 . S
C4526 C4530 1.368 . S
C4527 C4508 1.429 . S
C4527 C4521 1.429 . S
C4527 C4528 1.523 . S
C4528 C4509 1.368 . S
C4528 C4522 1.368 . S
C4528 C4527 1.523 . S
C4529 C4513 1.429 . S
C4529 C4525 1.429 . S
C4529 C4530 1.523 . S
C4530 C4514 1.368 . S
C4530 C4526 1.368 . S
C4530 C4529 1.523 . S
H4531 C4506 0.950 . S
H4532 C4508 0.950 . S
H4533 C4509 0.949 . S
H4534 C4511 0.950 . S
H4535 C4513 0.950 . S
C1657 C101 1.660 . S
C1662 C368 1.556 . S
C1687 C57 2.161 . S
C1692 C459 2.143 . S
C1717 C73 1.493 . S
C1722 C536 1.486 1_565 S
C1752 C634 1.528 . S
C1747 C78 1.638 . S
C1777 C21 1.586 . S
C1782 C718 1.545 . S
C1812 C790 0.909 . S
C1807 C31 0.953 . S
C1842 C879 0.727 . S
C1837 C49 0.727 . S
C1867 C0 1.189 . S
C1872 C956 1.144 . S
C1902 C375 1.951 . S
C1897 C218 2.047 . S
C1927 C229 0.587 . S
C1932 C466 0.638 . S
C1962 C543 1.155 . S
C1957 C257 1.186 . S
C1992 C620 1.505 . S
C1987 C164 1.516 1_556 S
C2017 C216 1.891 . S
C2022 C704 1.863 . S
C2052 C806 1.078 . S
C2047 C231 1.143 . S
C2082 C886 0.743 . S
C2077 C255 0.740 . S
C2112 C963 1.331 . S
C2107 C166 1.426 . S
C2142 C382 1.372 . S
C2137 C143 1.440 . S
C2167 C265 2.012 . S
C2172 C1047 1.977 . S
C2202 C1135 2.079 . S
C2197 C299 2.224 . S
C2232 C1208 0.486 . S
C2227 C291 0.441 . S
C2257 C104 0.605 . S
C2262 C970 0.597 . S
C2287 C117 1.359 . S
C2292 C550 1.337 . S
C2317 C304 2.272 . S
C2322 C1299 2.237 . S
C2352 C1376 0.632 . S
C2347 C278 0.605 . S
C2382 C379 1.480 1_565 S
C2377 C60 1.589 . S
C2412 C1394 2.054 . S
C2407 C96 2.118 . S
C2437 C88 1.452 . S
C2442 C547 1.365 . S
C2467 C65 1.570 . S
C2472 C1294 1.452 . S
C2502 C706 1.489 . S
C2497 C10 1.565 . S
C2527 C44 0.876 . S
C2532 C1138 0.852 . S
C2562 C890 0.591 . S
C2557 C34 0.630 . S
C2592 C1471 1.068 . S
C2587 C13 1.190 . S
C2622 C386 1.858 . S
C2617 C138 1.901 . S
C2652 C1378 0.584 . S
C2647 C296 0.498 . S
C2677 C112 1.101 . S
C2682 C554 1.091 . S
C2707 C270 1.489 . S
C2712 C1303 1.385 . S
C2737 C140 1.909 . S
C2742 C715 1.767 . S
C2772 C1131 1.009 . S
C2767 C294 1.057 . S
C2797 C114 0.648 . S
C2802 C874 0.681 . S
C2827 C268 1.291 . S
C2832 C1478 1.227 . S
C2857 C169 1.414 . S
C2862 C370 1.340 1_554 S
C2887 C161 1.951 . S
C2892 C1058 1.894 . S
C2917 C234 2.155 . S
C2922 C788 2.000 . S
C2947 C226 0.394 . S
C2952 C1219 0.489 . S
C2982 C1462 0.579 . S
C2977 C247 0.546 . S
C3007 C195 1.369 . S
C3012 C538 1.303 . S
C3042 C638 2.140 . S
C3037 C239 2.188 . S
C3072 C463 0.585 . S
C3067 C187 0.514 . S
C3097 C75 1.660 . S
C3102 C1544 1.556 . S
C3132 C1383 2.143 . S
C3127 C83 2.161 . S
C3157 C99 1.493 . S
C3162 C1628 1.486 . S
C3187 C52 1.638 . S
C3192 C1306 1.528 . S
C3217 C47 1.586 . S
C3222 C1054 1.546 . S
C3252 C1126 0.908 . S
C3247 C5 0.952 . S
C3282 C1215 0.728 . S
C3277 C23 0.728 . S
C3312 C1460 1.144 . S
C3307 C26 1.189 . S
C3342 C1551 1.951 . S
C3337 C244 2.047 . S
C3367 C177 0.586 . S
C3372 C1390 0.638 . S
C3402 C1635 1.155 . S
C3397 C192 1.186 . S
C3432 C1292 1.505 . S
C3427 C203 1.516 . S
C3462 C1040 1.863 . S
C3457 C242 1.890 . S
C3487 C179 1.143 . S
C3492 C1142 1.078 . S
C3522 C1222 0.743 . S
C3517 C190 0.740 . S
C3547 C205 1.426 . S
C3552 C1467 1.331 . S
C3582 C1558 1.372 . S
C3577 C286 1.440 . S
C3607 C122 2.012 . S
C3612 C711 1.979 . S
C3642 C799 2.079 . S
C3637 C130 2.230 . S
C3672 C872 0.486 . S
C3667 C148 0.440 . S
C3702 C1474 0.597 . S
C3697 C273 0.605 . S
C3727 C260 1.355 1_556 S
C3732 C1642 1.333 . S
C3762 C627 2.237 . S
C3757 C135 2.266 . S
C3792 C452 0.632 . S
C3787 C109 0.605 . S
C3817 C86 1.590 . S
C3822 C1555 1.480 . S
C3852 C470 2.054 . S
C3847 C70 2.118 . S
C3877 C62 1.452 . S
C3882 C1639 1.365 . S
C3907 C91 1.570 . S
C3912 C622 1.452 . S
C3937 C36 1.565 . S
C3942 C1042 1.488 1_556 S
C3972 C802 0.852 . S
C3967 C18 0.875 . S
C3997 C8 0.630 . S
C4002 C1226 0.586 . S
C4027 C39 1.190 . S
C4032 C967 1.068 . S
C4062 C1562 1.858 . S
C4057 C307 1.900 . S
C4087 C153 0.498 . S
C4092 C454 0.584 . S
C4122 C1646 1.091 . S
C4117 C281 1.101 . S
C4147 C127 1.490 . S
C4152 C631 1.393 . S
C4177 C309 1.909 . S
C4182 C1051 1.768 . S
C4212 C795 1.009 . S
C4207 C151 1.058 . S
C4237 C283 0.648 . S
C4242 C1210 0.681 . S
C4272 C974 1.221 . S
C4267 C125 1.290 . S
C4302 C1546 1.340 . S
C4297 C221 1.413 . S
C4332 C722 1.894 1_655 S
C4327 C200 1.951 . S
C4357 C208 2.155 . S
C4362 C1124 1.999 . S
C4392 C883 0.489 . S
C4387 C174 0.394 . S
C4417 C182 0.546 . S
C4422 C958 0.579 . S
C4447 C156 1.369 . S
C4452 C1630 1.303 1_554 S
C4482 C1310 2.140 . S
C4477 C213 2.188 . S
C4512 C1387 0.585 . S
C4507 C252 0.514 . S
