# Generated by pormake.
# Topology tph, (6,8)-cn, num edge types: 1
# Building blocks:
#     Node 0, Type 0, BuildingBlock: MIDCAF_clean_sbu_0, # of connection points: 6
#     Node 1, Type 0, BuildingBlock: MIDCAF_clean_sbu_0, # of connection points: 6
#     Node 2, Type 0, BuildingBlock: MIDCAF_clean_sbu_0, # of connection points: 6
#     Node 3, Type 0, BuildingBlock: MIDCAF_clean_sbu_0, # of connection points: 6
#     Node 4, Type 0, BuildingBlock: MIDCAF_clean_sbu_0, # of connection points: 6
#     Node 5, Type 0, BuildingBlock: MIDCAF_clean_sbu_0, # of connection points: 6
#     Node 6, Type 0, BuildingBlock: MIDCAF_clean_sbu_0, # of connection points: 6
#     Node 7, Type 0, BuildingBlock: MIDCAF_clean_sbu_0, # of connection points: 6
#     Node 8, Type 0, BuildingBlock: MIDCAF_clean_sbu_0, # of connection points: 6
#     Node 9, Type 0, BuildingBlock: MIDCAF_clean_sbu_0, # of connection points: 6
#     Node 10, Type 0, BuildingBlock: MIDCAF_clean_sbu_0, # of connection points: 6
#     Node 11, Type 0, BuildingBlock: MIDCAF_clean_sbu_0, # of connection points: 6
#     Node 12, Type 0, BuildingBlock: MIDCAF_clean_sbu_0, # of connection points: 6
#     Node 13, Type 0, BuildingBlock: MIDCAF_clean_sbu_0, # of connection points: 6
#     Node 14, Type 0, BuildingBlock: MIDCAF_clean_sbu_0, # of connection points: 6
#     Node 15, Type 0, BuildingBlock: MIDCAF_clean_sbu_0, # of connection points: 6
#     Node 16, Type 1, BuildingBlock: TAGTUT_clean_sbu_3, # of connection points: 8
#     Node 17, Type 1, BuildingBlock: TAGTUT_clean_sbu_3, # of connection points: 8
#     Node 18, Type 1, BuildingBlock: TAGTUT_clean_sbu_3, # of connection points: 8
#     Node 19, Type 1, BuildingBlock: TAGTUT_clean_sbu_3, # of connection points: 8
#     Node 20, Type 1, BuildingBlock: TAGTUT_clean_sbu_3, # of connection points: 8
#     Node 21, Type 1, BuildingBlock: TAGTUT_clean_sbu_3, # of connection points: 8
#     Node 22, Type 1, BuildingBlock: TAGTUT_clean_sbu_3, # of connection points: 8
#     Node 23, Type 1, BuildingBlock: TAGTUT_clean_sbu_3, # of connection points: 8
#     Node 24, Type 1, BuildingBlock: TAGTUT_clean_sbu_3, # of connection points: 8
#     Node 25, Type 1, BuildingBlock: TAGTUT_clean_sbu_3, # of connection points: 8
#     Node 26, Type 1, BuildingBlock: TAGTUT_clean_sbu_3, # of connection points: 8
#     Node 27, Type 1, BuildingBlock: TAGTUT_clean_sbu_3, # of connection points: 8
#     Edge 28, Type (0, 1), BuildingBlock: AJUNOK_clean_linker_0, # of connection points: 2
#     Edge 29, Type (0, 1), BuildingBlock: AJUNOK_clean_linker_0, # of connection points: 2
#     Edge 30, Type (0, 1), BuildingBlock: AJUNOK_clean_linker_0, # of connection points: 2
#     Edge 31, Type (0, 1), BuildingBlock: AJUNOK_clean_linker_0, # of connection points: 2
#     Edge 32, Type (0, 1), BuildingBlock: AJUNOK_clean_linker_0, # of connection points: 2
#     Edge 33, Type (0, 1), BuildingBlock: AJUNOK_clean_linker_0, # of connection points: 2
#     Edge 34, Type (0, 1), BuildingBlock: AJUNOK_clean_linker_0, # of connection points: 2
#     Edge 35, Type (0, 1), BuildingBlock: AJUNOK_clean_linker_0, # of connection points: 2
#     Edge 36, Type (0, 1), BuildingBlock: AJUNOK_clean_linker_0, # of connection points: 2
#     Edge 37, Type (0, 1), BuildingBlock: AJUNOK_clean_linker_0, # of connection points: 2
#     Edge 38, Type (0, 1), BuildingBlock: AJUNOK_clean_linker_0, # of connection points: 2
#     Edge 39, Type (0, 1), BuildingBlock: AJUNOK_clean_linker_0, # of connection points: 2
#     Edge 40, Type (0, 1), BuildingBlock: AJUNOK_clean_linker_0, # of connection points: 2
#     Edge 41, Type (0, 1), BuildingBlock: AJUNOK_clean_linker_0, # of connection points: 2
#     Edge 42, Type (0, 1), BuildingBlock: AJUNOK_clean_linker_0, # of connection points: 2
#     Edge 43, Type (0, 1), BuildingBlock: AJUNOK_clean_linker_0, # of connection points: 2
#     Edge 44, Type (0, 1), BuildingBlock: AJUNOK_clean_linker_0, # of connection points: 2
#     Edge 45, Type (0, 1), BuildingBlock: AJUNOK_clean_linker_0, # of connection points: 2
#     Edge 46, Type (0, 1), BuildingBlock: AJUNOK_clean_linker_0, # of connection points: 2
#     Edge 47, Type (0, 1), BuildingBlock: AJUNOK_clean_linker_0, # of connection points: 2
#     Edge 48, Type (0, 1), BuildingBlock: AJUNOK_clean_linker_0, # of connection points: 2
#     Edge 49, Type (0, 1), BuildingBlock: AJUNOK_clean_linker_0, # of connection points: 2
#     Edge 50, Type (0, 1), BuildingBlock: AJUNOK_clean_linker_0, # of connection points: 2
#     Edge 51, Type (0, 1), BuildingBlock: AJUNOK_clean_linker_0, # of connection points: 2
#     Edge 52, Type (0, 1), BuildingBlock: AJUNOK_clean_linker_0, # of connection points: 2
#     Edge 53, Type (0, 1), BuildingBlock: AJUNOK_clean_linker_0, # of connection points: 2
#     Edge 54, Type (0, 1), BuildingBlock: AJUNOK_clean_linker_0, # of connection points: 2
#     Edge 55, Type (0, 1), BuildingBlock: AJUNOK_clean_linker_0, # of connection points: 2
#     Edge 56, Type (0, 1), BuildingBlock: AJUNOK_clean_linker_0, # of connection points: 2
#     Edge 57, Type (0, 1), BuildingBlock: AJUNOK_clean_linker_0, # of connection points: 2
#     Edge 58, Type (0, 1), BuildingBlock: AJUNOK_clean_linker_0, # of connection points: 2
#     Edge 59, Type (0, 1), BuildingBlock: AJUNOK_clean_linker_0, # of connection points: 2
#     Edge 60, Type (0, 1), BuildingBlock: AJUNOK_clean_linker_0, # of connection points: 2
#     Edge 61, Type (0, 1), BuildingBlock: AJUNOK_clean_linker_0, # of connection points: 2
#     Edge 62, Type (0, 1), BuildingBlock: AJUNOK_clean_linker_0, # of connection points: 2
#     Edge 63, Type (0, 1), BuildingBlock: AJUNOK_clean_linker_0, # of connection points: 2
#     Edge 64, Type (0, 1), BuildingBlock: AJUNOK_clean_linker_0, # of connection points: 2
#     Edge 65, Type (0, 1), BuildingBlock: AJUNOK_clean_linker_0, # of connection points: 2
#     Edge 66, Type (0, 1), BuildingBlock: AJUNOK_clean_linker_0, # of connection points: 2
#     Edge 67, Type (0, 1), BuildingBlock: AJUNOK_clean_linker_0, # of connection points: 2
#     Edge 68, Type (0, 1), BuildingBlock: AJUNOK_clean_linker_0, # of connection points: 2
#     Edge 69, Type (0, 1), BuildingBlock: AJUNOK_clean_linker_0, # of connection points: 2
#     Edge 70, Type (0, 1), BuildingBlock: AJUNOK_clean_linker_0, # of connection points: 2
#     Edge 71, Type (0, 1), BuildingBlock: AJUNOK_clean_linker_0, # of connection points: 2
#     Edge 72, Type (0, 1), BuildingBlock: AJUNOK_clean_linker_0, # of connection points: 2
#     Edge 73, Type (0, 1), BuildingBlock: AJUNOK_clean_linker_0, # of connection points: 2
#     Edge 74, Type (0, 1), BuildingBlock: AJUNOK_clean_linker_0, # of connection points: 2
#     Edge 75, Type (0, 1), BuildingBlock: AJUNOK_clean_linker_0, # of connection points: 2
#     Edge 76, Type (0, 1), BuildingBlock: AJUNOK_clean_linker_0, # of connection points: 2
#     Edge 77, Type (0, 1), BuildingBlock: AJUNOK_clean_linker_0, # of connection points: 2
#     Edge 78, Type (0, 1), BuildingBlock: AJUNOK_clean_linker_0, # of connection points: 2
#     Edge 79, Type (0, 1), BuildingBlock: AJUNOK_clean_linker_0, # of connection points: 2
#     Edge 80, Type (0, 1), BuildingBlock: AJUNOK_clean_linker_0, # of connection points: 2
#     Edge 81, Type (0, 1), BuildingBlock: AJUNOK_clean_linker_0, # of connection points: 2
#     Edge 82, Type (0, 1), BuildingBlock: AJUNOK_clean_linker_0, # of connection points: 2
#     Edge 83, Type (0, 1), BuildingBlock: AJUNOK_clean_linker_0, # of connection points: 2
#     Edge 84, Type (0, 1), BuildingBlock: AJUNOK_clean_linker_0, # of connection points: 2
#     Edge 85, Type (0, 1), BuildingBlock: AJUNOK_clean_linker_0, # of connection points: 2
#     Edge 86, Type (0, 1), BuildingBlock: AJUNOK_clean_linker_0, # of connection points: 2
#     Edge 87, Type (0, 1), BuildingBlock: AJUNOK_clean_linker_0, # of connection points: 2
#     Edge 88, Type (0, 1), BuildingBlock: AJUNOK_clean_linker_0, # of connection points: 2
#     Edge 89, Type (0, 1), BuildingBlock: AJUNOK_clean_linker_0, # of connection points: 2
#     Edge 90, Type (0, 1), BuildingBlock: AJUNOK_clean_linker_0, # of connection points: 2
#     Edge 91, Type (0, 1), BuildingBlock: AJUNOK_clean_linker_0, # of connection points: 2
#     Edge 92, Type (0, 1), BuildingBlock: AJUNOK_clean_linker_0, # of connection points: 2
#     Edge 93, Type (0, 1), BuildingBlock: AJUNOK_clean_linker_0, # of connection points: 2
#     Edge 94, Type (0, 1), BuildingBlock: AJUNOK_clean_linker_0, # of connection points: 2
#     Edge 95, Type (0, 1), BuildingBlock: AJUNOK_clean_linker_0, # of connection points: 2
#     Edge 96, Type (0, 1), BuildingBlock: AJUNOK_clean_linker_0, # of connection points: 2
#     Edge 97, Type (0, 1), BuildingBlock: AJUNOK_clean_linker_0, # of connection points: 2
#     Edge 98, Type (0, 1), BuildingBlock: AJUNOK_clean_linker_0, # of connection points: 2
#     Edge 99, Type (0, 1), BuildingBlock: AJUNOK_clean_linker_0, # of connection points: 2
#     Edge 100, Type (0, 1), BuildingBlock: AJUNOK_clean_linker_0, # of connection points: 2
#     Edge 101, Type (0, 1), BuildingBlock: AJUNOK_clean_linker_0, # of connection points: 2
#     Edge 102, Type (0, 1), BuildingBlock: AJUNOK_clean_linker_0, # of connection points: 2
#     Edge 103, Type (0, 1), BuildingBlock: AJUNOK_clean_linker_0, # of connection points: 2
#     Edge 104, Type (0, 1), BuildingBlock: AJUNOK_clean_linker_0, # of connection points: 2
#     Edge 105, Type (0, 1), BuildingBlock: AJUNOK_clean_linker_0, # of connection points: 2
#     Edge 106, Type (0, 1), BuildingBlock: AJUNOK_clean_linker_0, # of connection points: 2
#     Edge 107, Type (0, 1), BuildingBlock: AJUNOK_clean_linker_0, # of connection points: 2
#     Edge 108, Type (0, 1), BuildingBlock: AJUNOK_clean_linker_0, # of connection points: 2
#     Edge 109, Type (0, 1), BuildingBlock: AJUNOK_clean_linker_0, # of connection points: 2
#     Edge 110, Type (0, 1), BuildingBlock: AJUNOK_clean_linker_0, # of connection points: 2
#     Edge 111, Type (0, 1), BuildingBlock: AJUNOK_clean_linker_0, # of connection points: 2
#     Edge 112, Type (0, 1), BuildingBlock: AJUNOK_clean_linker_0, # of connection points: 2
#     Edge 113, Type (0, 1), BuildingBlock: AJUNOK_clean_linker_0, # of connection points: 2
#     Edge 114, Type (0, 1), BuildingBlock: AJUNOK_clean_linker_0, # of connection points: 2
#     Edge 115, Type (0, 1), BuildingBlock: AJUNOK_clean_linker_0, # of connection points: 2
#     Edge 116, Type (0, 1), BuildingBlock: AJUNOK_clean_linker_0, # of connection points: 2
#     Edge 117, Type (0, 1), BuildingBlock: AJUNOK_clean_linker_0, # of connection points: 2
#     Edge 118, Type (0, 1), BuildingBlock: AJUNOK_clean_linker_0, # of connection points: 2
#     Edge 119, Type (0, 1), BuildingBlock: AJUNOK_clean_linker_0, # of connection points: 2
#     Edge 120, Type (0, 1), BuildingBlock: AJUNOK_clean_linker_0, # of connection points: 2
#     Edge 121, Type (0, 1), BuildingBlock: AJUNOK_clean_linker_0, # of connection points: 2
#     Edge 122, Type (0, 1), BuildingBlock: AJUNOK_clean_linker_0, # of connection points: 2
#     Edge 123, Type (0, 1), BuildingBlock: AJUNOK_clean_linker_0, # of connection points: 2
# Relax obj value: 0.147
# Max RMSD: 0.254
# Mean RMSD: 0.164
data_MOF--net-tph--node1-MIDCAF_clean_sbu_0--node2-TAGTUT_clean_sbu_3--edge1-AJUNOK_clean_linker_0
_symmetry_space_group_name_H-M    P1
_symmetry_Int_Tables_number       1
_symmetry_cell_setting            triclinic
loop_
_symmetry_equiv_pos_as_xyz
'x, y, z'
_cell_length_a     35.824034
_cell_length_b     35.859299
_cell_length_c     35.764101
_cell_angle_alpha  89.371445
_cell_angle_beta   89.79788
_cell_angle_gamma 89.764801
loop_
_atom_site_label
_atom_site_type_symbol
_atom_site_fract_x
_atom_site_fract_y
_atom_site_fract_z
_atom_type_partial_charge
Zn0 Zn 0.22647 0.2193 0.20755 0.0
Zn1 Zn 0.14705 0.13599 0.15109 0.0
Zn2 Zn 0.18338 0.17991 0.18349 0.0
C3 C 0.13939 0.1126 0.22152 0.0
C4 C 0.11142 0.20297 0.14024 0.0
O5 O 0.23995 0.16972 0.16062 0.0
O6 O 0.26377 0.22559 0.16805 0.0
C7 C 0.21141 0.1726 0.26497 0.0
O8 O 0.15264 0.14568 0.22536 0.0
O9 O 0.14141 0.09714 0.19012 0.0
O10 O 0.10357 0.16875 0.14243 0.0
O11 O 0.14295 0.21437 0.15273 0.0
O12 O 0.23945 0.18924 0.25165 0.0
O13 O 0.1828 0.16775 0.24398 0.0
O14 O 0.16509 0.23958 0.17422 0.0
O15 O 0.19986 0.26451 0.21799 0.0
C16 C 0.17463 0.26799 0.19385 0.0
O17 O 0.21671 0.14362 0.14418 0.0
O18 O 0.17462 0.12131 0.10574 0.0
C19 C 0.266 0.19359 0.15423 0.0
C20 C 0.20833 0.12528 0.11456 0.0
Zn21 Zn 0.42035 0.59845 0.17113 0.0
Zn22 Zn 0.45729 0.52437 0.00334 0.0
Zn23 Zn 0.42701 0.56181 0.05497 0.0
C24 C 0.43861 0.47135 0.05379 0.0
C25 C 0.51483 0.56499 0.02591 0.0
O26 O 0.39504 0.60519 0.0874 0.0
O27 O 0.38184 0.63059 0.14297 0.0
C28 C 0.40288 0.53175 0.12953 0.0
O29 O 0.4319 0.50177 0.07145 0.0
O30 O 0.44545 0.47264 0.01917 0.0
O31 O 0.51033 0.53631 0.00652 0.0
O32 O 0.48677 0.5793 0.04335 0.0
O33 O 0.42938 0.55266 0.13974 0.0
O34 O 0.40414 0.52151 0.09546 0.0
O35 O 0.46824 0.60287 0.07237 0.0
O36 O 0.45489 0.58053 0.1277 0.0
C37 C 0.47105 0.60523 0.10791 0.0
O38 O 0.39049 0.56592 0.00686 0.0
O39 O 0.42874 0.54789 0.96251 0.0
C40 C 0.37733 0.6294 0.10745 0.0
C41 C 0.39731 0.56043 0.97232 0.0
Zn42 Zn 0.75985 0.27838 0.2055 0.0
Zn43 Zn 0.84705 0.33394 0.13379 0.0
Zn44 Zn 0.80366 0.30329 0.16732 0.0
C45 C 0.87948 0.33557 0.19676 0.0
C46 C 0.83738 0.27055 0.09595 0.0
O47 O 0.74705 0.31796 0.14628 0.0
O48 O 0.71811 0.26987 0.17184 0.0
C49 C 0.78657 0.33231 0.24738 0.0
O50 O 0.84418 0.33254 0.20274 0.0
O51 O 0.89257 0.32688 0.1652 0.0
O52 O 0.83985 0.30477 0.08784 0.0
O53 O 0.8301 0.26092 0.13003 0.0
O54 O 0.75428 0.31986 0.24161 0.0
O55 O 0.81303 0.32408 0.2244 0.0
O56 O 0.81679 0.24315 0.16382 0.0
O57 O 0.79101 0.23498 0.21898 0.0
C58 C 0.81156 0.22264 0.19317 0.0
O59 O 0.77126 0.34616 0.13729 0.0
O60 O 0.8204 0.38247 0.13903 0.0
C61 C 0.71795 0.29723 0.1495 0.0
C62 C 0.78555 0.37903 0.13566 0.0
Zn63 Zn 0.52104 0.96138 0.03147 0.0
Zn64 Zn 0.65001 0.86236 0.13807 0.0
Zn65 Zn 0.56193 0.92579 0.06701 0.0
C66 C 0.56407 0.85799 0.11445 0.0
C67 C 0.60306 0.93852 0.13556 0.0
O68 O 0.58977 0.9322 0.0115 0.0
O69 O 0.55706 0.98124 0.99346 0.0
C70 C 0.48968 0.89033 0.03969 0.0
O71 O 0.5392 0.87537 0.0952 0.0
O72 O 0.59765 0.86867 0.10963 0.0
O73 O 0.61362 0.90717 0.12273 0.0
O74 O 0.58057 0.95756 0.11533 0.0
O75 O 0.49017 0.91775 0.01722 0.0
O76 O 0.51311 0.88895 0.06676 0.0
O77 O 0.55491 0.97951 0.09578 0.0
O78 O 0.50178 -0.00338 0.06993 0.0
C79 C 0.52677 0.00183 0.09408 0.0
O80 O 0.6111 0.90877 0.03435 0.0
O81 O 0.6287 0.89055 0.0895 0.0
C82 C 0.58426 0.95937 0.98826 0.0
C83 C 0.63591 0.89277 0.05456 0.0
Zn84 Zn 0.13876 0.84491 0.34403 0.0
Zn85 Zn 0.20426 0.76785 0.26753 0.0
Zn86 Zn 0.1705 0.80978 0.30353 0.0
C87 C 0.25196 0.78771 0.3223 0.0
C88 C 0.14417 0.72859 0.28679 0.0
O89 O 0.13099 0.84113 0.26817 0.0
O90 O 0.09166 0.83919 0.31532 0.0
C91 C 0.2019 0.88046 0.34017 0.0
O92 O 0.22876 0.81512 0.32068 0.0
O93 O 0.24445 0.75783 0.30554 0.0
O94 O 0.1644 0.73066 0.25796 0.0
O95 O 0.14718 0.75358 0.31204 0.0
O96 O 0.16844 0.89131 0.33813 0.0
O97 O 0.20956 0.84601 0.334 0.0
O98 O 0.13908 0.77451 0.3422 0.0
O99 O 0.14574 0.81248 0.38942 0.0
C100 C 0.13707 0.78069 0.37746 0.0
O101 O 0.16215 0.83103 0.24702 0.0
O102 O 0.21387 0.80432 0.22678 0.0
C103 C 0.09734 0.84345 0.2807 0.0
C104 C 0.18761 0.82743 0.22198 0.0
Zn105 Zn 0.01655 0.5213 0.95671 0.0
Zn106 Zn 0.10274 0.59545 0.91022 0.0
Zn107 Zn 0.06017 0.55586 0.92767 0.0
C108 C 0.08958 0.61804 0.97385 0.0
C109 C 0.05745 0.60658 0.85688 0.0
O110 O 0.06557 0.50118 0.90019 0.0
O111 O 0.00626 0.49104 0.91143 0.0
C112 C 0.06394 0.52294 0.01201 0.0
O113 O 0.08876 0.58219 0.97514 0.0
O114 O 0.08005 0.63383 0.9438 0.0
O115 O 0.09191 0.59973 0.85692 0.0
O116 O 0.03764 0.59837 0.88616 0.0
O117 O 0.04188 0.49803 0.00106 0.0
O118 O 0.07204 0.55033 0.98978 0.0
O119 O 0.01076 0.58952 0.91444 0.0
O120 O 0.9867 0.56705 0.96657 0.0
C121 C 0.98656 0.59155 0.94097 0.0
O122 O 0.10108 0.52815 0.89224 0.0
O123 O 0.14138 0.55806 0.92614 0.0
C124 C 0.03579 0.48232 0.89414 0.0
C125 C 0.13522 0.53465 0.90087 0.0
Zn126 Zn 0.77638 0.71143 0.26991 0.0
Zn127 Zn 0.83907 0.64204 0.35626 0.0
Zn128 Zn 0.80631 0.67513 0.31416 0.0
C129 C 0.83272 0.70609 0.3907 0.0
C130 C 0.77548 0.60318 0.34488 0.0
O131 O 0.82219 0.65106 0.2597 0.0
O132 O 0.77027 0.67043 0.23325 0.0
C133 C 0.8296 0.75685 0.29581 0.0
O134 O 0.8319 0.71354 0.3554 0.0
O135 O 0.82807 0.67279 0.40143 0.0
O136 O 0.80991 0.59594 0.34687 0.0
O137 O 0.76498 0.63719 0.33963 0.0
O138 O 0.81658 0.75024 0.26377 0.0
O139 O 0.82399 0.73316 0.3225 0.0
O140 O 0.74531 0.66895 0.32708 0.0
O141 O 0.73212 0.72342 0.3015 0.0
C142 C 0.72231 0.69637 0.32216 0.0
O143 O 0.85141 0.64437 0.28334 0.0
O144 O 0.88901 0.64671 0.33152 0.0
C145 C 0.7982 0.64891 0.23314 0.0
C146 C 0.88462 0.64145 0.29697 0.0
Zn147 Zn 0.95977 0.96695 0.9751 0.0
Zn148 Zn 0.88553 0.84462 0.89253 0.0
Zn149 Zn 0.92912 0.92395 0.93955 0.0
C150 C 0.8582 0.87893 0.95096 0.0
C151 C 0.95766 0.85028 0.90993 0.0
O152 O 0.92243 0.979 0.91023 0.0
O153 O 0.93818 0.01424 0.95757 0.0
C154 C 0.91624 0.93207 0.02639 0.0
O155 O 0.88534 0.89276 0.96961 0.0
O156 O 0.85639 0.88722 0.91675 0.0
O157 O 0.92939 0.83849 0.92719 0.0
O158 O 0.96797 0.88371 0.91653 0.0
O159 O 0.9457 0.95102 0.02523 0.0
O160 O 0.90227 0.9197 -0.00418 0.0
O161 O 0.9894 0.90722 0.94153 0.0
O162 O 0.01272 0.95883 0.96402 0.0
C163 C 0.01781 0.92647 0.95162 0.0
O164 O 0.90045 0.94907 0.89119 0.0
O165 O 0.87536 0.89715 0.86862 0.0
C166 C 0.92699 0.01158 0.92437 0.0
C167 C 0.8805 0.93232 0.86655 0.0
Zn168 Zn 0.37129 0.35129 0.35569 0.0
Zn169 Zn 0.46373 0.47284 0.46852 0.0
Zn170 Zn 0.43181 0.43279 0.43337 0.0
C171 C 0.52026 0.43085 0.44582 0.0
C172 C 0.42052 0.43722 0.51985 0.0
O173 O 0.40005 0.46217 0.38755 0.0
O174 O 0.39089 0.40507 0.37141 0.0
C175 C 0.45163 0.36915 0.38876 0.0
O176 O 0.49145 0.41268 0.43465 0.0
O177 O 0.51608 0.46407 0.45609 0.0
O178 O 0.4505 0.45535 0.51852 0.0
O179 O 0.40539 0.4264 0.48925 0.0
O180 O 0.41694 0.37616 0.38462 0.0
O181 O 0.47002 0.39136 0.40931 0.0
O182 O 0.38905 0.39922 0.4633 0.0
O183 O 0.38197 0.38116 0.40601 0.0
C184 C 0.3726 0.3778 0.44021 0.0
O185 O 0.42469 0.48885 0.40625 0.0
O186 O 0.44362 0.52145 0.45427 0.0
C187 C 0.38265 0.43946 0.36635 0.0
C188 C 0.4309 0.52062 0.42153 0.0
Zn189 Zn 0.33665 0.83268 0.63727 0.0
Zn190 Zn 0.26076 0.77101 0.71449 0.0
Zn191 Zn 0.29911 0.80172 0.67296 0.0
C192 C 0.31029 0.71748 0.69259 0.0
C193 C 0.28801 0.82612 0.75633 0.0
O194 O 0.26476 0.84487 0.64277 0.0
O195 O 0.3131 0.88185 0.64646 0.0
C196 C 0.32834 0.77228 0.59795 0.0
O197 O 0.31433 0.74209 0.66631 0.0
O198 O 0.29121 0.72523 0.72125 0.0
O199 O 0.25736 0.80917 0.75418 0.0
O200 O 0.31225 0.82249 0.72993 0.0
O201 O 0.32434 0.80649 0.59046 0.0
O202 O 0.32625 0.7618 0.63258 0.0
O203 O 0.34228 0.83111 0.70642 0.0
O204 O 0.38467 0.82202 0.66309 0.0
C205 C 0.37681 0.83146 0.6961 0.0
O206 O 0.24136 0.81457 0.65313 0.0
O207 O 0.21803 0.76519 0.68172 0.0
C208 C 0.2786 0.87805 0.6409 0.0
C209 C 0.21462 0.79103 0.65786 0.0
Zn210 Zn 0.02835 0.46126 0.52298 0.0
Zn211 Zn 0.09262 0.39101 0.66234 0.0
Zn212 Zn 0.05816 0.42942 0.56915 0.0
C213 C 0.02514 0.37774 0.62756 0.0
C214 C 0.0774 0.46304 0.64538 0.0
O215 O 0.09699 0.42607 0.52051 0.0
O216 O 0.07511 0.479 0.49821 0.0
C217 C 0.99136 0.39571 0.52624 0.0
O218 O 0.02706 0.38076 0.59193 0.0
O219 O 0.03854 0.40383 0.64659 0.0
O220 O 0.05773 0.43581 0.65625 0.0
O221 O 0.07375 0.472 0.61083 0.0
O222 O 0.00213 0.418 0.50088 0.0
O223 O 0.00664 0.39746 0.55863 0.0
O224 O 0.04619 0.48694 0.5869 0.0
O225 O -0.0027 0.49763 0.55176 0.0
C226 C 0.01719 0.50653 0.57924 0.0
O227 O 0.11083 0.40419 0.5598 0.0
O228 O 0.127 0.38079 0.61634 0.0
C229 C 0.09947 0.45348 0.49706 0.0
C230 C 0.13324 0.38591 0.58139 0.0
Zn231 Zn 0.96425 0.0297 0.50766 0.0
Zn232 Zn 0.93312 0.14176 0.56694 0.0
Zn233 Zn 0.93493 0.06862 0.55851 0.0
C234 C 0.9651 0.11705 0.62648 0.0
C235 C 0.87516 0.1002 0.6074 0.0
O236 O 0.89217 0.06547 0.5127 0.0
O237 O 0.92388 0.03159 0.47192 0.0
C238 C 0.01788 0.07805 0.52559 0.0
O239 O 0.944 0.09016 0.61622 0.0
O240 O 0.97677 0.13976 0.60196 0.0
O241 O 0.87869 0.13075 0.58943 0.0
O242 O 0.90284 0.0773 0.60792 0.0
O243 O 0.01124 0.05554 0.49965 0.0
O244 O 0.99278 0.08568 0.54986 0.0
O245 O 0.93224 0.00984 0.57388 0.0
O246 O 0.96756 0.98126 0.5326 0.0
C247 C 0.94778 0.98022 0.56172 0.0
O248 O 0.89733 0.10463 0.52401 0.0
O249 O 0.94288 0.14234 0.51126 0.0
C250 C 0.89394 0.04729 0.48176 0.0
C251 C 0.9082 0.13633 0.51072 0.0
Zn252 Zn 0.71939 0.71701 0.71592 0.0
Zn253 Zn 0.63472 0.64906 0.65365 0.0
Zn254 Zn 0.67478 0.68457 0.68525 0.0
C255 C 0.60701 0.64625 0.72193 0.0
C256 C 0.62947 0.71581 0.62075 0.0
O257 O 0.72721 0.67393 0.65657 0.0
O258 O 0.75339 0.72642 0.67323 0.0
C259 C 0.70265 0.666 0.76632 0.0
O260 O 0.642 0.6523 0.72671 0.0
O261 O 0.59311 0.65139 0.68995 0.0
O262 O 0.63207 0.68265 0.60969 0.0
O263 O 0.63951 0.7239 0.65414 0.0
O264 O 0.73254 0.68202 0.75677 0.0
O265 O 0.67439 0.66651 0.74423 0.0
O266 O 0.66094 0.74503 0.68039 0.0
O267 O 0.6909 0.76042 0.73142 0.0
C268 C 0.66906 0.76936 0.70528 0.0
O269 O 0.70515 0.64514 0.64765 0.0
O270 O 0.6625 0.60127 0.64811 0.0
C271 C 0.7528 0.69854 0.65218 0.0
C272 C 0.69527 0.61152 0.64027 0.0
Zn273 Zn 0.71241 0.26163 0.77103 0.0
Zn274 Zn 0.64516 0.34719 0.83765 0.0
Zn275 Zn 0.67713 0.30854 0.80084 0.0
C276 C 0.63446 0.28626 0.87325 0.0
C277 C 0.70952 0.37887 0.838 0.0
O278 O 0.67474 0.32457 0.74176 0.0
O279 O 0.72427 0.2913 0.72589 0.0
C280 C 0.64848 0.22717 0.78877 0.0
O281 O 0.63941 0.2784 0.8386 0.0
O282 O 0.64472 0.3175 0.88535 0.0
O283 O 0.67724 0.3918 0.83239 0.0
O284 O 0.71544 0.34383 0.83335 0.0
O285 O 0.67283 0.22446 0.76347 0.0
O286 O 0.64891 0.25513 0.81083 0.0
O287 O 0.73404 0.3113 0.8247 0.0
O288 O 0.75045 0.25377 0.81129 0.0
C289 C 0.75643 0.28339 0.82906 0.0
O290 O 0.64254 0.3413 0.76091 0.0
O291 O 0.6005 0.34315 0.80575 0.0
C292 C 0.69971 0.31534 0.71759 0.0
C293 C 0.60841 0.34609 0.77148 0.0
Zn294 Zn 0.62517 0.10439 0.37159 0.0
Zn295 Zn 0.52058 0.03407 0.45342 0.0
Zn296 Zn 0.56578 0.06394 0.41958 0.0
C297 C 0.49044 0.10226 0.43829 0.0
C298 C 0.5726 0.03716 0.5056 0.0
O299 O 0.59238 0.03012 0.37588 0.0
O300 O 0.58953 0.07696 0.33751 0.0
C301 C 0.56639 0.14493 0.38115 0.0
O302 O 0.51609 0.10068 0.41313 0.0
O303 O 0.48877 0.07719 0.46311 0.0
O304 O 0.54535 0.01614 0.49895 0.0
O305 O 0.5844 0.05976 0.47983 0.0
O306 O 0.59895 0.14816 0.39428 0.0
O307 O 0.54787 0.11508 0.38939 0.0
O308 O 0.61103 0.08049 0.45462 0.0
O309 O 0.65046 0.06984 0.40951 0.0
C310 C 0.64461 0.08166 0.44207 0.0
O311 O 0.56052 0.00879 0.39294 0.0
O312 O 0.50435 -0.00197 0.41522 0.0
C313 C 0.60282 0.04515 0.34477 0.0
C314 C 0.53048 0.98936 0.39318 0.0
Zn315 Zn 0.34612 0.13517 0.85097 0.0
Zn316 Zn 0.27905 0.2046 0.77239 0.0
Zn317 Zn 0.30951 0.16933 0.81501 0.0
C318 C 0.22566 0.18797 0.82352 0.0
C319 C 0.3357 0.24806 0.7982 0.0
O320 O 0.35388 0.14167 0.78099 0.0
O321 O 0.39526 0.14422 0.82596 0.0
C322 C 0.28333 0.09454 0.83738 0.0
O323 O 0.24904 0.16085 0.82779 0.0
O324 O 0.23562 0.21643 0.80495 0.0
O325 O 0.32161 0.24093 0.76675 0.0
O326 O 0.32836 0.22632 0.82613 0.0
O327 O 0.31824 0.08995 0.83576 0.0
O328 O 0.27039 0.12809 0.83797 0.0
O329 O 0.33353 0.20594 0.85909 0.0
O330 O 0.33409 0.1595 0.89936 0.0
C331 C 0.33551 0.19418 0.8932 0.0
O332 O 0.32466 0.14939 0.75875 0.0
O333 O 0.27091 0.16543 0.73396 0.0
C334 C 0.38807 0.13926 0.79184 0.0
C335 C 0.30063 0.1466 0.7323 0.0
C336 C 0.07124 0.20254 0.87437 0.0
C337 C 0.03372 0.24766 0.01169 0.0
C338 C 0.92406 0.22999 0.9759 0.0
Mg339 Mg 0.02459 0.19782 0.79802 0.0
Mg340 Mg 0.95668 0.27474 0.79059 0.0
O341 O 0.9753 0.22888 0.81541 0.0
Mg342 Mg 0.99008 0.24095 0.86847 0.0
O343 O 0.00742 0.24838 0.92097 0.0
Mg344 Mg 0.00505 0.1956 0.93924 0.0
Mg345 Mg 0.98453 0.28418 0.95087 0.0
C346 C 0.9087 0.28432 0.86178 0.0
O347 O 0.00603 0.30387 0.85786 0.0
O348 O 0.9651 0.21199 0.78399 0.0
O349 O 0.99409 0.33098 0.9135 0.0
O350 O 0.03925 0.24894 0.75647 0.0
O351 O 0.93274 0.24401 0.74378 0.0
O352 O 0.01019 0.29813 0.77999 0.0
O353 O 0.97622 0.1802 0.88312 0.0
O354 O 0.00128 0.14982 0.83468 0.0
C355 C 0.98212 0.14992 0.8651 0.0
C356 C 0.94962 0.21363 0.75167 0.0
O357 O 0.92905 0.26051 0.87955 0.0
O358 O 0.03201 0.21686 0.9937 0.0
O359 O 0.91889 0.29849 0.83048 0.0
O360 O 0.94791 0.20376 0.97073 0.0
O361 O 0.01836 0.27792 0.00021 0.0
O362 O 0.93022 0.26336 0.96478 0.0
O363 O 0.04781 0.22101 0.85406 0.0
O364 O 0.06204 0.19095 0.90733 0.0
C365 C 0.02902 0.28325 0.75392 0.0
C366 C 0.00448 0.33263 0.87914 0.0
C367 C 0.57174 0.71241 0.3817 0.0
C368 C 0.53331 0.76116 0.5087 0.0
C369 C 0.42005 0.73827 0.47741 0.0
Mg370 Mg 0.53205 0.71278 0.30475 0.0
Mg371 Mg 0.46643 0.77115 0.27892 0.0
O372 O 0.48112 0.7352 0.31385 0.0
Mg373 Mg 0.48974 0.74951 0.36755 0.0
O374 O 0.50137 0.758 0.42124 0.0
Mg375 Mg 0.50212 0.70518 0.44073 0.0
Mg376 Mg 0.4787 0.79432 0.45048 0.0
C377 C 0.40683 0.78321 0.34389 0.0
O378 O 0.50374 0.81175 0.35661 0.0
O379 O 0.51135 0.69561 0.24907 0.0
O380 O 0.4852 0.8395 0.4102 0.0
O381 O 0.55348 0.76494 0.27094 0.0
O382 O 0.46908 0.73707 0.22807 0.0
O383 O 0.511 0.80913 0.27844 0.0
O384 O 0.47612 0.68942 0.38311 0.0
O385 O 0.50477 0.66183 0.33512 0.0
C386 C 0.48371 0.66014 0.36427 0.0
C387 C 0.48983 0.70812 0.22343 0.0
O388 O 0.42754 0.7677 0.36906 0.0
O389 O 0.53004 0.72938 0.49285 0.0
O390 O 0.41723 0.78818 0.30976 0.0
O391 O 0.44396 0.71236 0.47094 0.0
O392 O 0.51659 0.79073 0.49725 0.0
O393 O 0.42588 0.77205 0.46743 0.0
O394 O 0.55036 0.7327 0.36147 0.0
O395 O 0.5604 0.69862 0.41281 0.0
C396 C 0.54098 0.79772 0.26338 0.0
C397 C 0.49765 0.84082 0.37648 0.0
C398 C 0.97662 0.8348 0.62313 0.0
C399 C 0.96892 0.7855 0.76255 0.0
C400 C 0.02744 0.69404 0.72498 0.0
Mg401 Mg -0.0045 0.79103 0.54685 0.0
Mg402 Mg 0.97357 0.70317 0.53548 0.0
O403 O -0.00315 0.73795 0.56552 0.0
Mg404 Mg 0.98273 0.74512 0.61866 0.0
O405 O 0.97067 0.75826 0.67177 0.0
Mg406 Mg 0.01993 0.78111 0.68525 0.0
Mg407 Mg 0.95335 0.72216 0.70485 0.0
C408 C 0.98705 0.65405 0.60808 0.0
O409 O 0.92234 0.72563 0.61239 0.0
O410 O 0.02559 0.76758 0.49581 0.0
O411 O 0.9089 0.70266 0.67007 0.0
O412 O 0.93868 0.78368 0.51449 0.0
O413 O 0.01298 0.70626 0.49018 0.0
O414 O 0.92078 0.7244 0.51931 0.0
O415 O 0.04283 0.76282 0.62815 0.0
O416 O 0.05175 0.7973 0.57637 0.0
C417 C 0.06324 0.78411 0.60763 0.0
C418 C 0.03017 0.7359 0.48004 0.0
O419 O -0.00443 0.68174 0.62905 0.0
O420 O 0.9938 0.79851 0.74029 0.0
O421 O 0.97583 0.65776 0.57428 0.0
O422 O 0.03952 0.72732 0.71909 0.0
O423 O 0.94975 0.75629 0.75506 0.0
O424 O -0.00337 0.68333 0.71166 0.0
O425 O 0.96873 0.80574 0.60416 0.0
O426 O -0.00445 0.83229 0.65355 0.0
C427 C 0.91492 0.75782 0.50858 0.0
C428 C 0.90129 0.7075 0.6353 0.0
C429 C 0.85924 0.98123 0.16644 0.0
C430 C 0.72129 0.97737 0.22753 0.0
C431 C 0.76048 0.04107 0.30369 0.0
Mg432 Mg 0.93651 0.00799 0.20859 0.0
Mg433 Mg 0.94809 0.98756 0.29877 0.0
O434 O 0.91857 0.00961 0.26188 0.0
Mg435 Mg 0.86606 0.99251 0.25506 0.0
O436 O 0.81294 0.97846 0.24431 0.0
Mg437 Mg 0.7982 0.02674 0.2185 0.0
Mg438 Mg 0.78411 0.96724 0.28664 0.0
C439 C 0.87482 0.00717 0.34503 0.0
O440 O 0.87355 0.93166 0.27771 0.0
O441 O 0.99012 0.03748 0.23048 0.0
O442 O 0.8182 0.92167 0.30654 0.0
O443 O 0.96761 0.95185 0.21783 0.0
O444 O -0.00333 0.02254 0.29168 0.0
O445 O 0.96234 0.93379 0.27763 0.0
O446 O 0.85477 0.05044 0.23368 0.0
O447 O 0.90563 0.06445 0.20053 0.0
C448 C 0.87338 0.07321 0.2133 0.0
C449 C 0.00759 0.03937 0.26183 0.0
O450 O 0.85506 0.0096 0.31539 0.0
O451 O 0.74259 -0.00079 0.20853 0.0
O452 O 0.90914 -0.00347 0.34503 0.0
O453 O 0.76609 0.05091 0.26963 0.0
O454 O 0.73138 0.96152 0.25822 0.0
O455 O 0.78107 0.01622 0.31841 0.0
O456 O 0.88007 0.9776 0.19538 0.0
O457 O 0.82777 -0.00155 0.16832 0.0
C458 C 0.97323 0.92804 0.24412 0.0
C459 C 0.85151 0.91144 0.29798 0.0
C460 C 0.21728 0.88606 0.07633 0.0
C461 C 0.27036 0.01247 0.03021 0.0
C462 C 0.24964 0.97098 0.92123 0.0
Mg463 Mg 0.2145 0.80648 0.0395 0.0
Mg464 Mg 0.26125 0.77545 0.9668 0.0
O465 O 0.23592 0.81492 0.9885 0.0
Mg466 Mg 0.25387 0.86741 0.99551 0.0
O467 O 0.26599 0.92083 0.00621 0.0
Mg468 Mg 0.21423 0.94234 0.00467 0.0
Mg469 Mg 0.30405 0.94817 0.98339 0.0
C470 C 0.28271 0.84142 0.9101 0.0
O471 O 0.31555 0.85296 0.00973 0.0
O472 O 0.19026 0.75283 0.02091 0.0
O473 O 0.34665 0.90571 0.99343 0.0
O474 O 0.26811 0.77041 0.0586 0.0
O475 O 0.21872 0.73186 0.96926 0.0
O476 O 0.30078 0.75917 0.00653 0.0
O477 O 0.19404 0.88517 0.98282 0.0
O478 O 0.16425 0.83981 0.01432 0.0
C479 C 0.16367 0.86908 0.99315 0.0
C480 C 0.19419 0.72878 0.99536 0.0
O481 O 0.27193 0.8674 0.93245 0.0
O482 O 0.23872 -0.00374 0.02745 0.0
O483 O 0.28172 0.80651 0.91867 0.0
O484 O 0.22331 0.96683 0.94509 0.0
O485 O 0.30064 -0.00117 0.0168 0.0
O486 O 0.2832 0.96126 0.92861 0.0
O487 O 0.23636 0.86338 0.05626 0.0
O488 O 0.20712 0.91803 0.06374 0.0
C489 C 0.2963 0.7555 0.04163 0.0
C490 C 0.34583 0.87168 0.00519 0.0
C491 C 0.11591 0.41571 0.21141 0.0
C492 C 0.98412 0.43285 0.25958 0.0
C493 C 0.00575 0.55122 0.25323 0.0
Mg494 Mg 0.19035 0.46576 0.21408 0.0
Mg495 Mg 0.20344 0.53384 0.27296 0.0
O496 O 0.17148 0.51219 0.23881 0.0
Mg497 Mg 0.12021 0.49439 0.25346 0.0
O498 O 0.06882 0.47453 0.26163 0.0
Mg499 Mg 0.04916 0.47877 0.20929 0.0
Mg500 Mg 0.03642 0.48589 0.30078 0.0
C501 C 0.12886 0.57862 0.28926 0.0
O502 O 0.13323 0.47792 0.31692 0.0
O503 O 0.24107 0.49877 0.19461 0.0
O504 O 0.07652 0.47795 0.34525 0.0
O505 O 0.22972 0.45049 0.26616 0.0
O506 O 0.25204 0.54346 0.23679 0.0
O507 O 0.21689 0.49107 0.3109 0.0
O508 O 0.1034 0.50952 0.19255 0.0
O509 O 0.15426 0.48587 0.16456 0.0
C510 C 0.12206 0.50169 0.16274 0.0
C511 C 0.26076 0.52561 0.20702 0.0
O512 O 0.10802 0.55397 0.27407 0.0
O513 O -0.00013 0.44359 0.2292 0.0
O514 O 0.16437 0.57508 0.29266 0.0
O515 O 0.01441 0.53331 0.22343 0.0
O516 O 0.99384 0.44439 0.2918 0.0
O517 O 0.01466 0.5394 0.28582 0.0
O518 O 0.1356 0.43644 0.23291 0.0
O519 O 0.08352 0.42584 0.1999 0.0
C520 C 0.23621 0.4641 0.2987 0.0
C521 C 0.11214 0.47399 0.34612 0.0
C522 C 0.66417 0.62441 0.00714 0.0
C523 C 0.71986 0.76258 0.02166 0.0
C524 C 0.8048 0.72688 0.96132 0.0
Mg525 Mg 0.70826 0.54931 0.98209 0.0
Mg526 Mg 0.799 0.53554 0.99548 0.0
O527 O 0.76102 0.56752 0.97981 0.0
Mg528 Mg 0.75387 0.61891 -0.00085 0.0
O529 O 0.7416 0.67065 0.01634 0.0
Mg530 Mg 0.71815 0.6884 0.96836 0.0
Mg531 Mg 0.78042 0.70059 0.03312 0.0
C532 C 0.84423 0.60989 0.979 0.0
O533 O 0.77587 0.60754 0.05993 0.0
O534 O 0.72931 0.49932 0.94792 0.0
O535 O 0.79933 0.66342 0.07665 0.0
O536 O 0.71937 0.51527 0.03689 0.0
O537 O 0.79136 0.49194 0.95512 0.0
O538 O 0.78064 0.51668 0.04915 0.0
O539 O 0.73376 0.63358 0.94063 0.0
O540 O 0.70032 0.58276 0.92818 0.0
C541 C 0.71245 0.61508 0.9189 0.0
C542 C 0.76026 0.48284 0.94043 0.0
O543 O 0.81511 0.63074 0.98135 0.0
O544 O 0.7041 0.74154 -0.00217 0.0
O545 O 0.84399 0.57472 0.98611 0.0
O546 O 0.77126 0.72215 0.94984 0.0
O547 O 0.74952 0.75271 0.03932 0.0
O548 O 0.81732 0.70712 0.98803 0.0
O549 O 0.69321 0.60404 0.01348 0.0
O550 O 0.66702 0.65655 0.99119 0.0
C551 C 0.7473 0.50747 0.05789 0.0
C552 C 0.79358 0.62859 0.08287 0.0
C553 C 0.16952 0.12827 0.51008 0.0
C554 C 0.22414 0.26461 0.5317 0.0
C555 C 0.30824 0.23276 0.4638 0.0
Mg556 Mg 0.21173 0.05399 0.47978 0.0
Mg557 Mg 0.30247 0.03693 0.49102 0.0
O558 O 0.26487 0.07098 0.47877 0.0
Mg559 Mg 0.2589 0.12196 0.50018 0.0
O560 O 0.24746 0.1735 0.519 0.0
Mg561 Mg 0.22241 0.1937 0.47272 0.0
Mg562 Mg 0.28613 0.20297 0.5364 0.0
C563 C 0.34829 0.11234 0.4768 0.0
O564 O 0.28185 0.10808 0.55958 0.0
O565 O 0.23084 0.00562 0.44275 0.0
O566 O 0.3068 0.1632 0.57661 0.0
O567 O 0.22277 0.016 0.53243 0.0
O568 O 0.2927 -0.00415 0.44821 0.0
O569 O 0.28427 0.01373 0.54372 0.0
O570 O 0.23845 0.13952 0.44343 0.0
O571 O 0.20429 0.09053 0.42723 0.0
C572 C 0.21791 0.12272 0.41987 0.0
C573 C 0.26102 0.98859 0.43366 0.0
O574 O 0.31987 0.13368 0.48185 0.0
O575 O 0.20866 0.24586 0.50572 0.0
O576 O 0.34748 0.07674 0.48162 0.0
O577 O 0.27434 0.22791 0.45381 0.0
O578 O 0.25397 0.25333 0.54824 0.0
O579 O 0.32182 0.21443 0.49109 0.0
O580 O 0.19835 0.1072 0.51471 0.0
O581 O 0.17239 0.16105 0.49562 0.0
C582 C 0.25063 0.00514 0.5522 0.0
C583 C 0.30107 0.12824 0.58204 0.0
C584 C 0.37205 0.56908 0.71297 0.0
C585 C 0.50179 0.5427 0.76613 0.0
C586 C 0.48055 0.42819 0.74207 0.0
Mg587 Mg 0.29824 0.51983 0.71427 0.0
Mg588 Mg 0.28342 0.45108 0.77258 0.0
O589 O 0.31496 0.47075 0.73655 0.0
Mg590 Mg 0.36641 0.48614 0.75141 0.0
O591 O 0.41786 0.504 0.76117 0.0
Mg592 Mg 0.43743 0.50608 0.70867 0.0
Mg593 Mg 0.44792 0.4831 0.7986 0.0
C594 C 0.35361 0.40061 0.78814 0.0
O595 O 0.353 0.50147 0.8122 0.0
O596 O 0.2452 0.49133 0.6971 0.0
O597 O 0.40638 0.48856 0.84331 0.0
O598 O 0.2643 0.53688 0.76852 0.0
O599 O 0.23305 0.44633 0.73962 0.0
O600 O 0.2762 0.49309 0.81154 0.0
O601 O 0.38312 0.47395 0.69147 0.0
O602 O 0.33146 0.49679 0.664 0.0
C603 C 0.36302 0.47963 0.66221 0.0
C604 C 0.22428 0.46568 0.71054 0.0
O605 O 0.37604 0.42414 0.77236 0.0
O606 O 0.48638 0.53872 0.73403 0.0
O607 O 0.31851 0.40665 0.79171 0.0
O608 O 0.47213 0.45201 0.71659 0.0
O609 O 0.49177 0.52442 0.79543 0.0
O610 O 0.4698 0.43193 0.77596 0.0
O611 O 0.35288 0.54577 0.73243 0.0
O612 O 0.40476 0.56055 0.7016 0.0
C613 C 0.26094 0.52359 0.80189 0.0
C614 C 0.37197 0.49901 0.84246 0.0
C615 C 0.71567 0.37157 0.56638 0.0
C616 C 0.75315 0.50386 0.54102 0.0
C617 C 0.73626 0.47904 0.42401 0.0
Mg618 Mg 0.71853 0.29643 0.51962 0.0
Mg619 Mg 0.77692 0.28354 0.45171 0.0
O620 O 0.73884 0.31348 0.46953 0.0
Mg621 Mg 0.75147 0.36639 0.48354 0.0
O622 O 0.75798 0.41902 0.50058 0.0
Mg623 Mg 0.70433 0.43508 0.50176 0.0
Mg624 Mg 0.79294 0.45346 0.48343 0.0
C625 C 0.7862 0.35424 0.39892 0.0
O626 O 0.81445 0.35757 0.49515 0.0
O627 O 0.70329 0.24197 0.49333 0.0
O628 O 0.83974 0.41478 0.48555 0.0
O629 O 0.77448 0.26331 0.53591 0.0
O630 O 0.74739 0.23035 0.45017 0.0
O631 O 0.81664 0.2815 0.49417 0.0
O632 O 0.69053 0.37934 0.47307 0.0
O633 O 0.66483 0.32767 0.498 0.0
C634 C 0.6619 0.35938 0.48097 0.0
C635 C 0.7189 0.22035 0.46975 0.0
O636 O 0.769 0.37624 0.42152 0.0
O637 O 0.72328 0.48599 0.53369 0.0
O638 O 0.79235 0.31963 0.40619 0.0
O639 O 0.70978 0.46898 0.44602 0.0
O640 O 0.78469 0.49625 0.52579 0.0
O641 O 0.77052 0.4726 0.43144 0.0
O642 O 0.7357 0.35266 0.5436 0.0
O643 O 0.70162 0.40297 0.55675 0.0
C644 C 0.80805 0.26278 0.52308 0.0
C645 C 0.84258 0.37957 0.4922 0.0
C646 C 0.62879 0.01485 0.65683 0.0
C647 C 0.7533 0.05717 0.70248 0.0
C648 C 0.74568 0.98169 0.79247 0.0
Mg649 Mg 0.55537 0.98209 0.69787 0.0
Mg650 Mg 0.53639 0.98758 0.78782 0.0
O651 O 0.57201 0.97782 0.75124 0.0
Mg652 Mg 0.62201 0.00232 0.74715 0.0
O653 O 0.67231 0.02404 0.73744 0.0
Mg654 Mg 0.69699 0.98289 0.70964 0.0
Mg655 Mg 0.70107 0.05057 0.7707 0.0
C656 C 0.60923 0.98238 0.83799 0.0
O657 O 0.60358 0.05967 0.76875 0.0
O658 O 0.50706 0.94225 0.71455 0.0
O659 O 0.65624 0.08164 0.79532 0.0
O660 O 0.51597 0.03419 0.7104 0.0
O661 O 0.49612 0.94451 0.77644 0.0
O662 O 0.51385 0.04001 0.77272 0.0
O663 O 0.64457 0.94701 0.72638 0.0
O664 O 0.5952 0.9324 0.6906 0.0
C665 C 0.62759 0.92491 0.70411 0.0
C666 C 0.4896 0.93125 0.74407 0.0
O667 O 0.6322 0.98631 0.81038 0.0
O668 O 0.74249 0.02472 0.69264 0.0
O669 O 0.57364 0.98395 0.83457 0.0
O670 O 0.73574 0.96694 0.76137 0.0
O671 O 0.74017 0.07416 0.731 0.0
O672 O 0.73181 0.01238 0.80348 0.0
O673 O 0.6076 0.01805 0.68579 0.0
O674 O 0.66207 0.00228 0.65996 0.0
C675 C 0.50571 0.05164 0.73998 0.0
C676 C 0.62105 0.08328 0.78897 0.0
C677 C 0.48003 0.32969 0.12196 0.0
C678 C 0.48509 0.27916 0.2646 0.0
C679 C 0.54801 0.19918 0.22749 0.0
Mg680 Mg 0.4979 0.2844 0.04619 0.0
Mg681 Mg 0.48518 0.19406 0.03942 0.0
O682 O 0.50575 0.23267 0.06681 0.0
Mg683 Mg 0.49351 0.24097 0.12044 0.0
O684 O 0.48215 0.25422 0.17395 0.0
Mg685 Mg 0.52993 0.28203 0.18428 0.0
Mg686 Mg 0.47279 0.21467 0.20693 0.0
C687 C 0.5062 0.15051 0.11396 0.0
O688 O 0.43572 0.21596 0.11759 0.0
O689 O 0.526 0.26237 0.99338 0.0
O690 O 0.42743 0.19077 0.1752 0.0
O691 O 0.43993 0.27084 0.01861 0.0
O692 O 0.52167 0.19963 0.99181 0.0
O693 O 0.42998 0.20963 0.02396 0.0
O694 O 0.5515 0.26504 0.12642 0.0
O695 O 0.55498 0.29618 0.07181 0.0
C696 C 0.56872 0.28683 0.10354 0.0
C697 C 0.53327 0.23077 0.97851 0.0
O698 O 0.51245 0.18019 0.13273 0.0
O699 O 0.5051 0.29644 0.24029 0.0
O700 O 0.49363 0.15073 0.08044 0.0
O701 O 0.5567 0.2332 0.2205 0.0
O702 O 0.46953 0.24766 0.25795 0.0
O703 O 0.52289 0.18371 0.20835 0.0
O704 O 0.47362 0.29937 0.10442 0.0
O705 O 0.49957 0.3296 0.15204 0.0
C706 C 0.41942 0.2421 0.01371 0.0
C707 C 0.41723 0.19598 0.1411 0.0
C708 C 0.05089 0.31955 0.65546 0.0
C709 C 0.01961 0.34241 0.64784 0.0
C710 C 0.05335 0.29856 0.689 0.0
C711 C 0.02487 0.3005 0.71611 0.0
H712 H 0.07511 0.32085 0.63727 0.0
H713 H 0.07868 0.28301 0.69488 0.0
S714 S 0.93492 0.35205 0.70642 0.0
N715 N 0.95836 0.36238 0.66797 0.0
N716 N 0.96204 0.3231 0.7301 0.0
C717 C 0.99207 0.32055 0.70688 0.0
C718 C 0.98964 0.34134 0.67289 0.0
C719 C 0.57432 0.75406 0.60463 0.0
C720 C 0.61082 0.74243 0.59589 0.0
C721 C 0.54946 0.76452 0.57609 0.0
C722 C 0.56089 0.76361 0.53852 0.0
H723 H 0.56376 0.75108 0.63293 0.0
H724 H 0.52046 0.76972 0.5831 0.0
S725 S 0.65544 0.74218 0.50244 0.0
N726 N 0.65863 0.73602 0.54816 0.0
N727 N 0.61204 0.75582 0.49457 0.0
C728 C 0.59841 0.75629 0.5301 0.0
C729 C 0.6235 0.74571 0.55893 0.0
C730 C 0.92674 0.145 0.6765 0.0
C731 C 0.96185 0.13213 0.66438 0.0
C732 C 0.92331 0.17071 0.70536 0.0
C733 C 0.95486 0.18424 0.72359 0.0
H734 H 0.90178 0.13798 0.66175 0.0
H735 H 0.89575 0.18098 0.71263 0.0
S736 S 0.05335 0.1581 0.70348 0.0
N737 N 0.02874 0.13401 0.67328 0.0
N738 N 0.02257 0.18147 0.72854 0.0
C739 C 0.99013 0.17011 0.7132 0.0
C740 C 0.99356 0.1443 0.68327 0.0
C741 C 0.33227 0.75932 0.53016 0.0
C742 C 0.34218 0.7486 0.56691 0.0
C743 C 0.35556 0.75154 0.49962 0.0
C744 C 0.38919 0.73188 0.50448 0.0
H745 H 0.30853 0.7776 0.52549 0.0
H746 H 0.34901 0.7641 0.47272 0.0
S747 S 0.42313 0.68946 0.59314 0.0
N748 N 0.3844 0.71152 0.60516 0.0
N749 N 0.42768 0.69575 0.54754 0.0
C750 C 0.39649 0.71611 0.54 0.0
C751 C 0.37299 0.72465 0.57134 0.0
C752 C 0.04164 0.6117 0.78989 0.0
C753 C 0.04383 0.62869 0.82503 0.0
C754 C 0.03909 0.63316 0.75694 0.0
C755 C 0.04018 0.67238 0.75787 0.0
H756 H 0.04264 0.58158 0.78784 0.0
H757 H 0.03573 0.61901 0.73055 0.0
S758 S 0.04749 0.73009 0.84308 0.0
N759 N 0.04809 0.68666 0.85898 0.0
N760 N 0.04379 0.72723 0.79717 0.0
C761 C 0.0432 0.68962 0.79291 0.0
C762 C 0.0449 0.66772 0.82644 0.0
C763 C 0.878 0.75388 0.4123 0.0
C764 C 0.84509 0.73347 0.41856 0.0
C765 C 0.89813 0.76844 0.44248 0.0
C766 C 0.88606 0.76255 0.4796 0.0
H767 H 0.89035 0.75507 0.38462 0.0
H768 H 0.9256 0.77985 0.43699 0.0
S769 S 0.79631 0.72075 0.50921 0.0
N770 N 0.79716 0.71567 0.46337 0.0
N771 N 0.83538 0.7424 0.51992 0.0
C772 C 0.85062 0.74708 0.48541 0.0
C773 C 0.83006 0.73253 0.45486 0.0
C774 C 0.95631 0.7965 0.86687 0.0
C775 C 0.96436 0.83444 0.87249 0.0
C776 C 0.95668 0.78113 0.83109 0.0
C777 C 0.96536 0.80308 0.79953 0.0
H778 H 0.94902 0.7786 0.89037 0.0
H779 H 0.95077 0.75168 0.82825 0.0
S780 S 0.98741 0.90419 0.79857 0.0
N781 N 0.98056 0.89382 0.84314 0.0
N782 N 0.98165 0.86481 0.77587 0.0
C783 C 0.97375 0.84101 0.80466 0.0
C784 C 0.97328 0.85672 0.84113 0.0
C785 C 0.08218 0.74092 0.38969 0.0
C786 C 0.11637 0.75545 0.40217 0.0
C787 C 0.05458 0.7302 0.41543 0.0
C788 C 0.06117 0.73329 0.45384 0.0
H789 H 0.07508 0.74188 0.36026 0.0
H790 H 0.02706 0.72307 0.40533 0.0
S791 S 0.14932 0.76001 0.49996 0.0
N792 N 0.15772 0.76543 0.45476 0.0
N793 N 0.10607 0.74448 0.50316 0.0
C794 C 0.09693 0.74268 0.46634 0.0
C795 C 0.12469 0.75393 0.44036 0.0
C796 C 0.65697 0.0636 0.30455 0.0
C797 C 0.64216 0.03923 0.33205 0.0
C798 C 0.69533 0.06564 0.29741 0.0
C799 C 0.72097 0.04295 0.3169 0.0
H800 H 0.63885 0.08241 0.28907 0.0
H801 H 0.70485 0.08496 0.27595 0.0
S802 S 0.69672 0.97191 0.38975 0.0
N803 N 0.65622 0.99014 0.37733 0.0
N804 N 0.72834 -0.0062 0.36415 0.0
C805 C 0.70653 0.01758 0.34385 0.0
C806 C 0.66723 0.01538 0.35095 0.0
C807 C 0.27687 0.02597 0.83698 0.0
C808 C 0.26088 0.06088 0.84552 0.0
C809 C 0.26882 -0.00572 0.85858 0.0
C810 C 0.24392 -0.00364 0.88885 0.0
H811 H 0.29928 0.02407 0.81663 0.0
H812 H 0.28532 0.96928 0.85426 0.0
S813 S 0.18376 0.07746 0.91236 0.0
N814 N 0.21133 0.09302 0.8786 0.0
N815 N 0.19548 0.03333 0.91911 0.0
C816 C 0.22238 0.02916 0.89264 0.0
C817 C 0.23098 0.06161 0.87081 0.0
C818 C 0.33153 0.42219 0.32219 0.0
C819 C 0.34771 0.44894 0.34586 0.0
C820 C 0.29526 0.42658 0.30785 0.0
C821 C 0.27338 0.45785 0.31672 0.0
H822 H 0.34682 0.3972 0.31497 0.0
H823 H 0.28429 0.40522 0.28978 0.0
S824 S 0.30439 0.53824 0.37424 0.0
N825 N 0.34014 0.50913 0.37512 0.0
N826 N 0.27235 0.51794 0.34854 0.0
C827 C 0.28989 0.48557 0.33937 0.0
C828 C 0.32693 0.48109 0.35365 0.0
C829 C 0.75036 0.39093 0.89226 0.0
C830 C 0.7361 0.40272 0.85745 0.0
C831 C 0.762 0.41715 0.91863 0.0
C832 C 0.75978 0.45547 0.91043 0.0
H833 H 0.74871 0.36185 0.90067 0.0
H834 H 0.76949 0.40763 0.94648 0.0
S835 S 0.73214 0.4995 0.82056 0.0
N836 N 0.72623 0.45437 0.81413 0.0
N837 N 0.7482 0.50355 0.86357 0.0
C838 C 0.74974 0.4671 0.87431 0.0
C839 C 0.73797 0.44062 0.84768 0.0
C840 C 0.63782 0.9885 0.16573 0.0
C841 C 0.62176 0.95314 0.16829 0.0
C842 C 0.6685 -0.00272 0.18768 0.0
C843 C 0.68385 0.97081 0.21267 0.0
H844 H 0.62965 0.00779 0.14387 0.0
H845 H 0.68194 0.02394 0.18291 0.0
S846 S 0.6446 0.87802 0.23642 0.0
N847 N 0.61757 0.89452 0.20273 0.0
N848 N 0.67585 0.91078 0.24417 0.0
C849 C 0.66467 0.93731 0.21915 0.0
C850 C 0.63332 0.9285 0.19678 0.0
C851 C 0.25747 0.07666 0.1101 0.0
C852 C 0.23687 0.10543 0.0928 0.0
C853 C 0.27376 0.04825 0.08872 0.0
C854 C 0.27016 0.04828 0.0496 0.0
H855 H 0.25738 0.07373 0.14028 0.0
H856 H 0.28559 0.02421 0.10306 0.0
S857 S 0.22573 0.12164 0.99111 0.0
N858 N 0.21875 0.13544 0.0345 0.0
N859 N 0.24973 0.08228 0.99428 0.0
C860 C 0.25359 0.07927 0.03198 0.0
C861 C 0.23677 0.10788 0.05366 0.0
C862 C 0.33332 0.52786 0.13034 0.0
C863 C 0.36695 0.53166 0.15007 0.0
C864 C 0.29889 0.52817 0.14892 0.0
C865 C 0.29667 0.53255 0.18789 0.0
H866 H 0.33347 0.52449 0.10028 0.0
H867 H 0.27376 0.52414 0.13269 0.0
S868 S 0.3765 0.54191 0.25279 0.0
N869 N 0.39597 0.53885 0.21098 0.0
N870 N 0.33099 0.53996 0.24582 0.0
C871 C 0.32997 0.53696 0.20798 0.0
C872 C 0.36517 0.5363 0.18908 0.0
C873 C 0.73665 0.41191 0.09805 0.0
C874 C 0.76367 0.41273 0.12637 0.0
C875 C 0.72647 0.44487 0.07898 0.0
C876 C 0.74335 0.47913 0.08769 0.0
H877 H 0.72656 0.38548 0.08782 0.0
H878 H 0.709 0.44265 0.05444 0.0
S879 S 0.80687 0.49693 0.16688 0.0
N880 N 0.79993 0.45143 0.16817 0.0
N881 N 0.78191 0.51286 0.13137 0.0
C882 C 0.76602 0.48079 0.11945 0.0
C883 C 0.77592 0.44757 0.13909 0.0
C884 C 0.32862 0.67998 0.11034 0.0
C885 C 0.35597 0.66049 0.08969 0.0
C886 C 0.31076 0.71199 0.09575 0.0
C887 C 0.32017 0.72643 0.06022 0.0
H888 H 0.32068 0.67022 0.13801 0.0
H889 H 0.28883 0.7249 0.1121 0.0
S890 S 0.3932 0.68782 -0.00342 0.0
N891 N 0.39274 0.65883 0.03266 0.0
N892 N 0.3615 0.71986 0.00607 0.0
C893 C 0.34878 0.70789 0.04001 0.0
C894 C 0.36587 0.67465 0.05436 0.0
C895 C 0.36811 0.31858 0.4757 0.0
C896 C 0.35198 0.34414 0.45066 0.0
C897 C 0.35558 0.28169 0.47761 0.0
C898 C 0.32607 0.26906 0.45485 0.0
H899 H 0.39176 0.3266 0.49257 0.0
H900 H 0.36882 0.26318 0.49774 0.0
S901 S 0.27542 0.32598 0.38386 0.0
N902 N 0.30589 0.35494 0.4021 0.0
N903 N 0.28177 0.28575 0.40586 0.0
C904 C 0.30988 0.29467 0.42955 0.0
C905 C 0.32278 0.33216 0.42762 0.0
C906 C 0.54234 0.34404 0.75326 0.0
C907 C 0.57799 0.35963 0.74716 0.0
C908 C 0.50974 0.36519 0.74792 0.0
C909 C 0.51172 0.40217 0.73501 0.0
H910 H 0.53982 0.31689 0.76664 0.0
H911 H 0.48323 0.35363 0.75686 0.0
S912 S 0.59761 0.45416 0.70982 0.0
N913 N 0.61286 0.41292 0.72418 0.0
N914 N 0.55162 0.45209 0.71196 0.0
C915 C 0.54679 0.41644 0.72431 0.0
C916 C 0.58004 0.39518 0.73069 0.0
C917 C 0.6973 0.12546 0.43045 0.0
C918 C 0.66914 0.11204 0.45479 0.0
C919 C 0.71408 0.16002 0.436 0.0
C920 C 0.70384 0.18223 0.46641 0.0
H921 H 0.70485 0.11041 0.4054 0.0
H922 H 0.73402 0.17 0.4154 0.0
S923 S 0.63913 0.15526 0.5437 0.0
N924 N 0.63663 0.12068 0.51381 0.0
N925 N 0.66925 0.18501 0.52532 0.0
C926 C 0.67877 0.1673 0.4932 0.0
C927 C 0.66129 0.13229 0.48721 0.0
C928 C 0.91235 0.59898 0.24861 0.0
C929 C 0.91697 0.6273 0.27514 0.0
C930 C 0.94294 0.57696 0.23712 0.0
C931 C 0.97886 0.58263 0.25194 0.0
H932 H 0.88461 0.59139 0.23951 0.0
H933 H 0.93764 0.55299 0.21977 0.0
S934 S 0.00689 0.65869 0.31509 0.0
N935 N 0.9614 0.66433 0.31 0.0
N936 N 0.01811 0.62226 0.28949 0.0
C937 C 0.98432 0.61353 0.27494 0.0
C938 C 0.95353 0.63609 0.28625 0.0
C939 C 0.15657 0.34599 0.53028 0.0
C940 C 0.16308 0.36307 0.56471 0.0
C941 C 0.17771 0.31519 0.51924 0.0
C942 C 0.20637 0.30045 0.54207 0.0
H943 H 0.13309 0.3544 0.51308 0.0
H944 H 0.17027 0.30188 0.49327 0.0
S945 S 0.23995 0.34122 0.63072 0.0
N946 N 0.20396 0.36754 0.61858 0.0
N947 N 0.24416 0.30963 0.59768 0.0
C948 C 0.21572 0.31987 0.57466 0.0
C949 C 0.19396 0.35121 0.586 0.0
C950 C 0.54573 0.63549 0.75063 0.0
C951 C 0.58386 0.6262 0.74938 0.0
C952 C 0.51907 0.60869 0.76005 0.0
C953 C 0.52982 0.57207 0.76918 0.0
H954 H 0.53616 0.6623 0.74003 0.0
H955 H 0.48977 0.61578 0.75698 0.0
S956 S 0.62626 0.53581 0.77756 0.0
N957 N 0.63132 0.57956 0.76346 0.0
N958 N 0.58084 0.52924 0.78232 0.0
C959 C 0.56788 0.56372 0.77291 0.0
C960 C 0.59515 0.59101 0.76292 0.0
C961 C 0.39708 0.88087 0.74045 0.0
C962 C 0.40611 0.84996 0.71812 0.0
C963 C 0.42482 0.90615 0.75137 0.0
C964 C 0.46212 0.90117 0.74006 0.0
H965 H 0.36819 0.88729 0.74684 0.0
H966 H 0.41663 0.93103 0.76628 0.0
S967 S 0.50127 0.82043 0.68925 0.0
N968 N 0.45593 0.81243 0.69114 0.0
N969 N 0.50761 0.86027 0.71101 0.0
C970 C 0.47191 0.86855 0.72111 0.0
C971 C 0.44398 0.84273 0.71042 0.0
C972 C 0.52846 0.85367 0.17374 0.0
C973 C 0.55553 0.8386 0.14989 0.0
C974 C 0.52609 0.84228 0.2112 0.0
C975 C 0.55023 0.81471 0.22634 0.0
H976 H 0.50999 0.87565 0.16388 0.0
H977 H 0.50438 0.85481 0.22814 0.0
S978 S 0.62692 0.76749 0.17495 0.0
N979 N 0.60782 0.79578 0.14364 0.0
N980 N 0.6029 0.77347 0.21394 0.0
C981 C 0.57768 0.79962 0.20258 0.0
C982 C 0.58028 0.8116 0.16444 0.0
C983 C 0.05097 0.21374 0.10917 0.0
C984 C 0.08746 0.22634 0.11599 0.0
C985 C 0.03262 0.2231 0.07604 0.0
C986 C 0.04965 0.24628 0.04928 0.0
H987 H 0.03803 0.19342 0.1277 0.0
H988 H 0.00598 0.21019 0.07023 0.0
S989 S 0.14012 0.29466 0.05803 0.0
N990 N 0.13689 0.26878 0.09642 0.0
N991 N 0.10133 0.2874 0.03435 0.0
C992 C 0.08362 0.26331 0.05792 0.0
C993 C 0.10274 0.2533 0.09155 0.0
C994 C 0.51001 0.6306 0.15621 0.0
C995 C 0.48546 0.63796 0.1268 0.0
C996 C 0.51252 0.65477 0.1861 0.0
C997 C 0.4902 0.68722 0.18799 0.0
H998 H 0.52482 0.60419 0.15785 0.0
H999 H 0.53054 0.64633 0.20896 0.0
S1000 S 0.42992 0.72415 0.11197 0.0
N1001 N 0.44497 0.68347 0.09648 0.0
N1002 N 0.44881 0.72928 0.15368 0.0
C1003 C 0.46897 0.69722 0.15641 0.0
C1004 C 0.46691 0.67249 0.12542 0.0
C1005 C 0.8808 0.22237 0.07103 0.0
C1006 C 0.84851 0.24431 0.06631 0.0
C1007 C 0.90292 0.21245 0.04002 0.0
C1008 C 0.89369 0.22486 0.00363 0.0
H1009 H 0.89161 0.21699 0.09882 0.0
H1010 H 0.92971 0.19925 0.04518 0.0
S1011 S 0.80762 0.27545 0.9761 0.0
N1012 N 0.80462 0.27148 0.02207 0.0
N1013 N 0.84698 0.25446 0.96434 0.0
C1014 C 0.85912 0.24253 -0.00164 0.0
C1015 C 0.83626 0.25176 0.02964 0.0
C1016 C 0.58809 0.18239 0.32504 0.0
C1017 C 0.55911 0.16315 0.34405 0.0
C1018 C 0.5847 0.19354 0.28734 0.0
C1019 C 0.55243 0.18552 0.26681 0.0
H1020 H 0.61427 0.18791 0.33895 0.0
H1021 H 0.60774 0.20801 0.27401 0.0
S1022 S 0.46609 0.14129 0.3049 0.0
N1023 N 0.49542 0.14076 0.34033 0.0
N1024 N 0.48905 0.16082 0.26981 0.0
C1025 C 0.52256 0.16787 0.28598 0.0
C1026 C 0.52586 0.15704 0.32443 0.0
C1027 C 0.37339 0.24594 0.92011 0.0
C1028 C 0.34587 0.21838 0.92479 0.0
C1029 C 0.39403 0.25852 0.95094 0.0
C1030 C 0.38789 0.2436 0.98709 0.0
H1031 H 0.3819 0.25467 0.89229 0.0
H1032 H 0.41781 0.27642 0.94565 0.0
S1033 S 0.31267 0.17826 0.01489 0.0
N1034 N 0.30827 0.18284 0.96912 0.0
N1035 N 0.34788 0.20533 0.02638 0.0
C1036 C 0.35718 0.21998 0.99248 0.0
C1037 C 0.33593 0.20766 0.96143 0.0
C1038 C 0.49787 0.34827 0.34256 0.0
C1039 C 0.46827 0.33949 0.36656 0.0
C1040 C 0.50422 0.32717 0.31055 0.0
C1041 C 0.48118 0.29662 0.30167 0.0
H1042 H 0.51382 0.37354 0.34648 0.0
H1043 H 0.52614 0.33626 0.29164 0.0
S1044 S 0.40558 0.25774 0.36142 0.0
N1045 N 0.42001 0.29504 0.38375 0.0
N1046 N 0.43191 0.25501 0.32351 0.0
C1047 C 0.45429 0.28513 0.32801 0.0
C1048 C 0.44789 0.30671 0.36058 0.0
C1049 C 0.57533 0.25349 0.88615 0.0
C1050 C 0.61194 0.26202 0.89707 0.0
C1051 C 0.54994 0.23864 0.91205 0.0
C1052 C 0.5611 0.23118 0.9489 0.0
H1053 H 0.56546 0.26133 0.85854 0.0
H1054 H 0.5209 0.23597 0.90416 0.0
S1055 S 0.65582 0.24157 0.98841 0.0
N1056 N 0.65951 0.25733 0.94498 0.0
N1057 N 0.61199 0.22816 0.99355 0.0
C1058 C 0.59864 0.23575 0.95875 0.0
C1059 C 0.62414 0.25162 0.93276 0.0
C1060 C 0.20285 0.528 0.88862 0.0
C1061 C 0.16624 0.52849 0.87447 0.0
C1062 C 0.23379 0.53063 0.86486 0.0
C1063 C 0.22945 0.53437 0.82595 0.0
H1064 H 0.2076 0.52594 0.91849 0.0
H1065 H 0.26146 0.52824 0.87689 0.0
S1066 S 0.13963 0.53925 0.77472 0.0
N1067 N 0.12735 0.53439 0.81905 0.0
N1068 N 0.18574 0.53936 0.77424 0.0
C1069 C 0.19303 0.53588 0.81139 0.0
C1070 C 0.1614 0.53262 0.83562 0.0
C1071 C 0.72795 0.57526 0.38698 0.0
C1072 C 0.74969 0.57268 0.35437 0.0
C1073 C 0.71733 0.54297 0.4068 0.0
C1074 C 0.72916 0.50748 0.39499 0.0
H1075 H 0.72309 0.60214 0.3997 0.0
H1076 H 0.70447 0.54621 0.43406 0.0
S1077 S 0.77897 0.48588 0.30708 0.0
N1078 N 0.77611 0.53188 0.30732 0.0
N1079 N 0.75766 0.47137 0.34557 0.0
C1080 C 0.74652 0.5045 0.36002 0.0
C1081 C 0.75652 0.53719 0.33946 0.0
C1082 C 0.84207 0.93976 0.80931 0.0
C1083 C 0.85112 0.95221 0.84537 0.0
C1084 C 0.8073 0.9479 0.79296 0.0
C1085 C 0.77982 0.96831 0.8123 0.0
H1086 H 0.86155 0.92223 0.79421 0.0
H1087 H 0.80209 0.93829 0.76485 0.0
S1088 S 0.78873 0.00497 0.90876 0.0
N1089 N 0.82936 0.9848 0.90043 0.0
N1090 N 0.76396 -0.00026 0.87034 0.0
C1091 C 0.7886 0.98083 0.84853 0.0
C1092 C 0.82422 0.97303 0.86481 0.0
C1093 C 0.24951 0.8957 0.3879 0.0
C1094 C 0.2293 0.90622 0.35579 0.0
C1095 C 0.26384 0.9229 0.41186 0.0
C1096 C 0.25828 0.96098 0.40393 0.0
H1097 H 0.25083 0.86667 0.39657 0.0
H1098 H 0.27601 0.91418 0.43825 0.0
S1099 S 0.21507 0.00216 0.31906 0.0
N1100 N 0.21043 0.95668 0.31405 0.0
N1101 N 0.23728 0.00768 0.35901 0.0
C1102 C 0.24221 0.9715 0.36973 0.0
C1103 C 0.22777 0.94404 0.34552 0.0
C1104 C 0.14585 0.47518 0.64115 0.0
C1105 C 0.11426 0.46669 0.66293 0.0
C1106 C 0.18157 0.47313 0.65653 0.0
C1107 C 0.18696 0.46239 0.69411 0.0
H1108 H 0.14317 0.48254 0.61182 0.0
H1109 H 0.20519 0.48011 0.63882 0.0
S1110 S 0.11311 0.43911 0.76335 0.0
N1111 N 0.09036 0.4487 0.72432 0.0
N1112 N 0.15776 0.44429 0.75304 0.0
C1113 C 0.15563 0.45407 0.71626 0.0
C1114 C 0.11922 0.45664 0.70077 0.0
C1115 C 0.71732 0.54737 0.62829 0.0
C1116 C 0.71994 0.58562 0.62004 0.0
C1117 C 0.73212 0.52091 0.60401 0.0
C1118 C 0.75004 0.53173 0.57064 0.0
H1119 H 0.70156 0.53773 0.65243 0.0
H1120 H 0.72709 0.49168 0.61 0.0
S1121 S 0.76818 0.62825 0.53836 0.0
N1122 N 0.74487 0.63318 0.57796 0.0
N1123 N 0.77317 0.58289 0.53234 0.0
C1124 C 0.75597 0.56976 0.56369 0.0
C1125 C 0.74074 0.59694 0.58847 0.0
C1126 C 0.85009 0.07691 0.66807 0.0
C1127 C 0.84366 0.09425 0.63318 0.0
C1128 C 0.82041 0.0673 0.69169 0.0
C1129 C 0.78347 0.07413 0.6808 0.0
H1130 H 0.87823 0.07006 0.67687 0.0
H1131 H 0.8263 0.0529 0.71783 0.0
S1132 S 0.7516 0.11795 0.59223 0.0
N1133 N 0.79765 0.11821 0.58918 0.0
N1134 N 0.74159 0.09873 0.63326 0.0
C1135 C 0.77653 0.09187 0.64639 0.0
C1136 C 0.8068 0.10239 0.62262 0.0
C1137 C 0.27177 0.9467 0.63714 0.0
C1138 C 0.25831 0.91139 0.62668 0.0
C1139 C 0.26581 0.9784 0.61471 0.0
C1140 C 0.24524 0.97623 0.58154 0.0
H1141 H 0.29029 0.94917 0.66087 0.0
H1142 H 0.27984 0.00407 0.62183 0.0
S1143 S 0.1977 0.89225 0.5455 0.0
N1144 N 0.21914 0.87734 0.5837 0.0
N1145 N 0.20662 0.93735 0.54213 0.0
C1146 C 0.22752 0.94227 0.5733 0.0
C1147 C 0.23423 0.90968 0.59587 0.0
C1148 C 0.8436 0.16405 0.51868 0.0
C1149 C 0.88247 0.16917 0.51486 0.0
C1150 C 0.81944 0.19419 0.52624 0.0
C1151 C 0.83318 0.23069 0.53028 0.0
H1152 H 0.83168 0.13657 0.51542 0.0
H1153 H 0.78962 0.18923 0.52644 0.0
S1154 S 0.93221 0.25963 0.5251 0.0
N1155 N 0.93331 0.21433 0.51747 0.0
N1156 N 0.88781 0.27013 0.53157 0.0
C1157 C 0.87187 0.23601 0.52792 0.0
C1158 C 0.89646 0.20564 0.51998 0.0
C1159 C 0.81071 0.83047 0.94115 0.0
C1160 C 0.8431 0.84155 0.96021 0.0
C1161 C 0.8001 0.79309 0.93938 0.0
C1162 C 0.82118 0.76481 0.95697 0.0
H1163 H 0.79401 0.85093 0.9261 0.0
H1164 H 0.77466 0.78658 0.92457 0.0
S1165 S 0.90805 0.77908 0.01189 0.0
N1166 N 0.89558 0.82147 -0.00163 0.0
N1167 N 0.8763 0.75084 0.99469 0.0
C1168 C 0.85356 0.77556 0.97671 0.0
C1169 C 0.86409 0.81395 0.97882 0.0
C1170 C 0.02945 0.84423 0.26927 0.0
C1171 C 0.06534 0.85551 0.2577 0.0
C1172 C -0.00213 0.86539 0.26015 0.0
C1173 C 0.00114 0.89823 0.23876 0.0
H1174 H 0.02619 0.82116 0.28884 0.0
H1175 H 0.97144 0.85817 0.27314 0.0
S1176 S 0.08762 0.93434 0.19396 0.0
N1177 N 0.10149 0.89729 0.21806 0.0
N1178 N 0.04196 0.93703 0.20018 0.0
C1179 C 0.03601 0.90651 0.22224 0.0
C1180 C 0.06832 0.88504 0.2319 0.0
C1181 C 0.10414 0.67613 0.00474 0.0
C1182 C 0.11502 0.6394 -0.00305 0.0
C1183 C 0.13037 0.70477 0.00478 0.0
C1184 C 0.16815 0.6975 -0.00319 0.0
H1185 H 0.07478 0.6834 0.0064 0.0
H1186 H 0.12063 0.73312 0.00873 0.0
S1187 S 0.212 0.60471 0.98566 0.0
N1188 N 0.1669 0.59606 0.98987 0.0
N1189 N 0.21631 0.65044 0.98874 0.0
C1190 C 0.18001 0.66046 0.99356 0.0
C1191 C 0.15335 0.63113 0.99453 0.0
C1192 C 0.41162 0.09606 0.74242 0.0
C1193 C 0.41813 0.1257 0.76705 0.0
C1194 C 0.44152 0.07493 0.72807 0.0
C1195 C 0.47854 0.08261 0.73844 0.0
H1196 H 0.38338 0.08687 0.73714 0.0
H1197 H 0.43529 0.04993 0.71256 0.0
S1198 S 0.51006 0.16139 0.79643 0.0
N1199 N 0.4642 0.16547 0.79579 0.0
N1200 N 0.51984 0.1247 0.77061 0.0
C1201 C 0.4852 0.11456 0.75965 0.0
C1202 C 0.45508 0.13636 0.7736 0.0
C1203 C 0.65337 0.84384 0.01043 0.0
C1204 C 0.66396 0.86753 0.03925 0.0
C1205 C 0.67269 0.8107 0.00426 0.0
C1206 C 0.70325 0.79996 0.02684 0.0
H1207 H 0.62795 0.84898 0.99492 0.0
H1208 H 0.66219 0.7926 0.98268 0.0
S1209 S 0.74604 0.85686 0.10125 0.0
N1210 N 0.70965 0.88156 0.08702 0.0
N1211 N 0.74648 0.81891 0.07547 0.0
C1212 C 0.71621 0.8253 0.05349 0.0
C1213 C 0.69641 0.85922 0.05966 0.0
C1214 C 0.11046 0.05868 0.25386 0.0
C1215 C 0.11107 0.09744 0.24727 0.0
C1216 C 0.07686 0.0402 0.26181 0.0
C1217 C 0.04293 0.05993 0.26272 0.0
H1218 H 0.13542 0.04214 0.24928 0.0
H1219 H 0.07701 0.01004 0.26411 0.0
S1220 S 0.03012 0.16192 0.25218 0.0
N1221 N 0.07547 0.15527 0.24671 0.0
N1222 N 0.01219 0.12026 0.26053 0.0
C1223 C 0.04357 0.09887 0.25946 0.0
C1224 C 0.07784 0.11778 0.25228 0.0
C1225 C 0.94111 0.34525 0.22618 0.0
C1226 C 0.90345 0.35565 0.22288 0.0
C1227 C 0.96687 0.36917 0.24256 0.0
C1228 C 0.95568 0.40409 0.25608 0.0
H1229 H 0.95116 0.31965 0.21376 0.0
H1230 H -0.00381 0.36161 0.24194 0.0
S1231 S 0.86009 0.44327 0.25653 0.0
N1232 N 0.85581 0.40221 0.23653 0.0
N1233 N 0.90461 0.447 0.26772 0.0
C1234 C 0.91779 0.41363 0.25565 0.0
C1235 C 0.89147 0.38936 0.23887 0.0
C1236 C 0.17527 0.17605 0.87199 0.0
C1237 C 0.18597 0.18595 0.83539 0.0
C1238 C 0.13787 0.18015 0.884 0.0
C1239 C 0.10994 0.19486 0.86001 0.0
H1240 H 0.19612 0.16682 0.89192 0.0
H1241 H 0.13119 0.17303 0.91275 0.0
S1242 S 0.12425 0.22265 0.76049 0.0
N1243 N 0.16573 0.20856 0.77462 0.0
N1244 N 0.0966 0.21765 0.79716 0.0
C1245 C 0.12061 0.20375 0.82304 0.0
C1246 C 0.15826 0.19901 0.8108 0.0
C1247 C 0.42758 0.5893 0.42018 0.0
C1248 C 0.43252 0.55605 0.40023 0.0
C1249 C 0.44351 0.62277 0.40782 0.0
C1250 C 0.46503 0.62452 0.37483 0.0
H1251 H 0.41383 0.58882 0.44723 0.0
H1252 H 0.44021 0.64703 0.4253 0.0
S1253 S 0.47966 0.54668 0.30841 0.0
N1254 N 0.45562 0.52782 0.34323 0.0
N1255 N 0.48524 0.59096 0.3193 0.0
C1256 C 0.46703 0.5922 0.35266 0.0
C1257 C 0.45061 0.55799 0.36539 0.0
C1258 C 0.81154 0.32008 0.85 0.0
C1259 C 0.79145 0.28652 0.85063 0.0
C1260 C 0.84951 0.32058 0.85954 0.0
C1261 C 0.86843 0.2876 0.87016 0.0
H1262 H 0.7991 0.34523 0.83843 0.0
H1263 H 0.86504 0.34606 0.85471 0.0
S1264 S 0.82562 0.19463 0.88508 0.0
N1265 N 0.79106 0.22125 0.8698 0.0
N1266 N 0.86245 0.22205 0.88707 0.0
C1267 C 0.84729 0.25509 0.87573 0.0
C1268 C 0.80874 0.25456 0.86596 0.0
C1269 C 0.49052 0.94289 0.36239 0.0
C1270 C 0.52669 0.9541 0.37262 0.0
C1271 C 0.48192 0.90519 0.35791 0.0
C1272 C 0.50937 0.87766 0.36287 0.0
H1273 H 0.46781 0.96296 0.3619 0.0
H1274 H 0.45294 0.89733 0.35458 0.0
S1275 S 0.6097 0.89281 0.3817 0.0
N1276 N 0.59127 0.93513 0.38146 0.0
N1277 N 0.57511 0.86408 0.37232 0.0
C1278 C 0.54656 0.88878 0.36782 0.0
C1279 C 0.55531 0.92724 0.37274 0.0
C1280 C 0.157 0.82436 0.6354 0.0
C1281 C 0.17944 0.7921 0.63673 0.0
C1282 C 0.11918 0.82212 0.6249 0.0
C1283 C 0.10305 0.78752 0.6163 0.0
H1284 H 0.16798 0.85078 0.64467 0.0
H1285 H 0.10212 0.84713 0.62515 0.0
S1286 S 0.15151 0.69653 0.60982 0.0
N1287 N 0.18397 0.72578 0.62378 0.0
N1288 N 0.11306 0.72167 0.60527 0.0
C1289 C 0.12582 0.75582 0.61519 0.0
C1290 C 0.16406 0.75813 0.62507 0.0
C1291 C 0.03725 0.5643 0.612 0.0
C1292 C 0.00844 0.54059 0.60023 0.0
C1293 C 0.02949 0.60141 0.62176 0.0
C1294 C 0.99279 0.6153 0.62017 0.0
H1295 H 0.06614 0.55546 0.60994 0.0
H1296 H 0.05262 0.6203 0.62585 0.0
S1297 S 0.90717 0.56148 0.60063 0.0
N1298 N 0.94156 0.53123 0.59513 0.0
N1299 N 0.92721 0.60084 0.61295 0.0
C1300 C 0.96362 0.59019 0.61384 0.0
C1301 C 0.97141 0.55279 0.60373 0.0
C1302 C 0.80232 0.72065 0.61031 0.0
C1303 C 0.78624 0.69091 0.6304 0.0
C1304 C 0.84103 0.72317 0.60661 0.0
C1305 C 0.86412 0.69626 0.62348 0.0
H1306 H 0.78535 0.74433 0.60179 0.0
H1307 H 0.85279 0.7487 0.59525 0.0
S1308 S 0.83459 0.60879 0.67085 0.0
N1309 N 0.79525 0.63034 0.65996 0.0
N1310 N 0.86829 0.63583 0.65465 0.0
C1311 C 0.84803 0.66376 0.63856 0.0
C1312 C 0.80869 0.66078 0.64142 0.0
C1313 C 0.96808 0.94019 0.61444 0.0
C1314 C 0.94618 0.94484 0.58234 0.0
C1315 C 0.97689 0.90445 0.62805 0.0
C1316 C 0.96407 0.87219 0.60993 0.0
H1317 H 0.98059 0.96417 0.62757 0.0
H1318 H -0.00483 0.90222 0.65203 0.0
S1319 S 0.90073 0.87069 0.52784 0.0
N1320 N 0.90886 0.91537 0.53473 0.0
N1321 N 0.92401 0.84807 0.56086 0.0
C1322 C 0.93976 0.87689 0.57931 0.0
C1323 C 0.9312 0.91329 0.56534 0.0
C1324 C 0.84866 0.1675 0.1693 0.0
C1325 C 0.82837 0.18485 0.19815 0.0
C1326 C 0.86377 0.13141 0.17418 0.0
C1327 C 0.85847 0.11136 0.20784 0.0
H1328 H 0.85259 0.18166 0.14273 0.0
H1329 H 0.87903 0.11889 0.15129 0.0
S1330 S 0.81025 0.14477 0.29316 0.0
N1331 N 0.80602 0.17931 0.26266 0.0
N1332 N 0.83369 0.11204 0.27107 0.0
C1333 C 0.83887 0.12854 0.237 0.0
C1334 C 0.824 0.16512 0.23235 0.0
C1335 C 0.43013 0.86596 0.06442 0.0
C1336 C 0.45786 0.86476 0.03657 0.0
C1337 C 0.39233 0.86176 0.05501 0.0
C1338 C 0.38163 0.85598 0.01769 0.0
H1339 H 0.43696 0.87559 0.09218 0.0
H1340 H 0.37134 0.868 0.07595 0.0
S1341 S 0.44452 0.83999 0.93728 0.0
N1342 N 0.47282 0.84897 0.97241 0.0
N1343 N 0.40181 0.84136 0.95482 0.0
C1344 C 0.40944 0.84867 0.99119 0.0
C1345 C 0.44775 0.85278 0.00073 0.0
C1346 C 0.18246 0.33616 0.19338 0.0
C1347 C 0.15849 0.30547 0.18905 0.0
C1348 C 0.16848 0.37199 0.19924 0.0
C1349 C 0.12994 0.37862 0.20048 0.0
H1350 H 0.21245 0.33208 0.19428 0.0
H1351 H 0.18805 0.39437 0.20397 0.0
S1352 S 0.05528 0.30822 0.1874 0.0
N1353 N 0.09456 0.28418 0.18421 0.0
N1354 N 0.06774 0.35196 0.194 0.0
C1355 C 0.10555 0.34862 0.19349 0.0
C1356 C 0.11996 0.31189 0.18795 0.0
C1357 C 0.58394 0.55764 0.02517 0.0
C1358 C 0.5526 0.58143 0.02705 0.0
C1359 C 0.62007 0.57178 0.02034 0.0
C1360 C 0.62624 0.61029 0.01641 0.0
H1361 H 0.58042 0.52766 0.02651 0.0
H1362 H 0.64307 0.55222 0.01818 0.0
S1363 S 0.55371 0.68462 0.02237 0.0
N1364 N 0.53019 0.64535 0.0272 0.0
N1365 N 0.59793 0.67228 0.0176 0.0
C1366 C 0.59521 0.63453 0.01986 0.0
C1367 C 0.55844 0.62003 0.02539 0.0
C1368 C 0.86641 0.81179 0.2739 0.0
C1369 C 0.84636 0.79371 0.30272 0.0
C1370 C 0.87361 0.85018 0.27518 0.0
C1371 C 0.86025 0.87173 0.30501 0.0
H1372 H 0.87413 0.79674 0.24891 0.0
H1373 H 0.88583 0.86357 0.25076 0.0
S1374 S 0.81266 0.83663 0.39051 0.0
N1375 N 0.81807 0.79938 0.36427 0.0
N1376 N 0.83194 0.87137 0.36682 0.0
C1377 C 0.84429 0.85318 0.33597 0.0
C1378 C 0.83708 0.81414 0.33474 0.0
C1379 C 0.06084 0.87277 0.96538 0.0
C1380 C 0.05575 0.91027 0.95462 0.0
C1381 C 0.09587 0.85964 0.97759 0.0
C1382 C 0.12713 0.88343 0.97913 0.0
H1383 H 0.03724 0.85399 0.96641 0.0
H1384 H 0.09829 0.83075 0.98642 0.0
S1385 S 0.12838 0.98348 0.95129 0.0
N1386 N 0.08504 0.97035 0.94397 0.0
N1387 N 0.15035 0.94598 0.96691 0.0
C1388 C 0.1225 0.9205 0.96666 0.0
C1389 C 0.087 0.9338 0.95436 0.0
C1390 C 0.13023 0.67391 0.32682 0.0
C1391 C 0.12339 0.69409 0.29369 0.0
C1392 C 0.12592 0.63513 0.32771 0.0
C1393 C 0.11406 0.61606 0.29576 0.0
H1394 H 0.14365 0.68717 0.35027 0.0
H1395 H 0.13628 0.61967 0.35176 0.0
S1396 S 0.08191 0.65827 0.20657 0.0
N1397 N 0.09632 0.69389 0.23154 0.0
N1398 N 0.08763 0.62093 0.23342 0.0
C1399 C 0.1011 0.6368 0.26496 0.0
C1400 C 0.10598 0.67609 0.26385 0.0
C1401 C 0.94483 0.63306 0.97553 0.0
C1402 C 0.95456 0.61731 0.94084 0.0
C1403 C 0.90736 0.63626 0.98655 0.0
C1404 C 0.87882 0.62476 0.96268 0.0
H1405 H 0.96617 0.63736 -0.00356 0.0
H1406 H 0.90104 0.64328 0.01529 0.0
S1407 S 0.88947 0.5925 0.86521 0.0
N1408 N 0.93272 0.59823 0.87993 0.0
N1409 N 0.86213 0.60505 0.90024 0.0
C1410 C 0.88806 0.61538 0.92573 0.0
C1411 C 0.92619 0.61184 0.91466 0.0
C1412 C 0.18315 0.823 0.15417 0.0
C1413 C 0.18519 0.84584 0.18555 0.0
C1414 C 0.19198 0.83678 0.11872 0.0
C1415 C 0.20358 0.87381 0.11338 0.0
H1416 H 0.17663 0.79362 0.15734 0.0
H1417 H 0.19028 0.81782 0.09576 0.0
S1418 S 0.20902 0.94609 0.18659 0.0
N1419 N 0.19613 0.9079 0.20942 0.0
N1420 N 0.21271 0.93434 0.14214 0.0
C1421 C 0.2029 0.89782 0.14428 0.0
C1422 C 0.19381 0.88364 0.18063 0.0
C1423 C 0.18468 0.13727 0.31997 0.0
C1424 C 0.21204 0.16116 0.30491 0.0
C1425 C 0.18601 0.12572 0.35758 0.0
C1426 C 0.21439 0.13816 0.38155 0.0
H1427 H 0.16251 0.12687 0.30255 0.0
H1428 H 0.16491 0.10658 0.36782 0.0
S1429 S 0.29229 0.20179 0.35624 0.0
N1430 N 0.26795 0.19766 0.3175 0.0
N1431 N 0.27033 0.17586 0.38755 0.0
C1432 C 0.24139 0.16272 0.36704 0.0
C1433 C 0.24026 0.17421 0.3289 0.0
C1434 C 0.36885 0.57473 0.9118 0.0
C1435 C 0.36737 0.55406 0.94533 0.0
C1436 C 0.36403 0.55712 0.87734 0.0
C1437 C 0.35807 0.51841 0.8757 0.0
H1438 H 0.37946 0.60299 0.91183 0.0
H1439 H 0.37016 0.5728 0.85199 0.0
S1440 S 0.34144 0.45463 0.95577 0.0
N1441 N 0.35019 0.49535 0.975 0.0
N1442 N 0.34322 0.46182 0.91008 0.0
C1443 C 0.35054 0.49895 0.90892 0.0
C1444 C 0.3541 0.5172 0.94395 0.0
C1445 C 0.76426 0.37143 0.29979 0.0
C1446 C 0.79363 0.35152 0.28281 0.0
C1447 C 0.76462 0.37867 0.33817 0.0
C1448 C 0.79434 0.36604 0.36039 0.0
H1449 H 0.73924 0.37816 0.28411 0.0
H1450 H 0.73952 0.38969 0.35105 0.0
S1451 S 0.8819 0.32157 0.32794 0.0
N1452 N 0.85598 0.32549 0.29002 0.0
N1453 N 0.85719 0.34054 0.36189 0.0
C1454 C 0.8263 0.35166 0.34272 0.0
C1455 C 0.82578 0.34381 0.30384 0.0
C1456 C 0.11665 0.4228 0.43755 0.0
C1457 C 0.1223 0.45242 0.46233 0.0
C1458 C 0.11895 0.42854 0.39856 0.0
C1459 C 0.12781 0.46378 0.38314 0.0
H1460 H 0.10531 0.39667 0.44789 0.0
H1461 H 0.10961 0.40647 0.38042 0.0
S1462 S 0.15358 0.54773 0.43619 0.0
N1463 N 0.1436 0.51624 0.46876 0.0
N1464 N 0.14842 0.52661 0.39572 0.0
C1465 C 0.13876 0.49186 0.40767 0.0
C1466 C 0.13609 0.48619 0.44727 0.0
C1467 C 0.28026 0.10672 0.68026 0.0
C1468 C 0.30899 0.12675 0.69758 0.0
C1469 C 0.28116 0.1001 0.64175 0.0
C1470 C 0.3104 0.11432 0.61965 0.0
H1471 H 0.25521 0.0996 0.6958 0.0
H1472 H 0.25643 0.08885 0.62873 0.0
S1473 S 0.39634 0.16005 0.65316 0.0
N1474 N 0.37053 0.15421 0.69111 0.0
N1475 N 0.3724 0.14146 0.6187 0.0
C1476 C 0.34193 0.12882 0.63764 0.0
C1477 C 0.34106 0.13548 0.67679 0.0
C1478 C 0.42413 0.43477 0.58858 0.0
C1479 C 0.40161 0.43582 0.55642 0.0
C1480 C 0.41106 0.44806 0.6228 0.0
C1481 C 0.37486 0.46293 0.62625 0.0
H1482 H 0.45314 0.42628 0.5866 0.0
H1483 H 0.43019 0.44825 0.64618 0.0
S1484 S 0.30243 0.46484 0.55193 0.0
N1485 N 0.33993 0.44783 0.53112 0.0
N1486 N 0.31465 0.47231 0.59569 0.0
C1487 C 0.35083 0.46076 0.59509 0.0
C1488 C 0.3643 0.44707 0.56016 0.0
C1489 C 0.56352 0.03212 0.57458 0.0
C1490 C 0.58815 0.03608 0.54393 0.0
C1491 C 0.57669 0.02661 0.61115 0.0
C1492 C 0.61511 0.02425 0.61851 0.0
H1493 H 0.53361 0.03264 0.57014 0.0
H1494 H 0.55656 0.02299 0.63355 0.0
S1495 S 0.69133 0.03461 0.54799 0.0
N1496 N 0.65259 0.03828 0.52336 0.0
N1497 N 0.67787 0.02866 0.59185 0.0
C1498 C 0.64012 0.02945 0.5881 0.0
C1499 C 0.62654 0.03519 0.5509 0.0
C1500 C 0.66858 0.73371 0.34571 0.0
C1501 C 0.68484 0.69827 0.34025 0.0
C1502 C 0.63223 0.7377 0.35955 0.0
C1503 C 0.61066 0.7065 0.36919 0.0
H1504 H 0.68392 0.75884 0.33875 0.0
H1505 H 0.62085 0.76556 0.36266 0.0
S1506 S 0.63846 0.60756 0.3586 0.0
N1507 N 0.67533 0.63126 0.34399 0.0
N1508 N 0.60728 0.63894 0.37172 0.0
C1509 C 0.62639 0.67087 0.36458 0.0
C1510 C 0.66344 0.66671 0.34974 0.0
C1511 C 0.95723 0.04662 0.87266 0.0
C1512 C 0.93032 0.04577 0.90133 0.0
C1513 C 0.97344 0.08042 0.86084 0.0
C1514 C 0.9633 0.11468 0.87718 0.0
H1515 H 0.96826 0.02078 0.86162 0.0
H1516 H -0.00476 0.07937 0.83981 0.0
S1517 S 0.88866 0.12764 0.94839 0.0
N1518 N 0.89082 0.08207 0.94249 0.0
N1519 N 0.92006 0.14564 0.91959 0.0
C1520 C 0.93397 0.11431 0.90358 0.0
C1521 C 0.91773 0.07989 0.91569 0.0
C1522 C 0.30628 0.76068 0.35621 0.0
C1523 C 0.28913 0.79182 0.33915 0.0
C1524 C 0.34478 0.76005 0.36288 0.0
C1525 C 0.36722 0.79022 0.35179 0.0
H1526 H 0.2903 0.73566 0.36197 0.0
H1527 H 0.35745 0.73437 0.37297 0.0
S1528 S 0.33505 0.88059 0.3122 0.0
N1529 N 0.29665 0.85554 0.31652 0.0
N1530 N 0.36928 0.85389 0.32814 0.0
C1531 C 0.34992 0.82287 0.33835 0.0
C1532 C 0.31066 0.8238 0.33223 0.0
C1533 C 0.00097 0.43459 0.85885 0.0
C1534 C 0.03525 0.44635 0.87403 0.0
C1535 C 0.99256 0.39661 0.85526 0.0
C1536 C 0.01842 0.36915 0.86603 0.0
H1537 H 0.97885 0.45471 0.85377 0.0
H1538 H 0.96437 0.38877 0.84784 0.0
S1539 S 0.11487 0.38505 0.89927 0.0
N1540 N 0.09737 0.42744 0.89367 0.0
N1541 N 0.08167 0.356 0.88653 0.0
C1542 C 0.05447 0.38053 0.8763 0.0
C1543 C 0.06301 0.41926 0.88014 0.0
C1544 C 0.67323 0.29426 0.09735 0.0
C1545 C 0.68224 0.30743 0.13293 0.0
C1546 C 0.63581 0.29031 0.08687 0.0
C1547 C 0.6068 0.29862 0.11208 0.0
H1548 H 0.69496 0.28408 0.07889 0.0
H1549 H 0.62956 0.27797 0.06014 0.0
S1550 S 0.61655 0.34009 0.20581 0.0
N1551 N 0.65986 0.33347 0.19125 0.0
N1552 N 0.5895 0.3258 0.17156 0.0
C1553 C 0.61561 0.31488 0.14631 0.0
C1554 C 0.65352 0.3194 0.15672 0.0
C1555 C 0.49147 0.05052 0.12796 0.0
C1556 C 0.52596 0.03677 0.11519 0.0
C1557 C 0.48655 0.08856 0.13488 0.0
C1558 C 0.51595 0.11376 0.12902 0.0
H1559 H 0.46725 0.03251 0.12887 0.0
H1560 H 0.45854 0.09888 0.14007 0.0
S1561 S 0.61284 0.09099 0.10149 0.0
N1562 N 0.59092 0.05057 0.10139 0.0
N1563 N 0.58167 0.12201 0.11532 0.0
C1564 C 0.55162 0.09967 0.12126 0.0
C1565 C 0.55664 0.061 0.11392 0.0
C1566 C 0.31863 0.20979 0.11364 0.0
C1567 C 0.30098 0.18302 0.13634 0.0
C1568 C 0.35741 0.21074 0.11098 0.0
C1569 C 0.3793 0.18502 0.13116 0.0
H1570 H 0.30272 0.23268 0.10156 0.0
H1571 H 0.37012 0.23439 0.09682 0.0
S1572 S 0.34563 0.10348 0.18574 0.0
N1573 N 0.30728 0.1257 0.17263 0.0
N1574 N 0.38072 0.12734 0.16748 0.0
C1575 C 0.36175 0.15476 0.14904 0.0
C1576 C 0.32218 0.15368 0.15153 0.0
C1577 C 0.44088 0.40179 0.05389 0.0
C1578 C 0.44322 0.43529 0.07388 0.0
C1579 C 0.45176 0.36768 0.07 0.0
C1580 C 0.46584 0.36571 0.10666 0.0
H1581 H 0.43165 0.40203 0.02507 0.0
H1582 H 0.45022 0.34291 0.05304 0.0
S1583 S 0.47481 0.4451 0.17201 0.0
N1584 N 0.45866 0.46409 0.13305 0.0
N1585 N 0.47878 0.4001 0.16355 0.0
C1586 C 0.46669 0.39881 0.12759 0.0
C1587 C 0.45539 0.43353 0.11119 0.0
C1588 C 0.30339 0.64871 0.69595 0.0
C1589 C 0.32678 0.67979 0.69076 0.0
C1590 C 0.31812 0.61289 0.70231 0.0
C1591 C 0.35689 0.60677 0.70382 0.0
H1592 H 0.27335 0.65237 0.69635 0.0
H1593 H 0.29894 0.59002 0.70674 0.0
S1594 S 0.42997 0.67976 0.6953 0.0
N1595 N 0.39029 0.70275 0.68973 0.0
N1596 N 0.41841 0.63549 0.70086 0.0
C1597 C 0.38062 0.63774 0.69821 0.0
C1598 C 0.36547 0.67424 0.69191 0.0
C1599 C 0.94511 0.37039 0.48186 0.0
C1600 C 0.95657 0.37468 0.51928 0.0
C1601 C 0.90735 0.36662 0.47284 0.0
C1602 C 0.8801 0.36578 0.50098 0.0
H1603 H 0.96485 0.37431 0.45914 0.0
H1604 H 0.89917 0.36822 0.44371 0.0
S1605 S 0.89586 0.36562 0.603 0.0
N1606 N 0.93801 0.37043 0.58469 0.0
N1607 N 0.86701 0.36207 0.56737 0.0
C1608 C 0.89155 0.36407 0.53838 0.0
C1609 C 0.92998 0.36859 0.54769 0.0
C1610 C 0.6592 0.83013 0.73585 0.0
C1611 C 0.65632 0.80849 0.70335 0.0
C1612 C 0.65163 0.86822 0.73517 0.0
C1613 C 0.6402 0.88613 0.70213 0.0
H1614 H 0.66762 0.81762 0.76224 0.0
H1615 H 0.65363 0.8835 0.76107 0.0
S1616 S 0.62945 0.84321 0.6091 0.0
N1617 N 0.64302 0.80852 0.6367 0.0
N1618 N 0.62648 0.88026 0.63602 0.0
C1619 C 0.63679 0.86514 0.66944 0.0
C1620 C 0.64535 0.82625 0.66991 0.0
C1621 C 0.06466 0.12917 0.52639 0.0
C1622 C 0.05633 0.09119 0.52924 0.0
C1623 C 0.10168 0.14088 0.5216 0.0
C1624 C 0.13151 0.11497 0.51986 0.0
H1625 H 0.04239 0.14971 0.5257 0.0
H1626 H 0.10675 0.17048 0.51809 0.0
S1627 S 0.12355 0.01233 0.53157 0.0
N1628 N 0.08016 0.02783 0.53378 0.0
N1629 N 0.14973 0.04973 0.52572 0.0
C1630 C 0.12338 0.07703 0.52552 0.0
C1631 C 0.08573 0.06517 0.5299 0.0
C1632 C 0.34484 0.30707 0.83279 0.0
C1633 C 0.35468 0.28421 0.80271 0.0
C1634 C 0.35019 0.34575 0.83049 0.0
C1635 C 0.36586 0.36253 0.79826 0.0
H1636 H 0.32905 0.29579 0.85618 0.0
H1637 H 0.33812 0.36299 0.85215 0.0
S1638 S 0.40588 0.3133 0.71697 0.0
N1639 N 0.388 0.27983 0.74354 0.0
N1640 N 0.3983 0.35259 0.73953 0.0
C1641 C 0.38109 0.33932 0.77084 0.0
C1642 C 0.37526 0.30001 0.77293 0.0
C1643 C 0.56735 0.37888 0.43651 0.0
C1644 C 0.55646 0.41219 0.45406 0.0
C1645 C 0.60119 0.36093 0.44603 0.0
C1646 C 0.6247 0.37551 0.47371 0.0
H1647 H 0.54993 0.3669 0.4151 0.0
H1648 H 0.60935 0.33599 0.43121 0.0
S1649 S 0.6068 0.45855 0.53174 0.0
N1650 N 0.57104 0.45693 0.50292 0.0
N1651 N 0.63326 0.42257 0.5208 0.0
C1652 C 0.61343 0.4077 0.49235 0.0
C1653 C 0.57964 0.4262 0.48255 0.0
C1654 C 0.60791 0.17936 0.76271 0.0
C1655 C 0.62301 0.19598 0.79456 0.0
C1656 C 0.59897 0.14159 0.76308 0.0
C1657 C 0.60462 0.11982 0.79543 0.0
H1658 H 0.60765 0.19428 0.73618 0.0
H1659 H 0.59299 0.12844 0.73661 0.0
S1660 S 0.63385 0.15275 0.88834 0.0
N1661 N 0.63652 0.18995 0.86084 0.0
N1662 N 0.6177 0.11899 0.8619 0.0
C1663 C 0.61294 0.13775 0.82902 0.0
C1664 C 0.6229 0.17608 0.82849 0.0
C1665 C 0.42975 0.11742 0.41189 0.0
C1666 C 0.45817 0.12756 0.43667 0.0
C1667 C 0.39239 0.11698 0.42379 0.0
C1668 C 0.38255 0.12783 0.46021 0.0
H1669 H 0.43674 0.1037 0.38593 0.0
H1670 H 0.3718 0.10415 0.40597 0.0
S1671 S 0.44529 0.16811 0.53068 0.0
N1672 N 0.47306 0.15734 0.49536 0.0
N1673 N 0.40264 0.15701 0.51746 0.0
C1674 C 0.40971 0.14441 0.48244 0.0
C1675 C 0.4477 0.14475 0.47036 0.0
C1676 C 0.70757 0.30602 0.64958 0.0
C1677 C 0.69972 0.33033 0.67925 0.0
C1678 C 0.71212 0.31943 0.61302 0.0
C1679 C 0.70893 0.35767 0.60482 0.0
H1680 H 0.71081 0.27636 0.6548 0.0
H1681 H 0.71852 0.2997 0.5912 0.0
S1682 S 0.69171 0.43307 0.67336 0.0
N1683 N 0.69089 0.39429 0.69868 0.0
N1684 N 0.69879 0.41992 0.62981 0.0
C1685 C 0.70078 0.38229 0.63433 0.0
C1686 C 0.69628 0.36851 0.67162 0.0
C1687 C 0.70025 0.61493 0.81384 0.0
C1688 C 0.6991 0.65303 0.80498 0.0
C1689 C 0.70275 0.60296 0.85118 0.0
C1690 C 0.70504 0.62879 0.88055 0.0
H1691 H 0.70093 0.59443 0.79183 0.0
H1692 H 0.70469 0.57332 0.85692 0.0
S1693 S 0.69905 0.73176 0.87106 0.0
N1694 N 0.69731 0.71647 0.82772 0.0
N1695 N 0.70245 0.69413 0.89786 0.0
C1696 C 0.70233 0.66695 0.87178 0.0
C1697 C 0.69933 0.67903 0.83391 0.0
C1698 C 0.86626 0.07187 0.42498 0.0
C1699 C 0.86354 0.04604 0.45468 0.0
C1700 C 0.86487 0.05969 0.38787 0.0
C1701 C 0.85961 0.02177 0.38001 0.0
H1702 H 0.87625 0.09983 0.43017 0.0
H1703 H 0.87254 0.07903 0.36566 0.0
S1704 S 0.83702 0.94676 0.44786 0.0
N1705 N 0.84444 0.98386 0.47379 0.0
N1706 N 0.84205 0.96085 0.40399 0.0
C1707 C 0.84948 -0.00244 0.40915 0.0
C1708 C 0.85048 0.0101 0.44675 0.0
C1709 C 0.32411 0.82719 0.81492 0.0
C1710 C 0.29677 0.84378 0.79214 0.0
C1711 C 0.32204 0.83023 0.85395 0.0
C1712 C 0.29307 0.85058 0.87112 0.0
H1713 H 0.34436 0.80814 0.80301 0.0
H1714 H 0.34113 0.81376 0.87087 0.0
S1715 S 0.22023 0.90631 0.82281 0.0
N1716 N 0.24389 0.88623 0.78871 0.0
N1717 N 0.24078 0.89298 0.86205 0.0
C1718 C 0.26894 0.87159 0.8483 0.0
C1719 C 0.27059 0.86788 0.80866 0.0
C1720 C 0.61195 5e-05 0.93895 0.0
C1721 C 0.6062 0.96384 0.9534 0.0
C1722 C 0.62009 0.00599 0.901 0.0
C1723 C 0.62251 0.97592 0.87629 0.0
H1724 H 0.60663 0.02411 0.95628 0.0
H1725 H 0.61989 0.03435 0.89018 0.0
S1726 S 0.61636 0.87568 0.90127 0.0
N1727 N 0.60899 0.89743 0.94112 0.0
N1728 N 0.62399 0.90872 0.86963 0.0
C1729 C 0.62146 0.93957 0.89123 0.0
C1730 C 0.61334 0.93346 0.92996 0.0
C1731 C 0.83596 0.6339 0.17721 0.0
C1732 C 0.80447 0.62654 0.19946 0.0
C1733 C 0.83463 0.62861 0.13842 0.0
C1734 C 0.80196 0.61554 0.12113 0.0
H1735 H 0.85967 0.64834 0.18887 0.0
H1736 H 0.85752 0.63906 0.12147 0.0
S1737 S 0.71625 0.58285 0.16913 0.0
N1738 N 0.74312 0.59821 0.20307 0.0
N1739 N 0.7406 0.58835 0.13017 0.0
C1740 C 0.77282 0.60251 0.14396 0.0
C1741 C 0.77409 0.60807 0.18331 0.0
C1742 C 0.91832 0.9301 0.09512 0.0
C1743 C 0.89645 0.93162 0.06253 0.0
C1744 C 0.90557 0.94521 0.1287 0.0
C1745 C 0.87032 0.96246 0.13117 0.0
H1746 H 0.94684 0.91995 0.09382 0.0
H1747 H 0.92437 0.9449 0.15235 0.0
S1748 S 0.79941 0.96678 0.05544 0.0
N1749 N 0.83607 0.94678 0.03583 0.0
N1750 N 0.81135 0.97472 0.09921 0.0
C1751 C 0.84668 0.96079 0.09966 0.0
C1752 C 0.85984 0.94525 0.06534 0.0
C1753 C 0.10272 0.48932 0.05914 0.0
C1754 C 0.07984 0.5199 0.05002 0.0
C1755 C 0.11592 0.48378 0.09567 0.0
C1756 C 0.1059 0.50801 0.12488 0.0
H1757 H 0.11048 0.46947 0.03781 0.0
H1758 H 0.13382 0.45992 0.10114 0.0
S1759 S 0.04519 0.59164 0.11557 0.0
N1760 N 0.04716 0.57461 0.07283 0.0
N1761 N 0.07099 0.56362 0.14196 0.0
C1762 C 0.08244 0.53846 0.11618 0.0
C1763 C 0.06972 0.54458 0.07863 0.0
loop_
_geom_bond_atom_site_label_1
_geom_bond_atom_site_label_2
_geom_bond_distance
_geom_bond_site_symmetry_2
_ccdc_geom_bond_type
Zn0 O6 1.920 . S
Zn0 O12 1.898 . S
Zn0 O15 1.905 . S
Zn1 O9 1.905 . S
Zn1 O10 1.898 . S
Zn1 O18 1.920 . S
Zn2 O5 2.080 . S
Zn2 O8 2.114 . S
Zn2 O11 2.120 . S
Zn2 O13 2.120 . S
Zn2 O14 2.114 . S
Zn2 O17 2.080 . S
C3 O8 1.166 . S
C3 O9 1.182 . S
C4 O10 1.167 . S
C4 O11 1.299 . S
O5 Zn2 2.080 . S
O5 C19 1.305 . S
O6 Zn0 1.920 . S
O6 C19 1.234 . S
C7 O12 1.167 . S
C7 O13 1.299 . S
O8 Zn2 2.114 . S
O8 C3 1.166 . S
O9 Zn1 1.905 . S
O9 C3 1.182 . S
O10 Zn1 1.898 . S
O10 C4 1.167 . S
O11 Zn2 2.120 . S
O11 C4 1.299 . S
O12 Zn0 1.898 . S
O12 C7 1.167 . S
O13 Zn2 2.120 . S
O13 C7 1.299 . S
O14 Zn2 2.114 . S
O14 C16 1.166 . S
O15 Zn0 1.905 . S
O15 C16 1.182 . S
C16 O14 1.166 . S
C16 O15 1.182 . S
O17 Zn2 2.080 . S
O17 C20 1.305 . S
O18 Zn1 1.920 . S
O18 C20 1.234 . S
C19 O5 1.305 . S
C19 O6 1.234 . S
C20 O17 1.305 . S
C20 O18 1.234 . S
Zn21 O27 1.920 . S
Zn21 O33 1.898 . S
Zn21 O36 1.905 . S
Zn22 O30 1.905 . S
Zn22 O31 1.898 . S
Zn22 O39 1.920 1_554 S
Zn23 O26 2.080 . S
Zn23 O29 2.114 . S
Zn23 O32 2.120 . S
Zn23 O34 2.120 . S
Zn23 O35 2.114 . S
Zn23 O38 2.080 . S
C24 O29 1.166 . S
C24 O30 1.182 . S
C25 O31 1.167 . S
C25 O32 1.299 . S
O26 Zn23 2.080 . S
O26 C40 1.305 . S
O27 Zn21 1.920 . S
O27 C40 1.234 . S
C28 O33 1.167 . S
C28 O34 1.299 . S
O29 Zn23 2.114 . S
O29 C24 1.166 . S
O30 Zn22 1.905 . S
O30 C24 1.182 . S
O31 Zn22 1.898 . S
O31 C25 1.167 . S
O32 Zn23 2.120 . S
O32 C25 1.299 . S
O33 Zn21 1.898 . S
O33 C28 1.167 . S
O34 Zn23 2.120 . S
O34 C28 1.299 . S
O35 Zn23 2.114 . S
O35 C37 1.166 . S
O36 Zn21 1.905 . S
O36 C37 1.182 . S
C37 O35 1.166 . S
C37 O36 1.182 . S
O38 Zn23 2.080 . S
O38 C41 1.305 1_554 S
O39 Zn22 1.920 1_556 S
O39 C41 1.234 . S
C40 O26 1.305 . S
C40 O27 1.234 . S
C41 O38 1.305 1_556 S
C41 O39 1.234 . S
Zn42 O48 1.920 . S
Zn42 O54 1.898 . S
Zn42 O57 1.905 . S
Zn43 O51 1.905 . S
Zn43 O52 1.898 . S
Zn43 O60 1.920 . S
Zn44 O47 2.080 . S
Zn44 O50 2.114 . S
Zn44 O53 2.120 . S
Zn44 O55 2.120 . S
Zn44 O56 2.114 . S
Zn44 O59 2.080 . S
C45 O50 1.166 . S
C45 O51 1.182 . S
C46 O52 1.167 . S
C46 O53 1.299 . S
O47 Zn44 2.080 . S
O47 C61 1.305 . S
O48 Zn42 1.920 . S
O48 C61 1.234 . S
C49 O54 1.167 . S
C49 O55 1.299 . S
O50 Zn44 2.114 . S
O50 C45 1.166 . S
O51 Zn43 1.905 . S
O51 C45 1.182 . S
O52 Zn43 1.898 . S
O52 C46 1.167 . S
O53 Zn44 2.120 . S
O53 C46 1.299 . S
O54 Zn42 1.898 . S
O54 C49 1.167 . S
O55 Zn44 2.120 . S
O55 C49 1.299 . S
O56 Zn44 2.114 . S
O56 C58 1.166 . S
O57 Zn42 1.905 . S
O57 C58 1.182 . S
C58 O56 1.166 . S
C58 O57 1.182 . S
O59 Zn44 2.080 . S
O59 C62 1.305 . S
O60 Zn43 1.920 . S
O60 C62 1.234 . S
C61 O47 1.305 . S
C61 O48 1.234 . S
C62 O59 1.305 . S
C62 O60 1.234 . S
Zn63 O69 1.920 1_554 S
Zn63 O75 1.898 . S
Zn63 O78 1.905 1_565 S
Zn64 O72 1.905 . S
Zn64 O73 1.898 . S
Zn64 O81 1.920 . S
Zn65 O68 2.080 . S
Zn65 O71 2.114 . S
Zn65 O74 2.120 . S
Zn65 O76 2.120 . S
Zn65 O77 2.114 . S
Zn65 O80 2.080 . S
C66 O71 1.166 . S
C66 O72 1.182 . S
C67 O73 1.167 . S
C67 O74 1.299 . S
O68 Zn65 2.080 . S
O68 C82 1.277 1_554 S
O69 Zn63 1.920 1_556 S
O69 C82 1.243 . S
C70 O75 1.167 . S
C70 O76 1.299 . S
O71 Zn65 2.114 . S
O71 C66 1.166 . S
O72 Zn64 1.905 . S
O72 C66 1.182 . S
O73 Zn64 1.898 . S
O73 C67 1.167 . S
O74 Zn65 2.120 . S
O74 C67 1.299 . S
O75 Zn63 1.898 . S
O75 C70 1.167 . S
O76 Zn65 2.120 . S
O76 C70 1.299 . S
O77 Zn65 2.114 . S
O77 C79 1.166 1_565 S
O78 Zn63 1.905 1_545 S
O78 C79 1.182 . S
C79 O77 1.166 1_545 S
C79 O78 1.182 . S
O80 Zn65 2.080 . S
O80 C83 1.305 . S
O81 Zn64 1.920 . S
O81 C83 1.234 . S
C82 O68 1.277 1_556 S
C82 O69 1.243 . S
C83 O80 1.305 . S
C83 O81 1.234 . S
Zn84 O90 1.920 . S
Zn84 O96 1.898 . S
Zn84 O99 1.905 . S
Zn85 O93 1.905 . S
Zn85 O94 1.898 . S
Zn85 O102 1.920 . S
Zn86 O89 2.080 . S
Zn86 O92 2.114 . S
Zn86 O95 2.120 . S
Zn86 O97 2.120 . S
Zn86 O98 2.114 . S
Zn86 O101 2.080 . S
C87 O92 1.166 . S
C87 O93 1.182 . S
C88 O94 1.167 . S
C88 O95 1.299 . S
O89 Zn86 2.080 . S
O89 C103 1.305 . S
O90 Zn84 1.920 . S
O90 C103 1.234 . S
C91 O96 1.167 . S
C91 O97 1.299 . S
O92 Zn86 2.114 . S
O92 C87 1.166 . S
O93 Zn85 1.905 . S
O93 C87 1.182 . S
O94 Zn85 1.898 . S
O94 C88 1.167 . S
O95 Zn86 2.120 . S
O95 C88 1.299 . S
O96 Zn84 1.898 . S
O96 C91 1.167 . S
O97 Zn86 2.120 . S
O97 C91 1.299 . S
O98 Zn86 2.114 . S
O98 C100 1.166 . S
O99 Zn84 1.905 . S
O99 C100 1.182 . S
C100 O98 1.166 . S
C100 O99 1.182 . S
O101 Zn86 2.080 . S
O101 C104 1.305 . S
O102 Zn85 1.920 . S
O102 C104 1.234 . S
C103 O89 1.305 . S
C103 O90 1.234 . S
C104 O101 1.305 . S
C104 O102 1.234 . S
Zn105 O111 1.920 . S
Zn105 O117 1.898 1_556 S
Zn105 O120 1.905 1_455 S
Zn106 O114 1.905 . S
Zn106 O115 1.898 . S
Zn106 O123 1.920 . S
Zn107 O110 2.080 . S
Zn107 O113 2.114 . S
Zn107 O116 2.120 . S
Zn107 O118 2.120 . S
Zn107 O119 2.114 . S
Zn107 O122 2.080 . S
C108 O113 1.166 . S
C108 O114 1.182 . S
C109 O115 1.167 . S
C109 O116 1.299 . S
O110 Zn107 2.080 . S
O110 C124 1.305 . S
O111 Zn105 1.920 . S
O111 C124 1.234 . S
C112 O117 1.167 . S
C112 O118 1.299 1_554 S
O113 Zn107 2.114 . S
O113 C108 1.166 . S
O114 Zn106 1.905 . S
O114 C108 1.182 . S
O115 Zn106 1.898 . S
O115 C109 1.167 . S
O116 Zn107 2.120 . S
O116 C109 1.299 . S
O117 Zn105 1.898 1_554 S
O117 C112 1.167 . S
O118 Zn107 2.120 . S
O118 C112 1.299 1_556 S
O119 Zn107 2.114 . S
O119 C121 1.172 . S
O120 Zn105 1.905 1_655 S
O120 C121 1.180 1_655 S
C121 O119 1.172 . S
C121 O120 1.180 1_455 S
O122 Zn107 2.080 . S
O122 C125 1.305 . S
O123 Zn106 1.920 . S
O123 C125 1.234 . S
C124 O110 1.305 . S
C124 O111 1.234 . S
C125 O122 1.305 . S
C125 O123 1.234 . S
Zn126 O132 1.920 . S
Zn126 O138 1.898 . S
Zn126 O141 1.905 . S
Zn127 O135 1.905 . S
Zn127 O136 1.898 . S
Zn127 O144 1.920 . S
Zn128 O131 2.080 . S
Zn128 O134 2.114 . S
Zn128 O137 2.120 . S
Zn128 O139 2.120 . S
Zn128 O140 2.114 . S
Zn128 O143 2.080 . S
C129 O134 1.166 . S
C129 O135 1.182 . S
C130 O136 1.167 . S
C130 O137 1.299 . S
O131 Zn128 2.080 . S
O131 C145 1.305 . S
O132 Zn126 1.920 . S
O132 C145 1.234 . S
C133 O138 1.167 . S
C133 O139 1.299 . S
O134 Zn128 2.114 . S
O134 C129 1.166 . S
O135 Zn127 1.905 . S
O135 C129 1.182 . S
O136 Zn127 1.898 . S
O136 C130 1.167 . S
O137 Zn128 2.120 . S
O137 C130 1.299 . S
O138 Zn126 1.898 . S
O138 C133 1.167 . S
O139 Zn128 2.120 . S
O139 C133 1.299 . S
O140 Zn128 2.114 . S
O140 C142 1.166 . S
O141 Zn126 1.905 . S
O141 C142 1.182 . S
C142 O140 1.166 . S
C142 O141 1.182 . S
O143 Zn128 2.080 . S
O143 C146 1.305 . S
O144 Zn127 1.920 . S
O144 C146 1.234 . S
C145 O131 1.305 . S
C145 O132 1.234 . S
C146 O143 1.305 . S
C146 O144 1.234 . S
Zn147 O153 1.920 1_565 S
Zn147 O159 1.898 1_556 S
Zn147 O162 1.905 1_655 S
Zn148 O156 1.905 . S
Zn148 O157 1.898 . S
Zn148 O165 1.920 . S
Zn149 O152 2.080 . S
Zn149 O155 2.114 . S
Zn149 O158 2.120 . S
Zn149 O160 2.120 . S
Zn149 O161 2.114 . S
Zn149 O164 2.080 . S
C150 O155 1.166 . S
C150 O156 1.182 . S
C151 O157 1.167 . S
C151 O158 1.299 . S
O152 Zn149 2.080 . S
O152 C166 1.305 1_565 S
O153 Zn147 1.920 1_545 S
O153 C166 1.234 . S
C154 O159 1.167 . S
C154 O160 1.299 1_554 S
O155 Zn149 2.114 . S
O155 C150 1.166 . S
O156 Zn148 1.905 . S
O156 C150 1.182 . S
O157 Zn148 1.898 . S
O157 C151 1.167 . S
O158 Zn149 2.120 . S
O158 C151 1.299 . S
O159 Zn147 1.898 1_554 S
O159 C154 1.167 . S
O160 Zn149 2.120 . S
O160 C154 1.299 1_556 S
O161 Zn149 2.114 . S
O161 C163 1.184 . S
O162 Zn147 1.905 1_455 S
O162 C163 1.175 1_455 S
C163 O161 1.184 . S
C163 O162 1.175 1_655 S
O164 Zn149 2.080 . S
O164 C167 1.305 . S
O165 Zn148 1.920 . S
O165 C167 1.234 . S
C166 O152 1.305 1_545 S
C166 O153 1.234 . S
C167 O164 1.305 . S
C167 O165 1.234 . S
Zn168 O174 1.920 . S
Zn168 O180 1.898 . S
Zn168 O183 1.905 . S
Zn169 O177 1.905 . S
Zn169 O178 1.898 . S
Zn169 O186 1.920 . S
Zn170 O173 2.080 . S
Zn170 O176 2.114 . S
Zn170 O179 2.120 . S
Zn170 O181 2.120 . S
Zn170 O182 2.114 . S
Zn170 O185 2.080 . S
C171 O176 1.166 . S
C171 O177 1.182 . S
C172 O178 1.167 . S
C172 O179 1.299 . S
O173 Zn170 2.080 . S
O173 C187 1.305 . S
O174 Zn168 1.920 . S
O174 C187 1.234 . S
C175 O180 1.167 . S
C175 O181 1.299 . S
O176 Zn170 2.114 . S
O176 C171 1.166 . S
O177 Zn169 1.905 . S
O177 C171 1.182 . S
O178 Zn169 1.898 . S
O178 C172 1.167 . S
O179 Zn170 2.120 . S
O179 C172 1.299 . S
O180 Zn168 1.898 . S
O180 C175 1.167 . S
O181 Zn170 2.120 . S
O181 C175 1.299 . S
O182 Zn170 2.114 . S
O182 C184 1.166 . S
O183 Zn168 1.905 . S
O183 C184 1.182 . S
C184 O182 1.166 . S
C184 O183 1.182 . S
O185 Zn170 2.080 . S
O185 C188 1.305 . S
O186 Zn169 1.920 . S
O186 C188 1.234 . S
C187 O173 1.305 . S
C187 O174 1.234 . S
C188 O185 1.305 . S
C188 O186 1.234 . S
Zn189 O195 1.920 . S
Zn189 O201 1.898 . S
Zn189 O204 1.905 . S
Zn190 O198 1.905 . S
Zn190 O199 1.898 . S
Zn190 O207 1.920 . S
Zn191 O194 2.080 . S
Zn191 O197 2.114 . S
Zn191 O200 2.120 . S
Zn191 O202 2.120 . S
Zn191 O203 2.114 . S
Zn191 O206 2.080 . S
C192 O197 1.166 . S
C192 O198 1.182 . S
C193 O199 1.167 . S
C193 O200 1.299 . S
O194 Zn191 2.080 . S
O194 C208 1.305 . S
O195 Zn189 1.920 . S
O195 C208 1.234 . S
C196 O201 1.167 . S
C196 O202 1.299 . S
O197 Zn191 2.114 . S
O197 C192 1.166 . S
O198 Zn190 1.905 . S
O198 C192 1.182 . S
O199 Zn190 1.898 . S
O199 C193 1.167 . S
O200 Zn191 2.120 . S
O200 C193 1.299 . S
O201 Zn189 1.898 . S
O201 C196 1.167 . S
O202 Zn191 2.120 . S
O202 C196 1.299 . S
O203 Zn191 2.114 . S
O203 C205 1.166 . S
O204 Zn189 1.905 . S
O204 C205 1.182 . S
C205 O203 1.166 . S
C205 O204 1.182 . S
O206 Zn191 2.080 . S
O206 C209 1.305 . S
O207 Zn190 1.920 . S
O207 C209 1.234 . S
C208 O194 1.305 . S
C208 O195 1.234 . S
C209 O206 1.305 . S
C209 O207 1.234 . S
Zn210 O216 1.920 . S
Zn210 O222 1.898 1_455 S
Zn210 O225 1.905 . S
Zn211 O219 1.905 . S
Zn211 O220 1.898 . S
Zn211 O228 1.920 . S
Zn212 O215 2.080 . S
Zn212 O218 2.114 . S
Zn212 O221 2.120 . S
Zn212 O223 2.120 . S
Zn212 O224 2.114 . S
Zn212 O227 2.080 . S
C213 O218 1.166 . S
C213 O219 1.182 . S
C214 O220 1.167 . S
C214 O221 1.299 . S
O215 Zn212 2.080 . S
O215 C229 1.305 . S
O216 Zn210 1.920 . S
O216 C229 1.234 . S
C217 O222 1.167 . S
C217 O223 1.299 1_655 S
O218 Zn212 2.114 . S
O218 C213 1.166 . S
O219 Zn211 1.905 . S
O219 C213 1.182 . S
O220 Zn211 1.898 . S
O220 C214 1.167 . S
O221 Zn212 2.120 . S
O221 C214 1.299 . S
O222 Zn210 1.898 1_655 S
O222 C217 1.167 . S
O223 Zn212 2.120 . S
O223 C217 1.299 1_455 S
O224 Zn212 2.114 . S
O224 C226 1.166 . S
O225 Zn210 1.905 . S
O225 C226 1.182 . S
C226 O224 1.166 . S
C226 O225 1.182 . S
O227 Zn212 2.080 . S
O227 C230 1.305 . S
O228 Zn211 1.920 . S
O228 C230 1.234 . S
C229 O215 1.305 . S
C229 O216 1.234 . S
C230 O227 1.305 . S
C230 O228 1.234 . S
Zn231 O237 1.920 . S
Zn231 O243 1.898 1_655 S
Zn231 O246 1.905 1_545 S
Zn232 O240 1.905 . S
Zn232 O241 1.898 . S
Zn232 O249 1.920 . S
Zn233 O236 2.080 . S
Zn233 O239 2.114 . S
Zn233 O242 2.120 . S
Zn233 O244 2.120 . S
Zn233 O245 2.114 . S
Zn233 O248 2.080 . S
C234 O239 1.166 . S
C234 O240 1.182 . S
C235 O241 1.167 . S
C235 O242 1.299 . S
O236 Zn233 2.080 . S
O236 C250 1.305 . S
O237 Zn231 1.920 . S
O237 C250 1.234 . S
C238 O243 1.167 . S
C238 O244 1.299 1_455 S
O239 Zn233 2.114 . S
O239 C234 1.166 . S
O240 Zn232 1.905 . S
O240 C234 1.182 . S
O241 Zn232 1.898 . S
O241 C235 1.167 . S
O242 Zn233 2.120 . S
O242 C235 1.299 . S
O243 Zn231 1.898 1_455 S
O243 C238 1.167 . S
O244 Zn233 2.120 . S
O244 C238 1.299 1_655 S
O245 Zn233 2.114 . S
O245 C247 1.160 1_545 S
O246 Zn231 1.905 1_565 S
O246 C247 1.185 . S
C247 O245 1.160 1_565 S
C247 O246 1.185 . S
O248 Zn233 2.080 . S
O248 C251 1.305 . S
O249 Zn232 1.920 . S
O249 C251 1.234 . S
C250 O236 1.305 . S
C250 O237 1.234 . S
C251 O248 1.305 . S
C251 O249 1.234 . S
Zn252 O258 1.920 . S
Zn252 O264 1.898 . S
Zn252 O267 1.905 . S
Zn253 O261 1.905 . S
Zn253 O262 1.898 . S
Zn253 O270 1.920 . S
Zn254 O257 2.080 . S
Zn254 O260 2.114 . S
Zn254 O263 2.120 . S
Zn254 O265 2.120 . S
Zn254 O266 2.114 . S
Zn254 O269 2.080 . S
C255 O260 1.166 . S
C255 O261 1.182 . S
C256 O262 1.167 . S
C256 O263 1.299 . S
O257 Zn254 2.080 . S
O257 C271 1.305 . S
O258 Zn252 1.920 . S
O258 C271 1.234 . S
C259 O264 1.167 . S
C259 O265 1.299 . S
O260 Zn254 2.114 . S
O260 C255 1.166 . S
O261 Zn253 1.905 . S
O261 C255 1.182 . S
O262 Zn253 1.898 . S
O262 C256 1.167 . S
O263 Zn254 2.120 . S
O263 C256 1.299 . S
O264 Zn252 1.898 . S
O264 C259 1.167 . S
O265 Zn254 2.120 . S
O265 C259 1.299 . S
O266 Zn254 2.114 . S
O266 C268 1.166 . S
O267 Zn252 1.905 . S
O267 C268 1.182 . S
C268 O266 1.166 . S
C268 O267 1.182 . S
O269 Zn254 2.080 . S
O269 C272 1.305 . S
O270 Zn253 1.920 . S
O270 C272 1.234 . S
C271 O257 1.305 . S
C271 O258 1.234 . S
C272 O269 1.305 . S
C272 O270 1.234 . S
Zn273 O279 1.920 . S
Zn273 O285 1.898 . S
Zn273 O288 1.905 . S
Zn274 O282 1.905 . S
Zn274 O283 1.898 . S
Zn274 O291 1.920 . S
Zn275 O278 2.080 . S
Zn275 O281 2.114 . S
Zn275 O284 2.120 . S
Zn275 O286 2.120 . S
Zn275 O287 2.114 . S
Zn275 O290 2.080 . S
C276 O281 1.166 . S
C276 O282 1.182 . S
C277 O283 1.167 . S
C277 O284 1.299 . S
O278 Zn275 2.080 . S
O278 C292 1.305 . S
O279 Zn273 1.920 . S
O279 C292 1.234 . S
C280 O285 1.167 . S
C280 O286 1.299 . S
O281 Zn275 2.114 . S
O281 C276 1.166 . S
O282 Zn274 1.905 . S
O282 C276 1.182 . S
O283 Zn274 1.898 . S
O283 C277 1.167 . S
O284 Zn275 2.120 . S
O284 C277 1.299 . S
O285 Zn273 1.898 . S
O285 C280 1.167 . S
O286 Zn275 2.120 . S
O286 C280 1.299 . S
O287 Zn275 2.114 . S
O287 C289 1.166 . S
O288 Zn273 1.905 . S
O288 C289 1.182 . S
C289 O287 1.166 . S
C289 O288 1.182 . S
O290 Zn275 2.080 . S
O290 C293 1.305 . S
O291 Zn274 1.920 . S
O291 C293 1.234 . S
C292 O278 1.305 . S
C292 O279 1.234 . S
C293 O290 1.305 . S
C293 O291 1.234 . S
Zn294 O300 1.920 . S
Zn294 O306 1.898 . S
Zn294 O309 1.905 . S
Zn295 O303 1.905 . S
Zn295 O304 1.898 . S
Zn295 O312 1.920 1_545 S
Zn296 O299 2.080 . S
Zn296 O302 2.114 . S
Zn296 O305 2.120 . S
Zn296 O307 2.120 . S
Zn296 O308 2.114 . S
Zn296 O311 2.080 . S
C297 O302 1.166 . S
C297 O303 1.182 . S
C298 O304 1.167 . S
C298 O305 1.299 . S
O299 Zn296 2.080 . S
O299 C313 1.305 . S
O300 Zn294 1.920 . S
O300 C313 1.234 . S
C301 O306 1.167 . S
C301 O307 1.299 . S
O302 Zn296 2.114 . S
O302 C297 1.166 . S
O303 Zn295 1.905 . S
O303 C297 1.182 . S
O304 Zn295 1.898 . S
O304 C298 1.167 . S
O305 Zn296 2.120 . S
O305 C298 1.299 . S
O306 Zn294 1.898 . S
O306 C301 1.167 . S
O307 Zn296 2.120 . S
O307 C301 1.299 . S
O308 Zn296 2.114 . S
O308 C310 1.166 . S
O309 Zn294 1.905 . S
O309 C310 1.182 . S
C310 O308 1.166 . S
C310 O309 1.182 . S
O311 Zn296 2.080 . S
O311 C314 1.305 1_545 S
O312 Zn295 1.920 1_565 S
O312 C314 1.234 . S
C313 O299 1.305 . S
C313 O300 1.234 . S
C314 O311 1.305 1_565 S
C314 O312 1.234 . S
Zn315 O321 1.920 . S
Zn315 O327 1.898 . S
Zn315 O330 1.905 . S
Zn316 O324 1.905 . S
Zn316 O325 1.898 . S
Zn316 O333 1.920 . S
Zn317 O320 2.080 . S
Zn317 O323 2.114 . S
Zn317 O326 2.120 . S
Zn317 O328 2.120 . S
Zn317 O329 2.114 . S
Zn317 O332 2.080 . S
C318 O323 1.166 . S
C318 O324 1.182 . S
C319 O325 1.167 . S
C319 O326 1.299 . S
O320 Zn317 2.080 . S
O320 C334 1.305 . S
O321 Zn315 1.920 . S
O321 C334 1.234 . S
C322 O327 1.167 . S
C322 O328 1.299 . S
O323 Zn317 2.114 . S
O323 C318 1.166 . S
O324 Zn316 1.905 . S
O324 C318 1.182 . S
O325 Zn316 1.898 . S
O325 C319 1.167 . S
O326 Zn317 2.120 . S
O326 C319 1.299 . S
O327 Zn315 1.898 . S
O327 C322 1.167 . S
O328 Zn317 2.120 . S
O328 C322 1.299 . S
O329 Zn317 2.114 . S
O329 C331 1.166 . S
O330 Zn315 1.905 . S
O330 C331 1.182 . S
C331 O329 1.166 . S
C331 O330 1.182 . S
O332 Zn317 2.080 . S
O332 C335 1.305 . S
O333 Zn316 1.920 . S
O333 C335 1.234 . S
C334 O320 1.305 . S
C334 O321 1.234 . S
C335 O332 1.305 . S
C335 O333 1.234 . S
C336 O363 1.312 . S
C336 O364 1.208 . S
C337 O358 1.331 1_554 S
C337 O361 1.244 1_554 S
C338 O360 1.264 . S
C338 O362 1.273 . S
Mg339 O341 1.936 1_455 S
Mg339 O348 2.081 1_455 S
Mg339 O350 2.023 . S
Mg339 O354 2.037 . S
Mg339 O363 2.291 . S
Mg340 O341 1.963 . S
Mg340 O351 1.942 . S
Mg340 O352 1.955 1_655 S
Mg340 O359 1.986 . S
O341 Mg339 1.936 1_655 S
O341 Mg340 1.963 . S
O341 Mg342 1.915 . S
Mg342 O341 1.915 . S
Mg342 O343 1.915 1_655 S
Mg342 O347 2.013 1_655 S
Mg342 O353 2.114 . S
Mg342 O357 2.013 . S
Mg342 O363 2.114 1_655 S
O343 Mg342 1.915 1_455 S
O343 Mg344 1.936 . S
O343 Mg345 1.963 1_455 S
Mg344 O343 1.936 . S
Mg344 O353 2.291 1_455 S
Mg344 O358 2.081 . S
Mg344 O360 2.023 1_455 S
Mg344 O364 2.031 . S
Mg345 O343 1.963 1_655 S
Mg345 O349 1.986 1_655 S
Mg345 O361 1.942 1_655 S
Mg345 O362 1.955 . S
C346 O357 1.191 . S
C346 O359 1.307 . S
O347 Mg342 2.013 1_455 S
O347 C366 1.191 . S
O348 Mg339 2.081 1_655 S
O348 C356 1.331 . S
O349 Mg345 1.986 1_455 S
O349 C366 1.307 . S
O350 Mg339 2.023 . S
O350 C365 1.264 . S
O351 Mg340 1.942 . S
O351 C356 1.244 . S
O352 Mg340 1.955 1_455 S
O352 C365 1.273 . S
O353 Mg342 2.114 . S
O353 Mg344 2.291 1_655 S
O353 C355 1.312 . S
O354 Mg339 2.037 . S
O354 C355 1.203 1_455 S
C355 O353 1.312 . S
C355 O354 1.203 1_655 S
C356 O348 1.331 . S
C356 O351 1.244 . S
O357 Mg342 2.013 . S
O357 C346 1.191 . S
O358 C337 1.331 1_556 S
O358 Mg344 2.081 . S
O359 Mg340 1.986 . S
O359 C346 1.307 . S
O360 C338 1.264 . S
O360 Mg344 2.023 1_655 S
O361 C337 1.244 1_556 S
O361 Mg345 1.942 1_455 S
O362 C338 1.273 . S
O362 Mg345 1.955 . S
O363 C336 1.312 . S
O363 Mg339 2.291 . S
O363 Mg342 2.114 1_455 S
O364 C336 1.208 . S
O364 Mg344 2.031 . S
C365 O350 1.264 . S
C365 O352 1.273 . S
C366 O347 1.191 . S
C366 O349 1.307 . S
C367 O394 1.312 . S
C367 O395 1.208 . S
C368 O389 1.331 . S
C368 O392 1.244 . S
C369 O391 1.264 . S
C369 O393 1.273 . S
Mg370 O372 1.936 . S
Mg370 O379 2.081 . S
Mg370 O381 2.023 . S
Mg370 O385 2.031 . S
Mg370 O394 2.291 . S
Mg371 O372 1.963 . S
Mg371 O382 1.942 . S
Mg371 O383 1.955 . S
Mg371 O390 1.986 . S
O372 Mg370 1.936 . S
O372 Mg371 1.963 . S
O372 Mg373 1.915 . S
Mg373 O372 1.915 . S
Mg373 O374 1.915 . S
Mg373 O378 2.013 . S
Mg373 O384 2.114 . S
Mg373 O388 2.013 . S
Mg373 O394 2.114 . S
O374 Mg373 1.915 . S
O374 Mg375 1.936 . S
O374 Mg376 1.963 . S
Mg375 O374 1.936 . S
Mg375 O384 2.291 . S
Mg375 O389 2.081 . S
Mg375 O391 2.023 . S
Mg375 O395 2.031 . S
Mg376 O374 1.963 . S
Mg376 O380 1.986 . S
Mg376 O392 1.942 . S
Mg376 O393 1.955 . S
C377 O388 1.191 . S
C377 O390 1.307 . S
O378 Mg373 2.013 . S
O378 C397 1.191 . S
O379 Mg370 2.081 . S
O379 C387 1.331 . S
O380 Mg376 1.986 . S
O380 C397 1.307 . S
O381 Mg370 2.023 . S
O381 C396 1.264 . S
O382 Mg371 1.942 . S
O382 C387 1.244 . S
O383 Mg371 1.955 . S
O383 C396 1.273 . S
O384 Mg373 2.114 . S
O384 Mg375 2.291 . S
O384 C386 1.312 . S
O385 Mg370 2.031 . S
O385 C386 1.208 . S
C386 O384 1.312 . S
C386 O385 1.208 . S
C387 O379 1.331 . S
C387 O382 1.244 . S
O388 Mg373 2.013 . S
O388 C377 1.191 . S
O389 C368 1.331 . S
O389 Mg375 2.081 . S
O390 Mg371 1.986 . S
O390 C377 1.307 . S
O391 C369 1.264 . S
O391 Mg375 2.023 . S
O392 C368 1.244 . S
O392 Mg376 1.942 . S
O393 C369 1.273 . S
O393 Mg376 1.955 . S
O394 C367 1.312 . S
O394 Mg370 2.291 . S
O394 Mg373 2.114 . S
O395 C367 1.208 . S
O395 Mg375 2.031 . S
C396 O381 1.264 . S
C396 O383 1.273 . S
C397 O378 1.191 . S
C397 O380 1.307 . S
C398 O425 1.312 . S
C398 O426 1.203 1_655 S
C399 O420 1.331 . S
C399 O423 1.244 . S
C400 O422 1.264 . S
C400 O424 1.273 . S
Mg401 O403 1.936 . S
Mg401 O410 2.081 . S
Mg401 O412 2.023 1_455 S
Mg401 O416 2.031 . S
Mg401 O425 2.291 1_455 S
Mg402 O403 1.963 1_655 S
Mg402 O413 1.942 1_655 S
Mg402 O414 1.955 . S
Mg402 O421 1.986 1_655 S
O403 Mg401 1.936 . S
O403 Mg402 1.963 1_455 S
O403 Mg404 1.915 1_455 S
Mg404 O403 1.915 1_655 S
Mg404 O405 1.915 . S
Mg404 O409 2.013 . S
Mg404 O415 2.114 1_655 S
Mg404 O419 2.013 1_655 S
Mg404 O425 2.114 . S
O405 Mg404 1.915 . S
O405 Mg406 1.936 1_655 S
O405 Mg407 1.963 . S
Mg406 O405 1.936 1_455 S
Mg406 O415 2.291 . S
Mg406 O420 2.081 1_455 S
Mg406 O422 2.023 . S
Mg406 O426 2.036 . S
Mg407 O405 1.963 . S
Mg407 O411 1.986 . S
Mg407 O423 1.942 . S
Mg407 O424 1.955 1_655 S
C408 O419 1.191 . S
C408 O421 1.307 . S
O409 Mg404 2.013 . S
O409 C428 1.191 . S
O410 Mg401 2.081 . S
O410 C418 1.331 . S
O411 Mg407 1.986 . S
O411 C428 1.307 . S
O412 Mg401 2.023 1_655 S
O412 C427 1.264 . S
O413 Mg402 1.942 1_455 S
O413 C418 1.244 . S
O414 Mg402 1.955 . S
O414 C427 1.273 . S
O415 Mg404 2.114 1_455 S
O415 Mg406 2.291 . S
O415 C417 1.312 . S
O416 Mg401 2.031 . S
O416 C417 1.208 . S
C417 O415 1.312 . S
C417 O416 1.208 . S
C418 O410 1.331 . S
C418 O413 1.244 . S
O419 Mg404 2.013 1_455 S
O419 C408 1.191 . S
O420 C399 1.331 . S
O420 Mg406 2.081 1_655 S
O421 Mg402 1.986 1_455 S
O421 C408 1.307 . S
O422 C400 1.264 . S
O422 Mg406 2.023 . S
O423 C399 1.244 . S
O423 Mg407 1.942 . S
O424 C400 1.273 . S
O424 Mg407 1.955 1_455 S
O425 C398 1.312 . S
O425 Mg401 2.291 1_655 S
O425 Mg404 2.114 . S
O426 C398 1.203 1_455 S
O426 Mg406 2.036 . S
C427 O412 1.264 . S
C427 O414 1.273 . S
C428 O409 1.191 . S
C428 O411 1.307 . S
C429 O456 1.312 . S
C429 O457 1.199 1_565 S
C430 O451 1.331 . S
C430 O454 1.244 . S
C431 O453 1.264 . S
C431 O455 1.273 . S
Mg432 O434 1.936 . S
Mg432 O441 2.081 . S
Mg432 O443 2.023 1_545 S
Mg432 O447 2.031 . S
Mg432 O456 2.291 1_545 S
Mg433 O434 1.963 1_565 S
Mg433 O444 1.942 1_565 S
Mg433 O445 1.955 . S
Mg433 O452 1.986 1_565 S
O434 Mg432 1.936 . S
O434 Mg433 1.963 1_545 S
O434 Mg435 1.915 1_545 S
Mg435 O434 1.915 1_565 S
Mg435 O436 1.915 . S
Mg435 O440 2.013 . S
Mg435 O446 2.114 1_565 S
Mg435 O450 2.013 1_565 S
Mg435 O456 2.114 . S
O436 Mg435 1.915 . S
O436 Mg437 1.936 1_565 S
O436 Mg438 1.963 . S
Mg437 O436 1.936 1_545 S
Mg437 O446 2.291 . S
Mg437 O451 2.081 1_545 S
Mg437 O453 2.023 . S
Mg437 O457 2.041 . S
Mg438 O436 1.963 . S
Mg438 O442 1.986 . S
Mg438 O454 1.942 . S
Mg438 O455 1.955 1_565 S
C439 O450 1.191 . S
C439 O452 1.307 . S
O440 Mg435 2.013 . S
O440 C459 1.191 . S
O441 Mg432 2.081 . S
O441 C449 1.331 1_655 S
O442 Mg438 1.986 . S
O442 C459 1.307 . S
O443 Mg432 2.023 1_565 S
O443 C458 1.264 . S
O444 Mg433 1.942 1_545 S
O444 C449 1.244 1_655 S
O445 Mg433 1.955 . S
O445 C458 1.273 . S
O446 Mg435 2.114 1_545 S
O446 Mg437 2.291 . S
O446 C448 1.312 . S
O447 Mg432 2.031 . S
O447 C448 1.208 . S
C448 O446 1.312 . S
C448 O447 1.208 . S
C449 O441 1.331 1_455 S
C449 O444 1.244 1_455 S
O450 Mg435 2.013 1_545 S
O450 C439 1.191 . S
O451 C430 1.331 . S
O451 Mg437 2.081 1_565 S
O452 Mg433 1.986 1_545 S
O452 C439 1.307 . S
O453 C431 1.264 . S
O453 Mg437 2.023 . S
O454 C430 1.244 . S
O454 Mg438 1.942 . S
O455 C431 1.273 . S
O455 Mg438 1.955 1_545 S
O456 C429 1.312 . S
O456 Mg432 2.291 1_565 S
O456 Mg435 2.114 . S
O457 C429 1.199 1_545 S
O457 Mg437 2.041 . S
C458 O443 1.264 . S
C458 O445 1.273 . S
C459 O440 1.191 . S
C459 O442 1.307 . S
C460 O487 1.312 . S
C460 O488 1.208 . S
C461 O482 1.331 1_545 S
C461 O485 1.244 1_545 S
C462 O484 1.264 . S
C462 O486 1.273 . S
Mg463 O465 1.936 1_554 S
Mg463 O472 2.081 1_554 S
Mg463 O474 2.023 . S
Mg463 O478 2.035 . S
Mg463 O487 2.291 . S
Mg464 O465 1.963 . S
Mg464 O475 1.942 . S
Mg464 O476 1.955 1_556 S
Mg464 O483 1.986 . S
O465 Mg463 1.936 1_556 S
O465 Mg464 1.963 . S
O465 Mg466 1.915 . S
Mg466 O465 1.915 . S
Mg466 O467 1.915 1_556 S
Mg466 O471 2.013 1_556 S
Mg466 O477 2.114 . S
Mg466 O481 2.013 . S
Mg466 O487 2.114 1_556 S
O467 Mg466 1.915 1_554 S
O467 Mg468 1.936 . S
O467 Mg469 1.963 1_554 S
Mg468 O467 1.936 . S
Mg468 O477 2.291 1_554 S
Mg468 O482 2.081 . S
Mg468 O484 2.023 1_554 S
Mg468 O488 2.031 . S
Mg469 O467 1.963 1_556 S
Mg469 O473 1.986 1_556 S
Mg469 O485 1.942 1_556 S
Mg469 O486 1.955 . S
C470 O481 1.191 . S
C470 O483 1.307 . S
O471 Mg466 2.013 1_554 S
O471 C490 1.191 . S
O472 Mg463 2.081 1_556 S
O472 C480 1.331 . S
O473 Mg469 1.986 1_554 S
O473 C490 1.307 . S
O474 Mg463 2.023 . S
O474 C489 1.264 . S
O475 Mg464 1.942 . S
O475 C480 1.244 . S
O476 Mg464 1.955 1_554 S
O476 C489 1.273 . S
O477 Mg466 2.114 . S
O477 Mg468 2.291 1_556 S
O477 C479 1.312 . S
O478 Mg463 2.035 . S
O478 C479 1.205 1_554 S
C479 O477 1.312 . S
C479 O478 1.205 1_556 S
C480 O472 1.331 . S
C480 O475 1.244 . S
O481 Mg466 2.013 . S
O481 C470 1.191 . S
O482 C461 1.331 1_565 S
O482 Mg468 2.081 . S
O483 Mg464 1.986 . S
O483 C470 1.307 . S
O484 C462 1.264 . S
O484 Mg468 2.023 1_556 S
O485 C461 1.244 1_565 S
O485 Mg469 1.942 1_554 S
O486 C462 1.273 . S
O486 Mg469 1.955 . S
O487 C460 1.312 . S
O487 Mg463 2.291 . S
O487 Mg466 2.114 1_554 S
O488 C460 1.208 . S
O488 Mg468 2.031 . S
C489 O474 1.264 . S
C489 O476 1.273 . S
C490 O471 1.191 . S
C490 O473 1.307 . S
C491 O518 1.312 . S
C491 O519 1.208 . S
C492 O513 1.331 1_655 S
C492 O516 1.244 1_655 S
C493 O515 1.264 . S
C493 O517 1.273 . S
Mg494 O496 1.936 . S
Mg494 O503 2.081 . S
Mg494 O505 2.023 . S
Mg494 O509 2.031 . S
Mg494 O518 2.291 . S
Mg495 O496 1.963 . S
Mg495 O506 1.942 . S
Mg495 O507 1.955 . S
Mg495 O514 1.986 . S
O496 Mg494 1.936 . S
O496 Mg495 1.963 . S
O496 Mg497 1.915 . S
Mg497 O496 1.915 . S
Mg497 O498 1.915 . S
Mg497 O502 2.013 . S
Mg497 O508 2.114 . S
Mg497 O512 2.013 . S
Mg497 O518 2.114 . S
O498 Mg497 1.915 . S
O498 Mg499 1.936 . S
O498 Mg500 1.963 . S
Mg499 O498 1.936 . S
Mg499 O508 2.291 . S
Mg499 O513 2.081 . S
Mg499 O515 2.023 . S
Mg499 O519 2.031 . S
Mg500 O498 1.963 . S
Mg500 O504 1.986 . S
Mg500 O516 1.942 . S
Mg500 O517 1.955 . S
C501 O512 1.191 . S
C501 O514 1.307 . S
O502 Mg497 2.013 . S
O502 C521 1.191 . S
O503 Mg494 2.081 . S
O503 C511 1.331 . S
O504 Mg500 1.986 . S
O504 C521 1.307 . S
O505 Mg494 2.023 . S
O505 C520 1.264 . S
O506 Mg495 1.942 . S
O506 C511 1.244 . S
O507 Mg495 1.955 . S
O507 C520 1.273 . S
O508 Mg497 2.114 . S
O508 Mg499 2.291 . S
O508 C510 1.312 . S
O509 Mg494 2.031 . S
O509 C510 1.208 . S
C510 O508 1.312 . S
C510 O509 1.208 . S
C511 O503 1.331 . S
C511 O506 1.244 . S
O512 Mg497 2.013 . S
O512 C501 1.191 . S
O513 C492 1.331 1_455 S
O513 Mg499 2.081 . S
O514 Mg495 1.986 . S
O514 C501 1.307 . S
O515 C493 1.264 . S
O515 Mg499 2.023 . S
O516 C492 1.244 1_455 S
O516 Mg500 1.942 . S
O517 C493 1.273 . S
O517 Mg500 1.955 . S
O518 C491 1.312 . S
O518 Mg494 2.291 . S
O518 Mg497 2.114 . S
O519 C491 1.208 . S
O519 Mg499 2.031 . S
C520 O505 1.264 . S
C520 O507 1.273 . S
C521 O502 1.191 . S
C521 O504 1.307 . S
C522 O549 1.312 . S
C522 O550 1.208 . S
C523 O544 1.331 . S
C523 O547 1.244 . S
C524 O546 1.264 . S
C524 O548 1.273 . S
Mg525 O527 1.936 . S
Mg525 O534 2.081 . S
Mg525 O536 2.023 1_556 S
Mg525 O540 2.031 . S
Mg525 O549 2.291 1_556 S
Mg526 O527 1.963 1_554 S
Mg526 O537 1.942 1_554 S
Mg526 O538 1.955 . S
Mg526 O545 1.986 1_554 S
O527 Mg525 1.936 . S
O527 Mg526 1.963 1_556 S
O527 Mg528 1.915 1_556 S
Mg528 O527 1.915 1_554 S
Mg528 O529 1.915 . S
Mg528 O533 2.013 . S
Mg528 O539 2.114 1_554 S
Mg528 O543 2.013 1_554 S
Mg528 O549 2.114 . S
O529 Mg528 1.915 . S
O529 Mg530 1.936 1_554 S
O529 Mg531 1.963 . S
Mg530 O529 1.936 1_556 S
Mg530 O539 2.291 . S
Mg530 O544 2.081 1_556 S
Mg530 O546 2.023 . S
Mg530 O550 2.031 1_556 S
Mg531 O529 1.963 . S
Mg531 O535 1.986 . S
Mg531 O547 1.942 . S
Mg531 O548 1.955 1_554 S
C532 O543 1.191 . S
C532 O545 1.307 . S
O533 Mg528 2.013 . S
O533 C552 1.191 . S
O534 Mg525 2.081 . S
O534 C542 1.331 . S
O535 Mg531 1.986 . S
O535 C552 1.307 . S
O536 Mg525 2.023 1_554 S
O536 C551 1.264 . S
O537 Mg526 1.942 1_556 S
O537 C542 1.244 . S
O538 Mg526 1.955 . S
O538 C551 1.273 . S
O539 Mg528 2.114 1_556 S
O539 Mg530 2.291 . S
O539 C541 1.312 . S
O540 Mg525 2.031 . S
O540 C541 1.208 . S
C541 O539 1.312 . S
C541 O540 1.208 . S
C542 O534 1.331 . S
C542 O537 1.244 . S
O543 Mg528 2.013 1_556 S
O543 C532 1.191 . S
O544 C523 1.331 . S
O544 Mg530 2.081 1_554 S
O545 Mg526 1.986 1_556 S
O545 C532 1.307 . S
O546 C524 1.264 . S
O546 Mg530 2.023 . S
O547 C523 1.244 . S
O547 Mg531 1.942 . S
O548 C524 1.273 . S
O548 Mg531 1.955 1_556 S
O549 C522 1.312 . S
O549 Mg525 2.291 1_554 S
O549 Mg528 2.114 . S
O550 C522 1.208 . S
O550 Mg530 2.031 1_554 S
C551 O536 1.264 . S
C551 O538 1.273 . S
C552 O533 1.191 . S
C552 O535 1.307 . S
C553 O580 1.312 . S
C553 O581 1.208 . S
C554 O575 1.331 . S
C554 O578 1.244 . S
C555 O577 1.264 . S
C555 O579 1.273 . S
Mg556 O558 1.936 . S
Mg556 O565 2.081 . S
Mg556 O567 2.023 . S
Mg556 O571 2.031 . S
Mg556 O580 2.291 . S
Mg557 O558 1.963 . S
Mg557 O568 1.942 . S
Mg557 O569 1.955 . S
Mg557 O576 1.986 . S
O558 Mg556 1.936 . S
O558 Mg557 1.963 . S
O558 Mg559 1.915 . S
Mg559 O558 1.915 . S
Mg559 O560 1.915 . S
Mg559 O564 2.013 . S
Mg559 O570 2.114 . S
Mg559 O574 2.013 . S
Mg559 O580 2.114 . S
O560 Mg559 1.915 . S
O560 Mg561 1.936 . S
O560 Mg562 1.963 . S
Mg561 O560 1.936 . S
Mg561 O570 2.291 . S
Mg561 O575 2.081 . S
Mg561 O577 2.023 . S
Mg561 O581 2.031 . S
Mg562 O560 1.963 . S
Mg562 O566 1.986 . S
Mg562 O578 1.942 . S
Mg562 O579 1.955 . S
C563 O574 1.191 . S
C563 O576 1.307 . S
O564 Mg559 2.013 . S
O564 C583 1.191 . S
O565 Mg556 2.081 . S
O565 C573 1.331 1_545 S
O566 Mg562 1.986 . S
O566 C583 1.307 . S
O567 Mg556 2.023 . S
O567 C582 1.264 . S
O568 Mg557 1.942 . S
O568 C573 1.244 1_545 S
O569 Mg557 1.955 . S
O569 C582 1.273 . S
O570 Mg559 2.114 . S
O570 Mg561 2.291 . S
O570 C572 1.312 . S
O571 Mg556 2.031 . S
O571 C572 1.208 . S
C572 O570 1.312 . S
C572 O571 1.208 . S
C573 O565 1.331 1_565 S
C573 O568 1.244 1_565 S
O574 Mg559 2.013 . S
O574 C563 1.191 . S
O575 C554 1.331 . S
O575 Mg561 2.081 . S
O576 Mg557 1.986 . S
O576 C563 1.307 . S
O577 C555 1.264 . S
O577 Mg561 2.023 . S
O578 C554 1.244 . S
O578 Mg562 1.942 . S
O579 C555 1.273 . S
O579 Mg562 1.955 . S
O580 C553 1.312 . S
O580 Mg556 2.291 . S
O580 Mg559 2.114 . S
O581 C553 1.208 . S
O581 Mg561 2.031 . S
C582 O567 1.264 . S
C582 O569 1.273 . S
C583 O564 1.191 . S
C583 O566 1.307 . S
C584 O611 1.312 . S
C584 O612 1.208 . S
C585 O606 1.331 . S
C585 O609 1.244 . S
C586 O608 1.264 . S
C586 O610 1.273 . S
Mg587 O589 1.936 . S
Mg587 O596 2.081 . S
Mg587 O598 2.023 . S
Mg587 O602 2.031 . S
Mg587 O611 2.291 . S
Mg588 O589 1.963 . S
Mg588 O599 1.942 . S
Mg588 O600 1.955 . S
Mg588 O607 1.986 . S
O589 Mg587 1.936 . S
O589 Mg588 1.963 . S
O589 Mg590 1.915 . S
Mg590 O589 1.915 . S
Mg590 O591 1.915 . S
Mg590 O595 2.013 . S
Mg590 O601 2.114 . S
Mg590 O605 2.013 . S
Mg590 O611 2.114 . S
O591 Mg590 1.915 . S
O591 Mg592 1.936 . S
O591 Mg593 1.963 . S
Mg592 O591 1.936 . S
Mg592 O601 2.291 . S
Mg592 O606 2.081 . S
Mg592 O608 2.023 . S
Mg592 O612 2.031 . S
Mg593 O591 1.963 . S
Mg593 O597 1.986 . S
Mg593 O609 1.942 . S
Mg593 O610 1.955 . S
C594 O605 1.191 . S
C594 O607 1.307 . S
O595 Mg590 2.013 . S
O595 C614 1.191 . S
O596 Mg587 2.081 . S
O596 C604 1.331 . S
O597 Mg593 1.986 . S
O597 C614 1.307 . S
O598 Mg587 2.023 . S
O598 C613 1.264 . S
O599 Mg588 1.942 . S
O599 C604 1.244 . S
O600 Mg588 1.955 . S
O600 C613 1.273 . S
O601 Mg590 2.114 . S
O601 Mg592 2.291 . S
O601 C603 1.312 . S
O602 Mg587 2.031 . S
O602 C603 1.208 . S
C603 O601 1.312 . S
C603 O602 1.208 . S
C604 O596 1.331 . S
C604 O599 1.244 . S
O605 Mg590 2.013 . S
O605 C594 1.191 . S
O606 C585 1.331 . S
O606 Mg592 2.081 . S
O607 Mg588 1.986 . S
O607 C594 1.307 . S
O608 C586 1.264 . S
O608 Mg592 2.023 . S
O609 C585 1.244 . S
O609 Mg593 1.942 . S
O610 C586 1.273 . S
O610 Mg593 1.955 . S
O611 C584 1.312 . S
O611 Mg587 2.291 . S
O611 Mg590 2.114 . S
O612 C584 1.208 . S
O612 Mg592 2.031 . S
C613 O598 1.264 . S
C613 O600 1.273 . S
C614 O595 1.191 . S
C614 O597 1.307 . S
C615 O642 1.312 . S
C615 O643 1.208 . S
C616 O637 1.331 . S
C616 O640 1.244 . S
C617 O639 1.264 . S
C617 O641 1.273 . S
Mg618 O620 1.936 . S
Mg618 O627 2.081 . S
Mg618 O629 2.023 . S
Mg618 O633 2.031 . S
Mg618 O642 2.291 . S
Mg619 O620 1.963 . S
Mg619 O630 1.942 . S
Mg619 O631 1.955 . S
Mg619 O638 1.986 . S
O620 Mg618 1.936 . S
O620 Mg619 1.963 . S
O620 Mg621 1.915 . S
Mg621 O620 1.915 . S
Mg621 O622 1.915 . S
Mg621 O626 2.013 . S
Mg621 O632 2.114 . S
Mg621 O636 2.013 . S
Mg621 O642 2.114 . S
O622 Mg621 1.915 . S
O622 Mg623 1.936 . S
O622 Mg624 1.963 . S
Mg623 O622 1.936 . S
Mg623 O632 2.291 . S
Mg623 O637 2.081 . S
Mg623 O639 2.023 . S
Mg623 O643 2.031 . S
Mg624 O622 1.963 . S
Mg624 O628 1.986 . S
Mg624 O640 1.942 . S
Mg624 O641 1.955 . S
C625 O636 1.191 . S
C625 O638 1.307 . S
O626 Mg621 2.013 . S
O626 C645 1.191 . S
O627 Mg618 2.081 . S
O627 C635 1.331 . S
O628 Mg624 1.986 . S
O628 C645 1.307 . S
O629 Mg618 2.023 . S
O629 C644 1.264 . S
O630 Mg619 1.942 . S
O630 C635 1.244 . S
O631 Mg619 1.955 . S
O631 C644 1.273 . S
O632 Mg621 2.114 . S
O632 Mg623 2.291 . S
O632 C634 1.312 . S
O633 Mg618 2.031 . S
O633 C634 1.208 . S
C634 O632 1.312 . S
C634 O633 1.208 . S
C635 O627 1.331 . S
C635 O630 1.244 . S
O636 Mg621 2.013 . S
O636 C625 1.191 . S
O637 C616 1.331 . S
O637 Mg623 2.081 . S
O638 Mg619 1.986 . S
O638 C625 1.307 . S
O639 C617 1.264 . S
O639 Mg623 2.023 . S
O640 C616 1.244 . S
O640 Mg624 1.942 . S
O641 C617 1.273 . S
O641 Mg624 1.955 . S
O642 C615 1.312 . S
O642 Mg618 2.291 . S
O642 Mg621 2.114 . S
O643 C615 1.208 . S
O643 Mg623 2.031 . S
C644 O629 1.264 . S
C644 O631 1.273 . S
C645 O626 1.191 . S
C645 O628 1.307 . S
C646 O673 1.312 . S
C646 O674 1.208 . S
C647 O668 1.331 . S
C647 O671 1.244 . S
C648 O670 1.264 . S
C648 O672 1.273 . S
Mg649 O651 1.936 . S
Mg649 O658 2.081 . S
Mg649 O660 2.023 1_565 S
Mg649 O664 2.031 . S
Mg649 O673 2.291 1_565 S
Mg650 O651 1.963 1_545 S
Mg650 O661 1.942 1_545 S
Mg650 O662 1.955 . S
Mg650 O669 1.986 1_545 S
O651 Mg649 1.936 . S
O651 Mg650 1.963 1_565 S
O651 Mg652 1.915 1_565 S
Mg652 O651 1.915 1_545 S
Mg652 O653 1.915 . S
Mg652 O657 2.013 . S
Mg652 O663 2.114 1_545 S
Mg652 O667 2.013 1_545 S
Mg652 O673 2.114 . S
O653 Mg652 1.915 . S
O653 Mg654 1.936 1_545 S
O653 Mg655 1.963 . S
Mg654 O653 1.936 1_565 S
Mg654 O663 2.291 . S
Mg654 O668 2.081 1_565 S
Mg654 O670 2.023 . S
Mg654 O674 2.031 1_565 S
Mg655 O653 1.963 . S
Mg655 O659 1.986 . S
Mg655 O671 1.942 . S
Mg655 O672 1.955 1_545 S
C656 O667 1.191 . S
C656 O669 1.307 . S
O657 Mg652 2.013 . S
O657 C676 1.191 . S
O658 Mg649 2.081 . S
O658 C666 1.331 . S
O659 Mg655 1.986 . S
O659 C676 1.307 . S
O660 Mg649 2.023 1_545 S
O660 C675 1.264 . S
O661 Mg650 1.942 1_565 S
O661 C666 1.244 . S
O662 Mg650 1.955 . S
O662 C675 1.273 . S
O663 Mg652 2.114 1_565 S
O663 Mg654 2.291 . S
O663 C665 1.312 . S
O664 Mg649 2.031 . S
O664 C665 1.208 . S
C665 O663 1.312 . S
C665 O664 1.208 . S
C666 O658 1.331 . S
C666 O661 1.244 . S
O667 Mg652 2.013 1_565 S
O667 C656 1.191 . S
O668 C647 1.331 . S
O668 Mg654 2.081 1_545 S
O669 Mg650 1.986 1_565 S
O669 C656 1.307 . S
O670 C648 1.264 . S
O670 Mg654 2.023 . S
O671 C647 1.244 . S
O671 Mg655 1.942 . S
O672 C648 1.273 . S
O672 Mg655 1.955 1_565 S
O673 C646 1.312 . S
O673 Mg649 2.291 1_545 S
O673 Mg652 2.114 . S
O674 C646 1.208 . S
O674 Mg654 2.031 1_545 S
C675 O660 1.264 . S
C675 O662 1.273 . S
C676 O657 1.191 . S
C676 O659 1.307 . S
C677 O704 1.312 . S
C677 O705 1.208 . S
C678 O699 1.331 . S
C678 O702 1.244 . S
C679 O701 1.264 . S
C679 O703 1.273 . S
Mg680 O682 1.936 . S
Mg680 O689 2.081 . S
Mg680 O691 2.023 . S
Mg680 O695 2.031 . S
Mg680 O704 2.291 . S
Mg681 O682 1.963 . S
Mg681 O692 1.942 . S
Mg681 O693 1.955 . S
Mg681 O700 1.986 . S
O682 Mg680 1.936 . S
O682 Mg681 1.963 . S
O682 Mg683 1.915 . S
Mg683 O682 1.915 . S
Mg683 O684 1.915 . S
Mg683 O688 2.013 . S
Mg683 O694 2.114 . S
Mg683 O698 2.013 . S
Mg683 O704 2.114 . S
O684 Mg683 1.915 . S
O684 Mg685 1.936 . S
O684 Mg686 1.963 . S
Mg685 O684 1.936 . S
Mg685 O694 2.291 . S
Mg685 O699 2.081 . S
Mg685 O701 2.023 . S
Mg685 O705 2.031 . S
Mg686 O684 1.963 . S
Mg686 O690 1.986 . S
Mg686 O702 1.942 . S
Mg686 O703 1.955 . S
C687 O698 1.191 . S
C687 O700 1.307 . S
O688 Mg683 2.013 . S
O688 C707 1.191 . S
O689 Mg680 2.081 . S
O689 C697 1.331 1_554 S
O690 Mg686 1.986 . S
O690 C707 1.307 . S
O691 Mg680 2.023 . S
O691 C706 1.264 . S
O692 Mg681 1.942 . S
O692 C697 1.244 1_554 S
O693 Mg681 1.955 . S
O693 C706 1.273 . S
O694 Mg683 2.114 . S
O694 Mg685 2.291 . S
O694 C696 1.312 . S
O695 Mg680 2.031 . S
O695 C696 1.208 . S
C696 O694 1.312 . S
C696 O695 1.208 . S
C697 O689 1.331 1_556 S
C697 O692 1.244 1_556 S
O698 Mg683 2.013 . S
O698 C687 1.191 . S
O699 C678 1.331 . S
O699 Mg685 2.081 . S
O700 Mg681 1.986 . S
O700 C687 1.307 . S
O701 C679 1.264 . S
O701 Mg685 2.023 . S
O702 C678 1.244 . S
O702 Mg686 1.942 . S
O703 C679 1.273 . S
O703 Mg686 1.955 . S
O704 C677 1.312 . S
O704 Mg680 2.291 . S
O704 Mg683 2.114 . S
O705 C677 1.208 . S
O705 Mg685 2.031 . S
C706 O691 1.264 . S
C706 O693 1.273 . S
C707 O688 1.191 . S
C707 O690 1.307 . S
C708 C709 1.369 . S
C708 C710 1.419 . S
C708 H712 0.930 . S
C709 C708 1.369 . S
C709 C718 1.429 . S
C710 C708 1.419 . S
C710 C711 1.363 . S
C710 H713 0.929 . S
C711 C710 1.363 . S
C711 C717 1.428 . S
H712 C708 0.930 . S
H713 C710 0.929 . S
S714 N715 1.613 . S
S714 N716 1.610 . S
N715 S714 1.613 . S
N715 C718 1.350 1_655 S
N716 S714 1.610 . S
N716 C717 1.351 1_655 S
C717 C711 1.428 . S
C717 N716 1.351 1_455 S
C717 C718 1.434 . S
C718 C709 1.429 . S
C718 N715 1.350 1_455 S
C718 C717 1.434 . S
C719 C720 1.369 . S
C719 C721 1.419 . S
C719 H723 0.930 . S
C720 C719 1.369 . S
C720 C729 1.429 . S
C721 C719 1.419 . S
C721 C722 1.363 . S
C721 H724 0.929 . S
C722 C721 1.363 . S
C722 C728 1.428 . S
H723 C719 0.930 . S
H724 C721 0.929 . S
S725 N726 1.613 . S
S725 N727 1.610 . S
N726 S725 1.613 . S
N726 C729 1.350 . S
N727 S725 1.610 . S
N727 C728 1.351 . S
C728 C722 1.428 . S
C728 N727 1.351 . S
C728 C729 1.434 . S
C729 C720 1.429 . S
C729 N726 1.350 . S
C729 C728 1.434 . S
C730 C731 1.369 . S
C730 C732 1.419 . S
C730 H734 0.930 . S
C731 C730 1.369 . S
C731 C740 1.429 . S
C732 C730 1.419 . S
C732 C733 1.363 . S
C732 H735 0.929 . S
C733 C732 1.363 . S
C733 C739 1.428 . S
H734 C730 0.930 . S
H735 C732 0.929 . S
S736 N737 1.613 . S
S736 N738 1.610 . S
N737 S736 1.613 . S
N737 C740 1.350 1_455 S
N738 S736 1.610 . S
N738 C739 1.351 1_455 S
C739 C733 1.428 . S
C739 N738 1.351 1_655 S
C739 C740 1.434 . S
C740 C731 1.429 . S
C740 N737 1.350 1_655 S
C740 C739 1.434 . S
C741 C742 1.369 . S
C741 C743 1.419 . S
C741 H745 0.930 . S
C742 C741 1.369 . S
C742 C751 1.429 . S
C743 C741 1.419 . S
C743 C744 1.363 . S
C743 H746 0.929 . S
C744 C743 1.363 . S
C744 C750 1.428 . S
H745 C741 0.930 . S
H746 C743 0.929 . S
S747 N748 1.613 . S
S747 N749 1.610 . S
N748 S747 1.613 . S
N748 C751 1.350 . S
N749 S747 1.610 . S
N749 C750 1.351 . S
C750 C744 1.428 . S
C750 N749 1.351 . S
C750 C751 1.434 . S
C751 C742 1.429 . S
C751 N748 1.350 . S
C751 C750 1.434 . S
C752 C753 1.369 . S
C752 C754 1.419 . S
C752 H756 0.930 . S
C753 C752 1.369 . S
C753 C762 1.429 . S
C754 C752 1.419 . S
C754 C755 1.363 . S
C754 H757 0.929 . S
C755 C754 1.363 . S
C755 C761 1.428 . S
H756 C752 0.930 . S
H757 C754 0.929 . S
S758 N759 1.613 . S
S758 N760 1.610 . S
N759 S758 1.613 . S
N759 C762 1.350 . S
N760 S758 1.610 . S
N760 C761 1.351 . S
C761 C755 1.428 . S
C761 N760 1.351 . S
C761 C762 1.434 . S
C762 C753 1.429 . S
C762 N759 1.350 . S
C762 C761 1.434 . S
C763 C764 1.369 . S
C763 C765 1.419 . S
C763 H767 0.930 . S
C764 C763 1.369 . S
C764 C773 1.429 . S
C765 C763 1.419 . S
C765 C766 1.363 . S
C765 H768 0.929 . S
C766 C765 1.363 . S
C766 C772 1.428 . S
H767 C763 0.930 . S
H768 C765 0.929 . S
S769 N770 1.613 . S
S769 N771 1.610 . S
N770 S769 1.613 . S
N770 C773 1.350 . S
N771 S769 1.610 . S
N771 C772 1.351 . S
C772 C766 1.428 . S
C772 N771 1.351 . S
C772 C773 1.434 . S
C773 C764 1.429 . S
C773 N770 1.350 . S
C773 C772 1.434 . S
C774 C775 1.369 . S
C774 C776 1.419 . S
C774 H778 0.930 . S
C775 C774 1.369 . S
C775 C784 1.429 . S
C776 C774 1.419 . S
C776 C777 1.363 . S
C776 H779 0.929 . S
C777 C776 1.363 . S
C777 C783 1.428 . S
H778 C774 0.930 . S
H779 C776 0.929 . S
S780 N781 1.613 . S
S780 N782 1.610 . S
N781 S780 1.613 . S
N781 C784 1.350 . S
N782 S780 1.610 . S
N782 C783 1.351 . S
C783 C777 1.428 . S
C783 N782 1.351 . S
C783 C784 1.434 . S
C784 C775 1.429 . S
C784 N781 1.350 . S
C784 C783 1.434 . S
C785 C786 1.369 . S
C785 C787 1.419 . S
C785 H789 0.930 . S
C786 C785 1.369 . S
C786 C795 1.429 . S
C787 C785 1.419 . S
C787 C788 1.363 . S
C787 H790 0.929 . S
C788 C787 1.363 . S
C788 C794 1.428 . S
H789 C785 0.930 . S
H790 C787 0.929 . S
S791 N792 1.613 . S
S791 N793 1.610 . S
N792 S791 1.613 . S
N792 C795 1.350 . S
N793 S791 1.610 . S
N793 C794 1.351 . S
C794 C788 1.428 . S
C794 N793 1.351 . S
C794 C795 1.434 . S
C795 C786 1.429 . S
C795 N792 1.350 . S
C795 C794 1.434 . S
C796 C797 1.369 . S
C796 C798 1.419 . S
C796 H800 0.930 . S
C797 C796 1.369 . S
C797 C806 1.429 . S
C798 C796 1.419 . S
C798 C799 1.363 . S
C798 H801 0.929 . S
C799 C798 1.363 . S
C799 C805 1.428 . S
H800 C796 0.930 . S
H801 C798 0.929 . S
S802 N803 1.613 . S
S802 N804 1.610 . S
N803 S802 1.613 . S
N803 C806 1.350 1_565 S
N804 S802 1.610 . S
N804 C805 1.351 1_565 S
C805 C799 1.428 . S
C805 N804 1.351 1_545 S
C805 C806 1.434 . S
C806 C797 1.429 . S
C806 N803 1.350 1_545 S
C806 C805 1.434 . S
C807 C808 1.369 . S
C807 C809 1.419 . S
C807 H811 0.930 . S
C808 C807 1.369 . S
C808 C817 1.429 . S
C809 C807 1.419 . S
C809 C810 1.363 . S
C809 H812 0.914 1_545 S
C810 C809 1.363 . S
C810 C816 1.428 . S
H811 C807 0.930 . S
H812 C809 0.914 1_565 S
S813 N814 1.613 . S
S813 N815 1.610 . S
N814 S813 1.613 . S
N814 C817 1.350 . S
N815 S813 1.610 . S
N815 C816 1.351 . S
C816 C810 1.428 . S
C816 N815 1.351 . S
C816 C817 1.434 . S
C817 C808 1.429 . S
C817 N814 1.350 . S
C817 C816 1.434 . S
C818 C819 1.369 . S
C818 C820 1.419 . S
C818 H822 0.930 . S
C819 C818 1.369 . S
C819 C828 1.429 . S
C820 C818 1.419 . S
C820 C821 1.363 . S
C820 H823 0.929 . S
C821 C820 1.363 . S
C821 C827 1.428 . S
H822 C818 0.930 . S
H823 C820 0.929 . S
S824 N825 1.613 . S
S824 N826 1.610 . S
N825 S824 1.613 . S
N825 C828 1.350 . S
N826 S824 1.610 . S
N826 C827 1.351 . S
C827 C821 1.428 . S
C827 N826 1.351 . S
C827 C828 1.434 . S
C828 C819 1.429 . S
C828 N825 1.350 . S
C828 C827 1.434 . S
C829 C830 1.369 . S
C829 C831 1.419 . S
C829 H833 0.930 . S
C830 C829 1.369 . S
C830 C839 1.429 . S
C831 C829 1.419 . S
C831 C832 1.363 . S
C831 H834 0.929 . S
C832 C831 1.363 . S
C832 C838 1.428 . S
H833 C829 0.930 . S
H834 C831 0.929 . S
S835 N836 1.613 . S
S835 N837 1.610 . S
N836 S835 1.613 . S
N836 C839 1.350 . S
N837 S835 1.610 . S
N837 C838 1.351 . S
C838 C832 1.428 . S
C838 N837 1.351 . S
C838 C839 1.434 . S
C839 C830 1.429 . S
C839 N836 1.350 . S
C839 C838 1.434 . S
C840 C841 1.369 . S
C840 C842 1.419 . S
C840 H844 0.930 . S
C841 C840 1.369 . S
C841 C850 1.429 . S
C842 C840 1.419 . S
C842 C843 1.363 . S
C842 H845 0.929 . S
C843 C842 1.363 . S
C843 C849 1.428 . S
H844 C840 0.930 . S
H845 C842 0.929 . S
S846 N847 1.613 . S
S846 N848 1.610 . S
N847 S846 1.613 . S
N847 C850 1.350 . S
N848 S846 1.610 . S
N848 C849 1.351 . S
C849 C843 1.428 . S
C849 N848 1.351 . S
C849 C850 1.434 . S
C850 C841 1.429 . S
C850 N847 1.350 . S
C850 C849 1.434 . S
C851 C852 1.369 . S
C851 C853 1.419 . S
C851 H855 0.930 . S
C852 C851 1.369 . S
C852 C861 1.429 . S
C853 C851 1.419 . S
C853 C854 1.363 . S
C853 H856 0.949 . S
C854 C853 1.363 . S
C854 C860 1.428 . S
H855 C851 0.930 . S
H856 C853 0.949 . S
S857 N858 1.613 . S
S857 N859 1.610 . S
N858 S857 1.613 . S
N858 C861 1.350 . S
N859 S857 1.610 . S
N859 C860 1.351 . S
C860 C854 1.428 . S
C860 N859 1.351 . S
C860 C861 1.434 . S
C861 C852 1.429 . S
C861 N858 1.350 . S
C861 C860 1.434 . S
C862 C863 1.369 . S
C862 C864 1.419 . S
C862 H866 0.930 . S
C863 C862 1.369 . S
C863 C872 1.429 . S
C864 C862 1.419 . S
C864 C865 1.363 . S
C864 H867 0.929 . S
C865 C864 1.363 . S
C865 C871 1.428 . S
H866 C862 0.930 . S
H867 C864 0.929 . S
S868 N869 1.613 . S
S868 N870 1.610 . S
N869 S868 1.613 . S
N869 C872 1.350 . S
N870 S868 1.610 . S
N870 C871 1.351 . S
C871 C865 1.428 . S
C871 N870 1.351 . S
C871 C872 1.434 . S
C872 C863 1.429 . S
C872 N869 1.350 . S
C872 C871 1.434 . S
C873 C874 1.369 . S
C873 C875 1.419 . S
C873 H877 0.930 . S
C874 C873 1.369 . S
C874 C883 1.429 . S
C875 C873 1.419 . S
C875 C876 1.363 . S
C875 H878 0.929 . S
C876 C875 1.363 . S
C876 C882 1.428 . S
H877 C873 0.930 . S
H878 C875 0.929 . S
S879 N880 1.613 . S
S879 N881 1.610 . S
N880 S879 1.613 . S
N880 C883 1.350 . S
N881 S879 1.610 . S
N881 C882 1.351 . S
C882 C876 1.428 . S
C882 N881 1.351 . S
C882 C883 1.434 . S
C883 C874 1.429 . S
C883 N880 1.350 . S
C883 C882 1.434 . S
C884 C885 1.369 . S
C884 C886 1.419 . S
C884 H888 0.930 . S
C885 C884 1.369 . S
C885 C894 1.429 . S
C886 C884 1.419 . S
C886 C887 1.363 . S
C886 H889 0.929 . S
C887 C886 1.363 . S
C887 C893 1.428 . S
H888 C884 0.930 . S
H889 C886 0.929 . S
S890 N891 1.613 . S
S890 N892 1.610 . S
N891 S890 1.613 . S
N891 C894 1.350 . S
N892 S890 1.610 . S
N892 C893 1.351 . S
C893 C887 1.428 . S
C893 N892 1.351 . S
C893 C894 1.434 . S
C894 C885 1.429 . S
C894 N891 1.350 . S
C894 C893 1.434 . S
C895 C896 1.369 . S
C895 C897 1.419 . S
C895 H899 0.930 . S
C896 C895 1.369 . S
C896 C905 1.429 . S
C897 C895 1.419 . S
C897 C898 1.363 . S
C897 H900 0.929 . S
C898 C897 1.363 . S
C898 C904 1.428 . S
H899 C895 0.930 . S
H900 C897 0.929 . S
S901 N902 1.613 . S
S901 N903 1.610 . S
N902 S901 1.613 . S
N902 C905 1.350 . S
N903 S901 1.610 . S
N903 C904 1.351 . S
C904 C898 1.428 . S
C904 N903 1.351 . S
C904 C905 1.434 . S
C905 C896 1.429 . S
C905 N902 1.350 . S
C905 C904 1.434 . S
C906 C907 1.369 . S
C906 C908 1.419 . S
C906 H910 0.930 . S
C907 C906 1.369 . S
C907 C916 1.429 . S
C908 C906 1.419 . S
C908 C909 1.363 . S
C908 H911 0.929 . S
C909 C908 1.363 . S
C909 C915 1.428 . S
H910 C906 0.930 . S
H911 C908 0.929 . S
S912 N913 1.613 . S
S912 N914 1.610 . S
N913 S912 1.613 . S
N913 C916 1.350 . S
N914 S912 1.610 . S
N914 C915 1.351 . S
C915 C909 1.428 . S
C915 N914 1.351 . S
C915 C916 1.434 . S
C916 C907 1.429 . S
C916 N913 1.350 . S
C916 C915 1.434 . S
C917 C918 1.369 . S
C917 C919 1.419 . S
C917 H921 0.930 . S
C918 C917 1.369 . S
C918 C927 1.429 . S
C919 C917 1.419 . S
C919 C920 1.363 . S
C919 H922 0.929 . S
C920 C919 1.363 . S
C920 C926 1.428 . S
H921 C917 0.930 . S
H922 C919 0.929 . S
S923 N924 1.613 . S
S923 N925 1.610 . S
N924 S923 1.613 . S
N924 C927 1.350 . S
N925 S923 1.610 . S
N925 C926 1.351 . S
C926 C920 1.428 . S
C926 N925 1.351 . S
C926 C927 1.434 . S
C927 C918 1.429 . S
C927 N924 1.350 . S
C927 C926 1.434 . S
C928 C929 1.369 . S
C928 C930 1.419 . S
C928 H932 0.930 . S
C929 C928 1.369 . S
C929 C938 1.429 . S
C930 C928 1.419 . S
C930 C931 1.363 . S
C930 H933 0.929 . S
C931 C930 1.363 . S
C931 C937 1.428 . S
H932 C928 0.930 . S
H933 C930 0.929 . S
S934 N935 1.613 . S
S934 N936 1.610 . S
N935 S934 1.613 . S
N935 C938 1.350 . S
N936 S934 1.610 . S
N936 C937 1.351 . S
C937 C931 1.428 . S
C937 N936 1.351 . S
C937 C938 1.434 . S
C938 C929 1.429 . S
C938 N935 1.350 . S
C938 C937 1.434 . S
C939 C940 1.369 . S
C939 C941 1.419 . S
C939 H943 0.930 . S
C940 C939 1.369 . S
C940 C949 1.429 . S
C941 C939 1.419 . S
C941 C942 1.363 . S
C941 H944 0.929 . S
C942 C941 1.363 . S
C942 C948 1.428 . S
H943 C939 0.930 . S
H944 C941 0.929 . S
S945 N946 1.613 . S
S945 N947 1.610 . S
N946 S945 1.613 . S
N946 C949 1.350 . S
N947 S945 1.610 . S
N947 C948 1.351 . S
C948 C942 1.428 . S
C948 N947 1.351 . S
C948 C949 1.434 . S
C949 C940 1.429 . S
C949 N946 1.350 . S
C949 C948 1.434 . S
C950 C951 1.369 . S
C950 C952 1.419 . S
C950 H954 0.930 . S
C951 C950 1.369 . S
C951 C960 1.429 . S
C952 C950 1.419 . S
C952 C953 1.363 . S
C952 H955 0.929 . S
C953 C952 1.363 . S
C953 C959 1.428 . S
H954 C950 0.930 . S
H955 C952 0.929 . S
S956 N957 1.613 . S
S956 N958 1.610 . S
N957 S956 1.613 . S
N957 C960 1.350 . S
N958 S956 1.610 . S
N958 C959 1.351 . S
C959 C953 1.428 . S
C959 N958 1.351 . S
C959 C960 1.434 . S
C960 C951 1.429 . S
C960 N957 1.350 . S
C960 C959 1.434 . S
C961 C962 1.369 . S
C961 C963 1.419 . S
C961 H965 0.930 . S
C962 C961 1.369 . S
C962 C971 1.429 . S
C963 C961 1.419 . S
C963 C964 1.363 . S
C963 H966 0.929 . S
C964 C963 1.363 . S
C964 C970 1.428 . S
H965 C961 0.930 . S
H966 C963 0.929 . S
S967 N968 1.613 . S
S967 N969 1.610 . S
N968 S967 1.613 . S
N968 C971 1.350 . S
N969 S967 1.610 . S
N969 C970 1.351 . S
C970 C964 1.428 . S
C970 N969 1.351 . S
C970 C971 1.434 . S
C971 C962 1.429 . S
C971 N968 1.350 . S
C971 C970 1.434 . S
C972 C973 1.369 . S
C972 C974 1.419 . S
C972 H976 0.930 . S
C973 C972 1.369 . S
C973 C982 1.429 . S
C974 C972 1.419 . S
C974 C975 1.363 . S
C974 H977 0.929 . S
C975 C974 1.363 . S
C975 C981 1.428 . S
H976 C972 0.930 . S
H977 C974 0.929 . S
S978 N979 1.613 . S
S978 N980 1.610 . S
N979 S978 1.613 . S
N979 C982 1.350 . S
N980 S978 1.610 . S
N980 C981 1.351 . S
C981 C975 1.428 . S
C981 N980 1.351 . S
C981 C982 1.434 . S
C982 C973 1.429 . S
C982 N979 1.350 . S
C982 C981 1.434 . S
C983 C984 1.369 . S
C983 C985 1.419 . S
C983 H987 0.930 . S
C984 C983 1.369 . S
C984 C993 1.429 . S
C985 C983 1.419 . S
C985 C986 1.363 . S
C985 H988 0.929 . S
C986 C985 1.363 . S
C986 C992 1.428 . S
H987 C983 0.930 . S
H988 C985 0.929 . S
S989 N990 1.613 . S
S989 N991 1.610 . S
N990 S989 1.613 . S
N990 C993 1.350 . S
N991 S989 1.610 . S
N991 C992 1.351 . S
C992 C986 1.428 . S
C992 N991 1.351 . S
C992 C993 1.434 . S
C993 C984 1.429 . S
C993 N990 1.350 . S
C993 C992 1.434 . S
C994 C995 1.369 . S
C994 C996 1.419 . S
C994 H998 0.930 . S
C995 C994 1.369 . S
C995 C1004 1.429 . S
C996 C994 1.419 . S
C996 C997 1.363 . S
C996 H999 0.929 . S
C997 C996 1.363 . S
C997 C1003 1.428 . S
H998 C994 0.930 . S
H999 C996 0.929 . S
S1000 N1001 1.613 . S
S1000 N1002 1.610 . S
N1001 S1000 1.613 . S
N1001 C1004 1.350 . S
N1002 S1000 1.610 . S
N1002 C1003 1.351 . S
C1003 C997 1.428 . S
C1003 N1002 1.351 . S
C1003 C1004 1.434 . S
C1004 C995 1.429 . S
C1004 N1001 1.350 . S
C1004 C1003 1.434 . S
C1005 C1006 1.369 . S
C1005 C1007 1.419 . S
C1005 H1009 0.930 . S
C1006 C1005 1.369 . S
C1006 C1015 1.429 . S
C1007 C1005 1.419 . S
C1007 C1008 1.363 . S
C1007 H1010 0.929 . S
C1008 C1007 1.363 . S
C1008 C1014 1.428 . S
H1009 C1005 0.930 . S
H1010 C1007 0.929 . S
S1011 N1012 1.613 . S
S1011 N1013 1.610 1_554 S
N1012 S1011 1.613 . S
N1012 C1015 1.350 . S
N1013 S1011 1.610 1_556 S
N1013 C1014 1.351 1_556 S
C1014 C1008 1.428 . S
C1014 N1013 1.351 1_554 S
C1014 C1015 1.434 . S
C1015 C1006 1.429 . S
C1015 N1012 1.350 . S
C1015 C1014 1.434 . S
C1016 C1017 1.369 . S
C1016 C1018 1.419 . S
C1016 H1020 0.930 . S
C1017 C1016 1.369 . S
C1017 C1026 1.429 . S
C1018 C1016 1.419 . S
C1018 C1019 1.363 . S
C1018 H1021 0.929 . S
C1019 C1018 1.363 . S
C1019 C1025 1.428 . S
H1020 C1016 0.930 . S
H1021 C1018 0.929 . S
S1022 N1023 1.613 . S
S1022 N1024 1.610 . S
N1023 S1022 1.613 . S
N1023 C1026 1.350 . S
N1024 S1022 1.610 . S
N1024 C1025 1.351 . S
C1025 C1019 1.428 . S
C1025 N1024 1.351 . S
C1025 C1026 1.434 . S
C1026 C1017 1.429 . S
C1026 N1023 1.350 . S
C1026 C1025 1.434 . S
C1027 C1028 1.369 . S
C1027 C1029 1.419 . S
C1027 H1031 0.930 . S
C1028 C1027 1.369 . S
C1028 C1037 1.429 . S
C1029 C1027 1.419 . S
C1029 C1030 1.363 . S
C1029 H1032 0.929 . S
C1030 C1029 1.363 . S
C1030 C1036 1.428 . S
H1031 C1027 0.930 . S
H1032 C1029 0.929 . S
S1033 N1034 1.613 1_554 S
S1033 N1035 1.610 . S
N1034 S1033 1.613 1_556 S
N1034 C1037 1.350 . S
N1035 S1033 1.610 . S
N1035 C1036 1.351 1_554 S
C1036 C1030 1.428 . S
C1036 N1035 1.351 1_556 S
C1036 C1037 1.434 . S
C1037 C1028 1.429 . S
C1037 N1034 1.350 . S
C1037 C1036 1.434 . S
C1038 C1039 1.369 . S
C1038 C1040 1.419 . S
C1038 H1042 0.930 . S
C1039 C1038 1.369 . S
C1039 C1048 1.429 . S
C1040 C1038 1.419 . S
C1040 C1041 1.363 . S
C1040 H1043 0.929 . S
C1041 C1040 1.363 . S
C1041 C1047 1.428 . S
H1042 C1038 0.930 . S
H1043 C1040 0.929 . S
S1044 N1045 1.613 . S
S1044 N1046 1.610 . S
N1045 S1044 1.613 . S
N1045 C1048 1.350 . S
N1046 S1044 1.610 . S
N1046 C1047 1.351 . S
C1047 C1041 1.428 . S
C1047 N1046 1.351 . S
C1047 C1048 1.434 . S
C1048 C1039 1.429 . S
C1048 N1045 1.350 . S
C1048 C1047 1.434 . S
C1049 C1050 1.369 . S
C1049 C1051 1.419 . S
C1049 H1053 0.930 . S
C1050 C1049 1.369 . S
C1050 C1059 1.429 . S
C1051 C1049 1.419 . S
C1051 C1052 1.363 . S
C1051 H1054 0.929 . S
C1052 C1051 1.363 . S
C1052 C1058 1.428 . S
H1053 C1049 0.930 . S
H1054 C1051 0.929 . S
S1055 N1056 1.613 . S
S1055 N1057 1.610 . S
N1056 S1055 1.613 . S
N1056 C1059 1.350 . S
N1057 S1055 1.610 . S
N1057 C1058 1.351 . S
C1058 C1052 1.428 . S
C1058 N1057 1.351 . S
C1058 C1059 1.434 . S
C1059 C1050 1.429 . S
C1059 N1056 1.350 . S
C1059 C1058 1.434 . S
C1060 C1061 1.369 . S
C1060 C1062 1.419 . S
C1060 H1064 0.930 . S
C1061 C1060 1.369 . S
C1061 C1070 1.429 . S
C1062 C1060 1.419 . S
C1062 C1063 1.363 . S
C1062 H1065 0.929 . S
C1063 C1062 1.363 . S
C1063 C1069 1.428 . S
H1064 C1060 0.930 . S
H1065 C1062 0.929 . S
S1066 N1067 1.613 . S
S1066 N1068 1.610 . S
N1067 S1066 1.613 . S
N1067 C1070 1.350 . S
N1068 S1066 1.610 . S
N1068 C1069 1.351 . S
C1069 C1063 1.428 . S
C1069 N1068 1.351 . S
C1069 C1070 1.434 . S
C1070 C1061 1.429 . S
C1070 N1067 1.350 . S
C1070 C1069 1.434 . S
C1071 C1072 1.369 . S
C1071 C1073 1.419 . S
C1071 H1075 0.930 . S
C1072 C1071 1.369 . S
C1072 C1081 1.429 . S
C1073 C1071 1.419 . S
C1073 C1074 1.363 . S
C1073 H1076 0.929 . S
C1074 C1073 1.363 . S
C1074 C1080 1.428 . S
H1075 C1071 0.930 . S
H1076 C1073 0.929 . S
S1077 N1078 1.613 . S
S1077 N1079 1.610 . S
N1078 S1077 1.613 . S
N1078 C1081 1.350 . S
N1079 S1077 1.610 . S
N1079 C1080 1.351 . S
C1080 C1074 1.428 . S
C1080 N1079 1.351 . S
C1080 C1081 1.434 . S
C1081 C1072 1.429 . S
C1081 N1078 1.350 . S
C1081 C1080 1.434 . S
C1082 C1083 1.369 . S
C1082 C1084 1.419 . S
C1082 H1086 0.930 . S
C1083 C1082 1.369 . S
C1083 C1092 1.429 . S
C1084 C1082 1.419 . S
C1084 C1085 1.363 . S
C1084 H1087 0.929 . S
C1085 C1084 1.363 . S
C1085 C1091 1.428 . S
H1086 C1082 0.930 . S
H1087 C1084 0.929 . S
S1088 N1089 1.613 . S
S1088 N1090 1.610 . S
N1089 S1088 1.613 . S
N1089 C1092 1.350 . S
N1090 S1088 1.610 . S
N1090 C1091 1.351 . S
C1091 C1085 1.428 . S
C1091 N1090 1.351 . S
C1091 C1092 1.434 . S
C1092 C1083 1.429 . S
C1092 N1089 1.350 . S
C1092 C1091 1.434 . S
C1093 C1094 1.369 . S
C1093 C1095 1.419 . S
C1093 H1097 0.930 . S
C1094 C1093 1.369 . S
C1094 C1103 1.429 . S
C1095 C1093 1.419 . S
C1095 C1096 1.363 . S
C1095 H1098 0.929 . S
C1096 C1095 1.363 . S
C1096 C1102 1.428 . S
H1097 C1093 0.930 . S
H1098 C1095 0.929 . S
S1099 N1100 1.613 1_545 S
S1099 N1101 1.610 . S
N1100 S1099 1.613 1_565 S
N1100 C1103 1.350 . S
N1101 S1099 1.610 . S
N1101 C1102 1.351 1_545 S
C1102 C1096 1.428 . S
C1102 N1101 1.351 1_565 S
C1102 C1103 1.434 . S
C1103 C1094 1.429 . S
C1103 N1100 1.350 . S
C1103 C1102 1.434 . S
C1104 C1105 1.369 . S
C1104 C1106 1.419 . S
C1104 H1108 0.930 . S
C1105 C1104 1.369 . S
C1105 C1114 1.429 . S
C1106 C1104 1.419 . S
C1106 C1107 1.363 . S
C1106 H1109 0.929 . S
C1107 C1106 1.363 . S
C1107 C1113 1.428 . S
H1108 C1104 0.930 . S
H1109 C1106 0.929 . S
S1110 N1111 1.613 . S
S1110 N1112 1.610 . S
N1111 S1110 1.613 . S
N1111 C1114 1.350 . S
N1112 S1110 1.610 . S
N1112 C1113 1.351 . S
C1113 C1107 1.428 . S
C1113 N1112 1.351 . S
C1113 C1114 1.434 . S
C1114 C1105 1.429 . S
C1114 N1111 1.350 . S
C1114 C1113 1.434 . S
C1115 C1116 1.369 . S
C1115 C1117 1.419 . S
C1115 H1119 0.930 . S
C1116 C1115 1.369 . S
C1116 C1125 1.429 . S
C1117 C1115 1.419 . S
C1117 C1118 1.363 . S
C1117 H1120 0.929 . S
C1118 C1117 1.363 . S
C1118 C1124 1.428 . S
H1119 C1115 0.930 . S
H1120 C1117 0.929 . S
S1121 N1122 1.613 . S
S1121 N1123 1.610 . S
N1122 S1121 1.613 . S
N1122 C1125 1.350 . S
N1123 S1121 1.610 . S
N1123 C1124 1.351 . S
C1124 C1118 1.428 . S
C1124 N1123 1.351 . S
C1124 C1125 1.434 . S
C1125 C1116 1.429 . S
C1125 N1122 1.350 . S
C1125 C1124 1.434 . S
C1126 C1127 1.369 . S
C1126 C1128 1.419 . S
C1126 H1130 0.930 . S
C1127 C1126 1.369 . S
C1127 C1136 1.429 . S
C1128 C1126 1.419 . S
C1128 C1129 1.363 . S
C1128 H1131 0.929 . S
C1129 C1128 1.363 . S
C1129 C1135 1.428 . S
H1130 C1126 0.930 . S
H1131 C1128 0.929 . S
S1132 N1133 1.613 . S
S1132 N1134 1.610 . S
N1133 S1132 1.613 . S
N1133 C1136 1.350 . S
N1134 S1132 1.610 . S
N1134 C1135 1.351 . S
C1135 C1129 1.428 . S
C1135 N1134 1.351 . S
C1135 C1136 1.434 . S
C1136 C1127 1.429 . S
C1136 N1133 1.350 . S
C1136 C1135 1.434 . S
C1137 C1138 1.369 . S
C1137 C1139 1.419 . S
C1137 H1141 0.930 . S
C1138 C1137 1.369 . S
C1138 C1147 1.429 . S
C1139 C1137 1.419 . S
C1139 C1140 1.363 . S
C1139 H1142 0.929 1_565 S
C1140 C1139 1.363 . S
C1140 C1146 1.428 . S
H1141 C1137 0.930 . S
H1142 C1139 0.929 1_545 S
S1143 N1144 1.613 . S
S1143 N1145 1.610 . S
N1144 S1143 1.613 . S
N1144 C1147 1.350 . S
N1145 S1143 1.610 . S
N1145 C1146 1.351 . S
C1146 C1140 1.428 . S
C1146 N1145 1.351 . S
C1146 C1147 1.434 . S
C1147 C1138 1.429 . S
C1147 N1144 1.350 . S
C1147 C1146 1.434 . S
C1148 C1149 1.369 . S
C1148 C1150 1.419 . S
C1148 H1152 0.930 . S
C1149 C1148 1.369 . S
C1149 C1158 1.429 . S
C1150 C1148 1.419 . S
C1150 C1151 1.363 . S
C1150 H1153 0.929 . S
C1151 C1150 1.363 . S
C1151 C1157 1.428 . S
H1152 C1148 0.930 . S
H1153 C1150 0.929 . S
S1154 N1155 1.613 . S
S1154 N1156 1.610 . S
N1155 S1154 1.613 . S
N1155 C1158 1.350 . S
N1156 S1154 1.610 . S
N1156 C1157 1.351 . S
C1157 C1151 1.428 . S
C1157 N1156 1.351 . S
C1157 C1158 1.434 . S
C1158 C1149 1.429 . S
C1158 N1155 1.350 . S
C1158 C1157 1.434 . S
C1159 C1160 1.369 . S
C1159 C1161 1.419 . S
C1159 H1163 0.930 . S
C1160 C1159 1.369 . S
C1160 C1169 1.429 . S
C1161 C1159 1.419 . S
C1161 C1162 1.363 . S
C1161 H1164 0.929 . S
C1162 C1161 1.363 . S
C1162 C1168 1.428 . S
H1163 C1159 0.930 . S
H1164 C1161 0.929 . S
S1165 N1166 1.613 . S
S1165 N1167 1.610 . S
N1166 S1165 1.613 . S
N1166 C1169 1.350 . S
N1167 S1165 1.610 . S
N1167 C1168 1.351 . S
C1168 C1162 1.428 . S
C1168 N1167 1.351 . S
C1168 C1169 1.434 . S
C1169 C1160 1.429 . S
C1169 N1166 1.350 . S
C1169 C1168 1.434 . S
C1170 C1171 1.369 . S
C1170 C1172 1.419 . S
C1170 H1174 0.930 . S
C1171 C1170 1.369 . S
C1171 C1180 1.429 . S
C1172 C1170 1.419 . S
C1172 C1173 1.363 . S
C1172 H1175 0.929 . S
C1173 C1172 1.363 . S
C1173 C1179 1.428 . S
H1174 C1170 0.930 . S
H1175 C1172 0.929 . S
S1176 N1177 1.613 . S
S1176 N1178 1.610 . S
N1177 S1176 1.613 . S
N1177 C1180 1.350 . S
N1178 S1176 1.610 . S
N1178 C1179 1.351 . S
C1179 C1173 1.428 . S
C1179 N1178 1.351 . S
C1179 C1180 1.434 . S
C1180 C1171 1.429 . S
C1180 N1177 1.350 . S
C1180 C1179 1.434 . S
C1181 C1182 1.369 . S
C1181 C1183 1.419 . S
C1181 H1185 0.930 . S
C1182 C1181 1.369 . S
C1182 C1191 1.429 . S
C1183 C1181 1.419 . S
C1183 C1184 1.363 . S
C1183 H1186 0.929 . S
C1184 C1183 1.363 . S
C1184 C1190 1.428 . S
H1185 C1181 0.930 . S
H1186 C1183 0.929 . S
S1187 N1188 1.623 . S
S1187 N1189 1.610 1_554 S
N1188 S1187 1.623 . S
N1188 C1191 1.332 1_554 S
N1189 S1187 1.610 1_556 S
N1189 C1190 1.351 . S
C1190 C1184 1.428 . S
C1190 N1189 1.351 . S
C1190 C1191 1.434 . S
C1191 C1182 1.429 . S
C1191 N1188 1.332 1_556 S
C1191 C1190 1.434 . S
C1192 C1193 1.369 . S
C1192 C1194 1.419 . S
C1192 H1196 0.930 . S
C1193 C1192 1.369 . S
C1193 C1202 1.429 . S
C1194 C1192 1.419 . S
C1194 C1195 1.363 . S
C1194 H1197 0.929 . S
C1195 C1194 1.363 . S
C1195 C1201 1.428 . S
H1196 C1192 0.930 . S
H1197 C1194 0.929 . S
S1198 N1199 1.613 . S
S1198 N1200 1.610 . S
N1199 S1198 1.613 . S
N1199 C1202 1.350 . S
N1200 S1198 1.610 . S
N1200 C1201 1.351 . S
C1201 C1195 1.428 . S
C1201 N1200 1.351 . S
C1201 C1202 1.434 . S
C1202 C1193 1.429 . S
C1202 N1199 1.350 . S
C1202 C1201 1.434 . S
C1203 C1204 1.369 . S
C1203 C1205 1.419 . S
C1203 H1207 0.930 . S
C1204 C1203 1.369 . S
C1204 C1213 1.429 . S
C1205 C1203 1.419 . S
C1205 C1206 1.363 . S
C1205 H1208 0.929 . S
C1206 C1205 1.363 . S
C1206 C1212 1.428 . S
H1207 C1203 0.930 . S
H1208 C1205 0.929 . S
S1209 N1210 1.613 . S
S1209 N1211 1.610 . S
N1210 S1209 1.613 . S
N1210 C1213 1.350 . S
N1211 S1209 1.610 . S
N1211 C1212 1.351 . S
C1212 C1206 1.428 . S
C1212 N1211 1.351 . S
C1212 C1213 1.434 . S
C1213 C1204 1.429 . S
C1213 N1210 1.350 . S
C1213 C1212 1.434 . S
C1214 C1215 1.369 . S
C1214 C1216 1.419 . S
C1214 H1218 0.930 . S
C1215 C1214 1.369 . S
C1215 C1224 1.429 . S
C1216 C1214 1.419 . S
C1216 C1217 1.363 . S
C1216 H1219 0.929 . S
C1217 C1216 1.363 . S
C1217 C1223 1.428 . S
H1218 C1214 0.930 . S
H1219 C1216 0.929 . S
S1220 N1221 1.613 . S
S1220 N1222 1.610 . S
N1221 S1220 1.613 . S
N1221 C1224 1.350 . S
N1222 S1220 1.610 . S
N1222 C1223 1.351 . S
C1223 C1217 1.428 . S
C1223 N1222 1.351 . S
C1223 C1224 1.434 . S
C1224 C1215 1.429 . S
C1224 N1221 1.350 . S
C1224 C1223 1.434 . S
C1225 C1226 1.369 . S
C1225 C1227 1.419 . S
C1225 H1229 0.930 . S
C1226 C1225 1.369 . S
C1226 C1235 1.429 . S
C1227 C1225 1.419 . S
C1227 C1228 1.363 . S
C1227 H1230 0.929 . S
C1228 C1227 1.363 . S
C1228 C1234 1.428 . S
H1229 C1225 0.930 . S
H1230 C1227 0.929 . S
S1231 N1232 1.613 . S
S1231 N1233 1.610 . S
N1232 S1231 1.613 . S
N1232 C1235 1.350 . S
N1233 S1231 1.610 . S
N1233 C1234 1.351 . S
C1234 C1228 1.428 . S
C1234 N1233 1.351 . S
C1234 C1235 1.434 . S
C1235 C1226 1.429 . S
C1235 N1232 1.350 . S
C1235 C1234 1.434 . S
C1236 C1237 1.369 . S
C1236 C1238 1.419 . S
C1236 H1240 0.930 . S
C1237 C1236 1.369 . S
C1237 C1246 1.429 . S
C1238 C1236 1.419 . S
C1238 C1239 1.363 . S
C1238 H1241 0.929 . S
C1239 C1238 1.363 . S
C1239 C1245 1.428 . S
H1240 C1236 0.930 . S
H1241 C1238 0.929 . S
S1242 N1243 1.613 . S
S1242 N1244 1.610 . S
N1243 S1242 1.613 . S
N1243 C1246 1.350 . S
N1244 S1242 1.610 . S
N1244 C1245 1.351 . S
C1245 C1239 1.428 . S
C1245 N1244 1.351 . S
C1245 C1246 1.434 . S
C1246 C1237 1.429 . S
C1246 N1243 1.350 . S
C1246 C1245 1.434 . S
C1247 C1248 1.369 . S
C1247 C1249 1.419 . S
C1247 H1251 0.930 . S
C1248 C1247 1.369 . S
C1248 C1257 1.429 . S
C1249 C1247 1.419 . S
C1249 C1250 1.363 . S
C1249 H1252 0.929 . S
C1250 C1249 1.363 . S
C1250 C1256 1.428 . S
H1251 C1247 0.930 . S
H1252 C1249 0.929 . S
S1253 N1254 1.613 . S
S1253 N1255 1.610 . S
N1254 S1253 1.613 . S
N1254 C1257 1.350 . S
N1255 S1253 1.610 . S
N1255 C1256 1.351 . S
C1256 C1250 1.428 . S
C1256 N1255 1.351 . S
C1256 C1257 1.434 . S
C1257 C1248 1.429 . S
C1257 N1254 1.350 . S
C1257 C1256 1.434 . S
C1258 C1259 1.369 . S
C1258 C1260 1.419 . S
C1258 H1262 0.930 . S
C1259 C1258 1.369 . S
C1259 C1268 1.429 . S
C1260 C1258 1.419 . S
C1260 C1261 1.363 . S
C1260 H1263 0.929 . S
C1261 C1260 1.363 . S
C1261 C1267 1.428 . S
H1262 C1258 0.930 . S
H1263 C1260 0.929 . S
S1264 N1265 1.613 . S
S1264 N1266 1.610 . S
N1265 S1264 1.613 . S
N1265 C1268 1.350 . S
N1266 S1264 1.610 . S
N1266 C1267 1.351 . S
C1267 C1261 1.428 . S
C1267 N1266 1.351 . S
C1267 C1268 1.434 . S
C1268 C1259 1.429 . S
C1268 N1265 1.350 . S
C1268 C1267 1.434 . S
C1269 C1270 1.369 . S
C1269 C1271 1.419 . S
C1269 H1273 0.930 . S
C1270 C1269 1.369 . S
C1270 C1279 1.429 . S
C1271 C1269 1.419 . S
C1271 C1272 1.363 . S
C1271 H1274 0.929 . S
C1272 C1271 1.363 . S
C1272 C1278 1.428 . S
H1273 C1269 0.930 . S
H1274 C1271 0.929 . S
S1275 N1276 1.613 . S
S1275 N1277 1.610 . S
N1276 S1275 1.613 . S
N1276 C1279 1.350 . S
N1277 S1275 1.610 . S
N1277 C1278 1.351 . S
C1278 C1272 1.428 . S
C1278 N1277 1.351 . S
C1278 C1279 1.434 . S
C1279 C1270 1.429 . S
C1279 N1276 1.350 . S
C1279 C1278 1.434 . S
C1280 C1281 1.369 . S
C1280 C1282 1.419 . S
C1280 H1284 0.930 . S
C1281 C1280 1.369 . S
C1281 C1290 1.429 . S
C1282 C1280 1.419 . S
C1282 C1283 1.363 . S
C1282 H1285 0.929 . S
C1283 C1282 1.363 . S
C1283 C1289 1.428 . S
H1284 C1280 0.930 . S
H1285 C1282 0.929 . S
S1286 N1287 1.613 . S
S1286 N1288 1.610 . S
N1287 S1286 1.613 . S
N1287 C1290 1.350 . S
N1288 S1286 1.610 . S
N1288 C1289 1.351 . S
C1289 C1283 1.428 . S
C1289 N1288 1.351 . S
C1289 C1290 1.434 . S
C1290 C1281 1.429 . S
C1290 N1287 1.350 . S
C1290 C1289 1.434 . S
C1291 C1292 1.369 . S
C1291 C1293 1.419 . S
C1291 H1295 0.930 . S
C1292 C1291 1.369 . S
C1292 C1301 1.429 . S
C1293 C1291 1.419 . S
C1293 C1294 1.363 . S
C1293 H1296 0.929 . S
C1294 C1293 1.363 . S
C1294 C1300 1.428 . S
H1295 C1291 0.930 . S
H1296 C1293 0.929 . S
S1297 N1298 1.613 1_655 S
S1297 N1299 1.610 . S
N1298 S1297 1.613 1_455 S
N1298 C1301 1.350 . S
N1299 S1297 1.610 . S
N1299 C1300 1.351 1_655 S
C1300 C1294 1.428 . S
C1300 N1299 1.351 1_455 S
C1300 C1301 1.434 . S
C1301 C1292 1.429 . S
C1301 N1298 1.350 . S
C1301 C1300 1.434 . S
C1302 C1303 1.369 . S
C1302 C1304 1.419 . S
C1302 H1306 0.930 . S
C1303 C1302 1.369 . S
C1303 C1312 1.429 . S
C1304 C1302 1.419 . S
C1304 C1305 1.363 . S
C1304 H1307 0.929 . S
C1305 C1304 1.363 . S
C1305 C1311 1.428 . S
H1306 C1302 0.930 . S
H1307 C1304 0.929 . S
S1308 N1309 1.613 . S
S1308 N1310 1.610 . S
N1309 S1308 1.613 . S
N1309 C1312 1.350 . S
N1310 S1308 1.610 . S
N1310 C1311 1.351 . S
C1311 C1305 1.428 . S
C1311 N1310 1.351 . S
C1311 C1312 1.434 . S
C1312 C1303 1.429 . S
C1312 N1309 1.350 . S
C1312 C1311 1.434 . S
C1313 C1314 1.369 . S
C1313 C1315 1.419 . S
C1313 H1317 0.930 . S
C1314 C1313 1.369 . S
C1314 C1323 1.429 . S
C1315 C1313 1.419 . S
C1315 C1316 1.363 . S
C1315 H1318 0.920 1_655 S
C1316 C1315 1.363 . S
C1316 C1322 1.428 . S
H1317 C1313 0.930 . S
H1318 C1315 0.920 1_455 S
S1319 N1320 1.613 . S
S1319 N1321 1.610 . S
N1320 S1319 1.613 . S
N1320 C1323 1.350 . S
N1321 S1319 1.610 . S
N1321 C1322 1.351 . S
C1322 C1316 1.428 . S
C1322 N1321 1.351 . S
C1322 C1323 1.434 . S
C1323 C1314 1.429 . S
C1323 N1320 1.350 . S
C1323 C1322 1.434 . S
C1324 C1325 1.369 . S
C1324 C1326 1.419 . S
C1324 H1328 0.930 . S
C1325 C1324 1.369 . S
C1325 C1334 1.429 . S
C1326 C1324 1.419 . S
C1326 C1327 1.363 . S
C1326 H1329 0.929 . S
C1327 C1326 1.363 . S
C1327 C1333 1.428 . S
H1328 C1324 0.930 . S
H1329 C1326 0.929 . S
S1330 N1331 1.613 . S
S1330 N1332 1.610 . S
N1331 S1330 1.613 . S
N1331 C1334 1.350 . S
N1332 S1330 1.610 . S
N1332 C1333 1.351 . S
C1333 C1327 1.428 . S
C1333 N1332 1.351 . S
C1333 C1334 1.434 . S
C1334 C1325 1.429 . S
C1334 N1331 1.350 . S
C1334 C1333 1.434 . S
C1335 C1336 1.369 . S
C1335 C1337 1.419 . S
C1335 H1339 0.930 . S
C1336 C1335 1.369 . S
C1336 C1345 1.429 . S
C1337 C1335 1.419 . S
C1337 C1338 1.363 . S
C1337 H1340 0.929 . S
C1338 C1337 1.363 . S
C1338 C1344 1.428 . S
H1339 C1335 0.930 . S
H1340 C1337 0.929 . S
S1341 N1342 1.613 . S
S1341 N1343 1.610 . S
N1342 S1341 1.613 . S
N1342 C1345 1.350 1_556 S
N1343 S1341 1.610 . S
N1343 C1344 1.351 1_556 S
C1344 C1338 1.428 . S
C1344 N1343 1.351 1_554 S
C1344 C1345 1.434 . S
C1345 C1336 1.429 . S
C1345 N1342 1.350 1_554 S
C1345 C1344 1.434 . S
C1346 C1347 1.369 . S
C1346 C1348 1.419 . S
C1346 H1350 0.930 . S
C1347 C1346 1.369 . S
C1347 C1356 1.429 . S
C1348 C1346 1.419 . S
C1348 C1349 1.363 . S
C1348 H1351 0.929 . S
C1349 C1348 1.363 . S
C1349 C1355 1.428 . S
H1350 C1346 0.930 . S
H1351 C1348 0.929 . S
S1352 N1353 1.613 . S
S1352 N1354 1.610 . S
N1353 S1352 1.613 . S
N1353 C1356 1.350 . S
N1354 S1352 1.610 . S
N1354 C1355 1.351 . S
C1355 C1349 1.428 . S
C1355 N1354 1.351 . S
C1355 C1356 1.434 . S
C1356 C1347 1.429 . S
C1356 N1353 1.350 . S
C1356 C1355 1.434 . S
C1357 C1358 1.369 . S
C1357 C1359 1.419 . S
C1357 H1361 0.930 . S
C1358 C1357 1.369 . S
C1358 C1367 1.429 . S
C1359 C1357 1.419 . S
C1359 C1360 1.363 . S
C1359 H1362 0.929 . S
C1360 C1359 1.363 . S
C1360 C1366 1.428 . S
H1361 C1357 0.930 . S
H1362 C1359 0.929 . S
S1363 N1364 1.613 . S
S1363 N1365 1.610 . S
N1364 S1363 1.613 . S
N1364 C1367 1.350 1_556 S
N1365 S1363 1.610 . S
N1365 C1366 1.351 1_556 S
C1366 C1360 1.428 . S
C1366 N1365 1.351 1_554 S
C1366 C1367 1.434 . S
C1367 C1358 1.429 . S
C1367 N1364 1.350 1_554 S
C1367 C1366 1.434 . S
C1368 C1369 1.369 . S
C1368 C1370 1.419 . S
C1368 H1372 0.930 . S
C1369 C1368 1.369 . S
C1369 C1378 1.429 . S
C1370 C1368 1.419 . S
C1370 C1371 1.363 . S
C1370 H1373 0.929 . S
C1371 C1370 1.363 . S
C1371 C1377 1.428 . S
H1372 C1368 0.930 . S
H1373 C1370 0.929 . S
S1374 N1375 1.613 . S
S1374 N1376 1.610 . S
N1375 S1374 1.613 . S
N1375 C1378 1.350 . S
N1376 S1374 1.610 . S
N1376 C1377 1.351 . S
C1377 C1371 1.428 . S
C1377 N1376 1.351 . S
C1377 C1378 1.434 . S
C1378 C1369 1.429 . S
C1378 N1375 1.350 . S
C1378 C1377 1.434 . S
C1379 C1380 1.369 . S
C1379 C1381 1.419 . S
C1379 H1383 0.930 . S
C1380 C1379 1.369 . S
C1380 C1389 1.429 . S
C1381 C1379 1.419 . S
C1381 C1382 1.363 . S
C1381 H1384 0.929 . S
C1382 C1381 1.363 . S
C1382 C1388 1.428 . S
H1383 C1379 0.930 . S
H1384 C1381 0.929 . S
S1385 N1386 1.613 1_554 S
S1385 N1387 1.609 1_554 S
N1386 S1385 1.613 1_556 S
N1386 C1389 1.350 . S
N1387 S1385 1.609 1_556 S
N1387 C1388 1.358 . S
C1388 C1382 1.428 . S
C1388 N1387 1.358 . S
C1388 C1389 1.434 . S
C1389 C1380 1.429 . S
C1389 N1386 1.350 . S
C1389 C1388 1.434 . S
C1390 C1391 1.369 . S
C1390 C1392 1.419 . S
C1390 H1394 0.930 . S
C1391 C1390 1.369 . S
C1391 C1400 1.429 . S
C1392 C1390 1.419 . S
C1392 C1393 1.363 . S
C1392 H1395 0.929 . S
C1393 C1392 1.363 . S
C1393 C1399 1.428 . S
H1394 C1390 0.930 . S
H1395 C1392 0.929 . S
S1396 N1397 1.613 . S
S1396 N1398 1.610 . S
N1397 S1396 1.613 . S
N1397 C1400 1.350 . S
N1398 S1396 1.610 . S
N1398 C1399 1.351 . S
C1399 C1393 1.428 . S
C1399 N1398 1.351 . S
C1399 C1400 1.434 . S
C1400 C1391 1.429 . S
C1400 N1397 1.350 . S
C1400 C1399 1.434 . S
C1401 C1402 1.369 . S
C1401 C1403 1.419 . S
C1401 H1405 0.930 . S
C1402 C1401 1.369 . S
C1402 C1411 1.429 . S
C1403 C1401 1.419 . S
C1403 C1404 1.363 . S
C1403 H1406 0.929 1_556 S
C1404 C1403 1.363 . S
C1404 C1410 1.428 . S
H1405 C1401 0.930 . S
H1406 C1403 0.929 1_554 S
S1407 N1408 1.613 . S
S1407 N1409 1.610 . S
N1408 S1407 1.613 . S
N1408 C1411 1.350 . S
N1409 S1407 1.610 . S
N1409 C1410 1.351 . S
C1410 C1404 1.428 . S
C1410 N1409 1.351 . S
C1410 C1411 1.434 . S
C1411 C1402 1.429 . S
C1411 N1408 1.350 . S
C1411 C1410 1.434 . S
C1412 C1413 1.369 . S
C1412 C1414 1.419 . S
C1412 H1416 0.930 . S
C1413 C1412 1.369 . S
C1413 C1422 1.429 . S
C1414 C1412 1.419 . S
C1414 C1415 1.363 . S
C1414 H1417 0.929 . S
C1415 C1414 1.363 . S
C1415 C1421 1.428 . S
H1416 C1412 0.930 . S
H1417 C1414 0.929 . S
S1418 N1419 1.613 . S
S1418 N1420 1.610 . S
N1419 S1418 1.613 . S
N1419 C1422 1.350 . S
N1420 S1418 1.610 . S
N1420 C1421 1.351 . S
C1421 C1415 1.428 . S
C1421 N1420 1.351 . S
C1421 C1422 1.434 . S
C1422 C1413 1.429 . S
C1422 N1419 1.350 . S
C1422 C1421 1.434 . S
C1423 C1424 1.369 . S
C1423 C1425 1.419 . S
C1423 H1427 0.930 . S
C1424 C1423 1.369 . S
C1424 C1433 1.429 . S
C1425 C1423 1.419 . S
C1425 C1426 1.363 . S
C1425 H1428 0.929 . S
C1426 C1425 1.363 . S
C1426 C1432 1.428 . S
H1427 C1423 0.930 . S
H1428 C1425 0.929 . S
S1429 N1430 1.613 . S
S1429 N1431 1.610 . S
N1430 S1429 1.613 . S
N1430 C1433 1.350 . S
N1431 S1429 1.610 . S
N1431 C1432 1.351 . S
C1432 C1426 1.428 . S
C1432 N1431 1.351 . S
C1432 C1433 1.434 . S
C1433 C1424 1.429 . S
C1433 N1430 1.350 . S
C1433 C1432 1.434 . S
C1434 C1435 1.369 . S
C1434 C1436 1.419 . S
C1434 H1438 0.930 . S
C1435 C1434 1.369 . S
C1435 C1444 1.429 . S
C1436 C1434 1.419 . S
C1436 C1437 1.363 . S
C1436 H1439 0.929 . S
C1437 C1436 1.363 . S
C1437 C1443 1.428 . S
H1438 C1434 0.930 . S
H1439 C1436 0.929 . S
S1440 N1441 1.613 . S
S1440 N1442 1.610 . S
N1441 S1440 1.613 . S
N1441 C1444 1.350 . S
N1442 S1440 1.610 . S
N1442 C1443 1.351 . S
C1443 C1437 1.428 . S
C1443 N1442 1.351 . S
C1443 C1444 1.434 . S
C1444 C1435 1.429 . S
C1444 N1441 1.350 . S
C1444 C1443 1.434 . S
C1445 C1446 1.369 . S
C1445 C1447 1.419 . S
C1445 H1449 0.930 . S
C1446 C1445 1.369 . S
C1446 C1455 1.429 . S
C1447 C1445 1.419 . S
C1447 C1448 1.363 . S
C1447 H1450 0.929 . S
C1448 C1447 1.363 . S
C1448 C1454 1.428 . S
H1449 C1445 0.930 . S
H1450 C1447 0.929 . S
S1451 N1452 1.613 . S
S1451 N1453 1.610 . S
N1452 S1451 1.613 . S
N1452 C1455 1.350 . S
N1453 S1451 1.610 . S
N1453 C1454 1.351 . S
C1454 C1448 1.428 . S
C1454 N1453 1.351 . S
C1454 C1455 1.434 . S
C1455 C1446 1.429 . S
C1455 N1452 1.350 . S
C1455 C1454 1.434 . S
C1456 C1457 1.369 . S
C1456 C1458 1.419 . S
C1456 H1460 0.930 . S
C1457 C1456 1.369 . S
C1457 C1466 1.429 . S
C1458 C1456 1.419 . S
C1458 C1459 1.363 . S
C1458 H1461 0.929 . S
C1459 C1458 1.363 . S
C1459 C1465 1.428 . S
H1460 C1456 0.930 . S
H1461 C1458 0.929 . S
S1462 N1463 1.613 . S
S1462 N1464 1.610 . S
N1463 S1462 1.613 . S
N1463 C1466 1.350 . S
N1464 S1462 1.610 . S
N1464 C1465 1.351 . S
C1465 C1459 1.428 . S
C1465 N1464 1.351 . S
C1465 C1466 1.434 . S
C1466 C1457 1.429 . S
C1466 N1463 1.350 . S
C1466 C1465 1.434 . S
C1467 C1468 1.369 . S
C1467 C1469 1.419 . S
C1467 H1471 0.930 . S
C1468 C1467 1.369 . S
C1468 C1477 1.429 . S
C1469 C1467 1.419 . S
C1469 C1470 1.363 . S
C1469 H1472 0.929 . S
C1470 C1469 1.363 . S
C1470 C1476 1.428 . S
H1471 C1467 0.930 . S
H1472 C1469 0.929 . S
S1473 N1474 1.613 . S
S1473 N1475 1.610 . S
N1474 S1473 1.613 . S
N1474 C1477 1.350 . S
N1475 S1473 1.610 . S
N1475 C1476 1.351 . S
C1476 C1470 1.428 . S
C1476 N1475 1.351 . S
C1476 C1477 1.434 . S
C1477 C1468 1.429 . S
C1477 N1474 1.350 . S
C1477 C1476 1.434 . S
C1478 C1479 1.369 . S
C1478 C1480 1.419 . S
C1478 H1482 0.930 . S
C1479 C1478 1.369 . S
C1479 C1488 1.429 . S
C1480 C1478 1.419 . S
C1480 C1481 1.363 . S
C1480 H1483 0.929 . S
C1481 C1480 1.363 . S
C1481 C1487 1.428 . S
H1482 C1478 0.930 . S
H1483 C1480 0.929 . S
S1484 N1485 1.613 . S
S1484 N1486 1.610 . S
N1485 S1484 1.613 . S
N1485 C1488 1.350 . S
N1486 S1484 1.610 . S
N1486 C1487 1.351 . S
C1487 C1481 1.428 . S
C1487 N1486 1.351 . S
C1487 C1488 1.434 . S
C1488 C1479 1.429 . S
C1488 N1485 1.350 . S
C1488 C1487 1.434 . S
C1489 C1490 1.369 . S
C1489 C1491 1.419 . S
C1489 H1493 0.930 . S
C1490 C1489 1.369 . S
C1490 C1499 1.429 . S
C1491 C1489 1.419 . S
C1491 C1492 1.363 . S
C1491 H1494 0.929 . S
C1492 C1491 1.363 . S
C1492 C1498 1.428 . S
H1493 C1489 0.930 . S
H1494 C1491 0.929 . S
S1495 N1496 1.613 1_565 S
S1495 N1497 1.610 . S
N1496 S1495 1.613 1_545 S
N1496 C1499 1.350 . S
N1497 S1495 1.610 . S
N1497 C1498 1.351 1_565 S
C1498 C1492 1.428 . S
C1498 N1497 1.351 1_545 S
C1498 C1499 1.434 . S
C1499 C1490 1.429 . S
C1499 N1496 1.350 . S
C1499 C1498 1.434 . S
C1500 C1501 1.369 . S
C1500 C1502 1.419 . S
C1500 H1504 0.930 . S
C1501 C1500 1.369 . S
C1501 C1510 1.429 . S
C1502 C1500 1.419 . S
C1502 C1503 1.363 . S
C1502 H1505 0.929 . S
C1503 C1502 1.363 . S
C1503 C1509 1.428 . S
H1504 C1500 0.930 . S
H1505 C1502 0.929 . S
S1506 N1507 1.613 . S
S1506 N1508 1.610 . S
N1507 S1506 1.613 . S
N1507 C1510 1.350 . S
N1508 S1506 1.610 . S
N1508 C1509 1.351 . S
C1509 C1503 1.428 . S
C1509 N1508 1.351 . S
C1509 C1510 1.434 . S
C1510 C1501 1.429 . S
C1510 N1507 1.350 . S
C1510 C1509 1.434 . S
C1511 C1512 1.369 . S
C1511 C1513 1.419 . S
C1511 H1515 0.930 . S
C1512 C1511 1.369 . S
C1512 C1521 1.429 . S
C1513 C1511 1.419 . S
C1513 C1514 1.363 . S
C1513 H1516 0.929 1_655 S
C1514 C1513 1.363 . S
C1514 C1520 1.428 . S
H1515 C1511 0.930 . S
H1516 C1513 0.929 1_455 S
S1517 N1518 1.613 . S
S1517 N1519 1.610 . S
N1518 S1517 1.613 . S
N1518 C1521 1.350 . S
N1519 S1517 1.610 . S
N1519 C1520 1.351 . S
C1520 C1514 1.428 . S
C1520 N1519 1.351 . S
C1520 C1521 1.434 . S
C1521 C1512 1.429 . S
C1521 N1518 1.350 . S
C1521 C1520 1.434 . S
C1522 C1523 1.369 . S
C1522 C1524 1.419 . S
C1522 H1526 0.930 . S
C1523 C1522 1.369 . S
C1523 C1532 1.429 . S
C1524 C1522 1.419 . S
C1524 C1525 1.363 . S
C1524 H1527 0.929 . S
C1525 C1524 1.363 . S
C1525 C1531 1.428 . S
H1526 C1522 0.930 . S
H1527 C1524 0.929 . S
S1528 N1529 1.613 . S
S1528 N1530 1.610 . S
N1529 S1528 1.613 . S
N1529 C1532 1.350 . S
N1530 S1528 1.610 . S
N1530 C1531 1.351 . S
C1531 C1525 1.428 . S
C1531 N1530 1.351 . S
C1531 C1532 1.434 . S
C1532 C1523 1.429 . S
C1532 N1529 1.350 . S
C1532 C1531 1.434 . S
C1533 C1534 1.369 . S
C1533 C1535 1.419 . S
C1533 H1537 0.930 . S
C1534 C1533 1.369 . S
C1534 C1543 1.429 . S
C1535 C1533 1.419 . S
C1535 C1536 1.363 . S
C1535 H1538 0.929 1_455 S
C1536 C1535 1.363 . S
C1536 C1542 1.428 . S
H1537 C1533 0.930 . S
H1538 C1535 0.929 1_655 S
S1539 N1540 1.613 . S
S1539 N1541 1.610 . S
N1540 S1539 1.613 . S
N1540 C1543 1.350 . S
N1541 S1539 1.610 . S
N1541 C1542 1.351 . S
C1542 C1536 1.428 . S
C1542 N1541 1.351 . S
C1542 C1543 1.434 . S
C1543 C1534 1.429 . S
C1543 N1540 1.350 . S
C1543 C1542 1.434 . S
C1544 C1545 1.369 . S
C1544 C1546 1.419 . S
C1544 H1548 0.930 . S
C1545 C1544 1.369 . S
C1545 C1554 1.429 . S
C1546 C1544 1.419 . S
C1546 C1547 1.363 . S
C1546 H1549 0.929 . S
C1547 C1546 1.363 . S
C1547 C1553 1.428 . S
H1548 C1544 0.930 . S
H1549 C1546 0.929 . S
S1550 N1551 1.613 . S
S1550 N1552 1.610 . S
N1551 S1550 1.613 . S
N1551 C1554 1.350 . S
N1552 S1550 1.610 . S
N1552 C1553 1.351 . S
C1553 C1547 1.428 . S
C1553 N1552 1.351 . S
C1553 C1554 1.434 . S
C1554 C1545 1.429 . S
C1554 N1551 1.350 . S
C1554 C1553 1.434 . S
C1555 C1556 1.369 . S
C1555 C1557 1.419 . S
C1555 H1559 0.930 . S
C1556 C1555 1.369 . S
C1556 C1565 1.429 . S
C1557 C1555 1.419 . S
C1557 C1558 1.363 . S
C1557 H1560 0.929 . S
C1558 C1557 1.363 . S
C1558 C1564 1.428 . S
H1559 C1555 0.930 . S
H1560 C1557 0.929 . S
S1561 N1562 1.613 . S
S1561 N1563 1.610 . S
N1562 S1561 1.613 . S
N1562 C1565 1.350 . S
N1563 S1561 1.610 . S
N1563 C1564 1.351 . S
C1564 C1558 1.428 . S
C1564 N1563 1.351 . S
C1564 C1565 1.434 . S
C1565 C1556 1.429 . S
C1565 N1562 1.350 . S
C1565 C1564 1.434 . S
C1566 C1567 1.369 . S
C1566 C1568 1.419 . S
C1566 H1570 0.930 . S
C1567 C1566 1.369 . S
C1567 C1576 1.429 . S
C1568 C1566 1.419 . S
C1568 C1569 1.363 . S
C1568 H1571 0.929 . S
C1569 C1568 1.363 . S
C1569 C1575 1.428 . S
H1570 C1566 0.930 . S
H1571 C1568 0.929 . S
S1572 N1573 1.613 . S
S1572 N1574 1.610 . S
N1573 S1572 1.613 . S
N1573 C1576 1.350 . S
N1574 S1572 1.610 . S
N1574 C1575 1.351 . S
C1575 C1569 1.428 . S
C1575 N1574 1.351 . S
C1575 C1576 1.434 . S
C1576 C1567 1.429 . S
C1576 N1573 1.350 . S
C1576 C1575 1.434 . S
C1577 C1578 1.369 . S
C1577 C1579 1.419 . S
C1577 H1581 0.930 . S
C1578 C1577 1.369 . S
C1578 C1587 1.429 . S
C1579 C1577 1.419 . S
C1579 C1580 1.363 . S
C1579 H1582 0.929 . S
C1580 C1579 1.363 . S
C1580 C1586 1.428 . S
H1581 C1577 0.930 . S
H1582 C1579 0.929 . S
S1583 N1584 1.613 . S
S1583 N1585 1.610 . S
N1584 S1583 1.613 . S
N1584 C1587 1.350 . S
N1585 S1583 1.610 . S
N1585 C1586 1.351 . S
C1586 C1580 1.428 . S
C1586 N1585 1.351 . S
C1586 C1587 1.434 . S
C1587 C1578 1.429 . S
C1587 N1584 1.350 . S
C1587 C1586 1.434 . S
C1588 C1589 1.369 . S
C1588 C1590 1.419 . S
C1588 H1592 0.930 . S
C1589 C1588 1.369 . S
C1589 C1598 1.429 . S
C1590 C1588 1.419 . S
C1590 C1591 1.363 . S
C1590 H1593 0.929 . S
C1591 C1590 1.363 . S
C1591 C1597 1.428 . S
H1592 C1588 0.930 . S
H1593 C1590 0.929 . S
S1594 N1595 1.613 . S
S1594 N1596 1.610 . S
N1595 S1594 1.613 . S
N1595 C1598 1.350 . S
N1596 S1594 1.610 . S
N1596 C1597 1.351 . S
C1597 C1591 1.428 . S
C1597 N1596 1.351 . S
C1597 C1598 1.434 . S
C1598 C1589 1.429 . S
C1598 N1595 1.350 . S
C1598 C1597 1.434 . S
C1599 C1600 1.369 . S
C1599 C1601 1.419 . S
C1599 H1603 0.930 . S
C1600 C1599 1.369 . S
C1600 C1609 1.429 . S
C1601 C1599 1.419 . S
C1601 C1602 1.363 . S
C1601 H1604 0.929 . S
C1602 C1601 1.363 . S
C1602 C1608 1.428 . S
H1603 C1599 0.930 . S
H1604 C1601 0.929 . S
S1605 N1606 1.613 . S
S1605 N1607 1.610 . S
N1606 S1605 1.613 . S
N1606 C1609 1.350 . S
N1607 S1605 1.610 . S
N1607 C1608 1.351 . S
C1608 C1602 1.428 . S
C1608 N1607 1.351 . S
C1608 C1609 1.434 . S
C1609 C1600 1.429 . S
C1609 N1606 1.350 . S
C1609 C1608 1.434 . S
C1610 C1611 1.369 . S
C1610 C1612 1.419 . S
C1610 H1614 0.930 . S
C1611 C1610 1.369 . S
C1611 C1620 1.429 . S
C1612 C1610 1.419 . S
C1612 C1613 1.363 . S
C1612 H1615 0.929 . S
C1613 C1612 1.363 . S
C1613 C1619 1.428 . S
H1614 C1610 0.930 . S
H1615 C1612 0.929 . S
S1616 N1617 1.613 . S
S1616 N1618 1.610 . S
N1617 S1616 1.613 . S
N1617 C1620 1.350 . S
N1618 S1616 1.610 . S
N1618 C1619 1.351 . S
C1619 C1613 1.428 . S
C1619 N1618 1.351 . S
C1619 C1620 1.434 . S
C1620 C1611 1.429 . S
C1620 N1617 1.350 . S
C1620 C1619 1.434 . S
C1621 C1622 1.369 . S
C1621 C1623 1.419 . S
C1621 H1625 0.930 . S
C1622 C1621 1.369 . S
C1622 C1631 1.429 . S
C1623 C1621 1.419 . S
C1623 C1624 1.363 . S
C1623 H1626 0.929 . S
C1624 C1623 1.363 . S
C1624 C1630 1.428 . S
H1625 C1621 0.930 . S
H1626 C1623 0.929 . S
S1627 N1628 1.613 . S
S1627 N1629 1.610 . S
N1628 S1627 1.613 . S
N1628 C1631 1.350 . S
N1629 S1627 1.610 . S
N1629 C1630 1.351 . S
C1630 C1624 1.428 . S
C1630 N1629 1.351 . S
C1630 C1631 1.434 . S
C1631 C1622 1.429 . S
C1631 N1628 1.350 . S
C1631 C1630 1.434 . S
C1632 C1633 1.369 . S
C1632 C1634 1.419 . S
C1632 H1636 0.930 . S
C1633 C1632 1.369 . S
C1633 C1642 1.429 . S
C1634 C1632 1.419 . S
C1634 C1635 1.363 . S
C1634 H1637 0.929 . S
C1635 C1634 1.363 . S
C1635 C1641 1.428 . S
H1636 C1632 0.930 . S
H1637 C1634 0.929 . S
S1638 N1639 1.613 . S
S1638 N1640 1.610 . S
N1639 S1638 1.613 . S
N1639 C1642 1.350 . S
N1640 S1638 1.610 . S
N1640 C1641 1.351 . S
C1641 C1635 1.428 . S
C1641 N1640 1.351 . S
C1641 C1642 1.434 . S
C1642 C1633 1.429 . S
C1642 N1639 1.350 . S
C1642 C1641 1.434 . S
C1643 C1644 1.369 . S
C1643 C1645 1.419 . S
C1643 H1647 0.930 . S
C1644 C1643 1.369 . S
C1644 C1653 1.429 . S
C1645 C1643 1.419 . S
C1645 C1646 1.363 . S
C1645 H1648 0.929 . S
C1646 C1645 1.363 . S
C1646 C1652 1.428 . S
H1647 C1643 0.930 . S
H1648 C1645 0.929 . S
S1649 N1650 1.613 . S
S1649 N1651 1.610 . S
N1650 S1649 1.613 . S
N1650 C1653 1.350 . S
N1651 S1649 1.610 . S
N1651 C1652 1.351 . S
C1652 C1646 1.428 . S
C1652 N1651 1.351 . S
C1652 C1653 1.434 . S
C1653 C1644 1.429 . S
C1653 N1650 1.350 . S
C1653 C1652 1.434 . S
C1654 C1655 1.369 . S
C1654 C1656 1.419 . S
C1654 H1658 0.930 . S
C1655 C1654 1.369 . S
C1655 C1664 1.429 . S
C1656 C1654 1.419 . S
C1656 C1657 1.363 . S
C1656 H1659 0.929 . S
C1657 C1656 1.363 . S
C1657 C1663 1.428 . S
H1658 C1654 0.930 . S
H1659 C1656 0.929 . S
S1660 N1661 1.613 . S
S1660 N1662 1.610 . S
N1661 S1660 1.613 . S
N1661 C1664 1.350 . S
N1662 S1660 1.610 . S
N1662 C1663 1.351 . S
C1663 C1657 1.428 . S
C1663 N1662 1.351 . S
C1663 C1664 1.434 . S
C1664 C1655 1.429 . S
C1664 N1661 1.350 . S
C1664 C1663 1.434 . S
C1665 C1666 1.369 . S
C1665 C1667 1.419 . S
C1665 H1669 0.930 . S
C1666 C1665 1.369 . S
C1666 C1675 1.429 . S
C1667 C1665 1.419 . S
C1667 C1668 1.363 . S
C1667 H1670 0.929 . S
C1668 C1667 1.363 . S
C1668 C1674 1.428 . S
H1669 C1665 0.930 . S
H1670 C1667 0.929 . S
S1671 N1672 1.613 . S
S1671 N1673 1.610 . S
N1672 S1671 1.613 . S
N1672 C1675 1.350 . S
N1673 S1671 1.610 . S
N1673 C1674 1.351 . S
C1674 C1668 1.428 . S
C1674 N1673 1.351 . S
C1674 C1675 1.434 . S
C1675 C1666 1.429 . S
C1675 N1672 1.350 . S
C1675 C1674 1.434 . S
C1676 C1677 1.369 . S
C1676 C1678 1.419 . S
C1676 H1680 0.930 . S
C1677 C1676 1.369 . S
C1677 C1686 1.429 . S
C1678 C1676 1.419 . S
C1678 C1679 1.363 . S
C1678 H1681 0.929 . S
C1679 C1678 1.363 . S
C1679 C1685 1.428 . S
H1680 C1676 0.930 . S
H1681 C1678 0.929 . S
S1682 N1683 1.613 . S
S1682 N1684 1.610 . S
N1683 S1682 1.613 . S
N1683 C1686 1.350 . S
N1684 S1682 1.610 . S
N1684 C1685 1.351 . S
C1685 C1679 1.428 . S
C1685 N1684 1.351 . S
C1685 C1686 1.434 . S
C1686 C1677 1.429 . S
C1686 N1683 1.350 . S
C1686 C1685 1.434 . S
C1687 C1688 1.369 . S
C1687 C1689 1.419 . S
C1687 H1691 0.930 . S
C1688 C1687 1.369 . S
C1688 C1697 1.429 . S
C1689 C1687 1.419 . S
C1689 C1690 1.363 . S
C1689 H1692 0.929 . S
C1690 C1689 1.363 . S
C1690 C1696 1.428 . S
H1691 C1687 0.930 . S
H1692 C1689 0.929 . S
S1693 N1694 1.613 . S
S1693 N1695 1.610 . S
N1694 S1693 1.613 . S
N1694 C1697 1.350 . S
N1695 S1693 1.610 . S
N1695 C1696 1.351 . S
C1696 C1690 1.428 . S
C1696 N1695 1.351 . S
C1696 C1697 1.434 . S
C1697 C1688 1.429 . S
C1697 N1694 1.350 . S
C1697 C1696 1.434 . S
C1698 C1699 1.369 . S
C1698 C1700 1.419 . S
C1698 H1702 0.930 . S
C1699 C1698 1.369 . S
C1699 C1708 1.429 . S
C1700 C1698 1.419 . S
C1700 C1701 1.363 . S
C1700 H1703 0.929 . S
C1701 C1700 1.363 . S
C1701 C1707 1.428 . S
H1702 C1698 0.930 . S
H1703 C1700 0.929 . S
S1704 N1705 1.613 . S
S1704 N1706 1.610 . S
N1705 S1704 1.613 . S
N1705 C1708 1.350 1_565 S
N1706 S1704 1.610 . S
N1706 C1707 1.351 1_565 S
C1707 C1701 1.428 . S
C1707 N1706 1.351 1_545 S
C1707 C1708 1.434 . S
C1708 C1699 1.429 . S
C1708 N1705 1.350 1_545 S
C1708 C1707 1.434 . S
C1709 C1710 1.369 . S
C1709 C1711 1.419 . S
C1709 H1713 0.930 . S
C1710 C1709 1.369 . S
C1710 C1719 1.429 . S
C1711 C1709 1.419 . S
C1711 C1712 1.363 . S
C1711 H1714 0.929 . S
C1712 C1711 1.363 . S
C1712 C1718 1.428 . S
H1713 C1709 0.930 . S
H1714 C1711 0.929 . S
S1715 N1716 1.613 . S
S1715 N1717 1.610 . S
N1716 S1715 1.613 . S
N1716 C1719 1.350 . S
N1717 S1715 1.610 . S
N1717 C1718 1.351 . S
C1718 C1712 1.428 . S
C1718 N1717 1.351 . S
C1718 C1719 1.434 . S
C1719 C1710 1.429 . S
C1719 N1716 1.350 . S
C1719 C1718 1.434 . S
C1720 C1721 1.369 . S
C1720 C1722 1.419 . S
C1720 H1724 0.930 . S
C1721 C1720 1.369 . S
C1721 C1730 1.429 . S
C1722 C1720 1.419 . S
C1722 C1723 1.363 . S
C1722 H1725 0.929 1_565 S
C1723 C1722 1.363 . S
C1723 C1729 1.428 . S
H1724 C1720 0.930 . S
H1725 C1722 0.929 1_545 S
S1726 N1727 1.613 . S
S1726 N1728 1.610 . S
N1727 S1726 1.613 . S
N1727 C1730 1.350 . S
N1728 S1726 1.610 . S
N1728 C1729 1.351 . S
C1729 C1723 1.428 . S
C1729 N1728 1.351 . S
C1729 C1730 1.434 . S
C1730 C1721 1.429 . S
C1730 N1727 1.350 . S
C1730 C1729 1.434 . S
C1731 C1732 1.369 . S
C1731 C1733 1.419 . S
C1731 H1735 0.930 . S
C1732 C1731 1.369 . S
C1732 C1741 1.429 . S
C1733 C1731 1.419 . S
C1733 C1734 1.363 . S
C1733 H1736 0.929 . S
C1734 C1733 1.363 . S
C1734 C1740 1.428 . S
H1735 C1731 0.930 . S
H1736 C1733 0.929 . S
S1737 N1738 1.613 . S
S1737 N1739 1.610 . S
N1738 S1737 1.613 . S
N1738 C1741 1.350 . S
N1739 S1737 1.610 . S
N1739 C1740 1.351 . S
C1740 C1734 1.428 . S
C1740 N1739 1.351 . S
C1740 C1741 1.434 . S
C1741 C1732 1.429 . S
C1741 N1738 1.350 . S
C1741 C1740 1.434 . S
C1742 C1743 1.369 . S
C1742 C1744 1.419 . S
C1742 H1746 0.930 . S
C1743 C1742 1.369 . S
C1743 C1752 1.429 . S
C1744 C1742 1.419 . S
C1744 C1745 1.363 . S
C1744 H1747 0.929 . S
C1745 C1744 1.363 . S
C1745 C1751 1.428 . S
H1746 C1742 0.930 . S
H1747 C1744 0.929 . S
S1748 N1749 1.613 . S
S1748 N1750 1.610 . S
N1749 S1748 1.613 . S
N1749 C1752 1.350 . S
N1750 S1748 1.610 . S
N1750 C1751 1.351 . S
C1751 C1745 1.428 . S
C1751 N1750 1.351 . S
C1751 C1752 1.434 . S
C1752 C1743 1.429 . S
C1752 N1749 1.350 . S
C1752 C1751 1.434 . S
C1753 C1754 1.369 . S
C1753 C1755 1.419 . S
C1753 H1757 0.930 . S
C1754 C1753 1.369 . S
C1754 C1763 1.429 . S
C1755 C1753 1.419 . S
C1755 C1756 1.363 . S
C1755 H1758 0.929 . S
C1756 C1755 1.363 . S
C1756 C1762 1.428 . S
H1757 C1753 0.930 . S
H1758 C1755 0.929 . S
S1759 N1760 1.613 . S
S1759 N1761 1.610 . S
N1760 S1759 1.613 . S
N1760 C1763 1.350 . S
N1761 S1759 1.610 . S
N1761 C1762 1.351 . S
C1762 C1756 1.428 . S
C1762 N1761 1.351 . S
C1762 C1763 1.434 . S
C1763 C1754 1.429 . S
C1763 N1760 1.350 . S
C1763 C1762 1.434 . S
C711 C365 1.267 . S
C709 C213 1.139 . S
C722 C368 1.485 . S
C720 C256 1.486 . S
C733 C356 1.171 . S
C731 C234 1.037 . S
C742 C196 1.641 . S
C744 C369 1.620 . S
C755 C400 1.260 . S
C753 C109 1.099 . S
C764 C129 1.715 . S
C766 C427 1.660 . S
C777 C399 1.163 . S
C775 C151 0.993 . S
C786 C100 1.569 . S
C788 C418 1.533 . S
C797 C313 1.114 . S
C799 C431 1.241 . S
C808 C322 1.613 . S
C810 C462 1.570 1_545 S
C821 C520 1.256 . S
C819 C187 1.122 . S
C832 C542 1.536 . S
C830 C277 1.566 . S
C843 C430 1.136 . S
C841 C67 0.983 . S
C854 C461 1.532 . S
C852 C20 1.534 . S
C863 C28 1.005 . S
C865 C511 1.146 . S
C874 C62 1.576 . S
C876 C551 1.563 . S
C885 C40 1.114 . S
C887 C489 1.273 . S
C898 C555 1.288 . S
C896 C184 1.138 . S
C907 C293 1.595 . S
C909 C586 1.595 . S
C920 C635 1.148 . S
C918 C310 1.027 . S
C929 C146 1.666 . S
C931 C493 1.617 1_655 S
C942 C554 1.143 . S
C940 C230 0.996 . S
C953 C585 1.516 . S
C951 C255 1.526 . S
C964 C666 1.547 . S
C962 C205 1.604 . S
C973 C66 1.123 . S
C975 C396 1.274 . S
C984 C4 1.491 . S
C986 C337 1.487 . S
C997 C387 1.178 . S
C995 C37 1.018 . S
C1006 C46 1.632 . S
C1008 C338 1.614 1_554 S
C1017 C301 1.119 . S
C1019 C679 1.250 . S
C1028 C331 1.712 . S
C1030 C706 1.657 1_556 S
C1041 C678 1.154 . S
C1039 C175 1.007 . S
C1050 C276 1.568 . S
C1052 C697 1.533 . S
C1061 C125 1.099 . S
C1063 C613 1.249 . S
C1074 C617 1.568 . S
C1072 C130 1.611 . S
C1085 C648 1.264 . S
C1083 C167 1.112 . S
C1096 C573 1.537 . S
C1094 C91 1.568 . S
C1107 C604 1.130 . S
C1105 C214 0.995 . S
C1116 C272 1.540 . S
C1118 C616 1.536 . S
C1127 C235 0.995 . S
C1129 C647 1.152 . S
C1140 C582 1.568 1_565 S
C1138 C208 1.583 . S
C1149 C251 1.124 . S
C1151 C644 1.269 . S
C1162 C524 1.292 . S
C1160 C150 1.135 . S
C1171 C103 1.604 . S
C1173 C458 1.602 1_455 S
C1182 C108 1.026 . S
C1184 C480 1.150 . S
C1193 C334 1.665 . S
C1195 C675 1.614 . S
C1204 C83 1.002 . S
C1206 C523 1.140 . S
C1215 C3 1.527 . S
C1217 C449 1.518 . S
C1228 C492 1.539 . S
C1226 C45 1.595 . S
C1239 C336 1.559 . S
C1237 C318 1.480 . S
C1250 C386 1.825 . S
C1248 C188 1.651 . S
C1261 C346 1.401 . S
C1259 C289 1.435 . S
C1272 C397 1.709 . S
C1270 C314 1.569 . S
C1283 C417 1.476 . S
C1281 C209 1.397 . S
C1292 C226 1.593 . S
C1294 C408 1.719 . S
C1303 C271 1.348 . S
C1305 C428 1.315 . S
C1314 C247 1.694 . S
C1316 C398 1.840 . S
C1327 C448 1.514 . S
C1325 C58 1.440 . S
C1338 C490 1.684 . S
C1336 C70 1.529 . S
C1347 C16 1.443 . S
C1349 C491 1.498 . S
C1360 C522 1.797 . S
C1358 C25 1.625 . S
C1369 C133 1.401 . S
C1371 C459 1.380 . S
C1382 C479 1.862 . S
C1380 C163 1.686 1_455 S
C1393 C501 1.368 . S
C1391 C88 1.392 . S
C1402 C121 1.609 1_655 S
C1404 C532 1.750 . S
C1415 C460 1.433 . S
C1413 C104 1.365 . S
C1424 C7 1.377 . S
C1426 C572 1.454 . S
C1435 C41 1.547 . S
C1437 C614 1.694 . S
C1446 C49 1.454 . S
C1448 C625 1.418 . S
C1459 C521 1.722 . S
C1457 C229 1.588 . S
C1470 C583 1.401 . S
C1468 C335 1.433 . S
C1479 C172 1.623 . S
C1481 C603 1.806 . S
C1492 C646 1.834 . S
C1490 C298 1.664 . S
C1503 C367 1.556 . S
C1501 C142 1.487 . S
C1512 C166 1.653 . S
C1514 C355 1.827 . S
C1523 C87 1.433 . S
C1525 C377 1.392 . S
C1534 C124 1.569 . S
C1536 C366 1.709 . S
C1547 C696 1.473 . S
C1545 C61 1.400 . S
C1558 C687 1.720 . S
C1556 C79 1.598 . S
C1567 C19 1.359 . S
C1569 C707 1.321 . S
C1578 C24 1.682 . S
C1580 C677 1.835 . S
C1589 C192 1.450 . S
C1591 C584 1.512 . S
C1602 C645 1.688 . S
C1600 C217 1.541 . S
C1613 C665 1.498 . S
C1611 C268 1.443 . S
C1622 C238 1.624 . S
C1624 C553 1.799 . S
C1635 C594 1.389 . S
C1633 C319 1.408 . S
C1644 C171 1.703 . S
C1646 C634 1.861 . S
C1657 C676 1.366 . S
C1655 C280 1.395 . S
C1666 C297 1.613 . S
C1668 C563 1.752 . S
C1677 C292 1.370 . S
C1679 C615 1.431 . S
C1688 C259 1.378 . S
C1690 C541 1.452 . S
C1701 C439 1.695 . S
C1699 C250 1.547 . S
C1710 C193 1.453 . S
C1712 C470 1.428 . S
C1721 C82 1.628 . S
C1723 C656 1.728 . S
C1732 C145 1.432 . S
C1734 C552 1.409 . S
C1745 C429 1.806 . S
C1743 C154 1.625 . S
C1754 C112 1.669 . S
C1756 C510 1.838 . S
