# Generated by pormake.
# Topology gar, (4,6)-cn, num edge types: 1
# Building blocks:
#     Node 0, Type 0, BuildingBlock: TATPOV_clean_sbu_0, # of connection points: 4
#     Node 1, Type 0, BuildingBlock: TATPOV_clean_sbu_0, # of connection points: 4
#     Node 2, Type 0, BuildingBlock: TATPOV_clean_sbu_0, # of connection points: 4
#     Node 3, Type 0, BuildingBlock: TATPOV_clean_sbu_0, # of connection points: 4
#     Node 4, Type 0, BuildingBlock: TATPOV_clean_sbu_0, # of connection points: 4
#     Node 5, Type 0, BuildingBlock: TATPOV_clean_sbu_0, # of connection points: 4
#     Node 6, Type 0, BuildingBlock: TATPOV_clean_sbu_0, # of connection points: 4
#     Node 7, Type 0, BuildingBlock: TATPOV_clean_sbu_0, # of connection points: 4
#     Node 8, Type 0, BuildingBlock: TATPOV_clean_sbu_0, # of connection points: 4
#     Node 9, Type 0, BuildingBlock: TATPOV_clean_sbu_0, # of connection points: 4
#     Node 10, Type 0, BuildingBlock: TATPOV_clean_sbu_0, # of connection points: 4
#     Node 11, Type 0, BuildingBlock: TATPOV_clean_sbu_0, # of connection points: 4
#     Node 12, Type 0, BuildingBlock: TATPOV_clean_sbu_0, # of connection points: 4
#     Node 13, Type 0, BuildingBlock: TATPOV_clean_sbu_0, # of connection points: 4
#     Node 14, Type 0, BuildingBlock: TATPOV_clean_sbu_0, # of connection points: 4
#     Node 15, Type 0, BuildingBlock: TATPOV_clean_sbu_0, # of connection points: 4
#     Node 16, Type 0, BuildingBlock: TATPOV_clean_sbu_0, # of connection points: 4
#     Node 17, Type 0, BuildingBlock: TATPOV_clean_sbu_0, # of connection points: 4
#     Node 18, Type 0, BuildingBlock: TATPOV_clean_sbu_0, # of connection points: 4
#     Node 19, Type 0, BuildingBlock: TATPOV_clean_sbu_0, # of connection points: 4
#     Node 20, Type 0, BuildingBlock: TATPOV_clean_sbu_0, # of connection points: 4
#     Node 21, Type 0, BuildingBlock: TATPOV_clean_sbu_0, # of connection points: 4
#     Node 22, Type 0, BuildingBlock: TATPOV_clean_sbu_0, # of connection points: 4
#     Node 23, Type 0, BuildingBlock: TATPOV_clean_sbu_0, # of connection points: 4
#     Node 24, Type 1, BuildingBlock: PAMTOO_clean_sbu_0, # of connection points: 6
#     Node 25, Type 1, BuildingBlock: PAMTOO_clean_sbu_0, # of connection points: 6
#     Node 26, Type 1, BuildingBlock: PAMTOO_clean_sbu_0, # of connection points: 6
#     Node 27, Type 1, BuildingBlock: PAMTOO_clean_sbu_0, # of connection points: 6
#     Node 28, Type 1, BuildingBlock: PAMTOO_clean_sbu_0, # of connection points: 6
#     Node 29, Type 1, BuildingBlock: PAMTOO_clean_sbu_0, # of connection points: 6
#     Node 30, Type 1, BuildingBlock: PAMTOO_clean_sbu_0, # of connection points: 6
#     Node 31, Type 1, BuildingBlock: PAMTOO_clean_sbu_0, # of connection points: 6
#     Node 32, Type 1, BuildingBlock: PAMTOO_clean_sbu_0, # of connection points: 6
#     Node 33, Type 1, BuildingBlock: PAMTOO_clean_sbu_0, # of connection points: 6
#     Node 34, Type 1, BuildingBlock: PAMTOO_clean_sbu_0, # of connection points: 6
#     Node 35, Type 1, BuildingBlock: PAMTOO_clean_sbu_0, # of connection points: 6
#     Node 36, Type 1, BuildingBlock: PAMTOO_clean_sbu_0, # of connection points: 6
#     Node 37, Type 1, BuildingBlock: PAMTOO_clean_sbu_0, # of connection points: 6
#     Node 38, Type 1, BuildingBlock: PAMTOO_clean_sbu_0, # of connection points: 6
#     Node 39, Type 1, BuildingBlock: PAMTOO_clean_sbu_0, # of connection points: 6
#     Edge 40, Type (0, 1), BuildingBlock: TEMPAE_clean_linker_10, # of connection points: 2
#     Edge 41, Type (0, 1), BuildingBlock: TEMPAE_clean_linker_10, # of connection points: 2
#     Edge 42, Type (0, 1), BuildingBlock: TEMPAE_clean_linker_10, # of connection points: 2
#     Edge 43, Type (0, 1), BuildingBlock: TEMPAE_clean_linker_10, # of connection points: 2
#     Edge 44, Type (0, 1), BuildingBlock: TEMPAE_clean_linker_10, # of connection points: 2
#     Edge 45, Type (0, 1), BuildingBlock: TEMPAE_clean_linker_10, # of connection points: 2
#     Edge 46, Type (0, 1), BuildingBlock: TEMPAE_clean_linker_10, # of connection points: 2
#     Edge 47, Type (0, 1), BuildingBlock: TEMPAE_clean_linker_10, # of connection points: 2
#     Edge 48, Type (0, 1), BuildingBlock: TEMPAE_clean_linker_10, # of connection points: 2
#     Edge 49, Type (0, 1), BuildingBlock: TEMPAE_clean_linker_10, # of connection points: 2
#     Edge 50, Type (0, 1), BuildingBlock: TEMPAE_clean_linker_10, # of connection points: 2
#     Edge 51, Type (0, 1), BuildingBlock: TEMPAE_clean_linker_10, # of connection points: 2
#     Edge 52, Type (0, 1), BuildingBlock: TEMPAE_clean_linker_10, # of connection points: 2
#     Edge 53, Type (0, 1), BuildingBlock: TEMPAE_clean_linker_10, # of connection points: 2
#     Edge 54, Type (0, 1), BuildingBlock: TEMPAE_clean_linker_10, # of connection points: 2
#     Edge 55, Type (0, 1), BuildingBlock: TEMPAE_clean_linker_10, # of connection points: 2
#     Edge 56, Type (0, 1), BuildingBlock: TEMPAE_clean_linker_10, # of connection points: 2
#     Edge 57, Type (0, 1), BuildingBlock: TEMPAE_clean_linker_10, # of connection points: 2
#     Edge 58, Type (0, 1), BuildingBlock: TEMPAE_clean_linker_10, # of connection points: 2
#     Edge 59, Type (0, 1), BuildingBlock: TEMPAE_clean_linker_10, # of connection points: 2
#     Edge 60, Type (0, 1), BuildingBlock: TEMPAE_clean_linker_10, # of connection points: 2
#     Edge 61, Type (0, 1), BuildingBlock: TEMPAE_clean_linker_10, # of connection points: 2
#     Edge 62, Type (0, 1), BuildingBlock: TEMPAE_clean_linker_10, # of connection points: 2
#     Edge 63, Type (0, 1), BuildingBlock: TEMPAE_clean_linker_10, # of connection points: 2
#     Edge 64, Type (0, 1), BuildingBlock: TEMPAE_clean_linker_10, # of connection points: 2
#     Edge 65, Type (0, 1), BuildingBlock: TEMPAE_clean_linker_10, # of connection points: 2
#     Edge 66, Type (0, 1), BuildingBlock: TEMPAE_clean_linker_10, # of connection points: 2
#     Edge 67, Type (0, 1), BuildingBlock: TEMPAE_clean_linker_10, # of connection points: 2
#     Edge 68, Type (0, 1), BuildingBlock: TEMPAE_clean_linker_10, # of connection points: 2
#     Edge 69, Type (0, 1), BuildingBlock: TEMPAE_clean_linker_10, # of connection points: 2
#     Edge 70, Type (0, 1), BuildingBlock: TEMPAE_clean_linker_10, # of connection points: 2
#     Edge 71, Type (0, 1), BuildingBlock: TEMPAE_clean_linker_10, # of connection points: 2
#     Edge 72, Type (0, 1), BuildingBlock: TEMPAE_clean_linker_10, # of connection points: 2
#     Edge 73, Type (0, 1), BuildingBlock: TEMPAE_clean_linker_10, # of connection points: 2
#     Edge 74, Type (0, 1), BuildingBlock: TEMPAE_clean_linker_10, # of connection points: 2
#     Edge 75, Type (0, 1), BuildingBlock: TEMPAE_clean_linker_10, # of connection points: 2
#     Edge 76, Type (0, 1), BuildingBlock: TEMPAE_clean_linker_10, # of connection points: 2
#     Edge 77, Type (0, 1), BuildingBlock: TEMPAE_clean_linker_10, # of connection points: 2
#     Edge 78, Type (0, 1), BuildingBlock: TEMPAE_clean_linker_10, # of connection points: 2
#     Edge 79, Type (0, 1), BuildingBlock: TEMPAE_clean_linker_10, # of connection points: 2
#     Edge 80, Type (0, 1), BuildingBlock: TEMPAE_clean_linker_10, # of connection points: 2
#     Edge 81, Type (0, 1), BuildingBlock: TEMPAE_clean_linker_10, # of connection points: 2
#     Edge 82, Type (0, 1), BuildingBlock: TEMPAE_clean_linker_10, # of connection points: 2
#     Edge 83, Type (0, 1), BuildingBlock: TEMPAE_clean_linker_10, # of connection points: 2
#     Edge 84, Type (0, 1), BuildingBlock: TEMPAE_clean_linker_10, # of connection points: 2
#     Edge 85, Type (0, 1), BuildingBlock: TEMPAE_clean_linker_10, # of connection points: 2
#     Edge 86, Type (0, 1), BuildingBlock: TEMPAE_clean_linker_10, # of connection points: 2
#     Edge 87, Type (0, 1), BuildingBlock: TEMPAE_clean_linker_10, # of connection points: 2
#     Edge 88, Type (0, 1), BuildingBlock: TEMPAE_clean_linker_10, # of connection points: 2
#     Edge 89, Type (0, 1), BuildingBlock: TEMPAE_clean_linker_10, # of connection points: 2
#     Edge 90, Type (0, 1), BuildingBlock: TEMPAE_clean_linker_10, # of connection points: 2
#     Edge 91, Type (0, 1), BuildingBlock: TEMPAE_clean_linker_10, # of connection points: 2
#     Edge 92, Type (0, 1), BuildingBlock: TEMPAE_clean_linker_10, # of connection points: 2
#     Edge 93, Type (0, 1), BuildingBlock: TEMPAE_clean_linker_10, # of connection points: 2
#     Edge 94, Type (0, 1), BuildingBlock: TEMPAE_clean_linker_10, # of connection points: 2
#     Edge 95, Type (0, 1), BuildingBlock: TEMPAE_clean_linker_10, # of connection points: 2
#     Edge 96, Type (0, 1), BuildingBlock: TEMPAE_clean_linker_10, # of connection points: 2
#     Edge 97, Type (0, 1), BuildingBlock: TEMPAE_clean_linker_10, # of connection points: 2
#     Edge 98, Type (0, 1), BuildingBlock: TEMPAE_clean_linker_10, # of connection points: 2
#     Edge 99, Type (0, 1), BuildingBlock: TEMPAE_clean_linker_10, # of connection points: 2
#     Edge 100, Type (0, 1), BuildingBlock: TEMPAE_clean_linker_10, # of connection points: 2
#     Edge 101, Type (0, 1), BuildingBlock: TEMPAE_clean_linker_10, # of connection points: 2
#     Edge 102, Type (0, 1), BuildingBlock: TEMPAE_clean_linker_10, # of connection points: 2
#     Edge 103, Type (0, 1), BuildingBlock: TEMPAE_clean_linker_10, # of connection points: 2
#     Edge 104, Type (0, 1), BuildingBlock: TEMPAE_clean_linker_10, # of connection points: 2
#     Edge 105, Type (0, 1), BuildingBlock: TEMPAE_clean_linker_10, # of connection points: 2
#     Edge 106, Type (0, 1), BuildingBlock: TEMPAE_clean_linker_10, # of connection points: 2
#     Edge 107, Type (0, 1), BuildingBlock: TEMPAE_clean_linker_10, # of connection points: 2
#     Edge 108, Type (0, 1), BuildingBlock: TEMPAE_clean_linker_10, # of connection points: 2
#     Edge 109, Type (0, 1), BuildingBlock: TEMPAE_clean_linker_10, # of connection points: 2
#     Edge 110, Type (0, 1), BuildingBlock: TEMPAE_clean_linker_10, # of connection points: 2
#     Edge 111, Type (0, 1), BuildingBlock: TEMPAE_clean_linker_10, # of connection points: 2
#     Edge 112, Type (0, 1), BuildingBlock: TEMPAE_clean_linker_10, # of connection points: 2
#     Edge 113, Type (0, 1), BuildingBlock: TEMPAE_clean_linker_10, # of connection points: 2
#     Edge 114, Type (0, 1), BuildingBlock: TEMPAE_clean_linker_10, # of connection points: 2
#     Edge 115, Type (0, 1), BuildingBlock: TEMPAE_clean_linker_10, # of connection points: 2
#     Edge 116, Type (0, 1), BuildingBlock: TEMPAE_clean_linker_10, # of connection points: 2
#     Edge 117, Type (0, 1), BuildingBlock: TEMPAE_clean_linker_10, # of connection points: 2
#     Edge 118, Type (0, 1), BuildingBlock: TEMPAE_clean_linker_10, # of connection points: 2
#     Edge 119, Type (0, 1), BuildingBlock: TEMPAE_clean_linker_10, # of connection points: 2
#     Edge 120, Type (0, 1), BuildingBlock: TEMPAE_clean_linker_10, # of connection points: 2
#     Edge 121, Type (0, 1), BuildingBlock: TEMPAE_clean_linker_10, # of connection points: 2
#     Edge 122, Type (0, 1), BuildingBlock: TEMPAE_clean_linker_10, # of connection points: 2
#     Edge 123, Type (0, 1), BuildingBlock: TEMPAE_clean_linker_10, # of connection points: 2
#     Edge 124, Type (0, 1), BuildingBlock: TEMPAE_clean_linker_10, # of connection points: 2
#     Edge 125, Type (0, 1), BuildingBlock: TEMPAE_clean_linker_10, # of connection points: 2
#     Edge 126, Type (0, 1), BuildingBlock: TEMPAE_clean_linker_10, # of connection points: 2
#     Edge 127, Type (0, 1), BuildingBlock: TEMPAE_clean_linker_10, # of connection points: 2
#     Edge 128, Type (0, 1), BuildingBlock: TEMPAE_clean_linker_10, # of connection points: 2
#     Edge 129, Type (0, 1), BuildingBlock: TEMPAE_clean_linker_10, # of connection points: 2
#     Edge 130, Type (0, 1), BuildingBlock: TEMPAE_clean_linker_10, # of connection points: 2
#     Edge 131, Type (0, 1), BuildingBlock: TEMPAE_clean_linker_10, # of connection points: 2
#     Edge 132, Type (0, 1), BuildingBlock: TEMPAE_clean_linker_10, # of connection points: 2
#     Edge 133, Type (0, 1), BuildingBlock: TEMPAE_clean_linker_10, # of connection points: 2
#     Edge 134, Type (0, 1), BuildingBlock: TEMPAE_clean_linker_10, # of connection points: 2
#     Edge 135, Type (0, 1), BuildingBlock: TEMPAE_clean_linker_10, # of connection points: 2
# Relax obj value: 0.161
# Max RMSD: 0.271
# Mean RMSD: 0.176
data_MOF--net-gar--node1-TATPOV_clean_sbu_0--node2-PAMTOO_clean_sbu_0--edge1-TEMPAE_clean_linker_10
_symmetry_space_group_name_H-M    P1
_symmetry_Int_Tables_number       1
_symmetry_cell_setting            triclinic
loop_
_symmetry_equiv_pos_as_xyz
'x, y, z'
_cell_length_a     60.306388
_cell_length_b     60.942361
_cell_length_c     59.188405
_cell_angle_alpha  96.899693
_cell_angle_beta   96.961057
_cell_angle_gamma 106.10711
loop_
_atom_site_label
_atom_site_type_symbol
_atom_site_fract_x
_atom_site_fract_y
_atom_site_fract_z
_atom_type_partial_charge
Zn0 Zn 0.02422 0.31389 0.38634 0.0
Zn1 Zn 0.04911 0.31571 0.35861 0.0
O2 O 0.05557 0.35154 0.37505 0.0
O3 O 0.02727 0.3463 0.39581 0.0
O4 O 0.07926 0.31525 0.34239 0.0
O5 O 0.03445 0.29709 0.4095 0.0
O6 O 0.0506 0.28903 0.37961 0.0
C7 C 0.0434 0.35993 0.38824 0.0
C8 C 0.99531 0.3002 0.34339 0.0
O9 O 0.0151 0.30741 0.33628 0.0
O10 O 0.99553 0.29778 0.3643 0.0
C11 C 0.08271 0.30858 0.32201 0.0
O12 O 0.06464 0.30118 0.30532 0.0
C13 C 0.04518 0.2849 0.39935 0.0
Zn14 Zn 0.0076 0.71898 0.71321 0.0
Zn15 Zn 0.01208 0.74895 0.68399 0.0
O16 O 0.98208 0.7512 0.69957 0.0
O17 O 0.9785 0.72645 0.72398 0.0
O18 O 0.01729 0.77638 0.66576 0.0
O19 O 0.04117 0.73353 0.73062 0.0
O20 O 0.04589 0.75543 0.70365 0.0
C21 C 0.97113 0.74134 0.71467 0.0
C22 C 0.00496 0.69829 0.66444 0.0
O23 O 0.0061 0.71865 0.66021 0.0
O24 O 0.00513 0.69428 0.68502 0.0
C25 C 0.01744 0.77516 0.64412 0.0
O26 O 0.01379 0.7548 0.63158 0.0
C27 C 0.05467 0.74818 0.72106 0.0
Zn28 Zn 0.53041 0.81988 0.89337 0.0
Zn29 Zn 0.55107 0.81912 0.8593 0.0
O30 O 0.55982 0.85434 0.8774 0.0
O31 O 0.54708 0.85103 0.91048 0.0
O32 O 0.58009 0.81751 0.84191 0.0
O33 O 0.53366 0.79307 0.90733 0.0
O34 O 0.55079 0.79026 0.87683 0.0
C35 C 0.55756 0.86366 0.89735 0.0
C36 C 0.49905 0.81361 0.84894 0.0
O37 O 0.51695 0.81304 0.8392 0.0
O38 O 0.50138 0.81636 0.87077 0.0
C39 C 0.58508 0.8165 0.82139 0.0
O40 O 0.56928 0.81729 0.80441 0.0
C41 C 0.54393 0.78238 0.89472 0.0
Zn42 Zn 0.50653 0.21735 0.21094 0.0
Zn43 Zn 0.51337 0.25086 0.18565 0.0
O44 O 0.48413 0.25359 0.20218 0.0
O45 O 0.47693 0.22417 0.22105 0.0
O46 O 0.51802 0.27843 0.16793 0.0
O47 O 0.54032 0.23115 0.22897 0.0
O48 O 0.5467 0.25663 0.20537 0.0
C49 C 0.47149 0.24148 0.21484 0.0
C50 C 0.50474 0.20032 0.16226 0.0
O51 O 0.50753 0.22157 0.16034 0.0
O52 O 0.50365 0.19403 0.18186 0.0
C53 C 0.52816 0.28017 0.15026 0.0
O54 O 0.53642 0.26341 0.14253 0.0
C55 C 0.55453 0.24725 0.22157 0.0
Zn56 Zn 0.09461 0.80163 0.07539 0.0
Zn57 Zn 0.06451 0.79692 0.10405 0.0
O58 O 0.06142 0.82683 0.08856 0.0
O59 O 0.08664 0.83031 0.0645 0.0
O60 O 0.03954 0.79255 0.12552 0.0
O61 O 0.0806 0.76778 0.0591 0.0
O62 O 0.05647 0.76292 0.08428 0.0
C63 C 0.07157 0.83783 0.07358 0.0
C64 C 0.11676 0.80448 0.12286 0.0
O65 O 0.09599 0.80252 0.12696 0.0
O66 O 0.12087 0.80513 0.10238 0.0
C67 C 0.02018 0.79708 0.12117 0.0
O68 O 0.01569 0.80512 0.10205 0.0
C69 C 0.06497 0.75428 0.06772 0.0
Zn70 Zn 0.46858 0.75976 0.47202 0.0
Zn71 Zn 0.49695 0.76521 0.44184 0.0
O72 O 0.50446 0.7992 0.46113 0.0
O73 O 0.48299 0.7938 0.48854 0.0
O74 O 0.52312 0.76853 0.4217 0.0
O75 O 0.47616 0.73044 0.482 0.0
O76 O 0.50089 0.73562 0.45747 0.0
C77 C 0.49705 0.80763 0.47863 0.0
C78 C 0.4446 0.75778 0.42494 0.0
O79 O 0.46493 0.75977 0.41947 0.0
O80 O 0.4418 0.75665 0.44573 0.0
C81 C 0.52771 0.78206 0.40691 0.0
O82 O 0.51447 0.7955 0.403 0.0
C83 C 0.49144 0.72392 0.47232 0.0
Zn84 Zn 0.59647 0.30487 0.57802 0.0
Zn85 Zn 0.5625 0.29703 0.60247 0.0
O86 O 0.55987 0.32724 0.58738 0.0
O87 O 0.58619 0.33149 0.56447 0.0
O88 O 0.53581 0.2913 0.62164 0.0
O89 O 0.58573 0.26955 0.56418 0.0
O90 O 0.5552 0.26398 0.58199 0.0
C91 C 0.57033 0.33843 0.5727 0.0
C92 C 0.61454 0.30785 0.62595 0.0
O93 O 0.59261 0.3013 0.62684 0.0
O94 O 0.6213 0.31283 0.60722 0.0
C95 C 0.53111 0.30732 0.63431 0.0
O96 O 0.54395 0.32882 0.63535 0.0
C97 C 0.56746 0.2558 0.56897 0.0
Zn98 Zn 0.96757 0.25976 0.97064 0.0
Zn99 Zn 0.99741 0.26631 0.94178 0.0
O100 O 0.00538 0.29978 0.96203 0.0
O101 O 0.98103 0.29401 0.98695 0.0
O102 O 0.02402 0.27011 0.92223 0.0
O103 O 0.97681 0.23165 0.98191 0.0
O104 O 1.00049 0.23585 0.95645 0.0
C105 C 0.99661 0.30794 0.97862 0.0
C106 C 0.94499 0.25868 0.92329 0.0
O107 O 0.96604 0.26258 0.9192 0.0
O108 O 0.94087 0.25526 0.94334 0.0
C109 C 0.02677 0.28102 0.90519 0.0
O110 O 0.01112 0.29114 0.89833 0.0
C111 C 0.99157 0.22456 0.97183 0.0
Zn112 Zn 0.38665 0.97159 0.29002 0.0
Zn113 Zn 0.3836 0.01297 0.29035 0.0
O114 O 0.4022 0.01487 0.32198 0.0
O115 O 0.39729 0.97811 0.32434 0.0
O116 O 0.37961 0.04426 0.2902 0.0
O117 O 0.41021 0.97654 0.26893 0.0
O118 O 0.40066 0.00805 0.26332 0.0
C119 C 0.40485 -0.0008 0.33352 0.0
C120 C 0.34007 0.97223 0.27769 0.0
O121 O 0.34925 -0.00642 0.28543 0.0
O122 O 0.3528 0.95895 0.27605 0.0
C123 C 0.36547 0.04835 0.30316 0.0
O124 O 0.35759 0.03363 0.3169 0.0
C125 C 0.41134 -0.00668 0.25804 0.0
Zn126 Zn 0.24393 0.22356 0.50973 0.0
Zn127 Zn 0.2761 0.20203 0.51549 0.0
O128 O 0.28233 0.21832 0.48626 0.0
O129 O 0.25686 0.23799 0.48349 0.0
O130 O 0.30174 0.18582 0.5189 0.0
O131 O 0.25245 0.23915 0.54298 0.0
O132 O 0.28002 0.22211 0.54806 0.0
C133 C 0.27324 0.23176 0.47583 0.0
C134 C 0.22361 0.17462 0.5043 0.0
O135 O 0.24495 0.17523 0.50964 0.0
O136 O 0.21847 0.19314 0.50228 0.0
C137 C 0.29788 0.1656 0.52426 0.0
O138 O 0.27699 0.15501 0.52837 0.0
C139 C 0.26855 0.23517 0.55619 0.0
Zn140 Zn 0.09273 0.07084 0.78338 0.0
Zn141 Zn 0.11696 0.0407 0.77841 0.0
O142 O 0.10242 0.03484 0.8084 0.0
O143 O 0.08212 0.05959 0.81202 0.0
O144 O 0.13457 0.0167 0.77355 0.0
O145 O 0.07396 0.05944 0.75176 0.0
O146 O 0.09479 0.03522 0.74676 0.0
C147 C 0.08937 0.04382 0.81955 0.0
C148 C 0.14188 0.09261 0.78461 0.0
O149 O 0.14308 0.07191 0.78264 0.0
O150 O 0.12247 0.0966 0.78544 0.0
C151 C 0.14105 0.00638 0.78943 0.0
O152 O 0.13612 0.01105 0.81016 0.0
C153 C 0.07923 0.04417 0.73888 0.0
Zn154 Zn 0.31274 0.86888 0.98935 0.0
Zn155 Zn 0.27873 0.90255 -0.00475 0.0
O156 O 0.26846 0.89728 0.96021 0.0
O157 O 0.29391 0.8795 0.96725 0.0
O158 O 0.25977 0.92156 0.00774 0.0
O159 O 0.29334 0.85124 0.00939 0.0
O160 O 0.27225 0.87572 0.01313 0.0
C161 C 0.28169 0.88637 0.95278 0.0
C162 C 0.33348 0.91806 0.00896 0.0
O163 O 0.31327 0.921 0.00466 0.0
O164 O 0.33659 0.89819 0.00541 0.0
C165 C 0.26682 0.93694 0.0256 0.0
O166 O 0.28836 0.94185 0.03647 0.0
C167 C 0.27773 0.85797 0.01818 0.0
Zn168 Zn 0.31693 0.34596 0.03862 0.0
Zn169 Zn 0.28742 0.36919 0.03354 0.0
O170 O 0.28248 0.34801 0.00115 0.0
O171 O 0.30632 0.32702 0.00714 0.0
O172 O 0.26193 0.38565 0.03025 0.0
O173 O 0.30717 0.33442 0.06706 0.0
O174 O 0.28173 0.35409 0.06379 0.0
C175 C 0.29164 0.33254 -0.00644 0.0
C176 C 0.34005 0.39426 0.04074 0.0
O177 O 0.31911 0.39552 0.03784 0.0
O178 O 0.3436 0.37489 0.04195 0.0
C179 C 0.26341 0.40292 0.01969 0.0
O180 O 0.28202 0.41058 0.0101 0.0
C181 C 0.29123 0.3413 0.07485 0.0
Zn182 Zn 0.75718 0.17306 0.05877 0.0
Zn183 Zn 0.78829 0.15381 0.04668 0.0
O184 O 0.79162 0.17774 0.02524 0.0
O185 O 0.76404 0.19266 0.03469 0.0
O186 O 0.81033 0.13642 0.03938 0.0
O187 O 0.7752 0.18492 0.08969 0.0
O188 O 0.80193 0.16876 0.07997 0.0
C189 C 0.78017 0.19222 0.02301 0.0
C190 C 0.73643 0.12634 0.04324 0.0
O191 O 0.75698 0.12777 0.03933 0.0
O192 O 0.73159 0.14382 0.05246 0.0
C193 C 0.80783 0.11806 0.04817 0.0
O194 O 0.79167 0.11234 0.06122 0.0
C195 C 0.79449 0.18086 0.09449 0.0
Zn196 Zn 0.17971 0.59228 0.24511 0.0
Zn197 Zn 0.19058 0.55623 0.25167 0.0
O198 O 0.17973 0.56656 0.28139 0.0
O199 O 0.17989 0.60224 0.27881 0.0
O200 O 0.19817 0.52772 0.25774 0.0
O201 O 0.14933 0.57323 0.22592 0.0
O202 O 0.16407 0.54402 0.22414 0.0
C203 C 0.17747 0.58574 0.29028 0.0
C204 C 0.22474 0.59408 0.23453 0.0
O205 O 0.22181 0.57707 0.2455 0.0
O206 O 0.20816 0.60264 0.23007 0.0
C207 C 0.20711 0.51786 0.24276 0.0
O208 O 0.21092 0.52679 0.22394 0.0
C209 C 0.1479 0.55267 0.21771 0.0
Zn210 Zn 0.82001 0.84762 0.53992 0.0
Zn211 Zn 0.7865 0.86734 0.53269 0.0
O212 O 0.78303 0.84634 0.50103 0.0
O213 O 0.81082 0.82979 0.50731 0.0
O214 O 0.75995 0.88205 0.52897 0.0
O215 O 0.80889 0.83521 0.56773 0.0
O216 O 0.78138 0.85236 0.56281 0.0
C217 C 0.79457 0.83302 0.49364 0.0
C218 C 0.83803 0.89666 0.54211 0.0
O219 O 0.81648 0.89519 0.53663 0.0
O220 O 0.84408 0.87884 0.54534 0.0
C221 C 0.7585 0.89573 0.51456 0.0
O222 O 0.77439 0.90014 0.50103 0.0
C223 C 0.79172 0.84065 0.57448 0.0
Zn224 Zn 0.97402 0.00021 0.2586 0.0
Zn225 Zn 0.94685 0.02712 0.25962 0.0
O226 O 0.96649 0.03277 0.29283 0.0
O227 O 0.9932 0.01473 0.28966 0.0
O228 O 0.92934 0.0516 0.26141 0.0
O229 O 0.98497 0.00894 0.2293 0.0
O230 O 0.96319 0.03247 0.23022 0.0
C231 C 0.98412 0.02721 0.30192 0.0
C232 C 0.92446 0.97572 0.25623 0.0
O233 O 0.92146 -0.0045 0.25517 0.0
O234 O 0.94488 0.97354 0.258 0.0
C235 C 0.9116 0.04974 0.27156 0.0
O236 O 0.90413 0.03139 0.28132 0.0
C237 C 0.97731 0.0238 0.22037 0.0
Zn238 Zn 0.2663 0.68296 0.56515 0.0
Zn239 Zn 0.29008 0.65572 0.55831 0.0
O240 O 0.29298 0.6735 0.5312 0.0
O241 O 0.26321 0.68763 0.53248 0.0
O242 O 0.30845 0.63415 0.5514 0.0
O243 O 0.29352 0.70419 0.5874 0.0
O244 O 0.30797 0.67493 0.5889 0.0
C245 C 0.27929 0.68378 0.52231 0.0
C246 C 0.23983 0.63843 0.567 0.0
O247 O 0.25712 0.63446 0.55872 0.0
O248 O 0.24072 0.65899 0.57466 0.0
C249 C 0.30014 0.61664 0.53567 0.0
O250 O 0.27883 0.61238 0.52447 0.0
C251 C 0.30866 0.69559 0.59623 0.0
Zn252 Zn 0.47433 0.49894 0.75842 0.0
Zn253 Zn 0.44794 0.52725 0.76016 0.0
O254 O 0.46651 0.53263 0.79359 0.0
O255 O 0.49084 0.51166 0.79114 0.0
O256 O 0.43024 0.55142 0.76114 0.0
O257 O 0.48801 0.51058 0.73129 0.0
O258 O 0.4656 0.53351 0.73185 0.0
C259 C 0.48281 0.52545 0.80303 0.0
C260 C 0.42422 0.4753 0.75225 0.0
O261 O 0.42237 0.49577 0.75453 0.0
O262 O 0.44423 0.47222 0.75297 0.0
C263 C 0.41357 0.55065 0.77261 0.0
O264 O 0.40748 0.53368 0.78451 0.0
C265 C 0.48056 0.52568 0.7226 0.0
Zn266 Zn 0.67656 0.08042 0.72988 0.0
Zn267 Zn 0.67868 0.04204 0.74335 0.0
O268 O 0.65645 0.04975 0.76388 0.0
O269 O 0.66048 0.0855 0.75773 0.0
O270 O 0.68511 0.01399 0.75322 0.0
O271 O 0.65923 0.06389 0.69921 0.0
O272 O 0.66402 0.03156 0.70905 0.0
C273 C 0.65266 0.06916 0.76873 0.0
C274 C 0.72209 0.08441 0.74644 0.0
O275 O 0.71136 0.06585 0.75306 0.0
O276 O 0.71107 0.09344 0.73262 0.0
C277 C 0.69713 0.01687 0.77309 0.0
O278 O 0.70243 0.03701 0.78651 0.0
C279 C 0.65702 0.04258 0.69411 0.0
Zn280 Zn 0.74881 0.72219 0.0109 0.0
Zn281 Zn 0.77957 0.69988 0.0162 0.0
O282 O 0.78612 0.71554 0.9863 0.0
O283 O 0.76013 0.7346 0.98318 0.0
O284 O 0.80481 0.6833 0.02176 0.0
O285 O 0.75787 0.74054 0.04259 0.0
O286 O 0.78304 0.72088 0.04858 0.0
C287 C 0.77665 0.72859 0.97558 0.0
C288 C 0.72715 0.67361 0.00855 0.0
O289 O 0.74828 0.67296 0.01099 0.0
O290 O 0.72276 0.69265 0.00763 0.0
C291 C 0.80978 0.67027 0.00586 0.0
O292 O 0.79879 0.6677 0.9847 0.0
C293 C 0.77288 0.73548 0.05617 0.0
Zn294 Zn 0.89796 0.48779 0.78718 0.0
Zn295 Zn 0.89667 0.5264 0.78637 0.0
O296 O 0.91758 0.53101 0.81706 0.0
O297 O 0.90474 0.49466 0.82171 0.0
O298 O 0.89155 0.55624 0.78206 0.0
O299 O 0.92374 0.48967 0.76939 0.0
O300 O 0.91106 0.51771 0.75826 0.0
C301 C 0.9161 0.51547 0.82982 0.0
C302 C 0.85303 0.48757 0.77627 0.0
O303 O 0.86298 0.50775 0.78731 0.0
O304 O 0.86544 0.47526 0.7696 0.0
C305 C 0.88116 0.56467 0.79665 0.0
O306 O 0.87918 0.55634 0.81602 0.0
C307 C 0.92286 0.50351 0.75531 0.0
Zn308 Zn 0.8189 0.38715 0.5092 0.0
Zn309 Zn 0.78703 0.40656 0.50558 0.0
O310 O 0.7871 0.39709 0.47123 0.0
O311 O 0.81923 0.3866 0.47554 0.0
O312 O 0.76329 0.42321 0.50814 0.0
O313 O 0.79915 0.35945 0.51957 0.0
O314 O 0.77419 0.37945 0.52252 0.0
C315 C 0.80287 0.39034 0.46253 0.0
C316 C 0.83676 0.43229 0.53109 0.0
O317 O 0.81688 0.4321 0.52088 0.0
O318 O 0.84162 0.41342 0.53138 0.0
C319 C 0.76228 0.43994 0.49765 0.0
O320 O 0.77625 0.44575 0.48256 0.0
C321 C 0.7802 0.36141 0.52532 0.0
Zn322 Zn 0.59273 0.56704 0.28695 0.0
Zn323 Zn 0.61972 0.53931 0.28051 0.0
O324 O 0.60572 0.53183 0.31041 0.0
O325 O 0.58076 0.552 0.31365 0.0
O326 O 0.63781 0.51615 0.27452 0.0
O327 O 0.57565 0.55698 0.25392 0.0
O328 O 0.5985 0.53491 0.24882 0.0
C329 C 0.59052 0.53776 0.32099 0.0
C330 C 0.64282 0.5911 0.29126 0.0
O331 O 0.6446 0.57082 0.28609 0.0
O332 O 0.62302 0.59389 0.29327 0.0
C333 C 0.64743 0.50807 0.29057 0.0
O334 O 0.64579 0.51496 0.31204 0.0
C335 C 0.58247 0.54313 0.2407 0.0
Dy336 Dy 0.06214 0.04698 0.03351 0.0
Dy337 Dy 0.01029 0.01675 0.00736 0.0
C338 C 0.05281 0.02445 0.97876 0.0
O339 O 0.04788 0.07592 0.02411 0.0
O340 O 0.01168 0.05426 0.00443 0.0
O341 O 0.09607 0.0713 0.03427 0.0
O342 O 0.08894 0.05359 0.06335 0.0
O343 O 0.00782 0.02208 0.04503 0.0
O344 O 0.03945 0.05363 0.05903 0.0
O345 O 0.02625 0.98822 0.01363 0.0
O346 O 0.05858 0.0098 0.03952 0.0
O347 O 0.97767 0.99063 0.0071 0.0
O348 O 0.98194 0.01029 0.97904 0.0
C349 C 0.02757 0.07459 0.01195 0.0
O350 O 0.0666 0.0388 -0.00344 0.0
O351 O 0.03135 0.01264 0.97985 0.0
C352 C 0.12475 0.05622 0.05113 0.0
C353 C 0.1583 0.03226 0.04911 0.0
C354 C 0.14169 0.03031 0.02963 0.0
C355 C 0.12502 0.0421 0.03065 0.0
C356 C 0.14163 0.05867 0.07049 0.0
C357 C 0.15833 0.04674 0.0695 0.0
C358 C 0.10498 0.06554 0.05305 0.0
C359 C 0.01976 0.03903 0.06164 0.0
C360 C 0.04437 0.98945 0.0291 0.0
C361 C 0.94784 0.00554 -0.00531 0.0
C362 C 0.912 0.02329 0.00652 0.0
C363 C 0.9353 0.0347 0.01652 0.0
C364 C 0.95301 0.02586 0.01072 0.0
C365 C 0.92471 -0.00586 0.98429 0.0
C366 C 0.90677 0.00305 0.99017 0.0
C367 C 0.96718 -0.00308 0.98956 0.0
H368 H 0.14101 0.01899 0.01381 0.0
H369 H 0.11183 0.0395 0.01563 0.0
H370 H 0.14142 0.06918 0.08654 0.0
H371 H 0.17106 0.04861 0.08472 0.0
H372 H 0.93988 0.05062 0.02873 0.0
H373 H 0.97085 0.03488 0.01884 0.0
H374 H 0.92058 0.97845 0.97185 0.0
H375 H 0.88888 -0.00595 0.98222 0.0
Dy376 Dy 0.29999 0.80139 0.268 0.0
Dy377 Dy 0.25825 0.7792 0.29528 0.0
C378 C 0.27963 0.83168 0.29891 0.0
O379 O 0.32027 0.7915 0.29682 0.0
O380 O 0.29161 0.78153 0.31946 0.0
O381 O 0.31829 0.83305 0.25719 0.0
O382 O 0.3285 0.80195 0.24903 0.0
O383 O 0.26876 0.74897 0.28158 0.0
O384 O 0.28904 0.76369 0.25344 0.0
O385 O 0.23881 0.77501 0.25954 0.0
O386 O 0.26663 0.80227 0.24635 0.0
O387 O 0.22921 0.75382 0.30445 0.0
O388 O 0.24028 0.78941 0.32184 0.0
C389 C 0.31345 0.78485 0.31575 0.0
O390 O 0.29908 0.8264 0.29826 0.0
O391 O 0.26017 0.81532 0.29172 0.0
C392 C 0.32491 0.82437 0.22 0.0
C393 C 0.30642 0.83027 0.17631 0.0
C394 C 0.32279 0.84899 0.19115 0.0
C395 C 0.33204 0.84602 0.21294 0.0
C396 C 0.30913 0.80552 0.2048 0.0
C397 C 0.30004 0.80844 0.18307 0.0
C398 C 0.3296 0.82259 0.24437 0.0
C399 C 0.27915 0.74636 0.26366 0.0
C400 C 0.24491 0.78888 0.24448 0.0
C401 C 0.23192 0.761 0.34512 0.0
C402 C 0.25264 0.75165 0.38642 0.0
C403 C 0.2435 0.73398 0.36725 0.0
C404 C 0.23329 0.73862 0.34672 0.0
C405 C 0.23874 0.77795 0.36503 0.0
C406 C 0.24931 0.77341 0.38544 0.0
C407 C 0.22833 0.76813 0.32244 0.0
H408 H 0.3281 0.86592 0.18603 0.0
H409 H 0.34379 0.86083 0.22468 0.0
H410 H 0.30282 0.78878 0.2101 0.0
H411 H 0.28733 0.79384 0.17189 0.0
H412 H 0.24494 0.71672 0.36787 0.0
H413 H 0.22782 0.72508 0.3318 0.0
H414 H 0.23759 0.7953 0.36437 0.0
H415 H 0.25592 0.78728 0.40002 0.0
Dy416 Dy 0.49933 0.02795 0.53428 0.0
Dy417 Dy 0.55702 0.03423 0.5175 0.0
C418 C 0.51313 0.03163 0.48385 0.0
O419 O 0.50214 0.99148 0.52171 0.0
O420 O 0.54079 -0.00415 0.51501 0.0
O421 O 0.46319 0.01889 0.51781 0.0
O422 O 0.47299 0.03324 0.55421 0.0
O423 O 0.53766 0.02968 0.545 0.0
O424 O 0.51538 0.02318 0.56935 0.0
O425 O 0.55396 0.07085 0.52412 0.0
O426 O 0.52087 0.06627 0.5427 0.0
O427 O 0.59031 0.03792 0.53807 0.0
O428 O 0.58712 0.03624 0.50062 0.0
C429 C 0.51941 0.98292 0.51633 0.0
O430 O 0.50841 0.04258 0.50238 0.0
O431 O 0.53311 0.02678 0.48431 0.0
C432 C 0.44178 0.04281 0.53386 0.0
C433 C 0.41426 0.07357 0.53133 0.0
C434 C 0.43201 0.07457 0.51772 0.0
C435 C 0.4458 0.05947 0.51913 0.0
C436 C 0.424 0.04171 0.5473 0.0
C437 C 0.41044 0.05694 0.54612 0.0
C438 C 0.4564 0.02709 0.53634 0.0
C439 C 0.53635 0.02535 0.56555 0.0
C440 C 0.53964 0.07941 0.53564 0.0
C441 C 0.61424 0.01895 0.51891 0.0
C442 C 0.64271 0.9888 0.51775 0.0
C443 C 0.64069 0.00097 0.53879 0.0
C444 C 0.62676 0.01592 0.53932 0.0
C445 C 0.61598 0.00657 0.49786 0.0
C446 C 0.63001 0.99167 0.4973 0.0
C447 C 0.60033 0.03569 0.51978 0.0
H448 H 0.43552 0.08731 0.50631 0.0
H449 H 0.45971 0.06098 0.50893 0.0
H450 H 0.42069 0.0291 0.55888 0.0
H451 H 0.39677 0.05554 0.55664 0.0
H452 H 0.6499 -0.00102 0.55494 0.0
H453 H 0.62592 0.02529 0.55575 0.0
H454 H 0.60678 0.0086 0.48174 0.0
H455 H 0.63136 0.98286 0.48075 0.0
Dy456 Dy 0.30906 0.27878 0.77676 0.0
Dy457 Dy 0.25882 0.29209 0.77454 0.0
C458 C 0.30616 0.32944 0.77082 0.0
O459 O 0.30068 0.27978 0.81284 0.0
O460 O 0.27872 0.30509 0.81034 0.0
O461 O 0.3463 0.28648 0.78845 0.0
O462 O 0.3275 0.2549 0.76512 0.0
O463 O 0.25393 0.25947 0.7893 0.0
O464 O 0.27987 0.24563 0.77126 0.0
O465 O 0.2598 0.27504 0.73875 0.0
O466 O 0.29969 0.28431 0.7407 0.0
O467 O 0.22123 0.28162 0.76469 0.0
O468 O 0.23923 0.31598 0.78351 0.0
C469 C 0.29077 0.29439 0.82256 0.0
O470 O 0.31745 0.31732 0.78193 0.0
O471 O 0.2838 0.32101 0.76213 0.0
C472 C 0.36654 0.2722 0.76078 0.0
C473 C 0.40135 0.27758 0.73191 0.0
C474 C 0.38527 0.29054 0.73078 0.0
C475 C 0.36803 0.28784 0.74503 0.0
C476 C 0.38246 0.25925 0.76197 0.0
C477 C 0.39966 0.2619 0.74773 0.0
C478 C 0.34793 0.26839 0.77529 0.0
C479 C 0.26151 0.24223 0.78172 0.0
C480 C 0.27854 0.27755 0.72875 0.0
C481 C 0.20109 0.29798 0.79139 0.0
C482 C 0.16534 0.2935 0.81935 0.0
C483 C 0.17367 0.27465 0.81269 0.0
C484 C 0.19137 0.27687 0.79896 0.0
C485 C 0.19302 0.31687 0.79826 0.0
C486 C 0.17545 0.3147 0.8121 0.0
C487 C 0.21903 0.30053 0.77586 0.0
H488 H 0.38615 0.30298 0.71905 0.0
H489 H 0.3558 0.29791 0.74371 0.0
H490 H 0.38145 0.24689 0.77381 0.0
H491 H 0.41142 0.25134 0.74889 0.0
H492 H 0.16655 0.25815 0.81817 0.0
H493 H 0.1973 0.262 0.79415 0.0
H494 H 0.20012 0.33331 0.79266 0.0
H495 H 0.16937 0.32953 0.81665 0.0
Dy496 Dy 0.03996 0.00513 0.51654 0.0
Dy497 Dy 0.02645 0.05489 0.52294 0.0
C498 C 0.98829 0.00635 0.52349 0.0
O499 O 0.02457 0.00856 0.4809 0.0
O500 O 0.0325 0.04803 0.48681 0.0
O501 O 0.03102 0.96827 0.50475 0.0
O502 O 0.06509 0.98664 0.52453 0.0
O503 O 0.06528 0.06267 0.53025 0.0
O504 O 0.06952 0.03182 0.50689 0.0
O505 O 0.02567 0.04391 0.55764 0.0
O506 O 0.05047 0.02152 0.55373 0.0
O507 O 0.03494 0.09131 0.53683 0.0
O508 O 0.00358 0.07464 0.51192 0.0
C509 C 0.02634 0.02817 0.47291 0.0
O510 O 0.00495 -0.00336 0.52749 0.0
O511 O 0.99224 0.02721 0.51806 0.0
C512 C 0.04775 0.9485 0.53097 0.0
C513 C 0.04291 0.91376 0.55956 0.0
C514 C 0.03158 0.93101 0.56266 0.0
C515 C 0.03402 0.94822 0.54857 0.0
C516 C 0.0592 0.9315 0.52792 0.0
C517 C 0.05684 0.91434 0.54204 0.0
C518 C 0.05032 0.96645 0.51586 0.0
C519 C 0.07796 0.05314 0.51803 0.0
C520 C 0.03953 0.03278 0.56655 0.0
C521 C 0.02367 0.11293 0.50897 0.0
C522 C 0.03264 0.14696 0.47983 0.0
C523 C 0.04775 0.13328 0.48328 0.0
C524 C 0.04322 0.11633 0.4976 0.0
C525 C 0.00867 0.1266 0.50568 0.0
C526 C 0.01309 0.14342 0.49128 0.0
C527 C 0.01778 0.09423 0.52299 0.0
H528 H 0.02096 0.93133 0.57612 0.0
H529 H 0.02516 0.96129 0.55137 0.0
H530 H 0.0699 0.9314 0.51449 0.0
H531 H 0.0656 0.90124 0.53891 0.0
H532 H 0.06283 0.13539 0.47458 0.0
H533 H 0.05484 0.1057 0.49958 0.0
H534 H 0.99338 0.12413 0.5141 0.0
H535 H 0.00126 0.15382 0.48929 0.0
Dy536 Dy 0.28348 0.81098 0.76793 0.0
Dy537 Dy 0.27467 0.75033 0.77793 0.0
C538 C 0.27386 0.78476 0.81205 0.0
O539 O 0.31998 0.80877 0.77951 0.0
O540 O 0.31338 0.77067 0.78758 0.0
O541 O 0.28543 0.84292 0.78913 0.0
O542 O 0.28663 0.84188 0.75237 0.0
O543 O 0.29259 0.75962 0.74765 0.0
O544 O 0.2869 0.79306 0.73479 0.0
O545 O 0.23892 0.755 0.76513 0.0
O546 O 0.24468 0.79411 0.76088 0.0
O547 O 0.26541 0.71512 0.75975 0.0
O548 O 0.27767 0.72279 0.79663 0.0
C549 C 0.32744 0.79157 0.78636 0.0
O550 O 0.27682 0.78727 0.79136 0.0
O551 O 0.26998 0.76336 0.81397 0.0
C552 C 0.26938 0.86852 0.7704 0.0
C553 C 0.24 0.89759 0.76989 0.0
C554 C 0.23214 0.87514 0.7754 0.0
C555 C 0.24668 0.86075 0.77564 0.0
C556 C 0.27714 0.89067 0.76452 0.0
C557 C 0.26262 0.90504 0.76422 0.0
C558 C 0.28548 0.85421 0.7717 0.0
C559 C 0.29375 0.77432 0.73274 0.0
C560 C 0.23109 0.77276 0.76058 0.0
C561 C 0.28897 0.69304 0.77594 0.0
C562 C 0.31966 0.66528 0.7731 0.0
C563 C 0.3107 0.67278 0.75331 0.0
C564 C 0.29557 0.68656 0.75471 0.0
C565 C 0.2979 0.68548 0.79564 0.0
C566 C 0.31311 0.6719 0.79428 0.0
C567 C 0.27273 0.70736 0.77803 0.0
H568 H 0.21495 0.86888 0.7801 0.0
H569 H 0.24033 0.84371 0.78027 0.0
H570 H 0.29457 0.89697 0.76037 0.0
H571 H 0.26916 0.92202 0.75953 0.0
H572 H 0.31552 0.66811 0.73676 0.0
H573 H 0.28906 0.69207 0.73918 0.0
H574 H 0.293 0.68998 0.8122 0.0
H575 H 0.31937 0.66615 0.80978 0.0
Dy576 Dy 0.52579 0.05569 0.98971 0.0
Dy577 Dy 0.52637 0.02287 0.02969 0.0
C578 C 0.53237 0.00485 0.9786 0.0
O579 O 0.49009 0.04748 -0.00092 0.0
O580 O 0.49091 0.01278 0.00915 0.0
O581 O 0.51105 0.06203 0.95694 0.0
O582 O 0.54127 0.08774 0.978 0.0
O583 O 0.51493 0.05228 0.046 0.0
O584 O 0.53032 0.0791 0.02357 0.0
O585 O 0.56176 0.04762 0.03426 0.0
O586 O 0.56159 0.05202 -0.00351 0.0
O587 O 0.54019 0.01612 0.06255 0.0
O588 O 0.51197 0.98971 0.03997 0.0
C589 C 0.47956 0.02745 0.00438 0.0
O590 O 0.52267 0.02006 0.97098 0.0
O591 O 0.53902 0.00548 0.00067 0.0
C592 C 0.54086 0.0819 0.93835 0.0
C593 C 0.56836 0.08461 0.90314 0.0
C594 C 0.56424 0.06543 0.91476 0.0
C595 C 0.55068 0.06413 0.93228 0.0
C596 C 0.54479 0.10103 0.92682 0.0
C597 C 0.55843 0.10238 0.90926 0.0
C598 C 0.52802 0.08107 0.9578 0.0
C599 C 0.52138 0.07384 0.0422 0.0
C600 C 0.57273 0.05238 0.01696 0.0
C601 C 0.5106 -0.00615 0.0793 0.0
C602 C 0.48611 0.99095 0.11646 0.0
C603 C 0.48798 0.00956 0.10431 0.0
C604 C 0.50005 0.01092 0.08574 0.0
C605 C 0.50808 0.97478 0.09085 0.0
C606 C 0.49574 0.97327 0.10939 0.0
C607 C 0.52423 -0.00375 0.06058 0.0
H608 H 0.57135 0.05131 0.9102 0.0
H609 H 0.54801 0.04934 0.94123 0.0
H610 H 0.53757 0.11502 0.93159 0.0
H611 H 0.5615 0.11745 0.90072 0.0
H612 H 0.48043 0.02321 0.10943 0.0
H613 H 0.50156 0.02556 0.07672 0.0
H614 H 0.51596 0.96137 0.08582 0.0
H615 H 0.4944 0.9588 0.11867 0.0
Dy616 Dy 0.26732 0.25441 0.26197 0.0
Dy617 Dy 0.29611 0.30731 0.28379 0.0
C618 C 0.29018 0.26778 0.31566 0.0
O619 O 0.23812 0.26987 0.26799 0.0
O620 O 0.25923 0.30446 0.29069 0.0
O621 O 0.24017 0.22245 0.26103 0.0
O622 O 0.26308 0.2253 0.23543 0.0
O623 O 0.27757 0.31082 0.24997 0.0
O624 O 0.26999 0.27355 0.23187 0.0
O625 O 0.32064 0.29341 0.2642 0.0
O626 O 0.30557 0.25547 0.26721 0.0
O627 O 0.32338 0.33854 0.28264 0.0
O628 O 0.30445 0.33628 0.31147 0.0
C629 C 0.23902 0.28893 0.28174 0.0
O630 O 0.27304 0.25425 0.29997 0.0
O631 O 0.30404 0.287 0.31124 0.0
C632 C 0.25475 0.19143 0.25124 0.0
C633 C 0.27408 0.1562 0.26156 0.0
C634 C 0.27835 0.17634 0.27772 0.0
C635 C 0.26881 0.19379 0.27258 0.0
C636 C 0.24992 0.17119 0.23519 0.0
C637 C 0.25952 0.1536 0.24034 0.0
C638 C 0.24785 0.21135 0.245 0.0
C639 C 0.27186 0.29543 0.23109 0.0
C640 C 0.32276 0.27244 0.26304 0.0
C641 C 0.31101 0.37054 0.29585 0.0
C642 C 0.28731 0.40295 0.28674 0.0
C643 C 0.29354 0.3901 0.2686 0.0
C644 C 0.30528 0.37404 0.27309 0.0
C645 C 0.30617 0.38448 0.31412 0.0
C646 C 0.2944 0.40064 0.3096 0.0
C647 C 0.31799 0.34996 0.30017 0.0
H648 H 0.28986 0.17908 0.29401 0.0
H649 H 0.27317 0.20954 0.28499 0.0
H650 H 0.23936 0.1693 0.21851 0.0
H651 H 0.25588 0.13818 0.22763 0.0
H652 H 0.28868 0.39196 0.25086 0.0
H653 H 0.30875 0.36359 0.2586 0.0
H654 H 0.3103 0.38194 0.33177 0.0
H655 H 0.2898 0.41044 0.32386 0.0
Dy656 Dy 0.53877 0.50737 0.01859 0.0
Dy657 Dy 0.52775 0.55803 0.02447 0.0
C658 C 0.48822 0.51161 0.02532 0.0
O659 O 0.53592 0.51562 0.98251 0.0
O660 O 0.51507 0.54189 0.98758 0.0
O661 O 0.52932 0.47042 0.00672 0.0
O662 O 0.56277 0.48814 0.028 0.0
O663 O 0.55973 0.56285 0.0082 0.0
O664 O 0.57315 0.53534 0.02333 0.0
O665 O 0.54531 0.55496 0.05927 0.0
O666 O 0.5337 0.5154 0.05505 0.0
O667 O 0.53961 0.59498 0.036 0.0
O668 O 0.5041 0.57847 0.01829 0.0
C669 C 0.52346 0.52841 0.9742 0.0
O670 O 0.49988 0.50032 0.01352 0.0
O671 O 0.49772 0.53316 0.03548 0.0
C672 C 0.54509 0.44965 0.03305 0.0
C673 C 0.54095 0.41465 0.06124 0.0
C674 C 0.52272 0.42463 0.05679 0.0
C675 C 0.52481 0.44204 0.04294 0.0
C676 C 0.56325 0.43974 0.03747 0.0
C677 C 0.56125 0.4225 0.05141 0.0
C678 C 0.54805 0.46819 0.01858 0.0
C679 C 0.57681 0.55425 0.01397 0.0
C680 C 0.54158 0.53574 0.06822 0.0
C681 C 0.52351 0.61509 0.00941 0.0
C682 C 0.52823 0.64738 0.97818 0.0
C683 C 0.5469 0.63881 0.98539 0.0
C684 C 0.54453 0.62279 0.00071 0.0
C685 C 0.50479 0.62339 0.0021 0.0
C686 C 0.50707 0.63924 0.98661 0.0
C687 C 0.52058 0.59799 0.0255 0.0
H688 H 0.50695 0.41918 0.06427 0.0
H689 H 0.51063 0.44958 0.04006 0.0
H690 H 0.57908 0.44537 0.0301 0.0
H691 H 0.57552 0.41505 0.05422 0.0
H692 H 0.56356 0.6448 0.97956 0.0
H693 H 0.55924 0.61652 0.00578 0.0
H694 H 0.48831 0.61751 0.00831 0.0
H695 H 0.49212 0.64501 0.98116 0.0
Dy696 Dy 0.78271 0.30842 0.2678 0.0
Dy697 Dy 0.77429 0.25019 0.28391 0.0
C698 C 0.77524 0.28799 0.31624 0.0
O699 O 0.81943 0.30587 0.2766 0.0
O700 O 0.81312 0.26949 0.28879 0.0
O701 O 0.78803 0.34265 0.28612 0.0
O702 O 0.78407 0.33664 0.24856 0.0
O703 O 0.78886 0.25482 0.25105 0.0
O704 O 0.78245 0.28662 0.2354 0.0
O705 O 0.73835 0.25416 0.271 0.0
O706 O 0.74385 0.29244 0.26392 0.0
O707 O 0.76261 0.21368 0.26954 0.0
O708 O 0.78032 0.22512 0.30492 0.0
C709 C 0.82701 0.28916 0.28438 0.0
O710 O 0.77783 0.28904 0.29517 0.0
O711 O 0.77135 0.26686 0.31935 0.0
C712 C 0.76975 0.36588 0.26595 0.0
C713 C 0.74087 0.39534 0.26507 0.0
C714 C 0.73442 0.37473 0.27446 0.0
C715 C 0.7487 0.36012 0.27485 0.0
C716 C 0.77598 0.38607 0.25611 0.0
C717 C 0.76169 0.40063 0.25562 0.0
C718 C 0.78564 0.35139 0.26716 0.0
C719 C 0.78854 0.26746 0.23439 0.0
C720 C 0.73039 0.27147 0.26524 0.0
C721 C 0.78829 0.19315 0.28448 0.0
C722 C 0.81905 0.16563 0.27995 0.0
C723 C 0.8133 0.17731 0.26199 0.0
C724 C 0.79819 0.19104 0.26428 0.0
C725 C 0.79399 0.18146 0.30234 0.0
C726 C 0.80922 0.16795 0.30015 0.0
C727 C 0.77267 0.20791 0.2878 0.0
H728 H 0.71866 0.37019 0.2821 0.0
H729 H 0.74348 0.34452 0.28243 0.0
H730 H 0.79207 0.39071 0.249 0.0
H731 H 0.76701 0.4161 0.24788 0.0
H732 H 0.82071 0.17606 0.24628 0.0
H733 H 0.79439 0.20008 0.2503 0.0
H734 H 0.78667 0.18283 0.3181 0.0
H735 H 0.81302 0.159 0.3142 0.0
Dy736 Dy 0.0279 0.55613 0.49159 0.0
Dy737 Dy 0.0253 0.52051 0.52798 0.0
C738 C 0.03481 0.506 0.47803 0.0
O739 O 0.99218 0.54886 0.50091 0.0
O740 O 0.99034 0.51226 0.50614 0.0
O741 O 0.01392 0.56326 0.45889 0.0
O742 O 0.04282 0.58914 0.48147 0.0
O743 O 0.01478 0.54969 0.54651 0.0
O744 O 0.0323 0.57786 0.52638 0.0
O745 O 0.06189 0.54314 0.53524 0.0
O746 O 0.06443 0.55443 0.49993 0.0
O747 O 0.03453 0.51074 0.56071 0.0
O748 O 0.01207 0.48498 0.53263 0.0
C749 C 0.97999 0.52805 0.50277 0.0
O750 O 0.02465 0.5211 0.47101 0.0
O751 O 0.04149 0.50672 0.50001 0.0
C752 C 0.04503 0.58365 0.4425 0.0
C753 C 0.07633 0.58752 0.41092 0.0
C754 C 0.07411 0.57029 0.42491 0.0
C755 C 0.05853 0.56833 0.44054 0.0
C756 C 0.0467 0.60055 0.42822 0.0
C757 C 0.06223 0.6024 0.41232 0.0
C758 C 0.03072 0.5826 0.46072 0.0
C759 C 0.02247 0.5717 0.5443 0.0
C760 C 0.07431 0.5514 0.51984 0.0
C761 C 0.00478 0.48181 0.57 0.0
C762 C 0.97961 0.4758 0.60629 0.0
C763 C 0.97308 0.48753 0.58891 0.0
C764 C 0.98566 0.49055 0.57077 0.0
C765 C 0.01018 0.46853 0.58633 0.0
C766 C 0.99758 0.46551 0.60449 0.0
C767 C 0.02103 0.48951 0.55444 0.0
H768 H 0.08454 0.55841 0.42384 0.0
H769 H 0.05739 0.55517 0.45151 0.0
H770 H 0.03642 0.61253 0.42969 0.0
H771 H 0.06373 0.6158 0.40162 0.0
H772 H 0.95959 0.49599 0.5904 0.0
H773 H 0.98154 0.50105 0.55827 0.0
H774 H 0.02502 0.46184 0.58586 0.0
H775 H 0.00284 0.45652 0.61794 0.0
Dy776 Dy 0.80781 0.777 0.27605 0.0
Dy777 Dy 0.75809 0.79123 0.27396 0.0
C778 C 0.80591 0.82677 0.2676 0.0
O779 O 0.80708 0.79427 0.31179 0.0
O780 O 0.76726 0.78437 0.30954 0.0
O781 O 0.84536 0.78694 0.28608 0.0
O782 O 0.82701 0.75281 0.26695 0.0
O783 O 0.74899 0.75265 0.2682 0.0
O784 O 0.78232 0.74788 0.2876 0.0
O785 O 0.76568 0.78925 0.23749 0.0
O786 O 0.78769 0.764 0.24037 0.0
O787 O 0.72088 0.78452 0.26265 0.0
O788 O 0.74031 0.81527 0.28696 0.0
C789 C 0.78829 0.7912 0.32173 0.0
O790 O 0.81302 0.80911 0.26043 0.0
O791 O 0.78771 0.82411 0.27831 0.0
C792 C 0.8649 0.7708 0.2587 0.0
C793 C 0.89904 0.77547 0.22895 0.0
C794 C 0.89091 0.79425 0.23635 0.0
C795 C 0.874 0.79194 0.25095 0.0
C796 C 0.87289 0.75201 0.25126 0.0
C797 C 0.88967 0.75427 0.23652 0.0
C798 C 0.84733 0.76808 0.27458 0.0
C799 C 0.75998 0.73992 0.27872 0.0
C800 C 0.77554 0.77446 0.22791 0.0
C801 C 0.70076 0.79858 0.29119 0.0
C802 C 0.66451 0.79303 0.31864 0.0
C803 C 0.67065 0.77375 0.30874 0.0
C804 C 0.68861 0.77648 0.29525 0.0
C805 C 0.6947 0.8178 0.30109 0.0
C806 C 0.6769 0.8151 0.31465 0.0
C807 C 0.71968 0.80222 0.27675 0.0
H808 H 0.89744 0.81073 0.23062 0.0
H809 H 0.86808 0.80673 0.25616 0.0
H810 H 0.86621 0.73554 0.25697 0.0
H811 H 0.89563 0.73949 0.23137 0.0
H812 H 0.66171 0.75652 0.31161 0.0
H813 H 0.69295 0.76131 0.28803 0.0
H814 H 0.70371 0.83502 0.29823 0.0
H815 H 0.67253 0.83033 0.32167 0.0
Dy816 Dy 0.79377 0.28561 0.75943 0.0
Dy817 Dy 0.76153 0.28927 0.79866 0.0
C818 C 0.78791 0.33373 0.78075 0.0
O819 O 0.81318 0.2769 0.78995 0.0
O820 O 0.79828 0.29466 0.81826 0.0
O821 O 0.82511 0.29856 0.7448 0.0
O822 O 0.79955 0.26598 0.72918 0.0
O823 O 0.76613 0.25446 0.79759 0.0
O824 O 0.76988 0.25029 0.75965 0.0
O825 O 0.73703 0.28154 0.76475 0.0
O826 O 0.76322 0.29367 0.74048 0.0
O827 O 0.72878 0.27727 0.8108 0.0
O828 O 0.75577 0.30788 0.8296 0.0
C829 C 0.814 0.28477 0.81175 0.0
O830 O 0.80316 0.32326 0.77484 0.0
O831 O 0.76806 0.32218 0.78572 0.0
C832 C 0.81482 0.29053 0.70423 0.0
C833 C 0.79769 0.30148 0.66233 0.0
C834 C 0.80425 0.31823 0.68225 0.0
C835 C 0.81258 0.31275 0.70314 0.0
C836 C 0.80963 0.27428 0.68397 0.0
C837 C 0.80091 0.27967 0.66313 0.0
C838 C 0.81749 0.28262 0.72652 0.0
C839 C 0.76633 0.24151 0.77849 0.0
C840 C 0.74174 0.28815 0.74501 0.0
C841 C 0.73644 0.2814 0.85101 0.0
C842 C 0.75021 0.26504 0.89076 0.0
C843 C 0.74432 0.25046 0.8694 0.0
C844 C 0.73747 0.25855 0.84967 0.0
C845 C 0.74071 0.2955 0.87253 0.0
C846 C 0.74763 0.28734 0.89241 0.0
C847 C 0.73636 0.29183 0.83013 0.0
H848 H 0.80191 0.33519 0.68183 0.0
H849 H 0.81605 0.32549 0.71856 0.0
H850 H 0.81097 0.25698 0.68455 0.0
H851 H 0.79621 0.26669 0.64775 0.0
H852 H 0.74637 0.23326 0.86771 0.0
H853 H 0.73462 0.24739 0.83324 0.0
H854 H 0.74023 0.31324 0.87378 0.0
H855 H 0.75179 0.29869 0.90887 0.0
Dy856 Dy 0.76535 0.75349 0.7617 0.0
Dy857 Dy 0.79516 0.80609 0.78267 0.0
C858 C 0.78908 0.76709 0.81519 0.0
O859 O 0.73722 0.77095 0.76604 0.0
O860 O 0.75893 0.80369 0.79105 0.0
O861 O 0.73843 0.72201 0.76312 0.0
O862 O 0.75735 0.7243 0.73435 0.0
O863 O 0.77565 0.80854 0.74876 0.0
O864 O 0.77103 0.77176 0.73142 0.0
O865 O 0.81945 0.79116 0.76379 0.0
O866 O 0.80326 0.75308 0.76588 0.0
O867 O 0.82113 0.83739 0.77914 0.0
O868 O 0.80559 0.83538 0.81021 0.0
C869 C 0.73846 0.78936 0.78093 0.0
O870 O 0.77143 0.75402 0.79978 0.0
O871 O 0.80331 0.78597 0.81043 0.0
C872 C 0.75132 0.69072 0.75033 0.0
C873 C 0.77321 0.65642 0.75562 0.0
C874 C 0.78031 0.67705 0.77142 0.0
C875 C 0.76945 0.69407 0.76881 0.0
C876 C 0.74333 0.66965 0.73511 0.0
C877 C 0.75418 0.65238 0.73786 0.0
C878 C 0.74369 0.71062 0.74552 0.0
C879 C 0.77182 0.79325 0.73002 0.0
C880 C 0.82091 0.76989 0.76205 0.0
C881 C 0.81097 0.86983 0.79509 0.0
C882 C 0.79032 0.90557 0.79188 0.0
C883 C 0.7889 0.88956 0.77223 0.0
C884 C 0.79903 0.87175 0.77384 0.0
C885 C 0.81344 0.88649 0.81446 0.0
C886 C 0.80312 0.90424 0.81289 0.0
C887 C 0.81783 0.84889 0.79783 0.0
H888 H 0.7949 0.68034 0.78528 0.0
H889 H 0.77601 0.71035 0.78056 0.0
H890 H 0.72952 0.667 0.72063 0.0
H891 H 0.7486 0.6365 0.72553 0.0
H892 H 0.77893 0.89007 0.7559 0.0
H893 H 0.79659 0.85892 0.75868 0.0
H894 H 0.82242 0.88517 0.831 0.0
H895 H 0.80457 0.91655 0.82821 0.0
Dy896 Dy 0.56036 0.5465 0.53207 0.0
Dy897 Dy 0.50787 0.51832 0.50944 0.0
C898 C 0.54857 0.52618 0.4792 0.0
O899 O 0.54595 0.57211 0.51451 0.0
O900 O 0.50733 0.5558 0.51583 0.0
O901 O 0.59255 0.57229 0.53012 0.0
O902 O 0.58978 0.55456 0.55967 0.0
O903 O 0.50749 0.52286 0.54738 0.0
O904 O 0.53955 0.55444 0.5592 0.0
O905 O 0.52555 0.49006 0.5126 0.0
O906 O 0.55572 0.5104 0.54117 0.0
O907 O 0.47621 0.49061 0.50843 0.0
O908 O 0.47876 0.51242 0.48204 0.0
C909 C 0.52446 0.57367 0.51296 0.0
O910 O 0.56297 0.5274 0.49806 0.0
O911 O 0.52731 0.52706 0.48034 0.0
C912 C 0.62417 0.55943 0.54392 0.0
C913 C 0.65793 0.53648 0.53759 0.0
C914 C 0.6411 0.5363 0.51896 0.0
C915 C 0.62435 0.5476 0.52209 0.0
C916 C 0.64169 0.56066 0.56234 0.0
C917 C 0.65861 0.54932 0.55917 0.0
C918 C 0.60385 0.56723 0.54801 0.0
C919 C 0.52035 0.54004 0.56329 0.0
C920 C 0.54237 0.49037 0.52928 0.0
C921 C 0.44351 0.50241 0.49605 0.0
C922 C 0.40604 0.51992 0.50287 0.0
C923 C 0.42412 0.52251 0.52124 0.0
C924 C 0.44277 0.51393 0.51782 0.0
C925 C 0.42505 0.49892 0.47792 0.0
C926 C 0.4064 0.50766 0.4813 0.0
C927 C 0.46491 0.49708 0.49153 0.0
H928 H 0.64047 0.52682 0.50208 0.0
H929 H 0.61096 0.54621 0.50759 0.0
H930 H 0.64165 0.56948 0.57935 0.0
H931 H 0.67146 0.54965 0.57377 0.0
H932 H 0.42446 0.53222 0.53793 0.0
H933 H 0.4571 0.51722 0.53195 0.0
H934 H 0.42555 0.49032 0.46095 0.0
H935 H 0.39258 0.50538 0.46692 0.0
Dy936 Dy 0.00488 0.52882 0.03486 0.0
Dy937 Dy 0.0561 0.53323 0.01784 0.0
C938 C 0.01192 0.53405 0.98425 0.0
O939 O 0.00355 0.49237 0.01859 0.0
O940 O 0.04294 0.49666 0.02452 0.0
O941 O 0.96717 0.51737 0.02618 0.0
O942 O 0.98372 0.5372 0.05979 0.0
O943 O 0.06147 0.5401 0.05605 0.0
O944 O 0.026 0.51848 0.06289 0.0
O945 O 0.05194 0.56933 0.01902 0.0
O946 O 0.02654 0.56635 0.04537 0.0
O947 O 0.09396 0.5458 0.02386 0.0
O948 O 0.07572 0.52314 -0.00781 0.0
C949 C 0.02115 0.48325 0.01957 0.0
O950 O 0.00489 0.5429 0.00221 0.0
O951 O 0.02876 0.52444 0.98662 0.0
C952 C 0.94949 0.54447 0.04228 0.0
C953 C 0.92054 0.5738 0.03653 0.0
C954 C 0.93937 0.57513 0.02423 0.0
C955 C 0.95369 0.56068 0.02711 0.0
C956 C 0.93093 0.54319 0.05473 0.0
C957 C 0.91664 0.55767 0.05192 0.0
C958 C 0.96425 0.52884 0.04513 0.0
C959 C 0.0485 0.52851 0.06944 0.0
C960 C 0.04134 0.57902 0.03392 0.0
C961 C 0.11191 0.51854 0.00779 0.0
C962 C 0.14234 0.49049 0.01141 0.0
C963 C 0.13236 0.49704 0.03048 0.0
C964 C 0.11723 0.51081 0.02867 0.0
C965 C 0.12178 0.51198 0.98875 0.0
C966 C 0.13676 0.49809 0.9905 0.0
C967 C 0.09589 0.53303 0.0053 0.0
H968 H 0.94284 0.58705 0.01203 0.0
H969 H 0.96795 0.56204 0.01733 0.0
H970 H 0.92744 0.53094 0.06664 0.0
H971 H 0.90262 0.55633 0.06199 0.0
H972 H 0.13604 0.4913 0.04676 0.0
H973 H 0.10966 0.51535 0.04358 0.0
H974 H 0.11791 0.51764 0.97246 0.0
H975 H 0.14429 0.49363 0.97554 0.0
C976 C 0.98945 0.19221 -0.00375 0.0
C977 C 0.99779 0.20294 0.97779 0.0
C978 C 0.99443 0.17182 0.00193 0.0
C979 C 0.00804 0.16113 0.98886 0.0
C980 C 0.01655 0.17186 0.97021 0.0
C981 C 0.01148 0.19243 0.96503 0.0
C982 C 0.98502 0.16167 0.02209 0.0
C983 C 0.03093 0.16143 0.95548 0.0
C984 C 0.03789 0.11891 0.0156 0.0
C985 C 0.02246 0.09676 0.00621 0.0
C986 C 0.03349 0.13966 0.01019 0.0
C987 C 0.01317 0.13884 -0.00533 0.0
C988 C 0.99758 0.11654 0.98507 0.0
C989 C 0.00228 0.09607 0.99096 0.0
C990 C 0.05067 0.16263 0.02131 0.0
C991 C 0.97578 0.11424 0.96838 0.0
H992 H 0.9789 0.19981 0.00646 0.0
H993 H 0.01809 0.20015 0.95069 0.0
H994 H 0.97322 0.14384 0.01611 0.0
H995 H 0.99961 0.16049 0.03477 0.0
H996 H 0.9752 0.17211 0.03096 0.0
H997 H 0.03628 0.17153 0.94159 0.0
H998 H 0.04687 0.16048 0.96634 0.0
H999 H 0.02076 0.14346 0.94748 0.0
H1000 H 0.05355 0.12013 0.02739 0.0
H1001 H 0.99007 0.07937 0.98336 0.0
H1002 H 0.04167 0.17311 0.03131 0.0
H1003 H 0.05765 0.1725 0.00784 0.0
H1004 H 0.06556 0.16063 0.03304 0.0
H1005 H 0.96442 0.12303 0.97685 0.0
H1006 H 0.96559 0.09588 0.96192 0.0
H1007 H 0.98052 0.12288 0.95343 0.0
C1008 C 0.13768 0.81293 0.16432 0.0
C1009 C 0.13573 0.8033 0.14113 0.0
C1010 C 0.1557 0.81147 0.18129 0.0
C1011 C 0.17164 0.79927 0.17519 0.0
C1012 C 0.16939 0.78919 0.15184 0.0
C1013 C 0.15185 0.79167 0.13516 0.0
C1014 C 0.15778 0.82312 0.20574 0.0
C1015 C 0.18527 0.77534 0.14448 0.0
C1016 C 0.23104 0.80926 0.21323 0.0
C1017 C 0.2264 0.79104 0.22615 0.0
C1018 C 0.21342 0.81236 0.19698 0.0
C1019 C 0.19047 0.79671 0.19311 0.0
C1020 C 0.18577 0.7781 0.20585 0.0
C1021 C 0.20362 0.77561 0.22225 0.0
C1022 C 0.21936 0.8326 0.18408 0.0
C1023 C 0.16184 0.76061 0.20204 0.0
H1024 H 0.12538 0.82197 0.16911 0.0
H1025 H 0.15033 0.78386 0.11738 0.0
H1026 H 0.15513 0.81002 0.21742 0.0
H1027 H 0.17564 0.83525 0.21156 0.0
H1028 H 0.14486 0.83288 0.20755 0.0
H1029 H 0.18082 0.76796 0.12584 0.0
H1030 H 0.20371 0.78641 0.14809 0.0
H1031 H 0.18407 0.76094 0.15456 0.0
H1032 H 0.24844 0.82144 0.21608 0.0
H1033 H 0.19969 0.76145 0.23202 0.0
H1034 H 0.20741 0.84329 0.18675 0.0
H1035 H 0.21681 0.82628 0.1653 0.0
H1036 H 0.2377 0.84375 0.18965 0.0
H1037 H 0.14855 0.7694 0.20579 0.0
H1038 H 0.16099 0.74696 0.21304 0.0
H1039 H 0.157 0.75225 0.18369 0.0
C1040 C 0.51555 0.84957 0.47353 0.0
C1041 C 0.50225 0.83359 0.4857 0.0
C1042 C 0.51832 0.87368 0.47857 0.0
C1043 C 0.50757 0.88248 0.49625 0.0
C1044 C 0.49447 0.86648 0.50883 0.0
C1045 C 0.49198 0.84252 0.50345 0.0
C1046 C 0.53246 0.88976 0.46458 0.0
C1047 C 0.48278 0.87467 0.52793 0.0
C1048 C 0.5319 0.94741 0.52226 0.0
C1049 C 0.51527 0.95705 0.51203 0.0
C1050 C 0.52936 0.9234 0.51771 0.0
C1051 C 0.51013 0.90829 0.50173 0.0
C1052 C 0.49336 0.91799 0.49117 0.0
C1053 C 0.4959 0.94202 0.49671 0.0
C1054 C 0.54738 0.9142 0.5301 0.0
C1055 C 0.47291 0.90301 0.47357 0.0
H1056 H 0.52347 0.84319 0.45967 0.0
H1057 H 0.4815 0.83064 0.513 0.0
H1058 H 0.52132 0.89885 0.45561 0.0
H1059 H 0.54706 0.90318 0.47611 0.0
H1060 H 0.53984 0.88046 0.45152 0.0
H1061 H 0.47375 0.86033 0.53658 0.0
H1062 H 0.49594 0.88799 0.54103 0.0
H1063 H 0.46976 0.8829 0.52089 0.0
H1064 H 0.54696 0.95874 0.53411 0.0
H1065 H 0.48312 0.9492 0.4884 0.0
H1066 H 0.55637 0.9065 0.51745 0.0
H1067 H 0.5387 0.90026 0.53937 0.0
H1068 H 0.56074 0.92789 0.54273 0.0
H1069 H 0.47936 0.89456 0.45914 0.0
H1070 H 0.46167 0.91305 0.46646 0.0
H1071 H 0.46208 0.88905 0.48147 0.0
C1072 C 0.49781 0.27902 0.64736 0.0
C1073 C 0.51149 0.30192 0.64787 0.0
C1074 C 0.47942 0.27388 0.66033 0.0
C1075 C 0.47451 0.29206 0.6742 0.0
C1076 C 0.48816 0.31519 0.67466 0.0
C1077 C 0.50641 0.31982 0.66156 0.0
C1078 C 0.46534 0.24898 0.65932 0.0
C1079 C 0.48356 0.33512 0.68914 0.0
C1080 C 0.41499 0.28353 0.69375 0.0
C1081 C 0.41988 0.28049 0.7168 0.0
C1082 C 0.4324 0.28678 0.67956 0.0
C1083 C 0.45537 0.28702 0.68854 0.0
C1084 C 0.46031 0.28352 0.71162 0.0
C1085 C 0.4426 0.28036 0.72543 0.0
C1086 C 0.42629 0.2903 0.65503 0.0
C1087 C 0.4845 0.28358 0.72192 0.0
H1088 H 0.50152 0.26503 0.63687 0.0
H1089 H 0.51677 0.33759 0.66212 0.0
H1090 H 0.46701 0.24412 0.67678 0.0
H1091 H 0.44654 0.24676 0.65357 0.0
H1092 H 0.47105 0.23687 0.64741 0.0
H1093 H 0.49553 0.35213 0.68744 0.0
H1094 H 0.46527 0.3352 0.68402 0.0
H1095 H 0.48567 0.33302 0.70757 0.0
H1096 H 0.39745 0.28324 0.6867 0.0
H1097 H 0.44674 0.27831 0.74324 0.0
H1098 H 0.4308 0.27747 0.64291 0.0
H1099 H 0.4367 0.30774 0.65265 0.0
H1100 H 0.40743 0.28866 0.65033 0.0
H1101 H 0.49034 0.27083 0.71102 0.0
H1102 H 0.48523 0.27941 0.7397 0.0
H1103 H 0.4971 0.30086 0.7224 0.0
C1104 C 0.02008 0.79453 0.60892 0.0
C1105 C 0.0217 0.79641 0.63299 0.0
C1106 C 0.02391 0.81422 0.59798 0.0
C1107 C 0.02965 0.83654 0.61133 0.0
C1108 C 0.03149 0.83862 0.63566 0.0
C1109 C 0.02743 0.81858 0.64618 0.0
C1110 C 0.02171 0.8111 0.57202 0.0
C1111 C 0.03773 0.86204 0.65059 0.0
C1112 C 0.0588 0.88714 0.58203 0.0
C1113 C 0.03985 0.89494 0.57413 0.0
C1114 C 0.0559 0.86868 0.59473 0.0
C1115 C 0.03346 0.85754 0.59965 0.0
C1116 C 0.01439 0.86569 0.59223 0.0
C1117 C 0.0178 0.88423 0.57963 0.0
C1118 C 0.0768 0.86081 0.6025 0.0
C1119 C 0.99016 0.85436 0.59701 0.0
H1120 H 0.01569 0.77758 0.59849 0.0
H1121 H 0.02883 0.82031 0.66478 0.0
H1122 H 0.00803 0.81847 0.56476 0.0
H1123 H 0.03841 0.82063 0.56698 0.0
H1124 H 0.01713 0.79262 0.56408 0.0
H1125 H 0.03882 0.86081 0.66925 0.0
H1126 H 0.0548 0.87308 0.64762 0.0
H1127 H 0.02446 0.87088 0.64585 0.0
H1128 H 0.07599 0.89549 0.57826 0.0
H1129 H 0.00297 0.8899 0.57348 0.0
H1130 H 0.07412 0.84287 0.59386 0.0
H1131 H 0.07878 0.86061 0.62135 0.0
H1132 H 0.0933 0.8721 0.59852 0.0
H1133 H 0.98383 0.83617 0.58803 0.0
H1134 H 0.97744 0.86348 0.59121 0.0
H1135 H 0.99057 0.85393 0.61574 0.0
C1136 C 0.45829 0.81621 0.84929 0.0
C1137 C 0.47508 0.81159 0.83626 0.0
C1138 C 0.43518 0.8136 0.83926 0.0
C1139 C 0.42801 0.80622 0.81524 0.0
C1140 C 0.44486 0.80208 0.80167 0.0
C1141 C 0.46816 0.80479 0.81229 0.0
C1142 C 0.4182 0.81827 0.85467 0.0
C1143 C 0.43812 0.79438 0.77598 0.0
C1144 C 0.36192 0.77716 0.79865 0.0
C1145 C 0.35342 0.79535 0.79261 0.0
C1146 C 0.38607 0.78015 0.80482 0.0
C1147 C 0.4026 0.80192 0.80506 0.0
C1148 C 0.39426 0.8202 0.79835 0.0
C1149 C 0.36993 0.81673 0.79225 0.0
C1150 C 0.39382 0.76012 0.81194 0.0
C1151 C 0.41105 0.84371 0.79829 0.0
H1152 H 0.4631 0.82176 0.86776 0.0
H1153 H 0.48076 0.80122 0.80192 0.0
H1154 H 0.41034 0.83136 0.84855 0.0
H1155 H 0.40371 0.80219 0.85396 0.0
H1156 H 0.42663 0.82458 0.87294 0.0
H1157 H 0.4534 0.79352 0.76753 0.0
H1158 H 0.42502 0.77701 0.77234 0.0
H1159 H 0.42983 0.80641 0.76813 0.0
H1160 H 0.34965 0.76043 0.79886 0.0
H1161 H 0.36386 0.83095 0.78747 0.0
H1162 H 0.40129 0.76414 0.83056 0.0
H1163 H 0.40776 0.75734 0.80234 0.0
H1164 H 0.37918 0.74377 0.8089 0.0
H1165 H 0.41907 0.85198 0.81627 0.0
H1166 H 0.40228 0.85533 0.79028 0.0
H1167 H 0.42545 0.842 0.78885 0.0
C1168 C 0.48712 0.17093 0.12619 0.0
C1169 C 0.50658 0.18347 0.14273 0.0
C1170 C 0.48862 0.1532 0.10918 0.0
C1171 C 0.51009 0.14789 0.10869 0.0
C1172 C 0.52984 0.16089 0.12523 0.0
C1173 C 0.52779 0.17835 0.14205 0.0
C1174 C 0.4671 0.13983 0.09201 0.0
C1175 C 0.5531 0.15607 0.12547 0.0
C1176 C 0.51079 0.08815 0.08017 0.0
C1177 C 0.51809 0.09267 0.05908 0.0
C1178 C 0.5078 0.10578 0.09625 0.0
C1179 C 0.51199 0.12862 0.09119 0.0
C1180 C 0.51899 0.13321 0.06978 0.0
C1181 C 0.52202 0.1153 0.0541 0.0
C1182 C 0.50046 0.09998 0.11884 0.0
C1183 C 0.52352 0.15716 0.06349 0.0
H1184 H 0.47062 0.17461 0.12688 0.0
H1185 H 0.54279 0.18787 0.155 0.0
H1186 H 0.47082 0.14062 0.07418 0.0
H1187 H 0.46213 0.12134 0.09412 0.0
H1188 H 0.45199 0.14653 0.0941 0.0
H1189 H 0.56693 0.16811 0.13901 0.0
H1190 H 0.55129 0.13808 0.12851 0.0
H1191 H 0.55886 0.15756 0.10847 0.0
H1192 H 0.50761 0.0708 0.0843 0.0
H1193 H 0.52747 0.1191 0.03786 0.0
H1194 H 0.48436 0.10482 0.12116 0.0
H1195 H 0.51432 0.11015 0.13335 0.0
H1196 H 0.49714 0.0813 0.11991 0.0
H1197 H 0.50791 0.16325 0.06458 0.0
H1198 H 0.5279 0.15777 0.04583 0.0
H1199 H 0.53821 0.16946 0.07594 0.0
C1200 C 0.12491 0.30838 0.33453 0.0
C1201 C 0.10664 0.30776 0.31698 0.0
C1202 C 0.14667 0.30588 0.32949 0.0
C1203 C 0.15082 0.3031 0.30628 0.0
C1204 C 0.13264 0.30307 0.28859 0.0
C1205 C 0.11096 0.30513 0.29407 0.0
C1206 C 0.16507 0.30565 0.34905 0.0
C1207 C 0.136 0.30068 0.26365 0.0
C1208 C 0.21453 0.31509 0.29394 0.0
C1209 C 0.21649 0.29272 0.28787 0.0
C1210 C 0.19347 0.31873 0.29974 0.0
C1211 C 0.17375 0.29959 0.30036 0.0
C1212 C 0.17583 0.27698 0.29466 0.0
C1213 C 0.19682 0.27385 0.2882 0.0
C1214 C 0.19225 0.34317 0.30489 0.0
C1215 C 0.15585 0.25592 0.29556 0.0
H1216 H 0.12201 0.3102 0.35228 0.0
H1217 H 0.09726 0.30467 0.2802 0.0
H1218 H 0.1691 0.2889 0.34669 0.0
H1219 H 0.18151 0.31947 0.34902 0.0
H1220 H 0.15946 0.30817 0.36613 0.0
H1221 H 0.12088 0.30236 0.25199 0.0
H1222 H 0.15202 0.31407 0.26154 0.0
H1223 H 0.13844 0.28357 0.25818 0.0
H1224 H 0.22941 0.32989 0.29375 0.0
H1225 H 0.19798 0.25646 0.28386 0.0
H1226 H 0.18863 0.34667 0.32269 0.0
H1227 H 0.17761 0.3454 0.293 0.0
H1228 H 0.2087 0.35621 0.30313 0.0
H1229 H 0.15053 0.25705 0.31287 0.0
H1230 H 0.16046 0.23957 0.29186 0.0
H1231 H 0.14047 0.2552 0.28284 0.0
C1232 C 0.97298 0.04284 0.18499 0.0
C1233 C 0.98404 0.02982 0.1979 0.0
C1234 C 0.97812 0.04672 0.16289 0.0
C1235 C 0.99472 0.03738 0.15343 0.0
C1236 C 0.00639 0.02482 0.16668 0.0
C1237 C 1.00094 0.02123 0.18862 0.0
C1238 C 0.96536 0.06029 0.14941 0.0
C1239 C 0.02422 0.01456 0.15741 0.0
C1240 C 0.99253 0.02285 0.08857 0.0
C1241 C 0.01173 0.04031 0.08454 0.0
C1242 C 0.98624 0.02225 0.11067 0.0
C1243 C 0.99928 0.03965 0.12933 0.0
C1244 C 0.01797 0.05794 0.12518 0.0
C1245 C 0.02403 0.05801 0.10291 0.0
C1246 C 0.96627 0.00233 0.11424 0.0
C1247 C 0.0322 0.07697 0.14448 0.0
H1248 H 0.9599 0.04954 0.19191 0.0
H1249 H 0.00975 0.01125 0.19837 0.0
H1250 H 0.97805 0.07454 0.1435 0.0
H1251 H 0.95413 0.04886 0.13378 0.0
H1252 H 0.9542 0.06775 0.1597 0.0
H1253 H 0.03237 0.00597 0.17017 0.0
H1254 H 0.01577 0.00162 0.14171 0.0
H1255 H 0.03825 0.02825 0.15235 0.0
H1256 H 0.9828 0.00909 0.07459 0.0
H1257 H 0.0388 0.07168 0.10006 0.0
H1258 H 0.95372 0.00888 0.12324 0.0
H1259 H 0.97313 0.99147 0.12535 0.0
H1260 H 0.9567 0.99122 0.09772 0.0
H1261 H 0.02053 0.08423 0.15419 0.0
H1262 H 0.04441 0.09123 0.13805 0.0
H1263 H 0.04256 0.06979 0.15679 0.0
C1264 C 0.26392 0.68614 0.48278 0.0
C1265 C 0.28266 0.69263 0.5009 0.0
C1266 C 0.26479 0.69771 0.46384 0.0
C1267 C 0.28466 0.71666 0.46361 0.0
C1268 C 0.30417 0.72254 0.48143 0.0
C1269 C 0.303 0.71017 0.49994 0.0
C1270 C 0.24378 0.69063 0.44488 0.0
C1271 C 0.32536 0.74294 0.48201 0.0
C1272 C 0.28077 0.7335 0.40506 0.0
C1273 C 0.26566 0.7472 0.40722 0.0
C1274 C 0.2896 0.72529 0.42415 0.0
C1275 C 0.28342 0.73134 0.44578 0.0
C1276 C 0.27094 0.74775 0.44861 0.0
C1277 C 0.26188 0.75528 0.42915 0.0
C1278 C 0.30322 0.70813 0.42062 0.0
C1279 C 0.26489 0.75534 0.47172 0.0
H1280 H 0.24822 0.67257 0.48389 0.0
H1281 H 0.31726 0.71527 0.51439 0.0
H1282 H 0.23473 0.7042 0.44551 0.0
H1283 H 0.24933 0.6888 0.42773 0.0
H1284 H 0.23103 0.67402 0.4465 0.0
H1285 H 0.34087 0.74157 0.49331 0.0
H1286 H 0.32971 0.74465 0.4645 0.0
H1287 H 0.32159 0.75903 0.48895 0.0
H1288 H 0.28461 0.72811 0.3882 0.0
H1289 H 0.25051 0.76616 0.43098 0.0
H1290 H 0.29137 0.69038 0.41974 0.0
H1291 H 0.31764 0.71112 0.43524 0.0
H1292 H 0.31065 0.70898 0.40435 0.0
H1293 H 0.25003 0.74155 0.47545 0.0
H1294 H 0.25969 0.77148 0.47198 0.0
H1295 H 0.2799 0.75822 0.4857 0.0
C1296 C 0.64968 0.04199 0.65226 0.0
C1297 C 0.6447 0.03081 0.67114 0.0
C1298 C 0.63364 0.03612 0.63181 0.0
C1299 C 0.61205 0.01891 0.63055 0.0
C1300 C 0.60833 0.00555 0.6485 0.0
C1301 C 0.62488 0.01167 0.66877 0.0
C1302 C 0.6385 0.05056 0.61296 0.0
C1303 C 0.58566 0.98683 0.64756 0.0
C1304 C 0.55991 0.03524 0.60419 0.0
C1305 C 0.55527 0.02287 0.58191 0.0
C1306 C 0.57841 0.03399 0.62014 0.0
C1307 C 0.59186 0.01918 0.61379 0.0
C1308 C 0.58667 0.00601 0.59141 0.0
C1309 C 0.56857 0.00836 0.57548 0.0
C1310 C 0.58387 0.049 0.64358 0.0
C1311 C 0.59998 0.98936 0.58441 0.0
H1312 H 0.66524 0.05668 0.6542 0.0
H1313 H 0.62112 0.00308 0.68349 0.0
H1314 H 0.63238 0.0397 0.59574 0.0
H1315 H 0.62887 0.06365 0.6141 0.0
H1316 H 0.65744 0.05977 0.61446 0.0
H1317 H 0.58738 0.97505 0.66017 0.0
H1318 H 0.57195 -0.0051 0.65172 0.0
H1319 H 0.57966 0.97651 0.63002 0.0
H1320 H 0.5495 0.0465 0.60889 0.0
H1321 H 0.56457 -0.0014 0.55819 0.0
H1322 H 0.60201 0.06077 0.64632 0.0
H1323 H 0.5827 0.03806 0.65733 0.0
H1324 H 0.57179 0.05968 0.64557 0.0
H1325 H 0.61909 -0.00191 0.58816 0.0
H1326 H 0.595 0.98182 0.56581 0.0
H1327 H 0.59639 0.97503 0.59465 0.0
C1328 C 0.27131 0.32754 0.95241 0.0
C1329 C 0.28818 0.32331 0.96843 0.0
C1330 C 0.27023 0.32112 0.92847 0.0
C1331 C 0.28678 0.31079 0.92033 0.0
C1332 C 0.30338 0.30593 0.93645 0.0
C1333 C 0.30367 0.31195 0.96016 0.0
C1334 C 0.25179 0.32597 0.91187 0.0
C1335 C 0.32167 0.29541 0.92868 0.0
C1336 C 0.2785 0.28025 0.85824 0.0
C1337 C 0.29137 0.29793 0.84776 0.0
C1338 C 0.27635 0.2843 0.8817 0.0
C1339 C 0.28786 0.30638 0.89509 0.0
C1340 C 0.30126 0.32412 0.88452 0.0
C1341 C 0.30247 0.31979 0.86088 0.0
C1342 C 0.26138 0.2651 0.89204 0.0
C1343 C 0.31438 0.34769 0.89819 0.0
H1344 H 0.25924 0.33624 0.95853 0.0
H1345 H 0.31689 0.30863 0.97225 0.0
H1346 H 0.26018 0.33976 0.90231 0.0
H1347 H 0.24262 0.31029 0.89896 0.0
H1348 H 0.23867 0.33162 0.92082 0.0
H1349 H 0.33283 0.29194 0.94335 0.0
H1350 H 0.31324 0.27895 0.91666 0.0
H1351 H 0.33307 0.30733 0.91917 0.0
H1352 H 0.26944 0.2635 0.84786 0.0
H1353 H 0.31212 0.33351 0.8526 0.0
H1354 H 0.24756 0.27096 0.89947 0.0
H1355 H 0.27215 0.26066 0.90633 0.0
H1356 H 0.25292 0.24921 0.87913 0.0
H1357 H 0.30195 0.35594 0.90536 0.0
H1358 H 0.32454 0.35936 0.88758 0.0
H1359 H 0.3266 0.34592 0.91299 0.0
C1360 C 0.97522 0.03151 0.34217 0.0
C1361 C 0.99168 0.03169 0.3273 0.0
C1362 C 0.98101 0.03111 0.36586 0.0
C1363 C 0.00398 0.03149 0.37504 0.0
C1364 C 0.02096 0.03282 0.36027 0.0
C1365 C 0.01453 0.03259 0.33657 0.0
C1366 C 0.96229 0.02939 0.38091 0.0
C1367 C 0.04579 0.03391 0.3694 0.0
C1368 C 0.02378 0.0499 0.4398 0.0
C1369 C 0.02139 0.02859 0.44768 0.0
C1370 C 0.01834 0.05106 0.41632 0.0
C1371 C 0.01022 0.03043 0.40006 0.0
C1372 C 0.00798 0.00885 0.40777 0.0
C1373 C 0.01359 0.00818 0.43147 0.0
C1374 C 0.02115 0.07444 0.40894 0.0
C1375 C 0.99938 0.98644 0.39099 0.0
H1376 H 0.95743 0.03038 0.33507 0.0
H1377 H 0.0273 0.03264 0.32515 0.0
H1378 H 0.9594 0.01311 0.38828 0.0
H1379 H 0.968 0.04392 0.39558 0.0
H1380 H 0.9454 0.02963 0.37125 0.0
H1381 H 0.0572 0.03619 0.35594 0.0
H1382 H 0.05331 0.04845 0.38395 0.0
H1383 H 0.046 0.01775 0.37617 0.0
H1384 H 0.02979 0.06587 0.45204 0.0
H1385 H 0.01163 0.99166 0.4373 0.0
H1386 H 0.00403 0.07534 0.4005 0.0
H1387 H 0.03319 0.07696 0.39607 0.0
H1388 H 0.02808 0.0889 0.42367 0.0
H1389 H 0.98164 0.98454 0.38174 0.0
H1390 H 0.99865 0.97112 0.39965 0.0
H1391 H 0.01103 0.98661 0.37783 0.0
C1392 C 0.32069 0.69852 0.63768 0.0
C1393 C 0.32354 0.70828 0.61766 0.0
C1394 C 0.32417 0.71284 0.65889 0.0
C1395 C 0.33126 0.73715 0.65966 0.0
C1396 C 0.33873 0.74668 0.6403 0.0
C1397 C 0.33426 0.73203 0.61917 0.0
C1398 C 0.31628 0.702 0.67932 0.0
C1399 C 0.34784 0.77248 0.64103 0.0
C1400 C 0.29205 0.76343 0.69122 0.0
C1401 C 0.30509 0.76976 0.71326 0.0
C1402 C 0.30106 0.75391 0.67312 0.0
C1403 C 0.32391 0.75148 0.67738 0.0
C1404 C 0.33794 0.76008 0.69926 0.0
C1405 C 0.32809 0.76871 0.71722 0.0
C1406 C 0.28538 0.7448 0.65 0.0
C1407 C 0.36268 0.75888 0.70422 0.0
H1408 H 0.31248 0.68006 0.63631 0.0
H1409 H 0.33674 0.73939 0.60353 0.0
H1410 H 0.32867 0.71063 0.69536 0.0
H1411 H 0.29895 0.70414 0.68161 0.0
H1412 H 0.31462 0.68322 0.67694 0.0
H1413 H 0.35867 0.77668 0.62733 0.0
H1414 H 0.3329 0.77965 0.63815 0.0
H1415 H 0.35841 0.78113 0.65808 0.0
H1416 H 0.27422 0.76433 0.68856 0.0
H1417 H 0.33806 0.7739 0.73452 0.0
H1418 H 0.28209 0.72581 0.64577 0.0
H1419 H 0.29396 0.75281 0.63623 0.0
H1420 H 0.26824 0.74833 0.6497 0.0
H1421 H 0.36247 0.74219 0.71001 0.0
H1422 H 0.37331 0.77298 0.71827 0.0
H1423 H 0.3713 0.76005 0.68869 0.0
C1424 C 0.6472 0.09484 0.80225 0.0
C1425 C 0.64048 0.07311 0.78821 0.0
C1426 C 0.63684 0.09849 0.82177 0.0
C1427 C 0.61888 0.08015 0.82687 0.0
C1428 C 0.61177 0.05828 0.81249 0.0
C1429 C 0.62293 0.05493 0.79349 0.0
C1430 C 0.64534 0.12181 0.83713 0.0
C1431 C 0.5924 0.03844 0.8172 0.0
C1432 C 0.60311 0.079 0.8868 0.0
C1433 C 0.58259 0.08567 0.88437 0.0
C1434 C 0.61564 0.07795 0.86846 0.0
C1435 C 0.60739 0.08368 0.8472 0.0
C1436 C 0.58725 0.09135 0.84495 0.0
C1437 C 0.57507 0.09226 0.86359 0.0
C1438 C 0.63726 0.07001 0.87161 0.0
C1439 C 0.57798 0.09763 0.82253 0.0
H1440 H 0.66108 0.10879 0.79834 0.0
H1441 H 0.61777 0.03813 0.7826 0.0
H1442 H 0.63071 0.12943 0.83809 0.0
H1443 H 0.65169 0.11977 0.85492 0.0
H1444 H 0.65972 0.13414 0.83091 0.0
H1445 H 0.5885 0.02276 0.80394 0.0
H1446 H 0.5973 0.03389 0.83431 0.0
H1447 H 0.57621 0.04364 0.8177 0.0
H1448 H 0.60922 0.07432 0.90301 0.0
H1449 H 0.55914 0.09727 0.86159 0.0
H1450 H 0.65208 0.08236 0.86606 0.0
H1451 H 0.63395 0.05298 0.86062 0.0
H1452 H 0.64252 0.06825 0.88979 0.0
H1453 H 0.592 0.11061 0.81662 0.0
H1454 H 0.56304 0.10473 0.82409 0.0
H1455 H 0.57212 0.08204 0.809 0.0
C1456 C 0.30195 0.33 0.1129 0.0
C1457 C 0.2854 0.33567 0.09768 0.0
C1458 C 0.29752 0.32459 0.13462 0.0
C1459 C 0.27575 0.32433 0.1414 0.0
C1460 C 0.25889 0.33009 0.1262 0.0
C1461 C 0.26402 0.33596 0.10461 0.0
C1462 C 0.31624 0.31901 0.1503 0.0
C1463 C 0.23534 0.32965 0.1326 0.0
C1464 C 0.26193 0.28674 0.18781 0.0
C1465 C 0.26945 0.30311 0.20812 0.0
C1466 C 0.26238 0.29354 0.16593 0.0
C1467 C 0.27078 0.31731 0.16415 0.0
C1468 C 0.27723 0.33399 0.18452 0.0
C1469 C 0.27638 0.32671 0.20621 0.0
C1470 C 0.25506 0.27513 0.14474 0.0
C1471 C 0.28643 0.3595 0.18355 0.0
H1472 H 0.31867 0.33002 0.10793 0.0
H1473 H 0.25114 0.34031 0.093 0.0
H1474 H 0.3204 0.33053 0.16722 0.0
H1475 H 0.3098 0.30096 0.15356 0.0
H1476 H 0.33262 0.32098 0.1429 0.0
H1477 H 0.22435 0.33509 0.11922 0.0
H1478 H 0.2259 0.3119 0.13507 0.0
H1479 H 0.23757 0.34122 0.14921 0.0
H1480 H 0.25631 0.26847 0.18897 0.0
H1481 H 0.28214 0.33956 0.2217 0.0
H1482 H 0.27072 0.274 0.13713 0.0
H1483 H 0.24319 0.27967 0.13148 0.0
H1484 H 0.24612 0.25782 0.14873 0.0
H1485 H 0.30399 0.36323 0.17833 0.0
H1486 H 0.28794 0.37036 0.20048 0.0
H1487 H 0.27489 0.36461 0.17045 0.0
C1488 C 0.22668 0.9399 0.02638 0.0
C1489 C 0.25088 0.94964 0.03326 0.0
C1490 C 0.21123 0.95251 0.03137 0.0
C1491 C 0.2203 0.97549 0.04322 0.0
C1492 C 0.24462 0.98501 0.05121 0.0
C1493 C 0.25968 0.97185 0.04626 0.0
C1494 C 0.18535 0.94163 0.02287 0.0
C1495 C 0.25484 0.00952 0.06384 0.0
C1496 C 0.18616 0.01687 0.02897 0.0
C1497 C 0.17491 0.01844 0.04821 0.0
C1498 C 0.20098 0.00291 0.0272 0.0
C1499 C 0.20469 0.99032 0.04516 0.0
C1500 C 0.19344 0.99184 0.06466 0.0
C1501 C 0.17867 0.00597 0.06598 0.0
C1502 C 0.21255 0.00153 0.00602 0.0
C1503 C 0.19673 0.9783 0.0839 0.0
H1504 H 0.21982 0.92254 0.01664 0.0
H1505 H 0.27839 0.97935 0.05164 0.0
H1506 H 0.17512 0.94444 0.03673 0.0
H1507 H 0.17976 0.94991 0.0084 0.0
H1508 H 0.18092 0.92274 0.01673 0.0
H1509 H 0.27376 0.01362 0.07066 0.0
H1510 H 0.25257 0.02178 0.05195 0.0
H1511 H 0.24546 0.01246 0.07839 0.0
H1512 H 0.18337 0.02661 0.01528 0.0
H1513 H 0.16962 0.00683 0.08066 0.0
H1514 H 0.20726 0.98338 -0.003 0.0
H1515 H 0.23184 0.00701 0.01112 0.0
H1516 H 0.20791 0.01254 -0.00631 0.0
H1517 H 0.19077 0.9595 0.07705 0.0
H1518 H 0.18691 0.98162 0.09801 0.0
H1519 H 0.21555 0.98282 0.09121 0.0
C1520 C 0.69014 0.65576 0.02224 0.0
C1521 C 0.7075 0.65301 0.00937 0.0
C1522 C 0.67045 0.63722 0.02273 0.0
C1523 C 0.6676 0.61541 0.00946 0.0
C1524 C 0.6853 0.61236 -0.0033 0.0
C1525 C 0.7053 0.63119 -0.00291 0.0
C1526 C 0.65237 0.64121 0.03702 0.0
C1527 C 0.68263 0.58953 0.98193 0.0
C1528 C 0.62049 0.5663 0.02519 0.0
C1529 C 0.60064 0.56706 0.01068 0.0
C1530 C 0.6428 0.58107 0.02417 0.0
C1531 C 0.64527 0.59658 0.00796 0.0
C1532 C 0.62545 0.59619 -0.00777 0.0
C1533 C 0.60338 0.58164 -0.00605 0.0
C1534 C 0.66337 0.58121 0.04151 0.0
C1535 C 0.62728 0.61213 0.97442 0.0
H1536 H 0.69198 0.67259 0.03201 0.0
H1537 H 0.71871 0.6291 0.98708 0.0
H1538 H 0.63586 0.63964 0.02553 0.0
H1539 H 0.64839 0.62789 0.04839 0.0
H1540 H 0.65822 0.65857 0.04792 0.0
H1541 H 0.69864 0.58941 0.97446 0.0
H1542 H 0.67851 0.57523 -0.00785 0.0
H1543 H 0.66777 0.58595 0.96762 0.0
H1544 H 0.61845 0.55511 0.03819 0.0
H1545 H 0.58812 0.5821 0.98247 0.0
H1546 H 0.66848 0.59735 0.0543 0.0
H1547 H 0.6787 0.58102 0.03294 0.0
H1548 H 0.65928 0.56621 0.05088 0.0
H1549 H 0.63049 0.63016 0.98308 0.0
H1550 H 0.61107 0.60741 0.96147 0.0
H1551 H 0.64224 0.61178 0.96531 0.0
C1552 C 0.66452 0.48552 0.2627 0.0
C1553 C 0.66036 0.49109 0.28521 0.0
C1554 C 0.67707 0.46973 0.25762 0.0
C1555 C 0.68554 0.45913 0.27543 0.0
C1556 C 0.68116 0.46448 0.2981 0.0
C1557 C 0.66871 0.48041 0.30272 0.0
C1558 C 0.68153 0.46461 0.23326 0.0
C1559 C 0.68977 0.45346 0.31757 0.0
C1560 C 0.70196 0.40349 0.26229 0.0
C1561 C 0.7265 0.41171 0.26602 0.0
C1562 C 0.68836 0.41876 0.26458 0.0
C1563 C 0.69952 0.44287 0.27068 0.0
C1564 C 0.72423 0.45133 0.27371 0.0
C1565 C 0.73739 0.43569 0.27145 0.0
C1566 C 0.66206 0.40904 0.2611 0.0
C1567 C 0.73683 0.47691 0.28008 0.0
H1568 H 0.65816 0.49369 0.24904 0.0
H1569 H 0.66552 0.48449 0.32014 0.0
H1570 H 0.70063 0.46971 0.23299 0.0
H1571 H 0.6746 0.44576 0.22678 0.0
H1572 H 0.67334 0.47391 0.22128 0.0
H1573 H 0.68442 0.45903 0.3341 0.0
H1574 H 0.68288 0.43434 0.31318 0.0
H1575 H 0.70914 0.45805 0.32009 0.0
H1576 H 0.69335 0.38506 0.2577 0.0
H1577 H 0.75631 0.44226 0.27466 0.0
H1578 H 0.65388 0.4176 0.24836 0.0
H1579 H 0.65571 0.41264 0.27757 0.0
H1580 H 0.65601 0.39006 0.25504 0.0
H1581 H 0.72965 0.48666 0.2679 0.0
H1582 H 0.75594 0.48083 0.28002 0.0
H1583 H 0.73405 0.48332 0.29755 0.0
C1584 C 0.85243 0.47476 0.53106 0.0
C1585 C 0.85587 0.45428 0.53729 0.0
C1586 C 0.87151 0.49324 0.52872 0.0
C1587 C 0.89429 0.49091 0.53254 0.0
C1588 C 0.89795 0.47168 0.542 0.0
C1589 C 0.87865 0.4537 0.54454 0.0
C1590 C 0.86695 0.51389 0.51955 0.0
C1591 C 0.92188 0.46833 0.54639 0.0
C1592 C 0.93821 0.50594 0.49279 0.0
C1593 C 0.95594 0.52357 0.50714 0.0
C1594 C 0.91667 0.49698 0.49992 0.0
C1595 C 0.91337 0.50533 0.52232 0.0
C1596 C 0.93064 0.52447 0.53608 0.0
C1597 C 0.95178 0.53355 0.52817 0.0
C1598 C 0.89838 0.47703 0.48439 0.0
C1599 C 0.92795 0.53365 0.56011 0.0
H1600 H 0.83483 0.47559 0.52594 0.0
H1601 H 0.8815 0.43817 0.54992 0.0
H1602 H 0.88144 0.52994 0.52648 0.0
H1603 H 0.86552 0.51102 0.50049 0.0
H1604 H 0.85031 0.51641 0.52387 0.0
H1605 H 0.92286 0.45691 0.55953 0.0
H1606 H 0.92564 0.46009 0.53011 0.0
H1607 H 0.93565 0.48505 0.55218 0.0
H1608 H 0.94166 0.49829 0.47658 0.0
H1609 H 0.96579 0.54708 0.5393 0.0
H1610 H 0.88087 0.47971 0.48368 0.0
H1611 H 0.89754 0.46078 0.49141 0.0
H1612 H 0.90232 0.47479 0.46655 0.0
H1613 H 0.90981 0.53424 0.56071 0.0
H1614 H 0.94028 0.55122 0.5665 0.0
H1615 H 0.93167 0.52191 0.57203 0.0
C1616 C 0.32842 0.05536 0.28913 0.0
C1617 C 0.35243 0.06431 0.29724 0.0
C1618 C 0.31541 0.06973 0.28198 0.0
C1619 C 0.32665 0.09369 0.28377 0.0
C1620 C 0.35096 0.10284 0.29211 0.0
C1621 C 0.36374 0.08785 0.29838 0.0
C1622 C 0.28969 0.05927 0.27245 0.0
C1623 C 0.36333 0.12842 0.29474 0.0
C1624 C 0.29692 0.12944 0.24985 0.0
C1625 C 0.28605 0.13879 0.26659 0.0
C1626 C 0.31015 0.11458 0.25514 0.0
C1627 C 0.31268 0.10922 0.27774 0.0
C1628 C 0.30146 0.11832 0.29459 0.0
C1629 C 0.2881 0.13286 0.28874 0.0
C1630 C 0.32163 0.10484 0.23667 0.0
C1631 C 0.30383 0.11298 0.31888 0.0
H1632 H 0.31994 0.03696 0.28788 0.0
H1633 H 0.3824 0.09452 0.30453 0.0
H1634 H 0.27913 0.06646 0.28372 0.0
H1635 H 0.28581 0.06382 0.25511 0.0
H1636 H 0.28397 0.04012 0.27106 0.0
H1637 H 0.38229 0.13271 0.30154 0.0
H1638 H 0.36131 0.13443 0.27787 0.0
H1639 H 0.35528 0.13821 0.30665 0.0
H1640 H 0.29564 0.13426 0.2328 0.0
H1641 H 0.27945 0.13983 0.30162 0.0
H1642 H 0.31626 0.08567 0.23467 0.0
H1643 H 0.34091 0.11102 0.2418 0.0
H1644 H 0.31709 0.10993 0.21971 0.0
H1645 H 0.29685 0.09407 0.31863 0.0
H1646 H 0.2944 0.12192 0.33006 0.0
H1647 H 0.32257 0.11829 0.32672 0.0
C1648 C 0.33981 0.1656 0.52495 0.0
C1649 C 0.31634 0.15363 0.52524 0.0
C1650 C 0.3572 0.15418 0.52597 0.0
C1651 C 0.35094 0.13014 0.52695 0.0
C1652 C 0.32725 0.11799 0.52708 0.0
C1653 C 0.31034 0.12987 0.52638 0.0
C1654 C 0.38228 0.16784 0.52614 0.0
C1655 C 0.31972 0.09234 0.5279 0.0
C1656 C 0.38954 0.09325 0.50879 0.0
C1657 C 0.39958 0.08962 0.53014 0.0
C1658 C 0.37422 0.10695 0.50748 0.0
C1659 C 0.36901 0.11753 0.52803 0.0
C1660 C 0.37984 0.11466 0.54964 0.0
C1661 C 0.39484 0.10065 0.55042 0.0
C1662 C 0.36291 0.10935 0.4841 0.0
C1663 C 0.3751 0.1259 0.57196 0.0
H1664 H 0.34464 0.18397 0.52416 0.0
H1665 H 0.29227 0.12039 0.5265 0.0
H1666 H 0.39341 0.16646 0.54194 0.0
H1667 H 0.38891 0.16057 0.51117 0.0
H1668 H 0.38435 0.18643 0.52549 0.0
H1669 H 0.30056 0.08532 0.52741 0.0
H1670 H 0.32472 0.08284 0.5131 0.0
H1671 H 0.32882 0.08881 0.54388 0.0
H1672 H 0.39301 0.08468 0.49305 0.0
H1673 H 0.40281 0.09821 0.56699 0.0
H1674 H 0.36571 0.12789 0.48273 0.0
H1675 H 0.34374 0.10106 0.48188 0.0
H1676 H 0.36984 0.10124 0.46981 0.0
H1677 H 0.37803 0.14469 0.57194 0.0
H1678 H 0.38634 0.12357 0.58725 0.0
H1679 H 0.35653 0.11831 0.57371 0.0
C1680 C 0.6831 0.60997 0.28347 0.0
C1681 C 0.66343 0.61168 0.29322 0.0
C1682 C 0.7013 0.62987 0.28242 0.0
C1683 C 0.6999 0.65192 0.29159 0.0
C1684 C 0.68079 0.65359 0.30271 0.0
C1685 C 0.66273 0.63348 0.30325 0.0
C1686 C 0.72128 0.62739 0.27025 0.0
C1687 C 0.67881 0.67674 0.31302 0.0
C1688 C 0.75209 0.70608 0.29996 0.0
C1689 C 0.74624 0.71636 0.28105 0.0
C1690 C 0.73749 0.68474 0.30341 0.0
C1691 C 0.71687 0.67336 0.28735 0.0
C1692 C 0.71152 0.68324 0.26771 0.0
C1693 C 0.72615 0.7047 0.26492 0.0
C1694 C 0.7436 0.67488 0.32471 0.0
C1695 C 0.68992 0.67152 0.24996 0.0
H1696 H 0.68377 0.59319 0.27567 0.0
H1697 H 0.64771 0.63491 0.31104 0.0
H1698 H 0.71995 0.6342 0.25373 0.0
H1699 H 0.73829 0.63768 0.28081 0.0
H1700 H 0.72122 0.60907 0.26645 0.0
H1701 H 0.66432 0.67491 0.32326 0.0
H1702 H 0.69539 0.68711 0.32429 0.0
H1703 H 0.6756 0.68661 0.29902 0.0
H1704 H 0.76753 0.71515 0.31255 0.0
H1705 H 0.72169 0.71249 0.25015 0.0
H1706 H 0.74316 0.65657 0.32 0.0
H1707 H 0.73039 0.67513 0.33619 0.0
H1708 H 0.76115 0.68482 0.3345 0.0
H1709 H 0.68929 0.65339 0.24383 0.0
H1710 H 0.68924 0.68061 0.23482 0.0
H1711 H 0.67405 0.67096 0.25788 0.0
C1712 C 0.81535 0.46057 0.75846 0.0
C1713 C 0.8291 0.47531 0.77812 0.0
C1714 C 0.8018 0.43837 0.76026 0.0
C1715 C 0.80262 0.43126 0.78215 0.0
C1716 C 0.81253 0.4478 0.8023 0.0
C1717 C 0.82531 0.47015 0.79999 0.0
C1718 C 0.79027 0.42146 0.73845 0.0
C1719 C 0.81346 0.44105 0.82603 0.0
C1720 C 0.77385 0.36843 0.78466 0.0
C1721 C 0.79221 0.35882 0.78167 0.0
C1722 C 0.77705 0.39211 0.78552 0.0
C1723 C 0.79911 0.4065 0.78326 0.0
C1724 C 0.81792 0.39708 0.78077 0.0
C1725 C 0.81417 0.37323 0.77987 0.0
C1726 C 0.75665 0.40153 0.78813 0.0
C1727 C 0.84193 0.41212 0.7787 0.0
H1728 H 0.8181 0.46491 0.74157 0.0
H1729 H 0.83582 0.48187 0.8152 0.0
H1730 H 0.80211 0.41124 0.73366 0.0
H1731 H 0.77368 0.4092 0.74098 0.0
H1732 H 0.78658 0.43054 0.72389 0.0
H1733 H 0.81563 0.45617 0.83951 0.0
H1734 H 0.79752 0.42717 0.82735 0.0
H1735 H 0.82872 0.43444 0.82959 0.0
H1736 H 0.75671 0.35739 0.78603 0.0
H1737 H 0.8284 0.36591 0.77777 0.0
H1738 H 0.75 0.4056 0.77132 0.0
H1739 H 0.76209 0.41781 0.80071 0.0
H1740 H 0.74206 0.38892 0.79377 0.0
H1741 H 0.841 0.41975 0.76264 0.0
H1742 H 0.85492 0.40229 0.77833 0.0
H1743 H 0.84832 0.42662 0.7934 0.0
C1744 C 0.07919 0.87207 0.05153 0.0
C1745 C 0.0667 0.85979 0.06708 0.0
C1746 C 0.07565 0.89287 0.0455 0.0
C1747 C 0.05906 0.90224 0.05504 0.0
C1748 C 0.04629 0.88993 0.07069 0.0
C1749 C 0.05023 0.8691 0.07648 0.0
C1750 C 0.08984 0.90492 0.02881 0.0
C1751 C 0.02843 0.89887 0.08147 0.0
C1752 C 0.06532 0.96748 0.05442 0.0
C1753 C 0.04845 0.96717 0.03555 0.0
C1754 C 0.0687 0.94678 0.06105 0.0
C1755 C 0.05515 0.92471 0.04854 0.0
C1756 C 0.03822 0.9243 0.02939 0.0
C1757 C 0.03503 0.94525 0.02329 0.0
C1758 C 0.08689 0.94856 0.08161 0.0
C1759 C 0.02343 0.90159 0.01515 0.0
H1760 H 0.09204 0.86546 0.04403 0.0
H1761 H 0.04038 0.86013 0.08851 0.0
H1762 H 0.07801 0.90658 0.01365 0.0
H1763 H 0.10029 0.92269 0.03716 0.0
H1764 H 0.10192 0.89554 0.02268 0.0
H1765 H 0.01986 0.88754 0.09324 0.0
H1766 H 0.03692 0.91652 0.09133 0.0
H1767 H 0.01477 0.9002 0.0678 0.0
H1768 H 0.07585 0.98402 0.06429 0.0
H1769 H 0.02192 0.94438 0.00869 0.0
H1770 H 0.10036 0.94073 0.07623 0.0
H1771 H 0.07865 0.9387 0.09455 0.0
H1772 H 0.09567 0.96676 0.08996 0.0
H1773 H 0.03483 0.89213 0.00772 0.0
H1774 H 0.01099 0.90394 0.00085 0.0
H1775 H 0.01335 0.89054 0.02625 0.0
C1776 C 0.90207 0.25283 0.90909 0.0
C1777 C 0.92554 0.26064 0.90577 0.0
C1778 C 0.88369 0.25658 0.89428 0.0
C1779 C 0.88864 0.2689 0.87571 0.0
C1780 C 0.91227 0.27667 0.87213 0.0
C1781 C 0.93029 0.27231 0.88698 0.0
C1782 C 0.85888 0.24739 0.89863 0.0
C1783 C 0.9186 0.29004 0.8528 0.0
C1784 C 0.84068 0.26157 0.82393 0.0
C1785 C 0.83246 0.28082 0.82894 0.0
C1786 C 0.85841 0.25732 0.83908 0.0
C1787 C 0.8691 0.27306 0.85971 0.0
C1788 C 0.86101 0.29265 0.86486 0.0
C1789 C 0.84259 0.29608 0.84968 0.0
C1790 C 0.86554 0.23574 0.83305 0.0
C1791 C 0.87218 0.31028 0.88624 0.0
H1792 H 0.898 0.24385 0.92349 0.0
H1793 H 0.94826 0.27873 0.88428 0.0
H1794 H 0.85149 0.26191 0.90251 0.0
H1795 H 0.84776 0.23598 0.88293 0.0
H1796 H 0.85774 0.23746 0.91323 0.0
H1797 H 0.93772 0.29537 0.8525 0.0
H1798 H 0.90951 0.27938 0.83596 0.0
H1799 H 0.91266 0.30575 0.85461 0.0
H1800 H 0.833 0.24953 0.80808 0.0
H1801 H 0.8366 0.31108 0.85371 0.0
H1802 H 0.86165 0.22448 0.84637 0.0
H1803 H 0.88464 0.24026 0.83292 0.0
H1804 H 0.85629 0.22569 0.81596 0.0
H1805 H 0.87002 0.30197 0.90183 0.0
H1806 H 0.86452 0.32491 0.88755 0.0
H1807 H 0.89124 0.31725 0.88622 0.0
C1808 C 0.541 0.21507 0.55181 0.0
C1809 C 0.5629 0.23 0.56273 0.0
C1810 C 0.53709 0.19077 0.54641 0.0
C1811 C 0.5551 0.18074 0.55307 0.0
C1812 C 0.57707 0.19583 0.56454 0.0
C1813 C 0.58081 0.22006 0.56872 0.0
C1814 C 0.51366 0.17582 0.53338 0.0
C1815 C 0.59661 0.18632 0.57299 0.0
C1816 C 0.53734 0.11603 0.55964 0.0
C1817 C 0.54417 0.10539 0.54031 0.0
C1818 C 0.54098 0.14028 0.56407 0.0
C1819 C 0.55099 0.15461 0.54843 0.0
C1820 C 0.55758 0.1439 0.52867 0.0
C1821 C 0.55448 0.1197 0.52509 0.0
C1822 C 0.5344 0.15061 0.5858 0.0
C1823 C 0.5676 0.158 0.51102 0.0
H1824 H 0.52702 0.22245 0.54707 0.0
H1825 H 0.5977 0.23131 0.57747 0.0
H1826 H 0.51612 0.16508 0.51789 0.0
H1827 H 0.50471 0.1638 0.54435 0.0
H1828 H 0.50211 0.18622 0.52783 0.0
H1829 H 0.6123 0.20012 0.58248 0.0
H1830 H 0.59051 0.17365 0.58456 0.0
H1831 H 0.60177 0.177 0.55822 0.0
H1832 H 0.52942 0.10536 0.57163 0.0
H1833 H 0.55959 0.11185 0.50993 0.0
H1834 H 0.52069 0.15902 0.58138 0.0
H1835 H 0.54982 0.16421 0.59601 0.0
H1836 H 0.52779 0.13744 0.59676 0.0
H1837 H 0.55555 0.16766 0.50485 0.0
H1838 H 0.57059 0.14709 0.49594 0.0
H1839 H 0.58447 0.17096 0.51897 0.0
C1840 C 0.55166 0.79623 0.37661 0.0
C1841 C 0.54804 0.78297 0.39442 0.0
C1842 C 0.57075 0.79744 0.36472 0.0
C1843 C 0.5869 0.78524 0.37078 0.0
C1844 C 0.58344 0.77192 0.38882 0.0
C1845 C 0.56407 0.77086 0.40033 0.0
C1846 C 0.5736 0.81179 0.34558 0.0
C1847 C 0.60029 0.75883 0.39606 0.0
C1848 C 0.62402 0.77229 0.32571 0.0
C1849 C 0.64506 0.79027 0.3327 0.0
C1850 C 0.60517 0.77024 0.33809 0.0
C1851 C 0.6073 0.78646 0.35814 0.0
C1852 C 0.62869 0.80432 0.36561 0.0
C1853 C 0.6472 0.80604 0.35282 0.0
C1854 C 0.58273 0.75099 0.32939 0.0
C1855 C 0.63194 0.82184 0.38699 0.0
H1856 H 0.53948 0.80566 0.37183 0.0
H1857 H 0.5616 0.76064 0.4141 0.0
H1858 H 0.59067 0.82552 0.34966 0.0
H1859 H 0.57363 0.80077 0.32924 0.0
H1860 H 0.55947 0.82009 0.34278 0.0
H1861 H 0.59535 0.74944 0.41053 0.0
H1862 H 0.60095 0.74614 0.38125 0.0
H1863 H 0.61819 0.77097 0.40144 0.0
H1864 H 0.62201 0.76014 0.31011 0.0
H1865 H 0.66345 0.81979 0.35864 0.0
H1866 H 0.56829 0.75844 0.32475 0.0
H1867 H 0.57792 0.74057 0.34316 0.0
H1868 H 0.58408 0.7393 0.31404 0.0
H1869 H 0.61938 0.83198 0.3846 0.0
H1870 H 0.64994 0.83402 0.39113 0.0
H1871 H 0.6282 0.81289 0.40197 0.0
C1872 C 0.04521 0.26361 0.43277 0.0
C1873 C 0.04886 0.2649 0.40989 0.0
C1874 C 0.04462 0.24366 0.44252 0.0
C1875 C 0.04804 0.22431 0.42926 0.0
C1876 C 0.05298 0.2258 0.40654 0.0
C1877 C 0.05328 0.24609 0.39707 0.0
C1878 C 0.03923 0.24296 0.46676 0.0
C1879 C 0.05698 0.20565 0.39193 0.0
C1880 C 0.05986 0.18017 0.46585 0.0
C1881 C 0.03725 0.1651 0.46465 0.0
C1882 C 0.06395 0.19872 0.45328 0.0
C1883 C 0.04501 0.20232 0.43909 0.0
C1884 C 0.0224 0.18642 0.43684 0.0
C1885 C 0.0188 0.16808 0.44964 0.0
C1886 C 0.08832 0.2152 0.4562 0.0
C1887 C 0.00169 0.18945 0.42186 0.0
H1888 H 0.04197 0.27806 0.44299 0.0
H1889 H 0.05604 0.24684 0.37939 0.0
H1890 H 0.02231 0.22963 0.46638 0.0
H1891 H 0.05288 0.23806 0.47756 0.0
H1892 H 0.0381 0.25984 0.47516 0.0
H1893 H 0.06321 0.21037 0.37575 0.0
H1894 H 0.06997 0.19907 0.40173 0.0
H1895 H 0.04041 0.19129 0.38736 0.0
H1896 H 0.07423 0.17808 0.47743 0.0
H1897 H 0.00137 0.15626 0.44821 0.0
H1898 H 0.08895 0.23197 0.46635 0.0
H1899 H 0.09309 0.21871 0.43918 0.0
H1900 H 0.10159 0.2084 0.46527 0.0
H1901 H 0.99753 0.20505 0.42959 0.0
H1902 H 0.98588 0.1743 0.41995 0.0
H1903 H 0.00586 0.19216 0.40447 0.0
C1904 C 0.58895 0.24435 0.24908 0.0
C1905 C 0.58046 0.253 0.22989 0.0
C1906 C 0.61312 0.2475 0.2557 0.0
C1907 C 0.62956 0.25928 0.24268 0.0
C1908 C 0.62116 0.26834 0.22348 0.0
C1909 C 0.59691 0.26527 0.21747 0.0
C1910 C 0.62105 0.23796 0.27658 0.0
C1911 C 0.63777 0.28077 0.20883 0.0
C1912 C 0.69479 0.28488 0.26856 0.0
C1913 C 0.70446 0.2676 0.26024 0.0
C1914 C 0.67056 0.28216 0.26353 0.0
C1915 C 0.65543 0.26199 0.24901 0.0
C1916 C 0.66516 0.24453 0.24043 0.0
C1917 C 0.68937 0.24734 0.24648 0.0
C1918 C 0.66117 0.30093 0.27383 0.0
C1919 C 0.65007 0.22305 0.22437 0.0
H1920 H 0.5766 0.23481 0.25888 0.0
H1921 H 0.59076 0.27187 0.20248 0.0
H1922 H 0.62931 0.22442 0.27133 0.0
H1923 H 0.63446 0.25187 0.28888 0.0
H1924 H 0.60637 0.23031 0.28563 0.0
H1925 H 0.62864 0.28684 0.1945 0.0
H1926 H 0.65115 0.29593 0.21958 0.0
H1927 H 0.64716 0.26906 0.20142 0.0
H1928 H 0.70623 0.30056 0.27932 0.0
H1929 H 0.69666 0.23399 0.23976 0.0
H1930 H 0.64694 0.29346 0.28345 0.0
H1931 H 0.65354 0.30862 0.25992 0.0
H1932 H 0.67492 0.31496 0.28572 0.0
H1933 H 0.6359 0.21345 0.23295 0.0
H1934 H 0.66023 0.21129 0.21878 0.0
H1935 H 0.64161 0.22797 0.20884 0.0
C1936 C 0.5727 0.8993 0.92685 0.0
C1937 C 0.56229 0.88901 0.90414 0.0
C1938 C 0.57021 0.92052 0.93672 0.0
C1939 C 0.55631 0.93151 0.92385 0.0
C1940 C 0.54717 0.92204 0.90035 0.0
C1941 C 0.55044 0.90102 0.89072 0.0
C1942 C 0.58088 0.93014 0.96159 0.0
C1943 C 0.53207 0.93291 0.88597 0.0
C1944 C 0.52363 0.96354 0.96073 0.0
C1945 C 0.53669 0.9867 0.96217 0.0
C1946 C 0.52925 0.94562 0.94749 0.0
C1947 C 0.54889 0.95088 0.93589 0.0
C1948 C 0.56197 0.9744 0.93708 0.0
C1949 C 0.55559 0.99204 0.95008 0.0
C1950 C 0.51451 0.92095 0.94652 0.0
C1951 C 0.58332 0.98089 0.92556 0.0
H1952 H 0.58155 0.88994 0.93743 0.0
H1953 H 0.54181 0.8929 0.87337 0.0
H1954 H 0.58934 0.94908 0.96375 0.0
H1955 H 0.56693 0.92722 0.97249 0.0
H1956 H 0.59407 0.92179 0.96802 0.0
H1957 H 0.52915 0.92562 0.86735 0.0
H1958 H 0.51482 0.92977 0.89183 0.0
H1959 H 0.54008 0.95192 0.88815 0.0
H1960 H 0.50919 0.9594 0.97032 0.0
H1961 H 0.56598 0.00995 0.95156 0.0
H1962 H 0.52506 0.91125 0.95538 0.0
H1963 H 0.50881 0.9122 0.92833 0.0
H1964 H 0.49877 0.91988 0.95483 0.0
H1965 H 0.59721 0.97462 0.93423 0.0
H1966 H 0.59031 -0.0001 0.92629 0.0
H1967 H 0.57921 0.97244 0.90726 0.0
C1968 C 0.94994 0.76093 0.74148 0.0
C1969 C 0.9493 0.7464 0.72092 0.0
C1970 C 0.92928 0.76461 0.7483 0.0
C1971 C 0.90704 0.75325 0.73452 0.0
C1972 C 0.90638 0.73846 0.71376 0.0
C1973 C 0.92735 0.7353 0.70724 0.0
C1974 C 0.93127 0.78063 0.77045 0.0
C1975 C 0.88341 0.72581 0.69839 0.0
C1976 C 0.85021 0.74647 0.76125 0.0
C1977 C 0.84269 0.76511 0.75495 0.0
C1978 C 0.87106 0.74257 0.75506 0.0
C1979 C 0.88467 0.75718 0.74154 0.0
C1980 C 0.87679 0.77568 0.73473 0.0
C1981 C 0.85633 0.77957 0.74173 0.0
C1982 C 0.87867 0.72289 0.76324 0.0
C1983 C 0.88996 0.79142 0.71984 0.0
H1984 H 0.9667 0.76941 0.75234 0.0
H1985 H 0.92653 0.72377 0.69152 0.0
H1986 H 0.92413 0.79501 0.76683 0.0
H1987 H 0.9207 0.77113 0.78227 0.0
H1988 H 0.94964 0.78811 0.77936 0.0
H1989 H 0.88568 0.7151 0.68278 0.0
H1990 H 0.87173 0.71439 0.70807 0.0
H1991 H 0.87448 0.7384 0.6929 0.0
H1992 H 0.84005 0.73516 0.7715 0.0
H1993 H 0.85077 0.7939 0.73645 0.0
H1994 H 0.89646 0.72966 0.77361 0.0
H1995 H 0.87963 0.7106 0.74823 0.0
H1996 H 0.86656 0.71328 0.77388 0.0
H1997 H 0.90796 0.80056 0.72897 0.0
H1998 H 0.88127 0.80451 0.71526 0.0
H1999 H 0.89153 0.78105 0.70369 0.0
C2000 C 0.09345 0.02175 0.85258 0.0
C2001 C 0.08389 0.03736 0.8422 0.0
C2002 C 0.08968 0.01719 0.87484 0.0
C2003 C 0.0761 0.02856 0.88704 0.0
C2004 C 0.06605 0.04395 0.87645 0.0
C2005 C 0.07 0.04808 0.85425 0.0
C2006 C 0.10052 0.00052 0.88545 0.0
C2007 C 0.0514 0.05643 0.88874 0.0
C2008 C 0.04666 0.00726 0.9369 0.0
C2009 C 0.06088 0.02301 0.95594 0.0
C2010 C 0.05218 0.00792 0.91453 0.0
C2011 C 0.07238 0.02479 0.91099 0.0
C2012 C 0.08755 0.03982 0.93028 0.0
C2013 C 0.08166 0.03871 0.9525 0.0
C2014 C 0.03561 0.99143 0.89454 0.0
C2015 C 0.1093 0.05803 0.92731 0.0
H2016 H 0.10422 0.01337 0.84349 0.0
H2017 H 0.06246 0.06015 0.84649 0.0
H2018 H 0.11321 0.00977 0.90117 0.0
H2019 H 0.08686 0.98673 0.89084 0.0
H2020 H 0.10974 0.99232 0.87338 0.0
H2021 H 0.0446 0.06764 0.87802 0.0
H2022 H 0.03635 0.04373 0.89356 0.0
H2023 H 0.06198 0.06736 0.90493 0.0
H2024 H 0.03067 -0.00513 0.93929 0.0
H2025 H 0.09287 0.0509 0.96703 0.0
H2026 H 0.04539 0.98337 0.88304 0.0
H2027 H 0.02626 0.00111 0.88416 0.0
H2028 H 0.02241 0.9775 0.90036 0.0
H2029 H 0.11966 0.05031 0.91622 0.0
H2030 H 0.12059 0.06658 0.94407 0.0
H2031 H 0.10425 0.07146 0.91857 0.0
C2032 C 0.75497 0.35156 0.55512 0.0
C2033 C 0.7676 0.34462 0.53869 0.0
C2034 C 0.75106 0.33969 0.57381 0.0
C2035 C 0.76021 0.32089 0.57581 0.0
C2036 C 0.76861 0.31123 0.55692 0.0
C2037 C 0.77229 0.32335 0.53845 0.0
C2038 C 0.74062 0.34952 0.59307 0.0
C2039 C 0.77747 0.29047 0.55792 0.0
C2040 C 0.79984 0.32552 0.63154 0.0
C2041 C 0.78731 0.30681 0.64077 0.0
C2042 C 0.79075 0.33058 0.61066 0.0
C2043 C 0.76832 0.31674 0.59903 0.0
C2044 C 0.7551 0.2984 0.60888 0.0
C2045 C 0.76497 0.29341 0.6296 0.0
C2046 C 0.80556 0.35035 0.60078 0.0
C2047 C 0.73094 0.28364 0.59747 0.0
H2048 H 0.75059 0.36764 0.55494 0.0
H2049 H 0.78119 0.31746 0.52516 0.0
H2050 H 0.73072 0.33561 0.60168 0.0
H2051 H 0.7549 0.36156 0.60617 0.0
H2052 H 0.72883 0.35933 0.5866 0.0
H2053 H 0.77888 0.28244 0.54048 0.0
H2054 H 0.7951 0.29596 0.56864 0.0
H2055 H 0.7658 0.27726 0.56596 0.0
H2056 H 0.81709 0.33582 0.64041 0.0
H2057 H 0.75523 0.27911 0.63715 0.0
H2058 H 0.796 0.36319 0.59802 0.0
H2059 H 0.80935 0.34376 0.58381 0.0
H2060 H 0.82247 0.3594 0.61223 0.0
H2061 H 0.72158 0.29343 0.58725 0.0
H2062 H 0.72026 0.27662 0.61045 0.0
H2063 H 0.73243 0.26874 0.58564 0.0
C2064 C 0.43535 0.02727 0.36341 0.0
C2065 C 0.4186 0.00555 0.35684 0.0
C2066 C 0.45067 0.0325 0.38438 0.0
C2067 C 0.44878 0.01574 0.39919 0.0
C2068 C 0.43114 -0.00579 0.39316 0.0
C2069 C 0.41637 0.98928 0.37189 0.0
C2070 C 0.46942 0.05557 0.39027 0.0
C2071 C 0.42829 0.97618 0.40888 0.0
C2072 C 0.50216 0.01798 0.44133 0.0
C2073 C 0.49751 0.02859 0.46181 0.0
C2074 C 0.48647 0.01387 0.42069 0.0
C2075 C 0.46572 0.02045 0.4207 0.0
C2076 C 0.46103 0.0313 0.44127 0.0
C2077 C 0.47702 0.03528 0.46156 0.0
C2078 C 0.49195 0.00225 0.39894 0.0
C2079 C 0.43896 0.03836 0.44195 0.0
H2080 H 0.43718 0.03983 0.35172 0.0
H2081 H 0.40326 0.97255 0.36688 0.0
H2082 H 0.46846 0.06459 0.4074 0.0
H2083 H 0.48692 0.05281 0.39136 0.0
H2084 H 0.46792 0.06703 0.37728 0.0
H2085 H 0.41264 0.96103 0.40235 0.0
H2086 H 0.44399 0.97002 0.41059 0.0
H2087 H 0.42675 0.98382 0.4264 0.0
H2088 H 0.51786 0.01261 0.44146 0.0
H2089 H 0.47322 0.04336 0.47733 0.0
H2090 H 0.49208 0.0133 0.38533 0.0
H2091 H 0.47814 0.98561 0.39237 0.0
H2092 H 0.50911 -0.00125 0.40175 0.0
H2093 H 0.43798 0.05067 0.42977 0.0
H2094 H 0.43799 0.04662 0.45945 0.0
H2095 H 0.4234 0.02298 0.43634 0.0
C2096 C 0.7961 0.74936 0.09649 0.0
C2097 C 0.77487 0.74339 0.0813 0.0
C2098 C 0.79711 0.75628 0.12036 0.0
C2099 C 0.77625 0.7562 0.12929 0.0
C2100 C 0.75481 0.74997 0.11394 0.0
C2101 C 0.75448 0.74409 0.09021 0.0
C2102 C 0.82044 0.76353 0.13603 0.0
C2103 C 0.73201 0.74869 0.12263 0.0
C2104 C 0.7735 0.74775 0.19178 0.0
C2105 C 0.77423 0.76981 0.2025 0.0
C2106 C 0.77417 0.74315 0.16807 0.0
C2107 C 0.77638 0.76123 0.15474 0.0
C2108 C 0.77737 0.78366 0.16555 0.0
C2109 C 0.77593 0.7876 0.18924 0.0
C2110 C 0.77223 0.71881 0.15724 0.0
C2111 C 0.78031 0.80356 0.15215 0.0
H2112 H 0.8119 0.74891 0.08969 0.0
H2113 H 0.73793 0.73916 0.07861 0.0
H2114 H 0.82307 0.78052 0.14685 0.0
H2115 H 0.82083 0.75081 0.14787 0.0
H2116 H 0.83523 0.76486 0.12624 0.0
H2117 H 0.71683 0.74356 0.10842 0.0
H2118 H 0.72894 0.73593 0.13466 0.0
H2119 H 0.73281 0.76568 0.13238 0.0
H2120 H 0.77225 0.73395 0.20199 0.0
H2121 H 0.77699 0.80479 0.19756 0.0
H2122 H 0.78806 0.71864 0.14954 0.0
H2123 H 0.75702 0.71241 0.1431 0.0
H2124 H 0.77014 0.70661 0.1699 0.0
H2125 H 0.79601 0.80547 0.14365 0.0
H2126 H 0.78214 0.82019 0.1633 0.0
H2127 H 0.76502 0.80003 0.13834 0.0
C2128 C 0.06325 0.01848 0.70034 0.0
C2129 C 0.07064 0.0405 0.71382 0.0
C2130 C 0.05601 0.01573 0.67633 0.0
C2131 C 0.05731 0.03555 0.66555 0.0
C2132 C 0.06493 0.05779 0.67921 0.0
C2133 C 0.07103 0.05992 0.70316 0.0
C2134 C 0.04714 0.99169 0.66247 0.0
C2135 C 0.06754 0.07946 0.66847 0.0
C2136 C 0.06549 0.03264 0.60267 0.0
C2137 C 0.04374 0.03329 0.59181 0.0
C2138 C 0.07001 0.03308 0.62658 0.0
C2139 C 0.05209 0.03341 0.63992 0.0
C2140 C 0.02984 0.03339 0.62892 0.0
C2141 C 0.02605 0.03373 0.60503 0.0
C2142 C 0.09422 0.03391 0.63765 0.0
C2143 C 0.01008 0.03307 0.6424 0.0
H2144 H 0.06291 0.00347 0.70859 0.0
H2145 H 0.07709 0.07702 0.71354 0.0
H2146 H 0.03008 0.98938 0.65156 0.0
H2147 H 0.05954 0.98917 0.65073 0.0
H2148 H 0.04497 0.97808 0.67363 0.0
H2149 H 0.07385 0.09545 0.68153 0.0
H2150 H 0.08012 0.08034 0.65614 0.0
H2151 H 0.05057 0.07908 0.65859 0.0
H2152 H 0.07923 0.03237 0.59251 0.0
H2153 H 0.0091 0.03388 0.59662 0.0
H2154 H 0.0933 0.01909 0.64705 0.0
H2155 H 0.10188 0.04997 0.65046 0.0
H2156 H 0.10617 0.03348 0.62483 0.0
H2157 H 0.00769 0.01878 0.65272 0.0
H2158 H 0.9933 0.03089 0.63101 0.0
H2159 H 0.01437 0.04947 0.65466 0.0
C2160 C 0.7824 0.38598 0.42198 0.0
C2161 C 0.80081 0.38359 0.43743 0.0
C2162 C 0.77796 0.37513 0.39889 0.0
C2163 C 0.79168 0.361 0.39168 0.0
C2164 C 0.81154 0.36035 0.40666 0.0
C2165 C 0.81612 0.37208 0.4292 0.0
C2166 C 0.75787 0.37769 0.38266 0.0
C2167 C 0.82681 0.34562 0.39962 0.0
C2168 C 0.76477 0.30394 0.35248 0.0
C2169 C 0.77696 0.3075 0.334 0.0
C2170 C 0.76819 0.3219 0.37085 0.0
C2171 C 0.78362 0.34404 0.37017 0.0
C2172 C 0.79474 0.348 0.35073 0.0
C2173 C 0.79211 0.32932 0.33339 0.0
C2174 C 0.75677 0.31665 0.39173 0.0
C2175 C 0.81062 0.37142 0.34872 0.0
H2176 H 0.7709 0.39542 0.42809 0.0
H2177 H 0.8308 0.37068 0.44086 0.0
H2178 H 0.76247 0.37889 0.36515 0.0
H2179 H 0.74245 0.36228 0.38119 0.0
H2180 H 0.75281 0.39326 0.38892 0.0
H2181 H 0.84128 0.3467 0.41366 0.0
H2182 H 0.81612 0.32723 0.39463 0.0
H2183 H 0.83459 0.35116 0.38446 0.0
H2184 H 0.75332 0.28685 0.35301 0.0
H2185 H 0.80304 0.33146 0.32016 0.0
H2186 H 0.74673 0.3289 0.3959 0.0
H2187 H 0.77043 0.31884 0.40688 0.0
H2188 H 0.74475 0.29874 0.38914 0.0
H2189 H 0.80662 0.38572 0.3593 0.0
H2190 H 0.80905 0.37422 0.33046 0.0
H2191 H 0.82907 0.37221 0.35444 0.0
C2192 C 0.44135 0.98396 0.23675 0.0
C2193 C 0.42362 -0.00543 0.23813 0.0
C2194 C 0.45195 0.98329 0.21706 0.0
C2195 C 0.44422 -0.00692 0.19828 0.0
C2196 C 0.42643 0.00397 0.19963 0.0
C2197 C 0.41648 0.00482 0.21975 0.0
C2198 C 0.47126 0.97199 0.2163 0.0
C2199 C 0.4176 0.01426 0.17969 0.0
C2200 C 0.48433 0.01002 0.15514 0.0
C2201 C 0.47549 0.991 0.13743 0.0
C2202 C 0.47441 0.01079 0.17522 0.0
C2203 C 0.45502 0.99223 0.1773 0.0
C2204 C 0.446 0.97294 0.15942 0.0
C2205 C 0.45657 0.97245 0.13965 0.0
C2206 C 0.48469 0.0314 0.19419 0.0
C2207 C 0.4251 0.95303 0.16107 0.0
H2208 H 0.44689 0.97611 0.25107 0.0
H2209 H 0.40255 0.01278 0.22077 0.0
H2210 H 0.46599 0.95705 0.20205 0.0
H2211 H 0.48727 0.98443 0.21276 0.0
H2212 H 0.47563 0.96579 0.23268 0.0
H2213 H 0.40346 0.02187 0.18348 0.0
H2214 H 0.43215 0.02794 0.17537 0.0
H2215 H 0.41082 0.00072 0.16416 0.0
H2216 H 0.49916 0.02421 0.1533 0.0
H2217 H 0.44982 0.95786 0.12574 0.0
H2218 H 0.49006 0.02558 0.21048 0.0
H2219 H 0.47133 0.04026 0.19739 0.0
H2220 H 0.50013 0.04414 0.18995 0.0
H2221 H 0.42893 0.94495 0.17632 0.0
H2222 H 0.42009 0.93953 0.14546 0.0
H2223 H 0.40992 0.95949 0.16349 0.0
C2224 C 0.77243 0.75041 0.94276 0.0
C2225 C 0.78337 0.73584 0.95342 0.0
C2226 C 0.77622 0.75582 0.92085 0.0
C2227 C 0.79156 0.74668 0.90904 0.0
C2228 C 0.8035 0.73277 0.92003 0.0
C2229 C 0.79922 0.72743 0.94203 0.0
C2230 C 0.76299 0.77065 0.90996 0.0
C2231 C 0.82026 0.72293 0.90824 0.0
C2232 C 0.77687 0.74031 0.84362 0.0
C2233 C 0.79192 0.76077 0.83884 0.0
C2234 C 0.77741 0.73502 0.86614 0.0
C2235 C 0.79348 0.75044 0.88461 0.0
C2236 C 0.80951 0.77058 0.87978 0.0
C2237 C 0.80851 0.77553 0.85702 0.0
C2238 C 0.75992 0.7134 0.87032 0.0
C2239 C 0.82708 0.78743 0.89883 0.0
H2240 H 0.76025 0.75721 0.95129 0.0
H2241 H 0.80783 0.71623 0.95002 0.0
H2242 H 0.7753 0.78556 0.90459 0.0
H2243 H 0.75093 0.76037 0.89423 0.0
H2244 H 0.75258 0.77736 0.92182 0.0
H2245 H 0.82997 0.71452 0.91988 0.0
H2246 H 0.81045 0.70991 0.89301 0.0
H2247 H 0.83302 0.73678 0.9019 0.0
H2248 H 0.76408 0.7286 0.8298 0.0
H2249 H 0.82031 0.79133 0.85364 0.0
H2250 H 0.74736 0.71826 0.8807 0.0
H2251 H 0.7689 0.70318 0.88032 0.0
H2252 H 0.7499 0.70223 0.85399 0.0
H2253 H 0.81787 0.7966 0.91 0.0
H2254 H 0.84025 0.80053 0.892 0.0
H2255 H 0.83628 0.77812 0.90983 0.0
C2256 C 0.81393 0.07925 0.04402 0.0
C2257 C 0.82227 0.10292 0.04307 0.0
C2258 C 0.8271 0.06442 0.03819 0.0
C2259 C 0.84922 0.07371 0.0318 0.0
C2260 C 0.85796 0.09771 0.03138 0.0
C2261 C 0.8442 0.11204 0.03678 0.0
C2262 C 0.81724 0.03883 0.03851 0.0
C2263 C 0.8818 0.10824 0.02521 0.0
C2264 C 0.89414 0.04146 0.03636 0.0
C2265 C 0.89362 0.0332 0.0131 0.0
C2266 C 0.87929 0.05421 0.0428 0.0
C2267 C 0.86334 0.05838 0.02552 0.0
C2268 C 0.86182 0.04901 0.00212 0.0
C2269 C 0.87711 0.03651 -0.00386 0.0
C2270 C 0.8815 0.06415 0.0679 0.0
C2271 C 0.84481 0.05308 0.98335 0.0
H2272 H 0.79687 0.07223 0.04876 0.0
H2273 H 0.85068 0.13041 0.03628 0.0
H2274 H 0.81554 0.029 0.02103 0.0
H2275 H 0.82934 0.03293 0.05029 0.0
H2276 H 0.79983 0.03445 0.04411 0.0
H2277 H 0.88631 0.12736 0.02658 0.0
H2278 H 0.89541 0.10399 0.03674 0.0
H2279 H 0.88238 0.10084 0.0073 0.0
H2280 H 0.90676 0.03858 0.04948 0.0
H2281 H 0.87687 0.03027 0.97815 0.0
H2282 H 0.86423 0.05914 0.07368 0.0
H2283 H 0.88756 0.08333 0.07014 0.0
H2284 H 0.89403 0.0583 0.07926 0.0
H2285 H 0.82687 0.04819 0.98768 0.0
H2286 H 0.8446 0.04312 0.96628 0.0
H2287 H 0.84961 0.07175 0.98195 0.0
C2288 C 0.35798 0.43644 0.0382 0.0
C2289 C 0.36055 0.41472 0.04117 0.0
C2290 C 0.37748 0.45504 0.03663 0.0
C2291 C 0.39994 0.45174 0.03791 0.0
C2292 C 0.40266 0.43006 0.04156 0.0
C2293 C 0.38303 0.41194 0.04323 0.0
C2294 C 0.37397 0.47798 0.03289 0.0
C2295 C 0.42624 0.42568 0.04296 0.0
C2296 C 0.44882 0.48448 0.00916 0.0
C2297 C 0.46426 0.49906 0.02806 0.0
C2298 C 0.42688 0.47038 0.01186 0.0
C2299 C 0.42062 0.47025 0.03417 0.0
C2300 C 0.43586 0.48563 0.05321 0.0
C2301 C 0.45742 0.50013 0.04985 0.0
C2302 C 0.41099 0.45464 0.99102 0.0
C2303 C 0.43015 0.48563 0.07734 0.0
H2304 H 0.34072 0.43878 0.03662 0.0
H2305 H 0.38534 0.3953 0.04558 0.0
H2306 H 0.38622 0.49216 0.04586 0.0
H2307 H 0.37794 0.4816 0.01565 0.0
H2308 H 0.3558 0.4783 0.03397 0.0
H2309 H 0.42559 0.40824 0.04712 0.0
H2310 H 0.43262 0.4272 0.02623 0.0
H2311 H 0.43924 0.43885 0.05629 0.0
H2312 H 0.45411 0.48383 -0.00772 0.0
H2313 H 0.46951 0.5113 0.0645 0.0
H2314 H 0.39282 0.45554 0.99065 0.0
H2315 H 0.41063 0.43647 -0.00804 0.0
H2316 H 0.41687 0.45913 0.97464 0.0
H2317 H 0.412 0.48631 0.07763 0.0
H2318 H 0.44235 0.50041 0.08975 0.0
H2319 H 0.4313 0.46932 0.08326 0.0
C2320 C 0.40772 0.58713 0.76039 0.0
C2321 C 0.4009 0.56845 0.77238 0.0
C2322 C 0.39564 0.60386 0.75992 0.0
C2323 C 0.37619 0.60186 0.77162 0.0
C2324 C 0.36931 0.58312 0.78383 0.0
C2325 C 0.38174 0.56672 0.78409 0.0
C2326 C 0.40366 0.62365 0.74684 0.0
C2327 C 0.34869 0.58029 0.79653 0.0
C2328 C 0.35487 0.65391 0.78871 0.0
C2329 C 0.3352 0.65004 0.77173 0.0
C2330 C 0.36876 0.63879 0.78851 0.0
C2331 C 0.3628 0.61917 0.77099 0.0
C2332 C 0.34331 0.61549 0.75347 0.0
C2333 C 0.32982 0.63099 0.75401 0.0
C2334 C 0.38954 0.64354 0.80735 0.0
C2335 C 0.33626 0.59477 0.73453 0.0
H2336 H 0.42252 0.58871 0.75133 0.0
H2337 H 0.37629 0.5524 0.79342 0.0
H2338 H 0.38936 0.62334 0.73299 0.0
H2339 H 0.4079 0.6404 0.75858 0.0
H2340 H 0.41929 0.62296 0.73893 0.0
H2341 H 0.34557 0.56479 0.80521 0.0
H2342 H 0.35161 0.5958 0.80972 0.0
H2343 H 0.33265 0.57879 0.78432 0.0
H2344 H 0.35935 0.66877 0.80228 0.0
H2345 H 0.31454 0.62774 0.74094 0.0
H2346 H 0.40552 0.64383 0.79973 0.0
H2347 H 0.38665 0.62946 0.81792 0.0
H2348 H 0.39269 0.66026 0.81889 0.0
H2349 H 0.35127 0.59416 0.7256 0.0
H2350 H 0.32139 0.59497 0.72157 0.0
H2351 H 0.33114 0.57865 0.74209 0.0
C2352 C 0.19753 0.62588 0.56955 0.0
C2353 C 0.21732 0.62004 0.56396 0.0
C2354 C 0.17514 0.61053 0.5622 0.0
C2355 C 0.17249 0.58854 0.54941 0.0
C2356 C 0.19243 0.5817 0.5454 0.0
C2357 C 0.21473 0.59767 0.55258 0.0
C2358 C 0.15425 0.61848 0.56685 0.0
C2359 C 0.19022 0.5581 0.53246 0.0
C2360 C 0.11044 0.552 0.54556 0.0
C2361 C 0.09997 0.55738 0.5253 0.0
C2362 C 0.13469 0.55998 0.55251 0.0
C2363 C 0.14865 0.57386 0.539 0.0
C2364 C 0.13843 0.57744 0.51744 0.0
C2365 C 0.11412 0.56912 0.51082 0.0
C2366 C 0.14506 0.55523 0.57527 0.0
C2367 C 0.15284 0.59186 0.50234 0.0
H2368 H 0.19937 0.64303 0.57853 0.0
H2369 H 0.22998 0.59298 0.54835 0.0
H2370 H 0.14387 0.6192 0.55028 0.0
H2371 H 0.14268 0.60601 0.57571 0.0
H2372 H 0.1594 0.63586 0.57766 0.0
H2373 H 0.20708 0.55392 0.53465 0.0
H2374 H 0.17676 0.54448 0.5383 0.0
H2375 H 0.18461 0.55758 0.5138 0.0
H2376 H 0.09966 0.54231 0.55654 0.0
H2377 H 0.10616 0.57286 0.49487 0.0
H2378 H 0.1484 0.57068 0.58864 0.0
H2379 H 0.16202 0.55172 0.57412 0.0
H2380 H 0.13309 0.5403 0.58102 0.0
H2381 H 0.1579 0.61039 0.51018 0.0
H2382 H 0.14303 0.58983 0.48469 0.0
H2383 H 0.16915 0.58711 0.50099 0.0
C2384 C 0.69957 0.97646 0.76824 0.0
C2385 C 0.70877 -0.00042 0.77897 0.0
C2386 C 0.71205 0.96052 0.77153 0.0
C2387 C 0.73443 0.96812 0.7854 0.0
C2388 C 0.7435 0.9913 0.79675 0.0
C2389 C 0.73039 0.00671 0.79363 0.0
C2390 C 0.70164 0.93576 0.75958 0.0
C2391 C 0.76751 0.0001 0.81132 0.0
C2392 C 0.76223 0.92442 0.80705 0.0
C2393 C 0.77686 0.92237 0.79075 0.0
C2394 C 0.74812 0.93912 0.80542 0.0
C2395 C 0.7489 0.95218 0.78717 0.0
C2396 C 0.76378 0.9503 0.77075 0.0
C2397 C 0.77753 0.93529 0.77268 0.0
C2398 C 0.73219 0.94047 0.82301 0.0
C2399 C 0.76517 0.96414 0.75116 0.0
H2400 H 0.68279 0.97094 0.75697 0.0
H2401 H 0.73765 0.02465 0.80175 0.0
H2402 H 0.71208 0.93201 0.74622 0.0
H2403 H 0.70225 0.92369 0.77209 0.0
H2404 H 0.68323 0.93218 0.75117 0.0
H2405 H 0.77161 0.01839 0.81969 0.0
H2406 H 0.76891 0.98928 0.8249 0.0
H2407 H 0.78094 -0.00121 0.80039 0.0
H2408 H 0.76139 0.91406 0.82076 0.0
H2409 H 0.78889 0.93368 0.76011 0.0
H2410 H 0.71378 0.93568 0.81422 0.0
H2411 H 0.73664 0.95848 0.83221 0.0
H2412 H 0.73341 0.92888 0.83593 0.0
H2413 H 0.74771 0.95984 0.74034 0.0
H2414 H 0.77781 0.96081 0.73999 0.0
H2415 H 0.7705 0.9829 0.75811 0.0
C2416 C 0.73924 0.92358 0.49881 0.0
C2417 C 0.73989 0.90752 0.51384 0.0
C2418 C 0.72258 0.93581 0.49874 0.0
C2419 C 0.70606 0.93192 0.51403 0.0
C2420 C 0.70622 0.91531 0.52882 0.0
C2421 C 0.72312 0.90334 0.52857 0.0
C2422 C 0.72303 0.9533 0.48264 0.0
C2423 C 0.68886 0.91053 0.5453 0.0
C2424 C 0.68057 0.98094 0.5313 0.0
C2425 C 0.6586 0.9738 0.5171 0.0
C2426 C 0.69598 0.96737 0.53062 0.0
C2427 C 0.68942 0.94608 0.51531 0.0
C2428 C 0.66723 0.93865 0.50103 0.0
C2429 C 0.65211 0.95257 0.50209 0.0
C2430 C 0.71948 0.97601 0.5461 0.0
C2431 C 0.6595 0.91605 0.48452 0.0
H2432 H 0.75202 0.92692 0.48729 0.0
H2433 H 0.72336 0.89093 0.54019 0.0
H2434 H 0.70561 0.94944 0.47186 0.0
H2435 H 0.727 0.97085 0.4928 0.0
H2436 H 0.73629 0.95358 0.47109 0.0
H2437 H 0.69045 0.89623 0.55478 0.0
H2438 H 0.6916 0.92635 0.55803 0.0
H2439 H 0.67076 0.906 0.5358 0.0
H2440 H 0.68597 -0.00256 0.54269 0.0
H2441 H 0.6351 0.94672 0.49125 0.0
H2442 H 0.73367 0.97842 0.5355 0.0
H2443 H 0.72157 0.96301 0.55715 0.0
H2444 H 0.72176 -0.00732 0.55739 0.0
H2445 H 0.67177 0.91632 0.47195 0.0
H2446 H 0.64157 0.91253 0.47487 0.0
H2447 H 0.65993 0.90156 0.49409 0.0
C2448 C 0.38288 0.45743 0.75807 0.0
C2449 C 0.40341 0.45493 0.75067 0.0
C2450 C 0.36448 0.43794 0.75987 0.0
C2451 C 0.3666 0.41548 0.75388 0.0
C2452 C 0.38668 0.41288 0.74505 0.0
C2453 C 0.40486 0.43261 0.74368 0.0
C2454 C 0.34342 0.44144 0.76947 0.0
C2455 C 0.38955 0.38926 0.73817 0.0
C2456 C 0.33859 0.36593 0.78411 0.0
C2457 C 0.31963 0.3527 0.76737 0.0
C2458 C 0.35325 0.38699 0.78034 0.0
C2459 C 0.3492 0.39477 0.75905 0.0
C2460 C 0.32966 0.38177 0.74229 0.0
C2461 C 0.31491 0.36096 0.74677 0.0
C2462 C 0.37361 0.40048 0.79886 0.0
C2463 C 0.32502 0.38923 0.71921 0.0
H2464 H 0.38163 0.47461 0.76354 0.0
H2465 H 0.42056 0.4305 0.73771 0.0
H2466 H 0.32704 0.43017 0.75849 0.0
H2467 H 0.34356 0.43646 0.7869 0.0
H2468 H 0.34316 0.4597 0.77084 0.0
H2469 H 0.40492 0.39012 0.72932 0.0
H2470 H 0.39182 0.38114 0.75375 0.0
H2471 H 0.37366 0.37779 0.72658 0.0
H2472 H 0.34217 0.35963 0.80013 0.0
H2473 H 0.30039 0.35061 0.7337 0.0
H2474 H 0.37372 0.41879 0.80255 0.0
H2475 H 0.39028 0.40037 0.79277 0.0
H2476 H 0.37309 0.39316 0.81517 0.0
H2477 H 0.32496 0.40755 0.72158 0.0
H2478 H 0.30809 0.37832 0.70885 0.0
H2479 H 0.33925 0.38807 0.7093 0.0
C2480 C 0.26544 0.61635 0.2508 0.0
C2481 C 0.24811 0.60748 0.2313 0.0
C2482 C 0.28068 0.63886 0.25299 0.0
C2483 C 0.27795 0.65212 0.23536 0.0
C2484 C 0.26507 0.64075 0.21353 0.0
C2485 C 0.24991 0.61835 0.21177 0.0
C2486 C 0.29598 0.6499 0.27586 0.0
C2487 C 0.26342 0.65374 0.1936 0.0
C2488 C 0.25993 0.70439 0.25691 0.0
C2489 C 0.27908 0.72274 0.2549 0.0
C2490 C 0.25955 0.68151 0.25058 0.0
C2491 C 0.27915 0.67671 0.24229 0.0
C2492 C 0.29871 0.69524 0.24026 0.0
C2493 C 0.29827 0.71818 0.24628 0.0
C2494 C 0.23795 0.66258 0.25285 0.0
C2495 C 0.32006 0.69118 0.2318 0.0
H2496 H 0.26457 0.60759 0.26572 0.0
H2497 H 0.23701 0.61099 0.19634 0.0
H2498 H 0.3117 0.6636 0.27358 0.0
H2499 H 0.28596 0.65799 0.28707 0.0
H2500 H 0.30155 0.6368 0.28476 0.0
H2501 H 0.25734 0.64173 0.17692 0.0
H2502 H 0.25072 0.66367 0.1958 0.0
H2503 H 0.28062 0.66617 0.193 0.0
H2504 H 0.24505 0.70798 0.26347 0.0
H2505 H 0.31322 0.73247 0.24495 0.0
H2506 H 0.24258 0.65146 0.26501 0.0
H2507 H 0.23022 0.65159 0.23586 0.0
H2508 H 0.22429 0.66952 0.25929 0.0
H2509 H 0.32208 0.67409 0.23451 0.0
H2510 H 0.33614 0.70492 0.24059 0.0
H2511 H 0.31862 0.692 0.21307 0.0
C2512 C 0.51857 0.70264 0.49022 0.0
C2513 C 0.49706 0.702 0.47747 0.0
C2514 C 0.52316 0.68221 0.49641 0.0
C2515 C 0.50621 0.6601 0.48917 0.0
C2516 C 0.48465 0.65943 0.47584 0.0
C2517 C 0.48023 0.68019 0.47061 0.0
C2518 C 0.54609 0.68441 0.51121 0.0
C2519 C 0.46614 0.63664 0.46688 0.0
C2520 C 0.52769 0.60538 0.488 0.0
C2521 C 0.51954 0.59564 0.50695 0.0
C2522 C 0.5231 0.62576 0.48181 0.0
C2523 C 0.51094 0.63783 0.49544 0.0
C2524 C 0.50313 0.62829 0.51494 0.0
C2525 C 0.50699 0.60724 0.52008 0.0
C2526 C 0.53099 0.63416 0.46031 0.0
C2527 C 0.49095 0.64054 0.53073 0.0
H2528 H 0.53166 0.71928 0.49593 0.0
H2529 H 0.46351 0.67931 0.46085 0.0
H2530 H 0.5428 0.67649 0.52689 0.0
H2531 H 0.55619 0.67487 0.50167 0.0
H2532 H 0.55695 0.70272 0.51656 0.0
H2533 H 0.4511 0.63866 0.45537 0.0
H2534 H 0.47377 0.62455 0.45721 0.0
H2535 H 0.45954 0.62853 0.4815 0.0
H2536 H 0.53724 0.59665 0.47754 0.0
H2537 H 0.50071 0.60016 0.53486 0.0
H2538 H 0.54418 0.65143 0.46491 0.0
H2539 H 0.51594 0.63611 0.44878 0.0
H2540 H 0.53874 0.62217 0.45064 0.0
H2541 H 0.50167 0.65884 0.53649 0.0
H2542 H 0.48768 0.63218 0.54617 0.0
H2543 H 0.47396 0.6407 0.52131 0.0
C2544 C 0.65474 0.32275 0.65008 0.0
C2545 C 0.6322 0.30689 0.6456 0.0
C2546 C 0.67237 0.32056 0.66693 0.0
C2547 C 0.66784 0.3014 0.67897 0.0
C2548 C 0.64507 0.28534 0.67449 0.0
C2549 C 0.62748 0.28853 0.65826 0.0
C2550 C 0.69595 0.33869 0.67165 0.0
C2551 C 0.63952 0.2642 0.68616 0.0
C2552 C 0.72092 0.2838 0.70437 0.0
C2553 C 0.7226 0.29094 0.72811 0.0
C2554 C 0.703 0.28664 0.68829 0.0
C2555 C 0.68692 0.29793 0.69594 0.0
C2556 C 0.68907 0.3058 0.71991 0.0
C2557 C 0.70647 0.30175 0.73567 0.0
C2558 C 0.70116 0.27733 0.6631 0.0
C2559 C 0.6733 0.319 0.72889 0.0
H2560 H 0.6586 0.33694 0.64033 0.0
H2561 H 0.6103 0.27592 0.65462 0.0
H2562 H 0.70151 0.34468 0.69049 0.0
H2563 H 0.70926 0.33116 0.66536 0.0
H2564 H 0.69581 0.3539 0.66307 0.0
H2565 H 0.62115 0.25314 0.68059 0.0
H2566 H 0.65139 0.25374 0.68218 0.0
H2567 H 0.64254 0.26941 0.70514 0.0
H2568 H 0.73339 0.27553 0.69839 0.0
H2569 H 0.70796 0.30775 0.75395 0.0
H2570 H 0.70459 0.29178 0.65303 0.0
H2571 H 0.68318 0.2659 0.65625 0.0
H2572 H 0.71376 0.26741 0.66014 0.0
H2573 H 0.67427 0.3342 0.72001 0.0
H2574 H 0.67804 0.32512 0.74778 0.0
H2575 H 0.65487 0.3079 0.72512 0.0
C2576 C 0.01642 0.35002 0.97505 0.0
C2577 C 0.00222 0.33383 0.98637 0.0
C2578 C 0.01959 0.37415 0.98058 0.0
C2579 C 0.00839 0.38275 -0.00204 0.0
C2580 C 0.99444 0.36654 0.00975 0.0
C2581 C 0.99151 0.34254 0.00384 0.0
C2582 C 0.0346 0.39047 0.9674 0.0
C2583 C 0.98228 0.37453 0.02854 0.0
C2584 C 0.03287 0.44724 0.02548 0.0
C2585 C 0.0169 0.45736 0.01481 0.0
C2586 C 0.03009 0.4232 0.02053 0.0
C2587 C 0.01123 0.40856 0.00384 0.0
C2588 C 0.99508 0.41871 -0.00709 0.0
C2589 C 0.99789 0.44275 -0.00126 0.0
C2590 C 0.04746 0.41346 0.03325 0.0
C2591 C 0.975 0.40421 0.97465 0.0
H2592 H 0.0247 0.3438 0.96141 0.0
H2593 H 0.98038 0.33049 0.01276 0.0
H2594 H 0.02398 0.39994 0.95826 0.0
H2595 H 0.04899 0.40357 0.9795 0.0
H2596 H 0.04233 0.38131 0.95457 0.0
H2597 H 0.97271 0.36002 0.03668 0.0
H2598 H 0.99523 0.3875 0.04209 0.0
H2599 H 0.96965 0.38311 0.02134 0.0
H2600 H 0.04761 0.45818 0.03798 0.0
H2601 H 0.98557 0.45025 0.99011 0.0
H2602 H 0.05675 0.40583 0.02086 0.0
H2603 H 0.03816 0.39935 0.04201 0.0
H2604 H 0.06062 0.42681 0.04635 0.0
H2605 H 0.98181 0.39592 0.9604 0.0
H2606 H 0.96419 0.41457 0.96739 0.0
H2607 H 0.96364 0.39013 0.98199 0.0
C2608 C 0.00586 0.78254 0.15661 0.0
C2609 C 0.00273 0.79339 0.13733 0.0
C2610 C 0.98933 0.77895 0.17178 0.0
C2611 C 0.96917 0.7865 0.16775 0.0
C2612 C 0.96594 0.79746 0.14832 0.0
C2613 C 0.98264 0.80069 0.13339 0.0
C2614 C 0.99343 0.76707 0.19217 0.0
C2615 C 0.94481 0.80587 0.14334 0.0
C2616 C 0.91529 0.76065 0.19485 0.0
C2617 C 0.91725 0.77803 0.21351 0.0
C2618 C 0.93212 0.76304 0.18001 0.0
C2619 C 0.95157 0.78325 0.18391 0.0
C2620 C 0.9538 0.80072 0.20289 0.0
C2621 C 0.93664 0.79794 0.21736 0.0
C2622 C 0.9289 0.74404 0.15993 0.0
C2623 C 0.97427 0.82248 0.20784 0.0
H2624 H 0.02122 0.77673 0.15982 0.0
H2625 H 0.97997 0.80912 0.11861 0.0
H2626 H 0.99443 0.77871 0.20842 0.0
H2627 H 0.97853 0.75134 0.19141 0.0
H2628 H 0.0098 0.762 0.19282 0.0
H2629 H 0.94473 0.81392 0.12746 0.0
H2630 H 0.92857 0.79124 0.14133 0.0
H2631 H 0.94438 0.81879 0.15806 0.0
H2632 H 0.90029 0.74531 0.19154 0.0
H2633 H 0.93854 0.81133 0.2319 0.0
H2634 H 0.94458 0.73786 0.16064 0.0
H2635 H 0.92695 0.75088 0.14349 0.0
H2636 H 0.9133 0.72908 0.15968 0.0
H2637 H 0.99093 0.81798 0.21001 0.0
H2638 H 0.97384 0.83414 0.22362 0.0
H2639 H 0.97428 0.83204 0.19303 0.0
C2640 C 0.5237 0.31977 0.14743 0.0
C2641 C 0.53035 0.30066 0.13822 0.0
C2642 C 0.52552 0.33905 0.13599 0.0
C2643 C 0.53401 0.33923 0.11468 0.0
C2644 C 0.54087 0.32006 0.10537 0.0
C2645 C 0.53905 0.30112 0.11725 0.0
C2646 C 0.51829 0.35921 0.14669 0.0
C2647 C 0.54995 0.31944 0.08269 0.0
C2648 C 0.518 0.37761 0.07285 0.0
C2649 C 0.53878 0.39591 0.07576 0.0
C2650 C 0.51611 0.35927 0.0856 0.0
C2651 C 0.5354 0.35923 0.10186 0.0
C2652 C 0.55626 0.37793 0.10525 0.0
C2653 C 0.55772 0.39594 0.09213 0.0
C2654 C 0.49362 0.33964 0.08127 0.0
C2655 C 0.57716 0.37878 0.12257 0.0
H2656 H 0.51707 0.3197 0.16365 0.0
H2657 H 0.54426 0.28652 0.10992 0.0
H2658 H 0.53304 0.37537 0.14912 0.0
H2659 H 0.50367 0.36165 0.13496 0.0
H2660 H 0.51265 0.35672 0.16362 0.0
H2661 H 0.55466 0.30333 0.07781 0.0
H2662 H 0.53651 0.32077 0.06879 0.0
H2663 H 0.56563 0.33448 0.08368 0.0
H2664 H 0.50335 0.37728 0.0601 0.0
H2665 H 0.57375 0.41015 0.09475 0.0
H2666 H 0.48667 0.33739 0.09763 0.0
H2667 H 0.49702 0.32324 0.07474 0.0
H2668 H 0.48001 0.34254 0.06856 0.0
H2669 H 0.57203 0.37735 0.13984 0.0
H2670 H 0.59169 0.39499 0.12393 0.0
H2671 H 0.58368 0.36387 0.11756 0.0
C2672 C 0.96747 0.29959 0.30631 0.0
C2673 C 0.97163 0.29796 0.32987 0.0
C2674 C 0.94481 0.29875 0.29527 0.0
C2675 C 0.92602 0.29684 0.30814 0.0
C2676 C 0.93036 0.29549 0.33185 0.0
C2677 C 0.95264 0.29573 0.34214 0.0
C2678 C 0.9409 0.29979 0.26984 0.0
C2679 C 0.91136 0.29388 0.34664 0.0
C2680 C 0.86976 0.31348 0.29286 0.0
C2681 C 0.85277 0.29171 0.28774 0.0
C2682 C 0.8939 0.31553 0.29788 0.0
C2683 C 0.90146 0.29537 0.29739 0.0
C2684 C 0.88443 0.27344 0.29065 0.0
C2685 C 0.86049 0.27188 0.28617 0.0
C2686 C 0.91118 0.3393 0.30518 0.0
C2687 C 0.89136 0.2514 0.28946 0.0
H2688 H 0.98178 0.30148 0.29655 0.0
H2689 H 0.95517 0.29467 0.36036 0.0
H2690 H 0.92751 0.28375 0.26064 0.0
H2691 H 0.93405 0.31449 0.2668 0.0
H2692 H 0.95718 0.30176 0.26227 0.0
H2693 H 0.91782 0.29412 0.36509 0.0
H2694 H 0.90393 0.30852 0.34544 0.0
H2695 H 0.89691 0.27765 0.34035 0.0
H2696 H 0.86414 0.32894 0.29397 0.0
H2697 H 0.84769 0.25493 0.28168 0.0
H2698 H 0.92668 0.34092 0.29644 0.0
H2699 H 0.91741 0.34205 0.32402 0.0
H2700 H 0.9033 0.35318 0.30135 0.0
H2701 H 0.90662 0.25283 0.28038 0.0
H2702 H 0.8768 0.2361 0.2805 0.0
H2703 H 0.89658 0.2484 0.30719 0.0
C2704 C 0.02207 0.66703 0.65093 0.0
C2705 C 0.00643 0.67981 0.64614 0.0
C2706 C 0.0245 0.64973 0.63417 0.0
C2707 C 0.01028 0.64423 0.61215 0.0
C2708 C 0.99413 0.65686 0.60732 0.0
C2709 C 0.99276 0.67481 0.62418 0.0
C2710 C 0.04261 0.63756 0.63997 0.0
C2711 C 0.9781 0.6512 0.58443 0.0
C2712 C 0.0312 0.61358 0.56216 0.0
C2713 C 0.01929 0.59012 0.56177 0.0
C2714 C 0.02829 0.63124 0.57822 0.0
C2715 C 0.01273 0.62557 0.59423 0.0
C2716 C 1.00038 0.60195 0.59373 0.0
C2717 C 0.00397 0.58457 0.57774 0.0
C2718 C 0.04225 0.65601 0.57831 0.0
C2719 C 0.98332 0.59498 0.61011 0.0
H2720 H 0.03292 0.67099 0.66776 0.0
H2721 H 0.98059 0.68454 0.62038 0.0
H2722 H 0.034 0.61877 0.63891 0.0
H2723 H 0.05484 0.63952 0.62725 0.0
H2724 H 0.05291 0.64442 0.65751 0.0
H2725 H 0.96593 0.66192 0.5836 0.0
H2726 H 0.98854 0.65397 0.57028 0.0
H2727 H 0.96769 0.63267 0.58131 0.0
H2728 H 0.04312 0.6182 0.55001 0.0
H2729 H 0.9945 0.5666 0.57759 0.0
H2730 H 0.05354 0.6632 0.59532 0.0
H2731 H 0.03034 0.66677 0.57569 0.0
H2732 H 0.05349 0.65764 0.56468 0.0
H2733 H 0.99274 0.59945 0.62812 0.0
H2734 H 0.97393 0.57615 0.60658 0.0
H2735 H 0.97027 0.60471 0.60885 0.0
C2736 C 0.61449 0.81516 0.79417 0.0
C2737 C 0.60828 0.81353 0.81626 0.0
C2738 C 0.63567 0.81182 0.7886 0.0
C2739 C 0.65142 0.80636 0.80532 0.0
C2740 C 0.64534 0.80474 0.82769 0.0
C2741 C 0.62411 0.80844 0.83289 0.0
C2742 C 0.64117 0.8141 0.76463 0.0
C2743 C 0.66118 0.79874 0.84614 0.0
C2744 C 0.69491 0.7759 0.78309 0.0
C2745 C 0.71617 0.79386 0.78688 0.0
C2746 C 0.67407 0.77962 0.78932 0.0
C2747 C 0.67393 0.80202 0.79922 0.0
C2748 C 0.69529 0.82029 0.80283 0.0
C2749 C 0.71601 0.81597 0.79694 0.0
C2750 C 0.65213 0.75939 0.78541 0.0
C2751 C 0.69624 0.84457 0.81277 0.0
H2752 H 0.60269 0.8191 0.78103 0.0
H2753 H 0.61974 0.80698 0.84999 0.0
H2754 H 0.65838 0.82718 0.76559 0.0
H2755 H 0.64246 0.7974 0.756 0.0
H2756 H 0.62769 0.81922 0.75378 0.0
H2757 H 0.65419 0.79813 0.86265 0.0
H2758 H 0.6635 0.78166 0.84023 0.0
H2759 H 0.67873 0.81167 0.84934 0.0
H2760 H 0.69461 0.75869 0.77558 0.0
H2761 H 0.73213 0.83009 0.79997 0.0
H2762 H 0.63834 0.76268 0.77328 0.0
H2763 H 0.64538 0.75731 0.8019 0.0
H2764 H 0.65512 0.74292 0.7783 0.0
H2765 H 0.68351 0.85052 0.80182 0.0
H2766 H 0.71392 0.85702 0.81413 0.0
H2767 H 0.69118 0.84486 0.83018 0.0
C2768 C 0.47773 0.54642 0.6883 0.0
C2769 C 0.48809 0.53256 0.7007 0.0
C2770 C 0.48312 0.55068 0.66638 0.0
C2771 C 0.49916 0.54079 0.65657 0.0
C2772 C 0.51033 0.52758 0.66942 0.0
C2773 C 0.50473 0.52371 0.69124 0.0
C2774 C 0.471 0.56506 0.65336 0.0
C2775 C 0.5275 0.51664 0.65971 0.0
C2776 C 0.49428 0.52528 0.59156 0.0
C2777 C 0.51365 0.54201 0.58674 0.0
C2778 C 0.48889 0.52527 0.614 0.0
C2779 C 0.50304 0.54254 0.63224 0.0
C2780 C 0.52198 0.56011 0.62736 0.0
C2781 C 0.52713 0.55958 0.60472 0.0
C2782 C 0.46862 0.5061 0.61834 0.0
C2783 C 0.53734 0.57899 0.64621 0.0
H2784 H 0.4649 0.55339 0.69539 0.0
H2785 H 0.51301 0.51309 0.70063 0.0
H2786 H 0.48396 0.57862 0.64688 0.0
H2787 H 0.4588 0.5539 0.63814 0.0
H2788 H 0.46092 0.57349 0.66421 0.0
H2789 H 0.5357 0.50799 0.67239 0.0
H2790 H 0.51841 0.50358 0.64426 0.0
H2791 H 0.54154 0.5299 0.65415 0.0
H2792 H 0.48362 0.51165 0.57788 0.0
H2793 H 0.54205 0.57267 0.60124 0.0
H2794 H 0.45671 0.51343 0.6276 0.0
H2795 H 0.47526 0.49516 0.62951 0.0
H2796 H 0.45838 0.49488 0.60213 0.0
H2797 H 0.52648 0.58697 0.65641 0.0
H2798 H 0.54965 0.59275 0.63928 0.0
H2799 H 0.54766 0.57147 0.65822 0.0
C2800 C 0.77371 0.22569 0.0066 0.0
C2801 C 0.78488 0.20837 0.00649 0.0
C2802 C 0.77416 0.23867 0.9888 0.0
C2803 C 0.78629 0.23428 0.97062 0.0
C2804 C 0.80002 0.21892 0.97183 0.0
C2805 C 0.799 0.20585 0.98981 0.0
C2806 C 0.75923 0.25492 0.98809 0.0
C2807 C 0.81385 0.2146 0.95304 0.0
C2808 C 0.74995 0.23477 0.91502 0.0
C2809 C 0.76024 0.25714 0.91089 0.0
C2810 C 0.7595 0.22652 0.9336 0.0
C2811 C 0.77965 0.24122 0.94851 0.0
C2812 C 0.7907 0.26353 0.94396 0.0
C2813 C 0.78074 0.27133 0.9251 0.0
C2814 C 0.74724 0.20251 0.9379 0.0
C2815 C 0.8124 0.27939 0.9594 0.0
H2816 H 0.76334 0.22821 0.01987 0.0
H2817 H 0.80813 0.19284 0.99001 0.0
H2818 H 0.76871 0.27142 0.98294 0.0
H2819 H 0.74323 0.24683 0.97506 0.0
H2820 H 0.75376 0.25884 0.005 0.0
H2821 H 0.82796 0.20727 0.95926 0.0
H2822 H 0.802 0.20204 0.93844 0.0
H2823 H 0.82171 0.23077 0.94637 0.0
H2824 H 0.73411 0.22387 0.90393 0.0
H2825 H 0.78898 0.28845 0.92143 0.0
H2826 H 0.73987 0.20373 0.95414 0.0
H2827 H 0.75982 0.19236 0.93991 0.0
H2828 H 0.73276 0.19285 0.92368 0.0
H2829 H 0.80767 0.28624 0.97576 0.0
H2830 H 0.82108 0.29429 0.95124 0.0
H2831 H 0.82508 0.26981 0.96385 0.0
C2832 C 0.10765 0.54599 0.19759 0.0
C2833 C 0.12846 0.53992 0.19925 0.0
C2834 C 0.09113 0.53854 0.17747 0.0
C2835 C 0.0958 0.52494 0.15859 0.0
C2836 C 0.11546 0.5165 0.16119 0.0
C2837 C 0.13164 0.52408 0.18167 0.0
C2838 C 0.07025 0.54771 0.17547 0.0
C2839 C 0.12088 0.50179 0.14146 0.0
C2840 C 0.05081 0.50892 0.10404 0.0
C2841 C 0.05996 0.52721 0.09235 0.0
C2842 C 0.06267 0.50733 0.12543 0.0
C2843 C 0.08376 0.52468 0.13526 0.0
C2844 C 0.09301 0.54313 0.12341 0.0
C2845 C 0.08103 0.54408 0.10207 0.0
C2846 C 0.05266 0.48727 0.13752 0.0
C2847 C 0.11539 0.56215 0.1334 0.0
H2848 H 0.10497 0.55785 0.21147 0.0
H2849 H 0.14767 0.51919 0.18307 0.0
H2850 H 0.0736 0.56221 0.16541 0.0
H2851 H 0.05433 0.53415 0.16621 0.0
H2852 H 0.06682 0.55425 0.19264 0.0
H2853 H 0.13314 0.49233 0.14765 0.0
H2854 H 0.1047 0.48913 0.13148 0.0
H2855 H 0.12919 0.51309 0.12956 0.0
H2856 H 0.03467 0.49569 0.09631 0.0
H2857 H 0.0881 0.55829 0.09307 0.0
H2858 H 0.04728 0.49367 0.1537 0.0
H2859 H 0.06615 0.47871 0.14238 0.0
H2860 H 0.03725 0.4742 0.12664 0.0
H2861 H 0.11337 0.57147 0.14995 0.0
H2862 H 0.12036 0.57495 0.12163 0.0
H2863 H 0.12998 0.55465 0.13705 0.0
C2864 C 0.77495 0.8284 0.45243 0.0
C2865 C 0.79132 0.8236 0.46857 0.0
C2866 C 0.77401 0.82211 0.42853 0.0
C2867 C 0.78989 0.81082 0.42049 0.0
C2868 C 0.8059 0.80526 0.43669 0.0
C2869 C 0.80638 0.81163 0.46043 0.0
C2870 C 0.75651 0.82819 0.41186 0.0
C2871 C 0.82304 0.79312 0.42896 0.0
C2872 C 0.7756 0.77963 0.35824 0.0
C2873 C 0.79031 0.79547 0.34717 0.0
C2874 C 0.77569 0.78412 0.38214 0.0
C2875 C 0.79021 0.80538 0.39518 0.0
C2876 C 0.80513 0.82144 0.384 0.0
C2877 C 0.80528 0.81612 0.36019 0.0
C2878 C 0.76009 0.76618 0.39338 0.0
C2879 C 0.82051 0.84451 0.3971 0.0
H2880 H 0.76325 0.83765 0.45844 0.0
H2881 H 0.81916 0.8078 0.47262 0.0
H2882 H 0.76587 0.84057 0.4014 0.0
H2883 H 0.74569 0.8125 0.39974 0.0
H2884 H 0.74472 0.83607 0.4208 0.0
H2885 H 0.8335 0.78887 0.44367 0.0
H2886 H 0.81362 0.77689 0.41691 0.0
H2887 H 0.83521 0.80429 0.41949 0.0
H2888 H 0.76401 0.76363 0.34815 0.0
H2889 H 0.81638 0.82852 0.35156 0.0
H2890 H 0.74701 0.7733 0.40078 0.0
H2891 H 0.77062 0.76166 0.40782 0.0
H2892 H 0.75068 0.7501 0.38104 0.0
H2893 H 0.80959 0.8543 0.40494 0.0
H2894 H 0.83089 0.85519 0.38588 0.0
H2895 H 0.83271 0.84185 0.41138 0.0
C2896 C 0.51349 0.53325 0.83794 0.0
C2897 C 0.49019 0.53022 0.8284 0.0
C2898 C 0.5201 0.53437 0.86179 0.0
C2899 C 0.50281 0.53137 0.87632 0.0
C2900 C 0.47929 0.52863 0.86677 0.0
C2901 C 0.47334 0.5285 0.84299 0.0
C2902 C 0.5455 0.53831 0.87135 0.0
C2903 C 0.46019 0.52477 0.88146 0.0
C2904 C 0.51519 0.50904 0.93278 0.0
C2905 C 0.51937 0.52898 0.94908 0.0
C2906 C 0.50972 0.50954 0.90903 0.0
C2907 C 0.5092 0.53065 0.90141 0.0
C2908 C 0.5143 0.55099 0.91785 0.0
C2909 C 0.51895 0.54982 0.94144 0.0
C2910 C 0.50388 0.48735 0.89214 0.0
C2911 C 0.51477 0.57402 0.91057 0.0
H2912 H 0.52653 0.53449 0.82667 0.0
H2913 H 0.45524 0.5257 0.8356 0.0
H2914 H 0.55134 0.5527 0.88617 0.0
H2915 H 0.54776 0.5226 0.87781 0.0
H2916 H 0.55703 0.54246 0.85819 0.0
H2917 H 0.44279 0.52293 0.87143 0.0
H2918 H 0.45922 0.50887 0.88918 0.0
H2919 H 0.46422 0.53939 0.89589 0.0
H2920 H 0.5154 0.49291 0.93864 0.0
H2921 H 0.52249 0.56538 0.954 0.0
H2922 H 0.51612 0.48921 0.87946 0.0
H2923 H 0.48599 0.4836 0.88234 0.0
H2924 H 0.50477 0.47236 0.90081 0.0
H2925 H 0.52671 0.57785 0.89773 0.0
H2926 H 0.52057 0.58846 0.92537 0.0
H2927 H 0.49709 0.57334 0.90214 0.0
C2928 C 0.82199 0.21478 0.11887 0.0
C2929 C 0.80832 0.19175 0.11673 0.0
C2930 C 0.82535 0.22992 0.13955 0.0
C2931 C 0.81451 0.22149 0.15793 0.0
C2932 C 0.80338 0.19753 0.15666 0.0
C2933 C 0.80056 0.18282 0.1359 0.0
C2934 C 0.83773 0.2553 0.14061 0.0
C2935 C 0.79135 0.18794 0.17586 0.0
C2936 C 0.81827 0.25408 0.2168 0.0
C2937 C 0.7974 0.26002 0.21403 0.0
C2938 C 0.82532 0.24327 0.19802 0.0
C2939 C 0.81067 0.23775 0.1764 0.0
C2940 C 0.79026 0.24506 0.17329 0.0
C2941 C 0.78403 0.25651 0.19228 0.0
C2942 C 0.84751 0.23635 0.20164 0.0
C2943 C 0.77399 0.23911 0.15045 0.0
H2944 H 0.82758 0.22157 0.10369 0.0
H2945 H 0.78966 0.16501 0.1338 0.0
H2946 H 0.82459 0.2647 0.13747 0.0
H2947 H 0.84827 0.26295 0.15789 0.0
H2948 H 0.84932 0.25816 0.12734 0.0
H2949 H 0.78635 0.16873 0.17335 0.0
H2950 H 0.80273 0.19485 0.19283 0.0
H2951 H 0.77522 0.19327 0.17639 0.0
H2952 H 0.82864 0.25722 0.23382 0.0
H2953 H 0.76789 0.2612 0.19047 0.0
H2954 H 0.85786 0.24082 0.18768 0.0
H2955 H 0.84307 0.21734 0.201 0.0
H2956 H 0.85853 0.24488 0.21854 0.0
H2957 H 0.7838 0.24483 0.13648 0.0
H2958 H 0.75962 0.24723 0.15074 0.0
H2959 H 0.76612 0.22006 0.1461 0.0
C2960 C 0.15646 0.56727 0.31994 0.0
C2961 C 0.16824 0.58749 0.31214 0.0
C2962 C 0.14332 0.56827 0.33776 0.0
C2963 C 0.1424 0.59004 0.34826 0.0
C2964 C 0.1557 0.6106 0.34168 0.0
C2965 C 0.16835 0.60907 0.32351 0.0
C2966 C 0.12917 0.54596 0.34421 0.0
C2967 C 0.15551 0.63412 0.35295 0.0
C2968 C 0.08689 0.59027 0.37179 0.0
C2969 C 0.09364 0.58994 0.39516 0.0
C2970 C 0.10279 0.59067 0.35635 0.0
C2971 C 0.12597 0.5911 0.36468 0.0
C2972 C 0.13305 0.59154 0.38843 0.0
C2973 C 0.1167 0.59082 0.40341 0.0
C2974 C 0.09458 0.58989 0.33104 0.0
C2975 C 0.1577 0.59228 0.3979 0.0
H2976 H 0.15626 0.55053 0.31117 0.0
H2977 H 0.17761 0.62475 0.31764 0.0
H2978 H 0.13237 0.54651 0.36315 0.0
H2979 H 0.11025 0.5437 0.33907 0.0
H2980 H 0.13328 0.53062 0.33571 0.0
H2981 H 0.16891 0.64837 0.3478 0.0
H2982 H 0.13806 0.63642 0.34797 0.0
H2983 H 0.15867 0.63556 0.372 0.0
H2984 H 0.06897 0.5894 0.36549 0.0
H2985 H 0.12188 0.59079 0.4216 0.0
H2986 H 0.09609 0.57395 0.32095 0.0
H2987 H 0.10582 0.60486 0.32474 0.0
H2988 H 0.07614 0.59014 0.3275 0.0
H2989 H 0.16127 0.57621 0.3906 0.0
H2990 H 0.16073 0.59403 0.41701 0.0
H2991 H 0.17046 0.60699 0.3927 0.0
C2992 C 0.80418 0.83833 0.6155 0.0
C2993 C 0.78588 0.83546 0.5973 0.0
C2994 C 0.79978 0.83282 0.6372 0.0
C2995 C 0.77645 0.82351 0.64077 0.0
C2996 C 0.7578 0.8209 0.62256 0.0
C2997 C 0.76273 0.82725 0.6011 0.0
C2998 C 0.82024 0.83641 0.65614 0.0
C2999 C 0.73271 0.81064 0.6255 0.0
C3000 C 0.77142 0.78532 0.68739 0.0
C3001 C 0.77035 0.80048 0.70682 0.0
C3002 C 0.77238 0.79231 0.66567 0.0
C3003 C 0.77203 0.81501 0.66303 0.0
C3004 C 0.76989 0.8301 0.68231 0.0
C3005 C 0.76923 0.82272 0.70399 0.0
C3006 C 0.77489 0.77567 0.64574 0.0
C3007 C 0.76927 0.85436 0.68025 0.0
H3008 H 0.82211 0.84498 0.61274 0.0
H3009 H 0.74855 0.82499 0.58706 0.0
H3010 H 0.81792 0.8467 0.67198 0.0
H3011 H 0.82111 0.81944 0.6605 0.0
H3012 H 0.83718 0.84544 0.65114 0.0
H3013 H 0.72017 0.81124 0.61036 0.0
H3014 H 0.72973 0.79233 0.62792 0.0
H3015 H 0.72895 0.81998 0.64116 0.0
H3016 H 0.77235 0.76811 0.68927 0.0
H3017 H 0.76827 0.83455 0.71879 0.0
H3018 H 0.79241 0.78219 0.64077 0.0
H3019 H 0.76169 0.77443 0.63049 0.0
H3020 H 0.77288 0.75805 0.65006 0.0
H3021 H 0.7865 0.86476 0.677 0.0
H3022 H 0.76518 0.86311 0.69611 0.0
H3023 H 0.75604 0.85411 0.66539 0.0
C3024 C 0.73919 0.45313 0.52563 0.0
C3025 C 0.74711 0.45402 0.50432 0.0
C3026 C 0.72538 0.46684 0.53276 0.0
C3027 C 0.71902 0.48146 0.51803 0.0
C3028 C 0.72684 0.48237 0.49645 0.0
C3029 C 0.74102 0.46875 0.48992 0.0
C3030 C 0.71756 0.46564 0.55601 0.0
C3031 C 0.71999 0.49751 0.48016 0.0
C3032 C 0.66436 0.49904 0.52352 0.0
C3033 C 0.6737 0.52209 0.53446 0.0
C3034 C 0.67892 0.48543 0.51859 0.0
C3035 C 0.70342 0.49518 0.52477 0.0
C3036 C 0.71294 0.51816 0.53666 0.0
C3037 C 0.69789 0.5314 0.54144 0.0
C3038 C 0.66812 0.46087 0.50619 0.0
C3039 C 0.739 0.52895 0.54373 0.0
H3040 H 0.74408 0.44193 0.53695 0.0
H3041 H 0.7471 0.46942 0.47344 0.0
H3042 H 0.72311 0.48317 0.56651 0.0
H3043 H 0.69819 0.45933 0.55376 0.0
H3044 H 0.72478 0.454 0.56575 0.0
H3045 H 0.72773 0.49641 0.46411 0.0
H3046 H 0.70067 0.49233 0.47542 0.0
H3047 H 0.72571 0.51581 0.48879 0.0
H3048 H 0.64557 0.49173 0.51856 0.0
H3049 H 0.70504 0.54923 0.54993 0.0
H3050 H 0.67423 0.44868 0.51603 0.0
H3051 H 0.67374 0.4591 0.48907 0.0
H3052 H 0.6487 0.45561 0.50364 0.0
H3053 H 0.74652 0.51776 0.55382 0.0
H3054 H 0.74346 0.54643 0.55422 0.0
H3055 H 0.74748 0.53045 0.52813 0.0
C3056 C 0.20762 0.13481 0.51384 0.0
C3057 C 0.20439 0.15286 0.50245 0.0
C3058 C 0.18847 0.11595 0.51544 0.0
C3059 C 0.16569 0.11506 0.50518 0.0
C3060 C 0.16263 0.13247 0.49235 0.0
C3061 C 0.18197 0.15119 0.49126 0.0
C3062 C 0.19244 0.0978 0.52936 0.0
C3063 C 0.13869 0.13207 0.48089 0.0
C3064 C 0.11314 0.06143 0.49805 0.0
C3065 C 0.1017 0.06744 0.51605 0.0
C3066 C 0.13452 0.07634 0.49473 0.0
C3067 C 0.14473 0.0976 0.50989 0.0
C3068 C 0.13377 0.10318 0.52871 0.0
C3069 C 0.11238 0.08811 0.53148 0.0
C3070 C 0.1456 0.06986 0.47441 0.0
C3071 C 0.14414 0.12557 0.54542 0.0
H3072 H 0.22489 0.13603 0.52259 0.0
H3073 H 0.17939 0.16496 0.48222 0.0
H3074 H 0.1854 0.09979 0.54572 0.0
H3075 H 0.18298 0.08019 0.51989 0.0
H3076 H 0.21129 0.09924 0.53362 0.0
H3077 H 0.1396 0.14544 0.46954 0.0
H3078 H 0.12942 0.11484 0.47046 0.0
H3079 H 0.12804 0.13521 0.49427 0.0
H3080 H 0.10497 0.04551 0.48601 0.0
H3081 H 0.10379 0.0928 0.54557 0.0
H3082 H 0.16439 0.07187 0.47999 0.0
H3083 H 0.14459 0.08169 0.46172 0.0
H3084 H 0.13683 0.05179 0.46565 0.0
H3085 H 0.1627 0.12767 0.55223 0.0
H3086 H 0.13449 0.12642 0.56019 0.0
H3087 H 0.14375 0.1404 0.53635 0.0
C3088 C 0.16298 0.98695 0.764 0.0
C3089 C 0.15449 0.98964 0.78491 0.0
C3090 C 0.17644 0.97175 0.76003 0.0
C3091 C 0.1814 0.95879 0.7773 0.0
C3092 C 0.17249 0.96112 0.79823 0.0
C3093 C 0.15925 0.97653 0.80181 0.0
C3094 C 0.18571 0.96987 0.73753 0.0
C3095 C 0.17721 0.94753 0.81704 0.0
C3096 C 0.20082 0.90502 0.76277 0.0
C3097 C 0.22501 0.91342 0.77071 0.0
C3098 C 0.18648 0.91967 0.76427 0.0
C3099 C 0.19653 0.94334 0.77394 0.0
C3100 C 0.22098 0.95203 0.78152 0.0
C3101 C 0.23487 0.937 0.7799 0.0
C3102 C 0.16051 0.90973 0.7559 0.0
C3103 C 0.23243 0.97715 0.79189 0.0
H3104 H 0.15943 -0.003 0.75084 0.0
H3105 H 0.15269 0.97836 0.81797 0.0
H3106 H 0.20512 0.97572 0.7409 0.0
H3107 H 0.1802 0.95157 0.72894 0.0
H3108 H 0.17957 0.98042 0.72551 0.0
H3109 H 0.16836 0.95069 0.83198 0.0
H3110 H 0.17118 0.92873 0.81015 0.0
H3111 H 0.1963 0.95227 0.82323 0.0
H3112 H 0.19306 0.88695 0.75532 0.0
H3113 H 0.25345 0.94366 0.78639 0.0
H3114 H 0.15468 0.91975 0.74317 0.0
H3115 H 0.1509 0.91112 0.77059 0.0
H3116 H 0.15557 0.89126 0.74781 0.0
H3117 H 0.22776 0.98851 0.78 0.0
H3118 H 0.25179 0.98151 0.79566 0.0
H3119 H 0.22591 0.98112 0.80818 0.0
C3120 C 0.35162 0.96055 0.02129 0.0
C3121 C 0.35414 0.93841 0.01598 0.0
C3122 C 0.37092 0.98029 0.02399 0.0
C3123 C 0.39291 0.97762 0.0208 0.0
C3124 C 0.3959 0.95529 0.01739 0.0
C3125 C 0.37645 0.93592 0.01518 0.0
C3126 C 0.36739 0.00386 0.02873 0.0
C3127 C 0.41927 0.95173 0.01431 0.0
C3128 C 0.43695 0.01457 0.99125 0.0
C3129 C 0.45579 0.02236 0.00927 0.0
C3130 C 0.41496 0.00212 -0.00462 0.0
C3131 C 0.41226 -0.00246 0.018 0.0
C3132 C 0.43062 0.00802 0.03664 0.0
C3133 C 0.45238 0.02025 0.03197 0.0
C3134 C 0.39562 0.99129 0.9751 0.0
C3135 C 0.42837 0.00393 0.06103 0.0
H3136 H 0.33446 0.96253 0.02242 0.0
H3137 H 0.37859 0.91884 0.01143 0.0
H3138 H 0.38257 0.01618 0.0406 0.0
H3139 H 0.36571 0.01078 0.01232 0.0
H3140 H 0.35128 0.00304 0.03634 0.0
H3141 H 0.4188 0.93326 0.0131 0.0
H3142 H 0.42457 0.95791 -0.00168 0.0
H3143 H 0.43296 0.9619 0.02894 0.0
H3144 H 0.43989 0.01624 0.97374 0.0
H3145 H 0.46721 0.02647 0.04584 0.0
H3146 H 0.37863 -0.00724 0.97937 0.0
H3147 H 0.39393 0.9726 0.97082 0.0
H3148 H 0.39917 -0.00056 0.95959 0.0
H3149 H 0.41028 0.00188 0.06448 0.0
H3150 H 0.44066 0.01837 0.07376 0.0
H3151 H 0.43278 0.98784 0.06375 0.0
C3152 C 0.85625 0.57497 0.7657 0.0
C3153 C 0.86594 0.57835 0.78908 0.0
C3154 C 0.83958 0.58566 0.75829 0.0
C3155 C 0.83302 0.60056 0.77459 0.0
C3156 C 0.84291 0.60425 0.79819 0.0
C3157 C 0.85911 0.59281 0.80523 0.0
C3158 C 0.8289 0.58091 0.73309 0.0
C3159 C 0.83651 0.62039 0.81595 0.0
C3160 C 0.81117 0.64866 0.75566 0.0
C3161 C 0.78734 0.64043 0.75692 0.0
C3162 C 0.8261 0.63539 0.76051 0.0
C3163 C 0.81685 0.61342 0.76681 0.0
C3164 C 0.79252 0.60448 0.76687 0.0
C3165 C 0.77793 0.6182 0.76185 0.0
C3166 C 0.85192 0.64537 0.76004 0.0
C3167 C 0.78211 0.581 0.77332 0.0
H3168 H 0.8611 0.56331 0.75324 0.0
H3169 H 0.86647 0.59519 0.82331 0.0
H3170 H 0.80954 0.57489 0.7312 0.0
H3171 H 0.83368 0.5971 0.7256 0.0
H3172 H 0.83479 0.56765 0.72294 0.0
H3173 H 0.84558 0.62111 0.83364 0.0
H3174 H 0.84113 0.63812 0.81154 0.0
H3175 H 0.81736 0.61475 0.81589 0.0
H3176 H 0.81823 0.66591 0.75166 0.0
H3177 H 0.75945 0.61205 0.76285 0.0
H3178 H 0.85818 0.63313 0.74894 0.0
H3179 H 0.86189 0.64805 0.77769 0.0
H3180 H 0.856 0.66219 0.75357 0.0
H3181 H 0.78856 0.56778 0.76387 0.0
H3182 H 0.76269 0.57542 0.76963 0.0
H3183 H 0.78765 0.58159 0.79201 0.0
C3184 C 0.83311 0.64397 -0.00684 0.0
C3185 C 0.82714 0.65743 0.01108 0.0
C3186 C 0.84881 0.63109 -0.00235 0.0
C3187 C 0.85887 0.6315 0.02067 0.0
C3188 C 0.85316 0.64526 0.03884 0.0
C3189 C 0.83744 0.65806 0.03385 0.0
C3190 C 0.85443 0.61681 0.9777 0.0
C3191 C 0.8634 0.64621 0.06363 0.0
C3192 C 0.88062 0.58012 0.03271 0.0
C3193 C 0.90486 0.58887 0.03309 0.0
C3194 C 0.86561 0.59388 0.02911 0.0
C3195 C 0.87488 0.61706 0.02565 0.0
C3196 C 0.89932 0.62611 0.0262 0.0
C3197 C 0.91396 0.61198 0.02993 0.0
C3198 C 0.83971 0.58345 0.02866 0.0
C3199 C 0.91001 0.65069 0.02263 0.0
H3200 H 0.82539 0.64334 0.97549 0.0
H3201 H 0.833 0.66836 0.04785 0.0
H3202 H 0.87359 0.62191 0.97781 0.0
H3203 H 0.84884 0.59825 0.97949 0.0
H3204 H 0.84568 0.61881 0.96076 0.0
H3205 H 0.85778 0.65821 0.07574 0.0
H3206 H 0.85798 0.62868 0.06844 0.0
H3207 H 0.88278 0.65183 0.0658 0.0
H3208 H 0.87323 0.56226 0.03477 0.0
H3209 H 0.93263 0.61914 0.03053 0.0
H3210 H 0.83002 0.58324 0.01142 0.0
H3211 H 0.83343 0.59418 0.04143 0.0
H3212 H 0.83532 0.56549 0.0325 0.0
H3213 H 0.90265 0.65313 0.00533 0.0
H3214 H 0.92934 0.65534 0.02408 0.0
H3215 H 0.90556 0.66289 0.03553 0.0
C3216 C 0.18453 0.11433 0.79638 0.0
C3217 C 0.16252 0.11219 0.78399 0.0
C3218 C 0.20347 0.13423 0.79709 0.0
C3219 C 0.20031 0.15186 0.78456 0.0
C3220 C 0.17835 0.14907 0.77112 0.0
C3221 C 0.15968 0.12945 0.77128 0.0
C3222 C 0.22649 0.13683 0.81196 0.0
C3223 C 0.17434 0.16713 0.75703 0.0
C3224 C 0.23372 0.21537 0.80116 0.0
C3225 C 0.24845 0.21856 0.78447 0.0
C3226 C 0.21923 0.19334 0.80251 0.0
C3227 C 0.21916 0.17407 0.78652 0.0
C3228 C 0.2349 0.17698 0.77042 0.0
C3229 C 0.24952 0.19922 0.7697 0.0
C3230 C 0.20301 0.19096 0.8202 0.0
C3231 C 0.23517 0.15693 0.75291 0.0
H3232 H 0.18665 0.10096 0.80624 0.0
H3233 H 0.14271 0.1276 0.76142 0.0
H3234 H 0.24108 0.14151 0.802 0.0
H3235 H 0.22976 0.15111 0.82662 0.0
H3236 H 0.22676 0.12077 0.81895 0.0
H3237 H 0.15684 0.16138 0.74601 0.0
H3238 H 0.1758 0.18333 0.76868 0.0
H3239 H 0.18789 0.1713 0.74579 0.0
H3240 H 0.2331 0.23022 0.81288 0.0
H3241 H 0.26092 0.2016 0.7568 0.0
H3242 H 0.20354 0.17604 0.82909 0.0
H3243 H 0.18477 0.18763 0.81146 0.0
H3244 H 0.20752 0.20681 0.83335 0.0
H3245 H 0.23531 0.14161 0.76125 0.0
H3246 H 0.25053 0.16131 0.74385 0.0
H3247 H 0.21904 0.15197 0.73987 0.0
C3248 C 0.30453 0.96332 0.29522 0.0
C3249 C 0.31486 0.96149 0.27541 0.0
C3250 C 0.28818 0.94381 0.30006 0.0
C3251 C 0.28266 0.92277 0.28462 0.0
C3252 C 0.28815 0.92311 0.26204 0.0
C3253 C 0.30452 0.94274 0.25769 0.0
C3254 C 0.28085 0.94449 0.3235 0.0
C3255 C 0.28113 0.90141 0.24431 0.0
C3256 C 0.30088 0.87355 0.30533 0.0
C3257 C 0.27965 0.85597 0.3008 0.0
C3258 C 0.30176 0.89606 0.30209 0.0
C3259 C 0.28076 0.90105 0.29412 0.0
C3260 C 0.25901 0.88389 0.29179 0.0
C3261 C 0.2587 0.86145 0.29528 0.0
C3262 C 0.32554 0.91379 0.30516 0.0
C3263 C 0.23622 0.88891 0.28479 0.0
H3264 H 0.31206 0.97827 0.30865 0.0
H3265 H 0.31204 0.94183 0.24198 0.0
H3266 H 0.2633 0.93208 0.32275 0.0
H3267 H 0.29353 0.93956 0.33557 0.0
H3268 H 0.2806 0.96216 0.33049 0.0
H3269 H 0.2821 0.90556 0.22662 0.0
H3270 H 0.29323 0.89101 0.24801 0.0
H3271 H 0.26313 0.89064 0.24486 0.0
H3272 H 0.31703 0.86943 0.31006 0.0
H3273 H 0.24212 0.84795 0.29238 0.0
H3274 H 0.32578 0.93006 0.31592 0.0
H3275 H 0.32962 0.91775 0.28806 0.0
H3276 H 0.33969 0.90757 0.31343 0.0
H3277 H 0.23258 0.8997 0.29953 0.0
H3278 H 0.2213 0.87283 0.2798 0.0
H3279 H 0.23718 0.89883 0.27022 0.0
C3280 C 0.57723 0.37234 0.55004 0.0
C3281 C 0.56501 0.36011 0.56579 0.0
C3282 C 0.57341 0.39303 0.54391 0.0
C3283 C 0.55684 0.40235 0.55357 0.0
C3284 C 0.5443 0.39004 0.56936 0.0
C3285 C 0.54849 0.36933 0.57523 0.0
C3286 C 0.58738 0.40507 0.52707 0.0
C3287 C 0.5265 0.39891 0.58032 0.0
C3288 C 0.56304 0.46774 0.55396 0.0
C3289 C 0.54618 0.46778 0.53523 0.0
C3290 C 0.5665 0.4469 0.56012 0.0
C3291 C 0.55293 0.42497 0.54735 0.0
C3292 C 0.53595 0.42488 0.52836 0.0
C3293 C 0.53277 0.446 0.52263 0.0
C3294 C 0.58483 0.4484 0.58047 0.0
C3295 C 0.52104 0.40232 0.51392 0.0
H3296 H 0.59011 0.36581 0.5425 0.0
H3297 H 0.53887 0.36043 0.58744 0.0
H3298 H 0.57541 0.40689 0.51211 0.0
H3299 H 0.598 0.42278 0.53544 0.0
H3300 H 0.59926 0.39561 0.52065 0.0
H3301 H 0.51788 0.38743 0.59195 0.0
H3302 H 0.53506 0.41646 0.59039 0.0
H3303 H 0.51287 0.40048 0.56675 0.0
H3304 H 0.57362 0.48415 0.56406 0.0
H3305 H 0.51965 0.44539 0.50815 0.0
H3306 H 0.59817 0.44053 0.5748 0.0
H3307 H 0.57668 0.43843 0.59338 0.0
H3308 H 0.59375 0.46653 0.58896 0.0
H3309 H 0.53236 0.39293 0.50622 0.0
H3310 H 0.50854 0.40489 0.49982 0.0
H3311 H 0.51104 0.39112 0.52495 0.0
C3312 C 0.42333 0.75481 0.38414 0.0
C3313 C 0.42454 0.75953 0.40816 0.0
C3314 C 0.40461 0.7575 0.3688 0.0
C3315 C 0.38705 0.76593 0.37757 0.0
C3316 C 0.38833 0.77078 0.40179 0.0
C3317 C 0.40668 0.76721 0.41663 0.0
C3318 C 0.40367 0.75136 0.34317 0.0
C3319 C 0.37066 0.7805 0.41215 0.0
C3320 C 0.35373 0.79667 0.33906 0.0
C3321 C 0.33139 0.78059 0.33303 0.0
C3322 C 0.37178 0.79224 0.35364 0.0
C3323 C 0.36789 0.77067 0.36168 0.0
C3324 C 0.34537 0.75419 0.35532 0.0
C3325 C 0.32732 0.75951 0.34147 0.0
C3326 C 0.395 0.8108 0.36058 0.0
C3327 C 0.34048 0.73069 0.36271 0.0
H3328 H 0.43691 0.74887 0.37731 0.0
H3329 H 0.40742 0.77124 0.43509 0.0
H3330 H 0.38615 0.73959 0.33518 0.0
H3331 H 0.40646 0.76721 0.33512 0.0
H3332 H 0.41714 0.74289 0.3391 0.0
H3333 H 0.37434 0.78388 0.4313 0.0
H3334 H 0.37065 0.79694 0.40588 0.0
H3335 H 0.35282 0.76831 0.40662 0.0
H3336 H 0.35707 0.81292 0.33245 0.0
H3337 H 0.31027 0.74677 0.33644 0.0
H3338 H 0.40904 0.80453 0.35419 0.0
H3339 H 0.39945 0.81488 0.37967 0.0
H3340 H 0.39493 0.82698 0.35374 0.0
H3341 H 0.35345 0.72211 0.35735 0.0
H3342 H 0.32262 0.71929 0.35522 0.0
H3343 H 0.34236 0.73257 0.38176 0.0
C3344 C 0.04006 0.71244 0.06663 0.0
C3345 C 0.0593 0.72834 0.06047 0.0
C3346 C 0.03613 0.68813 0.06133 0.0
C3347 C 0.05214 0.67917 0.05017 0.0
C3348 C 0.07145 0.69516 0.04378 0.0
C3349 C 0.07458 0.71925 0.04869 0.0
C3350 C 0.01488 0.672 0.06792 0.0
C3351 C 0.08937 0.68687 0.03235 0.0
C3352 C 0.05624 0.61846 0.05888 0.0
C3353 C 0.04517 0.60473 0.03755 0.0
C3354 C 0.0588 0.64251 0.06308 0.0
C3355 C 0.04931 0.65328 0.04586 0.0
C3356 C 0.03771 0.63929 0.02438 0.0
C3357 C 0.03607 0.6154 0.02041 0.0
C3358 C 0.07187 0.65647 0.08599 0.0
C3359 C 0.02664 0.64948 0.00566 0.0
H3360 H 0.02806 0.71898 0.07572 0.0
H3361 H 0.08969 0.73108 0.04396 0.0
H3362 H 0.00489 0.659 0.05272 0.0
H3363 H 0.02041 0.6624 0.08124 0.0
H3364 H 0.00311 0.68137 0.07477 0.0
H3365 H 0.10335 0.70135 0.0283 0.0
H3366 H 0.09758 0.67719 0.04384 0.0
H3367 H 0.08081 0.67479 0.01613 0.0
H3368 H 0.06311 0.61036 0.07231 0.0
H3369 H 0.02704 0.60487 0.00404 0.0
H3370 H 0.06013 0.66421 0.09508 0.0
H3371 H 0.08663 0.67094 0.08322 0.0
H3372 H 0.07888 0.64584 0.0973 0.0
H3373 H 0.01383 0.65751 0.01238 0.0
H3374 H 0.01755 0.6363 0.99028 0.0
H3375 H 0.04017 0.66336 0.00024 0.0
C3376 C 0.06547 0.2735 0.90158 0.0
C3377 C 0.04753 0.28248 0.89326 0.0
C3378 C 0.08516 0.27497 0.89049 0.0
C3379 C 0.08702 0.28555 0.87045 0.0
C3380 C 0.06897 0.29462 0.86198 0.0
C3381 C 0.04957 0.29304 0.87346 0.0
C3382 C 0.10401 0.26522 0.90027 0.0
C3383 C 0.07011 0.30596 0.84065 0.0
C3384 C 0.14637 0.30855 0.85121 0.0
C3385 C 0.1458 0.29098 0.83324 0.0
C3386 C 0.12768 0.30679 0.86377 0.0
C3387 C 0.1077 0.28705 0.8582 0.0
C3388 C 0.10717 0.26911 0.84032 0.0
C3389 C 0.12617 0.27124 0.82816 0.0
C3390 C 0.12922 0.32622 0.88285 0.0
C3391 C 0.08624 0.24782 0.83366 0.0
H3392 H 0.0642 0.26536 0.91687 0.0
H3393 H 0.0359 0.30005 0.86681 0.0
H3394 H 0.10598 0.2515 0.88724 0.0
H3395 H 0.12104 0.27898 0.90445 0.0
H3396 H 0.10015 0.25778 0.9161 0.0
H3397 H 0.05465 0.31207 0.83617 0.0
H3398 H 0.08611 0.32096 0.84328 0.0
H3399 H 0.0712 0.29357 0.82579 0.0
H3400 H 0.16154 0.32372 0.85555 0.0
H3401 H 0.12536 0.25766 0.81419 0.0
H3402 H 0.12656 0.31936 0.89917 0.0
H3403 H 0.11513 0.3342 0.87855 0.0
H3404 H 0.14633 0.33989 0.88577 0.0
H3405 H 0.0826 0.23933 0.84893 0.0
H3406 H 0.08882 0.23505 0.81995 0.0
H3407 H 0.07054 0.25285 0.8274 0.0
C3408 C 0.5295 0.73956 0.89069 0.0
C3409 C 0.54653 0.76034 0.90069 0.0
C3410 C 0.5274 0.71936 0.90063 0.0
C3411 C 0.54278 0.72006 0.92101 0.0
C3412 C 0.56109 0.74066 0.93012 0.0
C3413 C 0.56254 0.76064 0.92001 0.0
C3414 C 0.50753 0.6979 0.89041 0.0
C3415 C 0.57809 0.74213 0.95157 0.0
C3416 C 0.52074 0.68316 0.96582 0.0
C3417 C 0.53106 0.66524 0.96256 0.0
C3418 C 0.52387 0.70059 0.95196 0.0
C3419 C 0.538 0.70047 0.9345 0.0
C3420 C 0.54819 0.6823 0.93081 0.0
C3421 C 0.54452 0.66487 0.94477 0.0
C3422 C 0.51242 0.71948 0.95636 0.0
C3423 C 0.56337 0.68152 0.91242 0.0
H3424 H 0.51677 0.73951 0.87606 0.0
H3425 H 0.57542 0.77687 0.92798 0.0
H3426 H 0.51359 0.68227 0.88961 0.0
H3427 H 0.49382 0.69568 0.90159 0.0
H3428 H 0.4995 0.69895 0.87281 0.0
H3429 H 0.59304 0.75822 0.95465 0.0
H3430 H 0.56892 0.74181 0.96675 0.0
H3431 H 0.58498 0.72701 0.9503 0.0
H3432 H 0.51062 0.68396 0.97966 0.0
H3433 H 0.55225 0.65093 0.94174 0.0
H3434 H 0.50188 0.72089 0.94018 0.0
H3435 H 0.52604 0.73637 0.96224 0.0
H3436 H 0.50085 0.71635 0.96963 0.0
H3437 H 0.55379 0.6823 0.89545 0.0
H3438 H 0.56908 0.66564 0.91092 0.0
H3439 H 0.57912 0.69684 0.91647 0.0
C3440 C 0.09021 0.74804 0.74871 0.0
C3441 C 0.0808 0.75438 0.7284 0.0
C3442 C 0.11449 0.75131 0.75461 0.0
C3443 C 0.13008 0.76086 0.73975 0.0
C3444 C 0.12076 0.76769 0.71945 0.0
C3445 C 0.09642 0.76453 0.71413 0.0
C3446 C 0.12343 0.74424 0.77669 0.0
C3447 C 0.13648 0.77779 0.70294 0.0
C3448 C 0.19591 0.78724 0.76243 0.0
C3449 C 0.20514 0.76913 0.75557 0.0
C3450 C 0.1717 0.78467 0.75782 0.0
C3451 C 0.15602 0.76362 0.74539 0.0
C3452 C 0.16524 0.74526 0.73834 0.0
C3453 C 0.18952 0.74809 0.7438 0.0
C3454 C 0.16291 0.80453 0.76643 0.0
C3455 C 0.14946 0.72267 0.72465 0.0
H3456 H 0.07851 0.74017 0.75996 0.0
H3457 H 0.08955 0.76934 0.6983 0.0
H3458 H 0.13138 0.73015 0.7727 0.0
H3459 H 0.13731 0.75904 0.7874 0.0
H3460 H 0.10935 0.73814 0.78697 0.0
H3461 H 0.1267 0.78232 0.68794 0.0
H3462 H 0.15029 0.79358 0.71198 0.0
H3463 H 0.14538 0.76519 0.69649 0.0
H3464 H 0.20767 0.8035 0.77181 0.0
H3465 H 0.19637 0.73401 0.73831 0.0
H3466 H 0.14964 0.79875 0.77762 0.0
H3467 H 0.15423 0.81036 0.75168 0.0
H3468 H 0.17719 0.81953 0.77636 0.0
H3469 H 0.13593 0.71455 0.73472 0.0
H3470 H 0.15924 0.71025 0.71998 0.0
H3471 H 0.1402 0.7259 0.70859 0.0
C3472 C 0.0669 0.40196 0.40274 0.0
C3473 C 0.04557 0.38501 0.39394 0.0
C3474 C 0.06735 0.4242 0.4135 0.0
C3475 C 0.04602 0.4294 0.41568 0.0
C3476 C 0.02465 0.4128 0.4052 0.0
C3477 C 0.02475 0.39106 0.3944 0.0
C3478 C 0.09056 0.44155 0.42393 0.0
C3479 C 0.0014 0.41711 0.4072 0.0
C3480 C 0.04082 0.46706 0.46978 0.0
C3481 C 0.03838 0.48713 0.46162 0.0
C3482 C 0.04407 0.44866 0.45519 0.0
C3483 C 0.04543 0.45028 0.43169 0.0
C3484 C 0.04365 0.47077 0.4234 0.0
C3485 C 0.03985 0.48884 0.43837 0.0
C3486 C 0.04516 0.42705 0.46484 0.0
C3487 C 0.04545 0.47347 0.39863 0.0
H3488 H 0.08305 0.39744 0.40259 0.0
H3489 H 0.00816 0.37809 0.38748 0.0
H3490 H 0.09083 0.45913 0.42051 0.0
H3491 H 0.0933 0.44223 0.44291 0.0
H3492 H 0.10531 0.43692 0.41711 0.0
H3493 H 0.98655 0.40345 0.3962 0.0
H3494 H 0.99848 0.4176 0.42539 0.0
H3495 H 0.00132 0.43408 0.40229 0.0
H3496 H 0.0396 0.46542 0.48766 0.0
H3497 H 0.03827 0.50435 0.43195 0.0
H3498 H 0.06138 0.42284 0.46167 0.0
H3499 H 0.03014 0.41218 0.45596 0.0
H3500 H 0.0447 0.42884 0.48366 0.0
H3501 H 0.06096 0.46889 0.39367 0.0
H3502 H 0.04674 0.49138 0.39556 0.0
H3503 H 0.02981 0.46143 0.38716 0.0
C3504 C 0.44929 0.26945 0.22838 0.0
C3505 C 0.44983 0.2467 0.2216 0.0
C3506 C 0.42919 0.2741 0.2357 0.0
C3507 C 0.40848 0.25569 0.23534 0.0
C3508 C 0.40882 0.23275 0.22789 0.0
C3509 C 0.42945 0.22855 0.22168 0.0
C3510 C 0.43031 0.29877 0.24427 0.0
C3511 C 0.38721 0.21249 0.22616 0.0
C3512 C 0.36065 0.26217 0.27172 0.0
C3513 C 0.34452 0.26789 0.25606 0.0
C3514 C 0.38164 0.25879 0.26546 0.0
C3515 C 0.3865 0.2603 0.24265 0.0
C3516 C 0.36995 0.26571 0.2267 0.0
C3517 C 0.34957 0.26985 0.23368 0.0
C3518 C 0.39882 0.25391 0.28345 0.0
C3519 C 0.37356 0.26675 0.20202 0.0
H3520 H 0.46488 0.28365 0.22864 0.0
H3521 H 0.42945 0.21091 0.21634 0.0
H3522 H 0.41732 0.30409 0.23303 0.0
H3523 H 0.42575 0.30017 0.2619 0.0
H3524 H 0.44792 0.31102 0.24471 0.0
H3525 H 0.38973 0.1959 0.21871 0.0
H3526 H 0.38235 0.21088 0.24349 0.0
H3527 H 0.37228 0.21538 0.21526 0.0
H3528 H 0.3571 0.26083 0.2891 0.0
H3529 H 0.33726 0.27424 0.22142 0.0
H3530 H 0.41636 0.26654 0.2847 0.0
H3531 H 0.40056 0.23643 0.27838 0.0
H3532 H 0.3934 0.25484 0.30074 0.0
H3533 H 0.38982 0.28055 0.20142 0.0
H3534 H 0.35873 0.27018 0.19145 0.0
H3535 H 0.37567 0.25014 0.1941 0.0
C3536 C 0.56558 0.51627 0.34684 0.0
C3537 C 0.58687 0.53125 0.34382 0.0
C3538 C 0.56066 0.51302 0.3691 0.0
C3539 C 0.57704 0.5258 0.38877 0.0
C3540 C 0.59888 0.54045 0.38566 0.0
C3541 C 0.60361 0.54276 0.36321 0.0
C3542 C 0.53748 0.49669 0.37154 0.0
C3543 C 0.61659 0.55497 0.40598 0.0
C3544 C 0.55074 0.54071 0.44178 0.0
C3545 C 0.55671 0.5262 0.45656 0.0
C3546 C 0.55776 0.5411 0.42003 0.0
C3547 C 0.57031 0.52589 0.41234 0.0
C3548 C 0.57626 0.51103 0.42718 0.0
C3549 C 0.5698 0.5117 0.44934 0.0
C3550 C 0.55178 0.5579 0.40529 0.0
C3551 C 0.58894 0.49404 0.41943 0.0
H3552 H 0.55256 0.50753 0.33182 0.0
H3553 H 0.61992 0.55467 0.36082 0.0
H3554 H 0.54004 0.48543 0.38442 0.0
H3555 H 0.52607 0.50677 0.37784 0.0
H3556 H 0.52827 0.48559 0.35491 0.0
H3557 H 0.63345 0.56393 0.40079 0.0
H3558 H 0.60951 0.56822 0.41446 0.0
H3559 H 0.61999 0.54414 0.41899 0.0
H3560 H 0.54083 0.55213 0.44746 0.0
H3561 H 0.5743 0.50037 0.46072 0.0
H3562 H 0.53974 0.54828 0.38932 0.0
H3563 H 0.56785 0.56861 0.40005 0.0
H3564 H 0.54334 0.56961 0.41441 0.0
H3565 H 0.57844 0.48212 0.40373 0.0
H3566 H 0.59223 0.48363 0.43294 0.0
H3567 H 0.60592 0.50331 0.41476 0.0
C3568 C 0.2555 0.84153 0.04825 0.0
C3569 C 0.27611 0.85385 0.04152 0.0
C3570 C 0.25551 0.83824 0.07132 0.0
C3571 C 0.27653 0.84771 0.08734 0.0
C3572 C 0.29684 0.86153 0.08062 0.0
C3573 C 0.29635 0.86429 0.05769 0.0
C3574 C 0.23354 0.82382 0.07829 0.0
C3575 C 0.31958 0.87222 0.09719 0.0
C3576 C 0.28616 0.85144 0.15161 0.0
C3577 C 0.29595 0.83331 0.15369 0.0
C3578 C 0.27742 0.85514 0.12987 0.0
C3579 C 0.27894 0.84051 0.11007 0.0
C3580 C 0.28765 0.82144 0.11223 0.0
C3581 C 0.29603 0.81805 0.13412 0.0
C3582 C 0.26819 0.87561 0.12804 0.0
C3583 C 0.2901 0.80585 0.09139 0.0
H3584 H 0.2398 0.8341 0.03555 0.0
H3585 H 0.31203 0.87446 0.05223 0.0
H3586 H 0.23534 0.80652 0.08041 0.0
H3587 H 0.23074 0.83192 0.09511 0.0
H3588 H 0.21789 0.82143 0.06517 0.0
H3589 H 0.33289 0.88431 0.0895 0.0
H3590 H 0.31661 0.88182 0.1131 0.0
H3591 H 0.32686 0.85836 0.10227 0.0
H3592 H 0.28577 0.86295 0.16694 0.0
H3593 H 0.30368 0.80408 0.13587 0.0
H3594 H 0.25259 0.87105 0.11441 0.0
H3595 H 0.28179 0.8899 0.12324 0.0
H3596 H 0.26353 0.88208 0.14464 0.0
H3597 H 0.27366 0.80012 0.07875 0.0
H3598 H 0.29459 0.79032 0.09608 0.0
H3599 H 0.30415 0.81559 0.08272 0.0
C3600 C 0.95029 0.53888 0.85873 0.0
C3601 C 0.92926 0.52091 0.85323 0.0
C3602 C 0.96456 0.54224 0.88007 0.0
C3603 C 0.95721 0.52757 0.89622 0.0
C3604 C 0.93552 0.51 0.89108 0.0
C3605 C 0.92184 0.50674 0.86947 0.0
C3606 C 0.9878 0.56092 0.88503 0.0
C3607 C 0.92703 0.49432 0.90816 0.0
C3608 C 0.00209 0.51943 0.9421 0.0
C3609 C 0.9995 0.53377 0.9613 0.0
C3610 C 0.9886 0.51749 0.92059 0.0
C3611 C 0.97239 0.53032 0.91843 0.0
C3612 C 0.97013 0.54525 0.93761 0.0
C3613 C 0.98378 0.54682 0.95887 0.0
C3614 C 0.99124 0.50129 0.90037 0.0
C3615 C 0.95289 0.55908 0.9358 0.0
H3616 H 0.95607 0.54965 0.84599 0.0
H3617 H 0.90546 0.49292 0.86514 0.0
H3618 H 0.98888 0.57287 0.9011 0.0
H3619 H 0.0022 0.55301 0.88783 0.0
H3620 H 0.99067 0.57115 0.87076 0.0
H3621 H 0.90924 0.48219 0.90177 0.0
H3622 H 0.93924 0.48404 0.91178 0.0
H3623 H 0.92671 0.50477 0.92474 0.0
H3624 H 0.01414 0.50923 0.944 0.0
H3625 H 0.98182 0.55803 0.97369 0.0
H3626 H 0.99527 0.51076 0.88578 0.0
H3627 H 0.97454 0.48732 0.8943 0.0
H3628 H 0.00527 0.49322 0.9048 0.0
H3629 H 0.95637 0.5702 0.92234 0.0
H3630 H 0.95365 0.57022 0.95235 0.0
H3631 H 0.93485 0.54719 0.93053 0.0
C3632 C 0.29206 0.24479 0.59644 0.0
C3633 C 0.27168 0.24354 0.58146 0.0
C3634 C 0.29404 0.25134 0.6205 0.0
C3635 C 0.27497 0.25615 0.62986 0.0
C3636 C 0.25447 0.25502 0.61476 0.0
C3637 C 0.25318 0.249 0.59087 0.0
C3638 C 0.31639 0.25277 0.63593 0.0
C3639 C 0.23358 0.25963 0.62389 0.0
C3640 C 0.26793 0.24931 0.69215 0.0
C3641 C 0.2762 0.27227 0.7034 0.0
C3642 C 0.26797 0.24379 0.66835 0.0
C3643 C 0.27602 0.26173 0.65541 0.0
C3644 C 0.28412 0.28502 0.66679 0.0
C3645 C 0.28445 0.28997 0.69071 0.0
C3646 C 0.25957 0.21873 0.65709 0.0
C3647 C 0.2924 0.30472 0.65368 0.0
H3648 H 0.30643 0.24063 0.58938 0.0
H3649 H 0.23722 0.24784 0.57955 0.0
H3650 H 0.32335 0.27002 0.64697 0.0
H3651 H 0.31281 0.23969 0.64758 0.0
H3652 H 0.33005 0.24981 0.62597 0.0
H3653 H 0.21913 0.25858 0.60986 0.0
H3654 H 0.22688 0.24686 0.63517 0.0
H3655 H 0.23878 0.27706 0.63455 0.0
H3656 H 0.26204 0.23561 0.70212 0.0
H3657 H 0.29112 0.30771 0.69956 0.0
H3658 H 0.27353 0.21418 0.64867 0.0
H3659 H 0.24429 0.21589 0.64342 0.0
H3660 H 0.25448 0.2068 0.66963 0.0
H3661 H 0.30707 0.30241 0.64498 0.0
H3662 H 0.29828 0.32183 0.66506 0.0
H3663 H 0.27806 0.30475 0.64004 0.0
C3664 C 0.55505 0.54652 0.20662 0.0
C3665 C 0.57388 0.53897 0.21539 0.0
C3666 C 0.54861 0.54543 0.18275 0.0
C3667 C 0.56145 0.53685 0.16716 0.0
C3668 C 0.58004 0.5286 0.17584 0.0
C3669 C 0.58593 0.52962 0.19978 0.0
C3670 C 0.5284 0.55401 0.17426 0.0
C3671 C 0.59426 0.51939 0.15986 0.0
C3672 C 0.53543 0.51727 0.10347 0.0
C3673 C 0.54602 0.53662 0.09365 0.0
C3674 C 0.53993 0.51726 0.12734 0.0
C3675 C 0.55577 0.53694 0.14183 0.0
C3676 C 0.56643 0.5566 0.13205 0.0
C3677 C 0.56126 0.55629 0.10812 0.0
C3678 C 0.52782 0.49612 0.13703 0.0
C3679 C 0.58363 0.57784 0.14681 0.0
H3680 H 0.54556 0.55373 0.21847 0.0
H3681 H 0.60059 0.52388 0.2063 0.0
H3682 H 0.53482 0.56938 0.16587 0.0
H3683 H 0.51555 0.5405 0.16108 0.0
H3684 H 0.51928 0.55883 0.18843 0.0
H3685 H 0.60775 0.51306 0.16922 0.0
H3686 H 0.58265 0.505 0.14669 0.0
H3687 H 0.60309 0.53323 0.15055 0.0
H3688 H 0.52345 0.50204 0.09248 0.0
H3689 H 0.5696 0.57126 0.10068 0.0
H3690 H 0.51821 0.501 0.1507 0.0
H3691 H 0.54097 0.4886 0.14512 0.0
H3692 H 0.51529 0.48258 0.1236 0.0
H3693 H 0.57522 0.58482 0.1605 0.0
H3694 H 0.5904 0.59169 0.13662 0.0
H3695 H 0.59864 0.57316 0.15552 0.0
C3696 C 0.30158 0.87144 0.92385 0.0
C3697 C 0.28346 0.88068 0.92857 0.0
C3698 C 0.30075 0.85922 0.90236 0.0
C3699 C 0.28223 0.85785 0.88472 0.0
C3700 C 0.26608 0.87042 0.88829 0.0
C3701 C 0.2665 0.88142 0.91062 0.0
C3702 C 0.31786 0.84533 0.89971 0.0
C3703 C 0.24727 0.87057 0.8691 0.0
C3704 C 0.29111 0.82512 0.83082 0.0
C3705 C 0.27545 0.80337 0.83044 0.0
C3706 C 0.29145 0.84393 0.8469 0.0
C3707 C 0.2777 0.83998 0.86448 0.0
C3708 C 0.26284 0.81754 0.86503 0.0
C3709 C 0.2615 0.79947 0.84753 0.0
C3710 C 0.30681 0.86781 0.84544 0.0
C3711 C 0.24937 0.81234 0.88466 0.0
H3712 H 0.3154 0.8718 0.93758 0.0
H3713 H 0.25294 0.88924 0.9142 0.0
H3714 H 0.30834 0.82659 0.89745 0.0
H3715 H 0.32624 0.84838 0.88429 0.0
H3716 H 0.3319 0.8495 0.91495 0.0
H3717 H 0.24053 0.88561 0.8728 0.0
H3718 H 0.25397 0.87108 0.85244 0.0
H3719 H 0.23246 0.85454 0.86717 0.0
H3720 H 0.30335 0.82729 0.81873 0.0
H3721 H 0.24988 0.7823 0.84738 0.0
H3722 H 0.32083 0.87429 0.86067 0.0
H3723 H 0.29623 0.88009 0.84548 0.0
H3724 H 0.31509 0.86808 0.82966 0.0
H3725 H 0.26171 0.81638 0.90116 0.0
H3726 H 0.23868 0.79392 0.88234 0.0
H3727 H 0.2376 0.82336 0.88622 0.0
C3728 C 0.9387 0.48056 0.72771 0.0
C3729 C 0.93272 0.50082 0.73408 0.0
C3730 C 0.94569 0.47623 0.70647 0.0
C3731 C 0.94717 0.49279 0.69153 0.0
C3732 C 0.94175 0.51356 0.69802 0.0
C3733 C 0.93436 0.51728 0.71928 0.0
C3734 C 0.95118 0.45379 0.69988 0.0
C3735 C 0.94368 0.53173 0.6825 0.0
C3736 C 0.98704 0.48962 0.64802 0.0
C3737 C 0.97094 0.47842 0.62814 0.0
C3738 C 0.97943 0.49496 0.66871 0.0
C3739 C 0.95519 0.48852 0.66943 0.0
C3740 C 0.93881 0.47702 0.64941 0.0
C3741 C 0.94694 0.47231 0.62877 0.0
C3742 C 0.99729 0.50763 0.68971 0.0
C3743 C 0.91282 0.46963 0.64987 0.0
H3744 H 0.93724 0.46768 0.73903 0.0
H3745 H 0.92972 0.53293 0.72423 0.0
H3746 H 0.93992 0.44417 0.68345 0.0
H3747 H 0.9696 0.45743 0.69702 0.0
H3748 H 0.94849 0.44246 0.7133 0.0
H3749 H 0.93917 0.5471 0.69034 0.0
H3750 H 0.96175 0.53747 0.67863 0.0
H3751 H 0.93185 0.5243 0.66583 0.0
H3752 H 0.0056 0.49485 0.64716 0.0
H3753 H 0.93465 0.46393 0.61313 0.0
H3754 H 0.99624 0.49672 0.70349 0.0
H3755 H 0.99353 0.52372 0.69664 0.0
H3756 H 0.01545 0.51224 0.68586 0.0
H3757 H 0.90878 0.45754 0.66244 0.0
H3758 H 0.90247 0.46098 0.63271 0.0
H3759 H 0.90711 0.48488 0.65567 0.0
C3760 C 0.26536 0.24796 0.43979 0.0
C3761 C 0.27979 0.2384 0.45349 0.0
C3762 C 0.26957 0.25263 0.41778 0.0
C3763 C 0.28897 0.24804 0.4091 0.0
C3764 C 0.30408 0.23903 0.42303 0.0
C3765 C 0.2992 0.23412 0.44497 0.0
C3766 C 0.25278 0.26194 0.40353 0.0
C3767 C 0.32516 0.23424 0.4146 0.0
C3768 C 0.28135 0.23962 0.34347 0.0
C3769 C 0.2928 0.26187 0.33939 0.0
C3770 C 0.28127 0.23449 0.36603 0.0
C3771 C 0.29266 0.25206 0.38513 0.0
C3772 C 0.30521 0.27424 0.38109 0.0
C3773 C 0.30523 0.27884 0.35831 0.0
C3774 C 0.26787 0.21054 0.36941 0.0
C3775 C 0.31757 0.29352 0.40086 0.0
H3776 H 0.25021 0.25124 0.44599 0.0
H3777 H 0.31047 0.22676 0.45534 0.0
H3778 H 0.26237 0.27847 0.39845 0.0
H3779 H 0.24447 0.24953 0.38744 0.0
H3780 H 0.23877 0.265 0.41292 0.0
H3781 H 0.33595 0.22856 0.42795 0.0
H3782 H 0.31943 0.22056 0.39915 0.0
H3783 H 0.33623 0.24999 0.40933 0.0
H3784 H 0.2719 0.22629 0.32902 0.0
H3785 H 0.31413 0.29608 0.35542 0.0
H3786 H 0.25202 0.21131 0.37686 0.0
H3787 H 0.27864 0.20379 0.38175 0.0
H3788 H 0.26233 0.19814 0.35296 0.0
H3789 H 0.30443 0.29908 0.4098 0.0
H3790 H 0.32885 0.30879 0.39497 0.0
H3791 H 0.32849 0.2874 0.41367 0.0
C3792 C 0.33894 0.60961 0.5373 0.0
C3793 C 0.31471 0.60171 0.52975 0.0
C3794 C 0.35317 0.59575 0.53192 0.0
C3795 C 0.34282 0.57336 0.51896 0.0
C3796 C 0.3184 0.56529 0.51121 0.0
C3797 C 0.3046 0.57967 0.51658 0.0
C3798 C 0.37923 0.60503 0.5402 0.0
C3799 C 0.30687 0.54141 0.49749 0.0
C3800 C 0.38296 0.54551 0.48984 0.0
C3801 C 0.38808 0.53176 0.50589 0.0
C3802 C 0.36784 0.55885 0.49365 0.0
C3803 C 0.3576 0.55826 0.51392 0.0
C3804 C 0.36225 0.54397 0.52991 0.0
C3805 C 0.3775 0.53088 0.5257 0.0
C3806 C 0.3635 0.57419 0.47642 0.0
C3807 C 0.35162 0.54298 0.55173 0.0
H3808 H 0.34685 0.62675 0.5473 0.0
H3809 H 0.28587 0.57353 0.51076 0.0
H3810 H 0.38482 0.59401 0.55196 0.0
H3811 H 0.38879 0.60449 0.52536 0.0
H3812 H 0.38454 0.62312 0.54946 0.0
H3813 H 0.28769 0.53785 0.49257 0.0
H3814 H 0.31461 0.5394 0.48158 0.0
H3815 H 0.31009 0.52817 0.50773 0.0
H3816 H 0.39148 0.54652 0.47472 0.0
H3817 H 0.38143 0.52016 0.53805 0.0
H3818 H 0.37025 0.5926 0.48472 0.0
H3819 H 0.34446 0.57044 0.47059 0.0
H3820 H 0.37207 0.57192 0.46108 0.0
H3821 H 0.35778 0.56027 0.56273 0.0
H3822 H 0.35624 0.53022 0.56187 0.0
H3823 H 0.3323 0.53837 0.5475 0.0
C3824 C 0.87673 0.92443 0.55913 0.0
C3825 C 0.85661 0.91835 0.54242 0.0
C3826 C 0.8968 0.94186 0.55702 0.0
C3827 C 0.89697 0.95289 0.53727 0.0
C3828 C 0.8762 0.94776 0.52103 0.0
C3829 C 0.85609 0.9307 0.52398 0.0
C3830 C 0.91833 0.94728 0.5751 0.0
C3831 C 0.87577 0.95874 0.49951 0.0
C3832 C 0.94954 0.00432 0.53565 0.0
C3833 C 0.9643 -0.00676 0.52565 0.0
C3834 C 0.92736 0.99151 0.53935 0.0
C3835 C 0.91962 0.96721 0.53221 0.0
C3836 C 0.93419 0.95616 0.52125 0.0
C3837 C 0.9565 0.96926 0.51848 0.0
C3838 C 0.91265 0.00379 0.55172 0.0
C3839 C 0.92642 0.93038 0.51284 0.0
H3840 H 0.87707 0.91485 0.57342 0.0
H3841 H 0.84058 0.92576 0.51091 0.0
H3842 H 0.93139 0.9398 0.56813 0.0
H3843 H 0.92653 0.96625 0.57976 0.0
H3844 H 0.91427 0.94004 0.59099 0.0
H3845 H 0.85768 0.95538 0.49031 0.0
H3846 H 0.88417 0.9777 0.50369 0.0
H3847 H 0.88589 0.95159 0.48766 0.0
H3848 H 0.95571 0.02287 0.54139 0.0
H3849 H 0.96788 0.96073 0.51058 0.0
H3850 H 0.91062 -0.00224 0.56853 0.0
H3851 H 0.89487 -0.00046 0.54158 0.0
H3852 H 0.92055 0.02288 0.55494 0.0
H3853 H 0.92473 0.92097 0.52776 0.0
H3854 H 0.93893 0.92484 0.50284 0.0
H3855 H 0.90899 0.92511 0.50179 0.0
C3856 C 0.8782 0.06424 0.28117 0.0
C3857 C 0.89929 0.06788 0.27234 0.0
C3858 C 0.86614 0.08097 0.28195 0.0
C3859 C 0.87539 0.10207 0.27388 0.0
C3860 C 0.89678 0.10599 0.26512 0.0
C3861 C 0.9084 0.08883 0.26435 0.0
C3862 C 0.84338 0.07598 0.29135 0.0
C3863 C 0.90741 0.12833 0.2566 0.0
C3864 C 0.83187 0.13485 0.25741 0.0
C3865 C 0.83483 0.15069 0.27762 0.0
C3866 C 0.84538 0.11939 0.25571 0.0
C3867 C 0.86249 0.11986 0.27459 0.0
C3868 C 0.86618 0.13643 0.29471 0.0
C3869 C 0.85226 0.15151 0.29603 0.0
C3870 C 0.84074 0.10197 0.23399 0.0
C3871 C 0.88446 0.13785 0.31511 0.0
H3872 H 0.87094 0.04816 0.28738 0.0
H3873 H 0.92471 0.0919 0.25758 0.0
H3874 H 0.84477 0.08929 0.30641 0.0
H3875 H 0.82911 0.07683 0.27807 0.0
H3876 H 0.83841 0.05867 0.29677 0.0
H3877 H 0.92434 0.12892 0.2507 0.0
H3878 H 0.89519 0.13056 0.24209 0.0
H3879 H 0.91033 0.14322 0.27054 0.0
H3880 H 0.81837 0.13397 0.24317 0.0
H3881 H 0.85493 0.16393 0.31158 0.0
H3882 H 0.83398 0.08423 0.23799 0.0
H3883 H 0.85723 0.10295 0.22709 0.0
H3884 H 0.82783 0.10467 0.22038 0.0
H3885 H 0.87956 0.12178 0.32277 0.0
H3886 H 0.88647 0.15284 0.32869 0.0
H3887 H 0.90163 0.13928 0.30949 0.0
C3888 C 0.70118 0.10795 0.01537 0.0
C3889 C 0.71702 0.10586 0.0336 0.0
C3890 C 0.67832 0.09332 0.01079 0.0
C3891 C 0.67155 0.076 0.02465 0.0
C3892 C 0.68847 0.07183 0.041 0.0
C3893 C 0.7112 0.08724 0.04564 0.0
C3894 C 0.66079 0.09868 -0.00654 0.0
C3895 C 0.68202 0.05278 0.05525 0.0
C3896 C 0.61187 0.07327 0.03849 0.0
C3897 C 0.59789 0.0566 0.02034 0.0
C3898 C 0.63619 0.07878 0.04102 0.0
C3899 C 0.64643 0.06652 0.02549 0.0
C3900 C 0.63215 0.04816 0.00842 0.0
C3901 C 0.60787 0.04378 0.00563 0.0
C3902 C 0.65079 0.09884 0.05921 0.0
C3903 C 0.64247 0.03389 -0.0075 0.0
H3904 H 0.70602 0.12256 0.00626 0.0
H3905 H 0.72366 0.08585 0.05983 0.0
H3906 H 0.64985 0.08272 0.98186 0.0
H3907 H 0.64896 0.10617 0.0027 0.0
H3908 H 0.66939 0.11124 0.98272 0.0
H3909 H 0.69752 0.04741 0.06157 0.0
H3910 H 0.67514 0.05906 0.07051 0.0
H3911 H 0.66824 0.03746 0.0452 0.0
H3912 H 0.60379 0.08281 0.04993 0.0
H3913 H 0.59669 0.03039 -0.00801 0.0
H3914 H 0.66095 0.11282 0.05084 0.0
H3915 H 0.66347 0.09328 0.07059 0.0
H3916 H 0.63996 0.10614 0.07011 0.0
H3917 H 0.64856 0.04357 0.9786 0.0
H3918 H 0.62941 0.01719 0.98432 0.0
H3919 H 0.6578 0.03033 0.00198 0.0
C3920 C 0.20643 0.48522 0.26448 0.0
C3921 C 0.21513 0.49798 0.2476 0.0
C3922 C 0.21559 0.46773 0.2709 0.0
C3923 C 0.23414 0.46334 0.26048 0.0
C3924 C 0.24236 0.47556 0.2428 0.0
C3925 C 0.23258 0.49265 0.23641 0.0
C3926 C 0.20601 0.45457 0.28939 0.0
C3927 C 0.26223 0.47134 0.23139 0.0
C3928 C 0.27859 0.44066 0.29308 0.0
C3929 C 0.27254 0.4179 0.28153 0.0
C3930 C 0.2656 0.45546 0.28695 0.0
C3931 C 0.24612 0.44711 0.26898 0.0
C3932 C 0.23925 0.42379 0.25807 0.0
C3933 C 0.25264 0.40944 0.26445 0.0
C3934 C 0.27333 0.48026 0.29899 0.0
C3935 C 0.2183 0.41423 0.23915 0.0
H3936 H 0.1927 0.48916 0.27294 0.0
H3937 H 0.23932 0.50251 0.22336 0.0
H3938 H 0.20219 0.43567 0.28381 0.0
H3939 H 0.21929 0.45951 0.30527 0.0
H3940 H 0.1898 0.45813 0.29373 0.0
H3941 H 0.26584 0.4816 0.21724 0.0
H3942 H 0.27836 0.47599 0.24438 0.0
H3943 H 0.25818 0.45273 0.22425 0.0
H3944 H 0.29397 0.44713 0.3063 0.0
H3945 H 0.24769 0.39163 0.25589 0.0
H3946 H 0.25852 0.48472 0.30583 0.0
H3947 H 0.279 0.492 0.28647 0.0
H3948 H 0.28801 0.48362 0.31347 0.0
H3949 H 0.20282 0.41846 0.24465 0.0
H3950 H 0.21389 0.39516 0.2342 0.0
H3951 H 0.22194 0.42234 0.22366 0.0
C3952 C 0.22421 0.40625 0.02783 0.0
C3953 C 0.24469 0.41465 0.01851 0.0
C3954 C 0.20666 0.41749 0.02697 0.0
C3955 C 0.20963 0.43773 0.01665 0.0
C3956 C 0.2302 0.4462 0.00712 0.0
C3957 C 0.24738 0.43458 0.00812 0.0
C3958 C 0.18496 0.40776 0.0372 0.0
C3959 C 0.23416 0.4677 -0.00402 0.0
C3960 C 0.15738 0.45805 -0.00445 0.0
C3961 C 0.1588 0.47613 0.01331 0.0
C3962 C 0.17337 0.44504 -0.00333 0.0
C3963 C 0.19144 0.45027 0.01596 0.0
C3964 C 0.19271 0.46822 0.03413 0.0
C3965 C 0.17639 0.48084 0.03263 0.0
C3966 C 0.17115 0.42591 0.97703 0.0
C3967 C 0.21173 0.47451 0.05494 0.0
H3968 H 0.22187 0.39087 0.03586 0.0
H3969 H 0.26307 0.44128 0.00084 0.0
H3970 H 0.18345 0.42074 0.0513 0.0
H3971 H 0.16918 0.40397 0.02391 0.0
H3972 H 0.18504 0.39166 0.04418 0.0
H3973 H 0.25104 0.47204 0.98931 0.0
H3974 H 0.21977 0.46531 0.98147 0.0
H3975 H 0.23403 0.48262 0.00864 0.0
H3976 H 0.14367 0.45402 0.98071 0.0
H3977 H 0.17781 0.49489 0.04634 0.0
H3978 H 0.17011 0.40944 0.98367 0.0
H3979 H 0.1869 0.43009 0.96856 0.0
H3980 H 0.15546 0.4232 0.96384 0.0
H3981 H 0.21157 0.45903 0.06312 0.0
H3982 H 0.20978 0.48824 0.06802 0.0
H3983 H 0.22907 0.48068 0.0495 0.0
C3984 C 0.88196 0.95254 0.24605 0.0
C3985 C 0.90464 0.95531 0.25727 0.0
C3986 C 0.86353 0.93258 0.24665 0.0
C3987 C 0.86783 0.91544 0.25931 0.0
C3988 C 0.89057 0.91864 0.27129 0.0
C3989 C 0.90869 0.93833 0.26986 0.0
C3990 C 0.83965 0.92949 0.23323 0.0
C3991 C 0.89587 0.9011 0.28542 0.0
C3992 C 0.81981 0.86998 0.27862 0.0
C3993 C 0.81926 0.85001 0.26383 0.0
C3994 C 0.83478 0.89173 0.27671 0.0
C3995 C 0.84912 0.89352 0.25932 0.0
C3996 C 0.8475 0.87356 0.24349 0.0
C3997 C 0.83278 0.85205 0.24607 0.0
C3998 C 0.83628 0.9125 0.29418 0.0
C3999 C 0.86217 0.8747 0.22447 0.0
H4000 H 0.87879 0.96564 0.2363 0.0
H4001 H 0.92613 0.94057 0.27888 0.0
H4002 H 0.83494 0.91406 0.21958 0.0
H4003 H 0.82625 0.92636 0.24472 0.0
H4004 H 0.8389 0.94479 0.22502 0.0
H4005 H 0.91406 0.90697 0.29499 0.0
H4006 H 0.88362 0.8976 0.29801 0.0
H4007 H 0.89338 0.8845 0.27399 0.0
H4008 H 0.80943 0.86847 0.2924 0.0
H4009 H 0.83218 0.83669 0.23438 0.0
H4010 H 0.83516 0.92737 0.28546 0.0
H4011 H 0.85346 0.91781 0.30569 0.0
H4012 H 0.82225 0.90882 0.30496 0.0
H4013 H 0.86111 0.8892 0.21513 0.0
H4014 H 0.85665 0.85838 0.21187 0.0
H4015 H 0.88078 0.87799 0.23203 0.0
C4016 C 0.74027 0.10939 0.78272 0.0
C4017 C 0.74321 0.1001 0.76087 0.0
C4018 C 0.7503 0.13305 0.79102 0.0
C4019 C 0.76489 0.14678 0.77779 0.0
C4020 C 0.77264 0.1359 0.7591 0.0
C4021 C 0.76097 0.11263 0.7502 0.0
C4022 C 0.74258 0.1437 0.81192 0.0
C4023 C 0.79037 0.14965 0.74631 0.0
C4024 C 0.75014 0.20002 0.76216 0.0
C4025 C 0.76546 0.21739 0.77887 0.0
C4026 C 0.74943 0.1769 0.76219 0.0
C4027 C 0.7656 0.17135 0.77846 0.0
C4028 C 0.78147 0.18909 0.79514 0.0
C4029 C 0.78068 0.2119 0.79556 0.0
C4030 C 0.73109 0.15847 0.74494 0.0
C4031 C 0.79923 0.18433 0.8126 0.0
H4032 H 0.72686 0.09934 0.7912 0.0
H4033 H 0.76362 0.10523 0.73351 0.0
H4034 H 0.75773 0.15045 0.82607 0.0
H4035 H 0.73607 0.15841 0.80808 0.0
H4036 H 0.72857 0.13099 0.81821 0.0
H4037 H 0.79947 0.13847 0.7374 0.0
H4038 H 0.78142 0.1571 0.73306 0.0
H4039 H 0.80352 0.16413 0.75827 0.0
H4040 H 0.73834 0.20449 0.74942 0.0
H4041 H 0.7925 0.22557 0.80852 0.0
H4042 H 0.72189 0.14422 0.75358 0.0
H4043 H 0.73952 0.15101 0.73159 0.0
H4044 H 0.71784 0.16546 0.7361 0.0
H4045 H 0.79186 0.18179 0.8287 0.0
H4046 H 0.81532 0.19931 0.81707 0.0
H4047 H 0.80412 0.16867 0.80634 0.0
loop_
_geom_bond_atom_site_label_1
_geom_bond_atom_site_label_2
_geom_bond_distance
_geom_bond_site_symmetry_2
_ccdc_geom_bond_type
Zn0 O3 2.031 . S
Zn0 O5 2.049 . S
Zn0 O10 2.067 1_455 S
Zn1 O2 1.962 . S
Zn1 O4 1.986 . S
Zn1 O6 1.996 . S
Zn1 O9 1.943 . S
O2 Zn1 1.962 . S
O2 C7 1.254 . S
O3 Zn0 2.031 . S
O3 C7 1.269 . S
O4 Zn1 1.986 . S
O4 C11 1.262 . S
O5 Zn0 2.049 . S
O5 C13 1.260 . S
O6 Zn1 1.996 . S
O6 C13 1.257 . S
C7 O2 1.254 . S
C7 O3 1.269 . S
C8 O9 1.216 1_655 S
C8 O10 1.285 . S
O9 Zn1 1.943 . S
O9 C8 1.216 1_455 S
O10 Zn0 2.067 1_655 S
O10 C8 1.285 . S
C11 O4 1.262 . S
C11 O12 1.232 . S
O12 C11 1.232 . S
C13 O5 1.260 . S
C13 O6 1.257 . S
Zn14 O17 2.031 1_455 S
Zn14 O19 2.049 . S
Zn14 O24 2.067 . S
Zn15 O16 1.962 . S
Zn15 O18 1.986 . S
Zn15 O20 1.996 . S
Zn15 O23 1.943 . S
O16 Zn15 1.962 . S
O16 C21 1.254 1_455 S
O17 Zn14 2.031 1_655 S
O17 C21 1.269 . S
O18 Zn15 1.986 . S
O18 C25 1.262 . S
O19 Zn14 2.049 . S
O19 C27 1.260 . S
O20 Zn15 1.996 . S
O20 C27 1.257 . S
C21 O16 1.254 1_655 S
C21 O17 1.269 . S
C22 O23 1.249 . S
C22 O24 1.270 . S
O23 Zn15 1.943 . S
O23 C22 1.249 . S
O24 Zn14 2.067 . S
O24 C22 1.270 . S
C25 O18 1.262 . S
C25 O26 1.232 . S
O26 C25 1.232 . S
C27 O19 1.260 . S
C27 O20 1.257 . S
Zn28 O31 2.031 . S
Zn28 O33 2.049 . S
Zn28 O38 2.067 . S
Zn29 O30 1.962 . S
Zn29 O32 1.986 . S
Zn29 O34 1.996 . S
Zn29 O37 1.943 . S
O30 Zn29 1.962 . S
O30 C35 1.254 . S
O31 Zn28 2.031 . S
O31 C35 1.269 . S
O32 Zn29 1.986 . S
O32 C39 1.262 . S
O33 Zn28 2.049 . S
O33 C41 1.260 . S
O34 Zn29 1.996 . S
O34 C41 1.257 . S
C35 O30 1.254 . S
C35 O31 1.269 . S
C36 O37 1.249 . S
C36 O38 1.270 . S
O37 Zn29 1.943 . S
O37 C36 1.249 . S
O38 Zn28 2.067 . S
O38 C36 1.270 . S
C39 O32 1.262 . S
C39 O40 1.232 . S
O40 C39 1.232 . S
C41 O33 1.260 . S
C41 O34 1.257 . S
Zn42 O45 2.031 . S
Zn42 O47 2.049 . S
Zn42 O52 2.067 . S
Zn43 O44 1.962 . S
Zn43 O46 1.986 . S
Zn43 O48 1.996 . S
Zn43 O51 1.943 . S
O44 Zn43 1.962 . S
O44 C49 1.254 . S
O45 Zn42 2.031 . S
O45 C49 1.269 . S
O46 Zn43 1.986 . S
O46 C53 1.262 . S
O47 Zn42 2.049 . S
O47 C55 1.260 . S
O48 Zn43 1.996 . S
O48 C55 1.257 . S
C49 O44 1.254 . S
C49 O45 1.269 . S
C50 O51 1.249 . S
C50 O52 1.270 . S
O51 Zn43 1.943 . S
O51 C50 1.249 . S
O52 Zn42 2.067 . S
O52 C50 1.270 . S
C53 O46 1.262 . S
C53 O54 1.232 . S
O54 C53 1.232 . S
C55 O47 1.260 . S
C55 O48 1.257 . S
Zn56 O59 2.031 . S
Zn56 O61 2.049 . S
Zn56 O66 2.067 . S
Zn57 O58 1.962 . S
Zn57 O60 1.986 . S
Zn57 O62 1.996 . S
Zn57 O65 1.943 . S
O58 Zn57 1.962 . S
O58 C63 1.254 . S
O59 Zn56 2.031 . S
O59 C63 1.269 . S
O60 Zn57 1.986 . S
O60 C67 1.262 . S
O61 Zn56 2.049 . S
O61 C69 1.260 . S
O62 Zn57 1.996 . S
O62 C69 1.257 . S
C63 O58 1.254 . S
C63 O59 1.269 . S
C64 O65 1.249 . S
C64 O66 1.270 . S
O65 Zn57 1.943 . S
O65 C64 1.249 . S
O66 Zn56 2.067 . S
O66 C64 1.270 . S
C67 O60 1.262 . S
C67 O68 1.232 . S
O68 C67 1.232 . S
C69 O61 1.260 . S
C69 O62 1.257 . S
Zn70 O73 2.031 . S
Zn70 O75 2.049 . S
Zn70 O80 2.067 . S
Zn71 O72 1.962 . S
Zn71 O74 1.986 . S
Zn71 O76 1.996 . S
Zn71 O79 1.943 . S
O72 Zn71 1.962 . S
O72 C77 1.254 . S
O73 Zn70 2.031 . S
O73 C77 1.269 . S
O74 Zn71 1.986 . S
O74 C81 1.262 . S
O75 Zn70 2.049 . S
O75 C83 1.260 . S
O76 Zn71 1.996 . S
O76 C83 1.257 . S
C77 O72 1.254 . S
C77 O73 1.269 . S
C78 O79 1.249 . S
C78 O80 1.270 . S
O79 Zn71 1.943 . S
O79 C78 1.249 . S
O80 Zn70 2.067 . S
O80 C78 1.270 . S
C81 O74 1.262 . S
C81 O82 1.232 . S
O82 C81 1.232 . S
C83 O75 1.260 . S
C83 O76 1.257 . S
Zn84 O87 2.031 . S
Zn84 O89 2.049 . S
Zn84 O94 2.067 . S
Zn85 O86 1.962 . S
Zn85 O88 1.986 . S
Zn85 O90 1.996 . S
Zn85 O93 1.943 . S
O86 Zn85 1.962 . S
O86 C91 1.254 . S
O87 Zn84 2.031 . S
O87 C91 1.269 . S
O88 Zn85 1.986 . S
O88 C95 1.262 . S
O89 Zn84 2.049 . S
O89 C97 1.260 . S
O90 Zn85 1.996 . S
O90 C97 1.257 . S
C91 O86 1.254 . S
C91 O87 1.269 . S
C92 O93 1.249 . S
C92 O94 1.270 . S
O93 Zn85 1.943 . S
O93 C92 1.249 . S
O94 Zn84 2.067 . S
O94 C92 1.270 . S
C95 O88 1.262 . S
C95 O96 1.232 . S
O96 C95 1.232 . S
C97 O89 1.260 . S
C97 O90 1.257 . S
Zn98 O101 2.031 . S
Zn98 O103 2.049 . S
Zn98 O108 2.067 . S
Zn99 O100 1.962 . S
Zn99 O102 1.986 . S
Zn99 O104 2.005 . S
Zn99 O107 1.943 1_455 S
O100 Zn99 1.962 . S
O100 C105 1.254 . S
O101 Zn98 2.031 . S
O101 C105 1.269 1_655 S
O102 Zn99 1.986 . S
O102 C109 1.262 . S
O103 Zn98 2.049 . S
O103 C111 1.260 . S
O104 Zn99 2.005 . S
O104 C111 1.239 1_455 S
C105 O100 1.254 . S
C105 O101 1.269 1_455 S
C106 O107 1.249 . S
C106 O108 1.270 . S
O107 Zn99 1.943 1_655 S
O107 C106 1.249 . S
O108 Zn98 2.067 . S
O108 C106 1.270 . S
C109 O102 1.262 . S
C109 O110 1.232 . S
O110 C109 1.232 . S
C111 O103 1.260 . S
C111 O104 1.239 1_655 S
Zn112 O115 2.031 . S
Zn112 O117 2.049 . S
Zn112 O122 2.067 . S
Zn113 O114 1.962 . S
Zn113 O116 1.986 . S
Zn113 O118 1.996 . S
Zn113 O121 1.943 1_545 S
O114 Zn113 1.962 . S
O114 C119 1.254 . S
O115 Zn112 2.031 . S
O115 C119 1.269 1_565 S
O116 Zn113 1.986 . S
O116 C123 1.262 . S
O117 Zn112 2.049 . S
O117 C125 1.260 . S
O118 Zn113 1.996 . S
O118 C125 1.257 1_545 S
C119 O114 1.254 . S
C119 O115 1.269 1_545 S
C120 O121 1.249 . S
C120 O122 1.270 . S
O121 Zn113 1.943 1_565 S
O121 C120 1.249 . S
O122 Zn112 2.067 . S
O122 C120 1.270 . S
C123 O116 1.262 . S
C123 O124 1.232 . S
O124 C123 1.232 . S
C125 O117 1.260 . S
C125 O118 1.257 1_565 S
Zn126 O129 2.031 . S
Zn126 O131 2.049 . S
Zn126 O136 2.067 . S
Zn127 O128 1.962 . S
Zn127 O130 1.986 . S
Zn127 O132 1.996 . S
Zn127 O135 1.943 . S
O128 Zn127 1.962 . S
O128 C133 1.254 . S
O129 Zn126 2.031 . S
O129 C133 1.269 . S
O130 Zn127 1.986 . S
O130 C137 1.262 . S
O131 Zn126 2.049 . S
O131 C139 1.260 . S
O132 Zn127 1.996 . S
O132 C139 1.257 . S
C133 O128 1.254 . S
C133 O129 1.269 . S
C134 O135 1.249 . S
C134 O136 1.270 . S
O135 Zn127 1.943 . S
O135 C134 1.249 . S
O136 Zn126 2.067 . S
O136 C134 1.270 . S
C137 O130 1.262 . S
C137 O138 1.232 . S
O138 C137 1.232 . S
C139 O131 1.260 . S
C139 O132 1.257 . S
Zn140 O143 2.031 . S
Zn140 O145 2.049 . S
Zn140 O150 2.067 . S
Zn141 O142 1.962 . S
Zn141 O144 1.986 . S
Zn141 O146 1.996 . S
Zn141 O149 1.943 . S
O142 Zn141 1.962 . S
O142 C147 1.254 . S
O143 Zn140 2.031 . S
O143 C147 1.269 . S
O144 Zn141 1.986 . S
O144 C151 1.262 . S
O145 Zn140 2.049 . S
O145 C153 1.260 . S
O146 Zn141 1.996 . S
O146 C153 1.257 . S
C147 O142 1.254 . S
C147 O143 1.269 . S
C148 O149 1.249 . S
C148 O150 1.270 . S
O149 Zn141 1.943 . S
O149 C148 1.249 . S
O150 Zn140 2.067 . S
O150 C148 1.270 . S
C151 O144 1.262 . S
C151 O152 1.232 . S
O152 C151 1.232 . S
C153 O145 1.260 . S
C153 O146 1.257 . S
Zn154 O157 2.031 1_554 S
Zn154 O159 2.049 . S
Zn154 O164 2.067 . S
Zn155 O156 1.962 . S
Zn155 O158 1.986 1_556 S
Zn155 O160 1.996 1_556 S
Zn155 O163 1.943 1_556 S
O156 Zn155 1.962 . S
O156 C161 1.254 . S
O157 Zn154 2.031 1_556 S
O157 C161 1.269 . S
O158 Zn155 1.986 1_554 S
O158 C165 1.262 1_554 S
O159 Zn154 2.049 . S
O159 C167 1.260 . S
O160 Zn155 1.996 1_554 S
O160 C167 1.257 . S
C161 O156 1.254 . S
C161 O157 1.269 . S
C162 O163 1.249 . S
C162 O164 1.270 . S
O163 Zn155 1.943 1_554 S
O163 C162 1.249 . S
O164 Zn154 2.067 . S
O164 C162 1.270 . S
C165 O158 1.262 1_556 S
C165 O166 1.232 . S
O166 C165 1.232 . S
C167 O159 1.260 . S
C167 O160 1.257 . S
Zn168 O171 2.031 . S
Zn168 O173 2.049 . S
Zn168 O178 2.067 . S
Zn169 O170 1.962 . S
Zn169 O172 1.986 . S
Zn169 O174 1.996 . S
Zn169 O177 1.943 . S
O170 Zn169 1.962 . S
O170 C175 1.254 1_554 S
O171 Zn168 2.031 . S
O171 C175 1.269 1_554 S
O172 Zn169 1.986 . S
O172 C179 1.262 . S
O173 Zn168 2.049 . S
O173 C181 1.260 . S
O174 Zn169 1.996 . S
O174 C181 1.257 . S
C175 O170 1.254 1_556 S
C175 O171 1.269 1_556 S
C176 O177 1.249 . S
C176 O178 1.270 . S
O177 Zn169 1.943 . S
O177 C176 1.249 . S
O178 Zn168 2.067 . S
O178 C176 1.270 . S
C179 O172 1.262 . S
C179 O180 1.232 . S
O180 C179 1.232 . S
C181 O173 1.260 . S
C181 O174 1.257 . S
Zn182 O185 2.031 . S
Zn182 O187 2.049 . S
Zn182 O192 2.067 . S
Zn183 O184 1.962 . S
Zn183 O186 1.986 . S
Zn183 O188 1.996 . S
Zn183 O191 1.943 . S
O184 Zn183 1.962 . S
O184 C189 1.254 . S
O185 Zn182 2.031 . S
O185 C189 1.269 . S
O186 Zn183 1.986 . S
O186 C193 1.262 . S
O187 Zn182 2.049 . S
O187 C195 1.260 . S
O188 Zn183 1.996 . S
O188 C195 1.257 . S
C189 O184 1.254 . S
C189 O185 1.269 . S
C190 O191 1.249 . S
C190 O192 1.270 . S
O191 Zn183 1.943 . S
O191 C190 1.249 . S
O192 Zn182 2.067 . S
O192 C190 1.270 . S
C193 O186 1.262 . S
C193 O194 1.232 . S
O194 C193 1.232 . S
C195 O187 1.260 . S
C195 O188 1.257 . S
Zn196 O199 2.031 . S
Zn196 O201 2.049 . S
Zn196 O206 2.067 . S
Zn197 O198 1.962 . S
Zn197 O200 1.986 . S
Zn197 O202 1.996 . S
Zn197 O205 1.943 . S
O198 Zn197 1.962 . S
O198 C203 1.254 . S
O199 Zn196 2.031 . S
O199 C203 1.269 . S
O200 Zn197 1.986 . S
O200 C207 1.262 . S
O201 Zn196 2.049 . S
O201 C209 1.260 . S
O202 Zn197 1.996 . S
O202 C209 1.257 . S
C203 O198 1.254 . S
C203 O199 1.269 . S
C204 O205 1.249 . S
C204 O206 1.270 . S
O205 Zn197 1.943 . S
O205 C204 1.249 . S
O206 Zn196 2.067 . S
O206 C204 1.270 . S
C207 O200 1.262 . S
C207 O208 1.232 . S
O208 C207 1.232 . S
C209 O201 1.260 . S
C209 O202 1.257 . S
Zn210 O213 2.031 . S
Zn210 O215 2.049 . S
Zn210 O220 2.067 . S
Zn211 O212 1.962 . S
Zn211 O214 1.986 . S
Zn211 O216 1.996 . S
Zn211 O219 1.943 . S
O212 Zn211 1.962 . S
O212 C217 1.254 . S
O213 Zn210 2.031 . S
O213 C217 1.269 . S
O214 Zn211 1.986 . S
O214 C221 1.262 . S
O215 Zn210 2.049 . S
O215 C223 1.260 . S
O216 Zn211 1.996 . S
O216 C223 1.257 . S
C217 O212 1.254 . S
C217 O213 1.269 . S
C218 O219 1.249 . S
C218 O220 1.270 . S
O219 Zn211 1.943 . S
O219 C218 1.249 . S
O220 Zn210 2.067 . S
O220 C218 1.270 . S
C221 O214 1.262 . S
C221 O222 1.232 . S
O222 C221 1.232 . S
C223 O215 1.260 . S
C223 O216 1.257 . S
Zn224 O227 2.031 . S
Zn224 O229 2.049 . S
Zn224 O234 2.067 1_545 S
Zn225 O226 1.962 . S
Zn225 O228 1.986 . S
Zn225 O230 1.996 . S
Zn225 O233 1.943 . S
O226 Zn225 1.962 . S
O226 C231 1.254 . S
O227 Zn224 2.031 . S
O227 C231 1.269 . S
O228 Zn225 1.986 . S
O228 C235 1.262 . S
O229 Zn224 2.049 . S
O229 C237 1.260 . S
O230 Zn225 1.996 . S
O230 C237 1.257 . S
C231 O226 1.254 . S
C231 O227 1.269 . S
C232 O233 1.249 1_565 S
C232 O234 1.270 . S
O233 Zn225 1.943 . S
O233 C232 1.249 1_545 S
O234 Zn224 2.067 1_565 S
O234 C232 1.270 . S
C235 O228 1.262 . S
C235 O236 1.232 . S
O236 C235 1.232 . S
C237 O229 1.260 . S
C237 O230 1.257 . S
Zn238 O241 2.031 . S
Zn238 O243 2.049 . S
Zn238 O248 2.067 . S
Zn239 O240 1.962 . S
Zn239 O242 1.986 . S
Zn239 O244 1.996 . S
Zn239 O247 1.943 . S
O240 Zn239 1.962 . S
O240 C245 1.254 . S
O241 Zn238 2.031 . S
O241 C245 1.269 . S
O242 Zn239 1.986 . S
O242 C249 1.262 . S
O243 Zn238 2.049 . S
O243 C251 1.260 . S
O244 Zn239 1.996 . S
O244 C251 1.257 . S
C245 O240 1.254 . S
C245 O241 1.269 . S
C246 O247 1.249 . S
C246 O248 1.270 . S
O247 Zn239 1.943 . S
O247 C246 1.249 . S
O248 Zn238 2.067 . S
O248 C246 1.270 . S
C249 O242 1.262 . S
C249 O250 1.232 . S
O250 C249 1.232 . S
C251 O243 1.260 . S
C251 O244 1.257 . S
Zn252 O255 2.031 . S
Zn252 O257 2.049 . S
Zn252 O262 2.067 . S
Zn253 O254 1.962 . S
Zn253 O256 1.986 . S
Zn253 O258 1.996 . S
Zn253 O261 1.943 . S
O254 Zn253 1.962 . S
O254 C259 1.254 . S
O255 Zn252 2.031 . S
O255 C259 1.269 . S
O256 Zn253 1.986 . S
O256 C263 1.262 . S
O257 Zn252 2.049 . S
O257 C265 1.260 . S
O258 Zn253 1.996 . S
O258 C265 1.257 . S
C259 O254 1.254 . S
C259 O255 1.269 . S
C260 O261 1.249 . S
C260 O262 1.270 . S
O261 Zn253 1.943 . S
O261 C260 1.249 . S
O262 Zn252 2.067 . S
O262 C260 1.270 . S
C263 O256 1.262 . S
C263 O264 1.232 . S
O264 C263 1.232 . S
C265 O257 1.260 . S
C265 O258 1.257 . S
Zn266 O269 2.031 . S
Zn266 O271 2.049 . S
Zn266 O276 2.067 . S
Zn267 O268 1.962 . S
Zn267 O270 1.986 . S
Zn267 O272 1.996 . S
Zn267 O275 1.943 . S
O268 Zn267 1.962 . S
O268 C273 1.254 . S
O269 Zn266 2.031 . S
O269 C273 1.269 . S
O270 Zn267 1.986 . S
O270 C277 1.262 . S
O271 Zn266 2.049 . S
O271 C279 1.260 . S
O272 Zn267 1.996 . S
O272 C279 1.257 . S
C273 O268 1.254 . S
C273 O269 1.269 . S
C274 O275 1.249 . S
C274 O276 1.270 . S
O275 Zn267 1.943 . S
O275 C274 1.249 . S
O276 Zn266 2.067 . S
O276 C274 1.270 . S
C277 O270 1.262 . S
C277 O278 1.232 . S
O278 C277 1.232 . S
C279 O271 1.260 . S
C279 O272 1.257 . S
Zn280 O283 2.031 1_554 S
Zn280 O285 2.049 . S
Zn280 O290 2.067 . S
Zn281 O282 1.987 . S
Zn281 O284 1.986 . S
Zn281 O286 1.996 . S
Zn281 O289 1.943 . S
O282 Zn281 1.987 . S
O282 C287 1.243 1_554 S
O283 Zn280 2.031 1_556 S
O283 C287 1.269 . S
O284 Zn281 1.986 . S
O284 C291 1.262 . S
O285 Zn280 2.049 . S
O285 C293 1.260 . S
O286 Zn281 1.996 . S
O286 C293 1.257 . S
C287 O282 1.243 1_556 S
C287 O283 1.269 . S
C288 O289 1.249 . S
C288 O290 1.270 . S
O289 Zn281 1.943 . S
O289 C288 1.249 . S
O290 Zn280 2.067 . S
O290 C288 1.270 . S
C291 O284 1.262 . S
C291 O292 1.232 . S
O292 C291 1.232 . S
C293 O285 1.260 . S
C293 O286 1.257 . S
Zn294 O297 2.031 . S
Zn294 O299 2.049 . S
Zn294 O304 2.067 . S
Zn295 O296 1.962 . S
Zn295 O298 1.986 . S
Zn295 O300 1.996 . S
Zn295 O303 1.943 . S
O296 Zn295 1.962 . S
O296 C301 1.254 . S
O297 Zn294 2.031 . S
O297 C301 1.269 . S
O298 Zn295 1.986 . S
O298 C305 1.262 . S
O299 Zn294 2.049 . S
O299 C307 1.260 . S
O300 Zn295 1.996 . S
O300 C307 1.257 . S
C301 O296 1.254 . S
C301 O297 1.269 . S
C302 O303 1.249 . S
C302 O304 1.270 . S
O303 Zn295 1.943 . S
O303 C302 1.249 . S
O304 Zn294 2.067 . S
O304 C302 1.270 . S
C305 O298 1.262 . S
C305 O306 1.232 . S
O306 C305 1.232 . S
C307 O299 1.260 . S
C307 O300 1.257 . S
Zn308 O311 2.031 . S
Zn308 O313 2.049 . S
Zn308 O318 2.067 . S
Zn309 O310 1.962 . S
Zn309 O312 1.986 . S
Zn309 O314 1.996 . S
Zn309 O317 1.943 . S
O310 Zn309 1.962 . S
O310 C315 1.254 . S
O311 Zn308 2.031 . S
O311 C315 1.269 . S
O312 Zn309 1.986 . S
O312 C319 1.262 . S
O313 Zn308 2.049 . S
O313 C321 1.260 . S
O314 Zn309 1.996 . S
O314 C321 1.257 . S
C315 O310 1.254 . S
C315 O311 1.269 . S
C316 O317 1.249 . S
C316 O318 1.270 . S
O317 Zn309 1.943 . S
O317 C316 1.249 . S
O318 Zn308 2.067 . S
O318 C316 1.270 . S
C319 O312 1.262 . S
C319 O320 1.232 . S
O320 C319 1.232 . S
C321 O313 1.260 . S
C321 O314 1.257 . S
Zn322 O325 2.031 . S
Zn322 O327 2.049 . S
Zn322 O332 2.067 . S
Zn323 O324 1.962 . S
Zn323 O326 1.986 . S
Zn323 O328 1.996 . S
Zn323 O331 1.943 . S
O324 Zn323 1.962 . S
O324 C329 1.254 . S
O325 Zn322 2.031 . S
O325 C329 1.269 . S
O326 Zn323 1.986 . S
O326 C333 1.262 . S
O327 Zn322 2.049 . S
O327 C335 1.260 . S
O328 Zn323 1.996 . S
O328 C335 1.257 . S
C329 O324 1.254 . S
C329 O325 1.269 . S
C330 O331 1.249 . S
C330 O332 1.270 . S
O331 Zn323 1.943 . S
O331 C330 1.249 . S
O332 Zn322 2.067 . S
O332 C330 1.270 . S
C333 O326 1.262 . S
C333 O334 1.232 . S
O334 C333 1.232 . S
C335 O327 1.260 . S
C335 O328 1.257 . S
Dy336 O339 2.307 . S
Dy336 O341 2.395 . S
Dy336 O342 2.379 . S
Dy336 O344 2.339 . S
Dy336 O346 2.298 . S
Dy336 O350 2.275 . S
Dy336 C358 2.738 . S
Dy337 O340 2.293 1_655 S
Dy337 O343 2.260 1_655 S
Dy337 O345 2.304 1_655 S
Dy337 O347 2.429 . S
Dy337 O348 2.410 1_554 S
Dy337 O351 2.321 1_654 S
Dy337 C367 2.775 . S
C338 O350 1.254 1_556 S
C338 O351 1.257 . S
O339 Dy336 2.307 . S
O339 C349 1.266 . S
O340 Dy337 2.293 1_455 S
O340 C349 1.236 . S
O341 Dy336 2.395 . S
O341 C358 1.255 . S
O342 Dy336 2.379 . S
O342 C358 1.249 . S
O343 Dy337 2.260 1_455 S
O343 C359 1.254 . S
O344 Dy336 2.339 . S
O344 C359 1.257 . S
O345 Dy337 2.304 1_455 S
O345 C360 1.255 1_545 S
O346 Dy336 2.298 . S
O346 C360 1.236 1_545 S
O347 Dy337 2.429 . S
O347 C367 1.255 . S
O348 Dy337 2.410 1_556 S
O348 C367 1.249 1_556 S
C349 O339 1.266 . S
C349 O340 1.236 . S
O350 Dy336 2.275 . S
O350 C338 1.254 1_554 S
O351 Dy337 2.321 1_456 S
O351 C338 1.257 . S
C352 C355 1.344 . S
C352 C356 1.328 . S
C352 C358 1.516 . S
C353 C354 1.304 . S
C353 C357 1.323 . S
C354 C353 1.304 . S
C354 C355 1.371 . S
C354 H368 0.933 1_545 S
C355 C352 1.344 . S
C355 C354 1.371 . S
C355 H369 0.931 . S
C356 C352 1.328 . S
C356 C357 1.433 . S
C356 H370 0.931 . S
C357 C353 1.323 . S
C357 C356 1.433 . S
C357 H371 0.933 . S
C358 Dy336 2.738 . S
C358 O341 1.255 . S
C358 O342 1.249 . S
C358 C352 1.516 . S
C359 O343 1.254 . S
C359 O344 1.257 . S
C360 O345 1.255 1_565 S
C360 O346 1.236 1_565 S
C361 C364 1.344 . S
C361 C365 1.328 1_554 S
C361 C367 1.516 . S
C362 C363 1.304 . S
C362 C366 1.323 1_554 S
C363 C362 1.304 . S
C363 C364 1.371 . S
C363 H372 0.930 . S
C364 C361 1.344 . S
C364 C363 1.371 . S
C364 H373 0.931 . S
C365 C361 1.328 1_556 S
C365 C366 1.433 . S
C365 H374 0.931 . S
C366 C362 1.323 1_556 S
C366 C365 1.433 . S
C366 H375 0.933 . S
C367 Dy337 2.775 . S
C367 O347 1.255 . S
C367 O348 1.249 1_554 S
C367 C361 1.516 . S
H368 C354 0.933 1_565 S
H369 C355 0.931 . S
H370 C356 0.931 . S
H371 C357 0.933 . S
H372 C363 0.930 . S
H373 C364 0.931 . S
H374 C365 0.931 . S
H375 C366 0.933 . S
Dy376 O379 2.307 . S
Dy376 O381 2.395 . S
Dy376 O382 2.379 . S
Dy376 O384 2.339 . S
Dy376 O386 2.298 . S
Dy376 O390 2.275 . S
Dy376 C398 2.738 . S
Dy377 O380 2.298 . S
Dy377 O383 2.275 . S
Dy377 O385 2.307 . S
Dy377 O387 2.395 . S
Dy377 O388 2.379 . S
Dy377 O391 2.339 . S
Dy377 C407 2.738 . S
C378 O390 1.254 . S
C378 O391 1.257 . S
O379 Dy376 2.307 . S
O379 C389 1.266 . S
O380 Dy377 2.298 . S
O380 C389 1.236 . S
O381 Dy376 2.395 . S
O381 C398 1.255 . S
O382 Dy376 2.379 . S
O382 C398 1.249 . S
O383 Dy377 2.275 . S
O383 C399 1.254 . S
O384 Dy376 2.339 . S
O384 C399 1.257 . S
O385 Dy377 2.307 . S
O385 C400 1.266 . S
O386 Dy376 2.298 . S
O386 C400 1.236 . S
O387 Dy377 2.395 . S
O387 C407 1.255 . S
O388 Dy377 2.379 . S
O388 C407 1.249 . S
C389 O379 1.266 . S
C389 O380 1.236 . S
O390 Dy376 2.275 . S
O390 C378 1.254 . S
O391 Dy377 2.339 . S
O391 C378 1.257 . S
C392 C395 1.344 . S
C392 C396 1.328 . S
C392 C398 1.516 . S
C393 C394 1.304 . S
C393 C397 1.323 . S
C394 C393 1.304 . S
C394 C395 1.371 . S
C394 H408 0.930 . S
C395 C392 1.344 . S
C395 C394 1.371 . S
C395 H409 0.931 . S
C396 C392 1.328 . S
C396 C397 1.433 . S
C396 H410 0.931 . S
C397 C393 1.323 . S
C397 C396 1.433 . S
C397 H411 0.933 . S
C398 Dy376 2.738 . S
C398 O381 1.255 . S
C398 O382 1.249 . S
C398 C392 1.516 . S
C399 O383 1.254 . S
C399 O384 1.257 . S
C400 O385 1.266 . S
C400 O386 1.236 . S
C401 C404 1.344 . S
C401 C405 1.328 . S
C401 C407 1.516 . S
C402 C403 1.304 . S
C402 C406 1.323 . S
C403 C402 1.304 . S
C403 C404 1.371 . S
C403 H412 0.930 . S
C404 C401 1.344 . S
C404 C403 1.371 . S
C404 H413 0.931 . S
C405 C401 1.328 . S
C405 C406 1.433 . S
C405 H414 0.931 . S
C406 C402 1.323 . S
C406 C405 1.433 . S
C406 H415 0.933 . S
C407 Dy377 2.738 . S
C407 O387 1.255 . S
C407 O388 1.249 . S
C407 C401 1.516 . S
H408 C394 0.930 . S
H409 C395 0.931 . S
H410 C396 0.931 . S
H411 C397 0.933 . S
H412 C403 0.930 . S
H413 C404 0.931 . S
H414 C405 0.931 . S
H415 C406 0.933 . S
Dy416 O419 2.307 1_545 S
Dy416 O421 2.395 . S
Dy416 O422 2.379 . S
Dy416 O424 2.339 . S
Dy416 O426 2.298 . S
Dy416 O430 2.275 . S
Dy416 C438 2.738 . S
Dy417 O420 2.340 . S
Dy417 O423 2.275 . S
Dy417 O425 2.307 . S
Dy417 O427 2.395 . S
Dy417 O428 2.379 . S
Dy417 O431 2.339 . S
Dy417 C447 2.738 . S
C418 O430 1.254 . S
C418 O431 1.257 . S
O419 Dy416 2.307 1_565 S
O419 C429 1.266 . S
O420 Dy417 2.340 . S
O420 C429 1.218 1_545 S
O421 Dy416 2.395 . S
O421 C438 1.255 . S
O422 Dy416 2.379 . S
O422 C438 1.249 . S
O423 Dy417 2.275 . S
O423 C439 1.254 . S
O424 Dy416 2.339 . S
O424 C439 1.257 . S
O425 Dy417 2.307 . S
O425 C440 1.266 . S
O426 Dy416 2.298 . S
O426 C440 1.236 . S
O427 Dy417 2.395 . S
O427 C447 1.255 . S
O428 Dy417 2.379 . S
O428 C447 1.249 . S
C429 O419 1.266 . S
C429 O420 1.218 1_565 S
O430 Dy416 2.275 . S
O430 C418 1.254 . S
O431 Dy417 2.339 . S
O431 C418 1.257 . S
C432 C435 1.344 . S
C432 C436 1.328 . S
C432 C438 1.516 . S
C433 C434 1.304 . S
C433 C437 1.323 . S
C434 C433 1.304 . S
C434 C435 1.371 . S
C434 H448 0.930 . S
C435 C432 1.344 . S
C435 C434 1.371 . S
C435 H449 0.931 . S
C436 C432 1.328 . S
C436 C437 1.433 . S
C436 H450 0.931 . S
C437 C433 1.323 . S
C437 C436 1.433 . S
C437 H451 0.933 . S
C438 Dy416 2.738 . S
C438 O421 1.255 . S
C438 O422 1.249 . S
C438 C432 1.516 . S
C439 O423 1.254 . S
C439 O424 1.257 . S
C440 O425 1.266 . S
C440 O426 1.236 . S
C441 C444 1.344 1_545 S
C441 C445 1.332 . S
C441 C447 1.516 . S
C442 C443 1.304 . S
C442 C446 1.323 . S
C443 C442 1.304 . S
C443 C444 1.371 . S
C443 H452 0.930 . S
C444 C441 1.344 1_565 S
C444 C443 1.371 . S
C444 H453 0.931 . S
C445 C441 1.332 . S
C445 C446 1.408 1_545 S
C445 H454 0.953 . S
C446 C442 1.323 . S
C446 C445 1.408 1_565 S
C446 H455 0.933 . S
C447 Dy417 2.738 . S
C447 O427 1.255 . S
C447 O428 1.249 . S
C447 C441 1.516 . S
H448 C434 0.930 . S
H449 C435 0.931 . S
H450 C436 0.931 . S
H451 C437 0.933 . S
H452 C443 0.930 . S
H453 C444 0.931 . S
H454 C445 0.953 . S
H455 C446 0.933 . S
Dy456 O459 2.307 . S
Dy456 O461 2.395 . S
Dy456 O462 2.379 . S
Dy456 O464 2.339 . S
Dy456 O466 2.298 . S
Dy456 O470 2.275 . S
Dy456 C478 2.738 . S
Dy457 O460 2.298 . S
Dy457 O463 2.275 . S
Dy457 O465 2.307 . S
Dy457 O467 2.395 . S
Dy457 O468 2.379 . S
Dy457 O471 2.339 . S
Dy457 C487 2.738 . S
C458 O470 1.254 . S
C458 O471 1.257 . S
O459 Dy456 2.307 . S
O459 C469 1.266 . S
O460 Dy457 2.298 . S
O460 C469 1.236 . S
O461 Dy456 2.395 . S
O461 C478 1.255 . S
O462 Dy456 2.379 . S
O462 C478 1.249 . S
O463 Dy457 2.275 . S
O463 C479 1.254 . S
O464 Dy456 2.339 . S
O464 C479 1.257 . S
O465 Dy457 2.307 . S
O465 C480 1.266 . S
O466 Dy456 2.298 . S
O466 C480 1.236 . S
O467 Dy457 2.395 . S
O467 C487 1.255 . S
O468 Dy457 2.379 . S
O468 C487 1.249 . S
C469 O459 1.266 . S
C469 O460 1.236 . S
O470 Dy456 2.275 . S
O470 C458 1.254 . S
O471 Dy457 2.339 . S
O471 C458 1.257 . S
C472 C475 1.344 . S
C472 C476 1.328 . S
C472 C478 1.516 . S
C473 C474 1.304 . S
C473 C477 1.323 . S
C474 C473 1.304 . S
C474 C475 1.371 . S
C474 H488 0.930 . S
C475 C472 1.344 . S
C475 C474 1.371 . S
C475 H489 0.931 . S
C476 C472 1.328 . S
C476 C477 1.433 . S
C476 H490 0.931 . S
C477 C473 1.323 . S
C477 C476 1.433 . S
C477 H491 0.933 . S
C478 Dy456 2.738 . S
C478 O461 1.255 . S
C478 O462 1.249 . S
C478 C472 1.516 . S
C479 O463 1.254 . S
C479 O464 1.257 . S
C480 O465 1.266 . S
C480 O466 1.236 . S
C481 C484 1.344 . S
C481 C485 1.328 . S
C481 C487 1.516 . S
C482 C483 1.304 . S
C482 C486 1.323 . S
C483 C482 1.304 . S
C483 C484 1.371 . S
C483 H492 0.930 . S
C484 C481 1.344 . S
C484 C483 1.371 . S
C484 H493 0.931 . S
C485 C481 1.328 . S
C485 C486 1.433 . S
C485 H494 0.931 . S
C486 C482 1.323 . S
C486 C485 1.433 . S
C486 H495 0.933 . S
C487 Dy457 2.738 . S
C487 O467 1.255 . S
C487 O468 1.249 . S
C487 C481 1.516 . S
H488 C474 0.930 . S
H489 C475 0.931 . S
H490 C476 0.931 . S
H491 C477 0.933 . S
H492 C483 0.930 . S
H493 C484 0.931 . S
H494 C485 0.931 . S
H495 C486 0.933 . S
Dy496 O499 2.307 . S
Dy496 O501 2.395 1_545 S
Dy496 O502 2.379 1_545 S
Dy496 O504 2.339 . S
Dy496 O506 2.298 . S
Dy496 O510 2.275 . S
Dy496 C518 2.738 1_545 S
Dy497 O500 2.298 . S
Dy497 O503 2.275 . S
Dy497 O505 2.307 . S
Dy497 O507 2.395 . S
Dy497 O508 2.381 . S
Dy497 O511 2.339 1_455 S
Dy497 C527 2.738 . S
C498 O510 1.254 1_655 S
C498 O511 1.257 . S
O499 Dy496 2.307 . S
O499 C509 1.266 . S
O500 Dy497 2.298 . S
O500 C509 1.236 . S
O501 Dy496 2.395 1_565 S
O501 C518 1.255 . S
O502 Dy496 2.379 1_565 S
O502 C518 1.249 . S
O503 Dy497 2.275 . S
O503 C519 1.254 . S
O504 Dy496 2.339 . S
O504 C519 1.257 . S
O505 Dy497 2.307 . S
O505 C520 1.266 . S
O506 Dy496 2.298 . S
O506 C520 1.236 . S
O507 Dy497 2.395 . S
O507 C527 1.255 . S
O508 Dy497 2.381 . S
O508 C527 1.251 . S
C509 O499 1.266 . S
C509 O500 1.236 . S
O510 Dy496 2.275 . S
O510 C498 1.254 1_455 S
O511 Dy497 2.339 1_655 S
O511 C498 1.257 . S
C512 C515 1.344 . S
C512 C516 1.328 . S
C512 C518 1.516 . S
C513 C514 1.304 . S
C513 C517 1.323 . S
C514 C513 1.304 . S
C514 C515 1.371 . S
C514 H528 0.930 . S
C515 C512 1.344 . S
C515 C514 1.371 . S
C515 H529 0.931 . S
C516 C512 1.328 . S
C516 C517 1.433 . S
C516 H530 0.931 . S
C517 C513 1.323 . S
C517 C516 1.433 . S
C517 H531 0.933 . S
C518 Dy496 2.738 1_565 S
C518 O501 1.255 . S
C518 O502 1.249 . S
C518 C512 1.516 . S
C519 O503 1.254 . S
C519 O504 1.257 . S
C520 O505 1.266 . S
C520 O506 1.236 . S
C521 C524 1.344 . S
C521 C525 1.328 1_455 S
C521 C527 1.516 . S
C522 C523 1.304 . S
C522 C526 1.323 1_455 S
C523 C522 1.304 . S
C523 C524 1.371 . S
C523 H532 0.930 . S
C524 C521 1.344 . S
C524 C523 1.371 . S
C524 H533 0.931 . S
C525 C521 1.328 1_655 S
C525 C526 1.433 . S
C525 H534 0.931 . S
C526 C522 1.323 1_655 S
C526 C525 1.433 . S
C526 H535 0.933 . S
C527 Dy497 2.738 . S
C527 O507 1.255 . S
C527 O508 1.251 . S
C527 C521 1.516 . S
H528 C514 0.930 . S
H529 C515 0.931 . S
H530 C516 0.931 . S
H531 C517 0.933 . S
H532 C523 0.930 . S
H533 C524 0.931 . S
H534 C525 0.931 . S
H535 C526 0.933 . S
Dy536 O539 2.307 . S
Dy536 O541 2.395 . S
Dy536 O542 2.379 . S
Dy536 O544 2.339 . S
Dy536 O546 2.298 . S
Dy536 O550 2.275 . S
Dy536 C558 2.738 . S
Dy537 O540 2.298 . S
Dy537 O543 2.275 . S
Dy537 O545 2.307 . S
Dy537 O547 2.395 . S
Dy537 O548 2.379 . S
Dy537 O551 2.339 . S
Dy537 C567 2.738 . S
C538 O550 1.254 . S
C538 O551 1.257 . S
O539 Dy536 2.307 . S
O539 C549 1.266 . S
O540 Dy537 2.298 . S
O540 C549 1.236 . S
O541 Dy536 2.395 . S
O541 C558 1.255 . S
O542 Dy536 2.379 . S
O542 C558 1.249 . S
O543 Dy537 2.275 . S
O543 C559 1.254 . S
O544 Dy536 2.339 . S
O544 C559 1.257 . S
O545 Dy537 2.307 . S
O545 C560 1.266 . S
O546 Dy536 2.298 . S
O546 C560 1.236 . S
O547 Dy537 2.395 . S
O547 C567 1.255 . S
O548 Dy537 2.379 . S
O548 C567 1.249 . S
C549 O539 1.266 . S
C549 O540 1.236 . S
O550 Dy536 2.275 . S
O550 C538 1.254 . S
O551 Dy537 2.339 . S
O551 C538 1.257 . S
C552 C555 1.344 . S
C552 C556 1.328 . S
C552 C558 1.516 . S
C553 C554 1.304 . S
C553 C557 1.323 . S
C554 C553 1.304 . S
C554 C555 1.371 . S
C554 H568 0.930 . S
C555 C552 1.344 . S
C555 C554 1.371 . S
C555 H569 0.931 . S
C556 C552 1.328 . S
C556 C557 1.433 . S
C556 H570 0.931 . S
C557 C553 1.323 . S
C557 C556 1.433 . S
C557 H571 0.933 . S
C558 Dy536 2.738 . S
C558 O541 1.255 . S
C558 O542 1.249 . S
C558 C552 1.516 . S
C559 O543 1.254 . S
C559 O544 1.257 . S
C560 O545 1.266 . S
C560 O546 1.236 . S
C561 C564 1.344 . S
C561 C565 1.328 . S
C561 C567 1.516 . S
C562 C563 1.304 . S
C562 C566 1.323 . S
C563 C562 1.304 . S
C563 C564 1.371 . S
C563 H572 0.930 . S
C564 C561 1.344 . S
C564 C563 1.371 . S
C564 H573 0.931 . S
C565 C561 1.328 . S
C565 C566 1.433 . S
C565 H574 0.931 . S
C566 C562 1.323 . S
C566 C565 1.433 . S
C566 H575 0.933 . S
C567 Dy537 2.738 . S
C567 O547 1.255 . S
C567 O548 1.249 . S
C567 C561 1.516 . S
H568 C554 0.930 . S
H569 C555 0.931 . S
H570 C556 0.931 . S
H571 C557 0.933 . S
H572 C563 0.930 . S
H573 C564 0.931 . S
H574 C565 0.931 . S
H575 C566 0.933 . S
Dy576 O579 2.307 1_556 S
Dy576 O581 2.395 . S
Dy576 O582 2.379 . S
Dy576 O584 2.339 1_556 S
Dy576 O586 2.298 1_556 S
Dy576 O590 2.275 1_556 S
Dy576 C598 2.738 . S
Dy577 O580 2.298 . S
Dy577 O583 2.275 . S
Dy577 O585 2.307 . S
Dy577 O587 2.395 . S
Dy577 O588 2.379 . S
Dy577 O591 2.339 . S
Dy577 C607 2.738 . S
C578 O590 1.254 . S
C578 O591 1.257 . S
O579 Dy576 2.307 1_554 S
O579 C589 1.266 . S
O580 Dy577 2.298 . S
O580 C589 1.236 . S
O581 Dy576 2.395 . S
O581 C598 1.255 . S
O582 Dy576 2.379 . S
O582 C598 1.249 . S
O583 Dy577 2.275 . S
O583 C599 1.254 . S
O584 Dy576 2.339 1_554 S
O584 C599 1.257 . S
O585 Dy577 2.307 . S
O585 C600 1.266 . S
O586 Dy576 2.298 1_554 S
O586 C600 1.236 . S
O587 Dy577 2.395 . S
O587 C607 1.255 . S
O588 Dy577 2.379 . S
O588 C607 1.249 . S
C589 O579 1.266 . S
C589 O580 1.236 . S
O590 Dy576 2.275 1_554 S
O590 C578 1.254 . S
O591 Dy577 2.339 . S
O591 C578 1.257 . S
C592 C595 1.344 . S
C592 C596 1.328 . S
C592 C598 1.516 . S
C593 C594 1.304 . S
C593 C597 1.323 . S
C594 C593 1.304 . S
C594 C595 1.371 . S
C594 H608 0.930 . S
C595 C592 1.344 . S
C595 C594 1.371 . S
C595 H609 0.931 . S
C596 C592 1.328 . S
C596 C597 1.433 . S
C596 H610 0.931 . S
C597 C593 1.323 . S
C597 C596 1.433 . S
C597 H611 0.933 . S
C598 Dy576 2.738 . S
C598 O581 1.255 . S
C598 O582 1.249 . S
C598 C592 1.516 . S
C599 O583 1.254 . S
C599 O584 1.257 . S
C600 O585 1.266 . S
C600 O586 1.236 . S
C601 C604 1.344 . S
C601 C605 1.328 1_545 S
C601 C607 1.516 . S
C602 C603 1.304 1_565 S
C602 C606 1.323 . S
C603 C602 1.304 1_545 S
C603 C604 1.371 . S
C603 H612 0.930 . S
C604 C601 1.344 . S
C604 C603 1.371 . S
C604 H613 0.931 . S
C605 C601 1.328 1_565 S
C605 C606 1.433 . S
C605 H614 0.931 . S
C606 C602 1.323 . S
C606 C605 1.433 . S
C606 H615 0.933 . S
C607 Dy577 2.738 . S
C607 O587 1.255 . S
C607 O588 1.249 . S
C607 C601 1.516 . S
H608 C594 0.930 . S
H609 C595 0.931 . S
H610 C596 0.931 . S
H611 C597 0.933 . S
H612 C603 0.930 . S
H613 C604 0.931 . S
H614 C605 0.931 . S
H615 C606 0.933 . S
Dy616 O619 2.307 . S
Dy616 O621 2.395 . S
Dy616 O622 2.379 . S
Dy616 O624 2.339 . S
Dy616 O626 2.298 . S
Dy616 O630 2.275 . S
Dy616 C638 2.738 . S
Dy617 O620 2.298 . S
Dy617 O623 2.275 . S
Dy617 O625 2.307 . S
Dy617 O627 2.395 . S
Dy617 O628 2.379 . S
Dy617 O631 2.339 . S
Dy617 C647 2.738 . S
C618 O630 1.254 . S
C618 O631 1.257 . S
O619 Dy616 2.307 . S
O619 C629 1.266 . S
O620 Dy617 2.298 . S
O620 C629 1.236 . S
O621 Dy616 2.395 . S
O621 C638 1.255 . S
O622 Dy616 2.379 . S
O622 C638 1.249 . S
O623 Dy617 2.275 . S
O623 C639 1.254 . S
O624 Dy616 2.339 . S
O624 C639 1.257 . S
O625 Dy617 2.307 . S
O625 C640 1.266 . S
O626 Dy616 2.298 . S
O626 C640 1.236 . S
O627 Dy617 2.395 . S
O627 C647 1.255 . S
O628 Dy617 2.379 . S
O628 C647 1.249 . S
C629 O619 1.266 . S
C629 O620 1.236 . S
O630 Dy616 2.275 . S
O630 C618 1.254 . S
O631 Dy617 2.339 . S
O631 C618 1.257 . S
C632 C635 1.344 . S
C632 C636 1.328 . S
C632 C638 1.516 . S
C633 C634 1.304 . S
C633 C637 1.323 . S
C634 C633 1.304 . S
C634 C635 1.371 . S
C634 H648 0.930 . S
C635 C632 1.344 . S
C635 C634 1.371 . S
C635 H649 0.931 . S
C636 C632 1.328 . S
C636 C637 1.433 . S
C636 H650 0.931 . S
C637 C633 1.323 . S
C637 C636 1.433 . S
C637 H651 0.933 . S
C638 Dy616 2.738 . S
C638 O621 1.255 . S
C638 O622 1.249 . S
C638 C632 1.516 . S
C639 O623 1.254 . S
C639 O624 1.257 . S
C640 O625 1.266 . S
C640 O626 1.236 . S
C641 C644 1.344 . S
C641 C645 1.328 . S
C641 C647 1.516 . S
C642 C643 1.304 . S
C642 C646 1.323 . S
C643 C642 1.304 . S
C643 C644 1.371 . S
C643 H652 0.930 . S
C644 C641 1.344 . S
C644 C643 1.371 . S
C644 H653 0.931 . S
C645 C641 1.328 . S
C645 C646 1.433 . S
C645 H654 0.931 . S
C646 C642 1.323 . S
C646 C645 1.433 . S
C646 H655 0.933 . S
C647 Dy617 2.738 . S
C647 O627 1.255 . S
C647 O628 1.249 . S
C647 C641 1.516 . S
H648 C634 0.930 . S
H649 C635 0.931 . S
H650 C636 0.931 . S
H651 C637 0.933 . S
H652 C643 0.930 . S
H653 C644 0.931 . S
H654 C645 0.931 . S
H655 C646 0.933 . S
Dy656 O659 2.307 1_554 S
Dy656 O661 2.395 . S
Dy656 O662 2.379 . S
Dy656 O664 2.339 . S
Dy656 O666 2.298 . S
Dy656 O670 2.275 . S
Dy656 C678 2.738 . S
Dy657 O660 2.298 1_554 S
Dy657 O663 2.275 . S
Dy657 O665 2.307 . S
Dy657 O667 2.395 . S
Dy657 O668 2.379 . S
Dy657 O671 2.339 . S
Dy657 C687 2.738 . S
C658 O670 1.254 . S
C658 O671 1.257 . S
O659 Dy656 2.307 1_556 S
O659 C669 1.266 . S
O660 Dy657 2.298 1_556 S
O660 C669 1.236 . S
O661 Dy656 2.395 . S
O661 C678 1.255 . S
O662 Dy656 2.379 . S
O662 C678 1.249 . S
O663 Dy657 2.275 . S
O663 C679 1.254 . S
O664 Dy656 2.339 . S
O664 C679 1.257 . S
O665 Dy657 2.307 . S
O665 C680 1.266 . S
O666 Dy656 2.298 . S
O666 C680 1.236 . S
O667 Dy657 2.395 . S
O667 C687 1.255 . S
O668 Dy657 2.379 . S
O668 C687 1.249 . S
C669 O659 1.266 . S
C669 O660 1.236 . S
O670 Dy656 2.275 . S
O670 C658 1.254 . S
O671 Dy657 2.339 . S
O671 C658 1.257 . S
C672 C675 1.344 . S
C672 C676 1.328 . S
C672 C678 1.516 . S
C673 C674 1.304 . S
C673 C677 1.323 . S
C674 C673 1.304 . S
C674 C675 1.371 . S
C674 H688 0.930 . S
C675 C672 1.344 . S
C675 C674 1.371 . S
C675 H689 0.931 . S
C676 C672 1.328 . S
C676 C677 1.433 . S
C676 H690 0.931 . S
C677 C673 1.323 . S
C677 C676 1.433 . S
C677 H691 0.933 . S
C678 Dy656 2.738 . S
C678 O661 1.255 . S
C678 O662 1.249 . S
C678 C672 1.516 . S
C679 O663 1.254 . S
C679 O664 1.257 . S
C680 O665 1.266 . S
C680 O666 1.236 . S
C681 C684 1.344 . S
C681 C685 1.328 . S
C681 C687 1.516 1_556 S
C682 C683 1.304 . S
C682 C686 1.323 . S
C683 C682 1.304 . S
C683 C684 1.371 . S
C683 H692 0.930 . S
C684 C681 1.344 . S
C684 C683 1.371 . S
C684 H693 0.931 . S
C685 C681 1.328 . S
C685 C686 1.433 . S
C685 H694 0.915 1_556 S
C686 C682 1.323 . S
C686 C685 1.433 . S
C686 H695 0.933 . S
C687 Dy657 2.738 . S
C687 O667 1.255 . S
C687 O668 1.249 . S
C687 C681 1.516 1_554 S
H688 C674 0.930 . S
H689 C675 0.931 . S
H690 C676 0.931 . S
H691 C677 0.933 . S
H692 C683 0.930 . S
H693 C684 0.931 . S
H694 C685 0.915 1_554 S
H695 C686 0.933 . S
Dy696 O699 2.307 . S
Dy696 O701 2.395 . S
Dy696 O702 2.379 . S
Dy696 O704 2.339 . S
Dy696 O706 2.298 . S
Dy696 O710 2.275 . S
Dy696 C718 2.738 . S
Dy697 O700 2.298 . S
Dy697 O703 2.275 . S
Dy697 O705 2.307 . S
Dy697 O707 2.395 . S
Dy697 O708 2.379 . S
Dy697 O711 2.339 . S
Dy697 C727 2.738 . S
C698 O710 1.254 . S
C698 O711 1.257 . S
O699 Dy696 2.307 . S
O699 C709 1.266 . S
O700 Dy697 2.298 . S
O700 C709 1.236 . S
O701 Dy696 2.395 . S
O701 C718 1.255 . S
O702 Dy696 2.379 . S
O702 C718 1.249 . S
O703 Dy697 2.275 . S
O703 C719 1.254 . S
O704 Dy696 2.339 . S
O704 C719 1.257 . S
O705 Dy697 2.307 . S
O705 C720 1.266 . S
O706 Dy696 2.298 . S
O706 C720 1.236 . S
O707 Dy697 2.395 . S
O707 C727 1.255 . S
O708 Dy697 2.379 . S
O708 C727 1.249 . S
C709 O699 1.266 . S
C709 O700 1.236 . S
O710 Dy696 2.275 . S
O710 C698 1.254 . S
O711 Dy697 2.339 . S
O711 C698 1.257 . S
C712 C715 1.344 . S
C712 C716 1.328 . S
C712 C718 1.516 . S
C713 C714 1.304 . S
C713 C717 1.323 . S
C714 C713 1.304 . S
C714 C715 1.371 . S
C714 H728 0.930 . S
C715 C712 1.344 . S
C715 C714 1.371 . S
C715 H729 0.931 . S
C716 C712 1.328 . S
C716 C717 1.433 . S
C716 H730 0.931 . S
C717 C713 1.323 . S
C717 C716 1.433 . S
C717 H731 0.933 . S
C718 Dy696 2.738 . S
C718 O701 1.255 . S
C718 O702 1.249 . S
C718 C712 1.516 . S
C719 O703 1.254 . S
C719 O704 1.257 . S
C720 O705 1.266 . S
C720 O706 1.236 . S
C721 C724 1.344 . S
C721 C725 1.328 . S
C721 C727 1.516 . S
C722 C723 1.304 . S
C722 C726 1.323 . S
C723 C722 1.304 . S
C723 C724 1.371 . S
C723 H732 0.930 . S
C724 C721 1.344 . S
C724 C723 1.371 . S
C724 H733 0.931 . S
C725 C721 1.328 . S
C725 C726 1.433 . S
C725 H734 0.931 . S
C726 C722 1.323 . S
C726 C725 1.433 . S
C726 H735 0.933 . S
C727 Dy697 2.738 . S
C727 O707 1.255 . S
C727 O708 1.249 . S
C727 C721 1.516 . S
H728 C714 0.930 . S
H729 C715 0.931 . S
H730 C716 0.931 . S
H731 C717 0.933 . S
H732 C723 0.930 . S
H733 C724 0.931 . S
H734 C725 0.931 . S
H735 C726 0.933 . S
Dy736 O739 2.307 1_455 S
Dy736 O741 2.395 . S
Dy736 O742 2.379 . S
Dy736 O744 2.339 . S
Dy736 O746 2.298 . S
Dy736 O750 2.275 . S
Dy736 C758 2.738 . S
Dy737 O740 2.298 1_455 S
Dy737 O743 2.275 . S
Dy737 O745 2.307 . S
Dy737 O747 2.395 . S
Dy737 O748 2.379 . S
Dy737 O751 2.339 . S
Dy737 C767 2.738 . S
C738 O750 1.254 . S
C738 O751 1.257 . S
O739 Dy736 2.307 1_655 S
O739 C749 1.266 . S
O740 Dy737 2.298 1_655 S
O740 C749 1.236 . S
O741 Dy736 2.395 . S
O741 C758 1.255 . S
O742 Dy736 2.379 . S
O742 C758 1.249 . S
O743 Dy737 2.275 . S
O743 C759 1.254 . S
O744 Dy736 2.339 . S
O744 C759 1.257 . S
O745 Dy737 2.307 . S
O745 C760 1.266 . S
O746 Dy736 2.298 . S
O746 C760 1.236 . S
O747 Dy737 2.395 . S
O747 C767 1.255 . S
O748 Dy737 2.379 . S
O748 C767 1.249 . S
C749 O739 1.266 . S
C749 O740 1.236 . S
O750 Dy736 2.275 . S
O750 C738 1.254 . S
O751 Dy737 2.339 . S
O751 C738 1.257 . S
C752 C755 1.344 . S
C752 C756 1.328 . S
C752 C758 1.516 . S
C753 C754 1.304 . S
C753 C757 1.323 . S
C754 C753 1.304 . S
C754 C755 1.371 . S
C754 H768 0.930 . S
C755 C752 1.344 . S
C755 C754 1.371 . S
C755 H769 0.931 . S
C756 C752 1.328 . S
C756 C757 1.433 . S
C756 H770 0.931 . S
C757 C753 1.323 . S
C757 C756 1.433 . S
C757 H771 0.933 . S
C758 Dy736 2.738 . S
C758 O741 1.255 . S
C758 O742 1.249 . S
C758 C752 1.516 . S
C759 O743 1.254 . S
C759 O744 1.257 . S
C760 O745 1.266 . S
C760 O746 1.236 . S
C761 C764 1.344 . S
C761 C765 1.328 . S
C761 C767 1.516 1_655 S
C762 C763 1.304 . S
C762 C766 1.323 . S
C763 C762 1.304 . S
C763 C764 1.371 . S
C763 H772 0.930 . S
C764 C761 1.344 . S
C764 C763 1.371 . S
C764 H773 0.931 . S
C765 C761 1.328 . S
C765 C766 1.433 . S
C765 H774 0.931 . S
C766 C762 1.323 . S
C766 C765 1.433 . S
C766 H775 0.933 . S
C767 Dy737 2.738 . S
C767 O747 1.255 . S
C767 O748 1.249 . S
C767 C761 1.516 1_455 S
H768 C754 0.930 . S
H769 C755 0.931 . S
H770 C756 0.931 . S
H771 C757 0.933 . S
H772 C763 0.930 . S
H773 C764 0.931 . S
H774 C765 0.931 . S
H775 C766 0.933 . S
Dy776 O779 2.307 . S
Dy776 O781 2.395 . S
Dy776 O782 2.379 . S
Dy776 O784 2.339 . S
Dy776 O786 2.298 . S
Dy776 O790 2.275 . S
Dy776 C798 2.738 . S
Dy777 O780 2.298 . S
Dy777 O783 2.275 . S
Dy777 O785 2.307 . S
Dy777 O787 2.395 . S
Dy777 O788 2.379 . S
Dy777 O791 2.339 . S
Dy777 C807 2.738 . S
C778 O790 1.254 . S
C778 O791 1.257 . S
O779 Dy776 2.307 . S
O779 C789 1.266 . S
O780 Dy777 2.298 . S
O780 C789 1.236 . S
O781 Dy776 2.395 . S
O781 C798 1.255 . S
O782 Dy776 2.379 . S
O782 C798 1.249 . S
O783 Dy777 2.275 . S
O783 C799 1.254 . S
O784 Dy776 2.339 . S
O784 C799 1.257 . S
O785 Dy777 2.307 . S
O785 C800 1.266 . S
O786 Dy776 2.298 . S
O786 C800 1.236 . S
O787 Dy777 2.395 . S
O787 C807 1.255 . S
O788 Dy777 2.379 . S
O788 C807 1.249 . S
C789 O779 1.266 . S
C789 O780 1.236 . S
O790 Dy776 2.275 . S
O790 C778 1.254 . S
O791 Dy777 2.339 . S
O791 C778 1.257 . S
C792 C795 1.344 . S
C792 C796 1.328 . S
C792 C798 1.516 . S
C793 C794 1.304 . S
C793 C797 1.323 . S
C794 C793 1.304 . S
C794 C795 1.371 . S
C794 H808 0.930 . S
C795 C792 1.344 . S
C795 C794 1.371 . S
C795 H809 0.931 . S
C796 C792 1.328 . S
C796 C797 1.433 . S
C796 H810 0.931 . S
C797 C793 1.323 . S
C797 C796 1.433 . S
C797 H811 0.933 . S
C798 Dy776 2.738 . S
C798 O781 1.255 . S
C798 O782 1.249 . S
C798 C792 1.516 . S
C799 O783 1.254 . S
C799 O784 1.257 . S
C800 O785 1.266 . S
C800 O786 1.236 . S
C801 C804 1.344 . S
C801 C805 1.328 . S
C801 C807 1.516 . S
C802 C803 1.304 . S
C802 C806 1.323 . S
C803 C802 1.304 . S
C803 C804 1.371 . S
C803 H812 0.930 . S
C804 C801 1.344 . S
C804 C803 1.371 . S
C804 H813 0.931 . S
C805 C801 1.328 . S
C805 C806 1.433 . S
C805 H814 0.931 . S
C806 C802 1.323 . S
C806 C805 1.433 . S
C806 H815 0.933 . S
C807 Dy777 2.738 . S
C807 O787 1.255 . S
C807 O788 1.249 . S
C807 C801 1.516 . S
H808 C794 0.930 . S
H809 C795 0.931 . S
H810 C796 0.931 . S
H811 C797 0.933 . S
H812 C803 0.930 . S
H813 C804 0.931 . S
H814 C805 0.931 . S
H815 C806 0.933 . S
Dy816 O819 2.307 . S
Dy816 O821 2.395 . S
Dy816 O822 2.379 . S
Dy816 O824 2.339 . S
Dy816 O826 2.298 . S
Dy816 O830 2.275 . S
Dy816 C838 2.738 . S
Dy817 O820 2.298 . S
Dy817 O823 2.275 . S
Dy817 O825 2.307 . S
Dy817 O827 2.395 . S
Dy817 O828 2.379 . S
Dy817 O831 2.339 . S
Dy817 C847 2.738 . S
C818 O830 1.254 . S
C818 O831 1.257 . S
O819 Dy816 2.307 . S
O819 C829 1.266 . S
O820 Dy817 2.298 . S
O820 C829 1.236 . S
O821 Dy816 2.395 . S
O821 C838 1.255 . S
O822 Dy816 2.379 . S
O822 C838 1.249 . S
O823 Dy817 2.275 . S
O823 C839 1.254 . S
O824 Dy816 2.339 . S
O824 C839 1.257 . S
O825 Dy817 2.307 . S
O825 C840 1.266 . S
O826 Dy816 2.298 . S
O826 C840 1.236 . S
O827 Dy817 2.395 . S
O827 C847 1.255 . S
O828 Dy817 2.379 . S
O828 C847 1.249 . S
C829 O819 1.266 . S
C829 O820 1.236 . S
O830 Dy816 2.275 . S
O830 C818 1.254 . S
O831 Dy817 2.339 . S
O831 C818 1.257 . S
C832 C835 1.344 . S
C832 C836 1.328 . S
C832 C838 1.516 . S
C833 C834 1.304 . S
C833 C837 1.323 . S
C834 C833 1.304 . S
C834 C835 1.371 . S
C834 H848 0.930 . S
C835 C832 1.344 . S
C835 C834 1.371 . S
C835 H849 0.931 . S
C836 C832 1.328 . S
C836 C837 1.433 . S
C836 H850 0.931 . S
C837 C833 1.323 . S
C837 C836 1.433 . S
C837 H851 0.933 . S
C838 Dy816 2.738 . S
C838 O821 1.255 . S
C838 O822 1.249 . S
C838 C832 1.516 . S
C839 O823 1.254 . S
C839 O824 1.257 . S
C840 O825 1.266 . S
C840 O826 1.236 . S
C841 C844 1.344 . S
C841 C845 1.328 . S
C841 C847 1.516 . S
C842 C843 1.304 . S
C842 C846 1.323 . S
C843 C842 1.304 . S
C843 C844 1.371 . S
C843 H852 0.930 . S
C844 C841 1.344 . S
C844 C843 1.371 . S
C844 H853 0.931 . S
C845 C841 1.328 . S
C845 C846 1.433 . S
C845 H854 0.931 . S
C846 C842 1.323 . S
C846 C845 1.433 . S
C846 H855 0.933 . S
C847 Dy817 2.738 . S
C847 O827 1.255 . S
C847 O828 1.249 . S
C847 C841 1.516 . S
H848 C834 0.930 . S
H849 C835 0.931 . S
H850 C836 0.931 . S
H851 C837 0.933 . S
H852 C843 0.930 . S
H853 C844 0.931 . S
H854 C845 0.931 . S
H855 C846 0.933 . S
Dy856 O859 2.307 . S
Dy856 O861 2.395 . S
Dy856 O862 2.379 . S
Dy856 O864 2.339 . S
Dy856 O866 2.298 . S
Dy856 O870 2.275 . S
Dy856 C878 2.738 . S
Dy857 O860 2.298 . S
Dy857 O863 2.275 . S
Dy857 O865 2.307 . S
Dy857 O867 2.395 . S
Dy857 O868 2.379 . S
Dy857 O871 2.339 . S
Dy857 C887 2.738 . S
C858 O870 1.254 . S
C858 O871 1.257 . S
O859 Dy856 2.307 . S
O859 C869 1.266 . S
O860 Dy857 2.298 . S
O860 C869 1.236 . S
O861 Dy856 2.395 . S
O861 C878 1.255 . S
O862 Dy856 2.379 . S
O862 C878 1.249 . S
O863 Dy857 2.275 . S
O863 C879 1.254 . S
O864 Dy856 2.339 . S
O864 C879 1.257 . S
O865 Dy857 2.307 . S
O865 C880 1.266 . S
O866 Dy856 2.298 . S
O866 C880 1.236 . S
O867 Dy857 2.395 . S
O867 C887 1.255 . S
O868 Dy857 2.379 . S
O868 C887 1.249 . S
C869 O859 1.266 . S
C869 O860 1.236 . S
O870 Dy856 2.275 . S
O870 C858 1.254 . S
O871 Dy857 2.339 . S
O871 C858 1.257 . S
C872 C875 1.344 . S
C872 C876 1.328 . S
C872 C878 1.516 . S
C873 C874 1.304 . S
C873 C877 1.323 . S
C874 C873 1.304 . S
C874 C875 1.371 . S
C874 H888 0.930 . S
C875 C872 1.344 . S
C875 C874 1.371 . S
C875 H889 0.931 . S
C876 C872 1.328 . S
C876 C877 1.433 . S
C876 H890 0.931 . S
C877 C873 1.323 . S
C877 C876 1.433 . S
C877 H891 0.933 . S
C878 Dy856 2.738 . S
C878 O861 1.255 . S
C878 O862 1.249 . S
C878 C872 1.516 . S
C879 O863 1.254 . S
C879 O864 1.257 . S
C880 O865 1.266 . S
C880 O866 1.236 . S
C881 C884 1.344 . S
C881 C885 1.328 . S
C881 C887 1.516 . S
C882 C883 1.304 . S
C882 C886 1.323 . S
C883 C882 1.304 . S
C883 C884 1.371 . S
C883 H892 0.930 . S
C884 C881 1.344 . S
C884 C883 1.371 . S
C884 H893 0.931 . S
C885 C881 1.328 . S
C885 C886 1.433 . S
C885 H894 0.931 . S
C886 C882 1.323 . S
C886 C885 1.433 . S
C886 H895 0.933 . S
C887 Dy857 2.738 . S
C887 O867 1.255 . S
C887 O868 1.249 . S
C887 C881 1.516 . S
H888 C874 0.930 . S
H889 C875 0.931 . S
H890 C876 0.931 . S
H891 C877 0.933 . S
H892 C883 0.930 . S
H893 C884 0.931 . S
H894 C885 0.931 . S
H895 C886 0.933 . S
Dy896 O899 2.307 . S
Dy896 O901 2.395 . S
Dy896 O902 2.379 . S
Dy896 O904 2.339 . S
Dy896 O906 2.298 . S
Dy896 O910 2.275 . S
Dy896 C918 2.738 . S
Dy897 O900 2.298 . S
Dy897 O903 2.275 . S
Dy897 O905 2.307 . S
Dy897 O907 2.395 . S
Dy897 O908 2.379 . S
Dy897 O911 2.339 . S
Dy897 C927 2.738 . S
C898 O910 1.254 . S
C898 O911 1.257 . S
O899 Dy896 2.307 . S
O899 C909 1.266 . S
O900 Dy897 2.298 . S
O900 C909 1.236 . S
O901 Dy896 2.395 . S
O901 C918 1.255 . S
O902 Dy896 2.379 . S
O902 C918 1.249 . S
O903 Dy897 2.275 . S
O903 C919 1.254 . S
O904 Dy896 2.339 . S
O904 C919 1.257 . S
O905 Dy897 2.307 . S
O905 C920 1.266 . S
O906 Dy896 2.298 . S
O906 C920 1.236 . S
O907 Dy897 2.395 . S
O907 C927 1.255 . S
O908 Dy897 2.379 . S
O908 C927 1.249 . S
C909 O899 1.266 . S
C909 O900 1.236 . S
O910 Dy896 2.275 . S
O910 C898 1.254 . S
O911 Dy897 2.339 . S
O911 C898 1.257 . S
C912 C915 1.344 . S
C912 C916 1.328 . S
C912 C918 1.516 . S
C913 C914 1.304 . S
C913 C917 1.323 . S
C914 C913 1.304 . S
C914 C915 1.371 . S
C914 H928 0.930 . S
C915 C912 1.344 . S
C915 C914 1.371 . S
C915 H929 0.931 . S
C916 C912 1.328 . S
C916 C917 1.433 . S
C916 H930 0.931 . S
C917 C913 1.323 . S
C917 C916 1.433 . S
C917 H931 0.933 . S
C918 Dy896 2.738 . S
C918 O901 1.255 . S
C918 O902 1.249 . S
C918 C912 1.516 . S
C919 O903 1.254 . S
C919 O904 1.257 . S
C920 O905 1.266 . S
C920 O906 1.236 . S
C921 C924 1.344 . S
C921 C925 1.328 . S
C921 C927 1.516 . S
C922 C923 1.304 . S
C922 C926 1.323 . S
C923 C922 1.304 . S
C923 C924 1.371 . S
C923 H932 0.930 . S
C924 C921 1.344 . S
C924 C923 1.371 . S
C924 H933 0.931 . S
C925 C921 1.328 . S
C925 C926 1.433 . S
C925 H934 0.931 . S
C926 C922 1.323 . S
C926 C925 1.433 . S
C926 H935 0.933 . S
C927 Dy897 2.738 . S
C927 O907 1.255 . S
C927 O908 1.249 . S
C927 C921 1.516 . S
H928 C914 0.930 . S
H929 C915 0.931 . S
H930 C916 0.931 . S
H931 C917 0.933 . S
H932 C923 0.930 . S
H933 C924 0.931 . S
H934 C925 0.931 . S
H935 C926 0.933 . S
Dy936 O939 2.307 1_655 S
Dy936 O941 2.395 . S
Dy936 O942 2.379 . S
Dy936 O944 2.339 1_655 S
Dy936 O946 2.298 1_655 S
Dy936 O950 2.275 1_655 S
Dy936 C958 2.738 . S
Dy937 O940 2.298 . S
Dy937 O943 2.275 . S
Dy937 O945 2.307 . S
Dy937 O947 2.395 . S
Dy937 O948 2.379 1_554 S
Dy937 O951 2.339 1_554 S
Dy937 C967 2.738 . S
C938 O950 1.254 1_556 S
C938 O951 1.257 . S
O939 Dy936 2.307 1_455 S
O939 C949 1.266 . S
O940 Dy937 2.298 . S
O940 C949 1.236 . S
O941 Dy936 2.395 . S
O941 C958 1.255 . S
O942 Dy936 2.379 . S
O942 C958 1.249 . S
O943 Dy937 2.275 . S
O943 C959 1.254 . S
O944 Dy936 2.339 1_455 S
O944 C959 1.257 . S
O945 Dy937 2.307 . S
O945 C960 1.266 . S
O946 Dy936 2.298 1_455 S
O946 C960 1.236 . S
O947 Dy937 2.395 . S
O947 C967 1.255 . S
O948 Dy937 2.379 1_556 S
O948 C967 1.249 1_556 S
C949 O939 1.266 . S
C949 O940 1.236 . S
O950 Dy936 2.275 1_455 S
O950 C938 1.254 1_554 S
O951 Dy937 2.339 1_556 S
O951 C938 1.257 . S
C952 C955 1.344 . S
C952 C956 1.328 . S
C952 C958 1.516 . S
C953 C954 1.304 . S
C953 C957 1.323 . S
C954 C953 1.304 . S
C954 C955 1.371 . S
C954 H968 0.930 . S
C955 C952 1.344 . S
C955 C954 1.371 . S
C955 H969 0.931 . S
C956 C952 1.328 . S
C956 C957 1.433 . S
C956 H970 0.931 . S
C957 C953 1.323 . S
C957 C956 1.433 . S
C957 H971 0.933 . S
C958 Dy936 2.738 . S
C958 O941 1.255 . S
C958 O942 1.249 . S
C958 C952 1.516 . S
C959 O943 1.254 . S
C959 O944 1.257 . S
C960 O945 1.266 . S
C960 O946 1.236 . S
C961 C964 1.344 . S
C961 C965 1.328 1_554 S
C961 C967 1.516 . S
C962 C963 1.304 . S
C962 C966 1.323 1_554 S
C963 C962 1.304 . S
C963 C964 1.371 . S
C963 H972 0.930 . S
C964 C961 1.344 . S
C964 C963 1.371 . S
C964 H973 0.931 . S
C965 C961 1.328 1_556 S
C965 C966 1.433 . S
C965 H974 0.931 . S
C966 C962 1.323 1_556 S
C966 C965 1.433 . S
C966 H975 0.933 . S
C967 Dy937 2.738 . S
C967 O947 1.255 . S
C967 O948 1.249 1_554 S
C967 C961 1.516 . S
H968 C954 0.930 . S
H969 C955 0.931 . S
H970 C956 0.931 . S
H971 C957 0.933 . S
H972 C963 0.930 . S
H973 C964 0.931 . S
H974 C965 0.931 . S
H975 C966 0.933 . S
C976 C977 1.391 1_554 S
C976 C978 1.394 . S
C976 H992 0.931 . S
C977 C976 1.391 1_556 S
C977 C981 1.376 1_655 S
C978 C976 1.394 . S
C978 C979 1.369 1_655 S
C978 C982 1.531 . S
C979 C978 1.369 1_455 S
C979 C980 1.410 1_554 S
C979 C987 1.503 . S
C980 C979 1.410 1_556 S
C980 C981 1.392 . S
C980 C983 1.511 . S
C981 C977 1.376 1_455 S
C981 C980 1.392 . S
C981 H993 0.929 . S
C982 C978 1.531 . S
C982 H994 0.960 . S
C982 H995 0.962 . S
C982 H996 0.960 . S
C983 C980 1.511 . S
C983 H997 0.961 . S
C983 H998 0.961 . S
C983 H999 0.961 . S
C984 C985 1.370 . S
C984 C986 1.363 . S
C984 H1000 0.931 . S
C985 C984 1.370 . S
C985 C989 1.408 . S
C986 C984 1.363 . S
C986 C987 1.370 . S
C986 C990 1.524 . S
C987 C979 1.503 . S
C987 C986 1.370 . S
C987 C988 1.396 1_455 S
C988 C987 1.396 1_655 S
C988 C989 1.388 1_655 S
C988 C991 1.561 1_554 S
C989 C985 1.408 . S
C989 C988 1.388 1_455 S
C989 H1001 0.930 1_455 S
C990 C986 1.524 . S
C990 H1002 0.956 . S
C990 H1003 0.961 . S
C990 H1004 0.961 . S
C991 C988 1.561 1_556 S
C991 H1005 0.958 . S
C991 H1006 0.961 . S
C991 H1007 0.960 . S
H992 C976 0.931 . S
H993 C981 0.929 . S
H994 C982 0.960 . S
H995 C982 0.962 . S
H996 C982 0.960 . S
H997 C983 0.961 . S
H998 C983 0.961 . S
H999 C983 0.961 . S
H1000 C984 0.931 . S
H1001 C989 0.930 1_655 S
H1002 C990 0.956 . S
H1003 C990 0.961 . S
H1004 C990 0.961 . S
H1005 C991 0.958 . S
H1006 C991 0.961 . S
H1007 C991 0.960 . S
C1008 C1009 1.391 . S
C1008 C1010 1.394 . S
C1008 H1024 0.931 . S
C1009 C1008 1.391 . S
C1009 C1013 1.376 . S
C1010 C1008 1.394 . S
C1010 C1011 1.369 . S
C1010 C1014 1.531 . S
C1011 C1010 1.369 . S
C1011 C1012 1.410 . S
C1011 C1019 1.503 . S
C1012 C1011 1.410 . S
C1012 C1013 1.392 . S
C1012 C1015 1.511 . S
C1013 C1009 1.376 . S
C1013 C1012 1.392 . S
C1013 H1025 0.929 . S
C1014 C1010 1.531 . S
C1014 H1026 0.960 . S
C1014 H1027 0.962 . S
C1014 H1028 0.960 . S
C1015 C1012 1.511 . S
C1015 H1029 0.961 . S
C1015 H1030 0.961 . S
C1015 H1031 0.961 . S
C1016 C1017 1.370 . S
C1016 C1018 1.363 . S
C1016 H1032 0.931 . S
C1017 C1016 1.370 . S
C1017 C1021 1.408 . S
C1018 C1016 1.363 . S
C1018 C1019 1.370 . S
C1018 C1022 1.524 . S
C1019 C1011 1.503 . S
C1019 C1018 1.370 . S
C1019 C1020 1.403 . S
C1020 C1019 1.403 . S
C1020 C1021 1.404 . S
C1020 C1023 1.539 . S
C1021 C1017 1.408 . S
C1021 C1020 1.404 . S
C1021 H1033 0.930 . S
C1022 C1018 1.524 . S
C1022 H1034 0.956 . S
C1022 H1035 0.961 . S
C1022 H1036 0.961 . S
C1023 C1020 1.539 . S
C1023 H1037 0.958 . S
C1023 H1038 0.961 . S
C1023 H1039 0.960 . S
H1024 C1008 0.931 . S
H1025 C1013 0.929 . S
H1026 C1014 0.960 . S
H1027 C1014 0.962 . S
H1028 C1014 0.960 . S
H1029 C1015 0.961 . S
H1030 C1015 0.961 . S
H1031 C1015 0.961 . S
H1032 C1016 0.931 . S
H1033 C1021 0.930 . S
H1034 C1022 0.956 . S
H1035 C1022 0.961 . S
H1036 C1022 0.961 . S
H1037 C1023 0.958 . S
H1038 C1023 0.961 . S
H1039 C1023 0.960 . S
C1040 C1041 1.391 . S
C1040 C1042 1.394 . S
C1040 H1056 0.931 . S
C1041 C1040 1.391 . S
C1041 C1045 1.376 . S
C1042 C1040 1.394 . S
C1042 C1043 1.369 . S
C1042 C1046 1.531 . S
C1043 C1042 1.369 . S
C1043 C1044 1.410 . S
C1043 C1051 1.503 . S
C1044 C1043 1.410 . S
C1044 C1045 1.392 . S
C1044 C1047 1.511 . S
C1045 C1041 1.376 . S
C1045 C1044 1.392 . S
C1045 H1057 0.929 . S
C1046 C1042 1.531 . S
C1046 H1058 0.960 . S
C1046 H1059 0.962 . S
C1046 H1060 0.960 . S
C1047 C1044 1.511 . S
C1047 H1061 0.961 . S
C1047 H1062 0.961 . S
C1047 H1063 0.961 . S
C1048 C1049 1.370 . S
C1048 C1050 1.363 . S
C1048 H1064 0.931 . S
C1049 C1048 1.370 . S
C1049 C1053 1.408 . S
C1050 C1048 1.363 . S
C1050 C1051 1.370 . S
C1050 C1054 1.524 . S
C1051 C1043 1.503 . S
C1051 C1050 1.370 . S
C1051 C1052 1.403 . S
C1052 C1051 1.403 . S
C1052 C1053 1.404 . S
C1052 C1055 1.539 . S
C1053 C1049 1.408 . S
C1053 C1052 1.404 . S
C1053 H1065 0.930 . S
C1054 C1050 1.524 . S
C1054 H1066 0.956 . S
C1054 H1067 0.961 . S
C1054 H1068 0.961 . S
C1055 C1052 1.539 . S
C1055 H1069 0.958 . S
C1055 H1070 0.961 . S
C1055 H1071 0.960 . S
H1056 C1040 0.931 . S
H1057 C1045 0.929 . S
H1058 C1046 0.960 . S
H1059 C1046 0.962 . S
H1060 C1046 0.960 . S
H1061 C1047 0.961 . S
H1062 C1047 0.961 . S
H1063 C1047 0.961 . S
H1064 C1048 0.931 . S
H1065 C1053 0.930 . S
H1066 C1054 0.956 . S
H1067 C1054 0.961 . S
H1068 C1054 0.961 . S
H1069 C1055 0.958 . S
H1070 C1055 0.961 . S
H1071 C1055 0.960 . S
C1072 C1073 1.391 . S
C1072 C1074 1.394 . S
C1072 H1088 0.931 . S
C1073 C1072 1.391 . S
C1073 C1077 1.376 . S
C1074 C1072 1.394 . S
C1074 C1075 1.369 . S
C1074 C1078 1.531 . S
C1075 C1074 1.369 . S
C1075 C1076 1.410 . S
C1075 C1083 1.503 . S
C1076 C1075 1.410 . S
C1076 C1077 1.392 . S
C1076 C1079 1.511 . S
C1077 C1073 1.376 . S
C1077 C1076 1.392 . S
C1077 H1089 0.929 . S
C1078 C1074 1.531 . S
C1078 H1090 0.960 . S
C1078 H1091 0.962 . S
C1078 H1092 0.960 . S
C1079 C1076 1.511 . S
C1079 H1093 0.961 . S
C1079 H1094 0.961 . S
C1079 H1095 0.961 . S
C1080 C1081 1.370 . S
C1080 C1082 1.363 . S
C1080 H1096 0.931 . S
C1081 C1080 1.370 . S
C1081 C1085 1.408 . S
C1082 C1080 1.363 . S
C1082 C1083 1.370 . S
C1082 C1086 1.524 . S
C1083 C1075 1.503 . S
C1083 C1082 1.370 . S
C1083 C1084 1.403 . S
C1084 C1083 1.403 . S
C1084 C1085 1.404 . S
C1084 C1087 1.539 . S
C1085 C1081 1.408 . S
C1085 C1084 1.404 . S
C1085 H1097 0.930 . S
C1086 C1082 1.524 . S
C1086 H1098 0.956 . S
C1086 H1099 0.961 . S
C1086 H1100 0.961 . S
C1087 C1084 1.539 . S
C1087 H1101 0.958 . S
C1087 H1102 0.961 . S
C1087 H1103 0.960 . S
H1088 C1072 0.931 . S
H1089 C1077 0.929 . S
H1090 C1078 0.960 . S
H1091 C1078 0.962 . S
H1092 C1078 0.960 . S
H1093 C1079 0.961 . S
H1094 C1079 0.961 . S
H1095 C1079 0.961 . S
H1096 C1080 0.931 . S
H1097 C1085 0.930 . S
H1098 C1086 0.956 . S
H1099 C1086 0.961 . S
H1100 C1086 0.961 . S
H1101 C1087 0.958 . S
H1102 C1087 0.961 . S
H1103 C1087 0.960 . S
C1104 C1105 1.391 . S
C1104 C1106 1.394 . S
C1104 H1120 0.931 . S
C1105 C1104 1.391 . S
C1105 C1109 1.376 . S
C1106 C1104 1.394 . S
C1106 C1107 1.369 . S
C1106 C1110 1.531 . S
C1107 C1106 1.369 . S
C1107 C1108 1.410 . S
C1107 C1115 1.503 . S
C1108 C1107 1.410 . S
C1108 C1109 1.392 . S
C1108 C1111 1.511 . S
C1109 C1105 1.376 . S
C1109 C1108 1.392 . S
C1109 H1121 0.929 . S
C1110 C1106 1.531 . S
C1110 H1122 0.960 . S
C1110 H1123 0.962 . S
C1110 H1124 0.960 . S
C1111 C1108 1.511 . S
C1111 H1125 0.961 . S
C1111 H1126 0.961 . S
C1111 H1127 0.961 . S
C1112 C1113 1.370 . S
C1112 C1114 1.363 . S
C1112 H1128 0.931 . S
C1113 C1112 1.370 . S
C1113 C1117 1.408 . S
C1114 C1112 1.363 . S
C1114 C1115 1.370 . S
C1114 C1118 1.524 . S
C1115 C1107 1.503 . S
C1115 C1114 1.370 . S
C1115 C1116 1.403 . S
C1116 C1115 1.403 . S
C1116 C1117 1.404 . S
C1116 C1119 1.539 1_455 S
C1117 C1113 1.408 . S
C1117 C1116 1.404 . S
C1117 H1129 0.930 . S
C1118 C1114 1.524 . S
C1118 H1130 0.956 . S
C1118 H1131 0.961 . S
C1118 H1132 0.961 . S
C1119 C1116 1.539 1_655 S
C1119 H1133 0.958 . S
C1119 H1134 0.961 . S
C1119 H1135 0.962 . S
H1120 C1104 0.931 . S
H1121 C1109 0.929 . S
H1122 C1110 0.960 . S
H1123 C1110 0.962 . S
H1124 C1110 0.960 . S
H1125 C1111 0.961 . S
H1126 C1111 0.961 . S
H1127 C1111 0.961 . S
H1128 C1112 0.931 . S
H1129 C1117 0.930 . S
H1130 C1118 0.956 . S
H1131 C1118 0.961 . S
H1132 C1118 0.961 . S
H1133 C1119 0.958 . S
H1134 C1119 0.961 . S
H1135 C1119 0.962 . S
C1136 C1137 1.391 . S
C1136 C1138 1.394 . S
C1136 H1152 0.931 . S
C1137 C1136 1.391 . S
C1137 C1141 1.376 . S
C1138 C1136 1.394 . S
C1138 C1139 1.369 . S
C1138 C1142 1.531 . S
C1139 C1138 1.369 . S
C1139 C1140 1.410 . S
C1139 C1147 1.503 . S
C1140 C1139 1.410 . S
C1140 C1141 1.392 . S
C1140 C1143 1.511 . S
C1141 C1137 1.376 . S
C1141 C1140 1.392 . S
C1141 H1153 0.929 . S
C1142 C1138 1.531 . S
C1142 H1154 0.960 . S
C1142 H1155 0.962 . S
C1142 H1156 0.960 . S
C1143 C1140 1.511 . S
C1143 H1157 0.961 . S
C1143 H1158 0.961 . S
C1143 H1159 0.961 . S
C1144 C1145 1.370 . S
C1144 C1146 1.363 . S
C1144 H1160 0.931 . S
C1145 C1144 1.370 . S
C1145 C1149 1.408 . S
C1146 C1144 1.363 . S
C1146 C1147 1.370 . S
C1146 C1150 1.524 . S
C1147 C1139 1.503 . S
C1147 C1146 1.370 . S
C1147 C1148 1.403 . S
C1148 C1147 1.403 . S
C1148 C1149 1.404 . S
C1148 C1151 1.539 . S
C1149 C1145 1.408 . S
C1149 C1148 1.404 . S
C1149 H1161 0.930 . S
C1150 C1146 1.524 . S
C1150 H1162 0.956 . S
C1150 H1163 0.961 . S
C1150 H1164 0.961 . S
C1151 C1148 1.539 . S
C1151 H1165 0.958 . S
C1151 H1166 0.961 . S
C1151 H1167 0.960 . S
H1152 C1136 0.931 . S
H1153 C1141 0.929 . S
H1154 C1142 0.960 . S
H1155 C1142 0.962 . S
H1156 C1142 0.960 . S
H1157 C1143 0.961 . S
H1158 C1143 0.961 . S
H1159 C1143 0.961 . S
H1160 C1144 0.931 . S
H1161 C1149 0.930 . S
H1162 C1150 0.956 . S
H1163 C1150 0.961 . S
H1164 C1150 0.961 . S
H1165 C1151 0.958 . S
H1166 C1151 0.961 . S
H1167 C1151 0.960 . S
C1168 C1169 1.391 . S
C1168 C1170 1.394 . S
C1168 H1184 0.931 . S
C1169 C1168 1.391 . S
C1169 C1173 1.376 . S
C1170 C1168 1.394 . S
C1170 C1171 1.369 . S
C1170 C1174 1.531 . S
C1171 C1170 1.369 . S
C1171 C1172 1.410 . S
C1171 C1179 1.503 . S
C1172 C1171 1.410 . S
C1172 C1173 1.392 . S
C1172 C1175 1.511 . S
C1173 C1169 1.376 . S
C1173 C1172 1.392 . S
C1173 H1185 0.929 . S
C1174 C1170 1.531 . S
C1174 H1186 0.960 . S
C1174 H1187 0.962 . S
C1174 H1188 0.960 . S
C1175 C1172 1.511 . S
C1175 H1189 0.961 . S
C1175 H1190 0.961 . S
C1175 H1191 0.961 . S
C1176 C1177 1.370 . S
C1176 C1178 1.363 . S
C1176 H1192 0.931 . S
C1177 C1176 1.370 . S
C1177 C1181 1.408 . S
C1178 C1176 1.363 . S
C1178 C1179 1.370 . S
C1178 C1182 1.524 . S
C1179 C1171 1.503 . S
C1179 C1178 1.370 . S
C1179 C1180 1.403 . S
C1180 C1179 1.403 . S
C1180 C1181 1.404 . S
C1180 C1183 1.539 . S
C1181 C1177 1.408 . S
C1181 C1180 1.404 . S
C1181 H1193 0.930 . S
C1182 C1178 1.524 . S
C1182 H1194 0.956 . S
C1182 H1195 0.961 . S
C1182 H1196 0.961 . S
C1183 C1180 1.539 . S
C1183 H1197 0.958 . S
C1183 H1198 0.961 . S
C1183 H1199 0.960 . S
H1184 C1168 0.931 . S
H1185 C1173 0.929 . S
H1186 C1174 0.960 . S
H1187 C1174 0.962 . S
H1188 C1174 0.960 . S
H1189 C1175 0.961 . S
H1190 C1175 0.961 . S
H1191 C1175 0.961 . S
H1192 C1176 0.931 . S
H1193 C1181 0.930 . S
H1194 C1182 0.956 . S
H1195 C1182 0.961 . S
H1196 C1182 0.961 . S
H1197 C1183 0.958 . S
H1198 C1183 0.961 . S
H1199 C1183 0.960 . S
C1200 C1201 1.391 . S
C1200 C1202 1.394 . S
C1200 H1216 0.931 . S
C1201 C1200 1.391 . S
C1201 C1205 1.376 . S
C1202 C1200 1.394 . S
C1202 C1203 1.369 . S
C1202 C1206 1.531 . S
C1203 C1202 1.369 . S
C1203 C1204 1.410 . S
C1203 C1211 1.503 . S
C1204 C1203 1.410 . S
C1204 C1205 1.392 . S
C1204 C1207 1.511 . S
C1205 C1201 1.376 . S
C1205 C1204 1.392 . S
C1205 H1217 0.929 . S
C1206 C1202 1.531 . S
C1206 H1218 0.960 . S
C1206 H1219 0.962 . S
C1206 H1220 0.960 . S
C1207 C1204 1.511 . S
C1207 H1221 0.961 . S
C1207 H1222 0.961 . S
C1207 H1223 0.961 . S
C1208 C1209 1.370 . S
C1208 C1210 1.363 . S
C1208 H1224 0.931 . S
C1209 C1208 1.370 . S
C1209 C1213 1.408 . S
C1210 C1208 1.363 . S
C1210 C1211 1.370 . S
C1210 C1214 1.524 . S
C1211 C1203 1.503 . S
C1211 C1210 1.370 . S
C1211 C1212 1.403 . S
C1212 C1211 1.403 . S
C1212 C1213 1.404 . S
C1212 C1215 1.539 . S
C1213 C1209 1.408 . S
C1213 C1212 1.404 . S
C1213 H1225 0.930 . S
C1214 C1210 1.524 . S
C1214 H1226 0.956 . S
C1214 H1227 0.961 . S
C1214 H1228 0.961 . S
C1215 C1212 1.539 . S
C1215 H1229 0.958 . S
C1215 H1230 0.961 . S
C1215 H1231 0.960 . S
H1216 C1200 0.931 . S
H1217 C1205 0.929 . S
H1218 C1206 0.960 . S
H1219 C1206 0.962 . S
H1220 C1206 0.960 . S
H1221 C1207 0.961 . S
H1222 C1207 0.961 . S
H1223 C1207 0.961 . S
H1224 C1208 0.931 . S
H1225 C1213 0.930 . S
H1226 C1214 0.956 . S
H1227 C1214 0.961 . S
H1228 C1214 0.961 . S
H1229 C1215 0.958 . S
H1230 C1215 0.961 . S
H1231 C1215 0.960 . S
C1232 C1233 1.391 . S
C1232 C1234 1.394 . S
C1232 H1248 0.931 . S
C1233 C1232 1.391 . S
C1233 C1237 1.360 1_655 S
C1234 C1232 1.394 . S
C1234 C1235 1.369 . S
C1234 C1238 1.531 . S
C1235 C1234 1.369 . S
C1235 C1236 1.410 1_655 S
C1235 C1243 1.503 1_655 S
C1236 C1235 1.410 1_455 S
C1236 C1237 1.400 . S
C1236 C1239 1.511 . S
C1237 C1233 1.360 1_455 S
C1237 C1236 1.400 . S
C1237 H1249 0.938 . S
C1238 C1234 1.531 . S
C1238 H1250 0.960 . S
C1238 H1251 0.962 . S
C1238 H1252 0.960 . S
C1239 C1236 1.511 . S
C1239 H1253 0.961 . S
C1239 H1254 0.961 . S
C1239 H1255 0.961 . S
C1240 C1241 1.370 . S
C1240 C1242 1.363 1_455 S
C1240 H1256 0.931 1_455 S
C1241 C1240 1.370 . S
C1241 C1245 1.408 . S
C1242 C1240 1.363 1_655 S
C1242 C1243 1.370 1_655 S
C1242 C1246 1.524 . S
C1243 C1235 1.503 1_455 S
C1243 C1242 1.370 1_455 S
C1243 C1244 1.403 . S
C1244 C1243 1.403 . S
C1244 C1245 1.404 . S
C1244 C1247 1.539 . S
C1245 C1241 1.408 . S
C1245 C1244 1.404 . S
C1245 H1257 0.930 . S
C1246 C1242 1.524 . S
C1246 H1258 0.956 . S
C1246 H1259 0.961 . S
C1246 H1260 0.961 1_545 S
C1247 C1244 1.539 . S
C1247 H1261 0.958 . S
C1247 H1262 0.961 . S
C1247 H1263 0.960 . S
H1248 C1232 0.931 . S
H1249 C1237 0.938 . S
H1250 C1238 0.960 . S
H1251 C1238 0.962 . S
H1252 C1238 0.960 . S
H1253 C1239 0.961 . S
H1254 C1239 0.961 . S
H1255 C1239 0.961 . S
H1256 C1240 0.931 1_655 S
H1257 C1245 0.930 . S
H1258 C1246 0.956 . S
H1259 C1246 0.961 . S
H1260 C1246 0.961 1_565 S
H1261 C1247 0.958 . S
H1262 C1247 0.961 . S
H1263 C1247 0.960 . S
C1264 C1265 1.391 . S
C1264 C1266 1.394 . S
C1264 H1280 0.931 . S
C1265 C1264 1.391 . S
C1265 C1269 1.376 . S
C1266 C1264 1.394 . S
C1266 C1267 1.369 . S
C1266 C1270 1.531 . S
C1267 C1266 1.369 . S
C1267 C1268 1.410 . S
C1267 C1275 1.503 . S
C1268 C1267 1.410 . S
C1268 C1269 1.392 . S
C1268 C1271 1.511 . S
C1269 C1265 1.376 . S
C1269 C1268 1.392 . S
C1269 H1281 0.929 . S
C1270 C1266 1.531 . S
C1270 H1282 0.960 . S
C1270 H1283 0.962 . S
C1270 H1284 0.960 . S
C1271 C1268 1.511 . S
C1271 H1285 0.961 . S
C1271 H1286 0.961 . S
C1271 H1287 0.961 . S
C1272 C1273 1.370 . S
C1272 C1274 1.363 . S
C1272 H1288 0.931 . S
C1273 C1272 1.370 . S
C1273 C1277 1.408 . S
C1274 C1272 1.363 . S
C1274 C1275 1.370 . S
C1274 C1278 1.524 . S
C1275 C1267 1.503 . S
C1275 C1274 1.370 . S
C1275 C1276 1.403 . S
C1276 C1275 1.403 . S
C1276 C1277 1.404 . S
C1276 C1279 1.539 . S
C1277 C1273 1.408 . S
C1277 C1276 1.404 . S
C1277 H1289 0.930 . S
C1278 C1274 1.524 . S
C1278 H1290 0.956 . S
C1278 H1291 0.961 . S
C1278 H1292 0.961 . S
C1279 C1276 1.539 . S
C1279 H1293 0.958 . S
C1279 H1294 0.961 . S
C1279 H1295 0.960 . S
H1280 C1264 0.931 . S
H1281 C1269 0.929 . S
H1282 C1270 0.960 . S
H1283 C1270 0.962 . S
H1284 C1270 0.960 . S
H1285 C1271 0.961 . S
H1286 C1271 0.961 . S
H1287 C1271 0.961 . S
H1288 C1272 0.931 . S
H1289 C1277 0.930 . S
H1290 C1278 0.956 . S
H1291 C1278 0.961 . S
H1292 C1278 0.961 . S
H1293 C1279 0.958 . S
H1294 C1279 0.961 . S
H1295 C1279 0.960 . S
C1296 C1297 1.391 . S
C1296 C1298 1.394 . S
C1296 H1312 0.931 . S
C1297 C1296 1.391 . S
C1297 C1301 1.376 . S
C1298 C1296 1.394 . S
C1298 C1299 1.369 . S
C1298 C1302 1.531 . S
C1299 C1298 1.369 . S
C1299 C1300 1.410 . S
C1299 C1307 1.503 . S
C1300 C1299 1.410 . S
C1300 C1301 1.392 . S
C1300 C1303 1.511 . S
C1301 C1297 1.376 . S
C1301 C1300 1.392 . S
C1301 H1313 0.929 . S
C1302 C1298 1.531 . S
C1302 H1314 0.960 . S
C1302 H1315 0.962 . S
C1302 H1316 0.960 . S
C1303 C1300 1.511 . S
C1303 H1317 0.961 . S
C1303 H1318 0.961 . S
C1303 H1319 0.961 . S
C1304 C1305 1.370 . S
C1304 C1306 1.363 . S
C1304 H1320 0.931 . S
C1305 C1304 1.370 . S
C1305 C1309 1.408 . S
C1306 C1304 1.363 . S
C1306 C1307 1.370 . S
C1306 C1310 1.524 . S
C1307 C1299 1.503 . S
C1307 C1306 1.370 . S
C1307 C1308 1.403 . S
C1308 C1307 1.403 . S
C1308 C1309 1.404 . S
C1308 C1311 1.539 . S
C1309 C1305 1.408 . S
C1309 C1308 1.404 . S
C1309 H1321 0.930 . S
C1310 C1306 1.524 . S
C1310 H1322 0.956 . S
C1310 H1323 0.961 . S
C1310 H1324 0.961 . S
C1311 C1308 1.539 . S
C1311 H1325 0.958 . S
C1311 H1326 0.961 1_545 S
C1311 H1327 0.960 . S
H1312 C1296 0.931 . S
H1313 C1301 0.929 . S
H1314 C1302 0.960 . S
H1315 C1302 0.962 . S
H1316 C1302 0.960 . S
H1317 C1303 0.961 . S
H1318 C1303 0.961 . S
H1319 C1303 0.961 . S
H1320 C1304 0.931 . S
H1321 C1309 0.930 . S
H1322 C1310 0.956 . S
H1323 C1310 0.961 . S
H1324 C1310 0.961 . S
H1325 C1311 0.958 . S
H1326 C1311 0.961 1_565 S
H1327 C1311 0.960 . S
C1328 C1329 1.391 . S
C1328 C1330 1.394 . S
C1328 H1344 0.931 . S
C1329 C1328 1.391 . S
C1329 C1333 1.376 . S
C1330 C1328 1.394 . S
C1330 C1331 1.369 . S
C1330 C1334 1.531 . S
C1331 C1330 1.369 . S
C1331 C1332 1.410 . S
C1331 C1339 1.503 . S
C1332 C1331 1.410 . S
C1332 C1333 1.392 . S
C1332 C1335 1.511 . S
C1333 C1329 1.376 . S
C1333 C1332 1.392 . S
C1333 H1345 0.929 . S
C1334 C1330 1.531 . S
C1334 H1346 0.960 . S
C1334 H1347 0.962 . S
C1334 H1348 0.960 . S
C1335 C1332 1.511 . S
C1335 H1349 0.961 . S
C1335 H1350 0.961 . S
C1335 H1351 0.961 . S
C1336 C1337 1.370 . S
C1336 C1338 1.363 . S
C1336 H1352 0.931 . S
C1337 C1336 1.370 . S
C1337 C1341 1.408 . S
C1338 C1336 1.363 . S
C1338 C1339 1.370 . S
C1338 C1342 1.524 . S
C1339 C1331 1.503 . S
C1339 C1338 1.370 . S
C1339 C1340 1.403 . S
C1340 C1339 1.403 . S
C1340 C1341 1.404 . S
C1340 C1343 1.539 . S
C1341 C1337 1.408 . S
C1341 C1340 1.404 . S
C1341 H1353 0.930 . S
C1342 C1338 1.524 . S
C1342 H1354 0.956 . S
C1342 H1355 0.961 . S
C1342 H1356 0.961 . S
C1343 C1340 1.539 . S
C1343 H1357 0.958 . S
C1343 H1358 0.961 . S
C1343 H1359 0.960 . S
H1344 C1328 0.931 . S
H1345 C1333 0.929 . S
H1346 C1334 0.960 . S
H1347 C1334 0.962 . S
H1348 C1334 0.960 . S
H1349 C1335 0.961 . S
H1350 C1335 0.961 . S
H1351 C1335 0.961 . S
H1352 C1336 0.931 . S
H1353 C1341 0.930 . S
H1354 C1342 0.956 . S
H1355 C1342 0.961 . S
H1356 C1342 0.961 . S
H1357 C1343 0.958 . S
H1358 C1343 0.961 . S
H1359 C1343 0.960 . S
C1360 C1361 1.391 . S
C1360 C1362 1.394 . S
C1360 H1376 0.931 . S
C1361 C1360 1.391 . S
C1361 C1365 1.376 1_655 S
C1362 C1360 1.394 . S
C1362 C1363 1.369 . S
C1362 C1366 1.531 . S
C1363 C1362 1.369 . S
C1363 C1364 1.410 1_655 S
C1363 C1371 1.503 1_655 S
C1364 C1363 1.410 1_455 S
C1364 C1365 1.392 . S
C1364 C1367 1.511 . S
C1365 C1361 1.376 1_455 S
C1365 C1364 1.392 . S
C1365 H1377 0.929 . S
C1366 C1362 1.531 . S
C1366 H1378 0.960 . S
C1366 H1379 0.962 . S
C1366 H1380 0.960 1_545 S
C1367 C1364 1.511 . S
C1367 H1381 0.961 . S
C1367 H1382 0.961 . S
C1367 H1383 0.961 . S
C1368 C1369 1.370 . S
C1368 C1370 1.363 . S
C1368 H1384 0.931 . S
C1369 C1368 1.370 . S
C1369 C1373 1.408 . S
C1370 C1368 1.363 . S
C1370 C1371 1.370 . S
C1370 C1374 1.524 1_455 S
C1371 C1363 1.503 1_455 S
C1371 C1370 1.370 . S
C1371 C1372 1.403 . S
C1372 C1371 1.403 . S
C1372 C1373 1.404 . S
C1372 C1375 1.539 1_545 S
C1373 C1369 1.408 . S
C1373 C1372 1.404 . S
C1373 H1385 0.930 . S
C1374 C1370 1.524 1_655 S
C1374 H1386 0.956 . S
C1374 H1387 0.961 1_655 S
C1374 H1388 0.961 . S
C1375 C1372 1.539 1_565 S
C1375 H1389 0.951 1_455 S
C1375 H1390 0.961 . S
C1375 H1391 0.942 1_565 S
H1376 C1360 0.931 . S
H1377 C1365 0.929 . S
H1378 C1366 0.960 . S
H1379 C1366 0.962 . S
H1380 C1366 0.960 1_565 S
H1381 C1367 0.961 . S
H1382 C1367 0.961 . S
H1383 C1367 0.961 . S
H1384 C1368 0.931 . S
H1385 C1373 0.930 . S
H1386 C1374 0.956 . S
H1387 C1374 0.961 1_455 S
H1388 C1374 0.961 . S
H1389 C1375 0.951 1_655 S
H1390 C1375 0.961 . S
H1391 C1375 0.942 1_545 S
C1392 C1393 1.391 . S
C1392 C1394 1.394 . S
C1392 H1408 0.931 . S
C1393 C1392 1.391 . S
C1393 C1397 1.376 . S
C1394 C1392 1.394 . S
C1394 C1395 1.369 . S
C1394 C1398 1.531 . S
C1395 C1394 1.369 . S
C1395 C1396 1.410 . S
C1395 C1403 1.503 . S
C1396 C1395 1.410 . S
C1396 C1397 1.392 . S
C1396 C1399 1.511 . S
C1397 C1393 1.376 . S
C1397 C1396 1.392 . S
C1397 H1409 0.929 . S
C1398 C1394 1.531 . S
C1398 H1410 0.960 . S
C1398 H1411 0.962 . S
C1398 H1412 0.960 . S
C1399 C1396 1.511 . S
C1399 H1413 0.961 . S
C1399 H1414 0.961 . S
C1399 H1415 0.961 . S
C1400 C1401 1.370 . S
C1400 C1402 1.363 . S
C1400 H1416 0.931 . S
C1401 C1400 1.370 . S
C1401 C1405 1.408 . S
C1402 C1400 1.363 . S
C1402 C1403 1.370 . S
C1402 C1406 1.524 . S
C1403 C1395 1.503 . S
C1403 C1402 1.370 . S
C1403 C1404 1.403 . S
C1404 C1403 1.403 . S
C1404 C1405 1.404 . S
C1404 C1407 1.539 . S
C1405 C1401 1.408 . S
C1405 C1404 1.404 . S
C1405 H1417 0.930 . S
C1406 C1402 1.524 . S
C1406 H1418 0.956 . S
C1406 H1419 0.961 . S
C1406 H1420 0.961 . S
C1407 C1404 1.539 . S
C1407 H1421 0.958 . S
C1407 H1422 0.961 . S
C1407 H1423 0.960 . S
H1408 C1392 0.931 . S
H1409 C1397 0.929 . S
H1410 C1398 0.960 . S
H1411 C1398 0.962 . S
H1412 C1398 0.960 . S
H1413 C1399 0.961 . S
H1414 C1399 0.961 . S
H1415 C1399 0.961 . S
H1416 C1400 0.931 . S
H1417 C1405 0.930 . S
H1418 C1406 0.956 . S
H1419 C1406 0.961 . S
H1420 C1406 0.961 . S
H1421 C1407 0.958 . S
H1422 C1407 0.961 . S
H1423 C1407 0.960 . S
C1424 C1425 1.391 . S
C1424 C1426 1.394 . S
C1424 H1440 0.931 . S
C1425 C1424 1.391 . S
C1425 C1429 1.376 . S
C1426 C1424 1.394 . S
C1426 C1427 1.369 . S
C1426 C1430 1.531 . S
C1427 C1426 1.369 . S
C1427 C1428 1.410 . S
C1427 C1435 1.503 . S
C1428 C1427 1.410 . S
C1428 C1429 1.392 . S
C1428 C1431 1.511 . S
C1429 C1425 1.376 . S
C1429 C1428 1.392 . S
C1429 H1441 0.929 . S
C1430 C1426 1.531 . S
C1430 H1442 0.960 . S
C1430 H1443 0.962 . S
C1430 H1444 0.960 . S
C1431 C1428 1.511 . S
C1431 H1445 0.961 . S
C1431 H1446 0.961 . S
C1431 H1447 0.961 . S
C1432 C1433 1.370 . S
C1432 C1434 1.363 . S
C1432 H1448 0.931 . S
C1433 C1432 1.370 . S
C1433 C1437 1.408 . S
C1434 C1432 1.363 . S
C1434 C1435 1.370 . S
C1434 C1438 1.524 . S
C1435 C1427 1.503 . S
C1435 C1434 1.370 . S
C1435 C1436 1.403 . S
C1436 C1435 1.403 . S
C1436 C1437 1.404 . S
C1436 C1439 1.539 . S
C1437 C1433 1.408 . S
C1437 C1436 1.404 . S
C1437 H1449 0.930 . S
C1438 C1434 1.524 . S
C1438 H1450 0.956 . S
C1438 H1451 0.961 . S
C1438 H1452 0.961 . S
C1439 C1436 1.539 . S
C1439 H1453 0.958 . S
C1439 H1454 0.961 . S
C1439 H1455 0.960 . S
H1440 C1424 0.931 . S
H1441 C1429 0.929 . S
H1442 C1430 0.960 . S
H1443 C1430 0.962 . S
H1444 C1430 0.960 . S
H1445 C1431 0.961 . S
H1446 C1431 0.961 . S
H1447 C1431 0.961 . S
H1448 C1432 0.931 . S
H1449 C1437 0.930 . S
H1450 C1438 0.956 . S
H1451 C1438 0.961 . S
H1452 C1438 0.961 . S
H1453 C1439 0.958 . S
H1454 C1439 0.961 . S
H1455 C1439 0.960 . S
C1456 C1457 1.391 . S
C1456 C1458 1.394 . S
C1456 H1472 0.931 . S
C1457 C1456 1.391 . S
C1457 C1461 1.376 . S
C1458 C1456 1.394 . S
C1458 C1459 1.369 . S
C1458 C1462 1.531 . S
C1459 C1458 1.369 . S
C1459 C1460 1.410 . S
C1459 C1467 1.503 . S
C1460 C1459 1.410 . S
C1460 C1461 1.392 . S
C1460 C1463 1.511 . S
C1461 C1457 1.376 . S
C1461 C1460 1.392 . S
C1461 H1473 0.929 . S
C1462 C1458 1.531 . S
C1462 H1474 0.960 . S
C1462 H1475 0.962 . S
C1462 H1476 0.960 . S
C1463 C1460 1.511 . S
C1463 H1477 0.961 . S
C1463 H1478 0.961 . S
C1463 H1479 0.961 . S
C1464 C1465 1.370 . S
C1464 C1466 1.363 . S
C1464 H1480 0.931 . S
C1465 C1464 1.370 . S
C1465 C1469 1.408 . S
C1466 C1464 1.363 . S
C1466 C1467 1.370 . S
C1466 C1470 1.524 . S
C1467 C1459 1.503 . S
C1467 C1466 1.370 . S
C1467 C1468 1.403 . S
C1468 C1467 1.403 . S
C1468 C1469 1.404 . S
C1468 C1471 1.539 . S
C1469 C1465 1.408 . S
C1469 C1468 1.404 . S
C1469 H1481 0.930 . S
C1470 C1466 1.524 . S
C1470 H1482 0.956 . S
C1470 H1483 0.961 . S
C1470 H1484 0.961 . S
C1471 C1468 1.539 . S
C1471 H1485 0.958 . S
C1471 H1486 0.961 . S
C1471 H1487 0.960 . S
H1472 C1456 0.931 . S
H1473 C1461 0.929 . S
H1474 C1462 0.960 . S
H1475 C1462 0.962 . S
H1476 C1462 0.960 . S
H1477 C1463 0.961 . S
H1478 C1463 0.961 . S
H1479 C1463 0.961 . S
H1480 C1464 0.931 . S
H1481 C1469 0.930 . S
H1482 C1470 0.956 . S
H1483 C1470 0.961 . S
H1484 C1470 0.961 . S
H1485 C1471 0.958 . S
H1486 C1471 0.961 . S
H1487 C1471 0.960 . S
C1488 C1489 1.391 1_556 S
C1488 C1490 1.394 1_556 S
C1488 H1504 0.931 . S
C1489 C1488 1.391 1_554 S
C1489 C1493 1.376 . S
C1490 C1488 1.394 1_554 S
C1490 C1491 1.369 . S
C1490 C1494 1.531 . S
C1491 C1490 1.369 . S
C1491 C1492 1.410 . S
C1491 C1499 1.503 . S
C1492 C1491 1.410 . S
C1492 C1493 1.392 . S
C1492 C1495 1.511 . S
C1493 C1489 1.376 . S
C1493 C1492 1.392 . S
C1493 H1505 0.929 . S
C1494 C1490 1.531 . S
C1494 H1506 0.960 . S
C1494 H1507 0.962 1_554 S
C1494 H1508 0.960 1_554 S
C1495 C1492 1.511 . S
C1495 H1509 0.961 1_565 S
C1495 H1510 0.961 1_565 S
C1495 H1511 0.961 . S
C1496 C1497 1.370 . S
C1496 C1498 1.372 . S
C1496 H1512 0.931 . S
C1497 C1496 1.370 . S
C1497 C1501 1.408 1_545 S
C1498 C1496 1.372 . S
C1498 C1499 1.359 1_545 S
C1498 C1502 1.527 . S
C1499 C1491 1.503 . S
C1499 C1498 1.359 1_565 S
C1499 C1500 1.403 . S
C1500 C1499 1.403 . S
C1500 C1501 1.404 . S
C1500 C1503 1.539 . S
C1501 C1497 1.408 1_565 S
C1501 C1500 1.404 . S
C1501 H1513 0.930 . S
C1502 C1498 1.527 . S
C1502 H1514 0.956 1_544 S
C1502 H1515 0.961 . S
C1502 H1516 0.976 . S
C1503 C1500 1.539 . S
C1503 H1517 0.958 . S
C1503 H1518 0.961 . S
C1503 H1519 0.960 . S
H1504 C1488 0.931 . S
H1505 C1493 0.929 . S
H1506 C1494 0.960 . S
H1507 C1494 0.962 1_556 S
H1508 C1494 0.960 1_556 S
H1509 C1495 0.961 1_545 S
H1510 C1495 0.961 1_545 S
H1511 C1495 0.961 . S
H1512 C1496 0.931 . S
H1513 C1501 0.930 . S
H1514 C1502 0.956 1_566 S
H1515 C1502 0.961 . S
H1516 C1502 0.976 . S
H1517 C1503 0.958 . S
H1518 C1503 0.961 . S
H1519 C1503 0.960 . S
C1520 C1521 1.391 . S
C1520 C1522 1.394 . S
C1520 H1536 0.931 . S
C1521 C1520 1.391 . S
C1521 C1525 1.382 . S
C1522 C1520 1.394 . S
C1522 C1523 1.369 . S
C1522 C1526 1.531 . S
C1523 C1522 1.369 . S
C1523 C1524 1.382 1_554 S
C1523 C1531 1.503 . S
C1524 C1523 1.382 1_556 S
C1524 C1525 1.401 1_556 S
C1524 C1527 1.533 . S
C1525 C1521 1.382 . S
C1525 C1524 1.401 1_554 S
C1525 H1537 0.921 1_554 S
C1526 C1522 1.531 . S
C1526 H1538 0.960 . S
C1526 H1539 0.962 . S
C1526 H1540 0.960 . S
C1527 C1524 1.533 . S
C1527 H1541 0.961 . S
C1527 H1542 0.961 . S
C1527 H1543 0.961 . S
C1528 C1529 1.370 . S
C1528 C1530 1.363 . S
C1528 H1544 0.931 . S
C1529 C1528 1.370 . S
C1529 C1533 1.408 . S
C1530 C1528 1.363 . S
C1530 C1531 1.370 . S
C1530 C1534 1.524 . S
C1531 C1523 1.503 . S
C1531 C1530 1.370 . S
C1531 C1532 1.403 . S
C1532 C1531 1.403 . S
C1532 C1533 1.404 . S
C1532 C1535 1.539 1_554 S
C1533 C1529 1.408 . S
C1533 C1532 1.404 . S
C1533 H1545 0.930 1_554 S
C1534 C1530 1.524 . S
C1534 H1546 0.956 . S
C1534 H1547 0.961 . S
C1534 H1548 0.961 . S
C1535 C1532 1.539 1_556 S
C1535 H1549 0.958 . S
C1535 H1550 0.961 . S
C1535 H1551 0.960 . S
H1536 C1520 0.931 . S
H1537 C1525 0.921 1_556 S
H1538 C1526 0.960 . S
H1539 C1526 0.962 . S
H1540 C1526 0.960 . S
H1541 C1527 0.961 . S
H1542 C1527 0.961 . S
H1543 C1527 0.961 . S
H1544 C1528 0.931 . S
H1545 C1533 0.930 1_556 S
H1546 C1534 0.956 . S
H1547 C1534 0.961 . S
H1548 C1534 0.961 . S
H1549 C1535 0.958 . S
H1550 C1535 0.961 . S
H1551 C1535 0.960 . S
C1552 C1553 1.391 . S
C1552 C1554 1.394 . S
C1552 H1568 0.931 . S
C1553 C1552 1.391 . S
C1553 C1557 1.376 . S
C1554 C1552 1.394 . S
C1554 C1555 1.369 . S
C1554 C1558 1.531 . S
C1555 C1554 1.369 . S
C1555 C1556 1.410 . S
C1555 C1563 1.503 . S
C1556 C1555 1.410 . S
C1556 C1557 1.392 . S
C1556 C1559 1.511 . S
C1557 C1553 1.376 . S
C1557 C1556 1.392 . S
C1557 H1569 0.929 . S
C1558 C1554 1.531 . S
C1558 H1570 0.960 . S
C1558 H1571 0.962 . S
C1558 H1572 0.960 . S
C1559 C1556 1.511 . S
C1559 H1573 0.961 . S
C1559 H1574 0.961 . S
C1559 H1575 0.961 . S
C1560 C1561 1.370 . S
C1560 C1562 1.363 . S
C1560 H1576 0.931 . S
C1561 C1560 1.370 . S
C1561 C1565 1.408 . S
C1562 C1560 1.363 . S
C1562 C1563 1.370 . S
C1562 C1566 1.524 . S
C1563 C1555 1.503 . S
C1563 C1562 1.370 . S
C1563 C1564 1.403 . S
C1564 C1563 1.403 . S
C1564 C1565 1.404 . S
C1564 C1567 1.539 . S
C1565 C1561 1.408 . S
C1565 C1564 1.404 . S
C1565 H1577 0.930 . S
C1566 C1562 1.524 . S
C1566 H1578 0.956 . S
C1566 H1579 0.961 . S
C1566 H1580 0.961 . S
C1567 C1564 1.539 . S
C1567 H1581 0.958 . S
C1567 H1582 0.961 . S
C1567 H1583 0.960 . S
H1568 C1552 0.931 . S
H1569 C1557 0.929 . S
H1570 C1558 0.960 . S
H1571 C1558 0.962 . S
H1572 C1558 0.960 . S
H1573 C1559 0.961 . S
H1574 C1559 0.961 . S
H1575 C1559 0.961 . S
H1576 C1560 0.931 . S
H1577 C1565 0.930 . S
H1578 C1566 0.956 . S
H1579 C1566 0.961 . S
H1580 C1566 0.961 . S
H1581 C1567 0.958 . S
H1582 C1567 0.961 . S
H1583 C1567 0.960 . S
C1584 C1585 1.391 . S
C1584 C1586 1.394 . S
C1584 H1600 0.931 . S
C1585 C1584 1.391 . S
C1585 C1589 1.376 . S
C1586 C1584 1.394 . S
C1586 C1587 1.369 . S
C1586 C1590 1.531 . S
C1587 C1586 1.369 . S
C1587 C1588 1.410 . S
C1587 C1595 1.503 . S
C1588 C1587 1.410 . S
C1588 C1589 1.392 . S
C1588 C1591 1.511 . S
C1589 C1585 1.376 . S
C1589 C1588 1.392 . S
C1589 H1601 0.929 . S
C1590 C1586 1.531 . S
C1590 H1602 0.960 . S
C1590 H1603 0.962 . S
C1590 H1604 0.960 . S
C1591 C1588 1.511 . S
C1591 H1605 0.961 . S
C1591 H1606 0.961 . S
C1591 H1607 0.961 . S
C1592 C1593 1.370 . S
C1592 C1594 1.363 . S
C1592 H1608 0.931 . S
C1593 C1592 1.370 . S
C1593 C1597 1.408 . S
C1594 C1592 1.363 . S
C1594 C1595 1.370 . S
C1594 C1598 1.524 . S
C1595 C1587 1.503 . S
C1595 C1594 1.370 . S
C1595 C1596 1.403 . S
C1596 C1595 1.403 . S
C1596 C1597 1.404 . S
C1596 C1599 1.539 . S
C1597 C1593 1.408 . S
C1597 C1596 1.404 . S
C1597 H1609 0.930 . S
C1598 C1594 1.524 . S
C1598 H1610 0.956 . S
C1598 H1611 0.961 . S
C1598 H1612 0.961 . S
C1599 C1596 1.539 . S
C1599 H1613 0.958 . S
C1599 H1614 0.961 . S
C1599 H1615 0.960 . S
H1600 C1584 0.931 . S
H1601 C1589 0.929 . S
H1602 C1590 0.960 . S
H1603 C1590 0.962 . S
H1604 C1590 0.960 . S
H1605 C1591 0.961 . S
H1606 C1591 0.961 . S
H1607 C1591 0.961 . S
H1608 C1592 0.931 . S
H1609 C1597 0.930 . S
H1610 C1598 0.956 . S
H1611 C1598 0.961 . S
H1612 C1598 0.961 . S
H1613 C1599 0.958 . S
H1614 C1599 0.961 . S
H1615 C1599 0.960 . S
C1616 C1617 1.391 . S
C1616 C1618 1.394 . S
C1616 H1632 0.931 . S
C1617 C1616 1.391 . S
C1617 C1621 1.376 . S
C1618 C1616 1.394 . S
C1618 C1619 1.369 . S
C1618 C1622 1.531 . S
C1619 C1618 1.369 . S
C1619 C1620 1.410 . S
C1619 C1627 1.503 . S
C1620 C1619 1.410 . S
C1620 C1621 1.392 . S
C1620 C1623 1.511 . S
C1621 C1617 1.376 . S
C1621 C1620 1.392 . S
C1621 H1633 0.929 . S
C1622 C1618 1.531 . S
C1622 H1634 0.960 . S
C1622 H1635 0.962 . S
C1622 H1636 0.960 . S
C1623 C1620 1.511 . S
C1623 H1637 0.961 . S
C1623 H1638 0.961 . S
C1623 H1639 0.961 . S
C1624 C1625 1.370 . S
C1624 C1626 1.363 . S
C1624 H1640 0.931 . S
C1625 C1624 1.370 . S
C1625 C1629 1.408 . S
C1626 C1624 1.363 . S
C1626 C1627 1.370 . S
C1626 C1630 1.524 . S
C1627 C1619 1.503 . S
C1627 C1626 1.370 . S
C1627 C1628 1.403 . S
C1628 C1627 1.403 . S
C1628 C1629 1.404 . S
C1628 C1631 1.539 . S
C1629 C1625 1.408 . S
C1629 C1628 1.404 . S
C1629 H1641 0.930 . S
C1630 C1626 1.524 . S
C1630 H1642 0.956 . S
C1630 H1643 0.961 . S
C1630 H1644 0.961 . S
C1631 C1628 1.539 . S
C1631 H1645 0.958 . S
C1631 H1646 0.961 . S
C1631 H1647 0.960 . S
H1632 C1616 0.931 . S
H1633 C1621 0.929 . S
H1634 C1622 0.960 . S
H1635 C1622 0.962 . S
H1636 C1622 0.960 . S
H1637 C1623 0.961 . S
H1638 C1623 0.961 . S
H1639 C1623 0.961 . S
H1640 C1624 0.931 . S
H1641 C1629 0.930 . S
H1642 C1630 0.956 . S
H1643 C1630 0.961 . S
H1644 C1630 0.961 . S
H1645 C1631 0.958 . S
H1646 C1631 0.961 . S
H1647 C1631 0.960 . S
C1648 C1649 1.391 . S
C1648 C1650 1.394 . S
C1648 H1664 0.931 . S
C1649 C1648 1.391 . S
C1649 C1653 1.376 . S
C1650 C1648 1.394 . S
C1650 C1651 1.369 . S
C1650 C1654 1.531 . S
C1651 C1650 1.369 . S
C1651 C1652 1.410 . S
C1651 C1659 1.503 . S
C1652 C1651 1.410 . S
C1652 C1653 1.392 . S
C1652 C1655 1.511 . S
C1653 C1649 1.376 . S
C1653 C1652 1.392 . S
C1653 H1665 0.929 . S
C1654 C1650 1.531 . S
C1654 H1666 0.960 . S
C1654 H1667 0.962 . S
C1654 H1668 0.960 . S
C1655 C1652 1.511 . S
C1655 H1669 0.961 . S
C1655 H1670 0.961 . S
C1655 H1671 0.961 . S
C1656 C1657 1.370 . S
C1656 C1658 1.363 . S
C1656 H1672 0.931 . S
C1657 C1656 1.370 . S
C1657 C1661 1.408 . S
C1658 C1656 1.363 . S
C1658 C1659 1.370 . S
C1658 C1662 1.524 . S
C1659 C1651 1.503 . S
C1659 C1658 1.370 . S
C1659 C1660 1.403 . S
C1660 C1659 1.403 . S
C1660 C1661 1.404 . S
C1660 C1663 1.539 . S
C1661 C1657 1.408 . S
C1661 C1660 1.404 . S
C1661 H1673 0.930 . S
C1662 C1658 1.524 . S
C1662 H1674 0.956 . S
C1662 H1675 0.961 . S
C1662 H1676 0.961 . S
C1663 C1660 1.539 . S
C1663 H1677 0.958 . S
C1663 H1678 0.961 . S
C1663 H1679 0.960 . S
H1664 C1648 0.931 . S
H1665 C1653 0.929 . S
H1666 C1654 0.960 . S
H1667 C1654 0.962 . S
H1668 C1654 0.960 . S
H1669 C1655 0.961 . S
H1670 C1655 0.961 . S
H1671 C1655 0.961 . S
H1672 C1656 0.931 . S
H1673 C1661 0.930 . S
H1674 C1662 0.956 . S
H1675 C1662 0.961 . S
H1676 C1662 0.961 . S
H1677 C1663 0.958 . S
H1678 C1663 0.961 . S
H1679 C1663 0.960 . S
C1680 C1681 1.391 . S
C1680 C1682 1.394 . S
C1680 H1696 0.931 . S
C1681 C1680 1.391 . S
C1681 C1685 1.376 . S
C1682 C1680 1.394 . S
C1682 C1683 1.369 . S
C1682 C1686 1.531 . S
C1683 C1682 1.369 . S
C1683 C1684 1.410 . S
C1683 C1691 1.503 . S
C1684 C1683 1.410 . S
C1684 C1685 1.392 . S
C1684 C1687 1.511 . S
C1685 C1681 1.376 . S
C1685 C1684 1.392 . S
C1685 H1697 0.929 . S
C1686 C1682 1.531 . S
C1686 H1698 0.960 . S
C1686 H1699 0.962 . S
C1686 H1700 0.960 . S
C1687 C1684 1.511 . S
C1687 H1701 0.961 . S
C1687 H1702 0.961 . S
C1687 H1703 0.961 . S
C1688 C1689 1.370 . S
C1688 C1690 1.363 . S
C1688 H1704 0.931 . S
C1689 C1688 1.370 . S
C1689 C1693 1.408 . S
C1690 C1688 1.363 . S
C1690 C1691 1.370 . S
C1690 C1694 1.524 . S
C1691 C1683 1.503 . S
C1691 C1690 1.370 . S
C1691 C1692 1.403 . S
C1692 C1691 1.403 . S
C1692 C1693 1.404 . S
C1692 C1695 1.539 . S
C1693 C1689 1.408 . S
C1693 C1692 1.404 . S
C1693 H1705 0.930 . S
C1694 C1690 1.524 . S
C1694 H1706 0.956 . S
C1694 H1707 0.961 . S
C1694 H1708 0.961 . S
C1695 C1692 1.539 . S
C1695 H1709 0.958 . S
C1695 H1710 0.961 . S
C1695 H1711 0.960 . S
H1696 C1680 0.931 . S
H1697 C1685 0.929 . S
H1698 C1686 0.960 . S
H1699 C1686 0.962 . S
H1700 C1686 0.960 . S
H1701 C1687 0.961 . S
H1702 C1687 0.961 . S
H1703 C1687 0.961 . S
H1704 C1688 0.931 . S
H1705 C1693 0.930 . S
H1706 C1694 0.956 . S
H1707 C1694 0.961 . S
H1708 C1694 0.961 . S
H1709 C1695 0.958 . S
H1710 C1695 0.961 . S
H1711 C1695 0.960 . S
C1712 C1713 1.391 . S
C1712 C1714 1.394 . S
C1712 H1728 0.931 . S
C1713 C1712 1.391 . S
C1713 C1717 1.376 . S
C1714 C1712 1.394 . S
C1714 C1715 1.369 . S
C1714 C1718 1.531 . S
C1715 C1714 1.369 . S
C1715 C1716 1.410 . S
C1715 C1723 1.503 . S
C1716 C1715 1.410 . S
C1716 C1717 1.392 . S
C1716 C1719 1.511 . S
C1717 C1713 1.376 . S
C1717 C1716 1.392 . S
C1717 H1729 0.929 . S
C1718 C1714 1.531 . S
C1718 H1730 0.960 . S
C1718 H1731 0.962 . S
C1718 H1732 0.960 . S
C1719 C1716 1.511 . S
C1719 H1733 0.961 . S
C1719 H1734 0.961 . S
C1719 H1735 0.961 . S
C1720 C1721 1.370 . S
C1720 C1722 1.363 . S
C1720 H1736 0.931 . S
C1721 C1720 1.370 . S
C1721 C1725 1.408 . S
C1722 C1720 1.363 . S
C1722 C1723 1.370 . S
C1722 C1726 1.524 . S
C1723 C1715 1.503 . S
C1723 C1722 1.370 . S
C1723 C1724 1.403 . S
C1724 C1723 1.403 . S
C1724 C1725 1.404 . S
C1724 C1727 1.539 . S
C1725 C1721 1.408 . S
C1725 C1724 1.404 . S
C1725 H1737 0.930 . S
C1726 C1722 1.524 . S
C1726 H1738 0.956 . S
C1726 H1739 0.961 . S
C1726 H1740 0.961 . S
C1727 C1724 1.539 . S
C1727 H1741 0.958 . S
C1727 H1742 0.961 . S
C1727 H1743 0.960 . S
H1728 C1712 0.931 . S
H1729 C1717 0.929 . S
H1730 C1718 0.960 . S
H1731 C1718 0.962 . S
H1732 C1718 0.960 . S
H1733 C1719 0.961 . S
H1734 C1719 0.961 . S
H1735 C1719 0.961 . S
H1736 C1720 0.931 . S
H1737 C1725 0.930 . S
H1738 C1726 0.956 . S
H1739 C1726 0.961 . S
H1740 C1726 0.961 . S
H1741 C1727 0.958 . S
H1742 C1727 0.961 . S
H1743 C1727 0.960 . S
C1744 C1745 1.391 . S
C1744 C1746 1.394 . S
C1744 H1760 0.931 . S
C1745 C1744 1.391 . S
C1745 C1749 1.376 . S
C1746 C1744 1.394 . S
C1746 C1747 1.369 . S
C1746 C1750 1.531 . S
C1747 C1746 1.369 . S
C1747 C1748 1.410 . S
C1747 C1755 1.503 . S
C1748 C1747 1.410 . S
C1748 C1749 1.392 . S
C1748 C1751 1.511 . S
C1749 C1745 1.376 . S
C1749 C1748 1.392 . S
C1749 H1761 0.929 . S
C1750 C1746 1.531 . S
C1750 H1762 0.960 . S
C1750 H1763 0.962 . S
C1750 H1764 0.960 . S
C1751 C1748 1.511 . S
C1751 H1765 0.961 . S
C1751 H1766 0.961 . S
C1751 H1767 0.961 . S
C1752 C1753 1.370 . S
C1752 C1754 1.363 . S
C1752 H1768 0.931 . S
C1753 C1752 1.370 . S
C1753 C1757 1.408 . S
C1754 C1752 1.363 . S
C1754 C1755 1.370 . S
C1754 C1758 1.524 . S
C1755 C1747 1.503 . S
C1755 C1754 1.370 . S
C1755 C1756 1.403 . S
C1756 C1755 1.403 . S
C1756 C1757 1.404 . S
C1756 C1759 1.539 . S
C1757 C1753 1.408 . S
C1757 C1756 1.404 . S
C1757 H1769 0.930 . S
C1758 C1754 1.524 . S
C1758 H1770 0.956 . S
C1758 H1771 0.961 . S
C1758 H1772 0.961 . S
C1759 C1756 1.539 . S
C1759 H1773 0.958 1_554 S
C1759 H1774 0.961 1_554 S
C1759 H1775 0.960 . S
H1760 C1744 0.931 . S
H1761 C1749 0.929 . S
H1762 C1750 0.960 . S
H1763 C1750 0.962 . S
H1764 C1750 0.960 . S
H1765 C1751 0.961 . S
H1766 C1751 0.961 . S
H1767 C1751 0.961 . S
H1768 C1752 0.931 . S
H1769 C1757 0.930 . S
H1770 C1758 0.956 . S
H1771 C1758 0.961 . S
H1772 C1758 0.961 . S
H1773 C1759 0.958 1_556 S
H1774 C1759 0.961 1_556 S
H1775 C1759 0.960 . S
C1776 C1777 1.391 . S
C1776 C1778 1.394 . S
C1776 H1792 0.931 . S
C1777 C1776 1.391 . S
C1777 C1781 1.376 . S
C1778 C1776 1.394 . S
C1778 C1779 1.369 . S
C1778 C1782 1.531 . S
C1779 C1778 1.369 . S
C1779 C1780 1.410 . S
C1779 C1787 1.503 . S
C1780 C1779 1.410 . S
C1780 C1781 1.392 . S
C1780 C1783 1.511 . S
C1781 C1777 1.376 . S
C1781 C1780 1.392 . S
C1781 H1793 0.929 . S
C1782 C1778 1.531 . S
C1782 H1794 0.960 . S
C1782 H1795 0.962 . S
C1782 H1796 0.960 . S
C1783 C1780 1.511 . S
C1783 H1797 0.961 . S
C1783 H1798 0.961 . S
C1783 H1799 0.961 . S
C1784 C1785 1.370 . S
C1784 C1786 1.363 . S
C1784 H1800 0.931 . S
C1785 C1784 1.370 . S
C1785 C1789 1.408 . S
C1786 C1784 1.363 . S
C1786 C1787 1.370 . S
C1786 C1790 1.524 . S
C1787 C1779 1.503 . S
C1787 C1786 1.370 . S
C1787 C1788 1.403 . S
C1788 C1787 1.403 . S
C1788 C1789 1.404 . S
C1788 C1791 1.539 . S
C1789 C1785 1.408 . S
C1789 C1788 1.404 . S
C1789 H1801 0.930 . S
C1790 C1786 1.524 . S
C1790 H1802 0.956 . S
C1790 H1803 0.961 . S
C1790 H1804 0.961 . S
C1791 C1788 1.539 . S
C1791 H1805 0.958 . S
C1791 H1806 0.961 . S
C1791 H1807 0.960 . S
H1792 C1776 0.931 . S
H1793 C1781 0.929 . S
H1794 C1782 0.960 . S
H1795 C1782 0.962 . S
H1796 C1782 0.960 . S
H1797 C1783 0.961 . S
H1798 C1783 0.961 . S
H1799 C1783 0.961 . S
H1800 C1784 0.931 . S
H1801 C1789 0.930 . S
H1802 C1790 0.956 . S
H1803 C1790 0.961 . S
H1804 C1790 0.961 . S
H1805 C1791 0.958 . S
H1806 C1791 0.961 . S
H1807 C1791 0.960 . S
C1808 C1809 1.391 . S
C1808 C1810 1.394 . S
C1808 H1824 0.931 . S
C1809 C1808 1.391 . S
C1809 C1813 1.376 . S
C1810 C1808 1.394 . S
C1810 C1811 1.369 . S
C1810 C1814 1.531 . S
C1811 C1810 1.369 . S
C1811 C1812 1.410 . S
C1811 C1819 1.503 . S
C1812 C1811 1.410 . S
C1812 C1813 1.392 . S
C1812 C1815 1.511 . S
C1813 C1809 1.376 . S
C1813 C1812 1.392 . S
C1813 H1825 0.929 . S
C1814 C1810 1.531 . S
C1814 H1826 0.960 . S
C1814 H1827 0.962 . S
C1814 H1828 0.960 . S
C1815 C1812 1.511 . S
C1815 H1829 0.961 . S
C1815 H1830 0.961 . S
C1815 H1831 0.961 . S
C1816 C1817 1.370 . S
C1816 C1818 1.363 . S
C1816 H1832 0.931 . S
C1817 C1816 1.370 . S
C1817 C1821 1.408 . S
C1818 C1816 1.363 . S
C1818 C1819 1.370 . S
C1818 C1822 1.524 . S
C1819 C1811 1.503 . S
C1819 C1818 1.370 . S
C1819 C1820 1.403 . S
C1820 C1819 1.403 . S
C1820 C1821 1.404 . S
C1820 C1823 1.539 . S
C1821 C1817 1.408 . S
C1821 C1820 1.404 . S
C1821 H1833 0.930 . S
C1822 C1818 1.524 . S
C1822 H1834 0.956 . S
C1822 H1835 0.961 . S
C1822 H1836 0.961 . S
C1823 C1820 1.539 . S
C1823 H1837 0.958 . S
C1823 H1838 0.961 . S
C1823 H1839 0.960 . S
H1824 C1808 0.931 . S
H1825 C1813 0.929 . S
H1826 C1814 0.960 . S
H1827 C1814 0.962 . S
H1828 C1814 0.960 . S
H1829 C1815 0.961 . S
H1830 C1815 0.961 . S
H1831 C1815 0.961 . S
H1832 C1816 0.931 . S
H1833 C1821 0.930 . S
H1834 C1822 0.956 . S
H1835 C1822 0.961 . S
H1836 C1822 0.961 . S
H1837 C1823 0.958 . S
H1838 C1823 0.961 . S
H1839 C1823 0.960 . S
C1840 C1841 1.391 . S
C1840 C1842 1.394 . S
C1840 H1856 0.931 . S
C1841 C1840 1.391 . S
C1841 C1845 1.376 . S
C1842 C1840 1.394 . S
C1842 C1843 1.369 . S
C1842 C1846 1.531 . S
C1843 C1842 1.369 . S
C1843 C1844 1.410 . S
C1843 C1851 1.503 . S
C1844 C1843 1.410 . S
C1844 C1845 1.392 . S
C1844 C1847 1.511 . S
C1845 C1841 1.376 . S
C1845 C1844 1.392 . S
C1845 H1857 0.929 . S
C1846 C1842 1.531 . S
C1846 H1858 0.960 . S
C1846 H1859 0.962 . S
C1846 H1860 0.960 . S
C1847 C1844 1.511 . S
C1847 H1861 0.961 . S
C1847 H1862 0.961 . S
C1847 H1863 0.961 . S
C1848 C1849 1.370 . S
C1848 C1850 1.363 . S
C1848 H1864 0.931 . S
C1849 C1848 1.370 . S
C1849 C1853 1.408 . S
C1850 C1848 1.363 . S
C1850 C1851 1.370 . S
C1850 C1854 1.524 . S
C1851 C1843 1.503 . S
C1851 C1850 1.370 . S
C1851 C1852 1.403 . S
C1852 C1851 1.403 . S
C1852 C1853 1.404 . S
C1852 C1855 1.539 . S
C1853 C1849 1.408 . S
C1853 C1852 1.404 . S
C1853 H1865 0.930 . S
C1854 C1850 1.524 . S
C1854 H1866 0.956 . S
C1854 H1867 0.961 . S
C1854 H1868 0.961 . S
C1855 C1852 1.539 . S
C1855 H1869 0.958 . S
C1855 H1870 0.961 . S
C1855 H1871 0.960 . S
H1856 C1840 0.931 . S
H1857 C1845 0.929 . S
H1858 C1846 0.960 . S
H1859 C1846 0.962 . S
H1860 C1846 0.960 . S
H1861 C1847 0.961 . S
H1862 C1847 0.961 . S
H1863 C1847 0.961 . S
H1864 C1848 0.931 . S
H1865 C1853 0.930 . S
H1866 C1854 0.956 . S
H1867 C1854 0.961 . S
H1868 C1854 0.961 . S
H1869 C1855 0.958 . S
H1870 C1855 0.961 . S
H1871 C1855 0.960 . S
C1872 C1873 1.391 . S
C1872 C1874 1.394 . S
C1872 H1888 0.931 . S
C1873 C1872 1.391 . S
C1873 C1877 1.376 . S
C1874 C1872 1.394 . S
C1874 C1875 1.369 . S
C1874 C1878 1.546 . S
C1875 C1874 1.369 . S
C1875 C1876 1.410 . S
C1875 C1883 1.503 . S
C1876 C1875 1.410 . S
C1876 C1877 1.392 . S
C1876 C1879 1.511 . S
C1877 C1873 1.376 . S
C1877 C1876 1.392 . S
C1877 H1889 0.929 . S
C1878 C1874 1.546 . S
C1878 H1890 0.952 1_455 S
C1878 H1891 0.976 . S
C1878 H1892 0.940 1_455 S
C1879 C1876 1.511 . S
C1879 H1893 0.961 . S
C1879 H1894 0.961 . S
C1879 H1895 0.961 . S
C1880 C1881 1.370 . S
C1880 C1882 1.363 . S
C1880 H1896 0.931 . S
C1881 C1880 1.370 . S
C1881 C1885 1.408 1_455 S
C1882 C1880 1.363 . S
C1882 C1883 1.370 . S
C1882 C1886 1.524 . S
C1883 C1875 1.503 . S
C1883 C1882 1.370 . S
C1883 C1884 1.403 1_455 S
C1884 C1883 1.403 1_655 S
C1884 C1885 1.404 . S
C1884 C1887 1.539 . S
C1885 C1881 1.408 1_655 S
C1885 C1884 1.404 . S
C1885 H1897 0.930 . S
C1886 C1882 1.524 . S
C1886 H1898 0.956 . S
C1886 H1899 0.961 . S
C1886 H1900 0.961 . S
C1887 C1884 1.539 . S
C1887 H1901 0.958 . S
C1887 H1902 0.961 . S
C1887 H1903 0.960 . S
H1888 C1872 0.931 . S
H1889 C1877 0.929 . S
H1890 C1878 0.952 1_655 S
H1891 C1878 0.976 . S
H1892 C1878 0.940 1_655 S
H1893 C1879 0.961 . S
H1894 C1879 0.961 . S
H1895 C1879 0.961 . S
H1896 C1880 0.931 . S
H1897 C1885 0.930 . S
H1898 C1886 0.956 . S
H1899 C1886 0.961 . S
H1900 C1886 0.961 . S
H1901 C1887 0.958 . S
H1902 C1887 0.961 . S
H1903 C1887 0.960 . S
C1904 C1905 1.391 . S
C1904 C1906 1.394 . S
C1904 H1920 0.931 . S
C1905 C1904 1.391 . S
C1905 C1909 1.376 . S
C1906 C1904 1.394 . S
C1906 C1907 1.369 . S
C1906 C1910 1.531 . S
C1907 C1906 1.369 . S
C1907 C1908 1.410 . S
C1907 C1915 1.503 . S
C1908 C1907 1.410 . S
C1908 C1909 1.392 . S
C1908 C1911 1.511 . S
C1909 C1905 1.376 . S
C1909 C1908 1.392 . S
C1909 H1921 0.929 . S
C1910 C1906 1.531 . S
C1910 H1922 0.960 . S
C1910 H1923 0.962 . S
C1910 H1924 0.960 . S
C1911 C1908 1.511 . S
C1911 H1925 0.961 . S
C1911 H1926 0.961 . S
C1911 H1927 0.961 . S
C1912 C1913 1.370 . S
C1912 C1914 1.363 . S
C1912 H1928 0.931 . S
C1913 C1912 1.370 . S
C1913 C1917 1.408 . S
C1914 C1912 1.363 . S
C1914 C1915 1.370 . S
C1914 C1918 1.524 . S
C1915 C1907 1.503 . S
C1915 C1914 1.370 . S
C1915 C1916 1.403 . S
C1916 C1915 1.403 . S
C1916 C1917 1.404 . S
C1916 C1919 1.539 . S
C1917 C1913 1.408 . S
C1917 C1916 1.404 . S
C1917 H1929 0.930 . S
C1918 C1914 1.524 . S
C1918 H1930 0.956 . S
C1918 H1931 0.961 . S
C1918 H1932 0.961 . S
C1919 C1916 1.539 . S
C1919 H1933 0.958 . S
C1919 H1934 0.961 . S
C1919 H1935 0.960 . S
H1920 C1904 0.931 . S
H1921 C1909 0.929 . S
H1922 C1910 0.960 . S
H1923 C1910 0.962 . S
H1924 C1910 0.960 . S
H1925 C1911 0.961 . S
H1926 C1911 0.961 . S
H1927 C1911 0.961 . S
H1928 C1912 0.931 . S
H1929 C1917 0.930 . S
H1930 C1918 0.956 . S
H1931 C1918 0.961 . S
H1932 C1918 0.961 . S
H1933 C1919 0.958 . S
H1934 C1919 0.961 . S
H1935 C1919 0.960 . S
C1936 C1937 1.391 . S
C1936 C1938 1.394 . S
C1936 H1952 0.931 . S
C1937 C1936 1.391 . S
C1937 C1941 1.376 . S
C1938 C1936 1.394 . S
C1938 C1939 1.369 . S
C1938 C1942 1.531 . S
C1939 C1938 1.369 . S
C1939 C1940 1.410 . S
C1939 C1947 1.503 . S
C1940 C1939 1.410 . S
C1940 C1941 1.392 . S
C1940 C1943 1.511 . S
C1941 C1937 1.376 . S
C1941 C1940 1.392 . S
C1941 H1953 0.929 . S
C1942 C1938 1.531 . S
C1942 H1954 0.960 . S
C1942 H1955 0.962 . S
C1942 H1956 0.960 . S
C1943 C1940 1.511 . S
C1943 H1957 0.961 . S
C1943 H1958 0.961 . S
C1943 H1959 0.961 . S
C1944 C1945 1.370 . S
C1944 C1946 1.363 . S
C1944 H1960 0.931 . S
C1945 C1944 1.370 . S
C1945 C1949 1.408 . S
C1946 C1944 1.363 . S
C1946 C1947 1.370 . S
C1946 C1950 1.524 . S
C1947 C1939 1.503 . S
C1947 C1946 1.370 . S
C1947 C1948 1.403 . S
C1948 C1947 1.403 . S
C1948 C1949 1.404 . S
C1948 C1951 1.539 . S
C1949 C1945 1.408 . S
C1949 C1948 1.404 . S
C1949 H1961 0.930 1_565 S
C1950 C1946 1.524 . S
C1950 H1962 0.956 . S
C1950 H1963 0.961 . S
C1950 H1964 0.961 . S
C1951 C1948 1.539 . S
C1951 H1965 0.958 . S
C1951 H1966 0.961 . S
C1951 H1967 0.960 . S
H1952 C1936 0.931 . S
H1953 C1941 0.929 . S
H1954 C1942 0.960 . S
H1955 C1942 0.962 . S
H1956 C1942 0.960 . S
H1957 C1943 0.961 . S
H1958 C1943 0.961 . S
H1959 C1943 0.961 . S
H1960 C1944 0.931 . S
H1961 C1949 0.930 1_545 S
H1962 C1950 0.956 . S
H1963 C1950 0.961 . S
H1964 C1950 0.961 . S
H1965 C1951 0.958 . S
H1966 C1951 0.961 . S
H1967 C1951 0.960 . S
C1968 C1969 1.391 . S
C1968 C1970 1.394 . S
C1968 H1984 0.931 . S
C1969 C1968 1.391 . S
C1969 C1973 1.376 . S
C1970 C1968 1.394 . S
C1970 C1971 1.369 . S
C1970 C1974 1.531 . S
C1971 C1970 1.369 . S
C1971 C1972 1.410 . S
C1971 C1979 1.503 . S
C1972 C1971 1.410 . S
C1972 C1973 1.392 . S
C1972 C1975 1.511 . S
C1973 C1969 1.376 . S
C1973 C1972 1.392 . S
C1973 H1985 0.929 . S
C1974 C1970 1.531 . S
C1974 H1986 0.960 . S
C1974 H1987 0.962 . S
C1974 H1988 0.960 . S
C1975 C1972 1.511 . S
C1975 H1989 0.961 . S
C1975 H1990 0.961 . S
C1975 H1991 0.961 . S
C1976 C1977 1.370 . S
C1976 C1978 1.363 . S
C1976 H1992 0.931 . S
C1977 C1976 1.370 . S
C1977 C1981 1.408 . S
C1978 C1976 1.363 . S
C1978 C1979 1.370 . S
C1978 C1982 1.524 . S
C1979 C1971 1.503 . S
C1979 C1978 1.370 . S
C1979 C1980 1.403 . S
C1980 C1979 1.403 . S
C1980 C1981 1.404 . S
C1980 C1983 1.539 . S
C1981 C1977 1.408 . S
C1981 C1980 1.404 . S
C1981 H1993 0.930 . S
C1982 C1978 1.524 . S
C1982 H1994 0.956 . S
C1982 H1995 0.961 . S
C1982 H1996 0.961 . S
C1983 C1980 1.539 . S
C1983 H1997 0.958 . S
C1983 H1998 0.961 . S
C1983 H1999 0.960 . S
H1984 C1968 0.931 . S
H1985 C1973 0.929 . S
H1986 C1974 0.960 . S
H1987 C1974 0.962 . S
H1988 C1974 0.960 . S
H1989 C1975 0.961 . S
H1990 C1975 0.961 . S
H1991 C1975 0.961 . S
H1992 C1976 0.931 . S
H1993 C1981 0.930 . S
H1994 C1982 0.956 . S
H1995 C1982 0.961 . S
H1996 C1982 0.961 . S
H1997 C1983 0.958 . S
H1998 C1983 0.961 . S
H1999 C1983 0.960 . S
C2000 C2001 1.391 . S
C2000 C2002 1.394 . S
C2000 H2016 0.931 . S
C2001 C2000 1.391 . S
C2001 C2005 1.376 . S
C2002 C2000 1.394 . S
C2002 C2003 1.369 . S
C2002 C2006 1.531 . S
C2003 C2002 1.369 . S
C2003 C2004 1.410 . S
C2003 C2011 1.503 . S
C2004 C2003 1.410 . S
C2004 C2005 1.392 . S
C2004 C2007 1.511 . S
C2005 C2001 1.376 . S
C2005 C2004 1.392 . S
C2005 H2017 0.929 . S
C2006 C2002 1.531 . S
C2006 H2018 0.960 . S
C2006 H2019 0.962 . S
C2006 H2020 0.960 . S
C2007 C2004 1.511 . S
C2007 H2021 0.961 . S
C2007 H2022 0.961 . S
C2007 H2023 0.961 . S
C2008 C2009 1.370 . S
C2008 C2010 1.363 . S
C2008 H2024 0.931 . S
C2009 C2008 1.370 . S
C2009 C2013 1.408 . S
C2010 C2008 1.363 . S
C2010 C2011 1.370 . S
C2010 C2014 1.524 . S
C2011 C2003 1.503 . S
C2011 C2010 1.370 . S
C2011 C2012 1.403 . S
C2012 C2011 1.403 . S
C2012 C2013 1.404 . S
C2012 C2015 1.539 . S
C2013 C2009 1.408 . S
C2013 C2012 1.404 . S
C2013 H2025 0.930 . S
C2014 C2010 1.524 . S
C2014 H2026 0.963 . S
C2014 H2027 0.961 . S
C2014 H2028 0.962 . S
C2015 C2012 1.539 . S
C2015 H2029 0.958 . S
C2015 H2030 0.961 . S
C2015 H2031 0.960 . S
H2016 C2000 0.931 . S
H2017 C2005 0.929 . S
H2018 C2006 0.960 . S
H2019 C2006 0.962 . S
H2020 C2006 0.960 . S
H2021 C2007 0.961 . S
H2022 C2007 0.961 . S
H2023 C2007 0.961 . S
H2024 C2008 0.931 . S
H2025 C2013 0.930 . S
H2026 C2014 0.963 . S
H2027 C2014 0.961 . S
H2028 C2014 0.962 . S
H2029 C2015 0.958 . S
H2030 C2015 0.961 . S
H2031 C2015 0.960 . S
C2032 C2033 1.391 . S
C2032 C2034 1.394 . S
C2032 H2048 0.931 . S
C2033 C2032 1.391 . S
C2033 C2037 1.376 . S
C2034 C2032 1.394 . S
C2034 C2035 1.369 . S
C2034 C2038 1.531 . S
C2035 C2034 1.369 . S
C2035 C2036 1.410 . S
C2035 C2043 1.503 . S
C2036 C2035 1.410 . S
C2036 C2037 1.392 . S
C2036 C2039 1.511 . S
C2037 C2033 1.376 . S
C2037 C2036 1.392 . S
C2037 H2049 0.929 . S
C2038 C2034 1.531 . S
C2038 H2050 0.960 . S
C2038 H2051 0.962 . S
C2038 H2052 0.960 . S
C2039 C2036 1.511 . S
C2039 H2053 0.961 . S
C2039 H2054 0.961 . S
C2039 H2055 0.961 . S
C2040 C2041 1.370 . S
C2040 C2042 1.363 . S
C2040 H2056 0.931 . S
C2041 C2040 1.370 . S
C2041 C2045 1.408 . S
C2042 C2040 1.363 . S
C2042 C2043 1.370 . S
C2042 C2046 1.524 . S
C2043 C2035 1.503 . S
C2043 C2042 1.370 . S
C2043 C2044 1.403 . S
C2044 C2043 1.403 . S
C2044 C2045 1.404 . S
C2044 C2047 1.539 . S
C2045 C2041 1.408 . S
C2045 C2044 1.404 . S
C2045 H2057 0.930 . S
C2046 C2042 1.524 . S
C2046 H2058 0.956 . S
C2046 H2059 0.961 . S
C2046 H2060 0.961 . S
C2047 C2044 1.539 . S
C2047 H2061 0.958 . S
C2047 H2062 0.961 . S
C2047 H2063 0.960 . S
H2048 C2032 0.931 . S
H2049 C2037 0.929 . S
H2050 C2038 0.960 . S
H2051 C2038 0.962 . S
H2052 C2038 0.960 . S
H2053 C2039 0.961 . S
H2054 C2039 0.961 . S
H2055 C2039 0.961 . S
H2056 C2040 0.931 . S
H2057 C2045 0.930 . S
H2058 C2046 0.956 . S
H2059 C2046 0.961 . S
H2060 C2046 0.961 . S
H2061 C2047 0.958 . S
H2062 C2047 0.961 . S
H2063 C2047 0.960 . S
C2064 C2065 1.391 . S
C2064 C2066 1.394 . S
C2064 H2080 0.931 . S
C2065 C2064 1.391 . S
C2065 C2069 1.376 1_545 S
C2066 C2064 1.394 . S
C2066 C2067 1.369 . S
C2066 C2070 1.531 . S
C2067 C2066 1.369 . S
C2067 C2068 1.410 . S
C2067 C2075 1.503 . S
C2068 C2067 1.410 . S
C2068 C2069 1.392 1_545 S
C2068 C2071 1.511 1_545 S
C2069 C2065 1.376 1_565 S
C2069 C2068 1.392 1_565 S
C2069 H2081 0.929 . S
C2070 C2066 1.531 . S
C2070 H2082 0.960 . S
C2070 H2083 0.962 . S
C2070 H2084 0.960 . S
C2071 C2068 1.511 1_565 S
C2071 H2085 0.961 . S
C2071 H2086 0.961 . S
C2071 H2087 0.961 . S
C2072 C2073 1.370 . S
C2072 C2074 1.363 . S
C2072 H2088 0.931 . S
C2073 C2072 1.370 . S
C2073 C2077 1.408 . S
C2074 C2072 1.363 . S
C2074 C2075 1.370 . S
C2074 C2078 1.524 1_545 S
C2075 C2067 1.503 . S
C2075 C2074 1.370 . S
C2075 C2076 1.403 . S
C2076 C2075 1.403 . S
C2076 C2077 1.404 . S
C2076 C2079 1.539 . S
C2077 C2073 1.408 . S
C2077 C2076 1.404 . S
C2077 H2089 0.930 . S
C2078 C2074 1.524 1_565 S
C2078 H2090 0.956 1_565 S
C2078 H2091 0.961 . S
C2078 H2092 0.961 . S
C2079 C2076 1.539 . S
C2079 H2093 0.958 . S
C2079 H2094 0.961 . S
C2079 H2095 0.960 . S
H2080 C2064 0.931 . S
H2081 C2069 0.929 . S
H2082 C2070 0.960 . S
H2083 C2070 0.962 . S
H2084 C2070 0.960 . S
H2085 C2071 0.961 . S
H2086 C2071 0.961 . S
H2087 C2071 0.961 . S
H2088 C2072 0.931 . S
H2089 C2077 0.930 . S
H2090 C2078 0.956 1_545 S
H2091 C2078 0.961 . S
H2092 C2078 0.961 . S
H2093 C2079 0.958 . S
H2094 C2079 0.961 . S
H2095 C2079 0.960 . S
C2096 C2097 1.391 . S
C2096 C2098 1.394 . S
C2096 H2112 0.931 . S
C2097 C2096 1.391 . S
C2097 C2101 1.376 . S
C2098 C2096 1.394 . S
C2098 C2099 1.369 . S
C2098 C2102 1.531 . S
C2099 C2098 1.369 . S
C2099 C2100 1.410 . S
C2099 C2107 1.503 . S
C2100 C2099 1.410 . S
C2100 C2101 1.392 . S
C2100 C2103 1.511 . S
C2101 C2097 1.376 . S
C2101 C2100 1.392 . S
C2101 H2113 0.929 . S
C2102 C2098 1.531 . S
C2102 H2114 0.960 . S
C2102 H2115 0.962 . S
C2102 H2116 0.960 . S
C2103 C2100 1.511 . S
C2103 H2117 0.961 . S
C2103 H2118 0.961 . S
C2103 H2119 0.961 . S
C2104 C2105 1.370 . S
C2104 C2106 1.363 . S
C2104 H2120 0.931 . S
C2105 C2104 1.370 . S
C2105 C2109 1.408 . S
C2106 C2104 1.363 . S
C2106 C2107 1.370 . S
C2106 C2110 1.524 . S
C2107 C2099 1.503 . S
C2107 C2106 1.370 . S
C2107 C2108 1.403 . S
C2108 C2107 1.403 . S
C2108 C2109 1.404 . S
C2108 C2111 1.539 . S
C2109 C2105 1.408 . S
C2109 C2108 1.404 . S
C2109 H2121 0.930 . S
C2110 C2106 1.524 . S
C2110 H2122 0.956 . S
C2110 H2123 0.961 . S
C2110 H2124 0.961 . S
C2111 C2108 1.539 . S
C2111 H2125 0.958 . S
C2111 H2126 0.961 . S
C2111 H2127 0.960 . S
H2112 C2096 0.931 . S
H2113 C2101 0.929 . S
H2114 C2102 0.960 . S
H2115 C2102 0.962 . S
H2116 C2102 0.960 . S
H2117 C2103 0.961 . S
H2118 C2103 0.961 . S
H2119 C2103 0.961 . S
H2120 C2104 0.931 . S
H2121 C2109 0.930 . S
H2122 C2110 0.956 . S
H2123 C2110 0.961 . S
H2124 C2110 0.961 . S
H2125 C2111 0.958 . S
H2126 C2111 0.961 . S
H2127 C2111 0.960 . S
C2128 C2129 1.391 . S
C2128 C2130 1.394 . S
C2128 H2144 0.931 . S
C2129 C2128 1.391 . S
C2129 C2133 1.376 . S
C2130 C2128 1.394 . S
C2130 C2131 1.369 . S
C2130 C2134 1.531 1_545 S
C2131 C2130 1.369 . S
C2131 C2132 1.410 . S
C2131 C2139 1.503 . S
C2132 C2131 1.410 . S
C2132 C2133 1.392 . S
C2132 C2135 1.511 . S
C2133 C2129 1.376 . S
C2133 C2132 1.392 . S
C2133 H2145 0.929 . S
C2134 C2130 1.531 1_565 S
C2134 H2146 0.961 1_565 S
C2134 H2147 0.962 . S
C2134 H2148 0.960 . S
C2135 C2132 1.511 . S
C2135 H2149 0.961 . S
C2135 H2150 0.961 . S
C2135 H2151 0.961 . S
C2136 C2137 1.370 . S
C2136 C2138 1.363 . S
C2136 H2152 0.931 . S
C2137 C2136 1.370 . S
C2137 C2141 1.408 . S
C2138 C2136 1.363 . S
C2138 C2139 1.370 . S
C2138 C2142 1.524 . S
C2139 C2131 1.503 . S
C2139 C2138 1.370 . S
C2139 C2140 1.403 . S
C2140 C2139 1.403 . S
C2140 C2141 1.404 . S
C2140 C2143 1.539 . S
C2141 C2137 1.408 . S
C2141 C2140 1.404 . S
C2141 H2153 0.930 . S
C2142 C2138 1.524 . S
C2142 H2154 0.956 . S
C2142 H2155 0.961 . S
C2142 H2156 0.961 . S
C2143 C2140 1.539 . S
C2143 H2157 0.958 . S
C2143 H2158 0.961 . S
C2143 H2159 0.960 . S
H2144 C2128 0.931 . S
H2145 C2133 0.929 . S
H2146 C2134 0.961 1_545 S
H2147 C2134 0.962 . S
H2148 C2134 0.960 . S
H2149 C2135 0.961 . S
H2150 C2135 0.961 . S
H2151 C2135 0.961 . S
H2152 C2136 0.931 . S
H2153 C2141 0.930 . S
H2154 C2142 0.956 . S
H2155 C2142 0.961 . S
H2156 C2142 0.961 . S
H2157 C2143 0.958 . S
H2158 C2143 0.961 . S
H2159 C2143 0.960 . S
C2160 C2161 1.391 . S
C2160 C2162 1.394 . S
C2160 H2176 0.931 . S
C2161 C2160 1.391 . S
C2161 C2165 1.376 . S
C2162 C2160 1.394 . S
C2162 C2163 1.369 . S
C2162 C2166 1.531 . S
C2163 C2162 1.369 . S
C2163 C2164 1.410 . S
C2163 C2171 1.503 . S
C2164 C2163 1.410 . S
C2164 C2165 1.392 . S
C2164 C2167 1.511 . S
C2165 C2161 1.376 . S
C2165 C2164 1.392 . S
C2165 H2177 0.929 . S
C2166 C2162 1.531 . S
C2166 H2178 0.960 . S
C2166 H2179 0.962 . S
C2166 H2180 0.960 . S
C2167 C2164 1.511 . S
C2167 H2181 0.961 . S
C2167 H2182 0.961 . S
C2167 H2183 0.961 . S
C2168 C2169 1.370 . S
C2168 C2170 1.363 . S
C2168 H2184 0.931 . S
C2169 C2168 1.370 . S
C2169 C2173 1.408 . S
C2170 C2168 1.363 . S
C2170 C2171 1.370 . S
C2170 C2174 1.524 . S
C2171 C2163 1.503 . S
C2171 C2170 1.370 . S
C2171 C2172 1.403 . S
C2172 C2171 1.403 . S
C2172 C2173 1.404 . S
C2172 C2175 1.539 . S
C2173 C2169 1.408 . S
C2173 C2172 1.404 . S
C2173 H2185 0.930 . S
C2174 C2170 1.524 . S
C2174 H2186 0.956 . S
C2174 H2187 0.961 . S
C2174 H2188 0.961 . S
C2175 C2172 1.539 . S
C2175 H2189 0.958 . S
C2175 H2190 0.961 . S
C2175 H2191 0.960 . S
H2176 C2160 0.931 . S
H2177 C2165 0.929 . S
H2178 C2166 0.960 . S
H2179 C2166 0.962 . S
H2180 C2166 0.960 . S
H2181 C2167 0.961 . S
H2182 C2167 0.961 . S
H2183 C2167 0.961 . S
H2184 C2168 0.931 . S
H2185 C2173 0.930 . S
H2186 C2174 0.956 . S
H2187 C2174 0.961 . S
H2188 C2174 0.961 . S
H2189 C2175 0.958 . S
H2190 C2175 0.961 . S
H2191 C2175 0.960 . S
C2192 C2193 1.420 . S
C2192 C2194 1.394 . S
C2192 H2208 0.931 . S
C2193 C2192 1.420 . S
C2193 C2197 1.355 1_565 S
C2194 C2192 1.394 . S
C2194 C2195 1.369 . S
C2194 C2198 1.531 . S
C2195 C2194 1.369 . S
C2195 C2196 1.410 1_565 S
C2195 C2203 1.503 . S
C2196 C2195 1.410 1_545 S
C2196 C2197 1.392 . S
C2196 C2199 1.511 . S
C2197 C2193 1.355 1_545 S
C2197 C2196 1.392 . S
C2197 H2209 0.929 . S
C2198 C2194 1.531 . S
C2198 H2210 0.960 . S
C2198 H2211 0.962 . S
C2198 H2212 0.960 . S
C2199 C2196 1.511 . S
C2199 H2213 0.961 . S
C2199 H2214 0.961 . S
C2199 H2215 0.961 1_545 S
C2200 C2201 1.370 1_545 S
C2200 C2202 1.363 . S
C2200 H2216 0.931 . S
C2201 C2200 1.370 1_565 S
C2201 C2205 1.408 . S
C2202 C2200 1.363 . S
C2202 C2203 1.370 1_545 S
C2202 C2206 1.524 . S
C2203 C2195 1.503 . S
C2203 C2202 1.370 1_565 S
C2203 C2204 1.403 . S
C2204 C2203 1.403 . S
C2204 C2205 1.404 . S
C2204 C2207 1.539 . S
C2205 C2201 1.408 . S
C2205 C2204 1.404 . S
C2205 H2217 0.930 . S
C2206 C2202 1.524 . S
C2206 H2218 0.956 . S
C2206 H2219 0.961 . S
C2206 H2220 0.961 . S
C2207 C2204 1.539 . S
C2207 H2221 0.958 . S
C2207 H2222 0.961 . S
C2207 H2223 0.960 . S
H2208 C2192 0.931 . S
H2209 C2197 0.929 . S
H2210 C2198 0.960 . S
H2211 C2198 0.962 . S
H2212 C2198 0.960 . S
H2213 C2199 0.961 . S
H2214 C2199 0.961 . S
H2215 C2199 0.961 1_565 S
H2216 C2200 0.931 . S
H2217 C2205 0.930 . S
H2218 C2206 0.956 . S
H2219 C2206 0.961 . S
H2220 C2206 0.961 . S
H2221 C2207 0.958 . S
H2222 C2207 0.961 . S
H2223 C2207 0.960 . S
C2224 C2225 1.391 . S
C2224 C2226 1.394 . S
C2224 H2240 0.931 . S
C2225 C2224 1.391 . S
C2225 C2229 1.376 . S
C2226 C2224 1.394 . S
C2226 C2227 1.369 . S
C2226 C2230 1.531 . S
C2227 C2226 1.369 . S
C2227 C2228 1.410 . S
C2227 C2235 1.503 . S
C2228 C2227 1.410 . S
C2228 C2229 1.392 . S
C2228 C2231 1.511 . S
C2229 C2225 1.376 . S
C2229 C2228 1.392 . S
C2229 H2241 0.929 . S
C2230 C2226 1.531 . S
C2230 H2242 0.960 . S
C2230 H2243 0.962 . S
C2230 H2244 0.960 . S
C2231 C2228 1.511 . S
C2231 H2245 0.961 . S
C2231 H2246 0.961 . S
C2231 H2247 0.961 . S
C2232 C2233 1.370 . S
C2232 C2234 1.363 . S
C2232 H2248 0.931 . S
C2233 C2232 1.370 . S
C2233 C2237 1.408 . S
C2234 C2232 1.363 . S
C2234 C2235 1.370 . S
C2234 C2238 1.524 . S
C2235 C2227 1.503 . S
C2235 C2234 1.370 . S
C2235 C2236 1.403 . S
C2236 C2235 1.403 . S
C2236 C2237 1.404 . S
C2236 C2239 1.539 . S
C2237 C2233 1.408 . S
C2237 C2236 1.404 . S
C2237 H2249 0.930 . S
C2238 C2234 1.524 . S
C2238 H2250 0.956 . S
C2238 H2251 0.961 . S
C2238 H2252 0.961 . S
C2239 C2236 1.539 . S
C2239 H2253 0.958 . S
C2239 H2254 0.961 . S
C2239 H2255 0.960 . S
H2240 C2224 0.931 . S
H2241 C2229 0.929 . S
H2242 C2230 0.960 . S
H2243 C2230 0.962 . S
H2244 C2230 0.960 . S
H2245 C2231 0.961 . S
H2246 C2231 0.961 . S
H2247 C2231 0.961 . S
H2248 C2232 0.931 . S
H2249 C2237 0.930 . S
H2250 C2238 0.956 . S
H2251 C2238 0.961 . S
H2252 C2238 0.961 . S
H2253 C2239 0.958 . S
H2254 C2239 0.961 . S
H2255 C2239 0.960 . S
C2256 C2257 1.391 . S
C2256 C2258 1.394 . S
C2256 H2272 0.931 . S
C2257 C2256 1.391 . S
C2257 C2261 1.376 . S
C2258 C2256 1.394 . S
C2258 C2259 1.369 . S
C2258 C2262 1.531 . S
C2259 C2258 1.369 . S
C2259 C2260 1.410 . S
C2259 C2267 1.503 . S
C2260 C2259 1.410 . S
C2260 C2261 1.392 . S
C2260 C2263 1.511 . S
C2261 C2257 1.376 . S
C2261 C2260 1.392 . S
C2261 H2273 0.929 . S
C2262 C2258 1.531 . S
C2262 H2274 0.960 . S
C2262 H2275 0.962 . S
C2262 H2276 0.960 . S
C2263 C2260 1.511 . S
C2263 H2277 0.961 . S
C2263 H2278 0.961 . S
C2263 H2279 0.961 . S
C2264 C2265 1.370 . S
C2264 C2266 1.363 . S
C2264 H2280 0.931 . S
C2265 C2264 1.370 . S
C2265 C2269 1.408 1_554 S
C2266 C2264 1.363 . S
C2266 C2267 1.370 . S
C2266 C2270 1.524 . S
C2267 C2259 1.503 . S
C2267 C2266 1.370 . S
C2267 C2268 1.403 . S
C2268 C2267 1.403 . S
C2268 C2269 1.404 1_554 S
C2268 C2271 1.539 1_554 S
C2269 C2265 1.408 1_556 S
C2269 C2268 1.404 1_556 S
C2269 H2281 0.930 . S
C2270 C2266 1.524 . S
C2270 H2282 0.956 . S
C2270 H2283 0.961 . S
C2270 H2284 0.961 . S
C2271 C2268 1.539 1_556 S
C2271 H2285 0.958 . S
C2271 H2286 0.961 . S
C2271 H2287 0.960 . S
H2272 C2256 0.931 . S
H2273 C2261 0.929 . S
H2274 C2262 0.960 . S
H2275 C2262 0.962 . S
H2276 C2262 0.960 . S
H2277 C2263 0.961 . S
H2278 C2263 0.961 . S
H2279 C2263 0.961 . S
H2280 C2264 0.931 . S
H2281 C2269 0.930 . S
H2282 C2270 0.956 . S
H2283 C2270 0.961 . S
H2284 C2270 0.961 . S
H2285 C2271 0.958 . S
H2286 C2271 0.961 . S
H2287 C2271 0.960 . S
C2288 C2289 1.391 . S
C2288 C2290 1.394 . S
C2288 H2304 0.931 . S
C2289 C2288 1.391 . S
C2289 C2293 1.376 . S
C2290 C2288 1.394 . S
C2290 C2291 1.369 . S
C2290 C2294 1.531 . S
C2291 C2290 1.369 . S
C2291 C2292 1.410 . S
C2291 C2299 1.503 . S
C2292 C2291 1.410 . S
C2292 C2293 1.392 . S
C2292 C2295 1.511 . S
C2293 C2289 1.376 . S
C2293 C2292 1.392 . S
C2293 H2305 0.929 . S
C2294 C2290 1.531 . S
C2294 H2306 0.960 . S
C2294 H2307 0.962 . S
C2294 H2308 0.960 . S
C2295 C2292 1.511 . S
C2295 H2309 0.961 . S
C2295 H2310 0.961 . S
C2295 H2311 0.961 . S
C2296 C2297 1.370 . S
C2296 C2298 1.363 . S
C2296 H2312 0.931 . S
C2297 C2296 1.370 . S
C2297 C2301 1.408 . S
C2298 C2296 1.363 . S
C2298 C2299 1.370 . S
C2298 C2302 1.524 1_554 S
C2299 C2291 1.503 . S
C2299 C2298 1.370 . S
C2299 C2300 1.403 . S
C2300 C2299 1.403 . S
C2300 C2301 1.404 . S
C2300 C2303 1.539 . S
C2301 C2297 1.408 . S
C2301 C2300 1.404 . S
C2301 H2313 0.930 . S
C2302 C2298 1.524 1_556 S
C2302 H2314 0.943 1_556 S
C2302 H2315 0.961 . S
C2302 H2316 0.961 . S
C2303 C2300 1.539 . S
C2303 H2317 0.958 . S
C2303 H2318 0.961 . S
C2303 H2319 0.960 . S
H2304 C2288 0.931 . S
H2305 C2293 0.929 . S
H2306 C2294 0.960 . S
H2307 C2294 0.962 . S
H2308 C2294 0.960 . S
H2309 C2295 0.961 . S
H2310 C2295 0.961 . S
H2311 C2295 0.961 . S
H2312 C2296 0.931 . S
H2313 C2301 0.930 . S
H2314 C2302 0.943 1_554 S
H2315 C2302 0.961 . S
H2316 C2302 0.961 . S
H2317 C2303 0.958 . S
H2318 C2303 0.961 . S
H2319 C2303 0.960 . S
C2320 C2321 1.391 . S
C2320 C2322 1.394 . S
C2320 H2336 0.931 . S
C2321 C2320 1.391 . S
C2321 C2325 1.376 . S
C2322 C2320 1.394 . S
C2322 C2323 1.369 . S
C2322 C2326 1.531 . S
C2323 C2322 1.369 . S
C2323 C2324 1.410 . S
C2323 C2331 1.503 . S
C2324 C2323 1.410 . S
C2324 C2325 1.392 . S
C2324 C2327 1.511 . S
C2325 C2321 1.376 . S
C2325 C2324 1.392 . S
C2325 H2337 0.929 . S
C2326 C2322 1.531 . S
C2326 H2338 0.960 . S
C2326 H2339 0.962 . S
C2326 H2340 0.960 . S
C2327 C2324 1.511 . S
C2327 H2341 0.961 . S
C2327 H2342 0.961 . S
C2327 H2343 0.961 . S
C2328 C2329 1.370 . S
C2328 C2330 1.363 . S
C2328 H2344 0.931 . S
C2329 C2328 1.370 . S
C2329 C2333 1.408 . S
C2330 C2328 1.363 . S
C2330 C2331 1.370 . S
C2330 C2334 1.524 . S
C2331 C2323 1.503 . S
C2331 C2330 1.370 . S
C2331 C2332 1.403 . S
C2332 C2331 1.403 . S
C2332 C2333 1.404 . S
C2332 C2335 1.539 . S
C2333 C2329 1.408 . S
C2333 C2332 1.404 . S
C2333 H2345 0.930 . S
C2334 C2330 1.524 . S
C2334 H2346 0.956 . S
C2334 H2347 0.961 . S
C2334 H2348 0.961 . S
C2335 C2332 1.539 . S
C2335 H2349 0.958 . S
C2335 H2350 0.961 . S
C2335 H2351 0.960 . S
H2336 C2320 0.931 . S
H2337 C2325 0.929 . S
H2338 C2326 0.960 . S
H2339 C2326 0.962 . S
H2340 C2326 0.960 . S
H2341 C2327 0.961 . S
H2342 C2327 0.961 . S
H2343 C2327 0.961 . S
H2344 C2328 0.931 . S
H2345 C2333 0.930 . S
H2346 C2334 0.956 . S
H2347 C2334 0.961 . S
H2348 C2334 0.961 . S
H2349 C2335 0.958 . S
H2350 C2335 0.961 . S
H2351 C2335 0.960 . S
C2352 C2353 1.391 . S
C2352 C2354 1.394 . S
C2352 H2368 0.931 . S
C2353 C2352 1.391 . S
C2353 C2357 1.376 . S
C2354 C2352 1.394 . S
C2354 C2355 1.369 . S
C2354 C2358 1.531 . S
C2355 C2354 1.369 . S
C2355 C2356 1.410 . S
C2355 C2363 1.503 . S
C2356 C2355 1.410 . S
C2356 C2357 1.392 . S
C2356 C2359 1.511 . S
C2357 C2353 1.376 . S
C2357 C2356 1.392 . S
C2357 H2369 0.929 . S
C2358 C2354 1.531 . S
C2358 H2370 0.960 . S
C2358 H2371 0.962 . S
C2358 H2372 0.960 . S
C2359 C2356 1.511 . S
C2359 H2373 0.961 . S
C2359 H2374 0.961 . S
C2359 H2375 0.961 . S
C2360 C2361 1.370 . S
C2360 C2362 1.363 . S
C2360 H2376 0.931 . S
C2361 C2360 1.370 . S
C2361 C2365 1.408 . S
C2362 C2360 1.363 . S
C2362 C2363 1.370 . S
C2362 C2366 1.524 . S
C2363 C2355 1.503 . S
C2363 C2362 1.370 . S
C2363 C2364 1.403 . S
C2364 C2363 1.403 . S
C2364 C2365 1.404 . S
C2364 C2367 1.539 . S
C2365 C2361 1.408 . S
C2365 C2364 1.404 . S
C2365 H2377 0.930 . S
C2366 C2362 1.524 . S
C2366 H2378 0.956 . S
C2366 H2379 0.961 . S
C2366 H2380 0.961 . S
C2367 C2364 1.539 . S
C2367 H2381 0.958 . S
C2367 H2382 0.961 . S
C2367 H2383 0.960 . S
H2368 C2352 0.931 . S
H2369 C2357 0.929 . S
H2370 C2358 0.960 . S
H2371 C2358 0.962 . S
H2372 C2358 0.960 . S
H2373 C2359 0.961 . S
H2374 C2359 0.961 . S
H2375 C2359 0.961 . S
H2376 C2360 0.931 . S
H2377 C2365 0.930 . S
H2378 C2366 0.956 . S
H2379 C2366 0.961 . S
H2380 C2366 0.961 . S
H2381 C2367 0.958 . S
H2382 C2367 0.961 . S
H2383 C2367 0.960 . S
C2384 C2385 1.391 . S
C2384 C2386 1.394 1_545 S
C2384 H2400 0.931 1_545 S
C2385 C2384 1.391 . S
C2385 C2389 1.376 . S
C2386 C2384 1.394 1_565 S
C2386 C2387 1.369 . S
C2386 C2390 1.531 . S
C2387 C2386 1.369 . S
C2387 C2388 1.410 1_565 S
C2387 C2395 1.503 . S
C2388 C2387 1.410 1_545 S
C2388 C2389 1.392 . S
C2388 C2391 1.511 . S
C2389 C2385 1.376 . S
C2389 C2388 1.392 . S
C2389 H2401 0.929 . S
C2390 C2386 1.531 . S
C2390 H2402 0.960 . S
C2390 H2403 0.962 . S
C2390 H2404 0.960 . S
C2391 C2388 1.511 . S
C2391 H2405 0.961 . S
C2391 H2406 0.961 . S
C2391 H2407 0.961 . S
C2392 C2393 1.370 . S
C2392 C2394 1.363 . S
C2392 H2408 0.931 . S
C2393 C2392 1.370 . S
C2393 C2397 1.408 . S
C2394 C2392 1.363 . S
C2394 C2395 1.370 . S
C2394 C2398 1.524 . S
C2395 C2387 1.503 . S
C2395 C2394 1.370 . S
C2395 C2396 1.403 . S
C2396 C2395 1.403 . S
C2396 C2397 1.404 . S
C2396 C2399 1.539 . S
C2397 C2393 1.408 . S
C2397 C2396 1.404 . S
C2397 H2409 0.930 . S
C2398 C2394 1.524 . S
C2398 H2410 0.956 . S
C2398 H2411 0.944 1_565 S
C2398 H2412 0.961 . S
C2399 C2396 1.539 . S
C2399 H2413 0.958 . S
C2399 H2414 0.961 . S
C2399 H2415 0.960 . S
H2400 C2384 0.931 1_565 S
H2401 C2389 0.929 . S
H2402 C2390 0.960 . S
H2403 C2390 0.962 . S
H2404 C2390 0.960 . S
H2405 C2391 0.961 . S
H2406 C2391 0.961 . S
H2407 C2391 0.961 . S
H2408 C2392 0.931 . S
H2409 C2397 0.930 . S
H2410 C2398 0.956 . S
H2411 C2398 0.944 1_545 S
H2412 C2398 0.961 . S
H2413 C2399 0.958 . S
H2414 C2399 0.961 . S
H2415 C2399 0.960 . S
C2416 C2417 1.391 . S
C2416 C2418 1.394 . S
C2416 H2432 0.931 . S
C2417 C2416 1.391 . S
C2417 C2421 1.376 . S
C2418 C2416 1.394 . S
C2418 C2419 1.369 . S
C2418 C2422 1.531 . S
C2419 C2418 1.369 . S
C2419 C2420 1.410 . S
C2419 C2427 1.503 . S
C2420 C2419 1.410 . S
C2420 C2421 1.392 . S
C2420 C2423 1.511 . S
C2421 C2417 1.376 . S
C2421 C2420 1.392 . S
C2421 H2433 0.929 . S
C2422 C2418 1.531 . S
C2422 H2434 0.960 . S
C2422 H2435 0.962 . S
C2422 H2436 0.960 . S
C2423 C2420 1.511 . S
C2423 H2437 0.961 . S
C2423 H2438 0.961 . S
C2423 H2439 0.961 . S
C2424 C2425 1.370 . S
C2424 C2426 1.363 . S
C2424 H2440 0.931 . S
C2425 C2424 1.370 . S
C2425 C2429 1.408 . S
C2426 C2424 1.363 . S
C2426 C2427 1.370 . S
C2426 C2430 1.524 . S
C2427 C2419 1.503 . S
C2427 C2426 1.370 . S
C2427 C2428 1.403 . S
C2428 C2427 1.403 . S
C2428 C2429 1.404 . S
C2428 C2431 1.539 . S
C2429 C2425 1.408 . S
C2429 C2428 1.404 . S
C2429 H2441 0.930 . S
C2430 C2426 1.524 . S
C2430 H2442 0.956 . S
C2430 H2443 0.961 . S
C2430 H2444 0.961 . S
C2431 C2428 1.539 . S
C2431 H2445 0.958 . S
C2431 H2446 0.961 . S
C2431 H2447 0.960 . S
H2432 C2416 0.931 . S
H2433 C2421 0.929 . S
H2434 C2422 0.960 . S
H2435 C2422 0.962 . S
H2436 C2422 0.960 . S
H2437 C2423 0.961 . S
H2438 C2423 0.961 . S
H2439 C2423 0.961 . S
H2440 C2424 0.931 . S
H2441 C2429 0.930 . S
H2442 C2430 0.956 . S
H2443 C2430 0.961 . S
H2444 C2430 0.961 . S
H2445 C2431 0.958 . S
H2446 C2431 0.961 . S
H2447 C2431 0.960 . S
C2448 C2449 1.391 . S
C2448 C2450 1.394 . S
C2448 H2464 0.931 . S
C2449 C2448 1.391 . S
C2449 C2453 1.376 . S
C2450 C2448 1.394 . S
C2450 C2451 1.369 . S
C2450 C2454 1.531 . S
C2451 C2450 1.369 . S
C2451 C2452 1.410 . S
C2451 C2459 1.503 . S
C2452 C2451 1.410 . S
C2452 C2453 1.392 . S
C2452 C2455 1.511 . S
C2453 C2449 1.376 . S
C2453 C2452 1.392 . S
C2453 H2465 0.929 . S
C2454 C2450 1.531 . S
C2454 H2466 0.960 . S
C2454 H2467 0.962 . S
C2454 H2468 0.960 . S
C2455 C2452 1.511 . S
C2455 H2469 0.961 . S
C2455 H2470 0.961 . S
C2455 H2471 0.961 . S
C2456 C2457 1.370 . S
C2456 C2458 1.363 . S
C2456 H2472 0.931 . S
C2457 C2456 1.370 . S
C2457 C2461 1.408 . S
C2458 C2456 1.363 . S
C2458 C2459 1.370 . S
C2458 C2462 1.524 . S
C2459 C2451 1.503 . S
C2459 C2458 1.370 . S
C2459 C2460 1.403 . S
C2460 C2459 1.403 . S
C2460 C2461 1.404 . S
C2460 C2463 1.539 . S
C2461 C2457 1.408 . S
C2461 C2460 1.404 . S
C2461 H2473 0.930 . S
C2462 C2458 1.524 . S
C2462 H2474 0.956 . S
C2462 H2475 0.961 . S
C2462 H2476 0.961 . S
C2463 C2460 1.539 . S
C2463 H2477 0.958 . S
C2463 H2478 0.961 . S
C2463 H2479 0.960 . S
H2464 C2448 0.931 . S
H2465 C2453 0.929 . S
H2466 C2454 0.960 . S
H2467 C2454 0.962 . S
H2468 C2454 0.960 . S
H2469 C2455 0.961 . S
H2470 C2455 0.961 . S
H2471 C2455 0.961 . S
H2472 C2456 0.931 . S
H2473 C2461 0.930 . S
H2474 C2462 0.956 . S
H2475 C2462 0.961 . S
H2476 C2462 0.961 . S
H2477 C2463 0.958 . S
H2478 C2463 0.961 . S
H2479 C2463 0.960 . S
C2480 C2481 1.391 . S
C2480 C2482 1.394 . S
C2480 H2496 0.931 . S
C2481 C2480 1.391 . S
C2481 C2485 1.376 . S
C2482 C2480 1.394 . S
C2482 C2483 1.369 . S
C2482 C2486 1.531 . S
C2483 C2482 1.369 . S
C2483 C2484 1.410 . S
C2483 C2491 1.503 . S
C2484 C2483 1.410 . S
C2484 C2485 1.392 . S
C2484 C2487 1.511 . S
C2485 C2481 1.376 . S
C2485 C2484 1.392 . S
C2485 H2497 0.929 . S
C2486 C2482 1.531 . S
C2486 H2498 0.960 . S
C2486 H2499 0.962 . S
C2486 H2500 0.960 . S
C2487 C2484 1.511 . S
C2487 H2501 0.961 . S
C2487 H2502 0.961 . S
C2487 H2503 0.961 . S
C2488 C2489 1.370 . S
C2488 C2490 1.363 . S
C2488 H2504 0.931 . S
C2489 C2488 1.370 . S
C2489 C2493 1.408 . S
C2490 C2488 1.363 . S
C2490 C2491 1.370 . S
C2490 C2494 1.524 . S
C2491 C2483 1.503 . S
C2491 C2490 1.370 . S
C2491 C2492 1.403 . S
C2492 C2491 1.403 . S
C2492 C2493 1.404 . S
C2492 C2495 1.539 . S
C2493 C2489 1.408 . S
C2493 C2492 1.404 . S
C2493 H2505 0.930 . S
C2494 C2490 1.524 . S
C2494 H2506 0.956 . S
C2494 H2507 0.961 . S
C2494 H2508 0.961 . S
C2495 C2492 1.539 . S
C2495 H2509 0.958 . S
C2495 H2510 0.961 . S
C2495 H2511 0.960 . S
H2496 C2480 0.931 . S
H2497 C2485 0.929 . S
H2498 C2486 0.960 . S
H2499 C2486 0.962 . S
H2500 C2486 0.960 . S
H2501 C2487 0.961 . S
H2502 C2487 0.961 . S
H2503 C2487 0.961 . S
H2504 C2488 0.931 . S
H2505 C2493 0.930 . S
H2506 C2494 0.956 . S
H2507 C2494 0.961 . S
H2508 C2494 0.961 . S
H2509 C2495 0.958 . S
H2510 C2495 0.961 . S
H2511 C2495 0.960 . S
C2512 C2513 1.391 . S
C2512 C2514 1.394 . S
C2512 H2528 0.931 . S
C2513 C2512 1.391 . S
C2513 C2517 1.376 . S
C2514 C2512 1.394 . S
C2514 C2515 1.369 . S
C2514 C2518 1.531 . S
C2515 C2514 1.369 . S
C2515 C2516 1.410 . S
C2515 C2523 1.503 . S
C2516 C2515 1.410 . S
C2516 C2517 1.392 . S
C2516 C2519 1.511 . S
C2517 C2513 1.376 . S
C2517 C2516 1.392 . S
C2517 H2529 0.929 . S
C2518 C2514 1.531 . S
C2518 H2530 0.960 . S
C2518 H2531 0.962 . S
C2518 H2532 0.960 . S
C2519 C2516 1.511 . S
C2519 H2533 0.961 . S
C2519 H2534 0.961 . S
C2519 H2535 0.961 . S
C2520 C2521 1.370 . S
C2520 C2522 1.363 . S
C2520 H2536 0.931 . S
C2521 C2520 1.370 . S
C2521 C2525 1.408 . S
C2522 C2520 1.363 . S
C2522 C2523 1.370 . S
C2522 C2526 1.524 . S
C2523 C2515 1.503 . S
C2523 C2522 1.370 . S
C2523 C2524 1.403 . S
C2524 C2523 1.403 . S
C2524 C2525 1.404 . S
C2524 C2527 1.539 . S
C2525 C2521 1.408 . S
C2525 C2524 1.404 . S
C2525 H2537 0.930 . S
C2526 C2522 1.524 . S
C2526 H2538 0.956 . S
C2526 H2539 0.961 . S
C2526 H2540 0.961 . S
C2527 C2524 1.539 . S
C2527 H2541 0.958 . S
C2527 H2542 0.961 . S
C2527 H2543 0.960 . S
H2528 C2512 0.931 . S
H2529 C2517 0.929 . S
H2530 C2518 0.960 . S
H2531 C2518 0.962 . S
H2532 C2518 0.960 . S
H2533 C2519 0.961 . S
H2534 C2519 0.961 . S
H2535 C2519 0.961 . S
H2536 C2520 0.931 . S
H2537 C2525 0.930 . S
H2538 C2526 0.956 . S
H2539 C2526 0.961 . S
H2540 C2526 0.961 . S
H2541 C2527 0.958 . S
H2542 C2527 0.961 . S
H2543 C2527 0.960 . S
C2544 C2545 1.391 . S
C2544 C2546 1.394 . S
C2544 H2560 0.931 . S
C2545 C2544 1.391 . S
C2545 C2549 1.376 . S
C2546 C2544 1.394 . S
C2546 C2547 1.369 . S
C2546 C2550 1.531 . S
C2547 C2546 1.369 . S
C2547 C2548 1.410 . S
C2547 C2555 1.503 . S
C2548 C2547 1.410 . S
C2548 C2549 1.392 . S
C2548 C2551 1.511 . S
C2549 C2545 1.376 . S
C2549 C2548 1.392 . S
C2549 H2561 0.929 . S
C2550 C2546 1.531 . S
C2550 H2562 0.960 . S
C2550 H2563 0.962 . S
C2550 H2564 0.960 . S
C2551 C2548 1.511 . S
C2551 H2565 0.961 . S
C2551 H2566 0.961 . S
C2551 H2567 0.961 . S
C2552 C2553 1.370 . S
C2552 C2554 1.363 . S
C2552 H2568 0.931 . S
C2553 C2552 1.370 . S
C2553 C2557 1.408 . S
C2554 C2552 1.363 . S
C2554 C2555 1.370 . S
C2554 C2558 1.524 . S
C2555 C2547 1.503 . S
C2555 C2554 1.370 . S
C2555 C2556 1.403 . S
C2556 C2555 1.403 . S
C2556 C2557 1.404 . S
C2556 C2559 1.539 . S
C2557 C2553 1.408 . S
C2557 C2556 1.404 . S
C2557 H2569 0.930 . S
C2558 C2554 1.524 . S
C2558 H2570 0.956 . S
C2558 H2571 0.961 . S
C2558 H2572 0.961 . S
C2559 C2556 1.539 . S
C2559 H2573 0.958 . S
C2559 H2574 0.961 . S
C2559 H2575 0.960 . S
H2560 C2544 0.931 . S
H2561 C2549 0.929 . S
H2562 C2550 0.960 . S
H2563 C2550 0.962 . S
H2564 C2550 0.960 . S
H2565 C2551 0.961 . S
H2566 C2551 0.961 . S
H2567 C2551 0.961 . S
H2568 C2552 0.931 . S
H2569 C2557 0.930 . S
H2570 C2558 0.956 . S
H2571 C2558 0.961 . S
H2572 C2558 0.961 . S
H2573 C2559 0.958 . S
H2574 C2559 0.961 . S
H2575 C2559 0.960 . S
C2576 C2577 1.391 . S
C2576 C2578 1.394 . S
C2576 H2592 0.931 . S
C2577 C2576 1.391 . S
C2577 C2581 1.376 1_456 S
C2578 C2576 1.394 . S
C2578 C2579 1.369 1_556 S
C2578 C2582 1.531 . S
C2579 C2578 1.369 1_554 S
C2579 C2580 1.410 1_455 S
C2579 C2587 1.503 . S
C2580 C2579 1.410 1_655 S
C2580 C2581 1.392 . S
C2580 C2583 1.511 . S
C2581 C2577 1.376 1_654 S
C2581 C2580 1.392 . S
C2581 H2593 0.929 . S
C2582 C2578 1.531 . S
C2582 H2594 0.960 . S
C2582 H2595 0.962 1_556 S
C2582 H2596 0.960 . S
C2583 C2580 1.511 . S
C2583 H2597 0.961 . S
C2583 H2598 0.961 . S
C2583 H2599 0.938 1_554 S
C2584 C2585 1.370 . S
C2584 C2586 1.363 . S
C2584 H2600 0.931 . S
C2585 C2584 1.370 . S
C2585 C2589 1.408 . S
C2586 C2584 1.363 . S
C2586 C2587 1.370 . S
C2586 C2590 1.524 . S
C2587 C2579 1.503 . S
C2587 C2586 1.370 . S
C2587 C2588 1.403 1_554 S
C2588 C2587 1.403 1_556 S
C2588 C2589 1.404 1_556 S
C2588 C2591 1.539 1_455 S
C2589 C2585 1.408 . S
C2589 C2588 1.404 1_554 S
C2589 H2601 0.930 1_554 S
C2590 C2586 1.524 . S
C2590 H2602 0.956 . S
C2590 H2603 0.961 . S
C2590 H2604 0.961 . S
C2591 C2588 1.539 1_655 S
C2591 H2605 0.958 1_655 S
C2591 H2606 0.961 . S
C2591 H2607 0.960 . S
H2592 C2576 0.931 . S
H2593 C2581 0.929 . S
H2594 C2582 0.960 . S
H2595 C2582 0.962 1_554 S
H2596 C2582 0.960 . S
H2597 C2583 0.961 . S
H2598 C2583 0.961 . S
H2599 C2583 0.938 1_556 S
H2600 C2584 0.931 . S
H2601 C2589 0.930 1_556 S
H2602 C2590 0.956 . S
H2603 C2590 0.961 . S
H2604 C2590 0.961 . S
H2605 C2591 0.958 1_455 S
H2606 C2591 0.961 . S
H2607 C2591 0.960 . S
C2608 C2609 1.391 . S
C2608 C2610 1.394 1_455 S
C2608 H2624 0.931 . S
C2609 C2608 1.391 . S
C2609 C2613 1.376 1_455 S
C2610 C2608 1.394 1_655 S
C2610 C2611 1.369 . S
C2610 C2614 1.531 . S
C2611 C2610 1.369 . S
C2611 C2612 1.410 . S
C2611 C2619 1.503 . S
C2612 C2611 1.410 . S
C2612 C2613 1.392 . S
C2612 C2615 1.511 . S
C2613 C2609 1.376 1_655 S
C2613 C2612 1.392 . S
C2613 H2625 0.929 . S
C2614 C2610 1.531 . S
C2614 H2626 0.960 . S
C2614 H2627 0.962 . S
C2614 H2628 0.960 1_655 S
C2615 C2612 1.511 . S
C2615 H2629 0.961 . S
C2615 H2630 0.961 . S
C2615 H2631 0.961 . S
C2616 C2617 1.370 . S
C2616 C2618 1.363 . S
C2616 H2632 0.931 . S
C2617 C2616 1.370 . S
C2617 C2621 1.408 . S
C2618 C2616 1.363 . S
C2618 C2619 1.370 . S
C2618 C2622 1.524 . S
C2619 C2611 1.503 . S
C2619 C2618 1.370 . S
C2619 C2620 1.403 . S
C2620 C2619 1.403 . S
C2620 C2621 1.404 . S
C2620 C2623 1.539 . S
C2621 C2617 1.408 . S
C2621 C2620 1.404 . S
C2621 H2633 0.930 . S
C2622 C2618 1.524 . S
C2622 H2634 0.956 . S
C2622 H2635 0.961 . S
C2622 H2636 0.961 . S
C2623 C2620 1.539 . S
C2623 H2637 0.958 . S
C2623 H2638 0.961 . S
C2623 H2639 0.960 . S
H2624 C2608 0.931 . S
H2625 C2613 0.929 . S
H2626 C2614 0.960 . S
H2627 C2614 0.962 . S
H2628 C2614 0.960 1_455 S
H2629 C2615 0.961 . S
H2630 C2615 0.961 . S
H2631 C2615 0.961 . S
H2632 C2616 0.931 . S
H2633 C2621 0.930 . S
H2634 C2622 0.956 . S
H2635 C2622 0.961 . S
H2636 C2622 0.961 . S
H2637 C2623 0.958 . S
H2638 C2623 0.961 . S
H2639 C2623 0.960 . S
C2640 C2641 1.391 . S
C2640 C2642 1.394 . S
C2640 H2656 0.931 . S
C2641 C2640 1.391 . S
C2641 C2645 1.376 . S
C2642 C2640 1.394 . S
C2642 C2643 1.369 . S
C2642 C2646 1.531 . S
C2643 C2642 1.369 . S
C2643 C2644 1.410 . S
C2643 C2651 1.503 . S
C2644 C2643 1.410 . S
C2644 C2645 1.392 . S
C2644 C2647 1.511 . S
C2645 C2641 1.376 . S
C2645 C2644 1.392 . S
C2645 H2657 0.929 . S
C2646 C2642 1.531 . S
C2646 H2658 0.960 . S
C2646 H2659 0.962 . S
C2646 H2660 0.960 . S
C2647 C2644 1.511 . S
C2647 H2661 0.961 . S
C2647 H2662 0.961 . S
C2647 H2663 0.961 . S
C2648 C2649 1.370 . S
C2648 C2650 1.363 . S
C2648 H2664 0.931 . S
C2649 C2648 1.370 . S
C2649 C2653 1.408 . S
C2650 C2648 1.363 . S
C2650 C2651 1.370 . S
C2650 C2654 1.524 . S
C2651 C2643 1.503 . S
C2651 C2650 1.370 . S
C2651 C2652 1.403 . S
C2652 C2651 1.403 . S
C2652 C2653 1.404 . S
C2652 C2655 1.539 . S
C2653 C2649 1.408 . S
C2653 C2652 1.404 . S
C2653 H2665 0.930 . S
C2654 C2650 1.524 . S
C2654 H2666 0.956 . S
C2654 H2667 0.961 . S
C2654 H2668 0.961 . S
C2655 C2652 1.539 . S
C2655 H2669 0.958 . S
C2655 H2670 0.961 . S
C2655 H2671 0.960 . S
H2656 C2640 0.931 . S
H2657 C2645 0.929 . S
H2658 C2646 0.960 . S
H2659 C2646 0.962 . S
H2660 C2646 0.960 . S
H2661 C2647 0.961 . S
H2662 C2647 0.961 . S
H2663 C2647 0.961 . S
H2664 C2648 0.931 . S
H2665 C2653 0.930 . S
H2666 C2654 0.956 . S
H2667 C2654 0.961 . S
H2668 C2654 0.961 . S
H2669 C2655 0.958 . S
H2670 C2655 0.961 . S
H2671 C2655 0.960 . S
C2672 C2673 1.391 . S
C2672 C2674 1.394 . S
C2672 H2688 0.931 . S
C2673 C2672 1.391 . S
C2673 C2677 1.376 . S
C2674 C2672 1.394 . S
C2674 C2675 1.369 . S
C2674 C2678 1.531 . S
C2675 C2674 1.369 . S
C2675 C2676 1.410 . S
C2675 C2683 1.503 . S
C2676 C2675 1.410 . S
C2676 C2677 1.392 . S
C2676 C2679 1.511 . S
C2677 C2673 1.376 . S
C2677 C2676 1.392 . S
C2677 H2689 0.929 . S
C2678 C2674 1.531 . S
C2678 H2690 0.960 . S
C2678 H2691 0.962 . S
C2678 H2692 0.960 . S
C2679 C2676 1.511 . S
C2679 H2693 0.961 . S
C2679 H2694 0.961 . S
C2679 H2695 0.961 . S
C2680 C2681 1.370 . S
C2680 C2682 1.363 . S
C2680 H2696 0.931 . S
C2681 C2680 1.370 . S
C2681 C2685 1.408 . S
C2682 C2680 1.363 . S
C2682 C2683 1.370 . S
C2682 C2686 1.524 . S
C2683 C2675 1.503 . S
C2683 C2682 1.370 . S
C2683 C2684 1.403 . S
C2684 C2683 1.403 . S
C2684 C2685 1.404 . S
C2684 C2687 1.539 . S
C2685 C2681 1.408 . S
C2685 C2684 1.404 . S
C2685 H2697 0.930 . S
C2686 C2682 1.524 . S
C2686 H2698 0.956 . S
C2686 H2699 0.961 . S
C2686 H2700 0.961 . S
C2687 C2684 1.539 . S
C2687 H2701 0.958 . S
C2687 H2702 0.961 . S
C2687 H2703 0.960 . S
H2688 C2672 0.931 . S
H2689 C2677 0.929 . S
H2690 C2678 0.960 . S
H2691 C2678 0.962 . S
H2692 C2678 0.960 . S
H2693 C2679 0.961 . S
H2694 C2679 0.961 . S
H2695 C2679 0.961 . S
H2696 C2680 0.931 . S
H2697 C2685 0.930 . S
H2698 C2686 0.956 . S
H2699 C2686 0.961 . S
H2700 C2686 0.961 . S
H2701 C2687 0.958 . S
H2702 C2687 0.961 . S
H2703 C2687 0.960 . S
C2704 C2705 1.391 . S
C2704 C2706 1.394 . S
C2704 H2720 0.931 . S
C2705 C2704 1.391 . S
C2705 C2709 1.376 1_455 S
C2706 C2704 1.394 . S
C2706 C2707 1.369 . S
C2706 C2710 1.531 . S
C2707 C2706 1.369 . S
C2707 C2708 1.410 1_455 S
C2707 C2715 1.503 . S
C2708 C2707 1.410 1_655 S
C2708 C2709 1.392 . S
C2708 C2711 1.511 . S
C2709 C2705 1.376 1_655 S
C2709 C2708 1.392 . S
C2709 H2721 0.929 . S
C2710 C2706 1.531 . S
C2710 H2722 0.960 . S
C2710 H2723 0.962 . S
C2710 H2724 0.960 . S
C2711 C2708 1.511 . S
C2711 H2725 0.961 . S
C2711 H2726 0.961 . S
C2711 H2727 0.961 . S
C2712 C2713 1.370 . S
C2712 C2714 1.363 . S
C2712 H2728 0.931 . S
C2713 C2712 1.370 . S
C2713 C2717 1.408 . S
C2714 C2712 1.363 . S
C2714 C2715 1.370 . S
C2714 C2718 1.524 . S
C2715 C2707 1.503 . S
C2715 C2714 1.370 . S
C2715 C2716 1.403 . S
C2716 C2715 1.403 . S
C2716 C2717 1.404 . S
C2716 C2719 1.539 1_455 S
C2717 C2713 1.408 . S
C2717 C2716 1.404 . S
C2717 H2729 0.930 . S
C2718 C2714 1.524 . S
C2718 H2730 0.956 . S
C2718 H2731 0.961 . S
C2718 H2732 0.961 . S
C2719 C2716 1.539 1_655 S
C2719 H2733 0.958 1_655 S
C2719 H2734 0.961 . S
C2719 H2735 0.960 . S
H2720 C2704 0.931 . S
H2721 C2709 0.929 . S
H2722 C2710 0.960 . S
H2723 C2710 0.962 . S
H2724 C2710 0.960 . S
H2725 C2711 0.961 . S
H2726 C2711 0.961 . S
H2727 C2711 0.961 . S
H2728 C2712 0.931 . S
H2729 C2717 0.930 . S
H2730 C2718 0.956 . S
H2731 C2718 0.961 . S
H2732 C2718 0.961 . S
H2733 C2719 0.958 1_455 S
H2734 C2719 0.961 . S
H2735 C2719 0.960 . S
C2736 C2737 1.391 . S
C2736 C2738 1.394 . S
C2736 H2752 0.931 . S
C2737 C2736 1.391 . S
C2737 C2741 1.376 . S
C2738 C2736 1.394 . S
C2738 C2739 1.369 . S
C2738 C2742 1.531 . S
C2739 C2738 1.369 . S
C2739 C2740 1.410 . S
C2739 C2747 1.503 . S
C2740 C2739 1.410 . S
C2740 C2741 1.392 . S
C2740 C2743 1.511 . S
C2741 C2737 1.376 . S
C2741 C2740 1.392 . S
C2741 H2753 0.929 . S
C2742 C2738 1.531 . S
C2742 H2754 0.960 . S
C2742 H2755 0.962 . S
C2742 H2756 0.960 . S
C2743 C2740 1.511 . S
C2743 H2757 0.961 . S
C2743 H2758 0.961 . S
C2743 H2759 0.961 . S
C2744 C2745 1.370 . S
C2744 C2746 1.363 . S
C2744 H2760 0.931 . S
C2745 C2744 1.370 . S
C2745 C2749 1.408 . S
C2746 C2744 1.363 . S
C2746 C2747 1.370 . S
C2746 C2750 1.524 . S
C2747 C2739 1.503 . S
C2747 C2746 1.370 . S
C2747 C2748 1.403 . S
C2748 C2747 1.403 . S
C2748 C2749 1.404 . S
C2748 C2751 1.539 . S
C2749 C2745 1.408 . S
C2749 C2748 1.404 . S
C2749 H2761 0.930 . S
C2750 C2746 1.524 . S
C2750 H2762 0.956 . S
C2750 H2763 0.961 . S
C2750 H2764 0.961 . S
C2751 C2748 1.539 . S
C2751 H2765 0.958 . S
C2751 H2766 0.961 . S
C2751 H2767 0.960 . S
H2752 C2736 0.931 . S
H2753 C2741 0.929 . S
H2754 C2742 0.960 . S
H2755 C2742 0.962 . S
H2756 C2742 0.960 . S
H2757 C2743 0.961 . S
H2758 C2743 0.961 . S
H2759 C2743 0.961 . S
H2760 C2744 0.931 . S
H2761 C2749 0.930 . S
H2762 C2750 0.956 . S
H2763 C2750 0.961 . S
H2764 C2750 0.961 . S
H2765 C2751 0.958 . S
H2766 C2751 0.961 . S
H2767 C2751 0.960 . S
C2768 C2769 1.391 . S
C2768 C2770 1.394 . S
C2768 H2784 0.931 . S
C2769 C2768 1.391 . S
C2769 C2773 1.376 . S
C2770 C2768 1.394 . S
C2770 C2771 1.369 . S
C2770 C2774 1.531 . S
C2771 C2770 1.369 . S
C2771 C2772 1.410 . S
C2771 C2779 1.503 . S
C2772 C2771 1.410 . S
C2772 C2773 1.392 . S
C2772 C2775 1.511 . S
C2773 C2769 1.376 . S
C2773 C2772 1.392 . S
C2773 H2785 0.929 . S
C2774 C2770 1.531 . S
C2774 H2786 0.960 . S
C2774 H2787 0.962 . S
C2774 H2788 0.960 . S
C2775 C2772 1.511 . S
C2775 H2789 0.961 . S
C2775 H2790 0.961 . S
C2775 H2791 0.961 . S
C2776 C2777 1.370 . S
C2776 C2778 1.363 . S
C2776 H2792 0.931 . S
C2777 C2776 1.370 . S
C2777 C2781 1.408 . S
C2778 C2776 1.363 . S
C2778 C2779 1.370 . S
C2778 C2782 1.524 . S
C2779 C2771 1.503 . S
C2779 C2778 1.370 . S
C2779 C2780 1.403 . S
C2780 C2779 1.403 . S
C2780 C2781 1.404 . S
C2780 C2783 1.539 . S
C2781 C2777 1.408 . S
C2781 C2780 1.404 . S
C2781 H2793 0.930 . S
C2782 C2778 1.524 . S
C2782 H2794 0.956 . S
C2782 H2795 0.961 . S
C2782 H2796 0.961 . S
C2783 C2780 1.539 . S
C2783 H2797 0.958 . S
C2783 H2798 0.961 . S
C2783 H2799 0.960 . S
H2784 C2768 0.931 . S
H2785 C2773 0.929 . S
H2786 C2774 0.960 . S
H2787 C2774 0.962 . S
H2788 C2774 0.960 . S
H2789 C2775 0.961 . S
H2790 C2775 0.961 . S
H2791 C2775 0.961 . S
H2792 C2776 0.931 . S
H2793 C2781 0.930 . S
H2794 C2782 0.956 . S
H2795 C2782 0.961 . S
H2796 C2782 0.961 . S
H2797 C2783 0.958 . S
H2798 C2783 0.961 . S
H2799 C2783 0.960 . S
C2800 C2801 1.391 . S
C2800 C2802 1.394 . S
C2800 H2816 0.931 . S
C2801 C2800 1.391 . S
C2801 C2805 1.376 . S
C2802 C2800 1.394 . S
C2802 C2803 1.369 1_554 S
C2802 C2806 1.531 . S
C2803 C2802 1.369 1_556 S
C2803 C2804 1.410 . S
C2803 C2811 1.503 . S
C2804 C2803 1.410 . S
C2804 C2805 1.392 1_556 S
C2804 C2807 1.511 . S
C2805 C2801 1.376 . S
C2805 C2804 1.392 1_554 S
C2805 H2817 0.929 . S
C2806 C2802 1.531 . S
C2806 H2818 0.960 . S
C2806 H2819 0.942 1_554 S
C2806 H2820 0.960 . S
C2807 C2804 1.511 . S
C2807 H2821 0.961 . S
C2807 H2822 0.961 . S
C2807 H2823 0.961 . S
C2808 C2809 1.370 . S
C2808 C2810 1.363 . S
C2808 H2824 0.931 . S
C2809 C2808 1.370 . S
C2809 C2813 1.408 . S
C2810 C2808 1.363 . S
C2810 C2811 1.370 . S
C2810 C2814 1.524 . S
C2811 C2803 1.503 . S
C2811 C2810 1.370 . S
C2811 C2812 1.403 . S
C2812 C2811 1.403 . S
C2812 C2813 1.404 . S
C2812 C2815 1.539 . S
C2813 C2809 1.408 . S
C2813 C2812 1.404 . S
C2813 H2825 0.930 . S
C2814 C2810 1.524 . S
C2814 H2826 0.956 . S
C2814 H2827 0.961 . S
C2814 H2828 0.961 . S
C2815 C2812 1.539 . S
C2815 H2829 0.958 1_556 S
C2815 H2830 0.961 . S
C2815 H2831 0.960 1_556 S
H2816 C2800 0.931 . S
H2817 C2805 0.929 . S
H2818 C2806 0.960 . S
H2819 C2806 0.942 1_556 S
H2820 C2806 0.960 . S
H2821 C2807 0.961 . S
H2822 C2807 0.961 . S
H2823 C2807 0.961 . S
H2824 C2808 0.931 . S
H2825 C2813 0.930 . S
H2826 C2814 0.956 . S
H2827 C2814 0.961 . S
H2828 C2814 0.961 . S
H2829 C2815 0.958 1_554 S
H2830 C2815 0.961 . S
H2831 C2815 0.960 1_554 S
C2832 C2833 1.391 . S
C2832 C2834 1.394 . S
C2832 H2848 0.931 . S
C2833 C2832 1.391 . S
C2833 C2837 1.376 . S
C2834 C2832 1.394 . S
C2834 C2835 1.369 . S
C2834 C2838 1.531 . S
C2835 C2834 1.369 . S
C2835 C2836 1.410 . S
C2835 C2843 1.503 . S
C2836 C2835 1.410 . S
C2836 C2837 1.392 . S
C2836 C2839 1.511 . S
C2837 C2833 1.376 . S
C2837 C2836 1.392 . S
C2837 H2849 0.929 . S
C2838 C2834 1.531 . S
C2838 H2850 0.960 . S
C2838 H2851 0.962 . S
C2838 H2852 0.960 . S
C2839 C2836 1.511 . S
C2839 H2853 0.961 . S
C2839 H2854 0.961 . S
C2839 H2855 0.961 . S
C2840 C2841 1.370 . S
C2840 C2842 1.363 . S
C2840 H2856 0.931 . S
C2841 C2840 1.370 . S
C2841 C2845 1.408 . S
C2842 C2840 1.363 . S
C2842 C2843 1.370 . S
C2842 C2846 1.524 . S
C2843 C2835 1.503 . S
C2843 C2842 1.370 . S
C2843 C2844 1.403 . S
C2844 C2843 1.403 . S
C2844 C2845 1.404 . S
C2844 C2847 1.539 . S
C2845 C2841 1.408 . S
C2845 C2844 1.404 . S
C2845 H2857 0.930 . S
C2846 C2842 1.524 . S
C2846 H2858 0.956 . S
C2846 H2859 0.961 . S
C2846 H2860 0.961 . S
C2847 C2844 1.539 . S
C2847 H2861 0.958 . S
C2847 H2862 0.961 . S
C2847 H2863 0.960 . S
H2848 C2832 0.931 . S
H2849 C2837 0.929 . S
H2850 C2838 0.960 . S
H2851 C2838 0.962 . S
H2852 C2838 0.960 . S
H2853 C2839 0.961 . S
H2854 C2839 0.961 . S
H2855 C2839 0.961 . S
H2856 C2840 0.931 . S
H2857 C2845 0.930 . S
H2858 C2846 0.956 . S
H2859 C2846 0.961 . S
H2860 C2846 0.961 . S
H2861 C2847 0.958 . S
H2862 C2847 0.961 . S
H2863 C2847 0.960 . S
C2864 C2865 1.391 . S
C2864 C2866 1.394 . S
C2864 H2880 0.931 . S
C2865 C2864 1.391 . S
C2865 C2869 1.376 . S
C2866 C2864 1.394 . S
C2866 C2867 1.369 . S
C2866 C2870 1.531 . S
C2867 C2866 1.369 . S
C2867 C2868 1.410 . S
C2867 C2875 1.503 . S
C2868 C2867 1.410 . S
C2868 C2869 1.392 . S
C2868 C2871 1.511 . S
C2869 C2865 1.376 . S
C2869 C2868 1.392 . S
C2869 H2881 0.929 . S
C2870 C2866 1.531 . S
C2870 H2882 0.960 . S
C2870 H2883 0.962 . S
C2870 H2884 0.960 . S
C2871 C2868 1.511 . S
C2871 H2885 0.961 . S
C2871 H2886 0.961 . S
C2871 H2887 0.961 . S
C2872 C2873 1.370 . S
C2872 C2874 1.363 . S
C2872 H2888 0.931 . S
C2873 C2872 1.370 . S
C2873 C2877 1.408 . S
C2874 C2872 1.363 . S
C2874 C2875 1.370 . S
C2874 C2878 1.524 . S
C2875 C2867 1.503 . S
C2875 C2874 1.370 . S
C2875 C2876 1.403 . S
C2876 C2875 1.403 . S
C2876 C2877 1.404 . S
C2876 C2879 1.539 . S
C2877 C2873 1.408 . S
C2877 C2876 1.404 . S
C2877 H2889 0.930 . S
C2878 C2874 1.524 . S
C2878 H2890 0.956 . S
C2878 H2891 0.961 . S
C2878 H2892 0.961 . S
C2879 C2876 1.539 . S
C2879 H2893 0.958 . S
C2879 H2894 0.961 . S
C2879 H2895 0.960 . S
H2880 C2864 0.931 . S
H2881 C2869 0.929 . S
H2882 C2870 0.960 . S
H2883 C2870 0.962 . S
H2884 C2870 0.960 . S
H2885 C2871 0.961 . S
H2886 C2871 0.961 . S
H2887 C2871 0.961 . S
H2888 C2872 0.931 . S
H2889 C2877 0.930 . S
H2890 C2878 0.956 . S
H2891 C2878 0.961 . S
H2892 C2878 0.961 . S
H2893 C2879 0.958 . S
H2894 C2879 0.961 . S
H2895 C2879 0.960 . S
C2896 C2897 1.391 . S
C2896 C2898 1.394 . S
C2896 H2912 0.931 . S
C2897 C2896 1.391 . S
C2897 C2901 1.376 . S
C2898 C2896 1.394 . S
C2898 C2899 1.369 . S
C2898 C2902 1.531 . S
C2899 C2898 1.369 . S
C2899 C2900 1.410 . S
C2899 C2907 1.503 . S
C2900 C2899 1.410 . S
C2900 C2901 1.392 . S
C2900 C2903 1.511 . S
C2901 C2897 1.376 . S
C2901 C2900 1.392 . S
C2901 H2913 0.929 . S
C2902 C2898 1.531 . S
C2902 H2914 0.960 . S
C2902 H2915 0.962 . S
C2902 H2916 0.960 . S
C2903 C2900 1.511 . S
C2903 H2917 0.961 . S
C2903 H2918 0.961 . S
C2903 H2919 0.961 . S
C2904 C2905 1.370 . S
C2904 C2906 1.363 . S
C2904 H2920 0.931 . S
C2905 C2904 1.370 . S
C2905 C2909 1.408 . S
C2906 C2904 1.363 . S
C2906 C2907 1.370 . S
C2906 C2910 1.524 . S
C2907 C2899 1.503 . S
C2907 C2906 1.370 . S
C2907 C2908 1.403 . S
C2908 C2907 1.403 . S
C2908 C2909 1.404 . S
C2908 C2911 1.539 . S
C2909 C2905 1.408 . S
C2909 C2908 1.404 . S
C2909 H2921 0.930 . S
C2910 C2906 1.524 . S
C2910 H2922 0.956 . S
C2910 H2923 0.961 . S
C2910 H2924 0.961 . S
C2911 C2908 1.539 . S
C2911 H2925 0.958 . S
C2911 H2926 0.961 . S
C2911 H2927 0.960 . S
H2912 C2896 0.931 . S
H2913 C2901 0.929 . S
H2914 C2902 0.960 . S
H2915 C2902 0.962 . S
H2916 C2902 0.960 . S
H2917 C2903 0.961 . S
H2918 C2903 0.961 . S
H2919 C2903 0.961 . S
H2920 C2904 0.931 . S
H2921 C2909 0.930 . S
H2922 C2910 0.956 . S
H2923 C2910 0.961 . S
H2924 C2910 0.961 . S
H2925 C2911 0.958 . S
H2926 C2911 0.961 . S
H2927 C2911 0.960 . S
C2928 C2929 1.391 . S
C2928 C2930 1.394 . S
C2928 H2944 0.931 . S
C2929 C2928 1.391 . S
C2929 C2933 1.376 . S
C2930 C2928 1.394 . S
C2930 C2931 1.369 . S
C2930 C2934 1.531 . S
C2931 C2930 1.369 . S
C2931 C2932 1.410 . S
C2931 C2939 1.503 . S
C2932 C2931 1.410 . S
C2932 C2933 1.392 . S
C2932 C2935 1.511 . S
C2933 C2929 1.376 . S
C2933 C2932 1.392 . S
C2933 H2945 0.929 . S
C2934 C2930 1.531 . S
C2934 H2946 0.960 . S
C2934 H2947 0.962 . S
C2934 H2948 0.960 . S
C2935 C2932 1.511 . S
C2935 H2949 0.961 . S
C2935 H2950 0.961 . S
C2935 H2951 0.961 . S
C2936 C2937 1.370 . S
C2936 C2938 1.363 . S
C2936 H2952 0.931 . S
C2937 C2936 1.370 . S
C2937 C2941 1.408 . S
C2938 C2936 1.363 . S
C2938 C2939 1.370 . S
C2938 C2942 1.524 . S
C2939 C2931 1.503 . S
C2939 C2938 1.370 . S
C2939 C2940 1.403 . S
C2940 C2939 1.403 . S
C2940 C2941 1.404 . S
C2940 C2943 1.539 . S
C2941 C2937 1.408 . S
C2941 C2940 1.404 . S
C2941 H2953 0.930 . S
C2942 C2938 1.524 . S
C2942 H2954 0.956 . S
C2942 H2955 0.961 . S
C2942 H2956 0.961 . S
C2943 C2940 1.539 . S
C2943 H2957 0.958 . S
C2943 H2958 0.961 . S
C2943 H2959 0.960 . S
H2944 C2928 0.931 . S
H2945 C2933 0.929 . S
H2946 C2934 0.960 . S
H2947 C2934 0.962 . S
H2948 C2934 0.960 . S
H2949 C2935 0.961 . S
H2950 C2935 0.961 . S
H2951 C2935 0.961 . S
H2952 C2936 0.931 . S
H2953 C2941 0.930 . S
H2954 C2942 0.956 . S
H2955 C2942 0.961 . S
H2956 C2942 0.961 . S
H2957 C2943 0.958 . S
H2958 C2943 0.961 . S
H2959 C2943 0.960 . S
C2960 C2961 1.391 . S
C2960 C2962 1.394 . S
C2960 H2976 0.931 . S
C2961 C2960 1.391 . S
C2961 C2965 1.376 . S
C2962 C2960 1.394 . S
C2962 C2963 1.369 . S
C2962 C2966 1.531 . S
C2963 C2962 1.369 . S
C2963 C2964 1.410 . S
C2963 C2971 1.503 . S
C2964 C2963 1.410 . S
C2964 C2965 1.392 . S
C2964 C2967 1.511 . S
C2965 C2961 1.376 . S
C2965 C2964 1.392 . S
C2965 H2977 0.929 . S
C2966 C2962 1.531 . S
C2966 H2978 0.960 . S
C2966 H2979 0.962 . S
C2966 H2980 0.960 . S
C2967 C2964 1.511 . S
C2967 H2981 0.961 . S
C2967 H2982 0.961 . S
C2967 H2983 0.961 . S
C2968 C2969 1.370 . S
C2968 C2970 1.363 . S
C2968 H2984 0.931 . S
C2969 C2968 1.370 . S
C2969 C2973 1.408 . S
C2970 C2968 1.363 . S
C2970 C2971 1.370 . S
C2970 C2974 1.524 . S
C2971 C2963 1.503 . S
C2971 C2970 1.370 . S
C2971 C2972 1.403 . S
C2972 C2971 1.403 . S
C2972 C2973 1.404 . S
C2972 C2975 1.539 . S
C2973 C2969 1.408 . S
C2973 C2972 1.404 . S
C2973 H2985 0.930 . S
C2974 C2970 1.524 . S
C2974 H2986 0.956 . S
C2974 H2987 0.961 . S
C2974 H2988 0.961 . S
C2975 C2972 1.539 . S
C2975 H2989 0.958 . S
C2975 H2990 0.961 . S
C2975 H2991 0.960 . S
H2976 C2960 0.931 . S
H2977 C2965 0.929 . S
H2978 C2966 0.960 . S
H2979 C2966 0.962 . S
H2980 C2966 0.960 . S
H2981 C2967 0.961 . S
H2982 C2967 0.961 . S
H2983 C2967 0.961 . S
H2984 C2968 0.931 . S
H2985 C2973 0.930 . S
H2986 C2974 0.956 . S
H2987 C2974 0.961 . S
H2988 C2974 0.961 . S
H2989 C2975 0.958 . S
H2990 C2975 0.961 . S
H2991 C2975 0.960 . S
C2992 C2993 1.391 . S
C2992 C2994 1.394 . S
C2992 H3008 0.931 . S
C2993 C2992 1.391 . S
C2993 C2997 1.376 . S
C2994 C2992 1.394 . S
C2994 C2995 1.369 . S
C2994 C2998 1.531 . S
C2995 C2994 1.369 . S
C2995 C2996 1.410 . S
C2995 C3003 1.503 . S
C2996 C2995 1.410 . S
C2996 C2997 1.392 . S
C2996 C2999 1.511 . S
C2997 C2993 1.376 . S
C2997 C2996 1.392 . S
C2997 H3009 0.929 . S
C2998 C2994 1.531 . S
C2998 H3010 0.960 . S
C2998 H3011 0.962 . S
C2998 H3012 0.960 . S
C2999 C2996 1.511 . S
C2999 H3013 0.961 . S
C2999 H3014 0.961 . S
C2999 H3015 0.961 . S
C3000 C3001 1.370 . S
C3000 C3002 1.363 . S
C3000 H3016 0.931 . S
C3001 C3000 1.370 . S
C3001 C3005 1.408 . S
C3002 C3000 1.363 . S
C3002 C3003 1.370 . S
C3002 C3006 1.524 . S
C3003 C2995 1.503 . S
C3003 C3002 1.370 . S
C3003 C3004 1.403 . S
C3004 C3003 1.403 . S
C3004 C3005 1.404 . S
C3004 C3007 1.539 . S
C3005 C3001 1.408 . S
C3005 C3004 1.404 . S
C3005 H3017 0.930 . S
C3006 C3002 1.524 . S
C3006 H3018 0.956 . S
C3006 H3019 0.961 . S
C3006 H3020 0.961 . S
C3007 C3004 1.539 . S
C3007 H3021 0.958 . S
C3007 H3022 0.961 . S
C3007 H3023 0.960 . S
H3008 C2992 0.931 . S
H3009 C2997 0.929 . S
H3010 C2998 0.960 . S
H3011 C2998 0.962 . S
H3012 C2998 0.960 . S
H3013 C2999 0.961 . S
H3014 C2999 0.961 . S
H3015 C2999 0.961 . S
H3016 C3000 0.931 . S
H3017 C3005 0.930 . S
H3018 C3006 0.956 . S
H3019 C3006 0.961 . S
H3020 C3006 0.961 . S
H3021 C3007 0.958 . S
H3022 C3007 0.961 . S
H3023 C3007 0.960 . S
C3024 C3025 1.391 . S
C3024 C3026 1.394 . S
C3024 H3040 0.931 . S
C3025 C3024 1.391 . S
C3025 C3029 1.376 . S
C3026 C3024 1.394 . S
C3026 C3027 1.369 . S
C3026 C3030 1.531 . S
C3027 C3026 1.369 . S
C3027 C3028 1.410 . S
C3027 C3035 1.503 . S
C3028 C3027 1.410 . S
C3028 C3029 1.392 . S
C3028 C3031 1.511 . S
C3029 C3025 1.376 . S
C3029 C3028 1.392 . S
C3029 H3041 0.929 . S
C3030 C3026 1.531 . S
C3030 H3042 0.960 . S
C3030 H3043 0.962 . S
C3030 H3044 0.960 . S
C3031 C3028 1.511 . S
C3031 H3045 0.961 . S
C3031 H3046 0.961 . S
C3031 H3047 0.961 . S
C3032 C3033 1.370 . S
C3032 C3034 1.363 . S
C3032 H3048 0.931 . S
C3033 C3032 1.370 . S
C3033 C3037 1.408 . S
C3034 C3032 1.363 . S
C3034 C3035 1.370 . S
C3034 C3038 1.524 . S
C3035 C3027 1.503 . S
C3035 C3034 1.370 . S
C3035 C3036 1.403 . S
C3036 C3035 1.403 . S
C3036 C3037 1.404 . S
C3036 C3039 1.539 . S
C3037 C3033 1.408 . S
C3037 C3036 1.404 . S
C3037 H3049 0.930 . S
C3038 C3034 1.524 . S
C3038 H3050 0.956 . S
C3038 H3051 0.961 . S
C3038 H3052 0.961 . S
C3039 C3036 1.539 . S
C3039 H3053 0.958 . S
C3039 H3054 0.961 . S
C3039 H3055 0.960 . S
H3040 C3024 0.931 . S
H3041 C3029 0.929 . S
H3042 C3030 0.960 . S
H3043 C3030 0.962 . S
H3044 C3030 0.960 . S
H3045 C3031 0.961 . S
H3046 C3031 0.961 . S
H3047 C3031 0.961 . S
H3048 C3032 0.931 . S
H3049 C3037 0.930 . S
H3050 C3038 0.956 . S
H3051 C3038 0.961 . S
H3052 C3038 0.961 . S
H3053 C3039 0.958 . S
H3054 C3039 0.961 . S
H3055 C3039 0.960 . S
C3056 C3057 1.391 . S
C3056 C3058 1.394 . S
C3056 H3072 0.931 . S
C3057 C3056 1.391 . S
C3057 C3061 1.376 . S
C3058 C3056 1.394 . S
C3058 C3059 1.369 . S
C3058 C3062 1.531 . S
C3059 C3058 1.369 . S
C3059 C3060 1.410 . S
C3059 C3067 1.503 . S
C3060 C3059 1.410 . S
C3060 C3061 1.392 . S
C3060 C3063 1.511 . S
C3061 C3057 1.376 . S
C3061 C3060 1.392 . S
C3061 H3073 0.929 . S
C3062 C3058 1.531 . S
C3062 H3074 0.960 . S
C3062 H3075 0.962 . S
C3062 H3076 0.960 . S
C3063 C3060 1.511 . S
C3063 H3077 0.961 . S
C3063 H3078 0.961 . S
C3063 H3079 0.961 . S
C3064 C3065 1.370 . S
C3064 C3066 1.363 . S
C3064 H3080 0.931 . S
C3065 C3064 1.370 . S
C3065 C3069 1.408 . S
C3066 C3064 1.363 . S
C3066 C3067 1.370 . S
C3066 C3070 1.524 . S
C3067 C3059 1.503 . S
C3067 C3066 1.370 . S
C3067 C3068 1.403 . S
C3068 C3067 1.403 . S
C3068 C3069 1.404 . S
C3068 C3071 1.539 . S
C3069 C3065 1.408 . S
C3069 C3068 1.404 . S
C3069 H3081 0.930 . S
C3070 C3066 1.524 . S
C3070 H3082 0.956 . S
C3070 H3083 0.961 . S
C3070 H3084 0.961 . S
C3071 C3068 1.539 . S
C3071 H3085 0.958 . S
C3071 H3086 0.961 . S
C3071 H3087 0.960 . S
H3072 C3056 0.931 . S
H3073 C3061 0.929 . S
H3074 C3062 0.960 . S
H3075 C3062 0.962 . S
H3076 C3062 0.960 . S
H3077 C3063 0.961 . S
H3078 C3063 0.961 . S
H3079 C3063 0.961 . S
H3080 C3064 0.931 . S
H3081 C3069 0.930 . S
H3082 C3070 0.956 . S
H3083 C3070 0.961 . S
H3084 C3070 0.961 . S
H3085 C3071 0.958 . S
H3086 C3071 0.961 . S
H3087 C3071 0.960 . S
C3088 C3089 1.392 . S
C3088 C3090 1.408 . S
C3088 H3104 0.916 1_565 S
C3089 C3088 1.392 . S
C3089 C3093 1.376 . S
C3090 C3088 1.408 . S
C3090 C3091 1.369 . S
C3090 C3094 1.531 . S
C3091 C3090 1.369 . S
C3091 C3092 1.410 . S
C3091 C3099 1.503 . S
C3092 C3091 1.410 . S
C3092 C3093 1.392 . S
C3092 C3095 1.511 . S
C3093 C3089 1.376 . S
C3093 C3092 1.392 . S
C3093 H3105 0.929 . S
C3094 C3090 1.531 . S
C3094 H3106 0.960 . S
C3094 H3107 0.962 . S
C3094 H3108 0.960 1_565 S
C3095 C3092 1.511 . S
C3095 H3109 0.961 . S
C3095 H3110 0.961 . S
C3095 H3111 0.961 . S
C3096 C3097 1.370 . S
C3096 C3098 1.363 . S
C3096 H3112 0.931 . S
C3097 C3096 1.370 . S
C3097 C3101 1.408 . S
C3098 C3096 1.363 . S
C3098 C3099 1.370 . S
C3098 C3102 1.524 . S
C3099 C3091 1.503 . S
C3099 C3098 1.370 . S
C3099 C3100 1.403 . S
C3100 C3099 1.403 . S
C3100 C3101 1.404 . S
C3100 C3103 1.539 . S
C3101 C3097 1.408 . S
C3101 C3100 1.404 . S
C3101 H3113 0.930 . S
C3102 C3098 1.524 . S
C3102 H3114 0.956 . S
C3102 H3115 0.961 . S
C3102 H3116 0.961 . S
C3103 C3100 1.539 . S
C3103 H3117 0.958 . S
C3103 H3118 0.961 . S
C3103 H3119 0.960 . S
H3104 C3088 0.916 1_545 S
H3105 C3093 0.929 . S
H3106 C3094 0.960 . S
H3107 C3094 0.962 . S
H3108 C3094 0.960 1_545 S
H3109 C3095 0.961 . S
H3110 C3095 0.961 . S
H3111 C3095 0.961 . S
H3112 C3096 0.931 . S
H3113 C3101 0.930 . S
H3114 C3102 0.956 . S
H3115 C3102 0.961 . S
H3116 C3102 0.961 . S
H3117 C3103 0.958 . S
H3118 C3103 0.961 . S
H3119 C3103 0.960 . S
C3120 C3121 1.391 . S
C3120 C3122 1.394 . S
C3120 H3136 0.931 . S
C3121 C3120 1.391 . S
C3121 C3125 1.376 1_554 S
C3122 C3120 1.394 . S
C3122 C3123 1.369 . S
C3122 C3126 1.531 1_565 S
C3123 C3122 1.369 . S
C3123 C3124 1.410 . S
C3123 C3131 1.503 . S
C3124 C3123 1.410 . S
C3124 C3125 1.392 1_554 S
C3124 C3127 1.511 1_554 S
C3125 C3121 1.376 1_556 S
C3125 C3124 1.392 1_556 S
C3125 H3137 0.929 . S
C3126 C3122 1.531 1_545 S
C3126 H3138 0.960 . S
C3126 H3139 0.962 . S
C3126 H3140 0.960 . S
C3127 C3124 1.511 1_556 S
C3127 H3141 0.961 . S
C3127 H3142 0.961 . S
C3127 H3143 0.961 1_556 S
C3128 C3129 1.370 . S
C3128 C3130 1.359 . S
C3128 H3144 0.931 1_554 S
C3129 C3128 1.370 . S
C3129 C3133 1.408 . S
C3130 C3128 1.359 . S
C3130 C3131 1.410 1_545 S
C3130 C3134 1.490 1_554 S
C3131 C3123 1.503 . S
C3131 C3130 1.410 1_565 S
C3131 C3132 1.403 . S
C3132 C3131 1.403 . S
C3132 C3133 1.404 1_565 S
C3132 C3135 1.539 . S
C3133 C3129 1.408 . S
C3133 C3132 1.404 1_545 S
C3133 H3145 0.930 . S
C3134 C3130 1.490 1_556 S
C3134 H3146 0.956 . S
C3134 H3147 0.961 1_545 S
C3134 H3148 0.961 . S
C3135 C3132 1.539 . S
C3135 H3149 0.958 . S
C3135 H3150 0.961 . S
C3135 H3151 0.960 . S
H3136 C3120 0.931 . S
H3137 C3125 0.929 . S
H3138 C3126 0.960 . S
H3139 C3126 0.962 . S
H3140 C3126 0.960 . S
H3141 C3127 0.961 . S
H3142 C3127 0.961 . S
H3143 C3127 0.961 1_554 S
H3144 C3128 0.931 1_556 S
H3145 C3133 0.930 . S
H3146 C3134 0.956 . S
H3147 C3134 0.961 1_565 S
H3148 C3134 0.961 . S
H3149 C3135 0.958 . S
H3150 C3135 0.961 . S
H3151 C3135 0.960 . S
C3152 C3153 1.391 . S
C3152 C3154 1.394 . S
C3152 H3168 0.931 . S
C3153 C3152 1.391 . S
C3153 C3157 1.376 . S
C3154 C3152 1.394 . S
C3154 C3155 1.369 . S
C3154 C3158 1.531 . S
C3155 C3154 1.369 . S
C3155 C3156 1.410 . S
C3155 C3163 1.503 . S
C3156 C3155 1.410 . S
C3156 C3157 1.392 . S
C3156 C3159 1.511 . S
C3157 C3153 1.376 . S
C3157 C3156 1.392 . S
C3157 H3169 0.929 . S
C3158 C3154 1.531 . S
C3158 H3170 0.960 . S
C3158 H3171 0.962 . S
C3158 H3172 0.960 . S
C3159 C3156 1.511 . S
C3159 H3173 0.961 . S
C3159 H3174 0.961 . S
C3159 H3175 0.961 . S
C3160 C3161 1.370 . S
C3160 C3162 1.363 . S
C3160 H3176 0.931 . S
C3161 C3160 1.370 . S
C3161 C3165 1.408 . S
C3162 C3160 1.363 . S
C3162 C3163 1.370 . S
C3162 C3166 1.524 . S
C3163 C3155 1.503 . S
C3163 C3162 1.370 . S
C3163 C3164 1.403 . S
C3164 C3163 1.403 . S
C3164 C3165 1.404 . S
C3164 C3167 1.539 . S
C3165 C3161 1.408 . S
C3165 C3164 1.404 . S
C3165 H3177 0.930 . S
C3166 C3162 1.524 . S
C3166 H3178 0.956 . S
C3166 H3179 0.961 . S
C3166 H3180 0.961 . S
C3167 C3164 1.539 . S
C3167 H3181 0.958 . S
C3167 H3182 0.961 . S
C3167 H3183 0.960 . S
H3168 C3152 0.931 . S
H3169 C3157 0.929 . S
H3170 C3158 0.960 . S
H3171 C3158 0.962 . S
H3172 C3158 0.960 . S
H3173 C3159 0.961 . S
H3174 C3159 0.961 . S
H3175 C3159 0.961 . S
H3176 C3160 0.931 . S
H3177 C3165 0.930 . S
H3178 C3166 0.956 . S
H3179 C3166 0.961 . S
H3180 C3166 0.961 . S
H3181 C3167 0.958 . S
H3182 C3167 0.961 . S
H3183 C3167 0.960 . S
C3184 C3185 1.391 . S
C3184 C3186 1.394 . S
C3184 H3200 0.931 1_554 S
C3185 C3184 1.391 . S
C3185 C3189 1.376 . S
C3186 C3184 1.394 . S
C3186 C3187 1.369 . S
C3186 C3190 1.527 . S
C3187 C3186 1.369 . S
C3187 C3188 1.410 . S
C3187 C3195 1.503 . S
C3188 C3187 1.410 . S
C3188 C3189 1.392 . S
C3188 C3191 1.511 . S
C3189 C3185 1.376 . S
C3189 C3188 1.392 . S
C3189 H3201 0.929 . S
C3190 C3186 1.527 . S
C3190 H3202 0.959 . S
C3190 H3203 0.962 1_554 S
C3190 H3204 0.965 1_554 S
C3191 C3188 1.511 . S
C3191 H3205 0.961 . S
C3191 H3206 0.961 . S
C3191 H3207 0.961 . S
C3192 C3193 1.370 . S
C3192 C3194 1.363 . S
C3192 H3208 0.931 . S
C3193 C3192 1.370 . S
C3193 C3197 1.408 . S
C3194 C3192 1.363 . S
C3194 C3195 1.370 . S
C3194 C3198 1.524 . S
C3195 C3187 1.503 . S
C3195 C3194 1.370 . S
C3195 C3196 1.403 . S
C3196 C3195 1.403 . S
C3196 C3197 1.404 . S
C3196 C3199 1.539 . S
C3197 C3193 1.408 . S
C3197 C3196 1.404 . S
C3197 H3209 0.930 . S
C3198 C3194 1.524 . S
C3198 H3210 0.956 . S
C3198 H3211 0.961 . S
C3198 H3212 0.961 . S
C3199 C3196 1.539 . S
C3199 H3213 0.958 . S
C3199 H3214 0.961 . S
C3199 H3215 0.960 . S
H3200 C3184 0.931 1_556 S
H3201 C3189 0.929 . S
H3202 C3190 0.959 . S
H3203 C3190 0.962 1_556 S
H3204 C3190 0.965 1_556 S
H3205 C3191 0.961 . S
H3206 C3191 0.961 . S
H3207 C3191 0.961 . S
H3208 C3192 0.931 . S
H3209 C3197 0.930 . S
H3210 C3198 0.956 . S
H3211 C3198 0.961 . S
H3212 C3198 0.961 . S
H3213 C3199 0.958 . S
H3214 C3199 0.961 . S
H3215 C3199 0.960 . S
C3216 C3217 1.391 . S
C3216 C3218 1.394 . S
C3216 H3232 0.931 . S
C3217 C3216 1.391 . S
C3217 C3221 1.376 . S
C3218 C3216 1.394 . S
C3218 C3219 1.369 . S
C3218 C3222 1.531 . S
C3219 C3218 1.369 . S
C3219 C3220 1.410 . S
C3219 C3227 1.503 . S
C3220 C3219 1.410 . S
C3220 C3221 1.392 . S
C3220 C3223 1.511 . S
C3221 C3217 1.376 . S
C3221 C3220 1.392 . S
C3221 H3233 0.929 . S
C3222 C3218 1.531 . S
C3222 H3234 0.960 . S
C3222 H3235 0.962 . S
C3222 H3236 0.960 . S
C3223 C3220 1.511 . S
C3223 H3237 0.961 . S
C3223 H3238 0.961 . S
C3223 H3239 0.961 . S
C3224 C3225 1.370 . S
C3224 C3226 1.363 . S
C3224 H3240 0.931 . S
C3225 C3224 1.370 . S
C3225 C3229 1.408 . S
C3226 C3224 1.363 . S
C3226 C3227 1.370 . S
C3226 C3230 1.524 . S
C3227 C3219 1.503 . S
C3227 C3226 1.370 . S
C3227 C3228 1.403 . S
C3228 C3227 1.403 . S
C3228 C3229 1.404 . S
C3228 C3231 1.539 . S
C3229 C3225 1.408 . S
C3229 C3228 1.404 . S
C3229 H3241 0.930 . S
C3230 C3226 1.524 . S
C3230 H3242 0.956 . S
C3230 H3243 0.961 . S
C3230 H3244 0.961 . S
C3231 C3228 1.539 . S
C3231 H3245 0.958 . S
C3231 H3246 0.961 . S
C3231 H3247 0.960 . S
H3232 C3216 0.931 . S
H3233 C3221 0.929 . S
H3234 C3222 0.960 . S
H3235 C3222 0.962 . S
H3236 C3222 0.960 . S
H3237 C3223 0.961 . S
H3238 C3223 0.961 . S
H3239 C3223 0.961 . S
H3240 C3224 0.931 . S
H3241 C3229 0.930 . S
H3242 C3230 0.956 . S
H3243 C3230 0.961 . S
H3244 C3230 0.961 . S
H3245 C3231 0.958 . S
H3246 C3231 0.961 . S
H3247 C3231 0.960 . S
C3248 C3249 1.391 . S
C3248 C3250 1.394 . S
C3248 H3264 0.931 . S
C3249 C3248 1.391 . S
C3249 C3253 1.376 . S
C3250 C3248 1.394 . S
C3250 C3251 1.369 . S
C3250 C3254 1.531 . S
C3251 C3250 1.369 . S
C3251 C3252 1.410 . S
C3251 C3259 1.503 . S
C3252 C3251 1.410 . S
C3252 C3253 1.392 . S
C3252 C3255 1.511 . S
C3253 C3249 1.376 . S
C3253 C3252 1.392 . S
C3253 H3265 0.929 . S
C3254 C3250 1.531 . S
C3254 H3266 0.960 . S
C3254 H3267 0.962 . S
C3254 H3268 0.960 . S
C3255 C3252 1.511 . S
C3255 H3269 0.961 . S
C3255 H3270 0.961 . S
C3255 H3271 0.961 . S
C3256 C3257 1.370 . S
C3256 C3258 1.363 . S
C3256 H3272 0.931 . S
C3257 C3256 1.370 . S
C3257 C3261 1.408 . S
C3258 C3256 1.363 . S
C3258 C3259 1.370 . S
C3258 C3262 1.524 . S
C3259 C3251 1.503 . S
C3259 C3258 1.370 . S
C3259 C3260 1.403 . S
C3260 C3259 1.403 . S
C3260 C3261 1.404 . S
C3260 C3263 1.539 . S
C3261 C3257 1.408 . S
C3261 C3260 1.404 . S
C3261 H3273 0.930 . S
C3262 C3258 1.524 . S
C3262 H3274 0.956 . S
C3262 H3275 0.961 . S
C3262 H3276 0.961 . S
C3263 C3260 1.539 . S
C3263 H3277 0.958 . S
C3263 H3278 0.961 . S
C3263 H3279 0.960 . S
H3264 C3248 0.931 . S
H3265 C3253 0.929 . S
H3266 C3254 0.960 . S
H3267 C3254 0.962 . S
H3268 C3254 0.960 . S
H3269 C3255 0.961 . S
H3270 C3255 0.961 . S
H3271 C3255 0.961 . S
H3272 C3256 0.931 . S
H3273 C3261 0.930 . S
H3274 C3262 0.956 . S
H3275 C3262 0.961 . S
H3276 C3262 0.961 . S
H3277 C3263 0.958 . S
H3278 C3263 0.961 . S
H3279 C3263 0.960 . S
C3280 C3281 1.391 . S
C3280 C3282 1.394 . S
C3280 H3296 0.931 . S
C3281 C3280 1.391 . S
C3281 C3285 1.376 . S
C3282 C3280 1.394 . S
C3282 C3283 1.369 . S
C3282 C3286 1.531 . S
C3283 C3282 1.369 . S
C3283 C3284 1.410 . S
C3283 C3291 1.503 . S
C3284 C3283 1.410 . S
C3284 C3285 1.392 . S
C3284 C3287 1.511 . S
C3285 C3281 1.376 . S
C3285 C3284 1.392 . S
C3285 H3297 0.929 . S
C3286 C3282 1.531 . S
C3286 H3298 0.960 . S
C3286 H3299 0.962 . S
C3286 H3300 0.960 . S
C3287 C3284 1.511 . S
C3287 H3301 0.961 . S
C3287 H3302 0.961 . S
C3287 H3303 0.961 . S
C3288 C3289 1.370 . S
C3288 C3290 1.363 . S
C3288 H3304 0.931 . S
C3289 C3288 1.370 . S
C3289 C3293 1.408 . S
C3290 C3288 1.363 . S
C3290 C3291 1.370 . S
C3290 C3294 1.524 . S
C3291 C3283 1.503 . S
C3291 C3290 1.370 . S
C3291 C3292 1.403 . S
C3292 C3291 1.403 . S
C3292 C3293 1.404 . S
C3292 C3295 1.539 . S
C3293 C3289 1.408 . S
C3293 C3292 1.404 . S
C3293 H3305 0.930 . S
C3294 C3290 1.524 . S
C3294 H3306 0.956 . S
C3294 H3307 0.961 . S
C3294 H3308 0.961 . S
C3295 C3292 1.539 . S
C3295 H3309 0.958 . S
C3295 H3310 0.961 . S
C3295 H3311 0.960 . S
H3296 C3280 0.931 . S
H3297 C3285 0.929 . S
H3298 C3286 0.960 . S
H3299 C3286 0.962 . S
H3300 C3286 0.960 . S
H3301 C3287 0.961 . S
H3302 C3287 0.961 . S
H3303 C3287 0.961 . S
H3304 C3288 0.931 . S
H3305 C3293 0.930 . S
H3306 C3294 0.956 . S
H3307 C3294 0.961 . S
H3308 C3294 0.961 . S
H3309 C3295 0.958 . S
H3310 C3295 0.961 . S
H3311 C3295 0.960 . S
C3312 C3313 1.391 . S
C3312 C3314 1.394 . S
C3312 H3328 0.931 . S
C3313 C3312 1.391 . S
C3313 C3317 1.376 . S
C3314 C3312 1.394 . S
C3314 C3315 1.369 . S
C3314 C3318 1.531 . S
C3315 C3314 1.369 . S
C3315 C3316 1.410 . S
C3315 C3323 1.503 . S
C3316 C3315 1.410 . S
C3316 C3317 1.392 . S
C3316 C3319 1.511 . S
C3317 C3313 1.376 . S
C3317 C3316 1.392 . S
C3317 H3329 0.929 . S
C3318 C3314 1.531 . S
C3318 H3330 0.960 . S
C3318 H3331 0.962 . S
C3318 H3332 0.960 . S
C3319 C3316 1.511 . S
C3319 H3333 0.961 . S
C3319 H3334 0.961 . S
C3319 H3335 0.961 . S
C3320 C3321 1.370 . S
C3320 C3322 1.363 . S
C3320 H3336 0.931 . S
C3321 C3320 1.370 . S
C3321 C3325 1.408 . S
C3322 C3320 1.363 . S
C3322 C3323 1.370 . S
C3322 C3326 1.524 . S
C3323 C3315 1.503 . S
C3323 C3322 1.370 . S
C3323 C3324 1.403 . S
C3324 C3323 1.403 . S
C3324 C3325 1.404 . S
C3324 C3327 1.539 . S
C3325 C3321 1.408 . S
C3325 C3324 1.404 . S
C3325 H3337 0.930 . S
C3326 C3322 1.524 . S
C3326 H3338 0.956 . S
C3326 H3339 0.961 . S
C3326 H3340 0.961 . S
C3327 C3324 1.539 . S
C3327 H3341 0.958 . S
C3327 H3342 0.961 . S
C3327 H3343 0.960 . S
H3328 C3312 0.931 . S
H3329 C3317 0.929 . S
H3330 C3318 0.960 . S
H3331 C3318 0.962 . S
H3332 C3318 0.960 . S
H3333 C3319 0.961 . S
H3334 C3319 0.961 . S
H3335 C3319 0.961 . S
H3336 C3320 0.931 . S
H3337 C3325 0.930 . S
H3338 C3326 0.956 . S
H3339 C3326 0.961 . S
H3340 C3326 0.961 . S
H3341 C3327 0.958 . S
H3342 C3327 0.961 . S
H3343 C3327 0.960 . S
C3344 C3345 1.391 . S
C3344 C3346 1.394 . S
C3344 H3360 0.931 . S
C3345 C3344 1.391 . S
C3345 C3349 1.376 . S
C3346 C3344 1.394 . S
C3346 C3347 1.369 . S
C3346 C3350 1.531 . S
C3347 C3346 1.369 . S
C3347 C3348 1.410 . S
C3347 C3355 1.503 . S
C3348 C3347 1.410 . S
C3348 C3349 1.392 . S
C3348 C3351 1.511 . S
C3349 C3345 1.376 . S
C3349 C3348 1.392 . S
C3349 H3361 0.929 . S
C3350 C3346 1.531 . S
C3350 H3362 0.963 1_455 S
C3350 H3363 0.962 . S
C3350 H3364 0.960 1_455 S
C3351 C3348 1.511 . S
C3351 H3365 0.961 . S
C3351 H3366 0.961 . S
C3351 H3367 0.961 . S
C3352 C3353 1.370 . S
C3352 C3354 1.363 . S
C3352 H3368 0.931 . S
C3353 C3352 1.370 . S
C3353 C3357 1.408 . S
C3354 C3352 1.363 . S
C3354 C3355 1.370 . S
C3354 C3358 1.524 . S
C3355 C3347 1.503 . S
C3355 C3354 1.370 . S
C3355 C3356 1.403 . S
C3356 C3355 1.403 . S
C3356 C3357 1.404 . S
C3356 C3359 1.539 . S
C3357 C3353 1.408 . S
C3357 C3356 1.404 . S
C3357 H3369 0.930 . S
C3358 C3354 1.524 . S
C3358 H3370 0.956 . S
C3358 H3371 0.961 . S
C3358 H3372 0.961 . S
C3359 C3356 1.539 . S
C3359 H3373 0.958 . S
C3359 H3374 0.961 1_554 S
C3359 H3375 0.960 . S
H3360 C3344 0.931 . S
H3361 C3349 0.929 . S
H3362 C3350 0.963 1_655 S
H3363 C3350 0.962 . S
H3364 C3350 0.960 1_655 S
H3365 C3351 0.961 . S
H3366 C3351 0.961 . S
H3367 C3351 0.961 . S
H3368 C3352 0.931 . S
H3369 C3357 0.930 . S
H3370 C3358 0.956 . S
H3371 C3358 0.961 . S
H3372 C3358 0.961 . S
H3373 C3359 0.958 . S
H3374 C3359 0.961 1_556 S
H3375 C3359 0.960 . S
C3376 C3377 1.391 . S
C3376 C3378 1.394 . S
C3376 H3392 0.931 . S
C3377 C3376 1.391 . S
C3377 C3381 1.376 . S
C3378 C3376 1.394 . S
C3378 C3379 1.369 . S
C3378 C3382 1.531 . S
C3379 C3378 1.369 . S
C3379 C3380 1.410 . S
C3379 C3387 1.503 . S
C3380 C3379 1.410 . S
C3380 C3381 1.392 . S
C3380 C3383 1.511 . S
C3381 C3377 1.376 . S
C3381 C3380 1.392 . S
C3381 H3393 0.929 . S
C3382 C3378 1.531 . S
C3382 H3394 0.960 . S
C3382 H3395 0.962 . S
C3382 H3396 0.960 . S
C3383 C3380 1.511 . S
C3383 H3397 0.961 . S
C3383 H3398 0.961 . S
C3383 H3399 0.961 . S
C3384 C3385 1.370 . S
C3384 C3386 1.363 . S
C3384 H3400 0.931 . S
C3385 C3384 1.370 . S
C3385 C3389 1.408 . S
C3386 C3384 1.363 . S
C3386 C3387 1.370 . S
C3386 C3390 1.524 . S
C3387 C3379 1.503 . S
C3387 C3386 1.370 . S
C3387 C3388 1.403 . S
C3388 C3387 1.403 . S
C3388 C3389 1.404 . S
C3388 C3391 1.539 . S
C3389 C3385 1.408 . S
C3389 C3388 1.404 . S
C3389 H3401 0.930 . S
C3390 C3386 1.524 . S
C3390 H3402 0.956 . S
C3390 H3403 0.961 . S
C3390 H3404 0.961 . S
C3391 C3388 1.539 . S
C3391 H3405 0.958 . S
C3391 H3406 0.961 . S
C3391 H3407 0.960 . S
H3392 C3376 0.931 . S
H3393 C3381 0.929 . S
H3394 C3382 0.960 . S
H3395 C3382 0.962 . S
H3396 C3382 0.960 . S
H3397 C3383 0.961 . S
H3398 C3383 0.961 . S
H3399 C3383 0.961 . S
H3400 C3384 0.931 . S
H3401 C3389 0.930 . S
H3402 C3390 0.956 . S
H3403 C3390 0.961 . S
H3404 C3390 0.961 . S
H3405 C3391 0.958 . S
H3406 C3391 0.961 . S
H3407 C3391 0.960 . S
C3408 C3409 1.391 . S
C3408 C3410 1.394 . S
C3408 H3424 0.931 . S
C3409 C3408 1.391 . S
C3409 C3413 1.376 . S
C3410 C3408 1.394 . S
C3410 C3411 1.369 . S
C3410 C3414 1.531 . S
C3411 C3410 1.369 . S
C3411 C3412 1.410 . S
C3411 C3419 1.503 . S
C3412 C3411 1.410 . S
C3412 C3413 1.392 . S
C3412 C3415 1.511 . S
C3413 C3409 1.376 . S
C3413 C3412 1.392 . S
C3413 H3425 0.929 . S
C3414 C3410 1.531 . S
C3414 H3426 0.960 . S
C3414 H3427 0.962 . S
C3414 H3428 0.960 . S
C3415 C3412 1.511 . S
C3415 H3429 0.961 . S
C3415 H3430 0.961 . S
C3415 H3431 0.961 . S
C3416 C3417 1.370 . S
C3416 C3418 1.363 . S
C3416 H3432 0.931 . S
C3417 C3416 1.370 . S
C3417 C3421 1.408 . S
C3418 C3416 1.363 . S
C3418 C3419 1.370 . S
C3418 C3422 1.524 . S
C3419 C3411 1.503 . S
C3419 C3418 1.370 . S
C3419 C3420 1.403 . S
C3420 C3419 1.403 . S
C3420 C3421 1.404 . S
C3420 C3423 1.539 . S
C3421 C3417 1.408 . S
C3421 C3420 1.404 . S
C3421 H3433 0.930 . S
C3422 C3418 1.524 . S
C3422 H3434 0.956 . S
C3422 H3435 0.961 . S
C3422 H3436 0.961 . S
C3423 C3420 1.539 . S
C3423 H3437 0.958 . S
C3423 H3438 0.961 . S
C3423 H3439 0.960 . S
H3424 C3408 0.931 . S
H3425 C3413 0.929 . S
H3426 C3414 0.960 . S
H3427 C3414 0.962 . S
H3428 C3414 0.960 . S
H3429 C3415 0.961 . S
H3430 C3415 0.961 . S
H3431 C3415 0.961 . S
H3432 C3416 0.931 . S
H3433 C3421 0.930 . S
H3434 C3422 0.956 . S
H3435 C3422 0.961 . S
H3436 C3422 0.961 . S
H3437 C3423 0.958 . S
H3438 C3423 0.961 . S
H3439 C3423 0.960 . S
C3440 C3441 1.391 . S
C3440 C3442 1.394 . S
C3440 H3456 0.931 . S
C3441 C3440 1.391 . S
C3441 C3445 1.376 . S
C3442 C3440 1.394 . S
C3442 C3443 1.369 . S
C3442 C3446 1.531 . S
C3443 C3442 1.369 . S
C3443 C3444 1.410 . S
C3443 C3451 1.503 . S
C3444 C3443 1.410 . S
C3444 C3445 1.392 . S
C3444 C3447 1.511 . S
C3445 C3441 1.376 . S
C3445 C3444 1.392 . S
C3445 H3457 0.929 . S
C3446 C3442 1.531 . S
C3446 H3458 0.960 . S
C3446 H3459 0.962 . S
C3446 H3460 0.960 . S
C3447 C3444 1.511 . S
C3447 H3461 0.961 . S
C3447 H3462 0.961 . S
C3447 H3463 0.961 . S
C3448 C3449 1.370 . S
C3448 C3450 1.363 . S
C3448 H3464 0.931 . S
C3449 C3448 1.370 . S
C3449 C3453 1.408 . S
C3450 C3448 1.363 . S
C3450 C3451 1.370 . S
C3450 C3454 1.524 . S
C3451 C3443 1.503 . S
C3451 C3450 1.370 . S
C3451 C3452 1.403 . S
C3452 C3451 1.403 . S
C3452 C3453 1.404 . S
C3452 C3455 1.539 . S
C3453 C3449 1.408 . S
C3453 C3452 1.404 . S
C3453 H3465 0.930 . S
C3454 C3450 1.524 . S
C3454 H3466 0.956 . S
C3454 H3467 0.961 . S
C3454 H3468 0.961 . S
C3455 C3452 1.539 . S
C3455 H3469 0.958 . S
C3455 H3470 0.961 . S
C3455 H3471 0.960 . S
H3456 C3440 0.931 . S
H3457 C3445 0.929 . S
H3458 C3446 0.960 . S
H3459 C3446 0.962 . S
H3460 C3446 0.960 . S
H3461 C3447 0.961 . S
H3462 C3447 0.961 . S
H3463 C3447 0.961 . S
H3464 C3448 0.931 . S
H3465 C3453 0.930 . S
H3466 C3454 0.956 . S
H3467 C3454 0.961 . S
H3468 C3454 0.961 . S
H3469 C3455 0.958 . S
H3470 C3455 0.961 . S
H3471 C3455 0.960 . S
C3472 C3473 1.391 . S
C3472 C3474 1.394 . S
C3472 H3488 0.931 . S
C3473 C3472 1.391 . S
C3473 C3477 1.376 . S
C3474 C3472 1.394 . S
C3474 C3475 1.369 . S
C3474 C3478 1.531 . S
C3475 C3474 1.369 . S
C3475 C3476 1.410 . S
C3475 C3483 1.503 . S
C3476 C3475 1.410 . S
C3476 C3477 1.392 . S
C3476 C3479 1.511 1_455 S
C3477 C3473 1.376 . S
C3477 C3476 1.392 . S
C3477 H3489 0.929 . S
C3478 C3474 1.531 . S
C3478 H3490 0.960 . S
C3478 H3491 0.962 . S
C3478 H3492 0.960 . S
C3479 C3476 1.511 1_655 S
C3479 H3493 0.961 . S
C3479 H3494 0.961 . S
C3479 H3495 0.961 . S
C3480 C3481 1.370 . S
C3480 C3482 1.363 . S
C3480 H3496 0.931 . S
C3481 C3480 1.370 . S
C3481 C3485 1.408 . S
C3482 C3480 1.363 . S
C3482 C3483 1.370 . S
C3482 C3486 1.524 . S
C3483 C3475 1.503 . S
C3483 C3482 1.370 . S
C3483 C3484 1.403 . S
C3484 C3483 1.403 . S
C3484 C3485 1.404 . S
C3484 C3487 1.539 . S
C3485 C3481 1.408 . S
C3485 C3484 1.404 . S
C3485 H3497 0.930 . S
C3486 C3482 1.524 . S
C3486 H3498 0.956 . S
C3486 H3499 0.961 . S
C3486 H3500 0.961 . S
C3487 C3484 1.539 . S
C3487 H3501 0.958 . S
C3487 H3502 0.961 . S
C3487 H3503 0.960 . S
H3488 C3472 0.931 . S
H3489 C3477 0.929 . S
H3490 C3478 0.960 . S
H3491 C3478 0.962 . S
H3492 C3478 0.960 . S
H3493 C3479 0.961 . S
H3494 C3479 0.961 . S
H3495 C3479 0.961 . S
H3496 C3480 0.931 . S
H3497 C3485 0.930 . S
H3498 C3486 0.956 . S
H3499 C3486 0.961 . S
H3500 C3486 0.961 . S
H3501 C3487 0.958 . S
H3502 C3487 0.961 . S
H3503 C3487 0.960 . S
C3504 C3505 1.391 . S
C3504 C3506 1.394 . S
C3504 H3520 0.931 . S
C3505 C3504 1.391 . S
C3505 C3509 1.376 . S
C3506 C3504 1.394 . S
C3506 C3507 1.369 . S
C3506 C3510 1.531 . S
C3507 C3506 1.369 . S
C3507 C3508 1.410 . S
C3507 C3515 1.503 . S
C3508 C3507 1.410 . S
C3508 C3509 1.392 . S
C3508 C3511 1.511 . S
C3509 C3505 1.376 . S
C3509 C3508 1.392 . S
C3509 H3521 0.929 . S
C3510 C3506 1.531 . S
C3510 H3522 0.960 . S
C3510 H3523 0.962 . S
C3510 H3524 0.960 . S
C3511 C3508 1.511 . S
C3511 H3525 0.961 . S
C3511 H3526 0.961 . S
C3511 H3527 0.961 . S
C3512 C3513 1.370 . S
C3512 C3514 1.363 . S
C3512 H3528 0.931 . S
C3513 C3512 1.370 . S
C3513 C3517 1.408 . S
C3514 C3512 1.363 . S
C3514 C3515 1.370 . S
C3514 C3518 1.524 . S
C3515 C3507 1.503 . S
C3515 C3514 1.370 . S
C3515 C3516 1.403 . S
C3516 C3515 1.403 . S
C3516 C3517 1.404 . S
C3516 C3519 1.539 . S
C3517 C3513 1.408 . S
C3517 C3516 1.404 . S
C3517 H3529 0.930 . S
C3518 C3514 1.524 . S
C3518 H3530 0.956 . S
C3518 H3531 0.961 . S
C3518 H3532 0.961 . S
C3519 C3516 1.539 . S
C3519 H3533 0.958 . S
C3519 H3534 0.961 . S
C3519 H3535 0.960 . S
H3520 C3504 0.931 . S
H3521 C3509 0.929 . S
H3522 C3510 0.960 . S
H3523 C3510 0.962 . S
H3524 C3510 0.960 . S
H3525 C3511 0.961 . S
H3526 C3511 0.961 . S
H3527 C3511 0.961 . S
H3528 C3512 0.931 . S
H3529 C3517 0.930 . S
H3530 C3518 0.956 . S
H3531 C3518 0.961 . S
H3532 C3518 0.961 . S
H3533 C3519 0.958 . S
H3534 C3519 0.961 . S
H3535 C3519 0.960 . S
C3536 C3537 1.391 . S
C3536 C3538 1.394 . S
C3536 H3552 0.931 . S
C3537 C3536 1.391 . S
C3537 C3541 1.376 . S
C3538 C3536 1.394 . S
C3538 C3539 1.369 . S
C3538 C3542 1.531 . S
C3539 C3538 1.369 . S
C3539 C3540 1.410 . S
C3539 C3547 1.503 . S
C3540 C3539 1.410 . S
C3540 C3541 1.392 . S
C3540 C3543 1.511 . S
C3541 C3537 1.376 . S
C3541 C3540 1.392 . S
C3541 H3553 0.929 . S
C3542 C3538 1.531 . S
C3542 H3554 0.960 . S
C3542 H3555 0.962 . S
C3542 H3556 0.960 . S
C3543 C3540 1.511 . S
C3543 H3557 0.961 . S
C3543 H3558 0.961 . S
C3543 H3559 0.961 . S
C3544 C3545 1.370 . S
C3544 C3546 1.363 . S
C3544 H3560 0.931 . S
C3545 C3544 1.370 . S
C3545 C3549 1.408 . S
C3546 C3544 1.363 . S
C3546 C3547 1.370 . S
C3546 C3550 1.524 . S
C3547 C3539 1.503 . S
C3547 C3546 1.370 . S
C3547 C3548 1.403 . S
C3548 C3547 1.403 . S
C3548 C3549 1.404 . S
C3548 C3551 1.539 . S
C3549 C3545 1.408 . S
C3549 C3548 1.404 . S
C3549 H3561 0.930 . S
C3550 C3546 1.524 . S
C3550 H3562 0.956 . S
C3550 H3563 0.961 . S
C3550 H3564 0.961 . S
C3551 C3548 1.539 . S
C3551 H3565 0.958 . S
C3551 H3566 0.961 . S
C3551 H3567 0.960 . S
H3552 C3536 0.931 . S
H3553 C3541 0.929 . S
H3554 C3542 0.960 . S
H3555 C3542 0.962 . S
H3556 C3542 0.960 . S
H3557 C3543 0.961 . S
H3558 C3543 0.961 . S
H3559 C3543 0.961 . S
H3560 C3544 0.931 . S
H3561 C3549 0.930 . S
H3562 C3550 0.956 . S
H3563 C3550 0.961 . S
H3564 C3550 0.961 . S
H3565 C3551 0.958 . S
H3566 C3551 0.961 . S
H3567 C3551 0.960 . S
C3568 C3569 1.391 . S
C3568 C3570 1.394 . S
C3568 H3584 0.931 . S
C3569 C3568 1.391 . S
C3569 C3573 1.376 . S
C3570 C3568 1.394 . S
C3570 C3571 1.369 . S
C3570 C3574 1.531 . S
C3571 C3570 1.369 . S
C3571 C3572 1.410 . S
C3571 C3579 1.503 . S
C3572 C3571 1.410 . S
C3572 C3573 1.392 . S
C3572 C3575 1.511 . S
C3573 C3569 1.376 . S
C3573 C3572 1.392 . S
C3573 H3585 0.929 . S
C3574 C3570 1.531 . S
C3574 H3586 0.960 . S
C3574 H3587 0.962 . S
C3574 H3588 0.960 . S
C3575 C3572 1.511 . S
C3575 H3589 0.961 . S
C3575 H3590 0.961 . S
C3575 H3591 0.961 . S
C3576 C3577 1.370 . S
C3576 C3578 1.363 . S
C3576 H3592 0.931 . S
C3577 C3576 1.370 . S
C3577 C3581 1.408 . S
C3578 C3576 1.363 . S
C3578 C3579 1.370 . S
C3578 C3582 1.524 . S
C3579 C3571 1.503 . S
C3579 C3578 1.370 . S
C3579 C3580 1.403 . S
C3580 C3579 1.403 . S
C3580 C3581 1.404 . S
C3580 C3583 1.539 . S
C3581 C3577 1.408 . S
C3581 C3580 1.404 . S
C3581 H3593 0.930 . S
C3582 C3578 1.524 . S
C3582 H3594 0.956 . S
C3582 H3595 0.961 . S
C3582 H3596 0.961 . S
C3583 C3580 1.539 . S
C3583 H3597 0.958 . S
C3583 H3598 0.961 . S
C3583 H3599 0.960 . S
H3584 C3568 0.931 . S
H3585 C3573 0.929 . S
H3586 C3574 0.960 . S
H3587 C3574 0.962 . S
H3588 C3574 0.960 . S
H3589 C3575 0.961 . S
H3590 C3575 0.961 . S
H3591 C3575 0.961 . S
H3592 C3576 0.931 . S
H3593 C3581 0.930 . S
H3594 C3582 0.956 . S
H3595 C3582 0.961 . S
H3596 C3582 0.961 . S
H3597 C3583 0.958 . S
H3598 C3583 0.961 . S
H3599 C3583 0.960 . S
C3600 C3601 1.391 . S
C3600 C3602 1.394 . S
C3600 H3616 0.931 . S
C3601 C3600 1.391 . S
C3601 C3605 1.376 . S
C3602 C3600 1.394 . S
C3602 C3603 1.369 . S
C3602 C3606 1.531 . S
C3603 C3602 1.369 . S
C3603 C3604 1.410 . S
C3603 C3611 1.503 . S
C3604 C3603 1.410 . S
C3604 C3605 1.392 . S
C3604 C3607 1.511 . S
C3605 C3601 1.376 . S
C3605 C3604 1.392 . S
C3605 H3617 0.929 . S
C3606 C3602 1.531 . S
C3606 H3618 0.960 . S
C3606 H3619 0.962 . S
C3606 H3620 0.960 . S
C3607 C3604 1.511 . S
C3607 H3621 0.961 . S
C3607 H3622 0.961 . S
C3607 H3623 0.961 . S
C3608 C3609 1.370 . S
C3608 C3610 1.363 . S
C3608 H3624 0.931 . S
C3609 C3608 1.370 . S
C3609 C3613 1.408 . S
C3610 C3608 1.363 . S
C3610 C3611 1.370 . S
C3610 C3614 1.524 . S
C3611 C3603 1.503 . S
C3611 C3610 1.370 . S
C3611 C3612 1.403 . S
C3612 C3611 1.403 . S
C3612 C3613 1.404 . S
C3612 C3615 1.539 . S
C3613 C3609 1.408 . S
C3613 C3612 1.404 . S
C3613 H3625 0.930 . S
C3614 C3610 1.524 . S
C3614 H3626 0.956 . S
C3614 H3627 0.961 . S
C3614 H3628 0.961 . S
C3615 C3612 1.539 . S
C3615 H3629 0.958 . S
C3615 H3630 0.961 . S
C3615 H3631 0.960 . S
H3616 C3600 0.931 . S
H3617 C3605 0.929 . S
H3618 C3606 0.960 . S
H3619 C3606 0.962 . S
H3620 C3606 0.960 . S
H3621 C3607 0.961 . S
H3622 C3607 0.961 . S
H3623 C3607 0.961 . S
H3624 C3608 0.931 . S
H3625 C3613 0.930 . S
H3626 C3614 0.956 . S
H3627 C3614 0.961 . S
H3628 C3614 0.961 . S
H3629 C3615 0.958 . S
H3630 C3615 0.961 . S
H3631 C3615 0.960 . S
C3632 C3633 1.391 . S
C3632 C3634 1.394 . S
C3632 H3648 0.931 . S
C3633 C3632 1.391 . S
C3633 C3637 1.376 . S
C3634 C3632 1.394 . S
C3634 C3635 1.369 . S
C3634 C3638 1.531 . S
C3635 C3634 1.369 . S
C3635 C3636 1.410 . S
C3635 C3643 1.503 . S
C3636 C3635 1.410 . S
C3636 C3637 1.392 . S
C3636 C3639 1.511 . S
C3637 C3633 1.376 . S
C3637 C3636 1.392 . S
C3637 H3649 0.929 . S
C3638 C3634 1.531 . S
C3638 H3650 0.960 . S
C3638 H3651 0.962 . S
C3638 H3652 0.960 . S
C3639 C3636 1.511 . S
C3639 H3653 0.961 . S
C3639 H3654 0.961 . S
C3639 H3655 0.961 . S
C3640 C3641 1.370 . S
C3640 C3642 1.363 . S
C3640 H3656 0.931 . S
C3641 C3640 1.370 . S
C3641 C3645 1.408 . S
C3642 C3640 1.363 . S
C3642 C3643 1.370 . S
C3642 C3646 1.524 . S
C3643 C3635 1.503 . S
C3643 C3642 1.370 . S
C3643 C3644 1.403 . S
C3644 C3643 1.403 . S
C3644 C3645 1.404 . S
C3644 C3647 1.539 . S
C3645 C3641 1.408 . S
C3645 C3644 1.404 . S
C3645 H3657 0.930 . S
C3646 C3642 1.524 . S
C3646 H3658 0.956 . S
C3646 H3659 0.961 . S
C3646 H3660 0.961 . S
C3647 C3644 1.539 . S
C3647 H3661 0.958 . S
C3647 H3662 0.961 . S
C3647 H3663 0.960 . S
H3648 C3632 0.931 . S
H3649 C3637 0.929 . S
H3650 C3638 0.960 . S
H3651 C3638 0.962 . S
H3652 C3638 0.960 . S
H3653 C3639 0.961 . S
H3654 C3639 0.961 . S
H3655 C3639 0.961 . S
H3656 C3640 0.931 . S
H3657 C3645 0.930 . S
H3658 C3646 0.956 . S
H3659 C3646 0.961 . S
H3660 C3646 0.961 . S
H3661 C3647 0.958 . S
H3662 C3647 0.961 . S
H3663 C3647 0.960 . S
C3664 C3665 1.391 . S
C3664 C3666 1.394 . S
C3664 H3680 0.931 . S
C3665 C3664 1.391 . S
C3665 C3669 1.376 . S
C3666 C3664 1.394 . S
C3666 C3667 1.369 . S
C3666 C3670 1.531 . S
C3667 C3666 1.369 . S
C3667 C3668 1.410 . S
C3667 C3675 1.503 . S
C3668 C3667 1.410 . S
C3668 C3669 1.392 . S
C3668 C3671 1.511 . S
C3669 C3665 1.376 . S
C3669 C3668 1.392 . S
C3669 H3681 0.929 . S
C3670 C3666 1.531 . S
C3670 H3682 0.960 . S
C3670 H3683 0.962 . S
C3670 H3684 0.960 . S
C3671 C3668 1.511 . S
C3671 H3685 0.961 . S
C3671 H3686 0.961 . S
C3671 H3687 0.961 . S
C3672 C3673 1.370 . S
C3672 C3674 1.363 . S
C3672 H3688 0.931 . S
C3673 C3672 1.370 . S
C3673 C3677 1.408 . S
C3674 C3672 1.363 . S
C3674 C3675 1.370 . S
C3674 C3678 1.524 . S
C3675 C3667 1.503 . S
C3675 C3674 1.370 . S
C3675 C3676 1.403 . S
C3676 C3675 1.403 . S
C3676 C3677 1.404 . S
C3676 C3679 1.539 . S
C3677 C3673 1.408 . S
C3677 C3676 1.404 . S
C3677 H3689 0.930 . S
C3678 C3674 1.524 . S
C3678 H3690 0.956 . S
C3678 H3691 0.961 . S
C3678 H3692 0.961 . S
C3679 C3676 1.539 . S
C3679 H3693 0.958 . S
C3679 H3694 0.961 . S
C3679 H3695 0.960 . S
H3680 C3664 0.931 . S
H3681 C3669 0.929 . S
H3682 C3670 0.960 . S
H3683 C3670 0.962 . S
H3684 C3670 0.960 . S
H3685 C3671 0.961 . S
H3686 C3671 0.961 . S
H3687 C3671 0.961 . S
H3688 C3672 0.931 . S
H3689 C3677 0.930 . S
H3690 C3678 0.956 . S
H3691 C3678 0.961 . S
H3692 C3678 0.961 . S
H3693 C3679 0.958 . S
H3694 C3679 0.961 . S
H3695 C3679 0.960 . S
C3696 C3697 1.391 . S
C3696 C3698 1.394 . S
C3696 H3712 0.931 . S
C3697 C3696 1.391 . S
C3697 C3701 1.376 . S
C3698 C3696 1.394 . S
C3698 C3699 1.369 . S
C3698 C3702 1.531 . S
C3699 C3698 1.369 . S
C3699 C3700 1.410 . S
C3699 C3707 1.503 . S
C3700 C3699 1.410 . S
C3700 C3701 1.392 . S
C3700 C3703 1.511 . S
C3701 C3697 1.376 . S
C3701 C3700 1.392 . S
C3701 H3713 0.929 . S
C3702 C3698 1.531 . S
C3702 H3714 0.960 . S
C3702 H3715 0.962 . S
C3702 H3716 0.960 . S
C3703 C3700 1.511 . S
C3703 H3717 0.961 . S
C3703 H3718 0.961 . S
C3703 H3719 0.961 . S
C3704 C3705 1.370 . S
C3704 C3706 1.363 . S
C3704 H3720 0.931 . S
C3705 C3704 1.370 . S
C3705 C3709 1.408 . S
C3706 C3704 1.363 . S
C3706 C3707 1.370 . S
C3706 C3710 1.524 . S
C3707 C3699 1.503 . S
C3707 C3706 1.370 . S
C3707 C3708 1.403 . S
C3708 C3707 1.403 . S
C3708 C3709 1.404 . S
C3708 C3711 1.539 . S
C3709 C3705 1.408 . S
C3709 C3708 1.404 . S
C3709 H3721 0.930 . S
C3710 C3706 1.524 . S
C3710 H3722 0.956 . S
C3710 H3723 0.961 . S
C3710 H3724 0.961 . S
C3711 C3708 1.539 . S
C3711 H3725 0.958 . S
C3711 H3726 0.961 . S
C3711 H3727 0.960 . S
H3712 C3696 0.931 . S
H3713 C3701 0.929 . S
H3714 C3702 0.960 . S
H3715 C3702 0.962 . S
H3716 C3702 0.960 . S
H3717 C3703 0.961 . S
H3718 C3703 0.961 . S
H3719 C3703 0.961 . S
H3720 C3704 0.931 . S
H3721 C3709 0.930 . S
H3722 C3710 0.956 . S
H3723 C3710 0.961 . S
H3724 C3710 0.961 . S
H3725 C3711 0.958 . S
H3726 C3711 0.961 . S
H3727 C3711 0.960 . S
C3728 C3729 1.391 . S
C3728 C3730 1.394 . S
C3728 H3744 0.931 . S
C3729 C3728 1.391 . S
C3729 C3733 1.376 . S
C3730 C3728 1.394 . S
C3730 C3731 1.369 . S
C3730 C3734 1.531 . S
C3731 C3730 1.369 . S
C3731 C3732 1.410 . S
C3731 C3739 1.503 . S
C3732 C3731 1.410 . S
C3732 C3733 1.392 . S
C3732 C3735 1.511 . S
C3733 C3729 1.376 . S
C3733 C3732 1.392 . S
C3733 H3745 0.929 . S
C3734 C3730 1.531 . S
C3734 H3746 0.960 . S
C3734 H3747 0.962 . S
C3734 H3748 0.960 . S
C3735 C3732 1.511 . S
C3735 H3749 0.961 . S
C3735 H3750 0.961 . S
C3735 H3751 0.961 . S
C3736 C3737 1.370 . S
C3736 C3738 1.363 . S
C3736 H3752 0.931 . S
C3737 C3736 1.370 . S
C3737 C3741 1.408 . S
C3738 C3736 1.363 . S
C3738 C3739 1.370 . S
C3738 C3742 1.524 . S
C3739 C3731 1.503 . S
C3739 C3738 1.370 . S
C3739 C3740 1.403 . S
C3740 C3739 1.403 . S
C3740 C3741 1.404 . S
C3740 C3743 1.539 . S
C3741 C3737 1.408 . S
C3741 C3740 1.404 . S
C3741 H3753 0.930 . S
C3742 C3738 1.524 . S
C3742 H3754 0.956 . S
C3742 H3755 0.961 . S
C3742 H3756 0.961 . S
C3743 C3740 1.539 . S
C3743 H3757 0.958 . S
C3743 H3758 0.961 . S
C3743 H3759 0.960 . S
H3744 C3728 0.931 . S
H3745 C3733 0.929 . S
H3746 C3734 0.960 . S
H3747 C3734 0.962 . S
H3748 C3734 0.960 . S
H3749 C3735 0.961 . S
H3750 C3735 0.961 . S
H3751 C3735 0.961 . S
H3752 C3736 0.931 . S
H3753 C3741 0.930 . S
H3754 C3742 0.956 . S
H3755 C3742 0.961 . S
H3756 C3742 0.961 . S
H3757 C3743 0.958 . S
H3758 C3743 0.961 . S
H3759 C3743 0.960 . S
C3760 C3761 1.391 . S
C3760 C3762 1.394 . S
C3760 H3776 0.931 . S
C3761 C3760 1.391 . S
C3761 C3765 1.376 . S
C3762 C3760 1.394 . S
C3762 C3763 1.369 . S
C3762 C3766 1.531 . S
C3763 C3762 1.369 . S
C3763 C3764 1.410 . S
C3763 C3771 1.503 . S
C3764 C3763 1.410 . S
C3764 C3765 1.392 . S
C3764 C3767 1.511 . S
C3765 C3761 1.376 . S
C3765 C3764 1.392 . S
C3765 H3777 0.929 . S
C3766 C3762 1.531 . S
C3766 H3778 0.960 . S
C3766 H3779 0.962 . S
C3766 H3780 0.960 . S
C3767 C3764 1.511 . S
C3767 H3781 0.961 . S
C3767 H3782 0.961 . S
C3767 H3783 0.961 . S
C3768 C3769 1.370 . S
C3768 C3770 1.363 . S
C3768 H3784 0.931 . S
C3769 C3768 1.370 . S
C3769 C3773 1.408 . S
C3770 C3768 1.363 . S
C3770 C3771 1.370 . S
C3770 C3774 1.524 . S
C3771 C3763 1.503 . S
C3771 C3770 1.370 . S
C3771 C3772 1.403 . S
C3772 C3771 1.403 . S
C3772 C3773 1.404 . S
C3772 C3775 1.539 . S
C3773 C3769 1.408 . S
C3773 C3772 1.404 . S
C3773 H3785 0.930 . S
C3774 C3770 1.524 . S
C3774 H3786 0.956 . S
C3774 H3787 0.961 . S
C3774 H3788 0.961 . S
C3775 C3772 1.539 . S
C3775 H3789 0.958 . S
C3775 H3790 0.961 . S
C3775 H3791 0.960 . S
H3776 C3760 0.931 . S
H3777 C3765 0.929 . S
H3778 C3766 0.960 . S
H3779 C3766 0.962 . S
H3780 C3766 0.960 . S
H3781 C3767 0.961 . S
H3782 C3767 0.961 . S
H3783 C3767 0.961 . S
H3784 C3768 0.931 . S
H3785 C3773 0.930 . S
H3786 C3774 0.956 . S
H3787 C3774 0.961 . S
H3788 C3774 0.961 . S
H3789 C3775 0.958 . S
H3790 C3775 0.961 . S
H3791 C3775 0.960 . S
C3792 C3793 1.391 . S
C3792 C3794 1.394 . S
C3792 H3808 0.931 . S
C3793 C3792 1.391 . S
C3793 C3797 1.376 . S
C3794 C3792 1.394 . S
C3794 C3795 1.369 . S
C3794 C3798 1.531 . S
C3795 C3794 1.369 . S
C3795 C3796 1.410 . S
C3795 C3803 1.503 . S
C3796 C3795 1.410 . S
C3796 C3797 1.392 . S
C3796 C3799 1.511 . S
C3797 C3793 1.376 . S
C3797 C3796 1.392 . S
C3797 H3809 0.929 . S
C3798 C3794 1.531 . S
C3798 H3810 0.960 . S
C3798 H3811 0.962 . S
C3798 H3812 0.960 . S
C3799 C3796 1.511 . S
C3799 H3813 0.961 . S
C3799 H3814 0.961 . S
C3799 H3815 0.961 . S
C3800 C3801 1.370 . S
C3800 C3802 1.363 . S
C3800 H3816 0.931 . S
C3801 C3800 1.370 . S
C3801 C3805 1.408 . S
C3802 C3800 1.363 . S
C3802 C3803 1.370 . S
C3802 C3806 1.524 . S
C3803 C3795 1.503 . S
C3803 C3802 1.370 . S
C3803 C3804 1.403 . S
C3804 C3803 1.403 . S
C3804 C3805 1.404 . S
C3804 C3807 1.539 . S
C3805 C3801 1.408 . S
C3805 C3804 1.404 . S
C3805 H3817 0.930 . S
C3806 C3802 1.524 . S
C3806 H3818 0.956 . S
C3806 H3819 0.961 . S
C3806 H3820 0.961 . S
C3807 C3804 1.539 . S
C3807 H3821 0.958 . S
C3807 H3822 0.961 . S
C3807 H3823 0.960 . S
H3808 C3792 0.931 . S
H3809 C3797 0.929 . S
H3810 C3798 0.960 . S
H3811 C3798 0.962 . S
H3812 C3798 0.960 . S
H3813 C3799 0.961 . S
H3814 C3799 0.961 . S
H3815 C3799 0.961 . S
H3816 C3800 0.931 . S
H3817 C3805 0.930 . S
H3818 C3806 0.956 . S
H3819 C3806 0.961 . S
H3820 C3806 0.961 . S
H3821 C3807 0.958 . S
H3822 C3807 0.961 . S
H3823 C3807 0.960 . S
C3824 C3825 1.391 . S
C3824 C3826 1.394 . S
C3824 H3840 0.931 . S
C3825 C3824 1.391 . S
C3825 C3829 1.376 . S
C3826 C3824 1.394 . S
C3826 C3827 1.369 . S
C3826 C3830 1.531 . S
C3827 C3826 1.369 . S
C3827 C3828 1.410 . S
C3827 C3835 1.503 . S
C3828 C3827 1.410 . S
C3828 C3829 1.392 . S
C3828 C3831 1.511 . S
C3829 C3825 1.376 . S
C3829 C3828 1.392 . S
C3829 H3841 0.929 . S
C3830 C3826 1.531 . S
C3830 H3842 0.960 . S
C3830 H3843 0.962 . S
C3830 H3844 0.960 . S
C3831 C3828 1.511 . S
C3831 H3845 0.961 . S
C3831 H3846 0.961 . S
C3831 H3847 0.961 . S
C3832 C3833 1.367 1_545 S
C3832 C3834 1.363 1_545 S
C3832 H3848 0.931 . S
C3833 C3832 1.367 1_565 S
C3833 C3837 1.416 . S
C3834 C3832 1.363 1_565 S
C3834 C3835 1.370 . S
C3834 C3838 1.524 . S
C3835 C3827 1.503 . S
C3835 C3834 1.370 . S
C3835 C3836 1.403 . S
C3836 C3835 1.403 . S
C3836 C3837 1.404 . S
C3836 C3839 1.539 . S
C3837 C3833 1.416 . S
C3837 C3836 1.404 . S
C3837 H3849 0.930 . S
C3838 C3834 1.524 . S
C3838 H3850 0.956 . S
C3838 H3851 0.961 . S
C3838 H3852 0.961 1_565 S
C3839 C3836 1.539 . S
C3839 H3853 0.958 . S
C3839 H3854 0.961 . S
C3839 H3855 0.960 . S
H3840 C3824 0.931 . S
H3841 C3829 0.929 . S
H3842 C3830 0.960 . S
H3843 C3830 0.962 . S
H3844 C3830 0.960 . S
H3845 C3831 0.961 . S
H3846 C3831 0.961 . S
H3847 C3831 0.961 . S
H3848 C3832 0.931 . S
H3849 C3837 0.930 . S
H3850 C3838 0.956 . S
H3851 C3838 0.961 . S
H3852 C3838 0.961 1_545 S
H3853 C3839 0.958 . S
H3854 C3839 0.961 . S
H3855 C3839 0.960 . S
C3856 C3857 1.391 . S
C3856 C3858 1.394 . S
C3856 H3872 0.931 . S
C3857 C3856 1.391 . S
C3857 C3861 1.376 . S
C3858 C3856 1.394 . S
C3858 C3859 1.369 . S
C3858 C3862 1.531 . S
C3859 C3858 1.369 . S
C3859 C3860 1.410 . S
C3859 C3867 1.503 . S
C3860 C3859 1.410 . S
C3860 C3861 1.392 . S
C3860 C3863 1.511 . S
C3861 C3857 1.376 . S
C3861 C3860 1.392 . S
C3861 H3873 0.929 . S
C3862 C3858 1.531 . S
C3862 H3874 0.960 . S
C3862 H3875 0.962 . S
C3862 H3876 0.960 . S
C3863 C3860 1.511 . S
C3863 H3877 0.961 . S
C3863 H3878 0.961 . S
C3863 H3879 0.961 . S
C3864 C3865 1.370 . S
C3864 C3866 1.363 . S
C3864 H3880 0.931 . S
C3865 C3864 1.370 . S
C3865 C3869 1.408 . S
C3866 C3864 1.363 . S
C3866 C3867 1.370 . S
C3866 C3870 1.524 . S
C3867 C3859 1.503 . S
C3867 C3866 1.370 . S
C3867 C3868 1.403 . S
C3868 C3867 1.403 . S
C3868 C3869 1.404 . S
C3868 C3871 1.539 . S
C3869 C3865 1.408 . S
C3869 C3868 1.404 . S
C3869 H3881 0.930 . S
C3870 C3866 1.524 . S
C3870 H3882 0.956 . S
C3870 H3883 0.961 . S
C3870 H3884 0.961 . S
C3871 C3868 1.539 . S
C3871 H3885 0.958 . S
C3871 H3886 0.961 . S
C3871 H3887 0.960 . S
H3872 C3856 0.931 . S
H3873 C3861 0.929 . S
H3874 C3862 0.960 . S
H3875 C3862 0.962 . S
H3876 C3862 0.960 . S
H3877 C3863 0.961 . S
H3878 C3863 0.961 . S
H3879 C3863 0.961 . S
H3880 C3864 0.931 . S
H3881 C3869 0.930 . S
H3882 C3870 0.956 . S
H3883 C3870 0.961 . S
H3884 C3870 0.961 . S
H3885 C3871 0.958 . S
H3886 C3871 0.961 . S
H3887 C3871 0.960 . S
C3888 C3889 1.391 . S
C3888 C3890 1.394 . S
C3888 H3904 0.931 . S
C3889 C3888 1.391 . S
C3889 C3893 1.376 . S
C3890 C3888 1.394 . S
C3890 C3891 1.369 . S
C3890 C3894 1.531 . S
C3891 C3890 1.369 . S
C3891 C3892 1.410 . S
C3891 C3899 1.503 . S
C3892 C3891 1.410 . S
C3892 C3893 1.392 . S
C3892 C3895 1.511 . S
C3893 C3889 1.376 . S
C3893 C3892 1.392 . S
C3893 H3905 0.929 . S
C3894 C3890 1.531 . S
C3894 H3906 0.960 . S
C3894 H3907 0.962 . S
C3894 H3908 0.949 1_554 S
C3895 C3892 1.511 . S
C3895 H3909 0.961 . S
C3895 H3910 0.961 . S
C3895 H3911 0.961 . S
C3896 C3897 1.370 . S
C3896 C3898 1.363 . S
C3896 H3912 0.931 . S
C3897 C3896 1.370 . S
C3897 C3901 1.408 . S
C3898 C3896 1.363 . S
C3898 C3899 1.370 . S
C3898 C3902 1.524 . S
C3899 C3891 1.503 . S
C3899 C3898 1.370 . S
C3899 C3900 1.403 . S
C3900 C3899 1.403 . S
C3900 C3901 1.404 . S
C3900 C3903 1.539 . S
C3901 C3897 1.408 . S
C3901 C3900 1.404 . S
C3901 H3913 0.930 . S
C3902 C3898 1.524 . S
C3902 H3914 0.956 . S
C3902 H3915 0.961 . S
C3902 H3916 0.961 . S
C3903 C3900 1.539 . S
C3903 H3917 0.958 1_554 S
C3903 H3918 0.961 . S
C3903 H3919 0.960 . S
H3904 C3888 0.931 . S
H3905 C3893 0.929 . S
H3906 C3894 0.960 . S
H3907 C3894 0.962 . S
H3908 C3894 0.949 1_556 S
H3909 C3895 0.961 . S
H3910 C3895 0.961 . S
H3911 C3895 0.961 . S
H3912 C3896 0.931 . S
H3913 C3901 0.930 . S
H3914 C3902 0.956 . S
H3915 C3902 0.961 . S
H3916 C3902 0.961 . S
H3917 C3903 0.958 1_556 S
H3918 C3903 0.961 . S
H3919 C3903 0.960 . S
C3920 C3921 1.391 . S
C3920 C3922 1.394 . S
C3920 H3936 0.931 . S
C3921 C3920 1.391 . S
C3921 C3925 1.376 . S
C3922 C3920 1.394 . S
C3922 C3923 1.369 . S
C3922 C3926 1.531 . S
C3923 C3922 1.369 . S
C3923 C3924 1.410 . S
C3923 C3931 1.503 . S
C3924 C3923 1.410 . S
C3924 C3925 1.392 . S
C3924 C3927 1.511 . S
C3925 C3921 1.376 . S
C3925 C3924 1.392 . S
C3925 H3937 0.929 . S
C3926 C3922 1.531 . S
C3926 H3938 0.960 . S
C3926 H3939 0.962 . S
C3926 H3940 0.960 . S
C3927 C3924 1.511 . S
C3927 H3941 0.961 . S
C3927 H3942 0.961 . S
C3927 H3943 0.961 . S
C3928 C3929 1.370 . S
C3928 C3930 1.363 . S
C3928 H3944 0.931 . S
C3929 C3928 1.370 . S
C3929 C3933 1.408 . S
C3930 C3928 1.363 . S
C3930 C3931 1.370 . S
C3930 C3934 1.524 . S
C3931 C3923 1.503 . S
C3931 C3930 1.370 . S
C3931 C3932 1.403 . S
C3932 C3931 1.403 . S
C3932 C3933 1.404 . S
C3932 C3935 1.539 . S
C3933 C3929 1.408 . S
C3933 C3932 1.404 . S
C3933 H3945 0.930 . S
C3934 C3930 1.524 . S
C3934 H3946 0.956 . S
C3934 H3947 0.961 . S
C3934 H3948 0.961 . S
C3935 C3932 1.539 . S
C3935 H3949 0.958 . S
C3935 H3950 0.961 . S
C3935 H3951 0.960 . S
H3936 C3920 0.931 . S
H3937 C3925 0.929 . S
H3938 C3926 0.960 . S
H3939 C3926 0.962 . S
H3940 C3926 0.960 . S
H3941 C3927 0.961 . S
H3942 C3927 0.961 . S
H3943 C3927 0.961 . S
H3944 C3928 0.931 . S
H3945 C3933 0.930 . S
H3946 C3934 0.956 . S
H3947 C3934 0.961 . S
H3948 C3934 0.961 . S
H3949 C3935 0.958 . S
H3950 C3935 0.961 . S
H3951 C3935 0.960 . S
C3952 C3953 1.391 . S
C3952 C3954 1.394 . S
C3952 H3968 0.931 . S
C3953 C3952 1.391 . S
C3953 C3957 1.376 . S
C3954 C3952 1.394 . S
C3954 C3955 1.369 . S
C3954 C3958 1.531 . S
C3955 C3954 1.369 . S
C3955 C3956 1.410 . S
C3955 C3963 1.503 . S
C3956 C3955 1.410 . S
C3956 C3957 1.392 . S
C3956 C3959 1.511 . S
C3957 C3953 1.376 . S
C3957 C3956 1.392 . S
C3957 H3969 0.929 . S
C3958 C3954 1.531 . S
C3958 H3970 0.960 . S
C3958 H3971 0.962 . S
C3958 H3972 0.960 . S
C3959 C3956 1.511 . S
C3959 H3973 0.961 1_554 S
C3959 H3974 0.961 1_554 S
C3959 H3975 0.961 . S
C3960 C3961 1.370 1_556 S
C3960 C3962 1.363 . S
C3960 H3976 0.931 . S
C3961 C3960 1.370 1_554 S
C3961 C3965 1.408 . S
C3962 C3960 1.363 . S
C3962 C3963 1.370 1_556 S
C3962 C3966 1.524 . S
C3963 C3955 1.503 . S
C3963 C3962 1.370 1_554 S
C3963 C3964 1.403 . S
C3964 C3963 1.403 . S
C3964 C3965 1.404 . S
C3964 C3967 1.539 . S
C3965 C3961 1.408 . S
C3965 C3964 1.404 . S
C3965 H3977 0.930 . S
C3966 C3962 1.524 . S
C3966 H3978 0.956 . S
C3966 H3979 0.961 . S
C3966 H3980 0.961 . S
C3967 C3964 1.539 . S
C3967 H3981 0.958 . S
C3967 H3982 0.961 . S
C3967 H3983 0.960 . S
H3968 C3952 0.931 . S
H3969 C3957 0.929 . S
H3970 C3958 0.960 . S
H3971 C3958 0.962 . S
H3972 C3958 0.960 . S
H3973 C3959 0.961 1_556 S
H3974 C3959 0.961 1_556 S
H3975 C3959 0.961 . S
H3976 C3960 0.931 . S
H3977 C3965 0.930 . S
H3978 C3966 0.956 . S
H3979 C3966 0.961 . S
H3980 C3966 0.961 . S
H3981 C3967 0.958 . S
H3982 C3967 0.961 . S
H3983 C3967 0.960 . S
C3984 C3985 1.391 . S
C3984 C3986 1.394 . S
C3984 H4000 0.931 . S
C3985 C3984 1.391 . S
C3985 C3989 1.376 . S
C3986 C3984 1.394 . S
C3986 C3987 1.369 . S
C3986 C3990 1.531 . S
C3987 C3986 1.369 . S
C3987 C3988 1.410 . S
C3987 C3995 1.503 . S
C3988 C3987 1.410 . S
C3988 C3989 1.392 . S
C3988 C3991 1.511 . S
C3989 C3985 1.376 . S
C3989 C3988 1.392 . S
C3989 H4001 0.929 . S
C3990 C3986 1.531 . S
C3990 H4002 0.960 . S
C3990 H4003 0.962 . S
C3990 H4004 0.960 . S
C3991 C3988 1.511 . S
C3991 H4005 0.961 . S
C3991 H4006 0.961 . S
C3991 H4007 0.961 . S
C3992 C3993 1.370 . S
C3992 C3994 1.363 . S
C3992 H4008 0.931 . S
C3993 C3992 1.370 . S
C3993 C3997 1.408 . S
C3994 C3992 1.363 . S
C3994 C3995 1.370 . S
C3994 C3998 1.524 . S
C3995 C3987 1.503 . S
C3995 C3994 1.370 . S
C3995 C3996 1.403 . S
C3996 C3995 1.403 . S
C3996 C3997 1.404 . S
C3996 C3999 1.539 . S
C3997 C3993 1.408 . S
C3997 C3996 1.404 . S
C3997 H4009 0.930 . S
C3998 C3994 1.524 . S
C3998 H4010 0.956 . S
C3998 H4011 0.961 . S
C3998 H4012 0.961 . S
C3999 C3996 1.539 . S
C3999 H4013 0.958 . S
C3999 H4014 0.961 . S
C3999 H4015 0.960 . S
H4000 C3984 0.931 . S
H4001 C3989 0.929 . S
H4002 C3990 0.960 . S
H4003 C3990 0.962 . S
H4004 C3990 0.960 . S
H4005 C3991 0.961 . S
H4006 C3991 0.961 . S
H4007 C3991 0.961 . S
H4008 C3992 0.931 . S
H4009 C3997 0.930 . S
H4010 C3998 0.956 . S
H4011 C3998 0.961 . S
H4012 C3998 0.961 . S
H4013 C3999 0.958 . S
H4014 C3999 0.961 . S
H4015 C3999 0.960 . S
C4016 C4017 1.391 . S
C4016 C4018 1.394 . S
C4016 H4032 0.931 . S
C4017 C4016 1.391 . S
C4017 C4021 1.376 . S
C4018 C4016 1.394 . S
C4018 C4019 1.369 . S
C4018 C4022 1.531 . S
C4019 C4018 1.369 . S
C4019 C4020 1.410 . S
C4019 C4027 1.503 . S
C4020 C4019 1.410 . S
C4020 C4021 1.392 . S
C4020 C4023 1.511 . S
C4021 C4017 1.376 . S
C4021 C4020 1.392 . S
C4021 H4033 0.929 . S
C4022 C4018 1.531 . S
C4022 H4034 0.960 . S
C4022 H4035 0.962 . S
C4022 H4036 0.960 . S
C4023 C4020 1.511 . S
C4023 H4037 0.961 . S
C4023 H4038 0.961 . S
C4023 H4039 0.961 . S
C4024 C4025 1.370 . S
C4024 C4026 1.363 . S
C4024 H4040 0.931 . S
C4025 C4024 1.370 . S
C4025 C4029 1.408 . S
C4026 C4024 1.363 . S
C4026 C4027 1.370 . S
C4026 C4030 1.524 . S
C4027 C4019 1.503 . S
C4027 C4026 1.370 . S
C4027 C4028 1.403 . S
C4028 C4027 1.403 . S
C4028 C4029 1.404 . S
C4028 C4031 1.539 . S
C4029 C4025 1.408 . S
C4029 C4028 1.404 . S
C4029 H4041 0.930 . S
C4030 C4026 1.524 . S
C4030 H4042 0.956 . S
C4030 H4043 0.961 . S
C4030 H4044 0.961 . S
C4031 C4028 1.539 . S
C4031 H4045 0.958 . S
C4031 H4046 0.961 . S
C4031 H4047 0.960 . S
H4032 C4016 0.931 . S
H4033 C4021 0.929 . S
H4034 C4022 0.960 . S
H4035 C4022 0.962 . S
H4036 C4022 0.960 . S
H4037 C4023 0.961 . S
H4038 C4023 0.961 . S
H4039 C4023 0.961 . S
H4040 C4024 0.931 . S
H4041 C4029 0.930 . S
H4042 C4030 0.956 . S
H4043 C4030 0.961 . S
H4044 C4030 0.961 . S
H4045 C4031 0.958 . S
H4046 C4031 0.961 . S
H4047 C4031 0.960 . S
C977 C111 2.175 . S
C985 C349 2.145 . S
C1009 C64 2.031 . S
C1017 C400 2.095 . S
C1041 C77 1.495 . S
C1049 C429 1.500 . S
C1081 C473 1.269 . S
C1073 C95 1.301 . S
C1105 C25 1.187 . S
C1113 C513 1.143 . S
C1145 C549 1.603 . S
C1137 C36 1.544 . S
C1177 C599 1.871 . S
C1169 C50 1.806 . S
C1201 C11 2.215 . S
C1209 C629 2.211 . S
C1241 C359 1.854 . S
C1233 C237 1.834 . S
C1265 C245 0.485 . S
C1273 C402 0.607 . S
C1305 C439 1.135 . S
C1297 C279 1.102 . S
C1337 C469 1.327 . S
C1329 C175 1.320 . S
C1361 C231 1.332 . S
C1369 C509 1.344 . S
C1401 C559 0.795 . S
C1393 C251 0.844 . S
C1433 C593 0.852 . S
C1425 C273 0.807 . S
C1465 C639 1.861 . S
C1457 C181 1.844 . S
C1497 C353 1.073 . S
C1489 C165 1.099 1_554 S
C1521 C288 1.653 . S
C1529 C679 1.697 . S
C1561 C713 1.372 . S
C1553 C333 1.423 . S
C1593 C749 0.831 . S
C1585 C316 0.789 . S
C1617 C123 1.334 . S
C1625 C633 1.244 . S
C1649 C137 1.462 . S
C1657 C433 1.411 . S
C1681 C330 1.536 . S
C1689 C799 1.611 . S
C1721 C818 0.216 . S
C1713 C302 0.259 . S
C1753 C360 2.282 . S
C1745 C63 2.286 . S
C1785 C829 2.144 . S
C1777 C106 2.153 . S
C1809 C97 1.530 . S
C1817 C440 1.616 . S
C1841 C81 1.318 . S
C1849 C802 1.308 . S
C1881 C522 1.265 . S
C1873 C13 1.182 . S
C1905 C55 1.538 . S
C1913 C720 1.607 . S
C1945 C578 1.836 1_566 S
C1937 C35 1.814 . S
C1977 C880 2.393 . S
C1969 C21 2.404 . S
C2009 C338 1.975 . S
C2001 C147 2.010 . S
C2041 C833 0.553 . S
C2033 C321 0.607 . S
C2065 C119 1.194 . S
C2073 C418 1.187 . S
C2097 C293 1.370 . S
C2105 C800 1.472 . S
C2129 C153 1.411 . S
C2137 C520 1.520 . S
C2169 C698 0.848 . S
C2161 C315 0.856 . S
C2193 C125 0.775 . S
C2201 C602 0.793 . S
C2225 C287 1.998 . S
C2233 C858 1.963 . S
C2257 C193 1.065 . S
C2265 C362 1.108 . S
C2289 C176 1.693 . S
C2297 C658 1.721 . S
C2321 C263 1.390 . S
C2329 C562 1.341 . S
C2353 C246 0.976 . S
C2361 C760 0.973 . S
C2393 C882 1.301 . S
C2385 C277 1.354 . S
C2417 C221 1.413 . S
C2425 C442 1.398 . S
C2457 C458 1.659 . S
C2449 C260 1.638 . S
C2489 C399 0.335 . S
C2481 C204 0.490 . S
C2513 C83 2.161 . S
C2521 C909 2.156 . S
C2553 C840 2.100 . S
C2545 C92 2.057 . S
C2577 C105 1.495 . S
C2585 C949 1.501 . S
C2609 C67 1.299 . S
C2617 C793 1.254 . S
C2641 C53 1.197 . S
C2649 C673 1.167 . S
C2681 C709 1.599 . S
C2673 C8 1.550 . S
C2713 C759 1.876 . S
C2705 C22 1.808 . S
C2745 C869 2.205 . S
C2737 C39 2.225 . S
C2777 C919 1.853 . S
C2769 C265 1.830 . S
C2801 C189 0.509 . S
C2809 C842 0.586 . S
C2841 C959 1.121 . S
C2833 C209 1.041 . S
C2873 C789 1.325 . S
C2865 C217 1.325 . S
C2905 C669 1.337 . S
C2897 C259 1.351 . S
C2929 C195 0.703 . S
C2937 C719 0.773 . S
C2969 C753 0.823 . S
C2961 C203 0.864 . S
C2993 C223 1.852 . S
C3001 C879 1.863 . S
C3033 C913 1.076 . S
C3025 C319 1.111 . S
C3057 C134 1.619 . S
C3065 C519 1.692 . S
C3097 C553 1.366 . S
C3089 C151 1.423 1_565 S
C3129 C589 0.822 . S
C3121 C162 0.777 . S
C3161 C873 1.256 . S
C3153 C305 1.330 . S
C3185 C291 1.472 . S
C3193 C953 1.390 . S
C3225 C479 1.606 . S
C3217 C148 1.558 . S
C3257 C378 0.240 . S
C3249 C120 0.477 . S
C3281 C91 2.283 . S
C3289 C920 2.281 . S
C3321 C389 2.150 . S
C3313 C78 2.145 . S
C3345 C69 1.559 . S
C3353 C960 1.617 . S
C3377 C109 1.348 . S
C3385 C482 1.299 . S
C3409 C41 1.249 . S
C3417 C682 1.246 . S
C3449 C560 1.607 . S
C3441 C27 1.532 . S
C3473 C7 1.809 . S
C3481 C738 1.834 . S
C3505 C49 2.408 . S
C3513 C640 2.392 . S
C3545 C898 1.983 . S
C3537 C329 2.006 . S
C3569 C167 0.488 . S
C3577 C393 0.558 . S
C3609 C938 1.188 1_655 S
C3601 C301 1.186 . S
C3633 C139 1.372 . S
C3641 C480 1.472 . S
C3665 C335 1.416 . S
C3673 C680 1.511 . S
C3705 C538 0.843 . S
C3697 C161 0.841 . S
C3729 C307 0.802 . S
C3737 C762 0.781 . S
C3769 C618 1.958 . S
C3761 C133 2.000 . S
C3801 C922 1.076 . S
C3793 C249 1.148 . S
C3833 C498 1.714 1_565 S
C3825 C218 1.700 . S
C3857 C235 1.347 . S
C3865 C722 1.352 . S
C3897 C600 0.977 . S
C3889 C190 0.994 . S
C3921 C207 1.339 . S
C3929 C642 1.294 . S
C3953 C179 1.446 . S
C3961 C962 1.390 . S
C3993 C778 1.662 . S
C3985 C232 1.629 . S
C4025 C839 0.388 . S
C4017 C274 0.566 . S
