# Generated by pormake.
# Topology scu, (8,4)-cn, num edge types: 1
# Building blocks:
#     Node 0, Type 0, BuildingBlock: VETTIZ_charged_sbu_0, # of connection points: 8
#     Node 1, Type 1, BuildingBlock: MUDLON_clean_sbu_0, # of connection points: 4
#     Node 2, Type 1, BuildingBlock: MUDLON_clean_sbu_0, # of connection points: 4
#     Edge 3, Type (0, 1), BuildingBlock: UVAHIK_clean_linker_0, # of connection points: 2
#     Edge 4, Type (0, 1), BuildingBlock: UVAHIK_clean_linker_0, # of connection points: 2
#     Edge 5, Type (0, 1), BuildingBlock: UVAHIK_clean_linker_0, # of connection points: 2
#     Edge 6, Type (0, 1), BuildingBlock: UVAHIK_clean_linker_0, # of connection points: 2
#     Edge 7, Type (0, 1), BuildingBlock: UVAHIK_clean_linker_0, # of connection points: 2
#     Edge 8, Type (0, 1), BuildingBlock: UVAHIK_clean_linker_0, # of connection points: 2
#     Edge 9, Type (0, 1), BuildingBlock: UVAHIK_clean_linker_0, # of connection points: 2
#     Edge 10, Type (0, 1), BuildingBlock: UVAHIK_clean_linker_0, # of connection points: 2
# Relax obj value: 0.036
# Max RMSD: 0.093
# Mean RMSD: 0.083
data_MOF--net-scu--node1-VETTIZ_charged_sbu_0--node2-MUDLON_clean_sbu_0--edge1-UVAHIK_clean_linker_0
_symmetry_space_group_name_H-M    P1
_symmetry_Int_Tables_number       1
_symmetry_cell_setting            triclinic
loop_
_symmetry_equiv_pos_as_xyz
'x, y, z'
_cell_length_a     30.783024
_cell_length_b     31.694781
_cell_length_c     26.13235
_cell_angle_alpha  90.538709
_cell_angle_beta   89.66952
_cell_angle_gamma 89.350528
loop_
_atom_site_label
_atom_site_type_symbol
_atom_site_fract_x
_atom_site_fract_y
_atom_site_fract_z
_atom_type_partial_charge
Fe0 Fe 0.02428 0.01311 0.07934 0.0
O1 O 1.01977 0.05577 0.02387 0.0
Fe2 Fe 0.07315 0.92739 0.01779 0.0
Fe3 Fe 0.97471 0.10011 0.02485 0.0
O4 O 0.02877 0.97209 0.02108 0.0
O5 O 0.02845 0.97207 0.01586 0.0
O6 O 1.01971 0.05582 0.01842 0.0
Fe7 Fe 0.02288 0.01452 0.95997 0.0
C8 C 0.93016 0.03348 0.0909 0.0
O9 O 1.02076 0.06307 0.13341 0.0
O10 O 1.01235 0.1223 0.08376 0.0
O11 O 0.0894 0.02154 0.95492 0.0
O12 O 0.11192 0.95468 0.96339 0.0
O13 O 0.11214 0.95379 0.07417 0.0
O14 O 0.0902 0.02076 0.08116 0.0
O15 O 1.00942 0.12399 0.96422 0.0
O16 O 1.01681 0.06623 0.9098 0.0
C17 C 0.11843 0.99191 0.08812 0.0
O18 O 0.02686 0.96404 0.90672 0.0
O19 O 0.03727 0.90501 0.95693 0.0
O20 O 0.95831 1.00511 0.08047 0.0
O21 O 0.93691 0.07218 0.08107 0.0
C22 C 0.02323 0.10366 0.12592 0.0
C23 C 1.01675 0.1068 0.91953 0.0
C24 C 0.92842 0.03707 0.95363 0.0
O25 O 0.93521 0.0744 0.96981 0.0
O26 O 0.95615 1.00735 0.95957 0.0
C27 C 0.11754 0.99218 0.94788 0.0
O28 O 0.03583 0.90385 0.07634 0.0
O29 O 0.02786 0.96183 0.13004 0.0
C30 C 0.02787 0.92327 0.91392 0.0
C31 C 0.02514 0.92163 0.11963 0.0
Mg32 Mg 1.02188 0.50787 0.50656 0.0
C33 C 0.0771 0.43138 0.48512 0.0
O34 O 0.06854 0.42622 0.53396 0.0
C35 C 0.06013 0.59009 0.54237 0.0
O36 O 0.05875 0.59727 0.49298 0.0
C37 C 0.98713 0.46398 0.59881 0.0
O38 O 1.00842 0.49478 0.62095 0.0
O39 O 0.98312 0.46412 0.55045 0.0
O40 O 0.06564 0.46582 0.46415 0.0
O41 O 0.98509 0.54689 0.45412 0.0
C42 C 1.00026 0.55188 0.40928 0.0
O43 O 0.03362 0.52857 0.39433 0.0
O44 O 0.05091 0.55347 0.55846 0.0
Mg45 Mg 0.52091 1.00121 0.50429 0.0
C46 C 0.49103 0.05004 0.40935 0.0
O47 O 0.53061 0.04167 0.39289 0.0
C48 C 0.5871 0.99683 0.58057 0.0
O49 O 0.57891 0.95829 0.56463 0.0
C50 C 0.43361 0.97332 0.54295 0.0
O51 O 0.42201 0.99118 0.49991 0.0
O52 O 0.47393 0.96799 0.55182 0.0
O53 O 0.48157 0.04282 0.4559 0.0
O54 O 0.56595 0.9655 0.45503 0.0
C55 C 0.56013 0.95187 0.40967 0.0
O56 O 0.52073 0.95209 0.39059 0.0
O57 O 0.56546 0.0272 0.56109 0.0
C58 C 0.04609 0.11656 0.21762 0.0
C59 C 0.03971 0.13134 0.16758 0.0
C60 C 0.06062 0.14396 0.25629 0.0
C61 C 0.11346 0.24796 0.2761 0.0
H62 H 0.04802 0.25218 0.40318 0.0
C63 C 0.09409 0.39814 0.3997 0.0
C64 C 0.09024 0.39448 0.45308 0.0
C65 C 0.09838 0.36212 0.36867 0.0
C66 C 0.0673 0.25097 0.36839 0.0
H67 H 0.0451 0.18642 0.11897 0.0
H68 H 0.0697 0.23343 0.18569 0.0
H69 H 0.03584 0.19487 0.34223 0.0
H70 H 0.09092 0.35013 0.51591 0.0
H71 H 0.0986 0.28743 0.4617 0.0
H72 H 0.14367 0.30497 0.30134 0.0
C73 C 0.0639 0.20078 0.19527 0.0
C74 C 0.0603 0.21804 0.33345 0.0
C75 C 0.04922 0.17373 0.157 0.0
C76 C 0.09357 0.35415 0.4749 0.0
C77 C 0.09766 0.31813 0.44384 0.0
C78 C 0.12039 0.28089 0.31095 0.0
C79 C 0.06956 0.18645 0.24545 0.0
C80 C 0.08231 0.21691 0.2862 0.0
C81 C 0.09883 0.32162 0.39029 0.0
C82 C 0.09649 0.28345 0.35685 0.0
H83 H 0.03932 0.08409 0.22709 0.0
H84 H 0.06483 0.13194 0.29462 0.0
H85 H 0.13159 0.24752 0.24045 0.0
H86 H 0.09167 0.42869 0.38162 0.0
H87 H 0.09888 0.36597 0.32753 0.0
C88 C 0.86092 0.05243 0.1377 0.0
C89 C 0.88999 0.0214 0.11879 0.0
C90 C 0.82465 0.04117 0.16685 0.0
C91 C 0.75217 0.95284 0.1985 0.0
H92 H 0.73026 0.01762 0.32276 0.0
C93 C 0.59388 0.94389 0.32203 0.0
C94 C 0.59865 0.94682 0.37548 0.0
C95 C 0.63001 0.94773 0.28952 0.0
C96 C 0.73609 0.99898 0.2884 0.0
H97 H 0.90276 0.9539 0.11468 0.0
H98 H 0.83935 0.93441 0.1653 0.0
H99 H 0.79102 0.03597 0.26746 0.0
H100 H 0.64577 0.95289 0.43654 0.0
H101 H 0.70838 0.9594 0.38 0.0
H102 H 0.69693 0.9159 0.2197 0.0
C103 C 0.84466 0.96745 0.15744 0.0
C104 C 0.77063 0.00983 0.25638 0.0
C105 C 0.88114 0.97871 0.1286 0.0
C106 C 0.64072 0.95085 0.39561 0.0
C107 C 0.67666 0.95489 0.36319 0.0
C108 C 0.71722 0.94222 0.23037 0.0
C109 C 0.81632 0.99859 0.17752 0.0
C110 C 0.77913 0.98694 0.21104 0.0
C111 C 0.67157 0.95475 0.30979 0.0
C112 C 0.70892 0.96509 0.27582 0.0
H113 H 0.86656 0.08557 0.13083 0.0
H114 H 0.80313 0.06588 0.18122 0.0
H115 H 0.75776 0.93472 0.16369 0.0
H116 H 0.56199 0.94087 0.30517 0.0
H117 H 0.62501 0.9475 0.24852 0.0
C118 C 0.97263 0.86744 0.14564 0.0
C119 C 1.0076 0.89331 0.15858 0.0
C120 C 0.96064 0.83437 0.17735 0.0
C121 C 0.98049 0.78383 0.30369 0.0
H122 H 0.96142 0.68131 0.2251 0.0
C123 C 0.96156 0.62161 0.40075 0.0
C124 C 0.98714 0.58902 0.37884 0.0
C125 C 0.95536 0.65968 0.37492 0.0
C126 C 0.96664 0.70963 0.24767 0.0
H127 H 0.05621 0.90682 0.21561 0.0
H128 H 0.03631 0.84791 0.27083 0.0
H129 H 0.96708 0.74816 0.18127 0.0
H130 H 0.02433 0.57007 0.31158 0.0
H131 H 1.01361 0.63613 0.26673 0.0
H132 H 0.98239 0.74448 0.36989 0.0
C133 C 1.01736 0.85364 0.23677 0.0
C134 C 0.96933 0.74818 0.2226 0.0
C135 C 0.02888 0.88733 0.20525 0.0
C136 C 1.00444 0.59449 0.32954 0.0
C137 C 0.99812 0.63239 0.30371 0.0
C138 C 0.97791 0.7451 0.32883 0.0
C139 C 0.9841 0.82583 0.22216 0.0
C140 C 0.97697 0.78573 0.25013 0.0
C141 C 0.97435 0.6658 0.32653 0.0
C142 C 0.97183 0.70744 0.30092 0.0
H143 H 0.9556 0.87183 0.10985 0.0
H144 H 0.93412 0.8144 0.1656 0.0
H145 H 0.98597 0.81215 0.32613 0.0
H146 H 0.94783 0.61844 0.43876 0.0
H147 H 0.93641 0.68461 0.39323 0.0
C148 C 0.15759 0.03502 0.15381 0.0
C149 C 0.15833 1.00248 0.11689 0.0
C150 C 0.19442 0.04366 0.18312 0.0
C151 C 0.30221 0.99641 0.21969 0.0
H152 H 0.32161 0.10861 0.27491 0.0
C153 C 0.46127 0.04283 0.32074 0.0
C154 C 0.4553 0.05584 0.37197 0.0
C155 C 0.4259 0.04032 0.2875 0.0
C156 C 0.31649 0.07715 0.2597 0.0
H157 H 0.19875 0.95456 0.08037 0.0
H158 H 0.2637 0.97101 0.1291 0.0
H159 H 0.25938 0.09616 0.21946 0.0
H160 H 0.40777 0.0787 0.42747 0.0
H161 H 0.34615 0.07587 0.36846 0.0
H162 H 0.36048 0.97812 0.25867 0.0
C163 C 0.23427 0.98883 0.13738 0.0
C164 C 0.28059 0.06978 0.22818 0.0
C165 C 0.19707 0.97952 0.10895 0.0
C166 C 0.4135 0.06872 0.38823 0.0
C167 C 0.37824 0.06707 0.35453 0.0
C168 C 0.33856 1.00408 0.25015 0.0
C169 C 0.23344 0.02066 0.17554 0.0
C170 C 0.27262 0.02915 0.20791 0.0
C171 C 0.38393 0.05164 0.30432 0.0
C172 C 0.34593 0.04441 0.27071 0.0
H173 H 0.12805 0.05305 0.16121 0.0
H174 H 0.19174 0.0678 0.21257 0.0
H175 H 0.29704 0.96447 0.2063 0.0
H176 H 0.49287 0.03232 0.30697 0.0
H177 H 0.43115 0.02852 0.24888 0.0
C178 C 0.03183 0.90696 0.81948 0.0
C179 C 1.02156 0.89454 0.86958 0.0
C180 C 0.03302 0.87715 0.77943 0.0
C181 C 1.0003 0.76748 0.74528 0.0
H182 H 0.10192 0.76848 0.65688 0.0
C183 C 0.05374 0.62035 0.63109 0.0
C184 C 0.06308 0.62602 0.5789 0.0
C185 C 0.04921 0.65513 0.66403 0.0
C186 C 0.07319 0.76801 0.68099 0.0
H187 H 1.00174 0.84175 0.91622 0.0
H188 H 1.004 0.79029 0.84719 0.0
H189 H 0.08853 0.82711 0.71662 0.0
H190 H 0.07751 0.67265 0.52112 0.0
H191 H 0.07009 0.73333 0.57895 0.0
H192 H 0.98557 0.70793 0.71068 0.0
C193 C 1.01106 0.82282 0.83835 0.0
C194 C 0.06534 0.80171 0.71499 0.0
C195 C 1.01006 0.85238 0.87815 0.0
C196 C 0.07023 0.66714 0.56109 0.0
C197 C 0.06602 0.70195 0.59419 0.0
C198 C 1.00832 0.73376 0.71166 0.0
C199 C 0.02354 0.83451 0.78871 0.0
C200 C 0.02918 0.80148 0.74821 0.0
C201 C 0.05423 0.69636 0.64568 0.0
C202 C 0.04522 0.73327 0.67976 0.0
H203 H 0.04101 0.93916 0.81166 0.0
H204 H 0.04222 0.8873 0.74147 0.0
H205 H 0.97167 0.76663 0.76951 0.0
H206 H 0.04812 0.58915 0.64618 0.0
H207 H 0.04093 0.6498 0.70377 0.0
C208 C 0.15152 0.02379 0.87013 0.0
C209 C 0.15556 0.99934 0.91438 0.0
C210 C 0.18417 0.02264 0.83252 0.0
C211 C 0.27554 0.95299 0.78783 0.0
H212 H 0.29776 0.04563 0.69594 0.0
C213 C 0.41304 0.95356 0.63301 0.0
C214 C 0.40106 0.96891 0.58468 0.0
C215 C 0.38382 0.95586 0.67433 0.0
C216 C 0.29169 0.0194 0.7212 0.0
H217 H 0.19812 0.95718 0.95601 0.0
H218 H 0.256 0.95696 0.89207 0.0
H219 H 0.24818 0.05615 0.76813 0.0
H220 H 0.34813 0.99688 0.54156 0.0
H221 H 0.29767 1.0011 0.61355 0.0
H222 H 0.31994 0.91665 0.74108 0.0
C223 C 0.227 0.97559 0.88497 0.0
C224 C 0.26314 0.02537 0.76256 0.0
C225 C 0.19408 0.97614 0.92202 0.0
C226 C 0.35862 0.98486 0.57818 0.0
C227 C 0.32973 0.98764 0.61953 0.0
C228 C 0.30458 0.94726 0.74687 0.0
C229 C 0.22186 0.99752 0.83877 0.0
C230 C 0.25428 0.99213 0.79627 0.0
C231 C 0.34229 0.97402 0.66827 0.0
C232 C 0.31256 0.98025 0.71279 0.0
H233 H 0.1219 0.0415 0.86293 0.0
H234 H 0.17865 0.03971 0.79743 0.0
H235 H 0.269 0.92626 0.81206 0.0
H236 H 0.44546 0.94113 0.63938 0.0
H237 H 0.39434 0.94505 0.71151 0.0
C238 C 0.03333 0.17834 0.88715 0.0
C239 C 1.02032 0.13679 0.87671 0.0
C240 C 0.02711 0.20998 0.85128 0.0
C241 C 1.00845 0.23722 0.71879 0.0
H242 H 0.94493 0.33206 0.77892 0.0
C243 C 0.96783 0.38728 0.60271 0.0
C244 C 0.97747 0.42538 0.62806 0.0
C245 C 0.96657 0.34935 0.62971 0.0
C246 C 0.96283 0.30598 0.76151 0.0
H247 H 0.99396 0.09514 0.81866 0.0
H248 H 0.98374 0.151 0.75501 0.0
H249 H 0.96013 0.26994 0.83019 0.0
H250 H 0.99097 0.45382 0.70198 0.0
H251 H 0.98901 0.38813 0.74876 0.0
H252 H 1.01278 0.2741 0.65065 0.0
C253 C 0.99834 0.15877 0.79147 0.0
C254 C 0.97144 0.27039 0.79085 0.0
C255 C 1.00442 0.12685 0.82773 0.0
C256 C 0.98342 0.42508 0.68127 0.0
C257 C 0.9821 0.3873 0.70818 0.0
C258 C 1.00018 0.27318 0.6894 0.0
C259 C 1.00797 0.20087 0.80396 0.0
C260 C 0.99526 0.23615 0.77024 0.0
C261 C 0.97467 0.34881 0.6826 0.0
C262 C 0.97822 0.30842 0.71092 0.0
H263 H 0.0463 0.18694 0.92423 0.0
H264 H 0.03572 0.24205 0.86136 0.0
H265 H 0.02682 0.21115 0.70208 0.0
H266 H 0.96319 0.38639 0.56166 0.0
H267 H 0.96017 0.32035 0.60898 0.0
C268 C 0.85817 0.06294 0.91679 0.0
C269 C 0.88892 0.03005 0.92224 0.0
C270 C 0.82366 0.05918 0.88269 0.0
C271 C 0.75879 0.98318 0.80873 0.0
H272 H 0.73689 0.07869 0.72032 0.0
C273 C 0.64821 0.96906 0.63315 0.0
C274 C 0.62093 1.00316 0.62012 0.0
C275 C 0.67947 0.97323 0.67123 0.0
C276 C 0.74203 0.05197 0.74517 0.0
H277 H 0.90615 0.96659 0.89717 0.0
H278 H 0.84538 0.95988 0.8377 0.0
H279 H 0.79333 0.08294 0.78521 0.0
H280 H 0.60551 0.06871 0.63685 0.0
H281 H 0.65996 0.07596 0.70446 0.0
H282 H 0.70738 0.95225 0.76913 0.0
C283 C 0.84825 0.98866 0.86003 0.0
C284 C 0.77452 0.05435 0.78233 0.0
C285 C 0.88308 0.99249 0.89413 0.0
C286 C 0.62608 0.04188 0.6459 0.0
C287 C 0.65739 0.04601 0.68451 0.0
C288 C 0.7261 0.98089 0.77183 0.0
C289 C 0.81867 0.02235 0.85317 0.0
C290 C 0.7835 0.01988 0.81434 0.0
C291 C 0.68429 0.01154 0.69792 0.0
C292 C 0.71754 0.01508 0.73914 0.0
H293 H 0.86124 0.09226 0.93803 0.0
H294 H 0.80102 0.08538 0.8791 0.0
H295 H 0.76442 0.95633 0.83326 0.0
H296 H 0.6456 0.93884 0.61378 0.0
H297 H 0.70018 0.9463 0.67936 0.0
loop_
_geom_bond_atom_site_label_1
_geom_bond_atom_site_label_2
_geom_bond_distance
_geom_bond_site_symmetry_2
_ccdc_geom_bond_type
Fe0 O1 1.906 . S
Fe0 O4 1.695 1_645 S
Fe0 O9 2.098 1_655 S
Fe0 O14 1.924 1_655 S
Fe0 O20 2.092 1_545 S
Fe0 O29 1.916 1_545 S
O1 Fe0 1.906 . S
O1 Fe3 1.715 . S
Fe2 O4 1.886 . S
Fe2 O5 1.715 1_554 S
Fe2 O12 1.935 1_554 S
Fe2 O13 2.077 . S
Fe2 O19 1.935 1_554 S
Fe2 O28 2.077 . S
Fe3 O1 1.715 . S
Fe3 O6 1.886 1_554 S
Fe3 O10 1.935 . S
Fe3 O15 2.077 1_554 S
Fe3 O21 1.935 . S
Fe3 O25 2.077 1_554 S
O4 Fe0 1.695 1_465 S
O4 Fe2 1.886 . S
O5 Fe2 1.715 1_556 S
O5 Fe7 1.906 . S
O6 Fe3 1.886 1_556 S
O6 Fe7 1.695 1_645 S
Fe7 O5 1.906 . S
Fe7 O6 1.695 1_465 S
Fe7 O11 2.098 1_565 S
Fe7 O16 1.924 1_565 S
Fe7 O18 2.092 1_455 S
Fe7 O26 1.916 1_455 S
C8 O20 1.381 1_545 S
C8 O21 1.421 . S
O9 Fe0 2.098 1_455 S
O9 C22 1.381 1_455 S
O10 Fe3 1.935 . S
O10 C22 1.421 . S
O11 Fe7 2.098 1_545 S
O11 C27 1.381 1_545 S
O12 Fe2 1.935 1_556 S
O12 C27 1.421 . S
O13 Fe2 2.077 . S
O13 C17 1.381 . S
O14 Fe0 1.924 1_455 S
O14 C17 1.421 1_545 S
O15 Fe3 2.077 1_556 S
O15 C23 1.381 . S
O16 Fe7 1.924 1_545 S
O16 C23 1.421 1_455 S
C17 O13 1.381 . S
C17 O14 1.421 1_565 S
O18 Fe7 2.092 1_655 S
O18 C30 1.381 1_655 S
O19 Fe2 1.935 1_556 S
O19 C30 1.421 . S
O20 Fe0 2.092 1_565 S
O20 C8 1.381 1_565 S
O21 Fe3 1.935 . S
O21 C8 1.421 . S
C22 O9 1.381 1_655 S
C22 O10 1.421 . S
C23 O15 1.381 . S
C23 O16 1.421 1_655 S
C24 O25 1.381 . S
C24 O26 1.421 1_545 S
O25 Fe3 2.077 1_556 S
O25 C24 1.381 . S
O26 Fe7 1.916 1_655 S
O26 C24 1.421 1_565 S
C27 O11 1.381 1_565 S
C27 O12 1.421 . S
O28 Fe2 2.077 . S
O28 C31 1.381 . S
O29 Fe0 1.916 1_565 S
O29 C31 1.421 1_655 S
C30 O18 1.381 1_455 S
C30 O19 1.421 . S
C31 O28 1.381 . S
C31 O29 1.421 1_455 S
Mg32 O39 2.141 . S
Mg32 O40 2.048 . S
Mg32 O41 2.048 . S
Mg32 O44 2.141 . S
C33 O34 1.313 . S
C33 O40 1.195 1_455 S
O34 C33 1.313 . S
C35 O36 1.245 . S
C35 O44 1.289 1_455 S
O36 C35 1.245 . S
C37 O38 1.245 . S
C37 O39 1.289 1_455 S
O38 C37 1.245 . S
O39 Mg32 2.141 . S
O39 C37 1.289 1_655 S
O40 Mg32 2.048 . S
O40 C33 1.195 1_655 S
O41 Mg32 2.048 . S
O41 C42 1.195 1_655 S
C42 O41 1.195 1_455 S
C42 O43 1.313 . S
O43 C42 1.313 . S
O44 Mg32 2.141 . S
O44 C35 1.289 1_655 S
Mg45 O52 2.141 . S
Mg45 O53 2.048 . S
Mg45 O54 2.048 . S
Mg45 O57 2.141 . S
C46 O47 1.313 . S
C46 O53 1.195 1_565 S
O47 C46 1.313 . S
C48 O49 1.245 . S
C48 O57 1.289 1_565 S
O49 C48 1.245 . S
C50 O51 1.245 . S
C50 O52 1.289 1_565 S
O51 C50 1.245 . S
O52 Mg45 2.141 . S
O52 C50 1.289 1_545 S
O53 Mg45 2.048 . S
O53 C46 1.195 1_545 S
O54 Mg45 2.048 . S
O54 C55 1.195 1_545 S
C55 O54 1.195 1_565 S
C55 O56 1.313 . S
O56 C55 1.313 . S
O57 Mg45 2.141 . S
O57 C48 1.289 1_545 S
C58 C59 1.350 . S
C58 C60 1.327 . S
C58 H83 0.950 . S
C59 C58 1.350 . S
C59 C75 1.347 1_455 S
C60 C58 1.327 . S
C60 C79 1.430 . S
C60 H84 0.950 . S
C61 C78 1.574 . S
C61 C80 1.367 1_655 S
C61 H85 0.949 . S
H62 C66 0.949 . S
C63 C64 1.349 1_655 S
C63 C65 1.327 . S
C63 H86 0.950 . S
C64 C63 1.349 1_455 S
C64 C76 1.349 . S
C65 C63 1.327 . S
C65 C81 1.428 1_655 S
C65 H87 0.950 . S
C66 H62 0.949 . S
C66 C74 1.574 . S
C66 C82 1.369 . S
H67 C75 0.950 . S
H68 C73 0.950 . S
H69 C74 0.949 . S
H70 C76 0.950 . S
H71 C77 0.950 . S
H72 C78 0.949 . S
C73 H68 0.950 . S
C73 C75 1.327 . S
C73 C79 1.427 1_655 S
C74 C66 1.574 . S
C74 H69 0.949 . S
C74 C80 1.369 . S
C75 C59 1.347 1_655 S
C75 H67 0.950 . S
C75 C73 1.327 . S
C76 C64 1.349 . S
C76 H70 0.950 . S
C76 C77 1.327 . S
C77 H71 0.950 . S
C77 C76 1.327 . S
C77 C81 1.429 . S
C78 C61 1.574 . S
C78 H72 0.949 . S
C78 C82 1.368 1_655 S
C79 C60 1.430 . S
C79 C73 1.427 1_455 S
C79 C80 1.523 . S
C80 C61 1.367 1_455 S
C80 C74 1.369 . S
C80 C79 1.523 . S
C81 C65 1.428 1_455 S
C81 C77 1.429 . S
C81 C82 1.523 . S
C82 C66 1.369 . S
C82 C78 1.368 1_455 S
C82 C81 1.523 . S
H83 C58 0.950 . S
H84 C60 0.950 . S
H85 C61 0.949 . S
H86 C63 0.950 . S
H87 C65 0.950 . S
C88 C89 1.350 1_545 S
C88 C90 1.327 . S
C88 H113 0.950 . S
C89 C88 1.350 1_565 S
C89 C105 1.348 . S
C90 C88 1.327 . S
C90 C109 1.431 1_545 S
C90 H114 0.950 . S
C91 C108 1.574 . S
C91 C110 1.371 1_565 S
C91 H115 0.949 . S
H92 C96 0.949 . S
C93 C94 1.349 1_565 S
C93 C95 1.327 . S
C93 H116 0.950 . S
C94 C93 1.349 1_545 S
C94 C106 1.349 . S
C95 C93 1.327 . S
C95 C111 1.429 1_565 S
C95 H117 0.950 . S
C96 H92 0.949 . S
C96 C104 1.574 . S
C96 C112 1.367 . S
H97 C105 0.950 . S
H98 C103 0.950 . S
H99 C104 0.949 . S
H100 C106 0.950 . S
H101 C107 0.950 . S
H102 C108 0.949 . S
C103 H98 0.950 . S
C103 C105 1.327 . S
C103 C109 1.426 . S
C104 C96 1.574 . S
C104 H99 0.949 . S
C104 C110 1.366 . S
C105 C89 1.348 . S
C105 H97 0.950 . S
C105 C103 1.327 . S
C106 C94 1.349 . S
C106 H100 0.950 . S
C106 C107 1.327 . S
C107 H101 0.950 . S
C107 C106 1.327 . S
C107 C111 1.428 . S
C108 C91 1.574 . S
C108 H102 0.949 . S
C108 C112 1.370 1_565 S
C109 C90 1.431 1_565 S
C109 C103 1.426 . S
C109 C110 1.523 1_565 S
C110 C91 1.371 1_545 S
C110 C104 1.366 . S
C110 C109 1.523 1_545 S
C111 C95 1.429 1_545 S
C111 C107 1.428 . S
C111 C112 1.523 . S
C112 C96 1.367 . S
C112 C108 1.370 1_545 S
C112 C111 1.523 . S
H113 C88 0.950 . S
H114 C90 0.950 . S
H115 C91 0.949 . S
H116 C93 0.950 . S
H117 C95 0.950 . S
C118 C119 1.350 1_455 S
C118 C120 1.327 . S
C118 H143 0.950 . S
C119 C118 1.350 1_655 S
C119 C135 1.348 . S
C120 C118 1.327 . S
C120 C139 1.430 1_455 S
C120 H144 0.950 . S
C121 C138 1.574 . S
C121 C140 1.370 1_655 S
C121 H145 0.949 . S
H122 C126 0.949 . S
C123 C124 1.349 1_655 S
C123 C125 1.327 . S
C123 H146 0.950 . S
C124 C123 1.349 1_455 S
C124 C136 1.349 . S
C125 C123 1.327 . S
C125 C141 1.429 1_655 S
C125 H147 0.950 . S
C126 H122 0.949 . S
C126 C134 1.574 . S
C126 C142 1.367 . S
H127 C135 0.950 . S
H128 C133 0.950 . S
H129 C134 0.949 . S
H130 C136 0.950 . S
H131 C137 0.950 . S
H132 C138 0.949 . S
C133 H128 0.950 . S
C133 C135 1.327 . S
C133 C139 1.427 . S
C134 C126 1.574 . S
C134 H129 0.949 . S
C134 C140 1.367 . S
C135 C119 1.348 . S
C135 H127 0.950 . S
C135 C133 1.327 . S
C136 C124 1.349 . S
C136 H130 0.950 . S
C136 C137 1.327 . S
C137 H131 0.950 . S
C137 C136 1.327 . S
C137 C141 1.428 . S
C138 C121 1.574 . S
C138 H132 0.949 . S
C138 C142 1.369 1_655 S
C139 C120 1.430 1_655 S
C139 C133 1.427 . S
C139 C140 1.523 1_655 S
C140 C121 1.370 1_455 S
C140 C134 1.367 . S
C140 C139 1.523 1_455 S
C141 C125 1.429 1_455 S
C141 C137 1.428 . S
C141 C142 1.523 . S
C142 C126 1.367 . S
C142 C138 1.369 1_455 S
C142 C141 1.523 . S
H143 C118 0.950 . S
H144 C120 0.950 . S
H145 C121 0.949 . S
H146 C123 0.950 . S
H147 C125 0.950 . S
C148 C149 1.352 . S
C148 C150 1.327 . S
C148 H173 0.950 . S
C149 C148 1.352 . S
C149 C165 1.346 1_545 S
C150 C148 1.327 . S
C150 C169 1.431 . S
C150 H174 0.950 . S
C151 C168 1.574 . S
C151 C170 1.366 1_565 S
C151 H175 0.949 . S
H152 C156 0.949 . S
C153 C154 1.349 1_565 S
C153 C155 1.327 . S
C153 H176 0.950 . S
C154 C153 1.349 1_545 S
C154 C166 1.349 . S
C155 C153 1.327 . S
C155 C171 1.428 1_565 S
C155 H177 0.950 . S
C156 H152 0.949 . S
C156 C164 1.574 . S
C156 C172 1.370 . S
H157 C165 0.950 . S
H158 C163 0.950 . S
H159 C164 0.949 . S
H160 C166 0.950 . S
H161 C167 0.950 . S
H162 C168 0.949 . S
C163 H158 0.950 . S
C163 C165 1.327 . S
C163 C169 1.426 1_565 S
C164 C156 1.574 . S
C164 H159 0.949 . S
C164 C170 1.370 . S
C165 C149 1.346 1_565 S
C165 H157 0.950 . S
C165 C163 1.327 . S
C166 C154 1.349 . S
C166 H160 0.950 . S
C166 C167 1.327 . S
C167 H161 0.950 . S
C167 C166 1.327 . S
C167 C171 1.429 . S
C168 C151 1.574 . S
C168 H162 0.949 . S
C168 C172 1.367 1_565 S
C169 C150 1.431 . S
C169 C163 1.426 1_545 S
C169 C170 1.523 . S
C170 C151 1.366 1_545 S
C170 C164 1.370 . S
C170 C169 1.523 . S
C171 C155 1.428 1_545 S
C171 C167 1.429 . S
C171 C172 1.523 . S
C172 C156 1.370 . S
C172 C168 1.367 1_545 S
C172 C171 1.523 . S
H173 C148 0.950 . S
H174 C150 0.950 . S
H175 C151 0.949 . S
H176 C153 0.950 . S
H177 C155 0.950 . S
C178 C179 1.350 1_455 S
C178 C180 1.327 . S
C178 H203 0.950 . S
C179 C178 1.350 1_655 S
C179 C195 1.348 . S
C180 C178 1.327 . S
C180 C199 1.430 1_455 S
C180 H204 0.950 . S
C181 C198 1.574 . S
C181 C200 1.370 1_655 S
C181 H205 0.949 . S
H182 C186 0.949 . S
C183 C184 1.349 1_655 S
C183 C185 1.327 . S
C183 H206 0.950 . S
C184 C183 1.349 1_455 S
C184 C196 1.349 . S
C185 C183 1.327 . S
C185 C201 1.429 1_655 S
C185 H207 0.950 . S
C186 H182 0.949 . S
C186 C194 1.574 . S
C186 C202 1.367 . S
H187 C195 0.950 . S
H188 C193 0.950 . S
H189 C194 0.949 . S
H190 C196 0.950 . S
H191 C197 0.950 . S
H192 C198 0.949 . S
C193 H188 0.950 . S
C193 C195 1.327 . S
C193 C199 1.427 . S
C194 C186 1.574 . S
C194 H189 0.949 . S
C194 C200 1.366 . S
C195 C179 1.348 . S
C195 H187 0.950 . S
C195 C193 1.327 . S
C196 C184 1.349 . S
C196 H190 0.950 . S
C196 C197 1.327 . S
C197 H191 0.950 . S
C197 C196 1.327 . S
C197 C201 1.428 . S
C198 C181 1.574 . S
C198 H192 0.949 . S
C198 C202 1.370 1_655 S
C199 C180 1.430 1_655 S
C199 C193 1.427 . S
C199 C200 1.523 1_655 S
C200 C181 1.370 1_455 S
C200 C194 1.366 . S
C200 C199 1.523 1_455 S
C201 C185 1.429 1_455 S
C201 C197 1.428 . S
C201 C202 1.523 . S
C202 C186 1.367 . S
C202 C198 1.370 1_455 S
C202 C201 1.523 . S
H203 C178 0.950 . S
H204 C180 0.950 . S
H205 C181 0.949 . S
H206 C183 0.950 . S
H207 C185 0.950 . S
C208 C209 1.346 1_565 S
C208 C210 1.327 . S
C208 H233 0.950 . S
C209 C208 1.346 1_545 S
C209 C225 1.352 . S
C210 C208 1.327 . S
C210 C229 1.426 1_565 S
C210 H234 0.950 . S
C211 C228 1.574 . S
C211 C230 1.370 . S
C211 H235 0.949 . S
H212 C216 0.949 . S
C213 C214 1.349 . S
C213 C215 1.327 . S
C213 H236 0.950 . S
C214 C213 1.349 . S
C214 C226 1.349 1_545 S
C215 C213 1.327 . S
C215 C231 1.429 . S
C215 H237 0.950 . S
C216 H212 0.949 . S
C216 C224 1.574 . S
C216 C232 1.367 1_565 S
H217 C225 0.950 . S
H218 C223 0.950 . S
H219 C224 0.949 . S
H220 C226 0.950 . S
H221 C227 0.950 . S
H222 C228 0.949 . S
C223 H218 0.950 . S
C223 C225 1.327 . S
C223 C229 1.431 . S
C224 C216 1.574 . S
C224 H219 0.949 . S
C224 C230 1.366 1_565 S
C225 C209 1.352 . S
C225 H217 0.950 . S
C225 C223 1.327 . S
C226 C214 1.349 1_565 S
C226 H220 0.950 . S
C226 C227 1.327 . S
C227 H221 0.950 . S
C227 C226 1.327 . S
C227 C231 1.428 1_565 S
C228 C211 1.574 . S
C228 H222 0.949 . S
C228 C232 1.370 . S
C229 C210 1.426 1_545 S
C229 C223 1.431 . S
C229 C230 1.523 . S
C230 C211 1.370 . S
C230 C224 1.366 1_545 S
C230 C229 1.523 . S
C231 C215 1.429 . S
C231 C227 1.428 1_545 S
C231 C232 1.523 . S
C232 C216 1.367 1_545 S
C232 C228 1.370 . S
C232 C231 1.523 . S
H233 C208 0.950 . S
H234 C210 0.950 . S
H235 C211 0.949 . S
H236 C213 0.950 . S
H237 C215 0.950 . S
C238 C239 1.352 . S
C238 C240 1.327 . S
C238 H263 0.950 . S
C239 C238 1.352 . S
C239 C255 1.345 1_455 S
C240 C238 1.327 . S
C240 C259 1.431 . S
C240 H264 0.950 . S
C241 C258 1.574 . S
C241 C260 1.366 1_655 S
C241 H265 0.949 . S
H242 C246 0.949 . S
C243 C244 1.349 1_655 S
C243 C245 1.327 . S
C243 H266 0.950 . S
C244 C243 1.349 1_455 S
C244 C256 1.349 . S
C245 C243 1.327 . S
C245 C261 1.428 1_655 S
C245 H267 0.950 . S
C246 H242 0.949 . S
C246 C254 1.574 . S
C246 C262 1.370 . S
H247 C255 0.950 . S
H248 C253 0.950 . S
H249 C254 0.949 . S
H250 C256 0.950 . S
H251 C257 0.950 . S
H252 C258 0.949 . S
C253 H248 0.950 . S
C253 C255 1.327 . S
C253 C259 1.426 1_655 S
C254 C246 1.574 . S
C254 H249 0.949 . S
C254 C260 1.371 . S
C255 C239 1.345 1_655 S
C255 H247 0.950 . S
C255 C253 1.327 . S
C256 C244 1.349 . S
C256 H250 0.950 . S
C256 C257 1.327 . S
C257 H251 0.950 . S
C257 C256 1.327 . S
C257 C261 1.430 . S
C258 C241 1.574 . S
C258 H252 0.949 . S
C258 C262 1.367 1_655 S
C259 C240 1.431 . S
C259 C253 1.426 1_455 S
C259 C260 1.523 . S
C260 C241 1.366 1_455 S
C260 C254 1.371 . S
C260 C259 1.523 . S
C261 C245 1.428 1_455 S
C261 C257 1.430 . S
C261 C262 1.523 . S
C262 C246 1.370 . S
C262 C258 1.367 1_455 S
C262 C261 1.523 . S
H263 C238 0.950 . S
H264 C240 0.950 . S
H265 C241 0.949 . S
H266 C243 0.950 . S
H267 C245 0.950 . S
C268 C269 1.350 1_545 S
C268 C270 1.327 . S
C268 H293 0.950 . S
C269 C268 1.350 1_565 S
C269 C285 1.348 . S
C270 C268 1.327 . S
C270 C289 1.431 1_545 S
C270 H294 0.950 . S
C271 C288 1.574 . S
C271 C290 1.370 1_565 S
C271 H295 0.949 . S
H272 C276 0.949 . S
C273 C274 1.349 1_565 S
C273 C275 1.327 . S
C273 H296 0.950 . S
C274 C273 1.349 1_545 S
C274 C286 1.349 . S
C275 C273 1.327 . S
C275 C291 1.429 1_565 S
C275 H297 0.950 . S
C276 H272 0.949 . S
C276 C284 1.574 . S
C276 C292 1.367 . S
H277 C285 0.950 . S
H278 C283 0.950 . S
H279 C284 0.949 . S
H280 C286 0.950 . S
H281 C287 0.950 . S
H282 C288 0.949 . S
C283 H278 0.950 . S
C283 C285 1.327 . S
C283 C289 1.427 . S
C284 C276 1.574 . S
C284 H279 0.949 . S
C284 C290 1.366 . S
C285 C269 1.348 . S
C285 H277 0.950 . S
C285 C283 1.327 . S
C286 C274 1.349 . S
C286 H280 0.950 . S
C286 C287 1.327 . S
C287 H281 0.950 . S
C287 C286 1.327 . S
C287 C291 1.428 . S
C288 C271 1.574 . S
C288 H282 0.949 . S
C288 C292 1.370 1_565 S
C289 C270 1.431 1_565 S
C289 C283 1.427 . S
C289 C290 1.523 1_565 S
C290 C271 1.370 1_545 S
C290 C284 1.366 . S
C290 C289 1.523 1_545 S
C291 C275 1.429 1_545 S
C291 C287 1.428 . S
C291 C292 1.523 . S
C292 C276 1.367 . S
C292 C288 1.370 1_545 S
C292 C291 1.523 . S
H293 C268 0.950 . S
H294 C270 0.950 . S
H295 C271 0.949 . S
H296 C273 0.950 . S
H297 C275 0.950 . S
C59 C22 1.405 1_455 S
C64 C33 1.451 . S
C89 C8 1.407 1_565 S
C94 C55 1.454 1_545 S
C119 C31 1.403 1_655 S
C124 C42 1.454 . S
C149 C17 1.402 1_545 S
C154 C46 1.451 1_545 S
C179 C30 1.329 1_655 S
C184 C35 1.369 . S
C209 C27 1.327 1_545 S
C214 C50 1.367 1_545 S
C244 C37 1.368 . S
C239 C23 1.322 1_455 S
C269 C24 1.325 1_565 S
C274 C48 1.369 1_545 S
