# Generated by pormake.
# Topology gar, (4,6)-cn, num edge types: 1
# Building blocks:
#     Node 0, Type 0, BuildingBlock: KUFVIS_clean_sbu_0, # of connection points: 4
#     Node 1, Type 0, BuildingBlock: KUFVIS_clean_sbu_0, # of connection points: 4
#     Node 2, Type 0, BuildingBlock: KUFVIS_clean_sbu_0, # of connection points: 4
#     Node 3, Type 0, BuildingBlock: KUFVIS_clean_sbu_0, # of connection points: 4
#     Node 4, Type 0, BuildingBlock: KUFVIS_clean_sbu_0, # of connection points: 4
#     Node 5, Type 0, BuildingBlock: KUFVIS_clean_sbu_0, # of connection points: 4
#     Node 6, Type 0, BuildingBlock: KUFVIS_clean_sbu_0, # of connection points: 4
#     Node 7, Type 0, BuildingBlock: KUFVIS_clean_sbu_0, # of connection points: 4
#     Node 8, Type 0, BuildingBlock: KUFVIS_clean_sbu_0, # of connection points: 4
#     Node 9, Type 0, BuildingBlock: KUFVIS_clean_sbu_0, # of connection points: 4
#     Node 10, Type 0, BuildingBlock: KUFVIS_clean_sbu_0, # of connection points: 4
#     Node 11, Type 0, BuildingBlock: KUFVIS_clean_sbu_0, # of connection points: 4
#     Node 12, Type 0, BuildingBlock: KUFVIS_clean_sbu_0, # of connection points: 4
#     Node 13, Type 0, BuildingBlock: KUFVIS_clean_sbu_0, # of connection points: 4
#     Node 14, Type 0, BuildingBlock: KUFVIS_clean_sbu_0, # of connection points: 4
#     Node 15, Type 0, BuildingBlock: KUFVIS_clean_sbu_0, # of connection points: 4
#     Node 16, Type 0, BuildingBlock: KUFVIS_clean_sbu_0, # of connection points: 4
#     Node 17, Type 0, BuildingBlock: KUFVIS_clean_sbu_0, # of connection points: 4
#     Node 18, Type 0, BuildingBlock: KUFVIS_clean_sbu_0, # of connection points: 4
#     Node 19, Type 0, BuildingBlock: KUFVIS_clean_sbu_0, # of connection points: 4
#     Node 20, Type 0, BuildingBlock: KUFVIS_clean_sbu_0, # of connection points: 4
#     Node 21, Type 0, BuildingBlock: KUFVIS_clean_sbu_0, # of connection points: 4
#     Node 22, Type 0, BuildingBlock: KUFVIS_clean_sbu_0, # of connection points: 4
#     Node 23, Type 0, BuildingBlock: KUFVIS_clean_sbu_0, # of connection points: 4
#     Node 24, Type 1, BuildingBlock: KUMBUR_clean_sbu_1, # of connection points: 6
#     Node 25, Type 1, BuildingBlock: KUMBUR_clean_sbu_1, # of connection points: 6
#     Node 26, Type 1, BuildingBlock: KUMBUR_clean_sbu_1, # of connection points: 6
#     Node 27, Type 1, BuildingBlock: KUMBUR_clean_sbu_1, # of connection points: 6
#     Node 28, Type 1, BuildingBlock: KUMBUR_clean_sbu_1, # of connection points: 6
#     Node 29, Type 1, BuildingBlock: KUMBUR_clean_sbu_1, # of connection points: 6
#     Node 30, Type 1, BuildingBlock: KUMBUR_clean_sbu_1, # of connection points: 6
#     Node 31, Type 1, BuildingBlock: KUMBUR_clean_sbu_1, # of connection points: 6
#     Node 32, Type 1, BuildingBlock: KUMBUR_clean_sbu_1, # of connection points: 6
#     Node 33, Type 1, BuildingBlock: KUMBUR_clean_sbu_1, # of connection points: 6
#     Node 34, Type 1, BuildingBlock: KUMBUR_clean_sbu_1, # of connection points: 6
#     Node 35, Type 1, BuildingBlock: KUMBUR_clean_sbu_1, # of connection points: 6
#     Node 36, Type 1, BuildingBlock: KUMBUR_clean_sbu_1, # of connection points: 6
#     Node 37, Type 1, BuildingBlock: KUMBUR_clean_sbu_1, # of connection points: 6
#     Node 38, Type 1, BuildingBlock: KUMBUR_clean_sbu_1, # of connection points: 6
#     Node 39, Type 1, BuildingBlock: KUMBUR_clean_sbu_1, # of connection points: 6
#     Edge 40, Type (0, 1), BuildingBlock: UVAHIK_clean_linker_0, # of connection points: 2
#     Edge 41, Type (0, 1), BuildingBlock: UVAHIK_clean_linker_0, # of connection points: 2
#     Edge 42, Type (0, 1), BuildingBlock: UVAHIK_clean_linker_0, # of connection points: 2
#     Edge 43, Type (0, 1), BuildingBlock: UVAHIK_clean_linker_0, # of connection points: 2
#     Edge 44, Type (0, 1), BuildingBlock: UVAHIK_clean_linker_0, # of connection points: 2
#     Edge 45, Type (0, 1), BuildingBlock: UVAHIK_clean_linker_0, # of connection points: 2
#     Edge 46, Type (0, 1), BuildingBlock: UVAHIK_clean_linker_0, # of connection points: 2
#     Edge 47, Type (0, 1), BuildingBlock: UVAHIK_clean_linker_0, # of connection points: 2
#     Edge 48, Type (0, 1), BuildingBlock: UVAHIK_clean_linker_0, # of connection points: 2
#     Edge 49, Type (0, 1), BuildingBlock: UVAHIK_clean_linker_0, # of connection points: 2
#     Edge 50, Type (0, 1), BuildingBlock: UVAHIK_clean_linker_0, # of connection points: 2
#     Edge 51, Type (0, 1), BuildingBlock: UVAHIK_clean_linker_0, # of connection points: 2
#     Edge 52, Type (0, 1), BuildingBlock: UVAHIK_clean_linker_0, # of connection points: 2
#     Edge 53, Type (0, 1), BuildingBlock: UVAHIK_clean_linker_0, # of connection points: 2
#     Edge 54, Type (0, 1), BuildingBlock: UVAHIK_clean_linker_0, # of connection points: 2
#     Edge 55, Type (0, 1), BuildingBlock: UVAHIK_clean_linker_0, # of connection points: 2
#     Edge 56, Type (0, 1), BuildingBlock: UVAHIK_clean_linker_0, # of connection points: 2
#     Edge 57, Type (0, 1), BuildingBlock: UVAHIK_clean_linker_0, # of connection points: 2
#     Edge 58, Type (0, 1), BuildingBlock: UVAHIK_clean_linker_0, # of connection points: 2
#     Edge 59, Type (0, 1), BuildingBlock: UVAHIK_clean_linker_0, # of connection points: 2
#     Edge 60, Type (0, 1), BuildingBlock: UVAHIK_clean_linker_0, # of connection points: 2
#     Edge 61, Type (0, 1), BuildingBlock: UVAHIK_clean_linker_0, # of connection points: 2
#     Edge 62, Type (0, 1), BuildingBlock: UVAHIK_clean_linker_0, # of connection points: 2
#     Edge 63, Type (0, 1), BuildingBlock: UVAHIK_clean_linker_0, # of connection points: 2
#     Edge 64, Type (0, 1), BuildingBlock: UVAHIK_clean_linker_0, # of connection points: 2
#     Edge 65, Type (0, 1), BuildingBlock: UVAHIK_clean_linker_0, # of connection points: 2
#     Edge 66, Type (0, 1), BuildingBlock: UVAHIK_clean_linker_0, # of connection points: 2
#     Edge 67, Type (0, 1), BuildingBlock: UVAHIK_clean_linker_0, # of connection points: 2
#     Edge 68, Type (0, 1), BuildingBlock: UVAHIK_clean_linker_0, # of connection points: 2
#     Edge 69, Type (0, 1), BuildingBlock: UVAHIK_clean_linker_0, # of connection points: 2
#     Edge 70, Type (0, 1), BuildingBlock: UVAHIK_clean_linker_0, # of connection points: 2
#     Edge 71, Type (0, 1), BuildingBlock: UVAHIK_clean_linker_0, # of connection points: 2
#     Edge 72, Type (0, 1), BuildingBlock: UVAHIK_clean_linker_0, # of connection points: 2
#     Edge 73, Type (0, 1), BuildingBlock: UVAHIK_clean_linker_0, # of connection points: 2
#     Edge 74, Type (0, 1), BuildingBlock: UVAHIK_clean_linker_0, # of connection points: 2
#     Edge 75, Type (0, 1), BuildingBlock: UVAHIK_clean_linker_0, # of connection points: 2
#     Edge 76, Type (0, 1), BuildingBlock: UVAHIK_clean_linker_0, # of connection points: 2
#     Edge 77, Type (0, 1), BuildingBlock: UVAHIK_clean_linker_0, # of connection points: 2
#     Edge 78, Type (0, 1), BuildingBlock: UVAHIK_clean_linker_0, # of connection points: 2
#     Edge 79, Type (0, 1), BuildingBlock: UVAHIK_clean_linker_0, # of connection points: 2
#     Edge 80, Type (0, 1), BuildingBlock: UVAHIK_clean_linker_0, # of connection points: 2
#     Edge 81, Type (0, 1), BuildingBlock: UVAHIK_clean_linker_0, # of connection points: 2
#     Edge 82, Type (0, 1), BuildingBlock: UVAHIK_clean_linker_0, # of connection points: 2
#     Edge 83, Type (0, 1), BuildingBlock: UVAHIK_clean_linker_0, # of connection points: 2
#     Edge 84, Type (0, 1), BuildingBlock: UVAHIK_clean_linker_0, # of connection points: 2
#     Edge 85, Type (0, 1), BuildingBlock: UVAHIK_clean_linker_0, # of connection points: 2
#     Edge 86, Type (0, 1), BuildingBlock: UVAHIK_clean_linker_0, # of connection points: 2
#     Edge 87, Type (0, 1), BuildingBlock: UVAHIK_clean_linker_0, # of connection points: 2
#     Edge 88, Type (0, 1), BuildingBlock: UVAHIK_clean_linker_0, # of connection points: 2
#     Edge 89, Type (0, 1), BuildingBlock: UVAHIK_clean_linker_0, # of connection points: 2
#     Edge 90, Type (0, 1), BuildingBlock: UVAHIK_clean_linker_0, # of connection points: 2
#     Edge 91, Type (0, 1), BuildingBlock: UVAHIK_clean_linker_0, # of connection points: 2
#     Edge 92, Type (0, 1), BuildingBlock: UVAHIK_clean_linker_0, # of connection points: 2
#     Edge 93, Type (0, 1), BuildingBlock: UVAHIK_clean_linker_0, # of connection points: 2
#     Edge 94, Type (0, 1), BuildingBlock: UVAHIK_clean_linker_0, # of connection points: 2
#     Edge 95, Type (0, 1), BuildingBlock: UVAHIK_clean_linker_0, # of connection points: 2
#     Edge 96, Type (0, 1), BuildingBlock: UVAHIK_clean_linker_0, # of connection points: 2
#     Edge 97, Type (0, 1), BuildingBlock: UVAHIK_clean_linker_0, # of connection points: 2
#     Edge 98, Type (0, 1), BuildingBlock: UVAHIK_clean_linker_0, # of connection points: 2
#     Edge 99, Type (0, 1), BuildingBlock: UVAHIK_clean_linker_0, # of connection points: 2
#     Edge 100, Type (0, 1), BuildingBlock: UVAHIK_clean_linker_0, # of connection points: 2
#     Edge 101, Type (0, 1), BuildingBlock: UVAHIK_clean_linker_0, # of connection points: 2
#     Edge 102, Type (0, 1), BuildingBlock: UVAHIK_clean_linker_0, # of connection points: 2
#     Edge 103, Type (0, 1), BuildingBlock: UVAHIK_clean_linker_0, # of connection points: 2
#     Edge 104, Type (0, 1), BuildingBlock: UVAHIK_clean_linker_0, # of connection points: 2
#     Edge 105, Type (0, 1), BuildingBlock: UVAHIK_clean_linker_0, # of connection points: 2
#     Edge 106, Type (0, 1), BuildingBlock: UVAHIK_clean_linker_0, # of connection points: 2
#     Edge 107, Type (0, 1), BuildingBlock: UVAHIK_clean_linker_0, # of connection points: 2
#     Edge 108, Type (0, 1), BuildingBlock: UVAHIK_clean_linker_0, # of connection points: 2
#     Edge 109, Type (0, 1), BuildingBlock: UVAHIK_clean_linker_0, # of connection points: 2
#     Edge 110, Type (0, 1), BuildingBlock: UVAHIK_clean_linker_0, # of connection points: 2
#     Edge 111, Type (0, 1), BuildingBlock: UVAHIK_clean_linker_0, # of connection points: 2
#     Edge 112, Type (0, 1), BuildingBlock: UVAHIK_clean_linker_0, # of connection points: 2
#     Edge 113, Type (0, 1), BuildingBlock: UVAHIK_clean_linker_0, # of connection points: 2
#     Edge 114, Type (0, 1), BuildingBlock: UVAHIK_clean_linker_0, # of connection points: 2
#     Edge 115, Type (0, 1), BuildingBlock: UVAHIK_clean_linker_0, # of connection points: 2
#     Edge 116, Type (0, 1), BuildingBlock: UVAHIK_clean_linker_0, # of connection points: 2
#     Edge 117, Type (0, 1), BuildingBlock: UVAHIK_clean_linker_0, # of connection points: 2
#     Edge 118, Type (0, 1), BuildingBlock: UVAHIK_clean_linker_0, # of connection points: 2
#     Edge 119, Type (0, 1), BuildingBlock: UVAHIK_clean_linker_0, # of connection points: 2
#     Edge 120, Type (0, 1), BuildingBlock: UVAHIK_clean_linker_0, # of connection points: 2
#     Edge 121, Type (0, 1), BuildingBlock: UVAHIK_clean_linker_0, # of connection points: 2
#     Edge 122, Type (0, 1), BuildingBlock: UVAHIK_clean_linker_0, # of connection points: 2
#     Edge 123, Type (0, 1), BuildingBlock: UVAHIK_clean_linker_0, # of connection points: 2
#     Edge 124, Type (0, 1), BuildingBlock: UVAHIK_clean_linker_0, # of connection points: 2
#     Edge 125, Type (0, 1), BuildingBlock: UVAHIK_clean_linker_0, # of connection points: 2
#     Edge 126, Type (0, 1), BuildingBlock: UVAHIK_clean_linker_0, # of connection points: 2
#     Edge 127, Type (0, 1), BuildingBlock: UVAHIK_clean_linker_0, # of connection points: 2
#     Edge 128, Type (0, 1), BuildingBlock: UVAHIK_clean_linker_0, # of connection points: 2
#     Edge 129, Type (0, 1), BuildingBlock: UVAHIK_clean_linker_0, # of connection points: 2
#     Edge 130, Type (0, 1), BuildingBlock: UVAHIK_clean_linker_0, # of connection points: 2
#     Edge 131, Type (0, 1), BuildingBlock: UVAHIK_clean_linker_0, # of connection points: 2
#     Edge 132, Type (0, 1), BuildingBlock: UVAHIK_clean_linker_0, # of connection points: 2
#     Edge 133, Type (0, 1), BuildingBlock: UVAHIK_clean_linker_0, # of connection points: 2
#     Edge 134, Type (0, 1), BuildingBlock: UVAHIK_clean_linker_0, # of connection points: 2
#     Edge 135, Type (0, 1), BuildingBlock: UVAHIK_clean_linker_0, # of connection points: 2
# Relax obj value: 0.054
# Max RMSD: 0.175
# Mean RMSD: 0.103
data_MOF--net-gar--node1-KUFVIS_clean_sbu_0--node2-KUMBUR_clean_sbu_1--edge1-UVAHIK_clean_linker_0
_symmetry_space_group_name_H-M    P1
_symmetry_Int_Tables_number       1
_symmetry_cell_setting            triclinic
loop_
_symmetry_equiv_pos_as_xyz
'x, y, z'
_cell_length_a     75.316969
_cell_length_b     75.688521
_cell_length_c     72.703107
_cell_angle_alpha  95.464082
_cell_angle_beta   95.565116
_cell_angle_gamma 100.76493
loop_
_atom_site_label
_atom_site_type_symbol
_atom_site_fract_x
_atom_site_fract_y
_atom_site_fract_z
_atom_type_partial_charge
Mn0 Mn 0.03733 0.29785 0.36733 0.0
Mn1 Mn 0.03651 0.32683 0.3349 0.0
C2 C 0.00884 0.30139 0.35289 0.0
C3 C 0.03892 0.26989 0.37859 0.0
C4 C 0.04427 0.33933 0.37649 0.0
O5 O 0.06349 0.30111 0.35937 0.0
O6 O 0.06043 0.31837 0.33616 0.0
C7 C 0.03797 0.30401 0.29986 0.0
N8 N 0.02934 0.315 0.31018 0.0
C9 C 0.00763 0.3159 0.28386 0.0
C10 C 0.01633 0.30463 0.27294 0.0
C11 C 0.03152 0.29862 0.281 0.0
C12 C 0.01475 0.32092 0.30253 0.0
H13 H 0.04982 0.29958 0.30591 0.0
C14 C 0.06965 0.30895 0.34569 0.0
O15 O 0.04403 0.28519 0.38893 0.0
O16 O 0.03353 0.27059 0.36116 0.0
N17 N 0.01436 0.3357 0.33198 0.0
C18 C 0.00683 0.34549 0.34474 0.0
C19 C 0.9909 0.35165 0.33921 0.0
C20 C 0.98302 0.3479 0.3206 0.0
C21 C 0.991 0.33778 0.30774 0.0
C22 C 0.00676 0.33181 0.31411 0.0
H23 H 0.01282 0.34847 0.35905 0.0
O24 O 0.01061 0.29559 0.36907 0.0
O25 O 0.02403 0.30497 0.34526 0.0
O26 O 0.04193 0.32353 0.38159 0.0
O27 O 0.04381 0.34184 0.35939 0.0
C28 C 0.98376 0.3331 0.28893 0.0
C29 C 0.99213 0.32225 0.27697 0.0
H30 H 0.01142 0.30046 0.25839 0.0
H31 H 0.03832 0.28996 0.27265 0.0
H32 H 0.98476 0.35934 0.34926 0.0
H33 H 0.97074 0.35271 0.31638 0.0
H34 H 0.97167 0.33765 0.28357 0.0
H35 H 0.98639 0.31869 0.26256 0.0
Mn36 Mn 0.01941 0.74854 0.68174 0.0
Mn37 Mn 0.03025 0.78276 0.71707 0.0
C38 C 0.05016 0.75827 0.69556 0.0
C39 C 0.01269 0.71814 0.66653 0.0
C40 C 0.02239 0.78913 0.67689 0.0
O41 O 0.99398 0.74897 0.69155 0.0
O42 O 1.00341 0.77226 0.71432 0.0
C43 C 0.0222 0.76381 0.74995 0.0
N44 N 0.03424 0.77433 0.74075 0.0
C45 C 0.05666 0.78078 0.76772 0.0
C46 C 0.0445 0.76997 0.77747 0.0
C47 C 0.02723 0.76141 0.76853 0.0
C48 C 0.05088 0.78269 0.74927 0.0
H49 H 0.00877 0.75755 0.74325 0.0
C50 C 0.9907 0.76011 0.70486 0.0
O51 O 0.00903 0.73178 0.65854 0.0
O52 O 0.01848 0.72167 0.6842 0.0
N53 N 0.05538 0.79423 0.72122 0.0
C54 C 0.06563 0.80378 0.70965 0.0
C55 C 0.08356 0.81256 0.71618 0.0
C56 C 0.09063 0.81171 0.7346 0.0
C57 C 0.07978 0.80188 0.74626 0.0
C58 C 0.0621 0.79319 0.73889 0.0
H59 H 0.06019 0.80461 0.69553 0.0
O60 O 0.04595 0.75078 0.67853 0.0
O61 O 0.03615 0.76046 0.70431 0.0
O62 O 0.01878 0.7725 0.67026 0.0
O63 O 0.02693 0.79414 0.69414 0.0
C64 C 0.08583 0.80025 0.76485 0.0
C65 C 0.07424 0.78978 0.7756 0.0
H66 H 0.04828 0.76817 0.79183 0.0
H67 H 0.01774 0.75315 0.77601 0.0
H68 H 0.09185 0.82008 0.70707 0.0
H69 H 0.10444 0.8186 0.73962 0.0
H70 H 0.09937 0.80695 0.771 0.0
H71 H 0.07904 0.78866 0.7899 0.0
Mn72 Mn 0.5366 0.79894 0.86836 0.0
Mn73 Mn 0.53618 0.82805 0.83603 0.0
C74 C 0.50814 0.80236 0.85363 0.0
C75 C 0.53853 0.7711 0.88014 0.0
C76 C 0.54311 0.84052 0.87762 0.0
O77 O 0.56296 0.80219 0.86057 0.0
O78 O 0.56033 0.81988 0.83771 0.0
C79 C 0.5384 0.80508 0.8013 0.0
N80 N 0.52951 0.81608 0.81129 0.0
C81 C 0.50809 0.8165 0.78459 0.0
C82 C 0.51706 0.80524 0.774 0.0
C83 C 0.53224 0.79946 0.78242 0.0
C84 C 0.51493 0.82177 0.8033 0.0
H85 H 0.55021 0.80079 0.80763 0.0
C86 C 0.56941 0.81025 0.84713 0.0
O87 O 0.54351 0.78661 0.89011 0.0
O88 O 0.53294 0.77154 0.86269 0.0
N89 N 0.51392 0.83667 0.83255 0.0
C90 C 0.50603 0.84639 0.84504 0.0
C91 C 0.49007 0.85232 0.83913 0.0
C92 C 0.48249 0.84838 0.82042 0.0
C93 C 0.49082 0.83831 0.80785 0.0
C94 C 0.50661 0.8326 0.81459 0.0
H95 H 0.51178 0.8495 0.85942 0.0
O96 O 0.50983 0.79654 0.86982 0.0
O97 O 0.52344 0.80603 0.84615 0.0
O98 O 0.54068 0.82466 0.88256 0.0
O99 O 0.54303 0.84327 0.8606 0.0
C100 C 0.48388 0.83342 0.78899 0.0
C101 C 0.49256 0.8226 0.77734 0.0
H102 H 0.51237 0.80089 0.75943 0.0
H103 H 0.53924 0.79079 0.77433 0.0
H104 H 0.48365 0.85996 0.84896 0.0
H105 H 0.47019 0.853 0.81591 0.0
H106 H 0.47177 0.83775 0.78334 0.0
H107 H 0.48704 0.81884 0.76288 0.0
Mn108 Mn 0.51943 0.24775 0.18489 0.0
Mn109 Mn 0.48496 0.23847 0.1496 0.0
C110 C 0.50969 0.218 0.16886 0.0
C111 C 0.55157 0.25478 0.1963 0.0
C112 C 0.47873 0.24818 0.18996 0.0
O113 O 0.51905 0.27302 0.17557 0.0
O114 O 0.49747 0.26401 0.1508 0.0
C115 C 0.50433 0.24265 0.11631 0.0
N116 N 0.49313 0.23209 0.12629 0.0
C117 C 0.48786 0.20707 0.10208 0.0
C118 C 0.49936 0.21768 0.09154 0.0
C119 C 0.50763 0.23554 0.0987 0.0
C120 C 0.48494 0.21495 0.11946 0.0
H121 H 0.51062 0.25642 0.12173 0.0
C122 C 0.50959 0.2762 0.16088 0.0
O123 O 0.53911 0.25763 0.20673 0.0
O124 O 0.5455 0.24875 0.17913 0.0
N125 N 0.47243 0.21381 0.14743 0.0
C126 C 0.46269 0.20508 0.15989 0.0
C127 C 0.45419 0.18683 0.15526 0.0
C128 C 0.45576 0.17778 0.13788 0.0
C129 C 0.46593 0.18704 0.12533 0.0
C130 C 0.4741 0.20522 0.13072 0.0
H131 H 0.46149 0.21197 0.17328 0.0
O132 O 0.51741 0.2205 0.18592 0.0
O133 O 0.50684 0.23272 0.16245 0.0
O134 O 0.4951 0.24859 0.19729 0.0
O135 O 0.47416 0.24486 0.17246 0.0
C136 C 0.46854 0.17888 0.10782 0.0
C137 C 0.47943 0.18891 0.09617 0.0
H138 H 0.50201 0.21222 0.07799 0.0
H139 H 0.5165 0.24381 0.09065 0.0
H140 H 0.44646 0.17975 0.16506 0.0
H141 H 0.44923 0.16368 0.13438 0.0
H142 H 0.46237 0.16484 0.10325 0.0
H143 H 0.48145 0.18244 0.0828 0.0
Mn144 Mn 0.0585 0.78676 0.11748 0.0
Mn145 Mn 0.02391 0.77615 0.08224 0.0
C146 C 0.04811 0.75622 0.10385 0.0
C147 C 0.08945 0.79348 0.13183 0.0
C148 C 0.01798 0.78506 0.12246 0.0
O149 O 0.0579 0.81207 0.10743 0.0
O150 O 0.0353 0.80241 0.08385 0.0
C151 C 0.04347 0.78192 0.04927 0.0
N152 N 0.03256 0.77071 0.05894 0.0
C153 C 0.02739 0.7466 0.03376 0.0
C154 C 0.03858 0.75788 0.02353 0.0
C155 C 0.04667 0.77561 0.03134 0.0
C156 C 0.02464 0.75366 0.05152 0.0
H157 H 0.0495 0.79563 0.05512 0.0
C158 C 0.04732 0.81512 0.09341 0.0
O159 O 0.07611 0.79745 0.14026 0.0
O160 O 0.08521 0.78723 0.11434 0.0
N161 N 0.01178 0.75131 0.07921 0.0
C162 C 1.00138 0.74217 0.09094 0.0
C163 C 0.99269 0.7241 0.08543 0.0
C164 C 0.99457 0.7157 0.06785 0.0
C165 C 0.00519 0.72545 0.05596 0.0
C166 C 0.01366 0.74338 0.06227 0.0
H167 H 0.99981 0.74858 0.10444 0.0
O168 O 0.05611 0.76019 0.12074 0.0
O169 O 0.04601 0.77025 0.09533 0.0
O170 O 0.03465 0.78744 0.12909 0.0
O171 O 0.01267 0.78112 0.10514 0.0
C172 C 0.00776 0.71807 0.03811 0.0
C173 C 0.01879 0.72866 0.02699 0.0
H174 H 0.04103 0.7531 0.00966 0.0
H175 H 0.05524 0.78442 0.02348 0.0
H176 H 0.98453 0.71667 0.0947 0.0
H177 H 0.98782 0.70176 0.06364 0.0
H178 H 1.00132 0.70427 0.03281 0.0
H179 H 0.0206 0.72286 0.01326 0.0
Mn180 Mn 0.50099 0.76284 0.43777 0.0
Mn181 Mn 0.49934 0.7892 0.40237 0.0
C182 C 0.47264 0.76452 0.42106 0.0
C183 C 0.50397 0.73386 0.44866 0.0
C184 C 0.50804 0.80502 0.44325 0.0
O185 O 0.52714 0.76702 0.43001 0.0
O186 O 0.52259 0.78038 0.40379 0.0
C187 C 0.49918 0.76443 0.36828 0.0
N188 N 0.49115 0.77618 0.37832 0.0
C189 C 0.469 0.7765 0.35219 0.0
C190 C 0.47702 0.76436 0.3416 0.0
C191 C 0.49215 0.75827 0.3497 0.0
C192 C 0.47669 0.78227 0.37059 0.0
H193 H 0.51096 0.75998 0.37436 0.0
C194 C 0.53233 0.77296 0.415 0.0
O195 O 0.50821 0.74909 0.45942 0.0
O196 O 0.49815 0.73538 0.43162 0.0
N197 N 0.47726 0.79828 0.39962 0.0
C198 C 0.47013 0.80862 0.41224 0.0
C199 C 0.45427 0.81491 0.40674 0.0
C200 C 0.44598 0.81065 0.3883 0.0
C201 C 0.45349 0.79989 0.3756 0.0
C202 C 0.46924 0.79387 0.38193 0.0
H203 H 0.47633 0.81188 0.42645 0.0
O204 O 0.47341 0.75944 0.43766 0.0
O205 O 0.48828 0.76864 0.4149 0.0
O206 O 0.50497 0.79006 0.45058 0.0
O207 O 0.50774 0.80514 0.42573 0.0
C208 C 0.44571 0.7945 0.35703 0.0
C209 C 0.45351 0.78288 0.34531 0.0
H210 H 0.47163 0.75956 0.32727 0.0
H211 H 0.49846 0.74896 0.34159 0.0
H212 H 0.44843 0.82301 0.4167 0.0
H213 H 0.43369 0.81545 0.38412 0.0
H214 H 0.43355 0.79896 0.35173 0.0
H215 H 0.44727 0.77867 0.33113 0.0
Mn216 Mn 0.55856 0.28664 0.61782 0.0
Mn217 Mn 0.52419 0.27629 0.58235 0.0
C218 C 0.5482 0.2562 0.60397 0.0
C219 C 0.58942 0.29334 0.63237 0.0
C220 C 0.51805 0.28517 0.6225 0.0
O221 O 0.55805 0.312 0.60788 0.0
O222 O 0.53581 0.30247 0.58391 0.0
C223 C 0.54409 0.28162 0.54953 0.0
N224 N 0.53288 0.27062 0.55912 0.0
C225 C 0.52757 0.24641 0.53403 0.0
C226 C 0.53906 0.25748 0.52388 0.0
C227 C 0.54738 0.27514 0.53168 0.0
C228 C 0.52476 0.25362 0.55171 0.0
H229 H 0.55031 0.29528 0.5554 0.0
C230 C 0.54773 0.31511 0.5937 0.0
O231 O 0.57601 0.29722 0.64072 0.0
O232 O 0.58531 0.28716 0.61484 0.0
N233 N 0.51184 0.25152 0.57939 0.0
C234 C 0.50138 0.24251 0.59115 0.0
C235 C 0.49251 0.22448 0.58568 0.0
C236 C 0.4943 0.21599 0.56811 0.0
C237 C 0.50501 0.2256 0.55619 0.0
C238 C 0.51363 0.2435 0.56246 0.0
H239 H 0.49988 0.24897 0.60465 0.0
O240 O 0.55612 0.26002 0.62091 0.0
O241 O 0.54617 0.2703 0.59556 0.0
O242 O 0.53464 0.28725 0.62927 0.0
O243 O 0.51287 0.28148 0.60514 0.0
C244 C 0.50756 0.2181 0.53839 0.0
C245 C 0.51878 0.22852 0.52729 0.0
H246 H 0.54159 0.25256 0.51008 0.0
H247 H 0.55621 0.28378 0.5239 0.0
H248 H 0.48428 0.21716 0.59497 0.0
H249 H 0.48742 0.20208 0.56393 0.0
H250 H 0.501 0.20432 0.53313 0.0
H251 H 0.52064 0.2226 0.51362 0.0
Mn252 Mn 1.00005 0.26253 0.93787 0.0
Mn253 Mn 0.9998 0.28887 0.90249 0.0
C254 C 0.97206 0.26495 0.92064 0.0
C255 C 1.00271 0.23332 0.94873 0.0
C256 C 0.00844 0.30463 0.94336 0.0
O257 O 0.02654 0.26667 0.93079 0.0
O258 O 0.02222 0.27872 0.90371 0.0
C259 C 0.99766 0.263 0.86879 0.0
N260 N 0.99067 0.2757 0.8787 0.0
C261 C 0.96827 0.27646 0.85295 0.0
C262 C 0.97524 0.26337 0.84247 0.0
C263 C 0.98994 0.25656 0.85045 0.0
C264 C 0.97646 0.28229 0.87118 0.0
H265 H 0.00915 0.25798 0.87478 0.0
C266 C 0.03182 0.27172 0.91544 0.0
O267 O 0.00623 0.24844 0.95967 0.0
O268 O 0.99765 0.23506 0.93154 0.0
N269 N 0.97857 0.29939 0.8999 0.0
C270 C 0.97293 0.31139 0.91212 0.0
C271 C 0.95804 0.31912 0.90648 0.0
C272 C 0.94923 0.31463 0.88827 0.0
C273 C 0.95525 0.30223 0.87594 0.0
C274 C 0.97007 0.29485 0.8824 0.0
H275 H 0.97965 0.31509 0.92608 0.0
O276 O 0.97232 0.25933 0.93699 0.0
O277 O 0.98792 0.26879 0.91495 0.0
O278 O 1.00391 0.28974 0.95057 0.0
O279 O 0.00922 0.30466 0.92592 0.0
C280 C 0.94705 0.29684 0.85752 0.0
C281 C 0.95352 0.28392 0.84605 0.0
H282 H 0.96939 0.25845 0.82829 0.0
H283 H 0.99542 0.24649 0.84242 0.0
H284 H 0.95344 0.32861 0.91613 0.0
H285 H 0.93779 0.32067 0.88394 0.0
H286 H 0.93566 0.30244 0.85207 0.0
H287 H 0.94698 0.27976 0.83196 0.0
Mn288 Mn 0.38636 0.01548 0.29227 0.0
Mn289 Mn 0.35496 0.0055 0.32193 0.0
C290 C 0.37395 0.9863 0.29444 0.0
C291 C 0.39592 0.02242 0.26442 0.0
C292 C 0.39497 0.01804 0.33367 0.0
O293 O 0.37845 0.03897 0.2983 0.0
O294 O 0.3551 0.03006 0.31502 0.0
C295 C 0.32008 0.00521 0.29927 0.0
N296 N 0.33099 0.99644 0.30954 0.0
C297 C 0.30657 0.97081 0.30912 0.0
C298 C 0.29506 0.97956 0.2985 0.0
C299 C 0.30187 0.9968 0.2935 0.0
C300 C 0.32456 0.97986 0.31447 0.0
H301 H 0.32516 0.01862 0.29576 0.0
C302 C 0.36525 0.0418 0.30709 0.0
O303 O 0.40655 0.02696 0.27991 0.0
O304 O 0.379 0.01498 0.26512 0.0
N305 N 0.35372 0.98178 0.32935 0.0
C306 C 0.36678 0.97499 0.3391 0.0
C307 C 0.36243 0.95754 0.34452 0.0
C308 C 0.34464 0.94737 0.3401 0.0
C309 C 0.33143 0.95469 0.33011 0.0
C310 C 0.33664 0.97205 0.32487 0.0
H311 H 0.38041 0.98282 0.34271 0.0
O312 O 0.38954 0.99029 0.28805 0.0
O313 O 0.36579 0.99946 0.29909 0.0
O314 O 0.39993 0.01798 0.3176 0.0
O315 O 0.37851 0.01444 0.33692 0.0
C316 C 0.31331 0.94542 0.32509 0.0
C317 C 0.30087 0.9535 0.31465 0.0
H318 H 0.28098 0.97317 0.29413 0.0
H319 H 0.29305 0.00368 0.2854 0.0
H320 H 0.37271 0.95198 0.3522 0.0
H321 H 0.3413 0.93396 0.34441 0.0
H322 H 0.30882 0.93205 0.32913 0.0
H323 H 0.28699 0.94623 0.31086 0.0
Mn324 Mn 0.26153 0.17467 0.51453 0.0
Mn325 Mn 0.25447 0.13907 0.48083 0.0
C326 C 0.2322 0.15722 0.50571 0.0
C327 C 0.26757 0.18752 0.54617 0.0
C328 C 0.26365 0.1784 0.47311 0.0
O329 O 0.28697 0.16843 0.51362 0.0
O330 O 0.27951 0.1424 0.49377 0.0
C331 C 0.2573 0.10681 0.50004 0.0
N332 N 0.2473 0.11587 0.48909 0.0
C333 C 0.22319 0.08958 0.48175 0.0
C334 C 0.23318 0.08005 0.49311 0.0
C335 C 0.25031 0.08871 0.50229 0.0
C336 C 0.23093 0.10754 0.4799 0.0
H337 H 0.27063 0.11326 0.50674 0.0
C338 C 0.29082 0.15413 0.50523 0.0
O339 O 0.2705 0.19717 0.53257 0.0
O340 O 0.2619 0.17025 0.54155 0.0
N341 N 0.23043 0.13485 0.46791 0.0
C342 C 0.2222 0.14623 0.45816 0.0
C343 C 0.2046 0.13995 0.44885 0.0
C344 C 0.19572 0.12201 0.44952 0.0
C345 C 0.20443 0.1106 0.45972 0.0
C346 C 0.22189 0.11768 0.46889 0.0
H347 H 0.22897 0.16 0.45754 0.0
O348 O 0.23456 0.17388 0.51323 0.0
O349 O 0.24702 0.15142 0.50301 0.0
O350 O 0.26297 0.18588 0.48947 0.0
O351 O 0.26156 0.16135 0.46941 0.0
C352 C 0.19642 0.09252 0.46129 0.0
C353 C 0.20584 0.08198 0.4722 0.0
H354 H 0.22785 0.06607 0.49486 0.0
H355 H 0.25819 0.08138 0.51093 0.0
H356 H 0.19793 0.14889 0.44111 0.0
H357 H 0.18217 0.11719 0.44226 0.0
H358 H 0.18299 0.08661 0.45424 0.0
H359 H 0.19953 0.0681 0.47331 0.0
Mn360 Mn 0.13067 0.04144 0.78263 0.0
Mn361 Mn 0.16513 0.04821 0.81763 0.0
C362 C 0.14749 0.0708 0.79227 0.0
C363 C 0.11885 0.03543 0.75071 0.0
C364 C 0.12518 0.03779 0.82335 0.0
O365 O 0.13734 0.01627 0.78353 0.0
O366 O 0.16293 0.02371 0.80415 0.0
C367 C 0.19852 0.04705 0.79963 0.0
N368 N 0.18876 0.0563 0.81049 0.0
C369 C 0.21453 0.08077 0.81922 0.0
C370 C 0.2248 0.07155 0.80801 0.0
C371 C 0.21674 0.05463 0.79815 0.0
C372 C 0.19646 0.0725 0.82023 0.0
H373 H 0.19252 0.03388 0.79238 0.0
C374 C 0.15162 0.01252 0.7922 0.0
O375 O 0.10875 0.03193 0.76389 0.0
O376 O 0.13601 0.04178 0.756 0.0
N377 N 0.16834 0.07178 0.8311 0.0
C378 C 0.15631 0.07921 0.84064 0.0
C379 C 0.16197 0.09649 0.85063 0.0
C380 C 0.17995 0.10587 0.85083 0.0
C381 C 0.19204 0.09797 0.8408 0.0
C382 C 0.18556 0.0808 0.83094 0.0
H383 H 0.14251 0.07203 0.84065 0.0
O384 O 0.13093 0.06819 0.78412 0.0
O385 O 0.15346 0.05612 0.79518 0.0
O386 O 0.11846 0.03941 0.80695 0.0
O387 O 0.14221 0.03991 0.828 0.0
C388 C 0.21023 0.10649 0.84013 0.0
C389 C 0.22149 0.09786 0.82942 0.0
H390 H 0.23888 0.07733 0.80688 0.0
H391 H 0.22462 0.04736 0.78958 0.0
H392 H 0.15252 0.10252 0.85826 0.0
H393 H 0.1843 0.11915 0.85865 0.0
H394 H 0.21568 0.11971 0.84775 0.0
H395 H 0.23545 0.10456 0.829 0.0
Mn396 Mn 0.29294 0.91937 0.00376 0.0
Mn397 Mn 0.30186 0.95106 0.97433 0.0
C398 C 0.32197 0.93192 1.00074 0.0
C399 C 0.28721 0.90923 0.03172 0.0
C400 C 0.28938 0.91144 0.96206 0.0
O401 O 0.26945 0.92792 0.99964 0.0
O402 O 0.27692 0.94998 0.98105 0.0
C403 C 0.30101 0.985 0.99768 0.0
N404 N 0.31025 0.97476 0.98724 0.0
C405 C 0.33557 0.99969 0.98862 0.0
C406 C 0.32634 0.01052 0.9994 0.0
C407 C 0.30901 1.00312 0.004 0.0
C408 C 0.32691 0.98175 0.98271 0.0
H409 H 0.28755 0.97946 1.00094 0.0
C410 C 0.26591 0.94058 0.99041 0.0
O411 O 0.28191 0.89903 0.01609 0.0
O412 O 0.29488 0.92605 0.03114 0.0
N413 N 0.32584 0.95324 0.9671 0.0
C414 C 0.33319 0.94072 0.95727 0.0
C415 C 0.35084 0.94567 0.9523 0.0
C416 C 0.36061 0.96348 0.95722 0.0
C417 C 0.35273 0.97612 0.9673 0.0
C418 C 0.33522 0.97031 0.97214 0.0
H419 H 0.32565 0.92706 0.95331 0.0
O420 O 0.31831 0.91601 0.00641 0.0
O421 O 0.30852 0.93997 0.99681 0.0
O422 O 0.28899 0.90632 0.97804 0.0
O423 O 0.29361 0.92781 0.95897 0.0
C424 C 0.36156 0.99423 0.9728 0.0
C425 C 0.35299 0.00601 0.98345 0.0
H426 H 0.33241 0.02453 0.00421 0.0
H427 H 0.30176 0.01142 0.01223 0.0
H428 H 0.35685 0.93581 0.94458 0.0
H429 H 0.37418 0.96729 0.95325 0.0
H430 H 0.37499 0.99921 0.969 0.0
H431 H 0.35996 0.01987 0.98767 0.0
Mn432 Mn 0.29275 0.37902 0.03747 0.0
Mn433 Mn 0.29704 0.41289 0.00987 0.0
C434 C 0.32165 0.39592 0.03458 0.0
C435 C 0.28795 0.36787 0.06655 0.0
C436 C 0.28752 0.37295 0.99475 0.0
O437 O 0.26712 0.38504 0.03404 0.0
O438 O 0.27312 0.41039 0.01957 0.0
C439 C 0.29672 0.44617 0.0346 0.0
N440 N 0.30536 0.43663 0.02275 0.0
C441 C 0.32826 0.46305 0.02088 0.0
C442 C 0.31965 0.47314 0.03313 0.0
C443 C 0.30385 0.46465 0.04007 0.0
C444 C 0.32053 0.44471 0.01592 0.0
H445 H 0.2843 0.4398 0.03957 0.0
C446 C 0.26265 0.39906 0.02771 0.0
O447 O 0.28441 0.35746 0.05089 0.0
O448 O 0.294 0.38492 0.06542 0.0
N449 N 0.3198 0.4165 0.99982 0.0
C450 C 0.32689 0.40462 0.98882 0.0
C451 C 0.34313 0.41073 0.98137 0.0
C452 C 0.35176 0.42903 0.98506 0.0
C453 C 0.3443 0.44095 0.99658 0.0
C454 C 0.32824 0.434 0.00386 0.0
H455 H 0.32028 0.39059 0.98579 0.0
O456 O 0.31983 0.37986 0.03997 0.0
O457 O 0.30661 0.40166 0.03107 0.0
O458 O 0.28978 0.36638 0.01018 0.0
O459 O 0.28859 0.38982 0.99402 0.0
C460 C 0.3522 0.45943 1.00121 0.0
C461 C 0.34415 0.47048 0.01329 0.0
H462 H 0.32501 0.48742 0.03726 0.0
H463 H 0.29703 0.47239 0.0494 0.0
H464 H 0.34891 0.40139 0.97268 0.0
H465 H 0.36416 0.43373 0.97907 0.0
H466 H 0.36451 0.46526 0.99562 0.0
H467 H 0.35036 0.48467 0.01675 0.0
Mn468 Mn 0.7652 0.13641 0.04748 0.0
Mn469 Mn 0.75366 0.10079 0.01452 0.0
C470 C 0.73576 0.12245 0.0412 0.0
C471 C 0.77454 0.14861 0.07734 0.0
C472 C 0.76516 0.13967 0.007 0.0
O473 O 0.78873 0.12878 0.04385 0.0
O474 O 0.77864 0.1016 0.02648 0.0
C475 C 0.7535 0.06822 0.03404 0.0
N476 N 0.74454 0.07813 0.02308 0.0
C477 C 0.7187 0.05351 0.01579 0.0
C478 C 0.72772 0.04301 0.02691 0.0
C479 C 0.74516 0.05044 0.03614 0.0
C480 C 0.72774 0.0711 0.01412 0.0
H481 H 0.76695 0.0738 0.04096 0.0
C482 C 0.79096 0.11347 0.03668 0.0
O483 O 0.77734 0.1582 0.06365 0.0
O484 O 0.76737 0.1315 0.07368 0.0
N485 N 0.72943 0.09893 0.00266 0.0
C486 C 0.72217 0.11124 0.99339 0.0
C487 C 0.70433 0.10637 0.98435 0.0
C488 C 0.69424 0.08884 0.98468 0.0
C489 C 0.70194 0.07647 0.99444 0.0
C490 C 0.71965 0.08221 0.00349 0.0
H491 H 0.72991 0.12466 0.99289 0.0
O492 O 0.73995 0.13903 0.04912 0.0
O493 O 0.74893 0.11445 0.0372 0.0
O494 O 0.76495 0.14712 0.02325 0.0
O495 O 0.76251 0.12261 0.00286 0.0
C496 C 0.69269 0.05871 0.99567 0.0
C497 C 0.7011 0.04721 0.00627 0.0
H498 H 0.72137 0.02926 0.0285 0.0
H499 H 0.75224 0.04241 0.04472 0.0
H500 H 0.69843 0.11606 0.97699 0.0
H501 H 0.68054 0.08508 0.97754 0.0
H502 H 0.67906 0.05379 0.98863 0.0
H503 H 0.69383 0.03361 0.00717 0.0
Mn504 Mn 0.17124 0.54369 0.24935 0.0
Mn505 Mn 0.20579 0.55379 0.28402 0.0
C506 C 0.18519 0.57275 0.2575 0.0
C507 C 0.1609 0.53513 0.21874 0.0
C508 C 0.16621 0.54256 0.28973 0.0
O509 O 0.1785 0.52006 0.2522 0.0
O510 O 0.20425 0.52875 0.27238 0.0
C511 C 0.23838 0.55243 0.26469 0.0
N512 N 0.22886 0.56188 0.27563 0.0
C513 C 0.25419 0.58706 0.28231 0.0
C514 C 0.26425 0.57761 0.27107 0.0
C515 C 0.25628 0.56024 0.26216 0.0
C516 C 0.2364 0.57859 0.28427 0.0
H517 H 0.23243 0.53897 0.25811 0.0
C518 C 0.19284 0.51713 0.26098 0.0
O519 O 0.15025 0.53179 0.23153 0.0
O520 O 0.17771 0.54308 0.22371 0.0
N521 N 0.20859 0.57802 0.29582 0.0
C522 C 0.1966 0.58577 0.30512 0.0
C523 C 0.2021 0.60356 0.31398 0.0
C524 C 0.21993 0.61304 0.31347 0.0
C525 C 0.23199 0.60477 0.30377 0.0
C526 C 0.22561 0.58719 0.29486 0.0
H527 H 0.18297 0.57845 0.30576 0.0
O528 O 0.16879 0.56902 0.24881 0.0
O529 O 0.19287 0.55933 0.26123 0.0
O530 O 0.15951 0.5425 0.27305 0.0
O531 O 0.18322 0.54581 0.29507 0.0
C532 C 0.25006 0.61333 0.30247 0.0
C533 C 0.26112 0.60451 0.29168 0.0
H534 H 0.2781 0.58354 0.26918 0.0
H535 H 0.26399 0.55282 0.25354 0.0
H536 H 0.19267 0.60988 0.32134 0.0
H537 H 0.22416 0.6267 0.32045 0.0
H538 H 0.25551 0.6268 0.30951 0.0
H539 H 0.2749 0.61133 0.29059 0.0
Mn540 Mn 0.79238 0.87883 0.53752 0.0
Mn541 Mn 0.79762 0.9133 0.51071 0.0
C542 C 0.82159 0.89529 0.53502 0.0
C543 C 0.78742 0.86756 0.5665 0.0
C544 C 0.78722 0.87347 0.4948 0.0
O545 O 0.76692 0.88534 0.53412 0.0
O546 O 0.7738 0.9112 0.52065 0.0
C547 C 0.79839 0.94616 0.53661 0.0
N548 N 0.80654 0.93673 0.52418 0.0
C549 C 0.83076 0.96246 0.52404 0.0
C550 C 0.8226 0.97243 0.53685 0.0
C551 C 0.80636 0.96423 0.54318 0.0
C552 C 0.82208 0.94457 0.51783 0.0
H553 H 0.78583 0.93999 0.54131 0.0
C554 C 0.76299 0.89987 0.52848 0.0
O555 O 0.78361 0.85723 0.55078 0.0
O556 O 0.79373 0.88457 0.56544 0.0
N557 N 0.82044 0.91664 0.5007 0.0
C558 C 0.8273 0.90473 0.4895 0.0
C559 C 0.84408 0.91042 0.48289 0.0
C560 C 0.85356 0.92835 0.48768 0.0
C561 C 0.84625 0.94036 0.49922 0.0
C562 C 0.82953 0.93387 0.50552 0.0
H563 H 0.82013 0.89093 0.48577 0.0
O564 O 0.81938 0.87909 0.54008 0.0
O565 O 0.80674 0.90135 0.53152 0.0
O566 O 0.7893 0.86661 0.51009 0.0
O567 O 0.78865 0.89046 0.49434 0.0
C568 C 0.85509 0.95841 0.50507 0.0
C569 C 0.8473 0.96948 0.51738 0.0
H570 H 0.82872 0.98635 0.54198 0.0
H571 H 0.79994 0.97185 0.55302 0.0
H572 H 0.8497 0.90102 0.47412 0.0
H573 H 0.86655 0.93268 0.48261 0.0
H574 H 0.86802 0.96382 0.5004 0.0
H575 H 0.85431 0.98328 0.52192 0.0
Mn576 Mn 0.926 0.00888 0.25867 0.0
Mn577 Mn 0.8928 0.00605 0.28715 0.0
C578 C 0.90855 0.98052 0.26227 0.0
C579 C 0.93681 0.01349 0.22941 0.0
C580 C 0.93321 0.01533 0.30112 0.0
O581 O 0.9207 0.03472 0.26215 0.0
O582 O 0.89509 0.02932 0.27643 0.0
C583 C 0.85885 0.00585 0.26291 0.0
N584 N 0.86867 0.99758 0.27492 0.0
C585 C 0.84225 0.97504 0.27778 0.0
C586 C 0.83187 0.98329 0.26539 0.0
C587 C 0.84023 0.99873 0.25788 0.0
C588 C 0.86073 0.98276 0.2823 0.0
H589 H 0.86512 0.01794 0.25748 0.0
C590 C 0.90659 0.03943 0.26813 0.0
O591 O 0.94745 0.01695 0.24496 0.0
O592 O 0.9197 0.00745 0.23074 0.0
N593 N 0.88937 0.98378 0.298 0.0
C594 C 0.90151 0.97695 0.30901 0.0
C595 C 0.89557 0.96094 0.31683 0.0
C596 C 0.87716 0.95232 0.31354 0.0
C597 C 0.86494 0.95959 0.30212 0.0
C598 C 0.87174 0.97536 0.29439 0.0
H599 H 0.91562 0.98361 0.31177 0.0
O600 O 0.92446 0.9818 0.25639 0.0
O601 O 0.90333 0.99576 0.26581 0.0
O602 O 0.93911 0.01176 0.28559 0.0
O603 O 0.91643 0.01495 0.30248 0.0
C604 C 0.8463 0.95176 0.29802 0.0
C605 C 0.83496 0.9595 0.28589 0.0
H606 H 0.81748 0.97792 0.26157 0.0
H607 H 0.83229 0.00527 0.24842 0.0
H608 H 0.90512 0.95535 0.3255 0.0
H609 H 0.8726 0.94005 0.31973 0.0
H610 H 0.84056 0.93975 0.30406 0.0
H611 H 0.82066 0.95332 0.28281 0.0
Mn612 Mn 0.26527 0.63585 0.54727 0.0
Mn613 Mn 0.25351 0.60128 0.51314 0.0
C614 C 0.2358 0.622 0.54098 0.0
C615 C 0.27578 0.64691 0.57735 0.0
C616 C 0.26495 0.64055 0.50718 0.0
O617 O 0.28875 0.6284 0.54258 0.0
O618 O 0.27852 0.60168 0.52454 0.0
C619 C 0.2534 0.56838 0.53214 0.0
N620 N 0.24449 0.57836 0.52122 0.0
C621 C 0.21864 0.55379 0.51375 0.0
C622 C 0.22762 0.5432 0.5248 0.0
C623 C 0.24503 0.55057 0.53413 0.0
C624 C 0.22767 0.57144 0.5123 0.0
H625 H 0.26682 0.57395 0.53919 0.0
C626 C 0.29098 0.61334 0.53476 0.0
O627 O 0.27817 0.65706 0.56403 0.0
O628 O 0.2679 0.63002 0.57313 0.0
N629 N 0.22919 0.59962 0.50161 0.0
C630 C 0.22184 0.61211 0.49277 0.0
C631 C 0.20395 0.60733 0.4838 0.0
C632 C 0.19397 0.58967 0.4837 0.0
C633 C 0.20181 0.57707 0.49295 0.0
C634 C 0.2195 0.58276 0.50204 0.0
H635 H 0.22955 0.6256 0.49254 0.0
O636 O 0.24005 0.63828 0.54971 0.0
O637 O 0.24895 0.61425 0.53635 0.0
O638 O 0.2644 0.6474 0.52358 0.0
O639 O 0.26247 0.62363 0.50216 0.0
C640 C 0.19272 0.55914 0.49366 0.0
C641 C 0.20109 0.54753 0.50412 0.0
H642 H 0.22124 0.52943 0.52629 0.0
H643 H 0.25205 0.5425 0.54271 0.0
H644 H 0.19795 0.61717 0.47681 0.0
H645 H 0.18024 0.58598 0.47662 0.0
H646 H 0.17916 0.55422 0.48646 0.0
H647 H 0.19385 0.53387 0.5048 0.0
Mn648 Mn 0.42457 0.50898 0.75708 0.0
Mn649 Mn 0.39205 0.5063 0.78636 0.0
C650 C 0.4071 0.48069 0.7608 0.0
C651 C 0.43524 0.51371 0.72779 0.0
C652 C 0.4326 0.51502 0.79951 0.0
O653 O 0.41946 0.53489 0.76088 0.0
O654 O 0.39429 0.52968 0.77589 0.0
C655 C 0.35786 0.50651 0.76268 0.0
N656 N 0.36776 0.49807 0.77446 0.0
C657 C 0.34138 0.47545 0.77724 0.0
C658 C 0.33092 0.48386 0.7651 0.0
C659 C 0.33922 0.49943 0.75774 0.0
C660 C 0.35988 0.48314 0.78169 0.0
H661 H 0.36409 0.51869 0.75735 0.0
C662 C 0.40558 0.53971 0.76731 0.0
O663 O 0.44591 0.517 0.7433 0.0
O664 O 0.41811 0.50777 0.72915 0.0
N665 N 0.38863 0.48392 0.79702 0.0
C666 C 0.40082 0.47697 0.80783 0.0
C667 C 0.39492 0.46088 0.81553 0.0
C668 C 0.37651 0.45229 0.81231 0.0
C669 C 0.36423 0.45968 0.8011 0.0
C670 C 0.37097 0.47556 0.79352 0.0
H671 H 0.41495 0.48358 0.81052 0.0
O672 O 0.42284 0.48188 0.75456 0.0
O673 O 0.40202 0.49598 0.76457 0.0
O674 O 0.43803 0.51146 0.78375 0.0
O675 O 0.41597 0.51496 0.8014 0.0
C676 C 0.34559 0.45186 0.79704 0.0
C677 C 0.33416 0.45976 0.78517 0.0
H678 H 0.31651 0.47852 0.76135 0.0
H679 H 0.33121 0.50608 0.74847 0.0
H680 H 0.40452 0.4552 0.82405 0.0
H681 H 0.37198 0.43996 0.81841 0.0
H682 H 0.33991 0.43972 0.80291 0.0
H683 H 0.31986 0.45359 0.78211 0.0
Mn684 Mn 0.67221 0.04291 0.74956 0.0
Mn685 Mn 0.70671 0.05399 0.78419 0.0
C686 C 0.6858 0.07221 0.75714 0.0
C687 C 0.66168 0.03375 0.71904 0.0
C688 C 0.66718 0.04231 0.78994 0.0
O689 O 0.67993 0.0195 0.75302 0.0
O690 O 0.70594 0.02902 0.77265 0.0
C691 C 0.73948 0.05376 0.76481 0.0
N692 N 0.72972 0.06272 0.77594 0.0
C693 C 0.75459 0.08831 0.78303 0.0
C694 C 0.76495 0.0793 0.77174 0.0
C695 C 0.75731 0.06199 0.76249 0.0
C696 C 0.73688 0.07944 0.78477 0.0
H697 H 0.73372 0.04043 0.75784 0.0
C698 C 0.6946 0.01699 0.76158 0.0
O699 O 0.65122 0.03049 0.732 0.0
O700 O 0.67849 0.04184 0.72382 0.0
N701 N 0.7088 0.07817 0.79588 0.0
C702 C 0.69648 0.08558 0.80499 0.0
C703 C 0.70154 0.10334 0.814 0.0
C704 C 0.71931 0.11315 0.81384 0.0
C705 C 0.73172 0.10524 0.80433 0.0
C706 C 0.72575 0.08768 0.79523 0.0
H707 H 0.68291 0.078 0.8054 0.0
O708 O 0.66942 0.06812 0.74842 0.0
O709 O 0.69368 0.05902 0.7612 0.0
O710 O 0.66051 0.04217 0.77325 0.0
O711 O 0.6842 0.04548 0.79524 0.0
C712 C 0.74975 0.11414 0.80338 0.0
C713 C 0.76113 0.10573 0.79264 0.0
H714 H 0.77875 0.08555 0.77001 0.0
H715 H 0.76521 0.05495 0.75374 0.0
H716 H 0.69184 0.10939 0.8212 0.0
H717 H 0.72322 0.12678 0.82094 0.0
H718 H 0.75489 0.12759 0.81059 0.0
H719 H 0.77485 0.11284 0.79176 0.0
Mn720 Mn 0.76174 0.67431 0.01434 0.0
Mn721 Mn 0.75397 0.64069 0.97835 0.0
C722 C 0.73235 0.65739 0.00486 0.0
C723 C 0.7676 0.68634 0.04626 0.0
C724 C 0.76238 0.68047 0.97287 0.0
O725 O 0.78682 0.66759 0.0134 0.0
O726 O 0.77998 0.64523 0.98922 0.0
C727 C 0.76051 0.60898 0.99701 0.0
N728 N 0.74919 0.61717 0.98651 0.0
C729 C 0.72621 0.58986 0.98086 0.0
C730 C 0.73763 0.58114 0.9916 0.0
C731 C 0.75484 0.59076 0.99973 0.0
C732 C 0.73268 0.60797 0.97846 0.0
H733 H 0.77383 0.61624 0.0031 0.0
C734 C 0.79109 0.6552 0.00234 0.0
O735 O 0.77105 0.69624 0.03296 0.0
O736 O 0.76152 0.66917 0.04117 0.0
N737 N 0.72923 0.63499 0.9672 0.0
C738 C 0.71928 0.64586 0.95873 0.0
C739 C 0.70137 0.63865 0.9507 0.0
C740 C 0.69388 0.62034 0.95148 0.0
C741 C 0.70429 0.60949 0.96056 0.0
C742 C 0.72205 0.61746 0.96833 0.0
H743 H 0.72488 0.65996 0.95843 0.0
O744 O 0.73483 0.6739 0.01285 0.0
O745 O 0.74708 0.65157 1.00171 0.0
O746 O 0.76411 0.68664 0.99004 0.0
O747 O 0.75837 0.66364 0.96723 0.0
C748 C 0.69761 0.5912 0.96254 0.0
C749 C 0.70859 0.58136 0.97261 0.0
H750 H 0.7333 0.5671 0.99377 0.0
H751 H 0.76374 0.5841 0.008 0.0
H752 H 0.69335 0.64721 0.944 0.0
H753 H 0.68003 0.61483 0.94533 0.0
H754 H 0.68396 0.58462 0.95658 0.0
H755 H 0.70325 0.56734 0.97417 0.0
Mn756 Mn 0.88599 0.51501 0.79273 0.0
Mn757 Mn 0.85407 0.50436 0.82175 0.0
C758 C 0.87398 0.48565 0.79478 0.0
C759 C 0.89522 0.52263 0.76482 0.0
C760 C 0.89398 0.51766 0.83422 0.0
O761 O 0.87764 0.5383 0.79873 0.0
O762 O 0.85384 0.52885 0.81467 0.0
C763 C 0.8193 0.50334 0.79854 0.0
N764 N 0.8303 0.49485 0.80903 0.0
C765 C 0.80606 0.46906 0.80872 0.0
C766 C 0.79448 0.47756 0.7979 0.0
C767 C 0.80116 0.49475 0.79273 0.0
C768 C 0.824 0.4783 0.81409 0.0
H769 H 0.82426 0.51666 0.7949 0.0
C770 C 0.86404 0.54081 0.80702 0.0
O771 O 0.90603 0.5271 0.78023 0.0
O772 O 0.87859 0.51442 0.76571 0.0
N773 N 0.8531 0.48071 0.82932 0.0
C774 C 0.86617 0.47421 0.83939 0.0
C775 C 0.86193 0.45684 0.84504 0.0
C776 C 0.84425 0.44647 0.84054 0.0
C777 C 0.83102 0.45349 0.83022 0.0
C778 C 0.83612 0.47076 0.82474 0.0
H779 H 0.87971 0.48223 0.84312 0.0
O780 O 0.88963 0.48993 0.78855 0.0
O781 O 0.86555 0.49862 0.7993 0.0
O782 O 0.89924 0.51774 0.81825 0.0
O783 O 0.87741 0.51368 0.83707 0.0
C784 C 0.81297 0.44403 0.82518 0.0
C785 C 0.80048 0.45183 0.81448 0.0
H786 H 0.78045 0.47103 0.79352 0.0
H787 H 0.79229 0.50146 0.78447 0.0
H788 H 0.87222 0.45153 0.853 0.0
H789 H 0.84098 0.43314 0.84507 0.0
H790 H 0.80855 0.43072 0.82942 0.0
H791 H 0.78664 0.44443 0.81069 0.0
Mn792 Mn 0.79218 0.41865 0.50419 0.0
Mn793 Mn 0.8019 0.45109 0.47592 0.0
C794 C 0.82144 0.43169 0.50276 0.0
C795 C 0.78478 0.40835 0.53158 0.0
C796 C 0.78953 0.41147 0.46296 0.0
O797 O 0.76828 0.42614 0.49785 0.0
O798 O 0.77751 0.45116 0.48365 0.0
C799 C 0.8036 0.48539 0.49986 0.0
N800 N 0.81175 0.47461 0.48878 0.0
C801 C 0.83776 0.49862 0.48905 0.0
C802 C 0.82951 0.51004 0.50029 0.0
C803 C 0.8124 0.50337 0.50579 0.0
C804 C 0.82827 0.48088 0.48347 0.0
H805 H 0.79049 0.48033 0.50403 0.0
C806 C 0.76555 0.44027 0.49068 0.0
O807 O 0.78068 0.39804 0.51589 0.0
O808 O 0.79207 0.42531 0.53126 0.0
N809 N 0.8255 0.45204 0.46792 0.0
C810 C 0.83196 0.439 0.45784 0.0
C811 C 0.84943 0.44312 0.45221 0.0
C812 C 0.85995 0.46066 0.45672 0.0
C813 C 0.85299 0.47386 0.46706 0.0
C814 C 0.83563 0.46887 0.47257 0.0
H815 H 0.82388 0.42555 0.45414 0.0
O816 O 0.81767 0.41598 0.50881 0.0
O817 O 0.80803 0.43956 0.49817 0.0
O818 O 0.79053 0.4059 0.47873 0.0
O819 O 0.79214 0.42805 0.46032 0.0
C820 C 0.86263 0.49175 0.4722 0.0
C821 C 0.85501 0.50413 0.48316 0.0
H822 H 0.83623 0.52393 0.50483 0.0
H823 H 0.80594 0.51209 0.51447 0.0
H824 H 0.85471 0.43283 0.44428 0.0
H825 H 0.87337 0.46383 0.45225 0.0
H826 H 0.87597 0.4961 0.46789 0.0
H827 H 0.86261 0.51782 0.48712 0.0
Mn828 Mn 0.631 0.54132 0.28226 0.0
Mn829 Mn 0.66596 0.54757 0.3164 0.0
C830 C 0.64737 0.57087 0.29297 0.0
C831 C 0.61922 0.53579 0.25024 0.0
C832 C 0.62629 0.53584 0.32269 0.0
O833 O 0.63805 0.51612 0.28248 0.0
O834 O 0.66479 0.52412 0.30123 0.0
C835 C 0.69841 0.5505 0.29614 0.0
N836 N 0.68876 0.5579 0.30864 0.0
C837 C 0.71336 0.58345 0.31774 0.0
C838 C 0.72359 0.57605 0.305 0.0
C839 C 0.71603 0.55954 0.29409 0.0
C840 C 0.69582 0.57389 0.31906 0.0
H841 H 0.69277 0.5377 0.28796 0.0
C842 C 0.65314 0.51276 0.28976 0.0
O843 O 0.60915 0.53181 0.26334 0.0
O844 O 0.63631 0.54239 0.25566 0.0
N845 N 0.66842 0.57004 0.33187 0.0
C846 C 0.65701 0.57511 0.34393 0.0
C847 C 0.66253 0.59133 0.35588 0.0
C848 C 0.67983 0.60205 0.35552 0.0
C849 C 0.69141 0.59648 0.34315 0.0
C850 C 0.6851 0.58025 0.33144 0.0
H851 H 0.64385 0.56682 0.3446 0.0
O852 O 0.63098 0.56817 0.28439 0.0
O853 O 0.6534 0.55616 0.29514 0.0
O854 O 0.61932 0.53869 0.30679 0.0
O855 O 0.64339 0.53714 0.32672 0.0
C856 C 0.70904 0.60631 0.34208 0.0
C857 C 0.72001 0.5998 0.32939 0.0
H858 H 0.73727 0.58288 0.30355 0.0
H859 H 0.72386 0.55369 0.28428 0.0
H860 H 0.65355 0.59547 0.36547 0.0
H861 H 0.6841 0.61448 0.36487 0.0
H862 H 0.71432 0.61886 0.35102 0.0
H863 H 0.73357 0.60743 0.32878 0.0
Tb864 Tb 0.04814 0.03424 0.03365 0.0
C865 C 0.98905 0.97128 0.98992 0.0
N866 N 0.99831 0.98752 0.98605 0.0
C867 C 1.00151 0.97404 0.95554 0.0
C868 C 0.98614 0.9557 0.97682 0.0
C869 C 1.00388 0.98915 0.96881 0.0
C870 C 0.99278 0.95721 0.95962 0.0
C871 C 0.97118 0.95395 0.01065 0.0
C872 C 0.98163 0.97041 0.00673 0.0
C873 C 0.96877 0.93838 0.99784 0.0
C874 C 0.9762 0.93926 0.98098 0.0
Tb875 Tb 0.99969 0.01124 0.00856 0.0
N876 N 0.9838 0.9858 0.01873 0.0
C877 C 0.96283 0.95373 0.02701 0.0
C878 C 0.97434 0.98583 0.03394 0.0
C879 C 0.96423 0.9698 0.03856 0.0
H880 H 0.00921 1.00214 0.96465 0.0
H881 H 0.9571 0.96996 0.05079 0.0
H882 H 0.04452 0.04503 0.07882 0.0
H883 H 0.08898 0.06942 0.98636 0.0
H884 H 0.97396 0.99824 0.04241 0.0
H885 H 0.95468 0.94137 0.03045 0.0
H886 H 0.06983 0.04329 0.99709 0.0
H887 H 0.00599 0.9755 0.94196 0.0
H888 H 0.96076 0.92567 1.00064 0.0
H889 H 0.97382 0.9272 0.97105 0.0
H890 H 0.05441 0.0717 0.10221 0.0
H891 H 0.9907 0.94559 0.94917 0.0
H892 H 0.09792 0.09836 0.00695 0.0
N893 N 0.0556 0.0583 0.05666 0.0
C894 C 0.06612 0.07346 0.05198 0.0
C895 C 0.05758 0.07248 0.08807 0.0
C896 C 0.07242 0.0889 0.06508 0.0
C897 C 0.05176 0.05747 0.07466 0.0
C898 C 0.06782 0.08833 0.08322 0.0
N899 N 0.06614 0.05761 0.02251 0.0
C900 C 0.07281 0.056 0.00575 0.0
C901 C 0.08313 0.08826 0.02913 0.0
C902 C 0.07154 0.07311 0.03432 0.0
C903 C 0.08904 0.08702 0.01147 0.0
C904 C 0.08399 0.07074 0.9998 0.0
H905 H 0.07251 0.09986 0.09371 0.0
H906 H 0.08854 0.11618 0.06971 0.0
H907 H 0.09778 0.11566 0.03816 0.0
O908 O 0.07221 0.02522 0.02847 0.0
O909 O 0.03693 0.05286 0.01632 0.0
O910 O 0.00559 0.04199 0.01243 0.0
O911 O 0.06511 0.03004 0.05678 0.0
O912 O 0.04478 0.01836 0.00593 0.0
O913 O 0.01883 0.02418 0.99095 0.0
O914 O 0.9744 0.0169 0.01361 0.0
O915 O 0.0185 0.99248 0.01456 0.0
O916 O 0.03568 0.00737 0.04122 0.0
O917 O 0.97955 0.00828 0.98584 0.0
O918 O 1.00294 0.01394 0.03895 0.0
O919 O 0.025 0.03915 0.04859 0.0
C920 C 0.0201 0.05526 0.01234 0.0
C921 C 0.09351 0.02031 0.05388 0.0
C922 C 0.11861 0.00536 0.04932 0.0
C923 C 0.12428 0.00832 0.06849 0.0
C924 C 0.09925 0.02346 0.07309 0.0
C925 C 0.11467 0.01752 0.08033 0.0
C926 C 0.1034 0.01148 0.04202 0.0
C927 C 0.03564 0.02189 0.99078 0.0
C928 C 0.0768 0.02538 0.04625 0.0
C929 C 0.0836 0.10419 0.05985 0.0
C930 C 0.08888 0.10389 0.04189 0.0
C931 C 0.02891 0.99221 0.03022 0.0
C932 C 0.9567 0.0255 0.98876 0.0
C933 C 0.9348 0.04443 0.99406 0.0
C934 C 0.93287 0.04675 0.97512 0.0
C935 C 0.95463 0.0276 0.9697 0.0
C936 C 0.94655 0.03379 1.00079 0.0
C937 C 0.94273 0.03823 0.96295 0.0
C938 C 0.0108 0.02729 0.05159 0.0
C939 C 0.96781 0.01332 0.99612 0.0
H940 H 0.13615 0.0036 0.07421 0.0
H941 H 0.09178 0.03036 0.08249 0.0
H942 H 0.11907 0.0199 0.09513 0.0
H943 H 0.09904 0.00889 0.02717 0.0
H944 H 0.92362 0.05493 0.96979 0.0
H945 H 0.96196 0.02087 0.96002 0.0
H946 H 0.9477 0.03198 0.01546 0.0
H947 H 0.94105 0.03977 0.94827 0.0
Tb948 Tb 0.26864 0.77566 0.29495 0.0
C949 C 0.31208 0.74097 0.22668 0.0
N950 N 0.31819 0.75438 0.24092 0.0
C951 C 0.34513 0.74222 0.24733 0.0
C952 C 0.32185 0.72716 0.22274 0.0
C953 C 0.33487 0.75553 0.2508 0.0
C954 C 0.33848 0.72781 0.23343 0.0
C955 C 0.28917 0.72774 0.20085 0.0
C956 C 0.29605 0.74129 0.21584 0.0
C957 C 0.29847 0.71356 0.19727 0.0
C958 C 0.31481 0.7133 0.20817 0.0
Tb959 Tb 0.29902 0.77404 0.24667 0.0
N960 N 0.28722 0.75498 0.22006 0.0
C961 C 0.27327 0.72899 0.18982 0.0
C962 C 0.27259 0.75704 0.20841 0.0
C963 C 0.26516 0.74391 0.19339 0.0
H964 H 0.34052 0.76679 0.26128 0.0
H965 H 0.25325 0.74538 0.18453 0.0
H966 H 0.22818 0.78457 0.28254 0.0
H967 H 0.31525 0.80103 0.35784 0.0
H968 H 0.2666 0.76884 0.21038 0.0
H969 H 0.26747 0.71882 0.17821 0.0
H970 H 0.2999 0.77782 0.33258 0.0
H971 H 0.35821 0.74312 0.25536 0.0
H972 H 0.2933 0.7029 0.18595 0.0
H973 H 0.32201 0.70245 0.20507 0.0
H974 H 0.21191 0.80948 0.28884 0.0
H975 H 0.34644 0.7175 0.23083 0.0
H976 H 0.30444 0.82983 0.36316 0.0
N977 N 0.25118 0.79634 0.30217 0.0
C978 C 0.2586 0.81005 0.31562 0.0
C979 C 0.22512 0.80989 0.29641 0.0
C980 C 0.24991 0.82465 0.31965 0.0
C981 C 0.23442 0.7958 0.29284 0.0
C982 C 0.23301 0.82453 0.30969 0.0
N983 N 0.28181 0.79404 0.32181 0.0
C984 C 0.29547 0.79058 0.33397 0.0
C985 C 0.2826 0.82239 0.34051 0.0
C986 C 0.27468 0.80896 0.32572 0.0
C987 C 0.29787 0.81982 0.35169 0.0
C988 C 0.30403 0.80361 0.3487 0.0
H989 H 0.22582 0.83547 0.31238 0.0
H990 H 0.25192 0.85015 0.33681 0.0
H991 H 0.28062 0.84816 0.35516 0.0
O992 O 0.26857 0.75304 0.30936 0.0
O993 O 0.27585 0.80124 0.284 0.0
O994 O 0.29941 0.79252 0.27163 0.0
O995 O 0.24342 0.7596 0.29841 0.0
O996 O 0.29729 0.77183 0.30037 0.0
O997 O 0.31445 0.77292 0.27447 0.0
O998 O 0.29805 0.7953 0.23033 0.0
O999 O 0.28512 0.74701 0.25006 0.0
O1000 O 0.27866 0.76452 0.27201 0.0
O1001 O 0.32348 0.78773 0.23897 0.0
O1002 O 0.27022 0.77883 0.24236 0.0
O1003 O 0.25214 0.77332 0.2673 0.0
C1004 C 0.28878 0.80418 0.27326 0.0
C1005 C 0.24489 0.74852 0.32776 0.0
C1006 C 0.25012 0.73948 0.35858 0.0
C1007 C 0.23706 0.749 0.36464 0.0
C1008 C 0.23174 0.75796 0.33386 0.0
C1009 C 0.22777 0.75803 0.35222 0.0
C1010 C 0.2537 0.73894 0.3401 0.0
C1011 C 0.31243 0.77113 0.29236 0.0
C1012 C 0.25102 0.74984 0.30932 0.0
C1013 C 0.25823 0.83865 0.33364 0.0
C1014 C 0.27459 0.83754 0.34405 0.0
C1015 C 0.27702 0.7482 0.26462 0.0
C1016 C 0.32054 0.79869 0.20979 0.0
C1017 C 0.31541 0.80865 0.17936 0.0
C1018 C 0.33111 0.80281 0.17435 0.0
C1019 C 0.33631 0.79299 0.2047 0.0
C1020 C 0.3102 0.80659 0.19706 0.0
C1021 C 0.34151 0.79504 0.18702 0.0
C1022 C 0.25447 0.77689 0.2499 0.0
C1023 C 0.31536 0.79758 0.22862 0.0
H1024 H 0.23396 0.74927 0.37889 0.0
H1025 H 0.22479 0.76555 0.32461 0.0
H1026 H 0.21766 0.76532 0.35691 0.0
H1027 H 0.26392 0.73166 0.33553 0.0
H1028 H 0.33561 0.80473 0.16084 0.0
H1029 H 0.34474 0.78717 0.21441 0.0
H1030 H 0.29821 0.81134 0.20096 0.0
H1031 H 0.35376 0.79084 0.18322 0.0
Tb1032 Tb 0.5054 0.02761 0.53317 0.0
C1033 C 0.57366 0.06762 0.50061 0.0
N1034 N 0.56134 0.05209 0.49449 0.0
C1035 C 0.55982 0.06055 0.46343 0.0
C1036 C 0.57893 0.08058 0.48843 0.0
C1037 C 0.55515 0.04804 0.47596 0.0
C1038 C 0.57158 0.077 0.46972 0.0
C1039 C 0.59404 0.08638 0.52596 0.0
C1040 C 0.58126 0.07046 0.51916 0.0
C1041 C 0.59911 0.09941 0.5139 0.0
C1042 C 0.59158 0.09651 0.49521 0.0
Tb1043 Tb 0.55587 0.03274 0.51655 0.0
N1044 N 0.57583 0.05774 0.53059 0.0
C1045 C 0.60137 0.0887 0.54468 0.0
C1046 C 0.58331 0.05964 0.54866 0.0
C1047 C 0.59606 0.07522 0.55604 0.0
H1048 H 0.54713 0.03496 0.47048 0.0
H1049 H 0.60195 0.07673 0.57042 0.0
H1050 H 0.51295 0.02596 0.57962 0.0
H1051 H 0.45719 0.98474 0.48071 0.0
H1052 H 0.57987 0.04894 0.55721 0.0
H1053 H 0.61128 0.10073 0.55043 0.0
H1054 H 0.47977 0.01234 0.49372 0.0
H1055 H 0.55463 0.05733 0.44884 0.0
H1056 H 0.60892 0.11173 0.51888 0.0
H1057 H 0.59576 0.10662 0.48606 0.0
H1058 H 0.50686 1.00303 0.60097 0.0
H1059 H 0.5753 0.0866 0.45993 0.0
H1060 H 0.45018 0.95949 0.49983 0.0
N1061 N 0.50073 0.00808 0.55523 0.0
C1062 C 0.48958 0.99187 0.54883 0.0
C1063 C 0.50221 0.99959 0.58628 0.0
C1064 C 0.48486 0.97866 0.56089 0.0
C1065 C 0.50609 0.01245 0.57392 0.0
C1066 C 0.49179 0.98252 0.5797 0.0
N1067 N 0.4862 1.00215 0.51923 0.0
C1068 C 0.47705 1.00116 0.50188 0.0
C1069 C 0.46884 0.97311 0.5237 0.0
C1070 C 0.48169 0.98901 0.53042 0.0
C1071 C 0.4602 0.97147 0.50548 0.0
C1072 C 0.46415 0.98567 0.49461 0.0
H1073 H 0.48849 0.97272 0.58941 0.0
H1074 H 0.46904 0.95206 0.56307 0.0
H1075 H 0.45498 0.94725 0.53055 0.0
O1076 O 0.4864 0.0422 0.52174 0.0
O1077 O 0.51246 0.00397 0.51661 0.0
O1078 O 0.5431 0.00623 0.52465 0.0
O1079 O 0.48343 0.03128 0.54766 0.0
O1080 O 0.51388 0.04023 0.50924 0.0
O1081 O 0.53257 0.02393 0.49571 0.0
O1082 O 0.5825 0.0272 0.52239 0.0
O1083 O 0.546 0.05863 0.52423 0.0
O1084 O 0.52365 0.05352 0.54437 0.0
O1085 O 0.56619 0.01844 0.49539 0.0
O1086 O 0.5518 0.02325 0.54343 0.0
O1087 O 0.52837 0.03554 0.55488 0.0
C1088 C 0.52689 0.99638 0.51847 0.0
C1089 C 0.47 0.05651 0.54316 0.0
C1090 C 0.44676 0.07506 0.54177 0.0
C1091 C 0.4542 0.08401 0.55939 0.0
C1092 C 0.4774 0.06579 0.56069 0.0
C1093 C 0.46946 0.07942 0.56875 0.0
C1094 C 0.45467 0.06126 0.53366 0.0
C1095 C 0.51833 0.03148 0.49469 0.0
C1096 C 0.47676 0.04059 0.53559 0.0
C1097 C 0.47274 0.96238 0.55401 0.0
C1098 C 0.4647 0.95965 0.53549 0.0
C1099 C 0.53576 0.06457 0.53653 0.0
C1100 C 0.59623 0.01141 0.49803 0.0
C1101 C 0.62058 0.99425 0.50066 0.0
C1102 C 0.62314 0.99619 0.48204 0.0
C1103 C 0.59902 0.01314 0.47942 0.0
C1104 C 0.60721 1.00208 0.50878 0.0
C1105 C 0.61248 0.00565 0.47153 0.0
C1106 C 0.54364 0.02957 0.55701 0.0
C1107 C 0.58145 0.01892 0.50568 0.0
H1108 H 0.44809 0.09448 0.56595 0.0
H1109 H 0.48901 0.06221 0.56836 0.0
H1110 H 0.47502 0.0863 0.58241 0.0
H1111 H 0.44869 0.05401 0.52024 0.0
H1112 H 0.63332 0.99018 0.47557 0.0
H1113 H 0.59075 0.02028 0.47095 0.0
H1114 H 0.605 1.00043 0.52308 0.0
H1115 H 0.61451 0.00701 0.45716 0.0
Tb1116 Tb 0.30143 0.27064 0.77451 0.0
C1117 C 0.2328 0.29591 0.73637 0.0
N1118 N 0.24402 0.30308 0.75215 0.0
C1119 C 0.24527 0.33292 0.74302 0.0
C1120 C 0.22798 0.30694 0.72289 0.0
C1121 C 0.24947 0.32144 0.75607 0.0
C1122 C 0.23471 0.32562 0.72623 0.0
C1123 C 0.21375 0.26952 0.71794 0.0
C1124 C 0.22574 0.27744 0.73391 0.0
C1125 C 0.20925 0.28039 0.70427 0.0
C1126 C 0.21639 0.29905 0.70672 0.0
Tb1127 Tb 0.25077 0.28256 0.77157 0.0
N1128 N 0.23079 0.26723 0.74716 0.0
C1129 C 0.20663 0.25091 0.7162 0.0
C1130 C 0.22344 0.2492 0.74583 0.0
C1131 C 0.21136 0.24075 0.73031 0.0
H1132 H 0.25685 0.32744 0.76933 0.0
H1133 H 0.20562 0.22642 0.72929 0.0
H1134 H 0.2954 0.22624 0.78102 0.0
H1135 H 0.34835 0.32796 0.81208 0.0
H1136 H 0.22655 0.24134 0.75685 0.0
H1137 H 0.1973 0.24431 0.70418 0.0
H1138 H 0.3272 0.31107 0.78522 0.0
H1139 H 0.24998 0.34742 0.74604 0.0
H1140 H 0.20016 0.27453 0.69183 0.0
H1141 H 0.21265 0.30729 0.69615 0.0
H1142 H 0.30057 0.20874 0.80697 0.0
H1143 H 0.23139 0.33456 0.71619 0.0
H1144 H 0.35387 0.31313 0.84045 0.0
N1145 N 0.30611 0.252 0.7969 0.0
C1146 C 0.31634 0.26049 0.81288 0.0
C1147 C 0.30475 0.22334 0.80895 0.0
C1148 C 0.32045 0.25078 0.82783 0.0
C1149 C 0.30139 0.23347 0.79436 0.0
C1150 C 0.314 0.23206 0.82589 0.0
N1151 N 0.32013 0.28759 0.79884 0.0
C1152 C 0.32936 0.30473 0.7977 0.0
C1153 C 0.33599 0.28772 0.82926 0.0
C1154 C 0.32401 0.27874 0.81368 0.0
C1155 C 0.34454 0.30576 0.82877 0.0
C1156 C 0.34142 0.3142 0.8128 0.0
H1157 H 0.31687 0.22411 0.83705 0.0
H1158 H 0.33471 0.25268 0.85554 0.0
H1159 H 0.34832 0.28503 0.85677 0.0
O1160 O 0.31978 0.28036 0.75565 0.0
O1161 O 0.29413 0.28838 0.79737 0.0
O1162 O 0.26466 0.27522 0.79667 0.0
O1163 O 0.32408 0.25867 0.77121 0.0
O1164 O 0.29495 0.29324 0.76022 0.0
O1165 O 0.27447 0.30543 0.77628 0.0
O1166 O 0.22468 0.27481 0.77998 0.0
O1167 O 0.26147 0.27525 0.74462 0.0
O1168 O 0.2822 0.2567 0.75084 0.0
O1169 O 0.2413 0.30092 0.79013 0.0
O1170 O 0.25238 0.25578 0.78004 0.0
O1171 O 0.27847 0.24671 0.77039 0.0
C1172 C 0.2794 0.28529 0.80574 0.0
C1173 C 0.33811 0.26042 0.74355 0.0
C1174 C 0.36321 0.26032 0.72445 0.0
C1175 C 0.35535 0.24245 0.71705 0.0
C1176 C 0.33052 0.24258 0.73586 0.0
C1177 C 0.33909 0.2337 0.72266 0.0
C1178 C 0.35449 0.26934 0.7377 0.0
C1179 C 0.28918 0.30735 0.76752 0.0
C1180 C 0.33034 0.26905 0.75915 0.0
C1181 C 0.33155 0.2599 0.84386 0.0
C1182 C 0.33935 0.27831 0.84455 0.0
C1183 C 0.27145 0.2634 0.7391 0.0
C1184 C 0.20939 0.29679 0.79338 0.0
C1185 C 0.18186 0.29639 0.809 0.0
C1186 C 0.1783 0.31097 0.79966 0.0
C1187 C 0.2055 0.31131 0.78418 0.0
C1188 C 0.19747 0.28932 0.8058 0.0
C1189 C 0.19003 0.31835 0.78735 0.0
C1190 C 0.26201 0.24335 0.77603 0.0
C1191 C 0.2261 0.28965 0.79104 0.0
H1192 H 0.36191 0.23522 0.70699 0.0
H1193 H 0.31823 0.23534 0.74043 0.0
H1194 H 0.33326 0.21987 0.71697 0.0
H1195 H 0.36066 0.28301 0.74379 0.0
H1196 H 0.16648 0.31674 0.80201 0.0
H1197 H 0.21448 0.3173 0.7747 0.0
H1198 H 0.20046 0.27819 0.81312 0.0
H1199 H 0.18717 0.32966 0.78032 0.0
Tb1200 Tb 0.03607 0.0043 0.52248 0.0
C1201 C 0.00874 0.06864 0.56515 0.0
N1202 N 1.00064 0.05855 0.54901 0.0
C1203 C 0.97124 0.05828 0.55918 0.0
C1204 C 0.99835 0.07376 0.57911 0.0
C1205 C 0.98212 0.05367 0.54568 0.0
C1206 C 0.97939 0.06826 0.57603 0.0
C1207 C 0.03642 0.08524 0.58369 0.0
C1208 C 0.02755 0.07425 0.56746 0.0
C1209 C 0.02615 0.09016 0.59777 0.0
C1210 C 0.00717 0.08441 0.5955 0.0
Tb1211 Tb 0.01997 0.05198 0.52825 0.0
N1212 N 0.0371 0.06889 0.5537 0.0
C1213 C 0.0553 0.09122 0.58508 0.0
C1214 C 0.05525 0.07571 0.55443 0.0
C1215 C 0.06471 0.08665 0.57025 0.0
H1216 H 0.97573 0.0469 0.53233 0.0
H1217 H 0.07918 0.09183 0.57085 0.0
H1218 H 0.0804 0.01361 0.51704 0.0
H1219 H 0.97775 0.96326 0.47927 0.0
H1220 H 0.06235 0.07324 0.54268 0.0
H1221 H 0.06264 0.09979 0.59727 0.0
H1222 H 0.99364 0.98336 0.50682 0.0
H1223 H 0.95658 0.05439 0.55647 0.0
H1224 H 0.03273 0.09858 0.61037 0.0
H1225 H 0.99942 0.08847 0.6064 0.0
H1226 H 0.09975 0.006 0.49336 0.0
H1227 H 0.97091 0.07194 0.5864 0.0
H1228 H 0.99517 0.95382 0.4542 0.0
N1229 N 0.05571 0.99886 0.50151 0.0
C1230 C 0.04811 0.98745 0.48601 0.0
C1231 C 0.08522 1.00082 0.49104 0.0
C1232 C 0.0588 0.98239 0.4723 0.0
C1233 C 0.07409 0.00538 0.50431 0.0
C1234 C 0.07755 0.98931 0.47495 0.0
N1235 N 0.01956 0.98646 0.49717 0.0
C1236 C 1.0013 0.97991 0.49586 0.0
C1237 C 0.02103 0.96908 0.46795 0.0
C1238 C 0.02947 0.98086 0.48387 0.0
C1239 C 1.00218 0.96288 0.46623 0.0
C1240 C 0.99229 0.96825 0.4803 0.0
H1241 H 0.08624 0.98573 0.46475 0.0
H1242 H 0.05848 0.96652 0.44579 0.0
H1243 H 0.02541 0.95489 0.44197 0.0
O1244 O 0.02613 0.98146 0.53701 0.0
O1245 O 0.02796 0.01591 0.49657 0.0
O1246 O 0.00703 0.03369 0.50354 0.0
O1247 O 0.05368 0.98737 0.52963 0.0
O1248 O 0.01118 0.00624 0.5356 0.0
O1249 O 0.99756 0.02804 0.52284 0.0
O1250 O 0.03061 0.07268 0.51217 0.0
O1251 O 0.02727 0.03981 0.55404 0.0
O1252 O 0.0487 0.02292 0.54703 0.0
O1253 O 0.00551 0.07262 0.5237 0.0
O1254 O 0.04489 0.05017 0.51498 0.0
O1255 O 0.05764 0.02856 0.52871 0.0
C1256 C 0.01505 0.02477 0.49144 0.0
C1257 C 0.04713 0.96056 0.54521 0.0
C1258 C 0.04222 0.93422 0.56282 0.0
C1259 C 0.05937 0.93097 0.55926 0.0
C1260 C 0.06423 0.9567 0.54196 0.0
C1261 C 0.07025 0.94211 0.54894 0.0
C1262 C 0.03599 0.94915 0.55579 0.0
C1263 C 0.99657 0.01256 0.53018 0.0
C1264 C 0.04189 0.97663 0.53734 0.0
C1265 C 0.05047 0.97059 0.45645 0.0
C1266 C 0.03164 0.96396 0.45428 0.0
C1267 C 0.04045 0.03138 0.55916 0.0
C1268 C 0.00924 0.08817 0.4971 0.0
C1269 C 0.00973 0.11275 0.47725 0.0
C1270 C 0.99204 0.10463 0.46923 0.0
C1271 C 0.99163 0.08028 0.48857 0.0
C1272 C 0.0184 0.10441 0.4912 0.0
C1273 C 0.98315 0.08847 0.47474 0.0
C1274 C 0.05904 0.04309 0.51997 0.0
C1275 C 0.01702 0.08092 0.51368 0.0
H1276 H 0.06441 0.91972 0.5646 0.0
H1277 H 0.07314 0.96501 0.53396 0.0
H1278 H 0.08346 0.93944 0.54635 0.0
H1279 H 0.02282 0.95184 0.55856 0.0
H1280 H 0.98504 0.11089 0.45867 0.0
H1281 H 0.98417 0.06806 0.493 0.0
H1282 H 0.03185 0.11084 0.49787 0.0
H1283 H 0.96946 0.08243 0.46849 0.0
Tb1284 Tb 0.28076 0.80012 0.76366 0.0
C1285 C 0.24003 0.73471 0.80098 0.0
N1286 N 0.25616 0.74652 0.80629 0.0
C1287 C 0.24801 0.75082 0.83737 0.0
C1288 C 0.22695 0.73126 0.81352 0.0
C1289 C 0.26069 0.75353 0.82461 0.0
C1290 C 0.23094 0.73991 0.83173 0.0
C1291 C 0.22074 0.71238 0.77754 0.0
C1292 C 0.23692 0.72524 0.78319 0.0
C1293 C 0.2075 0.70939 0.78983 0.0
C1294 C 0.21058 0.71883 0.80774 0.0
Tb1295 Tb 0.27534 0.74899 0.7835 0.0
N1296 N 0.24975 0.72878 0.77133 0.0
C1297 C 0.21844 0.70277 0.75975 0.0
C1298 C 0.2479 0.71906 0.75422 0.0
C1299 C 0.23216 0.706 0.74812 0.0
H1300 H 0.27426 0.76069 0.82985 0.0
H1301 H 0.23059 0.69846 0.73445 0.0
H1302 H 0.2834 0.792 0.71761 0.0
H1303 H 0.3233 0.84658 0.81836 0.0
H1304 H 0.25855 0.72145 0.74534 0.0
H1305 H 0.20622 0.69272 0.75493 0.0
H1306 H 0.29606 0.82413 0.80471 0.0
H1307 H 0.25161 0.75678 0.8517 0.0
H1308 H 0.19493 0.69964 0.7857 0.0
H1309 H 0.20037 0.71611 0.81718 0.0
H1310 H 0.30527 0.8019 0.69604 0.0
H1311 H 0.22125 0.73761 0.84176 0.0
H1312 H 0.34711 0.85731 0.79857 0.0
N1313 N 0.29992 0.80681 0.74174 0.0
C1314 C 0.31501 0.81974 0.74812 0.0
C1315 C 0.30835 0.80674 0.71072 0.0
C1316 C 0.32772 0.82609 0.73605 0.0
C1317 C 0.29613 0.80079 0.72316 0.0
C1318 C 0.32431 0.81927 0.71721 0.0
N1319 N 0.30507 0.82077 0.77815 0.0
C1320 C 0.30667 0.82803 0.79626 0.0
C1321 C 0.33309 0.84037 0.77378 0.0
C1322 C 0.31756 0.82706 0.76677 0.0
C1323 C 0.3353 0.84717 0.79264 0.0
C1324 C 0.32195 0.84106 0.80388 0.0
H1325 H 0.33367 0.82394 0.70747 0.0
H1326 H 0.35317 0.84425 0.73396 0.0
H1327 H 0.35799 0.85651 0.767 0.0
O1328 O 0.27004 0.82321 0.77383 0.0
O1329 O 0.30696 0.79285 0.77535 0.0
O1330 O 0.3034 0.76507 0.78806 0.0
O1331 O 0.27019 0.81473 0.74426 0.0
O1332 O 0.26874 0.79007 0.78731 0.0
O1333 O 0.28387 0.77257 0.80352 0.0
O1334 O 0.28606 0.7257 0.77418 0.0
O1335 O 0.24989 0.75513 0.76857 0.0
O1336 O 0.25271 0.78467 0.76021 0.0
O1337 O 0.2836 0.73342 0.80337 0.0
O1338 O 0.28752 0.75763 0.75922 0.0
O1339 O 0.2741 0.77666 0.74283 0.0
C1340 C 0.31355 0.78022 0.78399 0.0
C1341 C 0.25631 0.84045 0.75047 0.0
C1342 C 0.24084 0.86583 0.75595 0.0
C1343 C 0.23737 0.86595 0.73665 0.0
C1344 C 0.25259 0.84102 0.73119 0.0
C1345 C 0.24319 0.85363 0.7244 0.0
C1346 C 0.25028 0.85295 0.76298 0.0
C1347 C 0.27829 0.78771 0.80235 0.0
C1348 C 0.26555 0.826 0.75667 0.0
C1349 C 0.34323 0.83929 0.74304 0.0
C1350 C 0.34595 0.84634 0.76185 0.0
C1351 C 0.24301 0.76856 0.76193 0.0
C1352 C 0.29562 0.70647 0.79767 0.0
C1353 C 0.3139 0.68317 0.79433 0.0
C1354 C 0.31119 0.67918 0.81243 0.0
C1355 C 0.293 0.70204 0.81572 0.0
C1356 C 0.30597 0.69677 0.78681 0.0
C1357 C 0.30072 0.6885 0.823 0.0
C1358 C 0.27862 0.76089 0.74405 0.0
C1359 C 0.28855 0.72208 0.79133 0.0
H1360 H 0.23006 0.87566 0.73104 0.0
H1361 H 0.25681 0.83157 0.72117 0.0
H1362 H 0.24038 0.85382 0.70954 0.0
H1363 H 0.25286 0.85268 0.77786 0.0
H1364 H 0.31729 0.66883 0.81842 0.0
H1365 H 0.28514 0.70924 0.82441 0.0
H1366 H 0.30833 0.70014 0.77298 0.0
H1367 H 0.29875 0.68536 0.83696 0.0
Tb1368 Tb 0.53084 0.04452 1.00021 0.0
C1369 C 0.56283 1.00179 0.06985 0.0
N1370 N 0.54972 0.99581 0.0552 0.0
C1371 C 0.56107 0.96834 0.05015 0.0
C1372 C 0.57603 0.99156 0.07476 0.0
C1373 C 0.54841 0.97908 0.04563 0.0
C1374 C 0.57505 0.97467 0.06463 0.0
C1375 C 0.57698 0.02551 0.09455 0.0
C1376 C 0.56319 0.01842 0.07975 0.0
C1377 C 0.59032 0.0155 0.09933 0.0
C1378 C 0.58981 0.99853 0.08949 0.0
Tb1379 Tb 0.53046 0.01505 0.04836 0.0
N1380 N 0.55056 0.02809 0.07408 0.0
C1381 C 0.57709 0.04257 0.10391 0.0
C1382 C 0.55018 0.0444 0.08376 0.0
C1383 C 0.56351 0.05194 0.0986 0.0
H1384 H 0.53748 0.97375 0.03466 0.0
H1385 H 0.56329 0.06502 0.10595 0.0
H1386 H 0.52401 0.0858 0.0113 0.0
H1387 H 0.49903 0.99308 0.94319 0.0
H1388 H 0.53974 0.05177 0.08026 0.0
H1389 H 0.58749 0.04854 0.11529 0.0
H1390 H 0.52348 0.00805 0.96718 0.0
H1391 H 0.56 0.95515 0.04245 0.0
H1392 H 0.60109 0.02077 0.11058 0.0
H1393 H 0.60018 0.99094 0.09335 0.0
H1394 H 0.50045 0.10348 0.00392 0.0
H1395 H 0.58491 0.96637 0.06799 0.0
H1396 H 0.47261 0.00727 0.93562 0.0
N1397 N 0.51127 0.06289 0.99218 0.0
C1398 C 0.49731 0.05578 0.97879 0.0
C1399 C 0.49933 0.09003 0.9968 0.0
C1400 C 0.48339 0.06527 0.97423 0.0
C1401 C 0.51266 0.07993 1.00099 0.0
C1402 C 0.48451 0.08259 0.98349 0.0
N1403 N 0.51082 0.03031 0.97479 0.0
C1404 C 0.51196 0.01437 0.96482 0.0
C1405 C 0.48274 0.03079 0.95581 0.0
C1406 C 0.497 0.03882 0.96983 0.0
C1407 C 0.4833 0.01393 0.94646 0.0
C1408 C 0.49815 0.00585 0.95076 0.0
H1409 H 0.4741 0.09036 0.98039 0.0
H1410 H 0.4579 0.06412 0.95709 0.0
H1411 H 0.45734 0.03387 0.9409 0.0
O1412 O 0.55173 0.04419 0.98348 0.0
O1413 O 0.50415 0.03653 0.00901 0.0
O1414 O 0.51328 0.01374 0.02222 0.0
O1415 O 0.54822 0.06928 0.99777 0.0
O1416 O 0.53893 0.01735 0.99643 0.0
O1417 O 0.53053 0.9992 0.02043 0.0
O1418 O 0.50985 0.01671 0.06558 0.0
O1419 O 0.55798 0.02932 0.04646 0.0
O1420 O 0.54116 0.03493 0.02368 0.0
O1421 O 0.51619 0.99103 0.05617 0.0
O1422 O 0.52271 0.04252 0.0509 0.0
O1423 O 0.53317 0.06109 0.0279 0.0
C1424 C 0.50104 0.02356 0.01956 0.0
C1425 C 0.55878 0.06992 0.96807 0.0
C1426 C 0.56561 0.06704 0.93606 0.0
C1427 C 0.56306 0.0848 0.93457 0.0
C1428 C 0.55643 0.08772 0.9665 0.0
C1429 C 0.55856 0.09508 0.94977 0.0
C1430 C 0.56354 0.05976 0.95283 0.0
C1431 C 0.53651 1.00163 0.00384 0.0
C1432 C 0.5567 0.06172 0.98543 0.0
C1433 C 0.46886 0.05715 0.96066 0.0
C1434 C 0.46853 0.03992 0.95147 0.0
C1435 C 0.5573 0.03728 0.03186 0.0
C1436 C 0.50532 0.99354 0.08539 0.0
C1437 C 0.49616 0.99823 0.1163 0.0
C1438 C 0.4992 0.98098 0.11964 0.0
C1439 C 0.50822 0.97628 0.0889 0.0
C1440 C 0.49928 0.00446 0.09917 0.0
C1441 C 0.50523 0.9701 0.10599 0.0
C1442 C 0.5267 0.05856 0.04422 0.0
C1443 C 0.5068 0.99938 0.06685 0.0
H1444 H 0.56495 0.09084 0.9218 0.0
H1445 H 0.55299 0.09593 0.97815 0.0
H1446 H 0.55683 0.10882 0.9486 0.0
H1447 H 0.56558 0.04607 0.95395 0.0
H1448 H 0.49634 0.97565 0.13258 0.0
H1449 H 0.51245 0.96739 0.07833 0.0
H1450 H 0.49661 0.01762 0.09646 0.0
H1451 H 0.50722 0.95671 0.10852 0.0
Tb1452 Tb 0.26542 0.25294 0.26007 0.0
C1453 C 0.32723 0.3152 0.30224 0.0
N1454 N 0.31153 0.30618 0.3075 0.0
C1455 C 0.32629 0.30729 0.33853 0.0
C1456 C 0.34314 0.3206 0.31498 0.0
C1457 C 0.31086 0.30228 0.32543 0.0
C1458 C 0.34252 0.31648 0.33329 0.0
C1459 C 0.3431 0.32926 0.27827 0.0
C1460 C 0.32719 0.31947 0.28412 0.0
C1461 C 0.35902 0.33448 0.29084 0.0
C1462 C 0.35902 0.33022 0.30917 0.0
Tb1463 Tb 0.28669 0.30091 0.28547 0.0
N1464 N 0.3114 0.31462 0.27245 0.0
C1465 C 0.34237 0.33402 0.26014 0.0
C1466 C 0.31038 0.32057 0.25532 0.0
C1467 C 0.32586 0.32982 0.24869 0.0
H1468 H 0.29824 0.29622 0.32999 0.0
H1469 H 0.3249 0.33425 0.23496 0.0
H1470 H 0.25519 0.25986 0.21552 0.0
H1471 H 0.22541 0.21854 0.30844 0.0
H1472 H 0.29761 0.3192 0.24707 0.0
H1473 H 0.35428 0.34154 0.25511 0.0
H1474 H 0.25267 0.23646 0.29874 0.0
H1475 H 0.32555 0.30438 0.35275 0.0
H1476 H 0.37132 0.34211 0.28662 0.0
H1477 H 0.37134 0.33458 0.31879 0.0
H1478 H 0.22854 0.25232 0.19212 0.0
H1479 H 0.35439 0.32056 0.34353 0.0
H1480 H 0.19744 0.20909 0.28624 0.0
N1481 N 0.24128 0.24891 0.23732 0.0
C1482 C 0.22554 0.23896 0.24163 0.0
C1483 C 0.22742 0.24874 0.20608 0.0
C1484 C 0.2101 0.23357 0.22827 0.0
C1485 C 0.24247 0.25351 0.21966 0.0
C1486 C 0.21115 0.23877 0.2104 0.0
N1487 N 0.24017 0.23923 0.27201 0.0
C1488 C 0.24047 0.23355 0.28928 0.0
C1489 C 0.20924 0.22272 0.26412 0.0
C1490 C 0.22509 0.23365 0.25938 0.0
C1491 C 0.20933 0.21748 0.28207 0.0
C1492 C 0.22503 0.2229 0.29468 0.0
H1493 H 0.19961 0.23482 0.19973 0.0
H1494 H 0.18233 0.21848 0.22289 0.0
H1495 H 0.18158 0.209 0.25426 0.0
O1496 O 0.27243 0.22858 0.26668 0.0
O1497 O 0.24495 0.26929 0.26812 0.0
O1498 O 0.25929 0.29026 0.29275 0.0
O1499 O 0.2626 0.23185 0.23858 0.0
O1500 O 0.28034 0.25453 0.28824 0.0
O1501 O 0.27629 0.28111 0.3036 0.0
O1502 O 0.27829 0.3247 0.27897 0.0
O1503 O 0.30669 0.28339 0.27947 0.0
O1504 O 0.29319 0.26402 0.25336 0.0
O1505 O 0.28764 0.32115 0.30763 0.0
O1506 O 0.27165 0.29873 0.25721 0.0
O1507 O 0.27654 0.27254 0.24197 0.0
C1508 C 0.24439 0.28134 0.28239 0.0
C1509 C 0.28213 0.21136 0.24236 0.0
C1510 C 0.2983 0.18713 0.24606 0.0
C1511 C 0.30387 0.18836 0.2283 0.0
C1512 C 0.2879 0.21292 0.22464 0.0
C1513 C 0.29881 0.20142 0.21769 0.0
C1514 C 0.28759 0.19861 0.25306 0.0
C1515 C 0.27922 0.26461 0.30376 0.0
C1516 C 0.26895 0.22131 0.24941 0.0
C1517 C 0.19427 0.22282 0.23301 0.0
C1518 C 0.19385 0.21739 0.25086 0.0
C1519 C 0.30785 0.27265 0.26441 0.0
C1520 C 0.27808 0.34919 0.30289 0.0
C1521 C 0.26272 0.37357 0.29691 0.0
C1522 C 0.26629 0.38048 0.31577 0.0
C1523 C 0.28194 0.35616 0.32178 0.0
C1524 C 0.26884 0.35821 0.29045 0.0
C1525 C 0.27614 0.37188 0.32815 0.0
C1526 C 0.27357 0.28904 0.24174 0.0
C1527 C 0.28125 0.33139 0.29646 0.0
H1528 H 0.31211 0.17929 0.22275 0.0
H1529 H 0.28371 0.22268 0.21604 0.0
H1530 H 0.3031 0.20244 0.20398 0.0
H1531 H 0.28293 0.19713 0.26661 0.0
H1532 H 0.26137 0.39239 0.32085 0.0
H1533 H 0.28893 0.3492 0.33166 0.0
H1534 H 0.26544 0.35275 0.27591 0.0
H1535 H 0.27887 0.37713 0.34273 0.0
Tb1536 Tb 0.53634 0.50204 0.02175 0.0
C1537 C 0.50742 0.56591 0.06306 0.0
N1538 N 0.49995 0.55416 0.04776 0.0
C1539 C 0.47108 0.54959 0.05985 0.0
C1540 C 0.4971 0.56958 0.07763 0.0
C1541 C 0.48181 0.5466 0.04566 0.0
C1542 C 0.4788 0.56095 0.07602 0.0
C1543 C 0.53356 0.58741 0.07912 0.0
C1544 C 0.52544 0.57454 0.06391 0.0
C1545 C 0.52345 0.59088 0.09385 0.0
C1546 C 0.5053 0.58191 0.09315 0.0
Tb1547 Tb 0.51924 0.54997 0.02592 0.0
N1548 N 0.53505 0.57017 0.04981 0.0
C1549 C 0.5516 0.5963 0.07903 0.0
C1550 C 0.55227 0.57942 0.04918 0.0
C1551 C 0.56092 0.59243 0.06389 0.0
H1552 H 0.47536 0.53874 0.03285 0.0
H1553 H 0.5747 0.59959 0.06344 0.0
H1554 H 0.57963 0.51206 0.01294 0.0
H1555 H 0.4774 0.45554 0.9856 0.0
H1556 H 0.55913 0.57718 0.03713 0.0
H1557 H 0.55835 0.60631 0.09043 0.0
H1558 H 0.49435 0.4778 0.011 0.0
H1559 H 0.45677 0.54336 0.05816 0.0
H1560 H 0.52952 0.60053 0.10579 0.0
H1561 H 0.49762 0.58481 0.10455 0.0
H1562 H 0.59753 0.50355 0.98821 0.0
H1563 H 0.47041 0.56336 0.08693 0.0
H1564 H 0.49314 0.44555 0.95933 0.0
N1565 N 0.55462 0.49571 0.99978 0.0
C1566 C 0.54642 0.4832 0.98533 0.0
C1567 C 0.58313 0.49784 0.98715 0.0
C1568 C 0.55628 0.47762 0.97108 0.0
C1569 C 0.57282 0.50287 1.00103 0.0
C1570 C 0.57482 0.48521 0.97208 0.0
N1571 N 0.51882 0.48214 0.99853 0.0
C1572 C 0.50106 0.47449 0.99923 0.0
C1573 C 0.51903 0.46285 0.97017 0.0
C1574 C 0.52799 0.476 0.98481 0.0
C1575 C 0.50052 0.45571 0.9703 0.0
C1576 C 0.49155 0.46143 0.98501 0.0
H1577 H 0.58288 0.48127 0.96141 0.0
H1578 H 0.55472 0.46019 0.94529 0.0
H1579 H 0.52213 0.44719 0.94454 0.0
O1580 O 0.52756 0.47996 0.03759 0.0
O1581 O 0.52879 0.51258 0.99497 0.0
O1582 O 0.50803 0.53052 1.00147 0.0
O1583 O 0.55485 0.48609 0.02951 0.0
O1584 O 0.51173 0.50462 0.03507 0.0
O1585 O 0.49838 0.52501 0.01992 0.0
O1586 O 0.52734 0.57196 0.00979 0.0
O1587 O 0.52878 0.54013 0.05251 0.0
O1588 O 0.54867 0.52107 0.04596 0.0
O1589 O 0.50044 0.5659 0.01882 0.0
O1590 O 0.54496 0.54909 0.01392 0.0
O1591 O 0.55774 0.52672 0.02686 0.0
C1592 C 0.51666 0.5222 0.98953 0.0
C1593 C 0.54934 0.4603 0.04697 0.0
C1594 C 0.54528 0.43508 0.06624 0.0
C1595 C 0.56292 0.43265 0.06363 0.0
C1596 C 0.56693 0.45726 0.04477 0.0
C1597 C 0.57359 0.4436 0.05298 0.0
C1598 C 0.53832 0.44895 0.05775 0.0
C1599 C 0.49721 0.51051 0.02877 0.0
C1600 C 0.54353 0.47559 0.038 0.0
C1601 C 0.54736 0.46465 0.95637 0.0
C1602 C 0.5288 0.45725 0.95594 0.0
C1603 C 0.5408 0.53032 0.0578 0.0
C1604 C 0.50528 0.59146 1.00095 0.0
C1605 C 0.50955 0.61749 0.98283 0.0
C1606 C 0.49146 0.61899 0.98431 0.0
C1607 C 0.48721 0.59355 0.00211 0.0
C1608 C 0.51658 0.60363 0.99121 0.0
C1609 C 0.48042 0.60714 0.99387 0.0
C1610 C 0.55904 0.54184 0.01896 0.0
C1611 C 0.51141 0.57634 0.00993 0.0
H1612 H 0.56848 0.42212 0.0699 0.0
H1613 H 0.57576 0.46554 0.03665 0.0
H1614 H 0.58717 0.44153 0.05112 0.0
H1615 H 0.52475 0.45101 0.05972 0.0
H1616 H 0.48582 0.62945 0.97799 0.0
H1617 H 0.47814 0.58458 0.00939 0.0
H1618 H 0.53054 0.60234 0.99012 0.0
H1619 H 0.46648 0.60848 0.99487 0.0
Tb1620 Tb 0.78184 0.30076 0.2642 0.0
C1621 C 0.74115 0.23455 0.29796 0.0
N1622 N 0.75689 0.24665 0.30423 0.0
C1623 C 0.74697 0.24982 0.33466 0.0
C1624 C 0.72741 0.23034 0.30966 0.0
C1625 C 0.76034 0.25331 0.32272 0.0
C1626 C 0.73032 0.23854 0.32804 0.0
C1627 C 0.72355 0.21204 0.27356 0.0
C1628 C 0.73923 0.22531 0.28013 0.0
C1629 C 0.70962 0.20839 0.28496 0.0
C1630 C 0.71154 0.2175 0.30295 0.0
Tb1631 Tb 0.7776 0.24977 0.28294 0.0
N1632 N 0.75288 0.22917 0.2693 0.0
C1633 C 0.7225 0.2026 0.25583 0.0
C1634 C 0.75234 0.21942 0.25239 0.0
C1635 C 0.73703 0.20621 0.24526 0.0
H1636 H 0.77356 0.26072 0.32881 0.0
H1637 H 0.73649 0.19872 0.23171 0.0
H1638 H 0.78532 0.2908 0.21824 0.0
H1639 H 0.82406 0.34878 0.31783 0.0
H1640 H 0.76374 0.22185 0.24446 0.0
H1641 H 0.71067 0.1923 0.2503 0.0
H1642 H 0.79686 0.32591 0.30464 0.0
H1643 H 0.74975 0.25543 0.34915 0.0
H1644 H 0.69744 0.19829 0.28013 0.0
H1645 H 0.70086 0.21419 0.31174 0.0
H1646 H 0.80821 0.29867 0.19722 0.0
H1647 H 0.72013 0.2356 0.33746 0.0
H1648 H 0.84831 0.35833 0.29812 0.0
N1649 N 0.80151 0.3062 0.24237 0.0
C1650 C 0.81668 0.31913 0.24857 0.0
C1651 C 0.81091 0.30427 0.2117 0.0
C1652 C 0.82992 0.32446 0.23665 0.0
C1653 C 0.79808 0.29948 0.22394 0.0
C1654 C 0.82699 0.31662 0.21813 0.0
N1655 N 0.80615 0.3217 0.27829 0.0
C1656 C 0.80761 0.32951 0.2962 0.0
C1657 C 0.83459 0.3405 0.27378 0.0
C1658 C 0.81895 0.32729 0.26694 0.0
C1659 C 0.83648 0.34813 0.29235 0.0
C1660 C 0.82288 0.3427 0.30357 0.0
H1661 H 0.83683 0.32038 0.20855 0.0
H1662 H 0.85584 0.34178 0.23451 0.0
H1663 H 0.85999 0.35568 0.26698 0.0
O1664 O 0.77367 0.32578 0.27188 0.0
O1665 O 0.80835 0.29392 0.27565 0.0
O1666 O 0.80525 0.26666 0.28932 0.0
O1667 O 0.76803 0.31206 0.24347 0.0
O1668 O 0.77082 0.29161 0.28867 0.0
O1669 O 0.78552 0.27291 0.30384 0.0
O1670 O 0.79018 0.22771 0.27369 0.0
O1671 O 0.75348 0.25536 0.26511 0.0
O1672 O 0.75528 0.28621 0.27105 0.0
O1673 O 0.78461 0.23317 0.30232 0.0
O1674 O 0.79054 0.25965 0.25955 0.0
O1675 O 0.77482 0.2773 0.24355 0.0
C1676 C 0.81514 0.28182 0.28495 0.0
C1677 C 0.75789 0.34055 0.24814 0.0
C1678 C 0.74261 0.36623 0.2529 0.0
C1679 C 0.74216 0.36797 0.23382 0.0
C1680 C 0.75714 0.34267 0.22911 0.0
C1681 C 0.74933 0.35626 0.22204 0.0
C1682 C 0.7505 0.35241 0.26014 0.0
C1683 C 0.78049 0.28843 0.30328 0.0
C1684 C 0.76657 0.32597 0.25485 0.0
C1685 C 0.84553 0.3376 0.24347 0.0
C1686 C 0.84786 0.34557 0.26196 0.0
C1687 C 0.7459 0.26983 0.26456 0.0
C1688 C 0.79857 0.20745 0.29667 0.0
C1689 C 0.81661 0.18399 0.29284 0.0
C1690 C 0.81403 0.17984 0.31091 0.0
C1691 C 0.79612 0.20288 0.31472 0.0
C1692 C 0.80877 0.19778 0.28558 0.0
C1693 C 0.8038 0.18919 0.32173 0.0
C1694 C 0.78154 0.26262 0.24435 0.0
C1695 C 0.7912 0.22298 0.29048 0.0
H1696 H 0.73614 0.37845 0.228 0.0
H1697 H 0.76275 0.33386 0.21961 0.0
H1698 H 0.74888 0.35776 0.20736 0.0
H1699 H 0.75096 0.35098 0.27486 0.0
H1700 H 0.82007 0.16934 0.31668 0.0
H1701 H 0.7884 0.21003 0.32361 0.0
H1702 H 0.81098 0.20121 0.27174 0.0
H1703 H 0.80194 0.18594 0.33569 0.0
Tb1704 Tb 0.03129 0.54108 0.50199 0.0
C1705 C 0.06487 0.49927 0.57226 0.0
N1706 N 0.05149 0.49282 0.55799 0.0
C1707 C 0.06251 0.46506 0.554 0.0
C1708 C 0.07802 0.48909 0.57753 0.0
C1709 C 0.0499 0.47575 0.54917 0.0
C1710 C 0.07676 0.47183 0.5681 0.0
C1711 C 0.0795 0.52377 0.59592 0.0
C1712 C 0.06552 0.51628 0.58141 0.0
C1713 C 0.09278 0.5138 0.60107 0.0
C1714 C 0.09202 0.49649 0.59192 0.0
Tb1715 Tb 0.03229 0.51185 0.55027 0.0
N1716 N 0.05288 0.52582 0.57541 0.0
C1717 C 0.07985 0.54112 0.60464 0.0
C1718 C 0.05278 0.54246 0.58453 0.0
C1719 C 0.0663 0.55041 0.59905 0.0
H1720 H 0.03867 0.47013 0.53871 0.0
H1721 H 0.06624 0.56372 0.60593 0.0
H1722 H 0.02755 0.58351 0.51227 0.0
H1723 H 0.99331 0.48829 0.44904 0.0
H1724 H 0.04238 0.54981 0.58094 0.0
H1725 H 0.0904 0.54739 0.6158 0.0
H1726 H 0.01859 0.50204 0.47239 0.0
H1727 H 0.06118 0.45158 0.54686 0.0
H1728 H 0.10369 0.51938 0.6121 0.0
H1729 H 0.10233 0.48893 0.59606 0.0
H1730 H 0.00593 0.60308 0.50429 0.0
H1731 H 0.08658 0.46357 0.57174 0.0
H1732 H 0.96945 0.50528 0.44007 0.0
N1733 N 0.01315 0.56075 0.49387 0.0
C1734 C 0.99881 0.55421 0.48074 0.0
C1735 C 1.0037 0.58932 0.4976 0.0
C1736 C 0.98599 0.56485 0.47579 0.0
C1737 C 0.01591 0.57815 0.50216 0.0
C1738 C 0.98857 0.5826 0.48446 0.0
N1739 N 0.0096 0.52701 0.47779 0.0
C1740 C 0.00852 0.50988 0.46918 0.0
C1741 C 0.98205 0.52923 0.45883 0.0
C1742 C 0.99693 0.53672 0.47241 0.0
C1743 C 0.98067 0.51154 0.45052 0.0
C1744 C 0.99408 0.50191 0.45559 0.0
H1745 H 0.97905 0.59123 0.48105 0.0
H1746 H 0.96094 0.56531 0.4586 0.0
H1747 H 0.95746 0.53405 0.44374 0.0
O1748 O 0.05102 0.53963 0.48398 0.0
O1749 O 1.00489 0.5326 0.51096 0.0
O1750 O 0.01464 0.5101 0.52432 0.0
O1751 O 0.04966 0.56506 0.49925 0.0
O1752 O 0.03927 0.51402 0.4979 0.0
O1753 O 0.03321 0.49594 0.52257 0.0
O1754 O 0.01204 0.51361 0.56791 0.0
O1755 O 0.05975 0.52529 0.54712 0.0
O1756 O 0.0421 0.5321 0.52564 0.0
O1757 O 0.01804 0.48783 0.55825 0.0
O1758 O 0.02406 0.53916 0.55288 0.0
O1759 O 0.03369 0.55774 0.5296 0.0
C1760 C 1.00222 0.51978 0.52177 0.0
C1761 C 0.05921 0.56558 0.46913 0.0
C1762 C 0.0662 0.56322 0.43722 0.0
C1763 C 0.06363 0.581 0.43596 0.0
C1764 C 0.05681 0.58341 0.46784 0.0
C1765 C 0.05904 0.59105 0.45127 0.0
C1766 C 0.06411 0.55568 0.45383 0.0
C1767 C 0.03797 0.49841 0.50546 0.0
C1768 C 0.05709 0.55705 0.48628 0.0
C1769 C 0.97102 0.55741 0.46247 0.0
C1770 C 0.96905 0.53962 0.45402 0.0
C1771 C 0.05853 0.53368 0.53284 0.0
C1772 C 0.00894 0.4912 0.58829 0.0
C1773 C 0.99718 0.49402 0.61803 0.0
C1774 C 0.00733 0.4816 0.62443 0.0
C1775 C 0.01906 0.47869 0.59471 0.0
C1776 C 0.99792 0.49869 0.59998 0.0
C1777 C 0.01816 0.4739 0.61273 0.0
C1778 C 0.02758 0.55519 0.54608 0.0
C1779 C 0.00917 0.49633 0.56939 0.0
H1780 H 0.06554 0.58721 0.42329 0.0
H1781 H 0.05327 0.59143 0.47956 0.0
H1782 H 0.05727 0.60481 0.4503 0.0
H1783 H 0.06618 0.54197 0.45477 0.0
H1784 H 0.0066 0.47767 0.63832 0.0
H1785 H 0.02757 0.47257 0.58587 0.0
H1786 H 0.98991 0.5082 0.59505 0.0
H1787 H 0.02582 0.46415 0.61759 0.0
Tb1788 Tb 0.8015 0.7705 0.27466 0.0
C1789 C 0.73392 0.79487 0.23472 0.0
N1790 N 0.74473 0.80251 0.25063 0.0
C1791 C 0.74618 0.83195 0.24043 0.0
C1792 C 0.72945 0.80545 0.22066 0.0
C1793 C 0.75009 0.82091 0.25404 0.0
C1794 C 0.73604 0.82416 0.22355 0.0
C1795 C 0.71566 0.76794 0.21645 0.0
C1796 C 0.72708 0.77635 0.23263 0.0
C1797 C 0.71145 0.77838 0.20226 0.0
C1798 C 0.71837 0.79707 0.20434 0.0
Tb1799 Tb 0.75119 0.78267 0.27094 0.0
N1800 N 0.73185 0.76656 0.24641 0.0
C1801 C 0.70879 0.7493 0.21504 0.0
C1802 C 0.72478 0.74848 0.24535 0.0
C1803 C 0.71323 0.73958 0.22963 0.0
H1804 H 0.75719 0.82726 0.2673 0.0
H1805 H 0.70771 0.72522 0.22882 0.0
H1806 H 0.7952 0.72607 0.28086 0.0
H1807 H 0.84832 0.82751 0.31289 0.0
H1808 H 0.7277 0.7409 0.25667 0.0
H1809 H 0.69989 0.74235 0.20286 0.0
H1810 H 0.82742 0.8108 0.28578 0.0
H1811 H 0.75084 0.84648 0.24305 0.0
H1812 H 0.70278 0.77214 0.18966 0.0
H1813 H 0.71488 0.80497 0.19334 0.0
H1814 H 0.8 0.70835 0.30672 0.0
H1815 H 0.73299 0.83276 0.21306 0.0
H1816 H 0.85336 0.81252 0.34125 0.0
N1817 N 0.80586 0.75171 0.29697 0.0
C1818 C 0.8159 0.76009 0.31308 0.0
C1819 C 0.80422 0.72294 0.30883 0.0
C1820 C 0.81981 0.75026 0.32799 0.0
C1821 C 0.80108 0.7332 0.29428 0.0
C1822 C 0.81332 0.73154 0.32588 0.0
N1823 N 0.82 0.78727 0.29923 0.0
C1824 C 0.82936 0.80439 0.29825 0.0
C1825 C 0.83546 0.78721 0.32979 0.0
C1826 C 0.82362 0.77834 0.31407 0.0
C1827 C 0.84412 0.80523 0.32946 0.0
C1828 C 0.84129 0.81377 0.31349 0.0
H1829 H 0.81603 0.72349 0.337 0.0
H1830 H 0.83378 0.75194 0.3558 0.0
H1831 H 0.8475 0.7843 0.35735 0.0
O1832 O 0.81992 0.7802 0.25589 0.0
O1833 O 0.794 0.78835 0.29736 0.0
O1834 O 0.76437 0.77554 0.2966 0.0
O1835 O 0.82424 0.75861 0.27159 0.0
O1836 O 0.79551 0.79328 0.26035 0.0
O1837 O 0.7748 0.8056 0.27591 0.0
O1838 O 0.72443 0.77568 0.2782 0.0
O1839 O 0.76271 0.77566 0.24441 0.0
O1840 O 0.78249 0.75633 0.25094 0.0
O1841 O 0.74185 0.80129 0.28918 0.0
O1842 O 0.75277 0.75627 0.28048 0.0
O1843 O 0.77836 0.74671 0.2703 0.0
C1844 C 0.77925 0.78533 0.30574 0.0
C1845 C 0.8383 0.76028 0.24394 0.0
C1846 C 0.86346 0.76006 0.22494 0.0
C1847 C 0.8555 0.74225 0.21747 0.0
C1848 C 0.83051 0.74254 0.23606 0.0
C1849 C 0.83912 0.7336 0.22294 0.0
C1850 C 0.85478 0.7691 0.23823 0.0
C1851 C 0.78972 0.80744 0.2675 0.0
C1852 C 0.83051 0.76895 0.2595 0.0
C1853 C 0.83076 0.75926 0.34416 0.0
C1854 C 0.83862 0.77768 0.34503 0.0
C1855 C 0.77194 0.76309 0.23908 0.0
C1856 C 0.71016 0.79796 0.29346 0.0
C1857 C 0.6835 0.79723 0.3105 0.0
C1858 C 0.68151 0.81392 0.30455 0.0
C1859 C 0.7078 0.81458 0.28761 0.0
C1860 C 0.69785 0.78923 0.30485 0.0
C1861 C 0.69351 0.82246 0.29312 0.0
C1862 C 0.76206 0.74359 0.2763 0.0
C1863 C 0.72632 0.79038 0.28962 0.0
H1864 H 0.86204 0.73499 0.20741 0.0
H1865 H 0.81802 0.73545 0.24038 0.0
H1866 H 0.83319 0.71982 0.21714 0.0
H1867 H 0.86102 0.78273 0.24438 0.0
H1868 H 0.67071 0.82044 0.30891 0.0
H1869 H 0.71719 0.82161 0.27909 0.0
H1870 H 0.69977 0.77655 0.30976 0.0
H1871 H 0.69188 0.8354 0.28876 0.0
Tb1872 Tb 0.76897 0.2748 0.79518 0.0
C1873 C 0.81278 0.24137 0.72797 0.0
N1874 N 0.81839 0.25462 0.74247 0.0
C1875 C 0.84496 0.24223 0.75001 0.0
C1876 C 0.82256 0.22748 0.72449 0.0
C1877 C 0.83465 0.25559 0.75304 0.0
C1878 C 0.83875 0.22795 0.73587 0.0
C1879 C 0.79059 0.22831 0.70148 0.0
C1880 C 0.79713 0.24183 0.71656 0.0
C1881 C 0.79992 0.21407 0.6983 0.0
C1882 C 0.81591 0.21369 0.70975 0.0
Tb1883 Tb 0.79924 0.27448 0.74732 0.0
N1884 N 0.78817 0.25546 0.72054 0.0
C1885 C 0.77494 0.22959 0.69005 0.0
C1886 C 0.7738 0.25757 0.70856 0.0
C1887 C 0.76673 0.24449 0.6934 0.0
H1888 H 0.83998 0.26676 0.76366 0.0
H1889 H 0.755 0.24596 0.68426 0.0
H1890 H 0.72758 0.28215 0.78491 0.0
H1891 H 0.82235 0.30646 0.85082 0.0
H1892 H 0.76778 0.26936 0.71047 0.0
H1893 H 0.76939 0.21944 0.67836 0.0
H1894 H 0.8064 0.28198 0.82755 0.0
H1895 H 0.85773 0.243 0.75856 0.0
H1896 H 0.795 0.20343 0.68691 0.0
H1897 H 0.8231 0.20277 0.707 0.0
H1898 H 0.71006 0.30554 0.79329 0.0
H1899 H 0.84672 0.21757 0.73364 0.0
H1900 H 0.80852 0.33293 0.85877 0.0
N1901 N 0.75096 0.29448 0.80382 0.0
C1902 C 0.75852 0.30835 0.81708 0.0
C1903 C 0.72371 0.30653 0.80008 0.0
C1904 C 0.74915 0.3222 0.8221 0.0
C1905 C 0.7337 0.29328 0.79538 0.0
C1906 C 0.73152 0.32115 0.81339 0.0
N1907 N 0.78411 0.29479 0.82024 0.0
C1908 C 0.80031 0.29358 0.82985 0.0
C1909 C 0.7843 0.32282 0.83932 0.0
C1910 C 0.7758 0.30862 0.82548 0.0
C1911 C 0.80148 0.32226 0.84811 0.0
C1912 C 0.80936 0.3074 0.84359 0.0
H1913 H 0.72382 0.33151 0.81687 0.0
H1914 H 0.75081 0.34752 0.83945 0.0
H1915 H 0.78166 0.34808 0.85455 0.0
O1916 O 0.76912 0.25342 0.81116 0.0
O1917 O 0.77653 0.30102 0.78564 0.0
O1918 O 0.79957 0.29197 0.77289 0.0
O1919 O 0.74382 0.25838 0.79851 0.0
O1920 O 0.79581 0.26602 0.79884 0.0
O1921 O 0.8145 0.27583 0.77582 0.0
O1922 O 0.79839 0.296 0.73128 0.0
O1923 O 0.78538 0.24711 0.74995 0.0
O1924 O 0.77819 0.26422 0.77157 0.0
O1925 O 0.82368 0.28792 0.73947 0.0
O1926 O 0.77036 0.27928 0.74275 0.0
O1927 O 0.75229 0.27342 0.7677 0.0
C1928 C 0.78929 0.30388 0.77477 0.0
C1929 C 0.74478 0.24878 0.82866 0.0
C1930 C 0.74993 0.24194 0.86045 0.0
C1931 C 0.73486 0.24931 0.86482 0.0
C1932 C 0.72965 0.25603 0.83306 0.0
C1933 C 0.7247 0.2562 0.8511 0.0
C1934 C 0.75462 0.24151 0.84235 0.0
C1935 C 0.81182 0.26901 0.79194 0.0
C1936 C 0.7515 0.2496 0.81045 0.0
C1937 C 0.7577 0.33663 0.83552 0.0
C1938 C 0.77527 0.33696 0.84409 0.0
C1939 C 0.77668 0.24801 0.76407 0.0
C1940 C 0.82115 0.3001 0.71095 0.0
C1941 C 0.81625 0.31073 0.68084 0.0
C1942 C 0.83262 0.30613 0.67622 0.0
C1943 C 0.83761 0.29568 0.70627 0.0
C1944 C 0.81059 0.30776 0.6982 0.0
C1945 C 0.84326 0.29867 0.68894 0.0
C1946 C 0.75459 0.2773 0.75035 0.0
C1947 C 0.81571 0.29823 0.72959 0.0
H1948 H 0.73076 0.24941 0.87869 0.0
H1949 H 0.72181 0.26175 0.82271 0.0
H1950 H 0.71302 0.26175 0.85449 0.0
H1951 H 0.76633 0.23588 0.83903 0.0
H1952 H 0.83739 0.30876 0.66297 0.0
H1953 H 0.84626 0.29018 0.71607 0.0
H1954 H 0.7981 0.31166 0.7018 0.0
H1955 H 0.85603 0.29546 0.68546 0.0
Tb1956 Tb 0.76811 0.7555 0.76304 0.0
C1957 C 0.83012 0.81685 0.80478 0.0
N1958 N 0.81456 0.80642 0.809 0.0
C1959 C 0.82904 0.80526 0.83969 0.0
C1960 C 0.84581 0.82165 0.81789 0.0
C1961 C 0.81375 0.80104 0.8264 0.0
C1962 C 0.84515 0.81557 0.83542 0.0
C1963 C 0.84624 0.83378 0.78254 0.0
C1964 C 0.83029 0.823 0.78728 0.0
C1965 C 0.86178 0.83862 0.79565 0.0
C1966 C 0.86155 0.8326 0.81325 0.0
Tb1967 Tb 0.79011 0.80457 0.78717 0.0
N1968 N 0.81509 0.81792 0.77471 0.0
C1969 C 0.84621 0.83909 0.76463 0.0
C1970 C 0.81493 0.82345 0.75738 0.0
C1971 C 0.83051 0.83384 0.75199 0.0
H1972 H 0.80115 0.79456 0.83073 0.0
H1973 H 0.83026 0.83815 0.73821 0.0
H1974 H 0.75751 0.76162 0.71816 0.0
H1975 H 0.72986 0.71747 0.80988 0.0
H1976 H 0.80273 0.8207 0.74792 0.0
H1977 H 0.85821 0.84729 0.76044 0.0
H1978 H 0.75712 0.73547 0.79967 0.0
H1979 H 0.82822 0.80104 0.85345 0.0
H1980 H 0.87409 0.84696 0.79226 0.0
H1981 H 0.87366 0.83651 0.82322 0.0
H1982 H 0.73042 0.75538 0.69546 0.0
H1983 H 0.85688 0.81907 0.84589 0.0
H1984 H 0.70088 0.71031 0.78899 0.0
N1985 N 0.74365 0.75203 0.74059 0.0
C1986 C 0.72783 0.74235 0.74511 0.0
C1987 C 0.72938 0.752 0.7095 0.0
C1988 C 0.71209 0.73748 0.73205 0.0
C1989 C 0.74473 0.75614 0.72275 0.0
C1990 C 0.71294 0.74279 0.71421 0.0
N1991 N 0.74325 0.7407 0.77458 0.0
C1992 C 0.74431 0.73356 0.79109 0.0
C1993 C 0.71199 0.72518 0.76731 0.0
C1994 C 0.72774 0.73617 0.76248 0.0
C1995 C 0.71269 0.71879 0.78476 0.0
C1996 C 0.72897 0.72289 0.79665 0.0
H1997 H 0.70119 0.73922 0.70377 0.0
H1998 H 0.68408 0.72298 0.72706 0.0
H1999 H 0.68397 0.71229 0.75796 0.0
O2000 O 0.77772 0.73258 0.77043 0.0
O2001 O 0.74849 0.76903 0.77744 0.0
O2002 O 0.75995 0.79984 0.7853 0.0
O2003 O 0.76396 0.73294 0.74303 0.0
O2004 O 0.7841 0.75944 0.79065 0.0
O2005 O 0.77787 0.78528 0.8051 0.0
O2006 O 0.79083 0.83205 0.7846 0.0
O2007 O 0.80983 0.78702 0.77907 0.0
O2008 O 0.79539 0.76554 0.75477 0.0
O2009 O 0.79033 0.8221 0.8113 0.0
O2010 O 0.77531 0.80319 0.75917 0.0
O2011 O 0.77757 0.7755 0.74436 0.0
C2012 C 0.74642 0.78556 0.78336 0.0
C2013 C 0.78539 0.71423 0.7458 0.0
C2014 C 0.80253 0.69061 0.74831 0.0
C2015 C 0.80752 0.69237 0.73041 0.0
C2016 C 0.79045 0.71628 0.72787 0.0
C2017 C 0.80159 0.70537 0.72027 0.0
C2018 C 0.79162 0.70151 0.75597 0.0
C2019 C 0.78029 0.76863 0.80547 0.0
C2020 C 0.7725 0.72387 0.75389 0.0
C2021 C 0.69625 0.72686 0.73694 0.0
C2022 C 0.6962 0.72072 0.75451 0.0
C2023 C 0.81041 0.77492 0.76473 0.0
C2024 C 0.7772 0.84741 0.80752 0.0
C2025 C 0.75688 0.86743 0.79946 0.0
C2026 C 0.75351 0.8699 0.81808 0.0
C2027 C 0.77398 0.85013 0.82621 0.0
C2028 C 0.76875 0.8563 0.79421 0.0
C2029 C 0.76213 0.86131 0.83143 0.0
C2030 C 0.77563 0.79239 0.74393 0.0
C2031 C 0.79005 0.83604 0.80228 0.0
H2032 H 0.81585 0.68367 0.72435 0.0
H2033 H 0.78569 0.72608 0.71972 0.0
H2034 H 0.8054 0.70679 0.70643 0.0
H2035 H 0.78748 0.69966 0.76968 0.0
H2036 H 0.7445 0.87874 0.82233 0.0
H2037 H 0.7807 0.8437 0.8368 0.0
H2038 H 0.77131 0.85462 0.77978 0.0
H2039 H 0.75973 0.86342 0.84583 0.0
Tb2040 Tb 0.54981 0.53583 0.53411 0.0
C2041 C 0.49069 0.4718 0.48973 0.0
N2042 N 0.49978 0.48815 0.48594 0.0
C2043 C 0.5027 0.47506 0.45521 0.0
C2044 C 0.48767 0.45637 0.47644 0.0
C2045 C 0.50512 0.49004 0.46866 0.0
C2046 C 0.49411 0.45812 0.45917 0.0
C2047 C 0.47286 0.45424 0.51033 0.0
C2048 C 0.48338 0.47072 0.50658 0.0
C2049 C 0.47036 0.43879 0.49734 0.0
C2050 C 0.47774 0.43985 0.48046 0.0
Tb2051 Tb 0.50154 0.5115 0.50892 0.0
N2052 N 0.48565 0.48599 0.51876 0.0
C2053 C 0.46451 0.4539 0.5267 0.0
C2054 C 0.47623 0.48594 0.53398 0.0
C2055 C 0.466 0.46989 0.53843 0.0
H2056 H 0.51039 0.50313 0.46468 0.0
H2057 H 0.45888 0.46997 0.55067 0.0
H2058 H 0.5449 0.54643 0.5791 0.0
H2059 H 0.5884 0.57279 0.48622 0.0
H2060 H 0.47602 0.49833 0.54257 0.0
H2061 H 0.45628 0.44153 0.53001 0.0
H2062 H 0.56958 0.54625 0.49649 0.0
H2063 H 0.50703 0.4767 0.4416 0.0
H2064 H 0.46232 0.42605 0.50002 0.0
H2065 H 0.47528 0.4279 0.47038 0.0
H2066 H 0.55439 0.57302 0.60257 0.0
H2067 H 0.49196 0.44661 0.44857 0.0
H2068 H 0.59784 0.60115 0.50762 0.0
N2069 N 0.55592 0.55991 0.55703 0.0
C2070 C 0.56652 0.57512 0.55248 0.0
C2071 C 0.55763 0.57391 0.58847 0.0
C2072 C 0.57271 0.59049 0.56572 0.0
C2073 C 0.55194 0.55897 0.57498 0.0
C2074 C 0.56794 0.58979 0.58379 0.0
N2075 N 0.56644 0.55979 0.52256 0.0
C2076 C 0.57266 0.55873 0.50551 0.0
C2077 C 0.58349 0.59037 0.52979 0.0
C2078 C 0.57203 0.57502 0.53478 0.0
C2079 C 0.58907 0.58964 0.51197 0.0
C2080 C 0.58371 0.5737 0.49982 0.0
H2081 H 0.57256 0.60126 0.59436 0.0
H2082 H 0.58884 0.61774 0.57071 0.0
H2083 H 0.5981 0.6177 0.53922 0.0
O2084 O 0.57596 0.53152 0.53023 0.0
O2085 O 0.5378 0.55447 0.51758 0.0
O2086 O 0.50682 0.54205 0.51067 0.0
O2087 O 0.56707 0.53297 0.5575 0.0
O2088 O 0.54709 0.51946 0.50668 0.0
O2089 O 0.52082 0.52448 0.49143 0.0
O2090 O 0.47718 0.51875 0.51524 0.0
O2091 O 0.52055 0.49304 0.51517 0.0
O2092 O 0.53917 0.50815 0.5412 0.0
O2093 O 0.48002 0.50735 0.48747 0.0
O2094 O 0.5056 0.51352 0.53926 0.0
O2095 O 0.52617 0.53977 0.54864 0.0
C2096 C 0.52094 0.55596 0.51215 0.0
C2097 C 0.58961 0.51591 0.5525 0.0
C2098 C 0.61187 0.49791 0.54542 0.0
C2099 C 0.61017 0.49023 0.5621 0.0
C2100 C 0.58811 0.50844 0.56943 0.0
C2101 C 0.59828 0.49553 0.57409 0.0
C2102 C 0.6017 0.51068 0.54065 0.0
C2103 C 0.53769 0.52231 0.49135 0.0
C2104 C 0.58014 0.53039 0.54784 0.0
C2105 C 0.58395 0.60585 0.56072 0.0
C2106 C 0.58927 0.60581 0.54279 0.0
C2107 C 0.5314 0.49292 0.5306 0.0
C2108 C 0.45816 0.52577 0.4904 0.0
C2109 C 0.43564 0.5441 0.49504 0.0
C2110 C 0.43412 0.54652 0.47612 0.0
C2111 C 0.45656 0.528 0.47135 0.0
C2112 C 0.44749 0.53371 0.50209 0.0
C2113 C 0.44453 0.53836 0.46428 0.0
C2114 C 0.51259 0.52724 0.55175 0.0
C2115 C 0.46939 0.51388 0.49819 0.0
H2116 H 0.61834 0.48051 0.56598 0.0
H2117 H 0.57924 0.51265 0.57911 0.0
H2118 H 0.59715 0.48985 0.58713 0.0
H2119 H 0.60352 0.51679 0.52787 0.0
H2120 H 0.42482 0.55456 0.47058 0.0
H2121 H 0.46437 0.5216 0.46192 0.0
H2122 H 0.44833 0.53181 0.51674 0.0
H2123 H 0.44322 0.54001 0.44962 0.0
Tb2124 Tb 1.00466 0.52733 0.03252 0.0
C2125 C 0.07347 0.5663 1.00063 0.0
N2126 N 0.06123 0.55071 0.99458 0.0
C2127 C 0.06002 0.55871 0.96336 0.0
C2128 C 0.07886 0.57907 0.98832 0.0
C2129 C 0.05521 0.54638 0.97603 0.0
C2130 C 0.07172 0.57523 0.96955 0.0
C2131 C 0.09335 0.5855 0.02605 0.0
C2132 C 0.08076 0.56944 0.01928 0.0
C2133 C 0.09857 0.59834 0.01384 0.0
C2134 C 0.09135 0.59513 0.99505 0.0
Tb2135 Tb 0.05525 0.53184 0.01692 0.0
N2136 N 0.07511 0.55694 0.03087 0.0
C2137 C 0.10025 0.58819 0.0449 0.0
C2138 C 0.08213 0.55923 0.04911 0.0
C2139 C 0.09469 0.57496 0.05645 0.0
H2140 H 0.04704 0.53329 0.97072 0.0
H2141 H 0.10021 0.57679 0.07097 0.0
H2142 H 0.01123 0.52585 0.07897 0.0
H2143 H 0.95767 0.48395 0.97938 0.0
H2144 H 0.07838 0.54879 0.05789 0.0
H2145 H 0.10999 0.60035 0.05064 0.0
H2146 H 0.9795 0.51199 0.99288 0.0
H2147 H 0.05493 0.55533 0.94876 0.0
H2148 H 0.10822 0.61078 0.01879 0.0
H2149 H 0.09561 0.60512 0.98579 0.0
H2150 H 0.00511 0.50286 0.10032 0.0
H2151 H 0.07552 0.5847 0.95966 0.0
H2152 H 0.95098 0.45845 0.99827 0.0
N2153 N 0.99964 0.50781 0.05453 0.0
C2154 C 0.98887 0.49144 0.04799 0.0
C2155 C 1.00075 0.49935 0.08558 0.0
C2156 C 0.98418 0.47816 0.05997 0.0
C2157 C 1.00463 0.51226 0.07326 0.0
C2158 C 0.99073 0.48213 0.07888 0.0
N2159 N 0.98576 0.50175 0.0184 0.0
C2160 C 0.97684 0.50071 1.00094 0.0
C2161 C 0.96893 0.47237 0.0225 0.0
C2162 C 0.98132 0.48849 0.02947 0.0
C2163 C 0.96064 0.47062 0.00413 0.0
C2164 C 0.9644 0.48497 0.9934 0.0
H2165 H 0.98745 0.47229 0.08854 0.0
H2166 H 0.96883 0.45129 0.06187 0.0
H2167 H 0.95546 0.44625 0.02909 0.0
O2168 O 0.98612 0.5426 0.02147 0.0
O2169 O 0.01189 0.50373 0.01606 0.0
O2170 O 0.04221 0.50552 0.02526 0.0
O2171 O 0.98236 0.53061 0.04668 0.0
O2172 O 0.01208 0.53974 0.00801 0.0
O2173 O 0.03186 0.52315 0.99637 0.0
O2174 O 0.08197 0.52633 0.02251 0.0
O2175 O 0.04515 0.55786 0.02343 0.0
O2176 O 0.02336 0.55284 0.04399 0.0
O2177 O 0.065 0.51674 0.996 0.0
O2178 O 0.05139 0.52293 0.04401 0.0
O2179 O 0.02752 0.5352 0.05446 0.0
C2180 C 0.026 0.49582 0.0188 0.0
C2181 C 0.96996 0.55659 0.04334 0.0
C2182 C 0.94649 0.57492 0.04435 0.0
C2183 C 0.95531 0.58392 0.06154 0.0
C2184 C 0.97858 0.56586 0.06047 0.0
C2185 C 0.97132 0.57952 0.06943 0.0
C2186 C 0.95403 0.56136 0.03514 0.0
C2187 C 0.01874 0.53208 0.99416 0.0
C2188 C 0.97617 0.54061 0.03506 0.0
C2189 C 0.9725 0.46168 0.05288 0.0
C2190 C 0.96485 0.45882 0.03421 0.0
C2191 C 0.03507 0.56393 0.03579 0.0
C2192 C 0.09495 0.50962 0.99809 0.0
C2193 C 0.12038 0.49381 1.00085 0.0
C2194 C 0.12227 0.49517 0.98198 0.0
C2195 C 0.09704 0.51067 0.97922 0.0
C2196 C 0.10665 0.50107 0.00895 0.0
C2197 C 0.11063 0.50349 0.97125 0.0
C2198 C 0.04229 0.52847 0.05718 0.0
C2199 C 0.08043 0.51739 0.00604 0.0
H2200 H 0.94976 0.59439 0.06889 0.0
H2201 H 0.99061 0.56217 0.06718 0.0
H2202 H 0.97792 0.58649 0.08272 0.0
H2203 H 0.94711 0.55404 0.02208 0.0
H2204 H 0.13271 0.48961 0.9755 0.0
H2205 H 0.08819 0.51716 0.97064 0.0
H2206 H 0.1051 0.50008 0.0235 0.0
H2207 H 0.11216 0.50439 0.9567 0.0
C2208 C 1.00394 0.21218 0.97435 0.0
C2209 C 1.00443 0.21509 0.95547 0.0
C2210 C 0.00531 0.19517 0.98055 0.0
C2211 C 0.02087 0.15114 0.96726 0.0
H2212 H 0.99297 0.13304 0.00594 0.0
C2213 C 0.03265 0.08554 1.00072 0.0
C2214 C 0.01776 0.07354 0.00607 0.0
C2215 C 0.0309 0.10248 0.99474 0.0
C2216 C 1.00086 0.1377 0.99504 0.0
H2217 H 0.00712 0.20174 0.9285 0.0
H2218 H 0.00998 0.17254 0.93921 0.0
H2219 H 0.9903 0.16232 0.99542 0.0
H2220 H 0.98912 0.07084 0.00919 0.0
H2221 H 0.98609 0.10033 0.9991 0.0
H2222 H 0.03146 0.12659 0.96686 0.0
C2223 C 0.00836 0.18337 0.94936 0.0
C2224 C 0.99946 0.15479 0.98907 0.0
C2225 C 0.00659 0.20026 0.94311 0.0
C2226 C 1.00099 0.07944 0.00525 0.0
C2227 C 0.99929 0.09658 0.9995 0.0
C2228 C 0.02246 0.13418 0.9734 0.0
C2229 C 0.00766 0.18033 0.96823 0.0
C2230 C 0.00936 0.16193 0.97494 0.0
C2231 C 0.01419 0.10851 0.99397 0.0
C2232 C 0.01244 0.12695 0.9874 0.0
H2233 H 1.00227 0.22306 0.98442 0.0
H2234 H 1.00483 0.19378 0.99518 0.0
H2235 H 0.02897 0.1559 0.95654 0.0
H2236 H 0.04584 0.08179 1.00095 0.0
H2237 H 0.04288 0.11099 0.99093 0.0
C2238 C 0.11957 0.78276 0.13616 0.0
C2239 C 0.10772 0.79369 0.14258 0.0
C2240 C 0.13541 0.78107 0.14745 0.0
C2241 C 0.15886 0.79251 0.19772 0.0
H2242 H 0.19818 0.77504 0.176 0.0
C2243 C 0.2286 0.79289 0.24169 0.0
C2244 C 0.23773 0.77862 0.23768 0.0
C2245 C 0.2129 0.79465 0.23027 0.0
C2246 C 0.18731 0.77981 0.18243 0.0
H2247 H 0.10388 0.81188 0.16602 0.0
H2248 H 0.13165 0.81006 0.18501 0.0
H2249 H 0.17178 0.77883 0.15599 0.0
H2250 H 0.23674 0.75445 0.2189 0.0
H2251 H 0.20971 0.75757 0.19881 0.0
H2252 H 0.17485 0.79393 0.22416 0.0
C2253 C 0.12861 0.80198 0.1716 0.0
C2254 C 0.17187 0.78196 0.17081 0.0
C2255 C 0.1126 0.80333 0.16047 0.0
C2256 C 0.23049 0.76596 0.22207 0.0
C2257 C 0.21485 0.76775 0.21056 0.0
C2258 C 0.17443 0.79064 0.20928 0.0
C2259 C 0.14031 0.79053 0.16558 0.0
C2260 C 0.15717 0.78835 0.17813 0.0
C2261 C 0.20574 0.78217 0.21438 0.0
C2262 C 0.18898 0.78421 0.2019 0.0
H2263 H 0.11621 0.77486 0.12262 0.0
H2264 H 0.14345 0.77182 0.14198 0.0
H2265 H 0.14803 0.79698 0.20444 0.0
H2266 H 0.2338 0.80292 0.25356 0.0
H2267 H 0.20658 0.80606 0.23375 0.0
C2268 C 0.50942 0.83867 0.44404 0.0
C2269 C 0.51045 0.82374 0.45418 0.0
C2270 C 0.51095 0.85628 0.45276 0.0
C2271 C 0.527 0.88764 0.49677 0.0
H2272 H 0.49811 0.91725 0.47135 0.0
C2273 C 0.53929 0.96702 0.5164 0.0
C2274 C 0.5249 0.97623 0.51272 0.0
C2275 C 0.53731 0.94823 0.5108 0.0
C2276 C 0.5062 0.90939 0.47901 0.0
H2277 H 0.51426 0.81662 0.48225 0.0
H2278 H 0.51719 0.84782 0.4977 0.0
H2279 H 0.4944 0.88553 0.46044 0.0
H2280 H 0.49732 0.97231 0.49945 0.0
H2281 H 0.49331 0.94004 0.491 0.0
H2282 H 0.53842 0.91157 0.51573 0.0
C2283 C 0.51508 0.84551 0.48266 0.0
C2284 C 0.50425 0.89093 0.47243 0.0
C2285 C 0.51333 0.8275 0.47378 0.0
C2286 C 0.50855 0.96589 0.50316 0.0
C2287 C 0.50643 0.94714 0.49785 0.0
C2288 C 0.52888 0.90621 0.5035 0.0
C2289 C 0.51366 0.86023 0.47222 0.0
C2290 C 0.51481 0.87966 0.48089 0.0
C2291 C 0.5208 0.93779 0.50134 0.0
C2292 C 0.51862 0.9176 0.49465 0.0
H2293 H 0.50719 0.83687 0.42898 0.0
H2294 H 0.51018 0.86695 0.44397 0.0
H2295 H 0.53547 0.87965 0.50378 0.0
H2296 H 0.55223 0.97435 0.52356 0.0
H2297 H 0.54895 0.94201 0.51363 0.0
C2298 C 0.4871 0.29055 0.62882 0.0
C2299 C 0.50383 0.28626 0.63527 0.0
C2300 C 0.47319 0.29043 0.64033 0.0
C2301 C 0.45623 0.26979 0.6809 0.0
H2302 H 0.42579 0.30583 0.68112 0.0
C2303 C 0.39716 0.26522 0.72642 0.0
C2304 C 0.38073 0.26885 0.71833 0.0
C2305 C 0.41326 0.26985 0.71823 0.0
C2306 C 0.43402 0.29553 0.68114 0.0
H2307 H 0.51901 0.27856 0.65906 0.0
H2308 H 0.49464 0.27809 0.67909 0.0
H2309 H 0.4516 0.30885 0.66297 0.0
H2310 H 0.36825 0.28057 0.69571 0.0
H2311 H 0.3962 0.28858 0.68124 0.0
H2312 H 0.43845 0.25612 0.69852 0.0
C2313 C 0.49232 0.28165 0.6651 0.0
C2314 C 0.44889 0.2973 0.67072 0.0
C2315 C 0.50636 0.28206 0.65367 0.0
C2316 C 0.38082 0.27789 0.70236 0.0
C2317 C 0.3969 0.28246 0.69409 0.0
C2318 C 0.44131 0.26794 0.69119 0.0
C2319 C 0.47548 0.28572 0.65855 0.0
C2320 C 0.46014 0.28439 0.67036 0.0
C2321 C 0.41328 0.27802 0.70158 0.0
C2322 C 0.42988 0.28072 0.69142 0.0
H2323 H 0.48468 0.29389 0.61475 0.0
H2324 H 0.4604 0.2935 0.63474 0.0
H2325 H 0.46437 0.25941 0.68073 0.0
H2326 H 0.39739 0.25809 0.73865 0.0
H2327 H 0.42561 0.26656 0.7247 0.0
C2328 C 0.02831 0.82191 0.6715 0.0
C2329 C 0.02188 0.80363 0.6643 0.0
C2330 C 0.02828 0.83579 0.66013 0.0
C2331 C 0.00827 0.8473 0.61497 0.0
H2332 H 0.04938 0.88761 0.62424 0.0
C2333 C 0.02314 0.9042 0.56609 0.0
C2334 C 0.03187 0.92163 0.57428 0.0
C2335 C 0.01929 0.88992 0.57703 0.0
C2336 C 0.03761 0.87665 0.62161 0.0
H2337 H 0.01018 0.78584 0.63919 0.0
H2338 H 0.01021 0.81022 0.61919 0.0
H2339 H 0.04861 0.86226 0.64241 0.0
H2340 H 0.04273 0.93791 0.6004 0.0
H2341 H 0.03553 0.91328 0.61958 0.0
H2342 H 0.99747 0.86175 0.59387 0.0
C2343 C 0.01518 0.81373 0.6338 0.0
C2344 C 0.03719 0.862 0.63206 0.0
C2345 C 0.01527 0.79972 0.64526 0.0
C2346 C 0.03558 0.92475 0.59375 0.0
C2347 C 0.03178 0.9105 0.60468 0.0
C2348 C 0.00872 0.86201 0.60442 0.0
C2349 C 0.02185 0.83199 0.64107 0.0
C2350 C 0.02244 0.84716 0.62908 0.0
C2351 C 0.02429 0.8927 0.59642 0.0
C2352 C 0.02333 0.87701 0.60773 0.0
H2353 H 0.03353 0.82561 0.68605 0.0
H2354 H 0.03321 0.84962 0.66641 0.0
H2355 H 0.99661 0.83621 0.61232 0.0
H2356 H 0.02063 0.9013 0.55108 0.0
H2357 H 0.01362 0.87646 0.5701 0.0
C2358 C 0.47525 0.8043 0.8555 0.0
C2359 C 0.48913 0.80199 0.84431 0.0
C2360 C 0.4569 0.80186 0.8479 0.0
C2361 C 0.42554 0.80198 0.80528 0.0
H2362 H 0.38998 0.77334 0.83112 0.0
C2363 C 0.34672 0.79719 0.78487 0.0
C2364 C 0.33395 0.78283 0.78985 0.0
C2365 C 0.36561 0.79934 0.79059 0.0
C2366 C 0.39944 0.78124 0.82335 0.0
H2367 H 0.49367 0.79373 0.81614 0.0
H2368 H 0.46191 0.7912 0.80249 0.0
H2369 H 0.4221 0.77707 0.84167 0.0
H2370 H 0.33195 0.75896 0.80446 0.0
H2371 H 0.36416 0.76201 0.81342 0.0
H2372 H 0.40306 0.80604 0.78677 0.0
C2373 C 0.4654 0.79506 0.81732 0.0
C2374 C 0.41814 0.78357 0.82971 0.0
C2375 C 0.48378 0.7969 0.8251 0.0
C2376 C 0.34101 0.77042 0.80038 0.0
C2377 C 0.35985 0.77235 0.80581 0.0
C2378 C 0.40676 0.79968 0.79888 0.0
C2379 C 0.45156 0.79723 0.82867 0.0
C2380 C 0.43157 0.79409 0.82094 0.0
C2381 C 0.37272 0.78699 0.80129 0.0
C2382 C 0.39315 0.78931 0.80782 0.0
H2383 H 0.47854 0.8077 0.87041 0.0
H2384 H 0.4468 0.80361 0.8572 0.0
H2385 H 0.43536 0.81027 0.79814 0.0
H2386 H 0.34221 0.80676 0.77637 0.0
H2387 H 0.37453 0.81094 0.78667 0.0
C2388 C 0.50403 0.18376 0.16028 0.0
C2389 C 0.51047 0.2014 0.15606 0.0
C2390 C 0.50527 0.16846 0.14804 0.0
C2391 C 0.53014 0.15421 0.10811 0.0
H2392 H 0.49232 0.11105 0.10169 0.0
C2393 C 0.53201 0.09282 0.05309 0.0
C2394 C 0.52435 0.07512 0.05648 0.0
C2395 C 0.52998 0.10816 0.06476 0.0
C2396 C 0.50324 0.12281 0.1034 0.0
H2397 H 0.52425 0.21662 0.13607 0.0
H2398 H 0.52603 0.19035 0.11471 0.0
H2399 H 0.48954 0.13716 0.1227 0.0
H2400 H 0.50849 0.06014 0.07535 0.0
H2401 H 0.50565 0.08646 0.09591 0.0
H2402 H 0.54396 0.13992 0.08901 0.0
C2403 C 0.51998 0.18807 0.1274 0.0
C2404 C 0.50159 0.13796 0.11557 0.0
C2405 C 0.51871 0.20327 0.13959 0.0
C2406 C 0.51464 0.07341 0.07208 0.0
C2407 C 0.51281 0.08871 0.08389 0.0
C2408 C 0.53183 0.13905 0.096 0.0
C2409 C 0.51331 0.17032 0.13133 0.0
C2410 C 0.51501 0.15398 0.11822 0.0
C2411 C 0.52039 0.10647 0.08051 0.0
C2412 C 0.51844 0.12296 0.09338 0.0
H2413 H 0.49788 0.18179 0.17299 0.0
H2414 H 0.5002 0.15514 0.15189 0.0
H2415 H 0.541 0.16603 0.1098 0.0
H2416 H 0.53983 0.09492 0.04148 0.0
H2417 H 0.53588 0.1214 0.06126 0.0
C2418 C 0.09464 0.31445 0.32432 0.0
C2419 C 0.08795 0.30647 0.33973 0.0
C2420 C 0.11119 0.31168 0.31805 0.0
C2421 C 0.14659 0.28184 0.32223 0.0
H2422 H 0.17488 0.31903 0.29798 0.0
C2423 C 0.2112 0.2698 0.28729 0.0
C2424 C 0.2262 0.28422 0.28814 0.0
C2425 C 0.19453 0.2724 0.2934 0.0
C2426 C 0.16734 0.30848 0.30485 0.0
H2427 H 0.09412 0.28904 0.36042 0.0
H2428 H 0.12298 0.28455 0.34991 0.0
H2429 H 0.14656 0.32381 0.30923 0.0
H2430 H 0.23491 0.31305 0.2962 0.0
H2431 H 0.20594 0.31778 0.30646 0.0
H2432 H 0.16768 0.26672 0.31822 0.0
C2433 C 0.11528 0.29283 0.34236 0.0
C2434 C 0.15074 0.31112 0.31116 0.0
C2435 C 0.09864 0.29558 0.34861 0.0
C2436 C 0.22378 0.30151 0.29524 0.0
C2437 C 0.20699 0.30423 0.30107 0.0
C2438 C 0.1632 0.2792 0.31592 0.0
C2439 C 0.12198 0.30082 0.32691 0.0
C2440 C 0.13994 0.29789 0.32005 0.0
C2441 C 0.192 0.28969 0.30043 0.0
C2442 C 0.174 0.29248 0.30712 0.0
H2443 H 0.08693 0.32279 0.31682 0.0
H2444 H 0.1153 0.31788 0.30593 0.0
H2445 H 0.13887 0.27106 0.32867 0.0
H2446 H 0.21239 0.25634 0.28234 0.0
H2447 H 0.18354 0.26075 0.29242 0.0
C2448 C 0.93317 0.01007 0.19406 0.0
C2449 C 0.9441 0.01608 0.21114 0.0
C2450 C 0.94041 0.01203 0.17704 0.0
C2451 C 0.98079 0.03647 0.15614 0.0
H2452 H 0.96302 0.99939 0.11462 0.0
C2453 C 1.00475 0.04299 0.08219 0.0
C2454 C 1.00484 0.02703 0.07063 0.0
C2455 C 0.99777 0.04224 0.09949 0.0
C2456 C 0.96842 0.00983 0.12605 0.0
H2457 H 0.97129 0.02917 0.22348 0.0
H2458 H 0.98389 0.03238 0.19412 0.0
H2459 H 0.95032 0.99683 0.14385 0.0
H2460 H 0.99895 0.99776 0.06896 0.0
H2461 H 0.9874 0.99637 0.09889 0.0
H2462 H 0.99943 0.04907 0.13854 0.0
C2463 C 0.96964 0.02631 0.19369 0.0
C2464 C 0.96081 0.0085 0.1429 0.0
C2465 C 0.96241 0.02433 0.21066 0.0
C2466 C 0.99857 0.01036 0.07719 0.0
C2467 C 0.99182 0.00958 0.09447 0.0
C2468 C 0.98853 0.03771 0.13932 0.0
C2469 C 0.95883 0.02011 0.17652 0.0
C2470 C 0.96684 0.02177 0.1583 0.0
C2471 C 0.99089 0.02547 0.10583 0.0
C2472 C 0.98255 0.02438 0.12394 0.0
H2473 H 0.91901 0.00368 0.19382 0.0
H2474 H 0.93145 0.0073 0.16427 0.0
H2475 H 0.98574 0.04717 0.16744 0.0
H2476 H 0.00957 0.05607 0.07762 0.0
H2477 H 0.99733 0.05486 0.10762 0.0
C2478 C 0.25651 0.66502 0.49034 0.0
C2479 C 0.26805 0.65279 0.49316 0.0
C2480 C 0.25865 0.67586 0.47601 0.0
C2481 C 0.28909 0.69523 0.44434 0.0
H2482 H 0.2453 0.68667 0.40927 0.0
C2483 C 0.26936 0.73916 0.38821 0.0
C2484 C 0.25981 0.72986 0.37153 0.0
C2485 C 0.27583 0.72955 0.40194 0.0
C2486 C 0.2577 0.68895 0.41881 0.0
H2487 H 0.2914 0.64274 0.4846 0.0
H2488 H 0.29546 0.66215 0.45955 0.0
H2489 H 0.24505 0.67201 0.43762 0.0
H2490 H 0.2511 0.70376 0.35497 0.0
H2491 H 0.26196 0.6868 0.3793 0.0
H2492 H 0.30151 0.7127 0.42559 0.0
C2493 C 0.28472 0.6632 0.46824 0.0
C2494 C 0.25745 0.68083 0.4351 0.0
C2495 C 0.28231 0.65205 0.48231 0.0
C2496 C 0.25828 0.71109 0.36791 0.0
C2497 C 0.26454 0.70146 0.3817 0.0
C2498 C 0.28925 0.70365 0.42808 0.0
C2499 C 0.27259 0.67477 0.46472 0.0
C2500 C 0.27309 0.68398 0.44796 0.0
C2501 C 0.27251 0.71059 0.3991 0.0
C2502 C 0.27354 0.70047 0.41523 0.0
H2503 H 0.24544 0.66564 0.4987 0.0
H2504 H 0.24916 0.68473 0.47339 0.0
H2505 H 0.30128 0.69771 0.4542 0.0
H2506 H 0.27096 0.75373 0.39099 0.0
H2507 H 0.28194 0.73681 0.4153 0.0
C2508 C 0.64047 0.01556 0.69336 0.0
C2509 C 0.6538 0.03096 0.69973 0.0
C2510 C 0.62947 0.01497 0.67675 0.0
C2511 C 0.62137 0.03983 0.63606 0.0
H2512 H 0.5711 0.01867 0.6406 0.0
C2513 C 0.55878 0.04695 0.58649 0.0
C2514 C 0.55249 0.03021 0.57566 0.0
C2515 C 0.57069 0.048 0.60261 0.0
C2516 C 0.58509 0.02475 0.63936 0.0
H2517 H 0.66709 0.05739 0.6938 0.0
H2518 H 0.64722 0.05687 0.6652 0.0
H2519 H 0.59474 0.01767 0.66557 0.0
H2520 H 0.55215 1.00144 0.57318 0.0
H2521 H 0.57221 1.00311 0.60216 0.0
H2522 H 0.61126 0.0473 0.60993 0.0
C2523 C 0.64557 0.04496 0.67251 0.0
C2524 C 0.59866 0.02392 0.65339 0.0
C2525 C 0.65695 0.04528 0.68884 0.0
C2526 C 0.55696 0.01439 0.58157 0.0
C2527 C 0.56835 0.01536 0.59796 0.0
C2528 C 0.60768 0.04096 0.62217 0.0
C2529 C 0.63122 0.0301 0.66677 0.0
C2530 C 0.61699 0.03113 0.65173 0.0
C2531 C 0.57567 0.03221 0.60816 0.0
C2532 C 0.58958 0.0332 0.62374 0.0
H2533 H 0.63797 0.0044 0.70167 0.0
H2534 H 0.61894 1.00307 0.67231 0.0
H2535 H 0.63535 0.04543 0.63434 0.0
H2536 H 0.55555 0.05926 0.58177 0.0
H2537 H 0.5764 0.06107 0.61043 0.0
C2538 C 0.28252 0.34244 0.97417 0.0
C2539 C 0.28514 0.36149 0.97625 0.0
C2540 C 0.28133 0.33263 0.95634 0.0
C2541 C 0.29433 0.34 0.90872 0.0
H2542 H 0.26095 0.29466 0.89186 0.0
C2543 C 0.29537 0.30427 0.83516 0.0
C2544 C 0.27959 0.29306 0.82554 0.0
C2545 C 0.29607 0.31105 0.85388 0.0
C2546 C 0.27025 0.30743 0.89618 0.0
H2547 H 0.28826 0.38488 0.9607 0.0
H2548 H 0.28605 0.36819 0.93059 0.0
H2549 H 0.26186 0.30889 0.9237 0.0
H2550 H 0.25163 0.281 0.82816 0.0
H2551 H 0.25233 0.29382 0.86042 0.0
H2552 H 0.30209 0.33947 0.88136 0.0
C2553 C 0.28517 0.36063 0.94249 0.0
C2554 C 0.27096 0.31546 0.91465 0.0
C2555 C 0.28624 0.37028 0.96001 0.0
C2556 C 0.26417 0.28939 0.83512 0.0
C2557 C 0.26466 0.29663 0.85381 0.0
C2558 C 0.29345 0.3322 0.89033 0.0
C2559 C 0.28299 0.34169 0.94026 0.0
C2560 C 0.28289 0.332 0.92114 0.0
C2561 C 0.28069 0.30757 0.86362 0.0
C2562 C 0.28142 0.31574 0.88359 0.0
H2563 H 0.28155 0.33514 0.98626 0.0
H2564 H 0.27959 0.31803 0.95522 0.0
H2565 H 0.30399 0.35254 0.91315 0.0
H2566 H 0.3073 0.30794 0.82822 0.0
H2567 H 0.30888 0.31898 0.86064 0.0
C2568 C 0.94102 0.02932 0.33424 0.0
C2569 C 0.94565 0.01896 0.31896 0.0
C2570 C 0.95071 0.03082 0.35193 0.0
C2571 C 0.98015 0.00724 0.38097 0.0
H2572 H 0.98591 0.05107 0.41506 0.0
C2573 C 0.01643 0.015 0.45723 0.0
C2574 C 0.00845 0.02396 0.47116 0.0
C2575 C 0.01014 0.01451 0.43827 0.0
C2576 C 0.98428 0.03864 0.40582 0.0
H2577 H 0.96456 1.00237 0.3104 0.0
H2578 H 0.98171 0.00508 0.34142 0.0
H2579 H 0.97353 0.05064 0.3828 0.0
H2580 H 0.98748 0.03949 0.47567 0.0
H2581 H 0.97685 0.03894 0.44296 0.0
H2582 H 0.99088 0.99526 0.40415 0.0
C2583 C 0.9704 0.01198 0.33966 0.0
C2584 C 0.97716 0.03839 0.38721 0.0
C2585 C 0.96073 0.0106 0.32179 0.0
C2586 C 0.9941 0.03252 0.46549 0.0
C2587 C 0.988 0.03225 0.4466 0.0
C2588 C 0.98736 0.00751 0.39962 0.0
C2589 C 0.96537 0.02193 0.35508 0.0
C2590 C 0.97466 0.0226 0.37451 0.0
C2591 C 0.9959 0.02326 0.43265 0.0
C2592 C 0.98926 0.02314 0.41243 0.0
H2593 H 0.92949 0.03594 0.33264 0.0
H2594 H 0.94617 0.03843 0.36333 0.0
H2595 H 0.97829 0.99475 0.37177 0.0
H2596 H 0.02771 0.00854 0.46089 0.0
H2597 H 0.01673 0.00759 0.428 0.0
C2598 C 0.26587 0.65052 0.60849 0.0
C2599 C 0.27898 0.65527 0.59649 0.0
C2600 C 0.26607 0.66158 0.62493 0.0
C2601 C 0.28286 0.70877 0.64508 0.0
H2602 H 0.26965 0.69013 0.69079 0.0
C2603 C 0.26949 0.75241 0.71003 0.0
C2604 C 0.27863 0.74923 0.7268 0.0
C2605 C 0.26961 0.74126 0.6937 0.0
C2606 C 0.27342 0.69545 0.67809 0.0
H2607 H 0.30326 0.67417 0.59242 0.0
H2608 H 0.30436 0.69298 0.62184 0.0
H2609 H 0.27072 0.66905 0.66366 0.0
H2610 H 0.29529 0.73213 0.73962 0.0
H2611 H 0.29502 0.71243 0.71123 0.0
H2612 H 0.28602 0.73523 0.65985 0.0
C2613 C 0.29351 0.6812 0.61825 0.0
C2614 C 0.27388 0.68344 0.66257 0.0
C2615 C 0.29307 0.67035 0.60163 0.0
C2616 C 0.28797 0.73483 0.72696 0.0
C2617 C 0.28783 0.72355 0.71076 0.0
C2618 C 0.28246 0.7208 0.66067 0.0
C2619 C 0.27962 0.67729 0.62967 0.0
C2620 C 0.27883 0.68999 0.64601 0.0
C2621 C 0.27855 0.72662 0.69409 0.0
C2622 C 0.27795 0.71416 0.67729 0.0
H2623 H 0.25466 0.63911 0.60449 0.0
H2624 H 0.25508 0.65837 0.63338 0.0
H2625 H 0.28631 0.71417 0.63233 0.0
H2626 H 0.26208 0.76335 0.70953 0.0
H2627 H 0.26236 0.74377 0.6809 0.0
C2628 C 0.65992 0.03389 0.82109 0.0
C2629 C 0.65454 0.03959 0.80396 0.0
C2630 C 0.64804 0.03228 0.83467 0.0
C2631 C 0.61129 0.05245 0.84958 0.0
H2632 H 0.60199 0.01292 0.87989 0.0
C2633 C 0.56273 0.05598 0.90236 0.0
C2634 C 0.57124 0.05639 0.92044 0.0
C2635 C 0.56994 0.04849 0.88727 0.0
C2636 C 0.60446 0.02394 0.87141 0.0
H2637 H 0.63257 0.04782 0.78739 0.0
H2638 H 0.61195 0.04511 0.8111 0.0
H2639 H 0.62152 0.01101 0.85481 0.0
H2640 H 0.59273 0.04767 0.93724 0.0
H2641 H 0.60562 0.03491 0.9107 0.0
H2642 H 0.59477 0.06564 0.86617 0.0
C2643 C 0.62526 0.04181 0.814 0.0
C2644 C 0.61563 0.02291 0.85723 0.0
C2645 C 0.63703 0.04328 0.80043 0.0
C2646 C 0.58601 0.04764 0.92337 0.0
C2647 C 0.5933 0.04021 0.90823 0.0
C2648 C 0.60017 0.05345 0.86357 0.0
C2649 C 0.63077 0.03657 0.83131 0.0
C2650 C 0.61901 0.03717 0.84621 0.0
C2651 C 0.58586 0.0415 0.89009 0.0
C2652 C 0.59657 0.0392 0.87452 0.0
H2653 H 0.67334 0.03088 0.82406 0.0
H2654 H 0.65257 0.02836 0.84801 0.0
H2655 H 0.61413 0.06384 0.84161 0.0
H2656 H 0.55101 0.06219 0.89985 0.0
H2657 H 0.56385 0.04931 0.87333 0.0
C2658 C 0.2862 0.34203 0.08619 0.0
C2659 C 0.28577 0.36036 0.08474 0.0
C2660 C 0.28463 0.33482 0.10321 0.0
C2661 C 0.26706 0.34081 0.14872 0.0
H2662 H 0.30118 0.31129 0.16464 0.0
C2663 C 0.26746 0.31337 0.22145 0.0
C2664 C 0.27356 0.29712 0.2236 0.0
C2665 C 0.26861 0.32134 0.20473 0.0
C2666 C 0.29122 0.31916 0.1604 0.0
H2667 H 0.28295 0.38539 0.10022 0.0
H2668 H 0.27957 0.37264 0.12986 0.0
H2669 H 0.30347 0.32432 0.13548 0.0
H2670 H 0.28553 0.27652 0.20945 0.0
H2671 H 0.28653 0.28958 0.18034 0.0
H2672 H 0.25437 0.33521 0.17324 0.0
C2673 C 0.28138 0.3639 0.11779 0.0
C2674 C 0.29267 0.32679 0.14359 0.0
C2675 C 0.2834 0.37124 0.10081 0.0
C2676 C 0.28053 0.28895 0.2084 0.0
C2677 C 0.2814 0.2967 0.19164 0.0
C2678 C 0.26538 0.33289 0.16541 0.0
C2679 C 0.28215 0.3456 0.11928 0.0
C2680 C 0.28063 0.33773 0.13746 0.0
C2681 C 0.27571 0.31321 0.18949 0.0
C2682 C 0.27743 0.32187 0.1716 0.0
H2683 H 0.28807 0.33325 0.07417 0.0
H2684 H 0.28517 0.32068 0.10374 0.0
H2685 H 0.25742 0.34901 0.14439 0.0
H2686 H 0.26211 0.32016 0.23284 0.0
H2687 H 0.26428 0.33413 0.204 0.0
C2688 C 0.23642 0.94631 0.977 0.0
C2689 C 0.24885 0.94609 0.99251 0.0
C2690 C 0.21972 0.95094 0.97954 0.0
C2691 C 0.18972 0.95379 0.01625 0.0
H2692 H 0.16657 0.98306 0.98417 0.0
C2693 C 0.1276 0.97715 0.03736 0.0
C2694 C 0.12846 0.99568 0.03686 0.0
C2695 C 0.13842 0.96826 0.02685 0.0
C2696 C 0.17289 0.97486 0.99322 0.0
H2697 H 0.25489 0.95153 0.02245 0.0
H2698 H 0.22625 0.96067 0.02694 0.0
H2699 H 0.19495 0.97449 0.97686 0.0
H2700 H 0.13962 0.01941 0.02422 0.0
H2701 H 0.15967 0.00428 0.00678 0.0
H2702 H 0.16898 0.95549 0.03363 0.0
C2703 C 0.22872 0.95638 0.01293 0.0
C2704 C 0.189 0.96981 0.98893 0.0
C2705 C 0.24509 0.95129 0.01042 0.0
C2706 C 0.13916 0.00509 0.02488 0.0
C2707 C 0.15037 0.99634 0.01472 0.0
C2708 C 0.17396 0.95916 0.02076 0.0
C2709 C 0.21565 0.95572 0.99758 0.0
C2710 C 0.19775 0.95963 1.00072 0.0
C2711 C 0.15064 0.978 0.01624 0.0
C2712 C 0.16554 0.97002 0.0095 0.0
H2713 H 0.23942 0.9424 0.96308 0.0
H2714 H 0.20987 0.95032 0.96749 0.0
H2715 H 0.19592 0.94552 0.02533 0.0
H2716 H 0.11898 0.96971 0.04628 0.0
H2717 H 0.13793 0.95399 0.02783 0.0
C2718 C 0.69806 0.6507 1.00097 0.0
C2719 C 0.71455 0.64482 0.00455 0.0
C2720 C 0.68136 0.63909 0.00198 0.0
C2721 C 0.6592 0.59096 1.00001 0.0
H2722 H 0.6238 0.60916 0.02803 0.0
C2723 C 0.58393 0.55289 0.99978 0.0
C2724 C 0.57748 0.55212 0.01722 0.0
C2725 C 0.60108 0.56333 0.9981 0.0
C2726 C 0.63355 0.60386 0.02018 0.0
H2727 H 0.72643 0.6227 0.01353 0.0
H2728 H 0.6974 0.6021 0.01415 0.0
H2729 H 0.65259 0.62922 0.02483 0.0
H2730 H 0.58407 0.56109 0.04666 0.0
H2731 H 0.61351 0.58023 0.04364 0.0
H2732 H 0.64002 0.56564 0.99519 0.0
C2733 C 0.6973 0.61554 0.01023 0.0
C2734 C 0.64998 0.6154 0.01821 0.0
C2735 C 0.71396 0.62728 0.00965 0.0
C2736 C 0.58863 0.56167 0.03301 0.0
C2737 C 0.60547 0.57262 0.03127 0.0
C2738 C 0.64259 0.57951 1.00168 0.0
C2739 C 0.68077 0.62133 0.00655 0.0
C2740 C 0.66306 0.6091 0.00817 0.0
C2741 C 0.6119 0.57365 0.01377 0.0
C2742 C 0.62959 0.58578 0.01187 0.0
H2743 H 0.69809 0.66429 0.99746 0.0
H2744 H 0.66888 0.64401 0.99913 0.0
H2745 H 0.66896 0.58568 0.99217 0.0
H2746 H 0.57568 0.54542 0.98744 0.0
H2747 H 0.60566 0.56376 0.98445 0.0
C2748 C 0.64923 0.47884 0.28871 0.0
C2749 C 0.65865 0.49543 0.28424 0.0
C2750 C 0.65712 0.46337 0.28727 0.0
C2751 C 0.70261 0.45179 0.28932 0.0
H2752 H 0.6785 0.40412 0.26588 0.0
C2753 C 0.74276 0.39776 0.26616 0.0
C2754 C 0.73475 0.37931 0.26451 0.0
C2755 C 0.73313 0.41096 0.27197 0.0
C2756 C 0.68539 0.41722 0.27287 0.0
H2757 H 0.683 0.50856 0.27366 0.0
H2758 H 0.69665 0.48187 0.27115 0.0
H2759 H 0.66144 0.42858 0.26815 0.0
H2760 H 0.71074 0.3601 0.26855 0.0
H2761 H 0.69398 0.38317 0.27942 0.0
H2762 H 0.72648 0.44068 0.29421 0.0
C2763 C 0.6834 0.48074 0.27607 0.0
C2764 C 0.67558 0.43127 0.27405 0.0
C2765 C 0.67553 0.49603 0.2774 0.0
C2766 C 0.71733 0.37425 0.26999 0.0
C2767 C 0.70763 0.3875 0.27588 0.0
C2768 C 0.71233 0.43775 0.28836 0.0
C2769 C 0.6746 0.46436 0.28152 0.0
C2770 C 0.68422 0.44884 0.28185 0.0
C2771 C 0.71516 0.40609 0.27631 0.0
C2772 C 0.70404 0.42035 0.27967 0.0
H2773 H 0.63632 0.4781 0.29429 0.0
H2774 H 0.64999 0.45091 0.29154 0.0
H2775 H 0.70958 0.46508 0.29579 0.0
H2776 H 0.75607 0.40199 0.2617 0.0
H2777 H 0.73944 0.42502 0.27183 0.0
C2778 C 0.85416 0.43295 0.50183 0.0
C2779 C 0.83991 0.44165 0.50578 0.0
C2780 C 0.87198 0.44229 0.50618 0.0
C2781 C 0.90088 0.48106 0.50547 0.0
H2782 H 0.92977 0.47782 0.55183 0.0
C2783 C 0.97093 0.52406 0.52408 0.0
C2784 C 0.98408 0.51336 0.5264 0.0
C2785 C 0.95285 0.51671 0.52517 0.0
C2786 C 0.9217 0.47886 0.53895 0.0
H2787 H 0.83249 0.46589 0.51858 0.0
H2788 H 0.86387 0.48268 0.52522 0.0
H2789 H 0.89835 0.4606 0.5453 0.0
H2790 H 0.98917 0.48709 0.53256 0.0
H2791 H 0.95755 0.47435 0.53474 0.0
H2792 H 0.92412 0.49888 0.49873 0.0
C2793 C 0.86118 0.4688 0.51871 0.0
C2794 C 0.904 0.46906 0.53524 0.0
C2795 C 0.84343 0.4594 0.51463 0.0
C2796 C 0.97927 0.4957 0.53109 0.0
C2797 C 0.96123 0.4884 0.53232 0.0
C2798 C 0.91849 0.49088 0.50916 0.0
C2799 C 0.87536 0.46019 0.51453 0.0
C2800 C 0.89374 0.47018 0.51847 0.0
C2801 C 0.94794 0.49869 0.5287 0.0
C2802 C 0.92895 0.48977 0.5259 0.0
H2803 H 0.85148 0.41903 0.49545 0.0
H2804 H 0.88308 0.43567 0.50303 0.0
H2805 H 0.89292 0.48172 0.49242 0.0
H2806 H 0.97445 0.53776 0.52049 0.0
H2807 H 0.94262 0.52475 0.52236 0.0
C2808 C 0.36719 0.07435 0.31619 0.0
C2809 C 0.35914 0.05835 0.30483 0.0
C2810 C 0.3614 0.09033 0.313 0.0
C2811 C 0.34135 0.11049 0.27548 0.0
H2812 H 0.32073 0.13881 0.31219 0.0
C2813 C 0.29604 0.15518 0.25116 0.0
C2814 C 0.30304 0.17344 0.25724 0.0
C2815 C 0.30179 0.14205 0.26096 0.0
C2816 C 0.32659 0.131 0.30196 0.0
H2817 H 0.33929 0.04568 0.28156 0.0
H2818 H 0.32903 0.07354 0.27598 0.0
H2819 H 0.33575 0.11432 0.32167 0.0
H2820 H 0.31965 0.19279 0.27895 0.0
H2821 H 0.33055 0.16955 0.2958 0.0
H2822 H 0.33185 0.12652 0.25566 0.0
C2823 C 0.33969 0.07391 0.28724 0.0
C2824 C 0.33524 0.11726 0.30736 0.0
C2825 C 0.34539 0.05808 0.29046 0.0
C2826 C 0.31455 0.17862 0.27399 0.0
C2827 C 0.32051 0.16546 0.28369 0.0
C2828 C 0.3327 0.12401 0.27012 0.0
C2829 C 0.34781 0.09011 0.29833 0.0
C2830 C 0.34207 0.10664 0.29394 0.0
C2831 C 0.31478 0.1472 0.27666 0.0
C2832 C 0.32476 0.13389 0.28319 0.0
H2833 H 0.37793 0.07447 0.32728 0.0
H2834 H 0.36773 0.10282 0.3216 0.0
H2835 H 0.34684 0.10252 0.26506 0.0
H2836 H 0.28665 0.15113 0.23854 0.0
H2837 H 0.29707 0.12791 0.2556 0.0
C2838 C 0.30833 0.13442 0.52114 0.0
C2839 C 0.30833 0.14899 0.51062 0.0
C2840 C 0.32352 0.12643 0.52329 0.0
C2841 C 0.36607 0.12212 0.50239 0.0
H2842 H 0.37606 0.1002 0.54736 0.0
C2843 C 0.43224 0.09576 0.52331 0.0
C2844 C 0.43044 0.08015 0.53248 0.0
C2845 C 0.41698 0.10306 0.51816 0.0
C2846 C 0.37332 0.10602 0.53459 0.0
H2847 H 0.32425 0.16695 0.49428 0.0
H2848 H 0.3515 0.15367 0.4989 0.0
H2849 H 0.35153 0.1168 0.54489 0.0
H2850 H 0.41142 0.05932 0.54269 0.0
H2851 H 0.38461 0.07197 0.53362 0.0
H2852 H 0.38854 0.11175 0.49253 0.0
C2853 C 0.33954 0.14807 0.50515 0.0
C2854 C 0.35919 0.11559 0.53314 0.0
C2855 C 0.3241 0.15593 0.50278 0.0
C2856 C 0.41306 0.07132 0.53551 0.0
C2857 C 0.3978 0.07865 0.53047 0.0
C2858 C 0.38044 0.11273 0.50398 0.0
C2859 C 0.33934 0.13297 0.5152 0.0
C2860 C 0.35519 0.12365 0.51696 0.0
C2861 C 0.39968 0.09496 0.52233 0.0
C2862 C 0.38411 0.10444 0.52005 0.0
H2863 H 0.29624 0.12874 0.52717 0.0
H2864 H 0.32253 0.11464 0.53076 0.0
H2865 H 0.36331 0.12787 0.48959 0.0
H2866 H 0.4456 0.10286 0.52105 0.0
H2867 H 0.4189 0.11565 0.512 0.0
C2868 C 0.66888 0.59057 0.27601 0.0
C2869 C 0.66004 0.58824 0.29202 0.0
C2870 C 0.68017 0.60711 0.2741 0.0
C2871 C 0.70968 0.64713 0.30044 0.0
H2872 H 0.7022 0.67111 0.2563 0.0
C2873 C 0.74751 0.72034 0.29523 0.0
C2874 C 0.75301 0.72477 0.27807 0.0
C2875 C 0.73684 0.70337 0.29673 0.0
C2876 C 0.70472 0.6645 0.26859 0.0
H2877 H 0.65543 0.60166 0.31819 0.0
H2878 H 0.67647 0.63016 0.31567 0.0
H2879 H 0.68235 0.64226 0.25941 0.0
H2880 H 0.75128 0.71515 0.24886 0.0
H2881 H 0.73251 0.68541 0.25133 0.0
H2882 H 0.73222 0.66903 0.30953 0.0
C2883 C 0.67448 0.61921 0.30448 0.0
C2884 C 0.69324 0.64798 0.2704 0.0
C2885 C 0.66257 0.60287 0.30603 0.0
C2886 C 0.74762 0.71187 0.26236 0.0
C2887 C 0.73663 0.69495 0.26377 0.0
C2888 C 0.72127 0.66352 0.29855 0.0
C2889 C 0.68328 0.6216 0.28839 0.0
C2890 C 0.69552 0.63914 0.2864 0.0
C2891 C 0.73102 0.69044 0.281 0.0
C2892 C 0.71894 0.67256 0.28265 0.0
H2893 H 0.66681 0.57963 0.26478 0.0
H2894 H 0.68666 0.60851 0.26151 0.0
H2895 H 0.71195 0.64053 0.3128 0.0
H2896 H 0.75125 0.73018 0.30748 0.0
H2897 H 0.73265 0.70064 0.31018 0.0
C2898 C 0.84657 0.4628 0.78373 0.0
C2899 C 0.86463 0.46701 0.79204 0.0
C2900 C 0.83773 0.4449 0.77989 0.0
C2901 C 0.83899 0.40277 0.76292 0.0
H2902 H 0.81007 0.38143 0.79956 0.0
C2903 C 0.81358 0.3273 0.76636 0.0
C2904 C 0.79568 0.32214 0.77052 0.0
C2905 C 0.82077 0.34536 0.76548 0.0
C2906 C 0.81786 0.3874 0.78913 0.0
H2907 H 0.88831 0.4565 0.80159 0.0
H2908 H 0.87271 0.42466 0.79436 0.0
H2909 H 0.82651 0.41283 0.80605 0.0
H2910 H 0.77088 0.33128 0.77614 0.0
H2911 H 0.7838 0.36319 0.77513 0.0
H2912 H 0.83059 0.37724 0.74608 0.0
C2913 C 0.8654 0.43533 0.79151 0.0
C2914 C 0.82729 0.4051 0.79293 0.0
C2915 C 0.87417 0.4533 0.79566 0.0
C2916 C 0.78473 0.33505 0.77287 0.0
C2917 C 0.79203 0.35317 0.77228 0.0
C2918 C 0.82957 0.385 0.75912 0.0
C2919 C 0.84719 0.43125 0.78373 0.0
C2920 C 0.83783 0.41269 0.77984 0.0
C2921 C 0.81021 0.35836 0.76911 0.0
C2922 C 0.81896 0.37733 0.77221 0.0
H2923 H 0.8394 0.47331 0.77998 0.0
H2924 H 0.82363 0.44169 0.77378 0.0
H2925 H 0.84712 0.40878 0.75277 0.0
H2926 H 0.82244 0.31763 0.76501 0.0
H2927 H 0.83495 0.34927 0.76333 0.0
C2928 C 0.03775 0.83586 0.07044 0.0
C2929 C 0.0479 0.834 0.08734 0.0
C2930 C 0.03661 0.85289 0.06464 0.0
C2931 C 0.05739 0.90311 0.07296 0.0
H2932 H 0.01223 0.90703 0.04471 0.0
C2933 C 0.04312 0.9735 0.05301 0.0
C2934 C 0.03178 0.9742 0.03654 0.0
C2935 C 0.04561 0.95682 0.05916 0.0
C2936 C 0.02512 0.90634 0.05232 0.0
H2937 H 0.06522 0.84965 0.11111 0.0
H2938 H 0.06323 0.87948 0.10106 0.0
H2939 H 0.01571 0.87839 0.05555 0.0
H2940 H 0.01462 0.95711 0.01351 0.0
H2941 H 0.01872 0.9284 0.0241 0.0
H2942 H 0.06674 0.93117 0.06971 0.0
C2943 C 0.05612 0.86747 0.09215 0.0
C2944 C 0.02716 0.88964 0.05866 0.0
C2945 C 0.05729 0.85022 0.09802 0.0
C2946 C 0.02321 0.95744 0.02639 0.0
C2947 C 0.02558 0.94075 0.03259 0.0
C2948 C 0.05535 0.91986 0.0666 0.0
C2949 C 0.0455 0.86918 0.07541 0.0
C2950 C 0.04336 0.88754 0.06907 0.0
C2951 C 0.03681 0.93999 0.04919 0.0
C2952 C 0.03916 0.9219 0.05607 0.0
H2953 H 0.0304 0.82398 0.06146 0.0
H2954 H 0.0287 0.85316 0.05146 0.0
H2955 H 0.07021 0.90234 0.08065 0.0
H2956 H 0.05013 0.98593 0.06131 0.0
H2957 H 0.05424 0.95723 0.07205 0.0
C2958 C 0.94157 0.27396 0.91334 0.0
C2959 C 0.95474 0.26408 0.90825 0.0
C2960 C 0.92602 0.27406 0.90087 0.0
C2961 C 0.89594 0.24817 0.85977 0.0
H2962 H 0.88331 0.2942 0.8507 0.0
C2963 C 0.82732 0.25483 0.8177 0.0
C2964 C 0.82838 0.26734 0.80449 0.0
C2965 C 0.84269 0.25388 0.83001 0.0
C2966 C 0.88662 0.28121 0.85303 0.0
H2967 H 0.96119 0.24548 0.88659 0.0
H2968 H 0.93391 0.24516 0.86512 0.0
H2969 H 0.90944 0.29339 0.87325 0.0
H2970 H 0.84669 0.28879 0.79417 0.0
H2971 H 0.87329 0.28734 0.81575 0.0
H2972 H 0.87281 0.23596 0.8399 0.0
C2973 C 0.93571 0.25319 0.87856 0.0
C2974 C 0.90159 0.28074 0.86608 0.0
C2975 C 0.95142 0.25343 0.89085 0.0
C2976 C 0.84531 0.27886 0.80399 0.0
C2977 C 0.86058 0.27813 0.81651 0.0
C2978 C 0.88068 0.24861 0.84707 0.0
C2979 C 0.9229 0.26376 0.88321 0.0
C2980 C 0.90658 0.26422 0.86959 0.0
C2981 C 0.85953 0.26566 0.82976 0.0
C2982 C 0.87582 0.26514 0.84341 0.0
H2983 H 0.94364 0.28217 0.9267 0.0
H2984 H 0.91642 0.28224 0.90504 0.0
H2985 H 0.89926 0.23519 0.86211 0.0
H2986 H 0.81454 0.24577 0.81857 0.0
H2987 H 0.84127 0.24417 0.84005 0.0
C2988 C 0.53741 0.22246 0.60382 0.0
C2989 C 0.54492 0.23707 0.59454 0.0
C2990 C 0.53573 0.20438 0.59593 0.0
C2991 C 0.55525 0.17504 0.56209 0.0
H2992 H 0.51296 0.13902 0.56785 0.0
C2993 C 0.54761 0.098 0.53274 0.0
C2994 C 0.53768 0.08471 0.54218 0.0
C2995 C 0.54842 0.11671 0.53786 0.0
C2996 C 0.52511 0.1487 0.56632 0.0
H2997 H 0.5574 0.24382 0.56988 0.0
H2998 H 0.55448 0.21234 0.55605 0.0
H2999 H 0.51422 0.17065 0.57875 0.0
H3000 H 0.52112 0.08131 0.56487 0.0
H3001 H 0.5228 0.11322 0.5739 0.0
H3002 H 0.56636 0.15305 0.55003 0.0
C3003 C 0.54961 0.21484 0.56939 0.0
C3004 C 0.52576 0.16705 0.57257 0.0
C3005 C 0.55107 0.23298 0.57722 0.0
C3006 C 0.52882 0.09089 0.55703 0.0
C3007 C 0.52966 0.10946 0.56217 0.0
C3008 C 0.5547 0.15659 0.556 0.0
C3009 C 0.54197 0.20016 0.57866 0.0
C3010 C 0.54092 0.18059 0.5708 0.0
C3011 C 0.5393 0.12286 0.55263 0.0
C3012 C 0.53971 0.14293 0.55822 0.0
H3013 H 0.53284 0.22503 0.61731 0.0
H3014 H 0.53001 0.19364 0.60373 0.0
H3015 H 0.56726 0.1849 0.5605 0.0
H3016 H 0.55448 0.094 0.5211 0.0
H3017 H 0.55591 0.12631 0.5299 0.0
C3018 C 0.54983 0.75888 0.39245 0.0
C3019 C 0.54993 0.77027 0.40889 0.0
C3020 C 0.56562 0.7592 0.38366 0.0
C3021 C 0.61023 0.78963 0.38104 0.0
H3022 H 0.61878 0.74842 0.34963 0.0
C3023 C 0.67389 0.79566 0.34238 0.0
C3024 C 0.67096 0.78909 0.3234 0.0
C3025 C 0.66041 0.791 0.35404 0.0
C3026 C 0.61657 0.76008 0.3583 0.0
H3027 H 0.56678 0.79061 0.42938 0.0
H3028 H 0.5947 0.7907 0.41462 0.0
H3029 H 0.5934 0.74466 0.36836 0.0
H3030 H 0.65197 0.77193 0.30184 0.0
H3031 H 0.62833 0.76362 0.32222 0.0
H3032 H 0.63338 0.80502 0.371 0.0
C3033 C 0.58231 0.7817 0.40818 0.0
C3034 C 0.60193 0.75796 0.36905 0.0
C3035 C 0.5664 0.78144 0.4169 0.0
C3036 C 0.65463 0.777 0.31648 0.0
C3037 C 0.64111 0.77228 0.32818 0.0
C3038 C 0.62493 0.79169 0.37048 0.0
C3039 C 0.58206 0.77095 0.39111 0.0
C3040 C 0.59841 0.77276 0.38051 0.0
C3041 C 0.64358 0.77972 0.347 0.0
C3042 C 0.62829 0.77699 0.35886 0.0
H3043 H 0.53729 0.75022 0.3859 0.0
H3044 H 0.5646 0.75086 0.37052 0.0
H3045 H 0.60786 0.80152 0.38919 0.0
H3046 H 0.68634 0.80507 0.34801 0.0
H3047 H 0.66296 0.7967 0.36851 0.0
C3048 C 0.04538 0.23855 0.3819 0.0
C3049 C 0.03679 0.25283 0.38741 0.0
C3050 C 0.04424 0.22335 0.39189 0.0
C3051 C 0.01585 0.19899 0.42447 0.0
H3052 H 0.05774 0.17778 0.43747 0.0
C3053 C 0.01145 0.14589 0.47595 0.0
C3054 C 0.01826 0.13025 0.4711 0.0
C3055 C 0.01589 0.16132 0.46678 0.0
C3056 C 0.04587 0.18347 0.43386 0.0
H3057 H 0.02022 0.26238 0.40737 0.0
H3058 H 0.01783 0.23602 0.42434 0.0
H3059 H 0.0606 0.20293 0.41829 0.0
H3060 H 0.03562 0.11871 0.45339 0.0
H3061 H 0.04344 0.14568 0.43726 0.0
H3062 H 1.00107 0.17971 0.43984 0.0
C3063 C 0.02548 0.23633 0.41246 0.0
C3064 C 0.0475 0.19786 0.42279 0.0
C3065 C 0.02689 0.25152 0.40277 0.0
C3066 C 0.03042 0.1307 0.45759 0.0
C3067 C 0.03483 0.14615 0.44832 0.0
C3068 C 0.01424 0.18472 0.43548 0.0
C3069 C 0.03418 0.22202 0.40729 0.0
C3070 C 0.03252 0.20595 0.41809 0.0
C3071 C 0.02707 0.16145 0.45231 0.0
C3072 C 0.02924 0.17682 0.44054 0.0
H3073 H 0.05334 0.23936 0.37027 0.0
H3074 H 0.0511 0.21259 0.38747 0.0
H3075 H 1.00389 0.20454 0.42084 0.0
H3076 H 1.00194 0.14586 0.48622 0.0
H3077 H 0.00999 0.17295 0.4706 0.0
C3078 C 0.58441 0.25305 0.19198 0.0
C3079 C 0.57151 0.2571 0.20373 0.0
C3080 C 0.60286 0.25431 0.1989 0.0
C3081 C 0.63796 0.27294 0.2409 0.0
H3082 H 0.66594 0.24175 0.2163 0.0
C3083 C 0.71695 0.28262 0.26044 0.0
C3084 C 0.72572 0.26774 0.25824 0.0
C3085 C 0.69827 0.28103 0.2544 0.0
C3086 C 0.65845 0.2505 0.22361 0.0
H3087 H 0.56846 0.26573 0.2323 0.0
H3088 H 0.60029 0.26771 0.2444 0.0
H3089 H 0.63401 0.23939 0.2053 0.0
H3090 H 0.72106 0.23945 0.2474 0.0
H3091 H 0.68862 0.2364 0.23755 0.0
H3092 H 0.66225 0.28359 0.25963 0.0
C3093 C 0.59633 0.2638 0.22965 0.0
C3094 C 0.63993 0.24935 0.21701 0.0
C3095 C 0.57785 0.26258 0.22269 0.0
C3096 C 0.71496 0.25118 0.24971 0.0
C3097 C 0.6962 0.24953 0.24374 0.0
C3098 C 0.65647 0.27401 0.24757 0.0
C3099 C 0.60929 0.25959 0.21793 0.0
C3100 C 0.62924 0.26063 0.22539 0.0
C3101 C 0.68739 0.26446 0.24587 0.0
C3102 C 0.66723 0.26291 0.23901 0.0
H3103 H 0.58024 0.24876 0.17731 0.0
H3104 H 0.61211 0.25125 0.18911 0.0
H3105 H 0.63062 0.28207 0.24786 0.0
H3106 H 0.72457 0.29571 0.2668 0.0
H3107 H 0.69249 0.29306 0.25614 0.0
C3108 C 0.52887 0.85688 0.90236 0.0
C3109 C 0.54361 0.85635 0.89194 0.0
C3110 C 0.52827 0.87228 0.91467 0.0
C3111 C 0.55713 0.91342 0.94256 0.0
H3112 H 0.51239 0.93177 0.94171 0.0
C3113 C 0.55382 0.98302 0.98396 0.0
C3114 C 0.5377 0.98493 0.99151 0.0
C3115 C 0.55474 0.96723 0.97234 0.0
C3116 C 0.52497 0.92678 0.94246 0.0
H3117 H 0.56945 0.87167 0.88658 0.0
H3118 H 0.5689 0.89821 0.90872 0.0
H3119 H 0.51368 0.90465 0.92126 0.0
H3120 H 0.50979 0.97181 0.99246 0.0
H3121 H 0.51117 0.94455 0.97212 0.0
H3122 H 0.56837 0.9353 0.96398 0.0
C3123 C 0.55761 0.88678 0.9072 0.0
C3124 C 0.52571 0.91113 0.93058 0.0
C3125 C 0.55795 0.87156 0.89446 0.0
C3126 C 0.52248 0.97071 0.987 0.0
C3127 C 0.52326 0.95508 0.97513 0.0
C3128 C 0.55634 0.92898 0.95459 0.0
C3129 C 0.54264 0.88753 0.91734 0.0
C3130 C 0.54182 0.90419 0.93033 0.0
C3131 C 0.53944 0.95295 0.96756 0.0
C3132 C 0.54026 0.93606 0.95476 0.0
H3133 H 0.51746 0.84553 0.90057 0.0
H3134 H 0.51654 0.87219 0.9222 0.0
H3135 H 0.56972 0.90844 0.94305 0.0
H3136 H 0.56581 0.99368 0.98719 0.0
H3137 H 0.56744 0.96641 0.96682 0.0
C3138 C 0.95722 0.74466 0.7069 0.0
C3139 C 0.97143 0.76009 0.70984 0.0
C3140 C 0.93978 0.74527 0.71271 0.0
C3141 C 0.91013 0.77877 0.72746 0.0
H3142 H 0.88064 0.73759 0.74501 0.0
C3143 C 0.8445 0.786 0.76258 0.0
C3144 C 0.82883 0.77214 0.75896 0.0
C3145 C 0.86135 0.78388 0.75653 0.0
C3146 C 0.88853 0.74925 0.73998 0.0
H3147 H 0.97767 0.78838 0.72127 0.0
H3148 H 0.948 0.78945 0.73104 0.0
H3149 H 0.91018 0.73509 0.73461 0.0
H3150 H 0.81959 0.74441 0.74646 0.0
H3151 H 0.84894 0.74038 0.73641 0.0
H3152 H 0.88868 0.79299 0.73293 0.0
C3153 C 0.95001 0.77677 0.72419 0.0
C3154 C 0.90565 0.74779 0.73392 0.0
C3155 C 0.96734 0.77609 0.71863 0.0
C3156 C 0.83105 0.75564 0.74942 0.0
C3157 C 0.84809 0.75329 0.74371 0.0
C3158 C 0.89313 0.78024 0.73358 0.0
C3159 C 0.93572 0.76142 0.72142 0.0
C3160 C 0.91694 0.76256 0.72757 0.0
C3161 C 0.86361 0.7675 0.74688 0.0
C3162 C 0.8819 0.76556 0.74006 0.0
H3163 H 0.95965 0.73199 0.70038 0.0
H3164 H 0.92938 0.73305 0.71014 0.0
H3165 H 0.91784 0.79047 0.72236 0.0
H3166 H 0.84382 0.79874 0.76987 0.0
H3167 H 0.87274 0.7952 0.75968 0.0
C3168 C 0.09687 0.04003 0.83909 0.0
C3169 C 0.11323 0.03373 0.83829 0.0
C3170 C 0.08709 0.03782 0.85457 0.0
C3171 C 0.0822 0.01157 0.89564 0.0
H3172 H 0.06383 0.05241 0.91712 0.0
C3173 C 0.0587 0.01421 0.9697 0.0
C3174 C 0.04383 0.02245 0.97284 0.0
C3175 C 0.06628 0.01496 0.95279 0.0
C3176 C 0.06862 0.04073 0.91123 0.0
H3177 H 0.13168 0.01951 0.85286 0.0
H3178 H 0.11471 0.01549 0.87942 0.0
H3179 H 0.07763 0.05432 0.88821 0.0
H3180 H 0.02528 0.03791 0.96046 0.0
H3181 H 0.03819 0.03897 0.93104 0.0
H3182 H 0.07327 0.99798 0.91864 0.0
C3183 C 0.10933 0.02218 0.86825 0.0
C3184 C 0.07655 0.04184 0.89455 0.0
C3185 C 0.11917 0.0246 0.85299 0.0
C3186 C 0.03672 0.03139 0.95857 0.0
C3187 C 0.04426 0.03214 0.94169 0.0
C3188 C 0.07422 0.01044 0.91228 0.0
C3189 C 0.09329 0.02898 0.86947 0.0
C3190 C 0.08363 0.02735 0.88657 0.0
C3191 C 0.05921 0.02399 0.9385 0.0
C3192 C 0.06742 0.02505 0.92045 0.0
H3193 H 0.09197 0.04724 0.82809 0.0
H3194 H 0.07471 0.04312 0.85492 0.0
H3195 H 0.08721 1.0 0.88983 0.0
H3196 H 0.06452 0.0072 0.98036 0.0
H3197 H 0.0779 0.00869 0.95105 0.0
C3198 C 0.7873 0.4107 0.56637 0.0
C3199 C 0.78397 0.40012 0.54898 0.0
C3200 C 0.78887 0.40242 0.58267 0.0
C3201 C 0.80296 0.36292 0.59842 0.0
H3202 H 0.77245 0.36588 0.63823 0.0
C3203 C 0.80115 0.31221 0.64943 0.0
C3204 C 0.80589 0.31983 0.66795 0.0
C3205 C 0.79511 0.32249 0.6362 0.0
C3206 C 0.78109 0.36508 0.62723 0.0
H3207 H 0.77955 0.37269 0.53494 0.0
H3208 H 0.78251 0.3585 0.56317 0.0
H3209 H 0.77025 0.38493 0.61283 0.0
H3210 H 0.80629 0.34318 0.68784 0.0
H3211 H 0.79608 0.36147 0.66445 0.0
H3212 H 0.81377 0.34312 0.61243 0.0
C3213 C 0.78372 0.37307 0.56425 0.0
C3214 C 0.77993 0.37599 0.61289 0.0
C3215 C 0.78187 0.38123 0.54812 0.0
C3216 C 0.80279 0.33717 0.67351 0.0
C3217 C 0.79691 0.34757 0.6602 0.0
C3218 C 0.80413 0.3521 0.61264 0.0
C3219 C 0.78749 0.3836 0.58158 0.0
C3220 C 0.79054 0.37457 0.5982 0.0
C3221 C 0.79404 0.34058 0.64135 0.0
C3222 C 0.79285 0.35271 0.62686 0.0
H3223 H 0.78912 0.42531 0.56732 0.0
H3224 H 0.79182 0.41069 0.59602 0.0
H3225 H 0.81146 0.36186 0.58731 0.0
H3226 H 0.80314 0.29869 0.64504 0.0
H3227 H 0.7925 0.31671 0.62175 0.0
C3228 C 0.42581 0.01626 0.34676 0.0
C3229 C 0.40915 0.02137 0.34922 0.0
C3230 C 0.4392 0.01856 0.36168 0.0
C3231 C 0.45751 0.04452 0.40445 0.0
H3232 H 0.47025 1.00052 0.42043 0.0
C3233 C 0.4955 0.04304 0.47519 0.0
C3234 C 0.50797 0.03149 0.47678 0.0
C3235 C 0.48489 0.0426 0.4585 0.0
C3236 C 0.46715 0.01293 0.41586 0.0
H3237 H 0.39332 0.03325 0.36862 0.0
H3238 H 0.41723 0.03761 0.39496 0.0
H3239 H 0.44855 0.99867 0.39285 0.0
H3240 H 0.51945 0.01061 0.46239 0.0
H3241 H 0.50147 0.01055 0.43268 0.0
H3242 H 0.47627 0.05892 0.42715 0.0
C3243 C 0.41968 0.03176 0.38147 0.0
C3244 C 0.45469 0.01183 0.40029 0.0
C3245 C 0.40611 0.02919 0.36659 0.0
C3246 C 0.51001 0.01976 0.46138 0.0
C3247 C 0.49963 0.0196 0.44451 0.0
C3248 C 0.47024 0.04569 0.41983 0.0
C3249 C 0.4361 0.02623 0.37901 0.0
C3250 C 0.44972 0.0276 0.39477 0.0
C3251 C 0.48687 0.03089 0.44305 0.0
C3252 C 0.4749 0.02986 0.4258 0.0
H3253 H 0.42832 0.01006 0.33345 0.0
H3254 H 0.4519 0.01423 0.35977 0.0
H3255 H 0.45374 0.05676 0.4001 0.0
H3256 H 0.49369 0.05225 0.48689 0.0
H3257 H 0.47484 0.05114 0.45786 0.0
C3258 C 0.76733 0.71276 0.06997 0.0
C3259 C 0.76911 0.69463 0.06602 0.0
C3260 C 0.76764 0.72052 0.08838 0.0
C3261 C 0.78423 0.71752 0.13706 0.0
H3262 H 0.7458 0.74245 0.14983 0.0
C3263 C 0.77796 0.74036 0.21404 0.0
C3264 C 0.77065 0.75575 0.21894 0.0
C3265 C 0.77775 0.73351 0.19541 0.0
C3266 C 0.75687 0.73586 0.14659 0.0
H3267 H 0.77307 0.67062 0.07854 0.0
H3268 H 0.77442 0.68443 0.11079 0.0
H3269 H 0.74598 0.72963 0.11774 0.0
H3270 H 0.75725 0.77593 0.20756 0.0
H3271 H 0.75714 0.76424 0.17496 0.0
H3272 H 0.79564 0.72423 0.16551 0.0
C3273 C 0.77245 0.69253 0.09954 0.0
C3274 C 0.75688 0.72837 0.1281 0.0
C3275 C 0.77164 0.68459 0.08106 0.0
C3276 C 0.76291 0.764 0.20444 0.0
C3277 C 0.76282 0.75719 0.18564 0.0
C3278 C 0.78444 0.7253 0.15545 0.0
C3279 C 0.77022 0.71055 0.10345 0.0
C3280 C 0.77044 0.7189 0.12311 0.0
C3281 C 0.77038 0.74185 0.18076 0.0
C3282 C 0.7706 0.7344 0.16069 0.0
H3283 H 0.76524 0.72088 0.05876 0.0
H3284 H 0.766 0.73444 0.09083 0.0
H3285 H 0.79508 0.71062 0.13369 0.0
H3286 H 0.78392 0.73341 0.22467 0.0
H3287 H 0.78326 0.72144 0.19262 0.0
C3288 C 0.09201 0.02754 0.72571 0.0
C3289 C 0.11086 0.03347 0.73077 0.0
C3290 C 0.08422 0.02703 0.70726 0.0
C3291 C 0.0939 0.04611 0.66267 0.0
H3292 H 0.05124 0.01019 0.64169 0.0
C3293 C 0.06679 0.03563 0.58406 0.0
C3294 C 0.04791 0.03321 0.57911 0.0
C3295 C 0.07405 0.03618 0.60265 0.0
C3296 C 0.06304 0.02044 0.64741 0.0
H3297 H 0.13633 0.04302 0.72004 0.0
H3298 H 0.12293 0.04175 0.6879 0.0
H3299 H 0.06502 0.00919 0.67332 0.0
H3300 H 0.02181 0.02956 0.58981 0.0
H3301 H 0.03446 0.02992 0.62239 0.0
H3302 H 0.0921 0.05706 0.63654 0.0
C3303 C 0.11399 0.03787 0.69825 0.0
C3304 C 0.07098 0.0199 0.66562 0.0
C3305 C 0.12177 0.03843 0.71673 0.0
C3306 C 0.03642 0.03152 0.59324 0.0
C3307 C 0.04367 0.0316 0.61185 0.0
C3308 C 0.08607 0.04651 0.64442 0.0
C3309 C 0.09503 0.0324 0.69321 0.0
C3310 C 0.08658 0.03273 0.67359 0.0
C3311 C 0.06261 0.0339 0.6168 0.0
C3312 C 0.07054 0.0337 0.63651 0.0
H3313 H 0.08314 0.02363 0.73612 0.0
H3314 H 0.06959 0.02292 0.70418 0.0
H3315 H 0.10558 0.05651 0.66827 0.0
H3316 H 0.076 0.03705 0.5735 0.0
H3317 H 0.08866 0.0379 0.60588 0.0
C3318 C 0.77613 0.3998 0.43082 0.0
C3319 C 0.78685 0.39796 0.44704 0.0
C3320 C 0.7739 0.3867 0.41563 0.0
C3321 C 0.77967 0.34035 0.40227 0.0
H3322 H 0.78409 0.35739 0.35393 0.0
C3323 C 0.79263 0.29873 0.33608 0.0
C3324 C 0.77996 0.29906 0.32075 0.0
C3325 C 0.79268 0.30988 0.35238 0.0
C3326 C 0.78279 0.35258 0.36741 0.0
H3327 H 0.80395 0.38171 0.46053 0.0
H3328 H 0.80075 0.35922 0.43371 0.0
H3329 H 0.78504 0.37918 0.38106 0.0
H3330 H 0.75706 0.31052 0.31026 0.0
H3331 H 0.7574 0.33013 0.33871 0.0
H3332 H 0.77799 0.31374 0.38846 0.0
C3333 C 0.79348 0.37025 0.43286 0.0
C3334 C 0.78316 0.36491 0.38279 0.0
C3335 C 0.79539 0.38311 0.4481 0.0
C3336 C 0.76707 0.31017 0.32191 0.0
C3337 C 0.76722 0.32134 0.33807 0.0
C3338 C 0.77953 0.32802 0.38688 0.0
C3339 C 0.78274 0.37198 0.41656 0.0
C3340 C 0.78155 0.35885 0.40028 0.0
C3341 C 0.78015 0.32138 0.3532 0.0
C3342 C 0.78099 0.33416 0.36947 0.0
H3343 H 0.76939 0.41121 0.42998 0.0
H3344 H 0.76538 0.38811 0.40318 0.0
H3345 H 0.77825 0.33543 0.41567 0.0
H3346 H 0.80272 0.29026 0.33529 0.0
H3347 H 0.80279 0.30997 0.36408 0.0
C3348 C 0.39487 0.02558 0.23029 0.0
C3349 C 0.40405 0.02238 0.24699 0.0
C3350 C 0.40336 0.02507 0.21398 0.0
C3351 C 0.438 0.00478 0.1934 0.0
H3352 H 0.44815 0.04659 0.16625 0.0
C3353 C 0.4944 0.00991 0.14904 0.0
C3354 C 0.48807 0.0088 0.13011 0.0
C3355 C 0.48405 0.01557 0.16241 0.0
C3356 C 0.44526 0.03486 0.17371 0.0
H3357 H 0.42862 0.01533 0.25986 0.0
H3358 H 0.44312 0.01415 0.23165 0.0
H3359 H 0.42748 0.04646 0.19055 0.0
H3360 H 0.46729 0.01486 0.11018 0.0
H3361 H 0.4491 0.02478 0.13379 0.0
H3362 H 0.4561 0.99336 0.17725 0.0
C3363 C 0.42966 0.01738 0.23104 0.0
C3364 C 0.43337 0.03469 0.18736 0.0
C3365 C 0.42144 0.01825 0.2472 0.0
C3366 C 0.47239 0.01551 0.12473 0.0
C3367 C 0.46201 0.02121 0.13818 0.0
C3368 C 0.44988 0.00501 0.17999 0.0
C3369 C 0.42076 0.02079 0.21433 0.0
C3370 C 0.43012 0.01982 0.1976 0.0
C3371 C 0.46728 0.02019 0.15699 0.0
C3372 C 0.45399 0.02023 0.17044 0.0
H3373 H 0.38137 0.02866 0.22992 0.0
H3374 H 0.39633 0.02771 0.20113 0.0
H3375 H 0.43549 0.9931 0.20102 0.0
H3376 H 0.50668 0.00519 0.15346 0.0
H3377 H 0.48842 0.01497 0.17695 0.0
C3378 C 0.78176 0.70367 0.95658 0.0
C3379 C 0.76472 0.69301 0.9583 0.0
C3380 C 0.78447 0.71287 0.94077 0.0
C3381 C 0.76227 0.71271 0.89172 0.0
H3382 H 0.79827 0.75664 0.89199 0.0
C3383 C 0.76448 0.76028 0.83311 0.0
C3384 C 0.77979 0.76071 0.82342 0.0
C3385 C 0.76363 0.75251 0.84985 0.0
C3386 C 0.78821 0.74433 0.89175 0.0
H3387 H 0.73701 0.68449 0.94522 0.0
H3388 H 0.74123 0.70102 0.91862 0.0
H3389 H 0.79454 0.74285 0.92091 0.0
H3390 H 0.8066 0.75419 0.82411 0.0
H3391 H 0.80552 0.74143 0.85406 0.0
H3392 H 0.75548 0.71477 0.86272 0.0
C3393 C 0.75289 0.70181 0.9288 0.0
C3394 C 0.78609 0.73631 0.90832 0.0
C3395 C 0.75033 0.69242 0.94433 0.0
C3396 C 0.79454 0.75379 0.83117 0.0
C3397 C 0.79397 0.74661 0.84832 0.0
C3398 C 0.76412 0.72095 0.87536 0.0
C3399 C 0.77013 0.71177 0.92636 0.0
C3400 C 0.77295 0.72039 0.90866 0.0
C3401 C 0.77839 0.74567 0.8577 0.0
C3402 C 0.77704 0.73685 0.87516 0.0
H3403 H 0.79321 0.70417 0.967 0.0
H3404 H 0.798 0.72023 0.93959 0.0
H3405 H 0.75244 0.70018 0.89094 0.0
H3406 H 0.75293 0.76551 0.82742 0.0
H3407 H 0.75144 0.75188 0.85673 0.0
C3408 C 0.82435 0.1224 0.04175 0.0
C3409 C 0.80865 0.10903 0.04113 0.0
C3410 C 0.84131 0.11788 0.04482 0.0
C3411 C 0.86663 0.08278 0.05646 0.0
H3412 H 0.88689 0.09265 0.01059 0.0
C3413 C 0.91191 0.04285 0.01646 0.0
C3414 C 0.92476 0.05323 0.00705 0.0
C3415 C 0.90115 0.0514 0.02745 0.0
C3416 C 0.88176 0.09022 0.02373 0.0
H3417 H 0.79794 0.08125 0.04528 0.0
H3418 H 0.82771 0.07319 0.05027 0.0
H3419 H 0.86133 0.10558 0.01854 0.0
H3420 H 0.93835 0.08019 0.00323 0.0
H3421 H 0.9197 0.09528 0.02271 0.0
H3422 H 0.88677 0.06648 0.06094 0.0
C3423 C 0.82692 0.08707 0.04841 0.0
C3424 C 0.86716 0.09764 0.02828 0.0
C3425 C 0.80995 0.09155 0.04513 0.0
C3426 C 0.92807 0.0721 0.01004 0.0
C3427 C 0.91762 0.08063 0.02128 0.0
C3428 C 0.88145 0.07532 0.0519 0.0
C3429 C 0.84261 0.10002 0.04742 0.0
C3430 C 0.85949 0.09396 0.04461 0.0
C3431 C 0.90346 0.07033 0.02919 0.0
C3432 C 0.88905 0.07907 0.03548 0.0
H3433 H 0.82351 0.13604 0.03892 0.0
H3434 H 0.85337 0.12798 0.04394 0.0
H3435 H 0.86052 0.07957 0.06894 0.0
H3436 H 0.90955 0.02819 0.01447 0.0
H3437 H 0.89022 0.04324 0.03338 0.0
C3438 C 0.35418 0.40095 0.02788 0.0
C3439 C 0.33988 0.40768 0.03525 0.0
C3440 C 0.37122 0.4123 0.02801 0.0
C3441 C 0.39683 0.44887 0.01861 0.0
H3442 H 0.43059 0.46346 0.06357 0.0
C3443 C 0.46317 0.50231 0.02006 0.0
C3444 C 0.47888 0.49979 0.0308 0.0
C3445 C 0.44612 0.49157 0.02132 0.0
C3446 C 0.4214 0.45948 0.05084 0.0
H3447 H 0.33267 0.43095 0.05022 0.0
H3448 H 0.3625 0.45085 0.05037 0.0
H3449 H 0.40123 0.4434 0.06463 0.0
H3450 H 0.48888 0.48365 0.05106 0.0
H3451 H 0.45938 0.46461 0.05282 0.0
H3452 H 0.41674 0.46473 0.00464 0.0
C3453 C 0.36035 0.43693 0.04412 0.0
C3454 C 0.40454 0.44808 0.05152 0.0
C3455 C 0.34329 0.42562 0.04385 0.0
C3456 C 0.47707 0.48616 0.04275 0.0
C3457 C 0.46006 0.47528 0.04385 0.0
C3458 C 0.41357 0.4604 0.01792 0.0
C3459 C 0.37438 0.43043 0.03596 0.0
C3460 C 0.39216 0.44263 0.03539 0.0
C3461 C 0.4443 0.47778 0.03314 0.0
C3462 C 0.42618 0.46583 0.03401 0.0
H3463 H 0.35203 0.38705 0.02158 0.0
H3464 H 0.38193 0.40696 0.02183 0.0
H3465 H 0.38753 0.44481 0.00599 0.0
H3466 H 0.46404 0.51241 0.01042 0.0
H3467 H 0.43434 0.49412 0.013 0.0
C3468 C 0.38498 0.55742 0.75231 0.0
C3469 C 0.40099 0.55727 0.76386 0.0
C3470 C 0.37757 0.57303 0.75233 0.0
C3471 C 0.37747 0.61461 0.78343 0.0
H3472 H 0.34889 0.62684 0.7409 0.0
C3473 C 0.34436 0.67647 0.79045 0.0
C3474 C 0.32572 0.67323 0.78418 0.0
C3475 C 0.35498 0.66406 0.785 0.0
C3476 C 0.35682 0.62356 0.75289 0.0
H3477 H 0.42218 0.57332 0.78409 0.0
H3478 H 0.4097 0.60098 0.78371 0.0
H3479 H 0.36557 0.60221 0.73689 0.0
H3480 H 0.30361 0.65511 0.76671 0.0
H3481 H 0.32223 0.63331 0.75696 0.0
H3482 H 0.36863 0.63581 0.79944 0.0
C3483 C 0.40265 0.58895 0.77478 0.0
C3484 C 0.36636 0.60942 0.75063 0.0
C3485 C 0.41001 0.57325 0.77479 0.0
C3486 C 0.31806 0.65801 0.7714 0.0
C3487 C 0.32871 0.64553 0.76592 0.0
C3488 C 0.36809 0.62879 0.78563 0.0
C3489 C 0.38601 0.58889 0.76398 0.0
C3490 C 0.37677 0.60469 0.76591 0.0
C3491 C 0.34712 0.64808 0.77329 0.0
C3492 C 0.35762 0.63343 0.77042 0.0
H3493 H 0.37768 0.54516 0.74391 0.0
H3494 H 0.36468 0.57229 0.74399 0.0
H3495 H 0.38484 0.61109 0.79565 0.0
H3496 H 0.35046 0.68804 0.8005 0.0
H3497 H 0.36918 0.66656 0.79067 0.0
C3498 C 0.20292 0.6204 0.53795 0.0
C3499 C 0.21764 0.6118 0.54088 0.0
C3500 C 0.18547 0.61079 0.53831 0.0
C3501 C 0.15823 0.57441 0.51978 0.0
H3502 H 0.12535 0.5767 0.55734 0.0
C3503 C 0.08551 0.53471 0.51698 0.0
C3504 C 0.07384 0.54393 0.52601 0.0
C3505 C 0.103 0.54371 0.51559 0.0
C3506 C 0.13446 0.57616 0.54673 0.0
H3507 H 0.22644 0.58773 0.5492 0.0
H3508 H 0.1954 0.57011 0.54785 0.0
H3509 H 0.15786 0.58912 0.56562 0.0
H3510 H 0.06957 0.56957 0.53885 0.0
H3511 H 0.10028 0.58557 0.53611 0.0
H3512 H 0.13493 0.56207 0.50065 0.0
C3513 C 0.19751 0.58421 0.54538 0.0
C3514 C 0.15289 0.58283 0.55159 0.0
C3515 C 0.21502 0.59403 0.54557 0.0
C3516 C 0.07864 0.56248 0.53175 0.0
C3517 C 0.09607 0.57151 0.53026 0.0
C3518 C 0.13985 0.56772 0.51489 0.0
C3519 C 0.18283 0.59262 0.54149 0.0
C3520 C 0.16465 0.58214 0.53799 0.0
C3521 C 0.10862 0.56176 0.52347 0.0
C3522 C 0.12788 0.569 0.52825 0.0
H3523 H 0.2049 0.63437 0.53505 0.0
H3524 H 0.174 0.61726 0.53533 0.0
H3525 H 0.16728 0.57454 0.50916 0.0
H3526 H 0.08164 0.5203 0.51254 0.0
H3527 H 0.1126 0.53606 0.51027 0.0
C3528 C 0.68514 0.98389 0.75806 0.0
C3529 C 0.6988 0.9992 0.75805 0.0
C3530 C 0.68924 0.9668 0.75543 0.0
C3531 C 0.72238 0.94018 0.74144 0.0
H3532 H 0.71235 0.91793 0.78621 0.0
C3533 C 0.75921 0.88946 0.7762 0.0
C3534 C 0.74839 0.87699 0.78563 0.0
C3535 C 0.75122 0.90124 0.76607 0.0
C3536 C 0.7148 0.92367 0.77337 0.0
H3537 H 0.72679 0.00911 0.75366 0.0
H3538 H 0.7341 0.979 0.74919 0.0
H3539 H 0.70144 0.94524 0.78073 0.0
H3540 H 0.72096 0.86514 0.79017 0.0
H3541 H 0.70687 0.88552 0.77214 0.0
H3542 H 0.73656 0.91877 0.73465 0.0
C3543 C 0.72032 0.98024 0.75128 0.0
C3544 C 0.70859 0.93929 0.77028 0.0
C3545 C 0.71626 0.99737 0.75419 0.0
C3546 C 0.72946 0.87496 0.78321 0.0
C3547 C 0.72146 0.88647 0.77286 0.0
C3548 C 0.72862 0.92436 0.74453 0.0
C3549 C 0.70698 0.96495 0.75254 0.0
C3550 C 0.71231 0.94761 0.75434 0.0
C3551 C 0.73239 0.9004 0.76526 0.0
C3552 C 0.72478 0.91603 0.76052 0.0
H3553 H 0.67153 0.98519 0.76086 0.0
H3554 H 0.67884 0.95507 0.7565 0.0
H3555 H 0.72555 0.94671 0.7292 0.0
H3556 H 0.7739 0.89103 0.77789 0.0
H3557 H 0.75988 0.91196 0.76037 0.0
C3558 C 0.72912 0.896 0.52193 0.0
C3559 C 0.74561 0.9051 0.53201 0.0
C3560 C 0.71357 0.90372 0.52209 0.0
C3561 C 0.69514 0.94226 0.54499 0.0
H3562 H 0.66636 0.9373 0.49697 0.0
C3563 C 0.64757 0.99097 0.52209 0.0
C3564 C 0.63137 0.983 0.51071 0.0
C3565 C 0.65999 0.9803 0.52781 0.0
C3566 C 0.67407 0.93864 0.51057 0.0
H3567 H 0.75857 0.92865 0.55114 0.0
H3568 H 0.73196 0.94241 0.55098 0.0
H3569 H 0.69046 0.92031 0.50106 0.0
H3570 H 0.6149 0.95779 0.49714 0.0
H3571 H 0.63634 0.93911 0.50733 0.0
H3572 H 0.67908 0.96136 0.55409 0.0
C3573 C 0.73065 0.92925 0.54313 0.0
C3574 C 0.6879 0.92878 0.51297 0.0
C3575 C 0.74605 0.92145 0.54308 0.0
C3576 C 0.62727 0.96417 0.50604 0.0
C3577 C 0.63962 0.95354 0.51171 0.0
C3578 C 0.6814 0.95232 0.5425 0.0
C3579 C 0.7143 0.92079 0.53219 0.0
C3580 C 0.69869 0.93043 0.5302 0.0
C3581 C 0.65641 0.96154 0.52207 0.0
C3582 C 0.67069 0.95059 0.52524 0.0
H3583 H 0.72851 0.88345 0.51315 0.0
H3584 H 0.70114 0.89656 0.51381 0.0
H3585 H 0.70297 0.9438 0.55854 0.0
H3586 H 0.65111 0.00553 0.52558 0.0
H3587 H 0.67284 0.98688 0.53571 0.0
C3588 C 0.37666 0.45997 0.7523 0.0
C3589 C 0.39478 0.46287 0.7606 0.0
C3590 C 0.36487 0.44325 0.75226 0.0
C3591 C 0.35216 0.39956 0.74479 0.0
H3592 H 0.3361 0.38717 0.79186 0.0
C3593 C 0.31352 0.32762 0.7537 0.0
C3594 C 0.29983 0.32573 0.76568 0.0
C3595 C 0.32442 0.34453 0.75253 0.0
C3596 C 0.34028 0.39043 0.77855 0.0
H3597 H 0.41514 0.45019 0.77411 0.0
H3598 H 0.39439 0.42094 0.77433 0.0
H3599 H 0.35697 0.41586 0.79061 0.0
H3600 H 0.28694 0.34049 0.78579 0.0
H3601 H 0.3056 0.37013 0.78334 0.0
H3602 H 0.33587 0.37404 0.73265 0.0
C3603 C 0.38929 0.43176 0.76817 0.0
C3604 C 0.35233 0.40685 0.7779 0.0
C3605 C 0.40113 0.44843 0.76802 0.0
C3606 C 0.29719 0.34138 0.77627 0.0
C3607 C 0.30808 0.35838 0.77503 0.0
C3608 C 0.34032 0.38299 0.74545 0.0
C3609 C 0.37102 0.42907 0.76042 0.0
C3610 C 0.35834 0.41159 0.76102 0.0
C3611 C 0.32197 0.36019 0.76323 0.0
C3612 C 0.33418 0.37815 0.76236 0.0
H3613 H 0.37157 0.47069 0.74594 0.0
H3614 H 0.35086 0.4415 0.74616 0.0
H3615 H 0.35664 0.40291 0.7316 0.0
H3616 H 0.31607 0.31593 0.74534 0.0
H3617 H 0.3351 0.3452 0.74351 0.0
C3618 C 0.21341 0.59262 0.25204 0.0
C3619 C 0.19586 0.59061 0.25751 0.0
C3620 C 0.22366 0.60979 0.25181 0.0
C3621 C 0.22622 0.65424 0.24555 0.0
H3622 H 0.24882 0.67196 0.29597 0.0
C3623 C 0.24803 0.7282 0.26562 0.0
C3624 C 0.2667 0.73287 0.27124 0.0
C3625 C 0.23897 0.71077 0.26677 0.0
C3626 C 0.24269 0.6671 0.28186 0.0
H3627 H 0.17403 0.60411 0.26439 0.0
H3628 H 0.19194 0.63447 0.26349 0.0
H3629 H 0.23541 0.63992 0.28788 0.0
H3630 H 0.29056 0.72474 0.28406 0.0
H3631 H 0.27472 0.69385 0.28585 0.0
H3632 H 0.23282 0.68155 0.23955 0.0
C3633 C 0.1979 0.62275 0.26017 0.0
C3634 C 0.23544 0.64889 0.2772 0.0
C3635 C 0.18786 0.60563 0.2609 0.0
C3636 C 0.27604 0.72099 0.27976 0.0
C3637 C 0.26701 0.70352 0.28085 0.0
C3638 C 0.23348 0.67249 0.25017 0.0
C3639 C 0.21588 0.62476 0.25613 0.0
C3640 C 0.22698 0.64259 0.2592 0.0
C3641 C 0.24879 0.69811 0.27316 0.0
C3642 C 0.24126 0.67899 0.26849 0.0
H3643 H 0.21921 0.58096 0.24809 0.0
H3644 H 0.23762 0.6114 0.2487 0.0
H3645 H 0.2194 0.64935 0.23168 0.0
H3646 H 0.24085 0.73742 0.25888 0.0
H3647 H 0.22478 0.70671 0.26107 0.0
C3648 C 0.51875 0.71421 0.47004 0.0
C3649 C 0.50548 0.71569 0.45544 0.0
C3650 C 0.52028 0.69722 0.47611 0.0
C3651 C 0.49427 0.64976 0.47735 0.0
H3652 H 0.54174 0.63767 0.48658 0.0
C3653 C 0.50153 0.577 0.49744 0.0
C3654 C 0.51823 0.57421 0.5061 0.0
C3655 C 0.49969 0.59399 0.49141 0.0
C3656 C 0.52825 0.64063 0.48455 0.0
H3657 H 0.48318 0.6999 0.4362 0.0
H3658 H 0.48531 0.6706 0.44723 0.0
H3659 H 0.53914 0.66696 0.47686 0.0
H3660 H 0.54594 0.58813 0.51527 0.0
H3661 H 0.5428 0.61707 0.50583 0.0
H3662 H 0.48327 0.62387 0.48561 0.0
C3663 C 0.49481 0.68258 0.45384 0.0
C3664 C 0.5268 0.65771 0.47875 0.0
C3665 C 0.49364 0.69949 0.44739 0.0
C3666 C 0.53284 0.58928 0.50866 0.0
C3667 C 0.531 0.60622 0.50289 0.0
C3668 C 0.49572 0.6328 0.48355 0.0
C3669 C 0.50825 0.68101 0.46825 0.0
C3670 C 0.50978 0.66266 0.47489 0.0
C3671 C 0.51444 0.60913 0.4939 0.0
C3672 C 0.51276 0.62765 0.48727 0.0
H3673 H 0.52821 0.72623 0.47662 0.0
H3674 H 0.5308 0.69684 0.48725 0.0
H3675 H 0.48087 0.65291 0.4748 0.0
H3676 H 0.48983 0.56595 0.49505 0.0
H3677 H 0.48663 0.595 0.48448 0.0
C3678 C 0.6198 0.28309 0.63665 0.0
C3679 C 0.60766 0.29362 0.6432 0.0
C3680 C 0.63568 0.28152 0.64796 0.0
C3681 C 0.65812 0.29131 0.69842 0.0
H3682 H 0.69934 0.27817 0.67647 0.0
C3683 C 0.72766 0.29224 0.74321 0.0
C3684 C 0.73778 0.27903 0.73821 0.0
C3685 C 0.71193 0.29401 0.73181 0.0
C3686 C 0.68794 0.2817 0.68296 0.0
H3687 H 0.60329 0.31116 0.66694 0.0
H3688 H 0.63108 0.30939 0.68605 0.0
H3689 H 0.67279 0.28177 0.65648 0.0
H3690 H 0.73828 0.25646 0.71782 0.0
H3691 H 0.71131 0.25967 0.6978 0.0
H3692 H 0.67361 0.2916 0.72493 0.0
C3693 C 0.62824 0.30165 0.67245 0.0
C3694 C 0.67245 0.28373 0.67136 0.0
C3695 C 0.61224 0.30293 0.66127 0.0
C3696 C 0.73141 0.26733 0.72171 0.0
C3697 C 0.71574 0.26912 0.71026 0.0
C3698 C 0.6737 0.2895 0.71 0.0
C3699 C 0.64024 0.29065 0.66624 0.0
C3700 C 0.6571 0.28857 0.67877 0.0
C3701 C 0.70571 0.28257 0.715 0.0
C3702 C 0.68894 0.2846 0.70253 0.0
H3703 H 0.61669 0.27544 0.62297 0.0
H3704 H 0.64404 0.27262 0.64241 0.0
H3705 H 0.64674 0.29458 0.7051 0.0
H3706 H 0.73209 0.30146 0.75583 0.0
H3707 H 0.70484 0.30463 0.73607 0.0
C3708 C 0.01013 0.3268 0.97357 0.0
C3709 C 0.01145 0.32341 0.95433 0.0
C3710 C 0.01165 0.34481 0.98233 0.0
C3711 C 0.00682 0.39133 0.9701 0.0
H3712 H 0.03295 0.40994 0.01861 0.0
C3713 C 0.00866 0.46596 1.00098 0.0
C3714 C 0.0239 0.47567 0.01295 0.0
C3715 C 0.00661 0.44725 0.99535 0.0
C3716 C 0.02567 0.40513 0.00495 0.0
H3717 H 0.01591 0.33727 0.92974 0.0
H3718 H 0.01831 0.36746 0.94458 0.0
H3719 H 0.03056 0.37806 0.00666 0.0
H3720 H 0.04918 0.47271 0.02812 0.0
H3721 H 0.04597 0.44039 0.01801 0.0
H3722 H 1.00233 0.41816 0.96784 0.0
C3723 C 0.01592 0.35643 0.95307 0.0
C3724 C 0.0241 0.38661 0.99817 0.0
C3725 C 0.01468 0.33877 0.9445 0.0
C3726 C 0.03716 0.46587 0.01896 0.0
C3727 C 0.0352 0.4471 0.01323 0.0
C3728 C 0.00837 0.40973 0.97681 0.0
C3729 C 0.0142 0.35996 0.97207 0.0
C3730 C 0.01483 0.37938 0.98046 0.0
C3731 C 0.01989 0.43732 1.0012 0.0
C3732 C 0.01794 0.41719 0.99434 0.0
H3733 H 0.00765 0.31558 0.98179 0.0
H3734 H 0.0103 0.3468 0.99703 0.0
H3735 H 0.9993 0.38649 0.95654 0.0
H3736 H 0.99834 0.47289 0.99559 0.0
H3737 H 0.99442 0.44061 0.98638 0.0
C3738 C 0.00662 0.78238 0.15386 0.0
C3739 C 1.00384 0.78616 0.13534 0.0
C3740 C 0.99266 0.78199 0.1654 0.0
C3741 C 0.9488 0.79698 0.17072 0.0
H3742 H 0.93934 0.75661 0.19976 0.0
C3743 C 0.8809 0.77719 0.20245 0.0
C3744 C 0.88094 0.76861 0.21872 0.0
C3745 C 0.89697 0.7818 0.19418 0.0
C3746 C 0.94192 0.76821 0.19207 0.0
H3747 H 0.9843 0.79305 0.11469 0.0
H3748 H 0.96016 0.79267 0.13482 0.0
H3749 H 0.96523 0.75993 0.18192 0.0
H3750 H 0.89782 0.75869 0.23954 0.0
H3751 H 0.92602 0.76721 0.22556 0.0
H3752 H 0.92545 0.80525 0.1808 0.0
C3753 C 0.97309 0.78993 0.14046 0.0
C3754 C 0.95683 0.77007 0.18175 0.0
C3755 C 0.98692 0.79004 0.12885 0.0
C3756 C 0.89748 0.76546 0.22708 0.0
C3757 C 0.91358 0.77013 0.21887 0.0
C3758 C 0.93395 0.79519 0.18116 0.0
C3759 C 0.97564 0.78565 0.15883 0.0
C3760 C 0.96038 0.78436 0.17075 0.0
C3761 C 0.91349 0.77787 0.20196 0.0
C3762 C 0.93013 0.78065 0.19186 0.0
H3763 H 0.01942 0.77922 0.15929 0.0
H3764 H 0.99518 0.77877 0.1795 0.0
H3765 H 0.95124 0.80831 0.16263 0.0
H3766 H 0.86825 0.77949 0.1956 0.0
H3767 H 0.89617 0.78757 0.18113 0.0
C3768 C 0.50149 0.29692 0.13788 0.0
C3769 C 0.51251 0.29449 0.15395 0.0
C3770 C 0.50425 0.31313 0.12996 0.0
C3771 C 0.52292 0.36187 0.13812 0.0
H3772 H 0.52285 0.3571 0.08453 0.0
C3773 C 0.54157 0.42402 0.09712 0.0
C3774 C 0.53517 0.4227 0.07813 0.0
C3775 C 0.53725 0.40933 0.10739 0.0
C3776 C 0.52253 0.35883 0.09943 0.0
H3777 H 0.53492 0.308 0.17447 0.0
H3778 H 0.5396 0.33682 0.16057 0.0
H3779 H 0.51972 0.33029 0.10073 0.0
H3780 H 0.51844 0.40515 0.05524 0.0
H3781 H 0.50994 0.37983 0.07327 0.0
H3782 H 0.52526 0.39037 0.13682 0.0
C3783 C 0.52882 0.32578 0.15418 0.0
C3784 C 0.52093 0.34335 0.10879 0.0
C3785 C 0.52616 0.30927 0.16214 0.0
C3786 C 0.52325 0.40674 0.06995 0.0
C3787 C 0.51878 0.39205 0.08026 0.0
C3788 C 0.5243 0.37741 0.12871 0.0
C3789 C 0.51805 0.32774 0.13776 0.0
C3790 C 0.52103 0.34461 0.12825 0.0
C3791 C 0.52635 0.3928 0.09897 0.0
C3792 C 0.52408 0.37618 0.10916 0.0
H3793 H 0.49067 0.28614 0.13104 0.0
H3794 H 0.49545 0.3142 0.11757 0.0
H3795 H 0.52284 0.36333 0.15307 0.0
H3796 H 0.55114 0.43598 0.10368 0.0
H3797 H 0.54355 0.41064 0.1216 0.0
C3798 C 0.98456 0.29579 0.32447 0.0
C3799 C 0.98989 0.30112 0.34365 0.0
C3800 C 0.96628 0.29423 0.31664 0.0
C3801 C 0.92021 0.2791 0.32285 0.0
H3802 H 0.90316 0.31704 0.29828 0.0
C3803 C 0.84221 0.27586 0.30536 0.0
C3804 C 0.83543 0.28499 0.29103 0.0
C3805 C 0.86103 0.27786 0.31076 0.0
C3806 C 0.90748 0.30604 0.30477 0.0
H3807 H 0.9794 0.30738 0.36969 0.0
H3808 H 0.94766 0.30381 0.35625 0.0
H3809 H 0.9356 0.31997 0.30846 0.0
H3810 H 0.84388 0.30322 0.27094 0.0
H3811 H 0.87647 0.30652 0.27994 0.0
H3812 H 0.89259 0.26473 0.31881 0.0
C3813 C 0.95781 0.30179 0.3471 0.0
C3814 C 0.92626 0.30785 0.31073 0.0
C3815 C 0.97609 0.30387 0.3548 0.0
C3816 C 0.84834 0.29624 0.28228 0.0
C3817 C 0.86727 0.2981 0.28754 0.0
C3818 C 0.90152 0.2771 0.31661 0.0
C3819 C 0.95261 0.29707 0.32791 0.0
C3820 C 0.93287 0.29451 0.32006 0.0
C3821 C 0.87412 0.28888 0.3019 0.0
C3822 C 0.89457 0.29067 0.3077 0.0
H3823 H 0.99441 0.29231 0.3156 0.0
H3824 H 0.96274 0.29027 0.30183 0.0
H3825 H 0.92479 0.26852 0.32993 0.0
H3826 H 0.8329 0.2671 0.3126 0.0
H3827 H 0.86517 0.27078 0.32217 0.0
C3828 C 0.01638 0.70081 0.63626 0.0
C3829 C 0.01313 0.70058 0.65503 0.0
C3830 C 0.01805 0.68502 0.62524 0.0
C3831 C 0.00538 0.63493 0.61948 0.0
H3832 H 0.04493 0.63741 0.58892 0.0
C3833 C 0.01627 0.57012 0.57443 0.0
C3834 C 0.02541 0.57176 0.55845 0.0
C3835 C 0.01488 0.58546 0.58643 0.0
C3836 C 0.03352 0.63633 0.59697 0.0
H3837 H 0.00894 0.68307 0.67673 0.0
H3838 H 0.01099 0.65518 0.65717 0.0
H3839 H 0.04211 0.66406 0.60903 0.0
H3840 H 0.04029 0.59149 0.54296 0.0
H3841 H 0.03678 0.61797 0.56276 0.0
H3842 H 0.99623 0.60753 0.607 0.0
C3843 C 0.01251 0.66782 0.6511 0.0
C3844 C 0.03202 0.65177 0.60875 0.0
C3845 C 0.01134 0.68383 0.66235 0.0
C3846 C 0.03284 0.58943 0.55481 0.0
C3847 C 0.03113 0.60481 0.56659 0.0
C3848 C 0.00666 0.61955 0.60742 0.0
C3849 C 0.0161 0.66821 0.63238 0.0
C3850 C 0.01793 0.65138 0.62023 0.0
C3851 C 0.02224 0.60322 0.58282 0.0
C3852 C 0.02078 0.61985 0.59585 0.0
H3853 H 0.0181 0.71341 0.6301 0.0
H3854 H 0.0207 0.68598 0.61096 0.0
H3855 H 0.99421 0.63406 0.62789 0.0
H3856 H 0.01033 0.55686 0.5779 0.0
H3857 H 0.00823 0.58321 0.59877 0.0
C3858 C 0.59753 0.79519 0.8485 0.0
C3859 C 0.58788 0.80783 0.84129 0.0
C3860 C 0.61424 0.79252 0.84222 0.0
C3861 C 0.65203 0.81382 0.81462 0.0
H3862 H 0.66715 0.76787 0.8167 0.0
C3863 C 0.72483 0.80525 0.79604 0.0
C3864 C 0.72806 0.78806 0.78956 0.0
C3865 C 0.70795 0.80745 0.80218 0.0
C3866 C 0.66328 0.78084 0.81573 0.0
H3867 H 0.58892 0.82735 0.82125 0.0
H3868 H 0.6174 0.82274 0.8104 0.0
H3869 H 0.63814 0.77169 0.82683 0.0
H3870 H 0.71521 0.75973 0.78523 0.0
H3871 H 0.68611 0.76341 0.79491 0.0
H3872 H 0.67676 0.8228 0.80289 0.0
C3873 C 0.61241 0.81499 0.82124 0.0
C3874 C 0.64646 0.78314 0.82193 0.0
C3875 C 0.59575 0.81761 0.82748 0.0
C3876 C 0.71355 0.77323 0.78965 0.0
C3877 C 0.69664 0.7754 0.79562 0.0
C3878 C 0.66877 0.81148 0.80832 0.0
C3879 C 0.62218 0.8024 0.82842 0.0
C3880 C 0.64038 0.79974 0.82162 0.0
C3881 C 0.69333 0.79259 0.80211 0.0
C3882 C 0.67497 0.79497 0.80877 0.0
H3883 H 0.59208 0.78715 0.85896 0.0
H3884 H 0.62102 0.78277 0.84845 0.0
H3885 H 0.64842 0.82696 0.81417 0.0
H3886 H 0.73546 0.81716 0.79654 0.0
H3887 H 0.70662 0.82097 0.80731 0.0
C3888 C 0.43185 0.51033 0.6924 0.0
C3889 C 0.44263 0.51631 0.70957 0.0
C3890 C 0.43933 0.51224 0.67547 0.0
C3891 C 0.48017 0.53656 0.65518 0.0
H3892 H 0.46319 0.49938 0.61359 0.0
C3893 C 0.50555 0.54297 0.58189 0.0
C3894 C 0.5062 0.52699 0.57061 0.0
C3895 C 0.49814 0.54222 0.59896 0.0
C3896 C 0.46835 0.50985 0.62506 0.0
H3897 H 0.46977 0.52928 0.72218 0.0
H3898 H 0.48274 0.53239 0.69305 0.0
H3899 H 0.4498 0.49691 0.64251 0.0
H3900 H 0.50074 0.49773 0.56921 0.0
H3901 H 0.48834 0.49638 0.59874 0.0
H3902 H 0.49923 0.54912 0.63796 0.0
C3903 C 0.46844 0.5264 0.69244 0.0
C3904 C 0.46035 0.50858 0.6417 0.0
C3905 C 0.46099 0.52447 0.70929 0.0
C3906 C 0.49998 0.51033 0.57723 0.0
C3907 C 0.49275 0.50956 0.59426 0.0
C3908 C 0.48827 0.53777 0.63857 0.0
C3909 C 0.45782 0.52024 0.67518 0.0
C3910 C 0.46612 0.52188 0.65712 0.0
C3911 C 0.49133 0.52546 0.60533 0.0
C3912 C 0.48257 0.52439 0.62319 0.0
H3913 H 0.41767 0.50399 0.69201 0.0
H3914 H 0.43051 0.50752 0.6626 0.0
H3915 H 0.48492 0.54729 0.66649 0.0
H3916 H 0.51026 0.55603 0.57725 0.0
H3917 H 0.49732 0.55483 0.60688 0.0
C3918 C 0.77301 0.17008 0.99595 0.0
C3919 C 0.76791 0.15116 0.992 0.0
C3920 C 0.7751 0.18086 0.98151 0.0
C3921 C 0.75955 0.17968 0.93238 0.0
H3922 H 0.79954 0.2205 0.93314 0.0
C3923 C 0.76392 0.21652 0.87007 0.0
C3924 C 0.76029 0.23387 0.87444 0.0
C3925 C 0.7709 0.20753 0.884 0.0
C3926 C 0.78847 0.20901 0.93281 0.0
H3927 H 0.76098 0.12868 0.96995 0.0
H3928 H 0.76488 0.14743 0.94491 0.0
H3929 H 0.79829 0.20222 0.95937 0.0
H3930 H 0.76328 0.25641 0.89599 0.0
H3931 H 0.77514 0.24037 0.92064 0.0
H3932 H 0.7496 0.18639 0.90607 0.0
C3933 C 0.76715 0.15394 0.95911 0.0
C3934 C 0.78763 0.19873 0.94776 0.0
C3935 C 0.76505 0.1432 0.97346 0.0
C3936 C 0.76554 0.24284 0.89249 0.0
C3937 C 0.7726 0.23383 0.90645 0.0
C3938 C 0.7605 0.18974 0.91746 0.0
C3939 C 0.77205 0.17283 0.963 0.0
C3940 C 0.77315 0.18398 0.94757 0.0
C3941 C 0.77428 0.21578 0.90242 0.0
C3942 C 0.77494 0.20443 0.91755 0.0
H3943 H 0.77526 0.17657 0.01015 0.0
H3944 H 0.77867 0.19544 0.98479 0.0
H3945 H 0.74799 0.16869 0.93214 0.0
H3946 H 0.76012 0.20938 0.85619 0.0
H3947 H 0.77219 0.19358 0.88071 0.0
C3948 C 0.14119 0.51629 0.19245 0.0
C3949 C 0.15332 0.53237 0.19938 0.0
C3950 C 0.13032 0.51532 0.17569 0.0
C3951 C 0.12006 0.54078 0.136 0.0
H3952 H 0.07083 0.51593 0.14004 0.0
C3953 C 0.05652 0.54571 0.08703 0.0
C3954 C 0.05068 0.52903 0.076 0.0
C3955 C 0.06851 0.54688 0.10311 0.0
C3956 C 0.08451 0.52302 0.13893 0.0
H3957 H 0.16476 0.55967 0.19435 0.0
H3958 H 0.14496 0.55847 0.16556 0.0
H3959 H 0.09502 0.51553 0.1646 0.0
H3960 H 0.05125 0.50044 0.07311 0.0
H3961 H 0.07149 0.50228 0.10196 0.0
H3962 H 0.10904 0.54865 0.11044 0.0
C3963 C 0.1442 0.54635 0.17248 0.0
C3964 C 0.09843 0.52255 0.15272 0.0
C3965 C 0.15552 0.54708 0.18895 0.0
C3966 C 0.05564 0.51333 0.0817 0.0
C3967 C 0.06715 0.5144 0.09801 0.0
C3968 C 0.106 0.54154 0.12236 0.0
C3969 C 0.13093 0.53072 0.16618 0.0
C3970 C 0.1164 0.53114 0.15124 0.0
C3971 C 0.07409 0.53125 0.10838 0.0
C3972 C 0.08827 0.53247 0.12375 0.0
H3973 H 0.13948 0.50483 0.20043 0.0
H3974 H 0.12066 0.50288 0.1708 0.0
H3975 H 0.13377 0.54746 0.13444 0.0
H3976 H 0.05296 0.55796 0.08246 0.0
H3977 H 0.07391 0.55996 0.11106 0.0
C3978 C 0.7826 0.84309 0.47413 0.0
C3979 C 0.78458 0.8621 0.4762 0.0
C3980 C 0.78145 0.83331 0.4563 0.0
C3981 C 0.79341 0.8409 0.40835 0.0
H3982 H 0.7618 0.79436 0.39235 0.0
C3983 C 0.79516 0.80459 0.33508 0.0
C3984 C 0.77952 0.79303 0.3256 0.0
C3985 C 0.79586 0.81149 0.35379 0.0
C3986 C 0.77061 0.80745 0.39643 0.0
H3987 H 0.78645 0.88541 0.46061 0.0
H3988 H 0.78432 0.86872 0.4304 0.0
H3989 H 0.76249 0.80879 0.42407 0.0
H3990 H 0.75183 0.78032 0.32855 0.0
H3991 H 0.75255 0.79317 0.3608 0.0
H3992 H 0.80095 0.84033 0.38086 0.0
C3993 C 0.78394 0.86121 0.44235 0.0
C3994 C 0.77119 0.81563 0.41483 0.0
C3995 C 0.78498 0.87085 0.45991 0.0
C3996 C 0.76426 0.78901 0.33537 0.0
C3997 C 0.76476 0.79628 0.35406 0.0
C3998 C 0.7927 0.8329 0.39004 0.0
C3999 C 0.78247 0.84232 0.44015 0.0
C4000 C 0.78247 0.83262 0.42102 0.0
C4001 C 0.78063 0.80768 0.36368 0.0
C4002 C 0.78128 0.81601 0.38361 0.0
H4003 H 0.78218 0.8358 0.48625 0.0
H4004 H 0.78027 0.81876 0.45523 0.0
H4005 H 0.80258 0.85379 0.41253 0.0
H4006 H 0.80697 0.80851 0.32802 0.0
H4007 H 0.80854 0.8198 0.36043 0.0
C4008 C 0.45693 0.50582 0.82087 0.0
C4009 C 0.44546 0.518 0.81697 0.0
C4010 C 0.46618 0.50661 0.83885 0.0
C4011 C 0.46387 0.52538 0.88826 0.0
H4012 H 0.50957 0.50968 0.89834 0.0
C4013 C 0.50048 0.53474 0.96329 0.0
C4014 C 0.51025 0.52173 0.9692 0.0
C4015 C 0.49369 0.53432 0.94455 0.0
C4016 C 0.4967 0.51396 0.89586 0.0
H4017 H 0.43557 0.5412 0.82854 0.0
H4018 H 0.4524 0.54339 0.85925 0.0
H4019 H 0.49655 0.50947 0.86622 0.0
H4020 H 0.52094 0.4984 0.95934 0.0
H4021 H 0.50831 0.49699 0.92691 0.0
H4022 H 0.46386 0.52979 0.91773 0.0
C4023 C 0.45375 0.53262 0.84888 0.0
C4024 C 0.48918 0.51385 0.8773 0.0
C4025 C 0.44426 0.53158 0.83111 0.0
C4026 C 0.51329 0.50847 0.95556 0.0
C4027 C 0.50617 0.50782 0.93677 0.0
C4028 C 0.47137 0.52553 0.90672 0.0
C4029 C 0.46438 0.51977 0.85334 0.0
C4030 C 0.47267 0.51972 0.87314 0.0
C4031 C 0.49611 0.52069 0.93093 0.0
C4032 C 0.488 0.51998 0.91094 0.0
H4033 H 0.4579 0.49501 0.81035 0.0
H4034 H 0.47405 0.49635 0.84153 0.0
H4035 H 0.45089 0.52947 0.88593 0.0
H4036 H 0.49812 0.54544 0.9732 0.0
H4037 H 0.48658 0.54486 0.94077 0.0
C4038 C 0.76317 0.17035 0.09735 0.0
C4039 C 0.77458 0.15785 0.09562 0.0
C4040 C 0.76311 0.18015 0.11436 0.0
C4041 C 0.77662 0.18326 0.16425 0.0
H4042 H 0.77776 0.23438 0.16091 0.0
C4043 C 0.79254 0.23816 0.22674 0.0
C4044 C 0.78053 0.25025 0.22759 0.0
C4045 C 0.79131 0.22591 0.21103 0.0
C4046 C 0.77727 0.22011 0.16196 0.0
H4047 H 0.79416 0.14471 0.10979 0.0
H4048 H 0.79484 0.16276 0.13996 0.0
H4049 H 0.77687 0.21406 0.13274 0.0
H4050 H 0.75788 0.25922 0.21305 0.0
H4051 H 0.75592 0.2378 0.18525 0.0
H4052 H 0.77739 0.1896 0.19367 0.0
C4053 C 0.78573 0.16471 0.1282 0.0
C4054 C 0.77676 0.20851 0.14593 0.0
C4055 C 0.78547 0.15456 0.11109 0.0
C4056 C 0.76737 0.25009 0.21255 0.0
C4057 C 0.76621 0.23787 0.19678 0.0
C4058 C 0.77728 0.19495 0.18037 0.0
C4059 C 0.77482 0.17785 0.12975 0.0
C4060 C 0.77619 0.18998 0.14694 0.0
C4061 C 0.77819 0.22575 0.196 0.0
C4062 C 0.77744 0.21337 0.17921 0.0
H4063 H 0.75433 0.1726 0.08547 0.0
H4064 H 0.75418 0.18979 0.11538 0.0
H4065 H 0.7761 0.169 0.16528 0.0
H4066 H 0.80287 0.23814 0.23818 0.0
H4067 H 0.80081 0.21679 0.21049 0.0
C4068 C 0.136 0.54267 0.30043 0.0
C4069 C 0.15363 0.53925 0.3037 0.0
C4070 C 0.1243 0.54054 0.31402 0.0
C4071 C 0.11537 0.5205 0.35687 0.0
H4072 H 0.09439 0.56292 0.36733 0.0
C4073 C 0.08673 0.54423 0.42407 0.0
C4074 C 0.07175 0.55275 0.42145 0.0
C4075 C 0.09386 0.53698 0.40874 0.0
C4076 C 0.09983 0.55081 0.36431 0.0
H4077 H 0.1727 0.5302 0.32325 0.0
H4078 H 0.15209 0.52658 0.34723 0.0
H4079 H 0.11332 0.56177 0.34233 0.0
H4080 H 0.05101 0.5583 0.40126 0.0
H4081 H 0.06356 0.54569 0.3744 0.0
H4082 H 0.10225 0.50996 0.37959 0.0
C4083 C 0.14739 0.53081 0.3341 0.0
C4084 C 0.11069 0.55019 0.35006 0.0
C4085 C 0.15919 0.53308 0.32052 0.0
C4086 C 0.06287 0.55225 0.40351 0.0
C4087 C 0.06991 0.5449 0.38824 0.0
C4088 C 0.10447 0.52116 0.37131 0.0
C4089 C 0.13002 0.5349 0.33105 0.0
C4090 C 0.11843 0.53502 0.34613 0.0
C4091 C 0.08603 0.53819 0.39073 0.0
C4092 C 0.09653 0.5363 0.37496 0.0
H4093 H 0.1314 0.54752 0.2876 0.0
H4094 H 0.11089 0.54369 0.31138 0.0
H4095 H 0.12133 0.5087 0.35403 0.0
H4096 H 0.09369 0.54433 0.43785 0.0
H4097 H 0.10634 0.5319 0.41093 0.0
C4098 C 0.78486 0.87141 0.60115 0.0
C4099 C 0.78535 0.8601 0.58473 0.0
C4100 C 0.78322 0.86427 0.61825 0.0
C4101 C 0.79227 0.82587 0.64319 0.0
H4102 H 0.75768 0.83881 0.67559 0.0
C4103 C 0.78143 0.79081 0.71011 0.0
C4104 C 0.77566 0.79998 0.72553 0.0
C4105 C 0.78207 0.79804 0.69304 0.0
C4106 C 0.7677 0.83521 0.66701 0.0
H4107 H 0.78464 0.83233 0.57366 0.0
H4108 H 0.78229 0.82002 0.60344 0.0
H4109 H 0.76018 0.85185 0.64634 0.0
H4110 H 0.76654 0.82443 0.73489 0.0
H4111 H 0.76853 0.8375 0.70564 0.0
H4112 H 0.80044 0.80984 0.6639 0.0
C4113 C 0.783 0.83441 0.60309 0.0
C4114 C 0.76903 0.84269 0.65006 0.0
C4115 C 0.78424 0.84147 0.58595 0.0
C4116 C 0.77083 0.81681 0.72334 0.0
C4117 C 0.77185 0.82427 0.70635 0.0
C4118 C 0.79122 0.81867 0.66027 0.0
C4119 C 0.78244 0.84567 0.61951 0.0
C4120 C 0.78124 0.83803 0.63782 0.0
C4121 C 0.77749 0.81503 0.69081 0.0
C4122 C 0.7788 0.82306 0.67252 0.0
H4123 H 0.78568 0.88581 0.60077 0.0
H4124 H 0.78294 0.87339 0.63059 0.0
H4125 H 0.80202 0.82214 0.63428 0.0
H4126 H 0.78566 0.778 0.71121 0.0
H4127 H 0.78614 0.79012 0.68159 0.0
C4128 C 0.74816 0.46318 0.4999 0.0
C4129 C 0.74825 0.44547 0.49252 0.0
C4130 C 0.73195 0.46816 0.5032 0.0
C4131 C 0.68419 0.45932 0.48946 0.0
H4132 H 0.68316 0.48339 0.53884 0.0
C4133 C 0.6221 0.4768 0.52268 0.0
C4134 C 0.62527 0.49357 0.53357 0.0
C4135 C 0.63603 0.47159 0.5136 0.0
C4136 C 0.68341 0.47691 0.52493 0.0
H4137 H 0.73192 0.41897 0.48244 0.0
H4138 H 0.70292 0.42797 0.48785 0.0
H4139 H 0.70949 0.4707 0.53204 0.0
H4140 H 0.64423 0.51887 0.54248 0.0
H4141 H 0.66894 0.50958 0.52686 0.0
H4142 H 0.6579 0.46554 0.4825 0.0
C4143 C 0.71553 0.43784 0.49113 0.0
C4144 C 0.69829 0.46953 0.52114 0.0
C4145 C 0.73193 0.43274 0.48811 0.0
C4146 C 0.6418 0.50577 0.53421 0.0
C4147 C 0.65577 0.50053 0.52528 0.0
C4148 C 0.66916 0.46668 0.49331 0.0
C4149 C 0.71561 0.45551 0.49897 0.0
C4150 C 0.69888 0.46102 0.50332 0.0
C4151 C 0.65316 0.4831 0.51567 0.0
C4152 C 0.66892 0.47578 0.51097 0.0
H4153 H 0.76062 0.47305 0.50371 0.0
H4154 H 0.73218 0.48188 0.5092 0.0
H4155 H 0.68461 0.45285 0.47561 0.0
H4156 H 0.6092 0.46746 0.52196 0.0
H4157 H 0.63388 0.45809 0.50625 0.0
C4158 C 0.21364 0.12737 0.51085 0.0
C4159 C 0.21437 0.14477 0.50531 0.0
C4160 C 0.19692 0.11576 0.51135 0.0
C4161 C 0.15098 0.11514 0.52113 0.0
H4162 H 0.13758 0.06796 0.49196 0.0
C4163 C 0.09088 0.058 0.53311 0.0
C4164 C 0.07742 0.05315 0.51773 0.0
C4165 C 0.10772 0.06895 0.53145 0.0
C4166 C 0.14119 0.08109 0.50019 0.0
H4167 H 0.19813 0.16429 0.49775 0.0
H4168 H 0.16876 0.14429 0.49968 0.0
H4169 H 0.1668 0.08784 0.48922 0.0
H4170 H 0.07129 0.055 0.48838 0.0
H4171 H 0.1013 0.07315 0.48515 0.0
H4172 H 0.12567 0.10815 0.53258 0.0
C4173 C 0.18121 0.13934 0.50259 0.0
C4174 C 0.15787 0.09242 0.49865 0.0
C4175 C 0.19798 0.15074 0.50146 0.0
C4176 C 0.08141 0.0587 0.50046 0.0
C4177 C 0.09853 0.06903 0.49862 0.0
C4178 C 0.13453 0.10362 0.52304 0.0
C4179 C 0.18053 0.12167 0.50739 0.0
C4180 C 0.16284 0.10963 0.50897 0.0
C4181 C 0.11172 0.07456 0.51418 0.0
C4182 C 0.12941 0.08654 0.51248 0.0
H4183 H 0.22602 0.12284 0.51517 0.0
H4184 H 0.19682 0.10235 0.51545 0.0
H4185 H 0.15457 0.12826 0.52937 0.0
H4186 H 0.08808 0.05397 0.54661 0.0
H4187 H 0.11764 0.07303 0.54365 0.0
C4188 C 0.17243 0.99576 0.77708 0.0
C4189 C 0.15718 0.99529 0.78676 0.0
C4190 C 0.18064 0.98074 0.77501 0.0
C4191 C 0.18422 0.93786 0.79531 0.0
H4192 H 0.21005 0.93035 0.75255 0.0
C4193 C 0.21755 0.87544 0.77482 0.0
C4194 C 0.23442 0.87969 0.7679 0.0
C4195 C 0.20819 0.8892 0.77994 0.0
C4196 C 0.20302 0.93236 0.76467 0.0
H4197 H 0.13817 0.97868 0.80156 0.0
H4198 H 0.15191 0.95181 0.79711 0.0
H4199 H 0.19194 0.95367 0.75381 0.0
H4200 H 0.25529 0.9015 0.76202 0.0
H4201 H 0.23916 0.92549 0.77111 0.0
H4202 H 0.19502 0.91585 0.80568 0.0
C4203 C 0.15786 0.96398 0.79147 0.0
C4204 C 0.19263 0.94581 0.76545 0.0
C4205 C 0.14976 0.97922 0.79375 0.0
C4206 C 0.24244 0.89793 0.76761 0.0
C4207 C 0.23308 0.91161 0.77256 0.0
C4208 C 0.19441 0.92411 0.79435 0.0
C4209 C 0.17366 0.96465 0.78235 0.0
C4210 C 0.18334 0.94907 0.78094 0.0
C4211 C 0.21551 0.90734 0.77794 0.0
C4212 C 0.20421 0.92147 0.77917 0.0
H4213 H 0.17846 0.00805 0.77169 0.0
H4214 H 0.19293 0.98211 0.76826 0.0
H4215 H 0.17746 0.94 0.80757 0.0
H4216 H 0.21093 0.86143 0.77476 0.0
H4217 H 0.19465 0.88553 0.78401 0.0
C4218 C 0.34313 0.95992 0.0135 0.0
C4219 C 0.34032 0.94223 0.00458 0.0
C4220 C 0.36062 0.96983 0.01813 0.0
C4221 C 0.40372 0.9726 0.0353 0.0
H4222 H 0.42254 1.00193 0.99784 0.0
C4223 C 0.47808 0.99985 0.02937 0.0
C4224 C 0.48284 0.01734 0.02422 0.0
C4225 C 0.46018 0.99277 0.03129 0.0
C4226 C 0.41725 0.99413 0.00855 0.0
H4227 H 0.35297 0.92017 0.99489 0.0
H4228 H 0.38415 0.93775 0.00336 0.0
H4229 H 0.39199 0.9833 0.99178 0.0
H4230 H 0.47314 0.04154 0.01774 0.0
H4231 H 0.44136 0.02876 0.02054 0.0
H4232 H 0.42928 0.98289 0.05186 0.0
C4233 C 0.37267 0.94392 0.00617 0.0
C4234 C 0.40001 0.98343 0.00499 0.0
C4235 C 0.35508 0.93404 1.00128 0.0
C4236 C 0.46967 0.02801 0.02178 0.0
C4237 C 0.45164 0.02081 0.02344 0.0
C4238 C 0.42106 0.98325 0.03887 0.0
C4239 C 0.3753 0.96181 0.01443 0.0
C4240 C 0.39337 0.97263 0.01829 0.0
C4241 C 0.44684 1.00301 0.02773 0.0
C4242 C 0.42787 0.99396 0.02544 0.0
H4243 H 0.33182 0.96605 0.01699 0.0
H4244 H 0.36271 0.9837 0.02454 0.0
H4245 H 0.39845 0.96425 0.04562 0.0
H4246 H 0.48792 0.99117 0.03075 0.0
H4247 H 0.45659 0.97884 0.03416 0.0
C4248 C 0.86927 0.57406 0.8134 0.0
C4249 C 0.85821 0.55766 0.80534 0.0
C4250 C 0.86391 0.59026 0.81032 0.0
C4251 C 0.83861 0.60823 0.77507 0.0
H4252 H 0.82941 0.64389 0.81315 0.0
C4253 C 0.79808 0.65888 0.75454 0.0
C4254 C 0.80769 0.67669 0.75884 0.0
C4255 C 0.80348 0.64537 0.76399 0.0
C4256 C 0.83205 0.634 0.80251 0.0
H4257 H 0.83361 0.54477 0.78749 0.0
H4258 H 0.82412 0.57294 0.78222 0.0
H4259 H 0.84274 0.61824 0.82231 0.0
H4260 H 0.82881 0.69519 0.77728 0.0
H4261 H 0.83898 0.67115 0.79346 0.0
H4262 H 0.82778 0.6235 0.75527 0.0
C4263 C 0.83666 0.57338 0.7911 0.0
C4264 C 0.83973 0.61959 0.80769 0.0
C4265 C 0.84192 0.55733 0.79429 0.0
C4266 C 0.82173 0.68128 0.77358 0.0
C4267 C 0.82728 0.66771 0.78295 0.0
C4268 C 0.83094 0.62247 0.76994 0.0
C4269 C 0.84773 0.58987 0.79889 0.0
C4270 C 0.84255 0.60647 0.79393 0.0
C4271 C 0.81864 0.64965 0.77759 0.0
C4272 C 0.82719 0.63513 0.78361 0.0
H4273 H 0.88202 0.57429 0.82181 0.0
H4274 H 0.87258 0.603 0.81626 0.0
H4275 H 0.84098 0.59826 0.76433 0.0
H4276 H 0.78677 0.65542 0.74357 0.0
H4277 H 0.7965 0.63146 0.75998 0.0
C4278 C 0.81491 0.64652 0.02395 0.0
C4279 C 0.80901 0.65011 0.00605 0.0
C4280 C 0.82988 0.63818 0.02693 0.0
C4281 C 0.85968 0.61211 1.00101 0.0
H4282 H 0.88715 0.61861 0.04988 0.0
C4283 C 0.92756 0.58666 0.01962 0.0
C4284 C 0.92916 0.57956 0.03675 0.0
C4285 C 0.91236 0.59407 0.01426 0.0
C4286 C 0.87953 0.61655 0.03616 0.0
H4287 H 0.81439 0.64834 0.97732 0.0
H4288 H 0.84143 0.63529 0.98266 0.0
H4289 H 0.86328 0.63551 0.04415 0.0
H4290 H 0.9156 0.57322 0.0609 0.0
H4291 H 0.88903 0.58587 0.05149 0.0
H4292 H 0.87683 0.59363 0.99305 0.0
C4293 C 0.83414 0.63806 0.99438 0.0
C4294 C 0.86567 0.62619 0.03285 0.0
C4295 C 0.8188 0.64588 0.99131 0.0
C4296 C 0.91479 0.57886 0.04776 0.0
C4297 C 0.89965 0.58617 0.04241 0.0
C4298 C 0.87389 0.60273 0.00426 0.0
C4299 C 0.83971 0.63365 0.01217 0.0
C4300 C 0.85527 0.62398 0.0153 0.0
C4301 C 0.89855 0.59445 0.02595 0.0
C4302 C 0.88377 0.60464 0.02197 0.0
H4303 H 0.80728 0.64914 0.03545 0.0
H4304 H 0.83319 0.63467 0.04075 0.0
H4305 H 0.85196 0.60966 0.98737 0.0
H4306 H 0.93851 0.5874 0.01093 0.0
H4307 H 0.91188 0.60036 1.0015 0.0
C4308 C 0.17775 0.08948 0.78794 0.0
C4309 C 0.15991 0.08865 0.79248 0.0
C4310 C 0.18921 0.10611 0.78684 0.0
C4311 C 0.18949 0.15149 0.77453 0.0
H4312 H 0.23691 0.16494 0.80369 0.0
C4313 C 0.24485 0.21277 0.76157 0.0
C4314 C 0.25313 0.22444 0.77752 0.0
C4315 C 0.23363 0.19605 0.7632 0.0
C4316 C 0.22371 0.1614 0.79544 0.0
H4317 H 0.1395 0.10468 0.79744 0.0
H4318 H 0.15925 0.13382 0.79445 0.0
H4319 H 0.21668 0.13641 0.80724 0.0
H4320 H 0.2564 0.22784 0.80758 0.0
H4321 H 0.23758 0.19832 0.81051 0.0
H4322 H 0.19665 0.17632 0.76245 0.0
C4323 C 0.16466 0.12155 0.79284 0.0
C4324 C 0.21216 0.14503 0.79744 0.0
C4325 C 0.1534 0.10489 0.79463 0.0
C4326 C 0.25043 0.21891 0.79509 0.0
C4327 C 0.23959 0.20205 0.79673 0.0
C4328 C 0.20121 0.16772 0.77224 0.0
C4329 C 0.18277 0.12235 0.78911 0.0
C4330 C 0.19488 0.13993 0.7871 0.0
C4331 C 0.23078 0.1905 0.78083 0.0
C4332 C 0.21846 0.17294 0.78275 0.0
H4333 H 0.18272 0.0772 0.78463 0.0
H4334 H 0.20295 0.10622 0.78353 0.0
H4335 H 0.17632 0.14784 0.76625 0.0
H4336 H 0.24641 0.21692 0.74786 0.0
H4337 H 0.2271 0.1875 0.75066 0.0
C4338 C 0.34631 0.96356 0.28382 0.0
C4339 C 0.36443 0.96772 0.29194 0.0
C4340 C 0.33737 0.94568 0.28014 0.0
C4341 C 0.3382 0.90367 0.26301 0.0
H4342 H 0.31085 0.88172 0.30043 0.0
C4343 C 0.31311 0.82786 0.26525 0.0
C4344 C 0.29527 0.82263 0.26957 0.0
C4345 C 0.32046 0.846 0.26503 0.0
C4346 C 0.31823 0.88785 0.28981 0.0
H4347 H 0.38811 0.95712 0.30133 0.0
H4348 H 0.37235 0.92533 0.29441 0.0
H4349 H 0.32705 0.91323 0.30682 0.0
H4350 H 0.27074 0.83185 0.27614 0.0
H4351 H 0.28393 0.86384 0.27625 0.0
H4352 H 0.32964 0.87821 0.24607 0.0
C4353 C 0.36505 0.93603 0.29159 0.0
C4354 C 0.3275 0.90562 0.29353 0.0
C4355 C 0.37392 0.95397 0.29555 0.0
C4356 C 0.28454 0.83563 0.27274 0.0
C4357 C 0.29201 0.85381 0.27282 0.0
C4358 C 0.32896 0.88584 0.25929 0.0
C4359 C 0.34681 0.932 0.28398 0.0
C4360 C 0.33745 0.91344 0.28012 0.0
C4361 C 0.31012 0.85901 0.26944 0.0
C4362 C 0.31892 0.87795 0.27267 0.0
H4363 H 0.33916 0.9741 0.28009 0.0
H4364 H 0.32324 0.94249 0.27414 0.0
H4365 H 0.34591 0.90984 0.25263 0.0
H4366 H 0.32182 0.81815 0.26326 0.0
H4367 H 0.33458 0.84992 0.26268 0.0
C4368 C 0.55765 0.35019 0.59861 0.0
C4369 C 0.54851 0.33403 0.58769 0.0
C4370 C 0.55677 0.36747 0.59272 0.0
C4371 C 0.54077 0.38974 0.55008 0.0
H4372 H 0.54738 0.4323 0.58588 0.0
C4373 C 0.52449 0.45814 0.52746 0.0
C4374 C 0.53396 0.47486 0.53704 0.0
C4375 C 0.52659 0.44143 0.53376 0.0
C4376 C 0.54563 0.42069 0.57551 0.0
H4377 H 0.53139 0.32415 0.56157 0.0
H4378 H 0.5294 0.35324 0.55194 0.0
H4379 H 0.55076 0.40344 0.59641 0.0
H4380 H 0.55336 0.48644 0.56102 0.0
H4381 H 0.55776 0.4577 0.57142 0.0
H4382 H 0.53548 0.40692 0.52921 0.0
C4383 C 0.53773 0.35305 0.56487 0.0
C4384 C 0.54763 0.40384 0.58165 0.0
C4385 C 0.53872 0.33598 0.57064 0.0
C4386 C 0.5458 0.47406 0.5531 0.0
C4387 C 0.54815 0.45735 0.55926 0.0
C4388 C 0.53864 0.4065 0.54398 0.0
C4389 C 0.54668 0.36935 0.57567 0.0
C4390 C 0.54515 0.38784 0.56912 0.0
C4391 C 0.53853 0.44057 0.54981 0.0
C4392 C 0.54096 0.42243 0.55652 0.0
H4393 H 0.56528 0.34953 0.61185 0.0
H4394 H 0.56415 0.37935 0.60162 0.0
H4395 H 0.53919 0.3783 0.53954 0.0
H4396 H 0.51532 0.45785 0.51501 0.0
H4397 H 0.51855 0.42914 0.52604 0.0
C4398 C 0.44033 0.76954 0.41509 0.0
C4399 C 0.45505 0.76272 0.40889 0.0
C4400 C 0.42457 0.76924 0.40278 0.0
C4401 C 0.40318 0.75335 0.35207 0.0
H4402 H 0.37113 0.7855 0.36572 0.0
C4403 C 0.33717 0.75488 0.30322 0.0
C4404 C 0.32903 0.77011 0.30487 0.0
C4405 C 0.35238 0.75368 0.31561 0.0
C4406 C 0.38 0.77663 0.36128 0.0
H4407 H 0.46379 0.74808 0.3856 0.0
H4408 H 0.43747 0.74838 0.36404 0.0
H4409 H 0.39704 0.78409 0.38699 0.0
H4410 H 0.33111 0.79649 0.32006 0.0
H4411 H 0.3579 0.79502 0.34094 0.0
H4412 H 0.38694 0.74719 0.32565 0.0
C4413 C 0.43746 0.75414 0.37819 0.0
C4414 C 0.39495 0.77542 0.37397 0.0
C4415 C 0.45299 0.75418 0.3906 0.0
C4416 C 0.33683 0.78439 0.31873 0.0
C4417 C 0.35225 0.7834 0.33087 0.0
C4418 C 0.38855 0.75501 0.33916 0.0
C4419 C 0.42301 0.76218 0.38376 0.0
C4420 C 0.40684 0.76355 0.36987 0.0
C4421 C 0.36026 0.7679 0.32982 0.0
C4422 C 0.37645 0.76653 0.34352 0.0
H4423 H 0.44123 0.77569 0.42931 0.0
H4424 H 0.41377 0.77479 0.40842 0.0
H4425 H 0.41142 0.74382 0.3478 0.0
H4426 H 0.33148 0.74368 0.29261 0.0
H4427 H 0.35762 0.74133 0.31415 0.0
C4428 C 0.037 0.72259 0.10407 0.0
C4429 C 0.04471 0.73697 0.09463 0.0
C4430 C 0.03535 0.70439 0.09657 0.0
C4431 C 0.0416 0.67397 0.05328 0.0
H4432 H 0.04025 0.63857 0.08848 0.0
C4433 C 0.04751 0.59752 0.03262 0.0
C4434 C 0.03694 0.58411 0.04144 0.0
C4435 C 0.0486 0.61624 0.03815 0.0
C4436 C 0.04043 0.64812 0.07829 0.0
H4437 H 0.0574 0.74319 0.06998 0.0
H4438 H 0.05513 0.71169 0.0571 0.0
H4439 H 0.04157 0.66997 0.09949 0.0
H4440 H 0.01918 0.58058 0.06312 0.0
H4441 H 0.02066 0.61247 0.07223 0.0
H4442 H 0.04107 0.65176 0.03215 0.0
C4443 C 0.0496 0.71425 0.07005 0.0
C4444 C 0.04107 0.66644 0.08467 0.0
C4445 C 0.05094 0.73252 0.07746 0.0
C4446 C 0.02748 0.5902 0.05584 0.0
C4447 C 0.0285 0.60874 0.06128 0.0
C4448 C 0.0412 0.65557 0.04691 0.0
C4449 C 0.042 0.69969 0.07957 0.0
C4450 C 0.04148 0.67986 0.07236 0.0
C4451 C 0.03916 0.62223 0.0527 0.0
C4452 C 0.0404 0.64221 0.05929 0.0
H4453 H 0.03214 0.72543 0.11737 0.0
H4454 H 0.02883 0.69404 0.10433 0.0
H4455 H 0.0417 0.68346 0.04305 0.0
H4456 H 0.05488 0.59362 0.02135 0.0
H4457 H 0.05706 0.62603 0.03115 0.0
C4458 C 0.04958 0.25754 0.89325 0.0
C4459 C 0.04953 0.26888 0.90971 0.0
C4460 C 0.06538 0.25813 0.88444 0.0
C4461 C 0.10899 0.28966 0.88104 0.0
H4462 H 0.11896 0.24863 0.85044 0.0
C4463 C 0.17218 0.29698 0.84104 0.0
C4464 C 0.16935 0.28926 0.82239 0.0
C4465 C 0.15888 0.29264 0.85301 0.0
C4466 C 0.11635 0.26025 0.85885 0.0
H4467 H 0.06613 0.28951 0.93008 0.0
H4468 H 0.09405 0.29019 0.91516 0.0
H4469 H 0.09389 0.24427 0.86953 0.0
H4470 H 0.15067 0.2706 0.80175 0.0
H4471 H 0.12742 0.26283 0.82264 0.0
H4472 H 0.13136 0.30564 0.87029 0.0
C4473 C 0.08178 0.2809 0.90885 0.0
C4474 C 0.1019 0.25777 0.86983 0.0
C4475 C 0.06588 0.2803 0.91766 0.0
C4476 C 0.15326 0.27657 0.81613 0.0
C4477 C 0.13996 0.27214 0.82813 0.0
C4478 C 0.12349 0.2921 0.87019 0.0
C4479 C 0.08166 0.2702 0.89178 0.0
C4480 C 0.09788 0.27247 0.88102 0.0
C4481 C 0.14236 0.28049 0.84663 0.0
C4482 C 0.12734 0.27748 0.85883 0.0
H4483 H 0.03707 0.24882 0.88664 0.0
H4484 H 0.06448 0.24982 0.87129 0.0
H4485 H 0.10619 0.30144 0.88901 0.0
H4486 H 0.18442 0.3069 0.84616 0.0
H4487 H 0.16138 0.29912 0.86721 0.0
C4488 C 0.5325 0.73669 0.87927 0.0
C4489 C 0.5383 0.75408 0.88914 0.0
C4490 C 0.53145 0.72109 0.88866 0.0
C4491 C 0.52754 0.70705 0.9362 0.0
H4492 H 0.54175 0.66306 0.91647 0.0
C4493 C 0.52765 0.64836 0.98109 0.0
C4494 C 0.52022 0.63083 0.97231 0.0
C4495 C 0.53222 0.66282 0.97057 0.0
C4496 C 0.53759 0.67519 0.92217 0.0
H4497 H 0.5479 0.76848 0.91663 0.0
H4498 H 0.54617 0.74173 0.93264 0.0
H4499 H 0.54414 0.68894 0.8984 0.0
H4500 H 0.51218 0.61465 0.94564 0.0
H4501 H 0.52031 0.63974 0.92721 0.0
H4502 H 0.52075 0.69345 0.95978 0.0
C4503 C 0.54217 0.73996 0.91777 0.0
C4504 C 0.53893 0.69005 0.91174 0.0
C4505 C 0.5433 0.7554 0.90847 0.0
C4506 C 0.51839 0.62791 0.95278 0.0
C4507 C 0.52294 0.64238 0.94222 0.0
C4508 C 0.52619 0.69227 0.94657 0.0
C4509 C 0.53601 0.72255 0.90813 0.0
C4510 C 0.53404 0.70627 0.91868 0.0
C4511 C 0.52926 0.66021 0.95095 0.0
C4512 C 0.53129 0.67611 0.93982 0.0
H4513 H 0.52852 0.73514 0.8644 0.0
H4514 H 0.52659 0.70792 0.88074 0.0
H4515 H 0.52322 0.7191 0.9419 0.0
H4516 H 0.52878 0.6511 0.9961 0.0
H4517 H 0.53739 0.67622 0.97788 0.0
C4518 C 0.07432 0.75811 0.72303 0.0
C4519 C 0.06969 0.76089 0.7044 0.0
C4520 C 0.09267 0.75901 0.73034 0.0
C4521 C 0.13741 0.75234 0.71569 0.0
H4522 H 0.15901 0.77918 0.76311 0.0
C4523 C 0.21158 0.74966 0.74862 0.0
C4524 C 0.22268 0.76624 0.75661 0.0
C4525 C 0.19276 0.74829 0.74302 0.0
C4526 C 0.15327 0.77157 0.74982 0.0
H4527 H 0.08111 0.76576 0.67872 0.0
H4528 H 0.11264 0.76658 0.69109 0.0
H4529 H 0.12701 0.77854 0.75216 0.0
H4530 H 0.22211 0.79434 0.76518 0.0
H4531 H 0.18969 0.79192 0.75586 0.0
H4532 H 0.16356 0.74528 0.71334 0.0
C4533 C 0.1022 0.76431 0.70033 0.0
C4534 C 0.13477 0.77112 0.74358 0.0
C4535 C 0.08401 0.76394 0.69322 0.0
C4536 C 0.21418 0.78129 0.75908 0.0
C4537 C 0.19541 0.77988 0.75381 0.0
C4538 C 0.15578 0.75251 0.72209 0.0
C4539 C 0.10694 0.76182 0.71901 0.0
C4540 C 0.12654 0.76169 0.72626 0.0
C4541 C 0.18428 0.76341 0.74552 0.0
C4542 C 0.16419 0.76231 0.73918 0.0
H4543 H 0.06372 0.75468 0.73184 0.0
H4544 H 0.09558 0.75681 0.74473 0.0
H4545 H 0.13166 0.74476 0.70239 0.0
H4546 H 0.21751 0.73785 0.74616 0.0
H4547 H 0.18481 0.73531 0.73678 0.0
C4548 C 0.04261 0.35361 0.4093 0.0
C4549 C 0.04587 0.35554 0.39075 0.0
C4550 C 0.04224 0.36879 0.42203 0.0
C4551 C 0.03863 0.4182 0.42363 0.0
H4552 H 0.05197 0.4187 0.47653 0.0
C4553 C 0.04771 0.48361 0.47618 0.0
C4554 C 0.0399 0.48193 0.49297 0.0
C4555 C 0.04859 0.46824 0.46401 0.0
C4556 C 0.04809 0.41877 0.4618 0.0
H4557 H 0.05178 0.37541 0.37146 0.0
H4558 H 0.05186 0.40161 0.39352 0.0
H4559 H 0.05362 0.39225 0.45524 0.0
H4560 H 0.02622 0.46219 0.5093 0.0
H4561 H 0.02884 0.43562 0.48885 0.0
H4562 H 0.03353 0.44494 0.43028 0.0
C4563 C 0.04901 0.38837 0.39827 0.0
C4564 C 0.04895 0.40348 0.44949 0.0
C4565 C 0.04921 0.37322 0.38555 0.0
C4566 C 0.03311 0.46426 0.4971 0.0
C4567 C 0.03438 0.4489 0.48515 0.0
C4568 C 0.03804 0.43356 0.43592 0.0
C4569 C 0.04525 0.38649 0.41672 0.0
C4570 C 0.04427 0.40287 0.43011 0.0
C4571 C 0.04201 0.45061 0.46832 0.0
C4572 C 0.04276 0.43413 0.45521 0.0
H4573 H 0.0398 0.34028 0.4139 0.0
H4574 H 0.03908 0.36648 0.43591 0.0
H4575 H 0.03437 0.41834 0.40901 0.0
H4576 H 0.05301 0.49688 0.4723 0.0
H4577 H 0.05461 0.47018 0.45123 0.0
C4578 C 0.45907 0.24465 0.21717 0.0
C4579 C 0.46397 0.25287 0.20127 0.0
C4580 C 0.44317 0.24736 0.2253 0.0
C4581 C 0.39929 0.26523 0.21411 0.0
H4582 H 0.39264 0.25913 0.26532 0.0
C4583 C 0.33196 0.27832 0.24242 0.0
C4584 C 0.32639 0.27142 0.25867 0.0
C4585 C 0.34907 0.27686 0.2366 0.0
C4586 C 0.39389 0.26078 0.25088 0.0
H4587 H 0.45612 0.27113 0.18228 0.0
H4588 H 0.42973 0.27667 0.19669 0.0
H4589 H 0.42096 0.25514 0.25372 0.0
H4590 H 0.33479 0.25752 0.28158 0.0
H4591 H 0.36388 0.25389 0.27113 0.0
H4592 H 0.37239 0.27041 0.21087 0.0
C4593 C 0.43734 0.26739 0.20263 0.0
C4594 C 0.4105 0.25846 0.24413 0.0
C4595 C 0.45288 0.26442 0.1944 0.0
C4596 C 0.33858 0.26304 0.26899 0.0
C4597 C 0.35553 0.26109 0.26291 0.0
C4598 C 0.38275 0.26745 0.22078 0.0
C4599 C 0.43166 0.25854 0.21795 0.0
C4600 C 0.41371 0.26076 0.22556 0.0
C4601 C 0.36128 0.26786 0.24643 0.0
C4602 C 0.37949 0.26541 0.23939 0.0
H4603 H 0.46703 0.23547 0.22281 0.0
H4604 H 0.43962 0.24013 0.23697 0.0
H4605 H 0.40044 0.26667 0.1996 0.0
H4606 H 0.32308 0.28509 0.23421 0.0
H4607 H 0.35256 0.28302 0.22431 0.0
C4608 C 0.59839 0.53846 0.33898 0.0
C4609 C 0.6146 0.53189 0.33792 0.0
C4610 C 0.58882 0.5365 0.35464 0.0
C4611 C 0.58414 0.51067 0.3961 0.0
H4612 H 0.56569 0.55168 0.41704 0.0
C4613 C 0.5608 0.51442 0.47036 0.0
C4614 C 0.5458 0.52254 0.47331 0.0
C4615 C 0.56832 0.51489 0.45338 0.0
C4616 C 0.57052 0.53996 0.41131 0.0
H4617 H 0.633 0.51752 0.35233 0.0
H4618 H 0.61636 0.51391 0.37922 0.0
H4619 H 0.57948 0.55325 0.3881 0.0
H4620 H 0.52709 0.53762 0.46055 0.0
H4621 H 0.53997 0.53828 0.43109 0.0
H4622 H 0.57525 0.49739 0.41933 0.0
C4623 C 0.61095 0.52061 0.36807 0.0
C4624 C 0.57845 0.54087 0.39461 0.0
C4625 C 0.62059 0.52277 0.35261 0.0
C4626 C 0.53858 0.53115 0.45881 0.0
C4627 C 0.54611 0.53167 0.44189 0.0
C4628 C 0.57618 0.50974 0.41278 0.0
C4629 C 0.59505 0.52767 0.36953 0.0
C4630 C 0.58554 0.5263 0.38679 0.0
C4631 C 0.56114 0.52359 0.43887 0.0
C4632 C 0.56934 0.52442 0.42077 0.0
H4633 H 0.59345 0.54569 0.32804 0.0
H4634 H 0.57657 0.54199 0.35511 0.0
H4635 H 0.58913 0.49902 0.39044 0.0
H4636 H 0.56674 0.50769 0.4812 0.0
H4637 H 0.57999 0.50868 0.45178 0.0
C4638 C 0.28554 0.88211 0.04809 0.0
C4639 C 0.28696 0.90094 0.0491 0.0
C4640 C 0.28712 0.87382 0.06415 0.0
C4641 C 0.28095 0.87568 0.11219 0.0
H4642 H 0.31525 0.84327 0.11278 0.0
C4643 C 0.30223 0.83542 0.17237 0.0
C4644 C 0.30535 0.81814 0.16652 0.0
C4645 C 0.29657 0.84614 0.15928 0.0
C4646 C 0.3055 0.85214 0.1127 0.0
H4647 H 0.29083 0.92591 0.0676 0.0
H4648 H 0.29309 0.91101 0.09623 0.0
H4649 H 0.31412 0.86279 0.08821 0.0
H4650 H 0.30272 0.79745 0.14318 0.0
H4651 H 0.29269 0.81614 0.12026 0.0
H4652 H 0.27222 0.86468 0.13673 0.0
C4653 C 0.29086 0.9029 0.0828 0.0
C4654 C 0.30501 0.86341 0.09881 0.0
C4655 C 0.28957 0.91135 0.06655 0.0
C4656 C 0.3008 0.81092 0.14784 0.0
C4657 C 0.29505 0.82156 0.13482 0.0
C4658 C 0.28147 0.86434 0.12624 0.0
C4659 C 0.28996 0.88413 0.08158 0.0
C4660 C 0.29241 0.87487 0.09816 0.0
C4661 C 0.29399 0.83959 0.14033 0.0
C4662 C 0.2934 0.85214 0.1262 0.0
H4663 H 0.28382 0.87375 0.03484 0.0
H4664 H 0.28629 0.8593 0.06293 0.0
H4665 H 0.2711 0.88443 0.11179 0.0
H4666 H 0.30555 0.84117 0.1868 0.0
H4667 H 0.29575 0.86 0.16379 0.0
C4668 C 0.90325 0.52373 0.86828 0.0
C4669 C 0.90796 0.52144 0.85013 0.0
C4670 C 0.91663 0.52622 0.88333 0.0
C4671 C 0.96191 0.51721 0.8954 0.0
H4672 H 0.96189 0.55104 0.9389 0.0
C4673 C 1.00406 0.51583 0.96427 0.0
C4674 C 0.00995 0.53215 0.97575 0.0
C4675 C 0.99321 0.51549 0.9477 0.0
C4676 C 0.96232 0.54182 0.92668 0.0
H4677 H 0.93025 0.52034 0.83336 0.0
H4678 H 0.95352 0.52513 0.85961 0.0
H4679 H 0.93922 0.54918 0.91234 0.0
H4680 H 0.01101 0.56105 0.97902 0.0
H4681 H 0.99302 0.5608 0.94921 0.0
H4682 H 0.98544 0.51036 0.90931 0.0
C4683 C 0.93953 0.52468 0.86221 0.0
C4684 C 0.94914 0.54053 0.91168 0.0
C4685 C 0.92621 0.52211 0.84721 0.0
C4686 C 0.00621 0.54835 0.97019 0.0
C4687 C 0.99588 0.54814 0.95332 0.0
C4688 C 0.97533 0.51878 0.91021 0.0
C4689 C 0.93479 0.52648 0.88033 0.0
C4690 C 0.94881 0.52813 0.89604 0.0
C4691 C 0.98874 0.53161 0.9423 0.0
C4692 C 0.97552 0.53096 0.92603 0.0
H4693 H 0.88926 0.52334 0.87085 0.0
H4694 H 0.91271 0.52747 0.89727 0.0
H4695 H 0.96169 0.50731 0.88354 0.0
H4696 H 0.00686 0.50323 0.96868 0.0
H4697 H 0.98763 0.50251 0.93964 0.0
C4698 C 0.27679 0.18861 0.58077 0.0
C4699 C 0.2689 0.19608 0.56577 0.0
C4700 C 0.27753 0.19667 0.59919 0.0
C4701 C 0.25428 0.22517 0.62914 0.0
H4702 H 0.29881 0.23386 0.66297 0.0
C4703 C 0.25975 0.26247 0.7047 0.0
C4704 C 0.27059 0.25656 0.71884 0.0
C4705 C 0.25952 0.25581 0.68583 0.0
C4706 C 0.28612 0.23132 0.65388 0.0
H4707 H 0.25528 0.21762 0.55843 0.0
H4708 H 0.25585 0.2312 0.59051 0.0
H4709 H 0.29842 0.22036 0.63106 0.0
H4710 H 0.28974 0.23885 0.72372 0.0
H4711 H 0.28935 0.22747 0.69151 0.0
H4712 H 0.2418 0.23565 0.65201 0.0
C4713 C 0.26182 0.21935 0.58807 0.0
C4714 C 0.28596 0.22359 0.63548 0.0
C4715 C 0.26161 0.21165 0.56966 0.0
C4716 C 0.28122 0.2439 0.71344 0.0
C4717 C 0.2811 0.23738 0.69473 0.0
C4718 C 0.25437 0.2327 0.64764 0.0
C4719 C 0.26984 0.21204 0.60314 0.0
C4720 C 0.27003 0.22035 0.62282 0.0
C4721 C 0.27029 0.24317 0.68051 0.0
C4722 C 0.27028 0.23583 0.66041 0.0
H4723 H 0.28254 0.17663 0.57823 0.0
H4724 H 0.28378 0.19063 0.61042 0.0
H4725 H 0.24172 0.22275 0.61986 0.0
H4726 H 0.25156 0.27235 0.70813 0.0
H4727 H 0.25113 0.26083 0.6754 0.0
C4728 C 0.59277 0.52647 0.22483 0.0
C4729 C 0.61133 0.53387 0.23024 0.0
C4730 C 0.58505 0.52565 0.20628 0.0
C4731 C 0.59308 0.54595 0.16196 0.0
H4732 H 0.55405 0.50632 0.14038 0.0
C4733 C 0.55233 0.54705 0.08982 0.0
C4734 C 0.54736 0.53078 0.07792 0.0
C4735 C 0.5598 0.54733 0.10837 0.0
C4736 C 0.56502 0.51746 0.14607 0.0
H4737 H 0.63635 0.54597 0.22005 0.0
H4738 H 0.62306 0.54433 0.18778 0.0
H4739 H 0.56814 0.50643 0.17201 0.0
H4740 H 0.54643 0.50191 0.07624 0.0
H4741 H 0.55926 0.50223 0.10848 0.0
H4742 H 0.59024 0.55675 0.13584 0.0
C4743 C 0.6143 0.53938 0.19791 0.0
C4744 C 0.57301 0.51764 0.16441 0.0
C4745 C 0.62202 0.54018 0.21647 0.0
C4746 C 0.54997 0.5147 0.08508 0.0
C4747 C 0.55726 0.5149 0.10365 0.0
C4748 C 0.58509 0.54576 0.14362 0.0
C4749 C 0.59563 0.53223 0.19249 0.0
C4750 C 0.58719 0.5319 0.17272 0.0
C4751 C 0.56246 0.53125 0.11561 0.0
C4752 C 0.5709 0.53152 0.13534 0.0
H4753 H 0.58407 0.52151 0.235 0.0
H4754 H 0.57063 0.52024 0.2029 0.0
H4755 H 0.60376 0.55731 0.16776 0.0
H4756 H 0.55111 0.55966 0.08464 0.0
H4757 H 0.5635 0.56021 0.11703 0.0
C4758 C 0.2761 0.90023 0.92984 0.0
C4759 C 0.28576 0.89753 0.94639 0.0
C4760 C 0.27325 0.88705 0.91469 0.0
C4761 C 0.27555 0.83959 0.90104 0.0
H4762 H 0.28288 0.85706 0.8533 0.0
C4763 C 0.28969 0.79834 0.83525 0.0
C4764 C 0.27739 0.79866 0.81958 0.0
C4765 C 0.28932 0.80939 0.85149 0.0
C4766 C 0.2807 0.85213 0.86659 0.0
H4767 H 0.30008 0.87946 0.9606 0.0
H4768 H 0.29591 0.85673 0.93375 0.0
H4769 H 0.2847 0.87875 0.8807 0.0
H4770 H 0.25494 0.81031 0.80836 0.0
H4771 H 0.2547 0.83002 0.83678 0.0
H4772 H 0.27239 0.81292 0.88679 0.0
C4773 C 0.28994 0.8686 0.93261 0.0
C4774 C 0.2816 0.86443 0.88215 0.0
C4775 C 0.29242 0.88158 0.94787 0.0
C4776 C 0.26459 0.80992 0.8203 0.0
C4777 C 0.2644 0.8211 0.83644 0.0
C4778 C 0.27496 0.82729 0.88548 0.0
C4779 C 0.28046 0.87132 0.91589 0.0
C4780 C 0.27895 0.85823 0.89945 0.0
C4781 C 0.27683 0.82091 0.85195 0.0
C4782 C 0.27744 0.8336 0.86828 0.0
H4783 H 0.27074 0.91245 0.92868 0.0
H4784 H 0.26561 0.88924 0.90199 0.0
H4785 H 0.27333 0.83454 0.91425 0.0
H4786 H 0.29979 0.78987 0.83483 0.0
H4787 H 0.2991 0.80938 0.86344 0.0
C4788 C 0.89315 0.51464 0.73056 0.0
C4789 C 0.90248 0.52473 0.74699 0.0
C4790 C 0.9016 0.51413 0.71434 0.0
C4791 C 0.94115 0.53615 0.69251 0.0
H4792 H 0.93714 0.48791 0.66705 0.0
C4793 C 0.99255 0.51274 0.64641 0.0
C4794 C 0.98521 0.50154 0.62994 0.0
C4795 C 0.98103 0.51852 0.65856 0.0
C4796 C 0.93811 0.5015 0.67383 0.0
H4797 H 0.92751 0.54289 0.75924 0.0
H4798 H 0.94228 0.54189 0.73102 0.0
H4799 H 0.91924 0.49236 0.69259 0.0
H4800 H 0.9605 0.48829 0.61246 0.0
H4801 H 0.94021 0.49798 0.63408 0.0
H4802 H 0.96084 0.545 0.67422 0.0
C4803 C 0.92842 0.53454 0.73054 0.0
C4804 C 0.92784 0.50407 0.6884 0.0
C4805 C 0.91999 0.53504 0.74672 0.0
C4806 C 0.96631 0.49685 0.62524 0.0
C4807 C 0.9548 0.50236 0.63751 0.0
C4808 C 0.95158 0.53353 0.67802 0.0
C4809 C 0.91947 0.52374 0.71431 0.0
C4810 C 0.92933 0.5214 0.69795 0.0
C4811 C 0.9621 0.51287 0.65445 0.0
C4812 C 0.95016 0.51617 0.66867 0.0
H4813 H 0.8797 0.50645 0.73045 0.0
H4814 H 0.89433 0.50584 0.70195 0.0
H4815 H 0.94246 0.54968 0.69957 0.0
H4816 H 0.00716 0.51662 0.65003 0.0
H4817 H 0.98692 0.52658 0.6716 0.0
C4818 C 0.264 0.17984 0.43888 0.0
C4819 C 0.26618 0.18918 0.45694 0.0
C4820 C 0.26623 0.18902 0.42327 0.0
C4821 C 0.28532 0.23352 0.40747 0.0
H4822 H 0.25563 0.2113 0.36151 0.0
C4823 C 0.27526 0.26636 0.33795 0.0
C4824 C 0.27983 0.25685 0.322 0.0
C4825 C 0.2752 0.25911 0.35498 0.0
C4826 C 0.26412 0.21757 0.3742 0.0
H4827 H 0.27257 0.21592 0.47242 0.0
H4828 H 0.27618 0.2322 0.44486 0.0
H4829 H 0.25118 0.1978 0.39019 0.0
H4830 H 0.2875 0.23185 0.31166 0.0
H4831 H 0.28632 0.21873 0.34126 0.0
H4832 H 0.29753 0.25387 0.39119 0.0
C4833 C 0.2729 0.21755 0.44295 0.0
C4834 C 0.26167 0.20981 0.39072 0.0
C4835 C 0.27071 0.20823 0.45879 0.0
C4836 C 0.28409 0.23968 0.3236 0.0
C4837 C 0.28344 0.23216 0.34055 0.0
C4838 C 0.28749 0.24153 0.39091 0.0
C4839 C 0.27054 0.20802 0.42489 0.0
C4840 C 0.27243 0.21742 0.40762 0.0
C4841 C 0.27903 0.24183 0.35642 0.0
C4842 C 0.27708 0.23346 0.37406 0.0
H4843 H 0.2605 0.16519 0.43661 0.0
H4844 H 0.26475 0.18102 0.40985 0.0
H4845 H 0.29399 0.23977 0.42003 0.0
H4846 H 0.27134 0.27936 0.33728 0.0
H4847 H 0.27147 0.26673 0.36688 0.0
C4848 C 0.31005 0.59084 0.54075 0.0
C4849 C 0.30872 0.60876 0.53866 0.0
C4850 C 0.327 0.5864 0.54427 0.0
C4851 C 0.3705 0.60047 0.5302 0.0
H4852 H 0.38404 0.56339 0.55898 0.0
C4853 C 0.4302 0.57141 0.51289 0.0
C4854 C 0.42526 0.55276 0.50774 0.0
C4855 C 0.41974 0.57999 0.52411 0.0
C4856 C 0.38049 0.57392 0.55109 0.0
H4857 H 0.32356 0.63634 0.53951 0.0
H4858 H 0.35344 0.62845 0.54505 0.0
H4859 H 0.35762 0.57652 0.56583 0.0
H4860 H 0.40704 0.52789 0.51128 0.0
H4861 H 0.38783 0.54312 0.53016 0.0
H4862 H 0.39226 0.59717 0.51459 0.0
C4863 C 0.34138 0.61793 0.54425 0.0
C4864 C 0.36551 0.5814 0.55499 0.0
C4865 C 0.3244 0.62239 0.54095 0.0
C4866 C 0.41065 0.54244 0.51492 0.0
C4867 C 0.39996 0.55107 0.52593 0.0
C4868 C 0.38534 0.59307 0.52634 0.0
C4869 C 0.34276 0.59984 0.54544 0.0
C4870 C 0.36027 0.59444 0.54427 0.0
C4871 C 0.40406 0.57 0.52992 0.0
C4872 C 0.39027 0.57954 0.5365 0.0
H4873 H 0.29806 0.58021 0.53942 0.0
H4874 H 0.32779 0.57232 0.54492 0.0
H4875 H 0.36633 0.61005 0.52133 0.0
H4876 H 0.44182 0.57937 0.50779 0.0
H4877 H 0.42323 0.59459 0.52728 0.0
C4878 C 0.85447 0.90025 0.5295 0.0
C4879 C 0.83996 0.90692 0.53635 0.0
C4880 C 0.87158 0.91162 0.53009 0.0
C4881 C 0.89838 0.95864 0.54936 0.0
H4882 H 0.92938 0.94754 0.51209 0.0
C4883 C 0.96198 0.00652 0.52594 0.0
C4884 C 0.97836 1.00137 0.53222 0.0
C4885 C 0.94506 0.99549 0.52734 0.0
C4886 C 0.9208 0.9508 0.52254 0.0
H4887 H 0.83249 0.92997 0.55131 0.0
H4888 H 0.86149 0.9502 0.5511 0.0
H4889 H 0.90019 0.92755 0.51273 0.0
H4890 H 0.98942 0.98001 0.54444 0.0
H4891 H 0.95998 0.96053 0.5459 0.0
H4892 H 0.91892 0.98258 0.55826 0.0
C4893 C 0.86016 0.93627 0.5453 0.0
C4894 C 0.90407 0.93918 0.52316 0.0
C4895 C 0.84323 0.92474 0.54508 0.0
C4896 C 0.97723 0.98468 0.53965 0.0
C4897 C 0.96036 0.97343 0.54048 0.0
C4898 C 0.91489 0.9705 0.54837 0.0
C4899 C 0.87463 0.93006 0.53747 0.0
C4900 C 0.89257 0.94271 0.53673 0.0
C4901 C 0.94412 0.97876 0.53443 0.0
C4902 C 0.92631 0.9666 0.53506 0.0
H4903 H 0.85249 0.88633 0.5233 0.0
H4904 H 0.88235 0.9058 0.52468 0.0
H4905 H 0.89042 0.96196 0.56032 0.0
H4906 H 0.96213 0.01884 0.51954 0.0
H4907 H 0.93269 0.9998 0.52242 0.0
C4908 C 0.91176 0.07319 0.27422 0.0
C4909 C 0.90199 0.05691 0.26439 0.0
C4910 C 0.90469 0.08905 0.27385 0.0
C4911 C 0.86765 0.10886 0.2501 0.0
H4912 H 0.87251 0.13793 0.29782 0.0
C4913 C 0.8201 0.158 0.27072 0.0
C4914 C 0.82809 0.17389 0.28241 0.0
C4915 C 0.83067 0.14541 0.2654 0.0
C4916 C 0.87125 0.13015 0.2843 0.0
H4917 H 0.87782 0.04446 0.24575 0.0
H4918 H 0.86527 0.07175 0.24536 0.0
H4919 H 0.88852 0.11299 0.29452 0.0
H4920 H 0.85328 0.18966 0.29702 0.0
H4921 H 0.87186 0.16794 0.28744 0.0
H4922 H 0.84965 0.12569 0.24021 0.0
C4923 C 0.87847 0.07262 0.25314 0.0
C4924 C 0.88051 0.11584 0.28237 0.0
C4925 C 0.88559 0.05689 0.25346 0.0
C4926 C 0.84693 0.1776 0.28774 0.0
C4927 C 0.85747 0.16506 0.28247 0.0
C4928 C 0.85823 0.1231 0.25209 0.0
C4929 C 0.88766 0.08884 0.26373 0.0
C4930 C 0.87881 0.10492 0.26527 0.0
C4931 C 0.84934 0.14851 0.27186 0.0
C4932 C 0.85992 0.13389 0.26922 0.0
H4933 H 0.92432 0.07343 0.28297 0.0
H4934 H 0.91231 0.10134 0.28194 0.0
H4935 H 0.86612 0.1009 0.23665 0.0
H4936 H 0.80551 0.15473 0.26683 0.0
H4937 H 0.82398 0.13274 0.25733 0.0
C4938 C 0.70299 0.12128 0.03838 0.0
C4939 C 0.71754 0.11246 0.04131 0.0
C4940 C 0.68548 0.11193 0.03879 0.0
C4941 C 0.65726 0.07775 0.01978 0.0
H4942 H 0.62568 0.07719 0.05883 0.0
C4943 C 0.58368 0.0403 0.01494 0.0
C4944 C 0.57269 0.04843 0.02606 0.0
C4945 C 0.60128 0.04927 0.01405 0.0
C4946 C 0.63441 0.0775 0.0478 0.0
H4947 H 0.72599 0.08834 0.04997 0.0
H4948 H 0.69477 0.07106 0.04854 0.0
H4949 H 0.65847 0.08796 0.06675 0.0
H4950 H 0.5696 0.07245 0.04312 0.0
H4951 H 0.60056 0.08852 0.04129 0.0
H4952 H 0.6333 0.0682 1.00065 0.0
C4953 C 0.69708 0.08515 0.04601 0.0
C4954 C 0.653 0.08316 0.05242 0.0
C4955 C 0.71468 0.09476 0.04621 0.0
C4956 C 0.57823 0.06621 0.03451 0.0
C4957 C 0.59578 0.07525 0.03351 0.0
C4958 C 0.63869 0.07221 0.01511 0.0
C4959 C 0.68258 0.09374 0.04195 0.0
C4960 C 0.66429 0.08355 0.03832 0.0
C4961 C 0.60771 0.06621 0.02447 0.0
C4962 C 0.62718 0.0725 0.02906 0.0
H4963 H 0.70514 0.13524 0.03541 0.0
H4964 H 0.67413 0.11857 0.03581 0.0
H4965 H 0.66603 0.07853 0.00884 0.0
H4966 H 0.57923 0.02649 0.0084 0.0
H4967 H 0.61034 0.04215 0.00696 0.0
C4968 C 0.18437 0.48466 0.26251 0.0
C4969 C 0.19645 0.49925 0.25749 0.0
C4970 C 0.18811 0.46745 0.25985 0.0
C4971 C 0.21478 0.43779 0.23876 0.0
H4972 H 0.22114 0.42405 0.28869 0.0
C4973 C 0.25935 0.39132 0.27043 0.0
C4974 C 0.2515 0.38156 0.28402 0.0
C4975 C 0.24914 0.40129 0.26013 0.0
C4976 C 0.21899 0.42748 0.27461 0.0
H4977 H 0.22063 0.50788 0.24424 0.0
H4978 H 0.22752 0.47743 0.23987 0.0
H4979 H 0.20968 0.45124 0.28388 0.0
H4980 H 0.22672 0.37186 0.29584 0.0
H4981 H 0.20871 0.38932 0.27774 0.0
H4982 H 0.22498 0.41411 0.22978 0.0
C4983 C 0.21525 0.47931 0.24579 0.0
C4984 C 0.21252 0.44299 0.2719 0.0
C4985 C 0.21157 0.4966 0.24863 0.0
C4986 C 0.23296 0.37985 0.28571 0.0
C4987 C 0.22269 0.3895 0.2752 0.0
C4988 C 0.22133 0.42206 0.2415 0.0
C4989 C 0.20385 0.46484 0.252 0.0
C4990 C 0.21018 0.44809 0.25399 0.0
C4991 C 0.2311 0.40125 0.26341 0.0
C4992 C 0.22317 0.41679 0.25944 0.0
H4993 H 0.1725 0.4867 0.26914 0.0
H4994 H 0.17931 0.45633 0.26483 0.0
H4995 H 0.21329 0.44192 0.22491 0.0
H4996 H 0.27363 0.39226 0.2688 0.0
H4997 H 0.25582 0.41038 0.25113 0.0
C4998 C 0.23058 0.39954 0.01624 0.0
C4999 C 0.24494 0.40366 0.03069 0.0
C5000 C 0.21547 0.40781 0.01698 0.0
C5001 C 0.2028 0.44933 0.03951 0.0
H5002 H 0.15548 0.4275 0.01301 0.0
C5003 C 0.15167 0.49199 0.01393 0.0
C5004 C 0.13297 0.48461 0.0115 0.0
C5005 C 0.16424 0.48178 0.02013 0.0
C5006 C 0.16846 0.43378 0.02081 0.0
H5007 H 0.25491 0.41948 0.05726 0.0
H5008 H 0.22826 0.43337 0.05908 0.0
H5009 H 0.17859 0.40927 0.01697 0.0
H5010 H 0.11257 0.46112 0.01432 0.0
H5011 H 0.13448 0.44326 0.02563 0.0
H5012 H 0.19251 0.47371 0.04379 0.0
C5013 C 0.22858 0.42393 0.04702 0.0
C5014 C 0.18191 0.42335 0.02281 0.0
C5015 C 0.24372 0.41571 0.04619 0.0
C5016 C 0.12694 0.46716 0.01632 0.0
C5017 C 0.13954 0.45687 0.02252 0.0
C5018 C 0.18927 0.45968 0.03776 0.0
C5019 C 0.21443 0.42051 0.03216 0.0
C5020 C 0.19943 0.43105 0.0318 0.0
C5021 C 0.15842 0.46385 0.02398 0.0
C5022 C 0.17204 0.45221 0.02798 0.0
H5023 H 0.23152 0.39069 0.0039 0.0
H5024 H 0.20512 0.40498 0.00509 0.0
H5025 H 0.2161 0.45595 0.04635 0.0
H5026 H 0.15661 0.50537 0.01011 0.0
H5027 H 0.17857 0.48765 0.02082 0.0
C5028 C 0.90241 0.94817 0.26923 0.0
C5029 C 0.8962 0.96269 0.26182 0.0
C5030 C 0.89048 0.9315 0.26916 0.0
C5031 C 0.85262 0.90708 0.27827 0.0
H5032 H 0.83814 0.87353 0.2333 0.0
C5033 C 0.79741 0.84155 0.27579 0.0
C5034 C 0.80046 0.8258 0.26572 0.0
C5035 C 0.80836 0.85853 0.2746 0.0
C5036 C 0.84203 0.88268 0.24603 0.0
H5037 H 0.87319 0.97065 0.24694 0.0
H5038 H 0.85231 0.94152 0.24689 0.0
H5039 H 0.85916 0.9023 0.23255 0.0
H5040 H 0.81753 0.81581 0.24636 0.0
H5041 H 0.83668 0.84502 0.2447 0.0
H5042 H 0.83562 0.8877 0.29188 0.0
C5043 C 0.86627 0.94319 0.25312 0.0
C5044 C 0.85401 0.8992 0.24552 0.0
C5045 C 0.87816 0.95988 0.25332 0.0
C5046 C 0.81464 0.82756 0.25431 0.0
C5047 C 0.82562 0.84445 0.25323 0.0
C5048 C 0.84044 0.8907 0.27875 0.0
C5049 C 0.87227 0.92893 0.26125 0.0
C5050 C 0.85948 0.91149 0.26167 0.0
C5051 C 0.82275 0.86022 0.26341 0.0
C5052 C 0.83505 0.87815 0.26267 0.0
H5053 H 0.91636 0.94985 0.27547 0.0
H5054 H 0.89545 0.9206 0.2753 0.0
H5055 H 0.85675 0.91629 0.29092 0.0
H5056 H 0.78676 0.84075 0.28484 0.0
H5057 H 0.80554 0.87035 0.2825 0.0
C5058 C 0.68792 0.10505 0.76012 0.0
C5059 C 0.69622 0.09019 0.75701 0.0
C5060 C 0.69776 0.12227 0.75939 0.0
C5061 C 0.7352 0.14866 0.77692 0.0
H5062 H 0.73248 0.18163 0.73961 0.0
C5063 C 0.77613 0.2206 0.77891 0.0
C5064 C 0.76662 0.23254 0.77075 0.0
C5065 C 0.76708 0.20319 0.78028 0.0
C5066 C 0.73316 0.17249 0.75014 0.0
H5067 H 0.7199 0.0809 0.74802 0.0
H5068 H 0.73795 0.11151 0.74869 0.0
H5069 H 0.71912 0.14944 0.73148 0.0
H5070 H 0.74052 0.23736 0.75943 0.0
H5071 H 0.72446 0.20671 0.76195 0.0
H5072 H 0.74867 0.17163 0.79582 0.0
C5073 C 0.72391 0.10971 0.75157 0.0
C5074 C 0.72592 0.15424 0.74537 0.0
C5075 C 0.71387 0.09244 0.75179 0.0
C5076 C 0.74783 0.22805 0.76583 0.0
C5077 C 0.73877 0.21067 0.76721 0.0
C5078 C 0.74247 0.16686 0.78171 0.0
C5079 C 0.71585 0.12454 0.75565 0.0
C5080 C 0.72675 0.14247 0.7589 0.0
C5081 C 0.74868 0.19793 0.77319 0.0
C5082 C 0.74102 0.17885 0.76846 0.0
H5083 H 0.67402 0.10335 0.76343 0.0
H5084 H 0.69157 0.13387 0.76254 0.0
H5085 H 0.73519 0.13961 0.78751 0.0
H5086 H 0.79073 0.22425 0.78275 0.0
H5087 H 0.77484 0.19344 0.78498 0.0
loop_
_geom_bond_atom_site_label_1
_geom_bond_atom_site_label_2
_geom_bond_distance
_geom_bond_site_symmetry_2
_ccdc_geom_bond_type
Mn0 O5 2.095 . S
Mn0 O15 2.162 . S
Mn0 O16 2.297 . S
Mn0 O24 2.385 . S
Mn0 O25 2.209 . S
Mn0 O26 2.094 . S
Mn1 O6 2.121 . S
Mn1 N8 2.257 . S
Mn1 N17 2.282 . S
Mn1 O25 2.215 . S
Mn1 O27 2.117 . S
C2 O24 1.234 . S
C2 O25 1.283 . S
C3 O15 1.281 . S
C3 O16 1.236 . S
C4 O26 1.240 . S
C4 O27 1.264 . S
O5 Mn0 2.095 . S
O5 C14 1.250 . S
O6 Mn1 2.121 . S
O6 C14 1.258 . S
C7 N8 1.326 . S
C7 C11 1.460 . S
C7 H13 0.929 . S
N8 Mn1 2.257 . S
N8 C7 1.326 . S
N8 C12 1.362 . S
C9 C10 1.268 . S
C9 C12 1.436 . S
C9 C29 1.433 1_455 S
C10 C9 1.268 . S
C10 C11 1.477 . S
C10 H30 0.931 . S
C11 C7 1.460 . S
C11 C10 1.477 . S
C11 H31 0.930 . S
C12 N8 1.362 . S
C12 C9 1.436 . S
C12 C22 1.476 1_455 S
H13 C7 0.929 . S
C14 O5 1.250 . S
C14 O6 1.258 . S
O15 Mn0 2.162 . S
O15 C3 1.281 . S
O16 Mn0 2.297 . S
O16 C3 1.236 . S
N17 Mn1 2.282 . S
N17 C18 1.328 1_455 S
N17 C22 1.318 1_455 S
C18 N17 1.328 1_655 S
C18 C19 1.457 . S
C18 H23 0.929 1_655 S
C19 C18 1.457 . S
C19 C20 1.291 . S
C19 H32 0.931 . S
C20 C19 1.291 . S
C20 C21 1.373 . S
C20 H33 0.929 . S
C21 C20 1.373 . S
C21 C22 1.396 . S
C21 C28 1.403 . S
C22 C12 1.476 1_655 S
C22 N17 1.318 1_655 S
C22 C21 1.396 . S
H23 C18 0.929 1_455 S
O24 Mn0 2.385 . S
O24 C2 1.234 . S
O25 Mn0 2.209 . S
O25 Mn1 2.215 . S
O25 C2 1.283 . S
O26 Mn0 2.094 . S
O26 C4 1.240 . S
O27 Mn1 2.117 . S
O27 C4 1.264 . S
C28 C21 1.403 . S
C28 C29 1.399 . S
C28 H34 0.929 . S
C29 C9 1.433 1_655 S
C29 C28 1.399 . S
C29 H35 0.930 . S
H30 C10 0.931 . S
H31 C11 0.930 . S
H32 C19 0.931 . S
H33 C20 0.929 . S
H34 C28 0.929 . S
H35 C29 0.930 . S
Mn36 O41 2.095 1_455 S
Mn36 O51 2.162 . S
Mn36 O52 2.297 . S
Mn36 O60 2.385 . S
Mn36 O61 2.209 . S
Mn36 O62 2.094 . S
Mn37 O42 2.121 1_455 S
Mn37 N44 2.257 . S
Mn37 N53 2.282 . S
Mn37 O61 2.215 . S
Mn37 O63 2.117 . S
C38 O60 1.234 . S
C38 O61 1.283 . S
C39 O51 1.281 . S
C39 O52 1.236 . S
C40 O62 1.240 . S
C40 O63 1.264 . S
O41 Mn36 2.095 1_655 S
O41 C50 1.250 . S
O42 Mn37 2.121 1_655 S
O42 C50 1.258 . S
C43 N44 1.326 . S
C43 C47 1.460 . S
C43 H49 0.929 . S
N44 Mn37 2.257 . S
N44 C43 1.326 . S
N44 C48 1.362 . S
C45 C46 1.258 . S
C45 C48 1.431 . S
C45 C65 1.449 . S
C46 C45 1.258 . S
C46 C47 1.477 . S
C46 H66 0.931 . S
C47 C43 1.460 . S
C47 C46 1.477 . S
C47 H67 0.930 . S
C48 N44 1.362 . S
C48 C45 1.431 . S
C48 C58 1.476 . S
H49 C43 0.929 . S
C50 O41 1.250 . S
C50 O42 1.258 . S
O51 Mn36 2.162 . S
O51 C39 1.281 . S
O52 Mn36 2.297 . S
O52 C39 1.236 . S
N53 Mn37 2.282 . S
N53 C54 1.328 . S
N53 C58 1.318 . S
C54 N53 1.328 . S
C54 C55 1.457 . S
C54 H59 0.929 . S
C55 C54 1.457 . S
C55 C56 1.291 . S
C55 H68 0.931 . S
C56 C55 1.291 . S
C56 C57 1.373 . S
C56 H69 0.929 . S
C57 C56 1.373 . S
C57 C58 1.396 . S
C57 C64 1.403 . S
C58 C48 1.476 . S
C58 N53 1.318 . S
C58 C57 1.396 . S
H59 C54 0.929 . S
O60 Mn36 2.385 . S
O60 C38 1.234 . S
O61 Mn36 2.209 . S
O61 Mn37 2.215 . S
O61 C38 1.283 . S
O62 Mn36 2.094 . S
O62 C40 1.240 . S
O63 Mn37 2.117 . S
O63 C40 1.264 . S
C64 C57 1.403 . S
C64 C65 1.399 . S
C64 H70 0.929 . S
C65 C45 1.449 . S
C65 C64 1.399 . S
C65 H71 0.930 . S
H66 C46 0.931 . S
H67 C47 0.930 . S
H68 C55 0.931 . S
H69 C56 0.929 . S
H70 C64 0.929 . S
H71 C65 0.930 . S
Mn72 O77 2.095 . S
Mn72 O87 2.162 . S
Mn72 O88 2.297 . S
Mn72 O96 2.385 . S
Mn72 O97 2.209 . S
Mn72 O98 2.094 . S
Mn73 O78 2.121 . S
Mn73 N80 2.257 . S
Mn73 N89 2.282 . S
Mn73 O97 2.215 . S
Mn73 O99 2.117 . S
C74 O96 1.234 . S
C74 O97 1.283 . S
C75 O87 1.281 . S
C75 O88 1.236 . S
C76 O98 1.240 . S
C76 O99 1.264 . S
O77 Mn72 2.095 . S
O77 C86 1.250 . S
O78 Mn73 2.121 . S
O78 C86 1.258 . S
C79 N80 1.326 . S
C79 C83 1.460 . S
C79 H85 0.929 . S
N80 Mn73 2.257 . S
N80 C79 1.326 . S
N80 C84 1.362 . S
C81 C82 1.258 . S
C81 C84 1.431 . S
C81 C101 1.449 . S
C82 C81 1.258 . S
C82 C83 1.477 . S
C82 H102 0.931 . S
C83 C79 1.460 . S
C83 C82 1.477 . S
C83 H103 0.930 . S
C84 N80 1.362 . S
C84 C81 1.431 . S
C84 C94 1.476 . S
H85 C79 0.929 . S
C86 O77 1.250 . S
C86 O78 1.258 . S
O87 Mn72 2.162 . S
O87 C75 1.281 . S
O88 Mn72 2.297 . S
O88 C75 1.236 . S
N89 Mn73 2.282 . S
N89 C90 1.328 . S
N89 C94 1.318 . S
C90 N89 1.328 . S
C90 C91 1.457 . S
C90 H95 0.929 . S
C91 C90 1.457 . S
C91 C92 1.291 . S
C91 H104 0.931 . S
C92 C91 1.291 . S
C92 C93 1.373 . S
C92 H105 0.929 . S
C93 C92 1.373 . S
C93 C94 1.396 . S
C93 C100 1.403 . S
C94 C84 1.476 . S
C94 N89 1.318 . S
C94 C93 1.396 . S
H95 C90 0.929 . S
O96 Mn72 2.385 . S
O96 C74 1.234 . S
O97 Mn72 2.209 . S
O97 Mn73 2.215 . S
O97 C74 1.283 . S
O98 Mn72 2.094 . S
O98 C76 1.240 . S
O99 Mn73 2.117 . S
O99 C76 1.264 . S
C100 C93 1.403 . S
C100 C101 1.399 . S
C100 H106 0.929 . S
C101 C81 1.449 . S
C101 C100 1.399 . S
C101 H107 0.930 . S
H102 C82 0.931 . S
H103 C83 0.930 . S
H104 C91 0.931 . S
H105 C92 0.929 . S
H106 C100 0.929 . S
H107 C101 0.930 . S
Mn108 O113 2.095 . S
Mn108 O123 2.162 . S
Mn108 O124 2.297 . S
Mn108 O132 2.385 . S
Mn108 O133 2.209 . S
Mn108 O134 2.094 . S
Mn109 O114 2.121 . S
Mn109 N116 2.257 . S
Mn109 N125 2.282 . S
Mn109 O133 2.215 . S
Mn109 O135 2.117 . S
C110 O132 1.234 . S
C110 O133 1.283 . S
C111 O123 1.281 . S
C111 O124 1.236 . S
C112 O134 1.240 . S
C112 O135 1.264 . S
O113 Mn108 2.095 . S
O113 C122 1.250 . S
O114 Mn109 2.121 . S
O114 C122 1.258 . S
C115 N116 1.326 . S
C115 C119 1.460 . S
C115 H121 0.929 . S
N116 Mn109 2.257 . S
N116 C115 1.326 . S
N116 C120 1.362 . S
C117 C118 1.258 . S
C117 C120 1.431 . S
C117 C137 1.449 . S
C118 C117 1.258 . S
C118 C119 1.477 . S
C118 H138 0.931 . S
C119 C115 1.460 . S
C119 C118 1.477 . S
C119 H139 0.930 . S
C120 N116 1.362 . S
C120 C117 1.431 . S
C120 C130 1.476 . S
H121 C115 0.929 . S
C122 O113 1.250 . S
C122 O114 1.258 . S
O123 Mn108 2.162 . S
O123 C111 1.281 . S
O124 Mn108 2.297 . S
O124 C111 1.236 . S
N125 Mn109 2.282 . S
N125 C126 1.328 . S
N125 C130 1.318 . S
C126 N125 1.328 . S
C126 C127 1.457 . S
C126 H131 0.929 . S
C127 C126 1.457 . S
C127 C128 1.291 . S
C127 H140 0.931 . S
C128 C127 1.291 . S
C128 C129 1.373 . S
C128 H141 0.929 . S
C129 C128 1.373 . S
C129 C130 1.396 . S
C129 C136 1.403 . S
C130 C120 1.476 . S
C130 N125 1.318 . S
C130 C129 1.396 . S
H131 C126 0.929 . S
O132 Mn108 2.385 . S
O132 C110 1.234 . S
O133 Mn108 2.209 . S
O133 Mn109 2.215 . S
O133 C110 1.283 . S
O134 Mn108 2.094 . S
O134 C112 1.240 . S
O135 Mn109 2.117 . S
O135 C112 1.264 . S
C136 C129 1.403 . S
C136 C137 1.399 . S
C136 H142 0.929 . S
C137 C117 1.449 . S
C137 C136 1.399 . S
C137 H143 0.930 . S
H138 C118 0.931 . S
H139 C119 0.930 . S
H140 C127 0.931 . S
H141 C128 0.929 . S
H142 C136 0.929 . S
H143 C137 0.930 . S
Mn144 O149 2.095 . S
Mn144 O159 2.162 . S
Mn144 O160 2.297 . S
Mn144 O168 2.385 . S
Mn144 O169 2.209 . S
Mn144 O170 2.094 . S
Mn145 O150 2.121 . S
Mn145 N152 2.257 . S
Mn145 N161 2.282 . S
Mn145 O169 2.215 . S
Mn145 O171 2.117 . S
C146 O168 1.234 . S
C146 O169 1.283 . S
C147 O159 1.281 . S
C147 O160 1.236 . S
C148 O170 1.240 . S
C148 O171 1.264 . S
O149 Mn144 2.095 . S
O149 C158 1.250 . S
O150 Mn145 2.121 . S
O150 C158 1.258 . S
C151 N152 1.326 . S
C151 C155 1.460 . S
C151 H157 0.929 . S
N152 Mn145 2.257 . S
N152 C151 1.326 . S
N152 C156 1.362 . S
C153 C154 1.258 . S
C153 C156 1.431 . S
C153 C173 1.449 1_455 S
C154 C153 1.258 . S
C154 C155 1.477 . S
C154 H174 0.931 . S
C155 C151 1.460 . S
C155 C154 1.477 . S
C155 H175 0.930 . S
C156 N152 1.362 . S
C156 C153 1.431 . S
C156 C166 1.476 . S
H157 C151 0.929 . S
C158 O149 1.250 . S
C158 O150 1.258 . S
O159 Mn144 2.162 . S
O159 C147 1.281 . S
O160 Mn144 2.297 . S
O160 C147 1.236 . S
N161 Mn145 2.282 . S
N161 C162 1.328 1_455 S
N161 C166 1.318 . S
C162 N161 1.328 1_655 S
C162 C163 1.457 . S
C162 H167 0.929 . S
C163 C162 1.457 . S
C163 C164 1.291 . S
C163 H176 0.931 . S
C164 C163 1.291 . S
C164 C165 1.373 . S
C164 H177 0.929 . S
C165 C164 1.373 . S
C165 C166 1.396 1_655 S
C165 C172 1.403 . S
C166 C156 1.476 . S
C166 N161 1.318 . S
C166 C165 1.396 1_455 S
H167 C162 0.929 . S
O168 Mn144 2.385 . S
O168 C146 1.234 . S
O169 Mn144 2.209 . S
O169 Mn145 2.215 . S
O169 C146 1.283 . S
O170 Mn144 2.094 . S
O170 C148 1.240 . S
O171 Mn145 2.117 . S
O171 C148 1.264 . S
C172 C165 1.403 . S
C172 C173 1.399 . S
C172 H178 0.929 . S
C173 C153 1.449 1_655 S
C173 C172 1.399 . S
C173 H179 0.930 . S
H174 C154 0.931 . S
H175 C155 0.930 . S
H176 C163 0.931 . S
H177 C164 0.929 . S
H178 C172 0.929 . S
H179 C173 0.930 . S
Mn180 O185 2.095 . S
Mn180 O195 2.162 . S
Mn180 O196 2.297 . S
Mn180 O204 2.385 . S
Mn180 O205 2.209 . S
Mn180 O206 2.094 . S
Mn181 O186 2.121 . S
Mn181 N188 2.257 . S
Mn181 N197 2.282 . S
Mn181 O205 2.215 . S
Mn181 O207 2.117 . S
C182 O204 1.234 . S
C182 O205 1.283 . S
C183 O195 1.281 . S
C183 O196 1.236 . S
C184 O206 1.240 . S
C184 O207 1.264 . S
O185 Mn180 2.095 . S
O185 C194 1.250 . S
O186 Mn181 2.121 . S
O186 C194 1.258 . S
C187 N188 1.326 . S
C187 C191 1.460 . S
C187 H193 0.929 . S
N188 Mn181 2.257 . S
N188 C187 1.326 . S
N188 C192 1.362 . S
C189 C190 1.258 . S
C189 C192 1.431 . S
C189 C209 1.449 . S
C190 C189 1.258 . S
C190 C191 1.477 . S
C190 H210 0.931 . S
C191 C187 1.460 . S
C191 C190 1.477 . S
C191 H211 0.930 . S
C192 N188 1.362 . S
C192 C189 1.431 . S
C192 C202 1.476 . S
H193 C187 0.929 . S
C194 O185 1.250 . S
C194 O186 1.258 . S
O195 Mn180 2.162 . S
O195 C183 1.281 . S
O196 Mn180 2.297 . S
O196 C183 1.236 . S
N197 Mn181 2.282 . S
N197 C198 1.328 . S
N197 C202 1.318 . S
C198 N197 1.328 . S
C198 C199 1.457 . S
C198 H203 0.929 . S
C199 C198 1.457 . S
C199 C200 1.291 . S
C199 H212 0.931 . S
C200 C199 1.291 . S
C200 C201 1.373 . S
C200 H213 0.929 . S
C201 C200 1.373 . S
C201 C202 1.396 . S
C201 C208 1.403 . S
C202 C192 1.476 . S
C202 N197 1.318 . S
C202 C201 1.396 . S
H203 C198 0.929 . S
O204 Mn180 2.385 . S
O204 C182 1.234 . S
O205 Mn180 2.209 . S
O205 Mn181 2.215 . S
O205 C182 1.283 . S
O206 Mn180 2.094 . S
O206 C184 1.240 . S
O207 Mn181 2.117 . S
O207 C184 1.264 . S
C208 C201 1.403 . S
C208 C209 1.399 . S
C208 H214 0.929 . S
C209 C189 1.449 . S
C209 C208 1.399 . S
C209 H215 0.930 . S
H210 C190 0.931 . S
H211 C191 0.930 . S
H212 C199 0.931 . S
H213 C200 0.929 . S
H214 C208 0.929 . S
H215 C209 0.930 . S
Mn216 O221 2.095 . S
Mn216 O231 2.162 . S
Mn216 O232 2.297 . S
Mn216 O240 2.385 . S
Mn216 O241 2.209 . S
Mn216 O242 2.094 . S
Mn217 O222 2.121 . S
Mn217 N224 2.257 . S
Mn217 N233 2.282 . S
Mn217 O241 2.215 . S
Mn217 O243 2.117 . S
C218 O240 1.234 . S
C218 O241 1.283 . S
C219 O231 1.281 . S
C219 O232 1.236 . S
C220 O242 1.240 . S
C220 O243 1.264 . S
O221 Mn216 2.095 . S
O221 C230 1.250 . S
O222 Mn217 2.121 . S
O222 C230 1.258 . S
C223 N224 1.326 . S
C223 C227 1.460 . S
C223 H229 0.929 . S
N224 Mn217 2.257 . S
N224 C223 1.326 . S
N224 C228 1.362 . S
C225 C226 1.258 . S
C225 C228 1.431 . S
C225 C245 1.449 . S
C226 C225 1.258 . S
C226 C227 1.477 . S
C226 H246 0.931 . S
C227 C223 1.460 . S
C227 C226 1.477 . S
C227 H247 0.930 . S
C228 N224 1.362 . S
C228 C225 1.431 . S
C228 C238 1.476 . S
H229 C223 0.929 . S
C230 O221 1.250 . S
C230 O222 1.258 . S
O231 Mn216 2.162 . S
O231 C219 1.281 . S
O232 Mn216 2.297 . S
O232 C219 1.236 . S
N233 Mn217 2.282 . S
N233 C234 1.328 . S
N233 C238 1.318 . S
C234 N233 1.328 . S
C234 C235 1.457 . S
C234 H239 0.929 . S
C235 C234 1.457 . S
C235 C236 1.291 . S
C235 H248 0.931 . S
C236 C235 1.291 . S
C236 C237 1.373 . S
C236 H249 0.929 . S
C237 C236 1.373 . S
C237 C238 1.396 . S
C237 C244 1.403 . S
C238 C228 1.476 . S
C238 N233 1.318 . S
C238 C237 1.396 . S
H239 C234 0.929 . S
O240 Mn216 2.385 . S
O240 C218 1.234 . S
O241 Mn216 2.209 . S
O241 Mn217 2.215 . S
O241 C218 1.283 . S
O242 Mn216 2.094 . S
O242 C220 1.240 . S
O243 Mn217 2.117 . S
O243 C220 1.264 . S
C244 C237 1.403 . S
C244 C245 1.399 . S
C244 H250 0.929 . S
C245 C225 1.449 . S
C245 C244 1.399 . S
C245 H251 0.930 . S
H246 C226 0.931 . S
H247 C227 0.930 . S
H248 C235 0.931 . S
H249 C236 0.929 . S
H250 C244 0.929 . S
H251 C245 0.930 . S
Mn252 O257 2.064 1_655 S
Mn252 O267 2.155 1_655 S
Mn252 O268 2.294 . S
Mn252 O276 2.419 . S
Mn252 O277 2.224 . S
Mn252 O278 2.098 1_655 S
Mn253 O258 2.121 1_655 S
Mn253 N260 2.257 . S
Mn253 N269 2.282 . S
Mn253 O277 2.215 . S
Mn253 O279 2.117 1_655 S
C254 O276 1.234 . S
C254 O277 1.283 . S
C255 O267 1.283 1_655 S
C255 O268 1.236 . S
C256 O278 1.240 . S
C256 O279 1.264 . S
O257 Mn252 2.064 1_455 S
O257 C266 1.250 . S
O258 Mn253 2.121 1_455 S
O258 C266 1.258 . S
C259 N260 1.326 . S
C259 C263 1.460 . S
C259 H265 0.929 1_655 S
N260 Mn253 2.257 . S
N260 C259 1.326 . S
N260 C264 1.362 . S
C261 C262 1.258 . S
C261 C264 1.431 . S
C261 C281 1.449 . S
C262 C261 1.258 . S
C262 C263 1.477 . S
C262 H282 0.931 . S
C263 C259 1.460 . S
C263 C262 1.477 . S
C263 H283 0.930 . S
C264 N260 1.362 . S
C264 C261 1.431 . S
C264 C274 1.476 . S
H265 C259 0.929 1_455 S
C266 O257 1.250 . S
C266 O258 1.258 . S
O267 Mn252 2.155 1_455 S
O267 C255 1.283 1_455 S
O268 Mn252 2.294 . S
O268 C255 1.236 . S
N269 Mn253 2.282 . S
N269 C270 1.328 . S
N269 C274 1.318 . S
C270 N269 1.328 . S
C270 C271 1.457 . S
C270 H275 0.929 . S
C271 C270 1.457 . S
C271 C272 1.291 . S
C271 H284 0.931 . S
C272 C271 1.291 . S
C272 C273 1.373 . S
C272 H285 0.929 . S
C273 C272 1.373 . S
C273 C274 1.396 . S
C273 C280 1.403 . S
C274 C264 1.476 . S
C274 N269 1.318 . S
C274 C273 1.396 . S
H275 C270 0.929 . S
O276 Mn252 2.419 . S
O276 C254 1.234 . S
O277 Mn252 2.224 . S
O277 Mn253 2.215 . S
O277 C254 1.283 . S
O278 Mn252 2.098 1_455 S
O278 C256 1.240 . S
O279 Mn253 2.117 1_455 S
O279 C256 1.264 . S
C280 C273 1.403 . S
C280 C281 1.399 . S
C280 H286 0.929 . S
C281 C261 1.449 . S
C281 C280 1.399 . S
C281 H287 0.930 . S
H282 C262 0.931 . S
H283 C263 0.930 . S
H284 C271 0.931 . S
H285 C272 0.929 . S
H286 C280 0.929 . S
H287 C281 0.930 . S
Mn288 O293 2.095 . S
Mn288 O303 2.162 . S
Mn288 O304 2.297 . S
Mn288 O312 2.385 1_545 S
Mn288 O313 2.209 1_545 S
Mn288 O314 2.094 . S
Mn289 O294 2.121 . S
Mn289 N296 2.257 1_545 S
Mn289 N305 2.282 1_545 S
Mn289 O313 2.215 1_545 S
Mn289 O315 2.117 . S
C290 O312 1.234 . S
C290 O313 1.283 . S
C291 O303 1.281 . S
C291 O304 1.236 . S
C292 O314 1.240 . S
C292 O315 1.264 . S
O293 Mn288 2.095 . S
O293 C302 1.250 . S
O294 Mn289 2.121 . S
O294 C302 1.258 . S
C295 N296 1.289 1_545 S
C295 C299 1.447 1_545 S
C295 H301 0.981 . S
N296 Mn289 2.257 1_565 S
N296 C295 1.289 1_565 S
N296 C300 1.362 . S
C297 C298 1.258 . S
C297 C300 1.431 . S
C297 C317 1.449 . S
C298 C297 1.258 . S
C298 C299 1.477 . S
C298 H318 0.931 . S
C299 C295 1.447 1_565 S
C299 C298 1.477 . S
C299 H319 0.930 . S
C300 N296 1.362 . S
C300 C297 1.431 . S
C300 C310 1.476 . S
H301 C295 0.981 . S
C302 O293 1.250 . S
C302 O294 1.258 . S
O303 Mn288 2.162 . S
O303 C291 1.281 . S
O304 Mn288 2.297 . S
O304 C291 1.236 . S
N305 Mn289 2.282 1_565 S
N305 C306 1.328 . S
N305 C310 1.318 . S
C306 N305 1.328 . S
C306 C307 1.457 . S
C306 H311 0.929 . S
C307 C306 1.457 . S
C307 C308 1.291 . S
C307 H320 0.931 . S
C308 C307 1.291 . S
C308 C309 1.373 . S
C308 H321 0.929 . S
C309 C308 1.373 . S
C309 C310 1.396 . S
C309 C316 1.403 . S
C310 C300 1.476 . S
C310 N305 1.318 . S
C310 C309 1.396 . S
H311 C306 0.929 . S
O312 Mn288 2.385 1_565 S
O312 C290 1.234 . S
O313 Mn288 2.209 1_565 S
O313 Mn289 2.215 1_565 S
O313 C290 1.283 . S
O314 Mn288 2.094 . S
O314 C292 1.240 . S
O315 Mn289 2.117 . S
O315 C292 1.264 . S
C316 C309 1.403 . S
C316 C317 1.399 . S
C316 H322 0.929 . S
C317 C297 1.449 . S
C317 C316 1.399 . S
C317 H323 0.930 . S
H318 C298 0.931 . S
H319 C299 0.930 . S
H320 C307 0.931 . S
H321 C308 0.929 . S
H322 C316 0.929 . S
H323 C317 0.930 . S
Mn324 O329 2.095 . S
Mn324 O339 2.162 . S
Mn324 O340 2.297 . S
Mn324 O348 2.385 . S
Mn324 O349 2.209 . S
Mn324 O350 2.094 . S
Mn325 O330 2.121 . S
Mn325 N332 2.257 . S
Mn325 N341 2.282 . S
Mn325 O349 2.215 . S
Mn325 O351 2.117 . S
C326 O348 1.234 . S
C326 O349 1.283 . S
C327 O339 1.281 . S
C327 O340 1.236 . S
C328 O350 1.240 . S
C328 O351 1.264 . S
O329 Mn324 2.095 . S
O329 C338 1.250 . S
O330 Mn325 2.121 . S
O330 C338 1.258 . S
C331 N332 1.326 . S
C331 C335 1.460 . S
C331 H337 0.929 . S
N332 Mn325 2.257 . S
N332 C331 1.326 . S
N332 C336 1.362 . S
C333 C334 1.258 . S
C333 C336 1.431 . S
C333 C353 1.449 . S
C334 C333 1.258 . S
C334 C335 1.477 . S
C334 H354 0.931 . S
C335 C331 1.460 . S
C335 C334 1.477 . S
C335 H355 0.930 . S
C336 N332 1.362 . S
C336 C333 1.431 . S
C336 C346 1.476 . S
H337 C331 0.929 . S
C338 O329 1.250 . S
C338 O330 1.258 . S
O339 Mn324 2.162 . S
O339 C327 1.281 . S
O340 Mn324 2.297 . S
O340 C327 1.236 . S
N341 Mn325 2.282 . S
N341 C342 1.328 . S
N341 C346 1.318 . S
C342 N341 1.328 . S
C342 C343 1.457 . S
C342 H347 0.929 . S
C343 C342 1.457 . S
C343 C344 1.291 . S
C343 H356 0.931 . S
C344 C343 1.291 . S
C344 C345 1.373 . S
C344 H357 0.929 . S
C345 C344 1.373 . S
C345 C346 1.396 . S
C345 C352 1.403 . S
C346 C336 1.476 . S
C346 N341 1.318 . S
C346 C345 1.396 . S
H347 C342 0.929 . S
O348 Mn324 2.385 . S
O348 C326 1.234 . S
O349 Mn324 2.209 . S
O349 Mn325 2.215 . S
O349 C326 1.283 . S
O350 Mn324 2.094 . S
O350 C328 1.240 . S
O351 Mn325 2.117 . S
O351 C328 1.264 . S
C352 C345 1.403 . S
C352 C353 1.399 . S
C352 H358 0.929 . S
C353 C333 1.449 . S
C353 C352 1.399 . S
C353 H359 0.930 . S
H354 C334 0.931 . S
H355 C335 0.930 . S
H356 C343 0.931 . S
H357 C344 0.929 . S
H358 C352 0.929 . S
H359 C353 0.930 . S
Mn360 O365 2.095 . S
Mn360 O375 2.162 . S
Mn360 O376 2.297 . S
Mn360 O384 2.385 . S
Mn360 O385 2.209 . S
Mn360 O386 2.094 . S
Mn361 O366 2.121 . S
Mn361 N368 2.257 . S
Mn361 N377 2.282 . S
Mn361 O385 2.215 . S
Mn361 O387 2.117 . S
C362 O384 1.234 . S
C362 O385 1.283 . S
C363 O375 1.281 . S
C363 O376 1.236 . S
C364 O386 1.240 . S
C364 O387 1.264 . S
O365 Mn360 2.095 . S
O365 C374 1.250 . S
O366 Mn361 2.121 . S
O366 C374 1.258 . S
C367 N368 1.326 . S
C367 C371 1.460 . S
C367 H373 0.929 . S
N368 Mn361 2.257 . S
N368 C367 1.326 . S
N368 C372 1.362 . S
C369 C370 1.258 . S
C369 C372 1.431 . S
C369 C389 1.449 . S
C370 C369 1.258 . S
C370 C371 1.477 . S
C370 H390 0.931 . S
C371 C367 1.460 . S
C371 C370 1.477 . S
C371 H391 0.930 . S
C372 N368 1.362 . S
C372 C369 1.431 . S
C372 C382 1.476 . S
H373 C367 0.929 . S
C374 O365 1.250 . S
C374 O366 1.258 . S
O375 Mn360 2.162 . S
O375 C363 1.281 . S
O376 Mn360 2.297 . S
O376 C363 1.236 . S
N377 Mn361 2.282 . S
N377 C378 1.328 . S
N377 C382 1.318 . S
C378 N377 1.328 . S
C378 C379 1.457 . S
C378 H383 0.929 . S
C379 C378 1.457 . S
C379 C380 1.291 . S
C379 H392 0.931 . S
C380 C379 1.291 . S
C380 C381 1.373 . S
C380 H393 0.929 . S
C381 C380 1.373 . S
C381 C382 1.396 . S
C381 C388 1.403 . S
C382 C372 1.476 . S
C382 N377 1.318 . S
C382 C381 1.396 . S
H383 C378 0.929 . S
O384 Mn360 2.385 . S
O384 C362 1.234 . S
O385 Mn360 2.209 . S
O385 Mn361 2.215 . S
O385 C362 1.283 . S
O386 Mn360 2.094 . S
O386 C364 1.240 . S
O387 Mn361 2.117 . S
O387 C364 1.264 . S
C388 C381 1.403 . S
C388 C389 1.399 . S
C388 H394 0.929 . S
C389 C369 1.449 . S
C389 C388 1.399 . S
C389 H395 0.930 . S
H390 C370 0.931 . S
H391 C371 0.930 . S
H392 C379 0.931 . S
H393 C380 0.929 . S
H394 C388 0.929 . S
H395 C389 0.930 . S
Mn396 O401 2.095 1_554 S
Mn396 O411 2.162 . S
Mn396 O412 2.297 . S
Mn396 O420 2.385 . S
Mn396 O421 2.203 1_554 S
Mn396 O422 2.094 1_554 S
Mn397 O402 2.121 . S
Mn397 N404 2.257 . S
Mn397 N413 2.282 . S
Mn397 O421 2.237 . S
Mn397 O423 2.117 . S
C398 O420 1.234 . S
C398 O421 1.280 1_554 S
C399 O411 1.281 . S
C399 O412 1.236 . S
C400 O422 1.240 . S
C400 O423 1.264 . S
O401 Mn396 2.095 1_556 S
O401 C410 1.250 . S
O402 Mn397 2.121 . S
O402 C410 1.258 . S
C403 N404 1.326 . S
C403 C407 1.460 1_565 S
C403 H409 0.929 . S
N404 Mn397 2.257 . S
N404 C403 1.326 . S
N404 C408 1.362 . S
C405 C406 1.234 1_565 S
C405 C408 1.459 . S
C405 C425 1.445 1_565 S
C406 C405 1.234 1_545 S
C406 C407 1.477 . S
C406 H426 0.931 . S
C407 C403 1.460 1_545 S
C407 C406 1.477 . S
C407 H427 0.930 . S
C408 N404 1.362 . S
C408 C405 1.459 . S
C408 C418 1.476 . S
H409 C403 0.929 . S
C410 O401 1.250 . S
C410 O402 1.258 . S
O411 Mn396 2.162 . S
O411 C399 1.281 . S
O412 Mn396 2.297 . S
O412 C399 1.236 . S
N413 Mn397 2.282 . S
N413 C414 1.328 . S
N413 C418 1.318 . S
C414 N413 1.328 . S
C414 C415 1.457 . S
C414 H419 0.929 . S
C415 C414 1.457 . S
C415 C416 1.291 . S
C415 H428 0.931 . S
C416 C415 1.291 . S
C416 C417 1.373 . S
C416 H429 0.929 . S
C417 C416 1.373 . S
C417 C418 1.396 . S
C417 C424 1.403 . S
C418 C408 1.476 . S
C418 N413 1.318 . S
C418 C417 1.396 . S
H419 C414 0.929 . S
O420 Mn396 2.385 . S
O420 C398 1.234 . S
O421 Mn396 2.203 1_556 S
O421 Mn397 2.237 . S
O421 C398 1.280 1_556 S
O422 Mn396 2.094 1_556 S
O422 C400 1.240 . S
O423 Mn397 2.117 . S
O423 C400 1.264 . S
C424 C417 1.403 . S
C424 C425 1.399 1_565 S
C424 H430 0.929 . S
C425 C405 1.445 1_545 S
C425 C424 1.399 1_545 S
C425 H431 0.930 . S
H426 C406 0.931 . S
H427 C407 0.930 . S
H428 C415 0.931 . S
H429 C416 0.929 . S
H430 C424 0.929 . S
H431 C425 0.930 . S
Mn432 O437 2.095 . S
Mn432 O447 2.162 . S
Mn432 O448 2.297 . S
Mn432 O456 2.385 . S
Mn432 O457 2.209 . S
Mn432 O458 2.094 . S
Mn433 O438 2.121 . S
Mn433 N440 2.257 . S
Mn433 N449 2.282 1_554 S
Mn433 O457 2.215 . S
Mn433 O459 2.117 1_554 S
C434 O456 1.234 . S
C434 O457 1.283 . S
C435 O447 1.281 . S
C435 O448 1.236 . S
C436 O458 1.240 1_556 S
C436 O459 1.264 . S
O437 Mn432 2.095 . S
O437 C446 1.250 . S
O438 Mn433 2.121 . S
O438 C446 1.258 . S
C439 N440 1.326 . S
C439 C443 1.460 . S
C439 H445 0.929 . S
N440 Mn433 2.257 . S
N440 C439 1.326 . S
N440 C444 1.362 . S
C441 C442 1.258 . S
C441 C444 1.431 . S
C441 C461 1.449 . S
C442 C441 1.258 . S
C442 C443 1.477 . S
C442 H462 0.931 . S
C443 C439 1.460 . S
C443 C442 1.477 . S
C443 H463 0.930 . S
C444 N440 1.362 . S
C444 C441 1.431 . S
C444 C454 1.476 1_554 S
H445 C439 0.929 . S
C446 O437 1.250 . S
C446 O438 1.258 . S
O447 Mn432 2.162 . S
O447 C435 1.281 . S
O448 Mn432 2.297 . S
O448 C435 1.236 . S
N449 Mn433 2.282 1_556 S
N449 C450 1.328 . S
N449 C454 1.318 . S
C450 N449 1.328 . S
C450 C451 1.457 . S
C450 H455 0.929 . S
C451 C450 1.457 . S
C451 C452 1.291 . S
C451 H464 0.931 . S
C452 C451 1.291 . S
C452 C453 1.373 . S
C452 H465 0.929 . S
C453 C452 1.373 . S
C453 C454 1.396 . S
C453 C460 1.403 . S
C454 C444 1.476 1_556 S
C454 N449 1.318 . S
C454 C453 1.396 . S
H455 C450 0.929 . S
O456 Mn432 2.385 . S
O456 C434 1.234 . S
O457 Mn432 2.209 . S
O457 Mn433 2.215 . S
O457 C434 1.283 . S
O458 Mn432 2.094 . S
O458 C436 1.240 1_554 S
O459 Mn433 2.117 1_556 S
O459 C436 1.264 . S
C460 C453 1.403 . S
C460 C461 1.399 1_556 S
C460 H466 0.929 . S
C461 C441 1.449 . S
C461 C460 1.399 1_554 S
C461 H467 0.930 . S
H462 C442 0.931 . S
H463 C443 0.930 . S
H464 C451 0.931 . S
H465 C452 0.929 . S
H466 C460 0.929 . S
H467 C461 0.930 . S
Mn468 O473 2.095 . S
Mn468 O483 2.162 . S
Mn468 O484 2.297 . S
Mn468 O492 2.385 . S
Mn468 O493 2.209 . S
Mn468 O494 2.094 . S
Mn469 O474 2.121 . S
Mn469 N476 2.257 . S
Mn469 N485 2.282 1_554 S
Mn469 O493 2.215 . S
Mn469 O495 2.117 . S
C470 O492 1.234 . S
C470 O493 1.283 . S
C471 O483 1.281 . S
C471 O484 1.236 . S
C472 O494 1.240 . S
C472 O495 1.264 . S
O473 Mn468 2.095 . S
O473 C482 1.250 . S
O474 Mn469 2.121 . S
O474 C482 1.258 . S
C475 N476 1.326 . S
C475 C479 1.460 . S
C475 H481 0.929 . S
N476 Mn469 2.257 . S
N476 C475 1.326 . S
N476 C480 1.362 . S
C477 C478 1.258 . S
C477 C480 1.431 . S
C477 C497 1.449 1_554 S
C478 C477 1.258 . S
C478 C479 1.477 . S
C478 H498 0.931 . S
C479 C475 1.460 . S
C479 C478 1.477 . S
C479 H499 0.930 . S
C480 N476 1.362 . S
C480 C477 1.431 . S
C480 C490 1.476 1_554 S
H481 C475 0.929 . S
C482 O473 1.250 . S
C482 O474 1.258 . S
O483 Mn468 2.162 . S
O483 C471 1.281 . S
O484 Mn468 2.297 . S
O484 C471 1.236 . S
N485 Mn469 2.282 1_556 S
N485 C486 1.328 . S
N485 C490 1.318 . S
C486 N485 1.328 . S
C486 C487 1.457 . S
C486 H491 0.929 . S
C487 C486 1.457 . S
C487 C488 1.291 . S
C487 H500 0.931 . S
C488 C487 1.291 . S
C488 C489 1.373 . S
C488 H501 0.929 . S
C489 C488 1.373 . S
C489 C490 1.396 . S
C489 C496 1.403 . S
C490 C480 1.476 1_556 S
C490 N485 1.318 . S
C490 C489 1.396 . S
H491 C486 0.929 . S
O492 Mn468 2.385 . S
O492 C470 1.234 . S
O493 Mn468 2.209 . S
O493 Mn469 2.215 . S
O493 C470 1.283 . S
O494 Mn468 2.094 . S
O494 C472 1.240 . S
O495 Mn469 2.117 . S
O495 C472 1.264 . S
C496 C489 1.403 . S
C496 C497 1.399 . S
C496 H502 0.929 . S
C497 C477 1.449 1_556 S
C497 C496 1.399 . S
C497 H503 0.930 . S
H498 C478 0.931 . S
H499 C479 0.930 . S
H500 C487 0.931 . S
H501 C488 0.929 . S
H502 C496 0.929 . S
H503 C497 0.930 . S
Mn504 O509 2.095 . S
Mn504 O519 2.162 . S
Mn504 O520 2.297 . S
Mn504 O528 2.385 . S
Mn504 O529 2.209 . S
Mn504 O530 2.094 . S
Mn505 O510 2.121 . S
Mn505 N512 2.257 . S
Mn505 N521 2.282 . S
Mn505 O529 2.215 . S
Mn505 O531 2.117 . S
C506 O528 1.234 . S
C506 O529 1.283 . S
C507 O519 1.281 . S
C507 O520 1.236 . S
C508 O530 1.240 . S
C508 O531 1.264 . S
O509 Mn504 2.095 . S
O509 C518 1.250 . S
O510 Mn505 2.121 . S
O510 C518 1.258 . S
C511 N512 1.326 . S
C511 C515 1.460 . S
C511 H517 0.929 . S
N512 Mn505 2.257 . S
N512 C511 1.326 . S
N512 C516 1.362 . S
C513 C514 1.258 . S
C513 C516 1.431 . S
C513 C533 1.449 . S
C514 C513 1.258 . S
C514 C515 1.477 . S
C514 H534 0.931 . S
C515 C511 1.460 . S
C515 C514 1.477 . S
C515 H535 0.930 . S
C516 N512 1.362 . S
C516 C513 1.431 . S
C516 C526 1.476 . S
H517 C511 0.929 . S
C518 O509 1.250 . S
C518 O510 1.258 . S
O519 Mn504 2.162 . S
O519 C507 1.281 . S
O520 Mn504 2.297 . S
O520 C507 1.236 . S
N521 Mn505 2.282 . S
N521 C522 1.328 . S
N521 C526 1.318 . S
C522 N521 1.328 . S
C522 C523 1.457 . S
C522 H527 0.929 . S
C523 C522 1.457 . S
C523 C524 1.291 . S
C523 H536 0.931 . S
C524 C523 1.291 . S
C524 C525 1.373 . S
C524 H537 0.929 . S
C525 C524 1.373 . S
C525 C526 1.396 . S
C525 C532 1.403 . S
C526 C516 1.476 . S
C526 N521 1.318 . S
C526 C525 1.396 . S
H527 C522 0.929 . S
O528 Mn504 2.385 . S
O528 C506 1.234 . S
O529 Mn504 2.209 . S
O529 Mn505 2.215 . S
O529 C506 1.283 . S
O530 Mn504 2.094 . S
O530 C508 1.240 . S
O531 Mn505 2.117 . S
O531 C508 1.264 . S
C532 C525 1.403 . S
C532 C533 1.399 . S
C532 H538 0.929 . S
C533 C513 1.449 . S
C533 C532 1.399 . S
C533 H539 0.930 . S
H534 C514 0.931 . S
H535 C515 0.930 . S
H536 C523 0.931 . S
H537 C524 0.929 . S
H538 C532 0.929 . S
H539 C533 0.930 . S
Mn540 O545 2.095 . S
Mn540 O555 2.162 . S
Mn540 O556 2.297 . S
Mn540 O564 2.385 . S
Mn540 O565 2.209 . S
Mn540 O566 2.094 . S
Mn541 O546 2.121 . S
Mn541 N548 2.257 . S
Mn541 N557 2.282 . S
Mn541 O565 2.215 . S
Mn541 O567 2.117 . S
C542 O564 1.234 . S
C542 O565 1.283 . S
C543 O555 1.281 . S
C543 O556 1.236 . S
C544 O566 1.240 . S
C544 O567 1.264 . S
O545 Mn540 2.095 . S
O545 C554 1.250 . S
O546 Mn541 2.121 . S
O546 C554 1.258 . S
C547 N548 1.326 . S
C547 C551 1.460 . S
C547 H553 0.929 . S
N548 Mn541 2.257 . S
N548 C547 1.326 . S
N548 C552 1.362 . S
C549 C550 1.258 . S
C549 C552 1.431 . S
C549 C569 1.449 . S
C550 C549 1.258 . S
C550 C551 1.477 . S
C550 H570 0.931 . S
C551 C547 1.460 . S
C551 C550 1.477 . S
C551 H571 0.930 . S
C552 N548 1.362 . S
C552 C549 1.431 . S
C552 C562 1.476 . S
H553 C547 0.929 . S
C554 O545 1.250 . S
C554 O546 1.258 . S
O555 Mn540 2.162 . S
O555 C543 1.281 . S
O556 Mn540 2.297 . S
O556 C543 1.236 . S
N557 Mn541 2.282 . S
N557 C558 1.328 . S
N557 C562 1.318 . S
C558 N557 1.328 . S
C558 C559 1.457 . S
C558 H563 0.929 . S
C559 C558 1.457 . S
C559 C560 1.291 . S
C559 H572 0.931 . S
C560 C559 1.291 . S
C560 C561 1.373 . S
C560 H573 0.929 . S
C561 C560 1.373 . S
C561 C562 1.396 . S
C561 C568 1.403 . S
C562 C552 1.476 . S
C562 N557 1.318 . S
C562 C561 1.396 . S
H563 C558 0.929 . S
O564 Mn540 2.385 . S
O564 C542 1.234 . S
O565 Mn540 2.209 . S
O565 Mn541 2.215 . S
O565 C542 1.283 . S
O566 Mn540 2.094 . S
O566 C544 1.240 . S
O567 Mn541 2.117 . S
O567 C544 1.264 . S
C568 C561 1.403 . S
C568 C569 1.399 . S
C568 H574 0.929 . S
C569 C549 1.449 . S
C569 C568 1.399 . S
C569 H575 0.930 . S
H570 C550 0.931 . S
H571 C551 0.930 . S
H572 C559 0.931 . S
H573 C560 0.929 . S
H574 C568 0.929 . S
H575 C569 0.930 . S
Mn576 O581 2.095 . S
Mn576 O591 2.162 . S
Mn576 O592 2.297 . S
Mn576 O600 2.385 1_545 S
Mn576 O601 2.209 1_545 S
Mn576 O602 2.094 . S
Mn577 O582 2.121 . S
Mn577 N584 2.257 1_545 S
Mn577 N593 2.282 1_545 S
Mn577 O601 2.215 1_545 S
Mn577 O603 2.117 . S
C578 O600 1.234 . S
C578 O601 1.283 . S
C579 O591 1.281 . S
C579 O592 1.236 . S
C580 O602 1.240 . S
C580 O603 1.264 . S
O581 Mn576 2.095 . S
O581 C590 1.250 . S
O582 Mn577 2.121 . S
O582 C590 1.258 . S
C583 N584 1.326 1_545 S
C583 C587 1.460 1_545 S
C583 H589 0.929 . S
N584 Mn577 2.257 1_565 S
N584 C583 1.326 1_565 S
N584 C588 1.362 . S
C585 C586 1.258 . S
C585 C588 1.431 . S
C585 C605 1.449 . S
C586 C585 1.258 . S
C586 C587 1.477 . S
C586 H606 0.931 . S
C587 C583 1.460 1_565 S
C587 C586 1.477 . S
C587 H607 0.930 1_565 S
C588 N584 1.362 . S
C588 C585 1.431 . S
C588 C598 1.476 . S
H589 C583 0.929 . S
C590 O581 1.250 . S
C590 O582 1.258 . S
O591 Mn576 2.162 . S
O591 C579 1.281 . S
O592 Mn576 2.297 . S
O592 C579 1.236 . S
N593 Mn577 2.282 1_565 S
N593 C594 1.328 . S
N593 C598 1.318 . S
C594 N593 1.328 . S
C594 C595 1.457 . S
C594 H599 0.929 . S
C595 C594 1.457 . S
C595 C596 1.291 . S
C595 H608 0.931 . S
C596 C595 1.291 . S
C596 C597 1.373 . S
C596 H609 0.929 . S
C597 C596 1.373 . S
C597 C598 1.396 . S
C597 C604 1.403 . S
C598 C588 1.476 . S
C598 N593 1.318 . S
C598 C597 1.396 . S
H599 C594 0.929 . S
O600 Mn576 2.385 1_565 S
O600 C578 1.234 . S
O601 Mn576 2.209 1_565 S
O601 Mn577 2.215 1_565 S
O601 C578 1.283 . S
O602 Mn576 2.094 . S
O602 C580 1.240 . S
O603 Mn577 2.117 . S
O603 C580 1.264 . S
C604 C597 1.403 . S
C604 C605 1.399 . S
C604 H610 0.929 . S
C605 C585 1.449 . S
C605 C604 1.399 . S
C605 H611 0.930 . S
H606 C586 0.931 . S
H607 C587 0.930 1_545 S
H608 C595 0.931 . S
H609 C596 0.929 . S
H610 C604 0.929 . S
H611 C605 0.930 . S
Mn612 O617 2.095 . S
Mn612 O627 2.162 . S
Mn612 O628 2.297 . S
Mn612 O636 2.385 . S
Mn612 O637 2.209 . S
Mn612 O638 2.094 . S
Mn613 O618 2.121 . S
Mn613 N620 2.257 . S
Mn613 N629 2.282 . S
Mn613 O637 2.215 . S
Mn613 O639 2.117 . S
C614 O636 1.234 . S
C614 O637 1.283 . S
C615 O627 1.281 . S
C615 O628 1.236 . S
C616 O638 1.240 . S
C616 O639 1.264 . S
O617 Mn612 2.095 . S
O617 C626 1.250 . S
O618 Mn613 2.121 . S
O618 C626 1.258 . S
C619 N620 1.326 . S
C619 C623 1.460 . S
C619 H625 0.929 . S
N620 Mn613 2.257 . S
N620 C619 1.326 . S
N620 C624 1.362 . S
C621 C622 1.258 . S
C621 C624 1.431 . S
C621 C641 1.449 . S
C622 C621 1.258 . S
C622 C623 1.477 . S
C622 H642 0.931 . S
C623 C619 1.460 . S
C623 C622 1.477 . S
C623 H643 0.930 . S
C624 N620 1.362 . S
C624 C621 1.431 . S
C624 C634 1.476 . S
H625 C619 0.929 . S
C626 O617 1.250 . S
C626 O618 1.258 . S
O627 Mn612 2.162 . S
O627 C615 1.281 . S
O628 Mn612 2.297 . S
O628 C615 1.236 . S
N629 Mn613 2.282 . S
N629 C630 1.328 . S
N629 C634 1.318 . S
C630 N629 1.328 . S
C630 C631 1.457 . S
C630 H635 0.929 . S
C631 C630 1.457 . S
C631 C632 1.291 . S
C631 H644 0.931 . S
C632 C631 1.291 . S
C632 C633 1.373 . S
C632 H645 0.929 . S
C633 C632 1.373 . S
C633 C634 1.396 . S
C633 C640 1.403 . S
C634 C624 1.476 . S
C634 N629 1.318 . S
C634 C633 1.396 . S
H635 C630 0.929 . S
O636 Mn612 2.385 . S
O636 C614 1.234 . S
O637 Mn612 2.209 . S
O637 Mn613 2.215 . S
O637 C614 1.283 . S
O638 Mn612 2.094 . S
O638 C616 1.240 . S
O639 Mn613 2.117 . S
O639 C616 1.264 . S
C640 C633 1.403 . S
C640 C641 1.399 . S
C640 H646 0.929 . S
C641 C621 1.449 . S
C641 C640 1.399 . S
C641 H647 0.930 . S
H642 C622 0.931 . S
H643 C623 0.930 . S
H644 C631 0.931 . S
H645 C632 0.929 . S
H646 C640 0.929 . S
H647 C641 0.930 . S
Mn648 O653 2.095 . S
Mn648 O663 2.162 . S
Mn648 O664 2.297 . S
Mn648 O672 2.385 . S
Mn648 O673 2.209 . S
Mn648 O674 2.094 . S
Mn649 O654 2.121 . S
Mn649 N656 2.257 . S
Mn649 N665 2.282 . S
Mn649 O673 2.215 . S
Mn649 O675 2.117 . S
C650 O672 1.234 . S
C650 O673 1.283 . S
C651 O663 1.281 . S
C651 O664 1.236 . S
C652 O674 1.240 . S
C652 O675 1.264 . S
O653 Mn648 2.095 . S
O653 C662 1.250 . S
O654 Mn649 2.121 . S
O654 C662 1.258 . S
C655 N656 1.326 . S
C655 C659 1.460 . S
C655 H661 0.929 . S
N656 Mn649 2.257 . S
N656 C655 1.326 . S
N656 C660 1.362 . S
C657 C658 1.258 . S
C657 C660 1.431 . S
C657 C677 1.449 . S
C658 C657 1.258 . S
C658 C659 1.477 . S
C658 H678 0.931 . S
C659 C655 1.460 . S
C659 C658 1.477 . S
C659 H679 0.930 . S
C660 N656 1.362 . S
C660 C657 1.431 . S
C660 C670 1.476 . S
H661 C655 0.929 . S
C662 O653 1.250 . S
C662 O654 1.258 . S
O663 Mn648 2.162 . S
O663 C651 1.281 . S
O664 Mn648 2.297 . S
O664 C651 1.236 . S
N665 Mn649 2.282 . S
N665 C666 1.328 . S
N665 C670 1.318 . S
C666 N665 1.328 . S
C666 C667 1.457 . S
C666 H671 0.929 . S
C667 C666 1.457 . S
C667 C668 1.291 . S
C667 H680 0.931 . S
C668 C667 1.291 . S
C668 C669 1.373 . S
C668 H681 0.929 . S
C669 C668 1.373 . S
C669 C670 1.396 . S
C669 C676 1.403 . S
C670 C660 1.476 . S
C670 N665 1.318 . S
C670 C669 1.396 . S
H671 C666 0.929 . S
O672 Mn648 2.385 . S
O672 C650 1.234 . S
O673 Mn648 2.209 . S
O673 Mn649 2.215 . S
O673 C650 1.283 . S
O674 Mn648 2.094 . S
O674 C652 1.240 . S
O675 Mn649 2.117 . S
O675 C652 1.264 . S
C676 C669 1.403 . S
C676 C677 1.399 . S
C676 H682 0.929 . S
C677 C657 1.449 . S
C677 C676 1.399 . S
C677 H683 0.930 . S
H678 C658 0.931 . S
H679 C659 0.930 . S
H680 C667 0.931 . S
H681 C668 0.929 . S
H682 C676 0.929 . S
H683 C677 0.930 . S
Mn684 O689 2.095 . S
Mn684 O699 2.162 . S
Mn684 O700 2.297 . S
Mn684 O708 2.385 . S
Mn684 O709 2.209 . S
Mn684 O710 2.094 . S
Mn685 O690 2.121 . S
Mn685 N692 2.257 . S
Mn685 N701 2.282 . S
Mn685 O709 2.215 . S
Mn685 O711 2.117 . S
C686 O708 1.234 . S
C686 O709 1.283 . S
C687 O699 1.281 . S
C687 O700 1.236 . S
C688 O710 1.240 . S
C688 O711 1.264 . S
O689 Mn684 2.095 . S
O689 C698 1.250 . S
O690 Mn685 2.121 . S
O690 C698 1.258 . S
C691 N692 1.326 . S
C691 C695 1.460 . S
C691 H697 0.929 . S
N692 Mn685 2.257 . S
N692 C691 1.326 . S
N692 C696 1.362 . S
C693 C694 1.258 . S
C693 C696 1.431 . S
C693 C713 1.449 . S
C694 C693 1.258 . S
C694 C695 1.477 . S
C694 H714 0.931 . S
C695 C691 1.460 . S
C695 C694 1.477 . S
C695 H715 0.930 . S
C696 N692 1.362 . S
C696 C693 1.431 . S
C696 C706 1.476 . S
H697 C691 0.929 . S
C698 O689 1.250 . S
C698 O690 1.258 . S
O699 Mn684 2.162 . S
O699 C687 1.281 . S
O700 Mn684 2.297 . S
O700 C687 1.236 . S
N701 Mn685 2.282 . S
N701 C702 1.328 . S
N701 C706 1.318 . S
C702 N701 1.328 . S
C702 C703 1.457 . S
C702 H707 0.929 . S
C703 C702 1.457 . S
C703 C704 1.291 . S
C703 H716 0.931 . S
C704 C703 1.291 . S
C704 C705 1.373 . S
C704 H717 0.929 . S
C705 C704 1.373 . S
C705 C706 1.396 . S
C705 C712 1.403 . S
C706 C696 1.476 . S
C706 N701 1.318 . S
C706 C705 1.396 . S
H707 C702 0.929 . S
O708 Mn684 2.385 . S
O708 C686 1.234 . S
O709 Mn684 2.209 . S
O709 Mn685 2.215 . S
O709 C686 1.283 . S
O710 Mn684 2.094 . S
O710 C688 1.240 . S
O711 Mn685 2.117 . S
O711 C688 1.264 . S
C712 C705 1.403 . S
C712 C713 1.399 . S
C712 H718 0.929 . S
C713 C693 1.449 . S
C713 C712 1.399 . S
C713 H719 0.930 . S
H714 C694 0.931 . S
H715 C695 0.930 . S
H716 C703 0.931 . S
H717 C704 0.929 . S
H718 C712 0.929 . S
H719 C713 0.930 . S
Mn720 O725 2.095 . S
Mn720 O735 2.162 . S
Mn720 O736 2.297 . S
Mn720 O744 2.385 . S
Mn720 O745 2.209 . S
Mn720 O746 2.094 1_554 S
Mn721 O726 2.121 . S
Mn721 N728 2.257 . S
Mn721 N737 2.282 . S
Mn721 O745 2.215 1_556 S
Mn721 O747 2.117 . S
C722 O744 1.234 . S
C722 O745 1.283 . S
C723 O735 1.281 . S
C723 O736 1.236 . S
C724 O746 1.240 . S
C724 O747 1.264 . S
O725 Mn720 2.095 . S
O725 C734 1.250 . S
O726 Mn721 2.121 . S
O726 C734 1.258 1_556 S
C727 N728 1.326 . S
C727 C731 1.460 . S
C727 H733 0.929 . S
N728 Mn721 2.257 . S
N728 C727 1.326 . S
N728 C732 1.362 . S
C729 C730 1.258 . S
C729 C732 1.431 . S
C729 C749 1.449 . S
C730 C729 1.258 . S
C730 C731 1.477 . S
C730 H750 0.931 . S
C731 C727 1.460 . S
C731 C730 1.477 . S
C731 H751 0.930 . S
C732 N728 1.362 . S
C732 C729 1.431 . S
C732 C742 1.476 . S
H733 C727 0.929 . S
C734 O725 1.250 . S
C734 O726 1.258 1_554 S
O735 Mn720 2.162 . S
O735 C723 1.281 . S
O736 Mn720 2.297 . S
O736 C723 1.236 . S
N737 Mn721 2.282 . S
N737 C738 1.328 . S
N737 C742 1.318 . S
C738 N737 1.328 . S
C738 C739 1.457 . S
C738 H743 0.929 . S
C739 C738 1.457 . S
C739 C740 1.291 . S
C739 H752 0.931 . S
C740 C739 1.291 . S
C740 C741 1.373 . S
C740 H753 0.929 . S
C741 C740 1.373 . S
C741 C742 1.396 . S
C741 C748 1.403 . S
C742 C732 1.476 . S
C742 N737 1.318 . S
C742 C741 1.396 . S
H743 C738 0.929 . S
O744 Mn720 2.385 . S
O744 C722 1.234 . S
O745 Mn720 2.209 . S
O745 Mn721 2.215 1_554 S
O745 C722 1.283 . S
O746 Mn720 2.094 1_556 S
O746 C724 1.240 . S
O747 Mn721 2.117 . S
O747 C724 1.264 . S
C748 C741 1.403 . S
C748 C749 1.399 . S
C748 H754 0.929 . S
C749 C729 1.449 . S
C749 C748 1.399 . S
C749 H755 0.930 . S
H750 C730 0.931 . S
H751 C731 0.930 . S
H752 C739 0.931 . S
H753 C740 0.929 . S
H754 C748 0.929 . S
H755 C749 0.930 . S
Mn756 O761 2.095 . S
Mn756 O771 2.162 . S
Mn756 O772 2.297 . S
Mn756 O780 2.385 . S
Mn756 O781 2.209 . S
Mn756 O782 2.094 . S
Mn757 O762 2.121 . S
Mn757 N764 2.257 . S
Mn757 N773 2.282 . S
Mn757 O781 2.215 . S
Mn757 O783 2.117 . S
C758 O780 1.234 . S
C758 O781 1.283 . S
C759 O771 1.281 . S
C759 O772 1.236 . S
C760 O782 1.240 . S
C760 O783 1.264 . S
O761 Mn756 2.095 . S
O761 C770 1.250 . S
O762 Mn757 2.121 . S
O762 C770 1.258 . S
C763 N764 1.326 . S
C763 C767 1.460 . S
C763 H769 0.929 . S
N764 Mn757 2.257 . S
N764 C763 1.326 . S
N764 C768 1.362 . S
C765 C766 1.258 . S
C765 C768 1.431 . S
C765 C785 1.449 . S
C766 C765 1.258 . S
C766 C767 1.477 . S
C766 H786 0.931 . S
C767 C763 1.460 . S
C767 C766 1.477 . S
C767 H787 0.930 . S
C768 N764 1.362 . S
C768 C765 1.431 . S
C768 C778 1.476 . S
H769 C763 0.929 . S
C770 O761 1.250 . S
C770 O762 1.258 . S
O771 Mn756 2.162 . S
O771 C759 1.281 . S
O772 Mn756 2.297 . S
O772 C759 1.236 . S
N773 Mn757 2.282 . S
N773 C774 1.328 . S
N773 C778 1.318 . S
C774 N773 1.328 . S
C774 C775 1.457 . S
C774 H779 0.929 . S
C775 C774 1.457 . S
C775 C776 1.291 . S
C775 H788 0.931 . S
C776 C775 1.291 . S
C776 C777 1.373 . S
C776 H789 0.929 . S
C777 C776 1.373 . S
C777 C778 1.396 . S
C777 C784 1.403 . S
C778 C768 1.476 . S
C778 N773 1.318 . S
C778 C777 1.396 . S
H779 C774 0.929 . S
O780 Mn756 2.385 . S
O780 C758 1.234 . S
O781 Mn756 2.209 . S
O781 Mn757 2.215 . S
O781 C758 1.283 . S
O782 Mn756 2.094 . S
O782 C760 1.240 . S
O783 Mn757 2.117 . S
O783 C760 1.264 . S
C784 C777 1.403 . S
C784 C785 1.399 . S
C784 H790 0.929 . S
C785 C765 1.449 . S
C785 C784 1.399 . S
C785 H791 0.930 . S
H786 C766 0.931 . S
H787 C767 0.930 . S
H788 C775 0.931 . S
H789 C776 0.929 . S
H790 C784 0.929 . S
H791 C785 0.930 . S
Mn792 O797 2.095 . S
Mn792 O807 2.162 . S
Mn792 O808 2.297 . S
Mn792 O816 2.385 . S
Mn792 O817 2.209 . S
Mn792 O818 2.094 . S
Mn793 O798 2.121 . S
Mn793 N800 2.257 . S
Mn793 N809 2.282 . S
Mn793 O817 2.215 . S
Mn793 O819 2.117 . S
C794 O816 1.234 . S
C794 O817 1.283 . S
C795 O807 1.281 . S
C795 O808 1.236 . S
C796 O818 1.240 . S
C796 O819 1.264 . S
O797 Mn792 2.095 . S
O797 C806 1.250 . S
O798 Mn793 2.121 . S
O798 C806 1.258 . S
C799 N800 1.326 . S
C799 C803 1.460 . S
C799 H805 0.929 . S
N800 Mn793 2.257 . S
N800 C799 1.326 . S
N800 C804 1.362 . S
C801 C802 1.258 . S
C801 C804 1.431 . S
C801 C821 1.449 . S
C802 C801 1.258 . S
C802 C803 1.477 . S
C802 H822 0.931 . S
C803 C799 1.460 . S
C803 C802 1.477 . S
C803 H823 0.930 . S
C804 N800 1.362 . S
C804 C801 1.431 . S
C804 C814 1.476 . S
H805 C799 0.929 . S
C806 O797 1.250 . S
C806 O798 1.258 . S
O807 Mn792 2.162 . S
O807 C795 1.281 . S
O808 Mn792 2.297 . S
O808 C795 1.236 . S
N809 Mn793 2.282 . S
N809 C810 1.328 . S
N809 C814 1.318 . S
C810 N809 1.328 . S
C810 C811 1.457 . S
C810 H815 0.929 . S
C811 C810 1.457 . S
C811 C812 1.291 . S
C811 H824 0.931 . S
C812 C811 1.291 . S
C812 C813 1.373 . S
C812 H825 0.929 . S
C813 C812 1.373 . S
C813 C814 1.396 . S
C813 C820 1.403 . S
C814 C804 1.476 . S
C814 N809 1.318 . S
C814 C813 1.396 . S
H815 C810 0.929 . S
O816 Mn792 2.385 . S
O816 C794 1.234 . S
O817 Mn792 2.209 . S
O817 Mn793 2.215 . S
O817 C794 1.283 . S
O818 Mn792 2.094 . S
O818 C796 1.240 . S
O819 Mn793 2.117 . S
O819 C796 1.264 . S
C820 C813 1.403 . S
C820 C821 1.399 . S
C820 H826 0.929 . S
C821 C801 1.449 . S
C821 C820 1.399 . S
C821 H827 0.930 . S
H822 C802 0.931 . S
H823 C803 0.930 . S
H824 C811 0.931 . S
H825 C812 0.929 . S
H826 C820 0.929 . S
H827 C821 0.930 . S
Mn828 O833 2.095 . S
Mn828 O843 2.162 . S
Mn828 O844 2.297 . S
Mn828 O852 2.385 . S
Mn828 O853 2.209 . S
Mn828 O854 2.094 . S
Mn829 O834 2.121 . S
Mn829 N836 2.257 . S
Mn829 N845 2.282 . S
Mn829 O853 2.215 . S
Mn829 O855 2.117 . S
C830 O852 1.234 . S
C830 O853 1.283 . S
C831 O843 1.281 . S
C831 O844 1.236 . S
C832 O854 1.240 . S
C832 O855 1.264 . S
O833 Mn828 2.095 . S
O833 C842 1.250 . S
O834 Mn829 2.121 . S
O834 C842 1.258 . S
C835 N836 1.326 . S
C835 C839 1.460 . S
C835 H841 0.929 . S
N836 Mn829 2.257 . S
N836 C835 1.326 . S
N836 C840 1.362 . S
C837 C838 1.258 . S
C837 C840 1.431 . S
C837 C857 1.449 . S
C838 C837 1.258 . S
C838 C839 1.477 . S
C838 H858 0.931 . S
C839 C835 1.460 . S
C839 C838 1.477 . S
C839 H859 0.930 . S
C840 N836 1.362 . S
C840 C837 1.431 . S
C840 C850 1.476 . S
H841 C835 0.929 . S
C842 O833 1.250 . S
C842 O834 1.258 . S
O843 Mn828 2.162 . S
O843 C831 1.281 . S
O844 Mn828 2.297 . S
O844 C831 1.236 . S
N845 Mn829 2.282 . S
N845 C846 1.328 . S
N845 C850 1.318 . S
C846 N845 1.328 . S
C846 C847 1.457 . S
C846 H851 0.929 . S
C847 C846 1.457 . S
C847 C848 1.291 . S
C847 H860 0.931 . S
C848 C847 1.291 . S
C848 C849 1.373 . S
C848 H861 0.929 . S
C849 C848 1.373 . S
C849 C850 1.396 . S
C849 C856 1.403 . S
C850 C840 1.476 . S
C850 N845 1.318 . S
C850 C849 1.396 . S
H851 C846 0.929 . S
O852 Mn828 2.385 . S
O852 C830 1.234 . S
O853 Mn828 2.209 . S
O853 Mn829 2.215 . S
O853 C830 1.283 . S
O854 Mn828 2.094 . S
O854 C832 1.240 . S
O855 Mn829 2.117 . S
O855 C832 1.264 . S
C856 C849 1.403 . S
C856 C857 1.399 . S
C856 H862 0.929 . S
C857 C837 1.449 . S
C857 C856 1.399 . S
C857 H863 0.930 . S
H858 C838 0.931 . S
H859 C839 0.930 . S
H860 C847 0.931 . S
H861 C848 0.929 . S
H862 C856 0.929 . S
H863 C857 0.930 . S
Tb864 N893 2.617 . S
Tb864 N899 2.572 . S
Tb864 O908 2.465 . S
Tb864 O909 2.387 . S
Tb864 O911 2.428 . S
Tb864 O912 2.362 . S
Tb864 O916 2.349 1_545 S
Tb864 O919 2.393 . S
Tb864 C928 2.802 . S
C865 N866 1.379 . S
C865 C868 1.416 . S
C865 C872 1.424 1_556 S
N866 C865 1.379 . S
N866 C869 1.334 . S
N866 Tb875 2.617 1_566 S
C867 C869 1.390 . S
C867 C870 1.339 . S
C867 H887 0.930 . S
C868 C865 1.416 . S
C868 C870 1.416 . S
C868 C874 1.448 . S
C869 N866 1.334 . S
C869 C867 1.390 . S
C869 H880 0.930 . S
C870 C867 1.339 . S
C870 C868 1.416 . S
C870 H891 0.930 . S
C871 C872 1.413 . S
C871 C873 1.427 1_554 S
C871 C877 1.416 . S
C872 C865 1.424 1_554 S
C872 C871 1.413 . S
C872 N876 1.361 . S
C873 C871 1.427 1_556 S
C873 C874 1.328 . S
C873 H888 0.929 . S
C874 C868 1.448 . S
C874 C873 1.328 . S
C874 H889 0.930 . S
Tb875 N866 2.617 1_544 S
Tb875 N876 2.572 1_545 S
Tb875 O910 2.349 1_655 S
Tb875 O913 2.393 1_654 S
Tb875 O914 2.465 . S
Tb875 O915 2.387 1_645 S
Tb875 O917 2.428 1_554 S
Tb875 O918 2.308 1_655 S
Tb875 C939 2.802 1_554 S
N876 C872 1.361 . S
N876 Tb875 2.572 1_565 S
N876 C878 1.340 . S
C877 C871 1.416 . S
C877 C879 1.332 . S
C877 H885 0.931 . S
C878 N876 1.340 . S
C878 C879 1.407 . S
C878 H884 0.930 . S
C879 C877 1.332 . S
C879 C878 1.407 . S
C879 H881 0.929 . S
H880 C869 0.930 . S
H881 C879 0.929 . S
H882 C897 0.930 . S
H883 C904 0.929 . S
H884 C878 0.930 . S
H885 C877 0.931 . S
H886 C900 0.930 1_556 S
H887 C867 0.930 . S
H888 C873 0.929 . S
H889 C874 0.930 . S
H890 C895 0.930 . S
H891 C870 0.930 . S
H892 C903 0.931 . S
N893 Tb864 2.617 . S
N893 C894 1.379 . S
N893 C897 1.334 . S
C894 N893 1.379 . S
C894 C896 1.416 . S
C894 C902 1.424 . S
C895 H890 0.930 . S
C895 C897 1.390 . S
C895 C898 1.339 . S
C896 C894 1.416 . S
C896 C898 1.416 . S
C896 C929 1.448 . S
C897 H882 0.930 . S
C897 N893 1.334 . S
C897 C895 1.390 . S
C898 C895 1.339 . S
C898 C896 1.416 . S
C898 H905 0.930 . S
N899 Tb864 2.572 . S
N899 C900 1.340 . S
N899 C902 1.361 . S
C900 H886 0.930 1_554 S
C900 N899 1.340 . S
C900 C904 1.407 1_554 S
C901 C902 1.413 . S
C901 C903 1.416 . S
C901 C930 1.427 . S
C902 C894 1.424 . S
C902 N899 1.361 . S
C902 C901 1.413 . S
C903 H892 0.931 . S
C903 C901 1.416 . S
C903 C904 1.332 1_554 S
C904 H883 0.929 . S
C904 C900 1.407 1_556 S
C904 C903 1.332 1_556 S
H905 C898 0.930 . S
H906 C929 0.930 . S
H907 C930 0.929 . S
O908 Tb864 2.465 . S
O908 C928 1.264 . S
O909 Tb864 2.387 . S
O909 C920 1.264 . S
O910 Tb875 2.349 1_455 S
O910 C920 1.243 . S
O911 Tb864 2.428 . S
O911 C928 1.256 . S
O912 Tb864 2.362 . S
O912 C927 1.220 1_554 S
O913 Tb875 2.393 1_456 S
O913 C927 1.248 . S
O914 Tb875 2.465 . S
O914 C939 1.261 1_554 S
O915 Tb875 2.387 1_465 S
O915 C931 1.264 . S
O916 Tb864 2.349 1_565 S
O916 C931 1.243 . S
O917 Tb875 2.428 1_556 S
O917 C939 1.259 . S
O918 Tb875 2.308 1_455 S
O918 C938 1.266 . S
O919 Tb864 2.393 . S
O919 C938 1.248 . S
C920 O909 1.264 . S
C920 O910 1.243 . S
C921 C924 1.399 . S
C921 C926 1.404 . S
C921 C928 1.496 . S
C922 C923 1.399 . S
C922 C926 1.363 1_565 S
C923 C922 1.399 . S
C923 C925 1.380 1_565 S
C923 H940 0.929 . S
C924 C921 1.399 . S
C924 C925 1.392 . S
C924 H941 0.929 . S
C925 C923 1.380 1_545 S
C925 C924 1.392 . S
C925 H942 0.929 . S
C926 C921 1.404 . S
C926 C922 1.363 1_545 S
C926 H943 0.936 . S
C927 O912 1.220 1_556 S
C927 O913 1.248 . S
C928 Tb864 2.802 . S
C928 O908 1.264 . S
C928 O911 1.256 . S
C928 C921 1.496 . S
C929 C896 1.448 . S
C929 H906 0.930 . S
C929 C930 1.328 . S
C930 C901 1.427 . S
C930 H907 0.929 . S
C930 C929 1.328 . S
C931 O915 1.264 . S
C931 O916 1.243 . S
C932 C935 1.399 . S
C932 C936 1.383 1_556 S
C932 C939 1.496 . S
C933 C934 1.399 1_554 S
C933 C936 1.389 . S
C934 C933 1.399 1_556 S
C934 C937 1.380 . S
C934 H944 0.929 . S
C935 C932 1.399 . S
C935 C937 1.392 . S
C935 H945 0.929 . S
C936 C932 1.383 1_554 S
C936 C933 1.389 . S
C936 H946 0.931 . S
C937 C934 1.380 . S
C937 C935 1.392 . S
C937 H947 0.929 . S
C938 O918 1.266 . S
C938 O919 1.248 . S
C939 Tb875 2.802 1_556 S
C939 O914 1.261 1_556 S
C939 O917 1.259 . S
C939 C932 1.496 . S
H940 C923 0.929 . S
H941 C924 0.929 . S
H942 C925 0.929 . S
H943 C926 0.936 . S
H944 C934 0.929 . S
H945 C935 0.929 . S
H946 C936 0.931 . S
H947 C937 0.929 . S
Tb948 N977 2.617 . S
Tb948 N983 2.572 . S
Tb948 O992 2.465 . S
Tb948 O993 2.387 . S
Tb948 O995 2.428 . S
Tb948 O996 2.308 . S
Tb948 O1000 2.349 . S
Tb948 O1003 2.393 . S
Tb948 C1012 2.802 . S
C949 N950 1.379 . S
C949 C952 1.416 . S
C949 C956 1.424 . S
N950 C949 1.379 . S
N950 C953 1.334 . S
N950 Tb959 2.617 . S
C951 C953 1.390 . S
C951 C954 1.339 . S
C951 H971 0.930 . S
C952 C949 1.416 . S
C952 C954 1.416 . S
C952 C958 1.448 . S
C953 N950 1.334 . S
C953 C951 1.390 . S
C953 H964 0.930 . S
C954 C951 1.339 . S
C954 C952 1.416 . S
C954 H975 0.930 . S
C955 C956 1.413 . S
C955 C957 1.427 . S
C955 C961 1.416 . S
C956 C949 1.424 . S
C956 C955 1.413 . S
C956 N960 1.361 . S
C957 C955 1.427 . S
C957 C958 1.328 . S
C957 H972 0.929 . S
C958 C952 1.448 . S
C958 C957 1.328 . S
C958 H973 0.930 . S
Tb959 N950 2.617 . S
Tb959 N960 2.572 . S
Tb959 O994 2.349 . S
Tb959 O997 2.393 . S
Tb959 O998 2.465 . S
Tb959 O999 2.387 . S
Tb959 O1001 2.428 . S
Tb959 O1002 2.308 . S
Tb959 C1023 2.802 . S
N960 C956 1.361 . S
N960 Tb959 2.572 . S
N960 C962 1.340 . S
C961 C955 1.416 . S
C961 C963 1.332 . S
C961 H969 0.931 . S
C962 N960 1.340 . S
C962 C963 1.407 . S
C962 H968 0.930 . S
C963 C961 1.332 . S
C963 C962 1.407 . S
C963 H965 0.929 . S
H964 C953 0.930 . S
H965 C963 0.929 . S
H966 C981 0.930 . S
H967 C988 0.929 . S
H968 C962 0.930 . S
H969 C961 0.931 . S
H970 C984 0.930 . S
H971 C951 0.930 . S
H972 C957 0.929 . S
H973 C958 0.930 . S
H974 C979 0.930 . S
H975 C954 0.930 . S
H976 C987 0.931 . S
N977 Tb948 2.617 . S
N977 C978 1.379 . S
N977 C981 1.334 . S
C978 N977 1.379 . S
C978 C980 1.416 . S
C978 C986 1.424 . S
C979 H974 0.930 . S
C979 C981 1.390 . S
C979 C982 1.339 . S
C980 C978 1.416 . S
C980 C982 1.416 . S
C980 C1013 1.448 . S
C981 H966 0.930 . S
C981 N977 1.334 . S
C981 C979 1.390 . S
C982 C979 1.339 . S
C982 C980 1.416 . S
C982 H989 0.930 . S
N983 Tb948 2.572 . S
N983 C984 1.340 . S
N983 C986 1.361 . S
C984 H970 0.930 . S
C984 N983 1.340 . S
C984 C988 1.407 . S
C985 C986 1.413 . S
C985 C987 1.416 . S
C985 C1014 1.427 . S
C986 C978 1.424 . S
C986 N983 1.361 . S
C986 C985 1.413 . S
C987 H976 0.931 . S
C987 C985 1.416 . S
C987 C988 1.332 . S
C988 H967 0.929 . S
C988 C984 1.407 . S
C988 C987 1.332 . S
H989 C982 0.930 . S
H990 C1013 0.930 . S
H991 C1014 0.929 . S
O992 Tb948 2.465 . S
O992 C1012 1.264 . S
O993 Tb948 2.387 . S
O993 C1004 1.264 . S
O994 Tb959 2.349 . S
O994 C1004 1.243 . S
O995 Tb948 2.428 . S
O995 C1012 1.256 . S
O996 Tb948 2.308 . S
O996 C1011 1.266 . S
O997 Tb959 2.393 . S
O997 C1011 1.248 . S
O998 Tb959 2.465 . S
O998 C1023 1.264 . S
O999 Tb959 2.387 . S
O999 C1015 1.264 . S
O1000 Tb948 2.349 . S
O1000 C1015 1.243 . S
O1001 Tb959 2.428 . S
O1001 C1023 1.256 . S
O1002 Tb959 2.308 . S
O1002 C1022 1.266 . S
O1003 Tb948 2.393 . S
O1003 C1022 1.248 . S
C1004 O993 1.264 . S
C1004 O994 1.243 . S
C1005 C1008 1.399 . S
C1005 C1010 1.383 . S
C1005 C1012 1.496 . S
C1006 C1007 1.399 . S
C1006 C1010 1.389 . S
C1007 C1006 1.399 . S
C1007 C1009 1.380 . S
C1007 H1024 0.929 . S
C1008 C1005 1.399 . S
C1008 C1009 1.392 . S
C1008 H1025 0.929 . S
C1009 C1007 1.380 . S
C1009 C1008 1.392 . S
C1009 H1026 0.929 . S
C1010 C1005 1.383 . S
C1010 C1006 1.389 . S
C1010 H1027 0.931 . S
C1011 O996 1.266 . S
C1011 O997 1.248 . S
C1012 Tb948 2.802 . S
C1012 O992 1.264 . S
C1012 O995 1.256 . S
C1012 C1005 1.496 . S
C1013 C980 1.448 . S
C1013 H990 0.930 . S
C1013 C1014 1.328 . S
C1014 C985 1.427 . S
C1014 H991 0.929 . S
C1014 C1013 1.328 . S
C1015 O999 1.264 . S
C1015 O1000 1.243 . S
C1016 C1019 1.399 . S
C1016 C1020 1.383 . S
C1016 C1023 1.496 . S
C1017 C1018 1.399 . S
C1017 C1020 1.389 . S
C1018 C1017 1.399 . S
C1018 C1021 1.380 . S
C1018 H1028 0.929 . S
C1019 C1016 1.399 . S
C1019 C1021 1.392 . S
C1019 H1029 0.929 . S
C1020 C1016 1.383 . S
C1020 C1017 1.389 . S
C1020 H1030 0.931 . S
C1021 C1018 1.380 . S
C1021 C1019 1.392 . S
C1021 H1031 0.929 . S
C1022 O1002 1.266 . S
C1022 O1003 1.248 . S
C1023 Tb959 2.802 . S
C1023 O998 1.264 . S
C1023 O1001 1.256 . S
C1023 C1016 1.496 . S
H1024 C1007 0.929 . S
H1025 C1008 0.929 . S
H1026 C1009 0.929 . S
H1027 C1010 0.931 . S
H1028 C1018 0.929 . S
H1029 C1019 0.929 . S
H1030 C1020 0.931 . S
H1031 C1021 0.929 . S
Tb1032 N1061 2.617 . S
Tb1032 N1067 2.572 1_545 S
Tb1032 O1076 2.465 . S
Tb1032 O1077 2.387 1_545 S
Tb1032 O1079 2.428 . S
Tb1032 O1080 2.308 . S
Tb1032 O1084 2.349 . S
Tb1032 O1087 2.393 . S
Tb1032 C1096 2.802 . S
C1033 N1034 1.379 . S
C1033 C1036 1.416 . S
C1033 C1040 1.424 . S
N1034 C1033 1.379 . S
N1034 C1037 1.334 . S
N1034 Tb1043 2.617 . S
C1035 C1037 1.390 . S
C1035 C1038 1.339 . S
C1035 H1055 0.930 . S
C1036 C1033 1.416 . S
C1036 C1038 1.416 . S
C1036 C1042 1.448 . S
C1037 N1034 1.334 . S
C1037 C1035 1.390 . S
C1037 H1048 0.930 . S
C1038 C1035 1.339 . S
C1038 C1036 1.416 . S
C1038 H1059 0.930 . S
C1039 C1040 1.413 . S
C1039 C1041 1.427 . S
C1039 C1045 1.416 . S
C1040 C1033 1.424 . S
C1040 C1039 1.413 . S
C1040 N1044 1.361 . S
C1041 C1039 1.427 . S
C1041 C1042 1.328 . S
C1041 H1056 0.929 . S
C1042 C1036 1.448 . S
C1042 C1041 1.328 . S
C1042 H1057 0.930 . S
Tb1043 N1034 2.617 . S
Tb1043 N1044 2.572 . S
Tb1043 O1078 2.349 . S
Tb1043 O1081 2.393 . S
Tb1043 O1082 2.465 . S
Tb1043 O1083 2.387 . S
Tb1043 O1085 2.428 . S
Tb1043 O1086 2.308 . S
Tb1043 C1107 2.802 . S
N1044 C1040 1.361 . S
N1044 Tb1043 2.572 . S
N1044 C1046 1.340 . S
C1045 C1039 1.416 . S
C1045 C1047 1.332 . S
C1045 H1053 0.931 . S
C1046 N1044 1.340 . S
C1046 C1047 1.407 . S
C1046 H1052 0.930 . S
C1047 C1045 1.332 . S
C1047 C1046 1.407 . S
C1047 H1049 0.929 . S
H1048 C1037 0.930 . S
H1049 C1047 0.929 . S
H1050 C1065 0.930 . S
H1051 C1072 0.929 . S
H1052 C1046 0.930 . S
H1053 C1045 0.931 . S
H1054 C1068 0.930 1_545 S
H1055 C1035 0.930 . S
H1056 C1041 0.929 . S
H1057 C1042 0.930 . S
H1058 C1063 0.930 . S
H1059 C1038 0.930 . S
H1060 C1071 0.931 . S
N1061 Tb1032 2.617 . S
N1061 C1062 1.379 1_545 S
N1061 C1065 1.334 . S
C1062 N1061 1.379 1_565 S
C1062 C1064 1.416 . S
C1062 C1070 1.424 . S
C1063 H1058 0.930 . S
C1063 C1065 1.390 1_565 S
C1063 C1066 1.339 . S
C1064 C1062 1.416 . S
C1064 C1066 1.416 . S
C1064 C1097 1.448 . S
C1065 H1050 0.930 . S
C1065 N1061 1.334 . S
C1065 C1063 1.390 1_545 S
C1066 C1063 1.339 . S
C1066 C1064 1.416 . S
C1066 H1073 0.930 . S
N1067 Tb1032 2.572 1_565 S
N1067 C1068 1.340 . S
N1067 C1070 1.361 . S
C1068 H1054 0.930 1_565 S
C1068 N1067 1.340 . S
C1068 C1072 1.407 . S
C1069 C1070 1.413 . S
C1069 C1071 1.416 . S
C1069 C1098 1.427 . S
C1070 C1062 1.424 . S
C1070 N1067 1.361 . S
C1070 C1069 1.413 . S
C1071 H1060 0.931 . S
C1071 C1069 1.416 . S
C1071 C1072 1.332 . S
C1072 H1051 0.929 . S
C1072 C1068 1.407 . S
C1072 C1071 1.332 . S
H1073 C1066 0.930 . S
H1074 C1097 0.930 . S
H1075 C1098 0.929 . S
O1076 Tb1032 2.465 . S
O1076 C1096 1.264 . S
O1077 Tb1032 2.387 1_565 S
O1077 C1088 1.264 . S
O1078 Tb1043 2.349 . S
O1078 C1088 1.243 1_545 S
O1079 Tb1032 2.428 . S
O1079 C1096 1.256 . S
O1080 Tb1032 2.308 . S
O1080 C1095 1.266 . S
O1081 Tb1043 2.393 . S
O1081 C1095 1.248 . S
O1082 Tb1043 2.465 . S
O1082 C1107 1.264 . S
O1083 Tb1043 2.387 . S
O1083 C1099 1.264 . S
O1084 Tb1032 2.349 . S
O1084 C1099 1.243 . S
O1085 Tb1043 2.428 . S
O1085 C1107 1.256 . S
O1086 Tb1043 2.308 . S
O1086 C1106 1.266 . S
O1087 Tb1032 2.393 . S
O1087 C1106 1.248 . S
C1088 O1077 1.264 . S
C1088 O1078 1.243 1_565 S
C1089 C1092 1.399 . S
C1089 C1094 1.383 . S
C1089 C1096 1.496 . S
C1090 C1091 1.399 . S
C1090 C1094 1.389 . S
C1091 C1090 1.399 . S
C1091 C1093 1.380 . S
C1091 H1108 0.929 . S
C1092 C1089 1.399 . S
C1092 C1093 1.392 . S
C1092 H1109 0.929 . S
C1093 C1091 1.380 . S
C1093 C1092 1.392 . S
C1093 H1110 0.929 . S
C1094 C1089 1.383 . S
C1094 C1090 1.389 . S
C1094 H1111 0.931 . S
C1095 O1080 1.266 . S
C1095 O1081 1.248 . S
C1096 Tb1032 2.802 . S
C1096 O1076 1.264 . S
C1096 O1079 1.256 . S
C1096 C1089 1.496 . S
C1097 C1064 1.448 . S
C1097 H1074 0.930 . S
C1097 C1098 1.328 . S
C1098 C1069 1.427 . S
C1098 H1075 0.929 . S
C1098 C1097 1.328 . S
C1099 O1083 1.264 . S
C1099 O1084 1.243 . S
C1100 C1103 1.399 1_545 S
C1100 C1104 1.383 1_545 S
C1100 C1107 1.496 . S
C1101 C1102 1.399 . S
C1101 C1104 1.389 . S
C1102 C1101 1.399 . S
C1102 C1105 1.380 . S
C1102 H1112 0.929 . S
C1103 C1100 1.399 1_565 S
C1103 C1105 1.392 . S
C1103 H1113 0.929 1_565 S
C1104 C1100 1.383 1_565 S
C1104 C1101 1.389 . S
C1104 H1114 0.936 . S
C1105 C1102 1.380 . S
C1105 C1103 1.392 . S
C1105 H1115 0.929 . S
C1106 O1086 1.266 . S
C1106 O1087 1.248 . S
C1107 Tb1043 2.802 . S
C1107 O1082 1.264 . S
C1107 O1085 1.256 . S
C1107 C1100 1.496 . S
H1108 C1091 0.929 . S
H1109 C1092 0.929 . S
H1110 C1093 0.929 . S
H1111 C1094 0.931 . S
H1112 C1102 0.929 . S
H1113 C1103 0.929 1_545 S
H1114 C1104 0.936 . S
H1115 C1105 0.929 . S
Tb1116 N1145 2.617 . S
Tb1116 N1151 2.572 . S
Tb1116 O1160 2.465 . S
Tb1116 O1161 2.387 . S
Tb1116 O1163 2.428 . S
Tb1116 O1164 2.308 . S
Tb1116 O1168 2.349 . S
Tb1116 O1171 2.393 . S
Tb1116 C1180 2.802 . S
C1117 N1118 1.379 . S
C1117 C1120 1.416 . S
C1117 C1124 1.424 . S
N1118 C1117 1.379 . S
N1118 C1121 1.334 . S
N1118 Tb1127 2.617 . S
C1119 C1121 1.390 . S
C1119 C1122 1.339 . S
C1119 H1139 0.930 . S
C1120 C1117 1.416 . S
C1120 C1122 1.416 . S
C1120 C1126 1.448 . S
C1121 N1118 1.334 . S
C1121 C1119 1.390 . S
C1121 H1132 0.930 . S
C1122 C1119 1.339 . S
C1122 C1120 1.416 . S
C1122 H1143 0.930 . S
C1123 C1124 1.413 . S
C1123 C1125 1.427 . S
C1123 C1129 1.416 . S
C1124 C1117 1.424 . S
C1124 C1123 1.413 . S
C1124 N1128 1.361 . S
C1125 C1123 1.427 . S
C1125 C1126 1.328 . S
C1125 H1140 0.929 . S
C1126 C1120 1.448 . S
C1126 C1125 1.328 . S
C1126 H1141 0.930 . S
Tb1127 N1118 2.617 . S
Tb1127 N1128 2.572 . S
Tb1127 O1162 2.349 . S
Tb1127 O1165 2.393 . S
Tb1127 O1166 2.465 . S
Tb1127 O1167 2.387 . S
Tb1127 O1169 2.428 . S
Tb1127 O1170 2.308 . S
Tb1127 C1191 2.802 . S
N1128 C1124 1.361 . S
N1128 Tb1127 2.572 . S
N1128 C1130 1.340 . S
C1129 C1123 1.416 . S
C1129 C1131 1.332 . S
C1129 H1137 0.931 . S
C1130 N1128 1.340 . S
C1130 C1131 1.407 . S
C1130 H1136 0.930 . S
C1131 C1129 1.332 . S
C1131 C1130 1.407 . S
C1131 H1133 0.929 . S
H1132 C1121 0.930 . S
H1133 C1131 0.929 . S
H1134 C1149 0.930 . S
H1135 C1156 0.929 . S
H1136 C1130 0.930 . S
H1137 C1129 0.931 . S
H1138 C1152 0.930 . S
H1139 C1119 0.930 . S
H1140 C1125 0.929 . S
H1141 C1126 0.930 . S
H1142 C1147 0.930 . S
H1143 C1122 0.930 . S
H1144 C1155 0.931 . S
N1145 Tb1116 2.617 . S
N1145 C1146 1.379 . S
N1145 C1149 1.334 . S
C1146 N1145 1.379 . S
C1146 C1148 1.416 . S
C1146 C1154 1.424 . S
C1147 H1142 0.930 . S
C1147 C1149 1.390 . S
C1147 C1150 1.339 . S
C1148 C1146 1.416 . S
C1148 C1150 1.416 . S
C1148 C1181 1.448 . S
C1149 H1134 0.930 . S
C1149 N1145 1.334 . S
C1149 C1147 1.390 . S
C1150 C1147 1.339 . S
C1150 C1148 1.416 . S
C1150 H1157 0.930 . S
N1151 Tb1116 2.572 . S
N1151 C1152 1.340 . S
N1151 C1154 1.361 . S
C1152 H1138 0.930 . S
C1152 N1151 1.340 . S
C1152 C1156 1.407 . S
C1153 C1154 1.413 . S
C1153 C1155 1.416 . S
C1153 C1182 1.427 . S
C1154 C1146 1.424 . S
C1154 N1151 1.361 . S
C1154 C1153 1.413 . S
C1155 H1144 0.931 . S
C1155 C1153 1.416 . S
C1155 C1156 1.332 . S
C1156 H1135 0.929 . S
C1156 C1152 1.407 . S
C1156 C1155 1.332 . S
H1157 C1150 0.930 . S
H1158 C1181 0.930 . S
H1159 C1182 0.929 . S
O1160 Tb1116 2.465 . S
O1160 C1180 1.264 . S
O1161 Tb1116 2.387 . S
O1161 C1172 1.264 . S
O1162 Tb1127 2.349 . S
O1162 C1172 1.243 . S
O1163 Tb1116 2.428 . S
O1163 C1180 1.256 . S
O1164 Tb1116 2.308 . S
O1164 C1179 1.266 . S
O1165 Tb1127 2.393 . S
O1165 C1179 1.248 . S
O1166 Tb1127 2.465 . S
O1166 C1191 1.264 . S
O1167 Tb1127 2.387 . S
O1167 C1183 1.264 . S
O1168 Tb1116 2.349 . S
O1168 C1183 1.243 . S
O1169 Tb1127 2.428 . S
O1169 C1191 1.256 . S
O1170 Tb1127 2.308 . S
O1170 C1190 1.266 . S
O1171 Tb1116 2.393 . S
O1171 C1190 1.248 . S
C1172 O1161 1.264 . S
C1172 O1162 1.243 . S
C1173 C1176 1.399 . S
C1173 C1178 1.383 . S
C1173 C1180 1.496 . S
C1174 C1175 1.399 . S
C1174 C1178 1.389 . S
C1175 C1174 1.399 . S
C1175 C1177 1.380 . S
C1175 H1192 0.929 . S
C1176 C1173 1.399 . S
C1176 C1177 1.392 . S
C1176 H1193 0.929 . S
C1177 C1175 1.380 . S
C1177 C1176 1.392 . S
C1177 H1194 0.929 . S
C1178 C1173 1.383 . S
C1178 C1174 1.389 . S
C1178 H1195 0.931 . S
C1179 O1164 1.266 . S
C1179 O1165 1.248 . S
C1180 Tb1116 2.802 . S
C1180 O1160 1.264 . S
C1180 O1163 1.256 . S
C1180 C1173 1.496 . S
C1181 C1148 1.448 . S
C1181 H1158 0.930 . S
C1181 C1182 1.328 . S
C1182 C1153 1.427 . S
C1182 H1159 0.929 . S
C1182 C1181 1.328 . S
C1183 O1167 1.264 . S
C1183 O1168 1.243 . S
C1184 C1187 1.399 . S
C1184 C1188 1.383 . S
C1184 C1191 1.496 . S
C1185 C1186 1.399 . S
C1185 C1188 1.389 . S
C1186 C1185 1.399 . S
C1186 C1189 1.380 . S
C1186 H1196 0.929 . S
C1187 C1184 1.399 . S
C1187 C1189 1.392 . S
C1187 H1197 0.929 . S
C1188 C1184 1.383 . S
C1188 C1185 1.389 . S
C1188 H1198 0.931 . S
C1189 C1186 1.380 . S
C1189 C1187 1.392 . S
C1189 H1199 0.929 . S
C1190 O1170 1.266 . S
C1190 O1171 1.248 . S
C1191 Tb1127 2.802 . S
C1191 O1166 1.264 . S
C1191 O1169 1.256 . S
C1191 C1184 1.496 . S
H1192 C1175 0.929 . S
H1193 C1176 0.929 . S
H1194 C1177 0.929 . S
H1195 C1178 0.931 . S
H1196 C1186 0.929 . S
H1197 C1187 0.929 . S
H1198 C1188 0.931 . S
H1199 C1189 0.929 . S
Tb1200 N1229 2.631 . S
Tb1200 N1235 2.595 . S
Tb1200 O1244 2.495 . S
Tb1200 O1245 2.367 1_565 S
Tb1200 O1247 2.456 . S
Tb1200 O1248 2.297 1_565 S
Tb1200 O1252 2.337 1_565 S
Tb1200 O1255 2.370 1_565 S
Tb1200 C1264 2.835 . S
C1201 N1202 1.364 1_455 S
C1201 C1204 1.375 1_455 S
C1201 C1208 1.483 . S
N1202 C1201 1.364 1_655 S
N1202 C1205 1.334 . S
N1202 Tb1211 2.617 1_655 S
C1203 C1205 1.390 . S
C1203 C1206 1.339 . S
C1203 H1223 0.930 . S
C1204 C1201 1.375 1_655 S
C1204 C1206 1.416 . S
C1204 C1210 1.431 1_655 S
C1205 N1202 1.334 . S
C1205 C1203 1.390 . S
C1205 H1216 0.930 . S
C1206 C1203 1.339 . S
C1206 C1204 1.416 . S
C1206 H1227 0.930 . S
C1207 C1208 1.413 . S
C1207 C1209 1.427 . S
C1207 C1213 1.416 . S
C1208 C1201 1.483 . S
C1208 C1207 1.413 . S
C1208 N1212 1.361 . S
C1209 C1207 1.427 . S
C1209 C1210 1.385 . S
C1209 H1224 0.929 . S
C1210 C1204 1.431 1_455 S
C1210 C1209 1.385 . S
C1210 H1225 0.893 1_455 S
Tb1211 N1202 2.617 1_455 S
Tb1211 N1212 2.572 . S
Tb1211 O1246 2.349 . S
Tb1211 O1249 2.393 1_455 S
Tb1211 O1250 2.465 . S
Tb1211 O1251 2.387 . S
Tb1211 O1253 2.428 1_455 S
Tb1211 O1254 2.308 . S
Tb1211 C1275 2.802 . S
N1212 C1208 1.361 . S
N1212 Tb1211 2.572 . S
N1212 C1214 1.340 . S
C1213 C1207 1.416 . S
C1213 C1215 1.332 . S
C1213 H1221 0.931 . S
C1214 N1212 1.340 . S
C1214 C1215 1.407 . S
C1214 H1220 0.930 . S
C1215 C1213 1.332 . S
C1215 C1214 1.407 . S
C1215 H1217 0.929 . S
H1216 C1205 0.930 . S
H1217 C1215 0.929 . S
H1218 C1233 0.930 1_545 S
H1219 C1240 0.929 . S
H1220 C1214 0.930 . S
H1221 C1213 0.931 . S
H1222 C1236 0.972 . S
H1223 C1203 0.930 . S
H1224 C1209 0.929 . S
H1225 C1210 0.893 1_655 S
H1226 C1231 0.930 . S
H1227 C1206 0.930 . S
H1228 C1239 0.931 . S
N1229 Tb1200 2.631 . S
N1229 C1230 1.379 . S
N1229 C1233 1.334 . S
C1230 N1229 1.379 . S
C1230 C1232 1.416 . S
C1230 C1238 1.424 . S
C1231 H1226 0.930 . S
C1231 C1233 1.390 . S
C1231 C1234 1.339 . S
C1232 C1230 1.416 . S
C1232 C1234 1.416 . S
C1232 C1265 1.448 . S
C1233 H1218 0.930 1_565 S
C1233 N1229 1.334 . S
C1233 C1231 1.390 . S
C1234 C1231 1.339 . S
C1234 C1232 1.416 . S
C1234 H1241 0.930 . S
N1235 Tb1200 2.595 . S
N1235 C1236 1.280 1_455 S
N1235 C1238 1.361 . S
C1236 H1222 0.972 . S
C1236 N1235 1.280 1_655 S
C1236 C1240 1.430 . S
C1237 C1238 1.413 . S
C1237 C1239 1.416 1_455 S
C1237 C1266 1.427 . S
C1238 C1230 1.424 . S
C1238 N1235 1.361 . S
C1238 C1237 1.413 . S
C1239 H1228 0.931 . S
C1239 C1237 1.416 1_655 S
C1239 C1240 1.332 . S
C1240 H1219 0.929 . S
C1240 C1236 1.430 . S
C1240 C1239 1.332 . S
H1241 C1234 0.930 . S
H1242 C1265 0.930 . S
H1243 C1266 0.929 . S
O1244 Tb1200 2.495 . S
O1244 C1264 1.264 . S
O1245 Tb1200 2.367 1_545 S
O1245 C1256 1.264 . S
O1246 Tb1211 2.349 . S
O1246 C1256 1.243 . S
O1247 Tb1200 2.456 . S
O1247 C1264 1.256 . S
O1248 Tb1200 2.297 1_545 S
O1248 C1263 1.266 1_455 S
O1249 Tb1211 2.393 1_655 S
O1249 C1263 1.248 . S
O1250 Tb1211 2.465 . S
O1250 C1275 1.264 . S
O1251 Tb1211 2.387 . S
O1251 C1267 1.264 . S
O1252 Tb1200 2.337 1_545 S
O1252 C1267 1.243 . S
O1253 Tb1211 2.428 1_655 S
O1253 C1275 1.256 1_655 S
O1254 Tb1211 2.308 . S
O1254 C1274 1.266 . S
O1255 Tb1200 2.370 1_545 S
O1255 C1274 1.248 . S
C1256 O1245 1.264 . S
C1256 O1246 1.243 . S
C1257 C1260 1.399 . S
C1257 C1262 1.383 . S
C1257 C1264 1.496 . S
C1258 C1259 1.399 . S
C1258 C1262 1.389 . S
C1259 C1258 1.399 . S
C1259 C1261 1.380 . S
C1259 H1276 0.929 . S
C1260 C1257 1.399 . S
C1260 C1261 1.392 . S
C1260 H1277 0.929 . S
C1261 C1259 1.380 . S
C1261 C1260 1.392 . S
C1261 H1278 0.929 . S
C1262 C1257 1.383 . S
C1262 C1258 1.389 . S
C1262 H1279 0.931 . S
C1263 O1248 1.266 1_655 S
C1263 O1249 1.248 . S
C1264 Tb1200 2.835 . S
C1264 O1244 1.264 . S
C1264 O1247 1.256 . S
C1264 C1257 1.496 . S
C1265 C1232 1.448 . S
C1265 H1242 0.930 . S
C1265 C1266 1.328 . S
C1266 C1237 1.427 . S
C1266 H1243 0.929 . S
C1266 C1265 1.328 . S
C1267 O1251 1.264 . S
C1267 O1252 1.243 . S
C1268 C1271 1.399 1_455 S
C1268 C1272 1.383 . S
C1268 C1275 1.496 . S
C1269 C1270 1.399 1_455 S
C1269 C1272 1.389 . S
C1270 C1269 1.399 1_655 S
C1270 C1273 1.380 . S
C1270 H1280 0.929 . S
C1271 C1268 1.399 1_655 S
C1271 C1273 1.392 . S
C1271 H1281 0.929 . S
C1272 C1268 1.383 . S
C1272 C1269 1.389 . S
C1272 H1282 0.931 . S
C1273 C1270 1.380 . S
C1273 C1271 1.392 . S
C1273 H1283 0.929 . S
C1274 O1254 1.266 . S
C1274 O1255 1.248 . S
C1275 Tb1211 2.802 . S
C1275 O1250 1.264 . S
C1275 O1253 1.256 1_455 S
C1275 C1268 1.496 . S
H1276 C1259 0.929 . S
H1277 C1260 0.929 . S
H1278 C1261 0.929 . S
H1279 C1262 0.931 . S
H1280 C1270 0.929 . S
H1281 C1271 0.929 . S
H1282 C1272 0.931 . S
H1283 C1273 0.929 . S
Tb1284 N1313 2.617 . S
Tb1284 N1319 2.572 . S
Tb1284 O1328 2.465 . S
Tb1284 O1329 2.387 . S
Tb1284 O1331 2.428 . S
Tb1284 O1332 2.308 . S
Tb1284 O1336 2.349 . S
Tb1284 O1339 2.393 . S
Tb1284 C1348 2.802 . S
C1285 N1286 1.379 . S
C1285 C1288 1.416 . S
C1285 C1292 1.424 . S
N1286 C1285 1.379 . S
N1286 C1289 1.334 . S
N1286 Tb1295 2.617 . S
C1287 C1289 1.390 . S
C1287 C1290 1.339 . S
C1287 H1307 0.930 . S
C1288 C1285 1.416 . S
C1288 C1290 1.416 . S
C1288 C1294 1.448 . S
C1289 N1286 1.334 . S
C1289 C1287 1.390 . S
C1289 H1300 0.930 . S
C1290 C1287 1.339 . S
C1290 C1288 1.416 . S
C1290 H1311 0.930 . S
C1291 C1292 1.413 . S
C1291 C1293 1.427 . S
C1291 C1297 1.416 . S
C1292 C1285 1.424 . S
C1292 C1291 1.413 . S
C1292 N1296 1.361 . S
C1293 C1291 1.427 . S
C1293 C1294 1.328 . S
C1293 H1308 0.929 . S
C1294 C1288 1.448 . S
C1294 C1293 1.328 . S
C1294 H1309 0.930 . S
Tb1295 N1286 2.617 . S
Tb1295 N1296 2.572 . S
Tb1295 O1330 2.349 . S
Tb1295 O1333 2.393 . S
Tb1295 O1334 2.465 . S
Tb1295 O1335 2.387 . S
Tb1295 O1337 2.428 . S
Tb1295 O1338 2.308 . S
Tb1295 C1359 2.802 . S
N1296 C1292 1.361 . S
N1296 Tb1295 2.572 . S
N1296 C1298 1.340 . S
C1297 C1291 1.416 . S
C1297 C1299 1.332 . S
C1297 H1305 0.931 . S
C1298 N1296 1.340 . S
C1298 C1299 1.407 . S
C1298 H1304 0.930 . S
C1299 C1297 1.332 . S
C1299 C1298 1.407 . S
C1299 H1301 0.929 . S
H1300 C1289 0.930 . S
H1301 C1299 0.929 . S
H1302 C1317 0.930 . S
H1303 C1324 0.929 . S
H1304 C1298 0.930 . S
H1305 C1297 0.931 . S
H1306 C1320 0.930 . S
H1307 C1287 0.930 . S
H1308 C1293 0.929 . S
H1309 C1294 0.930 . S
H1310 C1315 0.930 . S
H1311 C1290 0.930 . S
H1312 C1323 0.931 . S
N1313 Tb1284 2.617 . S
N1313 C1314 1.379 . S
N1313 C1317 1.334 . S
C1314 N1313 1.379 . S
C1314 C1316 1.416 . S
C1314 C1322 1.424 . S
C1315 H1310 0.930 . S
C1315 C1317 1.390 . S
C1315 C1318 1.339 . S
C1316 C1314 1.416 . S
C1316 C1318 1.416 . S
C1316 C1349 1.448 . S
C1317 H1302 0.930 . S
C1317 N1313 1.334 . S
C1317 C1315 1.390 . S
C1318 C1315 1.339 . S
C1318 C1316 1.416 . S
C1318 H1325 0.930 . S
N1319 Tb1284 2.572 . S
N1319 C1320 1.340 . S
N1319 C1322 1.361 . S
C1320 H1306 0.930 . S
C1320 N1319 1.340 . S
C1320 C1324 1.407 . S
C1321 C1322 1.413 . S
C1321 C1323 1.416 . S
C1321 C1350 1.427 . S
C1322 C1314 1.424 . S
C1322 N1319 1.361 . S
C1322 C1321 1.413 . S
C1323 H1312 0.931 . S
C1323 C1321 1.416 . S
C1323 C1324 1.332 . S
C1324 H1303 0.929 . S
C1324 C1320 1.407 . S
C1324 C1323 1.332 . S
H1325 C1318 0.930 . S
H1326 C1349 0.930 . S
H1327 C1350 0.929 . S
O1328 Tb1284 2.465 . S
O1328 C1348 1.264 . S
O1329 Tb1284 2.387 . S
O1329 C1340 1.264 . S
O1330 Tb1295 2.349 . S
O1330 C1340 1.243 . S
O1331 Tb1284 2.428 . S
O1331 C1348 1.256 . S
O1332 Tb1284 2.308 . S
O1332 C1347 1.266 . S
O1333 Tb1295 2.393 . S
O1333 C1347 1.248 . S
O1334 Tb1295 2.465 . S
O1334 C1359 1.264 . S
O1335 Tb1295 2.387 . S
O1335 C1351 1.264 . S
O1336 Tb1284 2.349 . S
O1336 C1351 1.243 . S
O1337 Tb1295 2.428 . S
O1337 C1359 1.256 . S
O1338 Tb1295 2.308 . S
O1338 C1358 1.266 . S
O1339 Tb1284 2.393 . S
O1339 C1358 1.248 . S
C1340 O1329 1.264 . S
C1340 O1330 1.243 . S
C1341 C1344 1.399 . S
C1341 C1346 1.383 . S
C1341 C1348 1.496 . S
C1342 C1343 1.399 . S
C1342 C1346 1.389 . S
C1343 C1342 1.399 . S
C1343 C1345 1.380 . S
C1343 H1360 0.929 . S
C1344 C1341 1.399 . S
C1344 C1345 1.392 . S
C1344 H1361 0.929 . S
C1345 C1343 1.380 . S
C1345 C1344 1.392 . S
C1345 H1362 0.929 . S
C1346 C1341 1.383 . S
C1346 C1342 1.389 . S
C1346 H1363 0.931 . S
C1347 O1332 1.266 . S
C1347 O1333 1.248 . S
C1348 Tb1284 2.802 . S
C1348 O1328 1.264 . S
C1348 O1331 1.256 . S
C1348 C1341 1.496 . S
C1349 C1316 1.448 . S
C1349 H1326 0.930 . S
C1349 C1350 1.328 . S
C1350 C1321 1.427 . S
C1350 H1327 0.929 . S
C1350 C1349 1.328 . S
C1351 O1335 1.264 . S
C1351 O1336 1.243 . S
C1352 C1355 1.399 . S
C1352 C1356 1.383 . S
C1352 C1359 1.496 . S
C1353 C1354 1.399 . S
C1353 C1356 1.389 . S
C1354 C1353 1.399 . S
C1354 C1357 1.380 . S
C1354 H1364 0.929 . S
C1355 C1352 1.399 . S
C1355 C1357 1.392 . S
C1355 H1365 0.929 . S
C1356 C1352 1.383 . S
C1356 C1353 1.389 . S
C1356 H1366 0.931 . S
C1357 C1354 1.380 . S
C1357 C1355 1.392 . S
C1357 H1367 0.929 . S
C1358 O1338 1.266 . S
C1358 O1339 1.248 . S
C1359 Tb1295 2.802 . S
C1359 O1334 1.264 . S
C1359 O1337 1.256 . S
C1359 C1352 1.496 . S
H1360 C1343 0.929 . S
H1361 C1344 0.929 . S
H1362 C1345 0.929 . S
H1363 C1346 0.931 . S
H1364 C1354 0.929 . S
H1365 C1355 0.929 . S
H1366 C1356 0.931 . S
H1367 C1357 0.929 . S
Tb1368 N1397 2.617 . S
Tb1368 N1403 2.572 . S
Tb1368 O1412 2.465 . S
Tb1368 O1413 2.387 1_556 S
Tb1368 O1415 2.428 . S
Tb1368 O1416 2.303 1_556 S
Tb1368 O1420 2.349 1_556 S
Tb1368 O1423 2.393 1_556 S
Tb1368 C1432 2.802 . S
C1369 N1370 1.379 1_545 S
C1369 C1372 1.416 1_545 S
C1369 C1376 1.424 . S
N1370 C1369 1.379 1_565 S
N1370 C1373 1.334 . S
N1370 Tb1379 2.617 1_565 S
C1371 C1373 1.390 . S
C1371 C1374 1.339 . S
C1371 H1391 0.930 . S
C1372 C1369 1.416 1_565 S
C1372 C1374 1.416 . S
C1372 C1378 1.448 1_565 S
C1373 N1370 1.334 . S
C1373 C1371 1.390 . S
C1373 H1384 0.930 . S
C1374 C1371 1.339 . S
C1374 C1372 1.416 . S
C1374 H1395 0.930 . S
C1375 C1376 1.413 . S
C1375 C1377 1.427 . S
C1375 C1381 1.416 . S
C1376 C1369 1.424 . S
C1376 C1375 1.413 . S
C1376 N1380 1.361 . S
C1377 C1375 1.427 . S
C1377 C1378 1.328 . S
C1377 H1392 0.929 . S
C1378 C1372 1.448 1_545 S
C1378 C1377 1.328 . S
C1378 H1393 0.930 1_545 S
Tb1379 N1370 2.617 1_545 S
Tb1379 N1380 2.572 . S
Tb1379 O1414 2.349 . S
Tb1379 O1417 2.393 1_545 S
Tb1379 O1418 2.465 . S
Tb1379 O1419 2.387 . S
Tb1379 O1421 2.428 1_545 S
Tb1379 O1422 2.308 . S
Tb1379 C1443 2.802 . S
N1380 C1376 1.361 . S
N1380 Tb1379 2.572 . S
N1380 C1382 1.340 . S
C1381 C1375 1.416 . S
C1381 C1383 1.332 . S
C1381 H1389 0.931 . S
C1382 N1380 1.340 . S
C1382 C1383 1.407 . S
C1382 H1388 0.930 . S
C1383 C1381 1.332 . S
C1383 C1382 1.407 . S
C1383 H1385 0.929 . S
H1384 C1373 0.930 . S
H1385 C1383 0.929 . S
H1386 C1401 0.930 1_554 S
H1387 C1408 0.974 . S
H1388 C1382 0.930 . S
H1389 C1381 0.931 . S
H1390 C1404 0.930 . S
H1391 C1371 0.930 . S
H1392 C1377 0.929 . S
H1393 C1378 0.930 1_565 S
H1394 C1399 0.930 . S
H1395 C1374 0.930 . S
H1396 C1407 0.931 . S
N1397 Tb1368 2.617 . S
N1397 C1398 1.379 . S
N1397 C1401 1.334 . S
C1398 N1397 1.379 . S
C1398 C1400 1.416 . S
C1398 C1406 1.424 . S
C1399 H1394 0.930 . S
C1399 C1401 1.390 . S
C1399 C1402 1.339 . S
C1400 C1398 1.416 . S
C1400 C1402 1.416 . S
C1400 C1433 1.448 . S
C1401 H1386 0.930 1_556 S
C1401 N1397 1.334 . S
C1401 C1399 1.390 . S
C1402 C1399 1.339 . S
C1402 C1400 1.416 . S
C1402 H1409 0.930 . S
N1403 Tb1368 2.572 . S
N1403 C1404 1.340 . S
N1403 C1406 1.361 . S
C1404 H1390 0.930 . S
C1404 N1403 1.340 . S
C1404 C1408 1.395 1_545 S
C1405 C1406 1.413 . S
C1405 C1407 1.416 . S
C1405 C1434 1.427 . S
C1406 C1398 1.424 . S
C1406 N1403 1.361 . S
C1406 C1405 1.413 . S
C1407 H1396 0.931 . S
C1407 C1405 1.416 . S
C1407 C1408 1.301 1_545 S
C1408 H1387 0.974 . S
C1408 C1404 1.395 1_565 S
C1408 C1407 1.301 1_565 S
H1409 C1402 0.930 . S
H1410 C1433 0.930 . S
H1411 C1434 0.929 . S
O1412 Tb1368 2.465 . S
O1412 C1432 1.264 . S
O1413 Tb1368 2.387 1_554 S
O1413 C1424 1.264 . S
O1414 Tb1379 2.349 . S
O1414 C1424 1.243 . S
O1415 Tb1368 2.428 . S
O1415 C1432 1.256 . S
O1416 Tb1368 2.303 1_554 S
O1416 C1431 1.276 1_545 S
O1417 Tb1379 2.393 1_565 S
O1417 C1431 1.248 . S
O1418 Tb1379 2.465 . S
O1418 C1443 1.264 . S
O1419 Tb1379 2.387 . S
O1419 C1435 1.264 . S
O1420 Tb1368 2.349 1_554 S
O1420 C1435 1.243 . S
O1421 Tb1379 2.428 1_565 S
O1421 C1443 1.256 1_565 S
O1422 Tb1379 2.308 . S
O1422 C1442 1.266 . S
O1423 Tb1368 2.393 1_554 S
O1423 C1442 1.248 . S
C1424 O1413 1.264 . S
C1424 O1414 1.243 . S
C1425 C1428 1.399 . S
C1425 C1430 1.383 . S
C1425 C1432 1.496 . S
C1426 C1427 1.399 . S
C1426 C1430 1.389 . S
C1427 C1426 1.399 . S
C1427 C1429 1.380 . S
C1427 H1444 0.929 . S
C1428 C1425 1.399 . S
C1428 C1429 1.392 . S
C1428 H1445 0.929 . S
C1429 C1427 1.380 . S
C1429 C1428 1.392 . S
C1429 H1446 0.929 . S
C1430 C1425 1.383 . S
C1430 C1426 1.389 . S
C1430 H1447 0.931 . S
C1431 O1416 1.276 1_565 S
C1431 O1417 1.248 . S
C1432 Tb1368 2.802 . S
C1432 O1412 1.264 . S
C1432 O1415 1.256 . S
C1432 C1425 1.496 . S
C1433 C1400 1.448 . S
C1433 H1410 0.930 . S
C1433 C1434 1.328 . S
C1434 C1405 1.427 . S
C1434 H1411 0.929 . S
C1434 C1433 1.328 . S
C1435 O1419 1.264 . S
C1435 O1420 1.243 . S
C1436 C1439 1.449 . S
C1436 C1440 1.348 1_565 S
C1436 C1443 1.484 1_565 S
C1437 C1438 1.399 1_545 S
C1437 C1440 1.389 . S
C1438 C1437 1.399 1_565 S
C1438 C1441 1.380 . S
C1438 H1448 0.929 . S
C1439 C1436 1.449 . S
C1439 C1441 1.392 . S
C1439 H1449 0.929 . S
C1440 C1436 1.348 1_545 S
C1440 C1437 1.389 . S
C1440 H1450 0.931 . S
C1441 C1438 1.380 . S
C1441 C1439 1.392 . S
C1441 H1451 0.929 . S
C1442 O1422 1.266 . S
C1442 O1423 1.248 . S
C1443 Tb1379 2.802 . S
C1443 O1418 1.264 . S
C1443 O1421 1.256 1_545 S
C1443 C1436 1.484 1_545 S
H1444 C1427 0.929 . S
H1445 C1428 0.929 . S
H1446 C1429 0.929 . S
H1447 C1430 0.931 . S
H1448 C1438 0.929 . S
H1449 C1439 0.929 . S
H1450 C1440 0.931 . S
H1451 C1441 0.929 . S
Tb1452 N1481 2.617 . S
Tb1452 N1487 2.572 . S
Tb1452 O1496 2.465 . S
Tb1452 O1497 2.387 . S
Tb1452 O1499 2.428 . S
Tb1452 O1500 2.308 . S
Tb1452 O1504 2.349 . S
Tb1452 O1507 2.393 . S
Tb1452 C1516 2.802 . S
C1453 N1454 1.379 . S
C1453 C1456 1.416 . S
C1453 C1460 1.424 . S
N1454 C1453 1.379 . S
N1454 C1457 1.334 . S
N1454 Tb1463 2.617 . S
C1455 C1457 1.390 . S
C1455 C1458 1.339 . S
C1455 H1475 0.930 . S
C1456 C1453 1.416 . S
C1456 C1458 1.416 . S
C1456 C1462 1.448 . S
C1457 N1454 1.334 . S
C1457 C1455 1.390 . S
C1457 H1468 0.930 . S
C1458 C1455 1.339 . S
C1458 C1456 1.416 . S
C1458 H1479 0.930 . S
C1459 C1460 1.413 . S
C1459 C1461 1.427 . S
C1459 C1465 1.416 . S
C1460 C1453 1.424 . S
C1460 C1459 1.413 . S
C1460 N1464 1.361 . S
C1461 C1459 1.427 . S
C1461 C1462 1.328 . S
C1461 H1476 0.929 . S
C1462 C1456 1.448 . S
C1462 C1461 1.328 . S
C1462 H1477 0.930 . S
Tb1463 N1454 2.617 . S
Tb1463 N1464 2.572 . S
Tb1463 O1498 2.349 . S
Tb1463 O1501 2.393 . S
Tb1463 O1502 2.465 . S
Tb1463 O1503 2.387 . S
Tb1463 O1505 2.428 . S
Tb1463 O1506 2.308 . S
Tb1463 C1527 2.802 . S
N1464 C1460 1.361 . S
N1464 Tb1463 2.572 . S
N1464 C1466 1.340 . S
C1465 C1459 1.416 . S
C1465 C1467 1.332 . S
C1465 H1473 0.931 . S
C1466 N1464 1.340 . S
C1466 C1467 1.407 . S
C1466 H1472 0.930 . S
C1467 C1465 1.332 . S
C1467 C1466 1.407 . S
C1467 H1469 0.929 . S
H1468 C1457 0.930 . S
H1469 C1467 0.929 . S
H1470 C1485 0.930 . S
H1471 C1492 0.929 . S
H1472 C1466 0.930 . S
H1473 C1465 0.931 . S
H1474 C1488 0.930 . S
H1475 C1455 0.930 . S
H1476 C1461 0.929 . S
H1477 C1462 0.930 . S
H1478 C1483 0.930 . S
H1479 C1458 0.930 . S
H1480 C1491 0.931 . S
N1481 Tb1452 2.617 . S
N1481 C1482 1.379 . S
N1481 C1485 1.334 . S
C1482 N1481 1.379 . S
C1482 C1484 1.416 . S
C1482 C1490 1.424 . S
C1483 H1478 0.930 . S
C1483 C1485 1.390 . S
C1483 C1486 1.339 . S
C1484 C1482 1.416 . S
C1484 C1486 1.416 . S
C1484 C1517 1.448 . S
C1485 H1470 0.930 . S
C1485 N1481 1.334 . S
C1485 C1483 1.390 . S
C1486 C1483 1.339 . S
C1486 C1484 1.416 . S
C1486 H1493 0.930 . S
N1487 Tb1452 2.572 . S
N1487 C1488 1.340 . S
N1487 C1490 1.361 . S
C1488 H1474 0.930 . S
C1488 N1487 1.340 . S
C1488 C1492 1.407 . S
C1489 C1490 1.413 . S
C1489 C1491 1.416 . S
C1489 C1518 1.427 . S
C1490 C1482 1.424 . S
C1490 N1487 1.361 . S
C1490 C1489 1.413 . S
C1491 H1480 0.931 . S
C1491 C1489 1.416 . S
C1491 C1492 1.332 . S
C1492 H1471 0.929 . S
C1492 C1488 1.407 . S
C1492 C1491 1.332 . S
H1493 C1486 0.930 . S
H1494 C1517 0.930 . S
H1495 C1518 0.929 . S
O1496 Tb1452 2.465 . S
O1496 C1516 1.264 . S
O1497 Tb1452 2.387 . S
O1497 C1508 1.264 . S
O1498 Tb1463 2.349 . S
O1498 C1508 1.243 . S
O1499 Tb1452 2.428 . S
O1499 C1516 1.256 . S
O1500 Tb1452 2.308 . S
O1500 C1515 1.266 . S
O1501 Tb1463 2.393 . S
O1501 C1515 1.248 . S
O1502 Tb1463 2.465 . S
O1502 C1527 1.264 . S
O1503 Tb1463 2.387 . S
O1503 C1519 1.264 . S
O1504 Tb1452 2.349 . S
O1504 C1519 1.243 . S
O1505 Tb1463 2.428 . S
O1505 C1527 1.256 . S
O1506 Tb1463 2.308 . S
O1506 C1526 1.266 . S
O1507 Tb1452 2.393 . S
O1507 C1526 1.248 . S
C1508 O1497 1.264 . S
C1508 O1498 1.243 . S
C1509 C1512 1.399 . S
C1509 C1514 1.383 . S
C1509 C1516 1.496 . S
C1510 C1511 1.399 . S
C1510 C1514 1.389 . S
C1511 C1510 1.399 . S
C1511 C1513 1.380 . S
C1511 H1528 0.929 . S
C1512 C1509 1.399 . S
C1512 C1513 1.392 . S
C1512 H1529 0.929 . S
C1513 C1511 1.380 . S
C1513 C1512 1.392 . S
C1513 H1530 0.929 . S
C1514 C1509 1.383 . S
C1514 C1510 1.389 . S
C1514 H1531 0.931 . S
C1515 O1500 1.266 . S
C1515 O1501 1.248 . S
C1516 Tb1452 2.802 . S
C1516 O1496 1.264 . S
C1516 O1499 1.256 . S
C1516 C1509 1.496 . S
C1517 C1484 1.448 . S
C1517 H1494 0.930 . S
C1517 C1518 1.328 . S
C1518 C1489 1.427 . S
C1518 H1495 0.929 . S
C1518 C1517 1.328 . S
C1519 O1503 1.264 . S
C1519 O1504 1.243 . S
C1520 C1523 1.399 . S
C1520 C1524 1.383 . S
C1520 C1527 1.496 . S
C1521 C1522 1.399 . S
C1521 C1524 1.389 . S
C1522 C1521 1.399 . S
C1522 C1525 1.380 . S
C1522 H1532 0.929 . S
C1523 C1520 1.399 . S
C1523 C1525 1.392 . S
C1523 H1533 0.929 . S
C1524 C1520 1.383 . S
C1524 C1521 1.389 . S
C1524 H1534 0.931 . S
C1525 C1522 1.380 . S
C1525 C1523 1.392 . S
C1525 H1535 0.929 . S
C1526 O1506 1.266 . S
C1526 O1507 1.248 . S
C1527 Tb1463 2.802 . S
C1527 O1502 1.264 . S
C1527 O1505 1.256 . S
C1527 C1520 1.496 . S
H1528 C1511 0.929 . S
H1529 C1512 0.929 . S
H1530 C1513 0.929 . S
H1531 C1514 0.931 . S
H1532 C1522 0.929 . S
H1533 C1523 0.929 . S
H1534 C1524 0.931 . S
H1535 C1525 0.929 . S
Tb1536 N1565 2.617 1_554 S
Tb1536 N1571 2.572 1_554 S
Tb1536 O1580 2.465 . S
Tb1536 O1581 2.387 1_554 S
Tb1536 O1583 2.428 . S
Tb1536 O1584 2.308 . S
Tb1536 O1588 2.349 . S
Tb1536 O1591 2.393 . S
Tb1536 C1600 2.802 . S
C1537 N1538 1.379 . S
C1537 C1540 1.416 . S
C1537 C1544 1.424 . S
N1538 C1537 1.379 . S
N1538 C1541 1.334 . S
N1538 Tb1547 2.617 . S
C1539 C1541 1.390 . S
C1539 C1542 1.339 . S
C1539 H1559 0.930 . S
C1540 C1537 1.416 . S
C1540 C1542 1.416 . S
C1540 C1546 1.448 . S
C1541 N1538 1.334 . S
C1541 C1539 1.390 . S
C1541 H1552 0.930 . S
C1542 C1539 1.339 . S
C1542 C1540 1.416 . S
C1542 H1563 0.930 . S
C1543 C1544 1.413 . S
C1543 C1545 1.427 . S
C1543 C1549 1.416 . S
C1544 C1537 1.424 . S
C1544 C1543 1.413 . S
C1544 N1548 1.361 . S
C1545 C1543 1.427 . S
C1545 C1546 1.328 . S
C1545 H1560 0.929 . S
C1546 C1540 1.448 . S
C1546 C1545 1.328 . S
C1546 H1561 0.930 . S
Tb1547 N1538 2.617 . S
Tb1547 N1548 2.572 . S
Tb1547 O1582 2.349 1_554 S
Tb1547 O1585 2.393 . S
Tb1547 O1586 2.465 . S
Tb1547 O1587 2.387 . S
Tb1547 O1589 2.428 . S
Tb1547 O1590 2.308 . S
Tb1547 C1611 2.802 . S
N1548 C1544 1.361 . S
N1548 Tb1547 2.572 . S
N1548 C1550 1.340 . S
C1549 C1543 1.416 . S
C1549 C1551 1.332 . S
C1549 H1557 0.931 . S
C1550 N1548 1.340 . S
C1550 C1551 1.407 . S
C1550 H1556 0.930 . S
C1551 C1549 1.332 . S
C1551 C1550 1.407 . S
C1551 H1553 0.929 . S
H1552 C1541 0.930 . S
H1553 C1551 0.929 . S
H1554 C1569 0.930 1_554 S
H1555 C1576 0.929 . S
H1556 C1550 0.930 . S
H1557 C1549 0.931 . S
H1558 C1572 0.930 1_554 S
H1559 C1539 0.930 . S
H1560 C1545 0.929 . S
H1561 C1546 0.930 . S
H1562 C1567 0.930 . S
H1563 C1542 0.930 . S
H1564 C1575 0.931 . S
N1565 Tb1536 2.617 1_556 S
N1565 C1566 1.379 . S
N1565 C1569 1.334 . S
C1566 N1565 1.379 . S
C1566 C1568 1.416 . S
C1566 C1574 1.424 . S
C1567 H1562 0.930 . S
C1567 C1569 1.390 . S
C1567 C1570 1.339 . S
C1568 C1566 1.416 . S
C1568 C1570 1.416 . S
C1568 C1601 1.448 . S
C1569 H1554 0.930 1_556 S
C1569 N1565 1.334 . S
C1569 C1567 1.390 . S
C1570 C1567 1.339 . S
C1570 C1568 1.416 . S
C1570 H1577 0.930 . S
N1571 Tb1536 2.572 1_556 S
N1571 C1572 1.340 . S
N1571 C1574 1.361 . S
C1572 H1558 0.930 1_556 S
C1572 N1571 1.340 . S
C1572 C1576 1.407 . S
C1573 C1574 1.413 . S
C1573 C1575 1.416 . S
C1573 C1602 1.427 . S
C1574 C1566 1.424 . S
C1574 N1571 1.361 . S
C1574 C1573 1.413 . S
C1575 H1564 0.931 . S
C1575 C1573 1.416 . S
C1575 C1576 1.332 . S
C1576 H1555 0.929 . S
C1576 C1572 1.407 . S
C1576 C1575 1.332 . S
H1577 C1570 0.930 . S
H1578 C1601 0.930 . S
H1579 C1602 0.929 . S
O1580 Tb1536 2.465 . S
O1580 C1600 1.264 . S
O1581 Tb1536 2.387 1_556 S
O1581 C1592 1.264 . S
O1582 Tb1547 2.349 1_556 S
O1582 C1592 1.243 . S
O1583 Tb1536 2.428 . S
O1583 C1600 1.256 . S
O1584 Tb1536 2.308 . S
O1584 C1599 1.266 . S
O1585 Tb1547 2.393 . S
O1585 C1599 1.248 . S
O1586 Tb1547 2.465 . S
O1586 C1611 1.264 . S
O1587 Tb1547 2.387 . S
O1587 C1603 1.264 . S
O1588 Tb1536 2.349 . S
O1588 C1603 1.243 . S
O1589 Tb1547 2.428 . S
O1589 C1611 1.256 . S
O1590 Tb1547 2.308 . S
O1590 C1610 1.266 . S
O1591 Tb1536 2.393 . S
O1591 C1610 1.248 . S
C1592 O1581 1.264 . S
C1592 O1582 1.243 . S
C1593 C1596 1.399 . S
C1593 C1598 1.383 . S
C1593 C1600 1.496 . S
C1594 C1595 1.399 . S
C1594 C1598 1.389 . S
C1595 C1594 1.399 . S
C1595 C1597 1.380 . S
C1595 H1612 0.929 . S
C1596 C1593 1.399 . S
C1596 C1597 1.392 . S
C1596 H1613 0.929 . S
C1597 C1595 1.380 . S
C1597 C1596 1.392 . S
C1597 H1614 0.929 . S
C1598 C1593 1.383 . S
C1598 C1594 1.389 . S
C1598 H1615 0.931 . S
C1599 O1584 1.266 . S
C1599 O1585 1.248 . S
C1600 Tb1536 2.802 . S
C1600 O1580 1.264 . S
C1600 O1583 1.256 . S
C1600 C1593 1.496 . S
C1601 C1568 1.448 . S
C1601 H1578 0.930 . S
C1601 C1602 1.328 . S
C1602 C1573 1.427 . S
C1602 H1579 0.929 . S
C1602 C1601 1.328 . S
C1603 O1587 1.264 . S
C1603 O1588 1.243 . S
C1604 C1607 1.399 . S
C1604 C1608 1.383 . S
C1604 C1611 1.496 1_556 S
C1605 C1606 1.399 . S
C1605 C1608 1.389 . S
C1606 C1605 1.399 . S
C1606 C1609 1.380 . S
C1606 H1616 0.929 . S
C1607 C1604 1.399 . S
C1607 C1609 1.392 . S
C1607 H1617 0.929 . S
C1608 C1604 1.383 . S
C1608 C1605 1.389 . S
C1608 H1618 0.931 . S
C1609 C1606 1.380 . S
C1609 C1607 1.392 . S
C1609 H1619 0.929 . S
C1610 O1590 1.266 . S
C1610 O1591 1.248 . S
C1611 Tb1547 2.802 . S
C1611 O1586 1.264 . S
C1611 O1589 1.256 . S
C1611 C1604 1.496 1_554 S
H1612 C1595 0.929 . S
H1613 C1596 0.929 . S
H1614 C1597 0.929 . S
H1615 C1598 0.931 . S
H1616 C1606 0.929 . S
H1617 C1607 0.929 . S
H1618 C1608 0.931 . S
H1619 C1609 0.929 . S
Tb1620 N1649 2.617 . S
Tb1620 N1655 2.572 . S
Tb1620 O1664 2.465 . S
Tb1620 O1665 2.387 . S
Tb1620 O1667 2.428 . S
Tb1620 O1668 2.308 . S
Tb1620 O1672 2.349 . S
Tb1620 O1675 2.393 . S
Tb1620 C1684 2.802 . S
C1621 N1622 1.379 . S
C1621 C1624 1.416 . S
C1621 C1628 1.424 . S
N1622 C1621 1.379 . S
N1622 C1625 1.334 . S
N1622 Tb1631 2.617 . S
C1623 C1625 1.390 . S
C1623 C1626 1.339 . S
C1623 H1643 0.930 . S
C1624 C1621 1.416 . S
C1624 C1626 1.416 . S
C1624 C1630 1.448 . S
C1625 N1622 1.334 . S
C1625 C1623 1.390 . S
C1625 H1636 0.930 . S
C1626 C1623 1.339 . S
C1626 C1624 1.416 . S
C1626 H1647 0.930 . S
C1627 C1628 1.413 . S
C1627 C1629 1.427 . S
C1627 C1633 1.416 . S
C1628 C1621 1.424 . S
C1628 C1627 1.413 . S
C1628 N1632 1.361 . S
C1629 C1627 1.427 . S
C1629 C1630 1.328 . S
C1629 H1644 0.929 . S
C1630 C1624 1.448 . S
C1630 C1629 1.328 . S
C1630 H1645 0.930 . S
Tb1631 N1622 2.617 . S
Tb1631 N1632 2.572 . S
Tb1631 O1666 2.349 . S
Tb1631 O1669 2.393 . S
Tb1631 O1670 2.465 . S
Tb1631 O1671 2.387 . S
Tb1631 O1673 2.428 . S
Tb1631 O1674 2.308 . S
Tb1631 C1695 2.802 . S
N1632 C1628 1.361 . S
N1632 Tb1631 2.572 . S
N1632 C1634 1.340 . S
C1633 C1627 1.416 . S
C1633 C1635 1.332 . S
C1633 H1641 0.931 . S
C1634 N1632 1.340 . S
C1634 C1635 1.407 . S
C1634 H1640 0.930 . S
C1635 C1633 1.332 . S
C1635 C1634 1.407 . S
C1635 H1637 0.929 . S
H1636 C1625 0.930 . S
H1637 C1635 0.929 . S
H1638 C1653 0.930 . S
H1639 C1660 0.929 . S
H1640 C1634 0.930 . S
H1641 C1633 0.931 . S
H1642 C1656 0.930 . S
H1643 C1623 0.930 . S
H1644 C1629 0.929 . S
H1645 C1630 0.930 . S
H1646 C1651 0.930 . S
H1647 C1626 0.930 . S
H1648 C1659 0.931 . S
N1649 Tb1620 2.617 . S
N1649 C1650 1.379 . S
N1649 C1653 1.334 . S
C1650 N1649 1.379 . S
C1650 C1652 1.416 . S
C1650 C1658 1.424 . S
C1651 H1646 0.930 . S
C1651 C1653 1.390 . S
C1651 C1654 1.339 . S
C1652 C1650 1.416 . S
C1652 C1654 1.416 . S
C1652 C1685 1.448 . S
C1653 H1638 0.930 . S
C1653 N1649 1.334 . S
C1653 C1651 1.390 . S
C1654 C1651 1.339 . S
C1654 C1652 1.416 . S
C1654 H1661 0.930 . S
N1655 Tb1620 2.572 . S
N1655 C1656 1.340 . S
N1655 C1658 1.361 . S
C1656 H1642 0.930 . S
C1656 N1655 1.340 . S
C1656 C1660 1.407 . S
C1657 C1658 1.413 . S
C1657 C1659 1.416 . S
C1657 C1686 1.427 . S
C1658 C1650 1.424 . S
C1658 N1655 1.361 . S
C1658 C1657 1.413 . S
C1659 H1648 0.931 . S
C1659 C1657 1.416 . S
C1659 C1660 1.332 . S
C1660 H1639 0.929 . S
C1660 C1656 1.407 . S
C1660 C1659 1.332 . S
H1661 C1654 0.930 . S
H1662 C1685 0.930 . S
H1663 C1686 0.929 . S
O1664 Tb1620 2.465 . S
O1664 C1684 1.264 . S
O1665 Tb1620 2.387 . S
O1665 C1676 1.264 . S
O1666 Tb1631 2.349 . S
O1666 C1676 1.243 . S
O1667 Tb1620 2.428 . S
O1667 C1684 1.256 . S
O1668 Tb1620 2.308 . S
O1668 C1683 1.266 . S
O1669 Tb1631 2.393 . S
O1669 C1683 1.248 . S
O1670 Tb1631 2.465 . S
O1670 C1695 1.264 . S
O1671 Tb1631 2.387 . S
O1671 C1687 1.264 . S
O1672 Tb1620 2.349 . S
O1672 C1687 1.243 . S
O1673 Tb1631 2.428 . S
O1673 C1695 1.256 . S
O1674 Tb1631 2.308 . S
O1674 C1694 1.266 . S
O1675 Tb1620 2.393 . S
O1675 C1694 1.248 . S
C1676 O1665 1.264 . S
C1676 O1666 1.243 . S
C1677 C1680 1.399 . S
C1677 C1682 1.383 . S
C1677 C1684 1.496 . S
C1678 C1679 1.399 . S
C1678 C1682 1.389 . S
C1679 C1678 1.399 . S
C1679 C1681 1.380 . S
C1679 H1696 0.929 . S
C1680 C1677 1.399 . S
C1680 C1681 1.392 . S
C1680 H1697 0.929 . S
C1681 C1679 1.380 . S
C1681 C1680 1.392 . S
C1681 H1698 0.929 . S
C1682 C1677 1.383 . S
C1682 C1678 1.389 . S
C1682 H1699 0.931 . S
C1683 O1668 1.266 . S
C1683 O1669 1.248 . S
C1684 Tb1620 2.802 . S
C1684 O1664 1.264 . S
C1684 O1667 1.256 . S
C1684 C1677 1.496 . S
C1685 C1652 1.448 . S
C1685 H1662 0.930 . S
C1685 C1686 1.328 . S
C1686 C1657 1.427 . S
C1686 H1663 0.929 . S
C1686 C1685 1.328 . S
C1687 O1671 1.264 . S
C1687 O1672 1.243 . S
C1688 C1691 1.399 . S
C1688 C1692 1.383 . S
C1688 C1695 1.496 . S
C1689 C1690 1.399 . S
C1689 C1692 1.389 . S
C1690 C1689 1.399 . S
C1690 C1693 1.380 . S
C1690 H1700 0.929 . S
C1691 C1688 1.399 . S
C1691 C1693 1.392 . S
C1691 H1701 0.929 . S
C1692 C1688 1.383 . S
C1692 C1689 1.389 . S
C1692 H1702 0.931 . S
C1693 C1690 1.380 . S
C1693 C1691 1.392 . S
C1693 H1703 0.929 . S
C1694 O1674 1.266 . S
C1694 O1675 1.248 . S
C1695 Tb1631 2.802 . S
C1695 O1670 1.264 . S
C1695 O1673 1.256 . S
C1695 C1688 1.496 . S
H1696 C1679 0.929 . S
H1697 C1680 0.929 . S
H1698 C1681 0.929 . S
H1699 C1682 0.931 . S
H1700 C1690 0.929 . S
H1701 C1691 0.929 . S
H1702 C1692 0.931 . S
H1703 C1693 0.929 . S
Tb1704 N1733 2.613 . S
Tb1704 N1739 2.572 1_455 S
Tb1704 O1748 2.465 . S
Tb1704 O1749 2.387 1_455 S
Tb1704 O1751 2.428 . S
Tb1704 O1752 2.308 . S
Tb1704 O1756 2.349 . S
Tb1704 O1759 2.393 . S
Tb1704 C1768 2.802 . S
C1705 N1706 1.379 . S
C1705 C1708 1.416 . S
C1705 C1712 1.424 . S
N1706 C1705 1.379 . S
N1706 C1709 1.334 . S
N1706 Tb1715 2.617 . S
C1707 C1709 1.390 . S
C1707 C1710 1.339 . S
C1707 H1727 0.930 . S
C1708 C1705 1.416 . S
C1708 C1710 1.416 . S
C1708 C1714 1.448 . S
C1709 N1706 1.334 . S
C1709 C1707 1.390 . S
C1709 H1720 0.930 . S
C1710 C1707 1.339 . S
C1710 C1708 1.416 . S
C1710 H1731 0.930 . S
C1711 C1712 1.413 . S
C1711 C1713 1.427 . S
C1711 C1717 1.416 . S
C1712 C1705 1.424 . S
C1712 C1711 1.413 . S
C1712 N1716 1.361 . S
C1713 C1711 1.427 . S
C1713 C1714 1.328 . S
C1713 H1728 0.929 . S
C1714 C1708 1.448 . S
C1714 C1713 1.328 . S
C1714 H1729 0.930 . S
Tb1715 N1706 2.617 . S
Tb1715 N1716 2.572 . S
Tb1715 O1750 2.297 1_455 S
Tb1715 O1753 2.393 . S
Tb1715 O1754 2.465 . S
Tb1715 O1755 2.387 . S
Tb1715 O1757 2.428 . S
Tb1715 O1758 2.308 . S
Tb1715 C1779 2.802 . S
N1716 C1712 1.361 . S
N1716 Tb1715 2.572 . S
N1716 C1718 1.340 . S
C1717 C1711 1.416 . S
C1717 C1719 1.332 . S
C1717 H1725 0.931 . S
C1718 N1716 1.340 . S
C1718 C1719 1.407 . S
C1718 H1724 0.930 . S
C1719 C1717 1.332 . S
C1719 C1718 1.407 . S
C1719 H1721 0.929 . S
H1720 C1709 0.930 . S
H1721 C1719 0.929 . S
H1722 C1737 0.970 . S
H1723 C1744 0.929 . S
H1724 C1718 0.930 . S
H1725 C1717 0.931 . S
H1726 C1740 0.930 1_455 S
H1727 C1707 0.930 . S
H1728 C1713 0.929 . S
H1729 C1714 0.930 . S
H1730 C1735 0.930 . S
H1731 C1710 0.930 . S
H1732 C1743 0.931 . S
N1733 Tb1704 2.613 . S
N1733 C1734 1.383 1_455 S
N1733 C1737 1.348 . S
C1734 N1733 1.383 1_655 S
C1734 C1736 1.416 . S
C1734 C1742 1.424 . S
C1735 H1730 0.930 . S
C1735 C1737 1.342 1_655 S
C1735 C1738 1.339 . S
C1736 C1734 1.416 . S
C1736 C1738 1.416 . S
C1736 C1769 1.448 . S
C1737 H1722 0.970 . S
C1737 N1733 1.348 . S
C1737 C1735 1.342 1_455 S
C1738 C1735 1.339 . S
C1738 C1736 1.416 . S
C1738 H1745 0.930 . S
N1739 Tb1704 2.572 1_655 S
N1739 C1740 1.340 . S
N1739 C1742 1.361 . S
C1740 H1726 0.930 1_655 S
C1740 N1739 1.340 . S
C1740 C1744 1.407 . S
C1741 C1742 1.413 . S
C1741 C1743 1.416 . S
C1741 C1770 1.427 . S
C1742 C1734 1.424 . S
C1742 N1739 1.361 . S
C1742 C1741 1.413 . S
C1743 H1732 0.931 . S
C1743 C1741 1.416 . S
C1743 C1744 1.332 . S
C1744 H1723 0.929 . S
C1744 C1740 1.407 . S
C1744 C1743 1.332 . S
H1745 C1738 0.930 . S
H1746 C1769 0.930 . S
H1747 C1770 0.929 . S
O1748 Tb1704 2.465 . S
O1748 C1768 1.264 . S
O1749 Tb1704 2.387 1_655 S
O1749 C1760 1.264 . S
O1750 Tb1715 2.297 1_655 S
O1750 C1760 1.276 . S
O1751 Tb1704 2.428 . S
O1751 C1768 1.256 . S
O1752 Tb1704 2.308 . S
O1752 C1767 1.266 . S
O1753 Tb1715 2.393 . S
O1753 C1767 1.248 . S
O1754 Tb1715 2.465 . S
O1754 C1779 1.264 . S
O1755 Tb1715 2.387 . S
O1755 C1771 1.264 . S
O1756 Tb1704 2.349 . S
O1756 C1771 1.243 . S
O1757 Tb1715 2.428 . S
O1757 C1779 1.256 . S
O1758 Tb1715 2.308 . S
O1758 C1778 1.266 . S
O1759 Tb1704 2.393 . S
O1759 C1778 1.248 . S
C1760 O1749 1.264 . S
C1760 O1750 1.276 . S
C1761 C1764 1.399 . S
C1761 C1766 1.383 . S
C1761 C1768 1.496 . S
C1762 C1763 1.399 . S
C1762 C1766 1.389 . S
C1763 C1762 1.399 . S
C1763 C1765 1.380 . S
C1763 H1780 0.929 . S
C1764 C1761 1.399 . S
C1764 C1765 1.392 . S
C1764 H1781 0.929 . S
C1765 C1763 1.380 . S
C1765 C1764 1.392 . S
C1765 H1782 0.929 . S
C1766 C1761 1.383 . S
C1766 C1762 1.389 . S
C1766 H1783 0.931 . S
C1767 O1752 1.266 . S
C1767 O1753 1.248 . S
C1768 Tb1704 2.802 . S
C1768 O1748 1.264 . S
C1768 O1751 1.256 . S
C1768 C1761 1.496 . S
C1769 C1736 1.448 . S
C1769 H1746 0.930 . S
C1769 C1770 1.328 . S
C1770 C1741 1.427 . S
C1770 H1747 0.929 . S
C1770 C1769 1.328 . S
C1771 O1755 1.264 . S
C1771 O1756 1.243 . S
C1772 C1775 1.399 . S
C1772 C1776 1.383 . S
C1772 C1779 1.496 1_655 S
C1773 C1774 1.399 . S
C1773 C1776 1.389 . S
C1774 C1773 1.399 . S
C1774 C1777 1.380 . S
C1774 H1784 0.929 . S
C1775 C1772 1.399 . S
C1775 C1777 1.392 . S
C1775 H1785 0.937 . S
C1776 C1772 1.383 . S
C1776 C1773 1.389 . S
C1776 H1786 0.931 . S
C1777 C1774 1.380 . S
C1777 C1775 1.392 . S
C1777 H1787 0.929 . S
C1778 O1758 1.266 . S
C1778 O1759 1.248 . S
C1779 Tb1715 2.802 . S
C1779 O1754 1.264 . S
C1779 O1757 1.256 . S
C1779 C1772 1.496 1_455 S
H1780 C1763 0.929 . S
H1781 C1764 0.929 . S
H1782 C1765 0.929 . S
H1783 C1766 0.931 . S
H1784 C1774 0.929 . S
H1785 C1775 0.937 . S
H1786 C1776 0.931 . S
H1787 C1777 0.929 . S
Tb1788 N1817 2.617 . S
Tb1788 N1823 2.572 . S
Tb1788 O1832 2.465 . S
Tb1788 O1833 2.387 . S
Tb1788 O1835 2.428 . S
Tb1788 O1836 2.308 . S
Tb1788 O1840 2.349 . S
Tb1788 O1843 2.393 . S
Tb1788 C1852 2.802 . S
C1789 N1790 1.379 . S
C1789 C1792 1.416 . S
C1789 C1796 1.424 . S
N1790 C1789 1.379 . S
N1790 C1793 1.334 . S
N1790 Tb1799 2.617 . S
C1791 C1793 1.390 . S
C1791 C1794 1.339 . S
C1791 H1811 0.930 . S
C1792 C1789 1.416 . S
C1792 C1794 1.416 . S
C1792 C1798 1.448 . S
C1793 N1790 1.334 . S
C1793 C1791 1.390 . S
C1793 H1804 0.930 . S
C1794 C1791 1.339 . S
C1794 C1792 1.416 . S
C1794 H1815 0.930 . S
C1795 C1796 1.413 . S
C1795 C1797 1.427 . S
C1795 C1801 1.416 . S
C1796 C1789 1.424 . S
C1796 C1795 1.413 . S
C1796 N1800 1.361 . S
C1797 C1795 1.427 . S
C1797 C1798 1.328 . S
C1797 H1812 0.929 . S
C1798 C1792 1.448 . S
C1798 C1797 1.328 . S
C1798 H1813 0.930 . S
Tb1799 N1790 2.617 . S
Tb1799 N1800 2.572 . S
Tb1799 O1834 2.349 . S
Tb1799 O1837 2.393 . S
Tb1799 O1838 2.465 . S
Tb1799 O1839 2.387 . S
Tb1799 O1841 2.428 . S
Tb1799 O1842 2.308 . S
Tb1799 C1863 2.802 . S
N1800 C1796 1.361 . S
N1800 Tb1799 2.572 . S
N1800 C1802 1.340 . S
C1801 C1795 1.416 . S
C1801 C1803 1.332 . S
C1801 H1809 0.931 . S
C1802 N1800 1.340 . S
C1802 C1803 1.407 . S
C1802 H1808 0.930 . S
C1803 C1801 1.332 . S
C1803 C1802 1.407 . S
C1803 H1805 0.929 . S
H1804 C1793 0.930 . S
H1805 C1803 0.929 . S
H1806 C1821 0.930 . S
H1807 C1828 0.929 . S
H1808 C1802 0.930 . S
H1809 C1801 0.931 . S
H1810 C1824 0.930 . S
H1811 C1791 0.930 . S
H1812 C1797 0.929 . S
H1813 C1798 0.930 . S
H1814 C1819 0.930 . S
H1815 C1794 0.930 . S
H1816 C1827 0.931 . S
N1817 Tb1788 2.617 . S
N1817 C1818 1.379 . S
N1817 C1821 1.334 . S
C1818 N1817 1.379 . S
C1818 C1820 1.416 . S
C1818 C1826 1.424 . S
C1819 H1814 0.930 . S
C1819 C1821 1.390 . S
C1819 C1822 1.339 . S
C1820 C1818 1.416 . S
C1820 C1822 1.416 . S
C1820 C1853 1.448 . S
C1821 H1806 0.930 . S
C1821 N1817 1.334 . S
C1821 C1819 1.390 . S
C1822 C1819 1.339 . S
C1822 C1820 1.416 . S
C1822 H1829 0.930 . S
N1823 Tb1788 2.572 . S
N1823 C1824 1.340 . S
N1823 C1826 1.361 . S
C1824 H1810 0.930 . S
C1824 N1823 1.340 . S
C1824 C1828 1.407 . S
C1825 C1826 1.413 . S
C1825 C1827 1.416 . S
C1825 C1854 1.427 . S
C1826 C1818 1.424 . S
C1826 N1823 1.361 . S
C1826 C1825 1.413 . S
C1827 H1816 0.931 . S
C1827 C1825 1.416 . S
C1827 C1828 1.332 . S
C1828 H1807 0.929 . S
C1828 C1824 1.407 . S
C1828 C1827 1.332 . S
H1829 C1822 0.930 . S
H1830 C1853 0.930 . S
H1831 C1854 0.929 . S
O1832 Tb1788 2.465 . S
O1832 C1852 1.264 . S
O1833 Tb1788 2.387 . S
O1833 C1844 1.264 . S
O1834 Tb1799 2.349 . S
O1834 C1844 1.243 . S
O1835 Tb1788 2.428 . S
O1835 C1852 1.256 . S
O1836 Tb1788 2.308 . S
O1836 C1851 1.266 . S
O1837 Tb1799 2.393 . S
O1837 C1851 1.248 . S
O1838 Tb1799 2.465 . S
O1838 C1863 1.264 . S
O1839 Tb1799 2.387 . S
O1839 C1855 1.264 . S
O1840 Tb1788 2.349 . S
O1840 C1855 1.243 . S
O1841 Tb1799 2.428 . S
O1841 C1863 1.256 . S
O1842 Tb1799 2.308 . S
O1842 C1862 1.266 . S
O1843 Tb1788 2.393 . S
O1843 C1862 1.248 . S
C1844 O1833 1.264 . S
C1844 O1834 1.243 . S
C1845 C1848 1.399 . S
C1845 C1850 1.383 . S
C1845 C1852 1.496 . S
C1846 C1847 1.399 . S
C1846 C1850 1.389 . S
C1847 C1846 1.399 . S
C1847 C1849 1.380 . S
C1847 H1864 0.929 . S
C1848 C1845 1.399 . S
C1848 C1849 1.392 . S
C1848 H1865 0.929 . S
C1849 C1847 1.380 . S
C1849 C1848 1.392 . S
C1849 H1866 0.929 . S
C1850 C1845 1.383 . S
C1850 C1846 1.389 . S
C1850 H1867 0.931 . S
C1851 O1836 1.266 . S
C1851 O1837 1.248 . S
C1852 Tb1788 2.802 . S
C1852 O1832 1.264 . S
C1852 O1835 1.256 . S
C1852 C1845 1.496 . S
C1853 C1820 1.448 . S
C1853 H1830 0.930 . S
C1853 C1854 1.328 . S
C1854 C1825 1.427 . S
C1854 H1831 0.929 . S
C1854 C1853 1.328 . S
C1855 O1839 1.264 . S
C1855 O1840 1.243 . S
C1856 C1859 1.399 . S
C1856 C1860 1.383 . S
C1856 C1863 1.496 . S
C1857 C1858 1.399 . S
C1857 C1860 1.389 . S
C1858 C1857 1.399 . S
C1858 C1861 1.380 . S
C1858 H1868 0.929 . S
C1859 C1856 1.399 . S
C1859 C1861 1.392 . S
C1859 H1869 0.929 . S
C1860 C1856 1.383 . S
C1860 C1857 1.389 . S
C1860 H1870 0.931 . S
C1861 C1858 1.380 . S
C1861 C1859 1.392 . S
C1861 H1871 0.929 . S
C1862 O1842 1.266 . S
C1862 O1843 1.248 . S
C1863 Tb1799 2.802 . S
C1863 O1838 1.264 . S
C1863 O1841 1.256 . S
C1863 C1856 1.496 . S
H1864 C1847 0.929 . S
H1865 C1848 0.929 . S
H1866 C1849 0.929 . S
H1867 C1850 0.931 . S
H1868 C1858 0.929 . S
H1869 C1859 0.929 . S
H1870 C1860 0.931 . S
H1871 C1861 0.929 . S
Tb1872 N1901 2.617 . S
Tb1872 N1907 2.572 . S
Tb1872 O1916 2.465 . S
Tb1872 O1917 2.387 . S
Tb1872 O1919 2.428 . S
Tb1872 O1920 2.308 . S
Tb1872 O1924 2.349 . S
Tb1872 O1927 2.393 . S
Tb1872 C1936 2.802 . S
C1873 N1874 1.379 . S
C1873 C1876 1.416 . S
C1873 C1880 1.424 . S
N1874 C1873 1.379 . S
N1874 C1877 1.334 . S
N1874 Tb1883 2.617 . S
C1875 C1877 1.390 . S
C1875 C1878 1.339 . S
C1875 H1895 0.930 . S
C1876 C1873 1.416 . S
C1876 C1878 1.416 . S
C1876 C1882 1.448 . S
C1877 N1874 1.334 . S
C1877 C1875 1.390 . S
C1877 H1888 0.930 . S
C1878 C1875 1.339 . S
C1878 C1876 1.416 . S
C1878 H1899 0.930 . S
C1879 C1880 1.413 . S
C1879 C1881 1.427 . S
C1879 C1885 1.416 . S
C1880 C1873 1.424 . S
C1880 C1879 1.413 . S
C1880 N1884 1.361 . S
C1881 C1879 1.427 . S
C1881 C1882 1.328 . S
C1881 H1896 0.929 . S
C1882 C1876 1.448 . S
C1882 C1881 1.328 . S
C1882 H1897 0.930 . S
Tb1883 N1874 2.617 . S
Tb1883 N1884 2.572 . S
Tb1883 O1918 2.349 . S
Tb1883 O1921 2.393 . S
Tb1883 O1922 2.465 . S
Tb1883 O1923 2.387 . S
Tb1883 O1925 2.428 . S
Tb1883 O1926 2.308 . S
Tb1883 C1947 2.802 . S
N1884 C1880 1.361 . S
N1884 Tb1883 2.572 . S
N1884 C1886 1.340 . S
C1885 C1879 1.416 . S
C1885 C1887 1.332 . S
C1885 H1893 0.931 . S
C1886 N1884 1.340 . S
C1886 C1887 1.407 . S
C1886 H1892 0.930 . S
C1887 C1885 1.332 . S
C1887 C1886 1.407 . S
C1887 H1889 0.929 . S
H1888 C1877 0.930 . S
H1889 C1887 0.929 . S
H1890 C1905 0.930 . S
H1891 C1912 0.929 . S
H1892 C1886 0.930 . S
H1893 C1885 0.931 . S
H1894 C1908 0.930 . S
H1895 C1875 0.930 . S
H1896 C1881 0.929 . S
H1897 C1882 0.930 . S
H1898 C1903 0.930 . S
H1899 C1878 0.930 . S
H1900 C1911 0.931 . S
N1901 Tb1872 2.617 . S
N1901 C1902 1.379 . S
N1901 C1905 1.334 . S
C1902 N1901 1.379 . S
C1902 C1904 1.416 . S
C1902 C1910 1.424 . S
C1903 H1898 0.930 . S
C1903 C1905 1.390 . S
C1903 C1906 1.339 . S
C1904 C1902 1.416 . S
C1904 C1906 1.416 . S
C1904 C1937 1.448 . S
C1905 H1890 0.930 . S
C1905 N1901 1.334 . S
C1905 C1903 1.390 . S
C1906 C1903 1.339 . S
C1906 C1904 1.416 . S
C1906 H1913 0.930 . S
N1907 Tb1872 2.572 . S
N1907 C1908 1.340 . S
N1907 C1910 1.361 . S
C1908 H1894 0.930 . S
C1908 N1907 1.340 . S
C1908 C1912 1.407 . S
C1909 C1910 1.413 . S
C1909 C1911 1.416 . S
C1909 C1938 1.427 . S
C1910 C1902 1.424 . S
C1910 N1907 1.361 . S
C1910 C1909 1.413 . S
C1911 H1900 0.931 . S
C1911 C1909 1.416 . S
C1911 C1912 1.332 . S
C1912 H1891 0.929 . S
C1912 C1908 1.407 . S
C1912 C1911 1.332 . S
H1913 C1906 0.930 . S
H1914 C1937 0.930 . S
H1915 C1938 0.929 . S
O1916 Tb1872 2.465 . S
O1916 C1936 1.264 . S
O1917 Tb1872 2.387 . S
O1917 C1928 1.264 . S
O1918 Tb1883 2.349 . S
O1918 C1928 1.243 . S
O1919 Tb1872 2.428 . S
O1919 C1936 1.256 . S
O1920 Tb1872 2.308 . S
O1920 C1935 1.266 . S
O1921 Tb1883 2.393 . S
O1921 C1935 1.248 . S
O1922 Tb1883 2.465 . S
O1922 C1947 1.264 . S
O1923 Tb1883 2.387 . S
O1923 C1939 1.264 . S
O1924 Tb1872 2.349 . S
O1924 C1939 1.243 . S
O1925 Tb1883 2.428 . S
O1925 C1947 1.256 . S
O1926 Tb1883 2.308 . S
O1926 C1946 1.266 . S
O1927 Tb1872 2.393 . S
O1927 C1946 1.248 . S
C1928 O1917 1.264 . S
C1928 O1918 1.243 . S
C1929 C1932 1.399 . S
C1929 C1934 1.383 . S
C1929 C1936 1.496 . S
C1930 C1931 1.399 . S
C1930 C1934 1.389 . S
C1931 C1930 1.399 . S
C1931 C1933 1.380 . S
C1931 H1948 0.929 . S
C1932 C1929 1.399 . S
C1932 C1933 1.392 . S
C1932 H1949 0.929 . S
C1933 C1931 1.380 . S
C1933 C1932 1.392 . S
C1933 H1950 0.929 . S
C1934 C1929 1.383 . S
C1934 C1930 1.389 . S
C1934 H1951 0.931 . S
C1935 O1920 1.266 . S
C1935 O1921 1.248 . S
C1936 Tb1872 2.802 . S
C1936 O1916 1.264 . S
C1936 O1919 1.256 . S
C1936 C1929 1.496 . S
C1937 C1904 1.448 . S
C1937 H1914 0.930 . S
C1937 C1938 1.328 . S
C1938 C1909 1.427 . S
C1938 H1915 0.929 . S
C1938 C1937 1.328 . S
C1939 O1923 1.264 . S
C1939 O1924 1.243 . S
C1940 C1943 1.399 . S
C1940 C1944 1.383 . S
C1940 C1947 1.496 . S
C1941 C1942 1.399 . S
C1941 C1944 1.389 . S
C1942 C1941 1.399 . S
C1942 C1945 1.380 . S
C1942 H1952 0.929 . S
C1943 C1940 1.399 . S
C1943 C1945 1.392 . S
C1943 H1953 0.929 . S
C1944 C1940 1.383 . S
C1944 C1941 1.389 . S
C1944 H1954 0.931 . S
C1945 C1942 1.380 . S
C1945 C1943 1.392 . S
C1945 H1955 0.929 . S
C1946 O1926 1.266 . S
C1946 O1927 1.248 . S
C1947 Tb1883 2.802 . S
C1947 O1922 1.264 . S
C1947 O1925 1.256 . S
C1947 C1940 1.496 . S
H1948 C1931 0.929 . S
H1949 C1932 0.929 . S
H1950 C1933 0.929 . S
H1951 C1934 0.931 . S
H1952 C1942 0.929 . S
H1953 C1943 0.929 . S
H1954 C1944 0.931 . S
H1955 C1945 0.929 . S
Tb1956 N1985 2.617 . S
Tb1956 N1991 2.572 . S
Tb1956 O2000 2.465 . S
Tb1956 O2001 2.387 . S
Tb1956 O2003 2.428 . S
Tb1956 O2004 2.308 . S
Tb1956 O2008 2.349 . S
Tb1956 O2011 2.393 . S
Tb1956 C2020 2.802 . S
C1957 N1958 1.379 . S
C1957 C1960 1.416 . S
C1957 C1964 1.424 . S
N1958 C1957 1.379 . S
N1958 C1961 1.334 . S
N1958 Tb1967 2.617 . S
C1959 C1961 1.390 . S
C1959 C1962 1.339 . S
C1959 H1979 0.930 . S
C1960 C1957 1.416 . S
C1960 C1962 1.416 . S
C1960 C1966 1.448 . S
C1961 N1958 1.334 . S
C1961 C1959 1.390 . S
C1961 H1972 0.930 . S
C1962 C1959 1.339 . S
C1962 C1960 1.416 . S
C1962 H1983 0.930 . S
C1963 C1964 1.413 . S
C1963 C1965 1.427 . S
C1963 C1969 1.416 . S
C1964 C1957 1.424 . S
C1964 C1963 1.413 . S
C1964 N1968 1.361 . S
C1965 C1963 1.427 . S
C1965 C1966 1.328 . S
C1965 H1980 0.929 . S
C1966 C1960 1.448 . S
C1966 C1965 1.328 . S
C1966 H1981 0.930 . S
Tb1967 N1958 2.617 . S
Tb1967 N1968 2.572 . S
Tb1967 O2002 2.349 . S
Tb1967 O2005 2.393 . S
Tb1967 O2006 2.465 . S
Tb1967 O2007 2.387 . S
Tb1967 O2009 2.428 . S
Tb1967 O2010 2.308 . S
Tb1967 C2031 2.802 . S
N1968 C1964 1.361 . S
N1968 Tb1967 2.572 . S
N1968 C1970 1.340 . S
C1969 C1963 1.416 . S
C1969 C1971 1.332 . S
C1969 H1977 0.931 . S
C1970 N1968 1.340 . S
C1970 C1971 1.407 . S
C1970 H1976 0.930 . S
C1971 C1969 1.332 . S
C1971 C1970 1.407 . S
C1971 H1973 0.929 . S
H1972 C1961 0.930 . S
H1973 C1971 0.929 . S
H1974 C1989 0.930 . S
H1975 C1996 0.929 . S
H1976 C1970 0.930 . S
H1977 C1969 0.931 . S
H1978 C1992 0.930 . S
H1979 C1959 0.930 . S
H1980 C1965 0.929 . S
H1981 C1966 0.930 . S
H1982 C1987 0.930 . S
H1983 C1962 0.930 . S
H1984 C1995 0.931 . S
N1985 Tb1956 2.617 . S
N1985 C1986 1.379 . S
N1985 C1989 1.334 . S
C1986 N1985 1.379 . S
C1986 C1988 1.416 . S
C1986 C1994 1.424 . S
C1987 H1982 0.930 . S
C1987 C1989 1.390 . S
C1987 C1990 1.339 . S
C1988 C1986 1.416 . S
C1988 C1990 1.416 . S
C1988 C2021 1.448 . S
C1989 H1974 0.930 . S
C1989 N1985 1.334 . S
C1989 C1987 1.390 . S
C1990 C1987 1.339 . S
C1990 C1988 1.416 . S
C1990 H1997 0.930 . S
N1991 Tb1956 2.572 . S
N1991 C1992 1.340 . S
N1991 C1994 1.361 . S
C1992 H1978 0.930 . S
C1992 N1991 1.340 . S
C1992 C1996 1.407 . S
C1993 C1994 1.413 . S
C1993 C1995 1.416 . S
C1993 C2022 1.427 . S
C1994 C1986 1.424 . S
C1994 N1991 1.361 . S
C1994 C1993 1.413 . S
C1995 H1984 0.931 . S
C1995 C1993 1.416 . S
C1995 C1996 1.332 . S
C1996 H1975 0.929 . S
C1996 C1992 1.407 . S
C1996 C1995 1.332 . S
H1997 C1990 0.930 . S
H1998 C2021 0.930 . S
H1999 C2022 0.929 . S
O2000 Tb1956 2.465 . S
O2000 C2020 1.264 . S
O2001 Tb1956 2.387 . S
O2001 C2012 1.264 . S
O2002 Tb1967 2.349 . S
O2002 C2012 1.243 . S
O2003 Tb1956 2.428 . S
O2003 C2020 1.256 . S
O2004 Tb1956 2.308 . S
O2004 C2019 1.266 . S
O2005 Tb1967 2.393 . S
O2005 C2019 1.248 . S
O2006 Tb1967 2.465 . S
O2006 C2031 1.264 . S
O2007 Tb1967 2.387 . S
O2007 C2023 1.264 . S
O2008 Tb1956 2.349 . S
O2008 C2023 1.243 . S
O2009 Tb1967 2.428 . S
O2009 C2031 1.256 . S
O2010 Tb1967 2.308 . S
O2010 C2030 1.266 . S
O2011 Tb1956 2.393 . S
O2011 C2030 1.248 . S
C2012 O2001 1.264 . S
C2012 O2002 1.243 . S
C2013 C2016 1.399 . S
C2013 C2018 1.383 . S
C2013 C2020 1.496 . S
C2014 C2015 1.399 . S
C2014 C2018 1.389 . S
C2015 C2014 1.399 . S
C2015 C2017 1.380 . S
C2015 H2032 0.929 . S
C2016 C2013 1.399 . S
C2016 C2017 1.392 . S
C2016 H2033 0.929 . S
C2017 C2015 1.380 . S
C2017 C2016 1.392 . S
C2017 H2034 0.929 . S
C2018 C2013 1.383 . S
C2018 C2014 1.389 . S
C2018 H2035 0.931 . S
C2019 O2004 1.266 . S
C2019 O2005 1.248 . S
C2020 Tb1956 2.802 . S
C2020 O2000 1.264 . S
C2020 O2003 1.256 . S
C2020 C2013 1.496 . S
C2021 C1988 1.448 . S
C2021 H1998 0.930 . S
C2021 C2022 1.328 . S
C2022 C1993 1.427 . S
C2022 H1999 0.929 . S
C2022 C2021 1.328 . S
C2023 O2007 1.264 . S
C2023 O2008 1.243 . S
C2024 C2027 1.399 . S
C2024 C2028 1.383 . S
C2024 C2031 1.496 . S
C2025 C2026 1.399 . S
C2025 C2028 1.389 . S
C2026 C2025 1.399 . S
C2026 C2029 1.380 . S
C2026 H2036 0.929 . S
C2027 C2024 1.399 . S
C2027 C2029 1.392 . S
C2027 H2037 0.929 . S
C2028 C2024 1.383 . S
C2028 C2025 1.389 . S
C2028 H2038 0.931 . S
C2029 C2026 1.380 . S
C2029 C2027 1.392 . S
C2029 H2039 0.929 . S
C2030 O2010 1.266 . S
C2030 O2011 1.248 . S
C2031 Tb1967 2.802 . S
C2031 O2006 1.264 . S
C2031 O2009 1.256 . S
C2031 C2024 1.496 . S
H2032 C2015 0.929 . S
H2033 C2016 0.929 . S
H2034 C2017 0.929 . S
H2035 C2018 0.931 . S
H2036 C2026 0.929 . S
H2037 C2027 0.929 . S
H2038 C2028 0.931 . S
H2039 C2029 0.929 . S
Tb2040 N2069 2.617 . S
Tb2040 N2075 2.572 . S
Tb2040 O2084 2.465 . S
Tb2040 O2085 2.387 . S
Tb2040 O2087 2.428 . S
Tb2040 O2088 2.308 . S
Tb2040 O2092 2.349 . S
Tb2040 O2095 2.393 . S
Tb2040 C2104 2.802 . S
C2041 N2042 1.379 . S
C2041 C2044 1.416 . S
C2041 C2048 1.424 . S
N2042 C2041 1.379 . S
N2042 C2045 1.334 . S
N2042 Tb2051 2.617 . S
C2043 C2045 1.390 . S
C2043 C2046 1.339 . S
C2043 H2063 0.930 . S
C2044 C2041 1.416 . S
C2044 C2046 1.416 . S
C2044 C2050 1.448 . S
C2045 N2042 1.334 . S
C2045 C2043 1.390 . S
C2045 H2056 0.930 . S
C2046 C2043 1.339 . S
C2046 C2044 1.416 . S
C2046 H2067 0.930 . S
C2047 C2048 1.413 . S
C2047 C2049 1.427 . S
C2047 C2053 1.416 . S
C2048 C2041 1.424 . S
C2048 C2047 1.413 . S
C2048 N2052 1.361 . S
C2049 C2047 1.427 . S
C2049 C2050 1.328 . S
C2049 H2064 0.929 . S
C2050 C2044 1.448 . S
C2050 C2049 1.328 . S
C2050 H2065 0.930 . S
Tb2051 N2042 2.617 . S
Tb2051 N2052 2.572 . S
Tb2051 O2086 2.349 . S
Tb2051 O2089 2.393 . S
Tb2051 O2090 2.465 . S
Tb2051 O2091 2.387 . S
Tb2051 O2093 2.428 . S
Tb2051 O2094 2.308 . S
Tb2051 C2115 2.802 . S
N2052 C2048 1.361 . S
N2052 Tb2051 2.572 . S
N2052 C2054 1.340 . S
C2053 C2047 1.416 . S
C2053 C2055 1.332 . S
C2053 H2061 0.931 . S
C2054 N2052 1.340 . S
C2054 C2055 1.407 . S
C2054 H2060 0.930 . S
C2055 C2053 1.332 . S
C2055 C2054 1.407 . S
C2055 H2057 0.929 . S
H2056 C2045 0.930 . S
H2057 C2055 0.929 . S
H2058 C2073 0.930 . S
H2059 C2080 0.929 . S
H2060 C2054 0.930 . S
H2061 C2053 0.931 . S
H2062 C2076 0.930 . S
H2063 C2043 0.930 . S
H2064 C2049 0.929 . S
H2065 C2050 0.930 . S
H2066 C2071 0.930 . S
H2067 C2046 0.930 . S
H2068 C2079 0.931 . S
N2069 Tb2040 2.617 . S
N2069 C2070 1.379 . S
N2069 C2073 1.334 . S
C2070 N2069 1.379 . S
C2070 C2072 1.416 . S
C2070 C2078 1.424 . S
C2071 H2066 0.930 . S
C2071 C2073 1.390 . S
C2071 C2074 1.339 . S
C2072 C2070 1.416 . S
C2072 C2074 1.416 . S
C2072 C2105 1.448 . S
C2073 H2058 0.930 . S
C2073 N2069 1.334 . S
C2073 C2071 1.390 . S
C2074 C2071 1.339 . S
C2074 C2072 1.416 . S
C2074 H2081 0.930 . S
N2075 Tb2040 2.572 . S
N2075 C2076 1.340 . S
N2075 C2078 1.361 . S
C2076 H2062 0.930 . S
C2076 N2075 1.340 . S
C2076 C2080 1.407 . S
C2077 C2078 1.413 . S
C2077 C2079 1.416 . S
C2077 C2106 1.427 . S
C2078 C2070 1.424 . S
C2078 N2075 1.361 . S
C2078 C2077 1.413 . S
C2079 H2068 0.931 . S
C2079 C2077 1.416 . S
C2079 C2080 1.332 . S
C2080 H2059 0.929 . S
C2080 C2076 1.407 . S
C2080 C2079 1.332 . S
H2081 C2074 0.930 . S
H2082 C2105 0.930 . S
H2083 C2106 0.929 . S
O2084 Tb2040 2.465 . S
O2084 C2104 1.264 . S
O2085 Tb2040 2.387 . S
O2085 C2096 1.264 . S
O2086 Tb2051 2.349 . S
O2086 C2096 1.243 . S
O2087 Tb2040 2.428 . S
O2087 C2104 1.256 . S
O2088 Tb2040 2.308 . S
O2088 C2103 1.266 . S
O2089 Tb2051 2.393 . S
O2089 C2103 1.248 . S
O2090 Tb2051 2.465 . S
O2090 C2115 1.264 . S
O2091 Tb2051 2.387 . S
O2091 C2107 1.264 . S
O2092 Tb2040 2.349 . S
O2092 C2107 1.243 . S
O2093 Tb2051 2.428 . S
O2093 C2115 1.256 . S
O2094 Tb2051 2.308 . S
O2094 C2114 1.266 . S
O2095 Tb2040 2.393 . S
O2095 C2114 1.248 . S
C2096 O2085 1.264 . S
C2096 O2086 1.243 . S
C2097 C2100 1.399 . S
C2097 C2102 1.383 . S
C2097 C2104 1.496 . S
C2098 C2099 1.399 . S
C2098 C2102 1.389 . S
C2099 C2098 1.399 . S
C2099 C2101 1.380 . S
C2099 H2116 0.929 . S
C2100 C2097 1.399 . S
C2100 C2101 1.392 . S
C2100 H2117 0.929 . S
C2101 C2099 1.380 . S
C2101 C2100 1.392 . S
C2101 H2118 0.929 . S
C2102 C2097 1.383 . S
C2102 C2098 1.389 . S
C2102 H2119 0.931 . S
C2103 O2088 1.266 . S
C2103 O2089 1.248 . S
C2104 Tb2040 2.802 . S
C2104 O2084 1.264 . S
C2104 O2087 1.256 . S
C2104 C2097 1.496 . S
C2105 C2072 1.448 . S
C2105 H2082 0.930 . S
C2105 C2106 1.328 . S
C2106 C2077 1.427 . S
C2106 H2083 0.929 . S
C2106 C2105 1.328 . S
C2107 O2091 1.264 . S
C2107 O2092 1.243 . S
C2108 C2111 1.399 . S
C2108 C2112 1.383 . S
C2108 C2115 1.496 . S
C2109 C2110 1.399 . S
C2109 C2112 1.389 . S
C2110 C2109 1.399 . S
C2110 C2113 1.380 . S
C2110 H2120 0.929 . S
C2111 C2108 1.399 . S
C2111 C2113 1.392 . S
C2111 H2121 0.929 . S
C2112 C2108 1.383 . S
C2112 C2109 1.389 . S
C2112 H2122 0.931 . S
C2113 C2110 1.380 . S
C2113 C2111 1.392 . S
C2113 H2123 0.929 . S
C2114 O2094 1.266 . S
C2114 O2095 1.248 . S
C2115 Tb2051 2.802 . S
C2115 O2090 1.264 . S
C2115 O2093 1.256 . S
C2115 C2108 1.496 . S
H2116 C2099 0.929 . S
H2117 C2100 0.929 . S
H2118 C2101 0.929 . S
H2119 C2102 0.931 . S
H2120 C2110 0.929 . S
H2121 C2111 0.929 . S
H2122 C2112 0.931 . S
H2123 C2113 0.929 . S
Tb2124 N2153 2.605 1_455 S
Tb2124 N2159 2.544 1_455 S
Tb2124 O2168 2.427 1_455 S
Tb2124 O2169 2.411 . S
Tb2124 O2171 2.396 1_455 S
Tb2124 O2172 2.318 . S
Tb2124 O2176 2.363 . S
Tb2124 O2179 2.423 . S
Tb2124 C2188 2.763 1_455 S
C2125 N2126 1.379 . S
C2125 C2128 1.416 . S
C2125 C2132 1.424 1_556 S
N2126 C2125 1.379 . S
N2126 C2129 1.334 . S
N2126 Tb2135 2.617 1_556 S
C2127 C2129 1.390 . S
C2127 C2130 1.339 . S
C2127 H2147 0.930 . S
C2128 C2125 1.416 . S
C2128 C2130 1.416 . S
C2128 C2134 1.448 . S
C2129 N2126 1.334 . S
C2129 C2127 1.390 . S
C2129 H2140 0.930 . S
C2130 C2127 1.339 . S
C2130 C2128 1.416 . S
C2130 H2151 0.930 . S
C2131 C2132 1.413 . S
C2131 C2133 1.427 . S
C2131 C2137 1.416 . S
C2132 C2125 1.424 1_554 S
C2132 C2131 1.413 . S
C2132 N2136 1.361 . S
C2133 C2131 1.427 . S
C2133 C2134 1.328 1_554 S
C2133 H2148 0.929 . S
C2134 C2128 1.448 . S
C2134 C2133 1.328 1_556 S
C2134 H2149 0.930 . S
Tb2135 N2126 2.617 1_554 S
Tb2135 N2136 2.572 . S
Tb2135 O2170 2.349 . S
Tb2135 O2173 2.393 1_554 S
Tb2135 O2174 2.465 . S
Tb2135 O2175 2.387 . S
Tb2135 O2177 2.428 1_554 S
Tb2135 O2178 2.308 . S
Tb2135 C2199 2.802 . S
N2136 C2132 1.361 . S
N2136 Tb2135 2.572 . S
N2136 C2138 1.340 . S
C2137 C2131 1.416 . S
C2137 C2139 1.332 . S
C2137 H2145 0.931 . S
C2138 N2136 1.340 . S
C2138 C2139 1.407 . S
C2138 H2144 0.930 . S
C2139 C2137 1.332 . S
C2139 C2138 1.407 . S
C2139 H2141 0.929 . S
H2140 C2129 0.930 . S
H2141 C2139 0.929 . S
H2142 C2157 0.930 1_455 S
H2143 C2164 0.929 . S
H2144 C2138 0.930 . S
H2145 C2137 0.931 . S
H2146 C2160 0.930 1_556 S
H2147 C2127 0.930 . S
H2148 C2133 0.929 . S
H2149 C2134 0.930 . S
H2150 C2155 0.930 . S
H2151 C2130 0.930 . S
H2152 C2163 0.931 . S
N2153 Tb2124 2.605 1_655 S
N2153 C2154 1.379 . S
N2153 C2157 1.334 . S
C2154 N2153 1.379 . S
C2154 C2156 1.416 . S
C2154 C2162 1.424 . S
C2155 H2150 0.930 . S
C2155 C2157 1.390 . S
C2155 C2158 1.339 . S
C2156 C2154 1.416 . S
C2156 C2158 1.416 . S
C2156 C2189 1.448 . S
C2157 H2142 0.930 1_655 S
C2157 N2153 1.334 . S
C2157 C2155 1.390 . S
C2158 C2155 1.339 . S
C2158 C2156 1.416 . S
C2158 H2165 0.930 . S
N2159 Tb2124 2.544 1_655 S
N2159 C2160 1.340 . S
N2159 C2162 1.361 . S
C2160 H2146 0.930 1_554 S
C2160 N2159 1.340 . S
C2160 C2164 1.407 1_554 S
C2161 C2162 1.413 . S
C2161 C2163 1.416 . S
C2161 C2190 1.427 . S
C2162 C2154 1.424 . S
C2162 N2159 1.361 . S
C2162 C2161 1.413 . S
C2163 H2152 0.931 . S
C2163 C2161 1.416 . S
C2163 C2164 1.332 1_554 S
C2164 H2143 0.929 . S
C2164 C2160 1.407 1_556 S
C2164 C2163 1.332 1_556 S
H2165 C2158 0.930 . S
H2166 C2189 0.930 . S
H2167 C2190 0.929 . S
O2168 Tb2124 2.427 1_655 S
O2168 C2188 1.264 . S
O2169 Tb2124 2.411 . S
O2169 C2180 1.264 . S
O2170 Tb2135 2.349 . S
O2170 C2180 1.243 . S
O2171 Tb2124 2.396 1_655 S
O2171 C2188 1.256 . S
O2172 Tb2124 2.318 . S
O2172 C2187 1.266 1_554 S
O2173 Tb2135 2.393 1_556 S
O2173 C2187 1.248 . S
O2174 Tb2135 2.465 . S
O2174 C2199 1.264 . S
O2175 Tb2135 2.387 . S
O2175 C2191 1.264 . S
O2176 Tb2124 2.363 . S
O2176 C2191 1.243 . S
O2177 Tb2135 2.428 1_556 S
O2177 C2199 1.256 1_556 S
O2178 Tb2135 2.308 . S
O2178 C2198 1.266 . S
O2179 Tb2124 2.423 . S
O2179 C2198 1.248 . S
C2180 O2169 1.264 . S
C2180 O2170 1.243 . S
C2181 C2184 1.399 . S
C2181 C2186 1.383 . S
C2181 C2188 1.496 . S
C2182 C2183 1.399 . S
C2182 C2186 1.389 . S
C2183 C2182 1.399 . S
C2183 C2185 1.380 . S
C2183 H2200 0.929 . S
C2184 C2181 1.399 . S
C2184 C2185 1.392 . S
C2184 H2201 0.929 . S
C2185 C2183 1.380 . S
C2185 C2184 1.392 . S
C2185 H2202 0.929 . S
C2186 C2181 1.383 . S
C2186 C2182 1.389 . S
C2186 H2203 0.931 . S
C2187 O2172 1.266 1_556 S
C2187 O2173 1.248 . S
C2188 Tb2124 2.763 1_655 S
C2188 O2168 1.264 . S
C2188 O2171 1.256 . S
C2188 C2181 1.496 . S
C2189 C2156 1.448 . S
C2189 H2166 0.930 . S
C2189 C2190 1.328 . S
C2190 C2161 1.427 . S
C2190 H2167 0.929 . S
C2190 C2189 1.328 . S
C2191 O2175 1.264 . S
C2191 O2176 1.243 . S
C2192 C2195 1.399 . S
C2192 C2196 1.383 1_556 S
C2192 C2199 1.496 1_556 S
C2193 C2194 1.399 1_554 S
C2193 C2196 1.389 . S
C2194 C2193 1.399 1_556 S
C2194 C2197 1.380 . S
C2194 H2204 0.929 . S
C2195 C2192 1.399 . S
C2195 C2197 1.392 . S
C2195 H2205 0.929 . S
C2196 C2192 1.383 1_554 S
C2196 C2193 1.389 . S
C2196 H2206 0.931 . S
C2197 C2194 1.380 . S
C2197 C2195 1.392 . S
C2197 H2207 0.929 . S
C2198 O2178 1.266 . S
C2198 O2179 1.248 . S
C2199 Tb2135 2.802 . S
C2199 O2174 1.264 . S
C2199 O2177 1.256 1_554 S
C2199 C2192 1.496 1_554 S
H2200 C2183 0.929 . S
H2201 C2184 0.929 . S
H2202 C2185 0.929 . S
H2203 C2186 0.931 . S
H2204 C2194 0.929 . S
H2205 C2195 0.929 . S
H2206 C2196 0.931 . S
H2207 C2197 0.929 . S
C2208 C2209 1.349 . S
C2208 C2210 1.327 . S
C2208 H2233 0.950 . S
C2209 C2208 1.349 . S
C2209 C2225 1.349 1_655 S
C2210 C2208 1.327 . S
C2210 C2229 1.429 1_655 S
C2210 H2234 0.950 . S
C2211 C2228 1.574 . S
C2211 C2230 1.368 . S
C2211 H2235 0.949 . S
H2212 C2216 0.949 1_554 S
C2213 C2214 1.349 1_556 S
C2213 C2215 1.327 . S
C2213 H2236 0.950 . S
C2214 C2213 1.349 1_554 S
C2214 C2226 1.349 . S
C2215 C2213 1.327 . S
C2215 C2231 1.429 . S
C2215 H2237 0.950 . S
C2216 H2212 0.949 1_556 S
C2216 C2224 1.574 . S
C2216 C2232 1.368 1_655 S
H2217 C2225 0.950 . S
H2218 C2223 0.950 . S
H2219 C2224 0.949 . S
H2220 C2226 0.950 1_655 S
H2221 C2227 0.950 1_655 S
H2222 C2228 0.949 . S
C2223 H2218 0.950 . S
C2223 C2225 1.327 . S
C2223 C2229 1.429 . S
C2224 C2216 1.574 . S
C2224 H2219 0.949 . S
C2224 C2230 1.368 1_655 S
C2225 C2209 1.349 1_455 S
C2225 H2217 0.950 . S
C2225 C2223 1.327 . S
C2226 C2214 1.349 . S
C2226 H2220 0.950 1_455 S
C2226 C2227 1.327 . S
C2227 H2221 0.950 1_455 S
C2227 C2226 1.327 . S
C2227 C2231 1.429 1_554 S
C2228 C2211 1.574 . S
C2228 H2222 0.949 . S
C2228 C2232 1.368 . S
C2229 C2210 1.429 1_455 S
C2229 C2223 1.429 . S
C2229 C2230 1.523 . S
C2230 C2211 1.368 . S
C2230 C2224 1.368 1_455 S
C2230 C2229 1.523 . S
C2231 C2215 1.429 . S
C2231 C2227 1.429 1_556 S
C2231 C2232 1.523 . S
C2232 C2216 1.368 1_455 S
C2232 C2228 1.368 . S
C2232 C2231 1.523 . S
H2233 C2208 0.950 . S
H2234 C2210 0.950 . S
H2235 C2211 0.949 . S
H2236 C2213 0.950 . S
H2237 C2215 0.950 . S
C2238 C2239 1.349 . S
C2238 C2240 1.327 . S
C2238 H2263 0.950 . S
C2239 C2238 1.349 . S
C2239 C2255 1.349 . S
C2240 C2238 1.327 . S
C2240 C2259 1.429 . S
C2240 H2264 0.950 . S
C2241 C2258 1.574 . S
C2241 C2260 1.368 . S
C2241 H2265 0.949 . S
H2242 C2246 0.949 . S
C2243 C2244 1.349 . S
C2243 C2245 1.327 . S
C2243 H2266 0.950 . S
C2244 C2243 1.349 . S
C2244 C2256 1.349 . S
C2245 C2243 1.327 . S
C2245 C2261 1.429 . S
C2245 H2267 0.950 . S
C2246 H2242 0.949 . S
C2246 C2254 1.574 . S
C2246 C2262 1.368 . S
H2247 C2255 0.950 . S
H2248 C2253 0.950 . S
H2249 C2254 0.949 . S
H2250 C2256 0.950 . S
H2251 C2257 0.950 . S
H2252 C2258 0.949 . S
C2253 H2248 0.950 . S
C2253 C2255 1.327 . S
C2253 C2259 1.429 . S
C2254 C2246 1.574 . S
C2254 H2249 0.949 . S
C2254 C2260 1.368 . S
C2255 C2239 1.349 . S
C2255 H2247 0.950 . S
C2255 C2253 1.327 . S
C2256 C2244 1.349 . S
C2256 H2250 0.950 . S
C2256 C2257 1.327 . S
C2257 H2251 0.950 . S
C2257 C2256 1.327 . S
C2257 C2261 1.429 . S
C2258 C2241 1.574 . S
C2258 H2252 0.949 . S
C2258 C2262 1.368 . S
C2259 C2240 1.429 . S
C2259 C2253 1.429 . S
C2259 C2260 1.523 . S
C2260 C2241 1.368 . S
C2260 C2254 1.368 . S
C2260 C2259 1.523 . S
C2261 C2245 1.429 . S
C2261 C2257 1.429 . S
C2261 C2262 1.523 . S
C2262 C2246 1.368 . S
C2262 C2258 1.368 . S
C2262 C2261 1.523 . S
H2263 C2238 0.950 . S
H2264 C2240 0.950 . S
H2265 C2241 0.949 . S
H2266 C2243 0.950 . S
H2267 C2245 0.950 . S
C2268 C2269 1.349 . S
C2268 C2270 1.327 . S
C2268 H2293 0.950 . S
C2269 C2268 1.349 . S
C2269 C2285 1.349 . S
C2270 C2268 1.327 . S
C2270 C2289 1.429 . S
C2270 H2294 0.950 . S
C2271 C2288 1.574 . S
C2271 C2290 1.368 . S
C2271 H2295 0.949 . S
H2272 C2276 0.949 . S
C2273 C2274 1.349 . S
C2273 C2275 1.327 . S
C2273 H2296 0.950 . S
C2274 C2273 1.349 . S
C2274 C2286 1.349 . S
C2275 C2273 1.327 . S
C2275 C2291 1.429 . S
C2275 H2297 0.950 . S
C2276 H2272 0.949 . S
C2276 C2284 1.574 . S
C2276 C2292 1.368 . S
H2277 C2285 0.950 . S
H2278 C2283 0.950 . S
H2279 C2284 0.949 . S
H2280 C2286 0.950 . S
H2281 C2287 0.950 . S
H2282 C2288 0.949 . S
C2283 H2278 0.950 . S
C2283 C2285 1.327 . S
C2283 C2289 1.429 . S
C2284 C2276 1.574 . S
C2284 H2279 0.949 . S
C2284 C2290 1.368 . S
C2285 C2269 1.349 . S
C2285 H2277 0.950 . S
C2285 C2283 1.327 . S
C2286 C2274 1.349 . S
C2286 H2280 0.950 . S
C2286 C2287 1.327 . S
C2287 H2281 0.950 . S
C2287 C2286 1.327 . S
C2287 C2291 1.429 . S
C2288 C2271 1.574 . S
C2288 H2282 0.949 . S
C2288 C2292 1.368 . S
C2289 C2270 1.429 . S
C2289 C2283 1.429 . S
C2289 C2290 1.523 . S
C2290 C2271 1.368 . S
C2290 C2284 1.368 . S
C2290 C2289 1.523 . S
C2291 C2275 1.429 . S
C2291 C2287 1.429 . S
C2291 C2292 1.523 . S
C2292 C2276 1.368 . S
C2292 C2288 1.368 . S
C2292 C2291 1.523 . S
H2293 C2268 0.950 . S
H2294 C2270 0.950 . S
H2295 C2271 0.949 . S
H2296 C2273 0.950 . S
H2297 C2275 0.950 . S
C2298 C2299 1.349 . S
C2298 C2300 1.327 . S
C2298 H2323 0.950 . S
C2299 C2298 1.349 . S
C2299 C2315 1.349 . S
C2300 C2298 1.327 . S
C2300 C2319 1.429 . S
C2300 H2324 0.950 . S
C2301 C2318 1.574 . S
C2301 C2320 1.368 . S
C2301 H2325 0.949 . S
H2302 C2306 0.949 . S
C2303 C2304 1.349 . S
C2303 C2305 1.327 . S
C2303 H2326 0.950 . S
C2304 C2303 1.349 . S
C2304 C2316 1.349 . S
C2305 C2303 1.327 . S
C2305 C2321 1.429 . S
C2305 H2327 0.950 . S
C2306 H2302 0.949 . S
C2306 C2314 1.574 . S
C2306 C2322 1.368 . S
H2307 C2315 0.950 . S
H2308 C2313 0.950 . S
H2309 C2314 0.949 . S
H2310 C2316 0.950 . S
H2311 C2317 0.950 . S
H2312 C2318 0.949 . S
C2313 H2308 0.950 . S
C2313 C2315 1.327 . S
C2313 C2319 1.429 . S
C2314 C2306 1.574 . S
C2314 H2309 0.949 . S
C2314 C2320 1.368 . S
C2315 C2299 1.349 . S
C2315 H2307 0.950 . S
C2315 C2313 1.327 . S
C2316 C2304 1.349 . S
C2316 H2310 0.950 . S
C2316 C2317 1.327 . S
C2317 H2311 0.950 . S
C2317 C2316 1.327 . S
C2317 C2321 1.429 . S
C2318 C2301 1.574 . S
C2318 H2312 0.949 . S
C2318 C2322 1.368 . S
C2319 C2300 1.429 . S
C2319 C2313 1.429 . S
C2319 C2320 1.523 . S
C2320 C2301 1.368 . S
C2320 C2314 1.368 . S
C2320 C2319 1.523 . S
C2321 C2305 1.429 . S
C2321 C2317 1.429 . S
C2321 C2322 1.523 . S
C2322 C2306 1.368 . S
C2322 C2318 1.368 . S
C2322 C2321 1.523 . S
H2323 C2298 0.950 . S
H2324 C2300 0.950 . S
H2325 C2301 0.949 . S
H2326 C2303 0.950 . S
H2327 C2305 0.950 . S
C2328 C2329 1.349 . S
C2328 C2330 1.327 . S
C2328 H2353 0.950 . S
C2329 C2328 1.349 . S
C2329 C2345 1.349 . S
C2330 C2328 1.327 . S
C2330 C2349 1.429 . S
C2330 H2354 0.950 . S
C2331 C2348 1.574 . S
C2331 C2350 1.368 . S
C2331 H2355 0.949 1_455 S
H2332 C2336 0.949 . S
C2333 C2334 1.349 . S
C2333 C2335 1.327 . S
C2333 H2356 0.950 . S
C2334 C2333 1.349 . S
C2334 C2346 1.349 . S
C2335 C2333 1.327 . S
C2335 C2351 1.429 . S
C2335 H2357 0.972 . S
C2336 H2332 0.949 . S
C2336 C2344 1.574 . S
C2336 C2352 1.368 . S
H2337 C2345 0.950 1_655 S
H2338 C2343 0.950 1_655 S
H2339 C2344 0.949 . S
H2340 C2346 0.950 . S
H2341 C2347 0.950 . S
H2342 C2348 0.939 1_655 S
C2343 H2338 0.950 1_455 S
C2343 C2345 1.327 . S
C2343 C2349 1.429 . S
C2344 C2336 1.574 . S
C2344 H2339 0.949 . S
C2344 C2350 1.368 . S
C2345 C2329 1.349 . S
C2345 H2337 0.950 1_455 S
C2345 C2343 1.327 . S
C2346 C2334 1.349 . S
C2346 H2340 0.950 . S
C2346 C2347 1.327 . S
C2347 H2341 0.950 . S
C2347 C2346 1.327 . S
C2347 C2351 1.429 . S
C2348 C2331 1.574 . S
C2348 H2342 0.939 1_455 S
C2348 C2352 1.368 . S
C2349 C2330 1.429 . S
C2349 C2343 1.429 . S
C2349 C2350 1.523 . S
C2350 C2331 1.368 . S
C2350 C2344 1.368 . S
C2350 C2349 1.523 . S
C2351 C2335 1.429 . S
C2351 C2347 1.429 . S
C2351 C2352 1.523 . S
C2352 C2336 1.368 . S
C2352 C2348 1.368 . S
C2352 C2351 1.523 . S
H2353 C2328 0.950 . S
H2354 C2330 0.950 . S
H2355 C2331 0.949 1_655 S
H2356 C2333 0.950 . S
H2357 C2335 0.972 . S
C2358 C2359 1.349 . S
C2358 C2360 1.327 . S
C2358 H2383 0.950 . S
C2359 C2358 1.349 . S
C2359 C2375 1.349 . S
C2360 C2358 1.327 . S
C2360 C2379 1.429 . S
C2360 H2384 0.950 . S
C2361 C2378 1.574 . S
C2361 C2380 1.368 . S
C2361 H2385 0.949 . S
H2362 C2366 0.949 . S
C2363 C2364 1.349 . S
C2363 C2365 1.327 . S
C2363 H2386 0.950 . S
C2364 C2363 1.349 . S
C2364 C2376 1.349 . S
C2365 C2363 1.327 . S
C2365 C2381 1.429 . S
C2365 H2387 0.950 . S
C2366 H2362 0.949 . S
C2366 C2374 1.574 . S
C2366 C2382 1.368 . S
H2367 C2375 0.950 . S
H2368 C2373 0.950 . S
H2369 C2374 0.949 . S
H2370 C2376 0.950 . S
H2371 C2377 0.950 . S
H2372 C2378 0.949 . S
C2373 H2368 0.950 . S
C2373 C2375 1.327 . S
C2373 C2379 1.429 . S
C2374 C2366 1.574 . S
C2374 H2369 0.949 . S
C2374 C2380 1.368 . S
C2375 C2359 1.349 . S
C2375 H2367 0.950 . S
C2375 C2373 1.327 . S
C2376 C2364 1.349 . S
C2376 H2370 0.950 . S
C2376 C2377 1.327 . S
C2377 H2371 0.950 . S
C2377 C2376 1.327 . S
C2377 C2381 1.429 . S
C2378 C2361 1.574 . S
C2378 H2372 0.949 . S
C2378 C2382 1.368 . S
C2379 C2360 1.429 . S
C2379 C2373 1.429 . S
C2379 C2380 1.523 . S
C2380 C2361 1.368 . S
C2380 C2374 1.368 . S
C2380 C2379 1.523 . S
C2381 C2365 1.429 . S
C2381 C2377 1.429 . S
C2381 C2382 1.523 . S
C2382 C2366 1.368 . S
C2382 C2378 1.368 . S
C2382 C2381 1.523 . S
H2383 C2358 0.950 . S
H2384 C2360 0.950 . S
H2385 C2361 0.949 . S
H2386 C2363 0.950 . S
H2387 C2365 0.950 . S
C2388 C2389 1.349 . S
C2388 C2390 1.327 . S
C2388 H2413 0.950 . S
C2389 C2388 1.349 . S
C2389 C2405 1.349 . S
C2390 C2388 1.327 . S
C2390 C2409 1.429 . S
C2390 H2414 0.950 . S
C2391 C2408 1.574 . S
C2391 C2410 1.368 . S
C2391 H2415 0.949 . S
H2392 C2396 0.949 . S
C2393 C2394 1.349 . S
C2393 C2395 1.327 . S
C2393 H2416 0.950 . S
C2394 C2393 1.349 . S
C2394 C2406 1.349 . S
C2395 C2393 1.327 . S
C2395 C2411 1.429 . S
C2395 H2417 0.950 . S
C2396 H2392 0.949 . S
C2396 C2404 1.574 . S
C2396 C2412 1.368 . S
H2397 C2405 0.950 . S
H2398 C2403 0.950 . S
H2399 C2404 0.949 . S
H2400 C2406 0.950 . S
H2401 C2407 0.950 . S
H2402 C2408 0.949 . S
C2403 H2398 0.950 . S
C2403 C2405 1.327 . S
C2403 C2409 1.429 . S
C2404 C2396 1.574 . S
C2404 H2399 0.949 . S
C2404 C2410 1.368 . S
C2405 C2389 1.349 . S
C2405 H2397 0.950 . S
C2405 C2403 1.327 . S
C2406 C2394 1.349 . S
C2406 H2400 0.950 . S
C2406 C2407 1.327 . S
C2407 H2401 0.950 . S
C2407 C2406 1.327 . S
C2407 C2411 1.429 . S
C2408 C2391 1.574 . S
C2408 H2402 0.949 . S
C2408 C2412 1.368 . S
C2409 C2390 1.429 . S
C2409 C2403 1.429 . S
C2409 C2410 1.523 . S
C2410 C2391 1.368 . S
C2410 C2404 1.368 . S
C2410 C2409 1.523 . S
C2411 C2395 1.429 . S
C2411 C2407 1.429 . S
C2411 C2412 1.523 . S
C2412 C2396 1.368 . S
C2412 C2408 1.368 . S
C2412 C2411 1.523 . S
H2413 C2388 0.950 . S
H2414 C2390 0.950 . S
H2415 C2391 0.949 . S
H2416 C2393 0.950 . S
H2417 C2395 0.950 . S
C2418 C2419 1.349 . S
C2418 C2420 1.327 . S
C2418 H2443 0.950 . S
C2419 C2418 1.349 . S
C2419 C2435 1.349 . S
C2420 C2418 1.327 . S
C2420 C2439 1.429 . S
C2420 H2444 0.950 . S
C2421 C2438 1.574 . S
C2421 C2440 1.368 . S
C2421 H2445 0.949 . S
H2422 C2426 0.949 . S
C2423 C2424 1.349 . S
C2423 C2425 1.327 . S
C2423 H2446 0.950 . S
C2424 C2423 1.349 . S
C2424 C2436 1.349 . S
C2425 C2423 1.327 . S
C2425 C2441 1.429 . S
C2425 H2447 0.950 . S
C2426 H2422 0.949 . S
C2426 C2434 1.574 . S
C2426 C2442 1.368 . S
H2427 C2435 0.950 . S
H2428 C2433 0.950 . S
H2429 C2434 0.949 . S
H2430 C2436 0.950 . S
H2431 C2437 0.950 . S
H2432 C2438 0.949 . S
C2433 H2428 0.950 . S
C2433 C2435 1.327 . S
C2433 C2439 1.429 . S
C2434 C2426 1.574 . S
C2434 H2429 0.949 . S
C2434 C2440 1.368 . S
C2435 C2419 1.349 . S
C2435 H2427 0.950 . S
C2435 C2433 1.327 . S
C2436 C2424 1.349 . S
C2436 H2430 0.950 . S
C2436 C2437 1.327 . S
C2437 H2431 0.950 . S
C2437 C2436 1.327 . S
C2437 C2441 1.429 . S
C2438 C2421 1.574 . S
C2438 H2432 0.949 . S
C2438 C2442 1.368 . S
C2439 C2420 1.429 . S
C2439 C2433 1.429 . S
C2439 C2440 1.523 . S
C2440 C2421 1.368 . S
C2440 C2434 1.368 . S
C2440 C2439 1.523 . S
C2441 C2425 1.429 . S
C2441 C2437 1.429 . S
C2441 C2442 1.523 . S
C2442 C2426 1.368 . S
C2442 C2438 1.368 . S
C2442 C2441 1.523 . S
H2443 C2418 0.950 . S
H2444 C2420 0.950 . S
H2445 C2421 0.949 . S
H2446 C2423 0.950 . S
H2447 C2425 0.950 . S
C2448 C2449 1.334 1_565 S
C2448 C2450 1.324 1_565 S
C2448 H2473 0.967 . S
C2449 C2448 1.334 1_545 S
C2449 C2465 1.349 . S
C2450 C2448 1.324 1_545 S
C2450 C2469 1.455 . S
C2450 H2474 0.926 1_545 S
C2451 C2468 1.574 . S
C2451 C2470 1.368 . S
C2451 H2475 0.949 . S
H2452 C2456 0.949 1_565 S
C2453 C2454 1.349 . S
C2453 C2455 1.341 . S
C2453 H2476 0.950 . S
C2454 C2453 1.349 . S
C2454 C2466 1.349 1_455 S
C2455 C2453 1.341 . S
C2455 C2471 1.412 1_455 S
C2455 H2477 0.953 . S
C2456 H2452 0.949 1_545 S
C2456 C2464 1.574 . S
C2456 C2472 1.368 . S
H2457 C2465 0.950 . S
H2458 C2463 0.950 . S
H2459 C2464 0.949 1_565 S
H2460 C2466 0.979 . S
H2461 C2467 0.950 1_565 S
H2462 C2468 0.949 . S
C2463 H2458 0.950 . S
C2463 C2465 1.327 . S
C2463 C2469 1.429 . S
C2464 C2456 1.574 . S
C2464 H2459 0.949 1_545 S
C2464 C2470 1.368 . S
C2465 C2449 1.349 . S
C2465 H2457 0.950 . S
C2465 C2463 1.327 . S
C2466 C2454 1.349 1_655 S
C2466 H2460 0.979 . S
C2466 C2467 1.327 . S
C2467 H2461 0.950 1_545 S
C2467 C2466 1.327 . S
C2467 C2471 1.429 . S
C2468 C2451 1.574 . S
C2468 H2462 0.949 . S
C2468 C2472 1.368 . S
C2469 C2450 1.455 . S
C2469 C2463 1.429 . S
C2469 C2470 1.523 . S
C2470 C2451 1.368 . S
C2470 C2464 1.368 . S
C2470 C2469 1.523 . S
C2471 C2455 1.412 1_655 S
C2471 C2467 1.429 . S
C2471 C2472 1.523 . S
C2472 C2456 1.368 . S
C2472 C2468 1.368 . S
C2472 C2471 1.523 . S
H2473 C2448 0.967 . S
H2474 C2450 0.926 1_565 S
H2475 C2451 0.949 . S
H2476 C2453 0.950 . S
H2477 C2455 0.953 . S
C2478 C2479 1.349 . S
C2478 C2480 1.327 . S
C2478 H2503 0.950 . S
C2479 C2478 1.349 . S
C2479 C2495 1.349 . S
C2480 C2478 1.327 . S
C2480 C2499 1.429 . S
C2480 H2504 0.950 . S
C2481 C2498 1.574 . S
C2481 C2500 1.368 . S
C2481 H2505 0.949 . S
H2482 C2486 0.949 . S
C2483 C2484 1.349 . S
C2483 C2485 1.327 . S
C2483 H2506 0.950 . S
C2484 C2483 1.349 . S
C2484 C2496 1.349 . S
C2485 C2483 1.327 . S
C2485 C2501 1.429 . S
C2485 H2507 0.950 . S
C2486 H2482 0.949 . S
C2486 C2494 1.574 . S
C2486 C2502 1.368 . S
H2487 C2495 0.950 . S
H2488 C2493 0.950 . S
H2489 C2494 0.949 . S
H2490 C2496 0.950 . S
H2491 C2497 0.950 . S
H2492 C2498 0.949 . S
C2493 H2488 0.950 . S
C2493 C2495 1.327 . S
C2493 C2499 1.429 . S
C2494 C2486 1.574 . S
C2494 H2489 0.949 . S
C2494 C2500 1.368 . S
C2495 C2479 1.349 . S
C2495 H2487 0.950 . S
C2495 C2493 1.327 . S
C2496 C2484 1.349 . S
C2496 H2490 0.950 . S
C2496 C2497 1.327 . S
C2497 H2491 0.950 . S
C2497 C2496 1.327 . S
C2497 C2501 1.429 . S
C2498 C2481 1.574 . S
C2498 H2492 0.949 . S
C2498 C2502 1.368 . S
C2499 C2480 1.429 . S
C2499 C2493 1.429 . S
C2499 C2500 1.523 . S
C2500 C2481 1.368 . S
C2500 C2494 1.368 . S
C2500 C2499 1.523 . S
C2501 C2485 1.429 . S
C2501 C2497 1.429 . S
C2501 C2502 1.523 . S
C2502 C2486 1.368 . S
C2502 C2498 1.368 . S
C2502 C2501 1.523 . S
H2503 C2478 0.950 . S
H2504 C2480 0.950 . S
H2505 C2481 0.949 . S
H2506 C2483 0.950 . S
H2507 C2485 0.950 . S
C2508 C2509 1.349 . S
C2508 C2510 1.327 . S
C2508 H2533 0.950 . S
C2509 C2508 1.349 . S
C2509 C2525 1.349 . S
C2510 C2508 1.327 . S
C2510 C2529 1.429 . S
C2510 H2534 0.950 . S
C2511 C2528 1.574 . S
C2511 C2530 1.368 . S
C2511 H2535 0.949 . S
H2512 C2516 0.949 . S
C2513 C2514 1.349 . S
C2513 C2515 1.327 . S
C2513 H2536 0.950 . S
C2514 C2513 1.349 . S
C2514 C2526 1.349 . S
C2515 C2513 1.327 . S
C2515 C2531 1.429 . S
C2515 H2537 0.950 . S
C2516 H2512 0.949 . S
C2516 C2524 1.574 . S
C2516 C2532 1.368 . S
H2517 C2525 0.950 . S
H2518 C2523 0.950 . S
H2519 C2524 0.949 . S
H2520 C2526 0.950 . S
H2521 C2527 0.950 . S
H2522 C2528 0.949 . S
C2523 H2518 0.950 . S
C2523 C2525 1.327 . S
C2523 C2529 1.429 . S
C2524 C2516 1.574 . S
C2524 H2519 0.949 . S
C2524 C2530 1.368 . S
C2525 C2509 1.349 . S
C2525 H2517 0.950 . S
C2525 C2523 1.327 . S
C2526 C2514 1.349 . S
C2526 H2520 0.950 . S
C2526 C2527 1.327 . S
C2527 H2521 0.950 . S
C2527 C2526 1.327 . S
C2527 C2531 1.429 . S
C2528 C2511 1.574 . S
C2528 H2522 0.949 . S
C2528 C2532 1.368 . S
C2529 C2510 1.429 . S
C2529 C2523 1.429 . S
C2529 C2530 1.523 . S
C2530 C2511 1.368 . S
C2530 C2524 1.368 . S
C2530 C2529 1.523 . S
C2531 C2515 1.429 . S
C2531 C2527 1.429 . S
C2531 C2532 1.523 . S
C2532 C2516 1.368 . S
C2532 C2528 1.368 . S
C2532 C2531 1.523 . S
H2533 C2508 0.950 . S
H2534 C2510 0.950 . S
H2535 C2511 0.949 . S
H2536 C2513 0.950 . S
H2537 C2515 0.950 . S
C2538 C2539 1.349 . S
C2538 C2540 1.327 . S
C2538 H2563 0.950 . S
C2539 C2538 1.349 . S
C2539 C2555 1.349 . S
C2540 C2538 1.327 . S
C2540 C2559 1.429 . S
C2540 H2564 0.950 . S
C2541 C2558 1.574 . S
C2541 C2560 1.368 . S
C2541 H2565 0.949 . S
H2542 C2546 0.949 . S
C2543 C2544 1.349 . S
C2543 C2545 1.327 . S
C2543 H2566 0.950 . S
C2544 C2543 1.349 . S
C2544 C2556 1.349 . S
C2545 C2543 1.327 . S
C2545 C2561 1.429 . S
C2545 H2567 0.950 . S
C2546 H2542 0.949 . S
C2546 C2554 1.574 . S
C2546 C2562 1.368 . S
H2547 C2555 0.950 . S
H2548 C2553 0.950 . S
H2549 C2554 0.949 . S
H2550 C2556 0.950 . S
H2551 C2557 0.950 . S
H2552 C2558 0.949 . S
C2553 H2548 0.950 . S
C2553 C2555 1.327 . S
C2553 C2559 1.429 . S
C2554 C2546 1.574 . S
C2554 H2549 0.949 . S
C2554 C2560 1.368 . S
C2555 C2539 1.349 . S
C2555 H2547 0.950 . S
C2555 C2553 1.327 . S
C2556 C2544 1.349 . S
C2556 H2550 0.950 . S
C2556 C2557 1.327 . S
C2557 H2551 0.950 . S
C2557 C2556 1.327 . S
C2557 C2561 1.429 . S
C2558 C2541 1.574 . S
C2558 H2552 0.949 . S
C2558 C2562 1.368 . S
C2559 C2540 1.429 . S
C2559 C2553 1.429 . S
C2559 C2560 1.523 . S
C2560 C2541 1.368 . S
C2560 C2554 1.368 . S
C2560 C2559 1.523 . S
C2561 C2545 1.429 . S
C2561 C2557 1.429 . S
C2561 C2562 1.523 . S
C2562 C2546 1.368 . S
C2562 C2558 1.368 . S
C2562 C2561 1.523 . S
H2563 C2538 0.950 . S
H2564 C2540 0.950 . S
H2565 C2541 0.949 . S
H2566 C2543 0.950 . S
H2567 C2545 0.950 . S
C2568 C2569 1.349 . S
C2568 C2570 1.327 . S
C2568 H2593 0.950 . S
C2569 C2568 1.349 . S
C2569 C2585 1.349 . S
C2570 C2568 1.327 . S
C2570 C2589 1.429 . S
C2570 H2594 0.950 . S
C2571 C2588 1.574 . S
C2571 C2590 1.368 . S
C2571 H2595 0.949 1_545 S
H2572 C2576 0.949 . S
C2573 C2574 1.349 . S
C2573 C2575 1.333 . S
C2573 H2596 0.937 1_545 S
C2574 C2573 1.349 . S
C2574 C2586 1.349 1_455 S
C2575 C2573 1.333 . S
C2575 C2591 1.414 1_455 S
C2575 H2597 0.958 1_545 S
C2576 H2572 0.949 . S
C2576 C2584 1.574 . S
C2576 C2592 1.368 . S
H2577 C2585 0.950 1_565 S
H2578 C2583 0.950 1_565 S
H2579 C2584 0.949 . S
H2580 C2586 0.950 . S
H2581 C2587 0.950 . S
H2582 C2588 0.949 1_565 S
C2583 H2578 0.950 1_545 S
C2583 C2585 1.327 . S
C2583 C2589 1.429 . S
C2584 C2576 1.574 . S
C2584 H2579 0.949 . S
C2584 C2590 1.368 . S
C2585 C2569 1.349 . S
C2585 H2577 0.950 1_545 S
C2585 C2583 1.327 . S
C2586 C2574 1.349 1_655 S
C2586 H2580 0.950 . S
C2586 C2587 1.327 . S
C2587 H2581 0.950 . S
C2587 C2586 1.327 . S
C2587 C2591 1.429 . S
C2588 C2571 1.574 . S
C2588 H2582 0.949 1_545 S
C2588 C2592 1.368 . S
C2589 C2570 1.429 . S
C2589 C2583 1.429 . S
C2589 C2590 1.523 . S
C2590 C2571 1.368 . S
C2590 C2584 1.368 . S
C2590 C2589 1.523 . S
C2591 C2575 1.414 1_655 S
C2591 C2587 1.429 . S
C2591 C2592 1.523 . S
C2592 C2576 1.368 . S
C2592 C2588 1.368 . S
C2592 C2591 1.523 . S
H2593 C2568 0.950 . S
H2594 C2570 0.950 . S
H2595 C2571 0.949 1_565 S
H2596 C2573 0.937 1_565 S
H2597 C2575 0.958 1_565 S
C2598 C2599 1.349 . S
C2598 C2600 1.327 . S
C2598 H2623 0.950 . S
C2599 C2598 1.349 . S
C2599 C2615 1.349 . S
C2600 C2598 1.327 . S
C2600 C2619 1.429 . S
C2600 H2624 0.950 . S
C2601 C2618 1.574 . S
C2601 C2620 1.368 . S
C2601 H2625 0.949 . S
H2602 C2606 0.949 . S
C2603 C2604 1.349 . S
C2603 C2605 1.327 . S
C2603 H2626 0.950 . S
C2604 C2603 1.349 . S
C2604 C2616 1.349 . S
C2605 C2603 1.327 . S
C2605 C2621 1.429 . S
C2605 H2627 0.950 . S
C2606 H2602 0.949 . S
C2606 C2614 1.574 . S
C2606 C2622 1.368 . S
H2607 C2615 0.950 . S
H2608 C2613 0.950 . S
H2609 C2614 0.949 . S
H2610 C2616 0.950 . S
H2611 C2617 0.950 . S
H2612 C2618 0.949 . S
C2613 H2608 0.950 . S
C2613 C2615 1.327 . S
C2613 C2619 1.429 . S
C2614 C2606 1.574 . S
C2614 H2609 0.949 . S
C2614 C2620 1.368 . S
C2615 C2599 1.349 . S
C2615 H2607 0.950 . S
C2615 C2613 1.327 . S
C2616 C2604 1.349 . S
C2616 H2610 0.950 . S
C2616 C2617 1.327 . S
C2617 H2611 0.950 . S
C2617 C2616 1.327 . S
C2617 C2621 1.429 . S
C2618 C2601 1.574 . S
C2618 H2612 0.949 . S
C2618 C2622 1.368 . S
C2619 C2600 1.429 . S
C2619 C2613 1.429 . S
C2619 C2620 1.523 . S
C2620 C2601 1.368 . S
C2620 C2614 1.368 . S
C2620 C2619 1.523 . S
C2621 C2605 1.429 . S
C2621 C2617 1.429 . S
C2621 C2622 1.523 . S
C2622 C2606 1.368 . S
C2622 C2618 1.368 . S
C2622 C2621 1.523 . S
H2623 C2598 0.950 . S
H2624 C2600 0.950 . S
H2625 C2601 0.949 . S
H2626 C2603 0.950 . S
H2627 C2605 0.950 . S
C2628 C2629 1.349 . S
C2628 C2630 1.327 . S
C2628 H2653 0.950 . S
C2629 C2628 1.349 . S
C2629 C2645 1.349 . S
C2630 C2628 1.327 . S
C2630 C2649 1.429 . S
C2630 H2654 0.950 . S
C2631 C2648 1.574 . S
C2631 C2650 1.368 . S
C2631 H2655 0.949 . S
H2632 C2636 0.949 . S
C2633 C2634 1.349 . S
C2633 C2635 1.327 . S
C2633 H2656 0.950 . S
C2634 C2633 1.349 . S
C2634 C2646 1.349 . S
C2635 C2633 1.327 . S
C2635 C2651 1.429 . S
C2635 H2657 0.950 . S
C2636 H2632 0.949 . S
C2636 C2644 1.574 . S
C2636 C2652 1.368 . S
H2637 C2645 0.950 . S
H2638 C2643 0.950 . S
H2639 C2644 0.949 . S
H2640 C2646 0.950 . S
H2641 C2647 0.950 . S
H2642 C2648 0.949 . S
C2643 H2638 0.950 . S
C2643 C2645 1.327 . S
C2643 C2649 1.429 . S
C2644 C2636 1.574 . S
C2644 H2639 0.949 . S
C2644 C2650 1.368 . S
C2645 C2629 1.349 . S
C2645 H2637 0.950 . S
C2645 C2643 1.327 . S
C2646 C2634 1.349 . S
C2646 H2640 0.950 . S
C2646 C2647 1.327 . S
C2647 H2641 0.950 . S
C2647 C2646 1.327 . S
C2647 C2651 1.429 . S
C2648 C2631 1.574 . S
C2648 H2642 0.949 . S
C2648 C2652 1.368 . S
C2649 C2630 1.429 . S
C2649 C2643 1.429 . S
C2649 C2650 1.523 . S
C2650 C2631 1.368 . S
C2650 C2644 1.368 . S
C2650 C2649 1.523 . S
C2651 C2635 1.429 . S
C2651 C2647 1.429 . S
C2651 C2652 1.523 . S
C2652 C2636 1.368 . S
C2652 C2648 1.368 . S
C2652 C2651 1.523 . S
H2653 C2628 0.950 . S
H2654 C2630 0.950 . S
H2655 C2631 0.949 . S
H2656 C2633 0.950 . S
H2657 C2635 0.950 . S
C2658 C2659 1.349 . S
C2658 C2660 1.327 . S
C2658 H2683 0.950 . S
C2659 C2658 1.349 . S
C2659 C2675 1.349 . S
C2660 C2658 1.327 . S
C2660 C2679 1.429 . S
C2660 H2684 0.950 . S
C2661 C2678 1.574 . S
C2661 C2680 1.368 . S
C2661 H2685 0.949 . S
H2662 C2666 0.949 . S
C2663 C2664 1.349 . S
C2663 C2665 1.327 . S
C2663 H2686 0.950 . S
C2664 C2663 1.349 . S
C2664 C2676 1.349 . S
C2665 C2663 1.327 . S
C2665 C2681 1.429 . S
C2665 H2687 0.950 . S
C2666 H2662 0.949 . S
C2666 C2674 1.574 . S
C2666 C2682 1.368 . S
H2667 C2675 0.950 . S
H2668 C2673 0.950 . S
H2669 C2674 0.949 . S
H2670 C2676 0.950 . S
H2671 C2677 0.950 . S
H2672 C2678 0.949 . S
C2673 H2668 0.950 . S
C2673 C2675 1.327 . S
C2673 C2679 1.429 . S
C2674 C2666 1.574 . S
C2674 H2669 0.949 . S
C2674 C2680 1.368 . S
C2675 C2659 1.349 . S
C2675 H2667 0.950 . S
C2675 C2673 1.327 . S
C2676 C2664 1.349 . S
C2676 H2670 0.950 . S
C2676 C2677 1.327 . S
C2677 H2671 0.950 . S
C2677 C2676 1.327 . S
C2677 C2681 1.429 . S
C2678 C2661 1.574 . S
C2678 H2672 0.949 . S
C2678 C2682 1.368 . S
C2679 C2660 1.429 . S
C2679 C2673 1.429 . S
C2679 C2680 1.523 . S
C2680 C2661 1.368 . S
C2680 C2674 1.368 . S
C2680 C2679 1.523 . S
C2681 C2665 1.429 . S
C2681 C2677 1.429 . S
C2681 C2682 1.523 . S
C2682 C2666 1.368 . S
C2682 C2678 1.368 . S
C2682 C2681 1.523 . S
H2683 C2658 0.950 . S
H2684 C2660 0.950 . S
H2685 C2661 0.949 . S
H2686 C2663 0.950 . S
H2687 C2665 0.950 . S
C2688 C2689 1.384 . S
C2688 C2690 1.327 . S
C2688 H2713 0.950 . S
C2689 C2688 1.384 . S
C2689 C2705 1.306 1_556 S
C2690 C2688 1.327 . S
C2690 C2709 1.429 1_556 S
C2690 H2714 0.950 . S
C2691 C2708 1.574 . S
C2691 C2710 1.368 . S
C2691 H2715 0.949 . S
H2692 C2696 0.949 . S
C2693 C2694 1.349 . S
C2693 C2695 1.327 . S
C2693 H2716 0.950 . S
C2694 C2693 1.349 . S
C2694 C2706 1.349 . S
C2695 C2693 1.327 . S
C2695 C2711 1.429 . S
C2695 H2717 0.950 . S
C2696 H2692 0.949 . S
C2696 C2704 1.574 . S
C2696 C2712 1.368 1_556 S
H2697 C2705 0.950 . S
H2698 C2703 0.950 . S
H2699 C2704 0.949 . S
H2700 C2706 0.950 1_556 S
H2701 C2707 0.950 1_556 S
H2702 C2708 0.949 . S
C2703 H2698 0.950 . S
C2703 C2705 1.327 . S
C2703 C2709 1.429 . S
C2704 C2696 1.574 . S
C2704 H2699 0.949 . S
C2704 C2710 1.368 1_556 S
C2705 C2689 1.306 1_554 S
C2705 H2697 0.950 . S
C2705 C2703 1.327 . S
C2706 C2694 1.349 . S
C2706 H2700 0.950 1_554 S
C2706 C2707 1.327 . S
C2707 H2701 0.950 1_554 S
C2707 C2706 1.327 . S
C2707 C2711 1.429 . S
C2708 C2691 1.574 . S
C2708 H2702 0.949 . S
C2708 C2712 1.368 . S
C2709 C2690 1.429 1_554 S
C2709 C2703 1.429 . S
C2709 C2710 1.523 . S
C2710 C2691 1.368 . S
C2710 C2704 1.368 1_554 S
C2710 C2709 1.523 . S
C2711 C2695 1.429 . S
C2711 C2707 1.429 . S
C2711 C2712 1.523 . S
C2712 C2696 1.368 1_554 S
C2712 C2708 1.368 . S
C2712 C2711 1.523 . S
H2713 C2688 0.950 . S
H2714 C2690 0.950 . S
H2715 C2691 0.949 . S
H2716 C2693 0.950 . S
H2717 C2695 0.950 . S
C2718 C2719 1.349 . S
C2718 C2720 1.327 . S
C2718 H2743 0.950 . S
C2719 C2718 1.349 . S
C2719 C2735 1.349 1_554 S
C2720 C2718 1.327 . S
C2720 C2739 1.429 . S
C2720 H2744 0.950 . S
C2721 C2738 1.581 . S
C2721 C2740 1.368 1_556 S
C2721 H2745 0.949 . S
H2722 C2726 0.949 . S
C2723 C2724 1.349 . S
C2723 C2725 1.327 . S
C2723 H2746 0.950 1_554 S
C2724 C2723 1.349 . S
C2724 C2736 1.349 . S
C2725 C2723 1.327 . S
C2725 C2741 1.429 . S
C2725 H2747 0.950 1_554 S
C2726 H2722 0.949 . S
C2726 C2734 1.574 . S
C2726 C2742 1.368 . S
H2727 C2735 0.950 . S
H2728 C2733 0.950 . S
H2729 C2734 0.949 . S
H2730 C2736 0.950 . S
H2731 C2737 0.950 . S
H2732 C2738 0.963 . S
C2733 H2728 0.950 . S
C2733 C2735 1.327 . S
C2733 C2739 1.429 1_556 S
C2734 C2726 1.574 . S
C2734 H2729 0.949 . S
C2734 C2740 1.368 . S
C2735 C2719 1.349 1_556 S
C2735 H2727 0.950 . S
C2735 C2733 1.327 . S
C2736 C2724 1.349 . S
C2736 H2730 0.950 . S
C2736 C2737 1.327 . S
C2737 H2731 0.950 . S
C2737 C2736 1.327 . S
C2737 C2741 1.429 . S
C2738 C2721 1.581 . S
C2738 H2732 0.963 . S
C2738 C2742 1.346 1_556 S
C2739 C2720 1.429 . S
C2739 C2733 1.429 1_554 S
C2739 C2740 1.523 . S
C2740 C2721 1.368 1_554 S
C2740 C2734 1.368 . S
C2740 C2739 1.523 . S
C2741 C2725 1.429 . S
C2741 C2737 1.429 . S
C2741 C2742 1.523 . S
C2742 C2726 1.368 . S
C2742 C2738 1.346 1_554 S
C2742 C2741 1.523 . S
H2743 C2718 0.950 . S
H2744 C2720 0.950 . S
H2745 C2721 0.949 . S
H2746 C2723 0.950 1_556 S
H2747 C2725 0.950 1_556 S
C2748 C2749 1.349 . S
C2748 C2750 1.327 . S
C2748 H2773 0.950 . S
C2749 C2748 1.349 . S
C2749 C2765 1.349 . S
C2750 C2748 1.327 . S
C2750 C2769 1.429 . S
C2750 H2774 0.950 . S
C2751 C2768 1.574 . S
C2751 C2770 1.368 . S
C2751 H2775 0.949 . S
H2752 C2756 0.949 . S
C2753 C2754 1.349 . S
C2753 C2755 1.327 . S
C2753 H2776 0.950 . S
C2754 C2753 1.349 . S
C2754 C2766 1.349 . S
C2755 C2753 1.327 . S
C2755 C2771 1.429 . S
C2755 H2777 0.950 . S
C2756 H2752 0.949 . S
C2756 C2764 1.574 . S
C2756 C2772 1.368 . S
H2757 C2765 0.950 . S
H2758 C2763 0.950 . S
H2759 C2764 0.949 . S
H2760 C2766 0.950 . S
H2761 C2767 0.950 . S
H2762 C2768 0.949 . S
C2763 H2758 0.950 . S
C2763 C2765 1.327 . S
C2763 C2769 1.429 . S
C2764 C2756 1.574 . S
C2764 H2759 0.949 . S
C2764 C2770 1.368 . S
C2765 C2749 1.349 . S
C2765 H2757 0.950 . S
C2765 C2763 1.327 . S
C2766 C2754 1.349 . S
C2766 H2760 0.950 . S
C2766 C2767 1.327 . S
C2767 H2761 0.950 . S
C2767 C2766 1.327 . S
C2767 C2771 1.429 . S
C2768 C2751 1.574 . S
C2768 H2762 0.949 . S
C2768 C2772 1.368 . S
C2769 C2750 1.429 . S
C2769 C2763 1.429 . S
C2769 C2770 1.523 . S
C2770 C2751 1.368 . S
C2770 C2764 1.368 . S
C2770 C2769 1.523 . S
C2771 C2755 1.429 . S
C2771 C2767 1.429 . S
C2771 C2772 1.523 . S
C2772 C2756 1.368 . S
C2772 C2768 1.368 . S
C2772 C2771 1.523 . S
H2773 C2748 0.950 . S
H2774 C2750 0.950 . S
H2775 C2751 0.949 . S
H2776 C2753 0.950 . S
H2777 C2755 0.950 . S
C2778 C2779 1.349 . S
C2778 C2780 1.327 . S
C2778 H2803 0.950 . S
C2779 C2778 1.349 . S
C2779 C2795 1.349 . S
C2780 C2778 1.327 . S
C2780 C2799 1.429 . S
C2780 H2804 0.950 . S
C2781 C2798 1.574 . S
C2781 C2800 1.368 . S
C2781 H2805 0.949 . S
H2782 C2786 0.949 . S
C2783 C2784 1.349 . S
C2783 C2785 1.327 . S
C2783 H2806 0.950 . S
C2784 C2783 1.349 . S
C2784 C2796 1.349 . S
C2785 C2783 1.327 . S
C2785 C2801 1.429 . S
C2785 H2807 0.950 . S
C2786 H2782 0.949 . S
C2786 C2794 1.574 . S
C2786 C2802 1.368 . S
H2787 C2795 0.950 . S
H2788 C2793 0.950 . S
H2789 C2794 0.949 . S
H2790 C2796 0.950 . S
H2791 C2797 0.950 . S
H2792 C2798 0.949 . S
C2793 H2788 0.950 . S
C2793 C2795 1.327 . S
C2793 C2799 1.429 . S
C2794 C2786 1.574 . S
C2794 H2789 0.949 . S
C2794 C2800 1.368 . S
C2795 C2779 1.349 . S
C2795 H2787 0.950 . S
C2795 C2793 1.327 . S
C2796 C2784 1.349 . S
C2796 H2790 0.950 . S
C2796 C2797 1.327 . S
C2797 H2791 0.950 . S
C2797 C2796 1.327 . S
C2797 C2801 1.429 . S
C2798 C2781 1.574 . S
C2798 H2792 0.949 . S
C2798 C2802 1.368 . S
C2799 C2780 1.429 . S
C2799 C2793 1.429 . S
C2799 C2800 1.523 . S
C2800 C2781 1.368 . S
C2800 C2794 1.368 . S
C2800 C2799 1.523 . S
C2801 C2785 1.429 . S
C2801 C2797 1.429 . S
C2801 C2802 1.523 . S
C2802 C2786 1.368 . S
C2802 C2798 1.368 . S
C2802 C2801 1.523 . S
H2803 C2778 0.950 . S
H2804 C2780 0.950 . S
H2805 C2781 0.949 . S
H2806 C2783 0.950 . S
H2807 C2785 0.950 . S
C2808 C2809 1.349 . S
C2808 C2810 1.327 . S
C2808 H2833 0.950 . S
C2809 C2808 1.349 . S
C2809 C2825 1.349 . S
C2810 C2808 1.327 . S
C2810 C2829 1.429 . S
C2810 H2834 0.950 . S
C2811 C2828 1.574 . S
C2811 C2830 1.368 . S
C2811 H2835 0.949 . S
H2812 C2816 0.949 . S
C2813 C2814 1.349 . S
C2813 C2815 1.327 . S
C2813 H2836 0.950 . S
C2814 C2813 1.349 . S
C2814 C2826 1.349 . S
C2815 C2813 1.327 . S
C2815 C2831 1.429 . S
C2815 H2837 0.950 . S
C2816 H2812 0.949 . S
C2816 C2824 1.574 . S
C2816 C2832 1.368 . S
H2817 C2825 0.950 . S
H2818 C2823 0.950 . S
H2819 C2824 0.949 . S
H2820 C2826 0.950 . S
H2821 C2827 0.950 . S
H2822 C2828 0.949 . S
C2823 H2818 0.950 . S
C2823 C2825 1.327 . S
C2823 C2829 1.429 . S
C2824 C2816 1.574 . S
C2824 H2819 0.949 . S
C2824 C2830 1.368 . S
C2825 C2809 1.349 . S
C2825 H2817 0.950 . S
C2825 C2823 1.327 . S
C2826 C2814 1.349 . S
C2826 H2820 0.950 . S
C2826 C2827 1.327 . S
C2827 H2821 0.950 . S
C2827 C2826 1.327 . S
C2827 C2831 1.429 . S
C2828 C2811 1.574 . S
C2828 H2822 0.949 . S
C2828 C2832 1.368 . S
C2829 C2810 1.429 . S
C2829 C2823 1.429 . S
C2829 C2830 1.523 . S
C2830 C2811 1.368 . S
C2830 C2824 1.368 . S
C2830 C2829 1.523 . S
C2831 C2815 1.429 . S
C2831 C2827 1.429 . S
C2831 C2832 1.523 . S
C2832 C2816 1.368 . S
C2832 C2828 1.368 . S
C2832 C2831 1.523 . S
H2833 C2808 0.950 . S
H2834 C2810 0.950 . S
H2835 C2811 0.949 . S
H2836 C2813 0.950 . S
H2837 C2815 0.950 . S
C2838 C2839 1.349 . S
C2838 C2840 1.327 . S
C2838 H2863 0.950 . S
C2839 C2838 1.349 . S
C2839 C2855 1.349 . S
C2840 C2838 1.327 . S
C2840 C2859 1.429 . S
C2840 H2864 0.950 . S
C2841 C2858 1.574 . S
C2841 C2860 1.368 . S
C2841 H2865 0.949 . S
H2842 C2846 0.949 . S
C2843 C2844 1.349 . S
C2843 C2845 1.327 . S
C2843 H2866 0.950 . S
C2844 C2843 1.349 . S
C2844 C2856 1.349 . S
C2845 C2843 1.327 . S
C2845 C2861 1.429 . S
C2845 H2867 0.950 . S
C2846 H2842 0.949 . S
C2846 C2854 1.574 . S
C2846 C2862 1.368 . S
H2847 C2855 0.950 . S
H2848 C2853 0.950 . S
H2849 C2854 0.949 . S
H2850 C2856 0.950 . S
H2851 C2857 0.950 . S
H2852 C2858 0.949 . S
C2853 H2848 0.950 . S
C2853 C2855 1.327 . S
C2853 C2859 1.429 . S
C2854 C2846 1.574 . S
C2854 H2849 0.949 . S
C2854 C2860 1.368 . S
C2855 C2839 1.349 . S
C2855 H2847 0.950 . S
C2855 C2853 1.327 . S
C2856 C2844 1.349 . S
C2856 H2850 0.950 . S
C2856 C2857 1.327 . S
C2857 H2851 0.950 . S
C2857 C2856 1.327 . S
C2857 C2861 1.429 . S
C2858 C2841 1.574 . S
C2858 H2852 0.949 . S
C2858 C2862 1.368 . S
C2859 C2840 1.429 . S
C2859 C2853 1.429 . S
C2859 C2860 1.523 . S
C2860 C2841 1.368 . S
C2860 C2854 1.368 . S
C2860 C2859 1.523 . S
C2861 C2845 1.429 . S
C2861 C2857 1.429 . S
C2861 C2862 1.523 . S
C2862 C2846 1.368 . S
C2862 C2858 1.368 . S
C2862 C2861 1.523 . S
H2863 C2838 0.950 . S
H2864 C2840 0.950 . S
H2865 C2841 0.949 . S
H2866 C2843 0.950 . S
H2867 C2845 0.950 . S
C2868 C2869 1.349 . S
C2868 C2870 1.327 . S
C2868 H2893 0.950 . S
C2869 C2868 1.349 . S
C2869 C2885 1.349 . S
C2870 C2868 1.327 . S
C2870 C2889 1.429 . S
C2870 H2894 0.950 . S
C2871 C2888 1.574 . S
C2871 C2890 1.368 . S
C2871 H2895 0.949 . S
H2872 C2876 0.949 . S
C2873 C2874 1.349 . S
C2873 C2875 1.327 . S
C2873 H2896 0.950 . S
C2874 C2873 1.349 . S
C2874 C2886 1.349 . S
C2875 C2873 1.327 . S
C2875 C2891 1.429 . S
C2875 H2897 0.950 . S
C2876 H2872 0.949 . S
C2876 C2884 1.574 . S
C2876 C2892 1.368 . S
H2877 C2885 0.950 . S
H2878 C2883 0.950 . S
H2879 C2884 0.949 . S
H2880 C2886 0.950 . S
H2881 C2887 0.950 . S
H2882 C2888 0.949 . S
C2883 H2878 0.950 . S
C2883 C2885 1.327 . S
C2883 C2889 1.429 . S
C2884 C2876 1.574 . S
C2884 H2879 0.949 . S
C2884 C2890 1.368 . S
C2885 C2869 1.349 . S
C2885 H2877 0.950 . S
C2885 C2883 1.327 . S
C2886 C2874 1.349 . S
C2886 H2880 0.950 . S
C2886 C2887 1.327 . S
C2887 H2881 0.950 . S
C2887 C2886 1.327 . S
C2887 C2891 1.429 . S
C2888 C2871 1.574 . S
C2888 H2882 0.949 . S
C2888 C2892 1.368 . S
C2889 C2870 1.429 . S
C2889 C2883 1.429 . S
C2889 C2890 1.523 . S
C2890 C2871 1.368 . S
C2890 C2884 1.368 . S
C2890 C2889 1.523 . S
C2891 C2875 1.429 . S
C2891 C2887 1.429 . S
C2891 C2892 1.523 . S
C2892 C2876 1.368 . S
C2892 C2888 1.368 . S
C2892 C2891 1.523 . S
H2893 C2868 0.950 . S
H2894 C2870 0.950 . S
H2895 C2871 0.949 . S
H2896 C2873 0.950 . S
H2897 C2875 0.950 . S
C2898 C2899 1.349 . S
C2898 C2900 1.327 . S
C2898 H2923 0.950 . S
C2899 C2898 1.349 . S
C2899 C2915 1.349 . S
C2900 C2898 1.327 . S
C2900 C2919 1.429 . S
C2900 H2924 0.950 . S
C2901 C2918 1.574 . S
C2901 C2920 1.368 . S
C2901 H2925 0.949 . S
H2902 C2906 0.949 . S
C2903 C2904 1.349 . S
C2903 C2905 1.327 . S
C2903 H2926 0.950 . S
C2904 C2903 1.349 . S
C2904 C2916 1.349 . S
C2905 C2903 1.327 . S
C2905 C2921 1.429 . S
C2905 H2927 0.950 . S
C2906 H2902 0.949 . S
C2906 C2914 1.574 . S
C2906 C2922 1.368 . S
H2907 C2915 0.950 . S
H2908 C2913 0.950 . S
H2909 C2914 0.949 . S
H2910 C2916 0.950 . S
H2911 C2917 0.950 . S
H2912 C2918 0.949 . S
C2913 H2908 0.950 . S
C2913 C2915 1.327 . S
C2913 C2919 1.429 . S
C2914 C2906 1.574 . S
C2914 H2909 0.949 . S
C2914 C2920 1.368 . S
C2915 C2899 1.349 . S
C2915 H2907 0.950 . S
C2915 C2913 1.327 . S
C2916 C2904 1.349 . S
C2916 H2910 0.950 . S
C2916 C2917 1.327 . S
C2917 H2911 0.950 . S
C2917 C2916 1.327 . S
C2917 C2921 1.429 . S
C2918 C2901 1.574 . S
C2918 H2912 0.949 . S
C2918 C2922 1.368 . S
C2919 C2900 1.429 . S
C2919 C2913 1.429 . S
C2919 C2920 1.523 . S
C2920 C2901 1.368 . S
C2920 C2914 1.368 . S
C2920 C2919 1.523 . S
C2921 C2905 1.429 . S
C2921 C2917 1.429 . S
C2921 C2922 1.523 . S
C2922 C2906 1.368 . S
C2922 C2918 1.368 . S
C2922 C2921 1.523 . S
H2923 C2898 0.950 . S
H2924 C2900 0.950 . S
H2925 C2901 0.949 . S
H2926 C2903 0.950 . S
H2927 C2905 0.950 . S
C2928 C2929 1.349 . S
C2928 C2930 1.327 . S
C2928 H2953 0.950 . S
C2929 C2928 1.349 . S
C2929 C2945 1.349 . S
C2930 C2928 1.327 . S
C2930 C2949 1.429 . S
C2930 H2954 0.950 . S
C2931 C2948 1.574 . S
C2931 C2950 1.368 . S
C2931 H2955 0.949 . S
H2932 C2936 0.949 . S
C2933 C2934 1.349 . S
C2933 C2935 1.327 . S
C2933 H2956 0.950 . S
C2934 C2933 1.349 . S
C2934 C2946 1.349 . S
C2935 C2933 1.327 . S
C2935 C2951 1.429 . S
C2935 H2957 0.950 . S
C2936 H2932 0.949 . S
C2936 C2944 1.574 . S
C2936 C2952 1.368 . S
H2937 C2945 0.950 . S
H2938 C2943 0.950 . S
H2939 C2944 0.949 . S
H2940 C2946 0.950 . S
H2941 C2947 0.950 . S
H2942 C2948 0.949 . S
C2943 H2938 0.950 . S
C2943 C2945 1.327 . S
C2943 C2949 1.429 . S
C2944 C2936 1.574 . S
C2944 H2939 0.949 . S
C2944 C2950 1.368 . S
C2945 C2929 1.349 . S
C2945 H2937 0.950 . S
C2945 C2943 1.327 . S
C2946 C2934 1.349 . S
C2946 H2940 0.950 . S
C2946 C2947 1.327 . S
C2947 H2941 0.950 . S
C2947 C2946 1.327 . S
C2947 C2951 1.429 . S
C2948 C2931 1.574 . S
C2948 H2942 0.949 . S
C2948 C2952 1.368 . S
C2949 C2930 1.429 . S
C2949 C2943 1.429 . S
C2949 C2950 1.523 . S
C2950 C2931 1.368 . S
C2950 C2944 1.368 . S
C2950 C2949 1.523 . S
C2951 C2935 1.429 . S
C2951 C2947 1.429 . S
C2951 C2952 1.523 . S
C2952 C2936 1.368 . S
C2952 C2948 1.368 . S
C2952 C2951 1.523 . S
H2953 C2928 0.950 . S
H2954 C2930 0.950 . S
H2955 C2931 0.949 . S
H2956 C2933 0.950 . S
H2957 C2935 0.950 . S
C2958 C2959 1.349 . S
C2958 C2960 1.327 . S
C2958 H2983 0.950 . S
C2959 C2958 1.349 . S
C2959 C2975 1.349 . S
C2960 C2958 1.327 . S
C2960 C2979 1.429 . S
C2960 H2984 0.950 . S
C2961 C2978 1.574 . S
C2961 C2980 1.368 . S
C2961 H2985 0.949 . S
H2962 C2966 0.949 . S
C2963 C2964 1.349 . S
C2963 C2965 1.327 . S
C2963 H2986 0.950 . S
C2964 C2963 1.349 . S
C2964 C2976 1.349 . S
C2965 C2963 1.327 . S
C2965 C2981 1.429 . S
C2965 H2987 0.950 . S
C2966 H2962 0.949 . S
C2966 C2974 1.574 . S
C2966 C2982 1.368 . S
H2967 C2975 0.950 . S
H2968 C2973 0.950 . S
H2969 C2974 0.949 . S
H2970 C2976 0.950 . S
H2971 C2977 0.950 . S
H2972 C2978 0.949 . S
C2973 H2968 0.950 . S
C2973 C2975 1.327 . S
C2973 C2979 1.429 . S
C2974 C2966 1.574 . S
C2974 H2969 0.949 . S
C2974 C2980 1.368 . S
C2975 C2959 1.349 . S
C2975 H2967 0.950 . S
C2975 C2973 1.327 . S
C2976 C2964 1.349 . S
C2976 H2970 0.950 . S
C2976 C2977 1.327 . S
C2977 H2971 0.950 . S
C2977 C2976 1.327 . S
C2977 C2981 1.429 . S
C2978 C2961 1.574 . S
C2978 H2972 0.949 . S
C2978 C2982 1.368 . S
C2979 C2960 1.429 . S
C2979 C2973 1.429 . S
C2979 C2980 1.523 . S
C2980 C2961 1.368 . S
C2980 C2974 1.368 . S
C2980 C2979 1.523 . S
C2981 C2965 1.429 . S
C2981 C2977 1.429 . S
C2981 C2982 1.523 . S
C2982 C2966 1.368 . S
C2982 C2978 1.368 . S
C2982 C2981 1.523 . S
H2983 C2958 0.950 . S
H2984 C2960 0.950 . S
H2985 C2961 0.949 . S
H2986 C2963 0.950 . S
H2987 C2965 0.950 . S
C2988 C2989 1.349 . S
C2988 C2990 1.327 . S
C2988 H3013 0.950 . S
C2989 C2988 1.349 . S
C2989 C3005 1.349 . S
C2990 C2988 1.327 . S
C2990 C3009 1.429 . S
C2990 H3014 0.950 . S
C2991 C3008 1.574 . S
C2991 C3010 1.368 . S
C2991 H3015 0.949 . S
H2992 C2996 0.949 . S
C2993 C2994 1.349 . S
C2993 C2995 1.327 . S
C2993 H3016 0.950 . S
C2994 C2993 1.349 . S
C2994 C3006 1.349 . S
C2995 C2993 1.327 . S
C2995 C3011 1.429 . S
C2995 H3017 0.950 . S
C2996 H2992 0.949 . S
C2996 C3004 1.574 . S
C2996 C3012 1.368 . S
H2997 C3005 0.950 . S
H2998 C3003 0.950 . S
H2999 C3004 0.949 . S
H3000 C3006 0.950 . S
H3001 C3007 0.950 . S
H3002 C3008 0.949 . S
C3003 H2998 0.950 . S
C3003 C3005 1.327 . S
C3003 C3009 1.429 . S
C3004 C2996 1.574 . S
C3004 H2999 0.949 . S
C3004 C3010 1.368 . S
C3005 C2989 1.349 . S
C3005 H2997 0.950 . S
C3005 C3003 1.327 . S
C3006 C2994 1.349 . S
C3006 H3000 0.950 . S
C3006 C3007 1.327 . S
C3007 H3001 0.950 . S
C3007 C3006 1.327 . S
C3007 C3011 1.429 . S
C3008 C2991 1.574 . S
C3008 H3002 0.949 . S
C3008 C3012 1.368 . S
C3009 C2990 1.429 . S
C3009 C3003 1.429 . S
C3009 C3010 1.523 . S
C3010 C2991 1.368 . S
C3010 C3004 1.368 . S
C3010 C3009 1.523 . S
C3011 C2995 1.429 . S
C3011 C3007 1.429 . S
C3011 C3012 1.523 . S
C3012 C2996 1.368 . S
C3012 C3008 1.368 . S
C3012 C3011 1.523 . S
H3013 C2988 0.950 . S
H3014 C2990 0.950 . S
H3015 C2991 0.949 . S
H3016 C2993 0.950 . S
H3017 C2995 0.950 . S
C3018 C3019 1.349 . S
C3018 C3020 1.327 . S
C3018 H3043 0.950 . S
C3019 C3018 1.349 . S
C3019 C3035 1.349 . S
C3020 C3018 1.327 . S
C3020 C3039 1.429 . S
C3020 H3044 0.950 . S
C3021 C3038 1.574 . S
C3021 C3040 1.368 . S
C3021 H3045 0.949 . S
H3022 C3026 0.949 . S
C3023 C3024 1.349 . S
C3023 C3025 1.327 . S
C3023 H3046 0.950 . S
C3024 C3023 1.349 . S
C3024 C3036 1.349 . S
C3025 C3023 1.327 . S
C3025 C3041 1.429 . S
C3025 H3047 0.950 . S
C3026 H3022 0.949 . S
C3026 C3034 1.574 . S
C3026 C3042 1.368 . S
H3027 C3035 0.950 . S
H3028 C3033 0.950 . S
H3029 C3034 0.949 . S
H3030 C3036 0.950 . S
H3031 C3037 0.950 . S
H3032 C3038 0.949 . S
C3033 H3028 0.950 . S
C3033 C3035 1.327 . S
C3033 C3039 1.429 . S
C3034 C3026 1.574 . S
C3034 H3029 0.949 . S
C3034 C3040 1.368 . S
C3035 C3019 1.349 . S
C3035 H3027 0.950 . S
C3035 C3033 1.327 . S
C3036 C3024 1.349 . S
C3036 H3030 0.950 . S
C3036 C3037 1.327 . S
C3037 H3031 0.950 . S
C3037 C3036 1.327 . S
C3037 C3041 1.429 . S
C3038 C3021 1.574 . S
C3038 H3032 0.949 . S
C3038 C3042 1.368 . S
C3039 C3020 1.429 . S
C3039 C3033 1.429 . S
C3039 C3040 1.523 . S
C3040 C3021 1.368 . S
C3040 C3034 1.368 . S
C3040 C3039 1.523 . S
C3041 C3025 1.429 . S
C3041 C3037 1.429 . S
C3041 C3042 1.523 . S
C3042 C3026 1.368 . S
C3042 C3038 1.368 . S
C3042 C3041 1.523 . S
H3043 C3018 0.950 . S
H3044 C3020 0.950 . S
H3045 C3021 0.949 . S
H3046 C3023 0.950 . S
H3047 C3025 0.950 . S
C3048 C3049 1.349 . S
C3048 C3050 1.327 . S
C3048 H3073 0.950 . S
C3049 C3048 1.349 . S
C3049 C3065 1.349 . S
C3050 C3048 1.327 . S
C3050 C3069 1.429 . S
C3050 H3074 0.950 . S
C3051 C3068 1.574 . S
C3051 C3070 1.368 . S
C3051 H3075 0.949 . S
H3052 C3056 0.949 . S
C3053 C3054 1.349 . S
C3053 C3055 1.327 . S
C3053 H3076 0.913 1_455 S
C3054 C3053 1.349 . S
C3054 C3066 1.349 . S
C3055 C3053 1.327 . S
C3055 C3071 1.429 . S
C3055 H3077 0.951 . S
C3056 H3052 0.949 . S
C3056 C3064 1.574 . S
C3056 C3072 1.368 . S
H3057 C3065 0.950 . S
H3058 C3063 0.950 . S
H3059 C3064 0.949 . S
H3060 C3066 0.950 . S
H3061 C3067 0.950 . S
H3062 C3068 0.949 . S
C3063 H3058 0.950 . S
C3063 C3065 1.327 . S
C3063 C3069 1.429 . S
C3064 C3056 1.574 . S
C3064 H3059 0.949 . S
C3064 C3070 1.368 . S
C3065 C3049 1.349 . S
C3065 H3057 0.950 . S
C3065 C3063 1.327 . S
C3066 C3054 1.349 . S
C3066 H3060 0.950 . S
C3066 C3067 1.327 . S
C3067 H3061 0.950 . S
C3067 C3066 1.327 . S
C3067 C3071 1.429 . S
C3068 C3051 1.574 . S
C3068 H3062 0.949 . S
C3068 C3072 1.368 . S
C3069 C3050 1.429 . S
C3069 C3063 1.429 . S
C3069 C3070 1.523 . S
C3070 C3051 1.368 . S
C3070 C3064 1.368 . S
C3070 C3069 1.523 . S
C3071 C3055 1.429 . S
C3071 C3067 1.429 . S
C3071 C3072 1.523 . S
C3072 C3056 1.368 . S
C3072 C3068 1.368 . S
C3072 C3071 1.523 . S
H3073 C3048 0.950 . S
H3074 C3050 0.950 . S
H3075 C3051 0.949 . S
H3076 C3053 0.913 1_655 S
H3077 C3055 0.951 . S
C3078 C3079 1.349 . S
C3078 C3080 1.327 . S
C3078 H3103 0.950 . S
C3079 C3078 1.349 . S
C3079 C3095 1.349 . S
C3080 C3078 1.327 . S
C3080 C3099 1.429 . S
C3080 H3104 0.950 . S
C3081 C3098 1.574 . S
C3081 C3100 1.368 . S
C3081 H3105 0.949 . S
H3082 C3086 0.949 . S
C3083 C3084 1.349 . S
C3083 C3085 1.327 . S
C3083 H3106 0.950 . S
C3084 C3083 1.349 . S
C3084 C3096 1.349 . S
C3085 C3083 1.327 . S
C3085 C3101 1.429 . S
C3085 H3107 0.950 . S
C3086 H3082 0.949 . S
C3086 C3094 1.574 . S
C3086 C3102 1.368 . S
H3087 C3095 0.950 . S
H3088 C3093 0.950 . S
H3089 C3094 0.949 . S
H3090 C3096 0.950 . S
H3091 C3097 0.950 . S
H3092 C3098 0.949 . S
C3093 H3088 0.950 . S
C3093 C3095 1.327 . S
C3093 C3099 1.429 . S
C3094 C3086 1.574 . S
C3094 H3089 0.949 . S
C3094 C3100 1.368 . S
C3095 C3079 1.349 . S
C3095 H3087 0.950 . S
C3095 C3093 1.327 . S
C3096 C3084 1.349 . S
C3096 H3090 0.950 . S
C3096 C3097 1.327 . S
C3097 H3091 0.950 . S
C3097 C3096 1.327 . S
C3097 C3101 1.429 . S
C3098 C3081 1.574 . S
C3098 H3092 0.949 . S
C3098 C3102 1.368 . S
C3099 C3080 1.429 . S
C3099 C3093 1.429 . S
C3099 C3100 1.523 . S
C3100 C3081 1.368 . S
C3100 C3094 1.368 . S
C3100 C3099 1.523 . S
C3101 C3085 1.429 . S
C3101 C3097 1.429 . S
C3101 C3102 1.523 . S
C3102 C3086 1.368 . S
C3102 C3098 1.368 . S
C3102 C3101 1.523 . S
H3103 C3078 0.950 . S
H3104 C3080 0.950 . S
H3105 C3081 0.949 . S
H3106 C3083 0.950 . S
H3107 C3085 0.950 . S
C3108 C3109 1.349 . S
C3108 C3110 1.327 . S
C3108 H3133 0.950 . S
C3109 C3108 1.349 . S
C3109 C3125 1.349 . S
C3110 C3108 1.327 . S
C3110 C3129 1.429 . S
C3110 H3134 0.950 . S
C3111 C3128 1.574 . S
C3111 C3130 1.368 . S
C3111 H3135 0.949 . S
H3112 C3116 0.949 . S
C3113 C3114 1.349 . S
C3113 C3115 1.327 . S
C3113 H3136 0.950 . S
C3114 C3113 1.349 . S
C3114 C3126 1.349 . S
C3115 C3113 1.327 . S
C3115 C3131 1.429 . S
C3115 H3137 0.950 . S
C3116 H3112 0.949 . S
C3116 C3124 1.574 . S
C3116 C3132 1.368 . S
H3117 C3125 0.950 . S
H3118 C3123 0.950 . S
H3119 C3124 0.949 . S
H3120 C3126 0.950 . S
H3121 C3127 0.950 . S
H3122 C3128 0.949 . S
C3123 H3118 0.950 . S
C3123 C3125 1.327 . S
C3123 C3129 1.429 . S
C3124 C3116 1.574 . S
C3124 H3119 0.949 . S
C3124 C3130 1.368 . S
C3125 C3109 1.349 . S
C3125 H3117 0.950 . S
C3125 C3123 1.327 . S
C3126 C3114 1.349 . S
C3126 H3120 0.950 . S
C3126 C3127 1.327 . S
C3127 H3121 0.950 . S
C3127 C3126 1.327 . S
C3127 C3131 1.429 . S
C3128 C3111 1.574 . S
C3128 H3122 0.949 . S
C3128 C3132 1.368 . S
C3129 C3110 1.429 . S
C3129 C3123 1.429 . S
C3129 C3130 1.523 . S
C3130 C3111 1.368 . S
C3130 C3124 1.368 . S
C3130 C3129 1.523 . S
C3131 C3115 1.429 . S
C3131 C3127 1.429 . S
C3131 C3132 1.523 . S
C3132 C3116 1.368 . S
C3132 C3128 1.368 . S
C3132 C3131 1.523 . S
H3133 C3108 0.950 . S
H3134 C3110 0.950 . S
H3135 C3111 0.949 . S
H3136 C3113 0.950 . S
H3137 C3115 0.950 . S
C3138 C3139 1.349 . S
C3138 C3140 1.327 . S
C3138 H3163 0.950 . S
C3139 C3138 1.349 . S
C3139 C3155 1.349 . S
C3140 C3138 1.327 . S
C3140 C3159 1.429 . S
C3140 H3164 0.950 . S
C3141 C3158 1.574 . S
C3141 C3160 1.368 . S
C3141 H3165 0.949 . S
H3142 C3146 0.949 . S
C3143 C3144 1.349 . S
C3143 C3145 1.327 . S
C3143 H3166 0.950 . S
C3144 C3143 1.349 . S
C3144 C3156 1.349 . S
C3145 C3143 1.327 . S
C3145 C3161 1.429 . S
C3145 H3167 0.950 . S
C3146 H3142 0.949 . S
C3146 C3154 1.574 . S
C3146 C3162 1.368 . S
H3147 C3155 0.950 . S
H3148 C3153 0.950 . S
H3149 C3154 0.949 . S
H3150 C3156 0.950 . S
H3151 C3157 0.950 . S
H3152 C3158 0.949 . S
C3153 H3148 0.950 . S
C3153 C3155 1.327 . S
C3153 C3159 1.429 . S
C3154 C3146 1.574 . S
C3154 H3149 0.949 . S
C3154 C3160 1.368 . S
C3155 C3139 1.349 . S
C3155 H3147 0.950 . S
C3155 C3153 1.327 . S
C3156 C3144 1.349 . S
C3156 H3150 0.950 . S
C3156 C3157 1.327 . S
C3157 H3151 0.950 . S
C3157 C3156 1.327 . S
C3157 C3161 1.429 . S
C3158 C3141 1.574 . S
C3158 H3152 0.949 . S
C3158 C3162 1.368 . S
C3159 C3140 1.429 . S
C3159 C3153 1.429 . S
C3159 C3160 1.523 . S
C3160 C3141 1.368 . S
C3160 C3154 1.368 . S
C3160 C3159 1.523 . S
C3161 C3145 1.429 . S
C3161 C3157 1.429 . S
C3161 C3162 1.523 . S
C3162 C3146 1.368 . S
C3162 C3158 1.368 . S
C3162 C3161 1.523 . S
H3163 C3138 0.950 . S
H3164 C3140 0.950 . S
H3165 C3141 0.949 . S
H3166 C3143 0.950 . S
H3167 C3145 0.950 . S
C3168 C3169 1.349 . S
C3168 C3170 1.327 . S
C3168 H3193 0.950 . S
C3169 C3168 1.349 . S
C3169 C3185 1.349 . S
C3170 C3168 1.327 . S
C3170 C3189 1.429 . S
C3170 H3194 0.950 . S
C3171 C3188 1.574 . S
C3171 C3190 1.368 . S
C3171 H3195 0.949 . S
H3172 C3176 0.949 . S
C3173 C3174 1.349 . S
C3173 C3175 1.327 . S
C3173 H3196 0.950 1_545 S
C3174 C3173 1.349 . S
C3174 C3186 1.349 . S
C3175 C3173 1.327 . S
C3175 C3191 1.429 . S
C3175 H3197 0.950 1_545 S
C3176 H3172 0.949 . S
C3176 C3184 1.574 . S
C3176 C3192 1.368 . S
H3177 C3185 0.950 . S
H3178 C3183 0.950 . S
H3179 C3184 0.949 . S
H3180 C3186 0.950 . S
H3181 C3187 0.950 . S
H3182 C3188 0.949 1_565 S
C3183 H3178 0.950 . S
C3183 C3185 1.327 . S
C3183 C3189 1.429 . S
C3184 C3176 1.574 . S
C3184 H3179 0.949 . S
C3184 C3190 1.368 . S
C3185 C3169 1.349 . S
C3185 H3177 0.950 . S
C3185 C3183 1.327 . S
C3186 C3174 1.349 . S
C3186 H3180 0.950 . S
C3186 C3187 1.327 . S
C3187 H3181 0.950 . S
C3187 C3186 1.327 . S
C3187 C3191 1.429 . S
C3188 C3171 1.574 . S
C3188 H3182 0.949 1_545 S
C3188 C3192 1.368 . S
C3189 C3170 1.429 . S
C3189 C3183 1.429 . S
C3189 C3190 1.523 . S
C3190 C3171 1.368 . S
C3190 C3184 1.368 . S
C3190 C3189 1.523 . S
C3191 C3175 1.429 . S
C3191 C3187 1.429 . S
C3191 C3192 1.523 . S
C3192 C3176 1.368 . S
C3192 C3188 1.368 . S
C3192 C3191 1.523 . S
H3193 C3168 0.950 . S
H3194 C3170 0.950 . S
H3195 C3171 0.949 . S
H3196 C3173 0.950 1_565 S
H3197 C3175 0.950 1_565 S
C3198 C3199 1.349 . S
C3198 C3200 1.327 . S
C3198 H3223 0.950 . S
C3199 C3198 1.349 . S
C3199 C3215 1.349 . S
C3200 C3198 1.327 . S
C3200 C3219 1.429 . S
C3200 H3224 0.950 . S
C3201 C3218 1.574 . S
C3201 C3220 1.368 . S
C3201 H3225 0.949 . S
H3202 C3206 0.949 . S
C3203 C3204 1.349 . S
C3203 C3205 1.327 . S
C3203 H3226 0.950 . S
C3204 C3203 1.349 . S
C3204 C3216 1.349 . S
C3205 C3203 1.327 . S
C3205 C3221 1.429 . S
C3205 H3227 0.950 . S
C3206 H3202 0.949 . S
C3206 C3214 1.574 . S
C3206 C3222 1.368 . S
H3207 C3215 0.950 . S
H3208 C3213 0.950 . S
H3209 C3214 0.949 . S
H3210 C3216 0.950 . S
H3211 C3217 0.950 . S
H3212 C3218 0.949 . S
C3213 H3208 0.950 . S
C3213 C3215 1.327 . S
C3213 C3219 1.429 . S
C3214 C3206 1.574 . S
C3214 H3209 0.949 . S
C3214 C3220 1.368 . S
C3215 C3199 1.349 . S
C3215 H3207 0.950 . S
C3215 C3213 1.327 . S
C3216 C3204 1.349 . S
C3216 H3210 0.950 . S
C3216 C3217 1.327 . S
C3217 H3211 0.950 . S
C3217 C3216 1.327 . S
C3217 C3221 1.429 . S
C3218 C3201 1.574 . S
C3218 H3212 0.949 . S
C3218 C3222 1.368 . S
C3219 C3200 1.429 . S
C3219 C3213 1.429 . S
C3219 C3220 1.523 . S
C3220 C3201 1.368 . S
C3220 C3214 1.368 . S
C3220 C3219 1.523 . S
C3221 C3205 1.429 . S
C3221 C3217 1.429 . S
C3221 C3222 1.523 . S
C3222 C3206 1.368 . S
C3222 C3218 1.368 . S
C3222 C3221 1.523 . S
H3223 C3198 0.950 . S
H3224 C3200 0.950 . S
H3225 C3201 0.949 . S
H3226 C3203 0.950 . S
H3227 C3205 0.950 . S
C3228 C3229 1.349 . S
C3228 C3230 1.327 . S
C3228 H3253 0.950 1_545 S
C3229 C3228 1.349 . S
C3229 C3245 1.349 . S
C3230 C3228 1.327 . S
C3230 C3249 1.429 . S
C3230 H3254 0.950 1_545 S
C3231 C3248 1.574 . S
C3231 C3250 1.368 . S
C3231 H3255 0.949 . S
H3232 C3236 0.949 . S
C3233 C3234 1.349 . S
C3233 C3235 1.327 . S
C3233 H3256 0.950 . S
C3234 C3233 1.349 . S
C3234 C3246 1.349 . S
C3235 C3233 1.327 . S
C3235 C3251 1.429 . S
C3235 H3257 0.950 . S
C3236 H3232 0.949 . S
C3236 C3244 1.574 . S
C3236 C3252 1.368 . S
H3237 C3245 0.950 . S
H3238 C3243 0.950 . S
H3239 C3244 0.922 1_565 S
H3240 C3246 0.950 . S
H3241 C3247 0.950 . S
H3242 C3248 0.949 . S
C3243 H3238 0.950 . S
C3243 C3245 1.327 . S
C3243 C3249 1.429 . S
C3244 C3236 1.574 . S
C3244 H3239 0.922 1_545 S
C3244 C3250 1.368 . S
C3245 C3229 1.349 . S
C3245 H3237 0.950 . S
C3245 C3243 1.327 . S
C3246 C3234 1.349 . S
C3246 H3240 0.950 . S
C3246 C3247 1.327 . S
C3247 H3241 0.950 . S
C3247 C3246 1.327 . S
C3247 C3251 1.429 . S
C3248 C3231 1.574 . S
C3248 H3242 0.949 . S
C3248 C3252 1.368 . S
C3249 C3230 1.429 . S
C3249 C3243 1.429 . S
C3249 C3250 1.523 . S
C3250 C3231 1.368 . S
C3250 C3244 1.368 . S
C3250 C3249 1.523 . S
C3251 C3235 1.429 . S
C3251 C3247 1.429 . S
C3251 C3252 1.523 . S
C3252 C3236 1.368 . S
C3252 C3248 1.368 . S
C3252 C3251 1.523 . S
H3253 C3228 0.950 1_565 S
H3254 C3230 0.950 1_565 S
H3255 C3231 0.949 . S
H3256 C3233 0.950 . S
H3257 C3235 0.950 . S
C3258 C3259 1.349 . S
C3258 C3260 1.327 . S
C3258 H3283 0.950 . S
C3259 C3258 1.349 . S
C3259 C3275 1.349 . S
C3260 C3258 1.327 . S
C3260 C3279 1.429 . S
C3260 H3284 0.950 . S
C3261 C3278 1.574 . S
C3261 C3280 1.368 . S
C3261 H3285 0.949 . S
H3262 C3266 0.949 . S
C3263 C3264 1.349 . S
C3263 C3265 1.327 . S
C3263 H3286 0.950 . S
C3264 C3263 1.349 . S
C3264 C3276 1.349 . S
C3265 C3263 1.327 . S
C3265 C3281 1.429 . S
C3265 H3287 0.950 . S
C3266 H3262 0.949 . S
C3266 C3274 1.574 . S
C3266 C3282 1.368 . S
H3267 C3275 0.950 . S
H3268 C3273 0.950 . S
H3269 C3274 0.949 . S
H3270 C3276 0.950 . S
H3271 C3277 0.950 . S
H3272 C3278 0.949 . S
C3273 H3268 0.950 . S
C3273 C3275 1.327 . S
C3273 C3279 1.429 . S
C3274 C3266 1.574 . S
C3274 H3269 0.949 . S
C3274 C3280 1.368 . S
C3275 C3259 1.349 . S
C3275 H3267 0.950 . S
C3275 C3273 1.327 . S
C3276 C3264 1.349 . S
C3276 H3270 0.950 . S
C3276 C3277 1.327 . S
C3277 H3271 0.950 . S
C3277 C3276 1.327 . S
C3277 C3281 1.429 . S
C3278 C3261 1.574 . S
C3278 H3272 0.949 . S
C3278 C3282 1.368 . S
C3279 C3260 1.429 . S
C3279 C3273 1.429 . S
C3279 C3280 1.523 . S
C3280 C3261 1.368 . S
C3280 C3274 1.368 . S
C3280 C3279 1.523 . S
C3281 C3265 1.429 . S
C3281 C3277 1.429 . S
C3281 C3282 1.523 . S
C3282 C3266 1.368 . S
C3282 C3278 1.368 . S
C3282 C3281 1.523 . S
H3283 C3258 0.950 . S
H3284 C3260 0.950 . S
H3285 C3261 0.949 . S
H3286 C3263 0.950 . S
H3287 C3265 0.950 . S
C3288 C3289 1.349 . S
C3288 C3290 1.327 . S
C3288 H3313 0.950 . S
C3289 C3288 1.349 . S
C3289 C3305 1.349 . S
C3290 C3288 1.327 . S
C3290 C3309 1.429 . S
C3290 H3314 0.950 . S
C3291 C3308 1.574 . S
C3291 C3310 1.368 . S
C3291 H3315 0.949 . S
H3292 C3296 0.949 . S
C3293 C3294 1.349 . S
C3293 C3295 1.327 . S
C3293 H3316 0.950 . S
C3294 C3293 1.349 . S
C3294 C3306 1.349 . S
C3295 C3293 1.327 . S
C3295 C3311 1.429 . S
C3295 H3317 0.950 . S
C3296 H3292 0.949 . S
C3296 C3304 1.574 . S
C3296 C3312 1.368 . S
H3297 C3305 0.950 . S
H3298 C3303 0.950 . S
H3299 C3304 0.949 . S
H3300 C3306 0.950 . S
H3301 C3307 0.950 . S
H3302 C3308 0.949 . S
C3303 H3298 0.950 . S
C3303 C3305 1.327 . S
C3303 C3309 1.429 . S
C3304 C3296 1.574 . S
C3304 H3299 0.949 . S
C3304 C3310 1.368 . S
C3305 C3289 1.349 . S
C3305 H3297 0.950 . S
C3305 C3303 1.327 . S
C3306 C3294 1.349 . S
C3306 H3300 0.950 . S
C3306 C3307 1.327 . S
C3307 H3301 0.950 . S
C3307 C3306 1.327 . S
C3307 C3311 1.429 . S
C3308 C3291 1.574 . S
C3308 H3302 0.949 . S
C3308 C3312 1.368 . S
C3309 C3290 1.429 . S
C3309 C3303 1.429 . S
C3309 C3310 1.523 . S
C3310 C3291 1.368 . S
C3310 C3304 1.368 . S
C3310 C3309 1.523 . S
C3311 C3295 1.429 . S
C3311 C3307 1.429 . S
C3311 C3312 1.523 . S
C3312 C3296 1.368 . S
C3312 C3308 1.368 . S
C3312 C3311 1.523 . S
H3313 C3288 0.950 . S
H3314 C3290 0.950 . S
H3315 C3291 0.949 . S
H3316 C3293 0.950 . S
H3317 C3295 0.950 . S
C3318 C3319 1.349 . S
C3318 C3320 1.327 . S
C3318 H3343 0.950 . S
C3319 C3318 1.349 . S
C3319 C3335 1.349 . S
C3320 C3318 1.327 . S
C3320 C3339 1.429 . S
C3320 H3344 0.950 . S
C3321 C3338 1.574 . S
C3321 C3340 1.368 . S
C3321 H3345 0.949 . S
H3322 C3326 0.949 . S
C3323 C3324 1.349 . S
C3323 C3325 1.327 . S
C3323 H3346 0.950 . S
C3324 C3323 1.349 . S
C3324 C3336 1.349 . S
C3325 C3323 1.327 . S
C3325 C3341 1.429 . S
C3325 H3347 0.950 . S
C3326 H3322 0.949 . S
C3326 C3334 1.574 . S
C3326 C3342 1.368 . S
H3327 C3335 0.950 . S
H3328 C3333 0.950 . S
H3329 C3334 0.949 . S
H3330 C3336 0.950 . S
H3331 C3337 0.950 . S
H3332 C3338 0.949 . S
C3333 H3328 0.950 . S
C3333 C3335 1.327 . S
C3333 C3339 1.429 . S
C3334 C3326 1.574 . S
C3334 H3329 0.949 . S
C3334 C3340 1.368 . S
C3335 C3319 1.349 . S
C3335 H3327 0.950 . S
C3335 C3333 1.327 . S
C3336 C3324 1.349 . S
C3336 H3330 0.950 . S
C3336 C3337 1.327 . S
C3337 H3331 0.950 . S
C3337 C3336 1.327 . S
C3337 C3341 1.429 . S
C3338 C3321 1.574 . S
C3338 H3332 0.949 . S
C3338 C3342 1.368 . S
C3339 C3320 1.429 . S
C3339 C3333 1.429 . S
C3339 C3340 1.523 . S
C3340 C3321 1.368 . S
C3340 C3334 1.368 . S
C3340 C3339 1.523 . S
C3341 C3325 1.429 . S
C3341 C3337 1.429 . S
C3341 C3342 1.523 . S
C3342 C3326 1.368 . S
C3342 C3338 1.368 . S
C3342 C3341 1.523 . S
H3343 C3318 0.950 . S
H3344 C3320 0.950 . S
H3345 C3321 0.949 . S
H3346 C3323 0.950 . S
H3347 C3325 0.950 . S
C3348 C3349 1.349 . S
C3348 C3350 1.327 . S
C3348 H3373 0.950 . S
C3349 C3348 1.349 . S
C3349 C3365 1.349 1_545 S
C3350 C3348 1.327 . S
C3350 C3369 1.429 . S
C3350 H3374 0.950 . S
C3351 C3368 1.574 . S
C3351 C3370 1.317 1_565 S
C3351 H3375 0.997 . S
H3352 C3356 0.949 . S
C3353 C3354 1.349 . S
C3353 C3355 1.327 . S
C3353 H3376 0.950 1_545 S
C3354 C3353 1.349 . S
C3354 C3366 1.349 . S
C3355 C3353 1.327 . S
C3355 C3371 1.429 . S
C3355 H3377 0.950 1_545 S
C3356 H3352 0.949 . S
C3356 C3364 1.574 . S
C3356 C3372 1.368 . S
H3357 C3365 0.950 . S
H3358 C3363 0.950 . S
H3359 C3364 0.949 . S
H3360 C3366 0.950 . S
H3361 C3367 0.950 . S
H3362 C3368 0.965 . S
C3363 H3358 0.950 . S
C3363 C3365 1.327 . S
C3363 C3369 1.429 1_565 S
C3364 C3356 1.574 . S
C3364 H3359 0.949 . S
C3364 C3370 1.368 . S
C3365 C3349 1.349 1_565 S
C3365 H3357 0.950 . S
C3365 C3363 1.327 . S
C3366 C3354 1.349 . S
C3366 H3360 0.950 . S
C3366 C3367 1.327 . S
C3367 H3361 0.950 . S
C3367 C3366 1.327 . S
C3367 C3371 1.429 . S
C3368 C3351 1.574 . S
C3368 H3362 0.965 . S
C3368 C3372 1.351 1_565 S
C3369 C3350 1.429 . S
C3369 C3363 1.429 1_545 S
C3369 C3370 1.523 . S
C3370 C3351 1.317 1_545 S
C3370 C3364 1.368 . S
C3370 C3369 1.523 . S
C3371 C3355 1.429 . S
C3371 C3367 1.429 . S
C3371 C3372 1.523 . S
C3372 C3356 1.368 . S
C3372 C3368 1.351 1_545 S
C3372 C3371 1.523 . S
H3373 C3348 0.950 . S
H3374 C3350 0.950 . S
H3375 C3351 0.997 . S
H3376 C3353 0.950 1_565 S
H3377 C3355 0.950 1_565 S
C3378 C3379 1.349 . S
C3378 C3380 1.327 . S
C3378 H3403 0.950 . S
C3379 C3378 1.349 . S
C3379 C3395 1.349 . S
C3380 C3378 1.327 . S
C3380 C3399 1.429 . S
C3380 H3404 0.950 . S
C3381 C3398 1.574 . S
C3381 C3400 1.368 . S
C3381 H3405 0.949 . S
H3382 C3386 0.949 . S
C3383 C3384 1.349 . S
C3383 C3385 1.327 . S
C3383 H3406 0.950 . S
C3384 C3383 1.349 . S
C3384 C3396 1.349 . S
C3385 C3383 1.327 . S
C3385 C3401 1.429 . S
C3385 H3407 0.950 . S
C3386 H3382 0.949 . S
C3386 C3394 1.574 . S
C3386 C3402 1.368 . S
H3387 C3395 0.950 . S
H3388 C3393 0.950 . S
H3389 C3394 0.949 . S
H3390 C3396 0.950 . S
H3391 C3397 0.950 . S
H3392 C3398 0.949 . S
C3393 H3388 0.950 . S
C3393 C3395 1.327 . S
C3393 C3399 1.429 . S
C3394 C3386 1.574 . S
C3394 H3389 0.949 . S
C3394 C3400 1.368 . S
C3395 C3379 1.349 . S
C3395 H3387 0.950 . S
C3395 C3393 1.327 . S
C3396 C3384 1.349 . S
C3396 H3390 0.950 . S
C3396 C3397 1.327 . S
C3397 H3391 0.950 . S
C3397 C3396 1.327 . S
C3397 C3401 1.429 . S
C3398 C3381 1.574 . S
C3398 H3392 0.949 . S
C3398 C3402 1.368 . S
C3399 C3380 1.429 . S
C3399 C3393 1.429 . S
C3399 C3400 1.523 . S
C3400 C3381 1.368 . S
C3400 C3394 1.368 . S
C3400 C3399 1.523 . S
C3401 C3385 1.429 . S
C3401 C3397 1.429 . S
C3401 C3402 1.523 . S
C3402 C3386 1.368 . S
C3402 C3398 1.368 . S
C3402 C3401 1.523 . S
H3403 C3378 0.950 . S
H3404 C3380 0.950 . S
H3405 C3381 0.949 . S
H3406 C3383 0.950 . S
H3407 C3385 0.950 . S
C3408 C3409 1.349 . S
C3408 C3410 1.327 . S
C3408 H3433 0.950 . S
C3409 C3408 1.349 . S
C3409 C3425 1.349 . S
C3410 C3408 1.327 . S
C3410 C3429 1.429 . S
C3410 H3434 0.950 . S
C3411 C3428 1.574 . S
C3411 C3430 1.368 . S
C3411 H3435 0.949 . S
H3412 C3416 0.949 . S
C3413 C3414 1.349 . S
C3413 C3415 1.327 . S
C3413 H3436 0.950 . S
C3414 C3413 1.349 . S
C3414 C3426 1.349 . S
C3415 C3413 1.327 . S
C3415 C3431 1.429 . S
C3415 H3437 0.950 . S
C3416 H3412 0.949 . S
C3416 C3424 1.574 . S
C3416 C3432 1.368 . S
H3417 C3425 0.950 . S
H3418 C3423 0.950 . S
H3419 C3424 0.949 . S
H3420 C3426 0.950 1_556 S
H3421 C3427 0.950 . S
H3422 C3428 0.949 . S
C3423 H3418 0.950 . S
C3423 C3425 1.327 . S
C3423 C3429 1.429 . S
C3424 C3416 1.574 . S
C3424 H3419 0.949 . S
C3424 C3430 1.368 . S
C3425 C3409 1.349 . S
C3425 H3417 0.950 . S
C3425 C3423 1.327 . S
C3426 C3414 1.349 . S
C3426 H3420 0.950 1_554 S
C3426 C3427 1.327 . S
C3427 H3421 0.950 . S
C3427 C3426 1.327 . S
C3427 C3431 1.429 . S
C3428 C3411 1.574 . S
C3428 H3422 0.949 . S
C3428 C3432 1.368 . S
C3429 C3410 1.429 . S
C3429 C3423 1.429 . S
C3429 C3430 1.523 . S
C3430 C3411 1.368 . S
C3430 C3424 1.368 . S
C3430 C3429 1.523 . S
C3431 C3415 1.429 . S
C3431 C3427 1.429 . S
C3431 C3432 1.523 . S
C3432 C3416 1.368 . S
C3432 C3428 1.368 . S
C3432 C3431 1.523 . S
H3433 C3408 0.950 . S
H3434 C3410 0.950 . S
H3435 C3411 0.949 . S
H3436 C3413 0.950 . S
H3437 C3415 0.950 . S
C3438 C3439 1.349 . S
C3438 C3440 1.327 . S
C3438 H3463 0.950 . S
C3439 C3438 1.349 . S
C3439 C3455 1.349 . S
C3440 C3438 1.327 . S
C3440 C3459 1.429 . S
C3440 H3464 0.950 . S
C3441 C3458 1.574 . S
C3441 C3460 1.368 . S
C3441 H3465 0.949 . S
H3442 C3446 0.949 . S
C3443 C3444 1.349 . S
C3443 C3445 1.327 . S
C3443 H3466 0.950 . S
C3444 C3443 1.349 . S
C3444 C3456 1.349 . S
C3445 C3443 1.327 . S
C3445 C3461 1.429 . S
C3445 H3467 0.950 . S
C3446 H3442 0.949 . S
C3446 C3454 1.574 . S
C3446 C3462 1.368 . S
H3447 C3455 0.950 . S
H3448 C3453 0.950 . S
H3449 C3454 0.949 . S
H3450 C3456 0.950 . S
H3451 C3457 0.950 . S
H3452 C3458 0.949 . S
C3453 H3448 0.950 . S
C3453 C3455 1.327 . S
C3453 C3459 1.429 . S
C3454 C3446 1.574 . S
C3454 H3449 0.949 . S
C3454 C3460 1.368 . S
C3455 C3439 1.349 . S
C3455 H3447 0.950 . S
C3455 C3453 1.327 . S
C3456 C3444 1.349 . S
C3456 H3450 0.950 . S
C3456 C3457 1.327 . S
C3457 H3451 0.950 . S
C3457 C3456 1.327 . S
C3457 C3461 1.429 . S
C3458 C3441 1.574 . S
C3458 H3452 0.949 . S
C3458 C3462 1.368 . S
C3459 C3440 1.429 . S
C3459 C3453 1.429 . S
C3459 C3460 1.523 . S
C3460 C3441 1.368 . S
C3460 C3454 1.368 . S
C3460 C3459 1.523 . S
C3461 C3445 1.429 . S
C3461 C3457 1.429 . S
C3461 C3462 1.523 . S
C3462 C3446 1.368 . S
C3462 C3458 1.368 . S
C3462 C3461 1.523 . S
H3463 C3438 0.950 . S
H3464 C3440 0.950 . S
H3465 C3441 0.949 . S
H3466 C3443 0.950 . S
H3467 C3445 0.950 . S
C3468 C3469 1.349 . S
C3468 C3470 1.327 . S
C3468 H3493 0.950 . S
C3469 C3468 1.349 . S
C3469 C3485 1.349 . S
C3470 C3468 1.327 . S
C3470 C3489 1.429 . S
C3470 H3494 0.950 . S
C3471 C3488 1.574 . S
C3471 C3490 1.368 . S
C3471 H3495 0.949 . S
H3472 C3476 0.949 . S
C3473 C3474 1.349 . S
C3473 C3475 1.327 . S
C3473 H3496 0.950 . S
C3474 C3473 1.349 . S
C3474 C3486 1.349 . S
C3475 C3473 1.327 . S
C3475 C3491 1.429 . S
C3475 H3497 0.950 . S
C3476 H3472 0.949 . S
C3476 C3484 1.574 . S
C3476 C3492 1.368 . S
H3477 C3485 0.950 . S
H3478 C3483 0.950 . S
H3479 C3484 0.949 . S
H3480 C3486 0.950 . S
H3481 C3487 0.950 . S
H3482 C3488 0.949 . S
C3483 H3478 0.950 . S
C3483 C3485 1.327 . S
C3483 C3489 1.429 . S
C3484 C3476 1.574 . S
C3484 H3479 0.949 . S
C3484 C3490 1.368 . S
C3485 C3469 1.349 . S
C3485 H3477 0.950 . S
C3485 C3483 1.327 . S
C3486 C3474 1.349 . S
C3486 H3480 0.950 . S
C3486 C3487 1.327 . S
C3487 H3481 0.950 . S
C3487 C3486 1.327 . S
C3487 C3491 1.429 . S
C3488 C3471 1.574 . S
C3488 H3482 0.949 . S
C3488 C3492 1.368 . S
C3489 C3470 1.429 . S
C3489 C3483 1.429 . S
C3489 C3490 1.523 . S
C3490 C3471 1.368 . S
C3490 C3484 1.368 . S
C3490 C3489 1.523 . S
C3491 C3475 1.429 . S
C3491 C3487 1.429 . S
C3491 C3492 1.523 . S
C3492 C3476 1.368 . S
C3492 C3488 1.368 . S
C3492 C3491 1.523 . S
H3493 C3468 0.950 . S
H3494 C3470 0.950 . S
H3495 C3471 0.949 . S
H3496 C3473 0.950 . S
H3497 C3475 0.950 . S
C3498 C3499 1.349 . S
C3498 C3500 1.327 . S
C3498 H3523 0.950 . S
C3499 C3498 1.349 . S
C3499 C3515 1.349 . S
C3500 C3498 1.327 . S
C3500 C3519 1.429 . S
C3500 H3524 0.950 . S
C3501 C3518 1.574 . S
C3501 C3520 1.368 . S
C3501 H3525 0.949 . S
H3502 C3506 0.949 . S
C3503 C3504 1.349 . S
C3503 C3505 1.327 . S
C3503 H3526 0.950 . S
C3504 C3503 1.349 . S
C3504 C3516 1.349 . S
C3505 C3503 1.327 . S
C3505 C3521 1.429 . S
C3505 H3527 0.950 . S
C3506 H3502 0.949 . S
C3506 C3514 1.574 . S
C3506 C3522 1.368 . S
H3507 C3515 0.950 . S
H3508 C3513 0.950 . S
H3509 C3514 0.949 . S
H3510 C3516 0.950 . S
H3511 C3517 0.950 . S
H3512 C3518 0.949 . S
C3513 H3508 0.950 . S
C3513 C3515 1.327 . S
C3513 C3519 1.429 . S
C3514 C3506 1.574 . S
C3514 H3509 0.949 . S
C3514 C3520 1.368 . S
C3515 C3499 1.349 . S
C3515 H3507 0.950 . S
C3515 C3513 1.327 . S
C3516 C3504 1.349 . S
C3516 H3510 0.950 . S
C3516 C3517 1.327 . S
C3517 H3511 0.950 . S
C3517 C3516 1.327 . S
C3517 C3521 1.429 . S
C3518 C3501 1.574 . S
C3518 H3512 0.949 . S
C3518 C3522 1.368 . S
C3519 C3500 1.429 . S
C3519 C3513 1.429 . S
C3519 C3520 1.523 . S
C3520 C3501 1.368 . S
C3520 C3514 1.368 . S
C3520 C3519 1.523 . S
C3521 C3505 1.429 . S
C3521 C3517 1.429 . S
C3521 C3522 1.523 . S
C3522 C3506 1.368 . S
C3522 C3518 1.368 . S
C3522 C3521 1.523 . S
H3523 C3498 0.950 . S
H3524 C3500 0.950 . S
H3525 C3501 0.949 . S
H3526 C3503 0.950 . S
H3527 C3505 0.950 . S
C3528 C3529 1.349 1_565 S
C3528 C3530 1.327 . S
C3528 H3553 0.950 . S
C3529 C3528 1.349 1_545 S
C3529 C3545 1.341 1_545 S
C3530 C3528 1.327 . S
C3530 C3549 1.429 . S
C3530 H3554 0.950 . S
C3531 C3548 1.574 . S
C3531 C3550 1.368 . S
C3531 H3555 0.949 . S
H3532 C3536 0.949 . S
C3533 C3534 1.349 . S
C3533 C3535 1.327 . S
C3533 H3556 0.950 . S
C3534 C3533 1.349 . S
C3534 C3546 1.349 . S
C3535 C3533 1.327 . S
C3535 C3551 1.429 . S
C3535 H3557 0.950 . S
C3536 H3532 0.949 . S
C3536 C3544 1.574 . S
C3536 C3552 1.368 . S
H3537 C3545 0.933 1_545 S
H3538 C3543 0.950 . S
H3539 C3544 0.949 . S
H3540 C3546 0.950 . S
H3541 C3547 0.950 . S
H3542 C3548 0.949 . S
C3543 H3538 0.950 . S
C3543 C3545 1.353 . S
C3543 C3549 1.429 . S
C3544 C3536 1.574 . S
C3544 H3539 0.949 . S
C3544 C3550 1.368 . S
C3545 C3529 1.341 1_565 S
C3545 H3537 0.933 1_565 S
C3545 C3543 1.353 . S
C3546 C3534 1.349 . S
C3546 H3540 0.950 . S
C3546 C3547 1.327 . S
C3547 H3541 0.950 . S
C3547 C3546 1.327 . S
C3547 C3551 1.429 . S
C3548 C3531 1.574 . S
C3548 H3542 0.949 . S
C3548 C3552 1.368 . S
C3549 C3530 1.429 . S
C3549 C3543 1.429 . S
C3549 C3550 1.523 . S
C3550 C3531 1.368 . S
C3550 C3544 1.368 . S
C3550 C3549 1.523 . S
C3551 C3535 1.429 . S
C3551 C3547 1.429 . S
C3551 C3552 1.523 . S
C3552 C3536 1.368 . S
C3552 C3548 1.368 . S
C3552 C3551 1.523 . S
H3553 C3528 0.950 . S
H3554 C3530 0.950 . S
H3555 C3531 0.949 . S
H3556 C3533 0.950 . S
H3557 C3535 0.950 . S
C3558 C3559 1.349 . S
C3558 C3560 1.327 . S
C3558 H3583 0.950 . S
C3559 C3558 1.349 . S
C3559 C3575 1.349 . S
C3560 C3558 1.327 . S
C3560 C3579 1.429 . S
C3560 H3584 0.950 . S
C3561 C3578 1.574 . S
C3561 C3580 1.368 . S
C3561 H3585 0.949 . S
H3562 C3566 0.949 . S
C3563 C3564 1.349 . S
C3563 C3565 1.327 . S
C3563 H3586 0.950 . S
C3564 C3563 1.349 . S
C3564 C3576 1.349 . S
C3565 C3563 1.327 . S
C3565 C3581 1.429 . S
C3565 H3587 0.950 . S
C3566 H3562 0.949 . S
C3566 C3574 1.574 . S
C3566 C3582 1.368 . S
H3567 C3575 0.950 . S
H3568 C3573 0.950 . S
H3569 C3574 0.949 . S
H3570 C3576 0.950 . S
H3571 C3577 0.950 . S
H3572 C3578 0.949 . S
C3573 H3568 0.950 . S
C3573 C3575 1.327 . S
C3573 C3579 1.429 . S
C3574 C3566 1.574 . S
C3574 H3569 0.949 . S
C3574 C3580 1.368 . S
C3575 C3559 1.349 . S
C3575 H3567 0.950 . S
C3575 C3573 1.327 . S
C3576 C3564 1.349 . S
C3576 H3570 0.950 . S
C3576 C3577 1.327 . S
C3577 H3571 0.950 . S
C3577 C3576 1.327 . S
C3577 C3581 1.429 . S
C3578 C3561 1.574 . S
C3578 H3572 0.949 . S
C3578 C3582 1.368 . S
C3579 C3560 1.429 . S
C3579 C3573 1.429 . S
C3579 C3580 1.523 . S
C3580 C3561 1.368 . S
C3580 C3574 1.368 . S
C3580 C3579 1.523 . S
C3581 C3565 1.429 . S
C3581 C3577 1.429 . S
C3581 C3582 1.523 . S
C3582 C3566 1.368 . S
C3582 C3578 1.368 . S
C3582 C3581 1.523 . S
H3583 C3558 0.950 . S
H3584 C3560 0.950 . S
H3585 C3561 0.949 . S
H3586 C3563 0.950 . S
H3587 C3565 0.950 . S
C3588 C3589 1.349 . S
C3588 C3590 1.327 . S
C3588 H3613 0.950 . S
C3589 C3588 1.349 . S
C3589 C3605 1.349 . S
C3590 C3588 1.327 . S
C3590 C3609 1.429 . S
C3590 H3614 0.950 . S
C3591 C3608 1.574 . S
C3591 C3610 1.368 . S
C3591 H3615 0.949 . S
H3592 C3596 0.949 . S
C3593 C3594 1.349 . S
C3593 C3595 1.327 . S
C3593 H3616 0.950 . S
C3594 C3593 1.349 . S
C3594 C3606 1.349 . S
C3595 C3593 1.327 . S
C3595 C3611 1.429 . S
C3595 H3617 0.950 . S
C3596 H3592 0.949 . S
C3596 C3604 1.574 . S
C3596 C3612 1.368 . S
H3597 C3605 0.950 . S
H3598 C3603 0.950 . S
H3599 C3604 0.949 . S
H3600 C3606 0.950 . S
H3601 C3607 0.950 . S
H3602 C3608 0.949 . S
C3603 H3598 0.950 . S
C3603 C3605 1.327 . S
C3603 C3609 1.429 . S
C3604 C3596 1.574 . S
C3604 H3599 0.949 . S
C3604 C3610 1.368 . S
C3605 C3589 1.349 . S
C3605 H3597 0.950 . S
C3605 C3603 1.327 . S
C3606 C3594 1.349 . S
C3606 H3600 0.950 . S
C3606 C3607 1.327 . S
C3607 H3601 0.950 . S
C3607 C3606 1.327 . S
C3607 C3611 1.429 . S
C3608 C3591 1.574 . S
C3608 H3602 0.949 . S
C3608 C3612 1.368 . S
C3609 C3590 1.429 . S
C3609 C3603 1.429 . S
C3609 C3610 1.523 . S
C3610 C3591 1.368 . S
C3610 C3604 1.368 . S
C3610 C3609 1.523 . S
C3611 C3595 1.429 . S
C3611 C3607 1.429 . S
C3611 C3612 1.523 . S
C3612 C3596 1.368 . S
C3612 C3608 1.368 . S
C3612 C3611 1.523 . S
H3613 C3588 0.950 . S
H3614 C3590 0.950 . S
H3615 C3591 0.949 . S
H3616 C3593 0.950 . S
H3617 C3595 0.950 . S
C3618 C3619 1.349 . S
C3618 C3620 1.327 . S
C3618 H3643 0.950 . S
C3619 C3618 1.349 . S
C3619 C3635 1.349 . S
C3620 C3618 1.327 . S
C3620 C3639 1.429 . S
C3620 H3644 0.950 . S
C3621 C3638 1.574 . S
C3621 C3640 1.368 . S
C3621 H3645 0.949 . S
H3622 C3626 0.949 . S
C3623 C3624 1.349 . S
C3623 C3625 1.327 . S
C3623 H3646 0.950 . S
C3624 C3623 1.349 . S
C3624 C3636 1.349 . S
C3625 C3623 1.327 . S
C3625 C3641 1.429 . S
C3625 H3647 0.950 . S
C3626 H3622 0.949 . S
C3626 C3634 1.574 . S
C3626 C3642 1.368 . S
H3627 C3635 0.950 . S
H3628 C3633 0.950 . S
H3629 C3634 0.949 . S
H3630 C3636 0.950 . S
H3631 C3637 0.950 . S
H3632 C3638 0.949 . S
C3633 H3628 0.950 . S
C3633 C3635 1.327 . S
C3633 C3639 1.429 . S
C3634 C3626 1.574 . S
C3634 H3629 0.949 . S
C3634 C3640 1.368 . S
C3635 C3619 1.349 . S
C3635 H3627 0.950 . S
C3635 C3633 1.327 . S
C3636 C3624 1.349 . S
C3636 H3630 0.950 . S
C3636 C3637 1.327 . S
C3637 H3631 0.950 . S
C3637 C3636 1.327 . S
C3637 C3641 1.429 . S
C3638 C3621 1.574 . S
C3638 H3632 0.949 . S
C3638 C3642 1.368 . S
C3639 C3620 1.429 . S
C3639 C3633 1.429 . S
C3639 C3640 1.523 . S
C3640 C3621 1.368 . S
C3640 C3634 1.368 . S
C3640 C3639 1.523 . S
C3641 C3625 1.429 . S
C3641 C3637 1.429 . S
C3641 C3642 1.523 . S
C3642 C3626 1.368 . S
C3642 C3638 1.368 . S
C3642 C3641 1.523 . S
H3643 C3618 0.950 . S
H3644 C3620 0.950 . S
H3645 C3621 0.949 . S
H3646 C3623 0.950 . S
H3647 C3625 0.950 . S
C3648 C3649 1.349 . S
C3648 C3650 1.327 . S
C3648 H3673 0.950 . S
C3649 C3648 1.349 . S
C3649 C3665 1.349 . S
C3650 C3648 1.327 . S
C3650 C3669 1.429 . S
C3650 H3674 0.950 . S
C3651 C3668 1.574 . S
C3651 C3670 1.368 . S
C3651 H3675 0.949 . S
H3652 C3656 0.949 . S
C3653 C3654 1.349 . S
C3653 C3655 1.327 . S
C3653 H3676 0.950 . S
C3654 C3653 1.349 . S
C3654 C3666 1.349 . S
C3655 C3653 1.327 . S
C3655 C3671 1.429 . S
C3655 H3677 0.950 . S
C3656 H3652 0.949 . S
C3656 C3664 1.574 . S
C3656 C3672 1.368 . S
H3657 C3665 0.950 . S
H3658 C3663 0.950 . S
H3659 C3664 0.949 . S
H3660 C3666 0.950 . S
H3661 C3667 0.950 . S
H3662 C3668 0.949 . S
C3663 H3658 0.950 . S
C3663 C3665 1.327 . S
C3663 C3669 1.429 . S
C3664 C3656 1.574 . S
C3664 H3659 0.949 . S
C3664 C3670 1.368 . S
C3665 C3649 1.349 . S
C3665 H3657 0.950 . S
C3665 C3663 1.327 . S
C3666 C3654 1.349 . S
C3666 H3660 0.950 . S
C3666 C3667 1.327 . S
C3667 H3661 0.950 . S
C3667 C3666 1.327 . S
C3667 C3671 1.429 . S
C3668 C3651 1.574 . S
C3668 H3662 0.949 . S
C3668 C3672 1.368 . S
C3669 C3650 1.429 . S
C3669 C3663 1.429 . S
C3669 C3670 1.523 . S
C3670 C3651 1.368 . S
C3670 C3664 1.368 . S
C3670 C3669 1.523 . S
C3671 C3655 1.429 . S
C3671 C3667 1.429 . S
C3671 C3672 1.523 . S
C3672 C3656 1.368 . S
C3672 C3668 1.368 . S
C3672 C3671 1.523 . S
H3673 C3648 0.950 . S
H3674 C3650 0.950 . S
H3675 C3651 0.949 . S
H3676 C3653 0.950 . S
H3677 C3655 0.950 . S
C3678 C3679 1.349 . S
C3678 C3680 1.327 . S
C3678 H3703 0.950 . S
C3679 C3678 1.349 . S
C3679 C3695 1.349 . S
C3680 C3678 1.327 . S
C3680 C3699 1.429 . S
C3680 H3704 0.950 . S
C3681 C3698 1.574 . S
C3681 C3700 1.368 . S
C3681 H3705 0.949 . S
H3682 C3686 0.949 . S
C3683 C3684 1.349 . S
C3683 C3685 1.327 . S
C3683 H3706 0.950 . S
C3684 C3683 1.349 . S
C3684 C3696 1.349 . S
C3685 C3683 1.327 . S
C3685 C3701 1.429 . S
C3685 H3707 0.950 . S
C3686 H3682 0.949 . S
C3686 C3694 1.574 . S
C3686 C3702 1.368 . S
H3687 C3695 0.950 . S
H3688 C3693 0.950 . S
H3689 C3694 0.949 . S
H3690 C3696 0.950 . S
H3691 C3697 0.950 . S
H3692 C3698 0.949 . S
C3693 H3688 0.950 . S
C3693 C3695 1.327 . S
C3693 C3699 1.429 . S
C3694 C3686 1.574 . S
C3694 H3689 0.949 . S
C3694 C3700 1.368 . S
C3695 C3679 1.349 . S
C3695 H3687 0.950 . S
C3695 C3693 1.327 . S
C3696 C3684 1.349 . S
C3696 H3690 0.950 . S
C3696 C3697 1.327 . S
C3697 H3691 0.950 . S
C3697 C3696 1.327 . S
C3697 C3701 1.429 . S
C3698 C3681 1.574 . S
C3698 H3692 0.949 . S
C3698 C3702 1.368 . S
C3699 C3680 1.429 . S
C3699 C3693 1.429 . S
C3699 C3700 1.523 . S
C3700 C3681 1.368 . S
C3700 C3694 1.368 . S
C3700 C3699 1.523 . S
C3701 C3685 1.429 . S
C3701 C3697 1.429 . S
C3701 C3702 1.523 . S
C3702 C3686 1.368 . S
C3702 C3698 1.368 . S
C3702 C3701 1.523 . S
H3703 C3678 0.950 . S
H3704 C3680 0.950 . S
H3705 C3681 0.949 . S
H3706 C3683 0.950 . S
H3707 C3685 0.950 . S
C3708 C3709 1.349 . S
C3708 C3710 1.327 . S
C3708 H3733 0.950 . S
C3709 C3708 1.349 . S
C3709 C3725 1.318 1_455 S
C3710 C3708 1.327 . S
C3710 C3729 1.429 . S
C3710 H3734 0.950 . S
C3711 C3728 1.574 . S
C3711 C3730 1.368 . S
C3711 H3735 0.949 1_455 S
H3712 C3716 0.949 . S
C3713 C3714 1.349 1_556 S
C3713 C3715 1.327 . S
C3713 H3736 0.950 . S
C3714 C3713 1.349 1_554 S
C3714 C3726 1.349 . S
C3715 C3713 1.327 . S
C3715 C3731 1.429 . S
C3715 H3737 0.950 . S
C3716 H3712 0.949 . S
C3716 C3724 1.574 1_554 S
C3716 C3732 1.368 1_554 S
H3717 C3725 0.974 . S
H3718 C3723 0.945 1_655 S
H3719 C3724 0.949 1_554 S
H3720 C3726 0.950 . S
H3721 C3727 0.950 . S
H3722 C3728 0.918 1_655 S
C3723 H3718 0.945 1_455 S
C3723 C3725 1.340 1_455 S
C3723 C3729 1.432 . S
C3724 C3716 1.574 1_556 S
C3724 H3719 0.949 1_556 S
C3724 C3730 1.368 . S
C3725 C3709 1.318 1_655 S
C3725 H3717 0.974 . S
C3725 C3723 1.340 1_655 S
C3726 C3714 1.349 . S
C3726 H3720 0.950 . S
C3726 C3727 1.327 . S
C3727 H3721 0.950 . S
C3727 C3726 1.327 . S
C3727 C3731 1.429 1_554 S
C3728 C3711 1.574 . S
C3728 H3722 0.918 1_455 S
C3728 C3732 1.368 . S
C3729 C3710 1.429 . S
C3729 C3723 1.432 . S
C3729 C3730 1.523 . S
C3730 C3711 1.368 . S
C3730 C3724 1.368 . S
C3730 C3729 1.523 . S
C3731 C3715 1.429 . S
C3731 C3727 1.429 1_556 S
C3731 C3732 1.523 . S
C3732 C3716 1.368 1_556 S
C3732 C3728 1.368 . S
C3732 C3731 1.523 . S
H3733 C3708 0.950 . S
H3734 C3710 0.950 . S
H3735 C3711 0.949 1_655 S
H3736 C3713 0.950 . S
H3737 C3715 0.950 . S
C3738 C3739 1.349 . S
C3738 C3740 1.327 . S
C3738 H3763 0.950 1_655 S
C3739 C3738 1.349 . S
C3739 C3755 1.349 . S
C3740 C3738 1.327 . S
C3740 C3759 1.429 . S
C3740 H3764 0.950 . S
C3741 C3758 1.574 . S
C3741 C3760 1.368 . S
C3741 H3765 0.949 . S
H3742 C3746 0.949 . S
C3743 C3744 1.349 . S
C3743 C3745 1.327 . S
C3743 H3766 0.950 . S
C3744 C3743 1.349 . S
C3744 C3756 1.349 . S
C3745 C3743 1.327 . S
C3745 C3761 1.429 . S
C3745 H3767 0.950 . S
C3746 H3742 0.949 . S
C3746 C3754 1.574 . S
C3746 C3762 1.368 . S
H3747 C3755 0.950 . S
H3748 C3753 0.950 . S
H3749 C3754 0.949 . S
H3750 C3756 0.950 . S
H3751 C3757 0.950 . S
H3752 C3758 0.949 . S
C3753 H3748 0.950 . S
C3753 C3755 1.327 . S
C3753 C3759 1.429 . S
C3754 C3746 1.574 . S
C3754 H3749 0.949 . S
C3754 C3760 1.368 . S
C3755 C3739 1.349 . S
C3755 H3747 0.950 . S
C3755 C3753 1.327 . S
C3756 C3744 1.349 . S
C3756 H3750 0.950 . S
C3756 C3757 1.327 . S
C3757 H3751 0.950 . S
C3757 C3756 1.327 . S
C3757 C3761 1.429 . S
C3758 C3741 1.574 . S
C3758 H3752 0.949 . S
C3758 C3762 1.368 . S
C3759 C3740 1.429 . S
C3759 C3753 1.429 . S
C3759 C3760 1.523 . S
C3760 C3741 1.368 . S
C3760 C3754 1.368 . S
C3760 C3759 1.523 . S
C3761 C3745 1.429 . S
C3761 C3757 1.429 . S
C3761 C3762 1.523 . S
C3762 C3746 1.368 . S
C3762 C3758 1.368 . S
C3762 C3761 1.523 . S
H3763 C3738 0.950 1_455 S
H3764 C3740 0.950 . S
H3765 C3741 0.949 . S
H3766 C3743 0.950 . S
H3767 C3745 0.950 . S
C3768 C3769 1.349 . S
C3768 C3770 1.327 . S
C3768 H3793 0.950 . S
C3769 C3768 1.349 . S
C3769 C3785 1.349 . S
C3770 C3768 1.327 . S
C3770 C3789 1.429 . S
C3770 H3794 0.950 . S
C3771 C3788 1.574 . S
C3771 C3790 1.368 . S
C3771 H3795 0.949 . S
H3772 C3776 0.949 . S
C3773 C3774 1.349 . S
C3773 C3775 1.327 . S
C3773 H3796 0.950 . S
C3774 C3773 1.349 . S
C3774 C3786 1.349 . S
C3775 C3773 1.327 . S
C3775 C3791 1.429 . S
C3775 H3797 0.950 . S
C3776 H3772 0.949 . S
C3776 C3784 1.574 . S
C3776 C3792 1.368 . S
H3777 C3785 0.950 . S
H3778 C3783 0.950 . S
H3779 C3784 0.949 . S
H3780 C3786 0.950 . S
H3781 C3787 0.950 . S
H3782 C3788 0.949 . S
C3783 H3778 0.950 . S
C3783 C3785 1.327 . S
C3783 C3789 1.429 . S
C3784 C3776 1.574 . S
C3784 H3779 0.949 . S
C3784 C3790 1.368 . S
C3785 C3769 1.349 . S
C3785 H3777 0.950 . S
C3785 C3783 1.327 . S
C3786 C3774 1.349 . S
C3786 H3780 0.950 . S
C3786 C3787 1.327 . S
C3787 H3781 0.950 . S
C3787 C3786 1.327 . S
C3787 C3791 1.429 . S
C3788 C3771 1.574 . S
C3788 H3782 0.949 . S
C3788 C3792 1.368 . S
C3789 C3770 1.429 . S
C3789 C3783 1.429 . S
C3789 C3790 1.523 . S
C3790 C3771 1.368 . S
C3790 C3784 1.368 . S
C3790 C3789 1.523 . S
C3791 C3775 1.429 . S
C3791 C3787 1.429 . S
C3791 C3792 1.523 . S
C3792 C3776 1.368 . S
C3792 C3788 1.368 . S
C3792 C3791 1.523 . S
H3793 C3768 0.950 . S
H3794 C3770 0.950 . S
H3795 C3771 0.949 . S
H3796 C3773 0.950 . S
H3797 C3775 0.950 . S
C3798 C3799 1.349 . S
C3798 C3800 1.327 . S
C3798 H3823 0.950 . S
C3799 C3798 1.349 . S
C3799 C3815 1.349 . S
C3800 C3798 1.327 . S
C3800 C3819 1.429 . S
C3800 H3824 0.950 . S
C3801 C3818 1.574 . S
C3801 C3820 1.368 . S
C3801 H3825 0.949 . S
H3802 C3806 0.949 . S
C3803 C3804 1.349 . S
C3803 C3805 1.327 . S
C3803 H3826 0.950 . S
C3804 C3803 1.349 . S
C3804 C3816 1.349 . S
C3805 C3803 1.327 . S
C3805 C3821 1.429 . S
C3805 H3827 0.950 . S
C3806 H3802 0.949 . S
C3806 C3814 1.574 . S
C3806 C3822 1.368 . S
H3807 C3815 0.950 . S
H3808 C3813 0.950 . S
H3809 C3814 0.949 . S
H3810 C3816 0.950 . S
H3811 C3817 0.950 . S
H3812 C3818 0.949 . S
C3813 H3808 0.950 . S
C3813 C3815 1.327 . S
C3813 C3819 1.429 . S
C3814 C3806 1.574 . S
C3814 H3809 0.949 . S
C3814 C3820 1.368 . S
C3815 C3799 1.349 . S
C3815 H3807 0.950 . S
C3815 C3813 1.327 . S
C3816 C3804 1.349 . S
C3816 H3810 0.950 . S
C3816 C3817 1.327 . S
C3817 H3811 0.950 . S
C3817 C3816 1.327 . S
C3817 C3821 1.429 . S
C3818 C3801 1.574 . S
C3818 H3812 0.949 . S
C3818 C3822 1.368 . S
C3819 C3800 1.429 . S
C3819 C3813 1.429 . S
C3819 C3820 1.523 . S
C3820 C3801 1.368 . S
C3820 C3814 1.368 . S
C3820 C3819 1.523 . S
C3821 C3805 1.429 . S
C3821 C3817 1.429 . S
C3821 C3822 1.523 . S
C3822 C3806 1.368 . S
C3822 C3818 1.368 . S
C3822 C3821 1.523 . S
H3823 C3798 0.950 . S
H3824 C3800 0.950 . S
H3825 C3801 0.949 . S
H3826 C3803 0.950 . S
H3827 C3805 0.950 . S
C3828 C3829 1.349 . S
C3828 C3830 1.327 . S
C3828 H3853 0.950 . S
C3829 C3828 1.349 . S
C3829 C3845 1.347 . S
C3830 C3828 1.327 . S
C3830 C3849 1.429 . S
C3830 H3854 0.950 . S
C3831 C3848 1.574 . S
C3831 C3850 1.368 . S
C3831 H3855 0.949 1_455 S
H3832 C3836 0.949 . S
C3833 C3834 1.349 . S
C3833 C3835 1.327 . S
C3833 H3856 0.950 . S
C3834 C3833 1.349 . S
C3834 C3846 1.349 . S
C3835 C3833 1.327 . S
C3835 C3851 1.429 . S
C3835 H3857 0.928 1_455 S
C3836 H3832 0.949 . S
C3836 C3844 1.574 . S
C3836 C3852 1.368 . S
H3837 C3845 0.953 1_655 S
H3838 C3843 0.927 1_655 S
H3839 C3844 0.949 . S
H3840 C3846 0.950 . S
H3841 C3847 0.950 . S
H3842 C3848 0.949 1_655 S
C3843 H3838 0.927 1_455 S
C3843 C3845 1.311 . S
C3843 C3849 1.470 . S
C3844 C3836 1.574 . S
C3844 H3839 0.949 . S
C3844 C3850 1.368 . S
C3845 C3829 1.347 . S
C3845 H3837 0.953 1_455 S
C3845 C3843 1.311 . S
C3846 C3834 1.349 . S
C3846 H3840 0.950 . S
C3846 C3847 1.327 . S
C3847 H3841 0.950 . S
C3847 C3846 1.327 . S
C3847 C3851 1.429 . S
C3848 C3831 1.574 . S
C3848 H3842 0.949 1_455 S
C3848 C3852 1.368 . S
C3849 C3830 1.429 . S
C3849 C3843 1.470 . S
C3849 C3850 1.523 . S
C3850 C3831 1.368 . S
C3850 C3844 1.368 . S
C3850 C3849 1.523 . S
C3851 C3835 1.429 . S
C3851 C3847 1.429 . S
C3851 C3852 1.523 . S
C3852 C3836 1.368 . S
C3852 C3848 1.368 . S
C3852 C3851 1.523 . S
H3853 C3828 0.950 . S
H3854 C3830 0.950 . S
H3855 C3831 0.949 1_655 S
H3856 C3833 0.950 . S
H3857 C3835 0.928 1_655 S
C3858 C3859 1.349 . S
C3858 C3860 1.327 . S
C3858 H3883 0.950 . S
C3859 C3858 1.349 . S
C3859 C3875 1.349 . S
C3860 C3858 1.327 . S
C3860 C3879 1.429 . S
C3860 H3884 0.950 . S
C3861 C3878 1.574 . S
C3861 C3880 1.368 . S
C3861 H3885 0.949 . S
H3862 C3866 0.949 . S
C3863 C3864 1.349 . S
C3863 C3865 1.327 . S
C3863 H3886 0.950 . S
C3864 C3863 1.349 . S
C3864 C3876 1.349 . S
C3865 C3863 1.327 . S
C3865 C3881 1.429 . S
C3865 H3887 0.950 . S
C3866 H3862 0.949 . S
C3866 C3874 1.574 . S
C3866 C3882 1.368 . S
H3867 C3875 0.950 . S
H3868 C3873 0.950 . S
H3869 C3874 0.949 . S
H3870 C3876 0.950 . S
H3871 C3877 0.950 . S
H3872 C3878 0.949 . S
C3873 H3868 0.950 . S
C3873 C3875 1.327 . S
C3873 C3879 1.429 . S
C3874 C3866 1.574 . S
C3874 H3869 0.949 . S
C3874 C3880 1.368 . S
C3875 C3859 1.349 . S
C3875 H3867 0.950 . S
C3875 C3873 1.327 . S
C3876 C3864 1.349 . S
C3876 H3870 0.950 . S
C3876 C3877 1.327 . S
C3877 H3871 0.950 . S
C3877 C3876 1.327 . S
C3877 C3881 1.429 . S
C3878 C3861 1.574 . S
C3878 H3872 0.949 . S
C3878 C3882 1.368 . S
C3879 C3860 1.429 . S
C3879 C3873 1.429 . S
C3879 C3880 1.523 . S
C3880 C3861 1.368 . S
C3880 C3874 1.368 . S
C3880 C3879 1.523 . S
C3881 C3865 1.429 . S
C3881 C3877 1.429 . S
C3881 C3882 1.523 . S
C3882 C3866 1.368 . S
C3882 C3878 1.368 . S
C3882 C3881 1.523 . S
H3883 C3858 0.950 . S
H3884 C3860 0.950 . S
H3885 C3861 0.949 . S
H3886 C3863 0.950 . S
H3887 C3865 0.950 . S
C3888 C3889 1.349 . S
C3888 C3890 1.327 . S
C3888 H3913 0.950 . S
C3889 C3888 1.349 . S
C3889 C3905 1.349 . S
C3890 C3888 1.327 . S
C3890 C3909 1.429 . S
C3890 H3914 0.950 . S
C3891 C3908 1.574 . S
C3891 C3910 1.368 . S
C3891 H3915 0.949 . S
H3892 C3896 0.949 . S
C3893 C3894 1.349 . S
C3893 C3895 1.327 . S
C3893 H3916 0.950 . S
C3894 C3893 1.349 . S
C3894 C3906 1.349 . S
C3895 C3893 1.327 . S
C3895 C3911 1.429 . S
C3895 H3917 0.950 . S
C3896 H3892 0.949 . S
C3896 C3904 1.574 . S
C3896 C3912 1.368 . S
H3897 C3905 0.950 . S
H3898 C3903 0.950 . S
H3899 C3904 0.949 . S
H3900 C3906 0.950 . S
H3901 C3907 0.950 . S
H3902 C3908 0.949 . S
C3903 H3898 0.950 . S
C3903 C3905 1.327 . S
C3903 C3909 1.429 . S
C3904 C3896 1.574 . S
C3904 H3899 0.949 . S
C3904 C3910 1.368 . S
C3905 C3889 1.349 . S
C3905 H3897 0.950 . S
C3905 C3903 1.327 . S
C3906 C3894 1.349 . S
C3906 H3900 0.950 . S
C3906 C3907 1.327 . S
C3907 H3901 0.950 . S
C3907 C3906 1.327 . S
C3907 C3911 1.429 . S
C3908 C3891 1.574 . S
C3908 H3902 0.949 . S
C3908 C3912 1.368 . S
C3909 C3890 1.429 . S
C3909 C3903 1.429 . S
C3909 C3910 1.523 . S
C3910 C3891 1.368 . S
C3910 C3904 1.368 . S
C3910 C3909 1.523 . S
C3911 C3895 1.429 . S
C3911 C3907 1.429 . S
C3911 C3912 1.523 . S
C3912 C3896 1.368 . S
C3912 C3908 1.368 . S
C3912 C3911 1.523 . S
H3913 C3888 0.950 . S
H3914 C3890 0.950 . S
H3915 C3891 0.949 . S
H3916 C3893 0.950 . S
H3917 C3895 0.950 . S
C3918 C3919 1.348 . S
C3918 C3920 1.337 . S
C3918 H3943 0.941 1_556 S
C3919 C3918 1.348 . S
C3919 C3935 1.349 . S
C3920 C3918 1.337 . S
C3920 C3939 1.429 . S
C3920 H3944 0.950 . S
C3921 C3938 1.574 . S
C3921 C3940 1.368 . S
C3921 H3945 0.949 . S
H3922 C3926 0.949 . S
C3923 C3924 1.349 . S
C3923 C3925 1.327 . S
C3923 H3946 0.950 . S
C3924 C3923 1.349 . S
C3924 C3936 1.349 . S
C3925 C3923 1.327 . S
C3925 C3941 1.429 . S
C3925 H3947 0.950 . S
C3926 H3922 0.949 . S
C3926 C3934 1.574 . S
C3926 C3942 1.368 . S
H3927 C3935 0.950 . S
H3928 C3933 0.950 . S
H3929 C3934 0.949 . S
H3930 C3936 0.950 . S
H3931 C3937 0.950 . S
H3932 C3938 0.949 . S
C3933 H3928 0.950 . S
C3933 C3935 1.327 . S
C3933 C3939 1.429 . S
C3934 C3926 1.574 . S
C3934 H3929 0.949 . S
C3934 C3940 1.368 . S
C3935 C3919 1.349 . S
C3935 H3927 0.950 . S
C3935 C3933 1.327 . S
C3936 C3924 1.349 . S
C3936 H3930 0.950 . S
C3936 C3937 1.327 . S
C3937 H3931 0.950 . S
C3937 C3936 1.327 . S
C3937 C3941 1.429 . S
C3938 C3921 1.574 . S
C3938 H3932 0.949 . S
C3938 C3942 1.368 . S
C3939 C3920 1.429 . S
C3939 C3933 1.429 . S
C3939 C3940 1.523 . S
C3940 C3921 1.368 . S
C3940 C3934 1.368 . S
C3940 C3939 1.523 . S
C3941 C3925 1.429 . S
C3941 C3937 1.429 . S
C3941 C3942 1.523 . S
C3942 C3926 1.368 . S
C3942 C3938 1.368 . S
C3942 C3941 1.523 . S
H3943 C3918 0.941 1_554 S
H3944 C3920 0.950 . S
H3945 C3921 0.949 . S
H3946 C3923 0.950 . S
H3947 C3925 0.950 . S
C3948 C3949 1.349 . S
C3948 C3950 1.327 . S
C3948 H3973 0.950 . S
C3949 C3948 1.349 . S
C3949 C3965 1.349 . S
C3950 C3948 1.327 . S
C3950 C3969 1.429 . S
C3950 H3974 0.950 . S
C3951 C3968 1.574 . S
C3951 C3970 1.368 . S
C3951 H3975 0.949 . S
H3952 C3956 0.949 . S
C3953 C3954 1.349 . S
C3953 C3955 1.327 . S
C3953 H3976 0.950 . S
C3954 C3953 1.349 . S
C3954 C3966 1.349 . S
C3955 C3953 1.327 . S
C3955 C3971 1.429 . S
C3955 H3977 0.950 . S
C3956 H3952 0.949 . S
C3956 C3964 1.574 . S
C3956 C3972 1.368 . S
H3957 C3965 0.950 . S
H3958 C3963 0.950 . S
H3959 C3964 0.949 . S
H3960 C3966 0.950 . S
H3961 C3967 0.950 . S
H3962 C3968 0.949 . S
C3963 H3958 0.950 . S
C3963 C3965 1.327 . S
C3963 C3969 1.429 . S
C3964 C3956 1.574 . S
C3964 H3959 0.949 . S
C3964 C3970 1.368 . S
C3965 C3949 1.349 . S
C3965 H3957 0.950 . S
C3965 C3963 1.327 . S
C3966 C3954 1.349 . S
C3966 H3960 0.950 . S
C3966 C3967 1.327 . S
C3967 H3961 0.950 . S
C3967 C3966 1.327 . S
C3967 C3971 1.429 . S
C3968 C3951 1.574 . S
C3968 H3962 0.949 . S
C3968 C3972 1.368 . S
C3969 C3950 1.429 . S
C3969 C3963 1.429 . S
C3969 C3970 1.523 . S
C3970 C3951 1.368 . S
C3970 C3964 1.368 . S
C3970 C3969 1.523 . S
C3971 C3955 1.429 . S
C3971 C3967 1.429 . S
C3971 C3972 1.523 . S
C3972 C3956 1.368 . S
C3972 C3968 1.368 . S
C3972 C3971 1.523 . S
H3973 C3948 0.950 . S
H3974 C3950 0.950 . S
H3975 C3951 0.949 . S
H3976 C3953 0.950 . S
H3977 C3955 0.950 . S
C3978 C3979 1.349 . S
C3978 C3980 1.327 . S
C3978 H4003 0.950 . S
C3979 C3978 1.349 . S
C3979 C3995 1.349 . S
C3980 C3978 1.327 . S
C3980 C3999 1.429 . S
C3980 H4004 0.950 . S
C3981 C3998 1.574 . S
C3981 C4000 1.368 . S
C3981 H4005 0.949 . S
H3982 C3986 0.949 . S
C3983 C3984 1.349 . S
C3983 C3985 1.327 . S
C3983 H4006 0.950 . S
C3984 C3983 1.349 . S
C3984 C3996 1.349 . S
C3985 C3983 1.327 . S
C3985 C4001 1.429 . S
C3985 H4007 0.950 . S
C3986 H3982 0.949 . S
C3986 C3994 1.574 . S
C3986 C4002 1.368 . S
H3987 C3995 0.950 . S
H3988 C3993 0.950 . S
H3989 C3994 0.949 . S
H3990 C3996 0.950 . S
H3991 C3997 0.950 . S
H3992 C3998 0.949 . S
C3993 H3988 0.950 . S
C3993 C3995 1.327 . S
C3993 C3999 1.429 . S
C3994 C3986 1.574 . S
C3994 H3989 0.949 . S
C3994 C4000 1.368 . S
C3995 C3979 1.349 . S
C3995 H3987 0.950 . S
C3995 C3993 1.327 . S
C3996 C3984 1.349 . S
C3996 H3990 0.950 . S
C3996 C3997 1.327 . S
C3997 H3991 0.950 . S
C3997 C3996 1.327 . S
C3997 C4001 1.429 . S
C3998 C3981 1.574 . S
C3998 H3992 0.949 . S
C3998 C4002 1.368 . S
C3999 C3980 1.429 . S
C3999 C3993 1.429 . S
C3999 C4000 1.523 . S
C4000 C3981 1.368 . S
C4000 C3994 1.368 . S
C4000 C3999 1.523 . S
C4001 C3985 1.429 . S
C4001 C3997 1.429 . S
C4001 C4002 1.523 . S
C4002 C3986 1.368 . S
C4002 C3998 1.368 . S
C4002 C4001 1.523 . S
H4003 C3978 0.950 . S
H4004 C3980 0.950 . S
H4005 C3981 0.949 . S
H4006 C3983 0.950 . S
H4007 C3985 0.950 . S
C4008 C4009 1.349 . S
C4008 C4010 1.327 . S
C4008 H4033 0.950 . S
C4009 C4008 1.349 . S
C4009 C4025 1.349 . S
C4010 C4008 1.327 . S
C4010 C4029 1.429 . S
C4010 H4034 0.950 . S
C4011 C4028 1.574 . S
C4011 C4030 1.368 . S
C4011 H4035 0.949 . S
H4012 C4016 0.949 . S
C4013 C4014 1.349 . S
C4013 C4015 1.327 . S
C4013 H4036 0.950 . S
C4014 C4013 1.349 . S
C4014 C4026 1.349 . S
C4015 C4013 1.327 . S
C4015 C4031 1.429 . S
C4015 H4037 0.950 . S
C4016 H4012 0.949 . S
C4016 C4024 1.574 . S
C4016 C4032 1.368 . S
H4017 C4025 0.950 . S
H4018 C4023 0.950 . S
H4019 C4024 0.949 . S
H4020 C4026 0.950 . S
H4021 C4027 0.950 . S
H4022 C4028 0.949 . S
C4023 H4018 0.950 . S
C4023 C4025 1.327 . S
C4023 C4029 1.429 . S
C4024 C4016 1.574 . S
C4024 H4019 0.949 . S
C4024 C4030 1.368 . S
C4025 C4009 1.349 . S
C4025 H4017 0.950 . S
C4025 C4023 1.327 . S
C4026 C4014 1.349 . S
C4026 H4020 0.950 . S
C4026 C4027 1.327 . S
C4027 H4021 0.950 . S
C4027 C4026 1.327 . S
C4027 C4031 1.429 . S
C4028 C4011 1.574 . S
C4028 H4022 0.949 . S
C4028 C4032 1.368 . S
C4029 C4010 1.429 . S
C4029 C4023 1.429 . S
C4029 C4030 1.523 . S
C4030 C4011 1.368 . S
C4030 C4024 1.368 . S
C4030 C4029 1.523 . S
C4031 C4015 1.429 . S
C4031 C4027 1.429 . S
C4031 C4032 1.523 . S
C4032 C4016 1.368 . S
C4032 C4028 1.368 . S
C4032 C4031 1.523 . S
H4033 C4008 0.950 . S
H4034 C4010 0.950 . S
H4035 C4011 0.949 . S
H4036 C4013 0.950 . S
H4037 C4015 0.950 . S
C4038 C4039 1.349 . S
C4038 C4040 1.327 . S
C4038 H4063 0.950 . S
C4039 C4038 1.349 . S
C4039 C4055 1.349 . S
C4040 C4038 1.327 . S
C4040 C4059 1.429 . S
C4040 H4064 0.950 . S
C4041 C4058 1.574 . S
C4041 C4060 1.368 . S
C4041 H4065 0.949 . S
H4042 C4046 0.949 . S
C4043 C4044 1.349 . S
C4043 C4045 1.327 . S
C4043 H4066 0.950 . S
C4044 C4043 1.349 . S
C4044 C4056 1.349 . S
C4045 C4043 1.327 . S
C4045 C4061 1.429 . S
C4045 H4067 0.950 . S
C4046 H4042 0.949 . S
C4046 C4054 1.574 . S
C4046 C4062 1.368 . S
H4047 C4055 0.950 . S
H4048 C4053 0.950 . S
H4049 C4054 0.949 . S
H4050 C4056 0.950 . S
H4051 C4057 0.950 . S
H4052 C4058 0.949 . S
C4053 H4048 0.950 . S
C4053 C4055 1.327 . S
C4053 C4059 1.429 . S
C4054 C4046 1.574 . S
C4054 H4049 0.949 . S
C4054 C4060 1.368 . S
C4055 C4039 1.349 . S
C4055 H4047 0.950 . S
C4055 C4053 1.327 . S
C4056 C4044 1.349 . S
C4056 H4050 0.950 . S
C4056 C4057 1.327 . S
C4057 H4051 0.950 . S
C4057 C4056 1.327 . S
C4057 C4061 1.429 . S
C4058 C4041 1.574 . S
C4058 H4052 0.949 . S
C4058 C4062 1.368 . S
C4059 C4040 1.429 . S
C4059 C4053 1.429 . S
C4059 C4060 1.523 . S
C4060 C4041 1.368 . S
C4060 C4054 1.368 . S
C4060 C4059 1.523 . S
C4061 C4045 1.429 . S
C4061 C4057 1.429 . S
C4061 C4062 1.523 . S
C4062 C4046 1.368 . S
C4062 C4058 1.368 . S
C4062 C4061 1.523 . S
H4063 C4038 0.950 . S
H4064 C4040 0.950 . S
H4065 C4041 0.949 . S
H4066 C4043 0.950 . S
H4067 C4045 0.950 . S
C4068 C4069 1.349 . S
C4068 C4070 1.327 . S
C4068 H4093 0.950 . S
C4069 C4068 1.349 . S
C4069 C4085 1.349 . S
C4070 C4068 1.327 . S
C4070 C4089 1.429 . S
C4070 H4094 0.950 . S
C4071 C4088 1.574 . S
C4071 C4090 1.368 . S
C4071 H4095 0.949 . S
H4072 C4076 0.949 . S
C4073 C4074 1.349 . S
C4073 C4075 1.327 . S
C4073 H4096 0.950 . S
C4074 C4073 1.349 . S
C4074 C4086 1.349 . S
C4075 C4073 1.327 . S
C4075 C4091 1.429 . S
C4075 H4097 0.950 . S
C4076 H4072 0.949 . S
C4076 C4084 1.574 . S
C4076 C4092 1.368 . S
H4077 C4085 0.950 . S
H4078 C4083 0.950 . S
H4079 C4084 0.949 . S
H4080 C4086 0.950 . S
H4081 C4087 0.950 . S
H4082 C4088 0.949 . S
C4083 H4078 0.950 . S
C4083 C4085 1.327 . S
C4083 C4089 1.429 . S
C4084 C4076 1.574 . S
C4084 H4079 0.949 . S
C4084 C4090 1.368 . S
C4085 C4069 1.349 . S
C4085 H4077 0.950 . S
C4085 C4083 1.327 . S
C4086 C4074 1.349 . S
C4086 H4080 0.950 . S
C4086 C4087 1.327 . S
C4087 H4081 0.950 . S
C4087 C4086 1.327 . S
C4087 C4091 1.429 . S
C4088 C4071 1.574 . S
C4088 H4082 0.949 . S
C4088 C4092 1.368 . S
C4089 C4070 1.429 . S
C4089 C4083 1.429 . S
C4089 C4090 1.523 . S
C4090 C4071 1.368 . S
C4090 C4084 1.368 . S
C4090 C4089 1.523 . S
C4091 C4075 1.429 . S
C4091 C4087 1.429 . S
C4091 C4092 1.523 . S
C4092 C4076 1.368 . S
C4092 C4088 1.368 . S
C4092 C4091 1.523 . S
H4093 C4068 0.950 . S
H4094 C4070 0.950 . S
H4095 C4071 0.949 . S
H4096 C4073 0.950 . S
H4097 C4075 0.950 . S
C4098 C4099 1.349 . S
C4098 C4100 1.327 . S
C4098 H4123 0.950 . S
C4099 C4098 1.349 . S
C4099 C4115 1.349 . S
C4100 C4098 1.327 . S
C4100 C4119 1.429 . S
C4100 H4124 0.950 . S
C4101 C4118 1.574 . S
C4101 C4120 1.368 . S
C4101 H4125 0.949 . S
H4102 C4106 0.949 . S
C4103 C4104 1.349 . S
C4103 C4105 1.327 . S
C4103 H4126 0.950 . S
C4104 C4103 1.349 . S
C4104 C4116 1.349 . S
C4105 C4103 1.327 . S
C4105 C4121 1.429 . S
C4105 H4127 0.950 . S
C4106 H4102 0.949 . S
C4106 C4114 1.574 . S
C4106 C4122 1.368 . S
H4107 C4115 0.950 . S
H4108 C4113 0.950 . S
H4109 C4114 0.949 . S
H4110 C4116 0.950 . S
H4111 C4117 0.950 . S
H4112 C4118 0.949 . S
C4113 H4108 0.950 . S
C4113 C4115 1.327 . S
C4113 C4119 1.429 . S
C4114 C4106 1.574 . S
C4114 H4109 0.949 . S
C4114 C4120 1.368 . S
C4115 C4099 1.349 . S
C4115 H4107 0.950 . S
C4115 C4113 1.327 . S
C4116 C4104 1.349 . S
C4116 H4110 0.950 . S
C4116 C4117 1.327 . S
C4117 H4111 0.950 . S
C4117 C4116 1.327 . S
C4117 C4121 1.429 . S
C4118 C4101 1.574 . S
C4118 H4112 0.949 . S
C4118 C4122 1.368 . S
C4119 C4100 1.429 . S
C4119 C4113 1.429 . S
C4119 C4120 1.523 . S
C4120 C4101 1.368 . S
C4120 C4114 1.368 . S
C4120 C4119 1.523 . S
C4121 C4105 1.429 . S
C4121 C4117 1.429 . S
C4121 C4122 1.523 . S
C4122 C4106 1.368 . S
C4122 C4118 1.368 . S
C4122 C4121 1.523 . S
H4123 C4098 0.950 . S
H4124 C4100 0.950 . S
H4125 C4101 0.949 . S
H4126 C4103 0.950 . S
H4127 C4105 0.950 . S
C4128 C4129 1.349 . S
C4128 C4130 1.327 . S
C4128 H4153 0.950 . S
C4129 C4128 1.349 . S
C4129 C4145 1.349 . S
C4130 C4128 1.327 . S
C4130 C4149 1.429 . S
C4130 H4154 0.950 . S
C4131 C4148 1.574 . S
C4131 C4150 1.368 . S
C4131 H4155 0.949 . S
H4132 C4136 0.949 . S
C4133 C4134 1.349 . S
C4133 C4135 1.327 . S
C4133 H4156 0.950 . S
C4134 C4133 1.349 . S
C4134 C4146 1.349 . S
C4135 C4133 1.327 . S
C4135 C4151 1.429 . S
C4135 H4157 0.950 . S
C4136 H4132 0.949 . S
C4136 C4144 1.574 . S
C4136 C4152 1.368 . S
H4137 C4145 0.950 . S
H4138 C4143 0.950 . S
H4139 C4144 0.949 . S
H4140 C4146 0.950 . S
H4141 C4147 0.950 . S
H4142 C4148 0.949 . S
C4143 H4138 0.950 . S
C4143 C4145 1.327 . S
C4143 C4149 1.429 . S
C4144 C4136 1.574 . S
C4144 H4139 0.949 . S
C4144 C4150 1.368 . S
C4145 C4129 1.349 . S
C4145 H4137 0.950 . S
C4145 C4143 1.327 . S
C4146 C4134 1.349 . S
C4146 H4140 0.950 . S
C4146 C4147 1.327 . S
C4147 H4141 0.950 . S
C4147 C4146 1.327 . S
C4147 C4151 1.429 . S
C4148 C4131 1.574 . S
C4148 H4142 0.949 . S
C4148 C4152 1.368 . S
C4149 C4130 1.429 . S
C4149 C4143 1.429 . S
C4149 C4150 1.523 . S
C4150 C4131 1.368 . S
C4150 C4144 1.368 . S
C4150 C4149 1.523 . S
C4151 C4135 1.429 . S
C4151 C4147 1.429 . S
C4151 C4152 1.523 . S
C4152 C4136 1.368 . S
C4152 C4148 1.368 . S
C4152 C4151 1.523 . S
H4153 C4128 0.950 . S
H4154 C4130 0.950 . S
H4155 C4131 0.949 . S
H4156 C4133 0.950 . S
H4157 C4135 0.950 . S
C4158 C4159 1.349 . S
C4158 C4160 1.327 . S
C4158 H4183 0.950 . S
C4159 C4158 1.349 . S
C4159 C4175 1.349 . S
C4160 C4158 1.327 . S
C4160 C4179 1.429 . S
C4160 H4184 0.950 . S
C4161 C4178 1.574 . S
C4161 C4180 1.368 . S
C4161 H4185 0.949 . S
H4162 C4166 0.949 . S
C4163 C4164 1.349 . S
C4163 C4165 1.327 . S
C4163 H4186 0.950 . S
C4164 C4163 1.349 . S
C4164 C4176 1.349 . S
C4165 C4163 1.327 . S
C4165 C4181 1.429 . S
C4165 H4187 0.950 . S
C4166 H4162 0.949 . S
C4166 C4174 1.574 . S
C4166 C4182 1.368 . S
H4167 C4175 0.950 . S
H4168 C4173 0.950 . S
H4169 C4174 0.949 . S
H4170 C4176 0.950 . S
H4171 C4177 0.950 . S
H4172 C4178 0.949 . S
C4173 H4168 0.950 . S
C4173 C4175 1.327 . S
C4173 C4179 1.429 . S
C4174 C4166 1.574 . S
C4174 H4169 0.949 . S
C4174 C4180 1.368 . S
C4175 C4159 1.349 . S
C4175 H4167 0.950 . S
C4175 C4173 1.327 . S
C4176 C4164 1.349 . S
C4176 H4170 0.950 . S
C4176 C4177 1.327 . S
C4177 H4171 0.950 . S
C4177 C4176 1.327 . S
C4177 C4181 1.429 . S
C4178 C4161 1.574 . S
C4178 H4172 0.949 . S
C4178 C4182 1.368 . S
C4179 C4160 1.429 . S
C4179 C4173 1.429 . S
C4179 C4180 1.523 . S
C4180 C4161 1.368 . S
C4180 C4174 1.368 . S
C4180 C4179 1.523 . S
C4181 C4165 1.429 . S
C4181 C4177 1.429 . S
C4181 C4182 1.523 . S
C4182 C4166 1.368 . S
C4182 C4178 1.368 . S
C4182 C4181 1.523 . S
H4183 C4158 0.950 . S
H4184 C4160 0.950 . S
H4185 C4161 0.949 . S
H4186 C4163 0.950 . S
H4187 C4165 0.950 . S
C4188 C4189 1.349 . S
C4188 C4190 1.327 . S
C4188 H4213 0.918 1_565 S
C4189 C4188 1.349 . S
C4189 C4205 1.349 . S
C4190 C4188 1.327 . S
C4190 C4209 1.429 . S
C4190 H4214 0.950 . S
C4191 C4208 1.574 . S
C4191 C4210 1.368 . S
C4191 H4215 0.949 . S
H4192 C4196 0.949 . S
C4193 C4194 1.349 . S
C4193 C4195 1.327 . S
C4193 H4216 0.950 . S
C4194 C4193 1.349 . S
C4194 C4206 1.349 . S
C4195 C4193 1.327 . S
C4195 C4211 1.429 . S
C4195 H4217 0.950 . S
C4196 H4192 0.949 . S
C4196 C4204 1.574 . S
C4196 C4212 1.368 . S
H4197 C4205 0.950 . S
H4198 C4203 0.950 . S
H4199 C4204 0.949 . S
H4200 C4206 0.950 . S
H4201 C4207 0.950 . S
H4202 C4208 0.949 . S
C4203 H4198 0.950 . S
C4203 C4205 1.327 . S
C4203 C4209 1.429 . S
C4204 C4196 1.574 . S
C4204 H4199 0.949 . S
C4204 C4210 1.368 . S
C4205 C4189 1.349 . S
C4205 H4197 0.950 . S
C4205 C4203 1.327 . S
C4206 C4194 1.349 . S
C4206 H4200 0.950 . S
C4206 C4207 1.327 . S
C4207 H4201 0.950 . S
C4207 C4206 1.327 . S
C4207 C4211 1.429 . S
C4208 C4191 1.574 . S
C4208 H4202 0.949 . S
C4208 C4212 1.368 . S
C4209 C4190 1.429 . S
C4209 C4203 1.429 . S
C4209 C4210 1.523 . S
C4210 C4191 1.368 . S
C4210 C4204 1.368 . S
C4210 C4209 1.523 . S
C4211 C4195 1.429 . S
C4211 C4207 1.429 . S
C4211 C4212 1.523 . S
C4212 C4196 1.368 . S
C4212 C4208 1.368 . S
C4212 C4211 1.523 . S
H4213 C4188 0.918 1_545 S
H4214 C4190 0.950 . S
H4215 C4191 0.949 . S
H4216 C4193 0.950 . S
H4217 C4195 0.950 . S
C4218 C4219 1.349 1_556 S
C4218 C4220 1.327 . S
C4218 H4243 0.950 . S
C4219 C4218 1.349 1_554 S
C4219 C4235 1.349 . S
C4220 C4218 1.327 . S
C4220 C4239 1.429 1_556 S
C4220 H4244 0.950 . S
C4221 C4238 1.574 . S
C4221 C4240 1.368 . S
C4221 H4245 0.949 . S
H4222 C4226 0.949 . S
C4223 C4224 1.349 1_565 S
C4223 C4225 1.327 . S
C4223 H4246 0.950 . S
C4224 C4223 1.349 1_545 S
C4224 C4236 1.349 . S
C4225 C4223 1.327 . S
C4225 C4241 1.429 . S
C4225 H4247 0.950 . S
C4226 H4222 0.949 . S
C4226 C4234 1.574 . S
C4226 C4242 1.368 1_556 S
H4227 C4235 0.950 . S
H4228 C4233 0.950 . S
H4229 C4234 0.949 . S
H4230 C4236 0.950 1_556 S
H4231 C4237 0.950 1_556 S
H4232 C4238 0.949 . S
C4233 H4228 0.950 . S
C4233 C4235 1.327 . S
C4233 C4239 1.429 . S
C4234 C4226 1.574 . S
C4234 H4229 0.949 . S
C4234 C4240 1.368 1_556 S
C4235 C4219 1.349 . S
C4235 H4227 0.950 . S
C4235 C4233 1.327 . S
C4236 C4224 1.349 . S
C4236 H4230 0.950 1_554 S
C4236 C4237 1.327 . S
C4237 H4231 0.950 1_554 S
C4237 C4236 1.327 . S
C4237 C4241 1.429 1_545 S
C4238 C4221 1.574 . S
C4238 H4232 0.949 . S
C4238 C4242 1.368 . S
C4239 C4220 1.429 1_554 S
C4239 C4233 1.429 . S
C4239 C4240 1.523 . S
C4240 C4221 1.368 . S
C4240 C4234 1.368 1_554 S
C4240 C4239 1.523 . S
C4241 C4225 1.429 . S
C4241 C4237 1.429 1_565 S
C4241 C4242 1.523 . S
C4242 C4226 1.368 1_554 S
C4242 C4238 1.368 . S
C4242 C4241 1.523 . S
H4243 C4218 0.950 . S
H4244 C4220 0.950 . S
H4245 C4221 0.949 . S
H4246 C4223 0.950 . S
H4247 C4225 0.950 . S
C4248 C4249 1.349 . S
C4248 C4250 1.327 . S
C4248 H4273 0.950 . S
C4249 C4248 1.349 . S
C4249 C4265 1.349 . S
C4250 C4248 1.327 . S
C4250 C4269 1.429 . S
C4250 H4274 0.950 . S
C4251 C4268 1.574 . S
C4251 C4270 1.368 . S
C4251 H4275 0.949 . S
H4252 C4256 0.949 . S
C4253 C4254 1.349 . S
C4253 C4255 1.327 . S
C4253 H4276 0.950 . S
C4254 C4253 1.349 . S
C4254 C4266 1.349 . S
C4255 C4253 1.327 . S
C4255 C4271 1.429 . S
C4255 H4277 0.950 . S
C4256 H4252 0.949 . S
C4256 C4264 1.574 . S
C4256 C4272 1.368 . S
H4257 C4265 0.950 . S
H4258 C4263 0.950 . S
H4259 C4264 0.949 . S
H4260 C4266 0.950 . S
H4261 C4267 0.950 . S
H4262 C4268 0.949 . S
C4263 H4258 0.950 . S
C4263 C4265 1.327 . S
C4263 C4269 1.429 . S
C4264 C4256 1.574 . S
C4264 H4259 0.949 . S
C4264 C4270 1.368 . S
C4265 C4249 1.349 . S
C4265 H4257 0.950 . S
C4265 C4263 1.327 . S
C4266 C4254 1.349 . S
C4266 H4260 0.950 . S
C4266 C4267 1.327 . S
C4267 H4261 0.950 . S
C4267 C4266 1.327 . S
C4267 C4271 1.429 . S
C4268 C4251 1.574 . S
C4268 H4262 0.949 . S
C4268 C4272 1.368 . S
C4269 C4250 1.429 . S
C4269 C4263 1.429 . S
C4269 C4270 1.523 . S
C4270 C4251 1.368 . S
C4270 C4264 1.368 . S
C4270 C4269 1.523 . S
C4271 C4255 1.429 . S
C4271 C4267 1.429 . S
C4271 C4272 1.523 . S
C4272 C4256 1.368 . S
C4272 C4268 1.368 . S
C4272 C4271 1.523 . S
H4273 C4248 0.950 . S
H4274 C4250 0.950 . S
H4275 C4251 0.949 . S
H4276 C4253 0.950 . S
H4277 C4255 0.950 . S
C4278 C4279 1.349 . S
C4278 C4280 1.327 . S
C4278 H4303 0.950 . S
C4279 C4278 1.349 . S
C4279 C4295 1.349 1_554 S
C4280 C4278 1.327 . S
C4280 C4299 1.429 . S
C4280 H4304 0.950 . S
C4281 C4298 1.571 1_556 S
C4281 C4300 1.368 1_556 S
C4281 H4305 0.949 . S
H4282 C4286 0.949 . S
C4283 C4284 1.349 . S
C4283 C4285 1.327 . S
C4283 H4306 0.950 1_554 S
C4284 C4283 1.349 . S
C4284 C4296 1.349 . S
C4285 C4283 1.327 . S
C4285 C4301 1.429 . S
C4285 H4307 0.950 1_554 S
C4286 H4282 0.949 . S
C4286 C4294 1.574 . S
C4286 C4302 1.368 . S
H4287 C4295 0.950 . S
H4288 C4293 0.950 . S
H4289 C4294 0.949 . S
H4290 C4296 0.950 . S
H4291 C4297 0.950 . S
H4292 C4298 0.904 1_556 S
C4293 H4288 0.950 . S
C4293 C4295 1.327 . S
C4293 C4299 1.429 1_556 S
C4294 C4286 1.574 . S
C4294 H4289 0.949 . S
C4294 C4300 1.368 . S
C4295 C4279 1.349 1_556 S
C4295 H4287 0.950 . S
C4295 C4293 1.327 . S
C4296 C4284 1.349 . S
C4296 H4290 0.950 . S
C4296 C4297 1.327 . S
C4297 H4291 0.950 . S
C4297 C4296 1.327 . S
C4297 C4301 1.429 . S
C4298 C4281 1.571 1_554 S
C4298 H4292 0.904 1_554 S
C4298 C4302 1.422 . S
C4299 C4280 1.429 . S
C4299 C4293 1.429 1_554 S
C4299 C4300 1.523 . S
C4300 C4281 1.368 1_554 S
C4300 C4294 1.368 . S
C4300 C4299 1.523 . S
C4301 C4285 1.429 . S
C4301 C4297 1.429 . S
C4301 C4302 1.523 . S
C4302 C4286 1.368 . S
C4302 C4298 1.422 . S
C4302 C4301 1.523 . S
H4303 C4278 0.950 . S
H4304 C4280 0.950 . S
H4305 C4281 0.949 . S
H4306 C4283 0.950 1_556 S
H4307 C4285 0.950 1_556 S
C4308 C4309 1.349 . S
C4308 C4310 1.327 . S
C4308 H4333 0.950 . S
C4309 C4308 1.349 . S
C4309 C4325 1.349 . S
C4310 C4308 1.327 . S
C4310 C4329 1.429 . S
C4310 H4334 0.950 . S
C4311 C4328 1.574 . S
C4311 C4330 1.368 . S
C4311 H4335 0.949 . S
H4312 C4316 0.949 . S
C4313 C4314 1.349 . S
C4313 C4315 1.327 . S
C4313 H4336 0.950 . S
C4314 C4313 1.349 . S
C4314 C4326 1.349 . S
C4315 C4313 1.327 . S
C4315 C4331 1.429 . S
C4315 H4337 0.950 . S
C4316 H4312 0.949 . S
C4316 C4324 1.574 . S
C4316 C4332 1.368 . S
H4317 C4325 0.950 . S
H4318 C4323 0.950 . S
H4319 C4324 0.949 . S
H4320 C4326 0.950 . S
H4321 C4327 0.950 . S
H4322 C4328 0.949 . S
C4323 H4318 0.950 . S
C4323 C4325 1.327 . S
C4323 C4329 1.429 . S
C4324 C4316 1.574 . S
C4324 H4319 0.949 . S
C4324 C4330 1.368 . S
C4325 C4309 1.349 . S
C4325 H4317 0.950 . S
C4325 C4323 1.327 . S
C4326 C4314 1.349 . S
C4326 H4320 0.950 . S
C4326 C4327 1.327 . S
C4327 H4321 0.950 . S
C4327 C4326 1.327 . S
C4327 C4331 1.429 . S
C4328 C4311 1.574 . S
C4328 H4322 0.949 . S
C4328 C4332 1.368 . S
C4329 C4310 1.429 . S
C4329 C4323 1.429 . S
C4329 C4330 1.523 . S
C4330 C4311 1.368 . S
C4330 C4324 1.368 . S
C4330 C4329 1.523 . S
C4331 C4315 1.429 . S
C4331 C4327 1.429 . S
C4331 C4332 1.523 . S
C4332 C4316 1.368 . S
C4332 C4328 1.368 . S
C4332 C4331 1.523 . S
H4333 C4308 0.950 . S
H4334 C4310 0.950 . S
H4335 C4311 0.949 . S
H4336 C4313 0.950 . S
H4337 C4315 0.950 . S
C4338 C4339 1.349 . S
C4338 C4340 1.327 . S
C4338 H4363 0.950 . S
C4339 C4338 1.349 . S
C4339 C4355 1.349 . S
C4340 C4338 1.327 . S
C4340 C4359 1.429 . S
C4340 H4364 0.950 . S
C4341 C4358 1.574 . S
C4341 C4360 1.368 . S
C4341 H4365 0.949 . S
H4342 C4346 0.949 . S
C4343 C4344 1.349 . S
C4343 C4345 1.327 . S
C4343 H4366 0.950 . S
C4344 C4343 1.349 . S
C4344 C4356 1.349 . S
C4345 C4343 1.327 . S
C4345 C4361 1.429 . S
C4345 H4367 0.950 . S
C4346 H4342 0.949 . S
C4346 C4354 1.574 . S
C4346 C4362 1.368 . S
H4347 C4355 0.950 . S
H4348 C4353 0.950 . S
H4349 C4354 0.949 . S
H4350 C4356 0.950 . S
H4351 C4357 0.950 . S
H4352 C4358 0.949 . S
C4353 H4348 0.950 . S
C4353 C4355 1.327 . S
C4353 C4359 1.429 . S
C4354 C4346 1.574 . S
C4354 H4349 0.949 . S
C4354 C4360 1.368 . S
C4355 C4339 1.349 . S
C4355 H4347 0.950 . S
C4355 C4353 1.327 . S
C4356 C4344 1.349 . S
C4356 H4350 0.950 . S
C4356 C4357 1.327 . S
C4357 H4351 0.950 . S
C4357 C4356 1.327 . S
C4357 C4361 1.429 . S
C4358 C4341 1.574 . S
C4358 H4352 0.949 . S
C4358 C4362 1.368 . S
C4359 C4340 1.429 . S
C4359 C4353 1.429 . S
C4359 C4360 1.523 . S
C4360 C4341 1.368 . S
C4360 C4354 1.368 . S
C4360 C4359 1.523 . S
C4361 C4345 1.429 . S
C4361 C4357 1.429 . S
C4361 C4362 1.523 . S
C4362 C4346 1.368 . S
C4362 C4358 1.368 . S
C4362 C4361 1.523 . S
H4363 C4338 0.950 . S
H4364 C4340 0.950 . S
H4365 C4341 0.949 . S
H4366 C4343 0.950 . S
H4367 C4345 0.950 . S
C4368 C4369 1.349 . S
C4368 C4370 1.327 . S
C4368 H4393 0.950 . S
C4369 C4368 1.349 . S
C4369 C4385 1.349 . S
C4370 C4368 1.327 . S
C4370 C4389 1.429 . S
C4370 H4394 0.950 . S
C4371 C4388 1.574 . S
C4371 C4390 1.368 . S
C4371 H4395 0.949 . S
H4372 C4376 0.949 . S
C4373 C4374 1.349 . S
C4373 C4375 1.327 . S
C4373 H4396 0.950 . S
C4374 C4373 1.349 . S
C4374 C4386 1.349 . S
C4375 C4373 1.327 . S
C4375 C4391 1.429 . S
C4375 H4397 0.950 . S
C4376 H4372 0.949 . S
C4376 C4384 1.574 . S
C4376 C4392 1.368 . S
H4377 C4385 0.950 . S
H4378 C4383 0.950 . S
H4379 C4384 0.949 . S
H4380 C4386 0.950 . S
H4381 C4387 0.950 . S
H4382 C4388 0.949 . S
C4383 H4378 0.950 . S
C4383 C4385 1.327 . S
C4383 C4389 1.429 . S
C4384 C4376 1.574 . S
C4384 H4379 0.949 . S
C4384 C4390 1.368 . S
C4385 C4369 1.349 . S
C4385 H4377 0.950 . S
C4385 C4383 1.327 . S
C4386 C4374 1.349 . S
C4386 H4380 0.950 . S
C4386 C4387 1.327 . S
C4387 H4381 0.950 . S
C4387 C4386 1.327 . S
C4387 C4391 1.429 . S
C4388 C4371 1.574 . S
C4388 H4382 0.949 . S
C4388 C4392 1.368 . S
C4389 C4370 1.429 . S
C4389 C4383 1.429 . S
C4389 C4390 1.523 . S
C4390 C4371 1.368 . S
C4390 C4384 1.368 . S
C4390 C4389 1.523 . S
C4391 C4375 1.429 . S
C4391 C4387 1.429 . S
C4391 C4392 1.523 . S
C4392 C4376 1.368 . S
C4392 C4388 1.368 . S
C4392 C4391 1.523 . S
H4393 C4368 0.950 . S
H4394 C4370 0.950 . S
H4395 C4371 0.949 . S
H4396 C4373 0.950 . S
H4397 C4375 0.950 . S
C4398 C4399 1.349 . S
C4398 C4400 1.327 . S
C4398 H4423 0.950 . S
C4399 C4398 1.349 . S
C4399 C4415 1.349 . S
C4400 C4398 1.327 . S
C4400 C4419 1.429 . S
C4400 H4424 0.950 . S
C4401 C4418 1.574 . S
C4401 C4420 1.368 . S
C4401 H4425 0.949 . S
H4402 C4406 0.949 . S
C4403 C4404 1.349 . S
C4403 C4405 1.327 . S
C4403 H4426 0.950 . S
C4404 C4403 1.349 . S
C4404 C4416 1.349 . S
C4405 C4403 1.327 . S
C4405 C4421 1.429 . S
C4405 H4427 0.950 . S
C4406 H4402 0.949 . S
C4406 C4414 1.574 . S
C4406 C4422 1.368 . S
H4407 C4415 0.950 . S
H4408 C4413 0.950 . S
H4409 C4414 0.949 . S
H4410 C4416 0.950 . S
H4411 C4417 0.950 . S
H4412 C4418 0.949 . S
C4413 H4408 0.950 . S
C4413 C4415 1.327 . S
C4413 C4419 1.429 . S
C4414 C4406 1.574 . S
C4414 H4409 0.949 . S
C4414 C4420 1.368 . S
C4415 C4399 1.349 . S
C4415 H4407 0.950 . S
C4415 C4413 1.327 . S
C4416 C4404 1.349 . S
C4416 H4410 0.950 . S
C4416 C4417 1.327 . S
C4417 H4411 0.950 . S
C4417 C4416 1.327 . S
C4417 C4421 1.429 . S
C4418 C4401 1.574 . S
C4418 H4412 0.949 . S
C4418 C4422 1.368 . S
C4419 C4400 1.429 . S
C4419 C4413 1.429 . S
C4419 C4420 1.523 . S
C4420 C4401 1.368 . S
C4420 C4414 1.368 . S
C4420 C4419 1.523 . S
C4421 C4405 1.429 . S
C4421 C4417 1.429 . S
C4421 C4422 1.523 . S
C4422 C4406 1.368 . S
C4422 C4418 1.368 . S
C4422 C4421 1.523 . S
H4423 C4398 0.950 . S
H4424 C4400 0.950 . S
H4425 C4401 0.949 . S
H4426 C4403 0.950 . S
H4427 C4405 0.950 . S
C4428 C4429 1.349 . S
C4428 C4430 1.327 . S
C4428 H4453 0.950 . S
C4429 C4428 1.349 . S
C4429 C4445 1.349 . S
C4430 C4428 1.327 . S
C4430 C4449 1.429 . S
C4430 H4454 0.950 . S
C4431 C4448 1.574 . S
C4431 C4450 1.368 . S
C4431 H4455 0.949 . S
H4432 C4436 0.949 . S
C4433 C4434 1.349 . S
C4433 C4435 1.327 . S
C4433 H4456 0.950 . S
C4434 C4433 1.349 . S
C4434 C4446 1.349 . S
C4435 C4433 1.327 . S
C4435 C4451 1.429 . S
C4435 H4457 0.950 . S
C4436 H4432 0.949 . S
C4436 C4444 1.574 . S
C4436 C4452 1.368 . S
H4437 C4445 0.950 . S
H4438 C4443 0.950 . S
H4439 C4444 0.949 . S
H4440 C4446 0.950 . S
H4441 C4447 0.950 . S
H4442 C4448 0.949 . S
C4443 H4438 0.950 . S
C4443 C4445 1.327 . S
C4443 C4449 1.429 . S
C4444 C4436 1.574 . S
C4444 H4439 0.949 . S
C4444 C4450 1.368 . S
C4445 C4429 1.349 . S
C4445 H4437 0.950 . S
C4445 C4443 1.327 . S
C4446 C4434 1.349 . S
C4446 H4440 0.950 . S
C4446 C4447 1.327 . S
C4447 H4441 0.950 . S
C4447 C4446 1.327 . S
C4447 C4451 1.429 . S
C4448 C4431 1.574 . S
C4448 H4442 0.949 . S
C4448 C4452 1.368 . S
C4449 C4430 1.429 . S
C4449 C4443 1.429 . S
C4449 C4450 1.523 . S
C4450 C4431 1.368 . S
C4450 C4444 1.368 . S
C4450 C4449 1.523 . S
C4451 C4435 1.429 . S
C4451 C4447 1.429 . S
C4451 C4452 1.523 . S
C4452 C4436 1.368 . S
C4452 C4448 1.368 . S
C4452 C4451 1.523 . S
H4453 C4428 0.950 . S
H4454 C4430 0.950 . S
H4455 C4431 0.949 . S
H4456 C4433 0.950 . S
H4457 C4435 0.950 . S
C4458 C4459 1.349 . S
C4458 C4460 1.327 . S
C4458 H4483 0.950 . S
C4459 C4458 1.349 . S
C4459 C4475 1.349 . S
C4460 C4458 1.327 . S
C4460 C4479 1.429 . S
C4460 H4484 0.950 . S
C4461 C4478 1.574 . S
C4461 C4480 1.368 . S
C4461 H4485 0.949 . S
H4462 C4466 0.949 . S
C4463 C4464 1.349 . S
C4463 C4465 1.327 . S
C4463 H4486 0.950 . S
C4464 C4463 1.349 . S
C4464 C4476 1.349 . S
C4465 C4463 1.327 . S
C4465 C4481 1.429 . S
C4465 H4487 0.950 . S
C4466 H4462 0.949 . S
C4466 C4474 1.574 . S
C4466 C4482 1.368 . S
H4467 C4475 0.950 . S
H4468 C4473 0.950 . S
H4469 C4474 0.949 . S
H4470 C4476 0.950 . S
H4471 C4477 0.950 . S
H4472 C4478 0.949 . S
C4473 H4468 0.950 . S
C4473 C4475 1.327 . S
C4473 C4479 1.429 . S
C4474 C4466 1.574 . S
C4474 H4469 0.949 . S
C4474 C4480 1.368 . S
C4475 C4459 1.349 . S
C4475 H4467 0.950 . S
C4475 C4473 1.327 . S
C4476 C4464 1.349 . S
C4476 H4470 0.950 . S
C4476 C4477 1.327 . S
C4477 H4471 0.950 . S
C4477 C4476 1.327 . S
C4477 C4481 1.429 . S
C4478 C4461 1.574 . S
C4478 H4472 0.949 . S
C4478 C4482 1.368 . S
C4479 C4460 1.429 . S
C4479 C4473 1.429 . S
C4479 C4480 1.523 . S
C4480 C4461 1.368 . S
C4480 C4474 1.368 . S
C4480 C4479 1.523 . S
C4481 C4465 1.429 . S
C4481 C4477 1.429 . S
C4481 C4482 1.523 . S
C4482 C4466 1.368 . S
C4482 C4478 1.368 . S
C4482 C4481 1.523 . S
H4483 C4458 0.950 . S
H4484 C4460 0.950 . S
H4485 C4461 0.949 . S
H4486 C4463 0.950 . S
H4487 C4465 0.950 . S
C4488 C4489 1.349 . S
C4488 C4490 1.327 . S
C4488 H4513 0.950 . S
C4489 C4488 1.349 . S
C4489 C4505 1.349 . S
C4490 C4488 1.327 . S
C4490 C4509 1.429 . S
C4490 H4514 0.950 . S
C4491 C4508 1.574 . S
C4491 C4510 1.368 . S
C4491 H4515 0.949 . S
H4492 C4496 0.949 . S
C4493 C4494 1.349 . S
C4493 C4495 1.327 . S
C4493 H4516 0.950 . S
C4494 C4493 1.349 . S
C4494 C4506 1.349 . S
C4495 C4493 1.327 . S
C4495 C4511 1.429 . S
C4495 H4517 0.950 . S
C4496 H4492 0.949 . S
C4496 C4504 1.574 . S
C4496 C4512 1.368 . S
H4497 C4505 0.950 . S
H4498 C4503 0.950 . S
H4499 C4504 0.949 . S
H4500 C4506 0.950 . S
H4501 C4507 0.950 . S
H4502 C4508 0.949 . S
C4503 H4498 0.950 . S
C4503 C4505 1.327 . S
C4503 C4509 1.429 . S
C4504 C4496 1.574 . S
C4504 H4499 0.949 . S
C4504 C4510 1.368 . S
C4505 C4489 1.349 . S
C4505 H4497 0.950 . S
C4505 C4503 1.327 . S
C4506 C4494 1.349 . S
C4506 H4500 0.950 . S
C4506 C4507 1.327 . S
C4507 H4501 0.950 . S
C4507 C4506 1.327 . S
C4507 C4511 1.429 . S
C4508 C4491 1.574 . S
C4508 H4502 0.949 . S
C4508 C4512 1.368 . S
C4509 C4490 1.429 . S
C4509 C4503 1.429 . S
C4509 C4510 1.523 . S
C4510 C4491 1.368 . S
C4510 C4504 1.368 . S
C4510 C4509 1.523 . S
C4511 C4495 1.429 . S
C4511 C4507 1.429 . S
C4511 C4512 1.523 . S
C4512 C4496 1.368 . S
C4512 C4508 1.368 . S
C4512 C4511 1.523 . S
H4513 C4488 0.950 . S
H4514 C4490 0.950 . S
H4515 C4491 0.949 . S
H4516 C4493 0.950 . S
H4517 C4495 0.950 . S
C4518 C4519 1.349 . S
C4518 C4520 1.327 . S
C4518 H4543 0.950 . S
C4519 C4518 1.349 . S
C4519 C4535 1.349 . S
C4520 C4518 1.327 . S
C4520 C4539 1.429 . S
C4520 H4544 0.950 . S
C4521 C4538 1.574 . S
C4521 C4540 1.368 . S
C4521 H4545 0.949 . S
H4522 C4526 0.949 . S
C4523 C4524 1.349 . S
C4523 C4525 1.327 . S
C4523 H4546 0.950 . S
C4524 C4523 1.349 . S
C4524 C4536 1.349 . S
C4525 C4523 1.327 . S
C4525 C4541 1.429 . S
C4525 H4547 0.950 . S
C4526 H4522 0.949 . S
C4526 C4534 1.574 . S
C4526 C4542 1.368 . S
H4527 C4535 0.950 . S
H4528 C4533 0.950 . S
H4529 C4534 0.949 . S
H4530 C4536 0.950 . S
H4531 C4537 0.950 . S
H4532 C4538 0.949 . S
C4533 H4528 0.950 . S
C4533 C4535 1.327 . S
C4533 C4539 1.429 . S
C4534 C4526 1.574 . S
C4534 H4529 0.949 . S
C4534 C4540 1.368 . S
C4535 C4519 1.349 . S
C4535 H4527 0.950 . S
C4535 C4533 1.327 . S
C4536 C4524 1.349 . S
C4536 H4530 0.950 . S
C4536 C4537 1.327 . S
C4537 H4531 0.950 . S
C4537 C4536 1.327 . S
C4537 C4541 1.429 . S
C4538 C4521 1.574 . S
C4538 H4532 0.949 . S
C4538 C4542 1.368 . S
C4539 C4520 1.429 . S
C4539 C4533 1.429 . S
C4539 C4540 1.523 . S
C4540 C4521 1.368 . S
C4540 C4534 1.368 . S
C4540 C4539 1.523 . S
C4541 C4525 1.429 . S
C4541 C4537 1.429 . S
C4541 C4542 1.523 . S
C4542 C4526 1.368 . S
C4542 C4538 1.368 . S
C4542 C4541 1.523 . S
H4543 C4518 0.950 . S
H4544 C4520 0.950 . S
H4545 C4521 0.949 . S
H4546 C4523 0.950 . S
H4547 C4525 0.950 . S
C4548 C4549 1.349 . S
C4548 C4550 1.327 . S
C4548 H4573 0.950 . S
C4549 C4548 1.349 . S
C4549 C4565 1.349 . S
C4550 C4548 1.327 . S
C4550 C4569 1.429 . S
C4550 H4574 0.950 . S
C4551 C4568 1.574 . S
C4551 C4570 1.368 . S
C4551 H4575 0.949 . S
H4552 C4556 0.949 . S
C4553 C4554 1.349 . S
C4553 C4555 1.327 . S
C4553 H4576 0.950 . S
C4554 C4553 1.349 . S
C4554 C4566 1.349 . S
C4555 C4553 1.327 . S
C4555 C4571 1.429 . S
C4555 H4577 0.950 . S
C4556 H4552 0.949 . S
C4556 C4564 1.574 . S
C4556 C4572 1.368 . S
H4557 C4565 0.950 . S
H4558 C4563 0.950 . S
H4559 C4564 0.949 . S
H4560 C4566 0.950 . S
H4561 C4567 0.950 . S
H4562 C4568 0.949 . S
C4563 H4558 0.950 . S
C4563 C4565 1.327 . S
C4563 C4569 1.429 . S
C4564 C4556 1.574 . S
C4564 H4559 0.949 . S
C4564 C4570 1.368 . S
C4565 C4549 1.349 . S
C4565 H4557 0.950 . S
C4565 C4563 1.327 . S
C4566 C4554 1.349 . S
C4566 H4560 0.950 . S
C4566 C4567 1.327 . S
C4567 H4561 0.950 . S
C4567 C4566 1.327 . S
C4567 C4571 1.429 . S
C4568 C4551 1.574 . S
C4568 H4562 0.949 . S
C4568 C4572 1.368 . S
C4569 C4550 1.429 . S
C4569 C4563 1.429 . S
C4569 C4570 1.523 . S
C4570 C4551 1.368 . S
C4570 C4564 1.368 . S
C4570 C4569 1.523 . S
C4571 C4555 1.429 . S
C4571 C4567 1.429 . S
C4571 C4572 1.523 . S
C4572 C4556 1.368 . S
C4572 C4568 1.368 . S
C4572 C4571 1.523 . S
H4573 C4548 0.950 . S
H4574 C4550 0.950 . S
H4575 C4551 0.949 . S
H4576 C4553 0.950 . S
H4577 C4555 0.950 . S
C4578 C4579 1.349 . S
C4578 C4580 1.327 . S
C4578 H4603 0.950 . S
C4579 C4578 1.349 . S
C4579 C4595 1.349 . S
C4580 C4578 1.327 . S
C4580 C4599 1.429 . S
C4580 H4604 0.950 . S
C4581 C4598 1.574 . S
C4581 C4600 1.368 . S
C4581 H4605 0.949 . S
H4582 C4586 0.949 . S
C4583 C4584 1.349 . S
C4583 C4585 1.327 . S
C4583 H4606 0.950 . S
C4584 C4583 1.349 . S
C4584 C4596 1.349 . S
C4585 C4583 1.327 . S
C4585 C4601 1.429 . S
C4585 H4607 0.950 . S
C4586 H4582 0.949 . S
C4586 C4594 1.574 . S
C4586 C4602 1.368 . S
H4587 C4595 0.950 . S
H4588 C4593 0.950 . S
H4589 C4594 0.949 . S
H4590 C4596 0.950 . S
H4591 C4597 0.950 . S
H4592 C4598 0.949 . S
C4593 H4588 0.950 . S
C4593 C4595 1.327 . S
C4593 C4599 1.429 . S
C4594 C4586 1.574 . S
C4594 H4589 0.949 . S
C4594 C4600 1.368 . S
C4595 C4579 1.349 . S
C4595 H4587 0.950 . S
C4595 C4593 1.327 . S
C4596 C4584 1.349 . S
C4596 H4590 0.950 . S
C4596 C4597 1.327 . S
C4597 H4591 0.950 . S
C4597 C4596 1.327 . S
C4597 C4601 1.429 . S
C4598 C4581 1.574 . S
C4598 H4592 0.949 . S
C4598 C4602 1.368 . S
C4599 C4580 1.429 . S
C4599 C4593 1.429 . S
C4599 C4600 1.523 . S
C4600 C4581 1.368 . S
C4600 C4594 1.368 . S
C4600 C4599 1.523 . S
C4601 C4585 1.429 . S
C4601 C4597 1.429 . S
C4601 C4602 1.523 . S
C4602 C4586 1.368 . S
C4602 C4598 1.368 . S
C4602 C4601 1.523 . S
H4603 C4578 0.950 . S
H4604 C4580 0.950 . S
H4605 C4581 0.949 . S
H4606 C4583 0.950 . S
H4607 C4585 0.950 . S
C4608 C4609 1.349 . S
C4608 C4610 1.327 . S
C4608 H4633 0.950 . S
C4609 C4608 1.349 . S
C4609 C4625 1.349 . S
C4610 C4608 1.327 . S
C4610 C4629 1.429 . S
C4610 H4634 0.950 . S
C4611 C4628 1.574 . S
C4611 C4630 1.368 . S
C4611 H4635 0.949 . S
H4612 C4616 0.949 . S
C4613 C4614 1.349 . S
C4613 C4615 1.327 . S
C4613 H4636 0.950 . S
C4614 C4613 1.349 . S
C4614 C4626 1.349 . S
C4615 C4613 1.327 . S
C4615 C4631 1.429 . S
C4615 H4637 0.950 . S
C4616 H4612 0.949 . S
C4616 C4624 1.574 . S
C4616 C4632 1.368 . S
H4617 C4625 0.950 . S
H4618 C4623 0.950 . S
H4619 C4624 0.949 . S
H4620 C4626 0.950 . S
H4621 C4627 0.950 . S
H4622 C4628 0.949 . S
C4623 H4618 0.950 . S
C4623 C4625 1.327 . S
C4623 C4629 1.429 . S
C4624 C4616 1.574 . S
C4624 H4619 0.949 . S
C4624 C4630 1.368 . S
C4625 C4609 1.349 . S
C4625 H4617 0.950 . S
C4625 C4623 1.327 . S
C4626 C4614 1.349 . S
C4626 H4620 0.950 . S
C4626 C4627 1.327 . S
C4627 H4621 0.950 . S
C4627 C4626 1.327 . S
C4627 C4631 1.429 . S
C4628 C4611 1.574 . S
C4628 H4622 0.949 . S
C4628 C4632 1.368 . S
C4629 C4610 1.429 . S
C4629 C4623 1.429 . S
C4629 C4630 1.523 . S
C4630 C4611 1.368 . S
C4630 C4624 1.368 . S
C4630 C4629 1.523 . S
C4631 C4615 1.429 . S
C4631 C4627 1.429 . S
C4631 C4632 1.523 . S
C4632 C4616 1.368 . S
C4632 C4628 1.368 . S
C4632 C4631 1.523 . S
H4633 C4608 0.950 . S
H4634 C4610 0.950 . S
H4635 C4611 0.949 . S
H4636 C4613 0.950 . S
H4637 C4615 0.950 . S
C4638 C4639 1.349 . S
C4638 C4640 1.327 . S
C4638 H4663 0.950 . S
C4639 C4638 1.349 . S
C4639 C4655 1.349 . S
C4640 C4638 1.327 . S
C4640 C4659 1.429 . S
C4640 H4664 0.950 . S
C4641 C4658 1.574 . S
C4641 C4660 1.368 . S
C4641 H4665 0.949 . S
H4642 C4646 0.949 . S
C4643 C4644 1.349 . S
C4643 C4645 1.327 . S
C4643 H4666 0.950 . S
C4644 C4643 1.349 . S
C4644 C4656 1.349 . S
C4645 C4643 1.327 . S
C4645 C4661 1.429 . S
C4645 H4667 0.950 . S
C4646 H4642 0.949 . S
C4646 C4654 1.574 . S
C4646 C4662 1.368 . S
H4647 C4655 0.950 . S
H4648 C4653 0.950 . S
H4649 C4654 0.949 . S
H4650 C4656 0.950 . S
H4651 C4657 0.950 . S
H4652 C4658 0.949 . S
C4653 H4648 0.950 . S
C4653 C4655 1.327 . S
C4653 C4659 1.429 . S
C4654 C4646 1.574 . S
C4654 H4649 0.949 . S
C4654 C4660 1.368 . S
C4655 C4639 1.349 . S
C4655 H4647 0.950 . S
C4655 C4653 1.327 . S
C4656 C4644 1.349 . S
C4656 H4650 0.950 . S
C4656 C4657 1.327 . S
C4657 H4651 0.950 . S
C4657 C4656 1.327 . S
C4657 C4661 1.429 . S
C4658 C4641 1.574 . S
C4658 H4652 0.949 . S
C4658 C4662 1.368 . S
C4659 C4640 1.429 . S
C4659 C4653 1.429 . S
C4659 C4660 1.523 . S
C4660 C4641 1.368 . S
C4660 C4654 1.368 . S
C4660 C4659 1.523 . S
C4661 C4645 1.429 . S
C4661 C4657 1.429 . S
C4661 C4662 1.523 . S
C4662 C4646 1.368 . S
C4662 C4658 1.368 . S
C4662 C4661 1.523 . S
H4663 C4638 0.950 . S
H4664 C4640 0.950 . S
H4665 C4641 0.949 . S
H4666 C4643 0.950 . S
H4667 C4645 0.950 . S
C4668 C4669 1.349 . S
C4668 C4670 1.327 . S
C4668 H4693 0.950 . S
C4669 C4668 1.349 . S
C4669 C4685 1.349 . S
C4670 C4668 1.327 . S
C4670 C4689 1.429 . S
C4670 H4694 0.950 . S
C4671 C4688 1.574 . S
C4671 C4690 1.368 . S
C4671 H4695 0.949 . S
H4672 C4676 0.949 . S
C4673 C4674 1.348 . S
C4673 C4675 1.309 1_455 S
C4673 H4696 0.976 . S
C4674 C4673 1.348 . S
C4674 C4686 1.326 1_455 S
C4675 C4673 1.309 1_655 S
C4675 C4691 1.429 . S
C4675 H4697 0.950 . S
C4676 H4672 0.949 . S
C4676 C4684 1.574 . S
C4676 C4692 1.368 . S
H4677 C4685 0.950 . S
H4678 C4683 0.950 . S
H4679 C4684 0.949 . S
H4680 C4686 0.950 . S
H4681 C4687 0.950 . S
H4682 C4688 0.949 . S
C4683 H4678 0.950 . S
C4683 C4685 1.327 . S
C4683 C4689 1.429 . S
C4684 C4676 1.574 . S
C4684 H4679 0.949 . S
C4684 C4690 1.368 . S
C4685 C4669 1.349 . S
C4685 H4677 0.950 . S
C4685 C4683 1.327 . S
C4686 C4674 1.326 1_655 S
C4686 H4680 0.950 . S
C4686 C4687 1.327 . S
C4687 H4681 0.950 . S
C4687 C4686 1.327 . S
C4687 C4691 1.429 . S
C4688 C4671 1.574 . S
C4688 H4682 0.949 . S
C4688 C4692 1.368 . S
C4689 C4670 1.429 . S
C4689 C4683 1.429 . S
C4689 C4690 1.523 . S
C4690 C4671 1.368 . S
C4690 C4684 1.368 . S
C4690 C4689 1.523 . S
C4691 C4675 1.429 . S
C4691 C4687 1.429 . S
C4691 C4692 1.523 . S
C4692 C4676 1.368 . S
C4692 C4688 1.368 . S
C4692 C4691 1.523 . S
H4693 C4668 0.950 . S
H4694 C4670 0.950 . S
H4695 C4671 0.949 . S
H4696 C4673 0.976 . S
H4697 C4675 0.950 . S
C4698 C4699 1.349 . S
C4698 C4700 1.327 . S
C4698 H4723 0.950 . S
C4699 C4698 1.349 . S
C4699 C4715 1.349 . S
C4700 C4698 1.327 . S
C4700 C4719 1.429 . S
C4700 H4724 0.950 . S
C4701 C4718 1.574 . S
C4701 C4720 1.368 . S
C4701 H4725 0.949 . S
H4702 C4706 0.949 . S
C4703 C4704 1.349 . S
C4703 C4705 1.327 . S
C4703 H4726 0.950 . S
C4704 C4703 1.349 . S
C4704 C4716 1.349 . S
C4705 C4703 1.327 . S
C4705 C4721 1.429 . S
C4705 H4727 0.950 . S
C4706 H4702 0.949 . S
C4706 C4714 1.574 . S
C4706 C4722 1.368 . S
H4707 C4715 0.950 . S
H4708 C4713 0.950 . S
H4709 C4714 0.949 . S
H4710 C4716 0.950 . S
H4711 C4717 0.950 . S
H4712 C4718 0.949 . S
C4713 H4708 0.950 . S
C4713 C4715 1.327 . S
C4713 C4719 1.429 . S
C4714 C4706 1.574 . S
C4714 H4709 0.949 . S
C4714 C4720 1.368 . S
C4715 C4699 1.349 . S
C4715 H4707 0.950 . S
C4715 C4713 1.327 . S
C4716 C4704 1.349 . S
C4716 H4710 0.950 . S
C4716 C4717 1.327 . S
C4717 H4711 0.950 . S
C4717 C4716 1.327 . S
C4717 C4721 1.429 . S
C4718 C4701 1.574 . S
C4718 H4712 0.949 . S
C4718 C4722 1.368 . S
C4719 C4700 1.429 . S
C4719 C4713 1.429 . S
C4719 C4720 1.523 . S
C4720 C4701 1.368 . S
C4720 C4714 1.368 . S
C4720 C4719 1.523 . S
C4721 C4705 1.429 . S
C4721 C4717 1.429 . S
C4721 C4722 1.523 . S
C4722 C4706 1.368 . S
C4722 C4718 1.368 . S
C4722 C4721 1.523 . S
H4723 C4698 0.950 . S
H4724 C4700 0.950 . S
H4725 C4701 0.949 . S
H4726 C4703 0.950 . S
H4727 C4705 0.950 . S
C4728 C4729 1.349 . S
C4728 C4730 1.327 . S
C4728 H4753 0.950 . S
C4729 C4728 1.349 . S
C4729 C4745 1.349 . S
C4730 C4728 1.327 . S
C4730 C4749 1.429 . S
C4730 H4754 0.950 . S
C4731 C4748 1.574 . S
C4731 C4750 1.368 . S
C4731 H4755 0.949 . S
H4732 C4736 0.949 . S
C4733 C4734 1.349 . S
C4733 C4735 1.327 . S
C4733 H4756 0.950 . S
C4734 C4733 1.349 . S
C4734 C4746 1.349 . S
C4735 C4733 1.327 . S
C4735 C4751 1.429 . S
C4735 H4757 0.950 . S
C4736 H4732 0.949 . S
C4736 C4744 1.574 . S
C4736 C4752 1.368 . S
H4737 C4745 0.950 . S
H4738 C4743 0.950 . S
H4739 C4744 0.949 . S
H4740 C4746 0.950 . S
H4741 C4747 0.950 . S
H4742 C4748 0.949 . S
C4743 H4738 0.950 . S
C4743 C4745 1.327 . S
C4743 C4749 1.429 . S
C4744 C4736 1.574 . S
C4744 H4739 0.949 . S
C4744 C4750 1.368 . S
C4745 C4729 1.349 . S
C4745 H4737 0.950 . S
C4745 C4743 1.327 . S
C4746 C4734 1.349 . S
C4746 H4740 0.950 . S
C4746 C4747 1.327 . S
C4747 H4741 0.950 . S
C4747 C4746 1.327 . S
C4747 C4751 1.429 . S
C4748 C4731 1.574 . S
C4748 H4742 0.949 . S
C4748 C4752 1.368 . S
C4749 C4730 1.429 . S
C4749 C4743 1.429 . S
C4749 C4750 1.523 . S
C4750 C4731 1.368 . S
C4750 C4744 1.368 . S
C4750 C4749 1.523 . S
C4751 C4735 1.429 . S
C4751 C4747 1.429 . S
C4751 C4752 1.523 . S
C4752 C4736 1.368 . S
C4752 C4748 1.368 . S
C4752 C4751 1.523 . S
H4753 C4728 0.950 . S
H4754 C4730 0.950 . S
H4755 C4731 0.949 . S
H4756 C4733 0.950 . S
H4757 C4735 0.950 . S
C4758 C4759 1.349 . S
C4758 C4760 1.327 . S
C4758 H4783 0.950 . S
C4759 C4758 1.349 . S
C4759 C4775 1.349 . S
C4760 C4758 1.327 . S
C4760 C4779 1.429 . S
C4760 H4784 0.950 . S
C4761 C4778 1.574 . S
C4761 C4780 1.368 . S
C4761 H4785 0.949 . S
H4762 C4766 0.949 . S
C4763 C4764 1.349 . S
C4763 C4765 1.327 . S
C4763 H4786 0.950 . S
C4764 C4763 1.349 . S
C4764 C4776 1.349 . S
C4765 C4763 1.327 . S
C4765 C4781 1.429 . S
C4765 H4787 0.950 . S
C4766 H4762 0.949 . S
C4766 C4774 1.574 . S
C4766 C4782 1.368 . S
H4767 C4775 0.950 . S
H4768 C4773 0.950 . S
H4769 C4774 0.949 . S
H4770 C4776 0.950 . S
H4771 C4777 0.950 . S
H4772 C4778 0.949 . S
C4773 H4768 0.950 . S
C4773 C4775 1.327 . S
C4773 C4779 1.429 . S
C4774 C4766 1.574 . S
C4774 H4769 0.949 . S
C4774 C4780 1.368 . S
C4775 C4759 1.349 . S
C4775 H4767 0.950 . S
C4775 C4773 1.327 . S
C4776 C4764 1.349 . S
C4776 H4770 0.950 . S
C4776 C4777 1.327 . S
C4777 H4771 0.950 . S
C4777 C4776 1.327 . S
C4777 C4781 1.429 . S
C4778 C4761 1.574 . S
C4778 H4772 0.949 . S
C4778 C4782 1.368 . S
C4779 C4760 1.429 . S
C4779 C4773 1.429 . S
C4779 C4780 1.523 . S
C4780 C4761 1.368 . S
C4780 C4774 1.368 . S
C4780 C4779 1.523 . S
C4781 C4765 1.429 . S
C4781 C4777 1.429 . S
C4781 C4782 1.523 . S
C4782 C4766 1.368 . S
C4782 C4778 1.368 . S
C4782 C4781 1.523 . S
H4783 C4758 0.950 . S
H4784 C4760 0.950 . S
H4785 C4761 0.949 . S
H4786 C4763 0.950 . S
H4787 C4765 0.950 . S
C4788 C4789 1.349 . S
C4788 C4790 1.327 . S
C4788 H4813 0.950 . S
C4789 C4788 1.349 . S
C4789 C4805 1.349 . S
C4790 C4788 1.327 . S
C4790 C4809 1.429 . S
C4790 H4814 0.950 . S
C4791 C4808 1.574 . S
C4791 C4810 1.368 . S
C4791 H4815 0.949 . S
H4792 C4796 0.949 . S
C4793 C4794 1.349 . S
C4793 C4795 1.327 . S
C4793 H4816 0.950 . S
C4794 C4793 1.349 . S
C4794 C4806 1.349 . S
C4795 C4793 1.327 . S
C4795 C4811 1.429 . S
C4795 H4817 0.950 . S
C4796 H4792 0.949 . S
C4796 C4804 1.574 . S
C4796 C4812 1.368 . S
H4797 C4805 0.950 . S
H4798 C4803 0.950 . S
H4799 C4804 0.949 . S
H4800 C4806 0.950 . S
H4801 C4807 0.950 . S
H4802 C4808 0.949 . S
C4803 H4798 0.950 . S
C4803 C4805 1.327 . S
C4803 C4809 1.429 . S
C4804 C4796 1.574 . S
C4804 H4799 0.949 . S
C4804 C4810 1.368 . S
C4805 C4789 1.349 . S
C4805 H4797 0.950 . S
C4805 C4803 1.327 . S
C4806 C4794 1.349 . S
C4806 H4800 0.950 . S
C4806 C4807 1.327 . S
C4807 H4801 0.950 . S
C4807 C4806 1.327 . S
C4807 C4811 1.429 . S
C4808 C4791 1.574 . S
C4808 H4802 0.949 . S
C4808 C4812 1.368 . S
C4809 C4790 1.429 . S
C4809 C4803 1.429 . S
C4809 C4810 1.523 . S
C4810 C4791 1.368 . S
C4810 C4804 1.368 . S
C4810 C4809 1.523 . S
C4811 C4795 1.429 . S
C4811 C4807 1.429 . S
C4811 C4812 1.523 . S
C4812 C4796 1.368 . S
C4812 C4808 1.368 . S
C4812 C4811 1.523 . S
H4813 C4788 0.950 . S
H4814 C4790 0.950 . S
H4815 C4791 0.949 . S
H4816 C4793 0.950 . S
H4817 C4795 0.950 . S
C4818 C4819 1.349 . S
C4818 C4820 1.327 . S
C4818 H4843 0.950 . S
C4819 C4818 1.349 . S
C4819 C4835 1.349 . S
C4820 C4818 1.327 . S
C4820 C4839 1.429 . S
C4820 H4844 0.950 . S
C4821 C4838 1.574 . S
C4821 C4840 1.368 . S
C4821 H4845 0.949 . S
H4822 C4826 0.949 . S
C4823 C4824 1.349 . S
C4823 C4825 1.327 . S
C4823 H4846 0.950 . S
C4824 C4823 1.349 . S
C4824 C4836 1.349 . S
C4825 C4823 1.327 . S
C4825 C4841 1.429 . S
C4825 H4847 0.950 . S
C4826 H4822 0.949 . S
C4826 C4834 1.574 . S
C4826 C4842 1.368 . S
H4827 C4835 0.950 . S
H4828 C4833 0.950 . S
H4829 C4834 0.949 . S
H4830 C4836 0.950 . S
H4831 C4837 0.950 . S
H4832 C4838 0.949 . S
C4833 H4828 0.950 . S
C4833 C4835 1.327 . S
C4833 C4839 1.429 . S
C4834 C4826 1.574 . S
C4834 H4829 0.949 . S
C4834 C4840 1.368 . S
C4835 C4819 1.349 . S
C4835 H4827 0.950 . S
C4835 C4833 1.327 . S
C4836 C4824 1.349 . S
C4836 H4830 0.950 . S
C4836 C4837 1.327 . S
C4837 H4831 0.950 . S
C4837 C4836 1.327 . S
C4837 C4841 1.429 . S
C4838 C4821 1.574 . S
C4838 H4832 0.949 . S
C4838 C4842 1.368 . S
C4839 C4820 1.429 . S
C4839 C4833 1.429 . S
C4839 C4840 1.523 . S
C4840 C4821 1.368 . S
C4840 C4834 1.368 . S
C4840 C4839 1.523 . S
C4841 C4825 1.429 . S
C4841 C4837 1.429 . S
C4841 C4842 1.523 . S
C4842 C4826 1.368 . S
C4842 C4838 1.368 . S
C4842 C4841 1.523 . S
H4843 C4818 0.950 . S
H4844 C4820 0.950 . S
H4845 C4821 0.949 . S
H4846 C4823 0.950 . S
H4847 C4825 0.950 . S
C4848 C4849 1.349 . S
C4848 C4850 1.327 . S
C4848 H4873 0.950 . S
C4849 C4848 1.349 . S
C4849 C4865 1.349 . S
C4850 C4848 1.327 . S
C4850 C4869 1.429 . S
C4850 H4874 0.950 . S
C4851 C4868 1.574 . S
C4851 C4870 1.368 . S
C4851 H4875 0.949 . S
H4852 C4856 0.949 . S
C4853 C4854 1.349 . S
C4853 C4855 1.327 . S
C4853 H4876 0.950 . S
C4854 C4853 1.349 . S
C4854 C4866 1.349 . S
C4855 C4853 1.327 . S
C4855 C4871 1.429 . S
C4855 H4877 0.950 . S
C4856 H4852 0.949 . S
C4856 C4864 1.574 . S
C4856 C4872 1.368 . S
H4857 C4865 0.950 . S
H4858 C4863 0.950 . S
H4859 C4864 0.949 . S
H4860 C4866 0.950 . S
H4861 C4867 0.950 . S
H4862 C4868 0.949 . S
C4863 H4858 0.950 . S
C4863 C4865 1.327 . S
C4863 C4869 1.429 . S
C4864 C4856 1.574 . S
C4864 H4859 0.949 . S
C4864 C4870 1.368 . S
C4865 C4849 1.349 . S
C4865 H4857 0.950 . S
C4865 C4863 1.327 . S
C4866 C4854 1.349 . S
C4866 H4860 0.950 . S
C4866 C4867 1.327 . S
C4867 H4861 0.950 . S
C4867 C4866 1.327 . S
C4867 C4871 1.429 . S
C4868 C4851 1.574 . S
C4868 H4862 0.949 . S
C4868 C4872 1.368 . S
C4869 C4850 1.429 . S
C4869 C4863 1.429 . S
C4869 C4870 1.523 . S
C4870 C4851 1.368 . S
C4870 C4864 1.368 . S
C4870 C4869 1.523 . S
C4871 C4855 1.429 . S
C4871 C4867 1.429 . S
C4871 C4872 1.523 . S
C4872 C4856 1.368 . S
C4872 C4868 1.368 . S
C4872 C4871 1.523 . S
H4873 C4848 0.950 . S
H4874 C4850 0.950 . S
H4875 C4851 0.949 . S
H4876 C4853 0.950 . S
H4877 C4855 0.950 . S
C4878 C4879 1.349 . S
C4878 C4880 1.327 . S
C4878 H4903 0.950 . S
C4879 C4878 1.349 . S
C4879 C4895 1.349 . S
C4880 C4878 1.327 . S
C4880 C4899 1.429 . S
C4880 H4904 0.950 . S
C4881 C4898 1.574 . S
C4881 C4900 1.368 . S
C4881 H4905 0.949 . S
H4882 C4886 0.949 . S
C4883 C4884 1.349 1_545 S
C4883 C4885 1.327 1_545 S
C4883 H4906 0.950 . S
C4884 C4883 1.349 1_565 S
C4884 C4896 1.349 . S
C4885 C4883 1.327 1_565 S
C4885 C4901 1.429 . S
C4885 H4907 0.950 . S
C4886 H4882 0.949 . S
C4886 C4894 1.574 . S
C4886 C4902 1.368 . S
H4887 C4895 0.950 . S
H4888 C4893 0.950 . S
H4889 C4894 0.949 . S
H4890 C4896 0.950 . S
H4891 C4897 0.950 . S
H4892 C4898 0.949 . S
C4893 H4888 0.950 . S
C4893 C4895 1.327 . S
C4893 C4899 1.429 . S
C4894 C4886 1.574 . S
C4894 H4889 0.949 . S
C4894 C4900 1.368 . S
C4895 C4879 1.349 . S
C4895 H4887 0.950 . S
C4895 C4893 1.327 . S
C4896 C4884 1.349 . S
C4896 H4890 0.950 . S
C4896 C4897 1.327 . S
C4897 H4891 0.950 . S
C4897 C4896 1.327 . S
C4897 C4901 1.429 . S
C4898 C4881 1.574 . S
C4898 H4892 0.949 . S
C4898 C4902 1.368 . S
C4899 C4880 1.429 . S
C4899 C4893 1.429 . S
C4899 C4900 1.523 . S
C4900 C4881 1.368 . S
C4900 C4894 1.368 . S
C4900 C4899 1.523 . S
C4901 C4885 1.429 . S
C4901 C4897 1.429 . S
C4901 C4902 1.523 . S
C4902 C4886 1.368 . S
C4902 C4898 1.368 . S
C4902 C4901 1.523 . S
H4903 C4878 0.950 . S
H4904 C4880 0.950 . S
H4905 C4881 0.949 . S
H4906 C4883 0.950 . S
H4907 C4885 0.950 . S
C4908 C4909 1.349 . S
C4908 C4910 1.327 . S
C4908 H4933 0.950 . S
C4909 C4908 1.349 . S
C4909 C4925 1.349 . S
C4910 C4908 1.327 . S
C4910 C4929 1.429 . S
C4910 H4934 0.950 . S
C4911 C4928 1.574 . S
C4911 C4930 1.368 . S
C4911 H4935 0.949 . S
H4912 C4916 0.949 . S
C4913 C4914 1.349 . S
C4913 C4915 1.327 . S
C4913 H4936 0.950 . S
C4914 C4913 1.349 . S
C4914 C4926 1.349 . S
C4915 C4913 1.327 . S
C4915 C4931 1.429 . S
C4915 H4937 0.950 . S
C4916 H4912 0.949 . S
C4916 C4924 1.574 . S
C4916 C4932 1.368 . S
H4917 C4925 0.950 . S
H4918 C4923 0.950 . S
H4919 C4924 0.949 . S
H4920 C4926 0.950 . S
H4921 C4927 0.950 . S
H4922 C4928 0.949 . S
C4923 H4918 0.950 . S
C4923 C4925 1.327 . S
C4923 C4929 1.429 . S
C4924 C4916 1.574 . S
C4924 H4919 0.949 . S
C4924 C4930 1.368 . S
C4925 C4909 1.349 . S
C4925 H4917 0.950 . S
C4925 C4923 1.327 . S
C4926 C4914 1.349 . S
C4926 H4920 0.950 . S
C4926 C4927 1.327 . S
C4927 H4921 0.950 . S
C4927 C4926 1.327 . S
C4927 C4931 1.429 . S
C4928 C4911 1.574 . S
C4928 H4922 0.949 . S
C4928 C4932 1.368 . S
C4929 C4910 1.429 . S
C4929 C4923 1.429 . S
C4929 C4930 1.523 . S
C4930 C4911 1.368 . S
C4930 C4924 1.368 . S
C4930 C4929 1.523 . S
C4931 C4915 1.429 . S
C4931 C4927 1.429 . S
C4931 C4932 1.523 . S
C4932 C4916 1.368 . S
C4932 C4928 1.368 . S
C4932 C4931 1.523 . S
H4933 C4908 0.950 . S
H4934 C4910 0.950 . S
H4935 C4911 0.949 . S
H4936 C4913 0.950 . S
H4937 C4915 0.950 . S
C4938 C4939 1.349 . S
C4938 C4940 1.327 . S
C4938 H4963 0.950 . S
C4939 C4938 1.349 . S
C4939 C4955 1.349 . S
C4940 C4938 1.327 . S
C4940 C4959 1.429 . S
C4940 H4964 0.950 . S
C4941 C4958 1.574 . S
C4941 C4960 1.368 . S
C4941 H4965 0.949 . S
H4942 C4946 0.949 . S
C4943 C4944 1.349 . S
C4943 C4945 1.327 . S
C4943 H4966 0.999 . S
C4944 C4943 1.349 . S
C4944 C4956 1.349 . S
C4945 C4943 1.327 . S
C4945 C4961 1.429 . S
C4945 H4967 0.950 . S
C4946 H4942 0.949 . S
C4946 C4954 1.574 . S
C4946 C4962 1.368 . S
H4947 C4955 0.950 . S
H4948 C4953 0.950 . S
H4949 C4954 0.949 . S
H4950 C4956 0.950 . S
H4951 C4957 0.950 . S
H4952 C4958 0.949 . S
C4953 H4948 0.950 . S
C4953 C4955 1.327 . S
C4953 C4959 1.429 . S
C4954 C4946 1.574 . S
C4954 H4949 0.949 . S
C4954 C4960 1.368 . S
C4955 C4939 1.349 . S
C4955 H4947 0.950 . S
C4955 C4953 1.327 . S
C4956 C4944 1.349 . S
C4956 H4950 0.950 . S
C4956 C4957 1.327 . S
C4957 H4951 0.950 . S
C4957 C4956 1.327 . S
C4957 C4961 1.429 . S
C4958 C4941 1.574 . S
C4958 H4952 0.949 . S
C4958 C4962 1.368 . S
C4959 C4940 1.429 . S
C4959 C4953 1.429 . S
C4959 C4960 1.523 . S
C4960 C4941 1.368 . S
C4960 C4954 1.368 . S
C4960 C4959 1.523 . S
C4961 C4945 1.429 . S
C4961 C4957 1.429 . S
C4961 C4962 1.523 . S
C4962 C4946 1.368 . S
C4962 C4958 1.368 . S
C4962 C4961 1.523 . S
H4963 C4938 0.950 . S
H4964 C4940 0.950 . S
H4965 C4941 0.949 . S
H4966 C4943 0.999 . S
H4967 C4945 0.950 . S
C4968 C4969 1.349 . S
C4968 C4970 1.327 . S
C4968 H4993 0.950 . S
C4969 C4968 1.349 . S
C4969 C4985 1.349 . S
C4970 C4968 1.327 . S
C4970 C4989 1.429 . S
C4970 H4994 0.950 . S
C4971 C4988 1.574 . S
C4971 C4990 1.368 . S
C4971 H4995 0.949 . S
H4972 C4976 0.949 . S
C4973 C4974 1.349 . S
C4973 C4975 1.327 . S
C4973 H4996 0.950 . S
C4974 C4973 1.349 . S
C4974 C4986 1.349 . S
C4975 C4973 1.327 . S
C4975 C4991 1.429 . S
C4975 H4997 0.950 . S
C4976 H4972 0.949 . S
C4976 C4984 1.574 . S
C4976 C4992 1.368 . S
H4977 C4985 0.950 . S
H4978 C4983 0.950 . S
H4979 C4984 0.949 . S
H4980 C4986 0.950 . S
H4981 C4987 0.950 . S
H4982 C4988 0.949 . S
C4983 H4978 0.950 . S
C4983 C4985 1.327 . S
C4983 C4989 1.429 . S
C4984 C4976 1.574 . S
C4984 H4979 0.949 . S
C4984 C4990 1.368 . S
C4985 C4969 1.349 . S
C4985 H4977 0.950 . S
C4985 C4983 1.327 . S
C4986 C4974 1.349 . S
C4986 H4980 0.950 . S
C4986 C4987 1.327 . S
C4987 H4981 0.950 . S
C4987 C4986 1.327 . S
C4987 C4991 1.429 . S
C4988 C4971 1.574 . S
C4988 H4982 0.949 . S
C4988 C4992 1.368 . S
C4989 C4970 1.429 . S
C4989 C4983 1.429 . S
C4989 C4990 1.523 . S
C4990 C4971 1.368 . S
C4990 C4984 1.368 . S
C4990 C4989 1.523 . S
C4991 C4975 1.429 . S
C4991 C4987 1.429 . S
C4991 C4992 1.523 . S
C4992 C4976 1.368 . S
C4992 C4988 1.368 . S
C4992 C4991 1.523 . S
H4993 C4968 0.950 . S
H4994 C4970 0.950 . S
H4995 C4971 0.949 . S
H4996 C4973 0.950 . S
H4997 C4975 0.950 . S
C4998 C4999 1.349 . S
C4998 C5000 1.327 . S
C4998 H5023 0.950 . S
C4999 C4998 1.349 . S
C4999 C5015 1.349 . S
C5000 C4998 1.327 . S
C5000 C5019 1.429 . S
C5000 H5024 0.950 . S
C5001 C5018 1.574 . S
C5001 C5020 1.368 . S
C5001 H5025 0.949 . S
H5002 C5006 0.949 . S
C5003 C5004 1.349 . S
C5003 C5005 1.327 . S
C5003 H5026 0.950 . S
C5004 C5003 1.349 . S
C5004 C5016 1.349 . S
C5005 C5003 1.327 . S
C5005 C5021 1.429 . S
C5005 H5027 0.950 . S
C5006 H5002 0.949 . S
C5006 C5014 1.574 . S
C5006 C5022 1.368 . S
H5007 C5015 0.950 . S
H5008 C5013 0.950 . S
H5009 C5014 0.949 . S
H5010 C5016 0.950 . S
H5011 C5017 0.950 . S
H5012 C5018 0.949 . S
C5013 H5008 0.950 . S
C5013 C5015 1.327 . S
C5013 C5019 1.429 . S
C5014 C5006 1.574 . S
C5014 H5009 0.949 . S
C5014 C5020 1.368 . S
C5015 C4999 1.349 . S
C5015 H5007 0.950 . S
C5015 C5013 1.327 . S
C5016 C5004 1.349 . S
C5016 H5010 0.950 . S
C5016 C5017 1.327 . S
C5017 H5011 0.950 . S
C5017 C5016 1.327 . S
C5017 C5021 1.429 . S
C5018 C5001 1.574 . S
C5018 H5012 0.949 . S
C5018 C5022 1.368 . S
C5019 C5000 1.429 . S
C5019 C5013 1.429 . S
C5019 C5020 1.523 . S
C5020 C5001 1.368 . S
C5020 C5014 1.368 . S
C5020 C5019 1.523 . S
C5021 C5005 1.429 . S
C5021 C5017 1.429 . S
C5021 C5022 1.523 . S
C5022 C5006 1.368 . S
C5022 C5018 1.368 . S
C5022 C5021 1.523 . S
H5023 C4998 0.950 . S
H5024 C5000 0.950 . S
H5025 C5001 0.949 . S
H5026 C5003 0.950 . S
H5027 C5005 0.950 . S
C5028 C5029 1.349 . S
C5028 C5030 1.327 . S
C5028 H5053 0.950 . S
C5029 C5028 1.349 . S
C5029 C5045 1.349 . S
C5030 C5028 1.327 . S
C5030 C5049 1.429 . S
C5030 H5054 0.950 . S
C5031 C5048 1.574 . S
C5031 C5050 1.368 . S
C5031 H5055 0.949 . S
H5032 C5036 0.949 . S
C5033 C5034 1.349 . S
C5033 C5035 1.327 . S
C5033 H5056 0.950 . S
C5034 C5033 1.349 . S
C5034 C5046 1.349 . S
C5035 C5033 1.327 . S
C5035 C5051 1.429 . S
C5035 H5057 0.950 . S
C5036 H5032 0.949 . S
C5036 C5044 1.574 . S
C5036 C5052 1.368 . S
H5037 C5045 0.950 . S
H5038 C5043 0.950 . S
H5039 C5044 0.949 . S
H5040 C5046 0.950 . S
H5041 C5047 0.950 . S
H5042 C5048 0.949 . S
C5043 H5038 0.950 . S
C5043 C5045 1.327 . S
C5043 C5049 1.429 . S
C5044 C5036 1.574 . S
C5044 H5039 0.949 . S
C5044 C5050 1.368 . S
C5045 C5029 1.349 . S
C5045 H5037 0.950 . S
C5045 C5043 1.327 . S
C5046 C5034 1.349 . S
C5046 H5040 0.950 . S
C5046 C5047 1.327 . S
C5047 H5041 0.950 . S
C5047 C5046 1.327 . S
C5047 C5051 1.429 . S
C5048 C5031 1.574 . S
C5048 H5042 0.949 . S
C5048 C5052 1.368 . S
C5049 C5030 1.429 . S
C5049 C5043 1.429 . S
C5049 C5050 1.523 . S
C5050 C5031 1.368 . S
C5050 C5044 1.368 . S
C5050 C5049 1.523 . S
C5051 C5035 1.429 . S
C5051 C5047 1.429 . S
C5051 C5052 1.523 . S
C5052 C5036 1.368 . S
C5052 C5048 1.368 . S
C5052 C5051 1.523 . S
H5053 C5028 0.950 . S
H5054 C5030 0.950 . S
H5055 C5031 0.949 . S
H5056 C5033 0.950 . S
H5057 C5035 0.950 . S
C5058 C5059 1.349 . S
C5058 C5060 1.327 . S
C5058 H5083 0.950 . S
C5059 C5058 1.349 . S
C5059 C5075 1.349 . S
C5060 C5058 1.327 . S
C5060 C5079 1.429 . S
C5060 H5084 0.950 . S
C5061 C5078 1.574 . S
C5061 C5080 1.368 . S
C5061 H5085 0.949 . S
H5062 C5066 0.949 . S
C5063 C5064 1.349 . S
C5063 C5065 1.327 . S
C5063 H5086 0.950 . S
C5064 C5063 1.349 . S
C5064 C5076 1.349 . S
C5065 C5063 1.327 . S
C5065 C5081 1.429 . S
C5065 H5087 0.950 . S
C5066 H5062 0.949 . S
C5066 C5074 1.574 . S
C5066 C5082 1.368 . S
H5067 C5075 0.950 . S
H5068 C5073 0.950 . S
H5069 C5074 0.949 . S
H5070 C5076 0.950 . S
H5071 C5077 0.950 . S
H5072 C5078 0.949 . S
C5073 H5068 0.950 . S
C5073 C5075 1.327 . S
C5073 C5079 1.429 . S
C5074 C5066 1.574 . S
C5074 H5069 0.949 . S
C5074 C5080 1.368 . S
C5075 C5059 1.349 . S
C5075 H5067 0.950 . S
C5075 C5073 1.327 . S
C5076 C5064 1.349 . S
C5076 H5070 0.950 . S
C5076 C5077 1.327 . S
C5077 H5071 0.950 . S
C5077 C5076 1.327 . S
C5077 C5081 1.429 . S
C5078 C5061 1.574 . S
C5078 H5072 0.949 . S
C5078 C5082 1.368 . S
C5079 C5060 1.429 . S
C5079 C5073 1.429 . S
C5079 C5080 1.523 . S
C5080 C5061 1.368 . S
C5080 C5074 1.368 . S
C5080 C5079 1.523 . S
C5081 C5065 1.429 . S
C5081 C5077 1.429 . S
C5081 C5082 1.523 . S
C5082 C5066 1.368 . S
C5082 C5078 1.368 . S
C5082 C5081 1.523 . S
H5083 C5058 0.950 . S
H5084 C5060 0.950 . S
H5085 C5061 0.949 . S
H5086 C5063 0.950 . S
H5087 C5065 0.950 . S
C2209 C255 1.945 . S
C2214 C920 1.957 . S
C2239 C147 1.817 . S
C2244 C1022 1.812 . S
C2269 C184 1.711 . S
C2274 C1088 1.737 . S
C2304 C1174 1.459 . S
C2299 C220 1.584 . S
C2329 C40 1.545 . S
C2334 C1258 1.424 . S
C2364 C1340 1.835 . S
C2359 C74 1.795 . S
C2394 C1442 1.845 . S
C2389 C110 1.859 . S
C2419 C14 1.896 . S
C2424 C1508 1.906 . S
C2454 C938 1.599 . S
C2449 C579 1.635 . S
C2479 C616 0.905 . S
C2484 C1006 0.868 . S
C2514 C1106 1.133 . S
C2509 C687 1.141 . S
C2544 C1172 1.653 . S
C2539 C436 1.639 . S
C2569 C580 1.612 . S
C2574 C1256 1.626 . S
C2604 C1358 1.108 . S
C2599 C615 1.117 . S
C2634 C1426 0.867 . S
C2629 C688 0.899 . S
C2664 C1526 1.576 . S
C2659 C435 1.612 . S
C2694 C922 0.883 . S
C2689 C410 0.925 . S
C2719 C722 1.732 . S
C2724 C1610 1.714 . S
C2754 C1678 1.338 . S
C2749 C842 1.394 . S
C2784 C1760 0.827 . S
C2779 C794 0.824 . S
C2809 C302 0.921 . S
C2814 C1510 0.896 . S
C2839 C338 1.363 . S
C2844 C1090 1.308 . S
C2869 C830 1.765 . S
C2874 C1862 1.746 . S
C2904 C1928 0.889 . S
C2899 C758 0.882 . S
C2934 C931 1.908 . S
C2929 C158 1.815 . S
C2964 C1935 1.778 . S
C2959 C254 1.792 . S
C2989 C218 1.708 . S
C2994 C1099 1.742 . S
C3019 C194 1.492 . S
C3024 C1857 1.433 . S
C3054 C1269 1.411 . S
C3049 C3 1.518 . S
C3079 C111 1.653 . S
C3084 C1687 1.652 . S
C3114 C1431 1.791 1_556 S
C3109 C76 1.799 . S
C3144 C2023 1.975 . S
C3139 C50 1.880 . S
C3174 C927 1.534 . S
C3169 C364 1.571 . S
C3204 C1941 0.830 . S
C3199 C795 0.851 . S
C3229 C292 1.080 . S
C3234 C1095 1.066 . S
C3259 C723 1.578 . S
C3264 C1855 1.574 . S
C3289 C363 1.589 . S
C3294 C1267 1.585 . S
C3324 C1683 1.084 . S
C3319 C796 1.097 . S
C3349 C291 0.871 . S
C3354 C1437 0.844 . S
C3379 C724 1.592 . S
C3384 C2019 1.555 . S
C3409 C482 0.863 . S
C3414 C933 0.863 . S
C3439 C434 1.692 . S
C3444 C1599 1.676 . S
C3469 C662 1.336 . S
C3474 C1353 1.314 . S
C3499 C614 0.809 . S
C3504 C1771 0.811 . S
C3534 C2025 0.890 . S
C3529 C698 0.893 . S
C3559 C554 1.328 . S
C3564 C1101 1.307 . S
C3594 C1179 1.680 . S
C3589 C650 1.695 . S
C3624 C1015 0.814 . S
C3619 C506 0.811 . S
C3649 C183 1.946 . S
C3654 C2096 1.958 . S
C3684 C1946 1.812 . S
C3679 C219 1.817 . S
C3709 C256 1.706 . S
C3714 C2180 1.733 . S
C3739 C148 1.581 1_655 S
C3744 C1846 1.457 . S
C3769 C122 1.542 . S
C3774 C1594 1.476 . S
C3804 C1676 1.762 . S
C3799 C2 1.724 1_655 S
C3834 C1778 1.741 . S
C3829 C39 1.743 . S
C3864 C2012 1.987 . S
C3859 C86 1.975 . S
C3894 C2114 1.610 . S
C3889 C651 1.645 . S
C3919 C472 0.905 1_556 S
C3924 C1930 0.868 . S
C3954 C2198 1.118 . S
C3949 C507 1.127 . S
C3984 C1844 1.662 . S
C3979 C544 1.648 . S
C4014 C1592 1.621 . S
C4009 C652 1.607 . S
C4039 C471 1.103 . S
C4044 C1694 1.093 . S
C4074 C1762 0.863 . S
C4069 C508 0.896 . S
C4099 C543 1.632 . S
C4104 C2030 1.596 . S
C4134 C2098 0.899 . S
C4129 C806 0.926 . S
C4159 C326 1.709 . S
C4164 C1274 1.692 . S
C4194 C1342 1.317 . S
C4189 C374 1.373 1_565 S
C4224 C1424 0.842 . S
C4219 C398 0.838 . S
C4254 C2014 0.895 . S
C4249 C770 0.921 . S
C4279 C734 1.353 . S
C4284 C2182 1.299 . S
C4314 C1190 1.731 . S
C4309 C362 1.749 . S
C4344 C1004 0.908 . S
C4339 C290 0.900 . S
C4369 C230 1.813 . S
C4374 C2107 1.906 . S
C4404 C1011 1.784 . S
C4399 C182 1.795 . S
C4429 C146 1.708 . S
C4434 C2191 1.743 . S
C4459 C266 1.494 . S
C4464 C1185 1.433 . S
C4489 C75 1.564 . S
C4494 C1605 1.451 . S
C4524 C1351 1.808 . S
C4519 C38 1.770 . S
C4549 C4 1.721 . S
C4554 C1767 1.715 . S
C4579 C112 1.875 . S
C4584 C1519 1.886 . S
C4614 C2103 1.537 . S
C4609 C832 1.575 . S
C4639 C399 0.864 . S
C4644 C1017 0.836 . S
C4674 C2187 1.079 . S
C4669 C760 1.075 . S
C4699 C327 1.572 . S
C4704 C1183 1.568 . S
C4729 C831 1.619 . S
C4734 C1603 1.615 . S
C4764 C1347 1.088 . S
C4759 C400 1.108 . S
C4789 C759 0.876 . S
C4794 C1773 0.850 . S
C4824 C1515 1.561 . S
C4819 C328 1.596 . S
C4854 C2109 0.872 . S
C4849 C626 0.872 . S
C4884 C1263 1.683 1_565 S
C4879 C542 1.699 . S
C4909 C590 1.308 . S
C4914 C1689 1.287 . S
C4944 C1435 0.819 . S
C4939 C470 0.816 . S
C4969 C518 0.874 . S
C4974 C1521 0.871 . S
C4999 C446 1.321 . S
C5004 C2193 1.299 . S
C5034 C1851 1.693 . S
C5029 C578 1.709 . S
C5064 C1939 0.789 . S
C5059 C686 0.787 . S
