# Generated by pormake.
# Topology ocu, (6,8)-cn, num edge types: 1
# Building blocks:
#     Node 0, Type 0, BuildingBlock: JUFBIX_clean_sbu_0, # of connection points: 6
#     Node 1, Type 0, BuildingBlock: JUFBIX_clean_sbu_0, # of connection points: 6
#     Node 2, Type 0, BuildingBlock: JUFBIX_clean_sbu_0, # of connection points: 6
#     Node 3, Type 0, BuildingBlock: JUFBIX_clean_sbu_0, # of connection points: 6
#     Node 4, Type 0, BuildingBlock: JUFBIX_clean_sbu_0, # of connection points: 6
#     Node 5, Type 0, BuildingBlock: JUFBIX_clean_sbu_0, # of connection points: 6
#     Node 6, Type 0, BuildingBlock: JUFBIX_clean_sbu_0, # of connection points: 6
#     Node 7, Type 0, BuildingBlock: JUFBIX_clean_sbu_0, # of connection points: 6
#     Node 8, Type 1, BuildingBlock: AJUNOK_clean_sbu_0, # of connection points: 8
#     Node 9, Type 1, BuildingBlock: AJUNOK_clean_sbu_0, # of connection points: 8
#     Node 10, Type 1, BuildingBlock: AJUNOK_clean_sbu_0, # of connection points: 8
#     Node 11, Type 1, BuildingBlock: AJUNOK_clean_sbu_0, # of connection points: 8
#     Node 12, Type 1, BuildingBlock: AJUNOK_clean_sbu_0, # of connection points: 8
#     Node 13, Type 1, BuildingBlock: AJUNOK_clean_sbu_0, # of connection points: 8
#     Edge 14, Type (0, 1), BuildingBlock: KIFKEQ_clean_linker_1, # of connection points: 2
#     Edge 15, Type (0, 1), BuildingBlock: KIFKEQ_clean_linker_1, # of connection points: 2
#     Edge 16, Type (0, 1), BuildingBlock: KIFKEQ_clean_linker_1, # of connection points: 2
#     Edge 17, Type (0, 1), BuildingBlock: KIFKEQ_clean_linker_1, # of connection points: 2
#     Edge 18, Type (0, 1), BuildingBlock: KIFKEQ_clean_linker_1, # of connection points: 2
#     Edge 19, Type (0, 1), BuildingBlock: KIFKEQ_clean_linker_1, # of connection points: 2
#     Edge 20, Type (0, 1), BuildingBlock: KIFKEQ_clean_linker_1, # of connection points: 2
#     Edge 21, Type (0, 1), BuildingBlock: KIFKEQ_clean_linker_1, # of connection points: 2
#     Edge 22, Type (0, 1), BuildingBlock: KIFKEQ_clean_linker_1, # of connection points: 2
#     Edge 23, Type (0, 1), BuildingBlock: KIFKEQ_clean_linker_1, # of connection points: 2
#     Edge 24, Type (0, 1), BuildingBlock: KIFKEQ_clean_linker_1, # of connection points: 2
#     Edge 25, Type (0, 1), BuildingBlock: KIFKEQ_clean_linker_1, # of connection points: 2
#     Edge 26, Type (0, 1), BuildingBlock: KIFKEQ_clean_linker_1, # of connection points: 2
#     Edge 27, Type (0, 1), BuildingBlock: KIFKEQ_clean_linker_1, # of connection points: 2
#     Edge 28, Type (0, 1), BuildingBlock: KIFKEQ_clean_linker_1, # of connection points: 2
#     Edge 29, Type (0, 1), BuildingBlock: KIFKEQ_clean_linker_1, # of connection points: 2
#     Edge 30, Type (0, 1), BuildingBlock: KIFKEQ_clean_linker_1, # of connection points: 2
#     Edge 31, Type (0, 1), BuildingBlock: KIFKEQ_clean_linker_1, # of connection points: 2
#     Edge 32, Type (0, 1), BuildingBlock: KIFKEQ_clean_linker_1, # of connection points: 2
#     Edge 33, Type (0, 1), BuildingBlock: KIFKEQ_clean_linker_1, # of connection points: 2
#     Edge 34, Type (0, 1), BuildingBlock: KIFKEQ_clean_linker_1, # of connection points: 2
#     Edge 35, Type (0, 1), BuildingBlock: KIFKEQ_clean_linker_1, # of connection points: 2
#     Edge 36, Type (0, 1), BuildingBlock: KIFKEQ_clean_linker_1, # of connection points: 2
#     Edge 37, Type (0, 1), BuildingBlock: KIFKEQ_clean_linker_1, # of connection points: 2
#     Edge 38, Type (0, 1), BuildingBlock: KIFKEQ_clean_linker_1, # of connection points: 2
#     Edge 39, Type (0, 1), BuildingBlock: KIFKEQ_clean_linker_1, # of connection points: 2
#     Edge 40, Type (0, 1), BuildingBlock: KIFKEQ_clean_linker_1, # of connection points: 2
#     Edge 41, Type (0, 1), BuildingBlock: KIFKEQ_clean_linker_1, # of connection points: 2
#     Edge 42, Type (0, 1), BuildingBlock: KIFKEQ_clean_linker_1, # of connection points: 2
#     Edge 43, Type (0, 1), BuildingBlock: KIFKEQ_clean_linker_1, # of connection points: 2
#     Edge 44, Type (0, 1), BuildingBlock: KIFKEQ_clean_linker_1, # of connection points: 2
#     Edge 45, Type (0, 1), BuildingBlock: KIFKEQ_clean_linker_1, # of connection points: 2
#     Edge 46, Type (0, 1), BuildingBlock: KIFKEQ_clean_linker_1, # of connection points: 2
#     Edge 47, Type (0, 1), BuildingBlock: KIFKEQ_clean_linker_1, # of connection points: 2
#     Edge 48, Type (0, 1), BuildingBlock: KIFKEQ_clean_linker_1, # of connection points: 2
#     Edge 49, Type (0, 1), BuildingBlock: KIFKEQ_clean_linker_1, # of connection points: 2
#     Edge 50, Type (0, 1), BuildingBlock: KIFKEQ_clean_linker_1, # of connection points: 2
#     Edge 51, Type (0, 1), BuildingBlock: KIFKEQ_clean_linker_1, # of connection points: 2
#     Edge 52, Type (0, 1), BuildingBlock: KIFKEQ_clean_linker_1, # of connection points: 2
#     Edge 53, Type (0, 1), BuildingBlock: KIFKEQ_clean_linker_1, # of connection points: 2
#     Edge 54, Type (0, 1), BuildingBlock: KIFKEQ_clean_linker_1, # of connection points: 2
#     Edge 55, Type (0, 1), BuildingBlock: KIFKEQ_clean_linker_1, # of connection points: 2
#     Edge 56, Type (0, 1), BuildingBlock: KIFKEQ_clean_linker_1, # of connection points: 2
#     Edge 57, Type (0, 1), BuildingBlock: KIFKEQ_clean_linker_1, # of connection points: 2
#     Edge 58, Type (0, 1), BuildingBlock: KIFKEQ_clean_linker_1, # of connection points: 2
#     Edge 59, Type (0, 1), BuildingBlock: KIFKEQ_clean_linker_1, # of connection points: 2
#     Edge 60, Type (0, 1), BuildingBlock: KIFKEQ_clean_linker_1, # of connection points: 2
#     Edge 61, Type (0, 1), BuildingBlock: KIFKEQ_clean_linker_1, # of connection points: 2
# Relax obj value: 0.262
# Max RMSD: 0.342
# Mean RMSD: 0.231
data_MOF--net-ocu--node1-JUFBIX_clean_sbu_0--node2-AJUNOK_clean_sbu_0--edge1-KIFKEQ_clean_linker_1
_symmetry_space_group_name_H-M    P1
_symmetry_Int_Tables_number       1
_symmetry_cell_setting            triclinic
loop_
_symmetry_equiv_pos_as_xyz
'x, y, z'
_cell_length_a     42.233878
_cell_length_b     42.889933
_cell_length_c     36.475423
_cell_angle_alpha  100.47421
_cell_angle_beta   100.01895
_cell_angle_gamma 101.69815
loop_
_atom_site_label
_atom_site_type_symbol
_atom_site_fract_x
_atom_site_fract_y
_atom_site_fract_z
_atom_type_partial_charge
Co0 Co 0.22683 0.23436 0.24552 0.0
C1 C 0.22425 0.28466 0.30537 0.0
Co2 Co 0.27148 0.275 0.26362 0.0
C3 C 0.18479 0.17181 0.24273 0.0
C4 C 0.15758 0.20311 0.21923 0.0
N5 N 0.18869 0.20068 0.23226 0.0
N6 N 0.15263 0.15706 0.23909 0.0
C7 C 0.13547 0.17642 0.2233 0.0
H8 H 0.20517 0.16308 0.25594 0.0
H9 H 0.15107 0.22444 0.21126 0.0
C10 C 0.27416 0.2249 0.20366 0.0
N11 N 0.30922 0.30907 0.27738 0.0
C12 C 0.31215 0.33856 0.26858 0.0
C13 C 0.34059 0.30771 0.29103 0.0
N14 N 0.34399 0.35481 0.27385 0.0
C15 C 0.36197 0.33578 0.28895 0.0
C16 C 0.27741 0.22437 0.30019 0.0
O17 O 0.245 0.21241 0.2069 0.0
O18 O 0.28958 0.25283 0.22472 0.0
O19 O 0.292 0.25284 0.29848 0.0
O20 O 0.24793 0.21243 0.2809 0.0
O21 O 0.25339 0.29688 0.30206 0.0
H22 H 0.34785 0.28643 0.29823 0.0
H23 H 0.29161 0.34679 0.25479 0.0
O24 O 0.20874 0.25671 0.28451 0.0
O25 O 0.20646 0.25643 0.21043 0.0
O26 O 0.25039 0.29689 0.22824 0.0
C27 C 0.22107 0.28481 0.20858 0.0
H28 H 0.109 0.1738 0.21939 0.0
H29 H 0.38863 0.33976 0.29325 0.0
Co30 Co 0.78013 0.24627 0.23916 0.0
C31 C 0.78048 0.29747 0.2977 0.0
Co32 Co 0.73874 0.23739 0.26787 0.0
C33 C 0.81863 0.25132 0.18213 0.0
C34 C 0.84878 0.2615 0.23857 0.0
N35 N 0.81703 0.25318 0.21898 0.0
N36 N 0.85019 0.25834 0.17789 0.0
C37 C 0.86921 0.26469 0.21341 0.0
H38 H 0.79702 0.24586 0.15904 0.0
H39 H 0.85656 0.26602 0.26931 0.0
C40 C 0.73817 0.18632 0.20904 0.0
N41 N 0.70218 0.23086 0.28857 0.0
C42 C 0.7018 0.2343 0.32589 0.0
C43 C 0.67011 0.22365 0.27025 0.0
N44 N 0.67077 0.22969 0.33168 0.0
C45 C 0.65069 0.2229 0.29677 0.0
C46 C 0.72793 0.26726 0.20539 0.0
O47 O 0.76408 0.20508 0.20517 0.0
O48 O 0.72304 0.1958 0.23453 0.0
O49 O 0.71582 0.25627 0.23132 0.0
O50 O 0.75721 0.2656 0.20298 0.0
O51 O 0.7545 0.27881 0.3014 0.0
H52 H 0.6614 0.21882 0.2396 0.0
H53 H 0.72385 0.23968 0.3484 0.0
O54 O 0.79593 0.28779 0.2727 0.0
O55 O 0.80284 0.22686 0.27548 0.0
O56 O 0.76162 0.21843 0.30417 0.0
C57 C 0.79064 0.21613 0.3015 0.0
H58 H 0.89593 0.27327 0.22104 0.0
H59 H 0.62387 0.21609 0.29073 0.0
Co60 Co 0.74589 0.74141 0.25931 0.0
C61 C 0.80251 0.79276 0.28448 0.0
Co62 Co 0.75658 0.77226 0.21867 0.0
C63 C 0.76846 0.70792 0.31422 0.0
C64 C 0.71574 0.69923 0.30498 0.0
N65 N 0.74221 0.71538 0.29424 0.0
N66 N 0.75981 0.68789 0.3371 0.0
C67 C 0.72653 0.682 0.33127 0.0
H68 H 0.79359 0.71617 0.31097 0.0
H69 H 0.69033 0.69955 0.29401 0.0
C70 C 0.70164 0.71982 0.19199 0.0
N71 N 0.76036 0.79832 0.18394 0.0
C72 C 0.73409 0.80604 0.16443 0.0
C73 C 0.78682 0.81496 0.17363 0.0
N74 N 0.7427 0.82674 0.1423 0.0
C75 C 0.77598 0.83279 0.14809 0.0
C76 C 0.78723 0.72172 0.21032 0.0
O77 O 0.70819 0.71348 0.22472 0.0
O78 O 0.71942 0.74424 0.18444 0.0
O79 O 0.7837 0.74645 0.19673 0.0
O80 O 0.77293 0.71583 0.23711 0.0
O81 O 0.79438 0.79962 0.25236 0.0
H82 H 0.81226 0.81478 0.18464 0.0
H83 H 0.709 0.79767 0.16776 0.0
O84 O 0.78401 0.7694 0.2933 0.0
O85 O 0.71883 0.76682 0.28119 0.0
O86 O 0.72906 0.79797 0.24121 0.0
C87 C 0.71474 0.79149 0.26789 0.0
H88 H 0.71118 0.66633 0.34482 0.0
H89 H 0.7913 0.84915 0.13523 0.0
Co90 Co 0.24128 0.76684 0.24987 0.0
C91 C 0.2927 0.78003 0.31283 0.0
Co92 Co 0.27351 0.73295 0.24552 0.0
C93 C 0.18414 0.78982 0.26241 0.0
C94 C 0.21978 0.82653 0.24887 0.0
N95 N 0.214 0.79538 0.25324 0.0
N96 N 0.17138 0.81613 0.26435 0.0
C97 C 0.19351 0.83933 0.25566 0.0
H98 H 0.17211 0.76731 0.26878 0.0
H99 H 0.24214 0.83978 0.24272 0.0
C100 C 0.22155 0.71917 0.18277 0.0
N101 N 0.30056 0.70498 0.2418 0.0
C102 C 0.31442 0.69749 0.21198 0.0
C103 C 0.31215 0.68881 0.26754 0.0
N104 N 0.33454 0.6775 0.21797 0.0
C105 C 0.33321 0.67181 0.2529 0.0
C106 C 0.22155 0.71205 0.28076 0.0
O107 O 0.21442 0.7439 0.20133 0.0
O108 O 0.24674 0.71005 0.19719 0.0
O109 O 0.24648 0.70434 0.26979 0.0
O110 O 0.21476 0.73846 0.27467 0.0
O111 O 0.30022 0.75576 0.29392 0.0
H112 H 0.30607 0.68974 0.29527 0.0
H113 H 0.31055 0.7074 0.18677 0.0
O114 O 0.26776 0.78957 0.29841 0.0
O115 O 0.26824 0.79483 0.22555 0.0
O116 O 0.30077 0.76156 0.22093 0.0
C117 C 0.2935 0.78783 0.21492 0.0
H118 H 0.19181 0.86431 0.25666 0.0
H119 H 0.34651 0.6566 0.26688 0.0
Co120 Co 0.27588 0.74323 0.73519 0.0
C121 C 0.286 0.79102 0.80091 0.0
Co122 Co 0.23964 0.73353 0.77071 0.0
C123 C 0.30381 0.75345 0.67108 0.0
C124 C 0.34089 0.75369 0.71939 0.0
N125 N 0.30807 0.7504 0.70762 0.0
N126 N 0.33265 0.75861 0.65957 0.0
C127 C 0.35607 0.75873 0.68987 0.0
H128 H 0.28012 0.75274 0.65346 0.0
H129 H 0.35315 0.75345 0.74793 0.0
C130 C 0.22991 0.68549 0.70511 0.0
N131 N 0.20707 0.72642 0.79748 0.0
C132 C 0.21053 0.73044 0.83556 0.0
C133 C 0.17414 0.71806 0.78304 0.0
N134 N 0.18098 0.72507 0.84557 0.0
C135 C 0.15802 0.71716 0.81253 0.0
C136 C 0.22294 0.76894 0.71543 0.0
O137 O 0.25452 0.70431 0.69866 0.0
O138 O 0.21923 0.69365 0.73501 0.0
O139 O 0.2138 0.75592 0.74162 0.0
O140 O 0.25054 0.76668 0.70741 0.0
O141 O 0.26042 0.77306 0.80657 0.0
H142 H 0.16262 0.71281 0.75297 0.0
H143 H 0.2343 0.73709 0.85548 0.0
O144 O 0.29717 0.78241 0.7715 0.0
O145 O 0.30108 0.7198 0.76353 0.0
O146 O 0.26539 0.71131 0.79975 0.0
C147 C 0.29253 0.70809 0.79092 0.0
H148 H 0.3825 0.76421 0.69135 0.0
H149 H 0.13147 0.70979 0.80968 0.0
Co150 Co 0.24492 0.24602 0.77257 0.0
C151 C 0.28051 0.30709 0.76834 0.0
Co152 Co 0.23544 0.26013 0.71738 0.0
C153 C 0.26733 0.21047 0.82561 0.0
C154 C 0.26568 0.25789 0.85473 0.0
N155 N 0.25736 0.23741 0.81999 0.0
N156 N 0.28293 0.21357 0.8621 0.0
C157 C 0.2815 0.2433 0.88072 0.0
H158 H 0.26506 0.18983 0.80252 0.0
H159 H 0.26293 0.28275 0.86018 0.0
C160 C 0.19965 0.19919 0.72134 0.0
N161 N 0.22333 0.26774 0.6695 0.0
C162 C 0.21335 0.29376 0.66042 0.0
C163 C 0.21771 0.24595 0.63591 0.0
N164 N 0.20116 0.28883 0.62262 0.0
C165 C 0.20373 0.25878 0.607 0.0
C166 C 0.28407 0.22521 0.72237 0.0
O167 O 0.21562 0.20473 0.75548 0.0
O168 O 0.20389 0.22068 0.70193 0.0
O169 O 0.26755 0.2385 0.69992 0.0
O170 O 0.27907 0.2272 0.75597 0.0
O171 O 0.26725 0.30001 0.73304 0.0
H172 H 0.2216 0.22153 0.63294 0.0
H173 H 0.21261 0.31485 0.6814 0.0
O174 O 0.27417 0.28693 0.78905 0.0
O175 O 0.21104 0.26505 0.78892 0.0
O176 O 0.20332 0.2816 0.7353 0.0
C177 C 0.19657 0.28098 0.76793 0.0
H178 H 0.29339 0.25485 0.9102 0.0
H179 H 0.19465 0.24644 0.5772 0.0
Co180 Co 0.73028 0.27119 0.74569 0.0
C181 C 0.78705 0.2815 0.80435 0.0
Co182 Co 0.76164 0.2371 0.73756 0.0
C183 C 0.70412 0.31293 0.79333 0.0
C184 C 0.69256 0.31973 0.73632 0.0
N185 N 0.70648 0.30133 0.75742 0.0
N186 N 0.69031 0.33861 0.79626 0.0
C187 C 0.68257 0.34282 0.76024 0.0
H188 H 0.71468 0.304 0.81734 0.0
H189 H 0.69142 0.31764 0.70609 0.0
C190 C 0.70514 0.22726 0.67882 0.0
N191 N 0.78572 0.20719 0.72664 0.0
C192 C 0.79377 0.19831 0.69287 0.0
C193 C 0.79736 0.18813 0.74861 0.0
N194 N 0.80977 0.17425 0.69261 0.0
C195 C 0.81217 0.16766 0.72761 0.0
C196 C 0.71246 0.21598 0.77645 0.0
O197 O 0.69843 0.25065 0.7003 0.0
O198 O 0.73123 0.21805 0.68984 0.0
O199 O 0.73558 0.20765 0.76179 0.0
O200 O 0.70622 0.24327 0.77316 0.0
O201 O 0.7921 0.25603 0.78497 0.0
H202 H 0.79474 0.18873 0.77769 0.0
H203 H 0.787 0.20859 0.6685 0.0
O204 O 0.76247 0.29199 0.79131 0.0
O205 O 0.75419 0.29909 0.71819 0.0
O206 O 0.78777 0.26664 0.71338 0.0
C207 C 0.77942 0.29238 0.70688 0.0
H208 H 0.67173 0.36192 0.75181 0.0
H209 H 0.82374 0.14942 0.73728 0.0
Co210 Co 0.72933 0.7401 0.74177 0.0
C211 C 0.72674 0.78726 0.80442 0.0
Co212 Co 0.7741 0.78032 0.76189 0.0
C213 C 0.68788 0.67523 0.72608 0.0
C214 C 0.6598 0.71028 0.71618 0.0
N215 N 0.69107 0.70696 0.72517 0.0
N216 N 0.65587 0.6588 0.7199 0.0
C217 C 0.63817 0.6808 0.71291 0.0
H218 H 0.70876 0.66501 0.734 0.0
H219 H 0.65309 0.73322 0.71541 0.0
C220 C 0.77681 0.73313 0.69935 0.0
N221 N 0.8123 0.81329 0.77902 0.0
C222 C 0.81578 0.84565 0.78204 0.0
C223 C 0.84336 0.80963 0.78878 0.0
N224 N 0.84791 0.86242 0.79241 0.0
C225 C 0.8652 0.83963 0.79702 0.0
C226 C 0.77849 0.7265 0.79399 0.0
O227 O 0.74759 0.72043 0.70204 0.0
O228 O 0.7925 0.76031 0.72185 0.0
O229 O 0.79323 0.7554 0.79408 0.0
O230 O 0.74908 0.71513 0.77424 0.0
O231 O 0.75587 0.79993 0.80155 0.0
H232 H 0.84991 0.78644 0.78789 0.0
H233 H 0.79511 0.85638 0.7749 0.0
O234 O 0.71098 0.76012 0.78191 0.0
O235 O 0.71021 0.76498 0.70964 0.0
O236 O 0.7544 0.80543 0.72935 0.0
C237 C 0.72494 0.79389 0.70957 0.0
H238 H 0.61164 0.67702 0.70991 0.0
H239 H 0.8919 0.84372 0.80259 0.0
Cd240 Cd 0.99947 0.97847 0.5821 0.0
Cd241 Cd 0.01234 0.02946 0.47465 0.0
C242 C 0.06099 0.95591 0.62346 0.0
N243 N 0.03662 0.94543 0.59115 0.0
C244 C 0.05485 0.89651 0.57441 0.0
C245 C 0.08002 0.90658 0.60783 0.0
C246 C 0.0832 0.93692 0.63227 0.0
C247 C 0.03333 0.91645 0.56652 0.0
H248 H 0.06278 0.97883 0.64283 0.0
H249 H 0.01371 0.90841 0.54112 0.0
C250 C 0.97262 0.94791 0.48626 0.0
C251 C 0.93978 0.03846 0.44128 0.0
C252 C 0.91676 0.05628 0.43071 0.0
C253 C 0.9228 0.08962 0.44826 0.0
C254 C 0.95102 0.10351 0.47798 0.0
C255 C 0.97338 0.08484 0.48752 0.0
N256 N 0.96764 0.05317 0.46873 0.0
H257 H 0.93652 0.01355 0.42592 0.0
H258 H 0.99621 0.09605 0.50857 0.0
C259 C 0.0122 0.97105 0.40484 0.0
N260 N 0.02527 0.98468 0.44242 0.0
C261 C 0.0561 0.94449 0.4479 0.0
C262 C 0.04341 0.92992 0.40898 0.0
C263 C 0.02125 0.94362 0.38731 0.0
C264 C 0.04741 0.97254 0.46379 0.0
H265 H 0.9948 0.98144 0.38855 0.0
H266 H 0.05748 0.98419 0.49359 0.0
C267 C 0.05685 0.02945 0.56464 0.0
C268 C 0.96578 0.97089 0.64126 0.0
N269 N 0.97195 0.01569 0.5609 0.0
C270 C 0.98196 0.04736 0.58045 0.0
C271 C 0.96206 0.06893 0.57414 0.0
C272 C 0.9316 0.05776 0.54725 0.0
C273 C 0.92318 0.02546 0.52576 0.0
C274 C 0.94317 0.00452 0.53403 0.0
C275 C 0.04746 0.06039 0.42798 0.0
O276 O 0.97455 0.94201 0.51939 0.0
O277 O 0.98621 0.97587 0.48213 0.0
O278 O 0.03211 0.02605 0.53811 0.0
O279 O 0.05238 0.0169 0.5927 0.0
O280 O 0.95715 0.95116 0.60884 0.0
O281 O 0.99162 0.99381 0.64709 0.0
O282 O 0.06124 0.06518 0.46333 0.0
O283 O 0.01772 0.0436 0.41677 0.0
H284 H 0.00431 0.05527 0.60275 0.0
H285 H 0.93437 0.9789 0.52066 0.0
H286 H 0.05169 0.87337 0.55471 0.0
H287 H 0.10192 0.94539 0.65861 0.0
H288 H 0.89574 0.04462 0.40722 0.0
H289 H 0.95649 0.12893 0.49271 0.0
H290 H 0.07275 0.93458 0.46597 0.0
H291 H 0.01152 0.93384 0.357 0.0
H292 H 0.96946 0.09328 0.59227 0.0
H293 H 0.90034 0.01574 0.50434 0.0
Cd294 Cd 0.46677 0.98755 0.048 0.0
Cd295 Cd 0.539 0.0279 0.95594 0.0
C296 C 0.52412 0.95968 0.09088 0.0
N297 N 0.50827 0.95965 0.0551 0.0
C298 C 0.54471 0.93152 0.02741 0.0
C299 C 0.56228 0.93216 0.06402 0.0
C300 C 0.55141 0.94608 0.09604 0.0
C301 C 0.51755 0.94539 0.02358 0.0
H302 H 0.51608 0.97112 0.11541 0.0
H303 H 0.50431 0.94525 0.99544 0.0
C304 C 0.46621 0.97792 0.94617 0.0
C305 C 0.48227 0.05506 0.91289 0.0
C306 C 0.45622 0.07019 0.90693 0.0
C307 C 0.44649 0.08652 0.93849 0.0
C308 C 0.46354 0.08752 0.97547 0.0
C309 C 0.48943 0.07193 0.9801 0.0
N310 N 0.49799 0.05596 0.94898 0.0
H311 H 0.48977 0.04222 0.88876 0.0
H312 H 0.5025 0.07239 0.0085 0.0
C313 C 0.55015 0.95343 0.9332 0.0
N314 N 0.56646 0.98523 0.94838 0.0
C315 C 0.61863 0.97205 0.94618 0.0
C316 C 0.6025 0.93927 0.9289 0.0
C317 C 0.56778 0.92992 0.92335 0.0
C318 C 0.60008 0.99468 0.95555 0.0
H319 H 0.5234 0.94641 0.9273 0.0
H320 H 0.61246 0.02015 0.96722 0.0
C321 C 0.54214 0.03401 0.05874 0.0
C322 C 0.42575 0.94196 0.08155 0.0
N323 N 0.43934 0.03028 0.05854 0.0
C324 C 0.45548 0.06193 0.07504 0.0
C325 C 0.43763 0.085 0.08615 0.0
C326 C 0.40288 0.07535 0.08055 0.0
C327 C 0.387 0.04276 0.06202 0.0
C328 C 0.40573 0.02062 0.05134 0.0
C329 C 0.5808 0.07053 0.91969 0.0
O330 O 0.47468 0.98877 0.98214 0.0
O331 O 0.48596 0.9878 0.9255 0.0
O332 O 0.53264 0.02785 0.02261 0.0
O333 O 0.52131 0.02523 0.07877 0.0
O334 O 0.4239 0.93639 0.04554 0.0
O335 O 0.44587 0.96835 0.10116 0.0
O336 O 0.58316 0.07733 0.9558 0.0
O337 O 0.55966 0.04441 0.90116 0.0
H338 H 0.48225 0.06907 0.08094 0.0
H339 H 0.39349 0.99528 0.03848 0.0
H340 H 0.55228 0.92107 0.00201 0.0
H341 H 0.56387 0.94647 0.12477 0.0
H342 H 0.44401 0.06936 0.87796 0.0
H343 H 0.45664 0.0998 0.00047 0.0
H344 H 0.64534 0.98037 0.95161 0.0
H345 H 0.5542 0.90504 0.90988 0.0
H346 H 0.45106 0.10973 0.10053 0.0
H347 H 0.3603 0.03421 0.05641 0.0
Cd348 Cd 0.98789 0.48438 0.06197 0.0
Cd349 Cd 0.0118 0.52452 0.93898 0.0
C350 C 0.04649 0.46878 0.12262 0.0
N351 N 0.03511 0.46583 0.08456 0.0
C352 C 0.0699 0.42975 0.0696 0.0
C353 C 0.0812 0.43114 0.10867 0.0
C354 C 0.06972 0.4517 0.13534 0.0
C355 C 0.04672 0.44721 0.05816 0.0
H356 H 0.03629 0.48307 0.14307 0.0
H357 H 0.03684 0.44477 0.02807 0.0
C358 C 0.9601 0.46324 0.95853 0.0
C359 C 0.96249 0.54738 0.87244 0.0
C360 C 0.93949 0.56453 0.859 0.0
C361 C 0.92316 0.58049 0.88443 0.0
C362 C 0.92959 0.57742 0.92258 0.0
C363 C 0.95251 0.55998 0.93468 0.0
N364 N 0.96877 0.54576 0.90986 0.0
H365 H 0.97607 0.53633 0.85331 0.0
H366 H 0.95817 0.55861 0.96435 0.0
C367 C 0.03586 0.47966 0.87 0.0
N368 N 0.03684 0.48559 0.90818 0.0
C369 C 0.06862 0.44587 0.91573 0.0
C370 C 0.06851 0.43934 0.87645 0.0
C371 C 0.05158 0.45656 0.8535 0.0
C372 C 0.05265 0.46911 0.93098 0.0
H373 H 0.02312 0.49304 0.85239 0.0
H374 H 0.05286 0.47408 0.9612 0.0
C375 C 0.04068 0.54087 0.04055 0.0
C376 C 0.95251 0.42534 0.07145 0.0
N377 N 0.95836 0.52131 0.08784 0.0
C378 C 0.97444 0.55168 0.10924 0.0
C379 C 0.95654 0.57392 0.12247 0.0
C380 C 0.92166 0.56491 0.11379 0.0
C381 C 0.90582 0.53321 0.09195 0.0
C382 C 0.92468 0.51181 0.07919 0.0
C383 C 0.06194 0.58089 0.9488 0.0
O384 O 0.97456 0.47832 0.99243 0.0
O385 O 0.96771 0.47531 0.93098 0.0
O386 O 0.02335 0.52534 0.00783 0.0
O387 O 0.03439 0.53091 0.06982 0.0
O388 O 0.95388 0.42999 0.03826 0.0
O389 O 0.96617 0.44913 0.09999 0.0
O390 O 0.03992 0.58042 0.96853 0.0
O391 O 0.05969 0.55526 0.92362 0.0
H392 H 1.00122 0.55881 0.1159 0.0
H393 H 0.91243 0.48765 0.06188 0.0
H394 H 0.0783 0.4147 0.04792 0.0
H395 H 0.07729 0.45336 0.16569 0.0
H396 H 0.93558 0.56638 0.82942 0.0
H397 H 0.91733 0.58877 0.94316 0.0
H398 H 0.0807 0.43293 0.93458 0.0
H399 H 0.05099 0.45272 0.82319 0.0
H400 H 0.96995 0.59784 0.13962 0.0
H401 H 0.87906 0.52516 0.08405 0.0
Cd402 Cd 0.50355 0.4579 0.04252 0.0
Cd403 Cd 0.52433 0.51612 0.94344 0.0
C404 C 0.56935 0.44032 0.07905 0.0
N405 N 0.5445 0.4286 0.04728 0.0
C406 C 0.56446 0.38058 0.03143 0.0
C407 C 0.58987 0.39178 0.06473 0.0
C408 C 0.59251 0.42243 0.08815 0.0
C409 C 0.54189 0.39956 0.02316 0.0
H410 H 0.57029 0.46288 0.09851 0.0
H411 H 0.52154 0.39054 0.99843 0.0
C412 C 0.47492 0.44777 0.93987 0.0
C413 C 0.45665 0.53125 0.91407 0.0
C414 C 0.43295 0.54778 0.90228 0.0
C415 C 0.43729 0.58083 0.91935 0.0
C416 C 0.46456 0.59587 0.94989 0.0
C417 C 0.48801 0.5784 0.96058 0.0
N418 N 0.48391 0.54676 0.94216 0.0
H419 H 0.45431 0.50653 0.89892 0.0
H420 H 0.51029 0.59094 0.98167 0.0
C421 C 0.56742 0.46684 0.96173 0.0
N422 N 0.5713 0.4994 0.96464 0.0
C423 C 0.62962 0.50913 0.98782 0.0
C424 C 0.62668 0.47526 0.98274 0.0
C425 C 0.59473 0.4542 0.97086 0.0
C426 C 0.60151 0.52066 0.97759 0.0
H427 H 0.54328 0.45042 0.95044 0.0
H428 H 0.60385 0.54649 0.97931 0.0
C429 C 0.55253 0.52103 0.04179 0.0
C430 C 0.46423 0.42978 0.08792 0.0
N431 N 0.48332 0.50388 0.05437 0.0
C432 C 0.49054 0.52127 0.09104 0.0
C433 C 0.47949 0.54948 0.0999 0.0
C434 C 0.46042 0.55948 0.07077 0.0
C435 C 0.4532 0.54103 0.03315 0.0
C436 C 0.46496 0.51301 0.02553 0.0
C437 C 0.55415 0.53796 0.88727 0.0
O438 O 0.49017 0.45535 0.97447 0.0
O439 O 0.48488 0.46448 0.91692 0.0
O440 O 0.5327 0.51021 0.00947 0.0
O441 O 0.54929 0.5051 0.06745 0.0
O442 O 0.45221 0.42608 0.05244 0.0
O443 O 0.4945 0.44439 0.10064 0.0
O444 O 0.55882 0.55634 0.9204 0.0
O445 O 0.53506 0.50952 0.88048 0.0
H446 H 0.50487 0.5131 0.11335 0.0
H447 H 0.45932 0.49853 0.9967 0.0
H448 H 0.56159 0.35709 0.01258 0.0
H449 H 0.61116 0.43173 0.1145 0.0
H450 H 0.41218 0.53522 0.87876 0.0
H451 H 0.46897 0.62146 0.9635 0.0
H452 H 0.65353 0.52642 0.99743 0.0
H453 H 0.59071 0.42789 0.96534 0.0
H454 H 0.48472 0.56258 0.12945 0.0
H455 H 0.43823 0.54791 0.01011 0.0
Cd456 Cd 0.95599 0.4869 0.53731 0.0
Cd457 Cd 0.0315 0.52598 0.44648 0.0
C458 C 0.00624 0.45125 0.57757 0.0
N459 N 0.99382 0.45504 0.54218 0.0
C460 C 0.02895 0.42483 0.51502 0.0
C461 C 0.0428 0.42109 0.55139 0.0
C462 C 0.03066 0.4341 0.58282 0.0
C463 C 0.00428 0.44192 0.51102 0.0
H464 H 0.99764 0.46213 0.6019 0.0
H465 H 0.99395 0.44514 0.48314 0.0
C466 C 0.95506 0.48197 0.43578 0.0
C467 C 0.97782 0.55697 0.40243 0.0
C468 C 0.95107 0.57119 0.39615 0.0
C469 C 0.93881 0.58445 0.42732 0.0
C470 C 0.95446 0.58388 0.46435 0.0
C471 C 0.98106 0.56924 0.4693 0.0
N472 N 0.99174 0.55573 0.43847 0.0
H473 H 0.98681 0.54588 0.37849 0.0
H474 H 0.99258 0.5679 0.49764 0.0
C475 C 0.05084 0.46706 0.39463 0.0
N476 N 0.05357 0.47992 0.4323 0.0
C477 C 0.08911 0.44541 0.44982 0.0
C478 C 0.08793 0.43284 0.41105 0.0
C479 C 0.06794 0.44356 0.38335 0.0
C480 C 0.07194 0.46937 0.45988 0.0
H481 H 0.03637 0.47606 0.37324 0.0
H482 H 0.07423 0.48036 0.48967 0.0
C483 C 0.03348 0.52995 0.54892 0.0
C484 C 0.91259 0.44293 0.57058 0.0
N485 N 0.93251 0.53195 0.55017 0.0
C486 C 0.95038 0.56247 0.56925 0.0
C487 C 0.93418 0.58679 0.58107 0.0
C488 C 0.89931 0.5795 0.57346 0.0
C489 C 0.88172 0.5481 0.55232 0.0
C490 C 0.89885 0.52466 0.54103 0.0
C491 C 0.0771 0.56881 0.41435 0.0
O492 O 0.96456 0.48942 0.47193 0.0
O493 O 0.9758 0.49042 0.41554 0.0
O494 O 0.02457 0.52442 0.51275 0.0
O495 O 0.01207 0.52121 0.5683 0.0
O496 O 0.90753 0.44003 0.53441 0.0
O497 O 0.93659 0.46616 0.59043 0.0
O498 O 0.07872 0.57425 0.45033 0.0
O499 O 0.05487 0.54414 0.3942 0.0
H500 H 0.97714 0.56766 0.57659 0.0
H501 H 0.88523 0.50016 0.52606 0.0
H502 H 0.03751 0.41529 0.48999 0.0
H503 H 0.03987 0.43111 0.61127 0.0
H504 H 0.93997 0.57163 0.36721 0.0
H505 H 0.94563 0.59374 0.48907 0.0
H506 H 0.10434 0.43794 0.4721 0.0
H507 H 0.0661 0.43433 0.35317 0.0
H508 H 0.94881 0.61055 0.59748 0.0
H509 H 0.85489 0.54146 0.54518 0.0
Cd510 Cd 0.48433 0.99004 0.56671 0.0
Cd511 Cd 0.50688 0.01546 0.43157 0.0
C512 C 0.54273 0.97362 0.62851 0.0
N513 N 0.53084 0.97045 0.59049 0.0
C514 C 0.56674 0.9356 0.57516 0.0
C515 C 0.57867 0.93723 0.61418 0.0
C516 C 0.56673 0.95721 0.64101 0.0
C517 C 0.54273 0.95227 0.56396 0.0
H518 H 0.53258 0.98778 0.64914 0.0
H519 H 0.53273 0.94986 0.53391 0.0
C520 C 0.45816 0.96039 0.46428 0.0
C521 C 0.45182 0.03565 0.37033 0.0
C522 C 0.42913 0.0534 0.35804 0.0
C523 C 0.41473 0.07066 0.3846 0.0
C524 C 0.42278 0.0683 0.42292 0.0
C525 C 0.44588 0.05059 0.43405 0.0
N526 N 0.46034 0.03518 0.40796 0.0
H527 H 0.4639 0.0236 0.3501 0.0
H528 H 0.45346 0.05041 0.4639 0.0
C529 C 0.51844 0.94811 0.37912 0.0
N530 N 0.53442 0.97818 0.40143 0.0
C531 C 0.58696 0.96787 0.39393 0.0
C532 C 0.57136 0.93663 0.37076 0.0
C533 C 0.53648 0.92688 0.36348 0.0
C534 C 0.56805 0.98819 0.40895 0.0
H535 H 0.4917 0.94048 0.37355 0.0
H536 H 0.58032 0.012 0.42709 0.0
C537 C 0.53448 0.04451 0.53436 0.0
C538 C 0.44176 0.9318 0.56907 0.0
N539 N 0.45885 0.02881 0.59841 0.0
C540 C 0.47152 0.0616 0.60413 0.0
C541 C 0.45431 0.08392 0.61895 0.0
C542 C 0.42356 0.07262 0.62797 0.0
C543 C 0.41144 0.03863 0.62243 0.0
C544 C 0.42947 0.01717 0.60756 0.0
C545 C 0.54864 0.07346 0.42788 0.0
O546 O 0.47449 0.97832 0.49631 0.0
O547 O 0.4642 0.96803 0.43366 0.0
O548 O 0.51809 0.02713 0.50207 0.0
O549 O 0.52835 0.03631 0.56464 0.0
O550 O 0.43482 0.94641 0.5425 0.0
O551 O 0.46713 0.94585 0.5957 0.0
O552 O 0.55321 0.06148 0.45718 0.0
O553 O 0.52593 0.05691 0.39928 0.0
H554 H 0.4947 0.07066 0.59654 0.0
H555 H 0.41952 0.99108 0.60238 0.0
H556 H 0.57548 0.92116 0.55329 0.0
H557 H 0.57474 0.9591 0.67134 0.0
H558 H 0.42346 0.05419 0.32815 0.0
H559 H 0.41263 0.08138 0.4445 0.0
H560 H 0.61369 0.97644 0.40109 0.0
H561 H 0.52319 0.90322 0.34556 0.0
H562 H 0.46503 0.10982 0.62317 0.0
H563 H 0.38772 0.02855 0.62839 0.0
H564 H 0.18689 0.14051 0.30049 0.0
H565 H 0.08955 0.12128 0.22717 0.0
H566 H 0.16318 0.11243 0.34462 0.0
H567 H 0.0656 0.095 0.27286 0.0
H568 H 0.0314 0.03481 0.35216 0.0
H569 H 0.05937 0.05121 0.30368 0.0
H570 H 0.13132 0.12691 0.39048 0.0
H571 H 0.10387 0.10925 0.43963 0.0
C572 C 0.16052 0.12985 0.29316 0.0
C573 C 0.14002 0.13397 0.2604 0.0
C574 C 0.14687 0.11415 0.31904 0.0
C575 C 0.11246 0.10234 0.3129 0.0
C576 C 0.09226 0.10392 0.27862 0.0
C577 C 0.10595 0.11928 0.2525 0.0
C578 C 0.05322 0.05499 0.36097 0.0
C579 C 0.06529 0.07113 0.39959 0.0
C580 C 0.06923 0.06437 0.33311 0.0
C581 C 0.09741 0.09048 0.34309 0.0
C582 C 0.10989 0.10634 0.3819 0.0
C583 C 0.09408 0.09654 0.41002 0.0
H584 H 0.8543 0.211 0.30509 0.0
H585 H 0.77019 0.18456 0.35548 0.0
H586 H 0.88502 0.182 0.34397 0.0
H587 H 0.80138 0.15584 0.39515 0.0
H588 H 0.94355 0.15205 0.43971 0.0
H589 H 0.91116 0.18458 0.40896 0.0
H590 H 0.82299 0.10665 0.38794 0.0
H591 H 0.85523 0.07451 0.42062 0.0
C592 C 0.84244 0.19924 0.32475 0.0
C593 C 0.80974 0.20006 0.3271 0.0
C594 C 0.86017 0.18276 0.34728 0.0
C595 C 0.84572 0.16664 0.37281 0.0
C596 C 0.81313 0.16776 0.37553 0.0
C597 C 0.79535 0.18438 0.35299 0.0
C598 C 0.91711 0.14206 0.42951 0.0
C599 C 0.90206 0.11053 0.43272 0.0
C600 C 0.8986 0.1606 0.4113 0.0
C601 C 0.86454 0.14811 0.39555 0.0
C602 C 0.84915 0.1171 0.39993 0.0
C603 C 0.86771 0.09852 0.41831 0.0
H604 H 0.85506 0.8317 0.26802 0.0
H605 H 0.82117 0.79255 0.35942 0.0
H606 H 0.90611 0.86365 0.31275 0.0
H607 H 0.87137 0.82518 0.40417 0.0
H608 H 0.96371 0.88249 0.48051 0.0
H609 H 0.931 0.839 0.42632 0.0
H610 H 0.91205 0.91154 0.36259 0.0
H611 H 0.94481 0.95463 0.41636 0.0
C612 C 0.85856 0.82998 0.29766 0.0
C613 C 0.83388 0.81058 0.31068 0.0
C614 C 0.8878 0.848 0.32309 0.0
C615 C 0.89248 0.84716 0.36192 0.0
C616 C 0.86865 0.82608 0.37432 0.0
C617 C 0.83964 0.8078 0.34884 0.0
C618 C 0.95287 0.88896 0.45463 0.0
C619 C 0.95622 0.92177 0.45257 0.0
C620 C 0.9344 0.86415 0.42365 0.0
C621 C 0.91879 0.87194 0.39046 0.0
C622 C 0.92414 0.90473 0.3876 0.0
C623 C 0.94265 0.92946 0.41849 0.0
H624 H 0.15594 0.7949 0.32543 0.0
H625 H 0.12658 0.84905 0.24194 0.0
H626 H 0.1163 0.81185 0.36147 0.0
H627 H 0.0864 0.86556 0.27773 0.0
H628 H 0.10527 0.91903 0.42632 0.0
H629 H 0.12765 0.87915 0.39012 0.0
H630 H 0.03307 0.84033 0.31097 0.0
H631 H 0.00922 0.87869 0.34906 0.0
C632 C 0.14002 0.80933 0.31406 0.0
C633 C 0.14413 0.82091 0.28113 0.0
C634 C 0.11744 0.81889 0.33457 0.0
C635 C 0.09835 0.83955 0.3219 0.0
C636 C 0.10059 0.84907 0.28744 0.0
C637 C 0.12365 0.84002 0.26731 0.0
C638 C 0.08856 0.90114 0.40238 0.0
C639 C 0.05543 0.9024 0.39039 0.0
C640 C 0.10154 0.87835 0.3816 0.0
C641 C 0.08191 0.85696 0.34803 0.0
C642 C 0.04843 0.85675 0.33696 0.0
C643 C 0.03508 0.87899 0.35843 0.0
H644 H 0.1593 0.77029 0.71882 0.0
H645 H 0.23901 0.80883 0.66723 0.0
H646 H 0.12529 0.80224 0.68898 0.0
H647 H 0.20468 0.84081 0.63711 0.0
H648 H 0.14704 0.92334 0.63657 0.0
H649 H 0.1817 0.8885 0.6592 0.0
H650 H 0.09666 0.80602 0.6253 0.0
H651 H 0.0619 0.84096 0.60345 0.0
C652 C 0.1695 0.78543 0.70089 0.0
C653 C 0.2019 0.78711 0.69549 0.0
C654 C 0.1499 0.80357 0.68358 0.0
C655 C 0.1623 0.82401 0.66067 0.0
C656 C 0.19457 0.82545 0.65486 0.0
C657 C 0.21413 0.80702 0.67194 0.0
C658 C 0.13581 0.89774 0.63384 0.0
C659 C 0.10173 0.88492 0.61837 0.0
C660 C 0.15571 0.87774 0.64646 0.0
C661 C 0.14187 0.84456 0.64415 0.0
C662 C 0.10796 0.83157 0.62778 0.0
C663 C 0.08813 0.8515 0.61492 0.0
H664 H 0.13534 0.17617 0.68868 0.0
H665 H 0.23027 0.15181 0.70221 0.0
H666 H 0.11435 0.13285 0.63133 0.0
H667 H 0.20966 0.1086 0.64355 0.0
H668 H 0.11394 0.0137 0.59126 0.0
H669 H 0.16441 0.05538 0.62145 0.0
H670 H 0.12619 0.12377 0.56379 0.0
H671 H 0.07452 0.08291 0.53622 0.0
C672 C 0.1512 0.16058 0.67993 0.0
C673 C 0.18387 0.16642 0.69984 0.0
C674 C 0.13981 0.13673 0.64639 0.0
C675 C 0.16119 0.11879 0.63193 0.0
C676 C 0.19318 0.12288 0.65358 0.0
C677 C 0.2045 0.1467 0.68756 0.0
C678 C 0.11709 0.0372 0.58351 0.0
C679 C 0.09012 0.04605 0.56332 0.0
C680 C 0.14624 0.0609 0.60031 0.0
C681 C 0.14766 0.09312 0.5969 0.0
C682 C 0.12463 0.09913 0.56784 0.0
C683 C 0.09503 0.07573 0.55189 0.0
H684 H 0.81292 0.11137 0.67628 0.0
H685 H 0.83116 0.20115 0.63709 0.0
H686 H 0.83467 0.08501 0.62489 0.0
H687 H 0.85231 0.17445 0.58463 0.0
H688 H 0.94144 0.12482 0.56057 0.0
H689 H 0.90382 0.15505 0.58492 0.0
H690 H 0.82626 0.06619 0.55544 0.0
H691 H 0.864 0.03555 0.534 0.0
C692 C 0.82134 0.12533 0.65641 0.0
C693 C 0.82078 0.15831 0.66088 0.0
C694 C 0.8332 0.11013 0.62649 0.0
C695 C 0.84483 0.12764 0.60045 0.0
C696 C 0.84335 0.16041 0.6042 0.0
C697 C 0.83125 0.1756 0.63412 0.0
C698 C 0.91619 0.11177 0.55857 0.0
C699 C 0.90645 0.07747 0.5471 0.0
C700 C 0.89445 0.12923 0.57198 0.0
C701 C 0.86258 0.1126 0.57338 0.0
C702 C 0.8511 0.07935 0.55568 0.0
C703 C 0.8729 0.06182 0.54297 0.0
H704 H 0.91084 0.89953 0.82062 0.0
H705 H 0.81592 0.89988 0.75333 0.0
H706 H 0.93802 0.94028 0.7907 0.0
H707 H 0.843 0.94195 0.7254 0.0
H708 H 0.98273 0.00091 0.71745 0.0
H709 H 0.95078 0.99023 0.76587 0.0
H710 H 0.87271 0.92226 0.67777 0.0
H711 H 0.90407 0.93298 0.6302 0.0
C712 C 0.89561 0.90903 0.80048 0.0
C713 C 0.86145 0.89469 0.78748 0.0
C714 C 0.9112 0.93289 0.78379 0.0
C715 C 0.89267 0.94314 0.75445 0.0
C716 C 0.85794 0.93353 0.74704 0.0
C717 C 0.8424 0.90931 0.76324 0.0
C718 C 0.95847 0.98413 0.70861 0.0
C719 C 0.94607 0.96726 0.67031 0.0
C720 C 0.94019 0.97817 0.7362 0.0
C721 C 0.90916 0.95563 0.72563 0.0
C722 C 0.89618 0.94032 0.68689 0.0
C723 C 0.91444 0.94601 0.65961 0.0
H724 H 0.33901 0.24087 0.19749 0.0
H725 H 0.24915 0.16414 0.15602 0.0
H726 H 0.3695 0.20572 0.16572 0.0
H727 H 0.27944 0.12928 0.12346 0.0
H728 H 0.35066 0.06214 0.11519 0.0
H729 H 0.31915 0.09907 0.14076 0.0
H730 H 0.37928 0.17815 0.10658 0.0
H731 H 0.41109 0.14097 0.08098 0.0
C732 C 0.32557 0.21674 0.18094 0.0
C733 C 0.29156 0.20538 0.1795 0.0
C734 C 0.3431 0.19653 0.16259 0.0
C735 C 0.32713 0.16438 0.14224 0.0
C736 C 0.29281 0.15359 0.13948 0.0
C737 C 0.2753 0.17375 0.15788 0.0
C738 C 0.35695 0.08728 0.11254 0.0
C739 C 0.38338 0.09838 0.09566 0.0
C740 C 0.33876 0.10856 0.12725 0.0
C741 C 0.34635 0.1417 0.12557 0.0
C742 C 0.37284 0.15291 0.10876 0.0
C743 C 0.39113 0.13155 0.09405 0.0
H744 H 0.90898 0.25464 0.16023 0.0
H745 H 0.81725 0.28055 0.12134 0.0
H746 H 0.93548 0.28668 0.12016 0.0
H747 H 0.84356 0.31197 0.08109 0.0
H748 H 0.90648 0.37543 0.01994 0.0
H749 H 0.88111 0.32204 0.03085 0.0
H750 H 0.94154 0.34935 0.1455 0.0
H751 H 0.96609 0.40238 0.13502 0.0
C752 C 0.89418 0.2661 0.14203 0.0
C753 C 0.86152 0.26626 0.14507 0.0
C754 C 0.90923 0.28414 0.11892 0.0
C755 C 0.89166 0.30232 0.09849 0.0
C756 C 0.8576 0.29817 0.09672 0.0
C757 C 0.84256 0.28022 0.11997 0.0
C758 C 0.91435 0.36976 0.0473 0.0
C759 C 0.93769 0.39305 0.07692 0.0
C760 C 0.90012 0.33927 0.05334 0.0
C761 C 0.90987 0.33155 0.08869 0.0
C762 C 0.93416 0.35447 0.11766 0.0
C763 C 0.94776 0.38501 0.11193 0.0
H764 H 0.67959 0.79818 0.10587 0.0
H765 H 0.75479 0.88842 0.131 0.0
H766 H 0.6381 0.8252 0.0811 0.0
H767 H 0.71328 0.91555 0.10457 0.0
H768 H 0.62072 0.95723 0.11664 0.0
H769 H 0.6672 0.93208 0.12806 0.0
H770 H 0.61754 0.85143 0.03228 0.0
H771 H 0.57035 0.8758 0.02204 0.0
C772 C 0.68732 0.82372 0.10532 0.0
C773 C 0.72026 0.84136 0.12087 0.0
C774 C 0.66361 0.83915 0.09073 0.0
C775 C 0.67235 0.8726 0.09111 0.0
C776 C 0.70576 0.88982 0.10439 0.0
C777 C 0.72958 0.87428 0.11909 0.0
C778 C 0.61972 0.93409 0.0981 0.0
C779 C 0.59167 0.91824 0.06884 0.0
C780 C 0.64659 0.91995 0.10422 0.0
C781 C 0.64602 0.88972 0.08111 0.0
C782 C 0.61856 0.87458 0.05081 0.0
C783 C 0.59164 0.88866 0.04478 0.0
H784 H 0.22519 0.66052 0.14212 0.0
H785 H 0.16654 0.7322 0.14252 0.0
H786 H 0.18138 0.6216 0.09373 0.0
H787 H 0.12302 0.69355 0.09256 0.0
H788 H 0.04011 0.59948 0.08079 0.0
H789 H 0.08553 0.64797 0.10157 0.0
H790 H 0.14349 0.59951 0.03376 0.0
H791 H 0.0976 0.5503 0.01383 0.0
C792 C 0.20332 0.66832 0.13101 0.0
C793 C 0.19881 0.69902 0.14709 0.0
C794 C 0.17824 0.64604 0.10282 0.0
C795 C 0.14822 0.65411 0.0899 0.0
C796 C 0.14544 0.68623 0.10273 0.0
C797 C 0.1704 0.70841 0.1313 0.0
C798 C 0.06233 0.59959 0.06968 0.0
C799 C 0.06568 0.57143 0.04601 0.0
C800 C 0.0883 0.62749 0.08119 0.0
C801 C 0.1184 0.62768 0.06959 0.0
C802 C 0.12084 0.60001 0.0437 0.0
C803 C 0.09466 0.57196 0.03213 0.0
H804 H 0.31324 0.79886 0.87601 0.0
H805 H 0.29768 0.85088 0.78633 0.0
H806 H 0.35315 0.84795 0.91695 0.0
H807 H 0.33636 0.90009 0.82741 0.0
H808 H 0.41556 0.95543 0.9797 0.0
H809 H 0.36506 0.91212 0.94952 0.0
H810 H 0.39832 0.90022 0.84348 0.0
H811 H 0.4483 0.9426 0.87322 0.0
C812 C 0.31751 0.82123 0.86581 0.0
C813 C 0.30318 0.82147 0.8282 0.0
C814 C 0.34007 0.84919 0.88914 0.0
C815 C 0.34799 0.87741 0.87489 0.0
C816 C 0.33091 0.87835 0.83863 0.0
C817 C 0.30893 0.85039 0.81522 0.0
C818 C 0.41201 0.94332 0.95002 0.0
C819 C 0.43576 0.95228 0.92875 0.0
C820 C 0.38319 0.91879 0.93285 0.0
C821 C 0.37775 0.90345 0.89414 0.0
C822 C 0.40165 0.91232 0.87317 0.0
C823 C 0.43032 0.93648 0.89025 0.0
H824 H 0.18473 0.29323 0.84015 0.0
H825 H 0.15933 0.31527 0.72942 0.0
H826 H 0.15283 0.33012 0.86575 0.0
H827 H 0.12777 0.35247 0.75514 0.0
H828 H 0.04957 0.39544 0.80659 0.0
H829 H 0.07845 0.35584 0.78005 0.0
H830 H 0.15645 0.38831 0.88212 0.0
H831 H 0.12781 0.42795 0.90851 0.0
C832 C 0.17208 0.30568 0.82113 0.0
C833 C 0.1746 0.30113 0.78264 0.0
C834 C 0.15401 0.32713 0.83593 0.0
C835 C 0.13778 0.34455 0.81265 0.0
C836 C 0.13961 0.33932 0.7739 0.0
C837 C 0.15785 0.31801 0.75915 0.0
C838 C 0.07302 0.39438 0.82329 0.0
C839 C 0.08618 0.41502 0.85986 0.0
C840 C 0.0896 0.37156 0.80805 0.0
C841 C 0.1198 0.36864 0.82893 0.0
C842 C 0.13296 0.38931 0.86543 0.0
C843 C 0.11646 0.41214 0.88062 0.0
H844 H 0.70974 0.15125 0.77656 0.0
H845 H 0.67194 0.23197 0.82464 0.0
H846 H 0.67889 0.11653 0.81132 0.0
H847 H 0.64139 0.19735 0.85969 0.0
H848 H 0.61901 0.13375 0.94742 0.0
H849 H 0.65073 0.16864 0.91334 0.0
H850 H 0.62063 0.0905 0.81217 0.0
H851 H 0.58879 0.05588 0.84599 0.0
C852 C 0.6949 0.16166 0.79456 0.0
C853 C 0.69342 0.19454 0.79759 0.0
C854 C 0.67704 0.14165 0.81444 0.0
C855 C 0.65755 0.15399 0.83856 0.0
C856 C 0.65631 0.18696 0.84179 0.0
C857 C 0.67372 0.20681 0.82142 0.0
C858 C 0.61921 0.12398 0.91794 0.0
C859 C 0.60121 0.09188 0.89961 0.0
C860 C 0.63728 0.14408 0.89826 0.0
C861 C 0.63839 0.13254 0.85983 0.0
C862 C 0.62073 0.10028 0.84175 0.0
C863 C 0.60228 0.0804 0.86119 0.0
H864 H 0.75906 0.66026 0.78857 0.0
H865 H 0.84117 0.7441 0.83878 0.0
H866 H 0.79294 0.62461 0.81093 0.0
H867 H 0.87502 0.70859 0.86053 0.0
H868 H 0.91892 0.63982 0.92371 0.0
H869 H 0.8824 0.67397 0.9047 0.0
H870 H 0.84065 0.60382 0.79741 0.0
H871 H 0.87671 0.569 0.81702 0.0
C872 C 0.78415 0.67118 0.80483 0.0
C873 C 0.79724 0.70517 0.812 0.0
C874 C 0.80374 0.65066 0.81727 0.0
C875 C 0.83688 0.66358 0.83741 0.0
C876 C 0.84956 0.69767 0.8455 0.0
C877 C 0.83008 0.71812 0.83296 0.0
C878 C 0.9017 0.63138 0.89622 0.0
C879 C 0.90073 0.60142 0.87206 0.0
C880 C 0.88093 0.65122 0.88511 0.0
C881 C 0.85842 0.64178 0.84948 0.0
C882 C 0.85734 0.61177 0.82526 0.0
C883 C 0.87831 0.59194 0.83633 0.0
H884 H 0.1566 0.26768 0.1683 0.0
H885 H 0.24303 0.34867 0.20431 0.0
H886 H 0.12396 0.30301 0.1435 0.0
H887 H 0.21048 0.38394 0.17877 0.0
H888 H 0.133 0.44583 0.17157 0.0
H889 H 0.16729 0.41032 0.19296 0.0
H890 H 0.11428 0.33296 0.09517 0.0
H891 H 0.07921 0.36791 0.07471 0.0
C892 C 0.16886 0.29288 0.17033 0.0
C893 C 0.20255 0.3052 0.18841 0.0
C894 C 0.15007 0.31323 0.15599 0.0
C895 C 0.16439 0.34655 0.15926 0.0
C896 C 0.19837 0.35861 0.17627 0.0
C897 C 0.21719 0.33823 0.19059 0.0
C898 C 0.12852 0.42121 0.1547 0.0
C899 C 0.10327 0.40994 0.12125 0.0
C900 C 0.1485 0.40089 0.16675 0.0
C901 C 0.14377 0.36865 0.1458 0.0
C902 C 0.11859 0.35747 0.11231 0.0
C903 C 0.09868 0.37776 0.10025 0.0
H904 H 0.22065 0.70862 0.9021 0.0
H905 H 0.12724 0.73428 0.87265 0.0
H906 H 0.20149 0.6847 0.95221 0.0
H907 H 0.10763 0.70933 0.92167 0.0
H908 H 0.06504 0.6435 0.98489 0.0
H909 H 0.1055 0.69273 0.98327 0.0
H910 H 0.16019 0.63215 0.92522 0.0
H911 H 0.12012 0.58364 0.92674 0.0
C912 C 0.19657 0.71043 0.90732 0.0
C913 C 0.17473 0.72184 0.88231 0.0
C914 C 0.18563 0.69675 0.93612 0.0
C915 C 0.15267 0.69401 0.93979 0.0
C916 C 0.13305 0.71065 0.91928 0.0
C917 C 0.14404 0.72446 0.89066 0.0
C918 C 0.08621 0.6409 0.97262 0.0
C919 C 0.08893 0.61002 0.95451 0.0
C920 C 0.10945 0.66899 0.97206 0.0
C921 C 0.13576 0.66634 0.95376 0.0
C922 C 0.14036 0.63516 0.93978 0.0
C923 C 0.11702 0.60728 0.93992 0.0
H924 H 0.30782 0.16951 0.81947 0.0
H925 H 0.30469 0.2107 0.93588 0.0
H926 H 0.34392 0.13702 0.84209 0.0
H927 H 0.34186 0.17795 0.95865 0.0
H928 H 0.4443 0.14744 0.97461 0.0
H929 H 0.4012 0.17636 0.9594 0.0
H930 H 0.34364 0.09097 0.87374 0.0
H931 H 0.38671 0.0622 0.8888 0.0
C932 C 0.31412 0.17127 0.84989 0.0
C933 C 0.30288 0.19272 0.8758 0.0
C934 C 0.33504 0.15253 0.86287 0.0
C935 C 0.34547 0.15474 0.9021 0.0
C936 C 0.33423 0.1759 0.92821 0.0
C937 C 0.31301 0.19464 0.91516 0.0
C938 C 0.42213 0.13471 0.95307 0.0
C939 C 0.41898 0.10279 0.93248 0.0
C940 C 0.39745 0.1512 0.94444 0.0
C941 C 0.36927 0.13598 0.91516 0.0
C942 C 0.36541 0.10347 0.896 0.0
C943 C 0.39004 0.08705 0.90454 0.0
H944 H 0.78101 0.33571 0.85167 0.0
H945 H 0.846 0.27054 0.83785 0.0
H946 H 0.8239 0.37393 0.90148 0.0
H947 H 0.88891 0.30851 0.88931 0.0
H948 H 0.96449 0.40963 0.91085 0.0
H949 H 0.92238 0.35889 0.88564 0.0
H950 H 0.86208 0.39299 0.9613 0.0
H951 H 0.90448 0.4446 0.98572 0.0
C952 C 0.80424 0.32913 0.85998 0.0
C953 C 0.81057 0.30064 0.83993 0.0
C954 C 0.8288 0.35095 0.88906 0.0
C955 C 0.8602 0.34468 0.89893 0.0
C956 C 0.86525 0.31445 0.88168 0.0
C957 C 0.84068 0.29266 0.85227 0.0
C958 C 0.94251 0.40587 0.92264 0.0
C959 C 0.93742 0.43082 0.9499 0.0
C960 C 0.91848 0.37662 0.90857 0.0
C961 C 0.88862 0.37183 0.92121 0.0
C962 C 0.88461 0.39609 0.95058 0.0
C963 C 0.90884 0.42548 0.96475 0.0
H964 H 0.75324 0.84631 0.85464 0.0
H965 H 0.66173 0.772 0.81043 0.0
H966 H 0.72398 0.88164 0.88811 0.0
H967 H 0.6323 0.80769 0.84354 0.0
H968 H 0.59368 0.87409 0.93078 0.0
H969 H 0.62429 0.83564 0.90509 0.0
H970 H 0.68481 0.9127 0.86823 0.0
H971 H 0.65433 0.95081 0.89349 0.0
C972 C 0.72695 0.83727 0.85248 0.0
C973 C 0.70987 0.80628 0.82968 0.0
C974 C 0.71008 0.8577 0.87144 0.0
C975 C 0.67565 0.84776 0.86814 0.0
C976 C 0.65883 0.81611 0.84692 0.0
C977 C 0.67574 0.79562 0.82789 0.0
C978 C 0.61348 0.88278 0.91711 0.0
C979 C 0.62163 0.91569 0.91452 0.0
C980 C 0.63104 0.86073 0.9024 0.0
C981 C 0.65724 0.87107 0.88483 0.0
C982 C 0.66534 0.90397 0.88233 0.0
C983 C 0.64781 0.92592 0.89691 0.0
H984 H 0.80143 0.66956 0.23699 0.0
H985 H 0.8188 0.72344 0.15029 0.0
H986 H 0.83382 0.63272 0.21355 0.0
H987 H 0.85087 0.68584 0.1261 0.0
H988 H 0.93413 0.63125 0.11827 0.0
H989 H 0.90229 0.66935 0.14112 0.0
H990 H 0.83172 0.58956 0.16113 0.0
H991 H 0.86422 0.55182 0.13989 0.0
C992 C 0.81204 0.67351 0.21274 0.0
C993 C 0.80739 0.69955 0.19553 0.0
C994 C 0.83052 0.65213 0.19908 0.0
C995 C 0.84491 0.656 0.16769 0.0
C996 C 0.84047 0.68221 0.15056 0.0
C997 C 0.82193 0.70372 0.16431 0.0
C998 C 0.91201 0.62185 0.12792 0.0
C999 C 0.90193 0.58833 0.12729 0.0
C1000 C 0.89347 0.6437 0.14059 0.0
C1001 C 0.86435 0.63269 0.15311 0.0
C1002 C 0.8542 0.59914 0.15223 0.0
C1003 C 0.87269 0.57733 0.13956 0.0
H1004 H 0.3376 0.77411 0.17015 0.0
H1005 H 0.29511 0.85211 0.21559 0.0
H1006 H 0.36902 0.81054 0.13727 0.0
H1007 H 0.32669 0.88843 0.18332 0.0
H1008 H 0.41656 0.95349 0.15485 0.0
H1009 H 0.3855 0.91627 0.18659 0.0
H1010 H 0.35936 0.84047 0.08339 0.0
H1011 H 0.39029 0.87802 0.0513 0.0
C1012 C 0.33504 0.79903 0.17331 0.0
C1013 C 0.31368 0.81004 0.1956 0.0
C1014 C 0.35292 0.81988 0.15422 0.0
C1015 C 0.35048 0.85255 0.1575 0.0
C1016 C 0.32945 0.86359 0.18024 0.0
C1017 C 0.31117 0.84263 0.19868 0.0
C1018 C 0.40414 0.92894 0.13875 0.0
C1019 C 0.40597 0.91893 0.10034 0.0
C1020 C 0.38618 0.90755 0.15701 0.0
C1021 C 0.36981 0.87522 0.13769 0.0
C1022 C 0.37183 0.86506 0.09933 0.0
C1023 C 0.3894 0.88669 0.08082 0.0
H1024 H 0.72131 0.17647 0.13237 0.0
H1025 H 0.721 0.12704 0.22524 0.0
H1026 H 0.67958 0.13019 0.0905 0.0
H1027 H 0.68114 0.0794 0.1828 0.0
H1028 H 0.56861 0.05268 0.13479 0.0
H1029 H 0.62511 0.07998 0.16626 0.0
H1030 H 0.65192 0.07603 0.05652 0.0
H1031 H 0.59431 0.04954 0.02477 0.0
C1032 C 0.71348 0.15485 0.1431 0.0
C1033 C 0.72335 0.15522 0.18188 0.0
C1034 C 0.68971 0.12822 0.11913 0.0
C1035 C 0.67612 0.1016 0.13379 0.0
C1036 C 0.69021 0.10012 0.17115 0.0
C1037 C 0.71311 0.12716 0.19537 0.0
C1038 C 0.58652 0.0575 0.11731 0.0
C1039 C 0.57692 0.04968 0.07736 0.0
C1040 C 0.61921 0.07263 0.13537 0.0
C1041 C 0.64326 0.08005 0.11394 0.0
C1042 C 0.63395 0.07089 0.07384 0.0
C1043 C 0.60099 0.0559 0.05569 0.0
H1044 H 0.59336 0.62003 0.6998 0.0
H1045 H 0.69089 0.63033 0.76866 0.0
H1046 H 0.56973 0.58254 0.73636 0.0
H1047 H 0.66736 0.59234 0.80377 0.0
H1048 H 0.53989 0.51045 0.81074 0.0
H1049 H 0.56689 0.53024 0.76221 0.0
H1050 H 0.63248 0.60987 0.84981 0.0
H1051 H 0.60568 0.59038 0.89794 0.0
C1052 C 0.60988 0.61363 0.72185 0.0
C1053 C 0.64383 0.62933 0.73215 0.0
C1054 C 0.59637 0.59191 0.74251 0.0
C1055 C 0.61672 0.58542 0.77352 0.0
C1056 C 0.65111 0.59761 0.78046 0.0
C1057 C 0.66459 0.61932 0.75997 0.0
C1058 C 0.56026 0.53204 0.81953 0.0
C1059 C 0.57065 0.54905 0.85802 0.0
C1060 C 0.57564 0.54325 0.79183 0.0
C1061 C 0.60196 0.57126 0.8024 0.0
C1062 C 0.61267 0.5878 0.84099 0.0
C1063 C 0.59708 0.57689 0.86849 0.0
H1064 H 0.35214 0.69844 0.77917 0.0
H1065 H 0.28191 0.6791 0.85034 0.0
H1066 H 0.38729 0.66922 0.81225 0.0
H1067 H 0.31716 0.64933 0.88323 0.0
H1068 H 0.40773 0.62515 0.95589 0.0
H1069 H 0.3729 0.65737 0.92653 0.0
H1070 H 0.38357 0.6119 0.81503 0.0
H1071 H 0.41847 0.58041 0.84417 0.0
C1072 C 0.34415 0.68793 0.80187 0.0
C1073 C 0.31407 0.6909 0.81191 0.0
C1074 C 0.36429 0.67107 0.82075 0.0
C1075 C 0.35489 0.65676 0.85017 0.0
C1076 C 0.32516 0.6603 0.86085 0.0
C1077 C 0.3049 0.67716 0.84185 0.0
C1078 C 0.40259 0.62219 0.92514 0.0
C1079 C 0.41559 0.6001 0.90231 0.0
C1080 C 0.38253 0.64041 0.90833 0.0
C1081 C 0.37558 0.63723 0.86848 0.0
C1082 C 0.38872 0.61519 0.84582 0.0
C1083 C 0.40841 0.59685 0.8625 0.0
H1084 H 0.27188 0.35356 0.82256 0.0
H1085 H 0.34194 0.32645 0.7573 0.0
H1086 H 0.31732 0.38949 0.87287 0.0
H1087 H 0.3875 0.36252 0.80732 0.0
H1088 H 0.45738 0.38199 0.9175 0.0
H1089 H 0.40492 0.35148 0.8738 0.0
H1090 H 0.36719 0.43834 0.88887 0.0
H1091 H 0.41914 0.46831 0.93326 0.0
C1092 C 0.29701 0.35681 0.81827 0.0
C1093 C 0.30394 0.33774 0.78653 0.0
C1094 C 0.32286 0.37684 0.84712 0.0
C1095 C 0.3556 0.37751 0.84426 0.0
C1096 C 0.36224 0.36141 0.81035 0.0
C1097 C 0.33637 0.34153 0.78142 0.0
C1098 C 0.43717 0.39387 0.91278 0.0
C1099 C 0.44176 0.42712 0.92807 0.0
C1100 C 0.40759 0.3768 0.88744 0.0
C1101 C 0.38292 0.39319 0.87717 0.0
C1102 C 0.38613 0.42546 0.89616 0.0
C1103 C 0.4156 0.44242 0.92163 0.0
H1104 H 0.68443 0.4013 0.80684 0.0
H1105 H 0.6956 0.32446 0.86663 0.0
H1106 H 0.68468 0.43703 0.86613 0.0
H1107 H 0.699 0.36127 0.92657 0.0
H1108 H 0.6369 0.41682 0.99805 0.0
H1109 H 0.66323 0.38336 0.95843 0.0
H1110 H 0.71347 0.46901 0.92602 0.0
H1111 H 0.68395 0.50162 0.96144 0.0
C1112 C 0.68727 0.39203 0.83256 0.0
C1113 C 0.68986 0.35983 0.83155 0.0
C1114 C 0.68834 0.4129 0.86701 0.0
C1115 C 0.69255 0.40233 0.90155 0.0
C1116 C 0.69576 0.37031 0.90066 0.0
C1117 C 0.69401 0.34921 0.86607 0.0
C1118 C 0.65403 0.42867 0.98299 0.0
C1119 C 0.65586 0.46124 0.98012 0.0
C1120 C 0.66957 0.40946 0.96053 0.0
C1121 C 0.68856 0.42323 0.93677 0.0
C1122 C 0.69715 0.45738 0.94207 0.0
C1123 C 0.68054 0.47629 0.96319 0.0
H1124 H 0.74853 0.30295 0.15481 0.0
H1125 H 0.66242 0.26634 0.19755 0.0
H1126 H 0.71591 0.33065 0.11514 0.0
H1127 H 0.63017 0.2941 0.15847 0.0
H1128 H 0.5722 0.32659 0.06359 0.0
H1129 H 0.60617 0.29396 0.09252 0.0
H1130 H 0.69031 0.37732 0.12557 0.0
H1131 H 0.6566 0.40965 0.09558 0.0
C1132 C 0.72263 0.3006 0.15553 0.0
C1133 C 0.70812 0.28253 0.17943 0.0
C1134 C 0.704 0.31659 0.13297 0.0
C1135 C 0.67041 0.31456 0.13358 0.0
C1136 C 0.65581 0.29582 0.15685 0.0
C1137 C 0.67443 0.28009 0.17952 0.0
C1138 C 0.59816 0.33771 0.07613 0.0
C1139 C 0.61166 0.37075 0.07737 0.0
C1140 C 0.61754 0.31912 0.09315 0.0
C1141 C 0.65089 0.33311 0.11168 0.0
C1142 C 0.6648 0.36571 0.11132 0.0
C1143 C 0.6454 0.38432 0.09441 0.0
H1144 H 0.72147 0.68592 0.13552 0.0
H1145 H 0.63453 0.69855 0.17786 0.0
H1146 H 0.68764 0.63947 0.08507 0.0
H1147 H 0.60033 0.65262 0.12638 0.0
H1148 H 0.5486 0.57613 0.01824 0.0
H1149 H 0.5872 0.63001 0.04424 0.0
H1150 H 0.65363 0.58538 0.10914 0.0
H1151 H 0.61448 0.53215 0.08413 0.0
C1152 C 0.6949 0.67913 0.13316 0.0
C1153 C 0.6802 0.69503 0.16022 0.0
C1154 C 0.67574 0.65299 0.10432 0.0
C1155 C 0.64166 0.64317 0.10194 0.0
C1156 C 0.62663 0.66045 0.12762 0.0
C1157 C 0.64599 0.68619 0.15712 0.0
C1158 C 0.57189 0.57805 0.0371 0.0
C1159 C 0.5786 0.55075 0.04985 0.0
C1160 C 0.59383 0.60852 0.05182 0.0
C1161 C 0.62299 0.61136 0.07851 0.0
C1162 C 0.63123 0.58342 0.08828 0.0
C1163 C 0.60887 0.55322 0.07436 0.0
H1164 H 0.39275 0.66143 0.23777 0.0
H1165 H 0.32152 0.66866 0.14101 0.0
H1166 H 0.42586 0.6414 0.19482 0.0
H1167 H 0.35544 0.65001 0.09816 0.0
H1168 H 0.48937 0.61934 0.11777 0.0
H1169 H 0.46025 0.65626 0.14934 0.0
H1170 H 0.36689 0.59621 0.07934 0.0
H1171 H 0.39591 0.55969 0.04781 0.0
C1172 C 0.38429 0.65893 0.20739 0.0
C1173 C 0.35446 0.66636 0.19277 0.0
C1174 C 0.40357 0.64813 0.18284 0.0
C1175 C 0.39335 0.64457 0.14321 0.0
C1176 C 0.36388 0.65266 0.12862 0.0
C1177 C 0.34457 0.66341 0.15318 0.0
C1178 C 0.46272 0.61475 0.10842 0.0
C1179 C 0.44472 0.58646 0.08103 0.0
C1180 C 0.44612 0.63574 0.12647 0.0
C1181 C 0.41136 0.62858 0.11733 0.0
C1182 C 0.39373 0.60236 0.08687 0.0
C1183 C 0.41034 0.58143 0.06878 0.0
H1184 H 0.40069 0.40219 0.29401 0.0
H1185 H 0.31467 0.35696 0.2027 0.0
H1186 H 0.42818 0.42801 0.24966 0.0
H1187 H 0.3422 0.38089 0.1584 0.0
H1188 H 0.39902 0.42903 0.08258 0.0
H1189 H 0.36739 0.42201 0.1318 0.0
H1190 H 0.45227 0.40374 0.20235 0.0
H1191 H 0.48401 0.41266 0.15423 0.0
C1192 C 0.38741 0.39855 0.26476 0.0
C1193 C 0.35587 0.37727 0.25174 0.0
C1194 C 0.40317 0.41292 0.23924 0.0
C1195 C 0.38783 0.40557 0.20015 0.0
C1196 C 0.35486 0.38719 0.18818 0.0
C1197 C 0.33895 0.37339 0.21379 0.0
C1198 C 0.4106 0.42317 0.10854 0.0
C1199 C 0.44368 0.42094 0.11462 0.0
C1200 C 0.39265 0.41941 0.13685 0.0
C1201 C 0.40737 0.41272 0.17134 0.0
C1202 C 0.44038 0.40992 0.1768 0.0
C1203 C 0.45842 0.41434 0.14891 0.0
H1204 H 0.84257 0.7471 0.69644 0.0
H1205 H 0.7501 0.67524 0.64686 0.0
H1206 H 0.87204 0.71119 0.66394 0.0
H1207 H 0.77939 0.63975 0.61369 0.0
H1208 H 0.84532 0.56773 0.6053 0.0
H1209 H 0.81572 0.60631 0.63154 0.0
H1210 H 0.88269 0.68483 0.60431 0.0
H1211 H 0.91262 0.64594 0.57807 0.0
C1212 C 0.82839 0.72399 0.67789 0.0
C1213 C 0.79392 0.71407 0.67443 0.0
C1214 C 0.84534 0.70335 0.6592 0.0
C1215 C 0.82824 0.67228 0.63651 0.0
C1216 C 0.79354 0.66314 0.63157 0.0
C1217 C 0.77664 0.68369 0.65032 0.0
C1218 C 0.85353 0.59313 0.60435 0.0
C1219 C 0.88124 0.60359 0.58917 0.0
C1220 C 0.83647 0.61534 0.61942 0.0
C1221 C 0.84649 0.64877 0.61976 0.0
C1222 C 0.87436 0.65935 0.60481 0.0
C1223 C 0.89154 0.63704 0.58974 0.0
H1224 H 0.37846 0.7462 0.6198 0.0
H1225 H 0.30094 0.79764 0.62487 0.0
H1226 H 0.40085 0.77984 0.57858 0.0
H1227 H 0.32359 0.8317 0.5847 0.0
H1228 H 0.37944 0.9003 0.52671 0.0
H1229 H 0.3468 0.84679 0.52957 0.0
H1230 H 0.42898 0.83671 0.61189 0.0
H1231 H 0.46103 0.88931 0.609 0.0
C1232 C 0.3656 0.76392 0.61093 0.0
C1233 C 0.33874 0.77013 0.62635 0.0
C1234 C 0.37825 0.78304 0.58731 0.0
C1235 C 0.36456 0.80902 0.57956 0.0
C1236 C 0.33475 0.81194 0.59029 0.0
C1237 C 0.32185 0.79251 0.61354 0.0
C1238 C 0.39044 0.8863 0.54502 0.0
C1239 C 0.42235 0.89913 0.56838 0.0
C1240 C 0.37194 0.8557 0.5464 0.0
C1241 C 0.38542 0.83749 0.5707 0.0
C1242 C 0.41805 0.84977 0.59228 0.0
C1243 C 0.43624 0.88026 0.59124 0.0
H1244 H 0.21797 0.35412 0.63336 0.0
H1245 H 0.14218 0.26787 0.57294 0.0
H1246 H 0.18319 0.38848 0.60984 0.0
H1247 H 0.10643 0.30173 0.55104 0.0
H1248 H 0.05142 0.36803 0.50279 0.0
H1249 H 0.09419 0.33839 0.51344 0.0
H1250 H 0.1362 0.40387 0.6242 0.0
H1251 H 0.09559 0.43525 0.61201 0.0
C1252 C 0.19391 0.34267 0.6147 0.0
C1253 C 0.18262 0.30859 0.6048 0.0
C1254 C 0.17387 0.3622 0.60148 0.0
C1255 C 0.14179 0.34792 0.57889 0.0
C1256 C 0.13114 0.31364 0.5678 0.0
C1257 C 0.15151 0.29417 0.58039 0.0
C1258 C 0.07028 0.37663 0.52899 0.0
C1259 C 0.06971 0.4038 0.55677 0.0
C1260 C 0.09458 0.35932 0.53533 0.0
C1261 C 0.11849 0.36847 0.56985 0.0
C1262 C 0.11849 0.39626 0.59706 0.0
C1263 C 0.09466 0.41391 0.5904 0.0
H1264 H 0.71814 0.18817 0.61846 0.0
H1265 H 0.6393 0.22478 0.65845 0.0
H1266 H 0.67755 0.14829 0.56666 0.0
H1267 H 0.59868 0.18411 0.60788 0.0
H1268 H 0.59978 0.05003 0.55552 0.0
H1269 H 0.64297 0.10043 0.57641 0.0
H1270 H 0.57119 0.15497 0.54354 0.0
H1271 H 0.52773 0.10387 0.52316 0.0
C1272 C 0.69215 0.18805 0.61572 0.0
C1273 C 0.68168 0.20879 0.64307 0.0
C1274 C 0.66893 0.16526 0.58608 0.0
C1275 C 0.63486 0.16237 0.58382 0.0
C1276 C 0.6247 0.18561 0.6087 0.0
C1277 C 0.64798 0.20878 0.63799 0.0
C1278 C 0.59361 0.07274 0.55172 0.0
C1279 C 0.56083 0.07346 0.53798 0.0
C1280 C 0.61831 0.10165 0.56336 0.0
C1281 C 0.6105 0.13186 0.5619 0.0
C1282 C 0.57788 0.13215 0.54543 0.0
C1283 C 0.55312 0.10305 0.53364 0.0
H1284 H 0.78655 0.35386 0.27428 0.0
H1285 H 0.80209 0.3141 0.37448 0.0
H1286 H 0.81869 0.40766 0.31153 0.0
H1287 H 0.83619 0.36718 0.41148 0.0
H1288 H 0.92979 0.45807 0.35988 0.0
H1289 H 0.87709 0.4204 0.32962 0.0
H1290 H 0.85042 0.42481 0.43944 0.0
H1291 H 0.90415 0.4624 0.47002 0.0
C1292 C 0.79641 0.35702 0.30457 0.0
C1293 C 0.79278 0.33026 0.32172 0.0
C1294 C 0.8148 0.38763 0.32585 0.0
C1295 C 0.83088 0.39141 0.36409 0.0
C1296 C 0.82417 0.36516 0.38211 0.0
C1297 C 0.80495 0.33471 0.36097 0.0
C1298 C 0.91258 0.45135 0.37758 0.0
C1299 C 0.92144 0.46228 0.4174 0.0
C1300 C 0.88203 0.43008 0.36016 0.0
C1301 C 0.85952 0.41943 0.38215 0.0
C1302 C 0.86744 0.43222 0.42182 0.0
C1303 C 0.89821 0.45354 0.43931 0.0
H1304 H 0.6814 0.78563 0.3257 0.0
H1305 H 0.69925 0.84455 0.24377 0.0
H1306 H 0.64663 0.81997 0.35003 0.0
H1307 H 0.66397 0.87833 0.26737 0.0
H1308 H 0.62786 0.95358 0.34382 0.0
H1309 H 0.6621 0.91872 0.32029 0.0
H1310 H 0.59449 0.83442 0.33568 0.0
H1311 H 0.56092 0.86965 0.36099 0.0
C1312 C 0.67785 0.80584 0.31276 0.0
C1313 C 0.69335 0.81232 0.28283 0.0
C1314 C 0.65765 0.82545 0.32656 0.0
C1315 C 0.65235 0.85214 0.31083 0.0
C1316 C 0.66778 0.85843 0.28075 0.0
C1317 C 0.68796 0.83887 0.26701 0.0
C1318 C 0.62035 0.92766 0.34261 0.0
C1319 C 0.59152 0.91465 0.35462 0.0
C1320 C 0.63987 0.9075 0.32856 0.0
C1321 C 0.63122 0.87355 0.32587 0.0
C1322 C 0.60227 0.86043 0.33765 0.0
C1323 C 0.5827 0.88066 0.35175 0.0
H1324 H 0.17824 0.72875 0.32467 0.0
H1325 H 0.21806 0.64758 0.28277 0.0
H1326 H 0.14492 0.69471 0.35801 0.0
H1327 H 0.18422 0.61337 0.31556 0.0
H1328 H 0.08813 0.5545 0.3421 0.0
H1329 H 0.12339 0.58869 0.31095 0.0
H1330 H 0.15206 0.66563 0.4132 0.0
H1331 H 0.11703 0.63106 0.44478 0.0
C1332 C 0.17987 0.70362 0.32245 0.0
C1333 C 0.20095 0.69101 0.30089 0.0
C1334 C 0.16086 0.68412 0.34182 0.0
C1335 C 0.16179 0.6512 0.33964 0.0
C1336 C 0.18267 0.63852 0.3178 0.0
C1337 C 0.2022 0.65821 0.29906 0.0
C1338 C 0.10203 0.57865 0.35813 0.0
C1339 C 0.09961 0.58991 0.3961 0.0
C1340 C 0.12243 0.59825 0.34023 0.0
C1341 C 0.14068 0.63004 0.35941 0.0
C1342 C 0.13823 0.6414 0.39739 0.0
C1343 C 0.11826 0.6215 0.4156 0.0
H1344 H 0.34412 0.23784 0.33017 0.0
H1345 H 0.25391 0.16284 0.31128 0.0
H1346 H 0.37632 0.2007 0.35131 0.0
H1347 H 0.28629 0.12564 0.33262 0.0
H1348 H 0.35685 0.07841 0.40594 0.0
H1349 H 0.32326 0.11614 0.38903 0.0
H1350 H 0.39035 0.15038 0.32016 0.0
H1351 H 0.424 0.11302 0.3373 0.0
C1352 C 0.33103 0.21362 0.33111 0.0
C1353 C 0.29629 0.20346 0.31895 0.0
C1354 C 0.3496 0.19216 0.34289 0.0
C1355 C 0.334 0.15998 0.34329 0.0
C1356 C 0.29915 0.15025 0.33281 0.0
C1357 C 0.28056 0.17163 0.32058 0.0
C1358 C 0.36444 0.09401 0.38722 0.0
C1359 C 0.39316 0.09254 0.37297 0.0
C1360 C 0.34506 0.11551 0.37733 0.0
C1361 C 0.35414 0.13651 0.3534 0.0
C1362 C 0.38278 0.1349 0.33903 0.0
C1363 C 0.40189 0.11315 0.34851 0.0
H1364 H 0.74509 0.85948 0.71074 0.0
H1365 H 0.66138 0.77618 0.6673 0.0
H1366 H 0.71142 0.89457 0.68642 0.0
H1367 H 0.62767 0.8111 0.64416 0.0
H1368 H 0.58005 0.87531 0.57889 0.0
H1369 H 0.61724 0.84211 0.59842 0.0
H1370 H 0.66656 0.91867 0.69841 0.0
H1371 H 0.6303 0.95276 0.6777 0.0
C1372 C 0.71966 0.84854 0.69563 0.0
C1373 C 0.70612 0.81487 0.69085 0.0
C1374 C 0.70016 0.86877 0.68206 0.0
C1375 C 0.66659 0.85588 0.66332 0.0
C1376 C 0.65343 0.82205 0.65783 0.0
C1377 C 0.67286 0.8019 0.67129 0.0
C1378 C 0.59917 0.88547 0.6047 0.0
C1379 C 0.60206 0.91702 0.62648 0.0
C1380 C 0.62033 0.86609 0.61627 0.0
C1381 C 0.64505 0.87744 0.65019 0.0
C1382 C 0.64817 0.90909 0.6719 0.0
C1383 C 0.62699 0.92856 0.66024 0.0
H1384 H 0.69927 0.20072 0.38359 0.0
H1385 H 0.61891 0.24655 0.35663 0.0
H1386 H 0.67065 0.17374 0.42553 0.0
H1387 H 0.59047 0.22049 0.40007 0.0
H1388 H 0.53315 0.11098 0.37888 0.0
H1389 H 0.56565 0.16291 0.37478 0.0
H1390 H 0.63909 0.16248 0.47345 0.0
H1391 H 0.60644 0.10935 0.47678 0.0
C1392 C 0.67628 0.20642 0.38832 0.0
C1393 C 0.66051 0.22456 0.36592 0.0
C1394 C 0.65989 0.1911 0.41262 0.0
C1395 C 0.62769 0.19401 0.41482 0.0
C1396 C 0.61483 0.21704 0.39784 0.0
C1397 C 0.63096 0.23186 0.37299 0.0
C1398 C 0.55609 0.12206 0.3999 0.0
C1399 C 0.56772 0.10594 0.4276 0.0
C1400 C 0.57444 0.15226 0.39815 0.0
C1401 C 0.60494 0.167 0.424 0.0
C1402 C 0.61569 0.15169 0.45317 0.0
C1403 C 0.59715 0.12131 0.45495 0.0
H1404 H 0.82303 0.71697 0.37318 0.0
H1405 H 0.74743 0.62746 0.35204 0.0
H1406 H 0.86413 0.69089 0.40126 0.0
H1407 H 0.78855 0.60136 0.38152 0.0
H1408 H 0.88135 0.55874 0.37363 0.0
H1409 H 0.83515 0.58381 0.35937 0.0
H1410 H 0.88362 0.66637 0.45332 0.0
H1411 H 0.93037 0.64163 0.46684 0.0
C1412 C 0.81512 0.69182 0.3752 0.0
C1413 C 0.78217 0.67405 0.35985 0.0
C1414 C 0.8386 0.67696 0.39169 0.0
C1415 C 0.82964 0.64397 0.39335 0.0
C1416 C 0.79623 0.62673 0.38018 0.0
C1417 C 0.77264 0.6417 0.36367 0.0
C1418 C 0.88207 0.58223 0.39125 0.0
C1419 C 0.90962 0.59848 0.42097 0.0
C1420 C 0.8554 0.59636 0.38346 0.0
C1421 C 0.85575 0.62709 0.4052 0.0
C1422 C 0.88277 0.64278 0.43589 0.0
C1423 C 0.90942 0.62856 0.44376 0.0
H1424 H 0.35762 0.78217 0.33942 0.0
H1425 H 0.27569 0.81897 0.37017 0.0
H1426 H 0.39556 0.82184 0.39317 0.0
H1427 H 0.31345 0.85772 0.4254 0.0
H1428 H 0.39336 0.95555 0.44106 0.0
H1429 H 0.34991 0.90557 0.41956 0.0
H1430 H 0.41954 0.85072 0.4582 0.0
H1431 H 0.46339 0.90155 0.47924 0.0
C1432 C 0.3476 0.79804 0.3585 0.0
C1433 C 0.314 0.79845 0.34994 0.0
C1434 C 0.36931 0.82058 0.38969 0.0
C1435 C 0.35764 0.84358 0.41306 0.0
C1436 C 0.32331 0.84097 0.40723 0.0
C1437 C 0.30172 0.81889 0.37559 0.0
C1438 C 0.39896 0.93291 0.44607 0.0
C1439 C 0.43137 0.93199 0.46133 0.0
C1440 C 0.37405 0.90421 0.4341 0.0
C1441 C 0.38129 0.87395 0.43668 0.0
C1442 C 0.41332 0.87357 0.45529 0.0
C1443 C 0.43832 0.90251 0.46744 0.0
H1444 H 0.24525 0.34964 0.33991 0.0
H1445 H 0.16325 0.26586 0.32244 0.0
H1446 H 0.21332 0.38483 0.36876 0.0
H1447 H 0.13141 0.3013 0.35182 0.0
H1448 H 0.09608 0.37733 0.43567 0.0
H1449 H 0.13043 0.34051 0.41487 0.0
H1450 H 0.16196 0.40153 0.33962 0.0
H1451 H 0.12769 0.43791 0.36002 0.0
C1452 C 0.22068 0.33855 0.34292 0.0
C1453 C 0.20685 0.30483 0.32872 0.0
C1454 C 0.20228 0.35883 0.35923 0.0
C1455 C 0.16971 0.34593 0.36228 0.0
C1456 C 0.15648 0.31197 0.35002 0.0
C1457 C 0.17474 0.29168 0.33317 0.0
C1458 C 0.11045 0.38284 0.41477 0.0
C1459 C 0.10899 0.41042 0.39931 0.0
C1460 C 0.12997 0.36171 0.40275 0.0
C1461 C 0.14903 0.36817 0.3757 0.0
C1462 C 0.14785 0.39601 0.36075 0.0
C1463 C 0.12797 0.4167 0.37219 0.0
H1464 H 0.2955 0.20968 0.65007 0.0
H1465 H 0.32349 0.19485 0.76404 0.0
H1466 H 0.32919 0.1734 0.62738 0.0
H1467 H 0.35757 0.15916 0.74163 0.0
H1468 H 0.38556 0.06878 0.68195 0.0
H1469 H 0.35266 0.10594 0.70384 0.0
H1470 H 0.38489 0.1675 0.62932 0.0
H1471 H 0.41668 0.12956 0.60619 0.0
C1472 C 0.30918 0.19906 0.67042 0.0
C1473 C 0.30676 0.20533 0.70895 0.0
C1474 C 0.32861 0.17824 0.65742 0.0
C1475 C 0.34613 0.16307 0.68255 0.0
C1476 C 0.34407 0.16985 0.7212 0.0
C1477 C 0.32469 0.19062 0.73418 0.0
C1478 C 0.38546 0.09006 0.66991 0.0
C1479 C 0.40396 0.09599 0.64222 0.0
C1480 C 0.36683 0.11168 0.68286 0.0
C1481 C 0.36608 0.13998 0.66857 0.0
C1482 C 0.38454 0.1459 0.64083 0.0
C1483 C 0.40319 0.12427 0.62789 0.0
H1484 H 0.75956 0.33792 0.6698 0.0
H1485 H 0.84297 0.29597 0.69661 0.0
H1486 H 0.79085 0.37293 0.6355 0.0
H1487 H 0.87449 0.3316 0.6632 0.0
H1488 H 0.93017 0.431 0.64149 0.0
H1489 H 0.89818 0.3942 0.67304 0.0
H1490 H 0.81689 0.36667 0.57464 0.0
H1491 H 0.84941 0.40302 0.54242 0.0
C1492 C 0.7846 0.3362 0.66853 0.0
C1493 C 0.79865 0.31403 0.68614 0.0
C1494 C 0.80248 0.35618 0.64863 0.0
C1495 C 0.83526 0.35517 0.64649 0.0
C1496 C 0.8494 0.33319 0.66436 0.0
C1497 C 0.83125 0.31267 0.68348 0.0
C1498 C 0.9055 0.41709 0.62642 0.0
C1499 C 0.89244 0.42013 0.5893 0.0
C1500 C 0.88719 0.39582 0.64452 0.0
C1501 C 0.85488 0.37739 0.62651 0.0
C1502 C 0.84162 0.38059 0.58949 0.0
C1503 C 0.86031 0.40134 0.57094 0.0
H1504 H 0.20971 0.67808 0.62879 0.0
H1505 H 0.21053 0.62575 0.71921 0.0
H1506 H 0.1677 0.63232 0.58602 0.0
H1507 H 0.17036 0.57884 0.67589 0.0
H1508 H 0.05837 0.5479 0.62528 0.0
H1509 H 0.11376 0.57766 0.65843 0.0
H1510 H 0.14291 0.57737 0.55036 0.0
H1511 H 0.08641 0.54802 0.51681 0.0
C1512 C 0.20182 0.65612 0.63886 0.0
C1513 C 0.21229 0.6554 0.67723 0.0
C1514 C 0.17797 0.62979 0.61436 0.0
C1515 C 0.16495 0.60234 0.62798 0.0
C1516 C 0.17906 0.60015 0.66503 0.0
C1517 C 0.20205 0.62682 0.68976 0.0
C1518 C 0.07656 0.55396 0.6085 0.0
C1519 C 0.06789 0.54633 0.5685 0.0
C1520 C 0.10862 0.5706 0.62754 0.0
C1521 C 0.13292 0.57981 0.60706 0.0
C1522 C 0.12466 0.57087 0.56692 0.0
C1523 C 0.09234 0.55424 0.54776 0.0
loop_
_geom_bond_atom_site_label_1
_geom_bond_atom_site_label_2
_geom_bond_distance
_geom_bond_site_symmetry_2
_ccdc_geom_bond_type
Co0 N5 2.057 . S
Co0 O17 2.021 . S
Co0 O20 2.062 . S
Co0 O24 2.117 . S
Co0 O25 2.020 . S
C1 O21 1.259 . S
C1 O24 1.258 . S
Co2 N11 2.057 . S
Co2 O18 2.117 . S
Co2 O19 2.020 . S
Co2 O21 2.021 . S
Co2 O26 2.062 . S
C3 N5 1.316 . S
C3 N6 1.347 . S
C3 H8 0.931 . S
C4 N5 1.375 . S
C4 C7 1.350 . S
C4 H9 0.930 . S
N5 Co0 2.057 . S
N5 C3 1.316 . S
N5 C4 1.375 . S
N6 C3 1.347 . S
N6 C7 1.373 . S
C7 C4 1.350 . S
C7 N6 1.373 . S
C7 H28 0.931 . S
H8 C3 0.931 . S
H9 C4 0.930 . S
C10 O17 1.259 . S
C10 O18 1.258 . S
N11 Co2 2.057 . S
N11 C12 1.316 . S
N11 C13 1.375 . S
C12 N11 1.316 . S
C12 N14 1.347 . S
C12 H23 0.931 . S
C13 N11 1.375 . S
C13 C15 1.350 . S
C13 H22 0.930 . S
N14 C12 1.347 . S
N14 C15 1.373 . S
C15 C13 1.350 . S
C15 N14 1.373 . S
C15 H29 0.931 . S
C16 O19 1.256 . S
C16 O20 1.255 . S
O17 Co0 2.021 . S
O17 C10 1.259 . S
O18 Co2 2.117 . S
O18 C10 1.258 . S
O19 Co2 2.020 . S
O19 C16 1.256 . S
O20 Co0 2.062 . S
O20 C16 1.255 . S
O21 C1 1.259 . S
O21 Co2 2.021 . S
H22 C13 0.930 . S
H23 C12 0.931 . S
O24 Co0 2.117 . S
O24 C1 1.258 . S
O25 Co0 2.020 . S
O25 C27 1.256 . S
O26 Co2 2.062 . S
O26 C27 1.255 . S
C27 O25 1.256 . S
C27 O26 1.255 . S
H28 C7 0.931 . S
H29 C15 0.931 . S
Co30 N35 2.057 . S
Co30 O47 2.021 . S
Co30 O50 2.062 . S
Co30 O54 2.117 . S
Co30 O55 2.020 . S
C31 O51 1.259 . S
C31 O54 1.258 . S
Co32 N41 2.057 . S
Co32 O48 2.117 . S
Co32 O49 2.020 . S
Co32 O51 2.021 . S
Co32 O56 2.062 . S
C33 N35 1.316 . S
C33 N36 1.347 . S
C33 H38 0.931 . S
C34 N35 1.375 . S
C34 C37 1.350 . S
C34 H39 0.930 . S
N35 Co30 2.057 . S
N35 C33 1.316 . S
N35 C34 1.375 . S
N36 C33 1.347 . S
N36 C37 1.373 . S
C37 C34 1.350 . S
C37 N36 1.373 . S
C37 H58 0.931 . S
H38 C33 0.931 . S
H39 C34 0.930 . S
C40 O47 1.259 . S
C40 O48 1.258 . S
N41 Co32 2.057 . S
N41 C42 1.316 . S
N41 C43 1.375 . S
C42 N41 1.316 . S
C42 N44 1.347 . S
C42 H53 0.931 . S
C43 N41 1.375 . S
C43 C45 1.350 . S
C43 H52 0.930 . S
N44 C42 1.347 . S
N44 C45 1.373 . S
C45 C43 1.350 . S
C45 N44 1.373 . S
C45 H59 0.931 . S
C46 O49 1.256 . S
C46 O50 1.255 . S
O47 Co30 2.021 . S
O47 C40 1.259 . S
O48 Co32 2.117 . S
O48 C40 1.258 . S
O49 Co32 2.020 . S
O49 C46 1.256 . S
O50 Co30 2.062 . S
O50 C46 1.255 . S
O51 C31 1.259 . S
O51 Co32 2.021 . S
H52 C43 0.930 . S
H53 C42 0.931 . S
O54 Co30 2.117 . S
O54 C31 1.258 . S
O55 Co30 2.020 . S
O55 C57 1.256 . S
O56 Co32 2.062 . S
O56 C57 1.255 . S
C57 O55 1.256 . S
C57 O56 1.255 . S
H58 C37 0.931 . S
H59 C45 0.931 . S
Co60 N65 2.057 . S
Co60 O77 2.021 . S
Co60 O80 2.062 . S
Co60 O84 2.117 . S
Co60 O85 2.020 . S
C61 O81 1.259 . S
C61 O84 1.258 . S
Co62 N71 2.057 . S
Co62 O78 2.117 . S
Co62 O79 2.020 . S
Co62 O81 2.021 . S
Co62 O86 2.062 . S
C63 N65 1.316 . S
C63 N66 1.347 . S
C63 H68 0.931 . S
C64 N65 1.375 . S
C64 C67 1.350 . S
C64 H69 0.930 . S
N65 Co60 2.057 . S
N65 C63 1.316 . S
N65 C64 1.375 . S
N66 C63 1.347 . S
N66 C67 1.373 . S
C67 C64 1.350 . S
C67 N66 1.373 . S
C67 H88 0.931 . S
H68 C63 0.931 . S
H69 C64 0.930 . S
C70 O77 1.259 . S
C70 O78 1.258 . S
N71 Co62 2.057 . S
N71 C72 1.316 . S
N71 C73 1.375 . S
C72 N71 1.316 . S
C72 N74 1.347 . S
C72 H83 0.931 . S
C73 N71 1.375 . S
C73 C75 1.350 . S
C73 H82 0.930 . S
N74 C72 1.347 . S
N74 C75 1.373 . S
C75 C73 1.350 . S
C75 N74 1.373 . S
C75 H89 0.931 . S
C76 O79 1.256 . S
C76 O80 1.255 . S
O77 Co60 2.021 . S
O77 C70 1.259 . S
O78 Co62 2.117 . S
O78 C70 1.258 . S
O79 Co62 2.020 . S
O79 C76 1.256 . S
O80 Co60 2.062 . S
O80 C76 1.255 . S
O81 C61 1.259 . S
O81 Co62 2.021 . S
H82 C73 0.930 . S
H83 C72 0.931 . S
O84 Co60 2.117 . S
O84 C61 1.258 . S
O85 Co60 2.020 . S
O85 C87 1.256 . S
O86 Co62 2.062 . S
O86 C87 1.255 . S
C87 O85 1.256 . S
C87 O86 1.255 . S
H88 C67 0.931 . S
H89 C75 0.931 . S
Co90 N95 2.057 . S
Co90 O107 2.021 . S
Co90 O110 2.062 . S
Co90 O114 2.117 . S
Co90 O115 2.020 . S
C91 O111 1.259 . S
C91 O114 1.258 . S
Co92 N101 2.057 . S
Co92 O108 2.117 . S
Co92 O109 2.020 . S
Co92 O111 2.021 . S
Co92 O116 2.062 . S
C93 N95 1.316 . S
C93 N96 1.347 . S
C93 H98 0.931 . S
C94 N95 1.375 . S
C94 C97 1.350 . S
C94 H99 0.930 . S
N95 Co90 2.057 . S
N95 C93 1.316 . S
N95 C94 1.375 . S
N96 C93 1.347 . S
N96 C97 1.373 . S
C97 C94 1.350 . S
C97 N96 1.373 . S
C97 H118 0.931 . S
H98 C93 0.931 . S
H99 C94 0.930 . S
C100 O107 1.259 . S
C100 O108 1.258 . S
N101 Co92 2.057 . S
N101 C102 1.316 . S
N101 C103 1.375 . S
C102 N101 1.316 . S
C102 N104 1.347 . S
C102 H113 0.931 . S
C103 N101 1.375 . S
C103 C105 1.350 . S
C103 H112 0.930 . S
N104 C102 1.347 . S
N104 C105 1.373 . S
C105 C103 1.350 . S
C105 N104 1.373 . S
C105 H119 0.931 . S
C106 O109 1.256 . S
C106 O110 1.255 . S
O107 Co90 2.021 . S
O107 C100 1.259 . S
O108 Co92 2.117 . S
O108 C100 1.258 . S
O109 Co92 2.020 . S
O109 C106 1.256 . S
O110 Co90 2.062 . S
O110 C106 1.255 . S
O111 C91 1.259 . S
O111 Co92 2.021 . S
H112 C103 0.930 . S
H113 C102 0.931 . S
O114 Co90 2.117 . S
O114 C91 1.258 . S
O115 Co90 2.020 . S
O115 C117 1.256 . S
O116 Co92 2.062 . S
O116 C117 1.255 . S
C117 O115 1.256 . S
C117 O116 1.255 . S
H118 C97 0.931 . S
H119 C105 0.931 . S
Co120 N125 2.057 . S
Co120 O137 2.021 . S
Co120 O140 2.062 . S
Co120 O144 2.117 . S
Co120 O145 2.020 . S
C121 O141 1.259 . S
C121 O144 1.258 . S
Co122 N131 2.057 . S
Co122 O138 2.117 . S
Co122 O139 2.020 . S
Co122 O141 2.021 . S
Co122 O146 2.062 . S
C123 N125 1.316 . S
C123 N126 1.347 . S
C123 H128 0.931 . S
C124 N125 1.375 . S
C124 C127 1.350 . S
C124 H129 0.930 . S
N125 Co120 2.057 . S
N125 C123 1.316 . S
N125 C124 1.375 . S
N126 C123 1.347 . S
N126 C127 1.373 . S
C127 C124 1.350 . S
C127 N126 1.373 . S
C127 H148 0.931 . S
H128 C123 0.931 . S
H129 C124 0.930 . S
C130 O137 1.259 . S
C130 O138 1.258 . S
N131 Co122 2.057 . S
N131 C132 1.316 . S
N131 C133 1.375 . S
C132 N131 1.316 . S
C132 N134 1.347 . S
C132 H143 0.931 . S
C133 N131 1.375 . S
C133 C135 1.350 . S
C133 H142 0.930 . S
N134 C132 1.347 . S
N134 C135 1.373 . S
C135 C133 1.350 . S
C135 N134 1.373 . S
C135 H149 0.931 . S
C136 O139 1.256 . S
C136 O140 1.255 . S
O137 Co120 2.021 . S
O137 C130 1.259 . S
O138 Co122 2.117 . S
O138 C130 1.258 . S
O139 Co122 2.020 . S
O139 C136 1.256 . S
O140 Co120 2.062 . S
O140 C136 1.255 . S
O141 C121 1.259 . S
O141 Co122 2.021 . S
H142 C133 0.930 . S
H143 C132 0.931 . S
O144 Co120 2.117 . S
O144 C121 1.258 . S
O145 Co120 2.020 . S
O145 C147 1.256 . S
O146 Co122 2.062 . S
O146 C147 1.255 . S
C147 O145 1.256 . S
C147 O146 1.255 . S
H148 C127 0.931 . S
H149 C135 0.931 . S
Co150 N155 2.057 . S
Co150 O167 2.021 . S
Co150 O170 2.062 . S
Co150 O174 2.117 . S
Co150 O175 2.020 . S
C151 O171 1.259 . S
C151 O174 1.258 . S
Co152 N161 2.057 . S
Co152 O168 2.117 . S
Co152 O169 2.020 . S
Co152 O171 2.021 . S
Co152 O176 2.062 . S
C153 N155 1.316 . S
C153 N156 1.347 . S
C153 H158 0.931 . S
C154 N155 1.375 . S
C154 C157 1.350 . S
C154 H159 0.930 . S
N155 Co150 2.057 . S
N155 C153 1.316 . S
N155 C154 1.375 . S
N156 C153 1.347 . S
N156 C157 1.373 . S
C157 C154 1.350 . S
C157 N156 1.373 . S
C157 H178 0.931 . S
H158 C153 0.931 . S
H159 C154 0.930 . S
C160 O167 1.259 . S
C160 O168 1.258 . S
N161 Co152 2.057 . S
N161 C162 1.316 . S
N161 C163 1.375 . S
C162 N161 1.316 . S
C162 N164 1.347 . S
C162 H173 0.931 . S
C163 N161 1.375 . S
C163 C165 1.350 . S
C163 H172 0.930 . S
N164 C162 1.347 . S
N164 C165 1.373 . S
C165 C163 1.350 . S
C165 N164 1.373 . S
C165 H179 0.931 . S
C166 O169 1.256 . S
C166 O170 1.255 . S
O167 Co150 2.021 . S
O167 C160 1.259 . S
O168 Co152 2.117 . S
O168 C160 1.258 . S
O169 Co152 2.020 . S
O169 C166 1.256 . S
O170 Co150 2.062 . S
O170 C166 1.255 . S
O171 C151 1.259 . S
O171 Co152 2.021 . S
H172 C163 0.930 . S
H173 C162 0.931 . S
O174 Co150 2.117 . S
O174 C151 1.258 . S
O175 Co150 2.020 . S
O175 C177 1.256 . S
O176 Co152 2.062 . S
O176 C177 1.255 . S
C177 O175 1.256 . S
C177 O176 1.255 . S
H178 C157 0.931 . S
H179 C165 0.931 . S
Co180 N185 2.057 . S
Co180 O197 2.021 . S
Co180 O200 2.062 . S
Co180 O204 2.117 . S
Co180 O205 2.020 . S
C181 O201 1.259 . S
C181 O204 1.258 . S
Co182 N191 2.057 . S
Co182 O198 2.117 . S
Co182 O199 2.020 . S
Co182 O201 2.021 . S
Co182 O206 2.062 . S
C183 N185 1.316 . S
C183 N186 1.347 . S
C183 H188 0.931 . S
C184 N185 1.375 . S
C184 C187 1.350 . S
C184 H189 0.930 . S
N185 Co180 2.057 . S
N185 C183 1.316 . S
N185 C184 1.375 . S
N186 C183 1.347 . S
N186 C187 1.373 . S
C187 C184 1.350 . S
C187 N186 1.373 . S
C187 H208 0.931 . S
H188 C183 0.931 . S
H189 C184 0.930 . S
C190 O197 1.259 . S
C190 O198 1.258 . S
N191 Co182 2.057 . S
N191 C192 1.316 . S
N191 C193 1.375 . S
C192 N191 1.316 . S
C192 N194 1.347 . S
C192 H203 0.931 . S
C193 N191 1.375 . S
C193 C195 1.350 . S
C193 H202 0.930 . S
N194 C192 1.347 . S
N194 C195 1.373 . S
C195 C193 1.350 . S
C195 N194 1.373 . S
C195 H209 0.931 . S
C196 O199 1.256 . S
C196 O200 1.255 . S
O197 Co180 2.021 . S
O197 C190 1.259 . S
O198 Co182 2.117 . S
O198 C190 1.258 . S
O199 Co182 2.020 . S
O199 C196 1.256 . S
O200 Co180 2.062 . S
O200 C196 1.255 . S
O201 C181 1.259 . S
O201 Co182 2.021 . S
H202 C193 0.930 . S
H203 C192 0.931 . S
O204 Co180 2.117 . S
O204 C181 1.258 . S
O205 Co180 2.020 . S
O205 C207 1.256 . S
O206 Co182 2.062 . S
O206 C207 1.255 . S
C207 O205 1.256 . S
C207 O206 1.255 . S
H208 C187 0.931 . S
H209 C195 0.931 . S
Co210 N215 2.057 . S
Co210 O227 2.021 . S
Co210 O230 2.062 . S
Co210 O234 2.117 . S
Co210 O235 2.020 . S
C211 O231 1.259 . S
C211 O234 1.258 . S
Co212 N221 2.057 . S
Co212 O228 2.117 . S
Co212 O229 2.020 . S
Co212 O231 2.021 . S
Co212 O236 2.062 . S
C213 N215 1.316 . S
C213 N216 1.347 . S
C213 H218 0.931 . S
C214 N215 1.375 . S
C214 C217 1.350 . S
C214 H219 0.930 . S
N215 Co210 2.057 . S
N215 C213 1.316 . S
N215 C214 1.375 . S
N216 C213 1.347 . S
N216 C217 1.373 . S
C217 C214 1.350 . S
C217 N216 1.373 . S
C217 H238 0.931 . S
H218 C213 0.931 . S
H219 C214 0.930 . S
C220 O227 1.259 . S
C220 O228 1.258 . S
N221 Co212 2.057 . S
N221 C222 1.316 . S
N221 C223 1.375 . S
C222 N221 1.316 . S
C222 N224 1.347 . S
C222 H233 0.931 . S
C223 N221 1.375 . S
C223 C225 1.350 . S
C223 H232 0.930 . S
N224 C222 1.347 . S
N224 C225 1.373 . S
C225 C223 1.350 . S
C225 N224 1.373 . S
C225 H239 0.931 . S
C226 O229 1.256 . S
C226 O230 1.255 . S
O227 Co210 2.021 . S
O227 C220 1.259 . S
O228 Co212 2.117 . S
O228 C220 1.258 . S
O229 Co212 2.020 . S
O229 C226 1.256 . S
O230 Co210 2.062 . S
O230 C226 1.255 . S
O231 C211 1.259 . S
O231 Co212 2.021 . S
H232 C223 0.930 . S
H233 C222 0.931 . S
O234 Co210 2.117 . S
O234 C211 1.258 . S
O235 Co210 2.020 . S
O235 C237 1.256 . S
O236 Co212 2.062 . S
O236 C237 1.255 . S
C237 O235 1.256 . S
C237 O236 1.255 . S
H238 C217 0.931 . S
H239 C225 0.931 . S
Cd240 N243 2.334 1_655 S
Cd240 N269 2.304 1_565 S
Cd240 O276 2.268 . S
Cd240 O279 2.273 1_665 S
Cd240 O280 2.417 . S
Cd240 O281 2.330 . S
Cd241 N256 2.304 1_455 S
Cd241 N260 2.334 1_545 S
Cd241 O277 2.273 1_445 S
Cd241 O278 2.268 . S
Cd241 O282 2.417 . S
Cd241 O283 2.330 . S
C242 N243 1.332 . S
C242 C246 1.381 . S
C242 H248 0.931 . S
N243 Cd240 2.334 1_455 S
N243 C242 1.332 . S
N243 C247 1.328 . S
C244 C245 1.396 . S
C244 C247 1.378 . S
C244 H286 0.931 . S
C245 C244 1.396 . S
C245 C246 1.382 . S
C246 C242 1.381 . S
C246 C245 1.382 . S
C246 H287 0.930 . S
C247 N243 1.328 . S
C247 C244 1.378 . S
C247 H249 0.930 1_455 S
H248 C242 0.931 . S
H249 C247 0.930 1_655 S
C250 O276 1.238 . S
C250 O277 1.253 . S
C251 C252 1.379 . S
C251 N256 1.337 . S
C251 H257 0.929 . S
C252 C251 1.379 . S
C252 C253 1.380 . S
C252 H288 0.929 . S
C253 C252 1.380 . S
C253 C254 1.399 . S
C254 C253 1.399 . S
C254 C255 1.376 . S
C254 H289 0.931 . S
C255 C254 1.376 . S
C255 N256 1.338 . S
C255 H258 0.930 1_655 S
N256 Cd241 2.304 1_655 S
N256 C251 1.337 . S
N256 C255 1.338 . S
H257 C251 0.929 . S
H258 C255 0.930 1_455 S
C259 N260 1.332 . S
C259 C263 1.381 . S
C259 H265 0.931 . S
N260 Cd241 2.334 1_565 S
N260 C259 1.332 . S
N260 C264 1.328 . S
C261 C262 1.396 . S
C261 C264 1.378 . S
C261 H290 0.931 . S
C262 C261 1.396 . S
C262 C263 1.382 . S
C263 C259 1.381 . S
C263 C262 1.382 . S
C263 H291 0.930 . S
C264 N260 1.328 . S
C264 C261 1.378 . S
C264 H266 0.930 1_565 S
H265 C259 0.931 . S
H266 C264 0.930 1_545 S
C267 O278 1.238 . S
C267 O279 1.253 . S
C268 O280 1.239 . S
C268 O281 1.230 . S
N269 Cd240 2.304 1_545 S
N269 C270 1.337 . S
N269 C274 1.338 . S
C270 N269 1.337 . S
C270 C271 1.379 . S
C270 H284 0.929 . S
C271 C270 1.379 . S
C271 C272 1.380 . S
C271 H292 0.929 . S
C272 C271 1.380 . S
C272 C273 1.399 . S
C273 C272 1.399 . S
C273 C274 1.376 . S
C273 H293 0.931 . S
C274 N269 1.338 . S
C274 C273 1.376 . S
C274 H285 0.930 1_545 S
C275 O282 1.239 . S
C275 O283 1.230 . S
O276 Cd240 2.268 . S
O276 C250 1.238 . S
O277 Cd241 2.273 1_665 S
O277 C250 1.253 . S
O278 Cd241 2.268 . S
O278 C267 1.238 . S
O279 Cd240 2.273 1_445 S
O279 C267 1.253 . S
O280 Cd240 2.417 . S
O280 C268 1.239 . S
O281 Cd240 2.330 . S
O281 C268 1.230 . S
O282 Cd241 2.417 . S
O282 C275 1.239 . S
O283 Cd241 2.330 . S
O283 C275 1.230 . S
H284 C270 0.929 . S
H285 C274 0.930 1_565 S
H286 C244 0.931 . S
H287 C246 0.930 . S
H288 C252 0.929 . S
H289 C254 0.931 . S
H290 C261 0.931 . S
H291 C263 0.930 . S
H292 C271 0.929 . S
H293 C273 0.931 . S
Cd294 N297 2.334 . S
Cd294 N323 2.304 1_565 S
Cd294 O330 2.268 1_554 S
Cd294 O333 2.273 1_565 S
Cd294 O334 2.417 . S
Cd294 O335 2.330 . S
Cd295 N310 2.304 . S
Cd295 N314 2.334 1_545 S
Cd295 O331 2.273 1_545 S
Cd295 O332 2.268 1_556 S
Cd295 O336 2.417 . S
Cd295 O337 2.330 . S
C296 N297 1.332 . S
C296 C300 1.381 . S
C296 H302 0.931 . S
N297 Cd294 2.334 . S
N297 C296 1.332 . S
N297 C301 1.328 . S
C298 C299 1.396 . S
C298 C301 1.378 . S
C298 H340 0.931 1_554 S
C299 C298 1.396 . S
C299 C300 1.382 . S
C300 C296 1.381 . S
C300 C299 1.382 . S
C300 H341 0.930 . S
C301 N297 1.328 . S
C301 C298 1.378 . S
C301 H303 0.930 1_554 S
H302 C296 0.931 . S
H303 C301 0.930 1_556 S
C304 O330 1.238 . S
C304 O331 1.253 . S
C305 C306 1.379 . S
C305 N310 1.337 . S
C305 H311 0.929 . S
C306 C305 1.379 . S
C306 C307 1.380 . S
C306 H342 0.929 . S
C307 C306 1.380 . S
C307 C308 1.399 . S
C308 C307 1.399 . S
C308 C309 1.376 . S
C308 H343 0.931 1_556 S
C309 C308 1.376 . S
C309 N310 1.338 . S
C309 H312 0.930 1_556 S
N310 Cd295 2.304 . S
N310 C305 1.337 . S
N310 C309 1.338 . S
H311 C305 0.929 . S
H312 C309 0.930 1_554 S
C313 N314 1.332 . S
C313 C317 1.381 . S
C313 H319 0.931 . S
N314 Cd295 2.334 1_565 S
N314 C313 1.332 . S
N314 C318 1.328 . S
C315 C316 1.396 . S
C315 C318 1.378 . S
C315 H344 0.931 1_556 S
C316 C315 1.396 . S
C316 C317 1.382 . S
C317 C313 1.381 . S
C317 C316 1.382 . S
C317 H345 0.930 . S
C318 N314 1.328 . S
C318 C315 1.378 . S
C318 H320 0.930 1_566 S
H319 C313 0.931 . S
H320 C318 0.930 1_544 S
C321 O332 1.238 . S
C321 O333 1.253 . S
C322 O334 1.239 . S
C322 O335 1.230 . S
N323 Cd294 2.304 1_545 S
N323 C324 1.337 . S
N323 C328 1.338 . S
C324 N323 1.337 . S
C324 C325 1.379 . S
C324 H338 0.929 . S
C325 C324 1.379 . S
C325 C326 1.380 . S
C325 H346 0.929 . S
C326 C325 1.380 . S
C326 C327 1.399 . S
C327 C326 1.399 . S
C327 C328 1.376 . S
C327 H347 0.931 1_554 S
C328 N323 1.338 . S
C328 C327 1.376 . S
C328 H339 0.930 1_544 S
C329 O336 1.239 . S
C329 O337 1.230 . S
O330 Cd294 2.268 1_556 S
O330 C304 1.238 . S
O331 Cd295 2.273 1_565 S
O331 C304 1.253 . S
O332 Cd295 2.268 1_554 S
O332 C321 1.238 . S
O333 Cd294 2.273 1_545 S
O333 C321 1.253 . S
O334 Cd294 2.417 . S
O334 C322 1.239 . S
O335 Cd294 2.330 . S
O335 C322 1.230 . S
O336 Cd295 2.417 . S
O336 C329 1.239 . S
O337 Cd295 2.330 . S
O337 C329 1.230 . S
H338 C324 0.929 . S
H339 C328 0.930 1_566 S
H340 C298 0.931 1_556 S
H341 C300 0.930 . S
H342 C306 0.929 . S
H343 C308 0.931 1_554 S
H344 C315 0.931 1_554 S
H345 C317 0.930 . S
H346 C325 0.929 . S
H347 C327 0.931 1_556 S
Cd348 N351 2.334 1_655 S
Cd348 N377 2.304 . S
Cd348 O384 2.268 1_554 S
Cd348 O387 2.273 1_655 S
Cd348 O388 2.417 . S
Cd348 O389 2.330 . S
Cd349 N364 2.304 1_455 S
Cd349 N368 2.334 . S
Cd349 O385 2.273 1_455 S
Cd349 O386 2.268 1_556 S
Cd349 O390 2.417 . S
Cd349 O391 2.330 . S
C350 N351 1.332 . S
C350 C354 1.381 . S
C350 H356 0.931 . S
N351 Cd348 2.334 1_455 S
N351 C350 1.332 . S
N351 C355 1.328 . S
C352 C353 1.396 . S
C352 C355 1.378 . S
C352 H394 0.931 1_554 S
C353 C352 1.396 . S
C353 C354 1.382 . S
C354 C350 1.381 . S
C354 C353 1.382 . S
C354 H395 0.930 . S
C355 N351 1.328 . S
C355 C352 1.378 . S
C355 H357 0.930 1_454 S
H356 C350 0.931 . S
H357 C355 0.930 1_656 S
C358 O384 1.238 . S
C358 O385 1.253 . S
C359 C360 1.379 . S
C359 N364 1.337 . S
C359 H365 0.929 . S
C360 C359 1.379 . S
C360 C361 1.380 . S
C360 H396 0.929 . S
C361 C360 1.380 . S
C361 C362 1.399 . S
C362 C361 1.399 . S
C362 C363 1.376 . S
C362 H397 0.931 1_556 S
C363 C362 1.376 . S
C363 N364 1.338 . S
C363 H366 0.930 1_656 S
N364 Cd349 2.304 1_655 S
N364 C359 1.337 . S
N364 C363 1.338 . S
H365 C359 0.929 . S
H366 C363 0.930 1_454 S
C367 N368 1.332 . S
C367 C371 1.381 . S
C367 H373 0.931 . S
N368 Cd349 2.334 . S
N368 C367 1.332 . S
N368 C372 1.328 . S
C369 C370 1.396 . S
C369 C372 1.378 . S
C369 H398 0.931 1_556 S
C370 C369 1.396 . S
C370 C371 1.382 . S
C371 C367 1.381 . S
C371 C370 1.382 . S
C371 H399 0.930 . S
C372 N368 1.328 . S
C372 C369 1.378 . S
C372 H374 0.930 1_556 S
H373 C367 0.931 . S
H374 C372 0.930 1_554 S
C375 O386 1.238 . S
C375 O387 1.253 . S
C376 O388 1.239 . S
C376 O389 1.230 . S
N377 Cd348 2.304 . S
N377 C378 1.337 . S
N377 C382 1.338 . S
C378 N377 1.337 . S
C378 C379 1.379 . S
C378 H392 0.929 . S
C379 C378 1.379 . S
C379 C380 1.380 . S
C379 H400 0.929 . S
C380 C379 1.380 . S
C380 C381 1.399 . S
C381 C380 1.399 . S
C381 C382 1.376 . S
C381 H401 0.931 1_554 S
C382 N377 1.338 . S
C382 C381 1.376 . S
C382 H393 0.930 1_554 S
C383 O390 1.239 . S
C383 O391 1.230 . S
O384 Cd348 2.268 1_556 S
O384 C358 1.238 . S
O385 Cd349 2.273 1_655 S
O385 C358 1.253 . S
O386 Cd349 2.268 1_554 S
O386 C375 1.238 . S
O387 Cd348 2.273 1_455 S
O387 C375 1.253 . S
O388 Cd348 2.417 . S
O388 C376 1.239 . S
O389 Cd348 2.330 . S
O389 C376 1.230 . S
O390 Cd349 2.417 . S
O390 C383 1.239 . S
O391 Cd349 2.330 . S
O391 C383 1.230 . S
H392 C378 0.929 . S
H393 C382 0.930 1_556 S
H394 C352 0.931 1_556 S
H395 C354 0.930 . S
H396 C360 0.929 . S
H397 C362 0.931 1_554 S
H398 C369 0.931 1_554 S
H399 C371 0.930 . S
H400 C379 0.929 . S
H401 C381 0.931 1_556 S
Cd402 N405 2.334 . S
Cd402 N431 2.304 . S
Cd402 O438 2.268 1_554 S
Cd402 O441 2.273 . S
Cd402 O442 2.417 . S
Cd402 O443 2.330 . S
Cd403 N418 2.304 . S
Cd403 N422 2.334 . S
Cd403 O439 2.273 . S
Cd403 O440 2.268 1_556 S
Cd403 O444 2.417 . S
Cd403 O445 2.330 . S
C404 N405 1.332 . S
C404 C408 1.381 . S
C404 H410 0.931 . S
N405 Cd402 2.334 . S
N405 C404 1.332 . S
N405 C409 1.328 . S
C406 C407 1.396 . S
C406 C409 1.378 . S
C406 H448 0.931 1_554 S
C407 C406 1.396 . S
C407 C408 1.382 . S
C408 C404 1.381 . S
C408 C407 1.382 . S
C408 H449 0.930 . S
C409 N405 1.328 . S
C409 C406 1.378 . S
C409 H411 0.930 1_554 S
H410 C404 0.931 . S
H411 C409 0.930 1_556 S
C412 O438 1.238 . S
C412 O439 1.253 . S
C413 C414 1.379 . S
C413 N418 1.337 . S
C413 H419 0.929 . S
C414 C413 1.379 . S
C414 C415 1.380 . S
C414 H450 0.929 . S
C415 C414 1.380 . S
C415 C416 1.399 . S
C416 C415 1.399 . S
C416 C417 1.376 . S
C416 H451 0.931 1_556 S
C417 C416 1.376 . S
C417 N418 1.338 . S
C417 H420 0.930 1_556 S
N418 Cd403 2.304 . S
N418 C413 1.337 . S
N418 C417 1.338 . S
H419 C413 0.929 . S
H420 C417 0.930 1_554 S
C421 N422 1.332 . S
C421 C425 1.381 . S
C421 H427 0.931 . S
N422 Cd403 2.334 . S
N422 C421 1.332 . S
N422 C426 1.328 . S
C423 C424 1.396 . S
C423 C426 1.378 . S
C423 H452 0.931 1_556 S
C424 C423 1.396 . S
C424 C425 1.382 . S
C425 C421 1.381 . S
C425 C424 1.382 . S
C425 H453 0.930 . S
C426 N422 1.328 . S
C426 C423 1.378 . S
C426 H428 0.930 1_556 S
H427 C421 0.931 . S
H428 C426 0.930 1_554 S
C429 O440 1.238 . S
C429 O441 1.253 . S
C430 O442 1.239 . S
C430 O443 1.230 . S
N431 Cd402 2.304 . S
N431 C432 1.337 . S
N431 C436 1.338 . S
C432 N431 1.337 . S
C432 C433 1.379 . S
C432 H446 0.929 . S
C433 C432 1.379 . S
C433 C434 1.380 . S
C433 H454 0.929 . S
C434 C433 1.380 . S
C434 C435 1.399 . S
C435 C434 1.399 . S
C435 C436 1.376 . S
C435 H455 0.931 1_554 S
C436 N431 1.338 . S
C436 C435 1.376 . S
C436 H447 0.930 1_554 S
C437 O444 1.239 . S
C437 O445 1.230 . S
O438 Cd402 2.268 1_556 S
O438 C412 1.238 . S
O439 Cd403 2.273 . S
O439 C412 1.253 . S
O440 Cd403 2.268 1_554 S
O440 C429 1.238 . S
O441 Cd402 2.273 . S
O441 C429 1.253 . S
O442 Cd402 2.417 . S
O442 C430 1.239 . S
O443 Cd402 2.330 . S
O443 C430 1.230 . S
O444 Cd403 2.417 . S
O444 C437 1.239 . S
O445 Cd403 2.330 . S
O445 C437 1.230 . S
H446 C432 0.929 . S
H447 C436 0.930 1_556 S
H448 C406 0.931 1_556 S
H449 C408 0.930 . S
H450 C414 0.929 . S
H451 C416 0.931 1_554 S
H452 C423 0.931 1_554 S
H453 C425 0.930 . S
H454 C433 0.929 . S
H455 C435 0.931 1_556 S
Cd456 N459 2.334 1_655 S
Cd456 N485 2.304 . S
Cd456 O492 2.268 . S
Cd456 O495 2.273 1_655 S
Cd456 O496 2.417 . S
Cd456 O497 2.330 . S
Cd457 N472 2.304 1_455 S
Cd457 N476 2.334 . S
Cd457 O493 2.273 1_455 S
Cd457 O494 2.268 . S
Cd457 O498 2.417 . S
Cd457 O499 2.330 . S
C458 N459 1.332 . S
C458 C462 1.381 . S
C458 H464 0.931 . S
N459 Cd456 2.334 1_455 S
N459 C458 1.332 . S
N459 C463 1.328 . S
C460 C461 1.396 . S
C460 C463 1.378 . S
C460 H502 0.931 . S
C461 C460 1.396 . S
C461 C462 1.382 . S
C462 C458 1.381 . S
C462 C461 1.382 . S
C462 H503 0.930 . S
C463 N459 1.328 . S
C463 C460 1.378 . S
C463 H465 0.930 1_455 S
H464 C458 0.931 . S
H465 C463 0.930 1_655 S
C466 O492 1.238 . S
C466 O493 1.253 . S
C467 C468 1.379 . S
C467 N472 1.337 . S
C467 H473 0.929 . S
C468 C467 1.379 . S
C468 C469 1.380 . S
C468 H504 0.929 . S
C469 C468 1.380 . S
C469 C470 1.399 . S
C470 C469 1.399 . S
C470 C471 1.376 . S
C470 H505 0.931 . S
C471 C470 1.376 . S
C471 N472 1.338 . S
C471 H474 0.930 1_655 S
N472 Cd457 2.304 1_655 S
N472 C467 1.337 . S
N472 C471 1.338 . S
H473 C467 0.929 . S
H474 C471 0.930 1_455 S
C475 N476 1.332 . S
C475 C479 1.381 . S
C475 H481 0.931 . S
N476 Cd457 2.334 . S
N476 C475 1.332 . S
N476 C480 1.328 . S
C477 C478 1.396 . S
C477 C480 1.378 . S
C477 H506 0.931 . S
C478 C477 1.396 . S
C478 C479 1.382 . S
C479 C475 1.381 . S
C479 C478 1.382 . S
C479 H507 0.930 . S
C480 N476 1.328 . S
C480 C477 1.378 . S
C480 H482 0.930 . S
H481 C475 0.931 . S
H482 C480 0.930 . S
C483 O494 1.238 . S
C483 O495 1.253 . S
C484 O496 1.239 . S
C484 O497 1.230 . S
N485 Cd456 2.304 . S
N485 C486 1.337 . S
N485 C490 1.338 . S
C486 N485 1.337 . S
C486 C487 1.379 . S
C486 H500 0.929 . S
C487 C486 1.379 . S
C487 C488 1.380 . S
C487 H508 0.929 . S
C488 C487 1.380 . S
C488 C489 1.399 . S
C489 C488 1.399 . S
C489 C490 1.376 . S
C489 H509 0.931 . S
C490 N485 1.338 . S
C490 C489 1.376 . S
C490 H501 0.930 . S
C491 O498 1.239 . S
C491 O499 1.230 . S
O492 Cd456 2.268 . S
O492 C466 1.238 . S
O493 Cd457 2.273 1_655 S
O493 C466 1.253 . S
O494 Cd457 2.268 . S
O494 C483 1.238 . S
O495 Cd456 2.273 1_455 S
O495 C483 1.253 . S
O496 Cd456 2.417 . S
O496 C484 1.239 . S
O497 Cd456 2.330 . S
O497 C484 1.230 . S
O498 Cd457 2.417 . S
O498 C491 1.239 . S
O499 Cd457 2.330 . S
O499 C491 1.230 . S
H500 C486 0.929 . S
H501 C490 0.930 . S
H502 C460 0.931 . S
H503 C462 0.930 . S
H504 C468 0.929 . S
H505 C470 0.931 . S
H506 C477 0.931 . S
H507 C479 0.930 . S
H508 C487 0.929 . S
H509 C489 0.931 . S
Cd510 N513 2.334 . S
Cd510 N539 2.304 1_565 S
Cd510 O546 2.268 . S
Cd510 O549 2.273 1_565 S
Cd510 O550 2.417 . S
Cd510 O551 2.330 . S
Cd511 N526 2.304 . S
Cd511 N530 2.334 1_545 S
Cd511 O547 2.273 1_545 S
Cd511 O548 2.268 . S
Cd511 O552 2.417 . S
Cd511 O553 2.330 . S
C512 N513 1.332 . S
C512 C516 1.381 . S
C512 H518 0.931 . S
N513 Cd510 2.334 . S
N513 C512 1.332 . S
N513 C517 1.328 . S
C514 C515 1.396 . S
C514 C517 1.378 . S
C514 H556 0.931 . S
C515 C514 1.396 . S
C515 C516 1.382 . S
C516 C512 1.381 . S
C516 C515 1.382 . S
C516 H557 0.930 . S
C517 N513 1.328 . S
C517 C514 1.378 . S
C517 H519 0.930 . S
H518 C512 0.931 . S
H519 C517 0.930 . S
C520 O546 1.238 . S
C520 O547 1.253 . S
C521 C522 1.379 . S
C521 N526 1.337 . S
C521 H527 0.929 . S
C522 C521 1.379 . S
C522 C523 1.380 . S
C522 H558 0.929 . S
C523 C522 1.380 . S
C523 C524 1.399 . S
C524 C523 1.399 . S
C524 C525 1.376 . S
C524 H559 0.931 . S
C525 C524 1.376 . S
C525 N526 1.338 . S
C525 H528 0.930 . S
N526 Cd511 2.304 . S
N526 C521 1.337 . S
N526 C525 1.338 . S
H527 C521 0.929 . S
H528 C525 0.930 . S
C529 N530 1.332 . S
C529 C533 1.381 . S
C529 H535 0.931 . S
N530 Cd511 2.334 1_565 S
N530 C529 1.332 . S
N530 C534 1.328 . S
C531 C532 1.396 . S
C531 C534 1.378 . S
C531 H560 0.931 . S
C532 C531 1.396 . S
C532 C533 1.382 . S
C533 C529 1.381 . S
C533 C532 1.382 . S
C533 H561 0.930 . S
C534 N530 1.328 . S
C534 C531 1.378 . S
C534 H536 0.930 1_565 S
H535 C529 0.931 . S
H536 C534 0.930 1_545 S
C537 O548 1.238 . S
C537 O549 1.253 . S
C538 O550 1.239 . S
C538 O551 1.230 . S
N539 Cd510 2.304 1_545 S
N539 C540 1.337 . S
N539 C544 1.338 . S
C540 N539 1.337 . S
C540 C541 1.379 . S
C540 H554 0.929 . S
C541 C540 1.379 . S
C541 C542 1.380 . S
C541 H562 0.929 . S
C542 C541 1.380 . S
C542 C543 1.399 . S
C543 C542 1.399 . S
C543 C544 1.376 . S
C543 H563 0.931 . S
C544 N539 1.338 . S
C544 C543 1.376 . S
C544 H555 0.930 1_545 S
C545 O552 1.239 . S
C545 O553 1.230 . S
O546 Cd510 2.268 . S
O546 C520 1.238 . S
O547 Cd511 2.273 1_565 S
O547 C520 1.253 . S
O548 Cd511 2.268 . S
O548 C537 1.238 . S
O549 Cd510 2.273 1_545 S
O549 C537 1.253 . S
O550 Cd510 2.417 . S
O550 C538 1.239 . S
O551 Cd510 2.330 . S
O551 C538 1.230 . S
O552 Cd511 2.417 . S
O552 C545 1.239 . S
O553 Cd511 2.330 . S
O553 C545 1.230 . S
H554 C540 0.929 . S
H555 C544 0.930 1_565 S
H556 C514 0.931 . S
H557 C516 0.930 . S
H558 C522 0.929 . S
H559 C524 0.931 . S
H560 C531 0.931 . S
H561 C533 0.930 . S
H562 C541 0.929 . S
H563 C543 0.931 . S
H564 C572 0.950 . S
H565 C577 0.950 . S
H566 C574 0.950 . S
H567 C576 0.950 . S
H568 C578 0.950 . S
H569 C580 0.950 . S
H570 C582 0.950 . S
H571 C583 0.950 . S
C572 H564 0.950 . S
C572 C573 1.386 . S
C572 C574 1.391 . S
C573 C572 1.386 . S
C573 C577 1.393 . S
C574 H566 0.950 . S
C574 C572 1.391 . S
C574 C575 1.400 . S
C575 C574 1.400 . S
C575 C576 1.398 . S
C575 C581 1.491 . S
C576 H567 0.950 . S
C576 C575 1.398 . S
C576 C577 1.391 . S
C577 H565 0.950 . S
C577 C573 1.393 . S
C577 C576 1.391 . S
C578 H568 0.950 . S
C578 C579 1.386 . S
C578 C580 1.391 . S
C579 C578 1.386 . S
C579 C583 1.393 . S
C580 H569 0.950 . S
C580 C578 1.391 . S
C580 C581 1.400 . S
C581 C575 1.491 . S
C581 C580 1.400 . S
C581 C582 1.398 . S
C582 H570 0.950 . S
C582 C581 1.398 . S
C582 C583 1.391 . S
C583 H571 0.950 . S
C583 C579 1.393 . S
C583 C582 1.391 . S
H584 C592 0.950 . S
H585 C597 0.950 . S
H586 C594 0.950 . S
H587 C596 0.950 . S
H588 C598 0.950 . S
H589 C600 0.950 . S
H590 C602 0.950 . S
H591 C603 0.950 . S
C592 H584 0.950 . S
C592 C593 1.386 . S
C592 C594 1.391 . S
C593 C592 1.386 . S
C593 C597 1.393 . S
C594 H586 0.950 . S
C594 C592 1.391 . S
C594 C595 1.400 . S
C595 C594 1.400 . S
C595 C596 1.398 . S
C595 C601 1.491 . S
C596 H587 0.950 . S
C596 C595 1.398 . S
C596 C597 1.391 . S
C597 H585 0.950 . S
C597 C593 1.393 . S
C597 C596 1.391 . S
C598 H588 0.950 . S
C598 C599 1.386 . S
C598 C600 1.391 . S
C599 C598 1.386 . S
C599 C603 1.393 . S
C600 H589 0.950 . S
C600 C598 1.391 . S
C600 C601 1.400 . S
C601 C595 1.491 . S
C601 C600 1.400 . S
C601 C602 1.398 . S
C602 H590 0.950 . S
C602 C601 1.398 . S
C602 C603 1.391 . S
C603 H591 0.950 . S
C603 C599 1.393 . S
C603 C602 1.391 . S
H604 C612 0.950 . S
H605 C617 0.950 . S
H606 C614 0.950 . S
H607 C616 0.950 . S
H608 C618 0.950 . S
H609 C620 0.950 . S
H610 C622 0.950 . S
H611 C623 0.950 . S
C612 H604 0.950 . S
C612 C613 1.386 . S
C612 C614 1.391 . S
C613 C612 1.386 . S
C613 C617 1.393 . S
C614 H606 0.950 . S
C614 C612 1.391 . S
C614 C615 1.400 . S
C615 C614 1.400 . S
C615 C616 1.398 . S
C615 C621 1.491 . S
C616 H607 0.950 . S
C616 C615 1.398 . S
C616 C617 1.391 . S
C617 H605 0.950 . S
C617 C613 1.393 . S
C617 C616 1.391 . S
C618 H608 0.950 . S
C618 C619 1.386 . S
C618 C620 1.391 . S
C619 C618 1.386 . S
C619 C623 1.393 . S
C620 H609 0.950 . S
C620 C618 1.391 . S
C620 C621 1.400 . S
C621 C615 1.491 . S
C621 C620 1.400 . S
C621 C622 1.398 . S
C622 H610 0.950 . S
C622 C621 1.398 . S
C622 C623 1.391 . S
C623 H611 0.950 . S
C623 C619 1.393 . S
C623 C622 1.391 . S
H624 C632 0.950 . S
H625 C637 0.950 . S
H626 C634 0.950 . S
H627 C636 0.950 . S
H628 C638 0.950 . S
H629 C640 0.950 . S
H630 C642 0.950 . S
H631 C643 0.950 . S
C632 H624 0.950 . S
C632 C633 1.386 . S
C632 C634 1.391 . S
C633 C632 1.386 . S
C633 C637 1.393 . S
C634 H626 0.950 . S
C634 C632 1.391 . S
C634 C635 1.400 . S
C635 C634 1.400 . S
C635 C636 1.398 . S
C635 C641 1.491 . S
C636 H627 0.950 . S
C636 C635 1.398 . S
C636 C637 1.391 . S
C637 H625 0.950 . S
C637 C633 1.393 . S
C637 C636 1.391 . S
C638 H628 0.950 . S
C638 C639 1.386 . S
C638 C640 1.391 . S
C639 C638 1.386 . S
C639 C643 1.393 . S
C640 H629 0.950 . S
C640 C638 1.391 . S
C640 C641 1.400 . S
C641 C635 1.491 . S
C641 C640 1.400 . S
C641 C642 1.398 . S
C642 H630 0.950 . S
C642 C641 1.398 . S
C642 C643 1.391 . S
C643 H631 0.950 . S
C643 C639 1.393 . S
C643 C642 1.391 . S
H644 C652 0.950 . S
H645 C657 0.950 . S
H646 C654 0.950 . S
H647 C656 0.950 . S
H648 C658 0.950 . S
H649 C660 0.950 . S
H650 C662 0.950 . S
H651 C663 0.950 . S
C652 H644 0.950 . S
C652 C653 1.386 . S
C652 C654 1.391 . S
C653 C652 1.386 . S
C653 C657 1.393 . S
C654 H646 0.950 . S
C654 C652 1.391 . S
C654 C655 1.400 . S
C655 C654 1.400 . S
C655 C656 1.398 . S
C655 C661 1.491 . S
C656 H647 0.950 . S
C656 C655 1.398 . S
C656 C657 1.391 . S
C657 H645 0.950 . S
C657 C653 1.393 . S
C657 C656 1.391 . S
C658 H648 0.950 . S
C658 C659 1.386 . S
C658 C660 1.391 . S
C659 C658 1.386 . S
C659 C663 1.393 . S
C660 H649 0.950 . S
C660 C658 1.391 . S
C660 C661 1.400 . S
C661 C655 1.491 . S
C661 C660 1.400 . S
C661 C662 1.398 . S
C662 H650 0.950 . S
C662 C661 1.398 . S
C662 C663 1.391 . S
C663 H651 0.950 . S
C663 C659 1.393 . S
C663 C662 1.391 . S
H664 C672 0.950 . S
H665 C677 0.950 . S
H666 C674 0.950 . S
H667 C676 0.950 . S
H668 C678 0.950 . S
H669 C680 0.950 . S
H670 C682 0.950 . S
H671 C683 0.950 . S
C672 H664 0.950 . S
C672 C673 1.386 . S
C672 C674 1.391 . S
C673 C672 1.386 . S
C673 C677 1.393 . S
C674 H666 0.950 . S
C674 C672 1.391 . S
C674 C675 1.400 . S
C675 C674 1.400 . S
C675 C676 1.398 . S
C675 C681 1.491 . S
C676 H667 0.950 . S
C676 C675 1.398 . S
C676 C677 1.391 . S
C677 H665 0.950 . S
C677 C673 1.393 . S
C677 C676 1.391 . S
C678 H668 0.950 . S
C678 C679 1.386 . S
C678 C680 1.391 . S
C679 C678 1.386 . S
C679 C683 1.393 . S
C680 H669 0.950 . S
C680 C678 1.391 . S
C680 C681 1.400 . S
C681 C675 1.491 . S
C681 C680 1.400 . S
C681 C682 1.398 . S
C682 H670 0.950 . S
C682 C681 1.398 . S
C682 C683 1.391 . S
C683 H671 0.950 . S
C683 C679 1.393 . S
C683 C682 1.391 . S
H684 C692 0.950 . S
H685 C697 0.950 . S
H686 C694 0.950 . S
H687 C696 0.950 . S
H688 C698 0.950 . S
H689 C700 0.950 . S
H690 C702 0.950 . S
H691 C703 0.950 . S
C692 H684 0.950 . S
C692 C693 1.386 . S
C692 C694 1.391 . S
C693 C692 1.386 . S
C693 C697 1.393 . S
C694 H686 0.950 . S
C694 C692 1.391 . S
C694 C695 1.400 . S
C695 C694 1.400 . S
C695 C696 1.398 . S
C695 C701 1.491 . S
C696 H687 0.950 . S
C696 C695 1.398 . S
C696 C697 1.391 . S
C697 H685 0.950 . S
C697 C693 1.393 . S
C697 C696 1.391 . S
C698 H688 0.950 . S
C698 C699 1.386 . S
C698 C700 1.391 . S
C699 C698 1.386 . S
C699 C703 1.393 . S
C700 H689 0.950 . S
C700 C698 1.391 . S
C700 C701 1.400 . S
C701 C695 1.491 . S
C701 C700 1.400 . S
C701 C702 1.398 . S
C702 H690 0.950 . S
C702 C701 1.398 . S
C702 C703 1.391 . S
C703 H691 0.950 . S
C703 C699 1.393 . S
C703 C702 1.391 . S
H704 C712 0.950 . S
H705 C717 0.950 . S
H706 C714 0.950 . S
H707 C716 0.950 . S
H708 C718 0.950 . S
H709 C720 0.950 . S
H710 C722 0.950 . S
H711 C723 0.950 . S
C712 H704 0.950 . S
C712 C713 1.386 . S
C712 C714 1.391 . S
C713 C712 1.386 . S
C713 C717 1.393 . S
C714 H706 0.950 . S
C714 C712 1.391 . S
C714 C715 1.400 . S
C715 C714 1.400 . S
C715 C716 1.398 . S
C715 C721 1.491 . S
C716 H707 0.950 . S
C716 C715 1.398 . S
C716 C717 1.391 . S
C717 H705 0.950 . S
C717 C713 1.393 . S
C717 C716 1.391 . S
C718 H708 0.950 . S
C718 C719 1.386 . S
C718 C720 1.391 . S
C719 C718 1.386 . S
C719 C723 1.393 . S
C720 H709 0.950 . S
C720 C718 1.391 . S
C720 C721 1.400 . S
C721 C715 1.491 . S
C721 C720 1.400 . S
C721 C722 1.398 . S
C722 H710 0.950 . S
C722 C721 1.398 . S
C722 C723 1.391 . S
C723 H711 0.950 . S
C723 C719 1.393 . S
C723 C722 1.391 . S
H724 C732 0.950 . S
H725 C737 0.950 . S
H726 C734 0.950 . S
H727 C736 0.950 . S
H728 C738 0.950 . S
H729 C740 0.950 . S
H730 C742 0.950 . S
H731 C743 0.950 . S
C732 H724 0.950 . S
C732 C733 1.386 . S
C732 C734 1.391 . S
C733 C732 1.386 . S
C733 C737 1.393 . S
C734 H726 0.950 . S
C734 C732 1.391 . S
C734 C735 1.400 . S
C735 C734 1.400 . S
C735 C736 1.398 . S
C735 C741 1.491 . S
C736 H727 0.950 . S
C736 C735 1.398 . S
C736 C737 1.391 . S
C737 H725 0.950 . S
C737 C733 1.393 . S
C737 C736 1.391 . S
C738 H728 0.950 . S
C738 C739 1.386 . S
C738 C740 1.391 . S
C739 C738 1.386 . S
C739 C743 1.393 . S
C740 H729 0.950 . S
C740 C738 1.391 . S
C740 C741 1.400 . S
C741 C735 1.491 . S
C741 C740 1.400 . S
C741 C742 1.398 . S
C742 H730 0.950 . S
C742 C741 1.398 . S
C742 C743 1.391 . S
C743 H731 0.950 . S
C743 C739 1.393 . S
C743 C742 1.391 . S
H744 C752 0.950 . S
H745 C757 0.950 . S
H746 C754 0.950 . S
H747 C756 0.950 . S
H748 C758 0.950 . S
H749 C760 0.950 . S
H750 C762 0.950 . S
H751 C763 0.950 . S
C752 H744 0.950 . S
C752 C753 1.386 . S
C752 C754 1.391 . S
C753 C752 1.386 . S
C753 C757 1.393 . S
C754 H746 0.950 . S
C754 C752 1.391 . S
C754 C755 1.400 . S
C755 C754 1.400 . S
C755 C756 1.398 . S
C755 C761 1.491 . S
C756 H747 0.950 . S
C756 C755 1.398 . S
C756 C757 1.391 . S
C757 H745 0.950 . S
C757 C753 1.393 . S
C757 C756 1.391 . S
C758 H748 0.950 . S
C758 C759 1.386 . S
C758 C760 1.391 . S
C759 C758 1.386 . S
C759 C763 1.393 . S
C760 H749 0.950 . S
C760 C758 1.391 . S
C760 C761 1.400 . S
C761 C755 1.491 . S
C761 C760 1.400 . S
C761 C762 1.398 . S
C762 H750 0.950 . S
C762 C761 1.398 . S
C762 C763 1.391 . S
C763 H751 0.950 . S
C763 C759 1.393 . S
C763 C762 1.391 . S
H764 C772 0.950 . S
H765 C777 0.950 . S
H766 C774 0.950 . S
H767 C776 0.950 . S
H768 C778 0.950 . S
H769 C780 0.950 . S
H770 C782 0.950 . S
H771 C783 0.950 . S
C772 H764 0.950 . S
C772 C773 1.386 . S
C772 C774 1.391 . S
C773 C772 1.386 . S
C773 C777 1.393 . S
C774 H766 0.950 . S
C774 C772 1.391 . S
C774 C775 1.400 . S
C775 C774 1.400 . S
C775 C776 1.398 . S
C775 C781 1.491 . S
C776 H767 0.950 . S
C776 C775 1.398 . S
C776 C777 1.391 . S
C777 H765 0.950 . S
C777 C773 1.393 . S
C777 C776 1.391 . S
C778 H768 0.950 . S
C778 C779 1.386 . S
C778 C780 1.391 . S
C779 C778 1.386 . S
C779 C783 1.393 . S
C780 H769 0.950 . S
C780 C778 1.391 . S
C780 C781 1.400 . S
C781 C775 1.491 . S
C781 C780 1.400 . S
C781 C782 1.398 . S
C782 H770 0.950 . S
C782 C781 1.398 . S
C782 C783 1.391 . S
C783 H771 0.950 . S
C783 C779 1.393 . S
C783 C782 1.391 . S
H784 C792 0.950 . S
H785 C797 0.950 . S
H786 C794 0.950 . S
H787 C796 0.950 . S
H788 C798 0.950 . S
H789 C800 0.950 . S
H790 C802 0.950 . S
H791 C803 0.950 . S
C792 H784 0.950 . S
C792 C793 1.386 . S
C792 C794 1.391 . S
C793 C792 1.386 . S
C793 C797 1.393 . S
C794 H786 0.950 . S
C794 C792 1.391 . S
C794 C795 1.400 . S
C795 C794 1.400 . S
C795 C796 1.398 . S
C795 C801 1.491 . S
C796 H787 0.950 . S
C796 C795 1.398 . S
C796 C797 1.391 . S
C797 H785 0.950 . S
C797 C793 1.393 . S
C797 C796 1.391 . S
C798 H788 0.950 . S
C798 C799 1.386 . S
C798 C800 1.391 . S
C799 C798 1.386 . S
C799 C803 1.393 . S
C800 H789 0.950 . S
C800 C798 1.391 . S
C800 C801 1.400 . S
C801 C795 1.491 . S
C801 C800 1.400 . S
C801 C802 1.398 . S
C802 H790 0.950 . S
C802 C801 1.398 . S
C802 C803 1.391 . S
C803 H791 0.950 . S
C803 C799 1.393 . S
C803 C802 1.391 . S
H804 C812 0.950 . S
H805 C817 0.950 . S
H806 C814 0.950 . S
H807 C816 0.950 . S
H808 C818 0.950 . S
H809 C820 0.950 . S
H810 C822 0.950 . S
H811 C823 0.950 . S
C812 H804 0.950 . S
C812 C813 1.386 . S
C812 C814 1.391 . S
C813 C812 1.386 . S
C813 C817 1.393 . S
C814 H806 0.950 . S
C814 C812 1.391 . S
C814 C815 1.400 . S
C815 C814 1.400 . S
C815 C816 1.398 . S
C815 C821 1.491 . S
C816 H807 0.950 . S
C816 C815 1.398 . S
C816 C817 1.391 . S
C817 H805 0.950 . S
C817 C813 1.393 . S
C817 C816 1.391 . S
C818 H808 0.950 . S
C818 C819 1.386 . S
C818 C820 1.391 . S
C819 C818 1.386 . S
C819 C823 1.393 . S
C820 H809 0.950 . S
C820 C818 1.391 . S
C820 C821 1.400 . S
C821 C815 1.491 . S
C821 C820 1.400 . S
C821 C822 1.398 . S
C822 H810 0.950 . S
C822 C821 1.398 . S
C822 C823 1.391 . S
C823 H811 0.950 . S
C823 C819 1.393 . S
C823 C822 1.391 . S
H824 C832 0.950 . S
H825 C837 0.950 . S
H826 C834 0.950 . S
H827 C836 0.950 . S
H828 C838 0.950 . S
H829 C840 0.950 . S
H830 C842 0.950 . S
H831 C843 0.950 . S
C832 H824 0.950 . S
C832 C833 1.386 . S
C832 C834 1.391 . S
C833 C832 1.386 . S
C833 C837 1.393 . S
C834 H826 0.950 . S
C834 C832 1.391 . S
C834 C835 1.400 . S
C835 C834 1.400 . S
C835 C836 1.398 . S
C835 C841 1.491 . S
C836 H827 0.950 . S
C836 C835 1.398 . S
C836 C837 1.391 . S
C837 H825 0.950 . S
C837 C833 1.393 . S
C837 C836 1.391 . S
C838 H828 0.950 . S
C838 C839 1.386 . S
C838 C840 1.391 . S
C839 C838 1.386 . S
C839 C843 1.393 . S
C840 H829 0.950 . S
C840 C838 1.391 . S
C840 C841 1.400 . S
C841 C835 1.491 . S
C841 C840 1.400 . S
C841 C842 1.398 . S
C842 H830 0.950 . S
C842 C841 1.398 . S
C842 C843 1.391 . S
C843 H831 0.950 . S
C843 C839 1.393 . S
C843 C842 1.391 . S
H844 C852 0.950 . S
H845 C857 0.950 . S
H846 C854 0.950 . S
H847 C856 0.950 . S
H848 C858 0.950 . S
H849 C860 0.950 . S
H850 C862 0.950 . S
H851 C863 0.950 . S
C852 H844 0.950 . S
C852 C853 1.386 . S
C852 C854 1.391 . S
C853 C852 1.386 . S
C853 C857 1.393 . S
C854 H846 0.950 . S
C854 C852 1.391 . S
C854 C855 1.400 . S
C855 C854 1.400 . S
C855 C856 1.398 . S
C855 C861 1.491 . S
C856 H847 0.950 . S
C856 C855 1.398 . S
C856 C857 1.391 . S
C857 H845 0.950 . S
C857 C853 1.393 . S
C857 C856 1.391 . S
C858 H848 0.950 . S
C858 C859 1.386 . S
C858 C860 1.391 . S
C859 C858 1.386 . S
C859 C863 1.393 . S
C860 H849 0.950 . S
C860 C858 1.391 . S
C860 C861 1.400 . S
C861 C855 1.491 . S
C861 C860 1.400 . S
C861 C862 1.398 . S
C862 H850 0.950 . S
C862 C861 1.398 . S
C862 C863 1.391 . S
C863 H851 0.950 . S
C863 C859 1.393 . S
C863 C862 1.391 . S
H864 C872 0.950 . S
H865 C877 0.950 . S
H866 C874 0.950 . S
H867 C876 0.950 . S
H868 C878 0.950 . S
H869 C880 0.950 . S
H870 C882 0.950 . S
H871 C883 0.950 . S
C872 H864 0.950 . S
C872 C873 1.386 . S
C872 C874 1.391 . S
C873 C872 1.386 . S
C873 C877 1.393 . S
C874 H866 0.950 . S
C874 C872 1.391 . S
C874 C875 1.400 . S
C875 C874 1.400 . S
C875 C876 1.398 . S
C875 C881 1.491 . S
C876 H867 0.950 . S
C876 C875 1.398 . S
C876 C877 1.391 . S
C877 H865 0.950 . S
C877 C873 1.393 . S
C877 C876 1.391 . S
C878 H868 0.950 . S
C878 C879 1.386 . S
C878 C880 1.391 . S
C879 C878 1.386 . S
C879 C883 1.393 . S
C880 H869 0.950 . S
C880 C878 1.391 . S
C880 C881 1.400 . S
C881 C875 1.491 . S
C881 C880 1.400 . S
C881 C882 1.398 . S
C882 H870 0.950 . S
C882 C881 1.398 . S
C882 C883 1.391 . S
C883 H871 0.950 . S
C883 C879 1.393 . S
C883 C882 1.391 . S
H884 C892 0.950 . S
H885 C897 0.950 . S
H886 C894 0.950 . S
H887 C896 0.950 . S
H888 C898 0.950 . S
H889 C900 0.950 . S
H890 C902 0.950 . S
H891 C903 0.950 . S
C892 H884 0.950 . S
C892 C893 1.386 . S
C892 C894 1.391 . S
C893 C892 1.386 . S
C893 C897 1.393 . S
C894 H886 0.950 . S
C894 C892 1.391 . S
C894 C895 1.400 . S
C895 C894 1.400 . S
C895 C896 1.398 . S
C895 C901 1.491 . S
C896 H887 0.950 . S
C896 C895 1.398 . S
C896 C897 1.391 . S
C897 H885 0.950 . S
C897 C893 1.393 . S
C897 C896 1.391 . S
C898 H888 0.950 . S
C898 C899 1.386 . S
C898 C900 1.391 . S
C899 C898 1.386 . S
C899 C903 1.393 . S
C900 H889 0.950 . S
C900 C898 1.391 . S
C900 C901 1.400 . S
C901 C895 1.491 . S
C901 C900 1.400 . S
C901 C902 1.398 . S
C902 H890 0.950 . S
C902 C901 1.398 . S
C902 C903 1.391 . S
C903 H891 0.950 . S
C903 C899 1.393 . S
C903 C902 1.391 . S
H904 C912 0.950 . S
H905 C917 0.950 . S
H906 C914 0.950 . S
H907 C916 0.950 . S
H908 C918 0.950 . S
H909 C920 0.950 . S
H910 C922 0.950 . S
H911 C923 0.950 . S
C912 H904 0.950 . S
C912 C913 1.386 . S
C912 C914 1.391 . S
C913 C912 1.386 . S
C913 C917 1.393 . S
C914 H906 0.950 . S
C914 C912 1.391 . S
C914 C915 1.400 . S
C915 C914 1.400 . S
C915 C916 1.398 . S
C915 C921 1.491 . S
C916 H907 0.950 . S
C916 C915 1.398 . S
C916 C917 1.391 . S
C917 H905 0.950 . S
C917 C913 1.393 . S
C917 C916 1.391 . S
C918 H908 0.950 . S
C918 C919 1.386 . S
C918 C920 1.391 . S
C919 C918 1.386 . S
C919 C923 1.393 . S
C920 H909 0.950 . S
C920 C918 1.391 . S
C920 C921 1.400 . S
C921 C915 1.491 . S
C921 C920 1.400 . S
C921 C922 1.398 . S
C922 H910 0.950 . S
C922 C921 1.398 . S
C922 C923 1.391 . S
C923 H911 0.950 . S
C923 C919 1.393 . S
C923 C922 1.391 . S
H924 C932 0.950 . S
H925 C937 0.950 . S
H926 C934 0.950 . S
H927 C936 0.950 . S
H928 C938 0.950 . S
H929 C940 0.950 . S
H930 C942 0.950 . S
H931 C943 0.950 . S
C932 H924 0.950 . S
C932 C933 1.386 . S
C932 C934 1.391 . S
C933 C932 1.386 . S
C933 C937 1.393 . S
C934 H926 0.950 . S
C934 C932 1.391 . S
C934 C935 1.400 . S
C935 C934 1.400 . S
C935 C936 1.398 . S
C935 C941 1.491 . S
C936 H927 0.950 . S
C936 C935 1.398 . S
C936 C937 1.391 . S
C937 H925 0.950 . S
C937 C933 1.393 . S
C937 C936 1.391 . S
C938 H928 0.950 . S
C938 C939 1.386 . S
C938 C940 1.391 . S
C939 C938 1.386 . S
C939 C943 1.393 . S
C940 H929 0.950 . S
C940 C938 1.391 . S
C940 C941 1.400 . S
C941 C935 1.491 . S
C941 C940 1.400 . S
C941 C942 1.398 . S
C942 H930 0.950 . S
C942 C941 1.398 . S
C942 C943 1.391 . S
C943 H931 0.950 . S
C943 C939 1.393 . S
C943 C942 1.391 . S
H944 C952 0.950 . S
H945 C957 0.950 . S
H946 C954 0.950 . S
H947 C956 0.950 . S
H948 C958 0.950 . S
H949 C960 0.950 . S
H950 C962 0.950 . S
H951 C963 0.950 . S
C952 H944 0.950 . S
C952 C953 1.386 . S
C952 C954 1.391 . S
C953 C952 1.386 . S
C953 C957 1.393 . S
C954 H946 0.950 . S
C954 C952 1.391 . S
C954 C955 1.400 . S
C955 C954 1.400 . S
C955 C956 1.398 . S
C955 C961 1.491 . S
C956 H947 0.950 . S
C956 C955 1.398 . S
C956 C957 1.391 . S
C957 H945 0.950 . S
C957 C953 1.393 . S
C957 C956 1.391 . S
C958 H948 0.950 . S
C958 C959 1.386 . S
C958 C960 1.391 . S
C959 C958 1.386 . S
C959 C963 1.393 . S
C960 H949 0.950 . S
C960 C958 1.391 . S
C960 C961 1.400 . S
C961 C955 1.491 . S
C961 C960 1.400 . S
C961 C962 1.398 . S
C962 H950 0.950 . S
C962 C961 1.398 . S
C962 C963 1.391 . S
C963 H951 0.950 . S
C963 C959 1.393 . S
C963 C962 1.391 . S
H964 C972 0.950 . S
H965 C977 0.950 . S
H966 C974 0.950 . S
H967 C976 0.950 . S
H968 C978 0.950 . S
H969 C980 0.950 . S
H970 C982 0.950 . S
H971 C983 0.950 . S
C972 H964 0.950 . S
C972 C973 1.386 . S
C972 C974 1.391 . S
C973 C972 1.386 . S
C973 C977 1.393 . S
C974 H966 0.950 . S
C974 C972 1.391 . S
C974 C975 1.400 . S
C975 C974 1.400 . S
C975 C976 1.398 . S
C975 C981 1.491 . S
C976 H967 0.950 . S
C976 C975 1.398 . S
C976 C977 1.391 . S
C977 H965 0.950 . S
C977 C973 1.393 . S
C977 C976 1.391 . S
C978 H968 0.950 . S
C978 C979 1.386 . S
C978 C980 1.391 . S
C979 C978 1.386 . S
C979 C983 1.393 . S
C980 H969 0.950 . S
C980 C978 1.391 . S
C980 C981 1.400 . S
C981 C975 1.491 . S
C981 C980 1.400 . S
C981 C982 1.398 . S
C982 H970 0.950 . S
C982 C981 1.398 . S
C982 C983 1.391 . S
C983 H971 0.950 . S
C983 C979 1.393 . S
C983 C982 1.391 . S
H984 C992 0.950 . S
H985 C997 0.950 . S
H986 C994 0.950 . S
H987 C996 0.950 . S
H988 C998 0.950 . S
H989 C1000 0.950 . S
H990 C1002 0.950 . S
H991 C1003 0.950 . S
C992 H984 0.950 . S
C992 C993 1.386 . S
C992 C994 1.391 . S
C993 C992 1.386 . S
C993 C997 1.393 . S
C994 H986 0.950 . S
C994 C992 1.391 . S
C994 C995 1.400 . S
C995 C994 1.400 . S
C995 C996 1.398 . S
C995 C1001 1.491 . S
C996 H987 0.950 . S
C996 C995 1.398 . S
C996 C997 1.391 . S
C997 H985 0.950 . S
C997 C993 1.393 . S
C997 C996 1.391 . S
C998 H988 0.950 . S
C998 C999 1.386 . S
C998 C1000 1.391 . S
C999 C998 1.386 . S
C999 C1003 1.393 . S
C1000 H989 0.950 . S
C1000 C998 1.391 . S
C1000 C1001 1.400 . S
C1001 C995 1.491 . S
C1001 C1000 1.400 . S
C1001 C1002 1.398 . S
C1002 H990 0.950 . S
C1002 C1001 1.398 . S
C1002 C1003 1.391 . S
C1003 H991 0.950 . S
C1003 C999 1.393 . S
C1003 C1002 1.391 . S
H1004 C1012 0.950 . S
H1005 C1017 0.950 . S
H1006 C1014 0.950 . S
H1007 C1016 0.950 . S
H1008 C1018 0.950 . S
H1009 C1020 0.950 . S
H1010 C1022 0.950 . S
H1011 C1023 0.950 . S
C1012 H1004 0.950 . S
C1012 C1013 1.386 . S
C1012 C1014 1.391 . S
C1013 C1012 1.386 . S
C1013 C1017 1.393 . S
C1014 H1006 0.950 . S
C1014 C1012 1.391 . S
C1014 C1015 1.400 . S
C1015 C1014 1.400 . S
C1015 C1016 1.398 . S
C1015 C1021 1.491 . S
C1016 H1007 0.950 . S
C1016 C1015 1.398 . S
C1016 C1017 1.391 . S
C1017 H1005 0.950 . S
C1017 C1013 1.393 . S
C1017 C1016 1.391 . S
C1018 H1008 0.950 . S
C1018 C1019 1.386 . S
C1018 C1020 1.391 . S
C1019 C1018 1.386 . S
C1019 C1023 1.393 . S
C1020 H1009 0.950 . S
C1020 C1018 1.391 . S
C1020 C1021 1.400 . S
C1021 C1015 1.491 . S
C1021 C1020 1.400 . S
C1021 C1022 1.398 . S
C1022 H1010 0.950 . S
C1022 C1021 1.398 . S
C1022 C1023 1.391 . S
C1023 H1011 0.950 . S
C1023 C1019 1.393 . S
C1023 C1022 1.391 . S
H1024 C1032 0.950 . S
H1025 C1037 0.950 . S
H1026 C1034 0.950 . S
H1027 C1036 0.950 . S
H1028 C1038 0.950 . S
H1029 C1040 0.950 . S
H1030 C1042 0.950 . S
H1031 C1043 0.950 . S
C1032 H1024 0.950 . S
C1032 C1033 1.386 . S
C1032 C1034 1.391 . S
C1033 C1032 1.386 . S
C1033 C1037 1.393 . S
C1034 H1026 0.950 . S
C1034 C1032 1.391 . S
C1034 C1035 1.400 . S
C1035 C1034 1.400 . S
C1035 C1036 1.398 . S
C1035 C1041 1.491 . S
C1036 H1027 0.950 . S
C1036 C1035 1.398 . S
C1036 C1037 1.391 . S
C1037 H1025 0.950 . S
C1037 C1033 1.393 . S
C1037 C1036 1.391 . S
C1038 H1028 0.950 . S
C1038 C1039 1.386 . S
C1038 C1040 1.391 . S
C1039 C1038 1.386 . S
C1039 C1043 1.393 . S
C1040 H1029 0.950 . S
C1040 C1038 1.391 . S
C1040 C1041 1.400 . S
C1041 C1035 1.491 . S
C1041 C1040 1.400 . S
C1041 C1042 1.398 . S
C1042 H1030 0.950 . S
C1042 C1041 1.398 . S
C1042 C1043 1.391 . S
C1043 H1031 0.950 . S
C1043 C1039 1.393 . S
C1043 C1042 1.391 . S
H1044 C1052 0.950 . S
H1045 C1057 0.950 . S
H1046 C1054 0.950 . S
H1047 C1056 0.950 . S
H1048 C1058 0.950 . S
H1049 C1060 0.950 . S
H1050 C1062 0.950 . S
H1051 C1063 0.950 . S
C1052 H1044 0.950 . S
C1052 C1053 1.386 . S
C1052 C1054 1.391 . S
C1053 C1052 1.386 . S
C1053 C1057 1.393 . S
C1054 H1046 0.950 . S
C1054 C1052 1.391 . S
C1054 C1055 1.400 . S
C1055 C1054 1.400 . S
C1055 C1056 1.398 . S
C1055 C1061 1.491 . S
C1056 H1047 0.950 . S
C1056 C1055 1.398 . S
C1056 C1057 1.391 . S
C1057 H1045 0.950 . S
C1057 C1053 1.393 . S
C1057 C1056 1.391 . S
C1058 H1048 0.950 . S
C1058 C1059 1.386 . S
C1058 C1060 1.391 . S
C1059 C1058 1.386 . S
C1059 C1063 1.393 . S
C1060 H1049 0.950 . S
C1060 C1058 1.391 . S
C1060 C1061 1.400 . S
C1061 C1055 1.491 . S
C1061 C1060 1.400 . S
C1061 C1062 1.398 . S
C1062 H1050 0.950 . S
C1062 C1061 1.398 . S
C1062 C1063 1.391 . S
C1063 H1051 0.950 . S
C1063 C1059 1.393 . S
C1063 C1062 1.391 . S
H1064 C1072 0.950 . S
H1065 C1077 0.950 . S
H1066 C1074 0.950 . S
H1067 C1076 0.950 . S
H1068 C1078 0.950 . S
H1069 C1080 0.950 . S
H1070 C1082 0.950 . S
H1071 C1083 0.950 . S
C1072 H1064 0.950 . S
C1072 C1073 1.386 . S
C1072 C1074 1.391 . S
C1073 C1072 1.386 . S
C1073 C1077 1.393 . S
C1074 H1066 0.950 . S
C1074 C1072 1.391 . S
C1074 C1075 1.400 . S
C1075 C1074 1.400 . S
C1075 C1076 1.398 . S
C1075 C1081 1.491 . S
C1076 H1067 0.950 . S
C1076 C1075 1.398 . S
C1076 C1077 1.391 . S
C1077 H1065 0.950 . S
C1077 C1073 1.393 . S
C1077 C1076 1.391 . S
C1078 H1068 0.950 . S
C1078 C1079 1.386 . S
C1078 C1080 1.391 . S
C1079 C1078 1.386 . S
C1079 C1083 1.393 . S
C1080 H1069 0.950 . S
C1080 C1078 1.391 . S
C1080 C1081 1.400 . S
C1081 C1075 1.491 . S
C1081 C1080 1.400 . S
C1081 C1082 1.398 . S
C1082 H1070 0.950 . S
C1082 C1081 1.398 . S
C1082 C1083 1.391 . S
C1083 H1071 0.950 . S
C1083 C1079 1.393 . S
C1083 C1082 1.391 . S
H1084 C1092 0.950 . S
H1085 C1097 0.950 . S
H1086 C1094 0.950 . S
H1087 C1096 0.950 . S
H1088 C1098 0.950 . S
H1089 C1100 0.950 . S
H1090 C1102 0.950 . S
H1091 C1103 0.950 . S
C1092 H1084 0.950 . S
C1092 C1093 1.386 . S
C1092 C1094 1.391 . S
C1093 C1092 1.386 . S
C1093 C1097 1.393 . S
C1094 H1086 0.950 . S
C1094 C1092 1.391 . S
C1094 C1095 1.400 . S
C1095 C1094 1.400 . S
C1095 C1096 1.398 . S
C1095 C1101 1.491 . S
C1096 H1087 0.950 . S
C1096 C1095 1.398 . S
C1096 C1097 1.391 . S
C1097 H1085 0.950 . S
C1097 C1093 1.393 . S
C1097 C1096 1.391 . S
C1098 H1088 0.950 . S
C1098 C1099 1.386 . S
C1098 C1100 1.391 . S
C1099 C1098 1.386 . S
C1099 C1103 1.393 . S
C1100 H1089 0.950 . S
C1100 C1098 1.391 . S
C1100 C1101 1.400 . S
C1101 C1095 1.491 . S
C1101 C1100 1.400 . S
C1101 C1102 1.398 . S
C1102 H1090 0.950 . S
C1102 C1101 1.398 . S
C1102 C1103 1.391 . S
C1103 H1091 0.950 . S
C1103 C1099 1.393 . S
C1103 C1102 1.391 . S
H1104 C1112 0.950 . S
H1105 C1117 0.950 . S
H1106 C1114 0.950 . S
H1107 C1116 0.950 . S
H1108 C1118 0.950 . S
H1109 C1120 0.950 . S
H1110 C1122 0.950 . S
H1111 C1123 0.950 . S
C1112 H1104 0.950 . S
C1112 C1113 1.386 . S
C1112 C1114 1.391 . S
C1113 C1112 1.386 . S
C1113 C1117 1.393 . S
C1114 H1106 0.950 . S
C1114 C1112 1.391 . S
C1114 C1115 1.400 . S
C1115 C1114 1.400 . S
C1115 C1116 1.398 . S
C1115 C1121 1.491 . S
C1116 H1107 0.950 . S
C1116 C1115 1.398 . S
C1116 C1117 1.391 . S
C1117 H1105 0.950 . S
C1117 C1113 1.393 . S
C1117 C1116 1.391 . S
C1118 H1108 0.950 . S
C1118 C1119 1.386 . S
C1118 C1120 1.391 . S
C1119 C1118 1.386 . S
C1119 C1123 1.393 . S
C1120 H1109 0.950 . S
C1120 C1118 1.391 . S
C1120 C1121 1.400 . S
C1121 C1115 1.491 . S
C1121 C1120 1.400 . S
C1121 C1122 1.398 . S
C1122 H1110 0.950 . S
C1122 C1121 1.398 . S
C1122 C1123 1.391 . S
C1123 H1111 0.950 . S
C1123 C1119 1.393 . S
C1123 C1122 1.391 . S
H1124 C1132 0.950 . S
H1125 C1137 0.950 . S
H1126 C1134 0.950 . S
H1127 C1136 0.950 . S
H1128 C1138 0.950 . S
H1129 C1140 0.950 . S
H1130 C1142 0.950 . S
H1131 C1143 0.950 . S
C1132 H1124 0.950 . S
C1132 C1133 1.386 . S
C1132 C1134 1.391 . S
C1133 C1132 1.386 . S
C1133 C1137 1.393 . S
C1134 H1126 0.950 . S
C1134 C1132 1.391 . S
C1134 C1135 1.400 . S
C1135 C1134 1.400 . S
C1135 C1136 1.398 . S
C1135 C1141 1.491 . S
C1136 H1127 0.950 . S
C1136 C1135 1.398 . S
C1136 C1137 1.391 . S
C1137 H1125 0.950 . S
C1137 C1133 1.393 . S
C1137 C1136 1.391 . S
C1138 H1128 0.950 . S
C1138 C1139 1.386 . S
C1138 C1140 1.391 . S
C1139 C1138 1.386 . S
C1139 C1143 1.393 . S
C1140 H1129 0.950 . S
C1140 C1138 1.391 . S
C1140 C1141 1.400 . S
C1141 C1135 1.491 . S
C1141 C1140 1.400 . S
C1141 C1142 1.398 . S
C1142 H1130 0.950 . S
C1142 C1141 1.398 . S
C1142 C1143 1.391 . S
C1143 H1131 0.950 . S
C1143 C1139 1.393 . S
C1143 C1142 1.391 . S
H1144 C1152 0.950 . S
H1145 C1157 0.950 . S
H1146 C1154 0.950 . S
H1147 C1156 0.950 . S
H1148 C1158 0.950 . S
H1149 C1160 0.950 . S
H1150 C1162 0.950 . S
H1151 C1163 0.950 . S
C1152 H1144 0.950 . S
C1152 C1153 1.386 . S
C1152 C1154 1.391 . S
C1153 C1152 1.386 . S
C1153 C1157 1.393 . S
C1154 H1146 0.950 . S
C1154 C1152 1.391 . S
C1154 C1155 1.400 . S
C1155 C1154 1.400 . S
C1155 C1156 1.398 . S
C1155 C1161 1.491 . S
C1156 H1147 0.950 . S
C1156 C1155 1.398 . S
C1156 C1157 1.391 . S
C1157 H1145 0.950 . S
C1157 C1153 1.393 . S
C1157 C1156 1.391 . S
C1158 H1148 0.950 . S
C1158 C1159 1.386 . S
C1158 C1160 1.391 . S
C1159 C1158 1.386 . S
C1159 C1163 1.393 . S
C1160 H1149 0.950 . S
C1160 C1158 1.391 . S
C1160 C1161 1.400 . S
C1161 C1155 1.491 . S
C1161 C1160 1.400 . S
C1161 C1162 1.398 . S
C1162 H1150 0.950 . S
C1162 C1161 1.398 . S
C1162 C1163 1.391 . S
C1163 H1151 0.950 . S
C1163 C1159 1.393 . S
C1163 C1162 1.391 . S
H1164 C1172 0.950 . S
H1165 C1177 0.950 . S
H1166 C1174 0.950 . S
H1167 C1176 0.950 . S
H1168 C1178 0.950 . S
H1169 C1180 0.950 . S
H1170 C1182 0.950 . S
H1171 C1183 0.950 . S
C1172 H1164 0.950 . S
C1172 C1173 1.386 . S
C1172 C1174 1.391 . S
C1173 C1172 1.386 . S
C1173 C1177 1.393 . S
C1174 H1166 0.950 . S
C1174 C1172 1.391 . S
C1174 C1175 1.400 . S
C1175 C1174 1.400 . S
C1175 C1176 1.398 . S
C1175 C1181 1.491 . S
C1176 H1167 0.950 . S
C1176 C1175 1.398 . S
C1176 C1177 1.391 . S
C1177 H1165 0.950 . S
C1177 C1173 1.393 . S
C1177 C1176 1.391 . S
C1178 H1168 0.950 . S
C1178 C1179 1.386 . S
C1178 C1180 1.391 . S
C1179 C1178 1.386 . S
C1179 C1183 1.393 . S
C1180 H1169 0.950 . S
C1180 C1178 1.391 . S
C1180 C1181 1.400 . S
C1181 C1175 1.491 . S
C1181 C1180 1.400 . S
C1181 C1182 1.398 . S
C1182 H1170 0.950 . S
C1182 C1181 1.398 . S
C1182 C1183 1.391 . S
C1183 H1171 0.950 . S
C1183 C1179 1.393 . S
C1183 C1182 1.391 . S
H1184 C1192 0.950 . S
H1185 C1197 0.950 . S
H1186 C1194 0.950 . S
H1187 C1196 0.950 . S
H1188 C1198 0.950 . S
H1189 C1200 0.950 . S
H1190 C1202 0.950 . S
H1191 C1203 0.950 . S
C1192 H1184 0.950 . S
C1192 C1193 1.386 . S
C1192 C1194 1.391 . S
C1193 C1192 1.386 . S
C1193 C1197 1.393 . S
C1194 H1186 0.950 . S
C1194 C1192 1.391 . S
C1194 C1195 1.400 . S
C1195 C1194 1.400 . S
C1195 C1196 1.398 . S
C1195 C1201 1.491 . S
C1196 H1187 0.950 . S
C1196 C1195 1.398 . S
C1196 C1197 1.391 . S
C1197 H1185 0.950 . S
C1197 C1193 1.393 . S
C1197 C1196 1.391 . S
C1198 H1188 0.950 . S
C1198 C1199 1.386 . S
C1198 C1200 1.391 . S
C1199 C1198 1.386 . S
C1199 C1203 1.393 . S
C1200 H1189 0.950 . S
C1200 C1198 1.391 . S
C1200 C1201 1.400 . S
C1201 C1195 1.491 . S
C1201 C1200 1.400 . S
C1201 C1202 1.398 . S
C1202 H1190 0.950 . S
C1202 C1201 1.398 . S
C1202 C1203 1.391 . S
C1203 H1191 0.950 . S
C1203 C1199 1.393 . S
C1203 C1202 1.391 . S
H1204 C1212 0.950 . S
H1205 C1217 0.950 . S
H1206 C1214 0.950 . S
H1207 C1216 0.950 . S
H1208 C1218 0.950 . S
H1209 C1220 0.950 . S
H1210 C1222 0.950 . S
H1211 C1223 0.950 . S
C1212 H1204 0.950 . S
C1212 C1213 1.386 . S
C1212 C1214 1.391 . S
C1213 C1212 1.386 . S
C1213 C1217 1.393 . S
C1214 H1206 0.950 . S
C1214 C1212 1.391 . S
C1214 C1215 1.400 . S
C1215 C1214 1.400 . S
C1215 C1216 1.398 . S
C1215 C1221 1.491 . S
C1216 H1207 0.950 . S
C1216 C1215 1.398 . S
C1216 C1217 1.391 . S
C1217 H1205 0.950 . S
C1217 C1213 1.393 . S
C1217 C1216 1.391 . S
C1218 H1208 0.950 . S
C1218 C1219 1.386 . S
C1218 C1220 1.391 . S
C1219 C1218 1.386 . S
C1219 C1223 1.393 . S
C1220 H1209 0.950 . S
C1220 C1218 1.391 . S
C1220 C1221 1.400 . S
C1221 C1215 1.491 . S
C1221 C1220 1.400 . S
C1221 C1222 1.398 . S
C1222 H1210 0.950 . S
C1222 C1221 1.398 . S
C1222 C1223 1.391 . S
C1223 H1211 0.950 . S
C1223 C1219 1.393 . S
C1223 C1222 1.391 . S
H1224 C1232 0.950 . S
H1225 C1237 0.950 . S
H1226 C1234 0.950 . S
H1227 C1236 0.950 . S
H1228 C1238 0.950 . S
H1229 C1240 0.950 . S
H1230 C1242 0.950 . S
H1231 C1243 0.950 . S
C1232 H1224 0.950 . S
C1232 C1233 1.386 . S
C1232 C1234 1.391 . S
C1233 C1232 1.386 . S
C1233 C1237 1.393 . S
C1234 H1226 0.950 . S
C1234 C1232 1.391 . S
C1234 C1235 1.400 . S
C1235 C1234 1.400 . S
C1235 C1236 1.398 . S
C1235 C1241 1.491 . S
C1236 H1227 0.950 . S
C1236 C1235 1.398 . S
C1236 C1237 1.391 . S
C1237 H1225 0.950 . S
C1237 C1233 1.393 . S
C1237 C1236 1.391 . S
C1238 H1228 0.950 . S
C1238 C1239 1.386 . S
C1238 C1240 1.391 . S
C1239 C1238 1.386 . S
C1239 C1243 1.393 . S
C1240 H1229 0.950 . S
C1240 C1238 1.391 . S
C1240 C1241 1.400 . S
C1241 C1235 1.491 . S
C1241 C1240 1.400 . S
C1241 C1242 1.398 . S
C1242 H1230 0.950 . S
C1242 C1241 1.398 . S
C1242 C1243 1.391 . S
C1243 H1231 0.950 . S
C1243 C1239 1.393 . S
C1243 C1242 1.391 . S
H1244 C1252 0.950 . S
H1245 C1257 0.950 . S
H1246 C1254 0.950 . S
H1247 C1256 0.950 . S
H1248 C1258 0.950 . S
H1249 C1260 0.950 . S
H1250 C1262 0.950 . S
H1251 C1263 0.950 . S
C1252 H1244 0.950 . S
C1252 C1253 1.386 . S
C1252 C1254 1.391 . S
C1253 C1252 1.386 . S
C1253 C1257 1.393 . S
C1254 H1246 0.950 . S
C1254 C1252 1.391 . S
C1254 C1255 1.400 . S
C1255 C1254 1.400 . S
C1255 C1256 1.398 . S
C1255 C1261 1.491 . S
C1256 H1247 0.950 . S
C1256 C1255 1.398 . S
C1256 C1257 1.391 . S
C1257 H1245 0.950 . S
C1257 C1253 1.393 . S
C1257 C1256 1.391 . S
C1258 H1248 0.950 . S
C1258 C1259 1.386 . S
C1258 C1260 1.391 . S
C1259 C1258 1.386 . S
C1259 C1263 1.393 . S
C1260 H1249 0.950 . S
C1260 C1258 1.391 . S
C1260 C1261 1.400 . S
C1261 C1255 1.491 . S
C1261 C1260 1.400 . S
C1261 C1262 1.398 . S
C1262 H1250 0.950 . S
C1262 C1261 1.398 . S
C1262 C1263 1.391 . S
C1263 H1251 0.950 . S
C1263 C1259 1.393 . S
C1263 C1262 1.391 . S
H1264 C1272 0.950 . S
H1265 C1277 0.950 . S
H1266 C1274 0.950 . S
H1267 C1276 0.950 . S
H1268 C1278 0.950 . S
H1269 C1280 0.950 . S
H1270 C1282 0.950 . S
H1271 C1283 0.950 . S
C1272 H1264 0.950 . S
C1272 C1273 1.386 . S
C1272 C1274 1.391 . S
C1273 C1272 1.386 . S
C1273 C1277 1.393 . S
C1274 H1266 0.950 . S
C1274 C1272 1.391 . S
C1274 C1275 1.400 . S
C1275 C1274 1.400 . S
C1275 C1276 1.398 . S
C1275 C1281 1.491 . S
C1276 H1267 0.950 . S
C1276 C1275 1.398 . S
C1276 C1277 1.391 . S
C1277 H1265 0.950 . S
C1277 C1273 1.393 . S
C1277 C1276 1.391 . S
C1278 H1268 0.950 . S
C1278 C1279 1.386 . S
C1278 C1280 1.391 . S
C1279 C1278 1.386 . S
C1279 C1283 1.393 . S
C1280 H1269 0.950 . S
C1280 C1278 1.391 . S
C1280 C1281 1.400 . S
C1281 C1275 1.491 . S
C1281 C1280 1.400 . S
C1281 C1282 1.398 . S
C1282 H1270 0.950 . S
C1282 C1281 1.398 . S
C1282 C1283 1.391 . S
C1283 H1271 0.950 . S
C1283 C1279 1.393 . S
C1283 C1282 1.391 . S
H1284 C1292 0.950 . S
H1285 C1297 0.950 . S
H1286 C1294 0.950 . S
H1287 C1296 0.950 . S
H1288 C1298 0.950 . S
H1289 C1300 0.950 . S
H1290 C1302 0.950 . S
H1291 C1303 0.950 . S
C1292 H1284 0.950 . S
C1292 C1293 1.386 . S
C1292 C1294 1.391 . S
C1293 C1292 1.386 . S
C1293 C1297 1.393 . S
C1294 H1286 0.950 . S
C1294 C1292 1.391 . S
C1294 C1295 1.400 . S
C1295 C1294 1.400 . S
C1295 C1296 1.398 . S
C1295 C1301 1.491 . S
C1296 H1287 0.950 . S
C1296 C1295 1.398 . S
C1296 C1297 1.391 . S
C1297 H1285 0.950 . S
C1297 C1293 1.393 . S
C1297 C1296 1.391 . S
C1298 H1288 0.950 . S
C1298 C1299 1.386 . S
C1298 C1300 1.391 . S
C1299 C1298 1.386 . S
C1299 C1303 1.393 . S
C1300 H1289 0.950 . S
C1300 C1298 1.391 . S
C1300 C1301 1.400 . S
C1301 C1295 1.491 . S
C1301 C1300 1.400 . S
C1301 C1302 1.398 . S
C1302 H1290 0.950 . S
C1302 C1301 1.398 . S
C1302 C1303 1.391 . S
C1303 H1291 0.950 . S
C1303 C1299 1.393 . S
C1303 C1302 1.391 . S
H1304 C1312 0.950 . S
H1305 C1317 0.950 . S
H1306 C1314 0.950 . S
H1307 C1316 0.950 . S
H1308 C1318 0.950 . S
H1309 C1320 0.950 . S
H1310 C1322 0.950 . S
H1311 C1323 0.950 . S
C1312 H1304 0.950 . S
C1312 C1313 1.386 . S
C1312 C1314 1.391 . S
C1313 C1312 1.386 . S
C1313 C1317 1.393 . S
C1314 H1306 0.950 . S
C1314 C1312 1.391 . S
C1314 C1315 1.400 . S
C1315 C1314 1.400 . S
C1315 C1316 1.398 . S
C1315 C1321 1.491 . S
C1316 H1307 0.950 . S
C1316 C1315 1.398 . S
C1316 C1317 1.391 . S
C1317 H1305 0.950 . S
C1317 C1313 1.393 . S
C1317 C1316 1.391 . S
C1318 H1308 0.950 . S
C1318 C1319 1.386 . S
C1318 C1320 1.391 . S
C1319 C1318 1.386 . S
C1319 C1323 1.393 . S
C1320 H1309 0.950 . S
C1320 C1318 1.391 . S
C1320 C1321 1.400 . S
C1321 C1315 1.491 . S
C1321 C1320 1.400 . S
C1321 C1322 1.398 . S
C1322 H1310 0.950 . S
C1322 C1321 1.398 . S
C1322 C1323 1.391 . S
C1323 H1311 0.950 . S
C1323 C1319 1.393 . S
C1323 C1322 1.391 . S
H1324 C1332 0.950 . S
H1325 C1337 0.950 . S
H1326 C1334 0.950 . S
H1327 C1336 0.950 . S
H1328 C1338 0.950 . S
H1329 C1340 0.950 . S
H1330 C1342 0.950 . S
H1331 C1343 0.950 . S
C1332 H1324 0.950 . S
C1332 C1333 1.386 . S
C1332 C1334 1.391 . S
C1333 C1332 1.386 . S
C1333 C1337 1.393 . S
C1334 H1326 0.950 . S
C1334 C1332 1.391 . S
C1334 C1335 1.400 . S
C1335 C1334 1.400 . S
C1335 C1336 1.398 . S
C1335 C1341 1.491 . S
C1336 H1327 0.950 . S
C1336 C1335 1.398 . S
C1336 C1337 1.391 . S
C1337 H1325 0.950 . S
C1337 C1333 1.393 . S
C1337 C1336 1.391 . S
C1338 H1328 0.950 . S
C1338 C1339 1.386 . S
C1338 C1340 1.391 . S
C1339 C1338 1.386 . S
C1339 C1343 1.393 . S
C1340 H1329 0.950 . S
C1340 C1338 1.391 . S
C1340 C1341 1.400 . S
C1341 C1335 1.491 . S
C1341 C1340 1.400 . S
C1341 C1342 1.398 . S
C1342 H1330 0.950 . S
C1342 C1341 1.398 . S
C1342 C1343 1.391 . S
C1343 H1331 0.950 . S
C1343 C1339 1.393 . S
C1343 C1342 1.391 . S
H1344 C1352 0.950 . S
H1345 C1357 0.950 . S
H1346 C1354 0.950 . S
H1347 C1356 0.950 . S
H1348 C1358 0.950 . S
H1349 C1360 0.950 . S
H1350 C1362 0.950 . S
H1351 C1363 0.950 . S
C1352 H1344 0.950 . S
C1352 C1353 1.386 . S
C1352 C1354 1.391 . S
C1353 C1352 1.386 . S
C1353 C1357 1.393 . S
C1354 H1346 0.950 . S
C1354 C1352 1.391 . S
C1354 C1355 1.400 . S
C1355 C1354 1.400 . S
C1355 C1356 1.398 . S
C1355 C1361 1.491 . S
C1356 H1347 0.950 . S
C1356 C1355 1.398 . S
C1356 C1357 1.391 . S
C1357 H1345 0.950 . S
C1357 C1353 1.393 . S
C1357 C1356 1.391 . S
C1358 H1348 0.950 . S
C1358 C1359 1.386 . S
C1358 C1360 1.391 . S
C1359 C1358 1.386 . S
C1359 C1363 1.393 . S
C1360 H1349 0.950 . S
C1360 C1358 1.391 . S
C1360 C1361 1.400 . S
C1361 C1355 1.491 . S
C1361 C1360 1.400 . S
C1361 C1362 1.398 . S
C1362 H1350 0.950 . S
C1362 C1361 1.398 . S
C1362 C1363 1.391 . S
C1363 H1351 0.950 . S
C1363 C1359 1.393 . S
C1363 C1362 1.391 . S
H1364 C1372 0.950 . S
H1365 C1377 0.950 . S
H1366 C1374 0.950 . S
H1367 C1376 0.950 . S
H1368 C1378 0.950 . S
H1369 C1380 0.950 . S
H1370 C1382 0.950 . S
H1371 C1383 0.950 . S
C1372 H1364 0.950 . S
C1372 C1373 1.386 . S
C1372 C1374 1.391 . S
C1373 C1372 1.386 . S
C1373 C1377 1.393 . S
C1374 H1366 0.950 . S
C1374 C1372 1.391 . S
C1374 C1375 1.400 . S
C1375 C1374 1.400 . S
C1375 C1376 1.398 . S
C1375 C1381 1.491 . S
C1376 H1367 0.950 . S
C1376 C1375 1.398 . S
C1376 C1377 1.391 . S
C1377 H1365 0.950 . S
C1377 C1373 1.393 . S
C1377 C1376 1.391 . S
C1378 H1368 0.950 . S
C1378 C1379 1.386 . S
C1378 C1380 1.391 . S
C1379 C1378 1.386 . S
C1379 C1383 1.393 . S
C1380 H1369 0.950 . S
C1380 C1378 1.391 . S
C1380 C1381 1.400 . S
C1381 C1375 1.491 . S
C1381 C1380 1.400 . S
C1381 C1382 1.398 . S
C1382 H1370 0.950 . S
C1382 C1381 1.398 . S
C1382 C1383 1.391 . S
C1383 H1371 0.950 . S
C1383 C1379 1.393 . S
C1383 C1382 1.391 . S
H1384 C1392 0.950 . S
H1385 C1397 0.950 . S
H1386 C1394 0.950 . S
H1387 C1396 0.950 . S
H1388 C1398 0.950 . S
H1389 C1400 0.950 . S
H1390 C1402 0.950 . S
H1391 C1403 0.950 . S
C1392 H1384 0.950 . S
C1392 C1393 1.386 . S
C1392 C1394 1.391 . S
C1393 C1392 1.386 . S
C1393 C1397 1.393 . S
C1394 H1386 0.950 . S
C1394 C1392 1.391 . S
C1394 C1395 1.400 . S
C1395 C1394 1.400 . S
C1395 C1396 1.398 . S
C1395 C1401 1.491 . S
C1396 H1387 0.950 . S
C1396 C1395 1.398 . S
C1396 C1397 1.391 . S
C1397 H1385 0.950 . S
C1397 C1393 1.393 . S
C1397 C1396 1.391 . S
C1398 H1388 0.950 . S
C1398 C1399 1.386 . S
C1398 C1400 1.391 . S
C1399 C1398 1.386 . S
C1399 C1403 1.393 . S
C1400 H1389 0.950 . S
C1400 C1398 1.391 . S
C1400 C1401 1.400 . S
C1401 C1395 1.491 . S
C1401 C1400 1.400 . S
C1401 C1402 1.398 . S
C1402 H1390 0.950 . S
C1402 C1401 1.398 . S
C1402 C1403 1.391 . S
C1403 H1391 0.950 . S
C1403 C1399 1.393 . S
C1403 C1402 1.391 . S
H1404 C1412 0.950 . S
H1405 C1417 0.950 . S
H1406 C1414 0.950 . S
H1407 C1416 0.950 . S
H1408 C1418 0.950 . S
H1409 C1420 0.950 . S
H1410 C1422 0.950 . S
H1411 C1423 0.950 . S
C1412 H1404 0.950 . S
C1412 C1413 1.386 . S
C1412 C1414 1.391 . S
C1413 C1412 1.386 . S
C1413 C1417 1.393 . S
C1414 H1406 0.950 . S
C1414 C1412 1.391 . S
C1414 C1415 1.400 . S
C1415 C1414 1.400 . S
C1415 C1416 1.398 . S
C1415 C1421 1.491 . S
C1416 H1407 0.950 . S
C1416 C1415 1.398 . S
C1416 C1417 1.391 . S
C1417 H1405 0.950 . S
C1417 C1413 1.393 . S
C1417 C1416 1.391 . S
C1418 H1408 0.950 . S
C1418 C1419 1.386 . S
C1418 C1420 1.391 . S
C1419 C1418 1.386 . S
C1419 C1423 1.393 . S
C1420 H1409 0.950 . S
C1420 C1418 1.391 . S
C1420 C1421 1.400 . S
C1421 C1415 1.491 . S
C1421 C1420 1.400 . S
C1421 C1422 1.398 . S
C1422 H1410 0.950 . S
C1422 C1421 1.398 . S
C1422 C1423 1.391 . S
C1423 H1411 0.950 . S
C1423 C1419 1.393 . S
C1423 C1422 1.391 . S
H1424 C1432 0.950 . S
H1425 C1437 0.950 . S
H1426 C1434 0.950 . S
H1427 C1436 0.950 . S
H1428 C1438 0.950 . S
H1429 C1440 0.950 . S
H1430 C1442 0.950 . S
H1431 C1443 0.950 . S
C1432 H1424 0.950 . S
C1432 C1433 1.386 . S
C1432 C1434 1.391 . S
C1433 C1432 1.386 . S
C1433 C1437 1.393 . S
C1434 H1426 0.950 . S
C1434 C1432 1.391 . S
C1434 C1435 1.400 . S
C1435 C1434 1.400 . S
C1435 C1436 1.398 . S
C1435 C1441 1.491 . S
C1436 H1427 0.950 . S
C1436 C1435 1.398 . S
C1436 C1437 1.391 . S
C1437 H1425 0.950 . S
C1437 C1433 1.393 . S
C1437 C1436 1.391 . S
C1438 H1428 0.950 . S
C1438 C1439 1.386 . S
C1438 C1440 1.391 . S
C1439 C1438 1.386 . S
C1439 C1443 1.393 . S
C1440 H1429 0.950 . S
C1440 C1438 1.391 . S
C1440 C1441 1.400 . S
C1441 C1435 1.491 . S
C1441 C1440 1.400 . S
C1441 C1442 1.398 . S
C1442 H1430 0.950 . S
C1442 C1441 1.398 . S
C1442 C1443 1.391 . S
C1443 H1431 0.950 . S
C1443 C1439 1.393 . S
C1443 C1442 1.391 . S
H1444 C1452 0.950 . S
H1445 C1457 0.950 . S
H1446 C1454 0.950 . S
H1447 C1456 0.950 . S
H1448 C1458 0.950 . S
H1449 C1460 0.950 . S
H1450 C1462 0.950 . S
H1451 C1463 0.950 . S
C1452 H1444 0.950 . S
C1452 C1453 1.386 . S
C1452 C1454 1.391 . S
C1453 C1452 1.386 . S
C1453 C1457 1.393 . S
C1454 H1446 0.950 . S
C1454 C1452 1.391 . S
C1454 C1455 1.400 . S
C1455 C1454 1.400 . S
C1455 C1456 1.398 . S
C1455 C1461 1.491 . S
C1456 H1447 0.950 . S
C1456 C1455 1.398 . S
C1456 C1457 1.391 . S
C1457 H1445 0.950 . S
C1457 C1453 1.393 . S
C1457 C1456 1.391 . S
C1458 H1448 0.950 . S
C1458 C1459 1.386 . S
C1458 C1460 1.391 . S
C1459 C1458 1.386 . S
C1459 C1463 1.393 . S
C1460 H1449 0.950 . S
C1460 C1458 1.391 . S
C1460 C1461 1.400 . S
C1461 C1455 1.491 . S
C1461 C1460 1.400 . S
C1461 C1462 1.398 . S
C1462 H1450 0.950 . S
C1462 C1461 1.398 . S
C1462 C1463 1.391 . S
C1463 H1451 0.950 . S
C1463 C1459 1.393 . S
C1463 C1462 1.391 . S
H1464 C1472 0.950 . S
H1465 C1477 0.950 . S
H1466 C1474 0.950 . S
H1467 C1476 0.950 . S
H1468 C1478 0.950 . S
H1469 C1480 0.950 . S
H1470 C1482 0.950 . S
H1471 C1483 0.950 . S
C1472 H1464 0.950 . S
C1472 C1473 1.386 . S
C1472 C1474 1.391 . S
C1473 C1472 1.386 . S
C1473 C1477 1.393 . S
C1474 H1466 0.950 . S
C1474 C1472 1.391 . S
C1474 C1475 1.400 . S
C1475 C1474 1.400 . S
C1475 C1476 1.398 . S
C1475 C1481 1.491 . S
C1476 H1467 0.950 . S
C1476 C1475 1.398 . S
C1476 C1477 1.391 . S
C1477 H1465 0.950 . S
C1477 C1473 1.393 . S
C1477 C1476 1.391 . S
C1478 H1468 0.950 . S
C1478 C1479 1.386 . S
C1478 C1480 1.391 . S
C1479 C1478 1.386 . S
C1479 C1483 1.393 . S
C1480 H1469 0.950 . S
C1480 C1478 1.391 . S
C1480 C1481 1.400 . S
C1481 C1475 1.491 . S
C1481 C1480 1.400 . S
C1481 C1482 1.398 . S
C1482 H1470 0.950 . S
C1482 C1481 1.398 . S
C1482 C1483 1.391 . S
C1483 H1471 0.950 . S
C1483 C1479 1.393 . S
C1483 C1482 1.391 . S
H1484 C1492 0.950 . S
H1485 C1497 0.950 . S
H1486 C1494 0.950 . S
H1487 C1496 0.950 . S
H1488 C1498 0.950 . S
H1489 C1500 0.950 . S
H1490 C1502 0.950 . S
H1491 C1503 0.950 . S
C1492 H1484 0.950 . S
C1492 C1493 1.386 . S
C1492 C1494 1.391 . S
C1493 C1492 1.386 . S
C1493 C1497 1.393 . S
C1494 H1486 0.950 . S
C1494 C1492 1.391 . S
C1494 C1495 1.400 . S
C1495 C1494 1.400 . S
C1495 C1496 1.398 . S
C1495 C1501 1.491 . S
C1496 H1487 0.950 . S
C1496 C1495 1.398 . S
C1496 C1497 1.391 . S
C1497 H1485 0.950 . S
C1497 C1493 1.393 . S
C1497 C1496 1.391 . S
C1498 H1488 0.950 . S
C1498 C1499 1.386 . S
C1498 C1500 1.391 . S
C1499 C1498 1.386 . S
C1499 C1503 1.393 . S
C1500 H1489 0.950 . S
C1500 C1498 1.391 . S
C1500 C1501 1.400 . S
C1501 C1495 1.491 . S
C1501 C1500 1.400 . S
C1501 C1502 1.398 . S
C1502 H1490 0.950 . S
C1502 C1501 1.398 . S
C1502 C1503 1.391 . S
C1503 H1491 0.950 . S
C1503 C1499 1.393 . S
C1503 C1502 1.391 . S
H1504 C1512 0.950 . S
H1505 C1517 0.950 . S
H1506 C1514 0.950 . S
H1507 C1516 0.950 . S
H1508 C1518 0.950 . S
H1509 C1520 0.950 . S
H1510 C1522 0.950 . S
H1511 C1523 0.950 . S
C1512 H1504 0.950 . S
C1512 C1513 1.386 . S
C1512 C1514 1.391 . S
C1513 C1512 1.386 . S
C1513 C1517 1.393 . S
C1514 H1506 0.950 . S
C1514 C1512 1.391 . S
C1514 C1515 1.400 . S
C1515 C1514 1.400 . S
C1515 C1516 1.398 . S
C1515 C1521 1.491 . S
C1516 H1507 0.950 . S
C1516 C1515 1.398 . S
C1516 C1517 1.391 . S
C1517 H1505 0.950 . S
C1517 C1513 1.393 . S
C1517 C1516 1.391 . S
C1518 H1508 0.950 . S
C1518 C1519 1.386 . S
C1518 C1520 1.391 . S
C1519 C1518 1.386 . S
C1519 C1523 1.393 . S
C1520 H1509 0.950 . S
C1520 C1518 1.391 . S
C1520 C1521 1.400 . S
C1521 C1515 1.491 . S
C1521 C1520 1.400 . S
C1521 C1522 1.398 . S
C1522 H1510 0.950 . S
C1522 C1521 1.398 . S
C1522 C1523 1.391 . S
C1523 H1511 0.950 . S
C1523 C1519 1.393 . S
C1523 C1522 1.391 . S
C579 C275 0.661 . S
C573 N6 0.657 . S
C599 C253 2.135 . S
C593 C57 2.214 . S
C619 C250 0.745 . S
C613 C61 0.745 . S
C633 N96 0.813 . S
C639 C262 0.807 . S
C653 C136 2.214 . S
C659 C245 2.129 . S
C679 C267 0.735 . S
C673 C160 0.744 . S
C693 N194 0.812 . S
C699 C272 0.827 . S
C713 N224 0.687 . S
C719 C268 0.669 . S
C739 C326 2.108 . S
C733 C10 2.170 . S
C753 N36 0.818 . S
C759 C376 0.845 . S
C779 C299 0.856 . S
C773 N74 0.835 . S
C799 C375 0.798 . S
C793 C100 0.784 . S
C813 C121 0.805 . S
C819 C304 0.809 . S
C839 C370 2.073 . S
C833 C177 2.122 . S
C853 C196 2.057 . S
C859 C329 2.067 . S
C873 C226 2.201 . S
C879 C361 2.166 . S
C893 C27 2.204 . S
C899 C353 2.167 . S
C913 N134 0.824 . S
C919 C383 0.846 . S
C939 C307 0.859 . S
C933 N156 0.824 . S
C959 C358 0.807 . S
C953 C181 0.811 . S
C973 C211 2.171 . S
C979 C316 2.114 . S
C993 C76 2.137 . S
C999 C380 2.070 . S
C1019 C322 2.075 . S
C1013 C117 2.064 . S
C1033 C40 0.826 . S
C1039 C321 0.817 . S
C1053 N216 0.719 . S
C1059 C437 0.663 . S
C1073 C147 2.208 . S
C1079 C415 2.125 . S
C1099 C412 0.736 . S
C1093 C151 0.745 . S
C1119 C424 0.835 . S
C1113 N186 0.861 . S
C1133 C46 2.203 . S
C1139 C407 2.111 . S
C1159 C429 0.757 . S
C1153 C70 0.747 . S
C1173 N104 0.812 . S
C1179 C434 0.817 . S
C1193 N14 0.656 . S
C1199 C430 0.667 . S
C1213 C220 2.167 . S
C1219 C488 2.110 . S
C1239 C538 0.850 . S
C1233 N126 0.840 . S
C1253 N164 0.820 . S
C1259 C461 0.810 . S
C1273 C190 0.794 . S
C1279 C537 0.786 . S
C1299 C466 0.803 . S
C1293 C31 0.804 . S
C1313 C87 2.125 . S
C1319 C532 2.054 . S
C1339 C491 2.064 . S
C1333 C106 2.049 . S
C1359 C523 2.156 . S
C1353 C16 2.210 . S
C1379 C515 2.156 . S
C1373 C237 2.216 . S
C1393 N44 0.836 . S
C1399 C545 0.859 . S
C1413 N66 0.818 . S
C1419 C469 0.823 . S
C1439 C520 0.806 . S
C1433 C91 0.793 . S
C1453 C1 2.170 . S
C1459 C478 2.103 . S
C1473 C166 2.138 . S
C1479 C542 2.088 . S
C1499 C484 2.068 . S
C1493 C207 2.054 . S
C1519 C483 0.817 . S
C1513 C130 0.826 . S
