# Generated by pormake.
# Topology gar, (4,6)-cn, num edge types: 1
# Building blocks:
#     Node 0, Type 0, BuildingBlock: QUQFOY_clean_sbu_3, # of connection points: 4
#     Node 1, Type 0, BuildingBlock: QUQFOY_clean_sbu_3, # of connection points: 4
#     Node 2, Type 0, BuildingBlock: QUQFOY_clean_sbu_3, # of connection points: 4
#     Node 3, Type 0, BuildingBlock: QUQFOY_clean_sbu_3, # of connection points: 4
#     Node 4, Type 0, BuildingBlock: QUQFOY_clean_sbu_3, # of connection points: 4
#     Node 5, Type 0, BuildingBlock: QUQFOY_clean_sbu_3, # of connection points: 4
#     Node 6, Type 0, BuildingBlock: QUQFOY_clean_sbu_3, # of connection points: 4
#     Node 7, Type 0, BuildingBlock: QUQFOY_clean_sbu_3, # of connection points: 4
#     Node 8, Type 0, BuildingBlock: QUQFOY_clean_sbu_3, # of connection points: 4
#     Node 9, Type 0, BuildingBlock: QUQFOY_clean_sbu_3, # of connection points: 4
#     Node 10, Type 0, BuildingBlock: QUQFOY_clean_sbu_3, # of connection points: 4
#     Node 11, Type 0, BuildingBlock: QUQFOY_clean_sbu_3, # of connection points: 4
#     Node 12, Type 0, BuildingBlock: QUQFOY_clean_sbu_3, # of connection points: 4
#     Node 13, Type 0, BuildingBlock: QUQFOY_clean_sbu_3, # of connection points: 4
#     Node 14, Type 0, BuildingBlock: QUQFOY_clean_sbu_3, # of connection points: 4
#     Node 15, Type 0, BuildingBlock: QUQFOY_clean_sbu_3, # of connection points: 4
#     Node 16, Type 0, BuildingBlock: QUQFOY_clean_sbu_3, # of connection points: 4
#     Node 17, Type 0, BuildingBlock: QUQFOY_clean_sbu_3, # of connection points: 4
#     Node 18, Type 0, BuildingBlock: QUQFOY_clean_sbu_3, # of connection points: 4
#     Node 19, Type 0, BuildingBlock: QUQFOY_clean_sbu_3, # of connection points: 4
#     Node 20, Type 0, BuildingBlock: QUQFOY_clean_sbu_3, # of connection points: 4
#     Node 21, Type 0, BuildingBlock: QUQFOY_clean_sbu_3, # of connection points: 4
#     Node 22, Type 0, BuildingBlock: QUQFOY_clean_sbu_3, # of connection points: 4
#     Node 23, Type 0, BuildingBlock: QUQFOY_clean_sbu_3, # of connection points: 4
#     Node 24, Type 1, BuildingBlock: GEDQOX_clean_sbu_0, # of connection points: 6
#     Node 25, Type 1, BuildingBlock: GEDQOX_clean_sbu_0, # of connection points: 6
#     Node 26, Type 1, BuildingBlock: GEDQOX_clean_sbu_0, # of connection points: 6
#     Node 27, Type 1, BuildingBlock: GEDQOX_clean_sbu_0, # of connection points: 6
#     Node 28, Type 1, BuildingBlock: GEDQOX_clean_sbu_0, # of connection points: 6
#     Node 29, Type 1, BuildingBlock: GEDQOX_clean_sbu_0, # of connection points: 6
#     Node 30, Type 1, BuildingBlock: GEDQOX_clean_sbu_0, # of connection points: 6
#     Node 31, Type 1, BuildingBlock: GEDQOX_clean_sbu_0, # of connection points: 6
#     Node 32, Type 1, BuildingBlock: GEDQOX_clean_sbu_0, # of connection points: 6
#     Node 33, Type 1, BuildingBlock: GEDQOX_clean_sbu_0, # of connection points: 6
#     Node 34, Type 1, BuildingBlock: GEDQOX_clean_sbu_0, # of connection points: 6
#     Node 35, Type 1, BuildingBlock: GEDQOX_clean_sbu_0, # of connection points: 6
#     Node 36, Type 1, BuildingBlock: GEDQOX_clean_sbu_0, # of connection points: 6
#     Node 37, Type 1, BuildingBlock: GEDQOX_clean_sbu_0, # of connection points: 6
#     Node 38, Type 1, BuildingBlock: GEDQOX_clean_sbu_0, # of connection points: 6
#     Node 39, Type 1, BuildingBlock: GEDQOX_clean_sbu_0, # of connection points: 6
#     Edge 40, Type (0, 1), BuildingBlock: UVAHIK_clean_linker_0, # of connection points: 2
#     Edge 41, Type (0, 1), BuildingBlock: UVAHIK_clean_linker_0, # of connection points: 2
#     Edge 42, Type (0, 1), BuildingBlock: UVAHIK_clean_linker_0, # of connection points: 2
#     Edge 43, Type (0, 1), BuildingBlock: UVAHIK_clean_linker_0, # of connection points: 2
#     Edge 44, Type (0, 1), BuildingBlock: UVAHIK_clean_linker_0, # of connection points: 2
#     Edge 45, Type (0, 1), BuildingBlock: UVAHIK_clean_linker_0, # of connection points: 2
#     Edge 46, Type (0, 1), BuildingBlock: UVAHIK_clean_linker_0, # of connection points: 2
#     Edge 47, Type (0, 1), BuildingBlock: UVAHIK_clean_linker_0, # of connection points: 2
#     Edge 48, Type (0, 1), BuildingBlock: UVAHIK_clean_linker_0, # of connection points: 2
#     Edge 49, Type (0, 1), BuildingBlock: UVAHIK_clean_linker_0, # of connection points: 2
#     Edge 50, Type (0, 1), BuildingBlock: UVAHIK_clean_linker_0, # of connection points: 2
#     Edge 51, Type (0, 1), BuildingBlock: UVAHIK_clean_linker_0, # of connection points: 2
#     Edge 52, Type (0, 1), BuildingBlock: UVAHIK_clean_linker_0, # of connection points: 2
#     Edge 53, Type (0, 1), BuildingBlock: UVAHIK_clean_linker_0, # of connection points: 2
#     Edge 54, Type (0, 1), BuildingBlock: UVAHIK_clean_linker_0, # of connection points: 2
#     Edge 55, Type (0, 1), BuildingBlock: UVAHIK_clean_linker_0, # of connection points: 2
#     Edge 56, Type (0, 1), BuildingBlock: UVAHIK_clean_linker_0, # of connection points: 2
#     Edge 57, Type (0, 1), BuildingBlock: UVAHIK_clean_linker_0, # of connection points: 2
#     Edge 58, Type (0, 1), BuildingBlock: UVAHIK_clean_linker_0, # of connection points: 2
#     Edge 59, Type (0, 1), BuildingBlock: UVAHIK_clean_linker_0, # of connection points: 2
#     Edge 60, Type (0, 1), BuildingBlock: UVAHIK_clean_linker_0, # of connection points: 2
#     Edge 61, Type (0, 1), BuildingBlock: UVAHIK_clean_linker_0, # of connection points: 2
#     Edge 62, Type (0, 1), BuildingBlock: UVAHIK_clean_linker_0, # of connection points: 2
#     Edge 63, Type (0, 1), BuildingBlock: UVAHIK_clean_linker_0, # of connection points: 2
#     Edge 64, Type (0, 1), BuildingBlock: UVAHIK_clean_linker_0, # of connection points: 2
#     Edge 65, Type (0, 1), BuildingBlock: UVAHIK_clean_linker_0, # of connection points: 2
#     Edge 66, Type (0, 1), BuildingBlock: UVAHIK_clean_linker_0, # of connection points: 2
#     Edge 67, Type (0, 1), BuildingBlock: UVAHIK_clean_linker_0, # of connection points: 2
#     Edge 68, Type (0, 1), BuildingBlock: UVAHIK_clean_linker_0, # of connection points: 2
#     Edge 69, Type (0, 1), BuildingBlock: UVAHIK_clean_linker_0, # of connection points: 2
#     Edge 70, Type (0, 1), BuildingBlock: UVAHIK_clean_linker_0, # of connection points: 2
#     Edge 71, Type (0, 1), BuildingBlock: UVAHIK_clean_linker_0, # of connection points: 2
#     Edge 72, Type (0, 1), BuildingBlock: UVAHIK_clean_linker_0, # of connection points: 2
#     Edge 73, Type (0, 1), BuildingBlock: UVAHIK_clean_linker_0, # of connection points: 2
#     Edge 74, Type (0, 1), BuildingBlock: UVAHIK_clean_linker_0, # of connection points: 2
#     Edge 75, Type (0, 1), BuildingBlock: UVAHIK_clean_linker_0, # of connection points: 2
#     Edge 76, Type (0, 1), BuildingBlock: UVAHIK_clean_linker_0, # of connection points: 2
#     Edge 77, Type (0, 1), BuildingBlock: UVAHIK_clean_linker_0, # of connection points: 2
#     Edge 78, Type (0, 1), BuildingBlock: UVAHIK_clean_linker_0, # of connection points: 2
#     Edge 79, Type (0, 1), BuildingBlock: UVAHIK_clean_linker_0, # of connection points: 2
#     Edge 80, Type (0, 1), BuildingBlock: UVAHIK_clean_linker_0, # of connection points: 2
#     Edge 81, Type (0, 1), BuildingBlock: UVAHIK_clean_linker_0, # of connection points: 2
#     Edge 82, Type (0, 1), BuildingBlock: UVAHIK_clean_linker_0, # of connection points: 2
#     Edge 83, Type (0, 1), BuildingBlock: UVAHIK_clean_linker_0, # of connection points: 2
#     Edge 84, Type (0, 1), BuildingBlock: UVAHIK_clean_linker_0, # of connection points: 2
#     Edge 85, Type (0, 1), BuildingBlock: UVAHIK_clean_linker_0, # of connection points: 2
#     Edge 86, Type (0, 1), BuildingBlock: UVAHIK_clean_linker_0, # of connection points: 2
#     Edge 87, Type (0, 1), BuildingBlock: UVAHIK_clean_linker_0, # of connection points: 2
#     Edge 88, Type (0, 1), BuildingBlock: UVAHIK_clean_linker_0, # of connection points: 2
#     Edge 89, Type (0, 1), BuildingBlock: UVAHIK_clean_linker_0, # of connection points: 2
#     Edge 90, Type (0, 1), BuildingBlock: UVAHIK_clean_linker_0, # of connection points: 2
#     Edge 91, Type (0, 1), BuildingBlock: UVAHIK_clean_linker_0, # of connection points: 2
#     Edge 92, Type (0, 1), BuildingBlock: UVAHIK_clean_linker_0, # of connection points: 2
#     Edge 93, Type (0, 1), BuildingBlock: UVAHIK_clean_linker_0, # of connection points: 2
#     Edge 94, Type (0, 1), BuildingBlock: UVAHIK_clean_linker_0, # of connection points: 2
#     Edge 95, Type (0, 1), BuildingBlock: UVAHIK_clean_linker_0, # of connection points: 2
#     Edge 96, Type (0, 1), BuildingBlock: UVAHIK_clean_linker_0, # of connection points: 2
#     Edge 97, Type (0, 1), BuildingBlock: UVAHIK_clean_linker_0, # of connection points: 2
#     Edge 98, Type (0, 1), BuildingBlock: UVAHIK_clean_linker_0, # of connection points: 2
#     Edge 99, Type (0, 1), BuildingBlock: UVAHIK_clean_linker_0, # of connection points: 2
#     Edge 100, Type (0, 1), BuildingBlock: UVAHIK_clean_linker_0, # of connection points: 2
#     Edge 101, Type (0, 1), BuildingBlock: UVAHIK_clean_linker_0, # of connection points: 2
#     Edge 102, Type (0, 1), BuildingBlock: UVAHIK_clean_linker_0, # of connection points: 2
#     Edge 103, Type (0, 1), BuildingBlock: UVAHIK_clean_linker_0, # of connection points: 2
#     Edge 104, Type (0, 1), BuildingBlock: UVAHIK_clean_linker_0, # of connection points: 2
#     Edge 105, Type (0, 1), BuildingBlock: UVAHIK_clean_linker_0, # of connection points: 2
#     Edge 106, Type (0, 1), BuildingBlock: UVAHIK_clean_linker_0, # of connection points: 2
#     Edge 107, Type (0, 1), BuildingBlock: UVAHIK_clean_linker_0, # of connection points: 2
#     Edge 108, Type (0, 1), BuildingBlock: UVAHIK_clean_linker_0, # of connection points: 2
#     Edge 109, Type (0, 1), BuildingBlock: UVAHIK_clean_linker_0, # of connection points: 2
#     Edge 110, Type (0, 1), BuildingBlock: UVAHIK_clean_linker_0, # of connection points: 2
#     Edge 111, Type (0, 1), BuildingBlock: UVAHIK_clean_linker_0, # of connection points: 2
#     Edge 112, Type (0, 1), BuildingBlock: UVAHIK_clean_linker_0, # of connection points: 2
#     Edge 113, Type (0, 1), BuildingBlock: UVAHIK_clean_linker_0, # of connection points: 2
#     Edge 114, Type (0, 1), BuildingBlock: UVAHIK_clean_linker_0, # of connection points: 2
#     Edge 115, Type (0, 1), BuildingBlock: UVAHIK_clean_linker_0, # of connection points: 2
#     Edge 116, Type (0, 1), BuildingBlock: UVAHIK_clean_linker_0, # of connection points: 2
#     Edge 117, Type (0, 1), BuildingBlock: UVAHIK_clean_linker_0, # of connection points: 2
#     Edge 118, Type (0, 1), BuildingBlock: UVAHIK_clean_linker_0, # of connection points: 2
#     Edge 119, Type (0, 1), BuildingBlock: UVAHIK_clean_linker_0, # of connection points: 2
#     Edge 120, Type (0, 1), BuildingBlock: UVAHIK_clean_linker_0, # of connection points: 2
#     Edge 121, Type (0, 1), BuildingBlock: UVAHIK_clean_linker_0, # of connection points: 2
#     Edge 122, Type (0, 1), BuildingBlock: UVAHIK_clean_linker_0, # of connection points: 2
#     Edge 123, Type (0, 1), BuildingBlock: UVAHIK_clean_linker_0, # of connection points: 2
#     Edge 124, Type (0, 1), BuildingBlock: UVAHIK_clean_linker_0, # of connection points: 2
#     Edge 125, Type (0, 1), BuildingBlock: UVAHIK_clean_linker_0, # of connection points: 2
#     Edge 126, Type (0, 1), BuildingBlock: UVAHIK_clean_linker_0, # of connection points: 2
#     Edge 127, Type (0, 1), BuildingBlock: UVAHIK_clean_linker_0, # of connection points: 2
#     Edge 128, Type (0, 1), BuildingBlock: UVAHIK_clean_linker_0, # of connection points: 2
#     Edge 129, Type (0, 1), BuildingBlock: UVAHIK_clean_linker_0, # of connection points: 2
#     Edge 130, Type (0, 1), BuildingBlock: UVAHIK_clean_linker_0, # of connection points: 2
#     Edge 131, Type (0, 1), BuildingBlock: UVAHIK_clean_linker_0, # of connection points: 2
#     Edge 132, Type (0, 1), BuildingBlock: UVAHIK_clean_linker_0, # of connection points: 2
#     Edge 133, Type (0, 1), BuildingBlock: UVAHIK_clean_linker_0, # of connection points: 2
#     Edge 134, Type (0, 1), BuildingBlock: UVAHIK_clean_linker_0, # of connection points: 2
#     Edge 135, Type (0, 1), BuildingBlock: UVAHIK_clean_linker_0, # of connection points: 2
# Relax obj value: 0.226
# Max RMSD: 0.370
# Mean RMSD: 0.159
data_MOF--net-gar--node1-QUQFOY_clean_sbu_3--node2-GEDQOX_clean_sbu_0--edge1-UVAHIK_clean_linker_0
_symmetry_space_group_name_H-M    P1
_symmetry_Int_Tables_number       1
_symmetry_cell_setting            triclinic
loop_
_symmetry_equiv_pos_as_xyz
'x, y, z'
_cell_length_a     77.721546
_cell_length_b     76.322563
_cell_length_c     69.887963
_cell_angle_alpha  97.682682
_cell_angle_beta   96.697023
_cell_angle_gamma 100.52592
loop_
_atom_site_label
_atom_site_type_symbol
_atom_site_fract_x
_atom_site_fract_y
_atom_site_fract_z
_atom_type_partial_charge
C0 C 0.04964 0.35071 0.43055 0.0
O1 O 0.0618 0.36202 0.42557 0.0
Cd2 Cd 0.09253 0.36408 0.43515 0.0
O3 O 0.05327 0.33995 0.44226 0.0
Cd4 Cd 0.07937 0.33244 0.46133 0.0
C5 C 0.09286 0.37647 0.48416 0.0
O6 O 0.09039 0.33223 0.43145 0.0
O7 O 0.10743 0.32278 0.45235 0.0
O8 O 0.05749 0.30495 0.46094 0.0
C9 C 0.10388 0.32563 0.43498 0.0
O10 O 0.09697 0.38089 0.46812 0.0
C11 C 0.06374 0.30201 0.47756 0.0
O12 O 0.08631 0.36015 0.48522 0.0
O13 O 0.0775 0.31305 0.48643 0.0
C14 C 0.93712 0.76049 0.67286 0.0
O15 O 0.94079 0.74579 0.67703 0.0
Cd16 Cd 0.96551 0.73444 0.66777 0.0
O17 O 0.94573 0.76921 0.66146 0.0
Cd18 Cd 0.9701 0.76465 0.64191 0.0
C19 C 0.95489 0.72121 0.61898 0.0
O20 O 0.98864 0.76086 0.67101 0.0
O21 O 1.00031 0.75865 0.64451 0.0
O22 O 0.97891 0.79734 0.64343 0.0
C23 C 1.00221 0.75971 0.66291 0.0
O24 O 0.95702 0.71656 0.63573 0.0
C25 C 0.97812 0.79695 0.62514 0.0
O26 O 0.95809 0.73777 0.617 0.0
O27 O 0.97296 0.78158 0.61457 0.0
C28 C 0.5554 0.85698 0.93546 0.0
O29 O 0.56694 0.86811 0.92934 0.0
Cd30 Cd 0.5979 0.869 0.93575 0.0
O31 O 0.56001 0.84581 0.94614 0.0
Cd32 Cd 0.5872 0.83693 0.96088 0.0
C33 C 0.60312 0.87997 0.98541 0.0
O34 O 0.59603 0.83702 0.9296 0.0
O35 O 0.61452 0.82807 0.94948 0.0
O36 O 0.56586 0.80896 0.95973 0.0
C37 C 0.60975 0.83055 0.93221 0.0
O38 O 0.60585 0.88502 0.96921 0.0
C39 C 0.5724 0.80545 0.97595 0.0
O40 O 0.59643 0.86359 0.98603 0.0
O41 O 0.58612 0.81643 0.98502 0.0
C42 C 0.44046 0.25314 0.17855 0.0
O43 O 0.44828 0.24063 0.18267 0.0
Cd44 Cd 0.47485 0.23535 0.17208 0.0
O45 O 0.4458 0.2631 0.16622 0.0
Cd46 Cd 0.47012 0.26455 0.14525 0.0
C47 C 0.46309 0.22073 0.1234 0.0
O48 O 0.49161 0.26524 0.17347 0.0
O49 O 0.50195 0.26437 0.14617 0.0
O50 O 0.47306 0.29715 0.14666 0.0
C51 C 0.50494 0.26645 0.16462 0.0
O52 O 0.46778 0.21709 0.14019 0.0
C53 C 0.47178 0.29689 0.12836 0.0
O54 O 0.46211 0.23676 0.12097 0.0
O55 O 0.46858 0.28147 0.1178 0.0
C56 C 0.98903 0.78944 0.24807 0.0
O57 O 0.99858 0.78175 0.25886 0.0
Cd58 Cd 0.02708 0.77636 0.2513 0.0
O59 O 0.99499 0.79543 0.2334 0.0
Cd60 Cd 0.02365 0.79697 0.2184 0.0
C61 C 0.01864 0.7514 0.20591 0.0
O62 O 0.04831 0.80274 0.24697 0.0
O63 O 0.0546 0.79358 0.21862 0.0
O64 O 0.02517 0.82834 0.21182 0.0
C65 C 0.06008 0.79937 0.23656 0.0
O66 O 0.02287 0.75139 0.22406 0.0
C67 C 0.02143 0.82409 0.19339 0.0
O68 O 0.01684 0.76603 0.19974 0.0
O69 O 0.01905 0.80741 0.18662 0.0
C70 C 0.49833 0.81757 0.35269 0.0
O71 O 0.50854 0.82777 0.34406 0.0
Cd72 Cd 0.54001 0.83741 0.35412 0.0
O73 O 0.50491 0.81093 0.36707 0.0
Cd74 Cd 0.53655 0.81392 0.38493 0.0
C75 C 0.53987 0.85926 0.39955 0.0
O76 O 0.55578 0.81314 0.35809 0.0
O77 O 0.56913 0.82194 0.38747 0.0
O78 O 0.53124 0.78187 0.39006 0.0
C79 C 0.57034 0.81733 0.36965 0.0
O80 O 0.54309 0.86095 0.38237 0.0
C81 C 0.53491 0.78535 0.40855 0.0
O82 O 0.53618 0.8436 0.4043 0.0
O83 O 0.53882 0.80194 0.41597 0.0
C84 C 0.48614 0.28662 0.7454 0.0
O85 O 0.49537 0.27808 0.75549 0.0
Cd86 Cd 0.52374 0.27247 0.7475 0.0
O87 O 0.49227 0.29326 0.73116 0.0
Cd88 Cd 0.52066 0.29477 0.71584 0.0
C89 C 0.51512 0.24921 0.70143 0.0
O90 O 0.54529 0.29908 0.74441 0.0
O91 O 0.55177 0.29297 0.71544 0.0
O92 O 0.52192 0.32635 0.71021 0.0
C93 C 0.55715 0.29711 0.7336 0.0
O94 O 0.5192 0.24837 0.71941 0.0
C95 C 0.51823 0.32246 0.69174 0.0
O96 O 0.51369 0.26426 0.69608 0.0
O97 O 0.51594 0.30588 0.68457 0.0
C98 C 0.99867 0.31987 0.85503 0.0
O99 O 0.00905 0.3309 0.84745 0.0
Cd100 Cd 0.04061 0.33991 0.85771 0.0
O101 O 1.005 0.31231 0.86876 0.0
Cd102 Cd 0.03625 0.31534 0.88726 0.0
C103 C 0.03996 0.36057 0.90326 0.0
O104 O 0.05582 0.31515 0.86079 0.0
O105 O 0.06894 0.3232 0.89034 0.0
O106 O 0.03126 0.28312 0.89163 0.0
C107 C 0.07028 0.31895 0.87248 0.0
O108 O 0.04437 0.36279 0.88664 0.0
C109 C 0.03416 0.28626 0.91017 0.0
O110 O 0.03517 0.34467 0.90705 0.0
O111 O 0.03751 0.30275 0.91796 0.0
C112 C 0.45521 0.11096 0.33436 0.0
O113 O 0.46355 0.10228 0.32313 0.0
Cd114 Cd 0.45416 0.09161 0.2892 0.0
O115 O 0.44164 0.11663 0.32738 0.0
Cd116 Cd 0.42546 0.11675 0.2934 0.0
C117 C 0.41106 0.07186 0.29221 0.0
O118 O 0.44986 0.11668 0.27382 0.0
O119 O 0.4238 0.10788 0.25764 0.0
O120 O 0.42317 0.14905 0.2995 0.0
C121 C 0.44033 0.1115 0.25734 0.0
O122 O 0.42641 0.07016 0.28856 0.0
C123 C 0.40658 0.14616 0.29392 0.0
O124 O 0.40726 0.08743 0.29555 0.0
O125 O 0.39883 0.12975 0.28879 0.0
C126 C 0.26683 0.09492 0.49006 0.0
O127 O 0.2532 0.08949 0.49777 0.0
Cd128 Cd 0.2272 0.10187 0.49928 0.0
O129 O 0.26788 0.10865 0.4813 0.0
Cd130 Cd 0.24862 0.13075 0.4752 0.0
C131 C 0.24824 0.14312 0.52406 0.0
O132 O 0.2203 0.10973 0.46784 0.0
O133 O 0.21886 0.13771 0.4711 0.0
O134 O 0.2576 0.13805 0.44404 0.0
C135 C 0.2107 0.12143 0.46759 0.0
O136 O 0.23704 0.12872 0.52425 0.0
C137 C 0.26278 0.15483 0.45057 0.0
O138 O 0.25478 0.14603 0.50866 0.0
O139 O 0.26206 0.15986 0.46845 0.0
C140 C 0.13746 0.04611 0.85218 0.0
O141 O 0.13034 0.05555 0.84118 0.0
Cd142 Cd 0.13614 0.05972 0.80896 0.0
O143 O 0.14984 0.03828 0.84654 0.0
Cd144 Cd 0.16697 0.03666 0.81487 0.0
C145 C 0.1789 0.08486 0.81484 0.0
O146 O 0.13929 0.03204 0.79061 0.0
O147 O 0.16338 0.03848 0.77877 0.0
O148 O 0.16797 1.00289 0.81345 0.0
C149 C 0.14662 0.03443 0.77562 0.0
O150 O 0.16222 0.08327 0.81082 0.0
C151 C 0.18455 1.00375 0.81443 0.0
O152 O 0.18518 0.07087 0.81843 0.0
O153 O 0.1935 0.01979 0.81615 0.0
C154 C 0.24284 0.94061 0.04659 0.0
O155 O 0.23227 0.94625 0.03468 0.0
Cd156 Cd 0.20184 0.93305 0.02503 0.0
O157 O 0.23756 0.92695 0.05471 0.0
Cd158 Cd 0.20953 0.90518 0.05615 0.0
C159 C 0.20715 0.89041 0.00639 0.0
O160 O 0.19532 0.93055 0.0571 0.0
O161 O 0.17719 0.90642 0.05914 0.0
O162 O 0.22392 0.90583 0.08956 0.0
C163 C 0.17991 0.92336 0.05928 0.0
O164 O 0.20276 0.9052 0.0034 0.0
C165 C 0.21979 0.88897 0.08973 0.0
O166 O 0.21056 0.88723 0.02376 0.0
O167 O 0.21058 0.87947 0.07434 0.0
C168 C 0.32374 0.50575 0.11052 0.0
O169 O 0.31422 0.51408 0.10046 0.0
Cd170 Cd 0.28256 0.50838 0.09377 0.0
O171 O 0.31669 0.49286 0.11875 0.0
Cd172 Cd 0.28633 0.477 0.12134 0.0
C173 C 0.27618 0.46441 0.07189 0.0
O174 O 0.27291 0.50315 0.12396 0.0
O175 O 0.2546 0.47782 0.11961 0.0
O176 O 0.29362 0.47049 0.15448 0.0
C177 C 0.25698 0.49488 0.12168 0.0
O178 O 0.27433 0.48038 0.07003 0.0
C179 C 0.28933 0.45345 0.14938 0.0
O180 O 0.28146 0.46056 0.08846 0.0
O181 O 0.28374 0.44765 0.13144 0.0
C182 C 0.86189 0.17423 0.05397 0.0
O183 O 0.85309 0.16794 0.0666 0.0
Cd184 Cd 0.82495 0.17285 0.07339 0.0
O185 O 0.85653 0.18579 0.04423 0.0
Cd186 Cd 0.83011 0.20174 0.04382 0.0
C187 C 0.83213 0.21752 0.09322 0.0
O188 O 0.80927 0.17328 0.0421 0.0
O189 O 0.79795 0.19703 0.04398 0.0
O190 O 0.82857 0.2025 0.00852 0.0
C191 C 0.79555 0.17999 0.04193 0.0
O192 O 0.82845 0.20103 0.09537 0.0
C193 C 0.8286 0.21922 0.00947 0.0
O194 O 0.83437 0.22183 0.07648 0.0
O195 O 0.8305 0.22821 0.02651 0.0
C196 C 0.09777 0.50329 0.32788 0.0
O197 O 0.08952 0.5101 0.31492 0.0
Cd198 Cd 0.09644 0.51319 0.28292 0.0
O199 O 0.11087 0.49605 0.32416 0.0
Cd200 Cd 0.12688 0.48975 0.29513 0.0
C201 C 0.14037 0.53489 0.29446 0.0
O202 O 0.1018 0.48504 0.26892 0.0
O203 O 0.12731 0.48833 0.25949 0.0
O204 O 0.13013 0.45849 0.29832 0.0
C205 C 0.11068 0.48602 0.25487 0.0
O206 O 0.12436 0.5351 0.28811 0.0
C207 C 0.14681 0.46239 0.30332 0.0
O208 O 0.14478 0.52049 0.29894 0.0
O209 O 0.15416 0.47887 0.30454 0.0
C210 C 0.82691 1.00448 0.61186 0.0
O211 O 0.81647 0.01256 0.60267 0.0
Cd212 Cd 0.78469 0.00562 0.59802 0.0
O213 O 0.82091 0.99113 0.62004 0.0
Cd214 Cd 0.79184 0.97348 0.62402 0.0
C215 C 0.7789 0.96222 0.57458 0.0
O216 O 0.77741 0.9987 0.62868 0.0
O217 O 0.76032 0.97281 0.62626 0.0
O218 O 0.80209 0.96633 0.65605 0.0
C219 C 0.76189 0.98979 0.62803 0.0
O220 O 0.77639 0.97813 0.57355 0.0
C221 C 0.7984 0.94934 0.65038 0.0
O222 O 0.78524 0.95809 0.59061 0.0
O223 O 0.79177 0.94387 0.63265 0.0
C224 C 0.92068 0.06641 0.32278 0.0
O225 O 0.92725 0.05663 0.3106 0.0
Cd226 Cd 0.9177 0.04627 0.27686 0.0
O227 O 0.90721 0.07304 0.31697 0.0
Cd228 Cd 0.88767 0.07253 0.28281 0.0
C229 C 0.87517 0.02409 0.2814 0.0
O230 O 0.9141 0.07327 0.26508 0.0
O231 O 0.89027 0.06991 0.24551 0.0
O232 O 0.88688 0.1062 0.29326 0.0
C233 C 0.90699 0.07163 0.24754 0.0
O234 O 0.89091 0.02422 0.27791 0.0
C235 C 0.87049 0.10563 0.28818 0.0
O236 O 0.8698 0.03918 0.28403 0.0
O237 O 0.86166 0.08988 0.28096 0.0
C238 C 0.3665 0.67702 0.55513 0.0
O239 O 0.35806 0.67038 0.56785 0.0
Cd240 Cd 0.32941 0.6735 0.57432 0.0
O241 O 0.36049 0.6882 0.5453 0.0
Cd242 Cd 0.33325 0.70292 0.54494 0.0
C243 C 0.33461 0.71778 0.59453 0.0
O244 O 0.31443 0.67335 0.54255 0.0
O245 O 0.30056 0.69522 0.54268 0.0
O246 O 0.33337 0.70545 0.5101 0.0
C247 C 0.29981 0.67839 0.54127 0.0
O248 O 0.33177 0.70124 0.59655 0.0
C249 C 0.33177 0.72181 0.51165 0.0
O250 O 0.33641 0.72238 0.57783 0.0
O251 O 0.33197 0.72983 0.52883 0.0
C252 C 0.42023 0.56666 0.82292 0.0
O253 O 0.42682 0.55684 0.81079 0.0
Cd254 Cd 0.41755 0.54661 0.77699 0.0
O255 O 0.40687 0.57341 0.81699 0.0
Cd256 Cd 0.38761 0.57296 0.78263 0.0
C257 C 0.37496 0.52445 0.78124 0.0
O258 O 0.41427 0.57369 0.76515 0.0
O259 O 0.3906 0.5704 0.74538 0.0
O260 O 0.38664 0.60659 0.79335 0.0
C261 C 0.40732 0.57209 0.74756 0.0
O262 O 0.39071 0.52454 0.77779 0.0
C263 C 0.37031 0.60606 0.78789 0.0
O264 O 0.36964 0.53958 0.78384 0.0
O265 O 0.3616 0.59034 0.78031 0.0
C266 C 0.59723 1.00106 0.82424 0.0
O267 O 0.58962 0.00844 0.81132 0.0
Cd268 Cd 0.59718 0.0122 0.77977 0.0
O269 O 0.6103 0.99365 0.82081 0.0
Cd270 Cd 0.62725 0.98816 0.79227 0.0
C271 C 0.64104 0.03366 0.79321 0.0
O272 O 0.60245 0.98401 0.76607 0.0
O273 O 0.62784 0.98721 0.75643 0.0
O274 O 0.6303 0.9567 0.79494 0.0
C275 C 0.61121 0.98502 0.75194 0.0
O276 O 0.62524 0.03397 0.78614 0.0
C277 C 0.64695 0.96048 0.80019 0.0
O278 O 0.64515 0.01911 0.79764 0.0
O279 O 0.65439 0.97698 0.80179 0.0
C280 C 0.77032 0.59009 0.98913 0.0
O281 O 0.75667 0.58429 0.9966 0.0
Cd282 Cd 0.73192 0.59808 1.00066 0.0
O283 O 0.77165 0.6046 0.98169 0.0
Cd284 Cd 0.75273 0.62751 0.97752 0.0
C285 C 0.75504 0.63846 0.02662 0.0
O286 O 0.72336 0.60814 0.97088 0.0
O287 O 0.72416 0.63645 0.97897 0.0
O288 O 0.75757 0.63418 0.94494 0.0
C289 C 0.71486 0.6207 0.97373 0.0
O290 O 0.74393 0.62389 0.02639 0.0
C291 C 0.76491 0.65062 0.95098 0.0
O292 O 0.76094 0.64232 0.01114 0.0
O293 O 0.76734 0.65583 0.96928 0.0
C294 C 0.95635 0.60837 0.83908 0.0
O295 O 0.96427 0.59919 0.82784 0.0
Cd296 Cd 0.9553 0.58941 0.79375 0.0
O297 O 0.94324 0.61476 0.83214 0.0
Cd298 Cd 0.92754 0.61549 0.79817 0.0
C299 C 0.9117 0.5705 0.79514 0.0
O300 O 0.95262 0.61559 0.77964 0.0
O301 O 0.92701 0.60801 0.76235 0.0
O302 O 0.92565 0.64782 0.80564 0.0
C303 C 0.94364 0.61131 0.7628 0.0
O304 O 0.92699 0.56838 0.79166 0.0
C305 C 0.90923 0.64533 0.79927 0.0
O306 O 0.90847 0.58627 0.79903 0.0
O307 O 0.90139 0.62912 0.79302 0.0
C308 C 0.74692 0.44029 0.54449 0.0
O309 O 0.73626 0.44594 0.53272 0.0
Cd310 Cd 0.70536 0.43396 0.52523 0.0
O311 O 0.74142 0.42737 0.55356 0.0
Cd312 Cd 0.71302 0.40705 0.55659 0.0
C313 C 0.70929 0.391 0.50693 0.0
O314 O 0.69916 0.43291 0.55779 0.0
O315 O 0.68089 0.40877 0.55965 0.0
O316 O 0.72761 0.40778 0.59003 0.0
C317 C 0.68374 0.42576 0.56008 0.0
O318 O 0.70473 0.40564 0.50366 0.0
C319 C 0.7235 0.39091 0.59019 0.0
O320 O 0.71325 0.38835 0.52441 0.0
O321 O 0.71414 0.38144 0.57486 0.0
C322 C 0.63829 0.54587 0.3523 0.0
O323 O 0.63114 0.55533 0.34137 0.0
Cd324 Cd 0.63675 0.55927 0.30906 0.0
O325 O 0.65057 0.53795 0.34653 0.0
Cd326 Cd 0.66735 0.53616 0.31465 0.0
C327 C 0.67951 0.58428 0.31451 0.0
O328 O 0.63946 0.53141 0.29066 0.0
O329 O 0.66337 0.53804 0.27854 0.0
O330 O 0.6683 0.50238 0.31336 0.0
C331 C 0.64661 0.53381 0.27556 0.0
O332 O 0.66284 0.58277 0.31058 0.0
C333 C 0.68485 0.5032 0.31409 0.0
O334 O 0.68573 0.57027 0.31811 0.0
O335 O 0.69382 0.5192 0.3156 0.0
Nd336 Nd 0.03489 0.06994 0.0538 0.0
Nd337 Nd 0.01225 0.03629 0.04793 0.0
C338 C 0.05533 0.10262 0.06109 0.0
C339 C 0.05495 0.11873 0.0512 0.0
C340 C 0.04333 0.13041 0.0554 0.0
C341 C 0.04184 0.14448 0.04466 0.0
C342 C 0.05187 0.14718 0.02941 0.0
C343 C 0.06387 0.13584 0.02562 0.0
C344 C 0.06545 0.12188 0.03642 0.0
C345 C 0.03436 0.05267 0.01586 0.0
C346 C 0.99539 0.06968 0.03486 0.0
C347 C 0.99216 1.00338 0.03988 0.0
C348 C 0.99417 0.98685 0.04817 0.0
C349 C 0.01108 0.98401 0.05477 0.0
C350 C 0.01307 0.96995 0.06526 0.0
C351 C 0.99819 0.95823 0.06921 0.0
C352 C 0.98125 0.96057 0.06185 0.0
C353 C 0.97927 0.97485 0.05157 0.0
C354 C 0.01269 0.05375 0.08582 0.0
C355 C 0.05155 0.03681 0.06754 0.0
O356 O 0.04238 0.09773 0.07083 0.0
O357 O 0.05955 0.08878 0.05102 0.0
O358 O 0.03132 0.06871 0.02039 0.0
O359 O 0.03529 0.04531 0.03114 0.0
O360 O 0.00979 0.0798 0.04514 0.0
O361 O 0.9938 0.05196 0.0314 0.0
O362 O 1.00393 0.00936 0.02915 0.0
O363 O 0.98879 0.01636 0.05206 0.0
O364 O 0.0156 0.03763 0.08143 0.0
O365 O 0.01181 0.06096 0.07045 0.0
O366 O 0.03743 0.02669 0.0568 0.0
O367 O 0.05303 0.0545 0.0711 0.0
H368 H 0.03504 0.12846 0.06667 0.0
H369 H 0.03241 0.15289 0.04792 0.0
H370 H 0.07202 0.13771 0.01422 0.0
H371 H 0.07465 0.11327 0.03288 0.0
H372 H 0.0228 0.99294 0.05228 0.0
H373 H 0.0263 0.96837 0.07048 0.0
H374 H 0.96953 0.95182 0.06474 0.0
H375 H 0.9661 0.97685 0.04679 0.0
Nd376 Nd 0.27757 0.82436 0.31091 0.0
Nd377 Nd 0.27724 0.784 0.28774 0.0
C378 C 0.27014 0.85541 0.32508 0.0
C379 C 0.27975 0.87414 0.32603 0.0
C380 C 0.27083 0.88713 0.31949 0.0
C381 C 0.28027 0.9042 0.31777 0.0
C382 C 0.29881 0.90853 0.3225 0.0
C383 C 0.30758 0.89571 0.3298 0.0
C384 C 0.29818 0.8787 0.33145 0.0
C385 C 0.31184 0.81967 0.30681 0.0
C386 C 0.27575 0.81722 0.26278 0.0
C387 C 0.28477 0.75274 0.27451 0.0
C388 C 0.27606 0.73463 0.27714 0.0
C389 C 0.27927 0.71903 0.26629 0.0
C390 C 0.27005 0.70196 0.26843 0.0
C391 C 0.25742 0.70035 0.28133 0.0
C392 C 0.25457 0.71607 0.29241 0.0
C393 C 0.26377 0.733 0.29031 0.0
C394 C 0.24285 0.78858 0.2915 0.0
C395 C 0.27894 0.79096 0.33583 0.0
O396 O 0.26358 0.84685 0.30749 0.0
O397 O 0.27758 0.84538 0.33604 0.0
O398 O 0.30816 0.83458 0.31491 0.0
O399 O 0.29744 0.80872 0.3007 0.0
O400 O 0.27295 0.82735 0.27858 0.0
O401 O 0.27993 0.80114 0.26304 0.0
O402 O 0.29335 0.76311 0.2905 0.0
O403 O 0.27499 0.76111 0.26381 0.0
O404 O 0.24681 0.77385 0.28332 0.0
O405 O 0.25717 0.79963 0.29799 0.0
O406 O 0.28139 0.7807 0.31996 0.0
O407 O 0.27496 0.80713 0.33558 0.0
H408 H 0.25664 0.88385 0.31505 0.0
H409 H 0.27313 0.91373 0.31199 0.0
H410 H 0.3218 0.89871 0.33392 0.0
H411 H 0.30546 0.86894 0.33644 0.0
H412 H 0.28868 0.72007 0.25602 0.0
H413 H 0.27245 0.69009 0.25964 0.0
H414 H 0.24517 0.71528 0.30271 0.0
H415 H 0.26114 0.7449 0.29886 0.0
Nd416 Nd 0.54105 0.06434 0.54538 0.0
Nd417 Nd 0.50564 0.0448 0.55405 0.0
C418 C 0.57011 0.07728 0.53154 0.0
C419 C 0.58662 0.07053 0.5322 0.0
C420 C 0.60257 0.0817 0.53031 0.0
C421 C 0.61855 0.07585 0.53387 0.0
C422 C 0.61872 0.05879 0.53942 0.0
C423 C 0.60255 0.0475 0.54061 0.0
C424 C 0.58671 0.05332 0.53708 0.0
C425 C 0.54311 0.05148 0.58057 0.0
C426 C 0.52727 0.02102 0.52711 0.0
C427 C 0.47852 0.02865 0.56879 0.0
C428 C 0.45955 0.02782 0.56265 0.0
C429 C 0.44877 0.03279 0.57636 0.0
C430 C 0.43173 0.03531 0.57014 0.0
C431 C 0.42533 0.03304 0.55011 0.0
C432 C 0.43578 0.02711 0.5365 0.0
C433 C 0.4527 0.02454 0.54269 0.0
C434 C 0.49858 0.06169 0.52193 0.0
C435 C 0.51939 0.08735 0.57044 0.0
O436 O 0.55635 0.06663 0.52063 0.0
O437 O 0.56658 0.0837 0.5486 0.0
O438 O 0.55197 0.06678 0.57778 0.0
O439 O 0.53387 0.04311 0.56482 0.0
O440 O 0.53939 0.03588 0.52831 0.0
O441 O 0.51331 0.02074 0.53622 0.0
O442 O 0.4877 0.04468 0.57657 0.0
O443 O 0.48663 0.02003 0.55633 0.0
O444 O 0.48661 0.05205 0.52958 0.0
O445 O 0.5135 0.06201 0.53121 0.0
O446 O 0.51283 0.07165 0.5754 0.0
O447 O 0.52813 0.08798 0.55538 0.0
H448 H 0.60273 0.0951 0.52675 0.0
H449 H 0.63078 0.08481 0.53273 0.0
H450 H 0.60215 0.03448 0.54528 0.0
H451 H 0.57457 0.04465 0.53902 0.0
H452 H 0.45384 0.03555 0.5918 0.0
H453 H 0.42394 0.03995 0.58092 0.0
H454 H 0.43107 0.025 0.52099 0.0
H455 H 0.46069 0.02077 0.53172 0.0
Nd456 Nd 0.28444 0.30739 0.82173 0.0
Nd457 Nd 0.26921 0.30486 0.78457 0.0
C458 C 0.2924 0.30651 0.85951 0.0
C459 C 0.28598 0.31349 0.87738 0.0
C460 C 0.26792 0.31337 0.87761 0.0
C461 C 0.26223 0.32205 0.89386 0.0
C462 C 0.2745 0.3308 0.91022 0.0
C463 C 0.29248 0.33016 0.91029 0.0
C464 C 0.29817 0.32162 0.89395 0.0
C465 C 0.29434 0.34022 0.80812 0.0
C466 C 0.24412 0.31529 0.81454 0.0
C467 C 0.26154 0.30602 0.74685 0.0
C468 C 0.26496 0.29596 0.72885 0.0
C469 C 0.26184 0.30229 0.71115 0.0
C470 C 0.26447 0.29236 0.69382 0.0
C471 C 0.27019 0.27591 0.694 0.0
C472 C 0.27371 0.26989 0.71195 0.0
C473 C 0.27117 0.27987 0.72925 0.0
C474 C 0.25945 0.27173 0.79762 0.0
C475 C 0.30961 0.29707 0.79171 0.0
O476 O 0.28152 0.29359 0.84748 0.0
O477 O 0.30066 0.31867 0.85054 0.0
O478 O 0.30509 0.33168 0.81681 0.0
O479 O 0.27863 0.33103 0.80598 0.0
O480 O 0.25558 0.30946 0.82629 0.0
O481 O 0.24781 0.31784 0.79716 0.0
O482 O 0.27539 0.31616 0.75794 0.0
O483 O 0.25089 0.2969 0.75674 0.0
O484 O 0.24883 0.27999 0.78837 0.0
O485 O 0.27508 0.28116 0.80021 0.0
O486 O 0.29798 0.30259 0.77986 0.0
O487 O 0.30615 0.29488 0.80926 0.0
H488 H 0.25828 0.30695 0.86507 0.0
H489 H 0.24828 0.3222 0.89352 0.0
H490 H 0.30225 0.33695 0.92264 0.0
H491 H 0.31216 0.32187 0.89401 0.0
H492 H 0.2572 0.3148 0.71069 0.0
H493 H 0.2619 0.2975 0.68028 0.0
H494 H 0.2779 0.25717 0.71259 0.0
H495 H 0.27373 0.27488 0.74289 0.0
Nd496 Nd 0.02085 0.07278 0.56426 0.0
Nd497 Nd 0.03125 0.03687 0.54359 0.0
C498 C 1.00335 0.09624 0.57947 0.0
C499 C 0.99965 0.11294 0.57309 0.0
C500 C 1.00041 0.12829 0.58689 0.0
C501 C 0.99999 0.14499 0.58086 0.0
C502 C 0.99881 0.14656 0.56093 0.0
C503 C 0.99719 0.13094 0.54713 0.0
C504 C 0.99769 0.11432 0.55316 0.0
C505 C 0.04909 0.08135 0.54416 0.0
C506 C 0.00867 0.05886 0.5168 0.0
C507 C 0.04616 0.01 0.53097 0.0
C508 C 0.04696 0.9931 0.53855 0.0
C509 C 0.05051 0.97822 0.52676 0.0
C510 C 0.0488 0.96145 0.53317 0.0
C511 C 0.04343 0.95936 0.55145 0.0
C512 C 0.04045 0.97453 0.56341 0.0
C513 C 0.04216 0.99121 0.557 0.0
C514 C 0.99979 0.03257 0.5582 0.0
C515 C 0.04617 0.05208 0.59111 0.0
O516 O 0.99548 0.0811 0.56806 0.0
O517 O 0.02008 0.09673 0.58557 0.0
O518 O 0.04245 0.0935 0.55397 0.0
O519 O 0.04078 0.06611 0.54577 0.0
O520 O 1.00422 0.06643 0.53328 0.0
O521 O 0.02137 0.04934 0.51703 0.0
O522 O 0.05504 0.02479 0.5422 0.0
O523 O 0.03025 0.01143 0.52379 0.0
O524 O 1.00235 0.02243 0.54279 0.0
O525 O 0.01388 0.04325 0.566 0.0
O526 O 0.04616 0.04033 0.57522 0.0
O527 O 0.03701 0.06518 0.59083 0.0
H528 H 1.00208 0.1275 0.60234 0.0
H529 H 1.00112 0.15677 0.59181 0.0
H530 H 0.99657 0.1317 0.53171 0.0
H531 H 0.99739 0.10272 0.54224 0.0
H532 H 0.05407 0.97944 0.51239 0.0
H533 H 0.05135 0.95007 0.52369 0.0
H534 H 0.03597 0.97338 0.57738 0.0
H535 H 0.03906 1.00248 0.56617 0.0
Nd536 Nd 0.29264 0.815 0.81242 0.0
Nd537 Nd 0.25969 0.79369 0.79308 0.0
C538 C 0.32278 0.83858 0.82377 0.0
C539 C 0.34159 0.83878 0.82886 0.0
C540 C 0.34787 0.82265 0.82823 0.0
C541 C 0.36542 0.82297 0.83575 0.0
C542 C 0.37679 0.83943 0.84411 0.0
C543 C 0.37057 0.85559 0.84392 0.0
C544 C 0.35308 0.85525 0.83637 0.0
C545 C 0.26973 0.8062 0.8386 0.0
C546 C 0.29236 0.77178 0.80523 0.0
C547 C 0.2294 0.77031 0.78214 0.0
C548 C 0.21045 0.77024 0.77925 0.0
C549 C 0.20407 0.78597 0.78453 0.0
C550 C 0.18618 0.78619 0.77947 0.0
C551 C 0.17448 0.7707 0.76898 0.0
C552 C 0.18094 0.75482 0.76434 0.0
C553 C 0.19878 0.75462 0.76944 0.0
C554 C 0.28238 0.80287 0.7669 0.0
C555 C 0.26029 0.83691 0.79999 0.0
O556 O 0.31589 0.83341 0.80544 0.0
O557 O 0.31267 0.8319 0.83576 0.0
O558 O 0.28619 0.80466 0.84079 0.0
O559 O 0.26576 0.81128 0.8225 0.0
O560 O 0.30285 0.78796 0.80948 0.0
O561 O 0.27506 0.77073 0.80054 0.0
O562 O 0.23752 0.77395 0.80011 0.0
O563 O 0.23841 0.77834 0.77002 0.0
O564 O 0.26589 0.80427 0.76483 0.0
O565 O 0.28648 0.79755 0.78286 0.0
O566 O 0.24966 0.82081 0.79685 0.0
O567 O 0.27763 0.83781 0.80377 0.0
H568 H 0.33905 0.8098 0.82259 0.0
H569 H 0.36986 0.81032 0.83581 0.0
H570 H 0.37913 0.86847 0.84999 0.0
H571 H 0.34836 0.8678 0.83699 0.0
H572 H 0.213 0.79818 0.79205 0.0
H573 H 0.18157 0.79856 0.78344 0.0
H574 H 0.1724 0.74275 0.75599 0.0
H575 H 0.20358 0.74243 0.76512 0.0
Nd576 Nd 0.50526 0.03565 0.03646 0.0
Nd577 Nd 0.54269 0.04831 0.05897 0.0
C578 C 0.47156 0.02961 0.02123 0.0
C579 C 0.45443 0.02576 0.02841 0.0
C580 C 0.45022 0.03717 0.04396 0.0
C581 C 0.43412 0.03263 0.05099 0.0
C582 C 0.42217 0.01653 0.04275 0.0
C583 C 0.42639 0.00524 0.02718 0.0
C584 C 0.44233 0.00987 0.02002 0.0
C585 C 0.52169 0.00858 0.04626 0.0
C586 C 0.51064 0.04732 0.08438 0.0
C587 C 0.57629 0.0516 0.07349 0.0
C588 C 0.59322 0.05986 0.06819 0.0
C589 C 0.60906 0.05787 0.07861 0.0
C590 C 0.62525 0.06619 0.07396 0.0
C591 C 0.62579 0.07667 0.05886 0.0
C592 C 0.60982 0.07838 0.04827 0.0
C593 C 0.59365 0.07 0.05287 0.0
C594 C 0.5273 0.07601 0.04885 0.0
C595 C 0.53703 0.03756 0.01074 0.0
O596 O 0.48128 0.04581 0.02657 0.0
O597 O 0.48078 0.01694 0.02155 0.0
O598 O 0.5117 0.00762 0.02982 0.0
O599 O 0.52226 0.02321 0.05733 0.0
O600 O 0.50013 0.04533 0.06761 0.0
O601 O 0.52738 0.04587 0.08497 0.0
O602 O 0.56729 0.03748 0.06139 0.0
O603 O 0.56646 0.06284 0.07938 0.0
O604 O 0.53863 0.07754 0.0644 0.0
O605 O 0.52575 0.06086 0.03834 0.0
O606 O 0.54765 0.03932 0.02742 0.0
O607 O 0.5202 0.03851 0.01037 0.0
H608 H 0.45939 0.04946 0.05081 0.0
H609 H 0.43114 0.04153 0.06303 0.0
H610 H 0.41726 0.9929 0.02038 0.0
H611 H 0.44531 1.0009 0.00802 0.0
H612 H 0.60889 0.05005 0.09046 0.0
H613 H 0.63734 0.06478 0.0825 0.0
H614 H 0.60983 0.08619 0.03641 0.0
H615 H 0.58146 0.07155 0.04461 0.0
Nd616 Nd 0.26665 0.29701 0.28332 0.0
Nd617 Nd 0.28996 0.31417 0.32135 0.0
C618 C 0.24214 0.28967 0.25252 0.0
C619 C 0.22286 0.28664 0.2534 0.0
C620 C 0.21375 0.30074 0.25143 0.0
C621 C 0.19812 0.30098 0.25948 0.0
C622 C 0.19143 0.28719 0.26977 0.0
C623 C 0.19918 0.27191 0.26919 0.0
C624 C 0.21466 0.27158 0.26098 0.0
C625 C 0.26311 0.27684 0.31274 0.0
C626 C 0.25369 0.32771 0.31414 0.0
C627 C 0.31293 0.31966 0.35352 0.0
C628 C 0.33114 0.31622 0.3555 0.0
C629 C 0.33399 0.29857 0.35087 0.0
C630 C 0.34999 0.29573 0.34511 0.0
C631 C 0.36333 0.31049 0.34375 0.0
C632 C 0.36151 0.32794 0.35146 0.0
C633 C 0.34552 0.33078 0.35733 0.0
C634 C 0.29325 0.33444 0.29206 0.0
C635 C 0.30365 0.28501 0.28945 0.0
O636 O 0.25094 0.3061 0.25926 0.0
O637 O 0.25033 0.27749 0.25862 0.0
O638 O 0.2621 0.27009 0.29458 0.0
O639 O 0.26456 0.29375 0.31486 0.0
O640 O 0.25242 0.31887 0.29627 0.0
O641 O 0.2661 0.32634 0.32816 0.0
O642 O 0.30003 0.30549 0.34889 0.0
O643 O 0.31047 0.33247 0.34344 0.0
O644 O 0.29396 0.34115 0.31025 0.0
O645 O 0.29204 0.31753 0.28977 0.0
O646 O 0.30468 0.29294 0.30769 0.0
O647 O 0.29125 0.2868 0.27565 0.0
H648 H 0.21958 0.31241 0.24539 0.0
H649 H 0.19214 0.3127 0.25907 0.0
H650 H 0.19444 0.26095 0.27682 0.0
H651 H 0.2211 0.26029 0.26247 0.0
H652 H 0.32332 0.28698 0.34965 0.0
H653 H 0.35095 0.28207 0.33951 0.0
H654 H 0.37179 0.33955 0.3512 0.0
H655 H 0.34381 0.34451 0.36126 0.0
Nd656 Nd 0.5208 0.57136 0.06475 0.0
Nd657 Nd 0.52883 0.53741 0.04521 0.0
C658 C 0.50623 0.59853 0.07757 0.0
C659 C 0.50366 0.61499 0.06987 0.0
C660 C 0.50355 0.63068 0.08275 0.0
C661 C 0.50406 0.64712 0.07587 0.0
C662 C 0.50471 0.64809 0.056 0.0
C663 C 0.50396 0.63212 0.04301 0.0
C664 C 0.50352 0.61573 0.0499 0.0
C665 C 0.55227 0.57656 0.04998 0.0
C666 C 0.50704 0.55853 0.01727 0.0
C667 C 0.54193 0.50912 0.03267 0.0
C668 C 0.54225 0.49237 0.0407 0.0
C669 C 0.54547 0.47711 0.02929 0.0
C670 C 0.54322 0.46051 0.0361 0.0
C671 C 0.5376 0.45897 0.05436 0.0
C672 C 0.535 0.47454 0.06596 0.0
C673 C 0.53729 0.49106 0.05919 0.0
C674 C 0.49743 0.53277 0.0602 0.0
C675 C 0.5438 0.55084 0.09242 0.0
O676 O 0.49705 0.58324 0.06768 0.0
O677 O 0.52272 0.59786 0.083 0.0
O678 O 0.54965 0.58571 0.06597 0.0
O679 O 0.53823 0.56612 0.04155 0.0
O680 O 0.50382 0.567 0.0339 0.0
O681 O 0.51903 0.54826 0.01754 0.0
O682 O 0.55164 0.52383 0.04322 0.0
O683 O 0.52611 0.5112 0.02612 0.0
O684 O 0.49954 0.52405 0.04374 0.0
O685 O 0.51172 0.5427 0.0686 0.0
O686 O 0.54608 0.5416 0.07577 0.0
O687 O 0.53235 0.56169 0.09248 0.0
H688 H 0.50379 0.63035 0.09823 0.0
H689 H 0.50446 0.65917 0.08619 0.0
H690 H 0.5047 0.63244 0.02768 0.0
H691 H 0.50387 0.60381 0.03975 0.0
H692 H 0.54918 0.47789 0.01492 0.0
H693 H 0.54552 0.44882 0.0269 0.0
H694 H 0.53037 0.47385 0.07992 0.0
H695 H 0.53448 0.50268 0.06807 0.0
Nd696 Nd 0.79368 0.31484 0.31102 0.0
Nd697 Nd 0.76016 0.2931 0.29411 0.0
C698 C 0.82423 0.33801 0.31838 0.0
C699 C 0.84278 0.33691 0.31831 0.0
C700 C 0.84746 0.32029 0.31261 0.0
C701 C 0.86517 0.31877 0.3154 0.0
C702 C 0.87837 0.33386 0.32394 0.0
C703 C 0.87363 0.35068 0.32861 0.0
C704 C 0.85592 0.35216 0.32585 0.0
C705 C 0.77238 0.30755 0.33917 0.0
C706 C 0.79318 0.27158 0.30524 0.0
C707 C 0.72975 0.26969 0.28543 0.0
C708 C 0.71101 0.27023 0.28144 0.0
C709 C 0.69941 0.2551 0.27046 0.0
C710 C 0.68216 0.25623 0.26354 0.0
C711 C 0.67632 0.27252 0.26754 0.0
C712 C 0.6877 0.2874 0.27946 0.0
C713 C 0.70503 0.2863 0.28628 0.0
C714 C 0.78121 0.30136 0.26619 0.0
C715 C 0.76062 0.33639 0.29973 0.0
O716 O 0.81424 0.33455 0.30138 0.0
O717 O 0.81671 0.33035 0.33176 0.0
O718 O 0.78898 0.30655 0.34085 0.0
O719 O 0.76759 0.31177 0.32282 0.0
O720 O 0.80368 0.2877 0.30771 0.0
O721 O 0.77579 0.27056 0.3022 0.0
O722 O 0.73765 0.27546 0.30334 0.0
O723 O 0.73917 0.27539 0.27238 0.0
O724 O 0.76475 0.30284 0.265 0.0
O725 O 0.78613 0.29642 0.28213 0.0
O726 O 0.75008 0.32024 0.29677 0.0
O727 O 0.77799 0.33747 0.30344 0.0
H728 H 0.83738 0.30838 0.30674 0.0
H729 H 0.86848 0.3057 0.31151 0.0
H730 H 0.88346 0.36249 0.33547 0.0
H731 H 0.85244 0.36504 0.3304 0.0
H732 H 0.70391 0.24265 0.26654 0.0
H733 H 0.67354 0.24453 0.25455 0.0
H734 H 0.6835 0.30012 0.28262 0.0
H735 H 0.71396 0.29816 0.29458 0.0
Nd736 Nd 0.01089 0.54466 0.54218 0.0
Nd737 Nd 0.04874 0.55974 0.56343 0.0
C738 C 0.9787 0.538 0.52251 0.0
C739 C 0.96112 0.53029 0.52666 0.0
C740 C 0.95892 0.52584 0.54517 0.0
C741 C 0.94209 0.51886 0.54926 0.0
C742 C 0.92721 0.51623 0.53487 0.0
C743 C 0.92956 0.52064 0.51629 0.0
C744 C 0.94641 0.52762 0.51223 0.0
C745 C 0.02678 0.51988 0.55893 0.0
C746 C 0.01693 0.55539 0.58941 0.0
C747 C 0.08283 0.56846 0.57701 0.0
C748 C 0.09951 0.56776 0.56933 0.0
C749 C 0.11504 0.56891 0.58222 0.0
C750 C 0.13144 0.57159 0.57553 0.0
C751 C 0.13247 0.57326 0.55588 0.0
C752 C 0.11678 0.57085 0.54277 0.0
C753 C 0.10043 0.56811 0.54944 0.0
C754 C 0.02815 0.58488 0.55885 0.0
C755 C 0.04285 0.5476 0.51556 0.0
O756 O 0.98619 0.55365 0.533 0.0
O757 O 0.98955 0.52681 0.52071 0.0
O758 O 0.00997 0.51977 0.55777 0.0
O759 O 0.03417 0.53191 0.55021 0.0
O760 O 0.00625 0.55492 0.5731 0.0
O761 O 0.03367 0.55398 0.58922 0.0
O762 O 0.0729 0.55311 0.57883 0.0
O763 O 0.0738 0.57962 0.56994 0.0
O764 O 0.03911 0.58531 0.57444 0.0
O765 O 0.02878 0.57179 0.54605 0.0
O766 O 0.05422 0.55301 0.53181 0.0
O767 O 0.02559 0.54459 0.51563 0.0
H768 H 0.97021 0.52792 0.55649 0.0
H769 H 0.94069 0.5158 0.56376 0.0
H770 H 0.91839 0.51854 0.50484 0.0
H771 H 0.94794 0.53098 0.49786 0.0
H772 H 0.11455 0.56871 0.59762 0.0
H773 H 0.14334 0.57353 0.58597 0.0
H774 H 0.11721 0.57191 0.52752 0.0
H775 H 0.0886 0.56729 0.53927 0.0
Nd776 Nd 0.7852 0.8069 0.32134 0.0
Nd777 Nd 0.77059 0.80386 0.28396 0.0
C778 C 0.79257 0.80637 0.35927 0.0
C779 C 0.78622 0.81378 0.37701 0.0
C780 C 0.76828 0.81436 0.37704 0.0
C781 C 0.7627 0.82321 0.39327 0.0
C782 C 0.77498 0.83145 0.40982 0.0
C783 C 0.79283 0.83019 0.41004 0.0
C784 C 0.79841 0.82147 0.39371 0.0
C785 C 0.79504 0.83965 0.30758 0.0
C786 C 0.74473 0.81437 0.31294 0.0
C787 C 0.76388 0.80382 0.24589 0.0
C788 C 0.76878 0.79333 0.22903 0.0
C789 C 0.77987 0.78106 0.23187 0.0
C790 C 0.78344 0.76993 0.21595 0.0
C791 C 0.77588 0.77083 0.19693 0.0
C792 C 0.76528 0.78364 0.1941 0.0
C793 C 0.76173 0.7948 0.21008 0.0
C794 C 0.76079 0.77092 0.29738 0.0
C795 C 0.8112 0.79692 0.29225 0.0
O796 O 0.78148 0.79358 0.34728 0.0
O797 O 0.80124 0.8182 0.35024 0.0
O798 O 0.80576 0.83136 0.31669 0.0
O799 O 0.77939 0.83028 0.30512 0.0
O800 O 0.75617 0.80896 0.32513 0.0
O801 O 0.7486 0.81658 0.29553 0.0
O802 O 0.7769 0.81498 0.25729 0.0
O803 O 0.75315 0.7946 0.25561 0.0
O804 O 0.75021 0.77909 0.28794 0.0
O805 O 0.77641 0.78043 0.30011 0.0
O806 O 0.79971 0.80238 0.28022 0.0
O807 O 0.80737 0.79456 0.30963 0.0
H808 H 0.75864 0.80828 0.36438 0.0
H809 H 0.74885 0.82383 0.3928 0.0
H810 H 0.80261 0.83658 0.42253 0.0
H811 H 0.81232 0.82118 0.39393 0.0
H812 H 0.78541 0.77975 0.24645 0.0
H813 H 0.7918 0.76033 0.21854 0.0
H814 H 0.75912 0.78449 0.17962 0.0
H815 H 0.75311 0.80421 0.2077 0.0
Nd816 Nd 0.77684 0.32221 0.80893 0.0
Nd817 Nd 0.77534 0.28496 0.78599 0.0
C818 C 0.7697 0.35351 0.82292 0.0
C819 C 0.77906 0.37226 0.82331 0.0
C820 C 0.76975 0.38504 0.81698 0.0
C821 C 0.77882 0.40218 0.81498 0.0
C822 C 0.79739 0.40679 0.8192 0.0
C823 C 0.80658 0.39415 0.82621 0.0
C824 C 0.79754 0.37708 0.82819 0.0
C825 C 0.81166 0.31898 0.80648 0.0
C826 C 0.77878 0.31779 0.76186 0.0
C827 C 0.77809 0.25169 0.77198 0.0
C828 C 0.7728 0.23342 0.77682 0.0
C829 C 0.77572 0.2299 0.79602 0.0
C830 C 0.76899 0.21285 0.80046 0.0
C831 C 0.7592 0.199 0.78577 0.0
C832 C 0.75679 0.2025 0.76647 0.0
C833 C 0.76354 0.2195 0.76207 0.0
C834 C 0.7432 0.29571 0.78406 0.0
C835 C 0.77597 0.28911 0.83388 0.0
O836 O 0.7627 0.34463 0.80559 0.0
O837 O 0.77758 0.34375 0.83381 0.0
O838 O 0.80706 0.33331 0.81459 0.0
O839 O 0.79796 0.30727 0.79934 0.0
O840 O 0.7735 0.32661 0.77692 0.0
O841 O 0.78363 0.30218 0.76282 0.0
O842 O 0.79072 0.26308 0.78384 0.0
O843 O 0.7651 0.25918 0.7659 0.0
O844 O 0.74907 0.28751 0.76952 0.0
O845 O 0.7542 0.29788 0.79958 0.0
O846 O 0.77598 0.27849 0.81731 0.0
O847 O 0.77499 0.30625 0.83444 0.0
H848 H 0.75551 0.38156 0.81299 0.0
H849 H 0.77135 0.41155 0.80941 0.0
H850 H 0.82085 0.39737 0.82993 0.0
H851 H 0.80511 0.36751 0.83305 0.0
H852 H 0.78289 0.2404 0.80766 0.0
H853 H 0.7713 0.21057 0.81543 0.0
H854 H 0.7491 0.1923 0.75482 0.0
H855 H 0.76106 0.22195 0.74717 0.0
Nd856 Nd 0.76945 0.79521 0.78613 0.0
Nd857 Nd 0.79101 0.81428 0.82388 0.0
C858 C 0.74609 0.78563 0.75426 0.0
C859 C 0.72664 0.78271 0.75363 0.0
C860 C 0.71761 0.79628 0.74896 0.0
C861 C 0.7013 0.79712 0.75526 0.0
C862 C 0.69386 0.78451 0.76652 0.0
C863 C 0.70169 0.76952 0.76861 0.0
C864 C 0.71784 0.76858 0.76213 0.0
C865 C 0.76593 0.77626 0.81657 0.0
C866 C 0.75412 0.82577 0.81432 0.0
C867 C 0.81389 0.82312 0.85615 0.0
C868 C 0.83336 0.82588 0.85679 0.0
C869 C 0.84162 0.81093 0.85642 0.0
C870 C 0.85686 0.81086 0.84759 0.0
C871 C 0.86383 0.82569 0.83895 0.0
C872 C 0.85765 0.84179 0.84286 0.0
C873 C 0.84258 0.84194 0.8519 0.0
C874 C 0.7957 0.83286 0.79327 0.0
C875 C 0.8069 0.78475 0.7947 0.0
O876 O 0.75464 0.8023 0.76004 0.0
O877 O 0.7539 0.77412 0.76238 0.0
O878 O 0.76636 0.76906 0.79887 0.0
O879 O 0.76629 0.79297 0.81776 0.0
O880 O 0.75417 0.81711 0.79666 0.0
O881 O 0.76576 0.8245 0.82913 0.0
O882 O 0.8051 0.80657 0.85003 0.0
O883 O 0.80637 0.8349 0.84819 0.0
O884 O 0.79551 0.84041 0.81092 0.0
O885 O 0.79462 0.81608 0.79225 0.0
O886 O 0.80702 0.79317 0.81256 0.0
O887 O 0.79488 0.78585 0.78016 0.0
H888 H 0.72391 0.80719 0.74212 0.0
H889 H 0.69532 0.80851 0.75276 0.0
H890 H 0.69642 0.75944 0.77706 0.0
H891 H 0.72421 0.75769 0.76565 0.0
H892 H 0.83514 0.79849 0.86059 0.0
H893 H 0.86159 0.79837 0.84521 0.0
H894 H 0.86323 0.85365 0.83699 0.0
H895 H 0.83696 0.85395 0.85265 0.0
Nd896 Nd 0.53681 0.57071 0.55479 0.0
Nd897 Nd 0.51417 0.53712 0.54884 0.0
C898 C 0.55716 0.60341 0.56192 0.0
C899 C 0.55708 0.61901 0.55113 0.0
C900 C 0.55 0.63381 0.55843 0.0
C901 C 0.54833 0.64767 0.54743 0.0
C902 C 0.55372 0.64709 0.52884 0.0
C903 C 0.56129 0.63253 0.52183 0.0
C904 C 0.56295 0.61871 0.5328 0.0
C905 C 0.53632 0.55354 0.51679 0.0
C906 C 0.49751 0.57046 0.53538 0.0
C907 C 0.49381 0.50433 0.54054 0.0
C908 C 0.49541 0.48774 0.54885 0.0
C909 C 0.5121 0.48495 0.5563 0.0
C910 C 0.51362 0.47074 0.5667 0.0
C911 C 0.49846 0.45885 0.56973 0.0
C912 C 0.48175 0.46118 0.56155 0.0
C913 C 0.48024 0.47559 0.55134 0.0
C914 C 0.51444 0.55447 0.58676 0.0
C915 C 0.55351 0.53757 0.56842 0.0
O916 O 0.54362 0.59889 0.57094 0.0
O917 O 0.56194 0.5893 0.55307 0.0
O918 O 0.53343 0.56962 0.52139 0.0
O919 O 0.53719 0.54613 0.53202 0.0
O920 O 0.51182 0.58058 0.54579 0.0
O921 O 0.49588 0.55275 0.53204 0.0
O922 O 0.5059 0.51017 0.5301 0.0
O923 O 0.49043 0.51739 0.5526 0.0
O924 O 0.51735 0.53835 0.58233 0.0
O925 O 0.51368 0.56175 0.57142 0.0
O926 O 0.53937 0.52746 0.55766 0.0
O927 O 0.55492 0.55525 0.57212 0.0
H928 H 0.54534 0.63447 0.57248 0.0
H929 H 0.54233 0.65857 0.55328 0.0
H930 H 0.56592 0.63176 0.50777 0.0
H931 H 0.56855 0.6076 0.52665 0.0
H932 H 0.52401 0.49402 0.55451 0.0
H933 H 0.52669 0.46917 0.57256 0.0
H934 H 0.46983 0.45228 0.56372 0.0
H935 H 0.46722 0.47756 0.54588 0.0
Nd936 Nd 0.04314 0.56587 0.04597 0.0
Nd937 Nd 0.00688 0.54552 0.06048 0.0
C938 C 0.06772 0.58166 0.02765 0.0
C939 C 0.08514 0.57713 0.0261 0.0
C940 C 0.10018 0.59072 0.02712 0.0
C941 C 0.11708 0.58662 0.02957 0.0
C942 C 0.11912 0.56887 0.03115 0.0
C943 C 0.1039 0.55521 0.02915 0.0
C944 C 0.08714 0.5593 0.02669 0.0
C945 C 0.05081 0.54919 0.07819 0.0
C946 C 0.02747 0.52251 0.0304 0.0
C947 C 0.98101 0.5288 0.07643 0.0
C948 C 0.96195 0.52583 0.06922 0.0
C949 C 0.95009 0.53016 0.08191 0.0
C950 C 0.93294 0.53152 0.07443 0.0
C951 C 0.92753 0.52875 0.05415 0.0
C952 C 0.93906 0.52329 0.04159 0.0
C953 C 0.95608 0.52184 0.04903 0.0
C954 C 0.99947 0.56187 0.02787 0.0
C955 C 0.02396 0.58788 0.07752 0.0
O956 O 0.05408 0.56939 0.01857 0.0
O957 O 0.06561 0.58821 0.04537 0.0
O958 O 0.06276 0.55788 0.06952 0.0
O959 O 0.03593 0.54974 0.06943 0.0
O960 O 0.03723 0.53775 0.02731 0.0
O961 O 0.01659 0.52193 0.04371 0.0
O962 O 0.98861 0.54575 0.08256 0.0
O963 O 0.9904 0.5201 0.06553 0.0
O964 O 0.98739 0.553 0.03616 0.0
O965 O 0.01414 0.56146 0.03711 0.0
O966 O 0.01616 0.57223 0.08183 0.0
O967 O 0.03246 0.58895 0.06219 0.0
H968 H 0.09889 0.60459 0.02692 0.0
H969 H 0.12853 0.59742 0.0309 0.0
H970 H 0.10487 0.54149 0.03071 0.0
H971 H 0.07575 0.54862 0.02635 0.0
H972 H 0.95442 0.53352 0.0975 0.0
H973 H 0.92432 0.53583 0.08443 0.0
H974 H 0.93514 0.52084 0.02591 0.0
H975 H 0.96496 0.51863 0.03884 0.0
C976 C 0.03332 0.25364 0.91336 0.0
C977 C 0.03437 0.27156 0.92216 0.0
C978 C 0.03456 0.24002 0.92478 0.0
C979 C 0.03008 0.22847 0.97411 0.0
H980 H 0.05994 0.19457 0.96064 0.0
C981 C 0.04795 0.17873 0.02561 0.0
C982 C 0.04955 0.16142 0.01714 0.0
C983 C 0.0458 0.19204 0.01401 0.0
C984 C 0.05133 0.20372 0.96451 0.0
H985 H 0.03722 0.28909 0.94993 0.0
H986 H 0.03926 0.26536 0.96978 0.0
H987 H 0.05623 0.21757 0.94035 0.0
H988 H 0.04964 0.14446 0.98969 0.0
H989 H 0.04561 0.16744 0.96949 0.0
H990 H 0.02501 0.21455 0.99815 0.0
C991 C 0.03743 0.2618 0.95405 0.0
C992 C 0.04922 0.21696 0.95284 0.0
C993 C 0.03634 0.27544 0.94264 0.0
C994 C 0.04878 0.15773 0.99676 0.0
C995 C 0.04649 0.17098 0.98515 0.0
C996 C 0.03208 0.21513 0.98572 0.0
C997 C 0.03673 0.24393 0.94528 0.0
C998 C 0.03862 0.22956 0.95751 0.0
C999 C 0.04503 0.18837 0.99358 0.0
C1000 C 0.04278 0.20257 0.98113 0.0
H1001 H 0.03182 0.25016 0.89763 0.0
H1002 H 0.03377 0.22637 0.91752 0.0
H1003 H 0.02163 0.23779 0.97802 0.0
H1004 H 0.04867 0.1821 0.04127 0.0
H1005 H 0.04502 0.20531 0.02114 0.0
C1006 C 0.08928 0.79002 0.23465 0.0
C1007 C 0.07892 0.80024 0.24489 0.0
C1008 C 0.10684 0.79022 0.24224 0.0
C1009 C 0.14693 0.81608 0.27158 0.0
H1010 H 0.15823 0.76993 0.27933 0.0
C1011 C 0.21975 0.80797 0.29741 0.0
C1012 C 0.22433 0.79175 0.28966 0.0
C1013 C 0.202 0.81022 0.29435 0.0
C1014 C 0.15553 0.78295 0.27699 0.0
H1015 H 0.07926 0.81906 0.2711 0.0
H1016 H 0.11037 0.81991 0.2841 0.0
H1017 H 0.12779 0.77185 0.26882 0.0
H1018 H 0.21379 0.76536 0.27239 0.0
H1019 H 0.18374 0.76939 0.26653 0.0
H1020 H 0.17482 0.82707 0.27869 0.0
C1021 C 0.10463 0.81154 0.27025 0.0
C1022 C 0.13793 0.78403 0.27114 0.0
C1023 C 0.08681 0.81099 0.26285 0.0
C1024 C 0.21083 0.77799 0.27882 0.0
C1025 C 0.19335 0.78027 0.27559 0.0
C1026 C 0.16471 0.81495 0.27707 0.0
C1027 C 0.11478 0.80099 0.2601 0.0
C1028 C 0.1334 0.80052 0.26809 0.0
C1029 C 0.18846 0.79633 0.28337 0.0
C1030 C 0.16938 0.79826 0.27948 0.0
H1031 H 0.0837 0.78154 0.22082 0.0
H1032 H 0.11429 0.78197 0.23406 0.0
H1033 H 0.14385 0.82899 0.26929 0.0
H1034 H 0.22983 0.81889 0.30575 0.0
H1035 H 0.1989 0.82279 0.30071 0.0
C1036 C 0.54049 0.89247 0.40738 0.0
C1037 C 0.53986 0.87566 0.41372 0.0
C1038 C 0.53992 0.90788 0.4204 0.0
C1039 C 0.54731 0.94068 0.45187 0.0
H1040 H 0.51825 0.93662 0.49312 0.0
C1041 C 0.5457 1.00271 0.50875 0.0
C1042 C 0.52948 1.0041 0.51525 0.0
C1043 C 0.54768 0.98684 0.49735 0.0
C1044 C 0.52631 0.93808 0.48158 0.0
H1045 H 0.53839 0.86203 0.43895 0.0
H1046 H 0.53791 0.88901 0.46183 0.0
H1047 H 0.52008 0.90965 0.47123 0.0
H1048 H 0.50257 0.98981 0.51474 0.0
H1049 H 0.50581 0.96246 0.49443 0.0
H1050 H 0.5529 0.96917 0.46161 0.0
C1051 C 0.53843 0.89022 0.44664 0.0
C1052 C 0.52759 0.9225 0.46916 0.0
C1053 C 0.53883 0.87472 0.43353 0.0
C1054 C 0.5153 0.9892 0.51011 0.0
C1055 C 0.51721 0.97341 0.49853 0.0
C1056 C 0.54591 0.95626 0.46416 0.0
C1057 C 0.53888 0.90703 0.44025 0.0
C1058 C 0.53802 0.92357 0.45402 0.0
C1059 C 0.53342 0.97198 0.49193 0.0
C1060 C 0.53532 0.95523 0.47916 0.0
H1061 H 0.54113 0.89371 0.39221 0.0
H1062 H 0.53993 0.92041 0.41475 0.0
H1063 H 0.55574 0.94211 0.44065 0.0
H1064 H 0.55696 0.01386 0.51256 0.0
H1065 H 0.56047 0.98622 0.49291 0.0
C1066 C 0.46188 0.28203 0.76647 0.0
C1067 C 0.46803 0.28826 0.74992 0.0
C1068 C 0.44473 0.28288 0.77048 0.0
C1069 C 0.40613 0.3046 0.75787 0.0
H1070 H 0.38095 0.26634 0.78146 0.0
C1071 C 0.33198 0.29938 0.7681 0.0
C1072 C 0.32707 0.29466 0.7858 0.0
C1073 C 0.34884 0.29828 0.7632 0.0
C1074 C 0.38781 0.27726 0.77504 0.0
H1075 H 0.46065 0.30039 0.72466 0.0
H1076 H 0.43072 0.30161 0.73143 0.0
H1077 H 0.41061 0.26527 0.77399 0.0
H1078 H 0.33622 0.28479 0.81206 0.0
H1079 H 0.36543 0.28279 0.80352 0.0
H1080 H 0.38318 0.31647 0.7588 0.0
C1081 C 0.43927 0.2963 0.74156 0.0
C1082 C 0.40494 0.27668 0.77077 0.0
C1083 C 0.45649 0.29553 0.73759 0.0
C1084 C 0.33942 0.28849 0.79827 0.0
C1085 C 0.35623 0.28727 0.79332 0.0
C1086 C 0.38894 0.30513 0.76205 0.0
C1087 C 0.43303 0.2899 0.75803 0.0
C1088 C 0.41449 0.2904 0.76222 0.0
C1089 C 0.3613 0.2923 0.77578 0.0
C1090 C 0.37952 0.29151 0.77081 0.0
H1091 H 0.47033 0.27643 0.77641 0.0
H1092 H 0.44073 0.27814 0.78352 0.0
H1093 H 0.41299 0.31559 0.75157 0.0
H1094 H 0.32288 0.3042 0.7581 0.0
H1095 H 0.35209 0.30205 0.74946 0.0
C1096 C 0.98226 0.81283 0.59635 0.0
C1097 C 0.98405 0.81339 0.61669 0.0
C1098 C 0.9891 0.82804 0.5884 0.0
C1099 C 0.02318 0.86954 0.59987 0.0
H1100 H 0.99592 0.88559 0.55797 0.0
C1101 C 0.04362 0.93938 0.57723 0.0
C1102 C 0.03961 0.94129 0.55757 0.0
C1103 C 0.03799 0.92293 0.58348 0.0
C1104 C 1.00386 0.88112 0.56942 0.0
H1105 H 0.9941 0.83042 0.64462 0.0
H1106 H 0.00606 0.85693 0.63072 0.0
H1107 H 0.98318 0.85871 0.57078 0.0
H1108 H 0.02715 0.92709 0.5289 0.0
H1109 H 0.01789 0.89822 0.53968 0.0
H1110 H 0.04391 0.89181 0.59851 0.0
C1111 C 0.99948 0.8447 0.62095 0.0
C1112 C 0.9965 0.86576 0.57681 0.0
C1113 C 0.99251 0.82956 0.6289 0.0
C1114 C 0.03058 0.92609 0.54413 0.0
C1115 C 0.02504 0.90959 0.55037 0.0
C1116 C 0.0306 0.8848 0.59239 0.0
C1117 C 0.99801 0.84404 0.60062 0.0
C1118 C 0.00601 0.85995 0.59227 0.0
C1119 C 0.02832 0.90791 0.5702 0.0
C1120 C 0.02096 0.89092 0.57722 0.0
H1121 H 0.97582 0.80056 0.58657 0.0
H1122 H 0.98785 0.82714 0.57268 0.0
H1123 H 0.03094 0.86518 0.61157 0.0
H1124 H 0.05077 0.95075 0.58792 0.0
H1125 H 0.04066 0.92222 0.59888 0.0
C1126 C 0.53131 0.86694 0.91537 0.0
C1127 C 0.53645 0.85581 0.92854 0.0
C1128 C 0.51368 0.86447 0.90699 0.0
C1129 C 0.4681 0.84476 0.91235 0.0
H1130 H 0.45934 0.84508 0.8566 0.0
C1131 C 0.40086 0.85046 0.87238 0.0
C1132 C 0.39477 0.83977 0.85402 0.0
C1133 C 0.41781 0.85104 0.88183 0.0
C1134 C 0.46157 0.84476 0.87213 0.0
H1135 H 0.52696 0.83383 0.94385 0.0
H1136 H 0.49611 0.82959 0.92921 0.0
H1137 H 0.48964 0.84922 0.87289 0.0
H1138 H 0.40151 0.82113 0.83123 0.0
H1139 H 0.4313 0.82214 0.84782 0.0
H1140 H 0.44 0.8403 0.91156 0.0
C1141 C 0.50577 0.84021 0.9254 0.0
C1142 C 0.47891 0.84735 0.88149 0.0
C1143 C 0.52344 0.84263 0.93375 0.0
C1144 C 0.40589 0.82946 0.84539 0.0
C1145 C 0.42293 0.83013 0.85481 0.0
C1146 C 0.45075 0.84226 0.90299 0.0
C1147 C 0.5008 0.85087 0.91164 0.0
C1148 C 0.48235 0.84757 0.90173 0.0
C1149 C 0.42906 0.84099 0.8731 0.0
C1150 C 0.44734 0.84241 0.88282 0.0
H1151 H 0.54096 0.87728 0.9111 0.0
H1152 H 0.51016 0.87311 0.89671 0.0
H1153 H 0.47039 0.8449 0.92797 0.0
H1154 H 0.39247 0.85834 0.87951 0.0
H1155 H 0.42224 0.85967 0.89581 0.0
C1156 C 0.47247 0.20866 0.0924 0.0
C1157 C 0.46123 0.20644 0.10656 0.0
C1158 C 0.47483 0.19362 0.07992 0.0
C1159 C 0.47159 0.14502 0.0816 0.0
H1160 H 0.49094 0.14532 0.03293 0.0
C1161 C 0.49815 0.08468 0.0499 0.0
C1162 C 0.51568 0.08895 0.0464 0.0
C1163 C 0.48803 0.09796 0.05174 0.0
C1164 C 0.48545 0.14505 0.04647 0.0
H1165 H 0.44218 0.18742 0.11757 0.0
H1166 H 0.44513 0.16136 0.09484 0.0
H1167 H 0.47785 0.17058 0.04557 0.0
H1168 H 0.53652 0.11037 0.04197 0.0
H1169 H 0.51883 0.13387 0.04531 0.0
H1170 H 0.47936 0.11974 0.0827 0.0
C1171 C 0.4529 0.17444 0.09391 0.0
C1172 C 0.47801 0.15952 0.05377 0.0
C1173 C 0.45098 0.18937 0.10676 0.0
C1174 C 0.52284 0.1067 0.04419 0.0
C1175 C 0.51271 0.12008 0.04604 0.0
C1176 C 0.47875 0.13055 0.0742 0.0
C1177 C 0.4657 0.17618 0.08119 0.0
C1178 C 0.47129 0.15986 0.07166 0.0
C1179 C 0.49539 0.11593 0.0505 0.0
C1180 C 0.48605 0.13052 0.05676 0.0
H1181 H 0.48066 0.22173 0.09218 0.0
H1182 H 0.48485 0.19559 0.07044 0.0
H1183 H 0.46711 0.14487 0.09568 0.0
H1184 H 0.49262 0.07144 0.05271 0.0
H1185 H 0.47475 0.09437 0.05524 0.0
C1186 C 0.10704 0.32228 0.39984 0.0
C1187 C 0.11368 0.32046 0.41892 0.0
C1188 C 0.11522 0.31673 0.3841 0.0
C1189 C 0.15695 0.30994 0.36983 0.0
H1190 H 0.12748 0.28277 0.32266 0.0
C1191 C 0.16706 0.27566 0.28865 0.0
C1192 C 0.17903 0.29017 0.28406 0.0
C1193 C 0.15837 0.27799 0.30498 0.0
C1194 C 0.13589 0.29021 0.33576 0.0
H1195 H 0.13435 0.31164 0.43647 0.0
H1196 H 0.14908 0.30218 0.4086 0.0
H1197 H 0.11441 0.28854 0.35247 0.0
H1198 H 0.19014 0.31875 0.29246 0.0
H1199 H 0.17496 0.32282 0.32059 0.0
H1200 H 0.17835 0.31197 0.353 0.0
C1201 C 0.13734 0.3078 0.40604 0.0
C1202 C 0.12843 0.29357 0.35277 0.0
C1203 C 0.12896 0.31321 0.42194 0.0
C1204 C 0.18112 0.30727 0.29546 0.0
C1205 C 0.17259 0.30956 0.3118 0.0
C1206 C 0.16439 0.30673 0.35275 0.0
C1207 C 0.13035 0.30933 0.38696 0.0
C1208 C 0.13882 0.30375 0.36986 0.0
C1209 C 0.16156 0.29484 0.31709 0.0
C1210 C 0.15385 0.29712 0.33546 0.0
H1211 H 0.09532 0.32786 0.39693 0.0
H1212 H 0.10975 0.3184 0.36962 0.0
H1213 H 0.16521 0.31789 0.38276 0.0
H1214 H 0.16487 0.26235 0.28003 0.0
H1215 H 0.14978 0.26643 0.30862 0.0
C1216 C 0.9348 0.06672 0.23337 0.0
C1217 C 0.91758 0.07027 0.23063 0.0
C1218 C 0.94493 0.06548 0.21788 0.0
C1219 C 0.94213 0.0635 0.16225 0.0
H1220 H 0.99306 0.0703 0.17433 0.0
C1221 C 0.98966 0.06832 0.10193 0.0
C1222 C 1.00316 0.05823 0.10302 0.0
C1223 C 0.97935 0.07041 0.11723 0.0
C1224 C 0.97884 0.06826 0.17057 0.0
H1225 H 0.89779 0.07549 0.20888 0.0
H1226 H 0.91547 0.07424 0.18224 0.0
H1227 H 0.97538 0.07298 0.20061 0.0
H1228 H 0.01635 0.04272 0.12161 0.0
H1229 H 0.99904 0.04694 0.1484 0.0
H1230 H 0.94599 0.05948 0.13203 0.0
C1231 C 0.92119 0.07176 0.19623 0.0
C1232 C 0.96847 0.06966 0.18585 0.0
C1233 C 0.91091 0.07263 0.2117 0.0
C1234 C 0.00625 0.05074 0.12019 0.0
C1235 C 0.99624 0.05316 0.13564 0.0
C1236 C 0.95258 0.06247 0.14696 0.0
C1237 C 0.93852 0.06814 0.19887 0.0
C1238 C 0.94978 0.06712 0.18217 0.0
C1239 C 0.98239 0.06282 0.1344 0.0
C1240 C 0.97115 0.06465 0.15079 0.0
H1241 H 0.94048 0.06463 0.24759 0.0
H1242 H 0.95779 0.06217 0.22099 0.0
H1243 H 0.92795 0.06108 0.15823 0.0
H1244 H 0.98664 0.07414 0.08893 0.0
H1245 H 0.96896 0.07804 0.11561 0.0
C1246 C 0.32513 0.74822 0.49605 0.0
C1247 C 0.32832 0.73055 0.49416 0.0
C1248 C 0.32021 0.75576 0.47951 0.0
C1249 C 0.31948 0.7499 0.42553 0.0
H1250 H 0.28258 0.7779 0.42662 0.0
C1251 C 0.28506 0.7666 0.35487 0.0
C1252 C 0.28219 0.78428 0.35476 0.0
C1253 C 0.29034 0.76075 0.37233 0.0
C1254 C 0.29302 0.77027 0.42612 0.0
H1255 H 0.3291 0.70709 0.47328 0.0
H1256 H 0.32045 0.7201 0.44458 0.0
H1257 H 0.29323 0.76675 0.45607 0.0
H1258 H 0.28201 0.80942 0.37326 0.0
H1259 H 0.2912 0.79912 0.40386 0.0
H1260 H 0.31916 0.75322 0.39559 0.0
C1261 C 0.32195 0.72829 0.4588 0.0
C1262 C 0.29918 0.7639 0.44305 0.0
C1263 C 0.32686 0.72078 0.47531 0.0
C1264 C 0.28404 0.79571 0.37276 0.0
C1265 C 0.28932 0.7898 0.39032 0.0
C1266 C 0.31329 0.7562 0.40865 0.0
C1267 C 0.31837 0.74583 0.46064 0.0
C1268 C 0.31238 0.75346 0.44294 0.0
C1269 C 0.29292 0.77235 0.39027 0.0
C1270 C 0.29984 0.7663 0.40863 0.0
H1271 H 0.32611 0.75614 0.51035 0.0
H1272 H 0.31783 0.76938 0.48153 0.0
H1273 H 0.32991 0.74226 0.42494 0.0
H1274 H 0.28361 0.7573 0.34138 0.0
H1275 H 0.29256 0.74709 0.37174 0.0
C1276 C 0.58524 0.98968 0.72951 0.0
C1277 C 0.60311 0.98822 0.73266 0.0
C1278 C 0.57805 0.99461 0.71216 0.0
C1279 C 0.59187 0.01841 0.67182 0.0
H1280 H 0.543 1.00059 0.64829 0.0
C1281 C 0.55904 0.05385 0.61424 0.0
C1282 C 0.54782 0.04319 0.598 0.0
C1283 C 0.56498 0.04614 0.63017 0.0
C1284 C 0.55672 0.00561 0.65456 0.0
H1285 H 0.62719 0.99006 0.71957 0.0
H1286 H 0.6146 0.99829 0.6892 0.0
H1287 H 0.55506 0.98805 0.67611 0.0
H1288 H 0.53359 0.01609 0.58599 0.0
H1289 H 0.5441 1.00248 0.61387 0.0
H1290 H 0.59368 0.03575 0.6502 0.0
C1291 C 0.6062 0.99602 0.70032 0.0
C1292 C 0.5636 0.99855 0.67067 0.0
C1293 C 0.61341 0.99115 0.7177 0.0
C1294 C 0.54222 0.02466 0.59831 0.0
C1295 C 0.54822 0.01688 0.61432 0.0
C1296 C 0.58501 0.02545 0.65576 0.0
C1297 C 0.5885 0.99816 0.69743 0.0
C1298 C 0.58126 0.00495 0.67964 0.0
C1299 C 0.55995 0.0275 0.63033 0.0
C1300 C 0.56729 0.01931 0.64701 0.0
H1301 H 0.57692 0.98758 0.74073 0.0
H1302 H 0.56444 0.99627 0.71063 0.0
H1303 H 0.60544 0.02388 0.67839 0.0
H1304 H 0.56347 0.06821 0.61454 0.0
H1305 H 0.57362 0.05486 0.64238 0.0
C1306 C 0.26368 0.4527 0.03676 0.0
C1307 C 0.27208 0.44996 0.05472 0.0
C1308 C 0.2599 0.43889 0.02067 0.0
C1309 C 0.25681 0.38941 0.00696 0.0
H1310 H 0.26732 0.40219 0.95712 0.0
C1311 C 0.27536 0.341 0.94594 0.0
C1312 C 0.26889 0.34179 0.92653 0.0
C1313 C 0.27175 0.35293 0.9612 0.0
C1314 C 0.26402 0.39842 0.97085 0.0
H1315 H 0.28308 0.43054 0.06986 0.0
H1316 H 0.27697 0.40679 0.04181 0.0
H1317 H 0.26872 0.42595 0.98455 0.0
H1318 H 0.25311 0.35521 0.90784 0.0
H1319 H 0.24687 0.37614 0.93456 0.0
H1320 H 0.25296 0.36183 0.99337 0.0
C1321 C 0.27286 0.41939 0.0402 0.0
C1322 C 0.26479 0.41204 0.98658 0.0
C1323 C 0.27652 0.43311 0.05627 0.0
C1324 C 0.25816 0.35423 0.92269 0.0
C1325 C 0.2547 0.36628 0.93794 0.0
C1326 C 0.2562 0.3758 0.99127 0.0
C1327 C 0.26454 0.4221 0.02219 0.0
C1328 C 0.2616 0.40769 0.00493 0.0
C1329 C 0.26176 0.36598 0.95729 0.0
C1330 C 0.26014 0.38019 0.97319 0.0
H1331 H 0.25997 0.46549 0.03514 0.0
H1332 H 0.25331 0.44135 0.00705 0.0
H1333 H 0.25389 0.3856 0.02079 0.0
H1334 H 0.28356 0.33145 0.94928 0.0
H1335 H 0.27748 0.3525 0.97598 0.0
C1336 C 0.92096 0.07519 0.35971 0.0
C1337 C 0.92917 0.06923 0.34379 0.0
C1338 C 0.92901 0.07593 0.37917 0.0
C1339 C 0.97298 0.07505 0.4084 0.0
H1340 H 0.94503 0.06027 0.44802 0.0
C1341 C 1.00501 0.05556 0.47986 0.0
C1342 C 0.99913 0.06117 0.49756 0.0
C1343 C 0.99617 0.05779 0.46187 0.0
C1344 C 0.95307 0.0646 0.4372 0.0
H1345 H 0.95267 0.05979 0.33638 0.0
H1346 H 0.96617 0.06083 0.3694 0.0
H1347 H 0.93024 0.06261 0.4158 0.0
H1348 H 0.979 0.0735 0.50985 0.0
H1349 H 0.96354 0.07721 0.47852 0.0
H1350 H 0.99577 0.07668 0.42955 0.0
C1351 C 0.95371 0.06522 0.36722 0.0
C1352 C 0.94454 0.06601 0.41865 0.0
C1353 C 0.94576 0.06447 0.34803 0.0
C1354 C 0.984 0.06898 0.49661 0.0
C1355 C 0.97503 0.07104 0.47857 0.0
C1356 C 0.98145 0.07349 0.4268 0.0
C1357 C 0.94555 0.07088 0.38323 0.0
C1358 C 0.95436 0.07098 0.40378 0.0
C1359 C 0.98101 0.06556 0.46087 0.0
C1360 C 0.9717 0.068 0.44147 0.0
H1361 H 0.90818 0.07888 0.35715 0.0
H1362 H 0.92227 0.08049 0.39101 0.0
H1363 H 0.98115 0.07942 0.39772 0.0
H1364 H 0.01655 0.04948 0.47986 0.0
H1365 H 1.00113 0.05317 0.44864 0.0
C1366 C 0.32549 0.74562 0.61037 0.0
C1367 C 0.33441 0.73131 0.61183 0.0
C1368 C 0.32225 0.756 0.62727 0.0
C1369 C 0.31966 0.75252 0.67983 0.0
H1370 H 0.31364 0.8021 0.68342 0.0
C1371 C 0.30634 0.79098 0.75141 0.0
C1372 C 0.29167 0.79936 0.74979 0.0
C1373 C 0.31339 0.78494 0.73478 0.0
C1374 C 0.31526 0.78824 0.6826 0.0
H1375 H 0.34809 0.71754 0.63202 0.0
H1376 H 0.34349 0.73614 0.66128 0.0
H1377 H 0.32314 0.78765 0.65414 0.0
H1378 H 0.27362 0.80895 0.72955 0.0
H1379 H 0.28614 0.79862 0.7005 0.0
H1380 H 0.31195 0.75315 0.70828 0.0
C1381 C 0.33817 0.73895 0.64725 0.0
C1382 C 0.32064 0.77989 0.66576 0.0
C1383 C 0.34105 0.72839 0.63044 0.0
C1384 C 0.2849 0.80252 0.73128 0.0
C1385 C 0.2921 0.79664 0.71464 0.0
C1386 C 0.31455 0.76092 0.69667 0.0
C1387 C 0.3281 0.75246 0.646 0.0
C1388 C 0.3229 0.76185 0.66409 0.0
C1389 C 0.3061 0.7873 0.71613 0.0
C1390 C 0.31223 0.77885 0.69829 0.0
H1391 H 0.32005 0.74806 0.59621 0.0
H1392 H 0.31439 0.76618 0.62557 0.0
H1393 H 0.32066 0.73849 0.67905 0.0
H1394 H 0.31192 0.78837 0.76544 0.0
H1395 H 0.32434 0.77802 0.73647 0.0
C1396 C 0.60205 1.00026 0.8605 0.0
C1397 C 0.59116 1.0022 0.8437 0.0
C1398 C 0.59681 1.00352 0.87902 0.0
C1399 C 0.56635 0.02787 0.90419 0.0
H1400 H 0.5757 1.00011 0.9454 0.0
C1401 C 0.53362 0.03377 0.97413 0.0
C1402 C 0.54413 0.03415 0.99203 0.0
C1403 C 0.54007 0.02998 0.95648 0.0
C1404 C 0.57316 0.00811 0.9341 0.0
H1405 H 0.56576 0.00805 0.83313 0.0
H1406 H 0.55653 0.01321 0.86502 0.0
H1407 H 0.58546 0.9926 0.91382 0.0
H1408 H 0.56976 0.0308 0.00532 0.0
H1409 H 0.58097 0.02417 0.97447 0.0
H1410 H 0.55389 0.04323 0.92431 0.0
C1411 C 0.56936 0.00978 0.86412 0.0
C1412 C 0.57876 1.00381 0.91599 0.0
C1413 C 0.57462 0.00667 0.84575 0.0
C1414 C 0.56129 0.03066 0.99182 0.0
C1415 C 0.56769 0.02673 0.97413 0.0
C1416 C 0.56068 0.03209 0.9222 0.0
C1417 C 0.58053 0.0087 0.88108 0.0
C1418 C 0.57525 0.01352 0.90071 0.0
C1419 C 0.55716 0.02634 0.95623 0.0
C1420 C 0.56386 0.02217 0.93733 0.0
H1421 H 0.61489 0.9969 0.85944 0.0
H1422 H 0.60578 1.00261 0.89174 0.0
H1423 H 0.5638 0.03598 0.893 0.0
H1424 H 0.52033 0.03633 0.9737 0.0
H1425 H 0.53152 0.02959 0.94297 0.0
C1426 C 0.29495 0.44723 0.18363 0.0
C1427 C 0.29053 0.44081 0.16354 0.0
C1428 C 0.29549 0.43514 0.19695 0.0
C1429 C 0.2996 0.38845 0.20141 0.0
H1430 H 0.27752 0.39707 0.24779 0.0
C1431 C 0.29078 0.33785 0.25664 0.0
C1432 C 0.2938 0.3456 0.27642 0.0
C1433 C 0.29041 0.34886 0.24212 0.0
C1434 C 0.28392 0.39456 0.23502 0.0
H1435 H 0.28354 0.41671 0.14162 0.0
H1436 H 0.28451 0.39567 0.16488 0.0
H1437 H 0.27729 0.41773 0.22414 0.0
H1438 H 0.29926 0.37079 0.29659 0.0
H1439 H 0.29901 0.38986 0.27148 0.0
H1440 H 0.30638 0.36533 0.21245 0.0
C1441 C 0.28761 0.41002 0.17032 0.0
C1442 C 0.28378 0.40641 0.22148 0.0
C1443 C 0.28696 0.42209 0.15702 0.0
C1444 C 0.29679 0.36443 0.28145 0.0
C1445 C 0.29651 0.37537 0.26704 0.0
C1446 C 0.29981 0.3766 0.21504 0.0
C1447 C 0.29173 0.41641 0.19043 0.0
C1448 C 0.29174 0.40359 0.20462 0.0
C1449 C 0.29308 0.36774 0.24721 0.0
C1450 C 0.29213 0.37964 0.23211 0.0
H1451 H 0.29781 0.46158 0.18909 0.0
H1452 H 0.29892 0.44046 0.21237 0.0
H1453 H 0.30593 0.38599 0.18858 0.0
H1454 H 0.28838 0.32334 0.25241 0.0
H1455 H 0.28764 0.34257 0.22696 0.0
C1456 C 0.14932 0.92741 0.06574 0.0
C1457 C 0.16627 0.93458 0.06174 0.0
C1458 C 0.13703 0.9386 0.06866 0.0
C1459 C 0.13425 0.98722 0.08062 0.0
H1460 H 0.08495 0.97017 0.05871 0.0
C1461 C 0.08369 0.03468 0.07233 0.0
C1462 C 0.06599 0.02764 0.07386 0.0
C1463 C 0.0964 0.02374 0.07349 0.0
C1464 C 0.09862 0.97512 0.06522 0.0
H1465 H 0.18342 0.95914 0.05741 0.0
H1466 H 0.16214 0.97834 0.06216 0.0
H1467 H 0.10562 0.94992 0.05527 0.0
H1468 H 0.04804 1.00422 0.0794 0.0
H1469 H 0.07009 0.98544 0.08191 0.0
H1470 H 0.12725 0.01253 0.09032 0.0
C1471 C 0.15834 0.96422 0.06347 0.0
C1472 C 0.1105 0.96345 0.06322 0.0
C1473 C 0.17054 0.95311 0.06057 0.0
C1474 C 0.06154 0.00996 0.07795 0.0
C1475 C 0.07418 0.99912 0.0792 0.0
C1476 C 0.12235 0.99892 0.0826 0.0
C1477 C 0.14143 0.95721 0.06769 0.0
C1478 C 0.12853 0.96935 0.07075 0.0
C1479 C 0.09164 0.00559 0.07626 0.0
C1480 C 0.10437 0.99307 0.07485 0.0
H1481 H 0.14562 0.91323 0.06681 0.0
H1482 H 0.12418 0.93272 0.072 0.0
H1483 H 0.14796 0.99221 0.08693 0.0
H1484 H 0.08744 0.04815 0.0689 0.0
H1485 H 0.10971 0.0292 0.07111 0.0
C1486 C 0.68875 0.63033 0.98637 0.0
C1487 C 0.69613 0.61677 0.97672 0.0
C1488 C 0.67212 0.62609 0.99218 0.0
C1489 C 0.63033 0.59382 0.98513 0.0
H1490 H 0.63176 0.60712 0.04091 0.0
C1491 C 0.57123 0.56915 0.02479 0.0
C1492 C 0.56822 0.58093 0.04069 0.0
C1493 C 0.58642 0.57339 0.01602 0.0
C1494 C 0.63096 0.60358 0.02526 0.0
H1495 H 0.69136 0.5884 0.96437 0.0
H1496 H 0.66198 0.58108 0.97423 0.0
H1497 H 0.65825 0.61544 0.02612 0.0
H1498 H 0.57837 0.60648 0.05969 0.0
H1499 H 0.60438 0.6143 0.04398 0.0
H1500 H 0.60291 0.58239 0.9841 0.0
C1501 C 0.66924 0.59492 0.97743 0.0
C1502 C 0.64619 0.60828 0.01683 0.0
C1503 C 0.68603 0.59911 0.97185 0.0
C1504 C 0.58048 0.59708 0.04756 0.0
C1505 C 0.59547 0.60148 0.0386 0.0
C1506 C 0.61493 0.58938 0.99351 0.0
C1507 C 0.66242 0.60829 0.98818 0.0
C1508 C 0.64602 0.60346 0.99672 0.0
C1509 C 0.59875 0.58964 0.02281 0.0
C1510 C 0.61505 0.59421 0.01371 0.0
H1511 H 0.69615 0.64409 0.99028 0.0
H1512 H 0.66702 0.63664 1.00031 0.0
H1513 H 0.62992 0.59 0.96956 0.0
H1514 H 0.56196 0.55656 0.0193 0.0
H1515 H 0.5886 0.56379 0.00412 0.0
C1516 C 0.71141 0.48716 0.31388 0.0
C1517 C 0.69299 0.48628 0.31288 0.0
C1518 C 0.71874 0.47133 0.31245 0.0
C1519 C 0.70735 0.42034 0.31394 0.0
H1520 H 0.75141 0.42015 0.29328 0.0
C1521 C 0.73448 0.35291 0.29841 0.0
C1522 C 0.75291 0.35356 0.30035 0.0
C1523 C 0.72737 0.36885 0.29982 0.0
C1524 C 0.73918 0.41981 0.29933 0.0
H1525 H 0.66806 0.46726 0.30938 0.0
H1526 H 0.68053 0.44009 0.30663 0.0
H1527 H 0.73918 0.44744 0.29598 0.0
H1528 H 0.7781 0.37234 0.30537 0.0
H1529 H 0.76592 0.39977 0.30781 0.0
H1530 H 0.70733 0.39269 0.31721 0.0
C1531 C 0.68958 0.453 0.30891 0.0
C1532 C 0.73204 0.43574 0.30092 0.0
C1533 C 0.68228 0.46881 0.31037 0.0
C1534 C 0.76387 0.37096 0.30364 0.0
C1535 C 0.75676 0.3869 0.30496 0.0
C1536 C 0.71446 0.4044 0.31229 0.0
C1537 C 0.70803 0.45376 0.3099 0.0
C1538 C 0.7159 0.43649 0.30826 0.0
C1539 C 0.7383 0.38632 0.30318 0.0
C1540 C 0.73058 0.40366 0.30493 0.0
H1541 H 0.72028 0.50017 0.31581 0.0
H1542 H 0.73296 0.47299 0.31362 0.0
H1543 H 0.69515 0.41995 0.32006 0.0
H1544 H 0.72541 0.33998 0.29592 0.0
H1545 H 0.71313 0.36736 0.29803 0.0
C1546 C 0.77858 0.44135 0.55798 0.0
C1547 C 0.76593 0.44876 0.5474 0.0
C1548 C 0.79659 0.44907 0.55989 0.0
C1549 C 0.82741 0.49099 0.55573 0.0
H1550 H 0.85969 0.45926 0.54369 0.0
C1551 C 0.89484 0.51639 0.53258 0.0
C1552 C 0.90929 0.50903 0.53924 0.0
C1553 C 0.8779 0.50943 0.53633 0.0
C1554 C 0.85092 0.46829 0.54742 0.0
H1555 H 0.76227 0.47035 0.53096 0.0
H1556 H 0.79353 0.48368 0.53425 0.0
H1557 H 0.82897 0.44637 0.54579 0.0
H1558 H 0.91733 0.48864 0.55516 0.0
H1559 H 0.88772 0.47663 0.56196 0.0
H1560 H 0.84924 0.51292 0.557 0.0
C1561 C 0.78957 0.472 0.54118 0.0
C1562 C 0.83333 0.46091 0.54863 0.0
C1563 C 0.77164 0.46425 0.53917 0.0
C1564 C 0.90647 0.49469 0.54995 0.0
C1565 C 0.8895 0.4877 0.55369 0.0
C1566 C 0.84498 0.49837 0.55456 0.0
C1567 C 0.80225 0.46443 0.55142 0.0
C1568 C 0.82131 0.47219 0.55239 0.0
C1569 C 0.87502 0.49495 0.54684 0.0
C1570 C 0.85684 0.48711 0.54998 0.0
H1571 H 0.77461 0.42943 0.56452 0.0
H1572 H 0.80608 0.44303 0.56797 0.0
H1573 H 0.81851 0.50001 0.55898 0.0
H1574 H 0.89661 0.52759 0.5245 0.0
H1575 H 0.86699 0.51518 0.53063 0.0
C1576 C 0.40505 0.17914 0.29998 0.0
C1577 C 0.39675 0.16111 0.29275 0.0
C1578 C 0.39581 0.19318 0.29835 0.0
C1579 C 0.3571 0.20475 0.27021 0.0
H1580 H 0.36071 0.24202 0.31477 0.0
C1581 C 0.30972 0.25566 0.27376 0.0
C1582 C 0.3159 0.2727 0.28527 0.0
C1583 C 0.32042 0.24268 0.27305 0.0
C1584 C 0.35974 0.23197 0.30199 0.0
H1585 H 0.37218 0.14377 0.2781 0.0
H1586 H 0.35616 0.16819 0.27523 0.0
H1587 H 0.37772 0.21843 0.31699 0.0
H1588 H 0.33848 0.29006 0.30377 0.0
H1589 H 0.3573 0.26779 0.30196 0.0
H1590 H 0.33925 0.21833 0.25511 0.0
C1591 C 0.36983 0.17152 0.28207 0.0
C1592 C 0.3695 0.21834 0.30334 0.0
C1593 C 0.379 0.15749 0.28386 0.0
C1594 C 0.3333 0.27691 0.29504 0.0
C1595 C 0.34405 0.26408 0.2941 0.0
C1596 C 0.34745 0.21848 0.26878 0.0
C1597 C 0.3781 0.18956 0.28928 0.0
C1598 C 0.3682 0.20446 0.28754 0.0
C1599 C 0.33763 0.24656 0.28365 0.0
C1600 C 0.3485 0.23225 0.28471 0.0
H1601 H 0.41871 0.18244 0.30686 0.0
H1602 H 0.40264 0.20692 0.30395 0.0
H1603 H 0.35597 0.1944 0.25765 0.0
H1604 H 0.29625 0.25198 0.26627 0.0
H1605 H 0.31484 0.22935 0.26493 0.0
C1606 C 0.298 0.09222 0.48588 0.0
C1607 C 0.28218 0.08608 0.49303 0.0
C1608 C 0.31302 0.08511 0.49072 0.0
C1609 C 0.33307 0.06422 0.52939 0.0
H1610 H 0.36366 0.05102 0.49225 0.0
C1611 C 0.39307 0.03258 0.55136 0.0
C1612 C 0.40844 0.03812 0.54321 0.0
C1613 C 0.37724 0.03751 0.54463 0.0
C1614 C 0.35537 0.05485 0.50286 0.0
H1615 H 0.26956 0.06706 0.51019 0.0
H1616 H 0.29569 0.05481 0.51859 0.0
H1617 H 0.33686 0.06134 0.48101 0.0
H1618 H 0.41951 0.05361 0.52211 0.0
H1619 H 0.39212 0.0625 0.51067 0.0
H1620 H 0.35168 0.05823 0.55134 0.0
C1621 C 0.29653 0.06524 0.50943 0.0
C1622 C 0.34001 0.0607 0.49638 0.0
C1623 C 0.28153 0.07221 0.50449 0.0
C1624 C 0.40776 0.04884 0.52839 0.0
C1625 C 0.39203 0.05389 0.52179 0.0
C1626 C 0.34849 0.05853 0.5359 0.0
C1627 C 0.3125 0.07184 0.50291 0.0
C1628 C 0.32871 0.06543 0.50959 0.0
C1629 C 0.37655 0.04824 0.52975 0.0
C1630 C 0.35986 0.05381 0.52273 0.0
H1631 H 0.29895 0.10287 0.47702 0.0
H1632 H 0.3252 0.09047 0.48554 0.0
H1633 H 0.32472 0.06805 0.53994 0.0
H1634 H 0.39323 0.02423 0.56273 0.0
H1635 H 0.36552 0.03274 0.55093 0.0
C1636 C 0.7095 0.60723 0.31798 0.0
C1637 C 0.69081 0.60285 0.31415 0.0
C1638 C 0.71901 0.62484 0.31679 0.0
C1639 C 0.71303 0.66627 0.2943 0.0
H1640 H 0.75378 0.69237 0.33093 0.0
C1641 C 0.73696 0.74325 0.29616 0.0
C1642 C 0.75504 0.75152 0.30056 0.0
C1643 C 0.73081 0.72513 0.29816 0.0
C1644 C 0.74252 0.6853 0.32037 0.0
H1645 H 0.66792 0.6145 0.30635 0.0
H1646 H 0.68404 0.64412 0.30437 0.0
H1647 H 0.74059 0.6611 0.33363 0.0
H1648 H 0.78077 0.74662 0.31104 0.0
H1649 H 0.7701 0.71483 0.31444 0.0
H1650 H 0.7148 0.69004 0.28087 0.0
C1651 C 0.69158 0.63411 0.30802 0.0
C1652 C 0.73491 0.6672 0.32194 0.0
C1653 C 0.68221 0.61684 0.30933 0.0
C1654 C 0.76677 0.74088 0.30744 0.0
C1655 C 0.76057 0.72255 0.30946 0.0
C1656 C 0.7206 0.68417 0.29269 0.0
C1657 C 0.71019 0.63858 0.31148 0.0
C1658 C 0.71974 0.65742 0.30915 0.0
C1659 C 0.74242 0.71419 0.30461 0.0
C1660 C 0.7353 0.69433 0.30589 0.0
H1661 H 0.71678 0.59708 0.32177 0.0
H1662 H 0.73332 0.62755 0.31961 0.0
H1663 H 0.70174 0.65931 0.28371 0.0
H1664 H 0.72735 0.75084 0.29104 0.0
H1665 H 0.71673 0.71978 0.29474 0.0
C1666 C 0.90094 0.53696 0.78985 0.0
C1667 C 0.89782 0.55437 0.79539 0.0
C1668 C 0.88833 0.52169 0.79095 0.0
C1669 C 0.85093 0.50638 0.81642 0.0
H1670 H 0.84264 0.46408 0.7765 0.0
C1671 C 0.80135 0.44047 0.82025 0.0
C1672 C 0.80729 0.42432 0.81547 0.0
C1673 C 0.81089 0.45688 0.81677 0.0
C1674 C 0.84489 0.47573 0.78784 0.0
H1675 H 0.87877 0.56932 0.80616 0.0
H1676 H 0.8567 0.54257 0.80805 0.0
H1677 H 0.86191 0.49178 0.77205 0.0
H1678 H 0.82767 0.41273 0.80279 0.0
H1679 H 0.84443 0.44125 0.79713 0.0
H1680 H 0.83417 0.49019 0.83239 0.0
C1681 C 0.86901 0.5408 0.80298 0.0
C1682 C 0.85592 0.49162 0.78528 0.0
C1683 C 0.88162 0.55612 0.80179 0.0
C1684 C 0.82285 0.42494 0.80693 0.0
C1685 C 0.83234 0.44128 0.80342 0.0
C1686 C 0.8399 0.49046 0.819 0.0
C1687 C 0.87227 0.52341 0.79767 0.0
C1688 C 0.85932 0.50704 0.79967 0.0
C1689 C 0.82651 0.45747 0.80831 0.0
C1690 C 0.837 0.47485 0.80489 0.0
H1691 H 0.91326 0.53507 0.78486 0.0
H1692 H 0.89137 0.5085 0.78699 0.0
H1693 H 0.85341 0.51797 0.82787 0.0
H1694 H 0.78945 0.44046 0.82692 0.0
H1695 H 0.80597 0.46909 0.82057 0.0
C1696 C 0.02549 0.8563 0.18745 0.0
C1697 C 0.01947 0.83779 0.18045 0.0
C1698 C 0.02336 0.86917 0.17528 0.0
C1699 C 0.01255 0.87398 0.12264 0.0
H1700 H 1.00469 0.9206 0.14513 0.0
C1701 C 0.99084 0.92633 0.07625 0.0
C1702 C 1.00044 0.94416 0.08167 0.0
C1703 C 0.99314 0.9132 0.08805 0.0
C1704 C 0.00696 0.90767 0.13865 0.0
H1705 H 0.00632 0.81832 0.15518 0.0
H1706 H 1.00198 0.84064 0.13423 0.0
H1707 H 0.00857 0.89812 0.16606 0.0
H1708 H 0.01971 0.96224 0.10395 0.0
H1709 H 0.0235 0.93942 0.12466 0.0
H1710 H 0.01039 0.88354 0.09511 0.0
C1711 C 0.00886 0.84533 0.14892 0.0
C1712 C 0.00931 0.89476 0.15068 0.0
C1713 C 0.01124 0.83246 0.161 0.0
C1714 C 0.01223 0.94859 0.09927 0.0
C1715 C 0.01431 0.93556 0.11121 0.0
C1716 C 0.00992 0.88682 0.11058 0.0
C1717 C 0.01489 0.86392 0.15584 0.0
C1718 C 0.01224 0.87771 0.14291 0.0
C1719 C 1.00484 0.91769 0.10573 0.0
C1720 C 0.0072 0.90385 0.11846 0.0
H1721 H 0.03198 0.86086 0.20232 0.0
H1722 H 0.02854 0.88326 0.18114 0.0
H1723 H 0.01509 0.86122 0.11605 0.0
H1724 H 0.98171 0.92249 0.06275 0.0
H1725 H 0.98558 0.89957 0.08349 0.0
C1726 C 0.96696 0.30281 0.85338 0.0
C1727 C 0.97911 0.3172 0.84877 0.0
C1728 C 0.94859 0.30118 0.84799 0.0
C1729 C 0.91553 0.32878 0.8393 0.0
H1730 H 0.88451 0.28623 0.80868 0.0
C1731 C 0.84395 0.33204 0.81014 0.0
C1732 C 0.83039 0.31669 0.80798 0.0
C1733 C 0.86175 0.33085 0.81416 0.0
C1734 C 0.89283 0.29817 0.81751 0.0
H1735 H 0.98119 0.34109 0.83479 0.0
H1736 H 0.94947 0.33851 0.82604 0.0
H1737 H 0.91583 0.28604 0.81826 0.0
H1738 H 0.82492 0.2879 0.80811 0.0
H1739 H 0.856 0.28579 0.81592 0.0
H1740 H 0.89287 0.34085 0.83944 0.0
C1741 C 0.95411 0.32837 0.83359 0.0
C1742 C 0.91086 0.29804 0.82294 0.0
C1743 C 0.97236 0.32978 0.83857 0.0
C1744 C 0.8351 0.29994 0.80947 0.0
C1745 C 0.853 0.29879 0.81396 0.0
C1746 C 0.89754 0.32882 0.83425 0.0
C1747 C 0.94195 0.31414 0.83829 0.0
C1748 C 0.92249 0.31347 0.83363 0.0
C1749 C 0.86667 0.31433 0.81677 0.0
C1750 C 0.88585 0.31367 0.8229 0.0
H1751 H 0.97163 0.29287 0.86121 0.0
H1752 H 0.93955 0.29009 0.85188 0.0
H1753 H 0.92405 0.34081 0.84779 0.0
H1754 H 0.84078 0.34514 0.80898 0.0
H1755 H 0.87163 0.34309 0.81538 0.0
C1756 C 0.51115 0.21558 0.69234 0.0
C1757 C 0.51308 0.23275 0.68664 0.0
C1758 C 0.5104 0.20017 0.67868 0.0
C1759 C 0.52478 0.18543 0.63218 0.0
H1760 H 0.49048 0.14145 0.63135 0.0
C1761 C 0.52174 0.12106 0.57619 0.0
C1762 C 0.51764 0.10429 0.58258 0.0
C1763 C 0.52021 0.13697 0.58788 0.0
C1764 C 0.50034 0.15351 0.63151 0.0
H1765 H 0.51556 0.24709 0.662 0.0
H1766 H 0.5145 0.22015 0.63821 0.0
H1767 H 0.48952 0.16857 0.65363 0.0
H1768 H 0.50889 0.09118 0.60643 0.0
H1769 H 0.50679 0.11876 0.62696 0.0
H1770 H 0.53604 0.17033 0.6106 0.0
C1771 C 0.51352 0.21867 0.65327 0.0
C1772 C 0.4997 0.1691 0.64425 0.0
C1773 C 0.51401 0.23408 0.66688 0.0
C1774 C 0.51202 0.10382 0.60094 0.0
C1775 C 0.51068 0.11971 0.61271 0.0
C1776 C 0.52558 0.16977 0.6196 0.0
C1777 C 0.5118 0.20155 0.65904 0.0
C1778 C 0.51197 0.18521 0.64483 0.0
C1779 C 0.51472 0.13655 0.60637 0.0
C1780 C 0.51345 0.15352 0.61917 0.0
H1781 H 0.51039 0.21405 0.70742 0.0
H1782 H 0.5092 0.1872 0.68362 0.0
H1783 H 0.53455 0.19759 0.63243 0.0
H1784 H 0.52602 0.1219 0.56207 0.0
H1785 H 0.52318 0.14959 0.58231 0.0
C1786 C 0.60335 0.82012 0.3767 0.0
C1787 C 0.58797 0.81729 0.36295 0.0
C1788 C 0.62002 0.82029 0.37078 0.0
C1789 C 0.64236 0.80727 0.32763 0.0
H1790 H 0.68346 0.83844 0.35976 0.0
C1791 C 0.71277 0.81659 0.30395 0.0
C1792 C 0.72705 0.81657 0.31836 0.0
C1793 C 0.69582 0.81724 0.30889 0.0
C1794 C 0.67218 0.82952 0.35066 0.0
H1795 H 0.57827 0.81244 0.332 0.0
H1796 H 0.60736 0.81314 0.32159 0.0
H1797 H 0.65421 0.83851 0.36892 0.0
H1798 H 0.73453 0.81782 0.34941 0.0
H1799 H 0.70523 0.81907 0.35802 0.0
H1800 H 0.66047 0.7985 0.30924 0.0
C1801 C 0.60654 0.8149 0.33706 0.0
C1802 C 0.65528 0.8295 0.35597 0.0
C1803 C 0.58978 0.8146 0.34302 0.0
C1804 C 0.72394 0.81768 0.33788 0.0
C1805 C 0.70706 0.81853 0.34285 0.0
C1806 C 0.65928 0.80741 0.32223 0.0
C1807 C 0.62199 0.8178 0.35085 0.0
C1808 C 0.64005 0.81824 0.34467 0.0
C1809 C 0.69267 0.81813 0.32842 0.0
C1810 C 0.67449 0.81843 0.33376 0.0
H1811 H 0.60254 0.82211 0.39218 0.0
H1812 H 0.63137 0.82215 0.38196 0.0
H1813 H 0.63115 0.79819 0.31861 0.0
H1814 H 0.71458 0.81569 0.28874 0.0
H1815 H 0.68518 0.81711 0.29736 0.0
C1816 C 0.06209 0.28406 0.50499 0.0
C1817 C 0.05516 0.28674 0.48637 0.0
C1818 C 0.0538 0.26985 0.5135 0.0
C1819 C 0.0237 0.22548 0.50113 0.0
H1820 H 0.02028 0.23227 0.55646 0.0
C1821 C 0.99131 0.167 0.53723 0.0
C1822 C 1.00114 0.16451 0.55451 0.0
C1823 C 0.99544 0.18302 0.52961 0.0
C1824 C 0.02119 0.23015 0.541 0.0
H1825 H 0.03405 0.27666 0.46208 0.0
H1826 H 0.01954 0.25186 0.47696 0.0
H1827 H 0.03264 0.25797 0.54148 0.0
H1828 H 0.02257 0.17722 0.57772 0.0
H1829 H 0.02974 0.20512 0.56448 0.0
H1830 H 0.01262 0.19763 0.50068 0.0
C1831 C 0.03148 0.26066 0.48491 0.0
C1832 C 0.0283 0.24486 0.53244 0.0
C1833 C 0.03976 0.2749 0.47642 0.0
C1834 C 0.01457 0.17877 0.56453 0.0
C1835 C 0.01871 0.19478 0.55691 0.0
C1836 C 0.01661 0.21079 0.50969 0.0
C1837 C 0.0384 0.25798 0.50356 0.0
C1838 C 0.02986 0.24263 0.51245 0.0
C1839 C 0.0095 0.1969 0.5391 0.0
C1840 C 0.01548 0.2129 0.52978 0.0
H1841 H 0.07394 0.29295 0.51304 0.0
H1842 H 0.05962 0.26798 0.52775 0.0
H1843 H 0.02492 0.22326 0.48575 0.0
H1844 H 0.98071 0.15635 0.52933 0.0
H1845 H 0.98788 0.18438 0.51605 0.0
C1846 C 0.52569 0.27501 0.19579 0.0
C1847 C 0.52291 0.2696 0.17547 0.0
C1848 C 0.54256 0.27773 0.20633 0.0
C1849 C 0.59007 0.28414 0.2009 0.0
H1850 H 0.59409 0.26618 0.25029 0.0
C1851 C 0.65425 0.2686 0.23773 0.0
C1852 C 0.65896 0.27433 0.25791 0.0
C1853 C 0.63797 0.27027 0.22834 0.0
C1854 C 0.59314 0.2715 0.23667 0.0
H1855 H 0.53556 0.26299 0.15017 0.0
H1856 H 0.56505 0.26718 0.16868 0.0
H1857 H 0.56493 0.26459 0.23226 0.0
H1858 H 0.65054 0.28646 0.28414 0.0
H1859 H 0.62169 0.28915 0.26765 0.0
H1860 H 0.61839 0.29038 0.20508 0.0
C1861 C 0.55425 0.26971 0.17642 0.0
C1862 C 0.57646 0.27062 0.22634 0.0
C1863 C 0.53736 0.26718 0.16583 0.0
C1864 C 0.64715 0.28194 0.26856 0.0
C1865 C 0.63071 0.28341 0.25917 0.0
C1866 C 0.60676 0.28486 0.21116 0.0
C1867 C 0.557 0.2749 0.19682 0.0
C1868 C 0.57473 0.27675 0.20823 0.0
C1869 C 0.62601 0.27758 0.23899 0.0
C1870 C 0.60842 0.27835 0.22901 0.0
H1871 H 0.51481 0.27719 0.20358 0.0
H1872 H 0.54428 0.28207 0.22195 0.0
H1873 H 0.5892 0.2893 0.1872 0.0
H1874 H 0.66325 0.26292 0.22916 0.0
H1875 H 0.63457 0.26551 0.2128 0.0
C1876 C 0.60851 0.91223 1.0014 0.0
C1877 C 0.60445 0.89379 0.00289 0.0
C1878 C 0.60473 0.92512 0.0156 0.0
C1879 C 0.57049 0.92617 0.04646 0.0
H1880 H 0.58975 0.97761 0.05456 0.0
C1881 C 0.5286 0.97837 0.0375 0.0
C1882 C 0.53213 0.99484 0.05025 0.0
C1883 C 0.53934 0.96582 0.03957 0.0
C1884 C 0.58437 0.96327 0.0529 0.0
H1885 H 0.59564 0.87471 0.02187 0.0
H1886 H 0.58929 0.89726 0.04675 0.0
H1887 H 0.60839 0.9563 0.04501 0.0
H1888 H 0.54903 0.01074 0.07587 0.0
H1889 H 0.56855 0.98892 0.07897 0.0
H1890 H 0.54619 0.93318 0.05314 0.0
C1891 C 0.59491 0.90169 0.03432 0.0
C1892 C 0.59498 0.95107 0.04726 0.0
C1893 C 0.59863 0.88877 0.02007 0.0
C1894 C 0.54622 0.99824 0.06567 0.0
C1895 C 0.55731 0.98578 0.06749 0.0
C1896 C 0.55992 0.93834 0.05201 0.0
C1897 C 0.59691 0.91986 0.03165 0.0
C1898 C 0.58786 0.93241 0.043 0.0
C1899 C 0.55402 0.96953 0.0543 0.0
C1900 C 0.56648 0.957 0.05428 0.0
H1901 H 0.6132 0.91662 0.98848 0.0
H1902 H 0.60645 0.93896 0.01299 0.0
H1903 H 0.56446 0.91195 0.04322 0.0
H1904 H 0.51776 0.97534 0.02554 0.0
H1905 H 0.53662 0.95353 0.02904 0.0
C1906 C 0.91227 0.75792 0.69246 0.0
C1907 C 0.92515 0.76885 0.68438 0.0
C1908 C 0.90422 0.76539 0.70752 0.0
C1909 C 0.90166 0.78075 0.74865 0.0
H1910 H 0.89318 0.82949 0.75639 0.0
C1911 C 0.88709 0.81271 0.82286 0.0
C1912 C 0.87377 0.8229 0.8223 0.0
C1913 C 0.89407 0.80756 0.80588 0.0
C1914 C 0.89535 0.81578 0.75443 0.0
H1915 H 0.93879 0.79633 0.68468 0.0
H1916 H 0.92516 0.80935 0.7113 0.0
H1917 H 0.90103 0.81722 0.72539 0.0
H1918 H 0.8573 0.8356 0.80346 0.0
H1919 H 0.86919 0.82651 0.77409 0.0
H1920 H 0.89524 0.77899 0.7773 0.0
C1921 C 0.92098 0.79505 0.70588 0.0
C1922 C 0.90003 0.80881 0.73668 0.0
C1923 C 0.9288 0.7876 0.69054 0.0
C1924 C 0.86794 0.82822 0.80456 0.0
C1925 C 0.87474 0.82293 0.78762 0.0
C1926 C 0.89676 0.78763 0.76627 0.0
C1927 C 0.90915 0.78391 0.71511 0.0
C1928 C 0.90327 0.79119 0.73355 0.0
C1929 C 0.88767 0.81226 0.78795 0.0
C1930 C 0.89359 0.80526 0.76943 0.0
H1931 H 0.9091 0.74343 0.68785 0.0
H1932 H 0.89471 0.75648 0.71379 0.0
H1933 H 0.90441 0.76727 0.74701 0.0
H1934 H 0.89178 0.80836 0.8363 0.0
H1935 H 0.90425 0.7996 0.80675 0.0
C1936 C 0.12877 0.06097 0.88298 0.0
C1937 C 0.13078 0.045 0.87157 0.0
C1938 C 0.11934 0.06063 0.89902 0.0
C1939 C 0.09635 0.02995 0.93147 0.0
H1940 H 0.074 0.0707 0.94303 0.0
C1941 C 0.05701 0.03799 0.99896 0.0
C1942 C 0.04386 0.04853 0.99855 0.0
C1943 C 0.06744 0.03648 0.98365 0.0
C1944 C 0.0798 0.05897 0.94005 0.0
H1945 H 0.12412 0.01591 0.86854 0.0
H1946 H 0.10734 0.01513 0.89623 0.0
H1947 H 0.09171 0.0698 0.91698 0.0
H1948 H 0.03117 0.06514 0.98101 0.0
H1949 H 0.04832 0.06187 0.95429 0.0
H1950 H 0.08362 0.01879 0.95415 0.0
C1951 C 0.11351 0.02815 0.89314 0.0
C1952 C 0.0905 0.05862 0.92507 0.0
C1953 C 0.12329 0.02853 0.87717 0.0
C1954 C 0.04113 0.05693 0.982 0.0
C1955 C 0.05131 0.05523 0.96664 0.0
C1956 C 0.08544 0.03021 0.94642 0.0
C1957 C 0.11094 0.04424 0.90419 0.0
C1958 C 0.0992 0.0442 0.92043 0.0
C1959 C 0.06503 0.04533 0.96722 0.0
C1960 C 0.07686 0.04475 0.95109 0.0
H1961 H 0.13418 0.07394 0.87915 0.0
H1962 H 0.1185 0.07344 0.90719 0.0
H1963 H 0.1027 0.01855 0.92879 0.0
H1964 H 0.05976 0.03147 0.0115 0.0
H1965 H 0.07779 0.02881 0.98512 0.0
C1966 C 0.73795 0.39373 0.62486 0.0
C1967 C 0.72975 0.38273 0.60721 0.0
C1968 C 0.74434 0.38615 0.64075 0.0
C1969 C 0.74142 0.34255 0.66034 0.0
H1970 H 0.78337 0.36907 0.69501 0.0
C1971 C 0.7738 0.31328 0.72508 0.0
C1972 C 0.77712 0.3249 0.74308 0.0
C1973 C 0.76948 0.31977 0.70762 0.0
C1974 C 0.77162 0.3615 0.68549 0.0
H1975 H 0.72192 0.35505 0.59247 0.0
H1976 H 0.73345 0.34184 0.61995 0.0
H1977 H 0.77271 0.38126 0.66642 0.0
H1978 H 0.77928 0.3526 0.75673 0.0
H1979 H 0.77219 0.36394 0.7264 0.0
H1980 H 0.74054 0.32271 0.67946 0.0
C1981 C 0.73462 0.35634 0.62174 0.0
C1982 C 0.76539 0.36855 0.66911 0.0
C1983 C 0.72806 0.36392 0.60589 0.0
C1984 C 0.77682 0.34328 0.74313 0.0
C1985 C 0.7728 0.3498 0.72571 0.0
C1986 C 0.74778 0.33541 0.67662 0.0
C1987 C 0.74292 0.36734 0.63942 0.0
C1988 C 0.75003 0.35933 0.65642 0.0
C1989 C 0.76869 0.33808 0.70777 0.0
C1990 C 0.76282 0.34492 0.68955 0.0
H1991 H 0.73939 0.40826 0.62645 0.0
H1992 H 0.75025 0.39511 0.65417 0.0
H1993 H 0.72944 0.3351 0.65117 0.0
H1994 H 0.77376 0.29902 0.72456 0.0
H1995 H 0.76652 0.31043 0.69402 0.0
C1996 C 0.4478 0.11254 0.3686 0.0
C1997 C 0.46043 0.11241 0.35575 0.0
C1998 C 0.45209 0.11018 0.38805 0.0
C1999 C 0.48929 0.11092 0.42699 0.0
H2000 H 0.4566 0.07279 0.44301 0.0
C2001 C 0.50831 0.07689 0.49401 0.0
C2002 C 0.49487 0.07033 0.50455 0.0
C2003 C 0.50422 0.08395 0.47686 0.0
C2004 C 0.46578 0.08373 0.43907 0.0
H2005 H 0.48775 0.11092 0.35361 0.0
H2006 H 0.49527 0.10723 0.38748 0.0
H2007 H 0.44911 0.08294 0.41217 0.0
H2008 H 0.46676 0.06669 0.50591 0.0
H2009 H 0.45972 0.07957 0.47671 0.0
H2010 H 0.50596 0.11179 0.45392 0.0
C2011 C 0.48204 0.109 0.38257 0.0
C2012 C 0.46145 0.08954 0.42128 0.0
C2013 C 0.4777 0.11106 0.36312 0.0
C2014 C 0.4774 0.07148 0.49798 0.0
C2015 C 0.47334 0.07875 0.48108 0.0
C2016 C 0.49356 0.10526 0.44494 0.0
C2017 C 0.46916 0.10796 0.39513 0.0
C2018 C 0.47321 0.10307 0.41491 0.0
C2019 C 0.48661 0.08482 0.47001 0.0
C2020 C 0.48193 0.09144 0.45119 0.0
H2021 H 0.43436 0.11342 0.36337 0.0
H2022 H 0.4419 0.10962 0.39742 0.0
H2023 H 0.4986 0.12146 0.42256 0.0
H2024 H 0.52189 0.07612 0.49872 0.0
H2025 H 0.51482 0.08826 0.46872 0.0
C2026 C 0.76836 0.6695 0.04445 0.0
C2027 C 0.76059 0.65145 0.0449 0.0
C2028 C 0.77238 0.68213 0.06154 0.0
C2029 C 0.75956 0.68941 0.11074 0.0
H2030 H 0.79968 0.72959 0.11996 0.0
C2031 C 0.77557 0.7391 0.18228 0.0
C2032 C 0.77776 0.75743 0.18034 0.0
C2033 C 0.77564 0.7261 0.1663 0.0
C2034 C 0.78841 0.71844 0.11749 0.0
H2035 H 0.75177 0.63227 0.06372 0.0
H2036 H 0.75928 0.65416 0.09364 0.0
H2037 H 0.79606 0.70646 0.09115 0.0
H2038 H 0.78254 0.77662 0.16037 0.0
H2039 H 0.78263 0.75374 0.13225 0.0
H2040 H 0.75198 0.70132 0.13708 0.0
C2041 C 0.76177 0.65871 0.08 0.0
C2042 C 0.78629 0.70524 0.10101 0.0
C2043 C 0.75754 0.64614 0.06288 0.0
C2044 C 0.78068 0.76257 0.16222 0.0
C2045 C 0.78088 0.74952 0.14621 0.0
C2046 C 0.76179 0.70247 0.12726 0.0
C2047 C 0.76889 0.67694 0.07949 0.0
C2048 C 0.77177 0.6906 0.0974 0.0
C2049 C 0.77798 0.73115 0.14805 0.0
C2050 C 0.77617 0.71713 0.13076 0.0
H2051 H 0.77082 0.67403 0.03079 0.0
H2052 H 0.77764 0.69608 0.06054 0.0
H2053 H 0.74799 0.6786 0.10821 0.0
H2054 H 0.77311 0.7347 0.196 0.0
H2055 H 0.77353 0.71202 0.16812 0.0
C2056 C 0.11781 0.02922 0.75248 0.0
C2057 C 0.13628 0.03539 0.75634 0.0
C2058 C 0.1081 0.03063 0.7346 0.0
C2059 C 0.1096 0.05656 0.69311 0.0
H2060 H 0.07262 0.01703 0.66573 0.0
C2061 C 0.06026 0.06416 0.62617 0.0
C2062 C 0.05646 0.05012 0.61006 0.0
C2063 C 0.06999 0.06234 0.64385 0.0
C2064 C 0.08293 0.02821 0.67313 0.0
H2065 H 0.1589 0.04798 0.74411 0.0
H2066 H 0.14201 0.05071 0.71322 0.0
H2067 H 0.08945 0.01381 0.6965 0.0
H2068 H 0.05997 0.02297 0.60035 0.0
H2069 H 0.0766 0.01971 0.63116 0.0
H2070 H 0.103 0.07102 0.66984 0.0
C2071 C 0.13499 0.04471 0.72401 0.0
C2072 C 0.09251 0.02641 0.69091 0.0
C2073 C 0.14473 0.04303 0.74174 0.0
C2074 C 0.06261 0.03413 0.61231 0.0
C2075 C 0.07209 0.0322 0.6301 0.0
C2076 C 0.09982 0.05847 0.6755 0.0
C2077 C 0.1165 0.03855 0.72012 0.0
C2078 C 0.10608 0.04052 0.70117 0.0
C2079 C 0.07602 0.0463 0.64616 0.0
C2080 C 0.08637 0.0443 0.66514 0.0
H2081 H 0.1108 0.02329 0.76332 0.0
H2082 H 0.0939 0.02585 0.73229 0.0
H2083 H 0.11981 0.0678 0.70058 0.0
H2084 H 0.05581 0.07669 0.6251 0.0
H2085 H 0.07258 0.07345 0.65587 0.0
C2086 C 0.70449 0.37892 0.47104 0.0
C2087 C 0.71211 0.37814 0.4901 0.0
C2088 C 0.70913 0.36887 0.45485 0.0
C2089 C 0.73335 0.33206 0.43959 0.0
H2090 H 0.73699 0.35611 0.39433 0.0
C2091 C 0.77098 0.31061 0.37532 0.0
C2092 C 0.76328 0.31159 0.35635 0.0
C2093 C 0.76344 0.31671 0.39164 0.0
C2094 C 0.73586 0.34907 0.40673 0.0
H2095 H 0.73022 0.36562 0.507 0.0
H2096 H 0.7387 0.34848 0.47882 0.0
H2097 H 0.72631 0.37034 0.42252 0.0
H2098 H 0.74116 0.31902 0.33965 0.0
H2099 H 0.72812 0.32967 0.368 0.0
H2100 H 0.74357 0.31105 0.42376 0.0
C2101 C 0.72883 0.35657 0.47631 0.0
C2102 C 0.72963 0.35722 0.42298 0.0
C2103 C 0.72397 0.36645 0.49255 0.0
C2104 C 0.7475 0.31813 0.35405 0.0
C2105 C 0.74007 0.32436 0.37033 0.0
C2106 C 0.73979 0.32398 0.42335 0.0
C2107 C 0.72179 0.35795 0.45716 0.0
C2108 C 0.72819 0.34885 0.43968 0.0
C2109 C 0.74812 0.32408 0.38937 0.0
C2110 C 0.74107 0.33236 0.40668 0.0
H2111 H 0.6952 0.38765 0.46858 0.0
H2112 H 0.70296 0.36995 0.44047 0.0
H2113 H 0.73228 0.32501 0.45198 0.0
H2114 H 0.78314 0.30566 0.37759 0.0
H2115 H 0.77003 0.31635 0.40607 0.0
C2116 C 0.46625 0.1066 0.24032 0.0
C2117 C 0.44801 0.10619 0.23945 0.0
C2118 C 0.47326 0.10024 0.22376 0.0
C2119 C 0.4599 0.07048 0.17561 0.0
H2120 H 0.50575 0.09367 0.16509 0.0
C2121 C 0.4855 0.05291 0.10233 0.0
C2122 C 0.50352 0.0522 0.10279 0.0
C2123 C 0.47894 0.05891 0.11931 0.0
C2124 C 0.49302 0.0869 0.16794 0.0
H2125 H 0.42292 0.09928 0.22029 0.0
H2126 H 0.43515 0.08858 0.19138 0.0
H2127 H 0.49396 0.10595 0.19368 0.0
H2128 H 0.52867 0.05704 0.12166 0.0
H2129 H 0.51718 0.06743 0.15132 0.0
H2130 H 0.4589 0.05154 0.14975 0.0
C2131 C 0.44403 0.09342 0.20495 0.0
C2132 C 0.48623 0.09395 0.18436 0.0
C2133 C 0.43702 0.0997 0.22151 0.0
C2134 C 0.51473 0.05735 0.12076 0.0
C2135 C 0.50817 0.06347 0.13774 0.0
C2136 C 0.46665 0.06348 0.15917 0.0
C2137 C 0.46222 0.09337 0.20589 0.0
C2138 C 0.46954 0.08588 0.1884 0.0
C2139 C 0.49021 0.06446 0.1372 0.0
C2140 C 0.48328 0.07162 0.15507 0.0
H2141 H 0.47508 0.11143 0.25392 0.0
H2142 H 0.48729 0.10027 0.22515 0.0
H2143 H 0.44718 0.06364 0.17842 0.0
H2144 H 0.47645 0.04912 0.08877 0.0
H2145 H 0.46509 0.05967 0.11827 0.0
C2146 C 0.77859 0.68117 0.94453 0.0
C2147 C 0.76887 0.66362 0.93742 0.0
C2148 C 0.78048 0.6942 0.93224 0.0
C2149 C 0.77483 0.69988 0.87995 0.0
H2150 H 0.77186 0.74871 0.90109 0.0
C2151 C 0.78099 0.75464 0.83168 0.0
C2152 C 0.76949 0.76678 0.8331 0.0
C2153 C 0.78305 0.7437 0.84586 0.0
C2154 C 0.77258 0.73512 0.89492 0.0
H2155 H 0.75385 0.64585 0.91179 0.0
H2156 H 0.75677 0.66861 0.89046 0.0
H2157 H 0.77111 0.72583 0.92235 0.0
H2158 H 0.7517 0.77775 0.85072 0.0
H2159 H 0.7546 0.75792 0.87531 0.0
H2160 H 0.77529 0.70877 0.85236 0.0
C2161 C 0.76328 0.67229 0.90541 0.0
C2162 C 0.77241 0.72203 0.90718 0.0
C2163 C 0.76155 0.65921 0.91765 0.0
C2164 C 0.76064 0.76845 0.84941 0.0
C2165 C 0.76239 0.75713 0.86347 0.0
C2166 C 0.77478 0.71287 0.86769 0.0
C2167 C 0.77255 0.69004 0.91261 0.0
C2168 C 0.77346 0.70421 0.89982 0.0
C2169 C 0.77327 0.74426 0.86155 0.0
C2170 C 0.77367 0.73068 0.87497 0.0
H2171 H 0.78445 0.68495 0.9597 0.0
H2172 H 0.78804 0.70759 0.9382 0.0
H2173 H 0.77589 0.6864 0.87378 0.0
H2174 H 0.78821 0.75338 0.81937 0.0
H2175 H 0.79203 0.73448 0.84422 0.0
C2176 C 0.88269 0.165 0.03099 0.0
C2177 C 0.87741 0.1663 0.04963 0.0
C2178 C 0.8951 0.15441 0.02624 0.0
C2179 C 0.91334 0.11603 0.04241 0.0
H2180 H 0.94972 0.12927 0.01056 0.0
C2181 C 0.96288 0.06976 0.02647 0.0
C2182 C 0.98065 0.07878 0.02917 0.0
C2183 C 0.9492 0.07951 0.02506 0.0
C2184 C 0.93963 0.12534 0.01949 0.0
H2185 H 0.882 0.15853 0.07824 0.0
H2186 H 0.90377 0.1407 0.0702 0.0
H2187 H 0.92897 0.1491 0.01693 0.0
H2188 H 0.9979 0.10495 0.03114 0.0
H2189 H 0.97434 0.12175 0.02884 0.0
H2190 H 0.92434 0.0927 0.0457 0.0
C2191 C 0.89796 0.14725 0.05898 0.0
C2192 C 0.92762 0.13667 0.023 0.0
C2193 C 0.88558 0.15768 0.06367 0.0
C2194 C 0.98436 0.09753 0.02915 0.0
C2195 C 0.97077 0.10722 0.0277 0.0
C2196 C 0.92532 0.10474 0.03893 0.0
C2197 C 0.90251 0.14497 0.04005 0.0
C2198 C 0.91455 0.13237 0.03489 0.0
C2199 C 0.953 0.09847 0.02623 0.0
C2200 C 0.93888 0.10937 0.02773 0.0
H2201 H 0.87655 0.17135 0.0198 0.0
H2202 H 0.8983 0.15301 0.01151 0.0
H2203 H 0.90321 0.11202 0.05127 0.0
H2204 H 0.95957 0.05535 0.02649 0.0
H2205 H 0.93566 0.07225 0.02363 0.0
C2206 C 0.35104 0.52494 0.10296 0.0
C2207 C 0.3432 0.51026 0.11132 0.0
C2208 C 0.36907 0.52805 0.10159 0.0
C2209 C 0.40912 0.53585 0.10661 0.0
H2210 H 0.42626 0.4935 0.08621 0.0
C2211 C 0.47987 0.54006 0.08687 0.0
C2212 C 0.48095 0.53001 0.06884 0.0
C2213 C 0.4641 0.53758 0.09488 0.0
C2214 C 0.42166 0.50545 0.09192 0.0
H2215 H 0.34838 0.48785 0.12568 0.0
H2216 H 0.37996 0.49336 0.12332 0.0
H2217 H 0.39688 0.48997 0.09596 0.0
H2218 H 0.46656 0.50951 0.04506 0.0
H2219 H 0.439 0.50525 0.05892 0.0
H2220 H 0.43363 0.55137 0.10176 0.0
C2221 C 0.37205 0.50232 0.11764 0.0
C2222 C 0.40492 0.50342 0.09774 0.0
C2223 C 0.35398 0.49924 0.11908 0.0
C2224 C 0.46608 0.51738 0.05902 0.0
C2225 C 0.45036 0.51486 0.06703 0.0
C2226 C 0.42589 0.53787 0.10082 0.0
C2227 C 0.3797 0.51655 0.10851 0.0
C2228 C 0.39831 0.51862 0.10476 0.0
C2229 C 0.44917 0.52496 0.08502 0.0
C2230 C 0.43217 0.52272 0.09301 0.0
H2231 H 0.34315 0.53375 0.0969 0.0
H2232 H 0.3745 0.53901 0.09429 0.0
H2233 H 0.40446 0.5478 0.11216 0.0
H2234 H 0.49117 0.5499 0.09473 0.0
H2235 H 0.46362 0.54548 0.10881 0.0
C2236 C 0.34381 0.62208 0.78443 0.0
C2237 C 0.36205 0.62291 0.79005 0.0
C2238 C 0.33628 0.63778 0.78628 0.0
C2239 C 0.34612 0.68787 0.8098 0.0
H2240 H 0.30384 0.68945 0.77538 0.0
C2241 C 0.31852 0.75539 0.80908 0.0
C2242 C 0.30016 0.75463 0.80439 0.0
C2243 C 0.32584 0.73957 0.8076 0.0
C2244 C 0.31554 0.68939 0.78539 0.0
H2245 H 0.38647 0.64177 0.80205 0.0
H2246 H 0.3737 0.66878 0.80496 0.0
H2247 H 0.31653 0.66248 0.77231 0.0
H2248 H 0.27535 0.73573 0.79434 0.0
H2249 H 0.28787 0.70849 0.79191 0.0
H2250 H 0.34517 0.71485 0.82278 0.0
C2251 C 0.3649 0.65595 0.7994 0.0
C2252 C 0.32295 0.67362 0.78362 0.0
C2253 C 0.37239 0.64025 0.7976 0.0
C2254 C 0.2895 0.7372 0.79817 0.0
C2255 C 0.29683 0.72138 0.7966 0.0
C2256 C 0.33874 0.70365 0.81152 0.0
C2257 C 0.3466 0.65522 0.79381 0.0
C2258 C 0.33848 0.67236 0.79576 0.0
C2259 C 0.31523 0.72209 0.80123 0.0
C2260 C 0.32322 0.70489 0.79938 0.0
H2261 H 0.3352 0.60917 0.77859 0.0
H2262 H 0.32218 0.63607 0.78198 0.0
H2263 H 0.35778 0.68784 0.81987 0.0
H2264 H 0.32739 0.76834 0.8138 0.0
H2265 H 0.34003 0.74118 0.81112 0.0
C2266 C 0.26674 0.67059 0.53529 0.0
C2267 C 0.28297 0.66538 0.53975 0.0
C2268 C 0.25084 0.65826 0.53424 0.0
C2269 C 0.23178 0.61878 0.55396 0.0
H2270 H 0.19334 0.61284 0.51146 0.0
C2271 C 0.16466 0.57283 0.55543 0.0
C2272 C 0.14974 0.57988 0.54971 0.0
C2273 C 0.1813 0.5807 0.55145 0.0
C2274 C 0.20389 0.61443 0.52352 0.0
H2275 H 0.29536 0.64322 0.54649 0.0
H2276 H 0.26755 0.62183 0.54503 0.0
H2277 H 0.22172 0.63227 0.51016 0.0
H2278 H 0.14045 0.60048 0.53515 0.0
H2279 H 0.16934 0.61444 0.52867 0.0
H2280 H 0.21389 0.60179 0.56787 0.0
C2281 C 0.26716 0.63539 0.54224 0.0
C2282 C 0.22013 0.62551 0.52271 0.0
C2283 C 0.28303 0.64761 0.54302 0.0
C2284 C 0.15167 0.59456 0.53943 0.0
C2285 C 0.16828 0.60254 0.53567 0.0
C2286 C 0.21548 0.60792 0.55491 0.0
C2287 C 0.25093 0.64062 0.53791 0.0
C2288 C 0.23413 0.62795 0.53805 0.0
C2289 C 0.18337 0.59593 0.54193 0.0
C2290 C 0.20123 0.60582 0.53984 0.0
H2291 H 0.26631 0.68418 0.53266 0.0
H2292 H 0.23847 0.66265 0.53105 0.0
H2293 H 0.24235 0.62058 0.56605 0.0
H2294 H 0.16348 0.56144 0.56326 0.0
H2295 H 0.19258 0.57504 0.55616 0.0
C2296 C 0.67401 0.95107 0.81554 0.0
C2297 C 0.65726 0.94638 0.80406 0.0
C2298 C 0.68388 0.93787 0.81901 0.0
C2299 C 0.68036 0.88736 0.81351 0.0
H2300 H 0.73154 0.90069 0.82017 0.0
C2301 C 0.7272 0.83697 0.80195 0.0
C2302 C 0.74158 0.83826 0.81667 0.0
C2303 C 0.71645 0.84982 0.80269 0.0
C2304 C 0.71726 0.89682 0.81856 0.0
H2305 H 0.63784 0.92412 0.78705 0.0
H2306 H 0.65529 0.90128 0.7921 0.0
H2307 H 0.71397 0.92366 0.81625 0.0
H2308 H 0.75578 0.85413 0.84384 0.0
H2309 H 0.73701 0.87681 0.84494 0.0
H2310 H 0.68391 0.86023 0.81464 0.0
C2311 C 0.66067 0.91501 0.79917 0.0
C2312 C 0.70709 0.91002 0.81639 0.0
C2313 C 0.65064 0.92817 0.79609 0.0
C2314 C 0.74471 0.8526 0.83238 0.0
C2315 C 0.73406 0.86565 0.83295 0.0
C2316 C 0.69055 0.87411 0.81525 0.0
C2317 C 0.6775 0.9196 0.8107 0.0
C2318 C 0.68843 0.90553 0.81371 0.0
C2319 C 0.71987 0.86442 0.81803 0.0
C2320 C 0.70911 0.87868 0.81772 0.0
H2321 H 0.67943 0.96497 0.82206 0.0
H2322 H 0.6965 0.94209 0.82835 0.0
H2323 H 0.66613 0.88324 0.81201 0.0
H2324 H 0.72447 0.82622 0.78955 0.0
H2325 H 0.70581 0.84874 0.79084 0.0
C2326 C 0.74849 0.01675 0.6245 0.0
C2327 C 0.74647 0.99793 0.62303 0.0
C2328 C 0.73474 0.02437 0.61676 0.0
C2329 C 0.68683 0.01361 0.59627 0.0
H2330 H 0.70036 0.05352 0.56842 0.0
C2331 C 0.63693 0.03504 0.54181 0.0
C2332 C 0.63553 0.05324 0.54582 0.0
C2333 C 0.65127 0.02909 0.55086 0.0
C2334 C 0.69645 0.04244 0.57623 0.0
H2335 H 0.72819 0.97236 0.61309 0.0
H2336 H 0.70443 0.98552 0.59914 0.0
H2337 H 0.72322 0.04168 0.58666 0.0
H2338 H 0.64874 0.07967 0.56149 0.0
H2339 H 0.67412 0.06929 0.57679 0.0
H2340 H 0.66007 0.01404 0.58521 0.0
C2341 C 0.71647 0.99451 0.60657 0.0
C2342 C 0.70949 0.03573 0.58681 0.0
C2343 C 0.73014 0.98692 0.61454 0.0
C2344 C 0.64947 0.0656 0.55794 0.0
C2345 C 0.66395 0.05966 0.5668 0.0
C2346 C 0.67385 0.02014 0.58545 0.0
C2347 C 0.71873 0.01331 0.60718 0.0
C2348 C 0.70484 0.02116 0.59689 0.0
C2349 C 0.66463 0.04126 0.56385 0.0
C2350 C 0.67854 0.03452 0.57525 0.0
H2351 H 0.76092 0.02557 0.63109 0.0
H2352 H 0.7368 0.03891 0.61791 0.0
H2353 H 0.68273 1.00264 0.60415 0.0
H2354 H 0.62662 0.02524 0.5322 0.0
H2355 H 0.6517 0.01488 0.54808 0.0
C2356 C 0.34586 0.50306 0.78556 0.0
C2357 C 0.36396 0.5062 0.78329 0.0
C2358 C 0.3366 0.48555 0.78747 0.0
C2359 C 0.34145 0.43606 0.78039 0.0
H2360 H 0.30294 0.42839 0.81078 0.0
C2361 C 0.31835 0.36637 0.80455 0.0
C2362 C 0.30018 0.35931 0.80407 0.0
C2363 C 0.32453 0.38413 0.80131 0.0
C2364 C 0.31359 0.4302 0.80208 0.0
H2365 H 0.38621 0.4927 0.78198 0.0
H2366 H 0.37076 0.46343 0.78578 0.0
H2367 H 0.31628 0.45917 0.80667 0.0
H2368 H 0.27431 0.36612 0.79987 0.0
H2369 H 0.28511 0.39734 0.79454 0.0
H2370 H 0.3391 0.40729 0.77614 0.0
C2371 C 0.36323 0.47401 0.78538 0.0
C2372 C 0.3213 0.44802 0.79966 0.0
C2373 C 0.3723 0.49121 0.78333 0.0
C2374 C 0.28837 0.3709 0.80031 0.0
C2375 C 0.29463 0.38893 0.79737 0.0
C2376 C 0.33394 0.41841 0.78301 0.0
C2377 C 0.3451 0.47055 0.78726 0.0
C2378 C 0.33566 0.45141 0.789 0.0
C2379 C 0.31287 0.39588 0.79768 0.0
C2380 C 0.32 0.41503 0.79411 0.0
H2381 H 0.33881 0.51405 0.78573 0.0
H2382 H 0.32269 0.48377 0.78885 0.0
H2383 H 0.35192 0.43754 0.77144 0.0
H2384 H 0.32796 0.35805 0.80742 0.0
H2385 H 0.33864 0.38877 0.80197 0.0
C2386 C 0.14885 0.56808 0.29424 0.0
C2387 C 0.15399 0.55156 0.29592 0.0
C2388 C 0.16148 0.5837 0.29452 0.0
C2389 C 0.20622 0.59934 0.28401 0.0
H2390 H 0.20089 0.64497 0.31207 0.0
C2391 C 0.25463 0.66746 0.28443 0.0
C2392 C 0.24676 0.68251 0.28303 0.0
C2393 C 0.24453 0.65099 0.28707 0.0
C2394 C 0.2025 0.63237 0.30402 0.0
H2395 H 0.17652 0.53857 0.29945 0.0
H2396 H 0.19865 0.566 0.29983 0.0
H2397 H 0.18119 0.61718 0.31543 0.0
H2398 H 0.22201 0.69185 0.2823 0.0
H2399 H 0.20445 0.66328 0.2867 0.0
H2400 H 0.22729 0.61463 0.27222 0.0
C2401 C 0.18479 0.56675 0.29826 0.0
C2402 C 0.19123 0.61644 0.306 0.0
C2403 C 0.17212 0.55109 0.29817 0.0
C2404 C 0.22854 0.68062 0.28377 0.0
C2405 C 0.21848 0.66424 0.28635 0.0
C2406 C 0.21749 0.61533 0.28196 0.0
C2407 C 0.17957 0.5832 0.29637 0.0
C2408 C 0.19274 0.5998 0.29574 0.0
C2409 C 0.22637 0.64928 0.28831 0.0
C2410 C 0.2155 0.63207 0.29164 0.0
H2411 H 0.13502 0.56896 0.2925 0.0
H2412 H 0.15702 0.59612 0.2928 0.0
H2413 H 0.20762 0.58672 0.27582 0.0
H2414 H 0.26867 0.66854 0.28401 0.0
H2415 H 0.25102 0.63975 0.28861 0.0
C2416 C 0.53989 0.77534 0.44125 0.0
C2417 C 0.53534 0.7709 0.42087 0.0
C2418 C 0.54115 0.76187 0.45285 0.0
C2419 C 0.54739 0.71454 0.45023 0.0
H2420 H 0.53189 0.7182 0.50112 0.0
C2421 C 0.54584 0.65668 0.49627 0.0
C2422 C 0.55115 0.66132 0.51657 0.0
C2423 C 0.54352 0.66992 0.48468 0.0
C2424 C 0.53648 0.71705 0.48704 0.0
H2425 H 0.52826 0.74867 0.39676 0.0
H2426 H 0.53025 0.72516 0.41697 0.0
H2427 H 0.52824 0.74124 0.48077 0.0
H2428 H 0.55821 0.68377 0.54045 0.0
H2429 H 0.55418 0.70686 0.52025 0.0
H2430 H 0.55568 0.6904 0.45651 0.0
C2431 C 0.53311 0.73911 0.42401 0.0
C2432 C 0.53437 0.73029 0.47534 0.0
C2433 C 0.53183 0.7526 0.4124 0.0
C2434 C 0.55392 0.67962 0.52494 0.0
C2435 C 0.55159 0.69289 0.51333 0.0
C2436 C 0.5495 0.70131 0.46193 0.0
C2437 C 0.5379 0.74356 0.4444 0.0
C2438 C 0.53982 0.72925 0.45676 0.0
C2439 C 0.54641 0.68823 0.49301 0.0
C2440 C 0.5441 0.70237 0.48052 0.0
H2441 H 0.54274 0.78929 0.44829 0.0
H2442 H 0.54508 0.76589 0.46843 0.0
H2443 H 0.55204 0.71341 0.43619 0.0
H2444 H 0.54322 0.64271 0.48932 0.0
H2445 H 0.5392 0.66573 0.46917 0.0
C2446 C 0.58257 0.30184 0.76157 0.0
C2447 C 0.57625 0.29856 0.74142 0.0
C2448 C 0.60051 0.3023 0.7684 0.0
C2449 C 0.63982 0.28625 0.75205 0.0
H2450 H 0.66753 0.32127 0.795 0.0
C2451 C 0.71528 0.29699 0.76335 0.0
C2452 C 0.72461 0.29863 0.78221 0.0
C2453 C 0.69734 0.29767 0.76045 0.0
C2454 C 0.65993 0.31125 0.78313 0.0
H2455 H 0.58419 0.29366 0.71275 0.0
H2456 H 0.61502 0.29459 0.72449 0.0
H2457 H 0.63594 0.32107 0.78609 0.0
H2458 H 0.72235 0.3031 0.81298 0.0
H2459 H 0.69061 0.30431 0.80791 0.0
H2460 H 0.66357 0.27646 0.74888 0.0
C2461 C 0.60619 0.2965 0.73514 0.0
C2462 C 0.64178 0.31114 0.778 0.0
C2463 C 0.58842 0.29609 0.72837 0.0
C2464 C 0.71557 0.30176 0.79826 0.0
C2465 C 0.69739 0.30245 0.79533 0.0
C2466 C 0.65781 0.28637 0.75714 0.0
C2467 C 0.61254 0.29937 0.75525 0.0
C2468 C 0.63154 0.29886 0.76208 0.0
C2469 C 0.68793 0.29996 0.7763 0.0
C2470 C 0.6683 0.29911 0.77245 0.0
H2471 H 0.57362 0.30381 0.77207 0.0
H2472 H 0.60483 0.3045 0.78398 0.0
H2473 H 0.63238 0.27622 0.7401 0.0
H2474 H 0.72182 0.29484 0.75061 0.0
H2475 H 0.69077 0.29621 0.74561 0.0
C2476 C 0.03152 0.37495 0.93454 0.0
C2477 C 0.03969 0.37665 0.91777 0.0
C2478 C 0.03027 0.3903 0.9474 0.0
C2479 C 0.03229 0.43968 0.94915 0.0
H2480 H 0.03633 0.44062 0.00511 0.0
C2481 C 0.03885 0.50574 0.0027 0.0
C2482 C 0.02884 0.50537 0.01823 0.0
C2483 C 0.04 0.48976 0.99098 0.0
C2484 C 0.035 0.4405 0.98949 0.0
H2485 H 0.05355 0.39593 0.90182 0.0
H2486 H 0.0518 0.4225 0.92433 0.0
H2487 H 0.03904 0.41335 0.98394 0.0
H2488 H 0.01238 0.48767 0.03369 0.0
H2489 H 0.01447 0.45974 0.0132 0.0
H2490 H 0.02847 0.46687 0.95471 0.0
C2491 C 0.04587 0.40936 0.92735 0.0
C2492 C 0.03653 0.42485 0.97732 0.0
C2493 C 0.04701 0.39406 0.91447 0.0
C2494 C 0.02018 0.48851 0.02185 0.0
C2495 C 0.02145 0.47248 0.01017 0.0
C2496 C 0.03088 0.45532 0.9613 0.0
C2497 C 0.03725 0.40775 0.94385 0.0
C2498 C 0.03531 0.42425 0.95697 0.0
C2499 C 0.03127 0.47292 0.99449 0.0
C2500 C 0.03232 0.45599 0.98163 0.0
H2501 H 0.02568 0.36176 0.93752 0.0
H2502 H 0.02341 0.38848 0.95983 0.0
H2503 H 0.03082 0.43965 0.93355 0.0
H2504 H 0.04577 0.51842 0.99946 0.0
H2505 H 0.04788 0.4906 0.97921 0.0
C2506 C 0.96482 0.78518 0.26923 0.0
C2507 C 0.97078 0.79081 0.25233 0.0
C2508 C 0.94757 0.78574 0.27306 0.0
C2509 C 0.90807 0.80571 0.259 0.0
H2510 H 0.88397 0.76816 0.28434 0.0
C2511 C 0.83373 0.79912 0.26885 0.0
C2512 C 0.82887 0.79482 0.28673 0.0
C2513 C 0.85073 0.79831 0.26419 0.0
C2514 C 0.89052 0.77888 0.27743 0.0
H2515 H 0.96293 0.80159 0.22625 0.0
H2516 H 0.93282 0.80233 0.23273 0.0
H2517 H 0.91378 0.76758 0.27713 0.0
H2518 H 0.83826 0.78601 0.31356 0.0
H2519 H 0.86773 0.78453 0.30545 0.0
H2520 H 0.88467 0.8169 0.25921 0.0
C2521 C 0.94159 0.7977 0.24326 0.0
C2522 C 0.90774 0.77858 0.2733 0.0
C2523 C 0.95892 0.7972 0.23946 0.0
C2524 C 0.84143 0.78936 0.29963 0.0
C2525 C 0.85838 0.78845 0.29492 0.0
C2526 C 0.8908 0.80595 0.26306 0.0
C2527 C 0.93556 0.79187 0.26009 0.0
C2528 C 0.91691 0.79205 0.26412 0.0
C2529 C 0.86339 0.79306 0.2772 0.0
C2530 C 0.88175 0.79259 0.27244 0.0
H2531 H 0.9735 0.78026 0.2796 0.0
H2532 H 0.94372 0.78148 0.28638 0.0
H2533 H 0.91463 0.81649 0.2522 0.0
H2534 H 0.82447 0.80336 0.2585 0.0
H2535 H 0.8539 0.80172 0.25029 0.0
C2536 C 0.48318 0.33016 0.13225 0.0
C2537 C 0.47592 0.31369 0.11996 0.0
C2538 C 0.48963 0.34554 0.12443 0.0
C2539 C 0.48799 0.36647 0.08015 0.0
H2540 H 0.53516 0.39237 0.10305 0.0
C2541 C 0.52395 0.42587 0.04746 0.0
C2542 C 0.5331 0.44109 0.06079 0.0
C2543 C 0.51783 0.40961 0.0539 0.0
C2544 C 0.52191 0.38543 0.0966 0.0
H2545 H 0.46892 0.30066 0.08979 0.0
H2546 H 0.47995 0.32769 0.07611 0.0
H2547 H 0.5215 0.36601 0.11608 0.0
H2548 H 0.54382 0.4508 0.09122 0.0
H2549 H 0.53267 0.42273 0.10253 0.0
H2550 H 0.48815 0.38609 0.06099 0.0
C2551 C 0.48073 0.32862 0.0918 0.0
C2552 C 0.5141 0.37033 0.10408 0.0
C2553 C 0.47443 0.31315 0.09963 0.0
C2554 C 0.53659 0.43943 0.08059 0.0
C2555 C 0.53036 0.42323 0.08705 0.0
C2556 C 0.49572 0.3817 0.07279 0.0
C2557 C 0.4888 0.34483 0.10415 0.0
C2558 C 0.49702 0.36076 0.09601 0.0
C2559 C 0.52061 0.4082 0.07384 0.0
C2560 C 0.51275 0.39144 0.081 0.0
H2561 H 0.48452 0.33102 0.14797 0.0
H2562 H 0.49555 0.35794 0.13426 0.0
H2563 H 0.47477 0.35939 0.07374 0.0
H2564 H 0.52088 0.42669 0.03213 0.0
H2565 H 0.51066 0.39821 0.04326 0.0
C2566 C 0.02716 0.36081 0.40838 0.0
C2567 C 0.03131 0.34872 0.42086 0.0
C2568 C 0.01058 0.35763 0.39707 0.0
C2569 C 0.96483 0.33242 0.39206 0.0
H2570 H 0.96378 0.34017 0.3382 0.0
C2571 C 0.89957 0.31748 0.34001 0.0
C2572 C 0.89666 0.3318 0.33016 0.0
C2573 C 0.91646 0.3172 0.34905 0.0
C2574 C 0.96388 0.33798 0.3532 0.0
H2575 H 0.02104 0.3242 0.43186 0.0
H2576 H 0.99205 0.31864 0.41201 0.0
H2577 H 0.9921 0.34507 0.35929 0.0
H2578 H 0.9093 0.35627 0.32072 0.0
H2579 H 0.93881 0.35592 0.33672 0.0
H2580 H 0.93661 0.32561 0.38607 0.0
C2581 C 1.00164 0.3306 0.41105 0.0
C2582 C 0.98006 0.34085 0.3653 0.0
C2583 C 0.01825 0.3338 0.42243 0.0
C2584 C 0.91115 0.34519 0.32841 0.0
C2585 C 0.92806 0.34489 0.33744 0.0
C2586 C 0.94865 0.32954 0.37996 0.0
C2587 C 0.9978 0.34229 0.39795 0.0
C2588 C 0.98067 0.33837 0.38493 0.0
C2589 C 0.93076 0.33121 0.34838 0.0
C2590 C 0.94801 0.33252 0.36049 0.0
H2591 H 0.03686 0.37252 0.40694 0.0
H2592 H 0.00784 0.36711 0.38744 0.0
H2593 H 0.96489 0.33055 0.40715 0.0
H2594 H 0.88864 0.30704 0.34173 0.0
H2595 H 0.91823 0.30635 0.35715 0.0
C2596 C 0.93945 0.69087 0.60153 0.0
C2597 C 0.95156 0.70698 0.60181 0.0
C2598 C 0.94 0.67538 0.58868 0.0
C2599 C 0.95686 0.64392 0.57921 0.0
H2600 H 0.98333 0.64289 0.53551 0.0
C2601 C 0.0121 0.60591 0.57583 0.0
C2602 C 0.01455 0.59601 0.55831 0.0
C2603 C 0.99932 0.61647 0.57605 0.0
C2604 C 0.97558 0.64277 0.54743 0.0
H2605 H 0.97265 0.72014 0.58787 0.0
H2606 H 0.97451 0.69302 0.56636 0.0
H2607 H 0.96768 0.66748 0.54269 0.0
H2608 H 1.00563 0.58939 0.52719 0.0
H2609 H 0.98316 0.60841 0.52751 0.0
H2610 H 0.96507 0.6195 0.5842 0.0
C2611 C 0.96409 0.69221 0.57541 0.0
C2612 C 0.96679 0.65697 0.55172 0.0
C2613 C 0.9631 0.70785 0.58782 0.0
C2614 C 1.00394 0.59691 0.54089 0.0
C2615 C 0.99116 0.60775 0.54107 0.0
C2616 C 0.96544 0.62972 0.57479 0.0
C2617 C 0.95326 0.67551 0.57652 0.0
C2618 C 0.95814 0.65827 0.56836 0.0
C2619 C 0.98868 0.61752 0.55873 0.0
C2620 C 0.97574 0.62956 0.5596 0.0
H2621 H 0.9303 0.68998 0.6121 0.0
H2622 H 0.93094 0.66299 0.58942 0.0
H2623 H 0.95051 0.64425 0.5922 0.0
H2624 H 0.02004 0.60546 0.5895 0.0
H2625 H 0.998 0.62413 0.58983 0.0
C2626 C 0.61053 0.82593 0.89649 0.0
C2627 C 0.61853 0.82509 0.91537 0.0
C2628 C 0.61797 0.82025 0.88018 0.0
C2629 C 0.63065 0.79705 0.84829 0.0
H2630 H 0.68 0.81595 0.84581 0.0
C2631 C 0.66863 0.77494 0.78507 0.0
C2632 C 0.68066 0.78875 0.77937 0.0
C2633 C 0.65967 0.77868 0.8009 0.0
C2634 C 0.66617 0.81061 0.8463 0.0
H2635 H 0.64077 0.81781 0.93197 0.0
H2636 H 0.6541 0.8081 0.90313 0.0
H2637 H 0.66788 0.82311 0.87599 0.0
H2638 H 0.6912 0.81758 0.78478 0.0
H2639 H 0.67558 0.82406 0.81209 0.0
H2640 H 0.62889 0.78473 0.81851 0.0
C2641 C 0.64194 0.81309 0.90115 0.0
C2642 C 0.65933 0.81453 0.86362 0.0
C2643 C 0.63434 0.81862 0.9176 0.0
C2644 C 0.68223 0.80657 0.78877 0.0
C2645 C 0.67342 0.81028 0.80463 0.0
C2646 C 0.63754 0.79297 0.83102 0.0
C2647 C 0.63368 0.81371 0.88229 0.0
C2648 C 0.64143 0.80803 0.86468 0.0
C2649 C 0.6626 0.79628 0.81133 0.0
C2650 C 0.6553 0.79997 0.82976 0.0
H2651 H 0.59836 0.83086 0.89421 0.0
H2652 H 0.61149 0.82118 0.86586 0.0
H2653 H 0.61682 0.79176 0.84878 0.0
H2654 H 0.66676 0.76111 0.77791 0.0
H2655 H 0.65122 0.76764 0.80564 0.0
C2656 C 0.4353 0.56721 0.73364 0.0
C2657 C 0.41807 0.57075 0.73076 0.0
C2658 C 0.44555 0.56597 0.71825 0.0
C2659 C 0.44321 0.56417 0.66261 0.0
H2660 H 0.49406 0.57045 0.67509 0.0
C2661 C 0.49127 0.56899 0.60273 0.0
C2662 C 0.50475 0.55886 0.60388 0.0
C2663 C 0.48083 0.57103 0.61794 0.0
C2664 C 0.47987 0.56856 0.67122 0.0
H2665 H 0.39845 0.57597 0.70882 0.0
H2666 H 0.41634 0.57473 0.68238 0.0
H2667 H 0.47619 0.57311 0.7012 0.0
H2668 H 0.51772 0.54322 0.62248 0.0
H2669 H 0.5002 0.54735 0.6491 0.0
H2670 H 0.44729 0.56031 0.63245 0.0
C2671 C 0.42197 0.57224 0.6964 0.0
C2672 C 0.46938 0.56994 0.6864 0.0
C2673 C 0.41156 0.57311 0.71177 0.0
C2674 C 0.50766 0.55127 0.62102 0.0
C2675 C 0.49752 0.55364 0.63637 0.0
C2676 C 0.45378 0.56315 0.64742 0.0
C2677 C 0.43929 0.56862 0.69919 0.0
C2678 C 0.4507 0.56759 0.68258 0.0
C2679 C 0.4837 0.56334 0.63508 0.0
C2680 C 0.47233 0.56515 0.65138 0.0
H2681 H 0.44087 0.56512 0.7479 0.0
H2682 H 0.4584 0.56266 0.7215 0.0
H2683 H 0.42905 0.56189 0.65846 0.0
H2684 H 0.48837 0.57489 0.58976 0.0
H2685 H 0.47048 0.5787 0.61626 0.0
C2686 C 0.82157 0.21661 0.97307 0.0
C2687 C 0.82502 0.22739 0.99159 0.0
C2688 C 0.81644 0.22372 0.95633 0.0
C2689 C 0.79667 0.26124 0.94051 0.0
H2690 H 0.81197 0.24575 0.8913 0.0
C2691 C 0.78247 0.29334 0.87062 0.0
C2692 C 0.77876 0.28182 0.85252 0.0
C2693 C 0.78747 0.28686 0.88788 0.0
C2694 C 0.80738 0.25006 0.90486 0.0
H2695 H 0.82617 0.25431 0.0069 0.0
H2696 H 0.81756 0.26684 0.97767 0.0
H2697 H 0.82291 0.23473 0.92055 0.0
H2698 H 0.7765 0.25414 0.8387 0.0
H2699 H 0.78504 0.24288 0.86864 0.0
H2700 H 0.7812 0.27667 0.92473 0.0
C2701 C 0.81851 0.25276 0.97611 0.0
C2702 C 0.81368 0.24374 0.9217 0.0
C2703 C 0.82363 0.24562 0.99288 0.0
C2704 C 0.77945 0.26349 0.85228 0.0
C2705 C 0.78447 0.25704 0.86948 0.0
C2706 C 0.79039 0.26762 0.92365 0.0
C2707 C 0.81463 0.24185 0.95761 0.0
C2708 C 0.80836 0.24914 0.93977 0.0
C2709 C 0.78891 0.2687 0.88748 0.0
C2710 C 0.79558 0.26203 0.90556 0.0
H2711 H 0.82238 0.20248 0.97151 0.0
H2712 H 0.81337 0.2148 0.94244 0.0
H2713 H 0.79203 0.26551 0.95405 0.0
H2714 H 0.78216 0.30755 0.87142 0.0
H2715 H 0.79085 0.29627 0.90143 0.0
C2716 C 0.08469 0.48938 0.23144 0.0
C2717 C 0.10282 0.48915 0.23547 0.0
C2718 C 0.07774 0.49436 0.21397 0.0
C2719 C 0.09196 0.52146 0.17667 0.0
H2720 H 0.04714 0.4976 0.14554 0.0
C2721 C 0.07242 0.53921 0.10124 0.0
C2722 C 0.05483 0.54041 0.09539 0.0
C2723 C 0.07706 0.53204 0.11799 0.0
C2724 C 0.05957 0.50456 0.15419 0.0
H2725 H 0.12766 0.49325 0.22384 0.0
H2726 H 0.11559 0.50184 0.19351 0.0
H2727 H 0.05749 0.48637 0.17518 0.0
H2728 H 0.02814 0.53463 0.10228 0.0
H2729 H 0.03631 0.52226 0.13205 0.0
H2730 H 0.09408 0.53978 0.1561 0.0
C2731 C 0.10676 0.49842 0.20394 0.0
C2732 C 0.06553 0.49808 0.17116 0.0
C2733 C 0.11367 0.49336 0.2213 0.0
C2734 C 0.04181 0.53385 0.10647 0.0
C2735 C 0.04651 0.52673 0.12346 0.0
C2736 C 0.08599 0.52797 0.15988 0.0
C2737 C 0.08879 0.49934 0.2002 0.0
C2738 C 0.08194 0.50631 0.18244 0.0
C2739 C 0.06429 0.52601 0.12961 0.0
C2740 C 0.06986 0.51947 0.14818 0.0
H2741 H 0.07594 0.48623 0.24204 0.0
H2742 H 0.06385 0.49498 0.2116 0.0
H2743 H 0.10443 0.52843 0.18525 0.0
H2744 H 0.08274 0.54396 0.09289 0.0
H2745 H 0.09078 0.53127 0.12186 0.0
C2746 C 0.77857 0.9311 0.55787 0.0
C2747 C 0.77432 0.94813 0.55706 0.0
C2748 C 0.77452 0.91774 0.54145 0.0
C2749 C 0.766 0.91182 0.48799 0.0
H2750 H 0.75343 0.86127 0.49325 0.0
C2751 C 0.75918 0.85523 0.42271 0.0
C2752 C 0.76953 0.84239 0.42628 0.0
C2753 C 0.75579 0.8671 0.43817 0.0
C2754 C 0.75687 0.87534 0.49157 0.0
H2755 H 0.76211 0.96437 0.5384 0.0
H2756 H 0.75484 0.94088 0.50967 0.0
H2757 H 0.75469 0.88451 0.5213 0.0
H2758 H 0.78357 0.83117 0.44876 0.0
H2759 H 0.77765 0.85192 0.47581 0.0
H2760 H 0.76849 0.90261 0.45835 0.0
C2761 C 0.76154 0.93799 0.52301 0.0
C2762 C 0.75766 0.88864 0.50762 0.0
C2763 C 0.76568 0.95142 0.53947 0.0
C2764 C 0.77569 0.84105 0.44562 0.0
C2765 C 0.77216 0.8528 0.46108 0.0
C2766 C 0.76508 0.89851 0.47191 0.0
C2767 C 0.766 0.92102 0.5238 0.0
C2768 C 0.76274 0.90702 0.50615 0.0
C2769 C 0.76254 0.86622 0.45747 0.0
C2770 C 0.76097 0.88015 0.4737 0.0
H2771 H 0.78527 0.92809 0.57115 0.0
H2772 H 0.77848 0.90498 0.54249 0.0
H2773 H 0.77013 0.92582 0.4864 0.0
H2774 H 0.75437 0.85664 0.40792 0.0
H2775 H 0.74825 0.87725 0.43502 0.0
C2776 C 0.44476 0.5639 0.84842 0.0
C2777 C 0.42854 0.56935 0.844 0.0
C2778 C 0.45256 0.56466 0.86767 0.0
C2779 C 0.44341 0.56707 0.91926 0.0
H2780 H 0.4946 0.57557 0.92987 0.0
C2781 C 0.48307 0.56986 0.99727 0.0
C2782 C 0.49752 0.56102 0.99811 0.0
C2783 C 0.47415 0.57203 0.97923 0.0
C2784 C 0.48028 0.57301 0.92721 0.0
H2785 H 0.40803 0.5802 0.85712 0.0
H2786 H 0.42188 0.58184 0.89109 0.0
H2787 H 0.48023 0.57835 0.89794 0.0
H2788 H 0.51378 0.54762 0.98026 0.0
H2789 H 0.49849 0.55158 0.94908 0.0
H2790 H 0.44368 0.56195 0.94886 0.0
C2791 C 0.42844 0.57673 0.87934 0.0
C2792 C 0.47195 0.57457 0.90875 0.0
C2793 C 0.42053 0.57596 0.85981 0.0
C2794 C 0.50277 0.55451 0.98034 0.0
C2795 C 0.49402 0.55688 0.96236 0.0
C2796 C 0.4518 0.56567 0.93789 0.0
C2797 C 0.44463 0.57103 0.88358 0.0
C2798 C 0.45334 0.57123 0.9042 0.0
C2799 C 0.47955 0.56568 0.96146 0.0
C2800 C 0.47039 0.56827 0.94204 0.0
H2801 H 0.45152 0.55869 0.83688 0.0
H2802 H 0.46472 0.55974 0.86998 0.0
H2803 H 0.4291 0.56427 0.91649 0.0
H2804 H 0.47858 0.57507 0.01058 0.0
H2805 H 0.46319 0.57899 0.97924 0.0
C2806 C 0.82494 0.24678 0.10808 0.0
C2807 C 0.8321 0.2314 0.11028 0.0
C2808 C 0.82175 0.25787 0.12449 0.0
C2809 C 0.83293 0.2701 0.17821 0.0
H2810 H 0.78453 0.27653 0.17704 0.0
C2811 C 0.80404 0.28889 0.24905 0.0
C2812 C 0.78992 0.29807 0.24858 0.0
C2813 C 0.81078 0.2836 0.23192 0.0
C2814 C 0.79823 0.2753 0.17763 0.0
H2815 H 0.84246 0.21622 0.13143 0.0
H2816 H 0.83751 0.23585 0.15994 0.0
H2817 H 0.79407 0.26302 0.14755 0.0
H2818 H 0.77245 0.30977 0.22993 0.0
H2819 H 0.78465 0.30133 0.20019 0.0
H2820 H 0.83725 0.28245 0.20816 0.0
C2821 C 0.83416 0.23926 0.1456 0.0
C2822 C 0.80367 0.26746 0.16064 0.0
C2823 C 0.83697 0.22799 0.12925 0.0
C2824 C 0.78326 0.30261 0.23074 0.0
C2825 C 0.79017 0.29756 0.21363 0.0
C2826 C 0.82759 0.27821 0.19513 0.0
C2827 C 0.82605 0.25404 0.14343 0.0
C2828 C 0.82098 0.26443 0.16082 0.0
C2829 C 0.80378 0.2876 0.21383 0.0
C2830 C 0.81002 0.28059 0.19526 0.0
H2831 H 0.82086 0.24964 0.09366 0.0
H2832 H 0.81557 0.26922 0.12237 0.0
H2833 H 0.84641 0.2681 0.17877 0.0
H2834 H 0.80943 0.28509 0.26254 0.0
H2835 H 0.82102 0.27575 0.23284 0.0
C2836 C 0.07567 0.50846 0.35026 0.0
C2837 C 0.09243 0.50482 0.34769 0.0
C2838 C 0.07094 0.5116 0.3689 0.0
C2839 C 0.08983 0.52811 0.42005 0.0
H2840 H 0.04269 0.50833 0.42992 0.0
C2841 C 0.06722 0.54175 0.49627 0.0
C2842 C 0.04959 0.54363 0.49671 0.0
C2843 C 0.07309 0.53651 0.47855 0.0
C2844 C 0.05584 0.51419 0.42739 0.0
H2845 H 0.11726 0.50134 0.36281 0.0
H2846 H 0.10899 0.50703 0.39558 0.0
H2847 H 0.05166 0.49926 0.39846 0.0
H2848 H 0.02448 0.54202 0.47871 0.0
H2849 H 0.03478 0.53342 0.44794 0.0
H2850 H 0.09388 0.54342 0.4488 0.0
C2851 C 0.09955 0.50742 0.38303 0.0
C2852 C 0.06101 0.50888 0.40935 0.0
C2853 C 0.10422 0.50402 0.36427 0.0
C2854 C 0.03811 0.54059 0.47897 0.0
C2855 C 0.044 0.53548 0.46128 0.0
C2856 C 0.08461 0.53355 0.43808 0.0
C2857 C 0.08288 0.51139 0.38555 0.0
C2858 C 0.07799 0.51592 0.40536 0.0
C2859 C 0.0615 0.53309 0.46082 0.0
C2860 C 0.06744 0.52683 0.44192 0.0
H2861 H 0.06623 0.50916 0.33783 0.0
H2862 H 0.05807 0.51477 0.3703 0.0
H2863 H 0.10294 0.53394 0.41736 0.0
H2864 H 0.07639 0.54378 0.50965 0.0
H2865 H 0.0866 0.53465 0.47886 0.0
C2866 C 0.80686 0.94233 0.68379 0.0
C2867 C 0.80128 0.93638 0.66376 0.0
C2868 C 0.80868 0.92989 0.69648 0.0
C2869 C 0.79263 0.88225 0.70058 0.0
H2870 H 0.82933 0.89297 0.74549 0.0
C2871 C 0.7973 0.83437 0.75791 0.0
C2872 C 0.79896 0.84311 0.77722 0.0
C2873 C 0.79967 0.84448 0.74277 0.0
C2874 C 0.81902 0.88979 0.73299 0.0
H2875 H 0.79378 0.91279 0.6412 0.0
H2876 H 0.79719 0.89114 0.66328 0.0
H2877 H 0.82977 0.91325 0.72129 0.0
H2878 H 0.80469 0.86911 0.79599 0.0
H2879 H 0.80888 0.88668 0.76972 0.0
H2880 H 0.78173 0.85895 0.71251 0.0
C2881 C 0.79986 0.90537 0.66926 0.0
C2882 C 0.81923 0.90143 0.71918 0.0
C2883 C 0.79798 0.91779 0.6566 0.0
C2884 C 0.80335 0.86202 0.78122 0.0
C2885 C 0.80588 0.87208 0.7662 0.0
C2886 C 0.79247 0.87056 0.71436 0.0
C2887 C 0.80502 0.91125 0.68938 0.0
C2888 C 0.80581 0.89801 0.70304 0.0
C2889 C 0.80393 0.86345 0.7468 0.0
C2890 C 0.80543 0.87445 0.73092 0.0
H2891 H 0.80947 0.95656 0.68974 0.0
H2892 H 0.81245 0.93486 0.71193 0.0
H2893 H 0.78198 0.8793 0.68843 0.0
H2894 H 0.79389 0.81978 0.75448 0.0
H2895 H 0.79813 0.8375 0.72794 0.0
C2896 C 0.65303 0.42963 0.5662 0.0
C2897 C 0.67011 0.43699 0.56272 0.0
C2898 C 0.64062 0.4407 0.56903 0.0
C2899 C 0.63725 0.48918 0.58138 0.0
H2900 H 0.58825 0.47163 0.5585 0.0
C2901 C 0.58579 0.53584 0.57328 0.0
C2902 C 0.56809 0.52844 0.57448 0.0
C2903 C 0.59872 0.52513 0.57431 0.0
C2904 C 0.60183 0.47672 0.56527 0.0
H2905 H 0.68741 0.46179 0.55934 0.0
H2906 H 0.66591 0.48081 0.56392 0.0
H2907 H 0.60931 0.45181 0.55521 0.0
H2908 H 0.55038 0.50455 0.57932 0.0
H2909 H 0.57278 0.48615 0.58158 0.0
H2910 H 0.62975 0.51421 0.59119 0.0
C2911 C 0.66208 0.46662 0.56487 0.0
C2912 C 0.61395 0.46529 0.56337 0.0
C2913 C 0.67442 0.45561 0.56207 0.0
C2914 C 0.56387 0.51058 0.57809 0.0
C2915 C 0.57671 0.49996 0.57922 0.0
C2916 C 0.62511 0.50064 0.58326 0.0
C2917 C 0.645 0.4594 0.56847 0.0
C2918 C 0.63188 0.47136 0.57128 0.0
C2919 C 0.5942 0.50683 0.57662 0.0
C2920 C 0.60722 0.4946 0.57518 0.0
H2921 H 0.64928 0.41537 0.56688 0.0
H2922 H 0.62766 0.43464 0.57193 0.0
H2923 H 0.65087 0.4943 0.58797 0.0
H2924 H 0.5894 0.54948 0.57023 0.0
H2925 H 0.61203 0.53092 0.57221 0.0
C2926 C 0.18345 0.09879 0.46933 0.0
C2927 C 0.19161 0.11672 0.46886 0.0
C2928 C 0.16624 0.09479 0.47382 0.0
C2929 C 0.13727 0.11634 0.50224 0.0
H2930 H 0.10144 0.07392 0.47975 0.0
C2931 C 0.07059 0.10287 0.5306 0.0
C2932 C 0.06381 0.08507 0.53289 0.0
C2933 C 0.08485 0.10667 0.52039 0.0
C2934 C 0.11138 0.08574 0.48628 0.0
H2935 H 0.18769 0.14431 0.47121 0.0
H2936 H 0.15767 0.1373 0.47896 0.0
H2937 H 0.12855 0.08065 0.46517 0.0
H2938 H 0.06622 0.05718 0.52602 0.0
H2939 H 0.09158 0.06383 0.50862 0.0
H2940 H 0.12059 0.12123 0.5237 0.0
C2941 C 0.16467 0.12639 0.4762 0.0
C2942 C 0.12685 0.08962 0.47788 0.0
C2943 C 0.18183 0.13038 0.47167 0.0
C2944 C 0.07129 0.07104 0.52449 0.0
C2945 C 0.0857 0.07485 0.5144 0.0
C2946 C 0.12192 0.11243 0.51069 0.0
C2947 C 0.15692 0.10865 0.47794 0.0
C2948 C 0.13996 0.10494 0.48583 0.0
C2949 C 0.09277 0.09275 0.51242 0.0
C2950 C 0.1088 0.09706 0.50287 0.0
H2951 H 0.19063 0.08795 0.46716 0.0
H2952 H 0.16063 0.081 0.47513 0.0
H2953 H 0.1473 0.12803 0.50897 0.0
H2954 H 0.0649 0.1139 0.53677 0.0
H2955 H 0.08971 0.12055 0.51881 0.0
C2956 C 0.18203 0.96936 0.81049 0.0
C2957 C 0.19272 0.98686 0.81323 0.0
C2958 C 0.18936 0.95358 0.80904 0.0
C2959 C 0.232 0.93646 0.80155 0.0
H2960 H 0.20701 0.89321 0.81721 0.0
C2961 C 0.26369 0.87153 0.80418 0.0
C2962 C 0.25269 0.85414 0.80066 0.0
C2963 C 0.25662 0.8875 0.80553 0.0
C2964 C 0.21422 0.90498 0.81246 0.0
H2965 H 0.22002 1.00082 0.81659 0.0
H2966 H 0.23277 0.97367 0.81441 0.0
H2967 H 0.19481 0.92046 0.82005 0.0
H2968 H 0.22515 0.84063 0.79583 0.0
H2969 H 0.21295 0.86804 0.79797 0.0
H2970 H 0.25148 0.92094 0.79409 0.0
C2971 C 0.21853 0.97197 0.81305 0.0
C2972 C 0.20709 0.92091 0.81411 0.0
C2973 C 0.21116 0.98778 0.81447 0.0
C2974 C 0.23426 0.85354 0.79851 0.0
C2975 C 0.22719 0.86951 0.79994 0.0
C2976 C 0.23915 0.92053 0.79995 0.0
C2977 C 0.20783 0.95438 0.81027 0.0
C2978 C 0.21573 0.93712 0.80865 0.0
C2979 C 0.23816 0.88696 0.80355 0.0
C2980 C 0.23045 0.90431 0.80532 0.0
H2981 H 0.1678 0.96778 0.80931 0.0
H2982 H 0.18032 0.94065 0.80658 0.0
H2983 H 0.23921 0.94822 0.79679 0.0
H2984 H 0.27792 0.87287 0.80608 0.0
H2985 H 0.2658 0.90036 0.80856 0.0
C2986 C 0.26582 0.96846 0.04858 0.0
C2987 C 0.26142 0.95034 0.05116 0.0
C2988 C 0.28339 0.97761 0.05195 0.0
C2989 C 0.32896 0.97481 0.07313 0.0
H2990 H 0.34219 0.00572 0.03526 0.0
C2991 C 0.39932 0.99388 0.05347 0.0
C2992 C 0.40506 0.01153 0.0499 0.0
C2993 C 0.38229 0.98841 0.05783 0.0
C2994 C 0.33867 0.9974 0.04617 0.0
H2995 H 0.27188 0.92768 0.05979 0.0
H2996 H 0.30275 0.9434 0.06487 0.0
H2997 H 0.31135 0.99199 0.03442 0.0
H2998 H 0.3979 0.03757 0.04897 0.0
H2999 H 0.36793 0.02793 0.0564 0.0
H3000 H 0.35665 0.9796 0.0841 0.0
C3001 C 0.29259 0.95073 0.06073 0.0
C3002 C 0.32095 0.98952 0.04573 0.0
C3003 C 0.27492 0.94166 0.05769 0.0
C3004 C 0.39378 0.0239 0.05171 0.0
C3005 C 0.37665 0.01836 0.05584 0.0
C3006 C 0.34677 0.98253 0.07339 0.0
C3007 C 0.29706 0.96876 0.05761 0.0
C3008 C 0.31586 0.97798 0.05908 0.0
C3009 C 0.37063 1.00045 0.05848 0.0
C3010 C 0.35177 0.99376 0.05979 0.0
H3011 H 0.25565 0.97561 0.0439 0.0
H3012 H 0.28626 0.99161 0.04991 0.0
H3013 H 0.3255 0.96623 0.08382 0.0
H3014 H 0.40787 0.98416 0.05234 0.0
H3015 H 0.37794 0.9745 0.05966 0.0
C3016 C 0.90773 0.67816 0.80773 0.0
C3017 C 0.89973 0.66055 0.79849 0.0
C3018 C 0.89878 0.69246 0.80652 0.0
C3019 C 0.86292 0.70657 0.77643 0.0
H3020 H 0.86201 0.74005 0.82297 0.0
C3021 C 0.81465 0.75632 0.7788 0.0
C3022 C 0.81965 0.77273 0.7917 0.0
C3023 C 0.82561 0.7436 0.77844 0.0
C3024 C 0.86236 0.73108 0.8097 0.0
H3025 H 0.87603 0.64424 0.78066 0.0
H3026 H 0.86057 0.66916 0.77843 0.0
H3027 H 0.87874 0.71614 0.82499 0.0
H3028 H 0.84051 0.78926 0.81318 0.0
H3029 H 0.86 0.76755 0.81218 0.0
H3030 H 0.8467 0.72153 0.76105 0.0
C3031 C 0.87376 0.67193 0.78658 0.0
C3032 C 0.87193 0.71729 0.81092 0.0
C3033 C 0.8826 0.65761 0.788 0.0
C3034 C 0.83625 0.77659 0.80339 0.0
C3035 C 0.84733 0.76404 0.80286 0.0
C3036 C 0.85349 0.72048 0.77516 0.0
C3037 C 0.88173 0.68955 0.79581 0.0
C3038 C 0.87218 0.70473 0.79435 0.0
C3039 C 0.84197 0.7471 0.7908 0.0
C3040 C 0.8529 0.73286 0.79182 0.0
H3041 H 0.92091 0.6809 0.8159 0.0
H3042 H 0.90534 0.70588 0.81371 0.0
H3043 H 0.86304 0.69729 0.76331 0.0
H3044 H 0.80184 0.75288 0.76974 0.0
H3045 H 0.82085 0.73071 0.76907 0.0
C3046 C 0.80175 0.58789 0.9855 0.0
C3047 C 0.7855 0.58088 0.99133 0.0
C3048 C 0.81668 0.58061 0.99034 0.0
C3049 C 0.83504 0.55793 0.02814 0.0
H3050 H 0.86802 0.54704 0.99294 0.0
C3051 C 0.89483 0.52715 0.05296 0.0
C3052 C 0.9107 0.5332 0.04595 0.0
C3053 C 0.87913 0.5318 0.04527 0.0
C3054 C 0.85906 0.55022 0.00304 0.0
H3055 H 0.77202 0.56003 0.00583 0.0
H3056 H 0.79798 0.54757 0.01428 0.0
H3057 H 0.84153 0.55741 0.98069 0.0
H3058 H 0.92275 0.5492 0.0258 0.0
H3059 H 0.89561 0.55768 0.01278 0.0
H3060 H 0.85268 0.55138 0.05066 0.0
C3061 C 0.79922 0.55877 0.00617 0.0
C3062 C 0.84387 0.5561 0.99597 0.0
C3063 C 0.78432 0.5659 1.00122 0.0
C3064 C 0.91062 0.54405 0.03122 0.0
C3065 C 0.89502 0.54886 0.02371 0.0
C3066 C 0.85031 0.55228 0.03528 0.0
C3067 C 0.81562 0.56632 1.00121 0.0
C3068 C 0.83171 0.55996 0.00845 0.0
C3069 C 0.87905 0.5428 0.0306 0.0
C3070 C 0.86254 0.54835 0.02283 0.0
H3071 H 0.80312 0.59941 0.97787 0.0
H3072 H 0.8292 0.58668 0.98635 0.0
H3073 H 0.826 0.56109 0.03816 0.0
H3074 H 0.89453 0.5187 0.06424 0.0
H3075 H 0.86705 0.52665 0.05074 0.0
C3076 C 0.18143 0.11752 0.81011 0.0
C3077 C 0.19012 0.10349 0.81458 0.0
C3078 C 0.19071 0.13482 0.80878 0.0
C3079 C 0.23408 0.16791 0.82203 0.0
H3080 H 0.21331 0.19083 0.78144 0.0
C3081 C 0.26552 0.24163 0.80742 0.0
C3082 C 0.25372 0.25229 0.80073 0.0
C3083 C 0.25937 0.2233 0.80944 0.0
C3084 C 0.21929 0.18494 0.79312 0.0
H3085 H 0.21618 0.09769 0.82156 0.0
H3086 H 0.23256 0.12822 0.81937 0.0
H3087 H 0.20039 0.16008 0.78436 0.0
H3088 H 0.22599 0.25165 0.79155 0.0
H3089 H 0.21545 0.22057 0.79527 0.0
H3090 H 0.25297 0.19307 0.83081 0.0
C3091 C 0.21825 0.12551 0.81684 0.0
C3092 C 0.2118 0.16702 0.79477 0.0
C3093 C 0.20882 0.10787 0.81806 0.0
C3094 C 0.23564 0.24403 0.79651 0.0
C3095 C 0.22954 0.22591 0.79853 0.0
C3096 C 0.2416 0.18601 0.82041 0.0
C3097 C 0.20932 0.13928 0.81186 0.0
C3098 C 0.21876 0.15814 0.80946 0.0
C3099 C 0.2412 0.21495 0.80479 0.0
C3100 C 0.23415 0.19508 0.80611 0.0
H3101 H 0.16712 0.11519 0.80743 0.0
H3102 H 0.18311 0.14485 0.80539 0.0
H3103 H 0.23995 0.16178 0.83358 0.0
H3104 H 0.27953 0.24737 0.81088 0.0
H3105 H 0.26895 0.21558 0.81427 0.0
C3106 C 0.38176 0.05687 0.30034 0.0
C3107 C 0.39791 0.0555 0.29361 0.0
C3108 C 0.37008 0.04141 0.30306 0.0
C3109 C 0.37 0.9947 0.31155 0.0
H3110 H 0.31912 0.98733 0.29776 0.0
C3111 C 0.32499 0.92616 0.31097 0.0
C3112 C 0.30917 0.9259 0.31895 0.0
C3113 C 0.33505 0.94236 0.30787 0.0
C3114 C 0.33329 0.9893 0.30189 0.0
H3115 H 0.41404 0.03668 0.28367 0.0
H3116 H 0.39366 0.00986 0.28814 0.0
H3117 H 0.33799 0.01492 0.29194 0.0
H3118 H 0.29138 0.9425 0.32961 0.0
H3119 H 0.30905 0.97094 0.32417 0.0
H3120 H 0.36542 0.96916 0.32143 0.0
C3121 C 0.39017 0.02289 0.29174 0.0
C3122 C 0.34409 0.00509 0.29854 0.0
C3123 C 0.40182 0.03829 0.28906 0.0
C3124 C 0.30346 0.94224 0.32337 0.0
C3125 C 0.31356 0.95852 0.32023 0.0
C3126 C 0.35924 0.97897 0.31486 0.0
C3127 C 0.3743 0.02426 0.29909 0.0
C3128 C 0.3626 0.00786 0.30313 0.0
C3129 C 0.32958 0.95876 0.31264 0.0
C3130 C 0.34078 0.97597 0.30987 0.0
H3131 H 0.37833 0.06992 0.30399 0.0
H3132 H 0.358 0.04294 0.30883 0.0
H3133 H 0.38416 0.99659 0.3157 0.0
H3134 H 0.32955 0.91378 0.30692 0.0
H3135 H 0.3471 0.94202 0.30158 0.0
C3136 C 0.52222 0.35488 0.68659 0.0
C3137 C 0.51636 0.33644 0.67916 0.0
C3138 C 0.52031 0.368 0.67468 0.0
C3139 C 0.5109 0.3737 0.62222 0.0
H3140 H 0.50216 0.41987 0.64493 0.0
C3141 C 0.49073 0.42675 0.57603 0.0
C3142 C 0.50016 0.44459 0.58206 0.0
C3143 C 0.49258 0.41342 0.58769 0.0
C3144 C 0.50469 0.40707 0.63839 0.0
H3145 H 0.50368 0.31733 0.65341 0.0
H3146 H 0.49974 0.34007 0.6329 0.0
H3147 H 0.50548 0.39699 0.66553 0.0
H3148 H 0.5186 0.46247 0.60527 0.0
H3149 H 0.52162 0.43929 0.62569 0.0
H3150 H 0.50962 0.38378 0.59496 0.0
C3151 C 0.50633 0.34452 0.64774 0.0
C3152 C 0.50671 0.39394 0.65023 0.0
C3153 C 0.50847 0.33142 0.65957 0.0
C3154 C 0.51128 0.44882 0.60012 0.0
C3155 C 0.51291 0.43558 0.61189 0.0
C3156 C 0.50863 0.38676 0.61034 0.0
C3157 C 0.51224 0.36304 0.65507 0.0
C3158 C 0.50994 0.37706 0.64237 0.0
C3159 C 0.50364 0.41771 0.6058 0.0
C3160 C 0.50559 0.40363 0.61831 0.0
H3161 H 0.52845 0.3592 0.7016 0.0
H3162 H 0.52537 0.38204 0.68085 0.0
H3163 H 0.51371 0.36108 0.61559 0.0
H3164 H 0.48211 0.42307 0.56217 0.0
H3165 H 0.48519 0.39979 0.58264 0.0
C3166 C 0.47191 0.82641 0.33504 0.0
C3167 C 0.4787 0.81489 0.34678 0.0
C3168 C 0.45366 0.82514 0.33033 0.0
C3169 C 0.40984 0.79584 0.32387 0.0
H3170 H 0.3935 0.84062 0.33499 0.0
C3171 C 0.33444 0.79985 0.31122 0.0
C3172 C 0.33019 0.81634 0.30754 0.0
C3173 C 0.35226 0.79829 0.31549 0.0
C3174 C 0.3977 0.82799 0.33131 0.0
H3175 H 0.47121 0.79253 0.36226 0.0
H3176 H 0.4391 0.78997 0.35345 0.0
H3177 H 0.42459 0.84016 0.34313 0.0
H3178 H 0.34125 0.84375 0.30441 0.0
H3179 H 0.37189 0.84082 0.31035 0.0
H3180 H 0.38304 0.78376 0.31135 0.0
C3181 C 0.44813 0.80014 0.34812 0.0
C3182 C 0.41565 0.82773 0.33623 0.0
C3183 C 0.46653 0.80164 0.3532 0.0
C3184 C 0.34408 0.83087 0.30724 0.0
C3185 C 0.36176 0.82923 0.31101 0.0
C3186 C 0.39183 0.79614 0.31856 0.0
C3187 C 0.44148 0.8121 0.33687 0.0
C3188 C 0.42204 0.81173 0.33247 0.0
C3189 C 0.36628 0.81313 0.3159 0.0
C3190 C 0.38544 0.81231 0.32197 0.0
H3191 H 0.48073 0.83683 0.3298 0.0
H3192 H 0.44903 0.83448 0.32154 0.0
H3193 H 0.41434 0.78329 0.3207 0.0
H3194 H 0.32402 0.78849 0.31189 0.0
H3195 H 0.35496 0.78566 0.31923 0.0
C3196 C 0.01562 0.71774 0.19844 0.0
C3197 C 0.01693 0.7345 0.19186 0.0
C3198 C 0.01528 0.70197 0.18547 0.0
C3199 C 0.02988 0.68617 0.13939 0.0
H3200 H 0.99678 0.64172 0.14016 0.0
C3201 C 0.02694 0.62162 0.08396 0.0
C3202 C 0.02299 0.6048 0.09028 0.0
C3203 C 0.02564 0.63749 0.09585 0.0
C3204 C 0.00633 0.65392 0.1399 0.0
H3205 H 0.01871 0.74773 0.16634 0.0
H3206 H 0.01836 0.72021 0.14377 0.0
H3207 H 0.9953 0.66911 0.16173 0.0
H3208 H 0.01487 0.59158 0.11431 0.0
H3209 H 0.01321 0.61918 0.13525 0.0
H3210 H 0.04132 0.67101 0.11807 0.0
C3211 C 0.01756 0.71931 0.15899 0.0
C3212 C 1.00539 0.66966 0.15224 0.0
C3213 C 0.01763 0.73505 0.17191 0.0
C3214 C 0.01788 0.60428 0.10888 0.0
C3215 C 0.01679 0.62016 0.12087 0.0
C3216 C 0.03098 0.67038 0.12723 0.0
C3217 C 0.0165 0.7026 0.16565 0.0
C3218 C 0.01716 0.68597 0.15214 0.0
C3219 C 0.02056 0.63702 0.11452 0.0
C3220 C 0.01925 0.65398 0.12732 0.0
H3221 H 0.01505 0.7168 0.21369 0.0
H3222 H 0.01457 0.68934 0.19108 0.0
H3223 H 0.0393 0.69848 0.13916 0.0
H3224 H 0.03078 0.62252 0.06966 0.0
H3225 H 0.02836 0.6501 0.09023 0.0
C3226 C 0.10323 0.32117 0.87963 0.0
C3227 C 0.08794 0.3189 0.86587 0.0
C3228 C 0.1199 0.32126 0.87373 0.0
C3229 C 0.14214 0.30897 0.83024 0.0
H3230 H 0.1836 0.33877 0.8631 0.0
C3231 C 0.21232 0.31827 0.80623 0.0
C3232 C 0.22659 0.31756 0.82034 0.0
C3233 C 0.19548 0.31899 0.81143 0.0
C3234 C 0.1722 0.33024 0.85379 0.0
H3235 H 0.07841 0.315 0.83492 0.0
H3236 H 0.10748 0.3156 0.82458 0.0
H3237 H 0.15442 0.339 0.87245 0.0
H3238 H 0.23418 0.31762 0.85116 0.0
H3239 H 0.20503 0.31901 0.86025 0.0
H3240 H 0.16005 0.30046 0.81146 0.0
C3241 C 0.10659 0.31695 0.84002 0.0
C3242 C 0.15535 0.33031 0.8592 0.0
C3243 C 0.08985 0.31671 0.84596 0.0
C3244 C 0.22358 0.31804 0.83986 0.0
C3245 C 0.20681 0.31896 0.8451 0.0
C3246 C 0.159 0.30904 0.82475 0.0
C3247 C 0.12196 0.31926 0.85382 0.0
C3248 C 0.13999 0.31956 0.84763 0.0
C3249 C 0.19242 0.31924 0.83094 0.0
C3250 C 0.17432 0.31958 0.8365 0.0
H3251 H 0.10233 0.32276 0.8951 0.0
H3252 H 0.13117 0.32267 0.8849 0.0
H3253 H 0.13082 0.30027 0.821 0.0
H3254 H 0.21405 0.31787 0.79104 0.0
H3255 H 0.18485 0.31941 0.80013 0.0
C3256 C 0.54919 0.77749 0.97352 0.0
C3257 C 0.56411 0.78963 0.98412 0.0
C3258 C 0.54104 0.7628 0.98143 0.0
C3259 C 0.53641 0.7463 0.02818 0.0
H3260 H 0.52306 0.69914 0.99592 0.0
C3261 C 0.5208 0.68018 0.05981 0.0
C3262 C 0.50794 0.66578 0.04905 0.0
C3263 C 0.52559 0.6961 0.05222 0.0
C3264 C 0.52639 0.71226 0.00505 0.0
H3265 H 0.58221 0.79588 0.0113 0.0
H3266 H 0.56804 0.77015 0.02506 0.0
H3267 H 0.53578 0.72518 0.98183 0.0
H3268 H 0.48928 0.65718 0.0224 0.0
H3269 H 0.49753 0.68509 0.00919 0.0
H3270 H 0.52716 0.73335 0.05146 0.0
C3271 C 0.56254 0.77211 0.01072 0.0
C3272 C 0.53374 0.72718 0.99698 0.0
C3273 C 0.57073 0.78676 0.00277 0.0
C3274 C 0.49941 0.66795 0.0309 0.0
C3275 C 0.50417 0.68391 0.02333 0.0
C3276 C 0.52899 0.73138 0.03625 0.0
C3277 C 0.54759 0.75998 1.00014 0.0
C3278 C 0.53903 0.74432 0.00851 0.0
C3279 C 0.5176 0.69801 0.03372 0.0
C3280 C 0.52409 0.71415 0.02483 0.0
H3281 H 0.54372 0.77937 0.95914 0.0
H3282 H 0.52946 0.75377 0.973 0.0
H3283 H 0.54007 0.75939 0.03735 0.0
H3284 H 0.52782 0.67884 0.07369 0.0
H3285 H 0.53615 0.70657 0.0605 0.0
C3286 C 0.02152 0.76454 0.69504 0.0
C3287 C 0.01954 0.76068 0.67458 0.0
C3288 C 0.038 0.76627 0.70621 0.0
C3289 C 0.08585 0.77465 0.70284 0.0
H3290 H 0.08902 0.75609 0.75188 0.0
C3291 C 0.14225 0.75633 0.761 0.0
C3292 C 0.15595 0.7713 0.76155 0.0
C3293 C 0.12523 0.756 0.7518 0.0
C3294 C 0.08838 0.76126 0.73818 0.0
H3295 H 0.0332 0.75532 0.64977 0.0
H3296 H 0.06196 0.75788 0.66932 0.0
H3297 H 0.06029 0.75259 0.73218 0.0
H3298 H 0.16232 0.79799 0.75353 0.0
H3299 H 0.13249 0.79768 0.73811 0.0
H3300 H 0.11401 0.78267 0.70845 0.0
C3301 C 0.05084 0.75996 0.67671 0.0
C3302 C 0.07188 0.75944 0.72698 0.0
C3303 C 0.03434 0.75836 0.66551 0.0
C3304 C 0.15205 0.7863 0.75351 0.0
C3305 C 0.135 0.78601 0.7444 0.0
C3306 C 0.10236 0.77637 0.71398 0.0
C3307 C 0.05287 0.76404 0.69719 0.0
C3308 C 0.07042 0.76606 0.70914 0.0
C3309 C 0.1215 0.77069 0.74306 0.0
C3310 C 0.10384 0.76964 0.73174 0.0
H3311 H 0.01038 0.76653 0.70246 0.0
H3312 H 0.03913 0.7697 0.72191 0.0
H3313 H 0.08519 0.78013 0.68932 0.0
H3314 H 0.14476 0.74467 0.76731 0.0
H3315 H 0.11519 0.74393 0.75093 0.0
C3316 C 0.08596 0.38662 0.51761 0.0
C3317 C 0.09284 0.39086 0.50066 0.0
C3318 C 0.08227 0.40018 0.53116 0.0
C3319 C 0.08718 0.45038 0.54344 0.0
H3320 H 0.04037 0.43777 0.5579 0.0
C3321 C 0.05223 0.50648 0.57018 0.0
C3322 C 0.03448 0.50408 0.56199 0.0
C3323 C 0.06073 0.49184 0.56963 0.0
C3324 C 0.05345 0.44157 0.55396 0.0
H3325 H 0.10264 0.41288 0.48558 0.0
H3326 H 0.09591 0.43626 0.50872 0.0
H3327 H 0.05429 0.41414 0.54367 0.0
H3328 H 0.01127 0.48448 0.54774 0.0
H3329 H 0.02616 0.45903 0.54577 0.0
H3330 H 0.08576 0.47785 0.55196 0.0
C3331 C 0.09349 0.42258 0.51183 0.0
C3332 C 0.0616 0.42794 0.54608 0.0
C3333 C 0.09727 0.40908 0.4984 0.0
C3334 C 0.02498 0.48663 0.55429 0.0
C3335 C 0.03357 0.47202 0.55326 0.0
C3336 C 0.07892 0.464 0.55099 0.0
C3337 C 0.08534 0.41825 0.52802 0.0
C3338 C 0.07831 0.43223 0.54004 0.0
C3339 C 0.05176 0.47454 0.56029 0.0
C3340 C 0.06167 0.45985 0.55573 0.0
H3341 H 0.08253 0.37273 0.51992 0.0
H3342 H 0.07637 0.3964 0.54368 0.0
H3343 H 0.10023 0.45418 0.53942 0.0
H3344 H 0.05971 0.51978 0.57647 0.0
H3345 H 0.07455 0.49428 0.5758 0.0
C3346 C 0.42111 0.2462 0.20365 0.0
C3347 C 0.42752 0.25808 0.19118 0.0
C3348 C 0.4134 0.25235 0.21961 0.0
C3349 C 0.39394 0.28829 0.2429 0.0
H3350 H 0.41818 0.2784 0.29086 0.0
C3351 C 0.37917 0.3196 0.31645 0.0
C3352 C 0.37648 0.30796 0.33031 0.0
C3353 C 0.38726 0.31483 0.30029 0.0
C3354 C 0.41114 0.28113 0.27764 0.0
H3355 H 0.42913 0.28523 0.18446 0.0
H3356 H 0.41525 0.29587 0.21228 0.0
H3357 H 0.42565 0.26627 0.25953 0.0
H3358 H 0.38193 0.28311 0.33909 0.0
H3359 H 0.39567 0.27453 0.31064 0.0
H3360 H 0.379 0.30265 0.26082 0.0
C3361 C 0.41648 0.28187 0.20977 0.0
C3362 C 0.41542 0.27418 0.2597 0.0
C3363 C 0.42433 0.27574 0.1938 0.0
C3364 C 0.38362 0.29228 0.32857 0.0
C3365 C 0.39161 0.28742 0.31227 0.0
C3366 C 0.38947 0.29504 0.26084 0.0
C3367 C 0.41177 0.27044 0.22332 0.0
C3368 C 0.40684 0.27766 0.24218 0.0
C3369 C 0.3927 0.29823 0.29745 0.0
C3370 C 0.39804 0.29159 0.27846 0.0
H3371 H 0.42313 0.23244 0.20189 0.0
H3372 H 0.4095 0.24316 0.22961 0.0
H3373 H 0.38709 0.29107 0.22959 0.0
H3374 H 0.37381 0.33177 0.31719 0.0
H3375 H 0.38845 0.3238 0.28954 0.0
C3376 C 0.62406 0.5284 0.37731 0.0
C3377 C 0.63177 0.54482 0.37178 0.0
C3378 C 0.61439 0.52813 0.39337 0.0
C3379 C 0.59214 0.55901 0.42574 0.0
H3380 H 0.58472 0.51902 0.45454 0.0
C3381 C 0.54306 0.55786 0.48295 0.0
C3382 C 0.5457 0.54933 0.49941 0.0
C3383 C 0.55314 0.55606 0.46752 0.0
C3384 C 0.58669 0.53048 0.44688 0.0
H3385 H 0.6357 0.5738 0.37955 0.0
H3386 H 0.62022 0.57347 0.40775 0.0
H3387 H 0.60364 0.51856 0.42903 0.0
H3388 H 0.56133 0.53193 0.51214 0.0
H3389 H 0.5792 0.52909 0.48564 0.0
H3390 H 0.57595 0.57134 0.44392 0.0
C3391 C 0.6208 0.56062 0.39947 0.0
C3392 C 0.59751 0.5301 0.43186 0.0
C3393 C 0.63011 0.56086 0.38334 0.0
C3394 C 0.55866 0.53856 0.49967 0.0
C3395 C 0.56899 0.53694 0.48429 0.0
C3396 C 0.58153 0.55947 0.4408 0.0
C3397 C 0.61216 0.54429 0.40458 0.0
C3398 C 0.60054 0.5444 0.42091 0.0
C3399 C 0.56667 0.54591 0.46794 0.0
C3400 C 0.5784 0.5452 0.45173 0.0
H3401 H 0.62462 0.51574 0.36856 0.0
H3402 H 0.60803 0.51517 0.39641 0.0
H3403 H 0.59349 0.57025 0.41772 0.0
H3404 H 0.53325 0.56625 0.48208 0.0
H3405 H 0.55023 0.56281 0.45523 0.0
C3406 C 0.22343 0.86206 0.10607 0.0
C3407 C 0.22569 0.88089 0.10698 0.0
C3408 C 0.22938 0.85459 0.1223 0.0
C3409 C 0.24046 0.86502 0.17597 0.0
H3410 H 0.26642 0.82623 0.17058 0.0
C3411 C 0.27343 0.84258 0.24394 0.0
C3412 C 0.27287 0.82407 0.24394 0.0
C3413 C 0.26857 0.84906 0.22673 0.0
C3414 C 0.259 0.83691 0.17236 0.0
H3415 H 0.23598 0.90659 0.12574 0.0
H3416 H 0.24613 0.89362 0.15398 0.0
H3417 H 0.25561 0.83808 0.14164 0.0
H3418 H 0.26726 0.79788 0.2256 0.0
H3419 H 0.2584 0.80911 0.19552 0.0
H3420 H 0.24345 0.86376 0.20649 0.0
C3421 C 0.23972 0.88459 0.14076 0.0
C3422 C 0.25282 0.84371 0.15573 0.0
C3423 C 0.23396 0.89204 0.12452 0.0
C3424 C 0.26795 0.81224 0.22609 0.0
C3425 C 0.26287 0.81872 0.20883 0.0
C3426 C 0.24648 0.85814 0.19252 0.0
C3427 C 0.23753 0.86578 0.13989 0.0
C3428 C 0.24362 0.85799 0.15737 0.0
C3429 C 0.26275 0.83719 0.20898 0.0
C3430 C 0.25603 0.84412 0.19104 0.0
H3431 H 0.21716 0.85307 0.09278 0.0
H3432 H 0.22735 0.84005 0.12117 0.0
H3433 H 0.23313 0.87577 0.17774 0.0
H3434 H 0.27735 0.85213 0.25736 0.0
H3435 H 0.2692 0.86342 0.22743 0.0
C3436 C 0.97875 0.60798 0.86769 0.0
C3437 C 0.96164 0.60992 0.86045 0.0
C3438 C 0.98313 0.60626 0.88724 0.0
C3439 C 0.96245 0.58882 0.92686 0.0
H3440 H 0.00766 0.61027 0.95852 0.0
C3441 C 0.97861 0.57215 0.00408 0.0
C3442 C 0.99594 0.57034 0.01035 0.0
C3443 C 0.97463 0.57922 0.98704 0.0
C3444 C 0.99505 0.60397 0.94982 0.0
H3445 H 0.93594 0.61233 0.86832 0.0
H3446 H 0.94355 0.60912 0.90257 0.0
H3447 H 1.00032 0.61939 0.92686 0.0
H3448 H 0.02276 0.57474 0.00385 0.0
H3449 H 0.01581 0.58653 0.9736 0.0
H3450 H 0.95736 0.57282 0.94917 0.0
C3451 C 0.95357 0.60896 0.89302 0.0
C3452 C 0.9908 0.60932 0.93171 0.0
C3453 C 0.94925 0.61096 0.87347 0.0
C3454 C 0.00931 0.57604 0.99937 0.0
C3455 C 1.00529 0.5829 0.98208 0.0
C3456 C 0.96676 0.58331 0.94481 0.0
C3457 C 0.97045 0.60619 0.90001 0.0
C3458 C 0.97448 0.60174 0.91997 0.0
C3459 C 0.98782 0.5844 0.97554 0.0
C3460 C 0.98316 0.59074 0.95657 0.0
H3461 H 0.98862 0.60714 0.85805 0.0
H3462 H 0.9962 0.60404 0.89208 0.0
H3463 H 0.94992 0.58244 0.91802 0.0
H3464 H 0.96804 0.56802 0.01236 0.0
H3465 H 0.96113 0.58056 0.98288 0.0
C3466 C 0.24712 0.15401 0.5593 0.0
C3467 C 0.25344 0.15699 0.54173 0.0
C3468 C 0.25156 0.16747 0.57569 0.0
C3469 C 0.26453 0.21647 0.58924 0.0
H3470 H 0.27607 0.20555 0.64126 0.0
C3471 C 0.28506 0.25468 0.67433 0.0
C3472 C 0.27147 0.26451 0.6755 0.0
C3473 C 0.2852 0.24261 0.65749 0.0
C3474 C 0.27309 0.20885 0.6268 0.0
H3475 H 0.26969 0.17634 0.52775 0.0
H3476 H 0.27735 0.19976 0.55636 0.0
H3477 H 0.27205 0.18178 0.61306 0.0
H3478 H 0.24762 0.26966 0.65971 0.0
H3479 H 0.24805 0.24884 0.6303 0.0
H3480 H 0.26532 0.24347 0.60298 0.0
C3481 C 0.26888 0.18706 0.55737 0.0
C3482 C 0.2706 0.19521 0.6107 0.0
C3483 C 0.26453 0.1736 0.54103 0.0
C3484 C 0.25843 0.26252 0.6592 0.0
C3485 C 0.25865 0.25056 0.64235 0.0
C3486 C 0.2669 0.23007 0.60533 0.0
C3487 C 0.26232 0.18419 0.57481 0.0
C3488 C 0.26609 0.19885 0.59179 0.0
C3489 C 0.27185 0.24025 0.64146 0.0
C3490 C 0.27097 0.22633 0.62428 0.0
H3491 H 0.23858 0.14136 0.56034 0.0
H3492 H 0.24617 0.16496 0.58891 0.0
H3493 H 0.26093 0.21962 0.57483 0.0
H3494 H 0.29547 0.25614 0.68651 0.0
H3495 H 0.29566 0.23499 0.65707 0.0
C3496 C 0.64405 0.54317 0.24205 0.0
C3497 C 0.63604 0.53464 0.25638 0.0
C3498 C 0.63403 0.54474 0.22445 0.0
C3499 C 0.59254 0.52464 0.19065 0.0
H3500 H 0.59905 0.57069 0.17199 0.0
C3501 C 0.56224 0.53377 0.11259 0.0
C3502 C 0.55408 0.5487 0.11128 0.0
C3503 C 0.57191 0.5318 0.13025 0.0
C3504 C 0.59702 0.55773 0.17698 0.0
H3505 H 0.61106 0.5208 0.26302 0.0
H3506 H 0.59371 0.52307 0.23212 0.0
H3507 H 0.61646 0.56761 0.20247 0.0
H3508 H 0.54997 0.57333 0.1278 0.0
H3509 H 0.56715 0.57012 0.15837 0.0
H3510 H 0.57328 0.5147 0.16498 0.0
C3511 C 0.60776 0.5287 0.2346 0.0
C3512 C 0.60712 0.55592 0.19443 0.0
C3513 C 0.61773 0.52744 0.25238 0.0
C3514 C 0.55599 0.56164 0.12818 0.0
C3515 C 0.56596 0.55984 0.14573 0.0
C3516 C 0.58269 0.52636 0.17299 0.0
C3517 C 0.61572 0.53753 0.22041 0.0
C3518 C 0.605 0.53937 0.20162 0.0
C3519 C 0.57404 0.54487 0.14709 0.0
C3520 C 0.58469 0.54295 0.1659 0.0
H3521 H 0.65808 0.54894 0.24456 0.0
H3522 H 0.64069 0.5515 0.21388 0.0
H3523 H 0.59057 0.51166 0.1956 0.0
H3524 H 0.56107 0.52349 0.09996 0.0
H3525 H 0.578 0.52014 0.13063 0.0
C3526 C 0.22141 0.86557 0.99178 0.0
C3527 C 0.21011 0.87782 0.9894 0.0
C3528 C 0.22618 0.85567 0.97548 0.0
C3529 C 0.22798 0.85691 0.9224 0.0
H3530 H 0.23934 0.80952 0.9224 0.0
C3531 C 0.24506 0.81756 0.85319 0.0
C3532 C 0.26032 0.81014 0.85555 0.0
C3533 C 0.23763 0.82392 0.86941 0.0
C3534 C 0.23628 0.82279 0.92221 0.0
H3535 H 0.19413 0.88837 0.96792 0.0
H3536 H 0.20176 0.87069 0.93972 0.0
H3537 H 0.22843 0.82389 0.9507 0.0
H3538 H 0.27916 0.80274 0.87683 0.0
H3539 H 0.26604 0.81365 0.90519 0.0
H3540 H 0.2357 0.85577 0.89392 0.0
C3541 C 0.20756 0.86916 0.9541 0.0
C3542 C 0.23007 0.83109 0.93849 0.0
C3543 C 0.203 0.87921 0.97034 0.0
C3544 C 0.26741 0.80837 0.8745 0.0
C3545 C 0.25986 0.8146 0.89075 0.0
C3546 C 0.23399 0.84855 0.90612 0.0
C3547 C 0.21961 0.8576 0.95636 0.0
C3548 C 0.22584 0.84832 0.93887 0.0
C3549 C 0.24515 0.8229 0.88845 0.0
C3550 C 0.23827 0.8314 0.90578 0.0
H3551 H 0.22724 0.86424 0.00622 0.0
H3552 H 0.23558 0.84707 0.97795 0.0
H3553 H 0.22537 0.87034 0.92218 0.0
H3554 H 0.23921 0.81909 0.83881 0.0
H3555 H 0.22613 0.82994 0.86705 0.0
C3556 C 0.97026 0.60732 0.74669 0.0
C3557 C 0.95193 0.60661 0.7452 0.0
C3558 C 0.97787 0.60156 0.73036 0.0
C3559 C 0.9662 0.57265 0.68176 0.0
H3560 H 0.01167 0.59783 0.67226 0.0
C3561 C 0.99195 0.55895 0.60824 0.0
C3562 C 0.01008 0.55909 0.60821 0.0
C3563 C 0.98544 0.5639 0.62554 0.0
C3564 C 0.99908 0.59048 0.67484 0.0
H3565 H 0.92732 0.59976 0.72522 0.0
H3566 H 0.94058 0.59001 0.69673 0.0
H3567 H 0.99919 0.60882 0.70094 0.0
H3568 H 0.03553 0.56429 0.62658 0.0
H3569 H 0.02408 0.57285 0.65693 0.0
H3570 H 0.96598 0.55442 0.6556 0.0
C3571 C 0.94907 0.59468 0.71059 0.0
C3572 C 0.9919 0.59681 0.69129 0.0
C3573 C 0.94146 0.60041 0.72691 0.0
C3574 C 0.02149 0.56397 0.62606 0.0
C3575 C 0.01495 0.56903 0.64343 0.0
C3576 C 0.97335 0.56636 0.66533 0.0
C3577 C 0.96734 0.59495 0.71213 0.0
C3578 C 0.97527 0.58807 0.69487 0.0
C3579 C 0.99685 0.56919 0.64335 0.0
C3580 C 0.98981 0.57528 0.66154 0.0
H3581 H 0.97871 0.61197 0.76057 0.0
H3582 H 0.99195 0.60184 0.73216 0.0
H3583 H 0.95356 0.56531 0.68424 0.0
H3584 H 0.98274 0.5553 0.59479 0.0
H3585 H 0.97148 0.56406 0.62484 0.0
C3586 C 0.27198 0.18679 0.44555 0.0
C3587 C 0.26779 0.16829 0.43777 0.0
C3588 C 0.27425 0.19979 0.4333 0.0
C3589 C 0.28205 0.20715 0.38369 0.0
H3590 H 0.25474 0.24458 0.39199 0.0
C3591 C 0.26429 0.24745 0.32363 0.0
C3592 C 0.26446 0.26593 0.32853 0.0
C3593 C 0.26647 0.23685 0.33811 0.0
C3594 C 0.26271 0.23444 0.38967 0.0
H3595 H 0.2636 0.14894 0.41115 0.0
H3596 H 0.26767 0.17171 0.3897 0.0
H3597 H 0.25626 0.2235 0.41518 0.0
H3598 H 0.26662 0.2878 0.35241 0.0
H3599 H 0.27073 0.26921 0.37801 0.0
H3600 H 0.28839 0.21794 0.35812 0.0
C3601 C 0.2692 0.17611 0.40531 0.0
C3602 C 0.26355 0.22234 0.40293 0.0
C3603 C 0.26683 0.16307 0.41757 0.0
C3604 C 0.26656 0.27359 0.34827 0.0
C3605 C 0.26883 0.26294 0.36287 0.0
C3606 C 0.2813 0.2193 0.37051 0.0
C3607 C 0.2725 0.1946 0.41302 0.0
C3608 C 0.27296 0.20837 0.39988 0.0
C3609 C 0.26897 0.24445 0.35791 0.0
C3610 C 0.27129 0.23285 0.3731 0.0
H3611 H 0.27291 0.19128 0.46107 0.0
H3612 H 0.27705 0.21393 0.43968 0.0
H3613 H 0.28963 0.19669 0.38114 0.0
H3614 H 0.26259 0.24111 0.30852 0.0
H3615 H 0.26605 0.2226 0.33373 0.0
C3616 C 0.38654 0.66738 0.53151 0.0
C3617 C 0.38222 0.6696 0.55057 0.0
C3618 C 0.39878 0.65665 0.5266 0.0
C3619 C 0.4174 0.61898 0.54368 0.0
H3620 H 0.45217 0.62982 0.50928 0.0
C3621 C 0.46508 0.57088 0.52733 0.0
C3622 C 0.4829 0.57958 0.52935 0.0
C3623 C 0.4516 0.58088 0.52585 0.0
C3624 C 0.44251 0.62656 0.5189 0.0
H3625 H 0.38841 0.66346 0.57968 0.0
H3626 H 0.40991 0.64537 0.57133 0.0
H3627 H 0.43214 0.65043 0.51588 0.0
H3628 H 0.50046 0.6053 0.52988 0.0
H3629 H 0.47723 0.62254 0.52738 0.0
H3630 H 0.4281 0.59556 0.54737 0.0
C3631 C 0.40348 0.65132 0.55997 0.0
C3632 C 0.43093 0.63834 0.52257 0.0
C3633 C 0.39128 0.6619 0.56482 0.0
C3634 C 0.48685 0.59817 0.52844 0.0
C3635 C 0.47347 0.60809 0.52688 0.0
C3636 C 0.42892 0.60724 0.54001 0.0
C3637 C 0.40695 0.64797 0.54066 0.0
C3638 C 0.41849 0.63492 0.53538 0.0
C3639 C 0.45568 0.59974 0.52621 0.0
C3640 C 0.4419 0.61102 0.52788 0.0
H3641 H 0.37968 0.67299 0.52015 0.0
H3642 H 0.40117 0.65442 0.51159 0.0
H3643 H 0.40773 0.61566 0.55328 0.0
H3644 H 0.4616 0.55661 0.52806 0.0
H3645 H 0.43802 0.57393 0.52506 0.0
C3646 C 0.85292 0.02408 0.60219 0.0
C3647 C 0.84618 0.00979 0.61173 0.0
C3648 C 0.87079 0.0278 0.60005 0.0
C3649 C 0.91084 0.03716 0.60344 0.0
H3650 H 0.92936 0.995 0.58545 0.0
C3651 C 0.98178 0.04162 0.58379 0.0
C3652 C 0.98309 0.03066 0.56641 0.0
C3653 C 0.96591 0.03958 0.59161 0.0
C3654 C 0.92437 0.0069 0.59045 0.0
H3655 H 0.85316 0.98881 0.62746 0.0
H3656 H 0.8844 0.99541 0.62381 0.0
H3657 H 0.90026 0.99113 0.59587 0.0
H3658 H 0.96899 0.00912 0.54352 0.0
H3659 H 0.94127 0.0056 0.55709 0.0
H3660 H 0.93473 0.05291 0.59728 0.0
C3661 C 0.87577 1.00355 0.61774 0.0
C3662 C 0.9078 0.00469 0.59666 0.0
C3663 C 0.85789 0.99984 0.6199 0.0
C3664 C 0.96833 0.01768 0.55698 0.0
C3665 C 0.95252 0.0156 0.56482 0.0
C3666 C 0.92746 0.03937 0.59726 0.0
C3667 C 0.88233 0.0173 0.60741 0.0
C3668 C 0.90071 0.01979 0.6029 0.0
C3669 C 0.95114 0.02649 0.58224 0.0
C3670 C 0.93423 0.02425 0.59035 0.0
H3671 H 0.8443 0.03206 0.59577 0.0
H3672 H 0.87539 0.03837 0.59186 0.0
H3673 H 0.90579 0.04905 0.60835 0.0
H3674 H 0.99302 0.0517 0.59136 0.0
H3675 H 0.96527 0.04808 0.60512 0.0
C3676 C 0.84394 0.12162 0.28555 0.0
C3677 C 0.86229 0.12251 0.29034 0.0
C3678 C 0.83647 0.13736 0.28741 0.0
C3679 C 0.84712 0.1879 0.30932 0.0
H3680 H 0.80338 0.18862 0.27697 0.0
C3681 C 0.81941 0.25523 0.30777 0.0
C3682 C 0.80095 0.25444 0.30449 0.0
C3683 C 0.82667 0.23938 0.30635 0.0
C3684 C 0.81551 0.18879 0.28639 0.0
H3685 H 0.88697 0.14147 0.30085 0.0
H3686 H 0.8743 0.16852 0.3037 0.0
H3687 H 0.81597 0.16158 0.27389 0.0
H3688 H 0.7759 0.23549 0.297 0.0
H3689 H 0.78835 0.20819 0.29461 0.0
H3690 H 0.84671 0.21521 0.32165 0.0
C3691 C 0.86537 0.15565 0.29884 0.0
C3692 C 0.82287 0.173 0.28462 0.0
C3693 C 0.8728 0.13991 0.29706 0.0
C3694 C 0.79013 0.23698 0.29972 0.0
C3695 C 0.79739 0.22112 0.29818 0.0
C3696 C 0.83982 0.20372 0.311 0.0
C3697 C 0.84696 0.15487 0.29409 0.0
C3698 C 0.8389 0.17205 0.29603 0.0
C3699 C 0.81588 0.22186 0.30142 0.0
C3700 C 0.82379 0.20464 0.2996 0.0
H3701 H 0.83521 0.10866 0.28037 0.0
H3702 H 0.82228 0.13562 0.28379 0.0
H3703 H 0.8592 0.18814 0.31884 0.0
H3704 H 0.8284 0.26822 0.31133 0.0
H3705 H 0.84092 0.24098 0.30877 0.0
C3706 C 0.77602 0.14995 0.04115 0.0
C3707 C 0.77789 0.16862 0.04126 0.0
C3708 C 0.75944 0.13925 0.04131 0.0
C3709 C 0.7116 0.13791 0.03108 0.0
H3710 H 0.70825 0.10379 0.06759 0.0
C3711 C 0.6451 0.1043 0.05158 0.0
C3712 C 0.64294 0.08624 0.0546 0.0
C3713 C 0.66145 0.11362 0.04843 0.0
C3714 C 0.70898 0.11304 0.05709 0.0
H3715 H 0.76384 0.1907 0.04121 0.0
H3716 H 0.73486 0.172 0.04154 0.0
H3717 H 0.73702 0.12142 0.06473 0.0
H3718 H 0.65604 0.0636 0.05606 0.0
H3719 H 0.68461 0.07983 0.05037 0.0
H3720 H 0.68353 0.12958 0.0235 0.0
C3721 C 0.7462 0.16563 0.04121 0.0
C3722 C 0.72547 0.12316 0.05548 0.0
C3723 C 0.76281 0.17634 0.04114 0.0
C3724 C 0.65739 0.07759 0.05405 0.0
C3725 C 0.67374 0.08689 0.05082 0.0
C3726 C 0.6951 0.12773 0.03264 0.0
C3727 C 0.74438 0.147 0.04149 0.0
C3728 C 0.72693 0.13579 0.04257 0.0
C3729 C 0.676 0.10507 0.04816 0.0
C3730 C 0.69359 0.11528 0.04577 0.0
H3731 H 0.78739 0.14359 0.04117 0.0
H3732 H 0.7584 0.1249 0.04128 0.0
H3733 H 0.71237 0.14738 0.02082 0.0
H3734 H 0.63426 0.11139 0.0522 0.0
H3735 H 0.66281 0.12769 0.04675 0.0
C3736 C 0.15045 0.4301 0.30012 0.0
C3737 C 0.15726 0.44844 0.30731 0.0
C3738 C 0.16059 0.41705 0.30327 0.0
C3739 C 0.20738 0.41235 0.31845 0.0
H3740 H 0.1845 0.36302 0.31976 0.0
C3741 C 0.24586 0.35519 0.33281 0.0
C3742 C 0.24154 0.34041 0.31753 0.0
C3743 C 0.23537 0.36838 0.33408 0.0
C3744 C 0.19107 0.37678 0.31952 0.0
H3745 H 0.17989 0.46742 0.32399 0.0
H3746 H 0.19722 0.44474 0.33035 0.0
H3747 H 0.16668 0.38605 0.3175 0.0
H3748 H 0.22255 0.32773 0.29199 0.0
H3749 H 0.2042 0.35042 0.29453 0.0
H3750 H 0.23182 0.4029 0.32092 0.0
C3751 C 0.18432 0.44033 0.3216 0.0
C3752 C 0.18084 0.39001 0.318 0.0
C3753 C 0.17431 0.4534 0.31809 0.0
C3754 C 0.22621 0.33883 0.30404 0.0
C3755 C 0.21564 0.35179 0.30549 0.0
C3756 C 0.21762 0.39917 0.32039 0.0
C3757 C 0.17774 0.42192 0.31407 0.0
C3758 C 0.18878 0.40798 0.31705 0.0
C3759 C 0.2202 0.36683 0.32034 0.0
C3760 C 0.20955 0.38119 0.32061 0.0
H3761 H 0.1374 0.42584 0.29163 0.0
H3762 H 0.15505 0.40318 0.29681 0.0
H3763 H 0.21411 0.42584 0.31743 0.0
H3764 H 0.25769 0.35694 0.34331 0.0
H3765 H 0.23921 0.37988 0.34566 0.0
C3766 C 0.24512 0.52281 0.11843 0.0
C3767 C 0.24261 0.50388 0.11506 0.0
C3768 C 0.23274 0.5315 0.10955 0.0
C3769 C 0.20184 0.52605 0.06551 0.0
H3770 H 0.179 0.56059 0.09329 0.0
C3771 C 0.14046 0.54787 0.02996 0.0
C3772 C 0.13675 0.5647 0.03703 0.0
C3773 C 0.1553 0.54232 0.03841 0.0
C3774 C 0.18555 0.55132 0.0852 0.0
H3775 H 0.2249 0.47918 0.10032 0.0
H3776 H 0.20348 0.49443 0.08456 0.0
H3777 H 0.20054 0.54706 0.11136 0.0
H3778 H 0.14661 0.58951 0.05751 0.0
H3779 H 0.17302 0.58025 0.07148 0.0
H3780 H 0.18731 0.53044 0.03931 0.0
C3781 C 0.21499 0.50248 0.09412 0.0
C3782 C 0.19775 0.54346 0.09562 0.0
C3783 C 0.22717 0.49378 0.10327 0.0
C3784 C 0.14905 0.57647 0.05164 0.0
C3785 C 0.16406 0.57101 0.05991 0.0
C3786 C 0.18991 0.53413 0.05503 0.0
C3787 C 0.21785 0.5214 0.09689 0.0
C3788 C 0.2057 0.5305 0.08589 0.0
C3789 C 0.16702 0.55359 0.05393 0.0
C3790 C 0.1813 0.5466 0.06477 0.0
H3791 H 0.25692 0.53091 0.12743 0.0
H3792 H 0.23518 0.54611 0.1119 0.0
H3793 H 0.20807 0.51629 0.05768 0.0
H3794 H 0.13145 0.53861 0.01845 0.0
H3795 H 0.157 0.52878 0.0334 0.0
C3796 C 0.8727 0.99096 0.28389 0.0
C3797 C 0.86423 0.00583 0.28348 0.0
C3798 C 0.86365 0.97373 0.28584 0.0
C3799 C 0.82146 0.94745 0.29917 0.0
H3800 H 0.83991 0.90695 0.2762 0.0
C3801 C 0.7889 0.87016 0.29941 0.0
C3802 C 0.8008 0.85874 0.30352 0.0
C3803 C 0.79509 0.88821 0.29651 0.0
C3804 C 0.83456 0.91801 0.28291 0.0
H3805 H 0.83889 0.01347 0.28518 0.0
H3806 H 0.82282 0.98312 0.28813 0.0
H3807 H 0.85269 0.93727 0.27168 0.0
H3808 H 0.82864 0.85779 0.30756 0.0
H3809 H 0.83921 0.88855 0.30218 0.0
H3810 H 0.80296 0.92767 0.30995 0.0
C3811 C 0.8368 0.98502 0.28712 0.0
C3812 C 0.84205 0.93569 0.2804 0.0
C3813 C 0.84604 1.00256 0.28531 0.0
C3814 C 0.81897 0.86598 0.3044 0.0
C3815 C 0.82509 0.88376 0.3012 0.0
C3816 C 0.81378 0.92959 0.30149 0.0
C3817 C 0.84543 0.97012 0.28725 0.0
C3818 C 0.83602 0.95095 0.28883 0.0
C3819 C 0.81335 0.89535 0.29722 0.0
C3820 C 0.82043 0.91451 0.29371 0.0
H3821 H 0.88669 0.99257 0.2829 0.0
H3822 H 0.87125 0.96323 0.28653 0.0
H3823 H 0.81625 0.95853 0.30602 0.0
H3824 H 0.77483 0.86523 0.29867 0.0
H3825 H 0.78552 0.8965 0.29341 0.0
C3826 C 0.67248 0.05078 0.80319 0.0
C3827 C 0.65475 0.05046 0.79588 0.0
C3828 C 0.68535 0.06661 0.80505 0.0
C3829 C 0.69044 0.11623 0.80688 0.0
H3830 H 0.7357 0.11333 0.78985 0.0
C3831 C 0.74948 0.16522 0.77765 0.0
C3832 C 0.75062 0.18133 0.79056 0.0
C3833 C 0.73972 0.14892 0.78104 0.0
C3834 C 0.72311 0.11438 0.79464 0.0
H3835 H 0.63671 0.06666 0.78494 0.0
H3836 H 0.65904 0.09398 0.78793 0.0
H3837 H 0.71443 0.08566 0.79038 0.0
H3838 H 0.74291 0.1927 0.81764 0.0
H3839 H 0.72635 0.16422 0.82384 0.0
H3840 H 0.69868 0.14487 0.81027 0.0
C3841 C 0.66302 0.08213 0.79254 0.0
C3842 C 0.711 0.0985 0.79516 0.0
C3843 C 0.6502 0.06637 0.79069 0.0
C3844 C 0.74243 0.18057 0.80743 0.0
C3845 C 0.73273 0.16425 0.81086 0.0
C3846 C 0.7025 0.13207 0.80631 0.0
C3847 C 0.68077 0.08247 0.79969 0.0
C3848 C 0.69437 0.09924 0.80093 0.0
C3849 C 0.7309 0.14829 0.79748 0.0
C3850 C 0.71888 0.13138 0.79987 0.0
H3851 H 0.67646 0.03878 0.80736 0.0
H3852 H 0.69888 0.06645 0.81077 0.0
H3853 H 0.67787 0.1173 0.81171 0.0
H3854 H 0.75586 0.16524 0.76468 0.0
H3855 H 0.73853 0.13697 0.77033 0.0
loop_
_geom_bond_atom_site_label_1
_geom_bond_atom_site_label_2
_geom_bond_distance
_geom_bond_site_symmetry_2
_ccdc_geom_bond_type
C0 O1 1.306 . S
C0 O3 1.160 . S
O1 C0 1.306 . S
O1 Cd2 2.228 . S
Cd2 O1 2.228 . S
Cd2 O6 2.273 . S
Cd2 O10 2.277 . S
O3 C0 1.160 . S
O3 Cd4 2.203 . S
Cd4 O3 2.203 . S
Cd4 O6 2.411 . S
Cd4 O7 2.333 . S
Cd4 O8 2.352 . S
Cd4 O12 2.277 . S
Cd4 O13 2.356 . S
C5 O10 1.209 . S
C5 O12 1.226 . S
O6 Cd2 2.273 . S
O6 Cd4 2.411 . S
O6 C9 1.320 . S
O7 Cd4 2.333 . S
O7 C9 1.214 . S
O8 Cd4 2.352 . S
O8 C11 1.258 . S
C9 O6 1.320 . S
C9 O7 1.214 . S
O10 Cd2 2.277 . S
O10 C5 1.209 . S
C11 O8 1.258 . S
C11 O13 1.282 . S
O12 Cd4 2.277 . S
O12 C5 1.226 . S
O13 Cd4 2.356 . S
O13 C11 1.282 . S
C14 O15 1.306 . S
C14 O17 1.160 . S
O15 C14 1.306 . S
O15 Cd16 2.228 1_655 S
Cd16 O15 2.228 1_455 S
Cd16 O20 2.273 . S
Cd16 O24 2.278 1_455 S
O17 C14 1.160 . S
O17 Cd18 2.203 1_655 S
Cd18 O17 2.203 1_455 S
Cd18 O20 2.411 . S
Cd18 O21 2.333 . S
Cd18 O22 2.352 . S
Cd18 O26 2.277 1_455 S
Cd18 O27 2.356 . S
C19 O24 1.212 . S
C19 O26 1.226 . S
O20 Cd16 2.273 . S
O20 Cd18 2.411 . S
O20 C23 1.320 . S
O21 Cd18 2.333 . S
O21 C23 1.214 . S
O22 Cd18 2.352 . S
O22 C25 1.258 . S
C23 O20 1.320 . S
C23 O21 1.214 . S
O24 Cd16 2.278 1_655 S
O24 C19 1.212 . S
C25 O22 1.258 . S
C25 O27 1.282 . S
O26 Cd18 2.277 1_655 S
O26 C19 1.226 . S
O27 Cd18 2.356 . S
O27 C25 1.282 . S
C28 O29 1.306 . S
C28 O31 1.160 . S
O29 C28 1.306 . S
O29 Cd30 2.228 . S
Cd30 O29 2.228 . S
Cd30 O34 2.273 . S
Cd30 O38 2.277 . S
O31 C28 1.160 . S
O31 Cd32 2.203 . S
Cd32 O31 2.203 . S
Cd32 O34 2.411 . S
Cd32 O35 2.333 . S
Cd32 O36 2.352 . S
Cd32 O40 2.277 . S
Cd32 O41 2.356 . S
C33 O38 1.209 . S
C33 O40 1.226 . S
O34 Cd30 2.273 . S
O34 Cd32 2.411 . S
O34 C37 1.320 . S
O35 Cd32 2.333 . S
O35 C37 1.214 . S
O36 Cd32 2.352 . S
O36 C39 1.258 . S
C37 O34 1.320 . S
C37 O35 1.214 . S
O38 Cd30 2.277 . S
O38 C33 1.209 . S
C39 O36 1.258 . S
C39 O41 1.282 . S
O40 Cd32 2.277 . S
O40 C33 1.226 . S
O41 Cd32 2.356 . S
O41 C39 1.282 . S
C42 O43 1.306 . S
C42 O45 1.160 . S
O43 C42 1.306 . S
O43 Cd44 2.228 . S
Cd44 O43 2.228 . S
Cd44 O48 2.273 . S
Cd44 O52 2.277 . S
O45 C42 1.160 . S
O45 Cd46 2.203 . S
Cd46 O45 2.203 . S
Cd46 O48 2.411 . S
Cd46 O49 2.333 . S
Cd46 O50 2.352 . S
Cd46 O54 2.277 . S
Cd46 O55 2.356 . S
C47 O52 1.209 . S
C47 O54 1.226 . S
O48 Cd44 2.273 . S
O48 Cd46 2.411 . S
O48 C51 1.320 . S
O49 Cd46 2.333 . S
O49 C51 1.214 . S
O50 Cd46 2.352 . S
O50 C53 1.258 . S
C51 O48 1.320 . S
C51 O49 1.214 . S
O52 Cd44 2.277 . S
O52 C47 1.209 . S
C53 O50 1.258 . S
C53 O55 1.282 . S
O54 Cd46 2.277 . S
O54 C47 1.226 . S
O55 Cd46 2.356 . S
O55 C53 1.282 . S
C56 O57 1.306 . S
C56 O59 1.160 . S
O57 C56 1.306 . S
O57 Cd58 2.228 1_655 S
Cd58 O57 2.228 1_455 S
Cd58 O62 2.273 . S
Cd58 O66 2.277 . S
O59 C56 1.160 . S
O59 Cd60 2.203 1_655 S
Cd60 O59 2.203 1_455 S
Cd60 O62 2.411 . S
Cd60 O63 2.333 . S
Cd60 O64 2.352 . S
Cd60 O68 2.277 . S
Cd60 O69 2.356 . S
C61 O66 1.209 . S
C61 O68 1.226 . S
O62 Cd58 2.273 . S
O62 Cd60 2.411 . S
O62 C65 1.320 . S
O63 Cd60 2.333 . S
O63 C65 1.214 . S
O64 Cd60 2.352 . S
O64 C67 1.258 . S
C65 O62 1.320 . S
C65 O63 1.214 . S
O66 Cd58 2.277 . S
O66 C61 1.209 . S
C67 O64 1.258 . S
C67 O69 1.282 . S
O68 Cd60 2.277 . S
O68 C61 1.226 . S
O69 Cd60 2.356 . S
O69 C67 1.282 . S
C70 O71 1.306 . S
C70 O73 1.160 . S
O71 C70 1.306 . S
O71 Cd72 2.228 . S
Cd72 O71 2.228 . S
Cd72 O76 2.273 . S
Cd72 O80 2.277 . S
O73 C70 1.160 . S
O73 Cd74 2.203 . S
Cd74 O73 2.203 . S
Cd74 O76 2.411 . S
Cd74 O77 2.333 . S
Cd74 O78 2.352 . S
Cd74 O82 2.277 . S
Cd74 O83 2.356 . S
C75 O80 1.209 . S
C75 O82 1.226 . S
O76 Cd72 2.273 . S
O76 Cd74 2.411 . S
O76 C79 1.320 . S
O77 Cd74 2.333 . S
O77 C79 1.214 . S
O78 Cd74 2.352 . S
O78 C81 1.258 . S
C79 O76 1.320 . S
C79 O77 1.214 . S
O80 Cd72 2.277 . S
O80 C75 1.209 . S
C81 O78 1.258 . S
C81 O83 1.282 . S
O82 Cd74 2.277 . S
O82 C75 1.226 . S
O83 Cd74 2.356 . S
O83 C81 1.282 . S
C84 O85 1.306 . S
C84 O87 1.160 . S
O85 C84 1.306 . S
O85 Cd86 2.228 . S
Cd86 O85 2.228 . S
Cd86 O90 2.273 . S
Cd86 O94 2.277 . S
O87 C84 1.160 . S
O87 Cd88 2.203 . S
Cd88 O87 2.203 . S
Cd88 O90 2.411 . S
Cd88 O91 2.333 . S
Cd88 O92 2.352 . S
Cd88 O96 2.277 . S
Cd88 O97 2.356 . S
C89 O94 1.209 . S
C89 O96 1.226 . S
O90 Cd86 2.273 . S
O90 Cd88 2.411 . S
O90 C93 1.320 . S
O91 Cd88 2.333 . S
O91 C93 1.214 . S
O92 Cd88 2.352 . S
O92 C95 1.258 . S
C93 O90 1.320 . S
C93 O91 1.214 . S
O94 Cd86 2.277 . S
O94 C89 1.209 . S
C95 O92 1.258 . S
C95 O97 1.282 . S
O96 Cd88 2.277 . S
O96 C89 1.226 . S
O97 Cd88 2.356 . S
O97 C95 1.282 . S
C98 O99 1.288 1_655 S
C98 O101 1.160 . S
O99 C98 1.288 1_455 S
O99 Cd100 2.253 . S
Cd100 O99 2.253 . S
Cd100 O104 2.273 . S
Cd100 O108 2.277 . S
O101 C98 1.160 . S
O101 Cd102 2.203 1_655 S
Cd102 O101 2.203 1_455 S
Cd102 O104 2.411 . S
Cd102 O105 2.333 . S
Cd102 O106 2.352 . S
Cd102 O110 2.277 . S
Cd102 O111 2.356 . S
C103 O108 1.209 . S
C103 O110 1.226 . S
O104 Cd100 2.273 . S
O104 Cd102 2.411 . S
O104 C107 1.320 . S
O105 Cd102 2.333 . S
O105 C107 1.214 . S
O106 Cd102 2.352 . S
O106 C109 1.258 . S
C107 O104 1.320 . S
C107 O105 1.214 . S
O108 Cd100 2.277 . S
O108 C103 1.209 . S
C109 O106 1.258 . S
C109 O111 1.282 . S
O110 Cd102 2.277 . S
O110 C103 1.226 . S
O111 Cd102 2.356 . S
O111 C109 1.282 . S
C112 O113 1.306 . S
C112 O115 1.160 . S
O113 C112 1.306 . S
O113 Cd114 2.228 . S
Cd114 O113 2.228 . S
Cd114 O118 2.273 . S
Cd114 O122 2.277 . S
O115 C112 1.160 . S
O115 Cd116 2.203 . S
Cd116 O115 2.203 . S
Cd116 O118 2.411 . S
Cd116 O119 2.333 . S
Cd116 O120 2.352 . S
Cd116 O124 2.277 . S
Cd116 O125 2.356 . S
C117 O122 1.209 . S
C117 O124 1.226 . S
O118 Cd114 2.273 . S
O118 Cd116 2.411 . S
O118 C121 1.320 . S
O119 Cd116 2.333 . S
O119 C121 1.214 . S
O120 Cd116 2.352 . S
O120 C123 1.258 . S
C121 O118 1.320 . S
C121 O119 1.214 . S
O122 Cd114 2.277 . S
O122 C117 1.209 . S
C123 O120 1.258 . S
C123 O125 1.282 . S
O124 Cd116 2.277 . S
O124 C117 1.226 . S
O125 Cd116 2.356 . S
O125 C123 1.282 . S
C126 O127 1.306 . S
C126 O129 1.160 . S
O127 C126 1.306 . S
O127 Cd128 2.228 . S
Cd128 O127 2.228 . S
Cd128 O132 2.273 . S
Cd128 O136 2.277 . S
O129 C126 1.160 . S
O129 Cd130 2.203 . S
Cd130 O129 2.203 . S
Cd130 O132 2.411 . S
Cd130 O133 2.333 . S
Cd130 O134 2.352 . S
Cd130 O138 2.277 . S
Cd130 O139 2.356 . S
C131 O136 1.209 . S
C131 O138 1.226 . S
O132 Cd128 2.273 . S
O132 Cd130 2.411 . S
O132 C135 1.320 . S
O133 Cd130 2.333 . S
O133 C135 1.214 . S
O134 Cd130 2.352 . S
O134 C137 1.258 . S
C135 O132 1.320 . S
C135 O133 1.214 . S
O136 Cd128 2.277 . S
O136 C131 1.209 . S
C137 O134 1.258 . S
C137 O139 1.282 . S
O138 Cd130 2.277 . S
O138 C131 1.226 . S
O139 Cd130 2.356 . S
O139 C137 1.282 . S
C140 O141 1.306 . S
C140 O143 1.160 . S
O141 C140 1.306 . S
O141 Cd142 2.228 . S
Cd142 O141 2.228 . S
Cd142 O146 2.273 . S
Cd142 O150 2.277 . S
O143 C140 1.160 . S
O143 Cd144 2.203 . S
Cd144 O143 2.203 . S
Cd144 O146 2.411 . S
Cd144 O147 2.333 . S
Cd144 O148 2.352 1_545 S
Cd144 O152 2.277 . S
Cd144 O153 2.356 . S
C145 O150 1.209 . S
C145 O152 1.226 . S
O146 Cd142 2.273 . S
O146 Cd144 2.411 . S
O146 C149 1.320 . S
O147 Cd144 2.333 . S
O147 C149 1.214 . S
O148 Cd144 2.352 1_565 S
O148 C151 1.258 . S
C149 O146 1.320 . S
C149 O147 1.214 . S
O150 Cd142 2.277 . S
O150 C145 1.209 . S
C151 O148 1.258 . S
C151 O153 1.282 1_565 S
O152 Cd144 2.277 . S
O152 C145 1.226 . S
O153 Cd144 2.356 . S
O153 C151 1.282 1_545 S
C154 O155 1.306 . S
C154 O157 1.160 . S
O155 C154 1.306 . S
O155 Cd156 2.228 . S
Cd156 O155 2.228 . S
Cd156 O160 2.273 . S
Cd156 O164 2.277 . S
O157 C154 1.160 . S
O157 Cd158 2.203 . S
Cd158 O157 2.203 . S
Cd158 O160 2.411 . S
Cd158 O161 2.333 . S
Cd158 O162 2.352 . S
Cd158 O166 2.277 . S
Cd158 O167 2.356 . S
C159 O164 1.209 . S
C159 O166 1.226 . S
O160 Cd156 2.273 . S
O160 Cd158 2.411 . S
O160 C163 1.320 . S
O161 Cd158 2.333 . S
O161 C163 1.214 . S
O162 Cd158 2.352 . S
O162 C165 1.258 . S
C163 O160 1.320 . S
C163 O161 1.214 . S
O164 Cd156 2.277 . S
O164 C159 1.209 . S
C165 O162 1.258 . S
C165 O167 1.282 . S
O166 Cd158 2.277 . S
O166 C159 1.226 . S
O167 Cd158 2.356 . S
O167 C165 1.282 . S
C168 O169 1.306 . S
C168 O171 1.160 . S
O169 C168 1.306 . S
O169 Cd170 2.228 . S
Cd170 O169 2.228 . S
Cd170 O174 2.273 . S
Cd170 O178 2.277 . S
O171 C168 1.160 . S
O171 Cd172 2.203 . S
Cd172 O171 2.203 . S
Cd172 O174 2.411 . S
Cd172 O175 2.333 . S
Cd172 O176 2.352 . S
Cd172 O180 2.277 . S
Cd172 O181 2.356 . S
C173 O178 1.209 . S
C173 O180 1.226 . S
O174 Cd170 2.273 . S
O174 Cd172 2.411 . S
O174 C177 1.320 . S
O175 Cd172 2.333 . S
O175 C177 1.214 . S
O176 Cd172 2.352 . S
O176 C179 1.258 . S
C177 O174 1.320 . S
C177 O175 1.214 . S
O178 Cd170 2.277 . S
O178 C173 1.209 . S
C179 O176 1.258 . S
C179 O181 1.282 . S
O180 Cd172 2.277 . S
O180 C173 1.226 . S
O181 Cd172 2.356 . S
O181 C179 1.282 . S
C182 O183 1.306 . S
C182 O185 1.160 . S
O183 C182 1.306 . S
O183 Cd184 2.228 . S
Cd184 O183 2.228 . S
Cd184 O188 2.273 . S
Cd184 O192 2.277 . S
O185 C182 1.160 . S
O185 Cd186 2.203 . S
Cd186 O185 2.203 . S
Cd186 O188 2.411 . S
Cd186 O189 2.333 . S
Cd186 O190 2.352 1_554 S
Cd186 O194 2.277 . S
Cd186 O195 2.356 . S
C187 O192 1.209 . S
C187 O194 1.226 . S
O188 Cd184 2.273 . S
O188 Cd186 2.411 . S
O188 C191 1.320 . S
O189 Cd186 2.333 . S
O189 C191 1.214 . S
O190 Cd186 2.352 1_556 S
O190 C193 1.258 . S
C191 O188 1.320 . S
C191 O189 1.214 . S
O192 Cd184 2.277 . S
O192 C187 1.209 . S
C193 O190 1.258 . S
C193 O195 1.282 1_556 S
O194 Cd186 2.277 . S
O194 C187 1.226 . S
O195 Cd186 2.356 . S
O195 C193 1.282 1_554 S
C196 O197 1.306 . S
C196 O199 1.160 . S
O197 C196 1.306 . S
O197 Cd198 2.228 . S
Cd198 O197 2.228 . S
Cd198 O202 2.273 . S
Cd198 O206 2.277 . S
O199 C196 1.160 . S
O199 Cd200 2.203 . S
Cd200 O199 2.203 . S
Cd200 O202 2.411 . S
Cd200 O203 2.333 . S
Cd200 O204 2.352 . S
Cd200 O208 2.277 . S
Cd200 O209 2.356 . S
C201 O206 1.209 . S
C201 O208 1.226 . S
O202 Cd198 2.273 . S
O202 Cd200 2.411 . S
O202 C205 1.320 . S
O203 Cd200 2.333 . S
O203 C205 1.214 . S
O204 Cd200 2.352 . S
O204 C207 1.258 . S
C205 O202 1.320 . S
C205 O203 1.214 . S
O206 Cd198 2.277 . S
O206 C201 1.209 . S
C207 O204 1.258 . S
C207 O209 1.282 . S
O208 Cd200 2.277 . S
O208 C201 1.226 . S
O209 Cd200 2.356 . S
O209 C207 1.282 . S
C210 O211 1.306 . S
C210 O213 1.160 . S
O211 C210 1.306 . S
O211 Cd212 2.228 . S
Cd212 O211 2.228 . S
Cd212 O216 2.273 . S
Cd212 O220 2.277 . S
O213 C210 1.160 . S
O213 Cd214 2.203 . S
Cd214 O213 2.203 . S
Cd214 O216 2.411 . S
Cd214 O217 2.333 . S
Cd214 O218 2.352 . S
Cd214 O222 2.277 . S
Cd214 O223 2.356 . S
C215 O220 1.209 . S
C215 O222 1.226 . S
O216 Cd212 2.273 . S
O216 Cd214 2.411 . S
O216 C219 1.320 . S
O217 Cd214 2.333 . S
O217 C219 1.214 . S
O218 Cd214 2.352 . S
O218 C221 1.258 . S
C219 O216 1.320 . S
C219 O217 1.214 . S
O220 Cd212 2.277 . S
O220 C215 1.209 . S
C221 O218 1.258 . S
C221 O223 1.282 . S
O222 Cd214 2.277 . S
O222 C215 1.226 . S
O223 Cd214 2.356 . S
O223 C221 1.282 . S
C224 O225 1.306 . S
C224 O227 1.160 . S
O225 C224 1.306 . S
O225 Cd226 2.228 . S
Cd226 O225 2.228 . S
Cd226 O230 2.273 . S
Cd226 O234 2.277 . S
O227 C224 1.160 . S
O227 Cd228 2.203 . S
Cd228 O227 2.203 . S
Cd228 O230 2.411 . S
Cd228 O231 2.333 . S
Cd228 O232 2.352 . S
Cd228 O236 2.277 . S
Cd228 O237 2.356 . S
C229 O234 1.209 . S
C229 O236 1.226 . S
O230 Cd226 2.273 . S
O230 Cd228 2.411 . S
O230 C233 1.320 . S
O231 Cd228 2.333 . S
O231 C233 1.214 . S
O232 Cd228 2.352 . S
O232 C235 1.258 . S
C233 O230 1.320 . S
C233 O231 1.214 . S
O234 Cd226 2.277 . S
O234 C229 1.209 . S
C235 O232 1.258 . S
C235 O237 1.282 . S
O236 Cd228 2.277 . S
O236 C229 1.226 . S
O237 Cd228 2.356 . S
O237 C235 1.282 . S
C238 O239 1.306 . S
C238 O241 1.160 . S
O239 C238 1.306 . S
O239 Cd240 2.228 . S
Cd240 O239 2.228 . S
Cd240 O244 2.273 . S
Cd240 O248 2.277 . S
O241 C238 1.160 . S
O241 Cd242 2.203 . S
Cd242 O241 2.203 . S
Cd242 O244 2.411 . S
Cd242 O245 2.333 . S
Cd242 O246 2.352 . S
Cd242 O250 2.277 . S
Cd242 O251 2.356 . S
C243 O248 1.209 . S
C243 O250 1.226 . S
O244 Cd240 2.273 . S
O244 Cd242 2.411 . S
O244 C247 1.320 . S
O245 Cd242 2.333 . S
O245 C247 1.214 . S
O246 Cd242 2.352 . S
O246 C249 1.258 . S
C247 O244 1.320 . S
C247 O245 1.214 . S
O248 Cd240 2.277 . S
O248 C243 1.209 . S
C249 O246 1.258 . S
C249 O251 1.282 . S
O250 Cd242 2.277 . S
O250 C243 1.226 . S
O251 Cd242 2.356 . S
O251 C249 1.282 . S
C252 O253 1.306 . S
C252 O255 1.160 . S
O253 C252 1.306 . S
O253 Cd254 2.228 . S
Cd254 O253 2.228 . S
Cd254 O258 2.273 . S
Cd254 O262 2.277 . S
O255 C252 1.160 . S
O255 Cd256 2.203 . S
Cd256 O255 2.203 . S
Cd256 O258 2.411 . S
Cd256 O259 2.333 . S
Cd256 O260 2.352 . S
Cd256 O264 2.277 . S
Cd256 O265 2.356 . S
C257 O262 1.209 . S
C257 O264 1.226 . S
O258 Cd254 2.273 . S
O258 Cd256 2.411 . S
O258 C261 1.320 . S
O259 Cd256 2.333 . S
O259 C261 1.214 . S
O260 Cd256 2.352 . S
O260 C263 1.258 . S
C261 O258 1.320 . S
C261 O259 1.214 . S
O262 Cd254 2.277 . S
O262 C257 1.209 . S
C263 O260 1.258 . S
C263 O265 1.282 . S
O264 Cd256 2.277 . S
O264 C257 1.226 . S
O265 Cd256 2.356 . S
O265 C263 1.282 . S
C266 O267 1.306 . S
C266 O269 1.160 . S
O267 C266 1.306 . S
O267 Cd268 2.228 . S
Cd268 O267 2.228 . S
Cd268 O272 2.273 1_545 S
Cd268 O276 2.277 . S
O269 C266 1.160 . S
O269 Cd270 2.204 1_545 S
Cd270 O269 2.204 1_565 S
Cd270 O272 2.407 . S
Cd270 O273 2.331 . S
Cd270 O274 2.368 . S
Cd270 O278 2.264 1_565 S
Cd270 O279 2.368 . S
C271 O276 1.209 . S
C271 O278 1.226 . S
O272 Cd268 2.273 1_565 S
O272 Cd270 2.407 . S
O272 C275 1.320 . S
O273 Cd270 2.331 . S
O273 C275 1.214 . S
O274 Cd270 2.368 . S
O274 C277 1.258 . S
C275 O272 1.320 . S
C275 O273 1.214 . S
O276 Cd268 2.277 . S
O276 C271 1.209 . S
C277 O274 1.258 . S
C277 O279 1.282 . S
O278 Cd270 2.264 1_545 S
O278 C271 1.226 . S
O279 Cd270 2.368 . S
O279 C277 1.282 . S
C280 O281 1.306 . S
C280 O283 1.160 1_554 S
O281 C280 1.306 . S
O281 Cd282 2.228 . S
Cd282 O281 2.228 . S
Cd282 O286 2.273 1_554 S
Cd282 O290 2.277 . S
O283 C280 1.160 1_556 S
O283 Cd284 2.203 . S
Cd284 O283 2.203 . S
Cd284 O286 2.411 . S
Cd284 O287 2.333 . S
Cd284 O288 2.352 . S
Cd284 O292 2.277 1_556 S
Cd284 O293 2.356 . S
C285 O290 1.209 . S
C285 O292 1.226 . S
O286 Cd282 2.273 1_556 S
O286 Cd284 2.411 . S
O286 C289 1.320 . S
O287 Cd284 2.333 . S
O287 C289 1.214 . S
O288 Cd284 2.352 . S
O288 C291 1.258 . S
C289 O286 1.320 . S
C289 O287 1.214 . S
O290 Cd282 2.277 . S
O290 C285 1.209 . S
C291 O288 1.258 . S
C291 O293 1.282 . S
O292 Cd284 2.277 1_554 S
O292 C285 1.226 . S
O293 Cd284 2.356 . S
O293 C291 1.282 . S
C294 O295 1.306 . S
C294 O297 1.160 . S
O295 C294 1.306 . S
O295 Cd296 2.228 . S
Cd296 O295 2.228 . S
Cd296 O300 2.273 . S
Cd296 O304 2.277 . S
O297 C294 1.160 . S
O297 Cd298 2.203 . S
Cd298 O297 2.203 . S
Cd298 O300 2.411 . S
Cd298 O301 2.333 . S
Cd298 O302 2.352 . S
Cd298 O306 2.277 . S
Cd298 O307 2.356 . S
C299 O304 1.209 . S
C299 O306 1.226 . S
O300 Cd296 2.273 . S
O300 Cd298 2.411 . S
O300 C303 1.320 . S
O301 Cd298 2.333 . S
O301 C303 1.214 . S
O302 Cd298 2.352 . S
O302 C305 1.258 . S
C303 O300 1.320 . S
C303 O301 1.214 . S
O304 Cd296 2.277 . S
O304 C299 1.209 . S
C305 O302 1.258 . S
C305 O307 1.282 . S
O306 Cd298 2.277 . S
O306 C299 1.226 . S
O307 Cd298 2.356 . S
O307 C305 1.282 . S
C308 O309 1.306 . S
C308 O311 1.160 . S
O309 C308 1.306 . S
O309 Cd310 2.228 . S
Cd310 O309 2.228 . S
Cd310 O314 2.273 . S
Cd310 O318 2.277 . S
O311 C308 1.160 . S
O311 Cd312 2.203 . S
Cd312 O311 2.203 . S
Cd312 O314 2.411 . S
Cd312 O315 2.333 . S
Cd312 O316 2.352 . S
Cd312 O320 2.277 . S
Cd312 O321 2.356 . S
C313 O318 1.209 . S
C313 O320 1.226 . S
O314 Cd310 2.273 . S
O314 Cd312 2.411 . S
O314 C317 1.320 . S
O315 Cd312 2.333 . S
O315 C317 1.214 . S
O316 Cd312 2.352 . S
O316 C319 1.258 . S
C317 O314 1.320 . S
C317 O315 1.214 . S
O318 Cd310 2.277 . S
O318 C313 1.209 . S
C319 O316 1.258 . S
C319 O321 1.282 . S
O320 Cd312 2.277 . S
O320 C313 1.226 . S
O321 Cd312 2.356 . S
O321 C319 1.282 . S
C322 O323 1.306 . S
C322 O325 1.160 . S
O323 C322 1.306 . S
O323 Cd324 2.228 . S
Cd324 O323 2.228 . S
Cd324 O328 2.273 . S
Cd324 O332 2.277 . S
O325 C322 1.160 . S
O325 Cd326 2.203 . S
Cd326 O325 2.203 . S
Cd326 O328 2.411 . S
Cd326 O329 2.333 . S
Cd326 O330 2.352 . S
Cd326 O334 2.277 . S
Cd326 O335 2.356 . S
C327 O332 1.209 . S
C327 O334 1.226 . S
O328 Cd324 2.273 . S
O328 Cd326 2.411 . S
O328 C331 1.320 . S
O329 Cd326 2.333 . S
O329 C331 1.214 . S
O330 Cd326 2.352 . S
O330 C333 1.258 . S
C331 O328 1.320 . S
C331 O329 1.214 . S
O332 Cd324 2.277 . S
O332 C327 1.209 . S
C333 O330 1.258 . S
C333 O335 1.282 . S
O334 Cd326 2.277 . S
O334 C327 1.226 . S
O335 Cd326 2.356 . S
O335 C333 1.282 . S
Nd336 C338 2.836 . S
Nd336 O356 2.500 . S
Nd336 O357 2.492 . S
Nd336 O358 2.487 . S
Nd336 O359 2.682 . S
Nd336 O360 2.410 . S
Nd336 O365 2.414 . S
Nd336 O367 2.424 . S
Nd337 C347 2.836 1_545 S
Nd337 O359 2.414 . S
Nd337 O361 2.424 1_455 S
Nd337 O362 2.500 1_545 S
Nd337 O363 2.499 . S
Nd337 O364 2.487 . S
Nd337 O365 2.682 . S
Nd337 O366 2.410 . S
C338 Nd336 2.836 . S
C338 C339 1.498 . S
C338 O356 1.258 . S
C338 O357 1.239 . S
C339 C338 1.498 . S
C339 C340 1.366 . S
C339 C344 1.407 . S
C340 C339 1.366 . S
C340 C341 1.392 . S
C340 H368 0.930 . S
C341 C340 1.392 . S
C341 C342 1.398 . S
C341 H369 0.929 . S
C342 C341 1.398 . S
C342 C343 1.352 . S
C343 C342 1.352 . S
C343 C344 1.384 . S
C343 H370 0.930 . S
C344 C339 1.407 . S
C344 C343 1.384 . S
C344 H371 0.929 . S
C345 O358 1.241 . S
C345 O359 1.273 . S
C346 O360 1.251 1_655 S
C346 O361 1.268 . S
C347 Nd337 2.836 1_565 S
C347 C348 1.498 . S
C347 O362 1.258 . S
C347 O363 1.235 1_565 S
C348 C347 1.498 . S
C348 C349 1.366 . S
C348 C353 1.407 . S
C349 C348 1.366 . S
C349 C350 1.392 . S
C349 H372 0.930 . S
C350 C349 1.392 . S
C350 C351 1.398 . S
C350 H373 0.929 . S
C351 C350 1.398 . S
C351 C352 1.352 . S
C352 C351 1.352 . S
C352 C353 1.384 . S
C352 H374 0.930 . S
C353 C348 1.407 . S
C353 C352 1.384 . S
C353 H375 0.930 1_455 S
C354 O364 1.241 . S
C354 O365 1.273 . S
C355 O366 1.251 . S
C355 O367 1.268 . S
O356 Nd336 2.500 . S
O356 C338 1.258 . S
O357 Nd336 2.492 . S
O357 C338 1.239 . S
O358 Nd336 2.487 . S
O358 C345 1.241 . S
O359 Nd336 2.682 . S
O359 Nd337 2.414 . S
O359 C345 1.273 . S
O360 Nd336 2.410 . S
O360 C346 1.251 1_455 S
O361 Nd337 2.424 1_655 S
O361 C346 1.268 . S
O362 Nd337 2.500 1_565 S
O362 C347 1.258 . S
O363 Nd337 2.499 . S
O363 C347 1.235 1_545 S
O364 Nd337 2.487 . S
O364 C354 1.241 . S
O365 Nd336 2.414 . S
O365 Nd337 2.682 . S
O365 C354 1.273 . S
O366 Nd337 2.410 . S
O366 C355 1.251 . S
O367 Nd336 2.424 . S
O367 C355 1.268 . S
H368 C340 0.930 . S
H369 C341 0.929 . S
H370 C343 0.930 . S
H371 C344 0.929 . S
H372 C349 0.930 . S
H373 C350 0.929 . S
H374 C352 0.930 . S
H375 C353 0.930 1_655 S
Nd376 C378 2.836 . S
Nd376 O396 2.500 . S
Nd376 O397 2.492 . S
Nd376 O398 2.487 . S
Nd376 O399 2.682 . S
Nd376 O400 2.410 . S
Nd376 O405 2.414 . S
Nd376 O407 2.424 . S
Nd377 C387 2.836 . S
Nd377 O399 2.414 . S
Nd377 O401 2.424 . S
Nd377 O402 2.500 . S
Nd377 O403 2.492 . S
Nd377 O404 2.487 . S
Nd377 O405 2.682 . S
Nd377 O406 2.410 . S
C378 Nd376 2.836 . S
C378 C379 1.498 . S
C378 O396 1.258 . S
C378 O397 1.239 . S
C379 C378 1.498 . S
C379 C380 1.366 . S
C379 C384 1.407 . S
C380 C379 1.366 . S
C380 C381 1.392 . S
C380 H408 0.930 . S
C381 C380 1.392 . S
C381 C382 1.398 . S
C381 H409 0.929 . S
C382 C381 1.398 . S
C382 C383 1.352 . S
C383 C382 1.352 . S
C383 C384 1.384 . S
C383 H410 0.930 . S
C384 C379 1.407 . S
C384 C383 1.384 . S
C384 H411 0.929 . S
C385 O398 1.241 . S
C385 O399 1.273 . S
C386 O400 1.251 . S
C386 O401 1.268 . S
C387 Nd377 2.836 . S
C387 C388 1.498 . S
C387 O402 1.258 . S
C387 O403 1.239 . S
C388 C387 1.498 . S
C388 C389 1.366 . S
C388 C393 1.407 . S
C389 C388 1.366 . S
C389 C390 1.392 . S
C389 H412 0.930 . S
C390 C389 1.392 . S
C390 C391 1.398 . S
C390 H413 0.929 . S
C391 C390 1.398 . S
C391 C392 1.352 . S
C392 C391 1.352 . S
C392 C393 1.384 . S
C392 H414 0.930 . S
C393 C388 1.407 . S
C393 C392 1.384 . S
C393 H415 0.929 . S
C394 O404 1.241 . S
C394 O405 1.273 . S
C395 O406 1.251 . S
C395 O407 1.268 . S
O396 Nd376 2.500 . S
O396 C378 1.258 . S
O397 Nd376 2.492 . S
O397 C378 1.239 . S
O398 Nd376 2.487 . S
O398 C385 1.241 . S
O399 Nd376 2.682 . S
O399 Nd377 2.414 . S
O399 C385 1.273 . S
O400 Nd376 2.410 . S
O400 C386 1.251 . S
O401 Nd377 2.424 . S
O401 C386 1.268 . S
O402 Nd377 2.500 . S
O402 C387 1.258 . S
O403 Nd377 2.492 . S
O403 C387 1.239 . S
O404 Nd377 2.487 . S
O404 C394 1.241 . S
O405 Nd376 2.414 . S
O405 Nd377 2.682 . S
O405 C394 1.273 . S
O406 Nd377 2.410 . S
O406 C395 1.251 . S
O407 Nd376 2.424 . S
O407 C395 1.268 . S
H408 C380 0.930 . S
H409 C381 0.929 . S
H410 C383 0.930 . S
H411 C384 0.929 . S
H412 C389 0.930 . S
H413 C390 0.929 . S
H414 C392 0.930 . S
H415 C393 0.929 . S
Nd416 C418 2.836 . S
Nd416 O436 2.500 . S
Nd416 O437 2.492 . S
Nd416 O438 2.487 . S
Nd416 O439 2.682 . S
Nd416 O440 2.410 . S
Nd416 O445 2.414 . S
Nd416 O447 2.424 . S
Nd417 C427 2.836 . S
Nd417 O439 2.414 . S
Nd417 O441 2.424 . S
Nd417 O442 2.500 . S
Nd417 O443 2.492 . S
Nd417 O444 2.487 . S
Nd417 O445 2.682 . S
Nd417 O446 2.410 . S
C418 Nd416 2.836 . S
C418 C419 1.498 . S
C418 O436 1.258 . S
C418 O437 1.239 . S
C419 C418 1.498 . S
C419 C420 1.366 . S
C419 C424 1.407 . S
C420 C419 1.366 . S
C420 C421 1.392 . S
C420 H448 0.930 . S
C421 C420 1.392 . S
C421 C422 1.398 . S
C421 H449 0.929 . S
C422 C421 1.398 . S
C422 C423 1.352 . S
C423 C422 1.352 . S
C423 C424 1.384 . S
C423 H450 0.930 . S
C424 C419 1.407 . S
C424 C423 1.384 . S
C424 H451 0.929 . S
C425 O438 1.241 . S
C425 O439 1.273 . S
C426 O440 1.251 . S
C426 O441 1.268 . S
C427 Nd417 2.836 . S
C427 C428 1.498 . S
C427 O442 1.258 . S
C427 O443 1.239 . S
C428 C427 1.498 . S
C428 C429 1.366 . S
C428 C433 1.407 . S
C429 C428 1.366 . S
C429 C430 1.392 . S
C429 H452 0.930 . S
C430 C429 1.392 . S
C430 C431 1.398 . S
C430 H453 0.929 . S
C431 C430 1.398 . S
C431 C432 1.352 . S
C432 C431 1.352 . S
C432 C433 1.384 . S
C432 H454 0.930 . S
C433 C428 1.407 . S
C433 C432 1.384 . S
C433 H455 0.929 . S
C434 O444 1.241 . S
C434 O445 1.273 . S
C435 O446 1.251 . S
C435 O447 1.268 . S
O436 Nd416 2.500 . S
O436 C418 1.258 . S
O437 Nd416 2.492 . S
O437 C418 1.239 . S
O438 Nd416 2.487 . S
O438 C425 1.241 . S
O439 Nd416 2.682 . S
O439 Nd417 2.414 . S
O439 C425 1.273 . S
O440 Nd416 2.410 . S
O440 C426 1.251 . S
O441 Nd417 2.424 . S
O441 C426 1.268 . S
O442 Nd417 2.500 . S
O442 C427 1.258 . S
O443 Nd417 2.492 . S
O443 C427 1.239 . S
O444 Nd417 2.487 . S
O444 C434 1.241 . S
O445 Nd416 2.414 . S
O445 Nd417 2.682 . S
O445 C434 1.273 . S
O446 Nd417 2.410 . S
O446 C435 1.251 . S
O447 Nd416 2.424 . S
O447 C435 1.268 . S
H448 C420 0.930 . S
H449 C421 0.929 . S
H450 C423 0.930 . S
H451 C424 0.929 . S
H452 C429 0.930 . S
H453 C430 0.929 . S
H454 C432 0.930 . S
H455 C433 0.929 . S
Nd456 C458 2.836 . S
Nd456 O476 2.500 . S
Nd456 O477 2.492 . S
Nd456 O478 2.487 . S
Nd456 O479 2.682 . S
Nd456 O480 2.410 . S
Nd456 O485 2.414 . S
Nd456 O487 2.424 . S
Nd457 C467 2.836 . S
Nd457 O479 2.414 . S
Nd457 O481 2.424 . S
Nd457 O482 2.500 . S
Nd457 O483 2.492 . S
Nd457 O484 2.487 . S
Nd457 O485 2.682 . S
Nd457 O486 2.410 . S
C458 Nd456 2.836 . S
C458 C459 1.498 . S
C458 O476 1.258 . S
C458 O477 1.239 . S
C459 C458 1.498 . S
C459 C460 1.366 . S
C459 C464 1.407 . S
C460 C459 1.366 . S
C460 C461 1.392 . S
C460 H488 0.930 . S
C461 C460 1.392 . S
C461 C462 1.398 . S
C461 H489 0.929 . S
C462 C461 1.398 . S
C462 C463 1.352 . S
C463 C462 1.352 . S
C463 C464 1.384 . S
C463 H490 0.930 . S
C464 C459 1.407 . S
C464 C463 1.384 . S
C464 H491 0.929 . S
C465 O478 1.241 . S
C465 O479 1.273 . S
C466 O480 1.251 . S
C466 O481 1.268 . S
C467 Nd457 2.836 . S
C467 C468 1.498 . S
C467 O482 1.258 . S
C467 O483 1.239 . S
C468 C467 1.498 . S
C468 C469 1.366 . S
C468 C473 1.407 . S
C469 C468 1.366 . S
C469 C470 1.392 . S
C469 H492 0.930 . S
C470 C469 1.392 . S
C470 C471 1.398 . S
C470 H493 0.929 . S
C471 C470 1.398 . S
C471 C472 1.352 . S
C472 C471 1.352 . S
C472 C473 1.384 . S
C472 H494 0.930 . S
C473 C468 1.407 . S
C473 C472 1.384 . S
C473 H495 0.929 . S
C474 O484 1.241 . S
C474 O485 1.273 . S
C475 O486 1.251 . S
C475 O487 1.268 . S
O476 Nd456 2.500 . S
O476 C458 1.258 . S
O477 Nd456 2.492 . S
O477 C458 1.239 . S
O478 Nd456 2.487 . S
O478 C465 1.241 . S
O479 Nd456 2.682 . S
O479 Nd457 2.414 . S
O479 C465 1.273 . S
O480 Nd456 2.410 . S
O480 C466 1.251 . S
O481 Nd457 2.424 . S
O481 C466 1.268 . S
O482 Nd457 2.500 . S
O482 C467 1.258 . S
O483 Nd457 2.492 . S
O483 C467 1.239 . S
O484 Nd457 2.487 . S
O484 C474 1.241 . S
O485 Nd456 2.414 . S
O485 Nd457 2.682 . S
O485 C474 1.273 . S
O486 Nd457 2.410 . S
O486 C475 1.251 . S
O487 Nd456 2.424 . S
O487 C475 1.268 . S
H488 C460 0.930 . S
H489 C461 0.929 . S
H490 C463 0.930 . S
H491 C464 0.929 . S
H492 C469 0.930 . S
H493 C470 0.929 . S
H494 C472 0.930 . S
H495 C473 0.929 . S
Nd496 C498 2.836 . S
Nd496 O516 2.500 . S
Nd496 O517 2.492 . S
Nd496 O518 2.487 . S
Nd496 O519 2.682 . S
Nd496 O520 2.410 . S
Nd496 O525 2.414 . S
Nd496 O527 2.424 . S
Nd497 C507 2.836 1_545 S
Nd497 O519 2.414 . S
Nd497 O521 2.424 . S
Nd497 O522 2.500 . S
Nd497 O523 2.492 1_545 S
Nd497 O524 2.487 1_455 S
Nd497 O525 2.682 . S
Nd497 O526 2.410 . S
C498 Nd496 2.836 . S
C498 C499 1.498 . S
C498 O516 1.258 . S
C498 O517 1.239 . S
C499 C498 1.498 . S
C499 C500 1.366 1_455 S
C499 C504 1.407 . S
C500 C499 1.366 1_655 S
C500 C501 1.392 . S
C500 H528 0.930 . S
C501 C500 1.392 . S
C501 C502 1.384 1_655 S
C501 H529 0.929 . S
C502 C501 1.384 1_455 S
C502 C503 1.377 . S
C503 C502 1.377 . S
C503 C504 1.384 . S
C503 H530 0.930 . S
C504 C499 1.407 . S
C504 C503 1.384 . S
C504 H531 0.929 . S
C505 O518 1.241 . S
C505 O519 1.273 . S
C506 O520 1.251 . S
C506 O521 1.268 . S
C507 Nd497 2.836 1_565 S
C507 C508 1.498 . S
C507 O522 1.258 1_565 S
C507 O523 1.239 . S
C508 C507 1.498 . S
C508 C509 1.366 . S
C508 C513 1.407 . S
C509 C508 1.366 . S
C509 C510 1.392 . S
C509 H532 0.930 . S
C510 C509 1.392 . S
C510 C511 1.398 . S
C510 H533 0.929 . S
C511 C510 1.398 . S
C511 C512 1.352 . S
C512 C511 1.352 . S
C512 C513 1.384 . S
C512 H534 0.930 . S
C513 C508 1.407 . S
C513 C512 1.384 . S
C513 H535 0.929 . S
C514 O524 1.241 . S
C514 O525 1.273 1_655 S
C515 O526 1.251 . S
C515 O527 1.268 . S
O516 Nd496 2.500 . S
O516 C498 1.258 . S
O517 Nd496 2.492 . S
O517 C498 1.239 . S
O518 Nd496 2.487 . S
O518 C505 1.241 . S
O519 Nd496 2.682 . S
O519 Nd497 2.414 . S
O519 C505 1.273 . S
O520 Nd496 2.410 . S
O520 C506 1.251 . S
O521 Nd497 2.424 . S
O521 C506 1.268 . S
O522 Nd497 2.500 . S
O522 C507 1.258 1_545 S
O523 Nd497 2.492 1_565 S
O523 C507 1.239 . S
O524 Nd497 2.487 1_655 S
O524 C514 1.241 . S
O525 Nd496 2.414 . S
O525 Nd497 2.682 . S
O525 C514 1.273 1_455 S
O526 Nd497 2.410 . S
O526 C515 1.251 . S
O527 Nd496 2.424 . S
O527 C515 1.268 . S
H528 C500 0.930 . S
H529 C501 0.929 . S
H530 C503 0.930 . S
H531 C504 0.929 . S
H532 C509 0.930 . S
H533 C510 0.929 . S
H534 C512 0.930 . S
H535 C513 0.929 . S
Nd536 C538 2.836 . S
Nd536 O556 2.500 . S
Nd536 O557 2.492 . S
Nd536 O558 2.487 . S
Nd536 O559 2.682 . S
Nd536 O560 2.410 . S
Nd536 O565 2.414 . S
Nd536 O567 2.424 . S
Nd537 C547 2.836 . S
Nd537 O559 2.414 . S
Nd537 O561 2.424 . S
Nd537 O562 2.500 . S
Nd537 O563 2.492 . S
Nd537 O564 2.487 . S
Nd537 O565 2.682 . S
Nd537 O566 2.410 . S
C538 Nd536 2.836 . S
C538 C539 1.498 . S
C538 O556 1.258 . S
C538 O557 1.239 . S
C539 C538 1.498 . S
C539 C540 1.366 . S
C539 C544 1.407 . S
C540 C539 1.366 . S
C540 C541 1.392 . S
C540 H568 0.930 . S
C541 C540 1.392 . S
C541 C542 1.398 . S
C541 H569 0.929 . S
C542 C541 1.398 . S
C542 C543 1.352 . S
C543 C542 1.352 . S
C543 C544 1.384 . S
C543 H570 0.930 . S
C544 C539 1.407 . S
C544 C543 1.384 . S
C544 H571 0.929 . S
C545 O558 1.241 . S
C545 O559 1.273 . S
C546 O560 1.251 . S
C546 O561 1.268 . S
C547 Nd537 2.836 . S
C547 C548 1.498 . S
C547 O562 1.258 . S
C547 O563 1.239 . S
C548 C547 1.498 . S
C548 C549 1.366 . S
C548 C553 1.407 . S
C549 C548 1.366 . S
C549 C550 1.392 . S
C549 H572 0.930 . S
C550 C549 1.392 . S
C550 C551 1.398 . S
C550 H573 0.929 . S
C551 C550 1.398 . S
C551 C552 1.352 . S
C552 C551 1.352 . S
C552 C553 1.384 . S
C552 H574 0.930 . S
C553 C548 1.407 . S
C553 C552 1.384 . S
C553 H575 0.929 . S
C554 O564 1.241 . S
C554 O565 1.273 . S
C555 O566 1.251 . S
C555 O567 1.268 . S
O556 Nd536 2.500 . S
O556 C538 1.258 . S
O557 Nd536 2.492 . S
O557 C538 1.239 . S
O558 Nd536 2.487 . S
O558 C545 1.241 . S
O559 Nd536 2.682 . S
O559 Nd537 2.414 . S
O559 C545 1.273 . S
O560 Nd536 2.410 . S
O560 C546 1.251 . S
O561 Nd537 2.424 . S
O561 C546 1.268 . S
O562 Nd537 2.500 . S
O562 C547 1.258 . S
O563 Nd537 2.492 . S
O563 C547 1.239 . S
O564 Nd537 2.487 . S
O564 C554 1.241 . S
O565 Nd536 2.414 . S
O565 Nd537 2.682 . S
O565 C554 1.273 . S
O566 Nd537 2.410 . S
O566 C555 1.251 . S
O567 Nd536 2.424 . S
O567 C555 1.268 . S
H568 C540 0.930 . S
H569 C541 0.929 . S
H570 C543 0.930 . S
H571 C544 0.929 . S
H572 C549 0.930 . S
H573 C550 0.929 . S
H574 C552 0.930 . S
H575 C553 0.929 . S
Nd576 C578 2.836 . S
Nd576 O596 2.500 . S
Nd576 O597 2.492 . S
Nd576 O598 2.487 . S
Nd576 O599 2.682 . S
Nd576 O600 2.410 . S
Nd576 O605 2.414 . S
Nd576 O607 2.424 . S
Nd577 C587 2.836 . S
Nd577 O599 2.414 . S
Nd577 O601 2.424 . S
Nd577 O602 2.500 . S
Nd577 O603 2.492 . S
Nd577 O604 2.487 . S
Nd577 O605 2.682 . S
Nd577 O606 2.410 . S
C578 Nd576 2.836 . S
C578 C579 1.498 . S
C578 O596 1.258 . S
C578 O597 1.239 . S
C579 C578 1.498 . S
C579 C580 1.366 . S
C579 C584 1.407 . S
C580 C579 1.366 . S
C580 C581 1.392 . S
C580 H608 0.930 . S
C581 C580 1.392 . S
C581 C582 1.398 . S
C581 H609 0.929 . S
C582 C581 1.398 . S
C582 C583 1.352 . S
C583 C582 1.352 . S
C583 C584 1.384 . S
C583 H610 0.930 1_545 S
C584 C579 1.407 . S
C584 C583 1.384 . S
C584 H611 0.907 1_545 S
C585 O598 1.241 . S
C585 O599 1.273 . S
C586 O600 1.251 . S
C586 O601 1.268 . S
C587 Nd577 2.836 . S
C587 C588 1.498 . S
C587 O602 1.258 . S
C587 O603 1.239 . S
C588 C587 1.498 . S
C588 C589 1.366 . S
C588 C593 1.407 . S
C589 C588 1.366 . S
C589 C590 1.392 . S
C589 H612 0.930 . S
C590 C589 1.392 . S
C590 C591 1.398 . S
C590 H613 0.929 . S
C591 C590 1.398 . S
C591 C592 1.352 . S
C592 C591 1.352 . S
C592 C593 1.384 . S
C592 H614 0.930 . S
C593 C588 1.407 . S
C593 C592 1.384 . S
C593 H615 0.929 . S
C594 O604 1.241 . S
C594 O605 1.273 . S
C595 O606 1.251 . S
C595 O607 1.268 . S
O596 Nd576 2.500 . S
O596 C578 1.258 . S
O597 Nd576 2.492 . S
O597 C578 1.239 . S
O598 Nd576 2.487 . S
O598 C585 1.241 . S
O599 Nd576 2.682 . S
O599 Nd577 2.414 . S
O599 C585 1.273 . S
O600 Nd576 2.410 . S
O600 C586 1.251 . S
O601 Nd577 2.424 . S
O601 C586 1.268 . S
O602 Nd577 2.500 . S
O602 C587 1.258 . S
O603 Nd577 2.492 . S
O603 C587 1.239 . S
O604 Nd577 2.487 . S
O604 C594 1.241 . S
O605 Nd576 2.414 . S
O605 Nd577 2.682 . S
O605 C594 1.273 . S
O606 Nd577 2.410 . S
O606 C595 1.251 . S
O607 Nd576 2.424 . S
O607 C595 1.268 . S
H608 C580 0.930 . S
H609 C581 0.929 . S
H610 C583 0.930 1_565 S
H611 C584 0.907 1_565 S
H612 C589 0.930 . S
H613 C590 0.929 . S
H614 C592 0.930 . S
H615 C593 0.929 . S
Nd616 C618 2.836 . S
Nd616 O636 2.500 . S
Nd616 O637 2.492 . S
Nd616 O638 2.487 . S
Nd616 O639 2.682 . S
Nd616 O640 2.410 . S
Nd616 O645 2.414 . S
Nd616 O647 2.424 . S
Nd617 C627 2.836 . S
Nd617 O639 2.414 . S
Nd617 O641 2.424 . S
Nd617 O642 2.500 . S
Nd617 O643 2.492 . S
Nd617 O644 2.487 . S
Nd617 O645 2.682 . S
Nd617 O646 2.410 . S
C618 Nd616 2.836 . S
C618 C619 1.498 . S
C618 O636 1.258 . S
C618 O637 1.239 . S
C619 C618 1.498 . S
C619 C620 1.366 . S
C619 C624 1.407 . S
C620 C619 1.366 . S
C620 C621 1.392 . S
C620 H648 0.930 . S
C621 C620 1.392 . S
C621 C622 1.398 . S
C621 H649 0.929 . S
C622 C621 1.398 . S
C622 C623 1.352 . S
C623 C622 1.352 . S
C623 C624 1.384 . S
C623 H650 0.930 . S
C624 C619 1.407 . S
C624 C623 1.384 . S
C624 H651 0.929 . S
C625 O638 1.241 . S
C625 O639 1.273 . S
C626 O640 1.251 . S
C626 O641 1.268 . S
C627 Nd617 2.836 . S
C627 C628 1.498 . S
C627 O642 1.258 . S
C627 O643 1.239 . S
C628 C627 1.498 . S
C628 C629 1.366 . S
C628 C633 1.407 . S
C629 C628 1.366 . S
C629 C630 1.392 . S
C629 H652 0.930 . S
C630 C629 1.392 . S
C630 C631 1.398 . S
C630 H653 0.929 . S
C631 C630 1.398 . S
C631 C632 1.352 . S
C632 C631 1.352 . S
C632 C633 1.384 . S
C632 H654 0.930 . S
C633 C628 1.407 . S
C633 C632 1.384 . S
C633 H655 0.929 . S
C634 O644 1.241 . S
C634 O645 1.273 . S
C635 O646 1.251 . S
C635 O647 1.268 . S
O636 Nd616 2.500 . S
O636 C618 1.258 . S
O637 Nd616 2.492 . S
O637 C618 1.239 . S
O638 Nd616 2.487 . S
O638 C625 1.241 . S
O639 Nd616 2.682 . S
O639 Nd617 2.414 . S
O639 C625 1.273 . S
O640 Nd616 2.410 . S
O640 C626 1.251 . S
O641 Nd617 2.424 . S
O641 C626 1.268 . S
O642 Nd617 2.500 . S
O642 C627 1.258 . S
O643 Nd617 2.492 . S
O643 C627 1.239 . S
O644 Nd617 2.487 . S
O644 C634 1.241 . S
O645 Nd616 2.414 . S
O645 Nd617 2.682 . S
O645 C634 1.273 . S
O646 Nd617 2.410 . S
O646 C635 1.251 . S
O647 Nd616 2.424 . S
O647 C635 1.268 . S
H648 C620 0.930 . S
H649 C621 0.929 . S
H650 C623 0.930 . S
H651 C624 0.929 . S
H652 C629 0.930 . S
H653 C630 0.929 . S
H654 C632 0.930 . S
H655 C633 0.929 . S
Nd656 C658 2.836 . S
Nd656 O676 2.500 . S
Nd656 O677 2.492 . S
Nd656 O678 2.487 . S
Nd656 O679 2.682 . S
Nd656 O680 2.410 . S
Nd656 O685 2.414 . S
Nd656 O687 2.424 . S
Nd657 C667 2.836 . S
Nd657 O679 2.414 . S
Nd657 O681 2.424 . S
Nd657 O682 2.500 . S
Nd657 O683 2.492 . S
Nd657 O684 2.487 . S
Nd657 O685 2.682 . S
Nd657 O686 2.410 . S
C658 Nd656 2.836 . S
C658 C659 1.498 . S
C658 O676 1.258 . S
C658 O677 1.239 . S
C659 C658 1.498 . S
C659 C660 1.366 . S
C659 C664 1.407 . S
C660 C659 1.366 . S
C660 C661 1.392 . S
C660 H688 0.930 . S
C661 C660 1.392 . S
C661 C662 1.398 . S
C661 H689 0.929 . S
C662 C661 1.398 . S
C662 C663 1.352 . S
C663 C662 1.352 . S
C663 C664 1.384 . S
C663 H690 0.930 . S
C664 C659 1.407 . S
C664 C663 1.384 . S
C664 H691 0.929 . S
C665 O678 1.241 . S
C665 O679 1.273 . S
C666 O680 1.251 . S
C666 O681 1.268 . S
C667 Nd657 2.836 . S
C667 C668 1.498 . S
C667 O682 1.258 . S
C667 O683 1.239 . S
C668 C667 1.498 . S
C668 C669 1.366 . S
C668 C673 1.407 . S
C669 C668 1.366 . S
C669 C670 1.392 . S
C669 H692 0.930 . S
C670 C669 1.392 . S
C670 C671 1.398 . S
C670 H693 0.929 . S
C671 C670 1.398 . S
C671 C672 1.352 . S
C672 C671 1.352 . S
C672 C673 1.384 . S
C672 H694 0.930 . S
C673 C668 1.407 . S
C673 C672 1.384 . S
C673 H695 0.929 . S
C674 O684 1.241 . S
C674 O685 1.273 . S
C675 O686 1.251 . S
C675 O687 1.268 . S
O676 Nd656 2.500 . S
O676 C658 1.258 . S
O677 Nd656 2.492 . S
O677 C658 1.239 . S
O678 Nd656 2.487 . S
O678 C665 1.241 . S
O679 Nd656 2.682 . S
O679 Nd657 2.414 . S
O679 C665 1.273 . S
O680 Nd656 2.410 . S
O680 C666 1.251 . S
O681 Nd657 2.424 . S
O681 C666 1.268 . S
O682 Nd657 2.500 . S
O682 C667 1.258 . S
O683 Nd657 2.492 . S
O683 C667 1.239 . S
O684 Nd657 2.487 . S
O684 C674 1.241 . S
O685 Nd656 2.414 . S
O685 Nd657 2.682 . S
O685 C674 1.273 . S
O686 Nd657 2.410 . S
O686 C675 1.251 . S
O687 Nd656 2.424 . S
O687 C675 1.268 . S
H688 C660 0.930 . S
H689 C661 0.929 . S
H690 C663 0.930 . S
H691 C664 0.929 . S
H692 C669 0.930 . S
H693 C670 0.929 . S
H694 C672 0.930 . S
H695 C673 0.929 . S
Nd696 C698 2.836 . S
Nd696 O716 2.500 . S
Nd696 O717 2.492 . S
Nd696 O718 2.487 . S
Nd696 O719 2.682 . S
Nd696 O720 2.410 . S
Nd696 O725 2.414 . S
Nd696 O727 2.424 . S
Nd697 C707 2.836 . S
Nd697 O719 2.414 . S
Nd697 O721 2.424 . S
Nd697 O722 2.500 . S
Nd697 O723 2.492 . S
Nd697 O724 2.487 . S
Nd697 O725 2.682 . S
Nd697 O726 2.410 . S
C698 Nd696 2.836 . S
C698 C699 1.498 . S
C698 O716 1.258 . S
C698 O717 1.239 . S
C699 C698 1.498 . S
C699 C700 1.366 . S
C699 C704 1.407 . S
C700 C699 1.366 . S
C700 C701 1.392 . S
C700 H728 0.930 . S
C701 C700 1.392 . S
C701 C702 1.398 . S
C701 H729 0.929 . S
C702 C701 1.398 . S
C702 C703 1.352 . S
C703 C702 1.352 . S
C703 C704 1.384 . S
C703 H730 0.930 . S
C704 C699 1.407 . S
C704 C703 1.384 . S
C704 H731 0.929 . S
C705 O718 1.241 . S
C705 O719 1.273 . S
C706 O720 1.251 . S
C706 O721 1.268 . S
C707 Nd697 2.836 . S
C707 C708 1.498 . S
C707 O722 1.258 . S
C707 O723 1.239 . S
C708 C707 1.498 . S
C708 C709 1.366 . S
C708 C713 1.407 . S
C709 C708 1.366 . S
C709 C710 1.392 . S
C709 H732 0.930 . S
C710 C709 1.392 . S
C710 C711 1.398 . S
C710 H733 0.929 . S
C711 C710 1.398 . S
C711 C712 1.352 . S
C712 C711 1.352 . S
C712 C713 1.384 . S
C712 H734 0.930 . S
C713 C708 1.407 . S
C713 C712 1.384 . S
C713 H735 0.929 . S
C714 O724 1.241 . S
C714 O725 1.273 . S
C715 O726 1.251 . S
C715 O727 1.268 . S
O716 Nd696 2.500 . S
O716 C698 1.258 . S
O717 Nd696 2.492 . S
O717 C698 1.239 . S
O718 Nd696 2.487 . S
O718 C705 1.241 . S
O719 Nd696 2.682 . S
O719 Nd697 2.414 . S
O719 C705 1.273 . S
O720 Nd696 2.410 . S
O720 C706 1.251 . S
O721 Nd697 2.424 . S
O721 C706 1.268 . S
O722 Nd697 2.500 . S
O722 C707 1.258 . S
O723 Nd697 2.492 . S
O723 C707 1.239 . S
O724 Nd697 2.487 . S
O724 C714 1.241 . S
O725 Nd696 2.414 . S
O725 Nd697 2.682 . S
O725 C714 1.273 . S
O726 Nd697 2.410 . S
O726 C715 1.251 . S
O727 Nd696 2.424 . S
O727 C715 1.268 . S
H728 C700 0.930 . S
H729 C701 0.929 . S
H730 C703 0.930 . S
H731 C704 0.929 . S
H732 C709 0.930 . S
H733 C710 0.929 . S
H734 C712 0.930 . S
H735 C713 0.929 . S
Nd736 C738 2.836 . S
Nd736 O756 2.500 . S
Nd736 O757 2.492 . S
Nd736 O758 2.487 1_655 S
Nd736 O759 2.682 1_655 S
Nd736 O760 2.410 . S
Nd736 O765 2.414 1_655 S
Nd736 O767 2.424 1_655 S
Nd737 C747 2.836 . S
Nd737 O759 2.414 . S
Nd737 O761 2.424 . S
Nd737 O762 2.500 . S
Nd737 O763 2.492 . S
Nd737 O764 2.487 . S
Nd737 O765 2.682 . S
Nd737 O766 2.410 . S
C738 Nd736 2.836 . S
C738 C739 1.498 . S
C738 O756 1.258 . S
C738 O757 1.239 . S
C739 C738 1.498 . S
C739 C740 1.366 . S
C739 C744 1.407 . S
C740 C739 1.366 . S
C740 C741 1.392 . S
C740 H768 0.930 . S
C741 C740 1.392 . S
C741 C742 1.398 . S
C741 H769 0.929 . S
C742 C741 1.398 . S
C742 C743 1.352 . S
C743 C742 1.352 . S
C743 C744 1.384 . S
C743 H770 0.930 . S
C744 C739 1.407 . S
C744 C743 1.384 . S
C744 H771 0.929 . S
C745 O758 1.241 . S
C745 O759 1.273 . S
C746 O760 1.251 1_455 S
C746 O761 1.268 . S
C747 Nd737 2.836 . S
C747 C748 1.498 . S
C747 O762 1.258 . S
C747 O763 1.239 . S
C748 C747 1.498 . S
C748 C749 1.366 . S
C748 C753 1.407 . S
C749 C748 1.366 . S
C749 C750 1.392 . S
C749 H772 0.930 . S
C750 C749 1.392 . S
C750 C751 1.398 . S
C750 H773 0.929 . S
C751 C750 1.398 . S
C751 C752 1.352 . S
C752 C751 1.352 . S
C752 C753 1.384 . S
C752 H774 0.930 . S
C753 C748 1.407 . S
C753 C752 1.384 . S
C753 H775 0.929 . S
C754 O764 1.241 . S
C754 O765 1.273 . S
C755 O766 1.251 . S
C755 O767 1.268 . S
O756 Nd736 2.500 . S
O756 C738 1.258 . S
O757 Nd736 2.492 . S
O757 C738 1.239 . S
O758 Nd736 2.487 1_455 S
O758 C745 1.241 . S
O759 Nd736 2.682 1_455 S
O759 Nd737 2.414 . S
O759 C745 1.273 . S
O760 Nd736 2.410 . S
O760 C746 1.251 1_655 S
O761 Nd737 2.424 . S
O761 C746 1.268 . S
O762 Nd737 2.500 . S
O762 C747 1.258 . S
O763 Nd737 2.492 . S
O763 C747 1.239 . S
O764 Nd737 2.487 . S
O764 C754 1.241 . S
O765 Nd736 2.414 1_455 S
O765 Nd737 2.682 . S
O765 C754 1.273 . S
O766 Nd737 2.410 . S
O766 C755 1.251 . S
O767 Nd736 2.424 1_455 S
O767 C755 1.268 . S
H768 C740 0.930 . S
H769 C741 0.929 . S
H770 C743 0.930 . S
H771 C744 0.929 . S
H772 C749 0.930 . S
H773 C750 0.929 . S
H774 C752 0.930 . S
H775 C753 0.929 . S
Nd776 C778 2.836 . S
Nd776 O796 2.500 . S
Nd776 O797 2.492 . S
Nd776 O798 2.487 . S
Nd776 O799 2.682 . S
Nd776 O800 2.410 . S
Nd776 O805 2.414 . S
Nd776 O807 2.424 . S
Nd777 C787 2.836 . S
Nd777 O799 2.414 . S
Nd777 O801 2.424 . S
Nd777 O802 2.500 . S
Nd777 O803 2.492 . S
Nd777 O804 2.487 . S
Nd777 O805 2.682 . S
Nd777 O806 2.410 . S
C778 Nd776 2.836 . S
C778 C779 1.498 . S
C778 O796 1.258 . S
C778 O797 1.239 . S
C779 C778 1.498 . S
C779 C780 1.366 . S
C779 C784 1.407 . S
C780 C779 1.366 . S
C780 C781 1.392 . S
C780 H808 0.930 . S
C781 C780 1.392 . S
C781 C782 1.398 . S
C781 H809 0.929 . S
C782 C781 1.398 . S
C782 C783 1.352 . S
C783 C782 1.352 . S
C783 C784 1.384 . S
C783 H810 0.930 . S
C784 C779 1.407 . S
C784 C783 1.384 . S
C784 H811 0.929 . S
C785 O798 1.241 . S
C785 O799 1.273 . S
C786 O800 1.251 . S
C786 O801 1.268 . S
C787 Nd777 2.836 . S
C787 C788 1.498 . S
C787 O802 1.258 . S
C787 O803 1.239 . S
C788 C787 1.498 . S
C788 C789 1.366 . S
C788 C793 1.407 . S
C789 C788 1.366 . S
C789 C790 1.392 . S
C789 H812 0.930 . S
C790 C789 1.392 . S
C790 C791 1.398 . S
C790 H813 0.929 . S
C791 C790 1.398 . S
C791 C792 1.352 . S
C792 C791 1.352 . S
C792 C793 1.384 . S
C792 H814 0.930 . S
C793 C788 1.407 . S
C793 C792 1.384 . S
C793 H815 0.929 . S
C794 O804 1.241 . S
C794 O805 1.273 . S
C795 O806 1.251 . S
C795 O807 1.268 . S
O796 Nd776 2.500 . S
O796 C778 1.258 . S
O797 Nd776 2.492 . S
O797 C778 1.239 . S
O798 Nd776 2.487 . S
O798 C785 1.241 . S
O799 Nd776 2.682 . S
O799 Nd777 2.414 . S
O799 C785 1.273 . S
O800 Nd776 2.410 . S
O800 C786 1.251 . S
O801 Nd777 2.424 . S
O801 C786 1.268 . S
O802 Nd777 2.500 . S
O802 C787 1.258 . S
O803 Nd777 2.492 . S
O803 C787 1.239 . S
O804 Nd777 2.487 . S
O804 C794 1.241 . S
O805 Nd776 2.414 . S
O805 Nd777 2.682 . S
O805 C794 1.273 . S
O806 Nd777 2.410 . S
O806 C795 1.251 . S
O807 Nd776 2.424 . S
O807 C795 1.268 . S
H808 C780 0.930 . S
H809 C781 0.929 . S
H810 C783 0.930 . S
H811 C784 0.929 . S
H812 C789 0.930 . S
H813 C790 0.929 . S
H814 C792 0.930 . S
H815 C793 0.929 . S
Nd816 C818 2.836 . S
Nd816 O836 2.500 . S
Nd816 O837 2.492 . S
Nd816 O838 2.487 . S
Nd816 O839 2.682 . S
Nd816 O840 2.410 . S
Nd816 O845 2.414 . S
Nd816 O847 2.424 . S
Nd817 C827 2.836 . S
Nd817 O839 2.414 . S
Nd817 O841 2.424 . S
Nd817 O842 2.500 . S
Nd817 O843 2.492 . S
Nd817 O844 2.487 . S
Nd817 O845 2.682 . S
Nd817 O846 2.410 . S
C818 Nd816 2.836 . S
C818 C819 1.498 . S
C818 O836 1.258 . S
C818 O837 1.239 . S
C819 C818 1.498 . S
C819 C820 1.366 . S
C819 C824 1.407 . S
C820 C819 1.366 . S
C820 C821 1.392 . S
C820 H848 0.930 . S
C821 C820 1.392 . S
C821 C822 1.398 . S
C821 H849 0.929 . S
C822 C821 1.398 . S
C822 C823 1.352 . S
C823 C822 1.352 . S
C823 C824 1.384 . S
C823 H850 0.930 . S
C824 C819 1.407 . S
C824 C823 1.384 . S
C824 H851 0.929 . S
C825 O838 1.241 . S
C825 O839 1.273 . S
C826 O840 1.251 . S
C826 O841 1.268 . S
C827 Nd817 2.836 . S
C827 C828 1.498 . S
C827 O842 1.258 . S
C827 O843 1.239 . S
C828 C827 1.498 . S
C828 C829 1.366 . S
C828 C833 1.407 . S
C829 C828 1.366 . S
C829 C830 1.392 . S
C829 H852 0.930 . S
C830 C829 1.392 . S
C830 C831 1.398 . S
C830 H853 0.929 . S
C831 C830 1.398 . S
C831 C832 1.352 . S
C832 C831 1.352 . S
C832 C833 1.384 . S
C832 H854 0.930 . S
C833 C828 1.407 . S
C833 C832 1.384 . S
C833 H855 0.929 . S
C834 O844 1.241 . S
C834 O845 1.273 . S
C835 O846 1.251 . S
C835 O847 1.268 . S
O836 Nd816 2.500 . S
O836 C818 1.258 . S
O837 Nd816 2.492 . S
O837 C818 1.239 . S
O838 Nd816 2.487 . S
O838 C825 1.241 . S
O839 Nd816 2.682 . S
O839 Nd817 2.414 . S
O839 C825 1.273 . S
O840 Nd816 2.410 . S
O840 C826 1.251 . S
O841 Nd817 2.424 . S
O841 C826 1.268 . S
O842 Nd817 2.500 . S
O842 C827 1.258 . S
O843 Nd817 2.492 . S
O843 C827 1.239 . S
O844 Nd817 2.487 . S
O844 C834 1.241 . S
O845 Nd816 2.414 . S
O845 Nd817 2.682 . S
O845 C834 1.273 . S
O846 Nd817 2.410 . S
O846 C835 1.251 . S
O847 Nd816 2.424 . S
O847 C835 1.268 . S
H848 C820 0.930 . S
H849 C821 0.929 . S
H850 C823 0.930 . S
H851 C824 0.929 . S
H852 C829 0.930 . S
H853 C830 0.929 . S
H854 C832 0.930 . S
H855 C833 0.929 . S
Nd856 C858 2.836 . S
Nd856 O876 2.500 . S
Nd856 O877 2.492 . S
Nd856 O878 2.487 . S
Nd856 O879 2.682 . S
Nd856 O880 2.410 . S
Nd856 O885 2.414 . S
Nd856 O887 2.424 . S
Nd857 C867 2.836 . S
Nd857 O879 2.414 . S
Nd857 O881 2.424 . S
Nd857 O882 2.500 . S
Nd857 O883 2.492 . S
Nd857 O884 2.487 . S
Nd857 O885 2.682 . S
Nd857 O886 2.410 . S
C858 Nd856 2.836 . S
C858 C859 1.498 . S
C858 O876 1.258 . S
C858 O877 1.239 . S
C859 C858 1.498 . S
C859 C860 1.366 . S
C859 C864 1.407 . S
C860 C859 1.366 . S
C860 C861 1.392 . S
C860 H888 0.930 . S
C861 C860 1.392 . S
C861 C862 1.398 . S
C861 H889 0.929 . S
C862 C861 1.398 . S
C862 C863 1.352 . S
C863 C862 1.352 . S
C863 C864 1.384 . S
C863 H890 0.930 . S
C864 C859 1.407 . S
C864 C863 1.384 . S
C864 H891 0.929 . S
C865 O878 1.241 . S
C865 O879 1.273 . S
C866 O880 1.251 . S
C866 O881 1.268 . S
C867 Nd857 2.836 . S
C867 C868 1.498 . S
C867 O882 1.258 . S
C867 O883 1.239 . S
C868 C867 1.498 . S
C868 C869 1.366 . S
C868 C873 1.407 . S
C869 C868 1.366 . S
C869 C870 1.392 . S
C869 H892 0.930 . S
C870 C869 1.392 . S
C870 C871 1.398 . S
C870 H893 0.929 . S
C871 C870 1.398 . S
C871 C872 1.352 . S
C872 C871 1.352 . S
C872 C873 1.384 . S
C872 H894 0.930 . S
C873 C868 1.407 . S
C873 C872 1.384 . S
C873 H895 0.929 . S
C874 O884 1.241 . S
C874 O885 1.273 . S
C875 O886 1.251 . S
C875 O887 1.268 . S
O876 Nd856 2.500 . S
O876 C858 1.258 . S
O877 Nd856 2.492 . S
O877 C858 1.239 . S
O878 Nd856 2.487 . S
O878 C865 1.241 . S
O879 Nd856 2.682 . S
O879 Nd857 2.414 . S
O879 C865 1.273 . S
O880 Nd856 2.410 . S
O880 C866 1.251 . S
O881 Nd857 2.424 . S
O881 C866 1.268 . S
O882 Nd857 2.500 . S
O882 C867 1.258 . S
O883 Nd857 2.492 . S
O883 C867 1.239 . S
O884 Nd857 2.487 . S
O884 C874 1.241 . S
O885 Nd856 2.414 . S
O885 Nd857 2.682 . S
O885 C874 1.273 . S
O886 Nd857 2.410 . S
O886 C875 1.251 . S
O887 Nd856 2.424 . S
O887 C875 1.268 . S
H888 C860 0.930 . S
H889 C861 0.929 . S
H890 C863 0.930 . S
H891 C864 0.929 . S
H892 C869 0.930 . S
H893 C870 0.929 . S
H894 C872 0.930 . S
H895 C873 0.929 . S
Nd896 C898 2.836 . S
Nd896 O916 2.500 . S
Nd896 O917 2.492 . S
Nd896 O918 2.487 . S
Nd896 O919 2.682 . S
Nd896 O920 2.410 . S
Nd896 O925 2.414 . S
Nd896 O927 2.424 . S
Nd897 C907 2.836 . S
Nd897 O919 2.414 . S
Nd897 O921 2.424 . S
Nd897 O922 2.500 . S
Nd897 O923 2.492 . S
Nd897 O924 2.487 . S
Nd897 O925 2.682 . S
Nd897 O926 2.410 . S
C898 Nd896 2.836 . S
C898 C899 1.498 . S
C898 O916 1.258 . S
C898 O917 1.239 . S
C899 C898 1.498 . S
C899 C900 1.366 . S
C899 C904 1.407 . S
C900 C899 1.366 . S
C900 C901 1.392 . S
C900 H928 0.930 . S
C901 C900 1.392 . S
C901 C902 1.398 . S
C901 H929 0.929 . S
C902 C901 1.398 . S
C902 C903 1.352 . S
C903 C902 1.352 . S
C903 C904 1.384 . S
C903 H930 0.930 . S
C904 C899 1.407 . S
C904 C903 1.384 . S
C904 H931 0.929 . S
C905 O918 1.241 . S
C905 O919 1.273 . S
C906 O920 1.251 . S
C906 O921 1.268 . S
C907 Nd897 2.836 . S
C907 C908 1.498 . S
C907 O922 1.258 . S
C907 O923 1.239 . S
C908 C907 1.498 . S
C908 C909 1.366 . S
C908 C913 1.407 . S
C909 C908 1.366 . S
C909 C910 1.392 . S
C909 H932 0.930 . S
C910 C909 1.392 . S
C910 C911 1.398 . S
C910 H933 0.929 . S
C911 C910 1.398 . S
C911 C912 1.352 . S
C912 C911 1.352 . S
C912 C913 1.384 . S
C912 H934 0.930 . S
C913 C908 1.407 . S
C913 C912 1.384 . S
C913 H935 0.929 . S
C914 O924 1.241 . S
C914 O925 1.273 . S
C915 O926 1.251 . S
C915 O927 1.268 . S
O916 Nd896 2.500 . S
O916 C898 1.258 . S
O917 Nd896 2.492 . S
O917 C898 1.239 . S
O918 Nd896 2.487 . S
O918 C905 1.241 . S
O919 Nd896 2.682 . S
O919 Nd897 2.414 . S
O919 C905 1.273 . S
O920 Nd896 2.410 . S
O920 C906 1.251 . S
O921 Nd897 2.424 . S
O921 C906 1.268 . S
O922 Nd897 2.500 . S
O922 C907 1.258 . S
O923 Nd897 2.492 . S
O923 C907 1.239 . S
O924 Nd897 2.487 . S
O924 C914 1.241 . S
O925 Nd896 2.414 . S
O925 Nd897 2.682 . S
O925 C914 1.273 . S
O926 Nd897 2.410 . S
O926 C915 1.251 . S
O927 Nd896 2.424 . S
O927 C915 1.268 . S
H928 C900 0.930 . S
H929 C901 0.929 . S
H930 C903 0.930 . S
H931 C904 0.929 . S
H932 C909 0.930 . S
H933 C910 0.929 . S
H934 C912 0.930 . S
H935 C913 0.929 . S
Nd936 C938 2.836 . S
Nd936 O956 2.500 . S
Nd936 O957 2.492 . S
Nd936 O958 2.487 . S
Nd936 O959 2.682 . S
Nd936 O960 2.410 . S
Nd936 O965 2.414 . S
Nd936 O967 2.424 . S
Nd937 C947 2.836 . S
Nd937 O959 2.414 1_655 S
Nd937 O961 2.424 1_655 S
Nd937 O962 2.500 . S
Nd937 O963 2.492 . S
Nd937 O964 2.487 . S
Nd937 O965 2.682 1_655 S
Nd937 O966 2.410 1_655 S
C938 Nd936 2.836 . S
C938 C939 1.498 . S
C938 O956 1.258 . S
C938 O957 1.239 . S
C939 C938 1.498 . S
C939 C940 1.366 . S
C939 C944 1.407 . S
C940 C939 1.366 . S
C940 C941 1.392 . S
C940 H968 0.930 . S
C941 C940 1.392 . S
C941 C942 1.398 . S
C941 H969 0.929 1_554 S
C942 C941 1.398 . S
C942 C943 1.352 . S
C943 C942 1.352 . S
C943 C944 1.384 . S
C943 H970 0.930 . S
C944 C939 1.407 . S
C944 C943 1.384 . S
C944 H971 0.929 . S
C945 O958 1.241 . S
C945 O959 1.273 . S
C946 O960 1.251 . S
C946 O961 1.268 . S
C947 Nd937 2.836 . S
C947 C948 1.498 . S
C947 O962 1.258 . S
C947 O963 1.239 . S
C948 C947 1.498 . S
C948 C949 1.366 . S
C948 C953 1.407 . S
C949 C948 1.366 . S
C949 C950 1.392 . S
C949 H972 0.930 . S
C950 C949 1.392 . S
C950 C951 1.398 . S
C950 H973 0.929 . S
C951 C950 1.398 . S
C951 C952 1.352 . S
C952 C951 1.352 . S
C952 C953 1.384 . S
C952 H974 0.930 . S
C953 C948 1.407 . S
C953 C952 1.384 . S
C953 H975 0.929 . S
C954 O964 1.241 1_455 S
C954 O965 1.273 . S
C955 O966 1.251 . S
C955 O967 1.268 . S
O956 Nd936 2.500 . S
O956 C938 1.258 . S
O957 Nd936 2.492 . S
O957 C938 1.239 . S
O958 Nd936 2.487 . S
O958 C945 1.241 . S
O959 Nd936 2.682 . S
O959 Nd937 2.414 1_455 S
O959 C945 1.273 . S
O960 Nd936 2.410 . S
O960 C946 1.251 . S
O961 Nd937 2.424 1_455 S
O961 C946 1.268 . S
O962 Nd937 2.500 . S
O962 C947 1.258 . S
O963 Nd937 2.492 . S
O963 C947 1.239 . S
O964 Nd937 2.487 . S
O964 C954 1.241 1_655 S
O965 Nd936 2.414 . S
O965 Nd937 2.682 1_455 S
O965 C954 1.273 . S
O966 Nd937 2.410 1_455 S
O966 C955 1.251 . S
O967 Nd936 2.424 . S
O967 C955 1.268 . S
H968 C940 0.930 . S
H969 C941 0.929 1_556 S
H970 C943 0.930 . S
H971 C944 0.929 . S
H972 C949 0.930 . S
H973 C950 0.929 . S
H974 C952 0.930 . S
H975 C953 0.929 . S
C976 C977 1.349 . S
C976 C978 1.327 . S
C976 H1001 0.950 . S
C977 C976 1.349 . S
C977 C993 1.349 . S
C978 C976 1.327 . S
C978 C997 1.429 . S
C978 H1002 0.950 . S
C979 C996 1.574 1_556 S
C979 C998 1.368 . S
C979 H1003 0.949 . S
H980 C984 0.949 . S
C981 C982 1.349 . S
C981 C983 1.327 . S
C981 H1004 0.950 . S
C982 C981 1.349 . S
C982 C994 1.349 . S
C983 C981 1.327 . S
C983 C999 1.429 . S
C983 H1005 0.950 . S
C984 H980 0.949 . S
C984 C992 1.574 . S
C984 C1000 1.368 . S
H985 C993 0.950 . S
H986 C991 0.950 . S
H987 C992 0.949 . S
H988 C994 0.950 . S
H989 C995 0.950 1_556 S
H990 C996 0.949 . S
C991 H986 0.950 . S
C991 C993 1.327 . S
C991 C997 1.429 . S
C992 C984 1.574 . S
C992 H987 0.949 . S
C992 C998 1.368 . S
C993 C977 1.349 . S
C993 H985 0.950 . S
C993 C991 1.327 . S
C994 C982 1.349 . S
C994 H988 0.950 . S
C994 C995 1.327 . S
C995 H989 0.950 1_554 S
C995 C994 1.327 . S
C995 C999 1.429 . S
C996 C979 1.574 1_554 S
C996 H990 0.949 . S
C996 C1000 1.368 1_554 S
C997 C978 1.429 . S
C997 C991 1.429 . S
C997 C998 1.523 . S
C998 C979 1.368 . S
C998 C992 1.368 . S
C998 C997 1.523 . S
C999 C983 1.429 . S
C999 C995 1.429 . S
C999 C1000 1.523 1_554 S
C1000 C984 1.368 . S
C1000 C996 1.368 1_556 S
C1000 C999 1.523 1_556 S
H1001 C976 0.950 . S
H1002 C978 0.950 . S
H1003 C979 0.949 . S
H1004 C981 0.950 . S
H1005 C983 0.950 . S
C1006 C1007 1.349 . S
C1006 C1008 1.327 . S
C1006 H1031 0.950 . S
C1007 C1006 1.349 . S
C1007 C1023 1.349 . S
C1008 C1006 1.327 . S
C1008 C1027 1.429 . S
C1008 H1032 0.950 . S
C1009 C1026 1.574 . S
C1009 C1028 1.368 . S
C1009 H1033 0.949 . S
H1010 C1014 0.949 . S
C1011 C1012 1.349 . S
C1011 C1013 1.327 . S
C1011 H1034 0.950 . S
C1012 C1011 1.349 . S
C1012 C1024 1.349 . S
C1013 C1011 1.327 . S
C1013 C1029 1.429 . S
C1013 H1035 0.950 . S
C1014 H1010 0.949 . S
C1014 C1022 1.574 . S
C1014 C1030 1.368 . S
H1015 C1023 0.950 . S
H1016 C1021 0.950 . S
H1017 C1022 0.949 . S
H1018 C1024 0.950 . S
H1019 C1025 0.950 . S
H1020 C1026 0.949 . S
C1021 H1016 0.950 . S
C1021 C1023 1.327 . S
C1021 C1027 1.429 . S
C1022 C1014 1.574 . S
C1022 H1017 0.949 . S
C1022 C1028 1.368 . S
C1023 C1007 1.349 . S
C1023 H1015 0.950 . S
C1023 C1021 1.327 . S
C1024 C1012 1.349 . S
C1024 H1018 0.950 . S
C1024 C1025 1.327 . S
C1025 H1019 0.950 . S
C1025 C1024 1.327 . S
C1025 C1029 1.429 . S
C1026 C1009 1.574 . S
C1026 H1020 0.949 . S
C1026 C1030 1.368 . S
C1027 C1008 1.429 . S
C1027 C1021 1.429 . S
C1027 C1028 1.523 . S
C1028 C1009 1.368 . S
C1028 C1022 1.368 . S
C1028 C1027 1.523 . S
C1029 C1013 1.429 . S
C1029 C1025 1.429 . S
C1029 C1030 1.523 . S
C1030 C1014 1.368 . S
C1030 C1026 1.368 . S
C1030 C1029 1.523 . S
H1031 C1006 0.950 . S
H1032 C1008 0.950 . S
H1033 C1009 0.949 . S
H1034 C1011 0.950 . S
H1035 C1013 0.950 . S
C1036 C1037 1.349 . S
C1036 C1038 1.327 . S
C1036 H1061 0.950 . S
C1037 C1036 1.349 . S
C1037 C1053 1.349 . S
C1038 C1036 1.327 . S
C1038 C1057 1.429 . S
C1038 H1062 0.950 . S
C1039 C1056 1.574 . S
C1039 C1058 1.368 . S
C1039 H1063 0.949 . S
H1040 C1044 0.949 . S
C1041 C1042 1.349 . S
C1041 C1043 1.327 . S
C1041 H1064 0.950 . S
C1042 C1041 1.349 . S
C1042 C1054 1.349 . S
C1043 C1041 1.327 . S
C1043 C1059 1.429 . S
C1043 H1065 0.950 . S
C1044 H1040 0.949 . S
C1044 C1052 1.574 . S
C1044 C1060 1.368 . S
H1045 C1053 0.950 . S
H1046 C1051 0.950 . S
H1047 C1052 0.949 . S
H1048 C1054 0.950 . S
H1049 C1055 0.950 . S
H1050 C1056 0.949 . S
C1051 H1046 0.950 . S
C1051 C1053 1.327 . S
C1051 C1057 1.429 . S
C1052 C1044 1.574 . S
C1052 H1047 0.949 . S
C1052 C1058 1.368 . S
C1053 C1037 1.349 . S
C1053 H1045 0.950 . S
C1053 C1051 1.327 . S
C1054 C1042 1.349 . S
C1054 H1048 0.950 . S
C1054 C1055 1.327 . S
C1055 H1049 0.950 . S
C1055 C1054 1.327 . S
C1055 C1059 1.429 . S
C1056 C1039 1.574 . S
C1056 H1050 0.949 . S
C1056 C1060 1.368 . S
C1057 C1038 1.429 . S
C1057 C1051 1.429 . S
C1057 C1058 1.523 . S
C1058 C1039 1.368 . S
C1058 C1052 1.368 . S
C1058 C1057 1.523 . S
C1059 C1043 1.429 . S
C1059 C1055 1.429 . S
C1059 C1060 1.523 . S
C1060 C1044 1.368 . S
C1060 C1056 1.368 . S
C1060 C1059 1.523 . S
H1061 C1036 0.950 . S
H1062 C1038 0.950 . S
H1063 C1039 0.949 . S
H1064 C1041 0.950 . S
H1065 C1043 0.950 . S
C1066 C1067 1.349 . S
C1066 C1068 1.327 . S
C1066 H1091 0.950 . S
C1067 C1066 1.349 . S
C1067 C1083 1.349 . S
C1068 C1066 1.327 . S
C1068 C1087 1.429 . S
C1068 H1092 0.950 . S
C1069 C1086 1.574 . S
C1069 C1088 1.368 . S
C1069 H1093 0.949 . S
H1070 C1074 0.949 . S
C1071 C1072 1.349 . S
C1071 C1073 1.327 . S
C1071 H1094 0.950 . S
C1072 C1071 1.349 . S
C1072 C1084 1.349 . S
C1073 C1071 1.327 . S
C1073 C1089 1.429 . S
C1073 H1095 0.950 . S
C1074 H1070 0.949 . S
C1074 C1082 1.574 . S
C1074 C1090 1.368 . S
H1075 C1083 0.950 . S
H1076 C1081 0.950 . S
H1077 C1082 0.949 . S
H1078 C1084 0.950 . S
H1079 C1085 0.950 . S
H1080 C1086 0.949 . S
C1081 H1076 0.950 . S
C1081 C1083 1.327 . S
C1081 C1087 1.429 . S
C1082 C1074 1.574 . S
C1082 H1077 0.949 . S
C1082 C1088 1.368 . S
C1083 C1067 1.349 . S
C1083 H1075 0.950 . S
C1083 C1081 1.327 . S
C1084 C1072 1.349 . S
C1084 H1078 0.950 . S
C1084 C1085 1.327 . S
C1085 H1079 0.950 . S
C1085 C1084 1.327 . S
C1085 C1089 1.429 . S
C1086 C1069 1.574 . S
C1086 H1080 0.949 . S
C1086 C1090 1.368 . S
C1087 C1068 1.429 . S
C1087 C1081 1.429 . S
C1087 C1088 1.523 . S
C1088 C1069 1.368 . S
C1088 C1082 1.368 . S
C1088 C1087 1.523 . S
C1089 C1073 1.429 . S
C1089 C1085 1.429 . S
C1089 C1090 1.523 . S
C1090 C1074 1.368 . S
C1090 C1086 1.368 . S
C1090 C1089 1.523 . S
H1091 C1066 0.950 . S
H1092 C1068 0.950 . S
H1093 C1069 0.949 . S
H1094 C1071 0.950 . S
H1095 C1073 0.950 . S
C1096 C1097 1.349 1_655 S
C1096 C1098 1.327 1_655 S
C1096 H1121 0.950 . S
C1097 C1096 1.349 1_455 S
C1097 C1113 1.349 . S
C1098 C1096 1.327 1_455 S
C1098 C1117 1.429 . S
C1098 H1122 0.950 1_455 S
C1099 C1116 1.574 . S
C1099 C1118 1.368 . S
C1099 H1123 0.949 . S
H1100 C1104 0.949 . S
C1101 C1102 1.349 . S
C1101 C1103 1.327 . S
C1101 H1124 0.950 . S
C1102 C1101 1.349 . S
C1102 C1114 1.349 . S
C1103 C1101 1.327 . S
C1103 C1119 1.429 . S
C1103 H1125 0.950 . S
C1104 H1100 0.949 . S
C1104 C1112 1.574 . S
C1104 C1120 1.368 . S
H1105 C1113 0.950 . S
H1106 C1111 0.950 . S
H1107 C1112 0.949 . S
H1108 C1114 0.950 . S
H1109 C1115 0.950 . S
H1110 C1116 0.949 . S
C1111 H1106 0.950 . S
C1111 C1113 1.327 . S
C1111 C1117 1.429 . S
C1112 C1104 1.574 . S
C1112 H1107 0.949 . S
C1112 C1118 1.368 . S
C1113 C1097 1.349 . S
C1113 H1105 0.950 . S
C1113 C1111 1.327 . S
C1114 C1102 1.349 . S
C1114 H1108 0.950 . S
C1114 C1115 1.327 . S
C1115 H1109 0.950 . S
C1115 C1114 1.327 . S
C1115 C1119 1.429 . S
C1116 C1099 1.574 . S
C1116 H1110 0.949 . S
C1116 C1120 1.368 . S
C1117 C1098 1.429 . S
C1117 C1111 1.429 . S
C1117 C1118 1.523 . S
C1118 C1099 1.368 . S
C1118 C1112 1.368 . S
C1118 C1117 1.523 . S
C1119 C1103 1.429 . S
C1119 C1115 1.429 . S
C1119 C1120 1.523 . S
C1120 C1104 1.368 . S
C1120 C1116 1.368 . S
C1120 C1119 1.523 . S
H1121 C1096 0.950 . S
H1122 C1098 0.950 1_655 S
H1123 C1099 0.949 . S
H1124 C1101 0.950 . S
H1125 C1103 0.950 . S
C1126 C1127 1.349 . S
C1126 C1128 1.327 . S
C1126 H1151 0.950 . S
C1127 C1126 1.349 . S
C1127 C1143 1.349 . S
C1128 C1126 1.327 . S
C1128 C1147 1.429 . S
C1128 H1152 0.950 . S
C1129 C1146 1.574 . S
C1129 C1148 1.368 . S
C1129 H1153 0.949 . S
H1130 C1134 0.949 . S
C1131 C1132 1.349 . S
C1131 C1133 1.327 . S
C1131 H1154 0.950 . S
C1132 C1131 1.349 . S
C1132 C1144 1.349 . S
C1133 C1131 1.327 . S
C1133 C1149 1.429 . S
C1133 H1155 0.950 . S
C1134 H1130 0.949 . S
C1134 C1142 1.574 . S
C1134 C1150 1.368 . S
H1135 C1143 0.950 . S
H1136 C1141 0.950 . S
H1137 C1142 0.949 . S
H1138 C1144 0.950 . S
H1139 C1145 0.950 . S
H1140 C1146 0.949 . S
C1141 H1136 0.950 . S
C1141 C1143 1.327 . S
C1141 C1147 1.429 . S
C1142 C1134 1.574 . S
C1142 H1137 0.949 . S
C1142 C1148 1.368 . S
C1143 C1127 1.349 . S
C1143 H1135 0.950 . S
C1143 C1141 1.327 . S
C1144 C1132 1.349 . S
C1144 H1138 0.950 . S
C1144 C1145 1.327 . S
C1145 H1139 0.950 . S
C1145 C1144 1.327 . S
C1145 C1149 1.429 . S
C1146 C1129 1.574 . S
C1146 H1140 0.949 . S
C1146 C1150 1.368 . S
C1147 C1128 1.429 . S
C1147 C1141 1.429 . S
C1147 C1148 1.523 . S
C1148 C1129 1.368 . S
C1148 C1142 1.368 . S
C1148 C1147 1.523 . S
C1149 C1133 1.429 . S
C1149 C1145 1.429 . S
C1149 C1150 1.523 . S
C1150 C1134 1.368 . S
C1150 C1146 1.368 . S
C1150 C1149 1.523 . S
H1151 C1126 0.950 . S
H1152 C1128 0.950 . S
H1153 C1129 0.949 . S
H1154 C1131 0.950 . S
H1155 C1133 0.950 . S
C1156 C1157 1.349 . S
C1156 C1158 1.327 . S
C1156 H1181 0.950 . S
C1157 C1156 1.349 . S
C1157 C1173 1.349 . S
C1158 C1156 1.327 . S
C1158 C1177 1.429 . S
C1158 H1182 0.950 . S
C1159 C1176 1.574 . S
C1159 C1178 1.368 . S
C1159 H1183 0.949 . S
H1160 C1164 0.949 . S
C1161 C1162 1.349 . S
C1161 C1163 1.327 . S
C1161 H1184 0.950 . S
C1162 C1161 1.349 . S
C1162 C1174 1.349 . S
C1163 C1161 1.327 . S
C1163 C1179 1.429 . S
C1163 H1185 0.950 . S
C1164 H1160 0.949 . S
C1164 C1172 1.574 . S
C1164 C1180 1.368 . S
H1165 C1173 0.950 . S
H1166 C1171 0.950 . S
H1167 C1172 0.949 . S
H1168 C1174 0.950 . S
H1169 C1175 0.950 . S
H1170 C1176 0.949 . S
C1171 H1166 0.950 . S
C1171 C1173 1.327 . S
C1171 C1177 1.429 . S
C1172 C1164 1.574 . S
C1172 H1167 0.949 . S
C1172 C1178 1.368 . S
C1173 C1157 1.349 . S
C1173 H1165 0.950 . S
C1173 C1171 1.327 . S
C1174 C1162 1.349 . S
C1174 H1168 0.950 . S
C1174 C1175 1.327 . S
C1175 H1169 0.950 . S
C1175 C1174 1.327 . S
C1175 C1179 1.429 . S
C1176 C1159 1.574 . S
C1176 H1170 0.949 . S
C1176 C1180 1.368 . S
C1177 C1158 1.429 . S
C1177 C1171 1.429 . S
C1177 C1178 1.523 . S
C1178 C1159 1.368 . S
C1178 C1172 1.368 . S
C1178 C1177 1.523 . S
C1179 C1163 1.429 . S
C1179 C1175 1.429 . S
C1179 C1180 1.523 . S
C1180 C1164 1.368 . S
C1180 C1176 1.368 . S
C1180 C1179 1.523 . S
H1181 C1156 0.950 . S
H1182 C1158 0.950 . S
H1183 C1159 0.949 . S
H1184 C1161 0.950 . S
H1185 C1163 0.950 . S
C1186 C1187 1.349 . S
C1186 C1188 1.327 . S
C1186 H1211 0.950 . S
C1187 C1186 1.349 . S
C1187 C1203 1.349 . S
C1188 C1186 1.327 . S
C1188 C1207 1.429 . S
C1188 H1212 0.950 . S
C1189 C1206 1.574 . S
C1189 C1208 1.368 . S
C1189 H1213 0.949 . S
H1190 C1194 0.949 . S
C1191 C1192 1.349 . S
C1191 C1193 1.327 . S
C1191 H1214 0.950 . S
C1192 C1191 1.349 . S
C1192 C1204 1.349 . S
C1193 C1191 1.327 . S
C1193 C1209 1.429 . S
C1193 H1215 0.950 . S
C1194 H1190 0.949 . S
C1194 C1202 1.574 . S
C1194 C1210 1.368 . S
H1195 C1203 0.950 . S
H1196 C1201 0.950 . S
H1197 C1202 0.949 . S
H1198 C1204 0.950 . S
H1199 C1205 0.950 . S
H1200 C1206 0.949 . S
C1201 H1196 0.950 . S
C1201 C1203 1.327 . S
C1201 C1207 1.429 . S
C1202 C1194 1.574 . S
C1202 H1197 0.949 . S
C1202 C1208 1.368 . S
C1203 C1187 1.349 . S
C1203 H1195 0.950 . S
C1203 C1201 1.327 . S
C1204 C1192 1.349 . S
C1204 H1198 0.950 . S
C1204 C1205 1.327 . S
C1205 H1199 0.950 . S
C1205 C1204 1.327 . S
C1205 C1209 1.429 . S
C1206 C1189 1.574 . S
C1206 H1200 0.949 . S
C1206 C1210 1.368 . S
C1207 C1188 1.429 . S
C1207 C1201 1.429 . S
C1207 C1208 1.523 . S
C1208 C1189 1.368 . S
C1208 C1202 1.368 . S
C1208 C1207 1.523 . S
C1209 C1193 1.429 . S
C1209 C1205 1.429 . S
C1209 C1210 1.523 . S
C1210 C1194 1.368 . S
C1210 C1206 1.368 . S
C1210 C1209 1.523 . S
H1211 C1186 0.950 . S
H1212 C1188 0.950 . S
H1213 C1189 0.949 . S
H1214 C1191 0.950 . S
H1215 C1193 0.950 . S
C1216 C1217 1.349 . S
C1216 C1218 1.327 . S
C1216 H1241 0.950 . S
C1217 C1216 1.349 . S
C1217 C1233 1.349 . S
C1218 C1216 1.327 . S
C1218 C1237 1.429 . S
C1218 H1242 0.950 . S
C1219 C1236 1.574 . S
C1219 C1238 1.368 . S
C1219 H1243 0.949 . S
H1220 C1224 0.949 . S
C1221 C1222 1.349 1_655 S
C1221 C1223 1.327 . S
C1221 H1244 0.950 . S
C1222 C1221 1.349 1_455 S
C1222 C1234 1.349 . S
C1223 C1221 1.327 . S
C1223 C1239 1.429 . S
C1223 H1245 0.950 . S
C1224 H1220 0.949 . S
C1224 C1232 1.574 . S
C1224 C1240 1.368 . S
H1225 C1233 0.950 . S
H1226 C1231 0.950 . S
H1227 C1232 0.949 . S
H1228 C1234 0.950 . S
H1229 C1235 0.950 . S
H1230 C1236 0.949 . S
C1231 H1226 0.950 . S
C1231 C1233 1.327 . S
C1231 C1237 1.429 . S
C1232 C1224 1.574 . S
C1232 H1227 0.949 . S
C1232 C1238 1.368 . S
C1233 C1217 1.349 . S
C1233 H1225 0.950 . S
C1233 C1231 1.327 . S
C1234 C1222 1.349 . S
C1234 H1228 0.950 . S
C1234 C1235 1.327 1_455 S
C1235 H1229 0.950 . S
C1235 C1234 1.327 1_655 S
C1235 C1239 1.429 . S
C1236 C1219 1.574 . S
C1236 H1230 0.949 . S
C1236 C1240 1.368 . S
C1237 C1218 1.429 . S
C1237 C1231 1.429 . S
C1237 C1238 1.523 . S
C1238 C1219 1.368 . S
C1238 C1232 1.368 . S
C1238 C1237 1.523 . S
C1239 C1223 1.429 . S
C1239 C1235 1.429 . S
C1239 C1240 1.523 . S
C1240 C1224 1.368 . S
C1240 C1236 1.368 . S
C1240 C1239 1.523 . S
H1241 C1216 0.950 . S
H1242 C1218 0.950 . S
H1243 C1219 0.949 . S
H1244 C1221 0.950 . S
H1245 C1223 0.950 . S
C1246 C1247 1.349 . S
C1246 C1248 1.327 . S
C1246 H1271 0.950 . S
C1247 C1246 1.349 . S
C1247 C1263 1.349 . S
C1248 C1246 1.327 . S
C1248 C1267 1.429 . S
C1248 H1272 0.950 . S
C1249 C1266 1.574 . S
C1249 C1268 1.368 . S
C1249 H1273 0.949 . S
H1250 C1254 0.949 . S
C1251 C1252 1.349 . S
C1251 C1253 1.327 . S
C1251 H1274 0.950 . S
C1252 C1251 1.349 . S
C1252 C1264 1.349 . S
C1253 C1251 1.327 . S
C1253 C1269 1.429 . S
C1253 H1275 0.950 . S
C1254 H1250 0.949 . S
C1254 C1262 1.574 . S
C1254 C1270 1.368 . S
H1255 C1263 0.950 . S
H1256 C1261 0.950 . S
H1257 C1262 0.949 . S
H1258 C1264 0.950 . S
H1259 C1265 0.950 . S
H1260 C1266 0.949 . S
C1261 H1256 0.950 . S
C1261 C1263 1.327 . S
C1261 C1267 1.429 . S
C1262 C1254 1.574 . S
C1262 H1257 0.949 . S
C1262 C1268 1.368 . S
C1263 C1247 1.349 . S
C1263 H1255 0.950 . S
C1263 C1261 1.327 . S
C1264 C1252 1.349 . S
C1264 H1258 0.950 . S
C1264 C1265 1.327 . S
C1265 H1259 0.950 . S
C1265 C1264 1.327 . S
C1265 C1269 1.429 . S
C1266 C1249 1.574 . S
C1266 H1260 0.949 . S
C1266 C1270 1.368 . S
C1267 C1248 1.429 . S
C1267 C1261 1.429 . S
C1267 C1268 1.523 . S
C1268 C1249 1.368 . S
C1268 C1262 1.368 . S
C1268 C1267 1.523 . S
C1269 C1253 1.429 . S
C1269 C1265 1.429 . S
C1269 C1270 1.523 . S
C1270 C1254 1.368 . S
C1270 C1266 1.368 . S
C1270 C1269 1.523 . S
H1271 C1246 0.950 . S
H1272 C1248 0.950 . S
H1273 C1249 0.949 . S
H1274 C1251 0.950 . S
H1275 C1253 0.950 . S
C1276 C1277 1.349 1_565 S
C1276 C1278 1.327 . S
C1276 H1301 0.950 . S
C1277 C1276 1.349 1_545 S
C1277 C1293 1.349 . S
C1278 C1276 1.327 . S
C1278 C1297 1.429 1_565 S
C1278 H1302 0.950 . S
C1279 C1296 1.574 . S
C1279 C1298 1.368 . S
C1279 H1303 0.949 . S
H1280 C1284 0.936 1_565 S
C1281 C1282 1.349 . S
C1281 C1283 1.327 . S
C1281 H1304 0.950 . S
C1282 C1281 1.349 . S
C1282 C1294 1.349 . S
C1283 C1281 1.327 . S
C1283 C1299 1.429 . S
C1283 H1305 0.950 . S
C1284 H1280 0.936 1_545 S
C1284 C1292 1.574 . S
C1284 C1300 1.368 . S
H1285 C1293 0.950 . S
H1286 C1291 0.950 . S
H1287 C1292 0.949 1_565 S
H1288 C1294 0.950 . S
H1289 C1295 0.950 . S
H1290 C1296 0.949 . S
C1291 H1286 0.950 . S
C1291 C1293 1.327 . S
C1291 C1297 1.429 . S
C1292 C1284 1.574 . S
C1292 H1287 0.949 1_545 S
C1292 C1298 1.368 . S
C1293 C1277 1.349 . S
C1293 H1285 0.950 . S
C1293 C1291 1.327 . S
C1294 C1282 1.349 . S
C1294 H1288 0.950 . S
C1294 C1295 1.327 . S
C1295 H1289 0.950 . S
C1295 C1294 1.327 . S
C1295 C1299 1.429 . S
C1296 C1279 1.574 . S
C1296 H1290 0.949 . S
C1296 C1300 1.368 . S
C1297 C1278 1.429 1_545 S
C1297 C1291 1.429 . S
C1297 C1298 1.523 . S
C1298 C1279 1.368 . S
C1298 C1292 1.368 . S
C1298 C1297 1.523 . S
C1299 C1283 1.429 . S
C1299 C1295 1.429 . S
C1299 C1300 1.523 . S
C1300 C1284 1.368 . S
C1300 C1296 1.368 . S
C1300 C1299 1.523 . S
H1301 C1276 0.950 . S
H1302 C1278 0.950 . S
H1303 C1279 0.949 . S
H1304 C1281 0.950 . S
H1305 C1283 0.950 . S
C1306 C1307 1.349 . S
C1306 C1308 1.327 . S
C1306 H1331 0.950 . S
C1307 C1306 1.349 . S
C1307 C1323 1.349 . S
C1308 C1306 1.327 . S
C1308 C1327 1.429 . S
C1308 H1332 0.950 . S
C1309 C1326 1.574 1_554 S
C1309 C1328 1.368 . S
C1309 H1333 0.949 . S
H1310 C1314 0.949 . S
C1311 C1312 1.349 . S
C1311 C1313 1.327 . S
C1311 H1334 0.950 . S
C1312 C1311 1.349 . S
C1312 C1324 1.349 . S
C1313 C1311 1.327 . S
C1313 C1329 1.429 . S
C1313 H1335 0.950 . S
C1314 H1310 0.949 . S
C1314 C1322 1.574 . S
C1314 C1330 1.368 . S
H1315 C1323 0.950 . S
H1316 C1321 0.950 . S
H1317 C1322 0.949 . S
H1318 C1324 0.950 . S
H1319 C1325 0.950 . S
H1320 C1326 0.949 . S
C1321 H1316 0.950 . S
C1321 C1323 1.327 . S
C1321 C1327 1.429 . S
C1322 C1314 1.574 . S
C1322 H1317 0.949 . S
C1322 C1328 1.368 1_556 S
C1323 C1307 1.349 . S
C1323 H1315 0.950 . S
C1323 C1321 1.327 . S
C1324 C1312 1.349 . S
C1324 H1318 0.950 . S
C1324 C1325 1.327 . S
C1325 H1319 0.950 . S
C1325 C1324 1.327 . S
C1325 C1329 1.429 . S
C1326 C1309 1.574 1_556 S
C1326 H1320 0.949 . S
C1326 C1330 1.368 . S
C1327 C1308 1.429 . S
C1327 C1321 1.429 . S
C1327 C1328 1.523 . S
C1328 C1309 1.368 . S
C1328 C1322 1.368 1_554 S
C1328 C1327 1.523 . S
C1329 C1313 1.429 . S
C1329 C1325 1.429 . S
C1329 C1330 1.523 . S
C1330 C1314 1.368 . S
C1330 C1326 1.368 . S
C1330 C1329 1.523 . S
H1331 C1306 0.950 . S
H1332 C1308 0.950 . S
H1333 C1309 0.949 . S
H1334 C1311 0.950 . S
H1335 C1313 0.950 . S
C1336 C1337 1.349 . S
C1336 C1338 1.327 . S
C1336 H1361 0.950 . S
C1337 C1336 1.349 . S
C1337 C1353 1.349 . S
C1338 C1336 1.327 . S
C1338 C1357 1.429 . S
C1338 H1362 0.950 . S
C1339 C1356 1.574 . S
C1339 C1358 1.368 . S
C1339 H1363 0.949 . S
H1340 C1344 0.949 . S
C1341 C1342 1.349 . S
C1341 C1343 1.327 . S
C1341 H1364 0.950 1_655 S
C1342 C1341 1.349 . S
C1342 C1354 1.349 . S
C1343 C1341 1.327 . S
C1343 C1359 1.429 . S
C1343 H1365 0.950 . S
C1344 H1340 0.949 . S
C1344 C1352 1.574 . S
C1344 C1360 1.368 . S
H1345 C1353 0.950 . S
H1346 C1351 0.950 . S
H1347 C1352 0.949 . S
H1348 C1354 0.950 . S
H1349 C1355 0.950 . S
H1350 C1356 0.949 . S
C1351 H1346 0.950 . S
C1351 C1353 1.327 . S
C1351 C1357 1.429 . S
C1352 C1344 1.574 . S
C1352 H1347 0.949 . S
C1352 C1358 1.368 . S
C1353 C1337 1.349 . S
C1353 H1345 0.950 . S
C1353 C1351 1.327 . S
C1354 C1342 1.349 . S
C1354 H1348 0.950 . S
C1354 C1355 1.327 . S
C1355 H1349 0.950 . S
C1355 C1354 1.327 . S
C1355 C1359 1.429 . S
C1356 C1339 1.574 . S
C1356 H1350 0.949 . S
C1356 C1360 1.368 . S
C1357 C1338 1.429 . S
C1357 C1351 1.429 . S
C1357 C1358 1.523 . S
C1358 C1339 1.368 . S
C1358 C1352 1.368 . S
C1358 C1357 1.523 . S
C1359 C1343 1.429 . S
C1359 C1355 1.429 . S
C1359 C1360 1.523 . S
C1360 C1344 1.368 . S
C1360 C1356 1.368 . S
C1360 C1359 1.523 . S
H1361 C1336 0.950 . S
H1362 C1338 0.950 . S
H1363 C1339 0.949 . S
H1364 C1341 0.950 1_455 S
H1365 C1343 0.950 . S
C1366 C1367 1.349 . S
C1366 C1368 1.327 . S
C1366 H1391 0.950 . S
C1367 C1366 1.349 . S
C1367 C1383 1.349 . S
C1368 C1366 1.327 . S
C1368 C1387 1.429 . S
C1368 H1392 0.950 . S
C1369 C1386 1.574 . S
C1369 C1388 1.368 . S
C1369 H1393 0.949 . S
H1370 C1374 0.949 . S
C1371 C1372 1.349 . S
C1371 C1373 1.327 . S
C1371 H1394 0.950 . S
C1372 C1371 1.349 . S
C1372 C1384 1.349 . S
C1373 C1371 1.327 . S
C1373 C1389 1.429 . S
C1373 H1395 0.950 . S
C1374 H1370 0.949 . S
C1374 C1382 1.574 . S
C1374 C1390 1.368 . S
H1375 C1383 0.950 . S
H1376 C1381 0.950 . S
H1377 C1382 0.949 . S
H1378 C1384 0.950 . S
H1379 C1385 0.950 . S
H1380 C1386 0.949 . S
C1381 H1376 0.950 . S
C1381 C1383 1.327 . S
C1381 C1387 1.429 . S
C1382 C1374 1.574 . S
C1382 H1377 0.949 . S
C1382 C1388 1.368 . S
C1383 C1367 1.349 . S
C1383 H1375 0.950 . S
C1383 C1381 1.327 . S
C1384 C1372 1.349 . S
C1384 H1378 0.950 . S
C1384 C1385 1.327 . S
C1385 H1379 0.950 . S
C1385 C1384 1.327 . S
C1385 C1389 1.429 . S
C1386 C1369 1.574 . S
C1386 H1380 0.949 . S
C1386 C1390 1.368 . S
C1387 C1368 1.429 . S
C1387 C1381 1.429 . S
C1387 C1388 1.523 . S
C1388 C1369 1.368 . S
C1388 C1382 1.368 . S
C1388 C1387 1.523 . S
C1389 C1373 1.429 . S
C1389 C1385 1.429 . S
C1389 C1390 1.523 . S
C1390 C1374 1.368 . S
C1390 C1386 1.368 . S
C1390 C1389 1.523 . S
H1391 C1366 0.950 . S
H1392 C1368 0.950 . S
H1393 C1369 0.949 . S
H1394 C1371 0.950 . S
H1395 C1373 0.950 . S
C1396 C1397 1.349 . S
C1396 C1398 1.327 . S
C1396 H1421 0.950 1_545 S
C1397 C1396 1.349 . S
C1397 C1413 1.349 . S
C1398 C1396 1.327 . S
C1398 C1417 1.429 . S
C1398 H1422 0.950 . S
C1399 C1416 1.574 . S
C1399 C1418 1.368 . S
C1399 H1423 0.949 . S
H1400 C1404 0.949 . S
C1401 C1402 1.349 . S
C1401 C1403 1.327 . S
C1401 H1424 0.950 . S
C1402 C1401 1.349 . S
C1402 C1414 1.349 . S
C1403 C1401 1.327 . S
C1403 C1419 1.429 . S
C1403 H1425 0.950 . S
C1404 H1400 0.949 . S
C1404 C1412 1.574 . S
C1404 C1420 1.368 . S
H1405 C1413 0.950 . S
H1406 C1411 0.950 . S
H1407 C1412 0.949 . S
H1408 C1414 0.950 1_554 S
H1409 C1415 0.950 . S
H1410 C1416 0.949 . S
C1411 H1406 0.950 . S
C1411 C1413 1.327 . S
C1411 C1417 1.429 . S
C1412 C1404 1.574 . S
C1412 H1407 0.949 . S
C1412 C1418 1.368 . S
C1413 C1397 1.349 . S
C1413 H1405 0.950 . S
C1413 C1411 1.327 . S
C1414 C1402 1.349 . S
C1414 H1408 0.950 1_556 S
C1414 C1415 1.327 . S
C1415 H1409 0.950 . S
C1415 C1414 1.327 . S
C1415 C1419 1.429 . S
C1416 C1399 1.574 . S
C1416 H1410 0.949 . S
C1416 C1420 1.368 . S
C1417 C1398 1.429 . S
C1417 C1411 1.429 . S
C1417 C1418 1.523 . S
C1418 C1399 1.368 . S
C1418 C1412 1.368 . S
C1418 C1417 1.523 . S
C1419 C1403 1.429 . S
C1419 C1415 1.429 . S
C1419 C1420 1.523 . S
C1420 C1404 1.368 . S
C1420 C1416 1.368 . S
C1420 C1419 1.523 . S
H1421 C1396 0.950 1_565 S
H1422 C1398 0.950 . S
H1423 C1399 0.949 . S
H1424 C1401 0.950 . S
H1425 C1403 0.950 . S
C1426 C1427 1.349 . S
C1426 C1428 1.327 . S
C1426 H1451 0.950 . S
C1427 C1426 1.349 . S
C1427 C1443 1.349 . S
C1428 C1426 1.327 . S
C1428 C1447 1.429 . S
C1428 H1452 0.950 . S
C1429 C1446 1.574 . S
C1429 C1448 1.368 . S
C1429 H1453 0.949 . S
H1430 C1434 0.949 . S
C1431 C1432 1.349 . S
C1431 C1433 1.327 . S
C1431 H1454 0.950 . S
C1432 C1431 1.349 . S
C1432 C1444 1.349 . S
C1433 C1431 1.327 . S
C1433 C1449 1.429 . S
C1433 H1455 0.950 . S
C1434 H1430 0.949 . S
C1434 C1442 1.574 . S
C1434 C1450 1.368 . S
H1435 C1443 0.950 . S
H1436 C1441 0.950 . S
H1437 C1442 0.949 . S
H1438 C1444 0.950 . S
H1439 C1445 0.950 . S
H1440 C1446 0.949 . S
C1441 H1436 0.950 . S
C1441 C1443 1.327 . S
C1441 C1447 1.429 . S
C1442 C1434 1.574 . S
C1442 H1437 0.949 . S
C1442 C1448 1.368 . S
C1443 C1427 1.349 . S
C1443 H1435 0.950 . S
C1443 C1441 1.327 . S
C1444 C1432 1.349 . S
C1444 H1438 0.950 . S
C1444 C1445 1.327 . S
C1445 H1439 0.950 . S
C1445 C1444 1.327 . S
C1445 C1449 1.429 . S
C1446 C1429 1.574 . S
C1446 H1440 0.949 . S
C1446 C1450 1.368 . S
C1447 C1428 1.429 . S
C1447 C1441 1.429 . S
C1447 C1448 1.523 . S
C1448 C1429 1.368 . S
C1448 C1442 1.368 . S
C1448 C1447 1.523 . S
C1449 C1433 1.429 . S
C1449 C1445 1.429 . S
C1449 C1450 1.523 . S
C1450 C1434 1.368 . S
C1450 C1446 1.368 . S
C1450 C1449 1.523 . S
H1451 C1426 0.950 . S
H1452 C1428 0.950 . S
H1453 C1429 0.949 . S
H1454 C1431 0.950 . S
H1455 C1433 0.950 . S
C1456 C1457 1.349 . S
C1456 C1458 1.327 . S
C1456 H1481 0.950 . S
C1457 C1456 1.349 . S
C1457 C1473 1.349 . S
C1458 C1456 1.327 . S
C1458 C1477 1.429 . S
C1458 H1482 0.950 . S
C1459 C1476 1.574 . S
C1459 C1478 1.368 . S
C1459 H1483 0.949 . S
H1460 C1464 0.949 . S
C1461 C1462 1.349 . S
C1461 C1463 1.327 . S
C1461 H1484 0.950 . S
C1462 C1461 1.349 . S
C1462 C1474 1.349 . S
C1463 C1461 1.327 . S
C1463 C1479 1.388 1_545 S
C1463 H1485 0.950 . S
C1464 H1460 0.949 . S
C1464 C1472 1.574 . S
C1464 C1480 1.368 . S
H1465 C1473 0.950 . S
H1466 C1471 0.950 . S
H1467 C1472 0.949 . S
H1468 C1474 0.950 . S
H1469 C1475 0.950 . S
H1470 C1476 0.949 1_545 S
C1471 H1466 0.950 . S
C1471 C1473 1.327 . S
C1471 C1477 1.429 . S
C1472 C1464 1.574 . S
C1472 H1467 0.949 . S
C1472 C1478 1.368 . S
C1473 C1457 1.349 . S
C1473 H1465 0.950 . S
C1473 C1471 1.327 . S
C1474 C1462 1.349 . S
C1474 H1468 0.950 . S
C1474 C1475 1.327 1_545 S
C1475 H1469 0.950 . S
C1475 C1474 1.327 1_565 S
C1475 C1479 1.421 . S
C1476 C1459 1.574 . S
C1476 H1470 0.949 1_565 S
C1476 C1480 1.368 . S
C1477 C1458 1.429 . S
C1477 C1471 1.429 . S
C1477 C1478 1.523 . S
C1478 C1459 1.368 . S
C1478 C1472 1.368 . S
C1478 C1477 1.523 . S
C1479 C1463 1.388 1_565 S
C1479 C1475 1.421 . S
C1479 C1480 1.570 . S
C1480 C1464 1.368 . S
C1480 C1476 1.368 . S
C1480 C1479 1.570 . S
H1481 C1456 0.950 . S
H1482 C1458 0.950 . S
H1483 C1459 0.949 . S
H1484 C1461 0.950 . S
H1485 C1463 0.950 . S
C1486 C1487 1.310 1_554 S
C1486 C1488 1.327 . S
C1486 H1511 0.950 . S
C1487 C1486 1.310 1_556 S
C1487 C1503 1.371 . S
C1488 C1486 1.327 . S
C1488 C1507 1.429 . S
C1488 H1512 0.950 . S
C1489 C1506 1.574 . S
C1489 C1508 1.368 . S
C1489 H1513 0.949 1_554 S
H1490 C1494 0.949 . S
C1491 C1492 1.349 . S
C1491 C1493 1.327 . S
C1491 H1514 0.950 . S
C1492 C1491 1.349 . S
C1492 C1504 1.349 . S
C1493 C1491 1.327 . S
C1493 C1509 1.429 . S
C1493 H1515 0.950 . S
C1494 H1490 0.949 . S
C1494 C1502 1.574 . S
C1494 C1510 1.368 . S
H1495 C1503 0.950 . S
H1496 C1501 0.950 . S
H1497 C1502 0.949 . S
H1498 C1504 0.950 . S
H1499 C1505 0.950 . S
H1500 C1506 0.949 1_556 S
C1501 H1496 0.950 . S
C1501 C1503 1.327 . S
C1501 C1507 1.429 1_556 S
C1502 C1494 1.574 . S
C1502 H1497 0.949 . S
C1502 C1508 1.368 . S
C1503 C1487 1.371 . S
C1503 H1495 0.950 . S
C1503 C1501 1.327 . S
C1504 C1492 1.349 . S
C1504 H1498 0.950 . S
C1504 C1505 1.327 . S
C1505 H1499 0.950 . S
C1505 C1504 1.327 . S
C1505 C1509 1.429 . S
C1506 C1489 1.574 . S
C1506 H1500 0.949 1_554 S
C1506 C1510 1.368 . S
C1507 C1488 1.429 . S
C1507 C1501 1.429 1_554 S
C1507 C1508 1.523 . S
C1508 C1489 1.368 . S
C1508 C1502 1.368 . S
C1508 C1507 1.523 . S
C1509 C1493 1.429 . S
C1509 C1505 1.429 . S
C1509 C1510 1.523 . S
C1510 C1494 1.368 . S
C1510 C1506 1.368 . S
C1510 C1509 1.523 . S
H1511 C1486 0.950 . S
H1512 C1488 0.950 . S
H1513 C1489 0.949 1_556 S
H1514 C1491 0.950 . S
H1515 C1493 0.950 . S
C1516 C1517 1.349 . S
C1516 C1518 1.327 . S
C1516 H1541 0.950 . S
C1517 C1516 1.349 . S
C1517 C1533 1.349 . S
C1518 C1516 1.327 . S
C1518 C1537 1.429 . S
C1518 H1542 0.950 . S
C1519 C1536 1.574 . S
C1519 C1538 1.368 . S
C1519 H1543 0.949 . S
H1520 C1524 0.949 . S
C1521 C1522 1.349 . S
C1521 C1523 1.327 . S
C1521 H1544 0.950 . S
C1522 C1521 1.349 . S
C1522 C1534 1.349 . S
C1523 C1521 1.327 . S
C1523 C1539 1.429 . S
C1523 H1545 0.950 . S
C1524 H1520 0.949 . S
C1524 C1532 1.574 . S
C1524 C1540 1.368 . S
H1525 C1533 0.950 . S
H1526 C1531 0.950 . S
H1527 C1532 0.949 . S
H1528 C1534 0.950 . S
H1529 C1535 0.950 . S
H1530 C1536 0.949 . S
C1531 H1526 0.950 . S
C1531 C1533 1.327 . S
C1531 C1537 1.429 . S
C1532 C1524 1.574 . S
C1532 H1527 0.949 . S
C1532 C1538 1.368 . S
C1533 C1517 1.349 . S
C1533 H1525 0.950 . S
C1533 C1531 1.327 . S
C1534 C1522 1.349 . S
C1534 H1528 0.950 . S
C1534 C1535 1.327 . S
C1535 H1529 0.950 . S
C1535 C1534 1.327 . S
C1535 C1539 1.429 . S
C1536 C1519 1.574 . S
C1536 H1530 0.949 . S
C1536 C1540 1.368 . S
C1537 C1518 1.429 . S
C1537 C1531 1.429 . S
C1537 C1538 1.523 . S
C1538 C1519 1.368 . S
C1538 C1532 1.368 . S
C1538 C1537 1.523 . S
C1539 C1523 1.429 . S
C1539 C1535 1.429 . S
C1539 C1540 1.523 . S
C1540 C1524 1.368 . S
C1540 C1536 1.368 . S
C1540 C1539 1.523 . S
H1541 C1516 0.950 . S
H1542 C1518 0.950 . S
H1543 C1519 0.949 . S
H1544 C1521 0.950 . S
H1545 C1523 0.950 . S
C1546 C1547 1.349 . S
C1546 C1548 1.327 . S
C1546 H1571 0.950 . S
C1547 C1546 1.349 . S
C1547 C1563 1.349 . S
C1548 C1546 1.327 . S
C1548 C1567 1.429 . S
C1548 H1572 0.950 . S
C1549 C1566 1.574 . S
C1549 C1568 1.368 . S
C1549 H1573 0.949 . S
H1550 C1554 0.949 . S
C1551 C1552 1.349 . S
C1551 C1553 1.327 . S
C1551 H1574 0.950 . S
C1552 C1551 1.349 . S
C1552 C1564 1.349 . S
C1553 C1551 1.327 . S
C1553 C1569 1.429 . S
C1553 H1575 0.950 . S
C1554 H1550 0.949 . S
C1554 C1562 1.574 . S
C1554 C1570 1.368 . S
H1555 C1563 0.950 . S
H1556 C1561 0.950 . S
H1557 C1562 0.949 . S
H1558 C1564 0.950 . S
H1559 C1565 0.950 . S
H1560 C1566 0.949 . S
C1561 H1556 0.950 . S
C1561 C1563 1.327 . S
C1561 C1567 1.429 . S
C1562 C1554 1.574 . S
C1562 H1557 0.949 . S
C1562 C1568 1.368 . S
C1563 C1547 1.349 . S
C1563 H1555 0.950 . S
C1563 C1561 1.327 . S
C1564 C1552 1.349 . S
C1564 H1558 0.950 . S
C1564 C1565 1.327 . S
C1565 H1559 0.950 . S
C1565 C1564 1.327 . S
C1565 C1569 1.429 . S
C1566 C1549 1.574 . S
C1566 H1560 0.949 . S
C1566 C1570 1.368 . S
C1567 C1548 1.429 . S
C1567 C1561 1.429 . S
C1567 C1568 1.523 . S
C1568 C1549 1.368 . S
C1568 C1562 1.368 . S
C1568 C1567 1.523 . S
C1569 C1553 1.429 . S
C1569 C1565 1.429 . S
C1569 C1570 1.523 . S
C1570 C1554 1.368 . S
C1570 C1566 1.368 . S
C1570 C1569 1.523 . S
H1571 C1546 0.950 . S
H1572 C1548 0.950 . S
H1573 C1549 0.949 . S
H1574 C1551 0.950 . S
H1575 C1553 0.950 . S
C1576 C1577 1.349 . S
C1576 C1578 1.327 . S
C1576 H1601 0.950 . S
C1577 C1576 1.349 . S
C1577 C1593 1.349 . S
C1578 C1576 1.327 . S
C1578 C1597 1.429 . S
C1578 H1602 0.950 . S
C1579 C1596 1.574 . S
C1579 C1598 1.368 . S
C1579 H1603 0.949 . S
H1580 C1584 0.949 . S
C1581 C1582 1.349 . S
C1581 C1583 1.327 . S
C1581 H1604 0.950 . S
C1582 C1581 1.349 . S
C1582 C1594 1.349 . S
C1583 C1581 1.327 . S
C1583 C1599 1.429 . S
C1583 H1605 0.950 . S
C1584 H1580 0.949 . S
C1584 C1592 1.574 . S
C1584 C1600 1.368 . S
H1585 C1593 0.950 . S
H1586 C1591 0.950 . S
H1587 C1592 0.949 . S
H1588 C1594 0.950 . S
H1589 C1595 0.950 . S
H1590 C1596 0.949 . S
C1591 H1586 0.950 . S
C1591 C1593 1.327 . S
C1591 C1597 1.429 . S
C1592 C1584 1.574 . S
C1592 H1587 0.949 . S
C1592 C1598 1.368 . S
C1593 C1577 1.349 . S
C1593 H1585 0.950 . S
C1593 C1591 1.327 . S
C1594 C1582 1.349 . S
C1594 H1588 0.950 . S
C1594 C1595 1.327 . S
C1595 H1589 0.950 . S
C1595 C1594 1.327 . S
C1595 C1599 1.429 . S
C1596 C1579 1.574 . S
C1596 H1590 0.949 . S
C1596 C1600 1.368 . S
C1597 C1578 1.429 . S
C1597 C1591 1.429 . S
C1597 C1598 1.523 . S
C1598 C1579 1.368 . S
C1598 C1592 1.368 . S
C1598 C1597 1.523 . S
C1599 C1583 1.429 . S
C1599 C1595 1.429 . S
C1599 C1600 1.523 . S
C1600 C1584 1.368 . S
C1600 C1596 1.368 . S
C1600 C1599 1.523 . S
H1601 C1576 0.950 . S
H1602 C1578 0.950 . S
H1603 C1579 0.949 . S
H1604 C1581 0.950 . S
H1605 C1583 0.950 . S
C1606 C1607 1.349 . S
C1606 C1608 1.327 . S
C1606 H1631 0.950 . S
C1607 C1606 1.349 . S
C1607 C1623 1.349 . S
C1608 C1606 1.327 . S
C1608 C1627 1.429 . S
C1608 H1632 0.950 . S
C1609 C1626 1.574 . S
C1609 C1628 1.368 . S
C1609 H1633 0.949 . S
H1610 C1614 0.949 . S
C1611 C1612 1.349 . S
C1611 C1613 1.327 . S
C1611 H1634 0.950 . S
C1612 C1611 1.349 . S
C1612 C1624 1.349 . S
C1613 C1611 1.327 . S
C1613 C1629 1.429 . S
C1613 H1635 0.950 . S
C1614 H1610 0.949 . S
C1614 C1622 1.574 . S
C1614 C1630 1.368 . S
H1615 C1623 0.950 . S
H1616 C1621 0.950 . S
H1617 C1622 0.949 . S
H1618 C1624 0.950 . S
H1619 C1625 0.950 . S
H1620 C1626 0.949 . S
C1621 H1616 0.950 . S
C1621 C1623 1.327 . S
C1621 C1627 1.429 . S
C1622 C1614 1.574 . S
C1622 H1617 0.949 . S
C1622 C1628 1.368 . S
C1623 C1607 1.349 . S
C1623 H1615 0.950 . S
C1623 C1621 1.327 . S
C1624 C1612 1.349 . S
C1624 H1618 0.950 . S
C1624 C1625 1.327 . S
C1625 H1619 0.950 . S
C1625 C1624 1.327 . S
C1625 C1629 1.429 . S
C1626 C1609 1.574 . S
C1626 H1620 0.949 . S
C1626 C1630 1.368 . S
C1627 C1608 1.429 . S
C1627 C1621 1.429 . S
C1627 C1628 1.523 . S
C1628 C1609 1.368 . S
C1628 C1622 1.368 . S
C1628 C1627 1.523 . S
C1629 C1613 1.429 . S
C1629 C1625 1.429 . S
C1629 C1630 1.523 . S
C1630 C1614 1.368 . S
C1630 C1626 1.368 . S
C1630 C1629 1.523 . S
H1631 C1606 0.950 . S
H1632 C1608 0.950 . S
H1633 C1609 0.949 . S
H1634 C1611 0.950 . S
H1635 C1613 0.950 . S
C1636 C1637 1.349 . S
C1636 C1638 1.327 . S
C1636 H1661 0.950 . S
C1637 C1636 1.349 . S
C1637 C1653 1.349 . S
C1638 C1636 1.327 . S
C1638 C1657 1.429 . S
C1638 H1662 0.950 . S
C1639 C1656 1.574 . S
C1639 C1658 1.368 . S
C1639 H1663 0.949 . S
H1640 C1644 0.949 . S
C1641 C1642 1.349 . S
C1641 C1643 1.327 . S
C1641 H1664 0.950 . S
C1642 C1641 1.349 . S
C1642 C1654 1.349 . S
C1643 C1641 1.327 . S
C1643 C1659 1.429 . S
C1643 H1665 0.950 . S
C1644 H1640 0.949 . S
C1644 C1652 1.574 . S
C1644 C1660 1.368 . S
H1645 C1653 0.950 . S
H1646 C1651 0.950 . S
H1647 C1652 0.949 . S
H1648 C1654 0.950 . S
H1649 C1655 0.950 . S
H1650 C1656 0.949 . S
C1651 H1646 0.950 . S
C1651 C1653 1.327 . S
C1651 C1657 1.429 . S
C1652 C1644 1.574 . S
C1652 H1647 0.949 . S
C1652 C1658 1.368 . S
C1653 C1637 1.349 . S
C1653 H1645 0.950 . S
C1653 C1651 1.327 . S
C1654 C1642 1.349 . S
C1654 H1648 0.950 . S
C1654 C1655 1.327 . S
C1655 H1649 0.950 . S
C1655 C1654 1.327 . S
C1655 C1659 1.429 . S
C1656 C1639 1.574 . S
C1656 H1650 0.949 . S
C1656 C1660 1.368 . S
C1657 C1638 1.429 . S
C1657 C1651 1.429 . S
C1657 C1658 1.523 . S
C1658 C1639 1.368 . S
C1658 C1652 1.368 . S
C1658 C1657 1.523 . S
C1659 C1643 1.429 . S
C1659 C1655 1.429 . S
C1659 C1660 1.523 . S
C1660 C1644 1.368 . S
C1660 C1656 1.368 . S
C1660 C1659 1.523 . S
H1661 C1636 0.950 . S
H1662 C1638 0.950 . S
H1663 C1639 0.949 . S
H1664 C1641 0.950 . S
H1665 C1643 0.950 . S
C1666 C1667 1.349 . S
C1666 C1668 1.327 . S
C1666 H1691 0.950 . S
C1667 C1666 1.349 . S
C1667 C1683 1.349 . S
C1668 C1666 1.327 . S
C1668 C1687 1.429 . S
C1668 H1692 0.950 . S
C1669 C1686 1.574 . S
C1669 C1688 1.368 . S
C1669 H1693 0.949 . S
H1670 C1674 0.949 . S
C1671 C1672 1.349 . S
C1671 C1673 1.327 . S
C1671 H1694 0.950 . S
C1672 C1671 1.349 . S
C1672 C1684 1.349 . S
C1673 C1671 1.327 . S
C1673 C1689 1.429 . S
C1673 H1695 0.950 . S
C1674 H1670 0.949 . S
C1674 C1682 1.574 . S
C1674 C1690 1.368 . S
H1675 C1683 0.950 . S
H1676 C1681 0.950 . S
H1677 C1682 0.949 . S
H1678 C1684 0.950 . S
H1679 C1685 0.950 . S
H1680 C1686 0.949 . S
C1681 H1676 0.950 . S
C1681 C1683 1.327 . S
C1681 C1687 1.429 . S
C1682 C1674 1.574 . S
C1682 H1677 0.949 . S
C1682 C1688 1.368 . S
C1683 C1667 1.349 . S
C1683 H1675 0.950 . S
C1683 C1681 1.327 . S
C1684 C1672 1.349 . S
C1684 H1678 0.950 . S
C1684 C1685 1.327 . S
C1685 H1679 0.950 . S
C1685 C1684 1.327 . S
C1685 C1689 1.429 . S
C1686 C1669 1.574 . S
C1686 H1680 0.949 . S
C1686 C1690 1.368 . S
C1687 C1668 1.429 . S
C1687 C1681 1.429 . S
C1687 C1688 1.523 . S
C1688 C1669 1.368 . S
C1688 C1682 1.368 . S
C1688 C1687 1.523 . S
C1689 C1673 1.429 . S
C1689 C1685 1.429 . S
C1689 C1690 1.523 . S
C1690 C1674 1.368 . S
C1690 C1686 1.368 . S
C1690 C1689 1.523 . S
H1691 C1666 0.950 . S
H1692 C1668 0.950 . S
H1693 C1669 0.949 . S
H1694 C1671 0.950 . S
H1695 C1673 0.950 . S
C1696 C1697 1.349 . S
C1696 C1698 1.327 . S
C1696 H1721 0.950 . S
C1697 C1696 1.349 . S
C1697 C1713 1.349 . S
C1698 C1696 1.327 . S
C1698 C1717 1.429 . S
C1698 H1722 0.950 . S
C1699 C1716 1.574 . S
C1699 C1718 1.368 . S
C1699 H1723 0.943 1_455 S
H1700 C1704 0.949 . S
C1701 C1702 1.349 . S
C1701 C1703 1.327 . S
C1701 H1724 0.962 . S
C1702 C1701 1.349 . S
C1702 C1714 1.349 . S
C1703 C1701 1.327 . S
C1703 C1719 1.429 . S
C1703 H1725 0.950 1_455 S
C1704 H1700 0.949 . S
C1704 C1712 1.574 . S
C1704 C1720 1.368 . S
H1705 C1713 0.955 . S
H1706 C1711 0.946 1_655 S
H1707 C1712 0.949 . S
H1708 C1714 0.950 . S
H1709 C1715 0.950 . S
H1710 C1716 0.944 1_655 S
C1711 H1706 0.946 1_455 S
C1711 C1713 1.327 . S
C1711 C1717 1.429 . S
C1712 C1704 1.574 . S
C1712 H1707 0.949 . S
C1712 C1718 1.368 . S
C1713 C1697 1.349 . S
C1713 H1705 0.955 . S
C1713 C1711 1.327 . S
C1714 C1702 1.349 . S
C1714 H1708 0.950 . S
C1714 C1715 1.327 . S
C1715 H1709 0.950 . S
C1715 C1714 1.327 . S
C1715 C1719 1.429 . S
C1716 C1699 1.574 . S
C1716 H1710 0.944 1_455 S
C1716 C1720 1.368 . S
C1717 C1698 1.429 . S
C1717 C1711 1.429 . S
C1717 C1718 1.523 . S
C1718 C1699 1.368 . S
C1718 C1712 1.368 . S
C1718 C1717 1.523 . S
C1719 C1703 1.429 . S
C1719 C1715 1.429 . S
C1719 C1720 1.523 . S
C1720 C1704 1.368 . S
C1720 C1716 1.368 . S
C1720 C1719 1.523 . S
H1721 C1696 0.950 . S
H1722 C1698 0.950 . S
H1723 C1699 0.943 1_655 S
H1724 C1701 0.962 . S
H1725 C1703 0.950 1_655 S
C1726 C1727 1.349 . S
C1726 C1728 1.327 . S
C1726 H1751 0.950 . S
C1727 C1726 1.349 . S
C1727 C1743 1.349 . S
C1728 C1726 1.327 . S
C1728 C1747 1.429 . S
C1728 H1752 0.950 . S
C1729 C1746 1.574 . S
C1729 C1748 1.368 . S
C1729 H1753 0.949 . S
H1730 C1734 0.949 . S
C1731 C1732 1.349 . S
C1731 C1733 1.327 . S
C1731 H1754 0.950 . S
C1732 C1731 1.349 . S
C1732 C1744 1.349 . S
C1733 C1731 1.327 . S
C1733 C1749 1.429 . S
C1733 H1755 0.950 . S
C1734 H1730 0.949 . S
C1734 C1742 1.574 . S
C1734 C1750 1.368 . S
H1735 C1743 0.950 . S
H1736 C1741 0.950 . S
H1737 C1742 0.949 . S
H1738 C1744 0.950 . S
H1739 C1745 0.950 . S
H1740 C1746 0.949 . S
C1741 H1736 0.950 . S
C1741 C1743 1.327 . S
C1741 C1747 1.429 . S
C1742 C1734 1.574 . S
C1742 H1737 0.949 . S
C1742 C1748 1.368 . S
C1743 C1727 1.349 . S
C1743 H1735 0.950 . S
C1743 C1741 1.327 . S
C1744 C1732 1.349 . S
C1744 H1738 0.950 . S
C1744 C1745 1.327 . S
C1745 H1739 0.950 . S
C1745 C1744 1.327 . S
C1745 C1749 1.429 . S
C1746 C1729 1.574 . S
C1746 H1740 0.949 . S
C1746 C1750 1.368 . S
C1747 C1728 1.429 . S
C1747 C1741 1.429 . S
C1747 C1748 1.523 . S
C1748 C1729 1.368 . S
C1748 C1742 1.368 . S
C1748 C1747 1.523 . S
C1749 C1733 1.429 . S
C1749 C1745 1.429 . S
C1749 C1750 1.523 . S
C1750 C1734 1.368 . S
C1750 C1746 1.368 . S
C1750 C1749 1.523 . S
H1751 C1726 0.950 . S
H1752 C1728 0.950 . S
H1753 C1729 0.949 . S
H1754 C1731 0.950 . S
H1755 C1733 0.950 . S
C1756 C1757 1.349 . S
C1756 C1758 1.327 . S
C1756 H1781 0.950 . S
C1757 C1756 1.349 . S
C1757 C1773 1.349 . S
C1758 C1756 1.327 . S
C1758 C1777 1.429 . S
C1758 H1782 0.950 . S
C1759 C1776 1.574 . S
C1759 C1778 1.368 . S
C1759 H1783 0.949 . S
H1760 C1764 0.949 . S
C1761 C1762 1.349 . S
C1761 C1763 1.327 . S
C1761 H1784 0.950 . S
C1762 C1761 1.349 . S
C1762 C1774 1.349 . S
C1763 C1761 1.327 . S
C1763 C1779 1.429 . S
C1763 H1785 0.950 . S
C1764 H1760 0.949 . S
C1764 C1772 1.574 . S
C1764 C1780 1.368 . S
H1765 C1773 0.950 . S
H1766 C1771 0.950 . S
H1767 C1772 0.949 . S
H1768 C1774 0.950 . S
H1769 C1775 0.950 . S
H1770 C1776 0.949 . S
C1771 H1766 0.950 . S
C1771 C1773 1.327 . S
C1771 C1777 1.429 . S
C1772 C1764 1.574 . S
C1772 H1767 0.949 . S
C1772 C1778 1.368 . S
C1773 C1757 1.349 . S
C1773 H1765 0.950 . S
C1773 C1771 1.327 . S
C1774 C1762 1.349 . S
C1774 H1768 0.950 . S
C1774 C1775 1.327 . S
C1775 H1769 0.950 . S
C1775 C1774 1.327 . S
C1775 C1779 1.429 . S
C1776 C1759 1.574 . S
C1776 H1770 0.949 . S
C1776 C1780 1.368 . S
C1777 C1758 1.429 . S
C1777 C1771 1.429 . S
C1777 C1778 1.523 . S
C1778 C1759 1.368 . S
C1778 C1772 1.368 . S
C1778 C1777 1.523 . S
C1779 C1763 1.429 . S
C1779 C1775 1.429 . S
C1779 C1780 1.523 . S
C1780 C1764 1.368 . S
C1780 C1776 1.368 . S
C1780 C1779 1.523 . S
H1781 C1756 0.950 . S
H1782 C1758 0.950 . S
H1783 C1759 0.949 . S
H1784 C1761 0.950 . S
H1785 C1763 0.950 . S
C1786 C1787 1.349 . S
C1786 C1788 1.327 . S
C1786 H1811 0.950 . S
C1787 C1786 1.349 . S
C1787 C1803 1.349 . S
C1788 C1786 1.327 . S
C1788 C1807 1.429 . S
C1788 H1812 0.950 . S
C1789 C1806 1.574 . S
C1789 C1808 1.368 . S
C1789 H1813 0.949 . S
H1790 C1794 0.949 . S
C1791 C1792 1.349 . S
C1791 C1793 1.327 . S
C1791 H1814 0.950 . S
C1792 C1791 1.349 . S
C1792 C1804 1.349 . S
C1793 C1791 1.327 . S
C1793 C1809 1.429 . S
C1793 H1815 0.950 . S
C1794 H1790 0.949 . S
C1794 C1802 1.574 . S
C1794 C1810 1.368 . S
H1795 C1803 0.950 . S
H1796 C1801 0.950 . S
H1797 C1802 0.949 . S
H1798 C1804 0.950 . S
H1799 C1805 0.950 . S
H1800 C1806 0.949 . S
C1801 H1796 0.950 . S
C1801 C1803 1.327 . S
C1801 C1807 1.429 . S
C1802 C1794 1.574 . S
C1802 H1797 0.949 . S
C1802 C1808 1.368 . S
C1803 C1787 1.349 . S
C1803 H1795 0.950 . S
C1803 C1801 1.327 . S
C1804 C1792 1.349 . S
C1804 H1798 0.950 . S
C1804 C1805 1.327 . S
C1805 H1799 0.950 . S
C1805 C1804 1.327 . S
C1805 C1809 1.429 . S
C1806 C1789 1.574 . S
C1806 H1800 0.949 . S
C1806 C1810 1.368 . S
C1807 C1788 1.429 . S
C1807 C1801 1.429 . S
C1807 C1808 1.523 . S
C1808 C1789 1.368 . S
C1808 C1802 1.368 . S
C1808 C1807 1.523 . S
C1809 C1793 1.429 . S
C1809 C1805 1.429 . S
C1809 C1810 1.523 . S
C1810 C1794 1.368 . S
C1810 C1806 1.368 . S
C1810 C1809 1.523 . S
H1811 C1786 0.950 . S
H1812 C1788 0.950 . S
H1813 C1789 0.949 . S
H1814 C1791 0.950 . S
H1815 C1793 0.950 . S
C1816 C1817 1.349 . S
C1816 C1818 1.327 . S
C1816 H1841 0.950 . S
C1817 C1816 1.349 . S
C1817 C1833 1.349 . S
C1818 C1816 1.327 . S
C1818 C1837 1.429 . S
C1818 H1842 0.950 . S
C1819 C1836 1.574 . S
C1819 C1838 1.368 . S
C1819 H1843 0.949 . S
H1820 C1824 0.949 . S
C1821 C1822 1.349 1_455 S
C1821 C1823 1.327 . S
C1821 H1844 0.950 . S
C1822 C1821 1.349 1_655 S
C1822 C1834 1.349 . S
C1823 C1821 1.327 . S
C1823 C1839 1.429 . S
C1823 H1845 0.950 . S
C1824 H1820 0.949 . S
C1824 C1832 1.574 . S
C1824 C1840 1.368 . S
H1825 C1833 0.950 . S
H1826 C1831 0.950 . S
H1827 C1832 0.949 . S
H1828 C1834 0.950 . S
H1829 C1835 0.944 1_655 S
H1830 C1836 0.949 . S
C1831 H1826 0.950 . S
C1831 C1833 1.327 . S
C1831 C1837 1.429 . S
C1832 C1824 1.574 . S
C1832 H1827 0.949 . S
C1832 C1838 1.368 . S
C1833 C1817 1.349 . S
C1833 H1825 0.950 . S
C1833 C1831 1.327 . S
C1834 C1822 1.349 . S
C1834 H1828 0.950 . S
C1834 C1835 1.326 1_655 S
C1835 H1829 0.944 1_455 S
C1835 C1834 1.326 1_455 S
C1835 C1839 1.436 . S
C1836 C1819 1.574 . S
C1836 H1830 0.949 . S
C1836 C1840 1.368 . S
C1837 C1818 1.429 . S
C1837 C1831 1.429 . S
C1837 C1838 1.523 . S
C1838 C1819 1.368 . S
C1838 C1832 1.368 . S
C1838 C1837 1.523 . S
C1839 C1823 1.429 . S
C1839 C1835 1.436 . S
C1839 C1840 1.523 . S
C1840 C1824 1.368 . S
C1840 C1836 1.368 . S
C1840 C1839 1.523 . S
H1841 C1816 0.950 . S
H1842 C1818 0.950 . S
H1843 C1819 0.949 . S
H1844 C1821 0.950 . S
H1845 C1823 0.950 . S
C1846 C1847 1.349 . S
C1846 C1848 1.327 . S
C1846 H1871 0.950 . S
C1847 C1846 1.349 . S
C1847 C1863 1.349 . S
C1848 C1846 1.327 . S
C1848 C1867 1.429 . S
C1848 H1872 0.950 . S
C1849 C1866 1.574 . S
C1849 C1868 1.368 . S
C1849 H1873 0.949 . S
H1850 C1854 0.949 . S
C1851 C1852 1.349 . S
C1851 C1853 1.327 . S
C1851 H1874 0.950 . S
C1852 C1851 1.349 . S
C1852 C1864 1.349 . S
C1853 C1851 1.327 . S
C1853 C1869 1.429 . S
C1853 H1875 0.950 . S
C1854 H1850 0.949 . S
C1854 C1862 1.574 . S
C1854 C1870 1.368 . S
H1855 C1863 0.950 . S
H1856 C1861 0.950 . S
H1857 C1862 0.949 . S
H1858 C1864 0.950 . S
H1859 C1865 0.950 . S
H1860 C1866 0.949 . S
C1861 H1856 0.950 . S
C1861 C1863 1.327 . S
C1861 C1867 1.429 . S
C1862 C1854 1.574 . S
C1862 H1857 0.949 . S
C1862 C1868 1.368 . S
C1863 C1847 1.349 . S
C1863 H1855 0.950 . S
C1863 C1861 1.327 . S
C1864 C1852 1.349 . S
C1864 H1858 0.950 . S
C1864 C1865 1.327 . S
C1865 H1859 0.950 . S
C1865 C1864 1.327 . S
C1865 C1869 1.429 . S
C1866 C1849 1.574 . S
C1866 H1860 0.949 . S
C1866 C1870 1.368 . S
C1867 C1848 1.429 . S
C1867 C1861 1.429 . S
C1867 C1868 1.523 . S
C1868 C1849 1.368 . S
C1868 C1862 1.368 . S
C1868 C1867 1.523 . S
C1869 C1853 1.429 . S
C1869 C1865 1.429 . S
C1869 C1870 1.523 . S
C1870 C1854 1.368 . S
C1870 C1866 1.368 . S
C1870 C1869 1.523 . S
H1871 C1846 0.950 . S
H1872 C1848 0.950 . S
H1873 C1849 0.949 . S
H1874 C1851 0.950 . S
H1875 C1853 0.950 . S
C1876 C1877 1.349 . S
C1876 C1878 1.327 . S
C1876 H1901 0.950 . S
C1877 C1876 1.349 . S
C1877 C1893 1.349 . S
C1878 C1876 1.327 . S
C1878 C1897 1.429 . S
C1878 H1902 0.950 . S
C1879 C1896 1.574 . S
C1879 C1898 1.368 . S
C1879 H1903 0.949 . S
H1880 C1884 0.949 . S
C1881 C1882 1.400 . S
C1881 C1883 1.271 1_545 S
C1881 H1904 0.958 . S
C1882 C1881 1.400 . S
C1882 C1894 1.349 . S
C1883 C1881 1.271 1_565 S
C1883 C1899 1.429 . S
C1883 H1905 0.950 . S
C1884 H1880 0.949 . S
C1884 C1892 1.574 . S
C1884 C1900 1.368 1_556 S
H1885 C1893 0.950 1_554 S
H1886 C1891 0.950 . S
H1887 C1892 0.949 . S
H1888 C1894 0.950 . S
H1889 C1895 0.950 . S
H1890 C1896 0.949 . S
C1891 H1886 0.950 . S
C1891 C1893 1.327 1_554 S
C1891 C1897 1.429 1_554 S
C1892 C1884 1.574 . S
C1892 H1887 0.949 . S
C1892 C1898 1.368 1_556 S
C1893 C1877 1.349 . S
C1893 H1885 0.950 1_556 S
C1893 C1891 1.327 1_556 S
C1894 C1882 1.349 . S
C1894 H1888 0.950 . S
C1894 C1895 1.327 1_545 S
C1895 H1889 0.950 . S
C1895 C1894 1.327 1_565 S
C1895 C1899 1.429 . S
C1896 C1879 1.574 . S
C1896 H1890 0.949 . S
C1896 C1900 1.368 . S
C1897 C1878 1.429 . S
C1897 C1891 1.429 1_556 S
C1897 C1898 1.523 1_556 S
C1898 C1879 1.368 . S
C1898 C1892 1.368 1_554 S
C1898 C1897 1.523 1_554 S
C1899 C1883 1.429 . S
C1899 C1895 1.429 . S
C1899 C1900 1.523 . S
C1900 C1884 1.368 1_554 S
C1900 C1896 1.368 . S
C1900 C1899 1.523 . S
H1901 C1876 0.950 . S
H1902 C1878 0.950 . S
H1903 C1879 0.949 . S
H1904 C1881 0.958 . S
H1905 C1883 0.950 . S
C1906 C1907 1.349 . S
C1906 C1908 1.327 . S
C1906 H1931 0.950 . S
C1907 C1906 1.349 . S
C1907 C1923 1.349 . S
C1908 C1906 1.327 . S
C1908 C1927 1.429 . S
C1908 H1932 0.950 . S
C1909 C1926 1.574 . S
C1909 C1928 1.368 . S
C1909 H1933 0.949 . S
H1910 C1914 0.949 . S
C1911 C1912 1.349 . S
C1911 C1913 1.327 . S
C1911 H1934 0.950 . S
C1912 C1911 1.349 . S
C1912 C1924 1.349 . S
C1913 C1911 1.327 . S
C1913 C1929 1.429 . S
C1913 H1935 0.950 . S
C1914 H1910 0.949 . S
C1914 C1922 1.574 . S
C1914 C1930 1.368 . S
H1915 C1923 0.950 . S
H1916 C1921 0.950 . S
H1917 C1922 0.949 . S
H1918 C1924 0.950 . S
H1919 C1925 0.950 . S
H1920 C1926 0.949 . S
C1921 H1916 0.950 . S
C1921 C1923 1.327 . S
C1921 C1927 1.429 . S
C1922 C1914 1.574 . S
C1922 H1917 0.949 . S
C1922 C1928 1.368 . S
C1923 C1907 1.349 . S
C1923 H1915 0.950 . S
C1923 C1921 1.327 . S
C1924 C1912 1.349 . S
C1924 H1918 0.950 . S
C1924 C1925 1.327 . S
C1925 H1919 0.950 . S
C1925 C1924 1.327 . S
C1925 C1929 1.429 . S
C1926 C1909 1.574 . S
C1926 H1920 0.949 . S
C1926 C1930 1.368 . S
C1927 C1908 1.429 . S
C1927 C1921 1.429 . S
C1927 C1928 1.523 . S
C1928 C1909 1.368 . S
C1928 C1922 1.368 . S
C1928 C1927 1.523 . S
C1929 C1913 1.429 . S
C1929 C1925 1.429 . S
C1929 C1930 1.523 . S
C1930 C1914 1.368 . S
C1930 C1926 1.368 . S
C1930 C1929 1.523 . S
H1931 C1906 0.950 . S
H1932 C1908 0.950 . S
H1933 C1909 0.949 . S
H1934 C1911 0.950 . S
H1935 C1913 0.950 . S
C1936 C1937 1.349 . S
C1936 C1938 1.327 . S
C1936 H1961 0.950 . S
C1937 C1936 1.349 . S
C1937 C1953 1.349 . S
C1938 C1936 1.327 . S
C1938 C1957 1.429 . S
C1938 H1962 0.950 . S
C1939 C1956 1.574 . S
C1939 C1958 1.368 . S
C1939 H1963 0.949 . S
H1940 C1944 0.949 . S
C1941 C1942 1.349 . S
C1941 C1943 1.327 . S
C1941 H1964 0.950 1_556 S
C1942 C1941 1.349 . S
C1942 C1954 1.349 . S
C1943 C1941 1.327 . S
C1943 C1959 1.429 . S
C1943 H1965 0.950 . S
C1944 H1940 0.949 . S
C1944 C1952 1.574 . S
C1944 C1960 1.368 . S
H1945 C1953 0.950 . S
H1946 C1951 0.950 . S
H1947 C1952 0.949 . S
H1948 C1954 0.950 . S
H1949 C1955 0.950 . S
H1950 C1956 0.949 . S
C1951 H1946 0.950 . S
C1951 C1953 1.327 . S
C1951 C1957 1.429 . S
C1952 C1944 1.574 . S
C1952 H1947 0.949 . S
C1952 C1958 1.368 . S
C1953 C1937 1.349 . S
C1953 H1945 0.950 . S
C1953 C1951 1.327 . S
C1954 C1942 1.349 . S
C1954 H1948 0.950 . S
C1954 C1955 1.327 . S
C1955 H1949 0.950 . S
C1955 C1954 1.327 . S
C1955 C1959 1.429 . S
C1956 C1939 1.574 . S
C1956 H1950 0.949 . S
C1956 C1960 1.368 . S
C1957 C1938 1.429 . S
C1957 C1951 1.429 . S
C1957 C1958 1.523 . S
C1958 C1939 1.368 . S
C1958 C1952 1.368 . S
C1958 C1957 1.523 . S
C1959 C1943 1.429 . S
C1959 C1955 1.429 . S
C1959 C1960 1.523 . S
C1960 C1944 1.368 . S
C1960 C1956 1.368 . S
C1960 C1959 1.523 . S
H1961 C1936 0.950 . S
H1962 C1938 0.950 . S
H1963 C1939 0.949 . S
H1964 C1941 0.950 1_554 S
H1965 C1943 0.950 . S
C1966 C1967 1.349 . S
C1966 C1968 1.327 . S
C1966 H1991 0.950 . S
C1967 C1966 1.349 . S
C1967 C1983 1.349 . S
C1968 C1966 1.327 . S
C1968 C1987 1.429 . S
C1968 H1992 0.950 . S
C1969 C1986 1.574 . S
C1969 C1988 1.368 . S
C1969 H1993 0.949 . S
H1970 C1974 0.949 . S
C1971 C1972 1.349 . S
C1971 C1973 1.327 . S
C1971 H1994 0.950 . S
C1972 C1971 1.349 . S
C1972 C1984 1.349 . S
C1973 C1971 1.327 . S
C1973 C1989 1.429 . S
C1973 H1995 0.950 . S
C1974 H1970 0.949 . S
C1974 C1982 1.574 . S
C1974 C1990 1.368 . S
H1975 C1983 0.950 . S
H1976 C1981 0.950 . S
H1977 C1982 0.949 . S
H1978 C1984 0.950 . S
H1979 C1985 0.950 . S
H1980 C1986 0.949 . S
C1981 H1976 0.950 . S
C1981 C1983 1.327 . S
C1981 C1987 1.429 . S
C1982 C1974 1.574 . S
C1982 H1977 0.949 . S
C1982 C1988 1.368 . S
C1983 C1967 1.349 . S
C1983 H1975 0.950 . S
C1983 C1981 1.327 . S
C1984 C1972 1.349 . S
C1984 H1978 0.950 . S
C1984 C1985 1.327 . S
C1985 H1979 0.950 . S
C1985 C1984 1.327 . S
C1985 C1989 1.429 . S
C1986 C1969 1.574 . S
C1986 H1980 0.949 . S
C1986 C1990 1.368 . S
C1987 C1968 1.429 . S
C1987 C1981 1.429 . S
C1987 C1988 1.523 . S
C1988 C1969 1.368 . S
C1988 C1982 1.368 . S
C1988 C1987 1.523 . S
C1989 C1973 1.429 . S
C1989 C1985 1.429 . S
C1989 C1990 1.523 . S
C1990 C1974 1.368 . S
C1990 C1986 1.368 . S
C1990 C1989 1.523 . S
H1991 C1966 0.950 . S
H1992 C1968 0.950 . S
H1993 C1969 0.949 . S
H1994 C1971 0.950 . S
H1995 C1973 0.950 . S
C1996 C1997 1.349 . S
C1996 C1998 1.327 . S
C1996 H2021 0.950 . S
C1997 C1996 1.349 . S
C1997 C2013 1.349 . S
C1998 C1996 1.327 . S
C1998 C2017 1.429 . S
C1998 H2022 0.950 . S
C1999 C2016 1.574 . S
C1999 C2018 1.368 . S
C1999 H2023 0.949 . S
H2000 C2004 0.949 . S
C2001 C2002 1.349 . S
C2001 C2003 1.327 . S
C2001 H2024 0.950 . S
C2002 C2001 1.349 . S
C2002 C2014 1.349 . S
C2003 C2001 1.327 . S
C2003 C2019 1.429 . S
C2003 H2025 0.950 . S
C2004 H2000 0.949 . S
C2004 C2012 1.574 . S
C2004 C2020 1.368 . S
H2005 C2013 0.950 . S
H2006 C2011 0.950 . S
H2007 C2012 0.949 . S
H2008 C2014 0.950 . S
H2009 C2015 0.950 . S
H2010 C2016 0.949 . S
C2011 H2006 0.950 . S
C2011 C2013 1.327 . S
C2011 C2017 1.429 . S
C2012 C2004 1.574 . S
C2012 H2007 0.949 . S
C2012 C2018 1.368 . S
C2013 C1997 1.349 . S
C2013 H2005 0.950 . S
C2013 C2011 1.327 . S
C2014 C2002 1.349 . S
C2014 H2008 0.950 . S
C2014 C2015 1.327 . S
C2015 H2009 0.950 . S
C2015 C2014 1.327 . S
C2015 C2019 1.429 . S
C2016 C1999 1.574 . S
C2016 H2010 0.949 . S
C2016 C2020 1.368 . S
C2017 C1998 1.429 . S
C2017 C2011 1.429 . S
C2017 C2018 1.523 . S
C2018 C1999 1.368 . S
C2018 C2012 1.368 . S
C2018 C2017 1.523 . S
C2019 C2003 1.429 . S
C2019 C2015 1.429 . S
C2019 C2020 1.523 . S
C2020 C2004 1.368 . S
C2020 C2016 1.368 . S
C2020 C2019 1.523 . S
H2021 C1996 0.950 . S
H2022 C1998 0.950 . S
H2023 C1999 0.949 . S
H2024 C2001 0.950 . S
H2025 C2003 0.950 . S
C2026 C2027 1.349 . S
C2026 C2028 1.327 . S
C2026 H2051 0.950 . S
C2027 C2026 1.349 . S
C2027 C2043 1.349 . S
C2028 C2026 1.327 . S
C2028 C2047 1.429 . S
C2028 H2052 0.950 . S
C2029 C2046 1.574 . S
C2029 C2048 1.368 . S
C2029 H2053 0.949 . S
H2030 C2034 0.949 . S
C2031 C2032 1.349 . S
C2031 C2033 1.327 . S
C2031 H2054 0.950 . S
C2032 C2031 1.349 . S
C2032 C2044 1.349 . S
C2033 C2031 1.327 . S
C2033 C2049 1.429 . S
C2033 H2055 0.950 . S
C2034 H2030 0.949 . S
C2034 C2042 1.574 . S
C2034 C2050 1.368 . S
H2035 C2043 0.950 . S
H2036 C2041 0.950 . S
H2037 C2042 0.949 . S
H2038 C2044 0.950 . S
H2039 C2045 0.950 . S
H2040 C2046 0.949 . S
C2041 H2036 0.950 . S
C2041 C2043 1.327 . S
C2041 C2047 1.429 . S
C2042 C2034 1.574 . S
C2042 H2037 0.949 . S
C2042 C2048 1.368 . S
C2043 C2027 1.349 . S
C2043 H2035 0.950 . S
C2043 C2041 1.327 . S
C2044 C2032 1.349 . S
C2044 H2038 0.950 . S
C2044 C2045 1.327 . S
C2045 H2039 0.950 . S
C2045 C2044 1.327 . S
C2045 C2049 1.429 . S
C2046 C2029 1.574 . S
C2046 H2040 0.949 . S
C2046 C2050 1.368 . S
C2047 C2028 1.429 . S
C2047 C2041 1.429 . S
C2047 C2048 1.523 . S
C2048 C2029 1.368 . S
C2048 C2042 1.368 . S
C2048 C2047 1.523 . S
C2049 C2033 1.429 . S
C2049 C2045 1.429 . S
C2049 C2050 1.523 . S
C2050 C2034 1.368 . S
C2050 C2046 1.368 . S
C2050 C2049 1.523 . S
H2051 C2026 0.950 . S
H2052 C2028 0.950 . S
H2053 C2029 0.949 . S
H2054 C2031 0.950 . S
H2055 C2033 0.950 . S
C2056 C2057 1.349 . S
C2056 C2058 1.327 . S
C2056 H2081 0.996 . S
C2057 C2056 1.349 . S
C2057 C2073 1.349 . S
C2058 C2056 1.327 . S
C2058 C2077 1.429 . S
C2058 H2082 0.950 . S
C2059 C2076 1.574 . S
C2059 C2078 1.368 . S
C2059 H2083 0.949 . S
H2060 C2064 0.949 . S
C2061 C2062 1.349 . S
C2061 C2063 1.327 . S
C2061 H2084 0.950 . S
C2062 C2061 1.349 . S
C2062 C2074 1.349 . S
C2063 C2061 1.327 . S
C2063 C2079 1.429 . S
C2063 H2085 0.950 . S
C2064 H2060 0.949 . S
C2064 C2072 1.574 . S
C2064 C2080 1.368 . S
H2065 C2073 0.950 . S
H2066 C2071 0.950 . S
H2067 C2072 0.949 . S
H2068 C2074 0.950 . S
H2069 C2075 0.950 . S
H2070 C2076 0.949 . S
C2071 H2066 0.950 . S
C2071 C2073 1.327 . S
C2071 C2077 1.429 . S
C2072 C2064 1.574 . S
C2072 H2067 0.949 . S
C2072 C2078 1.368 . S
C2073 C2057 1.349 . S
C2073 H2065 0.950 . S
C2073 C2071 1.327 . S
C2074 C2062 1.349 . S
C2074 H2068 0.950 . S
C2074 C2075 1.327 . S
C2075 H2069 0.950 . S
C2075 C2074 1.327 . S
C2075 C2079 1.429 . S
C2076 C2059 1.574 . S
C2076 H2070 0.949 . S
C2076 C2080 1.368 . S
C2077 C2058 1.429 . S
C2077 C2071 1.429 . S
C2077 C2078 1.523 . S
C2078 C2059 1.368 . S
C2078 C2072 1.368 . S
C2078 C2077 1.523 . S
C2079 C2063 1.429 . S
C2079 C2075 1.429 . S
C2079 C2080 1.523 . S
C2080 C2064 1.368 . S
C2080 C2076 1.368 . S
C2080 C2079 1.523 . S
H2081 C2056 0.996 . S
H2082 C2058 0.950 . S
H2083 C2059 0.949 . S
H2084 C2061 0.950 . S
H2085 C2063 0.950 . S
C2086 C2087 1.349 . S
C2086 C2088 1.327 . S
C2086 H2111 0.950 . S
C2087 C2086 1.349 . S
C2087 C2103 1.349 . S
C2088 C2086 1.327 . S
C2088 C2107 1.429 . S
C2088 H2112 0.950 . S
C2089 C2106 1.574 . S
C2089 C2108 1.368 . S
C2089 H2113 0.949 . S
H2090 C2094 0.949 . S
C2091 C2092 1.349 . S
C2091 C2093 1.327 . S
C2091 H2114 0.950 . S
C2092 C2091 1.349 . S
C2092 C2104 1.349 . S
C2093 C2091 1.327 . S
C2093 C2109 1.429 . S
C2093 H2115 0.950 . S
C2094 H2090 0.949 . S
C2094 C2102 1.574 . S
C2094 C2110 1.368 . S
H2095 C2103 0.950 . S
H2096 C2101 0.950 . S
H2097 C2102 0.949 . S
H2098 C2104 0.950 . S
H2099 C2105 0.950 . S
H2100 C2106 0.949 . S
C2101 H2096 0.950 . S
C2101 C2103 1.327 . S
C2101 C2107 1.429 . S
C2102 C2094 1.574 . S
C2102 H2097 0.949 . S
C2102 C2108 1.368 . S
C2103 C2087 1.349 . S
C2103 H2095 0.950 . S
C2103 C2101 1.327 . S
C2104 C2092 1.349 . S
C2104 H2098 0.950 . S
C2104 C2105 1.327 . S
C2105 H2099 0.950 . S
C2105 C2104 1.327 . S
C2105 C2109 1.429 . S
C2106 C2089 1.574 . S
C2106 H2100 0.949 . S
C2106 C2110 1.368 . S
C2107 C2088 1.429 . S
C2107 C2101 1.429 . S
C2107 C2108 1.523 . S
C2108 C2089 1.368 . S
C2108 C2102 1.368 . S
C2108 C2107 1.523 . S
C2109 C2093 1.429 . S
C2109 C2105 1.429 . S
C2109 C2110 1.523 . S
C2110 C2094 1.368 . S
C2110 C2106 1.368 . S
C2110 C2109 1.523 . S
H2111 C2086 0.950 . S
H2112 C2088 0.950 . S
H2113 C2089 0.949 . S
H2114 C2091 0.950 . S
H2115 C2093 0.950 . S
C2116 C2117 1.349 . S
C2116 C2118 1.327 . S
C2116 H2141 0.950 . S
C2117 C2116 1.349 . S
C2117 C2133 1.349 . S
C2118 C2116 1.327 . S
C2118 C2137 1.429 . S
C2118 H2142 0.950 . S
C2119 C2136 1.574 . S
C2119 C2138 1.368 . S
C2119 H2143 0.949 . S
H2120 C2124 0.949 . S
C2121 C2122 1.349 . S
C2121 C2123 1.327 . S
C2121 H2144 0.950 . S
C2122 C2121 1.349 . S
C2122 C2134 1.349 . S
C2123 C2121 1.327 . S
C2123 C2139 1.429 . S
C2123 H2145 0.950 . S
C2124 H2120 0.949 . S
C2124 C2132 1.574 . S
C2124 C2140 1.368 . S
H2125 C2133 0.950 . S
H2126 C2131 0.950 . S
H2127 C2132 0.949 . S
H2128 C2134 0.950 . S
H2129 C2135 0.950 . S
H2130 C2136 0.949 . S
C2131 H2126 0.950 . S
C2131 C2133 1.327 . S
C2131 C2137 1.429 . S
C2132 C2124 1.574 . S
C2132 H2127 0.949 . S
C2132 C2138 1.368 . S
C2133 C2117 1.349 . S
C2133 H2125 0.950 . S
C2133 C2131 1.327 . S
C2134 C2122 1.349 . S
C2134 H2128 0.950 . S
C2134 C2135 1.327 . S
C2135 H2129 0.950 . S
C2135 C2134 1.327 . S
C2135 C2139 1.429 . S
C2136 C2119 1.574 . S
C2136 H2130 0.949 . S
C2136 C2140 1.368 . S
C2137 C2118 1.429 . S
C2137 C2131 1.429 . S
C2137 C2138 1.523 . S
C2138 C2119 1.368 . S
C2138 C2132 1.368 . S
C2138 C2137 1.523 . S
C2139 C2123 1.429 . S
C2139 C2135 1.429 . S
C2139 C2140 1.523 . S
C2140 C2124 1.368 . S
C2140 C2136 1.368 . S
C2140 C2139 1.523 . S
H2141 C2116 0.950 . S
H2142 C2118 0.950 . S
H2143 C2119 0.949 . S
H2144 C2121 0.950 . S
H2145 C2123 0.950 . S
C2146 C2147 1.349 . S
C2146 C2148 1.327 . S
C2146 H2171 0.950 . S
C2147 C2146 1.349 . S
C2147 C2163 1.349 . S
C2148 C2146 1.327 . S
C2148 C2167 1.429 . S
C2148 H2172 0.950 . S
C2149 C2166 1.574 . S
C2149 C2168 1.368 . S
C2149 H2173 0.949 . S
H2150 C2154 0.949 . S
C2151 C2152 1.349 . S
C2151 C2153 1.327 . S
C2151 H2174 0.950 . S
C2152 C2151 1.349 . S
C2152 C2164 1.349 . S
C2153 C2151 1.327 . S
C2153 C2169 1.429 . S
C2153 H2175 0.950 . S
C2154 H2150 0.949 . S
C2154 C2162 1.574 . S
C2154 C2170 1.368 . S
H2155 C2163 0.950 . S
H2156 C2161 0.950 . S
H2157 C2162 0.949 . S
H2158 C2164 0.950 . S
H2159 C2165 0.950 . S
H2160 C2166 0.949 . S
C2161 H2156 0.950 . S
C2161 C2163 1.327 . S
C2161 C2167 1.429 . S
C2162 C2154 1.574 . S
C2162 H2157 0.949 . S
C2162 C2168 1.368 . S
C2163 C2147 1.349 . S
C2163 H2155 0.950 . S
C2163 C2161 1.327 . S
C2164 C2152 1.349 . S
C2164 H2158 0.950 . S
C2164 C2165 1.327 . S
C2165 H2159 0.950 . S
C2165 C2164 1.327 . S
C2165 C2169 1.429 . S
C2166 C2149 1.574 . S
C2166 H2160 0.949 . S
C2166 C2170 1.368 . S
C2167 C2148 1.429 . S
C2167 C2161 1.429 . S
C2167 C2168 1.523 . S
C2168 C2149 1.368 . S
C2168 C2162 1.368 . S
C2168 C2167 1.523 . S
C2169 C2153 1.429 . S
C2169 C2165 1.429 . S
C2169 C2170 1.523 . S
C2170 C2154 1.368 . S
C2170 C2166 1.368 . S
C2170 C2169 1.523 . S
H2171 C2146 0.950 . S
H2172 C2148 0.950 . S
H2173 C2149 0.949 . S
H2174 C2151 0.950 . S
H2175 C2153 0.950 . S
C2176 C2177 1.349 . S
C2176 C2178 1.327 . S
C2176 H2201 0.950 . S
C2177 C2176 1.349 . S
C2177 C2193 1.349 . S
C2178 C2176 1.327 . S
C2178 C2197 1.429 . S
C2178 H2202 0.950 . S
C2179 C2196 1.574 . S
C2179 C2198 1.368 . S
C2179 H2203 0.949 . S
H2180 C2184 0.949 . S
C2181 C2182 1.349 . S
C2181 C2183 1.327 . S
C2181 H2204 0.950 . S
C2182 C2181 1.349 . S
C2182 C2194 1.349 . S
C2183 C2181 1.327 . S
C2183 C2199 1.429 . S
C2183 H2205 0.950 . S
C2184 H2180 0.949 . S
C2184 C2192 1.574 . S
C2184 C2200 1.368 . S
H2185 C2193 0.950 . S
H2186 C2191 0.950 . S
H2187 C2192 0.949 . S
H2188 C2194 0.950 . S
H2189 C2195 0.950 . S
H2190 C2196 0.949 . S
C2191 H2186 0.950 . S
C2191 C2193 1.327 . S
C2191 C2197 1.429 . S
C2192 C2184 1.574 . S
C2192 H2187 0.949 . S
C2192 C2198 1.368 . S
C2193 C2177 1.349 . S
C2193 H2185 0.950 . S
C2193 C2191 1.327 . S
C2194 C2182 1.349 . S
C2194 H2188 0.950 . S
C2194 C2195 1.327 . S
C2195 H2189 0.950 . S
C2195 C2194 1.327 . S
C2195 C2199 1.429 . S
C2196 C2179 1.574 . S
C2196 H2190 0.949 . S
C2196 C2200 1.368 . S
C2197 C2178 1.429 . S
C2197 C2191 1.429 . S
C2197 C2198 1.523 . S
C2198 C2179 1.368 . S
C2198 C2192 1.368 . S
C2198 C2197 1.523 . S
C2199 C2183 1.429 . S
C2199 C2195 1.429 . S
C2199 C2200 1.523 . S
C2200 C2184 1.368 . S
C2200 C2196 1.368 . S
C2200 C2199 1.523 . S
H2201 C2176 0.950 . S
H2202 C2178 0.950 . S
H2203 C2179 0.949 . S
H2204 C2181 0.950 . S
H2205 C2183 0.950 . S
C2206 C2207 1.349 . S
C2206 C2208 1.327 . S
C2206 H2231 0.950 . S
C2207 C2206 1.349 . S
C2207 C2223 1.349 . S
C2208 C2206 1.327 . S
C2208 C2227 1.429 . S
C2208 H2232 0.950 . S
C2209 C2226 1.574 . S
C2209 C2228 1.368 . S
C2209 H2233 0.949 . S
H2210 C2214 0.949 . S
C2211 C2212 1.349 . S
C2211 C2213 1.327 . S
C2211 H2234 0.950 . S
C2212 C2211 1.349 . S
C2212 C2224 1.349 . S
C2213 C2211 1.327 . S
C2213 C2229 1.429 . S
C2213 H2235 0.950 . S
C2214 H2210 0.949 . S
C2214 C2222 1.574 . S
C2214 C2230 1.368 . S
H2215 C2223 0.950 . S
H2216 C2221 0.950 . S
H2217 C2222 0.949 . S
H2218 C2224 0.950 . S
H2219 C2225 0.950 . S
H2220 C2226 0.949 . S
C2221 H2216 0.950 . S
C2221 C2223 1.327 . S
C2221 C2227 1.429 . S
C2222 C2214 1.574 . S
C2222 H2217 0.949 . S
C2222 C2228 1.368 . S
C2223 C2207 1.349 . S
C2223 H2215 0.950 . S
C2223 C2221 1.327 . S
C2224 C2212 1.349 . S
C2224 H2218 0.950 . S
C2224 C2225 1.327 . S
C2225 H2219 0.950 . S
C2225 C2224 1.327 . S
C2225 C2229 1.429 . S
C2226 C2209 1.574 . S
C2226 H2220 0.949 . S
C2226 C2230 1.368 . S
C2227 C2208 1.429 . S
C2227 C2221 1.429 . S
C2227 C2228 1.523 . S
C2228 C2209 1.368 . S
C2228 C2222 1.368 . S
C2228 C2227 1.523 . S
C2229 C2213 1.429 . S
C2229 C2225 1.429 . S
C2229 C2230 1.523 . S
C2230 C2214 1.368 . S
C2230 C2226 1.368 . S
C2230 C2229 1.523 . S
H2231 C2206 0.950 . S
H2232 C2208 0.950 . S
H2233 C2209 0.949 . S
H2234 C2211 0.950 . S
H2235 C2213 0.950 . S
C2236 C2237 1.349 . S
C2236 C2238 1.327 . S
C2236 H2261 0.950 . S
C2237 C2236 1.349 . S
C2237 C2253 1.349 . S
C2238 C2236 1.327 . S
C2238 C2257 1.429 . S
C2238 H2262 0.950 . S
C2239 C2256 1.574 . S
C2239 C2258 1.368 . S
C2239 H2263 0.949 . S
H2240 C2244 0.949 . S
C2241 C2242 1.349 . S
C2241 C2243 1.327 . S
C2241 H2264 0.950 . S
C2242 C2241 1.349 . S
C2242 C2254 1.349 . S
C2243 C2241 1.327 . S
C2243 C2259 1.429 . S
C2243 H2265 0.950 . S
C2244 H2240 0.949 . S
C2244 C2252 1.574 . S
C2244 C2260 1.368 . S
H2245 C2253 0.950 . S
H2246 C2251 0.950 . S
H2247 C2252 0.949 . S
H2248 C2254 0.950 . S
H2249 C2255 0.950 . S
H2250 C2256 0.949 . S
C2251 H2246 0.950 . S
C2251 C2253 1.327 . S
C2251 C2257 1.429 . S
C2252 C2244 1.574 . S
C2252 H2247 0.949 . S
C2252 C2258 1.368 . S
C2253 C2237 1.349 . S
C2253 H2245 0.950 . S
C2253 C2251 1.327 . S
C2254 C2242 1.349 . S
C2254 H2248 0.950 . S
C2254 C2255 1.327 . S
C2255 H2249 0.950 . S
C2255 C2254 1.327 . S
C2255 C2259 1.429 . S
C2256 C2239 1.574 . S
C2256 H2250 0.949 . S
C2256 C2260 1.368 . S
C2257 C2238 1.429 . S
C2257 C2251 1.429 . S
C2257 C2258 1.523 . S
C2258 C2239 1.368 . S
C2258 C2252 1.368 . S
C2258 C2257 1.523 . S
C2259 C2243 1.429 . S
C2259 C2255 1.429 . S
C2259 C2260 1.523 . S
C2260 C2244 1.368 . S
C2260 C2256 1.368 . S
C2260 C2259 1.523 . S
H2261 C2236 0.950 . S
H2262 C2238 0.950 . S
H2263 C2239 0.949 . S
H2264 C2241 0.950 . S
H2265 C2243 0.950 . S
C2266 C2267 1.349 . S
C2266 C2268 1.327 . S
C2266 H2291 0.950 . S
C2267 C2266 1.349 . S
C2267 C2283 1.349 . S
C2268 C2266 1.327 . S
C2268 C2287 1.429 . S
C2268 H2292 0.950 . S
C2269 C2286 1.574 . S
C2269 C2288 1.368 . S
C2269 H2293 0.949 . S
H2270 C2274 0.949 . S
C2271 C2272 1.349 . S
C2271 C2273 1.327 . S
C2271 H2294 0.950 . S
C2272 C2271 1.349 . S
C2272 C2284 1.349 . S
C2273 C2271 1.327 . S
C2273 C2289 1.429 . S
C2273 H2295 0.950 . S
C2274 H2270 0.949 . S
C2274 C2282 1.574 . S
C2274 C2290 1.368 . S
H2275 C2283 0.950 . S
H2276 C2281 0.950 . S
H2277 C2282 0.949 . S
H2278 C2284 0.950 . S
H2279 C2285 0.950 . S
H2280 C2286 0.949 . S
C2281 H2276 0.950 . S
C2281 C2283 1.327 . S
C2281 C2287 1.429 . S
C2282 C2274 1.574 . S
C2282 H2277 0.949 . S
C2282 C2288 1.368 . S
C2283 C2267 1.349 . S
C2283 H2275 0.950 . S
C2283 C2281 1.327 . S
C2284 C2272 1.349 . S
C2284 H2278 0.950 . S
C2284 C2285 1.327 . S
C2285 H2279 0.950 . S
C2285 C2284 1.327 . S
C2285 C2289 1.429 . S
C2286 C2269 1.574 . S
C2286 H2280 0.949 . S
C2286 C2290 1.368 . S
C2287 C2268 1.429 . S
C2287 C2281 1.429 . S
C2287 C2288 1.523 . S
C2288 C2269 1.368 . S
C2288 C2282 1.368 . S
C2288 C2287 1.523 . S
C2289 C2273 1.429 . S
C2289 C2285 1.429 . S
C2289 C2290 1.523 . S
C2290 C2274 1.368 . S
C2290 C2286 1.368 . S
C2290 C2289 1.523 . S
H2291 C2266 0.950 . S
H2292 C2268 0.950 . S
H2293 C2269 0.949 . S
H2294 C2271 0.950 . S
H2295 C2273 0.950 . S
C2296 C2297 1.349 . S
C2296 C2298 1.327 . S
C2296 H2321 0.950 . S
C2297 C2296 1.349 . S
C2297 C2313 1.349 . S
C2298 C2296 1.327 . S
C2298 C2317 1.429 . S
C2298 H2322 0.950 . S
C2299 C2316 1.574 . S
C2299 C2318 1.368 . S
C2299 H2323 0.949 . S
H2300 C2304 0.949 . S
C2301 C2302 1.349 . S
C2301 C2303 1.327 . S
C2301 H2324 0.950 . S
C2302 C2301 1.349 . S
C2302 C2314 1.349 . S
C2303 C2301 1.327 . S
C2303 C2319 1.429 . S
C2303 H2325 0.950 . S
C2304 H2300 0.949 . S
C2304 C2312 1.574 . S
C2304 C2320 1.368 . S
H2305 C2313 0.950 . S
H2306 C2311 0.950 . S
H2307 C2312 0.949 . S
H2308 C2314 0.950 . S
H2309 C2315 0.950 . S
H2310 C2316 0.949 . S
C2311 H2306 0.950 . S
C2311 C2313 1.327 . S
C2311 C2317 1.429 . S
C2312 C2304 1.574 . S
C2312 H2307 0.949 . S
C2312 C2318 1.368 . S
C2313 C2297 1.349 . S
C2313 H2305 0.950 . S
C2313 C2311 1.327 . S
C2314 C2302 1.349 . S
C2314 H2308 0.950 . S
C2314 C2315 1.327 . S
C2315 H2309 0.950 . S
C2315 C2314 1.327 . S
C2315 C2319 1.429 . S
C2316 C2299 1.574 . S
C2316 H2310 0.949 . S
C2316 C2320 1.368 . S
C2317 C2298 1.429 . S
C2317 C2311 1.429 . S
C2317 C2318 1.523 . S
C2318 C2299 1.368 . S
C2318 C2312 1.368 . S
C2318 C2317 1.523 . S
C2319 C2303 1.429 . S
C2319 C2315 1.429 . S
C2319 C2320 1.523 . S
C2320 C2304 1.368 . S
C2320 C2316 1.368 . S
C2320 C2319 1.523 . S
H2321 C2296 0.950 . S
H2322 C2298 0.950 . S
H2323 C2299 0.949 . S
H2324 C2301 0.950 . S
H2325 C2303 0.950 . S
C2326 C2327 1.349 . S
C2326 C2328 1.327 . S
C2326 H2351 0.950 . S
C2327 C2326 1.349 . S
C2327 C2343 1.349 . S
C2328 C2326 1.327 . S
C2328 C2347 1.429 . S
C2328 H2352 0.944 1_565 S
C2329 C2346 1.574 . S
C2329 C2348 1.368 . S
C2329 H2353 0.949 . S
H2330 C2334 0.949 . S
C2331 C2332 1.349 1_565 S
C2331 C2333 1.327 . S
C2331 H2354 0.950 . S
C2332 C2331 1.349 1_545 S
C2332 C2344 1.349 . S
C2333 C2331 1.327 . S
C2333 C2349 1.429 . S
C2333 H2355 0.950 . S
C2334 H2330 0.949 . S
C2334 C2342 1.570 . S
C2334 C2350 1.368 1_545 S
H2335 C2343 0.950 . S
H2336 C2341 0.950 . S
H2337 C2342 0.946 . S
H2338 C2344 0.950 . S
H2339 C2345 0.950 . S
H2340 C2346 0.949 . S
C2341 H2336 0.950 . S
C2341 C2343 1.327 . S
C2341 C2347 1.429 . S
C2342 C2334 1.570 . S
C2342 H2337 0.946 . S
C2342 C2348 1.375 1_545 S
C2343 C2327 1.349 . S
C2343 H2335 0.950 . S
C2343 C2341 1.327 . S
C2344 C2332 1.349 . S
C2344 H2338 0.950 . S
C2344 C2345 1.327 . S
C2345 H2339 0.950 . S
C2345 C2344 1.327 . S
C2345 C2349 1.429 1_545 S
C2346 C2329 1.574 . S
C2346 H2340 0.949 . S
C2346 C2350 1.368 . S
C2347 C2328 1.429 . S
C2347 C2341 1.429 . S
C2347 C2348 1.523 . S
C2348 C2329 1.368 . S
C2348 C2342 1.375 1_565 S
C2348 C2347 1.523 . S
C2349 C2333 1.429 . S
C2349 C2345 1.429 1_565 S
C2349 C2350 1.523 . S
C2350 C2334 1.368 1_565 S
C2350 C2346 1.368 . S
C2350 C2349 1.523 . S
H2351 C2326 0.950 . S
H2352 C2328 0.944 1_545 S
H2353 C2329 0.949 . S
H2354 C2331 0.950 . S
H2355 C2333 0.950 . S
C2356 C2357 1.349 . S
C2356 C2358 1.327 . S
C2356 H2381 0.950 . S
C2357 C2356 1.349 . S
C2357 C2373 1.349 . S
C2358 C2356 1.327 . S
C2358 C2377 1.429 . S
C2358 H2382 0.950 . S
C2359 C2376 1.574 . S
C2359 C2378 1.368 . S
C2359 H2383 0.949 . S
H2360 C2364 0.949 . S
C2361 C2362 1.349 . S
C2361 C2363 1.327 . S
C2361 H2384 0.950 . S
C2362 C2361 1.349 . S
C2362 C2374 1.349 . S
C2363 C2361 1.327 . S
C2363 C2379 1.429 . S
C2363 H2385 0.950 . S
C2364 H2360 0.949 . S
C2364 C2372 1.574 . S
C2364 C2380 1.368 . S
H2365 C2373 0.950 . S
H2366 C2371 0.950 . S
H2367 C2372 0.949 . S
H2368 C2374 0.950 . S
H2369 C2375 0.950 . S
H2370 C2376 0.949 . S
C2371 H2366 0.950 . S
C2371 C2373 1.327 . S
C2371 C2377 1.429 . S
C2372 C2364 1.574 . S
C2372 H2367 0.949 . S
C2372 C2378 1.368 . S
C2373 C2357 1.349 . S
C2373 H2365 0.950 . S
C2373 C2371 1.327 . S
C2374 C2362 1.349 . S
C2374 H2368 0.950 . S
C2374 C2375 1.327 . S
C2375 H2369 0.950 . S
C2375 C2374 1.327 . S
C2375 C2379 1.429 . S
C2376 C2359 1.574 . S
C2376 H2370 0.949 . S
C2376 C2380 1.368 . S
C2377 C2358 1.429 . S
C2377 C2371 1.429 . S
C2377 C2378 1.523 . S
C2378 C2359 1.368 . S
C2378 C2372 1.368 . S
C2378 C2377 1.523 . S
C2379 C2363 1.429 . S
C2379 C2375 1.429 . S
C2379 C2380 1.523 . S
C2380 C2364 1.368 . S
C2380 C2376 1.368 . S
C2380 C2379 1.523 . S
H2381 C2356 0.950 . S
H2382 C2358 0.950 . S
H2383 C2359 0.949 . S
H2384 C2361 0.950 . S
H2385 C2363 0.950 . S
C2386 C2387 1.349 . S
C2386 C2388 1.327 . S
C2386 H2411 0.950 . S
C2387 C2386 1.349 . S
C2387 C2403 1.349 . S
C2388 C2386 1.327 . S
C2388 C2407 1.429 . S
C2388 H2412 0.950 . S
C2389 C2406 1.574 . S
C2389 C2408 1.368 . S
C2389 H2413 0.949 . S
H2390 C2394 0.949 . S
C2391 C2392 1.349 . S
C2391 C2393 1.327 . S
C2391 H2414 0.950 . S
C2392 C2391 1.349 . S
C2392 C2404 1.349 . S
C2393 C2391 1.327 . S
C2393 C2409 1.429 . S
C2393 H2415 0.950 . S
C2394 H2390 0.949 . S
C2394 C2402 1.574 . S
C2394 C2410 1.368 . S
H2395 C2403 0.950 . S
H2396 C2401 0.950 . S
H2397 C2402 0.949 . S
H2398 C2404 0.950 . S
H2399 C2405 0.950 . S
H2400 C2406 0.949 . S
C2401 H2396 0.950 . S
C2401 C2403 1.327 . S
C2401 C2407 1.429 . S
C2402 C2394 1.574 . S
C2402 H2397 0.949 . S
C2402 C2408 1.368 . S
C2403 C2387 1.349 . S
C2403 H2395 0.950 . S
C2403 C2401 1.327 . S
C2404 C2392 1.349 . S
C2404 H2398 0.950 . S
C2404 C2405 1.327 . S
C2405 H2399 0.950 . S
C2405 C2404 1.327 . S
C2405 C2409 1.429 . S
C2406 C2389 1.574 . S
C2406 H2400 0.949 . S
C2406 C2410 1.368 . S
C2407 C2388 1.429 . S
C2407 C2401 1.429 . S
C2407 C2408 1.523 . S
C2408 C2389 1.368 . S
C2408 C2402 1.368 . S
C2408 C2407 1.523 . S
C2409 C2393 1.429 . S
C2409 C2405 1.429 . S
C2409 C2410 1.523 . S
C2410 C2394 1.368 . S
C2410 C2406 1.368 . S
C2410 C2409 1.523 . S
H2411 C2386 0.950 . S
H2412 C2388 0.950 . S
H2413 C2389 0.949 . S
H2414 C2391 0.950 . S
H2415 C2393 0.950 . S
C2416 C2417 1.349 . S
C2416 C2418 1.327 . S
C2416 H2441 0.950 . S
C2417 C2416 1.349 . S
C2417 C2433 1.349 . S
C2418 C2416 1.327 . S
C2418 C2437 1.429 . S
C2418 H2442 0.950 . S
C2419 C2436 1.574 . S
C2419 C2438 1.368 . S
C2419 H2443 0.949 . S
H2420 C2424 0.949 . S
C2421 C2422 1.349 . S
C2421 C2423 1.327 . S
C2421 H2444 0.950 . S
C2422 C2421 1.349 . S
C2422 C2434 1.349 . S
C2423 C2421 1.327 . S
C2423 C2439 1.429 . S
C2423 H2445 0.950 . S
C2424 H2420 0.949 . S
C2424 C2432 1.574 . S
C2424 C2440 1.368 . S
H2425 C2433 0.950 . S
H2426 C2431 0.950 . S
H2427 C2432 0.949 . S
H2428 C2434 0.950 . S
H2429 C2435 0.950 . S
H2430 C2436 0.949 . S
C2431 H2426 0.950 . S
C2431 C2433 1.327 . S
C2431 C2437 1.429 . S
C2432 C2424 1.574 . S
C2432 H2427 0.949 . S
C2432 C2438 1.368 . S
C2433 C2417 1.349 . S
C2433 H2425 0.950 . S
C2433 C2431 1.327 . S
C2434 C2422 1.349 . S
C2434 H2428 0.950 . S
C2434 C2435 1.327 . S
C2435 H2429 0.950 . S
C2435 C2434 1.327 . S
C2435 C2439 1.429 . S
C2436 C2419 1.574 . S
C2436 H2430 0.949 . S
C2436 C2440 1.368 . S
C2437 C2418 1.429 . S
C2437 C2431 1.429 . S
C2437 C2438 1.523 . S
C2438 C2419 1.368 . S
C2438 C2432 1.368 . S
C2438 C2437 1.523 . S
C2439 C2423 1.429 . S
C2439 C2435 1.429 . S
C2439 C2440 1.523 . S
C2440 C2424 1.368 . S
C2440 C2436 1.368 . S
C2440 C2439 1.523 . S
H2441 C2416 0.950 . S
H2442 C2418 0.950 . S
H2443 C2419 0.949 . S
H2444 C2421 0.950 . S
H2445 C2423 0.950 . S
C2446 C2447 1.349 . S
C2446 C2448 1.327 . S
C2446 H2471 0.950 . S
C2447 C2446 1.349 . S
C2447 C2463 1.349 . S
C2448 C2446 1.327 . S
C2448 C2467 1.429 . S
C2448 H2472 0.950 . S
C2449 C2466 1.574 . S
C2449 C2468 1.368 . S
C2449 H2473 0.949 . S
H2450 C2454 0.949 . S
C2451 C2452 1.349 . S
C2451 C2453 1.327 . S
C2451 H2474 0.950 . S
C2452 C2451 1.349 . S
C2452 C2464 1.349 . S
C2453 C2451 1.327 . S
C2453 C2469 1.429 . S
C2453 H2475 0.950 . S
C2454 H2450 0.949 . S
C2454 C2462 1.574 . S
C2454 C2470 1.368 . S
H2455 C2463 0.950 . S
H2456 C2461 0.950 . S
H2457 C2462 0.949 . S
H2458 C2464 0.950 . S
H2459 C2465 0.950 . S
H2460 C2466 0.949 . S
C2461 H2456 0.950 . S
C2461 C2463 1.327 . S
C2461 C2467 1.429 . S
C2462 C2454 1.574 . S
C2462 H2457 0.949 . S
C2462 C2468 1.368 . S
C2463 C2447 1.349 . S
C2463 H2455 0.950 . S
C2463 C2461 1.327 . S
C2464 C2452 1.349 . S
C2464 H2458 0.950 . S
C2464 C2465 1.327 . S
C2465 H2459 0.950 . S
C2465 C2464 1.327 . S
C2465 C2469 1.429 . S
C2466 C2449 1.574 . S
C2466 H2460 0.949 . S
C2466 C2470 1.368 . S
C2467 C2448 1.429 . S
C2467 C2461 1.429 . S
C2467 C2468 1.523 . S
C2468 C2449 1.368 . S
C2468 C2462 1.368 . S
C2468 C2467 1.523 . S
C2469 C2453 1.429 . S
C2469 C2465 1.429 . S
C2469 C2470 1.523 . S
C2470 C2454 1.368 . S
C2470 C2466 1.368 . S
C2470 C2469 1.523 . S
H2471 C2446 0.950 . S
H2472 C2448 0.950 . S
H2473 C2449 0.949 . S
H2474 C2451 0.950 . S
H2475 C2453 0.950 . S
C2476 C2477 1.349 . S
C2476 C2478 1.327 . S
C2476 H2501 0.950 . S
C2477 C2476 1.349 . S
C2477 C2493 1.349 . S
C2478 C2476 1.327 . S
C2478 C2497 1.429 . S
C2478 H2502 0.950 . S
C2479 C2496 1.574 . S
C2479 C2498 1.368 . S
C2479 H2503 0.949 . S
H2480 C2484 0.949 1_554 S
C2481 C2482 1.349 . S
C2481 C2483 1.327 1_554 S
C2481 H2504 0.996 . S
C2482 C2481 1.349 . S
C2482 C2494 1.349 . S
C2483 C2481 1.327 1_556 S
C2483 C2499 1.429 1_556 S
C2483 H2505 0.950 . S
C2484 H2480 0.949 1_556 S
C2484 C2492 1.574 . S
C2484 C2500 1.368 . S
H2485 C2493 0.950 . S
H2486 C2491 0.950 . S
H2487 C2492 0.949 . S
H2488 C2494 0.950 . S
H2489 C2495 0.950 . S
H2490 C2496 0.949 . S
C2491 H2486 0.950 . S
C2491 C2493 1.327 . S
C2491 C2497 1.429 . S
C2492 C2484 1.574 . S
C2492 H2487 0.949 . S
C2492 C2498 1.368 . S
C2493 C2477 1.349 . S
C2493 H2485 0.950 . S
C2493 C2491 1.327 . S
C2494 C2482 1.349 . S
C2494 H2488 0.950 . S
C2494 C2495 1.327 . S
C2495 H2489 0.950 . S
C2495 C2494 1.327 . S
C2495 C2499 1.429 . S
C2496 C2479 1.574 . S
C2496 H2490 0.949 . S
C2496 C2500 1.368 . S
C2497 C2478 1.429 . S
C2497 C2491 1.429 . S
C2497 C2498 1.523 . S
C2498 C2479 1.368 . S
C2498 C2492 1.368 . S
C2498 C2497 1.523 . S
C2499 C2483 1.429 1_554 S
C2499 C2495 1.429 . S
C2499 C2500 1.523 1_554 S
C2500 C2484 1.368 . S
C2500 C2496 1.368 . S
C2500 C2499 1.523 1_556 S
H2501 C2476 0.950 . S
H2502 C2478 0.950 . S
H2503 C2479 0.949 . S
H2504 C2481 0.996 . S
H2505 C2483 0.950 . S
C2506 C2507 1.349 . S
C2506 C2508 1.327 . S
C2506 H2531 0.950 . S
C2507 C2506 1.349 . S
C2507 C2523 1.349 . S
C2508 C2506 1.327 . S
C2508 C2527 1.429 . S
C2508 H2532 0.950 . S
C2509 C2526 1.574 . S
C2509 C2528 1.368 . S
C2509 H2533 0.949 . S
H2510 C2514 0.949 . S
C2511 C2512 1.349 . S
C2511 C2513 1.327 . S
C2511 H2534 0.950 . S
C2512 C2511 1.349 . S
C2512 C2524 1.349 . S
C2513 C2511 1.327 . S
C2513 C2529 1.429 . S
C2513 H2535 0.950 . S
C2514 H2510 0.949 . S
C2514 C2522 1.574 . S
C2514 C2530 1.368 . S
H2515 C2523 0.950 . S
H2516 C2521 0.950 . S
H2517 C2522 0.949 . S
H2518 C2524 0.950 . S
H2519 C2525 0.950 . S
H2520 C2526 0.949 . S
C2521 H2516 0.950 . S
C2521 C2523 1.327 . S
C2521 C2527 1.429 . S
C2522 C2514 1.574 . S
C2522 H2517 0.949 . S
C2522 C2528 1.368 . S
C2523 C2507 1.349 . S
C2523 H2515 0.950 . S
C2523 C2521 1.327 . S
C2524 C2512 1.349 . S
C2524 H2518 0.950 . S
C2524 C2525 1.327 . S
C2525 H2519 0.950 . S
C2525 C2524 1.327 . S
C2525 C2529 1.429 . S
C2526 C2509 1.574 . S
C2526 H2520 0.949 . S
C2526 C2530 1.368 . S
C2527 C2508 1.429 . S
C2527 C2521 1.429 . S
C2527 C2528 1.523 . S
C2528 C2509 1.368 . S
C2528 C2522 1.368 . S
C2528 C2527 1.523 . S
C2529 C2513 1.429 . S
C2529 C2525 1.429 . S
C2529 C2530 1.523 . S
C2530 C2514 1.368 . S
C2530 C2526 1.368 . S
C2530 C2529 1.523 . S
H2531 C2506 0.950 . S
H2532 C2508 0.950 . S
H2533 C2509 0.949 . S
H2534 C2511 0.950 . S
H2535 C2513 0.950 . S
C2536 C2537 1.349 . S
C2536 C2538 1.327 . S
C2536 H2561 0.950 . S
C2537 C2536 1.349 . S
C2537 C2553 1.349 . S
C2538 C2536 1.327 . S
C2538 C2557 1.429 . S
C2538 H2562 0.950 . S
C2539 C2556 1.574 . S
C2539 C2558 1.368 . S
C2539 H2563 0.949 . S
H2540 C2544 0.949 . S
C2541 C2542 1.349 . S
C2541 C2543 1.327 . S
C2541 H2564 0.950 . S
C2542 C2541 1.349 . S
C2542 C2554 1.349 . S
C2543 C2541 1.327 . S
C2543 C2559 1.429 . S
C2543 H2565 0.950 . S
C2544 H2540 0.949 . S
C2544 C2552 1.574 . S
C2544 C2560 1.368 . S
H2545 C2553 0.950 . S
H2546 C2551 0.950 . S
H2547 C2552 0.949 . S
H2548 C2554 0.950 . S
H2549 C2555 0.950 . S
H2550 C2556 0.949 . S
C2551 H2546 0.950 . S
C2551 C2553 1.327 . S
C2551 C2557 1.429 . S
C2552 C2544 1.574 . S
C2552 H2547 0.949 . S
C2552 C2558 1.368 . S
C2553 C2537 1.349 . S
C2553 H2545 0.950 . S
C2553 C2551 1.327 . S
C2554 C2542 1.349 . S
C2554 H2548 0.950 . S
C2554 C2555 1.327 . S
C2555 H2549 0.950 . S
C2555 C2554 1.327 . S
C2555 C2559 1.429 . S
C2556 C2539 1.574 . S
C2556 H2550 0.949 . S
C2556 C2560 1.368 . S
C2557 C2538 1.429 . S
C2557 C2551 1.429 . S
C2557 C2558 1.523 . S
C2558 C2539 1.368 . S
C2558 C2552 1.368 . S
C2558 C2557 1.523 . S
C2559 C2543 1.429 . S
C2559 C2555 1.429 . S
C2559 C2560 1.523 . S
C2560 C2544 1.368 . S
C2560 C2556 1.368 . S
C2560 C2559 1.523 . S
H2561 C2536 0.950 . S
H2562 C2538 0.950 . S
H2563 C2539 0.949 . S
H2564 C2541 0.950 . S
H2565 C2543 0.950 . S
C2566 C2567 1.349 . S
C2566 C2568 1.327 1_455 S
C2566 H2591 0.950 . S
C2567 C2566 1.349 . S
C2567 C2583 1.349 1_455 S
C2568 C2566 1.327 1_655 S
C2568 C2587 1.429 . S
C2568 H2592 0.950 . S
C2569 C2586 1.574 . S
C2569 C2588 1.368 . S
C2569 H2593 0.949 . S
H2570 C2574 0.949 . S
C2571 C2572 1.349 . S
C2571 C2573 1.327 . S
C2571 H2594 0.950 . S
C2572 C2571 1.349 . S
C2572 C2584 1.349 . S
C2573 C2571 1.327 . S
C2573 C2589 1.429 . S
C2573 H2595 0.950 . S
C2574 H2570 0.949 . S
C2574 C2582 1.574 . S
C2574 C2590 1.368 . S
H2575 C2583 0.950 . S
H2576 C2581 0.950 . S
H2577 C2582 0.949 . S
H2578 C2584 0.950 . S
H2579 C2585 0.950 . S
H2580 C2586 0.949 . S
C2581 H2576 0.950 . S
C2581 C2583 1.327 . S
C2581 C2587 1.429 . S
C2582 C2574 1.574 . S
C2582 H2577 0.949 . S
C2582 C2588 1.368 . S
C2583 C2567 1.349 1_655 S
C2583 H2575 0.950 . S
C2583 C2581 1.327 . S
C2584 C2572 1.349 . S
C2584 H2578 0.950 . S
C2584 C2585 1.327 . S
C2585 H2579 0.950 . S
C2585 C2584 1.327 . S
C2585 C2589 1.429 . S
C2586 C2569 1.574 . S
C2586 H2580 0.949 . S
C2586 C2590 1.368 . S
C2587 C2568 1.429 . S
C2587 C2581 1.429 . S
C2587 C2588 1.523 . S
C2588 C2569 1.368 . S
C2588 C2582 1.368 . S
C2588 C2587 1.523 . S
C2589 C2573 1.429 . S
C2589 C2585 1.429 . S
C2589 C2590 1.523 . S
C2590 C2574 1.368 . S
C2590 C2586 1.368 . S
C2590 C2589 1.523 . S
H2591 C2566 0.950 . S
H2592 C2568 0.950 . S
H2593 C2569 0.949 . S
H2594 C2571 0.950 . S
H2595 C2573 0.950 . S
C2596 C2597 1.349 . S
C2596 C2598 1.327 . S
C2596 H2621 0.950 . S
C2597 C2596 1.349 . S
C2597 C2613 1.349 1_655 S
C2598 C2596 1.327 . S
C2598 C2617 1.429 . S
C2598 H2622 0.950 . S
C2599 C2616 1.574 . S
C2599 C2618 1.368 . S
C2599 H2623 0.949 . S
H2600 C2604 0.949 . S
C2601 C2602 1.349 . S
C2601 C2603 1.327 . S
C2601 H2624 0.950 . S
C2602 C2601 1.349 . S
C2602 C2614 1.349 1_455 S
C2603 C2601 1.327 . S
C2603 C2619 1.429 . S
C2603 H2625 0.950 . S
C2604 H2600 0.949 . S
C2604 C2612 1.574 . S
C2604 C2620 1.368 1_655 S
H2605 C2613 0.950 . S
H2606 C2611 0.950 . S
H2607 C2612 0.949 . S
H2608 C2614 0.950 . S
H2609 C2615 0.950 . S
H2610 C2616 0.949 . S
C2611 H2606 0.950 . S
C2611 C2613 1.327 . S
C2611 C2617 1.429 1_455 S
C2612 C2604 1.574 . S
C2612 H2607 0.949 . S
C2612 C2618 1.368 1_655 S
C2613 C2597 1.349 1_455 S
C2613 H2605 0.950 . S
C2613 C2611 1.327 . S
C2614 C2602 1.349 1_655 S
C2614 H2608 0.950 . S
C2614 C2615 1.327 . S
C2615 H2609 0.950 . S
C2615 C2614 1.327 . S
C2615 C2619 1.429 1_655 S
C2616 C2599 1.574 . S
C2616 H2610 0.949 . S
C2616 C2620 1.368 . S
C2617 C2598 1.429 . S
C2617 C2611 1.429 1_655 S
C2617 C2618 1.523 1_655 S
C2618 C2599 1.368 . S
C2618 C2612 1.368 1_455 S
C2618 C2617 1.523 1_455 S
C2619 C2603 1.429 . S
C2619 C2615 1.429 1_455 S
C2619 C2620 1.523 . S
C2620 C2604 1.368 1_455 S
C2620 C2616 1.368 . S
C2620 C2619 1.523 . S
H2621 C2596 0.950 . S
H2622 C2598 0.950 . S
H2623 C2599 0.949 . S
H2624 C2601 0.950 . S
H2625 C2603 0.950 . S
C2626 C2627 1.349 . S
C2626 C2628 1.327 . S
C2626 H2651 0.950 . S
C2627 C2626 1.349 . S
C2627 C2643 1.349 . S
C2628 C2626 1.327 . S
C2628 C2647 1.429 . S
C2628 H2652 0.950 . S
C2629 C2646 1.574 . S
C2629 C2648 1.368 . S
C2629 H2653 0.949 . S
H2630 C2634 0.949 . S
C2631 C2632 1.349 . S
C2631 C2633 1.327 . S
C2631 H2654 0.950 . S
C2632 C2631 1.349 . S
C2632 C2644 1.349 . S
C2633 C2631 1.327 . S
C2633 C2649 1.429 . S
C2633 H2655 0.950 . S
C2634 H2630 0.949 . S
C2634 C2642 1.574 . S
C2634 C2650 1.368 . S
H2635 C2643 0.950 . S
H2636 C2641 0.950 . S
H2637 C2642 0.949 . S
H2638 C2644 0.950 . S
H2639 C2645 0.950 . S
H2640 C2646 0.949 . S
C2641 H2636 0.950 . S
C2641 C2643 1.327 . S
C2641 C2647 1.429 . S
C2642 C2634 1.574 . S
C2642 H2637 0.949 . S
C2642 C2648 1.368 . S
C2643 C2627 1.349 . S
C2643 H2635 0.950 . S
C2643 C2641 1.327 . S
C2644 C2632 1.349 . S
C2644 H2638 0.950 . S
C2644 C2645 1.327 . S
C2645 H2639 0.950 . S
C2645 C2644 1.327 . S
C2645 C2649 1.429 . S
C2646 C2629 1.574 . S
C2646 H2640 0.949 . S
C2646 C2650 1.368 . S
C2647 C2628 1.429 . S
C2647 C2641 1.429 . S
C2647 C2648 1.523 . S
C2648 C2629 1.368 . S
C2648 C2642 1.368 . S
C2648 C2647 1.523 . S
C2649 C2633 1.429 . S
C2649 C2645 1.429 . S
C2649 C2650 1.523 . S
C2650 C2634 1.368 . S
C2650 C2646 1.368 . S
C2650 C2649 1.523 . S
H2651 C2626 0.950 . S
H2652 C2628 0.950 . S
H2653 C2629 0.949 . S
H2654 C2631 0.950 . S
H2655 C2633 0.950 . S
C2656 C2657 1.349 . S
C2656 C2658 1.327 . S
C2656 H2681 0.950 . S
C2657 C2656 1.349 . S
C2657 C2673 1.349 . S
C2658 C2656 1.327 . S
C2658 C2677 1.429 . S
C2658 H2682 0.950 . S
C2659 C2676 1.574 . S
C2659 C2678 1.368 . S
C2659 H2683 0.949 . S
H2660 C2664 0.949 . S
C2661 C2662 1.349 . S
C2661 C2663 1.327 . S
C2661 H2684 0.950 . S
C2662 C2661 1.349 . S
C2662 C2674 1.349 . S
C2663 C2661 1.327 . S
C2663 C2679 1.429 . S
C2663 H2685 0.950 . S
C2664 H2660 0.949 . S
C2664 C2672 1.574 . S
C2664 C2680 1.368 . S
H2665 C2673 0.950 . S
H2666 C2671 0.950 . S
H2667 C2672 0.949 . S
H2668 C2674 0.950 . S
H2669 C2675 0.950 . S
H2670 C2676 0.949 . S
C2671 H2666 0.950 . S
C2671 C2673 1.327 . S
C2671 C2677 1.429 . S
C2672 C2664 1.574 . S
C2672 H2667 0.949 . S
C2672 C2678 1.368 . S
C2673 C2657 1.349 . S
C2673 H2665 0.950 . S
C2673 C2671 1.327 . S
C2674 C2662 1.349 . S
C2674 H2668 0.950 . S
C2674 C2675 1.327 . S
C2675 H2669 0.950 . S
C2675 C2674 1.327 . S
C2675 C2679 1.429 . S
C2676 C2659 1.574 . S
C2676 H2670 0.949 . S
C2676 C2680 1.368 . S
C2677 C2658 1.429 . S
C2677 C2671 1.429 . S
C2677 C2678 1.523 . S
C2678 C2659 1.368 . S
C2678 C2672 1.368 . S
C2678 C2677 1.523 . S
C2679 C2663 1.429 . S
C2679 C2675 1.429 . S
C2679 C2680 1.523 . S
C2680 C2664 1.368 . S
C2680 C2676 1.368 . S
C2680 C2679 1.523 . S
H2681 C2656 0.950 . S
H2682 C2658 0.950 . S
H2683 C2659 0.949 . S
H2684 C2661 0.950 . S
H2685 C2663 0.950 . S
C2686 C2687 1.349 . S
C2686 C2688 1.327 . S
C2686 H2711 0.950 . S
C2687 C2686 1.349 . S
C2687 C2703 1.349 . S
C2688 C2686 1.327 . S
C2688 C2707 1.429 . S
C2688 H2712 0.950 . S
C2689 C2706 1.574 . S
C2689 C2708 1.368 . S
C2689 H2713 0.949 . S
H2690 C2694 0.949 . S
C2691 C2692 1.349 . S
C2691 C2693 1.327 . S
C2691 H2714 0.950 . S
C2692 C2691 1.349 . S
C2692 C2704 1.349 . S
C2693 C2691 1.327 . S
C2693 C2709 1.429 . S
C2693 H2715 0.950 . S
C2694 H2690 0.949 . S
C2694 C2702 1.574 . S
C2694 C2710 1.368 . S
H2695 C2703 0.950 . S
H2696 C2701 0.950 . S
H2697 C2702 0.949 . S
H2698 C2704 0.950 . S
H2699 C2705 0.950 . S
H2700 C2706 0.949 . S
C2701 H2696 0.950 . S
C2701 C2703 1.327 . S
C2701 C2707 1.429 . S
C2702 C2694 1.574 . S
C2702 H2697 0.949 . S
C2702 C2708 1.368 . S
C2703 C2687 1.349 . S
C2703 H2695 0.950 . S
C2703 C2701 1.327 . S
C2704 C2692 1.349 . S
C2704 H2698 0.950 . S
C2704 C2705 1.327 . S
C2705 H2699 0.950 . S
C2705 C2704 1.327 . S
C2705 C2709 1.429 . S
C2706 C2689 1.574 . S
C2706 H2700 0.949 . S
C2706 C2710 1.368 . S
C2707 C2688 1.429 . S
C2707 C2701 1.429 . S
C2707 C2708 1.523 . S
C2708 C2689 1.368 . S
C2708 C2702 1.368 . S
C2708 C2707 1.523 . S
C2709 C2693 1.429 . S
C2709 C2705 1.429 . S
C2709 C2710 1.523 . S
C2710 C2694 1.368 . S
C2710 C2706 1.368 . S
C2710 C2709 1.523 . S
H2711 C2686 0.950 . S
H2712 C2688 0.950 . S
H2713 C2689 0.949 . S
H2714 C2691 0.950 . S
H2715 C2693 0.950 . S
C2716 C2717 1.349 . S
C2716 C2718 1.327 . S
C2716 H2741 0.950 . S
C2717 C2716 1.349 . S
C2717 C2733 1.349 . S
C2718 C2716 1.327 . S
C2718 C2737 1.429 . S
C2718 H2742 0.950 . S
C2719 C2736 1.574 . S
C2719 C2738 1.368 . S
C2719 H2743 0.949 . S
H2720 C2724 0.949 . S
C2721 C2722 1.349 . S
C2721 C2723 1.327 . S
C2721 H2744 0.950 . S
C2722 C2721 1.349 . S
C2722 C2734 1.349 . S
C2723 C2721 1.327 . S
C2723 C2739 1.429 . S
C2723 H2745 0.950 . S
C2724 H2720 0.949 . S
C2724 C2732 1.574 . S
C2724 C2740 1.368 . S
H2725 C2733 0.950 . S
H2726 C2731 0.950 . S
H2727 C2732 0.949 . S
H2728 C2734 0.950 . S
H2729 C2735 0.950 . S
H2730 C2736 0.949 . S
C2731 H2726 0.950 . S
C2731 C2733 1.327 . S
C2731 C2737 1.429 . S
C2732 C2724 1.574 . S
C2732 H2727 0.949 . S
C2732 C2738 1.368 . S
C2733 C2717 1.349 . S
C2733 H2725 0.950 . S
C2733 C2731 1.327 . S
C2734 C2722 1.349 . S
C2734 H2728 0.950 . S
C2734 C2735 1.327 . S
C2735 H2729 0.950 . S
C2735 C2734 1.327 . S
C2735 C2739 1.429 . S
C2736 C2719 1.574 . S
C2736 H2730 0.949 . S
C2736 C2740 1.368 . S
C2737 C2718 1.429 . S
C2737 C2731 1.429 . S
C2737 C2738 1.523 . S
C2738 C2719 1.368 . S
C2738 C2732 1.368 . S
C2738 C2737 1.523 . S
C2739 C2723 1.429 . S
C2739 C2735 1.429 . S
C2739 C2740 1.523 . S
C2740 C2724 1.368 . S
C2740 C2736 1.368 . S
C2740 C2739 1.523 . S
H2741 C2716 0.950 . S
H2742 C2718 0.950 . S
H2743 C2719 0.949 . S
H2744 C2721 0.950 . S
H2745 C2723 0.950 . S
C2746 C2747 1.349 . S
C2746 C2748 1.327 . S
C2746 H2771 0.950 . S
C2747 C2746 1.349 . S
C2747 C2763 1.349 . S
C2748 C2746 1.327 . S
C2748 C2767 1.429 . S
C2748 H2772 0.950 . S
C2749 C2766 1.574 . S
C2749 C2768 1.368 . S
C2749 H2773 0.949 . S
H2750 C2754 0.949 . S
C2751 C2752 1.349 . S
C2751 C2753 1.327 . S
C2751 H2774 0.950 . S
C2752 C2751 1.349 . S
C2752 C2764 1.349 . S
C2753 C2751 1.327 . S
C2753 C2769 1.429 . S
C2753 H2775 0.950 . S
C2754 H2750 0.949 . S
C2754 C2762 1.574 . S
C2754 C2770 1.368 . S
H2755 C2763 0.950 . S
H2756 C2761 0.950 . S
H2757 C2762 0.949 . S
H2758 C2764 0.950 . S
H2759 C2765 0.950 . S
H2760 C2766 0.949 . S
C2761 H2756 0.950 . S
C2761 C2763 1.327 . S
C2761 C2767 1.429 . S
C2762 C2754 1.574 . S
C2762 H2757 0.949 . S
C2762 C2768 1.368 . S
C2763 C2747 1.349 . S
C2763 H2755 0.950 . S
C2763 C2761 1.327 . S
C2764 C2752 1.349 . S
C2764 H2758 0.950 . S
C2764 C2765 1.327 . S
C2765 H2759 0.950 . S
C2765 C2764 1.327 . S
C2765 C2769 1.429 . S
C2766 C2749 1.574 . S
C2766 H2760 0.949 . S
C2766 C2770 1.368 . S
C2767 C2748 1.429 . S
C2767 C2761 1.429 . S
C2767 C2768 1.523 . S
C2768 C2749 1.368 . S
C2768 C2762 1.368 . S
C2768 C2767 1.523 . S
C2769 C2753 1.429 . S
C2769 C2765 1.429 . S
C2769 C2770 1.523 . S
C2770 C2754 1.368 . S
C2770 C2766 1.368 . S
C2770 C2769 1.523 . S
H2771 C2746 0.950 . S
H2772 C2748 0.950 . S
H2773 C2749 0.949 . S
H2774 C2751 0.950 . S
H2775 C2753 0.950 . S
C2776 C2777 1.349 . S
C2776 C2778 1.327 . S
C2776 H2801 0.950 . S
C2777 C2776 1.349 . S
C2777 C2793 1.349 . S
C2778 C2776 1.327 . S
C2778 C2797 1.429 . S
C2778 H2802 0.950 . S
C2779 C2796 1.574 . S
C2779 C2798 1.368 . S
C2779 H2803 0.949 . S
H2780 C2784 0.949 . S
C2781 C2782 1.349 . S
C2781 C2783 1.327 . S
C2781 H2804 0.945 . S
C2782 C2781 1.349 . S
C2782 C2794 1.349 . S
C2783 C2781 1.327 . S
C2783 C2799 1.429 . S
C2783 H2805 0.950 . S
C2784 H2780 0.949 . S
C2784 C2792 1.574 . S
C2784 C2800 1.368 . S
H2785 C2793 0.950 . S
H2786 C2791 0.950 . S
H2787 C2792 0.949 . S
H2788 C2794 0.950 . S
H2789 C2795 0.950 . S
H2790 C2796 0.949 . S
C2791 H2786 0.950 . S
C2791 C2793 1.327 . S
C2791 C2797 1.429 . S
C2792 C2784 1.574 . S
C2792 H2787 0.949 . S
C2792 C2798 1.368 . S
C2793 C2777 1.349 . S
C2793 H2785 0.950 . S
C2793 C2791 1.327 . S
C2794 C2782 1.349 . S
C2794 H2788 0.950 . S
C2794 C2795 1.327 . S
C2795 H2789 0.950 . S
C2795 C2794 1.327 . S
C2795 C2799 1.429 . S
C2796 C2779 1.574 . S
C2796 H2790 0.949 . S
C2796 C2800 1.368 . S
C2797 C2778 1.429 . S
C2797 C2791 1.429 . S
C2797 C2798 1.523 . S
C2798 C2779 1.368 . S
C2798 C2792 1.368 . S
C2798 C2797 1.523 . S
C2799 C2783 1.429 . S
C2799 C2795 1.429 . S
C2799 C2800 1.523 . S
C2800 C2784 1.368 . S
C2800 C2796 1.368 . S
C2800 C2799 1.523 . S
H2801 C2776 0.950 . S
H2802 C2778 0.950 . S
H2803 C2779 0.949 . S
H2804 C2781 0.945 . S
H2805 C2783 0.950 . S
C2806 C2807 1.349 . S
C2806 C2808 1.327 . S
C2806 H2831 0.950 . S
C2807 C2806 1.349 . S
C2807 C2823 1.349 . S
C2808 C2806 1.327 . S
C2808 C2827 1.429 . S
C2808 H2832 0.950 . S
C2809 C2826 1.574 . S
C2809 C2828 1.368 . S
C2809 H2833 0.949 . S
H2810 C2814 0.949 . S
C2811 C2812 1.349 . S
C2811 C2813 1.327 . S
C2811 H2834 0.950 . S
C2812 C2811 1.349 . S
C2812 C2824 1.349 . S
C2813 C2811 1.327 . S
C2813 C2829 1.429 . S
C2813 H2835 0.950 . S
C2814 H2810 0.949 . S
C2814 C2822 1.574 . S
C2814 C2830 1.368 . S
H2815 C2823 0.950 . S
H2816 C2821 0.950 . S
H2817 C2822 0.949 . S
H2818 C2824 0.950 . S
H2819 C2825 0.950 . S
H2820 C2826 0.949 . S
C2821 H2816 0.950 . S
C2821 C2823 1.327 . S
C2821 C2827 1.429 . S
C2822 C2814 1.574 . S
C2822 H2817 0.949 . S
C2822 C2828 1.368 . S
C2823 C2807 1.349 . S
C2823 H2815 0.950 . S
C2823 C2821 1.327 . S
C2824 C2812 1.349 . S
C2824 H2818 0.950 . S
C2824 C2825 1.327 . S
C2825 H2819 0.950 . S
C2825 C2824 1.327 . S
C2825 C2829 1.429 . S
C2826 C2809 1.574 . S
C2826 H2820 0.949 . S
C2826 C2830 1.368 . S
C2827 C2808 1.429 . S
C2827 C2821 1.429 . S
C2827 C2828 1.523 . S
C2828 C2809 1.368 . S
C2828 C2822 1.368 . S
C2828 C2827 1.523 . S
C2829 C2813 1.429 . S
C2829 C2825 1.429 . S
C2829 C2830 1.523 . S
C2830 C2814 1.368 . S
C2830 C2826 1.368 . S
C2830 C2829 1.523 . S
H2831 C2806 0.950 . S
H2832 C2808 0.950 . S
H2833 C2809 0.949 . S
H2834 C2811 0.950 . S
H2835 C2813 0.950 . S
C2836 C2837 1.349 . S
C2836 C2838 1.327 . S
C2836 H2861 0.950 . S
C2837 C2836 1.349 . S
C2837 C2853 1.349 . S
C2838 C2836 1.327 . S
C2838 C2857 1.429 . S
C2838 H2862 0.950 . S
C2839 C2856 1.574 . S
C2839 C2858 1.368 . S
C2839 H2863 0.949 . S
H2840 C2844 0.949 . S
C2841 C2842 1.349 . S
C2841 C2843 1.327 . S
C2841 H2864 0.950 . S
C2842 C2841 1.349 . S
C2842 C2854 1.349 . S
C2843 C2841 1.327 . S
C2843 C2859 1.429 . S
C2843 H2865 0.950 . S
C2844 H2840 0.949 . S
C2844 C2852 1.574 . S
C2844 C2860 1.368 . S
H2845 C2853 0.950 . S
H2846 C2851 0.950 . S
H2847 C2852 0.949 . S
H2848 C2854 0.950 . S
H2849 C2855 0.950 . S
H2850 C2856 0.949 . S
C2851 H2846 0.950 . S
C2851 C2853 1.327 . S
C2851 C2857 1.429 . S
C2852 C2844 1.574 . S
C2852 H2847 0.949 . S
C2852 C2858 1.368 . S
C2853 C2837 1.349 . S
C2853 H2845 0.950 . S
C2853 C2851 1.327 . S
C2854 C2842 1.349 . S
C2854 H2848 0.950 . S
C2854 C2855 1.327 . S
C2855 H2849 0.950 . S
C2855 C2854 1.327 . S
C2855 C2859 1.429 . S
C2856 C2839 1.574 . S
C2856 H2850 0.949 . S
C2856 C2860 1.368 . S
C2857 C2838 1.429 . S
C2857 C2851 1.429 . S
C2857 C2858 1.523 . S
C2858 C2839 1.368 . S
C2858 C2852 1.368 . S
C2858 C2857 1.523 . S
C2859 C2843 1.429 . S
C2859 C2855 1.429 . S
C2859 C2860 1.523 . S
C2860 C2844 1.368 . S
C2860 C2856 1.368 . S
C2860 C2859 1.523 . S
H2861 C2836 0.950 . S
H2862 C2838 0.950 . S
H2863 C2839 0.949 . S
H2864 C2841 0.950 . S
H2865 C2843 0.950 . S
C2866 C2867 1.349 . S
C2866 C2868 1.327 . S
C2866 H2891 0.950 . S
C2867 C2866 1.349 . S
C2867 C2883 1.349 . S
C2868 C2866 1.327 . S
C2868 C2887 1.429 . S
C2868 H2892 0.950 . S
C2869 C2886 1.574 . S
C2869 C2888 1.368 . S
C2869 H2893 0.949 . S
H2870 C2874 0.949 . S
C2871 C2872 1.349 . S
C2871 C2873 1.327 . S
C2871 H2894 0.950 . S
C2872 C2871 1.349 . S
C2872 C2884 1.349 . S
C2873 C2871 1.327 . S
C2873 C2889 1.429 . S
C2873 H2895 0.950 . S
C2874 H2870 0.949 . S
C2874 C2882 1.574 . S
C2874 C2890 1.368 . S
H2875 C2883 0.950 . S
H2876 C2881 0.950 . S
H2877 C2882 0.949 . S
H2878 C2884 0.950 . S
H2879 C2885 0.950 . S
H2880 C2886 0.949 . S
C2881 H2876 0.950 . S
C2881 C2883 1.327 . S
C2881 C2887 1.429 . S
C2882 C2874 1.574 . S
C2882 H2877 0.949 . S
C2882 C2888 1.368 . S
C2883 C2867 1.349 . S
C2883 H2875 0.950 . S
C2883 C2881 1.327 . S
C2884 C2872 1.349 . S
C2884 H2878 0.950 . S
C2884 C2885 1.327 . S
C2885 H2879 0.950 . S
C2885 C2884 1.327 . S
C2885 C2889 1.429 . S
C2886 C2869 1.574 . S
C2886 H2880 0.949 . S
C2886 C2890 1.368 . S
C2887 C2868 1.429 . S
C2887 C2881 1.429 . S
C2887 C2888 1.523 . S
C2888 C2869 1.368 . S
C2888 C2882 1.368 . S
C2888 C2887 1.523 . S
C2889 C2873 1.429 . S
C2889 C2885 1.429 . S
C2889 C2890 1.523 . S
C2890 C2874 1.368 . S
C2890 C2886 1.368 . S
C2890 C2889 1.523 . S
H2891 C2866 0.950 . S
H2892 C2868 0.950 . S
H2893 C2869 0.949 . S
H2894 C2871 0.950 . S
H2895 C2873 0.950 . S
C2896 C2897 1.349 . S
C2896 C2898 1.327 . S
C2896 H2921 0.950 . S
C2897 C2896 1.349 . S
C2897 C2913 1.349 . S
C2898 C2896 1.327 . S
C2898 C2917 1.429 . S
C2898 H2922 0.950 . S
C2899 C2916 1.574 . S
C2899 C2918 1.368 . S
C2899 H2923 0.949 . S
H2900 C2904 0.949 . S
C2901 C2902 1.349 . S
C2901 C2903 1.327 . S
C2901 H2924 0.950 . S
C2902 C2901 1.349 . S
C2902 C2914 1.349 . S
C2903 C2901 1.327 . S
C2903 C2919 1.429 . S
C2903 H2925 0.950 . S
C2904 H2900 0.949 . S
C2904 C2912 1.574 . S
C2904 C2920 1.368 . S
H2905 C2913 0.950 . S
H2906 C2911 0.950 . S
H2907 C2912 0.949 . S
H2908 C2914 0.950 . S
H2909 C2915 0.950 . S
H2910 C2916 0.949 . S
C2911 H2906 0.950 . S
C2911 C2913 1.327 . S
C2911 C2917 1.429 . S
C2912 C2904 1.574 . S
C2912 H2907 0.949 . S
C2912 C2918 1.368 . S
C2913 C2897 1.349 . S
C2913 H2905 0.950 . S
C2913 C2911 1.327 . S
C2914 C2902 1.349 . S
C2914 H2908 0.950 . S
C2914 C2915 1.327 . S
C2915 H2909 0.950 . S
C2915 C2914 1.327 . S
C2915 C2919 1.429 . S
C2916 C2899 1.574 . S
C2916 H2910 0.949 . S
C2916 C2920 1.368 . S
C2917 C2898 1.429 . S
C2917 C2911 1.429 . S
C2917 C2918 1.523 . S
C2918 C2899 1.368 . S
C2918 C2912 1.368 . S
C2918 C2917 1.523 . S
C2919 C2903 1.429 . S
C2919 C2915 1.429 . S
C2919 C2920 1.523 . S
C2920 C2904 1.368 . S
C2920 C2916 1.368 . S
C2920 C2919 1.523 . S
H2921 C2896 0.950 . S
H2922 C2898 0.950 . S
H2923 C2899 0.949 . S
H2924 C2901 0.950 . S
H2925 C2903 0.950 . S
C2926 C2927 1.349 . S
C2926 C2928 1.327 . S
C2926 H2951 0.950 . S
C2927 C2926 1.349 . S
C2927 C2943 1.349 . S
C2928 C2926 1.327 . S
C2928 C2947 1.429 . S
C2928 H2952 0.950 . S
C2929 C2946 1.574 . S
C2929 C2948 1.368 . S
C2929 H2953 0.949 . S
H2930 C2934 0.949 . S
C2931 C2932 1.349 . S
C2931 C2933 1.327 . S
C2931 H2954 0.950 . S
C2932 C2931 1.349 . S
C2932 C2944 1.349 . S
C2933 C2931 1.327 . S
C2933 C2949 1.429 . S
C2933 H2955 0.950 . S
C2934 H2930 0.949 . S
C2934 C2942 1.574 . S
C2934 C2950 1.368 . S
H2935 C2943 0.950 . S
H2936 C2941 0.950 . S
H2937 C2942 0.949 . S
H2938 C2944 0.950 . S
H2939 C2945 0.950 . S
H2940 C2946 0.949 . S
C2941 H2936 0.950 . S
C2941 C2943 1.327 . S
C2941 C2947 1.429 . S
C2942 C2934 1.574 . S
C2942 H2937 0.949 . S
C2942 C2948 1.368 . S
C2943 C2927 1.349 . S
C2943 H2935 0.950 . S
C2943 C2941 1.327 . S
C2944 C2932 1.349 . S
C2944 H2938 0.950 . S
C2944 C2945 1.327 . S
C2945 H2939 0.950 . S
C2945 C2944 1.327 . S
C2945 C2949 1.429 . S
C2946 C2929 1.574 . S
C2946 H2940 0.949 . S
C2946 C2950 1.368 . S
C2947 C2928 1.429 . S
C2947 C2941 1.429 . S
C2947 C2948 1.523 . S
C2948 C2929 1.368 . S
C2948 C2942 1.368 . S
C2948 C2947 1.523 . S
C2949 C2933 1.429 . S
C2949 C2945 1.429 . S
C2949 C2950 1.523 . S
C2950 C2934 1.368 . S
C2950 C2946 1.368 . S
C2950 C2949 1.523 . S
H2951 C2926 0.950 . S
H2952 C2928 0.950 . S
H2953 C2929 0.949 . S
H2954 C2931 0.950 . S
H2955 C2933 0.950 . S
C2956 C2957 1.349 . S
C2956 C2958 1.327 . S
C2956 H2981 0.950 . S
C2957 C2956 1.349 . S
C2957 C2973 1.349 . S
C2958 C2956 1.327 . S
C2958 C2977 1.429 . S
C2958 H2982 0.950 . S
C2959 C2976 1.574 . S
C2959 C2978 1.368 . S
C2959 H2983 0.949 . S
H2960 C2964 0.949 . S
C2961 C2962 1.349 . S
C2961 C2963 1.327 . S
C2961 H2984 0.950 . S
C2962 C2961 1.349 . S
C2962 C2974 1.349 . S
C2963 C2961 1.327 . S
C2963 C2979 1.429 . S
C2963 H2985 0.950 . S
C2964 H2960 0.949 . S
C2964 C2972 1.574 . S
C2964 C2980 1.368 . S
H2965 C2973 0.950 . S
H2966 C2971 0.950 . S
H2967 C2972 0.949 . S
H2968 C2974 0.950 . S
H2969 C2975 0.950 . S
H2970 C2976 0.949 . S
C2971 H2966 0.950 . S
C2971 C2973 1.327 . S
C2971 C2977 1.429 . S
C2972 C2964 1.574 . S
C2972 H2967 0.949 . S
C2972 C2978 1.368 . S
C2973 C2957 1.349 . S
C2973 H2965 0.950 . S
C2973 C2971 1.327 . S
C2974 C2962 1.349 . S
C2974 H2968 0.950 . S
C2974 C2975 1.327 . S
C2975 H2969 0.950 . S
C2975 C2974 1.327 . S
C2975 C2979 1.429 . S
C2976 C2959 1.574 . S
C2976 H2970 0.949 . S
C2976 C2980 1.368 . S
C2977 C2958 1.429 . S
C2977 C2971 1.429 . S
C2977 C2978 1.523 . S
C2978 C2959 1.368 . S
C2978 C2972 1.368 . S
C2978 C2977 1.523 . S
C2979 C2963 1.429 . S
C2979 C2975 1.429 . S
C2979 C2980 1.523 . S
C2980 C2964 1.368 . S
C2980 C2976 1.368 . S
C2980 C2979 1.523 . S
H2981 C2956 0.950 . S
H2982 C2958 0.950 . S
H2983 C2959 0.949 . S
H2984 C2961 0.950 . S
H2985 C2963 0.950 . S
C2986 C2987 1.349 . S
C2986 C2988 1.327 . S
C2986 H3011 0.950 . S
C2987 C2986 1.349 . S
C2987 C3003 1.349 . S
C2988 C2986 1.327 . S
C2988 C3007 1.429 . S
C2988 H3012 0.950 . S
C2989 C3006 1.574 . S
C2989 C3008 1.368 . S
C2989 H3013 0.949 . S
H2990 C2994 0.949 . S
C2991 C2992 1.349 1_565 S
C2991 C2993 1.327 . S
C2991 H3014 0.950 . S
C2992 C2991 1.349 1_545 S
C2992 C3004 1.349 . S
C2993 C2991 1.327 . S
C2993 C3009 1.429 . S
C2993 H3015 0.950 . S
C2994 H2990 0.949 . S
C2994 C3002 1.574 . S
C2994 C3010 1.368 . S
H2995 C3003 0.950 . S
H2996 C3001 0.950 . S
H2997 C3002 0.949 . S
H2998 C3004 0.950 . S
H2999 C3005 0.950 . S
H3000 C3006 0.949 . S
C3001 H2996 0.950 . S
C3001 C3003 1.327 . S
C3001 C3007 1.429 . S
C3002 C2994 1.574 . S
C3002 H2997 0.949 . S
C3002 C3008 1.368 . S
C3003 C2987 1.349 . S
C3003 H2995 0.950 . S
C3003 C3001 1.327 . S
C3004 C2992 1.349 . S
C3004 H2998 0.950 . S
C3004 C3005 1.327 . S
C3005 H2999 0.950 . S
C3005 C3004 1.327 . S
C3005 C3009 1.429 1_545 S
C3006 C2989 1.574 . S
C3006 H3000 0.949 . S
C3006 C3010 1.368 . S
C3007 C2988 1.429 . S
C3007 C3001 1.429 . S
C3007 C3008 1.523 . S
C3008 C2989 1.368 . S
C3008 C3002 1.368 . S
C3008 C3007 1.523 . S
C3009 C2993 1.429 . S
C3009 C3005 1.429 1_565 S
C3009 C3010 1.523 . S
C3010 C2994 1.368 . S
C3010 C3006 1.368 . S
C3010 C3009 1.523 . S
H3011 C2986 0.950 . S
H3012 C2988 0.950 . S
H3013 C2989 0.949 . S
H3014 C2991 0.950 . S
H3015 C2993 0.950 . S
C3016 C3017 1.349 . S
C3016 C3018 1.327 . S
C3016 H3041 0.950 . S
C3017 C3016 1.349 . S
C3017 C3033 1.349 . S
C3018 C3016 1.327 . S
C3018 C3037 1.429 . S
C3018 H3042 0.950 . S
C3019 C3036 1.574 . S
C3019 C3038 1.368 . S
C3019 H3043 0.949 . S
H3020 C3024 0.949 . S
C3021 C3022 1.349 . S
C3021 C3023 1.327 . S
C3021 H3044 0.950 . S
C3022 C3021 1.349 . S
C3022 C3034 1.349 . S
C3023 C3021 1.327 . S
C3023 C3039 1.429 . S
C3023 H3045 0.950 . S
C3024 H3020 0.949 . S
C3024 C3032 1.574 . S
C3024 C3040 1.368 . S
H3025 C3033 0.950 . S
H3026 C3031 0.950 . S
H3027 C3032 0.949 . S
H3028 C3034 0.950 . S
H3029 C3035 0.950 . S
H3030 C3036 0.949 . S
C3031 H3026 0.950 . S
C3031 C3033 1.327 . S
C3031 C3037 1.429 . S
C3032 C3024 1.574 . S
C3032 H3027 0.949 . S
C3032 C3038 1.368 . S
C3033 C3017 1.349 . S
C3033 H3025 0.950 . S
C3033 C3031 1.327 . S
C3034 C3022 1.349 . S
C3034 H3028 0.950 . S
C3034 C3035 1.327 . S
C3035 H3029 0.950 . S
C3035 C3034 1.327 . S
C3035 C3039 1.429 . S
C3036 C3019 1.574 . S
C3036 H3030 0.949 . S
C3036 C3040 1.368 . S
C3037 C3018 1.429 . S
C3037 C3031 1.429 . S
C3037 C3038 1.523 . S
C3038 C3019 1.368 . S
C3038 C3032 1.368 . S
C3038 C3037 1.523 . S
C3039 C3023 1.429 . S
C3039 C3035 1.429 . S
C3039 C3040 1.523 . S
C3040 C3024 1.368 . S
C3040 C3036 1.368 . S
C3040 C3039 1.523 . S
H3041 C3016 0.950 . S
H3042 C3018 0.950 . S
H3043 C3019 0.949 . S
H3044 C3021 0.950 . S
H3045 C3023 0.950 . S
C3046 C3047 1.349 1_556 S
C3046 C3048 1.327 1_556 S
C3046 H3071 0.950 . S
C3047 C3046 1.349 1_554 S
C3047 C3063 1.349 . S
C3048 C3046 1.327 1_554 S
C3048 C3067 1.429 . S
C3048 H3072 0.950 1_554 S
C3049 C3066 1.574 . S
C3049 C3068 1.368 . S
C3049 H3073 0.949 . S
H3050 C3054 0.949 . S
C3051 C3052 1.349 . S
C3051 C3053 1.327 . S
C3051 H3074 0.950 . S
C3052 C3051 1.349 . S
C3052 C3064 1.349 . S
C3053 C3051 1.327 . S
C3053 C3069 1.429 . S
C3053 H3075 0.950 . S
C3054 H3050 0.949 . S
C3054 C3062 1.574 . S
C3054 C3070 1.368 . S
H3055 C3063 0.950 . S
H3056 C3061 0.950 . S
H3057 C3062 0.949 . S
H3058 C3064 0.950 . S
H3059 C3065 0.950 . S
H3060 C3066 0.949 . S
C3061 H3056 0.950 . S
C3061 C3063 1.327 . S
C3061 C3067 1.429 . S
C3062 C3054 1.574 . S
C3062 H3057 0.949 . S
C3062 C3068 1.368 . S
C3063 C3047 1.349 . S
C3063 H3055 0.950 . S
C3063 C3061 1.327 . S
C3064 C3052 1.349 . S
C3064 H3058 0.950 . S
C3064 C3065 1.327 . S
C3065 H3059 0.950 . S
C3065 C3064 1.327 . S
C3065 C3069 1.429 . S
C3066 C3049 1.574 . S
C3066 H3060 0.949 . S
C3066 C3070 1.368 . S
C3067 C3048 1.429 . S
C3067 C3061 1.429 . S
C3067 C3068 1.523 . S
C3068 C3049 1.368 . S
C3068 C3062 1.368 . S
C3068 C3067 1.523 . S
C3069 C3053 1.429 . S
C3069 C3065 1.429 . S
C3069 C3070 1.523 . S
C3070 C3054 1.368 . S
C3070 C3066 1.368 . S
C3070 C3069 1.523 . S
H3071 C3046 0.950 . S
H3072 C3048 0.950 1_556 S
H3073 C3049 0.949 . S
H3074 C3051 0.950 . S
H3075 C3053 0.950 . S
C3076 C3077 1.349 . S
C3076 C3078 1.327 . S
C3076 H3101 0.950 . S
C3077 C3076 1.349 . S
C3077 C3093 1.349 . S
C3078 C3076 1.327 . S
C3078 C3097 1.429 . S
C3078 H3102 0.950 . S
C3079 C3096 1.574 . S
C3079 C3098 1.368 . S
C3079 H3103 0.949 . S
H3080 C3084 0.949 . S
C3081 C3082 1.349 . S
C3081 C3083 1.327 . S
C3081 H3104 0.950 . S
C3082 C3081 1.349 . S
C3082 C3094 1.349 . S
C3083 C3081 1.327 . S
C3083 C3099 1.429 . S
C3083 H3105 0.950 . S
C3084 H3080 0.949 . S
C3084 C3092 1.574 . S
C3084 C3100 1.368 . S
H3085 C3093 0.950 . S
H3086 C3091 0.950 . S
H3087 C3092 0.949 . S
H3088 C3094 0.950 . S
H3089 C3095 0.950 . S
H3090 C3096 0.949 . S
C3091 H3086 0.950 . S
C3091 C3093 1.327 . S
C3091 C3097 1.429 . S
C3092 C3084 1.574 . S
C3092 H3087 0.949 . S
C3092 C3098 1.368 . S
C3093 C3077 1.349 . S
C3093 H3085 0.950 . S
C3093 C3091 1.327 . S
C3094 C3082 1.349 . S
C3094 H3088 0.950 . S
C3094 C3095 1.327 . S
C3095 H3089 0.950 . S
C3095 C3094 1.327 . S
C3095 C3099 1.429 . S
C3096 C3079 1.574 . S
C3096 H3090 0.949 . S
C3096 C3100 1.368 . S
C3097 C3078 1.429 . S
C3097 C3091 1.429 . S
C3097 C3098 1.523 . S
C3098 C3079 1.368 . S
C3098 C3092 1.368 . S
C3098 C3097 1.523 . S
C3099 C3083 1.429 . S
C3099 C3095 1.429 . S
C3099 C3100 1.523 . S
C3100 C3084 1.368 . S
C3100 C3096 1.368 . S
C3100 C3099 1.523 . S
H3101 C3076 0.950 . S
H3102 C3078 0.950 . S
H3103 C3079 0.949 . S
H3104 C3081 0.950 . S
H3105 C3083 0.950 . S
C3106 C3107 1.349 . S
C3106 C3108 1.327 . S
C3106 H3131 0.950 . S
C3107 C3106 1.349 . S
C3107 C3123 1.349 . S
C3108 C3106 1.327 . S
C3108 C3127 1.429 . S
C3108 H3132 0.950 . S
C3109 C3126 1.574 . S
C3109 C3128 1.369 1_565 S
C3109 H3133 0.949 . S
H3110 C3114 0.949 . S
C3111 C3112 1.349 . S
C3111 C3113 1.327 . S
C3111 H3134 0.950 . S
C3112 C3111 1.349 . S
C3112 C3124 1.349 . S
C3113 C3111 1.327 . S
C3113 C3129 1.429 . S
C3113 H3135 0.950 . S
C3114 H3110 0.949 . S
C3114 C3122 1.574 1_565 S
C3114 C3130 1.368 . S
H3115 C3123 0.950 . S
H3116 C3121 0.950 . S
H3117 C3122 0.949 . S
H3118 C3124 0.950 . S
H3119 C3125 0.950 . S
H3120 C3126 0.949 . S
C3121 H3116 0.950 . S
C3121 C3123 1.327 . S
C3121 C3127 1.429 . S
C3122 C3114 1.574 1_545 S
C3122 H3117 0.949 . S
C3122 C3128 1.368 . S
C3123 C3107 1.349 . S
C3123 H3115 0.950 . S
C3123 C3121 1.327 . S
C3124 C3112 1.349 . S
C3124 H3118 0.950 . S
C3124 C3125 1.327 . S
C3125 H3119 0.950 . S
C3125 C3124 1.327 . S
C3125 C3129 1.429 . S
C3126 C3109 1.574 . S
C3126 H3120 0.949 . S
C3126 C3130 1.368 . S
C3127 C3108 1.429 . S
C3127 C3121 1.429 . S
C3127 C3128 1.522 . S
C3128 C3109 1.369 1_545 S
C3128 C3122 1.368 . S
C3128 C3127 1.522 . S
C3129 C3113 1.429 . S
C3129 C3125 1.429 . S
C3129 C3130 1.523 . S
C3130 C3114 1.368 . S
C3130 C3126 1.368 . S
C3130 C3129 1.523 . S
H3131 C3106 0.950 . S
H3132 C3108 0.950 . S
H3133 C3109 0.949 . S
H3134 C3111 0.950 . S
H3135 C3113 0.950 . S
C3136 C3137 1.349 . S
C3136 C3138 1.327 . S
C3136 H3161 0.950 . S
C3137 C3136 1.349 . S
C3137 C3153 1.349 . S
C3138 C3136 1.327 . S
C3138 C3157 1.429 . S
C3138 H3162 0.950 . S
C3139 C3156 1.574 . S
C3139 C3158 1.368 . S
C3139 H3163 0.949 . S
H3140 C3144 0.949 . S
C3141 C3142 1.349 . S
C3141 C3143 1.327 . S
C3141 H3164 0.950 . S
C3142 C3141 1.349 . S
C3142 C3154 1.349 . S
C3143 C3141 1.327 . S
C3143 C3159 1.429 . S
C3143 H3165 0.950 . S
C3144 H3140 0.949 . S
C3144 C3152 1.574 . S
C3144 C3160 1.368 . S
H3145 C3153 0.950 . S
H3146 C3151 0.950 . S
H3147 C3152 0.949 . S
H3148 C3154 0.950 . S
H3149 C3155 0.950 . S
H3150 C3156 0.949 . S
C3151 H3146 0.950 . S
C3151 C3153 1.327 . S
C3151 C3157 1.429 . S
C3152 C3144 1.574 . S
C3152 H3147 0.949 . S
C3152 C3158 1.368 . S
C3153 C3137 1.349 . S
C3153 H3145 0.950 . S
C3153 C3151 1.327 . S
C3154 C3142 1.349 . S
C3154 H3148 0.950 . S
C3154 C3155 1.327 . S
C3155 H3149 0.950 . S
C3155 C3154 1.327 . S
C3155 C3159 1.429 . S
C3156 C3139 1.574 . S
C3156 H3150 0.949 . S
C3156 C3160 1.368 . S
C3157 C3138 1.429 . S
C3157 C3151 1.429 . S
C3157 C3158 1.523 . S
C3158 C3139 1.368 . S
C3158 C3152 1.368 . S
C3158 C3157 1.523 . S
C3159 C3143 1.429 . S
C3159 C3155 1.429 . S
C3159 C3160 1.523 . S
C3160 C3144 1.368 . S
C3160 C3156 1.368 . S
C3160 C3159 1.523 . S
H3161 C3136 0.950 . S
H3162 C3138 0.950 . S
H3163 C3139 0.949 . S
H3164 C3141 0.950 . S
H3165 C3143 0.950 . S
C3166 C3167 1.349 . S
C3166 C3168 1.327 . S
C3166 H3191 0.950 . S
C3167 C3166 1.349 . S
C3167 C3183 1.349 . S
C3168 C3166 1.327 . S
C3168 C3187 1.429 . S
C3168 H3192 0.950 . S
C3169 C3186 1.574 . S
C3169 C3188 1.368 . S
C3169 H3193 0.949 . S
H3170 C3174 0.949 . S
C3171 C3172 1.349 . S
C3171 C3173 1.327 . S
C3171 H3194 0.950 . S
C3172 C3171 1.349 . S
C3172 C3184 1.349 . S
C3173 C3171 1.327 . S
C3173 C3189 1.429 . S
C3173 H3195 0.950 . S
C3174 H3170 0.949 . S
C3174 C3182 1.574 . S
C3174 C3190 1.368 . S
H3175 C3183 0.950 . S
H3176 C3181 0.950 . S
H3177 C3182 0.949 . S
H3178 C3184 0.950 . S
H3179 C3185 0.950 . S
H3180 C3186 0.949 . S
C3181 H3176 0.950 . S
C3181 C3183 1.327 . S
C3181 C3187 1.429 . S
C3182 C3174 1.574 . S
C3182 H3177 0.949 . S
C3182 C3188 1.368 . S
C3183 C3167 1.349 . S
C3183 H3175 0.950 . S
C3183 C3181 1.327 . S
C3184 C3172 1.349 . S
C3184 H3178 0.950 . S
C3184 C3185 1.327 . S
C3185 H3179 0.950 . S
C3185 C3184 1.327 . S
C3185 C3189 1.429 . S
C3186 C3169 1.574 . S
C3186 H3180 0.949 . S
C3186 C3190 1.368 . S
C3187 C3168 1.429 . S
C3187 C3181 1.429 . S
C3187 C3188 1.523 . S
C3188 C3169 1.368 . S
C3188 C3182 1.368 . S
C3188 C3187 1.523 . S
C3189 C3173 1.429 . S
C3189 C3185 1.429 . S
C3189 C3190 1.523 . S
C3190 C3174 1.368 . S
C3190 C3186 1.368 . S
C3190 C3189 1.523 . S
H3191 C3166 0.950 . S
H3192 C3168 0.950 . S
H3193 C3169 0.949 . S
H3194 C3171 0.950 . S
H3195 C3173 0.950 . S
C3196 C3197 1.349 . S
C3196 C3198 1.327 . S
C3196 H3221 0.950 . S
C3197 C3196 1.349 . S
C3197 C3213 1.349 . S
C3198 C3196 1.327 . S
C3198 C3217 1.429 . S
C3198 H3222 0.950 . S
C3199 C3216 1.574 . S
C3199 C3218 1.368 . S
C3199 H3223 0.949 . S
H3200 C3204 0.949 . S
C3201 C3202 1.349 . S
C3201 C3203 1.327 . S
C3201 H3224 0.950 . S
C3202 C3201 1.349 . S
C3202 C3214 1.349 . S
C3203 C3201 1.327 . S
C3203 C3219 1.429 . S
C3203 H3225 0.950 . S
C3204 H3200 0.949 . S
C3204 C3212 1.574 . S
C3204 C3220 1.368 . S
H3205 C3213 0.950 . S
H3206 C3211 0.950 . S
H3207 C3212 0.949 . S
H3208 C3214 0.950 . S
H3209 C3215 0.950 . S
H3210 C3216 0.949 . S
C3211 H3206 0.950 . S
C3211 C3213 1.327 . S
C3211 C3217 1.429 . S
C3212 C3204 1.574 . S
C3212 H3207 0.949 . S
C3212 C3218 1.368 . S
C3213 C3197 1.349 . S
C3213 H3205 0.950 . S
C3213 C3211 1.327 . S
C3214 C3202 1.349 . S
C3214 H3208 0.950 . S
C3214 C3215 1.327 . S
C3215 H3209 0.950 . S
C3215 C3214 1.327 . S
C3215 C3219 1.429 . S
C3216 C3199 1.574 . S
C3216 H3210 0.949 . S
C3216 C3220 1.368 . S
C3217 C3198 1.429 . S
C3217 C3211 1.429 . S
C3217 C3218 1.523 . S
C3218 C3199 1.368 . S
C3218 C3212 1.368 . S
C3218 C3217 1.523 . S
C3219 C3203 1.429 . S
C3219 C3215 1.429 . S
C3219 C3220 1.523 . S
C3220 C3204 1.368 . S
C3220 C3216 1.368 . S
C3220 C3219 1.523 . S
H3221 C3196 0.950 . S
H3222 C3198 0.950 . S
H3223 C3199 0.949 . S
H3224 C3201 0.950 . S
H3225 C3203 0.950 . S
C3226 C3227 1.349 . S
C3226 C3228 1.327 . S
C3226 H3251 0.950 . S
C3227 C3226 1.349 . S
C3227 C3243 1.349 . S
C3228 C3226 1.327 . S
C3228 C3247 1.429 . S
C3228 H3252 0.950 . S
C3229 C3246 1.574 . S
C3229 C3248 1.368 . S
C3229 H3253 0.949 . S
H3230 C3234 0.949 . S
C3231 C3232 1.349 . S
C3231 C3233 1.327 . S
C3231 H3254 0.950 . S
C3232 C3231 1.349 . S
C3232 C3244 1.349 . S
C3233 C3231 1.327 . S
C3233 C3249 1.429 . S
C3233 H3255 0.950 . S
C3234 H3230 0.949 . S
C3234 C3242 1.574 . S
C3234 C3250 1.368 . S
H3235 C3243 0.950 . S
H3236 C3241 0.950 . S
H3237 C3242 0.949 . S
H3238 C3244 0.950 . S
H3239 C3245 0.950 . S
H3240 C3246 0.949 . S
C3241 H3236 0.950 . S
C3241 C3243 1.327 . S
C3241 C3247 1.429 . S
C3242 C3234 1.574 . S
C3242 H3237 0.949 . S
C3242 C3248 1.368 . S
C3243 C3227 1.349 . S
C3243 H3235 0.950 . S
C3243 C3241 1.327 . S
C3244 C3232 1.349 . S
C3244 H3238 0.950 . S
C3244 C3245 1.327 . S
C3245 H3239 0.950 . S
C3245 C3244 1.327 . S
C3245 C3249 1.429 . S
C3246 C3229 1.574 . S
C3246 H3240 0.949 . S
C3246 C3250 1.368 . S
C3247 C3228 1.429 . S
C3247 C3241 1.429 . S
C3247 C3248 1.523 . S
C3248 C3229 1.368 . S
C3248 C3242 1.368 . S
C3248 C3247 1.523 . S
C3249 C3233 1.429 . S
C3249 C3245 1.429 . S
C3249 C3250 1.523 . S
C3250 C3234 1.368 . S
C3250 C3246 1.368 . S
C3250 C3249 1.523 . S
H3251 C3226 0.950 . S
H3252 C3228 0.950 . S
H3253 C3229 0.949 . S
H3254 C3231 0.950 . S
H3255 C3233 0.950 . S
C3256 C3257 1.349 . S
C3256 C3258 1.327 . S
C3256 H3281 0.950 . S
C3257 C3256 1.349 . S
C3257 C3273 1.349 . S
C3258 C3256 1.327 . S
C3258 C3277 1.429 . S
C3258 H3282 0.950 . S
C3259 C3276 1.574 . S
C3259 C3278 1.368 1_554 S
C3259 H3283 0.949 . S
H3260 C3264 0.949 . S
C3261 C3262 1.349 . S
C3261 C3263 1.327 . S
C3261 H3284 0.950 . S
C3262 C3261 1.349 . S
C3262 C3274 1.349 1_554 S
C3263 C3261 1.327 . S
C3263 C3279 1.429 . S
C3263 H3285 0.950 . S
C3264 H3260 0.949 . S
C3264 C3272 1.574 . S
C3264 C3280 1.362 . S
H3265 C3273 0.950 1_554 S
H3266 C3271 0.950 1_554 S
H3267 C3272 0.949 . S
H3268 C3274 0.950 . S
H3269 C3275 0.950 . S
H3270 C3276 0.949 . S
C3271 H3266 0.950 1_556 S
C3271 C3273 1.327 . S
C3271 C3277 1.429 . S
C3272 C3264 1.574 . S
C3272 H3267 0.949 . S
C3272 C3278 1.368 . S
C3273 C3257 1.349 . S
C3273 H3265 0.950 1_556 S
C3273 C3271 1.327 . S
C3274 C3262 1.349 1_556 S
C3274 H3268 0.950 . S
C3274 C3275 1.327 . S
C3275 H3269 0.950 . S
C3275 C3274 1.327 . S
C3275 C3279 1.429 1_556 S
C3276 C3259 1.574 . S
C3276 H3270 0.949 . S
C3276 C3280 1.372 1_554 S
C3277 C3258 1.429 . S
C3277 C3271 1.429 . S
C3277 C3278 1.523 . S
C3278 C3259 1.368 1_556 S
C3278 C3272 1.368 . S
C3278 C3277 1.523 . S
C3279 C3263 1.429 . S
C3279 C3275 1.429 1_554 S
C3279 C3280 1.526 1_554 S
C3280 C3264 1.362 . S
C3280 C3276 1.372 1_556 S
C3280 C3279 1.526 1_556 S
H3281 C3256 0.950 . S
H3282 C3258 0.950 . S
H3283 C3259 0.949 . S
H3284 C3261 0.950 . S
H3285 C3263 0.950 . S
C3286 C3287 1.349 . S
C3286 C3288 1.327 . S
C3286 H3311 0.950 . S
C3287 C3286 1.349 . S
C3287 C3303 1.349 . S
C3288 C3286 1.327 . S
C3288 C3307 1.429 . S
C3288 H3312 0.950 . S
C3289 C3306 1.574 . S
C3289 C3308 1.368 . S
C3289 H3313 0.949 . S
H3290 C3294 0.949 . S
C3291 C3292 1.349 . S
C3291 C3293 1.327 . S
C3291 H3314 0.950 . S
C3292 C3291 1.349 . S
C3292 C3304 1.349 . S
C3293 C3291 1.327 . S
C3293 C3309 1.429 . S
C3293 H3315 0.950 . S
C3294 H3290 0.949 . S
C3294 C3302 1.574 . S
C3294 C3310 1.368 . S
H3295 C3303 0.950 . S
H3296 C3301 0.950 . S
H3297 C3302 0.949 . S
H3298 C3304 0.950 . S
H3299 C3305 0.950 . S
H3300 C3306 0.949 . S
C3301 H3296 0.950 . S
C3301 C3303 1.327 . S
C3301 C3307 1.429 . S
C3302 C3294 1.574 . S
C3302 H3297 0.949 . S
C3302 C3308 1.368 . S
C3303 C3287 1.349 . S
C3303 H3295 0.950 . S
C3303 C3301 1.327 . S
C3304 C3292 1.349 . S
C3304 H3298 0.950 . S
C3304 C3305 1.327 . S
C3305 H3299 0.950 . S
C3305 C3304 1.327 . S
C3305 C3309 1.429 . S
C3306 C3289 1.574 . S
C3306 H3300 0.949 . S
C3306 C3310 1.368 . S
C3307 C3288 1.429 . S
C3307 C3301 1.429 . S
C3307 C3308 1.523 . S
C3308 C3289 1.368 . S
C3308 C3302 1.368 . S
C3308 C3307 1.523 . S
C3309 C3293 1.429 . S
C3309 C3305 1.429 . S
C3309 C3310 1.523 . S
C3310 C3294 1.368 . S
C3310 C3306 1.368 . S
C3310 C3309 1.523 . S
H3311 C3286 0.950 . S
H3312 C3288 0.950 . S
H3313 C3289 0.949 . S
H3314 C3291 0.950 . S
H3315 C3293 0.950 . S
C3316 C3317 1.349 . S
C3316 C3318 1.327 . S
C3316 H3341 0.950 . S
C3317 C3316 1.349 . S
C3317 C3333 1.349 . S
C3318 C3316 1.327 . S
C3318 C3337 1.429 . S
C3318 H3342 0.950 . S
C3319 C3336 1.574 . S
C3319 C3338 1.368 . S
C3319 H3343 0.949 . S
H3320 C3324 0.949 . S
C3321 C3322 1.349 . S
C3321 C3323 1.327 . S
C3321 H3344 0.950 . S
C3322 C3321 1.349 . S
C3322 C3334 1.349 . S
C3323 C3321 1.327 . S
C3323 C3339 1.429 . S
C3323 H3345 0.950 . S
C3324 H3320 0.949 . S
C3324 C3332 1.574 . S
C3324 C3340 1.368 . S
H3325 C3333 0.950 . S
H3326 C3331 0.950 . S
H3327 C3332 0.949 . S
H3328 C3334 0.950 . S
H3329 C3335 0.950 . S
H3330 C3336 0.949 . S
C3331 H3326 0.950 . S
C3331 C3333 1.327 . S
C3331 C3337 1.429 . S
C3332 C3324 1.574 . S
C3332 H3327 0.949 . S
C3332 C3338 1.368 . S
C3333 C3317 1.349 . S
C3333 H3325 0.950 . S
C3333 C3331 1.327 . S
C3334 C3322 1.349 . S
C3334 H3328 0.950 . S
C3334 C3335 1.327 . S
C3335 H3329 0.950 . S
C3335 C3334 1.327 . S
C3335 C3339 1.429 . S
C3336 C3319 1.574 . S
C3336 H3330 0.949 . S
C3336 C3340 1.368 . S
C3337 C3318 1.429 . S
C3337 C3331 1.429 . S
C3337 C3338 1.523 . S
C3338 C3319 1.368 . S
C3338 C3332 1.368 . S
C3338 C3337 1.523 . S
C3339 C3323 1.429 . S
C3339 C3335 1.429 . S
C3339 C3340 1.523 . S
C3340 C3324 1.368 . S
C3340 C3336 1.368 . S
C3340 C3339 1.523 . S
H3341 C3316 0.950 . S
H3342 C3318 0.950 . S
H3343 C3319 0.949 . S
H3344 C3321 0.950 . S
H3345 C3323 0.950 . S
C3346 C3347 1.349 . S
C3346 C3348 1.327 . S
C3346 H3371 0.950 . S
C3347 C3346 1.349 . S
C3347 C3363 1.349 . S
C3348 C3346 1.327 . S
C3348 C3367 1.429 . S
C3348 H3372 0.950 . S
C3349 C3366 1.574 . S
C3349 C3368 1.368 . S
C3349 H3373 0.949 . S
H3350 C3354 0.949 . S
C3351 C3352 1.349 . S
C3351 C3353 1.327 . S
C3351 H3374 0.950 . S
C3352 C3351 1.349 . S
C3352 C3364 1.349 . S
C3353 C3351 1.327 . S
C3353 C3369 1.429 . S
C3353 H3375 0.950 . S
C3354 H3350 0.949 . S
C3354 C3362 1.574 . S
C3354 C3370 1.368 . S
H3355 C3363 0.950 . S
H3356 C3361 0.950 . S
H3357 C3362 0.949 . S
H3358 C3364 0.950 . S
H3359 C3365 0.950 . S
H3360 C3366 0.949 . S
C3361 H3356 0.950 . S
C3361 C3363 1.327 . S
C3361 C3367 1.429 . S
C3362 C3354 1.574 . S
C3362 H3357 0.949 . S
C3362 C3368 1.368 . S
C3363 C3347 1.349 . S
C3363 H3355 0.950 . S
C3363 C3361 1.327 . S
C3364 C3352 1.349 . S
C3364 H3358 0.950 . S
C3364 C3365 1.327 . S
C3365 H3359 0.950 . S
C3365 C3364 1.327 . S
C3365 C3369 1.429 . S
C3366 C3349 1.574 . S
C3366 H3360 0.949 . S
C3366 C3370 1.368 . S
C3367 C3348 1.429 . S
C3367 C3361 1.429 . S
C3367 C3368 1.523 . S
C3368 C3349 1.368 . S
C3368 C3362 1.368 . S
C3368 C3367 1.523 . S
C3369 C3353 1.429 . S
C3369 C3365 1.429 . S
C3369 C3370 1.523 . S
C3370 C3354 1.368 . S
C3370 C3366 1.368 . S
C3370 C3369 1.523 . S
H3371 C3346 0.950 . S
H3372 C3348 0.950 . S
H3373 C3349 0.949 . S
H3374 C3351 0.950 . S
H3375 C3353 0.950 . S
C3376 C3377 1.349 . S
C3376 C3378 1.327 . S
C3376 H3401 0.950 . S
C3377 C3376 1.349 . S
C3377 C3393 1.349 . S
C3378 C3376 1.327 . S
C3378 C3397 1.429 . S
C3378 H3402 0.950 . S
C3379 C3396 1.574 . S
C3379 C3398 1.368 . S
C3379 H3403 0.949 . S
H3380 C3384 0.949 . S
C3381 C3382 1.349 . S
C3381 C3383 1.327 . S
C3381 H3404 0.950 . S
C3382 C3381 1.349 . S
C3382 C3394 1.349 . S
C3383 C3381 1.327 . S
C3383 C3399 1.429 . S
C3383 H3405 0.950 . S
C3384 H3380 0.949 . S
C3384 C3392 1.574 . S
C3384 C3400 1.368 . S
H3385 C3393 0.950 . S
H3386 C3391 0.950 . S
H3387 C3392 0.949 . S
H3388 C3394 0.950 . S
H3389 C3395 0.950 . S
H3390 C3396 0.949 . S
C3391 H3386 0.950 . S
C3391 C3393 1.327 . S
C3391 C3397 1.429 . S
C3392 C3384 1.574 . S
C3392 H3387 0.949 . S
C3392 C3398 1.368 . S
C3393 C3377 1.349 . S
C3393 H3385 0.950 . S
C3393 C3391 1.327 . S
C3394 C3382 1.349 . S
C3394 H3388 0.950 . S
C3394 C3395 1.327 . S
C3395 H3389 0.950 . S
C3395 C3394 1.327 . S
C3395 C3399 1.429 . S
C3396 C3379 1.574 . S
C3396 H3390 0.949 . S
C3396 C3400 1.368 . S
C3397 C3378 1.429 . S
C3397 C3391 1.429 . S
C3397 C3398 1.523 . S
C3398 C3379 1.368 . S
C3398 C3392 1.368 . S
C3398 C3397 1.523 . S
C3399 C3383 1.429 . S
C3399 C3395 1.429 . S
C3399 C3400 1.523 . S
C3400 C3384 1.368 . S
C3400 C3396 1.368 . S
C3400 C3399 1.523 . S
H3401 C3376 0.950 . S
H3402 C3378 0.950 . S
H3403 C3379 0.949 . S
H3404 C3381 0.950 . S
H3405 C3383 0.950 . S
C3406 C3407 1.349 . S
C3406 C3408 1.327 . S
C3406 H3431 0.950 . S
C3407 C3406 1.349 . S
C3407 C3423 1.349 . S
C3408 C3406 1.327 . S
C3408 C3427 1.429 . S
C3408 H3432 0.950 . S
C3409 C3426 1.574 . S
C3409 C3428 1.368 . S
C3409 H3433 0.949 . S
H3410 C3414 0.949 . S
C3411 C3412 1.349 . S
C3411 C3413 1.327 . S
C3411 H3434 0.950 . S
C3412 C3411 1.349 . S
C3412 C3424 1.349 . S
C3413 C3411 1.327 . S
C3413 C3429 1.429 . S
C3413 H3435 0.950 . S
C3414 H3410 0.949 . S
C3414 C3422 1.574 . S
C3414 C3430 1.368 . S
H3415 C3423 0.950 . S
H3416 C3421 0.950 . S
H3417 C3422 0.949 . S
H3418 C3424 0.950 . S
H3419 C3425 0.950 . S
H3420 C3426 0.949 . S
C3421 H3416 0.950 . S
C3421 C3423 1.327 . S
C3421 C3427 1.429 . S
C3422 C3414 1.574 . S
C3422 H3417 0.949 . S
C3422 C3428 1.368 . S
C3423 C3407 1.349 . S
C3423 H3415 0.950 . S
C3423 C3421 1.327 . S
C3424 C3412 1.349 . S
C3424 H3418 0.950 . S
C3424 C3425 1.327 . S
C3425 H3419 0.950 . S
C3425 C3424 1.327 . S
C3425 C3429 1.429 . S
C3426 C3409 1.574 . S
C3426 H3420 0.949 . S
C3426 C3430 1.368 . S
C3427 C3408 1.429 . S
C3427 C3421 1.429 . S
C3427 C3428 1.523 . S
C3428 C3409 1.368 . S
C3428 C3422 1.368 . S
C3428 C3427 1.523 . S
C3429 C3413 1.429 . S
C3429 C3425 1.429 . S
C3429 C3430 1.523 . S
C3430 C3414 1.368 . S
C3430 C3426 1.368 . S
C3430 C3429 1.523 . S
H3431 C3406 0.950 . S
H3432 C3408 0.950 . S
H3433 C3409 0.949 . S
H3434 C3411 0.950 . S
H3435 C3413 0.950 . S
C3436 C3437 1.349 . S
C3436 C3438 1.327 . S
C3436 H3461 0.950 . S
C3437 C3436 1.349 . S
C3437 C3453 1.349 . S
C3438 C3436 1.327 . S
C3438 C3457 1.429 . S
C3438 H3462 0.950 . S
C3439 C3456 1.574 . S
C3439 C3458 1.368 . S
C3439 H3463 0.949 . S
H3440 C3444 0.949 1_455 S
C3441 C3442 1.349 1_655 S
C3441 C3443 1.327 . S
C3441 H3464 0.973 . S
C3442 C3441 1.349 1_455 S
C3442 C3454 1.349 . S
C3443 C3441 1.327 . S
C3443 C3459 1.429 . S
C3443 H3465 0.950 . S
C3444 H3440 0.949 1_655 S
C3444 C3452 1.574 . S
C3444 C3460 1.368 . S
H3445 C3453 0.950 . S
H3446 C3451 0.950 . S
H3447 C3452 0.949 . S
H3448 C3454 0.950 . S
H3449 C3455 0.950 . S
H3450 C3456 0.949 . S
C3451 H3446 0.950 . S
C3451 C3453 1.327 . S
C3451 C3457 1.429 . S
C3452 C3444 1.574 . S
C3452 H3447 0.949 . S
C3452 C3458 1.368 . S
C3453 C3437 1.349 . S
C3453 H3445 0.950 . S
C3453 C3451 1.327 . S
C3454 C3442 1.349 . S
C3454 H3448 0.950 . S
C3454 C3455 1.327 . S
C3455 H3449 0.950 . S
C3455 C3454 1.327 . S
C3455 C3459 1.429 1_455 S
C3456 C3439 1.574 . S
C3456 H3450 0.949 . S
C3456 C3460 1.368 . S
C3457 C3438 1.429 . S
C3457 C3451 1.429 . S
C3457 C3458 1.523 . S
C3458 C3439 1.368 . S
C3458 C3452 1.368 . S
C3458 C3457 1.523 . S
C3459 C3443 1.429 . S
C3459 C3455 1.429 1_655 S
C3459 C3460 1.523 . S
C3460 C3444 1.368 . S
C3460 C3456 1.368 . S
C3460 C3459 1.523 . S
H3461 C3436 0.950 . S
H3462 C3438 0.950 . S
H3463 C3439 0.949 . S
H3464 C3441 0.973 . S
H3465 C3443 0.950 . S
C3466 C3467 1.349 . S
C3466 C3468 1.327 . S
C3466 H3491 0.950 . S
C3467 C3466 1.349 . S
C3467 C3483 1.349 . S
C3468 C3466 1.327 . S
C3468 C3487 1.429 . S
C3468 H3492 0.950 . S
C3469 C3486 1.574 . S
C3469 C3488 1.368 . S
C3469 H3493 0.949 . S
H3470 C3474 0.949 . S
C3471 C3472 1.349 . S
C3471 C3473 1.327 . S
C3471 H3494 0.950 . S
C3472 C3471 1.349 . S
C3472 C3484 1.349 . S
C3473 C3471 1.327 . S
C3473 C3489 1.429 . S
C3473 H3495 0.950 . S
C3474 H3470 0.949 . S
C3474 C3482 1.574 . S
C3474 C3490 1.368 . S
H3475 C3483 0.950 . S
H3476 C3481 0.950 . S
H3477 C3482 0.949 . S
H3478 C3484 0.950 . S
H3479 C3485 0.950 . S
H3480 C3486 0.949 . S
C3481 H3476 0.950 . S
C3481 C3483 1.327 . S
C3481 C3487 1.429 . S
C3482 C3474 1.574 . S
C3482 H3477 0.949 . S
C3482 C3488 1.368 . S
C3483 C3467 1.349 . S
C3483 H3475 0.950 . S
C3483 C3481 1.327 . S
C3484 C3472 1.349 . S
C3484 H3478 0.950 . S
C3484 C3485 1.327 . S
C3485 H3479 0.950 . S
C3485 C3484 1.327 . S
C3485 C3489 1.429 . S
C3486 C3469 1.574 . S
C3486 H3480 0.949 . S
C3486 C3490 1.368 . S
C3487 C3468 1.429 . S
C3487 C3481 1.429 . S
C3487 C3488 1.523 . S
C3488 C3469 1.368 . S
C3488 C3482 1.368 . S
C3488 C3487 1.523 . S
C3489 C3473 1.429 . S
C3489 C3485 1.429 . S
C3489 C3490 1.523 . S
C3490 C3474 1.368 . S
C3490 C3486 1.368 . S
C3490 C3489 1.523 . S
H3491 C3466 0.950 . S
H3492 C3468 0.950 . S
H3493 C3469 0.949 . S
H3494 C3471 0.950 . S
H3495 C3473 0.950 . S
C3496 C3497 1.349 . S
C3496 C3498 1.327 . S
C3496 H3521 0.950 . S
C3497 C3496 1.349 . S
C3497 C3513 1.349 . S
C3498 C3496 1.327 . S
C3498 C3517 1.429 . S
C3498 H3522 0.950 . S
C3499 C3516 1.574 . S
C3499 C3518 1.368 . S
C3499 H3523 0.949 . S
H3500 C3504 0.949 . S
C3501 C3502 1.349 . S
C3501 C3503 1.327 . S
C3501 H3524 0.950 . S
C3502 C3501 1.349 . S
C3502 C3514 1.349 . S
C3503 C3501 1.327 . S
C3503 C3519 1.429 . S
C3503 H3525 0.950 . S
C3504 H3500 0.949 . S
C3504 C3512 1.574 . S
C3504 C3520 1.368 . S
H3505 C3513 0.950 . S
H3506 C3511 0.950 . S
H3507 C3512 0.949 . S
H3508 C3514 0.950 . S
H3509 C3515 0.950 . S
H3510 C3516 0.949 . S
C3511 H3506 0.950 . S
C3511 C3513 1.327 . S
C3511 C3517 1.429 . S
C3512 C3504 1.574 . S
C3512 H3507 0.949 . S
C3512 C3518 1.368 . S
C3513 C3497 1.349 . S
C3513 H3505 0.950 . S
C3513 C3511 1.327 . S
C3514 C3502 1.349 . S
C3514 H3508 0.950 . S
C3514 C3515 1.327 . S
C3515 H3509 0.950 . S
C3515 C3514 1.327 . S
C3515 C3519 1.429 . S
C3516 C3499 1.574 . S
C3516 H3510 0.949 . S
C3516 C3520 1.368 . S
C3517 C3498 1.429 . S
C3517 C3511 1.429 . S
C3517 C3518 1.523 . S
C3518 C3499 1.368 . S
C3518 C3512 1.368 . S
C3518 C3517 1.523 . S
C3519 C3503 1.429 . S
C3519 C3515 1.429 . S
C3519 C3520 1.523 . S
C3520 C3504 1.368 . S
C3520 C3516 1.368 . S
C3520 C3519 1.523 . S
H3521 C3496 0.950 . S
H3522 C3498 0.950 . S
H3523 C3499 0.949 . S
H3524 C3501 0.950 . S
H3525 C3503 0.950 . S
C3526 C3527 1.357 . S
C3526 C3528 1.327 . S
C3526 H3551 0.950 1_556 S
C3527 C3526 1.357 . S
C3527 C3543 1.394 . S
C3528 C3526 1.327 . S
C3528 C3547 1.429 . S
C3528 H3552 0.950 . S
C3529 C3546 1.574 . S
C3529 C3548 1.368 . S
C3529 H3553 0.949 . S
H3530 C3534 0.949 . S
C3531 C3532 1.349 . S
C3531 C3533 1.327 . S
C3531 H3554 0.950 . S
C3532 C3531 1.349 . S
C3532 C3544 1.349 . S
C3533 C3531 1.327 . S
C3533 C3549 1.429 . S
C3533 H3555 0.950 . S
C3534 H3530 0.949 . S
C3534 C3542 1.574 . S
C3534 C3550 1.368 . S
H3535 C3543 0.950 . S
H3536 C3541 0.950 . S
H3537 C3542 0.949 . S
H3538 C3544 0.950 . S
H3539 C3545 0.950 . S
H3540 C3546 0.949 . S
C3541 H3536 0.950 . S
C3541 C3543 1.327 . S
C3541 C3547 1.429 . S
C3542 C3534 1.574 . S
C3542 H3537 0.949 . S
C3542 C3548 1.368 . S
C3543 C3527 1.394 . S
C3543 H3535 0.950 . S
C3543 C3541 1.327 . S
C3544 C3532 1.349 . S
C3544 H3538 0.950 . S
C3544 C3545 1.327 . S
C3545 H3539 0.950 . S
C3545 C3544 1.327 . S
C3545 C3549 1.429 . S
C3546 C3529 1.574 . S
C3546 H3540 0.949 . S
C3546 C3550 1.368 . S
C3547 C3528 1.429 . S
C3547 C3541 1.429 . S
C3547 C3548 1.523 . S
C3548 C3529 1.368 . S
C3548 C3542 1.368 . S
C3548 C3547 1.523 . S
C3549 C3533 1.429 . S
C3549 C3545 1.429 . S
C3549 C3550 1.523 . S
C3550 C3534 1.368 . S
C3550 C3546 1.368 . S
C3550 C3549 1.523 . S
H3551 C3526 0.950 1_554 S
H3552 C3528 0.950 . S
H3553 C3529 0.949 . S
H3554 C3531 0.950 . S
H3555 C3533 0.950 . S
C3556 C3557 1.349 . S
C3556 C3558 1.327 . S
C3556 H3581 0.950 . S
C3557 C3556 1.349 . S
C3557 C3573 1.349 . S
C3558 C3556 1.327 . S
C3558 C3577 1.429 . S
C3558 H3582 0.950 . S
C3559 C3576 1.574 . S
C3559 C3578 1.368 . S
C3559 H3583 0.949 . S
H3560 C3564 0.949 . S
C3561 C3562 1.349 . S
C3561 C3563 1.327 . S
C3561 H3584 0.950 . S
C3562 C3561 1.349 . S
C3562 C3574 1.349 1_655 S
C3563 C3561 1.327 . S
C3563 C3579 1.429 . S
C3563 H3585 0.950 . S
C3564 H3560 0.949 . S
C3564 C3572 1.574 . S
C3564 C3580 1.368 . S
H3565 C3573 0.950 . S
H3566 C3571 0.950 . S
H3567 C3572 0.949 . S
H3568 C3574 0.950 . S
H3569 C3575 0.950 1_455 S
H3570 C3576 0.949 . S
C3571 H3566 0.950 . S
C3571 C3573 1.327 . S
C3571 C3577 1.429 . S
C3572 C3564 1.574 . S
C3572 H3567 0.949 . S
C3572 C3578 1.368 . S
C3573 C3557 1.349 . S
C3573 H3565 0.950 . S
C3573 C3571 1.327 . S
C3574 C3562 1.349 1_455 S
C3574 H3568 0.950 . S
C3574 C3575 1.327 1_455 S
C3575 H3569 0.950 1_655 S
C3575 C3574 1.327 1_655 S
C3575 C3579 1.429 . S
C3576 C3559 1.574 . S
C3576 H3570 0.949 . S
C3576 C3580 1.368 . S
C3577 C3558 1.429 . S
C3577 C3571 1.429 . S
C3577 C3578 1.523 . S
C3578 C3559 1.368 . S
C3578 C3572 1.368 . S
C3578 C3577 1.523 . S
C3579 C3563 1.429 . S
C3579 C3575 1.429 . S
C3579 C3580 1.523 . S
C3580 C3564 1.368 . S
C3580 C3576 1.368 . S
C3580 C3579 1.523 . S
H3581 C3556 0.950 . S
H3582 C3558 0.950 . S
H3583 C3559 0.949 . S
H3584 C3561 0.950 . S
H3585 C3563 0.950 . S
C3586 C3587 1.349 . S
C3586 C3588 1.327 . S
C3586 H3611 0.950 . S
C3587 C3586 1.349 . S
C3587 C3603 1.349 . S
C3588 C3586 1.327 . S
C3588 C3607 1.429 . S
C3588 H3612 0.950 . S
C3589 C3606 1.574 . S
C3589 C3608 1.368 . S
C3589 H3613 0.949 . S
H3590 C3594 0.949 . S
C3591 C3592 1.349 . S
C3591 C3593 1.327 . S
C3591 H3614 0.950 . S
C3592 C3591 1.349 . S
C3592 C3604 1.349 . S
C3593 C3591 1.327 . S
C3593 C3609 1.429 . S
C3593 H3615 0.950 . S
C3594 H3590 0.949 . S
C3594 C3602 1.574 . S
C3594 C3610 1.368 . S
H3595 C3603 0.950 . S
H3596 C3601 0.950 . S
H3597 C3602 0.949 . S
H3598 C3604 0.950 . S
H3599 C3605 0.950 . S
H3600 C3606 0.949 . S
C3601 H3596 0.950 . S
C3601 C3603 1.327 . S
C3601 C3607 1.429 . S
C3602 C3594 1.574 . S
C3602 H3597 0.949 . S
C3602 C3608 1.368 . S
C3603 C3587 1.349 . S
C3603 H3595 0.950 . S
C3603 C3601 1.327 . S
C3604 C3592 1.349 . S
C3604 H3598 0.950 . S
C3604 C3605 1.327 . S
C3605 H3599 0.950 . S
C3605 C3604 1.327 . S
C3605 C3609 1.429 . S
C3606 C3589 1.574 . S
C3606 H3600 0.949 . S
C3606 C3610 1.368 . S
C3607 C3588 1.429 . S
C3607 C3601 1.429 . S
C3607 C3608 1.523 . S
C3608 C3589 1.368 . S
C3608 C3602 1.368 . S
C3608 C3607 1.523 . S
C3609 C3593 1.429 . S
C3609 C3605 1.429 . S
C3609 C3610 1.523 . S
C3610 C3594 1.368 . S
C3610 C3606 1.368 . S
C3610 C3609 1.523 . S
H3611 C3586 0.950 . S
H3612 C3588 0.950 . S
H3613 C3589 0.949 . S
H3614 C3591 0.950 . S
H3615 C3593 0.950 . S
C3616 C3617 1.349 . S
C3616 C3618 1.327 . S
C3616 H3641 0.950 . S
C3617 C3616 1.349 . S
C3617 C3633 1.349 . S
C3618 C3616 1.327 . S
C3618 C3637 1.429 . S
C3618 H3642 0.950 . S
C3619 C3636 1.574 . S
C3619 C3638 1.368 . S
C3619 H3643 0.949 . S
H3620 C3624 0.949 . S
C3621 C3622 1.349 . S
C3621 C3623 1.327 . S
C3621 H3644 0.950 . S
C3622 C3621 1.349 . S
C3622 C3634 1.349 . S
C3623 C3621 1.327 . S
C3623 C3639 1.429 . S
C3623 H3645 0.950 . S
C3624 H3620 0.949 . S
C3624 C3632 1.574 . S
C3624 C3640 1.368 . S
H3625 C3633 0.950 . S
H3626 C3631 0.950 . S
H3627 C3632 0.949 . S
H3628 C3634 0.950 . S
H3629 C3635 0.950 . S
H3630 C3636 0.949 . S
C3631 H3626 0.950 . S
C3631 C3633 1.327 . S
C3631 C3637 1.429 . S
C3632 C3624 1.574 . S
C3632 H3627 0.949 . S
C3632 C3638 1.368 . S
C3633 C3617 1.349 . S
C3633 H3625 0.950 . S
C3633 C3631 1.327 . S
C3634 C3622 1.349 . S
C3634 H3628 0.950 . S
C3634 C3635 1.327 . S
C3635 H3629 0.950 . S
C3635 C3634 1.327 . S
C3635 C3639 1.429 . S
C3636 C3619 1.574 . S
C3636 H3630 0.949 . S
C3636 C3640 1.368 . S
C3637 C3618 1.429 . S
C3637 C3631 1.429 . S
C3637 C3638 1.523 . S
C3638 C3619 1.368 . S
C3638 C3632 1.368 . S
C3638 C3637 1.523 . S
C3639 C3623 1.429 . S
C3639 C3635 1.429 . S
C3639 C3640 1.523 . S
C3640 C3624 1.368 . S
C3640 C3636 1.368 . S
C3640 C3639 1.523 . S
H3641 C3616 0.950 . S
H3642 C3618 0.950 . S
H3643 C3619 0.949 . S
H3644 C3621 0.950 . S
H3645 C3623 0.950 . S
C3646 C3647 1.349 . S
C3646 C3648 1.327 . S
C3646 H3671 0.950 . S
C3647 C3646 1.349 . S
C3647 C3663 1.349 . S
C3648 C3646 1.327 . S
C3648 C3667 1.429 . S
C3648 H3672 0.950 . S
C3649 C3666 1.574 . S
C3649 C3668 1.372 . S
C3649 H3673 0.949 . S
H3650 C3654 0.950 1_565 S
C3651 C3652 1.349 . S
C3651 C3653 1.327 . S
C3651 H3674 0.950 . S
C3652 C3651 1.349 . S
C3652 C3664 1.349 . S
C3653 C3651 1.327 . S
C3653 C3669 1.429 . S
C3653 H3675 0.950 . S
C3654 H3650 0.950 1_545 S
C3654 C3662 1.574 1_545 S
C3654 C3670 1.367 . S
H3655 C3663 0.950 . S
H3656 C3661 0.950 1_545 S
H3657 C3662 0.949 . S
H3658 C3664 0.950 . S
H3659 C3665 0.950 . S
H3660 C3666 0.949 . S
C3661 H3656 0.950 1_565 S
C3661 C3663 1.327 . S
C3661 C3667 1.429 . S
C3662 C3654 1.574 1_565 S
C3662 H3657 0.949 . S
C3662 C3668 1.366 1_565 S
C3663 C3647 1.349 . S
C3663 H3655 0.950 . S
C3663 C3661 1.327 . S
C3664 C3652 1.349 . S
C3664 H3658 0.950 . S
C3664 C3665 1.327 . S
C3665 H3659 0.950 . S
C3665 C3664 1.327 . S
C3665 C3669 1.429 . S
C3666 C3649 1.574 . S
C3666 H3660 0.949 . S
C3666 C3670 1.368 . S
C3667 C3648 1.429 . S
C3667 C3661 1.429 . S
C3667 C3668 1.521 1_565 S
C3668 C3649 1.372 . S
C3668 C3662 1.366 1_545 S
C3668 C3667 1.521 1_545 S
C3669 C3653 1.429 . S
C3669 C3665 1.429 . S
C3669 C3670 1.523 . S
C3670 C3654 1.367 . S
C3670 C3666 1.368 . S
C3670 C3669 1.523 . S
H3671 C3646 0.950 . S
H3672 C3648 0.950 . S
H3673 C3649 0.949 . S
H3674 C3651 0.950 . S
H3675 C3653 0.950 . S
C3676 C3677 1.349 . S
C3676 C3678 1.327 . S
C3676 H3701 0.950 . S
C3677 C3676 1.349 . S
C3677 C3693 1.349 . S
C3678 C3676 1.327 . S
C3678 C3697 1.429 . S
C3678 H3702 0.950 . S
C3679 C3696 1.574 . S
C3679 C3698 1.368 . S
C3679 H3703 0.949 . S
H3680 C3684 0.949 . S
C3681 C3682 1.349 . S
C3681 C3683 1.327 . S
C3681 H3704 0.950 . S
C3682 C3681 1.349 . S
C3682 C3694 1.349 . S
C3683 C3681 1.327 . S
C3683 C3699 1.429 . S
C3683 H3705 0.950 . S
C3684 H3680 0.949 . S
C3684 C3692 1.574 . S
C3684 C3700 1.368 . S
H3685 C3693 0.950 . S
H3686 C3691 0.950 . S
H3687 C3692 0.949 . S
H3688 C3694 0.950 . S
H3689 C3695 0.950 . S
H3690 C3696 0.949 . S
C3691 H3686 0.950 . S
C3691 C3693 1.327 . S
C3691 C3697 1.429 . S
C3692 C3684 1.574 . S
C3692 H3687 0.949 . S
C3692 C3698 1.368 . S
C3693 C3677 1.349 . S
C3693 H3685 0.950 . S
C3693 C3691 1.327 . S
C3694 C3682 1.349 . S
C3694 H3688 0.950 . S
C3694 C3695 1.327 . S
C3695 H3689 0.950 . S
C3695 C3694 1.327 . S
C3695 C3699 1.429 . S
C3696 C3679 1.574 . S
C3696 H3690 0.949 . S
C3696 C3700 1.368 . S
C3697 C3678 1.429 . S
C3697 C3691 1.429 . S
C3697 C3698 1.523 . S
C3698 C3679 1.368 . S
C3698 C3692 1.368 . S
C3698 C3697 1.523 . S
C3699 C3683 1.429 . S
C3699 C3695 1.429 . S
C3699 C3700 1.523 . S
C3700 C3684 1.368 . S
C3700 C3696 1.368 . S
C3700 C3699 1.523 . S
H3701 C3676 0.950 . S
H3702 C3678 0.950 . S
H3703 C3679 0.949 . S
H3704 C3681 0.950 . S
H3705 C3683 0.950 . S
C3706 C3707 1.349 . S
C3706 C3708 1.327 . S
C3706 H3731 0.950 . S
C3707 C3706 1.349 . S
C3707 C3723 1.349 . S
C3708 C3706 1.327 . S
C3708 C3727 1.429 . S
C3708 H3732 0.950 . S
C3709 C3726 1.574 . S
C3709 C3728 1.368 . S
C3709 H3733 0.949 . S
H3710 C3714 0.949 . S
C3711 C3712 1.349 . S
C3711 C3713 1.327 . S
C3711 H3734 0.950 . S
C3712 C3711 1.349 . S
C3712 C3724 1.349 . S
C3713 C3711 1.327 . S
C3713 C3729 1.429 . S
C3713 H3735 0.950 . S
C3714 H3710 0.949 . S
C3714 C3722 1.574 . S
C3714 C3730 1.368 . S
H3715 C3723 0.950 . S
H3716 C3721 0.950 . S
H3717 C3722 0.949 . S
H3718 C3724 0.950 . S
H3719 C3725 0.950 . S
H3720 C3726 0.949 . S
C3721 H3716 0.950 . S
C3721 C3723 1.327 . S
C3721 C3727 1.429 . S
C3722 C3714 1.574 . S
C3722 H3717 0.949 . S
C3722 C3728 1.368 . S
C3723 C3707 1.349 . S
C3723 H3715 0.950 . S
C3723 C3721 1.327 . S
C3724 C3712 1.349 . S
C3724 H3718 0.950 . S
C3724 C3725 1.327 . S
C3725 H3719 0.950 . S
C3725 C3724 1.327 . S
C3725 C3729 1.429 . S
C3726 C3709 1.574 . S
C3726 H3720 0.949 . S
C3726 C3730 1.368 . S
C3727 C3708 1.429 . S
C3727 C3721 1.429 . S
C3727 C3728 1.523 . S
C3728 C3709 1.368 . S
C3728 C3722 1.368 . S
C3728 C3727 1.523 . S
C3729 C3713 1.429 . S
C3729 C3725 1.429 . S
C3729 C3730 1.523 . S
C3730 C3714 1.368 . S
C3730 C3726 1.368 . S
C3730 C3729 1.523 . S
H3731 C3706 0.950 . S
H3732 C3708 0.950 . S
H3733 C3709 0.949 . S
H3734 C3711 0.950 . S
H3735 C3713 0.950 . S
C3736 C3737 1.349 . S
C3736 C3738 1.327 . S
C3736 H3761 0.950 . S
C3737 C3736 1.349 . S
C3737 C3753 1.349 . S
C3738 C3736 1.327 . S
C3738 C3757 1.429 . S
C3738 H3762 0.950 . S
C3739 C3756 1.574 . S
C3739 C3758 1.368 . S
C3739 H3763 0.949 . S
H3740 C3744 0.949 . S
C3741 C3742 1.349 . S
C3741 C3743 1.327 . S
C3741 H3764 0.950 . S
C3742 C3741 1.349 . S
C3742 C3754 1.349 . S
C3743 C3741 1.327 . S
C3743 C3759 1.429 . S
C3743 H3765 0.950 . S
C3744 H3740 0.949 . S
C3744 C3752 1.574 . S
C3744 C3760 1.368 . S
H3745 C3753 0.950 . S
H3746 C3751 0.950 . S
H3747 C3752 0.949 . S
H3748 C3754 0.950 . S
H3749 C3755 0.950 . S
H3750 C3756 0.949 . S
C3751 H3746 0.950 . S
C3751 C3753 1.327 . S
C3751 C3757 1.429 . S
C3752 C3744 1.574 . S
C3752 H3747 0.949 . S
C3752 C3758 1.368 . S
C3753 C3737 1.349 . S
C3753 H3745 0.950 . S
C3753 C3751 1.327 . S
C3754 C3742 1.349 . S
C3754 H3748 0.950 . S
C3754 C3755 1.327 . S
C3755 H3749 0.950 . S
C3755 C3754 1.327 . S
C3755 C3759 1.429 . S
C3756 C3739 1.574 . S
C3756 H3750 0.949 . S
C3756 C3760 1.368 . S
C3757 C3738 1.429 . S
C3757 C3751 1.429 . S
C3757 C3758 1.523 . S
C3758 C3739 1.368 . S
C3758 C3752 1.368 . S
C3758 C3757 1.523 . S
C3759 C3743 1.429 . S
C3759 C3755 1.429 . S
C3759 C3760 1.523 . S
C3760 C3744 1.368 . S
C3760 C3756 1.368 . S
C3760 C3759 1.523 . S
H3761 C3736 0.950 . S
H3762 C3738 0.950 . S
H3763 C3739 0.949 . S
H3764 C3741 0.950 . S
H3765 C3743 0.950 . S
C3766 C3767 1.349 . S
C3766 C3768 1.327 . S
C3766 H3791 0.950 . S
C3767 C3766 1.349 . S
C3767 C3783 1.349 . S
C3768 C3766 1.327 . S
C3768 C3787 1.429 . S
C3768 H3792 0.950 . S
C3769 C3786 1.574 . S
C3769 C3788 1.368 . S
C3769 H3793 0.949 . S
H3770 C3774 0.949 . S
C3771 C3772 1.349 . S
C3771 C3773 1.327 . S
C3771 H3794 0.950 . S
C3772 C3771 1.349 . S
C3772 C3784 1.349 . S
C3773 C3771 1.327 . S
C3773 C3789 1.429 . S
C3773 H3795 0.950 . S
C3774 H3770 0.949 . S
C3774 C3782 1.574 . S
C3774 C3790 1.368 . S
H3775 C3783 0.950 . S
H3776 C3781 0.950 . S
H3777 C3782 0.949 . S
H3778 C3784 0.950 . S
H3779 C3785 0.950 . S
H3780 C3786 0.949 . S
C3781 H3776 0.950 . S
C3781 C3783 1.327 . S
C3781 C3787 1.429 . S
C3782 C3774 1.574 . S
C3782 H3777 0.949 . S
C3782 C3788 1.368 . S
C3783 C3767 1.349 . S
C3783 H3775 0.950 . S
C3783 C3781 1.327 . S
C3784 C3772 1.349 . S
C3784 H3778 0.950 . S
C3784 C3785 1.327 . S
C3785 H3779 0.950 . S
C3785 C3784 1.327 . S
C3785 C3789 1.429 . S
C3786 C3769 1.574 . S
C3786 H3780 0.949 . S
C3786 C3790 1.368 . S
C3787 C3768 1.429 . S
C3787 C3781 1.429 . S
C3787 C3788 1.523 . S
C3788 C3769 1.368 . S
C3788 C3782 1.368 . S
C3788 C3787 1.523 . S
C3789 C3773 1.429 . S
C3789 C3785 1.429 . S
C3789 C3790 1.523 . S
C3790 C3774 1.368 . S
C3790 C3786 1.368 . S
C3790 C3789 1.523 . S
H3791 C3766 0.950 . S
H3792 C3768 0.950 . S
H3793 C3769 0.949 . S
H3794 C3771 0.950 . S
H3795 C3773 0.950 . S
C3796 C3797 1.349 1_565 S
C3796 C3798 1.327 . S
C3796 H3821 0.950 . S
C3797 C3796 1.349 1_545 S
C3797 C3813 1.342 1_545 S
C3798 C3796 1.327 . S
C3798 C3817 1.429 . S
C3798 H3822 0.950 . S
C3799 C3816 1.574 . S
C3799 C3818 1.368 . S
C3799 H3823 0.949 . S
H3800 C3804 0.949 . S
C3801 C3802 1.349 . S
C3801 C3803 1.327 . S
C3801 H3824 0.950 . S
C3802 C3801 1.349 . S
C3802 C3814 1.349 . S
C3803 C3801 1.327 . S
C3803 C3819 1.429 . S
C3803 H3825 0.950 . S
C3804 H3800 0.949 . S
C3804 C3812 1.574 . S
C3804 C3820 1.368 . S
H3805 C3813 0.924 1_545 S
H3806 C3811 0.950 . S
H3807 C3812 0.949 . S
H3808 C3814 0.950 . S
H3809 C3815 0.950 . S
H3810 C3816 0.949 . S
C3811 H3806 0.950 . S
C3811 C3813 1.360 . S
C3811 C3817 1.429 . S
C3812 C3804 1.574 . S
C3812 H3807 0.949 . S
C3812 C3818 1.368 . S
C3813 C3797 1.342 1_565 S
C3813 H3805 0.924 1_565 S
C3813 C3811 1.360 . S
C3814 C3802 1.349 . S
C3814 H3808 0.950 . S
C3814 C3815 1.327 . S
C3815 H3809 0.950 . S
C3815 C3814 1.327 . S
C3815 C3819 1.429 . S
C3816 C3799 1.574 . S
C3816 H3810 0.949 . S
C3816 C3820 1.368 . S
C3817 C3798 1.429 . S
C3817 C3811 1.429 . S
C3817 C3818 1.523 . S
C3818 C3799 1.368 . S
C3818 C3812 1.368 . S
C3818 C3817 1.523 . S
C3819 C3803 1.429 . S
C3819 C3815 1.429 . S
C3819 C3820 1.523 . S
C3820 C3804 1.368 . S
C3820 C3816 1.368 . S
C3820 C3819 1.523 . S
H3821 C3796 0.950 . S
H3822 C3798 0.950 . S
H3823 C3799 0.949 . S
H3824 C3801 0.950 . S
H3825 C3803 0.950 . S
C3826 C3827 1.349 . S
C3826 C3828 1.327 . S
C3826 H3851 0.950 . S
C3827 C3826 1.349 . S
C3827 C3843 1.349 . S
C3828 C3826 1.327 . S
C3828 C3847 1.429 . S
C3828 H3852 0.950 . S
C3829 C3846 1.574 . S
C3829 C3848 1.368 . S
C3829 H3853 0.949 . S
H3830 C3834 0.949 . S
C3831 C3832 1.349 . S
C3831 C3833 1.327 . S
C3831 H3854 0.950 . S
C3832 C3831 1.349 . S
C3832 C3844 1.349 . S
C3833 C3831 1.327 . S
C3833 C3849 1.429 . S
C3833 H3855 0.950 . S
C3834 H3830 0.949 . S
C3834 C3842 1.574 . S
C3834 C3850 1.368 . S
H3835 C3843 0.950 . S
H3836 C3841 0.950 . S
H3837 C3842 0.949 . S
H3838 C3844 0.950 . S
H3839 C3845 0.950 . S
H3840 C3846 0.949 . S
C3841 H3836 0.950 . S
C3841 C3843 1.327 . S
C3841 C3847 1.429 . S
C3842 C3834 1.574 . S
C3842 H3837 0.949 . S
C3842 C3848 1.368 . S
C3843 C3827 1.349 . S
C3843 H3835 0.950 . S
C3843 C3841 1.327 . S
C3844 C3832 1.349 . S
C3844 H3838 0.950 . S
C3844 C3845 1.327 . S
C3845 H3839 0.950 . S
C3845 C3844 1.327 . S
C3845 C3849 1.429 . S
C3846 C3829 1.574 . S
C3846 H3840 0.949 . S
C3846 C3850 1.368 . S
C3847 C3828 1.429 . S
C3847 C3841 1.429 . S
C3847 C3848 1.523 . S
C3848 C3829 1.368 . S
C3848 C3842 1.368 . S
C3848 C3847 1.523 . S
C3849 C3833 1.429 . S
C3849 C3845 1.429 . S
C3849 C3850 1.523 . S
C3850 C3834 1.368 . S
C3850 C3846 1.368 . S
C3850 C3849 1.523 . S
H3851 C3826 0.950 . S
H3852 C3828 0.950 . S
H3853 C3829 0.949 . S
H3854 C3831 0.950 . S
H3855 C3833 0.950 . S
C977 C109 1.155 . S
C982 C342 1.129 . S
C1007 C65 1.919 . S
C1012 C394 1.797 . S
C1037 C75 1.279 . S
C1042 C426 1.285 1_565 S
C1072 C475 2.591 . S
C1067 C84 2.599 . S
C1097 C25 0.840 . S
C1102 C511 0.831 . S
C1132 C542 0.350 . S
C1127 C28 0.251 . S
C1162 C594 0.479 . S
C1157 C47 0.349 . S
C1187 C9 1.000 . S
C1192 C622 0.966 . S
C1222 C354 1.920 . S
C1217 C233 2.076 . S
C1247 C249 1.483 . S
C1252 C395 1.507 . S
C1282 C425 1.927 . S
C1277 C275 2.077 1_545 S
C1312 C462 0.367 . S
C1307 C173 0.225 . S
C1337 C224 1.859 . S
C1342 C506 1.890 1_655 S
C1372 C554 1.988 . S
C1367 C243 2.049 . S
C1402 C595 1.405 1_556 S
C1397 C266 1.381 . S
C1432 C634 1.435 . S
C1427 C179 1.553 . S
C1462 C355 2.295 . S
C1457 C163 2.296 . S
C1487 C289 1.691 . S
C1492 C665 1.578 . S
C1522 C715 2.398 . S
C1517 C333 2.389 . S
C1552 C742 0.929 . S
C1547 C308 0.930 . S
C1577 C123 2.458 . S
C1582 C635 2.477 . S
C1607 C126 0.970 . S
C1612 C431 0.951 . S
C1637 C327 2.552 . S
C1642 C794 2.437 . S
C1672 C822 0.993 . S
C1667 C299 1.015 . S
C1702 C351 1.121 . S
C1697 C67 1.146 . S
C1732 C825 1.814 . S
C1727 C98 1.940 . S
C1757 C89 1.317 . S
C1762 C435 1.323 . S
C1787 C79 2.634 . S
C1792 C786 2.653 . S
C1822 C502 0.833 1_655 S
C1817 C11 0.852 . S
C1847 C51 0.144 . S
C1852 C711 0.330 . S
C1882 C585 0.487 . S
C1877 C33 0.384 . S
C1912 C871 0.888 . S
C1907 C14 0.905 . S
C1942 C345 1.903 1_556 S
C1937 C140 2.030 . S
C1972 C826 1.530 . S
C1967 C319 1.518 . S
C1997 C112 2.065 . S
C2002 C434 1.954 . S
C2027 C285 0.227 . S
C2032 C791 0.359 . S
C2057 C149 1.918 . S
C2062 C515 1.919 . S
C2092 C705 2.019 . S
C2087 C313 2.079 . S
C2117 C121 1.487 . S
C2122 C586 1.485 . S
C2147 C291 1.537 . S
C2152 C865 1.433 . S
C2177 C182 2.289 . S
C2182 C346 2.310 . S
C2207 C168 1.711 . S
C2212 C674 1.643 . S
C2237 C263 2.465 . S
C2242 C546 2.470 . S
C2267 C247 0.996 . S
C2272 C751 0.985 . S
C2302 C866 2.465 . S
C2297 C277 2.447 . S
C2327 C219 1.027 . S
C2332 C422 0.988 . S
C2362 C465 2.482 . S
C2357 C257 2.598 . S
C2392 C391 0.998 . S
C2387 C201 1.019 . S
C2417 C81 1.155 . S
C2422 C902 1.129 . S
C2452 C834 1.797 . S
C2447 C93 1.919 . S
C2477 C103 1.279 . S
C2482 C946 1.285 . S
C2507 C56 2.599 . S
C2512 C795 2.592 . S
C2537 C53 0.840 . S
C2542 C671 0.831 . S
C2572 C702 0.350 . S
C2567 C0 0.251 . S
C2602 C754 0.479 . S
C2597 C19 0.350 . S
C2632 C862 0.966 . S
C2627 C37 1.000 . S
C2662 C914 1.920 . S
C2657 C261 2.076 . S
C2687 C193 1.483 . S
C2692 C835 1.507 . S
C2722 C945 1.927 . S
C2717 C205 2.077 . S
C2752 C782 0.367 . S
C2747 C215 0.225 . S
C2782 C666 1.889 1_556 S
C2777 C252 1.858 . S
C2807 C187 2.050 . S
C2812 C714 1.988 . S
C2842 C755 1.405 . S
C2837 C196 1.381 . S
C2867 C221 1.553 . S
C2872 C874 1.435 . S
C2902 C915 2.295 . S
C2897 C317 2.296 . S
C2927 C135 1.677 . S
C2932 C505 1.580 . S
C2962 C555 2.399 . S
C2957 C151 2.389 . S
C2992 C582 0.929 . S
C2987 C154 0.930 . S
C3022 C875 2.477 . S
C3017 C305 2.457 . S
C3047 C280 0.970 . S
C3052 C951 0.952 . S
C3082 C474 2.437 . S
C3077 C145 2.552 . S
C3112 C382 0.993 . S
C3107 C117 1.016 . S
C3137 C95 1.146 . S
C3142 C911 1.121 . S
C3172 C385 1.814 . S
C3167 C70 1.941 . S
C3197 C61 1.317 . S
C3202 C955 1.323 . S
C3227 C107 2.634 . S
C3232 C466 2.653 . S
C3257 C39 0.852 . S
C3262 C662 0.841 . S
C3292 C551 0.330 . S
C3287 C23 0.144 . S
C3317 C5 0.384 . S
C3322 C745 0.487 . S
C3347 C42 0.905 . S
C3352 C631 0.889 . S
C3382 C905 1.903 . S
C3377 C322 2.030 . S
C3407 C165 1.518 . S
C3412 C386 1.529 . S
C3442 C954 1.953 1_556 S
C3437 C294 2.065 . S
C3467 C131 0.227 . S
C3472 C471 0.363 . S
C3497 C331 1.918 . S
C3502 C675 1.919 . S
C3532 C545 2.019 . S
C3527 C159 2.026 1_556 S
C3557 C303 1.487 . S
C3562 C746 1.485 1_655 S
C3592 C625 1.429 . S
C3587 C137 1.537 . S
C3622 C906 2.310 . S
C3617 C238 2.289 . S
C3652 C514 1.643 . S
C3647 C210 1.711 . S
C3677 C235 2.466 . S
C3682 C706 2.470 . S
C3712 C591 0.986 . S
C3707 C191 0.997 . S
C3737 C207 2.447 . S
C3742 C626 2.464 . S
C3767 C177 1.027 . S
C3772 C942 0.988 . S
C3802 C785 2.482 . S
C3797 C229 2.598 . S
C3832 C831 0.998 . S
C3827 C271 1.019 . S
