# Generated by pormake.
# Topology ocu, (6,8)-cn, num edge types: 1
# Building blocks:
#     Node 0, Type 0, BuildingBlock: BETDEL_clean_sbu_0, # of connection points: 6
#     Node 1, Type 0, BuildingBlock: BETDEL_clean_sbu_0, # of connection points: 6
#     Node 2, Type 0, BuildingBlock: BETDEL_clean_sbu_0, # of connection points: 6
#     Node 3, Type 0, BuildingBlock: BETDEL_clean_sbu_0, # of connection points: 6
#     Node 4, Type 0, BuildingBlock: BETDEL_clean_sbu_0, # of connection points: 6
#     Node 5, Type 0, BuildingBlock: BETDEL_clean_sbu_0, # of connection points: 6
#     Node 6, Type 0, BuildingBlock: BETDEL_clean_sbu_0, # of connection points: 6
#     Node 7, Type 0, BuildingBlock: BETDEL_clean_sbu_0, # of connection points: 6
#     Node 8, Type 1, BuildingBlock: TAGTUT_clean_sbu_1, # of connection points: 8
#     Node 9, Type 1, BuildingBlock: TAGTUT_clean_sbu_1, # of connection points: 8
#     Node 10, Type 1, BuildingBlock: TAGTUT_clean_sbu_1, # of connection points: 8
#     Node 11, Type 1, BuildingBlock: TAGTUT_clean_sbu_1, # of connection points: 8
#     Node 12, Type 1, BuildingBlock: TAGTUT_clean_sbu_1, # of connection points: 8
#     Node 13, Type 1, BuildingBlock: TAGTUT_clean_sbu_1, # of connection points: 8
#     Edge 14, Type (0, 1), BuildingBlock: AJUNOK_clean_linker_0, # of connection points: 2
#     Edge 15, Type (0, 1), BuildingBlock: AJUNOK_clean_linker_0, # of connection points: 2
#     Edge 16, Type (0, 1), BuildingBlock: AJUNOK_clean_linker_0, # of connection points: 2
#     Edge 17, Type (0, 1), BuildingBlock: AJUNOK_clean_linker_0, # of connection points: 2
#     Edge 18, Type (0, 1), BuildingBlock: AJUNOK_clean_linker_0, # of connection points: 2
#     Edge 19, Type (0, 1), BuildingBlock: AJUNOK_clean_linker_0, # of connection points: 2
#     Edge 20, Type (0, 1), BuildingBlock: AJUNOK_clean_linker_0, # of connection points: 2
#     Edge 21, Type (0, 1), BuildingBlock: AJUNOK_clean_linker_0, # of connection points: 2
#     Edge 22, Type (0, 1), BuildingBlock: AJUNOK_clean_linker_0, # of connection points: 2
#     Edge 23, Type (0, 1), BuildingBlock: AJUNOK_clean_linker_0, # of connection points: 2
#     Edge 24, Type (0, 1), BuildingBlock: AJUNOK_clean_linker_0, # of connection points: 2
#     Edge 25, Type (0, 1), BuildingBlock: AJUNOK_clean_linker_0, # of connection points: 2
#     Edge 26, Type (0, 1), BuildingBlock: AJUNOK_clean_linker_0, # of connection points: 2
#     Edge 27, Type (0, 1), BuildingBlock: AJUNOK_clean_linker_0, # of connection points: 2
#     Edge 28, Type (0, 1), BuildingBlock: AJUNOK_clean_linker_0, # of connection points: 2
#     Edge 29, Type (0, 1), BuildingBlock: AJUNOK_clean_linker_0, # of connection points: 2
#     Edge 30, Type (0, 1), BuildingBlock: AJUNOK_clean_linker_0, # of connection points: 2
#     Edge 31, Type (0, 1), BuildingBlock: AJUNOK_clean_linker_0, # of connection points: 2
#     Edge 32, Type (0, 1), BuildingBlock: AJUNOK_clean_linker_0, # of connection points: 2
#     Edge 33, Type (0, 1), BuildingBlock: AJUNOK_clean_linker_0, # of connection points: 2
#     Edge 34, Type (0, 1), BuildingBlock: AJUNOK_clean_linker_0, # of connection points: 2
#     Edge 35, Type (0, 1), BuildingBlock: AJUNOK_clean_linker_0, # of connection points: 2
#     Edge 36, Type (0, 1), BuildingBlock: AJUNOK_clean_linker_0, # of connection points: 2
#     Edge 37, Type (0, 1), BuildingBlock: AJUNOK_clean_linker_0, # of connection points: 2
#     Edge 38, Type (0, 1), BuildingBlock: AJUNOK_clean_linker_0, # of connection points: 2
#     Edge 39, Type (0, 1), BuildingBlock: AJUNOK_clean_linker_0, # of connection points: 2
#     Edge 40, Type (0, 1), BuildingBlock: AJUNOK_clean_linker_0, # of connection points: 2
#     Edge 41, Type (0, 1), BuildingBlock: AJUNOK_clean_linker_0, # of connection points: 2
#     Edge 42, Type (0, 1), BuildingBlock: AJUNOK_clean_linker_0, # of connection points: 2
#     Edge 43, Type (0, 1), BuildingBlock: AJUNOK_clean_linker_0, # of connection points: 2
#     Edge 44, Type (0, 1), BuildingBlock: AJUNOK_clean_linker_0, # of connection points: 2
#     Edge 45, Type (0, 1), BuildingBlock: AJUNOK_clean_linker_0, # of connection points: 2
#     Edge 46, Type (0, 1), BuildingBlock: AJUNOK_clean_linker_0, # of connection points: 2
#     Edge 47, Type (0, 1), BuildingBlock: AJUNOK_clean_linker_0, # of connection points: 2
#     Edge 48, Type (0, 1), BuildingBlock: AJUNOK_clean_linker_0, # of connection points: 2
#     Edge 49, Type (0, 1), BuildingBlock: AJUNOK_clean_linker_0, # of connection points: 2
#     Edge 50, Type (0, 1), BuildingBlock: AJUNOK_clean_linker_0, # of connection points: 2
#     Edge 51, Type (0, 1), BuildingBlock: AJUNOK_clean_linker_0, # of connection points: 2
#     Edge 52, Type (0, 1), BuildingBlock: AJUNOK_clean_linker_0, # of connection points: 2
#     Edge 53, Type (0, 1), BuildingBlock: AJUNOK_clean_linker_0, # of connection points: 2
#     Edge 54, Type (0, 1), BuildingBlock: AJUNOK_clean_linker_0, # of connection points: 2
#     Edge 55, Type (0, 1), BuildingBlock: AJUNOK_clean_linker_0, # of connection points: 2
#     Edge 56, Type (0, 1), BuildingBlock: AJUNOK_clean_linker_0, # of connection points: 2
#     Edge 57, Type (0, 1), BuildingBlock: AJUNOK_clean_linker_0, # of connection points: 2
#     Edge 58, Type (0, 1), BuildingBlock: AJUNOK_clean_linker_0, # of connection points: 2
#     Edge 59, Type (0, 1), BuildingBlock: AJUNOK_clean_linker_0, # of connection points: 2
#     Edge 60, Type (0, 1), BuildingBlock: AJUNOK_clean_linker_0, # of connection points: 2
#     Edge 61, Type (0, 1), BuildingBlock: AJUNOK_clean_linker_0, # of connection points: 2
# Relax obj value: 0.090
# Max RMSD: 0.261
# Mean RMSD: 0.143
data_MOF--net-ocu--node1-BETDEL_clean_sbu_0--node2-TAGTUT_clean_sbu_1--edge1-AJUNOK_clean_linker_0
_symmetry_space_group_name_H-M    P1
_symmetry_Int_Tables_number       1
_symmetry_cell_setting            triclinic
loop_
_symmetry_equiv_pos_as_xyz
'x, y, z'
_cell_length_a     29.454207
_cell_length_b     28.648157
_cell_length_c     29.859349
_cell_angle_alpha  91.065052
_cell_angle_beta   93.20726
_cell_angle_gamma 109.70966
loop_
_atom_site_label
_atom_site_type_symbol
_atom_site_fract_x
_atom_site_fract_y
_atom_site_fract_z
_atom_type_partial_charge
Dy0 Dy 0.29468 0.24003 0.27016 0.0
C1 C 0.1588 0.28647 0.15556 0.0
C2 C 0.34419 0.18979 0.3146 0.0
Dy3 Dy 0.20931 0.23617 0.19855 0.0
O4 O 0.35618 0.23808 0.31724 0.0
O5 O 0.30327 0.16993 0.29166 0.0
O6 O 0.35493 0.3013 0.2397 0.0
O7 O 0.28607 0.27607 0.20914 0.0
C8 C 0.32882 0.30451 0.20398 0.0
C9 C 0.17466 0.17172 0.26446 0.0
O10 O 0.24683 0.19562 0.15527 0.0
O11 O 0.30039 0.18887 0.21315 0.0
O12 O 0.14765 0.23832 0.15169 0.0
O13 O 0.19955 0.30639 0.17881 0.0
O14 O 0.1491 0.1751 0.22844 0.0
O15 O 0.2177 0.19984 0.25971 0.0
O16 O 0.25697 0.27991 0.31373 0.0
O17 O 0.20297 0.28634 0.25603 0.0
C18 C 0.28221 0.17946 0.17075 0.0
C19 C 0.22089 0.29506 0.29852 0.0
Dy20 Dy 0.79462 0.22236 0.24182 0.0
C21 C 0.64026 0.29876 0.19589 0.0
C22 C 0.86621 0.19209 0.27793 0.0
Dy23 Dy 0.71145 0.26552 0.22821 0.0
O24 O 0.86237 0.23531 0.28555 0.0
O25 O 0.83092 0.16553 0.25034 0.0
O26 O 0.78615 0.19597 0.1696 0.0
O27 O 0.72629 0.20117 0.20207 0.0
C28 C 0.74138 0.19405 0.16469 0.0
C29 C 0.76468 0.2926 0.30557 0.0
O30 O 0.67226 0.19853 0.2639 0.0
O31 O 0.74012 0.17886 0.28827 0.0
O32 O 0.6792 0.32546 0.21921 0.0
O33 O 0.64042 0.25378 0.18996 0.0
O34 O 0.72013 0.29114 0.3008 0.0
O35 O 0.77957 0.28646 0.26793 0.0
O36 O 0.83387 0.2903 0.20706 0.0
O37 O 0.7649 0.30543 0.17938 0.0
C38 C 0.69351 0.17287 0.28833 0.0
C39 C 0.81217 0.31401 0.18073 0.0
Dy40 Dy 0.71871 0.73447 0.27057 0.0
C41 C 0.82461 0.71863 0.12448 0.0
C42 C 0.68642 0.77088 0.3414 0.0
Dy43 Dy 0.79226 0.7536 0.19587 0.0
O44 O 0.67096 0.72395 0.32857 0.0
O45 O 0.71766 0.79699 0.31475 0.0
O46 O 0.67613 0.65843 0.23973 0.0
O47 O 0.71643 0.71627 0.20103 0.0
C48 C 0.69294 0.67073 0.2003 0.0
C49 C 0.81707 0.81821 0.26471 0.0
O50 O 0.74492 0.79594 0.16665 0.0
O51 O 0.69028 0.78244 0.22279 0.0
O52 O 0.84113 0.76506 0.13878 0.0
O53 O 0.79258 0.69199 0.15017 0.0
O54 O 0.83425 0.83001 0.22538 0.0
O55 O 0.79438 0.77247 0.26494 0.0
O56 O 0.76704 0.69397 0.301 0.0
O57 O 0.82039 0.7054 0.24391 0.0
C58 C 0.70629 0.80218 0.18381 0.0
C59 C 0.80499 0.68664 0.28343 0.0
Dy60 Dy 0.28047 0.70175 0.23157 0.0
C61 C 0.21319 0.84406 0.30032 0.0
C62 C 0.30566 0.63337 0.18588 0.0
Dy63 Dy 0.2348 0.78398 0.24212 0.0
O64 O 0.33157 0.66101 0.21958 0.0
O65 O 0.26551 0.64197 0.17899 0.0
O66 O 0.30951 0.71563 0.30389 0.0
O67 O 0.30098 0.77304 0.26492 0.0
C68 C 0.31145 0.76189 0.30363 0.0
C69 C 0.20542 0.72534 0.16922 0.0
O70 O 0.29874 0.82794 0.20796 0.0
O71 O 0.32141 0.76114 0.18537 0.0
O72 O 0.19848 0.83932 0.25777 0.0
O73 O 0.23981 0.81734 0.30965 0.0
O74 O 0.20442 0.77072 0.17005 0.0
O75 O 0.21553 0.71368 0.20775 0.0
O76 O 0.21719 0.65827 0.26779 0.0
O77 O 0.18534 0.72142 0.27951 0.0
C78 C 0.32585 0.80897 0.18489 0.0
C79 C 0.18491 0.67536 0.28467 0.0
Dy80 Dy 0.29315 0.71628 0.73804 0.0
C81 C 0.14242 0.79806 0.69498 0.0
C82 C 0.36104 0.67732 0.76804 0.0
Dy83 Dy 0.21391 0.76518 0.72804 0.0
O84 O 0.32338 0.65447 0.74144 0.0
O85 O 0.36174 0.72183 0.77816 0.0
O86 O 0.27485 0.68582 0.66696 0.0
O87 O 0.22108 0.69538 0.70586 0.0
C88 C 0.23002 0.68348 0.66733 0.0
C89 C 0.27739 0.79863 0.79854 0.0
O90 O 0.17583 0.70271 0.76964 0.0
O91 O 0.24357 0.68176 0.79137 0.0
O92 O 0.17742 0.82256 0.72383 0.0
O93 O 0.14682 0.75582 0.68407 0.0
O94 O 0.23269 0.79705 0.79885 0.0
O95 O 0.28583 0.78606 0.76009 0.0
O96 O 0.33252 0.77823 0.69765 0.0
O97 O 0.26647 0.80285 0.67708 0.0
C98 C 0.19757 0.67734 0.79396 0.0
C99 C 0.31192 0.80488 0.67395 0.0
Dy100 Dy 0.21567 0.23478 0.7753 0.0
C101 C 0.3207 0.20843 0.62733 0.0
C102 C 0.18458 0.27528 0.84439 0.0
Dy103 Dy 0.28645 0.24547 0.69673 0.0
O104 O 0.17086 0.22758 0.83511 0.0
O105 O 0.21311 0.29997 0.815 0.0
O106 O 0.17148 0.15668 0.74986 0.0
O107 O 0.21178 0.21057 0.70762 0.0
C108 C 0.18829 0.16549 0.71001 0.0
C109 C 0.31423 0.31449 0.76248 0.0
O110 O 0.23638 0.2835 0.66464 0.0
O111 O 0.18741 0.28037 0.72445 0.0
O112 O 0.33453 0.25551 0.63911 0.0
O113 O 0.28934 0.18234 0.65394 0.0
O114 O 0.33136 0.32304 0.7228 0.0
O115 O 0.29038 0.2695 0.76454 0.0
O116 O 0.26858 0.20062 0.80815 0.0
O117 O 0.3124 0.19673 0.74609 0.0
C118 C 0.20044 0.29433 0.68298 0.0
C119 C 0.30194 0.18631 0.78879 0.0
Dy120 Dy 0.77698 0.20739 0.73488 0.0
C121 C 0.69758 0.35667 0.77444 0.0
C122 C 0.80493 0.13643 0.69637 0.0
Dy123 Dy 0.72864 0.28815 0.73563 0.0
O124 O 0.83035 0.16808 0.7279 0.0
O125 O 0.76379 0.14255 0.68811 0.0
O126 O 0.79961 0.22362 0.80847 0.0
O127 O 0.79299 0.2794 0.7665 0.0
C128 C 0.80003 0.26934 0.80645 0.0
C129 C 0.70674 0.22635 0.66415 0.0
O130 O 0.79375 0.33051 0.70254 0.0
O131 O 0.82086 0.26433 0.68871 0.0
O132 O 0.67364 0.32531 0.74215 0.0
O133 O 0.73958 0.35237 0.78268 0.0
O134 O 0.70672 0.27188 0.66176 0.0
O135 O 0.71295 0.21637 0.70422 0.0
O136 O 0.71135 0.16521 0.76754 0.0
O137 O 0.685 0.23166 0.78211 0.0
C138 C 0.82394 0.31141 0.68469 0.0
C139 C 0.68168 0.18459 0.78599 0.0
Dy140 Dy 0.7947 0.74412 0.76499 0.0
C141 C 0.66206 0.78388 0.66238 0.0
C142 C 0.85215 0.70079 0.80797 0.0
Dy143 Dy 0.71513 0.73575 0.70545 0.0
O144 O 0.86447 0.74854 0.80311 0.0
O145 O 0.80759 0.67869 0.79368 0.0
O146 O 0.8367 0.82079 0.74322 0.0
O147 O 0.7926 0.76761 0.69584 0.0
C148 C 0.82058 0.81216 0.70129 0.0
C149 C 0.68777 0.66779 0.76931 0.0
O150 O 0.74439 0.69128 0.6577 0.0
O151 O 0.8016 0.6885 0.71184 0.0
O152 O 0.6466 0.73603 0.66767 0.0
O153 O 0.70702 0.80312 0.67638 0.0
O154 O 0.67096 0.66026 0.72748 0.0
O155 O 0.71726 0.71185 0.77488 0.0
O156 O 0.7636 0.78761 0.81273 0.0
O157 O 0.7092 0.79255 0.75705 0.0
C158 C 0.78028 0.67524 0.67093 0.0
C159 C 0.72872 0.80475 0.79849 0.0
C160 C 0.89559 0.09009 0.54548 0.0
C161 C 0.95064 0.10168 0.41125 0.0
C162 C 0.92227 0.90883 0.42478 0.0
Mg163 Mg 0.99417 0.1047 0.50624 0.0
O164 O 0.96613 0.03586 0.50769 0.0
Mg165 Mg 0.90248 0.00179 0.4747 0.0
Mg166 Mg 1.00244 -0.00562 0.48705 0.0
O167 O 0.03949 0.9532 0.46692 0.0
Mg168 Mg 0.01167 0.88444 0.47071 0.0
Mg169 Mg 0.10194 0.9885 0.50281 0.0
C170 C 0.08172 0.07895 0.55099 0.0
C171 C 0.08997 0.06153 0.42328 0.0
O172 O 0.87498 0.05121 0.51995 0.0
O173 O 0.94031 0.11627 0.54441 0.0
O174 O 0.91946 0.06004 0.42021 0.0
O175 O 0.98617 0.12481 0.43873 0.0
O176 O 0.0629 0.11225 0.54146 0.0
O177 O 0.06274 0.03397 0.53693 0.0
C178 C 0.91685 0.92844 0.55225 0.0
O179 O 0.9611 0.9388 0.54212 0.0
O180 O 0.88849 0.94672 0.53079 0.0
O181 O 0.13161 0.93979 0.46151 0.0
O182 O 0.06849 0.87231 0.4362 0.0
O183 O 0.08384 0.93092 0.55783 0.0
C184 C 0.11322 0.89937 0.43785 0.0
O185 O 0.01776 0.86576 0.53942 0.0
O186 O 0.94267 0.87681 0.43487 0.0
C187 C 0.0527 0.8895 0.56728 0.0
O188 O 0.94053 0.95452 0.43772 0.0
O189 O 0.04492 0.04957 0.43171 0.0
O190 O 0.11811 0.04454 0.44679 0.0
C191 C 0.38438 0.08731 0.04885 0.0
C192 C 0.41428 0.09527 0.91041 0.0
C193 C 0.42818 0.89845 0.93483 0.0
Mg194 Mg 0.48057 0.10441 0.00115 0.0
O195 O 0.46461 0.0356 0.00198 0.0
Mg196 Mg 0.39778 -0.00479 0.97793 0.0
Mg197 Mg 0.50686 -0.00553 0.98485 0.0
O198 O 0.54873 0.95294 0.9672 0.0
Mg199 Mg 0.53238 0.88395 0.97091 0.0
Mg200 Mg 0.616 -0.00612 -0.01098 0.0
C201 C 0.58672 0.09142 0.03392 0.0
C202 C 0.57773 0.0546 0.91234 0.0
O203 O 0.36559 0.04674 0.02431 0.0
O204 O 0.4295 0.11303 0.04845 0.0
O205 O 0.39437 0.04873 0.91752 0.0
O206 O 0.45018 0.12251 0.93638 0.0
O207 O 0.55719 0.11558 0.02543 0.0
O208 O 0.57448 0.04393 0.02613 0.0
C209 C 0.43399 0.93436 0.05612 0.0
O210 O 0.47706 0.94622 0.04345 0.0
O211 O 0.4013 0.94837 0.03662 0.0
O212 O 0.64715 0.94163 0.94252 0.0
O213 O 0.58361 0.87273 0.92438 0.0
O214 O 0.62052 0.94088 0.04869 0.0
C215 C 0.62814 0.89918 0.92086 0.0
O216 O 0.56078 0.86816 0.03789 0.0
O217 O 0.45661 0.87328 0.94406 0.0
C218 C 0.59911 0.89618 0.06045 0.0
O219 O 0.44049 0.94574 0.94289 0.0
O220 O 0.53546 0.04265 0.92662 0.0
O221 O 0.61117 0.04053 0.93022 0.0
C222 C 0.90756 0.61879 0.003 0.0
C223 C 0.96009 0.58998 0.88377 0.0
C224 C 0.92 0.40148 0.94107 0.0
Mg225 Mg 0.00373 0.60848 0.97769 0.0
O226 O 0.97164 0.5449 -0.00328 0.0
Mg227 Mg 0.90879 0.50871 0.96242 0.0
Mg228 Mg 0.00586 0.49723 -0.01214 0.0
O229 O 0.0399 0.44959 0.97829 0.0
Mg230 Mg 0.00817 0.38514 -0.00437 0.0
Mg231 Mg 0.10309 0.48562 0.01181 0.0
C232 C 0.09203 0.59264 0.03296 0.0
C233 C 0.09326 0.54557 0.92404 0.0
O234 O 0.88541 0.57303 -0.00952 0.0
O235 O 0.95328 0.63964 0.00124 0.0
O236 O 0.92702 0.55365 0.89922 0.0
O237 O 0.99901 0.61233 0.90707 0.0
O238 O 0.07249 0.62095 0.01284 0.0
O239 O 0.07042 0.54537 0.03449 0.0
C240 C 0.91796 0.44869 0.05113 0.0
O241 O 0.96247 0.45531 0.04506 0.0
O242 O 0.89229 0.46605 0.02491 0.0
O243 O 0.12686 0.42233 0.98227 0.0
O244 O 0.05954 0.35518 0.97113 0.0
O245 O 0.08433 0.43928 0.07388 0.0
C246 C 0.10514 0.37679 0.96893 0.0
O247 O 0.01169 0.38151 0.06631 0.0
O248 O 0.93932 0.37251 0.96034 0.0
C249 C 0.05131 0.40272 0.08914 0.0
O250 O 0.94166 0.44887 0.94111 0.0
O251 O 0.04907 0.53934 0.93106 0.0
O252 O 0.11972 0.52862 0.94961 0.0
C253 C 0.39339 0.58604 0.03343 0.0
C254 C 0.44696 0.58704 0.89983 0.0
C255 C 0.42031 0.40172 0.9224 0.0
Mg256 Mg 0.49216 0.59778 -0.00529 0.0
O257 O 0.46403 0.52972 0.00335 0.0
Mg258 Mg 0.40052 0.49334 0.96965 0.0
Mg259 Mg 0.50076 0.48779 0.98439 0.0
O260 O 0.53672 0.44588 0.96486 0.0
Mg261 Mg 0.50756 0.3771 0.9695 0.0
Mg262 Mg 0.60013 0.48098 -0.00156 0.0
C263 C 0.58163 0.57564 0.04303 0.0
C264 C 0.58801 0.554 0.9196 0.0
O265 O 0.37286 0.54461 0.01141 0.0
O266 O 0.43786 0.61253 0.03058 0.0
O267 O 0.41633 0.54751 0.91318 0.0
O268 O 0.48377 0.61247 0.92495 0.0
O269 O 0.56171 0.60711 0.02994 0.0
O270 O 0.56264 0.5291 0.03371 0.0
C271 C 0.41363 0.42083 0.04876 0.0
O272 O 0.45872 0.43312 0.04055 0.0
O273 O 0.38565 0.43854 0.02599 0.0
O274 O 0.62661 0.43009 0.95394 0.0
O275 O 0.56118 0.36356 0.93235 0.0
O276 O 0.58168 0.42447 0.0541 0.0
C277 C 0.6054 0.39047 0.92942 0.0
O278 O 0.51456 0.35947 0.03815 0.0
O279 O 0.43894 0.36862 0.9332 0.0
C280 C 0.54999 0.38414 0.06511 0.0
O281 O 0.4395 0.44703 0.93548 0.0
O282 O 0.54287 0.54175 0.92769 0.0
O283 O 0.61631 0.53711 0.94287 0.0
C284 C 0.88229 0.58551 0.5459 0.0
C285 C 0.90978 0.58822 0.4052 0.0
C286 C 0.91955 0.39121 0.43605 0.0
Mg287 Mg 0.97731 0.60035 0.49482 0.0
O288 O 0.96078 0.53139 0.49749 0.0
Mg289 Mg 0.89295 0.49073 0.47679 0.0
Mg290 Mg 1.00166 0.48835 0.48084 0.0
O291 O 0.04209 0.44494 0.46451 0.0
Mg292 Mg 0.0243 0.37619 0.47069 0.0
Mg293 Mg 0.10978 0.48529 0.48604 0.0
C294 C 0.08171 0.58459 0.52903 0.0
C295 C 0.07281 0.54394 0.40647 0.0
O296 O 0.86286 0.54375 0.52324 0.0
O297 O 0.92705 0.61146 0.54279 0.0
O298 O 0.88831 0.54318 0.41634 0.0
O299 O 0.94788 0.6161 0.42821 0.0
O300 O 0.05326 0.60989 0.52039 0.0
O301 O 0.06912 0.53723 0.52112 0.0
C302 C 0.93134 0.43212 0.55501 0.0
O303 O 0.97361 0.44303 0.54089 0.0
O304 O 0.89808 0.44569 0.53614 0.0
O305 O 0.13907 0.43097 0.44073 0.0
O306 O 0.07412 0.36296 0.42407 0.0
O307 O 0.11466 0.43384 0.54728 0.0
C308 C 0.11875 0.38837 0.41964 0.0
O309 O 0.05424 0.36143 0.53763 0.0
O310 O 0.94765 0.36579 0.44589 0.0
C311 C 0.0931 0.38932 0.5596 0.0
O312 O 0.93356 0.43903 0.44153 0.0
O313 O 0.03049 0.53398 0.42053 0.0
O314 O 0.10542 0.52981 0.42591 0.0
C315 C 0.40766 0.10931 0.50727 0.0
C316 C 0.45669 0.08038 0.38569 0.0
C317 C 0.4247 0.89446 0.44261 0.0
Mg318 Mg 0.50407 0.10168 0.47838 0.0
O319 O 0.47434 0.03788 0.49817 0.0
Mg320 Mg 0.41055 0.00011 0.4659 0.0
Mg321 Mg 0.50987 0.99162 0.48735 0.0
O322 O 0.54512 0.94527 0.47633 0.0
Mg323 Mg 0.51457 0.8822 0.49742 0.0
Mg324 Mg 0.60904 0.98262 0.50836 0.0
C325 C 0.59552 0.08859 0.53101 0.0
C326 C 0.59453 0.04222 0.42126 0.0
O327 O 0.38611 0.06321 0.49547 0.0
O328 O 0.453 0.13126 0.50392 0.0
O329 O 0.42494 0.04419 0.40259 0.0
O330 O 0.49652 0.10343 0.40738 0.0
O331 O 0.57425 0.1161 0.512 0.0
O332 O 0.57528 0.04112 0.53241 0.0
C333 C 0.42458 0.94102 0.55259 0.0
O334 O 0.46864 0.94794 0.54448 0.0
O335 O 0.39717 0.95812 0.52847 0.0
O336 O 0.63233 0.91871 0.47879 0.0
O337 O 0.56495 0.85106 0.47339 0.0
O338 O 0.59405 0.93804 0.57206 0.0
C339 C 0.61007 0.8723 0.46854 0.0
O340 O 0.52051 0.88226 0.56838 0.0
O341 O 0.44521 0.86687 0.46251 0.0
C342 C 0.56102 0.90342 0.58957 0.0
O343 O 0.44493 0.94202 0.44223 0.0
O344 O 0.55067 0.03513 0.43013 0.0
O345 O 0.62243 0.02513 0.44492 0.0
C346 C 0.18214 0.13877 0.34257 0.0
C347 C 0.15325 0.14443 0.30532 0.0
C348 C 0.16136 0.11312 0.38062 0.0
C349 C 0.11059 0.09254 0.38383 0.0
H350 H 0.22113 0.15378 0.34221 0.0
H351 H 0.18558 0.10919 0.4078 0.0
S352 S 0.01873 0.09857 0.29594 0.0
N353 N 0.0708 0.128 0.27472 0.0
N354 N 0.03239 0.08082 0.34567 0.0
C355 C 0.08144 0.09895 0.34712 0.0
C356 C 0.10254 0.12449 0.30821 0.0
C357 C 0.88877 0.12052 0.30296 0.0
C358 C 0.89806 0.17193 0.30483 0.0
C359 C 0.90904 0.09826 0.33596 0.0
C360 C 0.94022 0.12674 0.37127 0.0
H361 H 0.86279 0.09678 0.2779 0.0
H362 H 0.89791 0.05819 0.33528 0.0
S363 S 0.98087 0.26378 0.38755 0.0
N364 N 0.944 0.25149 0.34186 0.0
N365 N 0.98323 0.20976 0.40351 0.0
C366 C 0.95341 0.17876 0.37102 0.0
C367 C 0.93206 0.20137 0.33776 0.0
C368 C 0.82475 0.82445 0.34775 0.0
C369 C 0.83484 0.84802 0.30667 0.0
C370 C 0.84947 0.84724 0.38782 0.0
C371 C 0.88464 0.89448 0.38816 0.0
H372 H 0.80038 0.78656 0.34872 0.0
H373 H 0.84391 0.82618 0.41804 0.0
S374 S 0.91925 0.97473 0.29092 0.0
N375 N 0.87792 0.92335 0.26955 0.0
N376 N 0.92469 0.96666 0.34534 0.0
C377 C 0.8915 0.92061 0.34824 0.0
C378 C 0.86655 0.89712 0.30722 0.0
C379 C 0.18235 0.8352 0.37517 0.0
C380 C 0.19129 0.86238 0.33584 0.0
C381 C 0.15753 0.84784 0.40895 0.0
C382 C 0.14258 0.88888 0.40471 0.0
H383 H 0.19294 0.8027 0.37922 0.0
H384 H 0.14949 0.8252 0.4381 0.0
S385 S 0.16019 0.97412 0.31036 0.0
N386 N 0.18486 0.93275 0.29522 0.0
N387 N 0.13959 0.95825 0.36024 0.0
C388 C 0.1528 0.91761 0.36655 0.0
C389 C 0.17694 0.90388 0.33153 0.0
C390 C 0.12061 0.87102 0.67206 0.0
C391 C 0.1095 0.81934 0.67084 0.0
C392 C 0.09822 0.89347 0.64087 0.0
C393 C 0.06351 0.86499 0.60775 0.0
H394 H 0.14952 0.89462 0.69483 0.0
H395 H 0.11091 0.9336 0.64066 0.0
S396 S 0.01414 0.72726 0.59746 0.0
N397 N 0.05626 0.73966 0.63912 0.0
N398 N 0.01339 0.78165 0.58076 0.0
C399 C 0.04803 0.81289 0.60976 0.0
C400 C 0.07136 0.79008 0.64123 0.0
C401 C 0.18244 0.15686 0.62754 0.0
C402 C 0.1699 0.13457 0.66891 0.0
C403 C 0.157 0.13535 0.58759 0.0
C404 C 0.11873 0.09058 0.58768 0.0
H405 H 0.20924 0.1934 0.62607 0.0
H406 H 0.16458 0.15588 0.55715 0.0
S407 S 0.077 0.01277 0.68522 0.0
N408 N 0.12118 0.06207 0.70661 0.0
N409 N 0.0731 0.02073 0.63066 0.0
C410 C 0.10929 0.06487 0.62773 0.0
C411 C 0.13497 0.08723 0.66877 0.0
C412 C 0.87665 0.1318 0.66104 0.0
C413 C 0.8263 0.11469 0.66229 0.0
C414 C 0.89825 0.12459 0.6225 0.0
C415 C 0.87032 0.09928 0.58397 0.0
H416 H 0.89961 0.1535 0.689 0.0
H417 H 0.93735 0.1392 0.62316 0.0
S418 S 0.73672 0.04209 0.57248 0.0
N419 N 0.74874 0.06792 0.62364 0.0
N420 N 0.78965 0.05345 0.55089 0.0
C421 C 0.81989 0.07933 0.58574 0.0
C422 C 0.79781 0.08706 0.62509 0.0
C423 C 0.85594 0.8926 0.66227 0.0
C424 C 0.8477 0.84138 0.66411 0.0
C425 C 0.87966 0.92045 0.62664 0.0
C426 C 0.89777 0.89879 0.59209 0.0
H427 H 0.84265 0.91103 0.68786 0.0
H428 H 0.88338 0.95937 0.62583 0.0
S429 S 0.88825 0.76664 0.5824 0.0
N430 N 0.86102 0.77044 0.62856 0.0
N431 N 0.90677 0.82312 0.56283 0.0
C432 C 0.89125 0.84803 0.59429 0.0
C433 C 0.86596 0.81931 0.62994 0.0
C434 C 0.2893 0.1393 0.09437 0.0
C435 C 0.30534 0.15171 0.14009 0.0
C436 C 0.31309 0.11626 0.06535 0.0
C437 C 0.35455 0.10514 0.0804 0.0
H438 H 0.25857 0.14819 0.08056 0.0
H439 H 0.29997 0.10885 0.03044 0.0
S440 S 0.41055 0.1265 0.19677 0.0
N441 N 0.365 0.14757 0.19869 0.0
N442 N 0.40918 0.10646 0.14439 0.0
C443 C 0.3703 0.11631 0.12592 0.0
C444 C 0.34595 0.13885 0.15555 0.0
C445 C 0.81705 0.36097 0.11159 0.0
C446 C 0.84086 0.34974 0.1497 0.0
C447 C 0.8426 0.39347 0.08053 0.0
C448 C 0.89308 0.41635 0.08632 0.0
H449 H 0.77833 0.34381 0.10501 0.0
H450 H 0.82242 0.39984 0.05121 0.0
S451 S 0.97218 0.40263 0.18252 0.0
N452 N 0.91755 0.36563 0.19297 0.0
N453 N 0.96575 0.42805 0.13444 0.0
C454 C 0.91744 0.40642 0.12476 0.0
C455 C 0.89128 0.37278 0.1565 0.0
C456 C 0.70123 0.87008 0.13163 0.0
C457 C 0.67756 0.82795 0.15597 0.0
C458 C 0.67545 0.893 0.10316 0.0
C459 C 0.6244 0.87429 0.0961 0.0
H460 H 0.74034 0.88549 0.1344 0.0
H461 H 0.69614 0.92474 0.08504 0.0
S462 S 0.54447 0.7639 0.15091 0.0
N463 N 0.59934 0.76872 0.1711 0.0
N464 N 0.55144 0.81008 0.11662 0.0
C465 C 0.60024 0.83209 0.1203 0.0
C466 C 0.6265 0.80954 0.15032 0.0
C467 C 0.16233 0.63846 0.14138 0.0
C468 C 0.1865 0.68845 0.13199 0.0
C469 C 0.13678 0.60395 0.10719 0.0
C470 C 0.13496 0.61866 0.06277 0.0
H471 H 0.16004 0.62673 0.17572 0.0
H472 H 0.11436 0.56735 0.11637 0.0
S473 S 0.20419 0.74119 0.0196 0.0
N474 N 0.21548 0.74819 0.07461 0.0
N475 N 0.16838 0.6831 0.00988 0.0
C476 C 0.16471 0.66663 0.05239 0.0
C477 C 0.18995 0.70186 0.08723 0.0
C478 C 0.30381 0.83769 0.87587 0.0
C479 C 0.31566 0.82456 0.83341 0.0
C480 C 0.34014 0.86289 0.90907 0.0
C481 C 0.38905 0.87516 0.90054 0.0
H482 H 0.26634 0.82821 0.88355 0.0
H483 H 0.33003 0.87194 0.94159 0.0
S484 S 0.43935 0.85278 0.79441 0.0
N485 N 0.38022 0.8289 0.78438 0.0
N486 N 0.44779 0.87487 0.84679 0.0
C487 C 0.40126 0.8631 0.8582 0.0
C488 C 0.36471 0.83805 0.82457 0.0
C489 C 0.12762 0.2737 0.90318 0.0
C490 C 0.16958 0.29924 0.88194 0.0
C491 C 0.10888 0.29848 0.93406 0.0
C492 C 0.13166 0.34958 0.94485 0.0
H493 H 0.10773 0.23508 0.89418 0.0
H494 H 0.07499 0.27785 0.94789 0.0
S495 S 0.24814 0.43038 0.90437 0.0
N496 N 0.23739 0.37616 0.87812 0.0
N497 N 0.2024 0.42286 0.93629 0.0
C498 C 0.17615 0.37429 0.92674 0.0
C499 C 0.195 0.34908 0.89508 0.0
C500 C 0.63357 0.10013 0.80667 0.0
C501 C 0.64427 0.15168 0.81245 0.0
C502 C 0.60711 0.06777 0.83734 0.0
C503 C 0.58978 0.08585 0.8741 0.0
H504 H 0.64826 0.08475 0.77991 0.0
H505 H 0.60307 0.02879 0.83404 0.0
S506 S 0.5996 0.21582 0.89994 0.0
N507 N 0.62951 0.2185 0.85431 0.0
N508 N 0.57877 0.15659 0.91202 0.0
C509 C 0.59539 0.13631 0.8778 0.0
C510 C 0.6229 0.16966 0.84672 0.0
C511 C 0.93104 0.69779 0.84034 0.0
C512 C 0.88539 0.67357 0.81875 0.0
C513 C 0.96019 0.67063 0.85526 0.0
C514 C 0.94407 0.61839 0.84943 0.0
H515 H 0.94299 0.73732 0.84823 0.0
H516 H 0.99294 0.69019 0.87569 0.0
S517 S 0.83412 0.54025 0.78254 0.0
N518 N 0.83051 0.59651 0.7828 0.0
N519 N 0.88512 0.54571 0.81158 0.0
C520 C 0.90174 0.59515 0.82228 0.0
C521 C 0.8721 0.62262 0.80714 0.0
C522 C 0.14343 0.36611 0.15378 0.0
C523 C 0.12625 0.31449 0.14507 0.0
C524 C 0.11472 0.3948 0.14294 0.0
C525 C 0.06819 0.37303 0.1218 0.0
H526 H 0.18014 0.38498 0.16735 0.0
H527 H 0.13106 0.43482 0.14669 0.0
S528 S 1.00154 0.23767 0.10517 0.0
N529 N 0.05642 0.24146 0.12428 0.0
N530 N 1.00207 0.29541 0.1032 0.0
C531 C 0.04824 0.32072 0.11903 0.0
C532 C 0.07766 0.29144 0.13014 0.0
C533 C 0.13415 0.65309 0.8483 0.0
C534 C 0.16921 0.64178 0.82471 0.0
C535 C 0.10854 0.62087 0.87974 0.0
C536 C 0.11617 0.57586 0.88739 0.0
H537 H 0.12798 0.68798 0.84386 0.0
H538 H 0.08484 0.63264 0.89991 0.0
S539 S 0.20182 0.52778 0.8318 0.0
N540 N 0.20936 0.58205 0.80962 0.0
N541 N 0.15981 0.52058 0.868 0.0
C542 C 0.15022 0.5635 0.86308 0.0
C543 C 0.17699 0.59668 0.83171 0.0
C544 C 0.33696 0.11716 0.80764 0.0
C545 C 0.33285 0.16393 0.81798 0.0
C546 C 0.36376 0.09536 0.8367 0.0
C547 C 0.38953 0.12008 0.87673 0.0
H548 H 0.31806 0.09645 0.77751 0.0
H549 H 0.3641 0.05868 0.82777 0.0
S550 S 0.39194 0.24416 0.91856 0.0
N551 N 0.35749 0.234 0.87137 0.0
N552 N 0.40878 0.19503 0.92411 0.0
C553 C 0.38663 0.16751 0.8865 0.0
C554 C 0.35825 0.18878 0.85778 0.0
C555 C 0.81999 0.29431 0.88736 0.0
C556 C 0.82061 0.30783 0.8425 0.0
C557 C 0.84729 0.32825 0.92121 0.0
C558 C 0.87679 0.37647 0.91109 0.0
H559 H 0.80059 0.25654 0.89602 0.0
H560 H 0.8489 0.31515 0.95489 0.0
S561 S 0.88544 0.43198 0.7998 0.0
N562 N 0.84807 0.37457 0.79048 0.0
N563 N 0.89991 0.43789 0.85425 0.0
C564 C 0.87349 0.39202 0.86724 0.0
C565 C 0.84548 0.35758 0.83274 0.0
C566 C 0.72515 0.85079 0.87313 0.0
C567 C 0.70567 0.83267 0.8292 0.0
C568 C 0.7016 0.8743 0.90208 0.0
C569 C 0.65685 0.87997 0.88892 0.0
H570 H 0.75863 0.84633 0.88554 0.0
H571 H 0.71775 0.88655 0.9356 0.0
S572 S 0.59049 0.84147 0.77754 0.0
N573 N 0.6387 0.82489 0.77423 0.0
N574 N 0.59514 0.86683 0.82839 0.0
C575 C 0.63747 0.86274 0.84515 0.0
C576 C 0.66156 0.83985 0.81551 0.0
C577 C 0.88697 0.72112 0.07128 0.0
C578 C 0.84104 0.69727 0.08634 0.0
C579 C 0.90683 0.69658 0.04129 0.0
C580 C 0.88129 0.6474 0.02543 0.0
H581 H 0.90889 0.75764 0.08483 0.0
H582 H 0.94358 0.71548 0.03261 0.0
S583 S 0.75463 0.57397 0.04714 0.0
N584 N 0.76701 0.62579 0.07783 0.0
N585 N 0.8041 0.57951 0.02115 0.0
C586 C 0.83321 0.62535 0.03673 0.0
C587 C 0.81316 0.65033 0.06744 0.0
C588 C 0.38402 0.82337 0.12455 0.0
C589 C 0.36231 0.84272 0.15772 0.0
C590 C 0.41259 0.85446 0.09369 0.0
C591 C 0.42039 0.9055 0.0957 0.0
H592 H 0.37649 0.78376 0.12052 0.0
H593 H 0.42533 0.83808 0.06618 0.0
S594 S 0.37927 0.97601 0.17993 0.0
N595 N 0.35629 0.91757 0.19368 0.0
N596 N 0.41011 0.97524 0.13564 0.0
C597 C 0.40281 0.92586 0.13084 0.0
C598 C 0.37363 0.89458 0.16197 0.0
C599 C 0.6777 0.19375 0.107 0.0
C600 C 0.70859 0.1704 0.12568 0.0
C601 C 0.64098 0.16904 0.07447 0.0
C602 C 0.63282 0.11935 0.0602 0.0
H603 H 0.68119 0.23098 0.11842 0.0
H604 H 0.61725 0.18853 0.06237 0.0
S605 S 0.70817 0.04406 0.09665 0.0
N606 N 0.7326 0.09733 0.12542 0.0
N607 N 0.66255 0.04978 0.06519 0.0
C608 C 0.66571 0.09679 0.07699 0.0
C609 C 0.7038 0.12256 0.1096 0.0
C610 C 0.678 0.65207 0.85233 0.0
C611 C 0.66081 0.63882 0.80717 0.0
C612 C 0.65316 0.62584 0.88837 0.0
C613 C 0.6091 0.58593 0.88125 0.0
H614 H 0.71146 0.68256 0.85998 0.0
H615 H 0.66896 0.63658 0.92225 0.0
S616 S 0.54917 0.53489 0.76984 0.0
N617 N 0.59725 0.58158 0.75779 0.0
N618 N 0.55037 0.53365 0.82519 0.0
C619 C 0.59122 0.57265 0.83642 0.0
C620 C 0.61703 0.59865 0.79963 0.0
C621 C 0.43188 0.68108 0.81918 0.0
C622 C 0.39093 0.65268 0.79213 0.0
C623 C 0.45355 0.65871 0.85119 0.0
C624 C 0.43417 0.60739 0.85771 0.0
H625 H 0.44539 0.72116 0.81761 0.0
H626 H 0.48299 0.68241 0.87338 0.0
S627 S 0.33143 0.51605 0.79042 0.0
N628 N 0.33593 0.57013 0.76936 0.0
N629 N 0.37508 0.52823 0.83055 0.0
C630 C 0.39587 0.5782 0.82792 0.0
C631 C 0.37458 0.60086 0.79482 0.0
C632 C 0.31901 0.32466 0.84511 0.0
C633 C 0.33299 0.34549 0.80349 0.0
C634 C 0.34448 0.34634 0.8851 0.0
C635 C 0.38444 0.38968 0.88467 0.0
H636 H 0.29082 0.28906 0.84683 0.0
H637 H 0.33531 0.32704 0.91599 0.0
S638 S 0.43188 0.46219 0.7857 0.0
N639 N 0.38562 0.41467 0.76488 0.0
N640 N 0.43446 0.45581 0.84056 0.0
C641 C 0.39599 0.41368 0.84404 0.0
C642 C 0.36996 0.39139 0.80316 0.0
C643 C 0.70171 0.39623 0.84945 0.0
C644 C 0.67425 0.37475 0.80954 0.0
C645 C 0.67929 0.40031 0.88861 0.0
C646 C 0.62874 0.38268 0.88912 0.0
H647 H 0.74082 0.40771 0.85112 0.0
H648 H 0.70164 0.41645 0.91883 0.0
S649 S 0.54081 0.33106 0.79117 0.0
N650 N 0.59431 0.3413 0.77129 0.0
N651 N 0.55178 0.34872 0.84474 0.0
C652 C 0.60091 0.36389 0.84859 0.0
C653 C 0.62381 0.36032 0.80872 0.0
C654 C 0.57256 0.28893 0.13896 0.0
C655 C 0.60675 0.31901 0.17151 0.0
C656 C 0.54944 0.30993 0.10705 0.0
C657 C 0.56027 0.36163 0.10665 0.0
H658 H 0.56638 0.24948 0.13587 0.0
H659 H 0.52661 0.28599 0.08019 0.0
S660 S 0.63762 0.45464 0.19166 0.0
N661 N 0.64308 0.40154 0.20684 0.0
N662 N 0.59992 0.44105 0.14648 0.0
C663 C 0.58983 0.39119 0.14228 0.0
C664 C 0.61311 0.36982 0.17488 0.0
C665 C 0.64244 0.59256 0.15823 0.0
C666 C 0.67362 0.64196 0.15777 0.0
C667 C 0.61642 0.56826 0.11882 0.0
C668 C 0.62083 0.5929 0.07812 0.0
H669 H 0.63575 0.57372 0.18957 0.0
H670 H 0.58944 0.53187 0.12115 0.0
S671 S 0.70375 0.7185 0.057 0.0
N672 N 0.71198 0.7119 0.11127 0.0
N673 N 0.66317 0.66565 0.03787 0.0
C674 C 0.65524 0.64011 0.07628 0.0
C675 C 0.6816 0.6649 0.11607 0.0
C676 C 0.37641 0.62937 0.14859 0.0
C677 C 0.32609 0.61308 0.15015 0.0
C678 C 0.39744 0.62216 0.10973 0.0
C679 C 0.3689 0.59756 0.0713 0.0
H680 H 0.39984 0.65004 0.17675 0.0
H681 H 0.43655 0.63557 0.11022 0.0
S682 S 0.23508 0.54434 0.05984 0.0
N683 N 0.24782 0.5693 0.11132 0.0
N684 N 0.28773 0.55443 0.03803 0.0
C685 C 0.31844 0.57916 0.07305 0.0
C686 C 0.29693 0.58709 0.11264 0.0
C687 C 0.39929 0.35993 0.16349 0.0
C688 C 0.34918 0.33288 0.16335 0.0
C689 C 0.42044 0.38637 0.12599 0.0
C690 C 0.39239 0.3876 0.08652 0.0
H691 H 0.42265 0.36091 0.19308 0.0
H692 H 0.45882 0.40718 0.12851 0.0
S693 S 0.26032 0.31935 0.06668 0.0
N694 N 0.27309 0.30617 0.11845 0.0
N695 N 0.31176 0.35634 0.04892 0.0
C696 C 0.34241 0.35963 0.08554 0.0
C697 C 0.32112 0.33226 0.12353 0.0
C698 C 0.85115 0.65012 0.64851 0.0
C699 C 0.80309 0.64881 0.6388 0.0
C700 C 0.87566 0.62947 0.61868 0.0
C701 C 0.85334 0.60473 0.57773 0.0
H702 H 0.87095 0.6687 0.67914 0.0
H703 H 0.91277 0.63295 0.62798 0.0
S704 S 0.72767 0.589 0.5357 0.0
N705 N 0.73421 0.62003 0.58423 0.0
N706 N 0.77937 0.5796 0.52944 0.0
C707 C 0.80491 0.60185 0.56788 0.0
C708 C 0.7802 0.6242 0.59787 0.0
C709 C 0.3438 0.88903 0.64491 0.0
C710 C 0.34194 0.83951 0.6439 0.0
C711 C 0.37352 0.92291 0.61691 0.0
C712 C 0.40179 0.90787 0.58727 0.0
H713 H 0.32231 0.90156 0.66745 0.0
H714 H 0.37351 0.96075 0.61754 0.0
S715 S 0.40478 0.78071 0.56903 0.0
N716 N 0.36865 0.77622 0.61027 0.0
N717 N 0.4225 0.83951 0.55564 0.0
C718 C 0.39961 0.85826 0.58569 0.0
C719 C 0.37007 0.82404 0.61466 0.0
C720 C 0.19562 0.36069 0.62851 0.0
C721 C 0.17185 0.32005 0.65457 0.0
C722 C 0.16992 0.38402 0.60024 0.0
C723 C 0.11872 0.36719 0.59502 0.0
H724 H 0.23475 0.37474 0.6299 0.0
H725 H 0.19069 0.41459 0.58088 0.0
S726 S 0.03837 0.2611 0.65469 0.0
N727 N 0.09333 0.26434 0.67327 0.0
N728 N 0.04552 0.30612 0.61905 0.0
C729 C 0.09446 0.32638 0.62082 0.0
C730 C 0.12072 0.30354 0.65071 0.0
C731 C 0.66589 0.13816 0.63848 0.0
C732 C 0.68966 0.18785 0.62784 0.0
C733 C 0.64078 0.10239 0.60505 0.0
C734 C 0.63877 0.1155 0.56014 0.0
H735 H 0.66332 0.12764 0.67317 0.0
H736 H 0.61858 0.06609 0.61513 0.0
S737 S 0.70676 0.23662 0.51384 0.0
N738 N 0.71815 0.24555 0.56874 0.0
N739 N 0.67146 0.17814 0.50561 0.0
C740 C 0.66812 0.16313 0.54859 0.0
C741 C 0.69315 0.19962 0.58262 0.0
C742 C 0.81281 0.36775 0.35167 0.0
C743 C 0.79735 0.31607 0.34455 0.0
C744 C 0.84991 0.39178 0.38429 0.0
C745 C 0.87279 0.36477 0.41066 0.0
H746 H 0.79788 0.38991 0.33034 0.0
H747 H 0.86267 0.43196 0.38674 0.0
S748 S 0.8383 0.22726 0.40944 0.0
N749 N 0.80252 0.23792 0.36935 0.0
N750 N 0.87181 0.28235 0.43125 0.0
C751 C 0.85447 0.31245 0.40605 0.0
C752 C 0.81694 0.28825 0.37265 0.0
C753 C 0.69364 0.8444 0.38973 0.0
C754 C 0.67081 0.79337 0.37956 0.0
C755 C 0.67613 0.86915 0.42154 0.0
C756 C 0.63499 0.84372 0.4442 0.0
H757 H 0.72418 0.86601 0.37166 0.0
H758 H 0.69323 0.90898 0.42622 0.0
S759 S 0.56796 0.7079 0.43574 0.0
N760 N 0.60941 0.71684 0.39875 0.0
N761 N 0.57629 0.76308 0.45915 0.0
C762 C 0.61444 0.79174 0.43716 0.0
C763 C 0.63238 0.76659 0.40461 0.0
C764 C 0.13959 0.58992 0.30594 0.0
C765 C 0.14638 0.64089 0.30922 0.0
C766 C 0.11047 0.55709 0.33484 0.0
C767 C 0.0868 0.57402 0.36755 0.0
H768 H 0.15903 0.5755 0.28269 0.0
H769 H 0.10933 0.51885 0.33384 0.0
S770 S 0.08536 0.70165 0.38501 0.0
N771 N 0.12145 0.70547 0.34379 0.0
N772 N 0.06633 0.64278 0.39835 0.0
C773 C 0.08888 0.62356 0.36826 0.0
C774 C 0.1189 0.65737 0.33892 0.0
C775 C 0.42323 0.18664 0.34564 0.0
C776 C 0.37666 0.16194 0.32603 0.0
C777 C 0.45371 0.16018 0.35836 0.0
C778 C 0.43804 0.10803 0.35262 0.0
H779 H 0.4355 0.22629 0.35293 0.0
H780 H 0.48754 0.18029 0.377 0.0
S781 S 0.32425 0.02799 0.29224 0.0
N782 N 0.31999 0.08398 0.29332 0.0
N783 N 0.37727 0.03446 0.31785 0.0
C784 C 0.39406 0.08405 0.32794 0.0
C785 C 0.36303 0.11085 0.315 0.0
C786 C 0.58427 0.79267 0.63368 0.0
C787 C 0.63182 0.81444 0.65197 0.0
C788 C 0.55722 0.82231 0.61977 0.0
C789 C 0.57734 0.87463 0.62331 0.0
H790 H 0.56886 0.75284 0.62773 0.0
H791 H 0.52245 0.80412 0.60191 0.0
S792 S 0.69486 0.94841 0.68134 0.0
N793 N 0.69384 0.89048 0.68229 0.0
N794 N 0.64293 0.94587 0.65567 0.0
C795 C 0.62216 0.89612 0.64725 0.0
C796 C 0.64972 0.86612 0.66127 0.0
C797 C 0.66596 0.09015 0.32134 0.0
C798 C 0.66481 0.13863 0.31966 0.0
C799 C 0.64129 0.05816 0.35353 0.0
C800 C 0.6154 0.07417 0.38493 0.0
H801 H 0.68632 0.07715 0.29793 0.0
H802 H 0.64315 0.02104 0.35442 0.0
S803 S 0.60791 0.20014 0.39817 0.0
N804 N 0.63881 0.20239 0.35332 0.0
N805 N 0.59479 0.14301 0.41557 0.0
C806 C 0.61504 0.12294 0.3841 0.0
C807 C 0.63924 0.15509 0.35087 0.0
C808 C 0.80861 0.61874 0.33639 0.0
C809 C 0.83301 0.6597 0.31093 0.0
C810 C 0.83369 0.59461 0.36439 0.0
C811 C 0.88481 0.61089 0.36987 0.0
H812 H 0.76948 0.60516 0.33486 0.0
H813 H 0.81251 0.56394 0.38343 0.0
S814 S 0.9667 0.71694 0.31141 0.0
N815 N 0.91208 0.71481 0.29283 0.0
N816 N 0.9587 0.67137 0.34653 0.0
C817 C 0.90971 0.65181 0.34453 0.0
C818 C 0.88411 0.67553 0.31493 0.0
C819 C 0.33149 0.78419 0.3851 0.0
C820 C 0.33192 0.79909 0.34069 0.0
C821 C 0.3563 0.81808 0.41995 0.0
C822 C 0.38322 0.86771 0.41129 0.0
H823 H 0.31372 0.74571 0.39272 0.0
H824 H 0.35798 0.80426 0.45333 0.0
S825 S 0.39034 0.92639 0.30142 0.0
N826 N 0.35635 0.86799 0.29054 0.0
N827 N 0.40383 0.93126 0.35604 0.0
C828 C 0.37988 0.88411 0.36775 0.0
C829 C 0.35433 0.84971 0.3323 0.0
C830 C 0.21918 0.34754 0.36935 0.0
C831 C 0.19599 0.32015 0.3296 0.0
C832 C 0.19511 0.37103 0.39762 0.0
C833 C 0.14635 0.36733 0.38806 0.0
H834 H 0.25632 0.35118 0.37861 0.0
H835 H 0.21451 0.39121 0.42779 0.0
S836 S 0.06871 0.30024 0.28851 0.0
N837 N 0.1206 0.29135 0.28283 0.0
N838 N 0.07654 0.33459 0.33515 0.0
C839 C 0.12303 0.34018 0.34848 0.0
C840 C 0.14741 0.31694 0.31963 0.0
C841 C 0.31873 0.13461 0.58173 0.0
C842 C 0.33924 0.18603 0.59107 0.0
C843 C 0.33913 0.11042 0.55193 0.0
C844 C 0.38097 0.1368 0.5306 0.0
H845 H 0.28769 0.11241 0.59887 0.0
H846 H 0.3235 0.07041 0.54767 0.0
S847 S 0.44362 0.27339 0.53811 0.0
N848 N 0.39987 0.26354 0.57277 0.0
N849 N 0.43847 0.21828 0.51636 0.0
C850 C 0.39963 0.1889 0.53707 0.0
C851 C 0.37869 0.2135 0.56745 0.0
C852 C 0.88322 0.32362 0.62588 0.0
C853 C 0.8617 0.34406 0.65835 0.0
C854 C 0.91166 0.35376 0.59446 0.0
C855 C 0.91949 0.4048 0.59547 0.0
H856 H 0.87511 0.28387 0.62246 0.0
H857 H 0.92385 0.3366 0.56711 0.0
S858 S 0.8799 0.47786 0.67845 0.0
N859 N 0.85649 0.41978 0.69315 0.0
N860 N 0.91053 0.47584 0.6343 0.0
C861 C 0.90281 0.42631 0.63042 0.0
C862 C 0.87359 0.39597 0.66194 0.0
C863 C 0.20502 0.64766 0.58893 0.0
C864 C 0.19234 0.65768 0.63203 0.0
C865 C 0.16936 0.6227 0.55514 0.0
C866 C 0.12032 0.60732 0.56383 0.0
H867 H 0.24262 0.65955 0.58117 0.0
H868 H 0.18004 0.61623 0.5221 0.0
S869 S 0.06819 0.62103 0.67139 0.0
N870 N 0.12709 0.64735 0.6817 0.0
N871 N 0.06065 0.60151 0.61827 0.0
C872 C 0.10733 0.61624 0.60681 0.0
C873 C 0.14323 0.64123 0.64097 0.0
loop_
_geom_bond_atom_site_label_1
_geom_bond_atom_site_label_2
_geom_bond_distance
_geom_bond_site_symmetry_2
_ccdc_geom_bond_type
Dy0 O4 2.398 . S
Dy0 O5 2.491 . S
Dy0 O6 2.403 . S
Dy0 O7 2.664 . S
Dy0 O11 2.326 . S
Dy0 O15 2.310 . S
Dy0 O16 2.351 . S
C1 O12 1.185 . S
C1 O13 1.355 . S
C2 O4 1.185 . S
C2 O5 1.355 . S
Dy3 O7 2.310 . S
Dy3 O10 2.351 . S
Dy3 O12 2.398 . S
Dy3 O13 2.491 . S
Dy3 O14 2.403 . S
Dy3 O15 2.664 . S
Dy3 O17 2.326 . S
O4 Dy0 2.398 . S
O4 C2 1.185 . S
O5 Dy0 2.491 . S
O5 C2 1.355 . S
O6 Dy0 2.403 . S
O6 C8 1.254 . S
O7 Dy0 2.664 . S
O7 Dy3 2.310 . S
O7 C8 1.268 . S
C8 O6 1.254 . S
C8 O7 1.268 . S
C9 O14 1.254 . S
C9 O15 1.268 . S
O10 Dy3 2.351 . S
O10 C18 1.249 . S
O11 Dy0 2.326 . S
O11 C18 1.267 . S
O12 C1 1.185 . S
O12 Dy3 2.398 . S
O13 C1 1.355 . S
O13 Dy3 2.491 . S
O14 Dy3 2.403 . S
O14 C9 1.254 . S
O15 Dy0 2.310 . S
O15 Dy3 2.664 . S
O15 C9 1.268 . S
O16 Dy0 2.351 . S
O16 C19 1.249 . S
O17 Dy3 2.326 . S
O17 C19 1.267 . S
C18 O10 1.249 . S
C18 O11 1.267 . S
C19 O16 1.249 . S
C19 O17 1.267 . S
Dy20 O24 2.398 . S
Dy20 O25 2.491 . S
Dy20 O26 2.403 . S
Dy20 O27 2.664 . S
Dy20 O31 2.326 . S
Dy20 O35 2.310 . S
Dy20 O36 2.351 . S
C21 O32 1.185 . S
C21 O33 1.355 . S
C22 O24 1.185 . S
C22 O25 1.355 . S
Dy23 O27 2.310 . S
Dy23 O30 2.351 . S
Dy23 O32 2.398 . S
Dy23 O33 2.491 . S
Dy23 O34 2.403 . S
Dy23 O35 2.664 . S
Dy23 O37 2.326 . S
O24 Dy20 2.398 . S
O24 C22 1.185 . S
O25 Dy20 2.491 . S
O25 C22 1.355 . S
O26 Dy20 2.403 . S
O26 C28 1.254 . S
O27 Dy20 2.664 . S
O27 Dy23 2.310 . S
O27 C28 1.268 . S
C28 O26 1.254 . S
C28 O27 1.268 . S
C29 O34 1.254 . S
C29 O35 1.268 . S
O30 Dy23 2.351 . S
O30 C38 1.249 . S
O31 Dy20 2.326 . S
O31 C38 1.267 . S
O32 C21 1.185 . S
O32 Dy23 2.398 . S
O33 C21 1.355 . S
O33 Dy23 2.491 . S
O34 Dy23 2.403 . S
O34 C29 1.254 . S
O35 Dy20 2.310 . S
O35 Dy23 2.664 . S
O35 C29 1.268 . S
O36 Dy20 2.351 . S
O36 C39 1.249 . S
O37 Dy23 2.326 . S
O37 C39 1.267 . S
C38 O30 1.249 . S
C38 O31 1.267 . S
C39 O36 1.249 . S
C39 O37 1.267 . S
Dy40 O44 2.398 . S
Dy40 O45 2.491 . S
Dy40 O46 2.403 . S
Dy40 O47 2.664 . S
Dy40 O51 2.326 . S
Dy40 O55 2.310 . S
Dy40 O56 2.351 . S
C41 O52 1.185 . S
C41 O53 1.355 . S
C42 O44 1.185 . S
C42 O45 1.355 . S
Dy43 O47 2.310 . S
Dy43 O50 2.351 . S
Dy43 O52 2.398 . S
Dy43 O53 2.491 . S
Dy43 O54 2.403 . S
Dy43 O55 2.664 . S
Dy43 O57 2.326 . S
O44 Dy40 2.398 . S
O44 C42 1.185 . S
O45 Dy40 2.491 . S
O45 C42 1.355 . S
O46 Dy40 2.403 . S
O46 C48 1.254 . S
O47 Dy40 2.664 . S
O47 Dy43 2.310 . S
O47 C48 1.268 . S
C48 O46 1.254 . S
C48 O47 1.268 . S
C49 O54 1.254 . S
C49 O55 1.268 . S
O50 Dy43 2.351 . S
O50 C58 1.249 . S
O51 Dy40 2.326 . S
O51 C58 1.267 . S
O52 C41 1.185 . S
O52 Dy43 2.398 . S
O53 C41 1.355 . S
O53 Dy43 2.491 . S
O54 Dy43 2.403 . S
O54 C49 1.254 . S
O55 Dy40 2.310 . S
O55 Dy43 2.664 . S
O55 C49 1.268 . S
O56 Dy40 2.351 . S
O56 C59 1.249 . S
O57 Dy43 2.326 . S
O57 C59 1.267 . S
C58 O50 1.249 . S
C58 O51 1.267 . S
C59 O56 1.249 . S
C59 O57 1.267 . S
Dy60 O64 2.398 . S
Dy60 O65 2.491 . S
Dy60 O66 2.403 . S
Dy60 O67 2.664 . S
Dy60 O71 2.326 . S
Dy60 O75 2.310 . S
Dy60 O76 2.351 . S
C61 O72 1.185 . S
C61 O73 1.355 . S
C62 O64 1.185 . S
C62 O65 1.355 . S
Dy63 O67 2.310 . S
Dy63 O70 2.351 . S
Dy63 O72 2.398 . S
Dy63 O73 2.491 . S
Dy63 O74 2.403 . S
Dy63 O75 2.664 . S
Dy63 O77 2.326 . S
O64 Dy60 2.398 . S
O64 C62 1.185 . S
O65 Dy60 2.491 . S
O65 C62 1.355 . S
O66 Dy60 2.403 . S
O66 C68 1.254 . S
O67 Dy60 2.664 . S
O67 Dy63 2.310 . S
O67 C68 1.268 . S
C68 O66 1.254 . S
C68 O67 1.268 . S
C69 O74 1.254 . S
C69 O75 1.268 . S
O70 Dy63 2.351 . S
O70 C78 1.249 . S
O71 Dy60 2.326 . S
O71 C78 1.267 . S
O72 C61 1.185 . S
O72 Dy63 2.398 . S
O73 C61 1.355 . S
O73 Dy63 2.491 . S
O74 Dy63 2.403 . S
O74 C69 1.254 . S
O75 Dy60 2.310 . S
O75 Dy63 2.664 . S
O75 C69 1.268 . S
O76 Dy60 2.351 . S
O76 C79 1.249 . S
O77 Dy63 2.326 . S
O77 C79 1.267 . S
C78 O70 1.249 . S
C78 O71 1.267 . S
C79 O76 1.249 . S
C79 O77 1.267 . S
Dy80 O84 2.398 . S
Dy80 O85 2.491 . S
Dy80 O86 2.403 . S
Dy80 O87 2.664 . S
Dy80 O91 2.326 . S
Dy80 O95 2.310 . S
Dy80 O96 2.351 . S
C81 O92 1.185 . S
C81 O93 1.355 . S
C82 O84 1.185 . S
C82 O85 1.355 . S
Dy83 O87 2.310 . S
Dy83 O90 2.351 . S
Dy83 O92 2.398 . S
Dy83 O93 2.491 . S
Dy83 O94 2.403 . S
Dy83 O95 2.664 . S
Dy83 O97 2.326 . S
O84 Dy80 2.398 . S
O84 C82 1.185 . S
O85 Dy80 2.491 . S
O85 C82 1.355 . S
O86 Dy80 2.403 . S
O86 C88 1.254 . S
O87 Dy80 2.664 . S
O87 Dy83 2.310 . S
O87 C88 1.268 . S
C88 O86 1.254 . S
C88 O87 1.268 . S
C89 O94 1.254 . S
C89 O95 1.268 . S
O90 Dy83 2.351 . S
O90 C98 1.249 . S
O91 Dy80 2.326 . S
O91 C98 1.267 . S
O92 C81 1.185 . S
O92 Dy83 2.398 . S
O93 C81 1.355 . S
O93 Dy83 2.491 . S
O94 Dy83 2.403 . S
O94 C89 1.254 . S
O95 Dy80 2.310 . S
O95 Dy83 2.664 . S
O95 C89 1.268 . S
O96 Dy80 2.351 . S
O96 C99 1.249 . S
O97 Dy83 2.326 . S
O97 C99 1.267 . S
C98 O90 1.249 . S
C98 O91 1.267 . S
C99 O96 1.249 . S
C99 O97 1.267 . S
Dy100 O104 2.398 . S
Dy100 O105 2.491 . S
Dy100 O106 2.403 . S
Dy100 O107 2.664 . S
Dy100 O111 2.326 . S
Dy100 O115 2.310 . S
Dy100 O116 2.351 . S
C101 O112 1.185 . S
C101 O113 1.355 . S
C102 O104 1.185 . S
C102 O105 1.355 . S
Dy103 O107 2.310 . S
Dy103 O110 2.351 . S
Dy103 O112 2.398 . S
Dy103 O113 2.491 . S
Dy103 O114 2.403 . S
Dy103 O115 2.664 . S
Dy103 O117 2.326 . S
O104 Dy100 2.398 . S
O104 C102 1.185 . S
O105 Dy100 2.491 . S
O105 C102 1.355 . S
O106 Dy100 2.403 . S
O106 C108 1.254 . S
O107 Dy100 2.664 . S
O107 Dy103 2.310 . S
O107 C108 1.268 . S
C108 O106 1.254 . S
C108 O107 1.268 . S
C109 O114 1.254 . S
C109 O115 1.268 . S
O110 Dy103 2.351 . S
O110 C118 1.249 . S
O111 Dy100 2.326 . S
O111 C118 1.267 . S
O112 C101 1.185 . S
O112 Dy103 2.398 . S
O113 C101 1.355 . S
O113 Dy103 2.491 . S
O114 Dy103 2.403 . S
O114 C109 1.254 . S
O115 Dy100 2.310 . S
O115 Dy103 2.664 . S
O115 C109 1.268 . S
O116 Dy100 2.351 . S
O116 C119 1.249 . S
O117 Dy103 2.326 . S
O117 C119 1.267 . S
C118 O110 1.249 . S
C118 O111 1.267 . S
C119 O116 1.249 . S
C119 O117 1.267 . S
Dy120 O124 2.398 . S
Dy120 O125 2.491 . S
Dy120 O126 2.403 . S
Dy120 O127 2.664 . S
Dy120 O131 2.326 . S
Dy120 O135 2.310 . S
Dy120 O136 2.351 . S
C121 O132 1.185 . S
C121 O133 1.355 . S
C122 O124 1.185 . S
C122 O125 1.355 . S
Dy123 O127 2.310 . S
Dy123 O130 2.351 . S
Dy123 O132 2.398 . S
Dy123 O133 2.491 . S
Dy123 O134 2.403 . S
Dy123 O135 2.664 . S
Dy123 O137 2.326 . S
O124 Dy120 2.398 . S
O124 C122 1.185 . S
O125 Dy120 2.491 . S
O125 C122 1.355 . S
O126 Dy120 2.403 . S
O126 C128 1.254 . S
O127 Dy120 2.664 . S
O127 Dy123 2.310 . S
O127 C128 1.268 . S
C128 O126 1.254 . S
C128 O127 1.268 . S
C129 O134 1.254 . S
C129 O135 1.268 . S
O130 Dy123 2.351 . S
O130 C138 1.249 . S
O131 Dy120 2.326 . S
O131 C138 1.267 . S
O132 C121 1.185 . S
O132 Dy123 2.398 . S
O133 C121 1.355 . S
O133 Dy123 2.491 . S
O134 Dy123 2.403 . S
O134 C129 1.254 . S
O135 Dy120 2.310 . S
O135 Dy123 2.664 . S
O135 C129 1.268 . S
O136 Dy120 2.351 . S
O136 C139 1.249 . S
O137 Dy123 2.326 . S
O137 C139 1.267 . S
C138 O130 1.249 . S
C138 O131 1.267 . S
C139 O136 1.249 . S
C139 O137 1.267 . S
Dy140 O144 2.398 . S
Dy140 O145 2.491 . S
Dy140 O146 2.403 . S
Dy140 O147 2.664 . S
Dy140 O151 2.326 . S
Dy140 O155 2.310 . S
Dy140 O156 2.351 . S
C141 O152 1.185 . S
C141 O153 1.355 . S
C142 O144 1.185 . S
C142 O145 1.355 . S
Dy143 O147 2.310 . S
Dy143 O150 2.351 . S
Dy143 O152 2.398 . S
Dy143 O153 2.491 . S
Dy143 O154 2.403 . S
Dy143 O155 2.664 . S
Dy143 O157 2.326 . S
O144 Dy140 2.398 . S
O144 C142 1.185 . S
O145 Dy140 2.491 . S
O145 C142 1.355 . S
O146 Dy140 2.403 . S
O146 C148 1.254 . S
O147 Dy140 2.664 . S
O147 Dy143 2.310 . S
O147 C148 1.268 . S
C148 O146 1.254 . S
C148 O147 1.268 . S
C149 O154 1.254 . S
C149 O155 1.268 . S
O150 Dy143 2.351 . S
O150 C158 1.249 . S
O151 Dy140 2.326 . S
O151 C158 1.267 . S
O152 C141 1.185 . S
O152 Dy143 2.398 . S
O153 C141 1.355 . S
O153 Dy143 2.491 . S
O154 Dy143 2.403 . S
O154 C149 1.254 . S
O155 Dy140 2.310 . S
O155 Dy143 2.664 . S
O155 C149 1.268 . S
O156 Dy140 2.351 . S
O156 C159 1.249 . S
O157 Dy143 2.326 . S
O157 C159 1.267 . S
C158 O150 1.249 . S
C158 O151 1.267 . S
C159 O156 1.249 . S
C159 O157 1.267 . S
C160 O172 1.241 . S
C160 O173 1.280 . S
C161 O174 1.277 . S
C161 O175 1.245 . S
C162 O186 1.247 . S
C162 O188 1.289 . S
Mg163 O164 1.926 . S
Mg163 O173 1.984 . S
Mg163 O175 1.988 . S
Mg163 O176 2.061 1_655 S
O164 Mg163 1.926 . S
O164 Mg165 1.986 1_545 S
O164 Mg166 1.919 1_655 S
Mg165 O164 1.986 1_565 S
Mg165 O172 2.042 1_565 S
Mg165 O174 2.041 1_565 S
Mg165 O180 2.038 . S
Mg165 O188 2.238 . S
Mg166 O164 1.919 1_455 S
Mg166 O167 1.915 1_545 S
Mg166 O177 2.107 . S
Mg166 O179 2.077 1_445 S
Mg166 O188 2.106 1_445 S
Mg166 O189 2.080 . S
O167 Mg166 1.915 1_565 S
O167 Mg168 1.926 . S
O167 Mg169 1.986 1_565 S
Mg168 O167 1.926 . S
Mg168 O182 1.984 . S
Mg168 O185 1.988 . S
Mg168 O186 2.061 1_455 S
Mg169 O167 1.986 1_545 S
Mg169 O177 2.238 . S
Mg169 O181 2.042 1_545 S
Mg169 O183 2.041 1_545 S
Mg169 O190 2.038 . S
C170 O176 1.247 . S
C170 O177 1.289 . S
C171 O189 1.245 . S
C171 O190 1.274 . S
O172 C160 1.241 . S
O172 Mg165 2.042 1_545 S
O173 C160 1.280 . S
O173 Mg163 1.984 . S
O174 C161 1.277 . S
O174 Mg165 2.041 1_545 S
O175 C161 1.245 . S
O175 Mg163 1.988 . S
O176 Mg163 2.061 1_455 S
O176 C170 1.247 . S
O177 Mg166 2.107 . S
O177 Mg169 2.238 . S
O177 C170 1.289 . S
C178 O179 1.245 . S
C178 O180 1.274 . S
O179 Mg166 2.077 1_665 S
O179 C178 1.245 . S
O180 Mg165 2.038 . S
O180 C178 1.274 . S
O181 Mg169 2.042 1_565 S
O181 C184 1.241 . S
O182 Mg168 1.984 . S
O182 C184 1.280 . S
O183 Mg169 2.041 1_565 S
O183 C187 1.277 . S
C184 O181 1.241 . S
C184 O182 1.280 . S
O185 Mg168 1.988 . S
O185 C187 1.245 . S
O186 C162 1.247 . S
O186 Mg168 2.061 1_655 S
C187 O183 1.277 . S
C187 O185 1.245 . S
O188 C162 1.289 . S
O188 Mg165 2.238 . S
O188 Mg166 2.106 1_665 S
O189 Mg166 2.080 . S
O189 C171 1.245 . S
O190 Mg169 2.038 . S
O190 C171 1.274 . S
C191 O203 1.241 . S
C191 O204 1.280 . S
C192 O205 1.277 . S
C192 O206 1.245 . S
C193 O217 1.247 . S
C193 O219 1.289 . S
Mg194 O195 1.926 . S
Mg194 O204 1.984 . S
Mg194 O206 1.988 1_554 S
Mg194 O207 2.061 . S
O195 Mg194 1.926 . S
O195 Mg196 1.986 1_544 S
O195 Mg197 1.919 . S
Mg196 O195 1.986 1_566 S
Mg196 O203 2.042 1_566 S
Mg196 O205 2.041 1_565 S
Mg196 O211 2.038 1_556 S
Mg196 O219 2.238 . S
Mg197 O195 1.919 . S
Mg197 O198 1.915 1_544 S
Mg197 O208 2.107 . S
Mg197 O210 2.078 1_545 S
Mg197 O219 2.106 1_544 S
Mg197 O220 2.080 1_554 S
O198 Mg197 1.915 1_566 S
O198 Mg199 1.926 . S
O198 Mg200 1.986 1_566 S
Mg199 O198 1.926 . S
Mg199 O213 1.984 . S
Mg199 O216 1.988 1_556 S
Mg199 O217 2.061 . S
Mg200 O198 1.986 1_544 S
Mg200 O208 2.238 . S
Mg200 O212 2.042 1_544 S
Mg200 O214 2.041 1_545 S
Mg200 O221 2.038 1_554 S
C201 O207 1.247 . S
C201 O208 1.289 . S
C202 O220 1.245 . S
C202 O221 1.274 . S
O203 C191 1.241 . S
O203 Mg196 2.042 1_544 S
O204 C191 1.280 . S
O204 Mg194 1.984 . S
O205 C192 1.277 . S
O205 Mg196 2.041 1_545 S
O206 C192 1.245 . S
O206 Mg194 1.988 1_556 S
O207 Mg194 2.061 . S
O207 C201 1.247 . S
O208 Mg197 2.107 . S
O208 Mg200 2.238 . S
O208 C201 1.289 . S
C209 O210 1.245 . S
C209 O211 1.274 . S
O210 Mg197 2.078 1_565 S
O210 C209 1.245 . S
O211 Mg196 2.038 1_554 S
O211 C209 1.274 . S
O212 Mg200 2.042 1_566 S
O212 C215 1.241 . S
O213 Mg199 1.984 . S
O213 C215 1.280 . S
O214 Mg200 2.041 1_565 S
O214 C218 1.277 . S
C215 O212 1.241 . S
C215 O213 1.280 . S
O216 Mg199 1.988 1_554 S
O216 C218 1.245 . S
O217 C193 1.247 . S
O217 Mg199 2.061 . S
C218 O214 1.277 . S
C218 O216 1.245 . S
O219 C193 1.289 . S
O219 Mg196 2.238 . S
O219 Mg197 2.106 1_566 S
O220 Mg197 2.080 1_556 S
O220 C202 1.245 . S
O221 Mg200 2.038 1_556 S
O221 C202 1.274 . S
C222 O234 1.241 . S
C222 O235 1.280 . S
C223 O236 1.277 . S
C223 O237 1.245 . S
C224 O248 1.247 . S
C224 O250 1.289 . S
Mg225 O226 1.926 . S
Mg225 O235 1.984 . S
Mg225 O237 1.988 1_554 S
Mg225 O238 2.061 1_655 S
O226 Mg225 1.926 . S
O226 Mg227 1.986 1_554 S
O226 Mg228 1.917 1_655 S
Mg227 O226 1.986 1_556 S
Mg227 O234 2.042 1_556 S
Mg227 O236 2.041 . S
Mg227 O242 2.038 1_556 S
Mg227 O250 2.238 . S
Mg228 O226 1.917 1_455 S
Mg228 O229 1.917 1_554 S
Mg228 O239 2.107 . S
Mg228 O241 2.079 1_455 S
Mg228 O250 2.106 1_454 S
Mg228 O251 2.078 1_554 S
O229 Mg228 1.917 1_556 S
O229 Mg230 1.926 . S
O229 Mg231 1.986 1_556 S
Mg230 O229 1.926 . S
Mg230 O244 1.984 . S
Mg230 O247 1.988 1_556 S
Mg230 O248 2.061 1_455 S
Mg231 O229 1.986 1_554 S
Mg231 O239 2.238 . S
Mg231 O243 2.042 1_554 S
Mg231 O245 2.041 . S
Mg231 O252 2.038 1_554 S
C232 O238 1.247 . S
C232 O239 1.289 . S
C233 O251 1.245 . S
C233 O252 1.274 . S
O234 C222 1.241 . S
O234 Mg227 2.042 1_554 S
O235 C222 1.280 . S
O235 Mg225 1.984 . S
O236 C223 1.277 . S
O236 Mg227 2.041 . S
O237 C223 1.245 . S
O237 Mg225 1.988 1_556 S
O238 Mg225 2.061 1_455 S
O238 C232 1.247 . S
O239 Mg228 2.107 . S
O239 Mg231 2.238 . S
O239 C232 1.289 . S
C240 O241 1.245 . S
C240 O242 1.274 . S
O241 Mg228 2.079 1_655 S
O241 C240 1.245 . S
O242 Mg227 2.038 1_554 S
O242 C240 1.274 . S
O243 Mg231 2.042 1_556 S
O243 C246 1.241 . S
O244 Mg230 1.984 . S
O244 C246 1.280 . S
O245 Mg231 2.041 . S
O245 C249 1.277 . S
C246 O243 1.241 . S
C246 O244 1.280 . S
O247 Mg230 1.988 1_554 S
O247 C249 1.245 . S
O248 C224 1.247 . S
O248 Mg230 2.061 1_655 S
C249 O245 1.277 . S
C249 O247 1.245 . S
O250 C224 1.289 . S
O250 Mg227 2.238 . S
O250 Mg228 2.106 1_656 S
O251 Mg228 2.078 1_556 S
O251 C233 1.245 . S
O252 Mg231 2.038 1_556 S
O252 C233 1.274 . S
C253 O265 1.241 . S
C253 O266 1.280 . S
C254 O267 1.277 . S
C254 O268 1.245 . S
C255 O279 1.247 . S
C255 O281 1.289 . S
Mg256 O257 1.926 . S
Mg256 O266 1.984 . S
Mg256 O268 1.988 1_554 S
Mg256 O269 2.061 . S
O257 Mg256 1.926 . S
O257 Mg258 1.986 1_554 S
O257 Mg259 1.917 . S
Mg258 O257 1.986 1_556 S
Mg258 O265 2.042 1_556 S
Mg258 O267 2.041 . S
Mg258 O273 2.038 1_556 S
Mg258 O281 2.238 . S
Mg259 O257 1.917 . S
Mg259 O260 1.917 1_554 S
Mg259 O270 2.107 . S
Mg259 O272 2.079 . S
Mg259 O281 2.106 1_554 S
Mg259 O282 2.078 1_554 S
O260 Mg259 1.917 1_556 S
O260 Mg261 1.926 . S
O260 Mg262 1.986 1_556 S
Mg261 O260 1.926 . S
Mg261 O275 1.984 . S
Mg261 O278 1.988 1_556 S
Mg261 O279 2.061 . S
Mg262 O260 1.986 1_554 S
Mg262 O270 2.238 . S
Mg262 O274 2.042 1_554 S
Mg262 O276 2.041 . S
Mg262 O283 2.038 1_554 S
C263 O269 1.247 . S
C263 O270 1.289 . S
C264 O282 1.245 . S
C264 O283 1.274 . S
O265 C253 1.241 . S
O265 Mg258 2.042 1_554 S
O266 C253 1.280 . S
O266 Mg256 1.984 . S
O267 C254 1.277 . S
O267 Mg258 2.041 . S
O268 C254 1.245 . S
O268 Mg256 1.988 1_556 S
O269 Mg256 2.061 . S
O269 C263 1.247 . S
O270 Mg259 2.107 . S
O270 Mg262 2.238 . S
O270 C263 1.289 . S
C271 O272 1.245 . S
C271 O273 1.274 . S
O272 Mg259 2.079 . S
O272 C271 1.245 . S
O273 Mg258 2.038 1_554 S
O273 C271 1.274 . S
O274 Mg262 2.042 1_556 S
O274 C277 1.241 . S
O275 Mg261 1.984 . S
O275 C277 1.280 . S
O276 Mg262 2.041 . S
O276 C280 1.277 . S
C277 O274 1.241 . S
C277 O275 1.280 . S
O278 Mg261 1.988 1_554 S
O278 C280 1.245 . S
O279 C255 1.247 . S
O279 Mg261 2.061 . S
C280 O276 1.277 . S
C280 O278 1.245 . S
O281 C255 1.289 . S
O281 Mg258 2.238 . S
O281 Mg259 2.106 1_556 S
O282 Mg259 2.078 1_556 S
O282 C264 1.245 . S
O283 Mg262 2.038 1_556 S
O283 C264 1.274 . S
C284 O296 1.241 . S
C284 O297 1.280 . S
C285 O298 1.277 . S
C285 O299 1.245 . S
C286 O310 1.247 . S
C286 O312 1.289 . S
Mg287 O288 1.926 . S
Mg287 O297 1.984 . S
Mg287 O299 1.988 . S
Mg287 O300 2.061 1_655 S
O288 Mg287 1.926 . S
O288 Mg289 1.986 . S
O288 Mg290 1.917 1_655 S
Mg289 O288 1.986 . S
Mg289 O296 2.042 . S
Mg289 O298 2.041 . S
Mg289 O304 2.038 . S
Mg289 O312 2.238 . S
Mg290 O288 1.917 1_455 S
Mg290 O291 1.917 . S
Mg290 O301 2.106 . S
Mg290 O303 2.079 1_455 S
Mg290 O312 2.106 1_455 S
Mg290 O313 2.079 . S
O291 Mg290 1.917 . S
O291 Mg292 1.926 . S
O291 Mg293 1.986 . S
Mg292 O291 1.926 . S
Mg292 O306 1.984 . S
Mg292 O309 1.988 . S
Mg292 O310 2.061 1_455 S
Mg293 O291 1.986 . S
Mg293 O301 2.238 . S
Mg293 O305 2.042 . S
Mg293 O307 2.041 . S
Mg293 O314 2.038 . S
C294 O300 1.247 . S
C294 O301 1.289 . S
C295 O313 1.245 . S
C295 O314 1.274 . S
O296 C284 1.241 . S
O296 Mg289 2.042 . S
O297 C284 1.280 . S
O297 Mg287 1.984 . S
O298 C285 1.277 . S
O298 Mg289 2.041 . S
O299 C285 1.245 . S
O299 Mg287 1.988 . S
O300 Mg287 2.061 1_455 S
O300 C294 1.247 . S
O301 Mg290 2.106 . S
O301 Mg293 2.238 . S
O301 C294 1.289 . S
C302 O303 1.245 . S
C302 O304 1.274 . S
O303 Mg290 2.079 1_655 S
O303 C302 1.245 . S
O304 Mg289 2.038 . S
O304 C302 1.274 . S
O305 Mg293 2.042 . S
O305 C308 1.241 . S
O306 Mg292 1.984 . S
O306 C308 1.280 . S
O307 Mg293 2.041 . S
O307 C311 1.277 . S
C308 O305 1.241 . S
C308 O306 1.280 . S
O309 Mg292 1.988 . S
O309 C311 1.245 . S
O310 C286 1.247 . S
O310 Mg292 2.061 1_655 S
C311 O307 1.277 . S
C311 O309 1.245 . S
O312 C286 1.289 . S
O312 Mg289 2.238 . S
O312 Mg290 2.106 1_655 S
O313 Mg290 2.079 . S
O313 C295 1.245 . S
O314 Mg293 2.038 . S
O314 C295 1.274 . S
C315 O327 1.241 . S
C315 O328 1.280 . S
C316 O329 1.277 . S
C316 O330 1.245 . S
C317 O341 1.247 . S
C317 O343 1.289 . S
Mg318 O319 1.926 . S
Mg318 O328 1.984 . S
Mg318 O330 1.988 . S
Mg318 O331 2.061 . S
O319 Mg318 1.926 . S
O319 Mg320 1.986 1_545 S
O319 Mg321 1.919 . S
Mg320 O319 1.986 1_565 S
Mg320 O327 2.042 1_565 S
Mg320 O329 2.041 1_565 S
Mg320 O335 2.038 . S
Mg320 O343 2.238 . S
Mg321 O319 1.919 . S
Mg321 O322 1.915 1_545 S
Mg321 O332 2.107 . S
Mg321 O334 2.077 1_545 S
Mg321 O343 2.106 1_545 S
Mg321 O344 2.080 . S
O322 Mg321 1.915 1_565 S
O322 Mg323 1.926 . S
O322 Mg324 1.986 1_565 S
Mg323 O322 1.926 . S
Mg323 O337 1.984 . S
Mg323 O340 1.988 . S
Mg323 O341 2.061 . S
Mg324 O322 1.986 1_545 S
Mg324 O332 2.238 . S
Mg324 O336 2.042 1_545 S
Mg324 O338 2.041 1_545 S
Mg324 O345 2.038 . S
C325 O331 1.247 . S
C325 O332 1.289 . S
C326 O344 1.245 . S
C326 O345 1.274 . S
O327 C315 1.241 . S
O327 Mg320 2.042 1_545 S
O328 C315 1.280 . S
O328 Mg318 1.984 . S
O329 C316 1.277 . S
O329 Mg320 2.041 1_545 S
O330 C316 1.245 . S
O330 Mg318 1.988 . S
O331 Mg318 2.061 . S
O331 C325 1.247 . S
O332 Mg321 2.107 . S
O332 Mg324 2.238 . S
O332 C325 1.289 . S
C333 O334 1.245 . S
C333 O335 1.274 . S
O334 Mg321 2.077 1_565 S
O334 C333 1.245 . S
O335 Mg320 2.038 . S
O335 C333 1.274 . S
O336 Mg324 2.042 1_565 S
O336 C339 1.241 . S
O337 Mg323 1.984 . S
O337 C339 1.280 . S
O338 Mg324 2.041 1_565 S
O338 C342 1.277 . S
C339 O336 1.241 . S
C339 O337 1.280 . S
O340 Mg323 1.988 . S
O340 C342 1.245 . S
O341 C317 1.247 . S
O341 Mg323 2.061 . S
C342 O338 1.277 . S
C342 O340 1.245 . S
O343 C317 1.289 . S
O343 Mg320 2.238 . S
O343 Mg321 2.106 1_565 S
O344 Mg321 2.080 . S
O344 C326 1.245 . S
O345 Mg324 2.038 . S
O345 C326 1.274 . S
C346 C347 1.369 . S
C346 C348 1.419 . S
C346 H350 0.930 . S
C347 C346 1.369 . S
C347 C356 1.429 . S
C348 C346 1.419 . S
C348 C349 1.363 . S
C348 H351 0.929 . S
C349 C348 1.363 . S
C349 C355 1.428 . S
H350 C346 0.930 . S
H351 C348 0.929 . S
S352 N353 1.613 . S
S352 N354 1.610 . S
N353 S352 1.613 . S
N353 C356 1.350 . S
N354 S352 1.610 . S
N354 C355 1.351 . S
C355 C349 1.428 . S
C355 N354 1.351 . S
C355 C356 1.434 . S
C356 C347 1.429 . S
C356 N353 1.350 . S
C356 C355 1.434 . S
C357 C358 1.369 . S
C357 C359 1.419 . S
C357 H361 0.930 . S
C358 C357 1.369 . S
C358 C367 1.429 . S
C359 C357 1.419 . S
C359 C360 1.363 . S
C359 H362 0.929 . S
C360 C359 1.363 . S
C360 C366 1.428 . S
H361 C357 0.930 . S
H362 C359 0.929 . S
S363 N364 1.613 . S
S363 N365 1.610 . S
N364 S363 1.613 . S
N364 C367 1.350 . S
N365 S363 1.610 . S
N365 C366 1.351 . S
C366 C360 1.428 . S
C366 N365 1.351 . S
C366 C367 1.434 . S
C367 C358 1.429 . S
C367 N364 1.350 . S
C367 C366 1.434 . S
C368 C369 1.369 . S
C368 C370 1.419 . S
C368 H372 0.930 . S
C369 C368 1.369 . S
C369 C378 1.429 . S
C370 C368 1.419 . S
C370 C371 1.363 . S
C370 H373 0.929 . S
C371 C370 1.363 . S
C371 C377 1.428 . S
H372 C368 0.930 . S
H373 C370 0.929 . S
S374 N375 1.613 . S
S374 N376 1.610 . S
N375 S374 1.613 . S
N375 C378 1.350 . S
N376 S374 1.610 . S
N376 C377 1.351 . S
C377 C371 1.428 . S
C377 N376 1.351 . S
C377 C378 1.434 . S
C378 C369 1.429 . S
C378 N375 1.350 . S
C378 C377 1.434 . S
C379 C380 1.369 . S
C379 C381 1.419 . S
C379 H383 0.930 . S
C380 C379 1.369 . S
C380 C389 1.429 . S
C381 C379 1.419 . S
C381 C382 1.363 . S
C381 H384 0.929 . S
C382 C381 1.363 . S
C382 C388 1.428 . S
H383 C379 0.930 . S
H384 C381 0.929 . S
S385 N386 1.613 . S
S385 N387 1.610 . S
N386 S385 1.613 . S
N386 C389 1.350 . S
N387 S385 1.610 . S
N387 C388 1.351 . S
C388 C382 1.428 . S
C388 N387 1.351 . S
C388 C389 1.434 . S
C389 C380 1.429 . S
C389 N386 1.350 . S
C389 C388 1.434 . S
C390 C391 1.369 . S
C390 C392 1.419 . S
C390 H394 0.930 . S
C391 C390 1.369 . S
C391 C400 1.429 . S
C392 C390 1.419 . S
C392 C393 1.363 . S
C392 H395 0.929 . S
C393 C392 1.363 . S
C393 C399 1.428 . S
H394 C390 0.930 . S
H395 C392 0.929 . S
S396 N397 1.613 . S
S396 N398 1.610 . S
N397 S396 1.613 . S
N397 C400 1.350 . S
N398 S396 1.610 . S
N398 C399 1.351 . S
C399 C393 1.428 . S
C399 N398 1.351 . S
C399 C400 1.434 . S
C400 C391 1.429 . S
C400 N397 1.350 . S
C400 C399 1.434 . S
C401 C402 1.369 . S
C401 C403 1.419 . S
C401 H405 0.930 . S
C402 C401 1.369 . S
C402 C411 1.429 . S
C403 C401 1.419 . S
C403 C404 1.363 . S
C403 H406 0.929 . S
C404 C403 1.363 . S
C404 C410 1.428 . S
H405 C401 0.930 . S
H406 C403 0.929 . S
S407 N408 1.613 . S
S407 N409 1.610 . S
N408 S407 1.613 . S
N408 C411 1.350 . S
N409 S407 1.610 . S
N409 C410 1.351 . S
C410 C404 1.428 . S
C410 N409 1.351 . S
C410 C411 1.434 . S
C411 C402 1.429 . S
C411 N408 1.350 . S
C411 C410 1.434 . S
C412 C413 1.369 . S
C412 C414 1.419 . S
C412 H416 0.930 . S
C413 C412 1.369 . S
C413 C422 1.429 . S
C414 C412 1.419 . S
C414 C415 1.363 . S
C414 H417 0.929 . S
C415 C414 1.363 . S
C415 C421 1.428 . S
H416 C412 0.930 . S
H417 C414 0.929 . S
S418 N419 1.613 . S
S418 N420 1.610 . S
N419 S418 1.613 . S
N419 C422 1.350 . S
N420 S418 1.610 . S
N420 C421 1.351 . S
C421 C415 1.428 . S
C421 N420 1.351 . S
C421 C422 1.434 . S
C422 C413 1.429 . S
C422 N419 1.350 . S
C422 C421 1.434 . S
C423 C424 1.369 . S
C423 C425 1.419 . S
C423 H427 0.930 . S
C424 C423 1.369 . S
C424 C433 1.429 . S
C425 C423 1.419 . S
C425 C426 1.363 . S
C425 H428 0.929 . S
C426 C425 1.363 . S
C426 C432 1.428 . S
H427 C423 0.930 . S
H428 C425 0.929 . S
S429 N430 1.613 . S
S429 N431 1.610 . S
N430 S429 1.613 . S
N430 C433 1.350 . S
N431 S429 1.610 . S
N431 C432 1.351 . S
C432 C426 1.428 . S
C432 N431 1.351 . S
C432 C433 1.434 . S
C433 C424 1.429 . S
C433 N430 1.350 . S
C433 C432 1.434 . S
C434 C435 1.369 . S
C434 C436 1.419 . S
C434 H438 0.930 . S
C435 C434 1.369 . S
C435 C444 1.429 . S
C436 C434 1.419 . S
C436 C437 1.363 . S
C436 H439 0.929 . S
C437 C436 1.363 . S
C437 C443 1.428 . S
H438 C434 0.930 . S
H439 C436 0.929 . S
S440 N441 1.613 . S
S440 N442 1.610 . S
N441 S440 1.613 . S
N441 C444 1.350 . S
N442 S440 1.610 . S
N442 C443 1.351 . S
C443 C437 1.428 . S
C443 N442 1.351 . S
C443 C444 1.434 . S
C444 C435 1.429 . S
C444 N441 1.350 . S
C444 C443 1.434 . S
C445 C446 1.369 . S
C445 C447 1.419 . S
C445 H449 0.930 . S
C446 C445 1.369 . S
C446 C455 1.429 . S
C447 C445 1.419 . S
C447 C448 1.363 . S
C447 H450 0.929 . S
C448 C447 1.363 . S
C448 C454 1.428 . S
H449 C445 0.930 . S
H450 C447 0.929 . S
S451 N452 1.613 . S
S451 N453 1.610 . S
N452 S451 1.613 . S
N452 C455 1.350 . S
N453 S451 1.610 . S
N453 C454 1.351 . S
C454 C448 1.428 . S
C454 N453 1.351 . S
C454 C455 1.434 . S
C455 C446 1.429 . S
C455 N452 1.350 . S
C455 C454 1.434 . S
C456 C457 1.369 . S
C456 C458 1.419 . S
C456 H460 0.930 . S
C457 C456 1.369 . S
C457 C466 1.429 . S
C458 C456 1.419 . S
C458 C459 1.363 . S
C458 H461 0.929 . S
C459 C458 1.363 . S
C459 C465 1.428 . S
H460 C456 0.930 . S
H461 C458 0.929 . S
S462 N463 1.613 . S
S462 N464 1.610 . S
N463 S462 1.613 . S
N463 C466 1.350 . S
N464 S462 1.610 . S
N464 C465 1.351 . S
C465 C459 1.428 . S
C465 N464 1.351 . S
C465 C466 1.434 . S
C466 C457 1.429 . S
C466 N463 1.350 . S
C466 C465 1.434 . S
C467 C468 1.369 . S
C467 C469 1.419 . S
C467 H471 0.930 . S
C468 C467 1.369 . S
C468 C477 1.429 . S
C469 C467 1.419 . S
C469 C470 1.363 . S
C469 H472 0.929 . S
C470 C469 1.363 . S
C470 C476 1.428 . S
H471 C467 0.930 . S
H472 C469 0.929 . S
S473 N474 1.613 . S
S473 N475 1.610 . S
N474 S473 1.613 . S
N474 C477 1.350 . S
N475 S473 1.610 . S
N475 C476 1.351 . S
C476 C470 1.428 . S
C476 N475 1.351 . S
C476 C477 1.434 . S
C477 C468 1.429 . S
C477 N474 1.350 . S
C477 C476 1.434 . S
C478 C479 1.369 . S
C478 C480 1.419 . S
C478 H482 0.930 . S
C479 C478 1.369 . S
C479 C488 1.429 . S
C480 C478 1.419 . S
C480 C481 1.363 . S
C480 H483 0.929 . S
C481 C480 1.363 . S
C481 C487 1.428 . S
H482 C478 0.930 . S
H483 C480 0.929 . S
S484 N485 1.613 . S
S484 N486 1.610 . S
N485 S484 1.613 . S
N485 C488 1.350 . S
N486 S484 1.610 . S
N486 C487 1.351 . S
C487 C481 1.428 . S
C487 N486 1.351 . S
C487 C488 1.434 . S
C488 C479 1.429 . S
C488 N485 1.350 . S
C488 C487 1.434 . S
C489 C490 1.369 . S
C489 C491 1.419 . S
C489 H493 0.930 . S
C490 C489 1.369 . S
C490 C499 1.429 . S
C491 C489 1.419 . S
C491 C492 1.363 . S
C491 H494 0.929 . S
C492 C491 1.363 . S
C492 C498 1.428 . S
H493 C489 0.930 . S
H494 C491 0.929 . S
S495 N496 1.613 . S
S495 N497 1.610 . S
N496 S495 1.613 . S
N496 C499 1.350 . S
N497 S495 1.610 . S
N497 C498 1.351 . S
C498 C492 1.428 . S
C498 N497 1.351 . S
C498 C499 1.434 . S
C499 C490 1.429 . S
C499 N496 1.350 . S
C499 C498 1.434 . S
C500 C501 1.369 . S
C500 C502 1.419 . S
C500 H504 0.930 . S
C501 C500 1.369 . S
C501 C510 1.429 . S
C502 C500 1.419 . S
C502 C503 1.363 . S
C502 H505 0.929 . S
C503 C502 1.363 . S
C503 C509 1.428 . S
H504 C500 0.930 . S
H505 C502 0.929 . S
S506 N507 1.613 . S
S506 N508 1.610 . S
N507 S506 1.613 . S
N507 C510 1.350 . S
N508 S506 1.610 . S
N508 C509 1.351 . S
C509 C503 1.428 . S
C509 N508 1.351 . S
C509 C510 1.434 . S
C510 C501 1.429 . S
C510 N507 1.350 . S
C510 C509 1.434 . S
C511 C512 1.369 . S
C511 C513 1.419 . S
C511 H515 0.930 . S
C512 C511 1.369 . S
C512 C521 1.429 . S
C513 C511 1.419 . S
C513 C514 1.363 . S
C513 H516 0.929 . S
C514 C513 1.363 . S
C514 C520 1.428 . S
H515 C511 0.930 . S
H516 C513 0.929 . S
S517 N518 1.613 . S
S517 N519 1.610 . S
N518 S517 1.613 . S
N518 C521 1.350 . S
N519 S517 1.610 . S
N519 C520 1.351 . S
C520 C514 1.428 . S
C520 N519 1.351 . S
C520 C521 1.434 . S
C521 C512 1.429 . S
C521 N518 1.350 . S
C521 C520 1.434 . S
C522 C523 1.369 . S
C522 C524 1.419 . S
C522 H526 0.930 . S
C523 C522 1.369 . S
C523 C532 1.429 . S
C524 C522 1.419 . S
C524 C525 1.363 . S
C524 H527 0.929 . S
C525 C524 1.363 . S
C525 C531 1.428 . S
H526 C522 0.930 . S
H527 C524 0.929 . S
S528 N529 1.613 . S
S528 N530 1.610 . S
N529 S528 1.613 . S
N529 C532 1.350 . S
N530 S528 1.610 . S
N530 C531 1.351 . S
C531 C525 1.428 . S
C531 N530 1.351 . S
C531 C532 1.434 . S
C532 C523 1.429 . S
C532 N529 1.350 . S
C532 C531 1.434 . S
C533 C534 1.369 . S
C533 C535 1.419 . S
C533 H537 0.930 . S
C534 C533 1.369 . S
C534 C543 1.429 . S
C535 C533 1.419 . S
C535 C536 1.363 . S
C535 H538 0.929 . S
C536 C535 1.363 . S
C536 C542 1.428 . S
H537 C533 0.930 . S
H538 C535 0.929 . S
S539 N540 1.613 . S
S539 N541 1.610 . S
N540 S539 1.613 . S
N540 C543 1.350 . S
N541 S539 1.610 . S
N541 C542 1.351 . S
C542 C536 1.428 . S
C542 N541 1.351 . S
C542 C543 1.434 . S
C543 C534 1.429 . S
C543 N540 1.350 . S
C543 C542 1.434 . S
C544 C545 1.369 . S
C544 C546 1.419 . S
C544 H548 0.930 . S
C545 C544 1.369 . S
C545 C554 1.429 . S
C546 C544 1.419 . S
C546 C547 1.363 . S
C546 H549 0.929 . S
C547 C546 1.363 . S
C547 C553 1.428 . S
H548 C544 0.930 . S
H549 C546 0.929 . S
S550 N551 1.613 . S
S550 N552 1.610 . S
N551 S550 1.613 . S
N551 C554 1.350 . S
N552 S550 1.610 . S
N552 C553 1.351 . S
C553 C547 1.428 . S
C553 N552 1.351 . S
C553 C554 1.434 . S
C554 C545 1.429 . S
C554 N551 1.350 . S
C554 C553 1.434 . S
C555 C556 1.369 . S
C555 C557 1.419 . S
C555 H559 0.930 . S
C556 C555 1.369 . S
C556 C565 1.429 . S
C557 C555 1.419 . S
C557 C558 1.363 . S
C557 H560 0.929 . S
C558 C557 1.363 . S
C558 C564 1.428 . S
H559 C555 0.930 . S
H560 C557 0.929 . S
S561 N562 1.613 . S
S561 N563 1.610 . S
N562 S561 1.613 . S
N562 C565 1.350 . S
N563 S561 1.610 . S
N563 C564 1.351 . S
C564 C558 1.428 . S
C564 N563 1.351 . S
C564 C565 1.434 . S
C565 C556 1.429 . S
C565 N562 1.350 . S
C565 C564 1.434 . S
C566 C567 1.369 . S
C566 C568 1.419 . S
C566 H570 0.930 . S
C567 C566 1.369 . S
C567 C576 1.429 . S
C568 C566 1.419 . S
C568 C569 1.363 . S
C568 H571 0.929 . S
C569 C568 1.363 . S
C569 C575 1.428 . S
H570 C566 0.930 . S
H571 C568 0.929 . S
S572 N573 1.613 . S
S572 N574 1.610 . S
N573 S572 1.613 . S
N573 C576 1.350 . S
N574 S572 1.610 . S
N574 C575 1.351 . S
C575 C569 1.428 . S
C575 N574 1.351 . S
C575 C576 1.434 . S
C576 C567 1.429 . S
C576 N573 1.350 . S
C576 C575 1.434 . S
C577 C578 1.369 . S
C577 C579 1.419 . S
C577 H581 0.930 . S
C578 C577 1.369 . S
C578 C587 1.429 . S
C579 C577 1.419 . S
C579 C580 1.363 . S
C579 H582 0.929 . S
C580 C579 1.363 . S
C580 C586 1.428 . S
H581 C577 0.930 . S
H582 C579 0.929 . S
S583 N584 1.613 . S
S583 N585 1.610 . S
N584 S583 1.613 . S
N584 C587 1.350 . S
N585 S583 1.610 . S
N585 C586 1.351 . S
C586 C580 1.428 . S
C586 N585 1.351 . S
C586 C587 1.434 . S
C587 C578 1.429 . S
C587 N584 1.350 . S
C587 C586 1.434 . S
C588 C589 1.369 . S
C588 C590 1.419 . S
C588 H592 0.930 . S
C589 C588 1.369 . S
C589 C598 1.429 . S
C590 C588 1.419 . S
C590 C591 1.363 . S
C590 H593 0.929 . S
C591 C590 1.363 . S
C591 C597 1.428 . S
H592 C588 0.930 . S
H593 C590 0.929 . S
S594 N595 1.613 . S
S594 N596 1.610 . S
N595 S594 1.613 . S
N595 C598 1.350 . S
N596 S594 1.610 . S
N596 C597 1.351 . S
C597 C591 1.428 . S
C597 N596 1.351 . S
C597 C598 1.434 . S
C598 C589 1.429 . S
C598 N595 1.350 . S
C598 C597 1.434 . S
C599 C600 1.369 . S
C599 C601 1.419 . S
C599 H603 0.930 . S
C600 C599 1.369 . S
C600 C609 1.429 . S
C601 C599 1.419 . S
C601 C602 1.363 . S
C601 H604 0.929 . S
C602 C601 1.363 . S
C602 C608 1.428 . S
H603 C599 0.930 . S
H604 C601 0.929 . S
S605 N606 1.613 . S
S605 N607 1.610 . S
N606 S605 1.613 . S
N606 C609 1.350 . S
N607 S605 1.610 . S
N607 C608 1.351 . S
C608 C602 1.428 . S
C608 N607 1.351 . S
C608 C609 1.434 . S
C609 C600 1.429 . S
C609 N606 1.350 . S
C609 C608 1.434 . S
C610 C611 1.369 . S
C610 C612 1.419 . S
C610 H614 0.930 . S
C611 C610 1.369 . S
C611 C620 1.429 . S
C612 C610 1.419 . S
C612 C613 1.363 . S
C612 H615 0.929 . S
C613 C612 1.363 . S
C613 C619 1.428 . S
H614 C610 0.930 . S
H615 C612 0.929 . S
S616 N617 1.613 . S
S616 N618 1.610 . S
N617 S616 1.613 . S
N617 C620 1.350 . S
N618 S616 1.610 . S
N618 C619 1.351 . S
C619 C613 1.428 . S
C619 N618 1.351 . S
C619 C620 1.434 . S
C620 C611 1.429 . S
C620 N617 1.350 . S
C620 C619 1.434 . S
C621 C622 1.369 . S
C621 C623 1.419 . S
C621 H625 0.930 . S
C622 C621 1.369 . S
C622 C631 1.429 . S
C623 C621 1.419 . S
C623 C624 1.363 . S
C623 H626 0.929 . S
C624 C623 1.363 . S
C624 C630 1.428 . S
H625 C621 0.930 . S
H626 C623 0.929 . S
S627 N628 1.613 . S
S627 N629 1.610 . S
N628 S627 1.613 . S
N628 C631 1.350 . S
N629 S627 1.610 . S
N629 C630 1.351 . S
C630 C624 1.428 . S
C630 N629 1.351 . S
C630 C631 1.434 . S
C631 C622 1.429 . S
C631 N628 1.350 . S
C631 C630 1.434 . S
C632 C633 1.369 . S
C632 C634 1.419 . S
C632 H636 0.930 . S
C633 C632 1.369 . S
C633 C642 1.429 . S
C634 C632 1.419 . S
C634 C635 1.363 . S
C634 H637 0.929 . S
C635 C634 1.363 . S
C635 C641 1.428 . S
H636 C632 0.930 . S
H637 C634 0.929 . S
S638 N639 1.613 . S
S638 N640 1.610 . S
N639 S638 1.613 . S
N639 C642 1.350 . S
N640 S638 1.610 . S
N640 C641 1.351 . S
C641 C635 1.428 . S
C641 N640 1.351 . S
C641 C642 1.434 . S
C642 C633 1.429 . S
C642 N639 1.350 . S
C642 C641 1.434 . S
C643 C644 1.369 . S
C643 C645 1.419 . S
C643 H647 0.930 . S
C644 C643 1.369 . S
C644 C653 1.429 . S
C645 C643 1.419 . S
C645 C646 1.363 . S
C645 H648 0.929 . S
C646 C645 1.363 . S
C646 C652 1.428 . S
H647 C643 0.930 . S
H648 C645 0.929 . S
S649 N650 1.613 . S
S649 N651 1.610 . S
N650 S649 1.613 . S
N650 C653 1.350 . S
N651 S649 1.610 . S
N651 C652 1.351 . S
C652 C646 1.428 . S
C652 N651 1.351 . S
C652 C653 1.434 . S
C653 C644 1.429 . S
C653 N650 1.350 . S
C653 C652 1.434 . S
C654 C655 1.369 . S
C654 C656 1.419 . S
C654 H658 0.930 . S
C655 C654 1.369 . S
C655 C664 1.429 . S
C656 C654 1.419 . S
C656 C657 1.363 . S
C656 H659 0.929 . S
C657 C656 1.363 . S
C657 C663 1.428 . S
H658 C654 0.930 . S
H659 C656 0.929 . S
S660 N661 1.613 . S
S660 N662 1.610 . S
N661 S660 1.613 . S
N661 C664 1.350 . S
N662 S660 1.610 . S
N662 C663 1.351 . S
C663 C657 1.428 . S
C663 N662 1.351 . S
C663 C664 1.434 . S
C664 C655 1.429 . S
C664 N661 1.350 . S
C664 C663 1.434 . S
C665 C666 1.369 . S
C665 C667 1.419 . S
C665 H669 0.930 . S
C666 C665 1.369 . S
C666 C675 1.429 . S
C667 C665 1.419 . S
C667 C668 1.363 . S
C667 H670 0.929 . S
C668 C667 1.363 . S
C668 C674 1.428 . S
H669 C665 0.930 . S
H670 C667 0.929 . S
S671 N672 1.613 . S
S671 N673 1.610 . S
N672 S671 1.613 . S
N672 C675 1.350 . S
N673 S671 1.610 . S
N673 C674 1.351 . S
C674 C668 1.428 . S
C674 N673 1.351 . S
C674 C675 1.434 . S
C675 C666 1.429 . S
C675 N672 1.350 . S
C675 C674 1.434 . S
C676 C677 1.369 . S
C676 C678 1.419 . S
C676 H680 0.930 . S
C677 C676 1.369 . S
C677 C686 1.429 . S
C678 C676 1.419 . S
C678 C679 1.363 . S
C678 H681 0.929 . S
C679 C678 1.363 . S
C679 C685 1.428 . S
H680 C676 0.930 . S
H681 C678 0.929 . S
S682 N683 1.613 . S
S682 N684 1.610 . S
N683 S682 1.613 . S
N683 C686 1.350 . S
N684 S682 1.610 . S
N684 C685 1.351 . S
C685 C679 1.428 . S
C685 N684 1.351 . S
C685 C686 1.434 . S
C686 C677 1.429 . S
C686 N683 1.350 . S
C686 C685 1.434 . S
C687 C688 1.369 . S
C687 C689 1.419 . S
C687 H691 0.930 . S
C688 C687 1.369 . S
C688 C697 1.429 . S
C689 C687 1.419 . S
C689 C690 1.363 . S
C689 H692 0.929 . S
C690 C689 1.363 . S
C690 C696 1.428 . S
H691 C687 0.930 . S
H692 C689 0.929 . S
S693 N694 1.613 . S
S693 N695 1.610 . S
N694 S693 1.613 . S
N694 C697 1.350 . S
N695 S693 1.610 . S
N695 C696 1.351 . S
C696 C690 1.428 . S
C696 N695 1.351 . S
C696 C697 1.434 . S
C697 C688 1.429 . S
C697 N694 1.350 . S
C697 C696 1.434 . S
C698 C699 1.369 . S
C698 C700 1.419 . S
C698 H702 0.930 . S
C699 C698 1.369 . S
C699 C708 1.429 . S
C700 C698 1.419 . S
C700 C701 1.363 . S
C700 H703 0.929 . S
C701 C700 1.363 . S
C701 C707 1.428 . S
H702 C698 0.930 . S
H703 C700 0.929 . S
S704 N705 1.613 . S
S704 N706 1.610 . S
N705 S704 1.613 . S
N705 C708 1.350 . S
N706 S704 1.610 . S
N706 C707 1.351 . S
C707 C701 1.428 . S
C707 N706 1.351 . S
C707 C708 1.434 . S
C708 C699 1.429 . S
C708 N705 1.350 . S
C708 C707 1.434 . S
C709 C710 1.369 . S
C709 C711 1.419 . S
C709 H713 0.930 . S
C710 C709 1.369 . S
C710 C719 1.429 . S
C711 C709 1.419 . S
C711 C712 1.363 . S
C711 H714 0.929 . S
C712 C711 1.363 . S
C712 C718 1.428 . S
H713 C709 0.930 . S
H714 C711 0.929 . S
S715 N716 1.613 . S
S715 N717 1.610 . S
N716 S715 1.613 . S
N716 C719 1.350 . S
N717 S715 1.610 . S
N717 C718 1.351 . S
C718 C712 1.428 . S
C718 N717 1.351 . S
C718 C719 1.434 . S
C719 C710 1.429 . S
C719 N716 1.350 . S
C719 C718 1.434 . S
C720 C721 1.369 . S
C720 C722 1.419 . S
C720 H724 0.930 . S
C721 C720 1.369 . S
C721 C730 1.429 . S
C722 C720 1.419 . S
C722 C723 1.363 . S
C722 H725 0.929 . S
C723 C722 1.363 . S
C723 C729 1.428 . S
H724 C720 0.930 . S
H725 C722 0.929 . S
S726 N727 1.613 . S
S726 N728 1.610 . S
N727 S726 1.613 . S
N727 C730 1.350 . S
N728 S726 1.610 . S
N728 C729 1.351 . S
C729 C723 1.428 . S
C729 N728 1.351 . S
C729 C730 1.434 . S
C730 C721 1.429 . S
C730 N727 1.350 . S
C730 C729 1.434 . S
C731 C732 1.369 . S
C731 C733 1.419 . S
C731 H735 0.930 . S
C732 C731 1.369 . S
C732 C741 1.429 . S
C733 C731 1.419 . S
C733 C734 1.363 . S
C733 H736 0.929 . S
C734 C733 1.363 . S
C734 C740 1.428 . S
H735 C731 0.930 . S
H736 C733 0.929 . S
S737 N738 1.613 . S
S737 N739 1.610 . S
N738 S737 1.613 . S
N738 C741 1.350 . S
N739 S737 1.610 . S
N739 C740 1.351 . S
C740 C734 1.428 . S
C740 N739 1.351 . S
C740 C741 1.434 . S
C741 C732 1.429 . S
C741 N738 1.350 . S
C741 C740 1.434 . S
C742 C743 1.369 . S
C742 C744 1.419 . S
C742 H746 0.930 . S
C743 C742 1.369 . S
C743 C752 1.429 . S
C744 C742 1.419 . S
C744 C745 1.363 . S
C744 H747 0.929 . S
C745 C744 1.363 . S
C745 C751 1.428 . S
H746 C742 0.930 . S
H747 C744 0.929 . S
S748 N749 1.613 . S
S748 N750 1.610 . S
N749 S748 1.613 . S
N749 C752 1.350 . S
N750 S748 1.610 . S
N750 C751 1.351 . S
C751 C745 1.428 . S
C751 N750 1.351 . S
C751 C752 1.434 . S
C752 C743 1.429 . S
C752 N749 1.350 . S
C752 C751 1.434 . S
C753 C754 1.369 . S
C753 C755 1.419 . S
C753 H757 0.930 . S
C754 C753 1.369 . S
C754 C763 1.429 . S
C755 C753 1.419 . S
C755 C756 1.363 . S
C755 H758 0.929 . S
C756 C755 1.363 . S
C756 C762 1.428 . S
H757 C753 0.930 . S
H758 C755 0.929 . S
S759 N760 1.613 . S
S759 N761 1.610 . S
N760 S759 1.613 . S
N760 C763 1.350 . S
N761 S759 1.610 . S
N761 C762 1.351 . S
C762 C756 1.428 . S
C762 N761 1.351 . S
C762 C763 1.434 . S
C763 C754 1.429 . S
C763 N760 1.350 . S
C763 C762 1.434 . S
C764 C765 1.369 . S
C764 C766 1.419 . S
C764 H768 0.930 . S
C765 C764 1.369 . S
C765 C774 1.429 . S
C766 C764 1.419 . S
C766 C767 1.363 . S
C766 H769 0.929 . S
C767 C766 1.363 . S
C767 C773 1.428 . S
H768 C764 0.930 . S
H769 C766 0.929 . S
S770 N771 1.613 . S
S770 N772 1.610 . S
N771 S770 1.613 . S
N771 C774 1.350 . S
N772 S770 1.610 . S
N772 C773 1.351 . S
C773 C767 1.428 . S
C773 N772 1.351 . S
C773 C774 1.434 . S
C774 C765 1.429 . S
C774 N771 1.350 . S
C774 C773 1.434 . S
C775 C776 1.369 . S
C775 C777 1.419 . S
C775 H779 0.930 . S
C776 C775 1.369 . S
C776 C785 1.429 . S
C777 C775 1.419 . S
C777 C778 1.363 . S
C777 H780 0.929 . S
C778 C777 1.363 . S
C778 C784 1.428 . S
H779 C775 0.930 . S
H780 C777 0.929 . S
S781 N782 1.613 . S
S781 N783 1.610 . S
N782 S781 1.613 . S
N782 C785 1.350 . S
N783 S781 1.610 . S
N783 C784 1.351 . S
C784 C778 1.428 . S
C784 N783 1.351 . S
C784 C785 1.434 . S
C785 C776 1.429 . S
C785 N782 1.350 . S
C785 C784 1.434 . S
C786 C787 1.369 . S
C786 C788 1.419 . S
C786 H790 0.930 . S
C787 C786 1.369 . S
C787 C796 1.429 . S
C788 C786 1.419 . S
C788 C789 1.363 . S
C788 H791 0.929 . S
C789 C788 1.363 . S
C789 C795 1.428 . S
H790 C786 0.930 . S
H791 C788 0.929 . S
S792 N793 1.613 . S
S792 N794 1.610 . S
N793 S792 1.613 . S
N793 C796 1.350 . S
N794 S792 1.610 . S
N794 C795 1.351 . S
C795 C789 1.428 . S
C795 N794 1.351 . S
C795 C796 1.434 . S
C796 C787 1.429 . S
C796 N793 1.350 . S
C796 C795 1.434 . S
C797 C798 1.369 . S
C797 C799 1.419 . S
C797 H801 0.930 . S
C798 C797 1.369 . S
C798 C807 1.429 . S
C799 C797 1.419 . S
C799 C800 1.363 . S
C799 H802 0.929 . S
C800 C799 1.363 . S
C800 C806 1.428 . S
H801 C797 0.930 . S
H802 C799 0.929 . S
S803 N804 1.613 . S
S803 N805 1.610 . S
N804 S803 1.613 . S
N804 C807 1.350 . S
N805 S803 1.610 . S
N805 C806 1.351 . S
C806 C800 1.428 . S
C806 N805 1.351 . S
C806 C807 1.434 . S
C807 C798 1.429 . S
C807 N804 1.350 . S
C807 C806 1.434 . S
C808 C809 1.369 . S
C808 C810 1.419 . S
C808 H812 0.930 . S
C809 C808 1.369 . S
C809 C818 1.429 . S
C810 C808 1.419 . S
C810 C811 1.363 . S
C810 H813 0.929 . S
C811 C810 1.363 . S
C811 C817 1.428 . S
H812 C808 0.930 . S
H813 C810 0.929 . S
S814 N815 1.613 . S
S814 N816 1.610 . S
N815 S814 1.613 . S
N815 C818 1.350 . S
N816 S814 1.610 . S
N816 C817 1.351 . S
C817 C811 1.428 . S
C817 N816 1.351 . S
C817 C818 1.434 . S
C818 C809 1.429 . S
C818 N815 1.350 . S
C818 C817 1.434 . S
C819 C820 1.369 . S
C819 C821 1.419 . S
C819 H823 0.930 . S
C820 C819 1.369 . S
C820 C829 1.429 . S
C821 C819 1.419 . S
C821 C822 1.363 . S
C821 H824 0.929 . S
C822 C821 1.363 . S
C822 C828 1.428 . S
H823 C819 0.930 . S
H824 C821 0.929 . S
S825 N826 1.613 . S
S825 N827 1.610 . S
N826 S825 1.613 . S
N826 C829 1.350 . S
N827 S825 1.610 . S
N827 C828 1.351 . S
C828 C822 1.428 . S
C828 N827 1.351 . S
C828 C829 1.434 . S
C829 C820 1.429 . S
C829 N826 1.350 . S
C829 C828 1.434 . S
C830 C831 1.369 . S
C830 C832 1.419 . S
C830 H834 0.930 . S
C831 C830 1.369 . S
C831 C840 1.429 . S
C832 C830 1.419 . S
C832 C833 1.363 . S
C832 H835 0.929 . S
C833 C832 1.363 . S
C833 C839 1.428 . S
H834 C830 0.930 . S
H835 C832 0.929 . S
S836 N837 1.613 . S
S836 N838 1.610 . S
N837 S836 1.613 . S
N837 C840 1.350 . S
N838 S836 1.610 . S
N838 C839 1.351 . S
C839 C833 1.428 . S
C839 N838 1.351 . S
C839 C840 1.434 . S
C840 C831 1.429 . S
C840 N837 1.350 . S
C840 C839 1.434 . S
C841 C842 1.369 . S
C841 C843 1.419 . S
C841 H845 0.930 . S
C842 C841 1.369 . S
C842 C851 1.429 . S
C843 C841 1.419 . S
C843 C844 1.363 . S
C843 H846 0.929 . S
C844 C843 1.363 . S
C844 C850 1.428 . S
H845 C841 0.930 . S
H846 C843 0.929 . S
S847 N848 1.613 . S
S847 N849 1.610 . S
N848 S847 1.613 . S
N848 C851 1.350 . S
N849 S847 1.610 . S
N849 C850 1.351 . S
C850 C844 1.428 . S
C850 N849 1.351 . S
C850 C851 1.434 . S
C851 C842 1.429 . S
C851 N848 1.350 . S
C851 C850 1.434 . S
C852 C853 1.369 . S
C852 C854 1.419 . S
C852 H856 0.930 . S
C853 C852 1.369 . S
C853 C862 1.429 . S
C854 C852 1.419 . S
C854 C855 1.363 . S
C854 H857 0.929 . S
C855 C854 1.363 . S
C855 C861 1.428 . S
H856 C852 0.930 . S
H857 C854 0.929 . S
S858 N859 1.613 . S
S858 N860 1.610 . S
N859 S858 1.613 . S
N859 C862 1.350 . S
N860 S858 1.610 . S
N860 C861 1.351 . S
C861 C855 1.428 . S
C861 N860 1.351 . S
C861 C862 1.434 . S
C862 C853 1.429 . S
C862 N859 1.350 . S
C862 C861 1.434 . S
C863 C864 1.369 . S
C863 C865 1.419 . S
C863 H867 0.930 . S
C864 C863 1.369 . S
C864 C873 1.429 . S
C865 C863 1.419 . S
C865 C866 1.363 . S
C865 H868 0.929 . S
C866 C865 1.363 . S
C866 C872 1.428 . S
H867 C863 0.930 . S
H868 C865 0.929 . S
S869 N870 1.613 . S
S869 N871 1.610 . S
N870 S869 1.613 . S
N870 C873 1.350 . S
N871 S869 1.610 . S
N871 C872 1.351 . S
C872 C866 1.428 . S
C872 N871 1.351 . S
C872 C873 1.434 . S
C873 C864 1.429 . S
C873 N870 1.350 . S
C873 C872 1.434 . S
C349 C171 1.626 . S
C347 C9 1.646 . S
C360 C161 1.327 . S
C358 C22 1.317 . S
C371 C162 1.081 . S
C369 C49 1.090 . S
C380 C61 1.263 . S
C382 C184 1.258 . S
C391 C81 1.314 . S
C393 C187 1.325 . S
C404 C170 1.082 . S
C402 C108 1.093 . S
C413 C122 1.263 . S
C415 C160 1.260 . S
C424 C148 1.647 . S
C426 C178 1.625 . S
C437 C191 2.110 . S
C435 C18 2.083 . S
C446 C39 1.497 . S
C448 C240 1.469 . S
C459 C218 2.184 . S
C457 C58 2.154 . S
C470 C232 1.021 . S
C468 C69 1.069 . S
C479 C89 1.056 . S
C481 C193 1.031 . S
C492 C246 1.294 . S
C490 C102 1.329 . S
C501 C139 1.498 . S
C503 C202 1.467 . S
C512 C142 1.345 . S
C514 C223 1.332 . S
C523 C1 1.341 . S
C525 C249 1.323 . S
C534 C98 1.501 . S
C536 C233 1.463 . S
C547 C192 2.182 . S
C545 C119 2.153 . S
C558 C224 1.026 . S
C556 C128 1.068 . S
C567 C159 2.084 . S
C569 C215 2.110 . S
C578 C41 1.329 . S
C580 C222 1.291 . S
C591 C209 1.467 . S
C589 C78 1.500 . S
C600 C28 1.052 . S
C602 C201 1.036 . S
C611 C149 1.648 . S
C613 C264 1.625 . S
C622 C82 1.325 . S
C624 C254 1.320 . S
C635 C255 1.082 . S
C633 C109 1.090 . S
C646 C277 1.260 . S
C644 C121 1.264 . S
C655 C21 1.321 . S
C657 C280 1.325 . S
C668 C263 1.076 . S
C666 C48 1.090 . S
C677 C62 1.263 . S
C679 C253 1.260 . S
C688 C8 1.650 . S
C690 C271 1.621 . S
C699 C158 2.079 . S
C701 C284 2.108 . S
C712 C333 1.468 . S
C710 C99 1.499 . S
C721 C118 2.155 . S
C723 C311 2.183 . S
C732 C129 1.069 . S
C734 C325 1.022 . S
C745 C286 1.027 . S
C743 C29 1.057 . S
C754 C42 1.334 . S
C756 C339 1.285 . S
C767 C295 1.471 . S
C765 C79 1.499 . S
C778 C316 1.329 . S
C776 C2 1.343 . S
C789 C342 1.325 . S
C787 C141 1.341 . S
C798 C38 1.503 . S
C800 C326 1.464 . S
C809 C59 2.158 . S
C811 C285 2.186 . S
C822 C317 1.026 . S
C820 C68 1.070 . S
C831 C19 2.082 . S
C833 C308 2.108 . S
C842 C101 1.332 . S
C844 C315 1.286 . S
C855 C302 1.467 . S
C853 C138 1.500 . S
C866 C294 1.034 . S
C864 C88 1.053 . S
