# Generated by pormake.
# Topology scu, (8,4)-cn, num edge types: 1
# Building blocks:
#     Node 0, Type 0, BuildingBlock: VETTIZ_charged_sbu_0, # of connection points: 8
#     Node 1, Type 1, BuildingBlock: MUDLON_clean_sbu_0, # of connection points: 4
#     Node 2, Type 1, BuildingBlock: MUDLON_clean_sbu_0, # of connection points: 4
#     Edge 3, Type (0, 1), BuildingBlock: XUDNAN_clean_linker_2, # of connection points: 2
#     Edge 4, Type (0, 1), BuildingBlock: XUDNAN_clean_linker_2, # of connection points: 2
#     Edge 5, Type (0, 1), BuildingBlock: XUDNAN_clean_linker_2, # of connection points: 2
#     Edge 6, Type (0, 1), BuildingBlock: XUDNAN_clean_linker_2, # of connection points: 2
#     Edge 7, Type (0, 1), BuildingBlock: XUDNAN_clean_linker_2, # of connection points: 2
#     Edge 8, Type (0, 1), BuildingBlock: XUDNAN_clean_linker_2, # of connection points: 2
#     Edge 9, Type (0, 1), BuildingBlock: XUDNAN_clean_linker_2, # of connection points: 2
#     Edge 10, Type (0, 1), BuildingBlock: XUDNAN_clean_linker_2, # of connection points: 2
# Relax obj value: 0.036
# Max RMSD: 0.093
# Mean RMSD: 0.083
data_MOF--net-scu--node1-VETTIZ_charged_sbu_0--node2-MUDLON_clean_sbu_0--edge1-XUDNAN_clean_linker_2
_symmetry_space_group_name_H-M    P1
_symmetry_Int_Tables_number       1
_symmetry_cell_setting            triclinic
loop_
_symmetry_equiv_pos_as_xyz
'x, y, z'
_cell_length_a     24.310394
_cell_length_b     25.466632
_cell_length_c     20.70906
_cell_angle_alpha  89.81426
_cell_angle_beta   89.998143
_cell_angle_gamma 90.597486
loop_
_atom_site_label
_atom_site_type_symbol
_atom_site_fract_x
_atom_site_fract_y
_atom_site_fract_z
_atom_type_partial_charge
Fe0 Fe 1.02026 0.99953 0.08531 0.0
O1 O 1.0166 0.05334 0.01562 0.0
Fe2 Fe 0.08183 0.89433 0.01133 0.0
Fe3 Fe 0.96251 0.10914 0.01582 0.0
O4 O 0.02685 0.94966 0.01186 0.0
O5 O 0.02563 0.94954 0.00499 0.0
O6 O 1.01839 0.05397 0.00907 0.0
Fe7 Fe 1.02386 0.00405 0.93483 0.0
C8 C 0.90194 0.02341 0.09606 0.0
O9 O 1.01268 0.05949 0.15456 0.0
O10 O 1.00784 0.1348 0.09323 0.0
O11 O 0.10911 0.01153 0.9339 0.0
O12 O 0.13303 0.92767 0.94473 0.0
O13 O 0.12994 0.92796 0.08436 0.0
O14 O 0.10323 0.01107 0.08855 0.0
O15 O 1.01067 0.14023 0.94323 0.0
O16 O 1.02352 0.07066 0.87308 0.0
C17 C 0.13846 0.9759 0.09987 0.0
O18 O 0.0281 0.94156 0.8681 0.0
O19 O 0.03831 0.86728 0.93261 0.0
O20 O 0.93708 0.98831 0.08394 0.0
O21 O 0.91102 0.07183 0.08293 0.0
C22 C 1.01481 0.11027 0.14742 0.0
C23 C 0.02547 0.12066 0.88794 0.0
C24 C 0.90445 0.03426 0.92249 0.0
O25 O 0.91459 0.08011 0.94334 0.0
O26 O 0.93875 0.99689 0.92772 0.0
C27 C 0.14362 0.9745 0.92751 0.0
O28 O 0.03313 0.86392 0.08369 0.0
O29 O 0.02565 0.93577 0.15 0.0
C30 C 0.02745 0.89075 0.87815 0.0
C31 C 0.02438 0.88542 0.1393 0.0
Mg32 Mg 0.02638 0.49743 0.51647 0.0
C33 C 1.01413 0.42069 0.41885 0.0
O34 O 0.06224 0.44376 0.41058 0.0
C35 C 1.02033 0.5789 0.60787 0.0
O36 O 0.07227 0.56721 0.59856 0.0
C37 C 0.06491 0.43426 0.62671 0.0
O38 O 1.02389 0.46036 0.65193 0.0
O39 O 0.08092 0.44623 0.5701 0.0
O40 O 0.98185 0.4389 0.46139 0.0
O41 O 0.06352 0.55448 0.45168 0.0
C42 C 0.03061 0.57075 0.4085 0.0
O43 O 0.98303 0.54651 0.40136 0.0
O44 O 0.98374 0.55083 0.58026 0.0
Mg45 Mg 0.52195 0.998 0.50914 0.0
C46 C 0.44367 0.99871 0.40828 0.0
O47 O 0.45737 0.95006 0.42154 0.0
C48 C 0.61766 0.00773 0.59162 0.0
O49 O 0.6207 0.96113 0.56496 0.0
C50 C 0.42697 0.99089 0.59336 0.0
O51 O 0.42339 0.03637 0.56368 0.0
O52 O 0.46588 0.96014 0.57769 0.0
O53 O 0.46642 0.03549 0.44067 0.0
O54 O 0.57744 0.95991 0.44129 0.0
C55 C 0.60081 0.99698 0.40968 0.0
O56 O 0.58763 0.04555 0.4238 0.0
O57 O 0.57861 0.03795 0.57469 0.0
H58 H 0.07206 0.20124 0.15855 0.0
H59 H 0.96095 0.09715 0.26246 0.0
H60 H 0.94759 0.16581 0.3456 0.0
H61 H 0.13412 0.26524 0.30255 0.0
H62 H 0.13868 0.32759 0.26136 0.0
H63 H 0.1439 0.26748 0.21629 0.0
H64 H 0.06409 0.2982 0.1427 0.0
H65 H 0.05735 0.35757 0.18871 0.0
H66 H 0.99882 0.31438 0.17843 0.0
H67 H 0.93787 0.25143 0.40928 0.0
H68 H 0.94384 0.34073 0.4566 0.0
H69 H 0.06182 0.38612 0.30902 0.0
C70 C 0.04639 0.19232 0.20002 0.0
C71 C 1.01798 0.14399 0.2048 0.0
C72 C 0.98397 0.1337 0.25894 0.0
C73 C 0.97568 0.17266 0.30584 0.0
C74 C 1.00235 0.22108 0.29794 0.0
C75 C 0.03809 0.23038 0.24711 0.0
C76 C 0.06025 0.28597 0.24757 0.0
C77 C 0.12295 0.28659 0.25758 0.0
C78 C 0.04414 0.31575 0.18568 0.0
C79 C 0.03054 0.30711 0.30576 0.0
C80 C 0.99712 0.26943 0.33428 0.0
C81 C 0.96444 0.28099 0.38773 0.0
C82 C 0.96757 0.3319 0.4138 0.0
C83 C 1.00329 0.37018 0.38639 0.0
C84 C 0.03429 0.35759 0.33116 0.0
H85 H 0.82736 0.08786 0.15501 0.0
H86 H 0.86566 0.92359 0.12488 0.0
H87 H 0.7898 0.89777 0.19789 0.0
H88 H 0.79993 0.07697 0.32039 0.0
H89 H 0.74468 0.12361 0.32049 0.0
H90 H 0.79847 0.12891 0.26109 0.0
H91 H 0.72603 0.12529 0.16925 0.0
H92 H 0.67189 0.12039 0.22844 0.0
H93 H 0.67751 0.07132 0.16633 0.0
H94 H 0.71299 0.89021 0.28147 0.0
H95 H 0.64129 0.9025 0.36532 0.0
H96 H 0.65524 0.07132 0.33927 0.0
C97 C 0.81917 0.04641 0.16258 0.0
C98 C 0.85245 0.00787 0.13382 0.0
C99 C 0.84071 0.95401 0.14611 0.0
C100 C 0.79765 0.93886 0.18758 0.0
C101 C 0.76648 0.97795 0.21635 0.0
C102 C 0.77655 0.03061 0.20396 0.0
C103 C 0.73912 0.06508 0.24332 0.0
C104 C 0.77255 0.10072 0.28902 0.0
C105 C 0.70139 0.09741 0.19919 0.0
C106 C 0.70691 0.0237 0.28035 0.0
C107 C 0.72292 0.9736 0.26417 0.0
C108 C 0.69979 0.92931 0.29407 0.0
C109 C 0.65921 0.93659 0.34169 0.0
C110 C 0.64249 0.98776 0.35884 0.0
C111 C 0.66674 0.03157 0.32728 0.0
H112 H 0.97492 0.78924 0.14256 0.0
H113 H 0.07063 0.89822 0.25853 0.0
H114 H 0.08417 0.82874 0.34085 0.0
H115 H 0.90824 0.71978 0.27986 0.0
H116 H 0.91021 0.65767 0.23847 0.0
H117 H 0.90435 0.71776 0.19297 0.0
H118 H 0.99063 0.69232 0.12699 0.0
H119 H 0.99773 0.63293 0.17342 0.0
H120 H 0.05418 0.67924 0.16864 0.0
H121 H 0.09662 0.74349 0.40325 0.0
H122 H 0.09341 0.65396 0.45028 0.0
H123 H 0.98661 0.60284 0.29439 0.0
C124 C 0.99739 0.79885 0.1862 0.0
C125 C 1.02143 0.84901 0.19463 0.0
C126 C 0.05106 0.8602 0.25188 0.0
C127 C 0.05947 0.82085 0.29844 0.0
C128 C 0.03715 0.771 0.28725 0.0
C129 C 1.00547 0.76039 0.23332 0.0
C130 C 0.9867 0.70361 0.23185 0.0
C131 C 0.92364 0.69947 0.23607 0.0
C132 C 1.00864 0.67539 0.17165 0.0
C133 C 1.01372 0.68349 0.29267 0.0
C134 C 0.04307 0.72271 0.32377 0.0
C135 C 0.07317 0.71268 0.37973 0.0
C136 C 0.07166 0.66163 0.40564 0.0
C137 C 0.03982 0.62162 0.37582 0.0
C138 C 1.01119 0.63274 0.31824 0.0
H139 H 0.21632 0.91103 0.15317 0.0
H140 H 0.17136 0.07503 0.13508 0.0
H141 H 0.24778 0.09996 0.20725 0.0
H142 H 0.24794 0.91468 0.31812 0.0
H143 H 0.30517 0.87045 0.31306 0.0
H144 H 0.25008 0.86593 0.25526 0.0
H145 H 0.31996 0.87708 0.16149 0.0
H146 H 0.37539 0.88135 0.21906 0.0
H147 H 0.36594 0.93308 0.16062 0.0
H148 H 0.32576 0.10653 0.28841 0.0
H149 H 0.39927 0.09327 0.36979 0.0
H150 H 0.39216 0.92553 0.33352 0.0
C151 C 0.22308 0.95227 0.16336 0.0
C152 C 0.18775 0.99094 0.13817 0.0
C153 C 0.19779 0.0445 0.15359 0.0
C154 C 0.24121 0.05918 0.19458 0.0
C155 C 0.27454 0.01997 0.21965 0.0
C156 C 0.26618 0.96765 0.20426 0.0
C157 C 0.30613 0.9329 0.23995 0.0
C158 C 0.27549 0.8937 0.28422 0.0
C159 C 0.34411 0.90443 0.19244 0.0
C160 C 0.33749 0.97369 0.27866 0.0
C161 C 0.31908 0.02376 0.26614 0.0
C162 C 0.34089 0.06748 0.29815 0.0
C163 C 0.38254 0.05965 0.34432 0.0
C164 C 0.40158 0.00848 0.35803 0.0
C165 C 0.3788 0.96526 0.32417 0.0
H166 H 0.09428 0.81362 0.84176 0.0
H167 H 0.93878 0.88589 0.79517 0.0
H168 H 0.91765 0.8128 0.71915 0.0
H169 H 0.12396 0.76267 0.67996 0.0
H170 H 0.1549 0.70436 0.71276 0.0
H171 H 0.15797 0.76495 0.75727 0.0
H172 H 0.11341 0.71762 0.8556 0.0
H173 H 0.10883 0.65728 0.81093 0.0
H174 H 0.04781 0.68487 0.84607 0.0
H175 H 0.91154 0.72479 0.65602 0.0
H176 H 0.92591 0.63851 0.60303 0.0
H177 H 0.08595 0.62801 0.6943 0.0
C178 C 0.05637 0.81468 0.81427 0.0
C179 C 1.01825 0.85513 0.82351 0.0
C180 C 0.96877 0.85536 0.7876 0.0
C181 C 0.95635 0.81383 0.74495 0.0
C182 C 0.99424 0.77316 0.73882 0.0
C183 C 0.04373 0.77413 0.77177 0.0
C184 C 0.07727 0.7258 0.75903 0.0
C185 C 0.13173 0.74032 0.72522 0.0
C186 C 0.08739 0.69458 0.82163 0.0
C187 C 0.03881 0.69665 0.7144 0.0
C188 C 0.99095 0.72407 0.70313 0.0
C189 C 0.94913 0.70338 0.66419 0.0
C190 C 0.95735 0.6542 0.63483 0.0
C191 C 1.00706 0.62673 0.64458 0.0
C192 C 0.04761 0.64817 0.68561 0.0
H193 H 0.16471 0.03493 0.81935 0.0
H194 H 0.24034 0.929 0.95675 0.0
H195 H 0.32175 0.9221 0.88654 0.0
H196 H 0.20563 0.96984 0.68152 0.0
H197 H 0.21995 0.02717 0.63284 0.0
H198 H 0.17038 0.03043 0.69723 0.0
H199 H 0.22354 0.10802 0.74907 0.0
H200 H 0.27266 0.10611 0.68396 0.0
H201 H 0.29584 0.10152 0.76645 0.0
H202 H 0.38888 0.91645 0.79529 0.0
H203 H 0.44472 0.9243 0.69566 0.0
H204 H 0.32738 0.03522 0.61811 0.0
C205 C 0.19942 0.01212 0.83572 0.0
C206 C 0.1965 0.9828 0.89365 0.0
C207 C 0.24199 0.95196 0.91263 0.0
C208 C 0.28829 0.94756 0.87294 0.0
C209 C 0.2888 0.97454 0.81447 0.0
C210 C 0.24625 0.00723 0.79644 0.0
C211 C 0.25628 0.02985 0.72959 0.0
C212 C 0.21032 0.01331 0.68255 0.0
C213 C 0.26247 0.08994 0.73246 0.0
C214 C 0.31034 0.00393 0.71268 0.0
C215 C 0.32822 0.97194 0.76214 0.0
C216 C 0.3758 0.94203 0.75653 0.0
C217 C 0.40695 0.94625 0.69955 0.0
C218 C 0.39053 0.9804 0.6493 0.0
C219 C 0.3412 0.00901 0.65592 0.0
H220 H 0.03067 0.22682 0.90241 0.0
H221 H 0.06435 0.10399 0.76323 0.0
H222 H 0.09261 0.17226 0.6836 0.0
H223 H 0.96915 0.31232 0.79698 0.0
H224 H 0.99621 0.37065 0.83507 0.0
H225 H 0.98614 0.31179 0.88172 0.0
H226 H 0.08867 0.31492 0.91638 0.0
H227 H 0.09921 0.37376 0.86921 0.0
H228 H 0.14167 0.31727 0.85551 0.0
H229 H 0.10882 0.25663 0.61646 0.0
H230 H 0.10417 0.3455 0.56784 0.0
H231 H 0.0587 0.4095 0.75373 0.0
C232 C 0.04462 0.21357 0.85563 0.0
C233 C 0.04507 0.15968 0.83929 0.0
C234 C 0.06346 0.14495 0.77702 0.0
C235 C 0.07992 0.18348 0.73166 0.0
C236 C 0.07815 0.23636 0.74961 0.0
C237 C 0.06089 0.25106 0.81036 0.0
C238 C 0.05779 0.30996 0.81719 0.0
C239 C 0.99884 0.32715 0.83365 0.0
C240 C 0.09932 0.33015 0.86755 0.0
C241 C 0.0742 0.32665 0.74994 0.0
C242 C 0.08695 0.28398 0.71169 0.0
C243 C 0.0997 0.2902 0.64637 0.0
C244 C 0.09732 0.3409 0.61924 0.0
C245 C 0.08143 0.38436 0.6573 0.0
C246 C 0.07157 0.3771 0.72373 0.0
H247 H 0.88217 0.97117 0.81687 0.0
H248 H 0.80932 0.08472 0.94621 0.0
H249 H 0.7282 0.09043 0.87561 0.0
H250 H 0.84087 0.03026 0.67306 0.0
H251 H 0.82506 0.97054 0.6301 0.0
H252 H 0.87546 0.97021 0.69379 0.0
H253 H 0.82188 0.89638 0.75334 0.0
H254 H 0.77181 0.89547 0.68918 0.0
H255 H 0.74999 0.90493 0.77148 0.0
H256 H 0.66025 0.09246 0.78534 0.0
H257 H 0.60253 0.07981 0.68806 0.0
H258 H 0.71697 0.96324 0.61824 0.0
C259 C 0.84829 0.99578 0.83129 0.0
C260 C 0.85204 0.02747 0.88701 0.0
C261 C 0.80737 0.0602 0.90359 0.0
C262 C 0.76113 0.06387 0.86373 0.0
C263 C 0.75973 0.03421 0.80755 0.0
C264 C 0.80143 0.99989 0.79187 0.0
C265 C 0.79006 0.9738 0.72745 0.0
C266 C 0.83558 0.98702 0.67821 0.0
C267 C 0.783 0.9141 0.73589 0.0
C268 C 0.73616 0.99957 0.70921 0.0
C269 C 0.71961 0.03455 0.7559 0.0
C270 C 0.6723 0.06463 0.74873 0.0
C271 C 0.64006 0.05762 0.69309 0.0
C272 C 0.65512 0.02052 0.64577 0.0
C273 C 0.7042 0.9917 0.65383 0.0
loop_
_geom_bond_atom_site_label_1
_geom_bond_atom_site_label_2
_geom_bond_distance
_geom_bond_site_symmetry_2
_ccdc_geom_bond_type
Fe0 O1 1.907 . S
Fe0 O4 1.694 1_645 S
Fe0 O9 2.098 1_655 S
Fe0 O14 1.922 1_655 S
Fe0 O20 2.094 1_545 S
Fe0 O29 1.917 1_545 S
O1 Fe0 1.907 . S
O1 Fe3 1.715 . S
Fe2 O4 1.886 . S
Fe2 O5 1.715 1_554 S
Fe2 O12 1.935 1_554 S
Fe2 O13 2.077 . S
Fe2 O19 1.935 1_554 S
Fe2 O28 2.077 . S
Fe3 O1 1.715 . S
Fe3 O6 1.886 1_554 S
Fe3 O10 1.935 . S
Fe3 O15 2.077 1_554 S
Fe3 O21 1.935 . S
Fe3 O25 2.077 1_554 S
O4 Fe0 1.694 1_465 S
O4 Fe2 1.886 . S
O5 Fe2 1.715 1_556 S
O5 Fe7 1.907 . S
O6 Fe3 1.886 1_556 S
O6 Fe7 1.694 1_645 S
Fe7 O5 1.907 . S
Fe7 O6 1.694 1_465 S
Fe7 O11 2.098 1_565 S
Fe7 O16 1.922 1_565 S
Fe7 O18 2.094 1_455 S
Fe7 O26 1.917 1_455 S
C8 O20 1.381 1_545 S
C8 O21 1.421 . S
O9 Fe0 2.098 1_455 S
O9 C22 1.381 1_455 S
O10 Fe3 1.935 . S
O10 C22 1.421 . S
O11 Fe7 2.098 1_545 S
O11 C27 1.381 1_545 S
O12 Fe2 1.935 1_556 S
O12 C27 1.421 . S
O13 Fe2 2.077 . S
O13 C17 1.381 . S
O14 Fe0 1.922 1_455 S
O14 C17 1.421 1_545 S
O15 Fe3 2.077 1_556 S
O15 C23 1.381 . S
O16 Fe7 1.922 1_545 S
O16 C23 1.421 1_455 S
C17 O13 1.381 . S
C17 O14 1.421 1_565 S
O18 Fe7 2.094 1_655 S
O18 C30 1.381 1_655 S
O19 Fe2 1.935 1_556 S
O19 C30 1.421 . S
O20 Fe0 2.094 1_565 S
O20 C8 1.381 1_565 S
O21 Fe3 1.935 . S
O21 C8 1.421 . S
C22 O9 1.381 1_655 S
C22 O10 1.421 . S
C23 O15 1.381 . S
C23 O16 1.421 1_655 S
C24 O25 1.381 . S
C24 O26 1.421 1_545 S
O25 Fe3 2.077 1_556 S
O25 C24 1.381 . S
O26 Fe7 1.917 1_655 S
O26 C24 1.421 1_565 S
C27 O11 1.381 1_565 S
C27 O12 1.421 . S
O28 Fe2 2.077 . S
O28 C31 1.381 . S
O29 Fe0 1.917 1_565 S
O29 C31 1.421 1_655 S
C30 O18 1.381 1_455 S
C30 O19 1.421 . S
C31 O28 1.381 . S
C31 O29 1.421 1_455 S
Mg32 O39 2.141 . S
Mg32 O40 2.048 . S
Mg32 O41 2.048 . S
Mg32 O44 2.141 . S
C33 O34 1.313 . S
C33 O40 1.195 1_455 S
O34 C33 1.313 . S
C35 O36 1.245 . S
C35 O44 1.289 1_455 S
O36 C35 1.245 . S
C37 O38 1.245 . S
C37 O39 1.289 1_455 S
O38 C37 1.245 . S
O39 Mg32 2.141 . S
O39 C37 1.289 1_655 S
O40 Mg32 2.048 . S
O40 C33 1.195 1_655 S
O41 Mg32 2.048 . S
O41 C42 1.195 1_655 S
C42 O41 1.195 1_455 S
C42 O43 1.313 . S
O43 C42 1.313 . S
O44 Mg32 2.141 . S
O44 C35 1.289 1_655 S
Mg45 O52 2.141 . S
Mg45 O53 2.048 . S
Mg45 O54 2.048 . S
Mg45 O57 2.141 . S
C46 O47 1.313 . S
C46 O53 1.195 1_565 S
O47 C46 1.313 . S
C48 O49 1.245 . S
C48 O57 1.289 1_565 S
O49 C48 1.245 . S
C50 O51 1.245 . S
C50 O52 1.289 1_565 S
O51 C50 1.245 . S
O52 Mg45 2.141 . S
O52 C50 1.289 1_545 S
O53 Mg45 2.048 . S
O53 C46 1.195 1_545 S
O54 Mg45 2.048 . S
O54 C55 1.195 1_545 S
C55 O54 1.195 1_565 S
C55 O56 1.313 . S
O56 C55 1.313 . S
O57 Mg45 2.141 . S
O57 C48 1.289 1_545 S
H58 C70 0.930 . S
H59 C72 0.930 . S
H60 C73 0.930 . S
H61 C77 0.959 . S
H62 C77 0.959 . S
H63 C77 0.961 . S
H64 C78 0.960 . S
H65 C78 0.961 . S
H66 C78 0.959 . S
H67 C81 0.929 . S
H68 C82 0.931 . S
H69 C84 0.930 . S
C70 H58 0.930 . S
C70 C71 1.399 1_455 S
C70 C75 1.399 . S
C71 C70 1.399 1_655 S
C71 C72 1.376 . S
C72 H59 0.930 . S
C72 C71 1.376 . S
C72 C73 1.388 . S
C73 H60 0.930 . S
C73 C72 1.388 . S
C73 C74 1.390 . S
C74 C73 1.390 . S
C74 C75 1.394 1_655 S
C74 C80 1.465 . S
C75 C70 1.399 . S
C75 C74 1.394 1_455 S
C75 C76 1.516 . S
C76 C75 1.516 . S
C76 C77 1.502 . S
C76 C78 1.561 . S
C76 C79 1.526 . S
C77 H61 0.959 . S
C77 H62 0.959 . S
C77 H63 0.961 . S
C77 C76 1.502 . S
C78 H64 0.960 . S
C78 H65 0.961 . S
C78 H66 0.959 . S
C78 C76 1.561 . S
C79 C76 1.526 . S
C79 C80 1.396 1_455 S
C79 C84 1.390 . S
C80 C74 1.465 . S
C80 C79 1.396 1_655 S
C80 C81 1.399 . S
C81 H67 0.929 . S
C81 C80 1.399 . S
C81 C82 1.385 . S
C82 H68 0.931 . S
C82 C81 1.385 . S
C82 C83 1.389 . S
C83 C82 1.389 . S
C83 C84 1.387 1_655 S
C84 H69 0.930 . S
C84 C79 1.390 . S
C84 C83 1.387 1_455 S
H85 C97 0.930 . S
H86 C99 0.930 . S
H87 C100 0.930 . S
H88 C104 0.959 1_565 S
H89 C104 0.959 . S
H90 C104 0.961 . S
H91 C105 0.960 . S
H92 C105 0.961 . S
H93 C105 0.959 . S
H94 C108 0.929 . S
H95 C109 0.931 . S
H96 C111 0.930 . S
C97 H85 0.930 . S
C97 C98 1.392 1_545 S
C97 C102 1.399 . S
C98 C97 1.392 1_565 S
C98 C99 1.384 . S
C99 H86 0.930 . S
C99 C98 1.384 . S
C99 C100 1.388 . S
C100 H87 0.930 . S
C100 C99 1.388 . S
C100 C101 1.390 . S
C101 C100 1.390 . S
C101 C102 1.394 1_565 S
C101 C107 1.465 . S
C102 C97 1.399 . S
C102 C101 1.394 1_545 S
C102 C103 1.516 . S
C103 C102 1.516 . S
C103 C104 1.502 . S
C103 C105 1.561 . S
C103 C106 1.526 . S
C104 H88 0.959 1_545 S
C104 H89 0.959 . S
C104 H90 0.961 . S
C104 C103 1.502 . S
C105 H91 0.960 . S
C105 H92 0.961 . S
C105 H93 0.959 . S
C105 C103 1.561 . S
C106 C103 1.526 . S
C106 C107 1.396 1_545 S
C106 C111 1.390 . S
C107 C101 1.465 . S
C107 C106 1.396 1_565 S
C107 C108 1.399 . S
C108 H94 0.929 . S
C108 C107 1.399 . S
C108 C109 1.385 . S
C109 H95 0.931 . S
C109 C108 1.385 . S
C109 C110 1.389 . S
C110 C109 1.389 . S
C110 C111 1.387 1_565 S
C111 H96 0.930 . S
C111 C106 1.390 . S
C111 C110 1.387 1_545 S
H112 C124 0.930 . S
H113 C126 0.930 . S
H114 C127 0.930 . S
H115 C131 0.959 . S
H116 C131 0.959 . S
H117 C131 0.961 . S
H118 C132 0.960 . S
H119 C132 0.961 . S
H120 C132 0.959 . S
H121 C135 0.929 . S
H122 C136 0.931 . S
H123 C138 0.930 . S
C124 H112 0.930 . S
C124 C125 1.399 1_655 S
C124 C129 1.399 . S
C125 C124 1.399 1_455 S
C125 C126 1.376 . S
C126 H113 0.930 . S
C126 C125 1.376 . S
C126 C127 1.388 . S
C127 H114 0.930 . S
C127 C126 1.388 . S
C127 C128 1.390 . S
C128 C127 1.390 . S
C128 C129 1.394 1_455 S
C128 C134 1.465 . S
C129 C124 1.399 . S
C129 C128 1.394 1_655 S
C129 C130 1.516 . S
C130 C129 1.516 . S
C130 C131 1.502 . S
C130 C132 1.561 1_655 S
C130 C133 1.526 . S
C131 H115 0.959 . S
C131 H116 0.959 . S
C131 H117 0.961 . S
C131 C130 1.502 . S
C132 H118 0.960 . S
C132 H119 0.961 . S
C132 H120 0.959 . S
C132 C130 1.561 1_455 S
C133 C130 1.526 . S
C133 C134 1.396 1_655 S
C133 C138 1.390 . S
C134 C128 1.465 . S
C134 C133 1.396 1_455 S
C134 C135 1.399 . S
C135 H121 0.929 . S
C135 C134 1.399 . S
C135 C136 1.385 . S
C136 H122 0.931 . S
C136 C135 1.385 . S
C136 C137 1.389 . S
C137 C136 1.389 . S
C137 C138 1.387 1_455 S
C138 H123 0.930 . S
C138 C133 1.390 . S
C138 C137 1.387 1_655 S
H139 C151 0.930 . S
H140 C153 0.930 . S
H141 C154 0.930 . S
H142 C158 0.959 . S
H143 C158 0.959 . S
H144 C158 0.961 . S
H145 C159 0.960 . S
H146 C159 0.961 . S
H147 C159 0.959 . S
H148 C162 0.929 . S
H149 C163 0.931 . S
H150 C165 0.930 . S
C151 H139 0.930 . S
C151 C152 1.399 1_545 S
C151 C156 1.399 . S
C152 C151 1.399 1_565 S
C152 C153 1.376 . S
C153 H140 0.930 . S
C153 C152 1.376 . S
C153 C154 1.388 . S
C154 H141 0.930 . S
C154 C153 1.388 . S
C154 C155 1.390 . S
C155 C154 1.390 . S
C155 C156 1.394 1_565 S
C155 C161 1.465 . S
C156 C151 1.399 . S
C156 C155 1.394 1_545 S
C156 C157 1.516 . S
C157 C156 1.516 . S
C157 C158 1.502 . S
C157 C159 1.561 . S
C157 C160 1.526 . S
C158 H142 0.959 . S
C158 H143 0.959 . S
C158 H144 0.961 . S
C158 C157 1.502 . S
C159 H145 0.960 . S
C159 H146 0.961 . S
C159 H147 0.959 . S
C159 C157 1.561 . S
C160 C157 1.526 . S
C160 C161 1.396 1_545 S
C160 C165 1.390 . S
C161 C155 1.465 . S
C161 C160 1.396 1_565 S
C161 C162 1.399 . S
C162 H148 0.929 . S
C162 C161 1.399 . S
C162 C163 1.385 . S
C163 H149 0.931 . S
C163 C162 1.385 . S
C163 C164 1.389 . S
C164 C163 1.389 . S
C164 C165 1.387 1_565 S
C165 H150 0.930 . S
C165 C160 1.390 . S
C165 C164 1.387 1_545 S
H166 C178 0.930 . S
H167 C180 0.930 . S
H168 C181 0.930 . S
H169 C185 0.959 . S
H170 C185 0.959 . S
H171 C185 0.961 . S
H172 C186 0.960 . S
H173 C186 0.961 . S
H174 C186 0.959 . S
H175 C189 0.929 . S
H176 C190 0.931 . S
H177 C192 0.930 . S
C178 H166 0.930 . S
C178 C179 1.399 1_455 S
C178 C183 1.399 . S
C179 C178 1.399 1_655 S
C179 C180 1.376 . S
C180 H167 0.930 . S
C180 C179 1.376 . S
C180 C181 1.388 . S
C181 H168 0.930 . S
C181 C180 1.388 . S
C181 C182 1.390 . S
C182 C181 1.390 . S
C182 C183 1.394 1_655 S
C182 C188 1.465 . S
C183 C178 1.399 . S
C183 C182 1.394 1_455 S
C183 C184 1.516 . S
C184 C183 1.516 . S
C184 C185 1.502 . S
C184 C186 1.561 1_455 S
C184 C187 1.526 . S
C185 H169 0.959 . S
C185 H170 0.959 . S
C185 H171 0.961 . S
C185 C184 1.502 . S
C186 H172 0.960 . S
C186 H173 0.961 . S
C186 H174 0.959 . S
C186 C184 1.561 1_655 S
C187 C184 1.526 . S
C187 C188 1.396 1_455 S
C187 C192 1.390 . S
C188 C182 1.465 . S
C188 C187 1.396 1_655 S
C188 C189 1.399 . S
C189 H175 0.929 . S
C189 C188 1.399 . S
C189 C190 1.385 . S
C190 H176 0.931 . S
C190 C189 1.385 . S
C190 C191 1.389 . S
C191 C190 1.389 . S
C191 C192 1.387 1_655 S
C192 H177 0.930 . S
C192 C187 1.390 . S
C192 C191 1.387 1_455 S
H193 C205 0.930 . S
H194 C207 0.930 . S
H195 C208 0.930 . S
H196 C212 0.959 . S
H197 C212 0.959 . S
H198 C212 0.961 . S
H199 C213 0.960 . S
H200 C213 0.961 . S
H201 C213 0.959 . S
H202 C216 0.929 . S
H203 C217 0.931 . S
H204 C219 0.930 . S
C205 H193 0.930 . S
C205 C206 1.399 1_545 S
C205 C210 1.399 . S
C206 C205 1.399 1_565 S
C206 C207 1.376 . S
C207 H194 0.930 . S
C207 C206 1.376 . S
C207 C208 1.388 . S
C208 H195 0.930 . S
C208 C207 1.388 . S
C208 C209 1.390 . S
C209 C208 1.390 . S
C209 C210 1.394 1_565 S
C209 C215 1.465 . S
C210 C205 1.399 . S
C210 C209 1.394 1_545 S
C210 C211 1.516 . S
C211 C210 1.516 . S
C211 C212 1.502 . S
C211 C213 1.561 . S
C211 C214 1.526 . S
C212 H196 0.959 . S
C212 H197 0.959 . S
C212 H198 0.961 . S
C212 C211 1.502 . S
C213 H199 0.960 . S
C213 H200 0.961 . S
C213 H201 0.959 . S
C213 C211 1.561 . S
C214 C211 1.526 . S
C214 C215 1.396 1_545 S
C214 C219 1.390 . S
C215 C209 1.465 . S
C215 C214 1.396 1_565 S
C215 C216 1.399 . S
C216 H202 0.929 . S
C216 C215 1.399 . S
C216 C217 1.385 . S
C217 H203 0.931 . S
C217 C216 1.385 . S
C217 C218 1.389 . S
C218 C217 1.389 . S
C218 C219 1.387 1_565 S
C219 H204 0.930 . S
C219 C214 1.390 . S
C219 C218 1.387 1_545 S
H220 C232 0.930 . S
H221 C234 0.930 . S
H222 C235 0.930 . S
H223 C239 0.968 . S
H224 C239 0.957 1_455 S
H225 C239 0.959 1_455 S
H226 C240 0.960 . S
H227 C240 0.961 . S
H228 C240 0.959 . S
H229 C243 0.929 . S
H230 C244 0.931 . S
H231 C246 0.930 . S
C232 H220 0.930 . S
C232 C233 1.404 . S
C232 C237 1.399 . S
C233 C232 1.404 . S
C233 C234 1.371 1_455 S
C234 H221 0.930 . S
C234 C233 1.371 1_655 S
C234 C235 1.388 . S
C235 H222 0.930 . S
C235 C234 1.388 . S
C235 C236 1.390 . S
C236 C235 1.390 . S
C236 C237 1.394 1_655 S
C236 C242 1.465 . S
C237 C232 1.399 . S
C237 C236 1.394 1_455 S
C237 C238 1.516 . S
C238 C237 1.516 . S
C238 C239 1.498 1_455 S
C238 C240 1.561 . S
C238 C241 1.526 . S
C239 H223 0.968 . S
C239 H224 0.957 1_655 S
C239 H225 0.959 1_655 S
C239 C238 1.498 1_655 S
C240 H226 0.960 . S
C240 H227 0.961 . S
C240 H228 0.959 . S
C240 C238 1.561 . S
C241 C238 1.526 . S
C241 C242 1.396 1_455 S
C241 C246 1.390 . S
C242 C236 1.465 . S
C242 C241 1.396 1_655 S
C242 C243 1.399 . S
C243 H229 0.929 . S
C243 C242 1.399 . S
C243 C244 1.385 . S
C244 H230 0.931 . S
C244 C243 1.385 . S
C244 C245 1.395 . S
C245 C244 1.395 . S
C245 C246 1.381 1_655 S
C246 H231 0.930 . S
C246 C241 1.390 . S
C246 C245 1.381 1_455 S
H247 C259 0.930 . S
H248 C261 0.930 . S
H249 C262 0.930 . S
H250 C266 0.959 . S
H251 C266 0.959 . S
H252 C266 0.961 . S
H253 C267 0.960 . S
H254 C267 0.961 . S
H255 C267 0.959 . S
H256 C270 0.929 . S
H257 C271 0.931 . S
H258 C273 0.930 . S
C259 H247 0.930 . S
C259 C260 1.399 1_565 S
C259 C264 1.399 . S
C260 C259 1.399 1_545 S
C260 C261 1.376 . S
C261 H248 0.930 . S
C261 C260 1.376 . S
C261 C262 1.388 . S
C262 H249 0.930 . S
C262 C261 1.388 . S
C262 C263 1.390 . S
C263 C262 1.390 . S
C263 C264 1.394 1_545 S
C263 C269 1.465 . S
C264 C259 1.399 . S
C264 C263 1.394 1_565 S
C264 C265 1.516 . S
C265 C264 1.516 . S
C265 C266 1.502 . S
C265 C267 1.561 . S
C265 C268 1.526 . S
C266 H250 0.959 . S
C266 H251 0.959 . S
C266 H252 0.961 . S
C266 C265 1.502 . S
C267 H253 0.960 . S
C267 H254 0.961 . S
C267 H255 0.959 . S
C267 C265 1.561 . S
C268 C265 1.526 . S
C268 C269 1.396 1_565 S
C268 C273 1.390 . S
C269 C263 1.465 . S
C269 C268 1.396 1_545 S
C269 C270 1.399 . S
C270 H256 0.929 . S
C270 C269 1.399 . S
C270 C271 1.385 . S
C271 H257 0.931 . S
C271 C270 1.385 . S
C271 C272 1.389 . S
C272 C271 1.389 . S
C272 C273 1.387 1_545 S
C273 H258 0.930 . S
C273 C268 1.390 . S
C273 C272 1.387 1_565 S
C71 C22 1.400 . S
C83 C33 1.472 1_655 S
C98 C8 1.431 1_565 S
C110 C55 1.460 . S
C125 C31 1.370 . S
C137 C42 1.454 . S
C152 C17 1.370 . S
C164 C46 1.446 . S
C179 C30 1.357 1_655 S
C191 C35 1.392 1_655 S
C206 C27 1.321 . S
C218 C50 1.367 . S
C245 C37 1.383 1_655 S
C233 C23 1.308 1_455 S
C260 C24 1.322 . S
C272 C48 1.406 1_545 S
