# Generated by pormake.
# Topology anh, (6,3)-cn, num edge types: 1
# Building blocks:
#     Node 0, Type 0, BuildingBlock: BETFEN_clean_sbu_0, # of connection points: 6
#     Node 1, Type 0, BuildingBlock: BETFEN_clean_sbu_0, # of connection points: 6
#     Node 2, Type 0, BuildingBlock: BETFEN_clean_sbu_0, # of connection points: 6
#     Node 3, Type 1, BuildingBlock: OLANEW_clean_sbu_2, # of connection points: 3
#     Node 4, Type 1, BuildingBlock: OLANEW_clean_sbu_2, # of connection points: 3
#     Node 5, Type 1, BuildingBlock: OLANEW_clean_sbu_2, # of connection points: 3
#     Node 6, Type 1, BuildingBlock: OLANEW_clean_sbu_2, # of connection points: 3
#     Node 7, Type 1, BuildingBlock: OLANEW_clean_sbu_2, # of connection points: 3
#     Node 8, Type 1, BuildingBlock: OLANEW_clean_sbu_2, # of connection points: 3
#     Edge 9, Type (0, 1), BuildingBlock: OJICUG_clean_linker_0, # of connection points: 2
#     Edge 10, Type (0, 1), BuildingBlock: OJICUG_clean_linker_0, # of connection points: 2
#     Edge 11, Type (0, 1), BuildingBlock: OJICUG_clean_linker_0, # of connection points: 2
#     Edge 12, Type (0, 1), BuildingBlock: OJICUG_clean_linker_0, # of connection points: 2
#     Edge 13, Type (0, 1), BuildingBlock: OJICUG_clean_linker_0, # of connection points: 2
#     Edge 14, Type (0, 1), BuildingBlock: OJICUG_clean_linker_0, # of connection points: 2
#     Edge 15, Type (0, 1), BuildingBlock: OJICUG_clean_linker_0, # of connection points: 2
#     Edge 16, Type (0, 1), BuildingBlock: OJICUG_clean_linker_0, # of connection points: 2
#     Edge 17, Type (0, 1), BuildingBlock: OJICUG_clean_linker_0, # of connection points: 2
#     Edge 18, Type (0, 1), BuildingBlock: OJICUG_clean_linker_0, # of connection points: 2
#     Edge 19, Type (0, 1), BuildingBlock: OJICUG_clean_linker_0, # of connection points: 2
#     Edge 20, Type (0, 1), BuildingBlock: OJICUG_clean_linker_0, # of connection points: 2
#     Edge 21, Type (0, 1), BuildingBlock: OJICUG_clean_linker_0, # of connection points: 2
#     Edge 22, Type (0, 1), BuildingBlock: OJICUG_clean_linker_0, # of connection points: 2
#     Edge 23, Type (0, 1), BuildingBlock: OJICUG_clean_linker_0, # of connection points: 2
#     Edge 24, Type (0, 1), BuildingBlock: OJICUG_clean_linker_0, # of connection points: 2
#     Edge 25, Type (0, 1), BuildingBlock: OJICUG_clean_linker_0, # of connection points: 2
#     Edge 26, Type (0, 1), BuildingBlock: OJICUG_clean_linker_0, # of connection points: 2
# Relax obj value: 0.196
# Max RMSD: 0.192
# Mean RMSD: 0.124
data_MOF--net-anh--node1-BETFEN_clean_sbu_0--node2-OLANEW_clean_sbu_2--edge1-OJICUG_clean_linker_0
_symmetry_space_group_name_H-M    P1
_symmetry_Int_Tables_number       1
_symmetry_cell_setting            triclinic
loop_
_symmetry_equiv_pos_as_xyz
'x, y, z'
_cell_length_a     25.424597
_cell_length_b     29.444597
_cell_length_c     37.218505
_cell_angle_alpha  89.829356
_cell_angle_beta   92.269378
_cell_angle_gamma 105.2189
loop_
_atom_site_label
_atom_site_type_symbol
_atom_site_fract_x
_atom_site_fract_y
_atom_site_fract_z
_atom_type_partial_charge
Pr0 Pr 0.01987 0.48694 0.16367 0.0
Pr1 Pr 0.05517 0.59645 0.14117 0.0
C2 C 0.98337 0.40995 0.20388 0.0
C3 C 0.93409 0.37058 0.20512 0.0
C4 C 0.88796 0.37006 0.18299 0.0
C5 C 0.84055 0.33323 0.18528 0.0
C6 C 0.83852 0.29625 0.20971 0.0
C7 C 0.88521 0.29686 0.23155 0.0
C8 C 0.93253 0.33374 0.22926 0.0
C9 C 0.0122 0.49434 0.08865 0.0
C10 C 0.92536 0.54356 0.13976 0.0
C11 C 0.10436 0.68231 0.11612 0.0
C12 C 0.15802 0.71451 0.12512 0.0
C13 C 0.19136 0.70252 0.15246 0.0
C14 C 0.24188 0.7331 0.16202 0.0
C15 C 0.26021 0.77642 0.14443 0.0
C16 C 0.22674 0.78817 0.11679 0.0
C17 C 0.17601 0.75736 0.10718 0.0
C18 C 0.04045 0.57682 0.21384 0.0
C19 C 0.15118 0.53651 0.15382 0.0
O20 O 0.97718 0.45144 0.21222 0.0
O21 O 0.0143 0.41065 0.17638 0.0
O22 O 0.02662 0.52729 0.11125 0.0
O23 O 0.99973 0.45408 0.10506 0.0
O24 O 0.96277 0.57675 0.12407 0.0
O25 O 0.93826 0.51089 0.16033 0.0
O26 O 0.10515 0.6433 0.09965 0.0
O27 O 0.06961 0.67555 0.14188 0.0
O28 O 0.06392 0.55589 0.19275 0.0
O29 O 0.02473 0.61055 0.19785 0.0
O30 O 0.11448 0.49834 0.16401 0.0
O31 O 0.13834 0.57569 0.14418 0.0
H32 H 0.88856 0.3983 0.16414 0.0
H33 H 0.80559 0.33358 0.16779 0.0
H34 H 0.88483 0.26934 0.25098 0.0
H35 H 0.96775 0.33377 0.24665 0.0
H36 H 0.17792 0.66968 0.16679 0.0
H37 H 0.26598 0.72323 0.18386 0.0
H38 H 0.23981 0.82108 0.10253 0.0
H39 H 0.15075 0.76709 0.08596 0.0
Pr40 Pr 0.57137 0.03071 0.5424 0.0
Pr41 Pr 0.44873 1.00461 0.54298 0.0
C42 C 0.67602 0.0725 0.52786 0.0
C43 C 0.70546 0.11972 0.5158 0.0
C44 C 0.76172 0.13671 0.52315 0.0
C45 C 0.78975 0.18171 0.51188 0.0
C46 C 0.76189 0.21047 0.49303 0.0
C47 C 0.70528 0.19337 0.48616 0.0
C48 C 0.67739 0.14849 0.49742 0.0
C49 C 0.53057 1.01082 0.61041 0.0
C50 C 0.50558 0.1166 0.54756 0.0
C51 C 0.34254 0.96202 0.552 0.0
C52 C 0.30742 0.91376 0.54552 0.0
C53 C 0.26002 0.90684 0.52334 0.0
C54 C 0.22872 0.86132 0.51448 0.0
C55 C 0.24412 0.8216 0.52766 0.0
C56 C 0.291 0.8287 0.55059 0.0
C57 C 0.32228 0.87421 0.55941 0.0
C58 C 0.49067 0.02512 0.47512 0.0
C59 C 0.51472 0.91771 0.54349 0.0
O60 O 0.64107 0.04668 0.50446 0.0
O61 O 0.65758 0.0701 0.56028 0.0
O62 O 0.51293 0.03512 0.5872 0.0
O63 O 0.57222 0.99755 0.59946 0.0
O64 O 0.46178 0.08435 0.55722 0.0
O65 O 0.54855 0.10396 0.5363 0.0
O66 O 0.37984 0.96778 0.57809 0.0
O67 O 0.36004 0.98617 0.52334 0.0
O68 O 0.50704 0.99973 0.49806 0.0
O69 O 0.45075 0.0402 0.48665 0.0
O70 O 0.56124 0.94927 0.53792 0.0
O71 O 0.46931 0.93071 0.5479 0.0
H72 H 0.78403 0.11508 0.53743 0.0
H73 H 0.83338 0.19361 0.51732 0.0
H74 H 0.68239 0.21481 0.47223 0.0
H75 H 0.63385 0.13622 0.49169 0.0
H76 H 0.24783 0.93672 0.51217 0.0
H77 H 0.19333 0.85732 0.49642 0.0
H78 H 0.30371 0.79905 0.5617 0.0
H79 H 0.35858 0.87834 0.57664 0.0
Pr80 Pr 0.48879 0.49697 0.79202 0.0
Pr81 Pr 0.52354 0.60886 0.81176 0.0
C82 C 0.47032 0.41441 0.7574 0.0
C83 C 0.48788 0.37197 0.76574 0.0
C84 C 0.47697 0.33431 0.74132 0.0
C85 C 0.49241 0.29335 0.75019 0.0
C86 C 0.51858 0.28963 0.78369 0.0
C87 C 0.53023 0.32788 0.80777 0.0
C88 C 0.51523 0.36885 0.79876 0.0
C89 C 0.50841 0.51075 0.86628 0.0
C90 C 0.62077 0.55468 0.80689 0.0
C91 C 0.53684 0.69431 0.84132 0.0
C92 C 0.50263 0.72297 0.85538 0.0
C93 C 0.45954 0.73194 0.83428 0.0
C94 C 0.4318 0.76372 0.84618 0.0
C95 C 0.44612 0.78685 0.87961 0.0
C96 C 0.48648 0.7749 0.90184 0.0
C97 C 0.51472 0.74347 0.88969 0.0
C98 C 0.52076 0.58408 0.73924 0.0
C99 C 0.3908 0.54946 0.80754 0.0
O100 O 0.50938 0.45129 0.74896 0.0
O101 O 0.436 0.42395 0.77977 0.0
O102 O 0.51148 0.54107 0.84224 0.0
O103 O 0.4946 0.46902 0.85176 0.0
O104 O 0.60648 0.59058 0.82107 0.0
O105 O 0.58505 0.51915 0.79029 0.0
O106 O 0.54035 0.6576 0.86024 0.0
O107 O 0.53386 0.68686 0.8065 0.0
O108 O 0.48688 0.56439 0.762 0.0
O109 O 0.55692 0.62013 0.75326 0.0
O110 O 0.40268 0.51186 0.79408 0.0
O111 O 0.4287 0.58802 0.81749 0.0
H112 H 0.45601 0.33637 0.71569 0.0
H113 H 0.48259 0.26415 0.7313 0.0
H114 H 0.55086 0.32607 0.83355 0.0
H115 H 0.52446 0.39795 0.81773 0.0
H116 H 0.44871 0.71599 0.80791 0.0
H117 H 0.40155 0.77226 0.828 0.0
H118 H 0.49786 0.7913 0.928 0.0
H119 H 0.5473 0.73641 0.90661 0.0
O120 O 0.53273 0.06973 0.3056 0.0
Cd121 Cd 0.54678 0.07565 0.2409 0.0
O122 O 0.5375 0.99627 0.30897 0.0
Cd123 Cd 0.52186 0.98357 0.25121 0.0
O124 O 0.46089 0.94472 0.21145 0.0
C125 C 0.45748 0.90137 0.20623 0.0
O126 O 0.49348 0.88275 0.22261 0.0
C127 C 0.53494 0.03407 0.32438 0.0
C128 C 0.6411 0.14672 0.22746 0.0
O129 O 0.59442 0.1556 0.22818 0.0
O130 O 0.64309 0.10414 0.23266 0.0
O131 O 0.51479 0.47114 0.59006 0.0
Cd132 Cd 0.51143 0.41388 0.53896 0.0
O133 O 0.52599 0.54266 0.56645 0.0
Cd134 Cd 0.53207 0.62099 0.56673 0.0
O135 O 0.54062 0.69935 0.56129 0.0
C136 C 0.49928 0.716 0.55627 0.0
O137 O 0.45055 0.68638 0.55453 0.0
C138 C 0.52017 0.51553 0.59378 0.0
C139 C 0.51068 0.31685 0.54902 0.0
O140 O 0.55528 0.34903 0.54564 0.0
O141 O 0.46664 0.3303 0.5495 0.0
O142 O 0.04714 0.53485 0.91765 0.0
Cd143 Cd 0.05889 0.54299 0.85253 0.0
O144 O 0.96005 0.49509 0.91729 0.0
Cd145 Cd 0.9328 0.50215 0.86146 0.0
O146 O 0.85807 0.50852 0.83237 0.0
C147 C 0.84216 0.54492 0.83936 0.0
O148 O 0.87315 0.57726 0.86083 0.0
C149 C 1.00528 0.51278 0.93421 0.0
C150 C 0.16615 0.545 0.83488 0.0
O151 O 0.15294 0.58274 0.84291 0.0
O152 O 0.12869 0.50617 0.83498 0.0
O153 O 0.06178 0.54781 0.38629 0.0
Cd154 Cd 0.06341 0.54618 0.45216 0.0
O155 O 0.97275 0.51934 0.37721 0.0
Cd156 Cd 0.95583 0.48681 0.43 0.0
O157 O 0.91457 0.42219 0.45804 0.0
C158 C 0.87825 0.39305 0.43913 0.0
O159 O 0.86818 0.40425 0.40583 0.0
C160 C 0.01958 0.53827 0.36528 0.0
C161 C 0.12154 0.63462 0.47988 0.0
O162 O 0.14571 0.60261 0.47334 0.0
O163 O 0.06978 0.62472 0.47378 0.0
O164 O 0.44136 0.02748 0.76913 0.0
Cd165 Cd 0.40466 0.04112 0.82777 0.0
O166 O 0.5008 0.98594 0.7818 0.0
Cd167 Cd 0.51152 1.00968 0.83704 0.0
O168 O 0.52367 0.08473 0.84388 0.0
C169 C 0.55019 0.10802 0.81859 0.0
O170 O 0.57178 0.08567 0.79514 0.0
C171 C 0.4735 1.00367 0.75889 0.0
C172 C 0.39445 0.96088 0.86925 0.0
O173 O 0.43207 0.99847 0.87647 0.0
O174 O 0.35872 0.96259 0.84439 0.0
O175 O 0.56511 0.52515 0.03885 0.0
Cd176 Cd 0.58677 0.53642 0.10339 0.0
O177 O 0.49983 0.56211 0.03366 0.0
Cd178 Cd 0.47989 0.56676 0.08998 0.0
O179 O 0.40779 0.56885 0.11991 0.0
C180 C 0.37146 0.53105 0.12606 0.0
O181 O 0.38021 0.49058 0.11718 0.0
C182 C 0.5322 0.54162 0.01946 0.0
C183 C 0.69702 0.5394 0.11729 0.0
O184 O 0.65952 0.5009 0.11992 0.0
O185 O 0.68244 0.57659 0.10861 0.0
C186 C 0.22333 0.49239 0.15163 0.0
C187 C 0.20896 0.53535 0.15145 0.0
H188 H 0.28597 0.4573 0.14385 0.0
C189 C 0.24991 0.57723 0.14633 0.0
H190 H 0.19289 0.45949 0.15554 0.0
C191 C 0.30332 0.57601 0.13988 0.0
C192 C 0.31704 0.53286 0.13807 0.0
H193 H 0.24048 0.61103 0.14635 0.0
H194 H 0.33332 0.60884 0.13491 0.0
C195 C 0.27674 0.49114 0.14486 0.0
C196 C 0.83292 0.28814 0.5011 0.0
C197 C 0.79173 0.25762 0.47973 0.0
H198 H 0.89233 0.35503 0.5053 0.0
C199 C 0.77924 0.27231 0.44521 0.0
H200 H 0.84319 0.27808 0.52795 0.0
C201 C 0.80718 0.31627 0.43232 0.0
C202 C 0.84835 0.34684 0.4536 0.0
H203 H 0.74836 0.24947 0.42781 0.0
H204 H 0.79655 0.32614 0.40548 0.0
C205 C 0.86085 0.33235 0.48821 0.0
C206 C 0.373 0.83023 0.87571 0.0
C207 C 0.42536 0.8282 0.88809 0.0
H208 H 0.32143 0.87452 0.86037 0.0
C209 C 0.46143 0.86921 0.90275 0.0
H210 H 0.3435 0.799 0.86538 0.0
C211 C 0.44821 0.91223 0.90069 0.0
C212 C 0.39909 0.91517 0.88345 0.0
H213 H 0.50208 0.86928 0.91261 0.0
H214 H 0.47896 0.94371 0.90927 0.0
C215 C 0.3601 0.87345 0.87315 0.0
C216 C 0.8517 0.58153 0.1193 0.0
C217 C 0.86695 0.54271 0.13425 0.0
H218 H 0.78628 0.61114 0.10261 0.0
C219 C 0.82574 0.50296 0.14388 0.0
H220 H 0.88233 0.61278 0.11169 0.0
C221 C 0.77064 0.50189 0.13839 0.0
C222 C 0.75542 0.54075 0.12354 0.0
H223 H 0.83595 0.47236 0.15537 0.0
H224 H 0.73997 0.4706 0.1459 0.0
C225 C 0.79659 0.58066 0.11421 0.0
C226 C 0.1551 0.76143 0.51284 0.0
C227 C 0.21239 0.77311 0.51667 0.0
H228 H 0.08158 0.70877 0.49843 0.0
C229 C 0.2393 0.73833 0.50908 0.0
H230 H 0.13292 0.78704 0.51892 0.0
C231 C 0.20979 0.69329 0.49761 0.0
C232 C 0.15261 0.68188 0.49333 0.0
H233 H 0.28338 0.74615 0.51119 0.0
H234 H 0.23195 0.66763 0.49161 0.0
C235 C 0.1256 0.71641 0.50128 0.0
C236 C 0.51741 0.22524 0.8278 0.0
C237 C 0.53168 0.24526 0.79408 0.0
H238 H 0.51231 0.16596 0.86218 0.0
C239 C 0.55638 0.22169 0.76984 0.0
H240 H 0.49804 0.24266 0.84691 0.0
C241 C 0.56498 0.17806 0.77867 0.0
C242 C 0.54841 0.15695 0.81174 0.0
H243 H 0.56834 0.23671 0.74385 0.0
H244 H 0.58276 0.16016 0.75898 0.0
C245 C 0.52549 0.18135 0.83651 0.0
C246 C 0.55962 0.84983 0.54868 0.0
C247 C 0.51224 0.86622 0.54566 0.0
H248 H 0.59317 0.79003 0.55466 0.0
C249 C 0.46134 0.8326 0.54571 0.0
H250 H 0.59958 0.87452 0.54883 0.0
C251 C 0.45767 0.78444 0.54899 0.0
C252 C 0.50478 0.76786 0.55247 0.0
H253 H 0.42384 0.84341 0.54315 0.0
H254 H 0.41746 0.76014 0.54895 0.0
C255 C 0.55594 0.8013 0.55215 0.0
C256 C 0.69552 0.51339 0.80191 0.0
C257 C 0.67873 0.55347 0.81151 0.0
H258 H 0.76045 0.4792 0.80294 0.0
C259 C 0.71745 0.5918 0.82766 0.0
H260 H 0.66686 0.48323 0.78939 0.0
C261 C 0.77087 0.58948 0.83537 0.0
C262 C 0.78718 0.54878 0.82717 0.0
H263 H 0.70629 0.62343 0.83521 0.0
H264 H 0.79904 0.61932 0.84865 0.0
C265 C 0.74922 0.51108 0.80966 0.0
C266 C 0.31773 0.85808 0.15969 0.0
C267 C 0.31306 0.80962 0.15612 0.0
H268 H 0.3671 0.92521 0.17808 0.0
C269 C 0.35831 0.79263 0.16608 0.0
H270 H 0.28359 0.87233 0.15253 0.0
C271 C 0.406 0.82285 0.18097 0.0
C272 C 0.40974 0.87087 0.18614 0.0
H273 H 0.35652 0.75568 0.16302 0.0
H274 H 0.4394 0.80824 0.18931 0.0
C275 C 0.36558 0.88839 0.1745 0.0
C276 C 0.46003 0.18265 0.55626 0.0
C277 C 0.50701 0.16789 0.54905 0.0
H278 H 0.42414 0.24058 0.56189 0.0
C279 C 0.55556 0.20285 0.543 0.0
H280 H 0.42187 0.15697 0.56108 0.0
C281 C 0.55698 0.25092 0.54384 0.0
C282 C 0.50981 0.26567 0.55045 0.0
H283 H 0.5927 0.19315 0.5375 0.0
H284 H 0.59504 0.27655 0.53869 0.0
C285 C 0.46135 0.23076 0.55677 0.0
C286 C 0.29108 0.50638 0.80856 0.0
C287 C 0.33276 0.54845 0.81264 0.0
H288 H 0.20596 0.47217 0.81251 0.0
C289 C 0.31871 0.58953 0.82308 0.0
H290 H 0.30033 0.47405 0.80065 0.0
C291 C 0.26464 0.58846 0.82976 0.0
C292 C 0.22315 0.54625 0.82639 0.0
H293 H 0.34957 0.62266 0.82642 0.0
H294 H 0.25554 0.62071 0.83806 0.0
C295 C 0.23694 0.50527 0.81547 0.0
C296 C 0.73642 0.26745 0.21229 0.0
C297 C 0.78769 0.25763 0.21295 0.0
H298 H 0.6501 0.24032 0.21639 0.0
C299 C 0.79008 0.21077 0.2175 0.0
H300 H 0.73313 0.30321 0.20926 0.0
C301 C 0.74248 0.17472 0.22176 0.0
C302 C 0.69133 0.18467 0.2216 0.0
H303 H 0.82881 0.20187 0.21765 0.0
H304 H 0.74588 0.13908 0.22543 0.0
C305 C 0.68882 0.23141 0.21658 0.0
C306 C 0.97674 0.46405 0.02767 0.0
C307 C 0.01054 0.49977 0.04929 0.0
H308 H 0.94806 0.44058 0.97428 0.0
C309 C 0.04341 0.53968 0.03292 0.0
H310 H 0.95105 0.43291 0.03969 0.0
C311 C 0.04291 0.54349 0.99537 0.0
C312 C 0.00834 0.50804 0.97374 0.0
H313 H 0.0701 0.56752 0.04909 0.0
H314 H 0.06868 0.57454 0.98331 0.0
C315 C 0.97505 0.46845 0.99029 0.0
C316 C 0.53375 0.99891 0.42247 0.0
C317 C 0.50755 0.03029 0.43759 0.0
H318 H 0.56266 0.97524 0.37449 0.0
C319 C 0.49471 0.06532 0.41596 0.0
H320 H 0.54422 0.97165 0.43865 0.0
C321 C 0.50614 0.06797 0.37949 0.0
C322 C 0.52968 0.03504 0.36381 0.0
H323 H 0.47487 0.09017 0.42709 0.0
H324 H 0.49441 0.09462 0.3633 0.0
C325 C 0.5442 1.00093 0.38578 0.0
C326 C 0.55455 0.59446 0.6765 0.0
C327 C 0.51955 0.56775 0.70159 0.0
H328 H 0.58182 0.59908 0.6224 0.0
C329 C 0.48349 0.52484 0.6905 0.0
H330 H 0.58265 0.62775 0.6843 0.0
C331 C 0.48369 0.50814 0.65541 0.0
C332 C 0.51877 0.53467 0.63033 0.0
H333 H 0.45555 0.50379 0.7091 0.0
H334 H 0.45615 0.47448 0.64782 0.0
C335 C 0.5538 0.57825 0.64105 0.0
C336 C 0.47123 0.02535 0.65859 0.0
C337 C 0.5122 1.00508 0.64758 0.0
H338 H 0.42643 0.04047 0.7024 0.0
C339 C 0.53694 0.98082 0.67273 0.0
H340 H 0.45119 0.04396 0.63962 0.0
C341 C 0.52267 0.9786 0.70867 0.0
C342 C 0.48337 1.00067 0.72014 0.0
H343 H 0.56833 0.96452 0.66486 0.0
H344 H 0.54371 0.96081 0.72763 0.0
C345 C 0.45698 0.02321 0.69454 0.0
C346 C 0.53542 0.48837 0.92746 0.0
C347 C 0.51793 0.52041 0.90506 0.0
H348 H 0.55508 0.47067 0.98134 0.0
C349 C 0.50738 0.5605 0.92022 0.0
H350 H 0.5438 0.45719 0.91626 0.0
C351 C 0.51259 0.56769 0.95746 0.0
C352 C 0.52977 0.53548 0.98 0.0
H353 H 0.49321 0.58535 0.90346 0.0
H354 H 0.50291 0.59831 0.96863 0.0
C355 C 0.54207 0.49618 0.96459 0.0
C356 C 0.07369 0.54877 0.27155 0.0
C357 C 0.03473 0.56639 0.25241 0.0
H358 H 0.1002 0.52742 0.32282 0.0
C359 C 0.99075 0.57473 0.27051 0.0
H360 H 0.10803 0.5422 0.25811 0.0
C361 C 0.98539 0.56496 0.30719 0.0
C362 C 0.025 0.54832 0.32655 0.0
H363 H 0.96015 0.58818 0.25619 0.0
H364 H 0.9508 0.57116 0.32056 0.0
C365 C 0.06938 0.54059 0.30849 0.0
loop_
_geom_bond_atom_site_label_1
_geom_bond_atom_site_label_2
_geom_bond_distance
_geom_bond_site_symmetry_2
_ccdc_geom_bond_type
Pr0 C2 2.880 . S
Pr0 O20 2.562 . S
Pr0 O21 2.490 . S
Pr0 O22 2.695 1_655 S
Pr0 O23 2.512 . S
Pr0 O25 2.437 . S
Pr0 O28 2.436 . S
Pr0 O30 2.438 1_655 S
Pr1 C11 2.880 . S
Pr1 O22 2.436 . S
Pr1 O24 2.438 1_455 S
Pr1 O26 2.562 . S
Pr1 O27 2.490 . S
Pr1 O28 2.695 1_455 S
Pr1 O29 2.512 . S
Pr1 O31 2.437 . S
C2 Pr0 2.880 . S
C2 C3 1.491 . S
C2 O20 1.254 . S
C2 O21 1.225 . S
C3 C2 1.491 . S
C3 C4 1.392 . S
C3 C8 1.356 . S
C4 C3 1.392 . S
C4 C5 1.368 . S
C4 H32 0.929 . S
C5 C4 1.368 . S
C5 C6 1.386 . S
C5 H33 0.929 . S
C6 C5 1.386 . S
C6 C7 1.373 . S
C7 C6 1.373 . S
C7 C8 1.409 . S
C7 H34 0.931 . S
C8 C3 1.356 . S
C8 C7 1.409 . S
C8 H35 0.930 . S
C9 O22 1.270 . S
C9 O23 1.248 1_455 S
C10 O24 1.267 . S
C10 O25 1.278 . S
C11 Pr1 2.880 . S
C11 C12 1.491 . S
C11 O26 1.254 . S
C11 O27 1.225 . S
C12 C11 1.491 . S
C12 C13 1.392 . S
C12 C17 1.356 . S
C13 C12 1.392 . S
C13 C14 1.368 . S
C13 H36 0.929 . S
C14 C13 1.368 . S
C14 C15 1.386 . S
C14 H37 0.929 . S
C15 C14 1.386 . S
C15 C16 1.373 . S
C16 C15 1.373 . S
C16 C17 1.409 . S
C16 H38 0.931 . S
C17 C12 1.356 . S
C17 C16 1.409 . S
C17 H39 0.930 . S
C18 O28 1.270 1_455 S
C18 O29 1.248 . S
C19 O30 1.267 . S
C19 O31 1.278 . S
O20 Pr0 2.562 . S
O20 C2 1.254 . S
O21 Pr0 2.490 . S
O21 C2 1.225 . S
O22 Pr0 2.695 1_455 S
O22 Pr1 2.436 . S
O22 C9 1.270 . S
O23 Pr0 2.512 . S
O23 C9 1.248 1_655 S
O24 Pr1 2.438 1_655 S
O24 C10 1.267 . S
O25 Pr0 2.437 . S
O25 C10 1.278 . S
O26 Pr1 2.562 . S
O26 C11 1.254 . S
O27 Pr1 2.490 . S
O27 C11 1.225 . S
O28 Pr0 2.436 . S
O28 Pr1 2.695 1_655 S
O28 C18 1.270 1_655 S
O29 Pr1 2.512 . S
O29 C18 1.248 . S
O30 Pr0 2.438 1_455 S
O30 C19 1.267 . S
O31 Pr1 2.437 . S
O31 C19 1.278 . S
H32 C4 0.929 . S
H33 C5 0.929 . S
H34 C7 0.931 . S
H35 C8 0.930 . S
H36 C13 0.929 . S
H37 C14 0.929 . S
H38 C16 0.931 . S
H39 C17 0.930 . S
Pr40 C42 2.880 . S
Pr40 O60 2.562 . S
Pr40 O61 2.490 . S
Pr40 O62 2.695 . S
Pr40 O63 2.512 . S
Pr40 O65 2.437 . S
Pr40 O68 2.436 . S
Pr40 O70 2.438 1_545 S
Pr41 C51 2.880 . S
Pr41 O62 2.436 1_565 S
Pr41 O64 2.438 1_565 S
Pr41 O66 2.562 . S
Pr41 O67 2.490 . S
Pr41 O68 2.695 1_565 S
Pr41 O69 2.512 . S
Pr41 O71 2.437 . S
C42 Pr40 2.880 . S
C42 C43 1.491 . S
C42 O60 1.254 . S
C42 O61 1.225 . S
C43 C42 1.491 . S
C43 C44 1.392 . S
C43 C48 1.356 . S
C44 C43 1.392 . S
C44 C45 1.368 . S
C44 H72 0.929 . S
C45 C44 1.368 . S
C45 C46 1.386 . S
C45 H73 0.929 . S
C46 C45 1.386 . S
C46 C47 1.373 . S
C47 C46 1.373 . S
C47 C48 1.409 . S
C47 H74 0.931 . S
C48 C43 1.356 . S
C48 C47 1.409 . S
C48 H75 0.930 . S
C49 O62 1.270 . S
C49 O63 1.248 . S
C50 O64 1.267 . S
C50 O65 1.278 . S
C51 Pr41 2.880 . S
C51 C52 1.491 . S
C51 O66 1.254 . S
C51 O67 1.225 . S
C52 C51 1.491 . S
C52 C53 1.392 . S
C52 C57 1.356 . S
C53 C52 1.392 . S
C53 C54 1.368 . S
C53 H76 0.929 . S
C54 C53 1.368 . S
C54 C55 1.386 . S
C54 H77 0.929 . S
C55 C54 1.386 . S
C55 C56 1.373 . S
C56 C55 1.373 . S
C56 C57 1.409 . S
C56 H78 0.931 . S
C57 C52 1.356 . S
C57 C56 1.409 . S
C57 H79 0.930 . S
C58 O68 1.270 . S
C58 O69 1.248 1_545 S
C59 O70 1.267 . S
C59 O71 1.278 . S
O60 Pr40 2.562 . S
O60 C42 1.254 . S
O61 Pr40 2.490 . S
O61 C42 1.225 . S
O62 Pr40 2.695 . S
O62 Pr41 2.436 1_545 S
O62 C49 1.270 . S
O63 Pr40 2.512 . S
O63 C49 1.248 . S
O64 Pr41 2.438 1_545 S
O64 C50 1.267 . S
O65 Pr40 2.437 . S
O65 C50 1.278 . S
O66 Pr41 2.562 . S
O66 C51 1.254 . S
O67 Pr41 2.490 . S
O67 C51 1.225 . S
O68 Pr40 2.436 . S
O68 Pr41 2.695 1_545 S
O68 C58 1.270 . S
O69 Pr41 2.512 . S
O69 C58 1.248 1_565 S
O70 Pr40 2.438 1_565 S
O70 C59 1.267 . S
O71 Pr41 2.437 . S
O71 C59 1.278 . S
H72 C44 0.929 . S
H73 C45 0.929 . S
H74 C47 0.931 . S
H75 C48 0.930 . S
H76 C53 0.929 . S
H77 C54 0.929 . S
H78 C56 0.931 . S
H79 C57 0.930 . S
Pr80 C82 2.880 . S
Pr80 O100 2.562 . S
Pr80 O101 2.490 . S
Pr80 O102 2.695 . S
Pr80 O103 2.512 . S
Pr80 O105 2.437 . S
Pr80 O108 2.436 . S
Pr80 O110 2.438 . S
Pr81 C91 2.880 . S
Pr81 O102 2.436 . S
Pr81 O104 2.438 . S
Pr81 O106 2.562 . S
Pr81 O107 2.490 . S
Pr81 O108 2.695 . S
Pr81 O109 2.512 . S
Pr81 O111 2.437 . S
C82 Pr80 2.880 . S
C82 C83 1.491 . S
C82 O100 1.254 . S
C82 O101 1.225 . S
C83 C82 1.491 . S
C83 C84 1.392 . S
C83 C88 1.356 . S
C84 C83 1.392 . S
C84 C85 1.368 . S
C84 H112 0.929 . S
C85 C84 1.368 . S
C85 C86 1.386 . S
C85 H113 0.929 . S
C86 C85 1.386 . S
C86 C87 1.373 . S
C87 C86 1.373 . S
C87 C88 1.409 . S
C87 H114 0.931 . S
C88 C83 1.356 . S
C88 C87 1.409 . S
C88 H115 0.930 . S
C89 O102 1.270 . S
C89 O103 1.248 . S
C90 O104 1.267 . S
C90 O105 1.278 . S
C91 Pr81 2.880 . S
C91 C92 1.491 . S
C91 O106 1.254 . S
C91 O107 1.225 . S
C92 C91 1.491 . S
C92 C93 1.392 . S
C92 C97 1.356 . S
C93 C92 1.392 . S
C93 C94 1.368 . S
C93 H116 0.929 . S
C94 C93 1.368 . S
C94 C95 1.386 . S
C94 H117 0.929 . S
C95 C94 1.386 . S
C95 C96 1.373 . S
C96 C95 1.373 . S
C96 C97 1.409 . S
C96 H118 0.931 . S
C97 C92 1.356 . S
C97 C96 1.409 . S
C97 H119 0.930 . S
C98 O108 1.270 . S
C98 O109 1.248 . S
C99 O110 1.267 . S
C99 O111 1.278 . S
O100 Pr80 2.562 . S
O100 C82 1.254 . S
O101 Pr80 2.490 . S
O101 C82 1.225 . S
O102 Pr80 2.695 . S
O102 Pr81 2.436 . S
O102 C89 1.270 . S
O103 Pr80 2.512 . S
O103 C89 1.248 . S
O104 Pr81 2.438 . S
O104 C90 1.267 . S
O105 Pr80 2.437 . S
O105 C90 1.278 . S
O106 Pr81 2.562 . S
O106 C91 1.254 . S
O107 Pr81 2.490 . S
O107 C91 1.225 . S
O108 Pr80 2.436 . S
O108 Pr81 2.695 . S
O108 C98 1.270 . S
O109 Pr81 2.512 . S
O109 C98 1.248 . S
O110 Pr80 2.438 . S
O110 C99 1.267 . S
O111 Pr81 2.437 . S
O111 C99 1.278 . S
H112 C84 0.929 . S
H113 C85 0.929 . S
H114 C87 0.931 . S
H115 C88 0.930 . S
H116 C93 0.929 . S
H117 C94 0.929 . S
H118 C96 0.931 . S
H119 C97 0.930 . S
O120 Cd121 2.300 . S
O120 C127 1.275 . S
Cd121 O120 2.300 . S
Cd121 O129 2.381 . S
Cd121 O130 2.378 . S
O122 Cd123 2.385 . S
O122 C127 1.255 1_565 S
Cd123 O122 2.385 . S
Cd123 O124 2.317 . S
O124 Cd123 2.317 . S
O124 C125 1.232 . S
C125 O124 1.232 . S
C125 O126 1.218 . S
O126 C125 1.218 . S
C127 O120 1.275 . S
C127 O122 1.255 1_545 S
C128 O129 1.258 . S
C128 O130 1.256 . S
O129 Cd121 2.381 . S
O129 C128 1.258 . S
O130 Cd121 2.378 . S
O130 C128 1.256 . S
O131 Cd132 2.300 . S
O131 C138 1.275 . S
Cd132 O131 2.300 . S
Cd132 O140 2.381 . S
Cd132 O141 2.378 . S
O133 Cd134 2.385 . S
O133 C138 1.255 . S
Cd134 O133 2.385 . S
Cd134 O135 2.317 . S
O135 Cd134 2.317 . S
O135 C136 1.232 . S
C136 O135 1.232 . S
C136 O137 1.218 . S
O137 C136 1.218 . S
C138 O131 1.275 . S
C138 O133 1.255 . S
C139 O140 1.258 . S
C139 O141 1.256 . S
O140 Cd132 2.381 . S
O140 C139 1.258 . S
O141 Cd132 2.378 . S
O141 C139 1.256 . S
O142 Cd143 2.300 . S
O142 C149 1.275 . S
Cd143 O142 2.300 . S
Cd143 O151 2.381 . S
Cd143 O152 2.378 . S
O144 Cd145 2.385 . S
O144 C149 1.255 1_655 S
Cd145 O144 2.385 . S
Cd145 O146 2.317 . S
O146 Cd145 2.317 . S
O146 C147 1.232 . S
C147 O146 1.232 . S
C147 O148 1.218 . S
O148 C147 1.218 . S
C149 O142 1.275 . S
C149 O144 1.255 1_455 S
C150 O151 1.258 . S
C150 O152 1.256 . S
O151 Cd143 2.381 . S
O151 C150 1.258 . S
O152 Cd143 2.378 . S
O152 C150 1.256 . S
O153 Cd154 2.300 . S
O153 C160 1.275 1_455 S
Cd154 O153 2.300 . S
Cd154 O162 2.381 . S
Cd154 O163 2.378 . S
O155 Cd156 2.385 . S
O155 C160 1.255 . S
Cd156 O155 2.385 . S
Cd156 O157 2.317 . S
O157 Cd156 2.317 . S
O157 C158 1.232 . S
C158 O157 1.232 . S
C158 O159 1.218 . S
O159 C158 1.218 . S
C160 O153 1.275 1_655 S
C160 O155 1.255 . S
C161 O162 1.258 . S
C161 O163 1.256 . S
O162 Cd154 2.381 . S
O162 C161 1.258 . S
O163 Cd154 2.378 . S
O163 C161 1.256 . S
O164 Cd165 2.300 . S
O164 C171 1.275 1_565 S
Cd165 O164 2.300 . S
Cd165 O173 2.381 . S
Cd165 O174 2.378 . S
O166 Cd167 2.385 . S
O166 C171 1.255 . S
Cd167 O166 2.385 . S
Cd167 O168 2.317 . S
O168 Cd167 2.317 . S
O168 C169 1.232 . S
C169 O168 1.232 . S
C169 O170 1.218 . S
O170 C169 1.218 . S
C171 O164 1.275 1_545 S
C171 O166 1.255 . S
C172 O173 1.258 . S
C172 O174 1.256 . S
O173 Cd165 2.381 . S
O173 C172 1.258 . S
O174 Cd165 2.378 . S
O174 C172 1.256 . S
O175 Cd176 2.300 . S
O175 C182 1.275 . S
Cd176 O175 2.300 . S
Cd176 O184 2.381 . S
Cd176 O185 2.378 . S
O177 Cd178 2.385 . S
O177 C182 1.255 . S
Cd178 O177 2.385 . S
Cd178 O179 2.317 . S
O179 Cd178 2.317 . S
O179 C180 1.232 . S
C180 O179 1.232 . S
C180 O181 1.218 . S
O181 C180 1.218 . S
C182 O175 1.275 . S
C182 O177 1.255 . S
C183 O184 1.258 . S
C183 O185 1.256 . S
O184 Cd176 2.381 . S
O184 C183 1.258 . S
O185 Cd176 2.378 . S
O185 C183 1.256 . S
C186 C187 1.387 . S
C186 H190 0.950 . S
C186 C195 1.390 . S
C187 C186 1.387 . S
C187 C189 1.387 . S
H188 C195 0.950 . S
C189 C187 1.387 . S
C189 C191 1.390 . S
C189 H193 0.950 . S
H190 C186 0.950 . S
C191 C189 1.390 . S
C191 C192 1.387 . S
C191 H194 0.950 . S
C192 C191 1.387 . S
C192 C195 1.387 . S
H193 C189 0.950 . S
H194 C191 0.950 . S
C195 C186 1.390 . S
C195 H188 0.950 . S
C195 C192 1.387 . S
C196 C197 1.387 . S
C196 H200 0.950 . S
C196 C205 1.390 . S
C197 C196 1.387 . S
C197 C199 1.387 . S
H198 C205 0.950 . S
C199 C197 1.387 . S
C199 C201 1.390 . S
C199 H203 0.950 . S
H200 C196 0.950 . S
C201 C199 1.390 . S
C201 C202 1.387 . S
C201 H204 0.950 . S
C202 C201 1.387 . S
C202 C205 1.387 . S
H203 C199 0.950 . S
H204 C201 0.950 . S
C205 C196 1.390 . S
C205 H198 0.950 . S
C205 C202 1.387 . S
C206 C207 1.387 . S
C206 H210 0.950 . S
C206 C215 1.390 . S
C207 C206 1.387 . S
C207 C209 1.387 . S
H208 C215 0.950 . S
C209 C207 1.387 . S
C209 C211 1.390 . S
C209 H213 0.950 . S
H210 C206 0.950 . S
C211 C209 1.390 . S
C211 C212 1.387 . S
C211 H214 0.950 . S
C212 C211 1.387 . S
C212 C215 1.387 . S
H213 C209 0.950 . S
H214 C211 0.950 . S
C215 C206 1.390 . S
C215 H208 0.950 . S
C215 C212 1.387 . S
C216 C217 1.387 . S
C216 H220 0.950 . S
C216 C225 1.390 . S
C217 C216 1.387 . S
C217 C219 1.387 . S
H218 C225 0.950 . S
C219 C217 1.387 . S
C219 C221 1.390 . S
C219 H223 0.950 . S
H220 C216 0.950 . S
C221 C219 1.390 . S
C221 C222 1.387 . S
C221 H224 0.950 . S
C222 C221 1.387 . S
C222 C225 1.387 . S
H223 C219 0.950 . S
H224 C221 0.950 . S
C225 C216 1.390 . S
C225 H218 0.950 . S
C225 C222 1.387 . S
C226 C227 1.387 . S
C226 H230 0.950 . S
C226 C235 1.390 . S
C227 C226 1.387 . S
C227 C229 1.387 . S
H228 C235 0.950 . S
C229 C227 1.387 . S
C229 C231 1.390 . S
C229 H233 0.950 . S
H230 C226 0.950 . S
C231 C229 1.390 . S
C231 C232 1.387 . S
C231 H234 0.950 . S
C232 C231 1.387 . S
C232 C235 1.387 . S
H233 C229 0.950 . S
H234 C231 0.950 . S
C235 C226 1.390 . S
C235 H228 0.950 . S
C235 C232 1.387 . S
C236 C237 1.387 . S
C236 H240 0.950 . S
C236 C245 1.390 . S
C237 C236 1.387 . S
C237 C239 1.387 . S
H238 C245 0.950 . S
C239 C237 1.387 . S
C239 C241 1.390 . S
C239 H243 0.950 . S
H240 C236 0.950 . S
C241 C239 1.390 . S
C241 C242 1.387 . S
C241 H244 0.950 . S
C242 C241 1.387 . S
C242 C245 1.387 . S
H243 C239 0.950 . S
H244 C241 0.950 . S
C245 C236 1.390 . S
C245 H238 0.950 . S
C245 C242 1.387 . S
C246 C247 1.387 . S
C246 H250 0.950 . S
C246 C255 1.390 . S
C247 C246 1.387 . S
C247 C249 1.387 . S
H248 C255 0.950 . S
C249 C247 1.387 . S
C249 C251 1.390 . S
C249 H253 0.950 . S
H250 C246 0.950 . S
C251 C249 1.390 . S
C251 C252 1.387 . S
C251 H254 0.950 . S
C252 C251 1.387 . S
C252 C255 1.387 . S
H253 C249 0.950 . S
H254 C251 0.950 . S
C255 C246 1.390 . S
C255 H248 0.950 . S
C255 C252 1.387 . S
C256 C257 1.387 . S
C256 H260 0.950 . S
C256 C265 1.390 . S
C257 C256 1.387 . S
C257 C259 1.387 . S
H258 C265 0.950 . S
C259 C257 1.387 . S
C259 C261 1.390 . S
C259 H263 0.950 . S
H260 C256 0.950 . S
C261 C259 1.390 . S
C261 C262 1.387 . S
C261 H264 0.950 . S
C262 C261 1.387 . S
C262 C265 1.387 . S
H263 C259 0.950 . S
H264 C261 0.950 . S
C265 C256 1.390 . S
C265 H258 0.950 . S
C265 C262 1.387 . S
C266 C267 1.387 . S
C266 H270 0.950 . S
C266 C275 1.390 . S
C267 C266 1.387 . S
C267 C269 1.387 . S
H268 C275 0.950 . S
C269 C267 1.387 . S
C269 C271 1.390 . S
C269 H273 0.950 . S
H270 C266 0.950 . S
C271 C269 1.390 . S
C271 C272 1.387 . S
C271 H274 0.950 . S
C272 C271 1.387 . S
C272 C275 1.387 . S
H273 C269 0.950 . S
H274 C271 0.950 . S
C275 C266 1.390 . S
C275 H268 0.950 . S
C275 C272 1.387 . S
C276 C277 1.387 . S
C276 H280 0.950 . S
C276 C285 1.390 . S
C277 C276 1.387 . S
C277 C279 1.387 . S
H278 C285 0.950 . S
C279 C277 1.387 . S
C279 C281 1.390 . S
C279 H283 0.950 . S
H280 C276 0.950 . S
C281 C279 1.390 . S
C281 C282 1.387 . S
C281 H284 0.950 . S
C282 C281 1.387 . S
C282 C285 1.387 . S
H283 C279 0.950 . S
H284 C281 0.950 . S
C285 C276 1.390 . S
C285 H278 0.950 . S
C285 C282 1.387 . S
C286 C287 1.387 . S
C286 H290 0.950 . S
C286 C295 1.390 . S
C287 C286 1.387 . S
C287 C289 1.387 . S
H288 C295 0.950 . S
C289 C287 1.387 . S
C289 C291 1.390 . S
C289 H293 0.950 . S
H290 C286 0.950 . S
C291 C289 1.390 . S
C291 C292 1.387 . S
C291 H294 0.950 . S
C292 C291 1.387 . S
C292 C295 1.387 . S
H293 C289 0.950 . S
H294 C291 0.950 . S
C295 C286 1.390 . S
C295 H288 0.950 . S
C295 C292 1.387 . S
C296 C297 1.387 . S
C296 H300 0.950 . S
C296 C305 1.390 . S
C297 C296 1.387 . S
C297 C299 1.387 . S
H298 C305 0.950 . S
C299 C297 1.387 . S
C299 C301 1.390 . S
C299 H303 0.950 . S
H300 C296 0.950 . S
C301 C299 1.390 . S
C301 C302 1.387 . S
C301 H304 0.950 . S
C302 C301 1.387 . S
C302 C305 1.387 . S
H303 C299 0.950 . S
H304 C301 0.950 . S
C305 C296 1.390 . S
C305 H298 0.950 . S
C305 C302 1.387 . S
C306 C307 1.387 1_655 S
C306 H310 0.950 . S
C306 C315 1.390 1_554 S
C307 C306 1.387 1_455 S
C307 C309 1.387 . S
H308 C315 0.950 . S
C309 C307 1.387 . S
C309 C311 1.390 1_554 S
C309 H313 0.950 . S
H310 C306 0.950 . S
C311 C309 1.390 1_556 S
C311 C312 1.387 . S
C311 H314 0.950 . S
C312 C311 1.387 . S
C312 C315 1.387 1_455 S
H313 C309 0.950 . S
H314 C311 0.950 . S
C315 C306 1.390 1_556 S
C315 H308 0.950 . S
C315 C312 1.387 1_655 S
C316 C317 1.387 1_565 S
C316 H320 0.950 . S
C316 C325 1.390 . S
C317 C316 1.387 1_545 S
C317 C319 1.387 . S
H318 C325 0.950 . S
C319 C317 1.387 . S
C319 C321 1.390 . S
C319 H323 0.950 . S
H320 C316 0.950 . S
C321 C319 1.390 . S
C321 C322 1.387 . S
C321 H324 0.950 . S
C322 C321 1.387 . S
C322 C325 1.387 1_545 S
H323 C319 0.950 . S
H324 C321 0.950 . S
C325 C316 1.390 . S
C325 H318 0.950 . S
C325 C322 1.387 1_565 S
C326 C327 1.387 . S
C326 H330 0.950 . S
C326 C335 1.390 . S
C327 C326 1.387 . S
C327 C329 1.387 . S
H328 C335 0.950 . S
C329 C327 1.387 . S
C329 C331 1.390 . S
C329 H333 0.950 . S
H330 C326 0.950 . S
C331 C329 1.390 . S
C331 C332 1.387 . S
C331 H334 0.950 . S
C332 C331 1.387 . S
C332 C335 1.387 . S
H333 C329 0.950 . S
H334 C331 0.950 . S
C335 C326 1.390 . S
C335 H328 0.950 . S
C335 C332 1.387 . S
C336 C337 1.387 . S
C336 H340 0.950 . S
C336 C345 1.390 . S
C337 C336 1.387 . S
C337 C339 1.387 1_545 S
H338 C345 0.950 . S
C339 C337 1.387 1_565 S
C339 C341 1.390 . S
C339 H343 0.950 . S
H340 C336 0.950 . S
C341 C339 1.390 . S
C341 C342 1.387 1_565 S
C341 H344 0.950 . S
C342 C341 1.387 1_545 S
C342 C345 1.387 . S
H343 C339 0.950 . S
H344 C341 0.950 . S
C345 C336 1.390 . S
C345 H338 0.950 . S
C345 C342 1.387 . S
C346 C347 1.387 . S
C346 H350 0.950 . S
C346 C355 1.390 1_556 S
C347 C346 1.387 . S
C347 C349 1.387 . S
H348 C355 0.950 . S
C349 C347 1.387 . S
C349 C351 1.390 1_556 S
C349 H353 0.950 . S
H350 C346 0.950 . S
C351 C349 1.390 1_554 S
C351 C352 1.387 . S
C351 H354 0.950 . S
C352 C351 1.387 . S
C352 C355 1.387 . S
H353 C349 0.950 . S
H354 C351 0.950 . S
C355 C346 1.390 1_554 S
C355 H348 0.950 . S
C355 C352 1.387 . S
C356 C357 1.387 . S
C356 H360 0.950 . S
C356 C365 1.390 . S
C357 C356 1.387 . S
C357 C359 1.387 1_455 S
H358 C365 0.950 . S
C359 C357 1.387 1_655 S
C359 C361 1.390 . S
C359 H363 0.950 . S
H360 C356 0.950 . S
C361 C359 1.390 . S
C361 C362 1.387 . S
C361 H364 0.950 . S
C362 C361 1.387 . S
C362 C365 1.387 1_655 S
H363 C359 0.950 . S
H364 C361 0.950 . S
C365 C356 1.390 . S
C365 H358 0.950 . S
C365 C362 1.387 1_455 S
C187 C19 2.029 . S
C192 C180 1.742 . S
C197 C46 1.417 . S
C202 C158 1.330 . S
C207 C95 0.641 . S
C212 C172 0.500 . S
C217 C10 1.953 . S
C222 C183 1.865 . S
C232 C161 1.173 . S
C227 C55 1.186 . S
C242 C169 0.767 . S
C237 C86 0.950 . S
C247 C59 3.264 . S
C252 C136 2.919 . S
C257 C90 2.107 . S
C262 C147 1.757 . S
C267 C15 1.433 . S
C272 C125 1.259 . S
C282 C139 2.909 . S
C277 C50 2.997 . S
C292 C150 1.834 . S
C287 C99 1.873 . S
C297 C6 1.103 . S
C302 C128 1.098 . S
C312 C149 1.377 . S
C307 C9 1.400 . S
C317 C58 1.461 . S
C322 C127 1.461 . S
C327 C98 1.681 . S
C332 C138 1.678 . S
C342 C171 1.113 . S
C337 C49 1.175 . S
C352 C182 1.363 . S
C347 C89 1.399 . S
C357 C18 1.503 . S
C362 C160 1.442 . S
