# Generated by pormake.
# Topology csq, (4,8)-cn, num edge types: 1
# Building blocks:
#     Node 0, Type 0, BuildingBlock: MUDLON_clean_sbu_0, # of connection points: 4
#     Node 1, Type 0, BuildingBlock: MUDLON_clean_sbu_0, # of connection points: 4
#     Node 2, Type 0, BuildingBlock: MUDLON_clean_sbu_0, # of connection points: 4
#     Node 3, Type 0, BuildingBlock: MUDLON_clean_sbu_0, # of connection points: 4
#     Node 4, Type 0, BuildingBlock: MUDLON_clean_sbu_0, # of connection points: 4
#     Node 5, Type 0, BuildingBlock: MUDLON_clean_sbu_0, # of connection points: 4
#     Node 6, Type 1, BuildingBlock: TAGTUT_clean_sbu_3, # of connection points: 8
#     Node 7, Type 1, BuildingBlock: TAGTUT_clean_sbu_3, # of connection points: 8
#     Node 8, Type 1, BuildingBlock: TAGTUT_clean_sbu_3, # of connection points: 8
#     Edge 9, Type (0, 1), BuildingBlock: MIFKUJ_clean_linker_0, # of connection points: 2
#     Edge 10, Type (0, 1), BuildingBlock: MIFKUJ_clean_linker_0, # of connection points: 2
#     Edge 11, Type (0, 1), BuildingBlock: MIFKUJ_clean_linker_0, # of connection points: 2
#     Edge 12, Type (0, 1), BuildingBlock: MIFKUJ_clean_linker_0, # of connection points: 2
#     Edge 13, Type (0, 1), BuildingBlock: MIFKUJ_clean_linker_0, # of connection points: 2
#     Edge 14, Type (0, 1), BuildingBlock: MIFKUJ_clean_linker_0, # of connection points: 2
#     Edge 15, Type (0, 1), BuildingBlock: MIFKUJ_clean_linker_0, # of connection points: 2
#     Edge 16, Type (0, 1), BuildingBlock: MIFKUJ_clean_linker_0, # of connection points: 2
#     Edge 17, Type (0, 1), BuildingBlock: MIFKUJ_clean_linker_0, # of connection points: 2
#     Edge 18, Type (0, 1), BuildingBlock: MIFKUJ_clean_linker_0, # of connection points: 2
#     Edge 19, Type (0, 1), BuildingBlock: MIFKUJ_clean_linker_0, # of connection points: 2
#     Edge 20, Type (0, 1), BuildingBlock: MIFKUJ_clean_linker_0, # of connection points: 2
#     Edge 21, Type (0, 1), BuildingBlock: MIFKUJ_clean_linker_0, # of connection points: 2
#     Edge 22, Type (0, 1), BuildingBlock: MIFKUJ_clean_linker_0, # of connection points: 2
#     Edge 23, Type (0, 1), BuildingBlock: MIFKUJ_clean_linker_0, # of connection points: 2
#     Edge 24, Type (0, 1), BuildingBlock: MIFKUJ_clean_linker_0, # of connection points: 2
#     Edge 25, Type (0, 1), BuildingBlock: MIFKUJ_clean_linker_0, # of connection points: 2
#     Edge 26, Type (0, 1), BuildingBlock: MIFKUJ_clean_linker_0, # of connection points: 2
#     Edge 27, Type (0, 1), BuildingBlock: MIFKUJ_clean_linker_0, # of connection points: 2
#     Edge 28, Type (0, 1), BuildingBlock: MIFKUJ_clean_linker_0, # of connection points: 2
#     Edge 29, Type (0, 1), BuildingBlock: MIFKUJ_clean_linker_0, # of connection points: 2
#     Edge 30, Type (0, 1), BuildingBlock: MIFKUJ_clean_linker_0, # of connection points: 2
#     Edge 31, Type (0, 1), BuildingBlock: MIFKUJ_clean_linker_0, # of connection points: 2
#     Edge 32, Type (0, 1), BuildingBlock: MIFKUJ_clean_linker_0, # of connection points: 2
# Relax obj value: 0.069
# Max RMSD: 0.130
# Mean RMSD: 0.106
data_MOF--net-csq--node1-MUDLON_clean_sbu_0--node2-TAGTUT_clean_sbu_3--edge1-MIFKUJ_clean_linker_0
_symmetry_space_group_name_H-M    P1
_symmetry_Int_Tables_number       1
_symmetry_cell_setting            triclinic
loop_
_symmetry_equiv_pos_as_xyz
'x, y, z'
_cell_length_a     63.950424
_cell_length_b     63.200593
_cell_length_c     25.554099
_cell_angle_alpha  92.202718
_cell_angle_beta   92.324863
_cell_angle_gamma 120.02693
loop_
_atom_site_label
_atom_site_type_symbol
_atom_site_fract_x
_atom_site_fract_y
_atom_site_fract_z
_atom_type_partial_charge
Mg0 Mg 0.2483 0.49043 0.13682 0.0
C1 C 0.23847 0.50369 0.03022 0.0
O2 O 0.25019 0.49252 0.0161 0.0
C3 C 0.28099 0.49284 0.21784 0.0
O4 O 0.26506 0.46978 0.20447 0.0
C5 C 0.2152 0.47882 0.22482 0.0
O6 O 0.23617 0.49352 0.25032 0.0
O7 O 0.21473 0.47207 0.17696 0.0
O8 O 0.23866 0.50912 0.07884 0.0
O9 O 0.26182 0.46947 0.09399 0.0
C10 C 0.28413 0.48381 0.08702 0.0
O11 O 0.29384 0.5072 0.10128 0.0
O12 O 0.2782 0.5094 0.1973 0.0
Mg13 Mg 0.75252 0.2489 0.1081 0.0
C14 C 0.79651 0.28819 0.05735 0.0
O15 O 0.80212 0.29722 0.10629 0.0
C16 C 0.75032 0.20786 0.16821 0.0
O17 O 0.76398 0.2263 0.20237 0.0
C18 C 0.77006 0.29183 0.19393 0.0
O19 O 0.76314 0.30207 0.15864 0.0
O20 O 0.76659 0.27045 0.18333 0.0
O21 O 0.7774 0.26749 0.04664 0.0
O22 O 0.71561 0.23848 0.08107 0.0
C23 C 0.71089 0.24128 0.03386 0.0
O24 O 0.72895 0.25528 0.00575 0.0
O25 O 0.74599 0.21242 0.12228 0.0
Mg26 Mg 0.53883 0.76403 0.0639 0.0
C27 C 0.55397 0.80206 0.16125 0.0
O28 O 0.57572 0.8081 0.14737 0.0
C29 C 0.55898 0.74878 0.96559 0.0
O30 O 0.57901 0.76959 0.97841 0.0
C31 C 0.55789 0.81025 0.99471 0.0
O32 O 0.57908 0.81454 0.01423 0.0
O33 O 0.53878 0.79176 0.00848 0.0
O34 O 0.53559 0.7852 0.13433 0.0
O35 O 0.53776 0.73567 0.11979 0.0
C36 C 0.52738 0.71273 0.10769 0.0
O37 O 0.51714 0.70428 0.06015 0.0
O38 O 0.54083 0.74225 0.99298 0.0
Mg39 Mg 0.79195 0.54575 0.08419 0.0
C40 C 0.75127 0.52633 0.00294 0.0
O41 O 0.75386 0.50726 0.00994 0.0
C42 C 0.8342 0.58913 0.14327 0.0
O43 O 0.81866 0.58307 0.17977 0.0
C44 C 0.75196 0.52158 0.15839 0.0
O45 O 0.7408 0.50772 0.11534 0.0
O46 O 0.77438 0.53728 0.1583 0.0
O47 O 0.76598 0.54663 0.02795 0.0
O48 O 0.80432 0.52232 0.04867 0.0
C49 C 0.81104 0.52913 0.00303 0.0
O50 O 0.80781 0.54652 0.98475 0.0
O51 O 0.82643 0.57938 0.09702 0.0
Mg52 Mg 0.23547 0.78767 0.09971 0.0
C53 C 0.23212 0.75672 0.99778 0.0
O54 O 0.24988 0.77706 0.98176 0.0
C55 C 0.2873 0.79893 0.14474 0.0
O56 O 0.28111 0.77595 0.13408 0.0
C57 C 0.20998 0.7522 0.17727 0.0
O58 O 0.22149 0.74345 0.15075 0.0
O59 O 0.21203 0.77247 0.16483 0.0
O60 O 0.22488 0.75671 0.04342 0.0
O61 O 0.23564 0.81729 0.05797 0.0
C62 C 0.22749 0.81426 0.01034 0.0
O63 O 0.21294 0.79188 0.98995 0.0
O64 O 0.27237 0.80608 0.13383 0.0
Mg65 Mg 0.47468 0.23848 0.18552 0.0
C66 C 0.43603 0.22567 0.26169 0.0
O67 O 0.44623 0.21403 0.2822 0.0
C68 C 0.4896 0.21466 0.10826 0.0
O69 O 0.50762 0.23737 0.11394 0.0
C70 C 0.50363 0.28601 0.1192 0.0
O71 O 0.5245 0.28982 0.13974 0.0
O72 O 0.48401 0.26853 0.13395 0.0
O73 O 0.44156 0.23362 0.21639 0.0
O74 O 0.49575 0.2397 0.25707 0.0
C75 C 0.51174 0.23328 0.25857 0.0
O76 O 0.52078 0.23127 0.21473 0.0
O77 O 0.471 0.20861 0.13394 0.0
C78 C 0.04096 0.49012 0.53582 0.0
C79 C 0.02941 0.45486 0.72288 0.0
C80 C 0.9595 0.45088 0.70635 0.0
Mg81 Mg 0.02127 0.52476 0.48828 0.0
Mg82 Mg 0.00994 0.55995 0.56749 0.0
O83 O 0.00359 0.52816 0.54836 0.0
Mg84 Mg 0.01085 0.50966 0.60092 0.0
O85 O 0.01792 0.4901 0.64988 0.0
Mg86 Mg 0.9988 0.4566 0.61351 0.0
Mg87 Mg 0.0118 0.49273 0.72026 0.0
C88 C 0.98095 0.53166 0.66464 0.0
O89 O 0.04068 0.54418 0.64874 0.0
O90 O 0.00316 0.54235 0.43817 0.0
O91 O 0.03357 0.53255 0.73162 0.0
O92 O 0.05432 0.56368 0.50477 0.0
O93 O 0.99463 0.56451 0.49554 0.0
O94 O 0.04837 0.58571 0.56638 0.0
O95 O 0.98135 0.47329 0.55744 0.0
O96 O 0.98824 0.48631 0.47622 0.0
C97 C 0.97631 0.46953 0.50746 0.0
C98 C 0.99452 0.55648 0.44859 0.0
O99 O 0.98506 0.51399 0.6549 0.0
O100 O 0.02029 0.44644 0.67558 0.0
O101 O 0.98973 0.551 0.63859 0.0
O102 O 0.96637 0.44313 0.66736 0.0
O103 O 0.02754 0.47193 0.74692 0.0
O104 O 0.9736 0.4717 0.73031 0.0
O105 O 0.03688 0.50775 0.54509 0.0
O106 O 0.03008 0.47025 0.55932 0.0
C107 C 0.06181 0.58351 0.53349 0.0
C108 C 0.04477 0.54886 0.69877 0.0
C109 C 0.49498 0.03685 0.53402 0.0
C110 C 0.57104 0.03443 0.46924 0.0
C111 C 0.5359 0.96262 0.53017 0.0
Mg112 Mg 0.45927 0.00721 0.62633 0.0
Mg113 Mg 0.47694 0.98618 0.72464 0.0
O114 O 0.4747 0.98834 0.6526 0.0
Mg115 Mg 0.50407 0.00225 0.61144 0.0
O116 O 0.53148 0.01589 0.56444 0.0
Mg117 Mg 0.51244 0.99825 0.49659 0.0
Mg118 Mg 0.5599 0.015 0.58139 0.0
C119 C 0.50888 0.96344 0.69031 0.0
O120 O 0.53098 0.02965 0.67656 0.0
O121 O 0.42535 0.98181 0.67452 0.0
O122 O 0.56715 0.03341 0.66051 0.0
O123 O 0.47588 0.03578 0.69869 0.0
O124 O 0.4392 0.96662 0.73648 0.0
O125 O 0.49241 0.0225 0.75827 0.0
O126 O 0.47924 0.97661 0.54414 0.0
O127 O 0.44581 0.97896 0.55456 0.0
C128 C 0.45749 0.97066 0.52928 0.0
C129 C 0.42193 0.96804 0.71301 0.0
O130 O 0.51291 0.97341 0.646 0.0
O131 O 0.54824 0.0222 0.4553 0.0
O132 O 0.49703 0.96722 0.72516 0.0
O133 O 0.52221 0.96798 0.50284 0.0
O134 O 0.57934 0.03484 0.51609 0.0
O135 O 0.55137 0.97751 0.56605 0.0
O136 O 0.49414 0.03009 0.58113 0.0
O137 O 0.502 0.02814 0.49685 0.0
C138 C 0.48803 0.03884 0.74231 0.0
C139 C 0.55368 0.03841 0.68858 0.0
C140 C 0.52082 0.53753 0.6809 0.0
C141 C 0.45075 0.46201 0.77082 0.0
C142 C 0.48418 0.42323 0.70853 0.0
Mg143 Mg 0.54951 0.53725 0.57627 0.0
Mg144 Mg 0.51981 0.49414 0.48172 0.0
O145 O 0.52998 0.50139 0.55293 0.0
Mg146 Mg 0.50559 0.48867 0.60697 0.0
O147 O 0.48297 0.47739 0.66484 0.0
Mg148 Mg 0.50657 0.48447 0.72621 0.0
Mg149 Mg 0.45594 0.44544 0.65764 0.0
C150 C 0.48771 0.44111 0.52426 0.0
O151 O 0.47359 0.48449 0.55406 0.0
O152 O 0.57731 0.53924 0.5151 0.0
O153 O 0.44168 0.45071 0.58244 0.0
O154 O 0.53091 0.54919 0.513 0.0
O155 O 0.55532 0.5075 0.45561 0.0
O156 O 0.50773 0.51819 0.45469 0.0
O157 O 0.53509 0.4918 0.66545 0.0
O158 O 0.56696 0.52574 0.64058 0.0
C159 C 0.55755 0.50819 0.67119 0.0
C160 C 0.57557 0.52582 0.47385 0.0
O161 O 0.49283 0.44922 0.57282 0.0
O162 O 0.47397 0.47533 0.77862 0.0
O163 O 0.49452 0.45523 0.486 0.0
O164 O 0.49811 0.4449 0.72885 0.0
O165 O 0.44048 0.44958 0.72731 0.0
O166 O 0.4668 0.41846 0.67477 0.0
O167 O 0.51904 0.52873 0.63385 0.0
O168 O 0.51555 0.52404 0.71999 0.0
C169 C 0.51611 0.54029 0.47229 0.0
C170 C 0.45095 0.46808 0.55082 0.0
H171 H 0.20716 0.47646 0.3284 0.0
H172 H 0.17346 0.47653 0.37018 0.0
H173 H 0.14004 0.47377 0.21817 0.0
H174 H 0.1736 0.47312 0.17584 0.0
H175 H 0.14624 0.51304 0.29751 0.0
H176 H 0.11215 0.42613 0.27404 0.0
H177 H 0.11217 0.38722 0.27792 0.0
H178 H 0.12562 0.39897 0.44545 0.0
H179 H 0.12605 0.43815 0.4425 0.0
H180 H 0.04512 0.50399 0.43458 0.0
H181 H 0.07125 0.50063 0.3707 0.0
H182 H 0.10359 0.47818 0.49209 0.0
H183 H 0.07663 0.48011 0.55434 0.0
H184 H 0.09275 0.44888 0.41227 0.0
H185 H 0.13235 0.53769 0.43627 0.0
H186 H 0.13315 0.57711 0.43506 0.0
H187 H 0.11078 0.56304 0.27069 0.0
H188 H 0.10959 0.52338 0.27105 0.0
C189 C 0.19238 0.47534 0.30382 0.0
C190 C 0.1929 0.47459 0.24891 0.0
C191 C 0.17322 0.4755 0.32771 0.0
C192 C 0.15437 0.47532 0.29723 0.0
C193 C 0.15448 0.474 0.2423 0.0
C194 C 0.17348 0.47334 0.21823 0.0
C195 C 0.13505 0.47713 0.32366 0.0
C196 C 0.13417 0.49887 0.32191 0.0
C197 C 0.11966 0.4588 0.35598 0.0
C198 C 0.11929 0.43517 0.35798 0.0
C199 C 0.11531 0.42052 0.31166 0.0
C200 C 0.1152 0.39839 0.3137 0.0
C201 C 0.11893 0.39065 0.36189 0.0
C202 C 0.12274 0.405 0.40815 0.0
C203 C 0.12288 0.42715 0.40632 0.0
C204 C 0.05814 0.49876 0.44745 0.0
C205 C 0.05899 0.49232 0.49914 0.0
C206 C 0.07308 0.49683 0.41106 0.0
C207 C 0.08951 0.48915 0.42643 0.0
C208 C 0.09095 0.48387 0.4789 0.0
C209 C 0.07568 0.48515 0.51461 0.0
C210 C 0.10453 0.48532 0.38827 0.0
C211 C 0.10455 0.46307 0.38756 0.0
C212 C 0.11931 0.50335 0.35429 0.0
C213 C 0.12065 0.52747 0.35381 0.0
C214 C 0.12751 0.54296 0.39992 0.0
C215 C 0.12803 0.56534 0.39938 0.0
C216 C 0.12195 0.57253 0.35285 0.0
C217 C 0.11545 0.55742 0.3067 0.0
C218 C 0.11488 0.53501 0.30703 0.0
H219 H 0.12232 0.58983 0.3525 0.0
H220 H 0.11884 0.37351 0.36338 0.0
H221 H 0.71293 0.16715 0.11386 0.0
H222 H 0.68182 0.13037 0.15155 0.0
H223 H 0.72062 0.15647 0.30361 0.0
H224 H 0.75198 0.19284 0.26621 0.0
H225 H 0.69937 0.10758 0.29051 0.0
H226 H 0.67517 0.16899 0.25967 0.0
H227 H 0.66624 0.19416 0.20147 0.0
H228 H 0.61184 0.12919 0.11289 0.0
H229 H 0.6207 0.10364 0.17021 0.0
H230 H 0.61899 0.06846 0.48766 0.0
H231 H 0.64809 0.09123 0.42413 0.0
H232 H 0.59245 0.05502 0.29818 0.0
H233 H 0.56284 0.03247 0.36209 0.0
H234 H 0.61889 0.10157 0.28186 0.0
H235 H 0.63698 0.03962 0.31932 0.0
H236 H 0.64537 0.01292 0.3735 0.0
H237 H 0.71002 0.07563 0.44321 0.0
H238 H 0.70185 0.10277 0.39003 0.0
C239 C 0.7152 0.16475 0.15503 0.0
C240 C 0.73479 0.18318 0.18721 0.0
C241 C 0.69728 0.14377 0.17659 0.0
C242 C 0.69853 0.14097 0.23071 0.0
C243 C 0.71912 0.1583 0.26184 0.0
C244 C 0.73707 0.17916 0.24034 0.0
C245 C 0.67771 0.12149 0.2564 0.0
C246 C 0.68178 0.10627 0.28873 0.0
C247 C 0.65442 0.11907 0.25244 0.0
C248 C 0.64877 0.13444 0.21886 0.0
C249 C 0.66138 0.16009 0.22766 0.0
C250 C 0.65633 0.17441 0.19483 0.0
C251 C 0.63852 0.16328 0.15344 0.0
C252 C 0.62566 0.13778 0.14492 0.0
C253 C 0.63068 0.12338 0.17756 0.0
C254 C 0.61285 0.06521 0.44648 0.0
C255 C 0.58854 0.04847 0.43006 0.0
C256 C 0.62961 0.07819 0.41004 0.0
C257 C 0.62265 0.07448 0.35612 0.0
C258 C 0.59831 0.05808 0.33952 0.0
C259 C 0.58141 0.0452 0.37613 0.0
C260 C 0.64086 0.08833 0.31778 0.0
C261 C 0.63629 0.10245 0.283 0.0
C262 C 0.66359 0.08949 0.31889 0.0
C263 C 0.66871 0.07325 0.35083 0.0
C264 C 0.65291 0.04774 0.34644 0.0
C265 C 0.65764 0.03252 0.37695 0.0
C266 C 0.6782 0.04257 0.41182 0.0
C267 C 0.6941 0.06787 0.41617 0.0
C268 C 0.68945 0.08318 0.38579 0.0
H269 H 0.68183 0.03076 0.43542 0.0
H270 H 0.63466 0.17439 0.12804 0.0
H271 H 0.51379 0.66438 0.09124 0.0
H272 H 0.50949 0.6356 0.15684 0.0
H273 H 0.53207 0.69292 0.27988 0.0
H274 H 0.53713 0.72202 0.21422 0.0
H275 H 0.55267 0.66712 0.29931 0.0
H276 H 0.47094 0.64669 0.25091 0.0
H277 H 0.43534 0.63513 0.19021 0.0
H278 H 0.43399 0.56887 0.13941 0.0
H279 H 0.4698 0.58022 0.19922 0.0
H280 H 0.52439 0.58627 0.50201 0.0
H281 H 0.5227 0.61573 0.44526 0.0
H282 H 0.49678 0.56186 0.31392 0.0
H283 H 0.49716 0.53204 0.37087 0.0
H284 H 0.47666 0.58733 0.30277 0.0
H285 H 0.56008 0.60919 0.34267 0.0
H286 H 0.59581 0.61992 0.4023 0.0
H287 H 0.59403 0.68261 0.46751 0.0
H288 H 0.55815 0.6721 0.40857 0.0
C289 C 0.51787 0.67089 0.13226 0.0
C290 C 0.52567 0.6955 0.14747 0.0
C291 C 0.51525 0.65434 0.16984 0.0
C292 C 0.51992 0.66188 0.2236 0.0
C293 C 0.5282 0.68658 0.23876 0.0
C294 C 0.53109 0.70321 0.20113 0.0
C295 C 0.51652 0.64414 0.2639 0.0
C296 C 0.53589 0.64985 0.30054 0.0
C297 C 0.49482 0.62131 0.2651 0.0
C298 C 0.4732 0.61443 0.22924 0.0
C299 C 0.46316 0.62975 0.22652 0.0
C300 C 0.44293 0.62322 0.19229 0.0
C301 C 0.43245 0.60131 0.16085 0.0
C302 C 0.44215 0.58586 0.1637 0.0
C303 C 0.4624 0.59232 0.19779 0.0
C304 C 0.51795 0.58058 0.46122 0.0
C305 C 0.51129 0.55688 0.44085 0.0
C306 C 0.51725 0.59756 0.42859 0.0
C307 C 0.51052 0.59141 0.37463 0.0
C308 C 0.50233 0.56725 0.35515 0.0
C309 C 0.50256 0.55015 0.38791 0.0
C310 C 0.51289 0.6102 0.33784 0.0
C311 C 0.49337 0.60469 0.30182 0.0
C312 C 0.53449 0.63314 0.33693 0.0
C313 C 0.55635 0.63976 0.37154 0.0
C314 C 0.56729 0.62522 0.36984 0.0
C315 C 0.58755 0.63126 0.40351 0.0
C316 C 0.59715 0.6519 0.43875 0.0
C317 C 0.58658 0.66662 0.4402 0.0
C318 C 0.5663 0.66066 0.40663 0.0
H319 H 0.61281 0.65652 0.46486 0.0
H320 H 0.4168 0.59629 0.13436 0.0
H321 H 0.86906 0.58878 0.08499 0.0
H322 H 0.90667 0.59213 0.12023 0.0
H323 H 0.89585 0.61495 0.27279 0.0
H324 H 0.85793 0.61139 0.23827 0.0
H325 H 0.94712 0.63548 0.24717 0.0
H326 H 0.86972 0.55825 0.24631 0.0
H327 H 0.83263 0.52379 0.20189 0.0
H328 H 0.87559 0.50614 0.10407 0.0
H329 H 0.91294 0.54062 0.14796 0.0
H330 H 0.97655 0.5874 0.45676 0.0
H331 H 0.95922 0.60019 0.38739 0.0
H332 H 0.97238 0.55715 0.27245 0.0
H333 H 0.9896 0.54373 0.3425 0.0
H334 H 0.92752 0.54926 0.2584 0.0
H335 H 0.00478 0.61913 0.27532 0.0
H336 H 0.04225 0.65274 0.32024 0.0
H337 H 0.00223 0.68435 0.38444 0.0
H338 H 0.9644 0.65068 0.34071 0.0
C339 C 0.87507 0.59545 0.12558 0.0
C340 C 0.86017 0.59925 0.15922 0.0
C341 C 0.89663 0.59733 0.14557 0.0
C342 C 0.90376 0.60332 0.19917 0.0
C343 C 0.89058 0.61022 0.23127 0.0
C344 C 0.86886 0.60808 0.2115 0.0
C345 C 0.92163 0.59773 0.2238 0.0
C346 C 0.943 0.6167 0.24959 0.0
C347 C 0.91655 0.57323 0.22525 0.0
C348 C 0.89409 0.55233 0.1995 0.0
C349 C 0.87124 0.54719 0.21493 0.0
C350 C 0.85018 0.52759 0.19006 0.0
C351 C 0.85175 0.51281 0.15014 0.0
C352 C 0.87439 0.51761 0.13498 0.0
C353 C 0.89551 0.53719 0.15981 0.0
C354 C 0.97593 0.58064 0.4168 0.0
C355 C 0.98441 0.5644 0.40535 0.0
C356 C 0.96621 0.58823 0.37699 0.0
C357 C 0.96489 0.58001 0.32456 0.0
C358 C 0.97341 0.56387 0.31265 0.0
C359 C 0.98318 0.55619 0.35272 0.0
C360 C 0.95276 0.58694 0.28357 0.0
C361 C 0.93228 0.56818 0.25473 0.0
C362 C 0.95889 0.61164 0.27891 0.0
C363 C 0.98166 0.63227 0.30474 0.0
C364 C 0.00391 0.63316 0.29922 0.0
C365 C 0.02523 0.65223 0.3245 0.0
C366 C 0.02462 0.67066 0.35521 0.0
C367 C 0.00268 0.67007 0.36059 0.0
C368 C 0.98128 0.651 0.33547 0.0
H369 H 0.04114 0.6854 0.37479 0.0
H370 H 0.83541 0.49755 0.13118 0.0
H371 H 0.32358 0.79083 0.18242 0.0
H372 H 0.36038 0.81968 0.23661 0.0
H373 H 0.34011 0.87518 0.22707 0.0
H374 H 0.30422 0.84709 0.17196 0.0
H375 H 0.38616 0.89607 0.22357 0.0
H376 H 0.32756 0.83683 0.33369 0.0
H377 H 0.30098 0.79543 0.3628 0.0
H378 H 0.36226 0.78548 0.38729 0.0
H379 H 0.38917 0.82676 0.35777 0.0
H380 H 0.42016 0.96632 0.46532 0.0
H381 H 0.39929 0.93718 0.38948 0.0
H382 H 0.44636 0.90728 0.41182 0.0
H383 H 0.46783 0.93687 0.48692 0.0
H384 H 0.39567 0.87204 0.40158 0.0
H385 H 0.4544 0.93955 0.3136 0.0
H386 H 0.47771 0.98233 0.29039 0.0
H387 H 0.41237 0.97886 0.22988 0.0
H388 H 0.38853 0.93608 0.25344 0.0
C389 C 0.32719 0.80929 0.19136 0.0
C390 C 0.31075 0.8165 0.17342 0.0
C391 C 0.34817 0.82574 0.22252 0.0
C392 C 0.35287 0.84953 0.23676 0.0
C393 C 0.33699 0.85698 0.21679 0.0
C394 C 0.31628 0.84074 0.18546 0.0
C395 C 0.37323 0.86645 0.275 0.0
C396 C 0.38824 0.89081 0.2625 0.0
C397 C 0.37643 0.85951 0.32544 0.0
C398 C 0.36029 0.83469 0.34284 0.0
C399 C 0.33532 0.82571 0.34488 0.0
C400 C 0.32021 0.8023 0.36152 0.0
C401 C 0.32991 0.7878 0.37667 0.0
C402 C 0.35476 0.79671 0.37537 0.0
C403 C 0.36995 0.8201 0.3587 0.0
C404 C 0.42623 0.95371 0.45376 0.0
C405 C 0.44562 0.95388 0.48199 0.0
C406 C 0.41438 0.93717 0.41032 0.0
C407 C 0.42149 0.92029 0.39473 0.0
C408 C 0.44083 0.92037 0.42283 0.0
C409 C 0.45305 0.93728 0.46567 0.0
C410 C 0.40765 0.90179 0.35081 0.0
C411 C 0.394 0.87716 0.36223 0.0
C412 C 0.40524 0.90867 0.29989 0.0
C413 C 0.41961 0.93446 0.28542 0.0
C414 C 0.44492 0.94785 0.29557 0.0
C415 C 0.45826 0.97215 0.28233 0.0
C416 C 0.44654 0.98331 0.25867 0.0
C417 C 0.42144 0.97018 0.24816 0.0
C418 C 0.40801 0.94587 0.26139 0.0
H419 H 0.4569 0.00214 0.24846 0.0
H420 H 0.31819 0.76968 0.38958 0.0
H421 H 0.43857 0.22891 0.3691 0.0
H422 H 0.43573 0.25961 0.42409 0.0
H423 H 0.40881 0.28001 0.2891 0.0
H424 H 0.41216 0.24971 0.23351 0.0
H425 H 0.45045 0.31684 0.32971 0.0
H426 H 0.37597 0.25932 0.39886 0.0
H427 H 0.34779 0.22184 0.44064 0.0
H428 H 0.39619 0.24559 0.57927 0.0
H429 H 0.42484 0.28307 0.53806 0.0
H430 H 0.45443 0.41892 0.44263 0.0
H431 H 0.43488 0.37616 0.40967 0.0
H432 H 0.46858 0.36039 0.54034 0.0
H433 H 0.48779 0.40346 0.57471 0.0
H434 H 0.42155 0.32034 0.50537 0.0
H435 H 0.49724 0.37485 0.43413 0.0
H436 H 0.5263 0.41234 0.39357 0.0
H437 H 0.4763 0.39308 0.25889 0.0
H438 H 0.44677 0.35564 0.29907 0.0
C439 C 0.43113 0.23923 0.35135 0.0
C440 C 0.42616 0.23729 0.29664 0.0
C441 C 0.42945 0.25679 0.38304 0.0
C442 C 0.42238 0.27237 0.36063 0.0
C443 C 0.41455 0.26834 0.30714 0.0
C444 C 0.41643 0.25097 0.27538 0.0
C445 C 0.42778 0.29554 0.38972 0.0
C446 C 0.4436 0.31748 0.36757 0.0
C447 C 0.41984 0.29648 0.44027 0.0
C448 C 0.40267 0.27393 0.46514 0.0
C449 C 0.38072 0.25646 0.43807 0.0
C450 C 0.36464 0.23523 0.4617 0.0
C451 C 0.37022 0.2313 0.51253 0.0
C452 C 0.39189 0.24864 0.53988 0.0
C453 C 0.40805 0.2699 0.51643 0.0
C454 C 0.45734 0.40626 0.46492 0.0
C455 C 0.47306 0.41454 0.51048 0.0
C456 C 0.44605 0.38182 0.4462 0.0
C457 C 0.45071 0.36526 0.47193 0.0
C458 C 0.46485 0.37295 0.51983 0.0
C459 C 0.47589 0.39751 0.53924 0.0
C460 C 0.44366 0.34129 0.44453 0.0
C461 C 0.42797 0.31944 0.46717 0.0
C462 C 0.45185 0.34022 0.39442 0.0
C463 C 0.46971 0.36257 0.36984 0.0
C464 C 0.49238 0.3787 0.39603 0.0
C465 C 0.50894 0.39993 0.3731 0.0
C466 C 0.50313 0.40512 0.32374 0.0
C467 C 0.48077 0.38905 0.29716 0.0
C468 C 0.46412 0.36781 0.31997 0.0
H469 H 0.51597 0.42157 0.30605 0.0
H470 H 0.35774 0.21486 0.53076 0.0
H471 H 0.51706 0.80846 0.95214 0.0
H472 H 0.51422 0.83418 0.8868 0.0
H473 H 0.59195 0.87366 0.88203 0.0
H474 H 0.59499 0.84826 0.94855 0.0
H475 H 0.5758 0.90475 0.88274 0.0
H476 H 0.55547 0.83206 0.78051 0.0
H477 H 0.53482 0.78767 0.75677 0.0
H478 H 0.46616 0.7846 0.74627 0.0
H479 H 0.48634 0.82891 0.77072 0.0
H480 H 0.55324 0.96734 0.67749 0.0
H481 H 0.56741 0.94066 0.71362 0.0
H482 H 0.4964 0.89367 0.76696 0.0
H483 H 0.48248 0.92014 0.73192 0.0
H484 H 0.51727 0.86747 0.72711 0.0
H485 H 0.53855 0.9387 0.84777 0.0
H486 H 0.55955 0.9832 0.87071 0.0
H487 H 0.62783 0.9887 0.84291 0.0
H488 H 0.60715 0.94424 0.81911 0.0
C489 C 0.53359 0.82258 0.93724 0.0
C490 C 0.55625 0.82621 0.95553 0.0
C491 C 0.53192 0.8372 0.89952 0.0
C492 C 0.55284 0.85559 0.87857 0.0
C493 C 0.57554 0.85951 0.89729 0.0
C494 C 0.57724 0.84495 0.93534 0.0
C495 C 0.55079 0.871 0.83827 0.0
C496 C 0.56343 0.89658 0.84805 0.0
C497 C 0.5347 0.86048 0.79282 0.0
C498 C 0.52244 0.83382 0.77773 0.0
C499 C 0.53595 0.8219 0.77346 0.0
C500 C 0.52433 0.79675 0.75984 0.0
C501 C 0.4992 0.78332 0.75008 0.0
C502 C 0.48563 0.79503 0.75383 0.0
C503 C 0.49716 0.82017 0.76749 0.0
C504 C 0.54062 0.95096 0.6958 0.0
C505 C 0.51685 0.9458 0.7023 0.0
C506 C 0.54871 0.93584 0.71661 0.0
C507 C 0.53297 0.91528 0.74334 0.0
C508 C 0.50884 0.90937 0.74649 0.0
C509 C 0.50094 0.92457 0.72663 0.0
C510 C 0.54159 0.90095 0.77275 0.0
C511 C 0.53015 0.87558 0.76101 0.0
C512 C 0.5589 0.91165 0.8161 0.0
C513 C 0.5713 0.93825 0.83107 0.0
C514 C 0.55803 0.94944 0.84622 0.0
C515 C 0.56987 0.97464 0.85941 0.0
C516 C 0.595 0.98879 0.85809 0.0
C517 C 0.60836 0.97774 0.84378 0.0
C518 C 0.59659 0.95254 0.83044 0.0
H519 H 0.60414 0.0083 0.86829 0.0
H520 H 0.49023 0.76385 0.73956 0.0
H521 H 0.71382 0.48394 0.95668 0.0
H522 H 0.67793 0.47829 0.90674 0.0
H523 H 0.70492 0.55606 0.92488 0.0
H524 H 0.74075 0.5618 0.97638 0.0
H525 H 0.65826 0.53152 0.94123 0.0
H526 H 0.70744 0.52812 0.80856 0.0
H527 H 0.73207 0.51384 0.76401 0.0
H528 H 0.67084 0.44088 0.74465 0.0
H529 H 0.64591 0.45467 0.78975 0.0
H530 H 0.59717 0.54707 0.72105 0.0
H531 H 0.62577 0.54645 0.7863 0.0
H532 H 0.58249 0.46771 0.78373 0.0
H533 H 0.55336 0.46825 0.71859 0.0
H534 H 0.63382 0.48855 0.76374 0.0
H535 H 0.58361 0.49574 0.88857 0.0
H536 H 0.56057 0.51325 0.92806 0.0
H537 H 0.62578 0.58279 0.95698 0.0
H538 H 0.6492 0.56592 0.91669 0.0
C539 C 0.71224 0.49991 0.94987 0.0
C540 C 0.73022 0.52336 0.97029 0.0
C541 C 0.69169 0.49663 0.92118 0.0
C542 C 0.68883 0.51677 0.91156 0.0
C543 C 0.70674 0.54024 0.93187 0.0
C544 C 0.72727 0.54352 0.96102 0.0
C545 C 0.6671 0.51329 0.88045 0.0
C546 C 0.65304 0.52231 0.90225 0.0
C547 C 0.65994 0.50074 0.83006 0.0
C548 C 0.6749 0.49237 0.80309 0.0
C549 C 0.69929 0.50898 0.79523 0.0
C550 C 0.71329 0.50099 0.7698 0.0
C551 C 0.70305 0.47645 0.75167 0.0
C552 C 0.67876 0.45987 0.75881 0.0
C553 C 0.66468 0.46777 0.78428 0.0
C554 C 0.59355 0.52963 0.73485 0.0
C555 C 0.57316 0.50766 0.71459 0.0
C556 C 0.60983 0.52934 0.7723 0.0
C557 C 0.60619 0.50706 0.78974 0.0
C558 C 0.58551 0.48508 0.77071 0.0
C559 C 0.5689 0.48541 0.73379 0.0
C560 C 0.62523 0.50699 0.82435 0.0
C561 C 0.63885 0.49739 0.8031 0.0
C562 C 0.63221 0.5194 0.87474 0.0
C563 C 0.61816 0.52958 0.89923 0.0
C564 C 0.59303 0.51482 0.90292 0.0
C565 C 0.5799 0.52462 0.92553 0.0
C566 C 0.59169 0.54909 0.94498 0.0
C567 C 0.61667 0.56383 0.9419 0.0
C568 C 0.62988 0.55416 0.91919 0.0
H569 H 0.58149 0.55663 0.96249 0.0
H570 H 0.71392 0.4703 0.73195 0.0
H571 H 0.19282 0.71341 0.01816 0.0
H572 H 0.16584 0.67959 0.95622 0.0
H573 H 0.21103 0.71628 0.8308 0.0
H574 H 0.23799 0.751 0.89293 0.0
H575 H 0.16531 0.69829 0.79836 0.0
H576 H 0.20859 0.66442 0.87815 0.0
H577 H 0.22815 0.65358 0.94895 0.0
H578 H 0.1593 0.60928 0.01228 0.0
H579 H 0.13934 0.62012 0.94231 0.0
H580 H 0.0827 0.58335 0.6473 0.0
H581 H 0.11889 0.61997 0.68693 0.0
H582 H 0.0883 0.6055 0.83779 0.0
H583 H 0.05243 0.56888 0.79888 0.0
H584 H 0.1336 0.61219 0.84241 0.0
H585 H 0.09288 0.6532 0.76395 0.0
H586 H 0.07485 0.66218 0.68683 0.0
H587 H 0.14206 0.69094 0.61301 0.0
H588 H 0.16044 0.68199 0.68963 0.0
C589 C 0.19731 0.71429 0.97758 0.0
C590 C 0.21767 0.73497 0.96063 0.0
C591 C 0.18185 0.69478 0.94209 0.0
C592 C 0.18653 0.69513 0.88882 0.0
C593 C 0.20708 0.71554 0.87172 0.0
C594 C 0.22256 0.73529 0.90735 0.0
C595 C 0.16912 0.67449 0.85147 0.0
C596 C 0.15873 0.67945 0.80745 0.0
C597 C 0.1606 0.64983 0.86273 0.0
C598 C 0.17248 0.64319 0.90503 0.0
C599 C 0.19763 0.65249 0.90736 0.0
C600 C 0.20879 0.64632 0.94733 0.0
C601 C 0.19498 0.63077 0.98512 0.0
C602 C 0.16997 0.62132 0.98297 0.0
C603 C 0.15872 0.62744 0.94309 0.0
C604 C 0.08348 0.58827 0.6887 0.0
C605 C 0.06474 0.5731 0.72002 0.0
C606 C 0.10422 0.60918 0.71131 0.0
C607 C 0.10637 0.61539 0.76542 0.0
C608 C 0.08715 0.60092 0.79607 0.0
C609 C 0.06659 0.58002 0.77369 0.0
C610 C 0.12894 0.63609 0.79152 0.0
C611 C 0.14045 0.63105 0.83308 0.0
C612 C 0.13875 0.66051 0.77724 0.0
C613 C 0.12797 0.6668 0.73232 0.0
C614 C 0.10379 0.66143 0.73125 0.0
C615 C 0.09352 0.66651 0.68765 0.0
C616 C 0.1073 0.67711 0.64505 0.0
C617 C 0.13142 0.68277 0.64608 0.0
C618 C 0.14179 0.67775 0.68962 0.0
H619 H 0.09928 0.68093 0.61124 0.0
H620 H 0.20366 0.62602 0.01604 0.0
H621 H 0.45325 0.17215 0.05841 0.0
H622 H 0.45769 0.14388 0.99787 0.0
H623 H 0.53547 0.18794 0.023 0.0
H624 H 0.53109 0.21676 0.08121 0.0
H625 H 0.52535 0.17649 0.92538 0.0
H626 H 0.50047 0.12889 0.07786 0.0
H627 H 0.47447 0.10847 0.14999 0.0
H628 H 0.41375 0.06662 0.03879 0.0
H629 H 0.43934 0.08657 0.96602 0.0
H630 H 0.5114 0.04958 0.83976 0.0
H631 H 0.51826 0.08241 0.90359 0.0
H632 H 0.48911 0.11117 0.78977 0.0
H633 H 0.48198 0.07818 0.72522 0.0
H634 H 0.47929 0.08639 0.9367 0.0
H635 H 0.51922 0.17419 0.82095 0.0
H636 H 0.54805 0.19281 0.7525 0.0
H637 H 0.58395 0.15369 0.79842 0.0
H638 H 0.55533 0.13494 0.86714 0.0
C639 C 0.47125 0.17565 0.05114 0.0
C640 C 0.49181 0.19663 0.07423 0.0
C641 C 0.4738 0.15944 0.01683 0.0
C642 C 0.49695 0.16359 0.00634 0.0
C643 C 0.51745 0.18437 0.03025 0.0
C644 C 0.51491 0.2008 0.06358 0.0
C645 C 0.49989 0.14682 0.96908 0.0
C646 C 0.5153 0.15679 0.92804 0.0
C647 C 0.4872 0.12113 0.97287 0.0
C648 C 0.47176 0.10937 0.01663 0.0
C649 C 0.48153 0.11546 0.0689 0.0
C650 C 0.4669 0.10396 0.10985 0.0
C651 C 0.44249 0.08644 0.09902 0.0
C652 C 0.43266 0.08024 0.04715 0.0
C653 C 0.44723 0.09155 0.00604 0.0
C654 C 0.50669 0.06302 0.82784 0.0
C655 C 0.49564 0.06094 0.77764 0.0
C656 C 0.51069 0.08178 0.86446 0.0
C657 C 0.50396 0.09897 0.85145 0.0
C658 C 0.49444 0.09801 0.80039 0.0
C659 C 0.49029 0.07911 0.76368 0.0
C660 C 0.50429 0.11607 0.89288 0.0
C661 C 0.48943 0.10612 0.93447 0.0
C662 C 0.51782 0.14171 0.89013 0.0
C663 C 0.53507 0.15305 0.84893 0.0
C664 C 0.53331 0.16963 0.8165 0.0
C665 C 0.54957 0.18016 0.77758 0.0
C666 C 0.56778 0.17438 0.771 0.0
C667 C 0.56978 0.15808 0.80337 0.0
C668 C 0.55351 0.14744 0.84217 0.0
H669 H 0.58036 0.18258 0.74089 0.0
H670 H 0.43121 0.07759 0.13081 0.0
H671 H 0.33051 0.49979 0.11899 0.0
H672 H 0.35923 0.4913 0.07677 0.0
H673 H 0.30276 0.44169 0.9616 0.0
H674 H 0.27339 0.44915 0.00621 0.0
H675 H 0.33397 0.42587 0.98313 0.0
H676 H 0.34167 0.50325 0.93981 0.0
H677 H 0.3473 0.54429 0.96063 0.0
H678 H 0.41621 0.56692 0.04129 0.0
H679 H 0.41082 0.52589 0.02155 0.0
H680 H 0.40143 0.436 0.76601 0.0
H681 H 0.37466 0.43612 0.83031 0.0
H682 H 0.4363 0.48569 0.93466 0.0
H683 H 0.46361 0.48615 0.86935 0.0
H684 H 0.40463 0.50097 0.92641 0.0
H685 H 0.39909 0.42496 0.96125 0.0
H686 H 0.39361 0.38402 0.94007 0.0
H687 H 0.32134 0.35878 0.87538 0.0
H688 H 0.3265 0.39967 0.89546 0.0
C689 C 0.32407 0.48661 0.08538 0.0
C690 C 0.29981 0.47522 0.06551 0.0
C691 C 0.34055 0.48191 0.06107 0.0
C692 C 0.33336 0.46648 0.01502 0.0
C693 C 0.30876 0.45384 0.99687 0.0
C694 C 0.292 0.45807 0.02226 0.0
C695 C 0.35188 0.46518 0.98393 0.0
C696 C 0.3493 0.44224 0.97028 0.0
C697 C 0.37232 0.48664 0.96846 0.0
C698 C 0.37574 0.51144 0.97959 0.0
C699 C 0.35796 0.51694 0.9622 0.0
C700 C 0.36111 0.5402 0.97382 0.0
C701 C 0.38207 0.55818 0.0024 0.0
C702 C 0.39996 0.55296 0.01926 0.0
C703 C 0.39689 0.52972 0.00782 0.0
C704 C 0.40948 0.44684 0.80273 0.0
C705 C 0.43479 0.46116 0.81232 0.0
C706 C 0.39402 0.44669 0.83977 0.0
C707 C 0.4034 0.46059 0.88773 0.0
C708 C 0.42866 0.47469 0.89798 0.0
C709 C 0.44424 0.47493 0.86065 0.0
C710 C 0.38665 0.46162 0.92504 0.0
C711 C 0.3895 0.48456 0.93975 0.0
C712 C 0.36651 0.44017 0.94139 0.0
C713 C 0.36325 0.41546 0.92959 0.0
C714 C 0.38208 0.41073 0.94219 0.0
C715 C 0.37902 0.38752 0.93043 0.0
C716 C 0.35715 0.36882 0.90632 0.0
C717 C 0.33827 0.37328 0.89405 0.0
C718 C 0.34124 0.39646 0.90569 0.0
H719 H 0.35483 0.35087 0.89722 0.0
H720 H 0.38446 0.57617 0.0114 0.0
H721 H 0.79609 0.27354 0.95422 0.0
H722 H 0.81971 0.29925 0.88485 0.0
H723 H 0.85299 0.36234 0.99551 0.0
H724 H 0.82997 0.33689 0.06492 0.0
H725 H 0.8335 0.36898 0.89649 0.0
H726 H 0.88518 0.33917 0.96505 0.0
H727 H 0.89429 0.30697 0.98812 0.0
H728 H 0.87781 0.27764 0.82781 0.0
H729 H 0.86825 0.30948 0.80393 0.0
H730 H 0.9394 0.46021 0.79067 0.0
H731 H 0.9057 0.4305 0.83756 0.0
H732 H 0.89262 0.37353 0.72022 0.0
H733 H 0.92647 0.40319 0.67307 0.0
H734 H 0.89766 0.36005 0.81344 0.0
H735 H 0.84668 0.38729 0.74083 0.0
H736 H 0.83092 0.41395 0.71337 0.0
H737 H 0.84217 0.44471 0.87176 0.0
H738 H 0.85764 0.41792 0.90034 0.0
C739 C 0.80854 0.29286 0.96378 0.0
C740 C 0.81119 0.30312 0.01517 0.0
C741 C 0.822 0.30751 0.92414 0.0
C742 C 0.83805 0.33272 0.93504 0.0
C743 C 0.84066 0.34297 0.98621 0.0
C744 C 0.82756 0.32832 0.02592 0.0
C745 C 0.85216 0.34861 0.89338 0.0
C746 C 0.8477 0.36722 0.87859 0.0
C747 C 0.86995 0.34562 0.8685 0.0
C748 C 0.8757 0.32651 0.88285 0.0
C749 C 0.88325 0.3257 0.93482 0.0
C750 C 0.88856 0.30755 0.94802 0.0
C751 C 0.88655 0.29022 0.90949 0.0
C752 C 0.87931 0.29104 0.85764 0.0
C753 C 0.87395 0.30914 0.84425 0.0
C754 C 0.92906 0.4415 0.77405 0.0
C755 C 0.93602 0.43409 0.72849 0.0
C756 C 0.90962 0.42447 0.80088 0.0
C757 C 0.89664 0.39963 0.78278 0.0
C758 C 0.90246 0.39252 0.73531 0.0
C759 C 0.92184 0.40957 0.70828 0.0
C760 C 0.87935 0.3809 0.81684 0.0
C761 C 0.88328 0.36176 0.8306 0.0
C762 C 0.86076 0.38312 0.84008 0.0
C763 C 0.85345 0.40072 0.82264 0.0
C764 C 0.84605 0.39994 0.7697 0.0
C765 C 0.83695 0.41489 0.75403 0.0
C766 C 0.83548 0.43095 0.79082 0.0
C767 C 0.84325 0.4322 0.84333 0.0
C768 C 0.85206 0.41705 0.85934 0.0
H769 H 0.82837 0.44246 0.77859 0.0
H770 H 0.89068 0.27619 0.91978 0.0
H771 H 0.83638 0.50706 0.03785 0.0
H772 H 0.86444 0.49954 0.98811 0.0
H773 H 0.84484 0.52465 0.84992 0.0
H774 H 0.81695 0.53187 0.89887 0.0
H775 H 0.85055 0.48694 0.82356 0.0
H776 H 0.89472 0.56278 0.9362 0.0
H777 H 0.90978 0.58743 0.02065 0.0
H778 H 0.94213 0.54522 0.06825 0.0
H779 H 0.92696 0.5201 0.98429 0.0
H780 H 0.94636 0.54466 0.66309 0.0
H781 H 0.91697 0.5372 0.72879 0.0
H782 H 0.94957 0.50569 0.82603 0.0
H783 H 0.97923 0.51341 0.76041 0.0
H784 H 0.93761 0.53777 0.88225 0.0
H785 H 0.90098 0.46803 0.76272 0.0
H786 H 0.8885 0.44529 0.6761 0.0
H787 H 0.84245 0.47506 0.64168 0.0
H788 H 0.85518 0.49851 0.72761 0.0
C789 C 0.83774 0.51044 0.99663 0.0
C790 C 0.82468 0.5203 0.97245 0.0
C791 C 0.85387 0.50629 0.96831 0.0
C792 C 0.85703 0.51188 0.91539 0.0
C793 C 0.8428 0.52023 0.89064 0.0
C794 C 0.8269 0.52446 0.91881 0.0
C795 C 0.87617 0.51094 0.8859 0.0
C796 C 0.86957 0.49797 0.83652 0.0
C797 C 0.90101 0.52475 0.90336 0.0
C798 C 0.90946 0.53939 0.95432 0.0
C799 C 0.90481 0.55859 0.96494 0.0
C800 C 0.91342 0.57268 0.01266 0.0
C801 C 0.92691 0.56789 0.04979 0.0
C802 C 0.93169 0.54891 0.03943 0.0
C803 C 0.92306 0.53472 0.99185 0.0
C804 C 0.94738 0.53636 0.69869 0.0
C805 C 0.96468 0.5291 0.7063 0.0
C806 C 0.93055 0.53199 0.73603 0.0
C807 C 0.93089 0.52053 0.78184 0.0
C808 C 0.94887 0.51431 0.7907 0.0
C809 C 0.96557 0.51845 0.75301 0.0
C810 C 0.9119 0.51457 0.81935 0.0
C811 C 0.91856 0.52619 0.86998 0.0
C812 C 0.88711 0.49942 0.80322 0.0
C813 C 0.87925 0.48525 0.75149 0.0
C814 C 0.88847 0.47002 0.73639 0.0
C815 C 0.88135 0.457 0.68737 0.0
C816 C 0.86477 0.45883 0.65329 0.0
C817 C 0.85532 0.4737 0.66812 0.0
C818 C 0.8625 0.48688 0.71697 0.0
H819 H 0.8591 0.44864 0.61548 0.0
H820 H 0.93375 0.57891 0.08656 0.0
H821 H 0.22653 0.81107 0.90308 0.0
H822 H 0.25539 0.84154 0.84814 0.0
H823 H 0.28613 0.89387 0.9821 0.0
H824 H 0.25778 0.86317 0.03783 0.0
H825 H 0.2717 0.88666 0.81657 0.0
H826 H 0.3471 0.92233 0.98329 0.0
H827 H 0.35584 0.90914 0.06707 0.0
H828 H 0.31129 0.83379 0.01055 0.0
H829 H 0.30264 0.84655 0.92618 0.0
H830 H 0.38543 0.97908 0.72061 0.0
H831 H 0.34819 0.95636 0.76686 0.0
H832 H 0.36653 0.90051 0.79509 0.0
H833 H 0.40369 0.92332 0.75091 0.0
H834 H 0.35582 0.91292 0.88185 0.0
H835 H 0.31921 0.89212 0.70502 0.0
H836 H 0.30949 0.90059 0.61665 0.0
H837 H 0.27591 0.93844 0.6842 0.0
H838 H 0.2857 0.93045 0.77305 0.0
C839 C 0.23896 0.82925 0.92073 0.0
C840 C 0.24013 0.8345 0.97517 0.0
C841 C 0.25548 0.84673 0.88909 0.0
C842 C 0.27336 0.86983 0.91115 0.0
C843 C 0.27284 0.87598 0.96437 0.0
C844 C 0.25654 0.85842 0.99619 0.0
C845 C 0.29429 0.88592 0.88049 0.0
C846 C 0.29013 0.89263 0.831 0.0
C847 C 0.31835 0.8933 0.89868 0.0
C848 C 0.32401 0.88542 0.94871 0.0
C849 C 0.33928 0.90296 0.98868 0.0
C850 C 0.34421 0.89556 0.03626 0.0
C851 C 0.33406 0.87064 0.04419 0.0
C852 C 0.31909 0.85308 0.00442 0.0
C853 C 0.31418 0.86039 0.95671 0.0
C854 C 0.38119 0.96173 0.73592 0.0
C855 C 0.39753 0.95305 0.73246 0.0
C856 C 0.35994 0.94876 0.76242 0.0
C857 C 0.35454 0.92672 0.78496 0.0
C858 C 0.37035 0.91758 0.77888 0.0
C859 C 0.39157 0.93061 0.75331 0.0
C860 C 0.33335 0.91355 0.81737 0.0
C861 C 0.33748 0.90738 0.86751 0.0
C862 C 0.30929 0.9061 0.79898 0.0
C863 C 0.30344 0.91094 0.74566 0.0
C864 C 0.30993 0.90243 0.70103 0.0
C865 C 0.30438 0.90711 0.65086 0.0
C866 C 0.29216 0.92012 0.64482 0.0
C867 C 0.28542 0.92841 0.68894 0.0
C868 C 0.29095 0.9238 0.73921 0.0
H869 H 0.28787 0.92371 0.60594 0.0
H870 H 0.33785 0.86496 0.08109 0.0
H871 H 0.46345 0.27806 0.05994 0.0
H872 H 0.46141 0.2991 0.9836 0.0
H873 H 0.53887 0.34669 1.0 0.0
H874 H 0.54114 0.32559 0.07685 0.0
H875 H 0.51456 0.37183 0.98031 0.0
H876 H 0.51454 0.30105 0.90646 0.0
H877 H 0.50077 0.25703 0.89363 0.0
H878 H 0.43011 0.24232 0.83858 0.0
H879 H 0.44336 0.28623 0.85186 0.0
H880 H 0.52588 0.42552 0.74393 0.0
H881 H 0.52988 0.3991 0.80575 0.0
H882 H 0.4525 0.35072 0.7918 0.0
H883 H 0.44844 0.37707 0.72877 0.0
H884 H 0.47748 0.32552 0.80862 0.0
H885 H 0.47611 0.39496 0.8872 0.0
H886 H 0.48905 0.43881 0.89925 0.0
H887 H 0.56132 0.45566 0.94587 0.0
H888 H 0.54886 0.41188 0.93337 0.0
C889 C 0.48012 0.29307 0.04766 0.0
C890 C 0.50251 0.30005 0.07469 0.0
C891 C 0.4789 0.305 0.00365 0.0
C892 C 0.50001 0.32427 0.98549 0.0
C893 C 0.52235 0.33178 0.01311 0.0
C894 C 0.52362 0.3197 0.05706 0.0
C895 C 0.4986 0.33656 0.93789 0.0
C896 C 0.50683 0.36175 0.94262 0.0
C897 C 0.48789 0.32333 0.88888 0.0
C898 C 0.47988 0.29692 0.88065 0.0
C899 C 0.496 0.28841 0.89204 0.0
C900 C 0.4883 0.26348 0.88461 0.0
C901 C 0.46456 0.24688 0.86543 0.0
C902 C 0.44849 0.25519 0.8535 0.0
C903 C 0.45609 0.28011 0.86094 0.0
C904 C 0.50977 0.40881 0.75257 0.0
C905 C 0.48682 0.40347 0.73172 0.0
C906 C 0.51207 0.39379 0.78825 0.0
C907 C 0.49144 0.37328 0.80459 0.0
C908 C 0.46867 0.36655 0.78007 0.0
C909 C 0.46637 0.38154 0.74376 0.0
C910 C 0.49354 0.36075 0.85112 0.0
C911 C 0.48535 0.33557 0.84628 0.0
C912 C 0.50415 0.37392 0.90022 0.0
C913 C 0.51161 0.40018 0.90894 0.0
C914 C 0.49479 0.40803 0.89977 0.0
C915 C 0.50203 0.43286 0.90668 0.0
C916 C 0.526 0.45 0.92321 0.0
C917 C 0.54276 0.44235 0.93301 0.0
C918 C 0.53562 0.41752 0.92608 0.0
H919 H 0.53154 0.4692 0.92858 0.0
H920 H 0.45864 0.22758 0.85969 0.0
H921 H 0.23442 0.4957 0.92351 0.0
H922 H 0.19875 0.48438 0.86465 0.0
H923 H 0.16362 0.49671 0.99316 0.0
H924 H 0.19922 0.50815 0.05228 0.0
H925 H 0.13635 0.45018 0.94149 0.0
H926 H 0.18065 0.53445 0.89706 0.0
H927 H 0.21565 0.57132 0.86714 0.0
H928 H 0.20951 0.53238 0.7206 0.0
H929 H 0.17464 0.49516 0.74994 0.0
H930 H 0.03569 0.45171 0.82703 0.0
H931 H 0.0714 0.45494 0.87253 0.0
H932 H 0.09779 0.44762 0.72404 0.0
H933 H 0.06196 0.44488 0.678 0.0
H934 H 0.13076 0.48768 0.77844 0.0
H935 H 0.08399 0.40468 0.81785 0.0
H936 H 0.04903 0.36746 0.84662 0.0
H937 H 0.05988 0.40245 1.00063 0.0
H938 H 0.09471 0.44003 0.97263 0.0
C939 C 0.21936 0.49663 0.939 0.0
C940 C 0.21965 0.50273 0.9927 0.0
C941 C 0.19895 0.49009 0.90528 0.0
C942 C 0.17845 0.48947 0.92465 0.0
C943 C 0.17921 0.49691 0.97752 0.0
C944 C 0.19969 0.50368 0.01116 0.0
C945 C 0.15562 0.4794 0.89094 0.0
C946 C 0.135 0.4585 0.90609 0.0
C947 C 0.15422 0.4896 0.84355 0.0
C948 C 0.17522 0.51194 0.82595 0.0
C949 C 0.18691 0.53367 0.85866 0.0
C950 C 0.20669 0.55465 0.84176 0.0
C951 C 0.21485 0.55417 0.79207 0.0
C952 C 0.2032 0.53271 0.75912 0.0
C953 C 0.18342 0.51168 0.77585 0.0
C954 C 0.04864 0.44983 0.8041 0.0
C955 C 0.04605 0.44806 0.74897 0.0
C956 C 0.06911 0.45167 0.83021 0.0
C957 C 0.0874 0.45158 0.80183 0.0
C958 C 0.08393 0.44778 0.74679 0.0
C959 C 0.0633 0.44587 0.72051 0.0
C960 C 0.11116 0.45868 0.82955 0.0
C961 C 0.13205 0.47905 0.81336 0.0
C962 C 0.11286 0.44785 0.87583 0.0
C963 C 0.09191 0.42526 0.89299 0.0
C964 C 0.07883 0.40452 0.85775 0.0
C965 C 0.05904 0.38333 0.87395 0.0
C966 C 0.05222 0.3826 0.92539 0.0
C967 C 0.06519 0.40304 0.96078 0.0
C968 C 0.08499 0.42428 0.94479 0.0
H969 H 0.03689 0.36618 0.93785 0.0
H970 H 0.23016 0.57043 0.77904 0.0
H971 H 0.69339 0.24401 0.93673 0.0
H972 H 0.65939 0.21081 0.88351 0.0
H973 H 0.64074 0.16537 0.01511 0.0
H974 H 0.67442 0.19874 0.06889 0.0
H975 H 0.65998 0.17198 0.85665 0.0
H976 H 0.58272 0.11737 0.9966 0.0
H977 H 0.55901 0.12477 0.06109 0.0
H978 H 0.57816 0.19348 0.99696 0.0
H979 H 0.60189 0.18646 0.93199 0.0
H980 H 0.59549 0.05125 0.74818 0.0
H981 H 0.61673 0.08567 0.8143 0.0
H982 H 0.55978 0.10299 0.79371 0.0
H983 H 0.53859 0.06871 0.72799 0.0
H984 H 0.57581 0.11152 0.89377 0.0
H985 H 0.6108 0.13311 0.72928 0.0
H986 H 0.62896 0.12842 0.64948 0.0
H987 H 0.68845 0.13315 0.74385 0.0
H988 H 0.67046 0.13753 0.82429 0.0
C989 C 0.6816 0.22724 0.95488 0.0
C990 C 0.68688 0.22393 0.00682 0.0
C991 C 0.66216 0.20821 0.92434 0.0
C992 C 0.64762 0.18539 0.94491 0.0
C993 C 0.65151 0.18279 0.99823 0.0
C994 C 0.67089 0.20193 0.02901 0.0
C995 C 0.63149 0.16351 0.90882 0.0
C996 C 0.64152 0.15893 0.86486 0.0
C997 C 0.60725 0.14647 0.91863 0.0
C998 C 0.5944 0.15154 0.95995 0.0
C999 C 0.58201 0.13414 0.99651 0.0
C1000 C 0.56852 0.13824 0.03308 0.0
C1001 C 0.56714 0.15962 0.03324 0.0
C1002 C 0.57937 0.17701 0.99704 0.0
C1003 C 0.59298 0.17304 0.96054 0.0
C1004 C 0.58734 0.06217 0.7584 0.0
C1005 C 0.56525 0.05712 0.73317 0.0
C1006 C 0.59949 0.08185 0.79612 0.0
C1007 C 0.59001 0.09713 0.80856 0.0
C1008 C 0.56743 0.09144 0.78508 0.0
C1009 C 0.55523 0.0717 0.74768 0.0
C1010 C 0.60449 0.12014 0.84248 0.0
C1011 C 0.59427 0.12475 0.88598 0.0
C1012 C 0.62819 0.13787 0.83098 0.0
C1013 C 0.63917 0.1354 0.78278 0.0
C1014 C 0.62767 0.13297 0.733 0.0
C1015 C 0.63794 0.1304 0.68767 0.0
C1016 C 0.65981 0.13042 0.6916 0.0
C1017 C 0.67149 0.1331 0.74088 0.0
C1018 C 0.66128 0.13564 0.78635 0.0
H1019 H 0.66773 0.12842 0.65645 0.0
H1020 H 0.55652 0.16266 0.0613 0.0
H1021 H 0.51953 0.7061 0.92661 0.0
H1022 H 0.51818 0.67626 0.86137 0.0
H1023 H 0.59387 0.7236 0.83893 0.0
H1024 H 0.59548 0.75393 0.90452 0.0
H1025 H 0.55822 0.69258 0.74068 0.0
H1026 H 0.58894 0.68727 0.91422 0.0
H1027 H 0.58795 0.68779 0.01065 0.0
H1028 H 0.51568 0.62598 0.99647 0.0
H1029 H 0.51613 0.62532 0.89988 0.0
H1030 H 0.55838 0.58036 0.64924 0.0
H1031 H 0.56984 0.62214 0.68333 0.0
H1032 H 0.50553 0.5922 0.76974 0.0
H1033 H 0.49465 0.55101 0.73742 0.0
H1034 H 0.54509 0.61956 0.83262 0.0
H1035 H 0.51227 0.62518 0.66239 0.0
H1036 H 0.51066 0.62396 0.56564 0.0
H1037 H 0.58399 0.68363 0.57164 0.0
H1038 H 0.58618 0.68493 0.6685 0.0
C1039 C 0.53585 0.71046 0.9073 0.0
C1040 C 0.55773 0.73223 0.92145 0.0
C1041 C 0.53497 0.69345 0.86966 0.0
C1042 C 0.55593 0.69777 0.84552 0.0
C1043 C 0.57749 0.72009 0.85692 0.0
C1044 C 0.5784 0.73725 0.89473 0.0
C1045 C 0.55576 0.67721 0.81557 0.0
C1046 C 0.55584 0.67674 0.76056 0.0
C1047 C 0.55249 0.65659 0.84174 0.0
C1048 C 0.55254 0.65633 0.89985 0.0
C1049 C 0.57281 0.67385 0.93168 0.0
C1050 C 0.57234 0.67417 0.98636 0.0
C1051 C 0.55175 0.65696 0.00968 0.0
C1052 C 0.53163 0.6393 0.97835 0.0
C1053 C 0.532 0.63891 0.92364 0.0
C1054 C 0.54656 0.58296 0.67458 0.0
C1055 C 0.52582 0.56269 0.69133 0.0
C1056 C 0.55308 0.60671 0.69404 0.0
C1057 C 0.53865 0.6102 0.72958 0.0
C1058 C 0.51709 0.58992 0.74298 0.0
C1059 C 0.51084 0.56642 0.7244 0.0
C1060 C 0.54653 0.6343 0.75724 0.0
C1061 C 0.54801 0.6355 0.81232 0.0
C1062 C 0.55102 0.65533 0.73085 0.0
C1063 C 0.54948 0.65497 0.6727 0.0
C1064 C 0.52811 0.63794 0.64309 0.0
C1065 C 0.52708 0.63724 0.58823 0.0
C1066 C 0.54723 0.65366 0.56252 0.0
C1067 C 0.56841 0.67089 0.59162 0.0
C1068 C 0.56955 0.67162 0.64651 0.0
H1069 H 0.5464 0.65307 0.52007 0.0
H1070 H 0.55139 0.65728 0.05201 0.0
H1071 H 0.54752 0.22267 0.28147 0.0
H1072 H 0.54676 0.19432 0.34482 0.0
H1073 H 0.48114 0.18714 0.40202 0.0
H1074 H 0.48266 0.21663 0.34113 0.0
H1075 H 0.50542 0.17996 0.47935 0.0
H1076 H 0.48056 0.14958 0.29793 0.0
H1077 H 0.48729 0.15129 0.20343 0.0
H1078 H 0.54779 0.14045 0.23223 0.0
H1079 H 0.54179 0.13931 0.32712 0.0
H1080 H 0.46661 0.03895 0.45524 0.0
H1081 H 0.46869 0.0758 0.42275 0.0
H1082 H 0.52157 0.1196 0.54959 0.0
H1083 H 0.51803 0.08239 0.58402 0.0
H1084 H 0.50352 0.1094 0.38257 0.0
H1085 H 0.52919 0.17636 0.5651 0.0
H1086 H 0.52152 0.17511 0.65911 0.0
H1087 H 0.45292 0.10926 0.62616 0.0
H1088 H 0.46006 0.11025 0.53189 0.0
C1089 C 0.53336 0.21568 0.30868 0.0
C1090 C 0.51484 0.2215 0.30527 0.0
C1091 C 0.53286 0.19934 0.34477 0.0
C1092 C 0.51337 0.18782 0.37695 0.0
C1093 C 0.4962 0.19548 0.37726 0.0
C1094 C 0.49704 0.21232 0.34207 0.0
C1095 C 0.5091 0.1657 0.40453 0.0
C1096 C 0.50505 0.16453 0.4583 0.0
C1097 C 0.50807 0.14526 0.37701 0.0
C1098 C 0.51087 0.1446 0.31967 0.0
C1099 C 0.49532 0.1476 0.28411 0.0
C1100 C 0.49907 0.14857 0.23053 0.0
C1101 C 0.51803 0.14609 0.2119 0.0
C1102 C 0.53316 0.14245 0.24676 0.0
C1103 C 0.52962 0.14167 0.30045 0.0
C1104 C 0.47789 0.05638 0.47727 0.0
C1105 C 0.49185 0.05784 0.52252 0.0
C1106 C 0.47934 0.07751 0.45839 0.0
C1107 C 0.49535 0.10073 0.4834 0.0
C1108 C 0.50865 0.10204 0.52996 0.0
C1109 C 0.50662 0.08074 0.54977 0.0
C1110 C 0.49963 0.12336 0.45774 0.0
C1111 C 0.50378 0.12469 0.40401 0.0
C1112 C 0.50019 0.14362 0.48519 0.0
C1113 C 0.49527 0.14329 0.54149 0.0
C1114 C 0.5124 0.16171 0.57787 0.0
C1115 C 0.50817 0.16102 0.63122 0.0
C1116 C 0.48679 0.14208 0.64862 0.0
C1117 C 0.46951 0.12388 0.61265 0.0
C1118 C 0.47365 0.12448 0.55926 0.0
H1119 H 0.4836 0.14153 0.68996 0.0
H1120 H 0.52096 0.14692 0.17043 0.0
H1121 H 0.30913 0.4741 0.19516 0.0
H1122 H 0.34156 0.47535 0.25096 0.0
H1123 H 0.33461 0.52284 0.36606 0.0
H1124 H 0.30259 0.52258 0.3082 0.0
H1125 H 0.38201 0.53276 0.36429 0.0
H1126 H 0.30403 0.46304 0.37883 0.0
H1127 H 0.26484 0.42738 0.34644 0.0
H1128 H 0.30165 0.39339 0.2767 0.0
H1129 H 0.34109 0.42904 0.308 0.0
H1130 H 0.40216 0.44871 0.554 0.0
H1131 H 0.3758 0.45749 0.49896 0.0
H1132 H 0.43565 0.50241 0.40674 0.0
H1133 H 0.46229 0.49426 0.463 0.0
H1134 H 0.36056 0.44824 0.40397 0.0
H1135 H 0.42767 0.54939 0.35692 0.0
H1136 H 0.46391 0.58605 0.3977 0.0
H1137 H 0.44585 0.55812 0.54979 0.0
H1138 H 0.40882 0.52184 0.51043 0.0
C1139 C 0.31509 0.4855 0.23156 0.0
C1140 C 0.30348 0.49825 0.24756 0.0
C1141 C 0.33351 0.48607 0.26357 0.0
C1142 C 0.34008 0.49867 0.31323 0.0
C1143 C 0.32971 0.51291 0.32792 0.0
C1144 C 0.31149 0.51278 0.29502 0.0
C1145 C 0.35561 0.49446 0.3512 0.0
C1146 C 0.37743 0.51434 0.37312 0.0
C1147 C 0.34921 0.47042 0.36386 0.0
C1148 C 0.32552 0.4488 0.34544 0.0
C1149 C 0.30377 0.44803 0.35632 0.0
C1150 C 0.28151 0.42781 0.33817 0.0
C1151 C 0.28076 0.40815 0.30945 0.0
C1152 C 0.30227 0.40864 0.29892 0.0
C1153 C 0.32458 0.42884 0.31689 0.0
C1154 C 0.40971 0.46027 0.5217 0.0
C1155 C 0.43443 0.47089 0.51305 0.0
C1156 C 0.3946 0.46536 0.49031 0.0
C1157 C 0.40376 0.48099 0.44917 0.0
C1158 C 0.42823 0.49082 0.43903 0.0
C1159 C 0.44344 0.48599 0.47098 0.0
C1160 C 0.38747 0.48651 0.41659 0.0
C1161 C 0.36536 0.46677 0.3955 0.0
C1162 C 0.39339 0.51075 0.40623 0.0
C1163 C 0.41559 0.53262 0.43049 0.0
C1164 C 0.43134 0.55107 0.3991 0.0
C1165 C 0.45204 0.57182 0.42198 0.0
C1166 C 0.45736 0.57427 0.47618 0.0
C1167 C 0.4418 0.55612 0.50775 0.0
C1168 C 0.42089 0.53549 0.48518 0.0
H1169 H 0.47345 0.59031 0.49375 0.0
H1170 H 0.26351 0.39252 0.29543 0.0
H1171 H 0.79216 0.34141 0.21487 0.0
H1172 H 0.82454 0.36629 0.28225 0.0
H1173 H 0.81717 0.30094 0.34601 0.0
H1174 H 0.78484 0.27576 0.27821 0.0
H1175 H 0.82894 0.34614 0.42394 0.0
H1176 H 0.85594 0.31896 0.27369 0.0
H1177 H 0.85654 0.31159 0.1784 0.0
H1178 H 0.88499 0.38809 0.15785 0.0
H1179 H 0.88411 0.39583 0.25294 0.0
H1180 H 0.95043 0.42377 0.54737 0.0
H1181 H 0.91387 0.38769 0.50553 0.0
H1182 H 0.91547 0.43005 0.37558 0.0
H1183 H 0.95188 0.46504 0.41516 0.0
H1184 H 0.9065 0.38848 0.33805 0.0
H1185 H 0.87705 0.41626 0.48335 0.0
H1186 H 0.87653 0.42559 0.57761 0.0
H1187 H 0.85236 0.35073 0.60775 0.0
H1188 H 0.85341 0.34108 0.51363 0.0
C1189 C 0.79692 0.33224 0.24396 0.0
C1190 C 0.78608 0.30659 0.2407 0.0
C1191 C 0.81542 0.34651 0.28256 0.0
C1192 C 0.82327 0.33543 0.31897 0.0
C1193 C 0.81126 0.30981 0.31847 0.0
C1194 C 0.7929 0.29549 0.27945 0.0
C1195 C 0.84628 0.35068 0.35139 0.0
C1196 C 0.84601 0.35517 0.40556 0.0
C1197 C 0.86847 0.3624 0.32728 0.0
C1198 C 0.86979 0.35793 0.27036 0.0
C1199 C 0.86219 0.33418 0.2488 0.0
C1200 C 0.86258 0.32994 0.19483 0.0
C1201 C 0.87077 0.34935 0.16208 0.0
C1202 C 0.87865 0.37307 0.18327 0.0
C1203 C 0.87823 0.3774 0.2372 0.0
C1204 C 0.94296 0.42518 0.50975 0.0
C1205 C 0.95424 0.44722 0.48445 0.0
C1206 C 0.92202 0.40462 0.48594 0.0
C1207 C 0.91177 0.40607 0.43723 0.0
C1208 C 0.92305 0.4282 0.41267 0.0
C1209 C 0.94398 0.44834 0.43562 0.0
C1210 C 0.8893 0.38511 0.41066 0.0
C1211 C 0.88962 0.37929 0.35714 0.0
C1212 C 0.86724 0.3725 0.43547 0.0
C1213 C 0.86554 0.37801 0.49156 0.0
C1214 C 0.87168 0.4018 0.51009 0.0
C1215 C 0.8713 0.40715 0.56352 0.0
C1216 C 0.86438 0.38877 0.59872 0.0
C1217 C 0.85774 0.36496 0.58046 0.0
C1218 C 0.85825 0.35954 0.52708 0.0
H1219 H 0.86416 0.39299 0.6401 0.0
H1220 H 0.87105 0.34603 0.12031 0.0
H1221 H 0.58872 0.84244 0.22046 0.0
H1222 H 0.5831 0.86371 0.29565 0.0
H1223 H 0.50659 0.81097 0.28365 0.0
H1224 H 0.51198 0.78999 0.20763 0.0
H1225 H 0.51305 0.85476 0.2941 0.0
H1226 H 0.54552 0.81221 0.38524 0.0
H1227 H 0.57433 0.79806 0.40581 0.0
H1228 H 0.63114 0.87241 0.44173 0.0
H1229 H 0.60275 0.88706 0.42066 0.0
H1230 H 0.49698 0.91707 0.50712 0.0
H1231 H 0.49698 0.88265 0.45969 0.0
H1232 H 0.57502 0.92467 0.46187 0.0
H1233 H 0.57501 0.95807 0.5131 0.0
H1234 H 0.56333 0.88031 0.46239 0.0
H1235 H 0.53062 0.92213 0.35641 0.0
H1236 H 0.501 0.93491 0.332 0.0
H1237 H 0.44349 0.85995 0.32327 0.0
H1238 H 0.47271 0.84676 0.34805 0.0
C1239 C 0.57072 0.83528 0.234 0.0
C1240 C 0.55079 0.81457 0.2079 0.0
C1241 C 0.56755 0.84736 0.2773 0.0
C1242 C 0.54446 0.83876 0.29586 0.0
C1243 C 0.52459 0.81792 0.27017 0.0
C1244 C 0.52771 0.80596 0.22665 0.0
C1245 C 0.54078 0.85244 0.33977 0.0
C1246 C 0.52376 0.85997 0.33129 0.0
C1247 C 0.55489 0.85947 0.38812 0.0
C1248 C 0.57202 0.85074 0.40098 0.0
C1249 C 0.56419 0.82556 0.39715 0.0
C1250 C 0.58045 0.81745 0.40897 0.0
C1251 C 0.60456 0.83433 0.42497 0.0
C1252 C 0.61246 0.85936 0.4293 0.0
C1253 C 0.59629 0.86757 0.41749 0.0
C1254 C 0.51411 0.91848 0.49896 0.0
C1255 C 0.53599 0.94013 0.51353 0.0
C1256 C 0.51412 0.89899 0.47118 0.0
C1257 C 0.53594 0.90137 0.4551 0.0
C1258 C 0.55789 0.92234 0.47323 0.0
C1259 C 0.55792 0.94145 0.50269 0.0
C1260 C 0.53609 0.88329 0.4161 0.0
C1261 C 0.55243 0.87488 0.42545 0.0
C1262 C 0.52129 0.87536 0.36842 0.0
C1263 C 0.50381 0.8835 0.35451 0.0
C1264 C 0.51164 0.90842 0.34959 0.0
C1265 C 0.49493 0.91571 0.33561 0.0
C1266 C 0.47041 0.89823 0.32596 0.0
C1267 C 0.4625 0.87345 0.33063 0.0
C1268 C 0.47911 0.86606 0.34464 0.0
H1269 H 0.45749 0.9038 0.31481 0.0
H1270 H 0.61712 0.82801 0.4341 0.0
H1271 H 0.76777 0.55232 0.24839 0.0
H1272 H 0.74258 0.55793 0.31109 0.0
H1273 H 0.67845 0.49902 0.22805 0.0
H1274 H 0.70328 0.4932 0.16573 0.0
H1275 H 0.67748 0.54257 0.24078 0.0
H1276 H 0.69688 0.49122 0.34559 0.0
H1277 H 0.72482 0.48119 0.39302 0.0
H1278 H 0.75336 0.54769 0.49129 0.0
H1279 H 0.72578 0.55827 0.44393 0.0
H1280 H 0.57689 0.50315 0.38245 0.0
H1281 H 0.6118 0.50851 0.33838 0.0
H1282 H 0.65929 0.56453 0.45688 0.0
H1283 H 0.62388 0.55892 0.50274 0.0
H1284 H 0.67525 0.53229 0.43234 0.0
H1285 H 0.6525 0.58118 0.33714 0.0
H1286 H 0.62501 0.59208 0.2907 0.0
H1287 H 0.60449 0.53296 0.17442 0.0
H1288 H 0.63155 0.52143 0.22059 0.0
C1289 C 0.74834 0.54022 0.24414 0.0
C1290 C 0.73755 0.52241 0.20173 0.0
C1291 C 0.73398 0.54349 0.27998 0.0
C1292 C 0.70863 0.52903 0.27394 0.0
C1293 C 0.69797 0.51051 0.23319 0.0
C1294 C 0.71224 0.50715 0.19768 0.0
C1295 C 0.69288 0.53397 0.30737 0.0
C1296 C 0.67691 0.54022 0.28263 0.0
C1297 C 0.69297 0.53209 0.36237 0.0
C1298 C 0.70949 0.52569 0.39079 0.0
C1299 C 0.70927 0.50382 0.37698 0.0
C1300 C 0.72501 0.498 0.40392 0.0
C1301 C 0.74091 0.51383 0.44503 0.0
C1302 C 0.74106 0.53547 0.45937 0.0
C1303 C 0.72538 0.54138 0.43252 0.0
C1304 C 0.59466 0.51677 0.39944 0.0
C1305 C 0.59745 0.53067 0.44631 0.0
C1306 C 0.6147 0.51987 0.37384 0.0
C1307 C 0.6382 0.53717 0.39378 0.0
C1308 C 0.64128 0.55115 0.44063 0.0
C1309 C 0.62104 0.54802 0.46661 0.0
C1310 C 0.65911 0.53982 0.36523 0.0
C1311 C 0.67612 0.53514 0.39071 0.0
C1312 C 0.66022 0.54342 0.31082 0.0
C1313 C 0.64402 0.55038 0.28253 0.0
C1314 C 0.64202 0.5704 0.30184 0.0
C1315 C 0.62652 0.5767 0.27554 0.0
C1316 C 0.613 0.56321 0.22967 0.0
C1317 C 0.61499 0.5434 0.20995 0.0
C1318 C 0.63044 0.537 0.23614 0.0
H1319 H 0.60101 0.56811 0.20937 0.0
H1320 H 0.75307 0.50929 0.46585 0.0
H1321 H 0.19215 0.7679 0.25754 0.0
H1322 H 0.16894 0.74403 0.32972 0.0
H1323 H 0.17123 0.68116 0.26561 0.0
H1324 H 0.19429 0.70464 0.19444 0.0
H1325 H 0.12554 0.66963 0.29213 0.0
H1326 H 0.20818 0.71458 0.36816 0.0
H1327 H 0.24686 0.75199 0.39572 0.0
H1328 H 0.21008 0.77623 0.49753 0.0
H1329 H 0.1711 0.7391 0.46993 0.0
H1330 H 0.09728 0.58507 0.47503 0.0
H1331 H 0.12549 0.61955 0.42733 0.0
H1332 H 0.10487 0.66655 0.50877 0.0
H1333 H 0.07643 0.63203 0.55714 0.0
H1334 H 0.15719 0.69006 0.47887 0.0
H1335 H 0.07471 0.64557 0.40378 0.0
H1336 H 0.03601 0.60783 0.37788 0.0
H1337 H 0.07246 0.58321 0.27595 0.0
H1338 H 0.11138 0.62081 0.30139 0.0
C1339 C 0.18758 0.74896 0.25884 0.0
C1340 C 0.19511 0.7382 0.22024 0.0
C1341 C 0.17445 0.73539 0.3002 0.0
C1342 C 0.16843 0.71081 0.30319 0.0
C1343 C 0.17562 0.70005 0.26418 0.0
C1344 C 0.1889 0.71359 0.2235 0.0
C1345 C 0.15454 0.69585 0.34635 0.0
C1346 C 0.13253 0.67418 0.33289 0.0
C1347 C 0.16328 0.70196 0.39984 0.0
C1348 C 0.18669 0.72424 0.41644 0.0
C1349 C 0.2083 0.72801 0.39602 0.0
C1350 C 0.23029 0.74913 0.41173 0.0
C1351 C 0.23091 0.76652 0.4482 0.0
C1352 C 0.20956 0.76277 0.46917 0.0
C1353 C 0.18752 0.74169 0.45352 0.0
C1354 C 0.09927 0.60289 0.48431 0.0
C1355 C 0.08417 0.6056 0.51919 0.0
C1356 C 0.11541 0.6226 0.45684 0.0
C1357 C 0.11684 0.64543 0.46363 0.0
C1358 C 0.10392 0.64902 0.50275 0.0
C1359 C 0.0877 0.62923 0.53046 0.0
C1360 C 0.12863 0.66377 0.42412 0.0
C1361 C 0.1501 0.68589 0.4382 0.0
C1362 C 0.11937 0.65827 0.37107 0.0
C1363 C 0.09595 0.63591 0.35468 0.0
C1364 C 0.07447 0.63205 0.37599 0.0
C1365 C 0.05249 0.61071 0.36136 0.0
C1366 C 0.05178 0.59312 0.32536 0.0
C1367 C 0.07303 0.59688 0.30377 0.0
C1368 C 0.09503 0.61823 0.31814 0.0
H1369 H 0.03478 0.57659 0.31412 0.0
H1370 H 0.24795 0.78286 0.46034 0.0
loop_
_geom_bond_atom_site_label_1
_geom_bond_atom_site_label_2
_geom_bond_distance
_geom_bond_site_symmetry_2
_ccdc_geom_bond_type
Mg0 O7 2.141 . S
Mg0 O8 2.048 . S
Mg0 O9 2.048 . S
Mg0 O12 2.141 . S
C1 O2 1.313 . S
C1 O8 1.195 . S
O2 C1 1.313 . S
C3 O4 1.245 . S
C3 O12 1.289 . S
O4 C3 1.245 . S
C5 O6 1.245 . S
C5 O7 1.289 . S
O6 C5 1.245 . S
O7 Mg0 2.141 . S
O7 C5 1.289 . S
O8 Mg0 2.048 . S
O8 C1 1.195 . S
O9 Mg0 2.048 . S
O9 C10 1.195 . S
C10 O9 1.195 . S
C10 O11 1.313 . S
O11 C10 1.313 . S
O12 Mg0 2.141 . S
O12 C3 1.289 . S
Mg13 O20 2.141 . S
Mg13 O21 2.048 . S
Mg13 O22 2.048 . S
Mg13 O25 2.141 . S
C14 O15 1.313 . S
C14 O21 1.195 . S
O15 C14 1.313 . S
C16 O17 1.245 . S
C16 O25 1.289 . S
O17 C16 1.245 . S
C18 O19 1.245 . S
C18 O20 1.289 . S
O19 C18 1.245 . S
O20 Mg13 2.141 . S
O20 C18 1.289 . S
O21 Mg13 2.048 . S
O21 C14 1.195 . S
O22 Mg13 2.048 . S
O22 C23 1.195 . S
C23 O22 1.195 . S
C23 O24 1.313 . S
O24 C23 1.313 . S
O25 Mg13 2.141 . S
O25 C16 1.289 . S
Mg26 O33 2.141 1_554 S
Mg26 O34 2.048 . S
Mg26 O35 2.048 . S
Mg26 O38 2.141 1_554 S
C27 O28 1.313 . S
C27 O34 1.195 . S
O28 C27 1.313 . S
C29 O30 1.245 . S
C29 O38 1.289 . S
O30 C29 1.245 . S
C31 O32 1.245 . S
C31 O33 1.289 . S
O32 C31 1.245 . S
O33 Mg26 2.141 1_556 S
O33 C31 1.289 . S
O34 Mg26 2.048 . S
O34 C27 1.195 . S
O35 Mg26 2.048 . S
O35 C36 1.195 . S
C36 O35 1.195 . S
C36 O37 1.313 . S
O37 C36 1.313 . S
O38 Mg26 2.141 1_556 S
O38 C29 1.289 . S
Mg39 O46 2.141 . S
Mg39 O47 2.048 1_554 S
Mg39 O48 2.048 1_554 S
Mg39 O51 2.141 . S
C40 O41 1.313 . S
C40 O47 1.195 . S
O41 C40 1.313 . S
C42 O43 1.245 . S
C42 O51 1.289 . S
O43 C42 1.245 . S
C44 O45 1.245 . S
C44 O46 1.289 . S
O45 C44 1.245 . S
O46 Mg39 2.141 . S
O46 C44 1.289 . S
O47 Mg39 2.048 1_556 S
O47 C40 1.195 . S
O48 Mg39 2.048 1_556 S
O48 C49 1.195 . S
C49 O48 1.195 . S
C49 O50 1.313 . S
O50 C49 1.313 . S
O51 Mg39 2.141 . S
O51 C42 1.289 . S
Mg52 O59 2.141 . S
Mg52 O60 2.048 . S
Mg52 O61 2.048 . S
Mg52 O64 2.141 . S
C53 O54 1.313 . S
C53 O60 1.195 . S
O54 C53 1.313 . S
C55 O56 1.245 . S
C55 O64 1.289 . S
O56 C55 1.245 . S
C57 O58 1.245 . S
C57 O59 1.289 . S
O58 C57 1.245 . S
O59 Mg52 2.141 . S
O59 C57 1.289 . S
O60 Mg52 2.048 . S
O60 C53 1.195 . S
O61 Mg52 2.048 . S
O61 C62 1.195 . S
C62 O61 1.195 . S
C62 O63 1.313 . S
O63 C62 1.313 . S
O64 Mg52 2.141 . S
O64 C55 1.289 . S
Mg65 O72 2.141 . S
Mg65 O73 2.048 . S
Mg65 O74 2.048 . S
Mg65 O77 2.141 . S
C66 O67 1.313 . S
C66 O73 1.195 . S
O67 C66 1.313 . S
C68 O69 1.245 . S
C68 O77 1.289 . S
O69 C68 1.245 . S
C70 O71 1.245 . S
C70 O72 1.289 . S
O71 C70 1.245 . S
O72 Mg65 2.141 . S
O72 C70 1.289 . S
O73 Mg65 2.048 . S
O73 C66 1.195 . S
O74 Mg65 2.048 . S
O74 C75 1.195 . S
C75 O74 1.195 . S
C75 O76 1.313 . S
O76 C75 1.313 . S
O77 Mg65 2.141 . S
O77 C68 1.289 . S
C78 O105 1.312 . S
C78 O106 1.208 . S
C79 O100 1.331 . S
C79 O103 1.244 . S
C80 O102 1.264 . S
C80 O104 1.273 . S
Mg81 O83 1.936 1_455 S
Mg81 O90 2.081 1_455 S
Mg81 O92 2.023 . S
Mg81 O96 2.031 1_455 S
Mg81 O105 2.291 . S
Mg82 O83 1.947 . S
Mg82 O93 1.962 . S
Mg82 O94 1.928 1_655 S
Mg82 O101 2.003 . S
O83 Mg81 1.936 1_655 S
O83 Mg82 1.947 . S
O83 Mg84 1.915 1_655 S
Mg84 O83 1.915 1_455 S
Mg84 O85 1.915 . S
Mg84 O89 2.013 . S
Mg84 O95 2.114 1_455 S
Mg84 O99 2.013 1_455 S
Mg84 O105 2.114 . S
O85 Mg84 1.915 . S
O85 Mg86 1.936 . S
O85 Mg87 1.963 . S
Mg86 O85 1.936 . S
Mg86 O95 2.291 1_455 S
Mg86 O100 2.081 . S
Mg86 O102 2.023 1_455 S
Mg86 O106 2.031 . S
Mg87 O85 1.963 . S
Mg87 O91 1.986 . S
Mg87 O103 1.942 . S
Mg87 O104 1.955 1_455 S
C88 O99 1.191 . S
C88 O101 1.307 . S
O89 Mg84 2.013 . S
O89 C108 1.191 . S
O90 Mg81 2.081 1_655 S
O90 C98 1.331 . S
O91 Mg87 1.986 . S
O91 C108 1.307 . S
O92 Mg81 2.023 . S
O92 C107 1.264 . S
O93 Mg82 1.962 . S
O93 C98 1.244 . S
O94 Mg82 1.928 1_455 S
O94 C107 1.273 . S
O95 Mg84 2.114 1_655 S
O95 Mg86 2.291 1_655 S
O95 C97 1.312 . S
O96 Mg81 2.031 1_655 S
O96 C97 1.208 . S
C97 O95 1.312 . S
C97 O96 1.208 . S
C98 O90 1.331 . S
C98 O93 1.244 . S
O99 Mg84 2.013 1_655 S
O99 C88 1.191 . S
O100 C79 1.331 . S
O100 Mg86 2.081 . S
O101 Mg82 2.003 . S
O101 C88 1.307 . S
O102 C80 1.264 . S
O102 Mg86 2.023 1_655 S
O103 C79 1.244 . S
O103 Mg87 1.942 . S
O104 C80 1.273 . S
O104 Mg87 1.955 1_655 S
O105 C78 1.312 . S
O105 Mg81 2.291 . S
O105 Mg84 2.114 . S
O106 C78 1.208 . S
O106 Mg86 2.031 . S
C107 O92 1.264 . S
C107 O94 1.273 . S
C108 O89 1.191 . S
C108 O91 1.307 . S
C109 O136 1.312 . S
C109 O137 1.208 . S
C110 O131 1.331 . S
C110 O134 1.244 . S
C111 O133 1.264 . S
C111 O135 1.273 . S
Mg112 O114 1.936 1_545 S
Mg112 O121 2.081 1_545 S
Mg112 O123 2.023 . S
Mg112 O127 2.031 1_545 S
Mg112 O136 2.291 . S
Mg113 O114 1.963 . S
Mg113 O124 1.942 . S
Mg113 O125 1.955 1_565 S
Mg113 O132 1.986 . S
O114 Mg112 1.936 1_565 S
O114 Mg113 1.963 . S
O114 Mg115 1.915 1_565 S
Mg115 O114 1.915 1_545 S
Mg115 O116 1.915 . S
Mg115 O120 2.013 . S
Mg115 O126 2.114 1_545 S
Mg115 O130 2.013 1_545 S
Mg115 O136 2.114 . S
O116 Mg115 1.915 . S
O116 Mg117 1.936 . S
O116 Mg118 1.963 . S
Mg117 O116 1.936 . S
Mg117 O126 2.291 1_545 S
Mg117 O131 2.081 . S
Mg117 O133 2.023 1_545 S
Mg117 O137 2.031 . S
Mg118 O116 1.963 . S
Mg118 O122 1.986 . S
Mg118 O134 1.942 . S
Mg118 O135 1.955 1_545 S
C119 O130 1.191 . S
C119 O132 1.307 . S
O120 Mg115 2.013 . S
O120 C139 1.191 . S
O121 Mg112 2.081 1_565 S
O121 C129 1.331 . S
O122 Mg118 1.986 . S
O122 C139 1.307 . S
O123 Mg112 2.023 . S
O123 C138 1.264 . S
O124 Mg113 1.942 . S
O124 C129 1.244 . S
O125 Mg113 1.955 1_545 S
O125 C138 1.273 . S
O126 Mg115 2.114 1_565 S
O126 Mg117 2.291 1_565 S
O126 C128 1.312 . S
O127 Mg112 2.031 1_565 S
O127 C128 1.208 . S
C128 O126 1.312 . S
C128 O127 1.208 . S
C129 O121 1.331 . S
C129 O124 1.244 . S
O130 Mg115 2.013 1_565 S
O130 C119 1.191 . S
O131 C110 1.331 . S
O131 Mg117 2.081 . S
O132 Mg113 1.986 . S
O132 C119 1.307 . S
O133 C111 1.264 . S
O133 Mg117 2.023 1_565 S
O134 C110 1.244 . S
O134 Mg118 1.942 . S
O135 C111 1.273 . S
O135 Mg118 1.955 1_565 S
O136 C109 1.312 . S
O136 Mg112 2.291 . S
O136 Mg115 2.114 . S
O137 C109 1.208 . S
O137 Mg117 2.031 . S
C138 O123 1.264 . S
C138 O125 1.273 . S
C139 O120 1.191 . S
C139 O122 1.307 . S
C140 O167 1.312 . S
C140 O168 1.208 . S
C141 O162 1.331 . S
C141 O165 1.244 . S
C142 O164 1.264 . S
C142 O166 1.273 . S
Mg143 O145 1.936 . S
Mg143 O152 2.081 . S
Mg143 O154 2.023 . S
Mg143 O158 2.031 . S
Mg143 O167 2.291 . S
Mg144 O145 1.963 . S
Mg144 O155 1.942 . S
Mg144 O156 1.955 . S
Mg144 O163 1.986 . S
O145 Mg143 1.936 . S
O145 Mg144 1.963 . S
O145 Mg146 1.915 . S
Mg146 O145 1.915 . S
Mg146 O147 1.915 . S
Mg146 O151 2.013 . S
Mg146 O157 2.114 . S
Mg146 O161 2.013 . S
Mg146 O167 2.114 . S
O147 Mg146 1.915 . S
O147 Mg148 1.936 . S
O147 Mg149 1.963 . S
Mg148 O147 1.936 . S
Mg148 O157 2.291 . S
Mg148 O162 2.081 . S
Mg148 O164 2.023 . S
Mg148 O168 2.031 . S
Mg149 O147 1.963 . S
Mg149 O153 1.986 . S
Mg149 O165 1.942 . S
Mg149 O166 1.955 . S
C150 O161 1.191 . S
C150 O163 1.307 . S
O151 Mg146 2.013 . S
O151 C170 1.191 . S
O152 Mg143 2.081 . S
O152 C160 1.331 . S
O153 Mg149 1.986 . S
O153 C170 1.307 . S
O154 Mg143 2.023 . S
O154 C169 1.264 . S
O155 Mg144 1.942 . S
O155 C160 1.244 . S
O156 Mg144 1.955 . S
O156 C169 1.273 . S
O157 Mg146 2.114 . S
O157 Mg148 2.291 . S
O157 C159 1.312 . S
O158 Mg143 2.031 . S
O158 C159 1.208 . S
C159 O157 1.312 . S
C159 O158 1.208 . S
C160 O152 1.331 . S
C160 O155 1.244 . S
O161 Mg146 2.013 . S
O161 C150 1.191 . S
O162 C141 1.331 . S
O162 Mg148 2.081 . S
O163 Mg144 1.986 . S
O163 C150 1.307 . S
O164 C142 1.264 . S
O164 Mg148 2.023 . S
O165 C141 1.244 . S
O165 Mg149 1.942 . S
O166 C142 1.273 . S
O166 Mg149 1.955 . S
O167 C140 1.312 . S
O167 Mg143 2.291 . S
O167 Mg146 2.114 . S
O168 C140 1.208 . S
O168 Mg148 2.031 . S
C169 O154 1.264 . S
C169 O156 1.273 . S
C170 O151 1.191 . S
C170 O153 1.307 . S
H171 C189 0.951 . S
H172 C191 0.951 . S
H173 C193 0.950 . S
H174 C194 0.950 . S
H175 C196 0.950 . S
H176 C199 0.950 . S
H177 C200 0.950 . S
H178 C202 0.950 . S
H179 C203 0.950 . S
H180 C204 0.951 . S
H181 C206 0.951 . S
H182 C208 0.950 . S
H183 C209 0.950 . S
H184 C211 0.950 . S
H185 C214 0.950 . S
H186 C215 0.950 . S
H187 C217 0.950 . S
H188 C218 0.950 . S
C189 H171 0.951 . S
C189 C190 1.366 . S
C189 C191 1.388 . S
C190 C189 1.366 . S
C190 C194 1.385 . S
C191 H172 0.951 . S
C191 C189 1.388 . S
C191 C192 1.366 . S
C192 C191 1.366 . S
C192 C193 1.414 . S
C192 C195 1.499 . S
C193 H173 0.950 . S
C193 C192 1.414 . S
C193 C194 1.374 . S
C194 H174 0.950 . S
C194 C190 1.385 . S
C194 C193 1.374 . S
C195 C192 1.499 . S
C195 C196 1.373 . S
C195 C197 1.389 . S
C196 H175 0.950 . S
C196 C195 1.373 . S
C196 C212 1.377 . S
C197 C195 1.389 . S
C197 C198 1.524 . S
C197 C211 1.377 . S
C198 C197 1.524 . S
C198 C199 1.397 . S
C198 C203 1.363 . S
C199 H176 0.950 . S
C199 C198 1.397 . S
C199 C200 1.334 . S
C200 H177 0.950 . S
C200 C199 1.334 . S
C200 C201 1.287 . S
C201 C200 1.287 . S
C201 C202 1.524 . S
C201 H220 0.913 . S
C202 H178 0.950 . S
C202 C201 1.524 . S
C202 C203 1.415 . S
C203 H179 0.950 . S
C203 C198 1.363 . S
C203 C202 1.415 . S
C204 H180 0.951 . S
C204 C205 1.366 . S
C204 C206 1.388 . S
C205 C204 1.366 . S
C205 C209 1.385 . S
C206 H181 0.951 . S
C206 C204 1.388 . S
C206 C207 1.366 . S
C207 C206 1.366 . S
C207 C208 1.414 . S
C207 C210 1.499 . S
C208 H182 0.950 . S
C208 C207 1.414 . S
C208 C209 1.374 . S
C209 H183 0.950 . S
C209 C205 1.385 . S
C209 C208 1.374 . S
C210 C207 1.499 . S
C210 C211 1.373 . S
C210 C212 1.389 . S
C211 H184 0.950 . S
C211 C197 1.377 . S
C211 C210 1.373 . S
C212 C196 1.377 . S
C212 C210 1.389 . S
C212 C213 1.524 . S
C213 C212 1.524 . S
C213 C214 1.397 . S
C213 C218 1.363 . S
C214 H185 0.950 . S
C214 C213 1.397 . S
C214 C215 1.334 . S
C215 H186 0.950 . S
C215 C214 1.334 . S
C215 C216 1.287 . S
C216 C215 1.287 . S
C216 C217 1.524 . S
C216 H219 0.999 . S
C217 H187 0.950 . S
C217 C216 1.524 . S
C217 C218 1.415 . S
C218 H188 0.950 . S
C218 C213 1.363 . S
C218 C217 1.415 . S
H219 C216 0.999 . S
H220 C201 0.913 . S
H221 C239 0.951 . S
H222 C241 0.951 . S
H223 C243 0.950 . S
H224 C244 0.950 . S
H225 C246 0.950 . S
H226 C249 0.950 . S
H227 C250 0.950 . S
H228 C252 0.950 . S
H229 C253 0.950 . S
H230 C254 0.951 . S
H231 C256 0.951 . S
H232 C258 0.950 . S
H233 C259 0.950 . S
H234 C261 0.950 . S
H235 C264 0.950 . S
H236 C265 0.950 . S
H237 C267 0.950 . S
H238 C268 0.950 . S
C239 H221 0.951 . S
C239 C240 1.366 . S
C239 C241 1.388 . S
C240 C239 1.366 . S
C240 C244 1.385 . S
C241 H222 0.951 . S
C241 C239 1.388 . S
C241 C242 1.366 . S
C242 C241 1.366 . S
C242 C243 1.414 . S
C242 C245 1.499 . S
C243 H223 0.950 . S
C243 C242 1.414 . S
C243 C244 1.374 . S
C244 H224 0.950 . S
C244 C240 1.385 . S
C244 C243 1.374 . S
C245 C242 1.499 . S
C245 C246 1.373 . S
C245 C247 1.389 . S
C246 H225 0.950 . S
C246 C245 1.373 . S
C246 C262 1.377 . S
C247 C245 1.389 . S
C247 C248 1.524 . S
C247 C261 1.377 . S
C248 C247 1.524 . S
C248 C249 1.397 . S
C248 C253 1.363 . S
C249 H226 0.950 . S
C249 C248 1.397 . S
C249 C250 1.334 . S
C250 H227 0.950 . S
C250 C249 1.334 . S
C250 C251 1.287 . S
C251 C250 1.287 . S
C251 C252 1.524 . S
C251 H270 0.913 . S
C252 H228 0.950 . S
C252 C251 1.524 . S
C252 C253 1.415 . S
C253 H229 0.950 . S
C253 C248 1.363 . S
C253 C252 1.415 . S
C254 H230 0.951 . S
C254 C255 1.366 . S
C254 C256 1.388 . S
C255 C254 1.366 . S
C255 C259 1.385 . S
C256 H231 0.951 . S
C256 C254 1.388 . S
C256 C257 1.366 . S
C257 C256 1.366 . S
C257 C258 1.414 . S
C257 C260 1.499 . S
C258 H232 0.950 . S
C258 C257 1.414 . S
C258 C259 1.374 . S
C259 H233 0.950 . S
C259 C255 1.385 . S
C259 C258 1.374 . S
C260 C257 1.499 . S
C260 C261 1.373 . S
C260 C262 1.389 . S
C261 H234 0.950 . S
C261 C247 1.377 . S
C261 C260 1.373 . S
C262 C246 1.377 . S
C262 C260 1.389 . S
C262 C263 1.524 . S
C263 C262 1.524 . S
C263 C264 1.397 . S
C263 C268 1.363 . S
C264 H235 0.950 . S
C264 C263 1.397 . S
C264 C265 1.334 . S
C265 H236 0.950 . S
C265 C264 1.334 . S
C265 C266 1.287 . S
C266 C265 1.287 . S
C266 C267 1.524 . S
C266 H269 0.999 . S
C267 H237 0.950 . S
C267 C266 1.524 . S
C267 C268 1.415 . S
C268 H238 0.950 . S
C268 C263 1.363 . S
C268 C267 1.415 . S
H269 C266 0.999 . S
H270 C251 0.913 . S
H271 C289 0.951 . S
H272 C291 0.951 . S
H273 C293 0.950 . S
H274 C294 0.950 . S
H275 C296 0.950 . S
H276 C299 0.950 . S
H277 C300 0.950 . S
H278 C302 0.950 . S
H279 C303 0.950 . S
H280 C304 0.951 . S
H281 C306 0.951 . S
H282 C308 0.950 . S
H283 C309 0.950 . S
H284 C311 0.950 . S
H285 C314 0.950 . S
H286 C315 0.950 . S
H287 C317 0.950 . S
H288 C318 0.950 . S
C289 H271 0.951 . S
C289 C290 1.366 . S
C289 C291 1.388 . S
C290 C289 1.366 . S
C290 C294 1.385 . S
C291 H272 0.951 . S
C291 C289 1.388 . S
C291 C292 1.366 . S
C292 C291 1.366 . S
C292 C293 1.414 . S
C292 C295 1.499 . S
C293 H273 0.950 . S
C293 C292 1.414 . S
C293 C294 1.374 . S
C294 H274 0.950 . S
C294 C290 1.385 . S
C294 C293 1.374 . S
C295 C292 1.499 . S
C295 C296 1.373 . S
C295 C297 1.389 . S
C296 H275 0.950 . S
C296 C295 1.373 . S
C296 C312 1.377 . S
C297 C295 1.389 . S
C297 C298 1.524 . S
C297 C311 1.377 . S
C298 C297 1.524 . S
C298 C299 1.397 . S
C298 C303 1.363 . S
C299 H276 0.950 . S
C299 C298 1.397 . S
C299 C300 1.334 . S
C300 H277 0.950 . S
C300 C299 1.334 . S
C300 C301 1.287 . S
C301 C300 1.287 . S
C301 C302 1.524 . S
C301 H320 0.913 . S
C302 H278 0.950 . S
C302 C301 1.524 . S
C302 C303 1.415 . S
C303 H279 0.950 . S
C303 C298 1.363 . S
C303 C302 1.415 . S
C304 H280 0.951 . S
C304 C305 1.366 . S
C304 C306 1.388 . S
C305 C304 1.366 . S
C305 C309 1.385 . S
C306 H281 0.951 . S
C306 C304 1.388 . S
C306 C307 1.366 . S
C307 C306 1.366 . S
C307 C308 1.414 . S
C307 C310 1.499 . S
C308 H282 0.950 . S
C308 C307 1.414 . S
C308 C309 1.374 . S
C309 H283 0.950 . S
C309 C305 1.385 . S
C309 C308 1.374 . S
C310 C307 1.499 . S
C310 C311 1.373 . S
C310 C312 1.389 . S
C311 H284 0.950 . S
C311 C297 1.377 . S
C311 C310 1.373 . S
C312 C296 1.377 . S
C312 C310 1.389 . S
C312 C313 1.524 . S
C313 C312 1.524 . S
C313 C314 1.397 . S
C313 C318 1.363 . S
C314 H285 0.950 . S
C314 C313 1.397 . S
C314 C315 1.334 . S
C315 H286 0.950 . S
C315 C314 1.334 . S
C315 C316 1.287 . S
C316 C315 1.287 . S
C316 C317 1.524 . S
C316 H319 0.999 . S
C317 H287 0.950 . S
C317 C316 1.524 . S
C317 C318 1.415 . S
C318 H288 0.950 . S
C318 C313 1.363 . S
C318 C317 1.415 . S
H319 C316 0.999 . S
H320 C301 0.913 . S
H321 C339 0.951 . S
H322 C341 0.951 . S
H323 C343 0.950 . S
H324 C344 0.950 . S
H325 C346 0.950 . S
H326 C349 0.950 . S
H327 C350 0.950 . S
H328 C352 0.950 . S
H329 C353 0.950 . S
H330 C354 0.951 . S
H331 C356 0.951 . S
H332 C358 0.950 . S
H333 C359 0.950 . S
H334 C361 0.950 . S
H335 C364 0.950 . S
H336 C365 0.950 . S
H337 C367 0.950 . S
H338 C368 0.950 . S
C339 H321 0.951 . S
C339 C340 1.366 . S
C339 C341 1.388 . S
C340 C339 1.366 . S
C340 C344 1.385 . S
C341 H322 0.951 . S
C341 C339 1.388 . S
C341 C342 1.366 . S
C342 C341 1.366 . S
C342 C343 1.414 . S
C342 C345 1.499 . S
C343 H323 0.950 . S
C343 C342 1.414 . S
C343 C344 1.374 . S
C344 H324 0.950 . S
C344 C340 1.385 . S
C344 C343 1.374 . S
C345 C342 1.499 . S
C345 C346 1.373 . S
C345 C347 1.389 . S
C346 H325 0.950 . S
C346 C345 1.373 . S
C346 C362 1.377 . S
C347 C345 1.389 . S
C347 C348 1.524 . S
C347 C361 1.377 . S
C348 C347 1.524 . S
C348 C349 1.397 . S
C348 C353 1.363 . S
C349 H326 0.950 . S
C349 C348 1.397 . S
C349 C350 1.334 . S
C350 H327 0.950 . S
C350 C349 1.334 . S
C350 C351 1.287 . S
C351 C350 1.287 . S
C351 C352 1.524 . S
C351 H370 0.913 . S
C352 H328 0.950 . S
C352 C351 1.524 . S
C352 C353 1.415 . S
C353 H329 0.950 . S
C353 C348 1.363 . S
C353 C352 1.415 . S
C354 H330 0.951 . S
C354 C355 1.366 . S
C354 C356 1.388 . S
C355 C354 1.366 . S
C355 C359 1.385 . S
C356 H331 0.951 . S
C356 C354 1.388 . S
C356 C357 1.366 . S
C357 C356 1.366 . S
C357 C358 1.414 . S
C357 C360 1.499 . S
C358 H332 0.950 . S
C358 C357 1.414 . S
C358 C359 1.374 . S
C359 H333 0.950 . S
C359 C355 1.385 . S
C359 C358 1.374 . S
C360 C357 1.499 . S
C360 C361 1.373 . S
C360 C362 1.389 . S
C361 H334 0.950 . S
C361 C347 1.377 . S
C361 C360 1.373 . S
C362 C346 1.377 . S
C362 C360 1.389 . S
C362 C363 1.524 . S
C363 C362 1.524 . S
C363 C364 1.397 . S
C363 C368 1.363 . S
C364 H335 0.950 . S
C364 C363 1.397 . S
C364 C365 1.334 . S
C365 H336 0.950 . S
C365 C364 1.334 . S
C365 C366 1.287 . S
C366 C365 1.287 . S
C366 C367 1.524 . S
C366 H369 0.999 . S
C367 H337 0.950 . S
C367 C366 1.524 . S
C367 C368 1.415 . S
C368 H338 0.950 . S
C368 C363 1.363 . S
C368 C367 1.415 . S
H369 C366 0.999 . S
H370 C351 0.913 . S
H371 C389 0.951 . S
H372 C391 0.951 . S
H373 C393 0.950 . S
H374 C394 0.950 . S
H375 C396 0.950 . S
H376 C399 0.950 . S
H377 C400 0.950 . S
H378 C402 0.950 . S
H379 C403 0.950 . S
H380 C404 0.951 . S
H381 C406 0.951 . S
H382 C408 0.950 . S
H383 C409 0.950 . S
H384 C411 0.950 . S
H385 C414 0.950 . S
H386 C415 0.950 . S
H387 C417 0.950 . S
H388 C418 0.950 . S
C389 H371 0.951 . S
C389 C390 1.366 . S
C389 C391 1.388 . S
C390 C389 1.366 . S
C390 C394 1.385 . S
C391 H372 0.951 . S
C391 C389 1.388 . S
C391 C392 1.366 . S
C392 C391 1.366 . S
C392 C393 1.414 . S
C392 C395 1.499 . S
C393 H373 0.950 . S
C393 C392 1.414 . S
C393 C394 1.374 . S
C394 H374 0.950 . S
C394 C390 1.385 . S
C394 C393 1.374 . S
C395 C392 1.499 . S
C395 C396 1.373 . S
C395 C397 1.389 . S
C396 H375 0.950 . S
C396 C395 1.373 . S
C396 C412 1.377 . S
C397 C395 1.389 . S
C397 C398 1.524 . S
C397 C411 1.377 . S
C398 C397 1.524 . S
C398 C399 1.397 . S
C398 C403 1.363 . S
C399 H376 0.950 . S
C399 C398 1.397 . S
C399 C400 1.334 . S
C400 H377 0.950 . S
C400 C399 1.334 . S
C400 C401 1.287 . S
C401 C400 1.287 . S
C401 C402 1.524 . S
C401 H420 0.913 . S
C402 H378 0.950 . S
C402 C401 1.524 . S
C402 C403 1.415 . S
C403 H379 0.950 . S
C403 C398 1.363 . S
C403 C402 1.415 . S
C404 H380 0.951 . S
C404 C405 1.366 . S
C404 C406 1.388 . S
C405 C404 1.366 . S
C405 C409 1.385 . S
C406 H381 0.951 . S
C406 C404 1.388 . S
C406 C407 1.366 . S
C407 C406 1.366 . S
C407 C408 1.414 . S
C407 C410 1.499 . S
C408 H382 0.950 . S
C408 C407 1.414 . S
C408 C409 1.374 . S
C409 H383 0.950 . S
C409 C405 1.385 . S
C409 C408 1.374 . S
C410 C407 1.499 . S
C410 C411 1.373 . S
C410 C412 1.389 . S
C411 H384 0.950 . S
C411 C397 1.377 . S
C411 C410 1.373 . S
C412 C396 1.377 . S
C412 C410 1.389 . S
C412 C413 1.524 . S
C413 C412 1.524 . S
C413 C414 1.397 . S
C413 C418 1.363 . S
C414 H385 0.950 . S
C414 C413 1.397 . S
C414 C415 1.334 . S
C415 H386 0.950 . S
C415 C414 1.334 . S
C415 C416 1.287 . S
C416 C415 1.287 . S
C416 C417 1.524 . S
C416 H419 0.999 . S
C417 H387 0.950 . S
C417 C416 1.524 . S
C417 C418 1.415 . S
C418 H388 0.950 . S
C418 C413 1.363 . S
C418 C417 1.415 . S
H419 C416 0.999 . S
H420 C401 0.913 . S
H421 C439 0.951 . S
H422 C441 0.951 . S
H423 C443 0.950 . S
H424 C444 0.950 . S
H425 C446 0.950 . S
H426 C449 0.950 . S
H427 C450 0.950 . S
H428 C452 0.950 . S
H429 C453 0.950 . S
H430 C454 0.951 . S
H431 C456 0.951 . S
H432 C458 0.950 . S
H433 C459 0.950 . S
H434 C461 0.950 . S
H435 C464 0.950 . S
H436 C465 0.950 . S
H437 C467 0.950 . S
H438 C468 0.950 . S
C439 H421 0.951 . S
C439 C440 1.366 . S
C439 C441 1.388 . S
C440 C439 1.366 . S
C440 C444 1.385 . S
C441 H422 0.951 . S
C441 C439 1.388 . S
C441 C442 1.366 . S
C442 C441 1.366 . S
C442 C443 1.414 . S
C442 C445 1.499 . S
C443 H423 0.950 . S
C443 C442 1.414 . S
C443 C444 1.374 . S
C444 H424 0.950 . S
C444 C440 1.385 . S
C444 C443 1.374 . S
C445 C442 1.499 . S
C445 C446 1.373 . S
C445 C447 1.389 . S
C446 H425 0.950 . S
C446 C445 1.373 . S
C446 C462 1.377 . S
C447 C445 1.389 . S
C447 C448 1.524 . S
C447 C461 1.377 . S
C448 C447 1.524 . S
C448 C449 1.397 . S
C448 C453 1.363 . S
C449 H426 0.950 . S
C449 C448 1.397 . S
C449 C450 1.334 . S
C450 H427 0.950 . S
C450 C449 1.334 . S
C450 C451 1.287 . S
C451 C450 1.287 . S
C451 C452 1.524 . S
C451 H470 0.913 . S
C452 H428 0.950 . S
C452 C451 1.524 . S
C452 C453 1.415 . S
C453 H429 0.950 . S
C453 C448 1.363 . S
C453 C452 1.415 . S
C454 H430 0.951 . S
C454 C455 1.366 . S
C454 C456 1.388 . S
C455 C454 1.366 . S
C455 C459 1.385 . S
C456 H431 0.951 . S
C456 C454 1.388 . S
C456 C457 1.366 . S
C457 C456 1.366 . S
C457 C458 1.414 . S
C457 C460 1.499 . S
C458 H432 0.950 . S
C458 C457 1.414 . S
C458 C459 1.374 . S
C459 H433 0.950 . S
C459 C455 1.385 . S
C459 C458 1.374 . S
C460 C457 1.499 . S
C460 C461 1.373 . S
C460 C462 1.389 . S
C461 H434 0.950 . S
C461 C447 1.377 . S
C461 C460 1.373 . S
C462 C446 1.377 . S
C462 C460 1.389 . S
C462 C463 1.524 . S
C463 C462 1.524 . S
C463 C464 1.397 . S
C463 C468 1.363 . S
C464 H435 0.950 . S
C464 C463 1.397 . S
C464 C465 1.334 . S
C465 H436 0.950 . S
C465 C464 1.334 . S
C465 C466 1.287 . S
C466 C465 1.287 . S
C466 C467 1.524 . S
C466 H469 0.999 . S
C467 H437 0.950 . S
C467 C466 1.524 . S
C467 C468 1.415 . S
C468 H438 0.950 . S
C468 C463 1.363 . S
C468 C467 1.415 . S
H469 C466 0.999 . S
H470 C451 0.913 . S
H471 C489 0.951 . S
H472 C491 0.951 . S
H473 C493 0.950 . S
H474 C494 0.950 . S
H475 C496 0.950 . S
H476 C499 0.950 . S
H477 C500 0.950 . S
H478 C502 0.950 . S
H479 C503 0.950 . S
H480 C504 0.951 . S
H481 C506 0.951 . S
H482 C508 0.950 . S
H483 C509 0.950 . S
H484 C511 0.950 . S
H485 C514 0.950 . S
H486 C515 0.950 . S
H487 C517 0.950 . S
H488 C518 0.950 . S
C489 H471 0.951 . S
C489 C490 1.366 . S
C489 C491 1.388 . S
C490 C489 1.366 . S
C490 C494 1.385 . S
C491 H472 0.951 . S
C491 C489 1.388 . S
C491 C492 1.366 . S
C492 C491 1.366 . S
C492 C493 1.414 . S
C492 C495 1.499 . S
C493 H473 0.950 . S
C493 C492 1.414 . S
C493 C494 1.374 . S
C494 H474 0.950 . S
C494 C490 1.385 . S
C494 C493 1.374 . S
C495 C492 1.499 . S
C495 C496 1.373 . S
C495 C497 1.389 . S
C496 H475 0.950 . S
C496 C495 1.373 . S
C496 C512 1.377 . S
C497 C495 1.389 . S
C497 C498 1.524 . S
C497 C511 1.377 . S
C498 C497 1.524 . S
C498 C499 1.397 . S
C498 C503 1.363 . S
C499 H476 0.950 . S
C499 C498 1.397 . S
C499 C500 1.334 . S
C500 H477 0.950 . S
C500 C499 1.334 . S
C500 C501 1.287 . S
C501 C500 1.287 . S
C501 C502 1.524 . S
C501 H520 0.913 . S
C502 H478 0.950 . S
C502 C501 1.524 . S
C502 C503 1.415 . S
C503 H479 0.950 . S
C503 C498 1.363 . S
C503 C502 1.415 . S
C504 H480 0.951 . S
C504 C505 1.366 . S
C504 C506 1.388 . S
C505 C504 1.366 . S
C505 C509 1.385 . S
C506 H481 0.951 . S
C506 C504 1.388 . S
C506 C507 1.366 . S
C507 C506 1.366 . S
C507 C508 1.414 . S
C507 C510 1.499 . S
C508 H482 0.950 . S
C508 C507 1.414 . S
C508 C509 1.374 . S
C509 H483 0.950 . S
C509 C505 1.385 . S
C509 C508 1.374 . S
C510 C507 1.499 . S
C510 C511 1.373 . S
C510 C512 1.389 . S
C511 H484 0.950 . S
C511 C497 1.377 . S
C511 C510 1.373 . S
C512 C496 1.377 . S
C512 C510 1.389 . S
C512 C513 1.524 . S
C513 C512 1.524 . S
C513 C514 1.397 . S
C513 C518 1.363 . S
C514 H485 0.950 . S
C514 C513 1.397 . S
C514 C515 1.334 . S
C515 H486 0.950 . S
C515 C514 1.334 . S
C515 C516 1.287 . S
C516 C515 1.287 . S
C516 C517 1.524 . S
C516 H519 1.004 1_565 S
C517 H487 0.950 . S
C517 C516 1.524 . S
C517 C518 1.415 . S
C518 H488 0.950 . S
C518 C513 1.363 . S
C518 C517 1.415 . S
H519 C516 1.004 1_545 S
H520 C501 0.913 . S
H521 C539 0.951 . S
H522 C541 0.951 . S
H523 C543 0.950 . S
H524 C544 0.950 . S
H525 C546 0.950 . S
H526 C549 0.950 . S
H527 C550 0.950 . S
H528 C552 0.950 . S
H529 C553 0.950 . S
H530 C554 0.951 . S
H531 C556 0.951 . S
H532 C558 0.950 . S
H533 C559 0.950 . S
H534 C561 0.950 . S
H535 C564 0.950 . S
H536 C565 0.950 . S
H537 C567 0.950 . S
H538 C568 0.950 . S
C539 H521 0.951 . S
C539 C540 1.366 . S
C539 C541 1.388 . S
C540 C539 1.366 . S
C540 C544 1.385 . S
C541 H522 0.951 . S
C541 C539 1.388 . S
C541 C542 1.366 . S
C542 C541 1.366 . S
C542 C543 1.414 . S
C542 C545 1.499 . S
C543 H523 0.950 . S
C543 C542 1.414 . S
C543 C544 1.374 . S
C544 H524 0.950 . S
C544 C540 1.385 . S
C544 C543 1.374 . S
C545 C542 1.499 . S
C545 C546 1.373 . S
C545 C547 1.389 . S
C546 H525 0.950 . S
C546 C545 1.373 . S
C546 C562 1.377 . S
C547 C545 1.389 . S
C547 C548 1.524 . S
C547 C561 1.377 . S
C548 C547 1.524 . S
C548 C549 1.397 . S
C548 C553 1.363 . S
C549 H526 0.950 . S
C549 C548 1.397 . S
C549 C550 1.334 . S
C550 H527 0.950 . S
C550 C549 1.334 . S
C550 C551 1.287 . S
C551 C550 1.287 . S
C551 C552 1.524 . S
C551 H570 0.913 . S
C552 H528 0.950 . S
C552 C551 1.524 . S
C552 C553 1.415 . S
C553 H529 0.950 . S
C553 C548 1.363 . S
C553 C552 1.415 . S
C554 H530 0.951 . S
C554 C555 1.366 . S
C554 C556 1.388 . S
C555 C554 1.366 . S
C555 C559 1.385 . S
C556 H531 0.951 . S
C556 C554 1.388 . S
C556 C557 1.366 . S
C557 C556 1.366 . S
C557 C558 1.414 . S
C557 C560 1.499 . S
C558 H532 0.950 . S
C558 C557 1.414 . S
C558 C559 1.374 . S
C559 H533 0.950 . S
C559 C555 1.385 . S
C559 C558 1.374 . S
C560 C557 1.499 . S
C560 C561 1.373 . S
C560 C562 1.389 . S
C561 H534 0.950 . S
C561 C547 1.377 . S
C561 C560 1.373 . S
C562 C546 1.377 . S
C562 C560 1.389 . S
C562 C563 1.524 . S
C563 C562 1.524 . S
C563 C564 1.397 . S
C563 C568 1.363 . S
C564 H535 0.950 . S
C564 C563 1.397 . S
C564 C565 1.334 . S
C565 H536 0.950 . S
C565 C564 1.334 . S
C565 C566 1.287 . S
C566 C565 1.287 . S
C566 C567 1.524 . S
C566 H569 0.999 . S
C567 H537 0.950 . S
C567 C566 1.524 . S
C567 C568 1.415 . S
C568 H538 0.950 . S
C568 C563 1.363 . S
C568 C567 1.415 . S
H569 C566 0.999 . S
H570 C551 0.913 . S
H571 C589 0.951 1_554 S
H572 C591 0.951 . S
H573 C593 0.950 . S
H574 C594 0.950 . S
H575 C596 0.950 . S
H576 C599 0.950 . S
H577 C600 0.950 . S
H578 C602 0.950 . S
H579 C603 0.950 . S
H580 C604 0.951 . S
H581 C606 0.951 . S
H582 C608 0.950 . S
H583 C609 0.950 . S
H584 C611 0.950 . S
H585 C614 0.950 . S
H586 C615 0.950 . S
H587 C617 0.950 . S
H588 C618 0.950 . S
C589 H571 0.951 1_556 S
C589 C590 1.366 . S
C589 C591 1.388 . S
C590 C589 1.366 . S
C590 C594 1.385 . S
C591 H572 0.951 . S
C591 C589 1.388 . S
C591 C592 1.366 . S
C592 C591 1.366 . S
C592 C593 1.414 . S
C592 C595 1.499 . S
C593 H573 0.950 . S
C593 C592 1.414 . S
C593 C594 1.374 . S
C594 H574 0.950 . S
C594 C590 1.385 . S
C594 C593 1.374 . S
C595 C592 1.499 . S
C595 C596 1.373 . S
C595 C597 1.389 . S
C596 H575 0.950 . S
C596 C595 1.373 . S
C596 C612 1.377 . S
C597 C595 1.389 . S
C597 C598 1.524 . S
C597 C611 1.377 . S
C598 C597 1.524 . S
C598 C599 1.397 . S
C598 C603 1.363 . S
C599 H576 0.950 . S
C599 C598 1.397 . S
C599 C600 1.334 1_556 S
C600 H577 0.950 . S
C600 C599 1.334 1_554 S
C600 C601 1.287 . S
C601 C600 1.287 . S
C601 C602 1.524 . S
C601 H620 0.913 . S
C602 H578 0.950 . S
C602 C601 1.524 . S
C602 C603 1.415 1_554 S
C603 H579 0.950 . S
C603 C598 1.363 . S
C603 C602 1.415 1_556 S
C604 H580 0.951 . S
C604 C605 1.366 . S
C604 C606 1.388 . S
C605 C604 1.366 . S
C605 C609 1.385 . S
C606 H581 0.951 . S
C606 C604 1.388 . S
C606 C607 1.366 . S
C607 C606 1.366 . S
C607 C608 1.414 . S
C607 C610 1.499 . S
C608 H582 0.950 . S
C608 C607 1.414 . S
C608 C609 1.374 . S
C609 H583 0.950 . S
C609 C605 1.385 . S
C609 C608 1.374 . S
C610 C607 1.499 . S
C610 C611 1.373 . S
C610 C612 1.389 . S
C611 H584 0.950 . S
C611 C597 1.377 . S
C611 C610 1.373 . S
C612 C596 1.377 . S
C612 C610 1.389 . S
C612 C613 1.524 . S
C613 C612 1.524 . S
C613 C614 1.397 . S
C613 C618 1.363 . S
C614 H585 0.950 . S
C614 C613 1.397 . S
C614 C615 1.334 . S
C615 H586 0.950 . S
C615 C614 1.334 . S
C615 C616 1.287 . S
C616 C615 1.287 . S
C616 C617 1.524 . S
C616 H619 0.999 . S
C617 H587 0.950 . S
C617 C616 1.524 . S
C617 C618 1.415 . S
C618 H588 0.950 . S
C618 C613 1.363 . S
C618 C617 1.415 . S
H619 C616 0.999 . S
H620 C601 0.913 . S
H621 C639 0.951 . S
H622 C641 0.951 . S
H623 C643 0.950 . S
H624 C644 0.950 . S
H625 C646 0.950 . S
H626 C649 0.950 . S
H627 C650 0.950 . S
H628 C652 0.950 . S
H629 C653 0.950 . S
H630 C654 0.951 . S
H631 C656 0.951 . S
H632 C658 0.950 . S
H633 C659 0.950 . S
H634 C661 0.950 . S
H635 C664 0.950 . S
H636 C665 0.950 . S
H637 C667 0.950 . S
H638 C668 0.950 . S
C639 H621 0.951 . S
C639 C640 1.366 . S
C639 C641 1.388 1_554 S
C640 C639 1.366 . S
C640 C644 1.385 . S
C641 H622 0.951 . S
C641 C639 1.388 1_556 S
C641 C642 1.366 . S
C642 C641 1.366 . S
C642 C643 1.414 1_556 S
C642 C645 1.499 . S
C643 H623 0.950 . S
C643 C642 1.414 1_554 S
C643 C644 1.374 . S
C644 H624 0.950 . S
C644 C640 1.385 . S
C644 C643 1.374 . S
C645 C642 1.499 . S
C645 C646 1.373 . S
C645 C647 1.389 . S
C646 H625 0.950 . S
C646 C645 1.373 . S
C646 C662 1.377 . S
C647 C645 1.389 . S
C647 C648 1.524 . S
C647 C661 1.377 . S
C648 C647 1.524 . S
C648 C649 1.397 1_556 S
C648 C653 1.363 . S
C649 H626 0.950 . S
C649 C648 1.397 1_554 S
C649 C650 1.334 . S
C650 H627 0.950 . S
C650 C649 1.334 . S
C650 C651 1.287 . S
C651 C650 1.287 . S
C651 C652 1.524 1_554 S
C651 H670 0.913 . S
C652 H628 0.950 . S
C652 C651 1.524 1_556 S
C652 C653 1.415 . S
C653 H629 0.950 . S
C653 C648 1.363 . S
C653 C652 1.415 . S
C654 H630 0.951 . S
C654 C655 1.366 . S
C654 C656 1.388 . S
C655 C654 1.366 . S
C655 C659 1.385 . S
C656 H631 0.951 . S
C656 C654 1.388 . S
C656 C657 1.366 . S
C657 C656 1.366 . S
C657 C658 1.414 . S
C657 C660 1.499 . S
C658 H632 0.950 . S
C658 C657 1.414 . S
C658 C659 1.374 . S
C659 H633 0.950 . S
C659 C655 1.385 . S
C659 C658 1.374 . S
C660 C657 1.499 . S
C660 C661 1.373 . S
C660 C662 1.389 . S
C661 H634 0.950 . S
C661 C647 1.377 . S
C661 C660 1.373 . S
C662 C646 1.377 . S
C662 C660 1.389 . S
C662 C663 1.524 . S
C663 C662 1.524 . S
C663 C664 1.397 . S
C663 C668 1.363 . S
C664 H635 0.950 . S
C664 C663 1.397 . S
C664 C665 1.334 . S
C665 H636 0.950 . S
C665 C664 1.334 . S
C665 C666 1.287 . S
C666 C665 1.287 . S
C666 C667 1.524 . S
C666 H669 0.999 . S
C667 H637 0.950 . S
C667 C666 1.524 . S
C667 C668 1.415 . S
C668 H638 0.950 . S
C668 C663 1.363 . S
C668 C667 1.415 . S
H669 C666 0.999 . S
H670 C651 0.913 . S
H671 C689 0.951 . S
H672 C691 0.951 . S
H673 C693 0.950 . S
H674 C694 0.944 1_556 S
H675 C696 0.950 . S
H676 C699 0.950 1_556 S
H677 C700 0.950 . S
H678 C702 0.950 . S
H679 C703 0.950 . S
H680 C704 0.951 . S
H681 C706 0.951 . S
H682 C708 0.950 . S
H683 C709 0.950 . S
H684 C711 0.950 . S
H685 C714 0.950 . S
H686 C715 0.950 . S
H687 C717 0.950 . S
H688 C718 0.950 . S
C689 H671 0.951 . S
C689 C690 1.366 . S
C689 C691 1.388 . S
C690 C689 1.366 . S
C690 C694 1.407 . S
C691 H672 0.951 . S
C691 C689 1.388 . S
C691 C692 1.366 1_554 S
C692 C691 1.366 1_556 S
C692 C693 1.414 . S
C692 C695 1.499 . S
C693 H673 0.950 . S
C693 C692 1.414 . S
C693 C694 1.358 1_556 S
C694 H674 0.944 1_554 S
C694 C690 1.407 . S
C694 C693 1.358 1_554 S
C695 C692 1.499 . S
C695 C696 1.373 . S
C695 C697 1.389 . S
C696 H675 0.950 . S
C696 C695 1.373 . S
C696 C712 1.377 . S
C697 C695 1.389 . S
C697 C698 1.524 1_556 S
C697 C711 1.377 . S
C698 C697 1.524 1_554 S
C698 C699 1.397 . S
C698 C703 1.363 . S
C699 H676 0.950 1_554 S
C699 C698 1.397 . S
C699 C700 1.334 . S
C700 H677 0.950 . S
C700 C699 1.334 . S
C700 C701 1.287 . S
C701 C700 1.287 . S
C701 C702 1.524 . S
C701 H720 0.913 . S
C702 H678 0.950 . S
C702 C701 1.524 . S
C702 C703 1.415 . S
C703 H679 0.950 . S
C703 C698 1.363 . S
C703 C702 1.415 . S
C704 H680 0.951 . S
C704 C705 1.366 . S
C704 C706 1.388 . S
C705 C704 1.366 . S
C705 C709 1.385 . S
C706 H681 0.951 . S
C706 C704 1.388 . S
C706 C707 1.366 . S
C707 C706 1.366 . S
C707 C708 1.414 . S
C707 C710 1.499 . S
C708 H682 0.950 . S
C708 C707 1.414 . S
C708 C709 1.374 . S
C709 H683 0.950 . S
C709 C705 1.385 . S
C709 C708 1.374 . S
C710 C707 1.499 . S
C710 C711 1.373 . S
C710 C712 1.389 . S
C711 H684 0.950 . S
C711 C697 1.377 . S
C711 C710 1.373 . S
C712 C696 1.377 . S
C712 C710 1.389 . S
C712 C713 1.524 . S
C713 C712 1.524 . S
C713 C714 1.397 . S
C713 C718 1.363 . S
C714 H685 0.950 . S
C714 C713 1.397 . S
C714 C715 1.334 . S
C715 H686 0.950 . S
C715 C714 1.334 . S
C715 C716 1.287 . S
C716 C715 1.287 . S
C716 C717 1.524 . S
C716 H719 0.999 . S
C717 H687 0.950 . S
C717 C716 1.524 . S
C717 C718 1.415 . S
C718 H688 0.950 . S
C718 C713 1.363 . S
C718 C717 1.415 . S
H719 C716 0.999 . S
H720 C701 0.913 . S
H721 C739 0.951 . S
H722 C741 0.951 . S
H723 C743 0.950 . S
H724 C744 0.950 . S
H725 C746 0.950 . S
H726 C749 0.950 . S
H727 C750 0.950 . S
H728 C752 0.950 . S
H729 C753 0.950 . S
H730 C754 0.951 . S
H731 C756 0.951 . S
H732 C758 0.950 . S
H733 C759 0.950 . S
H734 C761 0.950 . S
H735 C764 0.950 . S
H736 C765 0.950 . S
H737 C767 0.950 . S
H738 C768 0.950 . S
C739 H721 0.951 . S
C739 C740 1.366 . S
C739 C741 1.388 . S
C740 C739 1.366 . S
C740 C744 1.385 1_556 S
C741 H722 0.951 . S
C741 C739 1.388 . S
C741 C742 1.366 . S
C742 C741 1.366 . S
C742 C743 1.414 . S
C742 C745 1.499 . S
C743 H723 0.950 . S
C743 C742 1.414 . S
C743 C744 1.374 1_556 S
C744 H724 0.950 . S
C744 C740 1.385 1_554 S
C744 C743 1.374 1_554 S
C745 C742 1.499 . S
C745 C746 1.373 . S
C745 C747 1.389 . S
C746 H725 0.950 . S
C746 C745 1.373 . S
C746 C762 1.377 . S
C747 C745 1.389 . S
C747 C748 1.524 . S
C747 C761 1.377 . S
C748 C747 1.524 . S
C748 C749 1.397 . S
C748 C753 1.363 . S
C749 H726 0.950 . S
C749 C748 1.397 . S
C749 C750 1.334 . S
C750 H727 0.950 . S
C750 C749 1.334 . S
C750 C751 1.287 . S
C751 C750 1.287 . S
C751 C752 1.524 . S
C751 H770 0.913 . S
C752 H728 0.950 . S
C752 C751 1.524 . S
C752 C753 1.415 . S
C753 H729 0.950 . S
C753 C748 1.363 . S
C753 C752 1.415 . S
C754 H730 0.951 . S
C754 C755 1.366 . S
C754 C756 1.388 . S
C755 C754 1.366 . S
C755 C759 1.385 . S
C756 H731 0.951 . S
C756 C754 1.388 . S
C756 C757 1.366 . S
C757 C756 1.366 . S
C757 C758 1.414 . S
C757 C760 1.499 . S
C758 H732 0.950 . S
C758 C757 1.414 . S
C758 C759 1.374 . S
C759 H733 0.950 . S
C759 C755 1.385 . S
C759 C758 1.374 . S
C760 C757 1.499 . S
C760 C761 1.373 . S
C760 C762 1.389 . S
C761 H734 0.950 . S
C761 C747 1.377 . S
C761 C760 1.373 . S
C762 C746 1.377 . S
C762 C760 1.389 . S
C762 C763 1.524 . S
C763 C762 1.524 . S
C763 C764 1.397 . S
C763 C768 1.363 . S
C764 H735 0.950 . S
C764 C763 1.397 . S
C764 C765 1.334 . S
C765 H736 0.950 . S
C765 C764 1.334 . S
C765 C766 1.287 . S
C766 C765 1.287 . S
C766 C767 1.524 . S
C766 H769 0.999 . S
C767 H737 0.950 . S
C767 C766 1.524 . S
C767 C768 1.415 . S
C768 H738 0.950 . S
C768 C763 1.363 . S
C768 C767 1.415 . S
H769 C766 0.999 . S
H770 C751 0.913 . S
H771 C789 0.951 . S
H772 C791 0.951 . S
H773 C793 0.950 . S
H774 C794 0.950 . S
H775 C796 0.950 . S
H776 C799 0.950 . S
H777 C800 0.950 . S
H778 C802 0.950 . S
H779 C803 0.950 . S
H780 C804 0.951 . S
H781 C806 0.951 . S
H782 C808 0.950 . S
H783 C809 0.950 . S
H784 C811 0.950 . S
H785 C814 0.950 . S
H786 C815 0.950 . S
H787 C817 0.950 . S
H788 C818 0.950 . S
C789 H771 0.951 . S
C789 C790 1.366 . S
C789 C791 1.388 . S
C790 C789 1.366 . S
C790 C794 1.385 . S
C791 H772 0.951 . S
C791 C789 1.388 . S
C791 C792 1.366 . S
C792 C791 1.366 . S
C792 C793 1.414 . S
C792 C795 1.499 . S
C793 H773 0.950 . S
C793 C792 1.414 . S
C793 C794 1.374 . S
C794 H774 0.950 . S
C794 C790 1.385 . S
C794 C793 1.374 . S
C795 C792 1.499 . S
C795 C796 1.373 . S
C795 C797 1.389 . S
C796 H775 0.950 . S
C796 C795 1.373 . S
C796 C812 1.377 . S
C797 C795 1.389 . S
C797 C798 1.524 . S
C797 C811 1.377 . S
C798 C797 1.524 . S
C798 C799 1.397 . S
C798 C803 1.363 . S
C799 H776 0.950 . S
C799 C798 1.397 . S
C799 C800 1.334 . S
C800 H777 0.950 . S
C800 C799 1.334 . S
C800 C801 1.287 . S
C801 C800 1.287 . S
C801 C802 1.524 . S
C801 H820 0.913 . S
C802 H778 0.950 . S
C802 C801 1.524 . S
C802 C803 1.415 . S
C803 H779 0.950 . S
C803 C798 1.363 . S
C803 C802 1.415 . S
C804 H780 0.951 . S
C804 C805 1.366 . S
C804 C806 1.388 . S
C805 C804 1.366 . S
C805 C809 1.385 . S
C806 H781 0.951 . S
C806 C804 1.388 . S
C806 C807 1.366 . S
C807 C806 1.366 . S
C807 C808 1.414 . S
C807 C810 1.499 . S
C808 H782 0.950 . S
C808 C807 1.414 . S
C808 C809 1.374 . S
C809 H783 0.950 . S
C809 C805 1.385 . S
C809 C808 1.374 . S
C810 C807 1.499 . S
C810 C811 1.373 . S
C810 C812 1.389 . S
C811 H784 0.950 . S
C811 C797 1.377 . S
C811 C810 1.373 . S
C812 C796 1.377 . S
C812 C810 1.389 . S
C812 C813 1.524 . S
C813 C812 1.524 . S
C813 C814 1.397 . S
C813 C818 1.363 . S
C814 H785 0.950 . S
C814 C813 1.397 . S
C814 C815 1.334 . S
C815 H786 0.950 . S
C815 C814 1.334 . S
C815 C816 1.287 . S
C816 C815 1.287 . S
C816 C817 1.524 . S
C816 H819 0.999 . S
C817 H787 0.950 . S
C817 C816 1.524 . S
C817 C818 1.415 . S
C818 H788 0.950 . S
C818 C813 1.363 . S
C818 C817 1.415 . S
H819 C816 0.999 . S
H820 C801 0.913 . S
H821 C839 0.951 . S
H822 C841 0.951 . S
H823 C843 0.950 . S
H824 C844 0.950 1_554 S
H825 C846 0.950 . S
H826 C849 0.950 1_554 S
H827 C850 0.950 . S
H828 C852 0.950 . S
H829 C853 0.950 . S
H830 C854 0.951 . S
H831 C856 0.951 . S
H832 C858 0.950 . S
H833 C859 0.950 . S
H834 C861 0.950 . S
H835 C864 0.950 . S
H836 C865 0.950 . S
H837 C867 0.950 . S
H838 C868 0.950 . S
C839 H821 0.951 . S
C839 C840 1.366 . S
C839 C841 1.388 . S
C840 C839 1.366 . S
C840 C844 1.385 . S
C841 H822 0.951 . S
C841 C839 1.388 . S
C841 C842 1.366 . S
C842 C841 1.366 . S
C842 C843 1.414 . S
C842 C845 1.499 . S
C843 H823 0.950 . S
C843 C842 1.414 . S
C843 C844 1.374 . S
C844 H824 0.950 1_556 S
C844 C840 1.385 . S
C844 C843 1.374 . S
C845 C842 1.499 . S
C845 C846 1.373 . S
C845 C847 1.389 . S
C846 H825 0.950 . S
C846 C845 1.373 . S
C846 C862 1.377 . S
C847 C845 1.389 . S
C847 C848 1.524 . S
C847 C861 1.377 . S
C848 C847 1.524 . S
C848 C849 1.397 . S
C848 C853 1.363 . S
C849 H826 0.950 1_556 S
C849 C848 1.397 . S
C849 C850 1.334 1_556 S
C850 H827 0.950 . S
C850 C849 1.334 1_554 S
C850 C851 1.287 . S
C851 C850 1.287 . S
C851 C852 1.524 1_554 S
C851 H870 0.913 . S
C852 H828 0.950 . S
C852 C851 1.524 1_556 S
C852 C853 1.415 . S
C853 H829 0.950 . S
C853 C848 1.363 . S
C853 C852 1.415 . S
C854 H830 0.951 . S
C854 C855 1.366 . S
C854 C856 1.388 . S
C855 C854 1.366 . S
C855 C859 1.385 . S
C856 H831 0.951 . S
C856 C854 1.388 . S
C856 C857 1.366 . S
C857 C856 1.366 . S
C857 C858 1.414 . S
C857 C860 1.499 . S
C858 H832 0.950 . S
C858 C857 1.414 . S
C858 C859 1.374 . S
C859 H833 0.950 . S
C859 C855 1.385 . S
C859 C858 1.374 . S
C860 C857 1.499 . S
C860 C861 1.373 . S
C860 C862 1.389 . S
C861 H834 0.950 . S
C861 C847 1.377 . S
C861 C860 1.373 . S
C862 C846 1.377 . S
C862 C860 1.389 . S
C862 C863 1.524 . S
C863 C862 1.524 . S
C863 C864 1.397 . S
C863 C868 1.363 . S
C864 H835 0.950 . S
C864 C863 1.397 . S
C864 C865 1.334 . S
C865 H836 0.950 . S
C865 C864 1.334 . S
C865 C866 1.287 . S
C866 C865 1.287 . S
C866 C867 1.524 . S
C866 H869 0.999 . S
C867 H837 0.950 . S
C867 C866 1.524 . S
C867 C868 1.415 . S
C868 H838 0.950 . S
C868 C863 1.363 . S
C868 C867 1.415 . S
H869 C866 0.999 . S
H870 C851 0.913 . S
H871 C889 0.951 . S
H872 C891 0.951 . S
H873 C893 0.948 1_556 S
H874 C894 0.950 . S
H875 C896 0.950 . S
H876 C899 0.950 . S
H877 C900 0.950 . S
H878 C902 0.950 . S
H879 C903 0.950 . S
H880 C904 0.951 . S
H881 C906 0.951 . S
H882 C908 0.950 . S
H883 C909 0.950 . S
H884 C911 0.950 . S
H885 C914 0.950 . S
H886 C915 0.950 . S
H887 C917 0.950 1_554 S
H888 C918 0.950 . S
C889 H871 0.951 . S
C889 C890 1.366 . S
C889 C891 1.388 1_554 S
C890 C889 1.366 . S
C890 C894 1.385 . S
C891 H872 0.951 . S
C891 C889 1.388 1_556 S
C891 C892 1.366 . S
C892 C891 1.366 . S
C892 C893 1.412 1_556 S
C892 C895 1.499 . S
C893 H873 0.948 1_554 S
C893 C892 1.412 1_554 S
C893 C894 1.376 . S
C894 H874 0.950 . S
C894 C890 1.385 . S
C894 C893 1.376 . S
C895 C892 1.499 . S
C895 C896 1.373 . S
C895 C897 1.389 . S
C896 H875 0.950 . S
C896 C895 1.373 . S
C896 C912 1.377 . S
C897 C895 1.389 . S
C897 C898 1.524 . S
C897 C911 1.377 . S
C898 C897 1.524 . S
C898 C899 1.397 . S
C898 C903 1.363 . S
C899 H876 0.950 . S
C899 C898 1.397 . S
C899 C900 1.334 . S
C900 H877 0.950 . S
C900 C899 1.334 . S
C900 C901 1.287 . S
C901 C900 1.287 . S
C901 C902 1.524 . S
C901 H920 0.913 . S
C902 H878 0.950 . S
C902 C901 1.524 . S
C902 C903 1.415 . S
C903 H879 0.950 . S
C903 C898 1.363 . S
C903 C902 1.415 . S
C904 H880 0.951 . S
C904 C905 1.366 . S
C904 C906 1.388 . S
C905 C904 1.366 . S
C905 C909 1.385 . S
C906 H881 0.951 . S
C906 C904 1.388 . S
C906 C907 1.366 . S
C907 C906 1.366 . S
C907 C908 1.414 . S
C907 C910 1.499 . S
C908 H882 0.950 . S
C908 C907 1.414 . S
C908 C909 1.374 . S
C909 H883 0.950 . S
C909 C905 1.385 . S
C909 C908 1.374 . S
C910 C907 1.499 . S
C910 C911 1.373 . S
C910 C912 1.389 . S
C911 H884 0.950 . S
C911 C897 1.377 . S
C911 C910 1.373 . S
C912 C896 1.377 . S
C912 C910 1.389 . S
C912 C913 1.524 . S
C913 C912 1.524 . S
C913 C914 1.397 . S
C913 C918 1.363 . S
C914 H885 0.950 . S
C914 C913 1.397 . S
C914 C915 1.334 . S
C915 H886 0.950 . S
C915 C914 1.334 . S
C915 C916 1.287 . S
C916 C915 1.287 . S
C916 C917 1.524 . S
C916 H919 0.999 . S
C917 H887 0.950 1_556 S
C917 C916 1.524 . S
C917 C918 1.415 . S
C918 H888 0.950 . S
C918 C913 1.363 . S
C918 C917 1.415 . S
H919 C916 0.999 . S
H920 C901 0.913 . S
H921 C939 0.951 1_556 S
H922 C941 0.951 . S
H923 C943 0.950 . S
H924 C944 0.950 . S
H925 C946 0.950 . S
H926 C949 0.950 . S
H927 C950 0.950 . S
H928 C952 0.950 . S
H929 C953 0.950 . S
H930 C954 0.951 . S
H931 C956 0.951 . S
H932 C958 0.950 . S
H933 C959 0.950 . S
H934 C961 0.950 . S
H935 C964 0.950 . S
H936 C965 0.950 . S
H937 C967 0.950 . S
H938 C968 0.950 . S
C939 H921 0.951 1_554 S
C939 C940 1.366 . S
C939 C941 1.388 1_554 S
C940 C939 1.366 . S
C940 C944 1.385 . S
C941 H922 0.951 . S
C941 C939 1.388 1_556 S
C941 C942 1.366 . S
C942 C941 1.366 . S
C942 C943 1.414 1_556 S
C942 C945 1.499 . S
C943 H923 0.950 . S
C943 C942 1.414 1_554 S
C943 C944 1.374 . S
C944 H924 0.950 . S
C944 C940 1.385 . S
C944 C943 1.374 . S
C945 C942 1.499 . S
C945 C946 1.373 . S
C945 C947 1.389 . S
C946 H925 0.950 . S
C946 C945 1.373 . S
C946 C962 1.377 . S
C947 C945 1.389 . S
C947 C948 1.524 . S
C947 C961 1.377 . S
C948 C947 1.524 . S
C948 C949 1.397 . S
C948 C953 1.363 . S
C949 H926 0.950 . S
C949 C948 1.397 . S
C949 C950 1.334 . S
C950 H927 0.950 . S
C950 C949 1.334 . S
C950 C951 1.287 . S
C951 C950 1.287 . S
C951 C952 1.524 . S
C951 H970 0.913 . S
C952 H928 0.950 . S
C952 C951 1.524 . S
C952 C953 1.415 . S
C953 H929 0.950 . S
C953 C948 1.363 . S
C953 C952 1.415 . S
C954 H930 0.951 . S
C954 C955 1.366 . S
C954 C956 1.388 . S
C955 C954 1.366 . S
C955 C959 1.385 . S
C956 H931 0.951 . S
C956 C954 1.388 . S
C956 C957 1.366 . S
C957 C956 1.366 . S
C957 C958 1.414 . S
C957 C960 1.499 . S
C958 H932 0.950 . S
C958 C957 1.414 . S
C958 C959 1.374 . S
C959 H933 0.950 . S
C959 C955 1.385 . S
C959 C958 1.374 . S
C960 C957 1.499 . S
C960 C961 1.373 . S
C960 C962 1.389 . S
C961 H934 0.950 . S
C961 C947 1.377 . S
C961 C960 1.373 . S
C962 C946 1.377 . S
C962 C960 1.389 . S
C962 C963 1.524 . S
C963 C962 1.524 . S
C963 C964 1.397 . S
C963 C968 1.363 . S
C964 H935 0.950 . S
C964 C963 1.397 . S
C964 C965 1.334 . S
C965 H936 0.950 . S
C965 C964 1.334 . S
C965 C966 1.287 . S
C966 C965 1.287 . S
C966 C967 1.524 . S
C966 H969 0.999 . S
C967 H937 0.950 . S
C967 C966 1.524 . S
C967 C968 1.415 . S
C968 H938 0.950 . S
C968 C963 1.363 . S
C968 C967 1.415 . S
H969 C966 0.999 . S
H970 C951 0.913 . S
H971 C989 0.951 . S
H972 C991 0.951 . S
H973 C993 0.950 . S
H974 C994 0.950 1_554 S
H975 C996 0.950 . S
H976 C999 0.950 . S
H977 C1000 0.950 1_554 S
H978 C1002 0.950 . S
H979 C1003 0.950 . S
H980 C1004 0.951 . S
H981 C1006 0.951 . S
H982 C1008 0.950 . S
H983 C1009 0.950 . S
H984 C1011 0.950 . S
H985 C1014 0.950 . S
H986 C1015 0.950 . S
H987 C1017 0.950 . S
H988 C1018 0.950 . S
C989 H971 0.951 . S
C989 C990 1.366 . S
C989 C991 1.388 . S
C990 C989 1.366 . S
C990 C994 1.385 . S
C991 H972 0.951 . S
C991 C989 1.388 . S
C991 C992 1.366 . S
C992 C991 1.366 . S
C992 C993 1.414 . S
C992 C995 1.499 . S
C993 H973 0.950 . S
C993 C992 1.414 . S
C993 C994 1.374 . S
C994 H974 0.950 1_556 S
C994 C990 1.385 . S
C994 C993 1.374 . S
C995 C992 1.499 . S
C995 C996 1.373 . S
C995 C997 1.389 . S
C996 H975 0.950 . S
C996 C995 1.373 . S
C996 C1012 1.377 . S
C997 C995 1.389 . S
C997 C998 1.524 . S
C997 C1011 1.377 . S
C998 C997 1.524 . S
C998 C999 1.397 . S
C998 C1003 1.363 . S
C999 H976 0.950 . S
C999 C998 1.397 . S
C999 C1000 1.334 . S
C1000 H977 0.950 1_556 S
C1000 C999 1.334 . S
C1000 C1001 1.287 . S
C1001 C1000 1.287 . S
C1001 C1002 1.524 . S
C1001 H1020 0.913 . S
C1002 H978 0.950 . S
C1002 C1001 1.524 . S
C1002 C1003 1.415 . S
C1003 H979 0.950 . S
C1003 C998 1.363 . S
C1003 C1002 1.415 . S
C1004 H980 0.951 . S
C1004 C1005 1.366 . S
C1004 C1006 1.388 . S
C1005 C1004 1.366 . S
C1005 C1009 1.385 . S
C1006 H981 0.951 . S
C1006 C1004 1.388 . S
C1006 C1007 1.366 . S
C1007 C1006 1.366 . S
C1007 C1008 1.414 . S
C1007 C1010 1.499 . S
C1008 H982 0.950 . S
C1008 C1007 1.414 . S
C1008 C1009 1.374 . S
C1009 H983 0.950 . S
C1009 C1005 1.385 . S
C1009 C1008 1.374 . S
C1010 C1007 1.499 . S
C1010 C1011 1.373 . S
C1010 C1012 1.389 . S
C1011 H984 0.950 . S
C1011 C997 1.377 . S
C1011 C1010 1.373 . S
C1012 C996 1.377 . S
C1012 C1010 1.389 . S
C1012 C1013 1.524 . S
C1013 C1012 1.524 . S
C1013 C1014 1.397 . S
C1013 C1018 1.363 . S
C1014 H985 0.950 . S
C1014 C1013 1.397 . S
C1014 C1015 1.334 . S
C1015 H986 0.950 . S
C1015 C1014 1.334 . S
C1015 C1016 1.287 . S
C1016 C1015 1.287 . S
C1016 C1017 1.524 . S
C1016 H1019 0.999 . S
C1017 H987 0.950 . S
C1017 C1016 1.524 . S
C1017 C1018 1.415 . S
C1018 H988 0.950 . S
C1018 C1013 1.363 . S
C1018 C1017 1.415 . S
H1019 C1016 0.999 . S
H1020 C1001 0.913 . S
H1021 C1039 0.951 . S
H1022 C1041 0.951 . S
H1023 C1043 0.950 . S
H1024 C1044 0.950 . S
H1025 C1046 0.950 . S
H1026 C1049 0.950 . S
H1027 C1050 0.950 1_554 S
H1028 C1052 0.950 1_554 S
H1029 C1053 0.950 . S
H1030 C1054 0.951 . S
H1031 C1056 0.951 . S
H1032 C1058 0.950 . S
H1033 C1059 0.950 . S
H1034 C1061 0.950 . S
H1035 C1064 0.950 . S
H1036 C1065 0.950 . S
H1037 C1067 0.950 . S
H1038 C1068 0.950 . S
C1039 H1021 0.951 . S
C1039 C1040 1.366 . S
C1039 C1041 1.388 . S
C1040 C1039 1.366 . S
C1040 C1044 1.385 . S
C1041 H1022 0.951 . S
C1041 C1039 1.388 . S
C1041 C1042 1.366 . S
C1042 C1041 1.366 . S
C1042 C1043 1.414 . S
C1042 C1045 1.499 . S
C1043 H1023 0.950 . S
C1043 C1042 1.414 . S
C1043 C1044 1.374 . S
C1044 H1024 0.950 . S
C1044 C1040 1.385 . S
C1044 C1043 1.374 . S
C1045 C1042 1.499 . S
C1045 C1046 1.373 . S
C1045 C1047 1.389 . S
C1046 H1025 0.950 . S
C1046 C1045 1.373 . S
C1046 C1062 1.377 . S
C1047 C1045 1.389 . S
C1047 C1048 1.524 . S
C1047 C1061 1.377 . S
C1048 C1047 1.524 . S
C1048 C1049 1.397 . S
C1048 C1053 1.363 . S
C1049 H1026 0.950 . S
C1049 C1048 1.397 . S
C1049 C1050 1.334 . S
C1050 H1027 0.950 1_556 S
C1050 C1049 1.334 . S
C1050 C1051 1.287 1_556 S
C1051 C1050 1.287 1_554 S
C1051 C1052 1.524 1_554 S
C1051 H1070 0.913 . S
C1052 H1028 0.950 1_556 S
C1052 C1051 1.524 1_556 S
C1052 C1053 1.415 . S
C1053 H1029 0.950 . S
C1053 C1048 1.363 . S
C1053 C1052 1.415 . S
C1054 H1030 0.951 . S
C1054 C1055 1.366 . S
C1054 C1056 1.388 . S
C1055 C1054 1.366 . S
C1055 C1059 1.385 . S
C1056 H1031 0.951 . S
C1056 C1054 1.388 . S
C1056 C1057 1.366 . S
C1057 C1056 1.366 . S
C1057 C1058 1.414 . S
C1057 C1060 1.499 . S
C1058 H1032 0.950 . S
C1058 C1057 1.414 . S
C1058 C1059 1.374 . S
C1059 H1033 0.950 . S
C1059 C1055 1.385 . S
C1059 C1058 1.374 . S
C1060 C1057 1.499 . S
C1060 C1061 1.373 . S
C1060 C1062 1.389 . S
C1061 H1034 0.950 . S
C1061 C1047 1.377 . S
C1061 C1060 1.373 . S
C1062 C1046 1.377 . S
C1062 C1060 1.389 . S
C1062 C1063 1.524 . S
C1063 C1062 1.524 . S
C1063 C1064 1.397 . S
C1063 C1068 1.363 . S
C1064 H1035 0.950 . S
C1064 C1063 1.397 . S
C1064 C1065 1.334 . S
C1065 H1036 0.950 . S
C1065 C1064 1.334 . S
C1065 C1066 1.287 . S
C1066 C1065 1.287 . S
C1066 C1067 1.524 . S
C1066 H1069 0.999 . S
C1067 H1037 0.950 . S
C1067 C1066 1.524 . S
C1067 C1068 1.415 . S
C1068 H1038 0.950 . S
C1068 C1063 1.363 . S
C1068 C1067 1.415 . S
H1069 C1066 0.999 . S
H1070 C1051 0.913 . S
H1071 C1089 0.951 . S
H1072 C1091 0.951 . S
H1073 C1093 0.950 . S
H1074 C1094 0.950 . S
H1075 C1096 0.950 . S
H1076 C1099 0.950 . S
H1077 C1100 0.950 . S
H1078 C1102 0.950 . S
H1079 C1103 0.950 . S
H1080 C1104 0.951 . S
H1081 C1106 0.951 . S
H1082 C1108 0.950 . S
H1083 C1109 0.950 . S
H1084 C1111 0.950 . S
H1085 C1114 0.950 . S
H1086 C1115 0.950 . S
H1087 C1117 0.950 . S
H1088 C1118 0.950 . S
C1089 H1071 0.951 . S
C1089 C1090 1.366 . S
C1089 C1091 1.388 . S
C1090 C1089 1.366 . S
C1090 C1094 1.385 . S
C1091 H1072 0.951 . S
C1091 C1089 1.388 . S
C1091 C1092 1.366 . S
C1092 C1091 1.366 . S
C1092 C1093 1.414 . S
C1092 C1095 1.499 . S
C1093 H1073 0.950 . S
C1093 C1092 1.414 . S
C1093 C1094 1.374 . S
C1094 H1074 0.950 . S
C1094 C1090 1.385 . S
C1094 C1093 1.374 . S
C1095 C1092 1.499 . S
C1095 C1096 1.373 . S
C1095 C1097 1.389 . S
C1096 H1075 0.950 . S
C1096 C1095 1.373 . S
C1096 C1112 1.377 . S
C1097 C1095 1.389 . S
C1097 C1098 1.524 . S
C1097 C1111 1.377 . S
C1098 C1097 1.524 . S
C1098 C1099 1.397 . S
C1098 C1103 1.363 . S
C1099 H1076 0.950 . S
C1099 C1098 1.397 . S
C1099 C1100 1.334 . S
C1100 H1077 0.950 . S
C1100 C1099 1.334 . S
C1100 C1101 1.287 . S
C1101 C1100 1.287 . S
C1101 C1102 1.524 . S
C1101 H1120 0.913 . S
C1102 H1078 0.950 . S
C1102 C1101 1.524 . S
C1102 C1103 1.415 . S
C1103 H1079 0.950 . S
C1103 C1098 1.363 . S
C1103 C1102 1.415 . S
C1104 H1080 0.951 . S
C1104 C1105 1.366 . S
C1104 C1106 1.388 . S
C1105 C1104 1.366 . S
C1105 C1109 1.385 . S
C1106 H1081 0.951 . S
C1106 C1104 1.388 . S
C1106 C1107 1.366 . S
C1107 C1106 1.366 . S
C1107 C1108 1.414 . S
C1107 C1110 1.499 . S
C1108 H1082 0.950 . S
C1108 C1107 1.414 . S
C1108 C1109 1.374 . S
C1109 H1083 0.950 . S
C1109 C1105 1.385 . S
C1109 C1108 1.374 . S
C1110 C1107 1.499 . S
C1110 C1111 1.373 . S
C1110 C1112 1.389 . S
C1111 H1084 0.950 . S
C1111 C1097 1.377 . S
C1111 C1110 1.373 . S
C1112 C1096 1.377 . S
C1112 C1110 1.389 . S
C1112 C1113 1.524 . S
C1113 C1112 1.524 . S
C1113 C1114 1.397 . S
C1113 C1118 1.363 . S
C1114 H1085 0.950 . S
C1114 C1113 1.397 . S
C1114 C1115 1.334 . S
C1115 H1086 0.950 . S
C1115 C1114 1.334 . S
C1115 C1116 1.287 . S
C1116 C1115 1.287 . S
C1116 C1117 1.524 . S
C1116 H1119 0.999 . S
C1117 H1087 0.950 . S
C1117 C1116 1.524 . S
C1117 C1118 1.415 . S
C1118 H1088 0.950 . S
C1118 C1113 1.363 . S
C1118 C1117 1.415 . S
H1119 C1116 0.999 . S
H1120 C1101 0.913 . S
H1121 C1139 0.951 . S
H1122 C1141 0.951 . S
H1123 C1143 0.950 . S
H1124 C1144 0.950 . S
H1125 C1146 0.950 . S
H1126 C1149 0.950 . S
H1127 C1150 0.950 . S
H1128 C1152 0.950 . S
H1129 C1153 0.950 . S
H1130 C1154 0.951 . S
H1131 C1156 0.951 . S
H1132 C1158 0.950 . S
H1133 C1159 0.950 . S
H1134 C1161 0.950 . S
H1135 C1164 0.950 . S
H1136 C1165 0.950 . S
H1137 C1167 0.950 . S
H1138 C1168 0.950 . S
C1139 H1121 0.951 . S
C1139 C1140 1.366 . S
C1139 C1141 1.388 . S
C1140 C1139 1.366 . S
C1140 C1144 1.385 . S
C1141 H1122 0.951 . S
C1141 C1139 1.388 . S
C1141 C1142 1.366 . S
C1142 C1141 1.366 . S
C1142 C1143 1.414 . S
C1142 C1145 1.499 . S
C1143 H1123 0.950 . S
C1143 C1142 1.414 . S
C1143 C1144 1.374 . S
C1144 H1124 0.950 . S
C1144 C1140 1.385 . S
C1144 C1143 1.374 . S
C1145 C1142 1.499 . S
C1145 C1146 1.373 . S
C1145 C1147 1.389 . S
C1146 H1125 0.950 . S
C1146 C1145 1.373 . S
C1146 C1162 1.377 . S
C1147 C1145 1.389 . S
C1147 C1148 1.524 . S
C1147 C1161 1.377 . S
C1148 C1147 1.524 . S
C1148 C1149 1.397 . S
C1148 C1153 1.363 . S
C1149 H1126 0.950 . S
C1149 C1148 1.397 . S
C1149 C1150 1.334 . S
C1150 H1127 0.950 . S
C1150 C1149 1.334 . S
C1150 C1151 1.287 . S
C1151 C1150 1.287 . S
C1151 C1152 1.524 . S
C1151 H1170 0.913 . S
C1152 H1128 0.950 . S
C1152 C1151 1.524 . S
C1152 C1153 1.415 . S
C1153 H1129 0.950 . S
C1153 C1148 1.363 . S
C1153 C1152 1.415 . S
C1154 H1130 0.951 . S
C1154 C1155 1.366 . S
C1154 C1156 1.388 . S
C1155 C1154 1.366 . S
C1155 C1159 1.385 . S
C1156 H1131 0.951 . S
C1156 C1154 1.388 . S
C1156 C1157 1.366 . S
C1157 C1156 1.366 . S
C1157 C1158 1.414 . S
C1157 C1160 1.499 . S
C1158 H1132 0.950 . S
C1158 C1157 1.414 . S
C1158 C1159 1.374 . S
C1159 H1133 0.950 . S
C1159 C1155 1.385 . S
C1159 C1158 1.374 . S
C1160 C1157 1.499 . S
C1160 C1161 1.373 . S
C1160 C1162 1.389 . S
C1161 H1134 0.950 . S
C1161 C1147 1.377 . S
C1161 C1160 1.373 . S
C1162 C1146 1.377 . S
C1162 C1160 1.389 . S
C1162 C1163 1.524 . S
C1163 C1162 1.524 . S
C1163 C1164 1.397 . S
C1163 C1168 1.363 . S
C1164 H1135 0.950 . S
C1164 C1163 1.397 . S
C1164 C1165 1.334 . S
C1165 H1136 0.950 . S
C1165 C1164 1.334 . S
C1165 C1166 1.287 . S
C1166 C1165 1.287 . S
C1166 C1167 1.524 . S
C1166 H1169 0.999 . S
C1167 H1137 0.950 . S
C1167 C1166 1.524 . S
C1167 C1168 1.415 . S
C1168 H1138 0.950 . S
C1168 C1163 1.363 . S
C1168 C1167 1.415 . S
H1169 C1166 0.999 . S
H1170 C1151 0.913 . S
H1171 C1189 0.951 . S
H1172 C1191 0.951 . S
H1173 C1193 0.950 . S
H1174 C1194 0.950 . S
H1175 C1196 0.950 . S
H1176 C1199 0.950 . S
H1177 C1200 0.950 . S
H1178 C1202 0.950 . S
H1179 C1203 0.950 . S
H1180 C1204 0.951 . S
H1181 C1206 0.951 . S
H1182 C1208 0.950 . S
H1183 C1209 0.950 . S
H1184 C1211 0.950 . S
H1185 C1214 0.950 . S
H1186 C1215 0.950 . S
H1187 C1217 0.950 . S
H1188 C1218 0.950 . S
C1189 H1171 0.951 . S
C1189 C1190 1.366 . S
C1189 C1191 1.388 . S
C1190 C1189 1.366 . S
C1190 C1194 1.385 . S
C1191 H1172 0.951 . S
C1191 C1189 1.388 . S
C1191 C1192 1.366 . S
C1192 C1191 1.366 . S
C1192 C1193 1.414 . S
C1192 C1195 1.499 . S
C1193 H1173 0.950 . S
C1193 C1192 1.414 . S
C1193 C1194 1.374 . S
C1194 H1174 0.950 . S
C1194 C1190 1.385 . S
C1194 C1193 1.374 . S
C1195 C1192 1.499 . S
C1195 C1196 1.373 . S
C1195 C1197 1.389 . S
C1196 H1175 0.950 . S
C1196 C1195 1.373 . S
C1196 C1212 1.377 . S
C1197 C1195 1.389 . S
C1197 C1198 1.524 . S
C1197 C1211 1.377 . S
C1198 C1197 1.524 . S
C1198 C1199 1.397 . S
C1198 C1203 1.363 . S
C1199 H1176 0.950 . S
C1199 C1198 1.397 . S
C1199 C1200 1.334 . S
C1200 H1177 0.950 . S
C1200 C1199 1.334 . S
C1200 C1201 1.287 . S
C1201 C1200 1.287 . S
C1201 C1202 1.524 . S
C1201 H1220 0.913 . S
C1202 H1178 0.950 . S
C1202 C1201 1.524 . S
C1202 C1203 1.415 . S
C1203 H1179 0.950 . S
C1203 C1198 1.363 . S
C1203 C1202 1.415 . S
C1204 H1180 0.951 . S
C1204 C1205 1.366 . S
C1204 C1206 1.388 . S
C1205 C1204 1.366 . S
C1205 C1209 1.385 . S
C1206 H1181 0.951 . S
C1206 C1204 1.388 . S
C1206 C1207 1.366 . S
C1207 C1206 1.366 . S
C1207 C1208 1.414 . S
C1207 C1210 1.499 . S
C1208 H1182 0.950 . S
C1208 C1207 1.414 . S
C1208 C1209 1.374 . S
C1209 H1183 0.950 . S
C1209 C1205 1.385 . S
C1209 C1208 1.374 . S
C1210 C1207 1.499 . S
C1210 C1211 1.373 . S
C1210 C1212 1.389 . S
C1211 H1184 0.950 . S
C1211 C1197 1.377 . S
C1211 C1210 1.373 . S
C1212 C1196 1.377 . S
C1212 C1210 1.389 . S
C1212 C1213 1.524 . S
C1213 C1212 1.524 . S
C1213 C1214 1.397 . S
C1213 C1218 1.363 . S
C1214 H1185 0.950 . S
C1214 C1213 1.397 . S
C1214 C1215 1.334 . S
C1215 H1186 0.950 . S
C1215 C1214 1.334 . S
C1215 C1216 1.287 . S
C1216 C1215 1.287 . S
C1216 C1217 1.524 . S
C1216 H1219 0.999 . S
C1217 H1187 0.950 . S
C1217 C1216 1.524 . S
C1217 C1218 1.415 . S
C1218 H1188 0.950 . S
C1218 C1213 1.363 . S
C1218 C1217 1.415 . S
H1219 C1216 0.999 . S
H1220 C1201 0.913 . S
H1221 C1239 0.951 . S
H1222 C1241 0.951 . S
H1223 C1243 0.950 . S
H1224 C1244 0.950 . S
H1225 C1246 0.950 . S
H1226 C1249 0.950 . S
H1227 C1250 0.950 . S
H1228 C1252 0.950 . S
H1229 C1253 0.950 . S
H1230 C1254 0.951 . S
H1231 C1256 0.951 . S
H1232 C1258 0.950 . S
H1233 C1259 0.950 . S
H1234 C1261 0.950 . S
H1235 C1264 0.950 . S
H1236 C1265 0.950 . S
H1237 C1267 0.950 . S
H1238 C1268 0.950 . S
C1239 H1221 0.951 . S
C1239 C1240 1.366 . S
C1239 C1241 1.388 . S
C1240 C1239 1.366 . S
C1240 C1244 1.385 . S
C1241 H1222 0.951 . S
C1241 C1239 1.388 . S
C1241 C1242 1.366 . S
C1242 C1241 1.366 . S
C1242 C1243 1.414 . S
C1242 C1245 1.499 . S
C1243 H1223 0.950 . S
C1243 C1242 1.414 . S
C1243 C1244 1.374 . S
C1244 H1224 0.950 . S
C1244 C1240 1.385 . S
C1244 C1243 1.374 . S
C1245 C1242 1.499 . S
C1245 C1246 1.373 . S
C1245 C1247 1.389 . S
C1246 H1225 0.950 . S
C1246 C1245 1.373 . S
C1246 C1262 1.377 . S
C1247 C1245 1.389 . S
C1247 C1248 1.524 . S
C1247 C1261 1.377 . S
C1248 C1247 1.524 . S
C1248 C1249 1.397 . S
C1248 C1253 1.363 . S
C1249 H1226 0.950 . S
C1249 C1248 1.397 . S
C1249 C1250 1.334 . S
C1250 H1227 0.950 . S
C1250 C1249 1.334 . S
C1250 C1251 1.287 . S
C1251 C1250 1.287 . S
C1251 C1252 1.524 . S
C1251 H1270 0.913 . S
C1252 H1228 0.950 . S
C1252 C1251 1.524 . S
C1252 C1253 1.415 . S
C1253 H1229 0.950 . S
C1253 C1248 1.363 . S
C1253 C1252 1.415 . S
C1254 H1230 0.951 . S
C1254 C1255 1.366 . S
C1254 C1256 1.388 . S
C1255 C1254 1.366 . S
C1255 C1259 1.385 . S
C1256 H1231 0.951 . S
C1256 C1254 1.388 . S
C1256 C1257 1.366 . S
C1257 C1256 1.366 . S
C1257 C1258 1.414 . S
C1257 C1260 1.499 . S
C1258 H1232 0.950 . S
C1258 C1257 1.414 . S
C1258 C1259 1.374 . S
C1259 H1233 0.950 . S
C1259 C1255 1.385 . S
C1259 C1258 1.374 . S
C1260 C1257 1.499 . S
C1260 C1261 1.373 . S
C1260 C1262 1.389 . S
C1261 H1234 0.950 . S
C1261 C1247 1.377 . S
C1261 C1260 1.373 . S
C1262 C1246 1.377 . S
C1262 C1260 1.389 . S
C1262 C1263 1.524 . S
C1263 C1262 1.524 . S
C1263 C1264 1.397 . S
C1263 C1268 1.363 . S
C1264 H1235 0.950 . S
C1264 C1263 1.397 . S
C1264 C1265 1.334 . S
C1265 H1236 0.950 . S
C1265 C1264 1.334 . S
C1265 C1266 1.287 . S
C1266 C1265 1.287 . S
C1266 C1267 1.524 . S
C1266 H1269 0.999 . S
C1267 H1237 0.950 . S
C1267 C1266 1.524 . S
C1267 C1268 1.415 . S
C1268 H1238 0.950 . S
C1268 C1263 1.363 . S
C1268 C1267 1.415 . S
H1269 C1266 0.999 . S
H1270 C1251 0.913 . S
H1271 C1289 0.951 . S
H1272 C1291 0.951 . S
H1273 C1293 0.950 . S
H1274 C1294 0.950 . S
H1275 C1296 0.950 . S
H1276 C1299 0.950 . S
H1277 C1300 0.950 . S
H1278 C1302 0.950 . S
H1279 C1303 0.950 . S
H1280 C1304 0.951 . S
H1281 C1306 0.951 . S
H1282 C1308 0.950 . S
H1283 C1309 0.950 . S
H1284 C1311 0.950 . S
H1285 C1314 0.950 . S
H1286 C1315 0.950 . S
H1287 C1317 0.950 . S
H1288 C1318 0.950 . S
C1289 H1271 0.951 . S
C1289 C1290 1.366 . S
C1289 C1291 1.388 . S
C1290 C1289 1.366 . S
C1290 C1294 1.385 . S
C1291 H1272 0.951 . S
C1291 C1289 1.388 . S
C1291 C1292 1.366 . S
C1292 C1291 1.366 . S
C1292 C1293 1.414 . S
C1292 C1295 1.499 . S
C1293 H1273 0.950 . S
C1293 C1292 1.414 . S
C1293 C1294 1.374 . S
C1294 H1274 0.950 . S
C1294 C1290 1.385 . S
C1294 C1293 1.374 . S
C1295 C1292 1.499 . S
C1295 C1296 1.373 . S
C1295 C1297 1.389 . S
C1296 H1275 0.950 . S
C1296 C1295 1.373 . S
C1296 C1312 1.377 . S
C1297 C1295 1.389 . S
C1297 C1298 1.524 . S
C1297 C1311 1.377 . S
C1298 C1297 1.524 . S
C1298 C1299 1.397 . S
C1298 C1303 1.363 . S
C1299 H1276 0.950 . S
C1299 C1298 1.397 . S
C1299 C1300 1.334 . S
C1300 H1277 0.950 . S
C1300 C1299 1.334 . S
C1300 C1301 1.287 . S
C1301 C1300 1.287 . S
C1301 C1302 1.524 . S
C1301 H1320 0.913 . S
C1302 H1278 0.950 . S
C1302 C1301 1.524 . S
C1302 C1303 1.415 . S
C1303 H1279 0.950 . S
C1303 C1298 1.363 . S
C1303 C1302 1.415 . S
C1304 H1280 0.951 . S
C1304 C1305 1.366 . S
C1304 C1306 1.388 . S
C1305 C1304 1.366 . S
C1305 C1309 1.385 . S
C1306 H1281 0.951 . S
C1306 C1304 1.388 . S
C1306 C1307 1.366 . S
C1307 C1306 1.366 . S
C1307 C1308 1.414 . S
C1307 C1310 1.499 . S
C1308 H1282 0.950 . S
C1308 C1307 1.414 . S
C1308 C1309 1.374 . S
C1309 H1283 0.950 . S
C1309 C1305 1.385 . S
C1309 C1308 1.374 . S
C1310 C1307 1.499 . S
C1310 C1311 1.373 . S
C1310 C1312 1.389 . S
C1311 H1284 0.950 . S
C1311 C1297 1.377 . S
C1311 C1310 1.373 . S
C1312 C1296 1.377 . S
C1312 C1310 1.389 . S
C1312 C1313 1.524 . S
C1313 C1312 1.524 . S
C1313 C1314 1.397 . S
C1313 C1318 1.363 . S
C1314 H1285 0.950 . S
C1314 C1313 1.397 . S
C1314 C1315 1.334 . S
C1315 H1286 0.950 . S
C1315 C1314 1.334 . S
C1315 C1316 1.287 . S
C1316 C1315 1.287 . S
C1316 C1317 1.524 . S
C1316 H1319 0.999 . S
C1317 H1287 0.950 . S
C1317 C1316 1.524 . S
C1317 C1318 1.415 . S
C1318 H1288 0.950 . S
C1318 C1313 1.363 . S
C1318 C1317 1.415 . S
H1319 C1316 0.999 . S
H1320 C1301 0.913 . S
H1321 C1339 0.951 . S
H1322 C1341 0.951 . S
H1323 C1343 0.950 . S
H1324 C1344 0.950 . S
H1325 C1346 0.950 . S
H1326 C1349 0.950 . S
H1327 C1350 0.950 . S
H1328 C1352 0.950 . S
H1329 C1353 0.950 . S
H1330 C1354 0.951 . S
H1331 C1356 0.951 . S
H1332 C1358 0.950 . S
H1333 C1359 0.950 . S
H1334 C1361 0.950 . S
H1335 C1364 0.950 . S
H1336 C1365 0.950 . S
H1337 C1367 0.950 . S
H1338 C1368 0.950 . S
C1339 H1321 0.951 . S
C1339 C1340 1.366 . S
C1339 C1341 1.388 . S
C1340 C1339 1.366 . S
C1340 C1344 1.385 . S
C1341 H1322 0.951 . S
C1341 C1339 1.388 . S
C1341 C1342 1.366 . S
C1342 C1341 1.366 . S
C1342 C1343 1.414 . S
C1342 C1345 1.499 . S
C1343 H1323 0.950 . S
C1343 C1342 1.414 . S
C1343 C1344 1.374 . S
C1344 H1324 0.950 . S
C1344 C1340 1.385 . S
C1344 C1343 1.374 . S
C1345 C1342 1.499 . S
C1345 C1346 1.373 . S
C1345 C1347 1.389 . S
C1346 H1325 0.950 . S
C1346 C1345 1.373 . S
C1346 C1362 1.377 . S
C1347 C1345 1.389 . S
C1347 C1348 1.524 . S
C1347 C1361 1.377 . S
C1348 C1347 1.524 . S
C1348 C1349 1.397 . S
C1348 C1353 1.363 . S
C1349 H1326 0.950 . S
C1349 C1348 1.397 . S
C1349 C1350 1.334 . S
C1350 H1327 0.950 . S
C1350 C1349 1.334 . S
C1350 C1351 1.287 . S
C1351 C1350 1.287 . S
C1351 C1352 1.524 . S
C1351 H1370 0.913 . S
C1352 H1328 0.950 . S
C1352 C1351 1.524 . S
C1352 C1353 1.415 . S
C1353 H1329 0.950 . S
C1353 C1348 1.363 . S
C1353 C1352 1.415 . S
C1354 H1330 0.951 . S
C1354 C1355 1.366 . S
C1354 C1356 1.388 . S
C1355 C1354 1.366 . S
C1355 C1359 1.385 . S
C1356 H1331 0.951 . S
C1356 C1354 1.388 . S
C1356 C1357 1.366 . S
C1357 C1356 1.366 . S
C1357 C1358 1.414 . S
C1357 C1360 1.499 . S
C1358 H1332 0.950 . S
C1358 C1357 1.414 . S
C1358 C1359 1.374 . S
C1359 H1333 0.950 . S
C1359 C1355 1.385 . S
C1359 C1358 1.374 . S
C1360 C1357 1.499 . S
C1360 C1361 1.373 . S
C1360 C1362 1.389 . S
C1361 H1334 0.950 . S
C1361 C1347 1.377 . S
C1361 C1360 1.373 . S
C1362 C1346 1.377 . S
C1362 C1360 1.389 . S
C1362 C1363 1.524 . S
C1363 C1362 1.524 . S
C1363 C1364 1.397 . S
C1363 C1368 1.363 . S
C1364 H1335 0.950 . S
C1364 C1363 1.397 . S
C1364 C1365 1.334 . S
C1365 H1336 0.950 . S
C1365 C1364 1.334 . S
C1365 C1366 1.287 . S
C1366 C1365 1.287 . S
C1366 C1367 1.524 . S
C1366 H1369 0.999 . S
C1367 H1337 0.950 . S
C1367 C1366 1.524 . S
C1367 C1368 1.415 . S
C1368 H1338 0.950 . S
C1368 C1363 1.363 . S
C1368 C1367 1.415 . S
H1369 C1366 0.999 . S
H1370 C1351 0.913 . S
C190 C5 1.562 . S
C205 C78 1.481 . S
C240 C16 1.414 . S
C255 C110 1.417 . S
C305 C169 1.888 . S
C290 C36 1.942 . S
C355 C98 1.344 . S
C340 C42 1.347 . S
C390 C55 1.454 . S
C405 C128 1.420 . S
C455 C150 1.073 . S
C440 C66 1.078 . S
C505 C119 1.457 . S
C490 C31 1.507 . S
C540 C40 1.135 . S
C555 C159 1.111 . S
C605 C108 1.480 . S
C590 C53 1.498 1_556 S
C640 C68 1.408 . S
C655 C138 1.400 . S
C690 C10 1.871 . S
C705 C141 1.821 . S
C755 C80 1.558 . S
C740 C14 1.566 1_556 S
C805 C88 1.509 . S
C790 C49 1.522 . S
C855 C129 1.499 . S
C840 C62 1.513 1_556 S
C905 C142 1.845 . S
C890 C70 1.866 . S
C955 C79 1.462 . S
C940 C1 1.503 . S
C1005 C139 1.463 . S
C990 C23 1.477 1_556 S
C1040 C29 1.040 . S
C1055 C140 0.998 . S
C1105 C109 1.494 . S
C1090 C75 1.547 . S
C1155 C170 0.995 . S
C1140 C3 1.017 . S
C1205 C97 1.387 . S
C1190 C18 1.429 . S
C1255 C111 1.533 . S
C1240 C27 1.576 . S
C1290 C44 1.789 . S
C1305 C160 1.768 . S
C1340 C57 1.506 . S
C1355 C107 1.503 . S
