# Generated by pormake.
# Topology ssa, (4,4)-cn, num edge types: 1
# Building blocks:
#     Node 0, Type 0, BuildingBlock: ESEHIV_clean_sbu_0, # of connection points: 4
#     Node 1, Type 0, BuildingBlock: ESEHIV_clean_sbu_0, # of connection points: 4
#     Node 2, Type 0, BuildingBlock: ESEHIV_clean_sbu_0, # of connection points: 4
#     Node 3, Type 0, BuildingBlock: ESEHIV_clean_sbu_0, # of connection points: 4
#     Node 4, Type 0, BuildingBlock: ESEHIV_clean_sbu_0, # of connection points: 4
#     Node 5, Type 0, BuildingBlock: ESEHIV_clean_sbu_0, # of connection points: 4
#     Node 6, Type 1, BuildingBlock: ESEHIV_clean_sbu_0, # of connection points: 4
#     Node 7, Type 1, BuildingBlock: ESEHIV_clean_sbu_0, # of connection points: 4
#     Node 8, Type 1, BuildingBlock: ESEHIV_clean_sbu_0, # of connection points: 4
#     Node 9, Type 1, BuildingBlock: ESEHIV_clean_sbu_0, # of connection points: 4
#     Node 10, Type 1, BuildingBlock: ESEHIV_clean_sbu_0, # of connection points: 4
#     Node 11, Type 1, BuildingBlock: ESEHIV_clean_sbu_0, # of connection points: 4
#     Edge 12, Type (0, 1), BuildingBlock: TEMPAE_clean_linker_10, # of connection points: 2
#     Edge 13, Type (0, 1), BuildingBlock: TEMPAE_clean_linker_10, # of connection points: 2
#     Edge 14, Type (0, 1), BuildingBlock: TEMPAE_clean_linker_10, # of connection points: 2
#     Edge 15, Type (0, 1), BuildingBlock: TEMPAE_clean_linker_10, # of connection points: 2
#     Edge 16, Type (0, 1), BuildingBlock: TEMPAE_clean_linker_10, # of connection points: 2
#     Edge 17, Type (0, 1), BuildingBlock: TEMPAE_clean_linker_10, # of connection points: 2
#     Edge 18, Type (0, 1), BuildingBlock: TEMPAE_clean_linker_10, # of connection points: 2
#     Edge 19, Type (0, 1), BuildingBlock: TEMPAE_clean_linker_10, # of connection points: 2
#     Edge 20, Type (0, 1), BuildingBlock: TEMPAE_clean_linker_10, # of connection points: 2
#     Edge 21, Type (0, 1), BuildingBlock: TEMPAE_clean_linker_10, # of connection points: 2
#     Edge 22, Type (0, 1), BuildingBlock: TEMPAE_clean_linker_10, # of connection points: 2
#     Edge 23, Type (0, 1), BuildingBlock: TEMPAE_clean_linker_10, # of connection points: 2
#     Edge 24, Type (0, 1), BuildingBlock: TEMPAE_clean_linker_10, # of connection points: 2
#     Edge 25, Type (0, 1), BuildingBlock: TEMPAE_clean_linker_10, # of connection points: 2
#     Edge 26, Type (0, 1), BuildingBlock: TEMPAE_clean_linker_10, # of connection points: 2
#     Edge 27, Type (0, 1), BuildingBlock: TEMPAE_clean_linker_10, # of connection points: 2
#     Edge 28, Type (0, 1), BuildingBlock: TEMPAE_clean_linker_10, # of connection points: 2
#     Edge 29, Type (0, 1), BuildingBlock: TEMPAE_clean_linker_10, # of connection points: 2
#     Edge 30, Type (0, 1), BuildingBlock: TEMPAE_clean_linker_10, # of connection points: 2
#     Edge 31, Type (0, 1), BuildingBlock: TEMPAE_clean_linker_10, # of connection points: 2
#     Edge 32, Type (0, 1), BuildingBlock: TEMPAE_clean_linker_10, # of connection points: 2
#     Edge 33, Type (0, 1), BuildingBlock: TEMPAE_clean_linker_10, # of connection points: 2
#     Edge 34, Type (0, 1), BuildingBlock: TEMPAE_clean_linker_10, # of connection points: 2
#     Edge 35, Type (0, 1), BuildingBlock: TEMPAE_clean_linker_10, # of connection points: 2
# Relax obj value: 0.034
# Max RMSD: 0.106
# Mean RMSD: 0.096
data_MOF--net-ssa--node1-ESEHIV_clean_sbu_0--node2-ESEHIV_clean_sbu_0--edge1-TEMPAE_clean_linker_10
_symmetry_space_group_name_H-M    P1
_symmetry_Int_Tables_number       1
_symmetry_cell_setting            triclinic
loop_
_symmetry_equiv_pos_as_xyz
'x, y, z'
_cell_length_a     49.465855
_cell_length_b     52.954157
_cell_length_c     37.583503
_cell_angle_alpha  88.004803
_cell_angle_beta   91.220768
_cell_angle_gamma 122.3987
loop_
_atom_site_label
_atom_site_type_symbol
_atom_site_fract_x
_atom_site_fract_y
_atom_site_fract_z
_atom_type_partial_charge
Cu0 Cu 1.00703 0.5133 0.03111 0.0
N1 N 0.97918 0.47313 0.04367 0.0
N2 N 0.9507 0.42387 0.03616 0.0
C3 C 0.96105 0.45101 0.02108 0.0
C4 C 0.96279 0.42901 0.06946 0.0
C5 C 0.98036 0.45948 0.07404 0.0
O6 O 0.99027 0.52036 0.98518 0.0
C7 C 0.0759 0.53795 0.0479 0.0
O8 O 0.08039 0.56462 0.04961 0.0
H9 H 0.95821 0.45481 0.99313 0.0
H10 H 0.99522 0.47098 0.09676 0.0
N11 N 1.00484 0.53652 0.06597 0.0
N12 N 1.02098 0.57557 0.10077 0.0
C13 C 0.02427 0.56632 0.06903 0.0
C14 C 0.98755 0.5267 0.09613 0.0
C15 C 0.99749 0.55071 0.11767 0.0
C16 C 0.96098 0.51316 0.9862 0.0
O17 O 0.94591 0.50308 1.01676 0.0
H18 H 0.04165 0.58076 0.04909 0.0
H19 H 0.97038 0.50348 0.10302 0.0
O20 O 0.04915 0.51637 0.03601 0.0
H21 H 0.96077 0.41209 0.08822 0.0
H22 H 0.98992 0.54952 0.14482 0.0
Cu23 Cu 0.54475 0.02718 0.52328 0.0
N24 N 0.55419 0.01916 0.47777 0.0
N25 N 0.55863 0.99307 0.43442 0.0
C26 C 0.55254 0.99367 0.46934 0.0
C27 C 0.56414 0.01929 0.42041 0.0
C28 C 0.56118 0.03512 0.44696 0.0
O29 O 0.49995 0.99695 0.52975 0.0
C30 C 0.6008 0.03455 0.55088 0.0
O31 O 0.61046 0.04484 0.51828 0.0
H32 H 0.547 0.97589 0.48862 0.0
H33 H 0.56326 0.05645 0.44372 0.0
N34 N 0.55225 0.06594 0.52992 0.0
N35 N 0.557 0.10484 0.55898 0.0
C36 C 0.54283 0.07466 0.55821 0.0
C37 C 0.57312 0.09155 0.51229 0.0
C38 C 0.57594 0.11536 0.52988 0.0
C39 C 0.48049 0.99994 0.51019 0.0
O40 O 0.49142 0.02515 0.49186 0.0
H41 H 0.52739 0.05929 0.579 0.0
H42 H 0.58676 0.09306 0.48935 0.0
O43 O 0.57152 0.0234 0.5586 0.0
H44 H 0.56917 0.02632 0.39269 0.0
H45 H 0.59149 0.13874 0.52223 0.0
Cu46 Cu 0.55296 0.53122 0.02082 0.0
N47 N 0.56166 0.50054 1.01626 0.0
N48 N 0.56635 0.46538 0.98968 0.0
C49 C 0.55346 0.48251 0.98796 0.0
C50 C 0.58326 0.47305 0.02045 0.0
C51 C 0.58046 0.49464 0.03656 0.0
O52 O 0.57767 0.55967 0.98307 0.0
C53 C 0.48929 0.4906 0.03392 0.0
O54 O 0.50209 0.47769 0.05166 0.0
H55 H 0.53944 0.48297 0.96575 0.0
H56 H 0.59227 0.50597 0.06076 0.0
N57 N 0.56331 0.55112 0.0649 0.0
N58 N 0.56823 0.58361 0.10602 0.0
C59 C 0.56418 0.57667 0.07101 0.0
C60 C 0.56658 0.54135 0.09721 0.0
C61 C 0.56977 0.56123 0.12238 0.0
C62 C 0.60729 0.57827 0.98885 0.0
O63 O 0.61836 0.58054 0.02144 0.0
H64 H 0.56135 0.5896 0.05003 0.0
H65 H 0.5654 0.52058 0.1024 0.0
O66 O 0.5075 0.51417 1.01532 0.0
H67 H 0.59708 0.46399 0.03059 0.0
H68 H 0.57185 0.55859 0.15078 0.0
Cu69 Cu 1.01399 0.48094 0.51644 0.0
N70 N 1.00542 0.45261 0.48254 0.0
N71 N 1.01578 0.42836 0.44315 0.0
C72 C 0.02711 0.44707 0.47066 0.0
C73 C 0.98558 0.42156 0.4377 0.0
C74 C 0.97915 0.43643 0.46227 0.0
O75 O 0.05897 0.5154 0.50778 0.0
C76 C 0.96816 0.43996 0.56512 0.0
O77 O 0.95098 0.43839 0.53716 0.0
H78 H 0.0515 0.45821 0.48045 0.0
H79 H 0.95734 0.43637 0.4642 0.0
N80 N 0.98951 0.49755 0.50754 0.0
N81 N 0.96628 0.52271 0.51846 0.0
C82 C 0.98381 0.51203 0.53193 0.0
C83 C 0.97532 0.49924 0.47736 0.0
C84 C 0.96067 0.51459 0.48414 0.0
C85 C 0.0652 0.52462 0.47507 0.0
O86 O 0.04246 0.51037 0.45134 0.0
H87 H 0.99194 0.51418 0.55927 0.0
H88 H 0.97579 0.49021 0.45219 0.0
O89 O 0.99868 0.45831 0.56319 0.0
H90 H 0.96969 0.40764 0.41679 0.0
H91 H 0.94722 0.51962 0.46528 0.0
Cu92 Cu 0.5358 0.02352 0.0694 0.0
N93 N 0.5176 0.04638 0.0709 0.0
N94 N 0.50303 0.07752 0.0507 0.0
C95 C 0.51513 0.06096 0.04235 0.0
C96 C 0.49734 0.07295 0.08606 0.0
C97 C 0.50662 0.05381 0.09855 0.0
O98 O 0.55704 0.03435 0.02172 0.0
C99 C 0.47369 0.97043 0.08826 0.0
O100 O 0.46203 0.98623 0.07596 0.0
H101 H 0.52218 0.05944 1.01585 0.0
H102 H 0.50589 0.04623 0.12582 0.0
N103 N 0.56781 0.03729 0.10384 0.0
N104 N 0.60144 0.03487 0.14202 0.0
C105 C 0.57304 0.01945 0.12516 0.0
C106 C 0.59359 0.06515 0.10772 0.0
C107 C 0.6147 0.06363 0.13102 0.0
C108 C 0.58644 0.04313 1.01694 0.0
O109 O 0.60159 0.03805 0.0425 0.0
H110 H 0.55779 0.99526 0.12562 0.0
H111 H 0.59789 0.08463 0.0924 0.0
O112 O 0.50365 0.98108 0.08426 0.0
H113 H 0.488 0.08329 0.10186 0.0
H114 H 0.63867 0.08177 0.13754 0.0
Cu115 Cu 0.50549 0.51667 0.53511 0.0
N116 N 0.51851 0.55624 0.54212 0.0
N117 N 0.53944 0.60441 0.52777 0.0
C118 C 0.53439 0.57808 0.51747 0.0
C119 C 0.52643 0.59893 0.56054 0.0
C120 C 0.51338 0.56904 0.56931 0.0
O121 O 0.48156 0.50652 0.48868 0.0
C122 C 0.55962 0.52564 0.57173 0.0
O123 O 0.55001 0.53921 0.59169 0.0
H124 H 0.54177 0.57448 0.49224 0.0
H125 H 0.50064 0.55742 0.59345 0.0
N126 N 0.47783 0.49161 0.57115 0.0
N127 N 0.4598 0.456 0.61387 0.0
C128 C 0.48053 0.4699 0.58681 0.0
C129 C 0.45425 0.49139 0.58876 0.0
C130 C 0.44286 0.46916 0.6151 0.0
C131 C 0.45869 0.51135 0.48695 0.0
O132 O 0.45302 0.52152 0.51536 0.0
H133 H 0.49765 0.4645 0.57856 0.0
H134 H 0.44642 0.5067 0.58355 0.0
O135 O 0.54412 0.51405 0.54278 0.0
H136 H 0.52546 0.61505 0.57648 0.0
H137 H 0.42432 0.46371 0.63424 0.0
Cu138 Cu 0.25912 0.47792 0.23492 0.0
N139 N 0.26852 0.45993 0.19944 0.0
N140 N 0.29558 0.45393 0.1573 0.0
C141 C 0.29625 0.4725 0.18153 0.0
C142 C 0.26626 0.4287 0.16011 0.0
C143 C 0.24966 0.43243 0.18621 0.0
O144 O 0.29605 0.49539 0.26936 0.0
C145 C 0.22409 0.49077 0.18546 0.0
O146 O 0.21461 0.46337 0.17707 0.0
H147 H 0.31642 0.49492 0.18609 0.0
H148 H 0.22546 0.41627 0.19478 0.0
N149 N 0.22343 0.4487 0.26041 0.0
N150 N 0.17902 0.42843 0.29318 0.0
C151 C 0.20158 0.45293 0.27481 0.0
C152 C 0.21445 0.42049 0.26975 0.0
C153 C 0.18702 0.40791 0.28996 0.0
C154 C 0.30442 0.47741 0.28105 0.0
O155 O 0.28921 0.45036 0.26834 0.0
H156 H 0.20239 0.47372 0.27179 0.0
H157 H 0.22712 0.40991 0.26283 0.0
O158 O 0.2449 0.50316 0.21052 0.0
H159 H 0.25767 0.40876 0.14493 0.0
H160 H 0.17456 0.3857 0.30213 0.0
Cu161 Cu 0.79985 0.22354 0.79107 0.0
N162 N 0.79439 0.19279 0.76303 0.0
N163 N 0.77031 0.15513 0.72542 0.0
C164 C 0.7696 0.17741 0.74074 0.0
C165 C 0.79676 0.15664 0.73847 0.0
C166 C 0.81172 0.18009 0.76161 0.0
O167 O 0.75798 0.20716 0.81629 0.0
C168 C 0.83018 0.28672 0.76125 0.0
O169 O 0.82505 0.29524 0.79142 0.0
H170 H 0.75076 0.18186 0.73691 0.0
H171 H 0.83336 0.18706 0.7767 0.0
N172 N 0.82951 0.23061 0.82706 0.0
N173 N 0.86143 0.25334 0.87343 0.0
C174 C 0.8485 0.25676 0.84319 0.0
C175 C 0.83081 0.20998 0.84774 0.0
C176 C 0.85036 0.22394 0.87657 0.0
C177 C 0.74411 0.17984 0.82793 0.0
O178 O 0.75744 0.16473 0.82143 0.0
H179 H 0.85058 0.27744 0.83486 0.0
H180 H 0.81677 0.18616 0.84357 0.0
O181 O 0.81909 0.2589 0.75709 0.0
H182 H 0.80473 0.14195 0.73174 0.0
H183 H 0.85465 0.21319 0.89906 0.0
Cu184 Cu 0.60415 0.80927 0.27191 0.0
N185 N 0.63358 0.84202 0.24363 0.0
N186 N 0.6527 0.88608 0.21553 0.0
C187 C 0.62652 0.86115 0.22845 0.0
C188 C 0.67741 0.88268 0.22248 0.0
C189 C 0.66544 0.85514 0.23946 0.0
O190 O 0.57848 0.82345 0.29418 0.0
C191 C 0.60297 0.76714 0.22813 0.0
O192 O 0.63377 0.78623 0.23282 0.0
H193 H 0.603 0.85792 0.22943 0.0
H194 H 0.67929 0.84611 0.24941 0.0
N195 N 0.62405 0.80172 0.30985 0.0
N196 N 0.62699 0.77944 0.35991 0.0
C197 C 0.60785 0.77916 0.33368 0.0
C198 C 0.65462 0.81696 0.32146 0.0
C199 C 0.65655 0.80304 0.35227 0.0
C200 C 0.59535 0.84596 0.31417 0.0
O201 O 0.62597 0.85607 0.31767 0.0
H202 H 0.58238 0.76289 0.33178 0.0
H203 H 0.67398 0.83731 0.30938 0.0
O204 O 0.58349 0.7726 0.2428 0.0
H205 H 0.70229 0.89933 0.2169 0.0
H206 H 0.67776 0.8102 0.36833 0.0
Cu207 Cu 0.79096 0.55605 0.7552 0.0
N208 N 0.82101 0.5763 0.7192 0.0
N209 N 0.8572 0.58581 0.67775 0.0
C210 C 0.84493 0.57288 0.7099 0.0
C211 C 0.84067 0.59826 0.66674 0.0
C212 C 0.81823 0.59215 0.6922 0.0
O213 O 0.8094 0.54105 0.79202 0.0
C214 C 0.72262 0.52339 0.7348 0.0
O215 O 0.71668 0.52775 0.76708 0.0
H216 H 0.85197 0.55976 0.72537 0.0
H217 H 0.79956 0.59693 0.68998 0.0
N218 N 0.78626 0.58444 0.77767 0.0
N219 N 0.76691 0.60401 0.81332 0.0
C220 C 0.76707 0.5794 0.80539 0.0
C221 C 0.79959 0.61354 0.76849 0.0
C222 C 0.78759 0.62562 0.79027 0.0
C223 C 0.82027 0.52403 0.78888 0.0
O224 O 0.81522 0.50997 0.75899 0.0
H225 H 0.75255 0.55772 0.81853 0.0
H226 H 0.81645 0.62516 0.74707 0.0
O227 O 0.75085 0.52976 0.72751 0.0
H228 H 0.8427 0.60872 0.64084 0.0
H229 H 0.79337 0.64845 0.7889 0.0
Cu230 Cu 0.26561 0.7702 0.307 0.0
N231 N 0.2328 0.76596 0.27724 0.0
N232 N 0.1898 0.74414 0.24172 0.0
C233 C 0.21138 0.74086 0.26047 0.0
C234 C 0.19829 0.77263 0.24661 0.0
C235 C 0.22484 0.78603 0.26856 0.0
O236 O 0.24856 0.73008 0.33127 0.0
C237 C 0.31665 0.81758 0.26784 0.0
O238 O 0.30274 0.83061 0.28055 0.0
H239 H 0.21178 0.72063 0.26205 0.0
H240 H 0.23719 0.80868 0.27787 0.0
N241 N 0.27238 0.79639 0.34319 0.0
N242 N 0.2968 0.82999 0.38572 0.0
C243 C 0.29969 0.81323 0.36162 0.0
C244 C 0.25147 0.80261 0.35613 0.0
C245 C 0.26644 0.82329 0.38238 0.0
C246 C 0.22121 0.71907 0.34633 0.0
O247 O 0.20785 0.73483 0.34419 0.0
H248 H 0.32124 0.81323 0.35726 0.0
H249 H 0.22714 0.79306 0.34684 0.0
O250 O 0.30496 0.78989 0.27645 0.0
H251 H 0.18588 0.7829 0.23578 0.0
H252 H 0.25606 0.83326 0.39711 0.0
Cu253 Cu 0.51053 0.25632 0.78136 0.0
N254 N 0.48335 0.26229 0.75223 0.0
N255 N 0.45958 0.28338 0.72442 0.0
C256 C 0.47876 0.28517 0.75166 0.0
C257 C 0.45138 0.25804 0.70769 0.0
C258 C 0.4661 0.24517 0.72486 0.0
O259 O 0.53327 0.29047 0.81421 0.0
C260 C 0.5371 0.22337 0.75359 0.0
O261 O 0.53052 0.2101 0.78519 0.0
H262 H 0.49041 0.30348 0.76978 0.0
H263 H 0.46515 0.22518 0.7173 0.0
N264 N 0.48449 0.22294 0.81052 0.0
N265 N 0.46876 0.18987 0.85602 0.0
C266 C 0.49234 0.21659 0.8426 0.0
C267 C 0.45481 0.19969 0.80352 0.0
C268 C 0.44506 0.17919 0.83151 0.0
C269 C 0.54694 0.31843 0.80653 0.0
O270 O 0.55224 0.32733 0.77292 0.0
H271 H 0.5155 0.23067 0.855 0.0
H272 H 0.44144 0.19748 0.77945 0.0
O273 O 0.53379 0.24563 0.74832 0.0
H274 H 0.4365 0.24975 0.68414 0.0
H275 H 0.42247 0.15793 0.83342 0.0
C276 C 0.13133 0.55663 0.07251 0.0
C277 C 0.10019 0.53248 0.06503 0.0
C278 C 0.15359 0.55257 0.09195 0.0
C279 C 0.14463 0.52369 0.10516 0.0
C280 C 0.11329 0.49916 0.09753 0.0
C281 C 0.09166 0.50378 0.07743 0.0
C282 C 0.18677 0.57935 0.0985 0.0
C283 C 0.10231 0.468 0.11125 0.0
C284 C 0.20709 0.50373 0.12825 0.0
C285 C 0.20912 0.50523 0.16555 0.0
C286 C 0.18742 0.51088 0.10837 0.0
C287 C 0.16819 0.51893 0.12607 0.0
C288 C 0.17077 0.5213 0.16378 0.0
C289 C 0.19134 0.51466 0.183 0.0
C290 C 0.18636 0.50869 0.06837 0.0
C291 C 0.15054 0.52934 0.18403 0.0
H292 H 0.13833 0.57896 0.06332 0.0
H293 H 0.06764 0.48496 0.07246 0.0
H294 H 0.19111 0.58271 0.12753 0.0
H295 H 0.20495 0.57539 0.08803 0.0
H296 H 0.1904 0.6002 0.08579 0.0
H297 H 0.07707 0.45139 0.10387 0.0
H298 H 0.1178 0.46084 0.10047 0.0
H299 H 0.10456 0.46784 0.14069 0.0
H300 H 0.22034 0.49602 0.11456 0.0
H301 H 0.19199 0.51506 0.21183 0.0
H302 H 0.19009 0.52951 0.05553 0.0
H303 H 0.16244 0.48999 0.05999 0.0
H304 H 0.20477 0.50479 0.05836 0.0
H305 H 0.1538 0.55052 0.1731 0.0
H306 H 0.15643 0.53185 0.21289 0.0
H307 H 0.12487 0.51162 0.18083 0.0
C308 C 0.61697 0.04119 0.61511 0.0
C309 C 0.62498 0.04227 0.57928 0.0
C310 C 0.64094 0.05518 0.64114 0.0
C311 C 0.67353 0.07048 0.63097 0.0
C312 C 0.68157 0.06906 0.59552 0.0
C313 C 0.65717 0.05492 0.57009 0.0
C314 C 0.63139 0.05589 0.67879 0.0
C315 C 0.71601 0.08485 0.58363 0.0
C316 C 0.7303 0.14237 0.6781 0.0
C317 C 0.74686 0.13387 0.70114 0.0
C318 C 0.70641 0.12187 0.65528 0.0
C319 C 0.69881 0.09201 0.65546 0.0
C320 C 0.71559 0.08324 0.67843 0.0
C321 C 0.73955 0.10436 0.70099 0.0
C322 C 0.6893 0.13225 0.63095 0.0
C323 C 0.70796 0.05155 0.67944 0.0
H324 H 0.59213 0.03123 0.62251 0.0
H325 H 0.66352 0.05544 0.54253 0.0
H326 H 0.64614 0.05214 0.69827 0.0
H327 H 0.63556 0.07828 0.6836 0.0
H328 H 0.60571 0.0388 0.6838 0.0
H329 H 0.71822 0.07763 0.55703 0.0
H330 H 0.72635 0.10934 0.58212 0.0
H331 H 0.73051 0.08072 0.60306 0.0
H332 H 0.73623 0.16526 0.67774 0.0
H333 H 0.75207 0.09763 0.71906 0.0
H334 H 0.66322 0.1188 0.63646 0.0
H335 H 0.69259 0.12887 0.60278 0.0
H336 H 0.69811 0.15625 0.63414 0.0
H337 H 0.68265 0.03589 0.68742 0.0
H338 H 0.72361 0.04846 0.69832 0.0
H339 H 0.71071 0.04525 0.65253 0.0
C340 C 0.55841 0.62542 0.10532 0.0
C341 C 0.56965 0.60881 0.12285 0.0
C342 C 0.56022 0.65011 0.12134 0.0
C343 C 0.57354 0.65872 0.15594 0.0
C344 C 0.58432 0.64173 0.17404 0.0
C345 C 0.58237 0.61729 0.15739 0.0
C346 C 0.54843 0.66741 0.10085 0.0
C347 C 0.59879 0.64987 0.21083 0.0
C348 C 0.61491 0.74018 0.18372 0.0
C349 C 0.59277 0.73978 0.20702 0.0
C350 C 0.60842 0.7144 0.16621 0.0
C351 C 0.57898 0.68692 0.17202 0.0
C352 C 0.55596 0.68644 0.19462 0.0
C353 C 0.56303 0.71285 0.21169 0.0
C354 C 0.6337 0.71645 0.14226 0.0
C355 C 0.52429 0.65775 0.20177 0.0
H356 H 0.5481 0.61919 0.07898 0.0
H357 H 0.59155 0.60522 0.17141 0.0
H358 H 0.53109 0.66919 0.1171 0.0
H359 H 0.56883 0.69052 0.09501 0.0
H360 H 0.53678 0.65687 0.07531 0.0
H361 H 0.60388 0.63327 0.2225 0.0
H362 H 0.62151 0.67209 0.20966 0.0
H363 H 0.58242 0.65157 0.2289 0.0
H364 H 0.63789 0.7608 0.17952 0.0
H365 H 0.54579 0.71209 0.22972 0.0
H366 H 0.6234 0.7077 0.11567 0.0
H367 H 0.64239 0.70244 0.15367 0.0
H368 H 0.65454 0.73976 0.13875 0.0
H369 H 0.51236 0.64731 0.17634 0.0
H370 H 0.50793 0.66137 0.21747 0.0
H371 H 0.52838 0.64164 0.21672 0.0
C372 C 0.97233 0.55581 0.56645 0.0
C373 C 0.95456 0.53783 0.53788 0.0
C374 C 0.95959 0.56764 0.58857 0.0
C375 C 0.92828 0.56118 0.58197 0.0
C376 C 0.91092 0.54444 0.55197 0.0
C377 C 0.92435 0.53301 0.53018 0.0
C378 C 0.97897 0.58569 0.62005 0.0
C379 C 0.87742 0.53708 0.54412 0.0
C380 C 0.87781 0.55484 0.66001 0.0
C381 C 0.87782 0.58128 0.65607 0.0
C382 C 0.89483 0.54846 0.63655 0.0
C383 C 0.91234 0.56904 0.60843 0.0
C384 C 0.91347 0.59628 0.605 0.0
C385 C 0.89612 0.60206 0.62888 0.0
C386 C 0.89307 0.51915 0.64109 0.0
C387 C 0.93221 0.61886 0.57554 0.0
H388 H 0.99599 0.56008 0.57198 0.0
H389 H 0.91053 0.51903 0.50822 0.0
H390 H 0.9788 0.6065 0.62135 0.0
H391 H 0.96807 0.57252 0.64503 0.0
H392 H 1.0042 0.59174 0.61897 0.0
H393 H 0.86842 0.52636 0.51799 0.0
H394 H 0.86094 0.52161 0.56521 0.0
H395 H 0.87665 0.55763 0.54424 0.0
H396 H 0.86336 0.53843 0.68052 0.0
H397 H 0.89645 0.62265 0.62599 0.0
H398 H 0.91752 0.52325 0.64299 0.0
H399 H 0.88132 0.50527 0.61747 0.0
H400 H 0.87947 0.50617 0.66522 0.0
H401 H 0.95724 0.62437 0.57545 0.0
H402 H 0.93256 0.63987 0.57813 0.0
H403 H 0.92148 0.60918 0.5494 0.0
C404 C 0.41919 0.92975 0.11068 0.0
C405 C 0.45254 0.94268 0.1108 0.0
C406 C 0.39888 0.90653 0.13502 0.0
C407 C 0.41189 0.89566 0.16077 0.0
C408 C 0.44539 0.90762 0.16003 0.0
C409 C 0.46522 0.93083 0.13512 0.0
C410 C 0.3635 0.89466 0.13425 0.0
C411 C 0.46059 0.89697 0.18674 0.0
C412 C 0.36338 0.86711 0.24705 0.0
C413 C 0.34458 0.83591 0.24318 0.0
C414 C 0.38634 0.88637 0.22153 0.0
C415 C 0.39088 0.87452 0.19058 0.0
C416 C 0.3731 0.84287 0.18722 0.0
C417 C 0.3503 0.82395 0.21356 0.0
C418 C 0.40466 0.91969 0.22697 0.0
C419 C 0.37699 0.82905 0.15489 0.0
H420 H 0.40886 0.93842 0.09207 0.0
H421 H 0.49088 0.94058 0.13581 0.0
H422 H 0.34938 0.86985 0.13408 0.0
H423 H 0.35687 0.90134 0.15862 0.0
H424 H 0.35657 0.90322 0.11067 0.0
H425 H 0.48589 0.90545 0.18004 0.0
H426 H 0.45999 0.90482 0.21353 0.0
H427 H 0.44695 0.87216 0.18833 0.0
H428 H 0.35944 0.87673 0.26986 0.0
H429 H 0.33583 0.8 0.20997 0.0
H430 H 0.39724 0.93048 0.20656 0.0
H431 H 0.43071 0.92952 0.22366 0.0
H432 H 0.40052 0.92527 0.25373 0.0
H433 H 0.3667 0.83416 0.13129 0.0
H434 H 0.36481 0.80437 0.1581 0.0
H435 H 0.40273 0.83873 0.14939 0.0
C436 C 0.48492 0.4319 0.64444 0.0
C437 C 0.45742 0.43247 0.63659 0.0
C438 C 0.4829 0.40746 0.6627 0.0
C439 C 0.45255 0.38294 0.67345 0.0
C440 C 0.42486 0.38411 0.66746 0.0
C441 C 0.42764 0.40898 0.64909 0.0
C442 C 0.51311 0.40731 0.66882 0.0
C443 C 0.39215 0.35846 0.67874 0.0
C444 C 0.44839 0.30946 0.67628 0.0
C445 C 0.45368 0.30621 0.7125 0.0
C446 C 0.44639 0.33359 0.66355 0.0
C447 C 0.4498 0.3551 0.6876 0.0
C448 C 0.45357 0.35126 0.72443 0.0
C449 C 0.45545 0.32683 0.73645 0.0
C450 C 0.44239 0.33691 0.62403 0.0
C451 C 0.45708 0.37364 0.7509 0.0
H452 H 0.50808 0.4504 0.63556 0.0
H453 H 0.40639 0.40942 0.64302 0.0
H454 H 0.51508 0.40195 0.69718 0.0
H455 H 0.51222 0.3897 0.65273 0.0
H456 H 0.535 0.42913 0.66139 0.0
H457 H 0.37377 0.36438 0.67626 0.0
H458 H 0.3848 0.339 0.66183 0.0
H459 H 0.39272 0.35131 0.7067 0.0
H460 H 0.44733 0.29394 0.65745 0.0
H461 H 0.45894 0.3242 0.76455 0.0
H462 H 0.46456 0.35681 0.61313 0.0
H463 H 0.42254 0.34055 0.61892 0.0
H464 H 0.43741 0.317 0.60932 0.0
H465 H 0.48036 0.39503 0.74674 0.0
H466 H 0.45613 0.36567 0.77886 0.0
H467 H 0.43797 0.37844 0.74685 0.0
C468 C 0.57792 0.97641 0.38514 0.0
C469 C 0.55917 0.96961 0.41585 0.0
C470 C 0.57969 0.95421 0.36751 0.0
C471 C 0.56217 0.92412 0.38055 0.0
C472 C 0.54233 0.91689 0.41078 0.0
C473 C 0.5412 0.93961 0.42809 0.0
C474 C 0.60136 0.96325 0.33562 0.0
C475 C 0.52283 0.88518 0.42544 0.0
C476 C 0.55724 0.86425 0.32005 0.0
C477 C 0.58287 0.8622 0.33299 0.0
C478 C 0.54946 0.88358 0.33575 0.0
C479 C 0.56764 0.90124 0.3651 0.0
C480 C 0.59261 0.89818 0.37895 0.0
C481 C 0.59981 0.87889 0.36286 0.0
C482 C 0.52259 0.88597 0.32004 0.0
C483 C 0.61273 0.91622 0.4101 0.0
H484 H 0.59212 0.99939 0.3754 0.0
H485 H 0.52614 0.9338 0.45127 0.0
H486 H 0.62161 0.96049 0.34227 0.0
H487 H 0.58816 0.94855 0.31304 0.0
H488 H 0.61123 0.98686 0.32683 0.0
H489 H 0.50615 0.88252 0.44669 0.0
H490 H 0.50878 0.86961 0.40382 0.0
H491 H 0.53907 0.87845 0.43664 0.0
H492 H 0.54416 0.85176 0.29684 0.0
H493 H 0.61953 0.87743 0.37338 0.0
H494 H 0.53268 0.90801 0.30608 0.0
H495 H 0.50667 0.88465 0.34137 0.0
H496 H 0.50805 0.86814 0.30071 0.0
H497 H 0.62586 0.94042 0.40277 0.0
H498 H 0.63042 0.91041 0.41868 0.0
H499 H 0.5972 0.91254 0.43308 0.0
C500 C 0.62098 0.57794 0.92538 0.0
C501 C 0.6302 0.59081 0.95895 0.0
C502 C 0.644 0.58408 0.89962 0.0
C503 C 0.67687 0.60381 0.90757 0.0
C504 C 0.68604 0.61903 0.94008 0.0
C505 C 0.66256 0.61224 0.96548 0.0
C506 C 0.63325 0.56743 0.86521 0.0
C507 C 0.7208 0.64063 0.94927 0.0
C508 C 0.73366 0.58535 0.86744 0.0
C509 C 0.74618 0.6056 0.83833 0.0
C510 C 0.71135 0.58482 0.8903 0.0
C511 C 0.70156 0.60531 0.88421 0.0
C512 C 0.71481 0.62646 0.85561 0.0
C513 C 0.73688 0.62628 0.8329 0.0
C514 C 0.69779 0.5619 0.9206 0.0
C515 C 0.70509 0.64877 0.8485 0.0
H516 H 0.59601 0.56137 0.92011 0.0
H517 H 0.66979 0.62251 0.99126 0.0
H518 H 0.64576 0.58284 0.84219 0.0
H519 H 0.63947 0.55016 0.86568 0.0
H520 H 0.607 0.55617 0.86102 0.0
H521 H 0.72362 0.65401 0.97278 0.0
H522 H 0.73246 0.62798 0.95534 0.0
H523 H 0.73367 0.65613 0.92641 0.0
H524 H 0.74113 0.5697 0.87227 0.0
H525 H 0.74609 0.64179 0.81029 0.0
H526 H 0.67143 0.54712 0.91758 0.0
H527 H 0.7025 0.57324 0.94632 0.0
H528 H 0.70814 0.54774 0.92184 0.0
H529 H 0.6794 0.63682 0.841 0.0
H530 H 0.71932 0.66513 0.82678 0.0
H531 H 0.70804 0.66118 0.87295 0.0
C532 C 0.11313 0.57805 0.48095 0.0
C533 C 0.09619 0.55145 0.46203 0.0
C534 C 0.13775 0.60505 0.46438 0.0
C535 C 0.1458 0.60557 0.42807 0.0
C536 C 0.1303 0.5782 0.40994 0.0
C537 C 0.10584 0.55178 0.42697 0.0
C538 C 0.15362 0.63346 0.48504 0.0
C539 C 0.13772 0.57711 0.37147 0.0
C540 C 0.16983 0.67543 0.37027 0.0
C541 C 0.20306 0.68917 0.36575 0.0
C542 C 0.15142 0.64873 0.3905 0.0
C543 C 0.16625 0.63484 0.40737 0.0
C544 C 0.19981 0.64829 0.40274 0.0
C545 C 0.21779 0.67517 0.38189 0.0
C546 C 0.11582 0.63533 0.39371 0.0
C547 C 0.21676 0.63445 0.4202 0.0
H548 H 0.10581 0.57825 0.50786 0.0
H549 H 0.0931 0.53138 0.41204 0.0
H550 H 0.1799 0.64643 0.48086 0.0
H551 H 0.14462 0.64766 0.47528 0.0
H552 H 0.14867 0.62891 0.51402 0.0
H553 H 0.12723 0.5538 0.36276 0.0
H554 H 0.12782 0.58778 0.35433 0.0
H555 H 0.16395 0.58976 0.36707 0.0
H556 H 0.15789 0.68568 0.35784 0.0
H557 H 0.24339 0.68555 0.37898 0.0
H558 H 0.10912 0.63315 0.42215 0.0
H559 H 0.10248 0.61254 0.38276 0.0
H560 H 0.10791 0.649 0.37938 0.0
H561 H 0.2136 0.63314 0.44948 0.0
H562 H 0.24278 0.64739 0.41417 0.0
H563 H 0.20605 0.61124 0.41116 0.0
C564 C 0.47316 0.10107 0.03168 0.0
C565 C 0.49814 0.09642 0.02647 0.0
C566 C 0.46688 0.11761 1.00655 0.0
C567 C 0.48608 0.12973 0.97563 0.0
C568 C 0.51202 0.12599 0.97093 0.0
C569 C 0.51775 0.10946 0.99641 0.0
C570 C 0.43912 0.12131 1.01252 0.0
C571 C 0.53321 0.13867 0.93844 0.0
C572 C 0.45428 0.14333 0.88931 0.0
C573 C 0.47031 0.17463 0.88778 0.0
C574 C 0.45808 0.12833 0.91857 0.0
C575 C 0.47833 0.14503 0.94708 0.0
C576 C 0.49342 0.17652 0.94648 0.0
C577 C 0.48929 0.19095 0.91677 0.0
C578 C 0.44169 0.09471 0.91813 0.0
C579 C 0.51496 0.19507 0.97651 0.0
H580 H 0.4579 0.09096 0.05478 0.0
H581 H 0.53757 0.10658 0.99265 0.0
H582 H 0.44708 0.14525 1.00975 0.0
H583 H 0.42046 0.10913 0.99197 0.0
H584 H 0.42818 0.11267 0.0392 0.0
H585 H 0.55354 0.13532 0.93992 0.0
H586 H 0.5189 0.12775 0.91427 0.0
H587 H 0.54297 0.16298 0.93517 0.0
H588 H 0.43984 0.13057 0.86691 0.0
H589 H 0.5013 0.2151 0.91598 0.0
H590 H 0.42847 0.0844 0.94332 0.0
H591 H 0.45992 0.08873 0.91601 0.0
H592 H 0.42466 0.08483 0.8955 0.0
H593 H 0.5028 0.18585 1.00249 0.0
H594 H 0.52222 0.21886 0.97373 0.0
H595 H 0.53688 0.19419 0.97704 0.0
C596 C 0.44797 0.50653 0.41971 0.0
C597 C 0.43808 0.50634 0.45454 0.0
C598 C 0.42873 0.50414 0.38977 0.0
C599 C 0.39857 0.50102 0.39459 0.0
C600 C 0.38851 0.50052 0.42976 0.0
C601 C 0.40827 0.50335 0.45891 0.0
C602 C 0.44072 0.5051 0.3529 0.0
C603 C 0.35648 0.49655 0.43678 0.0
C604 C 0.35179 0.51417 0.32011 0.0
C605 C 0.3295 0.48486 0.30943 0.0
C606 C 0.37523 0.52 0.34667 0.0
C607 C 0.37624 0.496 0.36355 0.0
C608 C 0.35383 0.4665 0.35268 0.0
C609 C 0.33117 0.46141 0.32593 0.0
C610 C 0.39878 0.55186 0.35694 0.0
C611 C 0.35312 0.43999 0.37006 0.0
H612 H 0.47101 0.50919 0.41578 0.0
H613 H 0.40007 0.50304 0.48553 0.0
H614 H 0.42427 0.48367 0.33966 0.0
H615 H 0.44099 0.52308 0.3365 0.0
H616 H 0.46518 0.50909 0.35328 0.0
H617 H 0.35231 0.49717 0.46558 0.0
H618 H 0.35485 0.51439 0.42254 0.0
H619 H 0.33696 0.47481 0.42648 0.0
H620 H 0.35108 0.53256 0.3076 0.0
H621 H 0.3142 0.43857 0.31834 0.0
H622 H 0.42359 0.55692 0.3553 0.0
H623 H 0.3947 0.55491 0.38494 0.0
H624 H 0.39672 0.5682 0.33964 0.0
H625 H 0.37695 0.44284 0.36813 0.0
H626 H 0.33502 0.41853 0.3578 0.0
H627 H 0.34753 0.43852 0.39878 0.0
C628 C 0.94969 0.37878 0.02011 0.0
C629 C 0.93635 0.39637 1.01755 0.0
C630 C 0.93836 0.35382 0.99871 0.0
C631 C 0.91262 0.34601 0.97493 0.0
C632 C 0.89818 0.36301 0.97348 0.0
C633 C 0.91059 0.3883 0.99447 0.0
C634 C 0.95487 0.33671 1.00034 0.0
C635 C 0.87019 0.35497 0.94908 0.0
C636 C 0.90167 0.30453 0.89041 0.0
C637 C 0.87717 0.27544 0.90014 0.0
C638 C 0.91456 0.32745 0.9151 0.0
C639 C 0.90188 0.32117 0.95001 0.0
C640 C 0.87765 0.29157 0.96022 0.0
C641 C 0.86581 0.26892 0.93518 0.0
C642 C 0.94096 0.35856 0.90345 0.0
C643 C 0.86302 0.28416 0.99691 0.0
H644 H 0.96998 0.38543 0.03762 0.0
H645 H 0.90042 0.40205 0.99271 0.0
H646 H 0.93718 0.31249 1.005 0.0
H647 H 0.96654 0.33924 0.97442 0.0
H648 H 0.97336 0.34465 0.02164 0.0
H649 H 0.85997 0.36886 0.95349 0.0
H650 H 0.87796 0.35815 0.92093 0.0
H651 H 0.85105 0.33105 0.95315 0.0
H652 H 0.91027 0.30935 0.86322 0.0
H653 H 0.84645 0.24645 0.94237 0.0
H654 H 0.96111 0.36759 0.92276 0.0
H655 H 0.93188 0.37372 0.90279 0.0
H656 H 0.95023 0.35904 0.87661 0.0
H657 H 0.88196 0.29223 1.01762 0.0
H658 H 0.84589 0.25974 1.00135 0.0
H659 H 0.85016 0.29578 1.0005 0.0
C660 C 0.90878 0.49759 0.95574 0.0
C661 C 0.9425 0.51457 0.95452 0.0
C662 C 0.88984 0.49918 0.92825 0.0
C663 C 0.90458 0.51856 0.89827 0.0
C664 C 0.93865 0.53554 0.89644 0.0
C665 C 0.95717 0.53321 0.92435 0.0
C666 C 0.85383 0.48016 0.93157 0.0
C667 C 0.95558 0.55665 0.86524 0.0
C668 C 0.85196 0.50257 0.81456 0.0
C669 C 0.84134 0.52235 0.81737 0.0
C670 C 0.87286 0.50153 0.84006 0.0
C671 C 0.88403 0.52091 0.86935 0.0
C672 C 0.87362 0.54111 0.8722 0.0
C673 C 0.85246 0.5415 0.84647 0.0
C674 C 0.88268 0.47928 0.83585 0.0
C675 C 0.88475 0.56232 0.90267 0.0
H676 H 0.89688 0.48283 0.97856 0.0
H677 H 0.98307 0.54657 0.92297 0.0
H678 H 0.84403 0.4947 0.93227 0.0
H679 H 0.84326 0.46588 0.90803 0.0
H680 H 0.84594 0.4655 0.95593 0.0
H681 H 0.98202 0.5679 0.8672 0.0
H682 H 0.94738 0.54431 0.84005 0.0
H683 H 0.94946 0.57399 0.86371 0.0
H684 H 0.84386 0.48769 0.79231 0.0
H685 H 0.84488 0.55713 0.84901 0.0
H686 H 0.87414 0.4633 0.85898 0.0
H687 H 0.90917 0.49101 0.8354 0.0
H688 H 0.87292 0.46642 0.81112 0.0
H689 H 0.87609 0.54943 0.92823 0.0
H690 H 0.87604 0.57776 0.90027 0.0
H691 H 0.9113 0.57578 0.90387 0.0
C692 C 0.44053 0.94459 0.51147 0.0
C693 C 0.44869 0.97359 0.50121 0.0
C694 C 0.41357 0.91935 0.49691 0.0
C695 C 0.39443 0.92326 0.47156 0.0
C696 C 0.40126 0.95237 0.46312 0.0
C697 C 0.42826 0.97716 0.47811 0.0
C698 C 0.40686 0.88864 0.50688 0.0
C699 C 0.38134 0.95751 0.43638 0.0
C700 C 0.35359 0.86766 0.39785 0.0
C701 C 0.32146 0.85195 0.4085 0.0
C702 C 0.37764 0.89035 0.41869 0.0
C703 C 0.3694 0.89748 0.45106 0.0
C704 C 0.33716 0.88114 0.46251 0.0
C705 C 0.31355 0.85862 0.44102 0.0
C706 C 0.41176 0.90735 0.40544 0.0
C707 C 0.32754 0.88789 0.49703 0.0
H708 H 0.45613 0.9416 0.52937 0.0
H709 H 0.43421 0.99946 0.47029 0.0
H710 H 0.38103 0.87284 0.51248 0.0
H711 H 0.41312 0.87985 0.48422 0.0
H712 H 0.42092 0.88903 0.53053 0.0
H713 H 0.3879 0.98114 0.43536 0.0
H714 H 0.3848 0.95167 0.40949 0.0
H715 H 0.35553 0.94286 0.44283 0.0
H716 H 0.35983 0.86291 0.3726 0.0
H717 H 0.28883 0.84625 0.44963 0.0
H718 H 0.42781 0.90666 0.42599 0.0
H719 H 0.42003 0.9312 0.40039 0.0
H720 H 0.41438 0.8982 0.3805 0.0
H721 H 0.34232 0.88737 0.51931 0.0
H722 H 0.30187 0.87177 0.50335 0.0
H723 H 0.33193 0.91076 0.4954 0.0
C724 C 0.53783 0.43005 0.94021 0.0
C725 C 0.56413 0.44454 0.96355 0.0
C726 C 0.53531 0.40952 0.91514 0.0
C727 C 0.55977 0.40324 0.91284 0.0
C728 C 0.58647 0.41797 0.93611 0.0
C729 C 0.58828 0.43822 0.96104 0.0
C730 C 0.50629 0.39438 0.89118 0.0
C731 C 0.61337 0.41247 0.93457 0.0
C732 C 0.54062 0.33054 0.86946 0.0
C733 C 0.55238 0.34031 0.83466 0.0
C734 C 0.54295 0.35063 0.89503 0.0
C735 C 0.55758 0.38153 0.88599 0.0
C736 C 0.57007 0.39161 0.85114 0.0
C737 C 0.56723 0.37101 0.82605 0.0
C738 C 0.52916 0.33866 0.93164 0.0
C739 C 0.58612 0.42421 0.84011 0.0
H740 H 0.51884 0.43437 0.94189 0.0
H741 H 0.60901 0.44946 0.97829 0.0
H742 H 0.51379 0.39964 0.86289 0.0
H743 H 0.49364 0.36974 0.89509 0.0
H744 H 0.48923 0.40139 0.89628 0.0
H745 H 0.63249 0.42556 0.9544 0.0
H746 H 0.60392 0.38836 0.93948 0.0
H747 H 0.62414 0.41851 0.9076 0.0
H748 H 0.52887 0.30695 0.87658 0.0
H749 H 0.57638 0.37903 0.79937 0.0
H750 H 0.51007 0.34306 0.93683 0.0
H751 H 0.54799 0.35036 0.95217 0.0
H752 H 0.51891 0.31422 0.93481 0.0
H753 H 0.56886 0.43139 0.84195 0.0
H754 H 0.59548 0.42875 0.81248 0.0
H755 H 0.60627 0.43817 0.85845 0.0
C756 C 0.05873 0.41873 0.43618 0.0
C757 C 0.03439 0.42166 0.42104 0.0
C758 C 0.08015 0.41649 0.41475 0.0
C759 C 0.07727 0.41747 0.37726 0.0
C760 C 0.05174 0.41889 0.36183 0.0
C761 C 0.03047 0.42085 0.38398 0.0
C762 C 0.10683 0.41464 0.43223 0.0
C763 C 0.04803 0.42021 0.32196 0.0
C764 C 0.15477 0.45103 0.32602 0.0
C765 C 0.15298 0.42552 0.31344 0.0
C766 C 0.13 0.44866 0.3462 0.0
C767 C 0.1028 0.42004 0.3544 0.0
C768 C 0.10062 0.39417 0.34169 0.0
C769 C 0.1257 0.39722 0.32126 0.0
C770 C 0.13319 0.47683 0.35924 0.0
C771 C 0.07197 0.3633 0.35002 0.0
H772 H 0.06148 0.41899 0.46487 0.0
H773 H 1.01186 0.4234 0.37221 0.0
H774 H 0.10807 0.39618 0.42102 0.0
H775 H 0.1301 0.43574 0.42676 0.0
H776 H 0.10377 0.411 0.46154 0.0
H777 H 0.02506 0.41799 0.31426 0.0
H778 H 0.068 0.44191 0.31107 0.0
H779 H 0.0493 0.40225 0.30932 0.0
H780 H 0.17587 0.47295 0.32077 0.0
H781 H 0.12385 0.37742 0.31129 0.0
H782 H 0.13363 0.47664 0.38877 0.0
H783 H 0.11222 0.47786 0.35051 0.0
H784 H 0.15529 0.49742 0.34933 0.0
H785 H 0.06975 0.35909 0.37926 0.0
H786 H 0.07364 0.34547 0.33756 0.0
H787 H 0.04972 0.36171 0.34055 0.0
C788 C 0.637 0.07049 0.98047 0.0
C789 C 0.60531 0.06276 0.98545 0.0
C790 C 0.65673 0.09114 0.95357 0.0
C791 C 0.64487 0.10485 0.93052 0.0
C792 C 0.61275 0.09696 0.93502 0.0
C793 C 0.59344 0.07614 0.96233 0.0
C794 C 0.69054 0.09838 0.94997 0.0
C795 C 0.59888 0.11085 0.91133 0.0
C796 C 0.71136 0.1758 0.8814 0.0
C797 C 0.7142 0.16398 0.84985 0.0
C798 C 0.68758 0.15731 0.90702 0.0
C799 C 0.66599 0.12627 0.901 0.0
C800 C 0.66742 0.11496 0.86793 0.0
C801 C 0.69147 0.13376 0.84313 0.0
C802 C 0.68706 0.17058 0.94164 0.0
C803 C 0.64497 0.08235 0.85967 0.0
H804 H 0.64672 0.06057 0.99802 0.0
H805 H 0.56925 0.07084 0.96603 0.0
H806 H 0.6939 0.09231 0.92318 0.0
H807 H 0.70782 0.12278 0.95254 0.0
H808 H 0.69647 0.08634 0.97031 0.0
H809 H 0.57292 0.10071 0.91615 0.0
H810 H 0.61161 0.13518 0.91616 0.0
H811 H 0.60238 0.10835 0.88291 0.0
H812 H 0.7291 0.1989 0.88726 0.0
H813 H 0.69356 0.1243 0.81898 0.0
H814 H 0.69613 0.16229 0.96336 0.0
H815 H 0.6622 0.16346 0.94854 0.0
H816 H 0.70214 0.19542 0.94056 0.0
H817 H 0.65111 0.06856 0.87669 0.0
H818 H 0.64638 0.07781 0.83136 0.0
H819 H 0.61989 0.07501 0.8657 0.0
C820 C 0.56924 0.65966 0.52304 0.0
C821 C 0.55377 0.63182 0.50675 0.0
C822 C 0.58333 0.6864 0.5025 0.0
C823 C 0.58185 0.68511 0.4649 0.0
C824 C 0.56631 0.65709 0.44838 0.0
C825 C 0.55236 0.63085 0.46948 0.0
C826 C 0.59962 0.71594 0.52094 0.0
C827 C 0.56407 0.65475 0.40832 0.0
C828 C 0.58675 0.74577 0.4042 0.0
C829 C 0.61739 0.7586 0.38963 0.0
C830 C 0.57558 0.72304 0.43052 0.0
C831 C 0.59551 0.7128 0.44236 0.0
C832 C 0.62713 0.7268 0.42917 0.0
C833 C 0.63775 0.74968 0.40299 0.0
C834 C 0.54184 0.70889 0.4442 0.0
C835 C 0.64901 0.71638 0.44106 0.0
H836 H 0.57061 0.66055 0.55181 0.0
H837 H 0.53984 0.60948 0.45665 0.0
H838 H 0.62491 0.73016 0.5122 0.0
H839 H 0.58774 0.72815 0.51341 0.0
H840 H 0.59913 0.71311 0.55039 0.0
H841 H 0.55204 0.63124 0.39971 0.0
H842 H 0.5505 0.66449 0.39735 0.0
H843 H 0.58836 0.66772 0.39648 0.0
H844 H 0.57125 0.75314 0.39445 0.0
H845 H 0.66141 0.75956 0.39168 0.0
H846 H 0.54151 0.70725 0.4737 0.0
H847 H 0.52676 0.68581 0.4343 0.0
H848 H 0.53085 0.72168 0.43542 0.0
H849 H 0.64922 0.71425 0.47052 0.0
H850 H 0.67396 0.73185 0.43165 0.0
H851 H 0.64 0.69391 0.43042 0.0
C852 C 0.52661 0.11149 0.60604 0.0
C853 C 0.55483 0.12254 0.58637 0.0
C854 C 0.5242 0.12881 0.63219 0.0
C855 C 0.55079 0.15789 0.63957 0.0
C856 C 0.57941 0.16901 0.62 0.0
C857 C 0.581 0.15141 0.5937 0.0
C858 C 0.49306 0.11598 0.65193 0.0
C859 C 0.60863 0.19946 0.62718 0.0
C860 C 0.53731 0.21329 0.68799 0.0
C861 C 0.54384 0.20938 0.72365 0.0
C862 C 0.53955 0.19687 0.66046 0.0
C863 C 0.54902 0.17624 0.66841 0.0
C864 C 0.55664 0.17301 0.7042 0.0
C865 C 0.5537 0.18929 0.7312 0.0
C866 C 0.53087 0.20099 0.62292 0.0
C867 C 0.56744 0.15189 0.71418 0.0
H868 H 0.50616 0.08942 0.60054 0.0
H869 H 0.60312 0.16015 0.57926 0.0
H870 H 0.49694 0.11402 0.68081 0.0
H871 H 0.48421 0.13126 0.64871 0.0
H872 H 0.47426 0.09357 0.64241 0.0
H873 H 0.629 0.20508 0.60959 0.0
H874 H 0.60282 0.2169 0.62329 0.0
H875 H 0.61632 0.20026 0.65529 0.0
H876 H 0.52925 0.22836 0.68174 0.0
H877 H 0.55882 0.18596 0.75853 0.0
H878 H 0.51025 0.17945 0.61353 0.0
H879 H 0.55117 0.20767 0.60476 0.0
H880 H 0.52449 0.21816 0.62081 0.0
H881 H 0.54807 0.1286 0.70836 0.0
H882 H 0.57394 0.15289 0.7428 0.0
H883 H 0.58847 0.15729 0.69797 0.0
C884 C 0.44497 0.50035 0.03259 0.0
C885 C 0.45609 0.48158 0.04203 0.0
C886 C 0.41621 0.49505 0.04661 0.0
C887 C 0.39833 0.47048 0.07057 0.0
C888 C 0.40819 0.4502 0.07792 0.0
C889 C 0.4369 0.45596 0.06347 0.0
C890 C 0.40622 0.51694 0.03778 0.0
C891 C 0.38972 0.42364 0.10319 0.0
C892 C 0.35316 0.4777 0.14558 0.0
C893 C 0.32129 0.45936 0.13446 0.0
C894 C 0.37844 0.4821 0.12452 0.0
C895 C 0.37172 0.4679 0.09139 0.0
C896 C 0.33965 0.45 0.0795 0.0
C897 C 0.31477 0.44583 0.1013 0.0
C898 C 0.41233 0.5012 0.13829 0.0
C899 C 0.33162 0.43482 0.04416 0.0
H900 H 0.45957 0.52012 1.01589 0.0
H901 H 0.44513 0.44114 0.07055 0.0
H902 H 0.38022 0.50494 0.0318 0.0
H903 H 0.41076 0.53099 0.06111 0.0
H904 H 0.41965 0.53191 1.0147 0.0
H905 H 0.39859 0.4083 0.10303 0.0
H906 H 0.39197 0.4316 0.13066 0.0
H907 H 0.3639 0.41083 0.09623 0.0
H908 H 0.35831 0.48791 0.17135 0.0
H909 H 0.29019 0.43198 0.09238 0.0
H910 H 0.42739 0.51923 0.11852 0.0
H911 H 0.42287 0.48734 0.14226 0.0
H912 H 0.41356 0.51159 0.16394 0.0
H913 H 0.34561 0.45138 0.02255 0.0
H914 H 0.30573 0.42351 0.03761 0.0
H915 H 0.33832 0.4179 0.04468 0.0
C916 C 0.96589 0.41317 0.62434 0.0
C917 C 0.95071 0.41989 0.59698 0.0
C918 C 0.94794 0.39216 0.65225 0.0
C919 C 0.91396 0.37754 0.65312 0.0
C920 C 0.89881 0.38489 0.626 0.0
C921 C 0.91715 0.40568 0.59861 0.0
C922 C 0.96527 0.3852 0.6805 0.0
C923 C 0.86291 0.37041 0.62554 0.0
C924 C 0.85971 0.30169 0.70209 0.0
C925 C 0.85138 0.30987 0.73331 0.0
C926 C 0.88064 0.32338 0.67649 0.0
C927 C 0.89387 0.35431 0.6818 0.0
C928 C 0.88571 0.36271 0.71335 0.0
C929 C 0.86477 0.34058 0.73852 0.0
C930 C 0.88833 0.3131 0.6434 0.0
C931 C 0.89881 0.39519 0.72036 0.0
H932 H 0.99165 0.42375 0.62354 0.0
H933 H 0.90485 0.41064 0.57802 0.0
H934 H 0.9594 0.38912 0.70727 0.0
H935 H 0.95717 0.36121 0.67977 0.0
H936 H 0.99166 0.39897 0.67697 0.0
H937 H 0.85474 0.37897 0.60311 0.0
H938 H 0.85093 0.34584 0.62328 0.0
H939 H 0.85489 0.37447 0.65086 0.0
H940 H 0.84992 0.27822 0.6976 0.0
H941 H 0.8589 0.34746 0.76246 0.0
H942 H 0.91465 0.32454 0.64037 0.0
H943 H 0.8792 0.31924 0.61957 0.0
H944 H 0.87763 0.28853 0.64389 0.0
H945 H 0.92533 0.4083 0.71887 0.0
H946 H 0.89163 0.39832 0.74685 0.0
H947 H 0.89008 0.40457 0.69959 0.0
C948 C 0.60095 0.99961 0.1862 0.0
C949 C 0.61697 0.02143 0.15933 0.0
C950 C 0.61214 0.98144 0.19812 0.0
C951 C 0.63941 0.98464 0.1818 0.0
C952 C 0.65684 1.00797 0.15621 0.0
C953 C 0.64551 0.02635 0.1455 0.0
C954 C 0.59334 0.95736 0.22619 0.0
C955 C 0.68574 1.01186 0.1379 0.0
C956 C 0.67154 0.93898 0.22228 0.0
C957 C 0.65373 0.91251 0.20348 0.0
C958 C 0.66798 0.96325 0.21491 0.0
C959 C 0.64659 0.96093 0.18768 0.0
C960 C 0.62994 0.93471 0.16739 0.0
C961 C 0.6334 0.91065 0.17594 0.0
C962 C 0.68549 0.99047 0.23767 0.0
C963 C 0.60731 0.93151 0.1377 0.0
H964 H 0.57883 0.99595 0.19667 0.0
H965 H 0.65752 0.043 0.12431 0.0
H966 H 0.57939 0.93529 0.21347 0.0
H967 H 0.60967 0.95627 0.246 0.0
H968 H 0.57639 0.96115 0.24039 0.0
H969 H 0.69914 0.03342 0.12256 0.0
H970 H 0.70219 1.01079 0.15752 0.0
H971 H 0.67787 0.99334 0.11924 0.0
H972 H 0.68674 0.93994 0.24408 0.0
H973 H 0.61956 0.88993 0.1618 0.0
H974 H 0.66812 0.99103 0.25531 0.0
H975 H 0.6969 1.01127 0.22089 0.0
H976 H 0.70416 0.99039 0.25457 0.0
H977 H 0.58624 0.93059 0.14895 0.0
H978 H 0.59869 0.91094 0.12239 0.0
H979 H 0.61926 0.95118 0.11908 0.0
C980 C 0.61157 0.54738 0.60431 0.0
C981 C 0.58682 0.52324 0.58563 0.0
C982 C 0.63417 0.5447 0.62474 0.0
C983 C 0.63215 0.51696 0.62726 0.0
C984 C 0.60804 0.49274 0.60716 0.0
C985 C 0.58573 0.49616 0.58653 0.0
C986 C 0.65923 0.57131 0.64529 0.0
C987 C 0.60472 0.46272 0.60894 0.0
C988 C 0.70651 0.5223 0.66981 0.0
C989 C 0.69806 0.51639 0.70603 0.0
C990 C 0.68475 0.52081 0.6435 0.0
C991 C 0.6536 0.51318 0.65336 0.0
C992 C 0.64439 0.50542 0.68955 0.0
C993 C 0.66658 0.50719 0.71523 0.0
C994 C 0.69577 0.52906 0.6054 0.0
C995 C 0.61156 0.49688 0.70167 0.0
H996 H 0.61254 0.56834 0.60405 0.0
H997 H 0.56635 0.47716 0.57291 0.0
H998 H 0.65476 0.5664 0.67427 0.0
H999 H 0.6834 0.57577 0.63993 0.0
H1000 H 0.65921 0.59189 0.63848 0.0
H1001 H 0.58776 0.44741 0.58856 0.0
H1002 H 0.62834 0.46542 0.60521 0.0
H1003 H 0.59584 0.45209 0.63563 0.0
H1004 H 0.73068 0.52956 0.66215 0.0
H1005 H 0.65949 0.50237 0.74295 0.0
H1006 H 0.69931 0.55114 0.59822 0.0
H1007 H 0.67731 0.5125 0.58713 0.0
H1008 H 0.71865 0.5304 0.60101 0.0
H1009 H 0.60945 0.5167 0.69931 0.0
H1010 H 0.60678 0.4884 0.72974 0.0
H1011 H 0.59278 0.47944 0.68447 0.0
C1012 C 0.03331 0.61422 0.14437 0.0
C1013 C 0.04325 0.6037 0.11699 0.0
C1014 C 0.05561 0.63927 0.1638 0.0
C1015 C 0.08862 0.65388 0.15586 0.0
C1016 C 0.09862 0.64421 0.12718 0.0
C1017 C 0.07583 0.61934 0.10804 0.0
C1018 C 0.04399 0.64921 0.19387 0.0
C1019 C 0.13362 0.65898 0.11802 0.0
C1020 C 0.15058 0.72981 0.19249 0.0
C1021 C 0.16318 0.72165 0.22127 0.0
C1022 C 0.12557 0.708 0.17155 0.0
C1023 C 0.11302 0.67735 0.17945 0.0
C1024 C 0.12509 0.66897 0.20894 0.0
C1025 C 0.14985 0.69119 0.22955 0.0
C1026 C 0.11315 0.71776 0.14044 0.0
C1027 C 0.11238 0.6365 0.21826 0.0
H1028 H 1.00814 0.60239 0.15113 0.0
H1029 H 0.08386 0.6112 0.08732 0.0
H1030 H 0.05169 0.64423 0.21969 0.0
H1031 H 0.05472 0.67375 0.19195 0.0
H1032 H 1.01749 0.63779 0.19399 0.0
H1033 H 0.13722 0.65035 0.0932 0.0
H1034 H 0.14506 0.68354 0.11479 0.0
H1035 H 0.14619 0.6549 0.14012 0.0
H1036 H 0.16081 0.75325 0.18574 0.0
H1037 H 0.15882 0.68461 0.2522 0.0
H1038 H 0.08669 0.70606 0.14173 0.0
H1039 H 0.11905 0.71155 0.11518 0.0
H1040 H 0.12356 0.74229 0.13963 0.0
H1041 H 0.08611 0.62407 0.22229 0.0
H1042 H 0.12366 0.63373 0.24272 0.0
H1043 H 0.11688 0.62606 0.19593 0.0
loop_
_geom_bond_atom_site_label_1
_geom_bond_atom_site_label_2
_geom_bond_distance
_geom_bond_site_symmetry_2
_ccdc_geom_bond_type
Cu0 N1 1.999 1_454 S
Cu0 O6 1.974 1_454 S
Cu0 N11 1.985 . S
Cu0 O20 1.959 . S
N1 Cu0 1.999 1_656 S
N1 C3 1.263 . S
N1 C5 1.389 1_556 S
N2 C3 1.358 . S
N2 C4 1.400 . S
C3 N1 1.263 . S
C3 N2 1.358 . S
C3 H9 0.930 . S
C4 N2 1.400 . S
C4 C5 1.351 1_556 S
C4 H21 0.930 . S
C5 N1 1.389 1_554 S
C5 C4 1.351 1_554 S
C5 H10 0.930 . S
O6 Cu0 1.974 1_656 S
O6 C16 1.282 . S
C7 O8 1.261 . S
C7 O20 1.251 . S
O8 C7 1.261 . S
H9 C3 0.930 . S
H10 C5 0.930 . S
N11 Cu0 1.985 . S
N11 C13 1.335 . S
N11 C14 1.390 . S
N12 C13 1.345 . S
N12 C15 1.336 . S
C13 N11 1.335 . S
C13 N12 1.345 . S
C13 H18 0.930 . S
C14 N11 1.390 . S
C14 C15 1.346 . S
C14 H19 0.930 1_554 S
C15 N12 1.336 . S
C15 C14 1.346 . S
C15 H22 0.929 . S
C16 O6 1.282 . S
C16 O17 1.216 1_655 S
O17 C16 1.216 1_455 S
H18 C13 0.930 . S
H19 C14 0.930 1_556 S
O20 Cu0 1.959 . S
O20 C7 1.251 . S
H21 C4 0.930 . S
H22 C15 0.929 . S
Cu23 N24 1.999 . S
Cu23 O29 1.974 . S
Cu23 N34 1.985 1_565 S
Cu23 O43 1.959 1_565 S
N24 Cu23 1.999 . S
N24 C26 1.263 . S
N24 C28 1.389 . S
N25 C26 1.358 . S
N25 C27 1.400 . S
C26 N24 1.263 . S
C26 N25 1.358 . S
C26 H32 0.930 . S
C27 N25 1.400 . S
C27 C28 1.351 . S
C27 H44 0.930 . S
C28 N24 1.389 . S
C28 C27 1.351 . S
C28 H33 0.930 . S
O29 Cu23 1.974 . S
O29 C39 1.282 . S
C30 O31 1.261 . S
C30 O43 1.251 . S
O31 C30 1.261 . S
H32 C26 0.930 . S
H33 C28 0.930 . S
N34 Cu23 1.985 1_545 S
N34 C36 1.335 . S
N34 C37 1.390 . S
N35 C36 1.345 . S
N35 C38 1.336 . S
C36 N34 1.335 . S
C36 N35 1.345 . S
C36 H41 0.930 . S
C37 N34 1.390 . S
C37 C38 1.346 . S
C37 H42 0.930 . S
C38 N35 1.336 . S
C38 C37 1.346 . S
C38 H45 0.929 . S
C39 O29 1.282 . S
C39 O40 1.216 1_565 S
O40 C39 1.216 1_545 S
H41 C36 0.930 . S
H42 C37 0.930 . S
O43 Cu23 1.959 1_545 S
O43 C30 1.251 . S
H44 C27 0.930 . S
H45 C38 0.929 . S
Cu46 N47 1.999 1_554 S
Cu46 O52 1.974 1_554 S
Cu46 N57 1.985 . S
Cu46 O66 1.959 . S
N47 Cu46 1.999 1_556 S
N47 C49 1.263 . S
N47 C51 1.389 . S
N48 C49 1.358 . S
N48 C50 1.400 . S
C49 N47 1.263 . S
C49 N48 1.358 . S
C49 H55 0.930 . S
C50 N48 1.400 . S
C50 C51 1.351 . S
C50 H67 0.930 . S
C51 N47 1.389 . S
C51 C50 1.351 . S
C51 H56 0.930 . S
O52 Cu46 1.974 1_556 S
O52 C62 1.282 . S
C53 O54 1.261 . S
C53 O66 1.251 . S
O54 C53 1.261 . S
H55 C49 0.930 . S
H56 C51 0.930 . S
N57 Cu46 1.985 . S
N57 C59 1.335 . S
N57 C60 1.390 . S
N58 C59 1.345 . S
N58 C61 1.336 . S
C59 N57 1.335 . S
C59 N58 1.345 . S
C59 H64 0.930 . S
C60 N57 1.390 . S
C60 C61 1.346 . S
C60 H65 0.930 . S
C61 N58 1.336 . S
C61 C60 1.346 . S
C61 H68 0.929 . S
C62 O52 1.282 . S
C62 O63 1.216 1_556 S
O63 C62 1.216 1_554 S
H64 C59 0.930 . S
H65 C60 0.930 . S
O66 Cu46 1.959 . S
O66 C53 1.251 . S
H67 C50 0.930 . S
H68 C61 0.929 . S
Cu69 N70 1.999 1_655 S
Cu69 O75 1.974 1_655 S
Cu69 N80 1.985 . S
Cu69 O89 1.959 . S
N70 Cu69 1.999 1_455 S
N70 C72 1.263 . S
N70 C74 1.389 1_455 S
N71 C72 1.358 . S
N71 C73 1.400 . S
C72 N70 1.263 . S
C72 N71 1.358 . S
C72 H78 0.930 . S
C73 N71 1.400 . S
C73 C74 1.351 1_455 S
C73 H90 0.930 . S
C74 N70 1.389 1_655 S
C74 C73 1.351 1_655 S
C74 H79 0.930 . S
O75 Cu69 1.974 1_455 S
O75 C85 1.282 . S
C76 O77 1.261 1_655 S
C76 O89 1.251 . S
O77 C76 1.261 1_455 S
H78 C72 0.930 . S
H79 C74 0.930 . S
N80 Cu69 1.985 . S
N80 C82 1.335 . S
N80 C83 1.390 . S
N81 C82 1.345 . S
N81 C84 1.336 . S
C82 N80 1.335 . S
C82 N81 1.345 . S
C82 H87 0.930 . S
C83 N80 1.390 . S
C83 C84 1.346 . S
C83 H88 0.930 1_655 S
C84 N81 1.336 . S
C84 C83 1.346 . S
C84 H91 0.929 . S
C85 O75 1.282 . S
C85 O86 1.216 . S
O86 C85 1.216 . S
H87 C82 0.930 . S
H88 C83 0.930 1_455 S
O89 Cu69 1.959 . S
O89 C76 1.251 . S
H90 C73 0.930 . S
H91 C84 0.929 . S
Cu92 N93 1.999 . S
Cu92 O98 1.974 1_554 S
Cu92 N103 1.985 1_545 S
Cu92 O112 1.959 1_545 S
N93 Cu92 1.999 . S
N93 C95 1.263 1_554 S
N93 C97 1.389 . S
N94 C95 1.358 . S
N94 C96 1.423 . S
C95 N93 1.263 1_556 S
C95 N94 1.358 . S
C95 H101 0.930 . S
C96 N94 1.423 . S
C96 C97 1.336 1_556 S
C96 H113 0.925 1_556 S
C97 N93 1.389 . S
C97 C96 1.336 1_554 S
C97 H102 0.930 . S
O98 Cu92 1.974 1_556 S
O98 C108 1.282 . S
C99 O100 1.261 . S
C99 O112 1.251 . S
O100 C99 1.261 . S
H101 C95 0.930 . S
H102 C97 0.930 . S
N103 Cu92 1.985 1_565 S
N103 C105 1.335 . S
N103 C106 1.390 . S
N104 C105 1.345 . S
N104 C107 1.336 . S
C105 N103 1.335 . S
C105 N104 1.345 . S
C105 H110 0.930 . S
C106 N103 1.390 . S
C106 C107 1.346 . S
C106 H111 0.930 . S
C107 N104 1.336 . S
C107 C106 1.346 . S
C107 H114 0.929 . S
C108 O98 1.282 . S
C108 O109 1.216 . S
O109 C108 1.216 . S
H110 C105 0.930 . S
H111 C106 0.930 . S
O112 Cu92 1.959 1_565 S
O112 C99 1.251 . S
H113 C96 0.925 1_554 S
H114 C107 0.929 . S
Cu115 N116 1.999 . S
Cu115 O121 1.974 . S
Cu115 N126 1.985 . S
Cu115 O135 1.959 . S
N116 Cu115 1.999 . S
N116 C118 1.263 . S
N116 C120 1.389 . S
N117 C118 1.358 . S
N117 C119 1.400 . S
C118 N116 1.263 . S
C118 N117 1.358 . S
C118 H124 0.930 . S
C119 N117 1.400 . S
C119 C120 1.351 . S
C119 H136 0.930 . S
C120 N116 1.389 . S
C120 C119 1.351 . S
C120 H125 0.930 . S
O121 Cu115 1.974 . S
O121 C131 1.282 . S
C122 O123 1.261 . S
C122 O135 1.251 . S
O123 C122 1.261 . S
H124 C118 0.930 . S
H125 C120 0.930 . S
N126 Cu115 1.985 . S
N126 C128 1.335 . S
N126 C129 1.390 . S
N127 C128 1.345 . S
N127 C130 1.336 . S
C128 N126 1.335 . S
C128 N127 1.345 . S
C128 H133 0.930 . S
C129 N126 1.390 . S
C129 C130 1.346 . S
C129 H134 0.930 . S
C130 N127 1.336 . S
C130 C129 1.346 . S
C130 H137 0.929 . S
C131 O121 1.282 . S
C131 O132 1.216 . S
O132 C131 1.216 . S
H133 C128 0.930 . S
H134 C129 0.930 . S
O135 Cu115 1.959 . S
O135 C122 1.251 . S
H136 C119 0.930 . S
H137 C130 0.929 . S
Cu138 N139 1.999 . S
Cu138 O144 1.974 . S
Cu138 N149 1.985 . S
Cu138 O158 1.959 . S
N139 Cu138 1.999 . S
N139 C141 1.263 . S
N139 C143 1.389 . S
N140 C141 1.358 . S
N140 C142 1.400 . S
C141 N139 1.263 . S
C141 N140 1.358 . S
C141 H147 0.930 . S
C142 N140 1.400 . S
C142 C143 1.351 . S
C142 H159 0.930 . S
C143 N139 1.389 . S
C143 C142 1.351 . S
C143 H148 0.930 . S
O144 Cu138 1.974 . S
O144 C154 1.282 . S
C145 O146 1.261 . S
C145 O158 1.251 . S
O146 C145 1.261 . S
H147 C141 0.930 . S
H148 C143 0.930 . S
N149 Cu138 1.985 . S
N149 C151 1.335 . S
N149 C152 1.390 . S
N150 C151 1.345 . S
N150 C153 1.336 . S
C151 N149 1.335 . S
C151 N150 1.345 . S
C151 H156 0.930 . S
C152 N149 1.390 . S
C152 C153 1.346 . S
C152 H157 0.930 . S
C153 N150 1.336 . S
C153 C152 1.346 . S
C153 H160 0.929 . S
C154 O144 1.282 . S
C154 O155 1.216 . S
O155 C154 1.216 . S
H156 C151 0.930 . S
H157 C152 0.930 . S
O158 Cu138 1.959 . S
O158 C145 1.251 . S
H159 C142 0.930 . S
H160 C153 0.929 . S
Cu161 N162 1.999 . S
Cu161 O167 1.974 . S
Cu161 N172 1.985 . S
Cu161 O181 1.959 . S
N162 Cu161 1.999 . S
N162 C164 1.263 . S
N162 C166 1.389 . S
N163 C164 1.358 . S
N163 C165 1.400 . S
C164 N162 1.263 . S
C164 N163 1.358 . S
C164 H170 0.930 . S
C165 N163 1.400 . S
C165 C166 1.351 . S
C165 H182 0.930 . S
C166 N162 1.389 . S
C166 C165 1.351 . S
C166 H171 0.930 . S
O167 Cu161 1.974 . S
O167 C177 1.282 . S
C168 O169 1.261 . S
C168 O181 1.251 . S
O169 C168 1.261 . S
H170 C164 0.930 . S
H171 C166 0.930 . S
N172 Cu161 1.985 . S
N172 C174 1.335 . S
N172 C175 1.390 . S
N173 C174 1.345 . S
N173 C176 1.336 . S
C174 N172 1.335 . S
C174 N173 1.345 . S
C174 H179 0.930 . S
C175 N172 1.390 . S
C175 C176 1.346 . S
C175 H180 0.930 . S
C176 N173 1.336 . S
C176 C175 1.346 . S
C176 H183 0.929 . S
C177 O167 1.282 . S
C177 O178 1.216 . S
O178 C177 1.216 . S
H179 C174 0.930 . S
H180 C175 0.930 . S
O181 Cu161 1.959 . S
O181 C168 1.251 . S
H182 C165 0.930 . S
H183 C176 0.929 . S
Cu184 N185 1.999 . S
Cu184 O190 1.974 . S
Cu184 N195 1.985 . S
Cu184 O204 1.959 . S
N185 Cu184 1.999 . S
N185 C187 1.263 . S
N185 C189 1.389 . S
N186 C187 1.358 . S
N186 C188 1.400 . S
C187 N185 1.263 . S
C187 N186 1.358 . S
C187 H193 0.930 . S
C188 N186 1.400 . S
C188 C189 1.351 . S
C188 H205 0.930 . S
C189 N185 1.389 . S
C189 C188 1.351 . S
C189 H194 0.930 . S
O190 Cu184 1.974 . S
O190 C200 1.282 . S
C191 O192 1.261 . S
C191 O204 1.251 . S
O192 C191 1.261 . S
H193 C187 0.930 . S
H194 C189 0.930 . S
N195 Cu184 1.985 . S
N195 C197 1.335 . S
N195 C198 1.390 . S
N196 C197 1.345 . S
N196 C199 1.336 . S
C197 N195 1.335 . S
C197 N196 1.345 . S
C197 H202 0.930 . S
C198 N195 1.390 . S
C198 C199 1.346 . S
C198 H203 0.930 . S
C199 N196 1.336 . S
C199 C198 1.346 . S
C199 H206 0.929 . S
C200 O190 1.282 . S
C200 O201 1.216 . S
O201 C200 1.216 . S
H202 C197 0.930 . S
H203 C198 0.930 . S
O204 Cu184 1.959 . S
O204 C191 1.251 . S
H205 C188 0.930 . S
H206 C199 0.929 . S
Cu207 N208 1.999 . S
Cu207 O213 1.974 . S
Cu207 N218 1.985 . S
Cu207 O227 1.959 . S
N208 Cu207 1.999 . S
N208 C210 1.263 . S
N208 C212 1.389 . S
N209 C210 1.358 . S
N209 C211 1.400 . S
C210 N208 1.263 . S
C210 N209 1.358 . S
C210 H216 0.930 . S
C211 N209 1.400 . S
C211 C212 1.351 . S
C211 H228 0.930 . S
C212 N208 1.389 . S
C212 C211 1.351 . S
C212 H217 0.930 . S
O213 Cu207 1.974 . S
O213 C223 1.282 . S
C214 O215 1.261 . S
C214 O227 1.251 . S
O215 C214 1.261 . S
H216 C210 0.930 . S
H217 C212 0.930 . S
N218 Cu207 1.985 . S
N218 C220 1.335 . S
N218 C221 1.390 . S
N219 C220 1.345 . S
N219 C222 1.336 . S
C220 N218 1.335 . S
C220 N219 1.345 . S
C220 H225 0.930 . S
C221 N218 1.390 . S
C221 C222 1.346 . S
C221 H226 0.930 . S
C222 N219 1.336 . S
C222 C221 1.346 . S
C222 H229 0.929 . S
C223 O213 1.282 . S
C223 O224 1.216 . S
O224 C223 1.216 . S
H225 C220 0.930 . S
H226 C221 0.930 . S
O227 Cu207 1.959 . S
O227 C214 1.251 . S
H228 C211 0.930 . S
H229 C222 0.929 . S
Cu230 N231 1.999 . S
Cu230 O236 1.974 . S
Cu230 N241 1.985 . S
Cu230 O250 1.959 . S
N231 Cu230 1.999 . S
N231 C233 1.263 . S
N231 C235 1.389 . S
N232 C233 1.358 . S
N232 C234 1.400 . S
C233 N231 1.263 . S
C233 N232 1.358 . S
C233 H239 0.930 . S
C234 N232 1.400 . S
C234 C235 1.351 . S
C234 H251 0.930 . S
C235 N231 1.389 . S
C235 C234 1.351 . S
C235 H240 0.930 . S
O236 Cu230 1.974 . S
O236 C246 1.282 . S
C237 O238 1.261 . S
C237 O250 1.251 . S
O238 C237 1.261 . S
H239 C233 0.930 . S
H240 C235 0.930 . S
N241 Cu230 1.985 . S
N241 C243 1.335 . S
N241 C244 1.390 . S
N242 C243 1.345 . S
N242 C245 1.336 . S
C243 N241 1.335 . S
C243 N242 1.345 . S
C243 H248 0.930 . S
C244 N241 1.390 . S
C244 C245 1.346 . S
C244 H249 0.930 . S
C245 N242 1.336 . S
C245 C244 1.346 . S
C245 H252 0.929 . S
C246 O236 1.282 . S
C246 O247 1.216 . S
O247 C246 1.216 . S
H248 C243 0.930 . S
H249 C244 0.930 . S
O250 Cu230 1.959 . S
O250 C237 1.251 . S
H251 C234 0.930 . S
H252 C245 0.929 . S
Cu253 N254 1.999 . S
Cu253 O259 1.974 . S
Cu253 N264 1.985 . S
Cu253 O273 1.959 . S
N254 Cu253 1.999 . S
N254 C256 1.263 . S
N254 C258 1.389 . S
N255 C256 1.358 . S
N255 C257 1.400 . S
C256 N254 1.263 . S
C256 N255 1.358 . S
C256 H262 0.930 . S
C257 N255 1.400 . S
C257 C258 1.351 . S
C257 H274 0.930 . S
C258 N254 1.389 . S
C258 C257 1.351 . S
C258 H263 0.930 . S
O259 Cu253 1.974 . S
O259 C269 1.282 . S
C260 O261 1.261 . S
C260 O273 1.251 . S
O261 C260 1.261 . S
H262 C256 0.930 . S
H263 C258 0.930 . S
N264 Cu253 1.985 . S
N264 C266 1.335 . S
N264 C267 1.390 . S
N265 C266 1.345 . S
N265 C268 1.336 . S
C266 N264 1.335 . S
C266 N265 1.345 . S
C266 H271 0.930 . S
C267 N264 1.390 . S
C267 C268 1.346 . S
C267 H272 0.930 . S
C268 N265 1.336 . S
C268 C267 1.346 . S
C268 H275 0.929 . S
C269 O259 1.282 . S
C269 O270 1.216 . S
O270 C269 1.216 . S
H271 C266 0.930 . S
H272 C267 0.930 . S
O273 Cu253 1.959 . S
O273 C260 1.251 . S
H274 C257 0.930 . S
H275 C268 0.929 . S
C276 C277 1.391 . S
C276 C278 1.394 . S
C276 H292 0.931 . S
C277 C276 1.391 . S
C277 C281 1.376 . S
C278 C276 1.394 . S
C278 C279 1.369 . S
C278 C282 1.531 . S
C279 C278 1.369 . S
C279 C280 1.410 . S
C279 C287 1.503 . S
C280 C279 1.410 . S
C280 C281 1.392 . S
C280 C283 1.511 . S
C281 C277 1.376 . S
C281 C280 1.392 . S
C281 H293 0.929 . S
C282 C278 1.531 . S
C282 H294 0.960 . S
C282 H295 0.962 . S
C282 H296 0.960 . S
C283 C280 1.511 . S
C283 H297 0.961 . S
C283 H298 0.961 . S
C283 H299 0.961 . S
C284 C285 1.370 . S
C284 C286 1.363 . S
C284 H300 0.931 . S
C285 C284 1.370 . S
C285 C289 1.408 . S
C286 C284 1.363 . S
C286 C287 1.370 . S
C286 C290 1.524 . S
C287 C279 1.503 . S
C287 C286 1.370 . S
C287 C288 1.403 . S
C288 C287 1.403 . S
C288 C289 1.404 . S
C288 C291 1.539 . S
C289 C285 1.408 . S
C289 C288 1.404 . S
C289 H301 0.930 . S
C290 C286 1.524 . S
C290 H302 0.956 . S
C290 H303 0.961 . S
C290 H304 0.961 . S
C291 C288 1.539 . S
C291 H305 0.958 . S
C291 H306 0.961 . S
C291 H307 0.960 . S
H292 C276 0.931 . S
H293 C281 0.929 . S
H294 C282 0.960 . S
H295 C282 0.962 . S
H296 C282 0.960 . S
H297 C283 0.961 . S
H298 C283 0.961 . S
H299 C283 0.961 . S
H300 C284 0.931 . S
H301 C289 0.930 . S
H302 C290 0.956 . S
H303 C290 0.961 . S
H304 C290 0.961 . S
H305 C291 0.958 . S
H306 C291 0.961 . S
H307 C291 0.960 . S
C308 C309 1.391 . S
C308 C310 1.394 . S
C308 H324 0.931 . S
C309 C308 1.391 . S
C309 C313 1.376 . S
C310 C308 1.394 . S
C310 C311 1.369 . S
C310 C314 1.531 . S
C311 C310 1.369 . S
C311 C312 1.410 . S
C311 C319 1.503 . S
C312 C311 1.410 . S
C312 C313 1.392 . S
C312 C315 1.511 . S
C313 C309 1.376 . S
C313 C312 1.392 . S
C313 H325 0.929 . S
C314 C310 1.531 . S
C314 H326 0.960 . S
C314 H327 0.962 . S
C314 H328 0.960 . S
C315 C312 1.511 . S
C315 H329 0.961 . S
C315 H330 0.961 . S
C315 H331 0.961 . S
C316 C317 1.370 . S
C316 C318 1.363 . S
C316 H332 0.931 . S
C317 C316 1.370 . S
C317 C321 1.408 . S
C318 C316 1.363 . S
C318 C319 1.370 . S
C318 C322 1.524 . S
C319 C311 1.503 . S
C319 C318 1.370 . S
C319 C320 1.403 . S
C320 C319 1.403 . S
C320 C321 1.404 . S
C320 C323 1.539 . S
C321 C317 1.408 . S
C321 C320 1.404 . S
C321 H333 0.930 . S
C322 C318 1.524 . S
C322 H334 0.956 . S
C322 H335 0.961 . S
C322 H336 0.961 . S
C323 C320 1.539 . S
C323 H337 0.958 . S
C323 H338 0.961 . S
C323 H339 0.960 . S
H324 C308 0.931 . S
H325 C313 0.929 . S
H326 C314 0.960 . S
H327 C314 0.962 . S
H328 C314 0.960 . S
H329 C315 0.961 . S
H330 C315 0.961 . S
H331 C315 0.961 . S
H332 C316 0.931 . S
H333 C321 0.930 . S
H334 C322 0.956 . S
H335 C322 0.961 . S
H336 C322 0.961 . S
H337 C323 0.958 . S
H338 C323 0.961 . S
H339 C323 0.960 . S
C340 C341 1.391 . S
C340 C342 1.394 . S
C340 H356 0.931 . S
C341 C340 1.391 . S
C341 C345 1.376 . S
C342 C340 1.394 . S
C342 C343 1.369 . S
C342 C346 1.531 . S
C343 C342 1.369 . S
C343 C344 1.410 . S
C343 C351 1.503 . S
C344 C343 1.410 . S
C344 C345 1.392 . S
C344 C347 1.511 . S
C345 C341 1.376 . S
C345 C344 1.392 . S
C345 H357 0.929 . S
C346 C342 1.531 . S
C346 H358 0.960 . S
C346 H359 0.962 . S
C346 H360 0.960 . S
C347 C344 1.511 . S
C347 H361 0.961 . S
C347 H362 0.961 . S
C347 H363 0.961 . S
C348 C349 1.370 . S
C348 C350 1.363 . S
C348 H364 0.931 . S
C349 C348 1.370 . S
C349 C353 1.408 . S
C350 C348 1.363 . S
C350 C351 1.370 . S
C350 C354 1.524 . S
C351 C343 1.503 . S
C351 C350 1.370 . S
C351 C352 1.403 . S
C352 C351 1.403 . S
C352 C353 1.404 . S
C352 C355 1.539 . S
C353 C349 1.408 . S
C353 C352 1.404 . S
C353 H365 0.930 . S
C354 C350 1.524 . S
C354 H366 0.956 . S
C354 H367 0.961 . S
C354 H368 0.961 . S
C355 C352 1.539 . S
C355 H369 0.958 . S
C355 H370 0.961 . S
C355 H371 0.960 . S
H356 C340 0.931 . S
H357 C345 0.929 . S
H358 C346 0.960 . S
H359 C346 0.962 . S
H360 C346 0.960 . S
H361 C347 0.961 . S
H362 C347 0.961 . S
H363 C347 0.961 . S
H364 C348 0.931 . S
H365 C353 0.930 . S
H366 C354 0.956 . S
H367 C354 0.961 . S
H368 C354 0.961 . S
H369 C355 0.958 . S
H370 C355 0.961 . S
H371 C355 0.960 . S
C372 C373 1.391 . S
C372 C374 1.394 . S
C372 H388 0.931 . S
C373 C372 1.391 . S
C373 C377 1.376 . S
C374 C372 1.394 . S
C374 C375 1.369 . S
C374 C378 1.531 . S
C375 C374 1.369 . S
C375 C376 1.410 . S
C375 C383 1.503 . S
C376 C375 1.410 . S
C376 C377 1.392 . S
C376 C379 1.511 . S
C377 C373 1.376 . S
C377 C376 1.392 . S
C377 H389 0.929 . S
C378 C374 1.531 . S
C378 H390 0.960 . S
C378 H391 0.962 . S
C378 H392 0.960 . S
C379 C376 1.511 . S
C379 H393 0.961 . S
C379 H394 0.961 . S
C379 H395 0.961 . S
C380 C381 1.370 . S
C380 C382 1.363 . S
C380 H396 0.931 . S
C381 C380 1.370 . S
C381 C385 1.408 . S
C382 C380 1.363 . S
C382 C383 1.370 . S
C382 C386 1.524 . S
C383 C375 1.503 . S
C383 C382 1.370 . S
C383 C384 1.403 . S
C384 C383 1.403 . S
C384 C385 1.404 . S
C384 C387 1.539 . S
C385 C381 1.408 . S
C385 C384 1.404 . S
C385 H397 0.930 . S
C386 C382 1.524 . S
C386 H398 0.956 . S
C386 H399 0.961 . S
C386 H400 0.961 . S
C387 C384 1.539 . S
C387 H401 0.958 . S
C387 H402 0.961 . S
C387 H403 0.960 . S
H388 C372 0.931 . S
H389 C377 0.929 . S
H390 C378 0.960 . S
H391 C378 0.962 . S
H392 C378 0.960 . S
H393 C379 0.961 . S
H394 C379 0.961 . S
H395 C379 0.961 . S
H396 C380 0.931 . S
H397 C385 0.930 . S
H398 C386 0.956 . S
H399 C386 0.961 . S
H400 C386 0.961 . S
H401 C387 0.958 . S
H402 C387 0.961 . S
H403 C387 0.960 . S
C404 C405 1.391 . S
C404 C406 1.394 . S
C404 H420 0.931 . S
C405 C404 1.391 . S
C405 C409 1.376 . S
C406 C404 1.394 . S
C406 C407 1.369 . S
C406 C410 1.531 . S
C407 C406 1.369 . S
C407 C408 1.410 . S
C407 C415 1.503 . S
C408 C407 1.410 . S
C408 C409 1.392 . S
C408 C411 1.511 . S
C409 C405 1.376 . S
C409 C408 1.392 . S
C409 H421 0.929 . S
C410 C406 1.531 . S
C410 H422 0.960 . S
C410 H423 0.962 . S
C410 H424 0.960 . S
C411 C408 1.511 . S
C411 H425 0.961 . S
C411 H426 0.961 . S
C411 H427 0.961 . S
C412 C413 1.370 . S
C412 C414 1.363 . S
C412 H428 0.931 . S
C413 C412 1.370 . S
C413 C417 1.408 . S
C414 C412 1.363 . S
C414 C415 1.370 . S
C414 C418 1.524 . S
C415 C407 1.503 . S
C415 C414 1.370 . S
C415 C416 1.403 . S
C416 C415 1.403 . S
C416 C417 1.404 . S
C416 C419 1.539 . S
C417 C413 1.408 . S
C417 C416 1.404 . S
C417 H429 0.930 . S
C418 C414 1.524 . S
C418 H430 0.956 . S
C418 H431 0.961 . S
C418 H432 0.961 . S
C419 C416 1.539 . S
C419 H433 0.958 . S
C419 H434 0.961 . S
C419 H435 0.960 . S
H420 C404 0.931 . S
H421 C409 0.929 . S
H422 C410 0.960 . S
H423 C410 0.962 . S
H424 C410 0.960 . S
H425 C411 0.961 . S
H426 C411 0.961 . S
H427 C411 0.961 . S
H428 C412 0.931 . S
H429 C417 0.930 . S
H430 C418 0.956 . S
H431 C418 0.961 . S
H432 C418 0.961 . S
H433 C419 0.958 . S
H434 C419 0.961 . S
H435 C419 0.960 . S
C436 C437 1.391 . S
C436 C438 1.394 . S
C436 H452 0.931 . S
C437 C436 1.391 . S
C437 C441 1.376 . S
C438 C436 1.394 . S
C438 C439 1.369 . S
C438 C442 1.531 . S
C439 C438 1.369 . S
C439 C440 1.410 . S
C439 C447 1.503 . S
C440 C439 1.410 . S
C440 C441 1.392 . S
C440 C443 1.511 . S
C441 C437 1.376 . S
C441 C440 1.392 . S
C441 H453 0.929 . S
C442 C438 1.531 . S
C442 H454 0.960 . S
C442 H455 0.962 . S
C442 H456 0.960 . S
C443 C440 1.511 . S
C443 H457 0.961 . S
C443 H458 0.961 . S
C443 H459 0.961 . S
C444 C445 1.370 . S
C444 C446 1.363 . S
C444 H460 0.931 . S
C445 C444 1.370 . S
C445 C449 1.408 . S
C446 C444 1.363 . S
C446 C447 1.370 . S
C446 C450 1.524 . S
C447 C439 1.503 . S
C447 C446 1.370 . S
C447 C448 1.403 . S
C448 C447 1.403 . S
C448 C449 1.404 . S
C448 C451 1.539 . S
C449 C445 1.408 . S
C449 C448 1.404 . S
C449 H461 0.930 . S
C450 C446 1.524 . S
C450 H462 0.956 . S
C450 H463 0.961 . S
C450 H464 0.961 . S
C451 C448 1.539 . S
C451 H465 0.958 . S
C451 H466 0.961 . S
C451 H467 0.960 . S
H452 C436 0.931 . S
H453 C441 0.929 . S
H454 C442 0.960 . S
H455 C442 0.962 . S
H456 C442 0.960 . S
H457 C443 0.961 . S
H458 C443 0.961 . S
H459 C443 0.961 . S
H460 C444 0.931 . S
H461 C449 0.930 . S
H462 C450 0.956 . S
H463 C450 0.961 . S
H464 C450 0.961 . S
H465 C451 0.958 . S
H466 C451 0.961 . S
H467 C451 0.960 . S
C468 C469 1.391 . S
C468 C470 1.394 . S
C468 H484 0.931 . S
C469 C468 1.391 . S
C469 C473 1.376 . S
C470 C468 1.394 . S
C470 C471 1.369 . S
C470 C474 1.531 . S
C471 C470 1.369 . S
C471 C472 1.410 . S
C471 C479 1.503 . S
C472 C471 1.410 . S
C472 C473 1.392 . S
C472 C475 1.511 . S
C473 C469 1.376 . S
C473 C472 1.392 . S
C473 H485 0.929 . S
C474 C470 1.531 . S
C474 H486 0.960 . S
C474 H487 0.962 . S
C474 H488 0.960 . S
C475 C472 1.511 . S
C475 H489 0.961 . S
C475 H490 0.961 . S
C475 H491 0.961 . S
C476 C477 1.370 . S
C476 C478 1.363 . S
C476 H492 0.931 . S
C477 C476 1.370 . S
C477 C481 1.408 . S
C478 C476 1.363 . S
C478 C479 1.370 . S
C478 C482 1.524 . S
C479 C471 1.503 . S
C479 C478 1.370 . S
C479 C480 1.403 . S
C480 C479 1.403 . S
C480 C481 1.404 . S
C480 C483 1.539 . S
C481 C477 1.408 . S
C481 C480 1.404 . S
C481 H493 0.930 . S
C482 C478 1.524 . S
C482 H494 0.956 . S
C482 H495 0.961 . S
C482 H496 0.961 . S
C483 C480 1.539 . S
C483 H497 0.958 . S
C483 H498 0.961 . S
C483 H499 0.960 . S
H484 C468 0.931 . S
H485 C473 0.929 . S
H486 C474 0.960 . S
H487 C474 0.962 . S
H488 C474 0.960 . S
H489 C475 0.961 . S
H490 C475 0.961 . S
H491 C475 0.961 . S
H492 C476 0.931 . S
H493 C481 0.930 . S
H494 C482 0.956 . S
H495 C482 0.961 . S
H496 C482 0.961 . S
H497 C483 0.958 . S
H498 C483 0.961 . S
H499 C483 0.960 . S
C500 C501 1.391 . S
C500 C502 1.394 . S
C500 H516 0.931 . S
C501 C500 1.391 . S
C501 C505 1.376 . S
C502 C500 1.394 . S
C502 C503 1.369 . S
C502 C506 1.531 . S
C503 C502 1.369 . S
C503 C504 1.410 . S
C503 C511 1.503 . S
C504 C503 1.410 . S
C504 C505 1.392 . S
C504 C507 1.511 . S
C505 C501 1.376 . S
C505 C504 1.392 . S
C505 H517 0.929 . S
C506 C502 1.531 . S
C506 H518 0.960 . S
C506 H519 0.962 . S
C506 H520 0.960 . S
C507 C504 1.511 . S
C507 H521 0.961 . S
C507 H522 0.961 . S
C507 H523 0.961 . S
C508 C509 1.370 . S
C508 C510 1.363 . S
C508 H524 0.931 . S
C509 C508 1.370 . S
C509 C513 1.408 . S
C510 C508 1.363 . S
C510 C511 1.370 . S
C510 C514 1.524 . S
C511 C503 1.503 . S
C511 C510 1.370 . S
C511 C512 1.403 . S
C512 C511 1.403 . S
C512 C513 1.404 . S
C512 C515 1.539 . S
C513 C509 1.408 . S
C513 C512 1.404 . S
C513 H525 0.930 . S
C514 C510 1.524 . S
C514 H526 0.956 . S
C514 H527 0.961 . S
C514 H528 0.961 . S
C515 C512 1.539 . S
C515 H529 0.958 . S
C515 H530 0.961 . S
C515 H531 0.960 . S
H516 C500 0.931 . S
H517 C505 0.929 . S
H518 C506 0.960 . S
H519 C506 0.962 . S
H520 C506 0.960 . S
H521 C507 0.961 . S
H522 C507 0.961 . S
H523 C507 0.961 . S
H524 C508 0.931 . S
H525 C513 0.930 . S
H526 C514 0.956 . S
H527 C514 0.961 . S
H528 C514 0.961 . S
H529 C515 0.958 . S
H530 C515 0.961 . S
H531 C515 0.960 . S
C532 C533 1.391 . S
C532 C534 1.394 . S
C532 H548 0.931 . S
C533 C532 1.391 . S
C533 C537 1.376 . S
C534 C532 1.394 . S
C534 C535 1.369 . S
C534 C538 1.531 . S
C535 C534 1.369 . S
C535 C536 1.410 . S
C535 C543 1.503 . S
C536 C535 1.410 . S
C536 C537 1.392 . S
C536 C539 1.511 . S
C537 C533 1.376 . S
C537 C536 1.392 . S
C537 H549 0.929 . S
C538 C534 1.531 . S
C538 H550 0.960 . S
C538 H551 0.962 . S
C538 H552 0.960 . S
C539 C536 1.511 . S
C539 H553 0.961 . S
C539 H554 0.961 . S
C539 H555 0.961 . S
C540 C541 1.370 . S
C540 C542 1.363 . S
C540 H556 0.931 . S
C541 C540 1.370 . S
C541 C545 1.408 . S
C542 C540 1.363 . S
C542 C543 1.370 . S
C542 C546 1.524 . S
C543 C535 1.503 . S
C543 C542 1.370 . S
C543 C544 1.403 . S
C544 C543 1.403 . S
C544 C545 1.404 . S
C544 C547 1.539 . S
C545 C541 1.408 . S
C545 C544 1.404 . S
C545 H557 0.930 . S
C546 C542 1.524 . S
C546 H558 0.956 . S
C546 H559 0.961 . S
C546 H560 0.961 . S
C547 C544 1.539 . S
C547 H561 0.958 . S
C547 H562 0.961 . S
C547 H563 0.960 . S
H548 C532 0.931 . S
H549 C537 0.929 . S
H550 C538 0.960 . S
H551 C538 0.962 . S
H552 C538 0.960 . S
H553 C539 0.961 . S
H554 C539 0.961 . S
H555 C539 0.961 . S
H556 C540 0.931 . S
H557 C545 0.930 . S
H558 C546 0.956 . S
H559 C546 0.961 . S
H560 C546 0.961 . S
H561 C547 0.958 . S
H562 C547 0.961 . S
H563 C547 0.960 . S
C564 C565 1.391 . S
C564 C566 1.394 . S
C564 H580 0.931 . S
C565 C564 1.391 . S
C565 C569 1.376 . S
C566 C564 1.394 . S
C566 C567 1.369 . S
C566 C570 1.531 . S
C567 C566 1.369 . S
C567 C568 1.410 . S
C567 C575 1.503 . S
C568 C567 1.410 . S
C568 C569 1.392 . S
C568 C571 1.511 . S
C569 C565 1.376 . S
C569 C568 1.392 . S
C569 H581 0.929 . S
C570 C566 1.531 . S
C570 H582 0.960 . S
C570 H583 0.962 . S
C570 H584 0.960 . S
C571 C568 1.511 . S
C571 H585 0.961 . S
C571 H586 0.961 . S
C571 H587 0.961 . S
C572 C573 1.370 . S
C572 C574 1.363 . S
C572 H588 0.931 . S
C573 C572 1.370 . S
C573 C577 1.408 . S
C574 C572 1.363 . S
C574 C575 1.370 . S
C574 C578 1.524 . S
C575 C567 1.503 . S
C575 C574 1.370 . S
C575 C576 1.403 . S
C576 C575 1.403 . S
C576 C577 1.404 . S
C576 C579 1.539 . S
C577 C573 1.408 . S
C577 C576 1.404 . S
C577 H589 0.930 . S
C578 C574 1.524 . S
C578 H590 0.956 . S
C578 H591 0.961 . S
C578 H592 0.961 . S
C579 C576 1.539 . S
C579 H593 0.958 . S
C579 H594 0.961 . S
C579 H595 0.960 . S
H580 C564 0.931 . S
H581 C569 0.929 . S
H582 C570 0.960 . S
H583 C570 0.962 . S
H584 C570 0.960 . S
H585 C571 0.961 . S
H586 C571 0.961 . S
H587 C571 0.961 . S
H588 C572 0.931 . S
H589 C577 0.930 . S
H590 C578 0.956 . S
H591 C578 0.961 . S
H592 C578 0.961 . S
H593 C579 0.958 . S
H594 C579 0.961 . S
H595 C579 0.960 . S
C596 C597 1.391 . S
C596 C598 1.394 . S
C596 H612 0.931 . S
C597 C596 1.391 . S
C597 C601 1.376 . S
C598 C596 1.394 . S
C598 C599 1.369 . S
C598 C602 1.531 . S
C599 C598 1.369 . S
C599 C600 1.410 . S
C599 C607 1.503 . S
C600 C599 1.410 . S
C600 C601 1.392 . S
C600 C603 1.511 . S
C601 C597 1.376 . S
C601 C600 1.392 . S
C601 H613 0.929 . S
C602 C598 1.531 . S
C602 H614 0.960 . S
C602 H615 0.962 . S
C602 H616 0.960 . S
C603 C600 1.511 . S
C603 H617 0.961 . S
C603 H618 0.961 . S
C603 H619 0.961 . S
C604 C605 1.370 . S
C604 C606 1.363 . S
C604 H620 0.931 . S
C605 C604 1.370 . S
C605 C609 1.408 . S
C606 C604 1.363 . S
C606 C607 1.370 . S
C606 C610 1.524 . S
C607 C599 1.503 . S
C607 C606 1.370 . S
C607 C608 1.403 . S
C608 C607 1.403 . S
C608 C609 1.404 . S
C608 C611 1.539 . S
C609 C605 1.408 . S
C609 C608 1.404 . S
C609 H621 0.930 . S
C610 C606 1.524 . S
C610 H622 0.956 . S
C610 H623 0.961 . S
C610 H624 0.961 . S
C611 C608 1.539 . S
C611 H625 0.958 . S
C611 H626 0.961 . S
C611 H627 0.960 . S
H612 C596 0.931 . S
H613 C601 0.929 . S
H614 C602 0.960 . S
H615 C602 0.962 . S
H616 C602 0.960 . S
H617 C603 0.961 . S
H618 C603 0.961 . S
H619 C603 0.961 . S
H620 C604 0.931 . S
H621 C609 0.930 . S
H622 C610 0.956 . S
H623 C610 0.961 . S
H624 C610 0.961 . S
H625 C611 0.958 . S
H626 C611 0.961 . S
H627 C611 0.960 . S
C628 C629 1.391 . S
C628 C630 1.394 . S
C628 H644 0.931 . S
C629 C628 1.391 . S
C629 C633 1.376 . S
C630 C628 1.394 . S
C630 C631 1.369 . S
C630 C634 1.531 . S
C631 C630 1.369 . S
C631 C632 1.410 . S
C631 C639 1.503 . S
C632 C631 1.410 . S
C632 C633 1.392 . S
C632 C635 1.511 . S
C633 C629 1.376 . S
C633 C632 1.392 . S
C633 H645 0.929 . S
C634 C630 1.531 . S
C634 H646 0.960 . S
C634 H647 0.962 . S
C634 H648 0.960 . S
C635 C632 1.511 . S
C635 H649 0.961 . S
C635 H650 0.961 . S
C635 H651 0.961 . S
C636 C637 1.370 . S
C636 C638 1.363 . S
C636 H652 0.931 . S
C637 C636 1.370 . S
C637 C641 1.408 . S
C638 C636 1.363 . S
C638 C639 1.370 . S
C638 C642 1.524 . S
C639 C631 1.503 . S
C639 C638 1.370 . S
C639 C640 1.403 . S
C640 C639 1.403 . S
C640 C641 1.404 . S
C640 C643 1.539 . S
C641 C637 1.408 . S
C641 C640 1.404 . S
C641 H653 0.930 . S
C642 C638 1.524 . S
C642 H654 0.956 . S
C642 H655 0.961 . S
C642 H656 0.961 . S
C643 C640 1.539 . S
C643 H657 0.958 . S
C643 H658 0.961 . S
C643 H659 0.960 . S
H644 C628 0.931 . S
H645 C633 0.929 . S
H646 C634 0.960 . S
H647 C634 0.962 . S
H648 C634 0.960 . S
H649 C635 0.961 . S
H650 C635 0.961 . S
H651 C635 0.961 . S
H652 C636 0.931 . S
H653 C641 0.930 . S
H654 C642 0.956 . S
H655 C642 0.961 . S
H656 C642 0.961 . S
H657 C643 0.958 . S
H658 C643 0.961 . S
H659 C643 0.960 . S
C660 C661 1.391 . S
C660 C662 1.394 . S
C660 H676 0.931 . S
C661 C660 1.391 . S
C661 C665 1.376 . S
C662 C660 1.394 . S
C662 C663 1.369 . S
C662 C666 1.531 . S
C663 C662 1.369 . S
C663 C664 1.410 . S
C663 C671 1.503 . S
C664 C663 1.410 . S
C664 C665 1.392 . S
C664 C667 1.511 . S
C665 C661 1.376 . S
C665 C664 1.392 . S
C665 H677 0.929 . S
C666 C662 1.531 . S
C666 H678 0.960 . S
C666 H679 0.962 . S
C666 H680 0.960 . S
C667 C664 1.511 . S
C667 H681 0.961 . S
C667 H682 0.961 . S
C667 H683 0.961 . S
C668 C669 1.370 . S
C668 C670 1.363 . S
C668 H684 0.931 . S
C669 C668 1.370 . S
C669 C673 1.408 . S
C670 C668 1.363 . S
C670 C671 1.370 . S
C670 C674 1.524 . S
C671 C663 1.503 . S
C671 C670 1.370 . S
C671 C672 1.403 . S
C672 C671 1.403 . S
C672 C673 1.404 . S
C672 C675 1.539 . S
C673 C669 1.408 . S
C673 C672 1.404 . S
C673 H685 0.930 . S
C674 C670 1.524 . S
C674 H686 0.956 . S
C674 H687 0.961 . S
C674 H688 0.961 . S
C675 C672 1.539 . S
C675 H689 0.958 . S
C675 H690 0.961 . S
C675 H691 0.960 . S
H676 C660 0.931 . S
H677 C665 0.929 . S
H678 C666 0.960 . S
H679 C666 0.962 . S
H680 C666 0.960 . S
H681 C667 0.961 . S
H682 C667 0.961 . S
H683 C667 0.961 . S
H684 C668 0.931 . S
H685 C673 0.930 . S
H686 C674 0.956 . S
H687 C674 0.961 . S
H688 C674 0.961 . S
H689 C675 0.958 . S
H690 C675 0.961 . S
H691 C675 0.960 . S
C692 C693 1.391 . S
C692 C694 1.394 . S
C692 H708 0.931 . S
C693 C692 1.391 . S
C693 C697 1.376 . S
C694 C692 1.394 . S
C694 C695 1.369 . S
C694 C698 1.531 . S
C695 C694 1.369 . S
C695 C696 1.410 . S
C695 C703 1.503 . S
C696 C695 1.410 . S
C696 C697 1.392 . S
C696 C699 1.511 . S
C697 C693 1.376 . S
C697 C696 1.392 . S
C697 H709 0.929 . S
C698 C694 1.531 . S
C698 H710 0.960 . S
C698 H711 0.962 . S
C698 H712 0.960 . S
C699 C696 1.511 . S
C699 H713 0.961 . S
C699 H714 0.961 . S
C699 H715 0.961 . S
C700 C701 1.370 . S
C700 C702 1.363 . S
C700 H716 0.931 . S
C701 C700 1.370 . S
C701 C705 1.408 . S
C702 C700 1.363 . S
C702 C703 1.370 . S
C702 C706 1.524 . S
C703 C695 1.503 . S
C703 C702 1.370 . S
C703 C704 1.403 . S
C704 C703 1.403 . S
C704 C705 1.404 . S
C704 C707 1.539 . S
C705 C701 1.408 . S
C705 C704 1.404 . S
C705 H717 0.930 . S
C706 C702 1.524 . S
C706 H718 0.956 . S
C706 H719 0.961 . S
C706 H720 0.961 . S
C707 C704 1.539 . S
C707 H721 0.958 . S
C707 H722 0.961 . S
C707 H723 0.960 . S
H708 C692 0.931 . S
H709 C697 0.929 . S
H710 C698 0.960 . S
H711 C698 0.962 . S
H712 C698 0.960 . S
H713 C699 0.961 . S
H714 C699 0.961 . S
H715 C699 0.961 . S
H716 C700 0.931 . S
H717 C705 0.930 . S
H718 C706 0.956 . S
H719 C706 0.961 . S
H720 C706 0.961 . S
H721 C707 0.958 . S
H722 C707 0.961 . S
H723 C707 0.960 . S
C724 C725 1.391 . S
C724 C726 1.394 . S
C724 H740 0.931 . S
C725 C724 1.391 . S
C725 C729 1.376 . S
C726 C724 1.394 . S
C726 C727 1.369 . S
C726 C730 1.531 . S
C727 C726 1.369 . S
C727 C728 1.410 . S
C727 C735 1.503 . S
C728 C727 1.410 . S
C728 C729 1.392 . S
C728 C731 1.511 . S
C729 C725 1.376 . S
C729 C728 1.392 . S
C729 H741 0.929 . S
C730 C726 1.531 . S
C730 H742 0.960 . S
C730 H743 0.962 . S
C730 H744 0.960 . S
C731 C728 1.511 . S
C731 H745 0.961 . S
C731 H746 0.961 . S
C731 H747 0.961 . S
C732 C733 1.370 . S
C732 C734 1.363 . S
C732 H748 0.931 . S
C733 C732 1.370 . S
C733 C737 1.408 . S
C734 C732 1.363 . S
C734 C735 1.370 . S
C734 C738 1.524 . S
C735 C727 1.503 . S
C735 C734 1.370 . S
C735 C736 1.403 . S
C736 C735 1.403 . S
C736 C737 1.404 . S
C736 C739 1.539 . S
C737 C733 1.408 . S
C737 C736 1.404 . S
C737 H749 0.930 . S
C738 C734 1.524 . S
C738 H750 0.956 . S
C738 H751 0.961 . S
C738 H752 0.961 . S
C739 C736 1.539 . S
C739 H753 0.958 . S
C739 H754 0.961 . S
C739 H755 0.960 . S
H740 C724 0.931 . S
H741 C729 0.929 . S
H742 C730 0.960 . S
H743 C730 0.962 . S
H744 C730 0.960 . S
H745 C731 0.961 . S
H746 C731 0.961 . S
H747 C731 0.961 . S
H748 C732 0.931 . S
H749 C737 0.930 . S
H750 C738 0.956 . S
H751 C738 0.961 . S
H752 C738 0.961 . S
H753 C739 0.958 . S
H754 C739 0.961 . S
H755 C739 0.960 . S
C756 C757 1.391 . S
C756 C758 1.394 . S
C756 H772 0.931 . S
C757 C756 1.391 . S
C757 C761 1.376 . S
C758 C756 1.394 . S
C758 C759 1.369 . S
C758 C762 1.531 . S
C759 C758 1.369 . S
C759 C760 1.410 . S
C759 C767 1.503 . S
C760 C759 1.410 . S
C760 C761 1.392 . S
C760 C763 1.511 . S
C761 C757 1.376 . S
C761 C760 1.392 . S
C761 H773 0.929 . S
C762 C758 1.531 . S
C762 H774 0.960 . S
C762 H775 0.962 . S
C762 H776 0.960 . S
C763 C760 1.511 . S
C763 H777 0.961 . S
C763 H778 0.961 . S
C763 H779 0.961 . S
C764 C765 1.370 . S
C764 C766 1.363 . S
C764 H780 0.931 . S
C765 C764 1.370 . S
C765 C769 1.408 . S
C766 C764 1.363 . S
C766 C767 1.370 . S
C766 C770 1.524 . S
C767 C759 1.503 . S
C767 C766 1.370 . S
C767 C768 1.403 . S
C768 C767 1.403 . S
C768 C769 1.404 . S
C768 C771 1.539 . S
C769 C765 1.408 . S
C769 C768 1.404 . S
C769 H781 0.930 . S
C770 C766 1.524 . S
C770 H782 0.956 . S
C770 H783 0.961 . S
C770 H784 0.961 . S
C771 C768 1.539 . S
C771 H785 0.958 . S
C771 H786 0.961 . S
C771 H787 0.960 . S
H772 C756 0.931 . S
H773 C761 0.929 . S
H774 C762 0.960 . S
H775 C762 0.962 . S
H776 C762 0.960 . S
H777 C763 0.961 . S
H778 C763 0.961 . S
H779 C763 0.961 . S
H780 C764 0.931 . S
H781 C769 0.930 . S
H782 C770 0.956 . S
H783 C770 0.961 . S
H784 C770 0.961 . S
H785 C771 0.958 . S
H786 C771 0.961 . S
H787 C771 0.960 . S
C788 C789 1.391 . S
C788 C790 1.394 . S
C788 H804 0.931 . S
C789 C788 1.391 . S
C789 C793 1.376 . S
C790 C788 1.394 . S
C790 C791 1.369 . S
C790 C794 1.531 . S
C791 C790 1.369 . S
C791 C792 1.410 . S
C791 C799 1.503 . S
C792 C791 1.410 . S
C792 C793 1.392 . S
C792 C795 1.511 . S
C793 C789 1.376 . S
C793 C792 1.392 . S
C793 H805 0.929 . S
C794 C790 1.531 . S
C794 H806 0.960 . S
C794 H807 0.962 . S
C794 H808 0.960 . S
C795 C792 1.511 . S
C795 H809 0.961 . S
C795 H810 0.961 . S
C795 H811 0.961 . S
C796 C797 1.370 . S
C796 C798 1.363 . S
C796 H812 0.931 . S
C797 C796 1.370 . S
C797 C801 1.408 . S
C798 C796 1.363 . S
C798 C799 1.370 . S
C798 C802 1.524 . S
C799 C791 1.503 . S
C799 C798 1.370 . S
C799 C800 1.403 . S
C800 C799 1.403 . S
C800 C801 1.404 . S
C800 C803 1.539 . S
C801 C797 1.408 . S
C801 C800 1.404 . S
C801 H813 0.930 . S
C802 C798 1.524 . S
C802 H814 0.956 . S
C802 H815 0.961 . S
C802 H816 0.961 . S
C803 C800 1.539 . S
C803 H817 0.958 . S
C803 H818 0.961 . S
C803 H819 0.960 . S
H804 C788 0.931 . S
H805 C793 0.929 . S
H806 C794 0.960 . S
H807 C794 0.962 . S
H808 C794 0.960 . S
H809 C795 0.961 . S
H810 C795 0.961 . S
H811 C795 0.961 . S
H812 C796 0.931 . S
H813 C801 0.930 . S
H814 C802 0.956 . S
H815 C802 0.961 . S
H816 C802 0.961 . S
H817 C803 0.958 . S
H818 C803 0.961 . S
H819 C803 0.960 . S
C820 C821 1.391 . S
C820 C822 1.394 . S
C820 H836 0.931 . S
C821 C820 1.391 . S
C821 C825 1.376 . S
C822 C820 1.394 . S
C822 C823 1.369 . S
C822 C826 1.531 . S
C823 C822 1.369 . S
C823 C824 1.410 . S
C823 C831 1.503 . S
C824 C823 1.410 . S
C824 C825 1.392 . S
C824 C827 1.511 . S
C825 C821 1.376 . S
C825 C824 1.392 . S
C825 H837 0.929 . S
C826 C822 1.531 . S
C826 H838 0.960 . S
C826 H839 0.962 . S
C826 H840 0.960 . S
C827 C824 1.511 . S
C827 H841 0.961 . S
C827 H842 0.961 . S
C827 H843 0.961 . S
C828 C829 1.370 . S
C828 C830 1.363 . S
C828 H844 0.931 . S
C829 C828 1.370 . S
C829 C833 1.408 . S
C830 C828 1.363 . S
C830 C831 1.370 . S
C830 C834 1.524 . S
C831 C823 1.503 . S
C831 C830 1.370 . S
C831 C832 1.403 . S
C832 C831 1.403 . S
C832 C833 1.404 . S
C832 C835 1.539 . S
C833 C829 1.408 . S
C833 C832 1.404 . S
C833 H845 0.930 . S
C834 C830 1.524 . S
C834 H846 0.956 . S
C834 H847 0.961 . S
C834 H848 0.961 . S
C835 C832 1.539 . S
C835 H849 0.958 . S
C835 H850 0.961 . S
C835 H851 0.960 . S
H836 C820 0.931 . S
H837 C825 0.929 . S
H838 C826 0.960 . S
H839 C826 0.962 . S
H840 C826 0.960 . S
H841 C827 0.961 . S
H842 C827 0.961 . S
H843 C827 0.961 . S
H844 C828 0.931 . S
H845 C833 0.930 . S
H846 C834 0.956 . S
H847 C834 0.961 . S
H848 C834 0.961 . S
H849 C835 0.958 . S
H850 C835 0.961 . S
H851 C835 0.960 . S
C852 C853 1.391 . S
C852 C854 1.394 . S
C852 H868 0.931 . S
C853 C852 1.391 . S
C853 C857 1.376 . S
C854 C852 1.394 . S
C854 C855 1.369 . S
C854 C858 1.531 . S
C855 C854 1.369 . S
C855 C856 1.410 . S
C855 C863 1.503 . S
C856 C855 1.410 . S
C856 C857 1.392 . S
C856 C859 1.511 . S
C857 C853 1.376 . S
C857 C856 1.392 . S
C857 H869 0.929 . S
C858 C854 1.531 . S
C858 H870 0.960 . S
C858 H871 0.962 . S
C858 H872 0.960 . S
C859 C856 1.511 . S
C859 H873 0.961 . S
C859 H874 0.961 . S
C859 H875 0.961 . S
C860 C861 1.370 . S
C860 C862 1.363 . S
C860 H876 0.931 . S
C861 C860 1.370 . S
C861 C865 1.408 . S
C862 C860 1.363 . S
C862 C863 1.370 . S
C862 C866 1.524 . S
C863 C855 1.503 . S
C863 C862 1.370 . S
C863 C864 1.403 . S
C864 C863 1.403 . S
C864 C865 1.404 . S
C864 C867 1.539 . S
C865 C861 1.408 . S
C865 C864 1.404 . S
C865 H877 0.930 . S
C866 C862 1.524 . S
C866 H878 0.956 . S
C866 H879 0.961 . S
C866 H880 0.961 . S
C867 C864 1.539 . S
C867 H881 0.958 . S
C867 H882 0.961 . S
C867 H883 0.960 . S
H868 C852 0.931 . S
H869 C857 0.929 . S
H870 C858 0.960 . S
H871 C858 0.962 . S
H872 C858 0.960 . S
H873 C859 0.961 . S
H874 C859 0.961 . S
H875 C859 0.961 . S
H876 C860 0.931 . S
H877 C865 0.930 . S
H878 C866 0.956 . S
H879 C866 0.961 . S
H880 C866 0.961 . S
H881 C867 0.958 . S
H882 C867 0.961 . S
H883 C867 0.960 . S
C884 C885 1.391 . S
C884 C886 1.394 . S
C884 H900 0.931 . S
C885 C884 1.391 . S
C885 C889 1.376 . S
C886 C884 1.394 . S
C886 C887 1.369 . S
C886 C890 1.531 . S
C887 C886 1.369 . S
C887 C888 1.410 . S
C887 C895 1.503 . S
C888 C887 1.410 . S
C888 C889 1.392 . S
C888 C891 1.511 . S
C889 C885 1.376 . S
C889 C888 1.392 . S
C889 H901 0.929 . S
C890 C886 1.531 . S
C890 H902 0.960 . S
C890 H903 0.962 . S
C890 H904 0.960 . S
C891 C888 1.511 . S
C891 H905 0.961 . S
C891 H906 0.961 . S
C891 H907 0.961 . S
C892 C893 1.370 . S
C892 C894 1.363 . S
C892 H908 0.931 . S
C893 C892 1.370 . S
C893 C897 1.408 . S
C894 C892 1.363 . S
C894 C895 1.370 . S
C894 C898 1.524 . S
C895 C887 1.503 . S
C895 C894 1.370 . S
C895 C896 1.403 . S
C896 C895 1.403 . S
C896 C897 1.404 . S
C896 C899 1.539 . S
C897 C893 1.408 . S
C897 C896 1.404 . S
C897 H909 0.930 . S
C898 C894 1.524 . S
C898 H910 0.956 . S
C898 H911 0.961 . S
C898 H912 0.961 . S
C899 C896 1.539 . S
C899 H913 0.958 . S
C899 H914 0.961 . S
C899 H915 0.960 . S
H900 C884 0.931 . S
H901 C889 0.929 . S
H902 C890 0.960 . S
H903 C890 0.962 . S
H904 C890 0.960 . S
H905 C891 0.961 . S
H906 C891 0.961 . S
H907 C891 0.961 . S
H908 C892 0.931 . S
H909 C897 0.930 . S
H910 C898 0.956 . S
H911 C898 0.961 . S
H912 C898 0.961 . S
H913 C899 0.958 . S
H914 C899 0.961 . S
H915 C899 0.960 . S
C916 C917 1.391 . S
C916 C918 1.394 . S
C916 H932 0.931 . S
C917 C916 1.391 . S
C917 C921 1.376 . S
C918 C916 1.394 . S
C918 C919 1.369 . S
C918 C922 1.531 . S
C919 C918 1.369 . S
C919 C920 1.410 . S
C919 C927 1.503 . S
C920 C919 1.410 . S
C920 C921 1.392 . S
C920 C923 1.511 . S
C921 C917 1.376 . S
C921 C920 1.392 . S
C921 H933 0.929 . S
C922 C918 1.531 . S
C922 H934 0.960 . S
C922 H935 0.962 . S
C922 H936 0.960 . S
C923 C920 1.511 . S
C923 H937 0.961 . S
C923 H938 0.961 . S
C923 H939 0.961 . S
C924 C925 1.370 . S
C924 C926 1.363 . S
C924 H940 0.931 . S
C925 C924 1.370 . S
C925 C929 1.408 . S
C926 C924 1.363 . S
C926 C927 1.370 . S
C926 C930 1.524 . S
C927 C919 1.503 . S
C927 C926 1.370 . S
C927 C928 1.403 . S
C928 C927 1.403 . S
C928 C929 1.404 . S
C928 C931 1.539 . S
C929 C925 1.408 . S
C929 C928 1.404 . S
C929 H941 0.930 . S
C930 C926 1.524 . S
C930 H942 0.956 . S
C930 H943 0.961 . S
C930 H944 0.961 . S
C931 C928 1.539 . S
C931 H945 0.958 . S
C931 H946 0.961 . S
C931 H947 0.960 . S
H932 C916 0.931 . S
H933 C921 0.929 . S
H934 C922 0.960 . S
H935 C922 0.962 . S
H936 C922 0.960 . S
H937 C923 0.961 . S
H938 C923 0.961 . S
H939 C923 0.961 . S
H940 C924 0.931 . S
H941 C929 0.930 . S
H942 C930 0.956 . S
H943 C930 0.961 . S
H944 C930 0.961 . S
H945 C931 0.958 . S
H946 C931 0.961 . S
H947 C931 0.960 . S
C948 C949 1.391 . S
C948 C950 1.394 . S
C948 H964 0.931 . S
C949 C948 1.391 . S
C949 C953 1.376 . S
C950 C948 1.394 . S
C950 C951 1.369 . S
C950 C954 1.531 . S
C951 C950 1.369 . S
C951 C952 1.410 . S
C951 C959 1.503 . S
C952 C951 1.410 . S
C952 C953 1.392 . S
C952 C955 1.511 . S
C953 C949 1.376 . S
C953 C952 1.392 . S
C953 H965 0.929 . S
C954 C950 1.531 . S
C954 H966 0.960 . S
C954 H967 0.962 . S
C954 H968 0.960 . S
C955 C952 1.511 . S
C955 H969 0.961 . S
C955 H970 0.961 . S
C955 H971 0.961 . S
C956 C957 1.370 . S
C956 C958 1.363 . S
C956 H972 0.931 . S
C957 C956 1.370 . S
C957 C961 1.408 . S
C958 C956 1.363 . S
C958 C959 1.370 . S
C958 C962 1.524 . S
C959 C951 1.503 . S
C959 C958 1.370 . S
C959 C960 1.403 . S
C960 C959 1.403 . S
C960 C961 1.404 . S
C960 C963 1.539 . S
C961 C957 1.408 . S
C961 C960 1.404 . S
C961 H973 0.930 . S
C962 C958 1.524 . S
C962 H974 0.956 . S
C962 H975 0.961 . S
C962 H976 0.961 . S
C963 C960 1.539 . S
C963 H977 0.958 . S
C963 H978 0.961 . S
C963 H979 0.960 . S
H964 C948 0.931 . S
H965 C953 0.929 . S
H966 C954 0.960 . S
H967 C954 0.962 . S
H968 C954 0.960 . S
H969 C955 0.961 . S
H970 C955 0.961 . S
H971 C955 0.961 . S
H972 C956 0.931 . S
H973 C961 0.930 . S
H974 C962 0.956 . S
H975 C962 0.961 . S
H976 C962 0.961 . S
H977 C963 0.958 . S
H978 C963 0.961 . S
H979 C963 0.960 . S
C980 C981 1.391 . S
C980 C982 1.394 . S
C980 H996 0.931 . S
C981 C980 1.391 . S
C981 C985 1.376 . S
C982 C980 1.394 . S
C982 C983 1.369 . S
C982 C986 1.531 . S
C983 C982 1.369 . S
C983 C984 1.410 . S
C983 C991 1.503 . S
C984 C983 1.410 . S
C984 C985 1.392 . S
C984 C987 1.511 . S
C985 C981 1.376 . S
C985 C984 1.392 . S
C985 H997 0.929 . S
C986 C982 1.531 . S
C986 H998 0.960 . S
C986 H999 0.962 . S
C986 H1000 0.960 . S
C987 C984 1.511 . S
C987 H1001 0.961 . S
C987 H1002 0.961 . S
C987 H1003 0.961 . S
C988 C989 1.370 . S
C988 C990 1.363 . S
C988 H1004 0.931 . S
C989 C988 1.370 . S
C989 C993 1.408 . S
C990 C988 1.363 . S
C990 C991 1.370 . S
C990 C994 1.524 . S
C991 C983 1.503 . S
C991 C990 1.370 . S
C991 C992 1.403 . S
C992 C991 1.403 . S
C992 C993 1.404 . S
C992 C995 1.539 . S
C993 C989 1.408 . S
C993 C992 1.404 . S
C993 H1005 0.930 . S
C994 C990 1.524 . S
C994 H1006 0.956 . S
C994 H1007 0.961 . S
C994 H1008 0.961 . S
C995 C992 1.539 . S
C995 H1009 0.958 . S
C995 H1010 0.961 . S
C995 H1011 0.960 . S
H996 C980 0.931 . S
H997 C985 0.929 . S
H998 C986 0.960 . S
H999 C986 0.962 . S
H1000 C986 0.960 . S
H1001 C987 0.961 . S
H1002 C987 0.961 . S
H1003 C987 0.961 . S
H1004 C988 0.931 . S
H1005 C993 0.930 . S
H1006 C994 0.956 . S
H1007 C994 0.961 . S
H1008 C994 0.961 . S
H1009 C995 0.958 . S
H1010 C995 0.961 . S
H1011 C995 0.960 . S
C1012 C1013 1.391 . S
C1012 C1014 1.394 . S
C1012 H1028 0.931 . S
C1013 C1012 1.391 . S
C1013 C1017 1.376 . S
C1014 C1012 1.394 . S
C1014 C1015 1.369 . S
C1014 C1018 1.531 . S
C1015 C1014 1.369 . S
C1015 C1016 1.410 . S
C1015 C1023 1.503 . S
C1016 C1015 1.410 . S
C1016 C1017 1.392 . S
C1016 C1019 1.511 . S
C1017 C1013 1.376 . S
C1017 C1016 1.392 . S
C1017 H1029 0.929 . S
C1018 C1014 1.531 . S
C1018 H1030 0.960 . S
C1018 H1031 0.962 . S
C1018 H1032 0.960 . S
C1019 C1016 1.511 . S
C1019 H1033 0.961 . S
C1019 H1034 0.961 . S
C1019 H1035 0.961 . S
C1020 C1021 1.370 . S
C1020 C1022 1.363 . S
C1020 H1036 0.931 . S
C1021 C1020 1.370 . S
C1021 C1025 1.408 . S
C1022 C1020 1.363 . S
C1022 C1023 1.370 . S
C1022 C1026 1.524 . S
C1023 C1015 1.503 . S
C1023 C1022 1.370 . S
C1023 C1024 1.403 . S
C1024 C1023 1.403 . S
C1024 C1025 1.404 . S
C1024 C1027 1.539 . S
C1025 C1021 1.408 . S
C1025 C1024 1.404 . S
C1025 H1037 0.930 . S
C1026 C1022 1.524 . S
C1026 H1038 0.956 . S
C1026 H1039 0.961 . S
C1026 H1040 0.961 . S
C1027 C1024 1.539 . S
C1027 H1041 0.958 . S
C1027 H1042 0.961 . S
C1027 H1043 0.960 . S
H1028 C1012 0.931 . S
H1029 C1017 0.929 . S
H1030 C1018 0.960 . S
H1031 C1018 0.962 . S
H1032 C1018 0.960 . S
H1033 C1019 0.961 . S
H1034 C1019 0.961 . S
H1035 C1019 0.961 . S
H1036 C1020 0.931 . S
H1037 C1025 0.930 . S
H1038 C1026 0.956 . S
H1039 C1026 0.961 . S
H1040 C1026 0.961 . S
H1041 C1027 0.958 . S
H1042 C1027 0.961 . S
H1043 C1027 0.960 . S
C277 C7 2.241 . S
C285 C145 2.215 . S
C309 C30 1.309 . S
C317 N163 1.323 . S
C349 C191 2.057 . S
C341 N58 2.042 . S
C381 N209 1.203 . S
C373 N81 1.142 . S
C413 C237 2.126 . S
C405 C99 2.163 . S
C445 N255 1.260 . S
C437 N127 1.200 . S
C469 N25 2.024 . S
C477 C200 2.076 . S
C501 C62 1.306 . S
C509 N219 1.255 . S
C541 C246 2.176 . S
C533 C85 2.160 . S
C573 N265 1.167 . S
C565 N94 1.199 . S
C597 C131 2.158 . S
C605 C154 2.162 . S
C637 N173 1.137 . S
C629 N2 1.166 . S
C669 C223 2.048 . S
C661 C16 2.076 . S
C693 C39 1.176 . S
C701 N242 1.152 . S
C733 C269 1.902 . S
C725 N48 1.933 . S
C757 N71 1.032 . S
C765 N150 1.087 . S
C789 C108 2.032 . S
C797 C177 1.998 . S
C821 N117 1.029 . S
C829 N196 1.093 . S
C853 N35 1.931 . S
C861 C260 1.944 . S
C893 N140 1.152 . S
C885 C53 1.180 . S
C917 C76 2.115 . S
C925 C168 2.099 . S
C949 N104 1.071 . S
C957 N186 1.019 . S
C981 C122 2.052 . S
C989 C214 2.035 . S
C1013 N12 1.084 . S
C1021 N232 1.007 . S
