# Generated by pormake.
# Topology the, (3,8)-cn, num edge types: 1
# Building blocks:
#     Node 0, Type 0, BuildingBlock: WUSLED_clean_sbu_0, # of connection points: 3
#     Node 1, Type 0, BuildingBlock: WUSLED_clean_sbu_0, # of connection points: 3
#     Node 2, Type 0, BuildingBlock: WUSLED_clean_sbu_0, # of connection points: 3
#     Node 3, Type 0, BuildingBlock: WUSLED_clean_sbu_0, # of connection points: 3
#     Node 4, Type 0, BuildingBlock: WUSLED_clean_sbu_0, # of connection points: 3
#     Node 5, Type 0, BuildingBlock: WUSLED_clean_sbu_0, # of connection points: 3
#     Node 6, Type 0, BuildingBlock: WUSLED_clean_sbu_0, # of connection points: 3
#     Node 7, Type 0, BuildingBlock: WUSLED_clean_sbu_0, # of connection points: 3
#     Node 8, Type 1, BuildingBlock: GIZVER_clean_sbu_0, # of connection points: 8
#     Node 9, Type 1, BuildingBlock: GIZVER_clean_sbu_0, # of connection points: 8
#     Node 10, Type 1, BuildingBlock: GIZVER_clean_sbu_0, # of connection points: 8
#     Edge 11, Type (0, 1), BuildingBlock: MIFKUJ_clean_linker_0, # of connection points: 2
#     Edge 12, Type (0, 1), BuildingBlock: MIFKUJ_clean_linker_0, # of connection points: 2
#     Edge 13, Type (0, 1), BuildingBlock: MIFKUJ_clean_linker_0, # of connection points: 2
#     Edge 14, Type (0, 1), BuildingBlock: MIFKUJ_clean_linker_0, # of connection points: 2
#     Edge 15, Type (0, 1), BuildingBlock: MIFKUJ_clean_linker_0, # of connection points: 2
#     Edge 16, Type (0, 1), BuildingBlock: MIFKUJ_clean_linker_0, # of connection points: 2
#     Edge 17, Type (0, 1), BuildingBlock: MIFKUJ_clean_linker_0, # of connection points: 2
#     Edge 18, Type (0, 1), BuildingBlock: MIFKUJ_clean_linker_0, # of connection points: 2
#     Edge 19, Type (0, 1), BuildingBlock: MIFKUJ_clean_linker_0, # of connection points: 2
#     Edge 20, Type (0, 1), BuildingBlock: MIFKUJ_clean_linker_0, # of connection points: 2
#     Edge 21, Type (0, 1), BuildingBlock: MIFKUJ_clean_linker_0, # of connection points: 2
#     Edge 22, Type (0, 1), BuildingBlock: MIFKUJ_clean_linker_0, # of connection points: 2
#     Edge 23, Type (0, 1), BuildingBlock: MIFKUJ_clean_linker_0, # of connection points: 2
#     Edge 24, Type (0, 1), BuildingBlock: MIFKUJ_clean_linker_0, # of connection points: 2
#     Edge 25, Type (0, 1), BuildingBlock: MIFKUJ_clean_linker_0, # of connection points: 2
#     Edge 26, Type (0, 1), BuildingBlock: MIFKUJ_clean_linker_0, # of connection points: 2
#     Edge 27, Type (0, 1), BuildingBlock: MIFKUJ_clean_linker_0, # of connection points: 2
#     Edge 28, Type (0, 1), BuildingBlock: MIFKUJ_clean_linker_0, # of connection points: 2
#     Edge 29, Type (0, 1), BuildingBlock: MIFKUJ_clean_linker_0, # of connection points: 2
#     Edge 30, Type (0, 1), BuildingBlock: MIFKUJ_clean_linker_0, # of connection points: 2
#     Edge 31, Type (0, 1), BuildingBlock: MIFKUJ_clean_linker_0, # of connection points: 2
#     Edge 32, Type (0, 1), BuildingBlock: MIFKUJ_clean_linker_0, # of connection points: 2
#     Edge 33, Type (0, 1), BuildingBlock: MIFKUJ_clean_linker_0, # of connection points: 2
#     Edge 34, Type (0, 1), BuildingBlock: MIFKUJ_clean_linker_0, # of connection points: 2
# Relax obj value: 0.042
# Max RMSD: 0.140
# Mean RMSD: 0.059
data_MOF--net-the--node1-WUSLED_clean_sbu_0--node2-GIZVER_clean_sbu_0--edge1-MIFKUJ_clean_linker_0
_symmetry_space_group_name_H-M    P1
_symmetry_Int_Tables_number       1
_symmetry_cell_setting            triclinic
loop_
_symmetry_equiv_pos_as_xyz
'x, y, z'
_cell_length_a     63.854897
_cell_length_b     60.591143
_cell_length_c     56.66011
_cell_angle_alpha  87.012582
_cell_angle_beta   93.12359
_cell_angle_gamma 99.603076
loop_
_atom_site_label
_atom_site_type_symbol
_atom_site_fract_x
_atom_site_fract_y
_atom_site_fract_z
_atom_type_partial_charge
C0 C 0.33557 0.28915 0.41984 0.0
C1 C 0.34868 0.28233 0.40352 0.0
C2 C 0.35517 0.25118 0.43028 0.0
C3 C 0.35835 0.26348 0.40865 0.0
C4 C 0.34208 0.25818 0.44664 0.0
C5 C 0.33233 0.27701 0.44142 0.0
U6 U 0.33003 0.34022 0.38042 0.0
O7 O 0.30174 0.3539 0.36664 0.0
O8 O 0.32625 0.37436 0.38854 0.0
C9 C 0.30733 0.37263 0.37774 0.0
C10 C 0.32544 0.30899 0.41442 0.0
C11 C 0.29061 0.37963 0.39098 0.0
C12 C 0.27209 0.38054 0.42717 0.0
C13 C 0.28805 0.37338 0.41498 0.0
C14 C 0.26095 0.39989 0.39134 0.0
C15 C 0.2584 0.39398 0.41549 0.0
C16 C 0.27693 0.39283 0.37925 0.0
C17 C 0.36378 0.35318 0.32694 0.0
C18 C 0.36215 0.38682 0.30209 0.0
C19 C 0.38288 0.35935 0.29073 0.0
C20 C 0.3771 0.34617 0.31104 0.0
C21 C 0.37543 0.3798 0.28598 0.0
C22 C 0.35632 0.37357 0.32239 0.0
C23 C 0.35751 0.33898 0.34798 0.0
O24 O 0.3381 0.32831 0.41661 0.0
O25 O 0.31324 0.30818 0.39493 0.0
O26 O 0.33801 0.32785 0.34678 0.0
O27 O 0.36266 0.34841 0.36832 0.0
H28 H 0.35148 0.29164 0.38681 0.0
H29 H 0.3686 0.25874 0.39585 0.0
H30 H 0.33919 0.24895 0.46336 0.0
H31 H 0.32225 0.28208 0.45422 0.0
H32 H 0.27066 0.37581 0.44578 0.0
H33 H 0.29845 0.36308 0.4243 0.0
H34 H 0.25043 0.4098 0.38166 0.0
H35 H 0.27859 0.39765 0.36067 0.0
H36 H 0.35602 0.40238 0.29883 0.0
H37 H 0.39338 0.35365 0.27885 0.0
H38 H 0.383 0.33048 0.31434 0.0
H39 H 0.3459 0.37915 0.33448 0.0
C40 C 0.67189 0.35437 0.27657 0.0
C41 C 0.65773 0.36927 0.27999 0.0
C42 C 0.65387 0.37709 0.23742 0.0
C43 C 0.6489 0.38052 0.2607 0.0
C44 C 0.66847 0.36266 0.23401 0.0
C45 C 0.67729 0.35137 0.25332 0.0
U46 U 0.71082 0.3396 0.32817 0.0
O47 O 0.70315 0.32546 0.3639 0.0
O48 O 0.71863 0.30662 0.3399 0.0
C49 C 0.70975 0.30655 0.36031 0.0
C50 C 0.67892 0.34029 0.29683 0.0
C51 C 0.69534 0.28588 0.36736 0.0
C52 C 0.66733 0.25451 0.35846 0.0
C53 C 0.68048 0.27437 0.35123 0.0
C54 C 0.68359 0.25765 0.39802 0.0
C55 C 0.66873 0.24591 0.38198 0.0
C56 C 0.69674 0.27738 0.39077 0.0
C57 C 0.76397 0.3785 0.34157 0.0
C58 C 0.78556 0.37918 0.37842 0.0
C59 C 0.80001 0.3993 0.34334 0.0
C60 C 0.78095 0.39205 0.33056 0.0
C61 C 0.80252 0.39322 0.36753 0.0
C62 C 0.76647 0.37188 0.36556 0.0
C63 C 0.7437 0.37215 0.32783 0.0
O64 O 0.69506 0.32994 0.2938 0.0
O65 O 0.67934 0.3483 0.31802 0.0
O66 O 0.72626 0.37303 0.3388 0.0
O67 O 0.74227 0.35435 0.31516 0.0
H68 H 0.65298 0.37181 0.29758 0.0
H69 H 0.63792 0.39171 0.26403 0.0
H70 H 0.67247 0.35939 0.21634 0.0
H71 H 0.68785 0.33976 0.24994 0.0
H72 H 0.65592 0.24604 0.34572 0.0
H73 H 0.67906 0.28071 0.33308 0.0
H74 H 0.68532 0.25139 0.41616 0.0
H75 H 0.70814 0.28597 0.40346 0.0
H76 H 0.78682 0.37428 0.39702 0.0
H77 H 0.81281 0.40969 0.3342 0.0
H78 H 0.7794 0.39725 0.31204 0.0
H79 H 0.75357 0.36135 0.37442 0.0
C80 C 0.67126 0.69217 0.28597 0.0
C81 C 0.68389 0.69233 0.26633 0.0
C82 C 0.65584 0.66653 0.24621 0.0
C83 C 0.67624 0.67968 0.24667 0.0
C84 C 0.64339 0.66625 0.266 0.0
C85 C 0.65097 0.67895 0.28555 0.0
U86 U 0.70886 0.71208 0.3396 0.0
O87 O 0.71961 0.74621 0.35184 0.0
O88 O 0.70063 0.72116 0.37472 0.0
C89 C 0.7093 0.7423 0.3715 0.0
C90 C 0.67819 0.70653 0.30639 0.0
C91 C 0.69669 0.75945 0.37816 0.0
C92 C 0.68841 0.79746 0.37446 0.0
C93 C 0.6987 0.78072 0.36646 0.0
C94 C 0.67363 0.77205 0.40588 0.0
C95 C 0.6759 0.79346 0.39445 0.0
C96 C 0.68394 0.75534 0.39791 0.0
C97 C 0.758 0.68214 0.35381 0.0
C98 C 0.781 0.68294 0.38966 0.0
C99 C 0.78913 0.66369 0.35577 0.0
C100 C 0.77133 0.66973 0.34324 0.0
C101 C 0.79407 0.66991 0.37927 0.0
C102 C 0.76305 0.68894 0.37706 0.0
C103 C 0.73855 0.68661 0.34039 0.0
O104 O 0.6766 0.69653 0.32752 0.0
O105 O 0.69564 0.72137 0.30446 0.0
O106 O 0.7398 0.70585 0.32828 0.0
O107 O 0.72054 0.68088 0.35104 0.0
H108 H 0.69959 0.70236 0.26601 0.0
H109 H 0.68635 0.68013 0.23186 0.0
H110 H 0.6275 0.65661 0.26617 0.0
H111 H 0.64079 0.6787 0.30028 0.0
H112 H 0.69083 0.81379 0.36537 0.0
H113 H 0.70863 0.78469 0.35143 0.0
H114 H 0.66392 0.76817 0.42111 0.0
H115 H 0.68224 0.73926 0.40753 0.0
H116 H 0.78426 0.68791 0.40775 0.0
H117 H 0.79901 0.65402 0.34704 0.0
H118 H 0.76776 0.66437 0.32531 0.0
H119 H 0.75295 0.69852 0.38556 0.0
C120 C 0.27751 0.65701 0.34404 0.0
C121 C 0.27458 0.6605 0.36788 0.0
C122 C 0.23799 0.64066 0.36437 0.0
C123 C 0.25502 0.65239 0.37794 0.0
C124 C 0.24093 0.63775 0.34034 0.0
C125 C 0.26046 0.64579 0.33035 0.0
U126 U 0.33128 0.69633 0.33568 0.0
O127 O 0.36273 0.68728 0.33066 0.0
O128 O 0.34774 0.70664 0.30276 0.0
C129 C 0.3637 0.69606 0.30897 0.0
C130 C 0.29828 0.66394 0.33321 0.0
C131 C 0.37005 0.68199 0.29097 0.0
C132 C 0.36209 0.65181 0.26342 0.0
C133 C 0.35565 0.66449 0.28093 0.0
C134 C 0.39738 0.67381 0.26604 0.0
C135 C 0.38303 0.65643 0.25559 0.0
C136 C 0.39095 0.68643 0.28348 0.0
C137 C 0.34531 0.74952 0.37252 0.0
C138 C 0.3756 0.7794 0.36762 0.0
C139 C 0.35259 0.77959 0.40015 0.0
C140 C 0.3402 0.75972 0.3926 0.0
C141 C 0.37044 0.7898 0.38775 0.0
C142 C 0.36314 0.75945 0.36007 0.0
C143 C 0.33155 0.72878 0.36493 0.0
O144 O 0.30016 0.68209 0.31922 0.0
O145 O 0.31532 0.66273 0.34702 0.0
O146 O 0.3383 0.70988 0.37114 0.0
O147 O 0.32335 0.72918 0.34316 0.0
H148 H 0.2875 0.66916 0.37882 0.0
H149 H 0.25346 0.65481 0.39652 0.0
H150 H 0.22812 0.62923 0.32918 0.0
H151 H 0.26232 0.64298 0.31191 0.0
H152 H 0.35055 0.6387 0.25567 0.0
H153 H 0.33943 0.66079 0.28649 0.0
H154 H 0.41371 0.67763 0.26084 0.0
H155 H 0.40233 0.69977 0.29109 0.0
H156 H 0.3891 0.78684 0.3575 0.0
H157 H 0.34831 0.78679 0.41594 0.0
H158 H 0.32654 0.75228 0.40251 0.0
H159 H 0.36734 0.75185 0.34448 0.0
C160 C 0.28827 0.65657 0.70505 0.0
C161 C 0.27999 0.67007 0.68721 0.0
C162 C 0.24816 0.6417 0.68224 0.0
C163 C 0.26012 0.6627 0.67589 0.0
C164 C 0.25667 0.6283 0.70013 0.0
C165 C 0.27647 0.63568 0.71139 0.0
U166 U 0.34131 0.69703 0.71445 0.0
O167 O 0.35829 0.70806 0.74785 0.0
O168 O 0.3733 0.68923 0.72337 0.0
C169 C 0.37464 0.6983 0.7441 0.0
C170 C 0.30909 0.66379 0.71734 0.0
C171 C 0.38299 0.68553 0.76443 0.0
C172 C 0.38934 0.65057 0.78463 0.0
C173 C 0.37967 0.66198 0.76596 0.0
C174 C 0.40528 0.68605 0.80068 0.0
C175 C 0.40254 0.66249 0.80205 0.0
C176 C 0.39565 0.69739 0.78209 0.0
C177 C 0.35466 0.75013 0.67426 0.0
C178 C 0.38545 0.77915 0.68086 0.0
C179 C 0.36343 0.78044 0.6448 0.0
C180 C 0.35033 0.7608 0.65244 0.0
C181 C 0.3812 0.78988 0.65887 0.0
C182 C 0.37232 0.75941 0.68846 0.0
C183 C 0.34055 0.72941 0.68178 0.0
O184 O 0.3259 0.66308 0.70519 0.0
O185 O 0.31082 0.68199 0.72945 0.0
O186 O 0.33233 0.72947 0.70254 0.0
O187 O 0.3473 0.71058 0.67816 0.0
H188 H 0.28886 0.68629 0.68207 0.0
H189 H 0.25403 0.67356 0.66236 0.0
H190 H 0.24819 0.61189 0.70523 0.0
H191 H 0.28263 0.62497 0.72505 0.0
H192 H 0.38696 0.63244 0.78502 0.0
H193 H 0.36995 0.65244 0.75253 0.0
H194 H 0.41496 0.6958 0.81399 0.0
H195 H 0.3984 0.71555 0.7813 0.0
H196 H 0.3991 0.78581 0.69203 0.0
H197 H 0.35948 0.78838 0.62795 0.0
H198 H 0.33673 0.75393 0.64126 0.0
H199 H 0.37598 0.75136 0.70535 0.0
C200 C 0.28587 0.3272 0.66264 0.0
C201 C 0.28669 0.34979 0.6677 0.0
C202 C 0.25209 0.3502 0.64706 0.0
C203 C 0.27 0.36119 0.65992 0.0
C204 C 0.25128 0.32748 0.64236 0.0
C205 C 0.26799 0.31615 0.65004 0.0
U206 U 0.33403 0.31625 0.70312 0.0
O207 O 0.34323 0.28408 0.71605 0.0
O208 O 0.36451 0.30742 0.69371 0.0
C209 C 0.36093 0.28756 0.70463 0.0
C210 C 0.30355 0.31492 0.66976 0.0
C211 C 0.36562 0.26854 0.69164 0.0
C212 C 0.36327 0.2468 0.65633 0.0
C213 C 0.35774 0.26455 0.66836 0.0
C214 C 0.3843 0.23672 0.69082 0.0
C215 C 0.37671 0.23268 0.66738 0.0
C216 C 0.37881 0.25442 0.70276 0.0
C217 C 0.35085 0.35376 0.75669 0.0
C218 C 0.38521 0.36147 0.77815 0.0
C219 C 0.35396 0.37093 0.79492 0.0
C220 C 0.34157 0.36259 0.77519 0.0
C221 C 0.376 0.3707 0.79659 0.0
C222 C 0.37276 0.35303 0.75843 0.0
C223 C 0.33742 0.34644 0.7355 0.0
O224 O 0.32289 0.32602 0.66726 0.0
O225 O 0.30158 0.30279 0.68967 0.0
O226 O 0.32519 0.32678 0.73742 0.0
O227 O 0.34637 0.35016 0.71499 0.0
H228 H 0.30027 0.35864 0.67752 0.0
H229 H 0.27106 0.37859 0.66412 0.0
H230 H 0.23793 0.31853 0.63228 0.0
H231 H 0.26705 0.29874 0.64589 0.0
H232 H 0.35693 0.24408 0.63841 0.0
H233 H 0.34748 0.27522 0.65946 0.0
H234 H 0.39493 0.22651 0.69982 0.0
H235 H 0.38513 0.25727 0.72068 0.0
H236 H 0.40207 0.36074 0.77897 0.0
H237 H 0.34634 0.37814 0.80857 0.0
H238 H 0.32472 0.36341 0.77419 0.0
H239 H 0.38028 0.3462 0.74443 0.0
C240 C 0.67416 0.28459 0.68227 0.0
C241 C 0.68706 0.27398 0.66876 0.0
C242 C 0.65671 0.24523 0.65846 0.0
C243 C 0.67841 0.25442 0.65701 0.0
C244 C 0.64398 0.256 0.67211 0.0
C245 C 0.65262 0.27542 0.68384 0.0
U246 U 0.71615 0.3369 0.69593 0.0
O247 O 0.71101 0.37074 0.70377 0.0
O248 O 0.72684 0.35094 0.73054 0.0
C249 C 0.71905 0.36948 0.72556 0.0
C250 C 0.68261 0.30505 0.6951 0.0
C251 C 0.707 0.37722 0.74419 0.0
C252 C 0.6739 0.37965 0.76264 0.0
C253 C 0.68486 0.37105 0.74532 0.0
C254 C 0.70711 0.40035 0.77807 0.0
C255 C 0.68488 0.39462 0.77913 0.0
C256 C 0.71799 0.39177 0.7608 0.0
C257 C 0.76784 0.34999 0.66158 0.0
C258 C 0.79115 0.38587 0.65608 0.0
C259 C 0.8036 0.35156 0.64795 0.0
C260 C 0.78405 0.33919 0.65437 0.0
C261 C 0.8074 0.3751 0.64849 0.0
C262 C 0.7716 0.37344 0.66259 0.0
C263 C 0.74708 0.33641 0.66718 0.0
O264 O 0.6995 0.30422 0.70925 0.0
O265 O 0.68349 0.32413 0.68275 0.0
O266 O 0.73009 0.34547 0.66131 0.0
O267 O 0.74612 0.32579 0.68802 0.0
H268 H 0.70375 0.28083 0.66728 0.0
H269 H 0.68864 0.24669 0.64652 0.0
H270 H 0.62732 0.24926 0.674 0.0
H271 H 0.64241 0.28327 0.69427 0.0
H272 H 0.65678 0.37498 0.76277 0.0
H273 H 0.67604 0.35983 0.73265 0.0
H274 H 0.71619 0.41144 0.79067 0.0
H275 H 0.73508 0.39669 0.76031 0.0
H276 H 0.79335 0.40395 0.65652 0.0
H277 H 0.81578 0.3426 0.64268 0.0
H278 H 0.78154 0.32111 0.65354 0.0
H279 H 0.75935 0.38219 0.66813 0.0
C280 C 0.71336 0.75028 0.61934 0.0
C281 C 0.69498 0.75221 0.63101 0.0
C282 C 0.69085 0.7857 0.60676 0.0
C283 C 0.6838 0.76974 0.62476 0.0
C284 C 0.70937 0.78374 0.59521 0.0
C285 C 0.72052 0.76612 0.60145 0.0
U286 U 0.72068 0.70026 0.65959 0.0
O287 O 0.72817 0.66731 0.65218 0.0
O288 O 0.74968 0.68942 0.67568 0.0
C289 C 0.74651 0.67074 0.66423 0.0
C290 C 0.72514 0.7319 0.626 0.0
C291 C 0.76483 0.66593 0.65201 0.0
C292 C 0.78546 0.66783 0.61694 0.0
C293 C 0.76838 0.67347 0.62849 0.0
C294 C 0.79584 0.64761 0.65252 0.0
C295 C 0.79926 0.65462 0.62877 0.0
C296 C 0.77876 0.65318 0.66399 0.0
C297 C 0.68264 0.68321 0.70931 0.0
C298 C 0.68981 0.65985 0.74401 0.0
C299 C 0.65362 0.66469 0.73288 0.0
C300 C 0.66089 0.67858 0.71354 0.0
C301 C 0.66802 0.6553 0.74841 0.0
C302 C 0.69706 0.67357 0.72454 0.0
C303 C 0.68994 0.69797 0.68891 0.0
O304 O 0.73568 0.73369 0.64658 0.0
O305 O 0.71446 0.71169 0.62279 0.0
O306 O 0.68736 0.68858 0.66834 0.0
O307 O 0.70852 0.71086 0.69196 0.0
H308 H 0.68932 0.74016 0.645 0.0
H309 H 0.66977 0.77096 0.63421 0.0
H310 H 0.71508 0.79564 0.58113 0.0
H311 H 0.73471 0.76485 0.59229 0.0
H312 H 0.78756 0.67338 0.59861 0.0
H313 H 0.75779 0.68344 0.61899 0.0
H314 H 0.8064 0.63782 0.66232 0.0
H315 H 0.77632 0.64737 0.6822 0.0
H316 H 0.70123 0.65264 0.75554 0.0
H317 H 0.63677 0.66165 0.73596 0.0
H318 H 0.64954 0.68582 0.70194 0.0
H319 H 0.71391 0.67671 0.72142 0.0
Co320 Co 0.06956 0.495 0.53595 0.0
Co321 Co 0.0476 0.48564 0.49598 0.0
Co322 Co 0.02589 0.51998 0.52184 0.0
O323 O 0.03983 0.49248 0.52595 0.0
H324 H 0.03095 0.47985 0.53341 0.0
O325 O 1.01196 0.54747 0.51766 0.0
Co326 Co 0.98284 0.54567 0.50509 0.0
Co327 Co 1.002 0.55343 0.5467 0.0
H328 H 0.02136 0.56032 0.51133 0.0
O329 O 0.05716 0.45864 0.48986 0.0
O330 O 0.07659 0.49009 0.50348 0.0
O331 O 0.04496 0.50781 0.47058 0.0
O332 O 0.04548 0.53439 0.49618 0.0
O333 O 1.00523 0.50426 0.49766 0.0
O334 O 0.9569 0.54608 0.49272 0.0
O335 O 0.98393 0.57505 0.4949 0.0
O336 O 0.97762 0.51474 0.51305 0.0
O337 O 1.00614 0.50505 0.54706 0.0
O338 O 1.00105 0.53061 0.57184 0.0
O339 O 0.9738 0.55286 0.53633 0.0
O340 O 0.99599 0.58143 0.55268 0.0
C341 C 0.08956 0.4736 0.54987 0.0
C342 C 0.0667 0.53749 0.54408 0.0
C343 C 0.04987 0.52815 0.47602 0.0
C344 C 0.07553 0.47044 0.49511 0.0
C345 C 0.96425 0.56711 0.48835 0.0
C346 C 0.98518 0.50198 0.49988 0.0
C347 C 0.99894 0.51035 0.56626 0.0
C348 C 0.97705 0.57275 0.54493 0.0
O349 O 0.09636 0.49481 0.54576 0.0
O350 O 0.0696 0.46555 0.5448 0.0
O351 O 0.04665 0.5357 0.54632 0.0
O352 O 0.07335 0.52587 0.52902 0.0
Co353 Co 0.55016 0.97581 0.50298 0.0
Co354 Co 0.55415 0.99102 0.54561 0.0
Co355 Co 0.52198 0.01725 0.51608 0.0
O356 O 0.5489 1.00428 0.51605 0.0
H357 H 0.56095 0.01547 0.51198 0.0
O358 O 0.49496 0.03044 0.51604 0.0
Co359 Co 0.49549 0.05962 0.52862 0.0
Co360 Co 0.49035 0.04404 0.48627 0.0
H361 H 0.48278 0.01959 0.52051 0.0
O362 O 0.58085 0.98537 0.5557 0.0
O363 O 0.55541 0.96262 0.53533 0.0
O364 O 0.53193 0.98764 0.56796 0.0
O365 O 0.50782 0.99363 0.5396 0.0
O366 O 0.53569 0.03752 0.54181 0.0
O367 O 0.49449 0.08545 0.54101 0.0
O368 O 0.46749 0.05683 0.53656 0.0
O369 O 0.52445 0.06654 0.52344 0.0
O370 O 0.53637 0.04057 0.49254 0.0
O371 O 0.51299 0.0483 0.46417 0.0
O372 O 0.48843 0.07229 0.49654 0.0
O373 O 0.4638 0.04902 0.47555 0.0
C374 C 0.57317 0.96081 0.48907 0.0
C375 C 0.50774 0.9761 0.49136 0.0
C376 C 0.51281 0.98531 0.55996 0.0
C377 C 0.57355 0.96586 0.54739 0.0
C378 C 0.4748 0.07684 0.54423 0.0
C379 C 0.53694 0.05877 0.53868 0.0
C380 C 0.53197 0.0496 0.4724 0.0
C381 C 0.47042 0.06852 0.48421 0.0
O382 O 0.55366 0.95057 0.49007 0.0
O383 O 0.57861 0.98057 0.49792 0.0
O384 O 0.50837 0.99733 0.49022 0.0
O385 O 0.52055 0.96718 0.5053 0.0
Co386 Co 0.49688 0.52785 0.06496 0.0
Co387 Co 0.4884 0.48752 0.05094 0.0
Co388 Co 0.52454 0.51493 0.01899 0.0
O389 O 0.49715 0.51446 0.03504 0.0
H390 H 0.48595 0.51806 0.02414 0.0
O391 O 0.5518 0.5156 1.00258 0.0
Co392 Co 0.55158 0.50429 0.97138 0.0
Co393 Co 0.56057 0.54394 0.9888 0.0
H394 H 0.56297 0.51112 0.01307 0.0
O395 O 0.46039 0.47788 0.05765 0.0
O396 O 0.48572 0.49837 0.08046 0.0
O397 O 0.50853 0.46745 0.05551 0.0
O398 O 0.53564 0.49183 0.04179 0.0
O399 O 0.50916 0.49078 0.99807 0.0
O400 O 0.55336 0.49282 0.94343 0.0
O401 O 0.57885 0.49874 0.9726 0.0
O402 O 0.52307 0.5079 0.96603 0.0
O403 O 0.51362 0.53794 0.99618 0.0
O404 O 0.54072 0.56474 0.98769 0.0
O405 O 0.56088 0.53495 0.95795 0.0
O406 O 0.58814 0.5538 0.97938 0.0
C407 C 0.47618 0.54325 0.08227 0.0
C408 C 0.53971 0.53661 0.06256 0.0
C409 C 0.52832 0.47378 0.05352 0.0
C410 C 0.46674 0.48664 0.07779 0.0
C411 C 0.57241 0.49119 0.95177 0.0
C412 C 0.50912 0.49325 0.97552 0.0
C413 C 0.52093 0.55733 0.98717 0.0
C414 C 0.58004 0.54633 0.95925 0.0
O415 O 0.49487 0.54138 0.09162 0.0
O416 O 0.47009 0.53467 0.06182 0.0
O417 O 0.53989 0.53903 0.04 0.0
O418 O 0.5249 0.52303 0.07206 0.0
H419 H 0.23249 0.37059 0.44861 0.0
H420 H 0.20337 0.38302 0.46781 0.0
H421 H 0.21618 0.44696 0.42964 0.0
H422 H 0.24589 0.43509 0.41131 0.0
H423 H 0.20688 0.45277 0.47344 0.0
H424 H 0.17636 0.40447 0.41095 0.0
H425 H 0.16969 0.36938 0.38955 0.0
H426 H 0.14308 0.3336 0.45126 0.0
H427 H 0.14984 0.36847 0.47313 0.0
H428 H 0.10992 0.49343 0.47413 0.0
H429 H 0.14235 0.47982 0.46539 0.0
H430 H 0.11889 0.41595 0.5001 0.0
H431 H 0.08548 0.42911 0.5069 0.0
H432 H 0.13473 0.40825 0.46269 0.0
H433 H 0.16352 0.45917 0.52429 0.0
H434 H 0.16996 0.49559 0.54358 0.0
H435 H 0.19886 0.52766 0.48141 0.0
H436 H 0.19289 0.49154 0.4619 0.0
C437 C 0.22935 0.38743 0.44462 0.0
C438 C 0.2414 0.40176 0.42821 0.0
C439 C 0.21257 0.39444 0.45544 0.0
C440 C 0.20737 0.41579 0.44987 0.0
C441 C 0.21982 0.43037 0.43414 0.0
C442 C 0.23667 0.42346 0.42346 0.0
C443 C 0.18848 0.42278 0.45958 0.0
C444 C 0.19107 0.44308 0.47108 0.0
C445 C 0.16792 0.40995 0.45688 0.0
C446 C 0.16383 0.389 0.44375 0.0
C447 C 0.16923 0.38908 0.42001 0.0
C448 C 0.16541 0.36925 0.40779 0.0
C449 C 0.15603 0.34926 0.41906 0.0
C450 C 0.15039 0.34909 0.44257 0.0
C451 C 0.1542 0.36888 0.45488 0.0
C452 C 0.11178 0.47649 0.47989 0.0
C453 C 0.09529 0.46219 0.49096 0.0
C454 C 0.13047 0.4688 0.47522 0.0
C455 C 0.13347 0.44698 0.48261 0.0
C456 C 0.11705 0.43284 0.49422 0.0
C457 C 0.09798 0.44029 0.49807 0.0
C458 C 0.15298 0.43841 0.47659 0.0
C459 C 0.15053 0.41779 0.46564 0.0
C460 C 0.17365 0.45106 0.47967 0.0
C461 C 0.17764 0.47268 0.49163 0.0
C462 C 0.17121 0.47402 0.51477 0.0
C463 C 0.17477 0.49457 0.52572 0.0
C464 C 0.18463 0.51389 0.51367 0.0
C465 C 0.1912 0.51268 0.49072 0.0
C466 C 0.18785 0.49216 0.47976 0.0
H467 H 0.18725 0.52979 0.52214 0.0
H468 H 0.15307 0.33392 0.40957 0.0
H469 H 0.65789 0.20678 0.35848 0.0
H470 H 0.63611 0.17181 0.37229 0.0
H471 H 0.62655 0.20222 0.43717 0.0
H472 H 0.64828 0.23712 0.42352 0.0
H473 H 0.636 0.16159 0.44641 0.0
H474 H 0.58734 0.19371 0.39211 0.0
H475 H 0.57545 0.20946 0.35364 0.0
H476 H 0.58023 0.14831 0.32082 0.0
H477 H 0.59242 0.1323 0.35906 0.0
H478 H 0.55176 0.08642 0.49384 0.0
H479 H 0.57547 0.11809 0.47708 0.0
H480 H 0.57339 0.08445 0.41142 0.0
H481 H 0.54765 0.05335 0.42782 0.0
H482 H 0.57233 0.12476 0.40088 0.0
H483 H 0.61883 0.0916 0.45705 0.0
H484 H 0.62958 0.07639 0.49626 0.0
H485 H 0.62878 0.13984 0.52631 0.0
H486 H 0.61777 0.15535 0.48736 0.0
C487 C 0.65095 0.2061 0.37558 0.0
C488 C 0.65487 0.22479 0.38989 0.0
C489 C 0.63852 0.18606 0.38348 0.0
C490 C 0.62954 0.18436 0.40575 0.0
C491 C 0.63337 0.20303 0.41999 0.0
C492 C 0.64585 0.223 0.41216 0.0
C493 C 0.61636 0.16313 0.41447 0.0
C494 C 0.62198 0.1536 0.43654 0.0
C495 C 0.5984 0.15232 0.40134 0.0
C496 C 0.59101 0.1619 0.37838 0.0
C497 C 0.58601 0.18369 0.37665 0.0
C498 C 0.57919 0.19265 0.3549 0.0
C499 C 0.57714 0.17992 0.33478 0.0
C500 C 0.58186 0.15817 0.3364 0.0
C501 C 0.58871 0.14914 0.35811 0.0
C502 C 0.55652 0.08563 0.47593 0.0
C503 C 0.54816 0.06728 0.46224 0.0
C504 C 0.57032 0.10375 0.46635 0.0
C505 C 0.57703 0.10355 0.44316 0.0
C506 C 0.56872 0.08504 0.42943 0.0
C507 C 0.55415 0.0672 0.4388 0.0
C508 C 0.59181 0.12314 0.43305 0.0
C509 C 0.58651 0.13245 0.41069 0.0
C510 C 0.61011 0.13376 0.44596 0.0
C511 C 0.61737 0.1246 0.46927 0.0
C512 C 0.62091 0.1023 0.47202 0.0
C513 C 0.62703 0.09362 0.49421 0.0
C514 C 0.62981 0.10713 0.51377 0.0
C515 C 0.6266 0.12939 0.51115 0.0
C516 C 0.62047 0.13814 0.48901 0.0
H517 H 0.63448 0.10036 0.53095 0.0
H518 H 0.57186 0.18689 0.31796 0.0
H519 H 0.80557 0.62839 0.37997 0.0
H520 H 0.83568 0.61535 0.4014 0.0
H521 H 0.8541 0.68008 0.43136 0.0
H522 H 0.82401 0.69349 0.40947 0.0
H523 H 0.88871 0.66324 0.41566 0.0
H524 H 0.82978 0.63803 0.46295 0.0
H525 H 0.79389 0.61945 0.47314 0.0
H526 H 0.80882 0.55604 0.45528 0.0
H527 H 0.84472 0.57428 0.44467 0.0
H528 H 0.965 0.61257 0.49209 0.0
H529 H 0.93741 0.63435 0.47696 0.0
H530 H 0.90249 0.57544 0.44478 0.0
H531 H 0.92944 0.5538 0.46012 0.0
H532 H 0.87662 0.59449 0.46786 0.0
H533 H 0.93196 0.62046 0.41263 0.0
H534 H 0.96789 0.63835 0.40161 0.0
H535 H 0.95942 0.69895 0.43324 0.0
H536 H 0.92351 0.6813 0.4447 0.0
C537 C 0.81609 0.63998 0.39094 0.0
C538 C 0.81236 0.66205 0.3929 0.0
C539 C 0.83324 0.63242 0.40335 0.0
C540 C 0.84712 0.64666 0.41815 0.0
C541 C 0.84361 0.66878 0.42006 0.0
C542 C 0.8263 0.67636 0.4077 0.0
C543 C 0.86511 0.63815 0.43158 0.0
C544 C 0.88607 0.64842 0.4274 0.0
C545 C 0.86171 0.61867 0.44676 0.0
C546 C 0.84 0.60761 0.45298 0.0
C547 C 0.8254 0.62015 0.46109 0.0
C548 C 0.80504 0.60967 0.46694 0.0
C549 C 0.79908 0.58658 0.46487 0.0
C550 C 0.81347 0.57393 0.45692 0.0
C551 C 0.83385 0.58435 0.451 0.0
C552 C 0.95159 0.60446 0.48144 0.0
C553 C 0.94944 0.58149 0.47723 0.0
C554 C 0.93579 0.61688 0.47286 0.0
C555 C 0.91777 0.60657 0.45967 0.0
C556 C 0.91605 0.5838 0.45504 0.0
C557 C 0.93158 0.57144 0.46375 0.0
C558 C 0.90021 0.61887 0.45099 0.0
C559 C 0.87928 0.60942 0.45627 0.0
C560 C 0.90364 0.63889 0.43665 0.0
C561 C 0.92518 0.64948 0.42977 0.0
C562 C 0.93784 0.63754 0.4174 0.0
C563 C 0.95818 0.64764 0.41104 0.0
C564 C 0.96596 0.66975 0.41679 0.0
C565 C 0.95339 0.68181 0.42885 0.0
C566 C 0.93304 0.67177 0.43527 0.0
H567 H 0.98171 0.67755 0.41185 0.0
H568 H 0.78331 0.57849 0.46943 0.0
H569 H 0.35696 0.82605 0.4058 0.0
H570 H 0.37867 0.85967 0.42147 0.0
H571 H 0.43551 0.83571 0.40376 0.0
H572 H 0.41395 0.80165 0.38883 0.0
H573 H 0.43973 0.85046 0.44725 0.0
H574 H 0.4159 0.87903 0.37135 0.0
H575 H 0.38928 0.8867 0.34014 0.0
H576 H 0.36148 0.92519 0.38779 0.0
H577 H 0.38777 0.91749 0.4194 0.0
H578 H 0.51675 0.94406 0.46404 0.0
H579 H 0.4919 0.91555 0.44351 0.0
H580 H 0.43927 0.94478 0.4653 0.0
H581 H 0.46449 0.97423 0.48507 0.0
H582 H 0.43081 0.92802 0.42146 0.0
H583 H 0.45716 0.90144 0.49665 0.0
H584 H 0.48626 0.89625 0.52572 0.0
H585 H 0.50932 0.85302 0.47909 0.0
H586 H 0.48106 0.85887 0.44923 0.0
C587 C 0.37409 0.82784 0.40531 0.0
C588 C 0.38365 0.81099 0.39607 0.0
C589 C 0.3865 0.84726 0.41406 0.0
C590 C 0.40878 0.85042 0.41365 0.0
C591 C 0.41836 0.83374 0.40425 0.0
C592 C 0.40597 0.81432 0.39551 0.0
C593 C 0.4222 0.87062 0.42382 0.0
C594 C 0.4379 0.86739 0.44138 0.0
C595 C 0.41944 0.89281 0.4168 0.0
C596 C 0.40366 0.89749 0.39781 0.0
C597 C 0.404 0.88898 0.37523 0.0
C598 C 0.38899 0.89336 0.35746 0.0
C599 C 0.37366 0.90637 0.362 0.0
C600 C 0.37334 0.91508 0.38431 0.0
C601 C 0.3883 0.91073 0.40215 0.0
C602 C 0.4999 0.94465 0.46411 0.0
C603 C 0.49251 0.9612 0.47629 0.0
C604 C 0.48567 0.92829 0.45242 0.0
C605 C 0.46363 0.92756 0.45339 0.0
C606 C 0.45619 0.94487 0.46443 0.0
C607 C 0.47056 0.96167 0.47571 0.0
C608 C 0.44865 0.90779 0.44444 0.0
C609 C 0.43256 0.91107 0.42735 0.0
C610 C 0.451 0.88557 0.4519 0.0
C611 C 0.46713 0.88085 0.47054 0.0
C612 C 0.46851 0.89093 0.49252 0.0
C613 C 0.48495 0.88799 0.5091 0.0
C614 C 0.4998 0.87457 0.50409 0.0
C615 C 0.49799 0.86368 0.48278 0.0
C616 C 0.48181 0.86687 0.46599 0.0
H617 H 0.51275 0.87263 0.51669 0.0
H618 H 0.36206 0.90974 0.34822 0.0
H619 H 0.21209 0.61853 0.70192 0.0
H620 H 0.17847 0.60301 0.68175 0.0
H621 H 0.20252 0.63083 0.61505 0.0
H622 H 0.2363 0.64626 0.63505 0.0
H623 H 0.16137 0.63564 0.61777 0.0
H624 H 0.2021 0.57499 0.63004 0.0
H625 H 0.22246 0.5496 0.65349 0.0
H626 H 0.16895 0.52754 0.69649 0.0
H627 H 0.1483 0.55288 0.67329 0.0
H628 H 0.10933 0.53756 0.54677 0.0
H629 H 0.13594 0.55598 0.57444 0.0
H630 H 0.08846 0.58674 0.60543 0.0
H631 H 0.06084 0.56681 0.57838 0.0
H632 H 0.13826 0.55329 0.62413 0.0
H633 H 0.11851 0.6424 0.61663 0.0
H634 H 0.10022 0.66642 0.58877 0.0
H635 H 0.11513 0.63014 0.53045 0.0
H636 H 0.13367 0.60615 0.55795 0.0
C637 C 0.21031 0.62131 0.68294 0.0
C638 C 0.22709 0.63351 0.67013 0.0
C639 C 0.19099 0.61248 0.67143 0.0
C640 C 0.18797 0.61552 0.64681 0.0
C641 C 0.2044 0.6283 0.63406 0.0
C642 C 0.22374 0.63716 0.64556 0.0
C643 C 0.16814 0.60453 0.63417 0.0
C644 C 0.1562 0.61766 0.6194 0.0
C645 C 0.16136 0.58105 0.63604 0.0
C646 C 0.17377 0.56598 0.65013 0.0
C647 C 0.19475 0.56484 0.64461 0.0
C648 C 0.20631 0.55043 0.65781 0.0
C649 C 0.19703 0.53703 0.67652 0.0
C650 C 0.17614 0.53799 0.68204 0.0
C651 C 0.16449 0.55233 0.66884 0.0
C652 C 0.10422 0.54789 0.55962 0.0
C653 C 0.08271 0.55033 0.56049 0.0
C654 C 0.11962 0.55853 0.57542 0.0
C655 C 0.11425 0.5727 0.592 0.0
C656 C 0.09293 0.57578 0.59276 0.0
C657 C 0.07719 0.56447 0.57728 0.0
C658 C 0.13149 0.58438 0.60782 0.0
C659 C 0.14305 0.57135 0.62309 0.0
C660 C 0.13811 0.60785 0.60603 0.0
C661 C 0.1272 0.62232 0.58936 0.0
C662 C 0.11788 0.6396 0.59785 0.0
C663 C 0.10749 0.6532 0.58213 0.0
C664 C 0.10643 0.64975 0.55786 0.0
C665 C 0.11585 0.63274 0.54925 0.0
C666 C 0.12627 0.61912 0.5649 0.0
H667 H 0.09836 0.66029 0.54573 0.0
H668 H 0.206 0.52585 0.6867 0.0
H669 H 0.38128 0.19033 0.68452 0.0
H670 H 0.3944 0.16112 0.66414 0.0
H671 H 0.40035 0.20377 0.60071 0.0
H672 H 0.38733 0.23308 0.62098 0.0
H673 H 0.38503 0.16223 0.58946 0.0
H674 H 0.44355 0.19772 0.63815 0.0
H675 H 0.46232 0.211 0.67524 0.0
H676 H 0.45413 0.14353 0.70471 0.0
H677 H 0.43503 0.12989 0.66787 0.0
H678 H 0.48808 0.11702 0.56372 0.0
H679 H 0.4678 0.14024 0.58354 0.0
H680 H 0.41079 0.09201 0.5721 0.0
H681 H 0.43131 0.06836 0.55157 0.0
H682 H 0.44893 0.13302 0.62278 0.0
H683 H 0.36904 0.11748 0.57124 0.0
H684 H 0.35228 0.11475 0.53091 0.0
H685 H 0.40877 0.15318 0.50269 0.0
H686 H 0.42605 0.15538 0.54259 0.0
C687 C 0.38543 0.19355 0.66624 0.0
C688 C 0.38335 0.21422 0.65449 0.0
C689 C 0.3929 0.17677 0.65458 0.0
C690 C 0.39863 0.18025 0.63092 0.0
C691 C 0.39599 0.20059 0.61893 0.0
C692 C 0.38848 0.21736 0.63056 0.0
C693 C 0.40798 0.1631 0.61879 0.0
C694 C 0.39888 0.15566 0.59691 0.0
C695 C 0.42625 0.15467 0.62819 0.0
C696 C 0.43762 0.16283 0.65039 0.0
C697 C 0.44558 0.18574 0.65262 0.0
C698 C 0.45631 0.19333 0.67358 0.0
C699 C 0.45935 0.17813 0.69235 0.0
C700 C 0.45171 0.1553 0.69018 0.0
C701 C 0.44094 0.14763 0.66926 0.0
C702 C 0.4712 0.11118 0.56521 0.0
C703 C 0.46141 0.0906 0.55608 0.0
C704 C 0.45958 0.1246 0.57669 0.0
C705 C 0.43771 0.11801 0.57948 0.0
C706 C 0.42763 0.09762 0.57007 0.0
C707 C 0.43939 0.08401 0.55848 0.0
C708 C 0.42616 0.13233 0.59317 0.0
C709 C 0.4348 0.13916 0.61553 0.0
C710 C 0.40785 0.14069 0.58391 0.0
C711 C 0.39888 0.1363 0.55975 0.0
C712 C 0.37801 0.12486 0.55629 0.0
C713 C 0.36843 0.12343 0.53352 0.0
C714 C 0.37947 0.13374 0.5142 0.0
C715 C 0.40032 0.14494 0.51754 0.0
C716 C 0.41009 0.1461 0.54019 0.0
H717 H 0.37181 0.13315 0.49669 0.0
H718 H 0.46768 0.18403 0.70856 0.0
H719 H 0.83155 0.36719 0.61206 0.0
H720 H 0.86557 0.38841 0.60011 0.0
H721 H 0.86418 0.43446 0.65527 0.0
H722 H 0.83032 0.41309 0.66768 0.0
H723 H 0.87506 0.45604 0.61259 0.0
H724 H 0.89638 0.39486 0.66138 0.0
H725 H 0.89599 0.35498 0.6729 0.0
H726 H 0.91747 0.34369 0.60472 0.0
H727 H 0.91771 0.38346 0.59268 0.0
H728 H 0.9789 0.51526 0.60687 0.0
H729 H 0.94817 0.49056 0.62268 0.0
H730 H 0.95226 0.44278 0.57002 0.0
H731 H 0.98318 0.46721 0.55425 0.0
H732 H 0.94005 0.42137 0.61091 0.0
H733 H 0.921 0.48053 0.56179 0.0
H734 H 0.91832 0.51852 0.54577 0.0
H735 H 0.89066 0.53279 0.60948 0.0
H736 H 0.89345 0.4949 0.6261 0.0
C737 C 0.83856 0.38165 0.6219 0.0
C738 C 0.82812 0.38828 0.64098 0.0
C739 C 0.85803 0.39382 0.61497 0.0
C740 C 0.8676 0.41292 0.62694 0.0
C741 C 0.85713 0.41978 0.64575 0.0
C742 C 0.83768 0.40758 0.65276 0.0
C743 C 0.88837 0.42591 0.61967 0.0
C744 C 0.88939 0.44861 0.61268 0.0
C745 C 0.90684 0.41593 0.61874 0.0
C746 C 0.9069 0.39209 0.62607 0.0
C747 C 0.90089 0.38384 0.64879 0.0
C748 C 0.90071 0.36126 0.65543 0.0
C749 C 0.90666 0.3468 0.63954 0.0
C750 C 0.91285 0.3549 0.617 0.0
C751 C 0.91303 0.37746 0.61027 0.0
C752 C 0.97363 0.49927 0.59896 0.0
C753 C 0.98352 0.49338 0.57912 0.0
C754 C 0.95593 0.4852 0.60796 0.0
C755 C 0.9476 0.46499 0.59726 0.0
C756 C 0.95833 0.4583 0.57855 0.0
C757 C 0.97608 0.47233 0.56956 0.0
C758 C 0.92691 0.45174 0.6044 0.0
C759 C 0.92583 0.42895 0.61112 0.0
C760 C 0.90825 0.46156 0.60467 0.0
C761 C 0.90752 0.4848 0.59525 0.0
C762 C 0.91455 0.4918 0.57254 0.0
C763 C 0.91298 0.51333 0.56331 0.0
C764 C 0.90424 0.52801 0.57657 0.0
C765 C 0.89736 0.52134 0.59921 0.0
C766 C 0.89894 0.49983 0.60855 0.0
H767 H 0.90266 0.54448 0.56921 0.0
H768 H 0.90651 0.32933 0.6447 0.0
H769 H 0.64778 0.78335 0.60084 0.0
H770 H 0.62796 0.81399 0.59056 0.0
H771 H 0.68679 0.86052 0.58692 0.0
H772 H 0.70678 0.82999 0.59771 0.0
H773 H 0.65466 0.87508 0.61315 0.0
H774 H 0.66087 0.85238 0.53011 0.0
H775 H 0.65875 0.82272 0.50132 0.0
H776 H 0.59652 0.79402 0.52378 0.0
H777 H 0.59842 0.82346 0.55277 0.0
H778 H 0.61549 0.96863 0.56066 0.0
H779 H 0.63537 0.93796 0.56956 0.0
H780 H 0.57847 0.8901 0.55564 0.0
H781 H 0.55872 0.92087 0.54547 0.0
H782 H 0.60971 0.87557 0.53895 0.0
H783 H 0.59971 0.90445 0.61408 0.0
H784 H 0.60122 0.93348 0.64335 0.0
H785 H 0.66918 0.94811 0.64014 0.0
H786 H 0.66806 0.91935 0.61063 0.0
C787 C 0.65651 0.80012 0.59798 0.0
C788 C 0.67885 0.80425 0.60007 0.0
C789 C 0.64517 0.81756 0.5919 0.0
C790 C 0.65594 0.83944 0.58775 0.0
C791 C 0.67822 0.8437 0.58996 0.0
C792 C 0.6896 0.82623 0.59596 0.0
C793 C 0.64388 0.8579 0.58136 0.0
C794 C 0.64496 0.87538 0.59684 0.0
C795 C 0.63081 0.85786 0.56048 0.0
C796 C 0.6297 0.84012 0.54333 0.0
C797 C 0.64676 0.83971 0.52884 0.0
C798 C 0.6456 0.82297 0.51252 0.0
C799 C 0.62748 0.80654 0.51065 0.0
C800 C 0.61052 0.80677 0.52519 0.0
C801 C 0.61162 0.82349 0.54153 0.0
C802 C 0.60719 0.95157 0.55953 0.0
C803 C 0.58551 0.94716 0.55257 0.0
C804 C 0.61856 0.93401 0.56475 0.0
C805 C 0.60834 0.91164 0.56395 0.0
C806 C 0.58672 0.90719 0.55658 0.0
C807 C 0.57542 0.92479 0.55083 0.0
C808 C 0.62021 0.89295 0.57082 0.0
C809 C 0.61919 0.87535 0.55538 0.0
C810 C 0.63304 0.89273 0.59207 0.0
C811 C 0.63377 0.90987 0.61001 0.0
C812 C 0.61496 0.91394 0.61953 0.0
C813 C 0.61575 0.93034 0.63617 0.0
C814 C 0.63528 0.94267 0.64356 0.0
C815 C 0.65407 0.93857 0.63438 0.0
C816 C 0.65337 0.9222 0.61772 0.0
H817 H 0.63585 0.95537 0.65643 0.0
H818 H 0.6266 0.79362 0.49798 0.0
H819 H 0.37521 0.23974 0.47197 0.0
H820 H 0.39389 0.20784 0.48033 0.0
H821 H 0.37801 0.18612 0.40935 0.0
H822 H 0.35895 0.21772 0.40098 0.0
H823 H 0.37275 0.15099 0.44374 0.0
H824 H 0.42632 0.21429 0.42186 0.0
H825 H 0.44563 0.25286 0.42552 0.0
H826 H 0.46406 0.23748 0.49774 0.0
H827 H 0.44461 0.19889 0.49459 0.0
H828 H 0.44336 0.07225 0.44592 0.0
H829 H 0.42419 0.10308 0.43475 0.0
H830 H 0.4504 0.13688 0.49765 0.0
H831 H 0.47145 0.10734 0.50728 0.0
H832 H 0.44994 0.16607 0.46549 0.0
H833 H 0.39826 0.10289 0.48872 0.0
H834 H 0.37745 0.06491 0.48765 0.0
H835 H 0.35379 0.07911 0.41707 0.0
H836 H 0.37459 0.11721 0.4176 0.0
C837 C 0.37546 0.22801 0.45824 0.0
C838 C 0.36572 0.23132 0.43576 0.0
C839 C 0.38626 0.2099 0.46299 0.0
C840 C 0.38752 0.19479 0.44536 0.0
C841 C 0.37728 0.19765 0.42315 0.0
C842 C 0.36656 0.21581 0.41835 0.0
C843 C 0.40006 0.17638 0.44984 0.0
C844 C 0.38969 0.15417 0.44823 0.0
C845 C 0.42201 0.18066 0.45625 0.0
C846 C 0.43389 0.20377 0.45803 0.0
C847 C 0.43439 0.21918 0.43856 0.0
C848 C 0.44537 0.24103 0.44053 0.0
C849 C 0.45604 0.24762 0.46186 0.0
C850 C 0.45579 0.23235 0.48124 0.0
C851 C 0.44481 0.21049 0.47936 0.0
C852 C 0.44504 0.08627 0.45736 0.0
C853 C 0.4585 0.08706 0.47787 0.0
C854 C 0.43396 0.10386 0.45102 0.0
C855 C 0.4353 0.1221 0.46566 0.0
C856 C 0.44895 0.12299 0.48604 0.0
C857 C 0.46076 0.10588 0.4918 0.0
C858 C 0.42264 0.14033 0.45983 0.0
C859 C 0.43301 0.16264 0.461 0.0
C860 C 0.40056 0.13603 0.45348 0.0
C861 C 0.38811 0.11299 0.45317 0.0
C862 C 0.38868 0.09797 0.47292 0.0
C863 C 0.37687 0.07638 0.47241 0.0
C864 C 0.36432 0.06959 0.45229 0.0
C865 C 0.36352 0.08439 0.43265 0.0
C866 C 0.3753 0.10601 0.43306 0.0
H867 H 0.35519 0.05286 0.45193 0.0
H868 H 0.46452 0.26455 0.46336 0.0
H869 H 0.82634 0.43521 0.36426 0.0
H870 H 0.8593 0.44953 0.38617 0.0
H871 H 0.85712 0.38588 0.4245 0.0
H872 H 0.8241 0.37123 0.40235 0.0
H873 H 0.86734 0.42054 0.45388 0.0
H874 H 0.89209 0.40055 0.38129 0.0
H875 H 0.89363 0.39941 0.33799 0.0
H876 H 0.91177 0.47093 0.33298 0.0
H877 H 0.91004 0.47255 0.37622 0.0
H878 H 0.97123 0.45709 0.50566 0.0
H879 H 0.9421 0.43461 0.48284 0.0
H880 H 0.93537 0.4927 0.43745 0.0
H881 H 0.96453 0.51493 0.46006 0.0
H882 H 0.93146 0.45599 0.41193 0.0
H883 H 0.90024 0.47651 0.48211 0.0
H884 H 0.89707 0.47901 0.52497 0.0
H885 H 0.89149 0.40749 0.53423 0.0
H886 H 0.89429 0.40458 0.4912 0.0
C887 C 0.83295 0.42409 0.37711 0.0
C888 C 0.82258 0.40195 0.38131 0.0
C889 C 0.85183 0.43235 0.3897 0.0
C890 C 0.86092 0.4187 0.40677 0.0
C891 C 0.85046 0.39672 0.41137 0.0
C892 C 0.83152 0.3884 0.39873 0.0
C893 C 0.88118 0.42764 0.41992 0.0
C894 C 0.88149 0.42785 0.44471 0.0
C895 C 0.8996 0.43757 0.40802 0.0
C896 C 0.90078 0.43668 0.382 0.0
C897 C 0.89626 0.41605 0.37094 0.0
C898 C 0.89719 0.41532 0.34641 0.0
C899 C 0.90276 0.43509 0.33274 0.0
C900 C 0.90745 0.45563 0.34359 0.0
C901 C 0.90652 0.45647 0.36812 0.0
C902 C 0.96378 0.4648 0.49046 0.0
C903 C 0.97019 0.48756 0.48431 0.0
C904 C 0.94702 0.45207 0.4776 0.0
C905 C 0.93635 0.462 0.45853 0.0
C906 C 0.94333 0.48462 0.45201 0.0
C907 C 0.95999 0.49731 0.46488 0.0
C908 C 0.91746 0.44927 0.4458 0.0
C909 C 0.9174 0.44834 0.42109 0.0
C910 C 0.89927 0.43875 0.45774 0.0
C911 C 0.8977 0.44036 0.48355 0.0
C912 C 0.89846 0.46134 0.49332 0.0
C913 C 0.89668 0.46281 0.51764 0.0
C914 C 0.89426 0.44343 0.5324 0.0
C915 C 0.89342 0.42249 0.52279 0.0
C916 C 0.895 0.42091 0.49843 0.0
H917 H 0.89294 0.4446 0.55124 0.0
H918 H 0.90347 0.43449 0.31374 0.0
H919 H 0.65727 0.82574 0.36921 0.0
H920 H 0.6418 0.85612 0.3845 0.0
H921 H 0.65581 0.83292 0.45591 0.0
H922 H 0.67156 0.80267 0.44082 0.0
H923 H 0.61616 0.84371 0.45133 0.0
H924 H 0.68662 0.87873 0.4301 0.0
H925 H 0.71609 0.88908 0.40317 0.0
H926 H 0.67644 0.92368 0.35586 0.0
H927 H 0.64663 0.91328 0.38236 0.0
H928 H 0.60394 0.93996 0.51129 0.0
H929 H 0.62338 0.91358 0.49409 0.0
H930 H 0.59655 0.92906 0.42494 0.0
H931 H 0.5762 0.95463 0.44246 0.0
H932 H 0.64287 0.9231 0.42788 0.0
H933 H 0.57286 0.8886 0.44613 0.0
H934 H 0.54255 0.8805 0.47191 0.0
H935 H 0.5788 0.84459 0.52168 0.0
H936 H 0.60993 0.85342 0.49656 0.0
C937 C 0.65725 0.82716 0.38818 0.0
C938 C 0.6658 0.81168 0.40372 0.0
C939 C 0.64834 0.84456 0.39691 0.0
C940 C 0.64784 0.84703 0.4214 0.0
C941 C 0.65598 0.83139 0.43696 0.0
C942 C 0.66491 0.814 0.42826 0.0
C943 C 0.63894 0.86593 0.4308 0.0
C944 C 0.62224 0.86104 0.44641 0.0
C945 C 0.64638 0.88863 0.42395 0.0
C946 C 0.66434 0.89505 0.40811 0.0
C947 C 0.68414 0.88842 0.41387 0.0
C948 C 0.70092 0.89431 0.3987 0.0
C949 C 0.69813 0.90699 0.37779 0.0
C950 C 0.67857 0.91385 0.37205 0.0
C951 C 0.66174 0.90797 0.38715 0.0
C952 C 0.60257 0.93811 0.49242 0.0
C953 C 0.58869 0.94939 0.4782 0.0
C954 C 0.61369 0.92304 0.48256 0.0
C955 C 0.61142 0.91936 0.45821 0.0
C956 C 0.59866 0.93178 0.44372 0.0
C957 C 0.58708 0.94638 0.45372 0.0
C958 C 0.62035 0.90078 0.44842 0.0
C959 C 0.63694 0.90573 0.43279 0.0
C960 C 0.61261 0.87813 0.4549 0.0
C961 C 0.59385 0.87199 0.46968 0.0
C962 C 0.57452 0.87921 0.46272 0.0
C963 C 0.55719 0.87447 0.47721 0.0
C964 C 0.55879 0.862 0.49847 0.0
C965 C 0.57772 0.85425 0.50522 0.0
C966 C 0.59523 0.8592 0.49092 0.0
H967 H 0.54538 0.85827 0.5097 0.0
H968 H 0.71113 0.91153 0.36606 0.0
H969 H 0.21264 0.6003 0.35611 0.0
H970 H 0.17901 0.58452 0.37356 0.0
H971 H 0.18305 0.64278 0.41517 0.0
H972 H 0.21667 0.65893 0.39749 0.0
H973 H 0.172 0.60404 0.44156 0.0
H974 H 0.14851 0.63554 0.36719 0.0
H975 H 0.14735 0.64176 0.32381 0.0
H976 H 0.12579 0.57149 0.31538 0.0
H977 H 0.1271 0.5648 0.35871 0.0
H978 H 0.06872 0.57145 0.48427 0.0
H979 H 0.09874 0.5935 0.46417 0.0
H980 H 0.09719 0.54084 0.41542 0.0
H981 H 0.06694 0.51898 0.43497 0.0
H982 H 0.10628 0.57953 0.39255 0.0
H983 H 0.1327 0.54669 0.46494 0.0
H984 H 0.13647 0.53843 0.50791 0.0
H985 H 0.15394 0.60869 0.51969 0.0
H986 H 0.15002 0.61739 0.47683 0.0
C987 C 0.20629 0.60998 0.36871 0.0
C988 C 0.21741 0.63103 0.37521 0.0
C989 C 0.18702 0.60086 0.37873 0.0
C990 C 0.1783 0.61257 0.39547 0.0
C991 C 0.18943 0.63344 0.40226 0.0
C992 C 0.20872 0.64262 0.39219 0.0
C993 C 0.15782 0.60272 0.40622 0.0
C994 C 0.15752 0.59908 0.43087 0.0
C995 C 0.13904 0.59563 0.39227 0.0
C996 C 0.13806 0.59965 0.3662 0.0
C997 C 0.14366 0.62139 0.35608 0.0
C998 C 0.14295 0.625 0.3315 0.0
C999 C 0.13654 0.60702 0.31685 0.0
C1000 C 0.13076 0.5854 0.32675 0.0
C1001 C 0.13146 0.58169 0.35132 0.0
C1002 C 0.07445 0.56473 0.46896 0.0
C1003 C 0.06538 0.54332 0.46137 0.0
C1004 C 0.09181 0.57729 0.45761 0.0
C1005 C 0.10061 0.56866 0.43856 0.0
C1006 C 0.09082 0.54787 0.43013 0.0
C1007 C 0.07343 0.53537 0.44136 0.0
C1008 C 0.12046 0.58072 0.42794 0.0
C1009 C 0.12067 0.58473 0.40329 0.0
C1010 C 0.13926 0.58788 0.44187 0.0
C1011 C 0.14087 0.58271 0.46771 0.0
C1012 C 0.1371 0.56039 0.47672 0.0
C1013 C 0.13931 0.55563 0.50106 0.0
C1014 C 0.14541 0.57304 0.51651 0.0
C1015 C 0.14917 0.59524 0.5077 0.0
C1016 C 0.14698 0.60009 0.4834 0.0
H1017 H 0.1474 0.56934 0.53527 0.0
H1018 H 0.13601 0.60985 0.29782 0.0
H1019 H 0.39929 0.82618 0.68444 0.0
H1020 H 0.42182 0.86052 0.67016 0.0
H1021 H 0.41704 0.83532 0.59994 0.0
H1022 H 0.39502 0.80082 0.61417 0.0
H1023 H 0.4572 0.85364 0.61177 0.0
H1024 H 0.3879 0.8749 0.61489 0.0
H1025 H 0.35536 0.87967 0.63422 0.0
H1026 H 0.39266 0.92307 0.68383 0.0
H1027 H 0.42547 0.91831 0.66496 0.0
H1028 H 0.48283 0.95404 0.53936 0.0
H1029 H 0.46126 0.92164 0.55886 0.0
H1030 H 0.48571 0.94531 0.62701 0.0
H1031 H 0.50819 0.97726 0.60753 0.0
H1032 H 0.4375 0.92864 0.61955 0.0
H1033 H 0.50672 0.91093 0.61214 0.0
H1034 H 0.539 0.90509 0.59317 0.0
H1035 H 0.50245 0.85248 0.55325 0.0
H1036 H 0.46966 0.85933 0.57033 0.0
C1037 C 0.40319 0.82787 0.666 0.0
C1038 C 0.39522 0.81073 0.65044 0.0
C1039 C 0.41592 0.84761 0.65781 0.0
C1040 C 0.42096 0.85066 0.63389 0.0
C1041 C 0.41332 0.83344 0.61844 0.0
C1042 C 0.40057 0.81376 0.62658 0.0
C1043 C 0.43426 0.87167 0.6248 0.0
C1044 C 0.45276 0.87003 0.61317 0.0
C1045 C 0.42885 0.89314 0.62738 0.0
C1046 C 0.40914 0.89605 0.63868 0.0
C1047 C 0.38917 0.88531 0.63004 0.0
C1048 C 0.37068 0.88804 0.64089 0.0
C1049 C 0.37195 0.90161 0.66028 0.0
C1050 C 0.39171 0.91253 0.66883 0.0
C1051 C 0.41025 0.90984 0.65806 0.0
C1052 C 0.48331 0.95259 0.55852 0.0
C1053 C 0.49708 0.96827 0.57197 0.0
C1054 C 0.47111 0.93398 0.56961 0.0
C1055 C 0.47202 0.93101 0.59435 0.0
C1056 C 0.48483 0.94729 0.60789 0.0
C1057 C 0.49759 0.96554 0.59678 0.0
C1058 C 0.46012 0.9105 0.60593 0.0
C1059 C 0.44195 0.91227 0.6181 0.0
C1060 C 0.46585 0.88911 0.60376 0.0
C1061 C 0.4855 0.88606 0.59219 0.0
C1062 C 0.50536 0.8987 0.59867 0.0
C1063 C 0.52381 0.8952 0.58822 0.0
C1064 C 0.52275 0.87865 0.57174 0.0
C1065 C 0.50323 0.8656 0.56566 0.0
C1066 C 0.48466 0.86944 0.57556 0.0
H1067 H 0.53707 0.87579 0.56385 0.0
H1068 H 0.35761 0.9037 0.66866 0.0
H1069 H 0.20903 0.33509 0.64653 0.0
H1070 H 0.18036 0.35464 0.63087 0.0
H1071 H 0.22644 0.41239 0.61171 0.0
H1072 H 0.25519 0.39297 0.62743 0.0
H1073 H 0.19402 0.42545 0.63072 0.0
H1074 H 0.2013 0.37504 0.57007 0.0
H1075 H 0.20277 0.33848 0.55361 0.0
H1076 H 0.13927 0.31382 0.57482 0.0
H1077 H 0.13752 0.35017 0.59168 0.0
H1078 H 0.13254 0.48434 0.55277 0.0
H1079 H 0.15838 0.46194 0.56962 0.0
H1080 H 0.10776 0.4076 0.58572 0.0
H1081 H 0.08158 0.42993 0.56804 0.0
H1082 H 0.14077 0.39174 0.57022 0.0
H1083 H 0.13332 0.44406 0.62896 0.0
H1084 H 0.13201 0.48185 0.64244 0.0
H1085 H 0.19654 0.50378 0.6233 0.0
H1086 H 0.19815 0.46619 0.60936 0.0
C1087 C 0.2131 0.35191 0.63886 0.0
C1088 C 0.23449 0.36238 0.63818 0.0
C1089 C 0.19665 0.36309 0.62988 0.0
C1090 C 0.20117 0.38494 0.61976 0.0
C1091 C 0.22248 0.39557 0.61942 0.0
C1092 C 0.23893 0.38444 0.6285 0.0
C1093 C 0.18376 0.39676 0.60956 0.0
C1094 C 0.18251 0.41812 0.61735 0.0
C1095 C 0.16835 0.3871 0.59247 0.0
C1096 C 0.16937 0.36524 0.58237 0.0
C1097 C 0.18771 0.36176 0.5714 0.0
C1098 C 0.18858 0.34109 0.56196 0.0
C1099 C 0.17115 0.32381 0.56323 0.0
C1100 C 0.15278 0.3272 0.57389 0.0
C1101 C 0.15183 0.34784 0.58337 0.0
C1102 C 0.12682 0.46762 0.55985 0.0
C1103 C 0.10494 0.45907 0.55936 0.0
C1104 C 0.14166 0.45484 0.56959 0.0
C1105 C 0.13508 0.43328 0.57955 0.0
C1106 C 0.11326 0.42429 0.57837 0.0
C1107 C 0.0983 0.43707 0.56832 0.0
C1108 C 0.15113 0.42045 0.59128 0.0
C1109 C 0.15214 0.39894 0.58379 0.0
C1110 C 0.1664 0.43001 0.60859 0.0
C1111 C 0.1658 0.45233 0.61798 0.0
C1112 C 0.14723 0.45694 0.6276 0.0
C1113 C 0.14642 0.47833 0.63529 0.0
C1114 C 0.16415 0.49521 0.63362 0.0
C1115 C 0.18281 0.49068 0.62452 0.0
C1116 C 0.18369 0.46933 0.61677 0.0
H1117 H 0.16341 0.5118 0.63933 0.0
H1118 H 0.17185 0.30782 0.55591 0.0
H1119 H 0.67363 0.20675 0.65391 0.0
H1120 H 0.65677 0.17227 0.6351 0.0
H1121 H 0.60133 0.20247 0.61583 0.0
H1122 H 0.61802 0.23679 0.63448 0.0
H1123 H 0.58918 0.16235 0.63388 0.0
H1124 H 0.63777 0.19441 0.57525 0.0
H1125 H 0.6723 0.20997 0.55863 0.0
H1126 H 0.69504 0.14811 0.57642 0.0
H1127 H 0.66071 0.13227 0.59347 0.0
H1128 H 0.53884 0.10386 0.53803 0.0
H1129 H 0.56276 0.13127 0.56049 0.0
H1130 H 0.59475 0.07916 0.59241 0.0
H1131 H 0.57027 0.05096 0.56991 0.0
H1132 H 0.62115 0.12539 0.57193 0.0
H1133 H 0.56819 0.09334 0.62769 0.0
H1134 H 0.53119 0.07955 0.63826 0.0
H1135 H 0.51471 0.14437 0.62003 0.0
H1136 H 0.55159 0.15849 0.6091 0.0
C1137 C 0.65796 0.20614 0.6454 0.0
C1138 C 0.64715 0.22456 0.64589 0.0
C1139 C 0.64831 0.18637 0.63467 0.0
C1140 C 0.62772 0.18466 0.62399 0.0
C1141 C 0.61712 0.2032 0.62411 0.0
C1142 C 0.62669 0.22286 0.63486 0.0
C1143 C 0.61679 0.16352 0.61325 0.0
C1144 C 0.59629 0.15434 0.62037 0.0
C1145 C 0.62601 0.15267 0.59581 0.0
C1146 C 0.64679 0.16229 0.586 0.0
C1147 C 0.65022 0.18422 0.57589 0.0
C1148 C 0.66973 0.19307 0.56633 0.0
C1149 C 0.68589 0.18007 0.56657 0.0
C1150 C 0.68254 0.15818 0.57633 0.0
C1151 C 0.66306 0.14926 0.58595 0.0
C1152 C 0.55092 0.09799 0.54974 0.0
C1153 C 0.55245 0.07504 0.55227 0.0
C1154 C 0.56465 0.11381 0.56254 0.0
C1155 C 0.58046 0.10727 0.57814 0.0
C1156 C 0.58261 0.08451 0.58039 0.0
C1157 C 0.56858 0.06844 0.56765 0.0
C1158 C 0.59376 0.12454 0.59261 0.0
C1159 C 0.61449 0.13312 0.586 0.0
C1160 C 0.58465 0.13515 0.61019 0.0
C1161 C 0.56263 0.12693 0.61748 0.0
C1162 C 0.55666 0.10463 0.62585 0.0
C1163 C 0.53571 0.09676 0.63192 0.0
C1164 C 0.5206 0.11107 0.62979 0.0
C1165 C 0.52644 0.13332 0.62169 0.0
C1166 C 0.54738 0.14127 0.61561 0.0
H1167 H 0.50438 0.10494 0.63443 0.0
H1168 H 0.70097 0.18694 0.55912 0.0
H1169 H 0.82623 0.67979 0.59769 0.0
H1170 H 0.85615 0.66847 0.57874 0.0
H1171 H 0.84232 0.60288 0.61321 0.0
H1172 H 0.81229 0.61384 0.6318 0.0
H1173 H 0.88416 0.62158 0.61891 0.0
H1174 H 0.83 0.61045 0.55547 0.0
H1175 H 0.803 0.62357 0.52787 0.0
H1176 H 0.85112 0.6729 0.49689 0.0
H1177 H 0.87837 0.6603 0.52456 0.0
H1178 H 0.93515 0.55985 0.53095 0.0
H1179 H 0.90505 0.57785 0.53961 0.0
H1180 H 0.94793 0.63077 0.57341 0.0
H1181 H 0.97812 0.61315 0.56458 0.0
H1182 H 0.89199 0.62006 0.53233 0.0
H1183 H 0.9273 0.63813 0.62593 0.0
H1184 H 0.95345 0.62517 0.65488 0.0
H1185 H 0.94113 0.5599 0.62592 0.0
H1186 H 0.91479 0.57251 0.59708 0.0
C1187 C 0.82939 0.66287 0.60097 0.0
C1188 C 0.81696 0.64778 0.61643 0.0
C1189 C 0.84651 0.65645 0.59017 0.0
C1190 C 0.85143 0.63484 0.59459 0.0
C1191 C 0.83887 0.61969 0.6097 0.0
C1192 C 0.82178 0.62603 0.62041 0.0
C1193 C 0.87013 0.62806 0.58434 0.0
C1194 C 0.8859 0.62138 0.59998 0.0
C1195 C 0.87237 0.62778 0.55964 0.0
C1196 C 0.85616 0.63467 0.54233 0.0
C1197 C 0.8348 0.6242 0.54288 0.0
C1198 C 0.81945 0.63156 0.52726 0.0
C1199 C 0.8253 0.64927 0.51089 0.0
C1200 C 0.84658 0.65936 0.50978 0.0
C1201 C 0.86199 0.65208 0.52539 0.0
C1202 C 0.93823 0.57552 0.53987 0.0
C1203 C 0.95902 0.58484 0.54747 0.0
C1204 C 0.92101 0.58584 0.54468 0.0
C1205 C 0.92426 0.60538 0.55754 0.0
C1206 C 0.94508 0.61552 0.56373 0.0
C1207 C 0.96231 0.60535 0.55874 0.0
C1208 C 0.90592 0.61358 0.56697 0.0
C1209 C 0.89029 0.62052 0.55124 0.0
C1210 C 0.90368 0.61406 0.59165 0.0
C1211 C 0.91927 0.60629 0.60919 0.0
C1212 C 0.93015 0.62101 0.62581 0.0
C1213 C 0.94501 0.61374 0.6422 0.0
C1214 C 0.94901 0.59175 0.64219 0.0
C1215 C 0.9381 0.57696 0.62587 0.0
C1216 C 0.92323 0.58415 0.60949 0.0
H1217 H 0.96053 0.58617 0.65486 0.0
H1218 H 0.81338 0.65502 0.49889 0.0
H1219 H 0.37679 0.36557 0.24128 0.0
H1220 H 0.38947 0.38779 0.20615 0.0
H1221 H 0.40049 0.44756 0.24624 0.0
H1222 H 0.38782 0.42535 0.28162 0.0
H1223 H 0.38375 0.45518 0.20067 0.0
H1224 H 0.44125 0.4227 0.23771 0.0
H1225 H 0.45893 0.39233 0.25576 0.0
H1226 H 0.44923 0.35805 0.19063 0.0
H1227 H 0.43119 0.38807 0.17229 0.0
H1228 H 0.47167 0.5053 0.12128 0.0
H1229 H 0.45213 0.49185 0.15673 0.0
H1230 H 0.41382 0.43968 0.1172 0.0
H1231 H 0.43246 0.45344 0.08153 0.0
H1232 H 0.4449 0.4317 0.16403 0.0
H1233 H 0.38747 0.46628 0.12698 0.0
H1234 H 0.37163 0.49818 0.10986 0.0
H1235 H 0.38174 0.52999 0.17637 0.0
H1236 H 0.39832 0.49851 0.19374 0.0
C1237 C 0.3819 0.38344 0.24264 0.0
C1238 C 0.38159 0.39366 0.2643 0.0
C1239 C 0.38904 0.39614 0.22253 0.0
C1240 C 0.39618 0.41927 0.22369 0.0
C1241 C 0.39503 0.42973 0.24499 0.0
C1242 C 0.38781 0.41702 0.26516 0.0
C1243 C 0.40611 0.43207 0.20303 0.0
C1244 C 0.39727 0.45026 0.19278 0.0
C1245 C 0.42373 0.42557 0.19277 0.0
C1246 C 0.4347 0.40754 0.2037 0.0
C1247 C 0.44274 0.40861 0.22729 0.0
C1248 C 0.45285 0.39146 0.23757 0.0
C1249 C 0.45516 0.37324 0.22437 0.0
C1250 C 0.44741 0.37216 0.20084 0.0
C1251 C 0.43726 0.38924 0.19049 0.0
C1252 C 0.45873 0.49131 0.11999 0.0
C1253 C 0.4536 0.48045 0.09856 0.0
C1254 C 0.44756 0.48374 0.14022 0.0
C1255 C 0.43141 0.46501 0.13938 0.0
C1256 C 0.42601 0.45442 0.11799 0.0
C1257 C 0.43674 0.4623 0.09766 0.0
C1258 C 0.42226 0.45442 0.16135 0.0
C1259 C 0.43142 0.4367 0.17195 0.0
C1260 C 0.40508 0.46152 0.17189 0.0
C1261 C 0.39493 0.48036 0.16144 0.0
C1262 C 0.3869 0.48032 0.13782 0.0
C1263 C 0.37763 0.49827 0.1281 0.0
C1264 C 0.37591 0.51623 0.14195 0.0
C1265 C 0.3833 0.51617 0.1656 0.0
C1266 C 0.39269 0.49829 0.17536 0.0
H1267 H 0.36871 0.53012 0.13441 0.0
H1268 H 0.463 0.35999 0.23236 0.0
H1269 H 0.38758 0.62364 0.82759 0.0
H1270 H 0.4063 0.6048 0.85948 0.0
H1271 H 0.46166 0.65581 0.85231 0.0
H1272 H 0.44337 0.67427 0.82001 0.0
H1273 H 0.47303 0.61532 0.85755 0.0
H1274 H 0.42692 0.65555 0.89713 0.0
H1275 H 0.3925 0.66595 0.9058 0.0
H1276 H 0.3688 0.59761 0.92676 0.0
H1277 H 0.40301 0.58675 0.91792 0.0
H1278 H 0.53073 0.59838 0.9641 0.0
H1279 H 0.50908 0.61535 0.93377 0.0
H1280 H 0.45722 0.56082 0.94414 0.0
H1281 H 0.47871 0.54373 0.97472 0.0
H1282 H 0.44298 0.60075 0.93688 0.0
H1283 H 0.48938 0.56063 0.89984 0.0
H1284 H 0.52366 0.54971 0.8916 0.0
H1285 H 0.54652 0.6166 0.86518 0.0
H1286 H 0.51253 0.62811 0.87383 0.0
C1287 C 0.40381 0.63074 0.83264 0.0
C1288 C 0.41387 0.65062 0.8213 0.0
C1289 C 0.41444 0.62004 0.85105 0.0
C1290 C 0.43534 0.62902 0.85857 0.0
C1291 C 0.44554 0.64858 0.84695 0.0
C1292 C 0.43495 0.65926 0.82859 0.0
C1293 C 0.44664 0.61825 0.87863 0.0
C1294 C 0.46656 0.61238 0.87496 0.0
C1295 C 0.43797 0.61377 0.90122 0.0
C1296 C 0.41744 0.6203 0.90663 0.0
C1297 C 0.41431 0.64271 0.90342 0.0
C1298 C 0.39485 0.6487 0.90839 0.0
C1299 C 0.37845 0.63245 0.91676 0.0
C1300 C 0.3815 0.61018 0.92024 0.0
C1301 C 0.40093 0.6041 0.91527 0.0
C1302 C 0.5146 0.59012 0.96027 0.0
C1303 C 0.50658 0.56955 0.97182 0.0
C1304 C 0.50227 0.59981 0.94277 0.0
C1305 C 0.48167 0.58914 0.9363 0.0
C1306 C 0.47312 0.56931 0.94872 0.0
C1307 C 0.48545 0.55957 0.96627 0.0
C1308 C 0.4695 0.5982 0.91589 0.0
C1309 C 0.44942 0.60365 0.91945 0.0
C1310 C 0.47799 0.6022 0.89316 0.0
C1311 C 0.49844 0.59531 0.88774 0.0
C1312 C 0.50177 0.57309 0.89249 0.0
C1313 C 0.52115 0.56678 0.88774 0.0
C1314 C 0.53727 0.58247 0.87794 0.0
C1315 C 0.53403 0.60449 0.87283 0.0
C1316 C 0.5147 0.61092 0.87768 0.0
H1317 H 0.55224 0.57753 0.87424 0.0
H1318 H 0.36339 0.63711 0.9206 0.0
H1319 H 0.4154 0.39689 0.79612 0.0
H1320 H 0.43662 0.41438 0.82938 0.0
H1321 H 0.38803 0.38507 0.8769 0.0
H1322 H 0.36664 0.36754 0.8436 0.0
H1323 H 0.40148 0.42745 0.88692 0.0
H1324 H 0.43552 0.36481 0.87536 0.0
H1325 H 0.45256 0.33922 0.8532 0.0
H1326 H 0.50218 0.39333 0.83462 0.0
H1327 H 0.48527 0.41935 0.85637 0.0
H1328 H 0.47369 0.46232 0.98716 0.0
H1329 H 0.44954 0.43843 0.95996 0.0
H1330 H 0.48656 0.4673 0.90125 0.0
H1331 H 0.51026 0.49113 0.9278 0.0
H1332 H 0.47758 0.42091 0.90113 0.0
H1333 H 0.44123 0.48386 0.90938 0.0
H1334 H 0.4244 0.50938 0.93187 0.0
H1335 H 0.37932 0.45381 0.95748 0.0
H1336 H 0.39611 0.42789 0.9354 0.0
C1337 C 0.40933 0.39387 0.81368 0.0
C1338 C 0.38932 0.38068 0.81712 0.0
C1339 C 0.42149 0.40394 0.83274 0.0
C1340 C 0.41411 0.40087 0.85581 0.0
C1341 C 0.39412 0.38774 0.85932 0.0
C1342 C 0.38188 0.37774 0.84023 0.0
C1343 C 0.4271 0.41175 0.87606 0.0
C1344 C 0.41801 0.42564 0.89029 0.0
C1345 C 0.44877 0.40967 0.88045 0.0
C1346 C 0.45902 0.39407 0.86735 0.0
C1347 C 0.44998 0.3713 0.8664 0.0
C1348 C 0.45963 0.35671 0.85393 0.0
C1349 C 0.47841 0.36465 0.84247 0.0
C1350 C 0.48762 0.38721 0.84349 0.0
C1351 C 0.47802 0.40188 0.8559 0.0
C1352 C 0.47662 0.46356 0.96846 0.0
C1353 C 0.49397 0.47866 0.95976 0.0
C1354 C 0.46282 0.44993 0.95293 0.0
C1355 C 0.46629 0.45104 0.92854 0.0
C1356 C 0.48362 0.46602 0.91996 0.0
C1357 C 0.49715 0.47973 0.93528 0.0
C1358 C 0.45206 0.43687 0.91156 0.0
C1359 C 0.46095 0.42238 0.89795 0.0
C1360 C 0.43024 0.43835 0.90781 0.0
C1361 C 0.42009 0.45391 0.92099 0.0
C1362 C 0.42785 0.47705 0.91998 0.0
C1363 C 0.4183 0.4916 0.93262 0.0
C1364 C 0.40084 0.48321 0.94616 0.0
C1365 C 0.39287 0.46027 0.94703 0.0
C1366 C 0.4024 0.44565 0.93445 0.0
H1367 H 0.39346 0.4945 0.95593 0.0
H1368 H 0.48586 0.35333 0.83283 0.0
H1369 H 0.65111 0.37411 0.80493 0.0
H1370 H 0.63278 0.39037 0.83486 0.0
H1371 H 0.6742 0.45364 0.82445 0.0
H1372 H 0.69246 0.43761 0.79442 0.0
H1373 H 0.66986 0.44331 0.87079 0.0
H1374 H 0.62256 0.44504 0.80179 0.0
H1375 H 0.59999 0.42899 0.76815 0.0
H1376 H 0.56129 0.38457 0.81595 0.0
H1377 H 0.58383 0.40013 0.84986 0.0
H1378 H 0.61094 0.5097 0.93437 0.0
H1379 H 0.63062 0.49359 0.90535 0.0
H1380 H 0.58458 0.4328 0.90782 0.0
H1381 H 0.56415 0.44956 0.93528 0.0
H1382 H 0.59194 0.44212 0.86528 0.0
H1383 H 0.63849 0.44007 0.93457 0.0
H1384 H 0.6612 0.45523 0.9685 0.0
H1385 H 0.70158 0.49855 0.92135 0.0
H1386 H 0.67887 0.48399 0.88716 0.0
C1387 C 0.65619 0.39155 0.8088 0.0
C1388 C 0.67333 0.40449 0.79719 0.0
C1389 C 0.64571 0.40084 0.826 0.0
C1390 C 0.65198 0.42333 0.83187 0.0
C1391 C 0.6691 0.43624 0.82036 0.0
C1392 C 0.67958 0.42699 0.8032 0.0
C1393 C 0.64086 0.43341 0.85008 0.0
C1394 C 0.65284 0.44329 0.86948 0.0
C1395 C 0.61859 0.43294 0.84873 0.0
C1396 C 0.60502 0.4236 0.82834 0.0
C1397 C 0.60934 0.43173 0.80511 0.0
C1398 C 0.59654 0.42273 0.786 0.0
C1399 C 0.57925 0.40573 0.78991 0.0
C1400 C 0.5747 0.39771 0.81295 0.0
C1401 C 0.58748 0.40662 0.83212 0.0
C1402 C 0.60531 0.49278 0.92896 0.0
C1403 C 0.58623 0.4807 0.93725 0.0
C1404 C 0.6166 0.48352 0.91245 0.0
C1405 C 0.60944 0.46173 0.90458 0.0
C1406 C 0.59056 0.44959 0.91345 0.0
C1407 C 0.57897 0.45908 0.92933 0.0
C1408 C 0.62086 0.45188 0.88634 0.0
C1409 C 0.60895 0.4421 0.8668 0.0
C1410 C 0.64318 0.45229 0.88771 0.0
C1411 C 0.65681 0.46111 0.9083 0.0
C1412 C 0.6521 0.45298 0.93144 0.0
C1413 C 0.66499 0.46146 0.95073 0.0
C1414 C 0.68278 0.47789 0.94709 0.0
C1415 C 0.68778 0.48582 0.92415 0.0
C1416 C 0.6749 0.47748 0.90481 0.0
H1417 H 0.69274 0.48444 0.96205 0.0
H1418 H 0.56935 0.39879 0.77509 0.0
H1419 H 0.63409 0.62126 0.75033 0.0
H1420 H 0.62057 0.59915 0.78529 0.0
H1421 H 0.67084 0.63575 0.8288 0.0
H1422 H 0.68463 0.65757 0.79381 0.0
H1423 H 0.66532 0.59342 0.84253 0.0
H1424 H 0.61958 0.6477 0.82479 0.0
H1425 H 0.59498 0.66813 0.80088 0.0
H1426 H 0.55061 0.60708 0.79326 0.0
H1427 H 0.57512 0.58618 0.81678 0.0
H1428 H 0.61794 0.57447 0.95455 0.0
H1429 H 0.63443 0.58913 0.91786 0.0
H1430 H 0.58465 0.54815 0.87767 0.0
H1431 H 0.56775 0.53383 0.91426 0.0
H1432 H 0.58998 0.5905 0.86144 0.0
H1433 H 0.63646 0.53748 0.88477 0.0
H1434 H 0.66113 0.52047 0.91227 0.0
H1435 H 0.70474 0.58248 0.91243 0.0
H1436 H 0.68009 0.60022 0.88563 0.0
C1437 C 0.64224 0.62456 0.76737 0.0
C1438 C 0.66033 0.64122 0.76938 0.0
C1439 C 0.63451 0.61193 0.78733 0.0
C1440 C 0.64449 0.61601 0.80976 0.0
C1441 C 0.66287 0.63227 0.8117 0.0
C1442 C 0.67074 0.64473 0.7917 0.0
C1443 C 0.63553 0.60376 0.83129 0.0
C1444 C 0.64888 0.5929 0.84677 0.0
C1445 C 0.61399 0.60282 0.83667 0.0
C1446 C 0.59934 0.61531 0.82224 0.0
C1447 C 0.60469 0.63858 0.81778 0.0
C1448 C 0.59074 0.65025 0.80434 0.0
C1449 C 0.57128 0.6389 0.79547 0.0
C1450 C 0.56572 0.61584 0.80007 0.0
C1451 C 0.57964 0.60407 0.81344 0.0
C1452 C 0.61065 0.56831 0.93794 0.0
C1453 C 0.59147 0.55306 0.93733 0.0
C1454 C 0.62017 0.57665 0.91696 0.0
C1455 C 0.61087 0.56962 0.89501 0.0
C1456 C 0.59211 0.55379 0.89441 0.0
C1457 C 0.58249 0.54559 0.91536 0.0
C1458 C 0.61971 0.58007 0.87265 0.0
C1459 C 0.60634 0.59071 0.85705 0.0
C1460 C 0.64131 0.58112 0.86745 0.0
C1461 C 0.65631 0.57025 0.88325 0.0
C1462 C 0.65123 0.54757 0.89078 0.0
C1463 C 0.66522 0.53778 0.90624 0.0
C1464 C 0.68449 0.55033 0.91401 0.0
C1465 C 0.68982 0.57276 0.90638 0.0
C1466 C 0.67582 0.58271 0.89108 0.0
H1467 H 0.69528 0.54267 0.92596 0.0
H1468 H 0.56049 0.64798 0.78511 0.0
H1469 H 0.63288 0.62404 0.2454 0.0
H1470 H 0.61749 0.60333 0.21104 0.0
H1471 H 0.64424 0.65832 0.16469 0.0
H1472 H 0.6593 0.67942 0.19912 0.0
H1473 H 0.60348 0.64323 0.15129 0.0
H1474 H 0.66523 0.61006 0.16996 0.0
H1475 H 0.69085 0.59178 0.19481 0.0
H1476 H 0.64207 0.53554 0.2093 0.0
H1477 H 0.61605 0.55363 0.18485 0.0
H1478 H 0.56923 0.57409 0.05126 0.0
H1479 H 0.59322 0.5975 0.07899 0.0
H1480 H 0.56967 0.55334 0.13721 0.0
H1481 H 0.5461 0.53001 0.11001 0.0
H1482 H 0.61335 0.56499 0.14029 0.0
H1483 H 0.55109 0.60049 0.1268 0.0
H1484 H 0.52495 0.61815 0.10206 0.0
H1485 H 0.57487 0.66942 0.07769 0.0
H1486 H 0.60136 0.65184 0.10207 0.0
C1487 C 0.63548 0.63179 0.22792 0.0
C1488 C 0.64735 0.65345 0.2251 0.0
C1489 C 0.62682 0.61982 0.20823 0.0
C1490 C 0.62986 0.62912 0.18518 0.0
C1491 C 0.64173 0.65072 0.18226 0.0
C1492 C 0.65048 0.6627 0.20198 0.0
C1493 C 0.62004 0.61649 0.1643 0.0
C1494 C 0.60603 0.62629 0.14861 0.0
C1495 C 0.62304 0.59424 0.16087 0.0
C1496 C 0.63862 0.58333 0.17573 0.0
C1497 C 0.6599 0.5939 0.17862 0.0
C1498 C 0.67451 0.58355 0.19261 0.0
C1499 C 0.66808 0.56254 0.20368 0.0
C1500 C 0.64702 0.55182 0.20074 0.0
C1501 C 0.63234 0.56212 0.18681 0.0
C1502 C 0.56939 0.56926 0.06994 0.0
C1503 C 0.55567 0.55019 0.07836 0.0
C1504 C 0.58302 0.5827 0.08577 0.0
C1505 C 0.58321 0.57718 0.11022 0.0
C1506 C 0.5699 0.55789 0.11846 0.0
C1507 C 0.55633 0.5446 0.1028 0.0
C1508 C 0.5966 0.5916 0.12766 0.0
C1509 C 0.6112 0.5821 0.14273 0.0
C1510 C 0.59412 0.61406 0.13055 0.0
C1511 C 0.57823 0.6247 0.116 0.0
C1512 C 0.55651 0.61541 0.116 0.0
C1513 C 0.54163 0.62543 0.10208 0.0
C1514 C 0.54826 0.64485 0.08825 0.0
C1515 C 0.56977 0.65434 0.08837 0.0
C1516 C 0.58472 0.64436 0.10224 0.0
H1517 H 0.53671 0.65259 0.07749 0.0
H1518 H 0.67942 0.55455 0.21448 0.0
H1519 H 0.40876 0.6724 0.21919 0.0
H1520 H 0.42098 0.65142 0.18858 0.0
H1521 H 0.38485 0.59028 0.21713 0.0
H1522 H 0.37308 0.61114 0.24848 0.0
H1523 H 0.42358 0.58352 0.2062 0.0
H1524 H 0.36779 0.61589 0.16593 0.0
H1525 H 0.34763 0.64597 0.15266 0.0
H1526 H 0.40155 0.68051 0.11614 0.0
H1527 H 0.42215 0.65079 0.12946 0.0
H1528 H 0.4369 0.52637 0.09877 0.0
H1529 H 0.41762 0.54369 0.12742 0.0
H1530 H 0.4648 0.60347 0.12384 0.0
H1531 H 0.48476 0.58569 0.0966 0.0
H1532 H 0.41685 0.60771 0.12148 0.0
H1533 H 0.47279 0.57473 0.16342 0.0
H1534 H 0.49179 0.54364 0.1759 0.0
H1535 H 0.43661 0.50946 0.21038 0.0
H1536 H 0.41708 0.54023 0.19764 0.0
C1537 C 0.4035 0.65446 0.21916 0.0
C1538 C 0.38993 0.64351 0.23644 0.0
C1539 C 0.41034 0.64248 0.20141 0.0
C1540 C 0.40365 0.61925 0.20028 0.0
C1541 C 0.39018 0.60819 0.21753 0.0
C1542 C 0.38331 0.62019 0.23535 0.0
C1543 C 0.41106 0.60663 0.18126 0.0
C1544 C 0.42175 0.58855 0.18765 0.0
C1545 C 0.40893 0.6133 0.157 0.0
C1546 C 0.39657 0.63118 0.14886 0.0
C1547 C 0.37541 0.62998 0.15521 0.0
C1548 C 0.36389 0.64696 0.14765 0.0
C1549 C 0.37332 0.66516 0.1336 0.0
C1550 C 0.39427 0.6664 0.12703 0.0
C1551 C 0.40587 0.64948 0.13456 0.0
C1552 C 0.44293 0.5433 0.10391 0.0
C1553 C 0.46225 0.55477 0.09552 0.0
C1554 C 0.43197 0.55313 0.12028 0.0
C1555 C 0.43986 0.57482 0.12781 0.0
C1556 C 0.45846 0.58674 0.11825 0.0
C1557 C 0.46979 0.57662 0.10267 0.0
C1558 C 0.4295 0.58487 0.1465 0.0
C1559 C 0.41836 0.60249 0.14002 0.0
C1560 C 0.43116 0.57769 0.17063 0.0
C1561 C 0.44312 0.5594 0.17869 0.0
C1562 C 0.46447 0.56037 0.17313 0.0
C1563 C 0.47542 0.54287 0.18043 0.0
C1564 C 0.46533 0.52447 0.19372 0.0
C1565 C 0.44433 0.52363 0.19989 0.0
C1566 C 0.4333 0.54107 0.19257 0.0
H1567 H 0.47383 0.51093 0.19935 0.0
H1568 H 0.36437 0.67829 0.12777 0.0
H1569 H 0.61192 0.3816 0.23195 0.0
H1570 H 0.59363 0.39755 0.19789 0.0
H1571 H 0.65236 0.41167 0.1617 0.0
H1572 H 0.67097 0.39606 0.19605 0.0
H1573 H 0.62876 0.44715 0.15732 0.0
H1574 H 0.61676 0.3676 0.14646 0.0
H1575 H 0.60595 0.32794 0.15909 0.0
H1576 H 0.54304 0.34019 0.17054 0.0
H1577 H 0.55355 0.37999 0.15828 0.0
H1578 H 0.57189 0.47738 0.05154 0.0
H1579 H 0.59601 0.46009 0.07912 0.0
H1580 H 0.54237 0.42733 0.11803 0.0
H1581 H 0.51838 0.4434 0.09007 0.0
H1582 H 0.56728 0.39996 0.11766 0.0
H1583 H 0.57859 0.4782 0.1364 0.0
H1584 H 0.58787 0.51893 0.12864 0.0
H1585 H 0.64913 0.51073 0.10617 0.0
H1586 H 0.64025 0.46984 0.11402 0.0
C1587 C 0.62106 0.38835 0.2169 0.0
C1588 C 0.64296 0.38753 0.2168 0.0
C1589 C 0.61052 0.39728 0.19733 0.0
C1590 C 0.62155 0.40557 0.1771 0.0
C1591 C 0.6435 0.40527 0.17707 0.0
C1592 C 0.65408 0.39621 0.19665 0.0
C1593 C 0.60998 0.41424 0.15599 0.0
C1594 C 0.61554 0.43676 0.14833 0.0
C1595 C 0.59243 0.40083 0.14461 0.0
C1596 C 0.58599 0.3768 0.15157 0.0
C1597 C 0.60065 0.36186 0.15178 0.0
C1598 C 0.59457 0.33935 0.15887 0.0
C1599 C 0.57383 0.33156 0.16565 0.0
C1600 C 0.5591 0.34625 0.16529 0.0
C1601 C 0.5651 0.36877 0.15824 0.0
C1602 C 0.56526 0.46621 0.06578 0.0
C1603 C 0.54314 0.46177 0.06846 0.0
C1604 C 0.5791 0.45652 0.08175 0.0
C1605 C 0.57116 0.44266 0.10109 0.0
C1606 C 0.54905 0.43785 0.10334 0.0
C1607 C 0.53526 0.44711 0.08721 0.0
C1608 C 0.58554 0.43321 0.11929 0.0
C1609 C 0.58061 0.41042 0.12638 0.0
C1610 C 0.60335 0.44652 0.1305 0.0
C1611 C 0.60865 0.47099 0.12549 0.0
C1612 C 0.59398 0.48508 0.12964 0.0
C1613 C 0.59918 0.5082 0.12526 0.0
C1614 C 0.619 0.51744 0.11671 0.0
C1615 C 0.63374 0.50356 0.11271 0.0
C1616 C 0.62867 0.48041 0.11719 0.0
H1617 H 0.62296 0.53535 0.11328 0.0
H1618 H 0.56917 0.31414 0.17115 0.0
loop_
_geom_bond_atom_site_label_1
_geom_bond_atom_site_label_2
_geom_bond_distance
_geom_bond_site_symmetry_2
_ccdc_geom_bond_type
C0 C1 1.264 . S
C0 C5 1.479 . S
C0 C10 1.465 . S
C1 C0 1.264 . S
C1 C3 1.339 . S
C1 H28 0.931 . S
C2 C3 1.395 . S
C2 C4 1.320 . S
C3 C1 1.339 . S
C3 C2 1.395 . S
C3 H29 0.929 . S
C4 C2 1.320 . S
C4 C5 1.405 . S
C4 H30 0.930 . S
C5 C0 1.479 . S
C5 C4 1.405 . S
C5 H31 0.931 . S
U6 O7 2.454 . S
U6 O8 2.458 . S
U6 C9 2.984 . S
U6 C10 2.847 . S
U6 C23 2.882 . S
U6 O24 2.441 . S
U6 O25 2.420 . S
U6 O26 2.455 . S
U6 O27 2.449 . S
O7 U6 2.454 . S
O7 C9 1.353 . S
O8 U6 2.458 . S
O8 C9 1.286 . S
C9 U6 2.984 . S
C9 O7 1.353 . S
C9 O8 1.286 . S
C9 C11 1.363 . S
C10 C0 1.465 . S
C10 U6 2.847 . S
C10 O24 1.249 . S
C10 O25 1.202 . S
C11 C9 1.363 . S
C11 C13 1.408 . S
C11 C16 1.342 . S
C12 C13 1.310 . S
C12 C15 1.461 . S
C12 H32 0.932 . S
C13 C11 1.408 . S
C13 C12 1.310 . S
C13 H33 0.930 . S
C14 C15 1.474 . S
C14 C16 1.285 . S
C14 H34 0.929 . S
C15 C12 1.461 . S
C15 C14 1.474 . S
C16 C11 1.342 . S
C16 C14 1.285 . S
C16 H35 0.930 . S
C17 C20 1.424 . S
C17 C22 1.245 . S
C17 C23 1.428 . S
C18 C21 1.260 . S
C18 C22 1.477 . S
C18 H36 0.932 . S
C19 C20 1.384 . S
C19 C21 1.479 . S
C19 H37 0.929 . S
C20 C17 1.424 . S
C20 C19 1.384 . S
C20 H38 0.928 . S
C21 C18 1.260 . S
C21 C19 1.479 . S
C22 C17 1.245 . S
C22 C18 1.477 . S
C22 H39 0.932 . S
C23 U6 2.882 . S
C23 C17 1.428 . S
C23 O26 1.301 . S
C23 O27 1.282 . S
O24 U6 2.441 . S
O24 C10 1.249 . S
O25 U6 2.420 . S
O25 C10 1.202 . S
O26 U6 2.455 . S
O26 C23 1.301 . S
O27 U6 2.449 . S
O27 C23 1.282 . S
H28 C1 0.931 . S
H29 C3 0.929 . S
H30 C4 0.930 . S
H31 C5 0.931 . S
H32 C12 0.932 . S
H33 C13 0.930 . S
H34 C14 0.929 . S
H35 C16 0.930 . S
H36 C18 0.932 . S
H37 C19 0.929 . S
H38 C20 0.928 . S
H39 C22 0.932 . S
C40 C41 1.264 . S
C40 C45 1.479 . S
C40 C50 1.465 . S
C41 C40 1.264 . S
C41 C43 1.339 . S
C41 H68 0.931 . S
C42 C43 1.395 . S
C42 C44 1.320 . S
C43 C41 1.339 . S
C43 C42 1.395 . S
C43 H69 0.929 . S
C44 C42 1.320 . S
C44 C45 1.405 . S
C44 H70 0.930 . S
C45 C40 1.479 . S
C45 C44 1.405 . S
C45 H71 0.931 . S
U46 O47 2.454 . S
U46 O48 2.458 . S
U46 C49 2.984 . S
U46 C50 2.847 . S
U46 C63 2.882 . S
U46 O64 2.441 . S
U46 O65 2.420 . S
U46 O66 2.455 . S
U46 O67 2.449 . S
O47 U46 2.454 . S
O47 C49 1.353 . S
O48 U46 2.458 . S
O48 C49 1.286 . S
C49 U46 2.984 . S
C49 O47 1.353 . S
C49 O48 1.286 . S
C49 C51 1.363 . S
C50 C40 1.465 . S
C50 U46 2.847 . S
C50 O64 1.249 . S
C50 O65 1.202 . S
C51 C49 1.363 . S
C51 C53 1.408 . S
C51 C56 1.342 . S
C52 C53 1.310 . S
C52 C55 1.461 . S
C52 H72 0.932 . S
C53 C51 1.408 . S
C53 C52 1.310 . S
C53 H73 0.930 . S
C54 C55 1.474 . S
C54 C56 1.285 . S
C54 H74 0.929 . S
C55 C52 1.461 . S
C55 C54 1.474 . S
C56 C51 1.342 . S
C56 C54 1.285 . S
C56 H75 0.930 . S
C57 C60 1.424 . S
C57 C62 1.245 . S
C57 C63 1.428 . S
C58 C61 1.260 . S
C58 C62 1.477 . S
C58 H76 0.932 . S
C59 C60 1.384 . S
C59 C61 1.479 . S
C59 H77 0.929 . S
C60 C57 1.424 . S
C60 C59 1.384 . S
C60 H78 0.928 . S
C61 C58 1.260 . S
C61 C59 1.479 . S
C62 C57 1.245 . S
C62 C58 1.477 . S
C62 H79 0.932 . S
C63 U46 2.882 . S
C63 C57 1.428 . S
C63 O66 1.301 . S
C63 O67 1.282 . S
O64 U46 2.441 . S
O64 C50 1.249 . S
O65 U46 2.420 . S
O65 C50 1.202 . S
O66 U46 2.455 . S
O66 C63 1.301 . S
O67 U46 2.449 . S
O67 C63 1.282 . S
H68 C41 0.931 . S
H69 C43 0.929 . S
H70 C44 0.930 . S
H71 C45 0.931 . S
H72 C52 0.932 . S
H73 C53 0.930 . S
H74 C54 0.929 . S
H75 C56 0.930 . S
H76 C58 0.932 . S
H77 C59 0.929 . S
H78 C60 0.928 . S
H79 C62 0.932 . S
C80 C81 1.264 . S
C80 C85 1.479 . S
C80 C90 1.465 . S
C81 C80 1.264 . S
C81 C83 1.339 . S
C81 H108 0.931 . S
C82 C83 1.395 . S
C82 C84 1.320 . S
C83 C81 1.339 . S
C83 C82 1.395 . S
C83 H109 0.929 . S
C84 C82 1.320 . S
C84 C85 1.405 . S
C84 H110 0.930 . S
C85 C80 1.479 . S
C85 C84 1.405 . S
C85 H111 0.931 . S
U86 O87 2.454 . S
U86 O88 2.458 . S
U86 C89 2.984 . S
U86 C90 2.847 . S
U86 C103 2.882 . S
U86 O104 2.441 . S
U86 O105 2.420 . S
U86 O106 2.455 . S
U86 O107 2.449 . S
O87 U86 2.454 . S
O87 C89 1.353 . S
O88 U86 2.458 . S
O88 C89 1.286 . S
C89 U86 2.984 . S
C89 O87 1.353 . S
C89 O88 1.286 . S
C89 C91 1.363 . S
C90 C80 1.465 . S
C90 U86 2.847 . S
C90 O104 1.249 . S
C90 O105 1.202 . S
C91 C89 1.363 . S
C91 C93 1.408 . S
C91 C96 1.342 . S
C92 C93 1.310 . S
C92 C95 1.461 . S
C92 H112 0.932 . S
C93 C91 1.408 . S
C93 C92 1.310 . S
C93 H113 0.930 . S
C94 C95 1.474 . S
C94 C96 1.285 . S
C94 H114 0.929 . S
C95 C92 1.461 . S
C95 C94 1.474 . S
C96 C91 1.342 . S
C96 C94 1.285 . S
C96 H115 0.930 . S
C97 C100 1.424 . S
C97 C102 1.245 . S
C97 C103 1.428 . S
C98 C101 1.260 . S
C98 C102 1.477 . S
C98 H116 0.932 . S
C99 C100 1.384 . S
C99 C101 1.479 . S
C99 H117 0.929 . S
C100 C97 1.424 . S
C100 C99 1.384 . S
C100 H118 0.928 . S
C101 C98 1.260 . S
C101 C99 1.479 . S
C102 C97 1.245 . S
C102 C98 1.477 . S
C102 H119 0.932 . S
C103 U86 2.882 . S
C103 C97 1.428 . S
C103 O106 1.301 . S
C103 O107 1.282 . S
O104 U86 2.441 . S
O104 C90 1.249 . S
O105 U86 2.420 . S
O105 C90 1.202 . S
O106 U86 2.455 . S
O106 C103 1.301 . S
O107 U86 2.449 . S
O107 C103 1.282 . S
H108 C81 0.931 . S
H109 C83 0.929 . S
H110 C84 0.930 . S
H111 C85 0.931 . S
H112 C92 0.932 . S
H113 C93 0.930 . S
H114 C94 0.929 . S
H115 C96 0.930 . S
H116 C98 0.932 . S
H117 C99 0.929 . S
H118 C100 0.928 . S
H119 C102 0.932 . S
C120 C121 1.264 . S
C120 C125 1.479 . S
C120 C130 1.465 . S
C121 C120 1.264 . S
C121 C123 1.339 . S
C121 H148 0.931 . S
C122 C123 1.395 . S
C122 C124 1.320 . S
C123 C121 1.339 . S
C123 C122 1.395 . S
C123 H149 0.929 . S
C124 C122 1.320 . S
C124 C125 1.405 . S
C124 H150 0.930 . S
C125 C120 1.479 . S
C125 C124 1.405 . S
C125 H151 0.931 . S
U126 O127 2.454 . S
U126 O128 2.458 . S
U126 C129 2.984 . S
U126 C130 2.847 . S
U126 C143 2.882 . S
U126 O144 2.441 . S
U126 O145 2.420 . S
U126 O146 2.455 . S
U126 O147 2.449 . S
O127 U126 2.454 . S
O127 C129 1.353 . S
O128 U126 2.458 . S
O128 C129 1.286 . S
C129 U126 2.984 . S
C129 O127 1.353 . S
C129 O128 1.286 . S
C129 C131 1.363 . S
C130 C120 1.465 . S
C130 U126 2.847 . S
C130 O144 1.249 . S
C130 O145 1.202 . S
C131 C129 1.363 . S
C131 C133 1.408 . S
C131 C136 1.342 . S
C132 C133 1.310 . S
C132 C135 1.461 . S
C132 H152 0.932 . S
C133 C131 1.408 . S
C133 C132 1.310 . S
C133 H153 0.930 . S
C134 C135 1.474 . S
C134 C136 1.285 . S
C134 H154 0.929 . S
C135 C132 1.461 . S
C135 C134 1.474 . S
C136 C131 1.342 . S
C136 C134 1.285 . S
C136 H155 0.930 . S
C137 C140 1.424 . S
C137 C142 1.245 . S
C137 C143 1.428 . S
C138 C141 1.260 . S
C138 C142 1.477 . S
C138 H156 0.932 . S
C139 C140 1.384 . S
C139 C141 1.479 . S
C139 H157 0.929 . S
C140 C137 1.424 . S
C140 C139 1.384 . S
C140 H158 0.928 . S
C141 C138 1.260 . S
C141 C139 1.479 . S
C142 C137 1.245 . S
C142 C138 1.477 . S
C142 H159 0.932 . S
C143 U126 2.882 . S
C143 C137 1.428 . S
C143 O146 1.301 . S
C143 O147 1.282 . S
O144 U126 2.441 . S
O144 C130 1.249 . S
O145 U126 2.420 . S
O145 C130 1.202 . S
O146 U126 2.455 . S
O146 C143 1.301 . S
O147 U126 2.449 . S
O147 C143 1.282 . S
H148 C121 0.931 . S
H149 C123 0.929 . S
H150 C124 0.930 . S
H151 C125 0.931 . S
H152 C132 0.932 . S
H153 C133 0.930 . S
H154 C134 0.929 . S
H155 C136 0.930 . S
H156 C138 0.932 . S
H157 C139 0.929 . S
H158 C140 0.928 . S
H159 C142 0.932 . S
C160 C161 1.264 . S
C160 C165 1.479 . S
C160 C170 1.465 . S
C161 C160 1.264 . S
C161 C163 1.339 . S
C161 H188 0.931 . S
C162 C163 1.395 . S
C162 C164 1.320 . S
C163 C161 1.339 . S
C163 C162 1.395 . S
C163 H189 0.929 . S
C164 C162 1.320 . S
C164 C165 1.405 . S
C164 H190 0.930 . S
C165 C160 1.479 . S
C165 C164 1.405 . S
C165 H191 0.931 . S
U166 O167 2.454 . S
U166 O168 2.458 . S
U166 C169 2.984 . S
U166 C170 2.847 . S
U166 C183 2.882 . S
U166 O184 2.441 . S
U166 O185 2.420 . S
U166 O186 2.455 . S
U166 O187 2.449 . S
O167 U166 2.454 . S
O167 C169 1.353 . S
O168 U166 2.458 . S
O168 C169 1.286 . S
C169 U166 2.984 . S
C169 O167 1.353 . S
C169 O168 1.286 . S
C169 C171 1.363 . S
C170 C160 1.465 . S
C170 U166 2.847 . S
C170 O184 1.249 . S
C170 O185 1.202 . S
C171 C169 1.363 . S
C171 C173 1.408 . S
C171 C176 1.342 . S
C172 C173 1.310 . S
C172 C175 1.461 . S
C172 H192 0.932 . S
C173 C171 1.408 . S
C173 C172 1.310 . S
C173 H193 0.930 . S
C174 C175 1.474 . S
C174 C176 1.285 . S
C174 H194 0.929 . S
C175 C172 1.461 . S
C175 C174 1.474 . S
C176 C171 1.342 . S
C176 C174 1.285 . S
C176 H195 0.930 . S
C177 C180 1.424 . S
C177 C182 1.245 . S
C177 C183 1.428 . S
C178 C181 1.260 . S
C178 C182 1.477 . S
C178 H196 0.932 . S
C179 C180 1.384 . S
C179 C181 1.479 . S
C179 H197 0.929 . S
C180 C177 1.424 . S
C180 C179 1.384 . S
C180 H198 0.928 . S
C181 C178 1.260 . S
C181 C179 1.479 . S
C182 C177 1.245 . S
C182 C178 1.477 . S
C182 H199 0.932 . S
C183 U166 2.882 . S
C183 C177 1.428 . S
C183 O186 1.301 . S
C183 O187 1.282 . S
O184 U166 2.441 . S
O184 C170 1.249 . S
O185 U166 2.420 . S
O185 C170 1.202 . S
O186 U166 2.455 . S
O186 C183 1.301 . S
O187 U166 2.449 . S
O187 C183 1.282 . S
H188 C161 0.931 . S
H189 C163 0.929 . S
H190 C164 0.930 . S
H191 C165 0.931 . S
H192 C172 0.932 . S
H193 C173 0.930 . S
H194 C174 0.929 . S
H195 C176 0.930 . S
H196 C178 0.932 . S
H197 C179 0.929 . S
H198 C180 0.928 . S
H199 C182 0.932 . S
C200 C201 1.264 . S
C200 C205 1.479 . S
C200 C210 1.465 . S
C201 C200 1.264 . S
C201 C203 1.339 . S
C201 H228 0.931 . S
C202 C203 1.395 . S
C202 C204 1.320 . S
C203 C201 1.339 . S
C203 C202 1.395 . S
C203 H229 0.929 . S
C204 C202 1.320 . S
C204 C205 1.405 . S
C204 H230 0.930 . S
C205 C200 1.479 . S
C205 C204 1.405 . S
C205 H231 0.931 . S
U206 O207 2.454 . S
U206 O208 2.458 . S
U206 C209 2.984 . S
U206 C210 2.847 . S
U206 C223 2.882 . S
U206 O224 2.441 . S
U206 O225 2.420 . S
U206 O226 2.455 . S
U206 O227 2.449 . S
O207 U206 2.454 . S
O207 C209 1.353 . S
O208 U206 2.458 . S
O208 C209 1.286 . S
C209 U206 2.984 . S
C209 O207 1.353 . S
C209 O208 1.286 . S
C209 C211 1.363 . S
C210 C200 1.465 . S
C210 U206 2.847 . S
C210 O224 1.249 . S
C210 O225 1.202 . S
C211 C209 1.363 . S
C211 C213 1.408 . S
C211 C216 1.342 . S
C212 C213 1.310 . S
C212 C215 1.461 . S
C212 H232 0.932 . S
C213 C211 1.408 . S
C213 C212 1.310 . S
C213 H233 0.930 . S
C214 C215 1.474 . S
C214 C216 1.285 . S
C214 H234 0.929 . S
C215 C212 1.461 . S
C215 C214 1.474 . S
C216 C211 1.342 . S
C216 C214 1.285 . S
C216 H235 0.930 . S
C217 C220 1.424 . S
C217 C222 1.245 . S
C217 C223 1.428 . S
C218 C221 1.260 . S
C218 C222 1.477 . S
C218 H236 0.932 . S
C219 C220 1.384 . S
C219 C221 1.479 . S
C219 H237 0.929 . S
C220 C217 1.424 . S
C220 C219 1.384 . S
C220 H238 0.928 . S
C221 C218 1.260 . S
C221 C219 1.479 . S
C222 C217 1.245 . S
C222 C218 1.477 . S
C222 H239 0.932 . S
C223 U206 2.882 . S
C223 C217 1.428 . S
C223 O226 1.301 . S
C223 O227 1.282 . S
O224 U206 2.441 . S
O224 C210 1.249 . S
O225 U206 2.420 . S
O225 C210 1.202 . S
O226 U206 2.455 . S
O226 C223 1.301 . S
O227 U206 2.449 . S
O227 C223 1.282 . S
H228 C201 0.931 . S
H229 C203 0.929 . S
H230 C204 0.930 . S
H231 C205 0.931 . S
H232 C212 0.932 . S
H233 C213 0.930 . S
H234 C214 0.929 . S
H235 C216 0.930 . S
H236 C218 0.932 . S
H237 C219 0.929 . S
H238 C220 0.928 . S
H239 C222 0.932 . S
C240 C241 1.264 . S
C240 C245 1.479 . S
C240 C250 1.465 . S
C241 C240 1.264 . S
C241 C243 1.339 . S
C241 H268 0.931 . S
C242 C243 1.395 . S
C242 C244 1.320 . S
C243 C241 1.339 . S
C243 C242 1.395 . S
C243 H269 0.929 . S
C244 C242 1.320 . S
C244 C245 1.405 . S
C244 H270 0.930 . S
C245 C240 1.479 . S
C245 C244 1.405 . S
C245 H271 0.931 . S
U246 O247 2.454 . S
U246 O248 2.458 . S
U246 C249 2.984 . S
U246 C250 2.847 . S
U246 C263 2.882 . S
U246 O264 2.441 . S
U246 O265 2.420 . S
U246 O266 2.455 . S
U246 O267 2.449 . S
O247 U246 2.454 . S
O247 C249 1.353 . S
O248 U246 2.458 . S
O248 C249 1.286 . S
C249 U246 2.984 . S
C249 O247 1.353 . S
C249 O248 1.286 . S
C249 C251 1.363 . S
C250 C240 1.465 . S
C250 U246 2.847 . S
C250 O264 1.249 . S
C250 O265 1.202 . S
C251 C249 1.363 . S
C251 C253 1.408 . S
C251 C256 1.342 . S
C252 C253 1.310 . S
C252 C255 1.461 . S
C252 H272 0.932 . S
C253 C251 1.408 . S
C253 C252 1.310 . S
C253 H273 0.930 . S
C254 C255 1.474 . S
C254 C256 1.285 . S
C254 H274 0.929 . S
C255 C252 1.461 . S
C255 C254 1.474 . S
C256 C251 1.342 . S
C256 C254 1.285 . S
C256 H275 0.930 . S
C257 C260 1.424 . S
C257 C262 1.245 . S
C257 C263 1.428 . S
C258 C261 1.260 . S
C258 C262 1.477 . S
C258 H276 0.932 . S
C259 C260 1.384 . S
C259 C261 1.479 . S
C259 H277 0.929 . S
C260 C257 1.424 . S
C260 C259 1.384 . S
C260 H278 0.928 . S
C261 C258 1.260 . S
C261 C259 1.479 . S
C262 C257 1.245 . S
C262 C258 1.477 . S
C262 H279 0.932 . S
C263 U246 2.882 . S
C263 C257 1.428 . S
C263 O266 1.301 . S
C263 O267 1.282 . S
O264 U246 2.441 . S
O264 C250 1.249 . S
O265 U246 2.420 . S
O265 C250 1.202 . S
O266 U246 2.455 . S
O266 C263 1.301 . S
O267 U246 2.449 . S
O267 C263 1.282 . S
H268 C241 0.931 . S
H269 C243 0.929 . S
H270 C244 0.930 . S
H271 C245 0.931 . S
H272 C252 0.932 . S
H273 C253 0.930 . S
H274 C254 0.929 . S
H275 C256 0.930 . S
H276 C258 0.932 . S
H277 C259 0.929 . S
H278 C260 0.928 . S
H279 C262 0.932 . S
C280 C281 1.264 . S
C280 C285 1.479 . S
C280 C290 1.465 . S
C281 C280 1.264 . S
C281 C283 1.339 . S
C281 H308 0.931 . S
C282 C283 1.395 . S
C282 C284 1.320 . S
C283 C281 1.339 . S
C283 C282 1.395 . S
C283 H309 0.929 . S
C284 C282 1.320 . S
C284 C285 1.405 . S
C284 H310 0.930 . S
C285 C280 1.479 . S
C285 C284 1.405 . S
C285 H311 0.931 . S
U286 O287 2.454 . S
U286 O288 2.458 . S
U286 C289 2.984 . S
U286 C290 2.847 . S
U286 C303 2.882 . S
U286 O304 2.441 . S
U286 O305 2.420 . S
U286 O306 2.455 . S
U286 O307 2.449 . S
O287 U286 2.454 . S
O287 C289 1.353 . S
O288 U286 2.458 . S
O288 C289 1.286 . S
C289 U286 2.984 . S
C289 O287 1.353 . S
C289 O288 1.286 . S
C289 C291 1.363 . S
C290 C280 1.465 . S
C290 U286 2.847 . S
C290 O304 1.249 . S
C290 O305 1.202 . S
C291 C289 1.363 . S
C291 C293 1.408 . S
C291 C296 1.342 . S
C292 C293 1.310 . S
C292 C295 1.461 . S
C292 H312 0.932 . S
C293 C291 1.408 . S
C293 C292 1.310 . S
C293 H313 0.930 . S
C294 C295 1.474 . S
C294 C296 1.285 . S
C294 H314 0.929 . S
C295 C292 1.461 . S
C295 C294 1.474 . S
C296 C291 1.342 . S
C296 C294 1.285 . S
C296 H315 0.930 . S
C297 C300 1.424 . S
C297 C302 1.245 . S
C297 C303 1.428 . S
C298 C301 1.260 . S
C298 C302 1.477 . S
C298 H316 0.932 . S
C299 C300 1.384 . S
C299 C301 1.479 . S
C299 H317 0.929 . S
C300 C297 1.424 . S
C300 C299 1.384 . S
C300 H318 0.928 . S
C301 C298 1.260 . S
C301 C299 1.479 . S
C302 C297 1.245 . S
C302 C298 1.477 . S
C302 H319 0.932 . S
C303 U286 2.882 . S
C303 C297 1.428 . S
C303 O306 1.301 . S
C303 O307 1.282 . S
O304 U286 2.441 . S
O304 C290 1.249 . S
O305 U286 2.420 . S
O305 C290 1.202 . S
O306 U286 2.455 . S
O306 C303 1.301 . S
O307 U286 2.449 . S
O307 C303 1.282 . S
H308 C281 0.931 . S
H309 C283 0.929 . S
H310 C284 0.930 . S
H311 C285 0.931 . S
H312 C292 0.932 . S
H313 C293 0.930 . S
H314 C294 0.929 . S
H315 C296 0.930 . S
H316 C298 0.932 . S
H317 C299 0.929 . S
H318 C300 0.928 . S
H319 C302 0.932 . S
Co320 O323 2.042 . S
Co320 O330 2.264 . S
Co320 O349 2.286 . S
Co320 O350 2.069 . S
Co320 O352 2.015 . S
Co321 O323 2.122 . S
Co321 O329 2.073 . S
Co321 O330 2.327 . S
Co321 O331 1.976 . S
Co322 O323 2.087 . S
Co322 O325 2.087 1_455 S
Co322 O332 2.111 . S
Co322 O333 2.143 1_455 S
Co322 O337 2.111 1_455 S
Co322 O351 2.143 . S
O323 Co320 2.042 . S
O323 Co321 2.122 . S
O323 Co322 2.087 . S
O323 H324 0.980 . S
H324 O323 0.980 . S
O325 Co322 2.087 1_655 S
O325 Co326 2.042 . S
O325 Co327 2.122 . S
O325 H328 0.980 . S
Co326 O325 2.042 . S
Co326 O334 2.286 . S
Co326 O335 2.069 . S
Co326 O336 2.015 . S
Co326 O339 2.264 . S
Co327 O325 2.122 . S
Co327 O338 1.976 . S
Co327 O339 2.327 . S
Co327 O340 2.073 . S
H328 O325 0.980 . S
O329 Co321 2.073 . S
O329 C344 1.245 . S
O330 Co320 2.264 . S
O330 Co321 2.327 . S
O330 C344 1.257 . S
O331 Co321 1.976 . S
O331 C343 1.251 . S
O332 Co322 2.111 . S
O332 C343 1.274 . S
O333 Co322 2.143 1_655 S
O333 C346 1.246 . S
O334 Co326 2.286 . S
O334 C345 1.259 . S
O335 Co326 2.069 . S
O335 C345 1.289 . S
O336 Co326 2.015 . S
O336 C346 1.257 . S
O337 Co322 2.111 1_655 S
O337 C347 1.274 . S
O338 Co327 1.976 . S
O338 C347 1.251 . S
O339 Co326 2.264 . S
O339 Co327 2.327 . S
O339 C348 1.257 . S
O340 Co327 2.073 . S
O340 C348 1.245 . S
C341 O349 1.259 . S
C341 O350 1.289 . S
C342 O351 1.246 . S
C342 O352 1.257 . S
C343 O331 1.251 . S
C343 O332 1.274 . S
C344 O329 1.245 . S
C344 O330 1.257 . S
C345 O334 1.259 . S
C345 O335 1.289 . S
C346 O333 1.246 . S
C346 O336 1.257 . S
C347 O337 1.274 . S
C347 O338 1.251 . S
C348 O339 1.257 . S
C348 O340 1.245 . S
O349 Co320 2.286 . S
O349 C341 1.259 . S
O350 Co320 2.069 . S
O350 C341 1.289 . S
O351 Co322 2.143 . S
O351 C342 1.246 . S
O352 Co320 2.015 . S
O352 C342 1.257 . S
Co353 O356 2.042 . S
Co353 O363 2.264 . S
Co353 O382 2.286 . S
Co353 O383 2.069 . S
Co353 O385 2.015 . S
Co354 O356 2.122 . S
Co354 O362 2.073 . S
Co354 O363 2.327 . S
Co354 O364 1.976 . S
Co355 O356 2.087 1_545 S
Co355 O358 2.087 . S
Co355 O365 2.111 1_545 S
Co355 O366 2.143 . S
Co355 O370 2.111 . S
Co355 O384 2.143 1_545 S
O356 Co353 2.042 . S
O356 Co354 2.122 . S
O356 Co355 2.087 1_565 S
O356 H357 0.980 . S
H357 O356 0.980 . S
O358 Co355 2.087 . S
O358 Co359 2.042 . S
O358 Co360 2.122 . S
O358 H361 0.980 . S
Co359 O358 2.042 . S
Co359 O367 2.286 . S
Co359 O368 2.069 . S
Co359 O369 2.015 . S
Co359 O372 2.264 . S
Co360 O358 2.122 . S
Co360 O371 1.976 . S
Co360 O372 2.327 . S
Co360 O373 2.073 . S
H361 O358 0.980 . S
O362 Co354 2.073 . S
O362 C377 1.245 . S
O363 Co353 2.264 . S
O363 Co354 2.327 . S
O363 C377 1.257 . S
O364 Co354 1.976 . S
O364 C376 1.251 . S
O365 Co355 2.111 1_565 S
O365 C376 1.274 . S
O366 Co355 2.143 . S
O366 C379 1.246 . S
O367 Co359 2.286 . S
O367 C378 1.259 . S
O368 Co359 2.069 . S
O368 C378 1.289 . S
O369 Co359 2.015 . S
O369 C379 1.257 . S
O370 Co355 2.111 . S
O370 C380 1.274 . S
O371 Co360 1.976 . S
O371 C380 1.251 . S
O372 Co359 2.264 . S
O372 Co360 2.327 . S
O372 C381 1.257 . S
O373 Co360 2.073 . S
O373 C381 1.245 . S
C374 O382 1.259 . S
C374 O383 1.289 . S
C375 O384 1.246 . S
C375 O385 1.257 . S
C376 O364 1.251 . S
C376 O365 1.274 . S
C377 O362 1.245 . S
C377 O363 1.257 . S
C378 O367 1.259 . S
C378 O368 1.289 . S
C379 O366 1.246 . S
C379 O369 1.257 . S
C380 O370 1.274 . S
C380 O371 1.251 . S
C381 O372 1.257 . S
C381 O373 1.245 . S
O382 Co353 2.286 . S
O382 C374 1.259 . S
O383 Co353 2.069 . S
O383 C374 1.289 . S
O384 Co355 2.143 1_565 S
O384 C375 1.246 . S
O385 Co353 2.015 . S
O385 C375 1.257 . S
Co386 O389 2.042 . S
Co386 O396 2.264 . S
Co386 O415 2.286 . S
Co386 O416 2.069 . S
Co386 O418 2.015 . S
Co387 O389 2.122 . S
Co387 O395 2.073 . S
Co387 O396 2.327 . S
Co387 O397 1.976 . S
Co388 O389 2.087 . S
Co388 O391 2.087 1_554 S
Co388 O398 2.111 . S
Co388 O399 2.143 1_554 S
Co388 O403 2.111 1_554 S
Co388 O417 2.143 . S
O389 Co386 2.042 . S
O389 Co387 2.122 . S
O389 Co388 2.087 . S
O389 H390 0.980 . S
H390 O389 0.980 . S
O391 Co388 2.087 1_556 S
O391 Co392 2.042 . S
O391 Co393 2.122 . S
O391 H394 0.980 . S
Co392 O391 2.042 . S
Co392 O400 2.286 . S
Co392 O401 2.069 . S
Co392 O402 2.015 . S
Co392 O405 2.264 . S
Co393 O391 2.122 . S
Co393 O404 1.976 . S
Co393 O405 2.327 . S
Co393 O406 2.073 . S
H394 O391 0.980 . S
O395 Co387 2.073 . S
O395 C410 1.245 . S
O396 Co386 2.264 . S
O396 Co387 2.327 . S
O396 C410 1.257 . S
O397 Co387 1.976 . S
O397 C409 1.251 . S
O398 Co388 2.111 . S
O398 C409 1.274 . S
O399 Co388 2.143 1_556 S
O399 C412 1.246 . S
O400 Co392 2.286 . S
O400 C411 1.259 . S
O401 Co392 2.069 . S
O401 C411 1.289 . S
O402 Co392 2.015 . S
O402 C412 1.257 . S
O403 Co388 2.111 1_556 S
O403 C413 1.274 . S
O404 Co393 1.976 . S
O404 C413 1.251 . S
O405 Co392 2.264 . S
O405 Co393 2.327 . S
O405 C414 1.257 . S
O406 Co393 2.073 . S
O406 C414 1.245 . S
C407 O415 1.259 . S
C407 O416 1.289 . S
C408 O417 1.246 . S
C408 O418 1.257 . S
C409 O397 1.251 . S
C409 O398 1.274 . S
C410 O395 1.245 . S
C410 O396 1.257 . S
C411 O400 1.259 . S
C411 O401 1.289 . S
C412 O399 1.246 . S
C412 O402 1.257 . S
C413 O403 1.274 . S
C413 O404 1.251 . S
C414 O405 1.257 . S
C414 O406 1.245 . S
O415 Co386 2.286 . S
O415 C407 1.259 . S
O416 Co386 2.069 . S
O416 C407 1.289 . S
O417 Co388 2.143 . S
O417 C408 1.246 . S
O418 Co386 2.015 . S
O418 C408 1.257 . S
H419 C437 0.951 . S
H420 C439 0.951 . S
H421 C441 0.950 . S
H422 C442 0.950 . S
H423 C444 0.950 . S
H424 C447 0.950 . S
H425 C448 0.950 . S
H426 C450 0.950 . S
H427 C451 0.950 . S
H428 C452 0.951 . S
H429 C454 0.951 . S
H430 C456 0.950 . S
H431 C457 0.950 . S
H432 C459 0.950 . S
H433 C462 0.950 . S
H434 C463 0.950 . S
H435 C465 0.950 . S
H436 C466 0.950 . S
C437 H419 0.951 . S
C437 C438 1.366 . S
C437 C439 1.388 . S
C438 C437 1.366 . S
C438 C442 1.385 . S
C439 H420 0.951 . S
C439 C437 1.388 . S
C439 C440 1.366 . S
C440 C439 1.366 . S
C440 C441 1.414 . S
C440 C443 1.499 . S
C441 H421 0.950 . S
C441 C440 1.414 . S
C441 C442 1.374 . S
C442 H422 0.950 . S
C442 C438 1.385 . S
C442 C441 1.374 . S
C443 C440 1.499 . S
C443 C444 1.373 . S
C443 C445 1.389 . S
C444 H423 0.950 . S
C444 C443 1.373 . S
C444 C460 1.377 . S
C445 C443 1.389 . S
C445 C446 1.524 . S
C445 C459 1.377 . S
C446 C445 1.524 . S
C446 C447 1.397 . S
C446 C451 1.363 . S
C447 H424 0.950 . S
C447 C446 1.397 . S
C447 C448 1.334 . S
C448 H425 0.950 . S
C448 C447 1.334 . S
C448 C449 1.287 . S
C449 C448 1.287 . S
C449 C450 1.524 . S
C449 H468 0.913 . S
C450 H426 0.950 . S
C450 C449 1.524 . S
C450 C451 1.415 . S
C451 H427 0.950 . S
C451 C446 1.363 . S
C451 C450 1.415 . S
C452 H428 0.951 . S
C452 C453 1.366 . S
C452 C454 1.388 . S
C453 C452 1.366 . S
C453 C457 1.385 . S
C454 H429 0.951 . S
C454 C452 1.388 . S
C454 C455 1.366 . S
C455 C454 1.366 . S
C455 C456 1.414 . S
C455 C458 1.499 . S
C456 H430 0.950 . S
C456 C455 1.414 . S
C456 C457 1.374 . S
C457 H431 0.950 . S
C457 C453 1.385 . S
C457 C456 1.374 . S
C458 C455 1.499 . S
C458 C459 1.373 . S
C458 C460 1.389 . S
C459 H432 0.950 . S
C459 C445 1.377 . S
C459 C458 1.373 . S
C460 C444 1.377 . S
C460 C458 1.389 . S
C460 C461 1.524 . S
C461 C460 1.524 . S
C461 C462 1.397 . S
C461 C466 1.363 . S
C462 H433 0.950 . S
C462 C461 1.397 . S
C462 C463 1.334 . S
C463 H434 0.950 . S
C463 C462 1.334 . S
C463 C464 1.287 . S
C464 C463 1.287 . S
C464 C465 1.524 . S
C464 H467 0.999 . S
C465 H435 0.950 . S
C465 C464 1.524 . S
C465 C466 1.415 . S
C466 H436 0.950 . S
C466 C461 1.363 . S
C466 C465 1.415 . S
H467 C464 0.999 . S
H468 C449 0.913 . S
H469 C487 0.951 . S
H470 C489 0.951 . S
H471 C491 0.950 . S
H472 C492 0.950 . S
H473 C494 0.950 . S
H474 C497 0.950 . S
H475 C498 0.950 . S
H476 C500 0.950 . S
H477 C501 0.950 . S
H478 C502 0.951 . S
H479 C504 0.951 . S
H480 C506 0.950 . S
H481 C507 0.950 . S
H482 C509 0.950 . S
H483 C512 0.950 . S
H484 C513 0.950 . S
H485 C515 0.950 . S
H486 C516 0.950 . S
C487 H469 0.951 . S
C487 C488 1.366 . S
C487 C489 1.388 . S
C488 C487 1.366 . S
C488 C492 1.385 . S
C489 H470 0.951 . S
C489 C487 1.388 . S
C489 C490 1.366 . S
C490 C489 1.366 . S
C490 C491 1.414 . S
C490 C493 1.499 . S
C491 H471 0.950 . S
C491 C490 1.414 . S
C491 C492 1.374 . S
C492 H472 0.950 . S
C492 C488 1.385 . S
C492 C491 1.374 . S
C493 C490 1.499 . S
C493 C494 1.373 . S
C493 C495 1.389 . S
C494 H473 0.950 . S
C494 C493 1.373 . S
C494 C510 1.377 . S
C495 C493 1.389 . S
C495 C496 1.524 . S
C495 C509 1.377 . S
C496 C495 1.524 . S
C496 C497 1.397 . S
C496 C501 1.363 . S
C497 H474 0.950 . S
C497 C496 1.397 . S
C497 C498 1.334 . S
C498 H475 0.950 . S
C498 C497 1.334 . S
C498 C499 1.287 . S
C499 C498 1.287 . S
C499 C500 1.524 . S
C499 H518 0.913 . S
C500 H476 0.950 . S
C500 C499 1.524 . S
C500 C501 1.415 . S
C501 H477 0.950 . S
C501 C496 1.363 . S
C501 C500 1.415 . S
C502 H478 0.951 . S
C502 C503 1.366 . S
C502 C504 1.388 . S
C503 C502 1.366 . S
C503 C507 1.385 . S
C504 H479 0.951 . S
C504 C502 1.388 . S
C504 C505 1.366 . S
C505 C504 1.366 . S
C505 C506 1.414 . S
C505 C508 1.499 . S
C506 H480 0.950 . S
C506 C505 1.414 . S
C506 C507 1.374 . S
C507 H481 0.950 . S
C507 C503 1.385 . S
C507 C506 1.374 . S
C508 C505 1.499 . S
C508 C509 1.373 . S
C508 C510 1.389 . S
C509 H482 0.950 . S
C509 C495 1.377 . S
C509 C508 1.373 . S
C510 C494 1.377 . S
C510 C508 1.389 . S
C510 C511 1.524 . S
C511 C510 1.524 . S
C511 C512 1.397 . S
C511 C516 1.363 . S
C512 H483 0.950 . S
C512 C511 1.397 . S
C512 C513 1.334 . S
C513 H484 0.950 . S
C513 C512 1.334 . S
C513 C514 1.287 . S
C514 C513 1.287 . S
C514 C515 1.524 . S
C514 H517 0.999 . S
C515 H485 0.950 . S
C515 C514 1.524 . S
C515 C516 1.415 . S
C516 H486 0.950 . S
C516 C511 1.363 . S
C516 C515 1.415 . S
H517 C514 0.999 . S
H518 C499 0.913 . S
H519 C537 0.951 . S
H520 C539 0.951 . S
H521 C541 0.950 . S
H522 C542 0.950 . S
H523 C544 0.950 . S
H524 C547 0.950 . S
H525 C548 0.950 . S
H526 C550 0.950 . S
H527 C551 0.950 . S
H528 C552 0.951 . S
H529 C554 0.951 . S
H530 C556 0.950 . S
H531 C557 0.950 . S
H532 C559 0.950 . S
H533 C562 0.950 . S
H534 C563 0.950 . S
H535 C565 0.950 . S
H536 C566 0.950 . S
C537 H519 0.951 . S
C537 C538 1.366 . S
C537 C539 1.388 . S
C538 C537 1.366 . S
C538 C542 1.385 . S
C539 H520 0.951 . S
C539 C537 1.388 . S
C539 C540 1.366 . S
C540 C539 1.366 . S
C540 C541 1.414 . S
C540 C543 1.499 . S
C541 H521 0.950 . S
C541 C540 1.414 . S
C541 C542 1.374 . S
C542 H522 0.950 . S
C542 C538 1.385 . S
C542 C541 1.374 . S
C543 C540 1.499 . S
C543 C544 1.373 . S
C543 C545 1.389 . S
C544 H523 0.950 . S
C544 C543 1.373 . S
C544 C560 1.377 . S
C545 C543 1.389 . S
C545 C546 1.524 . S
C545 C559 1.377 . S
C546 C545 1.524 . S
C546 C547 1.397 . S
C546 C551 1.363 . S
C547 H524 0.950 . S
C547 C546 1.397 . S
C547 C548 1.334 . S
C548 H525 0.950 . S
C548 C547 1.334 . S
C548 C549 1.287 . S
C549 C548 1.287 . S
C549 C550 1.524 . S
C549 H568 0.913 . S
C550 H526 0.950 . S
C550 C549 1.524 . S
C550 C551 1.415 . S
C551 H527 0.950 . S
C551 C546 1.363 . S
C551 C550 1.415 . S
C552 H528 0.951 . S
C552 C553 1.366 . S
C552 C554 1.388 . S
C553 C552 1.366 . S
C553 C557 1.385 . S
C554 H529 0.951 . S
C554 C552 1.388 . S
C554 C555 1.366 . S
C555 C554 1.366 . S
C555 C556 1.414 . S
C555 C558 1.499 . S
C556 H530 0.950 . S
C556 C555 1.414 . S
C556 C557 1.374 . S
C557 H531 0.950 . S
C557 C553 1.385 . S
C557 C556 1.374 . S
C558 C555 1.499 . S
C558 C559 1.373 . S
C558 C560 1.389 . S
C559 H532 0.950 . S
C559 C545 1.377 . S
C559 C558 1.373 . S
C560 C544 1.377 . S
C560 C558 1.389 . S
C560 C561 1.524 . S
C561 C560 1.524 . S
C561 C562 1.397 . S
C561 C566 1.363 . S
C562 H533 0.950 . S
C562 C561 1.397 . S
C562 C563 1.334 . S
C563 H534 0.950 . S
C563 C562 1.334 . S
C563 C564 1.287 . S
C564 C563 1.287 . S
C564 C565 1.524 . S
C564 H567 0.999 . S
C565 H535 0.950 . S
C565 C564 1.524 . S
C565 C566 1.415 . S
C566 H536 0.950 . S
C566 C561 1.363 . S
C566 C565 1.415 . S
H567 C564 0.999 . S
H568 C549 0.913 . S
H569 C587 0.951 . S
H570 C589 0.951 . S
H571 C591 0.950 . S
H572 C592 0.950 . S
H573 C594 0.950 . S
H574 C597 0.950 . S
H575 C598 0.950 . S
H576 C600 0.950 . S
H577 C601 0.950 . S
H578 C602 0.951 . S
H579 C604 0.951 . S
H580 C606 0.950 . S
H581 C607 0.950 . S
H582 C609 0.950 . S
H583 C612 0.950 . S
H584 C613 0.950 . S
H585 C615 0.950 . S
H586 C616 0.950 . S
C587 H569 0.951 . S
C587 C588 1.366 . S
C587 C589 1.388 . S
C588 C587 1.366 . S
C588 C592 1.385 . S
C589 H570 0.951 . S
C589 C587 1.388 . S
C589 C590 1.366 . S
C590 C589 1.366 . S
C590 C591 1.414 . S
C590 C593 1.499 . S
C591 H571 0.950 . S
C591 C590 1.414 . S
C591 C592 1.374 . S
C592 H572 0.950 . S
C592 C588 1.385 . S
C592 C591 1.374 . S
C593 C590 1.499 . S
C593 C594 1.373 . S
C593 C595 1.389 . S
C594 H573 0.950 . S
C594 C593 1.373 . S
C594 C610 1.377 . S
C595 C593 1.389 . S
C595 C596 1.524 . S
C595 C609 1.377 . S
C596 C595 1.524 . S
C596 C597 1.397 . S
C596 C601 1.363 . S
C597 H574 0.950 . S
C597 C596 1.397 . S
C597 C598 1.334 . S
C598 H575 0.950 . S
C598 C597 1.334 . S
C598 C599 1.287 . S
C599 C598 1.287 . S
C599 C600 1.524 . S
C599 H618 0.913 . S
C600 H576 0.950 . S
C600 C599 1.524 . S
C600 C601 1.415 . S
C601 H577 0.950 . S
C601 C596 1.363 . S
C601 C600 1.415 . S
C602 H578 0.951 . S
C602 C603 1.366 . S
C602 C604 1.388 . S
C603 C602 1.366 . S
C603 C607 1.385 . S
C604 H579 0.951 . S
C604 C602 1.388 . S
C604 C605 1.366 . S
C605 C604 1.366 . S
C605 C606 1.414 . S
C605 C608 1.499 . S
C606 H580 0.950 . S
C606 C605 1.414 . S
C606 C607 1.374 . S
C607 H581 0.950 . S
C607 C603 1.385 . S
C607 C606 1.374 . S
C608 C605 1.499 . S
C608 C609 1.373 . S
C608 C610 1.389 . S
C609 H582 0.950 . S
C609 C595 1.377 . S
C609 C608 1.373 . S
C610 C594 1.377 . S
C610 C608 1.389 . S
C610 C611 1.524 . S
C611 C610 1.524 . S
C611 C612 1.397 . S
C611 C616 1.363 . S
C612 H583 0.950 . S
C612 C611 1.397 . S
C612 C613 1.334 . S
C613 H584 0.950 . S
C613 C612 1.334 . S
C613 C614 1.287 . S
C614 C613 1.287 . S
C614 C615 1.524 . S
C614 H617 0.999 . S
C615 H585 0.950 . S
C615 C614 1.524 . S
C615 C616 1.415 . S
C616 H586 0.950 . S
C616 C611 1.363 . S
C616 C615 1.415 . S
H617 C614 0.999 . S
H618 C599 0.913 . S
H619 C637 0.951 . S
H620 C639 0.951 . S
H621 C641 0.950 . S
H622 C642 0.950 . S
H623 C644 0.950 . S
H624 C647 0.950 . S
H625 C648 0.950 . S
H626 C650 0.950 . S
H627 C651 0.950 . S
H628 C652 0.951 . S
H629 C654 0.951 . S
H630 C656 0.950 . S
H631 C657 0.950 . S
H632 C659 0.950 . S
H633 C662 0.950 . S
H634 C663 0.950 . S
H635 C665 0.950 . S
H636 C666 0.950 . S
C637 H619 0.951 . S
C637 C638 1.366 . S
C637 C639 1.388 . S
C638 C637 1.366 . S
C638 C642 1.385 . S
C639 H620 0.951 . S
C639 C637 1.388 . S
C639 C640 1.366 . S
C640 C639 1.366 . S
C640 C641 1.414 . S
C640 C643 1.499 . S
C641 H621 0.950 . S
C641 C640 1.414 . S
C641 C642 1.374 . S
C642 H622 0.950 . S
C642 C638 1.385 . S
C642 C641 1.374 . S
C643 C640 1.499 . S
C643 C644 1.373 . S
C643 C645 1.389 . S
C644 H623 0.950 . S
C644 C643 1.373 . S
C644 C660 1.377 . S
C645 C643 1.389 . S
C645 C646 1.524 . S
C645 C659 1.377 . S
C646 C645 1.524 . S
C646 C647 1.397 . S
C646 C651 1.363 . S
C647 H624 0.950 . S
C647 C646 1.397 . S
C647 C648 1.334 . S
C648 H625 0.950 . S
C648 C647 1.334 . S
C648 C649 1.287 . S
C649 C648 1.287 . S
C649 C650 1.524 . S
C649 H668 0.913 . S
C650 H626 0.950 . S
C650 C649 1.524 . S
C650 C651 1.415 . S
C651 H627 0.950 . S
C651 C646 1.363 . S
C651 C650 1.415 . S
C652 H628 0.951 . S
C652 C653 1.366 . S
C652 C654 1.388 . S
C653 C652 1.366 . S
C653 C657 1.385 . S
C654 H629 0.951 . S
C654 C652 1.388 . S
C654 C655 1.366 . S
C655 C654 1.366 . S
C655 C656 1.414 . S
C655 C658 1.499 . S
C656 H630 0.950 . S
C656 C655 1.414 . S
C656 C657 1.374 . S
C657 H631 0.950 . S
C657 C653 1.385 . S
C657 C656 1.374 . S
C658 C655 1.499 . S
C658 C659 1.373 . S
C658 C660 1.389 . S
C659 H632 0.950 . S
C659 C645 1.377 . S
C659 C658 1.373 . S
C660 C644 1.377 . S
C660 C658 1.389 . S
C660 C661 1.524 . S
C661 C660 1.524 . S
C661 C662 1.397 . S
C661 C666 1.363 . S
C662 H633 0.950 . S
C662 C661 1.397 . S
C662 C663 1.334 . S
C663 H634 0.950 . S
C663 C662 1.334 . S
C663 C664 1.287 . S
C664 C663 1.287 . S
C664 C665 1.524 . S
C664 H667 0.999 . S
C665 H635 0.950 . S
C665 C664 1.524 . S
C665 C666 1.415 . S
C666 H636 0.950 . S
C666 C661 1.363 . S
C666 C665 1.415 . S
H667 C664 0.999 . S
H668 C649 0.913 . S
H669 C687 0.951 . S
H670 C689 0.951 . S
H671 C691 0.950 . S
H672 C692 0.950 . S
H673 C694 0.950 . S
H674 C697 0.950 . S
H675 C698 0.950 . S
H676 C700 0.950 . S
H677 C701 0.950 . S
H678 C702 0.951 . S
H679 C704 0.951 . S
H680 C706 0.950 . S
H681 C707 0.950 . S
H682 C709 0.950 . S
H683 C712 0.950 . S
H684 C713 0.950 . S
H685 C715 0.950 . S
H686 C716 0.950 . S
C687 H669 0.951 . S
C687 C688 1.366 . S
C687 C689 1.388 . S
C688 C687 1.366 . S
C688 C692 1.385 . S
C689 H670 0.951 . S
C689 C687 1.388 . S
C689 C690 1.366 . S
C690 C689 1.366 . S
C690 C691 1.414 . S
C690 C693 1.499 . S
C691 H671 0.950 . S
C691 C690 1.414 . S
C691 C692 1.374 . S
C692 H672 0.950 . S
C692 C688 1.385 . S
C692 C691 1.374 . S
C693 C690 1.499 . S
C693 C694 1.373 . S
C693 C695 1.389 . S
C694 H673 0.950 . S
C694 C693 1.373 . S
C694 C710 1.377 . S
C695 C693 1.389 . S
C695 C696 1.524 . S
C695 C709 1.377 . S
C696 C695 1.524 . S
C696 C697 1.397 . S
C696 C701 1.363 . S
C697 H674 0.950 . S
C697 C696 1.397 . S
C697 C698 1.334 . S
C698 H675 0.950 . S
C698 C697 1.334 . S
C698 C699 1.287 . S
C699 C698 1.287 . S
C699 C700 1.524 . S
C699 H718 0.913 . S
C700 H676 0.950 . S
C700 C699 1.524 . S
C700 C701 1.415 . S
C701 H677 0.950 . S
C701 C696 1.363 . S
C701 C700 1.415 . S
C702 H678 0.951 . S
C702 C703 1.366 . S
C702 C704 1.388 . S
C703 C702 1.366 . S
C703 C707 1.385 . S
C704 H679 0.951 . S
C704 C702 1.388 . S
C704 C705 1.366 . S
C705 C704 1.366 . S
C705 C706 1.414 . S
C705 C708 1.499 . S
C706 H680 0.950 . S
C706 C705 1.414 . S
C706 C707 1.374 . S
C707 H681 0.950 . S
C707 C703 1.385 . S
C707 C706 1.374 . S
C708 C705 1.499 . S
C708 C709 1.373 . S
C708 C710 1.389 . S
C709 H682 0.950 . S
C709 C695 1.377 . S
C709 C708 1.373 . S
C710 C694 1.377 . S
C710 C708 1.389 . S
C710 C711 1.524 . S
C711 C710 1.524 . S
C711 C712 1.397 . S
C711 C716 1.363 . S
C712 H683 0.950 . S
C712 C711 1.397 . S
C712 C713 1.334 . S
C713 H684 0.950 . S
C713 C712 1.334 . S
C713 C714 1.287 . S
C714 C713 1.287 . S
C714 C715 1.524 . S
C714 H717 0.999 . S
C715 H685 0.950 . S
C715 C714 1.524 . S
C715 C716 1.415 . S
C716 H686 0.950 . S
C716 C711 1.363 . S
C716 C715 1.415 . S
H717 C714 0.999 . S
H718 C699 0.913 . S
H719 C737 0.951 . S
H720 C739 0.951 . S
H721 C741 0.950 . S
H722 C742 0.950 . S
H723 C744 0.950 . S
H724 C747 0.950 . S
H725 C748 0.950 . S
H726 C750 0.950 . S
H727 C751 0.950 . S
H728 C752 0.951 . S
H729 C754 0.951 . S
H730 C756 0.950 . S
H731 C757 0.950 . S
H732 C759 0.950 . S
H733 C762 0.950 . S
H734 C763 0.950 . S
H735 C765 0.950 . S
H736 C766 0.950 . S
C737 H719 0.951 . S
C737 C738 1.366 . S
C737 C739 1.388 . S
C738 C737 1.366 . S
C738 C742 1.385 . S
C739 H720 0.951 . S
C739 C737 1.388 . S
C739 C740 1.366 . S
C740 C739 1.366 . S
C740 C741 1.414 . S
C740 C743 1.499 . S
C741 H721 0.950 . S
C741 C740 1.414 . S
C741 C742 1.374 . S
C742 H722 0.950 . S
C742 C738 1.385 . S
C742 C741 1.374 . S
C743 C740 1.499 . S
C743 C744 1.373 . S
C743 C745 1.389 . S
C744 H723 0.950 . S
C744 C743 1.373 . S
C744 C760 1.377 . S
C745 C743 1.389 . S
C745 C746 1.524 . S
C745 C759 1.377 . S
C746 C745 1.524 . S
C746 C747 1.397 . S
C746 C751 1.363 . S
C747 H724 0.950 . S
C747 C746 1.397 . S
C747 C748 1.334 . S
C748 H725 0.950 . S
C748 C747 1.334 . S
C748 C749 1.287 . S
C749 C748 1.287 . S
C749 C750 1.524 . S
C749 H768 0.913 . S
C750 H726 0.950 . S
C750 C749 1.524 . S
C750 C751 1.415 . S
C751 H727 0.950 . S
C751 C746 1.363 . S
C751 C750 1.415 . S
C752 H728 0.951 . S
C752 C753 1.366 . S
C752 C754 1.388 . S
C753 C752 1.366 . S
C753 C757 1.385 . S
C754 H729 0.951 . S
C754 C752 1.388 . S
C754 C755 1.366 . S
C755 C754 1.366 . S
C755 C756 1.414 . S
C755 C758 1.499 . S
C756 H730 0.950 . S
C756 C755 1.414 . S
C756 C757 1.374 . S
C757 H731 0.950 . S
C757 C753 1.385 . S
C757 C756 1.374 . S
C758 C755 1.499 . S
C758 C759 1.373 . S
C758 C760 1.389 . S
C759 H732 0.950 . S
C759 C745 1.377 . S
C759 C758 1.373 . S
C760 C744 1.377 . S
C760 C758 1.389 . S
C760 C761 1.524 . S
C761 C760 1.524 . S
C761 C762 1.397 . S
C761 C766 1.363 . S
C762 H733 0.950 . S
C762 C761 1.397 . S
C762 C763 1.334 . S
C763 H734 0.950 . S
C763 C762 1.334 . S
C763 C764 1.287 . S
C764 C763 1.287 . S
C764 C765 1.524 . S
C764 H767 0.999 . S
C765 H735 0.950 . S
C765 C764 1.524 . S
C765 C766 1.415 . S
C766 H736 0.950 . S
C766 C761 1.363 . S
C766 C765 1.415 . S
H767 C764 0.999 . S
H768 C749 0.913 . S
H769 C787 0.951 . S
H770 C789 0.951 . S
H771 C791 0.950 . S
H772 C792 0.950 . S
H773 C794 0.950 . S
H774 C797 0.950 . S
H775 C798 0.950 . S
H776 C800 0.950 . S
H777 C801 0.950 . S
H778 C802 0.951 . S
H779 C804 0.951 . S
H780 C806 0.950 . S
H781 C807 0.950 . S
H782 C809 0.950 . S
H783 C812 0.950 . S
H784 C813 0.950 . S
H785 C815 0.950 . S
H786 C816 0.950 . S
C787 H769 0.951 . S
C787 C788 1.366 . S
C787 C789 1.388 . S
C788 C787 1.366 . S
C788 C792 1.385 . S
C789 H770 0.951 . S
C789 C787 1.388 . S
C789 C790 1.366 . S
C790 C789 1.366 . S
C790 C791 1.414 . S
C790 C793 1.499 . S
C791 H771 0.950 . S
C791 C790 1.414 . S
C791 C792 1.374 . S
C792 H772 0.950 . S
C792 C788 1.385 . S
C792 C791 1.374 . S
C793 C790 1.499 . S
C793 C794 1.373 . S
C793 C795 1.389 . S
C794 H773 0.950 . S
C794 C793 1.373 . S
C794 C810 1.377 . S
C795 C793 1.389 . S
C795 C796 1.524 . S
C795 C809 1.377 . S
C796 C795 1.524 . S
C796 C797 1.397 . S
C796 C801 1.363 . S
C797 H774 0.950 . S
C797 C796 1.397 . S
C797 C798 1.334 . S
C798 H775 0.950 . S
C798 C797 1.334 . S
C798 C799 1.287 . S
C799 C798 1.287 . S
C799 C800 1.524 . S
C799 H818 0.913 . S
C800 H776 0.950 . S
C800 C799 1.524 . S
C800 C801 1.415 . S
C801 H777 0.950 . S
C801 C796 1.363 . S
C801 C800 1.415 . S
C802 H778 0.951 . S
C802 C803 1.366 . S
C802 C804 1.388 . S
C803 C802 1.366 . S
C803 C807 1.385 . S
C804 H779 0.951 . S
C804 C802 1.388 . S
C804 C805 1.366 . S
C805 C804 1.366 . S
C805 C806 1.414 . S
C805 C808 1.499 . S
C806 H780 0.950 . S
C806 C805 1.414 . S
C806 C807 1.374 . S
C807 H781 0.950 . S
C807 C803 1.385 . S
C807 C806 1.374 . S
C808 C805 1.499 . S
C808 C809 1.373 . S
C808 C810 1.389 . S
C809 H782 0.950 . S
C809 C795 1.377 . S
C809 C808 1.373 . S
C810 C794 1.377 . S
C810 C808 1.389 . S
C810 C811 1.524 . S
C811 C810 1.524 . S
C811 C812 1.397 . S
C811 C816 1.363 . S
C812 H783 0.950 . S
C812 C811 1.397 . S
C812 C813 1.334 . S
C813 H784 0.950 . S
C813 C812 1.334 . S
C813 C814 1.287 . S
C814 C813 1.287 . S
C814 C815 1.524 . S
C814 H817 0.999 . S
C815 H785 0.950 . S
C815 C814 1.524 . S
C815 C816 1.415 . S
C816 H786 0.950 . S
C816 C811 1.363 . S
C816 C815 1.415 . S
H817 C814 0.999 . S
H818 C799 0.913 . S
H819 C837 0.951 . S
H820 C839 0.951 . S
H821 C841 0.950 . S
H822 C842 0.950 . S
H823 C844 0.950 . S
H824 C847 0.950 . S
H825 C848 0.950 . S
H826 C850 0.950 . S
H827 C851 0.950 . S
H828 C852 0.951 . S
H829 C854 0.951 . S
H830 C856 0.950 . S
H831 C857 0.950 . S
H832 C859 0.950 . S
H833 C862 0.950 . S
H834 C863 0.950 . S
H835 C865 0.950 . S
H836 C866 0.950 . S
C837 H819 0.951 . S
C837 C838 1.366 . S
C837 C839 1.388 . S
C838 C837 1.366 . S
C838 C842 1.385 . S
C839 H820 0.951 . S
C839 C837 1.388 . S
C839 C840 1.366 . S
C840 C839 1.366 . S
C840 C841 1.414 . S
C840 C843 1.499 . S
C841 H821 0.950 . S
C841 C840 1.414 . S
C841 C842 1.374 . S
C842 H822 0.950 . S
C842 C838 1.385 . S
C842 C841 1.374 . S
C843 C840 1.499 . S
C843 C844 1.373 . S
C843 C845 1.389 . S
C844 H823 0.950 . S
C844 C843 1.373 . S
C844 C860 1.377 . S
C845 C843 1.389 . S
C845 C846 1.524 . S
C845 C859 1.377 . S
C846 C845 1.524 . S
C846 C847 1.397 . S
C846 C851 1.363 . S
C847 H824 0.950 . S
C847 C846 1.397 . S
C847 C848 1.334 . S
C848 H825 0.950 . S
C848 C847 1.334 . S
C848 C849 1.287 . S
C849 C848 1.287 . S
C849 C850 1.524 . S
C849 H868 0.913 . S
C850 H826 0.950 . S
C850 C849 1.524 . S
C850 C851 1.415 . S
C851 H827 0.950 . S
C851 C846 1.363 . S
C851 C850 1.415 . S
C852 H828 0.951 . S
C852 C853 1.366 . S
C852 C854 1.388 . S
C853 C852 1.366 . S
C853 C857 1.385 . S
C854 H829 0.951 . S
C854 C852 1.388 . S
C854 C855 1.366 . S
C855 C854 1.366 . S
C855 C856 1.414 . S
C855 C858 1.499 . S
C856 H830 0.950 . S
C856 C855 1.414 . S
C856 C857 1.374 . S
C857 H831 0.950 . S
C857 C853 1.385 . S
C857 C856 1.374 . S
C858 C855 1.499 . S
C858 C859 1.373 . S
C858 C860 1.389 . S
C859 H832 0.950 . S
C859 C845 1.377 . S
C859 C858 1.373 . S
C860 C844 1.377 . S
C860 C858 1.389 . S
C860 C861 1.524 . S
C861 C860 1.524 . S
C861 C862 1.397 . S
C861 C866 1.363 . S
C862 H833 0.950 . S
C862 C861 1.397 . S
C862 C863 1.334 . S
C863 H834 0.950 . S
C863 C862 1.334 . S
C863 C864 1.287 . S
C864 C863 1.287 . S
C864 C865 1.524 . S
C864 H867 0.999 . S
C865 H835 0.950 . S
C865 C864 1.524 . S
C865 C866 1.415 . S
C866 H836 0.950 . S
C866 C861 1.363 . S
C866 C865 1.415 . S
H867 C864 0.999 . S
H868 C849 0.913 . S
H869 C887 0.951 . S
H870 C889 0.951 . S
H871 C891 0.950 . S
H872 C892 0.950 . S
H873 C894 0.950 . S
H874 C897 0.950 . S
H875 C898 0.950 . S
H876 C900 0.950 . S
H877 C901 0.950 . S
H878 C902 0.951 . S
H879 C904 0.951 . S
H880 C906 0.950 . S
H881 C907 0.950 . S
H882 C909 0.950 . S
H883 C912 0.950 . S
H884 C913 0.950 . S
H885 C915 0.950 . S
H886 C916 0.950 . S
C887 H869 0.951 . S
C887 C888 1.366 . S
C887 C889 1.388 . S
C888 C887 1.366 . S
C888 C892 1.385 . S
C889 H870 0.951 . S
C889 C887 1.388 . S
C889 C890 1.366 . S
C890 C889 1.366 . S
C890 C891 1.414 . S
C890 C893 1.499 . S
C891 H871 0.950 . S
C891 C890 1.414 . S
C891 C892 1.374 . S
C892 H872 0.950 . S
C892 C888 1.385 . S
C892 C891 1.374 . S
C893 C890 1.499 . S
C893 C894 1.373 . S
C893 C895 1.389 . S
C894 H873 0.950 . S
C894 C893 1.373 . S
C894 C910 1.377 . S
C895 C893 1.389 . S
C895 C896 1.524 . S
C895 C909 1.377 . S
C896 C895 1.524 . S
C896 C897 1.397 . S
C896 C901 1.363 . S
C897 H874 0.950 . S
C897 C896 1.397 . S
C897 C898 1.334 . S
C898 H875 0.950 . S
C898 C897 1.334 . S
C898 C899 1.287 . S
C899 C898 1.287 . S
C899 C900 1.524 . S
C899 H918 0.913 . S
C900 H876 0.950 . S
C900 C899 1.524 . S
C900 C901 1.415 . S
C901 H877 0.950 . S
C901 C896 1.363 . S
C901 C900 1.415 . S
C902 H878 0.951 . S
C902 C903 1.366 . S
C902 C904 1.388 . S
C903 C902 1.366 . S
C903 C907 1.385 . S
C904 H879 0.951 . S
C904 C902 1.388 . S
C904 C905 1.366 . S
C905 C904 1.366 . S
C905 C906 1.414 . S
C905 C908 1.499 . S
C906 H880 0.950 . S
C906 C905 1.414 . S
C906 C907 1.374 . S
C907 H881 0.950 . S
C907 C903 1.385 . S
C907 C906 1.374 . S
C908 C905 1.499 . S
C908 C909 1.373 . S
C908 C910 1.389 . S
C909 H882 0.950 . S
C909 C895 1.377 . S
C909 C908 1.373 . S
C910 C894 1.377 . S
C910 C908 1.389 . S
C910 C911 1.524 . S
C911 C910 1.524 . S
C911 C912 1.397 . S
C911 C916 1.363 . S
C912 H883 0.950 . S
C912 C911 1.397 . S
C912 C913 1.334 . S
C913 H884 0.950 . S
C913 C912 1.334 . S
C913 C914 1.287 . S
C914 C913 1.287 . S
C914 C915 1.524 . S
C914 H917 0.999 . S
C915 H885 0.950 . S
C915 C914 1.524 . S
C915 C916 1.415 . S
C916 H886 0.950 . S
C916 C911 1.363 . S
C916 C915 1.415 . S
H917 C914 0.999 . S
H918 C899 0.913 . S
H919 C937 0.951 . S
H920 C939 0.951 . S
H921 C941 0.950 . S
H922 C942 0.950 . S
H923 C944 0.950 . S
H924 C947 0.950 . S
H925 C948 0.950 . S
H926 C950 0.950 . S
H927 C951 0.950 . S
H928 C952 0.951 . S
H929 C954 0.951 . S
H930 C956 0.950 . S
H931 C957 0.950 . S
H932 C959 0.950 . S
H933 C962 0.950 . S
H934 C963 0.950 . S
H935 C965 0.950 . S
H936 C966 0.950 . S
C937 H919 0.951 . S
C937 C938 1.366 . S
C937 C939 1.388 . S
C938 C937 1.366 . S
C938 C942 1.385 . S
C939 H920 0.951 . S
C939 C937 1.388 . S
C939 C940 1.366 . S
C940 C939 1.366 . S
C940 C941 1.414 . S
C940 C943 1.499 . S
C941 H921 0.950 . S
C941 C940 1.414 . S
C941 C942 1.374 . S
C942 H922 0.950 . S
C942 C938 1.385 . S
C942 C941 1.374 . S
C943 C940 1.499 . S
C943 C944 1.373 . S
C943 C945 1.389 . S
C944 H923 0.950 . S
C944 C943 1.373 . S
C944 C960 1.377 . S
C945 C943 1.389 . S
C945 C946 1.524 . S
C945 C959 1.377 . S
C946 C945 1.524 . S
C946 C947 1.397 . S
C946 C951 1.363 . S
C947 H924 0.950 . S
C947 C946 1.397 . S
C947 C948 1.334 . S
C948 H925 0.950 . S
C948 C947 1.334 . S
C948 C949 1.287 . S
C949 C948 1.287 . S
C949 C950 1.524 . S
C949 H968 0.913 . S
C950 H926 0.950 . S
C950 C949 1.524 . S
C950 C951 1.415 . S
C951 H927 0.950 . S
C951 C946 1.363 . S
C951 C950 1.415 . S
C952 H928 0.951 . S
C952 C953 1.366 . S
C952 C954 1.388 . S
C953 C952 1.366 . S
C953 C957 1.385 . S
C954 H929 0.951 . S
C954 C952 1.388 . S
C954 C955 1.366 . S
C955 C954 1.366 . S
C955 C956 1.414 . S
C955 C958 1.499 . S
C956 H930 0.950 . S
C956 C955 1.414 . S
C956 C957 1.374 . S
C957 H931 0.950 . S
C957 C953 1.385 . S
C957 C956 1.374 . S
C958 C955 1.499 . S
C958 C959 1.373 . S
C958 C960 1.389 . S
C959 H932 0.950 . S
C959 C945 1.377 . S
C959 C958 1.373 . S
C960 C944 1.377 . S
C960 C958 1.389 . S
C960 C961 1.524 . S
C961 C960 1.524 . S
C961 C962 1.397 . S
C961 C966 1.363 . S
C962 H933 0.950 . S
C962 C961 1.397 . S
C962 C963 1.334 . S
C963 H934 0.950 . S
C963 C962 1.334 . S
C963 C964 1.287 . S
C964 C963 1.287 . S
C964 C965 1.524 . S
C964 H967 0.999 . S
C965 H935 0.950 . S
C965 C964 1.524 . S
C965 C966 1.415 . S
C966 H936 0.950 . S
C966 C961 1.363 . S
C966 C965 1.415 . S
H967 C964 0.999 . S
H968 C949 0.913 . S
H969 C987 0.951 . S
H970 C989 0.951 . S
H971 C991 0.950 . S
H972 C992 0.950 . S
H973 C994 0.950 . S
H974 C997 0.950 . S
H975 C998 0.950 . S
H976 C1000 0.950 . S
H977 C1001 0.950 . S
H978 C1002 0.951 . S
H979 C1004 0.951 . S
H980 C1006 0.950 . S
H981 C1007 0.950 . S
H982 C1009 0.950 . S
H983 C1012 0.950 . S
H984 C1013 0.950 . S
H985 C1015 0.950 . S
H986 C1016 0.950 . S
C987 H969 0.951 . S
C987 C988 1.366 . S
C987 C989 1.388 . S
C988 C987 1.366 . S
C988 C992 1.385 . S
C989 H970 0.951 . S
C989 C987 1.388 . S
C989 C990 1.366 . S
C990 C989 1.366 . S
C990 C991 1.414 . S
C990 C993 1.499 . S
C991 H971 0.950 . S
C991 C990 1.414 . S
C991 C992 1.374 . S
C992 H972 0.950 . S
C992 C988 1.385 . S
C992 C991 1.374 . S
C993 C990 1.499 . S
C993 C994 1.373 . S
C993 C995 1.389 . S
C994 H973 0.950 . S
C994 C993 1.373 . S
C994 C1010 1.377 . S
C995 C993 1.389 . S
C995 C996 1.524 . S
C995 C1009 1.377 . S
C996 C995 1.524 . S
C996 C997 1.397 . S
C996 C1001 1.363 . S
C997 H974 0.950 . S
C997 C996 1.397 . S
C997 C998 1.334 . S
C998 H975 0.950 . S
C998 C997 1.334 . S
C998 C999 1.287 . S
C999 C998 1.287 . S
C999 C1000 1.524 . S
C999 H1018 0.913 . S
C1000 H976 0.950 . S
C1000 C999 1.524 . S
C1000 C1001 1.415 . S
C1001 H977 0.950 . S
C1001 C996 1.363 . S
C1001 C1000 1.415 . S
C1002 H978 0.951 . S
C1002 C1003 1.366 . S
C1002 C1004 1.388 . S
C1003 C1002 1.366 . S
C1003 C1007 1.385 . S
C1004 H979 0.951 . S
C1004 C1002 1.388 . S
C1004 C1005 1.366 . S
C1005 C1004 1.366 . S
C1005 C1006 1.414 . S
C1005 C1008 1.499 . S
C1006 H980 0.950 . S
C1006 C1005 1.414 . S
C1006 C1007 1.374 . S
C1007 H981 0.950 . S
C1007 C1003 1.385 . S
C1007 C1006 1.374 . S
C1008 C1005 1.499 . S
C1008 C1009 1.373 . S
C1008 C1010 1.389 . S
C1009 H982 0.950 . S
C1009 C995 1.377 . S
C1009 C1008 1.373 . S
C1010 C994 1.377 . S
C1010 C1008 1.389 . S
C1010 C1011 1.524 . S
C1011 C1010 1.524 . S
C1011 C1012 1.397 . S
C1011 C1016 1.363 . S
C1012 H983 0.950 . S
C1012 C1011 1.397 . S
C1012 C1013 1.334 . S
C1013 H984 0.950 . S
C1013 C1012 1.334 . S
C1013 C1014 1.287 . S
C1014 C1013 1.287 . S
C1014 C1015 1.524 . S
C1014 H1017 0.999 . S
C1015 H985 0.950 . S
C1015 C1014 1.524 . S
C1015 C1016 1.415 . S
C1016 H986 0.950 . S
C1016 C1011 1.363 . S
C1016 C1015 1.415 . S
H1017 C1014 0.999 . S
H1018 C999 0.913 . S
H1019 C1037 0.951 . S
H1020 C1039 0.951 . S
H1021 C1041 0.950 . S
H1022 C1042 0.950 . S
H1023 C1044 0.950 . S
H1024 C1047 0.950 . S
H1025 C1048 0.950 . S
H1026 C1050 0.950 . S
H1027 C1051 0.950 . S
H1028 C1052 0.951 . S
H1029 C1054 0.951 . S
H1030 C1056 0.950 . S
H1031 C1057 0.950 . S
H1032 C1059 0.950 . S
H1033 C1062 0.950 . S
H1034 C1063 0.950 . S
H1035 C1065 0.950 . S
H1036 C1066 0.950 . S
C1037 H1019 0.951 . S
C1037 C1038 1.366 . S
C1037 C1039 1.388 . S
C1038 C1037 1.366 . S
C1038 C1042 1.385 . S
C1039 H1020 0.951 . S
C1039 C1037 1.388 . S
C1039 C1040 1.366 . S
C1040 C1039 1.366 . S
C1040 C1041 1.414 . S
C1040 C1043 1.499 . S
C1041 H1021 0.950 . S
C1041 C1040 1.414 . S
C1041 C1042 1.374 . S
C1042 H1022 0.950 . S
C1042 C1038 1.385 . S
C1042 C1041 1.374 . S
C1043 C1040 1.499 . S
C1043 C1044 1.373 . S
C1043 C1045 1.389 . S
C1044 H1023 0.950 . S
C1044 C1043 1.373 . S
C1044 C1060 1.377 . S
C1045 C1043 1.389 . S
C1045 C1046 1.524 . S
C1045 C1059 1.377 . S
C1046 C1045 1.524 . S
C1046 C1047 1.397 . S
C1046 C1051 1.363 . S
C1047 H1024 0.950 . S
C1047 C1046 1.397 . S
C1047 C1048 1.334 . S
C1048 H1025 0.950 . S
C1048 C1047 1.334 . S
C1048 C1049 1.287 . S
C1049 C1048 1.287 . S
C1049 C1050 1.524 . S
C1049 H1068 0.913 . S
C1050 H1026 0.950 . S
C1050 C1049 1.524 . S
C1050 C1051 1.415 . S
C1051 H1027 0.950 . S
C1051 C1046 1.363 . S
C1051 C1050 1.415 . S
C1052 H1028 0.951 . S
C1052 C1053 1.366 . S
C1052 C1054 1.388 . S
C1053 C1052 1.366 . S
C1053 C1057 1.385 . S
C1054 H1029 0.951 . S
C1054 C1052 1.388 . S
C1054 C1055 1.366 . S
C1055 C1054 1.366 . S
C1055 C1056 1.414 . S
C1055 C1058 1.499 . S
C1056 H1030 0.950 . S
C1056 C1055 1.414 . S
C1056 C1057 1.374 . S
C1057 H1031 0.950 . S
C1057 C1053 1.385 . S
C1057 C1056 1.374 . S
C1058 C1055 1.499 . S
C1058 C1059 1.373 . S
C1058 C1060 1.389 . S
C1059 H1032 0.950 . S
C1059 C1045 1.377 . S
C1059 C1058 1.373 . S
C1060 C1044 1.377 . S
C1060 C1058 1.389 . S
C1060 C1061 1.524 . S
C1061 C1060 1.524 . S
C1061 C1062 1.397 . S
C1061 C1066 1.363 . S
C1062 H1033 0.950 . S
C1062 C1061 1.397 . S
C1062 C1063 1.334 . S
C1063 H1034 0.950 . S
C1063 C1062 1.334 . S
C1063 C1064 1.287 . S
C1064 C1063 1.287 . S
C1064 C1065 1.524 . S
C1064 H1067 0.999 . S
C1065 H1035 0.950 . S
C1065 C1064 1.524 . S
C1065 C1066 1.415 . S
C1066 H1036 0.950 . S
C1066 C1061 1.363 . S
C1066 C1065 1.415 . S
H1067 C1064 0.999 . S
H1068 C1049 0.913 . S
H1069 C1087 0.951 . S
H1070 C1089 0.951 . S
H1071 C1091 0.950 . S
H1072 C1092 0.950 . S
H1073 C1094 0.950 . S
H1074 C1097 0.950 . S
H1075 C1098 0.950 . S
H1076 C1100 0.950 . S
H1077 C1101 0.950 . S
H1078 C1102 0.951 . S
H1079 C1104 0.951 . S
H1080 C1106 0.950 . S
H1081 C1107 0.950 . S
H1082 C1109 0.950 . S
H1083 C1112 0.950 . S
H1084 C1113 0.950 . S
H1085 C1115 0.950 . S
H1086 C1116 0.950 . S
C1087 H1069 0.951 . S
C1087 C1088 1.366 . S
C1087 C1089 1.388 . S
C1088 C1087 1.366 . S
C1088 C1092 1.385 . S
C1089 H1070 0.951 . S
C1089 C1087 1.388 . S
C1089 C1090 1.366 . S
C1090 C1089 1.366 . S
C1090 C1091 1.414 . S
C1090 C1093 1.499 . S
C1091 H1071 0.950 . S
C1091 C1090 1.414 . S
C1091 C1092 1.374 . S
C1092 H1072 0.950 . S
C1092 C1088 1.385 . S
C1092 C1091 1.374 . S
C1093 C1090 1.499 . S
C1093 C1094 1.373 . S
C1093 C1095 1.389 . S
C1094 H1073 0.950 . S
C1094 C1093 1.373 . S
C1094 C1110 1.377 . S
C1095 C1093 1.389 . S
C1095 C1096 1.524 . S
C1095 C1109 1.377 . S
C1096 C1095 1.524 . S
C1096 C1097 1.397 . S
C1096 C1101 1.363 . S
C1097 H1074 0.950 . S
C1097 C1096 1.397 . S
C1097 C1098 1.334 . S
C1098 H1075 0.950 . S
C1098 C1097 1.334 . S
C1098 C1099 1.287 . S
C1099 C1098 1.287 . S
C1099 C1100 1.524 . S
C1099 H1118 0.913 . S
C1100 H1076 0.950 . S
C1100 C1099 1.524 . S
C1100 C1101 1.415 . S
C1101 H1077 0.950 . S
C1101 C1096 1.363 . S
C1101 C1100 1.415 . S
C1102 H1078 0.951 . S
C1102 C1103 1.366 . S
C1102 C1104 1.388 . S
C1103 C1102 1.366 . S
C1103 C1107 1.385 . S
C1104 H1079 0.951 . S
C1104 C1102 1.388 . S
C1104 C1105 1.366 . S
C1105 C1104 1.366 . S
C1105 C1106 1.414 . S
C1105 C1108 1.499 . S
C1106 H1080 0.950 . S
C1106 C1105 1.414 . S
C1106 C1107 1.374 . S
C1107 H1081 0.950 . S
C1107 C1103 1.385 . S
C1107 C1106 1.374 . S
C1108 C1105 1.499 . S
C1108 C1109 1.373 . S
C1108 C1110 1.389 . S
C1109 H1082 0.950 . S
C1109 C1095 1.377 . S
C1109 C1108 1.373 . S
C1110 C1094 1.377 . S
C1110 C1108 1.389 . S
C1110 C1111 1.524 . S
C1111 C1110 1.524 . S
C1111 C1112 1.397 . S
C1111 C1116 1.363 . S
C1112 H1083 0.950 . S
C1112 C1111 1.397 . S
C1112 C1113 1.334 . S
C1113 H1084 0.950 . S
C1113 C1112 1.334 . S
C1113 C1114 1.287 . S
C1114 C1113 1.287 . S
C1114 C1115 1.524 . S
C1114 H1117 0.999 . S
C1115 H1085 0.950 . S
C1115 C1114 1.524 . S
C1115 C1116 1.415 . S
C1116 H1086 0.950 . S
C1116 C1111 1.363 . S
C1116 C1115 1.415 . S
H1117 C1114 0.999 . S
H1118 C1099 0.913 . S
H1119 C1137 0.951 . S
H1120 C1139 0.951 . S
H1121 C1141 0.950 . S
H1122 C1142 0.950 . S
H1123 C1144 0.950 . S
H1124 C1147 0.950 . S
H1125 C1148 0.950 . S
H1126 C1150 0.950 . S
H1127 C1151 0.950 . S
H1128 C1152 0.951 . S
H1129 C1154 0.951 . S
H1130 C1156 0.950 . S
H1131 C1157 0.950 . S
H1132 C1159 0.950 . S
H1133 C1162 0.950 . S
H1134 C1163 0.950 . S
H1135 C1165 0.950 . S
H1136 C1166 0.950 . S
C1137 H1119 0.951 . S
C1137 C1138 1.366 . S
C1137 C1139 1.388 . S
C1138 C1137 1.366 . S
C1138 C1142 1.385 . S
C1139 H1120 0.951 . S
C1139 C1137 1.388 . S
C1139 C1140 1.366 . S
C1140 C1139 1.366 . S
C1140 C1141 1.414 . S
C1140 C1143 1.499 . S
C1141 H1121 0.950 . S
C1141 C1140 1.414 . S
C1141 C1142 1.374 . S
C1142 H1122 0.950 . S
C1142 C1138 1.385 . S
C1142 C1141 1.374 . S
C1143 C1140 1.499 . S
C1143 C1144 1.373 . S
C1143 C1145 1.389 . S
C1144 H1123 0.950 . S
C1144 C1143 1.373 . S
C1144 C1160 1.377 . S
C1145 C1143 1.389 . S
C1145 C1146 1.524 . S
C1145 C1159 1.377 . S
C1146 C1145 1.524 . S
C1146 C1147 1.397 . S
C1146 C1151 1.363 . S
C1147 H1124 0.950 . S
C1147 C1146 1.397 . S
C1147 C1148 1.334 . S
C1148 H1125 0.950 . S
C1148 C1147 1.334 . S
C1148 C1149 1.287 . S
C1149 C1148 1.287 . S
C1149 C1150 1.524 . S
C1149 H1168 0.913 . S
C1150 H1126 0.950 . S
C1150 C1149 1.524 . S
C1150 C1151 1.415 . S
C1151 H1127 0.950 . S
C1151 C1146 1.363 . S
C1151 C1150 1.415 . S
C1152 H1128 0.951 . S
C1152 C1153 1.366 . S
C1152 C1154 1.388 . S
C1153 C1152 1.366 . S
C1153 C1157 1.385 . S
C1154 H1129 0.951 . S
C1154 C1152 1.388 . S
C1154 C1155 1.366 . S
C1155 C1154 1.366 . S
C1155 C1156 1.414 . S
C1155 C1158 1.499 . S
C1156 H1130 0.950 . S
C1156 C1155 1.414 . S
C1156 C1157 1.374 . S
C1157 H1131 0.950 . S
C1157 C1153 1.385 . S
C1157 C1156 1.374 . S
C1158 C1155 1.499 . S
C1158 C1159 1.373 . S
C1158 C1160 1.389 . S
C1159 H1132 0.950 . S
C1159 C1145 1.377 . S
C1159 C1158 1.373 . S
C1160 C1144 1.377 . S
C1160 C1158 1.389 . S
C1160 C1161 1.524 . S
C1161 C1160 1.524 . S
C1161 C1162 1.397 . S
C1161 C1166 1.363 . S
C1162 H1133 0.950 . S
C1162 C1161 1.397 . S
C1162 C1163 1.334 . S
C1163 H1134 0.950 . S
C1163 C1162 1.334 . S
C1163 C1164 1.287 . S
C1164 C1163 1.287 . S
C1164 C1165 1.524 . S
C1164 H1167 0.999 . S
C1165 H1135 0.950 . S
C1165 C1164 1.524 . S
C1165 C1166 1.415 . S
C1166 H1136 0.950 . S
C1166 C1161 1.363 . S
C1166 C1165 1.415 . S
H1167 C1164 0.999 . S
H1168 C1149 0.913 . S
H1169 C1187 0.951 . S
H1170 C1189 0.951 . S
H1171 C1191 0.950 . S
H1172 C1192 0.950 . S
H1173 C1194 0.950 . S
H1174 C1197 0.950 . S
H1175 C1198 0.950 . S
H1176 C1200 0.950 . S
H1177 C1201 0.950 . S
H1178 C1202 0.951 . S
H1179 C1204 0.951 . S
H1180 C1206 0.950 . S
H1181 C1207 0.950 . S
H1182 C1209 0.950 . S
H1183 C1212 0.950 . S
H1184 C1213 0.950 . S
H1185 C1215 0.950 . S
H1186 C1216 0.950 . S
C1187 H1169 0.951 . S
C1187 C1188 1.366 . S
C1187 C1189 1.388 . S
C1188 C1187 1.366 . S
C1188 C1192 1.385 . S
C1189 H1170 0.951 . S
C1189 C1187 1.388 . S
C1189 C1190 1.366 . S
C1190 C1189 1.366 . S
C1190 C1191 1.414 . S
C1190 C1193 1.499 . S
C1191 H1171 0.950 . S
C1191 C1190 1.414 . S
C1191 C1192 1.374 . S
C1192 H1172 0.950 . S
C1192 C1188 1.385 . S
C1192 C1191 1.374 . S
C1193 C1190 1.499 . S
C1193 C1194 1.373 . S
C1193 C1195 1.389 . S
C1194 H1173 0.950 . S
C1194 C1193 1.373 . S
C1194 C1210 1.377 . S
C1195 C1193 1.389 . S
C1195 C1196 1.524 . S
C1195 C1209 1.377 . S
C1196 C1195 1.524 . S
C1196 C1197 1.397 . S
C1196 C1201 1.363 . S
C1197 H1174 0.950 . S
C1197 C1196 1.397 . S
C1197 C1198 1.334 . S
C1198 H1175 0.950 . S
C1198 C1197 1.334 . S
C1198 C1199 1.287 . S
C1199 C1198 1.287 . S
C1199 C1200 1.524 . S
C1199 H1218 0.913 . S
C1200 H1176 0.950 . S
C1200 C1199 1.524 . S
C1200 C1201 1.415 . S
C1201 H1177 0.950 . S
C1201 C1196 1.363 . S
C1201 C1200 1.415 . S
C1202 H1178 0.951 . S
C1202 C1203 1.366 . S
C1202 C1204 1.388 . S
C1203 C1202 1.366 . S
C1203 C1207 1.385 . S
C1204 H1179 0.951 . S
C1204 C1202 1.388 . S
C1204 C1205 1.366 . S
C1205 C1204 1.366 . S
C1205 C1206 1.414 . S
C1205 C1208 1.499 . S
C1206 H1180 0.950 . S
C1206 C1205 1.414 . S
C1206 C1207 1.374 . S
C1207 H1181 0.950 . S
C1207 C1203 1.385 . S
C1207 C1206 1.374 . S
C1208 C1205 1.499 . S
C1208 C1209 1.373 . S
C1208 C1210 1.389 . S
C1209 H1182 0.950 . S
C1209 C1195 1.377 . S
C1209 C1208 1.373 . S
C1210 C1194 1.377 . S
C1210 C1208 1.389 . S
C1210 C1211 1.524 . S
C1211 C1210 1.524 . S
C1211 C1212 1.397 . S
C1211 C1216 1.363 . S
C1212 H1183 0.950 . S
C1212 C1211 1.397 . S
C1212 C1213 1.334 . S
C1213 H1184 0.950 . S
C1213 C1212 1.334 . S
C1213 C1214 1.287 . S
C1214 C1213 1.287 . S
C1214 C1215 1.524 . S
C1214 H1217 0.999 . S
C1215 H1185 0.950 . S
C1215 C1214 1.524 . S
C1215 C1216 1.415 . S
C1216 H1186 0.950 . S
C1216 C1211 1.363 . S
C1216 C1215 1.415 . S
H1217 C1214 0.999 . S
H1218 C1199 0.913 . S
H1219 C1237 0.951 . S
H1220 C1239 0.951 . S
H1221 C1241 0.950 . S
H1222 C1242 0.950 . S
H1223 C1244 0.950 . S
H1224 C1247 0.950 . S
H1225 C1248 0.950 . S
H1226 C1250 0.950 . S
H1227 C1251 0.950 . S
H1228 C1252 0.951 . S
H1229 C1254 0.951 . S
H1230 C1256 0.950 . S
H1231 C1257 0.950 . S
H1232 C1259 0.950 . S
H1233 C1262 0.950 . S
H1234 C1263 0.950 . S
H1235 C1265 0.950 . S
H1236 C1266 0.950 . S
C1237 H1219 0.951 . S
C1237 C1238 1.366 . S
C1237 C1239 1.388 . S
C1238 C1237 1.366 . S
C1238 C1242 1.385 . S
C1239 H1220 0.951 . S
C1239 C1237 1.388 . S
C1239 C1240 1.366 . S
C1240 C1239 1.366 . S
C1240 C1241 1.414 . S
C1240 C1243 1.499 . S
C1241 H1221 0.950 . S
C1241 C1240 1.414 . S
C1241 C1242 1.374 . S
C1242 H1222 0.950 . S
C1242 C1238 1.385 . S
C1242 C1241 1.374 . S
C1243 C1240 1.499 . S
C1243 C1244 1.373 . S
C1243 C1245 1.389 . S
C1244 H1223 0.950 . S
C1244 C1243 1.373 . S
C1244 C1260 1.377 . S
C1245 C1243 1.389 . S
C1245 C1246 1.524 . S
C1245 C1259 1.377 . S
C1246 C1245 1.524 . S
C1246 C1247 1.397 . S
C1246 C1251 1.363 . S
C1247 H1224 0.950 . S
C1247 C1246 1.397 . S
C1247 C1248 1.334 . S
C1248 H1225 0.950 . S
C1248 C1247 1.334 . S
C1248 C1249 1.287 . S
C1249 C1248 1.287 . S
C1249 C1250 1.524 . S
C1249 H1268 0.913 . S
C1250 H1226 0.950 . S
C1250 C1249 1.524 . S
C1250 C1251 1.415 . S
C1251 H1227 0.950 . S
C1251 C1246 1.363 . S
C1251 C1250 1.415 . S
C1252 H1228 0.951 . S
C1252 C1253 1.366 . S
C1252 C1254 1.388 . S
C1253 C1252 1.366 . S
C1253 C1257 1.385 . S
C1254 H1229 0.951 . S
C1254 C1252 1.388 . S
C1254 C1255 1.366 . S
C1255 C1254 1.366 . S
C1255 C1256 1.414 . S
C1255 C1258 1.499 . S
C1256 H1230 0.950 . S
C1256 C1255 1.414 . S
C1256 C1257 1.374 . S
C1257 H1231 0.950 . S
C1257 C1253 1.385 . S
C1257 C1256 1.374 . S
C1258 C1255 1.499 . S
C1258 C1259 1.373 . S
C1258 C1260 1.389 . S
C1259 H1232 0.950 . S
C1259 C1245 1.377 . S
C1259 C1258 1.373 . S
C1260 C1244 1.377 . S
C1260 C1258 1.389 . S
C1260 C1261 1.524 . S
C1261 C1260 1.524 . S
C1261 C1262 1.397 . S
C1261 C1266 1.363 . S
C1262 H1233 0.950 . S
C1262 C1261 1.397 . S
C1262 C1263 1.334 . S
C1263 H1234 0.950 . S
C1263 C1262 1.334 . S
C1263 C1264 1.287 . S
C1264 C1263 1.287 . S
C1264 C1265 1.524 . S
C1264 H1267 0.999 . S
C1265 H1235 0.950 . S
C1265 C1264 1.524 . S
C1265 C1266 1.415 . S
C1266 H1236 0.950 . S
C1266 C1261 1.363 . S
C1266 C1265 1.415 . S
H1267 C1264 0.999 . S
H1268 C1249 0.913 . S
H1269 C1287 0.951 . S
H1270 C1289 0.951 . S
H1271 C1291 0.950 . S
H1272 C1292 0.950 . S
H1273 C1294 0.950 . S
H1274 C1297 0.950 . S
H1275 C1298 0.950 . S
H1276 C1300 0.950 . S
H1277 C1301 0.950 . S
H1278 C1302 0.951 . S
H1279 C1304 0.951 . S
H1280 C1306 0.950 . S
H1281 C1307 0.950 . S
H1282 C1309 0.950 . S
H1283 C1312 0.950 . S
H1284 C1313 0.950 . S
H1285 C1315 0.950 . S
H1286 C1316 0.950 . S
C1287 H1269 0.951 . S
C1287 C1288 1.366 . S
C1287 C1289 1.388 . S
C1288 C1287 1.366 . S
C1288 C1292 1.385 . S
C1289 H1270 0.951 . S
C1289 C1287 1.388 . S
C1289 C1290 1.366 . S
C1290 C1289 1.366 . S
C1290 C1291 1.414 . S
C1290 C1293 1.499 . S
C1291 H1271 0.950 . S
C1291 C1290 1.414 . S
C1291 C1292 1.374 . S
C1292 H1272 0.950 . S
C1292 C1288 1.385 . S
C1292 C1291 1.374 . S
C1293 C1290 1.499 . S
C1293 C1294 1.373 . S
C1293 C1295 1.389 . S
C1294 H1273 0.950 . S
C1294 C1293 1.373 . S
C1294 C1310 1.377 . S
C1295 C1293 1.389 . S
C1295 C1296 1.524 . S
C1295 C1309 1.377 . S
C1296 C1295 1.524 . S
C1296 C1297 1.397 . S
C1296 C1301 1.363 . S
C1297 H1274 0.950 . S
C1297 C1296 1.397 . S
C1297 C1298 1.334 . S
C1298 H1275 0.950 . S
C1298 C1297 1.334 . S
C1298 C1299 1.287 . S
C1299 C1298 1.287 . S
C1299 C1300 1.524 . S
C1299 H1318 0.913 . S
C1300 H1276 0.950 . S
C1300 C1299 1.524 . S
C1300 C1301 1.415 . S
C1301 H1277 0.950 . S
C1301 C1296 1.363 . S
C1301 C1300 1.415 . S
C1302 H1278 0.951 . S
C1302 C1303 1.366 . S
C1302 C1304 1.388 . S
C1303 C1302 1.366 . S
C1303 C1307 1.385 . S
C1304 H1279 0.951 . S
C1304 C1302 1.388 . S
C1304 C1305 1.366 . S
C1305 C1304 1.366 . S
C1305 C1306 1.414 . S
C1305 C1308 1.499 . S
C1306 H1280 0.950 . S
C1306 C1305 1.414 . S
C1306 C1307 1.374 . S
C1307 H1281 0.950 . S
C1307 C1303 1.385 . S
C1307 C1306 1.374 . S
C1308 C1305 1.499 . S
C1308 C1309 1.373 . S
C1308 C1310 1.389 . S
C1309 H1282 0.950 . S
C1309 C1295 1.377 . S
C1309 C1308 1.373 . S
C1310 C1294 1.377 . S
C1310 C1308 1.389 . S
C1310 C1311 1.524 . S
C1311 C1310 1.524 . S
C1311 C1312 1.397 . S
C1311 C1316 1.363 . S
C1312 H1283 0.950 . S
C1312 C1311 1.397 . S
C1312 C1313 1.334 . S
C1313 H1284 0.950 . S
C1313 C1312 1.334 . S
C1313 C1314 1.287 . S
C1314 C1313 1.287 . S
C1314 C1315 1.524 . S
C1314 H1317 0.999 . S
C1315 H1285 0.950 . S
C1315 C1314 1.524 . S
C1315 C1316 1.415 . S
C1316 H1286 0.950 . S
C1316 C1311 1.363 . S
C1316 C1315 1.415 . S
H1317 C1314 0.999 . S
H1318 C1299 0.913 . S
H1319 C1337 0.951 . S
H1320 C1339 0.951 . S
H1321 C1341 0.950 . S
H1322 C1342 0.950 . S
H1323 C1344 0.950 . S
H1324 C1347 0.950 . S
H1325 C1348 0.950 . S
H1326 C1350 0.950 . S
H1327 C1351 0.950 . S
H1328 C1352 0.951 . S
H1329 C1354 0.951 . S
H1330 C1356 0.950 . S
H1331 C1357 0.950 . S
H1332 C1359 0.950 . S
H1333 C1362 0.950 . S
H1334 C1363 0.950 . S
H1335 C1365 0.950 . S
H1336 C1366 0.950 . S
C1337 H1319 0.951 . S
C1337 C1338 1.366 . S
C1337 C1339 1.388 . S
C1338 C1337 1.366 . S
C1338 C1342 1.385 . S
C1339 H1320 0.951 . S
C1339 C1337 1.388 . S
C1339 C1340 1.366 . S
C1340 C1339 1.366 . S
C1340 C1341 1.414 . S
C1340 C1343 1.499 . S
C1341 H1321 0.950 . S
C1341 C1340 1.414 . S
C1341 C1342 1.374 . S
C1342 H1322 0.950 . S
C1342 C1338 1.385 . S
C1342 C1341 1.374 . S
C1343 C1340 1.499 . S
C1343 C1344 1.373 . S
C1343 C1345 1.389 . S
C1344 H1323 0.950 . S
C1344 C1343 1.373 . S
C1344 C1360 1.377 . S
C1345 C1343 1.389 . S
C1345 C1346 1.524 . S
C1345 C1359 1.377 . S
C1346 C1345 1.524 . S
C1346 C1347 1.397 . S
C1346 C1351 1.363 . S
C1347 H1324 0.950 . S
C1347 C1346 1.397 . S
C1347 C1348 1.334 . S
C1348 H1325 0.950 . S
C1348 C1347 1.334 . S
C1348 C1349 1.287 . S
C1349 C1348 1.287 . S
C1349 C1350 1.524 . S
C1349 H1368 0.913 . S
C1350 H1326 0.950 . S
C1350 C1349 1.524 . S
C1350 C1351 1.415 . S
C1351 H1327 0.950 . S
C1351 C1346 1.363 . S
C1351 C1350 1.415 . S
C1352 H1328 0.951 . S
C1352 C1353 1.366 . S
C1352 C1354 1.388 . S
C1353 C1352 1.366 . S
C1353 C1357 1.385 . S
C1354 H1329 0.951 . S
C1354 C1352 1.388 . S
C1354 C1355 1.366 . S
C1355 C1354 1.366 . S
C1355 C1356 1.414 . S
C1355 C1358 1.499 . S
C1356 H1330 0.950 . S
C1356 C1355 1.414 . S
C1356 C1357 1.374 . S
C1357 H1331 0.950 . S
C1357 C1353 1.385 . S
C1357 C1356 1.374 . S
C1358 C1355 1.499 . S
C1358 C1359 1.373 . S
C1358 C1360 1.389 . S
C1359 H1332 0.950 . S
C1359 C1345 1.377 . S
C1359 C1358 1.373 . S
C1360 C1344 1.377 . S
C1360 C1358 1.389 . S
C1360 C1361 1.524 . S
C1361 C1360 1.524 . S
C1361 C1362 1.397 . S
C1361 C1366 1.363 . S
C1362 H1333 0.950 . S
C1362 C1361 1.397 . S
C1362 C1363 1.334 . S
C1363 H1334 0.950 . S
C1363 C1362 1.334 . S
C1363 C1364 1.287 . S
C1364 C1363 1.287 . S
C1364 C1365 1.524 . S
C1364 H1367 0.999 . S
C1365 H1335 0.950 . S
C1365 C1364 1.524 . S
C1365 C1366 1.415 . S
C1366 H1336 0.950 . S
C1366 C1361 1.363 . S
C1366 C1365 1.415 . S
H1367 C1364 0.999 . S
H1368 C1349 0.913 . S
H1369 C1387 0.951 . S
H1370 C1389 0.951 . S
H1371 C1391 0.950 . S
H1372 C1392 0.950 . S
H1373 C1394 0.950 . S
H1374 C1397 0.950 . S
H1375 C1398 0.950 . S
H1376 C1400 0.950 . S
H1377 C1401 0.950 . S
H1378 C1402 0.951 . S
H1379 C1404 0.951 . S
H1380 C1406 0.950 . S
H1381 C1407 0.950 . S
H1382 C1409 0.950 . S
H1383 C1412 0.950 . S
H1384 C1413 0.950 . S
H1385 C1415 0.950 . S
H1386 C1416 0.950 . S
C1387 H1369 0.951 . S
C1387 C1388 1.366 . S
C1387 C1389 1.388 . S
C1388 C1387 1.366 . S
C1388 C1392 1.385 . S
C1389 H1370 0.951 . S
C1389 C1387 1.388 . S
C1389 C1390 1.366 . S
C1390 C1389 1.366 . S
C1390 C1391 1.414 . S
C1390 C1393 1.499 . S
C1391 H1371 0.950 . S
C1391 C1390 1.414 . S
C1391 C1392 1.374 . S
C1392 H1372 0.950 . S
C1392 C1388 1.385 . S
C1392 C1391 1.374 . S
C1393 C1390 1.499 . S
C1393 C1394 1.373 . S
C1393 C1395 1.389 . S
C1394 H1373 0.950 . S
C1394 C1393 1.373 . S
C1394 C1410 1.377 . S
C1395 C1393 1.389 . S
C1395 C1396 1.524 . S
C1395 C1409 1.377 . S
C1396 C1395 1.524 . S
C1396 C1397 1.397 . S
C1396 C1401 1.363 . S
C1397 H1374 0.950 . S
C1397 C1396 1.397 . S
C1397 C1398 1.334 . S
C1398 H1375 0.950 . S
C1398 C1397 1.334 . S
C1398 C1399 1.287 . S
C1399 C1398 1.287 . S
C1399 C1400 1.524 . S
C1399 H1418 0.913 . S
C1400 H1376 0.950 . S
C1400 C1399 1.524 . S
C1400 C1401 1.415 . S
C1401 H1377 0.950 . S
C1401 C1396 1.363 . S
C1401 C1400 1.415 . S
C1402 H1378 0.951 . S
C1402 C1403 1.366 . S
C1402 C1404 1.388 . S
C1403 C1402 1.366 . S
C1403 C1407 1.385 . S
C1404 H1379 0.951 . S
C1404 C1402 1.388 . S
C1404 C1405 1.366 . S
C1405 C1404 1.366 . S
C1405 C1406 1.414 . S
C1405 C1408 1.499 . S
C1406 H1380 0.950 . S
C1406 C1405 1.414 . S
C1406 C1407 1.374 . S
C1407 H1381 0.950 . S
C1407 C1403 1.385 . S
C1407 C1406 1.374 . S
C1408 C1405 1.499 . S
C1408 C1409 1.373 . S
C1408 C1410 1.389 . S
C1409 H1382 0.950 . S
C1409 C1395 1.377 . S
C1409 C1408 1.373 . S
C1410 C1394 1.377 . S
C1410 C1408 1.389 . S
C1410 C1411 1.524 . S
C1411 C1410 1.524 . S
C1411 C1412 1.397 . S
C1411 C1416 1.363 . S
C1412 H1383 0.950 . S
C1412 C1411 1.397 . S
C1412 C1413 1.334 . S
C1413 H1384 0.950 . S
C1413 C1412 1.334 . S
C1413 C1414 1.287 . S
C1414 C1413 1.287 . S
C1414 C1415 1.524 . S
C1414 H1417 0.999 . S
C1415 H1385 0.950 . S
C1415 C1414 1.524 . S
C1415 C1416 1.415 . S
C1416 H1386 0.950 . S
C1416 C1411 1.363 . S
C1416 C1415 1.415 . S
H1417 C1414 0.999 . S
H1418 C1399 0.913 . S
H1419 C1437 0.951 . S
H1420 C1439 0.951 . S
H1421 C1441 0.950 . S
H1422 C1442 0.950 . S
H1423 C1444 0.950 . S
H1424 C1447 0.950 . S
H1425 C1448 0.950 . S
H1426 C1450 0.950 . S
H1427 C1451 0.950 . S
H1428 C1452 0.951 . S
H1429 C1454 0.951 . S
H1430 C1456 0.950 . S
H1431 C1457 0.950 . S
H1432 C1459 0.950 . S
H1433 C1462 0.950 . S
H1434 C1463 0.950 . S
H1435 C1465 0.950 . S
H1436 C1466 0.950 . S
C1437 H1419 0.951 . S
C1437 C1438 1.366 . S
C1437 C1439 1.388 . S
C1438 C1437 1.366 . S
C1438 C1442 1.385 . S
C1439 H1420 0.951 . S
C1439 C1437 1.388 . S
C1439 C1440 1.366 . S
C1440 C1439 1.366 . S
C1440 C1441 1.414 . S
C1440 C1443 1.499 . S
C1441 H1421 0.950 . S
C1441 C1440 1.414 . S
C1441 C1442 1.374 . S
C1442 H1422 0.950 . S
C1442 C1438 1.385 . S
C1442 C1441 1.374 . S
C1443 C1440 1.499 . S
C1443 C1444 1.373 . S
C1443 C1445 1.389 . S
C1444 H1423 0.950 . S
C1444 C1443 1.373 . S
C1444 C1460 1.377 . S
C1445 C1443 1.389 . S
C1445 C1446 1.524 . S
C1445 C1459 1.377 . S
C1446 C1445 1.524 . S
C1446 C1447 1.397 . S
C1446 C1451 1.363 . S
C1447 H1424 0.950 . S
C1447 C1446 1.397 . S
C1447 C1448 1.334 . S
C1448 H1425 0.950 . S
C1448 C1447 1.334 . S
C1448 C1449 1.287 . S
C1449 C1448 1.287 . S
C1449 C1450 1.524 . S
C1449 H1468 0.913 . S
C1450 H1426 0.950 . S
C1450 C1449 1.524 . S
C1450 C1451 1.415 . S
C1451 H1427 0.950 . S
C1451 C1446 1.363 . S
C1451 C1450 1.415 . S
C1452 H1428 0.951 . S
C1452 C1453 1.366 . S
C1452 C1454 1.388 . S
C1453 C1452 1.366 . S
C1453 C1457 1.385 . S
C1454 H1429 0.951 . S
C1454 C1452 1.388 . S
C1454 C1455 1.366 . S
C1455 C1454 1.366 . S
C1455 C1456 1.414 . S
C1455 C1458 1.499 . S
C1456 H1430 0.950 . S
C1456 C1455 1.414 . S
C1456 C1457 1.374 . S
C1457 H1431 0.950 . S
C1457 C1453 1.385 . S
C1457 C1456 1.374 . S
C1458 C1455 1.499 . S
C1458 C1459 1.373 . S
C1458 C1460 1.389 . S
C1459 H1432 0.950 . S
C1459 C1445 1.377 . S
C1459 C1458 1.373 . S
C1460 C1444 1.377 . S
C1460 C1458 1.389 . S
C1460 C1461 1.524 . S
C1461 C1460 1.524 . S
C1461 C1462 1.397 . S
C1461 C1466 1.363 . S
C1462 H1433 0.950 . S
C1462 C1461 1.397 . S
C1462 C1463 1.334 . S
C1463 H1434 0.950 . S
C1463 C1462 1.334 . S
C1463 C1464 1.287 . S
C1464 C1463 1.287 . S
C1464 C1465 1.524 . S
C1464 H1467 0.999 . S
C1465 H1435 0.950 . S
C1465 C1464 1.524 . S
C1465 C1466 1.415 . S
C1466 H1436 0.950 . S
C1466 C1461 1.363 . S
C1466 C1465 1.415 . S
H1467 C1464 0.999 . S
H1468 C1449 0.913 . S
H1469 C1487 0.951 . S
H1470 C1489 0.951 . S
H1471 C1491 0.950 . S
H1472 C1492 0.950 . S
H1473 C1494 0.950 . S
H1474 C1497 0.950 . S
H1475 C1498 0.950 . S
H1476 C1500 0.950 . S
H1477 C1501 0.950 . S
H1478 C1502 0.951 . S
H1479 C1504 0.951 . S
H1480 C1506 0.950 . S
H1481 C1507 0.950 . S
H1482 C1509 0.950 . S
H1483 C1512 0.950 . S
H1484 C1513 0.950 . S
H1485 C1515 0.950 . S
H1486 C1516 0.950 . S
C1487 H1469 0.951 . S
C1487 C1488 1.366 . S
C1487 C1489 1.388 . S
C1488 C1487 1.366 . S
C1488 C1492 1.385 . S
C1489 H1470 0.951 . S
C1489 C1487 1.388 . S
C1489 C1490 1.366 . S
C1490 C1489 1.366 . S
C1490 C1491 1.414 . S
C1490 C1493 1.499 . S
C1491 H1471 0.950 . S
C1491 C1490 1.414 . S
C1491 C1492 1.374 . S
C1492 H1472 0.950 . S
C1492 C1488 1.385 . S
C1492 C1491 1.374 . S
C1493 C1490 1.499 . S
C1493 C1494 1.373 . S
C1493 C1495 1.389 . S
C1494 H1473 0.950 . S
C1494 C1493 1.373 . S
C1494 C1510 1.377 . S
C1495 C1493 1.389 . S
C1495 C1496 1.524 . S
C1495 C1509 1.377 . S
C1496 C1495 1.524 . S
C1496 C1497 1.397 . S
C1496 C1501 1.363 . S
C1497 H1474 0.950 . S
C1497 C1496 1.397 . S
C1497 C1498 1.334 . S
C1498 H1475 0.950 . S
C1498 C1497 1.334 . S
C1498 C1499 1.287 . S
C1499 C1498 1.287 . S
C1499 C1500 1.524 . S
C1499 H1518 0.913 . S
C1500 H1476 0.950 . S
C1500 C1499 1.524 . S
C1500 C1501 1.415 . S
C1501 H1477 0.950 . S
C1501 C1496 1.363 . S
C1501 C1500 1.415 . S
C1502 H1478 0.951 . S
C1502 C1503 1.366 . S
C1502 C1504 1.388 . S
C1503 C1502 1.366 . S
C1503 C1507 1.385 . S
C1504 H1479 0.951 . S
C1504 C1502 1.388 . S
C1504 C1505 1.366 . S
C1505 C1504 1.366 . S
C1505 C1506 1.414 . S
C1505 C1508 1.499 . S
C1506 H1480 0.950 . S
C1506 C1505 1.414 . S
C1506 C1507 1.374 . S
C1507 H1481 0.950 . S
C1507 C1503 1.385 . S
C1507 C1506 1.374 . S
C1508 C1505 1.499 . S
C1508 C1509 1.373 . S
C1508 C1510 1.389 . S
C1509 H1482 0.950 . S
C1509 C1495 1.377 . S
C1509 C1508 1.373 . S
C1510 C1494 1.377 . S
C1510 C1508 1.389 . S
C1510 C1511 1.524 . S
C1511 C1510 1.524 . S
C1511 C1512 1.397 . S
C1511 C1516 1.363 . S
C1512 H1483 0.950 . S
C1512 C1511 1.397 . S
C1512 C1513 1.334 . S
C1513 H1484 0.950 . S
C1513 C1512 1.334 . S
C1513 C1514 1.287 . S
C1514 C1513 1.287 . S
C1514 C1515 1.524 . S
C1514 H1517 0.999 . S
C1515 H1485 0.950 . S
C1515 C1514 1.524 . S
C1515 C1516 1.415 . S
C1516 H1486 0.950 . S
C1516 C1511 1.363 . S
C1516 C1515 1.415 . S
H1517 C1514 0.999 . S
H1518 C1499 0.913 . S
H1519 C1537 0.951 . S
H1520 C1539 0.951 . S
H1521 C1541 0.950 . S
H1522 C1542 0.950 . S
H1523 C1544 0.950 . S
H1524 C1547 0.950 . S
H1525 C1548 0.950 . S
H1526 C1550 0.950 . S
H1527 C1551 0.950 . S
H1528 C1552 0.951 . S
H1529 C1554 0.951 . S
H1530 C1556 0.950 . S
H1531 C1557 0.950 . S
H1532 C1559 0.950 . S
H1533 C1562 0.950 . S
H1534 C1563 0.950 . S
H1535 C1565 0.950 . S
H1536 C1566 0.950 . S
C1537 H1519 0.951 . S
C1537 C1538 1.366 . S
C1537 C1539 1.388 . S
C1538 C1537 1.366 . S
C1538 C1542 1.385 . S
C1539 H1520 0.951 . S
C1539 C1537 1.388 . S
C1539 C1540 1.366 . S
C1540 C1539 1.366 . S
C1540 C1541 1.414 . S
C1540 C1543 1.499 . S
C1541 H1521 0.950 . S
C1541 C1540 1.414 . S
C1541 C1542 1.374 . S
C1542 H1522 0.950 . S
C1542 C1538 1.385 . S
C1542 C1541 1.374 . S
C1543 C1540 1.499 . S
C1543 C1544 1.373 . S
C1543 C1545 1.389 . S
C1544 H1523 0.950 . S
C1544 C1543 1.373 . S
C1544 C1560 1.377 . S
C1545 C1543 1.389 . S
C1545 C1546 1.524 . S
C1545 C1559 1.377 . S
C1546 C1545 1.524 . S
C1546 C1547 1.397 . S
C1546 C1551 1.363 . S
C1547 H1524 0.950 . S
C1547 C1546 1.397 . S
C1547 C1548 1.334 . S
C1548 H1525 0.950 . S
C1548 C1547 1.334 . S
C1548 C1549 1.287 . S
C1549 C1548 1.287 . S
C1549 C1550 1.524 . S
C1549 H1568 0.913 . S
C1550 H1526 0.950 . S
C1550 C1549 1.524 . S
C1550 C1551 1.415 . S
C1551 H1527 0.950 . S
C1551 C1546 1.363 . S
C1551 C1550 1.415 . S
C1552 H1528 0.951 . S
C1552 C1553 1.366 . S
C1552 C1554 1.388 . S
C1553 C1552 1.366 . S
C1553 C1557 1.385 . S
C1554 H1529 0.951 . S
C1554 C1552 1.388 . S
C1554 C1555 1.366 . S
C1555 C1554 1.366 . S
C1555 C1556 1.414 . S
C1555 C1558 1.499 . S
C1556 H1530 0.950 . S
C1556 C1555 1.414 . S
C1556 C1557 1.374 . S
C1557 H1531 0.950 . S
C1557 C1553 1.385 . S
C1557 C1556 1.374 . S
C1558 C1555 1.499 . S
C1558 C1559 1.373 . S
C1558 C1560 1.389 . S
C1559 H1532 0.950 . S
C1559 C1545 1.377 . S
C1559 C1558 1.373 . S
C1560 C1544 1.377 . S
C1560 C1558 1.389 . S
C1560 C1561 1.524 . S
C1561 C1560 1.524 . S
C1561 C1562 1.397 . S
C1561 C1566 1.363 . S
C1562 H1533 0.950 . S
C1562 C1561 1.397 . S
C1562 C1563 1.334 . S
C1563 H1534 0.950 . S
C1563 C1562 1.334 . S
C1563 C1564 1.287 . S
C1564 C1563 1.287 . S
C1564 C1565 1.524 . S
C1564 H1567 0.999 . S
C1565 H1535 0.950 . S
C1565 C1564 1.524 . S
C1565 C1566 1.415 . S
C1566 H1536 0.950 . S
C1566 C1561 1.363 . S
C1566 C1565 1.415 . S
H1567 C1564 0.999 . S
H1568 C1549 0.913 . S
H1569 C1587 0.951 . S
H1570 C1589 0.951 . S
H1571 C1591 0.950 . S
H1572 C1592 0.950 . S
H1573 C1594 0.950 . S
H1574 C1597 0.950 . S
H1575 C1598 0.950 . S
H1576 C1600 0.950 . S
H1577 C1601 0.950 . S
H1578 C1602 0.951 . S
H1579 C1604 0.951 . S
H1580 C1606 0.950 . S
H1581 C1607 0.950 . S
H1582 C1609 0.950 . S
H1583 C1612 0.950 . S
H1584 C1613 0.950 . S
H1585 C1615 0.950 . S
H1586 C1616 0.950 . S
C1587 H1569 0.951 . S
C1587 C1588 1.366 . S
C1587 C1589 1.388 . S
C1588 C1587 1.366 . S
C1588 C1592 1.385 . S
C1589 H1570 0.951 . S
C1589 C1587 1.388 . S
C1589 C1590 1.366 . S
C1590 C1589 1.366 . S
C1590 C1591 1.414 . S
C1590 C1593 1.499 . S
C1591 H1571 0.950 . S
C1591 C1590 1.414 . S
C1591 C1592 1.374 . S
C1592 H1572 0.950 . S
C1592 C1588 1.385 . S
C1592 C1591 1.374 . S
C1593 C1590 1.499 . S
C1593 C1594 1.373 . S
C1593 C1595 1.389 . S
C1594 H1573 0.950 . S
C1594 C1593 1.373 . S
C1594 C1610 1.377 . S
C1595 C1593 1.389 . S
C1595 C1596 1.524 . S
C1595 C1609 1.377 . S
C1596 C1595 1.524 . S
C1596 C1597 1.397 . S
C1596 C1601 1.363 . S
C1597 H1574 0.950 . S
C1597 C1596 1.397 . S
C1597 C1598 1.334 . S
C1598 H1575 0.950 . S
C1598 C1597 1.334 . S
C1598 C1599 1.287 . S
C1599 C1598 1.287 . S
C1599 C1600 1.524 . S
C1599 H1618 0.913 . S
C1600 H1576 0.950 . S
C1600 C1599 1.524 . S
C1600 C1601 1.415 . S
C1601 H1577 0.950 . S
C1601 C1596 1.363 . S
C1601 C1600 1.415 . S
C1602 H1578 0.951 . S
C1602 C1603 1.366 . S
C1602 C1604 1.388 . S
C1603 C1602 1.366 . S
C1603 C1607 1.385 . S
C1604 H1579 0.951 . S
C1604 C1602 1.388 . S
C1604 C1605 1.366 . S
C1605 C1604 1.366 . S
C1605 C1606 1.414 . S
C1605 C1608 1.499 . S
C1606 H1580 0.950 . S
C1606 C1605 1.414 . S
C1606 C1607 1.374 . S
C1607 H1581 0.950 . S
C1607 C1603 1.385 . S
C1607 C1606 1.374 . S
C1608 C1605 1.499 . S
C1608 C1609 1.373 . S
C1608 C1610 1.389 . S
C1609 H1582 0.950 . S
C1609 C1595 1.377 . S
C1609 C1608 1.373 . S
C1610 C1594 1.377 . S
C1610 C1608 1.389 . S
C1610 C1611 1.524 . S
C1611 C1610 1.524 . S
C1611 C1612 1.397 . S
C1611 C1616 1.363 . S
C1612 H1583 0.950 . S
C1612 C1611 1.397 . S
C1612 C1613 1.334 . S
C1613 H1584 0.950 . S
C1613 C1612 1.334 . S
C1613 C1614 1.287 . S
C1614 C1613 1.287 . S
C1614 C1615 1.524 . S
C1614 H1617 0.999 . S
C1615 H1585 0.950 . S
C1615 C1614 1.524 . S
C1615 C1616 1.415 . S
C1616 H1586 0.950 . S
C1616 C1611 1.363 . S
C1616 C1615 1.415 . S
H1617 C1614 0.999 . S
H1618 C1599 0.913 . S
C453 C344 0.980 . S
C438 C15 1.016 . S
C503 C380 1.601 . S
C488 C55 1.689 . S
C553 C345 1.450 . S
C538 C101 1.464 . S
C603 C375 1.583 . S
C588 C141 1.587 . S
C653 C342 1.410 . S
C638 C162 1.473 . S
C688 C215 1.767 . S
C703 C378 1.772 . S
C738 C261 1.106 . S
C753 C347 1.050 . S
C803 C377 1.410 . S
C788 C282 1.430 . S
C853 C381 1.461 . S
C838 C2 1.502 . S
C903 C346 1.447 . S
C888 C61 1.456 . S
C953 C374 1.765 . S
C938 C95 1.756 . S
C1003 C343 1.009 . S
C988 C122 1.061 . S
C1053 C376 1.654 . S
C1038 C181 1.765 . S
C1088 C202 1.474 . S
C1103 C341 1.458 . S
C1138 C242 1.543 . S
C1153 C379 1.549 . S
C1203 C348 0.919 . S
C1188 C295 0.947 . S
C1253 C410 1.839 . S
C1238 C21 1.941 . S
C1288 C175 1.974 . S
C1303 C413 1.859 . S
C1353 C412 1.829 . S
C1338 C221 1.906 . S
C1388 C255 2.188 . S
C1403 C411 2.184 . S
C1453 C414 1.791 . S
C1438 C301 1.868 . S
C1488 C82 1.789 . S
C1503 C408 1.719 . S
C1553 C407 2.206 . S
C1538 C135 2.211 . S
C1588 C42 1.955 . S
C1603 C409 1.899 . S
