# Generated by pormake.
# Topology gar, (4,6)-cn, num edge types: 1
# Building blocks:
#     Node 0, Type 0, BuildingBlock: QUQFOY_clean_sbu_3, # of connection points: 4
#     Node 1, Type 0, BuildingBlock: QUQFOY_clean_sbu_3, # of connection points: 4
#     Node 2, Type 0, BuildingBlock: QUQFOY_clean_sbu_3, # of connection points: 4
#     Node 3, Type 0, BuildingBlock: QUQFOY_clean_sbu_3, # of connection points: 4
#     Node 4, Type 0, BuildingBlock: QUQFOY_clean_sbu_3, # of connection points: 4
#     Node 5, Type 0, BuildingBlock: QUQFOY_clean_sbu_3, # of connection points: 4
#     Node 6, Type 0, BuildingBlock: QUQFOY_clean_sbu_3, # of connection points: 4
#     Node 7, Type 0, BuildingBlock: QUQFOY_clean_sbu_3, # of connection points: 4
#     Node 8, Type 0, BuildingBlock: QUQFOY_clean_sbu_3, # of connection points: 4
#     Node 9, Type 0, BuildingBlock: QUQFOY_clean_sbu_3, # of connection points: 4
#     Node 10, Type 0, BuildingBlock: QUQFOY_clean_sbu_3, # of connection points: 4
#     Node 11, Type 0, BuildingBlock: QUQFOY_clean_sbu_3, # of connection points: 4
#     Node 12, Type 0, BuildingBlock: QUQFOY_clean_sbu_3, # of connection points: 4
#     Node 13, Type 0, BuildingBlock: QUQFOY_clean_sbu_3, # of connection points: 4
#     Node 14, Type 0, BuildingBlock: QUQFOY_clean_sbu_3, # of connection points: 4
#     Node 15, Type 0, BuildingBlock: QUQFOY_clean_sbu_3, # of connection points: 4
#     Node 16, Type 0, BuildingBlock: QUQFOY_clean_sbu_3, # of connection points: 4
#     Node 17, Type 0, BuildingBlock: QUQFOY_clean_sbu_3, # of connection points: 4
#     Node 18, Type 0, BuildingBlock: QUQFOY_clean_sbu_3, # of connection points: 4
#     Node 19, Type 0, BuildingBlock: QUQFOY_clean_sbu_3, # of connection points: 4
#     Node 20, Type 0, BuildingBlock: QUQFOY_clean_sbu_3, # of connection points: 4
#     Node 21, Type 0, BuildingBlock: QUQFOY_clean_sbu_3, # of connection points: 4
#     Node 22, Type 0, BuildingBlock: QUQFOY_clean_sbu_3, # of connection points: 4
#     Node 23, Type 0, BuildingBlock: QUQFOY_clean_sbu_3, # of connection points: 4
#     Node 24, Type 1, BuildingBlock: CUKXOW_clean_sbu_0, # of connection points: 6
#     Node 25, Type 1, BuildingBlock: CUKXOW_clean_sbu_0, # of connection points: 6
#     Node 26, Type 1, BuildingBlock: CUKXOW_clean_sbu_0, # of connection points: 6
#     Node 27, Type 1, BuildingBlock: CUKXOW_clean_sbu_0, # of connection points: 6
#     Node 28, Type 1, BuildingBlock: CUKXOW_clean_sbu_0, # of connection points: 6
#     Node 29, Type 1, BuildingBlock: CUKXOW_clean_sbu_0, # of connection points: 6
#     Node 30, Type 1, BuildingBlock: CUKXOW_clean_sbu_0, # of connection points: 6
#     Node 31, Type 1, BuildingBlock: CUKXOW_clean_sbu_0, # of connection points: 6
#     Node 32, Type 1, BuildingBlock: CUKXOW_clean_sbu_0, # of connection points: 6
#     Node 33, Type 1, BuildingBlock: CUKXOW_clean_sbu_0, # of connection points: 6
#     Node 34, Type 1, BuildingBlock: CUKXOW_clean_sbu_0, # of connection points: 6
#     Node 35, Type 1, BuildingBlock: CUKXOW_clean_sbu_0, # of connection points: 6
#     Node 36, Type 1, BuildingBlock: CUKXOW_clean_sbu_0, # of connection points: 6
#     Node 37, Type 1, BuildingBlock: CUKXOW_clean_sbu_0, # of connection points: 6
#     Node 38, Type 1, BuildingBlock: CUKXOW_clean_sbu_0, # of connection points: 6
#     Node 39, Type 1, BuildingBlock: CUKXOW_clean_sbu_0, # of connection points: 6
#     Edge 40, Type (0, 1), BuildingBlock: ZUJKAS_clean_linker_0, # of connection points: 2
#     Edge 41, Type (0, 1), BuildingBlock: ZUJKAS_clean_linker_0, # of connection points: 2
#     Edge 42, Type (0, 1), BuildingBlock: ZUJKAS_clean_linker_0, # of connection points: 2
#     Edge 43, Type (0, 1), BuildingBlock: ZUJKAS_clean_linker_0, # of connection points: 2
#     Edge 44, Type (0, 1), BuildingBlock: ZUJKAS_clean_linker_0, # of connection points: 2
#     Edge 45, Type (0, 1), BuildingBlock: ZUJKAS_clean_linker_0, # of connection points: 2
#     Edge 46, Type (0, 1), BuildingBlock: ZUJKAS_clean_linker_0, # of connection points: 2
#     Edge 47, Type (0, 1), BuildingBlock: ZUJKAS_clean_linker_0, # of connection points: 2
#     Edge 48, Type (0, 1), BuildingBlock: ZUJKAS_clean_linker_0, # of connection points: 2
#     Edge 49, Type (0, 1), BuildingBlock: ZUJKAS_clean_linker_0, # of connection points: 2
#     Edge 50, Type (0, 1), BuildingBlock: ZUJKAS_clean_linker_0, # of connection points: 2
#     Edge 51, Type (0, 1), BuildingBlock: ZUJKAS_clean_linker_0, # of connection points: 2
#     Edge 52, Type (0, 1), BuildingBlock: ZUJKAS_clean_linker_0, # of connection points: 2
#     Edge 53, Type (0, 1), BuildingBlock: ZUJKAS_clean_linker_0, # of connection points: 2
#     Edge 54, Type (0, 1), BuildingBlock: ZUJKAS_clean_linker_0, # of connection points: 2
#     Edge 55, Type (0, 1), BuildingBlock: ZUJKAS_clean_linker_0, # of connection points: 2
#     Edge 56, Type (0, 1), BuildingBlock: ZUJKAS_clean_linker_0, # of connection points: 2
#     Edge 57, Type (0, 1), BuildingBlock: ZUJKAS_clean_linker_0, # of connection points: 2
#     Edge 58, Type (0, 1), BuildingBlock: ZUJKAS_clean_linker_0, # of connection points: 2
#     Edge 59, Type (0, 1), BuildingBlock: ZUJKAS_clean_linker_0, # of connection points: 2
#     Edge 60, Type (0, 1), BuildingBlock: ZUJKAS_clean_linker_0, # of connection points: 2
#     Edge 61, Type (0, 1), BuildingBlock: ZUJKAS_clean_linker_0, # of connection points: 2
#     Edge 62, Type (0, 1), BuildingBlock: ZUJKAS_clean_linker_0, # of connection points: 2
#     Edge 63, Type (0, 1), BuildingBlock: ZUJKAS_clean_linker_0, # of connection points: 2
#     Edge 64, Type (0, 1), BuildingBlock: ZUJKAS_clean_linker_0, # of connection points: 2
#     Edge 65, Type (0, 1), BuildingBlock: ZUJKAS_clean_linker_0, # of connection points: 2
#     Edge 66, Type (0, 1), BuildingBlock: ZUJKAS_clean_linker_0, # of connection points: 2
#     Edge 67, Type (0, 1), BuildingBlock: ZUJKAS_clean_linker_0, # of connection points: 2
#     Edge 68, Type (0, 1), BuildingBlock: ZUJKAS_clean_linker_0, # of connection points: 2
#     Edge 69, Type (0, 1), BuildingBlock: ZUJKAS_clean_linker_0, # of connection points: 2
#     Edge 70, Type (0, 1), BuildingBlock: ZUJKAS_clean_linker_0, # of connection points: 2
#     Edge 71, Type (0, 1), BuildingBlock: ZUJKAS_clean_linker_0, # of connection points: 2
#     Edge 72, Type (0, 1), BuildingBlock: ZUJKAS_clean_linker_0, # of connection points: 2
#     Edge 73, Type (0, 1), BuildingBlock: ZUJKAS_clean_linker_0, # of connection points: 2
#     Edge 74, Type (0, 1), BuildingBlock: ZUJKAS_clean_linker_0, # of connection points: 2
#     Edge 75, Type (0, 1), BuildingBlock: ZUJKAS_clean_linker_0, # of connection points: 2
#     Edge 76, Type (0, 1), BuildingBlock: ZUJKAS_clean_linker_0, # of connection points: 2
#     Edge 77, Type (0, 1), BuildingBlock: ZUJKAS_clean_linker_0, # of connection points: 2
#     Edge 78, Type (0, 1), BuildingBlock: ZUJKAS_clean_linker_0, # of connection points: 2
#     Edge 79, Type (0, 1), BuildingBlock: ZUJKAS_clean_linker_0, # of connection points: 2
#     Edge 80, Type (0, 1), BuildingBlock: ZUJKAS_clean_linker_0, # of connection points: 2
#     Edge 81, Type (0, 1), BuildingBlock: ZUJKAS_clean_linker_0, # of connection points: 2
#     Edge 82, Type (0, 1), BuildingBlock: ZUJKAS_clean_linker_0, # of connection points: 2
#     Edge 83, Type (0, 1), BuildingBlock: ZUJKAS_clean_linker_0, # of connection points: 2
#     Edge 84, Type (0, 1), BuildingBlock: ZUJKAS_clean_linker_0, # of connection points: 2
#     Edge 85, Type (0, 1), BuildingBlock: ZUJKAS_clean_linker_0, # of connection points: 2
#     Edge 86, Type (0, 1), BuildingBlock: ZUJKAS_clean_linker_0, # of connection points: 2
#     Edge 87, Type (0, 1), BuildingBlock: ZUJKAS_clean_linker_0, # of connection points: 2
#     Edge 88, Type (0, 1), BuildingBlock: ZUJKAS_clean_linker_0, # of connection points: 2
#     Edge 89, Type (0, 1), BuildingBlock: ZUJKAS_clean_linker_0, # of connection points: 2
#     Edge 90, Type (0, 1), BuildingBlock: ZUJKAS_clean_linker_0, # of connection points: 2
#     Edge 91, Type (0, 1), BuildingBlock: ZUJKAS_clean_linker_0, # of connection points: 2
#     Edge 92, Type (0, 1), BuildingBlock: ZUJKAS_clean_linker_0, # of connection points: 2
#     Edge 93, Type (0, 1), BuildingBlock: ZUJKAS_clean_linker_0, # of connection points: 2
#     Edge 94, Type (0, 1), BuildingBlock: ZUJKAS_clean_linker_0, # of connection points: 2
#     Edge 95, Type (0, 1), BuildingBlock: ZUJKAS_clean_linker_0, # of connection points: 2
#     Edge 96, Type (0, 1), BuildingBlock: ZUJKAS_clean_linker_0, # of connection points: 2
#     Edge 97, Type (0, 1), BuildingBlock: ZUJKAS_clean_linker_0, # of connection points: 2
#     Edge 98, Type (0, 1), BuildingBlock: ZUJKAS_clean_linker_0, # of connection points: 2
#     Edge 99, Type (0, 1), BuildingBlock: ZUJKAS_clean_linker_0, # of connection points: 2
#     Edge 100, Type (0, 1), BuildingBlock: ZUJKAS_clean_linker_0, # of connection points: 2
#     Edge 101, Type (0, 1), BuildingBlock: ZUJKAS_clean_linker_0, # of connection points: 2
#     Edge 102, Type (0, 1), BuildingBlock: ZUJKAS_clean_linker_0, # of connection points: 2
#     Edge 103, Type (0, 1), BuildingBlock: ZUJKAS_clean_linker_0, # of connection points: 2
#     Edge 104, Type (0, 1), BuildingBlock: ZUJKAS_clean_linker_0, # of connection points: 2
#     Edge 105, Type (0, 1), BuildingBlock: ZUJKAS_clean_linker_0, # of connection points: 2
#     Edge 106, Type (0, 1), BuildingBlock: ZUJKAS_clean_linker_0, # of connection points: 2
#     Edge 107, Type (0, 1), BuildingBlock: ZUJKAS_clean_linker_0, # of connection points: 2
#     Edge 108, Type (0, 1), BuildingBlock: ZUJKAS_clean_linker_0, # of connection points: 2
#     Edge 109, Type (0, 1), BuildingBlock: ZUJKAS_clean_linker_0, # of connection points: 2
#     Edge 110, Type (0, 1), BuildingBlock: ZUJKAS_clean_linker_0, # of connection points: 2
#     Edge 111, Type (0, 1), BuildingBlock: ZUJKAS_clean_linker_0, # of connection points: 2
#     Edge 112, Type (0, 1), BuildingBlock: ZUJKAS_clean_linker_0, # of connection points: 2
#     Edge 113, Type (0, 1), BuildingBlock: ZUJKAS_clean_linker_0, # of connection points: 2
#     Edge 114, Type (0, 1), BuildingBlock: ZUJKAS_clean_linker_0, # of connection points: 2
#     Edge 115, Type (0, 1), BuildingBlock: ZUJKAS_clean_linker_0, # of connection points: 2
#     Edge 116, Type (0, 1), BuildingBlock: ZUJKAS_clean_linker_0, # of connection points: 2
#     Edge 117, Type (0, 1), BuildingBlock: ZUJKAS_clean_linker_0, # of connection points: 2
#     Edge 118, Type (0, 1), BuildingBlock: ZUJKAS_clean_linker_0, # of connection points: 2
#     Edge 119, Type (0, 1), BuildingBlock: ZUJKAS_clean_linker_0, # of connection points: 2
#     Edge 120, Type (0, 1), BuildingBlock: ZUJKAS_clean_linker_0, # of connection points: 2
#     Edge 121, Type (0, 1), BuildingBlock: ZUJKAS_clean_linker_0, # of connection points: 2
#     Edge 122, Type (0, 1), BuildingBlock: ZUJKAS_clean_linker_0, # of connection points: 2
#     Edge 123, Type (0, 1), BuildingBlock: ZUJKAS_clean_linker_0, # of connection points: 2
#     Edge 124, Type (0, 1), BuildingBlock: ZUJKAS_clean_linker_0, # of connection points: 2
#     Edge 125, Type (0, 1), BuildingBlock: ZUJKAS_clean_linker_0, # of connection points: 2
#     Edge 126, Type (0, 1), BuildingBlock: ZUJKAS_clean_linker_0, # of connection points: 2
#     Edge 127, Type (0, 1), BuildingBlock: ZUJKAS_clean_linker_0, # of connection points: 2
#     Edge 128, Type (0, 1), BuildingBlock: ZUJKAS_clean_linker_0, # of connection points: 2
#     Edge 129, Type (0, 1), BuildingBlock: ZUJKAS_clean_linker_0, # of connection points: 2
#     Edge 130, Type (0, 1), BuildingBlock: ZUJKAS_clean_linker_0, # of connection points: 2
#     Edge 131, Type (0, 1), BuildingBlock: ZUJKAS_clean_linker_0, # of connection points: 2
#     Edge 132, Type (0, 1), BuildingBlock: ZUJKAS_clean_linker_0, # of connection points: 2
#     Edge 133, Type (0, 1), BuildingBlock: ZUJKAS_clean_linker_0, # of connection points: 2
#     Edge 134, Type (0, 1), BuildingBlock: ZUJKAS_clean_linker_0, # of connection points: 2
#     Edge 135, Type (0, 1), BuildingBlock: ZUJKAS_clean_linker_0, # of connection points: 2
# Relax obj value: 0.100
# Max RMSD: 0.217
# Mean RMSD: 0.117
data_MOF--net-gar--node1-QUQFOY_clean_sbu_3--node2-CUKXOW_clean_sbu_0--edge1-ZUJKAS_clean_linker_0
_symmetry_space_group_name_H-M    P1
_symmetry_Int_Tables_number       1
_symmetry_cell_setting            triclinic
loop_
_symmetry_equiv_pos_as_xyz
'x, y, z'
_cell_length_a     71.622334
_cell_length_b     70.851111
_cell_length_c     71.009341
_cell_angle_alpha  94.515836
_cell_angle_beta   95.414809
_cell_angle_gamma 99.447281
loop_
_atom_site_label
_atom_site_type_symbol
_atom_site_fract_x
_atom_site_fract_y
_atom_site_fract_z
_atom_type_partial_charge
C0 C 0.99075 0.26172 0.38029 0.0
O1 O 0.00391 0.26929 0.37106 0.0
Cd2 Cd 0.03649 0.27598 0.38276 0.0
O3 O -0.00559 0.25643 0.39682 0.0
Cd4 Cd 0.0232 0.25401 0.41883 0.0
C5 C 0.03517 0.30239 0.42556 0.0
O6 O 0.03925 0.24509 0.39264 0.0
O7 O 0.05732 0.24988 0.41896 0.0
O8 O 0.00378 0.2244 0.42572 0.0
C9 C 0.0553 0.24459 0.40131 0.0
O10 O 0.03925 0.30201 0.40847 0.0
C11 C 0.00973 0.22607 0.44328 0.0
O12 O 0.02871 0.28702 0.43262 0.0
O13 O 0.02182 0.24092 0.44956 0.0
C14 C 0.96414 0.76839 0.63788 0.0
O15 O 0.97661 0.75965 0.64542 0.0
Cd16 Cd 0.00798 0.76115 0.63671 0.0
O17 O 0.9675 0.77822 0.6239 0.0
Cd18 Cd 0.99421 0.78548 0.60418 0.0
C19 C -0.00354 0.73878 0.59188 0.0
O20 O 0.017 0.79412 0.63171 0.0
O21 O 0.02956 0.79277 0.60546 0.0
O22 O 0.98468 0.81644 0.60031 0.0
C23 C 0.03178 0.79716 0.62328 0.0
O24 O 0.00494 0.7388 0.60845 0.0
C25 C 0.98543 0.81564 0.58249 0.0
O26 O 0.98975 0.75344 0.58696 0.0
O27 O 0.98954 0.80038 0.57456 0.0
C28 C 0.48697 0.77245 0.88476 0.0
O29 O 0.49997 0.78214 0.87675 0.0
Cd30 Cd 0.53307 0.78495 0.88661 0.0
O31 O 0.49112 0.7638 0.89927 0.0
Cd32 Cd 0.52004 0.75915 0.91915 0.0
C33 C 0.53432 0.80677 0.93151 0.0
O34 O 0.53566 0.75249 0.89175 0.0
O35 O 0.55378 0.75488 0.91801 0.0
O36 O 0.50204 0.72785 0.92303 0.0
C37 C 0.55153 0.75079 0.90015 0.0
O38 O 0.5394 0.80797 0.91488 0.0
C39 C 0.50696 0.72852 0.94074 0.0
O40 O 0.52597 0.7909 0.9363 0.0
O41 O 0.5177 0.74373 0.94852 0.0
C42 C 0.46452 0.26479 0.1418 0.0
O43 O 0.47678 0.25571 0.14919 0.0
Cd44 Cd 0.50818 0.25794 0.14048 0.0
O45 O 0.46829 0.27512 0.12826 0.0
Cd46 Cd 0.49556 0.28357 0.1094 0.0
C47 C 0.49831 0.23774 0.09463 0.0
O48 O 0.51746 0.2917 0.13785 0.0
O49 O 0.53083 0.29119 0.11198 0.0
O50 O 0.48342 0.31343 0.10561 0.0
C51 C 0.53241 0.29545 0.12979 0.0
O52 O 0.50579 0.23661 0.11139 0.0
C53 C 0.48642 0.31405 0.08832 0.0
O54 O 0.49214 0.25285 0.09033 0.0
O55 O 0.49326 0.30025 0.08075 0.0
C56 C 0.96014 0.76284 0.17771 0.0
O57 O 0.97185 0.7549 0.18753 0.0
Cd58 Cd 0.00319 0.75216 0.17996 0.0
O59 O 0.9648 0.77043 0.16274 0.0
Cd60 Cd 0.99367 0.77564 0.14518 0.0
C61 C 0.99395 0.72797 0.13536 0.0
O62 O 0.01742 0.78351 0.17299 0.0
O63 O 0.02852 0.77853 0.14625 0.0
O64 O 0.98803 0.80781 0.13871 0.0
C65 C 0.03183 0.78358 0.16393 0.0
O66 O 1e-05 0.72787 0.1528 0.0
C67 C 0.98735 0.80487 0.12077 0.0
O68 O 0.98944 0.74315 0.12909 0.0
O69 O 0.98941 0.78826 0.11414 0.0
C70 C 0.48791 0.78814 0.33878 0.0
O71 O 0.49884 0.79991 0.33041 0.0
Cd72 Cd 0.53145 0.81225 0.34105 0.0
O73 O 0.49414 0.78165 0.35399 0.0
Cd74 Cd 0.52513 0.78533 0.37476 0.0
C75 C 0.52556 0.83337 0.3847 0.0
O76 O 0.54445 0.78434 0.34846 0.0
O77 O 0.56038 0.79104 0.37609 0.0
O78 O 0.51716 0.7514 0.38032 0.0
C79 C 0.56048 0.78735 0.35835 0.0
O80 O 0.53005 0.83551 0.36798 0.0
C81 C 0.52013 0.75423 0.39832 0.0
O82 O 0.52236 0.81669 0.39045 0.0
O83 O 0.52519 0.77155 0.40539 0.0
C84 C 0.45828 0.26238 0.68009 0.0
O85 O 0.46996 0.25541 0.69096 0.0
Cd86 Cd 0.50207 0.25386 0.68534 0.0
O87 O 0.46346 0.26969 0.66516 0.0
Cd88 Cd 0.49336 0.27589 0.64935 0.0
C89 C 0.49506 0.22849 0.64125 0.0
O90 O 0.51577 0.28529 0.67817 0.0
O91 O 0.52823 0.27999 0.65227 0.0
O92 O 0.48455 0.30649 0.64136 0.0
C93 C 0.53069 0.28561 0.66985 0.0
O94 O 0.50062 0.22912 0.6589 0.0
C95 C 0.48753 0.30442 0.62403 0.0
O96 O 0.49027 0.24319 0.63418 0.0
O97 O 0.4929 0.28893 0.61839 0.0
C98 C 0.98499 0.28922 0.84023 0.0
O99 O -0.00428 0.30189 0.83265 0.0
Cd100 Cd 0.02835 0.31425 0.84327 0.0
O101 O 0.99136 0.28185 0.85484 0.0
Cd102 Cd 0.02244 0.2854 0.87537 0.0
C103 C 0.02291 0.33314 0.8878 0.0
O104 O 0.04158 0.28606 0.84886 0.0
O105 O 0.05763 0.29134 0.8765 0.0
O106 O 0.01591 0.25106 0.87977 0.0
C107 C 0.05763 0.28858 0.85865 0.0
O108 O 0.02748 0.33627 0.87129 0.0
C109 C 0.01857 0.25336 0.8978 0.0
O110 O 0.01955 0.31605 0.89254 0.0
O111 O 0.02263 0.27056 0.9054 0.0
C112 C 0.423 0.05542 0.27815 0.0
O113 O 0.42939 0.04398 0.26673 0.0
Cd114 Cd 0.42192 0.03852 0.23303 0.0
O115 O 0.41077 0.06544 0.27219 0.0
Cd116 Cd 0.39259 0.06786 0.24058 0.0
C117 C 0.37524 0.01937 0.2343 0.0
O118 O 0.41974 0.06912 0.22225 0.0
O119 O 0.39274 0.06614 0.20543 0.0
O120 O 0.39063 0.10188 0.24917 0.0
C121 C 0.4107 0.06805 0.20591 0.0
O122 O 0.39138 0.01698 0.22936 0.0
C123 C 0.37261 0.09962 0.24583 0.0
O124 O 0.37236 0.03601 0.24021 0.0
O125 O 0.364 0.08268 0.24031 0.0
C126 C 0.2736 0.10212 0.49791 0.0
O127 O 0.25787 0.09406 0.50284 0.0
Cd128 Cd 0.22893 0.10675 0.49966 0.0
O129 O 0.27471 0.11771 0.48991 0.0
Cd130 Cd 0.25322 0.14005 0.47955 0.0
C131 C 0.24463 0.15064 0.52497 0.0
O132 O 0.22528 0.11637 0.46817 0.0
O133 O 0.22007 0.1453 0.47275 0.0
O134 O 0.26624 0.14705 0.44963 0.0
C135 C 0.21352 0.12785 0.467 0.0
O136 O 0.2339 0.13427 0.52392 0.0
C137 C 0.27237 0.16472 0.45492 0.0
O138 O 0.25389 0.15563 0.51123 0.0
O139 O 0.26979 0.17071 0.47162 0.0
C140 C 0.1 0.00436 0.80248 0.0
O141 O 0.09155 0.01005 0.78801 0.0
Cd142 Cd 0.10435 0.01552 0.75892 0.0
O143 O 0.11671 0.00029 0.80216 0.0
Cd144 Cd 0.13963 -0.00155 0.77745 0.0
C145 C 0.14651 0.04661 0.77424 0.0
O146 O 0.11574 0.98671 0.75087 0.0
O147 O 0.14362 0.99662 0.743 0.0
O148 O 0.14494 0.96701 0.78622 0.0
C149 C 0.12658 0.98851 0.73784 0.0
O150 O 0.12992 0.0434 0.76516 0.0
C151 C 0.16299 0.97093 0.78803 0.0
O152 O 0.15348 0.03302 0.78146 0.0
O153 O 0.17035 0.98814 0.78605 0.0
C154 C 0.24955 0.92308 0.01904 0.0
O155 O 0.23863 0.93216 0.00957 0.0
Cd156 Cd 0.20517 0.92202 0.00299 0.0
O157 O 0.24272 0.90793 0.02644 0.0
Cd158 Cd 0.21055 0.88844 0.02912 0.0
C159 C 0.20601 0.87717 0.98088 0.0
O160 O 0.19489 0.91614 0.03334 0.0
O161 O 0.17544 0.88939 0.02762 0.0
O162 O 0.22232 0.88609 0.06231 0.0
C163 C 0.17791 0.90739 0.03212 0.0
O164 O 0.20229 0.89404 0.97972 0.0
C165 C 0.21737 0.86803 0.06211 0.0
O166 O 0.21034 0.87143 -0.00294 0.0
O167 O 0.20924 0.85918 0.04644 0.0
C168 C 0.26679 0.44218 0.03595 0.0
O169 O 0.2583 0.45008 0.02302 0.0
Cd170 Cd 0.22844 0.43653 0.00565 0.0
O171 O 0.25894 0.42633 0.04137 0.0
Cd172 Cd 0.22802 0.40372 0.03434 0.0
C173 C 0.23912 0.39265 0.99017 0.0
O174 O 0.2078 0.4272 0.02894 0.0
O175 O 0.19468 0.39803 0.01957 0.0
O176 O 0.22681 0.39993 0.06806 0.0
C177 C 0.19304 0.41559 0.02182 0.0
O178 O 0.23522 0.40888 0.98615 0.0
C179 C 0.22501 0.38173 0.0661 0.0
O180 O 0.2385 0.38762 0.00694 0.0
O181 O 0.22457 0.37382 0.04935 0.0
C182 C 0.81808 0.13841 0.01289 0.0
O183 O 0.80642 0.12949 0.02292 0.0
Cd184 Cd 0.77525 0.13536 0.02755 0.0
O185 O 0.81401 0.15285 0.00461 0.0
Cd186 Cd 0.78618 0.17099 0.00296 0.0
C187 C 0.78548 0.18083 0.05106 0.0
O188 O 0.76183 0.14182 -0.00263 0.0
O189 O 0.75143 0.16846 0.00159 0.0
O190 O 0.79273 0.17627 0.97015 0.0
C191 C 0.74769 0.15042 -0.00236 0.0
O192 O 0.77861 0.16304 0.05068 0.0
C193 C 0.79009 0.19358 0.97095 0.0
O194 O 0.79118 0.1878 0.0361 0.0
O195 O 0.7868 0.20087 0.98698 0.0
C196 C 0.07953 0.49451 0.29763 0.0
O197 O 0.071 0.50304 0.28526 0.0
Cd198 Cd 0.0799 0.50879 0.2544 0.0
O199 O 0.09422 0.48741 0.29392 0.0
Cd200 Cd 0.11318 0.4854 0.26584 0.0
C201 C 0.12502 0.53399 0.26805 0.0
O202 O 0.08699 0.47969 0.23998 0.0
O203 O 0.11481 0.48936 0.23175 0.0
O204 O 0.11836 0.4523 0.27015 0.0
C205 C 0.09723 0.48347 0.22671 0.0
O206 O 0.10829 0.53371 0.26001 0.0
C207 C 0.13642 0.45629 0.27145 0.0
O208 O 0.13019 0.51862 0.27317 0.0
O209 O 0.1436 0.47374 0.2704 0.0
C210 C 0.76995 0.93431 0.53579 0.0
O211 O 0.76173 0.94308 0.52342 0.0
Cd212 Cd 0.73038 0.93313 0.5079 0.0
O213 O 0.76109 0.91921 0.54179 0.0
Cd214 Cd 0.72826 0.89988 0.53666 0.0
C215 C 0.73467 0.88709 0.49132 0.0
O216 O 0.71108 0.92596 0.53263 0.0
O217 O 0.69471 0.89797 0.52355 0.0
O218 O 0.7276 0.897 0.57052 0.0
C219 C 0.6952 0.91596 0.52605 0.0
O220 O 0.73245 0.90402 0.48786 0.0
C221 C 0.724 0.87875 0.56889 0.0
O222 O 0.73475 0.88206 0.50813 0.0
O223 O 0.72253 0.87034 0.55221 0.0
C224 C 0.90461 0.05692 0.27511 0.0
O225 O 0.91515 0.0493 0.26443 0.0
Cd226 Cd 0.90658 0.03914 0.23171 0.0
O227 O 0.88859 0.06064 0.26834 0.0
Cd228 Cd 0.86924 0.05927 0.23678 0.0
C229 C 0.86288 0.01042 0.23465 0.0
O230 O 0.8967 0.06685 0.22009 0.0
O231 O 0.87073 0.05789 0.20163 0.0
O232 O 0.86428 0.09135 0.24768 0.0
C233 C 0.88853 0.06402 0.20333 0.0
O234 O 0.88038 0.01217 0.23189 0.0
C235 C 0.84639 0.08836 0.24326 0.0
O236 O 0.85505 0.02519 0.23728 0.0
O237 O 0.83887 0.07162 0.23576 0.0
C238 C 0.31929 0.6359 0.51094 0.0
O239 O 0.30762 0.62653 0.52064 0.0
Cd240 Cd 0.27619 0.63123 0.52522 0.0
O241 O 0.3149 0.65022 0.50263 0.0
Cd242 Cd 0.28601 0.66704 0.50035 0.0
C243 C 0.28524 0.67684 0.54853 0.0
O244 O 0.26274 0.63705 0.49482 0.0
O245 O 0.25102 0.66295 0.49859 0.0
O246 O 0.29253 0.6728 0.46757 0.0
C247 C 0.24809 0.64488 0.49484 0.0
O248 O 0.27922 0.65889 0.54837 0.0
C249 C 0.28934 0.68993 0.46845 0.0
O250 O 0.29013 0.68397 0.53336 0.0
O251 O 0.28569 0.69688 0.48446 0.0
C252 C 0.39461 0.55177 0.77069 0.0
O253 O 0.40418 0.54362 0.75936 0.0
Cd254 Cd 0.39527 0.5365 0.72613 0.0
O255 O 0.37925 0.55725 0.7645 0.0
Cd256 Cd 0.36009 0.55738 0.73311 0.0
C257 C 0.35151 0.50847 0.72798 0.0
O258 O 0.38722 0.56556 0.7156 0.0
O259 O 0.3608 0.55589 0.69797 0.0
O260 O 0.35557 0.58961 0.74427 0.0
C261 C 0.3784 0.56286 0.69909 0.0
O262 O 0.36854 0.50983 0.72375 0.0
C263 C 0.33768 0.58681 0.73992 0.0
O264 O 0.34484 0.52349 0.733 0.0
O265 O 0.32996 0.5701 0.73254 0.0
C266 C 0.5792 0.99374 0.79542 0.0
O267 O 0.57026 0.00098 0.78228 0.0
Cd268 Cd 0.57972 0.0061 0.75153 0.0
O269 O 0.59446 0.98734 0.79252 0.0
Cd270 Cd 0.61369 0.98409 0.76472 0.0
C271 C 0.62451 0.03255 0.7653 0.0
O272 O 0.58795 0.97709 0.73842 0.0
O273 O 0.6158 0.98737 0.73061 0.0
O274 O 0.61902 0.9513 0.77029 0.0
C275 C 0.59837 0.98093 0.7253 0.0
O276 O 0.60775 0.03156 0.75701 0.0
C277 C 0.63708 0.95529 0.77147 0.0
O278 O 0.6301 0.01761 0.7711 0.0
O279 O 0.64421 0.97266 0.76991 0.0
C280 C 0.77497 0.61049 0.00647 0.0
O281 O 0.76004 0.60111 0.01183 0.0
Cd282 Cd 0.72858 0.60798 0.00519 0.0
O283 O 0.77397 0.62446 -0.00366 0.0
Cd284 Cd 0.74917 0.6413 0.98195 0.0
C285 C 0.7368 0.65444 0.02545 0.0
O286 O 0.72507 0.61297 0.97209 0.0
O287 O 0.71553 0.64011 0.97057 0.0
O288 O 0.76692 0.64776 0.95446 0.0
C289 C 0.71167 0.62196 0.96761 0.0
O290 O 0.7284 0.63723 0.02605 0.0
C291 C 0.76695 0.66577 0.95642 0.0
O292 O 0.74603 0.65909 0.0116 0.0
O293 O 0.75878 0.67207 0.97009 0.0
C294 C 0.92751 0.56008 0.77784 0.0
O295 O 0.9365 0.55096 0.76668 0.0
Cd296 Cd 0.92703 0.54258 0.73352 0.0
O297 O 0.9129 0.56675 0.77137 0.0
Cd298 Cd 0.89474 0.56836 0.73945 0.0
C299 C 0.88121 0.51983 0.73677 0.0
O300 O 0.92159 0.57131 0.72025 0.0
O301 O 0.89387 0.56445 0.70444 0.0
O302 O 0.8916 0.60167 0.74961 0.0
C303 C 0.91176 0.56829 0.70417 0.0
O304 O 0.898 0.51871 0.73279 0.0
C305 C 0.87379 0.59935 0.74463 0.0
O306 O 0.87642 0.53612 0.74068 0.0
O307 O 0.86579 0.5827 0.73737 0.0
C308 C 0.74793 0.42613 0.52218 0.0
O309 O 0.73756 0.43604 0.51312 0.0
Cd310 Cd 0.70475 0.42532 0.50299 0.0
O311 O 0.7407 0.41021 0.52802 0.0
Cd312 Cd 0.70821 0.39046 0.52965 0.0
C313 C 0.70703 0.37991 0.48163 0.0
O314 O 0.69247 0.41815 0.53206 0.0
O315 O 0.67302 0.39137 0.52774 0.0
O316 O 0.71922 0.38841 0.56312 0.0
C317 C 0.67542 0.40956 0.53063 0.0
O318 O 0.70512 0.39735 0.4804 0.0
C319 C 0.71443 0.37033 0.56295 0.0
O320 O 0.70851 0.37329 0.49781 0.0
O321 O 0.70664 0.36136 0.54721 0.0
C322 C 0.60382 0.5066 0.30591 0.0
O323 O 0.59424 0.51307 0.29269 0.0
Cd324 Cd 0.60363 0.51767 0.26194 0.0
O325 O 0.61988 0.50182 0.30327 0.0
Cd326 Cd 0.63987 0.5006 0.27608 0.0
C327 C 0.64633 0.5487 0.27345 0.0
O328 O 0.61347 0.48832 0.25179 0.0
O329 O 0.6399 0.4991 0.24121 0.0
O330 O 0.64693 0.47029 0.28656 0.0
C331 C 0.6229 0.49028 0.23769 0.0
O332 O 0.62925 0.54556 0.26555 0.0
C333 C 0.6645 0.47358 0.28432 0.0
O334 O 0.65372 0.53507 0.28008 0.0
O335 O 0.67091 0.4899 0.27906 0.0
Tb336 Tb 0.01096 0.04991 0.00879 0.0
C337 C 0.00708 0.02068 0.97137 0.0
Tb338 Tb 0.99273 0.00739 0.0092 0.0
O339 O 0.03676 0.04525 0.02588 0.0
O340 O 0.02009 0.02308 0.00757 0.0
O341 O 0.00797 0.03873 0.9787 0.0
C342 C 0.98938 0.97192 0.02014 0.0
O343 O 0.00348 0.00581 0.98156 0.0
C344 C 0.96933 0.03037 -0.00173 0.0
C345 C -0.0041 0.03716 0.04675 0.0
O346 O 0.97757 0.97754 0.00757 0.0
O347 O 0.00287 0.98619 0.02633 0.0
O348 O 0.96618 0.01195 0.99316 0.0
O349 O 0.98367 0.03407 0.01041 0.0
O350 O 0.99215 0.01907 0.03878 0.0
O351 O 0.00256 0.05192 0.0374 0.0
C352 C 0.01561 0.08624 -4e-05 0.0
O353 O -0.00026 0.07603 0.00326 0.0
O354 O 0.02909 0.07606 0.00187 0.0
C355 C 0.03402 0.02694 0.02025 0.0
Tb356 Tb 0.26266 0.79889 0.26425 0.0
C357 C 0.29241 0.7714 0.2687 0.0
Tb358 Tb 0.24778 0.75554 0.26304 0.0
O359 O 0.27472 0.79984 0.29383 0.0
O360 O 0.25063 0.77973 0.28321 0.0
O361 O 0.28938 0.78829 0.26336 0.0
C362 C 0.23791 0.7191 0.27047 0.0
O363 O 0.27835 0.75727 0.27097 0.0
C364 C 0.24764 0.76961 0.22987 0.0
C365 C 0.21805 0.78276 0.25765 0.0
O366 O 0.24463 0.72459 0.25506 0.0
O367 O 0.23686 0.73413 0.28174 0.0
O368 O 0.23586 0.75464 0.23335 0.0
O369 O 0.2598 0.77471 0.24416 0.0
O370 O 0.221 0.76603 0.26345 0.0
O371 O 0.23218 0.79686 0.25549 0.0
C372 C 0.27208 0.83535 0.25666 0.0
O373 O 0.26306 0.82976 0.27083 0.0
O374 O 0.27575 0.82044 0.24685 0.0
C375 C 0.26298 0.78486 0.29736 0.0
Tb376 Tb 0.52301 0.03122 0.50273 0.0
C377 C 0.5144 0.02093 0.54354 0.0
Tb378 Tb 0.48244 0.03101 0.51407 0.0
O379 O 0.53482 0.058 0.52047 0.0
O380 O 0.50602 0.05176 0.51005 0.0
O381 O 0.52422 0.01739 0.52908 0.0
C382 C 0.45119 0.04069 0.52682 0.0
O383 O 0.49868 0.02866 0.54145 0.0
C384 C 0.48824 -0.00054 0.4954 0.0
C385 C 0.49087 0.04091 0.47263 0.0
O386 O 0.45574 0.02366 0.52682 0.0
O387 O 0.46429 0.0521 0.51989 0.0
O388 O 0.47173 0.00485 0.49481 0.0
O389 O 0.49973 0.0105 0.50749 0.0
O390 O 0.47863 0.04018 0.4856 0.0
O391 O 0.5086 0.03774 0.47607 0.0
C392 C 0.55273 0.02104 0.48724 0.0
O393 O 0.55366 0.0338 0.50159 0.0
O394 O 0.53501 0.01413 0.4815 0.0
C395 C 0.5182 0.06278 0.52162 0.0
Tb396 Tb 0.25796 0.28312 0.7805 0.0
C397 C 0.26393 0.31586 0.75283 0.0
Tb398 Tb 0.248 0.27201 0.7375 0.0
O399 O 0.28829 0.28915 0.77715 0.0
O400 O 0.26972 0.26852 0.75857 0.0
O401 O 0.26267 0.31166 0.77063 0.0
C402 C 0.25009 0.26387 0.70053 0.0
O403 O 0.2597 0.30266 0.73798 0.0
C404 C 0.21917 0.27705 0.7561 0.0
C405 C 0.24103 0.2398 0.765 0.0
O406 O 0.26452 0.26918 0.71335 0.0
O407 O 0.23448 0.26332 0.7085 0.0
O408 O 0.2173 0.26687 0.73982 0.0
O409 O 0.23603 0.28593 0.75957 0.0
O410 O 0.24548 0.24365 0.74779 0.0
O411 O 0.24271 0.25347 0.77934 0.0
C412 C 0.25706 0.29179 0.81751 0.0
O413 O 0.26709 0.27992 0.81029 0.0
O414 O 0.24775 0.29878 0.80396 0.0
C415 C 0.28652 0.27766 0.76166 0.0
Tb416 Tb 0.9834 0.02665 0.49609 0.0
C417 C 0.96132 0.0081 0.52756 0.0
Tb418 Tb 0.00583 0.0191 0.53314 0.0
O419 O 0.9769 0.99624 0.48554 0.0
O420 O 0.00085 0.00676 0.50455 0.0
O421 O 0.96124 0.02097 0.51492 0.0
C422 C 0.02265 0.00542 0.56297 0.0
O423 O 0.97734 0.00292 0.53462 0.0
C424 C -0.0016 0.05402 0.53129 0.0
C425 C 0.02874 0.03821 0.50192 0.0
O426 O 0.01074 0.01735 0.56378 0.0
O427 O 0.02497 0.00109 0.54537 0.0
O428 O 0.01328 0.05022 0.54117 0.0
O429 O 0.98798 0.03855 0.52454 0.0
O430 O 0.02959 0.02908 0.51754 0.0
O431 O 0.01246 0.03965 0.49192 0.0
C432 C 0.96656 0.04213 0.46744 0.0
O433 O 0.98249 0.04983 0.47743 0.0
O434 O 0.9602 0.02584 0.47361 0.0
C435 C 0.99055 0.9916 0.49657 0.0
Tb436 Tb 0.27221 0.77885 0.77447 0.0
C437 C 0.24209 0.78996 0.80073 0.0
Tb438 Tb 0.2327 0.78229 0.75572 0.0
O439 O 0.2783 0.80941 0.78457 0.0
O440 O 0.25999 0.79961 0.76001 0.0
O441 O 0.25754 0.78189 0.79984 0.0
C442 C 0.2012 0.79384 0.74164 0.0
O443 O 0.23144 0.79307 0.78528 0.0
C444 C 0.23881 0.74705 0.75899 0.0
C445 C 0.26272 0.7716 0.72935 0.0
O446 O 0.20166 0.77977 0.75225 0.0
O447 O 0.21839 0.80132 0.73905 0.0
O448 O 0.22706 0.75159 0.74573 0.0
O449 O 0.24492 0.76171 0.77045 0.0
O450 O 0.24741 0.77978 0.73046 0.0
O451 O 0.27324 0.76805 0.74472 0.0
C452 C 0.30431 0.76778 0.7875 0.0
O453 O 0.30311 0.78125 0.77631 0.0
O454 O 0.28743 0.76053 0.79136 0.0
C455 C 0.26634 0.81415 0.77164 0.0
Tb456 Tb 0.48103 0.01443 0.00247 0.0
C457 C 0.51152 0.98727 0.01188 0.0
Tb458 Tb 0.5233 0.03156 0.00974 0.0
O459 O 0.48121 0.01641 0.97183 0.0
O460 O 0.50561 0.01264 0.98843 0.0
O461 O 0.49346 0.98975 0.01149 0.0
C462 C 0.55865 0.04838 0.00556 0.0
O463 O 0.52537 0.00128 0.00894 0.0
C464 C 0.50471 0.03052 0.04001 0.0
C465 C 0.49307 0.05866 -0.00017 0.0
O466 O 0.55311 0.0417 0.02099 0.0
O467 O 0.5443 0.04558 0.99249 0.0
O468 O 0.52284 0.0303 0.04057 0.0
O469 O 0.49871 0.03349 0.02353 0.0
O470 O 0.51101 0.05594 -8e-05 0.0
O471 O 0.47916 0.04488 0.00325 0.0
C472 C 0.44583 0.99783 0.00754 0.0
O473 O 0.45127 0.00328 0.99159 0.0
O474 O 0.4602 0.00172 0.02059 0.0
C475 C 0.4993 0.01597 0.97213 0.0
Tb476 Tb 0.24091 0.27688 0.27533 0.0
C477 C 0.27452 0.27943 0.30776 0.0
Tb478 Tb 0.28134 0.28975 0.26587 0.0
O479 O 0.24701 0.24807 0.27902 0.0
O480 O 0.26061 0.26467 0.25967 0.0
O481 O 0.25598 0.27888 0.30357 0.0
C482 C 0.31676 0.29056 0.25693 0.0
O483 O 0.28699 0.28286 0.29518 0.0
C484 C 0.26264 0.31769 0.27405 0.0
C485 C 0.2478 0.28718 0.23399 0.0
O486 O 0.30657 0.27639 0.26375 0.0
O487 O 0.30716 0.30448 0.25559 0.0
O488 O 0.27626 0.31912 0.26316 0.0
O489 O 0.26168 0.30198 0.28138 0.0
O490 O 0.26561 0.28443 0.23771 0.0
O491 O 0.23594 0.28697 0.24729 0.0
C492 C 0.20524 0.27344 0.28403 0.0
O493 O 0.21846 0.28832 0.28879 0.0
O494 O 0.21201 0.26058 0.27397 0.0
C495 C 0.26001 0.24923 0.26743 0.0
Tb496 Tb 0.48216 0.52215 0.991 0.0
C497 C 0.45816 0.50934 0.02377 0.0
Tb498 Tb 0.50353 0.51696 0.02954 0.0
O499 O 0.47077 0.49142 0.98657 0.0
O500 O 0.49711 0.50157 0.00237 0.0
O501 O 0.4583 0.51803 0.00785 0.0
C502 C 0.51824 0.50494 0.06137 0.0
O503 O 0.47389 0.50576 0.03332 0.0
C504 C 0.50025 0.55222 0.0235 0.0
C505 C 0.52759 0.53046 -0.00272 0.0
O506 O 0.51694 0.49591 0.04454 0.0
O507 O 0.51117 0.52057 0.06024 0.0
O508 O 0.51444 0.5479 0.03407 0.0
O509 O 0.48825 0.53729 0.01824 0.0
O510 O 0.52752 0.52155 0.01303 0.0
O511 O 0.51183 0.53396 0.98773 0.0
C512 C 0.46832 0.53449 0.95891 0.0
O513 O 0.47774 0.5204 0.96001 0.0
O514 O 0.4666 0.54167 0.97592 0.0
C515 C 0.48476 0.48682 -0.00277 0.0
Tb516 Tb 0.77356 0.27945 0.27782 0.0
C517 C 0.74274 0.2852 0.30535 0.0
Tb518 Tb 0.73273 0.27849 0.26016 0.0
O519 O 0.77587 0.30965 0.28812 0.0
O520 O 0.75855 0.29819 0.26317 0.0
O521 O 0.75969 0.28024 0.30383 0.0
C522 C 0.69973 0.288 0.24749 0.0
O523 O 0.73055 0.28643 0.29031 0.0
C524 C 0.74281 0.24493 0.26322 0.0
C525 C 0.76352 0.27265 0.23259 0.0
O526 O 0.71613 0.2992 0.24919 0.0
O527 O 0.70183 0.27137 0.25305 0.0
O528 O 0.73017 0.24816 0.25005 0.0
O529 O 0.74774 0.25975 0.27481 0.0
O530 O 0.74658 0.27757 0.23417 0.0
O531 O 0.77569 0.2714 0.24764 0.0
C532 C 0.80753 0.27179 0.28992 0.0
O533 O 0.79171 0.25961 0.28811 0.0
O534 O 0.80426 0.28822 0.28483 0.0
C535 C 0.76342 0.31295 0.27485 0.0
Tb536 Tb 0.98194 0.50899 0.50548 0.0
C537 C 0.01275 0.48284 0.50954 0.0
Tb538 Tb 0.02398 0.52802 0.5081 0.0
O539 O 0.9844 0.49314 0.47838 0.0
O540 O 0.00112 0.52013 0.48641 0.0
O541 O -0.00481 0.48477 0.51287 0.0
C542 C 0.06017 0.54011 0.50249 0.0
O543 O 0.02563 0.49739 0.50571 0.0
C544 C 0.00778 0.53157 0.53943 0.0
C545 C 0.99305 0.55423 0.50353 0.0
O546 O 0.05446 0.5339 0.51806 0.0
O547 O 0.04552 0.53937 0.49007 0.0
O548 O 0.02181 0.54399 0.53517 0.0
O549 O 0.00479 0.51714 0.52725 0.0
O550 O 0.01082 0.55236 0.50105 0.0
O551 O 0.97991 0.53956 0.50666 0.0
C552 C 0.94557 0.49703 0.51062 0.0
O553 O 0.95946 0.50218 0.52406 0.0
O554 O 0.95213 0.49877 0.49432 0.0
C555 C -0.00176 0.50581 0.47415 0.0
Tb556 Tb 0.7598 0.78455 0.28028 0.0
C557 C 0.76972 0.81768 0.25432 0.0
Tb558 Tb 0.75152 0.77478 0.2372 0.0
O559 O 0.79045 0.79035 0.27855 0.0
O560 O 0.77239 0.77039 0.25874 0.0
O561 O 0.76607 0.81346 0.27166 0.0
C562 C 0.75308 0.76796 0.20001 0.0
O563 O 0.76666 0.80457 0.23936 0.0
C564 C 0.7223 0.78006 0.25516 0.0
C565 C 0.74244 0.74144 0.26311 0.0
O566 O 0.7409 0.77701 0.20764 0.0
O567 O 0.76437 0.7629 0.21331 0.0
O568 O 0.72093 0.76851 0.23978 0.0
O569 O 0.73912 0.789 0.25873 0.0
O570 O 0.74608 0.7458 0.24583 0.0
O571 O 0.74522 0.75455 0.27803 0.0
C572 C 0.7555 0.79059 0.31696 0.0
O573 O 0.76901 0.78276 0.31034 0.0
O574 O 0.74469 0.79516 0.30299 0.0
C575 C 0.78923 0.77928 0.26282 0.0
Tb576 Tb 0.76154 0.3004 0.76565 0.0
C577 C 0.79041 0.2719 0.76815 0.0
Tb578 Tb 0.74562 0.25735 0.76387 0.0
O579 O 0.77488 0.30037 0.79459 0.0
O580 O 0.74989 0.28112 0.78473 0.0
O581 O 0.78764 0.28898 0.76316 0.0
C582 C 0.73512 0.22057 0.76994 0.0
O583 O 0.77619 0.25809 0.77077 0.0
C584 C 0.74449 0.27227 0.73112 0.0
C585 C 0.71669 0.28571 0.76149 0.0
O586 O 0.74175 0.2266 0.75468 0.0
O587 O 0.73457 0.23527 0.78187 0.0
O588 O 0.73242 0.25763 0.7348 0.0
O589 O 0.75736 0.27664 0.7449 0.0
O590 O 0.71948 0.26859 0.76632 0.0
O591 O 0.73089 0.29962 0.75902 0.0
C592 C 0.77186 0.33697 0.75876 0.0
O593 O 0.76485 0.33134 0.77399 0.0
O594 O 0.77296 0.32201 0.74743 0.0
C595 C 0.76293 0.28566 0.79837 0.0
Tb596 Tb 0.74174 0.77582 0.77867 0.0
C597 C 0.77784 0.77947 0.80805 0.0
Tb598 Tb 0.78052 0.78732 0.76485 0.0
O599 O 0.74865 0.74762 0.78389 0.0
O600 O 0.75965 0.76225 0.76189 0.0
O601 O 0.75928 0.77976 0.80579 0.0
C602 C 0.81467 0.78715 0.75302 0.0
O603 O 0.78872 0.78136 0.79394 0.0
C604 C 0.76247 0.81585 0.77279 0.0
C605 C 0.74464 0.78399 0.7359 0.0
O606 O 0.80343 0.77228 0.75738 0.0
O607 O 0.80683 0.80227 0.7556 0.0
O608 O 0.77456 0.81602 0.76027 0.0
O609 O 0.76252 0.80098 0.78145 0.0
O610 O 0.76257 0.78126 0.73801 0.0
O611 O 0.73431 0.7846 0.75043 0.0
C612 C 0.70687 0.77234 0.78942 0.0
O613 O 0.72036 0.78701 0.79416 0.0
O614 O 0.71293 0.75973 0.7784 0.0
C615 C 0.7601 0.74761 0.7708 0.0
Tb616 Tb 0.50578 0.54921 0.50542 0.0
C617 C 0.51217 0.51759 0.47434 0.0
Tb618 Tb 0.49427 0.50649 0.51226 0.0
O619 O 0.53579 0.54606 0.50713 0.0
O620 O 0.51684 0.52923 0.52216 0.0
O621 O 0.50969 0.53564 0.47794 0.0
C622 C 0.4937 0.47021 0.52036 0.0
O623 O 0.50816 0.50418 0.48616 0.0
C624 C 0.46634 0.5239 0.50034 0.0
C625 C 0.48774 0.53807 0.54322 0.0
O626 O 0.50747 0.48447 0.52559 0.0
O627 O 0.48019 0.4763 0.51031 0.0
O628 O 0.46428 0.50949 0.51063 0.0
O629 O 0.4831 0.52653 0.49573 0.0
O630 O 0.4908 0.52016 0.5399 0.0
O631 O 0.49128 0.5513 0.53112 0.0
C632 C 0.50599 0.58541 0.49726 0.0
O633 O 0.51824 0.57995 0.50945 0.0
O634 O 0.49371 0.57056 0.4899 0.0
C635 C 0.53361 0.53181 0.51762 0.0
Tb636 Tb 0.0182 0.52719 0.00199 0.0
C637 C 0.01179 0.52075 0.04429 0.0
Tb638 Tb 0.97919 0.53059 0.01483 0.0
O639 O 0.03127 0.55467 0.01791 0.0
O640 O 0.00255 0.54949 0.00707 0.0
O641 O 0.02115 0.51625 0.02975 0.0
C642 C 0.94978 0.54193 0.0302 0.0
O643 O -0.00405 0.52828 0.04204 0.0
C644 C 0.98298 0.49688 -0.00091 0.0
C645 C 0.98556 0.53724 0.97237 0.0
O646 O 0.96626 0.55251 0.02969 0.0
O647 O 0.94997 0.52482 0.02231 0.0
O648 O 0.967 0.50331 -0.00233 0.0
O649 O -0.00493 0.5085 0.01002 0.0
O650 O 0.97513 0.5402 0.9865 0.0
O651 O 0.00219 0.53124 0.97508 0.0
C652 C 0.04523 0.5133 0.98481 0.0
O653 O 0.04807 0.52828 -0.00283 0.0
O654 O 0.02719 0.50635 0.98203 0.0
C655 C 0.01523 0.56104 0.01756 0.0
H656 H 0.01577 0.21542 0.88537 0.0
H657 H 0.01544 0.18825 0.90458 0.0
H658 H 0.01857 0.22654 0.95554 0.0
H659 H 0.0195 0.25391 0.93643 0.0
H660 H 0.04281 0.20167 0.95981 0.0
H661 H 0.97188 0.1617 0.92985 0.0
H662 H 0.9875 0.16662 0.91186 0.0
H663 H 0.98017 0.1862 0.92535 0.0
C664 C 0.01625 0.21805 0.90066 0.0
C665 C 0.01755 0.2368 0.90938 0.0
C666 C 0.01596 0.20248 0.91162 0.0
C667 C 0.01662 0.20529 0.93149 0.0
C668 C 0.01796 0.22401 0.94023 0.0
H669 H 0.9892 0.10963 -0.00064 0.0
H670 H 0.99026 0.13981 0.98467 0.0
C671 C 0.01843 0.23963 0.92929 0.0
C672 C 0.01644 0.18877 0.94316 0.0
H673 H 0.99155 0.14448 0.94848 0.0
C674 C 0.03153 0.18922 0.95744 0.0
C675 C 0.00157 0.17266 0.94029 0.0
C676 C 0.98427 0.17182 0.92615 0.0
C677 C 0.03237 0.17381 0.96862 0.0
C678 C 0.01798 0.15729 0.9651 0.0
C679 C 0.0027 0.15705 0.95108 0.0
C680 C 0.01835 0.14004 0.97567 0.0
C681 C 0.04851 0.17555 0.98428 0.0
C682 C 0.03389 0.13022 0.97576 0.0
C683 C 0.03342 0.1131 0.98444 0.0
C684 C 0.01725 0.10536 0.99283 0.0
C685 C 0.00186 0.11533 0.99302 0.0
C686 C 0.00243 0.13253 0.98458 0.0
H687 H 0.05456 0.19084 0.989 0.0
H688 H 0.04378 0.16835 -0.00323 0.0
H689 H 0.06007 0.16867 0.97892 0.0
H690 H 0.04612 0.13542 0.96857 0.0
H691 H 0.04537 0.10555 0.98392 0.0
H692 H 0.06356 0.77297 0.15072 0.0
H693 H 0.09499 0.77517 0.16833 0.0
H694 H 0.07576 0.80358 0.21702 0.0
H695 H 0.04403 0.80061 0.19976 0.0
H696 H 0.12158 0.80366 0.18382 0.0
H697 H 0.09553 0.76071 0.24096 0.0
H698 H 0.08046 0.76298 0.21976 0.0
H699 H 0.08487 0.78177 0.23906 0.0
C700 C 0.06604 0.77972 0.16517 0.0
C701 C 0.05128 0.78642 0.17396 0.0
C702 C 0.08402 0.78098 0.17522 0.0
C703 C 0.08765 0.78913 0.19417 0.0
C704 C 0.07316 0.79667 0.20265 0.0
H705 H 0.20478 0.81588 0.2503 0.0
H706 H 0.173 0.81875 0.23616 0.0
C707 C 0.05507 0.7951 0.19272 0.0
C708 C 0.10651 0.78946 0.20504 0.0
H709 H 0.12801 0.7754 0.24532 0.0
C710 C 0.12299 0.79748 0.19727 0.0
C711 C 0.10837 0.78112 0.22246 0.0
C712 C 0.09138 0.77098 0.23096 0.0
C713 C 0.14125 0.79731 0.20634 0.0
C714 C 0.14308 0.7895 0.22406 0.0
C715 C 0.1266 0.7816 0.23188 0.0
C716 C 0.16191 0.78824 0.23413 0.0
C717 C 0.15836 0.80479 0.19646 0.0
C718 C 0.16595 0.77031 0.23869 0.0
C719 C 0.18394 0.76868 0.24719 0.0
C720 C 0.19833 0.78497 0.25119 0.0
C721 C 0.19406 0.80303 0.24727 0.0
C722 C 0.17594 0.80468 0.239 0.0
H723 H 0.15449 0.80521 0.18099 0.0
H724 H 0.16441 0.81967 0.20259 0.0
H725 H 0.16958 0.79579 0.19835 0.0
H726 H 0.15534 0.75742 0.23516 0.0
H727 H 0.18674 0.75453 0.24992 0.0
H728 H 0.52004 0.83536 0.42248 0.0
H729 H 0.51452 0.86326 0.44243 0.0
H730 H 0.51934 0.89753 0.39497 0.0
H731 H 0.52538 0.86996 0.37511 0.0
H732 H 0.53832 0.91679 0.42687 0.0
H733 H 0.46562 0.88471 0.44111 0.0
H734 H 0.48348 0.87088 0.44823 0.0
H735 H 0.47814 0.87383 0.42348 0.0
C736 C 0.51997 0.84885 0.4163 0.0
C737 C 0.52307 0.85038 0.39716 0.0
C738 C 0.51667 0.86475 0.42769 0.0
C739 C 0.51611 0.88238 0.42009 0.0
C740 C 0.5196 0.88404 0.40112 0.0
H741 H 0.46673 0.97789 0.46517 0.0
H742 H 0.47403 0.94956 0.44713 0.0
C743 C 0.52307 0.86824 0.38978 0.0
C744 C 0.51206 0.89923 0.43182 0.0
H745 H 0.47893 0.91492 0.45791 0.0
C746 C 0.52533 0.91639 0.43365 0.0
C747 C 0.49498 0.89876 0.44045 0.0
C748 C 0.47964 0.88112 0.4381 0.0
C749 C 0.52201 0.93307 0.44386 0.0
C750 C 0.50519 0.93248 0.45295 0.0
C751 C 0.4919 0.91532 0.45109 0.0
C752 C 0.50087 0.94963 0.464 0.0
C753 C 0.5363 0.95131 0.44435 0.0
C754 C 0.51341 0.95897 0.4796 0.0
C755 C 0.50935 0.97526 0.48976 0.0
C756 C 0.49253 0.9823 0.48467 0.0
C757 C 0.4798 0.97275 0.46934 0.0
C758 C 0.48395 0.95657 0.45906 0.0
H759 H 0.54577 0.95062 0.43288 0.0
H760 H 0.52904 0.96391 0.44294 0.0
H761 H 0.54535 0.95354 0.45816 0.0
H762 H 0.52628 0.95361 0.48402 0.0
H763 H 0.51928 0.98223 0.50169 0.0
H764 H 0.44463 0.25366 0.7135 0.0
H765 H 0.4128 0.25438 0.72252 0.0
H766 H 0.3954 0.27127 0.66741 0.0
H767 H 0.42759 0.27116 0.6584 0.0
H768 H 0.38354 0.29262 0.69466 0.0
H769 H 0.36457 0.21662 0.70819 0.0
H770 H 0.38664 0.22741 0.72174 0.0
H771 H 0.38494 0.2252 0.69614 0.0
C772 C 0.43403 0.25738 0.70319 0.0
C773 C 0.43867 0.26227 0.68518 0.0
C774 C 0.41575 0.25762 0.70833 0.0
C775 C 0.40154 0.26241 0.69549 0.0
C776 C 0.40608 0.26735 0.67749 0.0
H777 H 0.28687 0.24977 0.73282 0.0
H778 H 0.31297 0.24625 0.71352 0.0
C779 C 0.42449 0.26729 0.67237 0.0
C780 C 0.38237 0.26336 0.70145 0.0
H781 H 0.3471 0.23874 0.72366 0.0
C782 C 0.37541 0.28072 0.70071 0.0
C783 C 0.37148 0.24772 0.70893 0.0
C784 C 0.37721 0.22814 0.70859 0.0
C785 C 0.35848 0.28324 0.70829 0.0
C786 C 0.34856 0.26817 0.71736 0.0
C787 C 0.35488 0.25043 0.71704 0.0
C788 C 0.33229 0.27086 0.7282 0.0
C789 C 0.3515 0.30206 0.70656 0.0
C790 C 0.33452 0.28569 0.74299 0.0
C791 C 0.31955 0.28791 0.75374 0.0
C792 C 0.30214 0.27517 0.7501 0.0
C793 C 0.3 0.26006 0.7356 0.0
C794 C 0.31493 0.25797 0.72467 0.0
H795 H 0.35629 0.30885 0.69386 0.0
H796 H 0.33572 0.30011 0.70557 0.0
H797 H 0.3575 0.31214 0.71925 0.0
H798 H 0.34796 0.29541 0.74644 0.0
H799 H 0.32165 0.29955 0.76498 0.0
H800 H 0.98282 0.85177 0.59689 0.0
H801 H 0.98238 0.88015 0.57965 0.0
H802 H 0.98227 0.84572 0.52673 0.0
H803 H 0.98333 0.81726 0.54401 0.0
H804 H 0.00836 0.87779 0.52959 0.0
H805 H 0.93992 0.89682 0.54773 0.0
H806 H 0.95539 0.89484 0.56858 0.0
H807 H 0.94661 0.87395 0.55205 0.0
C808 C 0.98242 0.85016 0.58155 0.0
C809 C 0.98305 0.83228 0.57178 0.0
C810 C 0.98207 0.86639 0.5717 0.0
C811 C 0.98198 0.865 0.55187 0.0
C812 C 0.98224 0.84708 0.54203 0.0
H813 H 0.962 0.96105 0.48882 0.0
H814 H 0.96058 0.92931 0.50025 0.0
C815 C 0.98279 0.83084 0.5519 0.0
C816 C 0.98279 0.88247 0.54162 0.0
H817 H 0.96142 0.92152 0.53583 0.0
C818 C -0.00202 0.88725 0.53076 0.0
C819 C 0.96911 0.89467 0.54297 0.0
C820 C 0.95174 0.8897 0.5533 0.0
C821 C 0.00014 0.90419 0.5216 0.0
C822 C 0.98704 0.91691 0.52383 0.0
C823 C 0.97159 0.91187 0.5343 0.0
C824 C 0.9889 0.93552 0.51542 0.0
C825 C 0.01629 0.90814 0.50947 0.0
C826 C 0.00545 0.94946 0.51984 0.0
C827 C 0.00641 0.96752 0.51298 0.0
C828 C 0.99066 0.97206 0.50211 0.0
C829 C 0.97434 0.95795 0.49727 0.0
C830 C 0.97347 0.93984 0.50386 0.0
H831 H 0.02105 0.89465 0.50441 0.0
H832 H 0.01213 0.91556 0.49694 0.0
H833 H 0.0286 0.91747 0.51807 0.0
H834 H 0.01744 0.94657 0.52895 0.0
H835 H 0.01935 0.97796 0.51628 0.0
H836 H 0.47309 0.78948 0.85457 0.0
H837 H 0.44052 0.78394 0.83915 0.0
H838 H 0.42306 0.74447 0.87997 0.0
H839 H 0.45566 0.75003 0.89571 0.0
H840 H 0.41945 0.74736 0.82326 0.0
H841 H 0.38424 0.78189 0.88015 0.0
H842 H 0.40972 0.78651 0.87953 0.0
H843 H 0.39836 0.76427 0.88701 0.0
C844 C 0.46233 0.77975 0.86042 0.0
C845 C 0.46698 0.7702 0.87638 0.0
C846 C 0.44375 0.77657 0.85155 0.0
C847 C 0.42946 0.76387 0.8585 0.0
C848 C 0.4339 0.7545 0.87457 0.0
H849 H 0.30869 0.74308 0.81442 0.0
H850 H 0.33877 0.73815 0.83131 0.0
C851 C 0.45253 0.75769 0.8835 0.0
C852 C 0.41007 0.76017 0.84844 0.0
H853 H 0.365 0.76867 0.85203 0.0
C854 C 0.40747 0.75184 0.82958 0.0
C855 C 0.39453 0.7659 0.85685 0.0
C856 C 0.39675 0.77526 0.87696 0.0
C857 C 0.38979 0.74962 0.81866 0.0
C858 C 0.37448 0.75614 0.82679 0.0
C859 C 0.37684 0.76367 0.84591 0.0
C860 C 0.35651 0.75715 0.81525 0.0
C861 C 0.3877 0.74061 0.79844 0.0
C862 C 0.35667 0.76933 0.8006 0.0
C863 C 0.33961 0.77222 0.79106 0.0
C864 C 0.32217 0.76301 0.79608 0.0
C865 C 0.32201 0.75031 0.81031 0.0
C866 C 0.33911 0.74749 0.81993 0.0
H867 H 0.39852 0.73129 0.79626 0.0
H868 H 0.37329 0.73192 0.79443 0.0
H869 H 0.38978 0.75213 0.78874 0.0
H870 H 0.36997 0.77719 0.79705 0.0
H871 H 0.34007 0.78212 0.78016 0.0
H872 H 0.50578 0.20191 0.09996 0.0
H873 H 0.50368 0.1748 0.07609 0.0
H874 H 0.48563 0.20897 0.03241 0.0
H875 H 0.4873 0.23624 0.05637 0.0
H876 H 0.46443 0.17268 0.02886 0.0
H877 H 0.54101 0.16862 0.03759 0.0
H878 H 0.53146 0.16823 0.06003 0.0
H879 H 0.53179 0.18917 0.04713 0.0
C880 C 0.50143 0.20375 0.08529 0.0
C881 C 0.49686 0.2213 0.08006 0.0
C882 C 0.50034 0.18825 0.07163 0.0
C883 C 0.49493 0.19003 0.05243 0.0
C884 C 0.49001 0.20739 0.04714 0.0
H885 H 0.51342 0.08861 0.98459 0.0
H886 H 0.51183 0.12269 0.99109 0.0
C887 C 0.49098 0.22293 0.06085 0.0
C888 C 0.4941 0.17346 0.03814 0.0
H889 H 0.51985 0.13941 0.02459 0.0
C890 C 0.47662 0.16556 0.02758 0.0
C891 C 0.51013 0.16454 0.03603 0.0
C892 C 0.5297 0.17323 0.04564 0.0
C893 C 0.47441 0.14809 0.01611 0.0
C894 C 0.48996 0.13811 0.01565 0.0
C895 C 0.50779 0.14685 0.02506 0.0
C896 C 0.48782 0.11782 0.00756 0.0
C897 C 0.45535 0.14041 0.00492 0.0
C898 C 0.47435 0.10369 0.01392 0.0
C899 C 0.47501 0.08422 0.0099 0.0
C900 C 0.48947 0.07856 -0.00013 0.0
C901 C 0.50218 0.0926 0.99245 0.0
C902 C 0.50128 0.11207 -0.00384 0.0
H903 H 0.44825 0.15237 0.00036 0.0
H904 H 0.45673 0.13087 0.99214 0.0
H905 H 0.44598 0.13215 0.0141 0.0
H906 H 0.46418 0.10766 0.02319 0.0
H907 H 0.46514 0.07374 0.01599 0.0
H908 H 0.09338 0.25696 0.41244 0.0
H909 H 0.11897 0.25942 0.39156 0.0
H910 H 0.07907 0.23067 0.34474 0.0
H911 H 0.05353 0.22831 0.36532 0.0
H912 H 0.13277 0.2311 0.36549 0.0
H913 H 0.09894 0.28581 0.32943 0.0
H914 H 0.09316 0.27856 0.35229 0.0
H915 H 0.08349 0.2634 0.33098 0.0
C916 C 0.0902 0.25078 0.39782 0.0
C917 C 0.07147 0.24272 0.39039 0.0
C918 C 0.10477 0.25222 0.38593 0.0
C919 C 0.1007 0.24556 0.36659 0.0
C920 C 0.08234 0.23617 0.35957 0.0
H921 H 0.17958 0.24015 0.28118 0.0
H922 H 0.15302 0.23297 0.30038 0.0
C923 C 0.06782 0.23481 0.37135 0.0
C924 C 0.11512 0.24982 0.35334 0.0
H925 H 0.12518 0.27591 0.31604 0.0
C926 C 0.13117 0.24086 0.35466 0.0
C927 C 0.11296 0.26276 0.33943 0.0
C928 C 0.0963 0.27334 0.33797 0.0
C929 C 0.14512 0.24437 0.34217 0.0
C930 C 0.14272 0.25696 0.32796 0.0
C931 C 0.12677 0.26607 0.32681 0.0
C932 C 0.15717 0.26165 0.31481 0.0
C933 C 0.1625 0.23491 0.3445 0.0
C934 C 0.16752 0.28037 0.31594 0.0
C935 C 0.18254 0.28452 0.30495 0.0
C936 C 0.1873 0.27001 0.29262 0.0
C937 C 0.17616 0.25157 0.29061 0.0
C938 C 0.16115 0.24741 0.30166 0.0
H939 H 0.16403 0.22886 0.35842 0.0
H940 H 0.16129 0.22299 0.3331 0.0
H941 H 0.17561 0.24534 0.34324 0.0
H942 H 0.1645 0.29156 0.32592 0.0
H943 H 0.19093 0.29886 0.30671 0.0
H944 H 0.92606 0.07871 0.20363 0.0
H945 H 0.94586 0.07679 0.17765 0.0
H946 H 0.89688 0.04765 0.14029 0.0
H947 H 0.87681 0.04987 0.16623 0.0
H948 H 0.95258 0.044 0.15924 0.0
H949 H 0.9207 0.088 0.10795 0.0
H950 H 0.91575 0.0885 0.13243 0.0
H951 H 0.90372 0.06923 0.11534 0.0
C952 C 0.91942 0.07213 0.18981 0.0
C953 C 0.89987 0.06441 0.18697 0.0
C954 C 0.93077 0.07103 0.17499 0.0
C955 C 0.92284 0.06221 0.157 0.0
C956 C 0.90324 0.05485 0.15397 0.0
H957 H 0.97935 0.01127 0.06949 0.0
H958 H 0.96337 0.01816 0.09741 0.0
C959 C 0.8918 0.05605 0.16881 0.0
C960 C 0.93539 0.05967 0.14189 0.0
H961 H 0.94251 0.06896 0.09644 0.0
C962 C 0.95046 0.04957 0.14555 0.0
C963 C 0.93276 0.06716 0.12414 0.0
C964 C 0.91748 0.07899 0.11975 0.0
C965 C 0.96272 0.0464 0.13179 0.0
C966 C 0.9596 0.0532 0.11377 0.0
C967 C 0.94481 0.06367 0.11025 0.0
C968 C 0.97106 0.04907 0.09811 0.0
C969 C 0.97898 0.03593 0.13675 0.0
C970 C 0.98081 0.06416 0.08927 0.0
C971 C 0.98992 0.06029 0.07319 0.0
C972 C 0.9893 0.04122 0.06557 0.0
C973 C 0.98019 0.02613 0.07497 0.0
C974 C 0.97108 0.03003 0.09101 0.0
H975 H 0.98284 0.03688 0.15236 0.0
H976 H 0.97465 0.0205 0.13153 0.0
H977 H 0.99179 0.04179 0.12999 0.0
H978 H 0.98095 0.07897 0.09452 0.0
H979 H -0.00325 0.07228 0.06632 0.0
H980 H 0.27406 0.72242 0.46383 0.0
H981 H 0.26921 0.73791 0.4346 0.0
H982 H 0.29781 0.69745 0.40505 0.0
H983 H 0.30195 0.68139 0.43406 0.0
H984 H 0.29158 0.75603 0.41276 0.0
H985 H 0.25036 0.69164 0.36959 0.0
H986 H 0.25639 0.69214 0.39487 0.0
H987 H 0.27349 0.68778 0.3787 0.0
C988 C 0.27939 0.71686 0.45113 0.0
C989 C 0.28828 0.70058 0.45126 0.0
C990 C 0.27656 0.72571 0.43438 0.0
C991 C 0.28268 0.7186 0.41738 0.0
C992 C 0.29234 0.70286 0.41773 0.0
H993 H 0.29569 0.78551 0.32011 0.0
H994 H 0.30029 0.76905 0.34872 0.0
C995 C 0.29491 0.69381 0.43441 0.0
C996 C 0.27912 0.72784 0.39947 0.0
H997 H 0.26075 0.71858 0.35275 0.0
C998 C 0.28475 0.74781 0.39968 0.0
C999 C 0.26984 0.71728 0.38239 0.0
C1000 C 0.26199 0.69607 0.38139 0.0
C1001 C 0.28168 0.75743 0.38338 0.0
C1002 C 0.27334 0.74673 0.36605 0.0
C1003 C 0.26738 0.7268 0.3659 0.0
C1004 C 0.27066 0.75595 0.34799 0.0
C1005 C 0.28699 0.77907 0.38511 0.0
C1006 C 0.25267 0.75331 0.33732 0.0
C1007 C 0.25011 0.76241 0.32064 0.0
C1008 C 0.26547 0.77439 0.3144 0.0
C1009 C 0.28352 0.77663 0.32479 0.0
C1010 C 0.28613 0.76732 0.34124 0.0
H1011 H 0.28709 0.78532 0.39998 0.0
H1012 H 0.30155 0.78312 0.38094 0.0
H1013 H 0.27699 0.78559 0.37579 0.0
H1014 H 0.24052 0.74448 0.34209 0.0
H1015 H 0.23606 0.76046 0.31289 0.0
H1016 H 0.56442 0.9618 0.70714 0.0
H1017 H 0.54959 0.96621 0.67562 0.0
H1018 H 0.59751 0.00989 0.66894 0.0
H1019 H 0.61282 0.00464 0.69979 0.0
H1020 H 0.53683 0.99463 0.66248 0.0
H1021 H 0.59388 0.98045 0.6191 0.0
H1022 H 0.59438 0.97563 0.64366 0.0
H1023 H 0.60287 -0.00051 0.6374 0.0
C1024 C 0.57192 0.97207 0.69874 0.0
C1025 C 0.58989 0.98267 0.70581 0.0
C1026 C 0.5634 0.97466 0.68076 0.0
C1027 C 0.57254 0.98813 0.6696 0.0
C1028 C 0.59041 -0.0011 0.67683 0.0
H1029 H 0.51284 0.03908 0.57866 0.0
H1030 H 0.52627 0.03083 0.60936 0.0
C1031 C 0.59913 0.99597 0.69458 0.0
C1032 C 0.56303 0.99158 0.65087 0.0
H1033 H 0.57066 0.99725 0.60475 0.0
C1034 C 0.54417 0.99497 0.6498 0.0
C1035 C 0.57238 0.99172 0.63415 0.0
C1036 C 0.59191 0.98641 0.63359 0.0
C1037 C 0.53458 -0.00119 0.63269 0.0
C1038 C 0.54438 0.00019 0.61628 0.0
C1039 C 0.56313 0.99648 0.6173 0.0
C1040 C 0.53552 0.00508 0.5978 0.0
C1041 C 0.5139 0.00083 0.63238 0.0
C1042 C 0.53671 0.99382 0.58089 0.0
C1043 C 0.52967 -0.00107 0.56334 0.0
C1044 C 0.5209 0.0152 0.56228 0.0
C1045 C 0.51929 0.02629 0.57913 0.0
C1046 C 0.52684 0.02147 0.59671 0.0
H1047 H 0.50701 0.99294 0.64352 0.0
H1048 H 0.51292 0.01622 0.63534 0.0
H1049 H 0.5058 0.99535 0.61838 0.0
H1050 H 0.54329 0.98111 0.58123 0.0
H1051 H 0.53106 0.99009 0.55055 0.0
H1052 H 0.2438 0.35525 0.99227 0.0
H1053 H 0.25094 0.33302 0.96684 0.0
H1054 H 0.25287 0.37763 0.92877 0.0
H1055 H 0.2458 0.39995 0.95399 0.0
H1056 H 0.22828 0.32244 0.93147 0.0
H1057 H 0.30198 0.35545 0.92196 0.0
H1058 H 0.291 0.3605 0.94327 0.0
H1059 H 0.28604 0.37254 0.92245 0.0
C1060 C 0.24594 0.3604 0.97854 0.0
C1061 C 0.24421 0.37938 0.97514 0.0
C1062 C 0.25003 0.34768 0.96407 0.0
C1063 C 0.25272 0.35381 0.94608 0.0
C1064 C 0.25123 0.37277 0.9427 0.0
H1065 H 0.23224 0.31158 0.83305 0.0
H1066 H 0.23208 0.32246 0.8665 0.0
C1067 C 0.24703 0.38545 0.95709 0.0
C1068 C 0.25557 0.34014 0.93027 0.0
H1069 H 0.28426 0.33495 0.89522 0.0
C1070 C 0.2407 0.32488 0.92376 0.0
C1071 C 0.27191 0.34318 0.92046 0.0
C1072 C 0.28874 0.35869 0.9275 0.0
C1073 C 0.24111 0.3135 0.9068 0.0
C1074 C 0.2567 0.31767 0.89612 0.0
C1075 C 0.27224 0.33192 0.9034 0.0
C1076 C 0.25599 0.30932 0.87631 0.0
C1077 C 0.22453 0.29763 0.90003 0.0
C1078 C 0.2696 0.29844 0.8708 0.0
C1079 C 0.2697 0.29216 0.85163 0.0
C1080 C 0.2564 0.29702 0.83782 0.0
C1081 C 0.24267 0.30768 0.84345 0.0
C1082 C 0.24246 0.31377 0.86254 0.0
H1083 H 0.21694 0.29242 0.91207 0.0
H1084 H 0.21425 0.30321 0.89015 0.0
H1085 H 0.22928 0.28533 0.89232 0.0
H1086 H 0.28027 0.29507 0.88127 0.0
H1087 H 0.28044 0.28398 0.84756 0.0
H1088 H 0.88362 0.06593 0.30392 0.0
H1089 H 0.89359 0.06876 0.33816 0.0
H1090 H 0.94976 0.05975 0.32691 0.0
H1091 H 0.93993 0.05661 0.29286 0.0
H1092 H 0.93274 0.03451 0.35029 0.0
H1093 H 0.9289 0.1099 0.37552 0.0
H1094 H 0.90794 0.09685 0.36136 0.0
H1095 H 0.92979 0.10214 0.35081 0.0
C1096 C 0.89818 0.06488 0.30875 0.0
C1097 C 0.91092 0.06084 0.29568 0.0
C1098 C 0.90389 0.06663 0.32831 0.0
C1099 C 0.92245 0.06461 0.33503 0.0
C1100 C 0.93538 0.06139 0.32199 0.0
H1101 H 0.98326 0.07004 0.44707 0.0
H1102 H 0.97118 0.0778 0.4156 0.0
C1103 C 0.92969 0.05953 0.30253 0.0
C1104 C 0.92792 0.06359 0.35548 0.0
H1105 H 0.93424 0.08888 0.39927 0.0
C1106 C 0.9331 0.04642 0.36098 0.0
C1107 C 0.92845 0.07919 0.36934 0.0
C1108 C 0.92363 0.09815 0.36402 0.0
C1109 C 0.93876 0.04436 0.38 0.0
C1110 C 0.93891 0.05978 0.39393 0.0
C1111 C 0.9339 0.07705 0.3885 0.0
C1112 C 0.94456 0.05797 0.41415 0.0
C1113 C 0.94479 0.02576 0.38501 0.0
C1114 C 0.93325 0.0448 0.4239 0.0
C1115 C 0.94011 0.04036 0.44176 0.0
C1116 C 0.9583 0.04915 0.45017 0.0
C1117 C 0.96911 0.06324 0.44093 0.0
C1118 C 0.96225 0.06765 0.423 0.0
H1119 H 0.94765 0.01698 0.37228 0.0
H1120 H 0.95778 0.02859 0.39536 0.0
H1121 H 0.93324 0.01717 0.39167 0.0
H1122 H 0.91951 0.03729 0.41729 0.0
H1123 H 0.93148 0.02951 0.44866 0.0
H1124 H 0.27865 0.66506 0.58328 0.0
H1125 H 0.27678 0.68455 0.61256 0.0
H1126 H 0.29085 0.73614 0.58479 0.0
H1127 H 0.29284 0.71657 0.55503 0.0
H1128 H 0.3103 0.73628 0.62361 0.0
H1129 H 0.23193 0.71428 0.61933 0.0
H1130 H 0.24465 0.69455 0.6167 0.0
H1131 H 0.24508 0.71148 0.5991 0.0
C1132 C 0.28145 0.68055 0.58327 0.0
C1133 C 0.28572 0.6892 0.56662 0.0
C1134 C 0.28032 0.69168 0.6001 0.0
C1135 C 0.28336 0.71178 0.60081 0.0
C1136 C 0.28834 0.72062 0.58451 0.0
H1137 H 0.24675 0.77897 0.69468 0.0
H1138 H 0.25298 0.76663 0.66321 0.0
C1139 C 0.28947 0.70942 0.56752 0.0
C1140 C 0.28073 0.72323 0.61855 0.0
H1141 H 0.24761 0.72935 0.64907 0.0
C1142 C 0.29657 0.73496 0.62911 0.0
C1143 C 0.26278 0.72165 0.62563 0.0
C1144 C 0.24508 0.70996 0.61454 0.0
C1145 C 0.29504 0.7446 0.64688 0.0
C1146 C 0.27724 0.74224 0.65439 0.0
C1147 C 0.2613 0.73105 0.64346 0.0
C1148 C 0.27473 0.75098 0.67359 0.0
C1149 C 0.31246 0.75726 0.65743 0.0
C1150 C 0.28488 0.74634 0.69002 0.0
C1151 C 0.28138 0.75343 0.70811 0.0
C1152 C 0.26752 0.7652 0.71019 0.0
C1153 C 0.25754 0.76998 0.69369 0.0
C1154 C 0.26109 0.76293 0.67563 0.0
H1155 H 0.3232 0.76197 0.64768 0.0
H1156 H 0.3087 0.77018 0.66503 0.0
H1157 H 0.31915 0.74906 0.66808 0.0
H1158 H 0.29514 0.73676 0.68889 0.0
H1159 H 0.2892 0.74925 0.72047 0.0
H1160 H 0.54524 0.00227 0.80461 0.0
H1161 H 0.53444 0.00566 0.83599 0.0
H1162 H 0.586 0.98947 0.86098 0.0
H1163 H 0.597 0.98581 0.82934 0.0
H1164 H 0.55217 0.97218 0.87569 0.0
H1165 H 0.5565 0.05097 0.87575 0.0
H1166 H 0.54271 0.03775 0.85504 0.0
H1167 H 0.56776 0.03709 0.85917 0.0
C1168 C 0.55433 -0.00067 0.81671 0.0
C1169 C 0.57212 0.99395 0.81443 0.0
C1170 C 0.54814 0.00138 0.83468 0.0
C1171 C 0.5596 0.99827 0.85087 0.0
C1172 C 0.57702 0.99213 0.84867 0.0
H1173 H 0.53509 0.00786 0.9701 0.0
H1174 H 0.55128 0.00372 0.94151 0.0
C1175 C 0.58326 0.99001 0.83059 0.0
C1176 C 0.55326 0.00169 0.86997 0.0
H1177 H 0.53881 0.03596 0.89908 0.0
C1178 C 0.54949 0.98616 0.88096 0.0
C1179 C 0.54984 0.01998 0.87683 0.0
C1180 C 0.55459 0.03745 0.86618 0.0
C1181 C 0.54154 0.98825 0.89823 0.0
C1182 C 0.5375 0.0064 0.90472 0.0
C1183 C 0.54181 0.02204 0.894 0.0
C1184 C 0.52804 0.00931 0.92218 0.0
C1185 C 0.53682 0.97088 0.90902 0.0
C1186 C 0.50984 0.01435 0.92085 0.0
C1187 C 0.5006 0.01679 0.93715 0.0
C1188 C 0.50948 0.01437 0.95507 0.0
C1189 C 0.52789 0.00977 0.95645 0.0
C1190 C 0.5371 0.00727 0.94013 0.0
H1191 H 0.53738 0.95729 0.90032 0.0
H1192 H 0.54724 0.9721 0.92183 0.0
H1193 H 0.52241 0.97007 0.9138 0.0
H1194 H 0.50265 0.01611 0.90715 0.0
H1195 H 0.48644 0.02039 0.93569 0.0
H1196 H 0.22575 0.39481 0.10342 0.0
H1197 H 0.22641 0.37605 0.13089 0.0
H1198 H 0.22312 0.32422 0.09367 0.0
H1199 H 0.22224 0.34281 0.06607 0.0
H1200 H 0.19943 0.32054 0.12425 0.0
H1201 H 0.27451 0.35388 0.14837 0.0
H1202 H 0.25855 0.37068 0.14479 0.0
H1203 H 0.26334 0.35564 0.12485 0.0
C1204 C 0.22503 0.3794 0.10107 0.0
C1205 C 0.22414 0.3703 0.08261 0.0
C1206 C 0.22545 0.36873 0.11676 0.0
C1207 C 0.22508 0.34883 0.11426 0.0
C1208 C 0.22347 0.33959 0.09584 0.0
H1209 H 0.2653 0.28284 0.20184 0.0
H1210 H 0.2579 0.29535 0.17148 0.0
C1211 C 0.22303 0.35024 0.08012 0.0
C1212 C 0.22731 0.33782 0.13089 0.0
H1213 H 0.25857 0.33378 0.16901 0.0
C1214 C 0.21235 0.32335 0.13405 0.0
C1215 C 0.24431 0.34138 0.14341 0.0
C1216 C 0.26119 0.35611 0.14016 0.0
C1217 C 0.21385 0.31254 0.14971 0.0
C1218 C 0.23065 0.31653 0.16254 0.0
C1219 C 0.24568 0.3308 0.15917 0.0
C1220 C 0.2331 0.30633 0.17974 0.0
C1221 C 0.19758 0.29684 0.15228 0.0
C1222 C 0.22133 0.30798 0.19429 0.0
C1223 C 0.22546 0.30074 0.21166 0.0
C1224 C 0.24158 0.29196 0.2148 0.0
C1225 C 0.25284 0.2896 0.1999 0.0
C1226 C 0.24862 0.29673 0.18254 0.0
H1227 H 0.18816 0.29221 0.1388 0.0
H1228 H 0.20293 0.28414 0.15751 0.0
H1229 H 0.18889 0.30228 0.16293 0.0
H1230 H 0.2095 0.31568 0.19256 0.0
H1231 H 0.21662 0.30293 0.22292 0.0
H1232 H 0.18006 0.94454 0.04631 0.0
H1233 H 0.15454 0.96347 0.04682 0.0
H1234 H 0.11426 0.91427 0.02058 0.0
H1235 H 0.13977 0.895 0.0206 0.0
H1236 H 0.13383 0.97301 0.01747 0.0
H1237 H 0.08513 0.93233 0.06208 0.0
H1238 H 0.10908 0.92801 0.06038 0.0
H1239 H 0.09028 0.91785 0.04198 0.0
C1240 C 0.16573 0.93765 0.04086 0.0
C1241 C 0.16195 0.91825 0.03343 0.0
C1242 C 0.15113 0.94851 0.04115 0.0
C1243 C 0.13238 0.94031 0.03394 0.0
C1244 C 0.12849 0.92085 0.02666 0.0
H1245 H 0.03204 0.99017 0.00465 0.0
H1246 H 0.05556 0.96907 0.00928 0.0
C1247 C 0.14311 0.90986 0.02657 0.0
C1248 C 0.11733 0.95259 0.03301 0.0
H1249 H 0.07318 0.95678 0.04576 0.0
C1250 C 0.12065 0.9695 0.02381 0.0
C1251 C 0.10006 0.94805 0.04123 0.0
C1252 C 0.09596 0.93067 0.05214 0.0
C1253 C 0.10718 0.9818 0.02241 0.0
C1254 C 0.08992 0.97719 0.03049 0.0
C1255 C 0.08648 0.96029 0.03963 0.0
C1256 C 0.07509 0.98955 0.02903 0.0
C1257 C 0.11132 -0.00049 0.01196 0.0
C1258 C 0.07811 0.00796 0.03891 0.0
C1259 C 0.06455 0.02002 0.03646 0.0
C1260 C 0.04781 0.01386 0.02404 0.0
C1261 C 0.0447 0.99528 0.01447 0.0
C1262 C 0.05814 0.98319 0.01705 0.0
H1263 H 0.12385 -0.00062 0.00387 0.0
H1264 H 0.0988 0.00077 0.00196 0.0
H1265 H 0.11427 0.01246 0.02236 0.0
H1266 H 0.09107 0.01308 0.0483 0.0
H1267 H 0.06733 0.03425 0.04401 0.0
H1268 H 0.69903 0.58487 0.95287 0.0
H1269 H 0.66645 0.56699 0.95048 0.0
H1270 H 0.64749 0.61791 0.97359 0.0
H1271 H 0.67964 0.63599 0.97482 0.0
H1272 H 0.6473 0.55798 0.97731 0.0
H1273 H 0.60465 0.60002 0.93419 0.0
H1274 H 0.63031 0.60427 0.93586 0.0
H1275 H 0.61813 0.61566 0.95351 0.0
C1276 C 0.68775 0.59231 0.95694 0.0
C1277 C 0.6918 0.6118 0.96394 0.0
C1278 C 0.66916 0.5821 0.95562 0.0
C1279 C 0.65435 0.59112 0.96158 0.0
C1280 C 0.65841 0.61072 0.96824 0.0
H1281 H 0.56205 0.54038 0.01832 0.0
H1282 H 0.59241 0.55342 0.0075 0.0
C1283 C 0.67688 0.62104 0.96911 0.0
C1284 C 0.63527 0.57967 0.96296 0.0
H1285 H 0.58776 0.58131 0.95672 0.0
C1286 C 0.63428 0.5629 0.97243 0.0
C1287 C 0.61815 0.58569 0.95626 0.0
C1288 C 0.61789 0.60227 0.9442 0.0
C1289 C 0.61681 0.55268 0.97631 0.0
C1290 C 0.59989 0.5599 0.9714 0.0
C1291 C 0.60074 0.57598 0.96092 0.0
C1292 C 0.58139 0.55162 0.9778 0.0
C1293 C 0.61679 0.53426 0.98565 0.0
C1294 C 0.56483 0.54703 0.96489 0.0
C1295 C 0.54729 0.54011 0.97118 0.0
C1296 C 0.54608 0.53741 0.99045 0.0
C1297 C 0.56263 0.54196 0.00333 0.0
C1298 C 0.58004 0.54928 -0.00289 0.0
H1299 H 0.62875 0.52711 0.9817 0.0
H1300 H 0.61878 0.5376 0.00132 0.0
H1301 H 0.60325 0.52403 0.98164 0.0
H1302 H 0.56545 0.54886 0.94994 0.0
H1303 H 0.53472 0.53674 0.96095 0.0
H1304 H 0.65593 0.43959 0.29979 0.0
H1305 H 0.67398 0.41315 0.29972 0.0
H1306 H 0.71733 0.44644 0.27184 0.0
H1307 H 0.69964 0.47317 0.27242 0.0
H1308 H 0.68218 0.39281 0.2695 0.0
H1309 H 0.74959 0.42667 0.31256 0.0
H1310 H 0.72853 0.43762 0.31165 0.0
H1311 H 0.74378 0.43984 0.29289 0.0
C1312 C 0.66949 0.44141 0.29397 0.0
C1313 C 0.6764 0.45849 0.28618 0.0
C1314 C 0.67976 0.42627 0.29388 0.0
C1315 C 0.69712 0.42784 0.28594 0.0
C1316 C 0.70422 0.44503 0.27845 0.0
H1317 H 0.74565 0.32847 0.24558 0.0
H1318 H 0.72939 0.35638 0.24778 0.0
C1319 C 0.69405 0.46028 0.27873 0.0
C1320 C 0.70707 0.41106 0.28441 0.0
H1321 H 0.74972 0.39663 0.29496 0.0
C1322 C 0.69692 0.39361 0.27519 0.0
C1323 C 0.72625 0.41205 0.29194 0.0
C1324 C 0.73762 0.43 0.30298 0.0
C1325 C 0.70542 0.37717 0.27318 0.0
C1326 C 0.72481 0.37834 0.28011 0.0
C1327 C 0.73492 0.39576 0.28946 0.0
C1328 C 0.73474 0.36154 0.27846 0.0
C1329 C 0.69337 0.35867 0.26397 0.0
C1330 C 0.74366 0.35552 0.29485 0.0
C1331 C 0.75314 0.33983 0.29355 0.0
C1332 C 0.75375 0.32975 0.27585 0.0
C1333 C 0.74505 0.33584 0.2594 0.0
C1334 C 0.73572 0.35171 0.26068 0.0
H1335 H 0.67798 0.35862 0.26499 0.0
H1336 H 0.69542 0.35718 0.24867 0.0
H1337 H 0.6974 0.346 0.27055 0.0
H1338 H 0.74315 0.36287 0.30871 0.0
H1339 H 0.75972 0.33538 0.30645 0.0
H1340 H 0.76627 0.46317 0.52656 0.0
H1341 H 0.80041 0.47479 0.52751 0.0
H1342 H 0.81065 0.41634 0.52418 0.0
H1343 H 0.77643 0.40465 0.5242 0.0
H1344 H 0.8383 0.43918 0.54693 0.0
H1345 H 0.82637 0.47312 0.48028 0.0
H1346 H 0.81402 0.48255 0.49868 0.0
H1347 H 0.80761 0.45761 0.48956 0.0
C1348 C 0.77583 0.4528 0.52626 0.0
C1349 C 0.76871 0.433 0.52507 0.0
C1350 C 0.79532 0.45945 0.52665 0.0
C1351 C 0.80804 0.44643 0.52525 0.0
C1352 C 0.80108 0.42666 0.52507 0.0
H1353 H 0.91797 0.47765 0.48402 0.0
H1354 H 0.88514 0.46433 0.4884 0.0
C1355 C 0.78155 0.41999 0.52511 0.0
C1356 C 0.82841 0.45343 0.52321 0.0
H1357 H 0.85746 0.48105 0.49681 0.0
C1358 C 0.84252 0.44825 0.53592 0.0
C1359 C 0.83395 0.46494 0.50857 0.0
C1360 C 0.81969 0.4697 0.49338 0.0
C1361 C 0.86199 0.45451 0.53457 0.0
C1362 C 0.86746 0.46682 0.52053 0.0
C1363 C 0.85332 0.4718 0.50772 0.0
C1364 C 0.88772 0.47431 0.51833 0.0
C1365 C 0.87641 0.4474 0.5479 0.0
C1366 C 0.90017 0.48447 0.53364 0.0
C1367 C 0.91908 0.49176 0.53121 0.0
C1368 C 0.92569 0.48947 0.51332 0.0
C1369 C 0.91319 0.47965 0.49795 0.0
C1370 C 0.89444 0.47204 0.50046 0.0
H1371 H 0.87022 0.43374 0.55337 0.0
H1372 H 0.8891 0.44503 0.54079 0.0
H1373 H 0.88109 0.45825 0.56029 0.0
H1374 H 0.89522 0.48698 0.54741 0.0
H1375 H 0.92844 0.49943 0.54324 0.0
H1376 H 0.38726 0.1379 0.25476 0.0
H1377 H 0.36966 0.16467 0.25773 0.0
H1378 H 0.31663 0.12497 0.245 0.0
H1379 H 0.33409 0.09823 0.24163 0.0
H1380 H 0.31721 0.15651 0.22517 0.0
H1381 H 0.34056 0.17897 0.30158 0.0
H1382 H 0.35972 0.1785 0.28706 0.0
H1383 H 0.34431 0.15647 0.29008 0.0
C1384 C 0.37184 0.13486 0.25267 0.0
C1385 C 0.36208 0.11591 0.24804 0.0
C1386 C 0.3618 0.15018 0.25446 0.0
C1387 C 0.34179 0.14682 0.25186 0.0
C1388 C 0.33205 0.12792 0.24713 0.0
H1389 H 0.26306 0.21862 0.28746 0.0
H1390 H 0.2835 0.19455 0.28286 0.0
C1391 C 0.34206 0.11263 0.24525 0.0
C1392 C 0.33091 0.16292 0.2538 0.0
H1393 H 0.32214 0.19862 0.28525 0.0
C1394 C 0.31832 0.16576 0.23829 0.0
C1395 C 0.33223 0.17487 0.27099 0.0
C1396 C 0.34479 0.172 0.28845 0.0
C1397 C 0.30692 0.18009 0.23952 0.0
C1398 C 0.30842 0.1922 0.25663 0.0
C1399 C 0.32111 0.18945 0.27209 0.0
C1400 C 0.29615 0.20704 0.2592 0.0
C1401 C 0.29292 0.18169 0.22269 0.0
C1402 C 0.29649 0.22217 0.24749 0.0
C1403 C 0.28462 0.23585 0.24997 0.0
C1404 C 0.27246 0.2348 0.26441 0.0
C1405 C 0.27226 0.21977 0.27619 0.0
C1406 C 0.284 0.20605 0.27363 0.0
H1407 H 0.29022 0.16849 0.21259 0.0
H1408 H 0.27913 0.18435 0.22735 0.0
H1409 H 0.29879 0.19394 0.21495 0.0
H1410 H 0.30599 0.22347 0.23649 0.0
H1411 H 0.28496 0.24723 0.24061 0.0
H1412 H 0.27592 0.06714 0.5109 0.0
H1413 H 0.30478 0.0544 0.52045 0.0
H1414 H 0.33928 0.10559 0.50534 0.0
H1415 H 0.31057 0.11848 0.49567 0.0
H1416 H 0.33578 0.04931 0.49662 0.0
H1417 H 0.35903 0.0991 0.56208 0.0
H1418 H 0.33475 0.09431 0.55097 0.0
H1419 H 0.3526 0.11027 0.5411 0.0
C1420 C 0.28964 0.07569 0.50955 0.0
C1421 C 0.29095 0.09386 0.50257 0.0
C1422 C 0.30608 0.06838 0.51504 0.0
C1423 C 0.32406 0.07922 0.51387 0.0
C1424 C 0.32546 0.09718 0.50661 0.0
H1425 H 0.44103 0.07574 0.5262 0.0
H1426 H 0.40901 0.08326 0.52623 0.0
C1427 C 0.30905 0.10444 0.50097 0.0
C1428 C 0.34147 0.07162 0.51977 0.0
H1429 H 0.38172 0.08095 0.5511 0.0
C1430 C 0.34574 0.05597 0.50869 0.0
C1431 C 0.35428 0.08041 0.53556 0.0
C1432 C 0.34993 0.09686 0.54825 0.0
C1433 C 0.36312 0.04954 0.51232 0.0
C1434 C 0.37627 0.05874 0.52776 0.0
C1435 C 0.37158 0.07388 0.53933 0.0
C1436 C 0.39581 0.05444 0.53067 0.0
C1437 C 0.36768 0.03372 0.49891 0.0
C1438 C 0.39913 0.03592 0.53398 0.0
C1439 C 0.41748 0.03154 0.53384 0.0
C1440 C 0.43267 0.0457 0.53055 0.0
C1441 C 0.42952 0.06453 0.52863 0.0
C1442 C 0.41124 0.06885 0.52868 0.0
H1443 H 0.35762 0.03083 0.4857 0.0
H1444 H 0.38237 0.03745 0.49493 0.0
H1445 H 0.36674 0.02027 0.50605 0.0
H1446 H 0.38745 0.02471 0.53597 0.0
H1447 H 0.41961 0.01694 0.53545 0.0
H1448 H 0.68282 0.56187 0.29039 0.0
H1449 H 0.70111 0.5945 0.29175 0.0
H1450 H 0.65384 0.61246 0.25999 0.0
H1451 H 0.63542 0.58021 0.25884 0.0
H1452 H 0.71223 0.61565 0.26272 0.0
H1453 H 0.66578 0.65323 0.30476 0.0
H1454 H 0.66388 0.62741 0.30262 0.0
H1455 H 0.6528 0.63916 0.28411 0.0
C1456 C 0.67627 0.5728 0.28382 0.0
C1457 C 0.65758 0.56841 0.27462 0.0
C1458 C 0.68675 0.59144 0.28459 0.0
C1459 C 0.67871 0.60602 0.27628 0.0
C1460 C 0.66017 0.60159 0.26694 0.0
H1461 H 0.73126 0.71104 0.23588 0.0
H1462 H 0.71736 0.67808 0.24035 0.0
C1463 C 0.64969 0.58306 0.2662 0.0
C1464 C 0.68981 0.62572 0.2767 0.0
H1465 H 0.68769 0.67302 0.28793 0.0
C1466 C 0.70699 0.62819 0.26843 0.0
C1467 C 0.68315 0.64208 0.28443 0.0
C1468 C 0.66549 0.64036 0.29466 0.0
C1469 C 0.71726 0.64661 0.26697 0.0
C1470 C 0.70994 0.663 0.27362 0.0
C1471 C 0.69318 0.66048 0.2826 0.0
C1472 C 0.71912 0.68287 0.271 0.0
C1473 C 0.73587 0.64832 0.25838 0.0
C1474 C 0.72432 0.69671 0.28669 0.0
C1475 C 0.73207 0.71567 0.28416 0.0
C1476 C 0.73475 0.7212 0.26587 0.0
C1477 C 0.72957 0.70728 0.25018 0.0
C1478 C 0.72173 0.68835 0.25273 0.0
H1479 H 0.74232 0.63518 0.25967 0.0
H1480 H 0.73326 0.65013 0.24303 0.0
H1481 H 0.74625 0.66092 0.26527 0.0
H1482 H 0.72232 0.69285 0.30091 0.0
H1483 H 0.73586 0.72599 0.29657 0.0
H1484 H 0.84385 0.51609 0.74408 0.0
H1485 H 0.82209 0.48634 0.74762 0.0
H1486 H 0.8657 0.45335 0.73525 0.0
H1487 H 0.88751 0.48284 0.73169 0.0
H1488 H 0.81006 0.45143 0.72069 0.0
H1489 H 0.84976 0.43878 0.78827 0.0
H1490 H 0.85252 0.46193 0.7789 0.0
H1491 H 0.86413 0.44335 0.76915 0.0
C1492 C 0.84879 0.5025 0.74201 0.0
C1493 C 0.86749 0.50189 0.73774 0.0
C1494 C 0.83632 0.48554 0.74402 0.0
C1495 C 0.84241 0.46773 0.74194 0.0
C1496 C 0.86084 0.46701 0.73716 0.0
H1497 H 0.78699 0.34988 0.72747 0.0
H1498 H 0.80186 0.38274 0.72333 0.0
C1499 C 0.87326 0.4839 0.73507 0.0
C1500 C 0.82974 0.44983 0.74514 0.0
H1501 H 0.82614 0.413 0.77352 0.0
C1502 C 0.81344 0.44307 0.73232 0.0
C1503 C 0.83408 0.43915 0.76047 0.0
C1504 C 0.85098 0.4462 0.77512 0.0
C1505 C 0.80172 0.42546 0.73405 0.0
C1506 C 0.80658 0.41435 0.74888 0.0
C1507 C 0.8225 0.42149 0.76209 0.0
C1508 C 0.7959 0.3949 0.7506 0.0
C1509 C 0.78427 0.4189 0.72 0.0
C1510 C 0.78771 0.3908 0.76735 0.0
C1511 C 0.7793 0.37202 0.76977 0.0
C1512 C 0.7791 0.35703 0.75555 0.0
C1513 C 0.78691 0.3612 0.73863 0.0
C1514 C 0.79528 0.37998 0.7362 0.0
H1515 H 0.77959 0.43114 0.71312 0.0
H1516 H 0.78763 0.40866 0.70868 0.0
H1517 H 0.7723 0.41144 0.72698 0.0
H1518 H 0.78816 0.40208 0.77868 0.0
H1519 H 0.77341 0.36915 0.78296 0.0
H1520 H 0.98383 0.80225 0.08188 0.0
H1521 H 0.98128 0.82816 0.0614 0.0
H1522 H 0.9831 0.86815 0.11085 0.0
H1523 H 0.98527 0.8423 0.13138 0.0
H1524 H 0.95595 0.8727 0.08191 0.0
H1525 H 0.02591 0.87004 0.05482 0.0
H1526 H 0.00932 0.8478 0.05114 0.0
H1527 H 0.0186 0.85772 0.07489 0.0
C1528 C 0.9836 0.81655 0.08838 0.0
C1529 C 0.98489 0.82026 0.10826 0.0
C1530 C 0.98224 0.83135 0.07666 0.0
C1531 C 0.98232 0.85015 0.08461 0.0
C1532 C 0.98308 0.85376 0.10442 0.0
H1533 H 0.01408 0.96006 0.04592 0.0
H1534 H 0.01088 0.9293 0.05956 0.0
C1535 C 0.98435 0.83897 0.11613 0.0
C1536 C 0.98209 0.86624 0.07247 0.0
H1537 H 0.00823 0.89247 0.04267 0.0
C1538 C 0.96729 0.87696 0.0732 0.0
C1539 C -0.00301 0.87183 0.06125 0.0
C1540 C 0.01371 0.86138 0.06054 0.0
C1541 C 0.9672 0.89338 0.06333 0.0
C1542 C 0.98214 0.899 0.05217 0.0
C1543 C -0.0033 0.88802 0.0511 0.0
C1544 C 0.98401 0.91726 0.04305 0.0
C1545 C 0.95157 0.90504 0.06561 0.0
C1546 C 0.97009 0.92062 0.02899 0.0
C1547 C 0.97186 0.93833 0.02119 0.0
C1548 C 0.98762 0.9528 0.0273 0.0
C1549 C 0.00173 0.94919 0.041 0.0
C1550 C -5e-05 0.93159 0.04878 0.0
H1551 H 0.94337 0.90094 0.07762 0.0
H1552 H 0.95754 0.92063 0.06802 0.0
H1553 H 0.94154 0.90263 0.05241 0.0
H1554 H 0.95784 0.90962 0.02412 0.0
H1555 H 0.96084 0.94076 0.01057 0.0
H1556 H 0.95744 0.26189 0.8515 0.0
H1557 H 0.92403 0.25305 0.83796 0.0
H1558 H 0.9336 0.29484 0.79737 0.0
H1559 H 0.96682 0.30348 0.81044 0.0
H1560 H 0.89684 0.27598 0.83594 0.0
H1561 H 0.90677 0.24795 0.76336 0.0
H1562 H 0.92564 0.25167 0.78272 0.0
H1563 H 0.92055 0.27147 0.76983 0.0
C1564 C 0.95246 0.26905 0.83957 0.0
C1565 C 0.96486 0.28333 0.83202 0.0
C1566 C 0.93338 0.26398 0.83185 0.0
C1567 C 0.92644 0.273 0.8164 0.0
C1568 C 0.93877 0.28729 0.80892 0.0
H1569 H 0.82327 0.29411 0.76042 0.0
H1570 H 0.85592 0.29135 0.77183 0.0
C1571 C 0.95777 0.29232 0.81655 0.0
C1572 C 0.90605 0.26855 0.80874 0.0
H1573 H 0.87658 0.25791 0.76721 0.0
C1574 C 0.89235 0.27165 0.82099 0.0
C1575 C 0.90022 0.26285 0.78922 0.0
C1576 C 0.91407 0.2581 0.77558 0.0
C1577 C 0.87311 0.27026 0.81405 0.0
C1578 C 0.86748 0.26552 0.79439 0.0
C1579 C 0.88102 0.26166 0.78226 0.0
C1580 C 0.84785 0.26584 0.78606 0.0
C1581 C 0.85906 0.27475 0.82759 0.0
C1582 C 0.8326 0.25207 0.78987 0.0
C1583 C 0.81392 0.25353 0.78329 0.0
C1584 C 0.8102 0.26885 0.77285 0.0
C1585 C 0.82562 0.28218 0.76846 0.0
C1586 C 0.84428 0.28062 0.77494 0.0
H1587 H 0.86618 0.28072 0.8419 0.0
H1588 H 0.85055 0.28521 0.82188 0.0
H1589 H 0.84904 0.2614 0.82918 0.0
H1590 H 0.83513 0.24047 0.79831 0.0
H1591 H 0.80239 0.24306 0.787 0.0
H1592 H 0.48961 0.22343 0.60234 0.0
H1593 H 0.49194 0.19475 0.5818 0.0
H1594 H 0.50263 0.16469 0.63114 0.0
H1595 H 0.50076 0.1934 0.6518 0.0
H1596 H 0.52808 0.161 0.60599 0.0
H1597 H 0.45495 0.14471 0.56857 0.0
H1598 H 0.46669 0.16882 0.56686 0.0
H1599 H 0.46128 0.16137 0.58966 0.0
C1600 C 0.49224 0.21065 0.60884 0.0
C1601 C 0.495 0.21072 0.62873 0.0
C1602 C 0.49346 0.19423 0.59706 0.0
C1603 C 0.49721 0.1775 0.60493 0.0
C1604 C 0.49967 0.17743 0.62477 0.0
H1605 H 0.49061 0.06447 0.5452 0.0
H1606 H 0.48525 0.09249 0.56505 0.0
C1607 C 0.49858 0.19386 0.63655 0.0
C1608 C 0.4997 0.16042 0.59257 0.0
H1609 H 0.47782 0.12776 0.55597 0.0
C1610 C 0.51705 0.15368 0.5951 0.0
C1611 C 0.48523 0.15076 0.57853 0.0
C1612 C 0.46592 0.15665 0.57583 0.0
C1613 C 0.52044 0.13768 0.58383 0.0
C1614 C 0.50624 0.12846 0.56931 0.0
C1615 C 0.48878 0.13501 0.56695 0.0
C1616 C 0.5091 0.11174 0.55669 0.0
C1617 C 0.53904 0.1306 0.58785 0.0
C1618 C 0.52413 0.1133 0.54522 0.0
C1619 C 0.52705 0.09731 0.53377 0.0
C1620 C 0.51473 0.07968 0.53327 0.0
C1621 C 0.49969 0.07813 0.54464 0.0
C1622 C 0.49681 0.09406 0.55619 0.0
H1623 H 0.54591 0.13572 0.60245 0.0
H1624 H 0.53692 0.11465 0.58615 0.0
H1625 H 0.54897 0.13615 0.57769 0.0
H1626 H 0.5336 0.12688 0.54515 0.0
H1627 H 0.53884 0.09875 0.52517 0.0
H1628 H 0.56404 0.78166 0.32058 0.0
H1629 H 0.59322 0.78168 0.30541 0.0
H1630 H 0.62648 0.7936 0.36018 0.0
H1631 H 0.5972 0.79345 0.37562 0.0
H1632 H 0.62474 0.81167 0.30704 0.0
H1633 H 0.6448 0.74597 0.33557 0.0
H1634 H 0.62127 0.75188 0.33626 0.0
H1635 H 0.64066 0.76434 0.35286 0.0
C1636 C 0.57754 0.78425 0.32945 0.0
C1637 C 0.5783 0.78749 0.34932 0.0
C1638 C 0.5942 0.78428 0.32072 0.0
C1639 C 0.61197 0.78745 0.33166 0.0
C1640 C 0.61286 0.79084 0.3515 0.0
H1641 H 0.71963 0.80982 0.28101 0.0
H1642 H 0.69383 0.81231 0.301 0.0
C1643 C 0.59615 0.79083 0.36028 0.0
C1644 C 0.62946 0.78735 0.32206 0.0
H1645 H 0.66564 0.76224 0.316 0.0
C1646 C 0.63378 0.80095 0.30909 0.0
C1647 C 0.64108 0.77323 0.32466 0.0
C1648 C 0.63673 0.7579 0.33797 0.0
C1649 C 0.64931 0.8007 0.29845 0.0
C1650 C 0.66092 0.78659 0.30104 0.0
C1651 C 0.65674 0.7731 0.31416 0.0
C1652 C 0.67687 0.78497 0.28951 0.0
C1653 C 0.6528 0.81514 0.28408 0.0
C1654 C 0.67601 0.76864 0.2767 0.0
C1655 C 0.69077 0.76714 0.26543 0.0
C1656 C 0.70671 0.78185 0.26695 0.0
C1657 C 0.7076 0.79816 0.2798 0.0
C1658 C 0.69282 0.79968 0.29107 0.0
H1659 H 0.64042 0.82248 0.28114 0.0
H1660 H 0.66532 0.82623 0.28964 0.0
H1661 H 0.65594 0.80806 0.2705 0.0
H1662 H 0.66381 0.75715 0.2753 0.0
H1663 H 0.68979 0.7544 0.25564 0.0
H1664 H 0.97966 0.19654 0.43578 0.0
H1665 H 0.97216 0.16909 0.45421 0.0
H1666 H 0.01953 0.19306 0.49603 0.0
H1667 H 0.02664 0.22086 0.47806 0.0
H1668 H -0.00513 0.14421 0.45988 0.0
H1669 H 0.98059 0.17446 0.53017 0.0
H1670 H 0.98111 0.18815 0.50978 0.0
H1671 H 0.00291 0.18614 0.52375 0.0
C1672 C 0.98821 0.19615 0.44913 0.0
C1673 C 0.00378 0.21077 0.45547 0.0
C1674 C 0.98389 0.18048 0.45965 0.0
C1675 C -0.00486 0.17911 0.47661 0.0
C1676 C 0.01032 0.19404 0.48328 0.0
H1677 H 0.02357 0.08761 0.53885 0.0
H1678 H 0.02043 0.11855 0.52672 0.0
C1679 C 0.01447 0.20985 0.4729 0.0
C1680 C 0.99258 0.16103 0.48595 0.0
H1681 H 0.9893 0.14286 0.5289 0.0
C1682 C 0.99331 0.14389 0.47491 0.0
C1683 C 0.9906 0.16063 0.50557 0.0
C1684 C 0.98856 0.17832 0.51794 0.0
C1685 C 0.99281 0.1265 0.48306 0.0
C1686 C 0.99153 0.12624 0.50276 0.0
C1687 C 0.99038 0.14322 0.51379 0.0
C1688 C 0.99223 0.10849 0.51211 0.0
C1689 C 0.9942 0.10858 0.47066 0.0
C1690 C 0.97718 0.09288 0.50825 0.0
C1691 C 0.97895 0.07528 0.51512 0.0
C1692 C -0.00421 0.07308 0.5259 0.0
C1693 C 0.01047 0.08898 0.53052 0.0
C1694 C 0.00868 0.10661 0.52366 0.0
H1695 H -0.0019 0.11179 0.45633 0.0
H1696 H 0.00488 0.10077 0.47744 0.0
H1697 H 0.98019 0.09887 0.46888 0.0
H1698 H 0.96434 0.09417 0.49943 0.0
H1699 H 0.96736 0.06325 0.51154 0.0
H1700 H 0.53952 0.31677 0.16379 0.0
H1701 H 0.56916 0.32296 0.18508 0.0
H1702 H 0.59612 0.29211 0.14354 0.0
H1703 H 0.56676 0.28687 0.12181 0.0
H1704 H 0.58418 0.2972 0.2009 0.0
H1705 H 0.63841 0.33527 0.16066 0.0
H1706 H 0.61328 0.33246 0.15302 0.0
H1707 H 0.62644 0.3136 0.14703 0.0
C1708 C 0.55196 0.31177 0.15905 0.0
C1709 C 0.55095 0.30135 0.14123 0.0
C1710 C 0.56886 0.31529 0.17121 0.0
C1711 C 0.58495 0.30816 0.16589 0.0
C1712 C 0.5841 0.29826 0.14778 0.0
H1713 H 0.66617 0.26383 0.2369 0.0
H1714 H 0.63791 0.27117 0.21887 0.0
C1715 C 0.56729 0.29513 0.13541 0.0
C1716 C 0.60169 0.30899 0.18007 0.0
H1717 H 0.65022 0.31753 0.18577 0.0
C1718 C 0.59861 0.30201 0.1977 0.0
C1719 C 0.62052 0.31557 0.17613 0.0
C1720 C 0.62482 0.32484 0.15825 0.0
C1721 C 0.61383 0.30055 0.21109 0.0
C1722 C 0.63265 0.30548 0.20641 0.0
C1723 C 0.63577 0.31342 0.18923 0.0
C1724 C 0.64923 0.30145 0.21855 0.0
C1725 C 0.60951 0.29364 0.23004 0.0
C1726 C 0.66514 0.31592 0.22401 0.0
C1727 C 0.68145 0.3116 0.2339 0.0
C1728 C 0.682 0.29283 0.23863 0.0
C1729 C 0.66596 0.27847 0.2336 0.0
C1730 C 0.64977 0.2827 0.22344 0.0
H1731 H 0.59586 0.29743 0.23404 0.0
H1732 H 0.60803 0.27775 0.22905 0.0
H1733 H 0.62099 0.29989 0.24151 0.0
H1734 H 0.66508 0.33045 0.22028 0.0
H1735 H 0.69378 0.32283 0.23747 0.0
H1736 H 0.55223 0.84288 0.92649 0.0
H1737 H 0.55195 0.87261 0.94623 0.0
H1738 H 0.52104 0.84044 0.98597 0.0
H1739 H 0.52144 0.81056 0.96648 0.0
H1740 H 0.51743 0.88366 0.95244 0.0
H1741 H 0.56068 0.88 0.02084 0.0
H1742 H 0.56274 0.86543 -0.00068 0.0
H1743 H 0.54313 0.859 0.0129 0.0
C1744 C 0.54571 0.84205 0.93962 0.0
C1745 C 0.53668 0.82436 0.9448 0.0
C1746 C 0.54561 0.85905 0.9509 0.0
C1747 C 0.53657 0.85868 0.96759 0.0
C1748 C 0.52838 0.84099 0.97332 0.0
H1749 H 0.48637 0.95364 0.01178 0.0
H1750 H 0.49271 0.92115 0.00446 0.0
C1751 C 0.52851 0.82394 0.96207 0.0
C1752 C 0.53349 0.87688 0.97745 0.0
H1753 H 0.54217 0.90502 0.01971 0.0
C1754 C 0.52288 0.88834 0.96714 0.0
C1755 C 0.54062 0.88288 -0.00339 0.0
C1756 C 0.55257 0.8713 0.00807 0.0
C1757 C 0.51917 0.90571 0.97544 0.0
C1758 C 0.526 0.91159 0.99469 0.0
C1759 C 0.53673 0.90023 0.00504 0.0
C1760 C 0.52294 0.93016 0.00363 0.0
C1761 C 0.50828 0.91784 0.96346 0.0
C1762 C 0.53805 0.94572 0.00656 0.0
C1763 C 0.53451 0.96431 0.01071 0.0
C1764 C 0.51577 0.96755 0.01195 0.0
C1765 C 0.50093 0.95168 0.01073 0.0
C1766 C 0.5045 0.9331 0.00657 0.0
H1767 H 0.507 0.9129 0.94807 0.0
H1768 H 0.49371 0.91701 0.96782 0.0
H1769 H 0.51533 0.93314 0.96558 0.0
H1770 H 0.55237 0.94366 0.00437 0.0
H1771 H 0.54631 0.97619 0.0118 0.0
H1772 H 0.9484 0.74284 0.66103 0.0
H1773 H 0.92172 0.74559 0.67946 0.0
H1774 H 0.91372 0.79745 0.65406 0.0
H1775 H 0.94006 0.79447 0.63513 0.0
H1776 H 0.9216 0.77491 0.70579 0.0
H1777 H 0.85957 0.76962 0.65141 0.0
H1778 H 0.88177 0.76278 0.64589 0.0
H1779 H 0.87923 0.78768 0.64775 0.0
C1780 C 0.9407 0.75461 0.65907 0.0
C1781 C 0.94633 0.76848 0.6467 0.0
C1782 C 0.92548 0.75617 0.66962 0.0
C1783 C 0.9157 0.77166 0.66806 0.0
C1784 C 0.92082 0.78516 0.65519 0.0
H1785 H 0.83541 0.81582 0.73656 0.0
H1786 H 0.86118 0.81276 0.71667 0.0
C1787 C 0.93592 0.78348 0.64443 0.0
C1788 C 0.90138 0.77458 0.68119 0.0
H1789 H 0.85522 0.78038 0.68312 0.0
C1790 C 0.90705 0.77598 0.70082 0.0
C1791 C 0.88245 0.77606 0.67465 0.0
C1792 C 0.87531 0.77377 0.65378 0.0
C1793 C 0.8943 0.77891 0.71409 0.0
C1794 C 0.87549 0.78052 0.70753 0.0
C1795 C 0.86978 0.77926 0.68798 0.0
C1796 C 0.86128 0.78285 0.72079 0.0
C1797 C 0.90094 0.78039 0.73504 0.0
C1798 C 0.85317 0.76708 0.72978 0.0
C1799 C 0.83847 0.76877 0.74102 0.0
C1800 C 0.8318 0.78625 0.74343 0.0
C1801 C 0.84043 0.80223 0.73498 0.0
C1802 C 0.85503 0.80049 0.7236 0.0
H1803 H 0.91664 0.78153 0.7378 0.0
H1804 H 0.89663 0.79309 0.7425 0.0
H1805 H 0.89409 0.76741 0.74119 0.0
H1806 H 0.8578 0.75334 0.72762 0.0
H1807 H 0.83192 0.75625 0.74731 0.0
H1808 H 0.11529 0.0087 0.8398 0.0
H1809 H 0.09786 0.00876 0.86792 0.0
H1810 H 0.04461 0.99505 0.83173 0.0
H1811 H 0.06189 0.99595 0.80376 0.0
H1812 H 0.04301 0.02313 0.85629 0.0
H1813 H 0.071 0.96721 0.8951 0.0
H1814 H 0.08972 0.98582 0.89052 0.0
H1815 H 0.07547 0.97081 0.87096 0.0
C1816 C 0.09988 0.00546 0.83793 0.0
C1817 C 0.08994 0.00242 0.81963 0.0
C1818 C 0.08991 0.00535 0.85399 0.0
C1819 C 0.06987 0.00167 0.852 0.0
C1820 C 0.06003 0.99798 0.83368 0.0
H1821 H 0.00459 0.98642 0.9496 0.0
H1822 H 0.01799 0.98107 0.91955 0.0
C1823 C 0.06994 -0.00151 0.8177 0.0
C1824 C 0.05901 0.00309 0.86875 0.0
H1825 H 0.05411 0.98785 0.91273 0.0
C1826 C 0.04533 0.01523 0.86853 0.0
C1827 C 0.06175 0.99259 0.88464 0.0
C1828 C 0.07513 0.97822 0.88526 0.0
C1829 C 0.03463 0.01747 0.88385 0.0
C1830 C 0.03818 0.00788 0.9002 0.0
C1831 C 0.05151 0.99537 0.90027 0.0
C1832 C 0.02876 0.01117 0.91764 0.0
C1833 C 0.01945 0.02991 0.88216 0.0
C1834 C 0.0302 0.02986 0.92647 0.0
C1835 C 0.02229 0.03298 0.94342 0.0
C1836 C 0.01312 0.01743 0.95217 0.0
C1837 C 0.01149 -0.00128 0.94321 0.0
C1838 C 0.01922 0.99563 0.92608 0.0
H1839 H 0.01403 0.03047 0.86706 0.0
H1840 H 0.00724 0.02458 0.88999 0.0
H1841 H 0.02564 0.04481 0.88812 0.0
H1842 H 0.03795 0.04204 0.92056 0.0
H1843 H 0.02407 0.04757 0.95003 0.0
H1844 H 0.70768 0.33155 0.56657 0.0
H1845 H 0.7132 0.31538 0.59538 0.0
H1846 H 0.73448 0.37023 0.6273 0.0
H1847 H 0.72896 0.38649 0.59867 0.0
H1848 H 0.74794 0.31676 0.61935 0.0
H1849 H 0.69297 0.34467 0.65838 0.0
H1850 H 0.6935 0.3455 0.63308 0.0
H1851 H 0.70958 0.36274 0.64943 0.0
C1852 C 0.71349 0.34018 0.57973 0.0
C1853 C 0.71778 0.36034 0.5803 0.0
C1854 C 0.71667 0.33091 0.59618 0.0
C1855 C 0.72403 0.3416 0.61357 0.0
C1856 C 0.72849 0.3617 0.61413 0.0
H1857 H 0.77141 0.29768 0.71665 0.0
H1858 H 0.76698 0.3151 0.68841 0.0
C1859 C 0.7254 0.37097 0.5977 0.0
C1860 C 0.72723 0.33175 0.63107 0.0
H1861 H 0.71348 0.32751 0.67559 0.0
C1862 C 0.74041 0.3191 0.63165 0.0
C1863 C 0.71729 0.33468 0.64706 0.0
C1864 C 0.70241 0.3475 0.647 0.0
C1865 C 0.74405 0.30947 0.64785 0.0
C1866 C 0.73438 0.31269 0.66398 0.0
C1867 C 0.72105 0.32519 0.66331 0.0
C1868 C 0.73722 0.30258 0.68137 0.0
C1869 C 0.75791 0.29558 0.64742 0.0
C1870 C 0.7219 0.29012 0.68709 0.0
C1871 C 0.72439 0.28031 0.70324 0.0
C1872 C 0.74219 0.28293 0.71417 0.0
C1873 C 0.75749 0.29557 0.70861 0.0
C1874 C 0.75502 0.30535 0.69237 0.0
H1875 H 0.76089 0.29151 0.63271 0.0
H1876 H 0.77157 0.30241 0.65576 0.0
H1877 H 0.75238 0.28232 0.65392 0.0
H1878 H 0.70803 0.2878 0.67891 0.0
H1879 H 0.7123 0.27074 0.70724 0.0
H1880 H 0.43279 0.02627 0.29717 0.0
H1881 H 0.4439 0.02688 0.33072 0.0
H1882 H 0.44003 0.08709 0.33893 0.0
H1883 H 0.42768 0.08616 0.30534 0.0
H1884 H 0.47432 0.04449 0.34991 0.0
H1885 H 0.4144 0.06933 0.38286 0.0
H1886 H 0.41313 0.06247 0.35773 0.0
H1887 H 0.42524 0.08596 0.36767 0.0
C1888 C 0.43414 0.03962 0.30616 0.0
C1889 C 0.42935 0.05617 0.29867 0.0
C1890 C 0.44053 0.03996 0.32537 0.0
C1891 C 0.44266 0.05697 0.33754 0.0
C1892 C 0.43802 0.07363 0.33004 0.0
H1893 H 0.51194 0.05937 0.44725 0.0
H1894 H 0.50093 0.0657 0.41502 0.0
C1895 C 0.43111 0.07315 0.31081 0.0
C1896 C 0.45042 0.05707 0.35779 0.0
H1897 H 0.44164 0.06705 0.40366 0.0
C1898 C 0.46711 0.04939 0.36165 0.0
C1899 C 0.441 0.06332 0.37318 0.0
C1900 C 0.42236 0.07055 0.37019 0.0
C1901 C 0.47434 0.04726 0.38028 0.0
C1902 C 0.46522 0.05396 0.39571 0.0
C1903 C 0.44876 0.06205 0.39189 0.0
C1904 C 0.4718 0.05164 0.41581 0.0
C1905 C 0.49114 0.03698 0.38306 0.0
C1906 C 0.45893 0.04262 0.42745 0.0
C1907 C 0.46507 0.03959 0.44607 0.0
C1908 C 0.48428 0.04524 0.45335 0.0
C1909 C 0.4971 0.0546 0.44188 0.0
C1910 C 0.49084 0.05809 0.42341 0.0
H1911 H 0.49258 0.02777 0.37005 0.0
H1912 H 0.50441 0.04775 0.38623 0.0
H1913 H 0.48985 0.02779 0.39499 0.0
H1914 H 0.44416 0.03754 0.422 0.0
H1915 H 0.45487 0.03229 0.45457 0.0
H1916 H 0.72598 0.64898 0.06081 0.0
H1917 H 0.72725 0.67341 0.08736 0.0
H1918 H 0.74729 0.71774 0.05214 0.0
H1919 H 0.74663 0.69336 0.02567 0.0
H1920 H 0.76855 0.72225 0.08506 0.0
H1921 H 0.69309 0.71139 0.09866 0.0
H1922 H 0.70207 0.68923 0.09882 0.0
H1923 H 0.70077 0.70106 0.07729 0.0
C1924 C 0.73043 0.66395 0.05864 0.0
C1925 C 0.73623 0.66923 0.04116 0.0
C1926 C 0.73101 0.67792 0.07379 0.0
C1927 C 0.73703 0.69744 0.07163 0.0
C1928 C 0.7425 0.70277 0.05408 0.0
H1929 H 0.72964 0.77684 0.17071 0.0
H1930 H 0.72654 0.76359 0.13736 0.0
C1931 C 0.74213 0.68881 0.03899 0.0
C1932 C 0.73902 0.71205 0.08811 0.0
H1933 H 0.7159 0.72689 0.12487 0.0
C1934 C 0.75694 0.72351 0.09358 0.0
C1935 C 0.72378 0.71406 0.09899 0.0
C1936 C 0.70381 0.70342 0.093 0.0
C1937 C 0.76033 0.73605 0.11029 0.0
C1938 C 0.74555 0.73672 0.12207 0.0
C1939 C 0.72732 0.72618 0.11598 0.0
C1940 C 0.74903 0.7468 0.14146 0.0
C1941 C 0.77979 0.74826 0.11523 0.0
C1942 C 0.76282 0.74193 0.15473 0.0
C1943 C 0.76472 0.7496 0.17364 0.0
C1944 C 0.75262 0.762 0.17966 0.0
C1945 C 0.73915 0.76732 0.16634 0.0
C1946 C 0.73736 0.75975 0.14735 0.0
H1947 H 0.78665 0.75158 0.1022 0.0
H1948 H 0.77905 0.76197 0.1236 0.0
H1949 H 0.78903 0.74021 0.12374 0.0
H1950 H 0.77162 0.73155 0.15066 0.0
H1951 H 0.77514 0.74519 0.18368 0.0
H1952 H 0.09031 0.9727 0.72364 0.0
H1953 H 0.07594 0.97091 0.69093 0.0
H1954 H 0.13032 0.99469 0.67356 0.0
H1955 H 0.14484 0.99684 0.70651 0.0
H1956 H 0.10246 0.01448 0.66264 0.0
H1957 H 0.07688 0.93693 0.64254 0.0
H1958 H 0.06936 0.94467 0.66482 0.0
H1959 H 0.09436 0.9458 0.66266 0.0
C1960 C 0.09932 0.97723 0.71282 0.0
C1961 C 0.11869 0.98505 0.71766 0.0
C1962 C 0.09111 0.97601 0.69408 0.0
C1963 C 0.10211 0.98241 0.67976 0.0
C1964 C 0.12163 0.98954 0.6844 0.0
H1965 H 0.04936 0.98211 0.5628 0.0
H1966 H 0.06993 0.9754 0.59025 0.0
C1967 C 0.12989 0.99077 0.70321 0.0
C1968 C 0.09264 0.98389 0.66063 0.0
H1969 H 0.06099 0.9587 0.62482 0.0
C1970 C 0.09367 0.00222 0.6542 0.0
C1971 C 0.08131 0.96787 0.64955 0.0
C1972 C 0.08056 0.94769 0.65516 0.0
C1973 C 0.08287 0.00512 0.63753 0.0
C1974 C 0.0705 0.98933 0.6272 0.0
C1975 C 0.07026 0.97082 0.63299 0.0
C1976 C 0.05721 0.99201 0.61082 0.0
C1977 C 0.08454 0.02515 0.63127 0.0
C1978 C 0.04292 0.00304 0.61347 0.0
C1979 C 0.03121 0.00686 0.5979 0.0
C1980 C 0.03357 -0.00037 0.57947 0.0
C1981 C 0.04733 0.9879 0.5769 0.0
C1982 C 0.05906 0.98406 0.59251 0.0
H1983 H 0.09809 0.03441 0.63756 0.0
H1984 H 0.08375 0.0248 0.61555 0.0
H1985 H 0.07261 0.03185 0.63601 0.0
H1986 H 0.04109 0.009 0.62756 0.0
H1987 H 0.02064 0.01586 0.60025 0.0
H1988 H 0.71599 0.392 0.44762 0.0
H1989 H 0.71993 0.3727 0.41886 0.0
H1990 H 0.70545 0.32093 0.44637 0.0
H1991 H 0.70236 0.34039 0.47574 0.0
H1992 H 0.73376 0.31753 0.42685 0.0
H1993 H 0.68054 0.34423 0.37953 0.0
H1994 H 0.69803 0.36398 0.39054 0.0
H1995 H 0.6829 0.3497 0.40496 0.0
C1996 C 0.71345 0.37649 0.44757 0.0
C1997 C 0.70864 0.36775 0.46398 0.0
C1998 C 0.71559 0.36543 0.43098 0.0
C1999 C 0.71245 0.34527 0.43012 0.0
C2000 C 0.70778 0.33645 0.44655 0.0
H2001 H 0.70713 0.28424 0.31671 0.0
H2002 H 0.6989 0.29595 0.34768 0.0
C2003 C 0.70598 0.34758 0.46334 0.0
C2004 C 0.7148 0.33362 0.41228 0.0
H2005 H 0.70384 0.32955 0.36408 0.0
C2006 C 0.727 0.31998 0.41316 0.0
C2007 C 0.70567 0.33634 0.39434 0.0
C2008 C 0.69089 0.3492 0.39232 0.0
C2009 C 0.73092 0.30967 0.39663 0.0
C2010 C 0.72303 0.31361 0.37857 0.0
C2011 C 0.71022 0.32666 0.37779 0.0
C2012 C 0.72809 0.30481 0.3603 0.0
C2013 C 0.74328 0.2945 0.39884 0.0
C2014 C 0.74724 0.30567 0.35691 0.0
C2015 C 0.75195 0.29852 0.33934 0.0
C2016 C 0.73764 0.29085 0.32453 0.0
C2017 C 0.71849 0.29 0.32786 0.0
C2018 C 0.71378 0.29676 0.34557 0.0
H2019 H 0.7421 0.28835 0.41269 0.0
H2020 H 0.73939 0.2826 0.38728 0.0
H2021 H 0.75839 0.30112 0.39856 0.0
H2022 H 0.75862 0.31242 0.36763 0.0
H2023 H 0.76684 0.29975 0.33712 0.0
H2024 H 0.39488 0.06429 0.16883 0.0
H2025 H 0.41043 0.0577 0.14025 0.0
H2026 H 0.4634 0.05902 0.17503 0.0
H2027 H 0.44806 0.06561 0.20359 0.0
H2028 H 0.44469 0.07998 0.12759 0.0
H2029 H 0.45301 0.00576 0.14242 0.0
H2030 H 0.43644 0.01849 0.15355 0.0
H2031 H 0.46141 0.02414 0.16167 0.0
C2032 C 0.40986 0.06327 0.17038 0.0
C2033 C 0.42021 0.06538 0.18848 0.0
C2034 C 0.41871 0.0595 0.15405 0.0
C2035 C 0.43798 0.05759 0.15558 0.0
C2036 C 0.44844 0.06015 0.17358 0.0
H2037 H 0.51774 0.02995 0.07732 0.0
H2038 H 0.50119 0.03657 0.10519 0.0
C2039 C 0.43966 0.06401 0.18988 0.0
C2040 C 0.44719 0.05288 0.13839 0.0
H2041 H 0.46802 0.01826 0.11665 0.0
C2042 C 0.44971 0.06646 0.1251 0.0
C2043 C 0.45379 0.03526 0.13529 0.0
C2044 C 0.45094 0.01996 0.14888 0.0
C2045 C 0.45905 0.06306 0.10895 0.0
C2046 C 0.46561 0.04539 0.1058 0.0
C2047 C 0.46299 0.03179 0.11908 0.0
C2048 C 0.47536 0.04081 0.08888 0.0
C2049 C 0.46228 0.07868 0.09574 0.0
C2050 C 0.46619 0.04055 0.07047 0.0
C2051 C 0.47565 0.03691 0.05459 0.0
C2052 C 0.49437 0.03317 0.05681 0.0
C2053 C 0.50333 0.03282 0.07521 0.0
C2054 C 0.49389 0.03659 0.09111 0.0
H2055 H 0.46131 0.09298 0.10283 0.0
H2056 H 0.47645 0.0795 0.09039 0.0
H2057 H 0.45121 0.07547 0.08336 0.0
H2058 H 0.45173 0.04328 0.06837 0.0
H2059 H 0.46839 0.0373 0.04058 0.0
H2060 H 0.78833 0.65756 0.92774 0.0
H2061 H 0.80059 0.67913 0.90468 0.0
H2062 H 0.77623 0.72465 0.93166 0.0
H2063 H 0.76459 0.70354 0.95496 0.0
H2064 H 0.78006 0.69432 0.87957 0.0
H2065 H 0.82669 0.75427 0.92384 0.0
H2066 H 0.81858 0.73163 0.93298 0.0
H2067 H 0.80389 0.75002 0.93261 0.0
C2068 C 0.7859 0.67228 0.92892 0.0
C2069 C 0.77549 0.67885 0.94315 0.0
C2070 C 0.79296 0.68459 0.91579 0.0
C2071 C 0.7897 0.70366 0.91666 0.0
C2072 C 0.77953 0.71025 0.93105 0.0
H2073 H 0.76366 0.78189 0.84233 0.0
H2074 H 0.77207 0.7649 0.86969 0.0
C2075 C 0.77266 0.69805 0.94425 0.0
C2076 C 0.79474 0.716 0.90134 0.0
H2077 H 0.81204 0.7623 0.89357 0.0
C2078 C 0.78755 0.709 0.88257 0.0
C2079 C 0.80459 0.73517 0.90521 0.0
C2080 C 0.81405 0.7431 0.92475 0.0
C2081 C 0.78868 0.72105 0.86783 0.0
C2082 C 0.79719 0.74056 0.87203 0.0
C2083 C 0.8054 0.74733 0.89051 0.0
C2084 C 0.79549 0.75435 0.85773 0.0
C2085 C 0.77975 0.71319 0.84806 0.0
C2086 C 0.80649 0.75469 0.84242 0.0
C2087 C 0.80181 0.76449 0.8268 0.0
C2088 C 0.78591 0.77386 0.82625 0.0
C2089 C 0.77591 0.77474 0.84231 0.0
C2090 C 0.78072 0.76509 0.85796 0.0
H2091 H 0.77296 0.69784 0.84735 0.0
H2092 H 0.76882 0.72169 0.84315 0.0
H2093 H 0.79079 0.7145 0.83805 0.0
H2094 H 0.8179 0.74639 0.84204 0.0
H2095 H 0.80971 0.76343 0.81459 0.0
H2096 H 0.83581 0.11651 0.03605 0.0
H2097 H 0.86264 0.10057 0.0302 0.0
H2098 H 0.86707 0.12616 0.9773 0.0
H2099 H 0.84036 0.14272 0.9834 0.0
H2100 H 0.86346 0.07404 0.00172 0.0
H2101 H 0.92229 0.13524 -0.00069 0.0
H2102 H 0.90009 0.13832 0.00822 0.0
H2103 H 0.90152 0.13533 0.98305 0.0
C2104 C 0.84266 0.11903 0.02329 0.0
C2105 C 0.83592 0.13089 0.01018 0.0
C2106 C 0.858 0.10985 0.01994 0.0
C2107 C 0.86698 0.11215 0.00333 0.0
C2108 C 0.86064 0.1244 0.99039 0.0
H2109 H 0.93794 0.02596 0.97202 0.0
H2110 H 0.91317 0.04623 0.97026 0.0
C2111 C 0.84534 0.13384 0.99387 0.0
C2112 C 0.88209 0.10067 -0.00067 0.0
H2113 H 0.92905 0.10405 0.99229 0.0
C2114 C 0.87779 0.08061 -0.00043 0.0
C2115 C 0.90081 0.10922 -0.0034 0.0
C2116 C 0.90657 0.13071 -0.00307 0.0
C2117 C 0.89171 0.06895 -0.00227 0.0
C2118 C 0.91044 0.07747 0.99495 0.0
C2119 C 0.91466 0.09749 0.99424 0.0
C2120 C 0.92619 0.0661 0.99448 0.0
C2121 C 0.88639 0.04773 -0.00029 0.0
C2122 C 0.94214 0.07094 0.0081 0.0
C2123 C 0.95635 0.05958 0.00893 0.0
C2124 C 0.95495 0.0431 -0.00386 0.0
C2125 C 0.9393 0.03852 0.98212 0.0
C2126 C 0.92512 0.05003 0.98118 0.0
H2127 H 0.87296 0.04438 0.00637 0.0
H2128 H 0.88427 0.03967 0.98542 0.0
H2129 H 0.89784 0.04248 0.00841 0.0
H2130 H 0.94333 0.08322 0.01853 0.0
H2131 H 0.96812 0.06339 0.02005 0.0
H2132 H 0.2919 0.42687 0.05938 0.0
H2133 H 0.32603 0.43896 0.06727 0.0
H2134 H 0.32065 0.48828 0.03654 0.0
H2135 H 0.28673 0.47663 0.02895 0.0
H2136 H 0.35014 0.44302 0.0405 0.0
H2137 H 0.35603 0.51309 0.08228 0.0
H2138 H 0.33434 0.49557 0.07913 0.0
H2139 H 0.33973 0.51179 0.06128 0.0
C2140 C 0.29791 0.44055 0.05474 0.0
C2141 C 0.28662 0.45071 0.04341 0.0
C2142 C 0.31741 0.44742 0.05927 0.0
C2143 C 0.32585 0.46464 0.05271 0.0
C2144 C 0.31441 0.47523 0.04219 0.0
H2145 H 0.42379 0.51893 0.01218 0.0
H2146 H 0.39303 0.5075 0.02322 0.0
C2147 C 0.29499 0.46841 0.03768 0.0
C2148 C 0.34682 0.47028 0.05429 0.0
H2149 H 0.38216 0.50951 0.06321 0.0
C2150 C 0.35729 0.45738 0.04597 0.0
C2151 C 0.35611 0.489 0.06146 0.0
C2152 C 0.34596 0.50305 0.07172 0.0
C2153 C 0.37644 0.46319 0.04325 0.0
C2154 C 0.38529 0.48234 0.04914 0.0
C2155 C 0.37522 0.49488 0.05857 0.0
C2156 C 0.40423 0.4901 0.04375 0.0
C2157 C 0.38674 0.44926 0.03297 0.0
C2158 C 0.42067 0.48421 0.05186 0.0
C2159 C 0.43831 0.49071 0.04558 0.0
C2160 C 0.43971 0.50315 0.03107 0.0
C2161 C 0.4232 0.50928 0.02329 0.0
C2162 C 0.40563 0.50286 0.02964 0.0
H2163 H 0.3772 0.43551 0.02761 0.0
H2164 H 0.39305 0.45575 0.02078 0.0
H2165 H 0.39855 0.44602 0.04278 0.0
H2166 H 0.41981 0.47441 0.06283 0.0
H2167 H 0.45075 0.48568 0.05185 0.0
H2168 H 0.2992 0.58533 0.73195 0.0
H2169 H 0.28134 0.61188 0.73566 0.0
H2170 H 0.3331 0.65016 0.7584 0.0
H2171 H 0.35105 0.62385 0.75464 0.0
H2172 H 0.27796 0.63621 0.76889 0.0
H2173 H 0.31166 0.67715 0.71376 0.0
H2174 H 0.31309 0.65219 0.71588 0.0
H2175 H 0.32818 0.67069 0.73176 0.0
C2176 C 0.30677 0.5994 0.73778 0.0
C2177 C 0.32657 0.60251 0.74288 0.0
C2178 C 0.29654 0.61453 0.73991 0.0
C2179 C 0.30595 0.63304 0.74704 0.0
C2180 C 0.32562 0.63607 0.75255 0.0
H2181 H 0.25842 0.73234 0.78755 0.0
H2182 H 0.27435 0.70423 0.7849 0.0
C2183 C 0.33584 0.62098 0.75047 0.0
C2184 C 0.29527 0.64925 0.74862 0.0
H2185 H 0.29218 0.69296 0.73262 0.0
C2186 C 0.281 0.6486 0.76093 0.0
C2187 C 0.29915 0.66529 0.73805 0.0
C2188 C 0.31373 0.66638 0.72398 0.0
C2189 C 0.27072 0.66376 0.76321 0.0
C2190 C 0.27499 0.68005 0.75306 0.0
C2191 C 0.28904 0.68053 0.74051 0.0
C2192 C 0.2649 0.69668 0.75498 0.0
C2193 C 0.25521 0.6621 0.77626 0.0
C2194 C 0.25454 0.70192 0.73902 0.0
C2195 C 0.24567 0.71805 0.74048 0.0
C2196 C 0.24717 0.72935 0.75789 0.0
C2197 C 0.25732 0.724 0.77392 0.0
C2198 C 0.2662 0.70784 0.77246 0.0
H2199 H 0.25054 0.64698 0.77922 0.0
H2200 H 0.26065 0.6707 0.78999 0.0
H2201 H 0.24266 0.66775 0.77006 0.0
H2202 H 0.25343 0.69358 0.72537 0.0
H2203 H 0.238 0.72193 0.72787 0.0
H2204 H 0.23821 0.60583 0.4936 0.0
H2205 H 0.20627 0.58702 0.49291 0.0
H2206 H 0.18224 0.63894 0.49138 0.0
H2207 H 0.21419 0.6579 0.49255 0.0
H2208 H 0.16832 0.61715 0.51778 0.0
H2209 H 0.16411 0.57168 0.44984 0.0
H2210 H 0.18456 0.57013 0.46593 0.0
H2211 H 0.18235 0.59257 0.45644 0.0
C2212 C 0.22611 0.61322 0.49291 0.0
C2213 C 0.22871 0.63335 0.49313 0.0
C2214 C 0.20784 0.60243 0.49239 0.0
C2215 C 0.19183 0.61153 0.4918 0.0
C2216 C 0.19439 0.63161 0.49175 0.0
H2217 H 0.07288 0.55692 0.47183 0.0
H2218 H 0.10509 0.57379 0.46902 0.0
C2219 C 0.21265 0.64242 0.49241 0.0
C2220 C 0.17252 0.60031 0.49242 0.0
H2221 H 0.14005 0.56256 0.47007 0.0
C2222 C 0.16211 0.60527 0.50729 0.0
C2223 C 0.16433 0.58495 0.47861 0.0
C2224 C 0.17433 0.57962 0.4617 0.0
C2225 C 0.14386 0.59517 0.50889 0.0
C2226 C 0.13598 0.57932 0.49552 0.0
C2227 C 0.14624 0.57453 0.48046 0.0
C2228 C 0.1169 0.5679 0.4967 0.0
C2229 C 0.13306 0.60183 0.52468 0.0
C2230 C 0.113 0.55851 0.51295 0.0
C2231 C 0.09461 0.54902 0.51464 0.0
C2232 C 0.07989 0.54855 0.5 0.0
C2233 C 0.08398 0.55716 0.48337 0.0
C2234 C 0.10235 0.56677 0.48174 0.0
H2235 H 0.13873 0.61698 0.53029 0.0
H2236 H 0.11769 0.6006 0.51976 0.0
H2237 H 0.13448 0.59273 0.53658 0.0
H2238 H 0.12412 0.5588 0.52447 0.0
H2239 H 0.09185 0.54234 0.52754 0.0
H2240 H 0.6759 0.95981 0.77336 0.0
H2241 H 0.69581 0.93495 0.77543 0.0
H2242 H 0.64589 0.89215 0.77731 0.0
H2243 H 0.62581 0.91692 0.77495 0.0
H2244 H 0.701 0.90968 0.80267 0.0
H2245 H 0.67066 0.87002 0.73301 0.0
H2246 H 0.6664 0.89383 0.74012 0.0
H2247 H 0.65349 0.87325 0.74933 0.0
C2248 C 0.66913 0.94512 0.77426 0.0
C2249 C 0.64923 0.94035 0.77385 0.0
C2250 C 0.68055 0.93092 0.77548 0.0
C2251 C 0.67235 0.91162 0.77623 0.0
C2252 C 0.65253 0.90688 0.77636 0.0
H2253 H 0.74042 0.82177 0.80155 0.0
H2254 H 0.71756 0.84405 0.80322 0.0
C2255 C 0.64107 0.92108 0.77512 0.0
C2256 C 0.68458 0.89654 0.77661 0.0
H2257 H 0.6933 0.85639 0.75136 0.0
C2258 C 0.69927 0.89797 0.7915 0.0
C2259 C 0.68245 0.88138 0.76192 0.0
C2260 C 0.66752 0.87954 0.74508 0.0
C2261 C 0.71194 0.88474 0.79205 0.0
C2262 C 0.70969 0.86948 0.77745 0.0
C2263 C 0.69492 0.86799 0.76263 0.0
C2264 C 0.7232 0.85562 0.77659 0.0
C2265 C 0.728 0.88761 0.80792 0.0
C2266 C 0.73364 0.85436 0.7609 0.0
C2267 C 0.74645 0.84151 0.75984 0.0
C2268 C 0.74901 0.82952 0.77437 0.0
C2269 C 0.73853 0.83068 0.79005 0.0
C2270 C 0.72565 0.84356 0.79111 0.0
H2271 H 0.73035 0.90231 0.81541 0.0
H2272 H 0.72449 0.87717 0.81846 0.0
H2273 H 0.74147 0.88508 0.80242 0.0
H2274 H 0.73197 0.86345 0.7495 0.0
H2275 H 0.75426 0.84086 0.74752 0.0
H2276 H 0.66355 0.89908 0.50217 0.0
H2277 H 0.63963 0.91528 0.48625 0.0
H2278 H 0.6682 0.96963 0.51522 0.0
H2279 H 0.69228 0.95371 0.53074 0.0
H2280 H 0.61523 0.93552 0.5013 0.0
H2281 H 0.66225 0.98306 0.46112 0.0
H2282 H 0.66973 0.96293 0.47198 0.0
H2283 H 0.67117 0.98568 0.4858 0.0
C2284 C 0.6647 0.91448 0.50512 0.0
C2285 C 0.67983 0.92517 0.5176 0.0
C2286 C 0.65112 0.92371 0.49594 0.0
C2287 C 0.65251 0.94372 0.49911 0.0
C2288 C 0.66726 0.95428 0.51202 0.0
H2289 H 0.58948 0.03019 0.50285 0.0
H2290 H 0.61418 0.01052 0.4995 0.0
C2291 C 0.68087 0.94512 0.52108 0.0
C2292 C 0.63788 0.95361 0.49006 0.0
H2293 H 0.63278 0.99383 0.46799 0.0
C2294 C 0.61893 0.94796 0.49356 0.0
C2295 C 0.64275 0.96971 0.47979 0.0
C2296 C 0.66257 0.97555 0.47427 0.0
C2297 C 0.60502 0.95896 0.48849 0.0
C2298 C 0.61026 0.97592 0.47957 0.0
C2299 C 0.6289 0.98086 0.47491 0.0
C2300 C 0.5973 0.98998 0.47774 0.0
C2301 C 0.58513 0.95311 0.49389 0.0
C2302 C 0.58013 0.98548 0.46581 0.0
C2303 C 0.56593 0.99663 0.46781 0.0
C2304 C 0.5689 0.01241 0.48165 0.0
C2305 C 0.58682 0.018 0.49217 0.0
C2306 C 0.60094 0.00681 0.49024 0.0
H2307 H 0.58406 0.94081 0.50275 0.0
H2308 H 0.58054 0.96537 0.50184 0.0
H2309 H 0.57506 0.94884 0.48082 0.0
H2310 H 0.57731 0.97269 0.45587 0.0
H2311 H 0.55227 0.99225 0.4594 0.0
H2312 H 0.36043 0.47399 0.71537 0.0
H2313 H 0.34308 0.44188 0.71807 0.0
H2314 H 0.29942 0.46649 0.74403 0.0
H2315 H 0.31661 0.49885 0.74117 0.0
H2316 H 0.33512 0.42716 0.75165 0.0
H2317 H 0.26849 0.42532 0.70418 0.0
H2318 H 0.28957 0.44307 0.70352 0.0
H2319 H 0.27429 0.44554 0.7219 0.0
C2320 C 0.34702 0.47265 0.72145 0.0
C2321 C 0.33995 0.48906 0.7281 0.0
C2322 C 0.33712 0.45424 0.72299 0.0
C2323 C 0.31989 0.45176 0.73112 0.0
C2324 C 0.31252 0.46805 0.73739 0.0
H2325 H 0.27299 0.34725 0.77918 0.0
H2326 H 0.28557 0.38034 0.77387 0.0
C2327 C 0.32242 0.48655 0.73582 0.0
C2328 C 0.31048 0.43211 0.73417 0.0
H2329 H 0.26964 0.3991 0.7229 0.0
C2330 C 0.32081 0.42103 0.74536 0.0
C2331 C 0.29187 0.42407 0.72581 0.0
C2332 C 0.28042 0.43501 0.71304 0.0
C2333 C 0.31303 0.40219 0.74849 0.0
C2334 C 0.29427 0.39428 0.74049 0.0
C2335 C 0.28396 0.40527 0.72916 0.0
C2336 C 0.28534 0.37448 0.74348 0.0
C2337 C 0.32512 0.39075 0.76004 0.0
C2338 C 0.28046 0.3603 0.72807 0.0
C2339 C 0.27318 0.34132 0.73102 0.0
C2340 C 0.27056 0.33618 0.74947 0.0
C2341 C 0.27493 0.3506 0.7648 0.0
C2342 C 0.28219 0.36955 0.76181 0.0
H2343 H 0.34048 0.39711 0.76123 0.0
H2344 H 0.32072 0.39059 0.7746 0.0
H2345 H 0.32322 0.37565 0.75365 0.0
H2346 H 0.28272 0.36383 0.71379 0.0
H2347 H 0.26993 0.33063 0.71887 0.0
H2348 H 0.15997 0.54195 0.28932 0.0
H2349 H 0.18193 0.57277 0.29453 0.0
H2350 H 0.14293 0.59824 0.25861 0.0
H2351 H 0.1208 0.56785 0.25377 0.0
H2352 H 0.20032 0.59406 0.27007 0.0
H2353 H 0.1528 0.63652 0.30476 0.0
H2354 H 0.14763 0.61062 0.30112 0.0
H2355 H 0.14156 0.62489 0.28227 0.0
C2356 C 0.15603 0.55416 0.28264 0.0
C2357 C 0.13854 0.55247 0.27127 0.0
C2358 C 0.1686 0.57175 0.28563 0.0
C2359 C 0.16389 0.58793 0.27731 0.0
C2360 C 0.14662 0.58614 0.26566 0.0
H2361 H 0.23231 0.68759 0.24486 0.0
H2362 H 0.2166 0.65512 0.249 0.0
C2363 C 0.13402 0.56867 0.2628 0.0
C2364 C 0.1772 0.60658 0.28013 0.0
H2365 H 0.1788 0.65461 0.29108 0.0
C2366 C 0.19573 0.60728 0.27494 0.0
C2367 C 0.17142 0.62379 0.28693 0.0
C2368 C 0.15234 0.6239 0.29429 0.0
C2369 C 0.20822 0.62485 0.27536 0.0
C2370 C 0.20182 0.6422 0.28059 0.0
C2371 C 0.18367 0.64137 0.28678 0.0
C2372 C 0.2131 0.6614 0.2787 0.0
C2373 C 0.22812 0.62457 0.27013 0.0
C2374 C 0.21612 0.67592 0.29389 0.0
C2375 C 0.22474 0.69462 0.2914 0.0
C2376 C 0.23056 0.69908 0.2737 0.0
C2377 C 0.2281 0.68447 0.25869 0.0
C2378 C 0.21926 0.66585 0.26111 0.0
H2379 H 0.23294 0.61096 0.27345 0.0
H2380 H 0.22821 0.62548 0.25461 0.0
H2381 H 0.23845 0.63682 0.27774 0.0
H2382 H 0.2114 0.67288 0.30756 0.0
H2383 H 0.22649 0.70566 0.30319 0.0
H2384 H 0.52369 0.75613 0.43718 0.0
H2385 H 0.52174 0.72927 0.45708 0.0
H2386 H 0.51047 0.68908 0.40685 0.0
H2387 H 0.51239 0.71577 0.38685 0.0
H2388 H 0.49059 0.69738 0.45754 0.0
H2389 H 0.55718 0.6741 0.43814 0.0
H2390 H 0.55172 0.69756 0.43418 0.0
H2391 H 0.54071 0.67693 0.41827 0.0
C2392 C 0.52076 0.74157 0.43037 0.0
C2393 C 0.51828 0.73807 0.41043 0.0
C2394 C 0.51964 0.72626 0.44176 0.0
C2395 C 0.51621 0.70724 0.43341 0.0
C2396 C 0.51341 0.70369 0.41354 0.0
H2397 H 0.47976 0.59786 0.47341 0.0
H2398 H 0.48238 0.62898 0.46032 0.0
C2399 C 0.51442 0.71896 0.40215 0.0
C2400 C 0.51555 0.69101 0.44542 0.0
H2401 H 0.53713 0.65277 0.4549 0.0
C2402 C 0.50083 0.6877 0.45711 0.0
C2403 C 0.52911 0.6786 0.44502 0.0
C2404 C 0.54569 0.68201 0.43337 0.0
C2405 C 0.49891 0.67182 0.46789 0.0
C2406 C 0.51196 0.6589 0.46679 0.0
C2407 C 0.52708 0.66264 0.45565 0.0
C2408 C 0.50963 0.64083 0.47619 0.0
C2409 C 0.48289 0.66896 0.48029 0.0
C2410 C 0.52413 0.63713 0.48943 0.0
C2411 C 0.52267 0.61931 0.49693 0.0
C2412 C 0.5068 0.60489 0.49109 0.0
C2413 C 0.49213 0.60877 0.47818 0.0
C2414 C 0.49355 0.62657 0.47078 0.0
H2415 H 0.47768 0.68261 0.48379 0.0
H2416 H 0.47081 0.65851 0.47261 0.0
H2417 H 0.48745 0.66316 0.49373 0.0
H2418 H 0.53671 0.64791 0.49369 0.0
H2419 H 0.53419 0.61663 0.50681 0.0
H2420 H 0.56341 0.27625 0.65808 0.0
H2421 H 0.59447 0.27982 0.67662 0.0
H2422 H 0.57262 0.30749 0.72411 0.0
H2423 H 0.54119 0.30311 0.70586 0.0
H2424 H 0.61949 0.30947 0.69217 0.0
H2425 H 0.59399 0.26618 0.74942 0.0
H2426 H 0.57909 0.26758 0.72784 0.0
H2427 H 0.58267 0.28673 0.74674 0.0
C2428 C 0.56521 0.28312 0.67246 0.0
C2429 C 0.54982 0.28922 0.6806 0.0
C2430 C 0.58299 0.28518 0.68305 0.0
C2431 C 0.58582 0.29357 0.70192 0.0
C2432 C 0.57066 0.30044 0.7098 0.0
H2433 H 0.7039 0.31964 0.75675 0.0
H2434 H 0.67181 0.32366 0.74451 0.0
C2435 C 0.55275 0.29808 0.69931 0.0
C2436 C 0.6046 0.29478 0.71322 0.0
H2437 H 0.62638 0.2807 0.75335 0.0
C2438 C 0.621 0.30324 0.70559 0.0
C2439 C 0.60657 0.28646 0.73064 0.0
C2440 C 0.58967 0.27606 0.73907 0.0
C2441 C 0.6393 0.3032 0.71459 0.0
C2442 C 0.64126 0.29511 0.73214 0.0
C2443 C 0.62485 0.28708 0.74001 0.0
C2444 C 0.66014 0.29325 0.74167 0.0
C2445 C 0.65631 0.31094 0.70469 0.0
C2446 C 0.66396 0.27498 0.74524 0.0
C2447 C 0.68211 0.27269 0.75266 0.0
C2448 C 0.6969 0.28863 0.75651 0.0
C2449 C 0.69285 0.30705 0.75376 0.0
C2450 C 0.67457 0.30935 0.7466 0.0
H2451 H 0.6523 0.31198 0.68935 0.0
H2452 H 0.6626 0.32559 0.71131 0.0
H2453 H 0.66739 0.30171 0.70599 0.0
H2454 H 0.65305 0.26234 0.74165 0.0
H2455 H 0.68472 0.25829 0.75453 0.0
H2456 H 0.02697 0.37116 0.88168 0.0
H2457 H 0.02129 0.39784 0.903 0.0
H2458 H 0.00794 0.35916 0.94566 0.0
H2459 H 0.0133 0.33222 0.92427 0.0
H2460 H 0.98178 0.38232 0.94085 0.0
H2461 H 0.05404 0.42524 0.95005 0.0
H2462 H 0.0451 0.42145 0.92534 0.0
H2463 H 0.04892 0.40126 0.93825 0.0
C2464 C 0.023 0.3683 0.89565 0.0
C2465 C 0.02063 0.34951 0.90125 0.0
C2466 C 0.01984 0.38362 0.90787 0.0
C2467 C 0.01444 0.38055 0.92602 0.0
C2468 C 0.01219 0.36186 0.93174 0.0
H2469 H 0.01201 0.47794 0.00847 0.0
H2470 H 0.0192 0.4488 0.992 0.0
C2471 C 0.0153 0.34649 0.9195 0.0
C2472 C 0.01028 0.39673 0.9386 0.0
H2473 H 0.02874 0.44233 0.95801 0.0
C2474 C 0.9921 0.39539 0.94477 0.0
C2475 C 0.02387 0.41361 0.94405 0.0
C2476 C 0.04412 0.41539 0.93923 0.0
C2477 C 0.98691 0.41072 0.95568 0.0
C2478 C 7e-05 0.42811 0.96002 0.0
C2479 C 0.01849 0.42917 0.95441 0.0
C2480 C -0.00487 0.44537 0.97039 0.0
C2481 C 0.96746 0.40796 0.96263 0.0
C2482 C 0.97925 0.45326 0.96371 0.0
C2483 C 0.97497 0.46978 0.97329 0.0
C2484 C 0.98676 0.47893 0.98943 0.0
C2485 C 0.00269 0.47114 -0.00396 0.0
C2486 C 0.00682 0.45451 0.98662 0.0
H2487 H 0.96191 0.39252 0.96363 0.0
H2488 H 0.96774 0.41593 0.97678 0.0
H2489 H 0.95736 0.41333 0.95239 0.0
H2490 H 0.97034 0.44684 0.9509 0.0
H2491 H 0.96274 0.47567 0.96781 0.0
H2492 H 0.94828 0.75443 0.21194 0.0
H2493 H 0.91738 0.75621 0.22295 0.0
H2494 H 0.89776 0.77433 0.16908 0.0
H2495 H 0.92903 0.77318 0.15809 0.0
H2496 H 0.88775 0.79566 0.19761 0.0
H2497 H 0.86832 0.71935 0.21016 0.0
H2498 H 0.8909 0.7298 0.22293 0.0
H2499 H 0.88811 0.72785 0.19732 0.0
C2500 C 0.93738 0.75867 0.20234 0.0
C2501 C 0.94112 0.76355 0.18407 0.0
C2502 C 0.91964 0.75953 0.20863 0.0
C2503 C 0.90506 0.76494 0.19669 0.0
C2504 C 0.90874 0.76995 0.17848 0.0
H2505 H 0.7908 0.75168 0.23415 0.0
H2506 H 0.8175 0.74876 0.21557 0.0
C2507 C 0.92661 0.76928 0.17222 0.0
C2508 C 0.88635 0.76617 0.20368 0.0
H2509 H 0.85131 0.74138 0.22606 0.0
C2510 C 0.87964 0.78371 0.2036 0.0
C2511 C 0.87551 0.75047 0.21113 0.0
C2512 C 0.88098 0.73076 0.2102 0.0
C2513 C 0.8629 0.78624 0.21156 0.0
C2514 C 0.8529 0.771 0.22035 0.0
C2515 C 0.85912 0.75319 0.21963 0.0
C2516 C 0.83634 0.77335 0.2309 0.0
C2517 C 0.85609 0.80522 0.21035 0.0
C2518 C 0.83806 0.78797 0.24584 0.0
C2519 C 0.82267 0.7899 0.25612 0.0
C2520 C 0.80537 0.77708 0.25186 0.0
C2521 C 0.80377 0.76214 0.23728 0.0
C2522 C 0.81909 0.76035 0.22682 0.0
H2523 H 0.86107 0.8124 0.19793 0.0
H2524 H 0.84032 0.80336 0.20921 0.0
H2525 H 0.86202 0.81491 0.22332 0.0
H2526 H 0.85139 0.79777 0.24973 0.0
H2527 H 0.82435 0.80142 0.26746 0.0
H2528 H 0.46906 0.34386 0.09981 0.0
H2529 H 0.46587 0.37246 0.08343 0.0
H2530 H 0.49397 0.35062 0.03736 0.0
H2531 H 0.49674 0.32179 0.05337 0.0
H2532 H 0.4944 0.39881 0.07474 0.0
H2533 H 0.44893 0.36709 0.00878 0.0
H2534 H 0.45199 0.35381 0.0292 0.0
H2535 H 0.46969 0.35619 0.01274 0.0
C2536 C 0.47429 0.34502 0.08605 0.0
C2537 C 0.48311 0.33058 0.07784 0.0
C2538 C 0.47247 0.36137 0.07673 0.0
C2539 C 0.47946 0.36355 0.05908 0.0
C2540 C 0.48805 0.34902 0.05075 0.0
H2541 H 0.51447 0.47132 0.0122 0.0
H2542 H 0.51285 0.44137 0.02756 0.0
C2543 C 0.48973 0.3326 0.05997 0.0
C2544 C 0.47899 0.38159 0.05002 0.0
H2545 H 0.46536 0.39934 0.00859 0.0
C2546 C 0.48788 0.39896 0.06034 0.0
C2547 C 0.47031 0.38176 0.03132 0.0
C2548 C 0.45952 0.36373 0.01994 0.0
C2549 C 0.48873 0.41648 0.05231 0.0
C2550 C 0.4809 0.41654 0.03327 0.0
C2551 C 0.47158 0.39923 0.02311 0.0
C2552 C 0.48204 0.43441 0.02365 0.0
C2553 C 0.49792 0.43472 0.06439 0.0
C2554 C 0.46533 0.44002 0.01575 0.0
C2555 C 0.46628 0.45691 0.00676 0.0
C2556 C 0.48395 0.46849 0.00565 0.0
C2557 C 0.50069 0.46272 0.01319 0.0
C2558 C 0.49976 0.44571 0.02202 0.0
H2559 H 0.49747 0.43305 0.07978 0.0
H2560 H 0.5131 0.43811 0.06187 0.0
H2561 H 0.49092 0.44705 0.06086 0.0
H2562 H 0.45153 0.43146 0.01678 0.0
H2563 H 0.45317 0.46114 0.00109 0.0
H2564 H 0.95838 0.26612 0.39637 0.0
H2565 H 0.92629 0.26335 0.3798 0.0
H2566 H 0.94697 0.24555 0.32718 0.0
H2567 H 0.97913 0.24959 0.34345 0.0
H2568 H 0.9279 0.27169 0.32119 0.0
H2569 H 0.88474 0.22017 0.36106 0.0
H2570 H 0.89727 0.2402 0.37678 0.0
H2571 H 0.91042 0.22444 0.36439 0.0
C2572 C 0.95592 0.26141 0.38132 0.0
C2573 C 0.97111 0.25822 0.3711 0.0
C2574 C 0.93758 0.25963 0.37189 0.0
C2575 C 0.93412 0.25395 0.35226 0.0
C2576 C 0.94926 0.24998 0.3423 0.0
H2577 H 0.81784 0.23699 0.29469 0.0
H2578 H 0.84893 0.23101 0.30819 0.0
C2579 C 0.96761 0.25231 0.35158 0.0
C2580 C 0.91529 0.25405 0.34168 0.0
H2581 H 0.86747 0.24002 0.34228 0.0
C2582 C 0.91473 0.26447 0.32567 0.0
C2583 C 0.89806 0.24438 0.34723 0.0
C2584 C 0.89767 0.2315 0.36317 0.0
C2585 C 0.89746 0.26605 0.31546 0.0
C2586 C 0.88021 0.25775 0.32196 0.0
C2587 C 0.88071 0.24667 0.3375 0.0
C2588 C 0.86157 0.26115 0.31337 0.0
C2589 C 0.898 0.2765 0.29773 0.0
C2590 C 0.85834 0.28003 0.31199 0.0
C2591 C 0.84085 0.28342 0.30395 0.0
C2592 C 0.8261 0.268 0.29767 0.0
C2593 C 0.8291 0.2491 0.29939 0.0
C2594 C 0.84678 0.24569 0.30712 0.0
H2595 H 0.91127 0.27557 0.29104 0.0
H2596 H 0.88562 0.27061 0.2871 0.0
H2597 H 0.89778 0.29195 0.30156 0.0
H2598 H 0.8693 0.2922 0.31731 0.0
H2599 H 0.83873 0.29813 0.30301 0.0
H2600 H 0.01479 0.70826 0.59487 0.0
H2601 H 0.00901 0.67812 0.57453 0.0
H2602 H 0.96582 0.69865 0.53906 0.0
H2603 H 0.97186 0.72924 0.55919 0.0
H2604 H 0.97549 0.65267 0.56831 0.0
H2605 H -0.0022 0.67785 0.50024 0.0
H2606 H 0.0037 0.69267 0.52256 0.0
H2607 H 0.98005 0.68936 0.51047 0.0
C2608 C 0.00418 0.70649 0.58264 0.0
C2609 C 0.99376 0.72113 0.57865 0.0
C2610 C 0.00088 0.68923 0.57105 0.0
C2611 C 0.98705 0.68617 0.55525 0.0
C2612 C 0.97678 0.70084 0.551 0.0
H2613 H 0.95867 0.5649 0.50904 0.0
H2614 H 0.95307 0.59739 0.51803 0.0
C2615 C 0.9802 0.71827 0.56255 0.0
C2616 C 0.9831 0.66723 0.54394 0.0
H2617 H 0.98739 0.64462 0.50071 0.0
C2618 C 0.97786 0.65087 0.55345 0.0
C2619 C 0.98623 0.66503 0.52459 0.0
C2620 C 0.99239 0.68211 0.51383 0.0
C2621 C 0.97663 0.63232 0.54448 0.0
C2622 C 0.98016 0.63008 0.52521 0.0
C2623 C 0.98453 0.64643 0.51541 0.0
C2624 C 0.98202 0.61112 0.51597 0.0
C2625 C 0.97279 0.61539 0.55609 0.0
C2626 C -0.00024 0.60829 0.51056 0.0
C2627 C 0.00294 0.58984 0.50515 0.0
C2628 C 0.98844 0.57384 0.50516 0.0
C2629 C 0.97021 0.57689 0.5091 0.0
C2630 C 0.967 0.59543 0.51435 0.0
H2631 H 0.97412 0.61991 0.57157 0.0
H2632 H 0.95808 0.60755 0.55185 0.0
H2633 H 0.98278 0.60524 0.5536 0.0
H2634 H 0.01151 0.62023 0.51161 0.0
H2635 H 0.01711 0.58809 0.50206 0.0
H2636 H 0.54879 0.73738 0.86307 0.0
H2637 H 0.57462 0.73701 0.84307 0.0
H2638 H 0.61567 0.75768 0.89175 0.0
H2639 H 0.58979 0.75784 0.91202 0.0
H2640 H 0.59887 0.77072 0.83864 0.0
H2641 H 0.63905 0.71529 0.86422 0.0
H2642 H 0.61496 0.71623 0.86931 0.0
H2643 H 0.63458 0.73241 0.88258 0.0
C2644 C 0.56333 0.7415 0.86961 0.0
C2645 C 0.56732 0.74782 0.88905 0.0
C2646 C 0.57804 0.74124 0.85817 0.0
C2647 C 0.59699 0.74727 0.86596 0.0
C2648 C 0.60112 0.7527 0.88556 0.0
H2649 H 0.69328 0.79758 0.81301 0.0
H2650 H 0.66524 0.79092 0.83024 0.0
C2651 C 0.58635 0.75286 0.89709 0.0
C2652 C 0.61209 0.74994 0.85319 0.0
H2653 H 0.65392 0.73639 0.84335 0.0
C2654 C 0.61084 0.76311 0.83955 0.0
C2655 C 0.62754 0.73986 0.85438 0.0
C2656 C 0.6291 0.72501 0.86829 0.0
C2657 C 0.62491 0.76681 0.8273 0.0
C2658 C 0.64071 0.75726 0.82895 0.0
C2659 C 0.64176 0.74373 0.84225 0.0
C2660 C 0.65666 0.76164 0.81745 0.0
C2661 C 0.6228 0.7809 0.8127 0.0
C2662 C 0.66094 0.74738 0.80455 0.0
C2663 C 0.67688 0.75116 0.79467 0.0
C2664 C 0.6888 0.76918 0.79778 0.0
C2665 C 0.68422 0.7836 0.81034 0.0
C2666 C 0.66824 0.77984 0.82014 0.0
H2667 H 0.60787 0.78331 0.81013 0.0
H2668 H 0.63191 0.79492 0.81788 0.0
H2669 H 0.62745 0.77578 0.799 0.0
H2670 H 0.65213 0.73325 0.80237 0.0
H2671 H 0.68022 0.7398 0.78511 0.0
H2672 H 0.4142 0.58207 0.69745 0.0
H2673 H 0.43317 0.58175 0.67064 0.0
H2674 H 0.38596 0.54552 0.63614 0.0
H2675 H 0.36667 0.54636 0.66278 0.0
H2676 H 0.44428 0.55152 0.65438 0.0
H2677 H 0.40268 0.58351 0.59949 0.0
H2678 H 0.39806 0.58486 0.62407 0.0
H2679 H 0.38862 0.5635 0.60839 0.0
C2680 C 0.40774 0.57432 0.68404 0.0
C2681 C 0.38896 0.56423 0.6822 0.0
C2682 C 0.41861 0.57413 0.66873 0.0
C2683 C 0.41097 0.56376 0.65129 0.0
C2684 C 0.39204 0.55401 0.64928 0.0
H2685 H 0.47429 0.51403 0.56903 0.0
H2686 H 0.45663 0.52145 0.59555 0.0
C2687 C 0.38105 0.55441 0.66456 0.0
C2688 C 0.42337 0.56185 0.63586 0.0
H2689 H 0.42644 0.56632 0.58867 0.0
C2690 C 0.44045 0.55496 0.64006 0.0
C2691 C 0.41854 0.56656 0.61722 0.0
C2692 C 0.40107 0.57521 0.61205 0.0
C2693 C 0.45257 0.55218 0.62607 0.0
C2694 C 0.44722 0.55587 0.60721 0.0
C2695 C 0.43043 0.56328 0.60309 0.0
C2696 C 0.45858 0.55164 0.59146 0.0
C2697 C 0.47107 0.54548 0.63173 0.0
C2698 C 0.46526 0.56606 0.58007 0.0
C2699 C 0.47525 0.56182 0.56471 0.0
C2700 C 0.4787 0.54305 0.56044 0.0
C2701 C 0.47213 0.5287 0.57202 0.0
C2702 C 0.46206 0.53293 0.58727 0.0
H2703 H 0.47583 0.54929 0.64711 0.0
H2704 H 0.469 0.5296 0.629 0.0
H2705 H 0.48253 0.55183 0.62346 0.0
H2706 H 0.46264 0.58058 0.58299 0.0
H2707 H 0.47997 0.5732 0.55603 0.0
H2708 H 0.77542 0.22637 0.96609 0.0
H2709 H 0.77039 0.24139 0.93659 0.0
H2710 H 0.79793 0.19984 0.90727 0.0
H2711 H 0.80224 0.18427 0.93654 0.0
H2712 H 0.79251 0.25866 0.91401 0.0
H2713 H 0.74993 0.19391 0.87257 0.0
H2714 H 0.75638 0.19492 0.89783 0.0
H2715 H 0.77306 0.18987 0.88144 0.0
C2716 C 0.78049 0.22049 0.95338 0.0
C2717 C 0.78912 0.20404 0.95365 0.0
C2718 C 0.77756 0.22906 0.93647 0.0
C2719 C 0.7833 0.22148 0.91948 0.0
C2720 C 0.79274 0.20559 0.91996 0.0
H2721 H 0.79582 0.28584 0.82061 0.0
H2722 H 0.80049 0.26982 0.84948 0.0
C2723 C 0.79541 0.19683 0.93679 0.0
C2724 C 0.77955 0.23035 0.90139 0.0
H2725 H 0.76039 0.22026 0.85497 0.0
C2726 C 0.7854 0.25024 0.90114 0.0
C2727 C 0.76989 0.21953 0.88461 0.0
C2728 C 0.76177 0.19842 0.88414 0.0
C2729 C 0.78221 0.25951 0.88463 0.0
C2730 C 0.77351 0.24852 0.86758 0.0
C2731 C 0.76731 0.22869 0.8679 0.0
C2732 C 0.77076 0.25733 0.84931 0.0
C2733 C 0.7878 0.2811 0.88586 0.0
C2734 C 0.75267 0.25481 0.83885 0.0
C2735 C 0.75006 0.26364 0.822 0.0
C2736 C 0.76547 0.27524 0.81543 0.0
C2737 C 0.78361 0.27728 0.82556 0.0
C2738 C 0.78627 0.26822 0.84216 0.0
H2739 H 0.78817 0.28772 0.90064 0.0
H2740 H 0.8023 0.28481 0.88143 0.0
H2741 H 0.77779 0.28756 0.87648 0.0
H2742 H 0.74049 0.24632 0.84391 0.0
H2743 H 0.73593 0.26182 0.81442 0.0
H2744 H 0.06279 0.46511 0.20902 0.0
H2745 H 0.04781 0.46968 0.17761 0.0
H2746 H 0.09636 0.51231 0.17025 0.0
H2747 H 0.11179 0.50689 0.20101 0.0
H2748 H 0.03562 0.49837 0.16429 0.0
H2749 H 0.09187 0.48217 0.12066 0.0
H2750 H 0.09239 0.47767 0.1453 0.0
H2751 H 0.10123 0.50132 0.13875 0.0
C2752 C 0.07038 0.4752 0.20051 0.0
C2753 C 0.08856 0.48544 0.20735 0.0
C2754 C 0.06178 0.47788 0.1826 0.0
C2755 C 0.07106 0.49108 0.17127 0.0
C2756 C 0.08913 0.50153 0.17828 0.0
H2757 H 0.01114 0.54044 0.07891 0.0
H2758 H 0.02496 0.53326 0.10991 0.0
C2759 C 0.09792 0.4985 0.19597 0.0
C2760 C 0.06154 0.49449 0.15252 0.0
H2761 H 0.06877 0.49889 0.10611 0.0
C2762 C 0.04282 0.49827 0.15152 0.0
C2763 C 0.07071 0.49408 0.1357 0.0
C2764 C 0.09006 0.48837 0.13511 0.0
C2765 C 0.03315 0.50188 0.13435 0.0
C2766 C 0.04275 0.5026 0.11778 0.0
C2767 C 0.06139 0.4986 0.11876 0.0
C2768 C 0.03374 0.50695 0.09914 0.0
C2769 C 0.01259 0.50431 0.13414 0.0
C2770 C 0.03454 0.49501 0.08257 0.0
C2771 C 0.02727 0.49949 0.06484 0.0
C2772 C 0.01866 0.51582 0.06327 0.0
C2773 C 0.01746 0.52761 0.07979 0.0
C2774 C 0.02524 0.52341 0.09753 0.0
H2775 H 0.00575 0.497 0.14565 0.0
H2776 H 0.01189 0.51983 0.13658 0.0
H2777 H 0.00426 0.49847 0.12035 0.0
H2778 H 0.04095 0.48222 0.08331 0.0
H2779 H 0.02831 0.49009 0.05233 0.0
H2780 H 0.73616 0.84874 0.49228 0.0
H2781 H 0.74116 0.82612 0.46604 0.0
H2782 H 0.74432 0.87143 0.42874 0.0
H2783 H 0.73935 0.89409 0.45469 0.0
H2784 H 0.71837 0.81705 0.42888 0.0
H2785 H 0.79387 0.84802 0.42426 0.0
H2786 H 0.78201 0.85218 0.44518 0.0
H2787 H 0.77854 0.86569 0.42512 0.0
C2788 C 0.73796 0.8539 0.4785 0.0
C2789 C 0.73744 0.87324 0.47559 0.0
C2790 C 0.7408 0.84095 0.46357 0.0
C2791 C 0.74337 0.84724 0.44562 0.0
C2792 C 0.74266 0.86644 0.44262 0.0
H2793 H 0.72751 0.80674 0.33129 0.0
H2794 H 0.72465 0.81592 0.36458 0.0
C2795 C 0.73972 0.87933 0.45745 0.0
C2796 C 0.74642 0.83386 0.42969 0.0
H2797 H 0.77709 0.82881 0.39655 0.0
C2798 C 0.73134 0.8193 0.42198 0.0
C2799 C 0.76349 0.83662 0.42102 0.0
C2800 C 0.78049 0.85135 0.42942 0.0
C2801 C 0.73237 0.80835 0.40489 0.0
C2802 C 0.7488 0.81234 0.39529 0.0
C2803 C 0.76443 0.82588 0.40383 0.0
C2804 C 0.74932 0.80445 0.37548 0.0
C2805 C 0.71567 0.79301 0.39702 0.0
C2806 C 0.7643 0.79518 0.37053 0.0
C2807 C 0.7661 0.79014 0.35143 0.0
C2808 C 0.75302 0.79446 0.33711 0.0
C2809 C 0.73778 0.80326 0.34211 0.0
C2810 C 0.736 0.8083 0.36113 0.0
H2811 H 0.70784 0.78705 0.40861 0.0
H2812 H 0.70562 0.79943 0.38767 0.0
H2813 H 0.72028 0.78108 0.38857 0.0
H2814 H 0.77483 0.79229 0.38141 0.0
H2815 H 0.77796 0.78334 0.34787 0.0
H2816 H 0.42517 0.53942 0.78842 0.0
H2817 H 0.43589 0.54272 0.82223 0.0
H2818 H 0.39063 0.57388 0.8336 0.0
H2819 H 0.37943 0.57031 0.79956 0.0
H2820 H 0.44807 0.57534 0.84724 0.0
H2821 H 0.38334 0.53077 0.86865 0.0
H2822 H 0.38802 0.53126 0.84416 0.0
H2823 H 0.37965 0.55108 0.856 0.0
C2824 C 0.41743 0.54701 0.79804 0.0
C2825 C 0.40134 0.5545 0.79126 0.0
C2826 C 0.42364 0.54891 0.81739 0.0
C2827 C 0.41395 0.55835 0.83044 0.0
C2828 C 0.39811 0.56624 0.82378 0.0
H2829 H 0.44428 0.56044 0.95438 0.0
H2830 H 0.43056 0.56994 0.92419 0.0
C2831 C 0.39179 0.56426 0.80433 0.0
C2832 C 0.42053 0.55946 0.85098 0.0
H2833 H 0.40888 0.54139 0.89234 0.0
C2834 C 0.4394 0.56817 0.85718 0.0
C2835 C 0.40916 0.55016 0.86393 0.0
C2836 C 0.38896 0.54015 0.85792 0.0
C2837 C 0.44748 0.56704 0.87573 0.0
C2838 C 0.43642 0.55689 0.88833 0.0
C2839 C 0.41725 0.54917 0.88255 0.0
C2840 C 0.44516 0.55209 0.90663 0.0
C2841 C 0.46798 0.57611 0.88157 0.0
C2842 C 0.45773 0.53887 0.9066 0.0
C2843 C 0.46535 0.53331 0.92367 0.0
C2844 C 0.46059 0.54095 0.94106 0.0
C2845 C 0.44817 0.55439 0.94112 0.0
C2846 C 0.44036 0.55981 0.92396 0.0
H2847 H 0.47303 0.58725 0.87216 0.0
H2848 H 0.46991 0.58274 0.89648 0.0
H2849 H 0.47704 0.56485 0.88067 0.0
H2850 H 0.46139 0.5326 0.89332 0.0
H2851 H 0.47489 0.52293 0.92325 0.0
H2852 H 0.80212 0.21905 0.06024 0.0
H2853 H 0.80289 0.23847 0.09073 0.0
H2854 H 0.77051 0.19 0.11293 0.0
H2855 H 0.77005 0.17061 0.08314 0.0
H2856 H 0.77455 0.24905 0.11009 0.0
H2857 H 0.81401 0.2048 0.15421 0.0
H2858 H 0.81233 0.20213 0.1286 0.0
H2859 H 0.79347 0.19028 0.14084 0.0
C2860 C 0.7953 0.21253 0.07169 0.0
C2861 C 0.78624 0.19316 0.06923 0.0
C2862 C 0.79573 0.22364 0.0891 0.0
C2863 C 0.78716 0.21557 0.10434 0.0
C2864 C 0.77777 0.19642 0.10168 0.0
H2865 H 0.73994 0.26468 0.19928 0.0
H2866 H 0.74764 0.25325 0.16815 0.0
C2867 C 0.77743 0.18535 0.08448 0.0
C2868 C 0.78731 0.22703 0.12293 0.0
H2869 H 0.79529 0.22464 0.17082 0.0
C2870 C 0.77937 0.24389 0.12337 0.0
C2871 C 0.79396 0.22062 0.14033 0.0
C2872 C 0.80411 0.20359 0.14098 0.0
C2873 C 0.77693 0.25386 0.14069 0.0
C2874 C 0.78209 0.24648 0.15807 0.0
C2875 C 0.791 0.23022 0.15759 0.0
C2876 C 0.7777 0.25477 0.17683 0.0
C2877 C 0.76886 0.2722 0.14009 0.0
C2878 C 0.79186 0.25901 0.19242 0.0
C2879 C 0.78739 0.2652 0.21043 0.0
C2880 C 0.76866 0.2674 0.21327 0.0
C2881 C 0.75457 0.26344 0.1976 0.0
C2882 C 0.759 0.25702 0.17967 0.0
H2883 H 0.77227 0.27941 0.12719 0.0
H2884 H 0.75313 0.26877 0.13954 0.0
H2885 H 0.77443 0.28241 0.15281 0.0
H2886 H 0.80638 0.25729 0.19071 0.0
H2887 H 0.7986 0.26807 0.22216 0.0
H2888 H 0.09324 0.47734 0.32838 0.0
H2889 H 0.0813 0.47658 0.35969 0.0
H2890 H 0.03845 0.50933 0.3412 0.0
H2891 H 0.04991 0.5099 0.31006 0.0
H2892 H 0.07812 0.5067 0.3864 0.0
H2893 H 0.00713 0.46378 0.3615 0.0
H2894 H 0.02656 0.46577 0.34693 0.0
H2895 H 0.01238 0.48448 0.34867 0.0
C2896 C 0.08118 0.48425 0.33096 0.0
C2897 C 0.07245 0.49353 0.3166 0.0
C2898 C 0.07442 0.48385 0.34887 0.0
C2899 C 0.05876 0.49262 0.35267 0.0
C2900 C 0.05024 0.50208 0.33846 0.0
H2901 H 0.02038 0.53364 0.45762 0.0
H2902 H 0.03676 0.52943 0.42918 0.0
C2903 C 0.05691 0.50244 0.32064 0.0
C2904 C 0.05135 0.49231 0.37152 0.0
H2905 H 0.01036 0.48122 0.39225 0.0
C2906 C 0.06337 0.50092 0.38776 0.0
C2907 C 0.03219 0.48451 0.37334 0.0
C2908 C 0.01887 0.47394 0.35671 0.0
C2909 C 0.05651 0.50262 0.40564 0.0
C2910 C 0.03702 0.49589 0.4072 0.0
C2911 C 0.02524 0.48661 0.39107 0.0
C2912 C 0.02834 0.49845 0.42526 0.0
C2913 C 0.07024 0.51152 0.42265 0.0
C2914 C 0.01783 0.48254 0.43237 0.0
C2915 C 0.00824 0.48499 0.44839 0.0
C2916 C 0.00905 0.50338 0.45771 0.0
C2917 C 0.01978 0.51928 0.45085 0.0
C2918 C 0.02923 0.51686 0.43466 0.0
H2919 H 0.08512 0.51011 0.42042 0.0
H2920 H 0.06966 0.52708 0.42489 0.0
H2921 H 0.06658 0.5048 0.43573 0.0
H2922 H 0.01686 0.46822 0.42536 0.0
H2923 H 0.00012 0.47248 0.45346 0.0
H2924 H 0.7188 0.83977 0.56984 0.0
H2925 H 0.71736 0.82189 0.5979 0.0
H2926 H 0.72291 0.875 0.63374 0.0
H2927 H 0.72471 0.89303 0.60581 0.0
H2928 H 0.74847 0.85266 0.64523 0.0
H2929 H 0.67585 0.8092 0.6328 0.0
H2930 H 0.68958 0.80698 0.61309 0.0
H2931 H 0.6831 0.82979 0.62006 0.0
C2932 C 0.71951 0.84763 0.58368 0.0
C2933 C 0.72195 0.86781 0.58565 0.0
C2934 C 0.7185 0.83737 0.59967 0.0
C2935 C 0.71974 0.84711 0.61785 0.0
C2936 C 0.7218 0.86723 0.6198 0.0
H2937 H 0.7141 0.80176 0.72784 0.0
H2938 H 0.70588 0.81565 0.69828 0.0
C2939 C 0.72288 0.8775 0.60385 0.0
C2940 C 0.72071 0.83652 0.63495 0.0
H2941 H 0.69725 0.80005 0.65705 0.0
C2942 C 0.7372 0.84127 0.64787 0.0
C2943 C 0.70592 0.82176 0.63841 0.0
C2944 C 0.68753 0.81673 0.62546 0.0
C2945 C 0.73951 0.83136 0.66398 0.0
C2946 C 0.72509 0.81608 0.66704 0.0
C2947 C 0.70836 0.81161 0.65443 0.0
C2948 C 0.72745 0.80474 0.68337 0.0
C2949 C 0.75737 0.83732 0.67764 0.0
C2950 C 0.74171 0.79337 0.68435 0.0
C2951 C 0.74648 0.78549 0.70115 0.0
C2952 C 0.73696 0.78878 0.7172 0.0
C2953 C 0.72165 0.79892 0.71569 0.0
C2954 C 0.71695 0.80689 0.69885 0.0
H2955 H 0.76498 0.85185 0.67551 0.0
H2956 H 0.754 0.83733 0.69259 0.0
H2957 H 0.76715 0.82692 0.67539 0.0
H2958 H 0.74981 0.79142 0.67241 0.0
H2959 H 0.75821 0.77758 0.70182 0.0
H2960 H 0.63685 0.39562 0.52665 0.0
H2961 H 0.61084 0.41434 0.52582 0.0
H2962 H 0.65188 0.46691 0.53306 0.0
H2963 H 0.67777 0.44844 0.53422 0.0
H2964 H 0.62342 0.46828 0.55601 0.0
H2965 H 0.59304 0.44293 0.48167 0.0
H2966 H 0.59469 0.42428 0.49718 0.0
H2967 H 0.61604 0.43874 0.49138 0.0
C2968 C 0.6403 0.41116 0.52807 0.0
C2969 C 0.6594 0.42051 0.53042 0.0
C2970 C 0.62542 0.42185 0.52749 0.0
C2971 C 0.62938 0.44207 0.52911 0.0
C2972 C 0.64844 0.45136 0.53173 0.0
H2973 H 0.56178 0.52621 0.49583 0.0
H2974 H 0.58413 0.50372 0.49952 0.0
C2975 C 0.66325 0.44074 0.53236 0.0
C2976 C 0.61388 0.45377 0.52815 0.0
H2977 H 0.57722 0.46432 0.49865 0.0
C2978 C 0.61324 0.46733 0.54352 0.0
C2979 C 0.60072 0.45268 0.51176 0.0
C2980 C 0.60117 0.43901 0.49447 0.0
C2981 C 0.60002 0.47998 0.54286 0.0
C2982 C 0.58681 0.47884 0.5265 0.0
C2983 C 0.58727 0.46511 0.51123 0.0
C2984 C 0.5731 0.49245 0.52449 0.0
C2985 C 0.60083 0.49494 0.5594 0.0
C2986 C 0.5594 0.49364 0.53728 0.0
C2987 C 0.54673 0.50667 0.53529 0.0
C2988 C 0.54734 0.5185 0.52031 0.0
C2989 C 0.56104 0.51731 0.50755 0.0
C2990 C 0.57372 0.50437 0.50957 0.0
H2991 H 0.61456 0.49694 0.56864 0.0
H2992 H 0.59887 0.50901 0.55439 0.0
H2993 H 0.58922 0.49029 0.5682 0.0
H2994 H 0.55842 0.48443 0.54873 0.0
H2995 H 0.53648 0.50752 0.54547 0.0
H2996 H 0.18541 0.14462 0.48113 0.0
H2997 H 0.15248 0.12933 0.48267 0.0
H2998 H 0.16192 0.07924 0.44869 0.0
H2999 H 0.19517 0.0941 0.44795 0.0
H3000 H 0.1215 0.11466 0.45908 0.0
H3001 H 0.14729 0.05607 0.49586 0.0
H3002 H 0.16315 0.0771 0.49082 0.0
H3003 H 0.15471 0.05766 0.47254 0.0
C3004 C 0.18037 0.13047 0.47373 0.0
C3005 C 0.19289 0.12039 0.46467 0.0
C3006 C 0.16155 0.12174 0.47463 0.0
C3007 C 0.1549 0.1029 0.46628 0.0
C3008 C 0.16693 0.09352 0.45579 0.0
H3009 H 0.03524 0.04847 0.4664 0.0
H3010 H 0.06534 0.06385 0.45627 0.0
C3011 C 0.18586 0.10207 0.45524 0.0
C3012 C 0.13592 0.09268 0.46979 0.0
H3013 H 0.11409 0.05317 0.48874 0.0
C3014 C 0.11984 0.10119 0.46553 0.0
C3015 C 0.13384 0.07528 0.47854 0.0
C3016 C 0.15067 0.06608 0.48489 0.0
C3017 C 0.10177 0.09288 0.46994 0.0
C3018 C 0.09965 0.07523 0.47826 0.0
C3019 C 0.1157 0.06662 0.48224 0.0
C3020 C 0.08124 0.06592 0.48407 0.0
C3021 C 0.08535 0.10349 0.46634 0.0
C3022 C 0.08029 0.06136 0.50289 0.0
C3023 C 0.06329 0.05214 0.50856 0.0
C3024 C 0.04679 0.04745 0.49559 0.0
C3025 C 0.0477 0.05203 0.47675 0.0
C3026 C 0.06485 0.06097 0.47098 0.0
H3027 H 0.09037 0.11898 0.46503 0.0
H3028 H 0.07677 0.09722 0.4528 0.0
H3029 H 0.07596 0.10227 0.47792 0.0
H3030 H 0.09274 0.06501 0.51326 0.0
H3031 H 0.06302 0.04896 0.52322 0.0
H3032 H 0.2019 0.97491 0.79406 0.0
H3033 H 0.22097 0.94919 0.79374 0.0
H3034 H 0.16957 0.90679 0.78578 0.0
H3035 H 0.1505 0.93232 0.78675 0.0
H3036 H 0.19588 0.89579 0.80957 0.0
H3037 H 0.22823 0.91898 0.74538 0.0
H3038 H 0.23282 0.93721 0.76505 0.0
H3039 H 0.20882 0.92902 0.75419 0.0
C3040 C 0.19468 0.96011 0.7925 0.0
C3041 C 0.17468 0.95567 0.79028 0.0
C3042 C 0.20559 0.94542 0.79214 0.0
C3043 C 0.1967 0.92604 0.78922 0.0
C3044 C 0.17676 0.92161 0.78791 0.0
H3045 H 0.24537 0.82962 0.74464 0.0
H3046 H 0.22808 0.85646 0.74955 0.0
C3047 C 0.16587 0.93625 0.78848 0.0
C3048 C 0.20799 0.91033 0.7869 0.0
H3049 H 0.23978 0.89353 0.75975 0.0
C3050 C 0.2055 0.8953 0.7987 0.0
C3051 C 0.22026 0.90949 0.77244 0.0
C3052 C 0.22258 0.92442 0.75841 0.0
C3053 C 0.21495 0.87951 0.79649 0.0
C3054 C 0.2277 0.87901 0.78244 0.0
C3055 C 0.23015 0.89401 0.77062 0.0
C3056 C 0.23831 0.86285 0.77945 0.0
C3057 C 0.21067 0.86326 0.80882 0.0
C3058 C 0.25013 0.85778 0.79445 0.0
C3059 C 0.25957 0.84218 0.79174 0.0
C3060 C 0.25755 0.83151 0.7739 0.0
C3061 C 0.24652 0.83715 0.75867 0.0
C3062 C 0.23687 0.85262 0.76144 0.0
H3063 H 0.19681 0.86318 0.81467 0.0
H3064 H 0.21034 0.84911 0.80076 0.0
H3065 H 0.22191 0.86503 0.821 0.0
H3066 H 0.252 0.86581 0.80831 0.0
H3067 H 0.26814 0.83824 0.80372 0.0
H3068 H 0.26815 0.95608 0.00727 0.0
H3069 H 0.30237 0.96684 0.00844 0.0
H3070 H 0.31266 0.91692 0.03609 0.0
H3071 H 0.27821 0.90582 0.03486 0.0
H3072 H 0.33066 0.97477 0.04015 0.0
H3073 H 0.34252 0.9155 0.98879 0.0
H3074 H 0.31911 0.92092 0.99157 0.0
H3075 H 0.33071 0.90851 0.00906 0.0
C3076 C 0.27762 0.94735 0.01366 0.0
C3077 C 0.2704 0.92999 0.02086 0.0
C3078 C 0.2972 0.95357 0.01435 0.0
C3079 C 0.31002 0.94257 0.02214 0.0
C3080 C 0.30296 0.92547 0.02977 0.0
H3081 H 0.43293 0.98703 0.04063 0.0
H3082 H 0.40041 0.97261 0.04553 0.0
C3083 C 0.28329 0.91921 0.02913 0.0
C3084 C 0.33072 0.94908 0.02186 0.0
H3085 H 0.36925 0.93877 0.00077 0.0
C3086 C 0.33918 0.96683 0.03171 0.0
C3087 C 0.34168 0.93875 0.01064 0.0
C3088 C 0.3331 0.91992 -0.00073 0.0
C3089 C 0.35826 0.97471 0.0304 0.0
C3090 C 0.36919 0.96444 0.01909 0.0
C3091 C 0.36083 0.94654 0.00949 0.0
C3092 C 0.38901 0.97255 0.01619 0.0
C3093 C 0.36637 0.99429 0.04051 0.0
C3094 C 0.39343 0.97689 -0.002 0.0
C3095 C 0.41196 0.98505 0.99517 0.0
C3096 C 0.42638 0.9889 0.01046 0.0
C3097 C 0.42203 0.98427 0.02861 0.0
C3098 C 0.40348 0.97611 0.03145 0.0
H3099 H 0.35506 0.00192 0.04539 0.0
H3100 H 0.37609 0.99264 0.05317 0.0
H3101 H 0.37471 0.00336 0.0311 0.0
H3102 H 0.38246 0.9742 0.98605 0.0
H3103 H 0.41497 0.98845 0.98103 0.0
H3104 H 0.88514 0.63409 0.76577 0.0
H3105 H 0.86655 0.65982 0.77065 0.0
H3106 H 0.8195 0.62665 0.73342 0.0
H3107 H 0.83771 0.60063 0.72909 0.0
H3108 H 0.85159 0.68222 0.74743 0.0
H3109 H 0.79298 0.63882 0.77872 0.0
H3110 H 0.81476 0.63022 0.77479 0.0
H3111 H 0.79607 0.62855 0.75557 0.0
C3112 C 0.8708 0.63226 0.75869 0.0
C3113 C 0.86282 0.61523 0.74721 0.0
C3114 C 0.86019 0.64699 0.76147 0.0
C3115 C 0.84144 0.64505 0.75274 0.0
C3116 C 0.83369 0.62828 0.7408 0.0
H3117 H 0.77733 0.73895 0.73925 0.0
H3118 H 0.79783 0.71474 0.73497 0.0
C3119 C 0.84418 0.61345 0.73823 0.0
C3120 C 0.83006 0.66061 0.75598 0.0
H3121 H 0.78752 0.66926 0.76959 0.0
C3122 C 0.83762 0.6794 0.75237 0.0
C3123 C 0.81196 0.65707 0.76278 0.0
C3124 C 0.80356 0.63762 0.76839 0.0
C3125 C 0.82747 0.69464 0.75504 0.0
C3126 C 0.80898 0.69088 0.76095 0.0
C3127 C 0.80158 0.67215 0.76484 0.0
C3128 C 0.79712 0.70613 0.76355 0.0
C3129 C 0.8369 0.71466 0.75201 0.0
C3130 C 0.78946 0.70908 0.78084 0.0
C3131 C 0.77746 0.7226 0.78313 0.0
C3132 C 0.77299 0.73357 0.76824 0.0
C3133 C 0.78073 0.73079 0.751 0.0
C3134 C 0.79256 0.71707 0.74861 0.0
H3135 H 0.85265 0.71601 0.75309 0.0
H3136 H 0.83198 0.71803 0.73756 0.0
H3137 H 0.83322 0.72549 0.76256 0.0
H3138 H 0.79271 0.70084 0.79258 0.0
H3139 H 0.77176 0.72454 0.79662 0.0
H3140 H 0.78228 0.58107 0.0272 0.0
H3141 H 0.81306 0.57174 0.03579 0.0
H3142 H 0.84086 0.61851 0.00755 0.0
H3143 H 0.81008 0.62784 -0.00138 0.0
H3144 H 0.85083 0.58372 -0.00318 0.0
H3145 H 0.85722 0.59645 0.07542 0.0
H3146 H 0.83517 0.58176 0.06528 0.0
H3147 H 0.84049 0.60639 0.06012 0.0
C3148 C 0.79494 0.58949 0.02292 0.0
C3149 C 0.7937 0.60518 0.01216 0.0
C3150 C 0.81254 0.58423 0.02801 0.0
C3151 C 0.82925 0.59464 0.0226 0.0
C3152 C 0.82811 0.61039 0.012 0.0
H3153 H 0.94706 0.57864 0.04258 0.0
H3154 H 0.91768 0.59211 0.04345 0.0
C3155 C 0.81051 0.61566 0.00687 0.0
C3156 C 0.84768 0.58813 0.02663 0.0
H3157 H 0.87881 0.57784 0.06233 0.0
C3158 C 0.85703 0.58261 0.01114 0.0
C3159 C 0.85576 0.58678 0.04535 0.0
C3160 C 0.84675 0.59333 0.06252 0.0
C3161 C 0.87397 0.57528 0.01385 0.0
C3162 C 0.88166 0.57328 0.0325 0.0
C3163 C 0.87267 0.57924 0.04806 0.0
C3164 C 0.89901 0.56481 0.03576 0.0
C3165 C 0.88353 0.56953 -0.00324 0.0
C3166 C 0.89805 0.54495 0.03185 0.0
C3167 C 0.91474 0.53723 0.03136 0.0
C3168 C 0.93255 0.54932 0.03472 0.0
C3169 C 0.93347 0.56903 0.03994 0.0
C3170 C 0.91675 0.57674 0.04046 0.0
H3171 H 0.87721 0.57443 0.98351 0.0
H3172 H 0.89898 0.57558 -0.00105 0.0
H3173 H 0.88206 0.55363 0.99486 0.0
H3174 H 0.88441 0.53559 0.02818 0.0
H3175 H 0.91367 0.522 0.02731 0.0
H3176 H 0.18205 0.06007 0.79345 0.0
H3177 H 0.20023 0.09286 0.79576 0.0
H3178 H 0.15472 0.11041 0.7609 0.0
H3179 H 0.13641 0.07805 0.75881 0.0
H3180 H 0.2133 0.11414 0.7676 0.0
H3181 H 0.16364 0.15128 0.80546 0.0
H3182 H 0.16193 0.12549 0.80356 0.0
H3183 H 0.15192 0.1371 0.78432 0.0
C3184 C 0.17586 0.07096 0.78641 0.0
C3185 C 0.15769 0.06641 0.77605 0.0
C3186 C 0.18628 0.08968 0.78773 0.0
C3187 C 0.17868 0.10419 0.77881 0.0
C3188 C 0.16067 0.09961 0.76833 0.0
H3189 H 0.23232 0.20842 0.7387 0.0
H3190 H 0.21892 0.17551 0.74375 0.0
C3191 C 0.15026 0.081 0.76705 0.0
C3192 C 0.18974 0.12398 0.77971 0.0
H3193 H 0.18636 0.17119 0.78947 0.0
C3194 C 0.20754 0.12661 0.77261 0.0
C3195 C 0.1824 0.14026 0.78656 0.0
C3196 C 0.16402 0.13841 0.79559 0.0
C3197 C 0.21775 0.14511 0.77136 0.0
C3198 C 0.20976 0.1614 0.77697 0.0
C3199 C 0.19239 0.15874 0.7849 0.0
C3200 C 0.21876 0.18128 0.77413 0.0
C3201 C 0.237 0.14698 0.76402 0.0
C3202 C 0.22271 0.19567 0.78943 0.0
C3203 C 0.23016 0.21463 0.78654 0.0
C3204 C 0.23379 0.21959 0.76826 0.0
C3205 C 0.22989 0.20512 0.75299 0.0
C3206 C 0.22235 0.18621 0.75588 0.0
H3207 H 0.24367 0.13414 0.76635 0.0
H3208 H 0.23526 0.1482 0.74849 0.0
H3209 H 0.2468 0.15995 0.77099 0.0
H3210 H 0.21993 0.19225 0.80361 0.0
H3211 H 0.23294 0.22539 0.79863 0.0
H3212 H 0.34215 0.01674 0.25134 0.0
H3213 H 0.3193 0.98748 0.25409 0.0
H3214 H 0.35153 0.95423 0.2203 0.0
H3215 H 0.37439 0.98321 0.21748 0.0
H3216 H 0.30867 0.94627 0.21162 0.0
H3217 H 0.33617 0.94468 0.2875 0.0
H3218 H 0.32975 0.96672 0.28014 0.0
H3219 H 0.34986 0.95821 0.27142 0.0
C3220 C 0.34424 0.00324 0.24428 0.0
C3221 C 0.3602 0.00229 0.23432 0.0
C3222 C 0.33121 0.98656 0.24593 0.0
C3223 C 0.33387 0.96873 0.23753 0.0
C3224 C 0.34927 0.96788 0.22689 0.0
H3225 H 0.29326 0.84811 0.22899 0.0
H3226 H 0.30555 0.8814 0.22401 0.0
C3227 C 0.36235 0.98446 0.22536 0.0
C3228 C 0.32139 0.9507 0.24066 0.0
H3229 H 0.3133 0.91859 0.27359 0.0
C3230 C 0.30947 0.94027 0.22521 0.0
C3231 C 0.32244 0.94303 0.25843 0.0
C3232 C 0.33528 0.9536 0.27537 0.0
C3233 C 0.29881 0.92212 0.22697 0.0
C3234 C 0.30058 0.914 0.24452 0.0
C3235 C 0.31197 0.92479 0.26015 0.0
C3236 C 0.29187 0.89388 0.24669 0.0
C3237 C 0.28581 0.91184 0.21001 0.0
C3238 C 0.28041 0.88975 0.26136 0.0
C3239 C 0.27361 0.87068 0.26441 0.0
C3240 C 0.27822 0.85546 0.25286 0.0
C3241 C 0.28942 0.85959 0.23803 0.0
C3242 C 0.2963 0.87862 0.23506 0.0
H3243 H 0.281 0.9222 0.20045 0.0
H3244 H 0.29369 0.90245 0.20172 0.0
H3245 H 0.27309 0.90279 0.21441 0.0
H3246 H 0.27694 0.90128 0.27061 0.0
H3247 H 0.26501 0.86785 0.27596 0.0
H3248 H 0.47024 0.33564 0.62997 0.0
H3249 H 0.46882 0.36186 0.60975 0.0
H3250 H 0.50003 0.33448 0.56967 0.0
H3251 H 0.50084 0.30785 0.58945 0.0
H3252 H 0.49718 0.38654 0.60108 0.0
H3253 H 0.459 0.34831 0.53397 0.0
H3254 H 0.46016 0.33709 0.55589 0.0
H3255 H 0.47966 0.33844 0.5415 0.0
C3256 C 0.47655 0.33507 0.6167 0.0
C3257 C 0.48561 0.31967 0.61127 0.0
C3258 C 0.47573 0.35007 0.60516 0.0
C3259 C 0.48408 0.35005 0.58802 0.0
C3260 C 0.49301 0.33459 0.58252 0.0
H3261 H 0.52262 0.45506 0.53737 0.0
H3262 H 0.52027 0.42501 0.55247 0.0
C3263 C 0.49359 0.31944 0.59393 0.0
C3264 C 0.48469 0.36691 0.57675 0.0
H3265 H 0.47534 0.38036 0.53213 0.0
C3266 C 0.49226 0.38517 0.58603 0.0
C3267 C 0.47807 0.3652 0.55715 0.0
C3268 C 0.46858 0.34622 0.54659 0.0
C3269 C 0.49366 0.40171 0.57627 0.0
C3270 C 0.48795 0.39989 0.55647 0.0
C3271 C 0.48002 0.38169 0.54723 0.0
C3272 C 0.48978 0.41683 0.5453 0.0
C3273 C 0.50087 0.42099 0.58741 0.0
C3274 C 0.47364 0.42161 0.53522 0.0
C3275 C 0.47505 0.43858 0.52621 0.0
C3276 C 0.49259 0.45104 0.52727 0.0
C3277 C 0.50889 0.44577 0.53652 0.0
C3278 C 0.50753 0.4287 0.54527 0.0
H3279 H 0.49913 0.42045 0.60275 0.0
H3280 H 0.51629 0.42525 0.58615 0.0
H3281 H 0.49331 0.43226 0.58195 0.0
H3282 H 0.45983 0.41258 0.53491 0.0
H3283 H 0.46228 0.44235 0.51914 0.0
H3284 H 0.46 0.76229 0.35154 0.0
H3285 H 0.42639 0.75389 0.33863 0.0
H3286 H 0.43642 0.79312 0.29576 0.0
H3287 H 0.46985 0.80126 0.30818 0.0
H3288 H 0.40004 0.77741 0.3359 0.0
H3289 H 0.40773 0.74574 0.26399 0.0
H3290 H 0.427 0.74984 0.28297 0.0
H3291 H 0.42206 0.76914 0.26926 0.0
C3292 C 0.45508 0.76896 0.33923 0.0
C3293 C 0.46767 0.78239 0.33086 0.0
C3294 C 0.43588 0.76414 0.33188 0.0
C3295 C 0.42898 0.77258 0.31598 0.0
C3296 C 0.44151 0.786 0.30767 0.0
H3297 H 0.32512 0.79382 0.26089 0.0
H3298 H 0.35788 0.79139 0.27228 0.0
C3299 C 0.46064 0.79076 0.31493 0.0
C3300 C 0.40847 0.76848 0.30873 0.0
H3301 H 0.37806 0.75678 0.2679 0.0
C3302 C 0.39517 0.77254 0.32112 0.0
C3303 C 0.40213 0.76207 0.28944 0.0
C3304 C 0.41547 0.75625 0.27571 0.0
C3305 C 0.37588 0.77134 0.31451 0.0
C3306 C 0.36977 0.76587 0.29505 0.0
C3307 C 0.38288 0.76111 0.2828 0.0
C3308 C 0.35004 0.76618 0.28701 0.0
C3309 C 0.36226 0.77674 0.32815 0.0
C3310 C 0.33489 0.75251 0.29119 0.0
C3311 C 0.31615 0.75377 0.28462 0.0
C3312 C 0.31228 0.7688 0.27382 0.0
C3313 C 0.32759 0.78211 0.2692 0.0
C3314 C 0.34631 0.78074 0.27567 0.0
H3315 H 0.3697 0.78289 0.34227 0.0
H3316 H 0.35408 0.78737 0.32224 0.0
H3317 H 0.3519 0.76377 0.33015 0.0
H3318 H 0.33754 0.74111 0.29985 0.0
H3319 H 0.30469 0.74334 0.28852 0.0
H3320 H 0.98701 0.72431 0.09651 0.0
H3321 H 0.98803 0.6961 0.07463 0.0
H3322 H 0.00029 0.66413 0.12215 0.0
H3323 H -0.0007 0.69217 0.14414 0.0
H3324 H 0.02035 0.67728 0.07272 0.0
H3325 H 0.95626 0.6279 0.08827 0.0
H3326 H 0.95981 0.65358 0.09437 0.0
H3327 H 0.97197 0.63875 0.1089 0.0
C3328 C 0.98969 0.71121 0.10234 0.0
C3329 C 0.99308 0.71052 0.1221 0.0
C3330 C 0.99029 0.69513 0.0898 0.0
C3331 C 0.99405 0.678 0.09679 0.0
C3332 C -0.00292 0.67713 0.11648 0.0
H3333 H 0.0388 0.58286 0.04627 0.0
H3334 H 0.03329 0.61201 0.06432 0.0
C3335 C -0.0034 0.69322 0.12902 0.0
C3336 C -0.00398 0.66141 0.08354 0.0
H3337 H 0.97797 0.61406 0.07033 0.0
C3338 C 0.011 0.6635 0.07206 0.0
C3339 C 0.98368 0.64353 0.08261 0.0
C3340 C 0.96691 0.64076 0.09406 0.0
C3341 C 0.01436 0.64795 0.06011 0.0
C3342 C 0.00251 0.62986 0.05978 0.0
C3343 C 0.98713 0.62793 0.07077 0.0
C3344 C 0.00611 0.61263 0.04844 0.0
C3345 C 0.03055 0.651 0.04792 0.0
C3346 C 0.99259 0.60329 0.03364 0.0
C3347 C -0.00424 0.58672 0.02329 0.0
C3348 C 0.01232 0.57905 0.02781 0.0
C3349 C 0.02592 0.58851 0.0425 0.0
C3350 C 0.02281 0.60515 0.05278 0.0
H3351 H 0.03516 0.66647 0.04622 0.0
H3352 H 0.0429 0.6455 0.05475 0.0
H3353 H 0.02643 0.64305 0.03363 0.0
H3354 H 0.97961 0.60885 0.03009 0.0
H3355 H 0.98522 0.57986 0.01179 0.0
H3356 H 0.06125 0.28677 0.82076 0.0
H3357 H 0.09021 0.28611 0.80528 0.0
H3358 H 0.12304 0.29012 0.86 0.0
H3359 H 0.09401 0.29076 0.87571 0.0
H3360 H 0.12518 0.31441 0.8109 0.0
H3361 H 0.1354 0.24156 0.82934 0.0
H3362 H 0.11294 0.24985 0.83035 0.0
H3363 H 0.13225 0.25847 0.84856 0.0
C3364 C 0.07462 0.28752 0.82954 0.0
C3365 C 0.07534 0.28873 0.84947 0.0
C3366 C 0.09114 0.28718 0.82066 0.0
C3367 C 0.10868 0.28787 0.8315 0.0
C3368 C 0.10956 0.28933 0.8514 0.0
H3369 H 0.21891 0.2756 0.79422 0.0
H3370 H 0.19306 0.28018 0.81337 0.0
C3371 C 0.09301 0.28978 0.86034 0.0
C3372 C 0.12595 0.28701 0.82179 0.0
H3373 H 0.15812 0.25806 0.81185 0.0
C3374 C 0.13246 0.30214 0.81114 0.0
C3375 C 0.13539 0.27101 0.82222 0.0
C3376 C 0.12864 0.25419 0.83311 0.0
C3377 C 0.1482 0.30168 0.80085 0.0
C3378 C 0.15735 0.28543 0.80086 0.0
C3379 C 0.15104 0.27047 0.81181 0.0
C3380 C 0.17328 0.28351 0.78935 0.0
C3381 C 0.15501 0.3187 0.79025 0.0
C3382 C 0.17071 0.28356 0.7695 0.0
C3383 C 0.18569 0.28146 0.75867 0.0
C3384 C 0.20346 0.27932 0.76754 0.0
C3385 C 0.20582 0.27858 0.78727 0.0
C3386 C 0.19089 0.28075 0.79813 0.0
H3387 H 0.15028 0.33192 0.79611 0.0
H3388 H 0.17078 0.3215 0.79083 0.0
H3389 H 0.14898 0.31568 0.77513 0.0
H3390 H 0.15705 0.28504 0.76235 0.0
H3391 H 0.18344 0.28163 0.74338 0.0
H3392 H 0.517 0.72518 0.97825 0.0
H3393 H 0.51243 0.69577 0.99444 0.0
H3394 H 0.4808 0.66468 0.94359 0.0
H3395 H 0.48532 0.69393 0.92723 0.0
H3396 H 0.47747 0.66684 -0.00097 0.0
H3397 H 0.53022 0.64011 0.95556 0.0
H3398 H 0.52788 0.66514 0.95829 0.0
H3399 H 0.51068 0.64828 0.9427 0.0
C3400 C 0.50878 0.71216 0.97062 0.0
C3401 C 0.50174 0.71176 0.9514 0.0
C3402 C 0.50615 0.69543 0.9799 0.0
C3403 C 0.49649 0.67814 0.97008 0.0
C3404 C 0.48843 0.67794 0.95129 0.0
H3405 H 0.46882 0.56455 0.00788 0.0
H3406 H 0.46727 0.59589 -0.00399 0.0
C3407 C 0.49103 0.69465 0.942 0.0
C3408 C 0.4965 0.65998 0.97881 0.0
H3409 H 0.51571 0.61904 0.97609 0.0
C3410 C 0.48578 0.65633 0.99406 0.0
C3411 C 0.5076 0.64654 0.97235 0.0
C3412 C 0.51989 0.65018 0.95642 0.0
C3413 C 0.48569 0.63931 0.00293 0.0
C3414 C 0.49654 0.62574 -0.00377 0.0
C3415 C 0.50739 0.62952 0.9811 0.0
C3416 C 0.497 0.60746 0.00467 0.0
C3417 C 0.47428 0.63606 0.01953 0.0
C3418 C 0.51426 0.60364 0.01328 0.0
C3419 C 0.51521 0.58574 0.01982 0.0
C3420 C 0.49895 0.57139 0.01765 0.0
C3421 C 0.4816 0.57534 0.0094 0.0
C3422 C 0.48064 0.59327 0.00287 0.0
H3423 H 0.47013 0.64955 0.0255 0.0
H3424 H 0.46108 0.62555 0.01476 0.0
H3425 H 0.48247 0.63003 0.03097 0.0
H3426 H 0.52705 0.61443 0.01466 0.0
H3427 H 0.52875 0.58297 0.02615 0.0
H3428 H 0.06682 0.79765 0.61047 0.0
H3429 H 0.09764 0.80214 0.63005 0.0
H3430 H 0.06998 0.81219 0.68038 0.0
H3431 H 0.03937 0.80804 0.66106 0.0
H3432 H 0.10555 0.8364 0.68027 0.0
H3433 H 0.10823 0.75889 0.66324 0.0
H3434 H 0.10617 0.77271 0.64321 0.0
H3435 H 0.08699 0.7689 0.65781 0.0
C3436 C 0.0674 0.80112 0.62567 0.0
C3437 C 0.05069 0.80219 0.63429 0.0
C3438 C 0.08495 0.80362 0.63681 0.0
C3439 C 0.08594 0.80718 0.65664 0.0
C3440 C 0.06946 0.80939 0.6651 0.0
H3441 H 0.16446 0.77712 0.74331 0.0
H3442 H 0.13631 0.78258 0.72348 0.0
C3443 C 0.05197 0.80691 0.65403 0.0
C3444 C 0.10369 0.80698 0.66892 0.0
H3445 H 0.13338 0.77696 0.68408 0.0
C3446 C 0.11179 0.82349 0.68104 0.0
C3447 C 0.11144 0.78995 0.67008 0.0
C3448 C 0.10273 0.77153 0.65803 0.0
C3449 C 0.12748 0.82338 0.69442 0.0
C3450 C 0.13528 0.80638 0.69546 0.0
C3451 C 0.12728 0.78995 0.68321 0.0
C3452 C 0.15174 0.80509 0.70915 0.0
C3453 C 0.13522 0.84122 0.70768 0.0
C3454 C 0.16957 0.81622 0.70787 0.0
C3455 C 0.18559 0.81317 0.7192 0.0
C3456 C 0.18398 0.79884 0.73183 0.0
C3457 C 0.16602 0.78825 0.73367 0.0
C3458 C 0.14999 0.79133 0.72236 0.0
H3459 H 0.12487 0.8513 0.70821 0.0
H3460 H 0.13895 0.83748 0.7223 0.0
H3461 H 0.14836 0.84881 0.70263 0.0
H3462 H 0.17125 0.82666 0.69754 0.0
H3463 H 0.19934 0.82149 0.71754 0.0
H3464 H 0.03315 0.3375 0.41318 0.0
H3465 H 0.03372 0.36766 0.43252 0.0
H3466 H 0.04305 0.33953 0.4835 0.0
H3467 H 0.04136 0.30903 0.46416 0.0
H3468 H 0.01753 0.35986 0.48807 0.0
H3469 H 0.07553 0.40618 0.45954 0.0
H3470 H 0.05783 0.39579 0.44042 0.0
H3471 H 0.07076 0.38048 0.45378 0.0
C3472 C 0.03558 0.33782 0.42851 0.0
C3473 C 0.03724 0.32096 0.43718 0.0
C3474 C 0.03607 0.35512 0.43957 0.0
C3475 C 0.03888 0.35604 0.45951 0.0
C3476 C 0.04095 0.33924 0.46816 0.0
H3477 H 0.04791 0.47264 0.51463 0.0
H3478 H 0.05597 0.44087 0.5069 0.0
C3479 C 0.04 0.32183 0.45711 0.0
C3480 C 0.0381 0.37414 0.47124 0.0
H3481 H 0.05268 0.42266 0.4743 0.0
C3482 C 0.02551 0.37355 0.4853 0.0
C3483 C 0.04886 0.39201 0.46811 0.0
C3484 C 0.06415 0.39359 0.45479 0.0
C3485 C 0.02257 0.3904 0.49547 0.0
C3486 C 0.03184 0.40841 0.49087 0.0
C3487 C 0.04527 0.40892 0.47764 0.0
C3488 C 0.02682 0.42688 0.49841 0.0
C3489 C 0.00953 0.38862 0.51096 0.0
C3490 C 0.00775 0.42955 0.49661 0.0
C3491 C 0.0031 0.44753 0.50149 0.0
C3492 C 0.01749 0.46336 0.5077 0.0
C3493 C 0.03654 0.46065 0.50992 0.0
C3494 C 0.04115 0.44253 0.50545 0.0
H3495 H 0.01008 0.37511 0.51779 0.0
H3496 H 0.01329 0.40093 0.5221 0.0
H3497 H -0.00537 0.38803 0.50467 0.0
H3498 H -0.00353 0.41796 0.49057 0.0
H3499 H 0.98833 0.44927 0.49928 0.0
H3500 H 0.4489 0.23988 0.16569 0.0
H3501 H 0.4226 0.24341 0.18444 0.0
H3502 H 0.41427 0.29435 0.1575 0.0
H3503 H 0.44026 0.29064 0.13833 0.0
H3504 H 0.42322 0.27392 0.21 0.0
H3505 H 0.36011 0.2668 0.15665 0.0
H3506 H 0.38207 0.25946 0.15103 0.0
H3507 H 0.37968 0.28439 0.15185 0.0
C3508 C 0.44119 0.25159 0.16344 0.0
C3509 C 0.44668 0.26503 0.15059 0.0
C3510 C 0.4262 0.2536 0.17418 0.0
C3511 C 0.41645 0.26909 0.17231 0.0
C3512 C 0.42136 0.28207 0.15891 0.0
H3513 H 0.33607 0.31712 0.23705 0.0
H3514 H 0.36173 0.31253 0.21755 0.0
C3515 C 0.43625 0.27996 0.14799 0.0
C3516 C 0.40249 0.27265 0.18565 0.0
H3517 H 0.35666 0.27935 0.18807 0.0
C3518 C 0.40862 0.27496 0.20521 0.0
C3519 C 0.3835 0.27408 0.17934 0.0
C3520 C 0.37587 0.27087 0.15858 0.0
C3521 C 0.39631 0.27889 0.21864 0.0
C3522 C 0.37743 0.28049 0.2123 0.0
C3523 C 0.37125 0.27822 0.19279 0.0
C3524 C 0.36363 0.28408 0.22571 0.0
C3525 C 0.40359 0.28159 0.23948 0.0
C3526 C 0.35658 0.2697 0.23696 0.0
C3527 C 0.34196 0.27227 0.24807 0.0
C3528 C 0.33423 0.28924 0.24802 0.0
C3529 C 0.34189 0.30395 0.23739 0.0
C3530 C 0.35644 0.30133 0.22621 0.0
H3531 H 0.41937 0.28346 0.24181 0.0
H3532 H 0.39894 0.2943 0.24658 0.0
H3533 H 0.39758 0.26877 0.24637 0.0
H3534 H 0.36187 0.25622 0.23656 0.0
H3535 H 0.33616 0.26065 0.25603 0.0
H3536 H 0.62056 0.49561 0.33888 0.0
H3537 H 0.60669 0.49203 0.36903 0.0
H3538 H 0.55527 0.50887 0.34445 0.0
H3539 H 0.5688 0.5124 0.31451 0.0
H3540 H 0.59354 0.52074 0.39157 0.0
H3541 H 0.53543 0.45938 0.36809 0.0
H3542 H 0.55563 0.46538 0.35491 0.0
H3543 H 0.53593 0.47817 0.35251 0.0
C3544 C 0.60627 0.49844 0.33989 0.0
C3545 C 0.5958 0.50427 0.32426 0.0
C3546 C 0.59836 0.49635 0.35709 0.0
C3547 C 0.57982 0.49981 0.35881 0.0
C3548 C 0.56943 0.50567 0.34327 0.0
H3549 H 0.52133 0.54066 0.44635 0.0
H3550 H 0.53898 0.53401 0.41961 0.0
C3551 C 0.57729 0.50785 0.3262 0.0
C3552 C 0.57151 0.49858 0.37709 0.0
H3553 H 0.53144 0.4793 0.39611 0.0
C3554 C 0.58016 0.51142 0.3927 0.0
C3555 C 0.55418 0.48623 0.37863 0.0
C3556 C 0.54484 0.47136 0.36269 0.0
C3557 C 0.57127 0.51312 0.40939 0.0
C3558 C 0.5532 0.50187 0.41032 0.0
C3559 C 0.54517 0.48811 0.39523 0.0
C3560 C 0.54185 0.50528 0.42623 0.0
C3561 C 0.58104 0.52732 0.4257 0.0
C3562 C 0.53699 0.49101 0.43839 0.0
C3563 C 0.52678 0.49473 0.45375 0.0
C3564 C 0.52114 0.51272 0.45704 0.0
C3565 C 0.52549 0.52668 0.44435 0.0
C3566 C 0.53571 0.52297 0.4291 0.0
H3567 H 0.59665 0.53067 0.425 0.0
H3568 H 0.57532 0.54092 0.42505 0.0
H3569 H 0.5784 0.52175 0.43957 0.0
H3570 H 0.54148 0.4772 0.43626 0.0
H3571 H 0.52372 0.48367 0.46326 0.0
H3572 H 0.23137 0.88411 0.09797 0.0
H3573 H 0.23707 0.86773 0.1265 0.0
H3574 H 0.21694 0.8129 0.09415 0.0
H3575 H 0.21116 0.82919 0.06546 0.0
H3576 H 0.20999 0.84178 0.14387 0.0
H3577 H 0.26992 0.80783 0.12117 0.0
H3578 H 0.26225 0.8277 0.10997 0.0
H3579 H 0.24881 0.80386 0.10452 0.0
C3580 C 0.22819 0.86855 0.09687 0.0
C3581 C 0.22086 0.85796 0.07938 0.0
C3582 C 0.23143 0.85922 0.11322 0.0
C3583 C 0.22763 0.83909 0.11244 0.0
C3584 C 0.22024 0.82844 0.09503 0.0
H3585 H 0.21566 0.76687 0.20535 0.0
H3586 H 0.21102 0.7843 0.17734 0.0
C3587 C 0.21687 0.83778 0.07866 0.0
C3588 C 0.23111 0.82931 0.12992 0.0
H3589 H 0.25805 0.79889 0.14982 0.0
C3590 C 0.22051 0.83242 0.14519 0.0
C3591 C 0.24501 0.8173 0.13172 0.0
C3592 C 0.2573 0.81403 0.11607 0.0
C3593 C 0.22317 0.82355 0.16205 0.0
C3594 C 0.23674 0.81114 0.16367 0.0
C3595 C 0.2476 0.80833 0.14854 0.0
C3596 C 0.23962 0.80068 0.1808 0.0
C3597 C 0.21157 0.82768 0.17808 0.0
C3598 C 0.25737 0.80377 0.1919 0.0
C3599 C 0.26008 0.79373 0.20792 0.0
C3600 C 0.24511 0.78035 0.21302 0.0
C3601 C 0.22745 0.77712 0.20177 0.0
C3602 C 0.22473 0.78718 0.18584 0.0
H3603 H 0.2056 0.84108 0.17662 0.0
H3604 H 0.19949 0.81564 0.17794 0.0
H3605 H 0.22029 0.82904 0.19206 0.0
H3606 H 0.26912 0.814 0.18819 0.0
H3607 H 0.27392 0.79622 0.21613 0.0
H3608 H 0.90861 0.57244 0.80719 0.0
H3609 H 0.91772 0.57237 0.8414 0.0
H3610 H 0.96882 0.55106 0.82951 0.0
H3611 H 0.96001 0.55119 0.79555 0.0
H3612 H 0.92371 0.53982 0.86016 0.0
H3613 H 0.98868 0.59561 0.87051 0.0
H3614 H 0.97132 0.59329 0.84992 0.0
H3615 H 0.9888 0.57773 0.85117 0.0
C3616 C 0.92194 0.56803 0.81188 0.0
C3617 C 0.93358 0.56184 0.79859 0.0
C3618 C 0.92708 0.56795 0.83142 0.0
C3619 C 0.94406 0.56194 0.83801 0.0
C3620 C 0.95585 0.55612 0.82479 0.0
H3621 H 0.00236 0.53247 0.93963 0.0
H3622 H 0.99121 0.53939 0.90775 0.0
C3623 C 0.9507 0.5561 0.80533 0.0
C3624 C 0.94902 0.56046 0.85857 0.0
H3625 H 0.9846 0.57432 0.89494 0.0
C3626 C 0.93688 0.54757 0.86788 0.0
C3627 C 0.96624 0.57054 0.86858 0.0
C3628 C 0.97943 0.58521 0.8596 0.0
C3629 C 0.9419 0.54384 0.88668 0.0
C3630 C 0.95938 0.55353 0.89652 0.0
C3631 C 0.97125 0.56683 0.88736 0.0
C3632 C 0.96599 0.54951 0.91603 0.0
C3633 C 0.92883 0.52895 0.89556 0.0
C3634 C 0.95562 0.55308 0.93135 0.0
C3635 C 0.96194 0.54908 0.94965 0.0
C3636 C 0.97884 0.54157 0.953 0.0
C3637 C 0.98929 0.53823 0.93762 0.0
C3638 C 0.98295 0.5422 0.91936 0.0
H3639 H 0.91828 0.51974 0.88476 0.0
H3640 H 0.9371 0.51959 0.90351 0.0
H3641 H 0.92089 0.53629 0.90572 0.0
H3642 H 0.94269 0.55905 0.92919 0.0
H3643 H 0.95358 0.55195 0.96115 0.0
H3644 H 0.26484 0.18722 0.53134 0.0
H3645 H 0.26818 0.20927 0.56018 0.0
H3646 H 0.23186 0.1668 0.58663 0.0
H3647 H 0.2285 0.14454 0.55792 0.0
H3648 H 0.23905 0.22354 0.57863 0.0
H3649 H 0.28037 0.1819 0.62488 0.0
H3650 H 0.27759 0.17769 0.59927 0.0
H3651 H 0.25871 0.16814 0.61263 0.0
C3652 C 0.25759 0.18251 0.54329 0.0
C3653 C 0.24647 0.16406 0.54236 0.0
C3654 C 0.2595 0.19516 0.55973 0.0
C3655 C 0.25048 0.18953 0.57555 0.0
C3656 C 0.2392 0.17125 0.57464 0.0
H3657 H 0.22068 0.25099 0.67314 0.0
H3658 H 0.22234 0.23544 0.64149 0.0
C3659 C 0.23723 0.1586 0.55819 0.0
C3660 C 0.25261 0.20287 0.59298 0.0
H3661 H 0.26779 0.20734 0.64033 0.0
C3662 C 0.24548 0.22012 0.59211 0.0
C3663 C 0.26131 0.19849 0.61041 0.0
C3664 C 0.27011 0.18064 0.6119 0.0
C3665 C 0.24614 0.23278 0.60847 0.0
C3666 C 0.25391 0.22788 0.6261 0.0
C3667 C 0.26173 0.211 0.6268 0.0
C3668 C 0.25313 0.23937 0.6442 0.0
C3669 C 0.23844 0.25123 0.60677 0.0
C3670 C 0.26989 0.24671 0.6562 0.0
C3671 C 0.26896 0.2555 0.67431 0.0
C3672 C 0.25124 0.25692 0.6807 0.0
C3673 C 0.23451 0.25014 0.66847 0.0
C3674 C 0.23545 0.24137 0.65037 0.0
H3675 H 0.23842 0.25557 0.59206 0.0
H3676 H 0.22353 0.24909 0.61032 0.0
H3677 H 0.24691 0.26311 0.61671 0.0
H3678 H 0.28366 0.24517 0.65172 0.0
H3679 H 0.28206 0.26056 0.68354 0.0
H3680 H 0.63316 0.50731 0.2062 0.0
H3681 H 0.61447 0.50411 0.17512 0.0
H3682 H 0.57274 0.46043 0.1938 0.0
H3683 H 0.59089 0.46436 0.22525 0.0
H3684 H 0.60173 0.47664 0.14719 0.0
H3685 H 0.5401 0.49872 0.17959 0.0
H3686 H 0.56288 0.49967 0.1931 0.0
H3687 H 0.54664 0.4772 0.18788 0.0
C3688 C 0.6201 0.4969 0.2036 0.0
C3689 C 0.61327 0.4863 0.21818 0.0
C3690 C 0.60943 0.49505 0.18584 0.0
C3691 C 0.59193 0.4824 0.1823 0.0
C3692 C 0.58586 0.47075 0.19642 0.0
H3693 H 0.53109 0.4713 0.06658 0.0
H3694 H 0.54771 0.46277 0.09573 0.0
C3695 C 0.59629 0.4729 0.21431 0.0
C3696 C 0.57964 0.48237 0.16428 0.0
H3697 H 0.53619 0.49095 0.14652 0.0
C3698 C 0.58736 0.47968 0.147 0.0
C3699 C 0.56095 0.48654 0.1641 0.0
C3700 C 0.5522 0.49088 0.18214 0.0
C3701 C 0.57714 0.48162 0.12959 0.0
C3702 C 0.55843 0.4857 0.12944 0.0
C3703 C 0.55049 0.48771 0.14666 0.0
C3704 C 0.54751 0.48994 0.11195 0.0
C3705 C 0.58687 0.48026 0.1117 0.0
C3706 C 0.54115 0.50765 0.11163 0.0
C3707 C 0.53123 0.51225 0.09527 0.0
C3708 C 0.52766 0.49932 0.07884 0.0
C3709 C 0.53372 0.48148 0.07914 0.0
C3710 C 0.54339 0.47671 0.09568 0.0
H3711 H 0.60256 0.48176 0.11487 0.0
H3712 H 0.58158 0.466 0.10369 0.0
H3713 H 0.58376 0.49152 0.10243 0.0
H3714 H 0.54413 0.51809 0.124 0.0
H3715 H 0.52672 0.52612 0.09539 0.0
H3716 H 0.19194 0.88224 0.94488 0.0
H3717 H 0.19661 0.86492 0.91509 0.0
H3718 H 0.22771 0.82798 0.94624 0.0
H3719 H 0.22266 0.84499 0.97624 0.0
H3720 H 0.22995 0.86316 0.90166 0.0
H3721 H 0.19354 0.789 0.9083 0.0
H3722 H 0.19035 0.80937 0.92384 0.0
H3723 H 0.21122 0.79852 0.92782 0.0
C3724 C 0.1995 0.87021 0.94546 0.0
C3725 C 0.20691 0.86502 0.96301 0.0
C3726 C 0.2022 0.86034 0.92837 0.0
C3727 C 0.2124 0.84502 0.92833 0.0
C3728 C 0.21943 0.83946 0.94584 0.0
H3729 H 0.25618 0.78196 0.83604 0.0
H3730 H 0.24899 0.7949 0.86708 0.0
C3731 C 0.21659 0.84926 0.96301 0.0
C3732 C 0.21674 0.83594 0.90993 0.0
H3733 H 0.21233 0.79315 0.88254 0.0
C3734 C 0.226 0.84785 0.89748 0.0
C3735 C 0.21169 0.81595 0.90443 0.0
C3736 C 0.201 0.80247 0.9167 0.0
C3737 C 0.23039 0.84038 0.87983 0.0
C3738 C 0.22529 0.82044 0.87433 0.0
C3739 C 0.21625 0.80844 0.8868 0.0
C3740 C 0.229 0.81191 0.85551 0.0
C3741 C 0.24067 0.85388 0.86728 0.0
C3742 C 0.21991 0.81692 0.8387 0.0
C3743 C 0.2239 0.80948 0.82097 0.0
C3744 C 0.2371 0.79687 0.81963 0.0
C3745 C 0.24597 0.79164 0.83652 0.0
C3746 C 0.24185 0.79899 0.85428 0.0
H3747 H 0.24761 0.86772 0.87535 0.0
H3748 H 0.25167 0.84726 0.86046 0.0
H3749 H 0.23028 0.85706 0.85587 0.0
H3750 H 0.20981 0.82672 0.8393 0.0
H3751 H 0.21686 0.81394 0.80831 0.0
H3752 H 0.89408 0.55742 0.66811 0.0
H3753 H 0.90902 0.55077 0.63922 0.0
H3754 H 0.96452 0.567 0.67088 0.0
H3755 H 0.94975 0.57338 0.69986 0.0
H3756 H 0.93443 0.57363 0.61993 0.0
H3757 H 0.96634 0.5133 0.64656 0.0
H3758 H 0.94843 0.52344 0.65823 0.0
H3759 H 0.97289 0.53524 0.66191 0.0
C3760 C 0.90948 0.55965 0.66891 0.0
C3761 C 0.92072 0.56578 0.68634 0.0
C3762 C 0.91799 0.55584 0.65238 0.0
C3763 C 0.93788 0.55801 0.65295 0.0
C3764 C 0.94914 0.56478 0.67018 0.0
H3765 H 0.0074 0.56546 0.5598 0.0
H3766 H 0.98933 0.57139 0.58652 0.0
C3767 C 0.94066 0.56855 0.68671 0.0
C3768 C 0.94686 0.55309 0.63558 0.0
H3769 H 0.97668 0.52474 0.618 0.0
C3770 C 0.94359 0.56287 0.61946 0.0
C3771 C 0.95851 0.53879 0.63483 0.0
C3772 C 0.96163 0.52694 0.65123 0.0
C3773 C 0.95212 0.55914 0.60283 0.0
C3774 C 0.96452 0.54548 0.60242 0.0
C3775 C 0.96732 0.53532 0.61835 0.0
C3776 C 0.97512 0.54187 0.58584 0.0
C3777 C 0.94761 0.56974 0.58581 0.0
C3778 C 0.97365 0.52318 0.57688 0.0
C3779 C 0.98424 0.51971 0.56175 0.0
C3780 C -0.00356 0.53487 0.55532 0.0
C3781 C -0.00199 0.55351 0.56439 0.0
C3782 C 0.98753 0.55695 0.57954 0.0
H3783 H 0.93374 0.57478 0.58623 0.0
H3784 H 0.9588 0.58259 0.58582 0.0
H3785 H 0.94715 0.56055 0.57231 0.0
H3786 H 0.96435 0.51126 0.58164 0.0
H3787 H 0.98311 0.50515 0.55528 0.0
H3788 H 0.2687 0.15998 0.41624 0.0
H3789 H 0.27886 0.18391 0.39478 0.0
H3790 H 0.30598 0.22342 0.44266 0.0
H3791 H 0.29489 0.1998 0.46428 0.0
H3792 H 0.28567 0.24103 0.42176 0.0
H3793 H 0.32608 0.20378 0.37331 0.0
H3794 H 0.3034 0.18891 0.37371 0.0
H3795 H 0.31975 0.19435 0.39516 0.0
C3796 C 0.27716 0.17362 0.42217 0.0
C3797 C 0.28095 0.17807 0.44191 0.0
C3798 C 0.28315 0.18726 0.40986 0.0
C3799 C 0.29354 0.20542 0.41701 0.0
C3800 C 0.29806 0.20952 0.43676 0.0
H3801 H 0.31086 0.27634 0.32201 0.0
H3802 H 0.32026 0.26283 0.35146 0.0
C3803 C 0.29172 0.19602 0.4491 0.0
C3804 C 0.29741 0.22075 0.40406 0.0
H3805 H 0.30916 0.22784 0.35941 0.0
C3806 C 0.29129 0.2383 0.40834 0.0
C3807 C 0.30529 0.21765 0.38676 0.0
C3808 C 0.3142 0.20022 0.38213 0.0
C3809 C 0.29121 0.25197 0.39512 0.0
C3810 C 0.29669 0.24768 0.37686 0.0
C3811 C 0.3045 0.23099 0.37324 0.0
C3812 C 0.29204 0.25875 0.36068 0.0
C3813 C 0.28471 0.27063 0.40072 0.0
C3814 C 0.27315 0.26126 0.35621 0.0
C3815 C 0.2678 0.26914 0.3396 0.0
C3816 C 0.28114 0.27436 0.3268 0.0
C3817 C 0.30023 0.27253 0.33158 0.0
C3818 C 0.30563 0.26476 0.34838 0.0
H3819 H 0.28894 0.27521 0.41607 0.0
H3820 H 0.29071 0.28233 0.39235 0.0
H3821 H 0.26894 0.26853 0.39837 0.0
H3822 H 0.26224 0.25621 0.36509 0.0
H3823 H 0.25295 0.27022 0.3364 0.0
H3824 H 0.33546 0.61162 0.53251 0.0
H3825 H 0.36267 0.59634 0.52672 0.0
H3826 H 0.37176 0.62837 0.47827 0.0
H3827 H 0.34426 0.64399 0.48403 0.0
H3828 H 0.36358 0.57384 0.49084 0.0
H3829 H 0.42626 0.63265 0.50871 0.0
H3830 H 0.40389 0.63374 0.51823 0.0
H3831 H 0.406 0.63709 0.49372 0.0
C3832 C 0.34333 0.61569 0.52073 0.0
C3833 C 0.33753 0.62896 0.50864 0.0
C3834 C 0.35893 0.60692 0.51747 0.0
C3835 C 0.36924 0.61118 0.50207 0.0
C3836 C 0.3641 0.62501 0.49035 0.0
H3837 H 0.46257 0.5493 0.47345 0.0
H3838 H 0.43975 0.5718 0.47148 0.0
C3839 C 0.34838 0.63391 0.49365 0.0
C3840 C 0.38424 0.59977 0.49774 0.0
H3841 H 0.43244 0.60143 0.50116 0.0
C3842 C 0.37863 0.57993 0.49284 0.0
C3843 C 0.40385 0.60775 0.50021 0.0
C3844 C 0.41053 0.62896 0.50558 0.0
C3845 C 0.39208 0.56774 0.4911 0.0
C3846 C 0.4117 0.57552 0.49464 0.0
C3847 C 0.41738 0.5955 0.49855 0.0
C3848 C 0.42624 0.56282 0.49607 0.0
C3849 C 0.38516 0.54651 0.48593 0.0
C3850 C 0.42637 0.55058 0.51067 0.0
C3851 C 0.43941 0.53797 0.5119 0.0
C3852 C 0.45272 0.53742 0.49864 0.0
C3853 C 0.45272 0.54975 0.48408 0.0
C3854 C 0.43965 0.5625 0.48288 0.0
H3855 H 0.37041 0.5436 0.47866 0.0
H3856 H 0.39464 0.54031 0.47656 0.0
H3857 H 0.38519 0.53903 0.49909 0.0
H3858 H 0.4163 0.55075 0.52112 0.0
H3859 H 0.43915 0.52873 0.52336 0.0
H3860 H 0.79156 0.96778 0.52867 0.0
H3861 H 0.82581 0.97769 0.5358 0.0
H3862 H 0.82913 0.92684 0.56469 0.0
H3863 H 0.79459 0.91653 0.55736 0.0
H3864 H 0.85021 0.98426 0.57051 0.0
H3865 H 0.86471 0.92347 0.52237 0.0
H3866 H 0.84135 0.92991 0.52206 0.0
H3867 H 0.85033 0.91775 0.54127 0.0
C3868 C 0.79947 0.95871 0.53669 0.0
C3869 C 0.79036 0.94123 0.54224 0.0
C3870 C 0.81906 0.96447 0.54082 0.0
C3871 C 0.83 0.95288 0.55054 0.0
C3872 C 0.82092 0.93584 0.55693 0.0
H3873 H 0.95441 0.97718 0.5483 0.0
H3874 H 0.92384 0.96279 0.55831 0.0
C3875 C 0.80121 0.93004 0.55281 0.0
C3876 C 0.85096 0.95839 0.55271 0.0
H3877 H 0.89036 0.94798 0.53339 0.0
C3878 C 0.85909 0.97615 0.56273 0.0
C3879 C 0.86249 0.94772 0.54261 0.0
C3880 C 0.85437 0.92869 0.53136 0.0
C3881 C 0.87825 0.98405 0.562 0.0
C3882 C 0.8894 0.97401 0.55078 0.0
C3883 C 0.88168 0.95563 0.54191 0.0
C3884 C 0.90817 0.98331 0.54606 0.0
C3885 C 0.88621 0.00338 0.57267 0.0
C3886 C 0.90936 -0.00057 0.53569 0.0
C3887 C 0.92667 0.00758 0.52986 0.0
C3888 C 0.94316 -0.00025 0.53429 0.0
C3889 C 0.94198 0.98364 0.5448 0.0
C3890 C 0.92456 0.9754 0.55053 0.0
H3891 H 0.87825 0.00621 0.585 0.0
H3892 H 0.9015 0.0044 0.57784 0.0
H3893 H 0.88487 0.01479 0.56303 0.0
H3894 H 0.89676 0.00546 0.53173 0.0
H3895 H 0.92708 0.01994 0.52176 0.0
H3896 H 0.80793 0.08665 0.2348 0.0
H3897 H 0.78973 0.11284 0.23917 0.0
H3898 H 0.84099 0.15104 0.26346 0.0
H3899 H 0.85928 0.12511 0.25903 0.0
H3900 H 0.78565 0.13601 0.27294 0.0
H3901 H 0.81997 0.17929 0.21968 0.0
H3902 H 0.82164 0.15428 0.22109 0.0
H3903 H 0.83628 0.17248 0.23765 0.0
C3904 C 0.81532 0.10063 0.24109 0.0
C3905 C 0.83508 0.10384 0.24643 0.0
C3906 C 0.80489 0.11555 0.2436 0.0
C3907 C 0.81407 0.13394 0.25138 0.0
C3908 C 0.83369 0.13705 0.25712 0.0
H3909 H 0.76321 0.2314 0.29218 0.0
H3910 H 0.7804 0.20413 0.28992 0.0
C3911 C 0.84411 0.12218 0.25463 0.0
C3912 C 0.8032 0.14997 0.25334 0.0
H3913 H 0.79972 0.19405 0.23843 0.0
C3914 C 0.78868 0.1487 0.26539 0.0
C3915 C 0.80709 0.16641 0.24333 0.0
C3916 C 0.82197 0.16821 0.22957 0.0
C3917 C 0.77809 0.16358 0.26787 0.0
C3918 C 0.78227 0.1802 0.25817 0.0
C3919 C 0.79665 0.18135 0.24598 0.0
C3920 C 0.77152 0.19633 0.25993 0.0
C3921 C 0.76228 0.16127 0.28056 0.0
C3922 C 0.76105 0.2011 0.24381 0.0
C3923 C 0.75144 0.21671 0.24506 0.0
C3924 C 0.7523 0.22796 0.2624 0.0
C3925 C 0.76257 0.22308 0.2786 0.0
C3926 C 0.7722 0.20741 0.27736 0.0
H3927 H 0.75812 0.14609 0.28356 0.0
H3928 H 0.76715 0.17008 0.2943 0.0
H3929 H 0.74953 0.16634 0.27401 0.0
H3930 H 0.76039 0.19278 0.23022 0.0
H3931 H 0.74366 0.2202 0.23233 0.0
H3932 H 0.73603 0.11161 -0.00343 0.0
H3933 H 0.70348 0.09429 -0.00411 0.0
H3934 H 0.6822 0.14773 0.99396 0.0
H3935 H 0.71478 0.16521 0.99516 0.0
H3936 H 0.66707 0.12688 0.0203 0.0
H3937 H 0.66133 0.08044 0.9528 0.0
H3938 H 0.68142 0.07797 0.96894 0.0
H3939 H 0.6804 0.1006 0.95936 0.0
C3940 C 0.7244 0.11965 0.99579 0.0
C3941 C 0.72795 0.13977 -0.00409 0.0
C3942 C 0.70579 0.10971 0.99528 0.0
C3943 C 0.69037 0.11967 0.99457 0.0
C3944 C 0.69388 0.13974 0.99442 0.0
H3945 H 0.57079 0.06589 0.97505 0.0
H3946 H 0.60266 0.08357 0.97218 0.0
C3947 C 0.71249 0.14971 0.9951 0.0
C3948 C 0.6707 0.10934 0.99517 0.0
H3949 H 0.63723 0.0722 0.97332 0.0
C3950 C 0.6605 0.11501 0.00994 0.0
C3951 C 0.66204 0.09402 0.98152 0.0
C3952 C 0.67178 0.08801 0.96465 0.0
C3953 C 0.64203 0.10555 0.01167 0.0
C3954 C 0.63372 0.08965 -0.00146 0.0
C3955 C 0.64373 0.08423 0.98351 0.0
C3956 C 0.6146 0.07853 0.00013 0.0
C3957 C 0.63151 0.11289 0.02738 0.0
C3958 C 0.61085 0.06954 0.01663 0.0
C3959 C 0.59266 0.0596 0.01834 0.0
C3960 C 0.57799 0.05827 0.00347 0.0
C3961 C 0.58186 0.06678 0.98674 0.0
C3962 C 0.60004 0.07684 0.98509 0.0
H3963 H 0.63739 0.12813 0.03248 0.0
H3964 H 0.61611 0.11173 0.02261 0.0
H3965 H 0.63299 0.1042 0.0396 0.0
H3966 H 0.622 0.07024 0.02821 0.0
H3967 H 0.59006 0.05301 0.03132 0.0
H3968 H 0.17529 0.46102 0.2744 0.0
H3969 H 0.19527 0.43623 0.27647 0.0
H3970 H 0.14524 0.39291 0.27565 0.0
H3971 H 0.12508 0.41762 0.27334 0.0
H3972 H 0.19915 0.41 0.30345 0.0
H3973 H 0.17231 0.37256 0.23193 0.0
H3974 H 0.16779 0.3962 0.23935 0.0
H3975 H 0.15429 0.37528 0.24742 0.0
C3976 C 0.16851 0.44623 0.27468 0.0
C3977 C 0.14856 0.4413 0.27357 0.0
C3978 C 0.17997 0.43207 0.27591 0.0
C3979 C 0.17176 0.41267 0.27595 0.0
C3980 C 0.15188 0.40774 0.27528 0.0
H3981 H 0.2386 0.32197 0.30136 0.0
H3982 H 0.21554 0.34407 0.30257 0.0
C3983 C 0.14038 0.4219 0.27406 0.0
C3984 C 0.18409 0.39769 0.27647 0.0
H3985 H 0.19435 0.3586 0.25071 0.0
C3986 C 0.19806 0.39869 0.29197 0.0
C3987 C 0.18277 0.38307 0.26138 0.0
C3988 C 0.16861 0.38172 0.24398 0.0
C3989 C 0.21079 0.38555 0.29275 0.0
C3990 C 0.20937 0.37084 0.27772 0.0
C3991 C 0.19533 0.36978 0.26229 0.0
C3992 C 0.22303 0.35714 0.27713 0.0
C3993 C 0.22605 0.38789 0.30934 0.0
C3994 C 0.23463 0.35685 0.26228 0.0
C3995 C 0.24757 0.34411 0.26147 0.0
C3996 C 0.24908 0.33126 0.2754 0.0
C3997 C 0.23749 0.33151 0.29028 0.0
C3998 C 0.2245 0.34429 0.2911 0.0
H3999 H 0.22785 0.40226 0.31744 0.0
H4000 H 0.22207 0.37683 0.31915 0.0
H4001 H 0.23993 0.38588 0.30445 0.0
H4002 H 0.23374 0.36659 0.25133 0.0
H4003 H 0.25629 0.34419 0.24979 0.0
H4004 H 0.18603 0.45212 0.02546 0.0
H4005 H 0.15934 0.4646 0.01005 0.0
H4006 H 0.13582 0.40799 0.9828 0.0
H4007 H 0.16244 0.39524 -0.00148 0.0
H4008 H 0.14809 0.46379 0.9707 0.0
H4009 H 0.09139 0.42437 0.00873 0.0
H4010 H 0.11635 0.42628 0.01678 0.0
H4011 H 0.10591 0.41034 -0.00377 0.0
C4012 C 0.17512 0.44227 0.0163 0.0
C4013 C 0.17627 0.42269 0.01326 0.0
C4014 C 0.15995 0.44944 0.00743 0.0
C4015 C 0.14563 0.4372 0.99534 0.0
C4016 C 0.14665 0.41761 0.99226 0.0
H4017 H 0.04049 0.47932 0.96285 0.0
H4018 H 0.06478 0.45925 0.95833 0.0
C4019 C 0.16183 0.41037 0.00124 0.0
C4020 C 0.12963 0.44527 0.98637 0.0
H4021 H 0.08294 0.44776 0.98976 0.0
C4022 C 0.13374 0.46007 0.97457 0.0
C4023 C 0.1109 0.44018 0.99124 0.0
C4024 C 0.10577 0.42451 0.00402 0.0
C4025 C 0.11988 0.47078 0.96852 0.0
C4026 C 0.10158 0.46668 0.97464 0.0
C4027 C 0.09704 0.45089 0.98514 0.0
C4028 C 0.08796 0.48019 0.97309 0.0
C4029 C 0.12514 0.48681 0.95621 0.0
C4030 C 0.09312 0.49886 0.98232 0.0
C4031 C 0.07932 0.51033 0.98489 0.0
C4032 C 0.06017 0.50322 0.9784 0.0
C4033 C 0.0552 0.4851 0.96799 0.0
C4034 C 0.06902 0.47362 0.96541 0.0
H4035 H 0.13638 0.48368 0.94725 0.0
H4036 H 0.11259 0.4892 0.94685 0.0
H4037 H 0.13088 0.50029 0.96543 0.0
H4038 H 0.10756 0.50406 0.98873 0.0
H4039 H 0.08347 0.52424 0.99301 0.0
H4040 H 0.82403 -0.001 0.23132 0.0
H4041 H 0.80639 0.9666 0.23316 0.0
H4042 H 0.8594 0.94561 0.24278 0.0
H4043 H 0.877 0.97759 0.24012 0.0
H4044 H 0.83588 0.92135 0.21872 0.0
H4045 H 0.79732 0.94005 0.27976 0.0
H4046 H 0.79256 0.95317 0.25977 0.0
H4047 H 0.81622 0.95677 0.27206 0.0
C4048 C 0.8319 0.98746 0.23383 0.0
C4049 C 0.85192 0.9909 0.23561 0.0
C4050 C 0.8218 0.96896 0.23503 0.0
C4051 C 0.83154 0.95367 0.2385 0.0
C4052 C 0.85152 0.95712 0.24013 0.0
H4053 H 0.78813 0.84593 0.28129 0.0
H4054 H 0.80257 0.8787 0.2766 0.0
C4055 C 0.86158 0.97546 0.23861 0.0
C4056 C 0.82114 0.93397 0.24019 0.0
H4057 H 0.78865 0.90828 0.26485 0.0
C4058 C 0.82556 0.91851 0.22883 0.0
C4059 C 0.80784 0.93018 0.25356 0.0
C4060 C 0.80333 0.94589 0.26712 0.0
C4061 C 0.81727 0.89942 0.23056 0.0
C4062 C 0.80356 0.89567 0.24353 0.0
C4063 C 0.79901 0.91114 0.25479 0.0
C4064 C 0.79436 0.87578 0.24623 0.0
C4065 C 0.8239 0.88348 0.21898 0.0
C4066 C 0.78466 0.86323 0.23079 0.0
C4067 C 0.77667 0.84435 0.2334 0.0
C4068 C 0.7778 0.83778 0.25158 0.0
C4069 C 0.78697 0.85054 0.26711 0.0
C4070 C 0.79523 0.8693 0.26444 0.0
H4071 H 0.83814 0.88832 0.21432 0.0
H4072 H 0.82465 0.87086 0.22716 0.0
H4073 H 0.81373 0.87887 0.20603 0.0
H4074 H 0.78325 0.86802 0.2167 0.0
H4075 H 0.76948 0.83495 0.22118 0.0
H4076 H 0.61979 0.06523 0.74892 0.0
H4077 H 0.64122 0.09608 0.75275 0.0
H4078 H 0.67995 0.07371 0.79187 0.0
H4079 H 0.65876 0.04244 0.78766 0.0
H4080 H 0.65279 0.1207 0.78363 0.0
H4081 H 0.71552 0.09634 0.75552 0.0
H4082 H 0.69236 0.08129 0.75304 0.0
H4083 H 0.70734 0.08418 0.77523 0.0
C4084 C 0.63289 0.06679 0.75831 0.0
C4085 C 0.63758 0.05131 0.76793 0.0
C4086 C 0.64513 0.08448 0.76049 0.0
C4087 C 0.66233 0.08717 0.7724 0.0
C4088 C 0.66699 0.07185 0.78226 0.0
H4089 H 0.72304 0.20585 0.80193 0.0
H4090 H 0.70719 0.17294 0.80481 0.0
C4091 C 0.6548 0.05402 0.77992 0.0
C4092 C 0.67503 0.1062 0.77457 0.0
H4093 H 0.71932 0.12898 0.76747 0.0
C4094 C 0.66737 0.12251 0.78018 0.0
C4095 C 0.69401 0.10854 0.76992 0.0
C4096 C 0.70279 0.0917 0.76292 0.0
C4097 C 0.67795 0.14111 0.78082 0.0
C4098 C 0.69699 0.14347 0.77631 0.0
C4099 C 0.7048 0.12714 0.77109 0.0
C4100 C 0.70847 0.16279 0.77546 0.0
C4101 C 0.6683 0.15805 0.78547 0.0
C4102 C 0.71537 0.16775 0.75832 0.0
C4103 C 0.72473 0.18639 0.75677 0.0
C4104 C 0.72726 0.20043 0.77231 0.0
C4105 C 0.72109 0.1953 0.78969 0.0
C4106 C 0.71192 0.17656 0.7913 0.0
H4107 H 0.65254 0.15391 0.78383 0.0
H4108 H 0.67286 0.16389 0.80045 0.0
H4109 H 0.67222 0.16966 0.7762 0.0
H4110 H 0.71296 0.15735 0.74593 0.0
H4111 H 0.72939 0.18997 0.74322 0.0
loop_
_geom_bond_atom_site_label_1
_geom_bond_atom_site_label_2
_geom_bond_distance
_geom_bond_site_symmetry_2
_ccdc_geom_bond_type
C0 O1 1.306 . S
C0 O3 1.160 . S
O1 C0 1.306 . S
O1 Cd2 2.228 1_655 S
Cd2 O1 2.228 1_455 S
Cd2 O6 2.273 . S
Cd2 O10 2.277 . S
O3 C0 1.160 . S
O3 Cd4 2.203 1_655 S
Cd4 O3 2.203 1_455 S
Cd4 O6 2.411 . S
Cd4 O7 2.333 . S
Cd4 O8 2.352 . S
Cd4 O12 2.277 . S
Cd4 O13 2.356 . S
C5 O10 1.209 . S
C5 O12 1.226 . S
O6 Cd2 2.273 . S
O6 Cd4 2.411 . S
O6 C9 1.320 . S
O7 Cd4 2.333 . S
O7 C9 1.214 . S
O8 Cd4 2.352 . S
O8 C11 1.258 . S
C9 O6 1.320 . S
C9 O7 1.214 . S
O10 Cd2 2.277 . S
O10 C5 1.209 . S
C11 O8 1.258 . S
C11 O13 1.282 . S
O12 Cd4 2.277 . S
O12 C5 1.226 . S
O13 Cd4 2.356 . S
O13 C11 1.282 . S
C14 O15 1.306 . S
C14 O17 1.160 . S
O15 C14 1.306 . S
O15 Cd16 2.228 1_655 S
Cd16 O15 2.228 1_455 S
Cd16 O20 2.273 . S
Cd16 O24 2.278 1_455 S
O17 C14 1.160 . S
O17 Cd18 2.152 1_655 S
Cd18 O17 2.152 1_455 S
Cd18 O20 2.436 . S
Cd18 O21 2.385 . S
Cd18 O22 2.345 . S
Cd18 O26 2.279 1_455 S
Cd18 O27 2.361 . S
C19 O24 1.214 . S
C19 O26 1.226 . S
O20 Cd16 2.273 . S
O20 Cd18 2.436 . S
O20 C23 1.320 . S
O21 Cd18 2.385 . S
O21 C23 1.214 . S
O22 Cd18 2.345 . S
O22 C25 1.258 . S
C23 O20 1.320 . S
C23 O21 1.214 . S
O24 Cd16 2.278 1_655 S
O24 C19 1.214 . S
C25 O22 1.258 . S
C25 O27 1.282 . S
O26 Cd18 2.279 1_655 S
O26 C19 1.226 . S
O27 Cd18 2.361 . S
O27 C25 1.282 . S
C28 O29 1.306 . S
C28 O31 1.160 . S
O29 C28 1.306 . S
O29 Cd30 2.228 . S
Cd30 O29 2.228 . S
Cd30 O34 2.273 . S
Cd30 O38 2.277 . S
O31 C28 1.160 . S
O31 Cd32 2.203 . S
Cd32 O31 2.203 . S
Cd32 O34 2.411 . S
Cd32 O35 2.333 . S
Cd32 O36 2.352 . S
Cd32 O40 2.277 . S
Cd32 O41 2.356 . S
C33 O38 1.209 . S
C33 O40 1.226 . S
O34 Cd30 2.273 . S
O34 Cd32 2.411 . S
O34 C37 1.320 . S
O35 Cd32 2.333 . S
O35 C37 1.214 . S
O36 Cd32 2.352 . S
O36 C39 1.258 . S
C37 O34 1.320 . S
C37 O35 1.214 . S
O38 Cd30 2.277 . S
O38 C33 1.209 . S
C39 O36 1.258 . S
C39 O41 1.282 . S
O40 Cd32 2.277 . S
O40 C33 1.226 . S
O41 Cd32 2.356 . S
O41 C39 1.282 . S
C42 O43 1.306 . S
C42 O45 1.160 . S
O43 C42 1.306 . S
O43 Cd44 2.228 . S
Cd44 O43 2.228 . S
Cd44 O48 2.273 . S
Cd44 O52 2.277 . S
O45 C42 1.160 . S
O45 Cd46 2.203 . S
Cd46 O45 2.203 . S
Cd46 O48 2.411 . S
Cd46 O49 2.333 . S
Cd46 O50 2.352 . S
Cd46 O54 2.277 . S
Cd46 O55 2.356 . S
C47 O52 1.209 . S
C47 O54 1.226 . S
O48 Cd44 2.273 . S
O48 Cd46 2.411 . S
O48 C51 1.320 . S
O49 Cd46 2.333 . S
O49 C51 1.214 . S
O50 Cd46 2.352 . S
O50 C53 1.258 . S
C51 O48 1.320 . S
C51 O49 1.214 . S
O52 Cd44 2.277 . S
O52 C47 1.209 . S
C53 O50 1.258 . S
C53 O55 1.282 . S
O54 Cd46 2.277 . S
O54 C47 1.226 . S
O55 Cd46 2.356 . S
O55 C53 1.282 . S
C56 O57 1.306 . S
C56 O59 1.160 . S
O57 C56 1.306 . S
O57 Cd58 2.228 1_655 S
Cd58 O57 2.228 1_455 S
Cd58 O62 2.273 . S
Cd58 O66 2.277 . S
O59 C56 1.160 . S
O59 Cd60 2.203 1_655 S
Cd60 O59 2.203 1_455 S
Cd60 O62 2.411 . S
Cd60 O63 2.333 . S
Cd60 O64 2.352 . S
Cd60 O68 2.277 . S
Cd60 O69 2.356 . S
C61 O66 1.209 . S
C61 O68 1.226 . S
O62 Cd58 2.273 . S
O62 Cd60 2.411 . S
O62 C65 1.320 . S
O63 Cd60 2.333 . S
O63 C65 1.214 . S
O64 Cd60 2.352 . S
O64 C67 1.258 . S
C65 O62 1.320 . S
C65 O63 1.214 . S
O66 Cd58 2.277 . S
O66 C61 1.209 . S
C67 O64 1.258 . S
C67 O69 1.282 . S
O68 Cd60 2.277 . S
O68 C61 1.226 . S
O69 Cd60 2.356 . S
O69 C67 1.282 . S
C70 O71 1.306 . S
C70 O73 1.160 . S
O71 C70 1.306 . S
O71 Cd72 2.228 . S
Cd72 O71 2.228 . S
Cd72 O76 2.273 . S
Cd72 O80 2.277 . S
O73 C70 1.160 . S
O73 Cd74 2.203 . S
Cd74 O73 2.203 . S
Cd74 O76 2.411 . S
Cd74 O77 2.333 . S
Cd74 O78 2.352 . S
Cd74 O82 2.277 . S
Cd74 O83 2.356 . S
C75 O80 1.209 . S
C75 O82 1.226 . S
O76 Cd72 2.273 . S
O76 Cd74 2.411 . S
O76 C79 1.320 . S
O77 Cd74 2.333 . S
O77 C79 1.214 . S
O78 Cd74 2.352 . S
O78 C81 1.258 . S
C79 O76 1.320 . S
C79 O77 1.214 . S
O80 Cd72 2.277 . S
O80 C75 1.209 . S
C81 O78 1.258 . S
C81 O83 1.282 . S
O82 Cd74 2.277 . S
O82 C75 1.226 . S
O83 Cd74 2.356 . S
O83 C81 1.282 . S
C84 O85 1.306 . S
C84 O87 1.160 . S
O85 C84 1.306 . S
O85 Cd86 2.228 . S
Cd86 O85 2.228 . S
Cd86 O90 2.273 . S
Cd86 O94 2.277 . S
O87 C84 1.160 . S
O87 Cd88 2.203 . S
Cd88 O87 2.203 . S
Cd88 O90 2.411 . S
Cd88 O91 2.333 . S
Cd88 O92 2.352 . S
Cd88 O96 2.277 . S
Cd88 O97 2.356 . S
C89 O94 1.209 . S
C89 O96 1.226 . S
O90 Cd86 2.273 . S
O90 Cd88 2.411 . S
O90 C93 1.320 . S
O91 Cd88 2.333 . S
O91 C93 1.214 . S
O92 Cd88 2.352 . S
O92 C95 1.258 . S
C93 O90 1.320 . S
C93 O91 1.214 . S
O94 Cd86 2.277 . S
O94 C89 1.209 . S
C95 O92 1.258 . S
C95 O97 1.282 . S
O96 Cd88 2.277 . S
O96 C89 1.226 . S
O97 Cd88 2.356 . S
O97 C95 1.282 . S
C98 O99 1.306 . S
C98 O101 1.160 . S
O99 C98 1.306 . S
O99 Cd100 2.228 1_655 S
Cd100 O99 2.228 1_455 S
Cd100 O104 2.273 . S
Cd100 O108 2.277 . S
O101 C98 1.160 . S
O101 Cd102 2.203 1_655 S
Cd102 O101 2.203 1_455 S
Cd102 O104 2.411 . S
Cd102 O105 2.333 . S
Cd102 O106 2.352 . S
Cd102 O110 2.277 . S
Cd102 O111 2.356 . S
C103 O108 1.209 . S
C103 O110 1.226 . S
O104 Cd100 2.273 . S
O104 Cd102 2.411 . S
O104 C107 1.320 . S
O105 Cd102 2.333 . S
O105 C107 1.214 . S
O106 Cd102 2.352 . S
O106 C109 1.258 . S
C107 O104 1.320 . S
C107 O105 1.214 . S
O108 Cd100 2.277 . S
O108 C103 1.209 . S
C109 O106 1.258 . S
C109 O111 1.282 . S
O110 Cd102 2.277 . S
O110 C103 1.226 . S
O111 Cd102 2.356 . S
O111 C109 1.282 . S
C112 O113 1.306 . S
C112 O115 1.160 . S
O113 C112 1.306 . S
O113 Cd114 2.228 . S
Cd114 O113 2.228 . S
Cd114 O118 2.273 . S
Cd114 O122 2.277 . S
O115 C112 1.160 . S
O115 Cd116 2.203 . S
Cd116 O115 2.203 . S
Cd116 O118 2.411 . S
Cd116 O119 2.333 . S
Cd116 O120 2.352 . S
Cd116 O124 2.277 . S
Cd116 O125 2.356 . S
C117 O122 1.209 . S
C117 O124 1.226 . S
O118 Cd114 2.273 . S
O118 Cd116 2.411 . S
O118 C121 1.320 . S
O119 Cd116 2.333 . S
O119 C121 1.214 . S
O120 Cd116 2.352 . S
O120 C123 1.258 . S
C121 O118 1.320 . S
C121 O119 1.214 . S
O122 Cd114 2.277 . S
O122 C117 1.209 . S
C123 O120 1.258 . S
C123 O125 1.282 . S
O124 Cd116 2.277 . S
O124 C117 1.226 . S
O125 Cd116 2.356 . S
O125 C123 1.282 . S
C126 O127 1.306 . S
C126 O129 1.160 . S
O127 C126 1.306 . S
O127 Cd128 2.228 . S
Cd128 O127 2.228 . S
Cd128 O132 2.273 . S
Cd128 O136 2.277 . S
O129 C126 1.160 . S
O129 Cd130 2.203 . S
Cd130 O129 2.203 . S
Cd130 O132 2.411 . S
Cd130 O133 2.333 . S
Cd130 O134 2.352 . S
Cd130 O138 2.277 . S
Cd130 O139 2.356 . S
C131 O136 1.209 . S
C131 O138 1.226 . S
O132 Cd128 2.273 . S
O132 Cd130 2.411 . S
O132 C135 1.320 . S
O133 Cd130 2.333 . S
O133 C135 1.214 . S
O134 Cd130 2.352 . S
O134 C137 1.258 . S
C135 O132 1.320 . S
C135 O133 1.214 . S
O136 Cd128 2.277 . S
O136 C131 1.209 . S
C137 O134 1.258 . S
C137 O139 1.282 . S
O138 Cd130 2.277 . S
O138 C131 1.226 . S
O139 Cd130 2.356 . S
O139 C137 1.282 . S
C140 O141 1.306 . S
C140 O143 1.143 1_545 S
O141 C140 1.306 . S
O141 Cd142 2.228 . S
Cd142 O141 2.228 . S
Cd142 O146 2.273 1_545 S
Cd142 O150 2.277 . S
O143 C140 1.143 1_565 S
O143 Cd144 2.204 . S
Cd144 O143 2.204 . S
Cd144 O146 2.411 . S
Cd144 O147 2.333 . S
Cd144 O148 2.352 . S
Cd144 O152 2.277 1_565 S
Cd144 O153 2.356 . S
C145 O150 1.209 . S
C145 O152 1.226 . S
O146 Cd142 2.273 1_565 S
O146 Cd144 2.411 . S
O146 C149 1.320 . S
O147 Cd144 2.333 . S
O147 C149 1.214 . S
O148 Cd144 2.352 . S
O148 C151 1.258 . S
C149 O146 1.320 . S
C149 O147 1.214 . S
O150 Cd142 2.277 . S
O150 C145 1.209 . S
C151 O148 1.258 . S
C151 O153 1.282 . S
O152 Cd144 2.277 1_545 S
O152 C145 1.226 . S
O153 Cd144 2.356 . S
O153 C151 1.282 . S
C154 O155 1.306 . S
C154 O157 1.160 . S
O155 C154 1.306 . S
O155 Cd156 2.228 . S
Cd156 O155 2.228 . S
Cd156 O160 2.273 . S
Cd156 O164 2.277 1_554 S
O157 C154 1.160 . S
O157 Cd158 2.203 . S
Cd158 O157 2.203 . S
Cd158 O160 2.411 . S
Cd158 O161 2.333 . S
Cd158 O162 2.352 . S
Cd158 O166 2.277 . S
Cd158 O167 2.356 . S
C159 O164 1.209 . S
C159 O166 1.226 1_556 S
O160 Cd156 2.273 . S
O160 Cd158 2.411 . S
O160 C163 1.320 . S
O161 Cd158 2.333 . S
O161 C163 1.214 . S
O162 Cd158 2.352 . S
O162 C165 1.258 . S
C163 O160 1.320 . S
C163 O161 1.214 . S
O164 Cd156 2.277 1_556 S
O164 C159 1.209 . S
C165 O162 1.258 . S
C165 O167 1.282 . S
O166 Cd158 2.277 . S
O166 C159 1.226 1_554 S
O167 Cd158 2.356 . S
O167 C165 1.282 . S
C168 O169 1.306 . S
C168 O171 1.160 . S
O169 C168 1.306 . S
O169 Cd170 2.228 1_554 S
Cd170 O169 2.228 1_556 S
Cd170 O174 2.273 1_556 S
Cd170 O178 2.277 . S
O171 C168 1.160 . S
O171 Cd172 2.203 . S
Cd172 O171 2.203 . S
Cd172 O174 2.411 . S
Cd172 O175 2.333 . S
Cd172 O176 2.352 . S
Cd172 O180 2.324 . S
Cd172 O181 2.356 . S
C173 O178 1.209 . S
C173 O180 1.178 1_556 S
O174 Cd170 2.273 1_554 S
O174 Cd172 2.411 . S
O174 C177 1.320 . S
O175 Cd172 2.333 . S
O175 C177 1.214 . S
O176 Cd172 2.352 . S
O176 C179 1.258 . S
C177 O174 1.320 . S
C177 O175 1.214 . S
O178 Cd170 2.277 . S
O178 C173 1.209 . S
C179 O176 1.258 . S
C179 O181 1.282 . S
O180 Cd172 2.324 . S
O180 C173 1.178 1_554 S
O181 Cd172 2.356 . S
O181 C179 1.282 . S
C182 O183 1.306 . S
C182 O185 1.153 1_554 S
O183 C182 1.306 . S
O183 Cd184 2.228 . S
Cd184 O183 2.228 . S
Cd184 O188 2.232 1_554 S
Cd184 O192 2.277 . S
O185 C182 1.153 1_556 S
O185 Cd186 2.203 . S
Cd186 O185 2.203 . S
Cd186 O188 2.420 . S
Cd186 O189 2.333 . S
Cd186 O190 2.352 . S
Cd186 O194 2.277 1_556 S
Cd186 O195 2.356 . S
C187 O192 1.209 . S
C187 O194 1.226 . S
O188 Cd184 2.232 1_556 S
O188 Cd186 2.420 . S
O188 C191 1.324 . S
O189 Cd186 2.333 . S
O189 C191 1.214 . S
O190 Cd186 2.352 . S
O190 C193 1.258 . S
C191 O188 1.324 . S
C191 O189 1.214 . S
O192 Cd184 2.277 . S
O192 C187 1.209 . S
C193 O190 1.258 . S
C193 O195 1.282 . S
O194 Cd186 2.277 1_554 S
O194 C187 1.226 . S
O195 Cd186 2.356 . S
O195 C193 1.282 . S
C196 O197 1.306 . S
C196 O199 1.160 . S
O197 C196 1.306 . S
O197 Cd198 2.228 . S
Cd198 O197 2.228 . S
Cd198 O202 2.273 . S
Cd198 O206 2.277 . S
O199 C196 1.160 . S
O199 Cd200 2.203 . S
Cd200 O199 2.203 . S
Cd200 O202 2.411 . S
Cd200 O203 2.333 . S
Cd200 O204 2.352 . S
Cd200 O208 2.277 . S
Cd200 O209 2.356 . S
C201 O206 1.209 . S
C201 O208 1.226 . S
O202 Cd198 2.273 . S
O202 Cd200 2.411 . S
O202 C205 1.320 . S
O203 Cd200 2.333 . S
O203 C205 1.214 . S
O204 Cd200 2.352 . S
O204 C207 1.258 . S
C205 O202 1.320 . S
C205 O203 1.214 . S
O206 Cd198 2.277 . S
O206 C201 1.209 . S
C207 O204 1.258 . S
C207 O209 1.282 . S
O208 Cd200 2.277 . S
O208 C201 1.226 . S
O209 Cd200 2.356 . S
O209 C207 1.282 . S
C210 O211 1.306 . S
C210 O213 1.160 . S
O211 C210 1.306 . S
O211 Cd212 2.228 . S
Cd212 O211 2.228 . S
Cd212 O216 2.273 . S
Cd212 O220 2.277 . S
O213 C210 1.160 . S
O213 Cd214 2.203 . S
Cd214 O213 2.203 . S
Cd214 O216 2.411 . S
Cd214 O217 2.333 . S
Cd214 O218 2.352 . S
Cd214 O222 2.277 . S
Cd214 O223 2.356 . S
C215 O220 1.209 . S
C215 O222 1.226 . S
O216 Cd212 2.273 . S
O216 Cd214 2.411 . S
O216 C219 1.320 . S
O217 Cd214 2.333 . S
O217 C219 1.214 . S
O218 Cd214 2.352 . S
O218 C221 1.258 . S
C219 O216 1.320 . S
C219 O217 1.214 . S
O220 Cd212 2.277 . S
O220 C215 1.209 . S
C221 O218 1.258 . S
C221 O223 1.282 . S
O222 Cd214 2.277 . S
O222 C215 1.226 . S
O223 Cd214 2.356 . S
O223 C221 1.282 . S
C224 O225 1.306 . S
C224 O227 1.160 . S
O225 C224 1.306 . S
O225 Cd226 2.228 . S
Cd226 O225 2.228 . S
Cd226 O230 2.273 . S
Cd226 O234 2.277 . S
O227 C224 1.160 . S
O227 Cd228 2.203 . S
Cd228 O227 2.203 . S
Cd228 O230 2.411 . S
Cd228 O231 2.333 . S
Cd228 O232 2.352 . S
Cd228 O236 2.277 . S
Cd228 O237 2.356 . S
C229 O234 1.209 . S
C229 O236 1.226 . S
O230 Cd226 2.273 . S
O230 Cd228 2.411 . S
O230 C233 1.320 . S
O231 Cd228 2.333 . S
O231 C233 1.214 . S
O232 Cd228 2.352 . S
O232 C235 1.258 . S
C233 O230 1.320 . S
C233 O231 1.214 . S
O234 Cd226 2.277 . S
O234 C229 1.209 . S
C235 O232 1.258 . S
C235 O237 1.282 . S
O236 Cd228 2.277 . S
O236 C229 1.226 . S
O237 Cd228 2.356 . S
O237 C235 1.282 . S
C238 O239 1.306 . S
C238 O241 1.160 . S
O239 C238 1.306 . S
O239 Cd240 2.228 . S
Cd240 O239 2.228 . S
Cd240 O244 2.273 . S
Cd240 O248 2.277 . S
O241 C238 1.160 . S
O241 Cd242 2.203 . S
Cd242 O241 2.203 . S
Cd242 O244 2.411 . S
Cd242 O245 2.333 . S
Cd242 O246 2.352 . S
Cd242 O250 2.277 . S
Cd242 O251 2.356 . S
C243 O248 1.209 . S
C243 O250 1.226 . S
O244 Cd240 2.273 . S
O244 Cd242 2.411 . S
O244 C247 1.320 . S
O245 Cd242 2.333 . S
O245 C247 1.214 . S
O246 Cd242 2.352 . S
O246 C249 1.258 . S
C247 O244 1.320 . S
C247 O245 1.214 . S
O248 Cd240 2.277 . S
O248 C243 1.209 . S
C249 O246 1.258 . S
C249 O251 1.282 . S
O250 Cd242 2.277 . S
O250 C243 1.226 . S
O251 Cd242 2.356 . S
O251 C249 1.282 . S
C252 O253 1.306 . S
C252 O255 1.160 . S
O253 C252 1.306 . S
O253 Cd254 2.228 . S
Cd254 O253 2.228 . S
Cd254 O258 2.273 . S
Cd254 O262 2.277 . S
O255 C252 1.160 . S
O255 Cd256 2.203 . S
Cd256 O255 2.203 . S
Cd256 O258 2.411 . S
Cd256 O259 2.333 . S
Cd256 O260 2.352 . S
Cd256 O264 2.277 . S
Cd256 O265 2.356 . S
C257 O262 1.209 . S
C257 O264 1.226 . S
O258 Cd254 2.273 . S
O258 Cd256 2.411 . S
O258 C261 1.320 . S
O259 Cd256 2.333 . S
O259 C261 1.214 . S
O260 Cd256 2.352 . S
O260 C263 1.258 . S
C261 O258 1.320 . S
C261 O259 1.214 . S
O262 Cd254 2.277 . S
O262 C257 1.209 . S
C263 O260 1.258 . S
C263 O265 1.282 . S
O264 Cd256 2.277 . S
O264 C257 1.226 . S
O265 Cd256 2.356 . S
O265 C263 1.282 . S
C266 O267 1.306 . S
C266 O269 1.160 . S
O267 C266 1.306 . S
O267 Cd268 2.228 . S
Cd268 O267 2.228 . S
Cd268 O272 2.273 . S
Cd268 O276 2.277 . S
O269 C266 1.160 . S
O269 Cd270 2.203 . S
Cd270 O269 2.203 . S
Cd270 O272 2.411 . S
Cd270 O273 2.333 . S
Cd270 O274 2.352 1_545 S
Cd270 O278 2.277 . S
Cd270 O279 2.356 1_545 S
C271 O276 1.209 . S
C271 O278 1.226 . S
O272 Cd268 2.273 . S
O272 Cd270 2.411 . S
O272 C275 1.320 . S
O273 Cd270 2.333 . S
O273 C275 1.214 . S
O274 Cd270 2.352 1_565 S
O274 C277 1.258 . S
C275 O272 1.320 . S
C275 O273 1.214 . S
O276 Cd268 2.277 . S
O276 C271 1.209 . S
C277 O274 1.258 . S
C277 O279 1.282 . S
O278 Cd270 2.277 . S
O278 C271 1.226 . S
O279 Cd270 2.356 1_565 S
O279 C277 1.282 . S
C280 O281 1.306 . S
C280 O283 1.160 . S
O281 C280 1.306 . S
O281 Cd282 2.228 . S
Cd282 O281 2.228 . S
Cd282 O286 2.273 . S
Cd282 O290 2.277 . S
O283 C280 1.160 . S
O283 Cd284 2.203 . S
Cd284 O283 2.203 . S
Cd284 O286 2.411 . S
Cd284 O287 2.333 . S
Cd284 O288 2.352 1_554 S
Cd284 O292 2.277 . S
Cd284 O293 2.356 1_554 S
C285 O290 1.209 . S
C285 O292 1.226 . S
O286 Cd282 2.273 . S
O286 Cd284 2.411 . S
O286 C289 1.320 . S
O287 Cd284 2.333 . S
O287 C289 1.214 . S
O288 Cd284 2.352 1_556 S
O288 C291 1.258 . S
C289 O286 1.320 . S
C289 O287 1.214 . S
O290 Cd282 2.277 . S
O290 C285 1.209 . S
C291 O288 1.258 . S
C291 O293 1.282 . S
O292 Cd284 2.277 . S
O292 C285 1.226 . S
O293 Cd284 2.356 1_556 S
O293 C291 1.282 . S
C294 O295 1.306 . S
C294 O297 1.160 . S
O295 C294 1.306 . S
O295 Cd296 2.228 . S
Cd296 O295 2.228 . S
Cd296 O300 2.273 . S
Cd296 O304 2.277 . S
O297 C294 1.160 . S
O297 Cd298 2.203 . S
Cd298 O297 2.203 . S
Cd298 O300 2.411 . S
Cd298 O301 2.333 . S
Cd298 O302 2.352 . S
Cd298 O306 2.277 . S
Cd298 O307 2.356 . S
C299 O304 1.209 . S
C299 O306 1.226 . S
O300 Cd296 2.273 . S
O300 Cd298 2.411 . S
O300 C303 1.320 . S
O301 Cd298 2.333 . S
O301 C303 1.214 . S
O302 Cd298 2.352 . S
O302 C305 1.258 . S
C303 O300 1.320 . S
C303 O301 1.214 . S
O304 Cd296 2.277 . S
O304 C299 1.209 . S
C305 O302 1.258 . S
C305 O307 1.282 . S
O306 Cd298 2.277 . S
O306 C299 1.226 . S
O307 Cd298 2.356 . S
O307 C305 1.282 . S
C308 O309 1.306 . S
C308 O311 1.160 . S
O309 C308 1.306 . S
O309 Cd310 2.228 . S
Cd310 O309 2.228 . S
Cd310 O314 2.273 . S
Cd310 O318 2.277 . S
O311 C308 1.160 . S
O311 Cd312 2.203 . S
Cd312 O311 2.203 . S
Cd312 O314 2.411 . S
Cd312 O315 2.333 . S
Cd312 O316 2.352 . S
Cd312 O320 2.277 . S
Cd312 O321 2.356 . S
C313 O318 1.209 . S
C313 O320 1.226 . S
O314 Cd310 2.273 . S
O314 Cd312 2.411 . S
O314 C317 1.320 . S
O315 Cd312 2.333 . S
O315 C317 1.214 . S
O316 Cd312 2.352 . S
O316 C319 1.258 . S
C317 O314 1.320 . S
C317 O315 1.214 . S
O318 Cd310 2.277 . S
O318 C313 1.209 . S
C319 O316 1.258 . S
C319 O321 1.282 . S
O320 Cd312 2.277 . S
O320 C313 1.226 . S
O321 Cd312 2.356 . S
O321 C319 1.282 . S
C322 O323 1.306 . S
C322 O325 1.160 . S
O323 C322 1.306 . S
O323 Cd324 2.228 . S
Cd324 O323 2.228 . S
Cd324 O328 2.273 . S
Cd324 O332 2.277 . S
O325 C322 1.160 . S
O325 Cd326 2.203 . S
Cd326 O325 2.203 . S
Cd326 O328 2.411 . S
Cd326 O329 2.333 . S
Cd326 O330 2.352 . S
Cd326 O334 2.277 . S
Cd326 O335 2.356 . S
C327 O332 1.209 . S
C327 O334 1.226 . S
O328 Cd324 2.273 . S
O328 Cd326 2.411 . S
O328 C331 1.320 . S
O329 Cd326 2.333 . S
O329 C331 1.214 . S
O330 Cd326 2.352 . S
O330 C333 1.258 . S
C331 O328 1.320 . S
C331 O329 1.214 . S
O332 Cd324 2.277 . S
O332 C327 1.209 . S
C333 O330 1.258 . S
C333 O335 1.282 . S
O334 Cd326 2.277 . S
O334 C327 1.226 . S
O335 Cd326 2.356 . S
O335 C333 1.282 . S
Tb336 O339 2.453 . S
Tb336 O340 2.596 . S
Tb336 O341 2.374 1_554 S
Tb336 O349 2.343 1_455 S
Tb336 O351 2.353 . S
Tb336 O353 2.427 . S
Tb336 O354 2.513 1_554 S
C337 O341 1.251 . S
C337 O343 1.263 . S
Tb338 O340 2.343 1_655 S
Tb338 O343 2.353 1_654 S
Tb338 O346 2.427 1_645 S
Tb338 O347 2.513 1_645 S
Tb338 O348 2.453 . S
Tb338 O349 2.596 . S
Tb338 O350 2.374 . S
O339 Tb336 2.453 . S
O339 C355 1.245 . S
O340 Tb336 2.596 . S
O340 Tb338 2.343 1_455 S
O340 C355 1.259 . S
O341 Tb336 2.374 1_556 S
O341 C337 1.251 . S
C342 O346 1.275 . S
C342 O347 1.246 . S
O343 C337 1.263 . S
O343 Tb338 2.353 1_456 S
C344 O348 1.245 . S
C344 O349 1.259 . S
C345 O350 1.248 1_455 S
C345 O351 1.273 . S
O346 Tb338 2.427 1_465 S
O346 C342 1.275 . S
O347 Tb338 2.513 1_465 S
O347 C342 1.246 . S
O348 Tb338 2.453 . S
O348 C344 1.245 . S
O349 Tb336 2.343 1_655 S
O349 Tb338 2.596 . S
O349 C344 1.259 . S
O350 Tb338 2.374 . S
O350 C345 1.248 1_655 S
O351 Tb336 2.353 . S
O351 C345 1.273 . S
C352 O353 1.275 . S
C352 O354 1.246 1_554 S
O353 Tb336 2.427 . S
O353 C352 1.275 . S
O354 Tb336 2.513 1_556 S
O354 C352 1.246 1_556 S
C355 O339 1.245 . S
C355 O340 1.259 . S
Tb356 O359 2.453 . S
Tb356 O360 2.596 . S
Tb356 O361 2.374 . S
Tb356 O369 2.343 . S
Tb356 O371 2.353 . S
Tb356 O373 2.427 . S
Tb356 O374 2.513 . S
C357 O361 1.251 . S
C357 O363 1.263 . S
Tb358 O360 2.343 . S
Tb358 O363 2.353 . S
Tb358 O366 2.427 . S
Tb358 O367 2.513 . S
Tb358 O368 2.453 . S
Tb358 O369 2.596 . S
Tb358 O370 2.374 . S
O359 Tb356 2.453 . S
O359 C375 1.245 . S
O360 Tb356 2.596 . S
O360 Tb358 2.343 . S
O360 C375 1.259 . S
O361 Tb356 2.374 . S
O361 C357 1.251 . S
C362 O366 1.275 . S
C362 O367 1.246 . S
O363 C357 1.263 . S
O363 Tb358 2.353 . S
C364 O368 1.245 . S
C364 O369 1.259 . S
C365 O370 1.250 . S
C365 O371 1.263 . S
O366 Tb358 2.427 . S
O366 C362 1.275 . S
O367 Tb358 2.513 . S
O367 C362 1.246 . S
O368 Tb358 2.453 . S
O368 C364 1.245 . S
O369 Tb356 2.343 . S
O369 Tb358 2.596 . S
O369 C364 1.259 . S
O370 Tb358 2.374 . S
O370 C365 1.250 . S
O371 Tb356 2.353 . S
O371 C365 1.263 . S
C372 O373 1.275 . S
C372 O374 1.246 . S
O373 Tb356 2.427 . S
O373 C372 1.275 . S
O374 Tb356 2.513 . S
O374 C372 1.246 . S
C375 O359 1.245 . S
C375 O360 1.259 . S
Tb376 O379 2.453 . S
Tb376 O380 2.596 . S
Tb376 O381 2.374 . S
Tb376 O389 2.343 . S
Tb376 O391 2.353 . S
Tb376 O393 2.427 . S
Tb376 O394 2.513 . S
C377 O381 1.251 . S
C377 O383 1.263 . S
Tb378 O380 2.343 . S
Tb378 O383 2.353 . S
Tb378 O386 2.427 . S
Tb378 O387 2.513 . S
Tb378 O388 2.453 1_545 S
Tb378 O389 2.596 . S
Tb378 O390 2.374 . S
O379 Tb376 2.453 . S
O379 C395 1.245 . S
O380 Tb376 2.596 . S
O380 Tb378 2.343 . S
O380 C395 1.259 . S
O381 Tb376 2.374 . S
O381 C377 1.251 . S
C382 O386 1.275 . S
C382 O387 1.246 . S
O383 C377 1.263 . S
O383 Tb378 2.353 . S
C384 O388 1.245 . S
C384 O389 1.259 1_565 S
C385 O390 1.250 . S
C385 O391 1.263 . S
O386 Tb378 2.427 . S
O386 C382 1.275 . S
O387 Tb378 2.513 . S
O387 C382 1.246 . S
O388 Tb378 2.453 1_565 S
O388 C384 1.245 . S
O389 Tb376 2.343 . S
O389 Tb378 2.596 . S
O389 C384 1.259 1_545 S
O390 Tb378 2.374 . S
O390 C385 1.250 . S
O391 Tb376 2.353 . S
O391 C385 1.263 . S
C392 O393 1.275 . S
C392 O394 1.246 . S
O393 Tb376 2.427 . S
O393 C392 1.275 . S
O394 Tb376 2.513 . S
O394 C392 1.246 . S
C395 O379 1.245 . S
C395 O380 1.259 . S
Tb396 O399 2.453 . S
Tb396 O400 2.596 . S
Tb396 O401 2.374 . S
Tb396 O409 2.343 . S
Tb396 O411 2.353 . S
Tb396 O413 2.427 . S
Tb396 O414 2.513 . S
C397 O401 1.251 . S
C397 O403 1.263 . S
Tb398 O400 2.343 . S
Tb398 O403 2.353 . S
Tb398 O406 2.427 . S
Tb398 O407 2.513 . S
Tb398 O408 2.453 . S
Tb398 O409 2.596 . S
Tb398 O410 2.374 . S
O399 Tb396 2.453 . S
O399 C415 1.245 . S
O400 Tb396 2.596 . S
O400 Tb398 2.343 . S
O400 C415 1.259 . S
O401 Tb396 2.374 . S
O401 C397 1.251 . S
C402 O406 1.275 . S
C402 O407 1.246 . S
O403 C397 1.263 . S
O403 Tb398 2.353 . S
C404 O408 1.245 . S
C404 O409 1.259 . S
C405 O410 1.250 . S
C405 O411 1.263 . S
O406 Tb398 2.427 . S
O406 C402 1.275 . S
O407 Tb398 2.513 . S
O407 C402 1.246 . S
O408 Tb398 2.453 . S
O408 C404 1.245 . S
O409 Tb396 2.343 . S
O409 Tb398 2.596 . S
O409 C404 1.259 . S
O410 Tb398 2.374 . S
O410 C405 1.250 . S
O411 Tb396 2.353 . S
O411 C405 1.263 . S
C412 O413 1.275 . S
C412 O414 1.246 . S
O413 Tb396 2.427 . S
O413 C412 1.275 . S
O414 Tb396 2.513 . S
O414 C412 1.246 . S
C415 O399 1.245 . S
C415 O400 1.259 . S
Tb416 O419 2.453 1_545 S
Tb416 O420 2.596 . S
Tb416 O421 2.374 1_455 S
Tb416 O429 2.343 . S
Tb416 O431 2.353 . S
Tb416 O433 2.427 . S
Tb416 O434 2.513 1_455 S
C417 O421 1.251 . S
C417 O423 1.263 . S
Tb418 O420 2.343 . S
Tb418 O423 2.353 1_455 S
Tb418 O426 2.427 . S
Tb418 O427 2.513 . S
Tb418 O428 2.453 . S
Tb418 O429 2.596 . S
Tb418 O430 2.374 . S
O419 Tb416 2.453 1_565 S
O419 C435 1.245 . S
O420 Tb416 2.596 . S
O420 Tb418 2.343 . S
O420 C435 1.259 1_545 S
O421 Tb416 2.374 1_655 S
O421 C417 1.251 . S
C422 O426 1.275 . S
C422 O427 1.246 . S
O423 C417 1.263 . S
O423 Tb418 2.353 1_655 S
C424 O428 1.245 . S
C424 O429 1.259 . S
C425 O430 1.250 . S
C425 O431 1.263 . S
O426 Tb418 2.427 . S
O426 C422 1.275 . S
O427 Tb418 2.513 . S
O427 C422 1.246 . S
O428 Tb418 2.453 . S
O428 C424 1.245 . S
O429 Tb416 2.343 . S
O429 Tb418 2.596 . S
O429 C424 1.259 . S
O430 Tb418 2.374 . S
O430 C425 1.250 . S
O431 Tb416 2.353 . S
O431 C425 1.263 . S
C432 O433 1.275 1_655 S
C432 O434 1.246 . S
O433 Tb416 2.427 . S
O433 C432 1.275 1_455 S
O434 Tb416 2.513 1_655 S
O434 C432 1.246 . S
C435 O419 1.245 . S
C435 O420 1.259 1_565 S
Tb436 O439 2.453 . S
Tb436 O440 2.596 . S
Tb436 O441 2.374 . S
Tb436 O449 2.343 . S
Tb436 O451 2.353 . S
Tb436 O453 2.427 . S
Tb436 O454 2.513 . S
C437 O441 1.251 . S
C437 O443 1.263 . S
Tb438 O440 2.343 . S
Tb438 O443 2.353 . S
Tb438 O446 2.427 . S
Tb438 O447 2.513 . S
Tb438 O448 2.453 . S
Tb438 O449 2.596 . S
Tb438 O450 2.374 . S
O439 Tb436 2.453 . S
O439 C455 1.245 . S
O440 Tb436 2.596 . S
O440 Tb438 2.343 . S
O440 C455 1.259 . S
O441 Tb436 2.374 . S
O441 C437 1.251 . S
C442 O446 1.275 . S
C442 O447 1.246 . S
O443 C437 1.263 . S
O443 Tb438 2.353 . S
C444 O448 1.245 . S
C444 O449 1.259 . S
C445 O450 1.250 . S
C445 O451 1.263 . S
O446 Tb438 2.427 . S
O446 C442 1.275 . S
O447 Tb438 2.513 . S
O447 C442 1.246 . S
O448 Tb438 2.453 . S
O448 C444 1.245 . S
O449 Tb436 2.343 . S
O449 Tb438 2.596 . S
O449 C444 1.259 . S
O450 Tb438 2.374 . S
O450 C445 1.250 . S
O451 Tb436 2.353 . S
O451 C445 1.263 . S
C452 O453 1.275 . S
C452 O454 1.246 . S
O453 Tb436 2.427 . S
O453 C452 1.275 . S
O454 Tb436 2.513 . S
O454 C452 1.246 . S
C455 O439 1.245 . S
C455 O440 1.259 . S
Tb456 O459 2.453 . S
Tb456 O460 2.596 . S
Tb456 O461 2.374 1_545 S
Tb456 O469 2.343 1_556 S
Tb456 O471 2.353 1_556 S
Tb456 O473 2.427 1_556 S
Tb456 O474 2.531 1_556 S
C457 O461 1.251 1_554 S
C457 O463 1.259 1_565 S
Tb458 O460 2.343 1_554 S
Tb458 O463 2.364 . S
Tb458 O466 2.427 . S
Tb458 O467 2.513 . S
Tb458 O468 2.453 . S
Tb458 O469 2.596 . S
Tb458 O470 2.374 . S
O459 Tb456 2.453 . S
O459 C475 1.245 . S
O460 Tb456 2.596 . S
O460 Tb458 2.343 1_556 S
O460 C475 1.259 . S
O461 Tb456 2.374 1_565 S
O461 C457 1.251 1_556 S
C462 O466 1.275 . S
C462 O467 1.246 . S
O463 C457 1.259 1_545 S
O463 Tb458 2.364 . S
C464 O468 1.245 . S
C464 O469 1.259 . S
C465 O470 1.250 . S
C465 O471 1.263 . S
O466 Tb458 2.427 . S
O466 C462 1.275 . S
O467 Tb458 2.513 . S
O467 C462 1.246 . S
O468 Tb458 2.453 . S
O468 C464 1.245 . S
O469 Tb456 2.343 1_554 S
O469 Tb458 2.596 . S
O469 C464 1.259 . S
O470 Tb458 2.374 . S
O470 C465 1.250 . S
O471 Tb456 2.353 1_554 S
O471 C465 1.263 . S
C472 O473 1.275 . S
C472 O474 1.269 . S
O473 Tb456 2.427 1_554 S
O473 C472 1.275 . S
O474 Tb456 2.531 1_554 S
O474 C472 1.269 . S
C475 O459 1.245 . S
C475 O460 1.259 . S
Tb476 O479 2.453 . S
Tb476 O480 2.596 . S
Tb476 O481 2.374 . S
Tb476 O489 2.343 . S
Tb476 O491 2.353 . S
Tb476 O493 2.427 . S
Tb476 O494 2.513 . S
C477 O481 1.251 . S
C477 O483 1.263 . S
Tb478 O480 2.343 . S
Tb478 O483 2.353 . S
Tb478 O486 2.427 . S
Tb478 O487 2.513 . S
Tb478 O488 2.453 . S
Tb478 O489 2.596 . S
Tb478 O490 2.374 . S
O479 Tb476 2.453 . S
O479 C495 1.245 . S
O480 Tb476 2.596 . S
O480 Tb478 2.343 . S
O480 C495 1.259 . S
O481 Tb476 2.374 . S
O481 C477 1.251 . S
C482 O486 1.275 . S
C482 O487 1.246 . S
O483 C477 1.263 . S
O483 Tb478 2.353 . S
C484 O488 1.245 . S
C484 O489 1.259 . S
C485 O490 1.250 . S
C485 O491 1.263 . S
O486 Tb478 2.427 . S
O486 C482 1.275 . S
O487 Tb478 2.513 . S
O487 C482 1.246 . S
O488 Tb478 2.453 . S
O488 C484 1.245 . S
O489 Tb476 2.343 . S
O489 Tb478 2.596 . S
O489 C484 1.259 . S
O490 Tb478 2.374 . S
O490 C485 1.250 . S
O491 Tb476 2.353 . S
O491 C485 1.263 . S
C492 O493 1.275 . S
C492 O494 1.246 . S
O493 Tb476 2.427 . S
O493 C492 1.275 . S
O494 Tb476 2.513 . S
O494 C492 1.246 . S
C495 O479 1.245 . S
C495 O480 1.259 . S
Tb496 O499 2.453 1_556 S
Tb496 O500 2.596 1_556 S
Tb496 O501 2.374 1_556 S
Tb496 O509 2.343 1_556 S
Tb496 O511 2.353 . S
Tb496 O513 2.427 . S
Tb496 O514 2.513 . S
C497 O501 1.251 . S
C497 O503 1.263 . S
Tb498 O500 2.343 . S
Tb498 O503 2.353 . S
Tb498 O506 2.427 . S
Tb498 O507 2.513 . S
Tb498 O508 2.453 . S
Tb498 O509 2.596 . S
Tb498 O510 2.374 . S
O499 Tb496 2.453 1_554 S
O499 C515 1.245 . S
O500 Tb496 2.596 1_554 S
O500 Tb498 2.343 . S
O500 C515 1.259 . S
O501 Tb496 2.374 1_554 S
O501 C497 1.251 . S
C502 O506 1.275 . S
C502 O507 1.246 . S
O503 C497 1.263 . S
O503 Tb498 2.353 . S
C504 O508 1.245 . S
C504 O509 1.259 . S
C505 O510 1.250 . S
C505 O511 1.263 1_554 S
O506 Tb498 2.427 . S
O506 C502 1.275 . S
O507 Tb498 2.513 . S
O507 C502 1.246 . S
O508 Tb498 2.453 . S
O508 C504 1.245 . S
O509 Tb496 2.343 1_554 S
O509 Tb498 2.596 . S
O509 C504 1.259 . S
O510 Tb498 2.374 . S
O510 C505 1.250 . S
O511 Tb496 2.353 . S
O511 C505 1.263 1_556 S
C512 O513 1.275 . S
C512 O514 1.246 . S
O513 Tb496 2.427 . S
O513 C512 1.275 . S
O514 Tb496 2.513 . S
O514 C512 1.246 . S
C515 O499 1.245 . S
C515 O500 1.259 . S
Tb516 O519 2.453 . S
Tb516 O520 2.596 . S
Tb516 O521 2.374 . S
Tb516 O529 2.343 . S
Tb516 O531 2.353 . S
Tb516 O533 2.427 . S
Tb516 O534 2.513 . S
C517 O521 1.251 . S
C517 O523 1.263 . S
Tb518 O520 2.343 . S
Tb518 O523 2.353 . S
Tb518 O526 2.427 . S
Tb518 O527 2.513 . S
Tb518 O528 2.453 . S
Tb518 O529 2.596 . S
Tb518 O530 2.374 . S
O519 Tb516 2.453 . S
O519 C535 1.245 . S
O520 Tb516 2.596 . S
O520 Tb518 2.343 . S
O520 C535 1.259 . S
O521 Tb516 2.374 . S
O521 C517 1.251 . S
C522 O526 1.275 . S
C522 O527 1.246 . S
O523 C517 1.263 . S
O523 Tb518 2.353 . S
C524 O528 1.245 . S
C524 O529 1.259 . S
C525 O530 1.250 . S
C525 O531 1.263 . S
O526 Tb518 2.427 . S
O526 C522 1.275 . S
O527 Tb518 2.513 . S
O527 C522 1.246 . S
O528 Tb518 2.453 . S
O528 C524 1.245 . S
O529 Tb516 2.343 . S
O529 Tb518 2.596 . S
O529 C524 1.259 . S
O530 Tb518 2.374 . S
O530 C525 1.250 . S
O531 Tb516 2.353 . S
O531 C525 1.263 . S
C532 O533 1.275 . S
C532 O534 1.246 . S
O533 Tb516 2.427 . S
O533 C532 1.275 . S
O534 Tb516 2.513 . S
O534 C532 1.246 . S
C535 O519 1.245 . S
C535 O520 1.259 . S
Tb536 O539 2.432 1_655 S
Tb536 O540 2.596 1_655 S
Tb536 O541 2.374 . S
Tb536 O549 2.343 . S
Tb536 O551 2.353 . S
Tb536 O553 2.427 . S
Tb536 O554 2.513 . S
C537 O541 1.251 1_455 S
C537 O543 1.263 . S
Tb538 O540 2.343 . S
Tb538 O543 2.353 . S
Tb538 O546 2.427 . S
Tb538 O547 2.513 . S
Tb538 O548 2.453 . S
Tb538 O549 2.596 1_455 S
Tb538 O550 2.374 . S
O539 Tb536 2.432 1_455 S
O539 C555 1.278 . S
O540 Tb536 2.596 1_455 S
O540 Tb538 2.343 . S
O540 C555 1.259 . S
O541 Tb536 2.374 . S
O541 C537 1.251 1_655 S
C542 O546 1.275 . S
C542 O547 1.246 . S
O543 C537 1.263 . S
O543 Tb538 2.353 . S
C544 O548 1.245 1_655 S
C544 O549 1.259 . S
C545 O550 1.250 . S
C545 O551 1.263 1_455 S
O546 Tb538 2.427 . S
O546 C542 1.275 . S
O547 Tb538 2.513 . S
O547 C542 1.246 . S
O548 Tb538 2.453 . S
O548 C544 1.245 1_455 S
O549 Tb536 2.343 . S
O549 Tb538 2.596 1_655 S
O549 C544 1.259 . S
O550 Tb538 2.374 . S
O550 C545 1.250 . S
O551 Tb536 2.353 . S
O551 C545 1.263 1_655 S
C552 O553 1.275 . S
C552 O554 1.246 . S
O553 Tb536 2.427 . S
O553 C552 1.275 . S
O554 Tb536 2.513 . S
O554 C552 1.246 . S
C555 O539 1.278 . S
C555 O540 1.259 . S
Tb556 O559 2.453 . S
Tb556 O560 2.596 . S
Tb556 O561 2.374 . S
Tb556 O569 2.343 . S
Tb556 O571 2.353 . S
Tb556 O573 2.427 . S
Tb556 O574 2.513 . S
C557 O561 1.251 . S
C557 O563 1.263 . S
Tb558 O560 2.343 . S
Tb558 O563 2.353 . S
Tb558 O566 2.427 . S
Tb558 O567 2.513 . S
Tb558 O568 2.453 . S
Tb558 O569 2.596 . S
Tb558 O570 2.374 . S
O559 Tb556 2.453 . S
O559 C575 1.245 . S
O560 Tb556 2.596 . S
O560 Tb558 2.343 . S
O560 C575 1.259 . S
O561 Tb556 2.374 . S
O561 C557 1.251 . S
C562 O566 1.275 . S
C562 O567 1.246 . S
O563 C557 1.263 . S
O563 Tb558 2.353 . S
C564 O568 1.245 . S
C564 O569 1.259 . S
C565 O570 1.250 . S
C565 O571 1.263 . S
O566 Tb558 2.427 . S
O566 C562 1.275 . S
O567 Tb558 2.513 . S
O567 C562 1.246 . S
O568 Tb558 2.453 . S
O568 C564 1.245 . S
O569 Tb556 2.343 . S
O569 Tb558 2.596 . S
O569 C564 1.259 . S
O570 Tb558 2.374 . S
O570 C565 1.250 . S
O571 Tb556 2.353 . S
O571 C565 1.263 . S
C572 O573 1.275 . S
C572 O574 1.246 . S
O573 Tb556 2.427 . S
O573 C572 1.275 . S
O574 Tb556 2.513 . S
O574 C572 1.246 . S
C575 O559 1.245 . S
C575 O560 1.259 . S
Tb576 O579 2.453 . S
Tb576 O580 2.596 . S
Tb576 O581 2.374 . S
Tb576 O589 2.343 . S
Tb576 O591 2.353 . S
Tb576 O593 2.427 . S
Tb576 O594 2.513 . S
C577 O581 1.251 . S
C577 O583 1.263 . S
Tb578 O580 2.343 . S
Tb578 O583 2.353 . S
Tb578 O586 2.427 . S
Tb578 O587 2.513 . S
Tb578 O588 2.453 . S
Tb578 O589 2.596 . S
Tb578 O590 2.374 . S
O579 Tb576 2.453 . S
O579 C595 1.245 . S
O580 Tb576 2.596 . S
O580 Tb578 2.343 . S
O580 C595 1.259 . S
O581 Tb576 2.374 . S
O581 C577 1.251 . S
C582 O586 1.275 . S
C582 O587 1.246 . S
O583 C577 1.263 . S
O583 Tb578 2.353 . S
C584 O588 1.245 . S
C584 O589 1.259 . S
C585 O590 1.250 . S
C585 O591 1.263 . S
O586 Tb578 2.427 . S
O586 C582 1.275 . S
O587 Tb578 2.513 . S
O587 C582 1.246 . S
O588 Tb578 2.453 . S
O588 C584 1.245 . S
O589 Tb576 2.343 . S
O589 Tb578 2.596 . S
O589 C584 1.259 . S
O590 Tb578 2.374 . S
O590 C585 1.250 . S
O591 Tb576 2.353 . S
O591 C585 1.263 . S
C592 O593 1.275 . S
C592 O594 1.246 . S
O593 Tb576 2.427 . S
O593 C592 1.275 . S
O594 Tb576 2.513 . S
O594 C592 1.246 . S
C595 O579 1.245 . S
C595 O580 1.259 . S
Tb596 O599 2.453 . S
Tb596 O600 2.596 . S
Tb596 O601 2.374 . S
Tb596 O609 2.343 . S
Tb596 O611 2.353 . S
Tb596 O613 2.427 . S
Tb596 O614 2.513 . S
C597 O601 1.251 . S
C597 O603 1.263 . S
Tb598 O600 2.343 . S
Tb598 O603 2.353 . S
Tb598 O606 2.427 . S
Tb598 O607 2.513 . S
Tb598 O608 2.453 . S
Tb598 O609 2.596 . S
Tb598 O610 2.374 . S
O599 Tb596 2.453 . S
O599 C615 1.245 . S
O600 Tb596 2.596 . S
O600 Tb598 2.343 . S
O600 C615 1.259 . S
O601 Tb596 2.374 . S
O601 C597 1.251 . S
C602 O606 1.275 . S
C602 O607 1.246 . S
O603 C597 1.263 . S
O603 Tb598 2.353 . S
C604 O608 1.245 . S
C604 O609 1.259 . S
C605 O610 1.250 . S
C605 O611 1.263 . S
O606 Tb598 2.427 . S
O606 C602 1.275 . S
O607 Tb598 2.513 . S
O607 C602 1.246 . S
O608 Tb598 2.453 . S
O608 C604 1.245 . S
O609 Tb596 2.343 . S
O609 Tb598 2.596 . S
O609 C604 1.259 . S
O610 Tb598 2.374 . S
O610 C605 1.250 . S
O611 Tb596 2.353 . S
O611 C605 1.263 . S
C612 O613 1.275 . S
C612 O614 1.246 . S
O613 Tb596 2.427 . S
O613 C612 1.275 . S
O614 Tb596 2.513 . S
O614 C612 1.246 . S
C615 O599 1.245 . S
C615 O600 1.259 . S
Tb616 O619 2.453 . S
Tb616 O620 2.596 . S
Tb616 O621 2.374 . S
Tb616 O629 2.343 . S
Tb616 O631 2.353 . S
Tb616 O633 2.427 . S
Tb616 O634 2.513 . S
C617 O621 1.251 . S
C617 O623 1.263 . S
Tb618 O620 2.343 . S
Tb618 O623 2.353 . S
Tb618 O626 2.427 . S
Tb618 O627 2.513 . S
Tb618 O628 2.453 . S
Tb618 O629 2.596 . S
Tb618 O630 2.374 . S
O619 Tb616 2.453 . S
O619 C635 1.245 . S
O620 Tb616 2.596 . S
O620 Tb618 2.343 . S
O620 C635 1.259 . S
O621 Tb616 2.374 . S
O621 C617 1.251 . S
C622 O626 1.275 . S
C622 O627 1.246 . S
O623 C617 1.263 . S
O623 Tb618 2.353 . S
C624 O628 1.245 . S
C624 O629 1.259 . S
C625 O630 1.250 . S
C625 O631 1.263 . S
O626 Tb618 2.427 . S
O626 C622 1.275 . S
O627 Tb618 2.513 . S
O627 C622 1.246 . S
O628 Tb618 2.453 . S
O628 C624 1.245 . S
O629 Tb616 2.343 . S
O629 Tb618 2.596 . S
O629 C624 1.259 . S
O630 Tb618 2.374 . S
O630 C625 1.250 . S
O631 Tb616 2.353 . S
O631 C625 1.263 . S
C632 O633 1.275 . S
C632 O634 1.246 . S
O633 Tb616 2.427 . S
O633 C632 1.275 . S
O634 Tb616 2.513 . S
O634 C632 1.246 . S
C635 O619 1.245 . S
C635 O620 1.259 . S
Tb636 O639 2.453 . S
Tb636 O640 2.596 . S
Tb636 O641 2.374 . S
Tb636 O649 2.343 . S
Tb636 O651 2.353 1_554 S
Tb636 O653 2.427 1_554 S
Tb636 O654 2.513 . S
C637 O641 1.251 . S
C637 O643 1.263 1_455 S
Tb638 O640 2.343 1_655 S
Tb638 O643 2.353 . S
Tb638 O646 2.427 . S
Tb638 O647 2.513 . S
Tb638 O648 2.453 . S
Tb638 O649 2.596 1_655 S
Tb638 O650 2.374 1_554 S
O639 Tb636 2.453 . S
O639 C655 1.245 . S
O640 Tb636 2.596 . S
O640 Tb638 2.343 1_455 S
O640 C655 1.259 . S
O641 Tb636 2.374 . S
O641 C637 1.251 . S
C642 O646 1.275 . S
C642 O647 1.246 . S
O643 C637 1.263 1_655 S
O643 Tb638 2.353 . S
C644 O648 1.203 1_455 S
C644 O649 1.277 . S
C645 O650 1.234 1_455 S
C645 O651 1.279 . S
O646 Tb638 2.427 . S
O646 C642 1.275 . S
O647 Tb638 2.513 . S
O647 C642 1.246 . S
O648 Tb638 2.453 . S
O648 C644 1.203 1_655 S
O649 Tb636 2.343 . S
O649 Tb638 2.596 1_455 S
O649 C644 1.277 . S
O650 Tb638 2.374 1_556 S
O650 C645 1.234 1_655 S
O651 Tb636 2.353 1_556 S
O651 C645 1.279 . S
C652 O653 1.275 1_554 S
C652 O654 1.246 . S
O653 Tb636 2.427 1_556 S
O653 C652 1.275 1_556 S
O654 Tb636 2.513 . S
O654 C652 1.246 . S
C655 O639 1.245 . S
C655 O640 1.259 . S
H656 C664 0.929 . S
H657 C666 0.930 . S
H658 C668 0.930 . S
H659 C671 0.929 . S
H660 C674 0.930 . S
H661 C676 0.960 . S
H662 C676 0.960 . S
H663 C676 0.960 . S
C664 H656 0.929 . S
C664 C665 1.377 . S
C664 C666 1.384 . S
C665 C664 1.377 . S
C665 C671 1.390 . S
C666 H657 0.930 . S
C666 C664 1.384 . S
C666 C667 1.372 . S
C667 C666 1.372 . S
C667 C668 1.400 . S
C667 C672 1.490 . S
C668 H658 0.930 . S
C668 C667 1.400 . S
C668 C671 1.386 . S
H669 C685 0.930 . S
H670 C686 0.931 1_554 S
C671 H659 0.929 . S
C671 C665 1.390 . S
C671 C668 1.386 . S
C672 C667 1.490 . S
C672 C674 1.395 . S
C672 C675 1.403 1_455 S
H673 C679 0.930 . S
C674 H660 0.930 . S
C674 C672 1.395 . S
C674 C677 1.403 . S
C675 C672 1.403 1_655 S
C675 C676 1.524 . S
C675 C679 1.400 . S
C676 H661 0.960 . S
C676 H662 0.960 . S
C676 H663 0.960 . S
C676 C675 1.524 . S
C677 C674 1.403 . S
C677 C678 1.392 . S
C677 C681 1.495 . S
C678 C677 1.392 . S
C678 C679 1.385 1_455 S
C678 C680 1.478 . S
C679 H673 0.930 . S
C679 C675 1.400 . S
C679 C678 1.385 1_655 S
C680 C678 1.478 . S
C680 C682 1.381 . S
C680 C686 1.383 . S
C681 C677 1.495 . S
C681 H687 0.959 . S
C681 H688 0.961 . S
C681 H689 0.960 . S
C682 C680 1.381 . S
C682 C683 1.394 . S
C682 H690 0.930 . S
C683 C682 1.394 . S
C683 C684 1.394 . S
C683 H691 0.929 . S
C684 C683 1.394 . S
C684 C685 1.373 1_556 S
C685 H669 0.930 . S
C685 C684 1.373 1_554 S
C685 C686 1.379 1_554 S
C686 H670 0.931 1_556 S
C686 C680 1.383 . S
C686 C685 1.379 1_556 S
H687 C681 0.959 . S
H688 C681 0.961 . S
H689 C681 0.960 . S
H690 C682 0.930 . S
H691 C683 0.929 . S
H692 C700 0.929 . S
H693 C702 0.930 . S
H694 C704 0.930 . S
H695 C707 0.929 . S
H696 C710 0.930 . S
H697 C712 0.960 . S
H698 C712 0.960 . S
H699 C712 0.960 . S
C700 H692 0.929 . S
C700 C701 1.377 . S
C700 C702 1.384 . S
C701 C700 1.377 . S
C701 C707 1.390 . S
C702 H693 0.930 . S
C702 C700 1.384 . S
C702 C703 1.372 . S
C703 C702 1.372 . S
C703 C704 1.400 . S
C703 C708 1.490 . S
C704 H694 0.930 . S
C704 C703 1.400 . S
C704 C707 1.386 . S
H705 C721 0.930 . S
H706 C722 0.931 . S
C707 H695 0.929 . S
C707 C701 1.390 . S
C707 C704 1.386 . S
C708 C703 1.490 . S
C708 C710 1.395 . S
C708 C711 1.403 . S
H709 C715 0.930 . S
C710 H696 0.930 . S
C710 C708 1.395 . S
C710 C713 1.403 . S
C711 C708 1.403 . S
C711 C712 1.524 . S
C711 C715 1.400 . S
C712 H697 0.960 . S
C712 H698 0.960 . S
C712 H699 0.960 . S
C712 C711 1.524 . S
C713 C710 1.403 . S
C713 C714 1.392 . S
C713 C717 1.495 . S
C714 C713 1.392 . S
C714 C715 1.385 . S
C714 C716 1.478 . S
C715 H709 0.930 . S
C715 C711 1.400 . S
C715 C714 1.385 . S
C716 C714 1.478 . S
C716 C718 1.381 . S
C716 C722 1.383 . S
C717 C713 1.495 . S
C717 H723 0.959 . S
C717 H724 0.961 . S
C717 H725 0.960 . S
C718 C716 1.381 . S
C718 C719 1.394 . S
C718 H726 0.930 . S
C719 C718 1.394 . S
C719 C720 1.383 . S
C719 H727 0.929 . S
C720 C719 1.383 . S
C720 C721 1.377 . S
C721 H705 0.930 . S
C721 C720 1.377 . S
C721 C722 1.379 . S
C722 H706 0.931 . S
C722 C716 1.383 . S
C722 C721 1.379 . S
H723 C717 0.959 . S
H724 C717 0.961 . S
H725 C717 0.960 . S
H726 C718 0.930 . S
H727 C719 0.929 . S
H728 C736 0.929 . S
H729 C738 0.930 . S
H730 C740 0.930 . S
H731 C743 0.929 . S
H732 C746 0.930 . S
H733 C748 0.960 . S
H734 C748 0.960 . S
H735 C748 0.960 . S
C736 H728 0.929 . S
C736 C737 1.377 . S
C736 C738 1.384 . S
C737 C736 1.377 . S
C737 C743 1.390 . S
C738 H729 0.930 . S
C738 C736 1.384 . S
C738 C739 1.372 . S
C739 C738 1.372 . S
C739 C740 1.400 . S
C739 C744 1.490 . S
C740 H730 0.930 . S
C740 C739 1.400 . S
C740 C743 1.386 . S
H741 C757 0.930 . S
H742 C758 0.931 . S
C743 H731 0.929 . S
C743 C737 1.390 . S
C743 C740 1.386 . S
C744 C739 1.490 . S
C744 C746 1.395 . S
C744 C747 1.403 . S
H745 C751 0.930 . S
C746 H732 0.930 . S
C746 C744 1.395 . S
C746 C749 1.403 . S
C747 C744 1.403 . S
C747 C748 1.524 . S
C747 C751 1.400 . S
C748 H733 0.960 . S
C748 H734 0.960 . S
C748 H735 0.960 . S
C748 C747 1.524 . S
C749 C746 1.403 . S
C749 C750 1.392 . S
C749 C753 1.495 . S
C750 C749 1.392 . S
C750 C751 1.385 . S
C750 C752 1.478 . S
C751 H745 0.930 . S
C751 C747 1.400 . S
C751 C750 1.385 . S
C752 C750 1.478 . S
C752 C754 1.381 . S
C752 C758 1.383 . S
C753 C749 1.495 . S
C753 H759 0.959 . S
C753 H760 0.961 . S
C753 H761 0.960 . S
C754 C752 1.381 . S
C754 C755 1.394 . S
C754 H762 0.930 . S
C755 C754 1.394 . S
C755 C756 1.383 . S
C755 H763 0.929 . S
C756 C755 1.383 . S
C756 C757 1.377 . S
C757 H741 0.930 . S
C757 C756 1.377 . S
C757 C758 1.379 . S
C758 H742 0.931 . S
C758 C752 1.383 . S
C758 C757 1.379 . S
H759 C753 0.959 . S
H760 C753 0.961 . S
H761 C753 0.960 . S
H762 C754 0.930 . S
H763 C755 0.929 . S
H764 C772 0.929 . S
H765 C774 0.930 . S
H766 C776 0.930 . S
H767 C779 0.929 . S
H768 C782 0.930 . S
H769 C784 0.960 . S
H770 C784 0.960 . S
H771 C784 0.960 . S
C772 H764 0.929 . S
C772 C773 1.377 . S
C772 C774 1.384 . S
C773 C772 1.377 . S
C773 C779 1.390 . S
C774 H765 0.930 . S
C774 C772 1.384 . S
C774 C775 1.372 . S
C775 C774 1.372 . S
C775 C776 1.400 . S
C775 C780 1.490 . S
C776 H766 0.930 . S
C776 C775 1.400 . S
C776 C779 1.386 . S
H777 C793 0.930 . S
H778 C794 0.931 . S
C779 H767 0.929 . S
C779 C773 1.390 . S
C779 C776 1.386 . S
C780 C775 1.490 . S
C780 C782 1.395 . S
C780 C783 1.403 . S
H781 C787 0.930 . S
C782 H768 0.930 . S
C782 C780 1.395 . S
C782 C785 1.403 . S
C783 C780 1.403 . S
C783 C784 1.524 . S
C783 C787 1.400 . S
C784 H769 0.960 . S
C784 H770 0.960 . S
C784 H771 0.960 . S
C784 C783 1.524 . S
C785 C782 1.403 . S
C785 C786 1.392 . S
C785 C789 1.495 . S
C786 C785 1.392 . S
C786 C787 1.385 . S
C786 C788 1.478 . S
C787 H781 0.930 . S
C787 C783 1.400 . S
C787 C786 1.385 . S
C788 C786 1.478 . S
C788 C790 1.381 . S
C788 C794 1.383 . S
C789 C785 1.495 . S
C789 H795 0.959 . S
C789 H796 0.961 . S
C789 H797 0.960 . S
C790 C788 1.381 . S
C790 C791 1.394 . S
C790 H798 0.930 . S
C791 C790 1.394 . S
C791 C792 1.383 . S
C791 H799 0.929 . S
C792 C791 1.383 . S
C792 C793 1.377 . S
C793 H777 0.930 . S
C793 C792 1.377 . S
C793 C794 1.379 . S
C794 H778 0.931 . S
C794 C788 1.383 . S
C794 C793 1.379 . S
H795 C789 0.959 . S
H796 C789 0.961 . S
H797 C789 0.960 . S
H798 C790 0.930 . S
H799 C791 0.929 . S
H800 C808 0.929 . S
H801 C810 0.930 . S
H802 C812 0.930 . S
H803 C815 0.929 . S
H804 C818 0.930 . S
H805 C820 0.960 . S
H806 C820 0.960 . S
H807 C820 0.960 . S
C808 H800 0.929 . S
C808 C809 1.377 1_655 S
C808 C810 1.384 . S
C809 C808 1.377 1_455 S
C809 C815 1.390 . S
C810 H801 0.930 . S
C810 C808 1.384 . S
C810 C811 1.372 1_655 S
C811 C810 1.372 1_455 S
C811 C812 1.400 . S
C811 C816 1.490 . S
C812 H802 0.930 . S
C812 C811 1.400 . S
C812 C815 1.386 . S
H813 C829 0.930 . S
H814 C830 0.931 . S
C815 H803 0.929 . S
C815 C809 1.390 . S
C815 C812 1.386 . S
C816 C811 1.490 . S
C816 C818 1.395 . S
C816 C819 1.394 1_455 S
H817 C823 0.930 1_655 S
C818 H804 0.930 . S
C818 C816 1.395 . S
C818 C821 1.403 . S
C819 C816 1.394 1_655 S
C819 C820 1.534 . S
C819 C823 1.400 1_655 S
C820 H805 0.960 . S
C820 H806 0.960 . S
C820 H807 0.960 . S
C820 C819 1.534 . S
C821 C818 1.403 . S
C821 C822 1.392 . S
C821 C825 1.495 . S
C822 C821 1.392 . S
C822 C823 1.385 . S
C822 C824 1.478 . S
C823 H817 0.930 1_455 S
C823 C819 1.400 1_455 S
C823 C822 1.385 . S
C824 C822 1.478 . S
C824 C826 1.381 . S
C824 C830 1.383 . S
C825 C821 1.495 . S
C825 H831 0.959 . S
C825 H832 0.961 . S
C825 H833 0.960 . S
C826 C824 1.381 . S
C826 C827 1.394 . S
C826 H834 0.930 1_455 S
C827 C826 1.394 . S
C827 C828 1.383 . S
C827 H835 0.929 1_455 S
C828 C827 1.383 . S
C828 C829 1.377 . S
C829 H813 0.930 . S
C829 C828 1.377 . S
C829 C830 1.379 . S
C830 H814 0.931 . S
C830 C824 1.383 . S
C830 C829 1.379 . S
H831 C825 0.959 . S
H832 C825 0.961 . S
H833 C825 0.960 . S
H834 C826 0.930 1_655 S
H835 C827 0.929 1_655 S
H836 C844 0.929 . S
H837 C846 0.930 . S
H838 C848 0.930 . S
H839 C851 0.929 . S
H840 C854 0.930 . S
H841 C856 0.960 . S
H842 C856 0.960 . S
H843 C856 0.960 . S
C844 H836 0.929 . S
C844 C845 1.377 . S
C844 C846 1.384 . S
C845 C844 1.377 . S
C845 C851 1.390 . S
C846 H837 0.930 . S
C846 C844 1.384 . S
C846 C847 1.372 . S
C847 C846 1.372 . S
C847 C848 1.400 . S
C847 C852 1.490 . S
C848 H838 0.930 . S
C848 C847 1.400 . S
C848 C851 1.386 . S
H849 C865 0.930 . S
H850 C866 0.931 . S
C851 H839 0.929 . S
C851 C845 1.390 . S
C851 C848 1.386 . S
C852 C847 1.490 . S
C852 C854 1.395 . S
C852 C855 1.403 . S
H853 C859 0.930 . S
C854 H840 0.930 . S
C854 C852 1.395 . S
C854 C857 1.403 . S
C855 C852 1.403 . S
C855 C856 1.524 . S
C855 C859 1.400 . S
C856 H841 0.960 . S
C856 H842 0.960 . S
C856 H843 0.960 . S
C856 C855 1.524 . S
C857 C854 1.403 . S
C857 C858 1.392 . S
C857 C861 1.495 . S
C858 C857 1.392 . S
C858 C859 1.385 . S
C858 C860 1.478 . S
C859 H853 0.930 . S
C859 C855 1.400 . S
C859 C858 1.385 . S
C860 C858 1.478 . S
C860 C862 1.381 . S
C860 C866 1.383 . S
C861 C857 1.495 . S
C861 H867 0.959 . S
C861 H868 0.961 . S
C861 H869 0.960 . S
C862 C860 1.381 . S
C862 C863 1.394 . S
C862 H870 0.930 . S
C863 C862 1.394 . S
C863 C864 1.383 . S
C863 H871 0.929 . S
C864 C863 1.383 . S
C864 C865 1.377 . S
C865 H849 0.930 . S
C865 C864 1.377 . S
C865 C866 1.379 . S
C866 H850 0.931 . S
C866 C860 1.383 . S
C866 C865 1.379 . S
H867 C861 0.959 . S
H868 C861 0.961 . S
H869 C861 0.960 . S
H870 C862 0.930 . S
H871 C863 0.929 . S
H872 C880 0.929 . S
H873 C882 0.930 . S
H874 C884 0.930 . S
H875 C887 0.929 . S
H876 C890 0.930 . S
H877 C892 0.960 . S
H878 C892 0.960 . S
H879 C892 0.960 . S
C880 H872 0.929 . S
C880 C881 1.377 . S
C880 C882 1.384 . S
C881 C880 1.377 . S
C881 C887 1.390 . S
C882 H873 0.930 . S
C882 C880 1.384 . S
C882 C883 1.372 . S
C883 C882 1.372 . S
C883 C884 1.400 . S
C883 C888 1.490 . S
C884 H874 0.930 . S
C884 C883 1.400 . S
C884 C887 1.386 . S
H885 C901 0.930 . S
H886 C902 0.931 . S
C887 H875 0.929 . S
C887 C881 1.390 . S
C887 C884 1.386 . S
C888 C883 1.490 . S
C888 C890 1.395 . S
C888 C891 1.403 . S
H889 C895 0.930 . S
C890 H876 0.930 . S
C890 C888 1.395 . S
C890 C893 1.403 . S
C891 C888 1.403 . S
C891 C892 1.524 . S
C891 C895 1.400 . S
C892 H877 0.960 . S
C892 H878 0.960 . S
C892 H879 0.960 . S
C892 C891 1.524 . S
C893 C890 1.403 . S
C893 C894 1.392 . S
C893 C897 1.495 . S
C894 C893 1.392 . S
C894 C895 1.385 . S
C894 C896 1.478 . S
C895 H889 0.930 . S
C895 C891 1.400 . S
C895 C894 1.385 . S
C896 C894 1.478 . S
C896 C898 1.381 . S
C896 C902 1.383 . S
C897 C893 1.495 . S
C897 H903 0.959 . S
C897 H904 0.961 . S
C897 H905 0.960 . S
C898 C896 1.381 . S
C898 C899 1.394 . S
C898 H906 0.930 . S
C899 C898 1.394 . S
C899 C900 1.383 . S
C899 H907 0.929 . S
C900 C899 1.383 . S
C900 C901 1.377 . S
C901 H885 0.930 . S
C901 C900 1.377 . S
C901 C902 1.379 . S
C902 H886 0.931 . S
C902 C896 1.383 . S
C902 C901 1.379 . S
H903 C897 0.959 . S
H904 C897 0.961 . S
H905 C897 0.960 . S
H906 C898 0.930 . S
H907 C899 0.929 . S
H908 C916 0.929 . S
H909 C918 0.930 . S
H910 C920 0.930 . S
H911 C923 0.929 . S
H912 C926 0.930 . S
H913 C928 0.960 . S
H914 C928 0.960 . S
H915 C928 0.960 . S
C916 H908 0.929 . S
C916 C917 1.377 . S
C916 C918 1.384 . S
C917 C916 1.377 . S
C917 C923 1.390 . S
C918 H909 0.930 . S
C918 C916 1.384 . S
C918 C919 1.372 . S
C919 C918 1.372 . S
C919 C920 1.400 . S
C919 C924 1.490 . S
C920 H910 0.930 . S
C920 C919 1.400 . S
C920 C923 1.386 . S
H921 C937 0.930 . S
H922 C938 0.931 . S
C923 H911 0.929 . S
C923 C917 1.390 . S
C923 C920 1.386 . S
C924 C919 1.490 . S
C924 C926 1.395 . S
C924 C927 1.403 . S
H925 C931 0.930 . S
C926 H912 0.930 . S
C926 C924 1.395 . S
C926 C929 1.403 . S
C927 C924 1.403 . S
C927 C928 1.524 . S
C927 C931 1.400 . S
C928 H913 0.960 . S
C928 H914 0.960 . S
C928 H915 0.960 . S
C928 C927 1.524 . S
C929 C926 1.403 . S
C929 C930 1.392 . S
C929 C933 1.495 . S
C930 C929 1.392 . S
C930 C931 1.385 . S
C930 C932 1.478 . S
C931 H925 0.930 . S
C931 C927 1.400 . S
C931 C930 1.385 . S
C932 C930 1.478 . S
C932 C934 1.381 . S
C932 C938 1.383 . S
C933 C929 1.495 . S
C933 H939 0.959 . S
C933 H940 0.961 . S
C933 H941 0.960 . S
C934 C932 1.381 . S
C934 C935 1.394 . S
C934 H942 0.930 . S
C935 C934 1.394 . S
C935 C936 1.383 . S
C935 H943 0.929 . S
C936 C935 1.383 . S
C936 C937 1.377 . S
C937 H921 0.930 . S
C937 C936 1.377 . S
C937 C938 1.379 . S
C938 H922 0.931 . S
C938 C932 1.383 . S
C938 C937 1.379 . S
H939 C933 0.959 . S
H940 C933 0.961 . S
H941 C933 0.960 . S
H942 C934 0.930 . S
H943 C935 0.929 . S
H944 C952 0.929 . S
H945 C954 0.930 . S
H946 C956 0.930 . S
H947 C959 0.929 . S
H948 C962 0.930 . S
H949 C964 0.960 . S
H950 C964 0.960 . S
H951 C964 0.960 . S
C952 H944 0.929 . S
C952 C953 1.377 . S
C952 C954 1.384 . S
C953 C952 1.377 . S
C953 C959 1.390 . S
C954 H945 0.930 . S
C954 C952 1.384 . S
C954 C955 1.372 . S
C955 C954 1.372 . S
C955 C956 1.400 . S
C955 C960 1.490 . S
C956 H946 0.930 . S
C956 C955 1.400 . S
C956 C959 1.386 . S
H957 C973 0.930 . S
H958 C974 0.931 . S
C959 H947 0.929 . S
C959 C953 1.390 . S
C959 C956 1.386 . S
C960 C955 1.490 . S
C960 C962 1.395 . S
C960 C963 1.403 . S
H961 C967 0.930 . S
C962 H948 0.930 . S
C962 C960 1.395 . S
C962 C965 1.403 . S
C963 C960 1.403 . S
C963 C964 1.524 . S
C963 C967 1.400 . S
C964 H949 0.960 . S
C964 H950 0.960 . S
C964 H951 0.960 . S
C964 C963 1.524 . S
C965 C962 1.403 . S
C965 C966 1.392 . S
C965 C969 1.495 . S
C966 C965 1.392 . S
C966 C967 1.385 . S
C966 C968 1.478 . S
C967 H961 0.930 . S
C967 C963 1.400 . S
C967 C966 1.385 . S
C968 C966 1.478 . S
C968 C970 1.381 . S
C968 C974 1.383 . S
C969 C965 1.495 . S
C969 H975 0.959 1_655 S
C969 H976 0.961 1_655 S
C969 H977 0.960 1_655 S
C970 C968 1.381 . S
C970 C971 1.394 . S
C970 H978 0.930 . S
C971 C970 1.394 . S
C971 C972 1.383 . S
C971 H979 0.924 1_655 S
C972 C971 1.383 . S
C972 C973 1.377 . S
C973 H957 0.930 . S
C973 C972 1.377 . S
C973 C974 1.379 . S
C974 H958 0.931 . S
C974 C968 1.383 . S
C974 C973 1.379 . S
H975 C969 0.959 1_455 S
H976 C969 0.961 1_455 S
H977 C969 0.960 1_455 S
H978 C970 0.930 . S
H979 C971 0.924 1_455 S
H980 C988 0.929 . S
H981 C990 0.930 . S
H982 C992 0.930 . S
H983 C995 0.929 . S
H984 C998 0.930 . S
H985 C1000 0.960 . S
H986 C1000 0.960 . S
H987 C1000 0.960 . S
C988 H980 0.929 . S
C988 C989 1.377 . S
C988 C990 1.384 . S
C989 C988 1.377 . S
C989 C995 1.390 . S
C990 H981 0.930 . S
C990 C988 1.384 . S
C990 C991 1.372 . S
C991 C990 1.372 . S
C991 C992 1.400 . S
C991 C996 1.490 . S
C992 H982 0.930 . S
C992 C991 1.400 . S
C992 C995 1.386 . S
H993 C1009 0.930 . S
H994 C1010 0.931 . S
C995 H983 0.929 . S
C995 C989 1.390 . S
C995 C992 1.386 . S
C996 C991 1.490 . S
C996 C998 1.395 . S
C996 C999 1.403 . S
H997 C1003 0.930 . S
C998 H984 0.930 . S
C998 C996 1.395 . S
C998 C1001 1.403 . S
C999 C996 1.403 . S
C999 C1000 1.524 . S
C999 C1003 1.400 . S
C1000 H985 0.960 . S
C1000 H986 0.960 . S
C1000 H987 0.960 . S
C1000 C999 1.524 . S
C1001 C998 1.403 . S
C1001 C1002 1.392 . S
C1001 C1005 1.495 . S
C1002 C1001 1.392 . S
C1002 C1003 1.385 . S
C1002 C1004 1.478 . S
C1003 H997 0.930 . S
C1003 C999 1.400 . S
C1003 C1002 1.385 . S
C1004 C1002 1.478 . S
C1004 C1006 1.381 . S
C1004 C1010 1.383 . S
C1005 C1001 1.495 . S
C1005 H1011 0.959 . S
C1005 H1012 0.961 . S
C1005 H1013 0.960 . S
C1006 C1004 1.381 . S
C1006 C1007 1.394 . S
C1006 H1014 0.930 . S
C1007 C1006 1.394 . S
C1007 C1008 1.383 . S
C1007 H1015 0.929 . S
C1008 C1007 1.383 . S
C1008 C1009 1.377 . S
C1009 H993 0.930 . S
C1009 C1008 1.377 . S
C1009 C1010 1.379 . S
C1010 H994 0.931 . S
C1010 C1004 1.383 . S
C1010 C1009 1.379 . S
H1011 C1005 0.959 . S
H1012 C1005 0.961 . S
H1013 C1005 0.960 . S
H1014 C1006 0.930 . S
H1015 C1007 0.929 . S
H1016 C1024 0.929 . S
H1017 C1026 0.930 . S
H1018 C1028 0.930 . S
H1019 C1031 0.929 . S
H1020 C1034 0.930 . S
H1021 C1036 0.960 . S
H1022 C1036 0.960 . S
H1023 C1036 0.960 . S
C1024 H1016 0.929 . S
C1024 C1025 1.377 1_565 S
C1024 C1026 1.384 . S
C1025 C1024 1.377 1_545 S
C1025 C1031 1.390 . S
C1026 H1017 0.930 . S
C1026 C1024 1.384 . S
C1026 C1027 1.372 1_565 S
C1027 C1026 1.372 1_545 S
C1027 C1028 1.400 . S
C1027 C1032 1.490 . S
C1028 H1018 0.930 . S
C1028 C1027 1.400 . S
C1028 C1031 1.386 . S
H1029 C1045 0.930 . S
H1030 C1046 0.931 . S
C1031 H1019 0.929 . S
C1031 C1025 1.390 . S
C1031 C1028 1.386 . S
C1032 C1027 1.490 . S
C1032 C1034 1.395 . S
C1032 C1035 1.403 . S
H1033 C1039 0.930 . S
C1034 H1020 0.930 . S
C1034 C1032 1.395 . S
C1034 C1037 1.403 . S
C1035 C1032 1.403 . S
C1035 C1036 1.524 . S
C1035 C1039 1.400 . S
C1036 H1021 0.960 . S
C1036 H1022 0.960 . S
C1036 H1023 0.960 . S
C1036 C1035 1.524 . S
C1037 C1034 1.403 . S
C1037 C1038 1.392 . S
C1037 C1041 1.495 . S
C1038 C1037 1.392 . S
C1038 C1039 1.385 . S
C1038 C1040 1.478 . S
C1039 H1033 0.930 . S
C1039 C1035 1.400 . S
C1039 C1038 1.385 . S
C1040 C1038 1.478 . S
C1040 C1042 1.381 . S
C1040 C1046 1.383 . S
C1041 C1037 1.495 . S
C1041 H1047 0.959 . S
C1041 H1048 0.961 . S
C1041 H1049 0.960 1_545 S
C1042 C1040 1.381 . S
C1042 C1043 1.394 . S
C1042 H1050 0.930 1_545 S
C1043 C1042 1.394 . S
C1043 C1044 1.383 . S
C1043 H1051 0.929 1_545 S
C1044 C1043 1.383 . S
C1044 C1045 1.377 . S
C1045 H1029 0.930 . S
C1045 C1044 1.377 . S
C1045 C1046 1.379 . S
C1046 H1030 0.931 . S
C1046 C1040 1.383 . S
C1046 C1045 1.379 . S
H1047 C1041 0.959 . S
H1048 C1041 0.961 . S
H1049 C1041 0.960 1_565 S
H1050 C1042 0.930 1_565 S
H1051 C1043 0.929 1_565 S
H1052 C1060 0.929 . S
H1053 C1062 0.930 . S
H1054 C1064 0.930 . S
H1055 C1067 0.929 . S
H1056 C1070 0.930 . S
H1057 C1072 0.960 . S
H1058 C1072 0.960 . S
H1059 C1072 0.960 . S
C1060 H1052 0.929 . S
C1060 C1061 1.377 . S
C1060 C1062 1.384 . S
C1061 C1060 1.377 . S
C1061 C1067 1.390 . S
C1062 H1053 0.930 . S
C1062 C1060 1.384 . S
C1062 C1063 1.372 . S
C1063 C1062 1.372 . S
C1063 C1064 1.400 . S
C1063 C1068 1.490 . S
C1064 H1054 0.930 . S
C1064 C1063 1.400 . S
C1064 C1067 1.386 . S
H1065 C1081 0.930 . S
H1066 C1082 0.931 . S
C1067 H1055 0.929 . S
C1067 C1061 1.390 . S
C1067 C1064 1.386 . S
C1068 C1063 1.490 . S
C1068 C1070 1.395 . S
C1068 C1071 1.403 . S
H1069 C1075 0.930 . S
C1070 H1056 0.930 . S
C1070 C1068 1.395 . S
C1070 C1073 1.403 . S
C1071 C1068 1.403 . S
C1071 C1072 1.524 . S
C1071 C1075 1.400 . S
C1072 H1057 0.960 . S
C1072 H1058 0.960 . S
C1072 H1059 0.960 . S
C1072 C1071 1.524 . S
C1073 C1070 1.403 . S
C1073 C1074 1.392 . S
C1073 C1077 1.495 . S
C1074 C1073 1.392 . S
C1074 C1075 1.385 . S
C1074 C1076 1.478 . S
C1075 H1069 0.930 . S
C1075 C1071 1.400 . S
C1075 C1074 1.385 . S
C1076 C1074 1.478 . S
C1076 C1078 1.381 . S
C1076 C1082 1.383 . S
C1077 C1073 1.495 . S
C1077 H1083 0.959 . S
C1077 H1084 0.961 . S
C1077 H1085 0.960 . S
C1078 C1076 1.381 . S
C1078 C1079 1.394 . S
C1078 H1086 0.930 . S
C1079 C1078 1.394 . S
C1079 C1080 1.383 . S
C1079 H1087 0.929 . S
C1080 C1079 1.383 . S
C1080 C1081 1.377 . S
C1081 H1065 0.930 . S
C1081 C1080 1.377 . S
C1081 C1082 1.379 . S
C1082 H1066 0.931 . S
C1082 C1076 1.383 . S
C1082 C1081 1.379 . S
H1083 C1077 0.959 . S
H1084 C1077 0.961 . S
H1085 C1077 0.960 . S
H1086 C1078 0.930 . S
H1087 C1079 0.929 . S
H1088 C1096 0.929 . S
H1089 C1098 0.930 . S
H1090 C1100 0.930 . S
H1091 C1103 0.929 . S
H1092 C1106 0.930 . S
H1093 C1108 0.960 . S
H1094 C1108 0.960 . S
H1095 C1108 0.960 . S
C1096 H1088 0.929 . S
C1096 C1097 1.377 . S
C1096 C1098 1.384 . S
C1097 C1096 1.377 . S
C1097 C1103 1.390 . S
C1098 H1089 0.930 . S
C1098 C1096 1.384 . S
C1098 C1099 1.372 . S
C1099 C1098 1.372 . S
C1099 C1100 1.400 . S
C1099 C1104 1.490 . S
C1100 H1090 0.930 . S
C1100 C1099 1.400 . S
C1100 C1103 1.386 . S
H1101 C1117 0.930 1_455 S
H1102 C1118 0.931 . S
C1103 H1091 0.929 . S
C1103 C1097 1.390 . S
C1103 C1100 1.386 . S
C1104 C1099 1.490 . S
C1104 C1106 1.395 . S
C1104 C1107 1.403 . S
H1105 C1111 0.930 . S
C1106 H1092 0.930 . S
C1106 C1104 1.395 . S
C1106 C1109 1.403 . S
C1107 C1104 1.403 . S
C1107 C1108 1.524 . S
C1107 C1111 1.400 . S
C1108 H1093 0.960 . S
C1108 H1094 0.960 . S
C1108 H1095 0.960 . S
C1108 C1107 1.524 . S
C1109 C1106 1.403 . S
C1109 C1110 1.392 . S
C1109 C1113 1.495 . S
C1110 C1109 1.392 . S
C1110 C1111 1.385 . S
C1110 C1112 1.478 . S
C1111 H1105 0.930 . S
C1111 C1107 1.400 . S
C1111 C1110 1.385 . S
C1112 C1110 1.478 . S
C1112 C1114 1.381 . S
C1112 C1118 1.383 . S
C1113 C1109 1.495 . S
C1113 H1119 0.959 . S
C1113 H1120 0.961 . S
C1113 H1121 0.960 . S
C1114 C1112 1.381 . S
C1114 C1115 1.394 . S
C1114 H1122 0.930 . S
C1115 C1114 1.394 . S
C1115 C1116 1.383 . S
C1115 H1123 0.929 . S
C1116 C1115 1.383 . S
C1116 C1117 1.377 . S
C1117 H1101 0.930 1_655 S
C1117 C1116 1.377 . S
C1117 C1118 1.379 . S
C1118 H1102 0.931 . S
C1118 C1112 1.383 . S
C1118 C1117 1.379 . S
H1119 C1113 0.959 . S
H1120 C1113 0.961 . S
H1121 C1113 0.960 . S
H1122 C1114 0.930 . S
H1123 C1115 0.929 . S
H1124 C1132 0.929 . S
H1125 C1134 0.930 . S
H1126 C1136 0.930 . S
H1127 C1139 0.929 . S
H1128 C1142 0.930 . S
H1129 C1144 0.960 . S
H1130 C1144 0.960 . S
H1131 C1144 0.960 . S
C1132 H1124 0.929 . S
C1132 C1133 1.377 . S
C1132 C1134 1.384 . S
C1133 C1132 1.377 . S
C1133 C1139 1.390 . S
C1134 H1125 0.930 . S
C1134 C1132 1.384 . S
C1134 C1135 1.372 . S
C1135 C1134 1.372 . S
C1135 C1136 1.400 . S
C1135 C1140 1.490 . S
C1136 H1126 0.930 . S
C1136 C1135 1.400 . S
C1136 C1139 1.386 . S
H1137 C1153 0.930 . S
H1138 C1154 0.931 . S
C1139 H1127 0.929 . S
C1139 C1133 1.390 . S
C1139 C1136 1.386 . S
C1140 C1135 1.490 . S
C1140 C1142 1.395 . S
C1140 C1143 1.403 . S
H1141 C1147 0.930 . S
C1142 H1128 0.930 . S
C1142 C1140 1.395 . S
C1142 C1145 1.403 . S
C1143 C1140 1.403 . S
C1143 C1144 1.524 . S
C1143 C1147 1.400 . S
C1144 H1129 0.960 . S
C1144 H1130 0.960 . S
C1144 H1131 0.960 . S
C1144 C1143 1.524 . S
C1145 C1142 1.403 . S
C1145 C1146 1.392 . S
C1145 C1149 1.495 . S
C1146 C1145 1.392 . S
C1146 C1147 1.385 . S
C1146 C1148 1.478 . S
C1147 H1141 0.930 . S
C1147 C1143 1.400 . S
C1147 C1146 1.385 . S
C1148 C1146 1.478 . S
C1148 C1150 1.381 . S
C1148 C1154 1.383 . S
C1149 C1145 1.495 . S
C1149 H1155 0.959 . S
C1149 H1156 0.961 . S
C1149 H1157 0.960 . S
C1150 C1148 1.381 . S
C1150 C1151 1.394 . S
C1150 H1158 0.930 . S
C1151 C1150 1.394 . S
C1151 C1152 1.383 . S
C1151 H1159 0.929 . S
C1152 C1151 1.383 . S
C1152 C1153 1.377 . S
C1153 H1137 0.930 . S
C1153 C1152 1.377 . S
C1153 C1154 1.379 . S
C1154 H1138 0.931 . S
C1154 C1148 1.383 . S
C1154 C1153 1.379 . S
H1155 C1149 0.959 . S
H1156 C1149 0.961 . S
H1157 C1149 0.960 . S
H1158 C1150 0.930 . S
H1159 C1151 0.929 . S
H1160 C1168 0.929 1_565 S
H1161 C1170 0.942 . S
H1162 C1172 0.930 . S
H1163 C1175 0.929 . S
H1164 C1178 0.930 1_565 S
H1165 C1180 0.960 . S
H1166 C1180 0.960 . S
H1167 C1180 0.960 . S
C1168 H1160 0.929 1_545 S
C1168 C1169 1.377 . S
C1168 C1170 1.384 . S
C1169 C1168 1.377 . S
C1169 C1175 1.390 . S
C1170 H1161 0.942 . S
C1170 C1168 1.384 . S
C1170 C1171 1.372 . S
C1171 C1170 1.372 . S
C1171 C1172 1.400 . S
C1171 C1176 1.490 . S
C1172 H1162 0.930 . S
C1172 C1171 1.400 . S
C1172 C1175 1.386 . S
H1173 C1189 0.930 . S
H1174 C1190 0.931 . S
C1175 H1163 0.929 . S
C1175 C1169 1.390 . S
C1175 C1172 1.386 . S
C1176 C1171 1.490 . S
C1176 C1178 1.395 . S
C1176 C1179 1.403 . S
H1177 C1183 0.930 . S
C1178 H1164 0.930 1_545 S
C1178 C1176 1.395 . S
C1178 C1181 1.403 . S
C1179 C1176 1.403 . S
C1179 C1180 1.524 . S
C1179 C1183 1.400 . S
C1180 H1165 0.960 . S
C1180 H1166 0.960 . S
C1180 H1167 0.960 . S
C1180 C1179 1.524 . S
C1181 C1178 1.403 . S
C1181 C1182 1.392 . S
C1181 C1185 1.495 1_545 S
C1182 C1181 1.392 . S
C1182 C1183 1.385 . S
C1182 C1184 1.478 . S
C1183 H1177 0.930 . S
C1183 C1179 1.400 . S
C1183 C1182 1.385 . S
C1184 C1182 1.478 . S
C1184 C1186 1.381 . S
C1184 C1190 1.383 . S
C1185 C1181 1.495 1_565 S
C1185 H1191 0.959 . S
C1185 H1192 0.961 . S
C1185 H1193 0.960 . S
C1186 C1184 1.381 . S
C1186 C1187 1.394 . S
C1186 H1194 0.930 . S
C1187 C1186 1.394 . S
C1187 C1188 1.383 . S
C1187 H1195 0.929 . S
C1188 C1187 1.383 . S
C1188 C1189 1.377 . S
C1189 H1173 0.930 . S
C1189 C1188 1.377 . S
C1189 C1190 1.379 . S
C1190 H1174 0.931 . S
C1190 C1184 1.383 . S
C1190 C1189 1.379 . S
H1191 C1185 0.959 . S
H1192 C1185 0.961 . S
H1193 C1185 0.960 . S
H1194 C1186 0.930 . S
H1195 C1187 0.929 . S
H1196 C1204 0.929 . S
H1197 C1206 0.930 . S
H1198 C1208 0.930 . S
H1199 C1211 0.929 . S
H1200 C1214 0.930 . S
H1201 C1216 0.960 . S
H1202 C1216 0.960 . S
H1203 C1216 0.960 . S
C1204 H1196 0.929 . S
C1204 C1205 1.377 . S
C1204 C1206 1.384 . S
C1205 C1204 1.377 . S
C1205 C1211 1.390 . S
C1206 H1197 0.930 . S
C1206 C1204 1.384 . S
C1206 C1207 1.372 . S
C1207 C1206 1.372 . S
C1207 C1208 1.400 . S
C1207 C1212 1.490 . S
C1208 H1198 0.930 . S
C1208 C1207 1.400 . S
C1208 C1211 1.386 . S
H1209 C1225 0.930 . S
H1210 C1226 0.931 . S
C1211 H1199 0.929 . S
C1211 C1205 1.390 . S
C1211 C1208 1.386 . S
C1212 C1207 1.490 . S
C1212 C1214 1.395 . S
C1212 C1215 1.403 . S
H1213 C1219 0.930 . S
C1214 H1200 0.930 . S
C1214 C1212 1.395 . S
C1214 C1217 1.403 . S
C1215 C1212 1.403 . S
C1215 C1216 1.524 . S
C1215 C1219 1.400 . S
C1216 H1201 0.960 . S
C1216 H1202 0.960 . S
C1216 H1203 0.960 . S
C1216 C1215 1.524 . S
C1217 C1214 1.403 . S
C1217 C1218 1.392 . S
C1217 C1221 1.495 . S
C1218 C1217 1.392 . S
C1218 C1219 1.385 . S
C1218 C1220 1.478 . S
C1219 H1213 0.930 . S
C1219 C1215 1.400 . S
C1219 C1218 1.385 . S
C1220 C1218 1.478 . S
C1220 C1222 1.381 . S
C1220 C1226 1.383 . S
C1221 C1217 1.495 . S
C1221 H1227 0.959 . S
C1221 H1228 0.961 . S
C1221 H1229 0.960 . S
C1222 C1220 1.381 . S
C1222 C1223 1.394 . S
C1222 H1230 0.930 . S
C1223 C1222 1.394 . S
C1223 C1224 1.383 . S
C1223 H1231 0.929 . S
C1224 C1223 1.383 . S
C1224 C1225 1.377 . S
C1225 H1209 0.930 . S
C1225 C1224 1.377 . S
C1225 C1226 1.379 . S
C1226 H1210 0.931 . S
C1226 C1220 1.383 . S
C1226 C1225 1.379 . S
H1227 C1221 0.959 . S
H1228 C1221 0.961 . S
H1229 C1221 0.960 . S
H1230 C1222 0.930 . S
H1231 C1223 0.929 . S
H1232 C1240 0.929 . S
H1233 C1242 0.930 . S
H1234 C1244 0.921 1_556 S
H1235 C1247 0.890 1_556 S
H1236 C1250 0.930 . S
H1237 C1252 0.960 . S
H1238 C1252 0.960 . S
H1239 C1252 1.003 . S
C1240 H1232 0.929 . S
C1240 C1241 1.377 . S
C1240 C1242 1.384 . S
C1241 C1240 1.377 . S
C1241 C1247 1.390 . S
C1242 H1233 0.930 . S
C1242 C1240 1.384 . S
C1242 C1243 1.372 . S
C1243 C1242 1.372 . S
C1243 C1244 1.400 . S
C1243 C1248 1.490 . S
C1244 H1234 0.921 1_554 S
C1244 C1243 1.400 . S
C1244 C1247 1.386 . S
H1245 C1261 0.891 1_556 S
H1246 C1262 0.963 . S
C1247 H1235 0.890 1_554 S
C1247 C1241 1.390 . S
C1247 C1244 1.386 . S
C1248 C1243 1.490 . S
C1248 C1250 1.395 . S
C1248 C1251 1.403 . S
H1249 C1255 0.930 . S
C1250 H1236 0.930 . S
C1250 C1248 1.395 . S
C1250 C1253 1.403 . S
C1251 C1248 1.403 . S
C1251 C1252 1.524 . S
C1251 C1255 1.400 . S
C1252 H1237 0.960 . S
C1252 H1238 0.960 . S
C1252 H1239 1.003 . S
C1252 C1251 1.524 . S
C1253 C1250 1.403 . S
C1253 C1254 1.392 . S
C1253 C1257 1.495 1_565 S
C1254 C1253 1.392 . S
C1254 C1255 1.385 . S
C1254 C1256 1.478 . S
C1255 H1249 0.930 . S
C1255 C1251 1.400 . S
C1255 C1254 1.385 . S
C1256 C1254 1.478 . S
C1256 C1258 1.381 . S
C1256 C1262 1.383 . S
C1257 C1253 1.495 1_545 S
C1257 H1263 0.959 . S
C1257 H1264 0.961 . S
C1257 H1265 0.960 . S
C1258 C1256 1.381 . S
C1258 C1259 1.394 1_565 S
C1258 H1266 0.930 . S
C1259 C1258 1.394 1_545 S
C1259 C1260 1.383 . S
C1259 H1267 0.929 . S
C1260 C1259 1.383 . S
C1260 C1261 1.377 . S
C1261 H1245 0.891 1_554 S
C1261 C1260 1.377 . S
C1261 C1262 1.379 1_545 S
C1262 H1246 0.963 . S
C1262 C1256 1.383 . S
C1262 C1261 1.379 1_565 S
H1263 C1257 0.959 . S
H1264 C1257 0.961 . S
H1265 C1257 0.960 . S
H1266 C1258 0.930 . S
H1267 C1259 0.929 . S
H1268 C1276 0.929 . S
H1269 C1278 0.930 . S
H1270 C1280 0.930 . S
H1271 C1283 0.929 . S
H1272 C1286 0.930 . S
H1273 C1288 0.960 . S
H1274 C1288 0.960 . S
H1275 C1288 0.960 . S
C1276 H1268 0.929 . S
C1276 C1277 1.377 1_556 S
C1276 C1278 1.384 . S
C1277 C1276 1.377 1_554 S
C1277 C1283 1.390 . S
C1278 H1269 0.930 . S
C1278 C1276 1.384 . S
C1278 C1279 1.372 1_556 S
C1279 C1278 1.372 1_554 S
C1279 C1280 1.400 . S
C1279 C1284 1.490 . S
C1280 H1270 0.930 . S
C1280 C1279 1.400 . S
C1280 C1283 1.386 . S
H1281 C1297 0.930 . S
H1282 C1298 0.931 . S
C1283 H1271 0.929 . S
C1283 C1277 1.390 . S
C1283 C1280 1.386 . S
C1284 C1279 1.490 . S
C1284 C1286 1.395 . S
C1284 C1287 1.403 1_554 S
H1285 C1291 0.930 . S
C1286 H1272 0.930 . S
C1286 C1284 1.395 . S
C1286 C1289 1.403 . S
C1287 C1284 1.403 1_556 S
C1287 C1288 1.524 . S
C1287 C1291 1.400 . S
C1288 H1273 0.960 . S
C1288 H1274 0.960 . S
C1288 H1275 0.960 . S
C1288 C1287 1.524 . S
C1289 C1286 1.403 . S
C1289 C1290 1.392 . S
C1289 C1293 1.495 . S
C1290 C1289 1.392 . S
C1290 C1291 1.385 1_554 S
C1290 C1292 1.478 . S
C1291 H1285 0.930 . S
C1291 C1287 1.400 . S
C1291 C1290 1.385 1_556 S
C1292 C1290 1.478 . S
C1292 C1294 1.381 1_554 S
C1292 C1298 1.383 . S
C1293 C1289 1.495 . S
C1293 H1299 0.959 . S
C1293 H1300 0.961 . S
C1293 H1301 0.960 . S
C1294 C1292 1.381 1_556 S
C1294 C1295 1.394 . S
C1294 H1302 0.930 . S
C1295 C1294 1.394 . S
C1295 C1296 1.383 1_556 S
C1295 H1303 0.929 . S
C1296 C1295 1.383 1_554 S
C1296 C1297 1.377 . S
C1297 H1281 0.930 . S
C1297 C1296 1.377 . S
C1297 C1298 1.379 . S
C1298 H1282 0.931 . S
C1298 C1292 1.383 . S
C1298 C1297 1.379 . S
H1299 C1293 0.959 . S
H1300 C1293 0.961 . S
H1301 C1293 0.960 . S
H1302 C1294 0.930 . S
H1303 C1295 0.929 . S
H1304 C1312 0.929 . S
H1305 C1314 0.930 . S
H1306 C1316 0.930 . S
H1307 C1319 0.929 . S
H1308 C1322 0.930 . S
H1309 C1324 0.960 . S
H1310 C1324 0.960 . S
H1311 C1324 0.960 . S
C1312 H1304 0.929 . S
C1312 C1313 1.377 . S
C1312 C1314 1.384 . S
C1313 C1312 1.377 . S
C1313 C1319 1.390 . S
C1314 H1305 0.930 . S
C1314 C1312 1.384 . S
C1314 C1315 1.372 . S
C1315 C1314 1.372 . S
C1315 C1316 1.400 . S
C1315 C1320 1.490 . S
C1316 H1306 0.930 . S
C1316 C1315 1.400 . S
C1316 C1319 1.386 . S
H1317 C1333 0.930 . S
H1318 C1334 0.931 . S
C1319 H1307 0.929 . S
C1319 C1313 1.390 . S
C1319 C1316 1.386 . S
C1320 C1315 1.490 . S
C1320 C1322 1.395 . S
C1320 C1323 1.403 . S
H1321 C1327 0.930 . S
C1322 H1308 0.930 . S
C1322 C1320 1.395 . S
C1322 C1325 1.403 . S
C1323 C1320 1.403 . S
C1323 C1324 1.524 . S
C1323 C1327 1.400 . S
C1324 H1309 0.960 . S
C1324 H1310 0.960 . S
C1324 H1311 0.960 . S
C1324 C1323 1.524 . S
C1325 C1322 1.403 . S
C1325 C1326 1.392 . S
C1325 C1329 1.495 . S
C1326 C1325 1.392 . S
C1326 C1327 1.385 . S
C1326 C1328 1.478 . S
C1327 H1321 0.930 . S
C1327 C1323 1.400 . S
C1327 C1326 1.385 . S
C1328 C1326 1.478 . S
C1328 C1330 1.381 . S
C1328 C1334 1.383 . S
C1329 C1325 1.495 . S
C1329 H1335 0.959 . S
C1329 H1336 0.961 . S
C1329 H1337 0.960 . S
C1330 C1328 1.381 . S
C1330 C1331 1.394 . S
C1330 H1338 0.930 . S
C1331 C1330 1.394 . S
C1331 C1332 1.383 . S
C1331 H1339 0.929 . S
C1332 C1331 1.383 . S
C1332 C1333 1.377 . S
C1333 H1317 0.930 . S
C1333 C1332 1.377 . S
C1333 C1334 1.379 . S
C1334 H1318 0.931 . S
C1334 C1328 1.383 . S
C1334 C1333 1.379 . S
H1335 C1329 0.959 . S
H1336 C1329 0.961 . S
H1337 C1329 0.960 . S
H1338 C1330 0.930 . S
H1339 C1331 0.929 . S
H1340 C1348 0.929 . S
H1341 C1350 0.930 . S
H1342 C1352 0.930 . S
H1343 C1355 0.929 . S
H1344 C1358 0.930 . S
H1345 C1360 0.960 . S
H1346 C1360 0.960 . S
H1347 C1360 0.960 . S
C1348 H1340 0.929 . S
C1348 C1349 1.377 . S
C1348 C1350 1.384 . S
C1349 C1348 1.377 . S
C1349 C1355 1.390 . S
C1350 H1341 0.930 . S
C1350 C1348 1.384 . S
C1350 C1351 1.372 . S
C1351 C1350 1.372 . S
C1351 C1352 1.400 . S
C1351 C1356 1.490 . S
C1352 H1342 0.930 . S
C1352 C1351 1.400 . S
C1352 C1355 1.386 . S
H1353 C1369 0.930 . S
H1354 C1370 0.931 . S
C1355 H1343 0.929 . S
C1355 C1349 1.390 . S
C1355 C1352 1.386 . S
C1356 C1351 1.490 . S
C1356 C1358 1.395 . S
C1356 C1359 1.403 . S
H1357 C1363 0.930 . S
C1358 H1344 0.930 . S
C1358 C1356 1.395 . S
C1358 C1361 1.403 . S
C1359 C1356 1.403 . S
C1359 C1360 1.524 . S
C1359 C1363 1.400 . S
C1360 H1345 0.960 . S
C1360 H1346 0.960 . S
C1360 H1347 0.960 . S
C1360 C1359 1.524 . S
C1361 C1358 1.403 . S
C1361 C1362 1.392 . S
C1361 C1365 1.495 . S
C1362 C1361 1.392 . S
C1362 C1363 1.385 . S
C1362 C1364 1.478 . S
C1363 H1357 0.930 . S
C1363 C1359 1.400 . S
C1363 C1362 1.385 . S
C1364 C1362 1.478 . S
C1364 C1366 1.381 . S
C1364 C1370 1.383 . S
C1365 C1361 1.495 . S
C1365 H1371 0.959 . S
C1365 H1372 0.961 . S
C1365 H1373 0.960 . S
C1366 C1364 1.381 . S
C1366 C1367 1.394 . S
C1366 H1374 0.930 . S
C1367 C1366 1.394 . S
C1367 C1368 1.383 . S
C1367 H1375 0.929 . S
C1368 C1367 1.383 . S
C1368 C1369 1.377 . S
C1369 H1353 0.930 . S
C1369 C1368 1.377 . S
C1369 C1370 1.379 . S
C1370 H1354 0.931 . S
C1370 C1364 1.383 . S
C1370 C1369 1.379 . S
H1371 C1365 0.959 . S
H1372 C1365 0.961 . S
H1373 C1365 0.960 . S
H1374 C1366 0.930 . S
H1375 C1367 0.929 . S
H1376 C1384 0.929 . S
H1377 C1386 0.930 . S
H1378 C1388 0.930 . S
H1379 C1391 0.929 . S
H1380 C1394 0.930 . S
H1381 C1396 0.960 . S
H1382 C1396 0.960 . S
H1383 C1396 0.960 . S
C1384 H1376 0.929 . S
C1384 C1385 1.377 . S
C1384 C1386 1.384 . S
C1385 C1384 1.377 . S
C1385 C1391 1.390 . S
C1386 H1377 0.930 . S
C1386 C1384 1.384 . S
C1386 C1387 1.372 . S
C1387 C1386 1.372 . S
C1387 C1388 1.400 . S
C1387 C1392 1.490 . S
C1388 H1378 0.930 . S
C1388 C1387 1.400 . S
C1388 C1391 1.386 . S
H1389 C1405 0.930 . S
H1390 C1406 0.931 . S
C1391 H1379 0.929 . S
C1391 C1385 1.390 . S
C1391 C1388 1.386 . S
C1392 C1387 1.490 . S
C1392 C1394 1.395 . S
C1392 C1395 1.403 . S
H1393 C1399 0.930 . S
C1394 H1380 0.930 . S
C1394 C1392 1.395 . S
C1394 C1397 1.403 . S
C1395 C1392 1.403 . S
C1395 C1396 1.524 . S
C1395 C1399 1.400 . S
C1396 H1381 0.960 . S
C1396 H1382 0.960 . S
C1396 H1383 0.960 . S
C1396 C1395 1.524 . S
C1397 C1394 1.403 . S
C1397 C1398 1.392 . S
C1397 C1401 1.495 . S
C1398 C1397 1.392 . S
C1398 C1399 1.385 . S
C1398 C1400 1.478 . S
C1399 H1393 0.930 . S
C1399 C1395 1.400 . S
C1399 C1398 1.385 . S
C1400 C1398 1.478 . S
C1400 C1402 1.381 . S
C1400 C1406 1.383 . S
C1401 C1397 1.495 . S
C1401 H1407 0.959 . S
C1401 H1408 0.961 . S
C1401 H1409 0.960 . S
C1402 C1400 1.381 . S
C1402 C1403 1.394 . S
C1402 H1410 0.930 . S
C1403 C1402 1.394 . S
C1403 C1404 1.383 . S
C1403 H1411 0.929 . S
C1404 C1403 1.383 . S
C1404 C1405 1.377 . S
C1405 H1389 0.930 . S
C1405 C1404 1.377 . S
C1405 C1406 1.379 . S
C1406 H1390 0.931 . S
C1406 C1400 1.383 . S
C1406 C1405 1.379 . S
H1407 C1401 0.959 . S
H1408 C1401 0.961 . S
H1409 C1401 0.960 . S
H1410 C1402 0.930 . S
H1411 C1403 0.929 . S
H1412 C1420 0.929 . S
H1413 C1422 0.930 . S
H1414 C1424 0.930 . S
H1415 C1427 0.929 . S
H1416 C1430 0.930 . S
H1417 C1432 0.960 . S
H1418 C1432 0.960 . S
H1419 C1432 0.960 . S
C1420 H1412 0.929 . S
C1420 C1421 1.377 . S
C1420 C1422 1.384 . S
C1421 C1420 1.377 . S
C1421 C1427 1.390 . S
C1422 H1413 0.930 . S
C1422 C1420 1.384 . S
C1422 C1423 1.372 . S
C1423 C1422 1.372 . S
C1423 C1424 1.400 . S
C1423 C1428 1.490 . S
C1424 H1414 0.930 . S
C1424 C1423 1.400 . S
C1424 C1427 1.386 . S
H1425 C1441 0.930 . S
H1426 C1442 0.931 . S
C1427 H1415 0.929 . S
C1427 C1421 1.390 . S
C1427 C1424 1.386 . S
C1428 C1423 1.490 . S
C1428 C1430 1.395 . S
C1428 C1431 1.403 . S
H1429 C1435 0.930 . S
C1430 H1416 0.930 . S
C1430 C1428 1.395 . S
C1430 C1433 1.403 . S
C1431 C1428 1.403 . S
C1431 C1432 1.524 . S
C1431 C1435 1.400 . S
C1432 H1417 0.960 . S
C1432 H1418 0.960 . S
C1432 H1419 0.960 . S
C1432 C1431 1.524 . S
C1433 C1430 1.403 . S
C1433 C1434 1.392 . S
C1433 C1437 1.495 . S
C1434 C1433 1.392 . S
C1434 C1435 1.385 . S
C1434 C1436 1.478 . S
C1435 H1429 0.930 . S
C1435 C1431 1.400 . S
C1435 C1434 1.385 . S
C1436 C1434 1.478 . S
C1436 C1438 1.381 . S
C1436 C1442 1.383 . S
C1437 C1433 1.495 . S
C1437 H1443 0.959 . S
C1437 H1444 0.961 . S
C1437 H1445 0.960 . S
C1438 C1436 1.381 . S
C1438 C1439 1.394 . S
C1438 H1446 0.930 . S
C1439 C1438 1.394 . S
C1439 C1440 1.383 . S
C1439 H1447 0.929 . S
C1440 C1439 1.383 . S
C1440 C1441 1.377 . S
C1441 H1425 0.930 . S
C1441 C1440 1.377 . S
C1441 C1442 1.379 . S
C1442 H1426 0.931 . S
C1442 C1436 1.383 . S
C1442 C1441 1.379 . S
H1443 C1437 0.959 . S
H1444 C1437 0.961 . S
H1445 C1437 0.960 . S
H1446 C1438 0.930 . S
H1447 C1439 0.929 . S
H1448 C1456 0.929 . S
H1449 C1458 0.930 . S
H1450 C1460 0.930 . S
H1451 C1463 0.929 . S
H1452 C1466 0.930 . S
H1453 C1468 0.960 . S
H1454 C1468 0.960 . S
H1455 C1468 0.960 . S
C1456 H1448 0.929 . S
C1456 C1457 1.377 . S
C1456 C1458 1.384 . S
C1457 C1456 1.377 . S
C1457 C1463 1.390 . S
C1458 H1449 0.930 . S
C1458 C1456 1.384 . S
C1458 C1459 1.372 . S
C1459 C1458 1.372 . S
C1459 C1460 1.400 . S
C1459 C1464 1.490 . S
C1460 H1450 0.930 . S
C1460 C1459 1.400 . S
C1460 C1463 1.386 . S
H1461 C1477 0.930 . S
H1462 C1478 0.931 . S
C1463 H1451 0.929 . S
C1463 C1457 1.390 . S
C1463 C1460 1.386 . S
C1464 C1459 1.490 . S
C1464 C1466 1.395 . S
C1464 C1467 1.403 . S
H1465 C1471 0.930 . S
C1466 H1452 0.930 . S
C1466 C1464 1.395 . S
C1466 C1469 1.403 . S
C1467 C1464 1.403 . S
C1467 C1468 1.524 . S
C1467 C1471 1.400 . S
C1468 H1453 0.960 . S
C1468 H1454 0.960 . S
C1468 H1455 0.960 . S
C1468 C1467 1.524 . S
C1469 C1466 1.403 . S
C1469 C1470 1.392 . S
C1469 C1473 1.495 . S
C1470 C1469 1.392 . S
C1470 C1471 1.385 . S
C1470 C1472 1.478 . S
C1471 H1465 0.930 . S
C1471 C1467 1.400 . S
C1471 C1470 1.385 . S
C1472 C1470 1.478 . S
C1472 C1474 1.381 . S
C1472 C1478 1.383 . S
C1473 C1469 1.495 . S
C1473 H1479 0.959 . S
C1473 H1480 0.961 . S
C1473 H1481 0.960 . S
C1474 C1472 1.381 . S
C1474 C1475 1.394 . S
C1474 H1482 0.930 . S
C1475 C1474 1.394 . S
C1475 C1476 1.383 . S
C1475 H1483 0.929 . S
C1476 C1475 1.383 . S
C1476 C1477 1.377 . S
C1477 H1461 0.930 . S
C1477 C1476 1.377 . S
C1477 C1478 1.379 . S
C1478 H1462 0.931 . S
C1478 C1472 1.383 . S
C1478 C1477 1.379 . S
H1479 C1473 0.959 . S
H1480 C1473 0.961 . S
H1481 C1473 0.960 . S
H1482 C1474 0.930 . S
H1483 C1475 0.929 . S
H1484 C1492 0.929 . S
H1485 C1494 0.930 . S
H1486 C1496 0.930 . S
H1487 C1499 0.929 . S
H1488 C1502 0.930 . S
H1489 C1504 0.960 . S
H1490 C1504 0.960 . S
H1491 C1504 0.960 . S
C1492 H1484 0.929 . S
C1492 C1493 1.377 . S
C1492 C1494 1.384 . S
C1493 C1492 1.377 . S
C1493 C1499 1.390 . S
C1494 H1485 0.930 . S
C1494 C1492 1.384 . S
C1494 C1495 1.372 . S
C1495 C1494 1.372 . S
C1495 C1496 1.400 . S
C1495 C1500 1.490 . S
C1496 H1486 0.930 . S
C1496 C1495 1.400 . S
C1496 C1499 1.386 . S
H1497 C1513 0.930 . S
H1498 C1514 0.931 . S
C1499 H1487 0.929 . S
C1499 C1493 1.390 . S
C1499 C1496 1.386 . S
C1500 C1495 1.490 . S
C1500 C1502 1.395 . S
C1500 C1503 1.403 . S
H1501 C1507 0.930 . S
C1502 H1488 0.930 . S
C1502 C1500 1.395 . S
C1502 C1505 1.403 . S
C1503 C1500 1.403 . S
C1503 C1504 1.524 . S
C1503 C1507 1.400 . S
C1504 H1489 0.960 . S
C1504 H1490 0.960 . S
C1504 H1491 0.960 . S
C1504 C1503 1.524 . S
C1505 C1502 1.403 . S
C1505 C1506 1.392 . S
C1505 C1509 1.495 . S
C1506 C1505 1.392 . S
C1506 C1507 1.385 . S
C1506 C1508 1.478 . S
C1507 H1501 0.930 . S
C1507 C1503 1.400 . S
C1507 C1506 1.385 . S
C1508 C1506 1.478 . S
C1508 C1510 1.381 . S
C1508 C1514 1.383 . S
C1509 C1505 1.495 . S
C1509 H1515 0.959 . S
C1509 H1516 0.961 . S
C1509 H1517 0.960 . S
C1510 C1508 1.381 . S
C1510 C1511 1.394 . S
C1510 H1518 0.930 . S
C1511 C1510 1.394 . S
C1511 C1512 1.383 . S
C1511 H1519 0.929 . S
C1512 C1511 1.383 . S
C1512 C1513 1.377 . S
C1513 H1497 0.930 . S
C1513 C1512 1.377 . S
C1513 C1514 1.379 . S
C1514 H1498 0.931 . S
C1514 C1508 1.383 . S
C1514 C1513 1.379 . S
H1515 C1509 0.959 . S
H1516 C1509 0.961 . S
H1517 C1509 0.960 . S
H1518 C1510 0.930 . S
H1519 C1511 0.929 . S
H1520 C1528 0.929 . S
H1521 C1530 0.930 . S
H1522 C1532 0.930 . S
H1523 C1535 0.929 . S
H1524 C1538 0.930 . S
H1525 C1540 0.960 . S
H1526 C1540 0.960 . S
H1527 C1540 0.960 . S
C1528 H1520 0.929 . S
C1528 C1529 1.377 1_655 S
C1528 C1530 1.384 . S
C1529 C1528 1.377 1_455 S
C1529 C1535 1.390 . S
C1530 H1521 0.930 . S
C1530 C1528 1.384 . S
C1530 C1531 1.372 1_655 S
C1531 C1530 1.372 1_455 S
C1531 C1532 1.400 . S
C1531 C1536 1.490 . S
C1532 H1522 0.930 . S
C1532 C1531 1.400 . S
C1532 C1535 1.386 . S
H1533 C1549 0.930 . S
H1534 C1550 0.931 . S
C1535 H1523 0.929 . S
C1535 C1529 1.390 . S
C1535 C1532 1.386 . S
C1536 C1531 1.490 . S
C1536 C1538 1.395 1_455 S
C1536 C1539 1.403 . S
H1537 C1543 0.930 . S
C1538 H1524 0.930 . S
C1538 C1536 1.395 1_655 S
C1538 C1541 1.403 . S
C1539 C1536 1.403 . S
C1539 C1540 1.524 . S
C1539 C1543 1.400 . S
C1540 H1525 0.960 . S
C1540 H1526 0.960 . S
C1540 H1527 0.960 . S
C1540 C1539 1.524 . S
C1541 C1538 1.403 . S
C1541 C1542 1.392 1_655 S
C1541 C1545 1.495 . S
C1542 C1541 1.392 1_455 S
C1542 C1543 1.385 . S
C1542 C1544 1.478 . S
C1543 H1537 0.930 . S
C1543 C1539 1.400 . S
C1543 C1542 1.385 . S
C1544 C1542 1.478 . S
C1544 C1546 1.381 1_455 S
C1544 C1550 1.383 . S
C1545 C1541 1.495 . S
C1545 H1551 0.959 . S
C1545 H1552 0.961 . S
C1545 H1553 0.960 . S
C1546 C1544 1.381 1_655 S
C1546 C1547 1.394 . S
C1546 H1554 0.930 . S
C1547 C1546 1.394 . S
C1547 C1548 1.383 1_655 S
C1547 H1555 0.929 . S
C1548 C1547 1.383 1_455 S
C1548 C1549 1.377 . S
C1549 H1533 0.930 . S
C1549 C1548 1.377 . S
C1549 C1550 1.379 . S
C1550 H1534 0.931 . S
C1550 C1544 1.383 . S
C1550 C1549 1.379 . S
H1551 C1545 0.959 . S
H1552 C1545 0.961 . S
H1553 C1545 0.960 . S
H1554 C1546 0.930 . S
H1555 C1547 0.929 . S
H1556 C1564 0.929 . S
H1557 C1566 0.930 . S
H1558 C1568 0.930 . S
H1559 C1571 0.929 . S
H1560 C1574 0.930 . S
H1561 C1576 0.960 . S
H1562 C1576 0.960 . S
H1563 C1576 0.960 . S
C1564 H1556 0.929 . S
C1564 C1565 1.377 . S
C1564 C1566 1.384 . S
C1565 C1564 1.377 . S
C1565 C1571 1.390 . S
C1566 H1557 0.930 . S
C1566 C1564 1.384 . S
C1566 C1567 1.372 . S
C1567 C1566 1.372 . S
C1567 C1568 1.400 . S
C1567 C1572 1.490 . S
C1568 H1558 0.930 . S
C1568 C1567 1.400 . S
C1568 C1571 1.386 . S
H1569 C1585 0.930 . S
H1570 C1586 0.931 . S
C1571 H1559 0.929 . S
C1571 C1565 1.390 . S
C1571 C1568 1.386 . S
C1572 C1567 1.490 . S
C1572 C1574 1.395 . S
C1572 C1575 1.403 . S
H1573 C1579 0.930 . S
C1574 H1560 0.930 . S
C1574 C1572 1.395 . S
C1574 C1577 1.403 . S
C1575 C1572 1.403 . S
C1575 C1576 1.524 . S
C1575 C1579 1.400 . S
C1576 H1561 0.960 . S
C1576 H1562 0.960 . S
C1576 H1563 0.960 . S
C1576 C1575 1.524 . S
C1577 C1574 1.403 . S
C1577 C1578 1.392 . S
C1577 C1581 1.495 . S
C1578 C1577 1.392 . S
C1578 C1579 1.385 . S
C1578 C1580 1.478 . S
C1579 H1573 0.930 . S
C1579 C1575 1.400 . S
C1579 C1578 1.385 . S
C1580 C1578 1.478 . S
C1580 C1582 1.381 . S
C1580 C1586 1.383 . S
C1581 C1577 1.495 . S
C1581 H1587 0.959 . S
C1581 H1588 0.961 . S
C1581 H1589 0.960 . S
C1582 C1580 1.381 . S
C1582 C1583 1.394 . S
C1582 H1590 0.930 . S
C1583 C1582 1.394 . S
C1583 C1584 1.383 . S
C1583 H1591 0.929 . S
C1584 C1583 1.383 . S
C1584 C1585 1.377 . S
C1585 H1569 0.930 . S
C1585 C1584 1.377 . S
C1585 C1586 1.379 . S
C1586 H1570 0.931 . S
C1586 C1580 1.383 . S
C1586 C1585 1.379 . S
H1587 C1581 0.959 . S
H1588 C1581 0.961 . S
H1589 C1581 0.960 . S
H1590 C1582 0.930 . S
H1591 C1583 0.929 . S
H1592 C1600 0.929 . S
H1593 C1602 0.930 . S
H1594 C1604 0.930 . S
H1595 C1607 0.929 . S
H1596 C1610 0.930 . S
H1597 C1612 0.960 . S
H1598 C1612 0.960 . S
H1599 C1612 0.960 . S
C1600 H1592 0.929 . S
C1600 C1601 1.377 . S
C1600 C1602 1.384 . S
C1601 C1600 1.377 . S
C1601 C1607 1.390 . S
C1602 H1593 0.930 . S
C1602 C1600 1.384 . S
C1602 C1603 1.372 . S
C1603 C1602 1.372 . S
C1603 C1604 1.400 . S
C1603 C1608 1.490 . S
C1604 H1594 0.930 . S
C1604 C1603 1.400 . S
C1604 C1607 1.386 . S
H1605 C1621 0.930 . S
H1606 C1622 0.931 . S
C1607 H1595 0.929 . S
C1607 C1601 1.390 . S
C1607 C1604 1.386 . S
C1608 C1603 1.490 . S
C1608 C1610 1.395 . S
C1608 C1611 1.403 . S
H1609 C1615 0.930 . S
C1610 H1596 0.930 . S
C1610 C1608 1.395 . S
C1610 C1613 1.403 . S
C1611 C1608 1.403 . S
C1611 C1612 1.524 . S
C1611 C1615 1.400 . S
C1612 H1597 0.960 . S
C1612 H1598 0.960 . S
C1612 H1599 0.960 . S
C1612 C1611 1.524 . S
C1613 C1610 1.403 . S
C1613 C1614 1.392 . S
C1613 C1617 1.495 . S
C1614 C1613 1.392 . S
C1614 C1615 1.385 . S
C1614 C1616 1.478 . S
C1615 H1609 0.930 . S
C1615 C1611 1.400 . S
C1615 C1614 1.385 . S
C1616 C1614 1.478 . S
C1616 C1618 1.381 . S
C1616 C1622 1.383 . S
C1617 C1613 1.495 . S
C1617 H1623 0.959 . S
C1617 H1624 0.961 . S
C1617 H1625 0.960 . S
C1618 C1616 1.381 . S
C1618 C1619 1.394 . S
C1618 H1626 0.930 . S
C1619 C1618 1.394 . S
C1619 C1620 1.383 . S
C1619 H1627 0.929 . S
C1620 C1619 1.383 . S
C1620 C1621 1.377 . S
C1621 H1605 0.930 . S
C1621 C1620 1.377 . S
C1621 C1622 1.379 . S
C1622 H1606 0.931 . S
C1622 C1616 1.383 . S
C1622 C1621 1.379 . S
H1623 C1617 0.959 . S
H1624 C1617 0.961 . S
H1625 C1617 0.960 . S
H1626 C1618 0.930 . S
H1627 C1619 0.929 . S
H1628 C1636 0.929 . S
H1629 C1638 0.930 . S
H1630 C1640 0.930 . S
H1631 C1643 0.929 . S
H1632 C1646 0.930 . S
H1633 C1648 0.960 . S
H1634 C1648 0.960 . S
H1635 C1648 0.960 . S
C1636 H1628 0.929 . S
C1636 C1637 1.377 . S
C1636 C1638 1.384 . S
C1637 C1636 1.377 . S
C1637 C1643 1.390 . S
C1638 H1629 0.930 . S
C1638 C1636 1.384 . S
C1638 C1639 1.372 . S
C1639 C1638 1.372 . S
C1639 C1640 1.400 . S
C1639 C1644 1.490 . S
C1640 H1630 0.930 . S
C1640 C1639 1.400 . S
C1640 C1643 1.386 . S
H1641 C1657 0.930 . S
H1642 C1658 0.931 . S
C1643 H1631 0.929 . S
C1643 C1637 1.390 . S
C1643 C1640 1.386 . S
C1644 C1639 1.490 . S
C1644 C1646 1.395 . S
C1644 C1647 1.403 . S
H1645 C1651 0.930 . S
C1646 H1632 0.930 . S
C1646 C1644 1.395 . S
C1646 C1649 1.403 . S
C1647 C1644 1.403 . S
C1647 C1648 1.524 . S
C1647 C1651 1.400 . S
C1648 H1633 0.960 . S
C1648 H1634 0.960 . S
C1648 H1635 0.960 . S
C1648 C1647 1.524 . S
C1649 C1646 1.403 . S
C1649 C1650 1.392 . S
C1649 C1653 1.495 . S
C1650 C1649 1.392 . S
C1650 C1651 1.385 . S
C1650 C1652 1.478 . S
C1651 H1645 0.930 . S
C1651 C1647 1.400 . S
C1651 C1650 1.385 . S
C1652 C1650 1.478 . S
C1652 C1654 1.381 . S
C1652 C1658 1.383 . S
C1653 C1649 1.495 . S
C1653 H1659 0.959 . S
C1653 H1660 0.961 . S
C1653 H1661 0.960 . S
C1654 C1652 1.381 . S
C1654 C1655 1.394 . S
C1654 H1662 0.930 . S
C1655 C1654 1.394 . S
C1655 C1656 1.383 . S
C1655 H1663 0.929 . S
C1656 C1655 1.383 . S
C1656 C1657 1.377 . S
C1657 H1641 0.930 . S
C1657 C1656 1.377 . S
C1657 C1658 1.379 . S
C1658 H1642 0.931 . S
C1658 C1652 1.383 . S
C1658 C1657 1.379 . S
H1659 C1653 0.959 . S
H1660 C1653 0.961 . S
H1661 C1653 0.960 . S
H1662 C1654 0.930 . S
H1663 C1655 0.929 . S
H1664 C1672 0.929 . S
H1665 C1674 0.930 . S
H1666 C1676 0.930 . S
H1667 C1679 0.929 . S
H1668 C1682 0.919 1_655 S
H1669 C1684 0.960 . S
H1670 C1684 0.960 . S
H1671 C1684 0.960 . S
C1672 H1664 0.929 . S
C1672 C1673 1.377 1_655 S
C1672 C1674 1.384 . S
C1673 C1672 1.377 1_455 S
C1673 C1679 1.390 . S
C1674 H1665 0.930 . S
C1674 C1672 1.384 . S
C1674 C1675 1.372 1_655 S
C1675 C1674 1.372 1_455 S
C1675 C1676 1.400 . S
C1675 C1680 1.490 . S
C1676 H1666 0.930 . S
C1676 C1675 1.400 . S
C1676 C1679 1.386 . S
H1677 C1693 0.930 . S
H1678 C1694 0.931 . S
C1679 H1667 0.929 . S
C1679 C1673 1.390 . S
C1679 C1676 1.386 . S
C1680 C1675 1.490 . S
C1680 C1682 1.405 . S
C1680 C1683 1.403 . S
H1681 C1687 0.930 . S
C1682 H1668 0.919 1_455 S
C1682 C1680 1.405 . S
C1682 C1685 1.409 1_455 S
C1683 C1680 1.403 . S
C1683 C1684 1.524 . S
C1683 C1687 1.400 . S
C1684 H1669 0.960 . S
C1684 H1670 0.960 . S
C1684 H1671 0.960 . S
C1684 C1683 1.524 . S
C1685 C1682 1.409 1_655 S
C1685 C1686 1.380 1_655 S
C1685 C1689 1.506 . S
C1686 C1685 1.380 1_455 S
C1686 C1687 1.385 . S
C1686 C1688 1.478 . S
C1687 H1681 0.930 . S
C1687 C1683 1.400 . S
C1687 C1686 1.385 . S
C1688 C1686 1.478 . S
C1688 C1690 1.381 1_455 S
C1688 C1694 1.383 . S
C1689 C1685 1.506 . S
C1689 H1695 0.959 . S
C1689 H1696 0.988 . S
C1689 H1697 0.960 . S
C1690 C1688 1.381 1_655 S
C1690 C1691 1.394 . S
C1690 H1698 0.930 . S
C1691 C1690 1.394 . S
C1691 C1692 1.383 1_655 S
C1691 H1699 0.929 . S
C1692 C1691 1.383 1_455 S
C1692 C1693 1.377 . S
C1693 H1677 0.930 . S
C1693 C1692 1.377 . S
C1693 C1694 1.379 . S
C1694 H1678 0.931 . S
C1694 C1688 1.383 . S
C1694 C1693 1.379 . S
H1695 C1689 0.959 . S
H1696 C1689 0.988 . S
H1697 C1689 0.960 . S
H1698 C1690 0.930 . S
H1699 C1691 0.929 . S
H1700 C1708 0.929 . S
H1701 C1710 0.930 . S
H1702 C1712 0.930 . S
H1703 C1715 0.929 . S
H1704 C1718 0.930 . S
H1705 C1720 0.960 . S
H1706 C1720 0.960 . S
H1707 C1720 0.960 . S
C1708 H1700 0.929 . S
C1708 C1709 1.377 . S
C1708 C1710 1.384 . S
C1709 C1708 1.377 . S
C1709 C1715 1.390 . S
C1710 H1701 0.930 . S
C1710 C1708 1.384 . S
C1710 C1711 1.372 . S
C1711 C1710 1.372 . S
C1711 C1712 1.400 . S
C1711 C1716 1.490 . S
C1712 H1702 0.930 . S
C1712 C1711 1.400 . S
C1712 C1715 1.386 . S
H1713 C1729 0.930 . S
H1714 C1730 0.931 . S
C1715 H1703 0.929 . S
C1715 C1709 1.390 . S
C1715 C1712 1.386 . S
C1716 C1711 1.490 . S
C1716 C1718 1.395 . S
C1716 C1719 1.403 . S
H1717 C1723 0.930 . S
C1718 H1704 0.930 . S
C1718 C1716 1.395 . S
C1718 C1721 1.403 . S
C1719 C1716 1.403 . S
C1719 C1720 1.524 . S
C1719 C1723 1.400 . S
C1720 H1705 0.960 . S
C1720 H1706 0.960 . S
C1720 H1707 0.960 . S
C1720 C1719 1.524 . S
C1721 C1718 1.403 . S
C1721 C1722 1.392 . S
C1721 C1725 1.495 . S
C1722 C1721 1.392 . S
C1722 C1723 1.385 . S
C1722 C1724 1.478 . S
C1723 H1717 0.930 . S
C1723 C1719 1.400 . S
C1723 C1722 1.385 . S
C1724 C1722 1.478 . S
C1724 C1726 1.381 . S
C1724 C1730 1.383 . S
C1725 C1721 1.495 . S
C1725 H1731 0.959 . S
C1725 H1732 0.961 . S
C1725 H1733 0.960 . S
C1726 C1724 1.381 . S
C1726 C1727 1.394 . S
C1726 H1734 0.930 . S
C1727 C1726 1.394 . S
C1727 C1728 1.383 . S
C1727 H1735 0.929 . S
C1728 C1727 1.383 . S
C1728 C1729 1.377 . S
C1729 H1713 0.930 . S
C1729 C1728 1.377 . S
C1729 C1730 1.379 . S
C1730 H1714 0.931 . S
C1730 C1724 1.383 . S
C1730 C1729 1.379 . S
H1731 C1725 0.959 . S
H1732 C1725 0.961 . S
H1733 C1725 0.960 . S
H1734 C1726 0.930 . S
H1735 C1727 0.929 . S
H1736 C1744 0.929 . S
H1737 C1746 0.930 . S
H1738 C1748 0.930 . S
H1739 C1751 0.929 . S
H1740 C1754 0.930 . S
H1741 C1756 0.960 . S
H1742 C1756 0.960 . S
H1743 C1756 0.960 . S
C1744 H1736 0.929 . S
C1744 C1745 1.377 . S
C1744 C1746 1.384 . S
C1745 C1744 1.377 . S
C1745 C1751 1.390 . S
C1746 H1737 0.930 . S
C1746 C1744 1.384 . S
C1746 C1747 1.372 . S
C1747 C1746 1.372 . S
C1747 C1748 1.400 . S
C1747 C1752 1.490 . S
C1748 H1738 0.930 . S
C1748 C1747 1.400 . S
C1748 C1751 1.386 . S
H1749 C1765 0.930 . S
H1750 C1766 0.931 . S
C1751 H1739 0.929 . S
C1751 C1745 1.390 . S
C1751 C1748 1.386 . S
C1752 C1747 1.490 . S
C1752 C1754 1.395 . S
C1752 C1755 1.403 . S
H1753 C1759 0.930 . S
C1754 H1740 0.930 . S
C1754 C1752 1.395 . S
C1754 C1757 1.403 . S
C1755 C1752 1.403 . S
C1755 C1756 1.524 . S
C1755 C1759 1.400 . S
C1756 H1741 0.960 . S
C1756 H1742 0.960 . S
C1756 H1743 0.960 . S
C1756 C1755 1.524 . S
C1757 C1754 1.403 . S
C1757 C1758 1.392 . S
C1757 C1761 1.495 . S
C1758 C1757 1.392 . S
C1758 C1759 1.385 . S
C1758 C1760 1.478 . S
C1759 H1753 0.930 . S
C1759 C1755 1.400 . S
C1759 C1758 1.385 . S
C1760 C1758 1.478 . S
C1760 C1762 1.381 . S
C1760 C1766 1.383 . S
C1761 C1757 1.495 . S
C1761 H1767 0.959 . S
C1761 H1768 0.961 . S
C1761 H1769 0.960 . S
C1762 C1760 1.381 . S
C1762 C1763 1.394 . S
C1762 H1770 0.930 . S
C1763 C1762 1.394 . S
C1763 C1764 1.383 . S
C1763 H1771 0.929 . S
C1764 C1763 1.383 . S
C1764 C1765 1.377 . S
C1765 H1749 0.930 . S
C1765 C1764 1.377 . S
C1765 C1766 1.379 . S
C1766 H1750 0.931 . S
C1766 C1760 1.383 . S
C1766 C1765 1.379 . S
H1767 C1761 0.959 . S
H1768 C1761 0.961 . S
H1769 C1761 0.960 . S
H1770 C1762 0.930 . S
H1771 C1763 0.929 . S
H1772 C1780 0.929 . S
H1773 C1782 0.930 . S
H1774 C1784 0.930 . S
H1775 C1787 0.929 . S
H1776 C1790 0.930 . S
H1777 C1792 0.960 . S
H1778 C1792 0.960 . S
H1779 C1792 0.960 . S
C1780 H1772 0.929 . S
C1780 C1781 1.377 . S
C1780 C1782 1.384 . S
C1781 C1780 1.377 . S
C1781 C1787 1.390 . S
C1782 H1773 0.930 . S
C1782 C1780 1.384 . S
C1782 C1783 1.372 . S
C1783 C1782 1.372 . S
C1783 C1784 1.400 . S
C1783 C1788 1.490 . S
C1784 H1774 0.930 . S
C1784 C1783 1.400 . S
C1784 C1787 1.386 . S
H1785 C1801 0.930 . S
H1786 C1802 0.931 . S
C1787 H1775 0.929 . S
C1787 C1781 1.390 . S
C1787 C1784 1.386 . S
C1788 C1783 1.490 . S
C1788 C1790 1.395 . S
C1788 C1791 1.403 . S
H1789 C1795 0.930 . S
C1790 H1776 0.930 . S
C1790 C1788 1.395 . S
C1790 C1793 1.403 . S
C1791 C1788 1.403 . S
C1791 C1792 1.524 . S
C1791 C1795 1.400 . S
C1792 H1777 0.960 . S
C1792 H1778 0.960 . S
C1792 H1779 0.960 . S
C1792 C1791 1.524 . S
C1793 C1790 1.403 . S
C1793 C1794 1.392 . S
C1793 C1797 1.495 . S
C1794 C1793 1.392 . S
C1794 C1795 1.385 . S
C1794 C1796 1.478 . S
C1795 H1789 0.930 . S
C1795 C1791 1.400 . S
C1795 C1794 1.385 . S
C1796 C1794 1.478 . S
C1796 C1798 1.381 . S
C1796 C1802 1.383 . S
C1797 C1793 1.495 . S
C1797 H1803 0.959 . S
C1797 H1804 0.961 . S
C1797 H1805 0.960 . S
C1798 C1796 1.381 . S
C1798 C1799 1.394 . S
C1798 H1806 0.930 . S
C1799 C1798 1.394 . S
C1799 C1800 1.383 . S
C1799 H1807 0.929 . S
C1800 C1799 1.383 . S
C1800 C1801 1.377 . S
C1801 H1785 0.930 . S
C1801 C1800 1.377 . S
C1801 C1802 1.379 . S
C1802 H1786 0.931 . S
C1802 C1796 1.383 . S
C1802 C1801 1.379 . S
H1803 C1797 0.959 . S
H1804 C1797 0.961 . S
H1805 C1797 0.960 . S
H1806 C1798 0.930 . S
H1807 C1799 0.929 . S
H1808 C1816 0.929 . S
H1809 C1818 0.930 . S
H1810 C1820 0.930 1_565 S
H1811 C1823 0.929 . S
H1812 C1826 0.930 . S
H1813 C1828 0.960 . S
H1814 C1828 0.960 . S
H1815 C1828 0.960 . S
C1816 H1808 0.929 . S
C1816 C1817 1.377 . S
C1816 C1818 1.384 . S
C1817 C1816 1.377 . S
C1817 C1823 1.391 1_545 S
C1818 H1809 0.930 . S
C1818 C1816 1.384 . S
C1818 C1819 1.372 . S
C1819 C1818 1.372 . S
C1819 C1820 1.400 . S
C1819 C1824 1.490 . S
C1820 H1810 0.930 1_545 S
C1820 C1819 1.400 . S
C1820 C1823 1.385 1_545 S
H1821 C1837 0.930 . S
H1822 C1838 0.931 . S
C1823 H1811 0.929 . S
C1823 C1817 1.391 1_565 S
C1823 C1820 1.385 1_565 S
C1824 C1819 1.490 . S
C1824 C1826 1.395 . S
C1824 C1827 1.403 1_545 S
H1825 C1831 0.930 . S
C1826 H1812 0.930 . S
C1826 C1824 1.395 . S
C1826 C1829 1.403 . S
C1827 C1824 1.403 1_565 S
C1827 C1828 1.524 . S
C1827 C1831 1.400 . S
C1828 H1813 0.960 . S
C1828 H1814 0.960 . S
C1828 H1815 0.960 . S
C1828 C1827 1.524 . S
C1829 C1826 1.403 . S
C1829 C1830 1.392 . S
C1829 C1833 1.495 . S
C1830 C1829 1.392 . S
C1830 C1831 1.385 1_545 S
C1830 C1832 1.478 . S
C1831 H1825 0.930 . S
C1831 C1827 1.400 . S
C1831 C1830 1.385 1_565 S
C1832 C1830 1.478 . S
C1832 C1834 1.381 . S
C1832 C1838 1.383 . S
C1833 C1829 1.495 . S
C1833 H1839 0.959 . S
C1833 H1840 0.961 . S
C1833 H1841 0.960 . S
C1834 C1832 1.381 . S
C1834 C1835 1.394 . S
C1834 H1842 0.930 . S
C1835 C1834 1.394 . S
C1835 C1836 1.383 . S
C1835 H1843 0.929 . S
C1836 C1835 1.383 . S
C1836 C1837 1.377 . S
C1837 H1821 0.930 . S
C1837 C1836 1.377 . S
C1837 C1838 1.379 . S
C1838 H1822 0.931 . S
C1838 C1832 1.383 . S
C1838 C1837 1.379 . S
H1839 C1833 0.959 . S
H1840 C1833 0.961 . S
H1841 C1833 0.960 . S
H1842 C1834 0.930 . S
H1843 C1835 0.929 . S
H1844 C1852 0.929 . S
H1845 C1854 0.930 . S
H1846 C1856 0.930 . S
H1847 C1859 0.929 . S
H1848 C1862 0.930 . S
H1849 C1864 0.960 . S
H1850 C1864 0.960 . S
H1851 C1864 0.960 . S
C1852 H1844 0.929 . S
C1852 C1853 1.377 . S
C1852 C1854 1.384 . S
C1853 C1852 1.377 . S
C1853 C1859 1.390 . S
C1854 H1845 0.930 . S
C1854 C1852 1.384 . S
C1854 C1855 1.372 . S
C1855 C1854 1.372 . S
C1855 C1856 1.400 . S
C1855 C1860 1.490 . S
C1856 H1846 0.930 . S
C1856 C1855 1.400 . S
C1856 C1859 1.386 . S
H1857 C1873 0.930 . S
H1858 C1874 0.931 . S
C1859 H1847 0.929 . S
C1859 C1853 1.390 . S
C1859 C1856 1.386 . S
C1860 C1855 1.490 . S
C1860 C1862 1.395 . S
C1860 C1863 1.403 . S
H1861 C1867 0.930 . S
C1862 H1848 0.930 . S
C1862 C1860 1.395 . S
C1862 C1865 1.403 . S
C1863 C1860 1.403 . S
C1863 C1864 1.524 . S
C1863 C1867 1.400 . S
C1864 H1849 0.960 . S
C1864 H1850 0.960 . S
C1864 H1851 0.960 . S
C1864 C1863 1.524 . S
C1865 C1862 1.403 . S
C1865 C1866 1.392 . S
C1865 C1869 1.495 . S
C1866 C1865 1.392 . S
C1866 C1867 1.385 . S
C1866 C1868 1.478 . S
C1867 H1861 0.930 . S
C1867 C1863 1.400 . S
C1867 C1866 1.385 . S
C1868 C1866 1.478 . S
C1868 C1870 1.381 . S
C1868 C1874 1.383 . S
C1869 C1865 1.495 . S
C1869 H1875 0.959 . S
C1869 H1876 0.961 . S
C1869 H1877 0.960 . S
C1870 C1868 1.381 . S
C1870 C1871 1.394 . S
C1870 H1878 0.930 . S
C1871 C1870 1.394 . S
C1871 C1872 1.383 . S
C1871 H1879 0.929 . S
C1872 C1871 1.383 . S
C1872 C1873 1.377 . S
C1873 H1857 0.930 . S
C1873 C1872 1.377 . S
C1873 C1874 1.379 . S
C1874 H1858 0.931 . S
C1874 C1868 1.383 . S
C1874 C1873 1.379 . S
H1875 C1869 0.959 . S
H1876 C1869 0.961 . S
H1877 C1869 0.960 . S
H1878 C1870 0.930 . S
H1879 C1871 0.929 . S
H1880 C1888 0.929 . S
H1881 C1890 0.930 . S
H1882 C1892 0.930 . S
H1883 C1895 0.929 . S
H1884 C1898 0.930 . S
H1885 C1900 0.960 . S
H1886 C1900 0.960 . S
H1887 C1900 0.960 . S
C1888 H1880 0.929 . S
C1888 C1889 1.377 . S
C1888 C1890 1.384 . S
C1889 C1888 1.377 . S
C1889 C1895 1.390 . S
C1890 H1881 0.930 . S
C1890 C1888 1.384 . S
C1890 C1891 1.372 . S
C1891 C1890 1.372 . S
C1891 C1892 1.400 . S
C1891 C1896 1.490 . S
C1892 H1882 0.930 . S
C1892 C1891 1.400 . S
C1892 C1895 1.386 . S
H1893 C1909 0.930 . S
H1894 C1910 0.931 . S
C1895 H1883 0.929 . S
C1895 C1889 1.390 . S
C1895 C1892 1.386 . S
C1896 C1891 1.490 . S
C1896 C1898 1.395 . S
C1896 C1899 1.403 . S
H1897 C1903 0.930 . S
C1898 H1884 0.930 . S
C1898 C1896 1.395 . S
C1898 C1901 1.403 . S
C1899 C1896 1.403 . S
C1899 C1900 1.524 . S
C1899 C1903 1.400 . S
C1900 H1885 0.960 . S
C1900 H1886 0.960 . S
C1900 H1887 0.960 . S
C1900 C1899 1.524 . S
C1901 C1898 1.403 . S
C1901 C1902 1.392 . S
C1901 C1905 1.495 . S
C1902 C1901 1.392 . S
C1902 C1903 1.385 . S
C1902 C1904 1.478 . S
C1903 H1897 0.930 . S
C1903 C1899 1.400 . S
C1903 C1902 1.385 . S
C1904 C1902 1.478 . S
C1904 C1906 1.381 . S
C1904 C1910 1.383 . S
C1905 C1901 1.495 . S
C1905 H1911 0.959 1_545 S
C1905 H1912 0.961 . S
C1905 H1913 0.960 1_545 S
C1906 C1904 1.381 . S
C1906 C1907 1.394 . S
C1906 H1914 0.930 . S
C1907 C1906 1.394 . S
C1907 C1908 1.383 . S
C1907 H1915 0.929 . S
C1908 C1907 1.383 . S
C1908 C1909 1.377 . S
C1909 H1893 0.930 . S
C1909 C1908 1.377 . S
C1909 C1910 1.379 . S
C1910 H1894 0.931 . S
C1910 C1904 1.383 . S
C1910 C1909 1.379 . S
H1911 C1905 0.959 1_565 S
H1912 C1905 0.961 . S
H1913 C1905 0.960 1_565 S
H1914 C1906 0.930 . S
H1915 C1907 0.929 . S
H1916 C1924 0.929 . S
H1917 C1926 0.930 . S
H1918 C1928 0.930 . S
H1919 C1931 0.929 . S
H1920 C1934 0.930 . S
H1921 C1936 0.960 . S
H1922 C1936 0.960 . S
H1923 C1936 0.960 . S
C1924 H1916 0.929 . S
C1924 C1925 1.377 . S
C1924 C1926 1.384 . S
C1925 C1924 1.377 . S
C1925 C1931 1.390 . S
C1926 H1917 0.930 . S
C1926 C1924 1.384 . S
C1926 C1927 1.372 . S
C1927 C1926 1.372 . S
C1927 C1928 1.400 . S
C1927 C1932 1.490 . S
C1928 H1918 0.930 . S
C1928 C1927 1.400 . S
C1928 C1931 1.386 . S
H1929 C1945 0.930 . S
H1930 C1946 0.931 . S
C1931 H1919 0.929 . S
C1931 C1925 1.390 . S
C1931 C1928 1.386 . S
C1932 C1927 1.490 . S
C1932 C1934 1.395 . S
C1932 C1935 1.403 . S
H1933 C1939 0.930 . S
C1934 H1920 0.930 . S
C1934 C1932 1.395 . S
C1934 C1937 1.403 . S
C1935 C1932 1.403 . S
C1935 C1936 1.524 . S
C1935 C1939 1.400 . S
C1936 H1921 0.960 . S
C1936 H1922 0.960 . S
C1936 H1923 0.960 . S
C1936 C1935 1.524 . S
C1937 C1934 1.403 . S
C1937 C1938 1.392 . S
C1937 C1941 1.495 . S
C1938 C1937 1.392 . S
C1938 C1939 1.385 . S
C1938 C1940 1.478 . S
C1939 H1933 0.930 . S
C1939 C1935 1.400 . S
C1939 C1938 1.385 . S
C1940 C1938 1.478 . S
C1940 C1942 1.381 . S
C1940 C1946 1.383 . S
C1941 C1937 1.495 . S
C1941 H1947 0.959 . S
C1941 H1948 0.961 . S
C1941 H1949 0.960 . S
C1942 C1940 1.381 . S
C1942 C1943 1.394 . S
C1942 H1950 0.930 . S
C1943 C1942 1.394 . S
C1943 C1944 1.383 . S
C1943 H1951 0.929 . S
C1944 C1943 1.383 . S
C1944 C1945 1.377 . S
C1945 H1929 0.930 . S
C1945 C1944 1.377 . S
C1945 C1946 1.379 . S
C1946 H1930 0.931 . S
C1946 C1940 1.383 . S
C1946 C1945 1.379 . S
H1947 C1941 0.959 . S
H1948 C1941 0.961 . S
H1949 C1941 0.960 . S
H1950 C1942 0.930 . S
H1951 C1943 0.929 . S
H1952 C1960 0.929 . S
H1953 C1962 0.930 . S
H1954 C1964 0.930 . S
H1955 C1967 0.929 . S
H1956 C1970 0.930 . S
H1957 C1972 0.960 . S
H1958 C1972 0.960 . S
H1959 C1972 0.960 . S
C1960 H1952 0.929 . S
C1960 C1961 1.377 . S
C1960 C1962 1.384 . S
C1961 C1960 1.377 . S
C1961 C1967 1.390 1_565 S
C1962 H1953 0.930 . S
C1962 C1960 1.384 . S
C1962 C1963 1.372 1_565 S
C1963 C1962 1.372 1_545 S
C1963 C1964 1.400 . S
C1963 C1968 1.490 . S
C1964 H1954 0.930 . S
C1964 C1963 1.400 . S
C1964 C1967 1.386 . S
H1965 C1981 0.930 . S
H1966 C1982 0.931 . S
C1967 H1955 0.929 . S
C1967 C1961 1.390 1_545 S
C1967 C1964 1.386 . S
C1968 C1963 1.490 . S
C1968 C1970 1.395 . S
C1968 C1971 1.398 1_545 S
H1969 C1975 0.932 . S
C1970 H1956 0.930 . S
C1970 C1968 1.395 . S
C1970 C1973 1.403 . S
C1971 C1968 1.398 1_565 S
C1971 C1972 1.533 . S
C1971 C1975 1.395 1_565 S
C1972 H1957 0.960 . S
C1972 H1958 0.960 . S
C1972 H1959 0.960 . S
C1972 C1971 1.533 . S
C1973 C1970 1.403 . S
C1973 C1974 1.392 . S
C1973 C1977 1.495 . S
C1974 C1973 1.392 . S
C1974 C1975 1.385 . S
C1974 C1976 1.478 . S
C1975 H1969 0.932 . S
C1975 C1971 1.395 1_545 S
C1975 C1974 1.385 . S
C1976 C1974 1.478 . S
C1976 C1978 1.381 . S
C1976 C1982 1.383 . S
C1977 C1973 1.495 . S
C1977 H1983 0.959 . S
C1977 H1984 0.961 . S
C1977 H1985 0.960 . S
C1978 C1976 1.381 . S
C1978 C1979 1.394 . S
C1978 H1986 0.930 1_545 S
C1979 C1978 1.394 . S
C1979 C1980 1.383 . S
C1979 H1987 0.929 . S
C1980 C1979 1.383 . S
C1980 C1981 1.377 . S
C1981 H1965 0.930 . S
C1981 C1980 1.377 . S
C1981 C1982 1.379 . S
C1982 H1966 0.931 . S
C1982 C1976 1.383 . S
C1982 C1981 1.379 . S
H1983 C1977 0.959 . S
H1984 C1977 0.961 . S
H1985 C1977 0.960 . S
H1986 C1978 0.930 1_565 S
H1987 C1979 0.929 . S
H1988 C1996 0.929 . S
H1989 C1998 0.930 . S
H1990 C2000 0.930 . S
H1991 C2003 0.929 . S
H1992 C2006 0.930 . S
H1993 C2008 0.960 . S
H1994 C2008 0.960 . S
H1995 C2008 0.960 . S
C1996 H1988 0.929 . S
C1996 C1997 1.377 . S
C1996 C1998 1.384 . S
C1997 C1996 1.377 . S
C1997 C2003 1.390 . S
C1998 H1989 0.930 . S
C1998 C1996 1.384 . S
C1998 C1999 1.372 . S
C1999 C1998 1.372 . S
C1999 C2000 1.400 . S
C1999 C2004 1.490 . S
C2000 H1990 0.930 . S
C2000 C1999 1.400 . S
C2000 C2003 1.386 . S
H2001 C2017 0.930 . S
H2002 C2018 0.931 . S
C2003 H1991 0.929 . S
C2003 C1997 1.390 . S
C2003 C2000 1.386 . S
C2004 C1999 1.490 . S
C2004 C2006 1.395 . S
C2004 C2007 1.403 . S
H2005 C2011 0.930 . S
C2006 H1992 0.930 . S
C2006 C2004 1.395 . S
C2006 C2009 1.403 . S
C2007 C2004 1.403 . S
C2007 C2008 1.524 . S
C2007 C2011 1.400 . S
C2008 H1993 0.960 . S
C2008 H1994 0.960 . S
C2008 H1995 0.960 . S
C2008 C2007 1.524 . S
C2009 C2006 1.403 . S
C2009 C2010 1.392 . S
C2009 C2013 1.495 . S
C2010 C2009 1.392 . S
C2010 C2011 1.385 . S
C2010 C2012 1.478 . S
C2011 H2005 0.930 . S
C2011 C2007 1.400 . S
C2011 C2010 1.385 . S
C2012 C2010 1.478 . S
C2012 C2014 1.381 . S
C2012 C2018 1.383 . S
C2013 C2009 1.495 . S
C2013 H2019 0.959 . S
C2013 H2020 0.961 . S
C2013 H2021 0.960 . S
C2014 C2012 1.381 . S
C2014 C2015 1.394 . S
C2014 H2022 0.930 . S
C2015 C2014 1.394 . S
C2015 C2016 1.383 . S
C2015 H2023 0.929 . S
C2016 C2015 1.383 . S
C2016 C2017 1.377 . S
C2017 H2001 0.930 . S
C2017 C2016 1.377 . S
C2017 C2018 1.379 . S
C2018 H2002 0.931 . S
C2018 C2012 1.383 . S
C2018 C2017 1.379 . S
H2019 C2013 0.959 . S
H2020 C2013 0.961 . S
H2021 C2013 0.960 . S
H2022 C2014 0.930 . S
H2023 C2015 0.929 . S
H2024 C2032 0.929 . S
H2025 C2034 0.930 . S
H2026 C2036 0.930 . S
H2027 C2039 0.929 . S
H2028 C2042 0.930 . S
H2029 C2044 0.960 1_565 S
H2030 C2044 0.960 1_565 S
H2031 C2044 0.960 . S
C2032 H2024 0.929 . S
C2032 C2033 1.377 . S
C2032 C2034 1.384 . S
C2033 C2032 1.377 . S
C2033 C2039 1.390 . S
C2034 H2025 0.930 . S
C2034 C2032 1.384 . S
C2034 C2035 1.372 . S
C2035 C2034 1.372 . S
C2035 C2036 1.400 . S
C2035 C2040 1.490 . S
C2036 H2026 0.930 . S
C2036 C2035 1.400 . S
C2036 C2039 1.386 . S
H2037 C2053 0.930 . S
H2038 C2054 0.931 . S
C2039 H2027 0.929 . S
C2039 C2033 1.390 . S
C2039 C2036 1.386 . S
C2040 C2035 1.490 . S
C2040 C2042 1.395 . S
C2040 C2043 1.403 . S
H2041 C2047 0.930 . S
C2042 H2028 0.930 . S
C2042 C2040 1.395 . S
C2042 C2045 1.403 . S
C2043 C2040 1.403 . S
C2043 C2044 1.524 . S
C2043 C2047 1.400 . S
C2044 H2029 0.960 1_545 S
C2044 H2030 0.960 1_545 S
C2044 H2031 0.960 . S
C2044 C2043 1.524 . S
C2045 C2042 1.403 . S
C2045 C2046 1.392 . S
C2045 C2049 1.495 . S
C2046 C2045 1.392 . S
C2046 C2047 1.385 . S
C2046 C2048 1.478 . S
C2047 H2041 0.930 . S
C2047 C2043 1.400 . S
C2047 C2046 1.385 . S
C2048 C2046 1.478 . S
C2048 C2050 1.381 . S
C2048 C2054 1.383 . S
C2049 C2045 1.495 . S
C2049 H2055 0.959 . S
C2049 H2056 0.961 . S
C2049 H2057 0.960 . S
C2050 C2048 1.381 . S
C2050 C2051 1.394 . S
C2050 H2058 0.930 . S
C2051 C2050 1.394 . S
C2051 C2052 1.383 . S
C2051 H2059 0.929 . S
C2052 C2051 1.383 . S
C2052 C2053 1.377 . S
C2053 H2037 0.930 . S
C2053 C2052 1.377 . S
C2053 C2054 1.379 . S
C2054 H2038 0.931 . S
C2054 C2048 1.383 . S
C2054 C2053 1.379 . S
H2055 C2049 0.959 . S
H2056 C2049 0.961 . S
H2057 C2049 0.960 . S
H2058 C2050 0.930 . S
H2059 C2051 0.929 . S
H2060 C2068 0.929 . S
H2061 C2070 0.930 . S
H2062 C2072 0.930 . S
H2063 C2075 0.929 . S
H2064 C2078 0.930 . S
H2065 C2080 0.960 . S
H2066 C2080 0.960 . S
H2067 C2080 0.960 . S
C2068 H2060 0.929 . S
C2068 C2069 1.377 . S
C2068 C2070 1.384 . S
C2069 C2068 1.377 . S
C2069 C2075 1.390 . S
C2070 H2061 0.930 . S
C2070 C2068 1.384 . S
C2070 C2071 1.372 . S
C2071 C2070 1.372 . S
C2071 C2072 1.400 . S
C2071 C2076 1.490 . S
C2072 H2062 0.930 . S
C2072 C2071 1.400 . S
C2072 C2075 1.386 . S
H2073 C2089 0.930 . S
H2074 C2090 0.931 . S
C2075 H2063 0.929 . S
C2075 C2069 1.390 . S
C2075 C2072 1.386 . S
C2076 C2071 1.490 . S
C2076 C2078 1.395 . S
C2076 C2079 1.403 . S
H2077 C2083 0.930 . S
C2078 H2064 0.930 . S
C2078 C2076 1.395 . S
C2078 C2081 1.403 . S
C2079 C2076 1.403 . S
C2079 C2080 1.524 . S
C2079 C2083 1.400 . S
C2080 H2065 0.960 . S
C2080 H2066 0.960 . S
C2080 H2067 0.960 . S
C2080 C2079 1.524 . S
C2081 C2078 1.403 . S
C2081 C2082 1.392 . S
C2081 C2085 1.495 . S
C2082 C2081 1.392 . S
C2082 C2083 1.385 . S
C2082 C2084 1.478 . S
C2083 H2077 0.930 . S
C2083 C2079 1.400 . S
C2083 C2082 1.385 . S
C2084 C2082 1.478 . S
C2084 C2086 1.381 . S
C2084 C2090 1.383 . S
C2085 C2081 1.495 . S
C2085 H2091 0.959 . S
C2085 H2092 0.961 . S
C2085 H2093 0.960 . S
C2086 C2084 1.381 . S
C2086 C2087 1.394 . S
C2086 H2094 0.930 . S
C2087 C2086 1.394 . S
C2087 C2088 1.383 . S
C2087 H2095 0.929 . S
C2088 C2087 1.383 . S
C2088 C2089 1.377 . S
C2089 H2073 0.930 . S
C2089 C2088 1.377 . S
C2089 C2090 1.379 . S
C2090 H2074 0.931 . S
C2090 C2084 1.383 . S
C2090 C2089 1.379 . S
H2091 C2085 0.959 . S
H2092 C2085 0.961 . S
H2093 C2085 0.960 . S
H2094 C2086 0.930 . S
H2095 C2087 0.929 . S
H2096 C2104 0.929 . S
H2097 C2106 0.930 . S
H2098 C2108 0.930 . S
H2099 C2111 0.929 . S
H2100 C2114 0.930 . S
H2101 C2116 0.960 . S
H2102 C2116 0.960 1_554 S
H2103 C2116 0.960 . S
C2104 H2096 0.929 . S
C2104 C2105 1.377 . S
C2104 C2106 1.384 . S
C2105 C2104 1.377 . S
C2105 C2111 1.390 1_554 S
C2106 H2097 0.930 . S
C2106 C2104 1.384 . S
C2106 C2107 1.372 . S
C2107 C2106 1.372 . S
C2107 C2108 1.400 1_554 S
C2107 C2112 1.490 . S
C2108 H2098 0.930 . S
C2108 C2107 1.400 1_556 S
C2108 C2111 1.386 . S
H2109 C2125 0.930 . S
H2110 C2126 0.931 . S
C2111 H2099 0.929 . S
C2111 C2105 1.390 1_556 S
C2111 C2108 1.386 . S
C2112 C2107 1.490 . S
C2112 C2114 1.395 . S
C2112 C2115 1.384 1_554 S
H2113 C2119 0.929 1_556 S
C2114 H2100 0.930 . S
C2114 C2112 1.395 . S
C2114 C2117 1.403 . S
C2115 C2112 1.384 1_556 S
C2115 C2116 1.543 . S
C2115 C2119 1.400 1_556 S
C2116 H2101 0.960 . S
C2116 H2102 0.960 1_556 S
C2116 H2103 0.960 . S
C2116 C2115 1.543 . S
C2117 C2114 1.403 . S
C2117 C2118 1.392 . S
C2117 C2121 1.495 . S
C2118 C2117 1.392 . S
C2118 C2119 1.386 . S
C2118 C2120 1.478 . S
C2119 H2113 0.929 1_554 S
C2119 C2115 1.400 1_554 S
C2119 C2118 1.386 . S
C2120 C2118 1.478 . S
C2120 C2122 1.381 . S
C2120 C2126 1.383 1_554 S
C2121 C2117 1.495 . S
C2121 H2127 0.959 . S
C2121 H2128 0.961 . S
C2121 H2129 0.960 . S
C2122 C2120 1.381 . S
C2122 C2123 1.394 . S
C2122 H2130 0.930 . S
C2123 C2122 1.394 . S
C2123 C2124 1.383 . S
C2123 H2131 0.929 . S
C2124 C2123 1.383 . S
C2124 C2125 1.377 1_554 S
C2125 H2109 0.930 . S
C2125 C2124 1.377 1_556 S
C2125 C2126 1.379 . S
C2126 H2110 0.931 . S
C2126 C2120 1.383 1_556 S
C2126 C2125 1.379 . S
H2127 C2121 0.959 . S
H2128 C2121 0.961 . S
H2129 C2121 0.960 . S
H2130 C2122 0.930 . S
H2131 C2123 0.929 . S
H2132 C2140 0.929 . S
H2133 C2142 0.930 . S
H2134 C2144 0.930 . S
H2135 C2147 0.929 . S
H2136 C2150 0.930 . S
H2137 C2152 0.960 . S
H2138 C2152 0.960 . S
H2139 C2152 0.960 . S
C2140 H2132 0.929 . S
C2140 C2141 1.377 . S
C2140 C2142 1.384 . S
C2141 C2140 1.377 . S
C2141 C2147 1.390 . S
C2142 H2133 0.930 . S
C2142 C2140 1.384 . S
C2142 C2143 1.372 . S
C2143 C2142 1.372 . S
C2143 C2144 1.400 . S
C2143 C2148 1.490 . S
C2144 H2134 0.930 . S
C2144 C2143 1.400 . S
C2144 C2147 1.386 . S
H2145 C2161 0.930 1_556 S
H2146 C2162 0.931 1_556 S
C2147 H2135 0.929 . S
C2147 C2141 1.390 . S
C2147 C2144 1.386 . S
C2148 C2143 1.490 . S
C2148 C2150 1.395 . S
C2148 C2151 1.403 . S
H2149 C2155 0.930 . S
C2150 H2136 0.930 . S
C2150 C2148 1.395 . S
C2150 C2153 1.403 . S
C2151 C2148 1.403 . S
C2151 C2152 1.524 . S
C2151 C2155 1.400 . S
C2152 H2137 0.960 . S
C2152 H2138 0.960 . S
C2152 H2139 0.960 . S
C2152 C2151 1.524 . S
C2153 C2150 1.403 . S
C2153 C2154 1.392 . S
C2153 C2157 1.495 . S
C2154 C2153 1.392 . S
C2154 C2155 1.385 . S
C2154 C2156 1.478 . S
C2155 H2149 0.930 . S
C2155 C2151 1.400 . S
C2155 C2154 1.385 . S
C2156 C2154 1.478 . S
C2156 C2158 1.381 . S
C2156 C2162 1.383 . S
C2157 C2153 1.495 . S
C2157 H2163 0.959 . S
C2157 H2164 0.961 . S
C2157 H2165 0.960 . S
C2158 C2156 1.381 . S
C2158 C2159 1.394 . S
C2158 H2166 0.930 . S
C2159 C2158 1.394 . S
C2159 C2160 1.383 . S
C2159 H2167 0.929 . S
C2160 C2159 1.383 . S
C2160 C2161 1.377 . S
C2161 H2145 0.930 1_554 S
C2161 C2160 1.377 . S
C2161 C2162 1.379 . S
C2162 H2146 0.931 1_554 S
C2162 C2156 1.383 . S
C2162 C2161 1.379 . S
H2163 C2157 0.959 . S
H2164 C2157 0.961 . S
H2165 C2157 0.960 . S
H2166 C2158 0.930 . S
H2167 C2159 0.929 . S
H2168 C2176 0.929 . S
H2169 C2178 0.930 . S
H2170 C2180 0.930 . S
H2171 C2183 0.929 . S
H2172 C2186 0.930 . S
H2173 C2188 0.960 . S
H2174 C2188 0.960 . S
H2175 C2188 0.960 . S
C2176 H2168 0.929 . S
C2176 C2177 1.377 . S
C2176 C2178 1.384 . S
C2177 C2176 1.377 . S
C2177 C2183 1.390 . S
C2178 H2169 0.930 . S
C2178 C2176 1.384 . S
C2178 C2179 1.372 . S
C2179 C2178 1.372 . S
C2179 C2180 1.400 . S
C2179 C2184 1.490 . S
C2180 H2170 0.930 . S
C2180 C2179 1.400 . S
C2180 C2183 1.386 . S
H2181 C2197 0.930 . S
H2182 C2198 0.931 . S
C2183 H2171 0.929 . S
C2183 C2177 1.390 . S
C2183 C2180 1.386 . S
C2184 C2179 1.490 . S
C2184 C2186 1.395 . S
C2184 C2187 1.403 . S
H2185 C2191 0.930 . S
C2186 H2172 0.930 . S
C2186 C2184 1.395 . S
C2186 C2189 1.403 . S
C2187 C2184 1.403 . S
C2187 C2188 1.524 . S
C2187 C2191 1.400 . S
C2188 H2173 0.960 . S
C2188 H2174 0.960 . S
C2188 H2175 0.960 . S
C2188 C2187 1.524 . S
C2189 C2186 1.403 . S
C2189 C2190 1.392 . S
C2189 C2193 1.495 . S
C2190 C2189 1.392 . S
C2190 C2191 1.385 . S
C2190 C2192 1.478 . S
C2191 H2185 0.930 . S
C2191 C2187 1.400 . S
C2191 C2190 1.385 . S
C2192 C2190 1.478 . S
C2192 C2194 1.381 . S
C2192 C2198 1.383 . S
C2193 C2189 1.495 . S
C2193 H2199 0.959 . S
C2193 H2200 0.961 . S
C2193 H2201 0.960 . S
C2194 C2192 1.381 . S
C2194 C2195 1.394 . S
C2194 H2202 0.930 . S
C2195 C2194 1.394 . S
C2195 C2196 1.383 . S
C2195 H2203 0.929 . S
C2196 C2195 1.383 . S
C2196 C2197 1.377 . S
C2197 H2181 0.930 . S
C2197 C2196 1.377 . S
C2197 C2198 1.379 . S
C2198 H2182 0.931 . S
C2198 C2192 1.383 . S
C2198 C2197 1.379 . S
H2199 C2193 0.959 . S
H2200 C2193 0.961 . S
H2201 C2193 0.960 . S
H2202 C2194 0.930 . S
H2203 C2195 0.929 . S
H2204 C2212 0.929 . S
H2205 C2214 0.930 . S
H2206 C2216 0.930 . S
H2207 C2219 0.929 . S
H2208 C2222 0.930 . S
H2209 C2224 0.960 . S
H2210 C2224 0.960 . S
H2211 C2224 0.960 . S
C2212 H2204 0.929 . S
C2212 C2213 1.377 . S
C2212 C2214 1.384 . S
C2213 C2212 1.377 . S
C2213 C2219 1.390 . S
C2214 H2205 0.930 . S
C2214 C2212 1.384 . S
C2214 C2215 1.372 . S
C2215 C2214 1.372 . S
C2215 C2216 1.400 . S
C2215 C2220 1.490 . S
C2216 H2206 0.930 . S
C2216 C2215 1.400 . S
C2216 C2219 1.386 . S
H2217 C2233 0.930 . S
H2218 C2234 0.931 . S
C2219 H2207 0.929 . S
C2219 C2213 1.390 . S
C2219 C2216 1.386 . S
C2220 C2215 1.490 . S
C2220 C2222 1.395 . S
C2220 C2223 1.403 . S
H2221 C2227 0.930 . S
C2222 H2208 0.930 . S
C2222 C2220 1.395 . S
C2222 C2225 1.403 . S
C2223 C2220 1.403 . S
C2223 C2224 1.524 . S
C2223 C2227 1.400 . S
C2224 H2209 0.960 . S
C2224 H2210 0.960 . S
C2224 H2211 0.960 . S
C2224 C2223 1.524 . S
C2225 C2222 1.403 . S
C2225 C2226 1.392 . S
C2225 C2229 1.495 . S
C2226 C2225 1.392 . S
C2226 C2227 1.385 . S
C2226 C2228 1.478 . S
C2227 H2221 0.930 . S
C2227 C2223 1.400 . S
C2227 C2226 1.385 . S
C2228 C2226 1.478 . S
C2228 C2230 1.381 . S
C2228 C2234 1.383 . S
C2229 C2225 1.495 . S
C2229 H2235 0.959 . S
C2229 H2236 0.961 . S
C2229 H2237 0.960 . S
C2230 C2228 1.381 . S
C2230 C2231 1.394 . S
C2230 H2238 0.930 . S
C2231 C2230 1.394 . S
C2231 C2232 1.383 . S
C2231 H2239 0.929 . S
C2232 C2231 1.383 . S
C2232 C2233 1.377 . S
C2233 H2217 0.930 . S
C2233 C2232 1.377 . S
C2233 C2234 1.379 . S
C2234 H2218 0.931 . S
C2234 C2228 1.383 . S
C2234 C2233 1.379 . S
H2235 C2229 0.959 . S
H2236 C2229 0.961 . S
H2237 C2229 0.960 . S
H2238 C2230 0.930 . S
H2239 C2231 0.929 . S
H2240 C2248 0.929 . S
H2241 C2250 0.930 . S
H2242 C2252 0.930 . S
H2243 C2255 0.929 . S
H2244 C2258 0.930 . S
H2245 C2260 0.960 . S
H2246 C2260 0.960 . S
H2247 C2260 0.960 . S
C2248 H2240 0.929 . S
C2248 C2249 1.377 . S
C2248 C2250 1.384 . S
C2249 C2248 1.377 . S
C2249 C2255 1.390 . S
C2250 H2241 0.930 . S
C2250 C2248 1.384 . S
C2250 C2251 1.372 . S
C2251 C2250 1.372 . S
C2251 C2252 1.400 . S
C2251 C2256 1.490 . S
C2252 H2242 0.930 . S
C2252 C2251 1.400 . S
C2252 C2255 1.386 . S
H2253 C2269 0.930 . S
H2254 C2270 0.931 . S
C2255 H2243 0.929 . S
C2255 C2249 1.390 . S
C2255 C2252 1.386 . S
C2256 C2251 1.490 . S
C2256 C2258 1.395 . S
C2256 C2259 1.403 . S
H2257 C2263 0.930 . S
C2258 H2244 0.930 . S
C2258 C2256 1.395 . S
C2258 C2261 1.403 . S
C2259 C2256 1.403 . S
C2259 C2260 1.524 . S
C2259 C2263 1.400 . S
C2260 H2245 0.960 . S
C2260 H2246 0.960 . S
C2260 H2247 0.960 . S
C2260 C2259 1.524 . S
C2261 C2258 1.403 . S
C2261 C2262 1.392 . S
C2261 C2265 1.495 . S
C2262 C2261 1.392 . S
C2262 C2263 1.385 . S
C2262 C2264 1.478 . S
C2263 H2257 0.930 . S
C2263 C2259 1.400 . S
C2263 C2262 1.385 . S
C2264 C2262 1.478 . S
C2264 C2266 1.381 . S
C2264 C2270 1.383 . S
C2265 C2261 1.495 . S
C2265 H2271 0.959 . S
C2265 H2272 0.961 . S
C2265 H2273 0.960 . S
C2266 C2264 1.381 . S
C2266 C2267 1.394 . S
C2266 H2274 0.930 . S
C2267 C2266 1.394 . S
C2267 C2268 1.383 . S
C2267 H2275 0.929 . S
C2268 C2267 1.383 . S
C2268 C2269 1.377 . S
C2269 H2253 0.930 . S
C2269 C2268 1.377 . S
C2269 C2270 1.379 . S
C2270 H2254 0.931 . S
C2270 C2264 1.383 . S
C2270 C2269 1.379 . S
H2271 C2265 0.959 . S
H2272 C2265 0.961 . S
H2273 C2265 0.960 . S
H2274 C2266 0.930 . S
H2275 C2267 0.929 . S
H2276 C2284 0.929 . S
H2277 C2286 0.930 . S
H2278 C2288 0.930 . S
H2279 C2291 0.929 . S
H2280 C2294 0.930 . S
H2281 C2296 0.960 . S
H2282 C2296 0.960 . S
H2283 C2296 0.960 . S
C2284 H2276 0.929 . S
C2284 C2285 1.377 . S
C2284 C2286 1.384 . S
C2285 C2284 1.377 . S
C2285 C2291 1.390 . S
C2286 H2277 0.930 . S
C2286 C2284 1.384 . S
C2286 C2287 1.372 . S
C2287 C2286 1.372 . S
C2287 C2288 1.400 . S
C2287 C2292 1.490 . S
C2288 H2278 0.930 . S
C2288 C2287 1.400 . S
C2288 C2291 1.386 . S
H2289 C2305 0.930 . S
H2290 C2306 0.931 . S
C2291 H2279 0.929 . S
C2291 C2285 1.390 . S
C2291 C2288 1.386 . S
C2292 C2287 1.490 . S
C2292 C2294 1.395 . S
C2292 C2295 1.403 . S
H2293 C2299 0.930 . S
C2294 H2280 0.930 . S
C2294 C2292 1.395 . S
C2294 C2297 1.403 . S
C2295 C2292 1.403 . S
C2295 C2296 1.524 . S
C2295 C2299 1.400 . S
C2296 H2281 0.960 . S
C2296 H2282 0.960 . S
C2296 H2283 0.960 . S
C2296 C2295 1.524 . S
C2297 C2294 1.403 . S
C2297 C2298 1.392 . S
C2297 C2301 1.495 . S
C2298 C2297 1.392 . S
C2298 C2299 1.385 . S
C2298 C2300 1.478 . S
C2299 H2293 0.930 . S
C2299 C2295 1.400 . S
C2299 C2298 1.385 . S
C2300 C2298 1.478 . S
C2300 C2302 1.381 . S
C2300 C2306 1.383 . S
C2301 C2297 1.495 . S
C2301 H2307 0.959 . S
C2301 H2308 0.961 . S
C2301 H2309 0.960 . S
C2302 C2300 1.381 . S
C2302 C2303 1.394 . S
C2302 H2310 0.930 . S
C2303 C2302 1.394 . S
C2303 C2304 1.383 . S
C2303 H2311 0.929 . S
C2304 C2303 1.383 . S
C2304 C2305 1.377 1_565 S
C2305 H2289 0.930 . S
C2305 C2304 1.377 1_545 S
C2305 C2306 1.379 1_545 S
C2306 H2290 0.931 . S
C2306 C2300 1.383 . S
C2306 C2305 1.379 1_565 S
H2307 C2301 0.959 . S
H2308 C2301 0.961 . S
H2309 C2301 0.960 . S
H2310 C2302 0.930 . S
H2311 C2303 0.929 . S
H2312 C2320 0.929 . S
H2313 C2322 0.930 . S
H2314 C2324 0.930 . S
H2315 C2327 0.929 . S
H2316 C2330 0.930 . S
H2317 C2332 0.960 . S
H2318 C2332 0.960 . S
H2319 C2332 0.960 . S
C2320 H2312 0.929 . S
C2320 C2321 1.377 . S
C2320 C2322 1.384 . S
C2321 C2320 1.377 . S
C2321 C2327 1.390 . S
C2322 H2313 0.930 . S
C2322 C2320 1.384 . S
C2322 C2323 1.372 . S
C2323 C2322 1.372 . S
C2323 C2324 1.400 . S
C2323 C2328 1.490 . S
C2324 H2314 0.930 . S
C2324 C2323 1.400 . S
C2324 C2327 1.386 . S
H2325 C2341 0.930 . S
H2326 C2342 0.931 . S
C2327 H2315 0.929 . S
C2327 C2321 1.390 . S
C2327 C2324 1.386 . S
C2328 C2323 1.490 . S
C2328 C2330 1.395 . S
C2328 C2331 1.403 . S
H2329 C2335 0.930 . S
C2330 H2316 0.930 . S
C2330 C2328 1.395 . S
C2330 C2333 1.403 . S
C2331 C2328 1.403 . S
C2331 C2332 1.524 . S
C2331 C2335 1.400 . S
C2332 H2317 0.960 . S
C2332 H2318 0.960 . S
C2332 H2319 0.960 . S
C2332 C2331 1.524 . S
C2333 C2330 1.403 . S
C2333 C2334 1.392 . S
C2333 C2337 1.495 . S
C2334 C2333 1.392 . S
C2334 C2335 1.385 . S
C2334 C2336 1.478 . S
C2335 H2329 0.930 . S
C2335 C2331 1.400 . S
C2335 C2334 1.385 . S
C2336 C2334 1.478 . S
C2336 C2338 1.381 . S
C2336 C2342 1.383 . S
C2337 C2333 1.495 . S
C2337 H2343 0.959 . S
C2337 H2344 0.961 . S
C2337 H2345 0.960 . S
C2338 C2336 1.381 . S
C2338 C2339 1.394 . S
C2338 H2346 0.930 . S
C2339 C2338 1.394 . S
C2339 C2340 1.383 . S
C2339 H2347 0.929 . S
C2340 C2339 1.383 . S
C2340 C2341 1.377 . S
C2341 H2325 0.930 . S
C2341 C2340 1.377 . S
C2341 C2342 1.379 . S
C2342 H2326 0.931 . S
C2342 C2336 1.383 . S
C2342 C2341 1.379 . S
H2343 C2337 0.959 . S
H2344 C2337 0.961 . S
H2345 C2337 0.960 . S
H2346 C2338 0.930 . S
H2347 C2339 0.929 . S
H2348 C2356 0.929 . S
H2349 C2358 0.930 . S
H2350 C2360 0.930 . S
H2351 C2363 0.929 . S
H2352 C2366 0.930 . S
H2353 C2368 0.960 . S
H2354 C2368 0.960 . S
H2355 C2368 0.960 . S
C2356 H2348 0.929 . S
C2356 C2357 1.377 . S
C2356 C2358 1.384 . S
C2357 C2356 1.377 . S
C2357 C2363 1.390 . S
C2358 H2349 0.930 . S
C2358 C2356 1.384 . S
C2358 C2359 1.372 . S
C2359 C2358 1.372 . S
C2359 C2360 1.400 . S
C2359 C2364 1.490 . S
C2360 H2350 0.930 . S
C2360 C2359 1.400 . S
C2360 C2363 1.386 . S
H2361 C2377 0.930 . S
H2362 C2378 0.931 . S
C2363 H2351 0.929 . S
C2363 C2357 1.390 . S
C2363 C2360 1.386 . S
C2364 C2359 1.490 . S
C2364 C2366 1.395 . S
C2364 C2367 1.403 . S
H2365 C2371 0.930 . S
C2366 H2352 0.930 . S
C2366 C2364 1.395 . S
C2366 C2369 1.403 . S
C2367 C2364 1.403 . S
C2367 C2368 1.524 . S
C2367 C2371 1.400 . S
C2368 H2353 0.960 . S
C2368 H2354 0.960 . S
C2368 H2355 0.960 . S
C2368 C2367 1.524 . S
C2369 C2366 1.403 . S
C2369 C2370 1.392 . S
C2369 C2373 1.495 . S
C2370 C2369 1.392 . S
C2370 C2371 1.385 . S
C2370 C2372 1.478 . S
C2371 H2365 0.930 . S
C2371 C2367 1.400 . S
C2371 C2370 1.385 . S
C2372 C2370 1.478 . S
C2372 C2374 1.381 . S
C2372 C2378 1.383 . S
C2373 C2369 1.495 . S
C2373 H2379 0.959 . S
C2373 H2380 0.961 . S
C2373 H2381 0.960 . S
C2374 C2372 1.381 . S
C2374 C2375 1.394 . S
C2374 H2382 0.930 . S
C2375 C2374 1.394 . S
C2375 C2376 1.383 . S
C2375 H2383 0.929 . S
C2376 C2375 1.383 . S
C2376 C2377 1.377 . S
C2377 H2361 0.930 . S
C2377 C2376 1.377 . S
C2377 C2378 1.379 . S
C2378 H2362 0.931 . S
C2378 C2372 1.383 . S
C2378 C2377 1.379 . S
H2379 C2373 0.959 . S
H2380 C2373 0.961 . S
H2381 C2373 0.960 . S
H2382 C2374 0.930 . S
H2383 C2375 0.929 . S
H2384 C2392 0.929 . S
H2385 C2394 0.930 . S
H2386 C2396 0.930 . S
H2387 C2399 0.929 . S
H2388 C2402 0.930 . S
H2389 C2404 0.960 . S
H2390 C2404 0.960 . S
H2391 C2404 0.960 . S
C2392 H2384 0.929 . S
C2392 C2393 1.377 . S
C2392 C2394 1.384 . S
C2393 C2392 1.377 . S
C2393 C2399 1.390 . S
C2394 H2385 0.930 . S
C2394 C2392 1.384 . S
C2394 C2395 1.372 . S
C2395 C2394 1.372 . S
C2395 C2396 1.400 . S
C2395 C2400 1.490 . S
C2396 H2386 0.930 . S
C2396 C2395 1.400 . S
C2396 C2399 1.386 . S
H2397 C2413 0.930 . S
H2398 C2414 0.931 . S
C2399 H2387 0.929 . S
C2399 C2393 1.390 . S
C2399 C2396 1.386 . S
C2400 C2395 1.490 . S
C2400 C2402 1.395 . S
C2400 C2403 1.403 . S
H2401 C2407 0.930 . S
C2402 H2388 0.930 . S
C2402 C2400 1.395 . S
C2402 C2405 1.403 . S
C2403 C2400 1.403 . S
C2403 C2404 1.524 . S
C2403 C2407 1.400 . S
C2404 H2389 0.960 . S
C2404 H2390 0.960 . S
C2404 H2391 0.960 . S
C2404 C2403 1.524 . S
C2405 C2402 1.403 . S
C2405 C2406 1.392 . S
C2405 C2409 1.495 . S
C2406 C2405 1.392 . S
C2406 C2407 1.385 . S
C2406 C2408 1.478 . S
C2407 H2401 0.930 . S
C2407 C2403 1.400 . S
C2407 C2406 1.385 . S
C2408 C2406 1.478 . S
C2408 C2410 1.381 . S
C2408 C2414 1.383 . S
C2409 C2405 1.495 . S
C2409 H2415 0.959 . S
C2409 H2416 0.961 . S
C2409 H2417 0.960 . S
C2410 C2408 1.381 . S
C2410 C2411 1.394 . S
C2410 H2418 0.930 . S
C2411 C2410 1.394 . S
C2411 C2412 1.383 . S
C2411 H2419 0.929 . S
C2412 C2411 1.383 . S
C2412 C2413 1.377 . S
C2413 H2397 0.930 . S
C2413 C2412 1.377 . S
C2413 C2414 1.379 . S
C2414 H2398 0.931 . S
C2414 C2408 1.383 . S
C2414 C2413 1.379 . S
H2415 C2409 0.959 . S
H2416 C2409 0.961 . S
H2417 C2409 0.960 . S
H2418 C2410 0.930 . S
H2419 C2411 0.929 . S
H2420 C2428 0.929 . S
H2421 C2430 0.930 . S
H2422 C2432 0.930 . S
H2423 C2435 0.929 . S
H2424 C2438 0.930 . S
H2425 C2440 0.960 . S
H2426 C2440 0.960 . S
H2427 C2440 0.960 . S
C2428 H2420 0.929 . S
C2428 C2429 1.377 . S
C2428 C2430 1.384 . S
C2429 C2428 1.377 . S
C2429 C2435 1.390 . S
C2430 H2421 0.930 . S
C2430 C2428 1.384 . S
C2430 C2431 1.372 . S
C2431 C2430 1.372 . S
C2431 C2432 1.400 . S
C2431 C2436 1.490 . S
C2432 H2422 0.930 . S
C2432 C2431 1.400 . S
C2432 C2435 1.386 . S
H2433 C2449 0.930 . S
H2434 C2450 0.931 . S
C2435 H2423 0.929 . S
C2435 C2429 1.390 . S
C2435 C2432 1.386 . S
C2436 C2431 1.490 . S
C2436 C2438 1.395 . S
C2436 C2439 1.403 . S
H2437 C2443 0.930 . S
C2438 H2424 0.930 . S
C2438 C2436 1.395 . S
C2438 C2441 1.403 . S
C2439 C2436 1.403 . S
C2439 C2440 1.524 . S
C2439 C2443 1.400 . S
C2440 H2425 0.960 . S
C2440 H2426 0.960 . S
C2440 H2427 0.960 . S
C2440 C2439 1.524 . S
C2441 C2438 1.403 . S
C2441 C2442 1.392 . S
C2441 C2445 1.495 . S
C2442 C2441 1.392 . S
C2442 C2443 1.385 . S
C2442 C2444 1.478 . S
C2443 H2437 0.930 . S
C2443 C2439 1.400 . S
C2443 C2442 1.385 . S
C2444 C2442 1.478 . S
C2444 C2446 1.381 . S
C2444 C2450 1.383 . S
C2445 C2441 1.495 . S
C2445 H2451 0.959 . S
C2445 H2452 0.961 . S
C2445 H2453 0.960 . S
C2446 C2444 1.381 . S
C2446 C2447 1.394 . S
C2446 H2454 0.930 . S
C2447 C2446 1.394 . S
C2447 C2448 1.383 . S
C2447 H2455 0.929 . S
C2448 C2447 1.383 . S
C2448 C2449 1.377 . S
C2449 H2433 0.930 . S
C2449 C2448 1.377 . S
C2449 C2450 1.379 . S
C2450 H2434 0.931 . S
C2450 C2444 1.383 . S
C2450 C2449 1.379 . S
H2451 C2445 0.959 . S
H2452 C2445 0.961 . S
H2453 C2445 0.960 . S
H2454 C2446 0.930 . S
H2455 C2447 0.929 . S
H2456 C2464 0.929 . S
H2457 C2466 0.930 . S
H2458 C2468 0.930 . S
H2459 C2471 0.929 . S
H2460 C2474 0.930 . S
H2461 C2476 0.960 . S
H2462 C2476 0.960 . S
H2463 C2476 0.960 . S
C2464 H2456 0.929 . S
C2464 C2465 1.377 . S
C2464 C2466 1.384 . S
C2465 C2464 1.377 . S
C2465 C2471 1.390 . S
C2466 H2457 0.930 . S
C2466 C2464 1.384 . S
C2466 C2467 1.372 . S
C2467 C2466 1.372 . S
C2467 C2468 1.400 . S
C2467 C2472 1.490 . S
C2468 H2458 0.930 . S
C2468 C2467 1.400 . S
C2468 C2471 1.386 . S
H2469 C2485 0.930 . S
H2470 C2486 0.932 . S
C2471 H2459 0.929 . S
C2471 C2465 1.390 . S
C2471 C2468 1.386 . S
C2472 C2467 1.490 . S
C2472 C2474 1.395 1_455 S
C2472 C2475 1.403 . S
H2473 C2479 0.930 . S
C2474 H2460 0.930 . S
C2474 C2472 1.395 1_655 S
C2474 C2477 1.403 . S
C2475 C2472 1.403 . S
C2475 C2476 1.524 . S
C2475 C2479 1.400 . S
C2476 H2461 0.960 . S
C2476 H2462 0.960 . S
C2476 H2463 0.960 . S
C2476 C2475 1.524 . S
C2477 C2474 1.403 . S
C2477 C2478 1.392 1_655 S
C2477 C2481 1.495 . S
C2478 C2477 1.392 1_455 S
C2478 C2479 1.385 . S
C2478 C2480 1.478 . S
C2479 H2473 0.930 . S
C2479 C2475 1.400 . S
C2479 C2478 1.385 . S
C2480 C2478 1.478 . S
C2480 C2482 1.381 . S
C2480 C2486 1.383 . S
C2481 C2477 1.495 . S
C2481 H2487 0.959 . S
C2481 H2488 0.961 . S
C2481 H2489 0.960 . S
C2482 C2480 1.381 . S
C2482 C2483 1.394 . S
C2482 H2490 0.930 . S
C2483 C2482 1.394 . S
C2483 C2484 1.383 . S
C2483 H2491 0.929 . S
C2484 C2483 1.383 . S
C2484 C2485 1.377 1_556 S
C2485 H2469 0.930 . S
C2485 C2484 1.377 1_554 S
C2485 C2486 1.379 1_554 S
C2486 H2470 0.932 . S
C2486 C2480 1.383 . S
C2486 C2485 1.379 1_556 S
H2487 C2481 0.959 . S
H2488 C2481 0.961 . S
H2489 C2481 0.960 . S
H2490 C2482 0.930 . S
H2491 C2483 0.929 . S
H2492 C2500 0.929 . S
H2493 C2502 0.930 . S
H2494 C2504 0.930 . S
H2495 C2507 0.929 . S
H2496 C2510 0.930 . S
H2497 C2512 0.960 . S
H2498 C2512 0.960 . S
H2499 C2512 0.960 . S
C2500 H2492 0.929 . S
C2500 C2501 1.377 . S
C2500 C2502 1.384 . S
C2501 C2500 1.377 . S
C2501 C2507 1.390 . S
C2502 H2493 0.930 . S
C2502 C2500 1.384 . S
C2502 C2503 1.372 . S
C2503 C2502 1.372 . S
C2503 C2504 1.400 . S
C2503 C2508 1.490 . S
C2504 H2494 0.930 . S
C2504 C2503 1.400 . S
C2504 C2507 1.386 . S
H2505 C2521 0.930 . S
H2506 C2522 0.931 . S
C2507 H2495 0.929 . S
C2507 C2501 1.390 . S
C2507 C2504 1.386 . S
C2508 C2503 1.490 . S
C2508 C2510 1.395 . S
C2508 C2511 1.403 . S
H2509 C2515 0.930 . S
C2510 H2496 0.930 . S
C2510 C2508 1.395 . S
C2510 C2513 1.403 . S
C2511 C2508 1.403 . S
C2511 C2512 1.524 . S
C2511 C2515 1.400 . S
C2512 H2497 0.960 . S
C2512 H2498 0.960 . S
C2512 H2499 0.960 . S
C2512 C2511 1.524 . S
C2513 C2510 1.403 . S
C2513 C2514 1.392 . S
C2513 C2517 1.495 . S
C2514 C2513 1.392 . S
C2514 C2515 1.385 . S
C2514 C2516 1.478 . S
C2515 H2509 0.930 . S
C2515 C2511 1.400 . S
C2515 C2514 1.385 . S
C2516 C2514 1.478 . S
C2516 C2518 1.381 . S
C2516 C2522 1.383 . S
C2517 C2513 1.495 . S
C2517 H2523 0.959 . S
C2517 H2524 0.961 . S
C2517 H2525 0.960 . S
C2518 C2516 1.381 . S
C2518 C2519 1.394 . S
C2518 H2526 0.930 . S
C2519 C2518 1.394 . S
C2519 C2520 1.383 . S
C2519 H2527 0.929 . S
C2520 C2519 1.383 . S
C2520 C2521 1.377 . S
C2521 H2505 0.930 . S
C2521 C2520 1.377 . S
C2521 C2522 1.379 . S
C2522 H2506 0.931 . S
C2522 C2516 1.383 . S
C2522 C2521 1.379 . S
H2523 C2517 0.959 . S
H2524 C2517 0.961 . S
H2525 C2517 0.960 . S
H2526 C2518 0.930 . S
H2527 C2519 0.929 . S
H2528 C2536 0.929 . S
H2529 C2538 0.930 . S
H2530 C2540 0.930 . S
H2531 C2543 0.929 . S
H2532 C2546 0.930 . S
H2533 C2548 0.960 . S
H2534 C2548 0.960 . S
H2535 C2548 0.960 . S
C2536 H2528 0.929 . S
C2536 C2537 1.377 . S
C2536 C2538 1.384 . S
C2537 C2536 1.377 . S
C2537 C2543 1.390 . S
C2538 H2529 0.930 . S
C2538 C2536 1.384 . S
C2538 C2539 1.372 . S
C2539 C2538 1.372 . S
C2539 C2540 1.400 . S
C2539 C2544 1.490 . S
C2540 H2530 0.930 . S
C2540 C2539 1.400 . S
C2540 C2543 1.386 . S
H2541 C2557 0.930 . S
H2542 C2558 0.931 . S
C2543 H2531 0.929 . S
C2543 C2537 1.390 . S
C2543 C2540 1.386 . S
C2544 C2539 1.490 . S
C2544 C2546 1.395 . S
C2544 C2547 1.403 . S
H2545 C2551 0.930 . S
C2546 H2532 0.930 . S
C2546 C2544 1.395 . S
C2546 C2549 1.403 . S
C2547 C2544 1.403 . S
C2547 C2548 1.524 . S
C2547 C2551 1.400 . S
C2548 H2533 0.960 . S
C2548 H2534 0.960 . S
C2548 H2535 0.960 . S
C2548 C2547 1.524 . S
C2549 C2546 1.403 . S
C2549 C2550 1.392 . S
C2549 C2553 1.495 . S
C2550 C2549 1.392 . S
C2550 C2551 1.385 . S
C2550 C2552 1.478 . S
C2551 H2545 0.930 . S
C2551 C2547 1.400 . S
C2551 C2550 1.385 . S
C2552 C2550 1.478 . S
C2552 C2554 1.381 . S
C2552 C2558 1.383 . S
C2553 C2549 1.495 . S
C2553 H2559 0.959 . S
C2553 H2560 0.961 . S
C2553 H2561 0.960 . S
C2554 C2552 1.381 . S
C2554 C2555 1.394 . S
C2554 H2562 0.930 . S
C2555 C2554 1.394 . S
C2555 C2556 1.383 . S
C2555 H2563 0.929 . S
C2556 C2555 1.383 . S
C2556 C2557 1.377 . S
C2557 H2541 0.930 . S
C2557 C2556 1.377 . S
C2557 C2558 1.379 . S
C2558 H2542 0.931 . S
C2558 C2552 1.383 . S
C2558 C2557 1.379 . S
H2559 C2553 0.959 . S
H2560 C2553 0.961 . S
H2561 C2553 0.960 . S
H2562 C2554 0.930 . S
H2563 C2555 0.929 . S
H2564 C2572 0.929 . S
H2565 C2574 0.930 . S
H2566 C2576 0.930 . S
H2567 C2579 0.929 . S
H2568 C2582 0.930 . S
H2569 C2584 0.960 . S
H2570 C2584 0.960 . S
H2571 C2584 0.960 . S
C2572 H2564 0.929 . S
C2572 C2573 1.377 . S
C2572 C2574 1.384 . S
C2573 C2572 1.377 . S
C2573 C2579 1.390 . S
C2574 H2565 0.930 . S
C2574 C2572 1.384 . S
C2574 C2575 1.372 . S
C2575 C2574 1.372 . S
C2575 C2576 1.400 . S
C2575 C2580 1.490 . S
C2576 H2566 0.930 . S
C2576 C2575 1.400 . S
C2576 C2579 1.386 . S
H2577 C2593 0.930 . S
H2578 C2594 0.931 . S
C2579 H2567 0.929 . S
C2579 C2573 1.390 . S
C2579 C2576 1.386 . S
C2580 C2575 1.490 . S
C2580 C2582 1.395 . S
C2580 C2583 1.403 . S
H2581 C2587 0.930 . S
C2582 H2568 0.930 . S
C2582 C2580 1.395 . S
C2582 C2585 1.403 . S
C2583 C2580 1.403 . S
C2583 C2584 1.524 . S
C2583 C2587 1.400 . S
C2584 H2569 0.960 . S
C2584 H2570 0.960 . S
C2584 H2571 0.960 . S
C2584 C2583 1.524 . S
C2585 C2582 1.403 . S
C2585 C2586 1.392 . S
C2585 C2589 1.495 . S
C2586 C2585 1.392 . S
C2586 C2587 1.385 . S
C2586 C2588 1.478 . S
C2587 H2581 0.930 . S
C2587 C2583 1.400 . S
C2587 C2586 1.385 . S
C2588 C2586 1.478 . S
C2588 C2590 1.381 . S
C2588 C2594 1.383 . S
C2589 C2585 1.495 . S
C2589 H2595 0.959 . S
C2589 H2596 0.961 . S
C2589 H2597 0.960 . S
C2590 C2588 1.381 . S
C2590 C2591 1.394 . S
C2590 H2598 0.930 . S
C2591 C2590 1.394 . S
C2591 C2592 1.383 . S
C2591 H2599 0.929 . S
C2592 C2591 1.383 . S
C2592 C2593 1.377 . S
C2593 H2577 0.930 . S
C2593 C2592 1.377 . S
C2593 C2594 1.379 . S
C2594 H2578 0.931 . S
C2594 C2588 1.383 . S
C2594 C2593 1.379 . S
H2595 C2589 0.959 . S
H2596 C2589 0.961 . S
H2597 C2589 0.960 . S
H2598 C2590 0.930 . S
H2599 C2591 0.929 . S
H2600 C2608 0.929 . S
H2601 C2610 0.930 . S
H2602 C2612 0.930 . S
H2603 C2615 0.929 . S
H2604 C2618 0.930 . S
H2605 C2620 0.960 . S
H2606 C2620 0.960 1_455 S
H2607 C2620 0.960 . S
C2608 H2600 0.929 . S
C2608 C2609 1.377 1_455 S
C2608 C2610 1.384 . S
C2609 C2608 1.377 1_655 S
C2609 C2615 1.390 . S
C2610 H2601 0.930 . S
C2610 C2608 1.384 . S
C2610 C2611 1.372 1_455 S
C2611 C2610 1.372 1_655 S
C2611 C2612 1.400 . S
C2611 C2616 1.490 . S
C2612 H2602 0.930 . S
C2612 C2611 1.400 . S
C2612 C2615 1.386 . S
H2613 C2629 0.930 . S
H2614 C2630 0.931 . S
C2615 H2603 0.929 . S
C2615 C2609 1.390 . S
C2615 C2612 1.386 . S
C2616 C2611 1.490 . S
C2616 C2618 1.390 1_655 S
C2616 C2619 1.403 . S
H2617 C2623 0.930 . S
C2618 H2604 0.930 . S
C2618 C2616 1.390 1_455 S
C2618 C2621 1.395 . S
C2619 C2616 1.403 . S
C2619 C2620 1.524 . S
C2619 C2623 1.400 . S
C2620 H2605 0.960 . S
C2620 H2606 0.960 1_655 S
C2620 H2607 0.960 . S
C2620 C2619 1.524 . S
C2621 C2618 1.395 . S
C2621 C2622 1.400 1_455 S
C2621 C2625 1.508 . S
C2622 C2621 1.400 1_655 S
C2622 C2623 1.398 . S
C2622 C2624 1.476 . S
C2623 H2617 0.930 . S
C2623 C2619 1.400 . S
C2623 C2622 1.398 . S
C2624 C2622 1.476 . S
C2624 C2626 1.337 1_655 S
C2624 C2630 1.417 . S
C2625 C2621 1.508 . S
C2625 H2631 0.959 . S
C2625 H2632 0.961 1_455 S
C2625 H2633 0.960 . S
C2626 C2624 1.337 1_455 S
C2626 C2627 1.394 . S
C2626 H2634 0.930 . S
C2627 C2626 1.394 . S
C2627 C2628 1.386 1_455 S
C2627 H2635 0.929 . S
C2628 C2627 1.386 1_655 S
C2628 C2629 1.374 . S
C2629 H2613 0.930 . S
C2629 C2628 1.374 . S
C2629 C2630 1.379 . S
C2630 H2614 0.931 . S
C2630 C2624 1.417 . S
C2630 C2629 1.379 . S
H2631 C2625 0.959 . S
H2632 C2625 0.961 1_655 S
H2633 C2625 0.960 . S
H2634 C2626 0.930 . S
H2635 C2627 0.929 . S
H2636 C2644 0.929 . S
H2637 C2646 0.930 . S
H2638 C2648 0.930 . S
H2639 C2651 0.929 . S
H2640 C2654 0.930 . S
H2641 C2656 0.960 . S
H2642 C2656 0.960 . S
H2643 C2656 0.960 . S
C2644 H2636 0.929 . S
C2644 C2645 1.377 . S
C2644 C2646 1.384 . S
C2645 C2644 1.377 . S
C2645 C2651 1.390 . S
C2646 H2637 0.930 . S
C2646 C2644 1.384 . S
C2646 C2647 1.372 . S
C2647 C2646 1.372 . S
C2647 C2648 1.400 . S
C2647 C2652 1.490 . S
C2648 H2638 0.930 . S
C2648 C2647 1.400 . S
C2648 C2651 1.386 . S
H2649 C2665 0.930 . S
H2650 C2666 0.931 . S
C2651 H2639 0.929 . S
C2651 C2645 1.390 . S
C2651 C2648 1.386 . S
C2652 C2647 1.490 . S
C2652 C2654 1.395 . S
C2652 C2655 1.403 . S
H2653 C2659 0.930 . S
C2654 H2640 0.930 . S
C2654 C2652 1.395 . S
C2654 C2657 1.403 . S
C2655 C2652 1.403 . S
C2655 C2656 1.524 . S
C2655 C2659 1.400 . S
C2656 H2641 0.960 . S
C2656 H2642 0.960 . S
C2656 H2643 0.960 . S
C2656 C2655 1.524 . S
C2657 C2654 1.403 . S
C2657 C2658 1.392 . S
C2657 C2661 1.495 . S
C2658 C2657 1.392 . S
C2658 C2659 1.385 . S
C2658 C2660 1.478 . S
C2659 H2653 0.930 . S
C2659 C2655 1.400 . S
C2659 C2658 1.385 . S
C2660 C2658 1.478 . S
C2660 C2662 1.381 . S
C2660 C2666 1.383 . S
C2661 C2657 1.495 . S
C2661 H2667 0.959 . S
C2661 H2668 0.961 . S
C2661 H2669 0.960 . S
C2662 C2660 1.381 . S
C2662 C2663 1.394 . S
C2662 H2670 0.930 . S
C2663 C2662 1.394 . S
C2663 C2664 1.383 . S
C2663 H2671 0.929 . S
C2664 C2663 1.383 . S
C2664 C2665 1.377 . S
C2665 H2649 0.930 . S
C2665 C2664 1.377 . S
C2665 C2666 1.379 . S
C2666 H2650 0.931 . S
C2666 C2660 1.383 . S
C2666 C2665 1.379 . S
H2667 C2661 0.959 . S
H2668 C2661 0.961 . S
H2669 C2661 0.960 . S
H2670 C2662 0.930 . S
H2671 C2663 0.929 . S
H2672 C2680 0.929 . S
H2673 C2682 0.930 . S
H2674 C2684 0.930 . S
H2675 C2687 0.929 . S
H2676 C2690 0.930 . S
H2677 C2692 0.960 . S
H2678 C2692 0.960 . S
H2679 C2692 0.960 . S
C2680 H2672 0.929 . S
C2680 C2681 1.377 . S
C2680 C2682 1.384 . S
C2681 C2680 1.377 . S
C2681 C2687 1.390 . S
C2682 H2673 0.930 . S
C2682 C2680 1.384 . S
C2682 C2683 1.372 . S
C2683 C2682 1.372 . S
C2683 C2684 1.400 . S
C2683 C2688 1.490 . S
C2684 H2674 0.930 . S
C2684 C2683 1.400 . S
C2684 C2687 1.386 . S
H2685 C2701 0.930 . S
H2686 C2702 0.931 . S
C2687 H2675 0.929 . S
C2687 C2681 1.390 . S
C2687 C2684 1.386 . S
C2688 C2683 1.490 . S
C2688 C2690 1.395 . S
C2688 C2691 1.403 . S
H2689 C2695 0.930 . S
C2690 H2676 0.930 . S
C2690 C2688 1.395 . S
C2690 C2693 1.403 . S
C2691 C2688 1.403 . S
C2691 C2692 1.524 . S
C2691 C2695 1.400 . S
C2692 H2677 0.960 . S
C2692 H2678 0.960 . S
C2692 H2679 0.960 . S
C2692 C2691 1.524 . S
C2693 C2690 1.403 . S
C2693 C2694 1.392 . S
C2693 C2697 1.495 . S
C2694 C2693 1.392 . S
C2694 C2695 1.385 . S
C2694 C2696 1.478 . S
C2695 H2689 0.930 . S
C2695 C2691 1.400 . S
C2695 C2694 1.385 . S
C2696 C2694 1.478 . S
C2696 C2698 1.381 . S
C2696 C2702 1.383 . S
C2697 C2693 1.495 . S
C2697 H2703 0.959 . S
C2697 H2704 0.961 . S
C2697 H2705 0.960 . S
C2698 C2696 1.381 . S
C2698 C2699 1.394 . S
C2698 H2706 0.930 . S
C2699 C2698 1.394 . S
C2699 C2700 1.383 . S
C2699 H2707 0.929 . S
C2700 C2699 1.383 . S
C2700 C2701 1.377 . S
C2701 H2685 0.930 . S
C2701 C2700 1.377 . S
C2701 C2702 1.379 . S
C2702 H2686 0.931 . S
C2702 C2696 1.383 . S
C2702 C2701 1.379 . S
H2703 C2697 0.959 . S
H2704 C2697 0.961 . S
H2705 C2697 0.960 . S
H2706 C2698 0.930 . S
H2707 C2699 0.929 . S
H2708 C2716 0.929 . S
H2709 C2718 0.930 . S
H2710 C2720 0.930 . S
H2711 C2723 0.929 . S
H2712 C2726 0.930 . S
H2713 C2728 0.960 . S
H2714 C2728 0.960 . S
H2715 C2728 0.960 . S
C2716 H2708 0.929 . S
C2716 C2717 1.377 . S
C2716 C2718 1.384 . S
C2717 C2716 1.377 . S
C2717 C2723 1.390 . S
C2718 H2709 0.930 . S
C2718 C2716 1.384 . S
C2718 C2719 1.372 . S
C2719 C2718 1.372 . S
C2719 C2720 1.400 . S
C2719 C2724 1.490 . S
C2720 H2710 0.930 . S
C2720 C2719 1.400 . S
C2720 C2723 1.386 . S
H2721 C2737 0.930 . S
H2722 C2738 0.931 . S
C2723 H2711 0.929 . S
C2723 C2717 1.390 . S
C2723 C2720 1.386 . S
C2724 C2719 1.490 . S
C2724 C2726 1.395 . S
C2724 C2727 1.403 . S
H2725 C2731 0.930 . S
C2726 H2712 0.930 . S
C2726 C2724 1.395 . S
C2726 C2729 1.403 . S
C2727 C2724 1.403 . S
C2727 C2728 1.524 . S
C2727 C2731 1.400 . S
C2728 H2713 0.960 . S
C2728 H2714 0.960 . S
C2728 H2715 0.960 . S
C2728 C2727 1.524 . S
C2729 C2726 1.403 . S
C2729 C2730 1.392 . S
C2729 C2733 1.495 . S
C2730 C2729 1.392 . S
C2730 C2731 1.385 . S
C2730 C2732 1.478 . S
C2731 H2725 0.930 . S
C2731 C2727 1.400 . S
C2731 C2730 1.385 . S
C2732 C2730 1.478 . S
C2732 C2734 1.381 . S
C2732 C2738 1.383 . S
C2733 C2729 1.495 . S
C2733 H2739 0.959 . S
C2733 H2740 0.961 . S
C2733 H2741 0.960 . S
C2734 C2732 1.381 . S
C2734 C2735 1.394 . S
C2734 H2742 0.930 . S
C2735 C2734 1.394 . S
C2735 C2736 1.383 . S
C2735 H2743 0.929 . S
C2736 C2735 1.383 . S
C2736 C2737 1.377 . S
C2737 H2721 0.930 . S
C2737 C2736 1.377 . S
C2737 C2738 1.379 . S
C2738 H2722 0.931 . S
C2738 C2732 1.383 . S
C2738 C2737 1.379 . S
H2739 C2733 0.959 . S
H2740 C2733 0.961 . S
H2741 C2733 0.960 . S
H2742 C2734 0.930 . S
H2743 C2735 0.929 . S
H2744 C2752 0.929 . S
H2745 C2754 0.930 . S
H2746 C2756 0.930 . S
H2747 C2759 0.929 . S
H2748 C2762 0.930 . S
H2749 C2764 0.960 . S
H2750 C2764 0.960 . S
H2751 C2764 0.960 . S
C2752 H2744 0.929 . S
C2752 C2753 1.377 . S
C2752 C2754 1.384 . S
C2753 C2752 1.377 . S
C2753 C2759 1.390 . S
C2754 H2745 0.930 . S
C2754 C2752 1.384 . S
C2754 C2755 1.372 . S
C2755 C2754 1.372 . S
C2755 C2756 1.400 . S
C2755 C2760 1.490 . S
C2756 H2746 0.930 . S
C2756 C2755 1.400 . S
C2756 C2759 1.386 . S
H2757 C2773 0.930 . S
H2758 C2774 0.931 . S
C2759 H2747 0.929 . S
C2759 C2753 1.390 . S
C2759 C2756 1.386 . S
C2760 C2755 1.490 . S
C2760 C2762 1.395 . S
C2760 C2763 1.403 . S
H2761 C2767 0.930 . S
C2762 H2748 0.930 . S
C2762 C2760 1.395 . S
C2762 C2765 1.403 . S
C2763 C2760 1.403 . S
C2763 C2764 1.524 . S
C2763 C2767 1.400 . S
C2764 H2749 0.960 . S
C2764 H2750 0.960 . S
C2764 H2751 0.960 . S
C2764 C2763 1.524 . S
C2765 C2762 1.403 . S
C2765 C2766 1.392 . S
C2765 C2769 1.495 . S
C2766 C2765 1.392 . S
C2766 C2767 1.385 . S
C2766 C2768 1.478 . S
C2767 H2761 0.930 . S
C2767 C2763 1.400 . S
C2767 C2766 1.385 . S
C2768 C2766 1.478 . S
C2768 C2770 1.381 . S
C2768 C2774 1.383 . S
C2769 C2765 1.495 . S
C2769 H2775 0.959 . S
C2769 H2776 0.961 . S
C2769 H2777 0.960 . S
C2770 C2768 1.381 . S
C2770 C2771 1.394 . S
C2770 H2778 0.930 . S
C2771 C2770 1.394 . S
C2771 C2772 1.383 . S
C2771 H2779 0.929 . S
C2772 C2771 1.383 . S
C2772 C2773 1.377 . S
C2773 H2757 0.930 . S
C2773 C2772 1.377 . S
C2773 C2774 1.379 . S
C2774 H2758 0.931 . S
C2774 C2768 1.383 . S
C2774 C2773 1.379 . S
H2775 C2769 0.959 . S
H2776 C2769 0.961 . S
H2777 C2769 0.960 . S
H2778 C2770 0.930 . S
H2779 C2771 0.929 . S
H2780 C2788 0.929 . S
H2781 C2790 0.930 . S
H2782 C2792 0.930 . S
H2783 C2795 0.929 . S
H2784 C2798 0.930 . S
H2785 C2800 0.960 . S
H2786 C2800 0.960 . S
H2787 C2800 0.960 . S
C2788 H2780 0.929 . S
C2788 C2789 1.377 . S
C2788 C2790 1.384 . S
C2789 C2788 1.377 . S
C2789 C2795 1.390 . S
C2790 H2781 0.930 . S
C2790 C2788 1.384 . S
C2790 C2791 1.372 . S
C2791 C2790 1.372 . S
C2791 C2792 1.400 . S
C2791 C2796 1.490 . S
C2792 H2782 0.930 . S
C2792 C2791 1.400 . S
C2792 C2795 1.386 . S
H2793 C2809 0.930 . S
H2794 C2810 0.931 . S
C2795 H2783 0.929 . S
C2795 C2789 1.390 . S
C2795 C2792 1.386 . S
C2796 C2791 1.490 . S
C2796 C2798 1.395 . S
C2796 C2799 1.403 . S
H2797 C2803 0.930 . S
C2798 H2784 0.930 . S
C2798 C2796 1.395 . S
C2798 C2801 1.403 . S
C2799 C2796 1.403 . S
C2799 C2800 1.524 . S
C2799 C2803 1.400 . S
C2800 H2785 0.960 . S
C2800 H2786 0.960 . S
C2800 H2787 0.960 . S
C2800 C2799 1.524 . S
C2801 C2798 1.403 . S
C2801 C2802 1.392 . S
C2801 C2805 1.495 . S
C2802 C2801 1.392 . S
C2802 C2803 1.385 . S
C2802 C2804 1.478 . S
C2803 H2797 0.930 . S
C2803 C2799 1.400 . S
C2803 C2802 1.385 . S
C2804 C2802 1.478 . S
C2804 C2806 1.381 . S
C2804 C2810 1.383 . S
C2805 C2801 1.495 . S
C2805 H2811 0.959 . S
C2805 H2812 0.961 . S
C2805 H2813 0.960 . S
C2806 C2804 1.381 . S
C2806 C2807 1.394 . S
C2806 H2814 0.930 . S
C2807 C2806 1.394 . S
C2807 C2808 1.383 . S
C2807 H2815 0.929 . S
C2808 C2807 1.383 . S
C2808 C2809 1.377 . S
C2809 H2793 0.930 . S
C2809 C2808 1.377 . S
C2809 C2810 1.379 . S
C2810 H2794 0.931 . S
C2810 C2804 1.383 . S
C2810 C2809 1.379 . S
H2811 C2805 0.959 . S
H2812 C2805 0.961 . S
H2813 C2805 0.960 . S
H2814 C2806 0.930 . S
H2815 C2807 0.929 . S
H2816 C2824 0.929 . S
H2817 C2826 0.930 . S
H2818 C2828 0.930 . S
H2819 C2831 0.929 . S
H2820 C2834 0.930 . S
H2821 C2836 0.960 . S
H2822 C2836 0.960 . S
H2823 C2836 0.960 . S
C2824 H2816 0.929 . S
C2824 C2825 1.377 . S
C2824 C2826 1.384 . S
C2825 C2824 1.377 . S
C2825 C2831 1.390 . S
C2826 H2817 0.930 . S
C2826 C2824 1.384 . S
C2826 C2827 1.372 . S
C2827 C2826 1.372 . S
C2827 C2828 1.400 . S
C2827 C2832 1.490 . S
C2828 H2818 0.930 . S
C2828 C2827 1.400 . S
C2828 C2831 1.386 . S
H2829 C2845 0.930 . S
H2830 C2846 0.931 . S
C2831 H2819 0.929 . S
C2831 C2825 1.390 . S
C2831 C2828 1.386 . S
C2832 C2827 1.490 . S
C2832 C2834 1.395 . S
C2832 C2835 1.403 . S
H2833 C2839 0.930 . S
C2834 H2820 0.930 . S
C2834 C2832 1.395 . S
C2834 C2837 1.403 . S
C2835 C2832 1.403 . S
C2835 C2836 1.524 . S
C2835 C2839 1.400 . S
C2836 H2821 0.960 . S
C2836 H2822 0.960 . S
C2836 H2823 0.960 . S
C2836 C2835 1.524 . S
C2837 C2834 1.403 . S
C2837 C2838 1.392 . S
C2837 C2841 1.495 . S
C2838 C2837 1.392 . S
C2838 C2839 1.385 . S
C2838 C2840 1.478 . S
C2839 H2833 0.930 . S
C2839 C2835 1.400 . S
C2839 C2838 1.385 . S
C2840 C2838 1.478 . S
C2840 C2842 1.381 . S
C2840 C2846 1.383 . S
C2841 C2837 1.495 . S
C2841 H2847 0.959 . S
C2841 H2848 0.961 . S
C2841 H2849 0.960 . S
C2842 C2840 1.381 . S
C2842 C2843 1.394 . S
C2842 H2850 0.930 . S
C2843 C2842 1.394 . S
C2843 C2844 1.383 . S
C2843 H2851 0.929 . S
C2844 C2843 1.383 . S
C2844 C2845 1.377 . S
C2845 H2829 0.930 . S
C2845 C2844 1.377 . S
C2845 C2846 1.379 . S
C2846 H2830 0.931 . S
C2846 C2840 1.383 . S
C2846 C2845 1.379 . S
H2847 C2841 0.959 . S
H2848 C2841 0.961 . S
H2849 C2841 0.960 . S
H2850 C2842 0.930 . S
H2851 C2843 0.929 . S
H2852 C2860 0.929 . S
H2853 C2862 0.930 . S
H2854 C2864 0.930 . S
H2855 C2867 0.929 . S
H2856 C2870 0.930 . S
H2857 C2872 0.960 . S
H2858 C2872 0.960 . S
H2859 C2872 0.960 . S
C2860 H2852 0.929 . S
C2860 C2861 1.377 . S
C2860 C2862 1.384 . S
C2861 C2860 1.377 . S
C2861 C2867 1.390 . S
C2862 H2853 0.930 . S
C2862 C2860 1.384 . S
C2862 C2863 1.372 . S
C2863 C2862 1.372 . S
C2863 C2864 1.400 . S
C2863 C2868 1.490 . S
C2864 H2854 0.930 . S
C2864 C2863 1.400 . S
C2864 C2867 1.386 . S
H2865 C2881 0.930 . S
H2866 C2882 0.931 . S
C2867 H2855 0.929 . S
C2867 C2861 1.390 . S
C2867 C2864 1.386 . S
C2868 C2863 1.490 . S
C2868 C2870 1.395 . S
C2868 C2871 1.403 . S
H2869 C2875 0.930 . S
C2870 H2856 0.930 . S
C2870 C2868 1.395 . S
C2870 C2873 1.403 . S
C2871 C2868 1.403 . S
C2871 C2872 1.524 . S
C2871 C2875 1.400 . S
C2872 H2857 0.960 . S
C2872 H2858 0.960 . S
C2872 H2859 0.960 . S
C2872 C2871 1.524 . S
C2873 C2870 1.403 . S
C2873 C2874 1.392 . S
C2873 C2877 1.495 . S
C2874 C2873 1.392 . S
C2874 C2875 1.385 . S
C2874 C2876 1.478 . S
C2875 H2869 0.930 . S
C2875 C2871 1.400 . S
C2875 C2874 1.385 . S
C2876 C2874 1.478 . S
C2876 C2878 1.381 . S
C2876 C2882 1.383 . S
C2877 C2873 1.495 . S
C2877 H2883 0.959 . S
C2877 H2884 0.961 . S
C2877 H2885 0.960 . S
C2878 C2876 1.381 . S
C2878 C2879 1.394 . S
C2878 H2886 0.930 . S
C2879 C2878 1.394 . S
C2879 C2880 1.383 . S
C2879 H2887 0.929 . S
C2880 C2879 1.383 . S
C2880 C2881 1.377 . S
C2881 H2865 0.930 . S
C2881 C2880 1.377 . S
C2881 C2882 1.379 . S
C2882 H2866 0.931 . S
C2882 C2876 1.383 . S
C2882 C2881 1.379 . S
H2883 C2877 0.959 . S
H2884 C2877 0.961 . S
H2885 C2877 0.960 . S
H2886 C2878 0.930 . S
H2887 C2879 0.929 . S
H2888 C2896 0.929 . S
H2889 C2898 0.930 . S
H2890 C2900 0.930 . S
H2891 C2903 0.929 . S
H2892 C2906 0.930 . S
H2893 C2908 0.960 . S
H2894 C2908 0.960 . S
H2895 C2908 0.960 . S
C2896 H2888 0.929 . S
C2896 C2897 1.377 . S
C2896 C2898 1.384 . S
C2897 C2896 1.377 . S
C2897 C2903 1.390 . S
C2898 H2889 0.930 . S
C2898 C2896 1.384 . S
C2898 C2899 1.372 . S
C2899 C2898 1.372 . S
C2899 C2900 1.400 . S
C2899 C2904 1.490 . S
C2900 H2890 0.930 . S
C2900 C2899 1.400 . S
C2900 C2903 1.386 . S
H2901 C2917 0.930 . S
H2902 C2918 0.931 . S
C2903 H2891 0.929 . S
C2903 C2897 1.390 . S
C2903 C2900 1.386 . S
C2904 C2899 1.490 . S
C2904 C2906 1.395 . S
C2904 C2907 1.403 . S
H2905 C2911 0.930 . S
C2906 H2892 0.930 . S
C2906 C2904 1.395 . S
C2906 C2909 1.403 . S
C2907 C2904 1.403 . S
C2907 C2908 1.524 . S
C2907 C2911 1.400 . S
C2908 H2893 0.960 . S
C2908 H2894 0.960 . S
C2908 H2895 0.960 . S
C2908 C2907 1.524 . S
C2909 C2906 1.403 . S
C2909 C2910 1.392 . S
C2909 C2913 1.495 . S
C2910 C2909 1.392 . S
C2910 C2911 1.385 . S
C2910 C2912 1.478 . S
C2911 H2905 0.930 . S
C2911 C2907 1.400 . S
C2911 C2910 1.385 . S
C2912 C2910 1.478 . S
C2912 C2914 1.381 . S
C2912 C2918 1.383 . S
C2913 C2909 1.495 . S
C2913 H2919 0.959 . S
C2913 H2920 0.961 . S
C2913 H2921 0.960 . S
C2914 C2912 1.381 . S
C2914 C2915 1.394 . S
C2914 H2922 0.930 . S
C2915 C2914 1.394 . S
C2915 C2916 1.383 . S
C2915 H2923 0.929 . S
C2916 C2915 1.383 . S
C2916 C2917 1.377 . S
C2917 H2901 0.930 . S
C2917 C2916 1.377 . S
C2917 C2918 1.379 . S
C2918 H2902 0.931 . S
C2918 C2912 1.383 . S
C2918 C2917 1.379 . S
H2919 C2913 0.959 . S
H2920 C2913 0.961 . S
H2921 C2913 0.960 . S
H2922 C2914 0.930 . S
H2923 C2915 0.929 . S
H2924 C2932 0.929 . S
H2925 C2934 0.930 . S
H2926 C2936 0.930 . S
H2927 C2939 0.929 . S
H2928 C2942 0.930 . S
H2929 C2944 0.960 . S
H2930 C2944 0.960 . S
H2931 C2944 0.960 . S
C2932 H2924 0.929 . S
C2932 C2933 1.377 . S
C2932 C2934 1.384 . S
C2933 C2932 1.377 . S
C2933 C2939 1.390 . S
C2934 H2925 0.930 . S
C2934 C2932 1.384 . S
C2934 C2935 1.372 . S
C2935 C2934 1.372 . S
C2935 C2936 1.400 . S
C2935 C2940 1.490 . S
C2936 H2926 0.930 . S
C2936 C2935 1.400 . S
C2936 C2939 1.386 . S
H2937 C2953 0.930 . S
H2938 C2954 0.931 . S
C2939 H2927 0.929 . S
C2939 C2933 1.390 . S
C2939 C2936 1.386 . S
C2940 C2935 1.490 . S
C2940 C2942 1.395 . S
C2940 C2943 1.403 . S
H2941 C2947 0.930 . S
C2942 H2928 0.930 . S
C2942 C2940 1.395 . S
C2942 C2945 1.403 . S
C2943 C2940 1.403 . S
C2943 C2944 1.524 . S
C2943 C2947 1.400 . S
C2944 H2929 0.960 . S
C2944 H2930 0.960 . S
C2944 H2931 0.960 . S
C2944 C2943 1.524 . S
C2945 C2942 1.403 . S
C2945 C2946 1.392 . S
C2945 C2949 1.495 . S
C2946 C2945 1.392 . S
C2946 C2947 1.385 . S
C2946 C2948 1.478 . S
C2947 H2941 0.930 . S
C2947 C2943 1.400 . S
C2947 C2946 1.385 . S
C2948 C2946 1.478 . S
C2948 C2950 1.381 . S
C2948 C2954 1.383 . S
C2949 C2945 1.495 . S
C2949 H2955 0.959 . S
C2949 H2956 0.961 . S
C2949 H2957 0.960 . S
C2950 C2948 1.381 . S
C2950 C2951 1.394 . S
C2950 H2958 0.930 . S
C2951 C2950 1.394 . S
C2951 C2952 1.383 . S
C2951 H2959 0.929 . S
C2952 C2951 1.383 . S
C2952 C2953 1.377 . S
C2953 H2937 0.930 . S
C2953 C2952 1.377 . S
C2953 C2954 1.379 . S
C2954 H2938 0.931 . S
C2954 C2948 1.383 . S
C2954 C2953 1.379 . S
H2955 C2949 0.959 . S
H2956 C2949 0.961 . S
H2957 C2949 0.960 . S
H2958 C2950 0.930 . S
H2959 C2951 0.929 . S
H2960 C2968 0.929 . S
H2961 C2970 0.930 . S
H2962 C2972 0.930 . S
H2963 C2975 0.929 . S
H2964 C2978 0.930 . S
H2965 C2980 0.960 . S
H2966 C2980 0.960 . S
H2967 C2980 0.960 . S
C2968 H2960 0.929 . S
C2968 C2969 1.377 . S
C2968 C2970 1.384 . S
C2969 C2968 1.377 . S
C2969 C2975 1.390 . S
C2970 H2961 0.930 . S
C2970 C2968 1.384 . S
C2970 C2971 1.372 . S
C2971 C2970 1.372 . S
C2971 C2972 1.400 . S
C2971 C2976 1.490 . S
C2972 H2962 0.930 . S
C2972 C2971 1.400 . S
C2972 C2975 1.386 . S
H2973 C2989 0.930 . S
H2974 C2990 0.931 . S
C2975 H2963 0.929 . S
C2975 C2969 1.390 . S
C2975 C2972 1.386 . S
C2976 C2971 1.490 . S
C2976 C2978 1.395 . S
C2976 C2979 1.403 . S
H2977 C2983 0.930 . S
C2978 H2964 0.930 . S
C2978 C2976 1.395 . S
C2978 C2981 1.403 . S
C2979 C2976 1.403 . S
C2979 C2980 1.524 . S
C2979 C2983 1.400 . S
C2980 H2965 0.960 . S
C2980 H2966 0.960 . S
C2980 H2967 0.960 . S
C2980 C2979 1.524 . S
C2981 C2978 1.403 . S
C2981 C2982 1.392 . S
C2981 C2985 1.495 . S
C2982 C2981 1.392 . S
C2982 C2983 1.385 . S
C2982 C2984 1.478 . S
C2983 H2977 0.930 . S
C2983 C2979 1.400 . S
C2983 C2982 1.385 . S
C2984 C2982 1.478 . S
C2984 C2986 1.381 . S
C2984 C2990 1.383 . S
C2985 C2981 1.495 . S
C2985 H2991 0.959 . S
C2985 H2992 0.961 . S
C2985 H2993 0.960 . S
C2986 C2984 1.381 . S
C2986 C2987 1.394 . S
C2986 H2994 0.930 . S
C2987 C2986 1.394 . S
C2987 C2988 1.383 . S
C2987 H2995 0.929 . S
C2988 C2987 1.383 . S
C2988 C2989 1.377 . S
C2989 H2973 0.930 . S
C2989 C2988 1.377 . S
C2989 C2990 1.379 . S
C2990 H2974 0.931 . S
C2990 C2984 1.383 . S
C2990 C2989 1.379 . S
H2991 C2985 0.959 . S
H2992 C2985 0.961 . S
H2993 C2985 0.960 . S
H2994 C2986 0.930 . S
H2995 C2987 0.929 . S
H2996 C3004 0.929 . S
H2997 C3006 0.930 . S
H2998 C3008 0.930 . S
H2999 C3011 0.929 . S
H3000 C3014 0.930 . S
H3001 C3016 0.960 . S
H3002 C3016 0.960 . S
H3003 C3016 0.960 . S
C3004 H2996 0.929 . S
C3004 C3005 1.377 . S
C3004 C3006 1.384 . S
C3005 C3004 1.377 . S
C3005 C3011 1.390 . S
C3006 H2997 0.930 . S
C3006 C3004 1.384 . S
C3006 C3007 1.372 . S
C3007 C3006 1.372 . S
C3007 C3008 1.400 . S
C3007 C3012 1.490 . S
C3008 H2998 0.930 . S
C3008 C3007 1.400 . S
C3008 C3011 1.386 . S
H3009 C3025 0.930 . S
H3010 C3026 0.931 . S
C3011 H2999 0.929 . S
C3011 C3005 1.390 . S
C3011 C3008 1.386 . S
C3012 C3007 1.490 . S
C3012 C3014 1.395 . S
C3012 C3015 1.403 . S
H3013 C3019 0.930 . S
C3014 H3000 0.930 . S
C3014 C3012 1.395 . S
C3014 C3017 1.403 . S
C3015 C3012 1.403 . S
C3015 C3016 1.524 . S
C3015 C3019 1.400 . S
C3016 H3001 0.960 . S
C3016 H3002 0.960 . S
C3016 H3003 0.960 . S
C3016 C3015 1.524 . S
C3017 C3014 1.403 . S
C3017 C3018 1.392 . S
C3017 C3021 1.495 . S
C3018 C3017 1.392 . S
C3018 C3019 1.385 . S
C3018 C3020 1.478 . S
C3019 H3013 0.930 . S
C3019 C3015 1.400 . S
C3019 C3018 1.385 . S
C3020 C3018 1.478 . S
C3020 C3022 1.381 . S
C3020 C3026 1.383 . S
C3021 C3017 1.495 . S
C3021 H3027 0.959 . S
C3021 H3028 0.961 . S
C3021 H3029 0.960 . S
C3022 C3020 1.381 . S
C3022 C3023 1.394 . S
C3022 H3030 0.930 . S
C3023 C3022 1.394 . S
C3023 C3024 1.383 . S
C3023 H3031 0.929 . S
C3024 C3023 1.383 . S
C3024 C3025 1.377 . S
C3025 H3009 0.930 . S
C3025 C3024 1.377 . S
C3025 C3026 1.379 . S
C3026 H3010 0.931 . S
C3026 C3020 1.383 . S
C3026 C3025 1.379 . S
H3027 C3021 0.959 . S
H3028 C3021 0.961 . S
H3029 C3021 0.960 . S
H3030 C3022 0.930 . S
H3031 C3023 0.929 . S
H3032 C3040 0.929 . S
H3033 C3042 0.930 . S
H3034 C3044 0.930 . S
H3035 C3047 0.929 . S
H3036 C3050 0.930 . S
H3037 C3052 0.960 . S
H3038 C3052 0.960 . S
H3039 C3052 0.960 . S
C3040 H3032 0.929 . S
C3040 C3041 1.377 . S
C3040 C3042 1.384 . S
C3041 C3040 1.377 . S
C3041 C3047 1.390 . S
C3042 H3033 0.930 . S
C3042 C3040 1.384 . S
C3042 C3043 1.372 . S
C3043 C3042 1.372 . S
C3043 C3044 1.400 . S
C3043 C3048 1.490 . S
C3044 H3034 0.930 . S
C3044 C3043 1.400 . S
C3044 C3047 1.386 . S
H3045 C3061 0.930 . S
H3046 C3062 0.931 . S
C3047 H3035 0.929 . S
C3047 C3041 1.390 . S
C3047 C3044 1.386 . S
C3048 C3043 1.490 . S
C3048 C3050 1.395 . S
C3048 C3051 1.403 . S
H3049 C3055 0.930 . S
C3050 H3036 0.930 . S
C3050 C3048 1.395 . S
C3050 C3053 1.403 . S
C3051 C3048 1.403 . S
C3051 C3052 1.524 . S
C3051 C3055 1.400 . S
C3052 H3037 0.960 . S
C3052 H3038 0.960 . S
C3052 H3039 0.960 . S
C3052 C3051 1.524 . S
C3053 C3050 1.403 . S
C3053 C3054 1.392 . S
C3053 C3057 1.495 . S
C3054 C3053 1.392 . S
C3054 C3055 1.385 . S
C3054 C3056 1.478 . S
C3055 H3049 0.930 . S
C3055 C3051 1.400 . S
C3055 C3054 1.385 . S
C3056 C3054 1.478 . S
C3056 C3058 1.381 . S
C3056 C3062 1.383 . S
C3057 C3053 1.495 . S
C3057 H3063 0.959 . S
C3057 H3064 0.961 . S
C3057 H3065 0.960 . S
C3058 C3056 1.381 . S
C3058 C3059 1.394 . S
C3058 H3066 0.930 . S
C3059 C3058 1.394 . S
C3059 C3060 1.383 . S
C3059 H3067 0.929 . S
C3060 C3059 1.383 . S
C3060 C3061 1.377 . S
C3061 H3045 0.930 . S
C3061 C3060 1.377 . S
C3061 C3062 1.379 . S
C3062 H3046 0.931 . S
C3062 C3056 1.383 . S
C3062 C3061 1.379 . S
H3063 C3057 0.959 . S
H3064 C3057 0.961 . S
H3065 C3057 0.960 . S
H3066 C3058 0.930 . S
H3067 C3059 0.929 . S
H3068 C3076 0.929 . S
H3069 C3078 0.935 1_556 S
H3070 C3080 0.930 . S
H3071 C3083 0.929 . S
H3072 C3086 0.930 . S
H3073 C3088 0.960 . S
H3074 C3088 0.960 . S
H3075 C3088 0.960 . S
C3076 H3068 0.929 . S
C3076 C3077 1.377 . S
C3076 C3078 1.384 . S
C3077 C3076 1.377 . S
C3077 C3083 1.390 . S
C3078 H3069 0.935 1_554 S
C3078 C3076 1.384 . S
C3078 C3079 1.372 . S
C3079 C3078 1.372 . S
C3079 C3080 1.400 . S
C3079 C3084 1.490 . S
C3080 H3070 0.930 . S
C3080 C3079 1.400 . S
C3080 C3083 1.386 . S
H3081 C3097 0.930 . S
H3082 C3098 0.931 . S
C3083 H3071 0.929 . S
C3083 C3077 1.390 . S
C3083 C3080 1.386 . S
C3084 C3079 1.490 . S
C3084 C3086 1.395 . S
C3084 C3087 1.403 . S
H3085 C3091 0.930 . S
C3086 H3072 0.930 . S
C3086 C3084 1.395 . S
C3086 C3089 1.403 . S
C3087 C3084 1.403 . S
C3087 C3088 1.524 . S
C3087 C3091 1.400 . S
C3088 H3073 0.960 . S
C3088 H3074 0.960 . S
C3088 H3075 0.960 . S
C3088 C3087 1.524 . S
C3089 C3086 1.403 . S
C3089 C3090 1.392 . S
C3089 C3093 1.459 1_564 S
C3090 C3089 1.392 . S
C3090 C3091 1.385 . S
C3090 C3092 1.478 . S
C3091 H3085 0.930 . S
C3091 C3087 1.400 . S
C3091 C3090 1.385 . S
C3092 C3090 1.478 . S
C3092 C3094 1.381 . S
C3092 C3098 1.383 1_565 S
C3093 C3089 1.459 1_546 S
C3093 H3099 0.968 . S
C3093 H3100 0.941 1_556 S
C3093 H3101 1.001 1_545 S
C3094 C3092 1.381 . S
C3094 C3095 1.394 . S
C3094 H3102 0.930 1_554 S
C3095 C3094 1.394 . S
C3095 C3096 1.383 1_565 S
C3095 H3103 0.929 1_554 S
C3096 C3095 1.383 1_545 S
C3096 C3097 1.377 . S
C3097 H3081 0.930 . S
C3097 C3096 1.377 . S
C3097 C3098 1.379 . S
C3098 H3082 0.931 . S
C3098 C3092 1.383 1_545 S
C3098 C3097 1.379 . S
H3099 C3093 0.968 . S
H3100 C3093 0.941 1_554 S
H3101 C3093 1.001 1_565 S
H3102 C3094 0.930 1_556 S
H3103 C3095 0.929 1_556 S
H3104 C3112 0.929 . S
H3105 C3114 0.930 . S
H3106 C3116 0.930 . S
H3107 C3119 0.929 . S
H3108 C3122 0.930 . S
H3109 C3124 0.960 . S
H3110 C3124 0.960 . S
H3111 C3124 0.960 . S
C3112 H3104 0.929 . S
C3112 C3113 1.377 . S
C3112 C3114 1.384 . S
C3113 C3112 1.377 . S
C3113 C3119 1.390 . S
C3114 H3105 0.930 . S
C3114 C3112 1.384 . S
C3114 C3115 1.372 . S
C3115 C3114 1.372 . S
C3115 C3116 1.400 . S
C3115 C3120 1.490 . S
C3116 H3106 0.930 . S
C3116 C3115 1.400 . S
C3116 C3119 1.386 . S
H3117 C3133 0.930 . S
H3118 C3134 0.931 . S
C3119 H3107 0.929 . S
C3119 C3113 1.390 . S
C3119 C3116 1.386 . S
C3120 C3115 1.490 . S
C3120 C3122 1.395 . S
C3120 C3123 1.403 . S
H3121 C3127 0.930 . S
C3122 H3108 0.930 . S
C3122 C3120 1.395 . S
C3122 C3125 1.403 . S
C3123 C3120 1.403 . S
C3123 C3124 1.524 . S
C3123 C3127 1.400 . S
C3124 H3109 0.960 . S
C3124 H3110 0.960 . S
C3124 H3111 0.960 . S
C3124 C3123 1.524 . S
C3125 C3122 1.403 . S
C3125 C3126 1.392 . S
C3125 C3129 1.495 . S
C3126 C3125 1.392 . S
C3126 C3127 1.385 . S
C3126 C3128 1.478 . S
C3127 H3121 0.930 . S
C3127 C3123 1.400 . S
C3127 C3126 1.385 . S
C3128 C3126 1.478 . S
C3128 C3130 1.381 . S
C3128 C3134 1.383 . S
C3129 C3125 1.495 . S
C3129 H3135 0.959 . S
C3129 H3136 0.961 . S
C3129 H3137 0.960 . S
C3130 C3128 1.381 . S
C3130 C3131 1.394 . S
C3130 H3138 0.930 . S
C3131 C3130 1.394 . S
C3131 C3132 1.383 . S
C3131 H3139 0.929 . S
C3132 C3131 1.383 . S
C3132 C3133 1.377 . S
C3133 H3117 0.930 . S
C3133 C3132 1.377 . S
C3133 C3134 1.379 . S
C3134 H3118 0.931 . S
C3134 C3128 1.383 . S
C3134 C3133 1.379 . S
H3135 C3129 0.959 . S
H3136 C3129 0.961 . S
H3137 C3129 0.960 . S
H3138 C3130 0.930 . S
H3139 C3131 0.929 . S
H3140 C3148 0.929 . S
H3141 C3150 0.930 . S
H3142 C3152 0.930 . S
H3143 C3155 0.929 . S
H3144 C3158 0.930 1_556 S
H3145 C3160 0.960 . S
H3146 C3160 0.960 . S
H3147 C3160 0.960 . S
C3148 H3140 0.929 . S
C3148 C3149 1.377 1_556 S
C3148 C3150 1.384 . S
C3149 C3148 1.377 1_554 S
C3149 C3155 1.390 . S
C3150 H3141 0.930 . S
C3150 C3148 1.384 . S
C3150 C3151 1.372 1_556 S
C3151 C3150 1.372 1_554 S
C3151 C3152 1.400 . S
C3151 C3156 1.490 . S
C3152 H3142 0.930 . S
C3152 C3151 1.400 . S
C3152 C3155 1.386 . S
H3153 C3169 0.930 . S
H3154 C3170 0.931 . S
C3155 H3143 0.929 . S
C3155 C3149 1.390 . S
C3155 C3152 1.386 . S
C3156 C3151 1.490 . S
C3156 C3158 1.395 . S
C3156 C3159 1.403 . S
H3157 C3163 0.930 . S
C3158 H3144 0.930 1_554 S
C3158 C3156 1.395 . S
C3158 C3161 1.403 . S
C3159 C3156 1.403 . S
C3159 C3160 1.524 . S
C3159 C3163 1.400 . S
C3160 H3145 0.960 . S
C3160 H3146 0.960 . S
C3160 H3147 0.960 . S
C3160 C3159 1.524 . S
C3161 C3158 1.403 . S
C3161 C3162 1.392 . S
C3161 C3165 1.495 1_554 S
C3162 C3161 1.392 . S
C3162 C3163 1.385 . S
C3162 C3164 1.478 . S
C3163 H3157 0.930 . S
C3163 C3159 1.400 . S
C3163 C3162 1.385 . S
C3164 C3162 1.478 . S
C3164 C3166 1.381 . S
C3164 C3170 1.383 . S
C3165 C3161 1.495 1_556 S
C3165 H3171 0.959 . S
C3165 H3172 0.961 1_556 S
C3165 H3173 0.960 . S
C3166 C3164 1.381 . S
C3166 C3167 1.394 . S
C3166 H3174 0.930 1_554 S
C3167 C3166 1.394 . S
C3167 C3168 1.383 . S
C3167 H3175 0.929 . S
C3168 C3167 1.383 . S
C3168 C3169 1.377 . S
C3169 H3153 0.930 . S
C3169 C3168 1.377 . S
C3169 C3170 1.379 . S
C3170 H3154 0.931 . S
C3170 C3164 1.383 . S
C3170 C3169 1.379 . S
H3171 C3165 0.959 . S
H3172 C3165 0.961 1_554 S
H3173 C3165 0.960 . S
H3174 C3166 0.930 1_556 S
H3175 C3167 0.929 . S
H3176 C3184 0.929 . S
H3177 C3186 0.930 . S
H3178 C3188 0.930 . S
H3179 C3191 0.929 . S
H3180 C3194 0.930 . S
H3181 C3196 0.960 . S
H3182 C3196 0.960 . S
H3183 C3196 0.960 . S
C3184 H3176 0.929 . S
C3184 C3185 1.377 . S
C3184 C3186 1.384 . S
C3185 C3184 1.377 . S
C3185 C3191 1.390 . S
C3186 H3177 0.930 . S
C3186 C3184 1.384 . S
C3186 C3187 1.372 . S
C3187 C3186 1.372 . S
C3187 C3188 1.400 . S
C3187 C3192 1.490 . S
C3188 H3178 0.930 . S
C3188 C3187 1.400 . S
C3188 C3191 1.386 . S
H3189 C3205 0.930 . S
H3190 C3206 0.931 . S
C3191 H3179 0.929 . S
C3191 C3185 1.390 . S
C3191 C3188 1.386 . S
C3192 C3187 1.490 . S
C3192 C3194 1.395 . S
C3192 C3195 1.403 . S
H3193 C3199 0.930 . S
C3194 H3180 0.930 . S
C3194 C3192 1.395 . S
C3194 C3197 1.403 . S
C3195 C3192 1.403 . S
C3195 C3196 1.524 . S
C3195 C3199 1.400 . S
C3196 H3181 0.960 . S
C3196 H3182 0.960 . S
C3196 H3183 0.960 . S
C3196 C3195 1.524 . S
C3197 C3194 1.403 . S
C3197 C3198 1.392 . S
C3197 C3201 1.495 . S
C3198 C3197 1.392 . S
C3198 C3199 1.385 . S
C3198 C3200 1.478 . S
C3199 H3193 0.930 . S
C3199 C3195 1.400 . S
C3199 C3198 1.385 . S
C3200 C3198 1.478 . S
C3200 C3202 1.381 . S
C3200 C3206 1.383 . S
C3201 C3197 1.495 . S
C3201 H3207 0.959 . S
C3201 H3208 0.961 . S
C3201 H3209 0.960 . S
C3202 C3200 1.381 . S
C3202 C3203 1.394 . S
C3202 H3210 0.930 . S
C3203 C3202 1.394 . S
C3203 C3204 1.383 . S
C3203 H3211 0.929 . S
C3204 C3203 1.383 . S
C3204 C3205 1.377 . S
C3205 H3189 0.930 . S
C3205 C3204 1.377 . S
C3205 C3206 1.379 . S
C3206 H3190 0.931 . S
C3206 C3200 1.383 . S
C3206 C3205 1.379 . S
H3207 C3201 0.959 . S
H3208 C3201 0.961 . S
H3209 C3201 0.960 . S
H3210 C3202 0.930 . S
H3211 C3203 0.929 . S
H3212 C3220 0.929 1_545 S
H3213 C3222 0.930 . S
H3214 C3224 0.930 . S
H3215 C3227 0.929 . S
H3216 C3230 0.930 . S
H3217 C3232 0.960 . S
H3218 C3232 0.960 . S
H3219 C3232 0.960 . S
C3220 H3212 0.929 1_565 S
C3220 C3221 1.377 . S
C3220 C3222 1.384 . S
C3221 C3220 1.377 . S
C3221 C3227 1.390 . S
C3222 H3213 0.930 . S
C3222 C3220 1.384 . S
C3222 C3223 1.372 . S
C3223 C3222 1.372 . S
C3223 C3224 1.400 . S
C3223 C3228 1.490 . S
C3224 H3214 0.930 . S
C3224 C3223 1.400 . S
C3224 C3227 1.386 . S
H3225 C3241 0.930 . S
H3226 C3242 0.931 . S
C3227 H3215 0.929 . S
C3227 C3221 1.390 . S
C3227 C3224 1.386 . S
C3228 C3223 1.490 . S
C3228 C3230 1.395 . S
C3228 C3231 1.403 . S
H3229 C3235 0.930 . S
C3230 H3216 0.930 . S
C3230 C3228 1.395 . S
C3230 C3233 1.403 . S
C3231 C3228 1.403 . S
C3231 C3232 1.524 . S
C3231 C3235 1.400 . S
C3232 H3217 0.960 . S
C3232 H3218 0.960 . S
C3232 H3219 0.960 . S
C3232 C3231 1.524 . S
C3233 C3230 1.403 . S
C3233 C3234 1.392 . S
C3233 C3237 1.495 . S
C3234 C3233 1.392 . S
C3234 C3235 1.385 . S
C3234 C3236 1.478 . S
C3235 H3229 0.930 . S
C3235 C3231 1.400 . S
C3235 C3234 1.385 . S
C3236 C3234 1.478 . S
C3236 C3238 1.381 . S
C3236 C3242 1.383 . S
C3237 C3233 1.495 . S
C3237 H3243 0.959 . S
C3237 H3244 0.961 . S
C3237 H3245 0.960 . S
C3238 C3236 1.381 . S
C3238 C3239 1.394 . S
C3238 H3246 0.930 . S
C3239 C3238 1.394 . S
C3239 C3240 1.383 . S
C3239 H3247 0.929 . S
C3240 C3239 1.383 . S
C3240 C3241 1.377 . S
C3241 H3225 0.930 . S
C3241 C3240 1.377 . S
C3241 C3242 1.379 . S
C3242 H3226 0.931 . S
C3242 C3236 1.383 . S
C3242 C3241 1.379 . S
H3243 C3237 0.959 . S
H3244 C3237 0.961 . S
H3245 C3237 0.960 . S
H3246 C3238 0.930 . S
H3247 C3239 0.929 . S
H3248 C3256 0.929 . S
H3249 C3258 0.930 . S
H3250 C3260 0.930 . S
H3251 C3263 0.929 . S
H3252 C3266 0.930 . S
H3253 C3268 0.960 . S
H3254 C3268 0.960 . S
H3255 C3268 0.960 . S
C3256 H3248 0.929 . S
C3256 C3257 1.377 . S
C3256 C3258 1.384 . S
C3257 C3256 1.377 . S
C3257 C3263 1.390 . S
C3258 H3249 0.930 . S
C3258 C3256 1.384 . S
C3258 C3259 1.372 . S
C3259 C3258 1.372 . S
C3259 C3260 1.400 . S
C3259 C3264 1.490 . S
C3260 H3250 0.930 . S
C3260 C3259 1.400 . S
C3260 C3263 1.386 . S
H3261 C3277 0.930 . S
H3262 C3278 0.931 . S
C3263 H3251 0.929 . S
C3263 C3257 1.390 . S
C3263 C3260 1.386 . S
C3264 C3259 1.490 . S
C3264 C3266 1.395 . S
C3264 C3267 1.403 . S
H3265 C3271 0.930 . S
C3266 H3252 0.930 . S
C3266 C3264 1.395 . S
C3266 C3269 1.403 . S
C3267 C3264 1.403 . S
C3267 C3268 1.524 . S
C3267 C3271 1.400 . S
C3268 H3253 0.960 . S
C3268 H3254 0.960 . S
C3268 H3255 0.960 . S
C3268 C3267 1.524 . S
C3269 C3266 1.403 . S
C3269 C3270 1.392 . S
C3269 C3273 1.495 . S
C3270 C3269 1.392 . S
C3270 C3271 1.385 . S
C3270 C3272 1.478 . S
C3271 H3265 0.930 . S
C3271 C3267 1.400 . S
C3271 C3270 1.385 . S
C3272 C3270 1.478 . S
C3272 C3274 1.381 . S
C3272 C3278 1.383 . S
C3273 C3269 1.495 . S
C3273 H3279 0.959 . S
C3273 H3280 0.961 . S
C3273 H3281 0.960 . S
C3274 C3272 1.381 . S
C3274 C3275 1.394 . S
C3274 H3282 0.930 . S
C3275 C3274 1.394 . S
C3275 C3276 1.383 . S
C3275 H3283 0.929 . S
C3276 C3275 1.383 . S
C3276 C3277 1.377 . S
C3277 H3261 0.930 . S
C3277 C3276 1.377 . S
C3277 C3278 1.379 . S
C3278 H3262 0.931 . S
C3278 C3272 1.383 . S
C3278 C3277 1.379 . S
H3279 C3273 0.959 . S
H3280 C3273 0.961 . S
H3281 C3273 0.960 . S
H3282 C3274 0.930 . S
H3283 C3275 0.929 . S
H3284 C3292 0.929 . S
H3285 C3294 0.930 . S
H3286 C3296 0.930 . S
H3287 C3299 0.929 . S
H3288 C3302 0.930 . S
H3289 C3304 0.960 . S
H3290 C3304 0.960 . S
H3291 C3304 0.960 . S
C3292 H3284 0.929 . S
C3292 C3293 1.377 . S
C3292 C3294 1.384 . S
C3293 C3292 1.377 . S
C3293 C3299 1.390 . S
C3294 H3285 0.930 . S
C3294 C3292 1.384 . S
C3294 C3295 1.372 . S
C3295 C3294 1.372 . S
C3295 C3296 1.400 . S
C3295 C3300 1.490 . S
C3296 H3286 0.930 . S
C3296 C3295 1.400 . S
C3296 C3299 1.386 . S
H3297 C3313 0.930 . S
H3298 C3314 0.931 . S
C3299 H3287 0.929 . S
C3299 C3293 1.390 . S
C3299 C3296 1.386 . S
C3300 C3295 1.490 . S
C3300 C3302 1.395 . S
C3300 C3303 1.403 . S
H3301 C3307 0.930 . S
C3302 H3288 0.930 . S
C3302 C3300 1.395 . S
C3302 C3305 1.403 . S
C3303 C3300 1.403 . S
C3303 C3304 1.524 . S
C3303 C3307 1.400 . S
C3304 H3289 0.960 . S
C3304 H3290 0.960 . S
C3304 H3291 0.960 . S
C3304 C3303 1.524 . S
C3305 C3302 1.403 . S
C3305 C3306 1.392 . S
C3305 C3309 1.495 . S
C3306 C3305 1.392 . S
C3306 C3307 1.385 . S
C3306 C3308 1.478 . S
C3307 H3301 0.930 . S
C3307 C3303 1.400 . S
C3307 C3306 1.385 . S
C3308 C3306 1.478 . S
C3308 C3310 1.381 . S
C3308 C3314 1.383 . S
C3309 C3305 1.495 . S
C3309 H3315 0.959 . S
C3309 H3316 0.961 . S
C3309 H3317 0.960 . S
C3310 C3308 1.381 . S
C3310 C3311 1.394 . S
C3310 H3318 0.930 . S
C3311 C3310 1.394 . S
C3311 C3312 1.383 . S
C3311 H3319 0.929 . S
C3312 C3311 1.383 . S
C3312 C3313 1.377 . S
C3313 H3297 0.930 . S
C3313 C3312 1.377 . S
C3313 C3314 1.379 . S
C3314 H3298 0.931 . S
C3314 C3308 1.383 . S
C3314 C3313 1.379 . S
H3315 C3309 0.959 . S
H3316 C3309 0.961 . S
H3317 C3309 0.960 . S
H3318 C3310 0.930 . S
H3319 C3311 0.929 . S
H3320 C3328 0.929 . S
H3321 C3330 0.930 . S
H3322 C3332 0.930 . S
H3323 C3335 0.929 . S
H3324 C3338 0.930 . S
H3325 C3340 0.960 . S
H3326 C3340 0.960 . S
H3327 C3340 0.960 . S
C3328 H3320 0.929 . S
C3328 C3329 1.377 1_655 S
C3328 C3330 1.384 . S
C3329 C3328 1.377 1_455 S
C3329 C3335 1.390 . S
C3330 H3321 0.930 . S
C3330 C3328 1.384 . S
C3330 C3331 1.372 1_655 S
C3331 C3330 1.372 1_455 S
C3331 C3332 1.400 . S
C3331 C3336 1.490 . S
C3332 H3322 0.930 . S
C3332 C3331 1.400 . S
C3332 C3335 1.386 . S
H3333 C3349 0.930 . S
H3334 C3350 0.931 . S
C3335 H3323 0.929 . S
C3335 C3329 1.390 . S
C3335 C3332 1.386 . S
C3336 C3331 1.490 . S
C3336 C3338 1.395 1_455 S
C3336 C3339 1.403 . S
H3337 C3343 0.930 . S
C3338 H3324 0.930 . S
C3338 C3336 1.395 1_655 S
C3338 C3341 1.403 . S
C3339 C3336 1.403 . S
C3339 C3340 1.524 . S
C3339 C3343 1.400 . S
C3340 H3325 0.960 . S
C3340 H3326 0.960 . S
C3340 H3327 0.960 . S
C3340 C3339 1.524 . S
C3341 C3338 1.403 . S
C3341 C3342 1.392 1_655 S
C3341 C3345 1.495 . S
C3342 C3341 1.392 1_455 S
C3342 C3343 1.385 . S
C3342 C3344 1.478 . S
C3343 H3337 0.930 . S
C3343 C3339 1.400 . S
C3343 C3342 1.385 . S
C3344 C3342 1.478 . S
C3344 C3346 1.381 1_455 S
C3344 C3350 1.383 . S
C3345 C3341 1.495 . S
C3345 H3351 0.959 . S
C3345 H3352 0.961 . S
C3345 H3353 0.960 . S
C3346 C3344 1.381 1_655 S
C3346 C3347 1.394 . S
C3346 H3354 0.930 . S
C3347 C3346 1.394 . S
C3347 C3348 1.383 1_655 S
C3347 H3355 0.929 . S
C3348 C3347 1.383 1_455 S
C3348 C3349 1.377 . S
C3349 H3333 0.930 . S
C3349 C3348 1.377 . S
C3349 C3350 1.379 . S
C3350 H3334 0.931 . S
C3350 C3344 1.383 . S
C3350 C3349 1.379 . S
H3351 C3345 0.959 . S
H3352 C3345 0.961 . S
H3353 C3345 0.960 . S
H3354 C3346 0.930 . S
H3355 C3347 0.929 . S
H3356 C3364 0.929 . S
H3357 C3366 0.930 . S
H3358 C3368 0.930 . S
H3359 C3371 0.929 . S
H3360 C3374 0.930 . S
H3361 C3376 0.960 . S
H3362 C3376 0.960 . S
H3363 C3376 0.960 . S
C3364 H3356 0.929 . S
C3364 C3365 1.377 . S
C3364 C3366 1.384 . S
C3365 C3364 1.377 . S
C3365 C3371 1.390 . S
C3366 H3357 0.930 . S
C3366 C3364 1.384 . S
C3366 C3367 1.372 . S
C3367 C3366 1.372 . S
C3367 C3368 1.400 . S
C3367 C3372 1.490 . S
C3368 H3358 0.930 . S
C3368 C3367 1.400 . S
C3368 C3371 1.386 . S
H3369 C3385 0.930 . S
H3370 C3386 0.931 . S
C3371 H3359 0.929 . S
C3371 C3365 1.390 . S
C3371 C3368 1.386 . S
C3372 C3367 1.490 . S
C3372 C3374 1.395 . S
C3372 C3375 1.403 . S
H3373 C3379 0.930 . S
C3374 H3360 0.930 . S
C3374 C3372 1.395 . S
C3374 C3377 1.403 . S
C3375 C3372 1.403 . S
C3375 C3376 1.524 . S
C3375 C3379 1.400 . S
C3376 H3361 0.960 . S
C3376 H3362 0.960 . S
C3376 H3363 0.960 . S
C3376 C3375 1.524 . S
C3377 C3374 1.403 . S
C3377 C3378 1.392 . S
C3377 C3381 1.495 . S
C3378 C3377 1.392 . S
C3378 C3379 1.385 . S
C3378 C3380 1.478 . S
C3379 H3373 0.930 . S
C3379 C3375 1.400 . S
C3379 C3378 1.385 . S
C3380 C3378 1.478 . S
C3380 C3382 1.381 . S
C3380 C3386 1.383 . S
C3381 C3377 1.495 . S
C3381 H3387 0.959 . S
C3381 H3388 0.961 . S
C3381 H3389 0.960 . S
C3382 C3380 1.381 . S
C3382 C3383 1.394 . S
C3382 H3390 0.930 . S
C3383 C3382 1.394 . S
C3383 C3384 1.383 . S
C3383 H3391 0.929 . S
C3384 C3383 1.383 . S
C3384 C3385 1.377 . S
C3385 H3369 0.930 . S
C3385 C3384 1.377 . S
C3385 C3386 1.379 . S
C3386 H3370 0.931 . S
C3386 C3380 1.383 . S
C3386 C3385 1.379 . S
H3387 C3381 0.959 . S
H3388 C3381 0.961 . S
H3389 C3381 0.960 . S
H3390 C3382 0.930 . S
H3391 C3383 0.929 . S
H3392 C3400 0.929 . S
H3393 C3402 0.930 . S
H3394 C3404 0.930 . S
H3395 C3407 0.929 . S
H3396 C3410 0.930 . S
H3397 C3412 0.960 . S
H3398 C3412 0.960 . S
H3399 C3412 0.960 . S
C3400 H3392 0.929 . S
C3400 C3401 1.377 . S
C3400 C3402 1.384 . S
C3401 C3400 1.377 . S
C3401 C3407 1.390 . S
C3402 H3393 0.930 . S
C3402 C3400 1.384 . S
C3402 C3403 1.372 . S
C3403 C3402 1.372 . S
C3403 C3404 1.400 . S
C3403 C3408 1.490 . S
C3404 H3394 0.930 . S
C3404 C3403 1.400 . S
C3404 C3407 1.386 . S
H3405 C3421 0.930 . S
H3406 C3422 0.931 . S
C3407 H3395 0.929 . S
C3407 C3401 1.390 . S
C3407 C3404 1.386 . S
C3408 C3403 1.490 . S
C3408 C3410 1.395 . S
C3408 C3411 1.403 . S
H3409 C3415 0.930 . S
C3410 H3396 0.930 . S
C3410 C3408 1.395 . S
C3410 C3413 1.403 . S
C3411 C3408 1.403 . S
C3411 C3412 1.524 . S
C3411 C3415 1.400 . S
C3412 H3397 0.960 . S
C3412 H3398 0.960 . S
C3412 H3399 0.960 . S
C3412 C3411 1.524 . S
C3413 C3410 1.403 . S
C3413 C3414 1.392 . S
C3413 C3417 1.495 . S
C3414 C3413 1.392 . S
C3414 C3415 1.385 . S
C3414 C3416 1.478 . S
C3415 H3409 0.930 . S
C3415 C3411 1.400 . S
C3415 C3414 1.385 . S
C3416 C3414 1.478 . S
C3416 C3418 1.381 . S
C3416 C3422 1.383 . S
C3417 C3413 1.495 . S
C3417 H3423 0.959 . S
C3417 H3424 0.961 . S
C3417 H3425 0.960 . S
C3418 C3416 1.381 . S
C3418 C3419 1.394 . S
C3418 H3426 0.930 . S
C3419 C3418 1.394 . S
C3419 C3420 1.383 . S
C3419 H3427 0.929 1_556 S
C3420 C3419 1.383 . S
C3420 C3421 1.377 . S
C3421 H3405 0.930 . S
C3421 C3420 1.377 . S
C3421 C3422 1.379 . S
C3422 H3406 0.931 . S
C3422 C3416 1.383 . S
C3422 C3421 1.379 . S
H3423 C3417 0.959 . S
H3424 C3417 0.961 . S
H3425 C3417 0.960 . S
H3426 C3418 0.930 . S
H3427 C3419 0.929 1_554 S
H3428 C3436 0.929 . S
H3429 C3438 0.930 . S
H3430 C3440 0.930 . S
H3431 C3443 0.929 . S
H3432 C3446 0.930 . S
H3433 C3448 0.960 . S
H3434 C3448 0.960 . S
H3435 C3448 0.960 . S
C3436 H3428 0.929 . S
C3436 C3437 1.377 . S
C3436 C3438 1.384 . S
C3437 C3436 1.377 . S
C3437 C3443 1.390 . S
C3438 H3429 0.930 . S
C3438 C3436 1.384 . S
C3438 C3439 1.372 . S
C3439 C3438 1.372 . S
C3439 C3440 1.400 . S
C3439 C3444 1.490 . S
C3440 H3430 0.930 . S
C3440 C3439 1.400 . S
C3440 C3443 1.386 . S
H3441 C3457 0.930 . S
H3442 C3458 0.931 . S
C3443 H3431 0.929 . S
C3443 C3437 1.390 . S
C3443 C3440 1.386 . S
C3444 C3439 1.490 . S
C3444 C3446 1.395 . S
C3444 C3447 1.403 . S
H3445 C3451 0.930 . S
C3446 H3432 0.930 . S
C3446 C3444 1.395 . S
C3446 C3449 1.403 . S
C3447 C3444 1.403 . S
C3447 C3448 1.524 . S
C3447 C3451 1.400 . S
C3448 H3433 0.960 . S
C3448 H3434 0.960 . S
C3448 H3435 0.960 . S
C3448 C3447 1.524 . S
C3449 C3446 1.403 . S
C3449 C3450 1.392 . S
C3449 C3453 1.495 . S
C3450 C3449 1.392 . S
C3450 C3451 1.385 . S
C3450 C3452 1.478 . S
C3451 H3445 0.930 . S
C3451 C3447 1.400 . S
C3451 C3450 1.385 . S
C3452 C3450 1.478 . S
C3452 C3454 1.381 . S
C3452 C3458 1.383 . S
C3453 C3449 1.495 . S
C3453 H3459 0.959 . S
C3453 H3460 0.961 . S
C3453 H3461 0.960 . S
C3454 C3452 1.381 . S
C3454 C3455 1.394 . S
C3454 H3462 0.930 . S
C3455 C3454 1.394 . S
C3455 C3456 1.383 . S
C3455 H3463 0.929 . S
C3456 C3455 1.383 . S
C3456 C3457 1.377 . S
C3457 H3441 0.930 . S
C3457 C3456 1.377 . S
C3457 C3458 1.379 . S
C3458 H3442 0.931 . S
C3458 C3452 1.383 . S
C3458 C3457 1.379 . S
H3459 C3453 0.959 . S
H3460 C3453 0.961 . S
H3461 C3453 0.960 . S
H3462 C3454 0.930 . S
H3463 C3455 0.929 . S
H3464 C3472 0.929 1_655 S
H3465 C3474 0.930 1_655 S
H3466 C3476 0.930 . S
H3467 C3479 0.929 . S
H3468 C3482 0.930 1_655 S
H3469 C3484 0.960 . S
H3470 C3484 0.960 . S
H3471 C3484 0.960 . S
C3472 H3464 0.929 1_455 S
C3472 C3473 1.377 . S
C3472 C3474 1.384 . S
C3473 C3472 1.377 . S
C3473 C3479 1.390 . S
C3474 H3465 0.930 1_455 S
C3474 C3472 1.384 . S
C3474 C3475 1.372 . S
C3475 C3474 1.372 . S
C3475 C3476 1.400 . S
C3475 C3480 1.490 . S
C3476 H3466 0.930 . S
C3476 C3475 1.400 . S
C3476 C3479 1.386 . S
H3477 C3493 0.930 . S
H3478 C3494 0.931 . S
C3479 H3467 0.929 . S
C3479 C3473 1.390 . S
C3479 C3476 1.386 . S
C3480 C3475 1.490 . S
C3480 C3482 1.395 . S
C3480 C3483 1.403 . S
H3481 C3487 0.930 . S
C3482 H3468 0.930 1_455 S
C3482 C3480 1.395 . S
C3482 C3485 1.397 1_455 S
C3483 C3480 1.403 . S
C3483 C3484 1.524 . S
C3483 C3487 1.400 . S
C3484 H3469 0.960 . S
C3484 H3470 0.960 . S
C3484 H3471 0.960 . S
C3484 C3483 1.524 . S
C3485 C3482 1.397 1_655 S
C3485 C3486 1.379 1_655 S
C3485 C3489 1.515 . S
C3486 C3485 1.379 1_455 S
C3486 C3487 1.385 . S
C3486 C3488 1.478 . S
C3487 H3481 0.930 . S
C3487 C3483 1.400 . S
C3487 C3486 1.385 . S
C3488 C3486 1.478 . S
C3488 C3490 1.381 1_455 S
C3488 C3494 1.383 . S
C3489 C3485 1.515 . S
C3489 H3495 0.959 . S
C3489 H3496 0.961 . S
C3489 H3497 0.960 . S
C3490 C3488 1.381 1_655 S
C3490 C3491 1.394 . S
C3490 H3498 0.930 . S
C3491 C3490 1.394 . S
C3491 C3492 1.383 1_655 S
C3491 H3499 0.929 . S
C3492 C3491 1.383 1_455 S
C3492 C3493 1.377 . S
C3493 H3477 0.930 . S
C3493 C3492 1.377 . S
C3493 C3494 1.379 . S
C3494 H3478 0.931 . S
C3494 C3488 1.383 . S
C3494 C3493 1.379 . S
H3495 C3489 0.959 . S
H3496 C3489 0.961 . S
H3497 C3489 0.960 . S
H3498 C3490 0.930 . S
H3499 C3491 0.929 . S
H3500 C3508 0.929 . S
H3501 C3510 0.930 . S
H3502 C3512 0.930 . S
H3503 C3515 0.929 . S
H3504 C3518 0.930 . S
H3505 C3520 0.960 . S
H3506 C3520 0.960 . S
H3507 C3520 0.960 . S
C3508 H3500 0.929 . S
C3508 C3509 1.377 . S
C3508 C3510 1.384 . S
C3509 C3508 1.377 . S
C3509 C3515 1.390 . S
C3510 H3501 0.930 . S
C3510 C3508 1.384 . S
C3510 C3511 1.372 . S
C3511 C3510 1.372 . S
C3511 C3512 1.400 . S
C3511 C3516 1.490 . S
C3512 H3502 0.930 . S
C3512 C3511 1.400 . S
C3512 C3515 1.386 . S
H3513 C3529 0.930 . S
H3514 C3530 0.931 . S
C3515 H3503 0.929 . S
C3515 C3509 1.390 . S
C3515 C3512 1.386 . S
C3516 C3511 1.490 . S
C3516 C3518 1.395 . S
C3516 C3519 1.403 . S
H3517 C3523 0.930 . S
C3518 H3504 0.930 . S
C3518 C3516 1.395 . S
C3518 C3521 1.403 . S
C3519 C3516 1.403 . S
C3519 C3520 1.524 . S
C3519 C3523 1.400 . S
C3520 H3505 0.960 . S
C3520 H3506 0.960 . S
C3520 H3507 0.960 . S
C3520 C3519 1.524 . S
C3521 C3518 1.403 . S
C3521 C3522 1.392 . S
C3521 C3525 1.495 . S
C3522 C3521 1.392 . S
C3522 C3523 1.385 . S
C3522 C3524 1.478 . S
C3523 H3517 0.930 . S
C3523 C3519 1.400 . S
C3523 C3522 1.385 . S
C3524 C3522 1.478 . S
C3524 C3526 1.381 . S
C3524 C3530 1.383 . S
C3525 C3521 1.495 . S
C3525 H3531 0.959 . S
C3525 H3532 0.961 . S
C3525 H3533 0.960 . S
C3526 C3524 1.381 . S
C3526 C3527 1.394 . S
C3526 H3534 0.930 . S
C3527 C3526 1.394 . S
C3527 C3528 1.383 . S
C3527 H3535 0.929 . S
C3528 C3527 1.383 . S
C3528 C3529 1.377 . S
C3529 H3513 0.930 . S
C3529 C3528 1.377 . S
C3529 C3530 1.379 . S
C3530 H3514 0.931 . S
C3530 C3524 1.383 . S
C3530 C3529 1.379 . S
H3531 C3525 0.959 . S
H3532 C3525 0.961 . S
H3533 C3525 0.960 . S
H3534 C3526 0.930 . S
H3535 C3527 0.929 . S
H3536 C3544 0.929 . S
H3537 C3546 0.930 . S
H3538 C3548 0.930 . S
H3539 C3551 0.929 . S
H3540 C3554 0.930 . S
H3541 C3556 0.960 . S
H3542 C3556 0.960 . S
H3543 C3556 0.960 . S
C3544 H3536 0.929 . S
C3544 C3545 1.377 . S
C3544 C3546 1.384 . S
C3545 C3544 1.377 . S
C3545 C3551 1.390 . S
C3546 H3537 0.930 . S
C3546 C3544 1.384 . S
C3546 C3547 1.372 . S
C3547 C3546 1.372 . S
C3547 C3548 1.400 . S
C3547 C3552 1.490 . S
C3548 H3538 0.930 . S
C3548 C3547 1.400 . S
C3548 C3551 1.386 . S
H3549 C3565 0.930 . S
H3550 C3566 0.931 . S
C3551 H3539 0.929 . S
C3551 C3545 1.390 . S
C3551 C3548 1.386 . S
C3552 C3547 1.490 . S
C3552 C3554 1.395 . S
C3552 C3555 1.403 . S
H3553 C3559 0.930 . S
C3554 H3540 0.930 . S
C3554 C3552 1.395 . S
C3554 C3557 1.403 . S
C3555 C3552 1.403 . S
C3555 C3556 1.524 . S
C3555 C3559 1.400 . S
C3556 H3541 0.960 . S
C3556 H3542 0.960 . S
C3556 H3543 0.960 . S
C3556 C3555 1.524 . S
C3557 C3554 1.403 . S
C3557 C3558 1.392 . S
C3557 C3561 1.495 . S
C3558 C3557 1.392 . S
C3558 C3559 1.385 . S
C3558 C3560 1.478 . S
C3559 H3553 0.930 . S
C3559 C3555 1.400 . S
C3559 C3558 1.385 . S
C3560 C3558 1.478 . S
C3560 C3562 1.381 . S
C3560 C3566 1.383 . S
C3561 C3557 1.495 . S
C3561 H3567 0.959 . S
C3561 H3568 0.961 . S
C3561 H3569 0.960 . S
C3562 C3560 1.381 . S
C3562 C3563 1.394 . S
C3562 H3570 0.930 . S
C3563 C3562 1.394 . S
C3563 C3564 1.383 . S
C3563 H3571 0.929 . S
C3564 C3563 1.383 . S
C3564 C3565 1.377 . S
C3565 H3549 0.930 . S
C3565 C3564 1.377 . S
C3565 C3566 1.379 . S
C3566 H3550 0.931 . S
C3566 C3560 1.383 . S
C3566 C3565 1.379 . S
H3567 C3561 0.959 . S
H3568 C3561 0.961 . S
H3569 C3561 0.960 . S
H3570 C3562 0.930 . S
H3571 C3563 0.929 . S
H3572 C3580 0.929 . S
H3573 C3582 0.930 . S
H3574 C3584 0.930 . S
H3575 C3587 0.929 . S
H3576 C3590 0.930 . S
H3577 C3592 0.960 . S
H3578 C3592 0.960 . S
H3579 C3592 0.960 . S
C3580 H3572 0.929 . S
C3580 C3581 1.377 . S
C3580 C3582 1.384 . S
C3581 C3580 1.377 . S
C3581 C3587 1.390 . S
C3582 H3573 0.930 . S
C3582 C3580 1.384 . S
C3582 C3583 1.372 . S
C3583 C3582 1.372 . S
C3583 C3584 1.400 . S
C3583 C3588 1.490 . S
C3584 H3574 0.930 . S
C3584 C3583 1.400 . S
C3584 C3587 1.386 . S
H3585 C3601 0.930 . S
H3586 C3602 0.931 . S
C3587 H3575 0.929 . S
C3587 C3581 1.390 . S
C3587 C3584 1.386 . S
C3588 C3583 1.490 . S
C3588 C3590 1.395 . S
C3588 C3591 1.403 . S
H3589 C3595 0.930 . S
C3590 H3576 0.930 . S
C3590 C3588 1.395 . S
C3590 C3593 1.403 . S
C3591 C3588 1.403 . S
C3591 C3592 1.524 . S
C3591 C3595 1.400 . S
C3592 H3577 0.960 . S
C3592 H3578 0.960 . S
C3592 H3579 0.960 . S
C3592 C3591 1.524 . S
C3593 C3590 1.403 . S
C3593 C3594 1.392 . S
C3593 C3597 1.495 . S
C3594 C3593 1.392 . S
C3594 C3595 1.385 . S
C3594 C3596 1.478 . S
C3595 H3589 0.930 . S
C3595 C3591 1.400 . S
C3595 C3594 1.385 . S
C3596 C3594 1.478 . S
C3596 C3598 1.381 . S
C3596 C3602 1.383 . S
C3597 C3593 1.495 . S
C3597 H3603 0.959 . S
C3597 H3604 0.961 . S
C3597 H3605 0.960 . S
C3598 C3596 1.381 . S
C3598 C3599 1.394 . S
C3598 H3606 0.930 . S
C3599 C3598 1.394 . S
C3599 C3600 1.383 . S
C3599 H3607 0.929 . S
C3600 C3599 1.383 . S
C3600 C3601 1.377 . S
C3601 H3585 0.930 . S
C3601 C3600 1.377 . S
C3601 C3602 1.379 . S
C3602 H3586 0.931 . S
C3602 C3596 1.383 . S
C3602 C3601 1.379 . S
H3603 C3597 0.959 . S
H3604 C3597 0.961 . S
H3605 C3597 0.960 . S
H3606 C3598 0.930 . S
H3607 C3599 0.929 . S
H3608 C3616 0.929 . S
H3609 C3618 0.930 . S
H3610 C3620 0.930 . S
H3611 C3623 0.929 . S
H3612 C3626 0.930 . S
H3613 C3628 0.960 . S
H3614 C3628 0.960 . S
H3615 C3628 0.960 . S
C3616 H3608 0.929 . S
C3616 C3617 1.377 . S
C3616 C3618 1.384 . S
C3617 C3616 1.377 . S
C3617 C3623 1.390 . S
C3618 H3609 0.930 . S
C3618 C3616 1.384 . S
C3618 C3619 1.372 . S
C3619 C3618 1.372 . S
C3619 C3620 1.400 . S
C3619 C3624 1.490 . S
C3620 H3610 0.930 . S
C3620 C3619 1.400 . S
C3620 C3623 1.386 . S
H3621 C3637 0.930 . S
H3622 C3638 0.931 . S
C3623 H3611 0.929 . S
C3623 C3617 1.390 . S
C3623 C3620 1.386 . S
C3624 C3619 1.490 . S
C3624 C3626 1.395 . S
C3624 C3627 1.403 . S
H3625 C3631 0.930 . S
C3626 H3612 0.930 . S
C3626 C3624 1.395 . S
C3626 C3629 1.403 . S
C3627 C3624 1.403 . S
C3627 C3628 1.524 . S
C3627 C3631 1.400 . S
C3628 H3613 0.960 . S
C3628 H3614 0.960 . S
C3628 H3615 0.960 . S
C3628 C3627 1.524 . S
C3629 C3626 1.403 . S
C3629 C3630 1.392 . S
C3629 C3633 1.495 . S
C3630 C3629 1.392 . S
C3630 C3631 1.385 . S
C3630 C3632 1.478 . S
C3631 H3625 0.930 . S
C3631 C3627 1.400 . S
C3631 C3630 1.385 . S
C3632 C3630 1.478 . S
C3632 C3634 1.381 . S
C3632 C3638 1.383 . S
C3633 C3629 1.495 . S
C3633 H3639 0.959 . S
C3633 H3640 0.961 . S
C3633 H3641 0.960 . S
C3634 C3632 1.381 . S
C3634 C3635 1.394 . S
C3634 H3642 0.930 . S
C3635 C3634 1.394 . S
C3635 C3636 1.383 . S
C3635 H3643 0.929 1_655 S
C3636 C3635 1.383 . S
C3636 C3637 1.377 . S
C3637 H3621 0.930 . S
C3637 C3636 1.377 . S
C3637 C3638 1.379 . S
C3638 H3622 0.931 . S
C3638 C3632 1.383 . S
C3638 C3637 1.379 . S
H3639 C3633 0.959 . S
H3640 C3633 0.961 . S
H3641 C3633 0.960 . S
H3642 C3634 0.930 . S
H3643 C3635 0.929 1_455 S
H3644 C3652 0.929 . S
H3645 C3654 0.930 . S
H3646 C3656 0.930 . S
H3647 C3659 0.929 . S
H3648 C3662 0.930 . S
H3649 C3664 0.960 . S
H3650 C3664 0.960 . S
H3651 C3664 0.960 . S
C3652 H3644 0.929 . S
C3652 C3653 1.377 . S
C3652 C3654 1.384 . S
C3653 C3652 1.377 . S
C3653 C3659 1.390 . S
C3654 H3645 0.930 . S
C3654 C3652 1.384 . S
C3654 C3655 1.372 . S
C3655 C3654 1.372 . S
C3655 C3656 1.400 . S
C3655 C3660 1.490 . S
C3656 H3646 0.930 . S
C3656 C3655 1.400 . S
C3656 C3659 1.386 . S
H3657 C3673 0.930 . S
H3658 C3674 0.931 . S
C3659 H3647 0.929 . S
C3659 C3653 1.390 . S
C3659 C3656 1.386 . S
C3660 C3655 1.490 . S
C3660 C3662 1.395 . S
C3660 C3663 1.403 . S
H3661 C3667 0.930 . S
C3662 H3648 0.930 . S
C3662 C3660 1.395 . S
C3662 C3665 1.403 . S
C3663 C3660 1.403 . S
C3663 C3664 1.524 . S
C3663 C3667 1.400 . S
C3664 H3649 0.960 . S
C3664 H3650 0.960 . S
C3664 H3651 0.960 . S
C3664 C3663 1.524 . S
C3665 C3662 1.403 . S
C3665 C3666 1.392 . S
C3665 C3669 1.495 . S
C3666 C3665 1.392 . S
C3666 C3667 1.385 . S
C3666 C3668 1.478 . S
C3667 H3661 0.930 . S
C3667 C3663 1.400 . S
C3667 C3666 1.385 . S
C3668 C3666 1.478 . S
C3668 C3670 1.381 . S
C3668 C3674 1.383 . S
C3669 C3665 1.495 . S
C3669 H3675 0.959 . S
C3669 H3676 0.961 . S
C3669 H3677 0.960 . S
C3670 C3668 1.381 . S
C3670 C3671 1.394 . S
C3670 H3678 0.930 . S
C3671 C3670 1.394 . S
C3671 C3672 1.383 . S
C3671 H3679 0.929 . S
C3672 C3671 1.383 . S
C3672 C3673 1.377 . S
C3673 H3657 0.930 . S
C3673 C3672 1.377 . S
C3673 C3674 1.379 . S
C3674 H3658 0.931 . S
C3674 C3668 1.383 . S
C3674 C3673 1.379 . S
H3675 C3669 0.959 . S
H3676 C3669 0.961 . S
H3677 C3669 0.960 . S
H3678 C3670 0.930 . S
H3679 C3671 0.929 . S
H3680 C3688 0.929 . S
H3681 C3690 0.930 . S
H3682 C3692 0.930 . S
H3683 C3695 0.929 . S
H3684 C3698 0.930 . S
H3685 C3700 0.960 . S
H3686 C3700 0.960 . S
H3687 C3700 0.960 . S
C3688 H3680 0.929 . S
C3688 C3689 1.377 . S
C3688 C3690 1.384 . S
C3689 C3688 1.377 . S
C3689 C3695 1.390 . S
C3690 H3681 0.930 . S
C3690 C3688 1.384 . S
C3690 C3691 1.372 . S
C3691 C3690 1.372 . S
C3691 C3692 1.400 . S
C3691 C3696 1.490 . S
C3692 H3682 0.930 . S
C3692 C3691 1.400 . S
C3692 C3695 1.386 . S
H3693 C3709 0.930 . S
H3694 C3710 0.931 . S
C3695 H3683 0.929 . S
C3695 C3689 1.390 . S
C3695 C3692 1.386 . S
C3696 C3691 1.490 . S
C3696 C3698 1.395 . S
C3696 C3699 1.403 . S
H3697 C3703 0.930 . S
C3698 H3684 0.930 . S
C3698 C3696 1.395 . S
C3698 C3701 1.403 . S
C3699 C3696 1.403 . S
C3699 C3700 1.524 . S
C3699 C3703 1.400 . S
C3700 H3685 0.960 . S
C3700 H3686 0.960 . S
C3700 H3687 0.960 . S
C3700 C3699 1.524 . S
C3701 C3698 1.403 . S
C3701 C3702 1.392 . S
C3701 C3705 1.495 . S
C3702 C3701 1.392 . S
C3702 C3703 1.385 . S
C3702 C3704 1.478 . S
C3703 H3697 0.930 . S
C3703 C3699 1.400 . S
C3703 C3702 1.385 . S
C3704 C3702 1.478 . S
C3704 C3706 1.381 . S
C3704 C3710 1.383 . S
C3705 C3701 1.495 . S
C3705 H3711 0.959 . S
C3705 H3712 0.961 . S
C3705 H3713 0.960 . S
C3706 C3704 1.381 . S
C3706 C3707 1.394 . S
C3706 H3714 0.930 . S
C3707 C3706 1.394 . S
C3707 C3708 1.383 . S
C3707 H3715 0.929 . S
C3708 C3707 1.383 . S
C3708 C3709 1.377 . S
C3709 H3693 0.930 . S
C3709 C3708 1.377 . S
C3709 C3710 1.379 . S
C3710 H3694 0.931 . S
C3710 C3704 1.383 . S
C3710 C3709 1.379 . S
H3711 C3705 0.959 . S
H3712 C3705 0.961 . S
H3713 C3705 0.960 . S
H3714 C3706 0.930 . S
H3715 C3707 0.929 . S
H3716 C3724 0.929 . S
H3717 C3726 0.930 . S
H3718 C3728 0.930 . S
H3719 C3731 0.929 . S
H3720 C3734 0.930 . S
H3721 C3736 0.960 . S
H3722 C3736 0.960 . S
H3723 C3736 0.960 . S
C3724 H3716 0.929 . S
C3724 C3725 1.377 . S
C3724 C3726 1.384 . S
C3725 C3724 1.377 . S
C3725 C3731 1.390 . S
C3726 H3717 0.930 . S
C3726 C3724 1.384 . S
C3726 C3727 1.372 . S
C3727 C3726 1.372 . S
C3727 C3728 1.400 . S
C3727 C3732 1.490 . S
C3728 H3718 0.930 . S
C3728 C3727 1.400 . S
C3728 C3731 1.386 . S
H3729 C3745 0.930 . S
H3730 C3746 0.931 . S
C3731 H3719 0.929 . S
C3731 C3725 1.390 . S
C3731 C3728 1.386 . S
C3732 C3727 1.490 . S
C3732 C3734 1.395 . S
C3732 C3735 1.403 . S
H3733 C3739 0.930 . S
C3734 H3720 0.930 . S
C3734 C3732 1.395 . S
C3734 C3737 1.403 . S
C3735 C3732 1.403 . S
C3735 C3736 1.524 . S
C3735 C3739 1.400 . S
C3736 H3721 0.960 . S
C3736 H3722 0.960 . S
C3736 H3723 0.960 . S
C3736 C3735 1.524 . S
C3737 C3734 1.403 . S
C3737 C3738 1.392 . S
C3737 C3741 1.495 . S
C3738 C3737 1.392 . S
C3738 C3739 1.385 . S
C3738 C3740 1.478 . S
C3739 H3733 0.930 . S
C3739 C3735 1.400 . S
C3739 C3738 1.385 . S
C3740 C3738 1.478 . S
C3740 C3742 1.381 . S
C3740 C3746 1.383 . S
C3741 C3737 1.495 . S
C3741 H3747 0.959 . S
C3741 H3748 0.961 . S
C3741 H3749 0.960 . S
C3742 C3740 1.381 . S
C3742 C3743 1.394 . S
C3742 H3750 0.930 . S
C3743 C3742 1.394 . S
C3743 C3744 1.383 . S
C3743 H3751 0.929 . S
C3744 C3743 1.383 . S
C3744 C3745 1.377 . S
C3745 H3729 0.930 . S
C3745 C3744 1.377 . S
C3745 C3746 1.379 . S
C3746 H3730 0.931 . S
C3746 C3740 1.383 . S
C3746 C3745 1.379 . S
H3747 C3741 0.959 . S
H3748 C3741 0.961 . S
H3749 C3741 0.960 . S
H3750 C3742 0.930 . S
H3751 C3743 0.929 . S
H3752 C3760 0.929 . S
H3753 C3762 0.930 . S
H3754 C3764 0.930 . S
H3755 C3767 0.929 . S
H3756 C3770 0.930 . S
H3757 C3772 0.960 . S
H3758 C3772 0.960 . S
H3759 C3772 0.960 . S
C3760 H3752 0.929 . S
C3760 C3761 1.377 . S
C3760 C3762 1.384 . S
C3761 C3760 1.377 . S
C3761 C3767 1.390 . S
C3762 H3753 0.930 . S
C3762 C3760 1.384 . S
C3762 C3763 1.372 . S
C3763 C3762 1.372 . S
C3763 C3764 1.400 . S
C3763 C3768 1.490 . S
C3764 H3754 0.930 . S
C3764 C3763 1.400 . S
C3764 C3767 1.386 . S
H3765 C3781 0.930 . S
H3766 C3782 0.931 . S
C3767 H3755 0.929 . S
C3767 C3761 1.390 . S
C3767 C3764 1.386 . S
C3768 C3763 1.490 . S
C3768 C3770 1.395 . S
C3768 C3771 1.403 . S
H3769 C3775 0.930 . S
C3770 H3756 0.930 . S
C3770 C3768 1.395 . S
C3770 C3773 1.403 . S
C3771 C3768 1.403 . S
C3771 C3772 1.524 . S
C3771 C3775 1.400 . S
C3772 H3757 0.960 . S
C3772 H3758 0.960 . S
C3772 H3759 0.960 . S
C3772 C3771 1.524 . S
C3773 C3770 1.403 . S
C3773 C3774 1.392 . S
C3773 C3777 1.495 . S
C3774 C3773 1.392 . S
C3774 C3775 1.385 . S
C3774 C3776 1.478 . S
C3775 H3769 0.930 . S
C3775 C3771 1.400 . S
C3775 C3774 1.385 . S
C3776 C3774 1.478 . S
C3776 C3778 1.381 . S
C3776 C3782 1.383 . S
C3777 C3773 1.495 . S
C3777 H3783 0.959 . S
C3777 H3784 0.961 . S
C3777 H3785 0.960 . S
C3778 C3776 1.381 . S
C3778 C3779 1.394 . S
C3778 H3786 0.930 . S
C3779 C3778 1.394 . S
C3779 C3780 1.383 . S
C3779 H3787 0.929 . S
C3780 C3779 1.383 . S
C3780 C3781 1.377 . S
C3781 H3765 0.930 . S
C3781 C3780 1.377 . S
C3781 C3782 1.379 . S
C3782 H3766 0.931 . S
C3782 C3776 1.383 . S
C3782 C3781 1.379 . S
H3783 C3777 0.959 . S
H3784 C3777 0.961 . S
H3785 C3777 0.960 . S
H3786 C3778 0.930 . S
H3787 C3779 0.929 . S
H3788 C3796 0.929 . S
H3789 C3798 0.930 . S
H3790 C3800 0.930 . S
H3791 C3803 0.929 . S
H3792 C3806 0.930 . S
H3793 C3808 0.960 . S
H3794 C3808 0.960 . S
H3795 C3808 0.960 . S
C3796 H3788 0.929 . S
C3796 C3797 1.377 . S
C3796 C3798 1.384 . S
C3797 C3796 1.377 . S
C3797 C3803 1.390 . S
C3798 H3789 0.930 . S
C3798 C3796 1.384 . S
C3798 C3799 1.372 . S
C3799 C3798 1.372 . S
C3799 C3800 1.400 . S
C3799 C3804 1.490 . S
C3800 H3790 0.930 . S
C3800 C3799 1.400 . S
C3800 C3803 1.386 . S
H3801 C3817 0.930 . S
H3802 C3818 0.931 . S
C3803 H3791 0.929 . S
C3803 C3797 1.390 . S
C3803 C3800 1.386 . S
C3804 C3799 1.490 . S
C3804 C3806 1.395 . S
C3804 C3807 1.403 . S
H3805 C3811 0.930 . S
C3806 H3792 0.930 . S
C3806 C3804 1.395 . S
C3806 C3809 1.403 . S
C3807 C3804 1.403 . S
C3807 C3808 1.524 . S
C3807 C3811 1.400 . S
C3808 H3793 0.960 . S
C3808 H3794 0.960 . S
C3808 H3795 0.960 . S
C3808 C3807 1.524 . S
C3809 C3806 1.403 . S
C3809 C3810 1.392 . S
C3809 C3813 1.495 . S
C3810 C3809 1.392 . S
C3810 C3811 1.385 . S
C3810 C3812 1.478 . S
C3811 H3805 0.930 . S
C3811 C3807 1.400 . S
C3811 C3810 1.385 . S
C3812 C3810 1.478 . S
C3812 C3814 1.381 . S
C3812 C3818 1.383 . S
C3813 C3809 1.495 . S
C3813 H3819 0.959 . S
C3813 H3820 0.961 . S
C3813 H3821 0.960 . S
C3814 C3812 1.381 . S
C3814 C3815 1.394 . S
C3814 H3822 0.930 . S
C3815 C3814 1.394 . S
C3815 C3816 1.383 . S
C3815 H3823 0.929 . S
C3816 C3815 1.383 . S
C3816 C3817 1.377 . S
C3817 H3801 0.930 . S
C3817 C3816 1.377 . S
C3817 C3818 1.379 . S
C3818 H3802 0.931 . S
C3818 C3812 1.383 . S
C3818 C3817 1.379 . S
H3819 C3813 0.959 . S
H3820 C3813 0.961 . S
H3821 C3813 0.960 . S
H3822 C3814 0.930 . S
H3823 C3815 0.929 . S
H3824 C3832 0.929 . S
H3825 C3834 0.930 . S
H3826 C3836 0.930 . S
H3827 C3839 0.929 . S
H3828 C3842 0.930 . S
H3829 C3844 0.960 . S
H3830 C3844 0.960 . S
H3831 C3844 0.960 . S
C3832 H3824 0.929 . S
C3832 C3833 1.377 . S
C3832 C3834 1.384 . S
C3833 C3832 1.377 . S
C3833 C3839 1.390 . S
C3834 H3825 0.930 . S
C3834 C3832 1.384 . S
C3834 C3835 1.372 . S
C3835 C3834 1.372 . S
C3835 C3836 1.400 . S
C3835 C3840 1.490 . S
C3836 H3826 0.930 . S
C3836 C3835 1.400 . S
C3836 C3839 1.386 . S
H3837 C3853 0.930 . S
H3838 C3854 0.931 . S
C3839 H3827 0.929 . S
C3839 C3833 1.390 . S
C3839 C3836 1.386 . S
C3840 C3835 1.490 . S
C3840 C3842 1.395 . S
C3840 C3843 1.403 . S
H3841 C3847 0.930 . S
C3842 H3828 0.930 . S
C3842 C3840 1.395 . S
C3842 C3845 1.403 . S
C3843 C3840 1.403 . S
C3843 C3844 1.524 . S
C3843 C3847 1.400 . S
C3844 H3829 0.960 . S
C3844 H3830 0.960 . S
C3844 H3831 0.960 . S
C3844 C3843 1.524 . S
C3845 C3842 1.403 . S
C3845 C3846 1.392 . S
C3845 C3849 1.495 . S
C3846 C3845 1.392 . S
C3846 C3847 1.385 . S
C3846 C3848 1.478 . S
C3847 H3841 0.930 . S
C3847 C3843 1.400 . S
C3847 C3846 1.385 . S
C3848 C3846 1.478 . S
C3848 C3850 1.381 . S
C3848 C3854 1.383 . S
C3849 C3845 1.495 . S
C3849 H3855 0.959 . S
C3849 H3856 0.961 . S
C3849 H3857 0.960 . S
C3850 C3848 1.381 . S
C3850 C3851 1.394 . S
C3850 H3858 0.930 . S
C3851 C3850 1.394 . S
C3851 C3852 1.383 . S
C3851 H3859 0.929 . S
C3852 C3851 1.383 . S
C3852 C3853 1.377 . S
C3853 H3837 0.930 . S
C3853 C3852 1.377 . S
C3853 C3854 1.379 . S
C3854 H3838 0.931 . S
C3854 C3848 1.383 . S
C3854 C3853 1.379 . S
H3855 C3849 0.959 . S
H3856 C3849 0.961 . S
H3857 C3849 0.960 . S
H3858 C3850 0.930 . S
H3859 C3851 0.929 . S
H3860 C3868 0.929 . S
H3861 C3870 0.930 . S
H3862 C3872 0.930 . S
H3863 C3875 0.929 . S
H3864 C3878 0.930 . S
H3865 C3880 0.960 . S
H3866 C3880 0.960 . S
H3867 C3880 0.960 . S
C3868 H3860 0.929 . S
C3868 C3869 1.377 . S
C3868 C3870 1.384 . S
C3869 C3868 1.377 . S
C3869 C3875 1.390 . S
C3870 H3861 0.930 . S
C3870 C3868 1.384 . S
C3870 C3871 1.372 . S
C3871 C3870 1.372 . S
C3871 C3872 1.400 . S
C3871 C3876 1.490 . S
C3872 H3862 0.930 . S
C3872 C3871 1.400 . S
C3872 C3875 1.386 . S
H3873 C3889 0.930 . S
H3874 C3890 0.931 . S
C3875 H3863 0.929 . S
C3875 C3869 1.390 . S
C3875 C3872 1.386 . S
C3876 C3871 1.490 . S
C3876 C3878 1.395 . S
C3876 C3879 1.403 . S
H3877 C3883 0.930 . S
C3878 H3864 0.930 . S
C3878 C3876 1.395 . S
C3878 C3881 1.403 . S
C3879 C3876 1.403 . S
C3879 C3880 1.524 . S
C3879 C3883 1.400 . S
C3880 H3865 0.960 . S
C3880 H3866 0.960 . S
C3880 H3867 0.960 . S
C3880 C3879 1.524 . S
C3881 C3878 1.403 . S
C3881 C3882 1.392 . S
C3881 C3885 1.440 1_565 S
C3882 C3881 1.392 . S
C3882 C3883 1.385 . S
C3882 C3884 1.478 . S
C3883 H3877 0.930 . S
C3883 C3879 1.400 . S
C3883 C3882 1.385 . S
C3884 C3882 1.478 . S
C3884 C3886 1.381 . S
C3884 C3890 1.383 . S
C3885 C3881 1.440 1_545 S
C3885 H3891 0.982 . S
C3885 H3892 0.959 . S
C3885 H3893 1.000 . S
C3886 C3884 1.381 . S
C3886 C3887 1.394 1_565 S
C3886 H3894 0.930 1_565 S
C3887 C3886 1.394 1_545 S
C3887 C3888 1.402 . S
C3887 H3895 0.929 . S
C3888 C3887 1.402 . S
C3888 C3889 1.347 1_545 S
C3889 H3873 0.930 . S
C3889 C3888 1.347 1_565 S
C3889 C3890 1.379 . S
C3890 H3874 0.931 . S
C3890 C3884 1.383 . S
C3890 C3889 1.379 . S
H3891 C3885 0.982 . S
H3892 C3885 0.959 . S
H3893 C3885 1.000 . S
H3894 C3886 0.930 1_545 S
H3895 C3887 0.929 . S
H3896 C3904 0.929 . S
H3897 C3906 0.930 . S
H3898 C3908 0.930 . S
H3899 C3911 0.929 . S
H3900 C3914 0.930 . S
H3901 C3916 0.960 . S
H3902 C3916 0.960 . S
H3903 C3916 0.960 . S
C3904 H3896 0.929 . S
C3904 C3905 1.377 . S
C3904 C3906 1.384 . S
C3905 C3904 1.377 . S
C3905 C3911 1.390 . S
C3906 H3897 0.930 . S
C3906 C3904 1.384 . S
C3906 C3907 1.372 . S
C3907 C3906 1.372 . S
C3907 C3908 1.400 . S
C3907 C3912 1.490 . S
C3908 H3898 0.930 . S
C3908 C3907 1.400 . S
C3908 C3911 1.386 . S
H3909 C3925 0.930 . S
H3910 C3926 0.931 . S
C3911 H3899 0.929 . S
C3911 C3905 1.390 . S
C3911 C3908 1.386 . S
C3912 C3907 1.490 . S
C3912 C3914 1.395 . S
C3912 C3915 1.403 . S
H3913 C3919 0.930 . S
C3914 H3900 0.930 . S
C3914 C3912 1.395 . S
C3914 C3917 1.403 . S
C3915 C3912 1.403 . S
C3915 C3916 1.524 . S
C3915 C3919 1.400 . S
C3916 H3901 0.960 . S
C3916 H3902 0.960 . S
C3916 H3903 0.960 . S
C3916 C3915 1.524 . S
C3917 C3914 1.403 . S
C3917 C3918 1.392 . S
C3917 C3921 1.495 . S
C3918 C3917 1.392 . S
C3918 C3919 1.385 . S
C3918 C3920 1.478 . S
C3919 H3913 0.930 . S
C3919 C3915 1.400 . S
C3919 C3918 1.385 . S
C3920 C3918 1.478 . S
C3920 C3922 1.381 . S
C3920 C3926 1.383 . S
C3921 C3917 1.495 . S
C3921 H3927 0.959 . S
C3921 H3928 0.961 . S
C3921 H3929 0.960 . S
C3922 C3920 1.381 . S
C3922 C3923 1.394 . S
C3922 H3930 0.930 . S
C3923 C3922 1.394 . S
C3923 C3924 1.383 . S
C3923 H3931 0.929 . S
C3924 C3923 1.383 . S
C3924 C3925 1.377 . S
C3925 H3909 0.930 . S
C3925 C3924 1.377 . S
C3925 C3926 1.379 . S
C3926 H3910 0.931 . S
C3926 C3920 1.383 . S
C3926 C3925 1.379 . S
H3927 C3921 0.959 . S
H3928 C3921 0.961 . S
H3929 C3921 0.960 . S
H3930 C3922 0.930 . S
H3931 C3923 0.929 . S
H3932 C3940 0.929 . S
H3933 C3942 0.930 . S
H3934 C3944 0.930 . S
H3935 C3947 0.929 . S
H3936 C3950 0.930 . S
H3937 C3952 0.960 . S
H3938 C3952 0.960 . S
H3939 C3952 0.960 . S
C3940 H3932 0.929 . S
C3940 C3941 1.377 . S
C3940 C3942 1.384 . S
C3941 C3940 1.377 . S
C3941 C3947 1.390 1_556 S
C3942 H3933 0.930 . S
C3942 C3940 1.384 . S
C3942 C3943 1.384 . S
C3943 C3942 1.384 . S
C3943 C3944 1.392 1_556 S
C3943 C3948 1.486 1_556 S
C3944 H3934 0.930 . S
C3944 C3943 1.392 1_554 S
C3944 C3947 1.386 . S
H3945 C3961 0.930 . S
H3946 C3962 0.931 . S
C3947 H3935 0.929 . S
C3947 C3941 1.390 1_554 S
C3947 C3944 1.386 . S
C3948 C3943 1.486 1_554 S
C3948 C3950 1.395 . S
C3948 C3951 1.403 1_554 S
H3949 C3955 0.930 . S
C3950 H3936 0.930 . S
C3950 C3948 1.395 . S
C3950 C3953 1.403 . S
C3951 C3948 1.403 1_556 S
C3951 C3952 1.524 . S
C3951 C3955 1.400 . S
C3952 H3937 0.960 . S
C3952 H3938 0.960 . S
C3952 H3939 0.960 . S
C3952 C3951 1.524 . S
C3953 C3950 1.403 . S
C3953 C3954 1.392 . S
C3953 C3957 1.495 . S
C3954 C3953 1.392 . S
C3954 C3955 1.385 1_554 S
C3954 C3956 1.478 . S
C3955 H3949 0.930 . S
C3955 C3951 1.400 . S
C3955 C3954 1.385 1_556 S
C3956 C3954 1.478 . S
C3956 C3958 1.381 1_554 S
C3956 C3962 1.383 . S
C3957 C3953 1.495 . S
C3957 H3963 0.959 . S
C3957 H3964 0.961 . S
C3957 H3965 0.960 . S
C3958 C3956 1.381 1_556 S
C3958 C3959 1.394 . S
C3958 H3966 0.930 . S
C3959 C3958 1.394 . S
C3959 C3960 1.383 1_556 S
C3959 H3967 0.929 . S
C3960 C3959 1.383 1_554 S
C3960 C3961 1.377 . S
C3961 H3945 0.930 . S
C3961 C3960 1.377 . S
C3961 C3962 1.379 . S
C3962 H3946 0.931 . S
C3962 C3956 1.383 . S
C3962 C3961 1.379 . S
H3963 C3957 0.959 . S
H3964 C3957 0.961 . S
H3965 C3957 0.960 . S
H3966 C3958 0.930 . S
H3967 C3959 0.929 . S
H3968 C3976 0.929 . S
H3969 C3978 0.930 . S
H3970 C3980 0.930 . S
H3971 C3983 0.929 . S
H3972 C3986 0.930 . S
H3973 C3988 0.960 . S
H3974 C3988 0.960 . S
H3975 C3988 0.960 . S
C3976 H3968 0.929 . S
C3976 C3977 1.377 . S
C3976 C3978 1.384 . S
C3977 C3976 1.377 . S
C3977 C3983 1.390 . S
C3978 H3969 0.930 . S
C3978 C3976 1.384 . S
C3978 C3979 1.372 . S
C3979 C3978 1.372 . S
C3979 C3980 1.400 . S
C3979 C3984 1.490 . S
C3980 H3970 0.930 . S
C3980 C3979 1.400 . S
C3980 C3983 1.386 . S
H3981 C3997 0.930 . S
H3982 C3998 0.931 . S
C3983 H3971 0.929 . S
C3983 C3977 1.390 . S
C3983 C3980 1.386 . S
C3984 C3979 1.490 . S
C3984 C3986 1.395 . S
C3984 C3987 1.403 . S
H3985 C3991 0.930 . S
C3986 H3972 0.930 . S
C3986 C3984 1.395 . S
C3986 C3989 1.403 . S
C3987 C3984 1.403 . S
C3987 C3988 1.524 . S
C3987 C3991 1.400 . S
C3988 H3973 0.960 . S
C3988 H3974 0.960 . S
C3988 H3975 0.960 . S
C3988 C3987 1.524 . S
C3989 C3986 1.403 . S
C3989 C3990 1.392 . S
C3989 C3993 1.495 . S
C3990 C3989 1.392 . S
C3990 C3991 1.385 . S
C3990 C3992 1.478 . S
C3991 H3985 0.930 . S
C3991 C3987 1.400 . S
C3991 C3990 1.385 . S
C3992 C3990 1.478 . S
C3992 C3994 1.381 . S
C3992 C3998 1.383 . S
C3993 C3989 1.495 . S
C3993 H3999 0.959 . S
C3993 H4000 0.961 . S
C3993 H4001 0.960 . S
C3994 C3992 1.381 . S
C3994 C3995 1.394 . S
C3994 H4002 0.930 . S
C3995 C3994 1.394 . S
C3995 C3996 1.383 . S
C3995 H4003 0.929 . S
C3996 C3995 1.383 . S
C3996 C3997 1.377 . S
C3997 H3981 0.930 . S
C3997 C3996 1.377 . S
C3997 C3998 1.379 . S
C3998 H3982 0.931 . S
C3998 C3992 1.383 . S
C3998 C3997 1.379 . S
H3999 C3993 0.959 . S
H4000 C3993 0.961 . S
H4001 C3993 0.960 . S
H4002 C3994 0.930 . S
H4003 C3995 0.929 . S
H4004 C4012 0.929 . S
H4005 C4014 0.930 . S
H4006 C4016 0.930 . S
H4007 C4019 0.929 . S
H4008 C4022 0.930 . S
H4009 C4024 0.960 . S
H4010 C4024 0.960 . S
H4011 C4024 0.960 . S
C4012 H4004 0.929 . S
C4012 C4013 1.377 . S
C4012 C4014 1.384 . S
C4013 C4012 1.377 . S
C4013 C4019 1.390 . S
C4014 H4005 0.930 . S
C4014 C4012 1.384 . S
C4014 C4015 1.372 . S
C4015 C4014 1.372 . S
C4015 C4016 1.400 . S
C4015 C4020 1.490 . S
C4016 H4006 0.930 . S
C4016 C4015 1.400 . S
C4016 C4019 1.386 . S
H4017 C4033 0.930 . S
H4018 C4034 0.931 . S
C4019 H4007 0.929 . S
C4019 C4013 1.390 . S
C4019 C4016 1.386 . S
C4020 C4015 1.490 . S
C4020 C4022 1.395 . S
C4020 C4023 1.403 . S
H4021 C4027 0.930 . S
C4022 H4008 0.930 . S
C4022 C4020 1.395 . S
C4022 C4025 1.403 . S
C4023 C4020 1.403 . S
C4023 C4024 1.524 . S
C4023 C4027 1.400 . S
C4024 H4009 0.960 . S
C4024 H4010 0.960 . S
C4024 H4011 0.960 . S
C4024 C4023 1.524 . S
C4025 C4022 1.403 . S
C4025 C4026 1.392 . S
C4025 C4029 1.495 1_554 S
C4026 C4025 1.392 . S
C4026 C4027 1.385 . S
C4026 C4028 1.478 . S
C4027 H4021 0.930 . S
C4027 C4023 1.400 . S
C4027 C4026 1.385 . S
C4028 C4026 1.478 . S
C4028 C4030 1.381 . S
C4028 C4034 1.383 1_554 S
C4029 C4025 1.495 1_556 S
C4029 H4035 0.959 . S
C4029 H4036 0.961 . S
C4029 H4037 0.956 1_556 S
C4030 C4028 1.381 . S
C4030 C4031 1.394 . S
C4030 H4038 0.930 . S
C4031 C4030 1.394 . S
C4031 C4032 1.412 . S
C4031 H4039 0.929 . S
C4032 C4031 1.412 . S
C4032 C4033 1.353 1_554 S
C4033 H4017 0.930 . S
C4033 C4032 1.353 1_556 S
C4033 C4034 1.379 . S
C4034 H4018 0.931 . S
C4034 C4028 1.383 1_556 S
C4034 C4033 1.379 . S
H4035 C4029 0.959 . S
H4036 C4029 0.961 . S
H4037 C4029 0.956 1_554 S
H4038 C4030 0.930 . S
H4039 C4031 0.929 . S
H4040 C4048 0.929 . S
H4041 C4050 0.930 . S
H4042 C4052 0.930 . S
H4043 C4055 0.929 . S
H4044 C4058 0.930 . S
H4045 C4060 0.960 . S
H4046 C4060 0.960 . S
H4047 C4060 0.960 . S
C4048 H4040 0.929 . S
C4048 C4049 1.377 . S
C4048 C4050 1.384 . S
C4049 C4048 1.377 . S
C4049 C4055 1.390 . S
C4050 H4041 0.930 . S
C4050 C4048 1.384 . S
C4050 C4051 1.372 . S
C4051 C4050 1.372 . S
C4051 C4052 1.400 . S
C4051 C4056 1.490 . S
C4052 H4042 0.930 . S
C4052 C4051 1.400 . S
C4052 C4055 1.386 . S
H4053 C4069 0.930 . S
H4054 C4070 0.931 . S
C4055 H4043 0.929 . S
C4055 C4049 1.390 . S
C4055 C4052 1.386 . S
C4056 C4051 1.490 . S
C4056 C4058 1.395 . S
C4056 C4059 1.403 . S
H4057 C4063 0.930 . S
C4058 H4044 0.930 . S
C4058 C4056 1.395 . S
C4058 C4061 1.403 . S
C4059 C4056 1.403 . S
C4059 C4060 1.524 . S
C4059 C4063 1.400 . S
C4060 H4045 0.960 . S
C4060 H4046 0.960 . S
C4060 H4047 0.960 . S
C4060 C4059 1.524 . S
C4061 C4058 1.403 . S
C4061 C4062 1.392 . S
C4061 C4065 1.495 . S
C4062 C4061 1.392 . S
C4062 C4063 1.385 . S
C4062 C4064 1.478 . S
C4063 H4057 0.930 . S
C4063 C4059 1.400 . S
C4063 C4062 1.385 . S
C4064 C4062 1.478 . S
C4064 C4066 1.381 . S
C4064 C4070 1.383 . S
C4065 C4061 1.495 . S
C4065 H4071 0.959 . S
C4065 H4072 0.961 . S
C4065 H4073 0.960 . S
C4066 C4064 1.381 . S
C4066 C4067 1.394 . S
C4066 H4074 0.930 . S
C4067 C4066 1.394 . S
C4067 C4068 1.383 . S
C4067 H4075 0.929 . S
C4068 C4067 1.383 . S
C4068 C4069 1.377 . S
C4069 H4053 0.930 . S
C4069 C4068 1.377 . S
C4069 C4070 1.379 . S
C4070 H4054 0.931 . S
C4070 C4064 1.383 . S
C4070 C4069 1.379 . S
H4071 C4065 0.959 . S
H4072 C4065 0.961 . S
H4073 C4065 0.960 . S
H4074 C4066 0.930 . S
H4075 C4067 0.929 . S
H4076 C4084 0.929 . S
H4077 C4086 0.930 . S
H4078 C4088 0.930 . S
H4079 C4091 0.929 . S
H4080 C4094 0.930 . S
H4081 C4096 0.960 . S
H4082 C4096 0.960 . S
H4083 C4096 0.960 . S
C4084 H4076 0.929 . S
C4084 C4085 1.377 . S
C4084 C4086 1.384 . S
C4085 C4084 1.377 . S
C4085 C4091 1.390 . S
C4086 H4077 0.930 . S
C4086 C4084 1.384 . S
C4086 C4087 1.372 . S
C4087 C4086 1.372 . S
C4087 C4088 1.400 . S
C4087 C4092 1.490 . S
C4088 H4078 0.930 . S
C4088 C4087 1.400 . S
C4088 C4091 1.386 . S
H4089 C4105 0.930 . S
H4090 C4106 0.931 . S
C4091 H4079 0.929 . S
C4091 C4085 1.390 . S
C4091 C4088 1.386 . S
C4092 C4087 1.490 . S
C4092 C4094 1.395 . S
C4092 C4095 1.403 . S
H4093 C4099 0.930 . S
C4094 H4080 0.930 . S
C4094 C4092 1.395 . S
C4094 C4097 1.403 . S
C4095 C4092 1.403 . S
C4095 C4096 1.524 . S
C4095 C4099 1.400 . S
C4096 H4081 0.960 . S
C4096 H4082 0.960 . S
C4096 H4083 0.960 . S
C4096 C4095 1.524 . S
C4097 C4094 1.403 . S
C4097 C4098 1.392 . S
C4097 C4101 1.495 . S
C4098 C4097 1.392 . S
C4098 C4099 1.385 . S
C4098 C4100 1.478 . S
C4099 H4093 0.930 . S
C4099 C4095 1.400 . S
C4099 C4098 1.385 . S
C4100 C4098 1.478 . S
C4100 C4102 1.381 . S
C4100 C4106 1.383 . S
C4101 C4097 1.495 . S
C4101 H4107 0.959 . S
C4101 H4108 0.961 . S
C4101 H4109 0.960 . S
C4102 C4100 1.381 . S
C4102 C4103 1.394 . S
C4102 H4110 0.930 . S
C4103 C4102 1.394 . S
C4103 C4104 1.383 . S
C4103 H4111 0.929 . S
C4104 C4103 1.383 . S
C4104 C4105 1.377 . S
C4105 H4089 0.930 . S
C4105 C4104 1.377 . S
C4105 C4106 1.379 . S
C4106 H4090 0.931 . S
C4106 C4100 1.383 . S
C4106 C4105 1.379 . S
H4107 C4101 0.959 . S
H4108 C4101 0.961 . S
H4109 C4101 0.960 . S
H4110 C4102 0.930 . S
H4111 C4103 0.929 . S
C665 C109 1.137 . S
C684 C352 1.072 1_556 S
C701 C65 1.195 . S
C720 C365 1.183 . S
C737 C75 1.250 . S
C756 C384 1.251 . S
C792 C415 1.985 . S
C773 C84 2.028 . S
C809 C25 1.777 . S
C828 C435 1.764 . S
C864 C452 0.729 . S
C845 C28 0.682 . S
C900 C465 1.513 . S
C881 C47 1.511 . S
C917 C9 0.918 . S
C936 C492 0.860 . S
C972 C345 1.167 1_655 S
C953 C233 1.194 . S
C989 C249 1.333 . S
C1008 C375 1.296 . S
C1044 C377 1.720 . S
C1025 C275 1.755 . S
C1080 C412 0.780 . S
C1061 C173 0.746 . S
C1097 C224 1.075 . S
C1116 C432 1.067 . S
C1152 C445 1.800 . S
C1133 C243 1.798 . S
C1188 C475 1.156 . S
C1169 C266 1.170 . S
C1224 C485 1.078 . S
C1205 C179 1.084 . S
C1260 C355 1.563 . S
C1241 C163 1.615 . S
C1277 C289 1.853 . S
C1296 C505 1.821 . S
C1332 C535 1.558 . S
C1313 C333 1.550 . S
C1368 C552 1.060 . S
C1349 C308 1.054 . S
C1385 C123 1.989 . S
C1404 C495 1.976 . S
C1421 C126 1.217 . S
C1440 C382 1.184 . S
C1457 C327 1.934 . S
C1476 C565 1.904 . S
C1512 C592 0.883 . S
C1493 C299 0.881 . S
C1548 C342 1.096 . S
C1529 C67 1.153 . S
C1584 C577 1.208 . S
C1565 C98 1.212 . S
C1601 C89 1.282 . S
C1620 C395 1.247 . S
C1637 C79 2.073 . S
C1656 C564 2.016 . S
C1692 C424 1.793 . S
C1673 C11 1.807 . S
C1709 C51 0.718 . S
C1728 C522 0.732 . S
C1764 C457 1.535 1_556 S
C1745 C33 1.545 . S
C1800 C602 0.935 . S
C1781 C14 0.933 . S
C1836 C337 1.146 . S
C1817 C140 1.179 . S
C1872 C584 1.322 . S
C1853 C319 1.361 . S
C1889 C112 1.762 . S
C1908 C385 1.748 . S
C1925 C285 0.779 . S
C1944 C562 0.810 . S
C1961 C149 1.127 . S
C1980 C422 1.110 . S
C2016 C517 1.821 . S
C1997 C313 1.839 . S
C2033 C121 1.253 . S
C2052 C464 1.225 . S
C2069 C291 1.121 . S
C2088 C597 1.114 . S
C2105 C182 1.626 . S
C2124 C344 1.577 . S
C2141 C168 1.859 . S
C2160 C497 1.852 . S
C2177 C263 1.607 . S
C2196 C444 1.571 . S
C2213 C247 1.120 . S
C2232 C542 1.070 . S
C2268 C604 1.953 . S
C2249 C277 1.999 . S
C2285 C219 1.268 . S
C2304 C392 1.217 1_565 S
C2340 C397 1.959 . S
C2321 C257 1.976 . S
C2376 C362 0.917 . S
C2357 C201 0.896 . S
C2393 C81 1.135 . S
C2412 C632 1.126 . S
C2448 C585 1.189 . S
C2429 C93 1.194 . S
C2465 C103 1.253 . S
C2484 C644 1.228 1_556 S
C2501 C56 2.028 . S
C2520 C575 1.969 . S
C2537 C53 1.776 . S
C2556 C515 1.766 . S
C2592 C532 0.681 . S
C2573 C0 0.691 . S
C2628 C545 1.505 1_655 S
C2609 C19 1.508 . S
C2664 C612 0.939 . S
C2645 C37 0.914 . S
C2700 C625 1.159 . S
C2681 C261 1.195 . S
C2717 C193 1.334 . S
C2736 C595 1.302 . S
C2772 C637 1.721 . S
C2753 C205 1.755 . S
C2808 C572 0.785 . S
C2789 C215 0.748 . S
C2844 C512 1.094 . S
C2825 C252 1.069 . S
C2861 C187 1.799 . S
C2880 C525 1.777 . S
C2916 C555 1.181 . S
C2897 C196 1.175 . S
C2933 C221 1.081 . S
C2952 C605 1.055 . S
C2988 C635 1.585 . S
C2969 C317 1.616 . S
C3005 C135 1.854 . S
C3024 C425 1.839 . S
C3060 C455 1.524 . S
C3041 C151 1.549 . S
C3096 C472 1.040 . S
C3077 C154 1.055 . S
C3132 C615 1.977 . S
C3113 C305 1.987 . S
C3149 C280 1.217 . S
C3168 C642 1.193 . S
C3204 C405 1.902 . S
C3185 C145 1.931 . S
C3240 C372 0.907 . S
C3221 C117 0.877 1_565 S
C3257 C95 1.158 . S
C3276 C622 1.142 . S
C3312 C357 1.205 . S
C3293 C70 1.212 . S
C3329 C61 1.284 . S
C3348 C655 1.265 . S
C3365 C107 2.074 . S
C3384 C404 2.019 . S
C3401 C39 1.806 . S
C3420 C504 1.779 1_556 S
C3456 C442 0.755 . S
C3437 C23 0.710 . S
C3473 C5 1.545 . S
C3492 C537 1.524 . S
C3509 C42 0.924 . S
C3528 C482 0.907 . S
C3564 C617 1.165 . S
C3545 C322 1.177 . S
C3581 C165 1.361 . S
C3600 C364 1.334 . S
C3636 C645 1.703 1_655 S
C3617 C294 1.763 . S
C3653 C131 0.786 . S
C3672 C402 0.769 . S
C3689 C331 1.124 . S
C3708 C502 1.105 . S
C3744 C437 1.827 . S
C3725 C159 1.840 . S
C3761 C303 1.255 . S
C3780 C544 1.246 . S
C3816 C477 1.077 . S
C3797 C137 1.122 . S
C3852 C624 1.578 . S
C3833 C238 1.624 . S
C3888 C417 1.862 . S
C3869 C210 1.856 . S
C3905 C235 1.606 . S
C3924 C524 1.572 . S
C3960 C462 1.095 . S
C3941 C191 1.119 . S
C3977 C207 2.000 . S
C3996 C484 1.954 . S
C4013 C177 1.268 . S
C4032 C652 1.246 . S
C4068 C557 1.964 . S
C4049 C229 1.974 1_565 S
C4104 C582 0.866 . S
C4085 C271 0.889 . S
