# Generated by pormake.
# Topology ant, (3,6)-cn, num edge types: 1
# Building blocks:
#     Node 0, Type 0, BuildingBlock: WUSLED_clean_sbu_0, # of connection points: 3
#     Node 1, Type 0, BuildingBlock: WUSLED_clean_sbu_0, # of connection points: 3
#     Node 2, Type 0, BuildingBlock: WUSLED_clean_sbu_0, # of connection points: 3
#     Node 3, Type 0, BuildingBlock: WUSLED_clean_sbu_0, # of connection points: 3
#     Node 4, Type 0, BuildingBlock: WUSLED_clean_sbu_0, # of connection points: 3
#     Node 5, Type 0, BuildingBlock: WUSLED_clean_sbu_0, # of connection points: 3
#     Node 6, Type 0, BuildingBlock: WUSLED_clean_sbu_0, # of connection points: 3
#     Node 7, Type 0, BuildingBlock: WUSLED_clean_sbu_0, # of connection points: 3
#     Node 8, Type 1, BuildingBlock: MIDCAF_clean_sbu_0, # of connection points: 6
#     Node 9, Type 1, BuildingBlock: MIDCAF_clean_sbu_0, # of connection points: 6
#     Node 10, Type 1, BuildingBlock: MIDCAF_clean_sbu_0, # of connection points: 6
#     Node 11, Type 1, BuildingBlock: MIDCAF_clean_sbu_0, # of connection points: 6
#     Edge 12, Type (0, 1), BuildingBlock: KIFKEQ_clean_linker_1, # of connection points: 2
#     Edge 13, Type (0, 1), BuildingBlock: KIFKEQ_clean_linker_1, # of connection points: 2
#     Edge 14, Type (0, 1), BuildingBlock: KIFKEQ_clean_linker_1, # of connection points: 2
#     Edge 15, Type (0, 1), BuildingBlock: KIFKEQ_clean_linker_1, # of connection points: 2
#     Edge 16, Type (0, 1), BuildingBlock: KIFKEQ_clean_linker_1, # of connection points: 2
#     Edge 17, Type (0, 1), BuildingBlock: KIFKEQ_clean_linker_1, # of connection points: 2
#     Edge 18, Type (0, 1), BuildingBlock: KIFKEQ_clean_linker_1, # of connection points: 2
#     Edge 19, Type (0, 1), BuildingBlock: KIFKEQ_clean_linker_1, # of connection points: 2
#     Edge 20, Type (0, 1), BuildingBlock: KIFKEQ_clean_linker_1, # of connection points: 2
#     Edge 21, Type (0, 1), BuildingBlock: KIFKEQ_clean_linker_1, # of connection points: 2
#     Edge 22, Type (0, 1), BuildingBlock: KIFKEQ_clean_linker_1, # of connection points: 2
#     Edge 23, Type (0, 1), BuildingBlock: KIFKEQ_clean_linker_1, # of connection points: 2
#     Edge 24, Type (0, 1), BuildingBlock: KIFKEQ_clean_linker_1, # of connection points: 2
#     Edge 25, Type (0, 1), BuildingBlock: KIFKEQ_clean_linker_1, # of connection points: 2
#     Edge 26, Type (0, 1), BuildingBlock: KIFKEQ_clean_linker_1, # of connection points: 2
#     Edge 27, Type (0, 1), BuildingBlock: KIFKEQ_clean_linker_1, # of connection points: 2
#     Edge 28, Type (0, 1), BuildingBlock: KIFKEQ_clean_linker_1, # of connection points: 2
#     Edge 29, Type (0, 1), BuildingBlock: KIFKEQ_clean_linker_1, # of connection points: 2
#     Edge 30, Type (0, 1), BuildingBlock: KIFKEQ_clean_linker_1, # of connection points: 2
#     Edge 31, Type (0, 1), BuildingBlock: KIFKEQ_clean_linker_1, # of connection points: 2
#     Edge 32, Type (0, 1), BuildingBlock: KIFKEQ_clean_linker_1, # of connection points: 2
#     Edge 33, Type (0, 1), BuildingBlock: KIFKEQ_clean_linker_1, # of connection points: 2
#     Edge 34, Type (0, 1), BuildingBlock: KIFKEQ_clean_linker_1, # of connection points: 2
#     Edge 35, Type (0, 1), BuildingBlock: KIFKEQ_clean_linker_1, # of connection points: 2
# Relax obj value: 0.097
# Max RMSD: 0.155
# Mean RMSD: 0.100
data_MOF--net-ant--node1-WUSLED_clean_sbu_0--node2-MIDCAF_clean_sbu_0--edge1-KIFKEQ_clean_linker_1
_symmetry_space_group_name_H-M    P1
_symmetry_Int_Tables_number       1
_symmetry_cell_setting            triclinic
loop_
_symmetry_equiv_pos_as_xyz
'x, y, z'
_cell_length_a     36.565112
_cell_length_b     36.346365
_cell_length_c     100.33228
_cell_angle_alpha  89.980556
_cell_angle_beta   95.075004
_cell_angle_gamma 89.682254
loop_
_atom_site_label
_atom_site_type_symbol
_atom_site_fract_x
_atom_site_fract_y
_atom_site_fract_z
_atom_type_partial_charge
C0 C 0.21848 0.16558 0.094 0.0
C1 C 0.19983 0.13694 0.08695 0.0
C2 C 0.23132 0.09128 0.10175 0.0
C3 C 0.20596 0.10034 0.09083 0.0
C4 C 0.24999 0.12013 0.1088 0.0
C5 C 0.24361 0.15691 0.10495 0.0
U6 U 0.19433 0.23131 0.06564 0.0
O7 O 0.15902 0.28045 0.06338 0.0
O8 O 0.21746 0.28463 0.0601 0.0
C9 C 0.1862 0.30225 0.06087 0.0
C10 C 0.21291 0.20411 0.08951 0.0
C11 C 0.18791 0.33866 0.06754 0.0
C12 C 0.1679 0.38199 0.084 0.0
C13 C 0.16912 0.34613 0.07888 0.0
C14 C 0.20505 0.40331 0.06678 0.0
C15 C 0.18546 0.41117 0.07791 0.0
C16 C 0.20615 0.36753 0.06166 0.0
C17 C 0.17505 0.18268 0.03143 0.0
C18 C 0.15663 0.21284 0.01027 0.0
C19 C 0.17104 0.14767 0.01075 0.0
C20 C 0.17824 0.1493 0.02464 0.0
C21 C 0.16044 0.17945 0.00337 0.0
C22 C 0.16398 0.21446 0.0242 0.0
C23 C 0.18435 0.18356 0.04598 0.0
O24 O 0.23707 0.21625 0.08164 0.0
O25 O 0.17895 0.21317 0.0853 0.0
O26 O 0.1581 0.19413 0.05329 0.0
O27 O 0.21646 0.19766 0.04996 0.0
H28 H 0.18051 0.14286 0.07839 0.0
H29 H 0.19045 0.07914 0.08531 0.0
H30 H 0.26998 0.1143 0.11716 0.0
H31 H 0.25859 0.17855 0.11043 0.0
H32 H 0.15306 0.38689 0.09271 0.0
H33 H 0.15477 0.32446 0.08365 0.0
H34 H 0.21858 0.42503 0.06174 0.0
H35 H 0.2205 0.36257 0.05283 0.0
H36 H 0.14896 0.23791 0.00487 0.0
H37 H 0.17386 0.12149 0.00577 0.0
H38 H 0.1867 0.12449 0.03009 0.0
H39 H 0.16153 0.24051 0.02931 0.0
C40 C 0.18841 0.82291 0.34052 0.0
C41 C 0.21355 0.81887 0.33084 0.0
C42 C 0.26477 0.82863 0.34775 0.0
C43 C 0.25127 0.8216 0.33441 0.0
C44 C 0.23934 0.83299 0.35741 0.0
C45 C 0.2015 0.83016 0.35381 0.0
U46 U 0.11102 0.81198 0.31335 0.0
O47 O 0.06212 0.77681 0.3117 0.0
O48 O 0.05581 0.83689 0.31024 0.0
C49 C 0.03926 0.8049 0.31036 0.0
C50 C 0.14871 0.81919 0.33672 0.0
C51 C 1.006 0.80296 0.3176 0.0
C52 C 0.97356 0.78525 0.33674 0.0
C53 C 1.00647 0.78899 0.33066 0.0
C54 C 0.93972 0.80984 0.31684 0.0
C55 C 0.93972 0.79544 0.32985 0.0
C56 C 0.97248 0.81356 0.31081 0.0
C57 C 0.13576 0.80826 0.27729 0.0
C58 C 0.09052 0.79437 0.25876 0.0
C59 C 0.15271 0.81014 0.25447 0.0
C60 C 0.162 0.81424 0.2682 0.0
C61 C 0.11692 0.79994 0.24958 0.0
C62 C 0.09985 0.7986 0.27252 0.0
C63 C 0.14638 0.81176 0.2917 0.0
O64 O 0.13325 0.84711 0.33001 0.0
O65 O 0.13865 0.78715 0.33158 0.0
O66 O 0.14174 0.78213 0.29885 0.0
O67 O 0.13531 0.84205 0.29729 0.0
H68 H 0.20397 0.8132 0.32052 0.0
H69 H 0.26988 0.81736 0.32673 0.0
H70 H 0.24864 0.83877 0.36774 0.0
H71 H 0.18248 0.83348 0.36142 0.0
H72 H 0.97463 0.77447 0.34683 0.0
H73 H 0.03212 0.78062 0.33608 0.0
H74 H 0.91426 0.81741 0.31113 0.0
H75 H 0.97153 0.8241 0.30068 0.0
H76 H 0.06268 0.78676 0.25532 0.0
H77 H 0.1739 0.81401 0.24772 0.0
H78 H 0.18985 0.82166 0.27173 0.0
H79 H 0.07918 0.79405 0.27943 0.0
C80 C 0.73034 0.66185 0.59562 0.0
C81 C 0.74704 0.63619 0.58757 0.0
C82 C 0.74166 0.58801 0.60426 0.0
C83 C 0.75283 0.59979 0.59188 0.0
C84 C 0.7252 0.61398 0.61232 0.0
C85 C 0.71968 0.65047 0.60805 0.0
U86 U 0.70339 0.72792 0.56718 0.0
O87 O 0.72417 0.78259 0.56206 0.0
O88 O 0.66606 0.77571 0.56544 0.0
C89 C 0.69214 0.7987 0.56281 0.0
C90 C 0.72252 0.69992 0.59091 0.0
C91 C 0.69216 0.83543 0.56919 0.0
C92 C 0.67385 0.87776 0.58624 0.0
C93 C 0.67668 0.84181 0.58131 0.0
C94 C 0.70258 0.90129 0.56718 0.0
C95 C 0.68637 0.90806 0.57915 0.0
C96 C 0.70538 0.86544 0.56228 0.0
C97 C 0.68545 0.68677 0.53225 0.0
C98 C 0.66153 0.72356 0.51322 0.0
C99 C 0.68353 0.66158 0.50976 0.0
C100 C 0.69195 0.6577 0.52357 0.0
C101 C 0.66849 0.69469 0.5044 0.0
C102 C 0.67007 0.71968 0.527 0.0
C103 C 0.69537 0.68275 0.54669 0.0
O104 O 0.7462 0.71413 0.58323 0.0
O105 O 0.68818 0.70666 0.58652 0.0
O106 O 0.66905 0.69019 0.5544 0.0
O107 O 0.72707 0.69703 0.55111 0.0
H108 H 0.75532 0.64415 0.57788 0.0
H109 H 0.76602 0.58088 0.58545 0.0
H110 H 0.7156 0.60596 0.6218 0.0
H111 H 0.70647 0.6697 0.61437 0.0
H112 H 0.66175 0.88181 0.5956 0.0
H113 H 0.66623 0.81915 0.58684 0.0
H114 H 0.71212 0.9238 0.56135 0.0
H115 H 0.71708 0.86125 0.55283 0.0
H116 H 0.64942 0.74921 0.50947 0.0
H117 H 0.6896 0.63897 0.50326 0.0
H118 H 0.70392 0.63212 0.52748 0.0
H119 H 0.66483 0.74243 0.53356 0.0
C120 C 0.69145 0.32708 0.8443 0.0
C121 C 0.71618 0.32609 0.83438 0.0
C122 C 0.76781 0.33435 0.85124 0.0
C123 C 0.7539 0.32965 0.83781 0.0
C124 C 0.7428 0.33556 0.86115 0.0
C125 C 0.70495 0.33198 0.8577 0.0
U126 U 0.61526 0.31051 0.81728 0.0
O127 O 0.56697 0.27444 0.81611 0.0
O128 O 0.55974 0.33406 0.81314 0.0
C129 C 0.54372 0.3019 0.81377 0.0
C130 C 0.65184 0.32218 0.84059 0.0
C131 C 0.50935 0.30077 0.82037 0.0
C132 C 0.4745 0.28834 0.83942 0.0
C133 C 0.50831 0.29085 0.83385 0.0
C134 C 0.44279 0.30582 0.81812 0.0
C135 C 0.4413 0.29553 0.83157 0.0
C136 C 0.47643 0.30839 0.81261 0.0
C137 C 0.64174 0.30119 0.78146 0.0
C138 C 0.61326 0.26472 0.76307 0.0
C139 C 0.64644 0.3201 0.75842 0.0
C140 C 0.65421 0.32595 0.77215 0.0
C141 C 0.62632 0.28914 0.75374 0.0
C142 C 0.6207 0.27078 0.7768 0.0
C143 C 0.65148 0.30727 0.79589 0.0
O144 O 0.63591 0.34868 0.83323 0.0
O145 O 0.64253 0.28918 0.83617 0.0
O146 O 0.64778 0.27896 0.80382 0.0
O147 O 0.63976 0.33835 0.80073 0.0
H148 H 0.70631 0.32212 0.82398 0.0
H149 H 0.77222 0.32782 0.82992 0.0
H150 H 0.75244 0.33941 0.87157 0.0
H151 H 0.68625 0.33281 0.86549 0.0
H152 H 0.47431 0.28015 0.84979 0.0
H153 H 0.53346 0.28472 0.84 0.0
H154 H 0.41793 0.31224 0.81185 0.0
H155 H 0.47669 0.31609 0.80218 0.0
H156 H 0.59744 0.24081 0.75974 0.0
H157 H 0.65719 0.33916 0.75146 0.0
H158 H 0.67043 0.34958 0.77551 0.0
H159 H 0.61035 0.2514 0.78374 0.0
C160 C 0.08781 0.83954 0.91702 0.0
C161 C 0.05885 0.86047 0.91078 0.0
C162 C 0.09349 0.91697 0.91518 0.0
C163 C 0.06159 0.89873 0.90989 0.0
C164 C 0.12272 0.89594 0.9213 0.0
C165 C 0.11982 0.85761 0.92231 0.0
U166 U 0.09588 0.75243 0.9381 0.0
O167 O 0.05717 0.7067 0.93981 0.0
O168 O 0.11259 0.69583 0.93377 0.0
C169 C 0.08048 0.68205 0.93598 0.0
C170 C 0.08338 0.7993 0.91833 0.0
C171 C 0.06556 0.65319 0.92676 0.0
C172 C 0.06094 0.62224 0.90517 0.0
C173 C 0.07135 0.65288 0.91311 0.0
C174 C 0.03769 0.59279 0.92434 0.0
C175 C 0.04473 0.59139 0.91078 0.0
C176 C 0.04793 0.62334 0.93219 0.0
C177 C 0.13273 0.75986 0.97461 0.0
C178 C 0.13341 0.70708 0.98953 0.0
C179 C 0.15289 0.76679 0.99814 0.0
C180 C 0.14618 0.78189 0.98535 0.0
C181 C 0.14626 0.72927 1.00043 0.0
C182 C 0.1267 0.72227 0.97671 0.0
C183 C 0.12354 0.77675 0.96145 0.0
O184 O 0.11369 0.77953 0.92017 0.0
O185 O 0.05796 0.78909 0.92603 0.0
O186 O 0.08832 0.77791 0.95753 0.0
O187 O 0.14389 0.76629 0.95196 0.0
H188 H 0.03391 0.84719 0.90665 0.0
H189 H 0.0388 0.91405 0.90493 0.0
H190 H 0.14754 0.90919 0.92554 0.0
H191 H 0.14248 0.84221 0.92731 0.0
H192 H 0.06638 0.62238 0.89474 0.0
H193 H 0.08487 0.67573 0.90869 0.0
H194 H 0.02599 0.5695 0.92914 0.0
H195 H 0.04343 0.62295 0.94273 0.0
H196 H 0.12828 0.67808 0.99092 0.0
H197 H 0.16208 0.78487 0.00632 0.0
H198 H 0.15076 0.811 0.98391 0.0
H199 H 0.11627 0.70488 0.96848 0.0
C200 C 0.59331 0.8116 0.15965 0.0
C201 C 0.56841 0.80761 0.1694 0.0
C202 C 0.51686 0.81813 0.15266 0.0
C203 C 0.53066 0.81076 0.16595 0.0
C204 C 0.54201 0.82231 0.14291 0.0
C205 C 0.57994 0.81909 0.14639 0.0
U206 U 0.66856 0.79572 0.18695 0.0
O207 O 0.71789 0.76064 0.1885 0.0
O208 O 0.72319 0.8203 0.19164 0.0
C209 C 0.74025 0.7885 0.19099 0.0
C210 C 0.63301 0.80748 0.16344 0.0
C211 C 0.7746 0.7882 0.18435 0.0
C212 C 0.80983 0.77452 0.16549 0.0
C213 C 0.776 0.77681 0.17104 0.0
C214 C 0.8409 0.79534 0.18643 0.0
C215 C 0.84274 0.78345 0.17318 0.0
C216 C 0.80721 0.79767 0.19194 0.0
C217 C 0.63886 0.78407 0.22216 0.0
C218 C 0.68197 0.78305 0.24205 0.0
C219 C 0.61866 0.76517 0.24348 0.0
C220 C 0.61111 0.77187 0.22981 0.0
C221 C 0.65418 0.77061 0.24976 0.0
C222 C 0.6744 0.78955 0.22833 0.0
C223 C 0.63028 0.79051 0.20777 0.0
O224 O 0.64776 0.83403 0.17099 0.0
O225 O 0.6433 0.77453 0.16777 0.0
O226 O 0.63647 0.76246 0.20001 0.0
O227 O 0.64151 0.822 0.20321 0.0
H228 H 0.57819 0.80168 0.17969 0.0
H229 H 0.51226 0.80658 0.17369 0.0
H230 H 0.53243 0.82824 0.13261 0.0
H231 H 0.59878 0.82233 0.13873 0.0
H232 H 0.81029 0.76506 0.15527 0.0
H233 H 0.75112 0.76923 0.16503 0.0
H234 H 0.86553 0.8031 0.19256 0.0
H235 H 0.80667 0.80648 0.20224 0.0
H236 H 0.70962 0.78722 0.2466 0.0
H237 H 0.59655 0.75613 0.24918 0.0
H238 H 0.58353 0.76753 0.2252 0.0
H239 H 0.69625 0.79876 0.22253 0.0
C240 C 0.57861 0.34147 0.41854 0.0
C241 C 0.56329 0.36584 0.42745 0.0
C242 C 0.59149 0.41809 0.41712 0.0
C243 C 0.56949 0.40378 0.42668 0.0
C244 C 0.60706 0.39355 0.40833 0.0
C245 C 0.60059 0.35571 0.40901 0.0
U246 U 0.57471 0.25228 0.43835 0.0
O247 O 0.53625 0.20559 0.43642 0.0
O248 O 0.59514 0.19662 0.43465 0.0
C249 C 0.56226 0.18192 0.43411 0.0
C250 C 0.57243 0.30128 0.41908 0.0
C251 C 0.55345 0.15399 0.42367 0.0
C252 C 0.56493 0.12416 0.40273 0.0
C253 C 0.56937 0.15429 0.41144 0.0
C254 C 0.52722 0.09402 0.41807 0.0
C255 C 0.54464 0.09316 0.40613 0.0
C256 C 0.53162 0.12409 0.42673 0.0
C257 C 0.59571 0.25544 0.47629 0.0
C258 C 0.62055 0.20604 0.49085 0.0
C259 C 0.58806 0.257 0.50007 0.0
C260 C 0.58224 0.27271 0.48735 0.0
C261 C 0.60769 0.22374 0.50199 0.0
C262 C 0.6144 0.22163 0.47808 0.0
C263 C 0.59084 0.27364 0.46311 0.0
O264 O 0.6017 0.28116 0.42259 0.0
O265 O 0.54312 0.2905 0.4247 0.0
O266 O 0.5572 0.2741 0.45729 0.0
O267 O 0.6158 0.26612 0.45484 0.0
H268 H 0.54653 0.35563 0.435 0.0
H269 H 0.55734 0.42189 0.43366 0.0
H270 H 0.62372 0.40368 0.40073 0.0
H271 H 0.61272 0.3375 0.40205 0.0
H272 H 0.57827 0.12469 0.39352 0.0
H273 H 0.58625 0.17714 0.40883 0.0
H274 H 0.51181 0.07059 0.42114 0.0
H275 H 0.51928 0.12322 0.43616 0.0
H276 H 0.63556 0.1803 0.49202 0.0
H277 H 0.57827 0.27159 0.50848 0.0
H278 H 0.56776 0.29877 0.48618 0.0
H279 H 0.62476 0.20754 0.46966 0.0
C280 C 0.10288 0.32057 0.66359 0.0
C281 C 0.07877 0.32347 0.67367 0.0
C282 C 0.02605 0.31891 0.65709 0.0
C283 C 0.04078 0.32272 0.67046 0.0
C284 C 0.05034 0.3173 0.64696 0.0
C285 C 0.08845 0.31801 0.6502 0.0
U286 U 0.18106 0.3123 0.6905 0.0
O287 O 0.23082 0.27784 0.69232 0.0
O288 O 0.23566 0.33804 0.69337 0.0
C289 C 0.25299 0.30625 0.69345 0.0
C290 C 0.1428 0.31809 0.66718 0.0
C291 C 0.28612 0.30429 0.68612 0.0
C292 C 0.31794 0.28789 0.66666 0.0
C293 C 0.2852 0.29184 0.67286 0.0
C294 C 0.3525 0.30929 0.68686 0.0
C295 C 0.35206 0.29633 0.67364 0.0
C296 C 0.3199 0.31323 0.693 0.0
C297 C 0.15557 0.30869 0.72658 0.0
C298 C 0.19961 0.29395 0.74545 0.0
C299 C 0.13752 0.31216 0.74923 0.0
C300 C 0.129 0.316 0.73546 0.0
C301 C 0.17286 0.3009 0.75441 0.0
C302 C 0.19105 0.29793 0.73163 0.0
C303 C 0.14555 0.31185 0.71212 0.0
O304 O 0.15748 0.34651 0.67372 0.0
O305 O 0.15415 0.28642 0.6724 0.0
O306 O 0.15116 0.28219 0.70508 0.0
O307 O 0.15602 0.34222 0.7065 0.0
H308 H 0.08937 0.32548 0.68408 0.0
H309 H 0.02291 0.32451 0.67849 0.0
H310 H 0.03996 0.31397 0.63659 0.0
H311 H 0.10665 0.31562 0.64229 0.0
H312 H 0.31653 0.27827 0.65642 0.0
H313 H 0.25934 0.28477 0.66738 0.0
H314 H 0.37816 0.31549 0.69263 0.0
H315 H 0.32118 0.3226 0.70329 0.0
H316 H 0.22712 0.28549 0.74911 0.0
H317 H 0.11607 0.3171 0.75581 0.0
H318 H 0.10146 0.32425 0.73171 0.0
H319 H 0.21197 0.29233 0.72489 0.0
Zn320 Zn 0.20171 0.7022 0.14357 0.0
Zn321 Zn 0.12698 0.79374 0.11125 0.0
Zn322 Zn 0.16754 0.74922 0.12684 0.0
C323 C 0.1401 0.73171 0.09603 0.0
C324 C 0.19256 0.83079 0.11882 0.0
O325 O 0.13865 0.74589 0.14551 0.0
O326 O 0.17199 0.70783 0.15889 0.0
C327 C 0.18176 0.6621 0.12058 0.0
O328 O 0.15753 0.72141 0.10716 0.0
O329 O 0.12384 0.76243 0.09517 0.0
O330 O 0.16164 0.83537 0.11239 0.0
O331 O 0.20087 0.79991 0.12469 0.0
O332 O 0.1944 0.65726 0.13257 0.0
O333 O 0.17214 0.69465 0.11637 0.0
O334 O 0.22262 0.77325 0.13189 0.0
O335 O 0.24928 0.72903 0.14453 0.0
C336 C 0.251 0.75994 0.13884 0.0
O337 O 0.11408 0.76188 0.13559 0.0
O338 O 0.0829 0.79824 0.12096 0.0
C339 C 0.14512 0.72967 0.15694 0.0
C340 C 0.08475 0.78052 0.1318 0.0
Zn341 Zn 0.57929 0.71032 0.36072 0.0
Zn342 Zn 0.65268 0.80128 0.38799 0.0
Zn343 Zn 0.61486 0.75895 0.37554 0.0
C344 C 0.59734 0.84344 0.37686 0.0
C345 C 0.69991 0.77498 0.37203 0.0
O346 O 0.61307 0.70696 0.38763 0.0
O347 O 0.58678 0.66781 0.37288 0.0
C348 C 0.53065 0.76962 0.36418 0.0
O349 O 0.58291 0.81113 0.37669 0.0
O350 O 0.63163 0.84667 0.37923 0.0
O351 O 0.70262 0.78559 0.38403 0.0
O352 O 0.66783 0.76792 0.36616 0.0
O353 O 0.53191 0.73782 0.35915 0.0
O354 O 0.55938 0.78332 0.37067 0.0
O355 O 0.64224 0.75201 0.35665 0.0
O356 O 0.60806 0.71103 0.34503 0.0
C357 C 0.6348 0.73289 0.34592 0.0
O358 O 0.62526 0.73568 0.39605 0.0
O359 O 0.63694 0.78907 0.40583 0.0
C360 C 0.60209 0.67418 0.3844 0.0
C361 C 0.62969 0.75533 0.40676 0.0
Zn362 Zn 0.64001 0.28723 0.61434 0.0
Zn363 Zn 0.70521 0.19809 0.64402 0.0
Zn364 Zn 0.67584 0.24592 0.62849 0.0
C365 C 0.76052 0.24832 0.63764 0.0
C366 C 0.67963 0.15754 0.62241 0.0
O367 O 0.62305 0.25986 0.63733 0.0
O368 O 0.58953 0.27581 0.61889 0.0
C369 C 0.69694 0.32871 0.62486 0.0
O370 O 0.7326 0.26711 0.63265 0.0
O371 O 0.75574 0.21654 0.64229 0.0
O372 O 0.68991 0.1525 0.6346 0.0
O373 O 0.67545 0.1907 0.61783 0.0
O374 O 0.66305 0.33304 0.62165 0.0
O375 O 0.71034 0.2959 0.62636 0.0
O376 O 0.66464 0.2185 0.60881 0.0
O377 O 0.65516 0.26936 0.59699 0.0
C378 C 0.66092 0.23514 0.59743 0.0
O379 O 0.64806 0.24626 0.64742 0.0
O380 O 0.68258 0.20886 0.66069 0.0
C381 C 0.59143 0.26758 0.63114 0.0
C382 C 0.65631 0.23143 0.659 0.0
Zn383 Zn 0.07943 0.21756 0.86014 0.0
Zn384 Zn 0.15713 0.30348 0.89353 0.0
Zn385 Zn 0.11658 0.26064 0.87723 0.0
C386 C 0.14791 0.2382 0.90738 0.0
C387 C 0.09032 0.33993 0.88773 0.0
O388 O 0.1453 0.25644 0.85859 0.0
O389 O 0.11308 0.21658 0.84578 0.0
C390 C 0.09321 0.17627 0.8834 0.0
O391 O 0.12823 0.23034 0.89645 0.0
O392 O 0.16476 0.26839 0.90853 0.0
O393 O 0.12039 0.34315 0.89482 0.0
O394 O 0.08384 0.3112 0.88039 0.0
O395 O 0.07668 0.17416 0.87184 0.0
O396 O 0.10995 0.20616 0.88719 0.0
O397 O 0.06176 0.28721 0.87227 0.0
O398 O 0.0352 0.24926 0.85718 0.0
C399 C 0.03405 0.27823 0.86407 0.0
O400 O 0.16962 0.27338 0.8685 0.0
O401 O 0.19892 0.31181 0.88275 0.0
C402 C 0.13979 0.23841 0.84751 0.0
C403 C 0.19791 0.2934 0.87207 0.0
H404 H 0.23926 0.46391 0.08053 0.0
H405 H 0.12515 0.44617 0.08647 0.0
H406 H 0.23472 0.52656 0.08896 0.0
H407 H 0.12056 0.50882 0.09484 0.0
H408 H 0.1432 0.60187 0.12588 0.0
H409 H 0.14205 0.54275 0.11445 0.0
H410 H 0.20864 0.58774 0.08495 0.0
H411 H 0.21068 0.64676 0.09686 0.0
C412 C 0.21307 0.47347 0.08349 0.0
C413 C 0.18266 0.44975 0.08291 0.0
C414 C 0.21042 0.50953 0.08828 0.0
C415 C 0.17727 0.5229 0.09262 0.0
C416 C 0.1467 0.49937 0.0918 0.0
C417 C 0.14937 0.46332 0.08703 0.0
C418 C 0.15688 0.5993 0.11677 0.0
C419 C 0.17626 0.62912 0.11204 0.0
C420 C 0.15617 0.56542 0.11018 0.0
C421 C 0.1752 0.56029 0.09873 0.0
C422 C 0.19381 0.59059 0.09377 0.0
C423 C 0.19438 0.62467 0.1004 0.0
H424 H 0.91887 0.73783 0.34516 0.0
H425 H 0.88024 0.84196 0.32839 0.0
H426 H 0.86017 0.72924 0.35458 0.0
H427 H 0.82162 0.8332 0.33769 0.0
H428 H 0.70903 0.7934 0.34616 0.0
H429 H 0.7664 0.795 0.33534 0.0
H430 H 0.82519 0.75604 0.37193 0.0
H431 H 0.76757 0.75319 0.38243 0.0
C432 C 0.89803 0.75904 0.34357 0.0
C433 C 0.90437 0.79058 0.33599 0.0
C434 C 0.8643 0.75403 0.34892 0.0
C435 C 0.83605 0.78039 0.3468 0.0
C436 C 0.84245 0.81197 0.33928 0.0
C437 C 0.87616 0.81703 0.33397 0.0
C438 C 0.73397 0.78383 0.35165 0.0
C439 C 0.73368 0.77238 0.36498 0.0
C440 C 0.767 0.78547 0.34559 0.0
C441 C 0.80048 0.77575 0.35279 0.0
C442 C 0.79993 0.76332 0.36604 0.0
C443 C 0.76695 0.76185 0.37207 0.0
H444 H 0.7585 0.55989 0.62961 0.0
H445 H 0.73353 0.52623 0.58851 0.0
H446 H 0.75923 0.4955 0.63659 0.0
H447 H 0.73512 0.46217 0.59549 0.0
H448 H 0.75204 0.34698 0.60952 0.0
H449 H 0.77254 0.40993 0.6055 0.0
H450 H 0.71003 0.44932 0.63722 0.0
H451 H 0.68971 0.3868 0.64108 0.0
C452 C 0.75337 0.53888 0.62204 0.0
C453 C 0.74563 0.54855 0.60848 0.0
C454 C 0.75406 0.50191 0.62605 0.0
C455 C 0.74734 0.47361 0.61661 0.0
C456 C 0.74111 0.48316 0.60301 0.0
C457 C 0.74014 0.52008 0.59901 0.0
C458 C 0.74418 0.36895 0.616 0.0
C459 C 0.71966 0.36212 0.6257 0.0
C460 C 0.75542 0.40504 0.61359 0.0
C461 C 0.74253 0.43476 0.62093 0.0
C462 C 0.72073 0.42718 0.63145 0.0
C463 C 0.70918 0.39132 0.63372 0.0
H464 H 0.81914 0.3703 0.83778 0.0
H465 H 0.80848 0.30326 0.87277 0.0
H466 H 0.88582 0.36694 0.84186 0.0
H467 H 0.87524 0.30043 0.87693 0.0
H468 H 0.99923 0.31224 0.88395 0.0
H469 H 0.93536 0.33469 0.88214 0.0
H470 H 0.92724 0.31356 0.83963 0.0
H471 H 0.99021 0.29113 0.84148 0.0
C472 C 0.83095 0.35507 0.8464 0.0
C473 C 0.8083 0.33651 0.85481 0.0
C474 C 0.8692 0.35336 0.84878 0.0
C475 C 0.88587 0.33322 0.85966 0.0
C476 C 0.86329 0.31652 0.86854 0.0
C477 C 0.82496 0.31809 0.86613 0.0
C478 C 0.98401 0.31352 0.8742 0.0
C479 C 0.99953 0.29986 0.86286 0.0
C480 C 0.9474 0.32599 0.87317 0.0
C481 C 0.92613 0.32568 0.86075 0.0
C482 C 0.94281 0.3145 0.84932 0.0
C483 C 0.97891 0.30153 0.85038 0.0
H484 H 0.98826 0.54187 0.91179 0.0
H485 H 0.08762 0.56092 0.89252 0.0
H486 H 0.98611 0.47903 0.90317 0.0
H487 H 0.08456 0.49876 0.88358 0.0
H488 H 0.07212 0.38652 0.86705 0.0
H489 H 0.04964 0.4498 0.8693 0.0
H490 H 0.03128 0.42784 0.91048 0.0
H491 H 0.05441 0.36528 0.90823 0.0
C492 C 1.00926 0.533 0.90552 0.0
C493 C 0.03856 0.5564 0.90311 0.0
C494 C 1.00781 0.49706 0.90051 0.0
C495 C 0.03526 0.48389 0.89277 0.0
C496 C 0.06273 0.50822 0.88938 0.0
C497 C 0.06447 0.54399 0.89453 0.0
C498 C 0.06161 0.39487 0.87636 0.0
C499 C 0.06467 0.37122 0.88746 0.0
C500 C 0.04914 0.43111 0.8777 0.0
C501 C 0.03904 0.44388 0.8901 0.0
C502 C 0.03855 0.41881 0.90076 0.0
C503 C 0.05168 0.38294 0.89949 0.0
H504 H 0.85941 0.80367 0.14814 0.0
H505 H 0.90804 0.75726 0.18525 0.0
H506 H 0.91904 0.80173 0.13908 0.0
H507 H 0.96807 0.75648 0.17631 0.0
H508 H 0.06123 0.72723 0.14857 0.0
H509 H 1.00326 0.72669 0.15914 0.0
H510 H 0.97683 0.8346 0.14286 0.0
H511 H 0.03428 0.83509 0.13241 0.0
C512 C 0.88276 0.79284 0.15434 0.0
C513 C 0.87891 0.78081 0.16745 0.0
C514 C 0.91707 0.79213 0.14921 0.0
C515 C 0.94844 0.77933 0.15703 0.0
C516 C 0.94448 0.76642 0.17002 0.0
C517 C 0.91013 0.76723 0.17518 0.0
C518 C 0.04334 0.75111 0.14752 0.0
C519 C 0.05234 0.78121 0.13968 0.0
C520 C 1.01007 0.75074 0.15351 0.0
C521 C 0.98512 0.78037 0.15165 0.0
C522 C 0.99495 0.81096 0.14423 0.0
C523 C 0.02803 0.81134 0.13831 0.0
H524 H 0.54081 0.47375 0.41788 0.0
H525 H 0.65576 0.4538 0.41381 0.0
H526 H 0.54923 0.539 0.41338 0.0
H527 H 0.66442 0.51911 0.40954 0.0
H528 H 0.64505 0.61669 0.37974 0.0
H529 H 0.64655 0.55695 0.3906 0.0
H530 H 0.57606 0.59872 0.41959 0.0
H531 H 0.57439 0.65901 0.40837 0.0
C532 C 0.56806 0.48344 0.41633 0.0
C533 C 0.59749 0.45846 0.41599 0.0
C534 C 0.57296 0.52095 0.41381 0.0
C535 C 0.60746 0.5344 0.41097 0.0
C536 C 0.63731 0.50966 0.41143 0.0
C537 C 0.63236 0.47219 0.41385 0.0
C538 C 0.63087 0.61339 0.3887 0.0
C539 C 0.60989 0.64236 0.39331 0.0
C540 C 0.63173 0.57912 0.39497 0.0
C541 C 0.61126 0.57278 0.40596 0.0
C542 C 0.59184 0.60254 0.41106 0.0
C543 C 0.59119 0.63714 0.40478 0.0
H544 H 0.98064 0.34846 0.63628 0.0
H545 H 0.98033 0.27675 0.67062 0.0
H546 H 0.91526 0.33523 0.63048 0.0
H547 H 0.91562 0.26421 0.66496 0.0
H548 H 0.82289 0.2079 0.6409 0.0
H549 H 0.88555 0.22888 0.64499 0.0
H550 H 0.84899 0.34159 0.64029 0.0
H551 H 0.78504 0.32037 0.63625 0.0
C552 C 0.96662 0.33015 0.64263 0.0
C553 C 0.98579 0.31361 0.65391 0.0
C554 C 0.92918 0.32289 0.63937 0.0
C555 C 0.91045 0.29853 0.64722 0.0
C556 C 0.9294 0.28288 0.65866 0.0
C557 C 0.96648 0.29032 0.66196 0.0
C558 C 0.82791 0.23724 0.64066 0.0
C559 C 0.79871 0.2625 0.63841 0.0
C560 C 0.86396 0.24922 0.64303 0.0
C561 C 0.87213 0.28686 0.64321 0.0
C562 C 0.8434 0.31236 0.64024 0.0
C563 C 0.80686 0.30025 0.6379 0.0
H564 H 0.41291 0.34051 0.67576 0.0
H565 H 0.37119 0.23987 0.6574 0.0
H566 H 0.47121 0.33065 0.66625 0.0
H567 H 0.42949 0.23025 0.64777 0.0
H568 H 0.52254 0.25211 0.62036 0.0
H569 H 0.46509 0.25767 0.63082 0.0
H570 H 0.52533 0.28988 0.66793 0.0
H571 H 0.58273 0.28548 0.6572 0.0
C572 C 0.41622 0.31612 0.66977 0.0
C573 C 0.38724 0.29097 0.66737 0.0
C574 C 0.44974 0.31044 0.66434 0.0
C575 C 0.45515 0.27956 0.6563 0.0
C576 C 0.42613 0.25452 0.65381 0.0
C577 C 0.39262 0.26013 0.65929 0.0
C578 C 0.52353 0.26005 0.6308 0.0
C579 C 0.55726 0.2678 0.63805 0.0
C580 C 0.4906 0.26302 0.63681 0.0
C581 C 0.49052 0.27417 0.65022 0.0
C582 C 0.52437 0.2814 0.65755 0.0
C583 C 0.55738 0.27824 0.65152 0.0
H584 H 0.46433 0.84928 0.16704 0.0
H585 H 0.47733 0.79123 0.13017 0.0
H586 H 0.39783 0.84427 0.16293 0.0
H587 H 0.41062 0.78703 0.12595 0.0
H588 H 0.28459 0.79969 0.12005 0.0
H589 H 0.34824 0.82235 0.12222 0.0
H590 H 0.36016 0.78632 0.1634 0.0
H591 H 0.29755 0.76349 0.16116 0.0
C592 C 0.45307 0.83575 0.15799 0.0
C593 C 0.47635 0.82001 0.14908 0.0
C594 C 0.41492 0.83313 0.1556 0.0
C595 C 0.39901 0.81502 0.14417 0.0
C596 C 0.42207 0.80145 0.13478 0.0
C597 C 0.46034 0.80383 0.13723 0.0
C598 C 0.30069 0.7975 0.12961 0.0
C599 C 0.28629 0.77978 0.14043 0.0
C600 C 0.3371 0.81016 0.13083 0.0
C601 C 0.3592 0.80605 0.14298 0.0
C602 C 0.34382 0.79024 0.15395 0.0
C603 C 0.30798 0.77702 0.15266 0.0
H604 H 0.42345 0.31876 0.85615 0.0
H605 H 0.37716 0.26639 0.81992 0.0
H606 H 0.36358 0.31725 0.86506 0.0
H607 H 0.31692 0.26599 0.82866 0.0
H608 H 0.22393 0.23885 0.85638 0.0
H609 H 0.28231 0.23809 0.84613 0.0
H610 H 0.30461 0.3483 0.86063 0.0
H611 H 0.24659 0.349 0.87078 0.0
C612 C 0.40058 0.30671 0.85012 0.0
C613 C 0.40515 0.29289 0.83729 0.0
C614 C 0.36611 0.30624 0.85515 0.0
C615 C 0.33531 0.29188 0.84751 0.0
C616 C 0.34004 0.27717 0.83482 0.0
C617 C 0.37452 0.27774 0.82977 0.0
C618 C 0.24094 0.26318 0.85708 0.0
C619 C 0.23056 0.29405 0.86431 0.0
C620 C 0.27448 0.26269 0.85128 0.0
C621 C 0.29842 0.29295 0.85274 0.0
C622 C 0.28728 0.32422 0.85958 0.0
C623 C 0.25387 0.32472 0.86531 0.0
H624 H 0.31804 0.85892 0.33359 0.0
H625 H 0.30346 0.80155 0.37047 0.0
H626 H 0.38446 0.85397 0.33826 0.0
H627 H 0.37001 0.79739 0.37523 0.0
H628 H 0.49507 0.80931 0.38253 0.0
H629 H 0.43127 0.83214 0.37959 0.0
H630 H 0.42383 0.7973 0.33829 0.0
H631 H 0.48663 0.7744 0.3413 0.0
C632 C 0.32892 0.84549 0.34275 0.0
C633 C 0.30521 0.83005 0.35152 0.0
C634 C 0.36702 0.84292 0.34546 0.0
C635 C 0.38249 0.8251 0.35707 0.0
C636 C 0.35895 0.81163 0.36626 0.0
C637 C 0.32074 0.81399 0.36351 0.0
C638 C 0.47995 0.80755 0.37277 0.0
C639 C 0.49563 0.79015 0.36214 0.0
C640 C 0.44343 0.82026 0.37111 0.0
C641 C 0.42249 0.81644 0.35871 0.0
C642 C 0.43922 0.80103 0.34792 0.0
C643 C 0.47518 0.78779 0.34965 0.0
H644 H 0.73469 0.96574 0.57856 0.0
H645 H 0.62775 0.93812 0.59067 0.0
H646 H 0.72775 0.02821 0.5869 0.0
H647 H 0.62095 1.00048 0.59906 0.0
H648 H 0.65048 0.09341 0.62965 0.0
H649 H 0.64895 0.0351 0.61784 0.0
H650 H 0.69357 0.08746 0.58422 0.0
H651 H 0.69561 0.14636 0.59633 0.0
C652 C 0.70949 0.97304 0.58284 0.0
C653 C 0.68194 0.94659 0.58404 0.0
C654 C 0.70546 1.009 0.58758 0.0
C655 C 0.67382 0.01946 0.59368 0.0
C656 C 0.64592 0.99328 0.59459 0.0
C657 C 0.64992 0.95738 0.58985 0.0
C658 C 0.65935 0.09269 0.61963 0.0
C659 C 0.67304 0.1245 0.6139 0.0
C660 C 0.6583 0.05921 0.61281 0.0
C661 C 0.67124 0.05641 0.60008 0.0
C662 C 0.68367 0.0886 0.59407 0.0
C663 C 0.68438 0.12243 0.6009 0.0
H664 H 0.24372 0.06204 0.12713 0.0
H665 H 0.23367 0.03095 0.08541 0.0
H666 H 0.24865 0.99736 0.13348 0.0
H667 H 0.23601 0.96662 0.09172 0.0
H668 H 0.24614 0.85133 0.1032 0.0
H669 H 0.26721 0.91451 0.10058 0.0
H670 H 0.20812 0.94788 0.1341 0.0
H671 H 0.1889 0.88468 0.13693 0.0
C672 C 0.24293 0.04151 0.11929 0.0
C673 C 0.23767 0.05193 0.10574 0.0
C674 C 0.24538 1.00427 0.12295 0.0
C675 C 0.24239 0.97639 0.11316 0.0
C676 C 0.23889 0.98698 0.09961 0.0
C677 C 0.23678 0.02412 0.09596 0.0
C678 C 0.23943 0.87196 0.1104 0.0
C679 C 0.21643 0.86321 0.12038 0.0
C680 C 0.25082 0.90834 0.10877 0.0
C681 C 0.23868 0.93677 0.11691 0.0
C682 C 0.21839 0.92704 0.12766 0.0
C683 C 0.20741 0.89067 0.12936 0.0
H684 H 0.48789 0.04449 0.40013 0.0
H685 H 0.60193 0.06292 0.39419 0.0
H686 H 0.4912 0.9841 0.38953 0.0
H687 H 0.60521 1.00322 0.38369 0.0
H688 H 0.60779 0.90236 0.36132 0.0
H689 H 0.58696 0.96498 0.36509 0.0
H690 H 0.51964 0.92494 0.39524 0.0
H691 H 0.53954 0.862 0.39096 0.0
C692 C 0.51355 0.03587 0.39645 0.0
C693 C 0.54467 0.05867 0.39805 0.0
C694 C 0.51541 1.00125 0.39037 0.0
C695 C 0.54841 0.98867 0.3857 0.0
C696 C 0.57904 1.01214 0.38686 0.0
C697 C 0.57719 0.04659 0.39292 0.0
C698 C 0.5873 0.90687 0.36833 0.0
C699 C 0.57525 0.8775 0.37587 0.0
C700 C 0.57573 0.94279 0.37064 0.0
C701 C 0.5525 0.95024 0.38077 0.0
C702 C 0.53754 0.92032 0.38736 0.0
C703 C 0.54875 0.88416 0.38488 0.0
H704 H 0.15129 0.95793 0.90785 0.0
H705 H 0.04151 0.96821 0.92015 0.0
H706 H 0.15234 0.02411 0.90354 0.0
H707 H 0.04269 0.03428 0.91604 0.0
H708 H 0.03764 0.1285 0.88486 0.0
H709 H 0.03954 0.06846 0.89542 0.0
H710 H 0.15093 0.08829 0.91187 0.0
H711 H 0.14902 0.14892 0.90094 0.0
C712 C 0.1277 0.97445 0.90991 0.0
C713 C 0.09606 0.95773 0.91411 0.0
C714 C 0.12835 1.01243 0.9075 0.0
C715 C 0.09743 0.03451 0.9093 0.0
C716 C 0.0667 0.01802 0.91429 0.0
C717 C 0.06598 0.98012 0.91661 0.0
C718 C 0.06232 0.1204 0.89095 0.0
C719 C 0.09317 0.14338 0.89208 0.0
C720 C 0.06337 0.08598 0.8971 0.0
C721 C 0.09543 0.07337 0.90449 0.0
C722 C 0.1259 0.09707 0.90616 0.0
C723 C 0.1247 0.13192 0.90005 0.0
H724 H 0.10603 0.21217 0.9868 0.0
H725 H 0.20293 0.14384 0.9863 0.0
H726 H 0.10104 0.21478 0.96237 0.0
H727 H 0.19744 0.14582 0.9619 0.0
H728 H 0.20743 0.22198 0.9242 0.0
H729 H 0.20775 0.19823 0.94688 0.0
H730 H 0.09099 0.1791 0.94064 0.0
H731 H 0.09091 0.20287 0.91771 0.0
C732 C 0.12599 0.19736 0.98147 0.0
C733 C 0.15508 0.17812 0.9885 0.0
C734 C 0.12283 0.19841 0.96747 0.0
C735 C 0.14885 0.18047 0.96021 0.0
C736 C 0.17704 0.16 0.96722 0.0
C737 C 0.18007 0.15875 0.9812 0.0
C738 C 0.18208 0.21149 0.92753 0.0
C739 C 0.14915 0.21431 0.91927 0.0
C740 C 0.18223 0.19783 0.94052 0.0
C741 C 0.14931 0.18719 0.94561 0.0
C742 C 0.11671 0.18747 0.93701 0.0
C743 C 0.11669 0.20067 0.92387 0.0
H744 H 0.13762 0.84097 0.22866 0.0
H745 H 0.07637 0.74403 0.2375 0.0
H746 H 0.13176 0.82492 0.20503 0.0
H747 H 0.06924 0.72868 0.21374 0.0
H748 H 0.13226 0.68584 0.17786 0.0
H749 H 0.11391 0.70537 0.19945 0.0
H750 H 0.09406 0.81539 0.18403 0.0
H751 H 0.11339 0.79577 0.1624 0.0
C752 C 0.12235 0.81654 0.22552 0.0
C753 C 0.10806 0.79343 0.23501 0.0
C754 C 0.1185 0.80762 0.21193 0.0
C755 C 0.10023 0.77534 0.20747 0.0
C756 C 0.08384 0.75352 0.21686 0.0
C757 C 0.0877 0.76247 0.23047 0.0
C758 C 0.12298 0.71396 0.17897 0.0
C759 C 0.12455 0.73934 0.16849 0.0
C760 C 0.11222 0.72515 0.19134 0.0
C761 C 0.10297 0.76211 0.19355 0.0
C762 C 0.10156 0.78684 0.18271 0.0
C763 C 0.11224 0.77554 0.17027 0.0
H764 H 0.68122 0.75578 0.48978 0.0
H765 H 0.63969 0.6449 0.4856 0.0
H766 H 0.66742 0.76566 0.46594 0.0
H767 H 0.62628 0.65484 0.46147 0.0
H768 H 0.65185 0.687 0.41643 0.0
H769 H 0.65886 0.66832 0.44011 0.0
H770 H 0.60983 0.77117 0.45099 0.0
H771 H 0.60322 0.78965 0.42763 0.0
C772 C 0.66881 0.73357 0.4838 0.0
C773 C 0.66104 0.69975 0.48967 0.0
C774 C 0.66098 0.73921 0.4701 0.0
C775 C 0.64523 0.71119 0.46186 0.0
C776 C 0.63842 0.6769 0.46759 0.0
C777 C 0.64615 0.67126 0.48139 0.0
C778 C 0.64171 0.705 0.42389 0.0
C779 C 0.62737 0.73989 0.42026 0.0
C780 C 0.64583 0.69443 0.43742 0.0
C781 C 0.63568 0.71872 0.44741 0.0
C782 C 0.61878 0.75229 0.44356 0.0
C783 C 0.61483 0.76279 0.43018 0.0
H784 H 0.60402 0.33636 0.73327 0.0
H785 H 0.63743 0.22395 0.74142 0.0
H786 H 0.60029 0.32386 0.70925 0.0
H787 H 0.63511 0.21163 0.7176 0.0
H788 H 0.61811 0.18834 0.6748 0.0
H789 H 0.60073 0.20347 0.69711 0.0
H790 H 0.64076 0.3142 0.6926 0.0
H791 H 0.65598 0.2992 0.67005 0.0
C792 C 0.61044 0.30896 0.7299 0.0
C793 C 0.62106 0.28114 0.7392 0.0
C794 C 0.60841 0.30177 0.71614 0.0
C795 C 0.61743 0.26672 0.71139 0.0
C796 C 0.62711 0.23873 0.72079 0.0
C797 C 0.62868 0.24581 0.73449 0.0
C798 C 0.62189 0.21621 0.67848 0.0
C799 C 0.63802 0.24275 0.67078 0.0
C800 C 0.61244 0.22483 0.69131 0.0
C801 C 0.62004 0.25987 0.69684 0.0
C802 C 0.63413 0.28705 0.68871 0.0
C803 C 0.64295 0.27854 0.67578 0.0
H804 H 0.2008 0.74379 0.02017 0.0
H805 H 0.10127 0.6811 0.01214 0.0
H806 H 0.20138 0.72928 0.0438 0.0
H807 H 0.10288 0.66488 0.03577 0.0
H808 H 0.08384 0.71587 0.07773 0.0
H809 H 0.08888 0.70168 0.05431 0.0
H810 H 0.2063 0.68817 0.06246 0.0
H811 H 0.201 0.70419 0.08589 0.0
C812 C 0.17943 0.72625 0.02342 0.0
C813 C 0.15055 0.71434 0.0143 0.0
C814 C 0.18008 0.71737 0.03698 0.0
C815 C 0.15194 0.69615 0.04176 0.0
C816 C 0.12468 0.68174 0.03246 0.0
C817 C 0.12394 0.6908 0.01888 0.0
C818 C 0.11049 0.70836 0.07459 0.0
C819 C 0.14199 0.71068 0.08359 0.0
C820 C 0.11346 0.70011 0.06115 0.0
C821 C 0.14811 0.69428 0.05641 0.0
C822 C 0.17926 0.69304 0.06574 0.0
C823 C 0.17622 0.70144 0.07922 0.0
H824 H 0.63197 0.71196 0.26384 0.0
H825 H 0.69341 0.81294 0.26856 0.0
H826 H 0.63836 0.70291 0.28792 0.0
H827 H 0.70087 0.80332 0.2928 0.0
H828 H 0.6447 0.798 0.33366 0.0
H829 H 0.65914 0.80643 0.31055 0.0
H830 H 0.67959 0.68965 0.30744 0.0
H831 H 0.66427 0.68142 0.33047 0.0
C832 C 0.64722 0.73204 0.27004 0.0
C833 C 0.66177 0.76339 0.26431 0.0
C834 C 0.65137 0.7266 0.28385 0.0
C835 C 0.67022 0.75237 0.29232 0.0
C836 C 0.68601 0.78308 0.28656 0.0
C837 C 0.68195 0.78846 0.27268 0.0
C838 C 0.65374 0.77445 0.32817 0.0
C839 C 0.65381 0.73915 0.33382 0.0
C840 C 0.66195 0.77921 0.31492 0.0
C841 C 0.67001 0.74861 0.30708 0.0
C842 C 0.67285 0.71368 0.31314 0.0
C843 C 0.66447 0.70896 0.32634 0.0
H844 H 0.56219 0.21753 0.52207 0.0
H845 H 0.67391 0.19791 0.51303 0.0
H846 H 0.57987 0.20521 0.54566 0.0
H847 H 0.6915 0.18492 0.53663 0.0
H848 H 0.61616 0.17976 0.58774 0.0
H849 H 0.60518 0.16252 0.56404 0.0
H850 H 0.6954 0.23156 0.55479 0.0
H851 H 0.70577 0.24876 0.57824 0.0
C852 C 0.59035 0.20976 0.5251 0.0
C853 C 0.61677 0.20929 0.51574 0.0
C854 C 0.6004 0.20222 0.53858 0.0
C855 C 0.63715 0.19429 0.54302 0.0
C856 C 0.66302 0.19115 0.53351 0.0
C857 C 0.6529 0.19845 0.51999 0.0
C858 C 0.63445 0.18989 0.58066 0.0
C859 C 0.66176 0.2155 0.58468 0.0
C860 C 0.62804 0.18032 0.56712 0.0
C861 C 0.64921 0.19596 0.55753 0.0
C862 C 0.67882 0.21873 0.5619 0.0
C863 C 0.68478 0.22867 0.57532 0.0
H864 H 0.15215 0.34393 0.77483 0.0
H865 H 0.21147 0.24419 0.76714 0.0
H866 H 0.15649 0.32923 0.79856 0.0
H867 H 0.21717 0.23015 0.79103 0.0
H868 H 0.1531 0.19224 0.82722 0.0
H869 H 0.17236 0.20935 0.80551 0.0
H870 H 0.19268 0.32027 0.81968 0.0
H871 H 0.17208 0.30324 0.84134 0.0
C872 C 0.16667 0.31914 0.77824 0.0
C873 C 0.18086 0.29491 0.76905 0.0
C874 C 0.16966 0.31095 0.7919 0.0
C875 C 0.18699 0.27833 0.79673 0.0
C876 C 0.20326 0.25527 0.78763 0.0
C877 C 0.20024 0.26347 0.77394 0.0
C878 C 0.16265 0.22002 0.82581 0.0
C879 C 0.16088 0.24643 0.83595 0.0
C880 C 0.17394 0.22983 0.81337 0.0
C881 C 0.1836 0.26636 0.81076 0.0
C882 C 0.18483 0.29204 0.82129 0.0
C883 C 0.17348 0.28218 0.83377 0.0
loop_
_geom_bond_atom_site_label_1
_geom_bond_atom_site_label_2
_geom_bond_distance
_geom_bond_site_symmetry_2
_ccdc_geom_bond_type
C0 C1 1.264 . S
C0 C5 1.479 . S
C0 C10 1.465 . S
C1 C0 1.264 . S
C1 C3 1.339 . S
C1 H28 0.931 . S
C2 C3 1.395 . S
C2 C4 1.320 . S
C3 C1 1.339 . S
C3 C2 1.395 . S
C3 H29 0.929 . S
C4 C2 1.320 . S
C4 C5 1.405 . S
C4 H30 0.930 . S
C5 C0 1.479 . S
C5 C4 1.405 . S
C5 H31 0.931 . S
U6 O7 2.454 . S
U6 O8 2.458 . S
U6 C9 2.984 . S
U6 C10 2.847 . S
U6 C23 2.882 . S
U6 O24 2.441 . S
U6 O25 2.420 . S
U6 O26 2.455 . S
U6 O27 2.449 . S
O7 U6 2.454 . S
O7 C9 1.353 . S
O8 U6 2.458 . S
O8 C9 1.286 . S
C9 U6 2.984 . S
C9 O7 1.353 . S
C9 O8 1.286 . S
C9 C11 1.363 . S
C10 C0 1.465 . S
C10 U6 2.847 . S
C10 O24 1.249 . S
C10 O25 1.202 . S
C11 C9 1.363 . S
C11 C13 1.408 . S
C11 C16 1.342 . S
C12 C13 1.310 . S
C12 C15 1.461 . S
C12 H32 0.932 . S
C13 C11 1.408 . S
C13 C12 1.310 . S
C13 H33 0.930 . S
C14 C15 1.474 . S
C14 C16 1.285 . S
C14 H34 0.929 . S
C15 C12 1.461 . S
C15 C14 1.474 . S
C16 C11 1.342 . S
C16 C14 1.285 . S
C16 H35 0.930 . S
C17 C20 1.424 . S
C17 C22 1.245 . S
C17 C23 1.428 . S
C18 C21 1.266 . S
C18 C22 1.477 . S
C18 H36 0.932 . S
C19 C20 1.384 . S
C19 C21 1.485 . S
C19 H37 0.929 . S
C20 C17 1.424 . S
C20 C19 1.384 . S
C20 H38 0.928 . S
C21 C18 1.266 . S
C21 C19 1.485 . S
C22 C17 1.245 . S
C22 C18 1.477 . S
C22 H39 0.932 . S
C23 U6 2.882 . S
C23 C17 1.428 . S
C23 O26 1.301 . S
C23 O27 1.282 . S
O24 U6 2.441 . S
O24 C10 1.249 . S
O25 U6 2.420 . S
O25 C10 1.202 . S
O26 U6 2.455 . S
O26 C23 1.301 . S
O27 U6 2.449 . S
O27 C23 1.282 . S
H28 C1 0.931 . S
H29 C3 0.929 . S
H30 C4 0.930 . S
H31 C5 0.931 . S
H32 C12 0.932 . S
H33 C13 0.930 . S
H34 C14 0.929 . S
H35 C16 0.930 . S
H36 C18 0.932 . S
H37 C19 0.929 . S
H38 C20 0.928 . S
H39 C22 0.932 . S
C40 C41 1.264 . S
C40 C45 1.479 . S
C40 C50 1.465 . S
C41 C40 1.264 . S
C41 C43 1.339 . S
C41 H68 0.931 . S
C42 C43 1.395 . S
C42 C44 1.320 . S
C43 C41 1.339 . S
C43 C42 1.395 . S
C43 H69 0.929 . S
C44 C42 1.320 . S
C44 C45 1.405 . S
C44 H70 0.930 . S
C45 C40 1.479 . S
C45 C44 1.405 . S
C45 H71 0.931 . S
U46 O47 2.454 . S
U46 O48 2.458 . S
U46 C49 2.984 . S
U46 C50 2.847 . S
U46 C63 2.882 . S
U46 O64 2.441 . S
U46 O65 2.420 . S
U46 O66 2.455 . S
U46 O67 2.449 . S
O47 U46 2.454 . S
O47 C49 1.353 . S
O48 U46 2.458 . S
O48 C49 1.286 . S
C49 U46 2.984 . S
C49 O47 1.353 . S
C49 O48 1.286 . S
C49 C51 1.363 . S
C50 C40 1.465 . S
C50 U46 2.847 . S
C50 O64 1.249 . S
C50 O65 1.202 . S
C51 C49 1.363 . S
C51 C53 1.408 . S
C51 C56 1.342 1_455 S
C52 C53 1.310 1_655 S
C52 C55 1.461 . S
C52 H72 0.932 . S
C53 C51 1.408 . S
C53 C52 1.310 1_455 S
C53 H73 0.930 . S
C54 C55 1.474 . S
C54 C56 1.285 . S
C54 H74 0.929 . S
C55 C52 1.461 . S
C55 C54 1.474 . S
C56 C51 1.342 1_655 S
C56 C54 1.285 . S
C56 H75 0.930 . S
C57 C60 1.424 . S
C57 C62 1.245 . S
C57 C63 1.428 . S
C58 C61 1.260 . S
C58 C62 1.477 . S
C58 H76 0.932 . S
C59 C60 1.384 . S
C59 C61 1.479 . S
C59 H77 0.929 . S
C60 C57 1.424 . S
C60 C59 1.384 . S
C60 H78 0.928 . S
C61 C58 1.260 . S
C61 C59 1.479 . S
C62 C57 1.245 . S
C62 C58 1.477 . S
C62 H79 0.932 . S
C63 U46 2.882 . S
C63 C57 1.428 . S
C63 O66 1.301 . S
C63 O67 1.282 . S
O64 U46 2.441 . S
O64 C50 1.249 . S
O65 U46 2.420 . S
O65 C50 1.202 . S
O66 U46 2.455 . S
O66 C63 1.301 . S
O67 U46 2.449 . S
O67 C63 1.282 . S
H68 C41 0.931 . S
H69 C43 0.929 . S
H70 C44 0.930 . S
H71 C45 0.931 . S
H72 C52 0.932 . S
H73 C53 0.930 . S
H74 C54 0.929 . S
H75 C56 0.930 . S
H76 C58 0.932 . S
H77 C59 0.929 . S
H78 C60 0.928 . S
H79 C62 0.932 . S
C80 C81 1.264 . S
C80 C85 1.479 . S
C80 C90 1.465 . S
C81 C80 1.264 . S
C81 C83 1.339 . S
C81 H108 0.931 . S
C82 C83 1.395 . S
C82 C84 1.320 . S
C83 C81 1.339 . S
C83 C82 1.395 . S
C83 H109 0.929 . S
C84 C82 1.320 . S
C84 C85 1.405 . S
C84 H110 0.930 . S
C85 C80 1.479 . S
C85 C84 1.405 . S
C85 H111 0.931 . S
U86 O87 2.454 . S
U86 O88 2.458 . S
U86 C89 2.984 . S
U86 C90 2.847 . S
U86 C103 2.882 . S
U86 O104 2.441 . S
U86 O105 2.420 . S
U86 O106 2.455 . S
U86 O107 2.449 . S
O87 U86 2.454 . S
O87 C89 1.353 . S
O88 U86 2.458 . S
O88 C89 1.286 . S
C89 U86 2.984 . S
C89 O87 1.353 . S
C89 O88 1.286 . S
C89 C91 1.363 . S
C90 C80 1.465 . S
C90 U86 2.847 . S
C90 O104 1.249 . S
C90 O105 1.202 . S
C91 C89 1.363 . S
C91 C93 1.408 . S
C91 C96 1.342 . S
C92 C93 1.310 . S
C92 C95 1.461 . S
C92 H112 0.932 . S
C93 C91 1.408 . S
C93 C92 1.310 . S
C93 H113 0.930 . S
C94 C95 1.474 . S
C94 C96 1.285 . S
C94 H114 0.929 . S
C95 C92 1.461 . S
C95 C94 1.474 . S
C96 C91 1.342 . S
C96 C94 1.285 . S
C96 H115 0.930 . S
C97 C100 1.424 . S
C97 C102 1.245 . S
C97 C103 1.428 . S
C98 C101 1.260 . S
C98 C102 1.477 . S
C98 H116 0.932 . S
C99 C100 1.384 . S
C99 C101 1.479 . S
C99 H117 0.929 . S
C100 C97 1.424 . S
C100 C99 1.384 . S
C100 H118 0.928 . S
C101 C98 1.260 . S
C101 C99 1.479 . S
C102 C97 1.245 . S
C102 C98 1.477 . S
C102 H119 0.932 . S
C103 U86 2.882 . S
C103 C97 1.428 . S
C103 O106 1.301 . S
C103 O107 1.282 . S
O104 U86 2.441 . S
O104 C90 1.249 . S
O105 U86 2.420 . S
O105 C90 1.202 . S
O106 U86 2.455 . S
O106 C103 1.301 . S
O107 U86 2.449 . S
O107 C103 1.282 . S
H108 C81 0.931 . S
H109 C83 0.929 . S
H110 C84 0.930 . S
H111 C85 0.931 . S
H112 C92 0.932 . S
H113 C93 0.930 . S
H114 C94 0.929 . S
H115 C96 0.930 . S
H116 C98 0.932 . S
H117 C99 0.929 . S
H118 C100 0.928 . S
H119 C102 0.932 . S
C120 C121 1.264 . S
C120 C125 1.479 . S
C120 C130 1.465 . S
C121 C120 1.264 . S
C121 C123 1.339 . S
C121 H148 0.931 . S
C122 C123 1.395 . S
C122 C124 1.320 . S
C123 C121 1.339 . S
C123 C122 1.395 . S
C123 H149 0.929 . S
C124 C122 1.320 . S
C124 C125 1.405 . S
C124 H150 0.930 . S
C125 C120 1.479 . S
C125 C124 1.405 . S
C125 H151 0.931 . S
U126 O127 2.454 . S
U126 O128 2.458 . S
U126 C129 2.984 . S
U126 C130 2.847 . S
U126 C143 2.882 . S
U126 O144 2.441 . S
U126 O145 2.420 . S
U126 O146 2.455 . S
U126 O147 2.449 . S
O127 U126 2.454 . S
O127 C129 1.353 . S
O128 U126 2.458 . S
O128 C129 1.286 . S
C129 U126 2.984 . S
C129 O127 1.353 . S
C129 O128 1.286 . S
C129 C131 1.363 . S
C130 C120 1.465 . S
C130 U126 2.847 . S
C130 O144 1.249 . S
C130 O145 1.202 . S
C131 C129 1.363 . S
C131 C133 1.408 . S
C131 C136 1.342 . S
C132 C133 1.310 . S
C132 C135 1.461 . S
C132 H152 0.932 . S
C133 C131 1.408 . S
C133 C132 1.310 . S
C133 H153 0.930 . S
C134 C135 1.474 . S
C134 C136 1.285 . S
C134 H154 0.929 . S
C135 C132 1.461 . S
C135 C134 1.474 . S
C136 C131 1.342 . S
C136 C134 1.285 . S
C136 H155 0.930 . S
C137 C140 1.424 . S
C137 C142 1.245 . S
C137 C143 1.428 . S
C138 C141 1.260 . S
C138 C142 1.477 . S
C138 H156 0.932 . S
C139 C140 1.384 . S
C139 C141 1.479 . S
C139 H157 0.929 . S
C140 C137 1.424 . S
C140 C139 1.384 . S
C140 H158 0.928 . S
C141 C138 1.260 . S
C141 C139 1.479 . S
C142 C137 1.245 . S
C142 C138 1.477 . S
C142 H159 0.932 . S
C143 U126 2.882 . S
C143 C137 1.428 . S
C143 O146 1.301 . S
C143 O147 1.282 . S
O144 U126 2.441 . S
O144 C130 1.249 . S
O145 U126 2.420 . S
O145 C130 1.202 . S
O146 U126 2.455 . S
O146 C143 1.301 . S
O147 U126 2.449 . S
O147 C143 1.282 . S
H148 C121 0.931 . S
H149 C123 0.929 . S
H150 C124 0.930 . S
H151 C125 0.931 . S
H152 C132 0.932 . S
H153 C133 0.930 . S
H154 C134 0.929 . S
H155 C136 0.930 . S
H156 C138 0.932 . S
H157 C139 0.929 . S
H158 C140 0.928 . S
H159 C142 0.932 . S
C160 C161 1.264 . S
C160 C165 1.479 . S
C160 C170 1.465 . S
C161 C160 1.264 . S
C161 C163 1.339 . S
C161 H188 0.931 . S
C162 C163 1.395 . S
C162 C164 1.320 . S
C163 C161 1.339 . S
C163 C162 1.395 . S
C163 H189 0.929 . S
C164 C162 1.320 . S
C164 C165 1.405 . S
C164 H190 0.930 . S
C165 C160 1.479 . S
C165 C164 1.405 . S
C165 H191 0.931 . S
U166 O167 2.454 . S
U166 O168 2.458 . S
U166 C169 2.984 . S
U166 C170 2.847 . S
U166 C183 2.882 . S
U166 O184 2.441 . S
U166 O185 2.420 . S
U166 O186 2.455 . S
U166 O187 2.449 . S
O167 U166 2.454 . S
O167 C169 1.353 . S
O168 U166 2.458 . S
O168 C169 1.286 . S
C169 U166 2.984 . S
C169 O167 1.353 . S
C169 O168 1.286 . S
C169 C171 1.363 . S
C170 C160 1.465 . S
C170 U166 2.847 . S
C170 O184 1.249 . S
C170 O185 1.202 . S
C171 C169 1.363 . S
C171 C173 1.408 . S
C171 C176 1.342 . S
C172 C173 1.310 . S
C172 C175 1.461 . S
C172 H192 0.932 . S
C173 C171 1.408 . S
C173 C172 1.310 . S
C173 H193 0.930 . S
C174 C175 1.474 . S
C174 C176 1.285 . S
C174 H194 0.929 . S
C175 C172 1.461 . S
C175 C174 1.474 . S
C176 C171 1.342 . S
C176 C174 1.285 . S
C176 H195 0.930 . S
C177 C180 1.424 . S
C177 C182 1.245 . S
C177 C183 1.428 . S
C178 C181 1.260 . S
C178 C182 1.477 . S
C178 H196 0.932 . S
C179 C180 1.384 . S
C179 C181 1.479 . S
C179 H197 0.929 . S
C180 C177 1.424 . S
C180 C179 1.384 . S
C180 H198 0.928 . S
C181 C178 1.260 . S
C181 C179 1.479 . S
C182 C177 1.245 . S
C182 C178 1.477 . S
C182 H199 0.932 . S
C183 U166 2.882 . S
C183 C177 1.428 . S
C183 O186 1.301 . S
C183 O187 1.282 . S
O184 U166 2.441 . S
O184 C170 1.249 . S
O185 U166 2.420 . S
O185 C170 1.202 . S
O186 U166 2.455 . S
O186 C183 1.301 . S
O187 U166 2.449 . S
O187 C183 1.282 . S
H188 C161 0.931 . S
H189 C163 0.929 . S
H190 C164 0.930 . S
H191 C165 0.931 . S
H192 C172 0.932 . S
H193 C173 0.930 . S
H194 C174 0.929 . S
H195 C176 0.930 . S
H196 C178 0.932 . S
H197 C179 0.929 . S
H198 C180 0.928 . S
H199 C182 0.932 . S
C200 C201 1.264 . S
C200 C205 1.479 . S
C200 C210 1.465 . S
C201 C200 1.264 . S
C201 C203 1.339 . S
C201 H228 0.931 . S
C202 C203 1.395 . S
C202 C204 1.320 . S
C203 C201 1.339 . S
C203 C202 1.395 . S
C203 H229 0.929 . S
C204 C202 1.320 . S
C204 C205 1.405 . S
C204 H230 0.930 . S
C205 C200 1.479 . S
C205 C204 1.405 . S
C205 H231 0.931 . S
U206 O207 2.454 . S
U206 O208 2.458 . S
U206 C209 2.984 . S
U206 C210 2.847 . S
U206 C223 2.882 . S
U206 O224 2.441 . S
U206 O225 2.420 . S
U206 O226 2.455 . S
U206 O227 2.449 . S
O207 U206 2.454 . S
O207 C209 1.353 . S
O208 U206 2.458 . S
O208 C209 1.286 . S
C209 U206 2.984 . S
C209 O207 1.353 . S
C209 O208 1.286 . S
C209 C211 1.363 . S
C210 C200 1.465 . S
C210 U206 2.847 . S
C210 O224 1.249 . S
C210 O225 1.202 . S
C211 C209 1.363 . S
C211 C213 1.408 . S
C211 C216 1.342 . S
C212 C213 1.310 . S
C212 C215 1.461 . S
C212 H232 0.932 . S
C213 C211 1.408 . S
C213 C212 1.310 . S
C213 H233 0.930 . S
C214 C215 1.474 . S
C214 C216 1.285 . S
C214 H234 0.929 . S
C215 C212 1.461 . S
C215 C214 1.474 . S
C216 C211 1.342 . S
C216 C214 1.285 . S
C216 H235 0.930 . S
C217 C220 1.424 . S
C217 C222 1.245 . S
C217 C223 1.428 . S
C218 C221 1.260 . S
C218 C222 1.477 . S
C218 H236 0.932 . S
C219 C220 1.384 . S
C219 C221 1.479 . S
C219 H237 0.929 . S
C220 C217 1.424 . S
C220 C219 1.384 . S
C220 H238 0.928 . S
C221 C218 1.260 . S
C221 C219 1.479 . S
C222 C217 1.245 . S
C222 C218 1.477 . S
C222 H239 0.932 . S
C223 U206 2.882 . S
C223 C217 1.428 . S
C223 O226 1.301 . S
C223 O227 1.282 . S
O224 U206 2.441 . S
O224 C210 1.249 . S
O225 U206 2.420 . S
O225 C210 1.202 . S
O226 U206 2.455 . S
O226 C223 1.301 . S
O227 U206 2.449 . S
O227 C223 1.282 . S
H228 C201 0.931 . S
H229 C203 0.929 . S
H230 C204 0.930 . S
H231 C205 0.931 . S
H232 C212 0.932 . S
H233 C213 0.930 . S
H234 C214 0.929 . S
H235 C216 0.930 . S
H236 C218 0.932 . S
H237 C219 0.929 . S
H238 C220 0.928 . S
H239 C222 0.932 . S
C240 C241 1.264 . S
C240 C245 1.479 . S
C240 C250 1.465 . S
C241 C240 1.264 . S
C241 C243 1.339 . S
C241 H268 0.931 . S
C242 C243 1.395 . S
C242 C244 1.320 . S
C243 C241 1.339 . S
C243 C242 1.395 . S
C243 H269 0.929 . S
C244 C242 1.320 . S
C244 C245 1.405 . S
C244 H270 0.930 . S
C245 C240 1.479 . S
C245 C244 1.405 . S
C245 H271 0.931 . S
U246 O247 2.454 . S
U246 O248 2.458 . S
U246 C249 2.984 . S
U246 C250 2.847 . S
U246 C263 2.882 . S
U246 O264 2.441 . S
U246 O265 2.420 . S
U246 O266 2.455 . S
U246 O267 2.449 . S
O247 U246 2.454 . S
O247 C249 1.353 . S
O248 U246 2.458 . S
O248 C249 1.286 . S
C249 U246 2.984 . S
C249 O247 1.353 . S
C249 O248 1.286 . S
C249 C251 1.363 . S
C250 C240 1.465 . S
C250 U246 2.847 . S
C250 O264 1.249 . S
C250 O265 1.202 . S
C251 C249 1.363 . S
C251 C253 1.408 . S
C251 C256 1.342 . S
C252 C253 1.310 . S
C252 C255 1.461 . S
C252 H272 0.932 . S
C253 C251 1.408 . S
C253 C252 1.310 . S
C253 H273 0.930 . S
C254 C255 1.474 . S
C254 C256 1.285 . S
C254 H274 0.929 . S
C255 C252 1.461 . S
C255 C254 1.474 . S
C256 C251 1.342 . S
C256 C254 1.285 . S
C256 H275 0.930 . S
C257 C260 1.424 . S
C257 C262 1.245 . S
C257 C263 1.428 . S
C258 C261 1.260 . S
C258 C262 1.477 . S
C258 H276 0.932 . S
C259 C260 1.384 . S
C259 C261 1.479 . S
C259 H277 0.929 . S
C260 C257 1.424 . S
C260 C259 1.384 . S
C260 H278 0.928 . S
C261 C258 1.260 . S
C261 C259 1.479 . S
C262 C257 1.245 . S
C262 C258 1.477 . S
C262 H279 0.932 . S
C263 U246 2.882 . S
C263 C257 1.428 . S
C263 O266 1.301 . S
C263 O267 1.282 . S
O264 U246 2.441 . S
O264 C250 1.249 . S
O265 U246 2.420 . S
O265 C250 1.202 . S
O266 U246 2.455 . S
O266 C263 1.301 . S
O267 U246 2.449 . S
O267 C263 1.282 . S
H268 C241 0.931 . S
H269 C243 0.929 . S
H270 C244 0.930 . S
H271 C245 0.931 . S
H272 C252 0.932 . S
H273 C253 0.930 . S
H274 C254 0.929 . S
H275 C256 0.930 . S
H276 C258 0.932 . S
H277 C259 0.929 . S
H278 C260 0.928 . S
H279 C262 0.932 . S
C280 C281 1.264 . S
C280 C285 1.479 . S
C280 C290 1.465 . S
C281 C280 1.264 . S
C281 C283 1.339 1_455 S
C281 H308 0.931 . S
C282 C283 1.395 . S
C282 C284 1.320 1_655 S
C283 C281 1.339 1_655 S
C283 C282 1.395 . S
C283 H309 0.929 . S
C284 C282 1.320 1_455 S
C284 C285 1.405 . S
C284 H310 0.930 . S
C285 C280 1.479 . S
C285 C284 1.405 . S
C285 H311 0.931 . S
U286 O287 2.454 . S
U286 O288 2.458 . S
U286 C289 2.984 . S
U286 C290 2.847 . S
U286 C303 2.882 . S
U286 O304 2.441 . S
U286 O305 2.420 . S
U286 O306 2.455 . S
U286 O307 2.449 . S
O287 U286 2.454 . S
O287 C289 1.353 . S
O288 U286 2.458 . S
O288 C289 1.286 . S
C289 U286 2.984 . S
C289 O287 1.353 . S
C289 O288 1.286 . S
C289 C291 1.363 . S
C290 C280 1.465 . S
C290 U286 2.847 . S
C290 O304 1.249 . S
C290 O305 1.202 . S
C291 C289 1.363 . S
C291 C293 1.408 . S
C291 C296 1.342 . S
C292 C293 1.310 . S
C292 C295 1.461 . S
C292 H312 0.932 . S
C293 C291 1.408 . S
C293 C292 1.310 . S
C293 H313 0.930 . S
C294 C295 1.474 . S
C294 C296 1.285 . S
C294 H314 0.929 . S
C295 C292 1.461 . S
C295 C294 1.474 . S
C296 C291 1.342 . S
C296 C294 1.285 . S
C296 H315 0.930 . S
C297 C300 1.424 . S
C297 C302 1.245 . S
C297 C303 1.428 . S
C298 C301 1.260 . S
C298 C302 1.477 . S
C298 H316 0.932 . S
C299 C300 1.384 . S
C299 C301 1.479 . S
C299 H317 0.929 . S
C300 C297 1.424 . S
C300 C299 1.384 . S
C300 H318 0.928 . S
C301 C298 1.260 . S
C301 C299 1.479 . S
C302 C297 1.245 . S
C302 C298 1.477 . S
C302 H319 0.932 . S
C303 U286 2.882 . S
C303 C297 1.428 . S
C303 O306 1.301 . S
C303 O307 1.282 . S
O304 U286 2.441 . S
O304 C290 1.249 . S
O305 U286 2.420 . S
O305 C290 1.202 . S
O306 U286 2.455 . S
O306 C303 1.301 . S
O307 U286 2.449 . S
O307 C303 1.282 . S
H308 C281 0.931 . S
H309 C283 0.929 . S
H310 C284 0.930 . S
H311 C285 0.931 . S
H312 C292 0.932 . S
H313 C293 0.930 . S
H314 C294 0.929 . S
H315 C296 0.930 . S
H316 C298 0.932 . S
H317 C299 0.929 . S
H318 C300 0.928 . S
H319 C302 0.932 . S
Zn320 O326 1.920 . S
Zn320 O332 1.898 . S
Zn320 O335 1.905 . S
Zn321 O329 1.905 . S
Zn321 O330 1.898 . S
Zn321 O338 1.920 . S
Zn322 O325 2.080 . S
Zn322 O328 2.114 . S
Zn322 O331 2.120 . S
Zn322 O333 2.120 . S
Zn322 O334 2.114 . S
Zn322 O337 2.080 . S
C323 O328 1.166 . S
C323 O329 1.182 . S
C324 O330 1.167 . S
C324 O331 1.299 . S
O325 Zn322 2.080 . S
O325 C339 1.305 . S
O326 Zn320 1.920 . S
O326 C339 1.234 . S
C327 O332 1.167 . S
C327 O333 1.299 . S
O328 Zn322 2.114 . S
O328 C323 1.166 . S
O329 Zn321 1.905 . S
O329 C323 1.182 . S
O330 Zn321 1.898 . S
O330 C324 1.167 . S
O331 Zn322 2.120 . S
O331 C324 1.299 . S
O332 Zn320 1.898 . S
O332 C327 1.167 . S
O333 Zn322 2.120 . S
O333 C327 1.299 . S
O334 Zn322 2.114 . S
O334 C336 1.166 . S
O335 Zn320 1.905 . S
O335 C336 1.182 . S
C336 O334 1.166 . S
C336 O335 1.182 . S
O337 Zn322 2.080 . S
O337 C340 1.305 . S
O338 Zn321 1.920 . S
O338 C340 1.234 . S
C339 O325 1.305 . S
C339 O326 1.234 . S
C340 O337 1.305 . S
C340 O338 1.234 . S
Zn341 O347 1.920 . S
Zn341 O353 1.898 . S
Zn341 O356 1.905 . S
Zn342 O350 1.905 . S
Zn342 O351 1.898 . S
Zn342 O359 1.920 . S
Zn343 O346 2.080 . S
Zn343 O349 2.114 . S
Zn343 O352 2.120 . S
Zn343 O354 2.120 . S
Zn343 O355 2.114 . S
Zn343 O358 2.080 . S
C344 O349 1.166 . S
C344 O350 1.182 . S
C345 O351 1.167 . S
C345 O352 1.299 . S
O346 Zn343 2.080 . S
O346 C360 1.305 . S
O347 Zn341 1.920 . S
O347 C360 1.234 . S
C348 O353 1.167 . S
C348 O354 1.299 . S
O349 Zn343 2.114 . S
O349 C344 1.166 . S
O350 Zn342 1.905 . S
O350 C344 1.182 . S
O351 Zn342 1.898 . S
O351 C345 1.167 . S
O352 Zn343 2.120 . S
O352 C345 1.299 . S
O353 Zn341 1.898 . S
O353 C348 1.167 . S
O354 Zn343 2.120 . S
O354 C348 1.299 . S
O355 Zn343 2.114 . S
O355 C357 1.166 . S
O356 Zn341 1.905 . S
O356 C357 1.182 . S
C357 O355 1.166 . S
C357 O356 1.182 . S
O358 Zn343 2.080 . S
O358 C361 1.305 . S
O359 Zn342 1.920 . S
O359 C361 1.234 . S
C360 O346 1.305 . S
C360 O347 1.234 . S
C361 O358 1.305 . S
C361 O359 1.234 . S
Zn362 O368 1.920 . S
Zn362 O374 1.898 . S
Zn362 O377 1.905 . S
Zn363 O371 1.905 . S
Zn363 O372 1.898 . S
Zn363 O380 1.920 . S
Zn364 O367 2.080 . S
Zn364 O370 2.114 . S
Zn364 O373 2.120 . S
Zn364 O375 2.120 . S
Zn364 O376 2.114 . S
Zn364 O379 2.080 . S
C365 O370 1.166 . S
C365 O371 1.182 . S
C366 O372 1.167 . S
C366 O373 1.299 . S
O367 Zn364 2.080 . S
O367 C381 1.305 . S
O368 Zn362 1.920 . S
O368 C381 1.234 . S
C369 O374 1.167 . S
C369 O375 1.299 . S
O370 Zn364 2.114 . S
O370 C365 1.166 . S
O371 Zn363 1.905 . S
O371 C365 1.182 . S
O372 Zn363 1.898 . S
O372 C366 1.167 . S
O373 Zn364 2.120 . S
O373 C366 1.299 . S
O374 Zn362 1.898 . S
O374 C369 1.167 . S
O375 Zn364 2.120 . S
O375 C369 1.299 . S
O376 Zn364 2.114 . S
O376 C378 1.166 . S
O377 Zn362 1.905 . S
O377 C378 1.182 . S
C378 O376 1.166 . S
C378 O377 1.182 . S
O379 Zn364 2.080 . S
O379 C382 1.305 . S
O380 Zn363 1.920 . S
O380 C382 1.234 . S
C381 O367 1.305 . S
C381 O368 1.234 . S
C382 O379 1.305 . S
C382 O380 1.234 . S
Zn383 O389 1.920 . S
Zn383 O395 1.898 . S
Zn383 O398 1.905 . S
Zn384 O392 1.905 . S
Zn384 O393 1.898 . S
Zn384 O401 1.920 . S
Zn385 O388 2.080 . S
Zn385 O391 2.114 . S
Zn385 O394 2.120 . S
Zn385 O396 2.120 . S
Zn385 O397 2.114 . S
Zn385 O400 2.080 . S
C386 O391 1.166 . S
C386 O392 1.182 . S
C387 O393 1.167 . S
C387 O394 1.299 . S
O388 Zn385 2.080 . S
O388 C402 1.305 . S
O389 Zn383 1.920 . S
O389 C402 1.234 . S
C390 O395 1.167 . S
C390 O396 1.299 . S
O391 Zn385 2.114 . S
O391 C386 1.166 . S
O392 Zn384 1.905 . S
O392 C386 1.182 . S
O393 Zn384 1.898 . S
O393 C387 1.167 . S
O394 Zn385 2.120 . S
O394 C387 1.299 . S
O395 Zn383 1.898 . S
O395 C390 1.167 . S
O396 Zn385 2.120 . S
O396 C390 1.299 . S
O397 Zn385 2.114 . S
O397 C399 1.166 . S
O398 Zn383 1.905 . S
O398 C399 1.182 . S
C399 O397 1.166 . S
C399 O398 1.182 . S
O400 Zn385 2.080 . S
O400 C403 1.305 . S
O401 Zn384 1.920 . S
O401 C403 1.234 . S
C402 O388 1.305 . S
C402 O389 1.234 . S
C403 O400 1.305 . S
C403 O401 1.234 . S
H404 C412 0.950 . S
H405 C417 0.950 . S
H406 C414 0.950 . S
H407 C416 0.950 . S
H408 C418 0.950 . S
H409 C420 0.950 . S
H410 C422 0.950 . S
H411 C423 0.950 . S
C412 H404 0.950 . S
C412 C413 1.386 . S
C412 C414 1.391 . S
C413 C412 1.386 . S
C413 C417 1.393 . S
C414 H406 0.950 . S
C414 C412 1.391 . S
C414 C415 1.400 . S
C415 C414 1.400 . S
C415 C416 1.398 . S
C415 C421 1.491 . S
C416 H407 0.950 . S
C416 C415 1.398 . S
C416 C417 1.391 . S
C417 H405 0.950 . S
C417 C413 1.393 . S
C417 C416 1.391 . S
C418 H408 0.950 . S
C418 C419 1.386 . S
C418 C420 1.391 . S
C419 C418 1.386 . S
C419 C423 1.393 . S
C420 H409 0.950 . S
C420 C418 1.391 . S
C420 C421 1.400 . S
C421 C415 1.491 . S
C421 C420 1.400 . S
C421 C422 1.398 . S
C422 H410 0.950 . S
C422 C421 1.398 . S
C422 C423 1.391 . S
C423 H411 0.950 . S
C423 C419 1.393 . S
C423 C422 1.391 . S
H424 C432 0.950 . S
H425 C437 0.950 . S
H426 C434 0.950 . S
H427 C436 0.950 . S
H428 C438 0.950 . S
H429 C440 0.950 . S
H430 C442 0.950 . S
H431 C443 0.950 . S
C432 H424 0.950 . S
C432 C433 1.386 . S
C432 C434 1.391 . S
C433 C432 1.386 . S
C433 C437 1.393 . S
C434 H426 0.950 . S
C434 C432 1.391 . S
C434 C435 1.400 . S
C435 C434 1.400 . S
C435 C436 1.398 . S
C435 C441 1.491 . S
C436 H427 0.950 . S
C436 C435 1.398 . S
C436 C437 1.391 . S
C437 H425 0.950 . S
C437 C433 1.393 . S
C437 C436 1.391 . S
C438 H428 0.950 . S
C438 C439 1.386 . S
C438 C440 1.391 . S
C439 C438 1.386 . S
C439 C443 1.393 . S
C440 H429 0.950 . S
C440 C438 1.391 . S
C440 C441 1.400 . S
C441 C435 1.491 . S
C441 C440 1.400 . S
C441 C442 1.398 . S
C442 H430 0.950 . S
C442 C441 1.398 . S
C442 C443 1.391 . S
C443 H431 0.950 . S
C443 C439 1.393 . S
C443 C442 1.391 . S
H444 C452 0.950 . S
H445 C457 0.950 . S
H446 C454 0.950 . S
H447 C456 0.950 . S
H448 C458 0.950 . S
H449 C460 0.950 . S
H450 C462 0.950 . S
H451 C463 0.950 . S
C452 H444 0.950 . S
C452 C453 1.386 . S
C452 C454 1.391 . S
C453 C452 1.386 . S
C453 C457 1.393 . S
C454 H446 0.950 . S
C454 C452 1.391 . S
C454 C455 1.400 . S
C455 C454 1.400 . S
C455 C456 1.398 . S
C455 C461 1.491 . S
C456 H447 0.950 . S
C456 C455 1.398 . S
C456 C457 1.391 . S
C457 H445 0.950 . S
C457 C453 1.393 . S
C457 C456 1.391 . S
C458 H448 0.950 . S
C458 C459 1.386 . S
C458 C460 1.391 . S
C459 C458 1.386 . S
C459 C463 1.393 . S
C460 H449 0.950 . S
C460 C458 1.391 . S
C460 C461 1.400 . S
C461 C455 1.491 . S
C461 C460 1.400 . S
C461 C462 1.398 . S
C462 H450 0.950 . S
C462 C461 1.398 . S
C462 C463 1.391 . S
C463 H451 0.950 . S
C463 C459 1.393 . S
C463 C462 1.391 . S
H464 C472 0.950 . S
H465 C477 0.950 . S
H466 C474 0.950 . S
H467 C476 0.950 . S
H468 C478 0.950 1_455 S
H469 C480 0.950 . S
H470 C482 0.950 . S
H471 C483 0.950 1_455 S
C472 H464 0.950 . S
C472 C473 1.386 . S
C472 C474 1.391 . S
C473 C472 1.386 . S
C473 C477 1.393 . S
C474 H466 0.950 . S
C474 C472 1.391 . S
C474 C475 1.400 . S
C475 C474 1.400 . S
C475 C476 1.398 . S
C475 C481 1.491 . S
C476 H467 0.950 . S
C476 C475 1.398 . S
C476 C477 1.391 . S
C477 H465 0.950 . S
C477 C473 1.393 . S
C477 C476 1.391 . S
C478 H468 0.950 1_655 S
C478 C479 1.386 1_655 S
C478 C480 1.391 . S
C479 C478 1.386 1_455 S
C479 C483 1.393 1_455 S
C480 H469 0.950 . S
C480 C478 1.391 . S
C480 C481 1.400 . S
C481 C475 1.491 . S
C481 C480 1.400 . S
C481 C482 1.398 . S
C482 H470 0.950 . S
C482 C481 1.398 . S
C482 C483 1.391 . S
C483 H471 0.950 1_655 S
C483 C479 1.393 1_655 S
C483 C482 1.391 . S
H484 C492 0.950 . S
H485 C497 0.950 . S
H486 C494 0.950 . S
H487 C496 0.950 . S
H488 C498 0.950 . S
H489 C500 0.950 . S
H490 C502 0.950 . S
H491 C503 0.950 . S
C492 H484 0.950 . S
C492 C493 1.386 . S
C492 C494 1.391 . S
C493 C492 1.386 . S
C493 C497 1.393 . S
C494 H486 0.950 . S
C494 C492 1.391 . S
C494 C495 1.400 . S
C495 C494 1.400 . S
C495 C496 1.398 . S
C495 C501 1.491 . S
C496 H487 0.950 . S
C496 C495 1.398 . S
C496 C497 1.391 . S
C497 H485 0.950 . S
C497 C493 1.393 . S
C497 C496 1.391 . S
C498 H488 0.950 . S
C498 C499 1.386 . S
C498 C500 1.391 . S
C499 C498 1.386 . S
C499 C503 1.393 . S
C500 H489 0.950 . S
C500 C498 1.391 . S
C500 C501 1.400 . S
C501 C495 1.491 . S
C501 C500 1.400 . S
C501 C502 1.398 . S
C502 H490 0.950 . S
C502 C501 1.398 . S
C502 C503 1.391 . S
C503 H491 0.950 . S
C503 C499 1.393 . S
C503 C502 1.391 . S
H504 C512 0.950 . S
H505 C517 0.950 . S
H506 C514 0.950 . S
H507 C516 0.950 . S
H508 C518 0.950 . S
H509 C520 0.950 . S
H510 C522 0.950 . S
H511 C523 0.950 1_455 S
C512 H504 0.950 . S
C512 C513 1.386 . S
C512 C514 1.391 . S
C513 C512 1.386 . S
C513 C517 1.393 . S
C514 H506 0.950 . S
C514 C512 1.391 . S
C514 C515 1.400 . S
C515 C514 1.400 . S
C515 C516 1.398 . S
C515 C521 1.491 . S
C516 H507 0.950 . S
C516 C515 1.398 . S
C516 C517 1.391 . S
C517 H505 0.950 . S
C517 C513 1.393 . S
C517 C516 1.391 . S
C518 H508 0.950 . S
C518 C519 1.386 . S
C518 C520 1.391 1_455 S
C519 C518 1.386 . S
C519 C523 1.393 1_455 S
C520 H509 0.950 . S
C520 C518 1.391 1_655 S
C520 C521 1.400 . S
C521 C515 1.491 . S
C521 C520 1.400 . S
C521 C522 1.398 . S
C522 H510 0.950 . S
C522 C521 1.398 . S
C522 C523 1.391 . S
C523 H511 0.950 1_655 S
C523 C519 1.393 1_655 S
C523 C522 1.391 . S
H524 C532 0.950 . S
H525 C537 0.950 . S
H526 C534 0.950 . S
H527 C536 0.950 . S
H528 C538 0.950 . S
H529 C540 0.950 . S
H530 C542 0.950 . S
H531 C543 0.950 . S
C532 H524 0.950 . S
C532 C533 1.386 . S
C532 C534 1.391 . S
C533 C532 1.386 . S
C533 C537 1.393 . S
C534 H526 0.950 . S
C534 C532 1.391 . S
C534 C535 1.400 . S
C535 C534 1.400 . S
C535 C536 1.398 . S
C535 C541 1.491 . S
C536 H527 0.950 . S
C536 C535 1.398 . S
C536 C537 1.391 . S
C537 H525 0.950 . S
C537 C533 1.393 . S
C537 C536 1.391 . S
C538 H528 0.950 . S
C538 C539 1.386 . S
C538 C540 1.391 . S
C539 C538 1.386 . S
C539 C543 1.393 . S
C540 H529 0.950 . S
C540 C538 1.391 . S
C540 C541 1.400 . S
C541 C535 1.491 . S
C541 C540 1.400 . S
C541 C542 1.398 . S
C542 H530 0.950 . S
C542 C541 1.398 . S
C542 C543 1.391 . S
C543 H531 0.950 . S
C543 C539 1.393 . S
C543 C542 1.391 . S
H544 C552 0.950 . S
H545 C557 0.950 . S
H546 C554 0.950 . S
H547 C556 0.950 . S
H548 C558 0.950 . S
H549 C560 0.950 . S
H550 C562 0.950 . S
H551 C563 0.950 . S
C552 H544 0.950 . S
C552 C553 1.386 . S
C552 C554 1.391 . S
C553 C552 1.386 . S
C553 C557 1.393 . S
C554 H546 0.950 . S
C554 C552 1.391 . S
C554 C555 1.400 . S
C555 C554 1.400 . S
C555 C556 1.398 . S
C555 C561 1.491 . S
C556 H547 0.950 . S
C556 C555 1.398 . S
C556 C557 1.391 . S
C557 H545 0.950 . S
C557 C553 1.393 . S
C557 C556 1.391 . S
C558 H548 0.950 . S
C558 C559 1.386 . S
C558 C560 1.391 . S
C559 C558 1.386 . S
C559 C563 1.393 . S
C560 H549 0.950 . S
C560 C558 1.391 . S
C560 C561 1.400 . S
C561 C555 1.491 . S
C561 C560 1.400 . S
C561 C562 1.398 . S
C562 H550 0.950 . S
C562 C561 1.398 . S
C562 C563 1.391 . S
C563 H551 0.950 . S
C563 C559 1.393 . S
C563 C562 1.391 . S
H564 C572 0.950 . S
H565 C577 0.950 . S
H566 C574 0.950 . S
H567 C576 0.950 . S
H568 C578 0.950 . S
H569 C580 0.950 . S
H570 C582 0.950 . S
H571 C583 0.950 . S
C572 H564 0.950 . S
C572 C573 1.386 . S
C572 C574 1.391 . S
C573 C572 1.386 . S
C573 C577 1.393 . S
C574 H566 0.950 . S
C574 C572 1.391 . S
C574 C575 1.400 . S
C575 C574 1.400 . S
C575 C576 1.398 . S
C575 C581 1.491 . S
C576 H567 0.950 . S
C576 C575 1.398 . S
C576 C577 1.391 . S
C577 H565 0.950 . S
C577 C573 1.393 . S
C577 C576 1.391 . S
C578 H568 0.950 . S
C578 C579 1.386 . S
C578 C580 1.391 . S
C579 C578 1.386 . S
C579 C583 1.393 . S
C580 H569 0.950 . S
C580 C578 1.391 . S
C580 C581 1.400 . S
C581 C575 1.491 . S
C581 C580 1.400 . S
C581 C582 1.398 . S
C582 H570 0.950 . S
C582 C581 1.398 . S
C582 C583 1.391 . S
C583 H571 0.950 . S
C583 C579 1.393 . S
C583 C582 1.391 . S
H584 C592 0.950 . S
H585 C597 0.950 . S
H586 C594 0.950 . S
H587 C596 0.950 . S
H588 C598 0.950 . S
H589 C600 0.950 . S
H590 C602 0.950 . S
H591 C603 0.950 . S
C592 H584 0.950 . S
C592 C593 1.386 . S
C592 C594 1.391 . S
C593 C592 1.386 . S
C593 C597 1.393 . S
C594 H586 0.950 . S
C594 C592 1.391 . S
C594 C595 1.400 . S
C595 C594 1.400 . S
C595 C596 1.398 . S
C595 C601 1.491 . S
C596 H587 0.950 . S
C596 C595 1.398 . S
C596 C597 1.391 . S
C597 H585 0.950 . S
C597 C593 1.393 . S
C597 C596 1.391 . S
C598 H588 0.950 . S
C598 C599 1.386 . S
C598 C600 1.391 . S
C599 C598 1.386 . S
C599 C603 1.393 . S
C600 H589 0.950 . S
C600 C598 1.391 . S
C600 C601 1.400 . S
C601 C595 1.491 . S
C601 C600 1.400 . S
C601 C602 1.398 . S
C602 H590 0.950 . S
C602 C601 1.398 . S
C602 C603 1.391 . S
C603 H591 0.950 . S
C603 C599 1.393 . S
C603 C602 1.391 . S
H604 C612 0.950 . S
H605 C617 0.950 . S
H606 C614 0.950 . S
H607 C616 0.950 . S
H608 C618 0.950 . S
H609 C620 0.950 . S
H610 C622 0.950 . S
H611 C623 0.950 . S
C612 H604 0.950 . S
C612 C613 1.386 . S
C612 C614 1.391 . S
C613 C612 1.386 . S
C613 C617 1.393 . S
C614 H606 0.950 . S
C614 C612 1.391 . S
C614 C615 1.400 . S
C615 C614 1.400 . S
C615 C616 1.398 . S
C615 C621 1.491 . S
C616 H607 0.950 . S
C616 C615 1.398 . S
C616 C617 1.391 . S
C617 H605 0.950 . S
C617 C613 1.393 . S
C617 C616 1.391 . S
C618 H608 0.950 . S
C618 C619 1.386 . S
C618 C620 1.391 . S
C619 C618 1.386 . S
C619 C623 1.393 . S
C620 H609 0.950 . S
C620 C618 1.391 . S
C620 C621 1.400 . S
C621 C615 1.491 . S
C621 C620 1.400 . S
C621 C622 1.398 . S
C622 H610 0.950 . S
C622 C621 1.398 . S
C622 C623 1.391 . S
C623 H611 0.950 . S
C623 C619 1.393 . S
C623 C622 1.391 . S
H624 C632 0.950 . S
H625 C637 0.950 . S
H626 C634 0.950 . S
H627 C636 0.950 . S
H628 C638 0.950 . S
H629 C640 0.950 . S
H630 C642 0.950 . S
H631 C643 0.950 . S
C632 H624 0.950 . S
C632 C633 1.386 . S
C632 C634 1.391 . S
C633 C632 1.386 . S
C633 C637 1.393 . S
C634 H626 0.950 . S
C634 C632 1.391 . S
C634 C635 1.400 . S
C635 C634 1.400 . S
C635 C636 1.398 . S
C635 C641 1.491 . S
C636 H627 0.950 . S
C636 C635 1.398 . S
C636 C637 1.391 . S
C637 H625 0.950 . S
C637 C633 1.393 . S
C637 C636 1.391 . S
C638 H628 0.950 . S
C638 C639 1.386 . S
C638 C640 1.391 . S
C639 C638 1.386 . S
C639 C643 1.393 . S
C640 H629 0.950 . S
C640 C638 1.391 . S
C640 C641 1.400 . S
C641 C635 1.491 . S
C641 C640 1.400 . S
C641 C642 1.398 . S
C642 H630 0.950 . S
C642 C641 1.398 . S
C642 C643 1.391 . S
C643 H631 0.950 . S
C643 C639 1.393 . S
C643 C642 1.391 . S
H644 C652 0.950 . S
H645 C657 0.950 . S
H646 C654 0.950 . S
H647 C656 0.950 . S
H648 C658 0.950 . S
H649 C660 0.950 . S
H650 C662 0.950 . S
H651 C663 0.950 . S
C652 H644 0.950 . S
C652 C653 1.386 . S
C652 C654 1.391 1_565 S
C653 C652 1.386 . S
C653 C657 1.393 . S
C654 H646 0.950 . S
C654 C652 1.391 1_545 S
C654 C655 1.400 . S
C655 C654 1.400 . S
C655 C656 1.398 1_545 S
C655 C661 1.491 . S
C656 H647 0.950 . S
C656 C655 1.398 1_565 S
C656 C657 1.391 . S
C657 H645 0.950 . S
C657 C653 1.393 . S
C657 C656 1.391 . S
C658 H648 0.950 . S
C658 C659 1.386 . S
C658 C660 1.391 . S
C659 C658 1.386 . S
C659 C663 1.393 . S
C660 H649 0.950 . S
C660 C658 1.391 . S
C660 C661 1.400 . S
C661 C655 1.491 . S
C661 C660 1.400 . S
C661 C662 1.398 . S
C662 H650 0.950 . S
C662 C661 1.398 . S
C662 C663 1.391 . S
C663 H651 0.950 . S
C663 C659 1.393 . S
C663 C662 1.391 . S
H664 C672 0.950 . S
H665 C677 0.950 . S
H666 C674 0.950 . S
H667 C676 0.950 . S
H668 C678 0.950 . S
H669 C680 0.950 . S
H670 C682 0.950 . S
H671 C683 0.950 . S
C672 H664 0.950 . S
C672 C673 1.386 . S
C672 C674 1.391 1_545 S
C673 C672 1.386 . S
C673 C677 1.393 . S
C674 H666 0.950 . S
C674 C672 1.391 1_565 S
C674 C675 1.400 . S
C675 C674 1.400 . S
C675 C676 1.398 . S
C675 C681 1.491 . S
C676 H667 0.950 . S
C676 C675 1.398 . S
C676 C677 1.391 1_565 S
C677 H665 0.950 . S
C677 C673 1.393 . S
C677 C676 1.391 1_545 S
C678 H668 0.950 . S
C678 C679 1.386 . S
C678 C680 1.391 . S
C679 C678 1.386 . S
C679 C683 1.393 . S
C680 H669 0.950 . S
C680 C678 1.391 . S
C680 C681 1.400 . S
C681 C675 1.491 . S
C681 C680 1.400 . S
C681 C682 1.398 . S
C682 H670 0.950 . S
C682 C681 1.398 . S
C682 C683 1.391 . S
C683 H671 0.950 . S
C683 C679 1.393 . S
C683 C682 1.391 . S
H684 C692 0.950 . S
H685 C697 0.950 . S
H686 C694 0.950 . S
H687 C696 0.950 . S
H688 C698 0.950 . S
H689 C700 0.950 . S
H690 C702 0.950 . S
H691 C703 0.950 . S
C692 H684 0.950 . S
C692 C693 1.386 . S
C692 C694 1.391 1_545 S
C693 C692 1.386 . S
C693 C697 1.393 . S
C694 H686 0.950 . S
C694 C692 1.391 1_565 S
C694 C695 1.400 . S
C695 C694 1.400 . S
C695 C696 1.398 . S
C695 C701 1.491 . S
C696 H687 0.950 . S
C696 C695 1.398 . S
C696 C697 1.391 1_565 S
C697 H685 0.950 . S
C697 C693 1.393 . S
C697 C696 1.391 1_545 S
C698 H688 0.950 . S
C698 C699 1.386 . S
C698 C700 1.391 . S
C699 C698 1.386 . S
C699 C703 1.393 . S
C700 H689 0.950 . S
C700 C698 1.391 . S
C700 C701 1.400 . S
C701 C695 1.491 . S
C701 C700 1.400 . S
C701 C702 1.398 . S
C702 H690 0.950 . S
C702 C701 1.398 . S
C702 C703 1.391 . S
C703 H691 0.950 . S
C703 C699 1.393 . S
C703 C702 1.391 . S
H704 C712 0.950 . S
H705 C717 0.950 . S
H706 C714 0.961 . S
H707 C716 0.950 . S
H708 C718 0.950 . S
H709 C720 0.950 . S
H710 C722 0.950 . S
H711 C723 0.950 . S
C712 H704 0.950 . S
C712 C713 1.386 . S
C712 C714 1.391 . S
C713 C712 1.386 . S
C713 C717 1.393 . S
C714 H706 0.961 . S
C714 C712 1.391 . S
C714 C715 1.400 1_565 S
C715 C714 1.400 1_545 S
C715 C716 1.398 . S
C715 C721 1.491 . S
C716 H707 0.950 . S
C716 C715 1.398 . S
C716 C717 1.391 1_545 S
C717 H705 0.950 . S
C717 C713 1.393 . S
C717 C716 1.391 1_565 S
C718 H708 0.950 . S
C718 C719 1.386 . S
C718 C720 1.391 . S
C719 C718 1.386 . S
C719 C723 1.393 . S
C720 H709 0.950 . S
C720 C718 1.391 . S
C720 C721 1.400 . S
C721 C715 1.491 . S
C721 C720 1.400 . S
C721 C722 1.398 . S
C722 H710 0.950 . S
C722 C721 1.398 . S
C722 C723 1.391 . S
C723 H711 0.950 . S
C723 C719 1.393 . S
C723 C722 1.391 . S
H724 C732 0.950 . S
H725 C737 0.950 . S
H726 C734 0.950 . S
H727 C736 0.950 . S
H728 C738 0.950 . S
H729 C740 0.950 . S
H730 C742 0.950 . S
H731 C743 0.950 . S
C732 H724 0.950 . S
C732 C733 1.386 . S
C732 C734 1.391 . S
C733 C732 1.386 . S
C733 C737 1.393 . S
C734 H726 0.950 . S
C734 C732 1.391 . S
C734 C735 1.400 . S
C735 C734 1.400 . S
C735 C736 1.398 . S
C735 C741 1.491 . S
C736 H727 0.950 . S
C736 C735 1.398 . S
C736 C737 1.391 . S
C737 H725 0.950 . S
C737 C733 1.393 . S
C737 C736 1.391 . S
C738 H728 0.950 . S
C738 C739 1.386 . S
C738 C740 1.391 . S
C739 C738 1.386 . S
C739 C743 1.393 . S
C740 H729 0.950 . S
C740 C738 1.391 . S
C740 C741 1.400 . S
C741 C735 1.491 . S
C741 C740 1.400 . S
C741 C742 1.398 . S
C742 H730 0.950 . S
C742 C741 1.398 . S
C742 C743 1.391 . S
C743 H731 0.950 . S
C743 C739 1.393 . S
C743 C742 1.391 . S
H744 C752 0.950 . S
H745 C757 0.950 . S
H746 C754 0.950 . S
H747 C756 0.950 . S
H748 C758 0.950 . S
H749 C760 0.950 . S
H750 C762 0.950 . S
H751 C763 0.950 . S
C752 H744 0.950 . S
C752 C753 1.386 . S
C752 C754 1.391 . S
C753 C752 1.386 . S
C753 C757 1.393 . S
C754 H746 0.950 . S
C754 C752 1.391 . S
C754 C755 1.400 . S
C755 C754 1.400 . S
C755 C756 1.398 . S
C755 C761 1.491 . S
C756 H747 0.950 . S
C756 C755 1.398 . S
C756 C757 1.391 . S
C757 H745 0.950 . S
C757 C753 1.393 . S
C757 C756 1.391 . S
C758 H748 0.950 . S
C758 C759 1.386 . S
C758 C760 1.391 . S
C759 C758 1.386 . S
C759 C763 1.393 . S
C760 H749 0.950 . S
C760 C758 1.391 . S
C760 C761 1.400 . S
C761 C755 1.491 . S
C761 C760 1.400 . S
C761 C762 1.398 . S
C762 H750 0.950 . S
C762 C761 1.398 . S
C762 C763 1.391 . S
C763 H751 0.950 . S
C763 C759 1.393 . S
C763 C762 1.391 . S
H764 C772 0.950 . S
H765 C777 0.950 . S
H766 C774 0.950 . S
H767 C776 0.950 . S
H768 C778 0.950 . S
H769 C780 0.950 . S
H770 C782 0.950 . S
H771 C783 0.950 . S
C772 H764 0.950 . S
C772 C773 1.386 . S
C772 C774 1.391 . S
C773 C772 1.386 . S
C773 C777 1.393 . S
C774 H766 0.950 . S
C774 C772 1.391 . S
C774 C775 1.400 . S
C775 C774 1.400 . S
C775 C776 1.398 . S
C775 C781 1.491 . S
C776 H767 0.950 . S
C776 C775 1.398 . S
C776 C777 1.391 . S
C777 H765 0.950 . S
C777 C773 1.393 . S
C777 C776 1.391 . S
C778 H768 0.950 . S
C778 C779 1.386 . S
C778 C780 1.391 . S
C779 C778 1.386 . S
C779 C783 1.393 . S
C780 H769 0.950 . S
C780 C778 1.391 . S
C780 C781 1.400 . S
C781 C775 1.491 . S
C781 C780 1.400 . S
C781 C782 1.398 . S
C782 H770 0.950 . S
C782 C781 1.398 . S
C782 C783 1.391 . S
C783 H771 0.950 . S
C783 C779 1.393 . S
C783 C782 1.391 . S
H784 C792 0.950 . S
H785 C797 0.950 . S
H786 C794 0.950 . S
H787 C796 0.950 . S
H788 C798 0.950 . S
H789 C800 0.950 . S
H790 C802 0.950 . S
H791 C803 0.950 . S
C792 H784 0.950 . S
C792 C793 1.386 . S
C792 C794 1.391 . S
C793 C792 1.386 . S
C793 C797 1.393 . S
C794 H786 0.950 . S
C794 C792 1.391 . S
C794 C795 1.400 . S
C795 C794 1.400 . S
C795 C796 1.398 . S
C795 C801 1.491 . S
C796 H787 0.950 . S
C796 C795 1.398 . S
C796 C797 1.391 . S
C797 H785 0.950 . S
C797 C793 1.393 . S
C797 C796 1.391 . S
C798 H788 0.950 . S
C798 C799 1.386 . S
C798 C800 1.391 . S
C799 C798 1.386 . S
C799 C803 1.393 . S
C800 H789 0.950 . S
C800 C798 1.391 . S
C800 C801 1.400 . S
C801 C795 1.491 . S
C801 C800 1.400 . S
C801 C802 1.398 . S
C802 H790 0.950 . S
C802 C801 1.398 . S
C802 C803 1.391 . S
C803 H791 0.950 . S
C803 C799 1.393 . S
C803 C802 1.391 . S
H804 C812 0.950 . S
H805 C817 0.950 . S
H806 C814 0.950 . S
H807 C816 0.950 . S
H808 C818 0.950 . S
H809 C820 0.950 . S
H810 C822 0.950 . S
H811 C823 0.950 . S
C812 H804 0.950 . S
C812 C813 1.386 . S
C812 C814 1.391 . S
C813 C812 1.386 . S
C813 C817 1.393 . S
C814 H806 0.950 . S
C814 C812 1.391 . S
C814 C815 1.400 . S
C815 C814 1.400 . S
C815 C816 1.398 . S
C815 C821 1.491 . S
C816 H807 0.950 . S
C816 C815 1.398 . S
C816 C817 1.391 . S
C817 H805 0.950 . S
C817 C813 1.393 . S
C817 C816 1.391 . S
C818 H808 0.950 . S
C818 C819 1.386 . S
C818 C820 1.391 . S
C819 C818 1.386 . S
C819 C823 1.393 . S
C820 H809 0.950 . S
C820 C818 1.391 . S
C820 C821 1.400 . S
C821 C815 1.491 . S
C821 C820 1.400 . S
C821 C822 1.398 . S
C822 H810 0.950 . S
C822 C821 1.398 . S
C822 C823 1.391 . S
C823 H811 0.950 . S
C823 C819 1.393 . S
C823 C822 1.391 . S
H824 C832 0.950 . S
H825 C837 0.950 . S
H826 C834 0.950 . S
H827 C836 0.950 . S
H828 C838 0.950 . S
H829 C840 0.950 . S
H830 C842 0.950 . S
H831 C843 0.950 . S
C832 H824 0.950 . S
C832 C833 1.386 . S
C832 C834 1.391 . S
C833 C832 1.386 . S
C833 C837 1.393 . S
C834 H826 0.950 . S
C834 C832 1.391 . S
C834 C835 1.400 . S
C835 C834 1.400 . S
C835 C836 1.398 . S
C835 C841 1.491 . S
C836 H827 0.950 . S
C836 C835 1.398 . S
C836 C837 1.391 . S
C837 H825 0.950 . S
C837 C833 1.393 . S
C837 C836 1.391 . S
C838 H828 0.950 . S
C838 C839 1.386 . S
C838 C840 1.391 . S
C839 C838 1.386 . S
C839 C843 1.393 . S
C840 H829 0.950 . S
C840 C838 1.391 . S
C840 C841 1.400 . S
C841 C835 1.491 . S
C841 C840 1.400 . S
C841 C842 1.398 . S
C842 H830 0.950 . S
C842 C841 1.398 . S
C842 C843 1.391 . S
C843 H831 0.950 . S
C843 C839 1.393 . S
C843 C842 1.391 . S
H844 C852 0.950 . S
H845 C857 0.950 . S
H846 C854 0.950 . S
H847 C856 0.950 . S
H848 C858 0.950 . S
H849 C860 0.950 . S
H850 C862 0.950 . S
H851 C863 0.950 . S
C852 H844 0.950 . S
C852 C853 1.386 . S
C852 C854 1.391 . S
C853 C852 1.386 . S
C853 C857 1.393 . S
C854 H846 0.950 . S
C854 C852 1.391 . S
C854 C855 1.400 . S
C855 C854 1.400 . S
C855 C856 1.398 . S
C855 C861 1.491 . S
C856 H847 0.950 . S
C856 C855 1.398 . S
C856 C857 1.391 . S
C857 H845 0.950 . S
C857 C853 1.393 . S
C857 C856 1.391 . S
C858 H848 0.950 . S
C858 C859 1.386 . S
C858 C860 1.391 . S
C859 C858 1.386 . S
C859 C863 1.393 . S
C860 H849 0.950 . S
C860 C858 1.391 . S
C860 C861 1.400 . S
C861 C855 1.491 . S
C861 C860 1.400 . S
C861 C862 1.398 . S
C862 H850 0.950 . S
C862 C861 1.398 . S
C862 C863 1.391 . S
C863 H851 0.950 . S
C863 C859 1.393 . S
C863 C862 1.391 . S
H864 C872 0.950 . S
H865 C877 0.950 . S
H866 C874 0.950 . S
H867 C876 0.950 . S
H868 C878 0.950 . S
H869 C880 0.950 . S
H870 C882 0.950 . S
H871 C883 0.950 . S
C872 H864 0.950 . S
C872 C873 1.386 . S
C872 C874 1.391 . S
C873 C872 1.386 . S
C873 C877 1.393 . S
C874 H866 0.950 . S
C874 C872 1.391 . S
C874 C875 1.400 . S
C875 C874 1.400 . S
C875 C876 1.398 . S
C875 C881 1.491 . S
C876 H867 0.950 . S
C876 C875 1.398 . S
C876 C877 1.391 . S
C877 H865 0.950 . S
C877 C873 1.393 . S
C877 C876 1.391 . S
C878 H868 0.950 . S
C878 C879 1.386 . S
C878 C880 1.391 . S
C879 C878 1.386 . S
C879 C883 1.393 . S
C880 H869 0.950 . S
C880 C878 1.391 . S
C880 C881 1.400 . S
C881 C875 1.491 . S
C881 C880 1.400 . S
C881 C882 1.398 . S
C882 H870 0.950 . S
C882 C881 1.398 . S
C882 C883 1.391 . S
C883 H871 0.950 . S
C883 C879 1.393 . S
C883 C882 1.391 . S
C419 C327 1.537 . S
C413 C15 1.697 . S
C439 C345 1.327 . S
C433 C55 1.420 . S
C453 C82 1.397 . S
C459 C369 1.350 . S
C479 C399 1.341 . S
C473 C122 1.489 . S
C499 C387 1.359 . S
C493 C175 1.453 . S
C513 C215 1.428 . S
C519 C340 1.343 . S
C533 C242 1.703 . S
C539 C360 1.516 . S
C553 C282 1.484 . S
C559 C365 1.347 . S
C573 C295 1.412 . S
C579 C381 1.308 . S
C593 C202 1.488 . S
C599 C336 1.327 . S
C619 C403 1.333 . S
C613 C135 1.419 . S
C639 C348 1.332 . S
C633 C42 1.490 . S
C653 C95 1.694 . S
C659 C366 1.534 . S
C673 C2 1.403 . S
C679 C324 1.375 . S
C699 C344 1.349 . S
C693 C255 1.441 . S
C719 C390 1.553 . S
C713 C162 1.728 . S
C739 C386 1.354 . S
C733 C21 1.482 1_556 S
C759 C339 1.372 . S
C753 C61 1.407 . S
C773 C101 1.473 . S
C779 C361 1.313 . S
C793 C141 1.428 . S
C799 C382 1.382 . S
C819 C323 1.352 . S
C813 C181 1.533 1_554 S
C833 C221 1.467 . S
C839 C357 1.382 . S
C859 C378 1.351 . S
C853 C261 1.544 . S
C879 C402 1.392 . S
C873 C301 1.432 . S
