# Generated by pormake.
# Topology nia, (6,6)-cn, num edge types: 1
# Building blocks:
#     Node 0, Type 0, BuildingBlock: KUMBUR_clean_sbu_0, # of connection points: 6
#     Node 1, Type 0, BuildingBlock: KUMBUR_clean_sbu_0, # of connection points: 6
#     Node 2, Type 1, BuildingBlock: MIDCAF_clean_sbu_0, # of connection points: 6
#     Node 3, Type 1, BuildingBlock: MIDCAF_clean_sbu_0, # of connection points: 6
#     Edge 4, Type (0, 1), BuildingBlock: UVAHIK_clean_linker_0, # of connection points: 2
#     Edge 5, Type (0, 1), BuildingBlock: UVAHIK_clean_linker_0, # of connection points: 2
#     Edge 6, Type (0, 1), BuildingBlock: UVAHIK_clean_linker_0, # of connection points: 2
#     Edge 7, Type (0, 1), BuildingBlock: UVAHIK_clean_linker_0, # of connection points: 2
#     Edge 8, Type (0, 1), BuildingBlock: UVAHIK_clean_linker_0, # of connection points: 2
#     Edge 9, Type (0, 1), BuildingBlock: UVAHIK_clean_linker_0, # of connection points: 2
#     Edge 10, Type (0, 1), BuildingBlock: UVAHIK_clean_linker_0, # of connection points: 2
#     Edge 11, Type (0, 1), BuildingBlock: UVAHIK_clean_linker_0, # of connection points: 2
#     Edge 12, Type (0, 1), BuildingBlock: UVAHIK_clean_linker_0, # of connection points: 2
#     Edge 13, Type (0, 1), BuildingBlock: UVAHIK_clean_linker_0, # of connection points: 2
#     Edge 14, Type (0, 1), BuildingBlock: UVAHIK_clean_linker_0, # of connection points: 2
#     Edge 15, Type (0, 1), BuildingBlock: UVAHIK_clean_linker_0, # of connection points: 2
# Relax obj value: 0.167
# Max RMSD: 0.278
# Mean RMSD: 0.202
data_MOF--net-nia--node1-KUMBUR_clean_sbu_0--node2-MIDCAF_clean_sbu_0--edge1-UVAHIK_clean_linker_0
_symmetry_space_group_name_H-M    P1
_symmetry_Int_Tables_number       1
_symmetry_cell_setting            triclinic
loop_
_symmetry_equiv_pos_as_xyz
'x, y, z'
_cell_length_a     35.266829
_cell_length_b     35.698519
_cell_length_c     41.403601
_cell_angle_alpha  89.999339
_cell_angle_beta   90.215074
_cell_angle_gamma 137.69956
loop_
_atom_site_label
_atom_site_type_symbol
_atom_site_fract_x
_atom_site_fract_y
_atom_site_fract_z
_atom_type_partial_charge
Tb0 Tb 0.02411 -0.01163 0.0435 0.0
C1 C -0.00108 0.0096 0.90174 0.0
C2 C 0.09403 0.09616 0.88673 0.0
C3 C 0.03153 0.02214 0.84703 0.0
C4 C 0.05134 0.062 0.91019 0.0
C5 C 0.98785 -0.01 0.86975 0.0
C6 C 0.08458 0.07514 0.85551 0.0
C7 C 0.88954 0.91263 0.88375 0.0
N8 N 0.95741 0.9799 0.92418 0.0
C9 C 0.90253 0.93403 0.91508 0.0
C10 C 0.93258 0.94004 0.86117 0.0
Tb11 Tb 0.98452 0.01772 0.97495 0.0
N12 N 0.05883 0.08121 0.94056 0.0
C13 C 0.1056 0.13642 0.94761 0.0
C14 C 0.14394 0.15124 0.89488 0.0
C15 C 0.1491 0.17181 0.92515 0.0
H16 H 0.86905 0.91212 0.93242 0.0
H17 H 0.18677 0.21492 0.93132 0.0
H18 H 0.11725 0.10043 0.83738 0.0
H19 H 0.84636 0.87497 0.87707 0.0
H20 H 0.11102 0.15368 0.97071 0.0
H21 H 0.82611 0.7847 0.08293 0.0
H22 H 0.17776 0.17877 0.87758 0.0
H23 H 0.12975 0.10246 0.0854 0.0
H24 H 0.90276 0.85253 0.04454 0.0
H25 H 0.14642 0.13832 0.14078 0.0
H26 H 0.02407 0.00738 0.82246 0.0
H27 H 0.83019 0.81479 0.13787 0.0
H28 H 0.88432 0.89122 0.17949 0.0
H29 H 0.92234 0.92357 0.83685 0.0
H30 H 0.97136 0.98786 0.19518 0.0
N31 N 0.95012 0.92135 0.07705 0.0
C32 C 0.90559 0.86653 0.06842 0.0
C33 C 0.8642 0.84489 0.12112 0.0
C34 C 0.91114 0.90041 0.13034 0.0
C35 C 0.86182 0.82774 0.09015 0.0
C36 C 0.95406 0.93793 0.10753 0.0
H37 H 0.06975 0.08018 0.18101 0.0
N38 N 0.04375 0.02586 0.09393 0.0
C39 C 0.10559 0.09731 0.13412 0.0
C40 C 0.00242 -0.00775 0.11623 0.0
C41 C 0.09607 0.07691 0.10284 0.0
C42 C 0.06214 0.06442 0.15673 0.0
C43 C 0.01011 0.01072 0.14812 0.0
O44 O 0.0969 0.01084 0.05582 0.0
O45 O 0.04415 0.02193 0.99547 0.0
O46 O 0.9656 0.94686 0.95973 0.0
O47 O 0.97851 0.92076 0.00714 0.0
O48 O 0.1096 0.06347 0.02714 0.0
O49 O 0.01717 0.92478 0.04962 0.0
O50 O 0.93115 0.02262 0.99027 0.0
O51 O 0.96365 0.98129 0.02181 0.0
O52 O 0.02601 0.04883 0.0577 0.0
O53 O 0.04159 0.08932 0.00826 0.0
O54 O 0.89865 0.93967 0.98993 0.0
O55 O 0.98024 0.06467 0.94773 0.0
C56 C 0.09691 0.06244 0.99779 0.0
C57 C 0.07988 0.94503 0.08843 0.0
C58 C 0.09776 0.89858 0.11604 0.0
C59 C 0.08939 0.91296 0.08721 0.0
C60 C 0.0969 0.91693 0.14579 0.0
C61 C 0.0802 0.96327 0.11855 0.0
C62 C 0.08832 0.94912 0.14695 0.0
C63 C 0.96272 0.91316 0.97642 0.0
C64 C 0.06962 0.95935 0.05853 0.0
C65 C 0.96656 0.97432 0.17062 0.0
C66 C 0.91708 0.91925 0.16172 0.0
C67 C 0.91098 0.93938 0.01928 0.0
C68 C 0.8895 0.02516 0.9466 0.0
C69 C 0.89151 0.05963 0.92789 0.0
C70 C 0.84447 0.03633 0.90917 0.0
C71 C 0.79577 0.97834 0.90932 0.0
C72 C 0.83953 0.96753 0.947 0.0
C73 C 0.79335 0.94435 0.92822 0.0
C74 C 0.0423 0.08986 0.04027 0.0
C75 C 0.93983 0.04916 0.96479 0.0
H76 H 0.08979 0.89893 0.06413 0.0
H77 H 0.104 0.90722 0.16825 0.0
H78 H 0.07483 -0.01101 0.12041 0.0
H79 H 0.0884 0.96357 0.16997 0.0
H80 H 0.92959 0.10421 0.92769 0.0
H81 H 0.75882 0.95932 0.89546 0.0
H82 H 0.83585 0.94005 0.96176 0.0
H83 H 0.7553 0.89984 0.92853 0.0
Tb84 Tb 0.98166 0.01113 0.54381 0.0
C85 C 0.98797 0.98329 0.39923 0.0
C86 C 0.89091 0.89953 0.38557 0.0
C87 C 0.95262 0.97256 0.34562 0.0
C88 C 0.93544 0.93282 0.40826 0.0
C89 C -0.0021 0.00304 0.36749 0.0
C90 C 0.89913 0.92067 0.35463 0.0
C91 C 0.09748 0.07552 0.37974 0.0
N92 N 0.03069 0.00989 0.42065 0.0
C93 C 0.08537 0.05354 0.41077 0.0
C94 C 0.05343 0.05085 0.35819 0.0
Tb95 Tb 0.00754 0.97338 0.47164 0.0
N96 N 0.93009 0.91348 0.43802 0.0
C97 C 0.88233 0.85896 0.44551 0.0
C98 C 0.84072 0.84499 0.39402 0.0
C99 C 0.83692 0.82425 0.42384 0.0
H100 H 0.11961 0.073 0.4274 0.0
H101 H 0.79884 0.78161 0.43031 0.0
H102 H 0.86515 0.89616 0.33705 0.0
H103 H 0.14074 0.11138 0.37247 0.0
H104 H 0.87803 0.84182 0.46841 0.0
H105 H 0.1887 0.21271 0.57809 0.0
H106 H 0.80549 0.81802 0.3773 0.0
H107 H 0.87836 0.90179 0.58897 0.0
H108 H 0.10716 0.14584 0.54218 0.0
H109 H 0.86782 0.86648 0.64344 0.0
H110 H 0.95912 0.98734 0.32123 0.0
H111 H 0.18966 0.18318 0.63181 0.0
H112 H 0.13898 0.10782 0.67343 0.0
H113 H 0.06291 0.06748 0.33402 0.0
H114 H 0.05208 0.01278 0.69093 0.0
N115 N 0.06095 0.07755 0.57486 0.0
C116 C 0.1061 0.13171 0.56549 0.0
C117 C 0.15326 0.15335 0.61615 0.0
C118 C 0.10627 0.0985 0.6261 0.0
C119 C 0.15283 0.17018 0.58588 0.0
C120 C 0.06006 0.06131 0.60476 0.0
H121 H 0.95045 0.92247 0.67999 0.0
N122 N 0.96677 0.9751 0.59403 0.0
C123 C 0.90858 0.90615 0.63553 0.0
C124 C 0.01162 0.00783 0.61448 0.0
C125 C 0.91462 0.92625 0.6048 0.0
C126 C 0.95539 0.93777 0.65602 0.0
C127 C 0.00737 -0.01 0.64595 0.0
O128 O 0.91322 -0.00695 0.56061 0.0
O129 O 0.95613 0.97754 0.49546 0.0
O130 O 0.02802 0.04572 0.45822 0.0
O131 O 0.02928 0.07877 0.5079 0.0
O132 O 0.89355 0.94042 0.52817 0.0
O133 O -0.00666 0.07756 0.55098 0.0
O134 O 0.07202 0.98255 0.45907 0.0
O135 O 0.03392 0.0097 0.51911 0.0
O136 O 0.97389 0.94655 0.55601 0.0
O137 O 0.95204 0.90374 0.50618 0.0
O138 O 0.09608 0.04143 0.48817 0.0
O139 O 0.98804 0.90179 0.4681 0.0
C140 C 0.90343 0.94034 0.49835 0.0
C141 C 0.93926 0.06374 0.59324 0.0
C142 C 0.92233 0.10961 0.62232 0.0
C143 C 0.92409 0.09074 0.59313 0.0
C144 C 0.93562 0.10135 0.65149 0.0
C145 C 0.95122 0.05495 0.62283 0.0
C146 C 0.94969 0.07381 0.6517 0.0
C147 C 0.03943 0.08366 0.47644 0.0
C148 C 0.94288 0.04539 0.56259 0.0
C149 C 0.05423 0.02588 0.66676 0.0
C150 C 0.10362 0.08006 0.65685 0.0
C151 C 0.08653 0.04518 0.51723 0.0
C152 C 0.03943 0.90797 0.42776 0.0
C153 C 0.07156 0.89836 0.42594 0.0
C154 C 0.07129 0.87673 0.39731 0.0
C155 C 0.04017 0.86665 0.37045 0.0
C156 C 0.00807 0.89654 0.40073 0.0
C157 C 0.00883 0.87657 0.37221 0.0
C158 C 0.953 0.90406 0.53813 0.0
C159 C 0.03792 0.92917 0.45774 0.0
H160 H 0.91391 0.0972 0.57055 0.0
H161 H 0.93404 0.11532 0.67416 0.0
H162 H 0.96145 0.03334 0.6239 0.0
H163 H 0.95914 0.06676 0.6743 0.0
H164 H 0.09548 0.90643 0.44679 0.0
H165 H 0.04012 0.85108 0.34797 0.0
H166 H 0.98245 0.90244 0.4016 0.0
H167 H 0.98467 0.86833 0.3515 0.0
Zn168 Zn 0.34796 0.65986 0.16043 0.0
Zn169 Zn 0.36854 0.68273 0.31814 0.0
Zn170 Zn 0.35207 0.66734 0.25895 0.0
C171 C 0.46757 0.7276 0.29005 0.0
C172 C 0.28116 0.56801 0.3097 0.0
O173 O 0.31734 0.69549 0.2434 0.0
O174 O 0.32426 0.68204 0.19313 0.0
C175 C 0.45362 0.72432 0.20022 0.0
O176 O 0.44157 0.71741 0.26381 0.0
O177 O 0.44339 0.71326 0.31695 0.0
O178 O 0.30279 0.60368 0.33176 0.0
O179 O 0.29658 0.58368 0.28019 0.0
O180 O 0.4283 0.70813 0.17292 0.0
O181 O 0.4291 0.71095 0.22805 0.0
O182 O 0.28898 0.57952 0.24702 0.0
O183 O 0.31521 0.62371 0.20285 0.0
C184 C 0.286 0.57755 0.21636 0.0
O185 O 0.33083 0.70938 0.27653 0.0
O186 O 0.36582 0.73529 0.32613 0.0
C187 C 0.30942 0.69589 0.21321 0.0
C188 C 0.34217 0.73508 0.30311 0.0
Zn189 Zn 0.65737 0.33086 0.81545 0.0
Zn190 Zn 0.64053 0.32771 0.69811 0.0
Zn191 Zn 0.64885 0.32886 0.75656 0.0
C192 C 0.69716 0.43218 0.71606 0.0
C193 C 0.53244 0.24767 0.714 0.0
O194 O 0.67668 0.29048 0.7698 0.0
O195 O 0.66023 0.27865 0.82222 0.0
C196 C 0.73721 0.43969 0.80172 0.0
O197 O 0.70126 0.41519 0.74184 0.0
O198 O 0.66566 0.39868 0.69317 0.0
O199 O 0.56051 0.25901 0.68952 0.0
O200 O 0.55815 0.2724 0.74112 0.0
O201 O 0.72814 0.41004 0.82417 0.0
O202 O 0.70879 0.41642 0.77514 0.0
O203 O 0.56357 0.27959 0.77433 0.0
O204 O 0.58687 0.3066 0.82528 0.0
C205 C 0.55084 0.28185 0.80281 0.0
O206 O 0.68572 0.30339 0.7365 0.0
O207 O 0.69386 0.32735 0.68576 0.0
C208 C 0.67489 0.27183 0.79721 0.0
C209 C 0.70375 0.31077 0.70756 0.0
C210 C 0.15421 0.88365 0.09887 0.0
C211 C 0.10901 0.8659 0.11628 0.0
C212 C 0.17272 0.86054 0.10525 0.0
C213 C 0.17752 0.79996 0.17379 0.0
H214 H 0.22268 0.75653 0.11274 0.0
C215 C 0.24116 0.69915 0.21669 0.0
C216 C 0.28612 0.71447 0.20107 0.0
C217 C 0.21839 0.71574 0.20442 0.0
C218 C 0.2109 0.76915 0.13011 0.0
H219 H 0.04451 0.80678 0.15161 0.0
H220 H 0.0764 0.76643 0.16254 0.0
H221 H 0.18408 0.78771 0.09291 0.0
H222 H 0.34138 0.75714 0.15965 0.0
H223 H 0.30259 0.78719 0.13843 0.0
H224 H 0.20534 0.78312 0.21097 0.0
C225 C 0.09835 0.79885 0.14453 0.0
C226 C 0.18862 0.78679 0.11869 0.0
C227 C 0.07991 0.82172 0.13815 0.0
C228 C 0.30703 0.74537 0.1724 0.0
C229 C 0.28449 0.76218 0.16012 0.0
C230 C 0.20017 0.78294 0.18515 0.0
C231 C 0.14629 0.81951 0.12916 0.0
C232 C 0.17108 0.80172 0.14048 0.0
C233 C 0.24004 0.74786 0.17607 0.0
C234 C 0.21669 0.76677 0.16354 0.0
H235 H 0.17754 0.91786 0.08201 0.0
H236 H 0.20974 0.87717 0.09299 0.0
H237 H 0.16562 0.81248 0.19116 0.0
H238 H 0.22224 0.67261 0.23764 0.0
H239 H 0.18308 0.70247 0.21686 0.0
C240 C 0.1068 0.02596 0.5689 0.0
C241 C 0.12505 0.06288 0.54394 0.0
C242 C 0.14349 0.042 0.59366 0.0
C243 C 0.28247 0.16606 0.63123 0.0
H244 H 0.27325 0.05686 0.6618 0.0
C245 C 0.44866 0.22851 0.71991 0.0
C246 C 0.47202 0.21169 0.70912 0.0
C247 C 0.39758 0.20417 0.7068 0.0
C248 C 0.27634 0.08788 0.65366 0.0
H249 H 0.19733 0.1438 0.52366 0.0
H250 H 0.26243 0.172 0.56665 0.0
H251 H 0.20439 0.02937 0.62291 0.0
H252 H 0.45865 0.15377 0.67829 0.0
H253 H 0.37006 0.1111 0.65584 0.0
H254 H 0.3566 0.22532 0.66062 0.0
C255 C 0.21883 0.13139 0.56798 0.0
C256 C 0.23644 0.07198 0.63151 0.0
C257 C 0.1818 0.11521 0.54321 0.0
C258 C 0.44131 0.16719 0.68719 0.0
C259 C 0.39037 0.1427 0.67434 0.0
C260 C 0.32266 0.18206 0.6533 0.0
C261 C 0.20003 0.095 0.59363 0.0
C262 C 0.23971 0.11113 0.6194 0.0
C263 C 0.36896 0.16238 0.68291 0.0
C264 C 0.32093 0.14345 0.66415 0.0
H265 H 0.06426 0.98449 0.56942 0.0
H266 H 0.12727 0.0128 0.61294 0.0
H267 H 0.2856 0.19705 0.62296 0.0
H268 H 0.47193 0.26333 0.73643 0.0
H269 H 0.38186 0.21981 0.71424 0.0
C270 C 0.05168 0.13517 0.09063 0.0
C271 C 0.06311 0.13874 0.05761 0.0
C272 C 0.07319 0.18164 0.10754 0.0
C273 C 0.13196 0.31986 0.0967 0.0
H274 H 0.19455 0.34866 0.18218 0.0
C275 C 0.26371 0.52799 0.16437 0.0
C276 C 0.25674 0.52622 0.19794 0.0
C277 C 0.2378 0.47997 0.14722 0.0
C278 C 0.17656 0.34088 0.15853 0.0
H279 H 0.10455 0.19371 0.0162 0.0
H280 H 0.14219 0.27492 0.04572 0.0
H281 H 0.15375 0.26667 0.15222 0.0
H282 H 0.21495 0.47191 0.23954 0.0
H283 H 0.1697 0.38804 0.20972 0.0
H284 H 0.15499 0.39424 0.10299 0.0
C285 C 0.11652 0.23605 0.05855 0.0
C286 C 0.15318 0.29383 0.14132 0.0
C287 C 0.0951 0.18951 0.04164 0.0
C288 C 0.22216 0.47497 0.21384 0.0
C289 C 0.19624 0.42688 0.19671 0.0
C290 C 0.15532 0.36692 0.11394 0.0
C291 C 0.1063 0.23284 0.09181 0.0
C292 C 0.13066 0.28274 0.11016 0.0
C293 C 0.20408 0.42885 0.1632 0.0
C294 C 0.17804 0.37811 0.14506 0.0
H295 H 0.02588 0.09634 0.10352 0.0
H296 H 0.06347 0.17731 0.13296 0.0
H297 H 0.11427 0.31218 0.07296 0.0
H298 H 0.28984 0.56654 0.15123 0.0
H299 H 0.24528 0.48323 0.12152 0.0
C300 C 0.94329 0.19235 0.63151 0.0
C301 C 0.90443 0.13592 0.62334 0.0
C302 C 0.92488 0.21529 0.63798 0.0
C303 C 0.79867 0.18541 0.63256 0.0
H304 H 0.87581 0.29545 0.70118 0.0
C305 C 0.73106 0.28456 0.6656 0.0
C306 C 0.7326 0.29685 0.69813 0.0
C307 C 0.75604 0.26948 0.65585 0.0
C308 C 0.85328 0.26425 0.68226 0.0
H309 H 0.81649 0.05899 0.61519 0.0
H310 H 0.78362 0.09804 0.62747 0.0
H311 H 0.91014 0.25947 0.68446 0.0
H312 H 0.76671 0.30865 0.74526 0.0
H313 H 0.80605 0.27691 0.72907 0.0
H314 H 0.73955 0.18704 0.63177 0.0
C315 C 0.82851 0.12552 0.6279 0.0
C316 C 0.87367 0.24431 0.67218 0.0
C317 C 0.84713 0.10293 0.62088 0.0
C318 C 0.76204 0.29618 0.72048 0.0
C319 C 0.78587 0.27944 0.7109 0.0
C320 C 0.77767 0.20442 0.64305 0.0
C321 C 0.86705 0.18182 0.63712 0.0
C322 C 0.84665 0.20463 0.64714 0.0
C323 C 0.78236 0.26501 0.67844 0.0
C324 C 0.80482 0.2444 0.6679 0.0
H325 H 0.98771 0.21825 0.63376 0.0
H326 H 0.95595 0.25901 0.64424 0.0
H327 H 0.77704 0.15551 0.61294 0.0
H328 H 0.70981 0.2859 0.6475 0.0
H329 H 0.75435 0.26108 0.63046 0.0
C330 C 0.81518 0.86567 0.04392 0.0
C331 C 0.8713 0.9188 0.04567 0.0
C332 C 0.77716 0.84728 0.06838 0.0
C333 C 0.7567 0.90326 0.13262 0.0
H334 H 0.63227 0.74774 0.15606 0.0
C335 C 0.54781 0.80645 0.17853 0.0
C336 C 0.51391 0.75972 0.19862 0.0
C337 C 0.60012 0.83162 0.16849 0.0
C338 C 0.66746 0.79157 0.15041 0.0
H339 H 0.93035 -0.00434 0.0732 0.0
H340 H 0.866 0.96307 0.11638 0.0
H341 H 0.70609 0.77789 0.12087 0.0
H342 H 0.50847 0.7039 0.22541 0.0
H343 H 0.60124 0.74882 0.20839 0.0
H344 H 0.71833 0.91704 0.16215 0.0
C345 C 0.85075 0.93526 0.09632 0.0
C346 C 0.70927 0.80868 0.12972 0.0
C347 C 0.88822 0.95373 0.07172 0.0
C348 C 0.53463 0.74071 0.21043 0.0
C349 C 0.58721 0.76587 0.20027 0.0
C350 C 0.71533 0.88628 0.15351 0.0
C351 C 0.79452 0.882 0.09489 0.0
C352 C 0.7535 0.86447 0.11978 0.0
C353 C 0.6195 0.81026 0.17815 0.0
C354 C 0.66917 0.82995 0.16177 0.0
H355 H 0.80079 0.83847 0.02364 0.0
H356 H 0.73385 0.80648 0.06603 0.0
H357 H 0.78973 0.9465 0.12541 0.0
H358 H 0.53208 0.82115 0.16876 0.0
H359 H 0.62325 0.86512 0.15114 0.0
C360 C 0.87404 0.81378 0.56462 0.0
C361 C 0.93066 0.85548 0.55548 0.0
C362 C 0.85509 0.77381 0.58717 0.0
C363 C 0.88983 0.70919 0.62621 0.0
H364 H 0.78244 0.66554 0.68983 0.0
C365 C 0.78839 0.53352 0.71651 0.0
C366 C 0.72978 0.49055 0.71194 0.0
C367 C 0.82057 0.58699 0.70491 0.0
C368 C 0.81288 0.67781 0.67242 0.0
H369 H 0.01198 0.88845 0.5616 0.0
H370 H 0.97901 0.8183 0.60096 0.0
H371 H 0.82332 0.73989 0.65176 0.0
H372 H 0.65806 0.46983 0.69457 0.0
H373 H 0.7137 0.56314 0.67525 0.0
H374 H 0.87822 0.64608 0.64645 0.0
C375 C 0.94901 0.81594 0.59068 0.0
C376 C 0.8358 0.71986 0.65042 0.0
C377 C 0.96787 0.85593 0.56816 0.0
C378 C 0.70329 0.50254 0.69829 0.0
C379 C 0.73513 0.55595 0.68738 0.0
C380 C 0.86712 0.66731 0.64837 0.0
C381 C 0.89268 0.77522 0.60101 0.0
C382 C 0.87309 0.73473 0.6264 0.0
C383 C 0.79418 0.59808 0.68932 0.0
C384 C 0.82712 0.65009 0.67101 0.0
H385 H 0.8451 0.8136 0.55543 0.0
H386 H 0.81121 0.74234 0.59417 0.0
H387 H 0.91833 0.71959 0.60796 0.0
H388 H 0.80953 0.52486 0.72688 0.0
H389 H 0.86607 0.61893 0.70677 0.0
C390 C 0.16006 0.90341 0.40234 0.0
C391 C 0.10241 0.86365 0.39465 0.0
C392 C 0.19086 0.89376 0.39422 0.0
C393 C 0.18725 0.8169 0.33355 0.0
H394 H 0.29325 0.84081 0.38808 0.0
C395 C 0.2664 0.72762 0.30179 0.0
C396 C 0.32231 0.75901 0.30888 0.0
C397 C 0.24452 0.74614 0.31142 0.0
C398 C 0.2645 0.83485 0.37238 0.0
H399 H 0.03075 0.78092 0.37528 0.0
H400 H 0.08417 0.76413 0.36126 0.0
H401 H 0.24521 0.8613 0.40906 0.0
H402 H 0.39922 0.83366 0.33233 0.0
H403 H 0.36131 0.86677 0.34898 0.0
H404 H 0.20608 0.79053 0.29689 0.0
C405 C 0.10597 0.80319 0.37276 0.0
C406 C 0.2369 0.84638 0.38446 0.0
C407 C 0.07539 0.81272 0.38088 0.0
C408 C 0.35619 0.80933 0.32596 0.0
C409 C 0.33434 0.82794 0.33574 0.0
C410 C 0.21494 0.80574 0.32145 0.0
C411 C 0.16432 0.8443 0.37828 0.0
C412 C 0.1971 0.83632 0.36535 0.0
C413 C 0.27802 0.79622 0.32884 0.0
C414 C 0.25303 0.81346 0.34089 0.0
H415 H 0.18183 0.94303 0.41293 0.0
H416 H 0.23581 0.92604 0.39885 0.0
H417 H 0.15772 0.80999 0.31802 0.0
H418 H 0.23853 0.68697 0.29075 0.0
H419 H 0.20052 0.71983 0.30652 0.0
C420 C 0.19258 0.13591 0.97468 0.0
C421 C 0.13672 0.08297 0.97177 0.0
C422 C 0.23205 0.15504 0.95135 0.0
C423 C 0.25044 0.13214 0.86843 0.0
H424 H 0.39724 0.2121 0.90261 0.0
C425 C 0.44495 0.20415 0.80209 0.0
C426 C 0.49612 0.25917 0.80994 0.0
C427 C 0.39458 0.17996 0.81606 0.0
C428 C 0.35648 0.18998 0.8927 0.0
H429 H 0.07828 0.0072 0.94324 0.0
H430 H 0.1478 0.04047 0.90237 0.0
H431 H 0.32232 0.1741 0.93952 0.0
H432 H 0.53468 0.33392 0.83525 0.0
H433 H 0.44738 0.29219 0.85917 0.0
H434 H 0.28573 0.14812 0.82133 0.0
C435 C 0.16065 0.06785 0.92213 0.0
C436 C 0.31364 0.16846 0.91381 0.0
C437 C 0.12096 0.04881 0.94548 0.0
C438 C 0.49573 0.29114 0.82924 0.0
C439 C 0.44588 0.26735 0.84288 0.0
C440 C 0.29365 0.15354 0.84712 0.0
C441 C 0.2168 0.12099 0.92506 0.0
C442 C 0.2605 0.14036 0.902 0.0
C443 C 0.39544 0.21089 0.83778 0.0
C444 C 0.34732 0.18367 0.8592 0.0
H445 H 0.2056 0.16262 0.99496 0.0
H446 H 0.27476 0.19651 0.95405 0.0
H447 H 0.20983 0.11063 0.85866 0.0
H448 H 0.44449 0.17885 0.78721 0.0
H449 H 0.35601 0.13628 0.81181 0.0
C450 C 0.10477 0.15941 0.43661 0.0
C451 C 0.06304 0.13381 0.45997 0.0
C452 C 0.12329 0.20304 0.41816 0.0
C453 C 0.08394 0.27061 0.39289 0.0
H454 H 0.24053 0.38833 0.36673 0.0
C455 C 0.20407 0.48787 0.34447 0.0
C456 C 0.2414 0.50926 0.31878 0.0
C457 C 0.17391 0.43594 0.35749 0.0
C458 C 0.19648 0.35525 0.37342 0.0
H459 H 0.00991 0.13552 0.48397 0.0
H460 H 0.04413 0.21408 0.4526 0.0
H461 H 0.20812 0.31388 0.40094 0.0
H462 H 0.27488 0.49268 0.28552 0.0
H463 H 0.22262 0.40183 0.30871 0.0
H464 H 0.07371 0.31444 0.3664 0.0
C465 C 0.06107 0.19891 0.44761 0.0
C466 C 0.17779 0.31251 0.39307 0.0
C467 C 0.04204 0.15454 0.46589 0.0
C468 C 0.24579 0.47667 0.30508 0.0
C469 C 0.2163 0.42505 0.31847 0.0
C470 C 0.10299 0.31407 0.37359 0.0
C471 C 0.10148 0.22322 0.4232 0.0
C472 C 0.12124 0.26945 0.40297 0.0
C473 C 0.18151 0.40514 0.34543 0.0
C474 C 0.1594 0.35661 0.36363 0.0
H475 H 0.12346 0.14593 0.43266 0.0
H476 H 0.15414 0.22026 0.39954 0.0
H477 H 0.03995 0.23775 0.39963 0.0
H478 H 0.20008 0.51241 0.35538 0.0
H479 H 0.14762 0.42164 0.37838 0.0
C480 C 0.85868 0.11628 0.90546 0.0
C481 C 0.8439 0.07152 0.89055 0.0
C482 C 0.8485 0.143 0.88981 0.0
C483 C 0.75373 0.11412 0.82792 0.0
H484 H 0.84715 0.27038 0.83946 0.0
C485 C 0.68773 0.21354 0.78006 0.0
C486 C 0.69787 0.25041 0.8018 0.0
C487 C 0.71054 0.19445 0.786 0.0
C488 C 0.82041 0.22656 0.83608 0.0
H489 H 0.81103 0.02247 0.84666 0.0
H490 H 0.79424 0.06966 0.81911 0.0
H491 H 0.88056 0.23427 0.85886 0.0
H492 H 0.7383 0.29492 0.8471 0.0
H493 H 0.7762 0.26092 0.85779 0.0
H494 H 0.69287 0.10614 0.80599 0.0
C495 C 0.81218 0.08319 0.84321 0.0
C496 C 0.83963 0.20588 0.84724 0.0
C497 C 0.82209 0.05636 0.85891 0.0
C498 C 0.73009 0.26686 0.82971 0.0
C499 C 0.7525 0.24787 0.83566 0.0
C500 C 0.73442 0.13481 0.81682 0.0
C501 C 0.82364 0.12572 0.85882 0.0
C502 C 0.80605 0.14914 0.84393 0.0
C503 C 0.74347 0.21171 0.81389 0.0
C504 C 0.76691 0.19103 0.82149 0.0
H505 H 0.87506 0.12852 0.92993 0.0
H506 H 0.85746 0.17527 0.90271 0.0
H507 H 0.72641 0.07006 0.82523 0.0
H508 H 0.66236 0.19962 0.75861 0.0
H509 H 0.70276 0.16658 0.76871 0.0
C510 C 0.80698 0.86991 0.47455 0.0
C511 C 0.86333 0.92246 0.47282 0.0
C512 C 0.76887 0.85173 0.45007 0.0
C513 C 0.76293 0.88456 0.36519 0.0
H514 H 0.60425 0.77748 0.38537 0.0
C515 C 0.57122 0.81193 0.29306 0.0
C516 C 0.52481 0.75375 0.29069 0.0
C517 C 0.62081 0.83638 0.30864 0.0
C518 C 0.64848 0.8072 0.37939 0.0
H519 H 0.92294 -0.00014 0.44628 0.0
H520 H 0.85612 0.96943 0.4042 0.0
H521 H 0.67137 0.81394 0.42843 0.0
H522 H 0.49518 0.67586 0.29989 0.0
H523 H 0.5815 0.71837 0.32697 0.0
H524 H 0.73885 0.87909 0.31603 0.0
C525 C 0.8417 0.94063 0.42331 0.0
C526 C 0.68712 0.8279 0.40405 0.0
C527 C 0.88009 0.95829 0.4475 0.0
C528 C 0.53081 0.72086 0.30089 0.0
C529 C 0.57994 0.7451 0.31664 0.0
C530 C 0.72409 0.86458 0.34053 0.0
C531 C 0.78568 0.88663 0.42388 0.0
C532 C 0.74494 0.86642 0.39738 0.0
C533 C 0.62404 0.80271 0.32221 0.0
C534 C 0.6665 0.82519 0.34746 0.0
H535 H 0.79297 0.84197 0.49419 0.0
H536 H 0.72663 0.80961 0.45139 0.0
H537 H 0.80683 0.91355 0.35885 0.0
H538 H 0.56702 0.83799 0.28609 0.0
H539 H 0.65419 0.88089 0.31293 0.0
C540 C 0.96704 0.8483 0.96134 0.0
C541 C 0.94046 0.86391 0.95909 0.0
C542 C 0.94907 0.80531 0.94179 0.0
C543 C 0.82808 0.68591 0.8904 0.0
H544 H 0.93811 0.69892 0.8531 0.0
C545 C 0.75992 0.52457 0.79883 0.0
C546 C 0.77496 0.49921 0.8085 0.0
C547 C 0.78672 0.57526 0.81265 0.0
C548 C 0.907 0.69492 0.86328 0.0
H549 H 0.8717 0.84406 0.9369 0.0
H550 H 0.84209 0.77166 0.9019 0.0
H551 H 0.96948 0.77237 0.88886 0.0
H552 H 0.83278 0.50891 0.83785 0.0
H553 H 0.88017 0.5977 0.86148 0.0
H554 H 0.76574 0.60875 0.86474 0.0
C555 C 0.87663 0.79196 0.91854 0.0
C556 C 0.92484 0.73667 0.88403 0.0
C557 C 0.8943 0.83437 0.93816 0.0
C558 C 0.82043 0.52766 0.82999 0.0
C559 C 0.84764 0.57855 0.84347 0.0
C560 C 0.81042 0.64468 0.86942 0.0
C561 C 0.90405 0.7771 0.91977 0.0
C562 C 0.88553 0.73258 0.89798 0.0
C563 C 0.82934 0.6016 0.83607 0.0
C564 C 0.84957 0.64853 0.85574 0.0
H565 H 0.00269 0.87041 0.97744 0.0
H566 H 0.97053 0.79434 0.94387 0.0
H567 H 0.79635 0.68051 0.90115 0.0
H568 H 0.72456 0.50322 0.78264 0.0
H569 H 0.7722 0.59247 0.80625 0.0
loop_
_geom_bond_atom_site_label_1
_geom_bond_atom_site_label_2
_geom_bond_distance
_geom_bond_site_symmetry_2
_ccdc_geom_bond_type
Tb0 N31 2.660 1_455 S
Tb0 N38 2.600 . S
Tb0 O44 2.546 1_565 S
Tb0 O45 2.610 1_564 S
Tb0 O47 2.300 1_454 S
Tb0 O48 2.552 1_565 S
Tb0 O49 2.413 . S
Tb0 O51 2.362 1_455 S
Tb0 O52 2.421 1_565 S
Tb0 C64 2.833 . S
C1 C4 1.432 . S
C1 C5 1.414 . S
C1 N8 1.359 1_455 S
C2 C4 1.417 . S
C2 C6 1.432 . S
C2 C14 1.410 . S
C3 C5 1.444 . S
C3 C6 1.317 . S
C3 H26 0.929 . S
C4 C1 1.432 . S
C4 C2 1.417 . S
C4 N12 1.360 . S
C5 C1 1.414 . S
C5 C3 1.444 . S
C5 C10 1.385 1_455 S
C6 C2 1.432 . S
C6 C3 1.317 . S
C6 H18 0.930 . S
C7 C9 1.392 . S
C7 C10 1.370 1_565 S
C7 H19 0.931 . S
N8 C1 1.359 1_655 S
N8 C9 1.327 1_545 S
N8 Tb11 2.600 . S
C9 C7 1.392 . S
C9 N8 1.327 1_565 S
C9 H16 0.930 . S
C10 C5 1.385 1_655 S
C10 C7 1.370 1_545 S
C10 H29 0.931 . S
Tb11 N8 2.600 . S
Tb11 N12 2.660 1_655 S
Tb11 O45 2.362 1_655 S
Tb11 O46 2.421 1_545 S
Tb11 O50 2.546 1_545 S
Tb11 O51 2.610 1_546 S
Tb11 O53 2.320 1_656 S
Tb11 O54 2.552 1_545 S
Tb11 O55 2.413 . S
Tb11 C75 2.833 . S
N12 C4 1.360 . S
N12 Tb11 2.660 1_455 S
N12 C13 1.305 . S
C13 N12 1.305 . S
C13 C15 1.407 . S
C13 H20 0.930 . S
C14 C2 1.410 . S
C14 C15 1.345 . S
C14 H22 0.930 . S
C15 C13 1.407 . S
C15 C14 1.345 . S
C15 H17 0.930 . S
H16 C9 0.930 . S
H17 C15 0.930 . S
H18 C6 0.930 . S
H19 C7 0.931 . S
H20 C13 0.930 . S
H21 C35 0.930 . S
H22 C14 0.930 . S
H23 C41 0.930 . S
H24 C32 0.930 . S
H25 C39 0.931 . S
H26 C3 0.929 . S
H27 C33 0.930 . S
H28 C66 0.930 . S
H29 C10 0.931 . S
H30 C65 0.929 . S
N31 Tb0 2.660 1_655 S
N31 C32 1.305 . S
N31 C36 1.360 . S
C32 H24 0.930 . S
C32 N31 1.305 . S
C32 C35 1.407 . S
C33 H27 0.930 . S
C33 C34 1.410 . S
C33 C35 1.345 . S
C34 C33 1.410 . S
C34 C36 1.417 . S
C34 C66 1.432 . S
C35 H21 0.930 . S
C35 C32 1.407 . S
C35 C33 1.345 . S
C36 N31 1.360 . S
C36 C34 1.417 . S
C36 C40 1.432 . S
H37 C42 0.930 . S
N38 Tb0 2.600 . S
N38 C40 1.359 1_455 S
N38 C41 1.327 1_565 S
C39 H25 0.931 . S
C39 C41 1.392 . S
C39 C42 1.371 . S
C40 C36 1.432 . S
C40 N38 1.359 1_655 S
C40 C43 1.414 . S
C41 H23 0.930 . S
C41 N38 1.327 1_545 S
C41 C39 1.392 . S
C42 H37 0.930 . S
C42 C39 1.371 . S
C42 C43 1.383 1_445 S
C43 C40 1.414 . S
C43 C42 1.383 1_665 S
C43 C65 1.444 . S
O44 Tb0 2.546 1_545 S
O44 C64 1.251 1_545 S
O45 Tb0 2.610 1_546 S
O45 Tb11 2.362 1_455 S
O45 C56 1.283 . S
O46 Tb11 2.421 1_565 S
O46 C63 1.262 . S
O47 Tb0 2.300 1_656 S
O47 C63 1.287 . S
O48 Tb0 2.552 1_545 S
O48 C56 1.243 1_554 S
O49 Tb0 2.413 . S
O49 C64 1.256 . S
O50 Tb11 2.546 1_565 S
O50 C75 1.251 1_565 S
O51 Tb0 2.362 1_655 S
O51 Tb11 2.610 1_564 S
O51 C67 1.283 . S
O52 Tb0 2.421 1_545 S
O52 C74 1.262 . S
O53 Tb11 2.320 1_454 S
O53 C74 1.260 . S
O54 Tb11 2.552 1_565 S
O54 C67 1.243 1_556 S
O55 Tb11 2.413 . S
O55 C75 1.256 . S
C56 O45 1.283 . S
C56 O48 1.243 1_556 S
C57 C59 1.382 . S
C57 C61 1.393 . S
C57 C64 1.500 . S
C58 C59 1.400 . S
C58 C60 1.384 . S
C59 C57 1.382 . S
C59 C58 1.400 . S
C59 H76 0.930 . S
C60 C58 1.384 . S
C60 C62 1.392 . S
C60 H77 0.931 . S
C61 C57 1.393 . S
C61 C62 1.401 . S
C61 H78 0.930 . S
C62 C60 1.392 . S
C62 C61 1.401 . S
C62 H79 0.930 . S
C63 O46 1.262 . S
C63 O47 1.287 . S
C64 Tb0 2.833 . S
C64 O44 1.251 1_565 S
C64 O49 1.256 . S
C64 C57 1.500 . S
C65 H30 0.929 . S
C65 C43 1.444 . S
C65 C66 1.317 . S
C66 H28 0.930 . S
C66 C34 1.432 . S
C66 C65 1.317 . S
C67 O51 1.283 . S
C67 O54 1.243 1_554 S
C68 C69 1.382 . S
C68 C72 1.393 . S
C68 C75 1.500 . S
C69 C68 1.382 . S
C69 C70 1.400 . S
C69 H80 0.930 . S
C70 C69 1.400 . S
C70 C71 1.384 . S
C71 C70 1.384 . S
C71 C73 1.392 . S
C71 H81 0.931 . S
C72 C68 1.393 . S
C72 C73 1.401 . S
C72 H82 0.930 . S
C73 C71 1.392 . S
C73 C72 1.401 . S
C73 H83 0.930 . S
C74 O52 1.262 . S
C74 O53 1.260 . S
C75 Tb11 2.833 . S
C75 O50 1.251 1_545 S
C75 O55 1.256 . S
C75 C68 1.500 . S
H76 C59 0.930 . S
H77 C60 0.931 . S
H78 C61 0.930 . S
H79 C62 0.930 . S
H80 C69 0.930 . S
H81 C71 0.931 . S
H82 C72 0.930 . S
H83 C73 0.930 . S
Tb84 N115 2.660 1_655 S
Tb84 N122 2.600 1_655 S
Tb84 O128 2.546 . S
Tb84 O129 2.610 1_545 S
Tb84 O131 2.320 1_655 S
Tb84 O132 2.552 1_545 S
Tb84 O133 2.413 . S
Tb84 O135 2.362 1_655 S
Tb84 O136 2.421 1_545 S
Tb84 C148 2.833 . S
C85 C88 1.432 . S
C85 C89 1.414 . S
C85 N92 1.359 1_665 S
C86 C88 1.417 . S
C86 C90 1.432 . S
C86 C98 1.410 . S
C87 C89 1.444 . S
C87 C90 1.317 . S
C87 H110 0.929 . S
C88 C85 1.432 . S
C88 C86 1.417 . S
C88 N96 1.360 . S
C89 C85 1.414 . S
C89 C87 1.444 . S
C89 C94 1.385 1_665 S
C90 C86 1.432 . S
C90 C87 1.317 . S
C90 H102 0.930 . S
C91 C93 1.392 . S
C91 C94 1.370 . S
C91 H103 0.931 . S
N92 C85 1.359 1_445 S
N92 C93 1.327 . S
N92 Tb95 2.600 1_545 S
C93 C91 1.392 . S
C93 N92 1.327 . S
C93 H100 0.930 . S
C94 C89 1.385 1_445 S
C94 C91 1.370 . S
C94 H113 0.930 . S
Tb95 N92 2.600 1_565 S
Tb95 N96 2.660 1_455 S
Tb95 O129 2.362 1_455 S
Tb95 O130 2.421 1_565 S
Tb95 O134 2.546 1_565 S
Tb95 O135 2.610 1_565 S
Tb95 O137 2.320 1_455 S
Tb95 O138 2.552 1_565 S
Tb95 O139 2.413 . S
Tb95 C159 2.833 . S
N96 C88 1.360 . S
N96 Tb95 2.660 1_655 S
N96 C97 1.305 . S
C97 N96 1.305 . S
C97 C99 1.407 . S
C97 H104 0.930 . S
C98 C86 1.410 . S
C98 C99 1.345 . S
C98 H106 0.930 . S
C99 C97 1.407 . S
C99 C98 1.345 . S
C99 H101 0.930 . S
H100 C93 0.930 . S
H101 C99 0.930 . S
H102 C90 0.930 . S
H103 C91 0.931 . S
H104 C97 0.930 . S
H105 C119 0.930 . S
H106 C98 0.930 . S
H107 C125 0.930 . S
H108 C116 0.930 . S
H109 C123 0.931 . S
H110 C87 0.929 . S
H111 C117 0.930 . S
H112 C150 0.930 . S
H113 C94 0.930 . S
H114 C149 0.929 . S
N115 Tb84 2.660 1_455 S
N115 C116 1.305 . S
N115 C120 1.360 . S
C116 H108 0.930 . S
C116 N115 1.305 . S
C116 C119 1.407 . S
C117 H111 0.930 . S
C117 C118 1.410 . S
C117 C119 1.345 . S
C118 C117 1.410 . S
C118 C120 1.417 . S
C118 C150 1.432 . S
C119 H105 0.930 . S
C119 C116 1.407 . S
C119 C117 1.345 . S
C120 N115 1.360 . S
C120 C118 1.417 . S
C120 C124 1.432 . S
H121 C126 0.930 . S
N122 Tb84 2.600 1_455 S
N122 C124 1.359 . S
N122 C125 1.327 1_445 S
C123 H109 0.931 . S
C123 C125 1.392 . S
C123 C126 1.370 1_665 S
C124 C120 1.432 . S
C124 N122 1.359 . S
C124 C127 1.414 . S
C125 H107 0.930 . S
C125 N122 1.327 1_665 S
C125 C123 1.392 . S
C126 H121 0.930 . S
C126 C123 1.370 1_445 S
C126 C127 1.385 . S
C127 C124 1.414 . S
C127 C126 1.385 . S
C127 C149 1.444 . S
O128 Tb84 2.546 . S
O128 C148 1.251 . S
O129 Tb84 2.610 1_565 S
O129 Tb95 2.362 1_655 S
O129 C140 1.283 . S
O130 Tb95 2.421 1_545 S
O130 C147 1.262 . S
O131 Tb84 2.320 1_455 S
O131 C147 1.260 . S
O132 Tb84 2.552 1_565 S
O132 C140 1.243 . S
O133 Tb84 2.413 . S
O133 C148 1.256 . S
O134 Tb95 2.546 1_545 S
O134 C159 1.251 1_545 S
O135 Tb84 2.362 1_455 S
O135 Tb95 2.610 1_545 S
O135 C151 1.283 . S
O136 Tb84 2.421 1_565 S
O136 C158 1.262 . S
O137 Tb95 2.320 1_655 S
O137 C158 1.260 . S
O138 Tb95 2.552 1_545 S
O138 C151 1.243 . S
O139 Tb95 2.413 . S
O139 C159 1.256 . S
C140 O129 1.283 . S
C140 O132 1.243 . S
C141 C143 1.382 . S
C141 C145 1.393 . S
C141 C148 1.500 . S
C142 C143 1.400 . S
C142 C144 1.384 . S
C143 C141 1.382 . S
C143 C142 1.400 . S
C143 H160 0.930 . S
C144 C142 1.384 . S
C144 C146 1.392 . S
C144 H161 0.931 . S
C145 C141 1.393 . S
C145 C146 1.401 . S
C145 H162 0.930 . S
C146 C144 1.392 . S
C146 C145 1.401 . S
C146 H163 0.930 . S
C147 O130 1.262 . S
C147 O131 1.260 . S
C148 Tb84 2.833 . S
C148 O128 1.251 . S
C148 O133 1.256 . S
C148 C141 1.500 . S
C149 H114 0.929 . S
C149 C127 1.444 . S
C149 C150 1.317 . S
C150 H112 0.930 . S
C150 C118 1.432 . S
C150 C149 1.317 . S
C151 O135 1.283 . S
C151 O138 1.243 . S
C152 C153 1.382 . S
C152 C156 1.393 . S
C152 C159 1.500 . S
C153 C152 1.382 . S
C153 C154 1.400 . S
C153 H164 0.930 . S
C154 C153 1.400 . S
C154 C155 1.384 . S
C155 C154 1.384 . S
C155 C157 1.392 . S
C155 H165 0.931 . S
C156 C152 1.393 . S
C156 C157 1.401 . S
C156 H166 0.930 1_565 S
C157 C155 1.392 . S
C157 C156 1.401 . S
C157 H167 0.930 . S
C158 O136 1.262 . S
C158 O137 1.260 . S
C159 Tb95 2.833 . S
C159 O134 1.251 1_565 S
C159 O139 1.256 . S
C159 C152 1.500 . S
H160 C143 0.930 . S
H161 C144 0.931 . S
H162 C145 0.930 . S
H163 C146 0.930 . S
H164 C153 0.930 . S
H165 C155 0.931 . S
H166 C156 0.930 1_545 S
H167 C157 0.930 . S
Zn168 O174 1.920 . S
Zn168 O180 1.898 . S
Zn168 O183 1.905 . S
Zn169 O177 1.905 . S
Zn169 O178 1.898 . S
Zn169 O186 1.920 . S
Zn170 O173 2.080 . S
Zn170 O176 2.114 . S
Zn170 O179 2.120 . S
Zn170 O181 2.120 . S
Zn170 O182 2.114 . S
Zn170 O185 2.080 . S
C171 O176 1.166 . S
C171 O177 1.182 . S
C172 O178 1.167 . S
C172 O179 1.299 . S
O173 Zn170 2.080 . S
O173 C187 1.305 . S
O174 Zn168 1.920 . S
O174 C187 1.234 . S
C175 O180 1.167 . S
C175 O181 1.299 . S
O176 Zn170 2.114 . S
O176 C171 1.166 . S
O177 Zn169 1.905 . S
O177 C171 1.182 . S
O178 Zn169 1.898 . S
O178 C172 1.167 . S
O179 Zn170 2.120 . S
O179 C172 1.299 . S
O180 Zn168 1.898 . S
O180 C175 1.167 . S
O181 Zn170 2.120 . S
O181 C175 1.299 . S
O182 Zn170 2.114 . S
O182 C184 1.166 . S
O183 Zn168 1.905 . S
O183 C184 1.182 . S
C184 O182 1.166 . S
C184 O183 1.182 . S
O185 Zn170 2.080 . S
O185 C188 1.305 . S
O186 Zn169 1.920 . S
O186 C188 1.234 . S
C187 O173 1.305 . S
C187 O174 1.234 . S
C188 O185 1.305 . S
C188 O186 1.234 . S
Zn189 O195 1.920 . S
Zn189 O201 1.898 . S
Zn189 O204 1.905 . S
Zn190 O198 1.905 . S
Zn190 O199 1.898 . S
Zn190 O207 1.920 . S
Zn191 O194 2.080 . S
Zn191 O197 2.114 . S
Zn191 O200 2.120 . S
Zn191 O202 2.120 . S
Zn191 O203 2.114 . S
Zn191 O206 2.080 . S
C192 O197 1.166 . S
C192 O198 1.182 . S
C193 O199 1.167 . S
C193 O200 1.299 . S
O194 Zn191 2.080 . S
O194 C208 1.305 . S
O195 Zn189 1.920 . S
O195 C208 1.234 . S
C196 O201 1.167 . S
C196 O202 1.299 . S
O197 Zn191 2.114 . S
O197 C192 1.166 . S
O198 Zn190 1.905 . S
O198 C192 1.182 . S
O199 Zn190 1.898 . S
O199 C193 1.167 . S
O200 Zn191 2.120 . S
O200 C193 1.299 . S
O201 Zn189 1.898 . S
O201 C196 1.167 . S
O202 Zn191 2.120 . S
O202 C196 1.299 . S
O203 Zn191 2.114 . S
O203 C205 1.166 . S
O204 Zn189 1.905 . S
O204 C205 1.182 . S
C205 O203 1.166 . S
C205 O204 1.182 . S
O206 Zn191 2.080 . S
O206 C209 1.305 . S
O207 Zn190 1.920 . S
O207 C209 1.234 . S
C208 O194 1.305 . S
C208 O195 1.234 . S
C209 O206 1.305 . S
C209 O207 1.234 . S
C210 C211 1.349 . S
C210 C212 1.327 . S
C210 H235 0.950 . S
C211 C210 1.349 . S
C211 C227 1.349 . S
C212 C210 1.327 . S
C212 C231 1.429 . S
C212 H236 0.950 . S
C213 C230 1.574 . S
C213 C232 1.368 . S
C213 H237 0.949 . S
H214 C218 0.949 . S
C215 C216 1.349 . S
C215 C217 1.327 . S
C215 H238 0.950 . S
C216 C215 1.349 . S
C216 C228 1.349 . S
C217 C215 1.327 . S
C217 C233 1.429 . S
C217 H239 0.950 . S
C218 H214 0.949 . S
C218 C226 1.574 . S
C218 C234 1.368 . S
H219 C227 0.950 . S
H220 C225 0.950 . S
H221 C226 0.949 . S
H222 C228 0.950 . S
H223 C229 0.950 . S
H224 C230 0.949 . S
C225 H220 0.950 . S
C225 C227 1.327 . S
C225 C231 1.429 . S
C226 C218 1.574 . S
C226 H221 0.949 . S
C226 C232 1.368 . S
C227 C211 1.349 . S
C227 H219 0.950 . S
C227 C225 1.327 . S
C228 C216 1.349 . S
C228 H222 0.950 . S
C228 C229 1.327 . S
C229 H223 0.950 . S
C229 C228 1.327 . S
C229 C233 1.429 . S
C230 C213 1.574 . S
C230 H224 0.949 . S
C230 C234 1.368 . S
C231 C212 1.429 . S
C231 C225 1.429 . S
C231 C232 1.523 . S
C232 C213 1.368 . S
C232 C226 1.368 . S
C232 C231 1.523 . S
C233 C217 1.429 . S
C233 C229 1.429 . S
C233 C234 1.523 . S
C234 C218 1.368 . S
C234 C230 1.368 . S
C234 C233 1.523 . S
H235 C210 0.950 . S
H236 C212 0.950 . S
H237 C213 0.949 . S
H238 C215 0.950 . S
H239 C217 0.950 . S
C240 C241 1.349 . S
C240 C242 1.327 . S
C240 H265 0.950 1_545 S
C241 C240 1.349 . S
C241 C257 1.349 . S
C242 C240 1.327 . S
C242 C261 1.429 . S
C242 H266 0.950 . S
C243 C260 1.574 . S
C243 C262 1.368 . S
C243 H267 0.949 . S
H244 C248 0.949 . S
C245 C246 1.349 . S
C245 C247 1.327 . S
C245 H268 0.950 . S
C246 C245 1.349 . S
C246 C258 1.349 . S
C247 C245 1.327 . S
C247 C263 1.429 . S
C247 H269 0.950 . S
C248 H244 0.949 . S
C248 C256 1.574 . S
C248 C264 1.368 . S
H249 C257 0.950 . S
H250 C255 0.950 . S
H251 C256 0.949 . S
H252 C258 0.950 . S
H253 C259 0.950 . S
H254 C260 0.949 . S
C255 H250 0.950 . S
C255 C257 1.327 . S
C255 C261 1.429 . S
C256 C248 1.574 . S
C256 H251 0.949 . S
C256 C262 1.368 . S
C257 C241 1.349 . S
C257 H249 0.950 . S
C257 C255 1.327 . S
C258 C246 1.349 . S
C258 H252 0.950 . S
C258 C259 1.327 . S
C259 H253 0.950 . S
C259 C258 1.327 . S
C259 C263 1.429 . S
C260 C243 1.574 . S
C260 H254 0.949 . S
C260 C264 1.368 . S
C261 C242 1.429 . S
C261 C255 1.429 . S
C261 C262 1.523 . S
C262 C243 1.368 . S
C262 C256 1.368 . S
C262 C261 1.523 . S
C263 C247 1.429 . S
C263 C259 1.429 . S
C263 C264 1.523 . S
C264 C248 1.368 . S
C264 C260 1.368 . S
C264 C263 1.523 . S
H265 C240 0.950 1_565 S
H266 C242 0.950 . S
H267 C243 0.949 . S
H268 C245 0.950 . S
H269 C247 0.950 . S
C270 C271 1.349 . S
C270 C272 1.327 . S
C270 H295 0.950 . S
C271 C270 1.349 . S
C271 C287 1.349 . S
C272 C270 1.327 . S
C272 C291 1.429 . S
C272 H296 0.950 . S
C273 C290 1.574 . S
C273 C292 1.368 . S
C273 H297 0.949 . S
H274 C278 0.949 . S
C275 C276 1.349 . S
C275 C277 1.327 . S
C275 H298 0.950 . S
C276 C275 1.349 . S
C276 C288 1.349 . S
C277 C275 1.327 . S
C277 C293 1.429 . S
C277 H299 0.950 . S
C278 H274 0.949 . S
C278 C286 1.574 . S
C278 C294 1.368 . S
H279 C287 0.950 . S
H280 C285 0.950 . S
H281 C286 0.949 . S
H282 C288 0.950 . S
H283 C289 0.950 . S
H284 C290 0.949 . S
C285 H280 0.950 . S
C285 C287 1.327 . S
C285 C291 1.429 . S
C286 C278 1.574 . S
C286 H281 0.949 . S
C286 C292 1.368 . S
C287 C271 1.349 . S
C287 H279 0.950 . S
C287 C285 1.327 . S
C288 C276 1.349 . S
C288 H282 0.950 . S
C288 C289 1.327 . S
C289 H283 0.950 . S
C289 C288 1.327 . S
C289 C293 1.429 . S
C290 C273 1.574 . S
C290 H284 0.949 . S
C290 C294 1.368 . S
C291 C272 1.429 . S
C291 C285 1.429 . S
C291 C292 1.523 . S
C292 C273 1.368 . S
C292 C286 1.368 . S
C292 C291 1.523 . S
C293 C277 1.429 . S
C293 C289 1.429 . S
C293 C294 1.523 . S
C294 C278 1.368 . S
C294 C290 1.368 . S
C294 C293 1.523 . S
H295 C270 0.950 . S
H296 C272 0.950 . S
H297 C273 0.949 . S
H298 C275 0.950 . S
H299 C277 0.950 . S
C300 C301 1.349 . S
C300 C302 1.327 . S
C300 H325 0.950 . S
C301 C300 1.349 . S
C301 C317 1.349 . S
C302 C300 1.327 . S
C302 C321 1.429 . S
C302 H326 0.950 . S
C303 C320 1.574 . S
C303 C322 1.368 . S
C303 H327 0.949 . S
H304 C308 0.949 . S
C305 C306 1.349 . S
C305 C307 1.327 . S
C305 H328 0.950 . S
C306 C305 1.349 . S
C306 C318 1.349 . S
C307 C305 1.327 . S
C307 C323 1.429 . S
C307 H329 0.950 . S
C308 H304 0.949 . S
C308 C316 1.574 . S
C308 C324 1.368 . S
H309 C317 0.950 . S
H310 C315 0.950 . S
H311 C316 0.949 . S
H312 C318 0.950 . S
H313 C319 0.950 . S
H314 C320 0.949 . S
C315 H310 0.950 . S
C315 C317 1.327 . S
C315 C321 1.429 . S
C316 C308 1.574 . S
C316 H311 0.949 . S
C316 C322 1.368 . S
C317 C301 1.349 . S
C317 H309 0.950 . S
C317 C315 1.327 . S
C318 C306 1.349 . S
C318 H312 0.950 . S
C318 C319 1.327 . S
C319 H313 0.950 . S
C319 C318 1.327 . S
C319 C323 1.429 . S
C320 C303 1.574 . S
C320 H314 0.949 . S
C320 C324 1.368 . S
C321 C302 1.429 . S
C321 C315 1.429 . S
C321 C322 1.523 . S
C322 C303 1.368 . S
C322 C316 1.368 . S
C322 C321 1.523 . S
C323 C307 1.429 . S
C323 C319 1.429 . S
C323 C324 1.523 . S
C324 C308 1.368 . S
C324 C320 1.368 . S
C324 C323 1.523 . S
H325 C300 0.950 . S
H326 C302 0.950 . S
H327 C303 0.949 . S
H328 C305 0.950 . S
H329 C307 0.950 . S
C330 C331 1.349 . S
C330 C332 1.327 . S
C330 H355 0.950 . S
C331 C330 1.349 . S
C331 C347 1.349 . S
C332 C330 1.327 . S
C332 C351 1.429 . S
C332 H356 0.950 . S
C333 C350 1.574 . S
C333 C352 1.368 . S
C333 H357 0.949 . S
H334 C338 0.949 . S
C335 C336 1.349 . S
C335 C337 1.327 . S
C335 H358 0.950 . S
C336 C335 1.349 . S
C336 C348 1.349 . S
C337 C335 1.327 . S
C337 C353 1.429 . S
C337 H359 0.950 . S
C338 H334 0.949 . S
C338 C346 1.574 . S
C338 C354 1.368 . S
H339 C347 0.938 1_545 S
H340 C345 0.950 . S
H341 C346 0.949 . S
H342 C348 0.950 . S
H343 C349 0.950 . S
H344 C350 0.949 . S
C345 H340 0.950 . S
C345 C347 1.327 . S
C345 C351 1.429 . S
C346 C338 1.574 . S
C346 H341 0.949 . S
C346 C352 1.368 . S
C347 C331 1.349 . S
C347 H339 0.938 1_565 S
C347 C345 1.327 . S
C348 C336 1.349 . S
C348 H342 0.950 . S
C348 C349 1.327 . S
C349 H343 0.950 . S
C349 C348 1.327 . S
C349 C353 1.429 . S
C350 C333 1.574 . S
C350 H344 0.949 . S
C350 C354 1.368 . S
C351 C332 1.429 . S
C351 C345 1.429 . S
C351 C352 1.523 . S
C352 C333 1.368 . S
C352 C346 1.368 . S
C352 C351 1.523 . S
C353 C337 1.429 . S
C353 C349 1.429 . S
C353 C354 1.523 . S
C354 C338 1.368 . S
C354 C350 1.368 . S
C354 C353 1.523 . S
H355 C330 0.950 . S
H356 C332 0.950 . S
H357 C333 0.949 . S
H358 C335 0.950 . S
H359 C337 0.950 . S
C360 C361 1.349 . S
C360 C362 1.327 . S
C360 H385 0.950 . S
C361 C360 1.349 . S
C361 C377 1.349 . S
C362 C360 1.327 . S
C362 C381 1.429 . S
C362 H386 0.950 . S
C363 C380 1.574 . S
C363 C382 1.368 . S
C363 H387 0.949 . S
H364 C368 0.949 . S
C365 C366 1.349 . S
C365 C367 1.327 . S
C365 H388 0.950 . S
C366 C365 1.349 . S
C366 C378 1.349 . S
C367 C365 1.327 . S
C367 C383 1.429 . S
C367 H389 0.950 . S
C368 H364 0.949 . S
C368 C376 1.574 . S
C368 C384 1.368 . S
H369 C377 0.950 . S
H370 C375 0.950 . S
H371 C376 0.949 . S
H372 C378 0.950 . S
H373 C379 0.950 . S
H374 C380 0.949 . S
C375 H370 0.950 . S
C375 C377 1.327 . S
C375 C381 1.429 . S
C376 C368 1.574 . S
C376 H371 0.949 . S
C376 C382 1.368 . S
C377 C361 1.349 . S
C377 H369 0.950 . S
C377 C375 1.327 . S
C378 C366 1.349 . S
C378 H372 0.950 . S
C378 C379 1.327 . S
C379 H373 0.950 . S
C379 C378 1.327 . S
C379 C383 1.429 . S
C380 C363 1.574 . S
C380 H374 0.949 . S
C380 C384 1.368 . S
C381 C362 1.429 . S
C381 C375 1.429 . S
C381 C382 1.523 . S
C382 C363 1.368 . S
C382 C376 1.368 . S
C382 C381 1.523 . S
C383 C367 1.429 . S
C383 C379 1.429 . S
C383 C384 1.523 . S
C384 C368 1.368 . S
C384 C380 1.368 . S
C384 C383 1.523 . S
H385 C360 0.950 . S
H386 C362 0.950 . S
H387 C363 0.949 . S
H388 C365 0.950 . S
H389 C367 0.950 . S
C390 C391 1.349 . S
C390 C392 1.327 . S
C390 H415 0.950 . S
C391 C390 1.349 . S
C391 C407 1.349 . S
C392 C390 1.327 . S
C392 C411 1.429 . S
C392 H416 0.950 . S
C393 C410 1.574 . S
C393 C412 1.368 . S
C393 H417 0.949 . S
H394 C398 0.949 . S
C395 C396 1.349 . S
C395 C397 1.327 . S
C395 H418 0.950 . S
C396 C395 1.349 . S
C396 C408 1.349 . S
C397 C395 1.327 . S
C397 C413 1.429 . S
C397 H419 0.950 . S
C398 H394 0.949 . S
C398 C406 1.574 . S
C398 C414 1.368 . S
H399 C407 0.950 . S
H400 C405 0.950 . S
H401 C406 0.949 . S
H402 C408 0.950 . S
H403 C409 0.950 . S
H404 C410 0.949 . S
C405 H400 0.950 . S
C405 C407 1.327 . S
C405 C411 1.429 . S
C406 C398 1.574 . S
C406 H401 0.949 . S
C406 C412 1.368 . S
C407 C391 1.349 . S
C407 H399 0.950 . S
C407 C405 1.327 . S
C408 C396 1.349 . S
C408 H402 0.950 . S
C408 C409 1.327 . S
C409 H403 0.950 . S
C409 C408 1.327 . S
C409 C413 1.429 . S
C410 C393 1.574 . S
C410 H404 0.949 . S
C410 C414 1.368 . S
C411 C392 1.429 . S
C411 C405 1.429 . S
C411 C412 1.523 . S
C412 C393 1.368 . S
C412 C406 1.368 . S
C412 C411 1.523 . S
C413 C397 1.429 . S
C413 C409 1.429 . S
C413 C414 1.523 . S
C414 C398 1.368 . S
C414 C410 1.368 . S
C414 C413 1.523 . S
H415 C390 0.950 . S
H416 C392 0.950 . S
H417 C393 0.949 . S
H418 C395 0.950 . S
H419 C397 0.950 . S
C420 C421 1.349 . S
C420 C422 1.327 . S
C420 H445 0.950 . S
C421 C420 1.349 . S
C421 C437 1.349 . S
C422 C420 1.327 . S
C422 C441 1.429 . S
C422 H446 0.950 . S
C423 C440 1.574 . S
C423 C442 1.368 . S
C423 H447 0.949 . S
H424 C428 0.949 . S
C425 C426 1.349 . S
C425 C427 1.327 . S
C425 H448 0.950 . S
C426 C425 1.349 . S
C426 C438 1.349 . S
C427 C425 1.327 . S
C427 C443 1.429 . S
C427 H449 0.950 . S
C428 H424 0.949 . S
C428 C436 1.574 . S
C428 C444 1.368 . S
H429 C437 0.950 . S
H430 C435 0.950 . S
H431 C436 0.949 . S
H432 C438 0.950 . S
H433 C439 0.950 . S
H434 C440 0.949 . S
C435 H430 0.950 . S
C435 C437 1.327 . S
C435 C441 1.429 . S
C436 C428 1.574 . S
C436 H431 0.949 . S
C436 C442 1.368 . S
C437 C421 1.349 . S
C437 H429 0.950 . S
C437 C435 1.327 . S
C438 C426 1.349 . S
C438 H432 0.950 . S
C438 C439 1.327 . S
C439 H433 0.950 . S
C439 C438 1.327 . S
C439 C443 1.429 . S
C440 C423 1.574 . S
C440 H434 0.949 . S
C440 C444 1.368 . S
C441 C422 1.429 . S
C441 C435 1.429 . S
C441 C442 1.523 . S
C442 C423 1.368 . S
C442 C436 1.368 . S
C442 C441 1.523 . S
C443 C427 1.429 . S
C443 C439 1.429 . S
C443 C444 1.523 . S
C444 C428 1.368 . S
C444 C440 1.368 . S
C444 C443 1.523 . S
H445 C420 0.950 . S
H446 C422 0.950 . S
H447 C423 0.949 . S
H448 C425 0.950 . S
H449 C427 0.950 . S
C450 C451 1.349 . S
C450 C452 1.327 . S
C450 H475 0.950 . S
C451 C450 1.349 . S
C451 C467 1.349 . S
C452 C450 1.327 . S
C452 C471 1.429 . S
C452 H476 0.950 . S
C453 C470 1.574 . S
C453 C472 1.368 . S
C453 H477 0.949 . S
H454 C458 0.949 . S
C455 C456 1.349 . S
C455 C457 1.327 . S
C455 H478 0.950 . S
C456 C455 1.349 . S
C456 C468 1.349 . S
C457 C455 1.327 . S
C457 C473 1.429 . S
C457 H479 0.950 . S
C458 H454 0.949 . S
C458 C466 1.574 . S
C458 C474 1.368 . S
H459 C467 0.950 . S
H460 C465 0.950 . S
H461 C466 0.949 . S
H462 C468 0.950 . S
H463 C469 0.950 . S
H464 C470 0.949 . S
C465 H460 0.950 . S
C465 C467 1.327 . S
C465 C471 1.429 . S
C466 C458 1.574 . S
C466 H461 0.949 . S
C466 C472 1.368 . S
C467 C451 1.349 . S
C467 H459 0.950 . S
C467 C465 1.327 . S
C468 C456 1.349 . S
C468 H462 0.950 . S
C468 C469 1.327 . S
C469 H463 0.950 . S
C469 C468 1.327 . S
C469 C473 1.429 . S
C470 C453 1.574 . S
C470 H464 0.949 . S
C470 C474 1.368 . S
C471 C452 1.429 . S
C471 C465 1.429 . S
C471 C472 1.523 . S
C472 C453 1.368 . S
C472 C466 1.368 . S
C472 C471 1.523 . S
C473 C457 1.429 . S
C473 C469 1.429 . S
C473 C474 1.523 . S
C474 C458 1.368 . S
C474 C470 1.368 . S
C474 C473 1.523 . S
H475 C450 0.950 . S
H476 C452 0.950 . S
H477 C453 0.949 . S
H478 C455 0.950 . S
H479 C457 0.950 . S
C480 C481 1.349 . S
C480 C482 1.327 . S
C480 H505 0.950 . S
C481 C480 1.349 . S
C481 C497 1.349 . S
C482 C480 1.327 . S
C482 C501 1.429 . S
C482 H506 0.950 . S
C483 C500 1.574 . S
C483 C502 1.368 . S
C483 H507 0.949 . S
H484 C488 0.949 . S
C485 C486 1.349 . S
C485 C487 1.327 . S
C485 H508 0.950 . S
C486 C485 1.349 . S
C486 C498 1.349 . S
C487 C485 1.327 . S
C487 C503 1.429 . S
C487 H509 0.950 . S
C488 H484 0.949 . S
C488 C496 1.574 . S
C488 C504 1.368 . S
H489 C497 0.950 . S
H490 C495 0.950 . S
H491 C496 0.949 . S
H492 C498 0.950 . S
H493 C499 0.950 . S
H494 C500 0.949 . S
C495 H490 0.950 . S
C495 C497 1.327 . S
C495 C501 1.429 . S
C496 C488 1.574 . S
C496 H491 0.949 . S
C496 C502 1.368 . S
C497 C481 1.349 . S
C497 H489 0.950 . S
C497 C495 1.327 . S
C498 C486 1.349 . S
C498 H492 0.950 . S
C498 C499 1.327 . S
C499 H493 0.950 . S
C499 C498 1.327 . S
C499 C503 1.429 . S
C500 C483 1.574 . S
C500 H494 0.949 . S
C500 C504 1.368 . S
C501 C482 1.429 . S
C501 C495 1.429 . S
C501 C502 1.523 . S
C502 C483 1.368 . S
C502 C496 1.368 . S
C502 C501 1.523 . S
C503 C487 1.429 . S
C503 C499 1.429 . S
C503 C504 1.523 . S
C504 C488 1.368 . S
C504 C500 1.368 . S
C504 C503 1.523 . S
H505 C480 0.950 . S
H506 C482 0.950 . S
H507 C483 0.949 . S
H508 C485 0.950 . S
H509 C487 0.950 . S
C510 C511 1.349 . S
C510 C512 1.327 . S
C510 H535 0.950 . S
C511 C510 1.349 . S
C511 C527 1.349 . S
C512 C510 1.327 . S
C512 C531 1.429 . S
C512 H536 0.950 . S
C513 C530 1.574 . S
C513 C532 1.368 . S
C513 H537 0.949 . S
H514 C518 0.949 . S
C515 C516 1.349 . S
C515 C517 1.327 . S
C515 H538 0.950 . S
C516 C515 1.349 . S
C516 C528 1.349 . S
C517 C515 1.327 . S
C517 C533 1.429 . S
C517 H539 0.950 . S
C518 H514 0.949 . S
C518 C526 1.574 . S
C518 C534 1.368 . S
H519 C527 0.950 1_545 S
H520 C525 0.950 . S
H521 C526 0.949 . S
H522 C528 0.950 . S
H523 C529 0.950 . S
H524 C530 0.949 . S
C525 H520 0.950 . S
C525 C527 1.327 . S
C525 C531 1.429 . S
C526 C518 1.574 . S
C526 H521 0.949 . S
C526 C532 1.368 . S
C527 C511 1.349 . S
C527 H519 0.950 1_565 S
C527 C525 1.327 . S
C528 C516 1.349 . S
C528 H522 0.950 . S
C528 C529 1.327 . S
C529 H523 0.950 . S
C529 C528 1.327 . S
C529 C533 1.429 . S
C530 C513 1.574 . S
C530 H524 0.949 . S
C530 C534 1.368 . S
C531 C512 1.429 . S
C531 C525 1.429 . S
C531 C532 1.523 . S
C532 C513 1.368 . S
C532 C526 1.368 . S
C532 C531 1.523 . S
C533 C517 1.429 . S
C533 C529 1.429 . S
C533 C534 1.523 . S
C534 C518 1.368 . S
C534 C530 1.368 . S
C534 C533 1.523 . S
H535 C510 0.950 . S
H536 C512 0.950 . S
H537 C513 0.949 . S
H538 C515 0.950 . S
H539 C517 0.950 . S
C540 C541 1.349 . S
C540 C542 1.327 . S
C540 H565 0.950 1_655 S
C541 C540 1.349 . S
C541 C557 1.349 . S
C542 C540 1.327 . S
C542 C561 1.429 . S
C542 H566 0.950 . S
C543 C560 1.574 . S
C543 C562 1.368 . S
C543 H567 0.949 . S
H544 C548 0.949 . S
C545 C546 1.349 . S
C545 C547 1.327 . S
C545 H568 0.950 . S
C546 C545 1.349 . S
C546 C558 1.349 . S
C547 C545 1.327 . S
C547 C563 1.429 . S
C547 H569 0.950 . S
C548 H544 0.949 . S
C548 C556 1.574 . S
C548 C564 1.368 . S
H549 C557 0.950 . S
H550 C555 0.950 . S
H551 C556 0.949 . S
H552 C558 0.950 . S
H553 C559 0.950 . S
H554 C560 0.949 . S
C555 H550 0.950 . S
C555 C557 1.327 . S
C555 C561 1.429 . S
C556 C548 1.574 . S
C556 H551 0.949 . S
C556 C562 1.368 . S
C557 C541 1.349 . S
C557 H549 0.950 . S
C557 C555 1.327 . S
C558 C546 1.349 . S
C558 H552 0.950 . S
C558 C559 1.327 . S
C559 H553 0.950 . S
C559 C558 1.327 . S
C559 C563 1.429 . S
C560 C543 1.574 . S
C560 H554 0.949 . S
C560 C564 1.368 . S
C561 C542 1.429 . S
C561 C555 1.429 . S
C561 C562 1.523 . S
C562 C543 1.368 . S
C562 C556 1.368 . S
C562 C561 1.523 . S
C563 C547 1.429 . S
C563 C559 1.429 . S
C563 C564 1.523 . S
C564 C548 1.368 . S
C564 C560 1.368 . S
C564 C563 1.523 . S
H565 C540 0.950 1_455 S
H566 C542 0.950 . S
H567 C543 0.949 . S
H568 C545 0.950 . S
H569 C547 0.950 . S
C211 C58 1.134 . S
C216 C187 1.244 . S
C241 C151 1.550 . S
C246 C193 1.431 . S
C271 C74 1.531 . S
C276 C184 1.453 . S
C301 C142 1.134 . S
C306 C209 1.244 . S
C331 C67 1.550 . S
C336 C175 1.431 . S
C366 C192 1.453 . S
C361 C158 1.531 . S
C391 C154 1.132 . S
C396 C188 1.255 . S
C426 C205 1.471 . S
C421 C56 1.560 . S
C456 C172 1.397 . S
C451 C147 1.531 . S
C486 C208 1.255 . S
C481 C70 1.132 . S
C516 C171 1.471 . S
C511 C140 1.560 . S
C546 C196 1.397 . S
C541 C63 1.531 . S
